
###############################################################################
#
# This file contains modified crystal structure data generated from the
# MOF subset of the Cambridge Structural Database (CSD) v543 
# hosted by the Cambridge Crystallographic Data Centre (CCDC).
#
# This work is licensed under the Creative Commons
# Attribution-NonCommercial-ShareAlike 4.0 International License.
# To view a copy of this license, visit
# http://creativecommons.org/licenses/by-nc-sa/4.0/
# or send a letter to
# Creative Commons, PO Box 1866, Mountain View, CA 94042, USA.
#
# CIF created using the CSD Python API on 29 September 2022
# The structure has been converted into the P1 space group
# The structure has a 3D framework
# The original CSD entry IBOWIH is in the trigonal crystal system
# The original CSD entry IBOWIH is in a Sohncke space group
# The framework has been calculated to contain at least 10.0% void space
# The void calculation uses a probe of radius 1.32A, grid spacing 0.4
# The framework is charged, counterions have been retained in the structure
# H atom positions have been added when not included in the experimental data
#
###############################################################################

data_IBOWIH
_chemical_formula_moiety         '(C216 H246 Br12 N36 O18 Zn6)n'
_symmetry_cell_setting           triclinic
_symmetry_space_group_name_H-M   'P 1'
_symmetry_Int_Tables_number      1
_space_group_name_Hall           'P 1'
loop_
_symmetry_equiv_pos_site_id
_symmetry_equiv_pos_as_xyz
1 x,y,z
_cell_length_a                   13.37139(6)
_cell_length_b                   13.37139(6)
_cell_length_c                   41.4227(2)
_cell_angle_alpha                90
_cell_angle_beta                 90
_cell_angle_gamma                120
_cell_volume                     6413.9
loop_
_atom_site_label
_atom_site_type_symbol
_atom_site_fract_x
_atom_site_fract_y
_atom_site_fract_z
C14 C 0.0639(4) 0.3312(5) 0.81148(11)
H16 H 0.1323 0.3822 0.8000
C15 C 0.0559(4) 0.2368(5) 0.82643(12)
H17 H 0.1182 0.2219 0.8252
Zn2 Zn 0.33426(4) 0.69262(3) 0.917166(7)
Zn4 Zn 0.35836(3) 0.66574(4) 0.583832(7)
N7 N 0.48268(27) 0.78374(19) 0.88831(5)
H40 H 0.5246(20) 0.749(2) 0.8917(7)
H41 H 0.5197(21) 0.8587(7) 0.8941(7)
C37 C 0.4554(3) 0.7854(2) 0.85375(5)
H42 H 0.5081 0.8640 0.8447
C38 C 0.3299(3) 0.7581(2) 0.85053(6)
O4 O 0.26025(23) 0.71609(17) 0.87351(4)
N8 N 0.3024(3) 0.7789(2) 0.82144(5)
H43 H 0.354(5) 0.816(3) 0.8056(7)
C39 C 0.1927(3) 0.7488(2) 0.80845(6)
C40 C 0.1913(6) 0.7921(4) 0.77827(8)
H44 H 0.2621 0.8422 0.7677
C41 C 0.0873(4) 0.7630(3) 0.76330(8)
H45 H 0.0871 0.7935 0.7426
C44 C 0.0891(4) 0.6756(3) 0.82354(7)
H47 H 0.0889 0.6455 0.8444
O6 O 0.32302(16) 0.53182(16) 0.89979(4)
N11 N 0.18097(18) 0.5642(2) 0.93880(5)
H51 H 0.131(2) 0.590(3) 0.9407(8)
H53 H 0.206(3) 0.563(3) 0.9589(3)
C47 C 0.4712(4) 0.6959(3) 0.83481(6)
H54 H 0.4182 0.6179 0.8435
H55 H 0.4507 0.6971 0.8119
C48 C 0.5937(4) 0.7195(3) 0.83686(6)
C49 C 0.6197(5) 0.6462(4) 0.85393(8)
H56 H 0.5603 0.5807 0.8647
C50 C 0.7327(6) 0.6688(5) 0.85519(11)
H57 H 0.7501 0.6178 0.8667
C51 C 0.8191(6) 0.7632(5) 0.84024(12)
H58 H 0.8963 0.7781 0.8415
C52 C 0.7948(6) 0.8372(4) 0.82326(11)
H59 H 0.8550 0.9027 0.8127
C53 C 0.6825(4) 0.8155(3) 0.82166(8)
H60 H 0.6659 0.8668 0.8101
N12 N 0.48419(17) 0.64177(25) 0.60982(5)
N13 N 0.35823(25) 0.84242(19) 0.94316(5)
H68 H 0.531(2) 0.708(4) 0.6201(7)
H69 H 0.292(4) 0.823(3) 0.9535(7)
H70 H 0.527(2) 0.6271(28) 0.5959(6)
H71 H 0.3729(28) 0.8999(19) 0.9293(6)
C61 C 0.42975(19) 0.54655(28) 0.63362(5)
H72 H 0.4284 0.4774 0.6239
C62 C 0.3041(2) 0.5160(3) 0.63892(5)
O7 O 0.26279(15) 0.56847(21) 0.62488(4)
O8 O 0.43153(21) 0.69432(15) 0.95822(4)
N14 N 0.24107(18) 0.42504(26) 0.65797(5)
H73 H 0.275(3) 0.3852(32) 0.6647(9)
C63 C 0.1189(2) 0.3700(3) 0.66229(6)
C64 C 0.0594(3) 0.2513(4) 0.66448(15)
H74 H 0.0999 0.2099 0.6630
C65 C 0.0595(3) 0.4280(4) 0.66443(9)
H75 H 0.0998 0.5099 0.6628
C66 C 0.5003(2) 0.5757(3) 0.66523(6)
H76 H 0.5117 0.6498 0.6738
H77 H 0.4561 0.5149 0.6814
C67 C 0.6171(2) 0.5853(3) 0.66032(6)
C68 C 0.7176(2) 0.6848(4) 0.66949(7)
H78 H 0.7134 0.7490 0.6776
C69 C 0.8252(3) 0.6911(4) 0.66673(8)
H79 H 0.8935 0.7595 0.6730
C70 C 0.8320(3) 0.5991(4) 0.65497(8)
H80 H 0.9051 0.6037 0.6532
C71 C 0.7331(3) 0.4992(4) 0.64555(7)
H81 H 0.7383 0.4354 0.6375
C72 C 0.6261(3) 0.4924(4) 0.64795(6)
H82 H 0.5585 0.4243 0.6411
H83 H 0.146836 0.48674 0.927429
H84 H 0.423869 0.868292 0.95924
Zn1 Zn 0.64164(3) 0.30738(3) 0.749501(7)
N1 N 0.69894(19) 0.21626(19) 0.77836(5)
H1 H 0.7756(4) 0.251(2) 0.7750(7)
H2 H 0.661(2) 0.1413(7) 0.7726(7)
C1 C 0.6700(2) 0.2146(2) 0.81292(5)
H3 H 0.6441 0.1360 0.8220
C2 C 0.5718(2) 0.2419(2) 0.81614(6)
O1 O 0.54416(16) 0.28391(17) 0.79316(4)
N2 N 0.5235(2) 0.2211(2) 0.84523(5)
H4 H 0.538(4) 0.184(3) 0.8611(7)
C3 C 0.4439(2) 0.2512(2) 0.85822(6)
C4 C 0.3992(4) 0.2079(4) 0.88840(8)
H5 H 0.4199 0.1578 0.8990
C5 C 0.3243(3) 0.2370(3) 0.90337(8)
H6 H 0.2936 0.2065 0.9241
C6 C 0.2944(2) 0.3101(2) 0.88818(6)
C7 C 0.3392(3) 0.3542(3) 0.85827(7)
H7 H 0.3194 0.4052 0.8479
C8 C 0.4135(3) 0.3244(3) 0.84313(7)
H8 H 0.4434 0.3545 0.8223
N3 N 0.2150(2) 0.33655(19) 0.90390(5)
H9 H 0.1558(18) 0.2732(16) 0.9128(7)
C9 C 0.2332(2) 0.4435(2) 0.90786(6)
C10 C 0.1319(2) 0.4526(2) 0.92200(6)
H10 H 0.0871 0.3878 0.9375
C11 C 0.7753(2) 0.3041(3) 0.83186(6)
H13 H 0.8003 0.3821 0.8232
H14 H 0.7536 0.3029 0.8548
C12 C 0.8742(3) 0.2805(3) 0.82981(6)
C13 C 0.9735(3) 0.3538(4) 0.81274(8)
H15 H 0.9796 0.4193 0.8020
C16 C 0.9576(4) 0.1628(4) 0.84341(11)
H18 H 0.9523 0.0973 0.8540
C17 C 0.8670(3) 0.1845(3) 0.84501(8)
H19 H 0.7991 0.1332 0.8566
C18 C 0.0543(2) 0.4471(2) 0.89392(6)
H20 H 0.1006 0.5105 0.8786
H21 H 0.0262 0.3732 0.8823
H26 H 0.0276 0.6313 0.9003
N5 N 0.51581(17) 0.15758(19) 0.72351(5)
H27 H 0.469(2) 0.177(3) 0.7132(7)
H28 H 0.473(2) 0.1001(19) 0.7374(6)
C25 C 0.57025(19) 0.1168(2) 0.69971(5)
H29 H 0.5716 0.0490 0.7094
C26 C 0.6959(2) 0.2119(2) 0.69441(5)
O3 O 0.73721(15) 0.30568(15) 0.70845(4)
N6 N 0.75893(18) 0.18397(19) 0.67536(5)
H30 H 0.725(3) 0.1102(10) 0.6686(9)
C27 C 0.8811(2) 0.2511(2) 0.67104(6)
C28 C 0.9406(3) 0.1919(3) 0.66885(15)
H31 H 0.9001 0.1100 0.6703
C29 C 0.9405(3) 0.3685(3) 0.66890(9)
H32 H 0.9002 0.4101 0.6705
C30 C 0.4997(2) 0.0754(2) 0.66810(6)
H33 H 0.4883 0.1381 0.6595
H34 H 0.5439 0.0588 0.6519
H35 H 0.2866 0.0356 0.6557
C42 C 0.9843(3) 0.6899(2) 0.77849(6)
C43 C 0.9850(4) 0.6458(3) 0.80840(7)
H46 H 0.9142 0.5948 0.8188
N9 N 0.87845(28) 0.66345(19) 0.76277(5)
H48 H 0.8826(24) 0.7268(16) 0.7539(7)
C45 C 0.7897(3) 0.5565(2) 0.75881(6)
O5 O 0.79120(23) 0.46818(16) 0.76688(4)
C46 C 0.6793(3) 0.5474(2) 0.74467(6)
H49 H 0.6993 0.6122 0.7292
N10 N 0.61677(27) 0.4358(2) 0.72787(5)
H50 H 0.541(4) 0.410(3) 0.7260(8)
H52 H 0.643(4) 0.437(3) 0.7078(3)
C54 C 0.6072(3) 0.5529(2) 0.77275(6)
H61 H 0.5901 0.4895 0.7881
H62 H 0.6530 0.6268 0.7844
C55 C 0.4957(3) 0.5431(2) 0.76168(6)
C56 C 0.4918(4) 0.6407(3) 0.75233(6)
H63 H 0.5604 0.7140 0.7529
C57 C 0.3890(4) 0.6327(3) 0.74226(7)
H64 H 0.3872 0.7005 0.7365
C58 C 0.2892(4) 0.5258(3) 0.74071(8)
H65 H 0.2188 0.5204 0.7340
C59 C 0.2919(4) 0.4277(3) 0.74896(8)
H66 H 0.2241 0.3542 0.7472
C60 C 0.3952(4) 0.4364(3) 0.76001(7)
H67 H 0.3963 0.3687 0.7664
C31 C 0.3829(2) 0.9682(2) 0.67301(6)
C32 C 0.2824(2) 0.9672(3) 0.66384(7)
C33 C 0.1748(3) 0.8659(3) 0.66660(8)
H36 H 0.1065 0.8660 0.6603
C34 C 0.1680(3) 0.7671(3) 0.67836(8)
H37 H 0.0949 0.6986 0.6801
C35 C 0.2669(3) 0.7661(3) 0.68778(7)
H38 H 0.2617 0.6971 0.6958
C36 C 0.3739(3) 0.8663(3) 0.68538(6)
H39 H 0.4415 0.8658 0.6922
C19 C 0.9526(2) 0.4569(2) 0.90499(6)
C20 C 0.8511(3) 0.3593(3) 0.91434(6)
H22 H 0.8464 0.2860 0.9138
C21 C 0.7563(3) 0.3673(3) 0.92441(7)
H23 H 0.6867 0.2995 0.9302
C22 C 0.7634(3) 0.4742(3) 0.92596(8)
H24 H 0.6984 0.4796 0.9327
C23 C 0.8642(3) 0.5723(3) 0.91771(8)
H25 H 0.8699 0.6458 0.9195
C24 C 0.9588(3) 0.5636(3) 0.90666(7)
C32_2 C 0.0328(3) 0.3152(4) 0.99717(7)
C33_2 C 0.1341(3) 0.3089(4) 0.99993(8)
H36_2 H 0.1340 0.2405 0.9936
C50_2 C 0.3312(5) 0.0639(8) 0.18852(11)
H57_2 H 0.3822 0.1323 0.2000
C51_2 C 0.2368(5) 0.0559(8) 0.17357(12)
H58_2 H 0.2219 0.1182 0.1748
C68_2 C 0.3152(4) 0.0328(4) 0.00283(7)
C69_2 C 0.3089(4) 0.1341(5) 0.00007(8)
H79_2 H 0.2405 0.1340 0.0064
Zn1_2 Zn 0.69262(3) 0.33426(4) 0.082834(7)
N1_2 N 0.78374(19) 0.48268(27) 0.11169(5)
H1_2 H 0.749(2) 0.5246(20) 0.1083(7)
H2_2 H 0.8587(7) 0.5197(21) 0.1059(7)
C1_2 C 0.7854(2) 0.4554(3) 0.14625(5)
H3_2 H 0.8640 0.5081 0.1553
C2_2 C 0.7581(2) 0.3299(3) 0.14947(6)
O1_2 O 0.71609(17) 0.26025(23) 0.12649(4)
N2_2 N 0.7789(2) 0.3024(3) 0.17856(5)
H4_2 H 0.816(3) 0.354(5) 0.1944(7)
C3_2 C 0.7488(2) 0.1927(3) 0.19155(6)
C4_2 C 0.7921(4) 0.1913(6) 0.22173(8)
H5_2 H 0.8422 0.2621 0.2323
C5_2 C 0.7630(3) 0.0873(4) 0.23670(8)
H6_2 H 0.7935 0.0871 0.2574
C8_2 C 0.6756(3) 0.0891(4) 0.17646(7)
H8_2 H 0.6455 0.0889 0.1556
C11_2 C 0.6959(3) 0.4712(4) 0.16519(6)
H13_2 H 0.6179 0.4182 0.1565
H14_2 H 0.6971 0.4507 0.1881
C12_2 C 0.7195(3) 0.5937(4) 0.16314(6)
C13_2 C 0.6462(4) 0.6197(5) 0.14607(8)
H15_2 H 0.5807 0.5603 0.1353
C14_2 C 0.6688(5) 0.7327(6) 0.14481(11)
H16_2 H 0.6178 0.7501 0.1333
C15_2 C 0.7632(5) 0.8191(6) 0.15976(12)
H17_2 H 0.7781 0.8963 0.1585
C16_2 C 0.8372(4) 0.7948(6) 0.17674(11)
H18_2 H 0.9027 0.8550 0.1873
C17_2 C 0.8155(3) 0.6825(4) 0.17834(8)
H19_2 H 0.8668 0.6659 0.1899
N5_2 N 0.84242(19) 0.35823(25) 0.05684(5)
H27_2 H 0.823(3) 0.292(4) 0.0465(7)
H28_2 H 0.8999(19) 0.3729(28) 0.0707(6)
C25_2 C 0.8832(2) 0.45345(28) 0.03304(5)
H29_2 H 0.9510 0.5226 0.0427
C26_2 C 0.7881(2) 0.4840(3) 0.02774(5)
O3_2 O 0.69432(15) 0.43153(21) 0.04178(4)
N6_2 N 0.81603(19) 0.57496(26) 0.00869(5)
H30_2 H 0.8898(10) 0.6148(32) 0.0019(9)
C27_2 C 0.7489(2) 0.6300(3) 0.00437(6)
C28_2 C 0.8081(3) 0.7487(4) 0.00218(15)
H31_2 H 0.8900 0.7901 0.0036
C29_2 C 0.6315(3) 0.5720(4) 0.00223(9)
H32_2 H 0.5899 0.4901 0.0038
C30_2 C 0.9246(2) 0.4243(3) 0.00143(6)
Zn2_2 Zn 0.30738(3) 0.64164(5) 0.250499(7)
N7_2 N 0.21626(19) 0.69894(33) 0.22164(5)
H40_2 H 0.251(2) 0.7756(28) 0.2250(7)
H41_2 H 0.1413(7) 0.6610(22) 0.2274(7)
C37_2 C 0.2146(2) 0.6700(4) 0.18708(5)
H42_2 H 0.1360 0.6441 0.1780
C38_2 C 0.2419(2) 0.5718(4) 0.18386(6)
O4_2 O 0.28391(17) 0.54416(29) 0.20684(4)
N8_2 N 0.2211(2) 0.5235(4) 0.15477(5)
H43_2 H 0.184(3) 0.538(6) 0.1389(7)
C39_2 C 0.2512(2) 0.4439(4) 0.14178(6)
C40_2 C 0.2079(4) 0.3992(7) 0.11160(8)
H44_2 H 0.1578 0.4199 0.1010
C41_2 C 0.2370(3) 0.3243(5) 0.09663(8)
H45_2 H 0.2065 0.2936 0.0759
C42_2 C 0.3101(2) 0.2944(4) 0.11182(6)
C43_2 C 0.3542(3) 0.3392(5) 0.14173(7)
H46_2 H 0.4052 0.3194 0.1521
C44_2 C 0.3244(3) 0.4135(5) 0.15687(7)
H47_2 H 0.3545 0.4434 0.1777
N9_2 N 0.33655(19) 0.21500(34) 0.09610(5)
H48_2 H 0.2732(16) 0.1558(29) 0.0872(7)
C45_2 C 0.4435(2) 0.2332(4) 0.09214(6)
O5_2 O 0.53182(16) 0.32302(28) 0.10021(4)
O6_2 O 0.46818(16) 0.79120(23) 0.23312(4)
C46_2 C 0.4526(2) 0.1319(4) 0.07800(6)
H49_2 H 0.3878 0.0871 0.0625
N10_2 N 0.5642(2) 0.18097(34) 0.06120(5)
N11_2 N 0.4358(2) 0.61677(27) 0.27213(5)
H50_2 H 0.590(3) 0.131(5) 0.0593(8)
H51_2 H 0.410(3) 0.541(4) 0.2740(8)
H52_2 H 0.563(3) 0.206(5) 0.0411(3)
H53_2 H 0.437(3) 0.643(4) 0.2922(3)
C47_2 C 0.3041(3) 0.7753(5) 0.16814(6)
H54_2 H 0.3821 0.8003 0.1768
H55_2 H 0.3029 0.7536 0.1452
C48_2 C 0.2805(3) 0.8742(5) 0.17019(6)
C49_2 C 0.3538(4) 0.9735(6) 0.18726(8)
H56_2 H 0.4193 0.9796 0.1980
C52_2 C 0.1628(4) 0.9576(7) 0.15659(11)
H59_2 H 0.0973 0.9523 0.1460
C53_2 C 0.1845(3) 0.8670(5) 0.15499(8)
H60_2 H 0.1332 0.7991 0.1434
C54_2 C 0.4471(2) 0.0543(4) 0.10608(6)
H61_2 H 0.5105 0.1006 0.1214
H62_2 H 0.3732 0.0262 0.1177
H67_2 H 0.6313 0.0276 0.0997
N13_2 N 0.15758(19) 0.51581(31) 0.27649(5)
H69_2 H 0.177(3) 0.469(5) 0.2868(7)
H71_2 H 0.1001(19) 0.4730(34) 0.2626(6)
O8_2 O 0.30568(15) 0.73721(26) 0.29155(4)
H76_2 H 0.3502 0.8619 0.0072
H77_2 H 0.4851 0.9412 0.0148
H78_2 H 0.2510 0.9644 0.0110
H83_2 H 0.51326 0.660096 0.260762
H84_2 H 0.131708 0.555577 0.292574
H33_2 H 0.8619 0.3502 0.9928
H34_2 H 0.9412 0.4851 0.9852
H35_2 H 0.9644 0.2510 0.9890
C61_2 C 0.45345(28) 0.88320(34) 0.96696(5)
H72_2 H 0.5226 0.9510 0.9573
C62_2 C 0.4840(3) 0.7881(4) 0.97226(5)
N14_2 N 0.57496(26) 0.81603(32) 0.99131(5)
H73_2 H 0.6148(32) 0.8898(44) 0.9981(9)
C63_2 C 0.6300(3) 0.7489(4) 0.99563(6)
C64_2 C 0.7487(4) 0.8081(5) 0.99782(15)
H74_2 H 0.7901 0.8900 0.9964
C65_2 C 0.5720(4) 0.6315(5) 0.99777(9)
H75_2 H 0.4901 0.5899 0.9962
C66_2 C 0.4243(3) 0.9246(4) 0.99857(6)
C6_2 C 0.6899(2) 0.9843(3) 0.22151(6)
C7_2 C 0.6458(3) 0.9850(4) 0.19160(7)
H7_2 H 0.5948 0.9142 0.1812
N3_2 N 0.66345(19) 0.87845(28) 0.23723(5)
H9_2 H 0.7268(16) 0.8826(24) 0.2461(7)
C9_2 C 0.5565(2) 0.7897(3) 0.24119(6)
C10_2 C 0.5474(2) 0.6793(3) 0.25533(6)
H10_2 H 0.6122 0.6993 0.2708
C18_2 C 0.5529(2) 0.6072(3) 0.22725(6)
H20_2 H 0.4895 0.5901 0.2119
H21_2 H 0.6268 0.6530 0.2156
C19_2 C 0.5431(2) 0.4957(3) 0.23832(6)
C20_2 C 0.6407(3) 0.4918(4) 0.24767(6)
H22_2 H 0.7140 0.5604 0.2471
C21_2 C 0.6327(3) 0.3890(4) 0.25774(7)
H23_2 H 0.7005 0.3872 0.2635
C22_2 C 0.5258(3) 0.2892(4) 0.25929(8)
H24_2 H 0.5204 0.2188 0.2660
C23_2 C 0.4277(3) 0.2919(4) 0.25104(8)
H25_2 H 0.3542 0.2241 0.2528
C24_2 C 0.4364(3) 0.3952(4) 0.23999(7)
H26_2 H 0.3687 0.3963 0.2336
C55_2 C 0.4569(2) 0.9526(4) 0.09501(6)
C56_2 C 0.3593(3) 0.8511(5) 0.08566(6)
H63_2 H 0.2860 0.8464 0.0862
C57_2 C 0.3673(3) 0.7563(5) 0.07559(7)
H64_2 H 0.2995 0.6867 0.0698
C58_2 C 0.4742(3) 0.7634(5) 0.07404(8)
H65_2 H 0.4796 0.6984 0.0673
C59_2 C 0.5723(3) 0.8642(5) 0.08229(8)
H66_2 H 0.6458 0.8699 0.0805
C60_2 C 0.5636(3) 0.9588(5) 0.09334(7)
C19_3 C 0.5043(3) 0.0474(2) 0.57166(6)
C20_3 C 0.5082(4) 0.1489(3) 0.58101(6)
H22_3 H 0.4396 0.1536 0.5805
C21_3 C 0.6110(4) 0.2437(3) 0.59108(7)
H23_3 H 0.6128 0.3133 0.5969
C22_3 C 0.7108(4) 0.2366(3) 0.59263(8)
H24_3 H 0.7812 0.3016 0.5994
C23_3 C 0.7081(4) 0.1358(3) 0.58438(8)
H25_3 H 0.7759 0.1301 0.5862
C24_3 C 0.6048(4) 0.0412(3) 0.57333(7)
C6_3 C 0.0157(3) 0.7056(2) 0.55485(6)
C7_3 C 0.0150(4) 0.6608(3) 0.52494(7)
H7_3 H 0.0858 0.6806 0.5146
N3_3 N 0.12155(28) 0.7850(2) 0.57057(5)
H9_3 H 0.1174(24) 0.8442(18) 0.5795(7)
C9_3 C 0.2103(3) 0.7668(2) 0.57453(6)
O2 O 0.20880(23) 0.67698(16) 0.56646(4)
C10_3 C 0.3207(3) 0.8681(2) 0.58867(6)
H10_3 H 0.3007 0.9129 0.6042
N4 N 0.38323(27) 0.81903(18) 0.60547(5)
H11 H 0.459(4) 0.869(2) 0.6074(8)
H12 H 0.357(4) 0.794(3) 0.6256(3)
C18_3 C 0.3928(3) 0.9457(2) 0.56059(6)
H20_3 H 0.4099 0.8994 0.5453
H21_3 H 0.3470 0.9738 0.5490
H26_3 H 0.6037 0.9724 0.5670
C55_3 C 0.0474(4) 0.5043(3) 0.42834(6)
C56_3 C 0.1489(5) 0.5082(4) 0.41899(6)
H63_3 H 0.1536 0.4396 0.4195
C57_3 C 0.2437(5) 0.6110(4) 0.40892(7)
H64_3 H 0.3133 0.6128 0.4031
C58_3 C 0.2366(5) 0.7108(4) 0.40737(8)
H65_3 H 0.3016 0.7812 0.4006
C59_3 C 0.1358(5) 0.7081(4) 0.41562(8)
H66_3 H 0.1301 0.7759 0.4138
C60_3 C 0.0412(5) 0.6048(4) 0.42667(7)
Zn1_3 Zn 0.66574(4) 0.35836(3) 0.416168(7)
N1_3 N 0.51732(27) 0.30106(19) 0.44503(5)
H1_3 H 0.4754(20) 0.2244(4) 0.4417(7)
H2_3 H 0.4803(21) 0.339(2) 0.4393(7)
C1_3 C 0.5446(3) 0.3300(2) 0.47959(5)
H3_3 H 0.4919 0.3559 0.4887
C2_3 C 0.6701(3) 0.4282(2) 0.48281(6)
O1_3 O 0.73975(23) 0.45584(16) 0.45983(4)
N2_3 N 0.6976(3) 0.4765(2) 0.51190(5)
H4_3 H 0.646(5) 0.462(4) 0.5278(7)
C3_3 C 0.8073(3) 0.5561(2) 0.52489(6)
C4_3 C 0.8087(6) 0.6008(4) 0.55507(8)
H5_3 H 0.7379 0.5801 0.5657
C5_3 C 0.9127(4) 0.6757(3) 0.57004(8)
H6_3 H 0.9129 0.7064 0.5908
C8_3 C 0.9109(4) 0.5865(3) 0.50980(7)
H8_3 H 0.9111 0.5566 0.4890
C11_3 C 0.5288(4) 0.2247(2) 0.49853(6)
H13_3 H 0.5818 0.1997 0.4899
H14_3 H 0.5493 0.2464 0.5215
C12_3 C 0.4063(4) 0.1258(3) 0.49648(6)
C13_3 C 0.3803(5) 0.0265(3) 0.47941(8)
H15_3 H 0.4397 0.0204 0.4687
C16_3 C 0.2052(6) 0.0424(4) 0.51008(11)
H18_3 H 0.1450 0.0477 0.5207
C17_3 C 0.3175(4) 0.1330(3) 0.51168(8)
H19_3 H 0.3341 0.2009 0.5233
N5_3 N 0.64177(25) 0.48419(17) 0.39018(5)
H27_3 H 0.708(4) 0.531(2) 0.3799(7)
H28_3 H 0.6271(28) 0.527(2) 0.4041(6)
C25_3 C 0.54655(28) 0.42975(19) 0.36638(5)
H29_3 H 0.4774 0.4284 0.3761
C26_3 C 0.5160(3) 0.3041(2) 0.36108(5)
O3_3 O 0.56847(21) 0.26279(15) 0.37512(4)
N6_3 N 0.42504(26) 0.24107(18) 0.34203(5)
H30_3 H 0.3852(32) 0.275(3) 0.3353(9)
C27_3 C 0.3700(3) 0.1189(2) 0.33771(6)
C28_3 C 0.2513(4) 0.0594(3) 0.33552(15)
H31_3 H 0.2099 0.0999 0.3370
C29_3 C 0.4280(4) 0.0595(3) 0.33557(9)
H32_3 H 0.5099 0.0998 0.3372
C30_3 C 0.5757(3) 0.5003(2) 0.33477(6)
H33_3 H 0.6498 0.5117 0.3262
H34_3 H 0.5149 0.4561 0.3186
C31_2 C 0.5853(3) 0.6171(2) 0.33968(6)
C32_3 C 0.6848(4) 0.7176(2) 0.33051(7)
H35_3 H 0.7490 0.7134 0.3224
C33_3 C 0.6911(4) 0.8252(3) 0.33327(8)
H36_3 H 0.7595 0.8935 0.3270
C34_2 C 0.5991(4) 0.8320(3) 0.34503(8)
H37_2 H 0.6037 0.9051 0.3468
C35_2 C 0.4992(4) 0.7331(3) 0.35445(7)
H38_2 H 0.4354 0.7383 0.3625
C36_2 C 0.4924(4) 0.6261(3) 0.35205(6)
H39_2 H 0.4243 0.5585 0.3589
C42_3 C 0.7056(4) 0.0157(3) 0.44515(6)
C43_3 C 0.6608(5) 0.0150(4) 0.47506(7)
H46_3 H 0.6806 0.0858 0.4854
N9_3 N 0.78500(34) 0.12155(28) 0.42943(5)
H48_3 H 0.8442(29) 0.1174(24) 0.4205(7)
C45_3 C 0.7668(4) 0.2103(3) 0.42547(6)
O5_3 O 0.67698(28) 0.20880(23) 0.43354(4)
C46_3 C 0.8681(4) 0.3207(3) 0.41133(6)
H49_3 H 0.9129 0.3007 0.3958
N10_3 N 0.81903(34) 0.38323(27) 0.39453(5)
H50_3 H 0.869(5) 0.459(4) 0.3926(8)
H52_3 H 0.794(5) 0.357(4) 0.3744(3)
C54_3 C 0.9457(4) 0.3928(3) 0.43941(6)
H61_3 H 0.8994 0.4099 0.4547
H62_3 H 0.9738 0.3470 0.4510
H67_3 H 0.9724 0.6037 0.4330
C14_3 C 0.2673(6) 0.9361(4) 0.47815(11)
H16_3 H 0.2499 0.8677 0.4667
C15_3 C 0.1809(6) 0.9441(4) 0.49310(12)
H17_3 H 0.1037 0.8818 0.4919
N7_3 N 0.30106(33) 0.51732(27) 0.55497(5)
H40_3 H 0.2244(28) 0.4754(20) 0.5583(7)
H41_3 H 0.3390(22) 0.4803(21) 0.5607(7)
C37_3 C 0.3300(4) 0.5446(3) 0.52041(5)
H42_3 H 0.3559 0.4919 0.5113
C38_3 C 0.4282(4) 0.6701(3) 0.51719(6)
O4_3 O 0.45584(29) 0.73975(23) 0.54017(4)
N8_3 N 0.4765(4) 0.6976(3) 0.48810(5)
H43_3 H 0.462(6) 0.646(5) 0.4722(7)
C39_3 C 0.5561(4) 0.8073(3) 0.47511(6)
C40_3 C 0.6008(7) 0.8087(6) 0.44493(8)
H44_3 H 0.5801 0.7379 0.4343
C41_3 C 0.6757(5) 0.9127(4) 0.42996(8)
H45_3 H 0.7064 0.9129 0.4092
C44_3 C 0.5865(5) 0.9109(4) 0.49020(7)
H47_3 H 0.5566 0.9111 0.5110
C47_3 C 0.2247(5) 0.5288(4) 0.50147(6)
H54_3 H 0.1997 0.5818 0.5101
H55_3 H 0.2464 0.5493 0.4785
C48_3 C 0.1258(5) 0.4063(4) 0.50352(6)
C49_3 C 0.0265(6) 0.3803(5) 0.52059(8)
H56_3 H 0.0204 0.4397 0.5313
C52_3 C 0.0424(7) 0.2052(6) 0.48992(11)
H59_3 H 0.0477 0.1450 0.4793
C53_3 C 0.1330(5) 0.3175(4) 0.48832(8)
H60_3 H 0.2009 0.3341 0.4767
C61_3 C 0.11680(34) 0.57025(19) 0.30029(5)
H72_3 H 0.0490 0.5716 0.2906
C62_3 C 0.2119(4) 0.6959(2) 0.30559(5)
N14_3 N 0.18397(32) 0.75893(18) 0.32464(5)
H73_3 H 0.1102(44) 0.725(3) 0.3314(9)
C63_3 C 0.2511(4) 0.8811(2) 0.32896(6)
C64_3 C 0.1919(5) 0.9406(3) 0.33115(15)
H74_3 H 0.1100 0.9001 0.3297
C65_3 C 0.3685(5) 0.9405(3) 0.33110(9)
H75_3 H 0.4101 0.9002 0.3295
C66_3 C 0.0754(4) 0.4997(2) 0.33190(6)
H76_3 H 0.1381 0.4883 0.3405
H77_3 H 0.0588 0.5439 0.3481
H78_3 H 0.0356 0.2866 0.3443
H83_3 H 0.339904 0.853164 0.594096
H84_3 H 0.444423 0.576131 0.625907
C50_3 C 0.9361(8) 0.2673(6) 0.52185(11)
H57_3 H 0.8677 0.2499 0.5333
C51_3 C 0.9441(8) 0.1809(6) 0.50690(12)
H58_3 H 0.8818 0.1037 0.5081
C67_2 C 0.9682(4) 0.3829(2) 0.32699(6)
C68_3 C 0.9672(4) 0.2824(2) 0.33616(7)
C69_3 C 0.8659(5) 0.1748(3) 0.33340(8)
H79_3 H 0.8660 0.1065 0.3397
C70_2 C 0.7671(5) 0.1680(3) 0.32164(8)
H80_2 H 0.6986 0.0949 0.3199
C71_2 C 0.7661(5) 0.2669(3) 0.31222(7)
H81_2 H 0.6971 0.2617 0.3042
C72_2 C 0.8663(5) 0.3739(3) 0.31462(6)
H82_2 H 0.8658 0.4415 0.3078
H83_4 H 0.48674 0.146836 0.0725711
H84_4 H 0.868292 0.423869 0.0407598
H83_5 H 0.660096 0.51326 0.739238
H84_5 H 0.555577 0.131708 0.707426
H83_6 H 0.853164 0.339904 0.405904
H84_6 H 0.576131 0.444423 0.374093
C31_3 C 0.0318(2) 0.4147(3) 0.00634(6)
C34_3 C 0.2329(3) 0.4009(4) 0.01169(8)
H37_3 H 0.3014 0.3963 0.0134
C35_3 C 0.2339(3) 0.5008(4) 0.02111(7)
H38_3 H 0.3029 0.5646 0.0291
C36_3 C 0.1337(3) 0.5076(4) 0.01871(6)
H39_3 H 0.1342 0.5757 0.0255
C67_3 C 0.4147(3) 0.0318(4) 0.99366(6)
C70_3 C 0.4009(4) 0.2329(5) 0.98831(8)
H80_3 H 0.3963 0.3014 0.9866
C71_3 C 0.5008(4) 0.2339(5) 0.97889(7)
H81_3 H 0.5646 0.3029 0.9709
C72_3 C 0.5076(4) 0.1337(5) 0.98129(6)
H82_3 H 0.5757 0.1342 0.9745
Br1 Br 0.65339(3) 0.91121(3) 0.647562(8)
Br1_2 Br 0.08879(3) 0.74218(4) 0.980895(8)
Br1_3 Br 0.25782(4) 0.34661(3) 0.314229(8)
Br1_4 Br 0.91121(3) 0.65339(3) 0.352438(8)
Br1_5 Br 0.74218(4) 0.08879(3) 0.019105(8)
Br1_6 Br 0.34661(3) 0.25782(4) 0.685771(8)
Br2 Br 0.51844(3) 0.93638(2) 0.770465(7)
Br2_2 Br 0.06362(2) 0.58206(4) 0.103798(7)
Br2_3 Br 0.41794(4) 0.48156(3) 0.437132(7)
Br2_4 Br 0.93638(2) 0.51844(3) 0.229535(7)
Br2_5 Br 0.58206(4) 0.06362(2) 0.896202(7)
Br2_6 Br 0.48156(3) 0.41794(4) 0.562868(7)
loop_
_geom_bond_atom_site_label_1
_geom_bond_atom_site_label_2
_geom_bond_site_symmetry_1
_geom_bond_site_symmetry_2
H16 C14 1_555 1_555
C15 C14 1_555 1_555
H17 C15 1_555 1_555
Zn2 N7 1_555 1_555
Zn4 N12 1_555 1_555
N7 H40 1_555 1_555
H41 N7 1_555 1_555
C37 N7 1_555 1_555
H42 C37 1_555 1_555
C38 C37 1_555 1_555
O4 Zn2 1_555 1_555
N8 C38 1_555 1_555
H43 N8 1_555 1_555
C39 N8 1_555 1_555
C40 C39 1_555 1_555
H44 C40 1_555 1_555
C41 C40 1_555 1_555
H45 C41 1_555 1_555
C44 C39 1_555 1_555
H47 C44 1_555 1_555
O6 Zn2 1_555 1_555
N11 Zn2 1_555 1_555
H51 N11 1_555 1_555
H53 N11 1_555 1_555
C47 C37 1_555 1_555
H54 C47 1_555 1_555
H55 C47 1_555 1_555
C48 C47 1_555 1_555
C49 C48 1_555 1_555
H56 C49 1_555 1_555
C50 C49 1_555 1_555
H57 C50 1_555 1_555
C51 C50 1_555 1_555
H58 C51 1_555 1_555
C52 C51 1_555 1_555
H59 C52 1_555 1_555
C53 C48 1_555 1_555
H60 C53 1_555 1_555
N12 H68 1_555 1_555
N13 Zn2 1_555 1_555
H69 N13 1_555 1_555
H70 N12 1_555 1_555
H71 N13 1_555 1_555
C61 N12 1_555 1_555
H72 C61 1_555 1_555
C62 C61 1_555 1_555
O7 Zn4 1_555 1_555
O8 Zn2 1_555 1_555
N14 C62 1_555 1_555
H73 N14 1_555 1_555
C63 N14 1_555 1_555
H74 C64 1_555 1_555
H75 C65 1_555 1_555
C66 C61 1_555 1_555
H76 C66 1_555 1_555
H77 C66 1_555 1_555
C67 C66 1_555 1_555
C68 C67 1_555 1_555
H78 C68 1_555 1_555
C69 C68 1_555 1_555
H79 C69 1_555 1_555
C70 C69 1_555 1_555
H80 C70 1_555 1_555
C71 C70 1_555 1_555
H81 C71 1_555 1_555
C72 C67 1_555 1_555
H82 C72 1_555 1_555
C38 O4 1_555 1_555
C52 C53 1_555 1_555
C62 O7 1_555 1_555
C63 C64 1_555 1_555
C63 C65 1_555 1_555
C71 C72 1_555 1_555
N11 H83 1_555 1_555
N13 H84 1_555 1_555
Zn1 N1 1_555 1_555
N1 H1 1_555 1_555
H2 N1 1_555 1_555
C1 N1 1_555 1_555
H3 C1 1_555 1_555
C2 C1 1_555 1_555
O1 Zn1 1_555 1_555
N2 C2 1_555 1_555
H4 N2 1_555 1_555
C3 N2 1_555 1_555
C4 C3 1_555 1_555
H5 C4 1_555 1_555
C5 C4 1_555 1_555
H6 C5 1_555 1_555
C6 C5 1_555 1_555
C7 C6 1_555 1_555
H7 C7 1_555 1_555
C8 C3 1_555 1_555
H8 C8 1_555 1_555
N3 C6 1_555 1_555
H9 N3 1_555 1_555
C9 N3 1_555 1_555
O6 C9 1_555 1_555
C10 C9 1_555 1_555
H10 C10 1_555 1_555
N11 C10 1_555 1_555
C11 C1 1_555 1_555
H13 C11 1_555 1_555
H14 C11 1_555 1_555
C12 C11 1_555 1_555
C13 C12 1_555 1_555
H15 C13 1_555 1_555
H18 C16 1_555 1_555
C17 C12 1_555 1_555
H19 C17 1_555 1_555
C18 C10 1_555 1_555
H20 C18 1_555 1_555
H21 C18 1_555 1_555
N5 Zn1 1_555 1_555
H27 N5 1_555 1_555
H28 N5 1_555 1_555
C25 N5 1_555 1_555
H29 C25 1_555 1_555
C26 C25 1_555 1_555
O3 Zn1 1_555 1_555
N6 C26 1_555 1_555
H30 N6 1_555 1_555
C27 N6 1_555 1_555
C28 C27 1_555 1_555
H31 C28 1_555 1_555
C29 C27 1_555 1_555
H32 C29 1_555 1_555
C30 C25 1_555 1_555
H33 C30 1_555 1_555
H34 C30 1_555 1_555
C43 C42 1_555 1_555
H46 C43 1_555 1_555
N9 C42 1_555 1_555
H48 N9 1_555 1_555
C45 N9 1_555 1_555
O5 Zn1 1_555 1_555
C46 C45 1_555 1_555
H49 C46 1_555 1_555
N10 Zn1 1_555 1_555
H50 N10 1_555 1_555
H52 N10 1_555 1_555
C54 C46 1_555 1_555
H61 C54 1_555 1_555
H62 C54 1_555 1_555
C55 C54 1_555 1_555
C56 C55 1_555 1_555
H63 C56 1_555 1_555
C57 C56 1_555 1_555
H64 C57 1_555 1_555
C58 C57 1_555 1_555
H65 C58 1_555 1_555
C59 C58 1_555 1_555
H66 C59 1_555 1_555
C60 C55 1_555 1_555
H67 C60 1_555 1_555
C2 O1 1_555 1_555
C7 C8 1_555 1_555
C16 C17 1_555 1_555
C26 O3 1_555 1_555
C45 O5 1_555 1_555
C46 N10 1_555 1_555
C59 C60 1_555 1_555
C32 C31 1_555 1_555
C33 C32 1_555 1_555
H36 C33 1_555 1_555
C34 C33 1_555 1_555
H37 C34 1_555 1_555
C35 C34 1_555 1_555
H38 C35 1_555 1_555
C36 C31 1_555 1_555
H39 C36 1_555 1_555
C35 C36 1_555 1_555
C20 C19 1_555 1_555
H22 C20 1_555 1_555
C21 C20 1_555 1_555
H23 C21 1_555 1_555
C22 C21 1_555 1_555
H24 C22 1_555 1_555
C23 C22 1_555 1_555
H25 C23 1_555 1_555
C24 C19 1_555 1_555
C23 C24 1_555 1_555
C33_2 C32_2 1_555 1_555
H36_2 C33_2 1_555 1_555
H57_2 C50_2 1_555 1_555
C51_2 C50_2 1_555 1_555
H58_2 C51_2 1_555 1_555
C69_2 C68_2 1_555 1_555
H79_2 C69_2 1_555 1_555
Zn1_2 N1_2 1_555 1_555
N1_2 H1_2 1_555 1_555
H2_2 N1_2 1_555 1_555
C1_2 N1_2 1_555 1_555
H3_2 C1_2 1_555 1_555
C2_2 C1_2 1_555 1_555
O1_2 Zn1_2 1_555 1_555
N2_2 C2_2 1_555 1_555
H4_2 N2_2 1_555 1_555
C3_2 N2_2 1_555 1_555
C4_2 C3_2 1_555 1_555
H5_2 C4_2 1_555 1_555
C5_2 C4_2 1_555 1_555
H6_2 C5_2 1_555 1_555
C8_2 C3_2 1_555 1_555
H8_2 C8_2 1_555 1_555
C11_2 C1_2 1_555 1_555
H13_2 C11_2 1_555 1_555
H14_2 C11_2 1_555 1_555
C12_2 C11_2 1_555 1_555
C13_2 C12_2 1_555 1_555
H15_2 C13_2 1_555 1_555
C14_2 C13_2 1_555 1_555
H16_2 C14_2 1_555 1_555
C15_2 C14_2 1_555 1_555
H17_2 C15_2 1_555 1_555
C16_2 C15_2 1_555 1_555
H18_2 C16_2 1_555 1_555
C17_2 C12_2 1_555 1_555
H19_2 C17_2 1_555 1_555
N5_2 Zn1_2 1_555 1_555
H27_2 N5_2 1_555 1_555
H28_2 N5_2 1_555 1_555
C25_2 N5_2 1_555 1_555
H29_2 C25_2 1_555 1_555
C26_2 C25_2 1_555 1_555
O3_2 Zn1_2 1_555 1_555
N6_2 C26_2 1_555 1_555
H30_2 N6_2 1_555 1_555
C27_2 N6_2 1_555 1_555
C28_2 C27_2 1_555 1_555
H31_2 C28_2 1_555 1_555
C29_2 C27_2 1_555 1_555
H32_2 C29_2 1_555 1_555
C30_2 C25_2 1_555 1_555
Zn2_2 N7_2 1_555 1_555
N7_2 H40_2 1_555 1_555
H41_2 N7_2 1_555 1_555
C37_2 N7_2 1_555 1_555
H42_2 C37_2 1_555 1_555
C38_2 C37_2 1_555 1_555
O4_2 Zn2_2 1_555 1_555
N8_2 C38_2 1_555 1_555
H43_2 N8_2 1_555 1_555
C39_2 N8_2 1_555 1_555
C40_2 C39_2 1_555 1_555
H44_2 C40_2 1_555 1_555
C41_2 C40_2 1_555 1_555
H45_2 C41_2 1_555 1_555
C42_2 C41_2 1_555 1_555
C43_2 C42_2 1_555 1_555
H46_2 C43_2 1_555 1_555
C44_2 C39_2 1_555 1_555
H47_2 C44_2 1_555 1_555
N9_2 C42_2 1_555 1_555
H48_2 N9_2 1_555 1_555
C45_2 N9_2 1_555 1_555
O5_2 Zn1_2 1_555 1_555
O6_2 Zn2_2 1_555 1_555
C46_2 C45_2 1_555 1_555
H49_2 C46_2 1_555 1_555
N10_2 Zn1_2 1_555 1_555
N11_2 Zn2_2 1_555 1_555
H50_2 N10_2 1_555 1_555
H51_2 N11_2 1_555 1_555
H52_2 N10_2 1_555 1_555
H53_2 N11_2 1_555 1_555
C47_2 C37_2 1_555 1_555
H54_2 C47_2 1_555 1_555
H55_2 C47_2 1_555 1_555
C48_2 C47_2 1_555 1_555
C49_2 C48_2 1_555 1_555
H56_2 C49_2 1_555 1_555
H59_2 C52_2 1_555 1_555
C53_2 C48_2 1_555 1_555
H60_2 C53_2 1_555 1_555
C54_2 C46_2 1_555 1_555
H61_2 C54_2 1_555 1_555
H62_2 C54_2 1_555 1_555
N13_2 Zn2_2 1_555 1_555
H69_2 N13_2 1_555 1_555
H71_2 N13_2 1_555 1_555
O8_2 Zn2_2 1_555 1_555
C2_2 O1_2 1_555 1_555
C16_2 C17_2 1_555 1_555
C26_2 O3_2 1_555 1_555
C38_2 O4_2 1_555 1_555
C43_2 C44_2 1_555 1_555
C45_2 O5_2 1_555 1_555
C46_2 N10_2 1_555 1_555
C52_2 C53_2 1_555 1_555
N11_2 H83_2 1_555 1_555
N13_2 H84_2 1_555 1_555
C61_2 N13 1_555 1_555
H72_2 C61_2 1_555 1_555
C62_2 C61_2 1_555 1_555
N14_2 C62_2 1_555 1_555
H73_2 N14_2 1_555 1_555
C63_2 N14_2 1_555 1_555
H74_2 C64_2 1_555 1_555
H75_2 C65_2 1_555 1_555
C66_2 C61_2 1_555 1_555
C62_2 O8 1_555 1_555
C63_2 C64_2 1_555 1_555
C63_2 C65_2 1_555 1_555
C7_2 C6_2 1_555 1_555
H7_2 C7_2 1_555 1_555
N3_2 C6_2 1_555 1_555
H9_2 N3_2 1_555 1_555
C9_2 N3_2 1_555 1_555
O6_2 C9_2 1_555 1_555
C10_2 C9_2 1_555 1_555
H10_2 C10_2 1_555 1_555
N11_2 C10_2 1_555 1_555
C18_2 C10_2 1_555 1_555
H20_2 C18_2 1_555 1_555
H21_2 C18_2 1_555 1_555
C19_2 C18_2 1_555 1_555
C20_2 C19_2 1_555 1_555
H22_2 C20_2 1_555 1_555
C21_2 C20_2 1_555 1_555
H23_2 C21_2 1_555 1_555
C22_2 C21_2 1_555 1_555
H24_2 C22_2 1_555 1_555
C23_2 C22_2 1_555 1_555
H25_2 C23_2 1_555 1_555
C24_2 C19_2 1_555 1_555
H26_2 C24_2 1_555 1_555
C56_2 C55_2 1_555 1_555
H63_2 C56_2 1_555 1_555
C57_2 C56_2 1_555 1_555
H64_2 C57_2 1_555 1_555
C58_2 C57_2 1_555 1_555
H65_2 C58_2 1_555 1_555
C59_2 C58_2 1_555 1_555
H66_2 C59_2 1_555 1_555
C60_2 C55_2 1_555 1_555
C23_2 C24_2 1_555 1_555
C59_2 C60_2 1_555 1_555
C20_3 C19_3 1_555 1_555
H22_3 C20_3 1_555 1_555
C21_3 C20_3 1_555 1_555
H23_3 C21_3 1_555 1_555
C22_3 C21_3 1_555 1_555
H24_3 C22_3 1_555 1_555
C23_3 C22_3 1_555 1_555
H25_3 C23_3 1_555 1_555
C24_3 C19_3 1_555 1_555
C23_3 C24_3 1_555 1_555
C7_3 C6_3 1_555 1_555
H7_3 C7_3 1_555 1_555
N3_3 C6_3 1_555 1_555
H9_3 N3_3 1_555 1_555
C9_3 N3_3 1_555 1_555
O2 C9_3 1_555 1_555
C10_3 C9_3 1_555 1_555
H10_3 C10_3 1_555 1_555
N4 C10_3 1_555 1_555
H11 N4 1_555 1_555
H12 N4 1_555 1_555
C18_3 C10_3 1_555 1_555
H20_3 C18_3 1_555 1_555
H21_3 C18_3 1_555 1_555
Zn4 O2 1_555 1_555
C56_3 C55_3 1_555 1_555
H63_3 C56_3 1_555 1_555
C57_3 C56_3 1_555 1_555
H64_3 C57_3 1_555 1_555
C58_3 C57_3 1_555 1_555
H65_3 C58_3 1_555 1_555
C59_3 C58_3 1_555 1_555
H66_3 C59_3 1_555 1_555
C60_3 C55_3 1_555 1_555
N4 Zn4 1_555 1_555
C59_3 C60_3 1_555 1_555
Zn1_3 N1_3 1_555 1_555
N1_3 H1_3 1_555 1_555
H2_3 N1_3 1_555 1_555
C1_3 N1_3 1_555 1_555
H3_3 C1_3 1_555 1_555
C2_3 C1_3 1_555 1_555
O1_3 Zn1_3 1_555 1_555
N2_3 C2_3 1_555 1_555
H4_3 N2_3 1_555 1_555
C3_3 N2_3 1_555 1_555
C4_3 C3_3 1_555 1_555
H5_3 C4_3 1_555 1_555
C5_3 C4_3 1_555 1_555
H6_3 C5_3 1_555 1_555
C8_3 C3_3 1_555 1_555
H8_3 C8_3 1_555 1_555
C11_3 C1_3 1_555 1_555
H13_3 C11_3 1_555 1_555
H14_3 C11_3 1_555 1_555
C12_3 C11_3 1_555 1_555
C13_3 C12_3 1_555 1_555
H15_3 C13_3 1_555 1_555
H18_3 C16_3 1_555 1_555
C17_3 C12_3 1_555 1_555
H19_3 C17_3 1_555 1_555
N5_3 Zn1_3 1_555 1_555
H27_3 N5_3 1_555 1_555
H28_3 N5_3 1_555 1_555
C25_3 N5_3 1_555 1_555
H29_3 C25_3 1_555 1_555
C26_3 C25_3 1_555 1_555
O3_3 Zn1_3 1_555 1_555
N6_3 C26_3 1_555 1_555
H30_3 N6_3 1_555 1_555
C27_3 N6_3 1_555 1_555
C28_3 C27_3 1_555 1_555
H31_3 C28_3 1_555 1_555
C29_3 C27_3 1_555 1_555
H32_3 C29_3 1_555 1_555
C30_3 C25_3 1_555 1_555
H33_3 C30_3 1_555 1_555
H34_3 C30_3 1_555 1_555
C31_2 C30_3 1_555 1_555
C32_3 C31_2 1_555 1_555
H35_3 C32_3 1_555 1_555
C33_3 C32_3 1_555 1_555
H36_3 C33_3 1_555 1_555
C34_2 C33_3 1_555 1_555
H37_2 C34_2 1_555 1_555
C35_2 C34_2 1_555 1_555
H38_2 C35_2 1_555 1_555
C36_2 C31_2 1_555 1_555
H39_2 C36_2 1_555 1_555
C43_3 C42_3 1_555 1_555
H46_3 C43_3 1_555 1_555
N9_3 C42_3 1_555 1_555
H48_3 N9_3 1_555 1_555
C45_3 N9_3 1_555 1_555
O5_3 Zn1_3 1_555 1_555
C46_3 C45_3 1_555 1_555
H49_3 C46_3 1_555 1_555
N10_3 Zn1_3 1_555 1_555
H50_3 N10_3 1_555 1_555
H52_3 N10_3 1_555 1_555
C54_3 C46_3 1_555 1_555
H61_3 C54_3 1_555 1_555
H62_3 C54_3 1_555 1_555
C2_3 O1_3 1_555 1_555
C16_3 C17_3 1_555 1_555
C26_3 O3_3 1_555 1_555
C35_2 C36_2 1_555 1_555
C45_3 O5_3 1_555 1_555
C46_3 N10_3 1_555 1_555
H16_3 C14_3 1_555 1_555
C15_3 C14_3 1_555 1_555
H17_3 C15_3 1_555 1_555
Zn4 N7_3 1_555 1_555
N7_3 H40_3 1_555 1_555
H41_3 N7_3 1_555 1_555
C37_3 N7_3 1_555 1_555
H42_3 C37_3 1_555 1_555
C38_3 C37_3 1_555 1_555
O4_3 Zn4 1_555 1_555
N8_3 C38_3 1_555 1_555
H43_3 N8_3 1_555 1_555
C39_3 N8_3 1_555 1_555
C40_3 C39_3 1_555 1_555
H44_3 C40_3 1_555 1_555
C41_3 C40_3 1_555 1_555
H45_3 C41_3 1_555 1_555
C44_3 C39_3 1_555 1_555
H47_3 C44_3 1_555 1_555
C47_3 C37_3 1_555 1_555
H54_3 C47_3 1_555 1_555
H55_3 C47_3 1_555 1_555
C48_3 C47_3 1_555 1_555
C49_3 C48_3 1_555 1_555
H56_3 C49_3 1_555 1_555
H59_3 C52_3 1_555 1_555
C53_3 C48_3 1_555 1_555
H60_3 C53_3 1_555 1_555
C61_3 N13_2 1_555 1_555
H72_3 C61_3 1_555 1_555
C62_3 C61_3 1_555 1_555
N14_3 C62_3 1_555 1_555
H73_3 N14_3 1_555 1_555
C63_3 N14_3 1_555 1_555
H74_3 C64_3 1_555 1_555
H75_3 C65_3 1_555 1_555
C66_3 C61_3 1_555 1_555
H76_3 C66_3 1_555 1_555
H77_3 C66_3 1_555 1_555
C38_3 O4_3 1_555 1_555
C52_3 C53_3 1_555 1_555
C62_3 O8_2 1_555 1_555
C63_3 C64_3 1_555 1_555
C63_3 C65_3 1_555 1_555
N4 H83_3 1_555 1_555
N12 H84_3 1_555 1_555
H57_3 C50_3 1_555 1_555
C51_3 C50_3 1_555 1_555
H58_3 C51_3 1_555 1_555
C68_3 C67_2 1_555 1_555
C69_3 C68_3 1_555 1_555
H79_3 C69_3 1_555 1_555
C70_2 C69_3 1_555 1_555
H80_2 C70_2 1_555 1_555
C71_2 C70_2 1_555 1_555
H81_2 C71_2 1_555 1_555
C72_2 C67_2 1_555 1_555
H82_2 C72_2 1_555 1_555
C71_2 C72_2 1_555 1_555
N10_2 H83_4 1_555 1_555
N5_2 H84_4 1_555 1_555
N10 H83_5 1_555 1_555
N5 H84_5 1_555 1_555
N10_3 H83_6 1_555 1_555
N5_3 H84_6 1_555 1_555
H37_3 C34_3 1_555 1_555
C35_3 C34_3 1_555 1_555
H38_3 C35_3 1_555 1_555
C36_3 C31_3 1_555 1_555
H39_3 C36_3 1_555 1_555
C35_3 C36_3 1_555 1_555
H80_3 C70_3 1_555 1_555
C71_3 C70_3 1_555 1_555
H81_3 C71_3 1_555 1_555
C72_3 C67_3 1_555 1_555
H82_3 C72_3 1_555 1_555
C71_3 C72_3 1_555 1_555

#END
