
###############################################################################
#
# This file contains modified crystal structure data generated from the
# MOF subset of the Cambridge Structural Database (CSD) v543 
# hosted by the Cambridge Crystallographic Data Centre (CCDC).
#
# This work is licensed under the Creative Commons
# Attribution-NonCommercial-ShareAlike 4.0 International License.
# To view a copy of this license, visit
# http://creativecommons.org/licenses/by-nc-sa/4.0/
# or send a letter to
# Creative Commons, PO Box 1866, Mountain View, CA 94042, USA.
#
# CIF created using the CSD Python API on 29 September 2022
# The structure has been converted into the P1 space group
# The structure has a 3D framework
# The original CSD entry IBOZIK is in the monoclinic crystal system
# The framework has been calculated to contain at least 10.0% void space
# The void calculation uses a probe of radius 1.32A, grid spacing 0.4
#
###############################################################################

data_IBOZIK
_chemical_formula_moiety         '(C94 H95 Cu7 N8 O35)n'
_symmetry_cell_setting           triclinic
_symmetry_space_group_name_H-M   'P 1'
_symmetry_Int_Tables_number      1
_space_group_name_Hall           'P 1'
loop_
_symmetry_equiv_pos_site_id
_symmetry_equiv_pos_as_xyz
1 x,y,z
_cell_length_a                   10.0124(6)
_cell_length_b                   14.1908(9)
_cell_length_c                   21.6482(16)
_cell_angle_alpha                90
_cell_angle_beta                 102.265(2)
_cell_angle_gamma                90
_cell_volume                     3005.66
loop_
_atom_site_label
_atom_site_type_symbol
_atom_site_fract_x
_atom_site_fract_y
_atom_site_fract_z
Cu2 Cu 0.12532(4) 0.50551(3) 0.05193(2)
O1 O 0.0123(2) 0.41120(16) 0.00035(11)
O4 O 0.2650(3) 0.42033(19) 0.09353(13)
O7 O 0.1383(3) 0.3071(2) 0.12414(15)
C8 C 0.2489(4) 0.3440(3) 0.12265(19)
C21 C 0.3779(5) 0.2976(4) 0.1572(3)
H17 H 0.3557 0.2411 0.1771
H18 H 0.4266 0.3399 0.1887
H19 H 0.4341 0.2823 0.1278
N4 N 0.2204(3) 0.6128(2) 0.10113(15)
H1 H 0.0634 0.3740 0.9750
O8 O 0.0927(3) 0.2519(2) 0.95590(17)
C20 C 0.0384(6) 0.0805(4) 0.8896(3)
H16 H 0.1052 0.1195 0.8794
Cu4 Cu 0.06252(5) 0.66638(3) 0.94015(2)
O3 O 0.4213(3) 0.85206(18) 0.17632(13)
C1 C 0.1714(4) 0.6632(3) 0.1429(2)
H2 H 0.0916 0.6426 0.1542
H3 H 0.5660 0.9937 0.1667
C4 C 0.5000 0.9735(3) 0.2500
C6 C 0.3775(3) 0.9109(2) 0.22170(17)
H6 H 0.3508 0.8731 0.2544
H7 H 0.3001 0.9492 0.2016
C7 C 0.2316(4) 0.7439(3) 0.17052(19)
H8 H 0.1931 0.7774 0.1993
C12 C 0.3501(4) 0.7743(2) 0.15463(18)
C14 C 0.4056(4) 0.7207(3) 0.1124(2)
H12 H 0.4867 0.7386 0.1012
C17 C 0.3382(4) 0.6411(3) 0.0877(2)
H14 H 0.3763 0.6048 0.0602
Cu7 Cu 0.87468(4) 0.50551(3) 0.44807(2)
O13 O 0.5787(3) 0.85206(18) 0.32368(13)
C25 C 0.8286(4) 0.6632(3) 0.3571(2)
H27 H 0.9084 0.6426 0.3458
N3 N 0.7796(3) 0.6128(2) 0.39887(15)
H28 H 0.4340 0.9937 0.3333
C29 C 0.6225(3) 0.9109(2) 0.27830(17)
H31 H 0.6492 0.8731 0.2456
H32 H 0.6999 0.9492 0.2984
C30 C 0.7684(4) 0.7439(3) 0.32948(19)
H33 H 0.8069 0.7774 0.3007
C35 C 0.6499(4) 0.7743(2) 0.34537(18)
C37 C 0.5944(4) 0.7207(3) 0.3876(2)
H37 H 0.5133 0.7386 0.3988
C38 C 0.1616(7) 0.9633(4) 0.5809(3)
H38 H 0.2295 0.9251 0.5710
C40 C 0.6618(4) 0.6411(3) 0.4123(2)
H39 H 0.6237 0.6048 0.4398
C45 C 0.0904(8) 0.9351(4) 0.6228(4)
H45 H 0.1077 0.8759 0.6410
O11 O 0.9877(2) 0.41120(16) 0.49965(11)
H26 H 0.9366 0.3740 0.5250
O14 O 0.7350(3) 0.42033(19) 0.40647(13)
O18 O 0.8617(3) 0.3071(2) 0.37586(15)
C31 C 0.7511(4) 0.3440(3) 0.37735(19)
O19 O 0.9073(3) 0.2519(2) 0.54410(17)
C43 C 0.9616(6) 0.0805(4) 0.6104(3)
H41 H 0.8948 0.1195 0.6206
C44 C 0.6221(5) 0.2976(4) 0.3428(3)
H42 H 0.6443 0.2411 0.3229
H43 H 0.5734 0.3399 0.3113
H44 H 0.5659 0.2823 0.3722
Cu4_2 Cu 0.93748(5) 0.66638(3) 0.55985(2)
C9 C 0.0040(4) 0.7990(3) 0.0334(2)
C16 C 0.0347(5) 0.8924(3) 0.0662(2)
C19 C 0.1338(5) 0.9506(3) 0.0525(2)
H15 H 0.1836 0.9311 0.0230
O2 O 0.3584(2) 0.90219(17) 0.77467(11)
O5 O 0.0796(3) 0.77588(18) 0.99648(14)
C2 C 0.3027(4) 0.8490(2) 0.81473(17)
O6 O 0.0731(3) 0.5472(2) 0.88950(15)
N2 N 0.1688(3) 0.7382(2) 0.88793(15)
C3 C 0.4648(3) 0.9665(2) 0.80271(16)
H4 H 0.5448 0.9319 0.8242
C5 C 0.3393(4) 0.8523(3) 0.87956(17)
H5 H 0.4102 0.8911 0.8997
C10 C 0.1370(4) 0.7334(3) 0.82492(18)
H9 H 0.0689 0.6917 0.8060
C11 C 0.2001(4) 0.7871(3) 0.78671(18)
H10 H 0.1747 0.7821 0.7429
O9 O 0.2575(4) 0.5258(3) 0.96171(18)
C13 C 0.2696(4) 0.7975(3) 0.91391(18)
H11 H 0.2933 0.8015 0.9578
C18 C 0.1860(5) 0.5089(3) 0.9087(2)
C24 C 0.2419(8) 0.4351(7) 0.8707(4)
H22 H 0.1796 0.4265 0.8308
H23 H 0.3290 0.4552 0.8637
H24 H 0.2526 0.3766 0.8935
O12 O 0.6416(2) 0.90219(17) 0.72533(11)
O16 O 0.9204(3) 0.77588(18) 0.50352(14)
C26 C 0.6973(4) 0.8490(2) 0.68527(17)
O17 O 0.9269(3) 0.5472(2) 0.61050(15)
N6 N 0.8312(3) 0.7382(2) 0.61207(15)
C27 C 0.5352(3) 0.9665(2) 0.69729(16)
H29 H 0.4552 0.9319 0.6758
C28 C 0.6607(4) 0.8523(3) 0.62044(17)
H30 H 0.5898 0.8911 0.6003
C32 C 0.9960(4) 0.7990(3) 0.4666(2)
C33 C 0.8630(4) 0.7334(3) 0.67508(18)
H34 H 0.9311 0.6917 0.6940
C34 C 0.7999(4) 0.7871(3) 0.71329(18)
H35 H 0.8253 0.7821 0.7571
O20 O 0.7425(4) 0.5258(3) 0.53829(18)
C36 C 0.7304(4) 0.7975(3) 0.58609(18)
H36 H 0.7067 0.8015 0.5422
C39 C 0.9653(5) 0.8924(3) 0.4338(2)
C41 C 0.8140(5) 0.5089(3) 0.5913(2)
C42 C 0.8662(5) 0.9506(3) 0.4475(2)
H40 H 0.8164 0.9311 0.4770
C47 C 0.7581(8) 0.4351(7) 0.6293(4)
H47 H 0.8204 0.4265 0.6692
H48 H 0.6710 0.4552 0.6363
H49 H 0.7474 0.3766 0.6065
C23 C 0.0092(8) 0.9913(5) 0.8598(4)
H21 H 0.0557 0.9711 0.8293
Cu1 Cu 0.93748(5) 0.33362(3) 0.05985(2)
O2_2 O 0.6416(2) 0.09781(17) 0.22533(11)
O5_2 O 0.9204(3) 0.22412(18) 0.00352(14)
C2_2 C 0.6973(4) 0.1510(2) 0.18527(17)
O6_2 O 0.9269(3) 0.4528(2) 0.11050(15)
N2_2 N 0.8312(3) 0.2618(2) 0.11207(15)
C3_2 C 0.5352(3) 0.0335(2) 0.19729(16)
H4_2 H 0.4552 0.0681 0.1758
C5_2 C 0.6607(4) 0.1477(3) 0.12044(17)
H5_2 H 0.5898 0.1089 0.1003
C10_2 C 0.8630(4) 0.2666(3) 0.17508(18)
H9_2 H 0.9311 0.3083 0.1940
C11_2 C 0.7999(4) 0.2129(3) 0.21329(18)
H10_2 H 0.8253 0.2179 0.2571
O9_2 O 0.7425(4) 0.4742(3) 0.03829(18)
C13_2 C 0.7304(4) 0.2025(3) 0.08609(18)
H11_2 H 0.7067 0.1985 0.0422
C18_2 C 0.8140(5) 0.4911(3) 0.0913(2)
C24_2 C 0.7581(8) 0.5649(7) 0.1293(4)
H22_2 H 0.8204 0.5735 0.1692
H23_2 H 0.6710 0.5448 0.1363
H24_2 H 0.7474 0.6234 0.1065
Cu3 Cu 0.06252(5) 0.33362(3) 0.44015(2)
H25 H 0.9366 0.6260 0.0250
O12_2 O 0.3584(2) 0.09781(17) 0.27467(11)
O16_2 O 0.0796(3) 0.22412(18) 0.49648(14)
C26_2 C 0.3027(4) 0.1510(2) 0.31473(17)
O17_2 O 0.0731(3) 0.4528(2) 0.38950(15)
N6_2 N 0.1688(3) 0.2618(2) 0.38793(15)
C27_2 C 0.4648(3) 0.0335(2) 0.30271(16)
H29_2 H 0.5448 0.0681 0.3242
C28_2 C 0.3393(4) 0.1477(3) 0.37956(17)
H30_2 H 0.4102 0.1089 0.3997
C32_2 C 0.0040(4) 0.2010(3) 0.5334(2)
C33_2 C 0.1370(4) 0.2666(3) 0.32492(18)
H34_2 H 0.0689 0.3083 0.3060
C34_2 C 0.2001(4) 0.2129(3) 0.28671(18)
H35_2 H 0.1747 0.2179 0.2429
O20_2 O 0.2575(4) 0.4742(3) 0.46171(18)
C36_2 C 0.2696(4) 0.2025(3) 0.41391(18)
H36_2 H 0.2933 0.1985 0.4578
C39_2 C 0.0347(5) 0.1076(3) 0.5662(2)
C41_2 C 0.1860(5) 0.4911(3) 0.4087(2)
C42_2 C 0.1338(5) 0.0494(3) 0.5525(2)
H40_2 H 0.1836 0.0689 0.5230
C47_2 C 0.2419(8) 0.5649(7) 0.3707(4)
H47_2 H 0.1796 0.5735 0.3308
H48_2 H 0.3290 0.5448 0.3637
H49_2 H 0.2526 0.6234 0.3935
C9_2 C 0.9960(4) 0.2010(3) 0.9666(2)
C16_2 C 0.9653(5) 0.1076(3) 0.9338(2)
C19_2 C 0.8662(5) 0.0494(3) 0.9475(2)
H15_2 H 0.8164 0.0689 0.9770
Cu5 Cu 0.87468(4) 0.49449(3) 0.94807(2)
O10 O 0.9877(2) 0.58880(16) 0.99965(11)
O15 O 0.7350(3) 0.57967(19) 0.90647(13)
N5 N 0.7796(3) 0.3872(2) 0.89887(15)
Cu5_2 Cu 0.12532(4) 0.49449(3) 0.55193(2)
O10_2 O 0.0123(2) 0.58880(16) 0.50035(11)
H25_2 H 0.0634 0.6260 0.4750
O15_2 O 0.2650(3) 0.57967(19) 0.59353(13)
N5_2 N 0.2204(3) 0.3872(2) 0.60113(15)
O18_2 O 0.1383(3) 0.6929(2) 0.62414(15)
C31_2 C 0.2489(4) 0.6560(3) 0.62265(19)
O19_2 O 0.0927(3) 0.7481(2) 0.45590(17)
C43_2 C 0.0384(6) 0.9195(4) 0.3896(3)
H41_2 H 0.1052 0.8805 0.3794
C44_2 C 0.3779(5) 0.7024(4) 0.6572(3)
H42_2 H 0.3557 0.7589 0.6771
H43_2 H 0.4266 0.6601 0.6887
H44_2 H 0.4341 0.7177 0.6278
O3_2 O 0.5787(3) 0.14794(18) 0.82368(13)
C1_2 C 0.8286(4) 0.3368(3) 0.8571(2)
H2_2 H 0.9084 0.3574 0.8458
H3_2 H 0.4340 0.0063 0.8333
C4_2 C 0.5000 0.0265(3) 0.7500
C6_2 C 0.6225(3) 0.0891(2) 0.77830(17)
H6_2 H 0.6492 0.1269 0.7456
H7_2 H 0.6999 0.0508 0.7984
C7_2 C 0.7684(4) 0.2561(3) 0.82948(19)
H8_2 H 0.8069 0.2226 0.8007
C12_2 C 0.6499(4) 0.2257(2) 0.84537(18)
C14_2 C 0.5944(4) 0.2793(3) 0.8876(2)
H12_2 H 0.5133 0.2614 0.8988
C17_2 C 0.6618(4) 0.3589(3) 0.9123(2)
H14_2 H 0.6237 0.3952 0.9398
O13_2 O 0.4213(3) 0.14794(18) 0.67632(13)
C25_2 C 0.1714(4) 0.3368(3) 0.6429(2)
H27_2 H 0.0916 0.3574 0.6542
H28_2 H 0.5660 0.0063 0.6667
C29_2 C 0.3775(3) 0.0891(2) 0.72170(17)
H31_2 H 0.3508 0.1269 0.7544
H32_2 H 0.3001 0.0508 0.7016
C30_2 C 0.2316(4) 0.2561(3) 0.67052(19)
H33_2 H 0.1931 0.2226 0.6993
C35_2 C 0.3501(4) 0.2257(2) 0.65463(18)
C37_2 C 0.4056(4) 0.2793(3) 0.6124(2)
H37_2 H 0.4867 0.2614 0.6012
C38_2 C 0.8384(7) 0.0367(4) 0.4191(3)
H38_2 H 0.7705 0.0749 0.4290
C40_2 C 0.3382(4) 0.3589(3) 0.5877(2)
H39_2 H 0.3763 0.3952 0.5602
C45_2 C 0.9096(8) 0.0649(4) 0.3772(4)
H45_2 H 0.8923 0.1241 0.3590
O8_2 O 0.9073(3) 0.7481(2) 0.04410(17)
C20_2 C 0.9616(6) 0.9195(4) 0.1104(3)
H16_2 H 0.8948 0.8805 0.1206
O7_2 O 0.8617(3) 0.6929(2) 0.87586(15)
C8_2 C 0.7511(4) 0.6560(3) 0.87735(19)
C21_2 C 0.6221(5) 0.7024(4) 0.8428(3)
H17_2 H 0.6443 0.7589 0.8229
H18_2 H 0.5734 0.6601 0.8113
H19_2 H 0.5659 0.7177 0.8722
C15 C 0.8384(7) 0.9633(4) 0.9191(3)
H13 H 0.7705 0.9251 0.9290
C22 C 0.9096(8) 0.9351(4) 0.8772(4)
H20 H 0.8923 0.8759 0.8590
C46 C 0.9908(8) 0.9913(5) 0.6402(4)
H46 H 0.9443 0.9711 0.6707
C46_2 C 0.0092(8) 0.0087(5) 0.3598(4)
H46_2 H 0.0557 0.0289 0.3293
C15_2 C 0.1616(7) 0.0367(4) 0.0809(3)
H13_2 H 0.2295 0.0749 0.0710
C22_2 C 0.0904(8) 0.0649(4) 0.1228(4)
H20_2 H 0.1077 0.1241 0.1410
C23_2 C 0.9908(8) 0.0087(5) 0.1402(4)
H21_2 H 0.9443 0.0289 0.1707
loop_
_geom_bond_atom_site_label_1
_geom_bond_atom_site_label_2
_geom_bond_site_symmetry_1
_geom_bond_site_symmetry_2
Cu2 O1 1_555 1_555
O4 Cu2 1_555 1_555
C8 O4 1_555 1_555
C21 C8 1_555 1_555
H17 C21 1_555 1_555
H18 C21 1_555 1_555
H19 C21 1_555 1_555
N4 Cu2 1_555 1_555
O7 C8 1_555 1_555
H16 C20 1_555 1_555
O3 C6 1_555 1_555
C1 H2 1_555 1_555
N4 C1 1_555 1_555
C6 C4 1_555 1_555
H6 C6 1_555 1_555
H7 C6 1_555 1_555
C7 C1 1_555 1_555
H8 C7 1_555 1_555
C12 O3 1_555 1_555
C14 C12 1_555 1_555
H12 C14 1_555 1_555
C17 N4 1_555 1_555
H14 C17 1_555 1_555
Cu7 N3 1_555 1_555
O13 C29 1_555 1_555
C25 H27 1_555 1_555
N3 C25 1_555 1_555
C29 C4 1_555 1_555
H31 C29 1_555 1_555
H32 C29 1_555 1_555
C30 C25 1_555 1_555
H33 C30 1_555 1_555
C35 O13 1_555 1_555
C37 C35 1_555 1_555
H37 C37 1_555 1_555
C38 H38 1_555 1_555
C40 N3 1_555 1_555
H39 C40 1_555 1_555
C45 C38 1_555 1_555
H45 C45 1_555 1_555
C7 C12 1_555 1_555
C14 C17 1_555 1_555
C30 C35 1_555 1_555
C37 C40 1_555 1_555
Cu7 O11 1_555 1_555
O11 H26 1_555 1_555
O14 Cu7 1_555 1_555
C31 O14 1_555 1_555
H41 C43 1_555 1_555
C44 C31 1_555 1_555
H42 C44 1_555 1_555
H43 C44 1_555 1_555
H44 C44 1_555 1_555
O18 C31 1_555 1_555
C16 C9 1_555 1_555
H15 C19 1_555 1_555
C16 C19 1_555 1_555
O2 C2 1_555 1_555
O5 Cu4 1_555 1_555
C2 C5 1_555 1_555
O6 Cu4 1_555 1_555
N2 Cu4 1_555 1_555
C3 O2 1_555 1_555
H4 C3 1_555 1_555
C5 H5 1_555 1_555
C10 N2 1_555 1_555
H9 C10 1_555 1_555
C11 C2 1_555 1_555
H10 C11 1_555 1_555
O9 C18 1_555 1_555
C13 N2 1_555 1_555
H11 C13 1_555 1_555
C18 O6 1_555 1_555
C24 C18 1_555 1_555
H22 C24 1_555 1_555
H23 C24 1_555 1_555
H24 C24 1_555 1_555
O12 C26 1_555 1_555
O16 Cu4_2 1_555 1_555
C26 C28 1_555 1_555
O17 Cu4_2 1_555 1_555
N6 Cu4_2 1_555 1_555
H29 C27 1_555 1_555
C28 H30 1_555 1_555
C32 O16 1_555 1_555
C33 N6 1_555 1_555
H34 C33 1_555 1_555
C34 C26 1_555 1_555
H35 C34 1_555 1_555
O20 C41 1_555 1_555
C36 N6 1_555 1_555
H36 C36 1_555 1_555
C39 C32 1_555 1_555
C41 O17 1_555 1_555
H40 C42 1_555 1_555
C47 C41 1_555 1_555
H47 C47 1_555 1_555
H48 C47 1_555 1_555
H49 C47 1_555 1_555
C5 C13 1_555 1_555
C10 C11 1_555 1_555
O12 C27 1_555 1_555
C28 C36 1_555 1_555
C33 C34 1_555 1_555
C39 C42 1_555 1_555
H21 C23 1_555 1_555
O2_2 C2_2 1_555 1_555
O5_2 Cu1 1_555 1_555
C2_2 C5_2 1_555 1_555
O6_2 Cu1 1_555 1_555
N2_2 Cu1 1_555 1_555
C3_2 O2_2 1_555 1_555
H4_2 C3_2 1_555 1_555
C5_2 H5_2 1_555 1_555
C10_2 N2_2 1_555 1_555
H9_2 C10_2 1_555 1_555
C11_2 C2_2 1_555 1_555
H10_2 C11_2 1_555 1_555
O9_2 C18_2 1_555 1_555
C13_2 N2_2 1_555 1_555
H11_2 C13_2 1_555 1_555
C18_2 O6_2 1_555 1_555
C24_2 C18_2 1_555 1_555
H22_2 C24_2 1_555 1_555
H23_2 C24_2 1_555 1_555
H24_2 C24_2 1_555 1_555
O12_2 C26_2 1_555 1_555
O16_2 Cu3 1_555 1_555
C26_2 C28_2 1_555 1_555
O17_2 Cu3 1_555 1_555
N6_2 Cu3 1_555 1_555
H29_2 C27_2 1_555 1_555
C28_2 H30_2 1_555 1_555
C32_2 O16_2 1_555 1_555
C33_2 N6_2 1_555 1_555
H34_2 C33_2 1_555 1_555
C34_2 C26_2 1_555 1_555
H35_2 C34_2 1_555 1_555
O20_2 C41_2 1_555 1_555
C36_2 N6_2 1_555 1_555
H36_2 C36_2 1_555 1_555
C39_2 C32_2 1_555 1_555
C41_2 O17_2 1_555 1_555
H40_2 C42_2 1_555 1_555
C47_2 C41_2 1_555 1_555
H47_2 C47_2 1_555 1_555
H48_2 C47_2 1_555 1_555
H49_2 C47_2 1_555 1_555
C5_2 C13_2 1_555 1_555
C10_2 C11_2 1_555 1_555
O12_2 C27_2 1_555 1_555
C28_2 C36_2 1_555 1_555
C33_2 C34_2 1_555 1_555
C39_2 C42_2 1_555 1_555
C16_2 C9_2 1_555 1_555
H15_2 C19_2 1_555 1_555
O15 Cu5 1_555 1_555
N5 Cu5 1_555 1_555
C16_2 C19_2 1_555 1_555
Cu5 O10 1_555 1_555
H25_2 O10_2 1_555 1_555
O15_2 Cu5_2 1_555 1_555
N5_2 Cu5_2 1_555 1_555
Cu5_2 O10_2 1_555 1_555
C31_2 O15_2 1_555 1_555
H41_2 C43_2 1_555 1_555
C44_2 C31_2 1_555 1_555
H42_2 C44_2 1_555 1_555
H43_2 C44_2 1_555 1_555
H44_2 C44_2 1_555 1_555
O18_2 C31_2 1_555 1_555
O3_2 C6_2 1_555 1_555
C1_2 H2_2 1_555 1_555
N5 C1_2 1_555 1_555
C6_2 C4_2 1_555 1_555
H6_2 C6_2 1_555 1_555
H7_2 C6_2 1_555 1_555
C7_2 C1_2 1_555 1_555
H8_2 C7_2 1_555 1_555
C12_2 O3_2 1_555 1_555
C14_2 C12_2 1_555 1_555
H12_2 C14_2 1_555 1_555
C17_2 N5 1_555 1_555
H14_2 C17_2 1_555 1_555
O13_2 C29_2 1_555 1_555
C25_2 H27_2 1_555 1_555
N5_2 C25_2 1_555 1_555
C29_2 C4_2 1_555 1_555
H31_2 C29_2 1_555 1_555
H32_2 C29_2 1_555 1_555
C30_2 C25_2 1_555 1_555
H33_2 C30_2 1_555 1_555
C35_2 O13_2 1_555 1_555
C37_2 C35_2 1_555 1_555
H37_2 C37_2 1_555 1_555
C38_2 H38_2 1_555 1_555
C40_2 N5_2 1_555 1_555
H39_2 C40_2 1_555 1_555
C45_2 C38_2 1_555 1_555
H45_2 C45_2 1_555 1_555
C7_2 C12_2 1_555 1_555
C14_2 C17_2 1_555 1_555
C30_2 C35_2 1_555 1_555
C37_2 C40_2 1_555 1_555
H16_2 C20_2 1_555 1_555
C8_2 O15 1_555 1_555
C21_2 C8_2 1_555 1_555
H17_2 C21_2 1_555 1_555
H18_2 C21_2 1_555 1_555
H19_2 C21_2 1_555 1_555
O7_2 C8_2 1_555 1_555
C15 H13 1_555 1_555
C22 C15 1_555 1_555
H20 C22 1_555 1_555
H46 C46 1_555 1_555
H46_2 C46_2 1_555 1_555
C15_2 H13_2 1_555 1_555
C22_2 C15_2 1_555 1_555
H20_2 C22_2 1_555 1_555
H21_2 C23_2 1_555 1_555

#END
