
###############################################################################
#
# This file contains modified crystal structure data generated from the
# MOF subset of the Cambridge Structural Database (CSD) v543 
# hosted by the Cambridge Crystallographic Data Centre (CCDC).
#
# This work is licensed under the Creative Commons
# Attribution-NonCommercial-ShareAlike 4.0 International License.
# To view a copy of this license, visit
# http://creativecommons.org/licenses/by-nc-sa/4.0/
# or send a letter to
# Creative Commons, PO Box 1866, Mountain View, CA 94042, USA.
#
# CIF created using the CSD Python API on 29 September 2022
# The structure has been converted into the P1 space group
# The structure has a 3D framework
# The original CSD entry IBUBEP is in the orthorhombic crystal system
# The framework has been calculated to contain at least 10.0% void space
# The void calculation uses a probe of radius 1.32A, grid spacing 0.4
# The framework is charged, counterions have been retained in the structure
#
###############################################################################

data_IBUBEP
_chemical_formula_moiety         '(C320 H256 Cd42 N160 O128 16-)n'
_symmetry_cell_setting           triclinic
_symmetry_space_group_name_H-M   'P 1'
_symmetry_Int_Tables_number      1
_space_group_name_Hall           'P 1'
loop_
_symmetry_equiv_pos_site_id
_symmetry_equiv_pos_as_xyz
1 x,y,z
_cell_length_a                   17.4956(8)
_cell_length_b                   29.4158(11)
_cell_length_c                   35.2708(14)
_cell_angle_alpha                90
_cell_angle_beta                 90
_cell_angle_gamma                90
_cell_volume                     18152
loop_
_atom_site_label
_atom_site_type_symbol
_atom_site_fract_x
_atom_site_fract_y
_atom_site_fract_z
Cd3 Cd 0.07223(4) 0.10432(2) 0.588512(18)
C1 C 0.1453(13) 0.2144(5) 0.4877(5)
H1 H 0.1569 0.1851 0.4795
C2 C 0.1584(16) 0.2504(5) 0.4634(5)
H2 H 0.1724 0.2455 0.4383
C3 C 0.1498(8) 0.2941(4) 0.4778(3)
C4 C 0.1688(8) 0.3347(4) 0.4527(3)
C5 C 0.0984(7) 0.1786(5) 0.5460(4)
C6 C 0.1261(6) 0.2991(3) 0.5137(3)
H3 H 0.1230 0.3282 0.5238
C8 C 0.1169(8) 0.2200(4) 0.5221(3)
C9 C 0.1062(6) 0.2631(4) 0.5360(3)
H5 H 0.0860 0.2676 0.5601
H16 H 0.0059 0.0691 0.5117
O1 O 0.1710(7) 0.3279(3) 0.4167(2)
O2 O 0.1122(7) 0.1406(3) 0.5346(3)
O4 O 0.0713(5) 0.1848(2) 0.5796(2)
O8 O 0.1768(4) 0.3723(2) 0.46682(17)
Cd4 Cd 0.29859(4) 0.39939(2) 0.599126(18)
C27 C 0.4181(8) 0.4120(5) 0.7706(3)
H20 H 0.4607 0.4273 0.7798
C30 C 0.3029(8) 0.3732(5) 0.7808(3)
H22 H 0.2680 0.3609 0.7978
C31 C 0.3771(6) 0.4993(3) 0.5934(3)
C32 C 0.3455(5) 0.5227(3) 0.5390(3)
C33 C 0.2874(8) 0.3723(5) 0.7421(3)
H23 H 0.2425 0.3590 0.7334
C34 C 0.4041(8) 0.4093(4) 0.7311(3)
H24 H 0.4405 0.4203 0.7142
C35 C 0.3195(8) 0.3908(4) 0.6756(3)
C36 C 0.3876(8) 0.3929(4) 0.8371(3)
C37 C 0.0856(6) 0.4199(3) 0.5431(2)
C38 C 0.3692(7) 0.3921(4) 0.7940(3)
C39 C 0.1131(6) 0.3981(4) 0.5975(3)
C40 C 0.3370(7) 0.3905(3) 0.7171(3)
N11 N 0.4027(7) 0.4973(4) 0.6292(3)
H25 H 0.3971 0.4727 0.6422
H26 H 0.4248 0.5205 0.6392
N12 N 0.3391(5) 0.5498(3) 0.5073(2)
H27 H 0.3195 0.5391 0.4868
H28 H 0.3547 0.5775 0.5080
N13 N 0.1051(5) 0.3824(4) 0.6350(2)
H29 H 0.1450 0.3778 0.6488
H30 H 0.0603 0.3773 0.6442
N14 N 0.0431(5) 0.4330(3) 0.5114(2)
H31 H 0.0660 0.4432 0.4915
N15 N 0.1597(4) 0.4217(3) 0.54549(18)
N16 N 0.0519(5) 0.4065(3) 0.5754(2)
N17 N 0.1769(4) 0.4064(3) 0.5819(2)
N18 N 0.3798(4) 0.5377(3) 0.5704(2)
N19 N 0.3420(5) 0.4640(3) 0.5762(2)
N20 N 0.3226(4) 0.4802(3) 0.53943(18)
O11 O 0.3397(5) 0.3780(3) 0.8601(2)
O13 O 0.3718(6) 0.4068(3) 0.6532(2)
O14 O 0.4497(5) 0.4101(3) 0.8474(2)
O15 O 0.2595(5) 0.3762(4) 0.6641(2)
Cd6 Cd 0.20141(4) 0.39939(2) 0.400874(18)
Cd8 Cd 0.2500 0.43325(3) 0.5000
Cd10 Cd 0.42777(4) 0.60432(2) 0.588512(18)
Cd11 Cd 0.42777(4) 0.39568(2) 0.911488(18)
N23 N 0.1202(4) 0.0377(3) 0.5704(2)
O18 O 0.3290(7) 0.3279(3) 0.5833(2)
O19 O 0.1603(5) 0.1220(3) 0.6399(2)
O21 O 0.0503(5) 0.0899(3) 0.6526(2)
O24 O 0.3232(4) 0.3723(2) 0.53318(17)
Cd1 Cd 0.70141(4) 0.10061(2) 0.599126(18)
Cd2 Cd 0.7500 0.06675(3) 0.5000
C7 C 0.5819(8) 0.0880(5) 0.7706(3)
H4 H 0.5393 0.0727 0.7798
C10 C 0.6971(8) 0.1268(5) 0.7808(3)
H6 H 0.7320 0.1391 0.7978
C11 C 0.6229(6) 0.0007(3) 0.5934(3)
C13 C 0.7126(8) 0.1277(5) 0.7421(3)
H7 H 0.7575 0.1410 0.7334
C14 C 0.5959(8) 0.0907(4) 0.7311(3)
H8 H 0.5595 0.0797 0.7142
C15 C 0.6805(8) 0.1092(4) 0.6756(3)
C16 C 0.6124(8) 0.1071(4) 0.8371(3)
C17 C 0.9144(6) 0.0801(3) 0.5431(2)
C18 C 0.6308(7) 0.1079(4) 0.7940(3)
C19 C 0.8869(6) 0.1019(4) 0.5975(3)
C20 C 0.6630(7) 0.1095(3) 0.7171(3)
N1 N 0.5973(7) 0.0027(4) 0.6292(3)
H9 H 0.6029 0.0273 0.6422
N3 N 0.8949(5) 0.1176(4) 0.6350(2)
H13 H 0.8550 0.1222 0.6488
H14 H 0.9397 0.1227 0.6442
N4 N 0.9569(5) 0.0670(3) 0.5114(2)
H15 H 0.9340 0.0568 0.4915
N5 N 0.8403(4) 0.0783(3) 0.54549(18)
N6 N 0.9481(5) 0.0935(3) 0.5754(2)
N7 N 0.8231(4) 0.0936(3) 0.5819(2)
N9 N 0.6580(5) 0.0360(3) 0.5762(2)
N10 N 0.6774(4) 0.0198(3) 0.53943(18)
O3 O 0.6603(5) 0.1220(3) 0.8601(2)
O5 O 0.6282(6) 0.0932(3) 0.6532(2)
O6 O 0.5503(5) 0.0899(3) 0.8474(2)
O7 O 0.7405(5) 0.1238(4) 0.6641(2)
Cd5 Cd 0.92777(4) 0.39568(2) 0.588512(18)
C21 C 0.8547(13) 0.2856(5) 0.4877(5)
H17 H 0.8431 0.3149 0.4795
C22 C 0.8416(16) 0.2496(5) 0.4634(5)
H18 H 0.8276 0.2545 0.4383
C23 C 0.8502(8) 0.2059(4) 0.4778(3)
C24 C 0.8312(8) 0.1653(4) 0.4527(3)
C25 C 0.9016(7) 0.3214(5) 0.5460(4)
C26 C 0.8739(6) 0.2009(3) 0.5137(3)
H19 H 0.8770 0.1718 0.5238
C28 C 0.8831(8) 0.2800(4) 0.5221(3)
C29 C 0.8938(6) 0.2369(4) 0.5360(3)
H21 H 0.9140 0.2324 0.5601
H32 H 0.9941 0.4309 0.5117
O9 O 0.8290(7) 0.1721(3) 0.4167(2)
O10 O 0.8878(7) 0.3594(3) 0.5346(3)
O12 O 0.9287(5) 0.3152(2) 0.5796(2)
O16 O 0.8232(4) 0.1277(2) 0.46682(17)
Cd7 Cd 0.79859(4) 0.10061(2) 0.400874(18)
Cd9 Cd 0.57223(4) 0.10432(2) 0.911488(18)
N21 N 0.6597(4) 0.0783(3) 0.45451(18)
N22 N 0.8798(4) 0.4623(3) 0.5704(2)
N24 N 0.8226(4) 0.0198(3) 0.46057(18)
O17 O 0.6710(7) 0.1721(3) 0.5833(2)
O20 O 0.8397(5) 0.3780(3) 0.6399(2)
O22 O 0.9497(5) 0.4101(3) 0.6526(2)
O23 O 0.6768(4) 0.1277(2) 0.53318(17)
C12 C 0.6545(5) 0.9773(3) 0.5390(3)
H10 H 0.5752 0.9795 0.6392
N2 N 0.6609(5) 0.9502(3) 0.5073(2)
H11 H 0.6805 0.9609 0.4868
H12 H 0.6453 0.9225 0.5080
N8 N 0.6202(4) 0.9623(3) 0.5704(2)
Cd12 Cd 0.57223(4) 0.89568(2) 0.588512(18)
C12_2 C 0.8455(5) 0.0227(3) 0.0390(3)
H10_2 H 0.9248 0.0205 0.1392
N2_2 N 0.8391(5) 0.0498(3) 0.0073(2)
H12_2 H 0.8547 0.0775 0.0080
N8_2 N 0.8798(4) 0.0377(3) 0.0704(2)
Cd12_2 Cd 0.92777(4) 0.10432(2) 0.088512(18)
Cd1_2 Cd 0.79859(4) 0.89939(2) 0.099126(18)
Cd2_2 Cd 0.7500 0.93325(3) 0.0000
Cd3_2 Cd 0.42777(4) 0.89568(2) 0.088512(18)
C5_2 C 0.4016(7) 0.8214(5) 0.0460(4)
C6_2 C 0.3739(6) 0.7009(3) 0.0137(3)
H3_2 H 0.3770 0.6718 0.0238
C7_2 C 0.9181(8) 0.9120(5) 0.2706(3)
H4_2 H 0.9607 0.9273 0.2798
C8_2 C 0.3831(8) 0.7800(4) 0.0221(3)
C9_2 C 0.3938(6) 0.7369(4) 0.0360(3)
H5_2 H 0.4140 0.7324 0.0601
C10_2 C 0.8029(8) 0.8732(5) 0.2808(3)
H6_2 H 0.7680 0.8609 0.2978
C11_2 C 0.8771(6) 0.9993(3) 0.0934(3)
C13_2 C 0.7874(8) 0.8723(5) 0.2421(3)
H7_2 H 0.7425 0.8590 0.2334
C14_2 C 0.9041(8) 0.9093(4) 0.2311(3)
H8_2 H 0.9405 0.9203 0.2142
C15_2 C 0.8195(8) 0.8908(4) 0.1756(3)
C16_2 C 0.8876(8) 0.8929(4) 0.3371(3)
C17_2 C 0.5856(6) 0.9199(3) 0.0431(2)
C18_2 C 0.8692(7) 0.8921(4) 0.2940(3)
C19_2 C 0.6131(6) 0.8981(4) 0.0975(3)
C20_2 C 0.8370(7) 0.8905(3) 0.2171(3)
N1_2 N 0.9027(7) 0.9973(4) 0.1292(3)
H9_2 H 0.8971 0.9727 0.1422
N3_2 N 0.6051(5) 0.8824(4) 0.1350(2)
H13_2 H 0.6450 0.8778 0.1488
H14_2 H 0.5603 0.8773 0.1442
N4_2 N 0.5431(5) 0.9330(3) 0.0114(2)
H16_2 H 0.4941 0.9309 0.0117
N5_2 N 0.6597(4) 0.9217(3) 0.04549(18)
N6_2 N 0.5519(5) 0.9065(3) 0.0754(2)
N7_2 N 0.6769(4) 0.9064(3) 0.0819(2)
N9_2 N 0.8420(5) 0.9640(3) 0.0762(2)
N10_2 N 0.8226(4) 0.9802(3) 0.03943(18)
O2_2 O 0.3878(7) 0.8594(3) 0.0346(3)
O3_2 O 0.8397(5) 0.8780(3) 0.3601(2)
O4_2 O 0.4287(5) 0.8152(2) 0.0796(2)
O5_2 O 0.8718(6) 0.9068(3) 0.1532(2)
O6_2 O 0.9497(5) 0.9101(3) 0.3474(2)
O7_2 O 0.7595(5) 0.8762(4) 0.1641(2)
Cd4_2 Cd 0.20141(4) 0.60061(2) 0.099126(18)
Cd5_2 Cd 0.57223(4) 0.60432(2) 0.088512(18)
C25_2 C 0.5984(7) 0.6786(5) 0.0460(4)
C26_2 C 0.6261(6) 0.7991(3) 0.0137(3)
H19_2 H 0.6230 0.8282 0.0238
C27_2 C 0.0819(8) 0.5880(5) 0.2706(3)
H20_2 H 0.0393 0.5727 0.2798
C28_2 C 0.6169(8) 0.7200(4) 0.0221(3)
C29_2 C 0.6062(6) 0.7631(4) 0.0360(3)
H21_2 H 0.5860 0.7676 0.0601
C30_2 C 0.1971(8) 0.6268(5) 0.2808(3)
H22_2 H 0.2320 0.6391 0.2978
C31_2 C 0.1229(6) 0.5007(3) 0.0934(3)
C32_2 C 0.1545(5) 0.4773(3) 0.0390(3)
C33_2 C 0.2126(8) 0.6277(5) 0.2421(3)
H23_2 H 0.2575 0.6410 0.2334
C34_2 C 0.0959(8) 0.5907(4) 0.2311(3)
H24_2 H 0.0595 0.5797 0.2142
C35_2 C 0.1805(8) 0.6092(4) 0.1756(3)
C36_2 C 0.1124(8) 0.6071(4) 0.3371(3)
C37_2 C 0.4144(6) 0.5801(3) 0.0431(2)
C38_2 C 0.1308(7) 0.6079(4) 0.2940(3)
C39_2 C 0.3869(6) 0.6019(4) 0.0975(3)
C40_2 C 0.1630(7) 0.6095(3) 0.2171(3)
N11_2 N 0.0973(7) 0.5027(4) 0.1292(3)
H25_2 H 0.1029 0.5273 0.1422
H26_2 H 0.0752 0.4795 0.1392
N12_2 N 0.1609(5) 0.4502(3) 0.0073(2)
H28_2 H 0.1453 0.4225 0.0080
N13_2 N 0.3949(5) 0.6176(4) 0.1350(2)
H29_2 H 0.3550 0.6222 0.1488
H30_2 H 0.4397 0.6227 0.1442
N14_2 N 0.4569(5) 0.5670(3) 0.0114(2)
H32_2 H 0.5059 0.5691 0.0117
N15_2 N 0.3403(4) 0.5783(3) 0.04549(18)
N16_2 N 0.4481(5) 0.5935(3) 0.0754(2)
N17_2 N 0.3231(4) 0.5936(3) 0.0819(2)
N18_2 N 0.1202(4) 0.4623(3) 0.0704(2)
N19_2 N 0.1580(5) 0.5360(3) 0.0762(2)
N20_2 N 0.1774(4) 0.5198(3) 0.03943(18)
O10_2 O 0.6122(7) 0.6406(3) 0.0346(3)
O11_2 O 0.1603(5) 0.6220(3) 0.3601(2)
O12_2 O 0.5713(5) 0.6848(2) 0.0796(2)
O13_2 O 0.1282(6) 0.5932(3) 0.1532(2)
O14_2 O 0.0503(5) 0.5899(3) 0.3474(2)
O15_2 O 0.2405(5) 0.6238(4) 0.1641(2)
Cd8_2 Cd 0.2500 0.56675(3) 0.0000
Cd9_2 Cd 0.92777(4) 0.89568(2) 0.411488(18)
Cd10_2 Cd 0.07223(4) 0.39568(2) 0.088512(18)
Cd11_2 Cd 0.07223(4) 0.60432(2) 0.411488(18)
N22_2 N 0.6202(4) 0.5377(3) 0.0704(2)
N23_2 N 0.3798(4) 0.9623(3) 0.0704(2)
O17_2 O 0.8290(7) 0.8279(3) 0.0833(2)
O18_2 O 0.1710(7) 0.6721(3) 0.0833(2)
O19_2 O 0.3397(5) 0.8780(3) 0.1399(2)
O20_2 O 0.6603(5) 0.6220(3) 0.1399(2)
O21_2 O 0.4497(5) 0.9101(3) 0.1526(2)
O22_2 O 0.5503(5) 0.5899(3) 0.1526(2)
O23_2 O 0.8232(4) 0.8723(2) 0.03318(17)
O24_2 O 0.1768(4) 0.6277(2) 0.03318(17)
Cd2_3 Cd 0.7500 0.93325(3) 1.0000
C1_2 C 0.3547(13) 0.7856(5) 0.9877(5)
H1_2 H 0.3431 0.8149 0.9795
C2_2 C 0.3416(16) 0.7496(5) 0.9634(5)
H2_2 H 0.3276 0.7545 0.9383
C3_2 C 0.3502(8) 0.7059(4) 0.9778(3)
C4_2 C 0.3312(8) 0.6653(4) 0.9527(3)
H15_2 H 0.5660 0.9432 0.9915
O1_2 O 0.3290(7) 0.6721(3) 0.9167(2)
O8_2 O 0.3232(4) 0.6277(2) 0.96682(17)
C21_2 C 0.6453(13) 0.7144(5) 0.9877(5)
H17_2 H 0.6569 0.6851 0.9795
C22_2 C 0.6584(16) 0.7504(5) 0.9634(5)
H18_2 H 0.6724 0.7455 0.9383
C23_2 C 0.6498(8) 0.7941(4) 0.9778(3)
C24_2 C 0.6688(8) 0.8347(4) 0.9527(3)
H27_2 H 0.1805 0.4609 0.9868
H31_2 H 0.4340 0.5568 0.9915
O9_2 O 0.6710(7) 0.8279(3) 0.9167(2)
O16_2 O 0.6768(4) 0.8723(2) 0.96682(17)
Cd6_2 Cd 0.29859(4) 0.60061(2) 0.900874(18)
Cd7_2 Cd 0.70141(4) 0.89939(2) 0.900874(18)
Cd8_3 Cd 0.2500 0.56675(3) 1.0000
N21_2 N 0.8403(4) 0.9217(3) 0.95451(18)
N24_2 N 0.6774(4) 0.9802(3) 0.96057(18)
H11_2 H 0.3195 0.4609 0.0132
H15_3 H 0.0660 0.5568 0.0085
C21_3 C 0.1453(13) 0.7856(5) 0.0123(5)
H17_3 H 0.1569 0.8149 0.0205
C22_3 C 0.1584(16) 0.7496(5) 0.0366(5)
H18_3 H 0.1724 0.7545 0.0617
C23_3 C 0.1498(8) 0.7059(4) 0.0222(3)
C24_3 C 0.1688(8) 0.6653(4) 0.0473(3)
C7_3 C 0.4181(8) 0.5880(5) 0.7294(3)
H4_3 H 0.4607 0.5727 0.7202
C10_3 C 0.3029(8) 0.6268(5) 0.7192(3)
H6_3 H 0.2680 0.6391 0.7022
C11_3 C 0.3771(6) 0.5007(3) 0.9066(3)
C12_3 C 0.3455(5) 0.4773(3) 0.9610(3)
C13_3 C 0.2874(8) 0.6277(5) 0.7579(3)
H7_3 H 0.2425 0.6410 0.7666
C14_3 C 0.4041(8) 0.5907(4) 0.7689(3)
H8_3 H 0.4405 0.5797 0.7858
C15_3 C 0.3195(8) 0.6092(4) 0.8244(3)
C16_3 C 0.3876(8) 0.6071(4) 0.6629(3)
C17_3 C 0.0856(6) 0.5801(3) 0.9569(2)
C18_3 C 0.3692(7) 0.6079(4) 0.7060(3)
C19_3 C 0.1131(6) 0.6019(4) 0.9025(3)
C20_3 C 0.3370(7) 0.6095(3) 0.7829(3)
N1_3 N 0.4027(7) 0.5027(4) 0.8708(3)
H9_3 H 0.3971 0.5273 0.8578
H10_3 H 0.4248 0.4795 0.8608
N2_3 N 0.3391(5) 0.4502(3) 0.9927(2)
H12_3 H 0.3547 0.4225 0.9920
N3_3 N 0.1051(5) 0.6176(4) 0.8650(2)
H13_3 H 0.1450 0.6222 0.8512
H14_3 H 0.0603 0.6227 0.8558
N4_3 N 0.0431(5) 0.5670(3) 0.9886(2)
N5_3 N 0.1597(4) 0.5783(3) 0.95451(18)
N6_3 N 0.0519(5) 0.5935(3) 0.9246(2)
N7_3 N 0.1769(4) 0.5936(3) 0.9181(2)
N8_3 N 0.3798(4) 0.4623(3) 0.9296(2)
N9_3 N 0.3420(5) 0.5360(3) 0.9238(2)
N10_3 N 0.3226(4) 0.5198(3) 0.96057(18)
O3_3 O 0.3397(5) 0.6220(3) 0.6399(2)
O5_3 O 0.3718(6) 0.5932(3) 0.8468(2)
O6_3 O 0.4497(5) 0.5899(3) 0.6526(2)
O7_3 O 0.2595(5) 0.6238(4) 0.8359(2)
Cd5_3 Cd 0.07223(4) 0.89568(2) 0.911488(18)
C25_3 C 0.0984(7) 0.8214(5) 0.9540(4)
C26_3 C 0.1261(6) 0.7009(3) 0.9863(3)
H19_3 H 0.1230 0.6718 0.9762
C28_3 C 0.1169(8) 0.7800(4) 0.9779(3)
C29_3 C 0.1062(6) 0.7369(4) 0.9640(3)
H21_3 H 0.0860 0.7324 0.9399
H32_3 H 0.0059 0.9309 0.9883
O10_3 O 0.1122(7) 0.8594(3) 0.9654(3)
O12_3 O 0.0713(5) 0.8152(2) 0.9204(2)
N22_3 N 0.1202(4) 0.9623(3) 0.9296(2)
O20_3 O 0.1603(5) 0.8780(3) 0.8601(2)
O22_3 O 0.0503(5) 0.9101(3) 0.8474(2)
C32_3 C 0.6545(5) 0.0227(3) 0.9610(3)
H26_3 H 0.5752 0.0205 0.8608
N12_3 N 0.6609(5) 0.0498(3) 0.9927(2)
H28_3 H 0.6453 0.0775 0.9920
N18_3 N 0.6202(4) 0.0377(3) 0.9296(2)
C1_3 C 0.8547(13) 0.7144(5) 0.0123(5)
H1_3 H 0.8431 0.6851 0.0205
C2_3 C 0.8416(16) 0.7504(5) 0.0366(5)
H2_3 H 0.8276 0.7455 0.0617
C3_3 C 0.8502(8) 0.7941(4) 0.0222(3)
C4_3 C 0.8312(8) 0.8347(4) 0.0473(3)
H31_3 H 0.9340 0.9432 0.0085
Cd3_3 Cd 0.92777(4) 0.60432(2) 0.911488(18)
C5_3 C 0.9016(7) 0.6786(5) 0.9540(4)
C6_3 C 0.8739(6) 0.7991(3) 0.9863(3)
H3_3 H 0.8770 0.8282 0.9762
C8_3 C 0.8831(8) 0.7200(4) 0.9779(3)
C9_3 C 0.8938(6) 0.7631(4) 0.9640(3)
H5_3 H 0.9140 0.7676 0.9399
H16_3 H 0.9941 0.5691 0.9883
O2_3 O 0.8878(7) 0.6406(3) 0.9654(3)
O4_3 O 0.9287(5) 0.6848(2) 0.9204(2)
C27_3 C 0.5819(8) 0.9120(5) 0.7294(3)
H20_3 H 0.5393 0.9273 0.7202
C30_3 C 0.6971(8) 0.8732(5) 0.7192(3)
H22_3 H 0.7320 0.8609 0.7022
C31_3 C 0.6229(6) 0.9993(3) 0.9066(3)
C33_3 C 0.7126(8) 0.8723(5) 0.7579(3)
H23_3 H 0.7575 0.8590 0.7666
C34_3 C 0.5959(8) 0.9093(4) 0.7689(3)
H24_3 H 0.5595 0.9203 0.7858
C35_3 C 0.6805(8) 0.8908(4) 0.8244(3)
C36_3 C 0.6124(8) 0.8929(4) 0.6629(3)
C37_3 C 0.9144(6) 0.9199(3) 0.9569(2)
C38_3 C 0.6308(7) 0.8921(4) 0.7060(3)
C39_3 C 0.8869(6) 0.8981(4) 0.9025(3)
C40_3 C 0.6630(7) 0.8905(3) 0.7829(3)
N11_3 N 0.5973(7) 0.9973(4) 0.8708(3)
H25_3 H 0.6029 0.9727 0.8578
N13_3 N 0.8949(5) 0.8824(4) 0.8650(2)
H29_3 H 0.8550 0.8778 0.8512
H30_3 H 0.9397 0.8773 0.8558
N14_3 N 0.9569(5) 0.9330(3) 0.9886(2)
N16_3 N 0.9481(5) 0.9065(3) 0.9246(2)
N17_3 N 0.8231(4) 0.9064(3) 0.9181(2)
N19_3 N 0.6580(5) 0.9640(3) 0.9238(2)
O11_3 O 0.6603(5) 0.8780(3) 0.6399(2)
O13_3 O 0.6282(6) 0.9068(3) 0.8468(2)
O14_3 O 0.5503(5) 0.9101(3) 0.6526(2)
O15_3 O 0.7405(5) 0.8762(4) 0.8359(2)
N23_3 N 0.8798(4) 0.5377(3) 0.9296(2)
O19_3 O 0.8397(5) 0.6220(3) 0.8601(2)
O21_3 O 0.9497(5) 0.5899(3) 0.8474(2)
Cd3_4 Cd 0.57223(4) 0.39568(2) 0.411488(18)
C1_4 C 0.6453(13) 0.2856(5) 0.5123(5)
H1_4 H 0.6569 0.3149 0.5205
C2_4 C 0.6584(16) 0.2496(5) 0.5366(5)
H2_4 H 0.6724 0.2545 0.5617
C3_4 C 0.6498(8) 0.2059(4) 0.5222(3)
C4_4 C 0.6688(8) 0.1653(4) 0.5473(3)
C5_4 C 0.5984(7) 0.3214(5) 0.4540(4)
C6_4 C 0.6261(6) 0.2009(3) 0.4863(3)
H3_4 H 0.6230 0.1718 0.4762
C7_4 C 0.0819(8) 0.4120(5) 0.2294(3)
H4_4 H 0.0393 0.4273 0.2202
C8_4 C 0.6169(8) 0.2800(4) 0.4779(3)
C9_4 C 0.6062(6) 0.2369(4) 0.4640(3)
H5_4 H 0.5860 0.2324 0.4399
C10_4 C 0.1971(8) 0.3732(5) 0.2192(3)
H6_4 H 0.2320 0.3609 0.2022
C11_4 C 0.1229(6) 0.4993(3) 0.4066(3)
C12_4 C 0.1545(5) 0.5227(3) 0.4610(3)
C13_4 C 0.2126(8) 0.3723(5) 0.2579(3)
H7_4 H 0.2575 0.3590 0.2666
C14_4 C 0.0959(8) 0.4093(4) 0.2689(3)
H8_4 H 0.0595 0.4203 0.2858
C15_4 C 0.1805(8) 0.3908(4) 0.3244(3)
C16_4 C 0.1124(8) 0.3929(4) 0.1629(3)
C17_4 C 0.4144(6) 0.4199(3) 0.4569(2)
C18_4 C 0.1308(7) 0.3921(4) 0.2060(3)
C19_4 C 0.3869(6) 0.3981(4) 0.4025(3)
C20_4 C 0.1630(7) 0.3905(3) 0.2829(3)
N1_4 N 0.0973(7) 0.4973(4) 0.3708(3)
H9_4 H 0.1029 0.4727 0.3578
H10_4 H 0.0752 0.5205 0.3608
N2_4 N 0.1609(5) 0.5498(3) 0.4927(2)
H11_3 H 0.1805 0.5391 0.5132
H12_4 H 0.1453 0.5775 0.4920
N3_4 N 0.3949(5) 0.3824(4) 0.3650(2)
H13_4 H 0.3550 0.3778 0.3512
H14_4 H 0.4397 0.3773 0.3558
N4_4 N 0.4569(5) 0.4330(3) 0.4886(2)
H15_4 H 0.4340 0.4432 0.5085
H16_4 H 0.5059 0.4309 0.4883
N5_4 N 0.3403(4) 0.4217(3) 0.45451(18)
N6_4 N 0.4481(5) 0.4065(3) 0.4246(2)
N7_4 N 0.3231(4) 0.4064(3) 0.4181(2)
N8_4 N 0.1202(4) 0.5377(3) 0.4296(2)
N9_4 N 0.1580(5) 0.4640(3) 0.4238(2)
N10_4 N 0.1774(4) 0.4802(3) 0.46057(18)
O2_4 O 0.6122(7) 0.3594(3) 0.4654(3)
O3_4 O 0.1603(5) 0.3780(3) 0.1399(2)
O4_4 O 0.5713(5) 0.3152(2) 0.4204(2)
O5_4 O 0.1282(6) 0.4068(3) 0.3468(2)
O6_4 O 0.0503(5) 0.4101(3) 0.1526(2)
O7_4 O 0.2405(5) 0.3762(4) 0.3359(2)
Cd5_4 Cd 0.42777(4) 0.10432(2) 0.411488(18)
C21_4 C 0.3547(13) 0.2144(5) 0.5123(5)
H17_4 H 0.3431 0.1851 0.5205
C22_4 C 0.3416(16) 0.2504(5) 0.5366(5)
H18_4 H 0.3276 0.2455 0.5617
C23_4 C 0.3502(8) 0.2941(4) 0.5222(3)
C24_4 C 0.3312(8) 0.3347(4) 0.5473(3)
C25_4 C 0.4016(7) 0.1786(5) 0.4540(4)
C26_4 C 0.3739(6) 0.2991(3) 0.4863(3)
H19_4 H 0.3770 0.3282 0.4762
C27_4 C 0.9181(8) 0.0880(5) 0.2294(3)
H20_4 H 0.9607 0.0727 0.2202
C28_4 C 0.3831(8) 0.2200(4) 0.4779(3)
C29_4 C 0.3938(6) 0.2631(4) 0.4640(3)
H21_4 H 0.4140 0.2676 0.4399
C30_4 C 0.8029(8) 0.1268(5) 0.2192(3)
H22_4 H 0.7680 0.1391 0.2022
C31_4 C 0.8771(6) 0.0007(3) 0.4066(3)
C33_4 C 0.7874(8) 0.1277(5) 0.2579(3)
H23_4 H 0.7425 0.1410 0.2666
C34_4 C 0.9041(8) 0.0907(4) 0.2689(3)
H24_4 H 0.9405 0.0797 0.2858
C35_4 C 0.8195(8) 0.1092(4) 0.3244(3)
C36_4 C 0.8876(8) 0.1071(4) 0.1629(3)
C37_4 C 0.5856(6) 0.0801(3) 0.4569(2)
C38_4 C 0.8692(7) 0.1079(4) 0.2060(3)
C39_4 C 0.6131(6) 0.1019(4) 0.4025(3)
C40_4 C 0.8370(7) 0.1095(3) 0.2829(3)
N11_4 N 0.9027(7) 0.0027(4) 0.3708(3)
H25_4 H 0.8971 0.0273 0.3578
N13_4 N 0.6051(5) 0.1176(4) 0.3650(2)
H29_4 H 0.6450 0.1222 0.3512
H30_4 H 0.5603 0.1227 0.3558
N14_4 N 0.5431(5) 0.0670(3) 0.4886(2)
H31_4 H 0.5660 0.0568 0.5085
H32_4 H 0.4941 0.0691 0.4883
N16_4 N 0.5519(5) 0.0935(3) 0.4246(2)
N17_4 N 0.6769(4) 0.0936(3) 0.4181(2)
N19_4 N 0.8420(5) 0.0360(3) 0.4238(2)
O10_4 O 0.3878(7) 0.1406(3) 0.4654(3)
O11_4 O 0.8397(5) 0.1220(3) 0.1399(2)
O12_4 O 0.4287(5) 0.1848(2) 0.4204(2)
O13_4 O 0.8718(6) 0.0932(3) 0.3468(2)
O14_4 O 0.9497(5) 0.0899(3) 0.1526(2)
O15_4 O 0.7595(5) 0.1238(4) 0.3359(2)
N22_4 N 0.3798(4) 0.0377(3) 0.4296(2)
N23_4 N 0.6202(4) 0.4623(3) 0.4296(2)
O19_4 O 0.6603(5) 0.3780(3) 0.3601(2)
O20_4 O 0.3397(5) 0.1220(3) 0.3601(2)
O21_4 O 0.5503(5) 0.4101(3) 0.3474(2)
O22_4 O 0.4497(5) 0.0899(3) 0.3474(2)
C32_4 C 0.8455(5) 0.9773(3) 0.4610(3)
H26_4 H 0.9248 0.9795 0.3608
N12_4 N 0.8391(5) 0.9502(3) 0.4927(2)
H27_3 H 0.8195 0.9609 0.5132
H28_4 H 0.8547 0.9225 0.4920
N18_4 N 0.8798(4) 0.9623(3) 0.4296(2)
C12_5 C 0.3455(5) 0.0227(3) 0.4610(3)
H10_5 H 0.4248 0.0205 0.3608
N2_5 N 0.3391(5) 0.0498(3) 0.4927(2)
H11_4 H 0.3195 0.0391 0.5132
H12_5 H 0.3547 0.0775 0.4920
Cd1_3 Cd 0.29859(4) 0.89939(2) 0.400874(18)
Cd2_4 Cd 0.2500 0.93325(3) 0.5000
C7_5 C 0.4181(8) 0.9120(5) 0.2294(3)
H4_5 H 0.4607 0.9273 0.2202
C10_5 C 0.3029(8) 0.8732(5) 0.2192(3)
H6_5 H 0.2680 0.8609 0.2022
C11_5 C 0.3771(6) 0.9993(3) 0.4066(3)
C13_5 C 0.2874(8) 0.8723(5) 0.2579(3)
H7_5 H 0.2425 0.8590 0.2666
C14_5 C 0.4041(8) 0.9093(4) 0.2689(3)
H8_5 H 0.4405 0.9203 0.2858
C15_5 C 0.3195(8) 0.8908(4) 0.3244(3)
C16_5 C 0.3876(8) 0.8929(4) 0.1629(3)
C17_5 C 0.0856(6) 0.9199(3) 0.4569(2)
C18_5 C 0.3692(7) 0.8921(4) 0.2060(3)
C19_5 C 0.1131(6) 0.8981(4) 0.4025(3)
C20_5 C 0.3370(7) 0.8905(3) 0.2829(3)
N1_5 N 0.4027(7) 0.9973(4) 0.3708(3)
H9_5 H 0.3971 0.9727 0.3578
N3_5 N 0.1051(5) 0.8824(4) 0.3650(2)
H13_5 H 0.1450 0.8778 0.3512
H14_5 H 0.0603 0.8773 0.3558
N4_5 N 0.0431(5) 0.9330(3) 0.4886(2)
H15_5 H 0.0660 0.9432 0.5085
N5_5 N 0.1597(4) 0.9217(3) 0.45451(18)
N6_5 N 0.0519(5) 0.9065(3) 0.4246(2)
N7_5 N 0.1769(4) 0.9064(3) 0.4181(2)
N9_5 N 0.3420(5) 0.9640(3) 0.4238(2)
N10_5 N 0.3226(4) 0.9802(3) 0.46057(18)
O5_5 O 0.3718(6) 0.9068(3) 0.3468(2)
O7_5 O 0.2595(5) 0.8762(4) 0.3359(2)
C21_5 C 0.1453(13) 0.7144(5) 0.5123(5)
H17_5 H 0.1569 0.6851 0.5205
C22_5 C 0.1584(16) 0.7504(5) 0.5366(5)
H18_5 H 0.1724 0.7455 0.5617
C23_5 C 0.1498(8) 0.7941(4) 0.5222(3)
C24_5 C 0.1688(8) 0.8347(4) 0.5473(3)
C25_5 C 0.0984(7) 0.6786(5) 0.4540(4)
C26_5 C 0.1261(6) 0.7991(3) 0.4863(3)
H19_5 H 0.1230 0.8282 0.4762
C28_5 C 0.1169(8) 0.7200(4) 0.4779(3)
C29_5 C 0.1062(6) 0.7631(4) 0.4640(3)
H21_5 H 0.0860 0.7676 0.4399
H32_5 H 0.0059 0.5691 0.4883
O9_3 O 0.1710(7) 0.8279(3) 0.5833(2)
O10_5 O 0.1122(7) 0.6406(3) 0.4654(3)
O12_5 O 0.0713(5) 0.6848(2) 0.4204(2)
O16_3 O 0.1768(4) 0.8723(2) 0.53318(17)
Cd7_3 Cd 0.20141(4) 0.89939(2) 0.599126(18)
N21_3 N 0.3403(4) 0.9217(3) 0.54549(18)
N24_3 N 0.1774(4) 0.9802(3) 0.53943(18)
O17_3 O 0.3290(7) 0.8279(3) 0.4167(2)
O23_3 O 0.3232(4) 0.8723(2) 0.46682(17)
C1_5 C 0.8547(13) 0.7856(5) 0.5123(5)
H1_5 H 0.8431 0.8149 0.5205
C2_5 C 0.8416(16) 0.7496(5) 0.5366(5)
H2_5 H 0.8276 0.7545 0.5617
C3_5 C 0.8502(8) 0.7059(4) 0.5222(3)
C4_5 C 0.8312(8) 0.6653(4) 0.5473(3)
C5_5 C 0.9016(7) 0.8214(5) 0.4540(4)
C6_5 C 0.8739(6) 0.7009(3) 0.4863(3)
H3_5 H 0.8770 0.6718 0.4762
C8_5 C 0.8831(8) 0.7800(4) 0.4779(3)
C9_5 C 0.8938(6) 0.7369(4) 0.4640(3)
H5_5 H 0.9140 0.7324 0.4399
H16_5 H 0.9941 0.9309 0.4883
O1_3 O 0.8290(7) 0.6721(3) 0.5833(2)
O2_5 O 0.8878(7) 0.8594(3) 0.4654(3)
O4_5 O 0.9287(5) 0.8152(2) 0.4204(2)
O8_3 O 0.8232(4) 0.6277(2) 0.53318(17)
Cd4_3 Cd 0.70141(4) 0.60061(2) 0.400874(18)
C27_5 C 0.5819(8) 0.5880(5) 0.2294(3)
H20_5 H 0.5393 0.5727 0.2202
C30_5 C 0.6971(8) 0.6268(5) 0.2192(3)
H22_5 H 0.7320 0.6391 0.2022
C31_5 C 0.6229(6) 0.5007(3) 0.4066(3)
C32_5 C 0.6545(5) 0.4773(3) 0.4610(3)
C33_5 C 0.7126(8) 0.6277(5) 0.2579(3)
H23_5 H 0.7575 0.6410 0.2666
C34_5 C 0.5959(8) 0.5907(4) 0.2689(3)
H24_5 H 0.5595 0.5797 0.2858
C35_5 C 0.6805(8) 0.6092(4) 0.3244(3)
C36_5 C 0.6124(8) 0.6071(4) 0.1629(3)
C37_5 C 0.9144(6) 0.5801(3) 0.4569(2)
C38_5 C 0.6308(7) 0.6079(4) 0.2060(3)
C39_5 C 0.8869(6) 0.6019(4) 0.4025(3)
C40_5 C 0.6630(7) 0.6095(3) 0.2829(3)
N11_5 N 0.5973(7) 0.5027(4) 0.3708(3)
H25_5 H 0.6029 0.5273 0.3578
H26_5 H 0.5752 0.4795 0.3608
N12_5 N 0.6609(5) 0.4502(3) 0.4927(2)
H27_4 H 0.6805 0.4609 0.5132
H28_5 H 0.6453 0.4225 0.4920
N13_5 N 0.8949(5) 0.6176(4) 0.3650(2)
H29_5 H 0.8550 0.6222 0.3512
H30_5 H 0.9397 0.6227 0.3558
N14_5 N 0.9569(5) 0.5670(3) 0.4886(2)
H31_5 H 0.9340 0.5568 0.5085
N15_3 N 0.8403(4) 0.5783(3) 0.45451(18)
N16_5 N 0.9481(5) 0.5935(3) 0.4246(2)
N17_5 N 0.8231(4) 0.5936(3) 0.4181(2)
N19_5 N 0.6580(5) 0.5360(3) 0.4238(2)
N20_3 N 0.6774(4) 0.5198(3) 0.46057(18)
O13_5 O 0.6282(6) 0.5932(3) 0.3468(2)
O15_5 O 0.7405(5) 0.6238(4) 0.3359(2)
Cd6_3 Cd 0.79859(4) 0.60061(2) 0.599126(18)
Cd8_4 Cd 0.7500 0.56675(3) 0.5000
O18_3 O 0.6710(7) 0.6721(3) 0.4167(2)
O24_3 O 0.6768(4) 0.6277(2) 0.46682(17)
Cd2_5 Cd 0.2500 0.06675(3) 0.0000
C1_6 C 0.6453(13) 0.2144(5) 0.0123(5)
H1_6 H 0.6569 0.1851 0.0205
C2_6 C 0.6584(16) 0.2504(5) 0.0366(5)
H2_6 H 0.6724 0.2455 0.0617
C3_6 C 0.6498(8) 0.2941(4) 0.0222(3)
C4_6 C 0.6688(8) 0.3347(4) 0.0473(3)
H15_6 H 0.4340 0.0568 0.0085
O1_4 O 0.6710(7) 0.3279(3) 0.0833(2)
O8_4 O 0.6768(4) 0.3723(2) 0.03318(17)
C21_6 C 0.3547(13) 0.2856(5) 0.0123(5)
H17_6 H 0.3431 0.3149 0.0205
C22_6 C 0.3416(16) 0.2496(5) 0.0366(5)
H18_6 H 0.3276 0.2545 0.0617
C23_6 C 0.3502(8) 0.2059(4) 0.0222(3)
C24_6 C 0.3312(8) 0.1653(4) 0.0473(3)
H27_5 H 0.8195 0.5391 0.0132
H31_6 H 0.5660 0.4432 0.0085
O9_4 O 0.3290(7) 0.1721(3) 0.0833(2)
O16_4 O 0.3232(4) 0.1277(2) 0.03318(17)
Cd6_4 Cd 0.70141(4) 0.39939(2) 0.099126(18)
Cd7_4 Cd 0.29859(4) 0.10061(2) 0.099126(18)
Cd8_5 Cd 0.7500 0.43325(3) 0.0000
N21_4 N 0.1597(4) 0.0783(3) 0.04549(18)
N24_4 N 0.3226(4) 0.0198(3) 0.03943(18)
Cd1_4 Cd 0.20141(4) 0.10061(2) 0.900874(18)
Cd2_6 Cd 0.2500 0.06675(3) 1.0000
C5_6 C 0.5984(7) 0.1786(5) 0.9540(4)
C6_6 C 0.6261(6) 0.2991(3) 0.9863(3)
H3_6 H 0.6230 0.3282 0.9762
C7_6 C 0.0819(8) 0.0880(5) 0.7294(3)
H4_6 H 0.0393 0.0727 0.7202
C8_6 C 0.6169(8) 0.2200(4) 0.9779(3)
C9_6 C 0.6062(6) 0.2631(4) 0.9640(3)
H5_6 H 0.5860 0.2676 0.9399
C10_6 C 0.1971(8) 0.1268(5) 0.7192(3)
H6_6 H 0.2320 0.1391 0.7022
C11_6 C 0.1229(6) 0.0007(3) 0.9066(3)
C13_6 C 0.2126(8) 0.1277(5) 0.7579(3)
H7_6 H 0.2575 0.1410 0.7666
C14_6 C 0.0959(8) 0.0907(4) 0.7689(3)
H8_6 H 0.0595 0.0797 0.7858
C15_6 C 0.1805(8) 0.1092(4) 0.8244(3)
C16_6 C 0.1124(8) 0.1071(4) 0.6629(3)
C17_6 C 0.4144(6) 0.0801(3) 0.9569(2)
C18_6 C 0.1308(7) 0.1079(4) 0.7060(3)
C19_6 C 0.3869(6) 0.1019(4) 0.9025(3)
C20_6 C 0.1630(7) 0.1095(3) 0.7829(3)
N1_6 N 0.0973(7) 0.0027(4) 0.8708(3)
H9_6 H 0.1029 0.0273 0.8578
N3_6 N 0.3949(5) 0.1176(4) 0.8650(2)
H13_6 H 0.3550 0.1222 0.8512
H14_6 H 0.4397 0.1227 0.8558
N4_6 N 0.4569(5) 0.0670(3) 0.9886(2)
H16_6 H 0.5059 0.0691 0.9883
N5_6 N 0.3403(4) 0.0783(3) 0.95451(18)
N6_6 N 0.4481(5) 0.0935(3) 0.9246(2)
N7_6 N 0.3231(4) 0.0936(3) 0.9181(2)
N9_6 N 0.1580(5) 0.0360(3) 0.9238(2)
N10_6 N 0.1774(4) 0.0198(3) 0.96057(18)
O2_6 O 0.6122(7) 0.1406(3) 0.9654(3)
O4_6 O 0.5713(5) 0.1848(2) 0.9204(2)
O5_6 O 0.1282(6) 0.0932(3) 0.8468(2)
O7_6 O 0.2405(5) 0.1238(4) 0.8359(2)
Cd4_4 Cd 0.79859(4) 0.39939(2) 0.900874(18)
C25_6 C 0.4016(7) 0.3214(5) 0.9540(4)
C26_6 C 0.3739(6) 0.2009(3) 0.9863(3)
H19_6 H 0.3770 0.1718 0.9762
C27_6 C 0.9181(8) 0.4120(5) 0.7294(3)
H20_6 H 0.9607 0.4273 0.7202
C28_6 C 0.3831(8) 0.2800(4) 0.9779(3)
C29_6 C 0.3938(6) 0.2369(4) 0.9640(3)
H21_6 H 0.4140 0.2324 0.9399
C30_6 C 0.8029(8) 0.3732(5) 0.7192(3)
H22_6 H 0.7680 0.3609 0.7022
C31_6 C 0.8771(6) 0.4993(3) 0.9066(3)
C32_6 C 0.8455(5) 0.5227(3) 0.9610(3)
C33_6 C 0.7874(8) 0.3723(5) 0.7579(3)
H23_6 H 0.7425 0.3590 0.7666
C34_6 C 0.9041(8) 0.4093(4) 0.7689(3)
H24_6 H 0.9405 0.4203 0.7858
C35_6 C 0.8195(8) 0.3908(4) 0.8244(3)
C36_6 C 0.8876(8) 0.3929(4) 0.6629(3)
C37_6 C 0.5856(6) 0.4199(3) 0.9569(2)
C38_6 C 0.8692(7) 0.3921(4) 0.7060(3)
C39_6 C 0.6131(6) 0.3981(4) 0.9025(3)
C40_6 C 0.8370(7) 0.3905(3) 0.7829(3)
N11_6 N 0.9027(7) 0.4973(4) 0.8708(3)
H25_6 H 0.8971 0.4727 0.8578
H26_6 H 0.9248 0.5205 0.8608
N12_6 N 0.8391(5) 0.5498(3) 0.9927(2)
H28_6 H 0.8547 0.5775 0.9920
N13_6 N 0.6051(5) 0.3824(4) 0.8650(2)
H29_6 H 0.6450 0.3778 0.8512
H30_6 H 0.5603 0.3773 0.8558
N14_6 N 0.5431(5) 0.4330(3) 0.9886(2)
H32_6 H 0.4941 0.4309 0.9883
N15_4 N 0.6597(4) 0.4217(3) 0.95451(18)
N16_6 N 0.5519(5) 0.4065(3) 0.9246(2)
N17_6 N 0.6769(4) 0.4064(3) 0.9181(2)
N19_6 N 0.8420(5) 0.4640(3) 0.9238(2)
N20_4 N 0.8226(4) 0.4802(3) 0.96057(18)
O10_6 O 0.3878(7) 0.3594(3) 0.9654(3)
O12_6 O 0.4287(5) 0.3152(2) 0.9204(2)
O13_6 O 0.8718(6) 0.4068(3) 0.8468(2)
O15_6 O 0.7595(5) 0.3762(4) 0.8359(2)
Cd8_6 Cd 0.7500 0.43325(3) 1.0000
O17_4 O 0.1710(7) 0.1721(3) 0.9167(2)
O18_4 O 0.8290(7) 0.3279(3) 0.9167(2)
O23_4 O 0.1768(4) 0.1277(2) 0.96682(17)
O24_4 O 0.8232(4) 0.3723(2) 0.96682(17)
C12_6 C 0.1545(5) 0.9773(3) 0.9610(3)
H10_6 H 0.0752 0.9795 0.8608
N2_6 N 0.1609(5) 0.9502(3) 0.9927(2)
H12_6 H 0.1453 0.9225 0.9920
C5_7 C 0.0984(7) 0.3214(5) 0.0460(4)
C6_7 C 0.1261(6) 0.2009(3) 0.0137(3)
H3_7 H 0.1230 0.1718 0.0238
C8_7 C 0.1169(8) 0.2800(4) 0.0221(3)
C9_7 C 0.1062(6) 0.2369(4) 0.0360(3)
H5_7 H 0.0860 0.2324 0.0601
H16_7 H 0.0059 0.4309 0.0117
O2_7 O 0.1122(7) 0.3594(3) 0.0346(3)
O4_7 O 0.0713(5) 0.3152(2) 0.0796(2)
C27_7 C 0.4181(8) 0.0880(5) 0.2706(3)
H20_7 H 0.4607 0.0727 0.2798
C30_7 C 0.3029(8) 0.1268(5) 0.2808(3)
H22_7 H 0.2680 0.1391 0.2978
C31_7 C 0.3771(6) 0.0007(3) 0.0934(3)
C33_7 C 0.2874(8) 0.1277(5) 0.2421(3)
H23_7 H 0.2425 0.1410 0.2334
C34_7 C 0.4041(8) 0.0907(4) 0.2311(3)
H24_7 H 0.4405 0.0797 0.2142
C35_7 C 0.3195(8) 0.1092(4) 0.1756(3)
C36_7 C 0.3876(8) 0.1071(4) 0.3371(3)
C37_7 C 0.0856(6) 0.0801(3) 0.0431(2)
C38_7 C 0.3692(7) 0.1079(4) 0.2940(3)
C39_7 C 0.1131(6) 0.1019(4) 0.0975(3)
C40_7 C 0.3370(7) 0.1095(3) 0.2171(3)
N11_7 N 0.4027(7) 0.0027(4) 0.1292(3)
H25_7 H 0.3971 0.0273 0.1422
N13_7 N 0.1051(5) 0.1176(4) 0.1350(2)
H29_7 H 0.1450 0.1222 0.1488
H30_7 H 0.0603 0.1227 0.1442
N14_7 N 0.0431(5) 0.0670(3) 0.0114(2)
N16_7 N 0.0519(5) 0.0935(3) 0.0754(2)
N17_7 N 0.1769(4) 0.0936(3) 0.0819(2)
N19_7 N 0.3420(5) 0.0360(3) 0.0762(2)
O13_7 O 0.3718(6) 0.0932(3) 0.1532(2)
O15_7 O 0.2595(5) 0.1238(4) 0.1641(2)
C1_7 C 0.1453(13) 0.2856(5) 0.9877(5)
H1_7 H 0.1569 0.3149 0.9795
C2_7 C 0.1584(16) 0.2496(5) 0.9634(5)
H2_7 H 0.1724 0.2545 0.9383
C3_7 C 0.1498(8) 0.2059(4) 0.9778(3)
C4_7 C 0.1688(8) 0.1653(4) 0.9527(3)
H31_7 H 0.0660 0.0568 0.9915
C32_7 C 0.3455(5) 0.9773(3) 0.0390(3)
H26_7 H 0.4248 0.9795 0.1392
N12_7 N 0.3391(5) 0.9502(3) 0.0073(2)
H28_7 H 0.3547 0.9225 0.0080
C7_7 C 0.5819(8) 0.4120(5) 0.2706(3)
H4_7 H 0.5393 0.4273 0.2798
C10_7 C 0.6971(8) 0.3732(5) 0.2808(3)
H6_7 H 0.7320 0.3609 0.2978
C11_7 C 0.6229(6) 0.4993(3) 0.0934(3)
C12_7 C 0.6545(5) 0.5227(3) 0.0390(3)
C13_7 C 0.7126(8) 0.3723(5) 0.2421(3)
H7_7 H 0.7575 0.3590 0.2334
C14_7 C 0.5959(8) 0.4093(4) 0.2311(3)
H8_7 H 0.5595 0.4203 0.2142
C15_7 C 0.6805(8) 0.3908(4) 0.1756(3)
C16_7 C 0.6124(8) 0.3929(4) 0.3371(3)
C17_7 C 0.9144(6) 0.4199(3) 0.0431(2)
C18_7 C 0.6308(7) 0.3921(4) 0.2940(3)
C19_7 C 0.8869(6) 0.3981(4) 0.0975(3)
C20_7 C 0.6630(7) 0.3905(3) 0.2171(3)
N1_7 N 0.5973(7) 0.4973(4) 0.1292(3)
H9_7 H 0.6029 0.4727 0.1422
H10_7 H 0.5752 0.5205 0.1392
N2_7 N 0.6609(5) 0.5498(3) 0.0073(2)
H12_7 H 0.6453 0.5775 0.0080
N3_7 N 0.8949(5) 0.3824(4) 0.1350(2)
H13_7 H 0.8550 0.3778 0.1488
H14_7 H 0.9397 0.3773 0.1442
N4_7 N 0.9569(5) 0.4330(3) 0.0114(2)
N5_7 N 0.8403(4) 0.4217(3) 0.04549(18)
N6_7 N 0.9481(5) 0.4065(3) 0.0754(2)
N7_7 N 0.8231(4) 0.4064(3) 0.0819(2)
N9_7 N 0.6580(5) 0.4640(3) 0.0762(2)
N10_7 N 0.6774(4) 0.4802(3) 0.03943(18)
O5_7 O 0.6282(6) 0.4068(3) 0.1532(2)
O7_7 O 0.7405(5) 0.3762(4) 0.1641(2)
C25_7 C 0.9016(7) 0.1786(5) 0.0460(4)
C26_7 C 0.8739(6) 0.2991(3) 0.0137(3)
H19_7 H 0.8770 0.3282 0.0238
C28_7 C 0.8831(8) 0.2200(4) 0.0221(3)
C29_7 C 0.8938(6) 0.2631(4) 0.0360(3)
H21_7 H 0.9140 0.2676 0.0601
H32_7 H 0.9941 0.0691 0.0117
O10_7 O 0.8878(7) 0.1406(3) 0.0346(3)
O12_7 O 0.9287(5) 0.1848(2) 0.0796(2)
H11_5 H 0.6805 0.5391 0.9868
H15_7 H 0.9340 0.4432 0.9915
C21_7 C 0.8547(13) 0.2144(5) 0.9877(5)
H17_7 H 0.8431 0.1851 0.9795
C22_7 C 0.8416(16) 0.2504(5) 0.9634(5)
H18_7 H 0.8276 0.2455 0.9383
C23_7 C 0.8502(8) 0.2941(4) 0.9778(3)
C24_7 C 0.8312(8) 0.3347(4) 0.9527(3)
C32_8 C 0.1545(5) 0.0227(3) 0.5390(3)
H26_8 H 0.0752 0.0205 0.6392
N12_8 N 0.1609(5) 0.0498(3) 0.5073(2)
H27_6 H 0.1805 0.0391 0.4868
H28_8 H 0.1453 0.0775 0.5080
C1_8 C 0.3547(13) 0.7144(5) 0.4877(5)
H1_8 H 0.3431 0.6851 0.4795
C2_8 C 0.3416(16) 0.7504(5) 0.4634(5)
H2_8 H 0.3276 0.7455 0.4383
C3_8 C 0.3502(8) 0.7941(4) 0.4778(3)
C4_8 C 0.3312(8) 0.8347(4) 0.4527(3)
C5_8 C 0.4016(7) 0.6786(5) 0.5460(4)
C6_8 C 0.3739(6) 0.7991(3) 0.5137(3)
H3_8 H 0.3770 0.8282 0.5238
C7_8 C 0.9181(8) 0.5880(5) 0.7706(3)
H4_8 H 0.9607 0.5727 0.7798
C8_8 C 0.3831(8) 0.7200(4) 0.5221(3)
C9_8 C 0.3938(6) 0.7631(4) 0.5360(3)
H5_8 H 0.4140 0.7676 0.5601
C10_8 C 0.8029(8) 0.6268(5) 0.7808(3)
H6_8 H 0.7680 0.6391 0.7978
C11_8 C 0.8771(6) 0.5007(3) 0.5934(3)
C12_8 C 0.8455(5) 0.4773(3) 0.5390(3)
C13_8 C 0.7874(8) 0.6277(5) 0.7421(3)
H7_8 H 0.7425 0.6410 0.7334
C14_8 C 0.9041(8) 0.5907(4) 0.7311(3)
H8_8 H 0.9405 0.5797 0.7142
C15_8 C 0.8195(8) 0.6092(4) 0.6756(3)
C16_8 C 0.8876(8) 0.6071(4) 0.8371(3)
C17_8 C 0.5856(6) 0.5801(3) 0.5431(2)
C18_8 C 0.8692(7) 0.6079(4) 0.7940(3)
C19_8 C 0.6131(6) 0.6019(4) 0.5975(3)
C20_8 C 0.8370(7) 0.6095(3) 0.7171(3)
N1_8 N 0.9027(7) 0.5027(4) 0.6292(3)
H9_8 H 0.8971 0.5273 0.6422
H10_8 H 0.9248 0.4795 0.6392
N2_8 N 0.8391(5) 0.4502(3) 0.5073(2)
H11_6 H 0.8195 0.4609 0.4868
H12_8 H 0.8547 0.4225 0.5080
N3_8 N 0.6051(5) 0.6176(4) 0.6350(2)
H13_8 H 0.6450 0.6222 0.6488
H14_8 H 0.5603 0.6227 0.6442
N4_8 N 0.5431(5) 0.5670(3) 0.5114(2)
H15_8 H 0.5660 0.5568 0.4915
H16_8 H 0.4941 0.5691 0.5117
N5_8 N 0.6597(4) 0.5783(3) 0.54549(18)
N6_8 N 0.5519(5) 0.5935(3) 0.5754(2)
N7_8 N 0.6769(4) 0.5936(3) 0.5819(2)
N9_8 N 0.8420(5) 0.5360(3) 0.5762(2)
N10_8 N 0.8226(4) 0.5198(3) 0.53943(18)
O2_8 O 0.3878(7) 0.6406(3) 0.5346(3)
O4_8 O 0.4287(5) 0.6848(2) 0.5796(2)
O5_8 O 0.8718(6) 0.5932(3) 0.6532(2)
O7_8 O 0.7595(5) 0.6238(4) 0.6641(2)
C21_8 C 0.6453(13) 0.7856(5) 0.4877(5)
H17_8 H 0.6569 0.8149 0.4795
C22_8 C 0.6584(16) 0.7496(5) 0.4634(5)
H18_8 H 0.6724 0.7545 0.4383
C23_8 C 0.6498(8) 0.7059(4) 0.4778(3)
C24_8 C 0.6688(8) 0.6653(4) 0.4527(3)
C25_8 C 0.5984(7) 0.8214(5) 0.5460(4)
C26_8 C 0.6261(6) 0.7009(3) 0.5137(3)
H19_8 H 0.6230 0.6718 0.5238
C27_8 C 0.0819(8) 0.9120(5) 0.7706(3)
H20_8 H 0.0393 0.9273 0.7798
C28_8 C 0.6169(8) 0.7800(4) 0.5221(3)
C29_8 C 0.6062(6) 0.7369(4) 0.5360(3)
H21_8 H 0.5860 0.7324 0.5601
C30_8 C 0.1971(8) 0.8732(5) 0.7808(3)
H22_8 H 0.2320 0.8609 0.7978
C31_8 C 0.1229(6) 0.9993(3) 0.5934(3)
C33_8 C 0.2126(8) 0.8723(5) 0.7421(3)
H23_8 H 0.2575 0.8590 0.7334
C34_8 C 0.0959(8) 0.9093(4) 0.7311(3)
H24_8 H 0.0595 0.9203 0.7142
C35_8 C 0.1805(8) 0.8908(4) 0.6756(3)
C36_8 C 0.1124(8) 0.8929(4) 0.8371(3)
C37_8 C 0.4144(6) 0.9199(3) 0.5431(2)
C38_8 C 0.1308(7) 0.8921(4) 0.7940(3)
C39_8 C 0.3869(6) 0.8981(4) 0.5975(3)
C40_8 C 0.1630(7) 0.8905(3) 0.7171(3)
N11_8 N 0.0973(7) 0.9973(4) 0.6292(3)
H25_8 H 0.1029 0.9727 0.6422
N13_8 N 0.3949(5) 0.8824(4) 0.6350(2)
H29_8 H 0.3550 0.8778 0.6488
H30_8 H 0.4397 0.8773 0.6442
N14_8 N 0.4569(5) 0.9330(3) 0.5114(2)
H31_8 H 0.4340 0.9432 0.4915
H32_8 H 0.5059 0.9309 0.5117
N16_8 N 0.4481(5) 0.9065(3) 0.5754(2)
N17_8 N 0.3231(4) 0.9064(3) 0.5819(2)
N19_8 N 0.1580(5) 0.9640(3) 0.5762(2)
O10_8 O 0.6122(7) 0.8594(3) 0.5346(3)
O12_8 O 0.5713(5) 0.8152(2) 0.5796(2)
O13_8 O 0.1282(6) 0.9068(3) 0.6532(2)
O15_8 O 0.2405(5) 0.8762(4) 0.6641(2)
H11_7 H 0.8195 0.0391 0.9868
H27_7 H 0.6805 0.0391 0.0132
H11_8 H 0.1805 0.9609 0.0132
H27_8 H 0.3195 0.9609 0.9868
loop_
_geom_bond_atom_site_label_1
_geom_bond_atom_site_label_2
_geom_bond_site_symmetry_1
_geom_bond_site_symmetry_2
C1 H1 1_555 1_555
C2 C1 1_555 1_555
H2 C2 1_555 1_555
C3 C2 1_555 1_555
C4 C3 1_555 1_555
C5 C8 1_555 1_555
C6 C3 1_555 1_555
H3 C6 1_555 1_555
C8 C1 1_555 1_555
C9 C6 1_555 1_555
H5 C9 1_555 1_555
O1 C4 1_555 1_555
O2 Cd3 1_555 1_555
O4 Cd3 1_555 1_555
O8 C4 1_555 1_555
Cd4 N17 1_555 1_555
C27 H20 1_555 1_555
C30 H22 1_555 1_555
C31 N11 1_555 1_555
C32 N12 1_555 1_555
C33 C30 1_555 1_555
H23 C33 1_555 1_555
C34 C27 1_555 1_555
H24 C34 1_555 1_555
C35 C40 1_555 1_555
C36 C38 1_555 1_555
C37 N14 1_555 1_555
C38 C27 1_555 1_555
C39 N13 1_555 1_555
C40 C33 1_555 1_555
N11 H25 1_555 1_555
H26 N11 1_555 1_555
N12 H27 1_555 1_555
H28 N12 1_555 1_555
N13 H29 1_555 1_555
H30 N13 1_555 1_555
N14 H31 1_555 1_555
N15 C37 1_555 1_555
N16 C37 1_555 1_555
N17 C39 1_555 1_555
N18 C31 1_555 1_555
N19 Cd4 1_555 1_555
N20 C32 1_555 1_555
O11 C36 1_555 1_555
O13 Cd4 1_555 1_555
O14 C36 1_555 1_555
O15 Cd4 1_555 1_555
Cd6 O1 1_555 1_555
Cd8 O8 1_555 1_555
Cd10 N18 1_555 1_555
Cd11 O11 1_555 1_555
N23 Cd3 1_555 1_555
O18 Cd4 1_555 1_555
O19 Cd3 1_555 1_555
O21 Cd3 1_555 1_555
O24 Cd4 1_555 1_555
C5 O2 1_555 1_555
C5 O4 1_555 1_555
C8 C9 1_555 1_555
O8 Cd6 1_555 1_555
C30 C38 1_555 1_555
C31 N19 1_555 1_555
C32 N18 1_555 1_555
C34 C40 1_555 1_555
C35 O13 1_555 1_555
C35 O15 1_555 1_555
C39 N16 1_555 1_555
N15 N17 1_555 1_555
N15 Cd8 1_555 1_555
N19 N20 1_555 1_555
N20 Cd8 1_555 1_555
O14 Cd11 1_555 1_555
Cd8 O24 1_555 1_555
Cd1 N7 1_555 1_555
Cd2 N5 1_555 1_555
C7 H4 1_555 1_555
C10 H6 1_555 1_555
C11 N1 1_555 1_555
C13 C10 1_555 1_555
H7 C13 1_555 1_555
C14 C7 1_555 1_555
H8 C14 1_555 1_555
C15 C20 1_555 1_555
C16 C18 1_555 1_555
C17 N4 1_555 1_555
C18 C7 1_555 1_555
C19 N3 1_555 1_555
C20 C13 1_555 1_555
N1 H9 1_555 1_555
N3 H13 1_555 1_555
H14 N3 1_555 1_555
N4 H15 1_555 1_555
N5 C17 1_555 1_555
N6 C17 1_555 1_555
N7 C19 1_555 1_555
N9 Cd1 1_555 1_555
N10 Cd2 1_555 1_555
O3 C16 1_555 1_555
O5 Cd1 1_555 1_555
O6 C16 1_555 1_555
O7 Cd1 1_555 1_555
C21 H17 1_555 1_555
C22 C21 1_555 1_555
H18 C22 1_555 1_555
C23 C22 1_555 1_555
C24 C23 1_555 1_555
C25 C28 1_555 1_555
C26 C23 1_555 1_555
H19 C26 1_555 1_555
C28 C21 1_555 1_555
C29 C26 1_555 1_555
H21 C29 1_555 1_555
O9 C24 1_555 1_555
O10 Cd5 1_555 1_555
O12 Cd5 1_555 1_555
O16 Cd2 1_555 1_555
Cd7 O9 1_555 1_555
Cd9 O3 1_555 1_555
N21 Cd2 1_555 1_555
N22 Cd5 1_555 1_555
N24 Cd2 1_555 1_555
O17 Cd1 1_555 1_555
O20 Cd5 1_555 1_555
O22 Cd5 1_555 1_555
O23 Cd1 1_555 1_555
Cd2 O23 1_555 1_555
C10 C18 1_555 1_555
C11 N9 1_555 1_555
C14 C20 1_555 1_555
C15 O5 1_555 1_555
C15 O7 1_555 1_555
C19 N6 1_555 1_555
N5 N7 1_555 1_555
N9 N10 1_555 1_555
O6 Cd9 1_555 1_555
C24 O16 1_555 1_555
C25 O10 1_555 1_555
C25 O12 1_555 1_555
C28 C29 1_555 1_555
O16 Cd7 1_555 1_555
C12 N2 1_555 1_555
N2 H11 1_555 1_555
H12 N2 1_555 1_555
Cd12 N8 1_555 1_555
C12 N8 1_555 1_555
C12_2 N2_2 1_555 1_555
H12_2 N2_2 1_555 1_555
Cd12_2 N8_2 1_555 1_555
C12_2 N8_2 1_555 1_555
Cd1_2 N7_2 1_555 1_555
Cd2_2 N5_2 1_555 1_555
Cd3_2 N6_2 1_555 1_555
C5_2 C8_2 1_555 1_555
H3_2 C6_2 1_555 1_555
C7_2 H4_2 1_555 1_555
C9_2 C6_2 1_555 1_555
H5_2 C9_2 1_555 1_555
C10_2 H6_2 1_555 1_555
C11_2 N1_2 1_555 1_555
C13_2 C10_2 1_555 1_555
H7_2 C13_2 1_555 1_555
C14_2 C7_2 1_555 1_555
H8_2 C14_2 1_555 1_555
C15_2 C20_2 1_555 1_555
C16_2 C18_2 1_555 1_555
C17_2 N4_2 1_555 1_555
C18_2 C7_2 1_555 1_555
C19_2 N3_2 1_555 1_555
C20_2 C13_2 1_555 1_555
N1_2 H9_2 1_555 1_555
N3_2 H13_2 1_555 1_555
H14_2 N3_2 1_555 1_555
H16_2 N4_2 1_555 1_555
N5_2 C17_2 1_555 1_555
N6_2 C17_2 1_555 1_555
N7_2 C19_2 1_555 1_555
N9_2 Cd1_2 1_555 1_555
N10_2 Cd2_2 1_555 1_555
O2_2 Cd3_2 1_555 1_555
O3_2 C16_2 1_555 1_555
O4_2 Cd3_2 1_555 1_555
O5_2 Cd1_2 1_555 1_555
O6_2 C16_2 1_555 1_555
O7_2 Cd1_2 1_555 1_555
Cd4_2 N17_2 1_555 1_555
Cd5_2 N16_2 1_555 1_555
C25_2 C28_2 1_555 1_555
H19_2 C26_2 1_555 1_555
C27_2 H20_2 1_555 1_555
C29_2 C26_2 1_555 1_555
H21_2 C29_2 1_555 1_555
C30_2 H22_2 1_555 1_555
C31_2 N11_2 1_555 1_555
C32_2 N12_2 1_555 1_555
C33_2 C30_2 1_555 1_555
H23_2 C33_2 1_555 1_555
C34_2 C27_2 1_555 1_555
H24_2 C34_2 1_555 1_555
C35_2 C40_2 1_555 1_555
C36_2 C38_2 1_555 1_555
C37_2 N14_2 1_555 1_555
C38_2 C27_2 1_555 1_555
C39_2 N13_2 1_555 1_555
C40_2 C33_2 1_555 1_555
N11_2 H25_2 1_555 1_555
H26_2 N11_2 1_555 1_555
H28_2 N12_2 1_555 1_555
N13_2 H29_2 1_555 1_555
H30_2 N13_2 1_555 1_555
H32_2 N14_2 1_555 1_555
N15_2 C37_2 1_555 1_555
N16_2 C37_2 1_555 1_555
N17_2 C39_2 1_555 1_555
N18_2 C31_2 1_555 1_555
N19_2 Cd4_2 1_555 1_555
N20_2 C32_2 1_555 1_555
O10_2 Cd5_2 1_555 1_555
O11_2 C36_2 1_555 1_555
O12_2 Cd5_2 1_555 1_555
O13_2 Cd4_2 1_555 1_555
O14_2 C36_2 1_555 1_555
O15_2 Cd4_2 1_555 1_555
Cd9_2 O3_2 1_555 1_555
Cd10_2 N18_2 1_555 1_555
Cd11_2 O11_2 1_555 1_555
N22_2 Cd5_2 1_555 1_555
N23_2 Cd3_2 1_555 1_555
O17_2 Cd1_2 1_555 1_555
O18_2 Cd4_2 1_555 1_555
O19_2 Cd3_2 1_555 1_555
O20_2 Cd5_2 1_555 1_555
O21_2 Cd3_2 1_555 1_555
O22_2 Cd5_2 1_555 1_555
O23_2 Cd1_2 1_555 1_555
O24_2 Cd4_2 1_555 1_555
Cd2_2 O23_2 1_555 1_555
C5_2 O2_2 1_555 1_555
C5_2 O4_2 1_555 1_555
C8_2 C9_2 1_555 1_555
C10_2 C18_2 1_555 1_555
C11_2 N9_2 1_555 1_555
C14_2 C20_2 1_555 1_555
C15_2 O5_2 1_555 1_555
C15_2 O7_2 1_555 1_555
C19_2 N6_2 1_555 1_555
N5_2 N7_2 1_555 1_555
N9_2 N10_2 1_555 1_555
O6_2 Cd9_2 1_555 1_555
C25_2 O10_2 1_555 1_555
C25_2 O12_2 1_555 1_555
C28_2 C29_2 1_555 1_555
C30_2 C38_2 1_555 1_555
C31_2 N19_2 1_555 1_555
C32_2 N18_2 1_555 1_555
C34_2 C40_2 1_555 1_555
C35_2 O13_2 1_555 1_555
C35_2 O15_2 1_555 1_555
C39_2 N16_2 1_555 1_555
N15_2 N17_2 1_555 1_555
N15_2 Cd8_2 1_555 1_555
N19_2 N20_2 1_555 1_555
N20_2 Cd8_2 1_555 1_555
O14_2 Cd11_2 1_555 1_555
Cd8_2 O24_2 1_555 1_555
C1_2 H1_2 1_555 1_555
C2_2 C1_2 1_555 1_555
H2_2 C2_2 1_555 1_555
C3_2 C2_2 1_555 1_555
C4_2 C3_2 1_555 1_555
O1_2 C4_2 1_555 1_555
O8_2 C4_2 1_555 1_555
C21_2 H17_2 1_555 1_555
C22_2 C21_2 1_555 1_555
H18_2 C22_2 1_555 1_555
C23_2 C22_2 1_555 1_555
C24_2 C23_2 1_555 1_555
O9_2 C24_2 1_555 1_555
O16_2 Cd2_3 1_555 1_555
Cd6_2 O1_2 1_555 1_555
Cd7_2 O9_2 1_555 1_555
Cd8_3 O8_2 1_555 1_555
N21_2 Cd2_3 1_555 1_555
N24_2 Cd2_3 1_555 1_555
O8_2 Cd6_2 1_555 1_555
C24_2 O16_2 1_555 1_555
O16_2 Cd7_2 1_555 1_555
C21_3 H17_3 1_555 1_555
C22_3 C21_3 1_555 1_555
H18_3 C22_3 1_555 1_555
C23_3 C22_3 1_555 1_555
C24_3 C23_3 1_555 1_555
O18_2 C24_3 1_555 1_555
C24_3 O24_2 1_555 1_555
Cd6_2 N7_3 1_555 1_555
Cd8_3 N5_3 1_555 1_555
C7_3 H4_3 1_555 1_555
C10_3 H6_3 1_555 1_555
C11_3 N1_3 1_555 1_555
C12_3 N2_3 1_555 1_555
C13_3 C10_3 1_555 1_555
H7_3 C13_3 1_555 1_555
C14_3 C7_3 1_555 1_555
H8_3 C14_3 1_555 1_555
C15_3 C20_3 1_555 1_555
C16_3 C18_3 1_555 1_555
C17_3 N4_3 1_555 1_555
C18_3 C7_3 1_555 1_555
C19_3 N3_3 1_555 1_555
C20_3 C13_3 1_555 1_555
N1_3 H9_3 1_555 1_555
H10_3 N1_3 1_555 1_555
H12_3 N2_3 1_555 1_555
N3_3 H13_3 1_555 1_555
H14_3 N3_3 1_555 1_555
N5_3 C17_3 1_555 1_555
N6_3 C17_3 1_555 1_555
N7_3 C19_3 1_555 1_555
N8_3 C11_3 1_555 1_555
N9_3 Cd6_2 1_555 1_555
N10_3 Cd8_3 1_555 1_555
O3_3 C16_3 1_555 1_555
O5_3 Cd6_2 1_555 1_555
O6_3 C16_3 1_555 1_555
O7_3 Cd6_2 1_555 1_555
C25_3 C28_3 1_555 1_555
H19_3 C26_3 1_555 1_555
C29_3 C26_3 1_555 1_555
H21_3 C29_3 1_555 1_555
O10_3 Cd5_3 1_555 1_555
O12_3 Cd5_3 1_555 1_555
Cd10 O3_3 1_555 1_555
Cd11 N8_3 1_555 1_555
N22_3 Cd5_3 1_555 1_555
O20_3 Cd5_3 1_555 1_555
O22_3 Cd5_3 1_555 1_555
C10_3 C18_3 1_555 1_555
C11_3 N9_3 1_555 1_555
C12_3 N8_3 1_555 1_555
C12_3 N10_3 1_555 1_555
C14_3 C20_3 1_555 1_555
C15_3 O5_3 1_555 1_555
C15_3 O7_3 1_555 1_555
C19_3 N6_3 1_555 1_555
N5_3 N7_3 1_555 1_555
N9_3 N10_3 1_555 1_555
O6_3 Cd10 1_555 1_555
C25_3 O10_3 1_555 1_555
C25_3 O12_3 1_555 1_555
C28_3 C29_3 1_555 1_555
C32_3 N12_3 1_555 1_555
H28_3 N12_3 1_555 1_555
Cd9 N18_3 1_555 1_555
C32_3 N18_3 1_555 1_555
C1_3 H1_3 1_555 1_555
C2_3 C1_3 1_555 1_555
H2_3 C2_3 1_555 1_555
C3_3 C2_3 1_555 1_555
C4_3 C3_3 1_555 1_555
O17_2 C4_3 1_555 1_555
O23_2 C4_3 1_555 1_555
C5_3 C8_3 1_555 1_555
H3_3 C6_3 1_555 1_555
C9_3 C6_3 1_555 1_555
H5_3 C9_3 1_555 1_555
O2_3 Cd3_3 1_555 1_555
O4_3 Cd3_3 1_555 1_555
Cd7_2 N17_3 1_555 1_555
C27_3 H20_3 1_555 1_555
C30_3 H22_3 1_555 1_555
C31_3 N11_3 1_555 1_555
C33_3 C30_3 1_555 1_555
H23_3 C33_3 1_555 1_555
C34_3 C27_3 1_555 1_555
H24_3 C34_3 1_555 1_555
C35_3 C40_3 1_555 1_555
C36_3 C38_3 1_555 1_555
C37_3 N14_3 1_555 1_555
C38_3 C27_3 1_555 1_555
C39_3 N13_3 1_555 1_555
C40_3 C33_3 1_555 1_555
N11_3 H25_3 1_555 1_555
N13_3 H29_3 1_555 1_555
H30_3 N13_3 1_555 1_555
N21_2 C37_3 1_555 1_555
N16_3 C37_3 1_555 1_555
N17_3 C39_3 1_555 1_555
N19_3 Cd7_2 1_555 1_555
O11_3 C36_3 1_555 1_555
O13_3 Cd7_2 1_555 1_555
O14_3 C36_3 1_555 1_555
O15_3 Cd7_2 1_555 1_555
Cd12 O11_3 1_555 1_555
N23_3 Cd3_3 1_555 1_555
O19_3 Cd3_3 1_555 1_555
O21_3 Cd3_3 1_555 1_555
C5_3 O2_3 1_555 1_555
C5_3 O4_3 1_555 1_555
C8_3 C9_3 1_555 1_555
C30_3 C38_3 1_555 1_555
C31_3 N19_3 1_555 1_555
C34_3 C40_3 1_555 1_555
C35_3 O13_3 1_555 1_555
C35_3 O15_3 1_555 1_555
C39_3 N16_3 1_555 1_555
N21_2 N17_3 1_555 1_555
N19_3 N24_2 1_555 1_555
O14_3 Cd12 1_555 1_555
Cd6 N7_4 1_555 1_555
Cd8 N5_4 1_555 1_555
Cd3_4 N6_4 1_555 1_555
C1_4 H1_4 1_555 1_555
C2_4 C1_4 1_555 1_555
H2_4 C2_4 1_555 1_555
C3_4 C2_4 1_555 1_555
C4_4 C3_4 1_555 1_555
C5_4 C8_4 1_555 1_555
C6_4 C3_4 1_555 1_555
H3_4 C6_4 1_555 1_555
C7_4 H4_4 1_555 1_555
C8_4 C1_4 1_555 1_555
C9_4 C6_4 1_555 1_555
H5_4 C9_4 1_555 1_555
C10_4 H6_4 1_555 1_555
C11_4 N1_4 1_555 1_555
C12_4 N2_4 1_555 1_555
C13_4 C10_4 1_555 1_555
H7_4 C13_4 1_555 1_555
C14_4 C7_4 1_555 1_555
H8_4 C14_4 1_555 1_555
C15_4 C20_4 1_555 1_555
C16_4 C18_4 1_555 1_555
C17_4 N4_4 1_555 1_555
C18_4 C7_4 1_555 1_555
C19_4 N3_4 1_555 1_555
C20_4 C13_4 1_555 1_555
N1_4 H9_4 1_555 1_555
H10_4 N1_4 1_555 1_555
N2_4 H11_3 1_555 1_555
H12_4 N2_4 1_555 1_555
N3_4 H13_4 1_555 1_555
H14_4 N3_4 1_555 1_555
N4_4 H15_4 1_555 1_555
H16_4 N4_4 1_555 1_555
N5_4 C17_4 1_555 1_555
N6_4 C17_4 1_555 1_555
N7_4 C19_4 1_555 1_555
N8_4 C11_4 1_555 1_555
N9_4 Cd6 1_555 1_555
N10_4 Cd8 1_555 1_555
O17 C4_4 1_555 1_555
O2_4 Cd3_4 1_555 1_555
O3_4 C16_4 1_555 1_555
O4_4 Cd3_4 1_555 1_555
O5_4 Cd6 1_555 1_555
O6_4 C16_4 1_555 1_555
O7_4 Cd6 1_555 1_555
O23 C4_4 1_555 1_555
Cd7 N17_4 1_555 1_555
Cd5_4 N16_4 1_555 1_555
C21_4 H17_4 1_555 1_555
C22_4 C21_4 1_555 1_555
H18_4 C22_4 1_555 1_555
C23_4 C22_4 1_555 1_555
C24_4 C23_4 1_555 1_555
C25_4 C28_4 1_555 1_555
C26_4 C23_4 1_555 1_555
H19_4 C26_4 1_555 1_555
C27_4 H20_4 1_555 1_555
C28_4 C21_4 1_555 1_555
C29_4 C26_4 1_555 1_555
H21_4 C29_4 1_555 1_555
C30_4 H22_4 1_555 1_555
C31_4 N11_4 1_555 1_555
C33_4 C30_4 1_555 1_555
H23_4 C33_4 1_555 1_555
C34_4 C27_4 1_555 1_555
H24_4 C34_4 1_555 1_555
C35_4 C40_4 1_555 1_555
C36_4 C38_4 1_555 1_555
C37_4 N14_4 1_555 1_555
C38_4 C27_4 1_555 1_555
C39_4 N13_4 1_555 1_555
C40_4 C33_4 1_555 1_555
N11_4 H25_4 1_555 1_555
N13_4 H29_4 1_555 1_555
H30_4 N13_4 1_555 1_555
N14_4 H31_4 1_555 1_555
H32_4 N14_4 1_555 1_555
N21 C37_4 1_555 1_555
N16_4 C37_4 1_555 1_555
N17_4 C39_4 1_555 1_555
N19_4 Cd7 1_555 1_555
O18 C24_4 1_555 1_555
O10_4 Cd5_4 1_555 1_555
O11_4 C36_4 1_555 1_555
O12_4 Cd5_4 1_555 1_555
O13_4 Cd7 1_555 1_555
O14_4 C36_4 1_555 1_555
O15_4 Cd7 1_555 1_555
Cd10_2 O3_4 1_555 1_555
Cd12_2 O11_4 1_555 1_555
Cd11_2 N8_4 1_555 1_555
N22_4 Cd5_4 1_555 1_555
N23_4 Cd3_4 1_555 1_555
O19_4 Cd3_4 1_555 1_555
O20_4 Cd5_4 1_555 1_555
O21_4 Cd3_4 1_555 1_555
O22_4 Cd5_4 1_555 1_555
C5_4 O2_4 1_555 1_555
C5_4 O4_4 1_555 1_555
C8_4 C9_4 1_555 1_555
C10_4 C18_4 1_555 1_555
C11_4 N9_4 1_555 1_555
C12_4 N8_4 1_555 1_555
C12_4 N10_4 1_555 1_555
C14_4 C20_4 1_555 1_555
C15_4 O5_4 1_555 1_555
C15_4 O7_4 1_555 1_555
C19_4 N6_4 1_555 1_555
N5_4 N7_4 1_555 1_555
N9_4 N10_4 1_555 1_555
O6_4 Cd10_2 1_555 1_555
C24_4 O24 1_555 1_555
C25_4 O10_4 1_555 1_555
C25_4 O12_4 1_555 1_555
C28_4 C29_4 1_555 1_555
C30_4 C38_4 1_555 1_555
C31_4 N19_4 1_555 1_555
C34_4 C40_4 1_555 1_555
C35_4 O13_4 1_555 1_555
C35_4 O15_4 1_555 1_555
C39_4 N16_4 1_555 1_555
N21 N17_4 1_555 1_555
N19_4 N24 1_555 1_555
O14_4 Cd12_2 1_555 1_555
C32_4 N12_4 1_555 1_555
N12_4 H27_3 1_555 1_555
H28_4 N12_4 1_555 1_555
Cd9_2 N18_4 1_555 1_555
C32_4 N18_4 1_555 1_555
C12_5 N2_5 1_555 1_555
N2_5 H11_4 1_555 1_555
H12_5 N2_5 1_555 1_555
C12_5 N22_4 1_555 1_555
Cd1_3 N7_5 1_555 1_555
Cd2_4 N5_5 1_555 1_555
C7_5 H4_5 1_555 1_555
C10_5 H6_5 1_555 1_555
C11_5 N1_5 1_555 1_555
C13_5 C10_5 1_555 1_555
H7_5 C13_5 1_555 1_555
C14_5 C7_5 1_555 1_555
H8_5 C14_5 1_555 1_555
C15_5 C20_5 1_555 1_555
C16_5 C18_5 1_555 1_555
C17_5 N4_5 1_555 1_555
C18_5 C7_5 1_555 1_555
C19_5 N3_5 1_555 1_555
C20_5 C13_5 1_555 1_555
N1_5 H9_5 1_555 1_555
N3_5 H13_5 1_555 1_555
H14_5 N3_5 1_555 1_555
N4_5 H15_5 1_555 1_555
N5_5 C17_5 1_555 1_555
N6_5 C17_5 1_555 1_555
N7_5 C19_5 1_555 1_555
N9_5 Cd1_3 1_555 1_555
N10_5 Cd2_4 1_555 1_555
O19_2 C16_5 1_555 1_555
O5_5 Cd1_3 1_555 1_555
O21_2 C16_5 1_555 1_555
O7_5 Cd1_3 1_555 1_555
C21_5 H17_5 1_555 1_555
C22_5 C21_5 1_555 1_555
H18_5 C22_5 1_555 1_555
C23_5 C22_5 1_555 1_555
C24_5 C23_5 1_555 1_555
C25_5 C28_5 1_555 1_555
C26_5 C23_5 1_555 1_555
H19_5 C26_5 1_555 1_555
C28_5 C21_5 1_555 1_555
C29_5 C26_5 1_555 1_555
H21_5 C29_5 1_555 1_555
O9_3 C24_5 1_555 1_555
O10_5 Cd11_2 1_555 1_555
O12_5 Cd11_2 1_555 1_555
O16_3 Cd2_4 1_555 1_555
Cd7_3 O9_3 1_555 1_555
N21_3 Cd2_4 1_555 1_555
N24_3 Cd2_4 1_555 1_555
O17_3 Cd1_3 1_555 1_555
O23_3 Cd1_3 1_555 1_555
Cd2_4 O23_3 1_555 1_555
C10_5 C18_5 1_555 1_555
C11_5 N9_5 1_555 1_555
C14_5 C20_5 1_555 1_555
C15_5 O5_5 1_555 1_555
C15_5 O7_5 1_555 1_555
C19_5 N6_5 1_555 1_555
N5_5 N7_5 1_555 1_555
N9_5 N10_5 1_555 1_555
C24_5 O16_3 1_555 1_555
C25_5 O10_5 1_555 1_555
C25_5 O12_5 1_555 1_555
C28_5 C29_5 1_555 1_555
O16_3 Cd7_3 1_555 1_555
C1_5 H1_5 1_555 1_555
C2_5 C1_5 1_555 1_555
H2_5 C2_5 1_555 1_555
C3_5 C2_5 1_555 1_555
C4_5 C3_5 1_555 1_555
C5_5 C8_5 1_555 1_555
C6_5 C3_5 1_555 1_555
H3_5 C6_5 1_555 1_555
C8_5 C1_5 1_555 1_555
C9_5 C6_5 1_555 1_555
H5_5 C9_5 1_555 1_555
O1_3 C4_5 1_555 1_555
O2_5 Cd9_2 1_555 1_555
O4_5 Cd9_2 1_555 1_555
O8_3 C4_5 1_555 1_555
Cd4_3 N17_5 1_555 1_555
C27_5 H20_5 1_555 1_555
C30_5 H22_5 1_555 1_555
C31_5 N11_5 1_555 1_555
C32_5 N12_5 1_555 1_555
C33_5 C30_5 1_555 1_555
H23_5 C33_5 1_555 1_555
C34_5 C27_5 1_555 1_555
H24_5 C34_5 1_555 1_555
C35_5 C40_5 1_555 1_555
C36_5 C38_5 1_555 1_555
C37_5 N14_5 1_555 1_555
C38_5 C27_5 1_555 1_555
C39_5 N13_5 1_555 1_555
C40_5 C33_5 1_555 1_555
N11_5 H25_5 1_555 1_555
H26_5 N11_5 1_555 1_555
N12_5 H27_4 1_555 1_555
H28_5 N12_5 1_555 1_555
N13_5 H29_5 1_555 1_555
H30_5 N13_5 1_555 1_555
N14_5 H31_5 1_555 1_555
N15_3 C37_5 1_555 1_555
N16_5 C37_5 1_555 1_555
N17_5 C39_5 1_555 1_555
N23_4 C31_5 1_555 1_555
N19_5 Cd4_3 1_555 1_555
N20_3 C32_5 1_555 1_555
O20_2 C36_5 1_555 1_555
O13_5 Cd4_3 1_555 1_555
O22_2 C36_5 1_555 1_555
O15_5 Cd4_3 1_555 1_555
Cd6_3 O1_3 1_555 1_555
Cd8_4 O8_3 1_555 1_555
O18_3 Cd4_3 1_555 1_555
O24_3 Cd4_3 1_555 1_555
C5_5 O2_5 1_555 1_555
C5_5 O4_5 1_555 1_555
C8_5 C9_5 1_555 1_555
O8_3 Cd6_3 1_555 1_555
C30_5 C38_5 1_555 1_555
C31_5 N19_5 1_555 1_555
C32_5 N23_4 1_555 1_555
C34_5 C40_5 1_555 1_555
C35_5 O13_5 1_555 1_555
C35_5 O15_5 1_555 1_555
C39_5 N16_5 1_555 1_555
N15_3 N17_5 1_555 1_555
N15_3 Cd8_4 1_555 1_555
N19_5 N20_3 1_555 1_555
N20_3 Cd8_4 1_555 1_555
Cd8_4 O24_3 1_555 1_555
C1_6 H1_6 1_555 1_555
C2_6 C1_6 1_555 1_555
H2_6 C2_6 1_555 1_555
C3_6 C2_6 1_555 1_555
C4_6 C3_6 1_555 1_555
O1_4 C4_6 1_555 1_555
O8_4 C4_6 1_555 1_555
C21_6 H17_6 1_555 1_555
C22_6 C21_6 1_555 1_555
H18_6 C22_6 1_555 1_555
C23_6 C22_6 1_555 1_555
C24_6 C23_6 1_555 1_555
O9_4 C24_6 1_555 1_555
O16_4 Cd2_5 1_555 1_555
Cd6_4 O1_4 1_555 1_555
Cd7_4 O9_4 1_555 1_555
Cd8_5 O8_4 1_555 1_555
N21_4 Cd2_5 1_555 1_555
N24_4 Cd2_5 1_555 1_555
O8_4 Cd6_4 1_555 1_555
C24_6 O16_4 1_555 1_555
O16_4 Cd7_4 1_555 1_555
Cd1_4 N7_6 1_555 1_555
Cd2_6 N5_6 1_555 1_555
Cd9 N6_6 1_555 1_555
C5_6 C8_6 1_555 1_555
H3_6 C6_6 1_555 1_555
C7_6 H4_6 1_555 1_555
C9_6 C6_6 1_555 1_555
H5_6 C9_6 1_555 1_555
C10_6 H6_6 1_555 1_555
C11_6 N1_6 1_555 1_555
C13_6 C10_6 1_555 1_555
H7_6 C13_6 1_555 1_555
C14_6 C7_6 1_555 1_555
H8_6 C14_6 1_555 1_555
C15_6 C20_6 1_555 1_555
C16_6 C18_6 1_555 1_555
C17_6 N4_6 1_555 1_555
C18_6 C7_6 1_555 1_555
C19_6 N3_6 1_555 1_555
C20_6 C13_6 1_555 1_555
N1_6 H9_6 1_555 1_555
N3_6 H13_6 1_555 1_555
H14_6 N3_6 1_555 1_555
H16_6 N4_6 1_555 1_555
N5_6 C17_6 1_555 1_555
N6_6 C17_6 1_555 1_555
N7_6 C19_6 1_555 1_555
N9_6 Cd1_4 1_555 1_555
N10_6 Cd2_6 1_555 1_555
O2_6 Cd9 1_555 1_555
O19 C16_6 1_555 1_555
O4_6 Cd9 1_555 1_555
O5_6 Cd1_4 1_555 1_555
O21 C16_6 1_555 1_555
O7_6 Cd1_4 1_555 1_555
Cd4_4 N17_6 1_555 1_555
Cd11 N16_6 1_555 1_555
C25_6 C28_6 1_555 1_555
H19_6 C26_6 1_555 1_555
C27_6 H20_6 1_555 1_555
C29_6 C26_6 1_555 1_555
H21_6 C29_6 1_555 1_555
C30_6 H22_6 1_555 1_555
C31_6 N11_6 1_555 1_555
C32_6 N12_6 1_555 1_555
C33_6 C30_6 1_555 1_555
H23_6 C33_6 1_555 1_555
C34_6 C27_6 1_555 1_555
H24_6 C34_6 1_555 1_555
C35_6 C40_6 1_555 1_555
C36_6 C38_6 1_555 1_555
C37_6 N14_6 1_555 1_555
C38_6 C27_6 1_555 1_555
C39_6 N13_6 1_555 1_555
C40_6 C33_6 1_555 1_555
N11_6 H25_6 1_555 1_555
H26_6 N11_6 1_555 1_555
H28_6 N12_6 1_555 1_555
N13_6 H29_6 1_555 1_555
H30_6 N13_6 1_555 1_555
H32_6 N14_6 1_555 1_555
N15_4 C37_6 1_555 1_555
N16_6 C37_6 1_555 1_555
N17_6 C39_6 1_555 1_555
N23_3 C31_6 1_555 1_555
N19_6 Cd4_4 1_555 1_555
N20_4 C32_6 1_555 1_555
O10_6 Cd11 1_555 1_555
O20 C36_6 1_555 1_555
O12_6 Cd11 1_555 1_555
O13_6 Cd4_4 1_555 1_555
O22 C36_6 1_555 1_555
O15_6 Cd4_4 1_555 1_555
O17_4 Cd1_4 1_555 1_555
O18_4 Cd4_4 1_555 1_555
O23_4 Cd1_4 1_555 1_555
O24_4 Cd4_4 1_555 1_555
Cd2_6 O23_4 1_555 1_555
C5_6 O2_6 1_555 1_555
C5_6 O4_6 1_555 1_555
C8_6 C9_6 1_555 1_555
C10_6 C18_6 1_555 1_555
C11_6 N9_6 1_555 1_555
C14_6 C20_6 1_555 1_555
C15_6 O5_6 1_555 1_555
C15_6 O7_6 1_555 1_555
C19_6 N6_6 1_555 1_555
N5_6 N7_6 1_555 1_555
N9_6 N10_6 1_555 1_555
C25_6 O10_6 1_555 1_555
C25_6 O12_6 1_555 1_555
C28_6 C29_6 1_555 1_555
C30_6 C38_6 1_555 1_555
C31_6 N19_6 1_555 1_555
C32_6 N23_3 1_555 1_555
C34_6 C40_6 1_555 1_555
C35_6 O13_6 1_555 1_555
C35_6 O15_6 1_555 1_555
C39_6 N16_6 1_555 1_555
N15_4 N17_6 1_555 1_555
N15_4 Cd8_6 1_555 1_555
N19_6 N20_4 1_555 1_555
N20_4 Cd8_6 1_555 1_555
Cd8_6 O24_4 1_555 1_555
C12_6 N2_6 1_555 1_555
H12_6 N2_6 1_555 1_555
C12_6 N22_3 1_555 1_555
C5_7 C8_7 1_555 1_555
H3_7 C6_7 1_555 1_555
C9_7 C6_7 1_555 1_555
H5_7 C9_7 1_555 1_555
O2_7 Cd10_2 1_555 1_555
O4_7 Cd10_2 1_555 1_555
Cd7_4 N17_7 1_555 1_555
C27_7 H20_7 1_555 1_555
C30_7 H22_7 1_555 1_555
C31_7 N11_7 1_555 1_555
C33_7 C30_7 1_555 1_555
H23_7 C33_7 1_555 1_555
C34_7 C27_7 1_555 1_555
H24_7 C34_7 1_555 1_555
C35_7 C40_7 1_555 1_555
C36_7 C38_7 1_555 1_555
C37_7 N14_7 1_555 1_555
C38_7 C27_7 1_555 1_555
C39_7 N13_7 1_555 1_555
C40_7 C33_7 1_555 1_555
N11_7 H25_7 1_555 1_555
N13_7 H29_7 1_555 1_555
H30_7 N13_7 1_555 1_555
N21_4 C37_7 1_555 1_555
N16_7 C37_7 1_555 1_555
N17_7 C39_7 1_555 1_555
N19_7 Cd7_4 1_555 1_555
O20_4 C36_7 1_555 1_555
O13_7 Cd7_4 1_555 1_555
O22_4 C36_7 1_555 1_555
O15_7 Cd7_4 1_555 1_555
C5_7 O2_7 1_555 1_555
C5_7 O4_7 1_555 1_555
C8_7 C9_7 1_555 1_555
C30_7 C38_7 1_555 1_555
C31_7 N19_7 1_555 1_555
C34_7 C40_7 1_555 1_555
C35_7 O13_7 1_555 1_555
C35_7 O15_7 1_555 1_555
C39_7 N16_7 1_555 1_555
N21_4 N17_7 1_555 1_555
N19_7 N24_4 1_555 1_555
C1_7 H1_7 1_555 1_555
C2_7 C1_7 1_555 1_555
H2_7 C2_7 1_555 1_555
C3_7 C2_7 1_555 1_555
C4_7 C3_7 1_555 1_555
O17_4 C4_7 1_555 1_555
O23_4 C4_7 1_555 1_555
C32_7 N12_7 1_555 1_555
H28_7 N12_7 1_555 1_555
C32_7 N23_2 1_555 1_555
Cd6_4 N7_7 1_555 1_555
Cd8_5 N5_7 1_555 1_555
C7_7 H4_7 1_555 1_555
C10_7 H6_7 1_555 1_555
C11_7 N1_7 1_555 1_555
C12_7 N2_7 1_555 1_555
C13_7 C10_7 1_555 1_555
H7_7 C13_7 1_555 1_555
C14_7 C7_7 1_555 1_555
H8_7 C14_7 1_555 1_555
C15_7 C20_7 1_555 1_555
C16_7 C18_7 1_555 1_555
C17_7 N4_7 1_555 1_555
C18_7 C7_7 1_555 1_555
C19_7 N3_7 1_555 1_555
C20_7 C13_7 1_555 1_555
N1_7 H9_7 1_555 1_555
H10_7 N1_7 1_555 1_555
H12_7 N2_7 1_555 1_555
N3_7 H13_7 1_555 1_555
H14_7 N3_7 1_555 1_555
N5_7 C17_7 1_555 1_555
N6_7 C17_7 1_555 1_555
N7_7 C19_7 1_555 1_555
N22_2 C11_7 1_555 1_555
N9_7 Cd6_4 1_555 1_555
N10_7 Cd8_5 1_555 1_555
O19_4 C16_7 1_555 1_555
O5_7 Cd6_4 1_555 1_555
O21_4 C16_7 1_555 1_555
O7_7 Cd6_4 1_555 1_555
C25_7 C28_7 1_555 1_555
H19_7 C26_7 1_555 1_555
C29_7 C26_7 1_555 1_555
H21_7 C29_7 1_555 1_555
O10_7 Cd12_2 1_555 1_555
O12_7 Cd12_2 1_555 1_555
C10_7 C18_7 1_555 1_555
C11_7 N9_7 1_555 1_555
C12_7 N22_2 1_555 1_555
C12_7 N10_7 1_555 1_555
C14_7 C20_7 1_555 1_555
C15_7 O5_7 1_555 1_555
C15_7 O7_7 1_555 1_555
C19_7 N6_7 1_555 1_555
N5_7 N7_7 1_555 1_555
N9_7 N10_7 1_555 1_555
C25_7 O10_7 1_555 1_555
C25_7 O12_7 1_555 1_555
C28_7 C29_7 1_555 1_555
C21_7 H17_7 1_555 1_555
C22_7 C21_7 1_555 1_555
H18_7 C22_7 1_555 1_555
C23_7 C22_7 1_555 1_555
C24_7 C23_7 1_555 1_555
O18_4 C24_7 1_555 1_555
C24_7 O24_4 1_555 1_555
C32_8 N12_8 1_555 1_555
N12_8 H27_6 1_555 1_555
H28_8 N12_8 1_555 1_555
C32_8 N23 1_555 1_555
Cd6_3 N7_8 1_555 1_555
Cd8_4 N5_8 1_555 1_555
Cd10 N6_8 1_555 1_555
C1_8 H1_8 1_555 1_555
C2_8 C1_8 1_555 1_555
H2_8 C2_8 1_555 1_555
C3_8 C2_8 1_555 1_555
C4_8 C3_8 1_555 1_555
C5_8 C8_8 1_555 1_555
C6_8 C3_8 1_555 1_555
H3_8 C6_8 1_555 1_555
C7_8 H4_8 1_555 1_555
C8_8 C1_8 1_555 1_555
C9_8 C6_8 1_555 1_555
H5_8 C9_8 1_555 1_555
C10_8 H6_8 1_555 1_555
C11_8 N1_8 1_555 1_555
C12_8 N2_8 1_555 1_555
C13_8 C10_8 1_555 1_555
H7_8 C13_8 1_555 1_555
C14_8 C7_8 1_555 1_555
H8_8 C14_8 1_555 1_555
C15_8 C20_8 1_555 1_555
C16_8 C18_8 1_555 1_555
C17_8 N4_8 1_555 1_555
C18_8 C7_8 1_555 1_555
C19_8 N3_8 1_555 1_555
C20_8 C13_8 1_555 1_555
N1_8 H9_8 1_555 1_555
H10_8 N1_8 1_555 1_555
N2_8 H11_6 1_555 1_555
H12_8 N2_8 1_555 1_555
N3_8 H13_8 1_555 1_555
H14_8 N3_8 1_555 1_555
N4_8 H15_8 1_555 1_555
H16_8 N4_8 1_555 1_555
N5_8 C17_8 1_555 1_555
N6_8 C17_8 1_555 1_555
N7_8 C19_8 1_555 1_555
N22 C11_8 1_555 1_555
N9_8 Cd6_3 1_555 1_555
N10_8 Cd8_4 1_555 1_555
O17_3 C4_8 1_555 1_555
O2_8 Cd10 1_555 1_555
O19_3 C16_8 1_555 1_555
O4_8 Cd10 1_555 1_555
O5_8 Cd6_3 1_555 1_555
O21_3 C16_8 1_555 1_555
O7_8 Cd6_3 1_555 1_555
O23_3 C4_8 1_555 1_555
Cd7_3 N17_8 1_555 1_555
Cd12 N16_8 1_555 1_555
C21_8 H17_8 1_555 1_555
C22_8 C21_8 1_555 1_555
H18_8 C22_8 1_555 1_555
C23_8 C22_8 1_555 1_555
C24_8 C23_8 1_555 1_555
C25_8 C28_8 1_555 1_555
C26_8 C23_8 1_555 1_555
H19_8 C26_8 1_555 1_555
C27_8 H20_8 1_555 1_555
C28_8 C21_8 1_555 1_555
C29_8 C26_8 1_555 1_555
H21_8 C29_8 1_555 1_555
C30_8 H22_8 1_555 1_555
C31_8 N11_8 1_555 1_555
C33_8 C30_8 1_555 1_555
H23_8 C33_8 1_555 1_555
C34_8 C27_8 1_555 1_555
H24_8 C34_8 1_555 1_555
C35_8 C40_8 1_555 1_555
C36_8 C38_8 1_555 1_555
C37_8 N14_8 1_555 1_555
C38_8 C27_8 1_555 1_555
C39_8 N13_8 1_555 1_555
C40_8 C33_8 1_555 1_555
N11_8 H25_8 1_555 1_555
N13_8 H29_8 1_555 1_555
H30_8 N13_8 1_555 1_555
N14_8 H31_8 1_555 1_555
H32_8 N14_8 1_555 1_555
N21_3 C37_8 1_555 1_555
N16_8 C37_8 1_555 1_555
N17_8 C39_8 1_555 1_555
N19_8 Cd7_3 1_555 1_555
O18_3 C24_8 1_555 1_555
O10_8 Cd12 1_555 1_555
O20_3 C36_8 1_555 1_555
O12_8 Cd12 1_555 1_555
O13_8 Cd7_3 1_555 1_555
O22_3 C36_8 1_555 1_555
O15_8 Cd7_3 1_555 1_555
C5_8 O2_8 1_555 1_555
C5_8 O4_8 1_555 1_555
C8_8 C9_8 1_555 1_555
C10_8 C18_8 1_555 1_555
C11_8 N9_8 1_555 1_555
C12_8 N22 1_555 1_555
C12_8 N10_8 1_555 1_555
C14_8 C20_8 1_555 1_555
C15_8 O5_8 1_555 1_555
C15_8 O7_8 1_555 1_555
C19_8 N6_8 1_555 1_555
N5_8 N7_8 1_555 1_555
N9_8 N10_8 1_555 1_555
C24_8 O24_3 1_555 1_555
C25_8 O10_8 1_555 1_555
C25_8 O12_8 1_555 1_555
C28_8 C29_8 1_555 1_555
C30_8 C38_8 1_555 1_555
C31_8 N19_8 1_555 1_555
C34_8 C40_8 1_555 1_555
C35_8 O13_8 1_555 1_555
C35_8 O15_8 1_555 1_555
C39_8 N16_8 1_555 1_555
N21_3 N17_8 1_555 1_555
N19_8 N24_3 1_555 1_555

#END
