
###############################################################################
#
# This file contains modified crystal structure data generated from the
# MOF subset of the Cambridge Structural Database (CSD) v543 
# hosted by the Cambridge Crystallographic Data Centre (CCDC).
#
# This work is licensed under the Creative Commons
# Attribution-NonCommercial-ShareAlike 4.0 International License.
# To view a copy of this license, visit
# http://creativecommons.org/licenses/by-nc-sa/4.0/
# or send a letter to
# Creative Commons, PO Box 1866, Mountain View, CA 94042, USA.
#
# CIF created using the CSD Python API on 29 September 2022
# The structure has been converted into the P1 space group
# The structure has a 3D framework
# The original CSD entry IBUBIT is in the orthorhombic crystal system
# The framework has been calculated to contain at least 10.0% void space
# The void calculation uses a probe of radius 1.32A, grid spacing 0.4
#
###############################################################################

data_IBUBIT
_chemical_formula_moiety         '(C216 H120 N48 O88 Zn29)n'
_symmetry_cell_setting           triclinic
_symmetry_space_group_name_H-M   'P 1'
_symmetry_Int_Tables_number      1
_space_group_name_Hall           'P 1'
loop_
_symmetry_equiv_pos_site_id
_symmetry_equiv_pos_as_xyz
1 x,y,z
_cell_length_a                   9.4770(8)
_cell_length_b                   34.800(3)
_cell_length_c                   25.010(2)
_cell_angle_alpha                90
_cell_angle_beta                 90
_cell_angle_gamma                90
_cell_volume                     8248.29
loop_
_atom_site_label
_atom_site_type_symbol
_atom_site_fract_x
_atom_site_fract_y
_atom_site_fract_z
Zn2 Zn 0.0000 0.09144(3) 0.40838(5)
Zn3 Zn 0.0000 0.0000 0.0000
O1 O 0.0000 0.0174(3) 0.3721(4)
C2 C 0.0000 0.0218(4) 0.2784(6)
O4 O 0.0000 0.0745(3) 0.3335(3)
O5 O 0.0000 0.1483(3) 0.3998(5)
C8 C 0.0000 0.0381(4) 0.3323(6)
C9 C 0.0000 0.0235(4) 0.1826(6)
H4 H 0.0000 0.0391 0.1524
C10 C 0.0000 0.0409(4) 0.2319(7)
H5 H 0.0000 0.0676 0.2331
O6 O 0.0000 0.1560(4) 0.4833(6)
C11 C 0.0000 0.2110(5) 0.4239(9)
C13 C 0.0000 0.2302(4) 0.4722(8)
H7 H 0.0000 0.2166 0.5042
C14 C 0.0000 0.2296(4) 0.3753(8)
H8 H 0.0000 0.2159 0.3434
C15 C 0.0000 0.1683(6) 0.4345(10)
O8 O 0.0000 0.3517(3) 0.3998(5)
O9 O 0.0000 0.3440(4) 0.4833(6)
C18 C 0.0000 0.2890(5) 0.4239(9)
C19 C 0.0000 0.2698(4) 0.4722(8)
H10 H 0.0000 0.2834 0.5042
C20 C 0.0000 0.2704(4) 0.3753(8)
H11 H 0.0000 0.2841 0.3434
C21 C 0.0000 0.3317(6) 0.4345(10)
Zn6 Zn 0.0000 0.40856(3) 0.40838(5)
N14 N 0.1665(7) 0.07513(18) 0.4494(2)
N17 N 0.1571(9) 0.04151(16) 0.0155(3)
Zn3_2 Zn 0.0000 0.0000 1.0000
O17 O 0.0000 0.0141(2) 0.9156(3)
Zn1 Zn 0.0000 0.90543(3) 0.05524(5)
Zn3_3 Zn 0.0000 1.0000 0.0000
N1 N 0.1554(8) 0.92291(17) 0.0081(2)
O2 O 0.0000 0.9302(2) 0.1240(3)
O3 O 0.0000 0.9859(2) 0.0844(3)
C3 C 0.0000 0.9662(4) 0.1241(6)
C4 C 0.0000 0.9852(3) 0.1756(6)
C5 C 0.0000 0.8315(6) 0.0682(9)
C7 C 0.0000 0.9659(4) 0.2224(7)
H3 H 0.0000 0.9392 0.2211
C12 C 0.0000 0.9833(5) 0.2722(6)
H6 H 0.0000 0.9678 0.3025
C16 C 0.0000 0.7886(5) 0.0678(8)
O10 O 0.1062(14) 0.8486(2) 0.0673(4)
C22 C 0.1250(19) 0.7700(3) 0.0670(5)
H12 H 0.2094 0.7837 0.0665
C23 C 0.0000 0.6685(6) 0.0682(9)
C24 C -0.0000 0.7114(5) 0.0678(8)
O12 O 0.1062(14) 0.6514(2) 0.0673(4)
C26 C 0.1250(19) 0.7300(3) 0.0670(5)
H14 H 0.2094 0.7163 0.0665
Zn4 Zn -0.0000 0.59457(3) 0.05524(5)
O13 O 0.0000 0.4826(3) 0.3721(4)
O14 O 0.0000 0.5698(2) 0.1240(3)
O15 O -0.0000 0.5141(2) 0.0844(3)
C28 C 0.0000 0.4782(4) 0.2784(6)
O16 O 0.0000 0.4255(3) 0.3335(3)
C29 C -0.0000 0.5338(4) 0.1241(6)
C30 C 0.0000 0.5148(3) 0.1756(6)
C32 C 0.0000 0.5341(4) 0.2224(7)
H17 H 0.0000 0.5608 0.2211
C33 C 0.0000 0.4619(4) 0.3323(6)
C34 C 0.0000 0.4765(4) 0.1826(6)
H18 H 0.0000 0.4609 0.1524
C35 C 0.0000 0.4591(4) 0.2319(7)
H19 H -0.0000 0.4324 0.2331
C36 C 0.0000 0.5167(5) 0.2722(6)
H20 H 0.0000 0.5322 0.3025
N10 N 0.1554(8) 0.57709(17) 0.0081(2)
Zn11 Zn 0.0000 0.5000 0.0000
N15 N 0.1665(7) 0.42487(18) 0.4494(2)
Zn3_4 Zn 0.0000 1.0000 1.0000
N2 N 0.3335(7) 0.92487(18) 0.9494(2)
C1 C 0.2626(11) 0.9039(2) 0.9863(3)
H1 H 0.2865 0.8788 0.9954
N3 N 0.1571(9) 0.95849(16) 0.9845(3)
C6 C 0.2609(10) 0.9579(2) 0.9504(3)
H2 H 0.2829 0.9787 0.9286
N11 N 0.3335(7) 0.57513(18) 0.9494(2)
C39 C 0.2626(11) 0.5961(2) 0.9863(3)
H23 H 0.2865 0.6212 0.9954
N12 N 0.1571(9) 0.54151(16) 0.9845(3)
C40 C 0.2609(10) 0.5421(2) 0.9504(3)
H24 H 0.2829 0.5213 0.9286
Zn8 Zn 0.5000 0.59144(3) 0.90838(5)
Zn10 Zn 0.5000 0.90856(3) 0.90838(5)
Zn11_2 Zn 0.0000 0.5000 1.0000
Zn2_2 Zn 1.0000 0.09144(3) 0.40838(5)
Zn3_5 Zn 1.0000 0.0000 0.0000
O1_2 O 1.0000 0.0174(3) 0.3721(4)
C2_2 C 1.0000 0.0218(4) 0.2784(6)
O4_2 O 1.0000 0.0745(3) 0.3335(3)
O5_2 O 1.0000 0.1483(3) 0.3998(5)
C8_2 C 1.0000 0.0381(4) 0.3323(6)
C9_2 C 1.0000 0.0235(4) 0.1826(6)
H4_2 H 1.0000 0.0391 0.1524
C10_2 C 1.0000 0.0409(4) 0.2319(7)
H5_2 H 1.0000 0.0676 0.2331
O6_2 O 1.0000 0.1560(4) 0.4833(6)
C11_2 C 1.0000 0.2110(5) 0.4239(9)
C13_2 C 1.0000 0.2302(4) 0.4722(8)
H7_2 H 1.0000 0.2166 0.5042
C14_2 C 1.0000 0.2296(4) 0.3753(8)
H8_2 H 1.0000 0.2159 0.3434
C15_2 C 1.0000 0.1683(6) 0.4345(10)
O8_2 O 1.0000 0.3517(3) 0.3998(5)
O9_2 O 1.0000 0.3440(4) 0.4833(6)
C18_2 C 1.0000 0.2890(5) 0.4239(9)
C19_2 C 1.0000 0.2698(4) 0.4722(8)
H10_2 H 1.0000 0.2834 0.5042
C20_2 C 1.0000 0.2704(4) 0.3753(8)
H11_2 H 1.0000 0.2841 0.3434
C21_2 C 1.0000 0.3317(6) 0.4345(10)
Zn6_2 Zn 1.0000 0.40856(3) 0.40838(5)
N16 N 0.8335(7) 0.07513(18) 0.4494(2)
N18 N 0.8429(9) 0.04151(16) 0.0155(3)
Zn3_6 Zn 1.0000 0.0000 1.0000
O17_2 O 1.0000 0.0141(2) 0.9156(3)
Zn1_2 Zn 1.0000 0.90543(3) 0.05524(5)
Zn3_7 Zn 1.0000 1.0000 0.0000
O2_2 O 1.0000 0.9302(2) 0.1240(3)
O3_2 O 1.0000 0.9859(2) 0.0844(3)
C3_2 C 1.0000 0.9662(4) 0.1241(6)
C4_2 C 1.0000 0.9852(3) 0.1756(6)
C5_2 C 1.0000 0.8315(6) 0.0682(9)
C7_2 C 1.0000 0.9659(4) 0.2224(7)
H3_2 H 1.0000 0.9392 0.2211
C12_2 C 1.0000 0.9833(5) 0.2722(6)
H6_2 H 1.0000 0.9678 0.3025
C16_2 C 1.0000 0.7886(5) 0.0678(8)
O7 O 0.8938(14) 0.8486(2) 0.0673(4)
C17 C 0.8750(19) 0.7700(3) 0.0670(5)
H9 H 0.7906 0.7837 0.0665
C23_2 C 1.0000 0.6685(6) 0.0682(9)
C24_2 C 1.0000 0.7114(5) 0.0678(8)
O11 O 0.8938(14) 0.6514(2) 0.0673(4)
C25 C 0.8750(19) 0.7300(3) 0.0670(5)
H13 H 0.7906 0.7163 0.0665
Zn4_2 Zn 1.0000 0.59457(3) 0.05524(5)
O13_2 O 1.0000 0.4826(3) 0.3721(4)
N4 N 0.8446(8) 0.57709(17) 0.0081(2)
O14_2 O 1.0000 0.5698(2) 0.1240(3)
O15_2 O 1.0000 0.5141(2) 0.0844(3)
C28_2 C 1.0000 0.4782(4) 0.2784(6)
O16_2 O 1.0000 0.4255(3) 0.3335(3)
C29_2 C 1.0000 0.5338(4) 0.1241(6)
C30_2 C 1.0000 0.5148(3) 0.1756(6)
C32_2 C 1.0000 0.5341(4) 0.2224(7)
H17_2 H 1.0000 0.5608 0.2211
C33_2 C 1.0000 0.4619(4) 0.3323(6)
C34_2 C 1.0000 0.4765(4) 0.1826(6)
H18_2 H 1.0000 0.4609 0.1524
C35_2 C 1.0000 0.4591(4) 0.2319(7)
H19_2 H 1.0000 0.4324 0.2331
C36_2 C 1.0000 0.5167(5) 0.2722(6)
H20_2 H 1.0000 0.5322 0.3025
N7 N 0.8446(8) 0.92291(17) 0.0081(2)
Zn11_3 Zn 1.0000 0.5000 0.0000
N13 N 0.8335(7) 0.42487(18) 0.4494(2)
Zn3_8 Zn 1.0000 1.0000 1.0000
N5 N 0.6665(7) 0.57513(18) 0.9494(2)
C27 C 0.7374(11) 0.5961(2) 0.9863(3)
H15 H 0.7135 0.6212 0.9954
N6 N 0.8429(9) 0.54151(16) 0.9845(3)
C31 C 0.7391(10) 0.5421(2) 0.9504(3)
H16 H 0.7171 0.5213 0.9286
N8 N 0.6665(7) 0.92487(18) 0.9494(2)
C37 C 0.7374(11) 0.9039(2) 0.9863(3)
H21 H 0.7135 0.8788 0.9954
N9 N 0.8429(9) 0.95849(16) 0.9845(3)
C38 C 0.7391(10) 0.9579(2) 0.9504(3)
H22 H 0.7171 0.9787 0.9286
Zn11_4 Zn 1.0000 0.5000 1.0000
N18_2 N 0.1571(9) 0.45849(16) 0.0155(3)
O17_3 O 0.0000 0.4859(2) 0.9156(3)
N17_2 N 0.8429(9) 0.45849(16) 0.0155(3)
O17_4 O 1.0000 0.4859(2) 0.9156(3)
N2_2 N 0.3335(7) 0.07513(18) 0.0506(2)
C1_2 C 0.2626(11) 0.0961(2) 0.0137(3)
H1_2 H 0.2865 0.1212 0.0046
C6_2 C 0.2609(10) 0.0421(2) 0.0496(3)
H2_2 H 0.2829 0.0213 0.0714
N11_2 N 0.3335(7) 0.42487(18) 0.0506(2)
C39_2 C 0.2626(11) 0.4039(2) 0.0137(3)
H23_2 H 0.2865 0.3788 0.0046
C40_2 C 0.2609(10) 0.4579(2) 0.0496(3)
H24_2 H 0.2829 0.4787 0.0714
Zn8_2 Zn 0.5000 0.40856(3) 0.09162(5)
Zn10_2 Zn 0.5000 0.09144(3) 0.09162(5)
Zn1_3 Zn 0.0000 0.09457(3) 0.94476(5)
N1_2 N 0.1554(8) 0.07709(17) 0.9919(2)
O2_3 O 0.0000 0.0698(2) 0.8760(3)
C3_3 C 0.0000 0.0338(4) 0.8759(6)
C4_3 C 0.0000 0.0148(3) 0.8244(6)
C5_3 C -0.0000 0.1685(6) 0.9318(9)
C7_3 C 0.0000 0.0341(4) 0.7776(7)
H3_3 H 0.0000 0.0608 0.7789
C12_3 C 0.0000 0.0167(5) 0.7278(6)
H6_3 H 0.0000 0.0322 0.6975
C16_3 C 0.0000 0.2114(5) 0.9322(8)
O10_2 O 0.1062(14) 0.1514(2) 0.9327(4)
C22_2 C 0.1250(19) 0.2300(3) 0.9330(5)
H12_2 H 0.2094 0.2163 0.9335
C23_3 C -0.0000 0.3315(6) 0.9318(9)
C24_3 C 0.0000 0.2886(5) 0.9322(8)
O12_2 O 0.1062(14) 0.3486(2) 0.9327(4)
C26_2 C 0.1250(19) 0.2700(3) 0.9330(5)
H14_2 H 0.2094 0.2837 0.9335
Zn4_3 Zn 0.0000 0.40543(3) 0.94476(5)
Zn5 Zn 0.0000 0.59144(3) 0.59162(5)
O13_3 O 0.0000 0.5174(3) 0.6279(4)
O14_3 O 0.0000 0.4302(2) 0.8760(3)
C28_3 C 0.0000 0.5218(4) 0.7216(6)
O16_3 O 0.0000 0.5745(3) 0.6665(3)
C29_3 C 0.0000 0.4662(4) 0.8759(6)
C30_3 C 0.0000 0.4852(3) 0.8244(6)
C32_3 C 0.0000 0.4659(4) 0.7776(7)
H17_3 H 0.0000 0.4392 0.7789
C33_3 C 0.0000 0.5381(4) 0.6677(6)
C34_3 C 0.0000 0.5235(4) 0.8174(6)
H18_3 H 0.0000 0.5391 0.8476
C35_3 C 0.0000 0.5409(4) 0.7681(7)
H19_3 H 0.0000 0.5676 0.7669
C36_3 C 0.0000 0.4833(5) 0.7278(6)
H20_3 H 0.0000 0.4678 0.6975
N10_2 N 0.1554(8) 0.42291(17) 0.9919(2)
N15_2 N 0.1665(7) 0.57513(18) 0.5506(2)
O18 O 0.0000 0.6483(3) 0.6002(5)
Zn2_3 Zn 0.0000 0.90856(3) 0.59162(5)
O1_3 O 0.0000 0.9826(3) 0.6279(4)
C2_3 C 0.0000 0.9782(4) 0.7216(6)
O4_3 O 0.0000 0.9255(3) 0.6665(3)
O5_3 O 0.0000 0.8517(3) 0.6002(5)
C8_3 C 0.0000 0.9619(4) 0.6677(6)
C9_3 C 0.0000 0.9765(4) 0.8174(6)
H4_3 H 0.0000 0.9609 0.8476
C10_3 C 0.0000 0.9591(4) 0.7681(7)
H5_3 H 0.0000 0.9324 0.7669
O6_3 O 0.0000 0.8440(4) 0.5167(6)
C11_3 C 0.0000 0.7890(5) 0.5761(9)
C13_3 C 0.0000 0.7698(4) 0.5278(8)
H7_3 H 0.0000 0.7834 0.4958
C14_3 C 0.0000 0.7704(4) 0.6247(8)
H8_3 H 0.0000 0.7841 0.6566
C15_3 C 0.0000 0.8317(6) 0.5655(10)
O9_3 O 0.0000 0.6560(4) 0.5167(6)
C18_3 C 0.0000 0.7110(5) 0.5761(9)
C19_3 C 0.0000 0.7302(4) 0.5278(8)
H10_3 H 0.0000 0.7166 0.4958
C20_3 C 0.0000 0.7296(4) 0.6247(8)
H11_3 H 0.0000 0.7159 0.6566
C21_3 C 0.0000 0.6683(6) 0.5655(10)
N14_2 N 0.1665(7) 0.92487(18) 0.5506(2)
N5_2 N 0.6665(7) 0.42487(18) 0.0506(2)
C27_2 C 0.7374(11) 0.4039(2) 0.0137(3)
H15_2 H 0.7135 0.3788 0.0046
C31_2 C 0.7391(10) 0.4579(2) 0.0496(3)
H16_2 H 0.7171 0.4787 0.0714
N8_2 N 0.6665(7) 0.07513(18) 0.0506(2)
C37_2 C 0.7374(11) 0.0961(2) 0.0137(3)
H21_2 H 0.7135 0.1212 0.0046
C38_2 C 0.7391(10) 0.0421(2) 0.0496(3)
H22_2 H 0.7171 0.0213 0.0714
Zn1_4 Zn 1.0000 0.09457(3) 0.94476(5)
O2_4 O 1.0000 0.0698(2) 0.8760(3)
C3_4 C 1.0000 0.0338(4) 0.8759(6)
C4_4 C 1.0000 0.0148(3) 0.8244(6)
C5_4 C 1.0000 0.1685(6) 0.9318(9)
C7_4 C 1.0000 0.0341(4) 0.7776(7)
H3_4 H 1.0000 0.0608 0.7789
C12_4 C 1.0000 0.0167(5) 0.7278(6)
H6_4 H 1.0000 0.0322 0.6975
C16_4 C 1.0000 0.2114(5) 0.9322(8)
O7_2 O 0.8938(14) 0.1514(2) 0.9327(4)
C17_2 C 0.8750(19) 0.2300(3) 0.9330(5)
H9_2 H 0.7906 0.2163 0.9335
C23_4 C 1.0000 0.3315(6) 0.9318(9)
C24_4 C 1.0000 0.2886(5) 0.9322(8)
O11_2 O 0.8938(14) 0.3486(2) 0.9327(4)
C25_2 C 0.8750(19) 0.2700(3) 0.9330(5)
H13_2 H 0.7906 0.2837 0.9335
Zn4_4 Zn 1.0000 0.40543(3) 0.94476(5)
Zn5_2 Zn 1.0000 0.59144(3) 0.59162(5)
O13_4 O 1.0000 0.5174(3) 0.6279(4)
N4_2 N 0.8446(8) 0.42291(17) 0.9919(2)
O14_4 O 1.0000 0.4302(2) 0.8760(3)
C28_4 C 1.0000 0.5218(4) 0.7216(6)
O16_4 O 1.0000 0.5745(3) 0.6665(3)
C29_4 C 1.0000 0.4662(4) 0.8759(6)
C30_4 C 1.0000 0.4852(3) 0.8244(6)
C32_4 C 1.0000 0.4659(4) 0.7776(7)
H17_4 H 1.0000 0.4392 0.7789
C33_4 C 1.0000 0.5381(4) 0.6677(6)
C34_4 C 1.0000 0.5235(4) 0.8174(6)
H18_4 H 1.0000 0.5391 0.8476
C35_4 C 1.0000 0.5409(4) 0.7681(7)
H19_4 H 1.0000 0.5676 0.7669
C36_4 C 1.0000 0.4833(5) 0.7278(6)
H20_4 H 1.0000 0.4678 0.6975
N7_2 N 0.8446(8) 0.07709(17) 0.9919(2)
N13_2 N 0.8335(7) 0.57513(18) 0.5506(2)
O18_2 O 1.0000 0.6483(3) 0.6002(5)
Zn2_4 Zn 1.0000 0.90856(3) 0.59162(5)
O1_4 O 1.0000 0.9826(3) 0.6279(4)
C2_4 C 1.0000 0.9782(4) 0.7216(6)
O4_4 O 1.0000 0.9255(3) 0.6665(3)
O5_4 O 1.0000 0.8517(3) 0.6002(5)
C8_4 C 1.0000 0.9619(4) 0.6677(6)
C9_4 C 1.0000 0.9765(4) 0.8174(6)
H4_4 H 1.0000 0.9609 0.8476
C10_4 C 1.0000 0.9591(4) 0.7681(7)
H5_4 H 1.0000 0.9324 0.7669
O6_4 O 1.0000 0.8440(4) 0.5167(6)
C11_4 C 1.0000 0.7890(5) 0.5761(9)
C13_4 C 1.0000 0.7698(4) 0.5278(8)
H7_4 H 1.0000 0.7834 0.4958
C14_4 C 1.0000 0.7704(4) 0.6247(8)
H8_4 H 1.0000 0.7841 0.6566
C15_4 C 1.0000 0.8317(6) 0.5655(10)
O9_4 O 1.0000 0.6560(4) 0.5167(6)
C18_4 C 1.0000 0.7110(5) 0.5761(9)
C19_4 C 1.0000 0.7302(4) 0.5278(8)
H10_4 H 1.0000 0.7166 0.4958
C20_4 C 1.0000 0.7296(4) 0.6247(8)
H11_4 H 1.0000 0.7159 0.6566
C21_4 C 1.0000 0.6683(6) 0.5655(10)
N16_2 N 0.8335(7) 0.92487(18) 0.5506(2)
Zn1_5 Zn 0.5000 0.40543(3) 0.55524(5)
Zn3_9 Zn 0.5000 0.5000 0.5000
O1_5 O 0.5000 0.5174(3) 0.8721(4)
N1_3 N 0.6554(8) 0.42291(17) 0.5081(2)
O2_5 O 0.5000 0.4302(2) 0.6240(3)
O3_3 O 0.5000 0.4859(2) 0.5844(3)
C1_3 C 0.7626(11) 0.4039(2) 0.4863(3)
H1_3 H 0.7865 0.3788 0.4954
C2_5 C 0.5000 0.5218(4) 0.7784(6)
O4_5 O 0.5000 0.5745(3) 0.8335(3)
C3_5 C 0.5000 0.4662(4) 0.6241(6)
O5_5 O 0.5000 0.6483(3) 0.8998(5)
C4_5 C 0.5000 0.4852(3) 0.6756(6)
C5_5 C 0.5000 0.3315(6) 0.5682(9)
N3_2 N 0.6571(9) 0.45849(16) 0.4845(3)
C6_3 C 0.7609(10) 0.4579(2) 0.4504(3)
H2_3 H 0.7829 0.4787 0.4286
C7_5 C 0.5000 0.4659(4) 0.7224(7)
H3_5 H 0.5000 0.4392 0.7211
C8_5 C 0.5000 0.5381(4) 0.8323(6)
C9_5 C 0.5000 0.5235(4) 0.6826(6)
H4_5 H 0.5000 0.5391 0.6524
C10_5 C 0.5000 0.5409(4) 0.7319(7)
H5_5 H 0.5000 0.5676 0.7331
O6_5 O 0.5000 0.6560(4) 0.9833(6)
C11_5 C 0.5000 0.7110(5) 0.9239(9)
C12_5 C 0.5000 0.4833(5) 0.7722(6)
H6_5 H 0.5000 0.4678 0.8025
C13_5 C 0.5000 0.7302(4) 0.9722(8)
C14_5 C 0.5000 0.7296(4) 0.8753(8)
H8_5 H 0.5000 0.7159 0.8434
C15_5 C 0.5000 0.6683(6) 0.9345(10)
C16_5 C 0.5000 0.2886(5) 0.5678(8)
O7_3 O 0.3938(14) 0.3486(2) 0.5673(4)
C17_3 C 0.3750(19) 0.2700(3) 0.5670(5)
H9_3 H 0.2906 0.2837 0.5665
O8_3 O 0.5000 0.8517(3) 0.8998(5)
O9_5 O 0.5000 0.8440(4) 0.9833(6)
C18_5 C 0.5000 0.7890(5) 0.9239(9)
C19_5 C 0.5000 0.7698(4) 0.9722(8)
C20_5 C 0.5000 0.7704(4) 0.8753(8)
H11_5 H 0.5000 0.7841 0.8434
C21_5 C 0.5000 0.8317(6) 0.9345(10)
O10_3 O 0.6062(14) 0.3486(2) 0.5673(4)
C22_3 C 0.6250(19) 0.2700(3) 0.5670(5)
H12_3 H 0.7094 0.2837 0.5665
C23_5 C 0.5000 0.1685(6) 0.5682(9)
C24_5 C 0.5000 0.2114(5) 0.5678(8)
O11_3 O 0.3938(14) 0.1514(2) 0.5673(4)
C25_3 C 0.3750(19) 0.2300(3) 0.5670(5)
H13_3 H 0.2906 0.2163 0.5665
O12_3 O 0.6062(14) 0.1514(2) 0.5673(4)
C26_3 C 0.6250(19) 0.2300(3) 0.5670(5)
H14_3 H 0.7094 0.2163 0.5665
Zn4_5 Zn 0.5000 0.09457(3) 0.55524(5)
N4_3 N 0.3446(8) 0.07709(17) 0.5081(2)
O14_5 O 0.5000 0.0698(2) 0.6240(3)
O15_3 O 0.5000 0.0141(2) 0.5844(3)
C27_3 C 0.2374(11) 0.0961(2) 0.4863(3)
H15_3 H 0.2135 0.1212 0.4954
C29_5 C 0.5000 0.0338(4) 0.6241(6)
C30_5 C 0.5000 0.0148(3) 0.6756(6)
N6_2 N 0.3429(9) 0.04151(16) 0.4845(3)
C31_3 C 0.2391(10) 0.0421(2) 0.4504(3)
H16_3 H 0.2171 0.0213 0.4286
C32_5 C 0.5000 0.0341(4) 0.7224(7)
H17_5 H 0.5000 0.0608 0.7211
C36_5 C 0.5000 0.0167(5) 0.7722(6)
H20_5 H 0.5000 0.0322 0.8025
N7_3 N 0.3446(8) 0.42291(17) 0.5081(2)
C37_3 C 0.2374(11) 0.4039(2) 0.4863(3)
H21_3 H 0.2135 0.3788 0.4954
N9_2 N 0.3429(9) 0.45849(16) 0.4845(3)
C38_3 C 0.2391(10) 0.4579(2) 0.4504(3)
H22_3 H 0.2171 0.4787 0.4286
N10_3 N 0.6554(8) 0.07709(17) 0.5081(2)
C39_3 C 0.7626(11) 0.0961(2) 0.4863(3)
H23_3 H 0.7865 0.1212 0.4954
N12_2 N 0.6571(9) 0.04151(16) 0.4845(3)
C40_3 C 0.7609(10) 0.0421(2) 0.4504(3)
H24_3 H 0.7829 0.0213 0.4286
Zn11_5 Zn 0.5000 0.0000 0.5000
O17_5 O 0.5000 0.5141(2) 0.4156(3)
N17_3 N 0.6571(9) 0.54151(16) 0.5155(3)
N18_3 N 0.3429(9) 0.54151(16) 0.5155(3)
O13_5 O 0.5000 0.9826(3) 0.8721(4)
C28_5 C 0.5000 0.9782(4) 0.7784(6)
O16_5 O 0.5000 0.9255(3) 0.8335(3)
C33_5 C 0.5000 0.9619(4) 0.8323(6)
C34_5 C 0.5000 0.9765(4) 0.6826(6)
H18_5 H 0.5000 0.9609 0.6524
C35_5 C 0.5000 0.9591(4) 0.7319(7)
H19_5 H 0.5000 0.9324 0.7331
Zn11_6 Zn 0.5000 1.0000 0.5000
O17_6 O 0.5000 0.9859(2) 0.4156(3)
N17_4 N 0.3429(9) 0.95849(16) 0.5155(3)
N18_4 N 0.6571(9) 0.95849(16) 0.5155(3)
O13_6 O 0.5000 0.0174(3) 0.1279(4)
C28_6 C 0.5000 0.0218(4) 0.2216(6)
O16_6 O 0.5000 0.0745(3) 0.1665(3)
C33_6 C 0.5000 0.0381(4) 0.1677(6)
C34_6 C 0.5000 0.0235(4) 0.3174(6)
H18_6 H 0.5000 0.0391 0.3476
C35_6 C 0.5000 0.0409(4) 0.2681(7)
H19_6 H 0.5000 0.0676 0.2669
O18_3 O 0.5000 0.1483(3) 0.1002(5)
Zn1_6 Zn 0.5000 0.59457(3) 0.44476(5)
O1_6 O 0.5000 0.4826(3) 0.1279(4)
N1_4 N 0.6554(8) 0.57709(17) 0.4919(2)
O2_6 O 0.5000 0.5698(2) 0.3760(3)
C1_4 C 0.7626(11) 0.5961(2) 0.5137(3)
H1_4 H 0.7865 0.6212 0.5046
C2_6 C 0.5000 0.4782(4) 0.2216(6)
O4_6 O 0.5000 0.4255(3) 0.1665(3)
C3_6 C 0.5000 0.5338(4) 0.3759(6)
O5_6 O 0.5000 0.3517(3) 0.1002(5)
C4_6 C 0.5000 0.5148(3) 0.3244(6)
C5_6 C 0.5000 0.6685(6) 0.4318(9)
C6_4 C 0.7609(10) 0.5421(2) 0.5496(3)
H2_4 H 0.7829 0.5213 0.5714
C7_6 C 0.5000 0.5341(4) 0.2776(7)
H3_6 H 0.5000 0.5608 0.2789
C8_6 C 0.5000 0.4619(4) 0.1677(6)
C9_6 C 0.5000 0.4765(4) 0.3174(6)
H4_6 H 0.5000 0.4609 0.3476
C10_6 C 0.5000 0.4591(4) 0.2681(7)
H5_6 H 0.5000 0.4324 0.2669
O6_6 O 0.5000 0.3440(4) 0.0167(6)
C11_6 C 0.5000 0.2890(5) 0.0761(9)
C12_6 C 0.5000 0.5167(5) 0.2278(6)
H6_6 H 0.5000 0.5322 0.1975
C13_6 C 0.5000 0.2698(4) 0.0278(8)
C14_6 C 0.5000 0.2704(4) 0.1247(8)
H8_6 H 0.5000 0.2841 0.1566
C15_6 C 0.5000 0.3317(6) 0.0655(10)
C16_6 C 0.5000 0.7114(5) 0.4322(8)
O7_4 O 0.3938(14) 0.6514(2) 0.4327(4)
C17_4 C 0.3750(19) 0.7300(3) 0.4330(5)
H9_4 H 0.2906 0.7163 0.4335
O9_6 O 0.5000 0.1560(4) 0.0167(6)
C18_6 C 0.5000 0.2110(5) 0.0761(9)
C19_6 C 0.5000 0.2302(4) 0.0278(8)
C20_6 C 0.5000 0.2296(4) 0.1247(8)
H11_6 H 0.5000 0.2159 0.1566
C21_6 C 0.5000 0.1683(6) 0.0655(10)
O10_4 O 0.6062(14) 0.6514(2) 0.4327(4)
C22_4 C 0.6250(19) 0.7300(3) 0.4330(5)
H12_4 H 0.7094 0.7163 0.4335
C23_6 C 0.5000 0.8315(6) 0.4318(9)
C24_6 C 0.5000 0.7886(5) 0.4322(8)
O11_4 O 0.3938(14) 0.8486(2) 0.4327(4)
C25_4 C 0.3750(19) 0.7700(3) 0.4330(5)
H13_4 H 0.2906 0.7837 0.4335
O12_4 O 0.6062(14) 0.8486(2) 0.4327(4)
C26_4 C 0.6250(19) 0.7700(3) 0.4330(5)
H14_4 H 0.7094 0.7837 0.4335
Zn4_6 Zn 0.5000 0.90543(3) 0.44476(5)
N4_4 N 0.3446(8) 0.92291(17) 0.4919(2)
O14_6 O 0.5000 0.9302(2) 0.3760(3)
C27_4 C 0.2374(11) 0.9039(2) 0.5137(3)
H15_4 H 0.2135 0.8788 0.5046
C29_6 C 0.5000 0.9662(4) 0.3759(6)
C30_6 C 0.5000 0.9852(3) 0.3244(6)
C31_4 C 0.2391(10) 0.9579(2) 0.5496(3)
H16_4 H 0.2171 0.9787 0.5714
C32_6 C 0.5000 0.9659(4) 0.2776(7)
H17_6 H 0.5000 0.9392 0.2789
C36_6 C 0.5000 0.9833(5) 0.2278(6)
H20_6 H 0.5000 0.9678 0.1975
N7_4 N 0.3446(8) 0.57709(17) 0.4919(2)
C37_4 C 0.2374(11) 0.5961(2) 0.5137(3)
H21_4 H 0.2135 0.6212 0.5046
C38_4 C 0.2391(10) 0.5421(2) 0.5496(3)
H22_4 H 0.2171 0.5213 0.5714
N10_4 N 0.6554(8) 0.92291(17) 0.4919(2)
C39_4 C 0.7626(11) 0.9039(2) 0.5137(3)
H23_4 H 0.7865 0.8788 0.5046
C40_4 C 0.7609(10) 0.9579(2) 0.5496(3)
H24_4 H 0.7829 0.9787 0.5714
H7_5 H 0.5000 0.7166 0.0042
H10_5 H 0.5000 0.7834 0.0042
H7_6 H 0.5000 0.2834 0.9958
H10_6 H 0.5000 0.2166 0.9958
loop_
_geom_bond_atom_site_label_1
_geom_bond_atom_site_label_2
_geom_bond_site_symmetry_1
_geom_bond_site_symmetry_2
Zn2 O4 1_555 1_555
O1 C8 1_555 1_555
C2 C8 1_555 1_555
O4 C8 1_555 1_555
O5 Zn2 1_555 1_555
H4 C9 1_555 1_555
C10 C2 1_555 1_555
H5 C10 1_555 1_555
O6 C15 1_555 1_555
C11 C13 1_555 1_555
C13 H7 1_555 1_555
C14 C11 1_555 1_555
H8 C14 1_555 1_555
C15 O5 1_555 1_555
O8 C21 1_555 1_555
O9 C21 1_555 1_555
C18 C19 1_555 1_555
C19 C13 1_555 1_555
H10 C19 1_555 1_555
C20 C14 1_555 1_555
H11 C20 1_555 1_555
C21 C18 1_555 1_555
Zn6 O8 1_555 1_555
N14 Zn2 1_555 1_555
N17 Zn3 1_555 1_555
C9 C10 1_555 1_555
C11 C15 1_555 1_555
C18 C20 1_555 1_555
O17 Zn3_2 1_555 1_555
Zn1 N1 1_555 1_555
Zn3_3 O3 1_555 1_555
O2 Zn1 1_555 1_555
O3 C3 1_555 1_555
C3 O2 1_555 1_555
C4 C3 1_555 1_555
C5 C16 1_555 1_555
C7 C4 1_555 1_555
H3 C7 1_555 1_555
H6 C12 1_555 1_555
O10 Zn1 1_555 1_555
C22 C16 1_555 1_555
H12 C22 1_555 1_555
C23 C24 1_555 1_555
O12 C23 1_555 1_555
C26 C22 1_555 1_555
H14 C26 1_555 1_555
Zn6 O16 1_555 1_555
O13 C33 1_555 1_555
O14 Zn4 1_555 1_555
O15 C29 1_555 1_555
C28 C33 1_555 1_555
O16 C33 1_555 1_555
C29 O14 1_555 1_555
C30 C29 1_555 1_555
C32 C30 1_555 1_555
H17 C32 1_555 1_555
C34 C30 1_555 1_555
H18 C34 1_555 1_555
C35 C28 1_555 1_555
H19 C35 1_555 1_555
C36 C28 1_555 1_555
H20 C36 1_555 1_555
N10 Zn4 1_555 1_555
Zn11 O15 1_555 1_555
N15 Zn6 1_555 1_555
C5 O10 1_555 1_555
C7 C12 1_555 1_555
C24 C26 1_555 1_555
O12 Zn4 1_555 1_555
C32 C36 1_555 1_555
C34 C35 1_555 1_555
N2 C1 1_555 1_555
C1 H1 1_555 1_555
N3 Zn3_4 1_555 1_555
C6 N2 1_555 1_555
H2 C6 1_555 1_555
N11 C39 1_555 1_555
H23 C39 1_555 1_555
C40 N11 1_555 1_555
H24 C40 1_555 1_555
Zn8 N11 1_555 1_555
Zn10 N2 1_555 1_555
N3 C6 1_555 1_555
N12 C40 1_555 1_555
N12 Zn11_2 1_555 1_555
Zn2_2 O4_2 1_555 1_555
O1_2 C8_2 1_555 1_555
C2_2 C8_2 1_555 1_555
O4_2 C8_2 1_555 1_555
O5_2 Zn2_2 1_555 1_555
H4_2 C9_2 1_555 1_555
C10_2 C2_2 1_555 1_555
H5_2 C10_2 1_555 1_555
O6_2 C15_2 1_555 1_555
C11_2 C13_2 1_555 1_555
C13_2 H7_2 1_555 1_555
C14_2 C11_2 1_555 1_555
H8_2 C14_2 1_555 1_555
C15_2 O5_2 1_555 1_555
O8_2 C21_2 1_555 1_555
O9_2 C21_2 1_555 1_555
C18_2 C19_2 1_555 1_555
C19_2 C13_2 1_555 1_555
H10_2 C19_2 1_555 1_555
C20_2 C14_2 1_555 1_555
H11_2 C20_2 1_555 1_555
C21_2 C18_2 1_555 1_555
Zn6_2 O8_2 1_555 1_555
N16 Zn2_2 1_555 1_555
N18 Zn3_5 1_555 1_555
C9_2 C10_2 1_555 1_555
C11_2 C15_2 1_555 1_555
C18_2 C20_2 1_555 1_555
O17_2 Zn3_6 1_555 1_555
Zn3_7 O3_2 1_555 1_555
O2_2 Zn1_2 1_555 1_555
O3_2 C3_2 1_555 1_555
C3_2 O2_2 1_555 1_555
C4_2 C3_2 1_555 1_555
C5_2 C16_2 1_555 1_555
C7_2 C4_2 1_555 1_555
H3_2 C7_2 1_555 1_555
H6_2 C12_2 1_555 1_555
C16_2 C17 1_555 1_555
O7 Zn1_2 1_555 1_555
C17 H9 1_555 1_555
C23_2 C24_2 1_555 1_555
C24_2 C25 1_555 1_555
O11 C23_2 1_555 1_555
C25 C17 1_555 1_555
H13 C25 1_555 1_555
Zn4_2 O11 1_555 1_555
Zn6_2 O16_2 1_555 1_555
O13_2 C33_2 1_555 1_555
N4 Zn4_2 1_555 1_555
O14_2 Zn4_2 1_555 1_555
O15_2 C29_2 1_555 1_555
C28_2 C33_2 1_555 1_555
O16_2 C33_2 1_555 1_555
C29_2 O14_2 1_555 1_555
C30_2 C29_2 1_555 1_555
C32_2 C30_2 1_555 1_555
H17_2 C32_2 1_555 1_555
C34_2 C30_2 1_555 1_555
H18_2 C34_2 1_555 1_555
C35_2 C28_2 1_555 1_555
H19_2 C35_2 1_555 1_555
C36_2 C28_2 1_555 1_555
H20_2 C36_2 1_555 1_555
N7 Zn1_2 1_555 1_555
Zn11_3 O15_2 1_555 1_555
N13 Zn6_2 1_555 1_555
C5_2 O7 1_555 1_555
C7_2 C12_2 1_555 1_555
C32_2 C36_2 1_555 1_555
C34_2 C35_2 1_555 1_555
N5 C27 1_555 1_555
H15 C27 1_555 1_555
C31 N5 1_555 1_555
H16 C31 1_555 1_555
N8 C37 1_555 1_555
H21 C37 1_555 1_555
N9 Zn3_8 1_555 1_555
C38 N8 1_555 1_555
H22 C38 1_555 1_555
Zn8 N5 1_555 1_555
Zn10 N8 1_555 1_555
N6 C31 1_555 1_555
N6 Zn11_4 1_555 1_555
N9 C38 1_555 1_555
N18_2 Zn11 1_555 1_555
O17_3 Zn11_2 1_555 1_555
N17_2 Zn11_3 1_555 1_555
O17_4 Zn11_4 1_555 1_555
N2_2 C1_2 1_555 1_555
C1_2 H1_2 1_555 1_555
C6_2 N2_2 1_555 1_555
H2_2 C6_2 1_555 1_555
N11_2 C39_2 1_555 1_555
H23_2 C39_2 1_555 1_555
C40_2 N11_2 1_555 1_555
H24_2 C40_2 1_555 1_555
Zn8_2 N11_2 1_555 1_555
Zn10_2 N2_2 1_555 1_555
N17 C6_2 1_555 1_555
N18_2 C40_2 1_555 1_555
Zn1_3 N1_2 1_555 1_555
O2_3 Zn1_3 1_555 1_555
O17 C3_3 1_555 1_555
C3_3 O2_3 1_555 1_555
C4_3 C3_3 1_555 1_555
C5_3 C16_3 1_555 1_555
C7_3 C4_3 1_555 1_555
H3_3 C7_3 1_555 1_555
H6_3 C12_3 1_555 1_555
O10_2 Zn1_3 1_555 1_555
C22_2 C16_3 1_555 1_555
H12_2 C22_2 1_555 1_555
C23_3 C24_3 1_555 1_555
O12_2 C23_3 1_555 1_555
C26_2 C22_2 1_555 1_555
H14_2 C26_2 1_555 1_555
Zn5 O16_3 1_555 1_555
O13_3 C33_3 1_555 1_555
O14_3 Zn4_3 1_555 1_555
O17_3 C29_3 1_555 1_555
C28_3 C33_3 1_555 1_555
O16_3 C33_3 1_555 1_555
C29_3 O14_3 1_555 1_555
C30_3 C29_3 1_555 1_555
C32_3 C30_3 1_555 1_555
H17_3 C32_3 1_555 1_555
C34_3 C30_3 1_555 1_555
H18_3 C34_3 1_555 1_555
C35_3 C28_3 1_555 1_555
H19_3 C35_3 1_555 1_555
C36_3 C28_3 1_555 1_555
H20_3 C36_3 1_555 1_555
N10_2 Zn4_3 1_555 1_555
N15_2 Zn5 1_555 1_555
O18 Zn5 1_555 1_555
C5_3 O10_2 1_555 1_555
C7_3 C12_3 1_555 1_555
C24_3 C26_2 1_555 1_555
O12_2 Zn4_3 1_555 1_555
C32_3 C36_3 1_555 1_555
C34_3 C35_3 1_555 1_555
Zn2_3 O4_3 1_555 1_555
O1_3 C8_3 1_555 1_555
C2_3 C8_3 1_555 1_555
O4_3 C8_3 1_555 1_555
O5_3 Zn2_3 1_555 1_555
H4_3 C9_3 1_555 1_555
C10_3 C2_3 1_555 1_555
H5_3 C10_3 1_555 1_555
O6_3 C15_3 1_555 1_555
C11_3 C13_3 1_555 1_555
C13_3 H7_3 1_555 1_555
C14_3 C11_3 1_555 1_555
H8_3 C14_3 1_555 1_555
C15_3 O5_3 1_555 1_555
O18 C21_3 1_555 1_555
O9_3 C21_3 1_555 1_555
C18_3 C19_3 1_555 1_555
C19_3 C13_3 1_555 1_555
H10_3 C19_3 1_555 1_555
C20_3 C14_3 1_555 1_555
H11_3 C20_3 1_555 1_555
C21_3 C18_3 1_555 1_555
N14_2 Zn2_3 1_555 1_555
C9_3 C10_3 1_555 1_555
C11_3 C15_3 1_555 1_555
C18_3 C20_3 1_555 1_555
N5_2 C27_2 1_555 1_555
H15_2 C27_2 1_555 1_555
C31_2 N5_2 1_555 1_555
H16_2 C31_2 1_555 1_555
N8_2 C37_2 1_555 1_555
H21_2 C37_2 1_555 1_555
C38_2 N8_2 1_555 1_555
H22_2 C38_2 1_555 1_555
Zn8_2 N5_2 1_555 1_555
Zn10_2 N8_2 1_555 1_555
N17_2 C31_2 1_555 1_555
N18 C38_2 1_555 1_555
O2_4 Zn1_4 1_555 1_555
O17_2 C3_4 1_555 1_555
C3_4 O2_4 1_555 1_555
C4_4 C3_4 1_555 1_555
C5_4 C16_4 1_555 1_555
C7_4 C4_4 1_555 1_555
H3_4 C7_4 1_555 1_555
H6_4 C12_4 1_555 1_555
C16_4 C17_2 1_555 1_555
O7_2 Zn1_4 1_555 1_555
C17_2 H9_2 1_555 1_555
C23_4 C24_4 1_555 1_555
C24_4 C25_2 1_555 1_555
O11_2 C23_4 1_555 1_555
C25_2 C17_2 1_555 1_555
H13_2 C25_2 1_555 1_555
Zn4_4 O11_2 1_555 1_555
Zn5_2 O16_4 1_555 1_555
O13_4 C33_4 1_555 1_555
N4_2 Zn4_4 1_555 1_555
O14_4 Zn4_4 1_555 1_555
O17_4 C29_4 1_555 1_555
C28_4 C33_4 1_555 1_555
O16_4 C33_4 1_555 1_555
C29_4 O14_4 1_555 1_555
C30_4 C29_4 1_555 1_555
C32_4 C30_4 1_555 1_555
H17_4 C32_4 1_555 1_555
C34_4 C30_4 1_555 1_555
H18_4 C34_4 1_555 1_555
C35_4 C28_4 1_555 1_555
H19_4 C35_4 1_555 1_555
C36_4 C28_4 1_555 1_555
H20_4 C36_4 1_555 1_555
N7_2 Zn1_4 1_555 1_555
N13_2 Zn5_2 1_555 1_555
O18_2 Zn5_2 1_555 1_555
C5_4 O7_2 1_555 1_555
C7_4 C12_4 1_555 1_555
C32_4 C36_4 1_555 1_555
C34_4 C35_4 1_555 1_555
Zn2_4 O4_4 1_555 1_555
O1_4 C8_4 1_555 1_555
C2_4 C8_4 1_555 1_555
O4_4 C8_4 1_555 1_555
O5_4 Zn2_4 1_555 1_555
H4_4 C9_4 1_555 1_555
C10_4 C2_4 1_555 1_555
H5_4 C10_4 1_555 1_555
O6_4 C15_4 1_555 1_555
C11_4 C13_4 1_555 1_555
C13_4 H7_4 1_555 1_555
C14_4 C11_4 1_555 1_555
H8_4 C14_4 1_555 1_555
C15_4 O5_4 1_555 1_555
O18_2 C21_4 1_555 1_555
O9_4 C21_4 1_555 1_555
C18_4 C19_4 1_555 1_555
C19_4 C13_4 1_555 1_555
H10_4 C19_4 1_555 1_555
C20_4 C14_4 1_555 1_555
H11_4 C20_4 1_555 1_555
C21_4 C18_4 1_555 1_555
N16_2 Zn2_4 1_555 1_555
C9_4 C10_4 1_555 1_555
C11_4 C15_4 1_555 1_555
C18_4 C20_4 1_555 1_555
Zn1_5 N1_3 1_555 1_555
Zn8 O4_5 1_555 1_555
Zn3_9 O3_3 1_555 1_555
O1_5 C8_5 1_555 1_555
N1_3 C1_3 1_555 1_555
N13 C1_3 1_555 1_555
O2_5 Zn1_5 1_555 1_555
O3_3 C3_5 1_555 1_555
C1_3 H1_3 1_555 1_555
C2_5 C8_5 1_555 1_555
O4_5 C8_5 1_555 1_555
C3_5 O2_5 1_555 1_555
O5_5 Zn8 1_555 1_555
C4_5 C3_5 1_555 1_555
C5_5 C16_5 1_555 1_555
N3_2 Zn3_9 1_555 1_555
C6_3 N13 1_555 1_555
H2_3 C6_3 1_555 1_555
C7_5 C4_5 1_555 1_555
H3_5 C7_5 1_555 1_555
C9_5 C4_5 1_555 1_555
H4_5 C9_5 1_555 1_555
C10_5 C2_5 1_555 1_555
H5_5 C10_5 1_555 1_555
O6_5 C15_5 1_555 1_555
C11_5 C13_5 1_555 1_555
C12_5 C2_5 1_555 1_555
H6_5 C12_5 1_555 1_555
C14_5 C11_5 1_555 1_555
H8_5 C14_5 1_555 1_555
C15_5 O5_5 1_555 1_555
C16_5 C17_3 1_555 1_555
O7_3 Zn1_5 1_555 1_555
C17_3 H9_3 1_555 1_555
O8_3 C21_5 1_555 1_555
O9_5 C21_5 1_555 1_555
C18_5 C19_5 1_555 1_555
C19_5 C13_5 1_555 1_555
C20_5 C14_5 1_555 1_555
H11_5 C20_5 1_555 1_555
C21_5 C18_5 1_555 1_555
O10_3 Zn1_5 1_555 1_555
C22_3 C16_5 1_555 1_555
H12_3 C22_3 1_555 1_555
C23_5 C24_5 1_555 1_555
C24_5 C25_3 1_555 1_555
O11_3 C23_5 1_555 1_555
C25_3 C17_3 1_555 1_555
H13_3 C25_3 1_555 1_555
O12_3 C23_5 1_555 1_555
C26_3 C22_3 1_555 1_555
H14_3 C26_3 1_555 1_555
Zn4_5 O11_3 1_555 1_555
N4_3 Zn4_5 1_555 1_555
N14 C27_3 1_555 1_555
O14_5 Zn4_5 1_555 1_555
O15_3 C29_5 1_555 1_555
C27_3 N4_3 1_555 1_555
H15_3 C27_3 1_555 1_555
C29_5 O14_5 1_555 1_555
C30_5 C29_5 1_555 1_555
N6_2 N4_3 1_555 1_555
C31_3 N14 1_555 1_555
H16_3 C31_3 1_555 1_555
C32_5 C30_5 1_555 1_555
H17_5 C32_5 1_555 1_555
H20_5 C36_5 1_555 1_555
N7_3 Zn1_5 1_555 1_555
N15 C37_3 1_555 1_555
C37_3 N7_3 1_555 1_555
H21_3 C37_3 1_555 1_555
N9_2 Zn3_9 1_555 1_555
C38_3 N15 1_555 1_555
H22_3 C38_3 1_555 1_555
N10_3 Zn4_5 1_555 1_555
N16 C39_3 1_555 1_555
C39_3 N10_3 1_555 1_555
H23_3 C39_3 1_555 1_555
N12_2 N10_3 1_555 1_555
C40_3 N16 1_555 1_555
H24_3 C40_3 1_555 1_555
Zn10 O8_3 1_555 1_555
Zn11_5 O15_3 1_555 1_555
O17_5 Zn3_9 1_555 1_555
N17_3 Zn3_9 1_555 1_555
N18_3 Zn3_9 1_555 1_555
N1_3 N3_2 1_555 1_555
C5_5 O7_3 1_555 1_555
C5_5 O10_3 1_555 1_555
N3_2 C6_3 1_555 1_555
C7_5 C12_5 1_555 1_555
C9_5 C10_5 1_555 1_555
C11_5 C15_5 1_555 1_555
C18_5 C20_5 1_555 1_555
C24_5 C26_3 1_555 1_555
O12_3 Zn4_5 1_555 1_555
N6_2 C31_3 1_555 1_555
N6_2 Zn11_5 1_555 1_555
C32_5 C36_5 1_555 1_555
N7_3 N9_2 1_555 1_555
N9_2 C38_3 1_555 1_555
N12_2 C40_3 1_555 1_555
N12_2 Zn11_5 1_555 1_555
Zn10 O16_5 1_555 1_555
O13_5 C33_5 1_555 1_555
C28_5 C33_5 1_555 1_555
O16_5 C33_5 1_555 1_555
H18_5 C34_5 1_555 1_555
C35_5 C28_5 1_555 1_555
H19_5 C35_5 1_555 1_555
C34_5 C35_5 1_555 1_555
O17_6 Zn11_6 1_555 1_555
N17_4 Zn11_6 1_555 1_555
N18_4 Zn11_6 1_555 1_555
Zn10_2 O16_6 1_555 1_555
O13_6 C33_6 1_555 1_555
C28_6 C33_6 1_555 1_555
O16_6 C33_6 1_555 1_555
H18_6 C34_6 1_555 1_555
C35_6 C28_6 1_555 1_555
H19_6 C35_6 1_555 1_555
O18_3 Zn10_2 1_555 1_555
C34_6 C35_6 1_555 1_555
Zn1_6 N1_4 1_555 1_555
Zn8_2 O4_6 1_555 1_555
O1_6 C8_6 1_555 1_555
N1_4 C1_4 1_555 1_555
N13_2 C1_4 1_555 1_555
O2_6 Zn1_6 1_555 1_555
O17_5 C3_6 1_555 1_555
C1_4 H1_4 1_555 1_555
C2_6 C8_6 1_555 1_555
O4_6 C8_6 1_555 1_555
C3_6 O2_6 1_555 1_555
O5_6 Zn8_2 1_555 1_555
C4_6 C3_6 1_555 1_555
C5_6 C16_6 1_555 1_555
C6_4 N13_2 1_555 1_555
H2_4 C6_4 1_555 1_555
C7_6 C4_6 1_555 1_555
H3_6 C7_6 1_555 1_555
C9_6 C4_6 1_555 1_555
H4_6 C9_6 1_555 1_555
C10_6 C2_6 1_555 1_555
H5_6 C10_6 1_555 1_555
O6_6 C15_6 1_555 1_555
C11_6 C13_6 1_555 1_555
C12_6 C2_6 1_555 1_555
H6_6 C12_6 1_555 1_555
C14_6 C11_6 1_555 1_555
H8_6 C14_6 1_555 1_555
C15_6 O5_6 1_555 1_555
C16_6 C17_4 1_555 1_555
O7_4 Zn1_6 1_555 1_555
C17_4 H9_4 1_555 1_555
O18_3 C21_6 1_555 1_555
O9_6 C21_6 1_555 1_555
C18_6 C19_6 1_555 1_555
C19_6 C13_6 1_555 1_555
C20_6 C14_6 1_555 1_555
H11_6 C20_6 1_555 1_555
C21_6 C18_6 1_555 1_555
O10_4 Zn1_6 1_555 1_555
C22_4 C16_6 1_555 1_555
H12_4 C22_4 1_555 1_555
C23_6 C24_6 1_555 1_555
C24_6 C25_4 1_555 1_555
O11_4 C23_6 1_555 1_555
C25_4 C17_4 1_555 1_555
H13_4 C25_4 1_555 1_555
O12_4 C23_6 1_555 1_555
C26_4 C22_4 1_555 1_555
H14_4 C26_4 1_555 1_555
Zn4_6 O11_4 1_555 1_555
N4_4 Zn4_6 1_555 1_555
N14_2 C27_4 1_555 1_555
O14_6 Zn4_6 1_555 1_555
O17_6 C29_6 1_555 1_555
C27_4 N4_4 1_555 1_555
H15_4 C27_4 1_555 1_555
C29_6 O14_6 1_555 1_555
C30_6 C29_6 1_555 1_555
N17_4 N4_4 1_555 1_555
C31_4 N14_2 1_555 1_555
H16_4 C31_4 1_555 1_555
C32_6 C30_6 1_555 1_555
H17_6 C32_6 1_555 1_555
H20_6 C36_6 1_555 1_555
N7_4 Zn1_6 1_555 1_555
N15_2 C37_4 1_555 1_555
C37_4 N7_4 1_555 1_555
H21_4 C37_4 1_555 1_555
C38_4 N15_2 1_555 1_555
H22_4 C38_4 1_555 1_555
N10_4 Zn4_6 1_555 1_555
N16_2 C39_4 1_555 1_555
C39_4 N10_4 1_555 1_555
H23_4 C39_4 1_555 1_555
N18_4 N10_4 1_555 1_555
C40_4 N16_2 1_555 1_555
H24_4 C40_4 1_555 1_555
N1_4 N17_3 1_555 1_555
C5_6 O7_4 1_555 1_555
C5_6 O10_4 1_555 1_555
N17_3 C6_4 1_555 1_555
C7_6 C12_6 1_555 1_555
C9_6 C10_6 1_555 1_555
C11_6 C15_6 1_555 1_555
C18_6 C20_6 1_555 1_555
C24_6 C26_4 1_555 1_555
O12_4 Zn4_6 1_555 1_555
N17_4 C31_4 1_555 1_555
C32_6 C36_6 1_555 1_555
N7_4 N18_3 1_555 1_555
N18_3 C38_4 1_555 1_555
N18_4 C40_4 1_555 1_555

#END
