
###############################################################################
#
# This file contains modified crystal structure data generated from the
# MOF subset of the Cambridge Structural Database (CSD) v543 
# hosted by the Cambridge Crystallographic Data Centre (CCDC).
#
# This work is licensed under the Creative Commons
# Attribution-NonCommercial-ShareAlike 4.0 International License.
# To view a copy of this license, visit
# http://creativecommons.org/licenses/by-nc-sa/4.0/
# or send a letter to
# Creative Commons, PO Box 1866, Mountain View, CA 94042, USA.
#
# CIF created using the CSD Python API on 29 September 2022
# The structure has been converted into the P1 space group
# The structure has a 3D framework
# The original CSD entry IBUDOZ is in the monoclinic crystal system
# The framework has been calculated to contain at least 10.0% void space
# The void calculation uses a probe of radius 1.32A, grid spacing 0.4
#
###############################################################################

data_IBUDOZ
_chemical_formula_moiety         '(C24 H16 Cu2 N20)n'
_symmetry_cell_setting           triclinic
_symmetry_space_group_name_H-M   'P 1'
_symmetry_Int_Tables_number      1
_space_group_name_Hall           'P 1'
loop_
_symmetry_equiv_pos_site_id
_symmetry_equiv_pos_as_xyz
1 x,y,z
_cell_length_a                   5.7266(8)
_cell_length_b                   16.474(2)
_cell_length_c                   9.9412(14)
_cell_angle_alpha                90
_cell_angle_beta                 94.294(2)
_cell_angle_gamma                90
_cell_volume                     935.22
loop_
_atom_site_label
_atom_site_type_symbol
_atom_site_fract_x
_atom_site_fract_y
_atom_site_fract_z
N8 N 0.0605(5) 0.4083(2) 0.4171(4)
Cu1 Cu 0.75359(7) 0.43270(3) 0.48839(5)
N1 N 0.6648(6) 0.3435(2) 0.6238(4)
N2 N 0.4265(5) 0.08335(19) 0.8749(4)
N3 N 0.2483(5) 0.04419(19) 0.9287(4)
N4 N 0.0605(5) 0.0917(2) 0.9171(4)
N5 N 0.1113(6) 0.1617(2) 0.8589(4)
C1 C 0.4844(11) 0.3575(3) 0.6981(6)
H1 H 0.435(10) 0.410(4) 0.697(6)
C2 C 0.3749(10) 0.2980(3) 0.7678(6)
H2 H 0.258(8) 0.312(3) 0.815(5)
C3 C 0.4565(7) 0.2190(2) 0.7628(4)
C4 C 0.6426(7) 0.2038(3) 0.6875(5)
H3 H 0.693(8) 0.153(3) 0.676(5)
C5 C 0.7414(8) 0.2665(3) 0.6197(5)
H4 H 0.869(9) 0.258(3) 0.563(5)
C6 C 0.3346(6) 0.1546(2) 0.8326(4)
N6 N 0.4265(5) 0.41665(19) 0.3749(4)
N7 N 0.7517(5) 0.54419(19) 0.5713(4)
Cu2 Cu 0.75359(7) 0.06730(3) 0.98839(5)
Cu3 Cu 0.24641(7) 0.93270(3) 0.01161(5)
Cu4 Cu 0.24641(7) 0.56730(3) 0.51161(5)
N6_2 N 0.5735(5) 0.91665(19) 0.1251(4)
N1_2 N 0.3352(6) 0.8435(2) 0.8762(4)
N2_2 N 0.5735(5) 0.58335(19) 0.6251(4)
N4_2 N 0.9395(5) 0.5917(2) 0.5829(4)
N5_2 N 0.8887(6) 0.6617(2) 0.6411(4)
C1_2 C 0.5156(11) 0.8575(3) 0.8019(6)
H1_2 H 0.565(10) 0.910(4) 0.803(6)
C2_2 C 0.6251(10) 0.7980(3) 0.7322(6)
H2_2 H 0.742(8) 0.812(3) 0.685(5)
C3_2 C 0.5435(7) 0.7190(2) 0.7372(4)
C4_2 C 0.3574(7) 0.7038(3) 0.8125(5)
H3_2 H 0.307(8) 0.653(3) 0.824(5)
C5_2 C 0.2586(8) 0.7665(3) 0.8803(5)
H4_2 H 0.131(9) 0.758(3) 0.937(5)
C6_2 C 0.6654(6) 0.6546(2) 0.6674(4)
N8_2 N 0.9395(5) 0.9083(2) 0.0829(4)
N1_3 N 0.3352(6) 0.6565(2) 0.3762(4)
N3_2 N 0.7517(5) 0.95581(19) 0.0713(4)
N5_3 N 0.8887(6) 0.8383(2) 0.1411(4)
C1_3 C 0.5156(11) 0.6425(3) 0.3019(6)
H1_3 H 0.565(10) 0.590(4) 0.303(6)
C2_3 C 0.6251(10) 0.7020(3) 0.2322(6)
H2_3 H 0.742(8) 0.688(3) 0.185(5)
C3_3 C 0.5435(7) 0.7810(2) 0.2372(4)
C4_3 C 0.3574(7) 0.7962(3) 0.3125(5)
H3_3 H 0.307(8) 0.847(3) 0.324(5)
C5_3 C 0.2586(8) 0.7335(3) 0.3803(5)
H4_3 H 0.131(9) 0.742(3) 0.437(5)
C6_3 C 0.6654(6) 0.8454(2) 0.1674(4)
N7_2 N 0.2483(5) 0.45581(19) 0.4287(4)
N1_4 N 0.6648(6) 0.1565(2) 0.1238(4)
N5_4 N 0.1113(6) 0.3383(2) 0.3589(4)
C1_4 C 0.4844(11) 0.1425(3) 0.1981(6)
H1_4 H 0.435(10) 0.090(4) 0.197(6)
C2_4 C 0.3749(10) 0.2020(3) 0.2678(6)
H2_4 H 0.258(8) 0.188(3) 0.315(5)
C3_4 C 0.4565(7) 0.2810(2) 0.2628(4)
C4_4 C 0.6426(7) 0.2962(3) 0.1875(5)
H3_4 H 0.693(8) 0.347(3) 0.176(5)
C5_4 C 0.7414(8) 0.2335(3) 0.1197(5)
H4_4 H 0.869(9) 0.242(3) 0.063(5)
C6_4 C 0.3346(6) 0.3454(2) 0.3326(4)
loop_
_geom_bond_atom_site_label_1
_geom_bond_atom_site_label_2
_geom_bond_site_symmetry_1
_geom_bond_site_symmetry_2
Cu1 N1 1_555 1_555
N1 C1 1_555 1_555
N2 N3 1_555 1_555
N3 N4 1_555 1_555
N4 N5 1_555 1_555
N5 C6 1_555 1_555
C1 H1 1_555 1_555
C2 C1 1_555 1_555
H2 C2 1_555 1_555
C3 C2 1_555 1_555
C4 C3 1_555 1_555
H3 C4 1_555 1_555
C5 N1 1_555 1_555
H4 C5 1_555 1_555
C6 N2 1_555 1_555
N6 Cu1 1_555 1_555
N7 Cu1 1_555 1_555
Cu2 N2 1_555 1_555
C3 C6 1_555 1_555
C4 C5 1_555 1_555
N6_2 Cu3 1_555 1_555
N1_2 C1_2 1_555 1_555
N2_2 N7 1_555 1_555
N7 N4_2 1_555 1_555
N4_2 N5_2 1_555 1_555
N5_2 C6_2 1_555 1_555
C1_2 H1_2 1_555 1_555
C2_2 C1_2 1_555 1_555
H2_2 C2_2 1_555 1_555
C3_2 C2_2 1_555 1_555
C4_2 C3_2 1_555 1_555
H3_2 C4_2 1_555 1_555
C5_2 N1_2 1_555 1_555
H4_2 C5_2 1_555 1_555
C6_2 N2_2 1_555 1_555
Cu4 N2_2 1_555 1_555
C3_2 C6_2 1_555 1_555
C4_2 C5_2 1_555 1_555
Cu4 N1_3 1_555 1_555
N1_3 C1_3 1_555 1_555
N6_2 N3_2 1_555 1_555
N3_2 N8_2 1_555 1_555
N8_2 N5_3 1_555 1_555
N5_3 C6_3 1_555 1_555
C1_3 H1_3 1_555 1_555
C2_3 C1_3 1_555 1_555
H2_3 C2_3 1_555 1_555
C3_3 C2_3 1_555 1_555
C4_3 C3_3 1_555 1_555
H3_3 C4_3 1_555 1_555
C5_3 N1_3 1_555 1_555
H4_3 C5_3 1_555 1_555
C6_3 N6_2 1_555 1_555
N7_2 Cu4 1_555 1_555
C3_3 C6_3 1_555 1_555
C4_3 C5_3 1_555 1_555
N1_4 C1_4 1_555 1_555
N6 N7_2 1_555 1_555
N7_2 N8 1_555 1_555
N8 N5_4 1_555 1_555
N5_4 C6_4 1_555 1_555
C1_4 H1_4 1_555 1_555
C2_4 C1_4 1_555 1_555
H2_4 C2_4 1_555 1_555
C3_4 C2_4 1_555 1_555
C4_4 C3_4 1_555 1_555
H3_4 C4_4 1_555 1_555
C5_4 N1_4 1_555 1_555
H4_4 C5_4 1_555 1_555
C6_4 N6 1_555 1_555
C3_4 C6_4 1_555 1_555
C4_4 C5_4 1_555 1_555

#END
