
###############################################################################
#
# This file contains modified crystal structure data generated from the
# MOF subset of the Cambridge Structural Database (CSD) v543 
# hosted by the Cambridge Crystallographic Data Centre (CCDC).
#
# This work is licensed under the Creative Commons
# Attribution-NonCommercial-ShareAlike 4.0 International License.
# To view a copy of this license, visit
# http://creativecommons.org/licenses/by-nc-sa/4.0/
# or send a letter to
# Creative Commons, PO Box 1866, Mountain View, CA 94042, USA.
#
# CIF created using the CSD Python API on 29 September 2022
# The structure has been converted into the P1 space group
# The structure has a 3D framework
# The original CSD entry ICALOP is in the orthorhombic crystal system
# The framework has been calculated to contain at least 10.0% void space
# The void calculation uses a probe of radius 1.32A, grid spacing 0.4
#
###############################################################################

data_ICALOP
_chemical_formula_moiety         '(C68 H32 In2 O32)n'
_symmetry_cell_setting           triclinic
_symmetry_space_group_name_H-M   'P 1'
_symmetry_Int_Tables_number      1
_space_group_name_Hall           'P 1'
loop_
_symmetry_equiv_pos_site_id
_symmetry_equiv_pos_as_xyz
1 x,y,z
_cell_length_a                   17.379(5)
_cell_length_b                   9.906(5)
_cell_length_c                   22.043(5)
_cell_angle_alpha                90
_cell_angle_beta                 90
_cell_angle_gamma                90
_cell_volume                     3794.84
loop_
_atom_site_label
_atom_site_type_symbol
_atom_site_fract_x
_atom_site_fract_y
_atom_site_fract_z
In1 In 0.41531(4) 0.2500 0.67182(2)
O1 O 0.8984(4) 0.2500 0.7260(2)
O2 O 0.5810(2) 0.5123(6) 0.31953(18)
O3 O 0.5177(3) 0.2500 0.6017(2)
O4 O 0.5361(3) 0.2500 0.6997(2)
O5 O 0.7985(3) 0.2500 0.7847(3)
O6 O 0.6394(3) 0.6107(5) 0.39472(19)
C1 C 0.6491(4) 0.3727(7) 0.3872(2)
C2 C 0.6464(5) 0.2500 0.6368(3)
C3 C 0.7561(5) 0.2500 0.5691(4)
C4 C 0.7727(5) 0.2500 0.6786(4)
C5 C 0.6216(4) 0.5029(8) 0.3663(3)
C6 C 0.5618(5) 0.2500 0.6462(4)
C7 C 0.6231(6) 0.2500 0.3652(4)
C8 C 0.6791(5) 0.2500 0.5780(4)
H1 H 0.6460 0.2500 0.5437
C9 C 0.8265(5) 0.2500 0.7325(3)
C10 C 0.8045(6) 0.2500 0.6203(4)
H2 H 0.8588 0.2500 0.6153
C11 C 0.6969(6) 0.2500 0.6868(4)
H3 H 0.6766 0.2500 0.7268
C12 C 0.7058(4) 0.3714(6) 0.4335(2)
H4 H 0.7253 0.4537 0.4494
C13 C 0.7321(5) 0.2500 0.4551(4)
C14 C 0.7924(6) 0.2500 0.5069(4)
H5 H 0.8255 0.1692 0.5028
H6 H 0.582(5) 0.2500 0.329(4)
In2 In 0.91531(4) 0.2500 0.82818(2)
In3 In 0.58469(4) 0.7500 0.32818(2)
O7 O 0.3984(4) 0.2500 0.7740(2)
O9 O 0.4190(2) 0.4877(6) 0.68047(18)
O10 O 0.4190(2) 0.0123(6) 0.68047(18)
O11 O 0.2985(3) 0.2500 0.7153(3)
O13 O 0.3606(3) 0.3893(5) 0.60528(19)
O14 O 0.3606(3) 0.1107(5) 0.60528(19)
C15 C 0.6491(4) 0.1273(7) 0.3872(2)
C17 C 0.7058(4) 0.1286(6) 0.4335(2)
H7 H 0.7253 0.0463 0.4494
H8 H 0.8255 0.3308 0.5028
O8 O 0.5810(2) 0.9877(6) 0.31953(18)
O12 O 0.6394(3) 0.8893(5) 0.39472(19)
C16 C 0.6216(4) 0.9971(8) 0.3663(3)
In1_2 In 0.08469(4) 0.7500 0.17182(2)
O7_2 O 0.1016(4) 0.7500 0.2740(2)
O9_2 O 0.0810(2) 0.5123(6) 0.18047(18)
O10_2 O 0.0810(2) 0.9877(6) 0.18047(18)
O11_2 O 0.2015(3) 0.7500 0.2153(3)
O13_2 O 0.1394(3) 0.6107(5) 0.10528(19)
O14_2 O 0.1394(3) 0.8893(5) 0.10528(19)
O8_2 O 0.9190(2) 0.0123(6) 0.81953(18)
O12_2 O 0.8606(3) 0.1107(5) 0.89472(19)
C16_2 C 0.8784(4) 0.0029(8) 0.8663(3)
O1_2 O 0.6016(4) 0.7500 0.2260(2)
O3_2 O 0.9823(3) 0.7500 0.1017(2)
O4_2 O 0.9639(3) 0.7500 0.1997(2)
O5_2 O 0.7015(3) 0.7500 0.2847(3)
C2_2 C 0.8536(5) 0.7500 0.1368(3)
C3_2 C 0.7439(5) 0.7500 0.0691(4)
C4_2 C 0.7273(5) 0.7500 0.1786(4)
C6_2 C 0.9382(5) 0.7500 0.1462(4)
C8_2 C 0.8209(5) 0.7500 0.0780(4)
H1_2 H 0.8540 0.7500 0.0437
C9_2 C 0.6735(5) 0.7500 0.2325(3)
C10_2 C 0.6955(6) 0.7500 0.1203(4)
H2_2 H 0.6412 0.7500 0.1153
C11_2 C 0.8031(6) 0.7500 0.1868(4)
H3_2 H 0.8234 0.7500 0.2268
C14_2 C 0.7076(6) 0.7500 0.0069(4)
H5_2 H 0.6745 0.8308 0.0028
H8_2 H 0.6745 0.6692 0.0028
O2_2 O 0.9190(2) 0.4877(6) 0.81953(18)
O6_2 O 0.8606(3) 0.3893(5) 0.89472(19)
C1_2 C 0.8509(4) 0.6273(7) 0.8872(2)
C5_2 C 0.8784(4) 0.4971(8) 0.8663(3)
C7_2 C 0.8769(6) 0.7500 0.8652(4)
C12_2 C 0.7942(4) 0.6286(6) 0.9335(2)
H4_2 H 0.7747 0.5463 0.9494
C13_2 C 0.7679(5) 0.7500 0.9551(4)
H6_2 H 0.918(5) 0.7500 0.829(4)
C15_2 C 0.8509(4) 0.8727(7) 0.8872(2)
C17_2 C 0.7942(4) 0.8714(6) 0.9335(2)
H7_2 H 0.7747 0.9537 0.9494
C1_3 C 0.1491(4) 0.1273(7) 0.1128(2)
C7_3 C 0.1231(6) 0.2500 0.1348(4)
C12_3 C 0.2058(4) 0.1286(6) 0.0665(2)
H4_3 H 0.2253 0.0463 0.0506
C13_3 C 0.2321(5) 0.2500 0.0449(4)
H6_3 H 0.082(5) 0.2500 0.171(4)
C15_3 C 0.1491(4) 0.3727(7) 0.1128(2)
C16_3 C 0.1216(4) 0.5029(8) 0.1337(3)
C17_3 C 0.2058(4) 0.3714(6) 0.0665(2)
H7_3 H 0.2253 0.4537 0.0506
O3_3 O 0.0177(3) 0.2500 0.8983(2)
O4_3 O 0.0361(3) 0.2500 0.8003(2)
C2_3 C 0.1464(5) 0.2500 0.8632(3)
C3_3 C 0.2561(5) 0.2500 0.9309(4)
C4_3 C 0.2727(5) 0.2500 0.8214(4)
C6_3 C 0.0618(5) 0.2500 0.8538(4)
C8_3 C 0.1791(5) 0.2500 0.9220(4)
H1_3 H 0.1460 0.2500 0.9563
C9_3 C 0.3265(5) 0.2500 0.7675(3)
C10_3 C 0.3045(6) 0.2500 0.8797(4)
H2_3 H 0.3588 0.2500 0.8847
C11_3 C 0.1969(6) 0.2500 0.8132(4)
H3_3 H 0.1766 0.2500 0.7732
C14_3 C 0.2924(6) 0.2500 0.9931(4)
H5_3 H 0.3255 0.3308 0.9972
H8_3 H 0.3255 0.1692 0.9972
C5_3 C 0.1216(4) 0.9971(8) 0.1337(3)
C5_4 C 0.3784(4) 0.0029(8) 0.6337(3)
O3_4 O 0.4823(3) 0.7500 0.3983(2)
O4_4 O 0.4639(3) 0.7500 0.3003(2)
C1_4 C 0.3509(4) 0.8727(7) 0.6128(2)
C2_4 C 0.3536(5) 0.7500 0.3632(3)
C3_4 C 0.2439(5) 0.7500 0.4309(4)
C4_4 C 0.2273(5) 0.7500 0.3214(4)
C6_4 C 0.4382(5) 0.7500 0.3538(4)
C7_4 C 0.3769(6) 0.7500 0.6348(4)
C8_4 C 0.3209(5) 0.7500 0.4220(4)
H1_4 H 0.3540 0.7500 0.4563
C9_4 C 0.1735(5) 0.7500 0.2675(3)
C10_4 C 0.1955(6) 0.7500 0.3797(4)
H2_4 H 0.1412 0.7500 0.3847
C11_4 C 0.3031(6) 0.7500 0.3132(4)
H3_4 H 0.3234 0.7500 0.2732
C12_4 C 0.2942(4) 0.8714(6) 0.5665(2)
H4_4 H 0.2747 0.9537 0.5506
C13_4 C 0.2679(5) 0.7500 0.5449(4)
C14_4 C 0.2076(6) 0.7500 0.4931(4)
H5_4 H 0.1745 0.6692 0.4972
H6_4 H 0.418(5) 0.7500 0.671(4)
C15_4 C 0.3509(4) 0.6273(7) 0.6128(2)
C16_4 C 0.3784(4) 0.4971(8) 0.6337(3)
C17_4 C 0.2942(4) 0.6286(6) 0.5665(2)
H7_4 H 0.2747 0.5463 0.5506
H8_4 H 0.1745 0.8308 0.4972
loop_
_geom_bond_atom_site_label_1
_geom_bond_atom_site_label_2
_geom_bond_site_symmetry_1
_geom_bond_site_symmetry_2
In1 O3 1_555 1_555
O1 C9 1_555 1_555
O2 C5 1_555 1_555
O3 C6 1_555 1_555
O4 In1 1_555 1_555
O5 C9 1_555 1_555
O6 C5 1_555 1_555
C1 C5 1_555 1_555
C2 C6 1_555 1_555
C3 C8 1_555 1_555
C4 C9 1_555 1_555
C6 O4 1_555 1_555
C7 C1 1_555 1_555
C8 C2 1_555 1_555
H1 C8 1_555 1_555
C10 C3 1_555 1_555
H2 C10 1_555 1_555
C11 C2 1_555 1_555
H3 C11 1_555 1_555
C12 C1 1_555 1_555
H4 C12 1_555 1_555
C13 C12 1_555 1_555
C14 C3 1_555 1_555
H5 C14 1_555 1_555
H6 C7 1_555 1_555
In2 O1 1_555 1_555
In3 O2 1_555 1_555
O7 In1 1_555 1_555
O9 In1 1_555 1_555
O10 In1 1_555 1_555
O11 In1 1_555 1_555
O13 In1 1_555 1_555
O14 In1 1_555 1_555
C15 C7 1_555 1_555
C17 C13 1_555 1_555
H7 C17 1_555 1_555
H8 C14 1_555 1_555
O5 In2 1_555 1_555
O6 In3 1_555 1_555
C4 C10 1_555 1_555
C4 C11 1_555 1_555
C13 C14 1_555 1_555
C15 C17 1_555 1_555
In3 O8 1_555 1_555
O8 C16 1_555 1_555
O12 In3 1_555 1_555
C16 O12 1_555 1_555
O7_2 In1_2 1_555 1_555
O9_2 In1_2 1_555 1_555
O10_2 In1_2 1_555 1_555
O11_2 In1_2 1_555 1_555
O13_2 In1_2 1_555 1_555
O14_2 In1_2 1_555 1_555
In2 O8_2 1_555 1_555
O8_2 C16_2 1_555 1_555
O12_2 In2 1_555 1_555
C16_2 O12_2 1_555 1_555
O1_2 C9_2 1_555 1_555
O3_2 C6_2 1_555 1_555
O5_2 C9_2 1_555 1_555
C2_2 C6_2 1_555 1_555
C3_2 C8_2 1_555 1_555
C4_2 C9_2 1_555 1_555
C6_2 O4_2 1_555 1_555
C8_2 C2_2 1_555 1_555
H1_2 C8_2 1_555 1_555
C10_2 C3_2 1_555 1_555
H2_2 C10_2 1_555 1_555
C11_2 C2_2 1_555 1_555
H3_2 C11_2 1_555 1_555
C14_2 C3_2 1_555 1_555
H5_2 C14_2 1_555 1_555
In3 O1_2 1_555 1_555
H8_2 C14_2 1_555 1_555
O5_2 In3 1_555 1_555
C4_2 C10_2 1_555 1_555
C4_2 C11_2 1_555 1_555
O2_2 C5_2 1_555 1_555
O6_2 C5_2 1_555 1_555
C1_2 C5_2 1_555 1_555
C7_2 C1_2 1_555 1_555
C12_2 C1_2 1_555 1_555
H4_2 C12_2 1_555 1_555
C13_2 C12_2 1_555 1_555
H6_2 C7_2 1_555 1_555
In2 O2_2 1_555 1_555
C15_2 C7_2 1_555 1_555
C17_2 C13_2 1_555 1_555
H7_2 C17_2 1_555 1_555
O6_2 In2 1_555 1_555
C15_2 C17_2 1_555 1_555
C7_3 C1_3 1_555 1_555
C12_3 C1_3 1_555 1_555
H4_3 C12_3 1_555 1_555
C13_3 C12_3 1_555 1_555
H6_3 C7_3 1_555 1_555
O9_2 C16_3 1_555 1_555
C15_3 C7_3 1_555 1_555
C16_3 O13_2 1_555 1_555
C17_3 C13_3 1_555 1_555
H7_3 C17_3 1_555 1_555
C15_3 C16_3 1_555 1_555
C15_3 C17_3 1_555 1_555
O7 C9_3 1_555 1_555
O3_3 C6_3 1_555 1_555
O11 C9_3 1_555 1_555
C2_3 C6_3 1_555 1_555
C3_3 C8_3 1_555 1_555
C4_3 C9_3 1_555 1_555
C6_3 O4_3 1_555 1_555
C8_3 C2_3 1_555 1_555
H1_3 C8_3 1_555 1_555
C10_3 C3_3 1_555 1_555
H2_3 C10_3 1_555 1_555
C11_3 C2_3 1_555 1_555
H3_3 C11_3 1_555 1_555
C14_3 C3_3 1_555 1_555
H5_3 C14_3 1_555 1_555
H8_3 C14_3 1_555 1_555
C4_3 C10_3 1_555 1_555
C4_3 C11_3 1_555 1_555
O10_2 C5_3 1_555 1_555
O14_2 C5_3 1_555 1_555
O10 C5_4 1_555 1_555
O14 C5_4 1_555 1_555
In3 O3_4 1_555 1_555
O7_2 C9_4 1_555 1_555
O3_4 C6_4 1_555 1_555
O4_4 In3 1_555 1_555
O11_2 C9_4 1_555 1_555
C2_4 C6_4 1_555 1_555
C3_4 C8_4 1_555 1_555
C4_4 C9_4 1_555 1_555
C6_4 O4_4 1_555 1_555
C7_4 C1_4 1_555 1_555
C8_4 C2_4 1_555 1_555
H1_4 C8_4 1_555 1_555
C10_4 C3_4 1_555 1_555
H2_4 C10_4 1_555 1_555
C11_4 C2_4 1_555 1_555
H3_4 C11_4 1_555 1_555
C12_4 C1_4 1_555 1_555
H4_4 C12_4 1_555 1_555
C13_4 C12_4 1_555 1_555
C14_4 C3_4 1_555 1_555
H5_4 C14_4 1_555 1_555
H6_4 C7_4 1_555 1_555
O9 C16_4 1_555 1_555
C15_4 C7_4 1_555 1_555
C16_4 O13 1_555 1_555
C17_4 C13_4 1_555 1_555
H7_4 C17_4 1_555 1_555
H8_4 C14_4 1_555 1_555
C4_4 C10_4 1_555 1_555
C4_4 C11_4 1_555 1_555
C13_4 C14_4 1_555 1_555
C15_4 C16_4 1_555 1_555
C15_4 C17_4 1_555 1_555

#END
