
###############################################################################
#
# This file contains modified crystal structure data generated from the
# MOF subset of the Cambridge Structural Database (CSD) v543 
# hosted by the Cambridge Crystallographic Data Centre (CCDC).
#
# This work is licensed under the Creative Commons
# Attribution-NonCommercial-ShareAlike 4.0 International License.
# To view a copy of this license, visit
# http://creativecommons.org/licenses/by-nc-sa/4.0/
# or send a letter to
# Creative Commons, PO Box 1866, Mountain View, CA 94042, USA.
#
# CIF created using the CSD Python API on 29 September 2022
# The structure has been converted into the P1 space group
# The structure has a 3D framework
# The original CSD entry ICALUV is in the orthorhombic crystal system
# The framework has been calculated to contain at least 10.0% void space
# The void calculation uses a probe of radius 1.32A, grid spacing 0.4
#
###############################################################################

data_ICALUV
_chemical_formula_moiety         '(C152 H96 Co8 N16 O32)n'
_symmetry_cell_setting           triclinic
_symmetry_space_group_name_H-M   'P 1'
_symmetry_Int_Tables_number      1
_space_group_name_Hall           'P 1'
loop_
_symmetry_equiv_pos_site_id
_symmetry_equiv_pos_as_xyz
1 x,y,z
_cell_length_a                   26.6496(5)
_cell_length_b                   11.4204(2)
_cell_length_c                   17.5511(3)
_cell_angle_alpha                90
_cell_angle_beta                 90
_cell_angle_gamma                90
_cell_volume                     5341.66
loop_
_atom_site_label
_atom_site_type_symbol
_atom_site_fract_x
_atom_site_fract_y
_atom_site_fract_z
Co5 Co 0.35677(3) 0.05918(5) 0.26425(4)
O2 O 0.20092(15) 0.0558(3) 0.6718(2)
O4 O 0.30247(13) 0.0657(2) 0.3439(2)
N1 N 0.35703(14) 0.8699(3) 0.2636(3)
O6 O 0.12192(13) 0.0723(3) 0.6432(2)
N2 N 0.35815(14) 0.2481(3) 0.2670(3)
C2 C 0.00915(16) 0.0320(4) 0.3083(3)
C3 C 0.24004(17) 0.0683(3) 0.4394(3)
C4 C 0.08816(15) 0.1383(3) 0.3193(2)
C5 C 0.22757(17) 0.0530(4) 0.5134(3)
H2 H 0.2508 0.0193 0.5464
C6 C 0.3906(2) 0.5485(3) 0.4816(5)
C7 C 0.39052(19) 0.4181(3) 0.4838(4)
C8 C 0.29148(17) 0.0365(4) 0.4112(3)
N3 N 0.39290(15) 0.1730(3) 0.4817(3)
C9 C 0.1668(2) 0.0698(4) 0.6231(3)
N4 N 0.39309(14) 0.7944(3) 0.4858(3)
C10 C 0.04178(14) 0.1008(3) 0.3495(2)
H3 H 0.0330 0.1232 0.3986
C11 C 0.10104(15) 0.0997(4) 0.2476(2)
H4 H 0.1321 0.1204 0.2276
C12 C 0.12185(15) 0.2192(4) 0.3639(3)
H5 H 0.1010 0.2706 0.3945
H6 H 0.1403 0.2679 0.3283
C14 C 0.35851(19) 0.6254(4) 0.2630(4)
C15 C 0.4310(2) 0.6140(4) 0.4607(5)
H7 H 0.4598 0.5767 0.4430
C16 C 0.20628(14) 0.1220(4) 0.3917(3)
H8 H 0.2153 0.1341 0.3411
C17 C 0.06852(17) 0.0299(4) 0.2038(3)
C18 C 0.3580(2) 0.4933(3) 0.2672(4)
C19 C 0.3962(2) 0.3071(4) 0.2439(4)
H9 H 0.4247 0.2660 0.2289
C20 C 0.3923(2) 0.8114(4) 0.2280(4)
H10 H 0.4168 0.8528 0.2015
C22 C 0.14721(15) 0.1353(3) 0.4920(3)
H11 H 0.1152 0.1536 0.5094
C23 C 0.3208(2) 0.6886(4) 0.2987(4)
H12 H 0.2954 0.6489 0.3243
C24 C 0.18035(17) 0.0867(4) 0.5417(3)
C25 C 0.15912(14) 0.1589(3) 0.4159(2)
C26 C 0.3944(3) 0.6862(5) 0.2283(4)
H13 H 0.4208 0.6475 0.2044
C27 C 0.4293(2) 0.3551(4) 0.4455(4)
H14 H 0.4550 0.3937 0.4199
C28 C 0.3975(2) 0.4291(4) 0.2398(4)
H15 H 0.4251 0.4667 0.2186
C29 C 0.3203(2) 0.4325(4) 0.2951(4)
H16 H 0.2930 0.4719 0.3161
C30 C 0.3203(2) 0.3121(4) 0.2941(4)
H17 H 0.2924 0.2731 0.3133
C31 C 0.32042(19) 0.8090(4) 0.2969(3)
H18 H 0.2939 0.8490 0.3194
C32 C 0.3542(2) 0.3512(4) 0.5192(4)
H19 H 0.3275 0.3872 0.5440
C33 C 0.3500(2) 0.6118(4) 0.5023(5)
H20 H 0.3201 0.5737 0.5137
C34 C 0.4301(2) 0.7326(4) 0.4653(4)
H21 H 0.4594 0.7720 0.4522
C35 C 0.3524(2) 0.7335(4) 0.5067(4)
H22 H 0.3246 0.7741 0.5249
C36 C 0.4272(2) 0.2357(4) 0.4481(3)
H23 H 0.4527 0.1952 0.4234
C37 C 0.3577(2) 0.2339(4) 0.5176(3)
H24 H 0.3333 0.1918 0.5439
Co3 Co 0.14323(3) 0.05918(5) 0.76425(4)
Co8 Co 0.39322(3) 0.98193(5) 0.48374(4)
O10 O 0.29908(15) 0.0558(3) 0.1718(2)
O11 O 0.43005(11) 0.0573(2) 0.29475(18)
O12 O 0.37808(13) 0.0723(3) 0.1432(2)
O3 O 0.32025(11) 0.9819(2) 0.45539(18)
O7 O 0.12790(13) 0.9931(3) 0.1051(2)
C1 C 0.02255(16) 0.9972(4) 0.2335(3)
H1 H 0.0005 0.9525 0.2045
O8 O 0.04876(14) 0.9860(3) 0.0736(2)
C21 C 0.0822(2) 0.9990(3) 0.1241(3)
O9 O 0.44842(12) 0.9703(3) 0.4047(2)
O13 O 0.37210(13) 0.9931(3) 0.6051(2)
O14 O 0.45124(14) 0.9860(3) 0.5736(2)
Co7 Co 0.10678(3) 0.98193(5) 0.98374(4)
O1 O 0.94842(12) 0.0297(3) 0.4047(2)
C13 C 0.95817(17) 0.0000(3) 0.3381(3)
Co6 Co 0.89322(3) 0.01807(5) 0.48374(4)
O5 O 0.93005(11) 0.9427(2) 0.29475(18)
C13_2 C 0.95817(17) 1.0000(3) 0.3381(3)
Co4 Co 0.85677(3) 0.94082(5) 0.26425(4)
O5_2 O 0.06995(11) 0.0573(2) 0.79475(18)
C13_3 C 0.04183(17) 0.0000(3) 0.8381(3)
O1_2 O 0.05158(12) 0.9703(3) 0.9047(2)
C13_4 C 0.04183(17) 1.0000(3) 0.8381(3)
O13_2 O 0.62790(13) 0.0069(3) 0.1051(2)
O14_2 O 0.54876(14) 0.0140(3) 0.0736(2)
Co2 Co 0.60678(3) 0.01807(5) 0.98374(4)
O3_2 O 0.67975(11) 0.0181(2) 0.95539(18)
O7_2 O 0.87210(13) 0.0069(3) 0.6051(2)
C1_2 C 0.97745(16) 0.0028(4) 0.7335(3)
H1_2 H 0.9995 0.0475 0.7045
O8_2 O 0.95124(14) 0.0140(3) 0.5736(2)
C21_2 C 0.9178(2) 0.0010(3) 0.6241(3)
O9_2 O 0.55158(12) 0.0297(3) 0.9047(2)
N5 N 0.64297(14) 0.1301(3) 0.7636(3)
N6 N 0.60691(14) 0.2056(3) 0.9858(3)
O2_2 O 0.79908(15) 0.9442(3) 0.1718(2)
O6_2 O 0.87808(13) 0.9277(3) 0.1432(2)
C5_2 C 0.77243(17) 0.9470(4) 0.0134(3)
H2_2 H 0.7492 0.9807 0.0464
C9_2 C 0.8332(2) 0.9302(4) 0.1231(3)
H11_2 H 0.8848 0.8464 0.0094
C24_2 C 0.81965(17) 0.9133(4) 0.0417(3)
C32_2 C 0.6458(2) 0.6488(4) 0.0192(4)
H19_2 H 0.6725 0.6128 0.0440
C33_2 C 0.6500(2) 0.3882(4) 0.0023(5)
H20_2 H 0.6799 0.4263 0.0137
C35_2 C 0.6476(2) 0.2665(4) 0.0067(4)
H22_2 H 0.6754 0.2259 0.0249
C37_2 C 0.6423(2) 0.7661(4) 0.0176(3)
H24_2 H 0.6667 0.8082 0.0439
Co1 Co 0.64323(3) 0.94082(5) 0.76425(4)
O4_2 O 0.69753(13) 0.9343(2) 0.8439(2)
N2_2 N 0.64185(14) 0.7519(3) 0.7670(3)
C2_2 C 0.99085(16) 0.9680(4) 0.8083(3)
C3_2 C 0.75996(17) 0.9317(3) 0.9394(3)
C4_2 C 0.91184(15) 0.8617(3) 0.8193(2)
C6_2 C 0.6094(2) 0.4515(3) 0.9816(5)
C7_2 C 0.60948(19) 0.5819(3) 0.9838(4)
C8_2 C 0.70852(17) 0.9635(4) 0.9112(3)
N3_2 N 0.60710(15) 0.8270(3) 0.9817(3)
C10_2 C 0.95822(14) 0.8992(3) 0.8495(2)
H3_2 H 0.9670 0.8768 0.8986
C11_2 C 0.89896(15) 0.9003(4) 0.7476(2)
H4_2 H 0.8679 0.8796 0.7276
C12_2 C 0.87815(15) 0.7808(4) 0.8639(3)
H5_2 H 0.8990 0.7294 0.8945
H6_2 H 0.8597 0.7321 0.8283
C14_2 C 0.64149(19) 0.3746(4) 0.7630(4)
C15_2 C 0.5690(2) 0.3860(4) 0.9607(5)
H7_2 H 0.5402 0.4233 0.9430
C16_2 C 0.79372(14) 0.8780(4) 0.8917(3)
H8_2 H 0.7847 0.8659 0.8411
C17_2 C 0.93148(17) 0.9701(4) 0.7038(3)
C18_2 C 0.6420(2) 0.5067(3) 0.7672(4)
C19_2 C 0.6038(2) 0.6929(4) 0.7439(4)
H9_2 H 0.5753 0.7340 0.7289
C20_2 C 0.6077(2) 0.1886(4) 0.7280(4)
H10_2 H 0.5832 0.1472 0.7015
C22_2 C 0.85279(15) 0.8647(3) 0.9920(3)
C23_2 C 0.6792(2) 0.3114(4) 0.7987(4)
H12_2 H 0.7046 0.3511 0.8243
C25_2 C 0.84088(14) 0.8411(3) 0.9159(2)
C26_2 C 0.6056(3) 0.3138(5) 0.7283(4)
H13_2 H 0.5792 0.3525 0.7044
C27_2 C 0.5707(2) 0.6449(4) 0.9455(4)
H14_2 H 0.5450 0.6063 0.9199
C28_2 C 0.6025(2) 0.5709(4) 0.7398(4)
H15_2 H 0.5749 0.5333 0.7186
C29_2 C 0.6797(2) 0.5675(4) 0.7951(4)
H16_2 H 0.7070 0.5281 0.8161
C30_2 C 0.6797(2) 0.6879(4) 0.7941(4)
H17_2 H 0.7076 0.7269 0.8133
C31_2 C 0.67958(19) 0.1910(4) 0.7969(3)
H18_2 H 0.7061 0.1510 0.8194
C34_2 C 0.5699(2) 0.2674(4) 0.9653(4)
H21_2 H 0.5406 0.2280 0.9522
C36_2 C 0.5728(2) 0.7643(4) 0.9481(3)
H23_2 H 0.5473 0.8048 0.9234
O10_2 O 0.70092(15) 0.9442(3) 0.6718(2)
O11_2 O 0.56995(11) 0.9427(2) 0.79475(18)
O12_2 O 0.62192(13) 0.9277(3) 0.6432(2)
C5_3 C 0.27243(17) 0.0530(4) 0.0134(3)
H2_3 H 0.2492 0.0193 0.0464
C9_3 C 0.3332(2) 0.0698(4) 0.1231(3)
H11_3 H 0.3848 0.1536 0.0094
C24_3 C 0.31965(17) 0.0867(4) 0.0417(3)
C32_3 C 0.1458(2) 0.3512(4) 0.0192(4)
H19_3 H 0.1725 0.3872 0.0440
C33_3 C 0.1500(2) 0.6118(4) 0.0023(5)
H20_3 H 0.1799 0.5737 0.0137
C35_3 C 0.1476(2) 0.7335(4) 0.0067(4)
H22_3 H 0.1754 0.7741 0.0249
C37_3 C 0.1423(2) 0.2339(4) 0.0176(3)
H24_3 H 0.1667 0.1918 0.0439
O4_3 O 0.19753(13) 0.0657(2) 0.8439(2)
N1_2 N 0.14297(14) 0.8699(3) 0.7636(3)
N2_3 N 0.14185(14) 0.2481(3) 0.7670(3)
C2_3 C 0.49085(16) 0.0320(4) 0.8083(3)
C3_3 C 0.25996(17) 0.0683(3) 0.9394(3)
C4_3 C 0.41184(15) 0.1383(3) 0.8193(2)
C6_3 C 0.1094(2) 0.5485(3) 0.9816(5)
C7_3 C 0.10948(19) 0.4181(3) 0.9838(4)
C8_3 C 0.20852(17) 0.0365(4) 0.9112(3)
N3_3 N 0.10710(15) 0.1730(3) 0.9817(3)
N4_2 N 0.10691(14) 0.7944(3) 0.9858(3)
C10_3 C 0.45822(14) 0.1008(3) 0.8495(2)
H3_3 H 0.4670 0.1232 0.8986
C11_3 C 0.39896(15) 0.0997(4) 0.7476(2)
H4_3 H 0.3679 0.1204 0.7276
C12_3 C 0.37815(15) 0.2192(4) 0.8639(3)
H5_3 H 0.3990 0.2706 0.8945
H6_3 H 0.3597 0.2679 0.8283
C13_5 C 0.54183(17) 0.0000(3) 0.8381(3)
C14_3 C 0.14149(19) 0.6254(4) 0.7630(4)
C15_3 C 0.0690(2) 0.6140(4) 0.9607(5)
H7_3 H 0.0402 0.5767 0.9430
C16_3 C 0.29372(14) 0.1220(4) 0.8917(3)
H8_3 H 0.2847 0.1341 0.8411
C17_3 C 0.43148(17) 0.0299(4) 0.7038(3)
C18_3 C 0.1420(2) 0.4933(3) 0.7672(4)
C19_3 C 0.1038(2) 0.3071(4) 0.7439(4)
H9_3 H 0.0753 0.2660 0.7289
C20_3 C 0.1077(2) 0.8114(4) 0.7280(4)
H10_3 H 0.0832 0.8528 0.7015
C22_3 C 0.35279(15) 0.1353(3) 0.9920(3)
C23_3 C 0.1792(2) 0.6886(4) 0.7987(4)
H12_3 H 0.2046 0.6489 0.8243
C25_3 C 0.34088(14) 0.1589(3) 0.9159(2)
C26_3 C 0.1056(3) 0.6862(5) 0.7283(4)
H13_3 H 0.0792 0.6475 0.7044
C27_3 C 0.0707(2) 0.3551(4) 0.9455(4)
H14_3 H 0.0450 0.3937 0.9199
C28_3 C 0.1025(2) 0.4291(4) 0.7398(4)
H15_3 H 0.0749 0.4667 0.7186
C29_3 C 0.1797(2) 0.4325(4) 0.7951(4)
H16_3 H 0.2070 0.4719 0.8161
C30_3 C 0.1797(2) 0.3121(4) 0.7941(4)
H17_3 H 0.2076 0.2731 0.8133
C31_3 C 0.17958(19) 0.8090(4) 0.7969(3)
H18_3 H 0.2061 0.8490 0.8194
C34_3 C 0.0699(2) 0.7326(4) 0.9653(4)
H21_3 H 0.0406 0.7720 0.9522
C36_3 C 0.0728(2) 0.2357(4) 0.9481(3)
H23_3 H 0.0473 0.1952 0.9234
O3_3 O 0.17975(11) 0.9819(2) 0.95539(18)
C1_3 C 0.47745(16) 0.9972(4) 0.7335(3)
H1_3 H 0.4995 0.9525 0.7045
C13_6 C 0.54183(17) 1.0000(3) 0.8381(3)
C21_3 C 0.4178(2) 0.9990(3) 0.6241(3)
O3_4 O 0.82025(11) 0.0181(2) 0.45539(18)
C1_4 C 0.52255(16) 0.0028(4) 0.2335(3)
H1_4 H 0.5005 0.0475 0.2045
C13_7 C 0.45817(17) 0.0000(3) 0.3381(3)
C21_4 C 0.5822(2) 0.0010(3) 0.1241(3)
N5_2 N 0.85703(14) 0.1301(3) 0.2636(3)
N6_2 N 0.89309(14) 0.2056(3) 0.4858(3)
O4_4 O 0.80247(13) 0.9343(2) 0.3439(2)
N2_4 N 0.85815(14) 0.7519(3) 0.2670(3)
C2_4 C 0.50915(16) 0.9680(4) 0.3083(3)
C3_4 C 0.74004(17) 0.9317(3) 0.4394(3)
C4_4 C 0.58816(15) 0.8617(3) 0.3193(2)
C5_4 C 0.72757(17) 0.9470(4) 0.5134(3)
H2_4 H 0.7508 0.9807 0.5464
C6_4 C 0.8906(2) 0.4515(3) 0.4816(5)
C7_4 C 0.89052(19) 0.5819(3) 0.4838(4)
C8_4 C 0.79148(17) 0.9635(4) 0.4112(3)
N3_4 N 0.89290(15) 0.8270(3) 0.4817(3)
C9_4 C 0.6668(2) 0.9302(4) 0.6231(3)
C10_4 C 0.54178(14) 0.8992(3) 0.3495(2)
H3_4 H 0.5330 0.8768 0.3986
C11_4 C 0.60104(15) 0.9003(4) 0.2476(2)
H4_4 H 0.6321 0.8796 0.2276
C12_4 C 0.62185(15) 0.7808(4) 0.3639(3)
H5_4 H 0.6010 0.7294 0.3945
H6_4 H 0.6403 0.7321 0.3283
C13_8 C 0.45817(17) 1.0000(3) 0.3381(3)
C14_4 C 0.85851(19) 0.3746(4) 0.2630(4)
C15_4 C 0.9310(2) 0.3860(4) 0.4607(5)
H7_4 H 0.9598 0.4233 0.4430
C16_4 C 0.70628(14) 0.8780(4) 0.3917(3)
H8_4 H 0.7153 0.8659 0.3411
C17_4 C 0.56852(17) 0.9701(4) 0.2038(3)
C18_4 C 0.8580(2) 0.5067(3) 0.2672(4)
C19_4 C 0.8962(2) 0.6929(4) 0.2439(4)
H9_4 H 0.9247 0.7340 0.2289
C20_4 C 0.8923(2) 0.1886(4) 0.2280(4)
H10_4 H 0.9168 0.1472 0.2015
C22_4 C 0.64721(15) 0.8647(3) 0.4920(3)
H11_4 H 0.6152 0.8464 0.5094
C23_4 C 0.8208(2) 0.3114(4) 0.2987(4)
H12_4 H 0.7954 0.3511 0.3243
C24_4 C 0.68035(17) 0.9133(4) 0.5417(3)
C25_4 C 0.65912(14) 0.8411(3) 0.4159(2)
C26_4 C 0.8944(3) 0.3138(5) 0.2283(4)
H13_4 H 0.9208 0.3525 0.2044
C27_4 C 0.9293(2) 0.6449(4) 0.4455(4)
H14_4 H 0.9550 0.6063 0.4199
C28_4 C 0.8975(2) 0.5709(4) 0.2398(4)
H15_4 H 0.9251 0.5333 0.2186
C29_4 C 0.8203(2) 0.5675(4) 0.2951(4)
H16_4 H 0.7930 0.5281 0.3161
C30_4 C 0.8203(2) 0.6879(4) 0.2941(4)
H17_4 H 0.7924 0.7269 0.3133
C31_4 C 0.82042(19) 0.1910(4) 0.2969(3)
H18_4 H 0.7939 0.1510 0.3194
C32_4 C 0.8542(2) 0.6488(4) 0.5192(4)
H19_4 H 0.8275 0.6128 0.5440
C33_4 C 0.8500(2) 0.3882(4) 0.5023(5)
H20_4 H 0.8201 0.4263 0.5137
C34_4 C 0.9301(2) 0.2674(4) 0.4653(4)
H21_4 H 0.9594 0.2280 0.4522
C35_4 C 0.8524(2) 0.2665(4) 0.5067(4)
H22_4 H 0.8246 0.2259 0.5249
C36_4 C 0.9272(2) 0.7643(4) 0.4481(3)
H23_4 H 0.9527 0.8048 0.4234
C37_4 C 0.8577(2) 0.7661(4) 0.5176(3)
H24_4 H 0.8333 0.8082 0.5439
loop_
_geom_bond_atom_site_label_1
_geom_bond_atom_site_label_2
_geom_bond_site_symmetry_1
_geom_bond_site_symmetry_2
Co5 O4 1_555 1_555
O2 C9 1_555 1_555
O4 C8 1_555 1_555
N1 C20 1_555 1_555
O6 C9 1_555 1_555
N2 Co5 1_555 1_555
C3 C5 1_555 1_555
C4 C10 1_555 1_555
C5 H2 1_555 1_555
C6 C7 1_555 1_555
C7 C27 1_555 1_555
C8 C3 1_555 1_555
C9 C24 1_555 1_555
N4 C34 1_555 1_555
C10 C2 1_555 1_555
H3 C10 1_555 1_555
C11 C4 1_555 1_555
H4 C11 1_555 1_555
C12 C4 1_555 1_555
H5 C12 1_555 1_555
H6 C12 1_555 1_555
C14 C18 1_555 1_555
C15 C6 1_555 1_555
H7 C15 1_555 1_555
C16 C3 1_555 1_555
H8 C16 1_555 1_555
C18 C28 1_555 1_555
C19 N2 1_555 1_555
H9 C19 1_555 1_555
C20 H10 1_555 1_555
C22 H11 1_555 1_555
C23 C14 1_555 1_555
H12 C23 1_555 1_555
C24 C5 1_555 1_555
C25 C12 1_555 1_555
C26 C14 1_555 1_555
H13 C26 1_555 1_555
C27 H14 1_555 1_555
C28 C19 1_555 1_555
H15 C28 1_555 1_555
C29 C18 1_555 1_555
H16 C29 1_555 1_555
C30 N2 1_555 1_555
H17 C30 1_555 1_555
C31 N1 1_555 1_555
H18 C31 1_555 1_555
C32 C7 1_555 1_555
H19 C32 1_555 1_555
C33 C6 1_555 1_555
H20 C33 1_555 1_555
C34 C15 1_555 1_555
H21 C34 1_555 1_555
C35 N4 1_555 1_555
H22 C35 1_555 1_555
C36 N3 1_555 1_555
H23 C36 1_555 1_555
C37 N3 1_555 1_555
H24 C37 1_555 1_555
Co3 O2 1_555 1_555
Co8 N4 1_555 1_555
O10 Co5 1_555 1_555
O11 Co5 1_555 1_555
O12 Co5 1_555 1_555
O6 Co3 1_555 1_555
C11 C17 1_555 1_555
C16 C25 1_555 1_555
C20 C26 1_555 1_555
C22 C24 1_555 1_555
C22 C25 1_555 1_555
C23 C31 1_555 1_555
C27 C36 1_555 1_555
C29 C30 1_555 1_555
C32 C37 1_555 1_555
C33 C35 1_555 1_555
Co8 O3 1_555 1_555
O7 C21 1_555 1_555
C1 H1 1_555 1_555
O8 C21 1_555 1_555
O9 Co8 1_555 1_555
O13 Co8 1_555 1_555
O14 Co8 1_555 1_555
O1 C13 1_555 1_555
Co6 O1 1_555 1_555
O5 C13_2 1_555 1_555
Co4 O5 1_555 1_555
O5_2 C13_3 1_555 1_555
Co3 O5_2 1_555 1_555
O1_2 C13_4 1_555 1_555
Co7 O1_2 1_555 1_555
Co2 O3_2 1_555 1_555
O7_2 C21_2 1_555 1_555
C1_2 H1_2 1_555 1_555
O8_2 C21_2 1_555 1_555
Co6 O7_2 1_555 1_555
O9_2 Co2 1_555 1_555
N6 Co2 1_555 1_555
O8_2 Co6 1_555 1_555
O2_2 C9_2 1_555 1_555
O6_2 C9_2 1_555 1_555
C5_2 H2_2 1_555 1_555
C9_2 C24_2 1_555 1_555
C24_2 C5_2 1_555 1_555
H19_2 C32_2 1_555 1_555
H20_2 C33_2 1_555 1_555
H22_2 C35_2 1_555 1_555
H24_2 C37_2 1_555 1_555
Co4 O2_2 1_555 1_555
O6_2 Co4 1_555 1_555
C32_2 C37_2 1_555 1_555
C33_2 C35_2 1_555 1_555
Co1 O4_2 1_555 1_555
O4_2 C8_2 1_555 1_555
N5 C20_2 1_555 1_555
N2_2 Co1 1_555 1_555
C4_2 C10_2 1_555 1_555
C6_2 C7_2 1_555 1_555
C7_2 C27_2 1_555 1_555
C8_2 C3_2 1_555 1_555
N6 C34_2 1_555 1_555
C10_2 C2_2 1_555 1_555
H3_2 C10_2 1_555 1_555
C11_2 C4_2 1_555 1_555
H4_2 C11_2 1_555 1_555
C12_2 C4_2 1_555 1_555
H5_2 C12_2 1_555 1_555
H6_2 C12_2 1_555 1_555
C14_2 C18_2 1_555 1_555
C15_2 C6_2 1_555 1_555
H7_2 C15_2 1_555 1_555
C16_2 C3_2 1_555 1_555
H8_2 C16_2 1_555 1_555
C18_2 C28_2 1_555 1_555
C19_2 N2_2 1_555 1_555
H9_2 C19_2 1_555 1_555
C20_2 H10_2 1_555 1_555
C23_2 C14_2 1_555 1_555
H12_2 C23_2 1_555 1_555
C25_2 C12_2 1_555 1_555
C26_2 C14_2 1_555 1_555
H13_2 C26_2 1_555 1_555
C27_2 H14_2 1_555 1_555
C28_2 C19_2 1_555 1_555
H15_2 C28_2 1_555 1_555
C29_2 C18_2 1_555 1_555
H16_2 C29_2 1_555 1_555
C30_2 N2_2 1_555 1_555
H17_2 C30_2 1_555 1_555
C31_2 N5 1_555 1_555
H18_2 C31_2 1_555 1_555
C34_2 C15_2 1_555 1_555
H21_2 C34_2 1_555 1_555
C36_2 N3_2 1_555 1_555
H23_2 C36_2 1_555 1_555
O10_2 Co1 1_555 1_555
O11_2 Co1 1_555 1_555
O12_2 Co1 1_555 1_555
C11_2 C17_2 1_555 1_555
C16_2 C25_2 1_555 1_555
C20_2 C26_2 1_555 1_555
C22_2 C25_2 1_555 1_555
C23_2 C31_2 1_555 1_555
C27_2 C36_2 1_555 1_555
C29_2 C30_2 1_555 1_555
O10 C9_3 1_555 1_555
O12 C9_3 1_555 1_555
C5_3 H2_3 1_555 1_555
C9_3 C24_3 1_555 1_555
C24_3 C5_3 1_555 1_555
H19_3 C32_3 1_555 1_555
H20_3 C33_3 1_555 1_555
H22_3 C35_3 1_555 1_555
H24_3 C37_3 1_555 1_555
C32_3 C37_3 1_555 1_555
C33_3 C35_3 1_555 1_555
Co3 O4_3 1_555 1_555
O9_2 C13_5 1_555 1_555
O4_3 C8_3 1_555 1_555
N1_2 C20_3 1_555 1_555
N2_3 Co3 1_555 1_555
C4_3 C10_3 1_555 1_555
C6_3 C7_3 1_555 1_555
C7_3 C27_3 1_555 1_555
C8_3 C3_3 1_555 1_555
N4_2 C34_3 1_555 1_555
C10_3 C2_3 1_555 1_555
H3_3 C10_3 1_555 1_555
C11_3 C4_3 1_555 1_555
H4_3 C11_3 1_555 1_555
C12_3 C4_3 1_555 1_555
H5_3 C12_3 1_555 1_555
H6_3 C12_3 1_555 1_555
C13_5 C2_3 1_555 1_555
C14_3 C18_3 1_555 1_555
C15_3 C6_3 1_555 1_555
H7_3 C15_3 1_555 1_555
C16_3 C3_3 1_555 1_555
H8_3 C16_3 1_555 1_555
C18_3 C28_3 1_555 1_555
C19_3 N2_3 1_555 1_555
H9_3 C19_3 1_555 1_555
C20_3 H10_3 1_555 1_555
C23_3 C14_3 1_555 1_555
H12_3 C23_3 1_555 1_555
C25_3 C12_3 1_555 1_555
C26_3 C14_3 1_555 1_555
H13_3 C26_3 1_555 1_555
C27_3 H14_3 1_555 1_555
C28_3 C19_3 1_555 1_555
H15_3 C28_3 1_555 1_555
C29_3 C18_3 1_555 1_555
H16_3 C29_3 1_555 1_555
C30_3 N2_3 1_555 1_555
H17_3 C30_3 1_555 1_555
C31_3 N1_2 1_555 1_555
H18_3 C31_3 1_555 1_555
C34_3 C15_3 1_555 1_555
H21_3 C34_3 1_555 1_555
C36_3 N3_3 1_555 1_555
H23_3 C36_3 1_555 1_555
Co7 N4_2 1_555 1_555
C11_3 C17_3 1_555 1_555
C16_3 C25_3 1_555 1_555
C20_3 C26_3 1_555 1_555
C22_3 C25_3 1_555 1_555
C23_3 C31_3 1_555 1_555
C27_3 C36_3 1_555 1_555
C29_3 C30_3 1_555 1_555
Co7 O3_3 1_555 1_555
O11_2 C13_6 1_555 1_555
O13 C21_3 1_555 1_555
C1_3 H1_3 1_555 1_555
O14 C21_3 1_555 1_555
Co6 O3_4 1_555 1_555
O11 C13_7 1_555 1_555
O13_2 C21_4 1_555 1_555
C1_4 H1_4 1_555 1_555
O14_2 C21_4 1_555 1_555
N6_2 Co6 1_555 1_555
Co4 O4_4 1_555 1_555
O9 C13_8 1_555 1_555
O10_2 C9_4 1_555 1_555
O4_4 C8_4 1_555 1_555
N5_2 C20_4 1_555 1_555
O12_2 C9_4 1_555 1_555
N2_4 Co4 1_555 1_555
C3_4 C5_4 1_555 1_555
C4_4 C10_4 1_555 1_555
C5_4 H2_4 1_555 1_555
C6_4 C7_4 1_555 1_555
C7_4 C27_4 1_555 1_555
C8_4 C3_4 1_555 1_555
C9_4 C24_4 1_555 1_555
N6_2 C34_4 1_555 1_555
C10_4 C2_4 1_555 1_555
H3_4 C10_4 1_555 1_555
C11_4 C4_4 1_555 1_555
H4_4 C11_4 1_555 1_555
C12_4 C4_4 1_555 1_555
H5_4 C12_4 1_555 1_555
H6_4 C12_4 1_555 1_555
C13_8 C2_4 1_555 1_555
C14_4 C18_4 1_555 1_555
C15_4 C6_4 1_555 1_555
H7_4 C15_4 1_555 1_555
C16_4 C3_4 1_555 1_555
H8_4 C16_4 1_555 1_555
C18_4 C28_4 1_555 1_555
C19_4 N2_4 1_555 1_555
H9_4 C19_4 1_555 1_555
C20_4 H10_4 1_555 1_555
C22_4 H11_4 1_555 1_555
C23_4 C14_4 1_555 1_555
H12_4 C23_4 1_555 1_555
C24_4 C5_4 1_555 1_555
C25_4 C12_4 1_555 1_555
C26_4 C14_4 1_555 1_555
H13_4 C26_4 1_555 1_555
C27_4 H14_4 1_555 1_555
C28_4 C19_4 1_555 1_555
H15_4 C28_4 1_555 1_555
C29_4 C18_4 1_555 1_555
H16_4 C29_4 1_555 1_555
C30_4 N2_4 1_555 1_555
H17_4 C30_4 1_555 1_555
C31_4 N5_2 1_555 1_555
H18_4 C31_4 1_555 1_555
C32_4 C7_4 1_555 1_555
H19_4 C32_4 1_555 1_555
C33_4 C6_4 1_555 1_555
H20_4 C33_4 1_555 1_555
C34_4 C15_4 1_555 1_555
H21_4 C34_4 1_555 1_555
C35_4 N6_2 1_555 1_555
H22_4 C35_4 1_555 1_555
C36_4 N3_4 1_555 1_555
H23_4 C36_4 1_555 1_555
C37_4 N3_4 1_555 1_555
H24_4 C37_4 1_555 1_555
C11_4 C17_4 1_555 1_555
C16_4 C25_4 1_555 1_555
C20_4 C26_4 1_555 1_555
C22_4 C24_4 1_555 1_555
C22_4 C25_4 1_555 1_555
C23_4 C31_4 1_555 1_555
C27_4 C36_4 1_555 1_555
C29_4 C30_4 1_555 1_555
C32_4 C37_4 1_555 1_555
C33_4 C35_4 1_555 1_555

#END
