
###############################################################################
#
# This file contains modified crystal structure data generated from the
# MOF subset of the Cambridge Structural Database (CSD) v543 
# hosted by the Cambridge Crystallographic Data Centre (CCDC).
#
# This work is licensed under the Creative Commons
# Attribution-NonCommercial-ShareAlike 4.0 International License.
# To view a copy of this license, visit
# http://creativecommons.org/licenses/by-nc-sa/4.0/
# or send a letter to
# Creative Commons, PO Box 1866, Mountain View, CA 94042, USA.
#
# CIF created using the CSD Python API on 29 September 2022
# The structure has been converted into the P1 space group
# The structure has a 3D framework
# The original CSD entry ICAMEG is in the trigonal crystal system
# The original CSD entry ICAMEG is in a Sohncke space group
# The framework has been calculated to contain at least 10.0% void space
# The void calculation uses a probe of radius 1.32A, grid spacing 0.4
#
###############################################################################

data_ICAMEG
_chemical_formula_moiety         '(C207 H153 Co12 N21 O49)n'
_symmetry_cell_setting           triclinic
_symmetry_space_group_name_H-M   'P 1'
_symmetry_Int_Tables_number      1
_space_group_name_Hall           'P 1'
loop_
_symmetry_equiv_pos_site_id
_symmetry_equiv_pos_as_xyz
1 x,y,z
_cell_length_a                   19.8876(4)
_cell_length_b                   19.8876(4)
_cell_length_c                   19.1704(6)
_cell_angle_alpha                90
_cell_angle_beta                 90
_cell_angle_gamma                120
_cell_volume                     6566.39
loop_
_atom_site_label
_atom_site_type_symbol
_atom_site_fract_x
_atom_site_fract_y
_atom_site_fract_z
Co1 Co 0.43357(6) 0.53459(7) 0.32995(6)
Co3 Co 0.07897(6) 0.56193(6) 0.15883(6)
Co4 Co 0.51805(6) 0.43846(6) 0.42488(6)
O1 O 0.1010(3) 0.5229(4) 0.2507(4)
O2 O 0.3206(3) 0.5046(4) 0.3564(4)
O3 O 0.0200(3) 0.4558(4) 0.6340(4)
O4 O 0.4166(3) 0.4292(3) 0.3767(3)
O7 O 0.5922(4) 0.4782(4) 0.8260(4)
O9 O 0.9103(4) 0.6144(4) 0.6598(4)
O10 O 0.6133(4) 0.9094(4) 0.5927(4)
O12 O 0.8525(4) 0.5311(4) 0.7473(4)
O13 O 0.2942(4) 0.4095(4) 0.4328(4)
C1 C 0.0842(5) 0.4314(5) 0.3363(5)
C2 C 0.7285(5) 0.5612(5) 0.7475(5)
H1 H 0.7240 0.5211 0.7757
C3 C 0.1897(5) 0.4213(5) 0.3884(5)
O14 O 0.4753(4) 0.5910(3) 0.4243(4)
C4 C 0.1629(5) 0.4566(5) 0.3441(5)
H2 H 0.1986 0.4991 0.3182
O15 O 0.5266(4) 0.8483(4) 0.5111(4)
C5 C 0.7997(5) 0.6621(5) 0.6656(5)
H3 H 0.8439 0.6894 0.6383
C7 C 0.7436(5) 0.6826(5) 0.6631(5)
C9 C 0.7933(5) 0.6017(5) 0.7076(6)
C11 C 0.6606(6) 0.7986(5) 0.5875(5)
H5 H 0.6883 0.8426 0.6149
C12 C 0.5744(5) 0.6648(5) 0.5088(5)
C13 C 0.0574(5) 0.3288(5) 0.4202(5)
C14 C 0.0319(5) 0.3651(5) 0.3756(5)
C16 C 0.1390(5) 0.3585(5) 0.4262(5)
H7 H 0.1575 0.3347 0.4561
C17 C 0.5988(5) 0.7897(5) 0.5501(5)
O17 O 0.5456(4) 0.5509(4) 0.7864(4)
N1 N 0.1733(5) 0.5635(5) 0.1032(4)
H8 H 0.0198 0.3661 0.5497
C19 C 0.6693(5) 0.5783(5) 0.7470(5)
C20 C 0.5536(6) 0.7231(5) 0.5100(6)
H9 H 0.5111 0.7174 0.4849
C21 C 0.7525(6) 0.7526(6) 0.6241(6)
H10 H 0.7668 0.7944 0.6574
H11 H 0.7951 0.7693 0.5915
C22 C 0.6387(5) 0.6758(5) 0.5460(5)
H12 H 0.6524 0.6374 0.5446
C23 C 0.6833(6) 0.7414(6) 0.5851(5)
O18 O 0.5474(4) 0.5419(4) 0.4685(4)
N3 N 0.6056(6) 0.4323(6) 0.4857(5)
C25 C 0.6788(5) 0.6394(5) 0.7052(5)
H14 H 0.6398 0.6522 0.7052
C27 C 0.5774(5) 0.8543(5) 0.5516(5)
H15 H 0.0267 0.2394 0.4910
C29 C 0.5300(5) 0.5954(6) 0.4641(6)
C30 C 0.0532(5) 0.4659(6) 0.2876(5)
C31 C 0.8581(5) 0.5807(6) 0.7044(6)
C32 C 0.2751(5) 0.4468(5) 0.3936(5)
C33 C 0.5948(6) 0.5307(5) 0.7916(5)
N4 N 0.3915(5) 0.4800(5) 0.2299(5)
C35 C 0.6709(8) 0.3662(9) 0.5141(7)
H17 H 0.6808 0.3261 0.5040
C36 C 0.2289(10) 0.4907(10) 0.0541(7)
H18 H 0.2282 0.4441 0.0469
C37 C 0.4251(7) 0.5125(7) 0.1734(7)
H19 H 0.4721 0.5586 0.1781
C38 C 0.4009(10) 0.4882(10) 0.1048(9)
H20 H 0.4267 0.5174 0.0657
C39 C 0.7096(10) 0.4160(9) 0.5656(9)
H21 H 0.7463 0.4107 0.5914
C45 C 0.6188(7) 0.3737(8) 0.4776(7)
H27 H 0.5899 0.3359 0.4445
C47 C 0.3252(8) 0.4090(9) 0.2263(8)
H29 H 0.3006 0.3849 0.2677
C48 C 0.2935(10) 0.3719(11) 0.1645(9)
H30 H 0.2496 0.3227 0.1632
C49 C 0.1687(10) 0.4924(10) 0.0891(6)
H31 H 0.1254 0.4464 0.1032
C50 C 0.2371(7) 0.6295(8) 0.0857(6)
H32 H 0.2400 0.6765 0.0962
C52 C 0.6385(8) 0.4767(8) 0.5384(7)
H34 H 0.6232 0.5126 0.5494
C55 C 0.6946(9) 0.4756(9) 0.5804(8)
H37 H 0.7202 0.5118 0.6155
C56 C 0.3320(11) 0.4132(11) 0.1015(10)
H38 H 0.3119 0.3910 0.0582
C59 C 0.0395(6) 0.6668(5) 0.0596(5)
H41 H 0.0475 0.6953 0.1003
N6 N 0.0514(5) 0.6037(6) 0.0592(4)
C63 C 0.2999(8) 0.6300(8) 0.0518(7)
H45 H 0.3463 0.6762 0.0450
C64 C 0.2915(10) 0.5617(10) 0.0294(8)
C65 C 0.4073(6) 0.7125(6) 0.2154(5)
H47 H 0.3690 0.7139 0.1886
C66 C 0.4781(7) 0.7800(5) 0.2256(6)
H48 H 0.4872 0.8264 0.2057
C67 C 0.5354(5) 0.7780(4) 0.2656(6)
H49 H 0.5828 0.8231 0.2724
C68 C 0.5219(4) 0.7086(5) 0.2953(4)
H50 H 0.5602 0.7073 0.3221
N7 N 0.4511(4) 0.6411(4) 0.2851(4)
C69 C 0.3938(4) 0.6431(5) 0.2451(4)
H51 H 0.3464 0.5980 0.2383
Co5 Co 0.10102(9) 0.56643(6) 0.66328(6)
Co6 Co 0.53676(6) 0.43436(8) 0.92195(7)
Co8 Co 0.48296(8) 0.92103(6) 0.49216(6)
Co9 Co 0.43807(6) 0.51704(8) 0.82550(6)
Co11 Co 0.92041(8) 0.48195(6) 0.75821(6)
O19 O 0.5442(4) 0.5642(5) 0.3007(4)
O22 O 0.5798(3) 0.4775(4) 0.3345(3)
O23 O 0.4689(4) 0.3214(6) 0.4140(4)
O24 O 0.1517(4) 0.6783(6) 0.1778(4)
O25 O 0.0053(6) 0.4544(4) 0.1197(4)
Co2 Co 0.89760(6) 0.46324(6) 0.25528(7)
O5 O 0.9872(3) 0.5698(3) 0.2116(3)
O6 O 0.7056(4) 0.1157(4) 0.4865(4)
O8 O 0.6786(3) 0.1860(3) 0.5599(3)
O11 O 0.8977(3) 0.4202(3) 0.6678(3)
C6 C 0.8355(6) 0.2955(5) 0.5770(5)
H4 H 0.8011 0.3033 0.6038
C8 C 0.9156(5) 0.3459(5) 0.5817(5)
C10 C 0.9408(6) 0.2704(5) 0.5000(6)
H6 H 0.9788 0.3458 0.3709
C15 C 0.8080(5) 0.2312(5) 0.5291(5)
O16 O 0.9805(3) 0.4352(4) 0.2862(4)
C18 C 0.9667(5) 0.3325(5) 0.5446(5)
N2 N 0.8074(5) 0.3494(5) 0.2963(5)
C24 C 0.8625(5) 0.2209(5) 0.4892(5)
H13 H 0.8455 0.1814 0.4563
C26 C 0.7237(5) 0.1745(5) 0.5254(5)
C28 C 0.9992(5) 0.2549(5) 0.4590(5)
H16 H 0.9714 0.2131 0.4258
C34 C 0.9462(5) 0.4131(5) 0.6324(5)
N5 N 0.9008(6) 0.5124(5) 0.3560(5)
C40 C 0.8908(8) 0.5733(9) 0.3635(8)
H22 H 0.8855 0.5974 0.3240
C41 C 0.8966(9) 0.5017(9) 0.4781(9)
H23 H 0.9009 0.4773 0.5178
C42 C 0.6971(9) 0.2618(9) 0.3584(8)
H24 H 0.6547 0.2538 0.3851
C43 C 0.8997(8) 0.4755(8) 0.4196(7)
H25 H 0.9014 0.4297 0.4177
C44 C 0.8153(8) 0.2881(7) 0.2842(7)
H26 H 0.8566 0.2956 0.2561
C46 C 0.7488(8) 0.3361(9) 0.3321(7)
H28 H 0.7396 0.3766 0.3414
C51 C 0.7684(9) 0.2154(10) 0.3092(8)
H33 H 0.7781 0.1749 0.3010
C53 C 0.8879(11) 0.6028(12) 0.4317(11)
H35 H 0.8864 0.6484 0.4377
C54 C 0.7085(10) 0.2061(10) 0.3457(8)
H36 H 0.6734 0.1570 0.3627
C57 C 0.8877(11) 0.5601(11) 0.4853(11)
H39 H 0.8808 0.5739 0.5300
Co7 Co 0.56564(8) 0.10240(6) 0.58861(7)
O20 O 0.8860(6) 0.4078(4) 0.1593(4)
O21 O 0.8140(3) 0.4926(4) 0.2266(3)
Co4_2 Co 0.56154(6) 0.07959(8) 0.09155(6)
O7_2 O 0.5218(4) 0.1140(6) 0.4927(4)
O9_2 O 0.3856(4) 0.2959(6) 0.3265(4)
C2_2 C 0.4388(5) 0.1673(7) 0.4142(5)
H1_2 H 0.4789 0.2029 0.4424
C5_2 C 0.3379(5) 0.1376(7) 0.3323(5)
H3_2 H 0.3106 0.1545 0.3050
C7_2 C 0.3174(5) 0.0610(7) 0.3298(5)
C9_2 C 0.3983(5) 0.1916(7) 0.3743(6)
C19_2 C 0.4217(5) 0.0910(7) 0.4137(5)
H11_2 H 0.2307 0.0258 0.2582
H12_2 H 0.3626 0.0150 0.2113
O18_2 O 0.4581(4) 0.0055(6) 0.1352(4)
N3_2 N 0.5677(6) 0.1733(8) 0.1524(5)
C25_2 C 0.3606(5) 0.0394(7) 0.3719(5)
C31_2 C 0.4193(6) 0.2774(8) 0.3711(6)
C33_2 C 0.4693(5) 0.0641(8) 0.4583(5)
C35_2 C 0.6338(9) 0.3047(12) 0.1808(7)
H17_2 H 0.6739 0.3547 0.1707
C39_2 C 0.5840(9) 0.2936(13) 0.2323(9)
H21_2 H 0.5893 0.3356 0.2581
C45_2 C 0.6263(8) 0.2451(11) 0.1443(7)
H27_2 H 0.6641 0.2540 0.1112
C52_2 C 0.5233(8) 0.1618(11) 0.2051(7)
H34_2 H 0.4874 0.1106 0.2161
C55_2 C 0.5244(9) 0.2190(13) 0.2471(8)
H37_2 H 0.4882 0.2084 0.2822
O22_2 O 0.5225(4) 0.1023(5) 0.0011(3)
O23_2 O 0.6786(6) 0.1475(7) 0.0806(4)
O2_2 O 0.4954(4) 0.8160(5) 0.0231(4)
O4_2 O 0.5708(3) 0.9874(4) 0.0434(3)
O6_2 O 0.8843(4) 0.5899(6) 0.1532(4)
O10_2 O 0.0906(4) 0.7039(6) 0.2594(4)
O13_2 O 0.5905(4) 0.8847(6) 0.0995(4)
C1_2 C 0.5686(5) 0.6528(7) 0.0030(5)
C3_2 C 0.5787(5) 0.7684(7) 0.0551(5)
O14_2 O 0.4090(3) 0.8843(5) 0.0910(4)
C4_2 C 0.5434(5) 0.7063(7) 0.0108(5)
C6_2 C 0.7045(5) 0.5400(8) 0.2437(5)
H4_2 H 0.6967 0.4978 0.2705
C8_2 C 0.6541(5) 0.5697(7) 0.2484(5)
C10_2 C 0.7296(5) 0.6704(8) 0.1667(6)
C11_2 C 0.2014(5) 0.8620(8) 0.2542(5)
H5_2 H 0.1574 0.8457 0.2816
C12_2 C 0.3352(5) 0.9096(7) 0.1755(5)
C13_2 C 0.6712(5) 0.7286(7) 0.0869(5)
C14_2 C 0.6349(5) 0.6668(7) 0.0423(5)
H6_2 H 0.6542 0.6330 0.0376
C15_2 C 0.7688(5) 0.5768(7) 0.1958(5)
C16_2 C 0.6415(5) 0.7805(7) 0.0929(5)
H7_2 H 0.6653 0.8228 0.1228
C17_2 C 0.2103(5) 0.8091(7) 0.2168(5)
O17_2 O 0.4491(4) 0.9947(6) 0.4531(4)
C18_2 C 0.6675(5) 0.6342(7) 0.2113(5)
H8_2 H 0.6339 0.6537 0.2164
C20_2 C 0.2769(5) 0.8305(8) 0.1767(6)
H9_2 H 0.2826 0.7937 0.1516
C21_2 C 0.2474(6) 0.9999(8) 0.2908(6)
H10_2 H 0.2056 0.9724 0.3241
C22_2 C 0.3242(5) 0.9629(7) 0.2127(5)
C23_2 C 0.2586(6) 0.9419(8) 0.2518(5)
C24_2 C 0.7791(5) 0.6416(7) 0.1559(5)
H13_2 H 0.8186 0.6641 0.1230
H14_2 H 0.3478 0.9876 0.3719
C26_2 C 0.8255(5) 0.5492(7) 0.1921(5)
C27_2 C 0.1457(5) 0.7231(7) 0.2183(5)
C28_2 C 0.7451(5) 0.7443(7) 0.1257(5)
H15_2 H 0.7606 0.7873 0.1577
H16_2 H 0.7869 0.7583 0.0925
C29_2 C 0.4046(6) 0.9346(8) 0.1308(6)
C32_2 C 0.5532(5) 0.8283(7) 0.0603(5)
C34_2 C 0.5869(5) 0.5331(7) 0.2991(5)
N5_2 N 0.4876(5) 0.3884(8) 0.0227(5)
C40_2 C 0.4267(9) 0.3175(12) 0.0302(8)
C41_2 C 0.4983(9) 0.3949(13) 0.1448(9)
H23_2 H 0.5227 0.4236 0.1845
C42_2 C 0.7382(9) 0.4353(13) 0.0251(8)
H24_2 H 0.7462 0.4009 0.0518
C43_2 C 0.5245(8) 0.4242(11) 0.0863(7)
H25_2 H 0.5703 0.4717 0.0844
H28_2 H 0.6234 0.3630 0.0081
C53_2 C 0.3972(12) 0.2851(16) 0.0984(11)
H35_2 H 0.3516 0.2380 0.1044
C54_2 C 0.7939(10) 0.5024(14) 0.0124(8)
H36_2 H 0.8430 0.5164 0.0294
C57_2 C 0.4399(11) 0.3276(16) 0.1520(11)
H39_2 H 0.4261 0.3069 0.1967
Co1_2 Co 0.46541(7) 0.89898(9) 0.99662(6)
O1_2 O 0.4771(4) 0.5781(5) 0.9174(4)
O5_2 O 0.4302(3) 0.4174(4) 0.8783(3)
H2_2 H 0.5009 0.6995 0.9849
O16_2 O 0.5648(4) 0.5453(5) 0.9529(4)
N1_2 N 0.4365(5) 0.6098(7) 0.7699(4)
N2_2 N 0.6506(5) 0.4580(7) 0.9630(5)
C30_2 C 0.5341(6) 0.5873(8) 0.9543(5)
N4_2 N 0.5200(5) 0.9115(7) 0.8966(5)
C36_2 C 0.5093(10) 0.7382(14) 0.7208(7)
H18_2 H 0.5559 0.7841 0.7136
C37_2 C 0.4875(7) 0.9126(10) 0.8401(7)
H19_2 H 0.4414 0.9135 0.8448
C38_2 C 0.5118(10) 0.9127(14) 0.7715(9)
H20_2 H 0.4826 0.9093 0.7324
H22_2 H 0.4026 0.2881 0.9907
C44_2 C 0.7119(7) 0.5272(11) 0.9509(7)
H26_2 H 0.7044 0.5610 0.9228
C46_2 C 0.6639(9) 0.4127(12) 0.9988(7)
C47_2 C 0.5910(9) 0.9162(12) 0.8930(8)
H29_2 H 0.6151 0.9157 0.9344
C48_2 C 0.6281(11) 0.9216(15) 0.8312(9)
H30_2 H 0.6773 0.9269 0.8299
C49_2 C 0.5076(10) 0.6763(14) 0.7558(6)
H31_2 H 0.5536 0.6790 0.7699
C50_2 C 0.3705(8) 0.6076(11) 0.7524(6)
H32_2 H 0.3235 0.5635 0.7629
C51_2 C 0.7846(10) 0.5530(13) 0.9759(8)
H33_2 H 0.8251 0.6032 0.9677
C56_2 C 0.5868(11) 0.9188(16) 0.7682(10)
H38_2 H 0.6090 0.9209 0.7249
C58 C 0.3126(6) 0.3280(9) 0.6659(6)
H40 H 0.2704 0.2778 0.6662
C59_2 C 0.3332(5) 0.3727(8) 0.7263(5)
H41_2 H 0.3047 0.3522 0.7670
N6_2 N 0.3963(6) 0.4477(8) 0.7259(4)
C60 C 0.4389(5) 0.4783(8) 0.6650(6)
H42 H 0.4811 0.5285 0.6647
C61 C 0.4184(7) 0.4337(10) 0.6046(4)
H43 H 0.4469 0.4541 0.5639
C62 C 0.3552(8) 0.3585(11) 0.6050(5)
H44 H 0.3415 0.3287 0.5646
C63_2 C 0.3700(8) 0.6699(11) 0.7185(7)
H45_2 H 0.3238 0.6701 0.7117
C64_2 C 0.4383(10) 0.7298(14) 0.6961(8)
H46 H 0.4387 0.7655 0.6645
C65_2 C 0.2875(6) 0.6948(8) 0.8821(5)
H47_2 H 0.2861 0.6551 0.8553
C66_2 C 0.2200(5) 0.6981(9) 0.8923(6)
H48_2 H 0.1736 0.6608 0.8724
C67_2 C 0.2220(4) 0.7574(6) 0.9323(6)
H49_2 H 0.1769 0.7597 0.9391
C68_2 C 0.2914(5) 0.8133(6) 0.9620(4)
H50_2 H 0.2927 0.8529 0.9888
N7_2 N 0.3589(4) 0.8100(6) 0.9518(4)
C69_2 C 0.3569(5) 0.7507(6) 0.9118(4)
H51_2 H 0.4020 0.7484 0.9050
O19_2 O 0.4358(5) 0.9800(6) 0.9673(4)
O21_2 O 0.5074(4) 0.3214(5) 0.8932(3)
O24_2 O 0.3217(6) 0.4734(7) 0.8444(4)
O5_3 O 0.5826(4) 0.0128(3) 0.5449(3)
O6_3 O 0.4101(6) 0.2944(4) 0.8198(4)
C6_3 C 0.4600(8) 0.1645(6) 0.9103(5)
H4_3 H 0.5022 0.1989 0.9371
C8_3 C 0.4303(7) 0.0844(5) 0.9150(5)
C10_3 C 0.3296(8) 0.0592(6) 0.8333(6)
H6_3 H 0.3670 0.0212 0.7042
C15_3 C 0.4232(7) 0.1920(5) 0.8624(5)
O16_3 O 0.4547(5) 0.0195(3) 0.6195(4)
C18_3 C 0.3658(7) 0.0333(5) 0.8779(5)
N2_3 N 0.5420(7) 0.1926(5) 0.6296(5)
C24_3 C 0.3584(7) 0.1375(5) 0.8225(5)
H13_3 H 0.3359 0.1545 0.7896
C26_3 C 0.4508(7) 0.2763(5) 0.8587(5)
C28_3 C 0.2557(7) 0.0008(5) 0.7923(5)
H16_3 H 0.2417 0.0286 0.7591
C34_3 C 0.4669(7) 0.0538(5) 0.9657(5)
N5_3 N 0.6116(8) 0.0992(6) 0.6893(5)
C40_3 C 0.6825(12) 0.1092(8) 0.6968(8)
H22_3 H 0.7119 0.1145 0.6573
C41_3 C 0.6051(13) 0.1034(9) 0.8114(9)
H23_3 H 0.5764 0.0991 0.8511
C42_3 C 0.5647(13) 0.3029(9) 0.6917(8)
H24_3 H 0.5991 0.3453 0.7184
C43_3 C 0.5758(11) 0.1003(8) 0.7529(7)
H25_3 H 0.5283 0.0986 0.7510
C44_3 C 0.4728(11) 0.1847(8) 0.6175(7)
H26_3 H 0.4390 0.1434 0.5894
C46_3 C 0.5873(12) 0.2512(8) 0.6654(7)
H28_3 H 0.6370 0.2604 0.6747
C51_3 C 0.4470(13) 0.2316(9) 0.6425(8)
H33_3 H 0.3968 0.2219 0.6343
C53_3 C 0.7149(16) 0.1121(11) 0.7650(11)
H35_3 H 0.7620 0.1136 0.7710
C54_3 C 0.4976(14) 0.2915(10) 0.6790(8)
H36_3 H 0.4836 0.3266 0.6960
C57_3 C 0.6724(16) 0.1123(11) 0.8186(11)
H39_3 H 0.6931 0.1192 0.8633
H44_2 H 0.6713 0.0128 0.2312
H14_3 H 0.0124 0.3602 0.0385
O1_3 O 0.4219(5) 0.8990(3) 0.5840(4)
O2_3 O 0.1840(5) 0.6794(3) 0.6897(4)
O4_3 O 0.0126(4) 0.5834(3) 0.7100(3)
O10_3 O 0.2961(6) 0.3867(4) 0.9260(4)
O13_3 O 0.1153(6) 0.7058(4) 0.7661(4)
C1_3 C 0.3472(7) 0.9158(5) 0.6696(5)
C3_3 C 0.2316(7) 0.8103(5) 0.7217(5)
O14_3 O 0.1157(5) 0.5247(4) 0.7576(4)
C4_3 C 0.2937(7) 0.8371(5) 0.6774(5)
H2_3 H 0.3005 0.8014 0.6515
C11_3 C 0.1380(8) 0.3394(6) 0.9208(5)
H5_3 H 0.1543 0.3117 0.9482
C12_3 C 0.0904(7) 0.4256(5) 0.8421(5)
C13_3 C 0.2714(7) 0.9426(5) 0.7535(5)
C14_3 C 0.3332(7) 0.9681(5) 0.7089(5)
C16_3 C 0.2195(7) 0.8610(5) 0.7595(5)
H7_3 H 0.1772 0.8425 0.7894
C17_3 C 0.1909(7) 0.4012(5) 0.8834(5)
N1_3 N 0.3902(7) 0.8267(5) 0.4365(4)
H8_3 H 0.3463 0.9802 0.8830
C20_3 C 0.1695(8) 0.4464(6) 0.8433(6)
H9_3 H 0.2063 0.4889 0.8182
C21_3 C 0.0001(8) 0.2475(6) 0.9574(6)
H10_3 H 0.0276 0.2332 0.9907
C22_3 C 0.0371(7) 0.3613(5) 0.8793(5)
C23_3 C 0.0581(8) 0.3167(6) 0.9184(5)
C27_3 C 0.2769(7) 0.4226(5) 0.8849(5)
H15_3 H 0.2127 0.9733 0.8243
C29_3 C 0.0654(8) 0.4700(5) 0.7974(6)
C30_3 C 0.4127(8) 0.9468(5) 0.6209(5)
C32_3 C 0.1717(7) 0.7249(5) 0.7269(5)
N4_3 N 0.0885(7) 0.6085(5) 0.5632(5)
C36_3 C 0.2618(14) 0.7711(10) 0.3874(7)
H18_3 H 0.2159 0.7718 0.3802
C37_3 C 0.0874(10) 0.5749(7) 0.5067(7)
H19_3 H 0.0865 0.5279 0.5114
C38_3 C 0.0873(14) 0.5991(10) 0.4381(9)
H20_3 H 0.0907 0.5733 0.3990
C47_3 C 0.0838(12) 0.6748(8) 0.5596(8)
H29_3 H 0.0843 0.6994 0.6010
C48_3 C 0.0784(15) 0.7065(10) 0.4978(9)
H30_3 H 0.0731 0.7504 0.4965
C49_3 C 0.3237(14) 0.8313(10) 0.4224(6)
H31_3 H 0.3210 0.8746 0.4365
C50_3 C 0.3924(11) 0.7629(7) 0.4190(6)
H32_3 H 0.4365 0.7600 0.4295
C56_3 C 0.0812(16) 0.6680(11) 0.4348(10)
H38_3 H 0.0791 0.6881 0.3915
C58_2 C 0.6720(9) 0.9846(7) 0.3325(6)
H40_2 H 0.7222 0.9926 0.3328
C59_3 C 0.6273(8) 0.9605(6) 0.3929(5)
H41_3 H 0.6478 0.9525 0.4336
N6_3 N 0.5523(8) 0.9486(5) 0.3925(4)
C60_2 C 0.5217(8) 0.9606(6) 0.3316(6)
H42_2 H 0.4715 0.9526 0.3313
C61_2 C 0.5663(10) 0.9847(7) 0.2712(4)
H43_2 H 0.5459 0.9928 0.2305
C62_2 C 0.6415(11) 0.9967(7) 0.2716(5)
C63_3 C 0.3301(11) 0.7001(8) 0.3851(7)
H45_3 H 0.3299 0.6537 0.3783
C64_3 C 0.2702(14) 0.7085(10) 0.3627(8)
H46_2 H 0.2345 0.6732 0.3311
C65_3 C 0.3052(8) 0.5927(6) 0.5487(5)
H47_3 H 0.3449 0.6310 0.5219
C66_3 C 0.3019(9) 0.5219(7) 0.5589(6)
H48_3 H 0.3392 0.5128 0.5390
C67_3 C 0.2426(6) 0.4646(5) 0.5989(6)
H49_3 H 0.2403 0.4172 0.6057
C68_3 C 0.1867(6) 0.4781(4) 0.6286(4)
H50_3 H 0.1471 0.4398 0.6554
N7_3 N 0.1900(6) 0.5489(4) 0.6184(4)
C69_3 C 0.2493(6) 0.6062(4) 0.5784(4)
H51_3 H 0.2516 0.6536 0.5716
C2_3 C 0.8327(7) 0.2715(5) 0.0808(5)
H1_3 H 0.7971 0.2760 0.1090
C9_3 C 0.8084(7) 0.2067(5) 0.0409(6)
C19_3 C 0.9090(7) 0.3307(5) 0.0803(5)
C25_3 C 0.9606(7) 0.3212(5) 0.0385(5)
C31_3 C 0.7226(8) 0.1419(5) 0.0377(6)
C33_3 C 0.9359(8) 0.4052(6) 0.1249(5)
O9_3 O 0.7041(6) 0.0897(4) 0.9931(4)
C5_3 C 0.8624(7) 0.2003(5) 0.9989(5)
H3_3 H 0.8455 0.1561 0.9716
C7_3 C 0.9390(7) 0.2564(5) 0.9964(5)
H11_3 H 0.9742 0.2049 0.9248
H12_3 H 0.9850 0.3476 0.8779
O18_3 O 0.9945(6) 0.4526(4) 0.8018(4)
N3_3 N 0.8267(8) 0.3944(6) 0.8190(5)
C35_3 C 0.6953(12) 0.3291(8) 0.8474(7)
H17_3 H 0.6453 0.3192 0.8373
C39_3 C 0.7064(13) 0.2904(10) 0.8989(9)
H21_3 H 0.6644 0.2537 0.9247
C45_3 C 0.7549(11) 0.3812(7) 0.8109(7)
H27_3 H 0.7460 0.4101 0.7778
C52_3 C 0.8382(11) 0.3615(8) 0.8717(7)
H34_3 H 0.8894 0.3768 0.8827
C55_3 C 0.7810(13) 0.3054(9) 0.9137(8)
H37_3 H 0.7916 0.2798 0.9488
C58_3 C 0.0154(7) 0.6874(6) 0.9992(6)
H40_3 H 0.0074 0.7296 0.9995
C60_3 C 0.0394(6) 0.5611(5) 0.9983(6)
H42_3 H 0.0474 0.5189 0.9980
C61_3 C 0.0153(7) 0.5816(7) 0.9379(4)
H43_3 H 0.0072 0.5531 0.8972
C62_3 C 0.0033(7) 0.6448(8) 0.9383(5)
H46_3 H 0.3268 0.5613 0.9978
H44_3 H 0.9872 0.6585 0.8979
loop_
_geom_bond_atom_site_label_1
_geom_bond_atom_site_label_2
_geom_bond_site_symmetry_1
_geom_bond_site_symmetry_2
Co1 O2 1_555 1_555
Co3 O1 1_555 1_555
Co4 O4 1_555 1_555
O1 C30 1_555 1_555
O2 C32 1_555 1_555
O4 Co1 1_555 1_555
O7 C33 1_555 1_555
O9 C31 1_555 1_555
O10 C27 1_555 1_555
O12 C31 1_555 1_555
O13 C32 1_555 1_555
C1 C4 1_555 1_555
C2 H1 1_555 1_555
C3 C4 1_555 1_555
O14 Co1 1_555 1_555
C4 H2 1_555 1_555
O15 C27 1_555 1_555
C5 H3 1_555 1_555
C7 C5 1_555 1_555
C9 C2 1_555 1_555
C11 H5 1_555 1_555
C12 C20 1_555 1_555
C13 C14 1_555 1_555
C14 C1 1_555 1_555
C16 C3 1_555 1_555
H7 C16 1_555 1_555
C17 C11 1_555 1_555
O17 C33 1_555 1_555
N1 Co3 1_555 1_555
C19 C2 1_555 1_555
C20 C17 1_555 1_555
H9 C20 1_555 1_555
C21 C7 1_555 1_555
H10 C21 1_555 1_555
H11 C21 1_555 1_555
C22 C12 1_555 1_555
H12 C22 1_555 1_555
C23 C11 1_555 1_555
O18 Co4 1_555 1_555
N3 Co4 1_555 1_555
C25 C7 1_555 1_555
H14 C25 1_555 1_555
C27 C17 1_555 1_555
C29 O14 1_555 1_555
C30 C1 1_555 1_555
C31 C9 1_555 1_555
C32 C3 1_555 1_555
C33 C19 1_555 1_555
N4 Co1 1_555 1_555
C35 H17 1_555 1_555
C36 H18 1_555 1_555
C37 N4 1_555 1_555
H19 C37 1_555 1_555
C38 C37 1_555 1_555
H20 C38 1_555 1_555
C39 C35 1_555 1_555
H21 C39 1_555 1_555
C45 N3 1_555 1_555
H27 C45 1_555 1_555
C47 N4 1_555 1_555
H29 C47 1_555 1_555
C48 C47 1_555 1_555
H30 C48 1_555 1_555
C49 N1 1_555 1_555
H31 C49 1_555 1_555
C50 N1 1_555 1_555
H32 C50 1_555 1_555
C52 N3 1_555 1_555
H34 C52 1_555 1_555
C55 C39 1_555 1_555
H37 C55 1_555 1_555
C56 C38 1_555 1_555
H38 C56 1_555 1_555
H41 C59 1_555 1_555
N6 Co3 1_555 1_555
C63 C50 1_555 1_555
H45 C63 1_555 1_555
C64 C36 1_555 1_555
C65 H47 1_555 1_555
C66 C65 1_555 1_555
H48 C66 1_555 1_555
C67 C66 1_555 1_555
H49 C67 1_555 1_555
C68 C67 1_555 1_555
H50 C68 1_555 1_555
N7 Co1 1_555 1_555
C69 C65 1_555 1_555
H51 C69 1_555 1_555
Co5 O3 1_555 1_555
Co6 O7 1_555 1_555
Co8 O15 1_555 1_555
Co9 O17 1_555 1_555
Co11 O12 1_555 1_555
O19 Co1 1_555 1_555
O22 Co4 1_555 1_555
O23 Co4 1_555 1_555
O24 Co3 1_555 1_555
O25 Co3 1_555 1_555
C5 C9 1_555 1_555
C12 C29 1_555 1_555
C13 C16 1_555 1_555
C19 C25 1_555 1_555
C21 C23 1_555 1_555
C22 C23 1_555 1_555
O18 C29 1_555 1_555
C35 C45 1_555 1_555
C36 C49 1_555 1_555
C48 C56 1_555 1_555
C52 C55 1_555 1_555
C59 N6 1_555 1_555
C63 C64 1_555 1_555
C68 N7 1_555 1_555
N7 C69 1_555 1_555
Co2 O5 1_555 1_555
O6 C26 1_555 1_555
O8 C26 1_555 1_555
O11 C34 1_555 1_555
C6 H4 1_555 1_555
C8 C6 1_555 1_555
C10 C18 1_555 1_555
C15 C6 1_555 1_555
O16 Co2 1_555 1_555
C18 C8 1_555 1_555
N2 Co2 1_555 1_555
C24 C10 1_555 1_555
H13 C24 1_555 1_555
C26 C15 1_555 1_555
C28 C10 1_555 1_555
H16 C28 1_555 1_555
C34 C8 1_555 1_555
N5 Co2 1_555 1_555
C40 N5 1_555 1_555
H22 C40 1_555 1_555
C41 H23 1_555 1_555
C42 H24 1_555 1_555
C43 N5 1_555 1_555
H25 C43 1_555 1_555
C44 N2 1_555 1_555
H26 C44 1_555 1_555
C46 N2 1_555 1_555
H28 C46 1_555 1_555
C51 C44 1_555 1_555
H33 C51 1_555 1_555
C53 C40 1_555 1_555
H35 C53 1_555 1_555
C54 C42 1_555 1_555
H36 C54 1_555 1_555
C57 C41 1_555 1_555
H39 C57 1_555 1_555
Co7 O8 1_555 1_555
Co11 O11 1_555 1_555
O20 Co2 1_555 1_555
O21 Co2 1_555 1_555
C15 C24 1_555 1_555
C41 C43 1_555 1_555
C42 C46 1_555 1_555
C51 C54 1_555 1_555
C53 C57 1_555 1_555
O7_2 C33_2 1_555 1_555
O9_2 C31_2 1_555 1_555
O23 C31_2 1_555 1_555
C2_2 H1_2 1_555 1_555
C5_2 H3_2 1_555 1_555
C7_2 C5_2 1_555 1_555
C9_2 C2_2 1_555 1_555
C19_2 C2_2 1_555 1_555
O18_2 Co4_2 1_555 1_555
N3_2 Co4_2 1_555 1_555
C25_2 C7_2 1_555 1_555
C31_2 C9_2 1_555 1_555
C33_2 C19_2 1_555 1_555
C35_2 H17_2 1_555 1_555
C39_2 C35_2 1_555 1_555
H21_2 C39_2 1_555 1_555
C45_2 N3_2 1_555 1_555
H27_2 C45_2 1_555 1_555
C52_2 N3_2 1_555 1_555
H34_2 C52_2 1_555 1_555
C55_2 C39_2 1_555 1_555
H37_2 C55_2 1_555 1_555
Co7 O7_2 1_555 1_555
O22_2 Co4_2 1_555 1_555
O23_2 Co4_2 1_555 1_555
C5_2 C9_2 1_555 1_555
C19_2 C25_2 1_555 1_555
C35_2 C45_2 1_555 1_555
C52_2 C55_2 1_555 1_555
O2_2 C32_2 1_555 1_555
O19 C34_2 1_555 1_555
O6_2 C26_2 1_555 1_555
O21 C26_2 1_555 1_555
O10_2 C27_2 1_555 1_555
O22 C34_2 1_555 1_555
O13_2 C32_2 1_555 1_555
C1_2 C4_2 1_555 1_555
C3_2 C4_2 1_555 1_555
O24 C27_2 1_555 1_555
C6_2 H4_2 1_555 1_555
C8_2 C6_2 1_555 1_555
C10_2 C18_2 1_555 1_555
C11_2 H5_2 1_555 1_555
C12_2 C20_2 1_555 1_555
C13_2 C14_2 1_555 1_555
C14_2 C1_2 1_555 1_555
H6_2 C14_2 1_555 1_555
C15_2 C6_2 1_555 1_555
C16_2 C3_2 1_555 1_555
H7_2 C16_2 1_555 1_555
C17_2 C11_2 1_555 1_555
C18_2 C8_2 1_555 1_555
H8_2 C18_2 1_555 1_555
C20_2 C17_2 1_555 1_555
H9_2 C20_2 1_555 1_555
H10_2 C21_2 1_555 1_555
C22_2 C12_2 1_555 1_555
C23_2 C11_2 1_555 1_555
C24_2 C10_2 1_555 1_555
H13_2 C24_2 1_555 1_555
C26_2 C15_2 1_555 1_555
C27_2 C17_2 1_555 1_555
C28_2 C10_2 1_555 1_555
H15_2 C28_2 1_555 1_555
H16_2 C28_2 1_555 1_555
C29_2 O14_2 1_555 1_555
C32_2 C3_2 1_555 1_555
C34_2 C8_2 1_555 1_555
C40_2 N5_2 1_555 1_555
C41_2 H23_2 1_555 1_555
C42_2 H24_2 1_555 1_555
C43_2 N5_2 1_555 1_555
H25_2 C43_2 1_555 1_555
C53_2 C40_2 1_555 1_555
H35_2 C53_2 1_555 1_555
C54_2 C42_2 1_555 1_555
H36_2 C54_2 1_555 1_555
C57_2 C41_2 1_555 1_555
H39_2 C57_2 1_555 1_555
Co8 O17_2 1_555 1_555
C12_2 C29_2 1_555 1_555
C13_2 C16_2 1_555 1_555
C13_2 C28_2 1_555 1_555
C15_2 C24_2 1_555 1_555
C21_2 C23_2 1_555 1_555
C22_2 C23_2 1_555 1_555
C41_2 C43_2 1_555 1_555
C53_2 C57_2 1_555 1_555
Co6 O5_2 1_555 1_555
Co9 O1_2 1_555 1_555
O1_2 C30_2 1_555 1_555
O5_2 Co9 1_555 1_555
O16_2 Co6 1_555 1_555
N1_2 Co9 1_555 1_555
N2_2 Co6 1_555 1_555
N4_2 Co1_2 1_555 1_555
C36_2 H18_2 1_555 1_555
C37_2 N4_2 1_555 1_555
H19_2 C37_2 1_555 1_555
C38_2 C37_2 1_555 1_555
H20_2 C38_2 1_555 1_555
C44_2 N2_2 1_555 1_555
H26_2 C44_2 1_555 1_555
C46_2 N2_2 1_555 1_555
C47_2 N4_2 1_555 1_555
H29_2 C47_2 1_555 1_555
C48_2 C47_2 1_555 1_555
H30_2 C48_2 1_555 1_555
C49_2 N1_2 1_555 1_555
H31_2 C49_2 1_555 1_555
C50_2 N1_2 1_555 1_555
H32_2 C50_2 1_555 1_555
C51_2 C44_2 1_555 1_555
H33_2 C51_2 1_555 1_555
C56_2 C38_2 1_555 1_555
H38_2 C56_2 1_555 1_555
C58 H40 1_555 1_555
C59_2 C58 1_555 1_555
H41_2 C59_2 1_555 1_555
N6_2 Co9 1_555 1_555
C60 N6_2 1_555 1_555
H42 C60 1_555 1_555
C61 C60 1_555 1_555
H43 C61 1_555 1_555
C62 C58 1_555 1_555
H44 C62 1_555 1_555
C63_2 C50_2 1_555 1_555
H45_2 C63_2 1_555 1_555
C64_2 C36_2 1_555 1_555
H46 C64_2 1_555 1_555
C65_2 H47_2 1_555 1_555
C66_2 C65_2 1_555 1_555
H48_2 C66_2 1_555 1_555
C67_2 C66_2 1_555 1_555
H49_2 C67_2 1_555 1_555
C68_2 C67_2 1_555 1_555
H50_2 C68_2 1_555 1_555
N7_2 Co1_2 1_555 1_555
C69_2 C65_2 1_555 1_555
H51_2 C69_2 1_555 1_555
O19_2 Co1_2 1_555 1_555
O21_2 Co6 1_555 1_555
O24_2 Co9 1_555 1_555
O16_2 C30_2 1_555 1_555
C36_2 C49_2 1_555 1_555
C48_2 C56_2 1_555 1_555
C59_2 N6_2 1_555 1_555
C61 C62 1_555 1_555
C63_2 C64_2 1_555 1_555
C68_2 N7_2 1_555 1_555
N7_2 C69_2 1_555 1_555
Co7 O5_3 1_555 1_555
O6_3 C26_3 1_555 1_555
O21_2 C26_3 1_555 1_555
C6_3 H4_3 1_555 1_555
C8_3 C6_3 1_555 1_555
C10_3 C18_3 1_555 1_555
C15_3 C6_3 1_555 1_555
O16_3 Co7 1_555 1_555
C18_3 C8_3 1_555 1_555
N2_3 Co7 1_555 1_555
C24_3 C10_3 1_555 1_555
H13_3 C24_3 1_555 1_555
C26_3 C15_3 1_555 1_555
C28_3 C10_3 1_555 1_555
H16_3 C28_3 1_555 1_555
C34_3 C8_3 1_555 1_555
N5_3 Co7 1_555 1_555
C40_3 N5_3 1_555 1_555
H22_3 C40_3 1_555 1_555
C41_3 H23_3 1_555 1_555
C42_3 H24_3 1_555 1_555
C43_3 N5_3 1_555 1_555
H25_3 C43_3 1_555 1_555
C44_3 N2_3 1_555 1_555
H26_3 C44_3 1_555 1_555
C46_3 N2_3 1_555 1_555
H28_3 C46_3 1_555 1_555
C51_3 C44_3 1_555 1_555
H33_3 C51_3 1_555 1_555
C53_3 C40_3 1_555 1_555
H35_3 C53_3 1_555 1_555
C54_3 C42_3 1_555 1_555
H36_3 C54_3 1_555 1_555
C57_3 C41_3 1_555 1_555
H39_3 C57_3 1_555 1_555
C15_3 C24_3 1_555 1_555
C41_3 C43_3 1_555 1_555
C42_3 C46_3 1_555 1_555
C51_3 C54_3 1_555 1_555
C53_3 C57_3 1_555 1_555
Co5 O2_3 1_555 1_555
Co8 O1_3 1_555 1_555
O1_3 C30_3 1_555 1_555
O2_3 C32_3 1_555 1_555
O4_3 Co5 1_555 1_555
O10_3 C27_3 1_555 1_555
O13_3 C32_3 1_555 1_555
C1_3 C4_3 1_555 1_555
C3_3 C4_3 1_555 1_555
O14_3 Co5 1_555 1_555
C4_3 H2_3 1_555 1_555
O24_2 C27_3 1_555 1_555
C11_3 H5_3 1_555 1_555
C12_3 C20_3 1_555 1_555
C13_3 C14_3 1_555 1_555
C14_3 C1_3 1_555 1_555
C16_3 C3_3 1_555 1_555
H7_3 C16_3 1_555 1_555
C17_3 C11_3 1_555 1_555
N1_3 Co8 1_555 1_555
C20_3 C17_3 1_555 1_555
H9_3 C20_3 1_555 1_555
H10_3 C21_3 1_555 1_555
C22_3 C12_3 1_555 1_555
C23_3 C11_3 1_555 1_555
C27_3 C17_3 1_555 1_555
C29_3 O14_3 1_555 1_555
C30_3 C1_3 1_555 1_555
C32_3 C3_3 1_555 1_555
N4_3 Co5 1_555 1_555
C36_3 H18_3 1_555 1_555
C37_3 N4_3 1_555 1_555
H19_3 C37_3 1_555 1_555
C38_3 C37_3 1_555 1_555
H20_3 C38_3 1_555 1_555
C47_3 N4_3 1_555 1_555
H29_3 C47_3 1_555 1_555
C48_3 C47_3 1_555 1_555
H30_3 C48_3 1_555 1_555
C49_3 N1_3 1_555 1_555
H31_3 C49_3 1_555 1_555
C50_3 N1_3 1_555 1_555
H32_3 C50_3 1_555 1_555
C56_3 C38_3 1_555 1_555
H38_3 C56_3 1_555 1_555
C58_2 H40_2 1_555 1_555
C59_3 C58_2 1_555 1_555
H41_3 C59_3 1_555 1_555
N6_3 Co8 1_555 1_555
C60_2 N6_3 1_555 1_555
H42_2 C60_2 1_555 1_555
C61_2 C60_2 1_555 1_555
H43_2 C61_2 1_555 1_555
C62_2 C58_2 1_555 1_555
C63_3 C50_3 1_555 1_555
H45_3 C63_3 1_555 1_555
C64_3 C36_3 1_555 1_555
H46_2 C64_3 1_555 1_555
C65_3 H47_3 1_555 1_555
C66_3 C65_3 1_555 1_555
H48_3 C66_3 1_555 1_555
C67_3 C66_3 1_555 1_555
H49_3 C67_3 1_555 1_555
C68_3 C67_3 1_555 1_555
H50_3 C68_3 1_555 1_555
N7_3 Co5 1_555 1_555
C69_3 C65_3 1_555 1_555
H51_3 C69_3 1_555 1_555
C12_3 C29_3 1_555 1_555
C13_3 C16_3 1_555 1_555
C21_3 C23_3 1_555 1_555
C22_3 C23_3 1_555 1_555
C36_3 C49_3 1_555 1_555
C48_3 C56_3 1_555 1_555
C59_3 N6_3 1_555 1_555
C61_2 C62_2 1_555 1_555
C63_3 C64_3 1_555 1_555
C68_3 N7_3 1_555 1_555
N7_3 C69_3 1_555 1_555
O20 C33_3 1_555 1_555
O23_2 C31_3 1_555 1_555
C2_3 H1_3 1_555 1_555
C9_3 C2_3 1_555 1_555
C19_3 C2_3 1_555 1_555
C31_3 C9_3 1_555 1_555
C33_3 C19_3 1_555 1_555
C19_3 C25_3 1_555 1_555
C5_3 H3_3 1_555 1_555
C7_3 C5_3 1_555 1_555
O18_3 Co11 1_555 1_555
N3_3 Co11 1_555 1_555
C35_3 H17_3 1_555 1_555
C39_3 C35_3 1_555 1_555
H21_3 C39_3 1_555 1_555
C45_3 N3_3 1_555 1_555
H27_3 C45_3 1_555 1_555
C52_3 N3_3 1_555 1_555
H34_3 C52_3 1_555 1_555
C55_3 C39_3 1_555 1_555
H37_3 C55_3 1_555 1_555
C35_3 C45_3 1_555 1_555
C52_3 C55_3 1_555 1_555
C58_3 H40_3 1_555 1_555
H42_3 C60_3 1_555 1_555
C61_3 C60_3 1_555 1_555
H43_3 C61_3 1_555 1_555
C62_3 C58_3 1_555 1_555
C61_3 C62_3 1_555 1_555

#END
