
###############################################################################
#
# This file contains modified crystal structure data generated from the
# MOF subset of the Cambridge Structural Database (CSD) v543 
# hosted by the Cambridge Crystallographic Data Centre (CCDC).
#
# This work is licensed under the Creative Commons
# Attribution-NonCommercial-ShareAlike 4.0 International License.
# To view a copy of this license, visit
# http://creativecommons.org/licenses/by-nc-sa/4.0/
# or send a letter to
# Creative Commons, PO Box 1866, Mountain View, CA 94042, USA.
#
# CIF created using the CSD Python API on 29 September 2022
# The structure has been converted into the P1 space group
# The structure has a 3D framework
# The original CSD entry ICAMAC is in the orthorhombic crystal system
# The framework has been calculated to contain at least 10.0% void space
# The void calculation uses a probe of radius 1.32A, grid spacing 0.4
#
###############################################################################

data_ICAMAC
_chemical_formula_moiety         '(C169 H112 N16 O32 Zn8)n'
_symmetry_cell_setting           triclinic
_symmetry_space_group_name_H-M   'P 1'
_symmetry_Int_Tables_number      1
_space_group_name_Hall           'P 1'
loop_
_symmetry_equiv_pos_site_id
_symmetry_equiv_pos_as_xyz
1 x,y,z
_cell_length_a                   14.687(5)
_cell_length_b                   18.524(5)
_cell_length_c                   16.622(5)
_cell_angle_alpha                90
_cell_angle_beta                 90
_cell_angle_gamma                90
_cell_volume                     4522.21
loop_
_atom_site_label
_atom_site_type_symbol
_atom_site_fract_x
_atom_site_fract_y
_atom_site_fract_z
Zn6 Zn 0.10108(3) 0.17050(3) 0.37759(6)
N4 N 0.0324(3) 0.1598(2) 0.2706(3)
C37 C 0.0350(3) 0.2104(4) 0.2128(4)
H24 H 0.0832 0.2446 0.2131
N2 N 0.9676(3) 0.8402(2) 0.2706(3)
C17 C 0.9650(3) 0.7896(4) 0.2128(4)
H10 H 0.9168 0.7554 0.2131
Zn5 Zn 0.89892(3) 0.82950(3) 0.37759(6)
N2_2 N 0.5324(3) 0.3402(2) 0.2706(3)
C1 C 0.3968(3) 0.3339(3) 0.1542(4)
C6 C 0.2410(4) 0.3533(3) 0.1081(4)
H3 H 0.2334 0.3832 0.1541
C7 C 0.3204(4) 0.3236(3) 0.0991(3)
H4 H 0.3295 0.2933 0.0538
C8 C 0.4695(4) 0.2857(4) 0.1526(4)
H5 H 0.4742 0.2506 0.1110
C9 C 0.4686(4) 0.3879(3) 0.2667(4)
H6 H 0.4690 0.4255 0.3056
C10 C 0.3997(3) 0.3884(4) 0.2101(4)
H7 H 0.3553 0.4257 0.2099
C14 C 0.1619(4) 0.3458(3) 0.0552(4)
C17_2 C 0.5350(3) 0.2896(4) 0.2128(4)
H10_2 H 0.5832 0.2554 0.2131
C19 C 0.0908(5) 0.3948(5) 0.0603(5)
H12 H 0.0923 0.4311 0.1006
C20 C 0.0186(4) 0.3920(4) 0.0083(5)
Zn5_2 Zn 0.60108(3) 0.32950(3) 0.37759(6)
Zn6_2 Zn 0.39892(3) 0.67050(3) 0.37759(6)
N4_2 N 0.4676(3) 0.6598(2) 0.2706(3)
C22 C 0.6032(3) 0.6661(3) 0.1542(4)
C26 C 0.7590(4) 0.6467(3) 0.1081(4)
H17 H 0.7666 0.6168 0.1541
C27 C 0.6796(4) 0.6764(3) 0.0991(3)
H18 H 0.6705 0.7067 0.0538
C28 C 0.5305(4) 0.7143(4) 0.1526(4)
H19 H 0.5258 0.7494 0.1110
C29 C 0.5314(4) 0.6121(3) 0.2667(4)
H20 H 0.5310 0.5745 0.3056
C30 C 0.6003(3) 0.6116(4) 0.2101(4)
H21 H 0.6447 0.5743 0.2099
C34 C 0.8381(4) 0.6542(3) 0.0552(4)
C37_2 C 0.4650(3) 0.7104(4) 0.2128(4)
H24_2 H 0.4168 0.7446 0.2131
C39 C 0.9092(5) 0.6052(5) 0.0603(5)
H26 H 0.9077 0.5689 0.1006
C40 C 0.9814(4) 0.6080(4) 0.0083(5)
C2 C 0.0000 0.5000 0.5374(5)
O5 O 0.3721(2) 0.5381(2) 0.3704(4)
O6 O 0.1085(2) 0.2733(2) 0.3981(3)
O8 O 0.3915(2) 0.7733(2) 0.3981(3)
N3 N 0.5103(3) 0.6608(2) 0.4536(3)
C22_2 C 0.8968(3) 0.6661(3) 0.6542(4)
H15 H 0.0164 0.5412 0.5724
O9 O 0.2912(2) 0.6227(2) 0.4248(3)
O10 O 0.2072(3) 0.3047(3) 0.3049(3)
C23 C 0.0813(3) 0.4797(3) 0.4864(3)
C24 C 0.1525(3) 0.5275(3) 0.4717(4)
H16 H 0.1514 0.5743 0.4952
C25 C 0.1571(3) 0.3914(3) 0.3991(3)
C26_2 C 0.7410(4) 0.6467(3) 0.6081(4)
H17_2 H 0.7334 0.6168 0.6541
C27_2 C 0.8204(4) 0.6764(3) 0.5991(3)
H18_2 H 0.8295 0.7067 0.5538
C28_2 C 0.9695(4) 0.7143(4) 0.6526(4)
H19_2 H 0.9742 0.7494 0.6110
C29_2 C 0.9686(4) 0.6121(3) 0.7667(4)
H20_2 H 0.9690 0.5745 0.8056
C30_2 C 0.8997(3) 0.6116(4) 0.7101(4)
H21_2 H 0.8553 0.5743 0.7099
C31 C 0.1604(3) 0.3183(3) 0.3645(5)
C32 C 0.2263(3) 0.5071(3) 0.4220(3)
C33 C 0.6536(3) 0.7081(3) 0.4954(3)
H22 H 0.7000 0.7433 0.4886
C34_2 C 0.6619(4) 0.6542(3) 0.5552(4)
C35 C 0.3044(3) 0.5589(3) 0.4031(4)
C36 C 0.2264(3) 0.4404(2) 0.3857(4)
H23 H 0.2750 0.4278 0.3507
C38 C 0.0853(3) 0.4128(3) 0.4497(3)
H25 H 0.0371 0.3796 0.4592
C39_2 C 0.5908(5) 0.6052(5) 0.5603(5)
H26_2 H 0.5923 0.5689 0.6006
C40_2 C 0.5186(4) 0.6080(4) 0.5083(5)
H27 H 0.4732 0.5716 0.5111
C41 C 0.5791(4) 0.7089(3) 0.4483(4)
H28 H 0.5746 0.7458 0.4088
O1 O 0.6279(2) 0.4619(2) 0.3704(4)
O2 O 0.8915(2) 0.7267(2) 0.3981(3)
N1 N 0.4897(3) 0.3392(2) 0.4536(3)
C1_2 C 0.1032(3) 0.3339(3) 0.6542(4)
C2_2 C 1.0000 0.5000 0.5374(5)
H1 H 0.9836 0.4588 0.5724
O3 O 0.7088(2) 0.3773(2) 0.4248(3)
O4 O 0.7928(3) 0.6953(3) 0.3049(3)
C3 C 0.9187(3) 0.5203(3) 0.4864(3)
C4 C 0.8475(3) 0.4725(3) 0.4717(4)
H2 H 0.8486 0.4257 0.4952
C5 C 0.8429(3) 0.6086(3) 0.3991(3)
C6_2 C 0.2590(4) 0.3533(3) 0.6081(4)
H3_2 H 0.2666 0.3832 0.6541
C7_2 C 0.1796(4) 0.3236(3) 0.5991(3)
H4_2 H 0.1705 0.2933 0.5538
C8_2 C 0.0305(4) 0.2857(4) 0.6526(4)
H5_2 H 0.0258 0.2506 0.6110
C9_2 C 0.0314(4) 0.3879(3) 0.7667(4)
H6_2 H 0.0310 0.4255 0.8056
C10_2 C 0.1003(3) 0.3884(4) 0.7101(4)
H7_2 H 0.1447 0.4257 0.7099
C11 C 0.8396(3) 0.6817(3) 0.3645(5)
C12 C 0.7737(3) 0.4929(3) 0.4220(3)
C13 C 0.3464(3) 0.2919(3) 0.4954(3)
H8 H 0.3000 0.2567 0.4886
C14_2 C 0.3381(4) 0.3458(3) 0.5552(4)
C15 C 0.6956(3) 0.4411(3) 0.4031(4)
C16 C 0.7736(3) 0.5596(2) 0.3857(4)
H9 H 0.7250 0.5722 0.3507
C18 C 0.9147(3) 0.5872(3) 0.4497(3)
H11 H 0.9629 0.6204 0.4592
C19_2 C 0.4092(5) 0.3948(5) 0.5603(5)
H12_2 H 0.4077 0.4311 0.6006
C20_2 C 0.4814(4) 0.3920(4) 0.5083(5)
H13 H 0.5268 0.4284 0.5111
C21 C 0.4209(4) 0.2911(3) 0.4483(4)
H14 H 0.4254 0.2542 0.4088
O7 O 0.6085(2) 0.2267(2) 0.3981(3)
C2_3 C 0.5000 -0.0000 0.5374(5)
O4_2 O 0.7072(3) 0.1953(3) 0.3049(3)
C3_2 C 0.5813(3) 0.0203(3) 0.4864(3)
C5_2 C 0.6571(3) 0.1086(3) 0.3991(3)
C11_2 C 0.6604(3) 0.1817(3) 0.3645(5)
C16_2 C 0.7264(3) 0.0596(2) 0.3857(4)
H9_2 H 0.7750 0.0722 0.3507
C18_2 C 0.5853(3) 0.0872(3) 0.4497(3)
H11_2 H 0.5371 0.1204 0.4592
O5_2 O 0.1279(2) 0.0381(2) 0.3704(4)
H15_2 H 0.4836 0.0412 0.5724
O9_2 O 0.2088(2) 0.1227(2) 0.4248(3)
C24_2 C 0.3475(3) 0.0275(3) 0.4717(4)
H16_2 H 0.3486 0.0743 0.4952
C32_2 C 0.2737(3) 0.0071(3) 0.4220(3)
C35_2 C 0.1956(3) 0.0589(3) 0.4031(4)
H27_2 H 0.0268 0.0716 0.5111
O1_2 O 0.8721(2) 0.9619(2) 0.3704(4)
C2_4 C 0.5000 1.0000 0.5374(5)
H1_2 H 0.5164 0.9588 0.5724
O3_2 O 0.7912(2) 0.8773(2) 0.4248(3)
C4_2 C 0.6525(3) 0.9725(3) 0.4717(4)
H2_2 H 0.6514 0.9257 0.4952
C12_2 C 0.7263(3) 0.9929(3) 0.4220(3)
C15_2 C 0.8044(3) 0.9411(3) 0.4031(4)
H13_2 H 0.9732 0.9284 0.5111
O10_2 O 0.2928(3) 0.8047(3) 0.3049(3)
C23_2 C 0.4187(3) 0.9797(3) 0.4864(3)
C25_2 C 0.3429(3) 0.8914(3) 0.3991(3)
C31_2 C 0.3396(3) 0.8183(3) 0.3645(5)
C36_2 C 0.2736(3) 0.9404(2) 0.3857(4)
H23_2 H 0.2250 0.9278 0.3507
C38_2 C 0.4147(3) 0.9128(3) 0.4497(3)
H25_2 H 0.4629 0.8796 0.4592
C2_5 C 0.0000 -0.0000 0.0374(5)
C22_3 C 0.8968(3) 0.1661(3) 0.1542(4)
H15_3 H 0.0164 0.0412 0.0724
C26_3 C 0.7410(4) 0.1467(3) 0.1081(4)
H17_3 H 0.7334 0.1168 0.1541
C27_3 C 0.8204(4) 0.1764(3) 0.0991(3)
H18_3 H 0.8295 0.2067 0.0538
C28_3 C 0.9695(4) 0.2143(4) 0.1526(4)
H19_3 H 0.9742 0.2494 0.1110
C29_3 C 0.9686(4) 0.1121(3) 0.2667(4)
H20_3 H 0.9690 0.0745 0.3056
C30_3 C 0.8997(3) 0.1116(4) 0.2101(4)
H21_3 H 0.8553 0.0743 0.2099
C34_3 C 0.6619(4) 0.1542(3) 0.0552(4)
C39_3 C 0.5908(5) 0.1052(5) 0.0603(5)
H26_3 H 0.5923 0.0689 0.1006
C40_3 C 0.5186(4) 0.1080(4) 0.0083(5)
H27_3 H 0.4732 0.0716 0.0111
Zn2 Zn 0.39892(3) 0.17050(3) 0.87759(6)
O5_3 O 0.3721(2) 0.0381(2) 0.8704(4)
O8_2 O 0.3915(2) 0.2733(2) 0.8981(3)
N3_2 N 0.5103(3) 0.1608(2) 0.9536(3)
N6 N 0.4676(3) 0.1598(2) 0.7706(3)
O9_3 O 0.2912(2) 0.1227(2) 0.9248(3)
C24_3 C 0.1525(3) 0.0275(3) 0.9717(4)
H16_3 H 0.1514 0.0743 0.9952
C32_3 C 0.2263(3) 0.0071(3) 0.9220(3)
C33_2 C 0.6536(3) 0.2081(3) 0.9954(3)
H22_2 H 0.7000 0.2433 0.9886
C35_3 C 0.3044(3) 0.0589(3) 0.9031(4)
C41_2 C 0.5791(4) 0.2089(3) 0.9483(4)
H28_2 H 0.5746 0.2458 0.9088
Zn4 Zn 0.10108(3) 0.67050(3) 0.87759(6)
O6_2 O 0.1085(2) 0.7733(2) 0.8981(3)
O10_3 O 0.2072(3) 0.8047(3) 0.8049(3)
C23_3 C 0.0813(3) 0.9797(3) 0.9864(3)
C25_3 C 0.1571(3) 0.8914(3) 0.8991(3)
C31_3 C 0.1604(3) 0.8183(3) 0.8645(5)
C36_3 C 0.2264(3) 0.9404(2) 0.8857(4)
H23_3 H 0.2750 0.9278 0.8507
C38_3 C 0.0853(3) 0.9128(3) 0.9497(3)
H25_3 H 0.0371 0.8796 0.9592
O2_2 O 0.8915(2) 0.2267(2) 0.8981(3)
O4_3 O 0.7928(3) 0.1953(3) 0.8049(3)
C3_3 C 0.9187(3) 0.0203(3) 0.9864(3)
C5_3 C 0.8429(3) 0.1086(3) 0.8991(3)
C11_3 C 0.8396(3) 0.1817(3) 0.8645(5)
C16_3 C 0.7736(3) 0.0596(2) 0.8857(4)
H9_3 H 0.7250 0.0722 0.8507
C18_3 C 0.9147(3) 0.0872(3) 0.9497(3)
H11_3 H 0.9629 0.1204 0.9592
Zn3 Zn 0.89892(3) 0.32950(3) 0.87759(6)
Zn1 Zn 0.60108(3) 0.82950(3) 0.87759(6)
O1_3 O 0.6279(2) 0.9619(2) 0.8704(4)
N1_2 N 0.4897(3) 0.8392(2) 0.9536(3)
O3_3 O 0.7088(2) 0.8773(2) 0.9248(3)
C4_3 C 0.8475(3) 0.9725(3) 0.9717(4)
H2_3 H 0.8486 0.9257 0.9952
C12_3 C 0.7737(3) 0.9929(3) 0.9220(3)
C13_2 C 0.3464(3) 0.7919(3) 0.9954(3)
H8_2 H 0.3000 0.7567 0.9886
C15_3 C 0.6956(3) 0.9411(3) 0.9031(4)
C21_2 C 0.4209(4) 0.7911(3) 0.9483(4)
H14_2 H 0.4254 0.7542 0.9088
O7_2 O 0.6085(2) 0.7267(2) 0.8981(3)
N5 N 0.5324(3) 0.8402(2) 0.7706(3)
O1_4 O 0.8721(2) 0.4619(2) 0.8704(4)
O3_4 O 0.7912(2) 0.3773(2) 0.9248(3)
O4_4 O 0.7072(3) 0.6953(3) 0.8049(3)
C3_4 C 0.5813(3) 0.5203(3) 0.9864(3)
C4_4 C 0.6525(3) 0.4725(3) 0.9717(4)
H2_4 H 0.6514 0.4257 0.9952
C5_4 C 0.6571(3) 0.6086(3) 0.8991(3)
C11_4 C 0.6604(3) 0.6817(3) 0.8645(5)
C12_4 C 0.7263(3) 0.4929(3) 0.9220(3)
C15_4 C 0.8044(3) 0.4411(3) 0.9031(4)
C16_4 C 0.7264(3) 0.5596(2) 0.8857(4)
H9_4 H 0.7750 0.5722 0.8507
C18_4 C 0.5853(3) 0.5872(3) 0.9497(3)
H11_4 H 0.5371 0.6204 0.9592
O5_4 O 0.1279(2) 0.5381(2) 0.8704(4)
N5_2 N 0.9676(3) 0.3402(2) 0.7706(3)
N6_2 N 0.0324(3) 0.6598(2) 0.7706(3)
O9_4 O 0.2088(2) 0.6227(2) 0.9248(3)
O10_4 O 0.2928(3) 0.3047(3) 0.8049(3)
C23_4 C 0.4187(3) 0.4797(3) 0.9864(3)
C24_4 C 0.3475(3) 0.5275(3) 0.9717(4)
H16_4 H 0.3486 0.5743 0.9952
C25_4 C 0.3429(3) 0.3914(3) 0.8991(3)
C31_4 C 0.3396(3) 0.3183(3) 0.8645(5)
C32_4 C 0.2737(3) 0.5071(3) 0.9220(3)
C35_4 C 0.1956(3) 0.5589(3) 0.9031(4)
C36_4 C 0.2736(3) 0.4404(2) 0.8857(4)
H23_4 H 0.2250 0.4278 0.8507
C38_4 C 0.4147(3) 0.4128(3) 0.9497(3)
H25_4 H 0.4629 0.3796 0.9592
C37_3 C 0.0350(3) 0.7104(4) 0.7128(4)
H24_3 H 0.0832 0.7446 0.7131
C17_3 C 0.9650(3) 0.2896(4) 0.7128(4)
H10_3 H 0.9168 0.2554 0.7131
N1_3 N 0.0103(3) 0.8392(2) 0.4536(3)
C1_3 C 0.3968(3) 0.8339(3) 0.6542(4)
C6_3 C 0.2410(4) 0.8533(3) 0.6081(4)
H3_3 H 0.2334 0.8832 0.6541
C7_3 C 0.3204(4) 0.8236(3) 0.5991(3)
H4_3 H 0.3295 0.7933 0.5538
C8_3 C 0.4695(4) 0.7857(4) 0.6526(4)
H5_3 H 0.4742 0.7506 0.6110
C9_3 C 0.4686(4) 0.8879(3) 0.7667(4)
H6_3 H 0.4690 0.9255 0.8056
C10_3 C 0.3997(3) 0.8884(4) 0.7101(4)
H7_3 H 0.3553 0.9257 0.7099
C13_3 C 0.1536(3) 0.7919(3) 0.4954(3)
H8_3 H 0.2000 0.7567 0.4886
C14_3 C 0.1619(4) 0.8458(3) 0.5552(4)
C17_4 C 0.5350(3) 0.7896(4) 0.7128(4)
H10_4 H 0.5832 0.7554 0.7131
C19_3 C 0.0908(5) 0.8948(5) 0.5603(5)
H12_3 H 0.0923 0.9311 0.6006
C20_3 C 0.0186(4) 0.8920(4) 0.5083(5)
C21_3 C 0.0791(4) 0.7911(3) 0.4483(4)
H14_3 H 0.0746 0.7542 0.4088
N3_3 N 0.9897(3) 0.1608(2) 0.4536(3)
C22_4 C 0.6032(3) 0.1661(3) 0.6542(4)
C26_4 C 0.7590(4) 0.1467(3) 0.6081(4)
H17_4 H 0.7666 0.1168 0.6541
C27_4 C 0.6796(4) 0.1764(3) 0.5991(3)
H18_4 H 0.6705 0.2067 0.5538
C28_4 C 0.5305(4) 0.2143(4) 0.6526(4)
H19_4 H 0.5258 0.2494 0.6110
C29_4 C 0.5314(4) 0.1121(3) 0.7667(4)
H20_4 H 0.5310 0.0745 0.8056
C30_4 C 0.6003(3) 0.1116(4) 0.7101(4)
H21_4 H 0.6447 0.0743 0.7099
C33_3 C 0.8464(3) 0.2081(3) 0.4954(3)
H22_3 H 0.8000 0.2433 0.4886
C34_4 C 0.8381(4) 0.1542(3) 0.5552(4)
C37_4 C 0.4650(3) 0.2104(4) 0.7128(4)
H24_4 H 0.4168 0.2446 0.7131
C39_4 C 0.9092(5) 0.1052(5) 0.5603(5)
H26_4 H 0.9077 0.0689 0.6006
C40_4 C 0.9814(4) 0.1080(4) 0.5083(5)
C41_3 C 0.9209(4) 0.2089(3) 0.4483(4)
H28_3 H 0.9254 0.2458 0.4088
C2_6 C 0.0000 1.0000 0.0374(5)
C2_7 C 1.0000 -0.0000 0.0374(5)
C1_4 C 0.1032(3) 0.8339(3) 0.1542(4)
C2_8 C 1.0000 1.0000 0.0374(5)
H1_3 H 0.9836 0.9588 0.0724
C6_4 C 0.2590(4) 0.8533(3) 0.1081(4)
H3_4 H 0.2666 0.8832 0.1541
C7_4 C 0.1796(4) 0.8236(3) 0.0991(3)
H4_4 H 0.1705 0.7933 0.0538
C8_4 C 0.0305(4) 0.7857(4) 0.1526(4)
H5_4 H 0.0258 0.7506 0.1110
C9_4 C 0.0314(4) 0.8879(3) 0.2667(4)
H6_4 H 0.0310 0.9255 0.3056
C10_4 C 0.1003(3) 0.8884(4) 0.2101(4)
H7_4 H 0.1447 0.9257 0.2099
C14_4 C 0.3381(4) 0.8458(3) 0.0552(4)
C19_4 C 0.4092(5) 0.8948(5) 0.0603(5)
H12_4 H 0.4077 0.9311 0.1006
C20_4 C 0.4814(4) 0.8920(4) 0.0083(5)
H13_3 H 0.5268 0.9284 0.0111
N1_4 N 0.0103(3) 0.3392(2) 0.9536(3)
C13_4 C 0.1536(3) 0.2919(3) 0.9954(3)
H8_4 H 0.2000 0.2567 0.9886
C21_4 C 0.0791(4) 0.2911(3) 0.9483(4)
H14_4 H 0.0746 0.2542 0.9088
C2_9 C 0.5000 0.5000 0.0374(5)
H1_4 H 0.5164 0.4588 0.0724
H13_4 H 0.9732 0.4284 0.0111
H15_4 H 0.4836 0.5412 0.0724
H27_4 H 0.0268 0.5716 0.0111
N3_4 N 0.9897(3) 0.6608(2) 0.9536(3)
C33_4 C 0.8464(3) 0.7081(3) 0.9954(3)
H22_4 H 0.8000 0.7433 0.9886
C41_4 C 0.9209(4) 0.7089(3) 0.9483(4)
H28_4 H 0.9254 0.7458 0.9088
loop_
_geom_bond_atom_site_label_1
_geom_bond_atom_site_label_2
_geom_bond_site_symmetry_1
_geom_bond_site_symmetry_2
Zn6 N4 1_555 1_555
C37 N4 1_555 1_555
H24 C37 1_555 1_555
C17 N2 1_555 1_555
H10 C17 1_555 1_555
Zn5 N2 1_555 1_555
N2_2 C9 1_555 1_555
C1 C7 1_555 1_555
C6 H3 1_555 1_555
C7 C6 1_555 1_555
H4 C7 1_555 1_555
C8 C1 1_555 1_555
H5 C8 1_555 1_555
C9 H6 1_555 1_555
C10 C1 1_555 1_555
H7 C10 1_555 1_555
C14 C6 1_555 1_555
C17_2 N2_2 1_555 1_555
H10_2 C17_2 1_555 1_555
C19 C14 1_555 1_555
H12 C19 1_555 1_555
Zn5_2 N2_2 1_555 1_555
C8 C17_2 1_555 1_555
C9 C10 1_555 1_555
C19 C20 1_555 1_555
Zn6_2 N4_2 1_555 1_555
N4_2 C29 1_555 1_555
C22 C27 1_555 1_555
C26 H17 1_555 1_555
C27 C26 1_555 1_555
H18 C27 1_555 1_555
C28 C22 1_555 1_555
H19 C28 1_555 1_555
C29 H20 1_555 1_555
C30 C22 1_555 1_555
H21 C30 1_555 1_555
C34 C26 1_555 1_555
C37_2 N4_2 1_555 1_555
H24_2 C37_2 1_555 1_555
C39 C34 1_555 1_555
H26 C39 1_555 1_555
C28 C37_2 1_555 1_555
C29 C30 1_555 1_555
C39 C40 1_555 1_555
Zn6_2 O5 1_555 1_555
Zn6 O6 1_555 1_555
O5 C35 1_555 1_555
O6 C31 1_555 1_555
O8 Zn6_2 1_555 1_555
N3 Zn6_2 1_555 1_555
C22_2 C27_2 1_555 1_555
H15 C2 1_555 1_555
O9 Zn6_2 1_555 1_555
O10 C31 1_555 1_555
C23 C2 1_555 1_555
C24 C23 1_555 1_555
H16 C24 1_555 1_555
C25 C31 1_555 1_555
C26_2 H17_2 1_555 1_555
C27_2 C26_2 1_555 1_555
H18_2 C27_2 1_555 1_555
C28_2 C22_2 1_555 1_555
H19_2 C28_2 1_555 1_555
C29_2 H20_2 1_555 1_555
C30_2 C22_2 1_555 1_555
H21_2 C30_2 1_555 1_555
C32 C24 1_555 1_555
C33 H22 1_555 1_555
C34_2 C26_2 1_555 1_555
C35 O9 1_555 1_555
C36 C25 1_555 1_555
H23 C36 1_555 1_555
C38 C23 1_555 1_555
H25 C38 1_555 1_555
C39_2 C34_2 1_555 1_555
H26_2 C39_2 1_555 1_555
C40_2 N3 1_555 1_555
H27 C40_2 1_555 1_555
C41 N3 1_555 1_555
H28 C41 1_555 1_555
C25 C38 1_555 1_555
C29_2 C30_2 1_555 1_555
C32 C35 1_555 1_555
C32 C36 1_555 1_555
C33 C34_2 1_555 1_555
C33 C41 1_555 1_555
C39_2 C40_2 1_555 1_555
Zn5_2 O1 1_555 1_555
O1 C15 1_555 1_555
O2 C11 1_555 1_555
N1 Zn5_2 1_555 1_555
C1_2 C7_2 1_555 1_555
C2_2 H1 1_555 1_555
O3 Zn5_2 1_555 1_555
O4 C11 1_555 1_555
C3 C2_2 1_555 1_555
C4 C3 1_555 1_555
H2 C4 1_555 1_555
C5 C11 1_555 1_555
C6_2 H3_2 1_555 1_555
C7_2 C6_2 1_555 1_555
H4_2 C7_2 1_555 1_555
C8_2 C1_2 1_555 1_555
H5_2 C8_2 1_555 1_555
C9_2 H6_2 1_555 1_555
C10_2 C1_2 1_555 1_555
H7_2 C10_2 1_555 1_555
C12 C4 1_555 1_555
C13 H8 1_555 1_555
C14_2 C6_2 1_555 1_555
C15 O3 1_555 1_555
C16 C5 1_555 1_555
H9 C16 1_555 1_555
C18 C3 1_555 1_555
H11 C18 1_555 1_555
C19_2 C14_2 1_555 1_555
H12_2 C19_2 1_555 1_555
C20_2 N1 1_555 1_555
H13 C20_2 1_555 1_555
C21 N1 1_555 1_555
H14 C21 1_555 1_555
Zn5 O2 1_555 1_555
O7 Zn5_2 1_555 1_555
C5 C18 1_555 1_555
C9_2 C10_2 1_555 1_555
C12 C15 1_555 1_555
C12 C16 1_555 1_555
C13 C14_2 1_555 1_555
C13 C21 1_555 1_555
C19_2 C20_2 1_555 1_555
O7 C11_2 1_555 1_555
O4_2 C11_2 1_555 1_555
C3_2 C2_3 1_555 1_555
C5_2 C11_2 1_555 1_555
C16_2 C5_2 1_555 1_555
H9_2 C16_2 1_555 1_555
C18_2 C3_2 1_555 1_555
H11_2 C18_2 1_555 1_555
Zn6 O5_2 1_555 1_555
O5_2 C35_2 1_555 1_555
H15_2 C2_3 1_555 1_555
O9_2 Zn6 1_555 1_555
H16_2 C24_2 1_555 1_555
C32_2 C24_2 1_555 1_555
C35_2 O9_2 1_555 1_555
C5_2 C18_2 1_555 1_555
C32_2 C35_2 1_555 1_555
Zn5 O1_2 1_555 1_555
O1_2 C15_2 1_555 1_555
C2_4 H1_2 1_555 1_555
O3_2 Zn5 1_555 1_555
H2_2 C4_2 1_555 1_555
C12_2 C4_2 1_555 1_555
C15_2 O3_2 1_555 1_555
O8 C31_2 1_555 1_555
O10_2 C31_2 1_555 1_555
C23_2 C2_4 1_555 1_555
C25_2 C31_2 1_555 1_555
C36_2 C25_2 1_555 1_555
H23_2 C36_2 1_555 1_555
C38_2 C23_2 1_555 1_555
H25_2 C38_2 1_555 1_555
C12_2 C15_2 1_555 1_555
C25_2 C38_2 1_555 1_555
C22_3 C27_3 1_555 1_555
H15_3 C2_5 1_555 1_555
C26_3 H17_3 1_555 1_555
C27_3 C26_3 1_555 1_555
H18_3 C27_3 1_555 1_555
C28_3 C22_3 1_555 1_555
H19_3 C28_3 1_555 1_555
C29_3 H20_3 1_555 1_555
C30_3 C22_3 1_555 1_555
H21_3 C30_3 1_555 1_555
C34_3 C26_3 1_555 1_555
C39_3 C34_3 1_555 1_555
H26_3 C39_3 1_555 1_555
H27_3 C40_3 1_555 1_555
C29_3 C30_3 1_555 1_555
C39_3 C40_3 1_555 1_555
Zn2 O5_3 1_555 1_555
O5_3 C35_3 1_555 1_555
O8_2 Zn2 1_555 1_555
N3_2 Zn2 1_555 1_555
N6 Zn2 1_555 1_555
O9_3 Zn2 1_555 1_555
H16_3 C24_3 1_555 1_555
C32_3 C24_3 1_555 1_555
C33_2 H22_2 1_555 1_555
C35_3 O9_3 1_555 1_555
C41_2 N3_2 1_555 1_555
H28_2 C41_2 1_555 1_555
C32_3 C35_3 1_555 1_555
C33_2 C41_2 1_555 1_555
Zn4 O6_2 1_555 1_555
O6_2 C31_3 1_555 1_555
O10_3 C31_3 1_555 1_555
C25_3 C31_3 1_555 1_555
C36_3 C25_3 1_555 1_555
H23_3 C36_3 1_555 1_555
C38_3 C23_3 1_555 1_555
H25_3 C38_3 1_555 1_555
C25_3 C38_3 1_555 1_555
O2_2 C11_3 1_555 1_555
O4_3 C11_3 1_555 1_555
C5_3 C11_3 1_555 1_555
C16_3 C5_3 1_555 1_555
H9_3 C16_3 1_555 1_555
C18_3 C3_3 1_555 1_555
H11_3 C18_3 1_555 1_555
Zn3 O2_2 1_555 1_555
C5_3 C18_3 1_555 1_555
Zn1 O1_3 1_555 1_555
O1_3 C15_3 1_555 1_555
N1_2 Zn1 1_555 1_555
O3_3 Zn1 1_555 1_555
H2_3 C4_3 1_555 1_555
C12_3 C4_3 1_555 1_555
C13_2 H8_2 1_555 1_555
C15_3 O3_3 1_555 1_555
C21_2 N1_2 1_555 1_555
H14_2 C21_2 1_555 1_555
O7_2 Zn1 1_555 1_555
N5 Zn1 1_555 1_555
C12_3 C15_3 1_555 1_555
C13_2 C21_2 1_555 1_555
Zn3 O1_4 1_555 1_555
O1_4 C15_4 1_555 1_555
O7_2 C11_4 1_555 1_555
O3_4 Zn3 1_555 1_555
O4_4 C11_4 1_555 1_555
C4_4 C3_4 1_555 1_555
H2_4 C4_4 1_555 1_555
C5_4 C11_4 1_555 1_555
C12_4 C4_4 1_555 1_555
C15_4 O3_4 1_555 1_555
C16_4 C5_4 1_555 1_555
H9_4 C16_4 1_555 1_555
C18_4 C3_4 1_555 1_555
H11_4 C18_4 1_555 1_555
Zn4 O5_4 1_555 1_555
O5_4 C35_4 1_555 1_555
O8_2 C31_4 1_555 1_555
N5_2 Zn3 1_555 1_555
N6_2 Zn4 1_555 1_555
O9_4 Zn4 1_555 1_555
O10_4 C31_4 1_555 1_555
C24_4 C23_4 1_555 1_555
H16_4 C24_4 1_555 1_555
C25_4 C31_4 1_555 1_555
C32_4 C24_4 1_555 1_555
C35_4 O9_4 1_555 1_555
C36_4 C25_4 1_555 1_555
H23_4 C36_4 1_555 1_555
C38_4 C23_4 1_555 1_555
H25_4 C38_4 1_555 1_555
C5_4 C18_4 1_555 1_555
C12_4 C15_4 1_555 1_555
C12_4 C16_4 1_555 1_555
C25_4 C38_4 1_555 1_555
C32_4 C35_4 1_555 1_555
C32_4 C36_4 1_555 1_555
C37_3 N6_2 1_555 1_555
H24_3 C37_3 1_555 1_555
C17_3 N5_2 1_555 1_555
H10_3 C17_3 1_555 1_555
N5 C9_3 1_555 1_555
C1_3 C7_3 1_555 1_555
C6_3 H3_3 1_555 1_555
C7_3 C6_3 1_555 1_555
H4_3 C7_3 1_555 1_555
C8_3 C1_3 1_555 1_555
H5_3 C8_3 1_555 1_555
C9_3 H6_3 1_555 1_555
C10_3 C1_3 1_555 1_555
H7_3 C10_3 1_555 1_555
C13_3 H8_3 1_555 1_555
C14_3 C6_3 1_555 1_555
C17_4 N5 1_555 1_555
H10_4 C17_4 1_555 1_555
C19_3 C14_3 1_555 1_555
H12_3 C19_3 1_555 1_555
C20_3 N1_3 1_555 1_555
C21_3 N1_3 1_555 1_555
H14_3 C21_3 1_555 1_555
C8_3 C17_4 1_555 1_555
C9_3 C10_3 1_555 1_555
C13_3 C14_3 1_555 1_555
C13_3 C21_3 1_555 1_555
C19_3 C20_3 1_555 1_555
N6 C29_4 1_555 1_555
C22_4 C27_4 1_555 1_555
C26_4 H17_4 1_555 1_555
C27_4 C26_4 1_555 1_555
H18_4 C27_4 1_555 1_555
C28_4 C22_4 1_555 1_555
H19_4 C28_4 1_555 1_555
C29_4 H20_4 1_555 1_555
C30_4 C22_4 1_555 1_555
H21_4 C30_4 1_555 1_555
C33_3 H22_3 1_555 1_555
C34_4 C26_4 1_555 1_555
C37_4 N6 1_555 1_555
H24_4 C37_4 1_555 1_555
C39_4 C34_4 1_555 1_555
H26_4 C39_4 1_555 1_555
C40_4 N3_3 1_555 1_555
C41_3 N3_3 1_555 1_555
H28_3 C41_3 1_555 1_555
C28_4 C37_4 1_555 1_555
C29_4 C30_4 1_555 1_555
C33_3 C34_4 1_555 1_555
C33_3 C41_3 1_555 1_555
C39_4 C40_4 1_555 1_555
C1_4 C7_4 1_555 1_555
C2_8 H1_3 1_555 1_555
C6_4 H3_4 1_555 1_555
C7_4 C6_4 1_555 1_555
H4_4 C7_4 1_555 1_555
C8_4 C1_4 1_555 1_555
H5_4 C8_4 1_555 1_555
C9_4 H6_4 1_555 1_555
C10_4 C1_4 1_555 1_555
H7_4 C10_4 1_555 1_555
C14_4 C6_4 1_555 1_555
C19_4 C14_4 1_555 1_555
H12_4 C19_4 1_555 1_555
H13_3 C20_4 1_555 1_555
C9_4 C10_4 1_555 1_555
C19_4 C20_4 1_555 1_555
C13_4 H8_4 1_555 1_555
C21_4 N1_4 1_555 1_555
H14_4 C21_4 1_555 1_555
C13_4 C21_4 1_555 1_555
C2_9 H1_4 1_555 1_555
H15_4 C2_9 1_555 1_555
C33_4 H22_4 1_555 1_555
C41_4 N3_4 1_555 1_555
H28_4 C41_4 1_555 1_555
C33_4 C41_4 1_555 1_555

#END
