
###############################################################################
#
# This file contains modified crystal structure data generated from the
# MOF subset of the Cambridge Structural Database (CSD) v543 
# hosted by the Cambridge Crystallographic Data Centre (CCDC).
#
# This work is licensed under the Creative Commons
# Attribution-NonCommercial-ShareAlike 4.0 International License.
# To view a copy of this license, visit
# http://creativecommons.org/licenses/by-nc-sa/4.0/
# or send a letter to
# Creative Commons, PO Box 1866, Mountain View, CA 94042, USA.
#
# CIF created using the CSD Python API on 29 September 2022
# The structure has been converted into the P1 space group
# The structure has a 3D framework
# The original CSD entry ICANEH is in the rhombohedral crystal system
# The framework has been calculated to contain at least 10.0% void space
# The void calculation uses a probe of radius 1.32A, grid spacing 0.4
#
###############################################################################

data_ICANEH
_chemical_formula_moiety         '(C130 H180 Ag32 N144 O72)n'
_symmetry_cell_setting           triclinic
_symmetry_space_group_name_H-M   'P 1'
_symmetry_Int_Tables_number      1
_space_group_name_Hall           'P 1'
loop_
_symmetry_equiv_pos_site_id
_symmetry_equiv_pos_as_xyz
1 x,y,z
_cell_length_a                   22.274(3)
_cell_length_b                   22.274(3)
_cell_length_c                   16.940(3)
_cell_angle_alpha                90
_cell_angle_beta                 90
_cell_angle_gamma                120
_cell_volume                     7278.48
loop_
_atom_site_label
_atom_site_type_symbol
_atom_site_fract_x
_atom_site_fract_y
_atom_site_fract_z
Ag2 Ag 0.277164(14) 0.277164(14) -0.0000
N4 N 0.14830(11) 0.2966(2) 0.03468(19)
H4 H 0.1864 0.3027 0.0603
Ag8 Ag 0.422030(18) 0.577970(8) 0.364970(18)
Ag9 Ag 0.177394(16) 0.088697(8) 0.301697(18)
Ag10 Ag -0.000000(20) 0.277164(14) -0.0000
Ag15 Ag 0.389503(14) 0.333333(20) 0.3333
Ag16 Ag 0.277164(14) -0.000000(20) -0.0000
C9 C 0.31550(13) 0.41857(13) 0.09322(14)
C10 C 0.35116(13) 0.43640(18) 0.24012(14)
C12 C 0.3333 0.4629(2) 0.1667
H9 H 0.2947 0.4691 0.1790
H10 H 0.3719 0.5077 0.1544
C14 C 0.25166(13) 0.17743(13) 0.15337(13)
C15 C 0.25166(13) 0.07423(18) 0.15337(13)
C18 C 0.2783(2) 0.13913(10) 0.0407(2)
N7 N 0.24047(16) 0.12024(8) 0.19375(17)
N11 N 0.26975(12) 0.18843(11) 0.07629(12)
N12 N 0.26975(12) 0.08132(16) 0.07629(12)
N19 N 0.24458(12) 0.22577(12) 0.19145(13)
N20 N 0.24458(12) 0.01881(17) 0.19145(13)
H12 H 0.2516 0.2641 0.1658
H17 H 0.2328 0.2201 0.2429
H18 H 0.2328 0.0127 0.2429
H21 H 0.1163 0.3027 0.0603
O6 O 0.32803(10) 0.44931(10) 0.02791(10)
O7 O 0.33863(10) 0.45461(14) 0.30543(10)
O15 O 0.28698(11) 0.35426(10) 0.10192(11)
O16 O 0.37968(11) 0.40061(15) 0.23142(11)
O18 O 0.06727(15) 0.35426(10) 0.10192(11)
Ag1 Ag 0.088697(8) 0.177394(16) 0.698303(18)
Ag2_2 Ag 0.277164(14) 0.277164(14) 1.0000
C1 C 0.01783(13) 0.24810(13) 0.57345(14)
C2 C -0.0000 0.2038(2) 0.5000
H1 H 0.0386 0.1976 0.4877
C3 C 0.17743(13) 0.25166(13) 0.84663(13)
C4 C 0.13913(10) 0.2783(2) 0.9593(2)
N1 N 0.12024(8) 0.24047(16) 0.80625(17)
N2 N 0.18843(11) 0.26975(12) 0.92371(12)
N3 N 0.22577(12) 0.24458(12) 0.80855(13)
H2 H 0.2641 0.2516 0.8342
H3 H 0.2201 0.2328 0.7571
N5 N 0.03585(8) 0.07170(16) 0.64600(18)
O1 O 0.00530(10) 0.21736(10) 0.63876(10)
O2 O 0.04635(11) 0.31241(10) 0.56475(11)
Ag7 Ag 0.244636(18) 0.489273(16) 0.968364(18)
Ag10_2 Ag -0.000000(20) 0.277164(14) 1.0000
Ag11 Ag 0.056169(14) 0.389503(14) 0.6667
Ag13 Ag 0.333333(20) 0.389503(14) 0.6667
Ag16_2 Ag 0.277164(14) -0.000000(20) 1.0000
C7 C 0.23027(18) 0.24810(13) 0.57345(14)
C8 C 0.24810(13) 0.23027(18) 0.42655(14)
C11 C 0.2038(2) 0.2038(2) 0.5000
H7 H 0.1590 0.1976 0.4877
H8 H 0.1976 0.1590 0.5123
C13 C 0.07423(18) 0.25166(13) 0.84663(13)
C20 C 0.06874(14) 0.03437(10) 0.6460(2)
N10 N 0.08132(16) 0.26975(12) 0.92371(12)
N16 N 0.14490(11) 0.39692(12) 0.74296(12)
N17 N 0.06358(12) 0.47824(11) 0.59038(12)
N18 N 0.01881(17) 0.24458(12) 0.80855(13)
H15 H 0.2641 0.0125 0.8342
H16 H 0.0127 0.2328 0.7571
N23 N 0.2966(2) 0.14830(11) 0.96532(19)
H22 H 0.3027 0.1864 0.9397
H23 H 0.3027 0.1163 0.9397
N28 N 0.13750(11) 0.06875(8) 0.6463(2)
H29 H 0.1608 0.0454 0.6465
H30 H 0.1608 0.1154 0.6465
O4 O 0.21206(14) 0.21736(10) 0.63876(10)
O5 O 0.21736(10) 0.21206(14) 0.36124(10)
O13 O 0.26606(15) 0.31241(10) 0.56475(11)
O14 O 0.31241(10) 0.26606(15) 0.43525(11)
O17 O 0.35426(10) 0.28698(11) 0.89808(11)
Ag16_3 Ag 0.277164(14) 1.000000(20) -0.0000
Ag17 Ag 0.000000(20) 0.722836(14) -0.0000
H13 H 0.2516 0.9875 0.1658
N24 N 0.14830(23) 0.85170(11) 0.03468(19)
H24 H 0.1163 0.8136 0.0603
H25 H 0.1864 0.8837 0.0603
Ag3 Ag 0.088697(18) 0.911303(8) 0.698303(18)
Ag16_4 Ag 0.277164(14) 1.000000(20) 1.0000
Ag17_2 Ag -0.000000(20) 0.722836(14) 1.0000
C16 C 0.07423(18) 0.82257(13) 0.84663(13)
C17 C 0.17743(13) 0.92577(18) 0.84663(13)
C19 C 0.13917(22) 0.86087(10) 0.9593(2)
N8 N 0.12023(18) 0.87976(8) 0.80625(17)
N13 N 0.08132(16) 0.81157(11) 0.92371(12)
N14 N 0.18843(11) 0.91868(16) 0.92371(12)
N21 N 0.01881(17) 0.77423(12) 0.80855(13)
N22 N 0.22577(12) 0.98119(17) 0.80855(13)
H19 H 0.0127 0.7799 0.7571
H20 H 0.2201 0.9873 0.7571
N25 N 0.03585(18) 0.96415(8) 0.64600(18)
O8 O 0.21206(14) 0.99470(10) 0.63876(10)
O9 O 0.00530(10) 0.78794(14) 0.63876(10)
Ag10_3 Ag 1.000000(20) 0.277164(14) -0.0000
N15 N 0.91868(16) 0.18843(11) 0.07629(12)
C2_2 C 1.0000 0.2038(2) 0.5000
C5 C 0.96563(10) 0.03437(10) 0.6460(2)
N6 N 0.93125(8) 0.06875(8) 0.6463(2)
H5 H 0.9546 0.1154 0.6465
Ag5 Ag 0.911303(8) 0.088697(18) 0.301697(18)
Ag10_4 Ag 1.000000(20) 0.277164(14) 1.0000
Ag12 Ag 0.943831(14) 0.333333(20) 0.3333
C6 C 0.98217(13) 0.23027(18) 0.42655(14)
H6 H 0.9614 0.1590 0.5123
H11 H 0.9875 0.2516 0.8342
H26 H 0.8846 0.0454 0.6465
O3 O 0.99470(10) 0.21206(14) 0.36124(10)
O12 O 0.95365(11) 0.26606(15) 0.43525(11)
O19 O 0.93273(15) 0.28698(11) 0.89808(11)
O20 O 0.97908(10) 0.37968(11) 0.76858(11)
Ag17_3 Ag 1.000000(20) 0.722836(14) -0.0000
Ag4 Ag 0.822606(16) 0.911303(18) 0.698303(18)
Ag17_4 Ag 1.000000(20) 0.722836(14) 1.0000
C21 C 0.96563(10) 0.93126(14) 0.6460(2)
N9 N 0.75953(16) 0.87977(18) 0.80625(17)
H14 H 0.9875 0.7359 0.8342
N26 N 0.92830(16) 0.96415(18) 0.64600(18)
N27 N 0.93125(8) 0.86250(11) 0.6463(2)
H27 H 0.8846 0.8392 0.6465
H28 H 0.9546 0.8392 0.6465
O10 O 0.78264(10) 0.78794(14) 0.63876(10)
O11 O 0.78264(10) 0.99470(10) 0.63876(10)
H13_2 H 0.0125 0.2641 0.1658
Ag2_3 Ag 0.722836(14) 0.000000(20) -0.0000
Ag15_2 Ag 0.666667(20) 0.056169(24) 0.3333
C14_2 C 0.82257(13) 0.07423(18) 0.15337(13)
C15_2 C 0.92577(18) 0.17743(22) 0.15337(13)
C18_2 C 0.86087(10) 0.13917(22) 0.0407(2)
N7_2 N 0.87976(8) 0.12023(18) 0.19375(17)
N11_2 N 0.81157(11) 0.08132(16) 0.07629(12)
N19_2 N 0.77423(12) 0.01881(17) 0.19145(13)
N20_2 N 0.98119(17) 0.22577(21) 0.19145(13)
H17_2 H 0.7799 0.0127 0.2429
H18_2 H 0.9873 0.2201 0.2429
Ag2_4 Ag 0.722836(14) 0.000000(20) 1.0000
H2_2 H 0.7484 0.0125 0.8342
C8_2 C 0.76973(18) 0.01783(22) 0.42655(14)
C11_2 C 0.7962(2) 0.0000(3) 0.5000
H8_2 H 0.8410 0.0386 0.5123
N23_2 N 0.85170(11) 0.14830(23) 0.96532(19)
H22_2 H 0.8136 0.1163 0.9397
H23_2 H 0.8837 0.1864 0.9397
O5_2 O 0.78794(14) 0.00530(17) 0.36124(10)
O14_2 O 0.73394(15) 0.04635(18) 0.43525(11)
O17_2 O 0.71302(11) 0.06727(15) 0.89808(11)
Ag2_5 Ag 0.722836(14) 1.000000(20) -0.0000
N4_2 N 0.7034(2) 0.85170(23) 0.03468(19)
H4_2 H 0.6973 0.8837 0.0603
Ag8_2 Ag 0.422030(8) 0.844061(20) 0.364970(18)
Ag10_5 Ag 0.722836(14) 0.722836(24) -0.0000
C9_2 C 0.58143(13) 0.89694(18) 0.09322(14)
C10_2 C 0.56360(18) 0.91477(22) 0.24012(14)
C12_2 C 0.5371(2) 0.8705(2) 0.1667
H9_2 H 0.5309 0.8257 0.1790
H10_2 H 0.4923 0.8643 0.1544
N15_2 N 0.81157(11) 0.73025(19) 0.07629(12)
H12_2 H 0.7359 0.9875 0.1658
H21_2 H 0.6973 0.8136 0.0603
O6_2 O 0.55069(10) 0.87873(14) 0.02791(10)
O7_2 O 0.54539(14) 0.88403(17) 0.30543(10)
O15_2 O 0.64574(10) 0.93273(15) 0.10192(11)
O16_2 O 0.59939(15) 0.97908(19) 0.23142(11)
O18_2 O 0.64574(10) 0.71302(18) 0.10192(11)
Ag2_6 Ag 0.722836(14) 1.000000(20) 1.0000
C1_2 C 0.75190(13) 0.76973(18) 0.57345(14)
C2_3 C 0.7962(2) 0.7962(2) 0.5000
H1_2 H 0.8024 0.8410 0.4877
C3_2 C 0.74834(13) 0.92577(18) 0.84663(13)
C4_2 C 0.7217(2) 0.86083(22) 0.9593(2)
N2_2 N 0.73025(12) 0.91868(16) 0.92371(12)
N3_2 N 0.75542(12) 0.98119(17) 0.80855(13)
H3_2 H 0.7672 0.9873 0.7571
O2_2 O 0.68759(10) 0.73394(15) 0.56475(11)
Ag5_2 Ag 0.911303(18) 0.822606(20) 0.301697(18)
Ag7_2 Ag 0.510727(16) 0.755364(24) 0.968364(18)
Ag10_6 Ag 0.722836(14) 0.722836(24) 1.0000
Ag11_2 Ag 0.610497(14) 0.666667(20) 0.6667
Ag12_2 Ag 0.666667(20) 0.610497(24) 0.3333
Ag13_2 Ag 0.610497(14) 0.943831(24) 0.6667
C6_2 C 0.76973(18) 0.75190(22) 0.42655(14)
C7_2 C 0.75190(13) 0.98217(22) 0.57345(14)
C11_3 C 0.7962(2) 1.0000(3) 0.5000
H6_2 H 0.8410 0.8024 0.5123
H7_2 H 0.8024 0.9614 0.4877
C13_2 C 0.74834(13) 0.82257(22) 0.84663(13)
N10_2 N 0.73025(12) 0.81157(20) 0.92371(12)
N16_2 N 0.60308(12) 0.74799(16) 0.74296(12)
N17_2 N 0.52176(11) 0.58535(16) 0.59038(12)
N18_2 N 0.75542(12) 0.77423(21) 0.80855(13)
H11_2 H 0.7484 0.7359 0.8342
H16_2 H 0.7672 0.7799 0.7571
O3_2 O 0.78794(14) 0.78264(17) 0.36124(10)
O12_2 O 0.73394(15) 0.68759(19) 0.43525(11)
O13_2 O 0.68759(10) 0.95365(18) 0.56475(11)
O19_2 O 0.71302(11) 0.64574(19) 0.89808(11)
O20_2 O 0.62032(11) 0.59939(15) 0.76858(11)
C2_4 C 0.2038(2) 0.0000 0.5000
Ag12_3 Ag 0.389503(24) 0.056169(14) 0.3333
C6_3 C 0.24810(22) 0.01783(13) 0.42655(14)
H6_3 H 0.1976 0.0386 0.5123
O3_3 O 0.21736(17) 0.00530(10) 0.36124(10)
O12_3 O 0.31241(19) 0.04635(11) 0.43525(11)
O19_3 O 0.35426(19) 0.06727(15) 0.89808(11)
O20_3 O 0.40061(15) 0.02092(10) 0.76858(11)
Ag8_3 Ag 0.155939(20) 0.577970(18) 0.364970(18)
C9_3 C 0.10306(18) 0.68450(13) 0.09322(14)
C10_3 C 0.08523(22) 0.64884(13) 0.24012(14)
C12_3 C 0.1295(2) 0.6667 0.1667
H9_3 H 0.1743 0.7053 0.1790
H10_3 H 0.1357 0.6281 0.1544
H12_3 H 0.0125 0.7484 0.1658
O6_3 O 0.12127(14) 0.67197(10) 0.02791(10)
O7_3 O 0.11597(17) 0.66137(10) 0.30543(10)
O15_3 O 0.06727(15) 0.71302(11) 0.10192(11)
O16_3 O 0.02092(19) 0.62032(11) 0.23142(11)
O18_3 O 0.28698(18) 0.93273(15) 0.10192(11)
C1_3 C 0.23027(18) 0.98217(13) 0.57345(14)
C2_5 C 0.2038(2) 1.0000 0.5000
H1_3 H 0.1590 0.9614 0.4877
O2_3 O 0.26606(15) 0.95365(11) 0.56475(11)
Ag7_3 Ag 0.244636(24) 0.755364(18) 0.968364(18)
Ag11_3 Ag 0.333333(20) 0.943831(14) 0.6667
Ag13_3 Ag 0.056169(24) 0.666667(20) 0.6667
C7_3 C 0.01783(22) 0.76973(18) 0.57345(14)
C11_4 C -0.0000(3) 0.7962(2) 0.5000
H7_3 H 0.0386 0.8410 0.4877
N16_3 N 0.25201(16) 0.85510(11) 0.74296(12)
N17_3 N 0.41465(16) 0.93642(12) 0.59038(12)
O13_3 O 0.04635(18) 0.73394(15) 0.56475(11)
Ag15_3 Ag 0.943831(24) 0.610497(14) 0.3333
C14_3 C 0.92577(18) 0.74834(13) 0.15337(13)
C15_3 C 0.82257(22) 0.74834(13) 0.15337(13)
C18_3 C 0.86083(22) 0.7217(2) 0.0407(2)
N7_3 N 0.87977(18) 0.75953(16) 0.19375(17)
N11_3 N 0.91868(16) 0.73025(12) 0.07629(12)
N19_3 N 0.98119(17) 0.75542(12) 0.19145(13)
N20_3 N 0.77423(21) 0.75542(12) 0.19145(13)
H13_3 H 0.7359 0.7484 0.1658
H17_3 H 0.9873 0.7672 0.2429
H18_3 H 0.7799 0.7672 0.2429
C8_3 C 0.98217(22) 0.75190(13) 0.42655(14)
C11_5 C 1.0000(3) 0.7962(2) 0.5000
H8_3 H 0.9614 0.8024 0.5123
N23_3 N 0.85170(23) 0.7034(2) 0.96532(19)
H22_3 H 0.8837 0.6973 0.9397
H23_3 H 0.8136 0.6973 0.9397
O5_3 O 0.99470(17) 0.78264(10) 0.36124(10)
O14_3 O 0.95365(18) 0.68759(10) 0.43525(11)
O17_3 O 0.93273(15) 0.64574(10) 0.89808(11)
N5_2 N 0.07170(16) 0.03585(8) 0.35400(18)
Ag7_4 Ag 0.489273(16) 0.244636(18) 0.031636(18)
C20_2 C 0.03437(10) 0.06874(14) 0.3540(2)
N16_4 N 0.39692(12) 0.14490(11) 0.25704(12)
N17_4 N 0.47824(11) 0.06358(12) 0.40962(12)
N28_2 N 0.06875(8) 0.13750(11) 0.3537(2)
H29_2 H 0.0454 0.1608 0.3535
H30_2 H 0.1154 0.1608 0.3535
Ag8_4 Ag 0.577970(8) 0.422030(18) 0.635030(18)
C9_4 C 0.41857(13) 0.31550(13) 0.90678(14)
C10_4 C 0.43640(18) 0.35116(13) 0.75988(14)
C12_4 C 0.4629(2) 0.3333 0.8333
H9_4 H 0.4691 0.2947 0.8210
H10_4 H 0.5077 0.3719 0.8456
O6_4 O 0.44931(10) 0.32803(10) 0.97209(10)
O7_4 O 0.45461(14) 0.33863(10) 0.69457(10)
O16_4 O 0.40061(15) 0.37968(11) 0.76858(11)
C5_2 C 0.03437(10) 0.96563(10) 0.3540(2)
N6_2 N 0.06875(8) 0.93125(8) 0.3537(2)
H5_2 H 0.1154 0.9546 0.3535
H26_2 H 0.0454 0.8846 0.3535
O20_4 O 0.37968(11) 0.97908(10) 0.23142(11)
N25_2 N 0.96415(8) 0.03585(18) 0.35400(18)
C21_2 C 0.93126(14) 0.96563(10) 0.3540(2)
N26_2 N 0.96415(18) 0.92830(16) 0.35400(18)
N27_2 N 0.86250(11) 0.93125(8) 0.3537(2)
H27_2 H 0.8392 0.8846 0.3535
H28_2 H 0.8392 0.9546 0.3535
Ag7_5 Ag 0.755364(24) 0.510727(16) 0.031636(18)
N16_5 N 0.74799(16) 0.60308(12) 0.25704(12)
N17_5 N 0.58535(16) 0.52176(11) 0.40962(12)
O20_5 O 0.59939(15) 0.62032(11) 0.23142(11)
Ag8_5 Ag 0.844061(20) 0.422030(8) 0.635030(18)
C9_5 C 0.89694(18) 0.58143(13) 0.90678(14)
C10_5 C 0.91477(22) 0.56360(18) 0.75988(14)
C12_5 C 0.8705(2) 0.5371(2) 0.8333
H9_5 H 0.8257 0.5309 0.8210
H10_5 H 0.8643 0.4923 0.8456
O6_5 O 0.87873(14) 0.55069(10) 0.97209(10)
O7_5 O 0.88403(17) 0.54539(14) 0.69457(10)
O16_5 O 0.97908(19) 0.59939(15) 0.76858(11)
O20_6 O 0.02092(10) 0.40061(15) 0.23142(11)
Ag7_6 Ag 0.755364(18) 0.244636(24) 0.031636(18)
N16_6 N 0.85510(11) 0.25201(16) 0.25704(12)
N17_6 N 0.93642(12) 0.41465(16) 0.40962(12)
Ag8_6 Ag 0.577970(18) 0.155939(20) 0.635030(18)
C9_6 C 0.68450(13) 0.10306(18) 0.90678(14)
C10_6 C 0.64884(13) 0.08523(22) 0.75988(14)
C12_6 C 0.6667 0.1295(2) 0.8333
H9_6 H 0.7053 0.1743 0.8210
H10_6 H 0.6281 0.1357 0.8456
O6_6 O 0.67197(10) 0.12127(14) 0.97209(10)
O7_6 O 0.66137(10) 0.11597(17) 0.69457(10)
O16_6 O 0.62032(11) 0.02092(19) 0.76858(11)
C3_3 C 0.84410(13) 0.58499(13) 0.17996(13)
C4_3 C 0.80580(10) 0.6116(2) 0.2926(2)
N1_2 N 0.78691(8) 0.57380(16) 0.13958(17)
N2_3 N 0.85510(11) 0.60308(12) 0.25704(12)
N3_3 N 0.89244(12) 0.57791(12) 0.14188(13)
H2_3 H 0.9308 0.5849 0.1675
H3_3 H 0.8868 0.5661 0.0904
N4_3 N 0.81497(11) 0.6299(2) 0.36801(19)
H4_3 H 0.8531 0.6360 0.3936
C13_3 C 0.74090(18) 0.58499(13) 0.17996(13)
C14_4 C 0.91833(13) 0.51076(13) 0.48670(13)
C15_4 C 0.91833(13) 0.40756(18) 0.48670(13)
C16_2 C 0.74090(18) 0.15590(13) 0.17996(13)
C17_2 C 0.84410(13) 0.25910(18) 0.17996(13)
C18_4 C 0.9450(2) 0.47246(10) 0.3740(2)
C19_2 C 0.80584(22) 0.19420(10) 0.2926(2)
N7_4 N 0.90714(16) 0.45357(8) 0.52708(17)
N8_2 N 0.78690(18) 0.21309(8) 0.13958(17)
N9_2 N 0.42620(16) 0.21310(18) 0.13958(17)
N11_4 N 0.93642(12) 0.52176(11) 0.40962(12)
N13_2 N 0.74799(16) 0.14490(11) 0.25704(12)
N18_3 N 0.68548(17) 0.57791(12) 0.14188(13)
N19_4 N 0.91125(12) 0.55910(12) 0.52478(13)
N20_4 N 0.91125(12) 0.35214(17) 0.52478(13)
N21_2 N 0.68548(17) 0.10756(12) 0.14188(13)
N22_2 N 0.89244(12) 0.31452(17) 0.14188(13)
H11_3 H 0.6542 0.5849 0.1675
H12_4 H 0.9183 0.5974 0.4991
H13_4 H 0.9183 0.3208 0.4991
H14_2 H 0.6542 0.0692 0.1675
H15_2 H 0.9308 0.3458 0.1675
H16_3 H 0.6794 0.5661 0.0904
H17_4 H 0.8995 0.5534 0.5762
H18_4 H 0.8995 0.3460 0.5762
H19_2 H 0.6794 0.1132 0.0904
H20_2 H 0.8868 0.3206 0.0904
N23_4 N 0.9633(2) 0.48163(11) 0.29865(19)
N24_2 N 0.81497(23) 0.18503(11) 0.36801(19)
H21_3 H 0.7830 0.6360 0.3936
H22_4 H 0.9694 0.5197 0.2730
H23_4 H 0.9694 0.4496 0.2730
H24_2 H 0.7830 0.1469 0.3936
H25_2 H 0.8531 0.2170 0.3936
C1_4 C 0.68450(13) 0.58143(13) 0.90678(14)
C2_6 C 0.6667 0.5371(2) 0.8333
H1_4 H 0.7053 0.5309 0.8210
C5_3 C 0.63230(10) 0.36770(10) 0.9793(2)
N5_3 N 0.70252(8) 0.40503(16) 0.97933(18)
N6_3 N 0.59792(8) 0.40208(8) 0.9796(2)
H5_3 H 0.6213 0.4487 0.9798
O1_2 O 0.67197(10) 0.55069(10) 0.97209(10)
C6_4 C 0.64884(13) 0.56360(18) 0.75988(14)
H6_4 H 0.6281 0.4923 0.8456
C20_3 C 0.73541(14) 0.36770(10) 0.9793(2)
C21_3 C 0.63230(10) 0.26459(14) 0.9793(2)
N25_3 N 0.70252(18) 0.29748(8) 0.97933(18)
N26_3 N 0.59497(16) 0.29748(18) 0.97933(18)
N27_3 N 0.59792(8) 0.19583(11) 0.9796(2)
N28_3 N 0.80417(11) 0.40208(8) 0.9796(2)
H26_3 H 0.5513 0.3787 0.9798
H27_3 H 0.5513 0.1725 0.9798
H28_3 H 0.6213 0.1725 0.9798
H29_3 H 0.8275 0.3787 0.9798
H30_3 H 0.8275 0.4487 0.9798
O3_4 O 0.66137(10) 0.54539(14) 0.69457(10)
O8_2 O 0.87873(14) 0.32803(10) 0.97209(10)
O10_2 O 0.44931(10) 0.12127(14) 0.97209(10)
C3_4 C 0.41501(13) 0.25910(18) 0.17996(13)
C4_4 C 0.3884(2) 0.19416(22) 0.2926(2)
N2_4 N 0.39692(12) 0.25201(16) 0.25704(12)
N3_4 N 0.42209(12) 0.31452(17) 0.14188(13)
H2_4 H 0.4151 0.3458 0.1675
H3_4 H 0.4339 0.3206 0.0904
N4_4 N 0.3701(2) 0.18503(23) 0.36801(19)
H4_4 H 0.3640 0.2170 0.3936
C13_4 C 0.41501(13) 0.15590(22) 0.17996(13)
C14_5 C 0.48924(13) 0.40756(18) 0.48670(13)
C15_5 C 0.59244(18) 0.51076(22) 0.48670(13)
C18_5 C 0.52754(10) 0.47250(22) 0.3740(2)
N7_5 N 0.54643(8) 0.45356(18) 0.52708(17)
N11_5 N 0.47824(11) 0.41465(16) 0.40962(12)
N18_4 N 0.42209(12) 0.10756(21) 0.14188(13)
N19_5 N 0.44090(12) 0.35214(17) 0.52478(13)
N20_5 N 0.64786(17) 0.55910(21) 0.52478(13)
H11_4 H 0.4151 0.0692 0.1675
H12_5 H 0.4026 0.3208 0.4991
H13_5 H 0.6792 0.5974 0.4991
H16_4 H 0.4339 0.1132 0.0904
H17_5 H 0.4466 0.3460 0.5762
H18_5 H 0.6540 0.5534 0.5762
N23_5 N 0.51837(11) 0.48163(23) 0.29865(19)
H21_4 H 0.3640 0.1469 0.3936
H22_5 H 0.4803 0.4496 0.2730
H23_5 H 0.5504 0.5197 0.2730
C1_5 C 0.41857(13) 0.10306(18) 0.90678(14)
C2_7 C 0.4629(2) 0.1295(2) 0.8333
H1_5 H 0.4691 0.1743 0.8210
C6_5 C 0.43640(18) 0.08523(22) 0.75988(14)
H6_5 H 0.5077 0.1357 0.8456
O3_5 O 0.45461(14) 0.11597(17) 0.69457(10)
C14_6 C 0.59244(18) 0.08167(13) 0.48670(13)
C15_6 C 0.48924(22) 0.08167(13) 0.48670(13)
C18_6 C 0.52750(22) 0.0550(2) 0.3740(2)
N7_6 N 0.54644(18) 0.09286(16) 0.52708(17)
N11_6 N 0.58535(16) 0.06358(12) 0.40962(12)
N19_6 N 0.64786(17) 0.08875(12) 0.52478(13)
N20_6 N 0.44090(21) 0.08875(12) 0.52478(13)
H12_6 H 0.6792 0.0817 0.4991
H13_6 H 0.4026 0.0817 0.4991
H17_6 H 0.6540 0.1005 0.5762
H18_6 H 0.4466 0.1005 0.5762
N23_6 N 0.51837(23) 0.0367(2) 0.29865(19)
H22_6 H 0.5504 0.0306 0.2730
H23_6 H 0.4803 0.0306 0.2730
C1_6 C 0.89694(18) 0.31550(13) 0.90678(14)
C2_8 C 0.8705(2) 0.3333 0.8333
H1_6 H 0.8257 0.2947 0.8210
C6_6 C 0.91477(22) 0.35116(13) 0.75988(14)
H6_6 H 0.8643 0.3719 0.8456
O3_6 O 0.88403(17) 0.33863(10) 0.69457(10)
C5_4 C 0.70104(10) 0.29896(10) 0.6873(2)
N5_4 N 0.73837(16) 0.36918(8) 0.68733(18)
N6_4 N 0.73542(8) 0.26458(8) 0.6870(2)
H5_4 H 0.7821 0.2879 0.6868
C20_4 C 0.70104(10) 0.40207(14) 0.6873(2)
C21_4 C 0.59793(14) 0.29896(10) 0.6873(2)
N25_4 N 0.63082(8) 0.36918(18) 0.68733(18)
N26_4 N 0.63082(18) 0.26163(16) 0.68733(18)
N27_4 N 0.52917(11) 0.26458(8) 0.6870(2)
N28_4 N 0.73542(8) 0.47083(11) 0.6870(2)
H26_4 H 0.7121 0.2179 0.6868
H27_4 H 0.5059 0.2179 0.6868
H28_4 H 0.5059 0.2879 0.6868
H29_4 H 0.7121 0.4941 0.6868
H30_4 H 0.7821 0.4941 0.6868
C1_7 C 0.35116(13) 0.91477(13) 0.24012(14)
C2_9 C 0.3333 0.8705(2) 0.1667
H1_7 H 0.3719 0.8643 0.1544
C3_5 C 0.51076(13) 0.91833(13) 0.51330(13)
C4_5 C 0.47246(10) 0.9450(2) 0.6260(2)
C5_5 C 0.29896(10) 0.70104(10) 0.3127(2)
N1_3 N 0.45357(8) 0.90714(16) 0.47292(17)
N2_5 N 0.52176(11) 0.93642(12) 0.59038(12)
N3_5 N 0.55910(12) 0.91125(12) 0.47522(13)
H2_5 H 0.5974 0.9183 0.5009
H3_5 H 0.5534 0.8995 0.4238
N4_5 N 0.48163(11) 0.9633(2) 0.70135(19)
H4_5 H 0.5197 0.9694 0.7270
N5_5 N 0.36918(8) 0.73837(16) 0.31267(18)
N6_5 N 0.26458(8) 0.73542(8) 0.3130(2)
H5_5 H 0.2879 0.7821 0.3132
O1_3 O 0.33863(10) 0.88403(10) 0.30543(10)
C6_7 C 0.31550(13) 0.89694(18) 0.09322(14)
H6_7 H 0.2947 0.8257 0.1790
C13_5 C 0.40756(18) 0.91833(13) 0.51330(13)
C14_7 C 0.58499(13) 0.84410(13) 0.82004(13)
C15_7 C 0.58499(13) 0.74090(18) 0.82004(13)
C16_3 C 0.40756(18) 0.48924(13) 0.51330(13)
C17_3 C 0.51076(13) 0.59244(18) 0.51330(13)
C18_7 C 0.6116(2) 0.80580(10) 0.7074(2)
C19_3 C 0.47250(22) 0.52754(10) 0.6260(2)
C20_5 C 0.40207(14) 0.70104(10) 0.3127(2)
C21_5 C 0.29896(10) 0.59793(14) 0.3127(2)
N7_7 N 0.57380(16) 0.78691(8) 0.86042(17)
N8_3 N 0.45356(18) 0.54643(8) 0.47292(17)
N9_3 N 0.09286(16) 0.54644(18) 0.47292(17)
N11_7 N 0.60308(12) 0.85510(11) 0.74296(12)
N13_3 N 0.41465(16) 0.47824(11) 0.59038(12)
N18_5 N 0.35214(17) 0.91125(12) 0.47522(13)
N19_7 N 0.57791(12) 0.89244(12) 0.85812(13)
N20_7 N 0.57791(12) 0.68548(17) 0.85812(13)
N21_3 N 0.35214(17) 0.44090(12) 0.47522(13)
N22_3 N 0.55910(12) 0.64786(17) 0.47522(13)
H11_5 H 0.3208 0.9183 0.5009
H12_7 H 0.5849 0.9308 0.8325
H13_7 H 0.5849 0.6542 0.8325
H14_3 H 0.3208 0.4026 0.5009
H15_3 H 0.5974 0.6792 0.5009
H16_5 H 0.3460 0.8995 0.4238
H17_7 H 0.5661 0.8868 0.9096
H18_7 H 0.5661 0.6794 0.9096
H19_3 H 0.3460 0.4466 0.4238
H20_3 H 0.5534 0.6540 0.4238
N23_7 N 0.6299(2) 0.81497(11) 0.63199(19)
N24_3 N 0.48163(23) 0.51837(11) 0.70135(19)
H21_5 H 0.4496 0.9694 0.7270
H22_7 H 0.6360 0.8531 0.6064
H23_7 H 0.6360 0.7830 0.6064
H24_3 H 0.4496 0.4803 0.7270
H25_3 H 0.5197 0.5504 0.7270
N25_5 N 0.36918(18) 0.63082(8) 0.31267(18)
N26_5 N 0.26163(16) 0.63082(18) 0.31267(18)
N27_5 N 0.26458(8) 0.52917(11) 0.3130(2)
N28_5 N 0.47083(11) 0.73542(8) 0.3130(2)
H26_5 H 0.2179 0.7121 0.3132
H27_5 H 0.2179 0.5059 0.3132
H28_5 H 0.2879 0.5059 0.3132
H29_5 H 0.4941 0.7121 0.3132
H30_5 H 0.4941 0.7821 0.3132
O3_7 O 0.32803(10) 0.87873(14) 0.02791(10)
O8_3 O 0.54539(14) 0.66137(10) 0.30543(10)
O10_3 O 0.11597(10) 0.45461(14) 0.30543(10)
C1_8 C 0.08523(13) 0.43640(18) 0.24012(14)
C2_10 C 0.1295(2) 0.4629(2) 0.1667
H1_8 H 0.1357 0.5077 0.1544
C3_6 C 0.08167(13) 0.59244(18) 0.51330(13)
C4_6 C 0.0550(2) 0.52750(22) 0.6260(2)
N2_6 N 0.06358(12) 0.58535(16) 0.59038(12)
N3_6 N 0.08875(12) 0.64786(17) 0.47522(13)
H2_6 H 0.0817 0.6792 0.5009
H3_6 H 0.1005 0.6540 0.4238
N4_6 N 0.0367(2) 0.51837(23) 0.70135(19)
H4_6 H 0.0306 0.5504 0.7270
C6_8 C 0.10306(18) 0.41857(22) 0.09322(14)
H6_8 H 0.1743 0.4691 0.1790
C13_6 C 0.08167(13) 0.48924(22) 0.51330(13)
C14_8 C 0.15590(13) 0.74090(18) 0.82004(13)
C15_8 C 0.25910(18) 0.84410(22) 0.82004(13)
C18_8 C 0.19420(10) 0.80584(22) 0.7074(2)
N7_8 N 0.21309(8) 0.78690(18) 0.86042(17)
N11_8 N 0.14490(11) 0.74799(16) 0.74296(12)
N18_6 N 0.08875(12) 0.44090(21) 0.47522(13)
N19_8 N 0.10756(12) 0.68548(17) 0.85812(13)
N20_8 N 0.31452(17) 0.89244(21) 0.85812(13)
H11_6 H 0.0817 0.4026 0.5009
H12_8 H 0.0692 0.6542 0.8325
H13_8 H 0.3458 0.9308 0.8325
H16_6 H 0.1005 0.4466 0.4238
H17_8 H 0.1132 0.6794 0.9096
H18_8 H 0.3206 0.8868 0.9096
N23_8 N 0.18503(11) 0.81497(23) 0.63199(19)
H21_6 H 0.0306 0.4803 0.7270
H22_8 H 0.1469 0.7830 0.6064
H23_8 H 0.2170 0.8531 0.6064
O3_8 O 0.12127(14) 0.44931(17) 0.02791(10)
C1_9 C 0.56360(18) 0.64884(13) 0.24012(14)
C2_11 C 0.5371(2) 0.6667 0.1667
H1_9 H 0.4923 0.6281 0.1544
C6_9 C 0.58143(22) 0.68450(13) 0.09322(14)
H6_9 H 0.5309 0.7053 0.1790
C14_9 C 0.25910(18) 0.41501(13) 0.82004(13)
C15_9 C 0.15590(22) 0.41501(13) 0.82004(13)
C18_9 C 0.19416(22) 0.3884(2) 0.7074(2)
N7_9 N 0.21310(18) 0.42620(16) 0.86042(17)
N11_9 N 0.25201(16) 0.39692(12) 0.74296(12)
N19_9 N 0.31452(17) 0.42209(12) 0.85812(13)
N20_9 N 0.10756(21) 0.42209(12) 0.85812(13)
H12_9 H 0.3458 0.4151 0.8325
H13_9 H 0.0692 0.4151 0.8325
H17_9 H 0.3206 0.4339 0.9096
H18_9 H 0.1132 0.4339 0.9096
N23_9 N 0.18503(23) 0.3701(2) 0.63199(19)
H22_9 H 0.2170 0.3640 0.6064
H23_9 H 0.1469 0.3640 0.6064
O3_9 O 0.55069(17) 0.67197(10) 0.02791(10)
C5_6 C 0.36770(10) 0.63230(10) 0.0207(2)
N5_6 N 0.40503(16) 0.70252(8) 0.02067(18)
N6_6 N 0.40208(8) 0.59792(8) 0.0204(2)
H5_6 H 0.4487 0.6213 0.0202
C20_6 C 0.36770(10) 0.73541(14) 0.0207(2)
C21_6 C 0.26459(14) 0.63230(10) 0.0207(2)
N25_6 N 0.29748(8) 0.70252(18) 0.02067(18)
N26_6 N 0.29748(18) 0.59497(16) 0.02067(18)
N27_6 N 0.19583(11) 0.59792(8) 0.0204(2)
N28_6 N 0.40208(8) 0.80417(11) 0.0204(2)
H26_6 H 0.3787 0.5513 0.0202
H27_6 H 0.1725 0.5513 0.0202
H28_6 H 0.1725 0.6213 0.0202
H29_6 H 0.3787 0.8275 0.0202
H30_6 H 0.4487 0.8275 0.0202
loop_
_geom_bond_atom_site_label_1
_geom_bond_atom_site_label_2
_geom_bond_site_symmetry_1
_geom_bond_site_symmetry_2
H4 N4 1_555 1_555
Ag8 O7 1_555 1_555
Ag9 N7 1_555 1_555
Ag15 O16 1_555 1_555
Ag16 N12 1_555 1_555
C9 C12 1_555 1_555
C10 C12 1_555 1_555
C12 H9 1_555 1_555
H10 C12 1_555 1_555
C14 N7 1_555 1_555
C15 N7 1_555 1_555
C18 N11 1_555 1_555
N11 Ag2 1_555 1_555
N12 C15 1_555 1_555
N19 C14 1_555 1_555
N20 C15 1_555 1_555
H12 N19 1_555 1_555
H17 N19 1_555 1_555
H18 N20 1_555 1_555
H21 N4 1_555 1_555
O6 C9 1_555 1_555
O7 C10 1_555 1_555
O15 Ag2 1_555 1_555
O16 C10 1_555 1_555
O18 Ag10 1_555 1_555
C9 O15 1_555 1_555
C14 N11 1_555 1_555
C18 N12 1_555 1_555
Ag1 N1 1_555 1_555
Ag2_2 N2 1_555 1_555
C1 C2 1_555 1_555
C2 H1 1_555 1_555
C3 N1 1_555 1_555
C4 N2 1_555 1_555
N1 C13 1_555 1_555
N2 C3 1_555 1_555
N3 C3 1_555 1_555
H2 N3 1_555 1_555
H3 N3 1_555 1_555
N5 Ag1 1_555 1_555
O1 Ag1 1_555 1_555
O2 C1 1_555 1_555
Ag9 O5 1_555 1_555
Ag10_2 N10 1_555 1_555
Ag11 O2 1_555 1_555
Ag13 O13 1_555 1_555
Ag15 O14 1_555 1_555
C7 C11 1_555 1_555
C8 C11 1_555 1_555
C11 H7 1_555 1_555
H8 C11 1_555 1_555
C13 N10 1_555 1_555
C20 N5 1_555 1_555
N10 C4 1_555 1_555
N16 Ag11 1_555 1_555
N17 Ag11 1_555 1_555
N18 C13 1_555 1_555
H16 N18 1_555 1_555
H22 N23 1_555 1_555
H23 N23 1_555 1_555
N28 C20 1_555 1_555
H29 N28 1_555 1_555
H30 N28 1_555 1_555
O4 Ag1 1_555 1_555
O5 C8 1_555 1_555
O13 C7 1_555 1_555
O14 C8 1_555 1_555
O17 Ag2_2 1_555 1_555
C1 O1 1_555 1_555
C7 O4 1_555 1_555
H24 N24 1_555 1_555
H25 N24 1_555 1_555
Ag3 N8 1_555 1_555
Ag17_2 N13 1_555 1_555
C16 N8 1_555 1_555
C17 N8 1_555 1_555
C19 N13 1_555 1_555
N13 C16 1_555 1_555
N14 Ag16_4 1_555 1_555
N21 C16 1_555 1_555
N22 C17 1_555 1_555
H19 N21 1_555 1_555
H20 N22 1_555 1_555
N25 Ag3 1_555 1_555
O8 Ag3 1_555 1_555
O9 Ag3 1_555 1_555
C17 N14 1_555 1_555
C19 N14 1_555 1_555
N15 Ag10_3 1_555 1_555
N6 C5 1_555 1_555
H5 N6 1_555 1_555
Ag5 O3 1_555 1_555
Ag12 O12 1_555 1_555
C6 C2_2 1_555 1_555
H6 C2_2 1_555 1_555
H26 N6 1_555 1_555
O3 C6 1_555 1_555
O12 C6 1_555 1_555
O19 Ag10_4 1_555 1_555
Ag4 N9 1_555 1_555
N27 C21 1_555 1_555
H27 N27 1_555 1_555
H28 N27 1_555 1_555
O10 Ag4 1_555 1_555
O11 Ag4 1_555 1_555
Ag4 N26 1_555 1_555
C21 N26 1_555 1_555
Ag5 N7_2 1_555 1_555
C14_2 N7_2 1_555 1_555
C15_2 N7_2 1_555 1_555
C18_2 N11_2 1_555 1_555
N11_2 Ag2_3 1_555 1_555
N15 C15_2 1_555 1_555
N19_2 C14_2 1_555 1_555
N20_2 C15_2 1_555 1_555
H17_2 N19_2 1_555 1_555
H18_2 N20_2 1_555 1_555
C14_2 N11_2 1_555 1_555
C18_2 N15 1_555 1_555
Ag5 O5_2 1_555 1_555
Ag15_2 O14_2 1_555 1_555
C8_2 C11_2 1_555 1_555
H8_2 C11_2 1_555 1_555
H22_2 N23_2 1_555 1_555
H23_2 N23_2 1_555 1_555
O5_2 C8_2 1_555 1_555
O14_2 C8_2 1_555 1_555
O17_2 Ag2_4 1_555 1_555
H4_2 N4_2 1_555 1_555
Ag8_2 O7_2 1_555 1_555
C9_2 C12_2 1_555 1_555
C10_2 C12_2 1_555 1_555
C12_2 H9_2 1_555 1_555
H10_2 C12_2 1_555 1_555
N15_2 Ag10_5 1_555 1_555
H21_2 N4_2 1_555 1_555
O6_2 C9_2 1_555 1_555
O7_2 C10_2 1_555 1_555
O15_2 Ag2_5 1_555 1_555
O16_2 C10_2 1_555 1_555
O18_2 Ag10_5 1_555 1_555
C9_2 O15_2 1_555 1_555
Ag2_6 N2_2 1_555 1_555
C1_2 C2_3 1_555 1_555
C2_3 H1_2 1_555 1_555
C3_2 N9 1_555 1_555
C4_2 N2_2 1_555 1_555
N9 C13_2 1_555 1_555
N2_2 C3_2 1_555 1_555
N3_2 C3_2 1_555 1_555
H3_2 N3_2 1_555 1_555
O2_2 C1_2 1_555 1_555
Ag5_2 O3_2 1_555 1_555
Ag10_6 N10_2 1_555 1_555
Ag11_2 O2_2 1_555 1_555
Ag12_2 O12_2 1_555 1_555
Ag13_2 O13_2 1_555 1_555
C6_2 C2_3 1_555 1_555
C7_2 C11_3 1_555 1_555
C11_3 H7_2 1_555 1_555
H6_2 C2_3 1_555 1_555
C13_2 N10_2 1_555 1_555
N10_2 C4_2 1_555 1_555
N16_2 Ag11_2 1_555 1_555
N17_2 Ag11_2 1_555 1_555
N18_2 C13_2 1_555 1_555
H11_2 N18_2 1_555 1_555
H16_2 N18_2 1_555 1_555
O3_2 C6_2 1_555 1_555
O12_2 C6_2 1_555 1_555
O13_2 C7_2 1_555 1_555
O19_2 Ag10_6 1_555 1_555
O20_2 Ag11_2 1_555 1_555
C1_2 O10 1_555 1_555
C7_2 O11 1_555 1_555
Ag9 O3_3 1_555 1_555
Ag12_3 O12_3 1_555 1_555
C6_3 C2_4 1_555 1_555
H6_3 C2_4 1_555 1_555
O3_3 C6_3 1_555 1_555
O12_3 C6_3 1_555 1_555
O19_3 Ag16_2 1_555 1_555
Ag8_3 O7_3 1_555 1_555
C9_3 C12_3 1_555 1_555
C10_3 C12_3 1_555 1_555
C12_3 H9_3 1_555 1_555
H10_3 C12_3 1_555 1_555
O6_3 C9_3 1_555 1_555
O7_3 C10_3 1_555 1_555
O15_3 Ag17 1_555 1_555
O16_3 C10_3 1_555 1_555
O18_3 Ag16_3 1_555 1_555
C9_3 O15_3 1_555 1_555
C1_3 C2_5 1_555 1_555
C2_5 H1_3 1_555 1_555
O2_3 C1_3 1_555 1_555
Ag11_3 O2_3 1_555 1_555
Ag13_3 O13_3 1_555 1_555
C7_3 C11_4 1_555 1_555
C11_4 H7_3 1_555 1_555
N16_3 Ag11_3 1_555 1_555
N17_3 Ag11_3 1_555 1_555
O13_3 C7_3 1_555 1_555
C1_3 O8 1_555 1_555
C7_3 O9 1_555 1_555
Ag5_2 N7_3 1_555 1_555
C14_3 N7_3 1_555 1_555
C15_3 N7_3 1_555 1_555
C18_3 N11_3 1_555 1_555
N11_3 Ag17_3 1_555 1_555
N15_2 C15_3 1_555 1_555
N19_3 C14_3 1_555 1_555
N20_3 C15_3 1_555 1_555
H13_3 N20_3 1_555 1_555
H17_3 N19_3 1_555 1_555
H18_3 N20_3 1_555 1_555
C14_3 N11_3 1_555 1_555
C18_3 N15_2 1_555 1_555
Ag5_2 O5_3 1_555 1_555
Ag15_3 O14_3 1_555 1_555
C8_3 C11_5 1_555 1_555
H8_3 C11_5 1_555 1_555
H22_3 N23_3 1_555 1_555
H23_3 N23_3 1_555 1_555
O5_3 C8_3 1_555 1_555
O14_3 C8_3 1_555 1_555
O17_3 Ag17_4 1_555 1_555
N5_2 Ag9 1_555 1_555
C20_2 N5_2 1_555 1_555
N16_4 Ag12_3 1_555 1_555
N17_4 Ag12_3 1_555 1_555
N28_2 C20_2 1_555 1_555
H29_2 N28_2 1_555 1_555
H30_2 N28_2 1_555 1_555
Ag8_4 O7_4 1_555 1_555
Ag13 O16_4 1_555 1_555
C9_4 C12_4 1_555 1_555
C10_4 C12_4 1_555 1_555
C12_4 H9_4 1_555 1_555
H10_4 C12_4 1_555 1_555
O6_4 C9_4 1_555 1_555
O7_4 C10_4 1_555 1_555
O16_4 C10_4 1_555 1_555
C9_4 O17 1_555 1_555
N6_2 C5_2 1_555 1_555
H5_2 N6_2 1_555 1_555
H26_2 N6_2 1_555 1_555
N25_2 Ag5 1_555 1_555
N27_2 C21_2 1_555 1_555
H27_2 N27_2 1_555 1_555
H28_2 N27_2 1_555 1_555
Ag5_2 N26_2 1_555 1_555
C21_2 N26_2 1_555 1_555
N16_5 Ag12_2 1_555 1_555
N17_5 Ag12_2 1_555 1_555
O20_5 Ag12_2 1_555 1_555
Ag8_5 O7_5 1_555 1_555
C9_5 C12_5 1_555 1_555
C10_5 C12_5 1_555 1_555
C12_5 H9_5 1_555 1_555
H10_5 C12_5 1_555 1_555
O6_5 C9_5 1_555 1_555
O7_5 C10_5 1_555 1_555
O16_5 C10_5 1_555 1_555
C9_5 O17_3 1_555 1_555
N16_6 Ag12 1_555 1_555
N17_6 Ag12 1_555 1_555
Ag8_6 O7_6 1_555 1_555
C9_6 C12_6 1_555 1_555
C10_6 C12_6 1_555 1_555
C12_6 H9_6 1_555 1_555
H10_6 C12_6 1_555 1_555
O6_6 C9_6 1_555 1_555
O7_6 C10_6 1_555 1_555
O16_6 C10_6 1_555 1_555
C9_6 O17_2 1_555 1_555
Ag7_5 N1_2 1_555 1_555
Ag15_3 N2_3 1_555 1_555
C3_3 N1_2 1_555 1_555
C4_3 N2_3 1_555 1_555
N1_2 C13_3 1_555 1_555
N2_3 C3_3 1_555 1_555
N3_3 C3_3 1_555 1_555
H2_3 N3_3 1_555 1_555
H3_3 N3_3 1_555 1_555
N4_3 C4_3 1_555 1_555
H4_3 N4_3 1_555 1_555
Ag7_6 N8_2 1_555 1_555
Ag7_4 N9_2 1_555 1_555
Ag8_5 N7_4 1_555 1_555
Ag15_2 N13_2 1_555 1_555
C13_3 N16_5 1_555 1_555
C14_4 N7_4 1_555 1_555
C15_4 N7_4 1_555 1_555
C16_2 N8_2 1_555 1_555
C17_2 N8_2 1_555 1_555
C18_4 N11_4 1_555 1_555
C19_2 N13_2 1_555 1_555
N16_5 C4_3 1_555 1_555
N11_4 Ag15_3 1_555 1_555
N17_6 C15_4 1_555 1_555
N13_2 C16_2 1_555 1_555
N18_3 C13_3 1_555 1_555
N19_4 C14_4 1_555 1_555
N20_4 C15_4 1_555 1_555
N21_2 C16_2 1_555 1_555
N22_2 C17_2 1_555 1_555
H11_3 N18_3 1_555 1_555
H12_4 N19_4 1_555 1_555
H13_4 N20_4 1_555 1_555
H14_2 N21_2 1_555 1_555
H15_2 N22_2 1_555 1_555
H16_3 N18_3 1_555 1_555
H17_4 N19_4 1_555 1_555
H18_4 N20_4 1_555 1_555
H19_2 N21_2 1_555 1_555
H20_2 N22_2 1_555 1_555
N23_4 C18_4 1_555 1_555
N24_2 C19_2 1_555 1_555
H21_3 N4_3 1_555 1_555
H22_4 N23_4 1_555 1_555
H23_4 N23_4 1_555 1_555
H24_2 N24_2 1_555 1_555
H25_2 N24_2 1_555 1_555
C14_4 N11_4 1_555 1_555
C17_2 N16_6 1_555 1_555
C18_4 N17_6 1_555 1_555
C19_2 N16_6 1_555 1_555
C1_4 C2_6 1_555 1_555
C2_6 H1_4 1_555 1_555
C5_3 N5_3 1_555 1_555
N6_3 C5_3 1_555 1_555
H5_3 N6_3 1_555 1_555
O19_2 C1_4 1_555 1_555
Ag8_4 O3_4 1_555 1_555
C6_4 C2_6 1_555 1_555
H6_4 C2_6 1_555 1_555
C20_3 N5_3 1_555 1_555
C21_3 N25_3 1_555 1_555
N26_3 C5_3 1_555 1_555
N27_3 C21_3 1_555 1_555
N28_3 C20_3 1_555 1_555
H26_3 N6_3 1_555 1_555
H27_3 N27_3 1_555 1_555
H28_3 N27_3 1_555 1_555
H29_3 N28_3 1_555 1_555
H30_3 N28_3 1_555 1_555
O3_4 C6_4 1_555 1_555
O20_2 C6_4 1_555 1_555
C1_4 O1_2 1_555 1_555
C20_3 N25_3 1_555 1_555
C21_3 N26_3 1_555 1_555
Ag15 N2_4 1_555 1_555
C3_4 N9_2 1_555 1_555
C4_4 N2_4 1_555 1_555
N9_2 C13_4 1_555 1_555
N2_4 C3_4 1_555 1_555
N3_4 C3_4 1_555 1_555
H2_4 N3_4 1_555 1_555
H3_4 N3_4 1_555 1_555
N4_4 C4_4 1_555 1_555
H4_4 N4_4 1_555 1_555
Ag8_4 N7_5 1_555 1_555
C13_4 N16_4 1_555 1_555
C14_5 N7_5 1_555 1_555
C15_5 N7_5 1_555 1_555
C18_5 N11_5 1_555 1_555
N16_4 C4_4 1_555 1_555
N11_5 Ag15 1_555 1_555
N17_5 C15_5 1_555 1_555
N18_4 C13_4 1_555 1_555
N19_5 C14_5 1_555 1_555
N20_5 C15_5 1_555 1_555
H11_4 N18_4 1_555 1_555
H12_5 N19_5 1_555 1_555
H13_5 N20_5 1_555 1_555
H16_4 N18_4 1_555 1_555
H17_5 N19_5 1_555 1_555
H18_5 N20_5 1_555 1_555
N23_5 C18_5 1_555 1_555
H21_4 N4_4 1_555 1_555
H22_5 N23_5 1_555 1_555
H23_5 N23_5 1_555 1_555
C14_5 N11_5 1_555 1_555
C18_5 N17_5 1_555 1_555
C1_5 C2_7 1_555 1_555
C2_7 H1_5 1_555 1_555
O19_3 C1_5 1_555 1_555
Ag8_6 O3_5 1_555 1_555
C6_5 C2_7 1_555 1_555
H6_5 C2_7 1_555 1_555
O3_5 C6_5 1_555 1_555
O20_3 C6_5 1_555 1_555
C1_5 O10_2 1_555 1_555
Ag8_6 N7_6 1_555 1_555
C14_6 N7_6 1_555 1_555
C15_6 N7_6 1_555 1_555
C18_6 N11_6 1_555 1_555
N11_6 Ag15_2 1_555 1_555
N17_4 C15_6 1_555 1_555
N19_6 C14_6 1_555 1_555
N20_6 C15_6 1_555 1_555
H12_6 N19_6 1_555 1_555
H13_6 N20_6 1_555 1_555
H17_6 N19_6 1_555 1_555
H18_6 N20_6 1_555 1_555
N23_6 C18_6 1_555 1_555
H22_6 N23_6 1_555 1_555
H23_6 N23_6 1_555 1_555
C14_6 N11_6 1_555 1_555
C18_6 N17_4 1_555 1_555
C1_6 C2_8 1_555 1_555
C2_8 H1_6 1_555 1_555
O19 C1_6 1_555 1_555
Ag8_5 O3_6 1_555 1_555
C6_6 C2_8 1_555 1_555
H6_6 C2_8 1_555 1_555
O3_6 C6_6 1_555 1_555
O20 C6_6 1_555 1_555
C1_6 O8_2 1_555 1_555
C5_4 N5_4 1_555 1_555
N5_4 Ag8_5 1_555 1_555
N6_4 C5_4 1_555 1_555
H5_4 N6_4 1_555 1_555
C20_4 N5_4 1_555 1_555
C21_4 N25_4 1_555 1_555
N25_4 Ag8_4 1_555 1_555
N26_4 C5_4 1_555 1_555
N27_4 C21_4 1_555 1_555
N28_4 C20_4 1_555 1_555
H26_4 N6_4 1_555 1_555
H27_4 N27_4 1_555 1_555
H28_4 N27_4 1_555 1_555
H29_4 N28_4 1_555 1_555
H30_4 N28_4 1_555 1_555
Ag8_6 N26_4 1_555 1_555
C20_4 N25_4 1_555 1_555
C21_4 N26_4 1_555 1_555
Ag8_2 N1_3 1_555 1_555
Ag13_2 N2_5 1_555 1_555
C1_7 C2_9 1_555 1_555
C2_9 H1_7 1_555 1_555
C3_5 N1_3 1_555 1_555
C4_5 N2_5 1_555 1_555
C5_5 N5_5 1_555 1_555
N1_3 C13_5 1_555 1_555
N2_5 C3_5 1_555 1_555
N3_5 C3_5 1_555 1_555
H2_5 N3_5 1_555 1_555
H3_5 N3_5 1_555 1_555
N4_5 C4_5 1_555 1_555
H4_5 N4_5 1_555 1_555
N5_5 Ag8_2 1_555 1_555
N6_5 C5_5 1_555 1_555
H5_5 N6_5 1_555 1_555
O1_3 Ag8_2 1_555 1_555
O20_4 C1_7 1_555 1_555
Ag8 N8_3 1_555 1_555
Ag8_3 N9_3 1_555 1_555
Ag7_2 N7_7 1_555 1_555
Ag13 N13_3 1_555 1_555
C6_7 C2_9 1_555 1_555
H6_7 C2_9 1_555 1_555
C13_5 N17_3 1_555 1_555
C14_7 N7_7 1_555 1_555
C15_7 N7_7 1_555 1_555
C16_3 N8_3 1_555 1_555
C17_3 N8_3 1_555 1_555
C18_7 N11_7 1_555 1_555
C19_3 N13_3 1_555 1_555
C20_5 N5_5 1_555 1_555
C21_5 N25_5 1_555 1_555
N17_3 C4_5 1_555 1_555
N11_7 Ag13_2 1_555 1_555
N16_2 C15_7 1_555 1_555
N13_3 C16_3 1_555 1_555
N18_5 C13_5 1_555 1_555
N19_7 C14_7 1_555 1_555
N20_7 C15_7 1_555 1_555
N21_3 C16_3 1_555 1_555
N22_3 C17_3 1_555 1_555
H11_5 N18_5 1_555 1_555
H12_7 N19_7 1_555 1_555
H13_7 N20_7 1_555 1_555
H14_3 N21_3 1_555 1_555
H15_3 N22_3 1_555 1_555
H16_5 N18_5 1_555 1_555
H17_7 N19_7 1_555 1_555
H18_7 N20_7 1_555 1_555
H19_3 N21_3 1_555 1_555
H20_3 N22_3 1_555 1_555
N23_7 C18_7 1_555 1_555
N24_3 C19_3 1_555 1_555
H21_5 N4_5 1_555 1_555
H22_7 N23_7 1_555 1_555
H23_7 N23_7 1_555 1_555
H24_3 N24_3 1_555 1_555
H25_3 N24_3 1_555 1_555
N25_5 Ag8 1_555 1_555
N26_5 C5_5 1_555 1_555
N27_5 C21_5 1_555 1_555
N28_5 C20_5 1_555 1_555
H26_5 N6_5 1_555 1_555
H27_5 N27_5 1_555 1_555
H28_5 N27_5 1_555 1_555
H29_5 N28_5 1_555 1_555
H30_5 N28_5 1_555 1_555
O3_7 C6_7 1_555 1_555
O8_3 Ag8 1_555 1_555
O10_3 Ag8_3 1_555 1_555
O18_3 C6_7 1_555 1_555
C1_7 O1_3 1_555 1_555
Ag8_3 N26_5 1_555 1_555
C14_7 N11_7 1_555 1_555
C17_3 N17_2 1_555 1_555
C18_7 N16_2 1_555 1_555
C19_3 N17_2 1_555 1_555
C20_5 N25_5 1_555 1_555
C21_5 N26_5 1_555 1_555
Ag13_3 N2_6 1_555 1_555
C1_8 C2_10 1_555 1_555
C2_10 H1_8 1_555 1_555
C3_6 N9_3 1_555 1_555
C4_6 N2_6 1_555 1_555
N9_3 C13_6 1_555 1_555
N2_6 C3_6 1_555 1_555
N3_6 C3_6 1_555 1_555
H2_6 N3_6 1_555 1_555
H3_6 N3_6 1_555 1_555
N4_6 C4_6 1_555 1_555
H4_6 N4_6 1_555 1_555
O20_6 C1_8 1_555 1_555
Ag7_3 N7_8 1_555 1_555
C6_8 C2_10 1_555 1_555
H6_8 C2_10 1_555 1_555
C13_6 N17 1_555 1_555
C14_8 N7_8 1_555 1_555
C15_8 N7_8 1_555 1_555
C18_8 N11_8 1_555 1_555
N17 C4_6 1_555 1_555
N11_8 Ag13_3 1_555 1_555
N16_3 C15_8 1_555 1_555
N18_6 C13_6 1_555 1_555
N19_8 C14_8 1_555 1_555
N20_8 C15_8 1_555 1_555
H11_6 N18_6 1_555 1_555
H12_8 N19_8 1_555 1_555
H13_8 N20_8 1_555 1_555
H16_6 N18_6 1_555 1_555
H17_8 N19_8 1_555 1_555
H18_8 N20_8 1_555 1_555
N23_8 C18_8 1_555 1_555
H21_6 N4_6 1_555 1_555
H22_8 N23_8 1_555 1_555
H23_8 N23_8 1_555 1_555
O3_8 C6_8 1_555 1_555
O18 C6_8 1_555 1_555
C1_8 O10_3 1_555 1_555
C14_8 N11_8 1_555 1_555
C18_8 N16_3 1_555 1_555
C1_9 C2_11 1_555 1_555
C2_11 H1_9 1_555 1_555
O20_5 C1_9 1_555 1_555
Ag7 N7_9 1_555 1_555
C6_9 C2_11 1_555 1_555
H6_9 C2_11 1_555 1_555
C14_9 N7_9 1_555 1_555
C15_9 N7_9 1_555 1_555
C18_9 N11_9 1_555 1_555
N11_9 Ag13 1_555 1_555
N16 C15_9 1_555 1_555
N19_9 C14_9 1_555 1_555
N20_9 C15_9 1_555 1_555
H12_9 N19_9 1_555 1_555
H13_9 N20_9 1_555 1_555
H17_9 N19_9 1_555 1_555
H18_9 N20_9 1_555 1_555
N23_9 C18_9 1_555 1_555
H22_9 N23_9 1_555 1_555
H23_9 N23_9 1_555 1_555
O3_9 C6_9 1_555 1_555
O18_2 C6_9 1_555 1_555
C1_9 O8_3 1_555 1_555
C14_9 N11_9 1_555 1_555
C18_9 N16 1_555 1_555
C5_6 N5_6 1_555 1_555
N6_6 C5_6 1_555 1_555
H5_6 N6_6 1_555 1_555
C20_6 N5_6 1_555 1_555
C21_6 N25_6 1_555 1_555
N26_6 C5_6 1_555 1_555
N27_6 C21_6 1_555 1_555
N28_6 C20_6 1_555 1_555
H26_6 N6_6 1_555 1_555
H27_6 N27_6 1_555 1_555
H28_6 N27_6 1_555 1_555
H29_6 N28_6 1_555 1_555
H30_6 N28_6 1_555 1_555
C20_6 N25_6 1_555 1_555
C21_6 N26_6 1_555 1_555

#END
