
###############################################################################
#
# This file contains modified crystal structure data generated from the
# MOF subset of the Cambridge Structural Database (CSD) v543 
# hosted by the Cambridge Crystallographic Data Centre (CCDC).
#
# This work is licensed under the Creative Commons
# Attribution-NonCommercial-ShareAlike 4.0 International License.
# To view a copy of this license, visit
# http://creativecommons.org/licenses/by-nc-sa/4.0/
# or send a letter to
# Creative Commons, PO Box 1866, Mountain View, CA 94042, USA.
#
# CIF created using the CSD Python API on 29 September 2022
# The structure has been converted into the P1 space group
# The structure has a 3D framework
# The original CSD entry ICANAD is in the rhombohedral crystal system
# The framework has been calculated to contain at least 10.0% void space
# The void calculation uses a probe of radius 1.32A, grid spacing 0.4
#
###############################################################################

data_ICANAD
_chemical_formula_moiety         '(C130 H180 Ag31 N144 O72)n'
_symmetry_cell_setting           triclinic
_symmetry_space_group_name_H-M   'P 1'
_symmetry_Int_Tables_number      1
_space_group_name_Hall           'P 1'
loop_
_symmetry_equiv_pos_site_id
_symmetry_equiv_pos_as_xyz
1 x,y,z
_cell_length_a                   22.1713(16)
_cell_length_b                   22.1713(16)
_cell_length_c                   16.947(2)
_cell_angle_alpha                90
_cell_angle_beta                 90
_cell_angle_gamma                120
_cell_volume                     7214.49
loop_
_atom_site_label
_atom_site_type_symbol
_atom_site_fract_x
_atom_site_fract_y
_atom_site_fract_z
C3 C 0.31387(19) 0.41731(18) 0.0938(2)
C4 C 0.3333 0.4619(3) 0.1667
H1 H 0.2948 0.4684 0.1801
C5 C 0.2644(3) 0.63220(13) 0.0179(3)
N4 N 0.29755(11) 0.5951(2) 0.0181(2)
N5 N 0.1961(2) 0.59803(11) 0.0182(3)
H4 H 0.1726 0.5509 0.0185
O1 O 0.32525(15) 0.44788(14) 0.02942(15)
O2 O 0.28578(16) 0.35354(14) 0.10260(16)
Ag5 Ag 0.423589(11) 0.576415(23) 0.36133(2)
Ag6 Ag 0.15283(2) 0.576415(23) 0.36133(2)
Ag8 Ag 0.48616(2) 0.243078(11) 0.02800(2)
Ag11 Ag 0.27741(2) 0.27740(3) 0.0000
Ag12 Ag 0.38926(2) 0.33333(2) 0.3333
Ag13 Ag -0.00000(2) 0.27740(3) 0.0000
C13 C 0.35280(19) 0.43677(26) 0.2395(2)
C14 C 0.10344(26) 0.41731(18) 0.0938(2)
C15 C 0.08398(18) 0.43677(26) 0.2395(2)
C18 C 0.1286(3) 0.4619(3) 0.1667
H6 H 0.3719 0.5069 0.1532
H7 H 0.1736 0.4684 0.1801
H8 H 0.1351 0.5069 0.1532
C20 C 0.36780(13) 0.63220(33) 0.0179(3)
C21 C 0.36780(33) 0.7356(3) 0.0179(3)
N18 N 0.26792(15) 0.18760(22) 0.07698(16)
N23 N 0.4049(2) 0.70245(23) 0.0181(2)
N24 N 0.29755(23) 0.70245(11) 0.0181(2)
N25 N 0.40193(23) 0.8039(2) 0.0182(3)
N26 N 0.40197(11) 0.59807(23) 0.0182(3)
H21 H 0.1726 0.6217 0.0185
H22 H 0.3783 0.8274 0.0185
H23 H 0.4491 0.8274 0.0185
H24 H 0.4491 0.6217 0.0185
H25 H 0.3783 0.5509 0.0185
O3 O 0.34142(15) 0.45596(21) 0.30391(15)
O4 O 0.12263(21) 0.44788(14) 0.02942(15)
O5 O 0.11455(14) 0.45596(21) 0.30391(15)
O8 O 0.55212(14) 0.87737(21) 0.02942(15)
O9 O 0.55212(14) 0.67475(15) 0.02942(15)
O10 O 0.12263(21) 0.67475(15) 0.02942(15)
O11 O 0.32525(15) 0.87737(21) 0.02942(15)
O12 O 0.38089(16) 0.40109(21) 0.23073(16)
O13 O 0.06776(21) 0.35354(14) 0.10260(16)
O14 O 0.02021(14) 0.40109(21) 0.23073(16)
Ag1 Ag 0.243078(11) 0.48616(2) 0.97200(2)
Ag2 Ag 0.33333(2) 0.38926(2) 0.6667
C1 C 0.25961(18) 0.41632(17) 0.82039(18)
C2 C 0.1952(3) 0.39037(14) 0.7084(3)
N1 N 0.31457(17) 0.42246(16) 0.85874(18)
H2 H 0.3458 0.4150 0.8332
H3 H 0.3207 0.4342 0.9102
N2 N 0.25302(16) 0.39875(15) 0.74365(16)
N3 N 0.2138(2) 0.42757(11) 0.8606(2)
N6 N 0.1864(3) 0.37267(16) 0.6328(3)
H5 H 0.2186 0.3665 0.6072
Ag3 Ag 0.51384(2) 0.756918(23) 0.97200(2)
Ag4 Ag 0.243082(23) 0.756922(11) 0.97200(2)
Ag7 Ag 0.576415(23) 0.423589(11) 0.63867(2)
Ag10 Ag 0.05593(3) 0.38926(2) 0.6667
Ag11_2 Ag 0.27741(2) 0.27740(3) 1.0000
Ag13_2 Ag -0.00000(2) 0.27740(3) 1.0000
Ag15 Ag 0.61074(3) 0.66666(2) 0.6666
Ag16 Ag 0.61074(2) 0.94407(3) 0.6667
C6 C 0.15671(25) 0.41632(17) 0.82039(18)
C7 C 0.40706(18) 0.49004(25) 0.51294(18)
C8 C 0.50996(25) 0.59294(18) 0.51294(18)
C9 C 0.58368(17) 0.84329(25) 0.82039(18)
C10 C 0.58368(17) 0.74039(18) 0.82039(18)
C11 C 0.4715(3) 0.52850(33) 0.6249(3)
C12 C 0.60963(14) 0.80483(33) 0.7084(3)
C16 C 0.43677(26) 0.35280(19) 0.7605(2)
C17 C 0.41731(18) 0.31387(19) 0.9062(2)
C19 C 0.4619(3) 0.3334 0.8334
H9 H 0.5069 0.3719 0.8468
H10 H 0.4684 0.2948 0.8199
N7 N 0.10789(23) 0.42246(16) 0.85874(18)
N8 N 0.35210(17) 0.44122(23) 0.47459(18)
N9 N 0.55878(23) 0.64790(17) 0.47459(18)
N10 N 0.57754(16) 0.89211(23) 0.85874(18)
N11 N 0.57754(16) 0.68543(17) 0.85874(18)
H11 H 0.0692 0.4150 0.8332
H12 H 0.3209 0.4025 0.5001
H13 H 0.5975 0.6791 0.5001
H14 H 0.5850 0.9308 0.8332
H15 H 0.5850 0.6542 0.8332
H16 H 0.1135 0.4342 0.9102
H17 H 0.3460 0.4468 0.4231
H18 H 0.5532 0.6540 0.4231
H19 H 0.5658 0.8865 0.9102
H20 H 0.5658 0.6793 0.9102
N12 N 0.14573(22) 0.39875(15) 0.74365(16)
N13 N 0.41365(16) 0.47906(22) 0.58968(16)
N14 N 0.52094(22) 0.58635(16) 0.58968(16)
N15 N 0.60125(15) 0.85427(22) 0.74365(16)
N16 N 0.60125(15) 0.74698(16) 0.74365(16)
N17 N 0.06542(15) 0.47906(22) 0.58968(16)
N19 N 0.18760(22) 0.26792(15) 0.92302(16)
N20 N 0.4529(2) 0.54710(23) 0.4727(2)
N21 N 0.57243(11) 0.78623(23) 0.8606(2)
N22 N 0.21377(23) 0.7862(2) 0.8606(2)
N27 N 0.4803(3) 0.51960(34) 0.7005(3)
N28 N 0.62733(16) 0.81373(34) 0.6328(3)
H26 H 0.1479 0.3665 0.6072
H27 H 0.4481 0.4812 0.7261
H28 H 0.5188 0.5519 0.7261
H29 H 0.6335 0.8521 0.6072
H30 H 0.6335 0.7814 0.6072
O6 O 0.45596(21) 0.34142(15) 0.69609(15)
O7 O 0.44788(14) 0.32525(15) 0.97058(15)
O15 O 0.40109(21) 0.38089(16) 0.76927(16)
O16 O 0.35354(14) 0.28578(16) 0.89740(16)
O17 O 0.26557(21) 0.31313(14) 0.56407(16)
O19 O 0.04755(16) 0.31313(14) 0.56407(16)
Ag13_3 Ag 1.00000(2) 0.27740(3) 0.0000
Ag14 Ag 0.94407(3) 0.33333(2) 0.3333
Ag13_4 Ag 1.00000(2) 0.27740(3) 1.0000
O18 O 0.97979(14) 0.38089(16) 0.76927(16)
Ag8_2 Ag 0.756922(11) 0.243082(23) 0.02800(2)
Ag11_3 Ag 0.72260(3) 0.00000(4) 0.0000
Ag12_2 Ag 0.66667(2) 0.05593(3) 0.3333
N18_2 N 0.81240(22) 0.08031(27) 0.07698(16)
Ag7_2 Ag 0.576411(11) 0.152827(25) 0.63867(2)
Ag11_4 Ag 0.72260(3) 0.00000(4) 1.0000
C16_2 C 0.64720(19) 0.08398(32) 0.7605(2)
C17_2 C 0.68613(19) 0.10344(26) 0.9062(2)
C19_2 C 0.6666 0.1286(3) 0.8334
H9_2 H 0.6281 0.1351 0.8468
H10_2 H 0.7052 0.1736 0.8199
O6_2 O 0.65858(15) 0.11455(26) 0.69609(15)
O7_2 O 0.67475(15) 0.12263(21) 0.97058(15)
O15_2 O 0.61911(16) 0.02021(26) 0.76927(16)
O16_2 O 0.71422(16) 0.06776(21) 0.89740(16)
C3_2 C 0.58269(18) 0.89656(26) 0.0938(2)
C4_2 C 0.5381(3) 0.8714(3) 0.1667
H1_2 H 0.5316 0.8264 0.1801
O2_2 O 0.64646(14) 0.93224(21) 0.10260(16)
Ag5_2 Ag 0.423585(23) 0.847173(25) 0.36133(2)
Ag11_5 Ag 0.72260(3) 1.00000(4) 0.0000
Ag13_5 Ag 0.72260(3) 0.72259(4) 0.0000
Ag14_2 Ag 0.66667(2) 0.61074(4) 0.3333
C13_2 C 0.56323(26) 0.91602(32) 0.2395(2)
C14_2 C 0.58269(18) 0.68613(32) 0.0938(2)
C15_2 C 0.56323(26) 0.64720(32) 0.2395(2)
C18_2 C 0.5381(3) 0.6667(4) 0.1667
H6_2 H 0.4931 0.8649 0.1532
H7_2 H 0.5316 0.7052 0.1801
H8_2 H 0.4931 0.6281 0.1532
O3_2 O 0.54404(21) 0.88545(26) 0.30391(15)
O5_2 O 0.54404(21) 0.65858(25) 0.30391(15)
O12_2 O 0.59891(21) 0.97979(26) 0.23073(16)
O13_2 O 0.64646(14) 0.71422(25) 0.10260(16)
O14_2 O 0.59891(21) 0.61911(25) 0.23073(16)
Ag11_6 Ag 0.72260(3) 1.00000(4) 1.0000
Ag13_6 Ag 0.72260(3) 0.72259(4) 1.0000
Ag15_2 Ag 0.33334(2) 0.94407(4) 0.6666
Ag16_2 Ag 0.05593(3) 0.66667(4) 0.6667
C7_2 C 0.50996(25) 0.91701(31) 0.51294(18)
C8_2 C 0.40706(18) 0.91701(31) 0.51294(18)
C9_2 C 0.15671(25) 0.74039(30) 0.82039(18)
C10_2 C 0.25961(18) 0.84329(25) 0.82039(18)
C11_2 C 0.47150(33) 0.94296(45) 0.6249(3)
C12_2 C 0.19517(33) 0.80480(36) 0.7084(3)
N8_2 N 0.55878(23) 0.91087(29) 0.47459(18)
N9_2 N 0.35210(17) 0.91087(29) 0.47459(18)
N10_2 N 0.10789(23) 0.68543(28) 0.85874(18)
N11_2 N 0.31457(17) 0.89211(23) 0.85874(18)
H12_2 H 0.5975 0.9183 0.5001
H13_2 H 0.3209 0.9183 0.5001
H14_2 H 0.0692 0.6542 0.8332
H15_2 H 0.3458 0.9308 0.8332
H17_2 H 0.5532 0.8991 0.4231
H18_2 H 0.3460 0.8991 0.4231
H19_2 H 0.1135 0.6793 0.9102
H20_2 H 0.3207 0.8865 0.9102
N13_2 N 0.52094(22) 0.93458(27) 0.58968(16)
N14_2 N 0.41365(16) 0.93458(27) 0.58968(16)
N15_2 N 0.14573(22) 0.74698(27) 0.74365(16)
N16_2 N 0.25302(16) 0.85427(22) 0.74365(16)
N19_2 N 0.73208(15) 0.91969(27) 0.92302(16)
N20_2 N 0.45290(23) 0.90576(30) 0.4727(2)
N27_2 N 0.48040(34) 0.96066(45) 0.7005(3)
N28_2 N 0.18627(34) 0.81360(38) 0.6328(3)
H27_2 H 0.5188 0.9668 0.7261
H28_2 H 0.4481 0.9668 0.7261
H29_2 H 0.1479 0.7814 0.6072
H30_2 H 0.2186 0.8521 0.6072
O17_2 O 0.68687(14) 0.95245(25) 0.56407(16)
O18_2 O 0.61911(16) 0.59891(21) 0.76927(16)
O19_2 O 0.68687(14) 0.73443(21) 0.56407(16)
Ag13_7 Ag 0.27741(4) 0.00000(2) 0.0000
Ag14_3 Ag 0.38926(4) 0.05593(3) 0.3333
Ag13_8 Ag 0.27741(4) 0.00000(2) 1.0000
O18_3 O 0.40109(21) 0.02021(14) 0.76927(16)
C3_3 C 0.10344(26) 0.68613(19) 0.0938(2)
C4_3 C 0.1286(3) 0.6667 0.1667
H1_3 H 0.1736 0.7052 0.1801
O2_3 O 0.06776(21) 0.71422(16) 0.10260(16)
Ag11_7 Ag -0.00000(4) 0.72259(2) 0.0000
Ag13_9 Ag 0.27741(4) 1.00000(2) 0.0000
C13_3 C 0.08398(32) 0.64720(19) 0.2395(2)
C14_3 C 0.31387(32) 0.89656(26) 0.0938(2)
C15_3 C 0.35280(32) 0.91602(18) 0.2395(2)
C18_3 C 0.3333(4) 0.8714(3) 0.1667
H6_3 H 0.1351 0.6281 0.1532
H7_3 H 0.2948 0.8264 0.1801
H8_3 H 0.3719 0.8649 0.1532
O3_3 O 0.11455(26) 0.65858(15) 0.30391(15)
O5_3 O 0.34142(25) 0.88545(14) 0.30391(15)
O12_3 O 0.02021(26) 0.61911(16) 0.23073(16)
O13_3 O 0.28578(25) 0.93224(21) 0.10260(16)
O14_3 O 0.38089(25) 0.97979(14) 0.23073(16)
Ag11_8 Ag -0.00000(4) 0.72259(2) 1.0000
Ag13_10 Ag 0.27741(4) 1.00000(2) 1.0000
C7_3 C 0.08299(31) 0.59294(18) 0.51294(18)
C8_3 C 0.08299(31) 0.49004(25) 0.51294(18)
C11_3 C 0.05704(45) 0.5285(3) 0.6249(3)
N8_3 N 0.08913(29) 0.64790(17) 0.47459(18)
N9_3 N 0.08913(29) 0.44122(23) 0.47459(18)
H12_3 H 0.0817 0.6791 0.5001
H13_3 H 0.0817 0.4025 0.5001
H17_3 H 0.1009 0.6540 0.4231
H18_3 H 0.1009 0.4468 0.4231
N13_3 N 0.06542(27) 0.58635(16) 0.58968(16)
N19_3 N 0.08031(27) 0.81240(22) 0.92302(16)
N20_3 N 0.09424(30) 0.5471(2) 0.4727(2)
N27_3 N 0.03934(45) 0.5197(3) 0.7005(3)
H27_3 H 0.0332 0.5519 0.7261
H28_3 H 0.0332 0.4812 0.7261
O17_3 O 0.04755(25) 0.73443(21) 0.56407(16)
O19_3 O 0.26557(21) 0.95245(16) 0.56407(16)
Ag8_3 Ag 0.756918(23) 0.51384(2) 0.02800(2)
Ag11_9 Ag 1.00000(4) 0.72259(2) 0.0000
Ag12_3 Ag 0.94407(3) 0.61074(2) 0.3333
N18_3 N 0.91969(27) 0.73208(15) 0.07698(16)
Ag7_3 Ag 0.847173(25) 0.423585(23) 0.63867(2)
Ag11_10 Ag 1.00000(4) 0.72259(2) 1.0000
C16_3 C 0.91602(32) 0.56323(26) 0.7605(2)
C17_3 C 0.89656(26) 0.58269(18) 0.9062(2)
C19_3 C 0.8714(3) 0.5381(3) 0.8334
H9_3 H 0.8649 0.4931 0.8468
H10_3 H 0.8264 0.5316 0.8199
O6_3 O 0.88545(26) 0.54404(21) 0.69609(15)
O7_3 O 0.87737(21) 0.55212(14) 0.97058(15)
O15_3 O 0.97979(26) 0.59891(21) 0.76927(16)
O16_3 O 0.93224(21) 0.64646(14) 0.89740(16)
C1_2 C 0.41632(17) 0.25961(18) 0.17961(18)
C2_2 C 0.39037(14) 0.1952(3) 0.2916(3)
N1_2 N 0.42246(16) 0.31457(17) 0.14126(18)
H2_2 H 0.4150 0.3458 0.1668
H3_2 H 0.4342 0.3207 0.0898
N2_2 N 0.39875(15) 0.25302(16) 0.25635(16)
N3_2 N 0.42757(11) 0.2138(2) 0.1394(2)
N6_2 N 0.37267(16) 0.1864(3) 0.3672(3)
H5_2 H 0.3665 0.2186 0.3928
C6_2 C 0.41632(17) 0.15671(25) 0.17961(18)
C7_4 C 0.49004(25) 0.40706(18) 0.48706(18)
C8_4 C 0.59294(18) 0.50996(25) 0.48706(18)
C9_3 C 0.84329(25) 0.58368(17) 0.17961(18)
C10_3 C 0.74039(18) 0.58368(17) 0.17961(18)
C11_4 C 0.52850(33) 0.4715(3) 0.3751(3)
C12_3 C 0.80483(33) 0.60963(14) 0.2916(3)
N7_2 N 0.42246(16) 0.10789(23) 0.14126(18)
N8_4 N 0.44122(23) 0.35210(17) 0.52541(18)
N9_4 N 0.64790(17) 0.55878(23) 0.52541(18)
N10_3 N 0.89211(23) 0.57754(16) 0.14126(18)
N11_3 N 0.68543(17) 0.57754(16) 0.14126(18)
H11_2 H 0.4150 0.0692 0.1668
H12_4 H 0.4025 0.3209 0.4999
H13_4 H 0.6791 0.5975 0.4999
H14_3 H 0.9308 0.5850 0.1668
H15_3 H 0.6542 0.5850 0.1668
H16_2 H 0.4342 0.1135 0.0898
H17_4 H 0.4468 0.3460 0.5769
H18_4 H 0.6540 0.5532 0.5769
H19_3 H 0.8865 0.5658 0.0898
H20_3 H 0.6793 0.5658 0.0898
N12_2 N 0.39875(15) 0.14573(22) 0.25635(16)
N13_4 N 0.47906(22) 0.41365(16) 0.41032(16)
N14_3 N 0.58635(16) 0.52094(22) 0.41032(16)
N15_3 N 0.85427(22) 0.60125(15) 0.25635(16)
N16_3 N 0.74698(16) 0.60125(15) 0.25635(16)
N17_2 N 0.47906(22) 0.06542(15) 0.41032(16)
N20_4 N 0.54710(23) 0.4529(2) 0.5273(2)
N21_2 N 0.78623(23) 0.57243(11) 0.1394(2)
N22_2 N 0.7862(2) 0.21377(23) 0.1394(2)
N27_4 N 0.51960(34) 0.4803(3) 0.2995(3)
N28_3 N 0.81373(34) 0.62733(16) 0.3672(3)
H26_2 H 0.3665 0.1479 0.3928
H27_4 H 0.4812 0.4481 0.2739
H28_4 H 0.5519 0.5188 0.2739
H29_3 H 0.8521 0.6335 0.3928
H30_3 H 0.7814 0.6335 0.3928
O17_4 O 0.31313(14) 0.26557(21) 0.43593(16)
O19_4 O 0.31313(14) 0.04755(16) 0.43593(16)
C5_2 C 0.63220(13) 0.2644(3) 0.9821(3)
N4_2 N 0.5951(2) 0.29755(11) 0.9819(2)
N5_2 N 0.59803(11) 0.1961(2) 0.9818(3)
H4_2 H 0.5509 0.1726 0.9815
C14_4 C 0.41731(18) 0.10344(26) 0.9062(2)
C15_4 C 0.43677(26) 0.08398(18) 0.7605(2)
C18_4 C 0.4619(3) 0.1286(3) 0.8333
H7_4 H 0.4684 0.1736 0.8199
H8_4 H 0.5069 0.1351 0.8468
C20_2 C 0.63220(33) 0.36780(13) 0.9821(3)
C21_2 C 0.7356(3) 0.36780(33) 0.9821(3)
N23_2 N 0.70245(23) 0.4049(2) 0.9819(2)
N24_2 N 0.70245(11) 0.29755(23) 0.9819(2)
N25_2 N 0.8039(2) 0.40193(23) 0.9818(3)
N26_2 N 0.59807(23) 0.40197(11) 0.9818(3)
H21_2 H 0.6217 0.1726 0.9815
H22_2 H 0.8274 0.3783 0.9815
H23_2 H 0.8274 0.4491 0.9815
H24_2 H 0.6217 0.4491 0.9815
H25_2 H 0.5509 0.3783 0.9815
O4_2 O 0.44788(14) 0.12263(21) 0.97058(15)
O5_4 O 0.45596(21) 0.11455(14) 0.69609(15)
O9_2 O 0.67475(15) 0.55212(14) 0.97058(15)
O11_2 O 0.87737(21) 0.32525(15) 0.97058(15)
O13_4 O 0.35354(14) 0.06776(21) 0.89740(16)
C7_5 C 0.91701(31) 0.50996(25) 0.48706(18)
C8_5 C 0.91701(31) 0.40706(18) 0.48706(18)
C9_4 C 0.74039(30) 0.15671(25) 0.17961(18)
C10_4 C 0.84329(25) 0.25961(18) 0.17961(18)
C11_5 C 0.94296(45) 0.47150(33) 0.3751(3)
C12_4 C 0.80480(36) 0.19517(33) 0.2916(3)
N8_5 N 0.91087(29) 0.55878(23) 0.52541(18)
N9_5 N 0.91087(29) 0.35210(17) 0.52541(18)
N10_4 N 0.68543(28) 0.10789(23) 0.14126(18)
N11_4 N 0.89211(23) 0.31457(17) 0.14126(18)
H12_5 H 0.9183 0.5975 0.4999
H13_5 H 0.9183 0.3209 0.4999
H14_4 H 0.6542 0.0692 0.1668
H15_4 H 0.9308 0.3458 0.1668
H17_5 H 0.8991 0.5532 0.5769
H18_5 H 0.8991 0.3460 0.5769
H19_4 H 0.6793 0.1135 0.0898
H20_4 H 0.8865 0.3207 0.0898
N13_5 N 0.93458(27) 0.52094(22) 0.41032(16)
N14_4 N 0.93458(27) 0.41365(16) 0.41032(16)
N15_4 N 0.74698(27) 0.14573(22) 0.25635(16)
N16_4 N 0.85427(22) 0.25302(16) 0.25635(16)
N20_5 N 0.90576(30) 0.45290(23) 0.5273(2)
N27_5 N 0.96066(45) 0.48040(34) 0.2995(3)
N28_4 N 0.81360(38) 0.18627(34) 0.3672(3)
H27_5 H 0.9668 0.5188 0.2739
H28_5 H 0.9668 0.4481 0.2739
H29_4 H 0.7814 0.1479 0.3928
H30_4 H 0.8521 0.2186 0.3928
O17_5 O 0.95245(25) 0.68687(14) 0.43593(16)
O19_5 O 0.73443(21) 0.68687(14) 0.43593(16)
C14_5 C 0.68613(32) 0.58269(18) 0.9062(2)
C15_5 C 0.64720(32) 0.56323(26) 0.7605(2)
C18_5 C 0.6667(4) 0.5381(3) 0.8333
H7_5 H 0.7052 0.5316 0.8199
H8_5 H 0.6281 0.4931 0.8468
O5_5 O 0.65858(25) 0.54404(21) 0.69609(15)
O13_5 O 0.71422(25) 0.64646(14) 0.89740(16)
C7_6 C 0.59294(18) 0.08299(31) 0.48706(18)
C8_6 C 0.49004(25) 0.08299(31) 0.48706(18)
C11_6 C 0.5285(3) 0.05704(45) 0.3751(3)
N8_6 N 0.64790(17) 0.08913(29) 0.52541(18)
N9_6 N 0.44122(23) 0.08913(29) 0.52541(18)
H12_6 H 0.6791 0.0817 0.4999
H13_6 H 0.4025 0.0817 0.4999
H17_6 H 0.6540 0.1009 0.5769
H18_6 H 0.4468 0.1009 0.5769
N13_6 N 0.58635(16) 0.06542(27) 0.41032(16)
N20_6 N 0.5471(2) 0.09424(30) 0.5273(2)
N27_6 N 0.5197(3) 0.03934(45) 0.2995(3)
H27_6 H 0.5519 0.0332 0.2739
H28_6 H 0.4812 0.0332 0.2739
O17_6 O 0.73443(21) 0.04755(25) 0.43593(16)
O19_6 O 0.95245(16) 0.26557(21) 0.43593(16)
C14_6 C 0.89656(26) 0.31387(32) 0.9062(2)
C15_6 C 0.91602(18) 0.35280(32) 0.7605(2)
C18_6 C 0.8714(3) 0.3333(4) 0.8333
H7_6 H 0.8264 0.2948 0.8199
H8_6 H 0.8649 0.3719 0.8468
O5_6 O 0.88545(14) 0.34142(25) 0.69609(15)
O13_6 O 0.93224(21) 0.28578(25) 0.89740(16)
Ag3_2 Ag 0.18051(2) 0.090251(23) 0.30533(2)
C9_5 C 0.25035(17) 0.17662(25) 0.15372(18)
C10_5 C 0.25035(17) 0.07372(18) 0.15372(18)
C12_5 C 0.27630(14) 0.13816(33) 0.0417(3)
C21_3 C 0.03447(33) 0.0689(3) 0.3512(3)
N10_5 N 0.24421(16) 0.22544(23) 0.19207(18)
N11_5 N 0.24421(16) 0.01876(17) 0.19207(18)
H14_5 H 0.2517 0.2641 0.1665
H19_5 H 0.2325 0.2198 0.2435
H20_5 H 0.2325 0.0126 0.2435
N16_5 N 0.26792(15) 0.08031(16) 0.07698(16)
N21_3 N 0.23910(11) 0.11956(23) 0.1939(2)
N23_3 N 0.0716(2) 0.03578(23) 0.3514(2)
N25_3 N 0.06860(23) 0.1372(2) 0.3515(3)
H22_3 H 0.0450 0.1607 0.3518
H23_3 H 0.1158 0.1607 0.3518
O8_2 O 0.21879(14) 0.21070(21) 0.36275(15)
O9_3 O 0.21879(14) 0.00808(15) 0.36275(15)
H13_7 H 0.2641 0.0125 0.8335
N28_5 N 0.29400(16) 0.14706(34) 0.9661(3)
H29_5 H 0.3002 0.1854 0.9405
H30_5 H 0.3002 0.1147 0.9405
C4_4 C -0.0000 0.7952(3) 0.5000
H2_3 H 0.0125 0.7483 0.1665
Ag5_3 Ag 0.090255(11) 0.909749(23) 0.69467(2)
C13_4 C 0.01946(19) 0.77011(26) 0.5729(2)
H6_4 H 0.0385 0.8403 0.4866
C20_3 C 0.03447(13) 0.96553(33) 0.3512(3)
H15_5 H 0.2517 0.9875 0.1665
N26_3 N 0.06864(11) 0.93140(23) 0.3515(3)
H24_3 H 0.1158 0.9550 0.3518
H25_3 H 0.0450 0.8842 0.3518
N27_7 N 0.1469(3) 0.85294(34) 0.0339(3)
H27_7 H 0.1147 0.8146 0.0595
H28_7 H 0.1854 0.8853 0.0595
O3_4 O 0.00808(15) 0.78930(21) 0.63725(15)
C7_7 C 0.07372(18) 0.82338(25) 0.84628(18)
C8_7 C 0.17662(25) 0.92628(18) 0.84628(18)
C11_7 C 0.1381(3) 0.86184(33) 0.9583(3)
N8_7 N 0.01876(17) 0.77456(23) 0.80793(18)
N9_7 N 0.22544(23) 0.98124(17) 0.80793(18)
H17_7 H 0.0126 0.7802 0.7565
H18_7 H 0.2198 0.9874 0.7565
N14_5 N 0.18760(22) 0.91969(16) 0.92302(16)
N20_7 N 0.1195(2) 0.88044(23) 0.8061(2)
Ag4_2 Ag 0.909749(23) 0.090255(11) 0.30533(2)
N22_3 N 0.88044(23) 0.1195(2) 0.1939(2)
N24_3 N 0.96422(23) 0.03578(11) 0.3514(2)
O10_2 O 0.78930(21) 0.00808(15) 0.36275(15)
O11_3 O 0.99192(15) 0.21070(21) 0.36275(15)
Ag1_2 Ag 0.909745(11) 0.81949(2) 0.30533(2)
C1_3 C 0.92628(18) 0.74965(17) 0.15372(18)
C2_3 C 0.8619(3) 0.72370(14) 0.0417(3)
C3_4 C 0.98054(19) 0.75064(18) 0.4271(2)
C4_5 C 1.0000 0.7952(3) 0.5000
H1_4 H 0.9615 0.8017 0.5134
C5_3 C 0.9311(3) 0.96553(13) 0.3512(3)
N1_3 N 0.98124(17) 0.75579(16) 0.19207(18)
H3_3 H 0.9874 0.7675 0.2435
N3_3 N 0.8805(2) 0.76090(11) 0.1939(2)
N4_3 N 0.96422(11) 0.9284(2) 0.3514(2)
N5_3 N 0.8628(2) 0.93136(11) 0.3515(3)
H4_3 H 0.8393 0.8842 0.3518
O1_2 O 0.99192(15) 0.78121(14) 0.36275(15)
Ag6_2 Ag 0.81949(2) 0.909749(23) 0.69467(2)
C6_3 C 0.82338(25) 0.74965(17) 0.15372(18)
C14_7 C 0.77011(26) 0.75064(18) 0.4271(2)
C15_7 C 0.75064(18) 0.77011(26) 0.5729(2)
C18_7 C 0.7953(3) 0.7952(3) 0.5000
H7_7 H 0.8403 0.8017 0.5134
H8_7 H 0.8017 0.8403 0.4866
N7_3 N 0.77456(23) 0.75579(16) 0.19207(18)
H11_3 H 0.7359 0.7483 0.1665
H16_3 H 0.7802 0.7675 0.2435
N12_3 N 0.81240(22) 0.73208(15) 0.07698(16)
H21_3 H 0.8393 0.9550 0.3518
O4_3 O 0.78930(21) 0.78121(14) 0.36275(15)
O5_7 O 0.78121(14) 0.78930(21) 0.63725(15)
N6_3 N 0.8531(3) 0.70600(16) 0.9661(3)
H5_3 H 0.8853 0.6998 0.9405
H12_7 H 0.9875 0.7359 0.8335
N17_3 N 0.73208(15) 0.81240(22) 0.92302(16)
H26_3 H 0.8146 0.6998 0.9405
C3_5 C 0.24936(18) 0.22989(26) 0.4271(2)
C4_6 C 0.2048(3) 0.2047(3) 0.5000
H1_5 H 0.1983 0.1597 0.5134
Ag5_4 Ag 0.090251(23) 0.180507(25) 0.69467(2)
C13_5 C 0.22989(26) 0.24936(32) 0.5729(2)
C14_8 C 0.24936(18) 0.01946(32) 0.4271(2)
C18_8 C 0.2048(3) 0.0000(4) 0.5000
H6_5 H 0.1597 0.1983 0.4866
H7_8 H 0.1983 0.0385 0.5134
H15_6 H 0.0125 0.2641 0.1665
N27_8 N 0.14706(34) 0.29400(45) 0.0339(3)
H27_8 H 0.1854 0.3002 0.0595
H28_8 H 0.1147 0.3002 0.0595
O3_5 O 0.21070(21) 0.21879(26) 0.63725(15)
C7_8 C 0.17662(25) 0.25035(31) 0.84628(18)
C8_8 C 0.07372(18) 0.25035(31) 0.84628(18)
C11_8 C 0.13816(33) 0.27630(45) 0.9583(3)
N8_8 N 0.22544(23) 0.24421(29) 0.80793(18)
N9_8 N 0.01876(17) 0.24421(29) 0.80793(18)
H12_8 H 0.2641 0.2517 0.8335
H17_8 H 0.2198 0.2325 0.7565
H18_8 H 0.0126 0.2325 0.7565
N14_6 N 0.08031(16) 0.26792(27) 0.92302(16)
N20_8 N 0.11956(23) 0.23910(30) 0.8061(2)
C15_8 C 0.22989(26) 0.98054(32) 0.5729(2)
C18_9 C 0.2048(3) 1.0000(4) 0.5000
H8_8 H 0.1597 0.9615 0.4866
O5_8 O 0.21070(21) 0.99192(25) 0.63725(15)
C9_6 C 0.82338(25) 0.07372(30) 0.15372(18)
C10_6 C 0.92628(18) 0.17662(25) 0.15372(18)
C12_6 C 0.86184(33) 0.13813(36) 0.0417(3)
N10_6 N 0.77456(23) 0.01876(28) 0.19207(18)
N11_6 N 0.98124(17) 0.22544(23) 0.19207(18)
H19_6 H 0.7802 0.0126 0.2435
H20_6 H 0.9874 0.2198 0.2435
N16_6 N 0.91969(16) 0.18760(22) 0.07698(16)
H13_8 H 0.9875 0.2517 0.8335
N28_6 N 0.85294(34) 0.14693(38) 0.9661(3)
H29_6 H 0.8146 0.1147 0.9405
H30_6 H 0.8853 0.1854 0.9405
H14_6 H 0.7359 0.9875 0.1665
C15_9 C 0.01946(32) 0.24936(18) 0.5729(2)
C18_10 C -0.0000(4) 0.2047(3) 0.5000
H8_9 H 0.0385 0.1983 0.4866
O5_9 O 0.00808(25) 0.21879(14) 0.63725(15)
C3_6 C 0.77011(26) 0.01946(19) 0.4271(2)
C4_7 C 0.7953(3) 0.0000 0.5000
H1_6 H 0.8403 0.0385 0.5134
C14_9 C 0.98054(32) 0.22989(26) 0.4271(2)
C18_11 C 1.0000(4) 0.2047(3) 0.5000
H7_9 H 0.9615 0.1597 0.5134
H12_9 H 0.7483 0.0125 0.8335
C4_8 C 0.7953(3) 1.0000 0.5000
C13_6 C 0.75064(32) 0.98054(19) 0.5729(2)
H6_6 H 0.8017 0.9615 0.4866
N27_9 N 0.70600(45) 0.8531(3) 0.0339(3)
H27_9 H 0.6998 0.8853 0.0595
H28_9 H 0.6998 0.8146 0.0595
O3_6 O 0.78121(26) 0.99192(15) 0.63725(15)
C7_9 C 0.74965(31) 0.92628(18) 0.84628(18)
C8_9 C 0.74965(31) 0.82338(25) 0.84628(18)
C11_9 C 0.72370(45) 0.8619(3) 0.9583(3)
N8_9 N 0.75579(29) 0.98124(17) 0.80793(18)
N9_9 N 0.75579(29) 0.77456(23) 0.80793(18)
H13_9 H 0.7483 0.7359 0.8335
H17_9 H 0.7675 0.9874 0.7565
H18_9 H 0.7675 0.7802 0.7565
N20_9 N 0.76090(30) 0.8805(2) 0.8061(2)
C5_4 C 0.29887(13) 0.5977(3) 0.3154(3)
N4_4 N 0.2618(2) 0.63088(11) 0.3152(2)
N5_4 N 0.26470(11) 0.5294(2) 0.3151(3)
H4_4 H 0.2176 0.5059 0.3148
C20_4 C 0.29887(33) 0.70113(13) 0.3154(3)
C21_4 C 0.4023(3) 0.70113(33) 0.3154(3)
N23_4 N 0.36912(23) 0.7382(2) 0.3152(2)
N24_4 N 0.36912(11) 0.63088(23) 0.3152(2)
N25_4 N 0.4706(2) 0.73526(23) 0.3151(3)
N26_4 N 0.26474(23) 0.73530(11) 0.3151(3)
H21_4 H 0.2884 0.5059 0.3148
H22_4 H 0.4941 0.7116 0.3148
H23_4 H 0.4941 0.7824 0.3148
H24_4 H 0.2884 0.7824 0.3148
H25_4 H 0.2176 0.7116 0.3148
C5_5 C 0.5977(3) 0.29887(13) 0.6846(3)
N4_5 N 0.63088(11) 0.2618(2) 0.6848(2)
N5_5 N 0.5294(2) 0.26470(11) 0.6849(3)
H4_5 H 0.5059 0.2176 0.6852
C20_5 C 0.70113(13) 0.29887(33) 0.6846(3)
C21_5 C 0.70113(33) 0.4023(3) 0.6846(3)
N23_5 N 0.7382(2) 0.36912(23) 0.6848(2)
N24_5 N 0.63088(23) 0.36912(11) 0.6848(2)
N25_5 N 0.73526(23) 0.4706(2) 0.6849(3)
N26_5 N 0.73530(11) 0.26474(23) 0.6849(3)
H21_5 H 0.5059 0.2884 0.6852
H22_5 H 0.7116 0.4941 0.6852
H23_5 H 0.7824 0.4941 0.6852
H24_5 H 0.7824 0.2884 0.6852
H25_5 H 0.7116 0.2176 0.6852
C21_6 C 0.0689(3) 0.03447(33) 0.6488(3)
N23_6 N 0.03578(23) 0.0716(2) 0.6486(2)
N25_6 N 0.1372(2) 0.06860(23) 0.6485(3)
H22_6 H 0.1607 0.0450 0.6482
H23_6 H 0.1607 0.1158 0.6482
N24_6 N 0.03578(11) 0.96422(23) 0.6486(2)
C20_6 C 0.96553(33) 0.03447(13) 0.6488(3)
N26_6 N 0.93140(23) 0.06864(11) 0.6485(3)
H24_6 H 0.9550 0.1158 0.6482
H25_6 H 0.8842 0.0450 0.6482
C5_6 C 0.96553(13) 0.9311(3) 0.6488(3)
N4_6 N 0.9284(2) 0.96422(11) 0.6486(2)
N5_6 N 0.93136(11) 0.8628(2) 0.6485(3)
H4_6 H 0.8842 0.8393 0.6482
H21_6 H 0.9550 0.8393 0.6482
loop_
_geom_bond_atom_site_label_1
_geom_bond_atom_site_label_2
_geom_bond_site_symmetry_1
_geom_bond_site_symmetry_2
C3 C4 1_555 1_555
C4 H1 1_555 1_555
C5 N4 1_555 1_555
N5 C5 1_555 1_555
H4 N5 1_555 1_555
O2 C3 1_555 1_555
Ag5 O3 1_555 1_555
Ag6 O5 1_555 1_555
Ag11 O2 1_555 1_555
Ag12 O12 1_555 1_555
Ag13 O13 1_555 1_555
C13 C4 1_555 1_555
C14 C18 1_555 1_555
C15 C18 1_555 1_555
C18 H7 1_555 1_555
H6 C4 1_555 1_555
H8 C18 1_555 1_555
C20 N4 1_555 1_555
C21 N23 1_555 1_555
N18 Ag11 1_555 1_555
N24 C5 1_555 1_555
N25 C21 1_555 1_555
N26 C20 1_555 1_555
H21 N5 1_555 1_555
H22 N25 1_555 1_555
H23 N25 1_555 1_555
H24 N26 1_555 1_555
H25 N26 1_555 1_555
O3 C13 1_555 1_555
O5 C15 1_555 1_555
O12 C13 1_555 1_555
O13 C14 1_555 1_555
O14 C15 1_555 1_555
C3 O1 1_555 1_555
C14 O4 1_555 1_555
C20 N23 1_555 1_555
C21 N24 1_555 1_555
Ag1 N3 1_555 1_555
Ag2 N2 1_555 1_555
C1 N1 1_555 1_555
C2 N2 1_555 1_555
N1 H2 1_555 1_555
H3 N1 1_555 1_555
N2 C1 1_555 1_555
N3 C1 1_555 1_555
N6 C2 1_555 1_555
H5 N6 1_555 1_555
Ag3 N21 1_555 1_555
Ag4 N22 1_555 1_555
Ag7 O6 1_555 1_555
Ag5 N20 1_555 1_555
Ag10 N12 1_555 1_555
Ag15 N14 1_555 1_555
Ag16 N15 1_555 1_555
C6 N3 1_555 1_555
C7 N8 1_555 1_555
C8 N9 1_555 1_555
C9 N10 1_555 1_555
C10 N11 1_555 1_555
C11 N13 1_555 1_555
C12 N15 1_555 1_555
C16 C19 1_555 1_555
C17 C19 1_555 1_555
C19 H9 1_555 1_555
H10 C19 1_555 1_555
N7 C6 1_555 1_555
N8 H12 1_555 1_555
N9 H13 1_555 1_555
N10 H14 1_555 1_555
N11 H15 1_555 1_555
H11 N7 1_555 1_555
H16 N7 1_555 1_555
H17 N8 1_555 1_555
H18 N9 1_555 1_555
H19 N10 1_555 1_555
H20 N11 1_555 1_555
N12 C2 1_555 1_555
N13 Ag2 1_555 1_555
N14 C8 1_555 1_555
N15 C9 1_555 1_555
N16 Ag15 1_555 1_555
N17 Ag10 1_555 1_555
N19 Ag11_2 1_555 1_555
N20 C7 1_555 1_555
N21 C9 1_555 1_555
N27 C11 1_555 1_555
N28 C12 1_555 1_555
H26 N6 1_555 1_555
H27 N27 1_555 1_555
H28 N27 1_555 1_555
H29 N28 1_555 1_555
H30 N28 1_555 1_555
O6 C16 1_555 1_555
O7 C17 1_555 1_555
O15 Ag2 1_555 1_555
O16 Ag11_2 1_555 1_555
O17 Ag2 1_555 1_555
O19 Ag10 1_555 1_555
C6 N12 1_555 1_555
C7 N13 1_555 1_555
C8 N20 1_555 1_555
C10 N16 1_555 1_555
C10 N21 1_555 1_555
C11 N14 1_555 1_555
C12 N16 1_555 1_555
C16 O15 1_555 1_555
C17 O16 1_555 1_555
N18_2 Ag11_3 1_555 1_555
Ag7_2 O6_2 1_555 1_555
C16_2 C19_2 1_555 1_555
C17_2 C19_2 1_555 1_555
C19_2 H9_2 1_555 1_555
H10_2 C19_2 1_555 1_555
O6_2 C16_2 1_555 1_555
O7_2 C17_2 1_555 1_555
O16_2 Ag11_4 1_555 1_555
C16_2 O15_2 1_555 1_555
C17_2 O16_2 1_555 1_555
C3_2 C4_2 1_555 1_555
C4_2 H1_2 1_555 1_555
O2_2 C3_2 1_555 1_555
Ag5_2 O3_2 1_555 1_555
Ag5 O5_2 1_555 1_555
Ag11_5 O2_2 1_555 1_555
Ag13_5 O13_2 1_555 1_555
Ag14_2 O14_2 1_555 1_555
C13_2 C4_2 1_555 1_555
C14_2 C18_2 1_555 1_555
C15_2 C18_2 1_555 1_555
C18_2 H7_2 1_555 1_555
H6_2 C4_2 1_555 1_555
H8_2 C18_2 1_555 1_555
O3_2 C13_2 1_555 1_555
O5_2 C15_2 1_555 1_555
O12_2 C13_2 1_555 1_555
O13_2 C14_2 1_555 1_555
O14_2 C15_2 1_555 1_555
C3_2 O8 1_555 1_555
C14_2 O9 1_555 1_555
Ag5_2 N20_2 1_555 1_555
Ag15_2 N14_2 1_555 1_555
Ag16_2 N15_2 1_555 1_555
C7_2 N8_2 1_555 1_555
C8_2 N9_2 1_555 1_555
C9_2 N10_2 1_555 1_555
C10_2 N11_2 1_555 1_555
C11_2 N13_2 1_555 1_555
C12_2 N15_2 1_555 1_555
N8_2 H12_2 1_555 1_555
N9_2 H13_2 1_555 1_555
N10_2 H14_2 1_555 1_555
N11_2 H15_2 1_555 1_555
H17_2 N8_2 1_555 1_555
H18_2 N9_2 1_555 1_555
H19_2 N10_2 1_555 1_555
H20_2 N11_2 1_555 1_555
N13_2 Ag16 1_555 1_555
N14_2 C8_2 1_555 1_555
N15_2 C9_2 1_555 1_555
N16_2 Ag15_2 1_555 1_555
N19_2 Ag11_6 1_555 1_555
N20_2 C7_2 1_555 1_555
N22 C9_2 1_555 1_555
N27_2 C11_2 1_555 1_555
N28_2 C12_2 1_555 1_555
H27_2 N27_2 1_555 1_555
H28_2 N27_2 1_555 1_555
H29_2 N28_2 1_555 1_555
H30_2 N28_2 1_555 1_555
O17_2 Ag16 1_555 1_555
O18_2 Ag15 1_555 1_555
O19_2 Ag15 1_555 1_555
C7_2 N13_2 1_555 1_555
C8_2 N20_2 1_555 1_555
C10_2 N16_2 1_555 1_555
C10_2 N22 1_555 1_555
C11_2 N14_2 1_555 1_555
C12_2 N16_2 1_555 1_555
C3_3 C4_3 1_555 1_555
C4_3 H1_3 1_555 1_555
O2_3 C3_3 1_555 1_555
Ag6 O3_3 1_555 1_555
Ag5_2 O5_3 1_555 1_555
Ag11_7 O2_3 1_555 1_555
Ag13_9 O13_3 1_555 1_555
C13_3 C4_3 1_555 1_555
C14_3 C18_3 1_555 1_555
C15_3 C18_3 1_555 1_555
C18_3 H7_3 1_555 1_555
H6_3 C4_3 1_555 1_555
H8_3 C18_3 1_555 1_555
O3_3 C13_3 1_555 1_555
O5_3 C15_3 1_555 1_555
O12_3 C13_3 1_555 1_555
O13_3 C14_3 1_555 1_555
O14_3 C15_3 1_555 1_555
C3_3 O10 1_555 1_555
C14_3 O11 1_555 1_555
Ag6 N20_3 1_555 1_555
C7_3 N8_3 1_555 1_555
C8_3 N9_3 1_555 1_555
C11_3 N13_3 1_555 1_555
N8_3 H12_3 1_555 1_555
N9_3 H13_3 1_555 1_555
H17_3 N8_3 1_555 1_555
H18_3 N9_3 1_555 1_555
N13_3 Ag16_2 1_555 1_555
N17 C8_3 1_555 1_555
N19_3 Ag11_8 1_555 1_555
N20_3 C7_3 1_555 1_555
N27_3 C11_3 1_555 1_555
H27_3 N27_3 1_555 1_555
H28_3 N27_3 1_555 1_555
O17_3 Ag16_2 1_555 1_555
O19_3 Ag15_2 1_555 1_555
C7_3 N13_3 1_555 1_555
C8_3 N20_3 1_555 1_555
C11_3 N17 1_555 1_555
N18_3 Ag11_9 1_555 1_555
Ag7_3 O6_3 1_555 1_555
C16_3 C19_3 1_555 1_555
C17_3 C19_3 1_555 1_555
C19_3 H9_3 1_555 1_555
H10_3 C19_3 1_555 1_555
O6_3 C16_3 1_555 1_555
O7_3 C17_3 1_555 1_555
O16_3 Ag11_10 1_555 1_555
C16_3 O15_3 1_555 1_555
C17_3 O16_3 1_555 1_555
Ag8 N3_2 1_555 1_555
Ag12 N2_2 1_555 1_555
C1_2 N1_2 1_555 1_555
C2_2 N2_2 1_555 1_555
N1_2 H2_2 1_555 1_555
H3_2 N1_2 1_555 1_555
N2_2 C1_2 1_555 1_555
N3_2 C1_2 1_555 1_555
N6_2 C2_2 1_555 1_555
H5_2 N6_2 1_555 1_555
Ag8_3 N21_2 1_555 1_555
Ag8_2 N22_2 1_555 1_555
Ag7 N20_4 1_555 1_555
Ag14_3 N12_2 1_555 1_555
Ag14_2 N14_3 1_555 1_555
Ag12_3 N15_3 1_555 1_555
C6_2 N3_2 1_555 1_555
C7_4 N8_4 1_555 1_555
C8_4 N9_4 1_555 1_555
C9_3 N10_3 1_555 1_555
C10_3 N11_3 1_555 1_555
C11_4 N13_4 1_555 1_555
C12_3 N15_3 1_555 1_555
N7_2 C6_2 1_555 1_555
N8_4 H12_4 1_555 1_555
N9_4 H13_4 1_555 1_555
N10_3 H14_3 1_555 1_555
N11_3 H15_3 1_555 1_555
H11_2 N7_2 1_555 1_555
H16_2 N7_2 1_555 1_555
H17_4 N8_4 1_555 1_555
H18_4 N9_4 1_555 1_555
H19_3 N10_3 1_555 1_555
H20_3 N11_3 1_555 1_555
N12_2 C2_2 1_555 1_555
N13_4 Ag12 1_555 1_555
N14_3 C8_4 1_555 1_555
N15_3 C9_3 1_555 1_555
N16_3 Ag14_2 1_555 1_555
N17_2 Ag14_3 1_555 1_555
N20_4 C7_4 1_555 1_555
N21_2 C9_3 1_555 1_555
N27_4 C11_4 1_555 1_555
N28_3 C12_3 1_555 1_555
H26_2 N6_2 1_555 1_555
H27_4 N27_4 1_555 1_555
H28_4 N27_4 1_555 1_555
H29_3 N28_3 1_555 1_555
H30_3 N28_3 1_555 1_555
O17_4 Ag12 1_555 1_555
O19_4 Ag14_3 1_555 1_555
C6_2 N12_2 1_555 1_555
C7_4 N13_4 1_555 1_555
C8_4 N20_4 1_555 1_555
C10_3 N16_3 1_555 1_555
C10_3 N21_2 1_555 1_555
C11_4 N14_3 1_555 1_555
C12_3 N16_3 1_555 1_555
C5_2 N4_2 1_555 1_555
N5_2 C5_2 1_555 1_555
H4_2 N5_2 1_555 1_555
Ag7_2 O5_4 1_555 1_555
Ag13_8 O13_4 1_555 1_555
C14_4 C18_4 1_555 1_555
C15_4 C18_4 1_555 1_555
C18_4 H7_4 1_555 1_555
H8_4 C18_4 1_555 1_555
C20_2 N4_2 1_555 1_555
C21_2 N23_2 1_555 1_555
N24_2 C5_2 1_555 1_555
N25_2 C21_2 1_555 1_555
N26_2 C20_2 1_555 1_555
H21_2 N5_2 1_555 1_555
H22_2 N25_2 1_555 1_555
H23_2 N25_2 1_555 1_555
H24_2 N26_2 1_555 1_555
H25_2 N26_2 1_555 1_555
O5_4 C15_4 1_555 1_555
O13_4 C14_4 1_555 1_555
O18_3 C15_4 1_555 1_555
C14_4 O4_2 1_555 1_555
C20_2 N23_2 1_555 1_555
C21_2 N24_2 1_555 1_555
Ag7_3 N20_5 1_555 1_555
Ag14 N14_4 1_555 1_555
Ag12_2 N15_4 1_555 1_555
C7_5 N8_5 1_555 1_555
C8_5 N9_5 1_555 1_555
C9_4 N10_4 1_555 1_555
C10_4 N11_4 1_555 1_555
C11_5 N13_5 1_555 1_555
C12_4 N15_4 1_555 1_555
N8_5 H12_5 1_555 1_555
N9_5 H13_5 1_555 1_555
N10_4 H14_4 1_555 1_555
N11_4 H15_4 1_555 1_555
H17_5 N8_5 1_555 1_555
H18_5 N9_5 1_555 1_555
H19_4 N10_4 1_555 1_555
H20_4 N11_4 1_555 1_555
N13_5 Ag12_3 1_555 1_555
N14_4 C8_5 1_555 1_555
N15_4 C9_4 1_555 1_555
N16_4 Ag14 1_555 1_555
N20_5 C7_5 1_555 1_555
N22_2 C9_4 1_555 1_555
N27_5 C11_5 1_555 1_555
N28_4 C12_4 1_555 1_555
H27_5 N27_5 1_555 1_555
H28_5 N27_5 1_555 1_555
H29_4 N28_4 1_555 1_555
H30_4 N28_4 1_555 1_555
O17_5 Ag12_3 1_555 1_555
O19_5 Ag14_2 1_555 1_555
C7_5 N13_5 1_555 1_555
C8_5 N20_5 1_555 1_555
C10_4 N16_4 1_555 1_555
C10_4 N22_2 1_555 1_555
C11_5 N14_4 1_555 1_555
C12_4 N16_4 1_555 1_555
Ag7 O5_5 1_555 1_555
Ag13_6 O13_5 1_555 1_555
C14_5 C18_5 1_555 1_555
C15_5 C18_5 1_555 1_555
C18_5 H7_5 1_555 1_555
H8_5 C18_5 1_555 1_555
O5_5 C15_5 1_555 1_555
O13_5 C14_5 1_555 1_555
O18_2 C15_5 1_555 1_555
C14_5 O9_2 1_555 1_555
Ag7_2 N20_6 1_555 1_555
C7_6 N8_6 1_555 1_555
C8_6 N9_6 1_555 1_555
C11_6 N13_6 1_555 1_555
N8_6 H12_6 1_555 1_555
N9_6 H13_6 1_555 1_555
H17_6 N8_6 1_555 1_555
H18_6 N9_6 1_555 1_555
N13_6 Ag12_2 1_555 1_555
N17_2 C8_6 1_555 1_555
N20_6 C7_6 1_555 1_555
N27_6 C11_6 1_555 1_555
H27_6 N27_6 1_555 1_555
H28_6 N27_6 1_555 1_555
O17_6 Ag12_2 1_555 1_555
O19_6 Ag14 1_555 1_555
C7_6 N13_6 1_555 1_555
C8_6 N20_6 1_555 1_555
C11_6 N17_2 1_555 1_555
Ag7_3 O5_6 1_555 1_555
Ag13_4 O13_6 1_555 1_555
C14_6 C18_6 1_555 1_555
C15_6 C18_6 1_555 1_555
C18_6 H7_6 1_555 1_555
H8_6 C18_6 1_555 1_555
O5_6 C15_6 1_555 1_555
O13_6 C14_6 1_555 1_555
O18 C15_6 1_555 1_555
C14_6 O11_2 1_555 1_555
Ag3_2 N21_3 1_555 1_555
C9_5 N10_5 1_555 1_555
C10_5 N11_5 1_555 1_555
C12_5 N18 1_555 1_555
C21_3 N23_3 1_555 1_555
N10_5 H14_5 1_555 1_555
H19_5 N10_5 1_555 1_555
H20_5 N11_5 1_555 1_555
N18 C9_5 1_555 1_555
N16_5 Ag13_7 1_555 1_555
N21_3 C9_5 1_555 1_555
N23_3 Ag3_2 1_555 1_555
N25_3 C21_3 1_555 1_555
H22_3 N25_3 1_555 1_555
H23_3 N25_3 1_555 1_555
O8_2 Ag3_2 1_555 1_555
O9_3 Ag3_2 1_555 1_555
C10_5 N16_5 1_555 1_555
C10_5 N21_3 1_555 1_555
C12_5 N16_5 1_555 1_555
H29_5 N28_5 1_555 1_555
H30_5 N28_5 1_555 1_555
Ag5_3 O3_4 1_555 1_555
C13_4 C4_4 1_555 1_555
H6_4 C4_4 1_555 1_555
N26_3 C20_3 1_555 1_555
H24_3 N26_3 1_555 1_555
H25_3 N26_3 1_555 1_555
H27_7 N27_7 1_555 1_555
H28_7 N27_7 1_555 1_555
O3_4 C13_4 1_555 1_555
O17_3 C13_4 1_555 1_555
Ag5_3 N20_7 1_555 1_555
Ag13_10 N14_5 1_555 1_555
C7_7 N8_7 1_555 1_555
C8_7 N9_7 1_555 1_555
C11_7 N19_3 1_555 1_555
H17_7 N8_7 1_555 1_555
H18_7 N9_7 1_555 1_555
N14_5 C8_7 1_555 1_555
N20_7 C7_7 1_555 1_555
C7_7 N19_3 1_555 1_555
C8_7 N20_7 1_555 1_555
C11_7 N14_5 1_555 1_555
Ag4_2 N22_3 1_555 1_555
O10_2 Ag4_2 1_555 1_555
O11_3 Ag4_2 1_555 1_555
Ag4_2 N24_3 1_555 1_555
Ag1_2 N3_3 1_555 1_555
C1_3 N1_3 1_555 1_555
C2_3 N18_3 1_555 1_555
C3_4 C4_5 1_555 1_555
C4_5 H1_4 1_555 1_555
C5_3 N4_3 1_555 1_555
H3_3 N1_3 1_555 1_555
N18_3 C1_3 1_555 1_555
N3_3 C1_3 1_555 1_555
N4_3 Ag1_2 1_555 1_555
N5_3 C5_3 1_555 1_555
H4_3 N5_3 1_555 1_555
O1_2 Ag1_2 1_555 1_555
O17_5 C3_4 1_555 1_555
Ag6_2 O5_7 1_555 1_555
Ag13_5 N12_3 1_555 1_555
C6_3 N3_3 1_555 1_555
C14_7 C18_7 1_555 1_555
C15_7 C18_7 1_555 1_555
C18_7 H7_7 1_555 1_555
H8_7 C18_7 1_555 1_555
N7_3 C6_3 1_555 1_555
H11_3 N7_3 1_555 1_555
H16_3 N7_3 1_555 1_555
N12_3 C2_3 1_555 1_555
H21_3 N5_3 1_555 1_555
O4_3 Ag1_2 1_555 1_555
O5_7 C15_7 1_555 1_555
O19_5 C14_7 1_555 1_555
O19_2 C15_7 1_555 1_555
C3_4 O1_2 1_555 1_555
C6_3 N12_3 1_555 1_555
C14_7 O4_3 1_555 1_555
H5_3 N6_3 1_555 1_555
N17_3 Ag13_6 1_555 1_555
H26_3 N6_3 1_555 1_555
C3_5 C4_6 1_555 1_555
C4_6 H1_5 1_555 1_555
O17_4 C3_5 1_555 1_555
Ag5_4 O3_5 1_555 1_555
C13_5 C4_6 1_555 1_555
C14_8 C18_8 1_555 1_555
C18_8 H7_8 1_555 1_555
H6_5 C4_6 1_555 1_555
H27_8 N27_8 1_555 1_555
H28_8 N27_8 1_555 1_555
O3_5 C13_5 1_555 1_555
O17 C13_5 1_555 1_555
O19_4 C14_8 1_555 1_555
C3_5 O8_2 1_555 1_555
C14_8 O9_3 1_555 1_555
Ag5_4 N20_8 1_555 1_555
Ag13_2 N14_6 1_555 1_555
C7_8 N8_8 1_555 1_555
C8_8 N9_8 1_555 1_555
C11_8 N19 1_555 1_555
N8_8 H12_8 1_555 1_555
H17_8 N8_8 1_555 1_555
H18_8 N9_8 1_555 1_555
N14_6 C8_8 1_555 1_555
N20_8 C7_8 1_555 1_555
C7_8 N19 1_555 1_555
C8_8 N20_8 1_555 1_555
C11_8 N14_6 1_555 1_555
Ag5_3 O5_8 1_555 1_555
C15_8 C18_9 1_555 1_555
H8_8 C18_9 1_555 1_555
O5_8 C15_8 1_555 1_555
O19_3 C15_8 1_555 1_555
C9_6 N10_6 1_555 1_555
C10_6 N11_6 1_555 1_555
C12_6 N18_2 1_555 1_555
H19_6 N10_6 1_555 1_555
H20_6 N11_6 1_555 1_555
N18_2 C9_6 1_555 1_555
N16_6 Ag13_3 1_555 1_555
N22_3 C9_6 1_555 1_555
C10_6 N16_6 1_555 1_555
C10_6 N22_3 1_555 1_555
C12_6 N16_6 1_555 1_555
H29_6 N28_6 1_555 1_555
H30_6 N28_6 1_555 1_555
Ag5_4 O5_9 1_555 1_555
C15_9 C18_10 1_555 1_555
H8_9 C18_10 1_555 1_555
O5_9 C15_9 1_555 1_555
O19 C15_9 1_555 1_555
C3_6 C4_7 1_555 1_555
C4_7 H1_6 1_555 1_555
O17_6 C3_6 1_555 1_555
C14_9 C18_11 1_555 1_555
C18_11 H7_9 1_555 1_555
O19_6 C14_9 1_555 1_555
C3_6 O10_2 1_555 1_555
C14_9 O11_3 1_555 1_555
Ag6_2 O3_6 1_555 1_555
C13_6 C4_8 1_555 1_555
H6_6 C4_8 1_555 1_555
H27_9 N27_9 1_555 1_555
H28_9 N27_9 1_555 1_555
O3_6 C13_6 1_555 1_555
O17_2 C13_6 1_555 1_555
Ag6_2 N20_9 1_555 1_555
C7_9 N8_9 1_555 1_555
C8_9 N9_9 1_555 1_555
C11_9 N19_2 1_555 1_555
N9_9 H13_9 1_555 1_555
H17_9 N8_9 1_555 1_555
H18_9 N9_9 1_555 1_555
N17_3 C8_9 1_555 1_555
N20_9 C7_9 1_555 1_555
C7_9 N19_2 1_555 1_555
C8_9 N20_9 1_555 1_555
C11_9 N17_3 1_555 1_555
C5_4 N4_4 1_555 1_555
N4_4 Ag6 1_555 1_555
N5_4 C5_4 1_555 1_555
H4_4 N5_4 1_555 1_555
C20_4 N4_4 1_555 1_555
C21_4 N23_4 1_555 1_555
N23_4 Ag5_2 1_555 1_555
N24_4 C5_4 1_555 1_555
N25_4 C21_4 1_555 1_555
N26_4 C20_4 1_555 1_555
H21_4 N5_4 1_555 1_555
H22_4 N25_4 1_555 1_555
H23_4 N25_4 1_555 1_555
H24_4 N26_4 1_555 1_555
H25_4 N26_4 1_555 1_555
Ag5 N24_4 1_555 1_555
C20_4 N23_4 1_555 1_555
C21_4 N24_4 1_555 1_555
C5_5 N4_5 1_555 1_555
N4_5 Ag7_2 1_555 1_555
N5_5 C5_5 1_555 1_555
H4_5 N5_5 1_555 1_555
C20_5 N4_5 1_555 1_555
C21_5 N23_5 1_555 1_555
N23_5 Ag7_3 1_555 1_555
N24_5 C5_5 1_555 1_555
N25_5 C21_5 1_555 1_555
N26_5 C20_5 1_555 1_555
H21_5 N5_5 1_555 1_555
H22_5 N25_5 1_555 1_555
H23_5 N25_5 1_555 1_555
H24_5 N26_5 1_555 1_555
H25_5 N26_5 1_555 1_555
Ag7 N24_5 1_555 1_555
C20_5 N23_5 1_555 1_555
C21_5 N24_5 1_555 1_555
C21_6 N23_6 1_555 1_555
N23_6 Ag5_4 1_555 1_555
N25_6 C21_6 1_555 1_555
H22_6 N25_6 1_555 1_555
H23_6 N25_6 1_555 1_555
Ag5_3 N24_6 1_555 1_555
N26_6 C20_6 1_555 1_555
H24_6 N26_6 1_555 1_555
H25_6 N26_6 1_555 1_555
C5_6 N4_6 1_555 1_555
N4_6 Ag6_2 1_555 1_555
N5_6 C5_6 1_555 1_555
H4_6 N5_6 1_555 1_555
H21_6 N5_6 1_555 1_555

#END
