
###############################################################################
#
# This file contains modified crystal structure data generated from the
# MOF subset of the Cambridge Structural Database (CSD) v543 
# hosted by the Cambridge Crystallographic Data Centre (CCDC).
#
# This work is licensed under the Creative Commons
# Attribution-NonCommercial-ShareAlike 4.0 International License.
# To view a copy of this license, visit
# http://creativecommons.org/licenses/by-nc-sa/4.0/
# or send a letter to
# Creative Commons, PO Box 1866, Mountain View, CA 94042, USA.
#
# CIF created using the CSD Python API on 29 September 2022
# The structure has been converted into the P1 space group
# The structure has a 3D framework
# The original CSD entry ICARAH is in the rhombohedral crystal system
# The framework has been calculated to contain at least 10.0% void space
# The void calculation uses a probe of radius 1.32A, grid spacing 0.4
#
###############################################################################

data_ICARAH
_chemical_formula_moiety         '(C360 H240 Cu12 N12 O72)n'
_symmetry_cell_setting           triclinic
_symmetry_space_group_name_H-M   'P 1'
_symmetry_Int_Tables_number      1
_space_group_name_Hall           'P 1'
loop_
_symmetry_equiv_pos_site_id
_symmetry_equiv_pos_as_xyz
1 x,y,z
_cell_length_a                   27.411(3)
_cell_length_b                   27.411(3)
_cell_length_c                   27.411(3)
_cell_angle_alpha                90.00
_cell_angle_beta                 90.00
_cell_angle_gamma                90.00
_cell_volume                     20595.6
loop_
_atom_site_label
_atom_site_type_symbol
_atom_site_fract_x
_atom_site_fract_y
_atom_site_fract_z
C6 C 0.0500(2) 0.0037(3) 0.4544(3)
C7 C 0.1006(2) 0.0011(2) 0.4532(3)
N1 N 0.1273(2) 0.0060(3) 0.4961(3)
C8 C 0.1033(3) 0.0134(3) 0.5402(3)
H5 H 0.1211 0.0167 0.5688
C9 C 0.0527(3) 0.0161(4) 0.5414(3)
C10 C 0.0260(2) 0.0112(4) 0.4985(4)
C22 C 0.0406(9) 0.0291(7) 0.5889(11)
C23 C 0.0502(8) 0.0461(11) 0.6718(10)
H16 H 0.0244 0.0703 0.6700
H17 H 0.0382 0.0166 0.6872
C24 C 0.0924(7) 0.0640(7) 0.6938(9)
H18 H 0.0850 0.0748 0.7263
H19 H 0.1048 0.0910 0.6752
H20 H 0.1166 0.0387 0.6951
O1 O 0.0101(6) 0.1018(5) 0.4874(6)
O3 O 0.0744(7) 0.0365(9) 0.6225(8)
Cu10 Cu 0.20234(6) 0.00046(6) 0.49957(5)
Cu13 Cu 0.00046(6) 0.49957(5) 0.20234(6)
C72 C 0.0037(3) 0.4544(3) 0.0500(2)
C74 C 0.0011(2) 0.4532(3) 0.1006(2)
N4 N 0.0060(3) 0.4961(3) 0.1273(2)
C76 C 0.0134(3) 0.5402(3) 0.1033(3)
H50 H 0.0167 0.5688 0.1211
C78 C 0.0161(4) 0.5414(3) 0.0527(3)
C80 C 0.0112(4) 0.4985(4) 0.0260(2)
C104 C 0.0291(7) 0.5889(11) 0.0406(9)
C106 C 0.0461(11) 0.6718(10) 0.0502(8)
H72 H 0.0703 0.6700 0.0244
H74 H 0.0166 0.6872 0.0382
C108 C 0.0640(7) 0.6938(9) 0.0924(7)
H76 H 0.0748 0.7263 0.0850
H78 H 0.0910 0.6752 0.1048
H80 H 0.0387 0.6951 0.1166
O14 O 0.1018(5) 0.4874(6) 0.0101(6)
O18 O 0.0365(9) 0.6225(8) 0.0744(7)
Cu7 Cu 0.49957(5) 0.20234(6) 0.00046(6)
C2 C 0.1246(3) 0.9937(3) 0.4092(3)
H1 H 0.1584 0.9919 0.4084
C3 C 0.0979(5) 0.9888(3) 0.3663(3)
H2 H 0.1139 0.9838 0.3368
C4 C 0.0473(5) 0.9914(4) 0.3675(3)
H3 H 0.0294 0.9882 0.3388
C5 C 0.0233(3) 0.9989(4) 0.4116(4)
H9 H 0.0131 0.9222 0.5162
C62 C 0.0921(6) 0.4804(5) 0.9745(7)
H48 H 0.0006 0.4124 0.9894
C94 C 0.0449(3) 0.4931(2) 0.8953(2)
H60 H 0.0727 0.4882 0.8766
C96 C 0.0482(3) 0.4945(2) 0.9459(2)
C98 C 0.0066(3) 0.5019(2) 0.9738(2)
C100 C 0.1970(3) 0.4227(2) 0.9074(2)
H62 H 0.2288 0.4101 0.9151
H64 H 0.1989 0.4424 0.8785
H66 H 0.1749 0.3960 0.9019
C102 C 0.1798(11) 0.4516(14) 0.9469(9)
H68 H 0.1997 0.4806 0.9505
H70 H 0.1811 0.4332 0.9771
O16 O 0.1250(8) 0.4662(7) 0.9345(6)
O20 O 0.0262(4) 0.5971(5) 0.9926(6)
Cu15 Cu 0.00050(5) 0.49939(5) 0.79841(6)
Cu17 Cu 0.50050(5) 0.29841(6) 0.99939(5)
C128 C 0.2557(7) 0.0661(5) 0.5637(5)
C130 C 0.2542(6) 0.1038(6) 0.6036(5)
C132 C 0.2095(6) 0.1174(6) 0.6196(6)
H92 H 0.1820 0.1048 0.6043
C134 C 0.2034(4) 0.1502(5) 0.6588(5)
H94 H 0.1734 0.1551 0.6740
C136 C 0.2443(6) 0.1739(5) 0.6727(5)
C138 C 0.2920(6) 0.1584(6) 0.6579(5)
H96 H 0.3186 0.1744 0.6716
C140 C 0.3012(6) 0.1224(6) 0.6259(5)
H98 H 0.3321 0.1106 0.6184
C142 C 0.4318(5) 0.2547(7) 0.9353(5)
C144 C 0.3944(4) 0.2552(6) 0.8942(4)
C146 C 0.3746(5) 0.2937(5) 0.8735(5)
H100 H 0.3864 0.3242 0.8825
C148 C 0.3371(5) 0.2921(6) 0.8390(6)
H102 H 0.3225 0.3208 0.8281
C150 C 0.3226(6) 0.2491(6) 0.8220(5)
C152 C 0.3404(4) 0.2064(6) 0.8462(6)
H104 H 0.3293 0.1766 0.8345
C154 C 0.3719(4) 0.2052(5) 0.8846(5)
H106 H 0.3789 0.1774 0.9027
C156 C 0.0649(6) 0.4351(5) 0.7437(8)
C158 C 0.1057(5) 0.3979(6) 0.7452(6)
C160 C 0.1263(6) 0.3804(6) 0.7039(6)
H108 H 0.1176 0.3937 0.6740
C162 C 0.1610(5) 0.3421(5) 0.7057(5)
H110 H 0.1722 0.3278 0.6770
C164 C 0.1781(6) 0.3263(5) 0.7505(6)
C166 C 0.1552(5) 0.3445(5) 0.7945(5)
H112 H 0.1649 0.3312 0.8241
C168 C 0.1219(5) 0.3785(4) 0.7951(5)
H114 H 0.1088 0.3903 0.8241
C170 C 0.2497(5) 0.2148(6) 0.7153(5)
C172 C 0.2839(6) 0.2147(6) 0.7538(7)
H116 H 0.3058 0.1888 0.7555
C174 C 0.2511(6) 0.2796(6) 0.7825(6)
H118 H 0.2524 0.3041 0.8060
C176 C 0.2148(6) 0.2854(6) 0.7541(7)
C178 C 0.2115(5) 0.2488(5) 0.7147(5)
H120 H 0.1865 0.2484 0.6917
C180 C 0.2868(5) 0.2491(6) 0.7876(7)
O26 O 0.4538(4) 0.2878(4) 0.9471(4)
O31 O 0.0510(5) 0.4528(4) 0.7074(4)
O33 O 0.2886(4) 0.0524(3) 0.5525(3)
O35 O 0.0525(3) 0.5524(3) 0.7886(4)
O38 O 0.4515(4) 0.2081(4) 0.9502(3)
O43 O 0.0534(3) 0.4491(3) 0.7902(4)
O45 O 0.2061(4) 0.0560(3) 0.5513(4)
O47 O 0.0513(4) 0.5560(3) 0.7061(4)
Cu19 Cu 0.29841(6) 0.99939(5) 0.50050(5)
C71 C 0.4544(3) 0.0500(2) 0.0037(3)
C73 C 0.4532(3) 0.1006(2) 0.0011(2)
N3 N 0.4961(3) 0.1273(2) 0.0060(3)
C75 C 0.5402(3) 0.1033(3) 0.0134(3)
H49 H 0.5688 0.1211 0.0167
C77 C 0.5414(3) 0.0527(3) 0.0161(4)
C79 C 0.4985(4) 0.0260(2) 0.0112(4)
C103 C 0.5889(11) 0.0406(9) 0.0291(7)
C105 C 0.6718(10) 0.0502(8) 0.0461(11)
H71 H 0.6700 0.0244 0.0703
H73 H 0.6872 0.0382 0.0166
C107 C 0.6938(9) 0.0924(7) 0.0640(7)
H75 H 0.7263 0.0850 0.0748
H77 H 0.6752 0.1048 0.0910
H79 H 0.6951 0.1166 0.0387
O13 O 0.4874(6) 0.0101(6) 0.1018(5)
O17 O 0.6225(8) 0.0744(7) 0.0365(9)
C1 C 0.9745(7) 0.0921(6) 0.4804(5)
H4 H 0.9894 0.0006 0.4124
C17 C 0.8953(2) 0.0449(3) 0.4931(2)
H10 H 0.8766 0.0727 0.4882
C18 C 0.9459(2) 0.0482(3) 0.4945(2)
C19 C 0.9738(2) 0.0066(3) 0.5019(2)
C20 C 0.9074(2) 0.1970(3) 0.4227(2)
H11 H 0.9151 0.2288 0.4101
H12 H 0.8785 0.1989 0.4424
H13 H 0.9019 0.1749 0.3960
C21 C 0.9469(9) 0.1798(11) 0.4516(14)
H14 H 0.9505 0.1997 0.4806
H15 H 0.9771 0.1811 0.4332
O2 O 0.9345(6) 0.1250(8) 0.4662(7)
O4 O 0.9926(6) 0.0262(4) 0.5971(5)
Cu2 Cu 0.79841(6) 0.00050(5) 0.49939(5)
C34 C 0.5637(5) 0.2557(7) 0.0661(5)
C35 C 0.6036(5) 0.2542(6) 0.1038(6)
C36 C 0.6196(6) 0.2095(6) 0.1174(6)
H26 H 0.6043 0.1820 0.1048
C37 C 0.6588(5) 0.2034(4) 0.1502(5)
H27 H 0.6740 0.1734 0.1551
C38 C 0.6727(5) 0.2443(6) 0.1739(5)
C39 C 0.6579(5) 0.2920(6) 0.1584(6)
H28 H 0.6716 0.3186 0.1744
C40 C 0.6259(5) 0.3012(6) 0.1224(6)
H29 H 0.6184 0.3321 0.1106
C41 C 0.9353(5) 0.4318(5) 0.2547(7)
C42 C 0.8942(4) 0.3944(4) 0.2552(6)
C43 C 0.8735(5) 0.3746(5) 0.2937(5)
H30 H 0.8825 0.3864 0.3242
C44 C 0.8390(6) 0.3371(5) 0.2921(6)
H31 H 0.8281 0.3225 0.3208
C45 C 0.8220(5) 0.3226(6) 0.2491(6)
C46 C 0.8462(6) 0.3404(4) 0.2064(6)
H32 H 0.8345 0.3293 0.1766
C47 C 0.8846(5) 0.3719(4) 0.2052(5)
H33 H 0.9027 0.3789 0.1774
C48 C 0.7437(8) 0.0649(6) 0.4351(5)
C49 C 0.7452(6) 0.1057(5) 0.3979(6)
C50 C 0.7039(6) 0.1263(6) 0.3804(6)
H34 H 0.6740 0.1176 0.3937
C51 C 0.7057(5) 0.1610(5) 0.3421(5)
H35 H 0.6770 0.1722 0.3278
C52 C 0.7505(6) 0.1781(6) 0.3263(5)
C53 C 0.7945(5) 0.1552(5) 0.3445(5)
H36 H 0.8241 0.1649 0.3312
C54 C 0.7951(5) 0.1219(5) 0.3785(4)
H37 H 0.8241 0.1088 0.3903
C55 C 0.7153(5) 0.2497(5) 0.2148(6)
C56 C 0.7538(7) 0.2839(6) 0.2147(6)
H38 H 0.7555 0.3058 0.1888
C57 C 0.7825(6) 0.2511(6) 0.2796(6)
H39 H 0.8060 0.2524 0.3041
C58 C 0.7541(7) 0.2148(6) 0.2854(6)
C59 C 0.7147(5) 0.2115(5) 0.2488(5)
H40 H 0.6917 0.1865 0.2484
C60 C 0.7876(7) 0.2868(5) 0.2491(6)
O7 O 0.9471(4) 0.4538(4) 0.2878(4)
O8 O 0.7074(4) 0.0510(5) 0.4528(4)
O9 O 0.5525(3) 0.2886(4) 0.0524(3)
O10 O 0.9502(3) 0.4515(4) 0.2081(4)
O11 O 0.7902(4) 0.0534(3) 0.4491(3)
O12 O 0.5513(4) 0.2061(4) 0.0560(3)
C63 C 0.4092(3) 0.1246(3) 0.9937(3)
H41 H 0.4084 0.1584 0.9919
C65 C 0.3663(3) 0.0979(5) 0.9888(3)
H43 H 0.3368 0.1139 0.9838
C67 C 0.3675(3) 0.0473(5) 0.9914(4)
H45 H 0.3388 0.0294 0.9882
C69 C 0.4116(4) 0.0233(3) 0.9989(4)
H57 H 0.5162 0.0131 0.9222
Cu21 Cu 0.99939(5) 0.50050(5) 0.29841(6)
O34 O 0.7886(4) 0.0525(3) 0.5524(3)
O46 O 0.7061(4) 0.0513(4) 0.5560(3)
C61 C 0.4804(5) 0.9745(7) 0.0921(6)
C64 C 0.9937(3) 0.4092(3) 0.1246(3)
H42 H 0.9919 0.4084 0.1584
C66 C 0.9888(3) 0.3663(3) 0.0979(5)
H44 H 0.9838 0.3368 0.1139
C68 C 0.9914(4) 0.3675(3) 0.0473(5)
H46 H 0.9882 0.3388 0.0294
C70 C 0.9989(4) 0.4116(4) 0.0233(3)
H47 H 0.4124 0.9894 0.0006
H58 H 0.9222 0.5162 0.0131
C93 C 0.4931(2) 0.8953(2) 0.0449(3)
H59 H 0.4882 0.8766 0.0727
C95 C 0.4945(2) 0.9459(2) 0.0482(3)
C97 C 0.5019(2) 0.9738(2) 0.0066(3)
C99 C 0.4227(2) 0.9074(2) 0.1970(3)
H61 H 0.4101 0.9151 0.2288
H63 H 0.4424 0.8785 0.1989
H65 H 0.3960 0.9019 0.1749
C101 C 0.4516(14) 0.9469(9) 0.1798(11)
H67 H 0.4806 0.9505 0.1997
H69 H 0.4332 0.9771 0.1811
O15 O 0.4662(7) 0.9345(6) 0.1250(8)
O19 O 0.5971(5) 0.9926(6) 0.0262(4)
Cu14 Cu 0.49939(5) 0.79841(6) 0.00050(5)
C127 C 0.0661(5) 0.5637(5) 0.2557(7)
C129 C 0.1038(6) 0.6036(5) 0.2542(6)
C131 C 0.1174(6) 0.6196(6) 0.2095(6)
H91 H 0.1048 0.6043 0.1820
C133 C 0.1502(5) 0.6588(5) 0.2034(4)
H93 H 0.1551 0.6740 0.1734
C135 C 0.1739(5) 0.6727(5) 0.2443(6)
C137 C 0.1584(6) 0.6579(5) 0.2920(6)
H95 H 0.1744 0.6716 0.3186
C139 C 0.1224(6) 0.6259(5) 0.3012(6)
H97 H 0.1106 0.6184 0.3321
C141 C 0.2547(7) 0.9353(5) 0.4318(5)
C143 C 0.2552(6) 0.8942(4) 0.3944(4)
C145 C 0.2937(5) 0.8735(5) 0.3746(5)
H99 H 0.3242 0.8825 0.3864
C147 C 0.2921(6) 0.8390(6) 0.3371(5)
H101 H 0.3208 0.8281 0.3225
C149 C 0.2491(6) 0.8220(5) 0.3226(6)
C151 C 0.2064(6) 0.8462(6) 0.3404(4)
H103 H 0.1766 0.8345 0.3293
C153 C 0.2052(5) 0.8846(5) 0.3719(4)
H105 H 0.1774 0.9027 0.3789
C155 C 0.4351(5) 0.7437(8) 0.0649(6)
C157 C 0.3979(6) 0.7452(6) 0.1057(5)
C159 C 0.3804(6) 0.7039(6) 0.1263(6)
H107 H 0.3937 0.6740 0.1176
C161 C 0.3421(5) 0.7057(5) 0.1610(5)
H109 H 0.3278 0.6770 0.1722
C163 C 0.3263(5) 0.7505(6) 0.1781(6)
C165 C 0.3445(5) 0.7945(5) 0.1552(5)
H111 H 0.3312 0.8241 0.1649
C167 C 0.3785(4) 0.7951(5) 0.1219(5)
H113 H 0.3903 0.8241 0.1088
C169 C 0.2148(6) 0.7153(5) 0.2497(5)
C171 C 0.2147(6) 0.7538(7) 0.2839(6)
H115 H 0.1888 0.7555 0.3058
C173 C 0.2796(6) 0.7825(6) 0.2511(6)
H117 H 0.3041 0.8060 0.2524
C175 C 0.2854(6) 0.7541(7) 0.2148(6)
C177 C 0.2488(5) 0.7147(5) 0.2115(5)
H119 H 0.2484 0.6917 0.1865
C179 C 0.2491(6) 0.7876(7) 0.2868(5)
O25 O 0.2878(4) 0.9471(4) 0.4538(4)
O30 O 0.4528(4) 0.7074(4) 0.0510(5)
O32 O 0.0524(3) 0.5525(3) 0.2886(4)
O36 O 0.5524(3) 0.7886(4) 0.0525(3)
O37 O 0.2081(4) 0.9502(3) 0.4515(4)
O42 O 0.4491(3) 0.7902(4) 0.0534(3)
O44 O 0.0560(3) 0.5513(4) 0.2061(4)
O48 O 0.5560(3) 0.7061(4) 0.0513(4)
C11 C 0.8781(2) 0.9133(3) 0.5127(2)
H6 H 0.8442 0.9110 0.5118
C12 C 0.9061(2) 0.8716(3) 0.5201(2)
H7 H 0.8909 0.8415 0.5242
C13 C 0.9566(2) 0.8750(3) 0.5214(2)
H8 H 0.9754 0.8471 0.5264
C14 C 0.9792(2) 0.9200(3) 0.5154(2)
C15 C 0.9513(2) 0.9616(3) 0.5079(2)
C16 C 0.9007(2) 0.9583(3) 0.5066(2)
N2 N 0.8727(2) 0.9999(3) 0.4992(2)
Cu1 Cu 0.70234(6) 0.99957(5) 0.50046(6)
C25 C 0.7149(6) 0.7837(6) 0.7470(7)
H21 H 0.6864 0.8004 0.7397
C26 C 0.7544(7) 0.7877(6) 0.7177(6)
C27 C 0.7428(8) 0.9379(5) 0.5664(5)
C28 C 0.7477(6) 0.8944(5) 0.6009(5)
C29 C 0.7084(6) 0.8747(6) 0.6223(6)
H22 H 0.6779 0.8854 0.6119
C30 C 0.7097(5) 0.8397(6) 0.6586(6)
H23 H 0.6807 0.8261 0.6699
C31 C 0.7525(6) 0.8251(4) 0.6779(6)
C32 C 0.7953(5) 0.8464(4) 0.6551(5)
H24 H 0.8252 0.8349 0.6663
C33 C 0.7972(5) 0.8795(4) 0.6210(4)
H25 H 0.8263 0.8929 0.6099
O5 O 0.7073(4) 0.9505(4) 0.5472(4)
O6 O 0.7891(4) 0.9491(3) 0.5502(4)
N5 N 0.5060(3) 0.6273(2) 0.9961(3)
N6 N 0.6273(2) 0.9961(3) 0.5060(3)
N7 N 0.9961(3) 0.5060(3) 0.6273(2)
C81 C 0.5127(2) 0.8781(2) 0.9133(3)
C82 C 0.9133(3) 0.5127(2) 0.8781(2)
H51 H 0.5118 0.8442 0.9110
H52 H 0.9110 0.5118 0.8442
C83 C 0.5201(2) 0.9061(2) 0.8716(3)
C84 C 0.8716(3) 0.5201(2) 0.9061(2)
H53 H 0.5242 0.8909 0.8415
H54 H 0.8415 0.5242 0.8909
C85 C 0.5214(2) 0.9566(2) 0.8750(3)
C86 C 0.8750(3) 0.5214(2) 0.9566(2)
H55 H 0.5264 0.9754 0.8471
H56 H 0.8471 0.5264 0.9754
C87 C 0.5154(2) 0.9792(2) 0.9200(3)
C88 C 0.9200(3) 0.5154(2) 0.9792(2)
C89 C 0.5079(2) 0.9513(2) 0.9616(3)
C90 C 0.9616(3) 0.5079(2) 0.9513(2)
C91 C 0.5066(2) 0.9007(2) 0.9583(3)
C92 C 0.9583(3) 0.5066(2) 0.9007(2)
N8 N 0.4992(2) 0.8727(2) 0.9999(3)
N9 N 0.9999(3) 0.4992(2) 0.8727(2)
Cu3 Cu 0.50046(6) 0.70234(6) 0.99957(5)
Cu4 Cu 0.99957(5) 0.50046(6) 0.70234(6)
C109 C 0.7470(7) 0.7149(6) 0.7837(6)
C110 C 0.7837(6) 0.7470(7) 0.7149(6)
H81 H 0.7397 0.6864 0.8004
H82 H 0.8004 0.7397 0.6864
C111 C 0.7177(6) 0.7544(7) 0.7877(6)
C112 C 0.7877(6) 0.7177(6) 0.7544(7)
C113 C 0.5664(5) 0.7428(8) 0.9379(5)
C114 C 0.9379(5) 0.5664(5) 0.7428(8)
C115 C 0.6009(5) 0.7477(6) 0.8944(5)
C116 C 0.8944(5) 0.6009(5) 0.7477(6)
C117 C 0.6223(6) 0.7084(6) 0.8747(6)
C118 C 0.8747(6) 0.6223(6) 0.7084(6)
H83 H 0.6119 0.6779 0.8854
H84 H 0.8854 0.6119 0.6779
C119 C 0.6586(6) 0.7097(5) 0.8397(6)
C120 C 0.8397(6) 0.6586(6) 0.7097(5)
H85 H 0.6699 0.6807 0.8261
H86 H 0.8261 0.6699 0.6807
C121 C 0.6779(6) 0.7525(6) 0.8251(4)
C122 C 0.8251(4) 0.6779(6) 0.7525(6)
C123 C 0.6551(5) 0.7953(5) 0.8464(4)
C124 C 0.8464(4) 0.6551(5) 0.7953(5)
H87 H 0.6663 0.8252 0.8349
H88 H 0.8349 0.6663 0.8252
C125 C 0.6210(4) 0.7972(5) 0.8795(4)
C126 C 0.8795(4) 0.6210(4) 0.7972(5)
H89 H 0.6099 0.8263 0.8929
H90 H 0.8929 0.6099 0.8263
O21 O 0.5472(4) 0.7073(4) 0.9505(4)
O22 O 0.9505(4) 0.5472(4) 0.7073(4)
O23 O 0.5502(4) 0.7891(4) 0.9491(3)
O24 O 0.9491(3) 0.5502(4) 0.7891(4)
O27 O 0.9538(4) 0.4471(4) 0.7878(4)
O28 O 0.4471(4) 0.7878(4) 0.9538(4)
O29 O 0.7878(4) 0.9538(4) 0.4471(4)
O39 O 0.9515(4) 0.4502(3) 0.7081(4)
O40 O 0.4502(3) 0.7081(4) 0.9515(4)
O41 O 0.7081(4) 0.9515(4) 0.4502(3)
C8_2 C 0.5134(3) 0.6033(3) 0.0402(3)
H5_2 H 0.5167 0.6211 0.0688
C9_2 C 0.5161(4) 0.5527(3) 0.0414(3)
C11_2 C 0.4133(3) 0.3781(2) 0.0127(2)
H6_2 H 0.4110 0.3442 0.0118
C12_2 C 0.3716(3) 0.4061(2) 0.0201(2)
H7_2 H 0.3415 0.3909 0.0242
C13_2 C 0.3750(3) 0.4566(2) 0.0214(2)
H8_2 H 0.3471 0.4754 0.0264
C14_2 C 0.4200(3) 0.4792(2) 0.0154(2)
H9_2 H 0.4222 0.5131 0.0162
C15_2 C 0.4616(3) 0.4513(2) 0.0079(2)
C16_2 C 0.4583(3) 0.4007(2) 0.0066(2)
C19_2 C 0.5066(3) 0.4738(2) 0.0019(2)
C22_2 C 0.5291(7) 0.5406(9) 0.0889(11)
C23_2 C 0.5461(11) 0.5502(8) 0.1718(10)
H16_2 H 0.5703 0.5244 0.1700
H17_2 H 0.5166 0.5382 0.1872
C24_2 C 0.5640(7) 0.5924(7) 0.1938(9)
H18_2 H 0.5748 0.5850 0.2263
H19_2 H 0.5910 0.6048 0.1752
H20_2 H 0.5387 0.6166 0.1951
O3_2 O 0.5365(9) 0.5744(7) 0.1225(8)
O4_2 O 0.5262(4) 0.4926(6) 0.0971(5)
C25_2 C 0.2837(6) 0.2149(6) 0.2470(7)
H21_2 H 0.3004 0.1864 0.2397
C26_2 C 0.2877(6) 0.2544(7) 0.2177(6)
C27_2 C 0.4379(5) 0.2428(8) 0.0664(5)
C28_2 C 0.3944(5) 0.2477(6) 0.1009(5)
C29_2 C 0.3747(6) 0.2084(6) 0.1223(6)
H22_2 H 0.3854 0.1779 0.1119
C30_2 C 0.3397(6) 0.2097(5) 0.1586(6)
H23_2 H 0.3261 0.1807 0.1699
C31_2 C 0.3251(4) 0.2525(6) 0.1779(6)
C32_2 C 0.3464(4) 0.2953(5) 0.1551(5)
H24_2 H 0.3349 0.3252 0.1663
C33_2 C 0.3795(4) 0.2972(5) 0.1210(4)
H25_2 H 0.3929 0.3263 0.1099
O5_2 O 0.4505(4) 0.2073(4) 0.0472(4)
O6_2 O 0.4491(3) 0.2891(4) 0.0502(4)
C75_2 C 0.6033(3) 0.0402(3) 0.5134(3)
C76_2 C 0.0402(3) 0.5134(3) 0.6033(3)
H49_2 H 0.6211 0.0688 0.5167
H50_2 H 0.0688 0.5167 0.6211
C77_2 C 0.5527(3) 0.0414(3) 0.5161(4)
C78_2 C 0.0414(3) 0.5161(4) 0.5527(3)
C81_2 C 0.3781(2) 0.0127(2) 0.4133(3)
C82_2 C 0.0127(2) 0.4133(3) 0.3781(2)
H51_2 H 0.3442 0.0118 0.4110
H52_2 H 0.0118 0.4110 0.3442
C83_2 C 0.4061(2) 0.0201(2) 0.3716(3)
C84_2 C 0.0201(2) 0.3716(3) 0.4061(2)
H53_2 H 0.3909 0.0242 0.3415
H54_2 H 0.0242 0.3415 0.3909
C85_2 C 0.4566(2) 0.0214(2) 0.3750(3)
C86_2 C 0.0214(2) 0.3750(3) 0.4566(2)
H55_2 H 0.4754 0.0264 0.3471
H56_2 H 0.0264 0.3471 0.4754
C87_2 C 0.4792(2) 0.0154(2) 0.4200(3)
C88_2 C 0.0154(2) 0.4200(3) 0.4792(2)
H57_2 H 0.5131 0.0162 0.4222
H58_2 H 0.0162 0.4222 0.5131
C89_2 C 0.4513(2) 0.0079(2) 0.4616(3)
C90_2 C 0.0079(2) 0.4616(3) 0.4513(2)
C91_2 C 0.4007(2) 0.0066(2) 0.4583(3)
C92_2 C 0.0066(2) 0.4583(3) 0.4007(2)
C97_2 C 0.4738(2) 0.0019(2) 0.5066(3)
C98_2 C 0.0019(2) 0.5066(3) 0.4738(2)
C103_2 C 0.5406(9) 0.0889(11) 0.5291(7)
C104_2 C 0.0889(11) 0.5291(7) 0.5406(9)
C105_2 C 0.5502(8) 0.1718(10) 0.5461(11)
C106_2 C 0.1718(10) 0.5461(11) 0.5502(8)
H71_2 H 0.5244 0.1700 0.5703
H72_2 H 0.1700 0.5703 0.5244
H73_2 H 0.5382 0.1872 0.5166
H74_2 H 0.1872 0.5166 0.5382
C107_2 C 0.5924(7) 0.1938(9) 0.5640(7)
C108_2 C 0.1938(9) 0.5640(7) 0.5924(7)
H75_2 H 0.5850 0.2263 0.5748
H76_2 H 0.2263 0.5748 0.5850
H77_2 H 0.6048 0.1752 0.5910
H78_2 H 0.1752 0.5910 0.6048
H79_2 H 0.6166 0.1951 0.5387
H80_2 H 0.1951 0.5387 0.6166
O17_2 O 0.5744(7) 0.1225(8) 0.5365(9)
O18_2 O 0.1225(8) 0.5365(9) 0.5744(7)
O19_2 O 0.4926(6) 0.0971(5) 0.5262(4)
O20_2 O 0.0971(5) 0.5262(4) 0.4926(6)
C109_2 C 0.2149(6) 0.2470(7) 0.2837(6)
C110_2 C 0.2470(7) 0.2837(6) 0.2149(6)
H81_2 H 0.1864 0.2397 0.3004
H82_2 H 0.2397 0.3004 0.1864
C111_2 C 0.2544(7) 0.2177(6) 0.2877(6)
C112_2 C 0.2177(6) 0.2877(6) 0.2544(7)
C113_2 C 0.2428(8) 0.0664(5) 0.4379(5)
C114_2 C 0.0664(5) 0.4379(5) 0.2428(8)
C115_2 C 0.2477(6) 0.1009(5) 0.3944(5)
C116_2 C 0.1009(5) 0.3944(5) 0.2477(6)
C117_2 C 0.2084(6) 0.1223(6) 0.3747(6)
C118_2 C 0.1223(6) 0.3747(6) 0.2084(6)
H83_2 H 0.1779 0.1119 0.3854
H84_2 H 0.1119 0.3854 0.1779
C119_2 C 0.2097(5) 0.1586(6) 0.3397(6)
C120_2 C 0.1586(6) 0.3397(6) 0.2097(5)
H85_2 H 0.1807 0.1699 0.3261
H86_2 H 0.1699 0.3261 0.1807
C121_2 C 0.2525(6) 0.1779(6) 0.3251(4)
C122_2 C 0.1779(6) 0.3251(4) 0.2525(6)
C123_2 C 0.2953(5) 0.1551(5) 0.3464(4)
C124_2 C 0.1551(5) 0.3464(4) 0.2953(5)
H87_2 H 0.3252 0.1663 0.3349
H88_2 H 0.1663 0.3349 0.3252
C125_2 C 0.2972(5) 0.1210(4) 0.3795(4)
C126_2 C 0.1210(4) 0.3795(4) 0.2972(5)
H89_2 H 0.3263 0.1099 0.3929
H90_2 H 0.1099 0.3929 0.3263
O21_2 O 0.2073(4) 0.0472(4) 0.4505(4)
O22_2 O 0.0472(4) 0.4505(4) 0.2073(4)
O23_2 O 0.2891(4) 0.0502(4) 0.4491(3)
O24_2 O 0.0502(4) 0.4491(3) 0.2891(4)
C1_2 C 0.5921(6) 0.4745(7) 0.9804(5)
C2_2 C 0.4937(3) 0.6246(3) 0.9092(3)
H1_2 H 0.4919 0.6584 0.9084
C3_2 C 0.4888(3) 0.5979(5) 0.8663(3)
H2_2 H 0.4838 0.6139 0.8368
C4_2 C 0.4914(4) 0.5473(5) 0.8675(3)
H3_2 H 0.4882 0.5294 0.8388
C5_2 C 0.4989(4) 0.5233(3) 0.9116(4)
H4_2 H 0.5006 0.4894 0.9124
C6_2 C 0.5037(3) 0.5500(2) 0.9544(3)
C7_2 C 0.5011(2) 0.6006(2) 0.9532(3)
C10_2 C 0.5112(4) 0.5260(2) 0.9985(4)
N2_2 N 0.4999(3) 0.3727(2) 0.9992(2)
C17_2 C 0.5449(3) 0.3953(2) 0.9931(2)
H10_2 H 0.5727 0.3766 0.9882
C18_2 C 0.5482(3) 0.4459(2) 0.9945(2)
C20_2 C 0.6970(3) 0.4074(2) 0.9227(2)
H11_2 H 0.7288 0.4151 0.9101
H12_2 H 0.6989 0.3785 0.9424
H13_2 H 0.6749 0.4019 0.8960
C21_2 C 0.6798(11) 0.4469(9) 0.9516(14)
H14_2 H 0.6997 0.4505 0.9806
H15_2 H 0.6811 0.4771 0.9332
O1_2 O 0.6018(5) 0.5101(6) 0.9874(6)
O2_2 O 0.6250(8) 0.4345(6) 0.9662(7)
C34_2 C 0.7557(7) 0.0637(5) 0.5661(5)
C35_2 C 0.7542(6) 0.1036(5) 0.6038(6)
C36_2 C 0.7095(6) 0.1196(6) 0.6174(6)
H26_2 H 0.6820 0.1043 0.6048
C37_2 C 0.7034(4) 0.1588(5) 0.6502(5)
H27_2 H 0.6734 0.1740 0.6551
C38_2 C 0.7443(6) 0.1727(5) 0.6739(5)
C39_2 C 0.7920(6) 0.1579(5) 0.6584(6)
H28_2 H 0.8186 0.1716 0.6744
C40_2 C 0.8012(6) 0.1259(5) 0.6224(6)
H29_2 H 0.8321 0.1184 0.6106
C41_2 C 0.9318(5) 0.4353(5) 0.7547(7)
C42_2 C 0.8944(4) 0.3942(4) 0.7552(6)
C43_2 C 0.8746(5) 0.3735(5) 0.7937(5)
H30_2 H 0.8864 0.3825 0.8242
C44_2 C 0.8371(5) 0.3390(6) 0.7921(6)
H31_2 H 0.8225 0.3281 0.8208
C45_2 C 0.8226(6) 0.3220(5) 0.7491(6)
C46_2 C 0.8404(4) 0.3462(6) 0.7064(6)
H32_2 H 0.8293 0.3345 0.6766
C47_2 C 0.8719(4) 0.3846(5) 0.7052(5)
H33_2 H 0.8789 0.4027 0.6774
C48_2 C 0.5649(6) 0.2437(8) 0.9351(5)
C49_2 C 0.6057(5) 0.2452(6) 0.8979(6)
C50_2 C 0.6263(6) 0.2039(6) 0.8804(6)
H34_2 H 0.6176 0.1740 0.8937
C51_2 C 0.6610(5) 0.2057(5) 0.8421(5)
H35_2 H 0.6722 0.1770 0.8278
C52_2 C 0.6781(6) 0.2505(6) 0.8263(5)
C53_2 C 0.6552(5) 0.2945(5) 0.8445(5)
H36_2 H 0.6649 0.3241 0.8312
C54_2 C 0.6219(5) 0.2951(5) 0.8785(4)
H37_2 H 0.6088 0.3241 0.8903
C55_2 C 0.7497(5) 0.2153(5) 0.7148(6)
C56_2 C 0.7839(6) 0.2538(7) 0.7147(6)
H38_2 H 0.8058 0.2555 0.6888
C57_2 C 0.7511(6) 0.2825(6) 0.7796(6)
H39_2 H 0.7524 0.3060 0.8041
C58_2 C 0.7148(6) 0.2541(7) 0.7854(6)
C59_2 C 0.7115(5) 0.2147(5) 0.7488(5)
H40_2 H 0.6865 0.1917 0.7484
C60_2 C 0.7868(5) 0.2876(7) 0.7491(6)
O8_2 O 0.5510(5) 0.2074(4) 0.9528(4)
O11_2 O 0.5534(3) 0.2902(4) 0.9491(3)
C61_2 C 0.4745(7) 0.9804(5) 0.5921(6)
C63_2 C 0.6246(3) 0.9092(3) 0.4937(3)
H41_2 H 0.6584 0.9084 0.4919
C65_2 C 0.5979(5) 0.8663(3) 0.4888(3)
H43_2 H 0.6139 0.8368 0.4838
C67_2 C 0.5473(5) 0.8675(3) 0.4914(4)
H45_2 H 0.5294 0.8388 0.4882
C69_2 C 0.5233(3) 0.9116(4) 0.4989(4)
H47_2 H 0.4894 0.9124 0.5006
C71_2 C 0.5500(2) 0.9544(3) 0.5037(3)
C73_2 C 0.6006(2) 0.9532(3) 0.5011(2)
C79_2 C 0.5260(2) 0.9985(4) 0.5112(4)
N8_2 N 0.3727(2) 0.9992(2) 0.4999(3)
C93_2 C 0.3953(2) 0.9931(2) 0.5449(3)
H59_2 H 0.3766 0.9882 0.5727
C95_2 C 0.4459(2) 0.9945(2) 0.5482(3)
C99_2 C 0.4074(2) 0.9227(2) 0.6970(3)
H61_2 H 0.4151 0.9101 0.7288
H63_2 H 0.3785 0.9424 0.6989
H65_2 H 0.4019 0.8960 0.6749
C101_2 C 0.4469(9) 0.9516(14) 0.6798(11)
H67_2 H 0.4505 0.9806 0.6997
H69_2 H 0.4771 0.9332 0.6811
O13_2 O 0.5101(6) 0.9874(6) 0.6018(5)
O15_2 O 0.4345(6) 0.9662(7) 0.6250(8)
C127_2 C 0.0637(5) 0.5661(5) 0.7557(7)
C129_2 C 0.1036(5) 0.6038(6) 0.7542(6)
C131_2 C 0.1196(6) 0.6174(6) 0.7095(6)
H91_2 H 0.1043 0.6048 0.6820
C133_2 C 0.1588(5) 0.6502(5) 0.7034(4)
H93_2 H 0.1740 0.6551 0.6734
C135_2 C 0.1727(5) 0.6739(5) 0.7443(6)
C137_2 C 0.1579(5) 0.6584(6) 0.7920(6)
H95_2 H 0.1716 0.6744 0.8186
C139_2 C 0.1259(5) 0.6224(6) 0.8012(6)
H97_2 H 0.1184 0.6106 0.8321
C141_2 C 0.4353(5) 0.7547(7) 0.9318(5)
C143_2 C 0.3942(4) 0.7552(6) 0.8944(4)
C145_2 C 0.3735(5) 0.7937(5) 0.8746(5)
H99_2 H 0.3825 0.8242 0.8864
C147_2 C 0.3390(6) 0.7921(6) 0.8371(5)
H101_2 H 0.3281 0.8208 0.8225
C149_2 C 0.3220(5) 0.7491(6) 0.8226(6)
C151_2 C 0.3462(6) 0.7064(6) 0.8404(4)
H103_2 H 0.3345 0.6766 0.8293
C153_2 C 0.3846(5) 0.7052(5) 0.8719(4)
H105_2 H 0.4027 0.6774 0.8789
C155_2 C 0.2437(8) 0.9351(5) 0.5649(6)
C157_2 C 0.2452(6) 0.8979(6) 0.6057(5)
C159_2 C 0.2039(6) 0.8804(6) 0.6263(6)
H107_2 H 0.1740 0.8937 0.6176
C161_2 C 0.2057(5) 0.8421(5) 0.6610(5)
H109_2 H 0.1770 0.8278 0.6722
C163_2 C 0.2505(6) 0.8263(5) 0.6781(6)
C165_2 C 0.2945(5) 0.8445(5) 0.6552(5)
H111_2 H 0.3241 0.8312 0.6649
C167_2 C 0.2951(5) 0.8785(4) 0.6219(5)
H113_2 H 0.3241 0.8903 0.6088
C169_2 C 0.2153(5) 0.7148(6) 0.7497(5)
C171_2 C 0.2538(7) 0.7147(6) 0.7839(6)
H115_2 H 0.2555 0.6888 0.8058
C173_2 C 0.2825(6) 0.7796(6) 0.7511(6)
H117_2 H 0.3060 0.8041 0.7524
C175_2 C 0.2541(7) 0.7854(6) 0.7148(6)
C177_2 C 0.2147(5) 0.7488(5) 0.7115(5)
H119_2 H 0.1917 0.7484 0.6865
C179_2 C 0.2876(7) 0.7491(6) 0.7868(5)
O30_2 O 0.2074(4) 0.9528(4) 0.5510(5)
O42_2 O 0.2902(4) 0.9491(3) 0.5534(3)
C62_2 C 0.9804(5) 0.5921(6) 0.4745(7)
C64_2 C 0.9092(3) 0.4937(3) 0.6246(3)
H42_2 H 0.9084 0.4919 0.6584
C66_2 C 0.8663(3) 0.4888(3) 0.5979(5)
H44_2 H 0.8368 0.4838 0.6139
C68_2 C 0.8675(3) 0.4914(4) 0.5473(5)
H46_2 H 0.8388 0.4882 0.5294
C70_2 C 0.9116(4) 0.4989(4) 0.5233(3)
H48_2 H 0.9124 0.5006 0.4894
C72_2 C 0.9544(3) 0.5037(3) 0.5500(2)
C74_2 C 0.9532(3) 0.5011(2) 0.6006(2)
C80_2 C 0.9985(4) 0.5112(4) 0.5260(2)
N9_2 N 0.9992(2) 0.4999(3) 0.3727(2)
C94_2 C 0.9931(2) 0.5449(3) 0.3953(2)
H60_2 H 0.9882 0.5727 0.3766
C96_2 C 0.9945(2) 0.5482(3) 0.4459(2)
C100_2 C 0.9227(2) 0.6970(3) 0.4074(2)
H62_2 H 0.9101 0.7288 0.4151
H64_2 H 0.9424 0.6989 0.3785
H66_2 H 0.8960 0.6749 0.4019
C102_2 C 0.9516(14) 0.6798(11) 0.4469(9)
H68_2 H 0.9806 0.6997 0.4505
H70_2 H 0.9332 0.6811 0.4771
O14_2 O 0.9874(6) 0.6018(5) 0.5101(6)
O16_2 O 0.9662(7) 0.6250(8) 0.4345(6)
C128_2 C 0.5661(5) 0.7557(7) 0.0637(5)
C130_2 C 0.6038(6) 0.7542(6) 0.1036(5)
C132_2 C 0.6174(6) 0.7095(6) 0.1196(6)
H92_2 H 0.6048 0.6820 0.1043
C134_2 C 0.6502(5) 0.7034(4) 0.1588(5)
H94_2 H 0.6551 0.6734 0.1740
C136_2 C 0.6739(5) 0.7443(6) 0.1727(5)
C138_2 C 0.6584(6) 0.7920(6) 0.1579(5)
H96_2 H 0.6744 0.8186 0.1716
C140_2 C 0.6224(6) 0.8012(6) 0.1259(5)
H98_2 H 0.6106 0.8321 0.1184
C142_2 C 0.7547(7) 0.9318(5) 0.4353(5)
C144_2 C 0.7552(6) 0.8944(4) 0.3942(4)
C146_2 C 0.7937(5) 0.8746(5) 0.3735(5)
H100_2 H 0.8242 0.8864 0.3825
C148_2 C 0.7921(6) 0.8371(5) 0.3390(6)
H102_2 H 0.8208 0.8225 0.3281
C150_2 C 0.7491(6) 0.8226(6) 0.3220(5)
C152_2 C 0.7064(6) 0.8404(4) 0.3462(6)
H104_2 H 0.6766 0.8293 0.3345
C154_2 C 0.7052(5) 0.8719(4) 0.3846(5)
H106_2 H 0.6774 0.8789 0.4027
C156_2 C 0.9351(5) 0.5649(6) 0.2437(8)
C158_2 C 0.8979(6) 0.6057(5) 0.2452(6)
C160_2 C 0.8804(6) 0.6263(6) 0.2039(6)
H108_2 H 0.8937 0.6176 0.1740
C162_2 C 0.8421(5) 0.6610(5) 0.2057(5)
H110_2 H 0.8278 0.6722 0.1770
C164_2 C 0.8263(5) 0.6781(6) 0.2505(6)
C166_2 C 0.8445(5) 0.6552(5) 0.2945(5)
H112_2 H 0.8312 0.6649 0.3241
C168_2 C 0.8785(4) 0.6219(5) 0.2951(5)
H114_2 H 0.8903 0.6088 0.3241
C170_2 C 0.7148(6) 0.7497(5) 0.2153(5)
C172_2 C 0.7147(6) 0.7839(6) 0.2538(7)
H116_2 H 0.6888 0.8058 0.2555
C174_2 C 0.7796(6) 0.7511(6) 0.2825(6)
H118_2 H 0.8041 0.7524 0.3060
C176_2 C 0.7854(6) 0.7148(6) 0.2541(7)
C178_2 C 0.7488(5) 0.7115(5) 0.2147(5)
H120_2 H 0.7484 0.6865 0.1917
C180_2 C 0.7491(6) 0.7868(5) 0.2876(7)
O31_2 O 0.9528(4) 0.5510(5) 0.2074(4)
O43_2 O 0.9491(3) 0.5534(3) 0.2902(4)
loop_
_geom_bond_atom_site_label_1
_geom_bond_atom_site_label_2
_geom_bond_site_symmetry_1
_geom_bond_site_symmetry_2
N1 C7 1_555 1_555
C8 N1 1_555 1_555
H5 C8 1_555 1_555
C9 C8 1_555 1_555
C10 C6 1_555 1_555
C22 C9 1_555 1_555
C23 H16 1_555 1_555
H17 C23 1_555 1_555
C24 C23 1_555 1_555
H18 C24 1_555 1_555
H19 C24 1_555 1_555
H20 C24 1_555 1_555
O3 C22 1_555 1_555
Cu10 N1 1_555 1_555
C6 C7 1_555 1_555
C9 C10 1_555 1_555
C23 O3 1_555 1_555
N4 C74 1_555 1_555
C76 N4 1_555 1_555
H50 C76 1_555 1_555
C78 C76 1_555 1_555
C80 C72 1_555 1_555
C104 C78 1_555 1_555
C106 H72 1_555 1_555
H74 C106 1_555 1_555
C108 C106 1_555 1_555
H76 C108 1_555 1_555
H78 C108 1_555 1_555
H80 C108 1_555 1_555
O18 C104 1_555 1_555
Cu13 N4 1_555 1_555
C72 C74 1_555 1_555
C78 C80 1_555 1_555
C106 O18 1_555 1_555
C2 H1 1_555 1_555
C3 C2 1_555 1_555
H2 C3 1_555 1_555
C4 C3 1_555 1_555
H3 C4 1_555 1_555
C5 C4 1_555 1_555
C62 C96 1_555 1_555
H60 C94 1_555 1_555
C96 C94 1_555 1_555
C100 H62 1_555 1_555
H64 C100 1_555 1_555
H66 C100 1_555 1_555
C102 C100 1_555 1_555
H68 C102 1_555 1_555
H70 C102 1_555 1_555
O16 C62 1_555 1_555
Cu17 O26 1_555 1_555
C128 C130 1_555 1_555
C130 C132 1_555 1_555
C132 H92 1_555 1_555
C134 C132 1_555 1_555
H94 C134 1_555 1_555
C136 C134 1_555 1_555
C138 C136 1_555 1_555
H96 C138 1_555 1_555
C140 C130 1_555 1_555
H98 C140 1_555 1_555
C142 C144 1_555 1_555
C144 C146 1_555 1_555
C146 H100 1_555 1_555
C148 C146 1_555 1_555
H102 C148 1_555 1_555
C150 C148 1_555 1_555
C152 C150 1_555 1_555
H104 C152 1_555 1_555
C154 C144 1_555 1_555
H106 C154 1_555 1_555
C156 C158 1_555 1_555
C158 C160 1_555 1_555
C160 H108 1_555 1_555
C162 C160 1_555 1_555
H110 C162 1_555 1_555
C164 C162 1_555 1_555
C166 C164 1_555 1_555
H112 C166 1_555 1_555
C168 C158 1_555 1_555
H114 C168 1_555 1_555
C170 C136 1_555 1_555
C172 C170 1_555 1_555
H116 C172 1_555 1_555
C174 H118 1_555 1_555
C176 C164 1_555 1_555
C178 C170 1_555 1_555
H120 C178 1_555 1_555
C180 C150 1_555 1_555
O26 C142 1_555 1_555
O33 C128 1_555 1_555
O35 Cu15 1_555 1_555
O43 Cu15 1_555 1_555
O45 Cu10 1_555 1_555
C96 C98 1_555 1_555
C102 O16 1_555 1_555
C128 O45 1_555 1_555
C138 C140 1_555 1_555
C142 O38 1_555 1_555
C152 C154 1_555 1_555
C156 O31 1_555 1_555
C156 O43 1_555 1_555
C166 C168 1_555 1_555
C172 C180 1_555 1_555
C174 C176 1_555 1_555
C174 C180 1_555 1_555
C176 C178 1_555 1_555
N3 C73 1_555 1_555
C75 N3 1_555 1_555
H49 C75 1_555 1_555
C77 C75 1_555 1_555
C79 C71 1_555 1_555
C103 C77 1_555 1_555
C105 H71 1_555 1_555
H73 C105 1_555 1_555
C107 C105 1_555 1_555
H75 C107 1_555 1_555
H77 C107 1_555 1_555
H79 C107 1_555 1_555
O17 C103 1_555 1_555
Cu7 N3 1_555 1_555
C71 C73 1_555 1_555
C77 C79 1_555 1_555
C105 O17 1_555 1_555
C1 C18 1_555 1_555
H10 C17 1_555 1_555
C18 C17 1_555 1_555
C20 H11 1_555 1_555
H12 C20 1_555 1_555
H13 C20 1_555 1_555
C21 C20 1_555 1_555
H14 C21 1_555 1_555
H15 C21 1_555 1_555
O2 C1 1_555 1_555
C34 C35 1_555 1_555
C35 C36 1_555 1_555
C36 H26 1_555 1_555
C37 C36 1_555 1_555
H27 C37 1_555 1_555
C38 C37 1_555 1_555
C39 C38 1_555 1_555
H28 C39 1_555 1_555
C40 C35 1_555 1_555
H29 C40 1_555 1_555
C41 C42 1_555 1_555
C42 C43 1_555 1_555
C43 H30 1_555 1_555
C44 C43 1_555 1_555
H31 C44 1_555 1_555
C45 C44 1_555 1_555
C46 C45 1_555 1_555
H32 C46 1_555 1_555
C47 C42 1_555 1_555
H33 C47 1_555 1_555
C48 C49 1_555 1_555
C49 C50 1_555 1_555
C50 H34 1_555 1_555
C51 C50 1_555 1_555
H35 C51 1_555 1_555
C52 C51 1_555 1_555
C53 C52 1_555 1_555
H36 C53 1_555 1_555
C54 C49 1_555 1_555
H37 C54 1_555 1_555
C55 C38 1_555 1_555
C56 C55 1_555 1_555
H38 C56 1_555 1_555
C57 H39 1_555 1_555
C58 C52 1_555 1_555
C59 C55 1_555 1_555
H40 C59 1_555 1_555
C60 C45 1_555 1_555
O7 C41 1_555 1_555
O9 C34 1_555 1_555
O10 C41 1_555 1_555
O11 Cu2 1_555 1_555
O12 C34 1_555 1_555
C63 H41 1_555 1_555
C65 C63 1_555 1_555
H43 C65 1_555 1_555
C67 C65 1_555 1_555
H45 C67 1_555 1_555
C69 C67 1_555 1_555
Cu7 O12 1_555 1_555
Cu21 O7 1_555 1_555
O34 Cu2 1_555 1_555
C18 C19 1_555 1_555
C21 O2 1_555 1_555
C39 C40 1_555 1_555
C46 C47 1_555 1_555
C48 O8 1_555 1_555
C48 O11 1_555 1_555
C53 C54 1_555 1_555
C56 C60 1_555 1_555
C57 C58 1_555 1_555
C57 C60 1_555 1_555
C58 C59 1_555 1_555
C61 C95 1_555 1_555
C64 H42 1_555 1_555
C66 C64 1_555 1_555
H44 C66 1_555 1_555
C68 C66 1_555 1_555
H46 C68 1_555 1_555
C70 C68 1_555 1_555
H59 C93 1_555 1_555
C95 C93 1_555 1_555
C99 H61 1_555 1_555
H63 C99 1_555 1_555
H65 C99 1_555 1_555
C101 C99 1_555 1_555
H67 C101 1_555 1_555
H69 C101 1_555 1_555
O15 C61 1_555 1_555
Cu19 O25 1_555 1_555
C127 C129 1_555 1_555
C129 C131 1_555 1_555
C131 H91 1_555 1_555
C133 C131 1_555 1_555
H93 C133 1_555 1_555
C135 C133 1_555 1_555
C137 C135 1_555 1_555
H95 C137 1_555 1_555
C139 C129 1_555 1_555
H97 C139 1_555 1_555
C141 C143 1_555 1_555
C143 C145 1_555 1_555
C145 H99 1_555 1_555
C147 C145 1_555 1_555
H101 C147 1_555 1_555
C149 C147 1_555 1_555
C151 C149 1_555 1_555
H103 C151 1_555 1_555
C153 C143 1_555 1_555
H105 C153 1_555 1_555
C155 C157 1_555 1_555
C157 C159 1_555 1_555
C159 H107 1_555 1_555
C161 C159 1_555 1_555
H109 C161 1_555 1_555
C163 C161 1_555 1_555
C165 C163 1_555 1_555
H111 C165 1_555 1_555
C167 C157 1_555 1_555
H113 C167 1_555 1_555
C169 C135 1_555 1_555
C171 C169 1_555 1_555
H115 C171 1_555 1_555
C173 H117 1_555 1_555
C175 C163 1_555 1_555
C177 C169 1_555 1_555
H119 C177 1_555 1_555
C179 C149 1_555 1_555
O25 C141 1_555 1_555
O32 C127 1_555 1_555
O36 Cu14 1_555 1_555
O42 Cu14 1_555 1_555
O44 Cu13 1_555 1_555
C95 C97 1_555 1_555
C101 O15 1_555 1_555
C127 O44 1_555 1_555
C137 C139 1_555 1_555
C141 O37 1_555 1_555
C151 C153 1_555 1_555
C155 O30 1_555 1_555
C155 O42 1_555 1_555
C165 C167 1_555 1_555
C171 C179 1_555 1_555
C173 C175 1_555 1_555
C173 C179 1_555 1_555
C175 C177 1_555 1_555
C11 H6 1_555 1_555
C12 C11 1_555 1_555
H7 C12 1_555 1_555
C13 C12 1_555 1_555
H8 C13 1_555 1_555
C14 C13 1_555 1_555
C15 C14 1_555 1_555
C16 C11 1_555 1_555
N2 C16 1_555 1_555
C25 H21 1_555 1_555
C26 C25 1_555 1_555
C27 C28 1_555 1_555
C28 C29 1_555 1_555
C29 H22 1_555 1_555
C30 C29 1_555 1_555
H23 C30 1_555 1_555
C31 C26 1_555 1_555
C32 C31 1_555 1_555
H24 C32 1_555 1_555
C33 C28 1_555 1_555
H25 C33 1_555 1_555
O5 Cu1 1_555 1_555
N5 Cu3 1_555 1_555
N6 Cu1 1_555 1_555
N7 Cu4 1_555 1_555
C81 H51 1_555 1_555
C82 H52 1_555 1_555
C83 C81 1_555 1_555
C84 C82 1_555 1_555
H53 C83 1_555 1_555
H54 C84 1_555 1_555
C85 C83 1_555 1_555
C86 C84 1_555 1_555
H55 C85 1_555 1_555
H56 C86 1_555 1_555
C87 C85 1_555 1_555
C88 C86 1_555 1_555
C89 C87 1_555 1_555
C90 C88 1_555 1_555
C91 C81 1_555 1_555
C92 C82 1_555 1_555
N8 C91 1_555 1_555
N9 C92 1_555 1_555
C109 H81 1_555 1_555
C110 C26 1_555 1_555
H82 C110 1_555 1_555
C111 C25 1_555 1_555
C112 C109 1_555 1_555
C113 C115 1_555 1_555
C114 C116 1_555 1_555
C115 C117 1_555 1_555
C116 C118 1_555 1_555
C117 H83 1_555 1_555
C118 H84 1_555 1_555
C119 C117 1_555 1_555
C120 C118 1_555 1_555
H85 C119 1_555 1_555
H86 C120 1_555 1_555
C121 C111 1_555 1_555
C122 C112 1_555 1_555
C123 C121 1_555 1_555
C124 C122 1_555 1_555
H87 C123 1_555 1_555
H88 C124 1_555 1_555
C125 C115 1_555 1_555
C126 C116 1_555 1_555
H89 C125 1_555 1_555
H90 C126 1_555 1_555
O21 Cu3 1_555 1_555
O22 Cu4 1_555 1_555
O39 Cu4 1_555 1_555
O40 Cu3 1_555 1_555
O41 Cu1 1_555 1_555
C15 C16 1_555 1_555
C27 O5 1_555 1_555
C27 O6 1_555 1_555
C30 C31 1_555 1_555
C32 C33 1_555 1_555
C89 C91 1_555 1_555
C90 C92 1_555 1_555
C109 C111 1_555 1_555
C110 C112 1_555 1_555
C113 O21 1_555 1_555
C113 O23 1_555 1_555
C114 O22 1_555 1_555
C114 O24 1_555 1_555
C119 C121 1_555 1_555
C120 C122 1_555 1_555
C123 C125 1_555 1_555
C124 C126 1_555 1_555
H5_2 C8_2 1_555 1_555
C9_2 C8_2 1_555 1_555
C11_2 H6_2 1_555 1_555
C12_2 C11_2 1_555 1_555
H7_2 C12_2 1_555 1_555
C13_2 C12_2 1_555 1_555
H8_2 C13_2 1_555 1_555
C14_2 C13_2 1_555 1_555
H9_2 C14_2 1_555 1_555
C15_2 C14_2 1_555 1_555
C16_2 C11_2 1_555 1_555
C22_2 C9_2 1_555 1_555
C23_2 H16_2 1_555 1_555
H17_2 C23_2 1_555 1_555
C24_2 C23_2 1_555 1_555
H18_2 C24_2 1_555 1_555
H19_2 C24_2 1_555 1_555
H20_2 C24_2 1_555 1_555
O3_2 C22_2 1_555 1_555
O4_2 C22_2 1_555 1_555
C25_2 H21_2 1_555 1_555
C26_2 C25_2 1_555 1_555
C27_2 C28_2 1_555 1_555
C28_2 C29_2 1_555 1_555
C29_2 H22_2 1_555 1_555
C30_2 C29_2 1_555 1_555
H23_2 C30_2 1_555 1_555
C31_2 C26_2 1_555 1_555
C32_2 C31_2 1_555 1_555
H24_2 C32_2 1_555 1_555
C33_2 C28_2 1_555 1_555
H25_2 C33_2 1_555 1_555
O5_2 Cu7 1_555 1_555
H49_2 C75_2 1_555 1_555
H50_2 C76_2 1_555 1_555
C77_2 C75_2 1_555 1_555
C78_2 C76_2 1_555 1_555
C81_2 H51_2 1_555 1_555
C82_2 H52_2 1_555 1_555
C83_2 C81_2 1_555 1_555
C84_2 C82_2 1_555 1_555
H53_2 C83_2 1_555 1_555
H54_2 C84_2 1_555 1_555
C85_2 C83_2 1_555 1_555
C86_2 C84_2 1_555 1_555
H55_2 C85_2 1_555 1_555
H56_2 C86_2 1_555 1_555
C87_2 C85_2 1_555 1_555
C88_2 C86_2 1_555 1_555
H57_2 C87_2 1_555 1_555
H58_2 C88_2 1_555 1_555
C89_2 C87_2 1_555 1_555
C90_2 C88_2 1_555 1_555
C91_2 C81_2 1_555 1_555
C92_2 C82_2 1_555 1_555
C103_2 C77_2 1_555 1_555
C104_2 C78_2 1_555 1_555
C105_2 H71_2 1_555 1_555
C106_2 H72_2 1_555 1_555
H73_2 C105_2 1_555 1_555
H74_2 C106_2 1_555 1_555
C107_2 C105_2 1_555 1_555
C108_2 C106_2 1_555 1_555
H75_2 C107_2 1_555 1_555
H76_2 C108_2 1_555 1_555
H77_2 C107_2 1_555 1_555
H78_2 C108_2 1_555 1_555
H79_2 C107_2 1_555 1_555
H80_2 C108_2 1_555 1_555
O17_2 C103_2 1_555 1_555
O18_2 C104_2 1_555 1_555
O19_2 C103_2 1_555 1_555
O20_2 C104_2 1_555 1_555
C109_2 H81_2 1_555 1_555
C110_2 C26_2 1_555 1_555
H82_2 C110_2 1_555 1_555
C111_2 C25_2 1_555 1_555
C112_2 C109_2 1_555 1_555
C113_2 C115_2 1_555 1_555
C114_2 C116_2 1_555 1_555
C115_2 C117_2 1_555 1_555
C116_2 C118_2 1_555 1_555
C117_2 H83_2 1_555 1_555
C118_2 H84_2 1_555 1_555
C119_2 C117_2 1_555 1_555
C120_2 C118_2 1_555 1_555
H85_2 C119_2 1_555 1_555
H86_2 C120_2 1_555 1_555
C121_2 C111_2 1_555 1_555
C122_2 C112_2 1_555 1_555
C123_2 C121_2 1_555 1_555
C124_2 C122_2 1_555 1_555
H87_2 C123_2 1_555 1_555
H88_2 C124_2 1_555 1_555
C125_2 C115_2 1_555 1_555
C126_2 C116_2 1_555 1_555
H89_2 C125_2 1_555 1_555
H90_2 C126_2 1_555 1_555
O21_2 Cu10 1_555 1_555
O22_2 Cu13 1_555 1_555
C15_2 C16_2 1_555 1_555
C15_2 C19_2 1_555 1_555
C23_2 O3_2 1_555 1_555
C27_2 O5_2 1_555 1_555
C27_2 O6_2 1_555 1_555
C30_2 C31_2 1_555 1_555
C32_2 C33_2 1_555 1_555
C89_2 C91_2 1_555 1_555
C89_2 C97_2 1_555 1_555
C90_2 C92_2 1_555 1_555
C90_2 C98_2 1_555 1_555
C105_2 O17_2 1_555 1_555
C106_2 O18_2 1_555 1_555
C109_2 C111_2 1_555 1_555
C110_2 C112_2 1_555 1_555
C113_2 O21_2 1_555 1_555
C113_2 O23_2 1_555 1_555
C114_2 O22_2 1_555 1_555
C114_2 O24_2 1_555 1_555
C119_2 C121_2 1_555 1_555
C120_2 C122_2 1_555 1_555
C123_2 C125_2 1_555 1_555
C124_2 C126_2 1_555 1_555
C1_2 C18_2 1_555 1_555
C2_2 H1_2 1_555 1_555
C3_2 C2_2 1_555 1_555
H2_2 C3_2 1_555 1_555
C4_2 C3_2 1_555 1_555
H3_2 C4_2 1_555 1_555
C5_2 C4_2 1_555 1_555
H4_2 C5_2 1_555 1_555
C6_2 C5_2 1_555 1_555
C7_2 C2_2 1_555 1_555
N5 C7_2 1_555 1_555
C10_2 C6_2 1_555 1_555
C17_2 N2_2 1_555 1_555
H10_2 C17_2 1_555 1_555
C18_2 C17_2 1_555 1_555
C20_2 H11_2 1_555 1_555
H12_2 C20_2 1_555 1_555
H13_2 C20_2 1_555 1_555
C21_2 C20_2 1_555 1_555
H14_2 C21_2 1_555 1_555
H15_2 C21_2 1_555 1_555
O1_2 C1_2 1_555 1_555
O2_2 C1_2 1_555 1_555
Cu17 N2_2 1_555 1_555
C34_2 C35_2 1_555 1_555
C35_2 C36_2 1_555 1_555
C36_2 H26_2 1_555 1_555
C37_2 C36_2 1_555 1_555
H27_2 C37_2 1_555 1_555
C38_2 C37_2 1_555 1_555
C39_2 C38_2 1_555 1_555
H28_2 C39_2 1_555 1_555
C40_2 C35_2 1_555 1_555
H29_2 C40_2 1_555 1_555
C41_2 C42_2 1_555 1_555
C42_2 C43_2 1_555 1_555
C43_2 H30_2 1_555 1_555
C44_2 C43_2 1_555 1_555
H31_2 C44_2 1_555 1_555
C45_2 C44_2 1_555 1_555
C46_2 C45_2 1_555 1_555
H32_2 C46_2 1_555 1_555
C47_2 C42_2 1_555 1_555
H33_2 C47_2 1_555 1_555
C48_2 C49_2 1_555 1_555
C49_2 C50_2 1_555 1_555
C50_2 H34_2 1_555 1_555
C51_2 C50_2 1_555 1_555
H35_2 C51_2 1_555 1_555
C52_2 C51_2 1_555 1_555
C53_2 C52_2 1_555 1_555
H36_2 C53_2 1_555 1_555
C54_2 C49_2 1_555 1_555
H37_2 C54_2 1_555 1_555
C55_2 C38_2 1_555 1_555
C56_2 C55_2 1_555 1_555
H38_2 C56_2 1_555 1_555
C57_2 H39_2 1_555 1_555
C58_2 C52_2 1_555 1_555
C59_2 C55_2 1_555 1_555
H40_2 C59_2 1_555 1_555
C60_2 C45_2 1_555 1_555
O27 C41_2 1_555 1_555
O34 C34_2 1_555 1_555
O39 C41_2 1_555 1_555
O11_2 Cu17 1_555 1_555
O46 C34_2 1_555 1_555
C6_2 C7_2 1_555 1_555
C21_2 O2_2 1_555 1_555
C39_2 C40_2 1_555 1_555
C46_2 C47_2 1_555 1_555
C48_2 O8_2 1_555 1_555
C48_2 O11_2 1_555 1_555
C53_2 C54_2 1_555 1_555
C56_2 C60_2 1_555 1_555
C57_2 C58_2 1_555 1_555
C57_2 C60_2 1_555 1_555
C58_2 C59_2 1_555 1_555
C61_2 C95_2 1_555 1_555
C63_2 H41_2 1_555 1_555
C65_2 C63_2 1_555 1_555
H43_2 C65_2 1_555 1_555
C67_2 C65_2 1_555 1_555
H45_2 C67_2 1_555 1_555
C69_2 C67_2 1_555 1_555
H47_2 C69_2 1_555 1_555
C71_2 C69_2 1_555 1_555
C73_2 C63_2 1_555 1_555
N6 C73_2 1_555 1_555
C79_2 C71_2 1_555 1_555
C93_2 N8_2 1_555 1_555
H59_2 C93_2 1_555 1_555
C95_2 C93_2 1_555 1_555
C99_2 H61_2 1_555 1_555
H63_2 C99_2 1_555 1_555
H65_2 C99_2 1_555 1_555
C101_2 C99_2 1_555 1_555
H67_2 C101_2 1_555 1_555
H69_2 C101_2 1_555 1_555
O13_2 C61_2 1_555 1_555
O15_2 C61_2 1_555 1_555
Cu19 N8_2 1_555 1_555
C127_2 C129_2 1_555 1_555
C129_2 C131_2 1_555 1_555
C131_2 H91_2 1_555 1_555
C133_2 C131_2 1_555 1_555
H93_2 C133_2 1_555 1_555
C135_2 C133_2 1_555 1_555
C137_2 C135_2 1_555 1_555
H95_2 C137_2 1_555 1_555
C139_2 C129_2 1_555 1_555
H97_2 C139_2 1_555 1_555
C141_2 C143_2 1_555 1_555
C143_2 C145_2 1_555 1_555
C145_2 H99_2 1_555 1_555
C147_2 C145_2 1_555 1_555
H101_2 C147_2 1_555 1_555
C149_2 C147_2 1_555 1_555
C151_2 C149_2 1_555 1_555
H103_2 C151_2 1_555 1_555
C153_2 C143_2 1_555 1_555
H105_2 C153_2 1_555 1_555
C155_2 C157_2 1_555 1_555
C157_2 C159_2 1_555 1_555
C159_2 H107_2 1_555 1_555
C161_2 C159_2 1_555 1_555
H109_2 C161_2 1_555 1_555
C163_2 C161_2 1_555 1_555
C165_2 C163_2 1_555 1_555
H111_2 C165_2 1_555 1_555
C167_2 C157_2 1_555 1_555
H113_2 C167_2 1_555 1_555
C169_2 C135_2 1_555 1_555
C171_2 C169_2 1_555 1_555
H115_2 C171_2 1_555 1_555
C173_2 H117_2 1_555 1_555
C175_2 C163_2 1_555 1_555
C177_2 C169_2 1_555 1_555
H119_2 C177_2 1_555 1_555
C179_2 C149_2 1_555 1_555
O28 C141_2 1_555 1_555
O35 C127_2 1_555 1_555
O42_2 Cu19 1_555 1_555
C71_2 C73_2 1_555 1_555
C101_2 O15_2 1_555 1_555
C127_2 O47 1_555 1_555
C137_2 C139_2 1_555 1_555
C141_2 O40 1_555 1_555
C151_2 C153_2 1_555 1_555
C155_2 O30_2 1_555 1_555
C155_2 O42_2 1_555 1_555
C165_2 C167_2 1_555 1_555
C171_2 C179_2 1_555 1_555
C173_2 C175_2 1_555 1_555
C173_2 C179_2 1_555 1_555
C175_2 C177_2 1_555 1_555
C62_2 C96_2 1_555 1_555
C64_2 H42_2 1_555 1_555
C66_2 C64_2 1_555 1_555
H44_2 C66_2 1_555 1_555
C68_2 C66_2 1_555 1_555
H46_2 C68_2 1_555 1_555
C70_2 C68_2 1_555 1_555
H48_2 C70_2 1_555 1_555
C72_2 C70_2 1_555 1_555
C74_2 C64_2 1_555 1_555
N7 C74_2 1_555 1_555
C80_2 C72_2 1_555 1_555
C94_2 N9_2 1_555 1_555
H60_2 C94_2 1_555 1_555
C96_2 C94_2 1_555 1_555
C100_2 H62_2 1_555 1_555
H64_2 C100_2 1_555 1_555
H66_2 C100_2 1_555 1_555
C102_2 C100_2 1_555 1_555
H68_2 C102_2 1_555 1_555
H70_2 C102_2 1_555 1_555
O14_2 C62_2 1_555 1_555
O16_2 C62_2 1_555 1_555
Cu21 N9_2 1_555 1_555
C128_2 C130_2 1_555 1_555
C130_2 C132_2 1_555 1_555
C132_2 H92_2 1_555 1_555
C134_2 C132_2 1_555 1_555
H94_2 C134_2 1_555 1_555
C136_2 C134_2 1_555 1_555
C138_2 C136_2 1_555 1_555
H96_2 C138_2 1_555 1_555
C140_2 C130_2 1_555 1_555
H98_2 C140_2 1_555 1_555
C142_2 C144_2 1_555 1_555
C144_2 C146_2 1_555 1_555
C146_2 H100_2 1_555 1_555
C148_2 C146_2 1_555 1_555
H102_2 C148_2 1_555 1_555
C150_2 C148_2 1_555 1_555
C152_2 C150_2 1_555 1_555
H104_2 C152_2 1_555 1_555
C154_2 C144_2 1_555 1_555
H106_2 C154_2 1_555 1_555
C156_2 C158_2 1_555 1_555
C158_2 C160_2 1_555 1_555
C160_2 H108_2 1_555 1_555
C162_2 C160_2 1_555 1_555
H110_2 C162_2 1_555 1_555
C164_2 C162_2 1_555 1_555
C166_2 C164_2 1_555 1_555
H112_2 C166_2 1_555 1_555
C168_2 C158_2 1_555 1_555
H114_2 C168_2 1_555 1_555
C170_2 C136_2 1_555 1_555
C172_2 C170_2 1_555 1_555
H116_2 C172_2 1_555 1_555
C174_2 H118_2 1_555 1_555
C176_2 C164_2 1_555 1_555
C178_2 C170_2 1_555 1_555
H120_2 C178_2 1_555 1_555
C180_2 C150_2 1_555 1_555
O29 C142_2 1_555 1_555
O36 C128_2 1_555 1_555
O43_2 Cu21 1_555 1_555
C72_2 C74_2 1_555 1_555
C102_2 O16_2 1_555 1_555
C128_2 O48 1_555 1_555
C138_2 C140_2 1_555 1_555
C142_2 O41 1_555 1_555
C152_2 C154_2 1_555 1_555
C156_2 O31_2 1_555 1_555
C156_2 O43_2 1_555 1_555
C166_2 C168_2 1_555 1_555
C172_2 C180_2 1_555 1_555
C174_2 C176_2 1_555 1_555
C174_2 C180_2 1_555 1_555
C176_2 C178_2 1_555 1_555

#END
