
###############################################################################
#
# This file contains modified crystal structure data generated from the
# MOF subset of the Cambridge Structural Database (CSD) v543 
# hosted by the Cambridge Crystallographic Data Centre (CCDC).
#
# This work is licensed under the Creative Commons
# Attribution-NonCommercial-ShareAlike 4.0 International License.
# To view a copy of this license, visit
# http://creativecommons.org/licenses/by-nc-sa/4.0/
# or send a letter to
# Creative Commons, PO Box 1866, Mountain View, CA 94042, USA.
#
# CIF created using the CSD Python API on 29 September 2022
# The structure has been converted into the P1 space group
# The structure has a 3D framework
# The original CSD entry ICAWUF is in the orthorhombic crystal system
# The framework has been calculated to contain at least 10.0% void space
# The void calculation uses a probe of radius 1.32A, grid spacing 0.4
#
###############################################################################

data_ICAWUF
_chemical_formula_moiety         '(C1280 H960 Cd43 N80 O153)n'
_symmetry_cell_setting           triclinic
_symmetry_space_group_name_H-M   'P 1'
_symmetry_Int_Tables_number      1
_space_group_name_Hall           'P 1'
loop_
_symmetry_equiv_pos_site_id
_symmetry_equiv_pos_as_xyz
1 x,y,z
_cell_length_a                   37.538(5)
_cell_length_b                   130.908(16)
_cell_length_c                   6.7015(8)
_cell_angle_alpha                90
_cell_angle_beta                 90
_cell_angle_gamma                90
_cell_volume                     32931.3
loop_
_atom_site_label
_atom_site_type_symbol
_atom_site_fract_x
_atom_site_fract_y
_atom_site_fract_z
C56 C 0.0065(6) 0.0933(2) 0.047(5)
H45 H 0.0026 0.0831 0.4994
C61 C 0.0174(6) 0.0896(2) 0.232(5)
H46 H 0.0414 0.0902 0.2651
N4 N 0.1028(6) 0.1207(2) 0.422(4)
C17 C 0.0160(7) 0.15409(16) 0.065(3)
H13 H 0.0138 0.1608 0.1108
C18 C 0.0017(5) 0.14694(13) 0.175(3)
C49 C 0.0688(5) 0.1192(2) 0.363(4)
H37 H 0.0607 0.1218 0.2421
C50 C 0.0463(6) 0.1137(2) 0.487(3)
H38 H 0.0226 0.1131 0.4493
C51 C 0.0565(5) 0.1090(2) 0.664(3)
C52 C 0.0922(6) 0.1104(4) 0.697(6)
H39 H 0.1020 0.1072 0.8068
C53 C 0.1138(9) 0.1160(3) 0.588(4)
H40 H 0.1375 0.1167 0.6269
C54 C 0.0290(11) 0.1036(2) 0.769(5)
H41 H 0.0066 0.1035 0.7101
C55 C 0.0320(7) 0.0989(3) 0.935(5)
H42 H 0.0546 0.0992 0.9919
N2 N 0.0339(4) 0.15276(9) 0.890(2)
C20 C 0.0180(5) 0.13534(11) 0.930(4)
H15 H 0.0186 0.1287 0.8808
C21 C 0.0349(5) 0.14285(12) 0.823(3)
H16 H 0.0470 0.1413 0.7055
Cd7 Cd 0.05127(3) 0.165640(7) 0.6847(15)
O16 O 0.5823(3) 0.15413(10) 0.015(2)
Cd11 Cd 0.55127(3) 0.165640(7) 0.1847(15)
O15 O 0.5935(4) 0.16464(8) 0.772(3)
H86 H 0.7429 0.1014 0.0510
C119 C 0.7153(4) 0.12009(12) 0.140(3)
H90 H 0.7177 0.1138 0.2013
C120 C 0.6945(4) 0.12774(12) 0.251(3)
C121 C 0.6816(5) 0.12505(14) 0.440(3)
H91 H 0.6870 0.1187 0.4944
C122 C 0.6608(5) 0.13182(13) 0.543(3)
H92 H 0.6522 0.1301 0.6691
C123 C 0.6525(4) 0.14113(12) 0.464(3)
C124 C 0.6642(6) 0.14369(17) 0.274(3)
H93 H 0.6574 0.1499 0.2177
C125 C 0.6859(5) 0.13709(13) 0.170(3)
H94 H 0.6946 0.1389 0.0450
C126 C 0.6305(5) 0.14891(11) 0.575(3)
H95 H 0.6281 0.1553 0.5170
C127 C 0.6146(4) 0.14744(13) 0.746(3)
H96 H 0.6149 0.1410 0.8045
C128 C 0.5955(4) 0.15620(10) 0.849(3)
O17 O 0.7784(3) 0.07415(8) 0.174(2)
O18 O 0.7416(3) 0.08559(9) 0.306(2)
C140 C 0.6187(6) 0.0742(2) 0.073(5)
H105 H 0.6157 0.0781 0.1875
H106 H 0.5656 0.0714 0.0075
C142 C 0.6851(5) 0.07647(16) 0.106(3)
H107 H 0.6810 0.0816 0.1982
C143 C 0.7179(4) 0.07347(14) 0.073(3)
C144 C 0.7469(4) 0.07795(12) 0.186(3)
O21 O 0.8435(4) 0.08536(8) 0.022(3)
N11 N 0.8460(3) 0.05966(10) 0.141(3)
Cd10 Cd 0.57507(3) 0.179680(7) 0.6583(15)
Cd12 Cd 0.80127(3) 0.084360(7) 0.4347(15)
Cd3 Cd 0.82507(3) 0.070320(7) 0.9083(15)
O4 O 0.8323(3) 0.09587(10) 0.265(2)
O5 O 0.7856(3) 0.05777(9) 0.798(2)
O6 O 0.8440(3) 0.07550(9) 0.598(2)
O7 O 0.8901(3) 0.07015(9) 0.762(2)
H24 H 0.8649 0.1090 0.0545
C32 C 0.8455(4) 0.09380(10) 0.099(3)
H27 H 0.5711 0.0124 0.1060
C38 C 0.6014(5) 0.03027(13) 0.009(3)
C39 C 0.6159(5) 0.02834(17) 0.177(5)
H30 H 0.6091 0.0222 0.2366
C40 C 0.6427(6) 0.03469(14) 0.294(4)
C41 C 0.6555(8) 0.04387(18) 0.214(4)
H31 H 0.6463 0.0465 0.0953
C42 C 0.6823(7) 0.04889(18) 0.317(4)
H32 H 0.6904 0.0551 0.2693
C43 C 0.6970(5) 0.04498(15) 0.486(4)
C44 C 0.6828(6) 0.03609(17) 0.567(5)
H33 H 0.6907 0.0338 0.6914
C45 C 0.6567(6) 0.0305(2) 0.465(5)
H34 H 0.6491 0.0242 0.5114
C46 C 0.7267(5) 0.04973(15) 0.590(4)
H35 H 0.7379 0.0458 0.6863
C47 C 0.7396(4) 0.05905(12) 0.562(3)
H36 H 0.7301 0.0629 0.4586
C48 C 0.7679(4) 0.06378(12) 0.683(3)
C58 C 0.9484(4) 0.08651(16) 0.120(3)
H44 H 0.9251 0.0853 0.0808
C59 C 0.9601(4) 0.08330(16) 0.313(4)
C60 C 0.9947(5) 0.0850(2) 0.373(4)
C62 C 0.9346(4) 0.07883(12) 0.460(4)
H47 H 0.9446 0.0761 0.5751
C63 C 0.8998(4) 0.07833(11) 0.447(3)
H48 H 0.8887 0.0805 0.3297
C64 C 0.8774(4) 0.07439(12) 0.616(3)
O10 O 0.7737(3) 0.07308(8) 0.675(2)
N8 N 0.7839(4) 0.09724(9) 0.640(2)
C113 C 0.7660(7) 0.09591(16) 0.815(3)
H85 H 0.7638 0.0892 0.8608
C114 C 0.7517(5) 0.10306(13) 0.925(3)
C115 C 0.7496(5) 0.11286(13) 0.859(3)
C116 C 0.7680(5) 0.11466(11) 0.680(4)
H87 H 0.7686 0.1213 0.6308
C117 C 0.7849(5) 0.10715(12) 0.573(3)
H88 H 0.7970 0.1087 0.4555
C118 C 0.7312(5) 0.12102(12) 0.963(3)
H89 H 0.7304 0.1274 0.9014
N9 N 0.4767(6) 0.05026(19) 0.098(5)
C129 C 0.5063(7) 0.0459(4) 0.083(7)
C130 C 0.5337(8) 0.0484(3) 0.219(6)
H98 H 0.5554 0.0450 0.2041
C131 C 0.5311(5) 0.0552(2) 0.369(5)
C132 C 0.4974(6) 0.05912(18) 0.384(5)
H99 H 0.4925 0.0635 0.4894
C133 C 0.4715(6) 0.0570(2) 0.258(6)
H100 H 0.4493 0.0600 0.2760
C134 C 0.5618(5) 0.0571(2) 0.499(4)
H101 H 0.5835 0.0545 0.4541
C135 C 0.5624(6) 0.0616(2) 0.664(5)
H102 H 0.5405 0.0633 0.7193
C136 C 0.5944(5) 0.0647(2) 0.780(5)
C137 C 0.6268(6) 0.0625(3) 0.723(5)
H103 H 0.6305 0.0589 0.6049
C138 C 0.6565(5) 0.0655(2) 0.840(4)
H104 H 0.6791 0.0631 0.8063
C139 C 0.6531(5) 0.0717(2) 0.996(4)
C141 C 0.5887(4) 0.0703(2) 0.961(4)
H108 H 0.7225 0.0685 0.9783
Cd2 Cd 0.5000 0.0000 0.4857(15)
O8 O 0.4866(4) 0.01257(13) 0.258(3)
O9 O 0.4415(5) 0.00401(12) 0.368(3)
N3 N 0.5287(4) 0.01124(10) 0.692(3)
H14 H 0.9929 0.1486 0.3010
C19 C 0.9996(5) 0.13714(13) 0.109(3)
C22 C 0.9812(5) 0.12898(12) 0.213(3)
H17 H 0.9804 0.1226 0.1514
C23 C 0.9653(4) 0.12991(12) 0.390(3)
H18 H 0.9677 0.1362 0.4513
C24 C 0.9445(4) 0.12226(12) 0.501(3)
C25 C 0.9316(5) 0.12495(14) 0.690(3)
H19 H 0.9370 0.1313 0.7444
C26 C 0.9108(5) 0.11818(13) 0.793(3)
H20 H 0.9022 0.1199 0.9191
C27 C 0.9025(4) 0.10887(12) 0.714(3)
C28 C 0.9142(6) 0.10631(17) 0.524(3)
H21 H 0.9074 0.1001 0.4677
C29 C 0.9359(5) 0.11291(13) 0.420(3)
H22 H 0.9446 0.1111 0.2950
C30 C 0.8805(5) 0.10109(11) 0.825(3)
H23 H 0.8781 0.0947 0.7670
C31 C 0.8646(4) 0.10256(13) 0.996(3)
C33 C 0.5386(6) 0.02035(14) 0.608(3)
H25 H 0.5300 0.0223 0.4832
C34 C 0.5619(6) 0.02656(14) 0.712(4)
H26 H 0.5687 0.0328 0.6566
C35 C 0.5755(4) 0.02386(14) 0.898(4)
C36 C 0.5633(6) 0.01466(17) 0.982(3)
C37 C 0.5393(5) 0.00912(14) 0.871(3)
H28 H 0.5298 0.0033 0.9299
H29 H 0.6079 0.0364 0.9488
C57 C 0.9707(6) 0.0913(2) 0.994(4)
H43 H 0.9624 0.0933 0.8691
C79 C 0.4306(7) 0.01541(16) 0.102(3)
H60 H 0.4061 0.0148 0.1179
C80 C 0.4546(6) 0.01062(19) 0.248(4)
H97 H 0.5102 0.0411 0.9839
H50 H 0.3191 0.0464 0.0181
C70 C 0.3877(5) 0.04211(15) 0.130(3)
H53 H 0.4120 0.0407 0.1240
C71 C 0.3708(6) 0.03875(15) 0.282(3)
H54 H 0.3463 0.0397 0.2861
C72 C 0.3885(7) 0.03338(16) 0.452(4)
C73 C 0.3692(8) 0.02899(17) 0.598(4)
H55 H 0.3445 0.0293 0.5901
C74 C 0.3848(9) 0.02388(19) 0.763(4)
H56 H 0.3713 0.0202 0.8533
C75 C 0.4240(8) 0.02482(18) 0.782(4)
C76 C 0.4416(6) 0.0296(2) 0.642(3)
H57 H 0.4662 0.0300 0.6529
C77 C 0.4255(7) 0.0341(2) 0.480(4)
H58 H 0.4393 0.0376 0.3873
C78 C 0.4437(7) 0.02046(17) 0.952(4)
H59 H 0.4682 0.0214 0.9523
N5 N 0.3460(3) 0.05966(10) 0.641(3)
C65 C 0.3245(4) 0.05471(13) 0.764(3)
H49 H 0.3002 0.0549 0.7375
C66 C 0.3356(5) 0.04927(11) 0.930(3)
C67 C 0.3718(5) 0.04816(13) 0.961(3)
C68 C 0.3938(4) 0.05278(13) 0.826(3)
H51 H 0.4183 0.0521 0.8411
C69 C 0.3811(4) 0.05838(12) 0.667(3)
H52 H 0.3970 0.0613 0.5773
Cd8 Cd 0.32507(3) 0.070320(7) 0.4083(15)
O25 O 0.2216(3) 0.92585(8) 0.174(2)
O26 O 0.1565(4) 0.91464(8) 0.022(3)
N13 N 0.1540(3) 0.94034(10) 0.141(3)
O13 O 0.2144(3) 0.94223(9) 0.798(2)
H75 H 0.4289 0.9876 0.1060
C102 C 0.3986(5) 0.96973(13) 0.009(3)
C103 C 0.3841(5) 0.97166(17) 0.177(5)
H78 H 0.3909 0.9778 0.2366
C104 C 0.3573(6) 0.96531(14) 0.294(4)
C105 C 0.3445(8) 0.95613(18) 0.214(4)
H79 H 0.3537 0.9535 0.0953
C106 C 0.3177(7) 0.95111(18) 0.317(4)
H80 H 0.3096 0.9449 0.2693
C107 C 0.3030(5) 0.95502(15) 0.486(4)
C108 C 0.3172(6) 0.96391(17) 0.567(5)
H81 H 0.3093 0.9662 0.6914
C109 C 0.3433(6) 0.9695(2) 0.465(5)
H82 H 0.3509 0.9758 0.5114
C110 C 0.2733(5) 0.95027(15) 0.590(4)
H83 H 0.2621 0.9542 0.6863
C111 C 0.2604(4) 0.94095(12) 0.562(3)
H84 H 0.2699 0.9371 0.4586
C112 C 0.2321(4) 0.93622(12) 0.683(3)
O14 O 0.2263(3) 0.92692(8) 0.675(2)
Cd4 Cd 0.19873(3) 0.915640(7) 0.4347(15)
Cd5 Cd 0.17493(3) 0.929680(7) 0.9083(15)
O19 O 0.1560(3) 0.92450(9) 0.598(2)
O20 O 0.1099(3) 0.92985(9) 0.762(2)
C154 C 0.0516(4) 0.91349(16) 0.120(3)
H116 H 0.0749 0.9147 0.0808
C155 C 0.0399(4) 0.91670(16) 0.313(4)
C156 C 0.0053(5) 0.9150(2) 0.373(4)
C158 C 0.0654(4) 0.92117(12) 0.460(4)
H119 H 0.0554 0.9239 0.5751
C159 C 0.1002(4) 0.92167(11) 0.447(3)
H120 H 0.1113 0.9195 0.3297
C160 C 0.1226(4) 0.92561(12) 0.616(3)
O23 O 0.2584(3) 0.91441(9) 0.306(2)
O24 O 0.1677(3) 0.90413(10) 0.265(2)
N12 N 0.2161(4) 0.90276(9) 0.640(2)
Cd2_2 Cd 0.5000 1.0000 0.4857(15)
O11 O 0.5134(4) 0.98743(13) 0.258(3)
O12 O 0.5585(5) 0.99599(12) 0.368(3)
C95 C 0.5694(7) 0.98459(16) 0.102(3)
H72 H 0.5939 0.9852 0.1179
C96 C 0.5454(6) 0.98938(19) 0.248(4)
N7 N 0.4713(4) 0.98876(10) 0.692(3)
C97 C 0.4614(6) 0.97965(14) 0.608(3)
H73 H 0.4700 0.9777 0.4832
C98 C 0.4381(6) 0.97344(14) 0.712(4)
H74 H 0.4313 0.9672 0.6566
C99 C 0.4245(4) 0.97614(14) 0.898(4)
C100 C 0.4367(6) 0.98534(17) 0.982(3)
C101 C 0.4607(5) 0.99088(14) 0.871(3)
H76 H 0.4702 0.9967 0.9299
H77 H 0.3921 0.9636 0.9488
C153 C 0.0293(6) 0.9087(2) 0.994(4)
H115 H 0.0376 0.9067 0.8691
H62 H 0.6809 0.9536 0.0181
C86 C 0.6123(5) 0.95789(15) 0.130(3)
H65 H 0.5880 0.9593 0.1240
C87 C 0.6292(6) 0.96125(15) 0.282(3)
H66 H 0.6537 0.9603 0.2861
C88 C 0.6115(7) 0.96662(16) 0.452(4)
C89 C 0.6308(8) 0.97101(17) 0.598(4)
H67 H 0.6555 0.9707 0.5901
C90 C 0.6152(9) 0.97612(19) 0.763(4)
H68 H 0.6287 0.9798 0.8533
C91 C 0.5760(8) 0.97518(18) 0.782(4)
C92 C 0.5584(6) 0.9704(2) 0.642(3)
H69 H 0.5338 0.9700 0.6529
C93 C 0.5745(7) 0.9659(2) 0.480(4)
H70 H 0.5607 0.9624 0.3873
C94 C 0.5563(7) 0.97954(17) 0.952(4)
H71 H 0.5318 0.9786 0.9523
N6 N 0.6540(3) 0.94034(10) 0.641(3)
C81 C 0.6755(4) 0.94529(13) 0.764(3)
H61 H 0.6998 0.9451 0.7375
C82 C 0.6644(5) 0.95073(11) 0.930(3)
C83 C 0.6282(5) 0.95184(13) 0.961(3)
C84 C 0.6062(4) 0.94722(13) 0.826(3)
H63 H 0.5817 0.9479 0.8411
C85 C 0.6189(4) 0.94162(12) 0.667(3)
H64 H 0.6030 0.9387 0.5773
Cd9 Cd 0.67493(3) 0.929680(7) 0.4083(15)
N10 N 0.8972(6) 0.8793(2) 0.422(4)
C145 C 0.9312(5) 0.8808(2) 0.363(4)
H109 H 0.9393 0.8782 0.2421
C146 C 0.9537(6) 0.8863(2) 0.487(3)
H110 H 0.9774 0.8869 0.4493
C147 C 0.9435(5) 0.8910(2) 0.664(3)
C148 C 0.9078(6) 0.8896(4) 0.697(6)
H111 H 0.8980 0.8928 0.8068
C149 C 0.8862(9) 0.8840(3) 0.588(4)
H112 H 0.8625 0.8833 0.6269
C150 C 0.9710(11) 0.8964(2) 0.769(5)
H113 H 0.9934 0.8965 0.7101
C151 C 0.9680(7) 0.9011(3) 0.935(5)
H114 H 0.9454 0.9008 0.9919
O16_2 O 0.4177(3) 0.84587(10) 0.015(2)
Cd11_2 Cd 0.44873(3) 0.834360(7) 0.1847(15)
O15_2 O 0.4065(4) 0.83536(8) 0.772(3)
H86_2 H 0.2571 0.8986 0.0510
C119_2 C 0.2847(4) 0.87991(12) 0.140(3)
H90_2 H 0.2823 0.8862 0.2013
C120_2 C 0.3055(4) 0.87226(12) 0.251(3)
C121_2 C 0.3184(5) 0.87495(14) 0.440(3)
H91_2 H 0.3130 0.8813 0.4944
C122_2 C 0.3392(5) 0.86818(13) 0.543(3)
H92_2 H 0.3478 0.8699 0.6691
C123_2 C 0.3475(4) 0.85887(12) 0.464(3)
C124_2 C 0.3358(6) 0.85631(17) 0.274(3)
H93_2 H 0.3426 0.8501 0.2177
C125_2 C 0.3141(5) 0.86291(13) 0.170(3)
H94_2 H 0.3054 0.8611 0.0450
C126_2 C 0.3695(5) 0.85109(11) 0.575(3)
H95_2 H 0.3719 0.8447 0.5170
C127_2 C 0.3854(4) 0.85256(13) 0.746(3)
H96_2 H 0.3851 0.8590 0.8045
C128_2 C 0.4045(4) 0.84380(10) 0.849(3)
C140_2 C 0.3813(6) 0.9258(2) 0.073(5)
H105_2 H 0.3843 0.9219 0.1875
H106_2 H 0.4344 0.9286 0.0075
C142_2 C 0.3149(5) 0.92353(16) 0.106(3)
H107_2 H 0.3190 0.9184 0.1982
C143_2 C 0.2821(4) 0.92653(14) 0.073(3)
C144_2 C 0.2531(4) 0.92205(12) 0.186(3)
Cd10_2 Cd 0.42493(3) 0.820320(7) 0.6583(15)
H24_2 H 0.1351 0.8910 0.0545
C32_2 C 0.1545(4) 0.90620(10) 0.099(3)
C113_2 C 0.2340(7) 0.90409(16) 0.815(3)
H85_2 H 0.2362 0.9108 0.8608
C114_2 C 0.2483(5) 0.89694(13) 0.925(3)
C115_2 C 0.2504(5) 0.88714(13) 0.859(3)
C116_2 C 0.2320(5) 0.88534(11) 0.680(4)
H87_2 H 0.2314 0.8787 0.6308
C117_2 C 0.2151(5) 0.89285(12) 0.573(3)
H88_2 H 0.2030 0.8913 0.4555
C118_2 C 0.2688(5) 0.87898(12) 0.963(3)
H89_2 H 0.2696 0.8726 0.9014
N9_2 N 0.5233(6) 0.94974(19) 0.098(5)
C129_2 C 0.4937(7) 0.9541(4) 0.083(7)
C130_2 C 0.4663(8) 0.9516(3) 0.219(6)
H98_2 H 0.4446 0.9550 0.2041
C131_2 C 0.4689(5) 0.9448(2) 0.369(5)
C132_2 C 0.5026(6) 0.94088(18) 0.384(5)
H99_2 H 0.5075 0.9365 0.4894
C133_2 C 0.5285(6) 0.9430(2) 0.258(6)
H100_2 H 0.5507 0.9400 0.2760
C134_2 C 0.4382(5) 0.9429(2) 0.499(4)
H101_2 H 0.4165 0.9455 0.4541
C135_2 C 0.4376(6) 0.9384(2) 0.664(5)
H102_2 H 0.4595 0.9367 0.7193
C136_2 C 0.4056(5) 0.9353(2) 0.780(5)
C137_2 C 0.3732(6) 0.9375(3) 0.723(5)
H103_2 H 0.3695 0.9411 0.6049
C138_2 C 0.3435(5) 0.9345(2) 0.840(4)
H104_2 H 0.3209 0.9369 0.8063
C139_2 C 0.3469(5) 0.9283(2) 0.996(4)
C141_2 C 0.4113(4) 0.9297(2) 0.961(4)
H108_2 H 0.2775 0.9315 0.9783
H14_2 H 0.0071 0.8514 0.3010
C19_2 C 0.0004(5) 0.86286(13) 0.109(3)
C22_2 C 0.0188(5) 0.87102(12) 0.213(3)
H17_2 H 0.0196 0.8774 0.1514
C23_2 C 0.0347(4) 0.87009(12) 0.390(3)
H18_2 H 0.0323 0.8638 0.4513
C24_2 C 0.0555(4) 0.87774(12) 0.501(3)
C25_2 C 0.0684(5) 0.87505(14) 0.690(3)
H19_2 H 0.0630 0.8687 0.7444
C26_2 C 0.0892(5) 0.88182(13) 0.793(3)
H20_2 H 0.0978 0.8801 0.9191
C27_2 C 0.0975(4) 0.89113(12) 0.714(3)
C28_2 C 0.0858(6) 0.89369(17) 0.524(3)
H21_2 H 0.0926 0.8999 0.4677
C29_2 C 0.0641(5) 0.88709(13) 0.420(3)
H22_2 H 0.0554 0.8889 0.2950
C30_2 C 0.1195(5) 0.89891(11) 0.825(3)
H23_2 H 0.1219 0.9053 0.7670
C31_2 C 0.1354(4) 0.89744(13) 0.996(3)
H97_2 H 0.4898 0.9589 0.9839
C17_2 C 0.9840(7) 0.84591(16) 0.065(3)
H13_2 H 0.9862 0.8392 0.1108
C18_2 C 0.9983(5) 0.85306(13) 0.175(3)
N2_2 N 0.9661(4) 0.84724(9) 0.890(2)
C20_2 C 0.9820(5) 0.86466(11) 0.930(4)
H15_2 H 0.9814 0.8713 0.8808
C21_2 C 0.9651(5) 0.85715(12) 0.823(3)
H16_2 H 0.9530 0.8587 0.7055
Cd7_2 Cd 0.94873(3) 0.834360(7) 0.6847(15)
Cd3_2 Cd 0.07507(3) 0.179680(7) 0.1583(15)
O5_2 O 0.0356(3) 0.19223(9) 0.048(2)
O7_2 O 0.1401(3) 0.17985(9) 0.012(2)
O17_2 O 0.0284(3) 0.17585(8) 0.424(2)
O21_2 O 0.0935(4) 0.16464(8) 0.272(3)
N11_2 N 0.0960(3) 0.19034(10) 0.391(3)
O4_2 O 0.0823(3) 0.15413(10) 0.515(2)
O6_2 O 0.0940(3) 0.17450(9) 0.848(2)
C26_3 C 0.1608(5) 0.13182(13) 0.043(3)
H20_3 H 0.1522 0.1301 0.1691
C30_3 C 0.1305(5) 0.14891(11) 0.075(3)
H23_3 H 0.1281 0.1553 0.0170
C31_3 C 0.1146(4) 0.14744(13) 0.246(3)
H24_3 H 0.1149 0.1410 0.3045
C32_3 C 0.0955(4) 0.15620(10) 0.349(3)
C48_2 C 0.0179(4) 0.18622(12) 0.933(3)
H39_2 H 0.3520 0.1428 0.0568
C54_2 C 0.2790(11) 0.1464(2) 0.019(5)
C55_2 C 0.2820(7) 0.1511(3) 0.185(5)
H42_2 H 0.3046 0.1508 0.2419
C56_2 C 0.2565(6) 0.1567(2) 0.297(5)
C57_2 C 0.2207(6) 0.1587(2) 0.244(4)
H43_2 H 0.2124 0.1567 0.1191
C58_2 C 0.1984(4) 0.16349(16) 0.370(3)
H44_2 H 0.1751 0.1647 0.3308
C59_2 C 0.2101(4) 0.16670(16) 0.563(4)
C60_2 C 0.2447(5) 0.1650(2) 0.623(4)
H45_2 H 0.2526 0.1669 0.7494
C61_2 C 0.2674(6) 0.1604(2) 0.482(5)
H46_2 H 0.2914 0.1598 0.5151
C62_2 C 0.1846(4) 0.17117(12) 0.710(4)
H47_2 H 0.1946 0.1739 0.8251
C63_2 C 0.1498(4) 0.17167(11) 0.697(3)
H48_2 H 0.1387 0.1695 0.5797
C64_2 C 0.1274(4) 0.17561(12) 0.866(3)
O10_2 O 0.0237(3) 0.17692(8) 0.925(2)
N2_3 N 0.2839(4) 0.09724(9) 0.140(2)
N4_2 N 0.3528(6) 0.1293(2) 0.672(4)
C17_3 C 0.2660(7) 0.09591(16) 0.315(3)
H13_3 H 0.2638 0.0892 0.3608
C18_3 C 0.2517(5) 0.10306(13) 0.425(3)
H14_3 H 0.2429 0.1014 0.5510
C19_3 C 0.2496(5) 0.11286(13) 0.359(3)
C20_3 C 0.2680(5) 0.11466(11) 0.180(4)
H15_3 H 0.2686 0.1213 0.1308
C21_3 C 0.2849(5) 0.10715(12) 0.073(3)
C22_3 C 0.2312(5) 0.12102(12) 0.463(3)
H17_3 H 0.2304 0.1274 0.4014
C23_3 C 0.2153(4) 0.12009(12) 0.640(3)
H18_3 H 0.2177 0.1138 0.7013
C24_3 C 0.1945(4) 0.12774(12) 0.751(3)
C25_3 C 0.1816(5) 0.12505(14) 0.940(3)
H19_3 H 0.1870 0.1187 0.9944
C27_3 C 0.1525(4) 0.14113(12) 0.964(3)
C28_3 C 0.1642(6) 0.14369(17) 0.774(3)
H21_3 H 0.1574 0.1499 0.7177
C29_3 C 0.1859(5) 0.13709(13) 0.670(3)
H22_3 H 0.1946 0.1389 0.5450
C49_2 C 0.3188(5) 0.1308(2) 0.613(4)
H37_2 H 0.3107 0.1282 0.4921
C50_2 C 0.2963(6) 0.1363(2) 0.737(3)
H38_2 H 0.2726 0.1369 0.6993
C51_2 C 0.3065(5) 0.1410(2) 0.914(3)
C52_2 C 0.3422(6) 0.1396(4) 0.947(6)
C53_2 C 0.3638(9) 0.1340(3) 0.838(4)
H40_2 H 0.3875 0.1333 0.8769
H41_2 H 0.2566 0.1465 0.9601
H16_3 H 0.2970 0.1087 0.9555
Cd7_3 Cd 0.30127(3) 0.084360(7) 0.9347(15)
O13_2 O 0.4644(3) 0.30777(9) 0.048(2)
Cd5_2 Cd 0.42493(3) 0.320320(7) 0.1583(15)
O18_2 O 0.9916(3) 0.16441(9) 0.556(2)
C136_3 C 0.8444(5) 0.1853(2) 0.030(5)
C138_3 C 0.9065(5) 0.1845(2) 0.090(4)
H104_3 H 0.9291 0.1869 0.0563
C139_3 C 0.9031(5) 0.1783(2) 0.246(4)
C140_3 C 0.8687(6) 0.1758(2) 0.323(5)
H105_3 H 0.8657 0.1719 0.4375
C141_3 C 0.8387(4) 0.1797(2) 0.211(4)
H106_3 H 0.8156 0.1786 0.2575
C142_3 C 0.9351(5) 0.17353(16) 0.356(3)
H107_3 H 0.9310 0.1684 0.4482
C143_3 C 0.9679(4) 0.17653(14) 0.323(3)
H108_3 H 0.9725 0.1815 0.2283
C144_3 C 0.9969(4) 0.17205(12) 0.436(3)
O20_2 O 0.3599(3) 0.32015(9) 0.012(2)
O25_2 O 0.4716(3) 0.32415(8) 0.424(2)
O26_2 O 0.4065(4) 0.33536(8) 0.272(3)
N13_2 N 0.4040(3) 0.30966(10) 0.391(3)
C35_2 C 0.8255(4) 0.22614(14) 0.148(4)
C36_2 C 0.8133(6) 0.23534(17) 0.232(3)
H27_2 H 0.8211 0.2376 0.3560
C37_2 C 0.7893(5) 0.24088(14) 0.121(3)
H28_2 H 0.7798 0.2467 0.1799
C38_2 C 0.8514(5) 0.21973(13) 0.259(3)
H29_2 H 0.8579 0.2136 0.1988
C39_2 C 0.8659(5) 0.22166(17) 0.427(5)
H30_2 H 0.8591 0.2278 0.4866
C40_2 C 0.8927(6) 0.21531(14) 0.544(4)
C41_2 C 0.9055(8) 0.20613(18) 0.464(4)
H31_2 H 0.8963 0.2035 0.3453
C42_2 C 0.9323(7) 0.20111(18) 0.567(4)
H32_2 H 0.9404 0.1949 0.5193
C43_2 C 0.9470(5) 0.20502(15) 0.736(4)
C44_2 C 0.9328(6) 0.21391(17) 0.817(5)
H33_2 H 0.9407 0.2162 0.9414
C45_2 C 0.9067(6) 0.2195(2) 0.715(5)
H34_2 H 0.8991 0.2258 0.7614
C46_2 C 0.9767(5) 0.20027(15) 0.840(4)
H35_2 H 0.9879 0.2042 0.9363
C47_2 C 0.9896(4) 0.19095(12) 0.812(3)
H36_2 H 0.9801 0.1871 0.7086
C99_2 C 0.6745(4) 0.27386(14) 0.148(4)
C100_2 C 0.6867(6) 0.26466(17) 0.232(3)
H75_2 H 0.6789 0.2624 0.3560
C101_2 C 0.7107(5) 0.25912(14) 0.121(3)
H76_2 H 0.7202 0.2533 0.1799
C102_2 C 0.6486(5) 0.28027(13) 0.259(3)
H77_2 H 0.6421 0.2864 0.1988
C103_2 C 0.6341(5) 0.27834(17) 0.427(5)
H78_2 H 0.6409 0.2722 0.4866
C104_2 C 0.6073(6) 0.28469(14) 0.544(4)
C105_2 C 0.5945(8) 0.29387(18) 0.464(4)
H79_2 H 0.6037 0.2965 0.3453
C106_2 C 0.5677(7) 0.29889(18) 0.567(4)
H80_2 H 0.5596 0.3051 0.5193
C107_2 C 0.5530(5) 0.29498(15) 0.736(4)
C108_2 C 0.5672(6) 0.28609(17) 0.817(5)
H81_2 H 0.5593 0.2838 0.9414
C109_2 C 0.5933(6) 0.2805(2) 0.715(5)
H82_2 H 0.6009 0.2742 0.7614
C110_2 C 0.5233(5) 0.29973(15) 0.840(4)
H83_2 H 0.5121 0.2958 0.9363
C111_2 C 0.5104(4) 0.30905(12) 0.812(3)
H84_2 H 0.5199 0.3129 0.7086
C112_2 C 0.4821(4) 0.31378(12) 0.933(3)
O14_2 O 0.4763(3) 0.32308(8) 0.925(2)
Cd4_2 Cd 0.44873(3) 0.334360(7) 0.6847(15)
N9_3 N 0.7267(6) 0.19974(19) 0.348(5)
C129_3 C 0.7563(7) 0.2041(4) 0.333(7)
H97_3 H 0.7602 0.2089 0.2339
C130_3 C 0.7837(8) 0.2016(3) 0.469(6)
H98_3 H 0.8054 0.2050 0.4541
C131_3 C 0.7811(5) 0.1948(2) 0.619(5)
C132_3 C 0.7474(6) 0.19088(18) 0.634(5)
H99_3 H 0.7425 0.1865 0.7394
C133_3 C 0.7215(6) 0.1930(2) 0.508(6)
H100_3 H 0.6993 0.1900 0.5260
C134_3 C 0.8118(5) 0.1929(2) 0.749(4)
H101_3 H 0.8335 0.1955 0.7041
C135_3 C 0.8124(6) 0.1884(2) 0.914(5)
H102_3 H 0.7905 0.1867 0.9693
C137_3 C 0.8768(6) 0.1875(3) 0.973(5)
H103_3 H 0.8805 0.1911 0.8549
O19_2 O 0.4060(3) 0.32550(9) 0.848(2)
H111_2 H 0.1480 0.3572 0.0568
C150_2 C 0.2210(11) 0.3536(2) 0.019(5)
C151_2 C 0.2180(7) 0.3489(3) 0.185(5)
H114_2 H 0.1954 0.3492 0.2419
C152 C 0.2435(6) 0.3433(2) 0.297(5)
C153_2 C 0.2793(6) 0.3413(2) 0.244(4)
H115_2 H 0.2876 0.3433 0.1191
C154_2 C 0.3016(4) 0.33651(16) 0.370(3)
H116_2 H 0.3249 0.3353 0.3308
C155_2 C 0.2899(4) 0.33330(16) 0.563(4)
C156_2 C 0.2553(5) 0.3350(2) 0.623(4)
H117 H 0.2474 0.3331 0.7494
C157 C 0.2326(6) 0.3396(2) 0.482(5)
H118 H 0.2086 0.3402 0.5151
C158_2 C 0.3154(4) 0.32883(12) 0.710(4)
H119_2 H 0.3054 0.3261 0.8251
C159_2 C 0.3502(4) 0.32833(11) 0.697(3)
H120_2 H 0.3613 0.3305 0.5797
C160_2 C 0.3726(4) 0.32439(12) 0.866(3)
O23_2 O 0.5084(3) 0.33559(9) 0.556(2)
O24_2 O 0.4177(3) 0.34587(10) 0.515(2)
N12_2 N 0.4661(4) 0.34724(9) 0.890(2)
Cd2_3 Cd 0.7500 0.2500 0.7357(15)
O8_2 O 0.7366(4) 0.23743(13) 0.508(3)
O9_2 O 0.6915(5) 0.24599(12) 0.618(3)
N3_2 N 0.7787(4) 0.23876(10) 0.942(3)
C33_2 C 0.7886(6) 0.22965(14) 0.858(3)
H25_2 H 0.7800 0.2277 0.7332
C34_2 C 0.8119(6) 0.22344(14) 0.962(4)
H26_2 H 0.8187 0.2172 0.9066
C74_2 C 0.6348(9) 0.22612(19) 0.013(4)
H56_2 H 0.6213 0.2298 0.1033
C75_2 C 0.6740(8) 0.22518(18) 0.032(4)
C78_2 C 0.6937(7) 0.22954(17) 0.202(4)
H59_2 H 0.7182 0.2286 0.2023
C79_2 C 0.6806(7) 0.23459(16) 0.352(3)
H60_2 H 0.6561 0.2352 0.3679
C80_2 C 0.7046(6) 0.23938(19) 0.498(4)
O11_2 O 0.7634(4) 0.26257(13) 0.508(3)
O12_2 O 0.8085(5) 0.25401(12) 0.618(3)
C90_2 C 0.8652(9) 0.27388(19) 0.013(4)
H68_2 H 0.8787 0.2702 0.1033
C91_2 C 0.8260(8) 0.27482(18) 0.032(4)
C94_2 C 0.8063(7) 0.27046(17) 0.202(4)
H71_2 H 0.7818 0.2714 0.2023
C95_2 C 0.8194(7) 0.26541(16) 0.352(3)
H72_2 H 0.8439 0.2648 0.3679
C96_2 C 0.7954(6) 0.26062(19) 0.498(4)
N7_2 N 0.7213(4) 0.26124(10) 0.942(3)
C97_2 C 0.7114(6) 0.27035(14) 0.858(3)
H73_2 H 0.7200 0.2723 0.7332
C98_2 C 0.6881(6) 0.27656(14) 0.962(4)
H74_2 H 0.6813 0.2828 0.9066
N10_2 N 0.1472(6) 0.3707(2) 0.672(4)
C145_2 C 0.1812(5) 0.3692(2) 0.613(4)
H109_2 H 0.1893 0.3718 0.4921
C146_2 C 0.2037(6) 0.3637(2) 0.737(3)
H110_2 H 0.2274 0.3631 0.6993
C147_2 C 0.1935(5) 0.3590(2) 0.914(3)
C148_2 C 0.1578(6) 0.3604(4) 0.947(6)
C149_2 C 0.1362(9) 0.3660(3) 0.838(4)
H112_2 H 0.1125 0.3667 0.8769
H113_2 H 0.2434 0.3535 0.9601
C65_2 C 0.5745(4) 0.19529(13) 0.014(3)
C66_2 C 0.5856(5) 0.20073(11) 0.180(3)
H50_2 H 0.5691 0.2036 0.2681
C67_2 C 0.6218(5) 0.20184(13) 0.211(3)
C68_2 C 0.6438(4) 0.19722(13) 0.076(3)
H51_2 H 0.6683 0.1979 0.0911
C70_2 C 0.6377(5) 0.20789(15) 0.380(3)
H53_2 H 0.6620 0.2093 0.3740
C71_2 C 0.6208(6) 0.21125(15) 0.532(3)
H54_2 H 0.5963 0.2103 0.5361
C72_2 C 0.6385(7) 0.21662(16) 0.702(4)
C73_2 C 0.6192(8) 0.22101(17) 0.848(4)
H55_2 H 0.5945 0.2207 0.8401
C76_2 C 0.6916(6) 0.2204(2) 0.892(3)
H57_2 H 0.7162 0.2200 0.9029
C77_2 C 0.6755(7) 0.2159(2) 0.730(4)
H58_2 H 0.6893 0.2124 0.6373
C81_2 C 0.9255(4) 0.30471(13) 0.014(3)
C82_2 C 0.9144(5) 0.29927(11) 0.180(3)
H62_2 H 0.9309 0.2964 0.2681
C83_2 C 0.8782(5) 0.29816(13) 0.211(3)
C84_2 C 0.8562(4) 0.30278(13) 0.076(3)
H63_2 H 0.8317 0.3021 0.0911
C86_2 C 0.8623(5) 0.29211(15) 0.380(3)
H65_2 H 0.8380 0.2907 0.3740
C87_2 C 0.8792(6) 0.28875(15) 0.532(3)
H66_2 H 0.9037 0.2897 0.5361
C88_2 C 0.8615(7) 0.28338(16) 0.702(4)
C89_2 C 0.8808(8) 0.27899(17) 0.848(4)
H67_2 H 0.9055 0.2793 0.8401
C92_2 C 0.8084(6) 0.2796(2) 0.892(3)
H69_2 H 0.7838 0.2800 0.9029
C93_2 C 0.8245(7) 0.2841(2) 0.730(4)
H70_2 H 0.8107 0.2876 0.6373
N5_2 N 0.5960(3) 0.19034(10) 0.891(3)
H49_2 H 0.5502 0.1951 0.9875
C69_2 C 0.6311(4) 0.19162(12) 0.917(3)
H52_2 H 0.6470 0.1887 0.8273
N6_2 N 0.9040(3) 0.30966(10) 0.891(3)
H61_2 H 0.9498 0.3049 0.9875
C85_2 C 0.8689(4) 0.30838(12) 0.917(3)
H64_2 H 0.8530 0.3113 0.8273
Cd9_2 Cd 0.92493(3) 0.320320(7) 0.6583(15)
O15_3 O 0.6565(4) 0.41464(8) 0.022(3)
O16_3 O 0.6677(3) 0.40413(10) 0.265(2)
H96_3 H 0.6351 0.3910 0.0545
C128_3 C 0.6545(4) 0.40620(10) 0.099(3)
Cd11_3 Cd 0.69873(3) 0.415640(7) 0.4347(15)
C113_3 C 0.4840(7) 0.34591(16) 0.065(3)
H85_3 H 0.4862 0.3392 0.1108
C114_3 C 0.4983(5) 0.35306(13) 0.175(3)
H86_3 H 0.5071 0.3514 0.3010
C115_3 C 0.5004(5) 0.36286(13) 0.109(3)
C118_3 C 0.5188(5) 0.37102(12) 0.213(3)
H89_3 H 0.5196 0.3774 0.1514
C119_3 C 0.5347(4) 0.37009(12) 0.390(3)
H90_3 H 0.5323 0.3638 0.4513
C120_3 C 0.5555(4) 0.37774(12) 0.501(3)
C121_3 C 0.5684(5) 0.37505(14) 0.690(3)
H91_3 H 0.5630 0.3687 0.7444
C122_3 C 0.5892(5) 0.38182(13) 0.793(3)
H92_3 H 0.5978 0.3801 0.9191
C123_3 C 0.5975(4) 0.39113(12) 0.714(3)
C124_3 C 0.5858(6) 0.39369(17) 0.524(3)
H93_3 H 0.5926 0.3999 0.4677
C125_3 C 0.5641(5) 0.38709(13) 0.420(3)
H94_3 H 0.5554 0.3889 0.2950
C126_3 C 0.6195(5) 0.39891(11) 0.825(3)
H95_3 H 0.6219 0.4053 0.7670
C127_3 C 0.6354(4) 0.39744(13) 0.996(3)
C136_4 C 0.6556(5) 0.3147(2) 0.030(5)
C138_4 C 0.5935(5) 0.3155(2) 0.090(4)
H104_4 H 0.5709 0.3131 0.0563
C139_4 C 0.5969(5) 0.3217(2) 0.246(4)
C140_4 C 0.6313(6) 0.3242(2) 0.323(5)
H105_4 H 0.6343 0.3281 0.4375
C141_4 C 0.6613(4) 0.3203(2) 0.211(4)
H106_4 H 0.6844 0.3214 0.2575
C142_4 C 0.5649(5) 0.32647(16) 0.356(3)
H107_4 H 0.5690 0.3316 0.4482
C143_4 C 0.5321(4) 0.32347(14) 0.323(3)
H108_4 H 0.5275 0.3185 0.2283
C144_4 C 0.5031(4) 0.32795(12) 0.436(3)
Cd10_3 Cd 0.67493(3) 0.429680(7) 0.9083(15)
C26_4 C 0.3392(5) 0.36818(13) 0.043(3)
H20_4 H 0.3478 0.3699 0.1691
C30_4 C 0.3695(5) 0.35109(11) 0.075(3)
H23_4 H 0.3719 0.3447 0.0170
C31_4 C 0.3854(4) 0.35256(13) 0.246(3)
H24_4 H 0.3851 0.3590 0.3045
C32_4 C 0.4045(4) 0.34380(10) 0.349(3)
C116_3 C 0.4820(5) 0.36466(11) 0.930(4)
H87_3 H 0.4814 0.3713 0.8808
C117_3 C 0.4651(5) 0.35715(12) 0.823(3)
H88_3 H 0.4530 0.3587 0.7055
N9_4 N 0.7733(6) 0.30026(19) 0.348(5)
C129_4 C 0.7437(7) 0.2959(4) 0.333(7)
H97_4 H 0.7398 0.2911 0.2339
C130_4 C 0.7163(8) 0.2984(3) 0.469(6)
H98_4 H 0.6946 0.2950 0.4541
C131_4 C 0.7189(5) 0.3052(2) 0.619(5)
C132_4 C 0.7526(6) 0.30912(18) 0.634(5)
H99_4 H 0.7575 0.3135 0.7394
C133_4 C 0.7785(6) 0.3070(2) 0.508(6)
H100_4 H 0.8007 0.3100 0.5260
C134_4 C 0.6882(5) 0.3071(2) 0.749(4)
H101_4 H 0.6665 0.3045 0.7041
C135_4 C 0.6876(6) 0.3116(2) 0.914(5)
H102_4 H 0.7095 0.3133 0.9693
C137_4 C 0.6232(6) 0.3125(3) 0.973(5)
H103_4 H 0.6195 0.3089 0.8549
N2_4 N 0.2161(4) 0.40276(9) 0.140(2)
C17_4 C 0.2340(7) 0.40409(16) 0.315(3)
H13_4 H 0.2362 0.4108 0.3608
C18_4 C 0.2483(5) 0.39694(13) 0.425(3)
H14_4 H 0.2571 0.3986 0.5510
C19_4 C 0.2504(5) 0.38714(13) 0.359(3)
C20_4 C 0.2320(5) 0.38534(11) 0.180(4)
H15_4 H 0.2314 0.3787 0.1308
C21_4 C 0.2151(5) 0.39285(12) 0.073(3)
C22_4 C 0.2688(5) 0.37898(12) 0.463(3)
H17_4 H 0.2696 0.3726 0.4014
C23_4 C 0.2847(4) 0.37991(12) 0.640(3)
H18_4 H 0.2823 0.3862 0.7013
C24_4 C 0.3055(4) 0.37226(12) 0.751(3)
C25_4 C 0.3184(5) 0.37495(14) 0.940(3)
H19_4 H 0.3130 0.3813 0.9944
C27_4 C 0.3475(4) 0.35887(12) 0.964(3)
C28_4 C 0.3358(6) 0.35631(17) 0.774(3)
H21_4 H 0.3426 0.3501 0.7177
C29_4 C 0.3141(5) 0.36291(13) 0.670(3)
H22_4 H 0.3054 0.3611 0.5450
H16_4 H 0.2030 0.3913 0.9555
Cd7_4 Cd 0.19873(3) 0.415640(7) 0.9347(15)
N2_5 N 0.0339(4) 0.65276(9) 0.390(2)
N4_3 N 0.1028(6) 0.6207(2) 0.922(4)
C17_5 C 0.0160(7) 0.65409(16) 0.565(3)
H13_5 H 0.0138 0.6608 0.6108
C18_5 C 0.0017(5) 0.64694(13) 0.675(3)
C20_5 C 0.0180(5) 0.63534(11) 0.430(4)
H15_5 H 0.0186 0.6287 0.3808
C21_5 C 0.0349(5) 0.64285(12) 0.323(3)
H16_5 H 0.0470 0.6413 0.2055
C49_3 C 0.0688(5) 0.6192(2) 0.863(4)
H37_3 H 0.0607 0.6218 0.7421
C50_3 C 0.0463(6) 0.6137(2) 0.987(3)
H38_3 H 0.0226 0.6131 0.9493
Cd7_5 Cd 0.05127(3) 0.665640(7) 0.1847(15)
O15_4 O 0.5935(4) 0.66464(8) 0.272(3)
O16_4 O 0.5823(3) 0.65413(10) 0.515(2)
C122_4 C 0.6608(5) 0.63182(13) 0.043(3)
H92_4 H 0.6522 0.6301 0.1691
C126_4 C 0.6305(5) 0.64891(11) 0.075(3)
H95_4 H 0.6281 0.6553 0.0170
C127_4 C 0.6146(4) 0.64744(13) 0.246(3)
H96_4 H 0.6149 0.6410 0.3045
C128_4 C 0.5955(4) 0.65620(10) 0.349(3)
Cd10_4 Cd 0.57507(3) 0.679680(7) 0.1583(15)
Cd11_4 Cd 0.55127(3) 0.665640(7) 0.6847(15)
Cd3_3 Cd 0.82507(3) 0.570320(7) 0.4083(15)
O5_3 O 0.7856(3) 0.55777(9) 0.298(2)
O6_3 O 0.8440(3) 0.57550(9) 0.098(2)
O7_3 O 0.8901(3) 0.57015(9) 0.262(2)
C44_3 C 0.6828(6) 0.53609(17) 0.067(5)
H33_3 H 0.6907 0.5338 0.1914
H34_3 H 0.6491 0.5242 0.0114
C46_3 C 0.7267(5) 0.54973(15) 0.090(4)
H35_3 H 0.7379 0.5458 0.1863
C47_3 C 0.7396(4) 0.55905(12) 0.062(3)
C48_3 C 0.7679(4) 0.56378(12) 0.183(3)
H47_3 H 0.9446 0.5761 0.0751
C64_3 C 0.8774(4) 0.57439(12) 0.116(3)
O10_3 O 0.7737(3) 0.57308(8) 0.175(2)
O13_3 O 0.2144(3) 0.44223(9) 0.298(2)
C108_3 C 0.3172(6) 0.46391(17) 0.067(5)
H81_3 H 0.3093 0.4662 0.1914
H82_3 H 0.3509 0.4758 0.0114
C110_3 C 0.2733(5) 0.45027(15) 0.090(4)
H83_3 H 0.2621 0.4542 0.1863
C111_3 C 0.2604(4) 0.44095(12) 0.062(3)
C112_3 C 0.2321(4) 0.43622(12) 0.183(3)
O14_3 O 0.2263(3) 0.42692(8) 0.175(2)
Cd5_3 Cd 0.17493(3) 0.429680(7) 0.4083(15)
N8_2 N 0.7839(4) 0.59724(9) 0.140(2)
C113_4 C 0.7660(7) 0.59591(16) 0.315(3)
H85_4 H 0.7638 0.5892 0.3608
C114_4 C 0.7517(5) 0.60306(13) 0.425(3)
H86_4 H 0.7429 0.6014 0.5510
C115_4 C 0.7496(5) 0.61286(13) 0.359(3)
C116_4 C 0.7680(5) 0.61466(11) 0.180(4)
H87_4 H 0.7686 0.6213 0.1308
C117_4 C 0.7849(5) 0.60715(12) 0.073(3)
C118_4 C 0.7312(5) 0.62102(12) 0.463(3)
H89_4 H 0.7304 0.6274 0.4014
C119_4 C 0.7153(4) 0.62009(12) 0.640(3)
H90_4 H 0.7177 0.6138 0.7013
C120_4 C 0.6945(4) 0.62774(12) 0.751(3)
C121_4 C 0.6816(5) 0.62505(14) 0.940(3)
H91_4 H 0.6870 0.6187 0.9944
C123_4 C 0.6525(4) 0.64113(12) 0.964(3)
C124_4 C 0.6642(6) 0.64369(17) 0.774(3)
H93_4 H 0.6574 0.6499 0.7177
C125_4 C 0.6859(5) 0.63709(13) 0.670(3)
H94_4 H 0.6946 0.6389 0.5450
O17_3 O 0.7784(3) 0.57415(8) 0.674(2)
O18_3 O 0.7416(3) 0.58559(9) 0.806(2)
C135_5 C 0.5624(6) 0.5616(2) 0.164(5)
H102_5 H 0.5405 0.5633 0.2193
C136_5 C 0.5944(5) 0.5647(2) 0.280(5)
C137_5 C 0.6268(6) 0.5625(3) 0.223(5)
H103_5 H 0.6305 0.5589 0.1049
C138_5 C 0.6565(5) 0.5655(2) 0.340(4)
H104_5 H 0.6791 0.5631 0.3063
C139_5 C 0.6531(5) 0.5717(2) 0.496(4)
C140_5 C 0.6187(6) 0.5742(2) 0.573(5)
H105_5 H 0.6157 0.5781 0.6875
C141_5 C 0.5887(4) 0.5703(2) 0.461(4)
H106_5 H 0.5656 0.5714 0.5075
C142_5 C 0.6851(5) 0.57647(16) 0.606(3)
H107_5 H 0.6810 0.5816 0.6982
C143_5 C 0.7179(4) 0.57347(14) 0.573(3)
H108_5 H 0.7225 0.5685 0.4783
C144_5 C 0.7469(4) 0.57795(12) 0.686(3)
O19_3 O 0.1560(3) 0.42450(9) 0.098(2)
O20_3 O 0.1099(3) 0.42985(9) 0.262(2)
H119_3 H 0.0554 0.4239 0.0751
C160_3 C 0.1226(4) 0.42561(12) 0.116(3)
O21_3 O 0.8435(4) 0.58536(8) 0.522(3)
N11_3 N 0.8460(3) 0.55966(10) 0.641(3)
O25_3 O 0.2216(3) 0.42585(8) 0.674(2)
O26_3 O 0.1565(4) 0.41464(8) 0.522(3)
N13_3 N 0.1540(3) 0.44034(10) 0.641(3)
Cd12_2 Cd 0.80127(3) 0.584360(7) 0.9347(15)
O4_3 O 0.8323(3) 0.59587(10) 0.765(2)
N3_3 N 0.5287(4) 0.51124(10) 0.192(3)
C24_5 C 0.9445(4) 0.62226(12) 0.001(3)
C25_5 C 0.9316(5) 0.62495(14) 0.190(3)
H19_5 H 0.9370 0.6313 0.2444
C26_5 C 0.9108(5) 0.61818(13) 0.293(3)
H20_5 H 0.9022 0.6199 0.4191
C27_5 C 0.9025(4) 0.60887(12) 0.214(3)
C28_5 C 0.9142(6) 0.60631(17) 0.024(3)
C30_5 C 0.8805(5) 0.60109(11) 0.325(3)
H23_5 H 0.8781 0.5947 0.2670
C31_5 C 0.8646(4) 0.60256(13) 0.496(3)
H24_5 H 0.8649 0.6090 0.5545
C32_5 C 0.8455(4) 0.59380(10) 0.599(3)
C33_3 C 0.5386(6) 0.52035(14) 0.108(3)
C34_3 C 0.5619(6) 0.52656(14) 0.212(4)
H26_3 H 0.5687 0.5328 0.1566
C35_3 C 0.5755(4) 0.52386(14) 0.398(4)
C36_3 C 0.5633(6) 0.51466(17) 0.482(3)
H27_3 H 0.5711 0.5124 0.6060
C37_3 C 0.5393(5) 0.50912(14) 0.371(3)
H28_3 H 0.5298 0.5033 0.4299
C38_3 C 0.6014(5) 0.53027(13) 0.509(3)
H29_3 H 0.6079 0.5364 0.4488
C39_3 C 0.6159(5) 0.52834(17) 0.677(5)
H30_3 H 0.6091 0.5222 0.7366
C40_3 C 0.6427(6) 0.53469(14) 0.794(4)
C41_3 C 0.6555(8) 0.54387(18) 0.714(4)
H31_3 H 0.6463 0.5465 0.5953
C42_3 C 0.6823(7) 0.54889(18) 0.817(4)
H32_3 H 0.6904 0.5551 0.7693
C43_3 C 0.6970(5) 0.54498(15) 0.986(4)
C45_3 C 0.6567(6) 0.5305(2) 0.965(5)
H36_3 H 0.7301 0.5629 0.9586
C57_3 C 0.9707(6) 0.5913(2) 0.494(4)
H43_3 H 0.9624 0.5933 0.3691
C58_3 C 0.9484(4) 0.58651(16) 0.620(3)
H44_3 H 0.9251 0.5853 0.5808
C59_3 C 0.9601(4) 0.58330(16) 0.813(4)
C60_3 C 0.9947(5) 0.5850(2) 0.873(4)
C62_3 C 0.9346(4) 0.57883(12) 0.960(4)
C63_3 C 0.8998(4) 0.57833(11) 0.947(3)
H48_3 H 0.8887 0.5805 0.8297
N7_3 N 0.4713(4) 0.48876(10) 0.192(3)
C97_3 C 0.4614(6) 0.47965(14) 0.108(3)
C98_3 C 0.4381(6) 0.47344(14) 0.212(4)
H74_3 H 0.4313 0.4672 0.1566
C99_3 C 0.4245(4) 0.47614(14) 0.398(4)
C100_3 C 0.4367(6) 0.48534(17) 0.482(3)
H75_3 H 0.4289 0.4876 0.6060
C101_3 C 0.4607(5) 0.49088(14) 0.371(3)
H76_3 H 0.4702 0.4967 0.4299
C102_3 C 0.3986(5) 0.46973(13) 0.509(3)
H77_3 H 0.3921 0.4636 0.4488
C103_3 C 0.3841(5) 0.47166(17) 0.677(5)
H78_3 H 0.3909 0.4778 0.7366
C104_3 C 0.3573(6) 0.46531(14) 0.794(4)
C105_3 C 0.3445(8) 0.45613(18) 0.714(4)
H79_3 H 0.3537 0.4535 0.5953
C106_3 C 0.3177(7) 0.45111(18) 0.817(4)
H80_3 H 0.3096 0.4449 0.7693
C107_3 C 0.3030(5) 0.45502(15) 0.986(4)
C109_3 C 0.3433(6) 0.4695(2) 0.965(5)
H84_3 H 0.2699 0.4371 0.9586
H88_4 H 0.7970 0.6087 0.9555
N9_5 N 0.4767(6) 0.55026(19) 0.598(5)
C129_5 C 0.5063(7) 0.5459(4) 0.583(7)
H97_5 H 0.5102 0.5411 0.4839
C130_5 C 0.5337(8) 0.5484(3) 0.719(6)
H98_5 H 0.5554 0.5450 0.7041
C131_5 C 0.5311(5) 0.5552(2) 0.869(5)
C132_5 C 0.4974(6) 0.55912(18) 0.884(5)
H99_5 H 0.4925 0.5635 0.9894
C133_5 C 0.4715(6) 0.5570(2) 0.758(6)
H100_5 H 0.4493 0.5600 0.7760
C134_5 C 0.5618(5) 0.5571(2) 0.999(4)
H101_5 H 0.5835 0.5545 0.9541
C153_3 C 0.0293(6) 0.4087(2) 0.494(4)
H115_3 H 0.0376 0.4067 0.3691
C154_3 C 0.0516(4) 0.41349(16) 0.620(3)
H116_3 H 0.0749 0.4147 0.5808
C155_3 C 0.0399(4) 0.41670(16) 0.813(4)
C156_3 C 0.0053(5) 0.4150(2) 0.873(4)
C158_3 C 0.0654(4) 0.42117(12) 0.960(4)
C159_3 C 0.1002(4) 0.42167(11) 0.947(3)
H120_3 H 0.1113 0.4195 0.8297
O23_3 O 0.2584(3) 0.41441(9) 0.806(2)
O24_3 O 0.1677(3) 0.40413(10) 0.765(2)
Cd2_4 Cd 0.5000 0.5000 0.9857(15)
O8_3 O 0.4866(4) 0.51257(13) 0.758(3)
O9_3 O 0.4415(5) 0.50401(12) 0.868(3)
H14_5 H 0.9929 0.6486 0.8010
C19_5 C 0.9996(5) 0.63714(13) 0.609(3)
C22_5 C 0.9812(5) 0.62898(12) 0.713(3)
H17_5 H 0.9804 0.6226 0.6514
C23_5 C 0.9653(4) 0.62991(12) 0.890(3)
H18_5 H 0.9677 0.6362 0.9513
H21_5 H 0.9074 0.6001 0.9677
C29_5 C 0.9359(5) 0.61291(13) 0.920(3)
H22_5 H 0.9446 0.6111 0.7950
H25_3 H 0.5300 0.5223 0.9832
C73_3 C 0.3692(8) 0.52899(17) 0.098(4)
H55_3 H 0.3445 0.5293 0.0901
C74_3 C 0.3848(9) 0.52388(19) 0.263(4)
H56_3 H 0.3713 0.5202 0.3533
C75_3 C 0.4240(8) 0.52482(18) 0.282(4)
C76_3 C 0.4416(6) 0.5296(2) 0.142(3)
H57_3 H 0.4662 0.5300 0.1529
C78_3 C 0.4437(7) 0.52046(17) 0.452(4)
H59_3 H 0.4682 0.5214 0.4523
C79_3 C 0.4306(7) 0.51541(16) 0.602(3)
H60_3 H 0.4061 0.5148 0.6179
C80_3 C 0.4546(6) 0.51062(19) 0.748(4)
O11_3 O 0.5134(4) 0.48743(13) 0.758(3)
O12_3 O 0.5585(5) 0.49599(12) 0.868(3)
C89_3 C 0.6308(8) 0.47101(17) 0.098(4)
H67_3 H 0.6555 0.4707 0.0901
C90_3 C 0.6152(9) 0.47612(19) 0.263(4)
H68_3 H 0.6287 0.4798 0.3533
C91_3 C 0.5760(8) 0.47518(18) 0.282(4)
C92_3 C 0.5584(6) 0.4704(2) 0.142(3)
H69_3 H 0.5338 0.4700 0.1529
C94_3 C 0.5563(7) 0.47954(17) 0.452(4)
H71_3 H 0.5318 0.4786 0.4523
C95_3 C 0.5694(7) 0.48459(16) 0.602(3)
H72_3 H 0.5939 0.4852 0.6179
C96_3 C 0.5454(6) 0.48938(19) 0.748(4)
H73_3 H 0.4700 0.4777 0.9832
N5_3 N 0.3460(3) 0.55966(10) 0.141(3)
C65_3 C 0.3245(4) 0.55471(13) 0.264(3)
H49_3 H 0.3002 0.5549 0.2375
C66_3 C 0.3356(5) 0.54927(11) 0.430(3)
H50_3 H 0.3191 0.5464 0.5181
C67_3 C 0.3718(5) 0.54816(13) 0.461(3)
C68_3 C 0.3938(4) 0.55278(13) 0.326(3)
H51_3 H 0.4183 0.5521 0.3411
C69_3 C 0.3811(4) 0.55838(12) 0.167(3)
H52_3 H 0.3970 0.5613 0.0773
C70_3 C 0.3877(5) 0.54211(15) 0.630(3)
H53_3 H 0.4120 0.5407 0.6240
C71_3 C 0.3708(6) 0.53875(15) 0.782(3)
H54_3 H 0.3463 0.5397 0.7861
C72_3 C 0.3885(7) 0.53338(16) 0.952(4)
C77_3 C 0.4255(7) 0.5341(2) 0.980(4)
H58_3 H 0.4393 0.5376 0.8873
N6_3 N 0.6540(3) 0.44034(10) 0.141(3)
C81_3 C 0.6755(4) 0.44529(13) 0.264(3)
H61_3 H 0.6998 0.4451 0.2375
C82_3 C 0.6644(5) 0.45073(11) 0.430(3)
H62_3 H 0.6809 0.4536 0.5181
C83_3 C 0.6282(5) 0.45184(13) 0.461(3)
C84_3 C 0.6062(4) 0.44722(13) 0.326(3)
H63_3 H 0.5817 0.4479 0.3411
C85_3 C 0.6189(4) 0.44162(12) 0.167(3)
H64_3 H 0.6030 0.4387 0.0773
C86_3 C 0.6123(5) 0.45789(15) 0.630(3)
H65_3 H 0.5880 0.4593 0.6240
C87_3 C 0.6292(6) 0.46125(15) 0.782(3)
H66_3 H 0.6537 0.4603 0.7861
C88_3 C 0.6115(7) 0.46662(16) 0.952(4)
C93_3 C 0.5745(7) 0.4659(2) 0.980(4)
H70_3 H 0.5607 0.4624 0.8873
Cd8_2 Cd 0.32507(3) 0.570320(7) 0.9083(15)
N10_3 N 0.8972(6) 0.3793(2) 0.922(4)
C145_3 C 0.9312(5) 0.3808(2) 0.863(4)
H109_3 H 0.9393 0.3782 0.7421
C146_3 C 0.9537(6) 0.3863(2) 0.987(3)
H110_3 H 0.9774 0.3869 0.9493
C135_6 C 0.4376(6) 0.4384(2) 0.164(5)
H102_6 H 0.4595 0.4367 0.2193
C136_6 C 0.4056(5) 0.4353(2) 0.280(5)
C137_6 C 0.3732(6) 0.4375(3) 0.223(5)
H103_6 H 0.3695 0.4411 0.1049
C138_6 C 0.3435(5) 0.4345(2) 0.340(4)
H104_6 H 0.3209 0.4369 0.3063
C139_6 C 0.3469(5) 0.4283(2) 0.496(4)
C140_6 C 0.3813(6) 0.4258(2) 0.573(5)
H105_6 H 0.3843 0.4219 0.6875
C141_6 C 0.4113(4) 0.4297(2) 0.461(4)
H106_6 H 0.4344 0.4286 0.5075
C142_6 C 0.3149(5) 0.42353(16) 0.606(3)
H107_6 H 0.3190 0.4184 0.6982
C143_6 C 0.2821(4) 0.42653(14) 0.573(3)
H108_6 H 0.2775 0.4315 0.4783
C144_6 C 0.2531(4) 0.42205(12) 0.686(3)
C24_6 C 0.0555(4) 0.37774(12) 0.001(3)
C25_6 C 0.0684(5) 0.37505(14) 0.190(3)
H19_6 H 0.0630 0.3687 0.2444
C26_6 C 0.0892(5) 0.38182(13) 0.293(3)
H20_6 H 0.0978 0.3801 0.4191
C27_6 C 0.0975(4) 0.39113(12) 0.214(3)
C28_6 C 0.0858(6) 0.39369(17) 0.024(3)
C30_6 C 0.1195(5) 0.39891(11) 0.325(3)
H23_6 H 0.1219 0.4053 0.2670
C31_6 C 0.1354(4) 0.39744(13) 0.496(3)
H24_6 H 0.1351 0.3910 0.5545
C32_6 C 0.1545(4) 0.40620(10) 0.599(3)
N9_6 N 0.5233(6) 0.44974(19) 0.598(5)
C129_6 C 0.4937(7) 0.4541(4) 0.583(7)
H97_6 H 0.4898 0.4589 0.4839
C130_6 C 0.4663(8) 0.4516(3) 0.719(6)
H98_6 H 0.4446 0.4550 0.7041
C131_6 C 0.4689(5) 0.4448(2) 0.869(5)
C132_6 C 0.5026(6) 0.44088(18) 0.884(5)
H99_6 H 0.5075 0.4365 0.9894
C133_6 C 0.5285(6) 0.4430(2) 0.758(6)
H100_6 H 0.5507 0.4400 0.7760
C134_6 C 0.4382(5) 0.4429(2) 0.999(4)
H101_6 H 0.4165 0.4455 0.9541
H14_6 H 0.0071 0.3514 0.8010
C19_6 C 0.0004(5) 0.36286(13) 0.609(3)
C22_6 C 0.0188(5) 0.37102(12) 0.713(3)
H17_6 H 0.0196 0.3774 0.6514
C23_6 C 0.0347(4) 0.37009(12) 0.890(3)
H18_6 H 0.0323 0.3638 0.9513
H21_6 H 0.0926 0.3999 0.9677
C29_6 C 0.0641(5) 0.38709(13) 0.920(3)
H22_6 H 0.0554 0.3889 0.7950
N2_6 N 0.9661(4) 0.34724(9) 0.390(2)
C17_6 C 0.9840(7) 0.34591(16) 0.565(3)
H13_6 H 0.9862 0.3392 0.6108
C18_6 C 0.9983(5) 0.35306(13) 0.675(3)
C20_6 C 0.9820(5) 0.36466(11) 0.430(4)
H15_6 H 0.9814 0.3713 0.3808
C21_6 C 0.9651(5) 0.35715(12) 0.323(3)
H16_6 H 0.9530 0.3587 0.2055
Cd7_6 Cd 0.94873(3) 0.334360(7) 0.1847(15)
Cd3_4 Cd 0.07507(3) 0.679680(7) 0.6583(15)
O4_4 O 0.0823(3) 0.65413(10) 0.015(2)
O5_4 O 0.0356(3) 0.69223(9) 0.548(2)
O6_4 O 0.0940(3) 0.67450(9) 0.348(2)
O7_4 O 0.1401(3) 0.67985(9) 0.512(2)
C48_4 C 0.0179(4) 0.68622(12) 0.433(3)
C59_4 C 0.2101(4) 0.66670(16) 0.063(4)
C60_4 C 0.2447(5) 0.6650(2) 0.123(4)
H45_3 H 0.2526 0.6669 0.2494
H46_3 H 0.2914 0.6598 0.0151
C62_4 C 0.1846(4) 0.67117(12) 0.210(4)
H47_4 H 0.1946 0.6739 0.3251
C63_4 C 0.1498(4) 0.67167(11) 0.197(3)
H48_4 H 0.1387 0.6695 0.0797
C64_4 C 0.1274(4) 0.67561(12) 0.366(3)
O10_4 O 0.0237(3) 0.67692(8) 0.425(2)
O17_4 O 0.0284(3) 0.67585(8) 0.924(2)
O21_4 O 0.0935(4) 0.66464(8) 0.772(3)
N11_4 N 0.0960(3) 0.69034(10) 0.891(3)
N4_4 N 0.3528(6) 0.6293(2) 0.172(4)
H14_7 H 0.2429 0.6014 0.0510
C23_7 C 0.2153(4) 0.62009(12) 0.140(3)
H18_7 H 0.2177 0.6138 0.2013
C24_7 C 0.1945(4) 0.62774(12) 0.251(3)
C25_7 C 0.1816(5) 0.62505(14) 0.440(3)
H19_7 H 0.1870 0.6187 0.4944
C26_7 C 0.1608(5) 0.63182(13) 0.543(3)
H20_7 H 0.1522 0.6301 0.6691
C27_7 C 0.1525(4) 0.64113(12) 0.464(3)
C28_7 C 0.1642(6) 0.64369(17) 0.274(3)
H21_7 H 0.1574 0.6499 0.2177
C29_7 C 0.1859(5) 0.63709(13) 0.170(3)
H22_7 H 0.1946 0.6389 0.0450
C30_7 C 0.1305(5) 0.64891(11) 0.575(3)
H23_7 H 0.1281 0.6553 0.5170
C31_7 C 0.1146(4) 0.64744(13) 0.746(3)
H24_7 H 0.1149 0.6410 0.8045
C32_7 C 0.0955(4) 0.65620(10) 0.849(3)
C49_4 C 0.3188(5) 0.6308(2) 0.113(4)
C50_4 C 0.2963(6) 0.6363(2) 0.237(3)
H38_4 H 0.2726 0.6369 0.1993
C51_3 C 0.3065(5) 0.6410(2) 0.414(3)
C52_3 C 0.3422(6) 0.6396(4) 0.447(6)
H39_3 H 0.3520 0.6428 0.5568
C53_3 C 0.3638(9) 0.6340(3) 0.338(4)
H40_3 H 0.3875 0.6333 0.3769
C54_3 C 0.2790(11) 0.6464(2) 0.519(5)
H41_3 H 0.2566 0.6465 0.4601
C55_3 C 0.2820(7) 0.6511(3) 0.685(5)
H42_3 H 0.3046 0.6508 0.7419
C56_3 C 0.2565(6) 0.6567(2) 0.797(5)
C57_4 C 0.2207(6) 0.6587(2) 0.744(4)
H43_4 H 0.2124 0.6567 0.6191
C58_4 C 0.1984(4) 0.66349(16) 0.870(3)
H44_4 H 0.1751 0.6647 0.8308
C61_3 C 0.2674(6) 0.6604(2) 0.982(5)
N2_7 N 0.2839(4) 0.59724(9) 0.640(2)
C17_7 C 0.2660(7) 0.59591(16) 0.815(3)
H13_7 H 0.2638 0.5892 0.8608
C18_7 C 0.2517(5) 0.60306(13) 0.925(3)
C19_7 C 0.2496(5) 0.61286(13) 0.859(3)
C20_7 C 0.2680(5) 0.61466(11) 0.680(4)
H15_7 H 0.2686 0.6213 0.6308
C21_7 C 0.2849(5) 0.60715(12) 0.573(3)
H16_7 H 0.2970 0.6087 0.4555
C22_7 C 0.2312(5) 0.62102(12) 0.963(3)
H17_7 H 0.2304 0.6274 0.9014
H37_4 H 0.3107 0.6282 0.9921
Cd7_7 Cd 0.30127(3) 0.584360(7) 0.4347(15)
O18_4 O 0.9916(3) 0.66441(9) 0.056(2)
C40_4 C 0.8927(6) 0.71531(14) 0.044(4)
C42_4 C 0.9323(7) 0.70111(18) 0.067(4)
H32_4 H 0.9404 0.6949 0.0193
C43_4 C 0.9470(5) 0.70502(15) 0.236(4)
C44_4 C 0.9328(6) 0.71391(17) 0.317(5)
H33_4 H 0.9407 0.7162 0.4414
C45_4 C 0.9067(6) 0.7195(2) 0.215(5)
H34_4 H 0.8991 0.7258 0.2614
C46_4 C 0.9767(5) 0.70027(15) 0.340(4)
H35_4 H 0.9879 0.7042 0.4363
C47_4 C 0.9896(4) 0.69095(12) 0.312(3)
H36_4 H 0.9801 0.6871 0.2086
O13_4 O 0.4644(3) 0.80777(9) 0.548(2)
C104_4 C 0.6073(6) 0.78469(14) 0.044(4)
C106_4 C 0.5677(7) 0.79889(18) 0.067(4)
H80_4 H 0.5596 0.8051 0.0193
C107_4 C 0.5530(5) 0.79498(15) 0.236(4)
C108_4 C 0.5672(6) 0.78609(17) 0.317(5)
H81_4 H 0.5593 0.7838 0.4414
C109_4 C 0.5933(6) 0.7805(2) 0.215(5)
H82_4 H 0.6009 0.7742 0.2614
C110_4 C 0.5233(5) 0.79973(15) 0.340(4)
H83_4 H 0.5121 0.7958 0.4363
C111_4 C 0.5104(4) 0.80905(12) 0.312(3)
H84_4 H 0.5199 0.8129 0.2086
C112_4 C 0.4821(4) 0.81378(12) 0.433(3)
O14_4 O 0.4763(3) 0.82308(8) 0.425(2)
C131_7 C 0.7811(5) 0.6948(2) 0.119(5)
C132_7 C 0.7474(6) 0.69088(18) 0.134(5)
H99_7 H 0.7425 0.6865 0.2394
C133_7 C 0.7215(6) 0.6930(2) 0.008(6)
H100_7 H 0.6993 0.6900 0.0260
C134_7 C 0.8118(5) 0.6929(2) 0.249(4)
H101_7 H 0.8335 0.6955 0.2041
C135_7 C 0.8124(6) 0.6884(2) 0.414(5)
H102_7 H 0.7905 0.6867 0.4693
C136_7 C 0.8444(5) 0.6853(2) 0.530(5)
C137_7 C 0.8768(6) 0.6875(3) 0.473(5)
H103_7 H 0.8805 0.6911 0.3549
C138_7 C 0.9065(5) 0.6845(2) 0.590(4)
H104_7 H 0.9291 0.6869 0.5563
C139_7 C 0.9031(5) 0.6783(2) 0.746(4)
C140_7 C 0.8687(6) 0.6758(2) 0.823(5)
H105_7 H 0.8657 0.6719 0.9375
C141_7 C 0.8387(4) 0.6797(2) 0.711(4)
H106_7 H 0.8156 0.6786 0.7575
C142_7 C 0.9351(5) 0.67353(16) 0.856(3)
H107_7 H 0.9310 0.6684 0.9482
C143_7 C 0.9679(4) 0.67653(14) 0.823(3)
H108_7 H 0.9725 0.6815 0.7283
C144_7 C 0.9969(4) 0.67205(12) 0.936(3)
O19_4 O 0.4060(3) 0.82550(9) 0.348(2)
O20_4 O 0.3599(3) 0.82015(9) 0.512(2)
C155_4 C 0.2899(4) 0.83330(16) 0.063(4)
C156_4 C 0.2553(5) 0.8350(2) 0.123(4)
H117_2 H 0.2474 0.8331 0.2494
H118_2 H 0.2086 0.8402 0.0151
C158_4 C 0.3154(4) 0.82883(12) 0.210(4)
H119_4 H 0.3054 0.8261 0.3251
C159_4 C 0.3502(4) 0.82833(11) 0.197(3)
H120_4 H 0.3613 0.8305 0.0797
C160_4 C 0.3726(4) 0.82439(12) 0.366(3)
O23_4 O 0.5084(3) 0.83559(9) 0.056(2)
N12_3 N 0.4661(4) 0.84724(9) 0.390(2)
O25_4 O 0.4716(3) 0.82415(8) 0.924(2)
N13_4 N 0.4040(3) 0.80966(10) 0.891(3)
Cd2_5 Cd 0.7500 0.7500 0.2357(15)
O8_4 O 0.7366(4) 0.73743(13) 0.008(3)
O9_4 O 0.6915(5) 0.74599(12) 0.118(3)
N3_4 N 0.7787(4) 0.73876(10) 0.442(3)
C33_4 C 0.7886(6) 0.72965(14) 0.358(3)
H25_4 H 0.7800 0.7277 0.2332
C34_4 C 0.8119(6) 0.72344(14) 0.462(4)
H26_4 H 0.8187 0.7172 0.4066
C35_4 C 0.8255(4) 0.72614(14) 0.648(4)
C36_4 C 0.8133(6) 0.73534(17) 0.732(3)
H27_4 H 0.8211 0.7376 0.8560
C37_4 C 0.7893(5) 0.74088(14) 0.621(3)
H28_4 H 0.7798 0.7467 0.6799
C38_4 C 0.8514(5) 0.71973(13) 0.759(3)
H29_4 H 0.8579 0.7136 0.6988
C39_4 C 0.8659(5) 0.72166(17) 0.927(5)
H30_4 H 0.8591 0.7278 0.9866
C41_4 C 0.9055(8) 0.70613(18) 0.964(4)
H31_4 H 0.8963 0.7035 0.8453
O11_4 O 0.7634(4) 0.76257(13) 0.008(3)
O12_4 O 0.8085(5) 0.75401(12) 0.118(3)
N7_4 N 0.7213(4) 0.76124(10) 0.442(3)
C97_4 C 0.7114(6) 0.77035(14) 0.358(3)
H73_4 H 0.7200 0.7723 0.2332
C98_4 C 0.6881(6) 0.77656(14) 0.462(4)
H74_4 H 0.6813 0.7828 0.4066
C99_4 C 0.6745(4) 0.77386(14) 0.648(4)
C100_4 C 0.6867(6) 0.76466(17) 0.732(3)
H75_4 H 0.6789 0.7624 0.8560
C101_4 C 0.7107(5) 0.75912(14) 0.621(3)
H76_4 H 0.7202 0.7533 0.6799
C102_4 C 0.6486(5) 0.78027(13) 0.759(3)
H77_4 H 0.6421 0.7864 0.6988
C103_4 C 0.6341(5) 0.77834(17) 0.927(5)
H78_4 H 0.6409 0.7722 0.9866
C105_4 C 0.5945(8) 0.79387(18) 0.964(4)
H79_4 H 0.6037 0.7965 0.8453
N9_7 N 0.7267(6) 0.69974(19) 0.848(5)
C129_7 C 0.7563(7) 0.7041(4) 0.833(7)
H97_7 H 0.7602 0.7089 0.7339
C130_7 C 0.7837(8) 0.7016(3) 0.969(6)
H98_7 H 0.8054 0.7050 0.9541
N10_4 N 0.1472(6) 0.8707(2) 0.172(4)
C145_4 C 0.1812(5) 0.8692(2) 0.113(4)
C146_4 C 0.2037(6) 0.8637(2) 0.237(3)
H110_4 H 0.2274 0.8631 0.1993
C147_3 C 0.1935(5) 0.8590(2) 0.414(3)
C148_3 C 0.1578(6) 0.8604(4) 0.447(6)
H111_3 H 0.1480 0.8572 0.5568
C149_3 C 0.1362(9) 0.8660(3) 0.338(4)
H112_3 H 0.1125 0.8667 0.3769
C150_3 C 0.2210(11) 0.8536(2) 0.519(5)
H113_3 H 0.2434 0.8535 0.4601
C151_3 C 0.2180(7) 0.8489(3) 0.685(5)
H114_3 H 0.1954 0.8492 0.7419
C152_2 C 0.2435(6) 0.8433(2) 0.797(5)
C153_4 C 0.2793(6) 0.8413(2) 0.744(4)
H115_4 H 0.2876 0.8433 0.6191
C154_4 C 0.3016(4) 0.83651(16) 0.870(3)
H116_4 H 0.3249 0.8353 0.8308
C157_2 C 0.2326(6) 0.8396(2) 0.982(5)
C71_4 C 0.6208(6) 0.71125(15) 0.032(3)
H54_4 H 0.5963 0.7103 0.0361
C72_4 C 0.6385(7) 0.71662(16) 0.202(4)
C73_4 C 0.6192(8) 0.72101(17) 0.348(4)
H55_4 H 0.5945 0.7207 0.3401
C74_4 C 0.6348(9) 0.72612(19) 0.513(4)
H56_4 H 0.6213 0.7298 0.6033
C75_4 C 0.6740(8) 0.72518(18) 0.532(4)
C76_4 C 0.6916(6) 0.7204(2) 0.392(3)
H57_4 H 0.7162 0.7200 0.4029
C77_4 C 0.6755(7) 0.7159(2) 0.230(4)
H58_4 H 0.6893 0.7124 0.1373
C78_4 C 0.6937(7) 0.72954(17) 0.702(4)
H59_4 H 0.7182 0.7286 0.7023
C79_4 C 0.6806(7) 0.73459(16) 0.852(3)
H60_4 H 0.6561 0.7352 0.8679
C80_4 C 0.7046(6) 0.73938(19) 0.998(4)
C87_4 C 0.8792(6) 0.78875(15) 0.032(3)
H66_4 H 0.9037 0.7897 0.0361
C88_4 C 0.8615(7) 0.78338(16) 0.202(4)
C89_4 C 0.8808(8) 0.77899(17) 0.348(4)
H67_4 H 0.9055 0.7793 0.3401
C90_4 C 0.8652(9) 0.77388(19) 0.513(4)
H68_4 H 0.8787 0.7702 0.6033
C91_4 C 0.8260(8) 0.77482(18) 0.532(4)
C92_4 C 0.8084(6) 0.7796(2) 0.392(3)
H69_4 H 0.7838 0.7800 0.4029
C93_4 C 0.8245(7) 0.7841(2) 0.230(4)
H70_4 H 0.8107 0.7876 0.1373
C94_4 C 0.8063(7) 0.77046(17) 0.702(4)
H71_4 H 0.7818 0.7714 0.7023
C95_4 C 0.8194(7) 0.76541(16) 0.852(3)
H72_4 H 0.8439 0.7648 0.8679
C96_4 C 0.7954(6) 0.76062(19) 0.998(4)
H109_4 H 0.1893 0.8718 0.9921
N5_4 N 0.5960(3) 0.69034(10) 0.391(3)
C65_4 C 0.5745(4) 0.69529(13) 0.514(3)
H49_4 H 0.5502 0.6951 0.4875
C66_4 C 0.5856(5) 0.70073(11) 0.680(3)
H50_4 H 0.5691 0.7036 0.7681
C67_4 C 0.6218(5) 0.70184(13) 0.711(3)
C68_4 C 0.6438(4) 0.69722(13) 0.576(3)
H51_4 H 0.6683 0.6979 0.5911
C69_4 C 0.6311(4) 0.69162(12) 0.417(3)
H52_4 H 0.6470 0.6887 0.3273
C70_4 C 0.6377(5) 0.70789(15) 0.880(3)
H53_4 H 0.6620 0.7093 0.8740
N6_4 N 0.9040(3) 0.80966(10) 0.391(3)
C81_4 C 0.9255(4) 0.80471(13) 0.514(3)
H61_4 H 0.9498 0.8049 0.4875
C82_4 C 0.9144(5) 0.79927(11) 0.680(3)
H62_4 H 0.9309 0.7964 0.7681
C83_4 C 0.8782(5) 0.79816(13) 0.711(3)
C84_4 C 0.8562(4) 0.80278(13) 0.576(3)
H63_4 H 0.8317 0.8021 0.5911
C85_4 C 0.8689(4) 0.80838(12) 0.417(3)
H64_4 H 0.8530 0.8113 0.3273
C86_4 C 0.8623(5) 0.79211(15) 0.880(3)
H65_4 H 0.8380 0.7907 0.8740
Cd9_3 Cd 0.92493(3) 0.820320(7) 0.1583(15)
O15_5 O 0.6565(4) 0.91464(8) 0.522(3)
O16_5 O 0.6677(3) 0.90413(10) 0.765(2)
C120_5 C 0.5555(4) 0.87774(12) 0.001(3)
C121_5 C 0.5684(5) 0.87505(14) 0.190(3)
H91_5 H 0.5630 0.8687 0.2444
C122_5 C 0.5892(5) 0.88182(13) 0.293(3)
H92_5 H 0.5978 0.8801 0.4191
C123_5 C 0.5975(4) 0.89113(12) 0.214(3)
C124_5 C 0.5858(6) 0.89369(17) 0.024(3)
C126_5 C 0.6195(5) 0.89891(11) 0.325(3)
H95_5 H 0.6219 0.9053 0.2670
C127_5 C 0.6354(4) 0.89744(13) 0.496(3)
H96_5 H 0.6351 0.8910 0.5545
C128_5 C 0.6545(4) 0.90620(10) 0.599(3)
Cd11_5 Cd 0.69873(3) 0.915640(7) 0.9347(15)
C113_5 C 0.4840(7) 0.84591(16) 0.565(3)
H85_5 H 0.4862 0.8392 0.6108
C114_5 C 0.4983(5) 0.85306(13) 0.675(3)
H86_5 H 0.5071 0.8514 0.8010
C115_5 C 0.5004(5) 0.86286(13) 0.609(3)
C116_5 C 0.4820(5) 0.86466(11) 0.430(4)
H87_5 H 0.4814 0.8713 0.3808
C117_5 C 0.4651(5) 0.85715(12) 0.323(3)
H88_5 H 0.4530 0.8587 0.2055
C118_5 C 0.5188(5) 0.87102(12) 0.713(3)
H89_5 H 0.5196 0.8774 0.6514
C119_5 C 0.5347(4) 0.87009(12) 0.890(3)
H90_5 H 0.5323 0.8638 0.9513
H93_5 H 0.5926 0.8999 0.9677
C125_5 C 0.5641(5) 0.88709(13) 0.920(3)
H94_5 H 0.5554 0.8889 0.7950
C131_8 C 0.7189(5) 0.8052(2) 0.119(5)
C132_8 C 0.7526(6) 0.80912(18) 0.134(5)
H99_8 H 0.7575 0.8135 0.2394
C133_8 C 0.7785(6) 0.8070(2) 0.008(6)
H100_8 H 0.8007 0.8100 0.0260
C134_8 C 0.6882(5) 0.8071(2) 0.249(4)
H101_8 H 0.6665 0.8045 0.2041
C135_8 C 0.6876(6) 0.8116(2) 0.414(5)
H102_8 H 0.7095 0.8133 0.4693
C136_8 C 0.6556(5) 0.8147(2) 0.530(5)
C137_8 C 0.6232(6) 0.8125(3) 0.473(5)
H103_8 H 0.6195 0.8089 0.3549
C138_8 C 0.5935(5) 0.8155(2) 0.590(4)
H104_8 H 0.5709 0.8131 0.5563
C139_8 C 0.5969(5) 0.8217(2) 0.746(4)
C140_8 C 0.6313(6) 0.8242(2) 0.823(5)
H105_8 H 0.6343 0.8281 0.9375
C141_8 C 0.6613(4) 0.8203(2) 0.711(4)
H106_8 H 0.6844 0.8214 0.7575
C142_8 C 0.5649(5) 0.82647(16) 0.856(3)
H107_8 H 0.5690 0.8316 0.9482
C143_8 C 0.5321(4) 0.82347(14) 0.823(3)
H108_8 H 0.5275 0.8185 0.7283
C144_8 C 0.5031(4) 0.82795(12) 0.936(3)
N9_8 N 0.7733(6) 0.80026(19) 0.848(5)
C129_8 C 0.7437(7) 0.7959(4) 0.833(7)
H97_8 H 0.7398 0.7911 0.7339
C130_8 C 0.7163(8) 0.7984(3) 0.969(6)
H98_8 H 0.6946 0.7950 0.9541
O5_5 O 0.2856(3) 0.05777(9) 0.298(2)
O6_5 O 0.3440(3) 0.07550(9) 0.098(2)
O7_5 O 0.3901(3) 0.07015(9) 0.262(2)
C44_5 C 0.1828(6) 0.03609(17) 0.067(5)
H33_5 H 0.1907 0.0338 0.1914
H34_5 H 0.1491 0.0242 0.0114
C46_5 C 0.2267(5) 0.04973(15) 0.090(4)
H35_5 H 0.2379 0.0458 0.1863
C47_5 C 0.2396(4) 0.05905(12) 0.062(3)
C48_5 C 0.2679(4) 0.06378(12) 0.183(3)
H47_5 H 0.4446 0.0761 0.0751
C64_5 C 0.3774(4) 0.07439(12) 0.116(3)
O10_5 O 0.2737(3) 0.07308(8) 0.175(2)
O17_5 O 0.2784(3) 0.07415(8) 0.674(2)
O18_5 O 0.2416(3) 0.08559(9) 0.806(2)
C135_9 C 0.0624(6) 0.0616(2) 0.164(5)
H102_9 H 0.0405 0.0633 0.2193
C136_9 C 0.0944(5) 0.0647(2) 0.280(5)
C137_9 C 0.1268(6) 0.0625(3) 0.223(5)
H103_9 H 0.1305 0.0589 0.1049
C138_9 C 0.1565(5) 0.0655(2) 0.340(4)
H104_9 H 0.1791 0.0631 0.3063
C139_9 C 0.1531(5) 0.0717(2) 0.496(4)
C140_9 C 0.1187(6) 0.0742(2) 0.573(5)
H105_9 H 0.1157 0.0781 0.6875
C141_9 C 0.0887(4) 0.0703(2) 0.461(4)
H106_9 H 0.0656 0.0714 0.5075
C142_9 C 0.1851(5) 0.07647(16) 0.606(3)
H107_9 H 0.1810 0.0816 0.6982
C143_9 C 0.2179(4) 0.07347(14) 0.573(3)
H108_9 H 0.2225 0.0685 0.4783
C144_9 C 0.2469(4) 0.07795(12) 0.686(3)
O21_5 O 0.3435(4) 0.08536(8) 0.522(3)
O4_5 O 0.3323(3) 0.09587(10) 0.765(2)
N3_5 N 0.0287(4) 0.01124(10) 0.192(3)
C24_8 C 0.4445(4) 0.12226(12) 0.001(3)
C25_8 C 0.4316(5) 0.12495(14) 0.190(3)
H19_8 H 0.4370 0.1313 0.2444
C26_8 C 0.4108(5) 0.11818(13) 0.293(3)
H20_8 H 0.4022 0.1199 0.4191
C27_8 C 0.4025(4) 0.10887(12) 0.214(3)
C28_8 C 0.4142(6) 0.10631(17) 0.024(3)
C30_8 C 0.3805(5) 0.10109(11) 0.325(3)
H23_8 H 0.3781 0.0947 0.2670
C31_8 C 0.3646(4) 0.10256(13) 0.496(3)
H24_8 H 0.3649 0.1090 0.5545
C32_8 C 0.3455(4) 0.09380(10) 0.599(3)
C33_5 C 0.0386(6) 0.02035(14) 0.108(3)
C34_5 C 0.0619(6) 0.02656(14) 0.212(4)
H26_5 H 0.0687 0.0328 0.1566
C35_5 C 0.0755(4) 0.02386(14) 0.398(4)
C36_5 C 0.0633(6) 0.01466(17) 0.482(3)
H27_5 H 0.0711 0.0124 0.6060
C37_5 C 0.0393(5) 0.00912(14) 0.371(3)
H28_5 H 0.0298 0.0033 0.4299
C38_5 C 0.1014(5) 0.03027(13) 0.509(3)
H29_5 H 0.1079 0.0364 0.4488
C39_5 C 0.1159(5) 0.02834(17) 0.677(5)
H30_5 H 0.1091 0.0222 0.7366
C40_5 C 0.1427(6) 0.03469(14) 0.794(4)
C41_5 C 0.1555(8) 0.04387(18) 0.714(4)
H31_5 H 0.1463 0.0465 0.5953
C42_5 C 0.1823(7) 0.04889(18) 0.817(4)
H32_5 H 0.1904 0.0551 0.7693
C43_5 C 0.1970(5) 0.04498(15) 0.986(4)
C45_5 C 0.1567(6) 0.0305(2) 0.965(5)
H36_5 H 0.2301 0.0629 0.9586
C51_4 C 0.5565(5) 0.1090(2) 0.164(3)
C52_4 C 0.5922(6) 0.1104(4) 0.197(6)
H39_4 H 0.6020 0.1072 0.3068
C53_4 C 0.6138(9) 0.1160(3) 0.088(4)
H40_4 H 0.6375 0.1167 0.1269
C54_4 C 0.5290(11) 0.1036(2) 0.269(5)
H41_4 H 0.5066 0.1035 0.2101
C55_4 C 0.5320(7) 0.0989(3) 0.435(5)
H42_4 H 0.5546 0.0992 0.4919
C56_4 C 0.5065(6) 0.0933(2) 0.547(5)
C57_5 C 0.4707(6) 0.0913(2) 0.494(4)
H43_5 H 0.4624 0.0933 0.3691
C58_5 C 0.4484(4) 0.08651(16) 0.620(3)
H44_5 H 0.4251 0.0853 0.5808
C59_5 C 0.4601(4) 0.08330(16) 0.813(4)
C60_5 C 0.4947(5) 0.0850(2) 0.873(4)
H45_4 H 0.5026 0.0831 0.9994
C61_4 C 0.5174(6) 0.0896(2) 0.732(5)
H46_4 H 0.5414 0.0902 0.7651
C62_5 C 0.4346(4) 0.07883(12) 0.960(4)
C63_5 C 0.3998(4) 0.07833(11) 0.947(3)
H48_5 H 0.3887 0.0805 0.8297
C129_9 C 0.0063(7) 0.0459(4) 0.583(7)
H97_9 H 0.0102 0.0411 0.4839
C130_9 C 0.0337(8) 0.0484(3) 0.719(6)
H98_9 H 0.0554 0.0450 0.7041
C131_9 C 0.0311(5) 0.0552(2) 0.869(5)
C134_9 C 0.0618(5) 0.0571(2) 0.999(4)
H101_9 H 0.0835 0.0545 0.9541
Cd2_6 Cd -0.0000 0.0000 0.9857(15)
N2_8 N 0.5339(4) 0.15276(9) 0.390(2)
N4_5 N 0.6028(6) 0.1207(2) 0.922(4)
C17_8 C 0.5160(7) 0.15409(16) 0.565(3)
H13_8 H 0.5138 0.1608 0.6108
C18_8 C 0.5017(5) 0.14694(13) 0.675(3)
H14_8 H 0.4929 0.1486 0.8010
C19_8 C 0.4996(5) 0.13714(13) 0.609(3)
C20_8 C 0.5180(5) 0.13534(11) 0.430(4)
H15_8 H 0.5186 0.1287 0.3808
C21_8 C 0.5349(5) 0.14285(12) 0.323(3)
H16_8 H 0.5470 0.1413 0.2055
C22_8 C 0.4812(5) 0.12898(12) 0.713(3)
H17_8 H 0.4804 0.1226 0.6514
C23_8 C 0.4653(4) 0.12991(12) 0.890(3)
H18_8 H 0.4677 0.1362 0.9513
H21_8 H 0.4074 0.1001 0.9677
C29_8 C 0.4359(5) 0.11291(13) 0.920(3)
H22_8 H 0.4446 0.1111 0.7950
H25_5 H 0.0300 0.0223 0.9832
C49_5 C 0.5688(5) 0.1192(2) 0.863(4)
H37_5 H 0.5607 0.1218 0.7421
C50_5 C 0.5463(6) 0.1137(2) 0.987(3)
H38_5 H 0.5226 0.1131 0.9493
C81_5 C 0.1755(4) 0.94529(13) 0.264(3)
H61_5 H 0.1998 0.9451 0.2375
C82_5 C 0.1644(5) 0.95073(11) 0.430(3)
H62_5 H 0.1809 0.9536 0.5181
C83_5 C 0.1282(5) 0.95184(13) 0.461(3)
C84_5 C 0.1062(4) 0.94722(13) 0.326(3)
H63_5 H 0.0817 0.9479 0.3411
C85_5 C 0.1189(4) 0.94162(12) 0.167(3)
H64_5 H 0.1030 0.9387 0.0773
C86_5 C 0.1123(5) 0.95789(15) 0.630(3)
H65_5 H 0.0880 0.9593 0.6240
C87_5 C 0.1292(6) 0.96125(15) 0.782(3)
H66_5 H 0.1537 0.9603 0.7861
C88_5 C 0.1115(7) 0.96662(16) 0.952(4)
C93_5 C 0.0745(7) 0.9659(2) 0.980(4)
H70_5 H 0.0607 0.9624 0.8873
C65_5 C 0.8245(4) 0.05471(13) 0.264(3)
H49_5 H 0.8002 0.0549 0.2375
C66_5 C 0.8356(5) 0.04927(11) 0.430(3)
H50_5 H 0.8191 0.0464 0.5181
C67_5 C 0.8718(5) 0.04816(13) 0.461(3)
C68_5 C 0.8938(4) 0.05278(13) 0.326(3)
H51_5 H 0.9183 0.0521 0.3411
C69_5 C 0.8811(4) 0.05838(12) 0.167(3)
H52_5 H 0.8970 0.0613 0.0773
C70_5 C 0.8877(5) 0.04211(15) 0.630(3)
H53_5 H 0.9120 0.0407 0.6240
C71_5 C 0.8708(6) 0.03875(15) 0.782(3)
H54_5 H 0.8463 0.0397 0.7861
C72_5 C 0.8885(7) 0.03338(16) 0.952(4)
C77_5 C 0.9255(7) 0.0341(2) 0.980(4)
H58_5 H 0.9393 0.0376 0.8873
O13_5 O 0.7144(3) 0.94223(9) 0.298(2)
C108_5 C 0.8172(6) 0.96391(17) 0.067(5)
H81_5 H 0.8093 0.9662 0.1914
H82_5 H 0.8509 0.9758 0.0114
C110_5 C 0.7733(5) 0.95027(15) 0.090(4)
H83_5 H 0.7621 0.9542 0.1863
C111_5 C 0.7604(4) 0.94095(12) 0.062(3)
C112_5 C 0.7321(4) 0.93622(12) 0.183(3)
O14_5 O 0.7263(3) 0.92692(8) 0.175(2)
O19_5 O 0.6560(3) 0.92450(9) 0.098(2)
O20_5 O 0.6099(3) 0.92985(9) 0.262(2)
H119_5 H 0.5554 0.9239 0.0751
C160_5 C 0.6226(4) 0.92561(12) 0.116(3)
N12_4 N 0.7161(4) 0.90276(9) 0.140(2)
O25_5 O 0.7216(3) 0.92585(8) 0.674(2)
N7_5 N 0.9713(4) 0.98876(10) 0.192(3)
C97_5 C 0.9614(6) 0.97965(14) 0.108(3)
C98_5 C 0.9381(6) 0.97344(14) 0.212(4)
H74_5 H 0.9313 0.9672 0.1566
C99_5 C 0.9245(4) 0.97614(14) 0.398(4)
C100_5 C 0.9367(6) 0.98534(17) 0.482(3)
H75_5 H 0.9289 0.9876 0.6060
C101_5 C 0.9607(5) 0.99088(14) 0.371(3)
H76_5 H 0.9702 0.9967 0.4299
C102_5 C 0.8986(5) 0.96973(13) 0.509(3)
H77_5 H 0.8921 0.9636 0.4488
C103_5 C 0.8841(5) 0.97166(17) 0.677(5)
H78_5 H 0.8909 0.9778 0.7366
C104_5 C 0.8573(6) 0.96531(14) 0.794(4)
C105_5 C 0.8445(8) 0.95613(18) 0.714(4)
H79_5 H 0.8537 0.9535 0.5953
C106_5 C 0.8177(7) 0.95111(18) 0.817(4)
H80_5 H 0.8096 0.9449 0.7693
C107_5 C 0.8030(5) 0.95502(15) 0.986(4)
C109_5 C 0.8433(6) 0.9695(2) 0.965(5)
H84_5 H 0.7699 0.9371 0.9586
C147_4 C 0.4435(5) 0.8910(2) 0.164(3)
C148_4 C 0.4078(6) 0.8896(4) 0.197(6)
H111_4 H 0.3980 0.8928 0.3068
C149_4 C 0.3862(9) 0.8840(3) 0.088(4)
H112_4 H 0.3625 0.8833 0.1269
C150_4 C 0.4710(11) 0.8964(2) 0.269(5)
H113_4 H 0.4934 0.8965 0.2101
C151_4 C 0.4680(7) 0.9011(3) 0.435(5)
H114_4 H 0.4454 0.9008 0.4919
C152_3 C 0.4935(6) 0.9067(2) 0.547(5)
C153_5 C 0.5293(6) 0.9087(2) 0.494(4)
H115_5 H 0.5376 0.9067 0.3691
C154_5 C 0.5516(4) 0.91349(16) 0.620(3)
H116_5 H 0.5749 0.9147 0.5808
C155_5 C 0.5399(4) 0.91670(16) 0.813(4)
C156_5 C 0.5053(5) 0.9150(2) 0.873(4)
H117_3 H 0.4974 0.9169 0.9994
C157_3 C 0.4826(6) 0.9104(2) 0.732(5)
H118_3 H 0.4586 0.9098 0.7651
C158_5 C 0.5654(4) 0.92117(12) 0.960(4)
C159_5 C 0.6002(4) 0.92167(11) 0.947(3)
H120_5 H 0.6113 0.9195 0.8297
O23_5 O 0.7584(3) 0.91441(9) 0.806(2)
Cd2_7 Cd 1.0000 1.0000 0.9857(15)
H73_5 H 0.9700 0.9777 0.9832
N10_5 N 0.3972(6) 0.8793(2) 0.922(4)
C145_5 C 0.4312(5) 0.8808(2) 0.863(4)
H109_5 H 0.4393 0.8782 0.7421
C146_5 C 0.4537(6) 0.8863(2) 0.987(3)
H110_5 H 0.4774 0.8869 0.9493
O15_6 O 0.9065(4) 0.83536(8) 0.272(3)
O16_6 O 0.9177(3) 0.84587(10) 0.515(2)
C122_6 C 0.8392(5) 0.86818(13) 0.043(3)
H92_6 H 0.8478 0.8699 0.1691
C126_6 C 0.8695(5) 0.85109(11) 0.075(3)
H95_6 H 0.8719 0.8447 0.0170
C127_6 C 0.8854(4) 0.85256(13) 0.246(3)
H96_6 H 0.8851 0.8590 0.3045
C128_6 C 0.9045(4) 0.84380(10) 0.349(3)
C113_6 C 0.7340(7) 0.90409(16) 0.315(3)
H85_6 H 0.7362 0.9108 0.3608
C114_6 C 0.7483(5) 0.89694(13) 0.425(3)
H86_6 H 0.7571 0.8986 0.5510
C115_6 C 0.7504(5) 0.88714(13) 0.359(3)
C116_6 C 0.7320(5) 0.88534(11) 0.180(4)
H87_6 H 0.7314 0.8787 0.1308
C117_6 C 0.7151(5) 0.89285(12) 0.073(3)
C118_6 C 0.7688(5) 0.87898(12) 0.463(3)
H89_6 H 0.7696 0.8726 0.4014
C119_6 C 0.7847(4) 0.87991(12) 0.640(3)
H90_6 H 0.7823 0.8862 0.7013
C120_6 C 0.8055(4) 0.87226(12) 0.751(3)
C121_6 C 0.8184(5) 0.87495(14) 0.940(3)
H91_6 H 0.8130 0.8813 0.9944
C123_6 C 0.8475(4) 0.85887(12) 0.964(3)
C124_6 C 0.8358(6) 0.85631(17) 0.774(3)
H93_6 H 0.8426 0.8501 0.7177
C125_6 C 0.8141(5) 0.86291(13) 0.670(3)
H94_6 H 0.8054 0.8611 0.5450
C135_10 C 0.9376(6) 0.9384(2) 0.164(5)
H102_10 H 0.9595 0.9367 0.2193
C136_10 C 0.9056(5) 0.9353(2) 0.280(5)
C137_10 C 0.8732(6) 0.9375(3) 0.223(5)
H103_10 H 0.8695 0.9411 0.1049
C138_10 C 0.8435(5) 0.9345(2) 0.340(4)
H104_10 H 0.8209 0.9369 0.3063
C139_10 C 0.8469(5) 0.9283(2) 0.496(4)
C140_10 C 0.8813(6) 0.9258(2) 0.573(5)
H105_10 H 0.8843 0.9219 0.6875
C141_10 C 0.9113(4) 0.9297(2) 0.461(4)
H106_10 H 0.9344 0.9286 0.5075
C142_10 C 0.8149(5) 0.92353(16) 0.606(3)
H107_10 H 0.8190 0.9184 0.6982
C143_10 C 0.7821(4) 0.92653(14) 0.573(3)
H108_10 H 0.7775 0.9315 0.4783
C144_10 C 0.7531(4) 0.92205(12) 0.686(3)
H88_6 H 0.7030 0.8913 0.9555
C129_10 C 0.9937(7) 0.9541(4) 0.583(7)
H97_10 H 0.9898 0.9589 0.4839
C130_10 C 0.9663(8) 0.9516(3) 0.719(6)
H98_10 H 0.9446 0.9550 0.7041
C131_10 C 0.9689(5) 0.9448(2) 0.869(5)
C134_10 C 0.9382(5) 0.9429(2) 0.999(4)
H101_10 H 0.9165 0.9455 0.9541
O18_6 O 0.4916(3) 0.16441(9) 0.056(2)
O5_6 O 0.5356(3) 0.19223(9) 0.548(2)
O6_6 O 0.5940(3) 0.17450(9) 0.348(2)
O7_6 O 0.6401(3) 0.17985(9) 0.512(2)
C40_6 C 0.3927(6) 0.21531(14) 0.044(4)
C42_6 C 0.4323(7) 0.20111(18) 0.067(4)
H32_6 H 0.4404 0.1949 0.0193
C43_6 C 0.4470(5) 0.20502(15) 0.236(4)
C44_6 C 0.4328(6) 0.21391(17) 0.317(5)
H33_6 H 0.4407 0.2162 0.4414
C45_6 C 0.4067(6) 0.2195(2) 0.215(5)
H34_6 H 0.3991 0.2258 0.2614
C46_6 C 0.4767(5) 0.20027(15) 0.340(4)
H35_6 H 0.4879 0.2042 0.4363
C47_6 C 0.4896(4) 0.19095(12) 0.312(3)
H36_6 H 0.4801 0.1871 0.2086
C48_6 C 0.5179(4) 0.18622(12) 0.433(3)
C59_6 C 0.7101(4) 0.16670(16) 0.063(4)
C60_6 C 0.7447(5) 0.1650(2) 0.123(4)
H45_5 H 0.7526 0.1669 0.2494
H46_5 H 0.7914 0.1598 0.0151
C62_6 C 0.6846(4) 0.17117(12) 0.210(4)
H47_6 H 0.6946 0.1739 0.3251
C63_6 C 0.6498(4) 0.17167(11) 0.197(3)
H48_6 H 0.6387 0.1695 0.0797
C64_6 C 0.6274(4) 0.17561(12) 0.366(3)
O10_6 O 0.5237(3) 0.17692(8) 0.425(2)
C104_6 C 0.1073(6) 0.28469(14) 0.044(4)
C106_6 C 0.0677(7) 0.29889(18) 0.067(4)
H80_6 H 0.0596 0.3051 0.0193
C107_6 C 0.0530(5) 0.29498(15) 0.236(4)
C108_6 C 0.0672(6) 0.28609(17) 0.317(5)
H81_6 H 0.0593 0.2838 0.4414
C109_6 C 0.0933(6) 0.2805(2) 0.215(5)
H82_6 H 0.1009 0.2742 0.2614
C110_6 C 0.0233(5) 0.29973(15) 0.340(4)
H83_6 H 0.0121 0.2958 0.4363
C111_6 C 0.0104(4) 0.30905(12) 0.312(3)
H84_6 H 0.0199 0.3129 0.2086
O17_6 O 0.5284(3) 0.17585(8) 0.924(2)
C131_11 C 0.2811(5) 0.1948(2) 0.119(5)
C132_9 C 0.2474(6) 0.19088(18) 0.134(5)
H99_9 H 0.2425 0.1865 0.2394
C133_9 C 0.2215(6) 0.1930(2) 0.008(6)
H100_9 H 0.1993 0.1900 0.0260
C134_11 C 0.3118(5) 0.1929(2) 0.249(4)
H101_11 H 0.3335 0.1955 0.2041
C135_11 C 0.3124(6) 0.1884(2) 0.414(5)
H102_11 H 0.2905 0.1867 0.4693
C136_11 C 0.3444(5) 0.1853(2) 0.530(5)
C137_11 C 0.3768(6) 0.1875(3) 0.473(5)
H103_11 H 0.3805 0.1911 0.3549
C138_11 C 0.4065(5) 0.1845(2) 0.590(4)
H104_11 H 0.4291 0.1869 0.5563
C139_11 C 0.4031(5) 0.1783(2) 0.746(4)
C140_11 C 0.3687(6) 0.1758(2) 0.823(5)
H105_11 H 0.3657 0.1719 0.9375
C141_11 C 0.3387(4) 0.1797(2) 0.711(4)
H106_11 H 0.3156 0.1786 0.7575
C142_11 C 0.4351(5) 0.17353(16) 0.856(3)
H107_11 H 0.4310 0.1684 0.9482
C143_11 C 0.4679(4) 0.17653(14) 0.823(3)
H108_11 H 0.4725 0.1815 0.7283
C144_11 C 0.4969(4) 0.17205(12) 0.936(3)
O23_6 O 0.0084(3) 0.33559(9) 0.056(2)
Cd2_8 Cd 0.2500 0.2500 0.2357(15)
O8_5 O 0.2366(4) 0.23743(13) 0.008(3)
O9_5 O 0.1915(5) 0.24599(12) 0.118(3)
N3_6 N 0.2787(4) 0.23876(10) 0.442(3)
N4_6 N 0.8528(6) 0.1293(2) 0.172(4)
C33_6 C 0.2886(6) 0.22965(14) 0.358(3)
H25_6 H 0.2800 0.2277 0.2332
C34_6 C 0.3119(6) 0.22344(14) 0.462(4)
H26_6 H 0.3187 0.2172 0.4066
C35_6 C 0.3255(4) 0.22614(14) 0.648(4)
C36_6 C 0.3133(6) 0.23534(17) 0.732(3)
H27_6 H 0.3211 0.2376 0.8560
C37_6 C 0.2893(5) 0.24088(14) 0.621(3)
H28_6 H 0.2798 0.2467 0.6799
C38_6 C 0.3514(5) 0.21973(13) 0.759(3)
H29_6 H 0.3579 0.2136 0.6988
C39_6 C 0.3659(5) 0.22166(17) 0.927(5)
H30_6 H 0.3591 0.2278 0.9866
C41_6 C 0.4055(8) 0.20613(18) 0.964(4)
H31_6 H 0.3963 0.2035 0.8453
C49_6 C 0.8188(5) 0.1308(2) 0.113(4)
C50_6 C 0.7963(6) 0.1363(2) 0.237(3)
H38_6 H 0.7726 0.1369 0.1993
C51_5 C 0.8065(5) 0.1410(2) 0.414(3)
C52_5 C 0.8422(6) 0.1396(4) 0.447(6)
H39_5 H 0.8520 0.1428 0.5568
C53_5 C 0.8638(9) 0.1340(3) 0.338(4)
H40_5 H 0.8875 0.1333 0.3769
C54_5 C 0.7790(11) 0.1464(2) 0.519(5)
H41_5 H 0.7566 0.1465 0.4601
C55_5 C 0.7820(7) 0.1511(3) 0.685(5)
H42_5 H 0.8046 0.1508 0.7419
C56_5 C 0.7565(6) 0.1567(2) 0.797(5)
C57_6 C 0.7207(6) 0.1587(2) 0.744(4)
H43_6 H 0.7124 0.1567 0.6191
C58_6 C 0.6984(4) 0.16349(16) 0.870(3)
H44_6 H 0.6751 0.1647 0.8308
C61_5 C 0.7674(6) 0.1604(2) 0.982(5)
O11_5 O 0.2634(4) 0.26257(13) 0.008(3)
O12_5 O 0.3085(5) 0.25401(12) 0.118(3)
N7_6 N 0.2213(4) 0.26124(10) 0.442(3)
C97_6 C 0.2114(6) 0.27035(14) 0.358(3)
H73_6 H 0.2200 0.2723 0.2332
C98_6 C 0.1881(6) 0.27656(14) 0.462(4)
H74_6 H 0.1813 0.2828 0.4066
C99_6 C 0.1745(4) 0.27386(14) 0.648(4)
C100_6 C 0.1867(6) 0.26466(17) 0.732(3)
H75_6 H 0.1789 0.2624 0.8560
C101_6 C 0.2107(5) 0.25912(14) 0.621(3)
H76_6 H 0.2202 0.2533 0.6799
C102_6 C 0.1486(5) 0.28027(13) 0.759(3)
H77_6 H 0.1421 0.2864 0.6988
C103_6 C 0.1341(5) 0.27834(17) 0.927(5)
H78_6 H 0.1409 0.2722 0.9866
C105_6 C 0.0945(8) 0.29387(18) 0.964(4)
H79_6 H 0.1037 0.2965 0.8453
N9_9 N 0.2267(6) 0.19974(19) 0.848(5)
C129_11 C 0.2563(7) 0.2041(4) 0.833(7)
H97_11 H 0.2602 0.2089 0.7339
C130_11 C 0.2837(8) 0.2016(3) 0.969(6)
H98_11 H 0.3054 0.2050 0.9541
H37_6 H 0.8107 0.1282 0.9921
C71_6 C 0.1208(6) 0.21125(15) 0.032(3)
H54_6 H 0.0963 0.2103 0.0361
C72_6 C 0.1385(7) 0.21662(16) 0.202(4)
C73_5 C 0.1192(8) 0.22101(17) 0.348(4)
H55_5 H 0.0945 0.2207 0.3401
C74_5 C 0.1348(9) 0.22612(19) 0.513(4)
H56_5 H 0.1213 0.2298 0.6033
C75_5 C 0.1740(8) 0.22518(18) 0.532(4)
C76_5 C 0.1916(6) 0.2204(2) 0.392(3)
H57_5 H 0.2162 0.2200 0.4029
C77_6 C 0.1755(7) 0.2159(2) 0.230(4)
H58_6 H 0.1893 0.2124 0.1373
C78_5 C 0.1937(7) 0.22954(17) 0.702(4)
H59_5 H 0.2182 0.2286 0.7023
C79_5 C 0.1806(7) 0.23459(16) 0.852(3)
H60_5 H 0.1561 0.2352 0.8679
C80_5 C 0.2046(6) 0.23938(19) 0.998(4)
C87_6 C 0.3792(6) 0.28875(15) 0.032(3)
H66_6 H 0.4037 0.2897 0.0361
C88_6 C 0.3615(7) 0.28338(16) 0.202(4)
C89_5 C 0.3808(8) 0.27899(17) 0.348(4)
H67_5 H 0.4055 0.2793 0.3401
C90_5 C 0.3652(9) 0.27388(19) 0.513(4)
H68_5 H 0.3787 0.2702 0.6033
C91_5 C 0.3260(8) 0.27482(18) 0.532(4)
C92_5 C 0.3084(6) 0.2796(2) 0.392(3)
H69_5 H 0.2838 0.2800 0.4029
C93_6 C 0.3245(7) 0.2841(2) 0.230(4)
H70_6 H 0.3107 0.2876 0.1373
C94_5 C 0.3063(7) 0.27046(17) 0.702(4)
H71_5 H 0.2818 0.2714 0.7023
C95_5 C 0.3194(7) 0.26541(16) 0.852(3)
H72_5 H 0.3439 0.2648 0.8679
C96_5 C 0.2954(6) 0.26062(19) 0.998(4)
C65_6 C 0.0745(4) 0.19529(13) 0.514(3)
H49_6 H 0.0502 0.1951 0.4875
C66_6 C 0.0856(5) 0.20073(11) 0.680(3)
H50_6 H 0.0691 0.2036 0.7681
C67_6 C 0.1218(5) 0.20184(13) 0.711(3)
C68_6 C 0.1438(4) 0.19722(13) 0.576(3)
H51_6 H 0.1683 0.1979 0.5911
C69_6 C 0.1311(4) 0.19162(12) 0.417(3)
H52_6 H 0.1470 0.1887 0.3273
C70_6 C 0.1377(5) 0.20789(15) 0.880(3)
H53_6 H 0.1620 0.2093 0.8740
C81_6 C 0.4255(4) 0.30471(13) 0.514(3)
H61_6 H 0.4498 0.3049 0.4875
C82_6 C 0.4144(5) 0.29927(11) 0.680(3)
H62_6 H 0.4309 0.2964 0.7681
C83_6 C 0.3782(5) 0.29816(13) 0.711(3)
C84_6 C 0.3562(4) 0.30278(13) 0.576(3)
H63_6 H 0.3317 0.3021 0.5911
C85_6 C 0.3689(4) 0.30838(12) 0.417(3)
H64_6 H 0.3530 0.3113 0.3273
C86_6 C 0.3623(5) 0.29211(15) 0.880(3)
H65_6 H 0.3380 0.2907 0.8740
O13_6 O 0.9644(3) 0.30777(9) 0.548(2)
C112_6 C 0.9821(4) 0.31378(12) 0.433(3)
O14_6 O 0.9763(3) 0.32308(8) 0.425(2)
O19_6 O 0.9060(3) 0.32550(9) 0.348(2)
O20_6 O 0.8599(3) 0.32015(9) 0.512(2)
C155_6 C 0.7899(4) 0.33330(16) 0.063(4)
C156_6 C 0.7553(5) 0.3350(2) 0.123(4)
H117_4 H 0.7474 0.3331 0.2494
H118_4 H 0.7086 0.3402 0.0151
C158_6 C 0.8154(4) 0.32883(12) 0.210(4)
H119_6 H 0.8054 0.3261 0.3251
C159_6 C 0.8502(4) 0.32833(11) 0.197(3)
H120_6 H 0.8613 0.3305 0.0797
C160_6 C 0.8726(4) 0.32439(12) 0.366(3)
O24_4 O 0.9177(3) 0.34587(10) 0.015(2)
O25_6 O 0.9716(3) 0.32415(8) 0.924(2)
O26_4 O 0.9065(4) 0.33536(8) 0.772(3)
N10_6 N 0.6472(6) 0.3707(2) 0.172(4)
C145_6 C 0.6812(5) 0.3692(2) 0.113(4)
C146_6 C 0.7037(6) 0.3637(2) 0.237(3)
H110_6 H 0.7274 0.3631 0.1993
C147_5 C 0.6935(5) 0.3590(2) 0.414(3)
C148_5 C 0.6578(6) 0.3604(4) 0.447(6)
H111_5 H 0.6480 0.3572 0.5568
C149_5 C 0.6362(9) 0.3660(3) 0.338(4)
H112_5 H 0.6125 0.3667 0.3769
C150_5 C 0.7210(11) 0.3536(2) 0.519(5)
H113_5 H 0.7434 0.3535 0.4601
C151_5 C 0.7180(7) 0.3489(3) 0.685(5)
H114_5 H 0.6954 0.3492 0.7419
C152_4 C 0.7435(6) 0.3433(2) 0.797(5)
C153_6 C 0.7793(6) 0.3413(2) 0.744(4)
H115_6 H 0.7876 0.3433 0.6191
C154_6 C 0.8016(4) 0.33651(16) 0.870(3)
H116_6 H 0.8249 0.3353 0.8308
C157_4 C 0.7326(6) 0.3396(2) 0.982(5)
H109_6 H 0.6893 0.3718 0.9921
C131_12 C 0.2189(5) 0.3052(2) 0.119(5)
C132_10 C 0.2526(6) 0.30912(18) 0.134(5)
H99_10 H 0.2575 0.3135 0.2394
C133_10 C 0.2785(6) 0.3070(2) 0.008(6)
H100_10 H 0.3007 0.3100 0.0260
C134_12 C 0.1882(5) 0.3071(2) 0.249(4)
H101_12 H 0.1665 0.3045 0.2041
C135_12 C 0.1876(6) 0.3116(2) 0.414(5)
H102_12 H 0.2095 0.3133 0.4693
C136_12 C 0.1556(5) 0.3147(2) 0.530(5)
C137_12 C 0.1232(6) 0.3125(3) 0.473(5)
H103_12 H 0.1195 0.3089 0.3549
C138_12 C 0.0935(5) 0.3155(2) 0.590(4)
H104_12 H 0.0709 0.3131 0.5563
C139_12 C 0.0969(5) 0.3217(2) 0.746(4)
C140_12 C 0.1313(6) 0.3242(2) 0.823(5)
H105_12 H 0.1343 0.3281 0.9375
C141_12 C 0.1613(4) 0.3203(2) 0.711(4)
H106_12 H 0.1844 0.3214 0.7575
C142_12 C 0.0649(5) 0.32647(16) 0.856(3)
H107_12 H 0.0690 0.3316 0.9482
C143_12 C 0.0321(4) 0.32347(14) 0.823(3)
H108_12 H 0.0275 0.3185 0.7283
C144_12 C 0.0031(4) 0.32795(12) 0.936(3)
N9_10 N 0.2733(6) 0.30026(19) 0.848(5)
C129_12 C 0.2437(7) 0.2959(4) 0.833(7)
H97_12 H 0.2398 0.2911 0.7339
C130_12 C 0.2163(8) 0.2984(3) 0.969(6)
H98_12 H 0.1946 0.2950 0.9541
H14_9 H 0.7571 0.3986 0.0510
C23_9 C 0.7847(4) 0.37991(12) 0.140(3)
H18_9 H 0.7823 0.3862 0.2013
C24_9 C 0.8055(4) 0.37226(12) 0.251(3)
C25_9 C 0.8184(5) 0.37495(14) 0.440(3)
H19_9 H 0.8130 0.3813 0.4944
C26_9 C 0.8392(5) 0.36818(13) 0.543(3)
H20_9 H 0.8478 0.3699 0.6691
C27_9 C 0.8475(4) 0.35887(12) 0.464(3)
C28_9 C 0.8358(6) 0.35631(17) 0.274(3)
H21_9 H 0.8426 0.3501 0.2177
C29_9 C 0.8141(5) 0.36291(13) 0.170(3)
H22_9 H 0.8054 0.3611 0.0450
C30_9 C 0.8695(5) 0.35109(11) 0.575(3)
H23_9 H 0.8719 0.3447 0.5170
C31_9 C 0.8854(4) 0.35256(13) 0.746(3)
H24_9 H 0.8851 0.3590 0.8045
C32_9 C 0.9045(4) 0.34380(10) 0.849(3)
N2_9 N 0.7161(4) 0.40276(9) 0.640(2)
C17_9 C 0.7340(7) 0.40409(16) 0.815(3)
H13_9 H 0.7362 0.4108 0.8608
C18_9 C 0.7483(5) 0.39694(13) 0.925(3)
C19_9 C 0.7504(5) 0.38714(13) 0.859(3)
C20_9 C 0.7320(5) 0.38534(11) 0.680(4)
H15_9 H 0.7314 0.3787 0.6308
C21_9 C 0.7151(5) 0.39285(12) 0.573(3)
H16_9 H 0.7030 0.3913 0.4555
C22_9 C 0.7688(5) 0.37898(12) 0.963(3)
H17_9 H 0.7696 0.3726 0.9014
O17_7 O 0.2784(3) 0.57415(8) 0.174(2)
O18_7 O 0.2416(3) 0.58559(9) 0.306(2)
C140_13 C 0.1187(6) 0.5742(2) 0.073(5)
H105_13 H 0.1157 0.5781 0.1875
H106_13 H 0.0656 0.5714 0.0075
C142_13 C 0.1851(5) 0.57647(16) 0.106(3)
H107_13 H 0.1810 0.5816 0.1982
C143_13 C 0.2179(4) 0.57347(14) 0.073(3)
C144_13 C 0.2469(4) 0.57795(12) 0.186(3)
O21_6 O 0.3435(4) 0.58536(8) 0.022(3)
O4_6 O 0.3323(3) 0.59587(10) 0.265(2)
O5_7 O 0.2856(3) 0.55777(9) 0.798(2)
O6_7 O 0.3440(3) 0.57550(9) 0.598(2)
O7_7 O 0.3901(3) 0.57015(9) 0.762(2)
H24_10 H 0.3649 0.6090 0.0545
C32_10 C 0.3455(4) 0.59380(10) 0.099(3)
H27_7 H 0.0711 0.5124 0.1060
C38_7 C 0.1014(5) 0.53027(13) 0.009(3)
C39_7 C 0.1159(5) 0.52834(17) 0.177(5)
H30_7 H 0.1091 0.5222 0.2366
C40_7 C 0.1427(6) 0.53469(14) 0.294(4)
C41_7 C 0.1555(8) 0.54387(18) 0.214(4)
H31_7 H 0.1463 0.5465 0.0953
C42_7 C 0.1823(7) 0.54889(18) 0.317(4)
H32_7 H 0.1904 0.5551 0.2693
C43_7 C 0.1970(5) 0.54498(15) 0.486(4)
C44_7 C 0.1828(6) 0.53609(17) 0.567(5)
H33_7 H 0.1907 0.5338 0.6914
C45_7 C 0.1567(6) 0.5305(2) 0.465(5)
H34_7 H 0.1491 0.5242 0.5114
C46_7 C 0.2267(5) 0.54973(15) 0.590(4)
H35_7 H 0.2379 0.5458 0.6863
C47_7 C 0.2396(4) 0.55905(12) 0.562(3)
H36_7 H 0.2301 0.5629 0.4586
C48_7 C 0.2679(4) 0.56378(12) 0.683(3)
C56_6 C 0.5065(6) 0.5933(2) 0.047(5)
C58_7 C 0.4484(4) 0.58651(16) 0.120(3)
H44_7 H 0.4251 0.5853 0.0808
C59_7 C 0.4601(4) 0.58330(16) 0.313(4)
C60_7 C 0.4947(5) 0.5850(2) 0.373(4)
H45_6 H 0.5026 0.5831 0.4994
C61_6 C 0.5174(6) 0.5896(2) 0.232(5)
H46_6 H 0.5414 0.5902 0.2651
C62_7 C 0.4346(4) 0.57883(12) 0.460(4)
H47_7 H 0.4446 0.5761 0.5751
C63_7 C 0.3998(4) 0.57833(11) 0.447(3)
H48_7 H 0.3887 0.5805 0.3297
C64_7 C 0.3774(4) 0.57439(12) 0.616(3)
O10_7 O 0.2737(3) 0.57308(8) 0.675(2)
C129_13 C 0.0063(7) 0.5459(4) 0.083(7)
C130_13 C 0.0337(8) 0.5484(3) 0.219(6)
H98_13 H 0.0554 0.5450 0.2041
C131_13 C 0.0311(5) 0.5552(2) 0.369(5)
C134_13 C 0.0618(5) 0.5571(2) 0.499(4)
H101_13 H 0.0835 0.5545 0.4541
C135_13 C 0.0624(6) 0.5616(2) 0.664(5)
H102_13 H 0.0405 0.5633 0.7193
C136_13 C 0.0944(5) 0.5647(2) 0.780(5)
C137_13 C 0.1268(6) 0.5625(3) 0.723(5)
H103_13 H 0.1305 0.5589 0.6049
C138_13 C 0.1565(5) 0.5655(2) 0.840(4)
H104_13 H 0.1791 0.5631 0.8063
C139_13 C 0.1531(5) 0.5717(2) 0.996(4)
C141_13 C 0.0887(4) 0.5703(2) 0.961(4)
H108_13 H 0.2225 0.5685 0.9783
Cd2_9 Cd -0.0000 0.5000 0.4857(15)
N3_7 N 0.0287(4) 0.51124(10) 0.692(3)
N4_7 N 0.6028(6) 0.6207(2) 0.422(4)
C17_10 C 0.5160(7) 0.65409(16) 0.065(3)
H13_10 H 0.5138 0.6608 0.1108
C18_10 C 0.5017(5) 0.64694(13) 0.175(3)
H14_10 H 0.4929 0.6486 0.3010
C19_10 C 0.4996(5) 0.63714(13) 0.109(3)
C22_10 C 0.4812(5) 0.62898(12) 0.213(3)
H17_10 H 0.4804 0.6226 0.1514
C23_10 C 0.4653(4) 0.62991(12) 0.390(3)
H18_10 H 0.4677 0.6362 0.4513
C24_10 C 0.4445(4) 0.62226(12) 0.501(3)
C25_10 C 0.4316(5) 0.62495(14) 0.690(3)
H19_10 H 0.4370 0.6313 0.7444
C26_10 C 0.4108(5) 0.61818(13) 0.793(3)
H20_10 H 0.4022 0.6199 0.9191
C27_10 C 0.4025(4) 0.60887(12) 0.714(3)
C28_10 C 0.4142(6) 0.60631(17) 0.524(3)
H21_10 H 0.4074 0.6001 0.4677
C29_10 C 0.4359(5) 0.61291(13) 0.420(3)
H22_10 H 0.4446 0.6111 0.2950
C30_10 C 0.3805(5) 0.60109(11) 0.825(3)
H23_10 H 0.3781 0.5947 0.7670
C31_10 C 0.3646(4) 0.60256(13) 0.996(3)
C33_7 C 0.0386(6) 0.52035(14) 0.608(3)
H25_7 H 0.0300 0.5223 0.4832
C34_7 C 0.0619(6) 0.52656(14) 0.712(4)
H26_7 H 0.0687 0.5328 0.6566
C35_7 C 0.0755(4) 0.52386(14) 0.898(4)
C36_7 C 0.0633(6) 0.51466(17) 0.982(3)
C37_7 C 0.0393(5) 0.50912(14) 0.871(3)
H28_7 H 0.0298 0.5033 0.9299
H29_7 H 0.1079 0.5364 0.9488
C49_7 C 0.5688(5) 0.6192(2) 0.363(4)
H37_7 H 0.5607 0.6218 0.2421
C50_7 C 0.5463(6) 0.6137(2) 0.487(3)
H38_7 H 0.5226 0.6131 0.4493
C51_6 C 0.5565(5) 0.6090(2) 0.664(3)
C52_6 C 0.5922(6) 0.6104(4) 0.697(6)
H39_6 H 0.6020 0.6072 0.8068
C53_6 C 0.6138(9) 0.6160(3) 0.588(4)
H40_6 H 0.6375 0.6167 0.6269
C54_6 C 0.5290(11) 0.6036(2) 0.769(5)
H41_6 H 0.5066 0.6035 0.7101
C55_6 C 0.5320(7) 0.5989(3) 0.935(5)
H42_6 H 0.5546 0.5992 0.9919
C57_7 C 0.4707(6) 0.5913(2) 0.994(4)
H43_7 H 0.4624 0.5933 0.8691
O11_6 O 0.0134(4) 0.48743(13) 0.258(3)
O12_6 O 0.0585(5) 0.49599(12) 0.368(3)
C95_6 C 0.0694(7) 0.48459(16) 0.102(3)
H72_6 H 0.0939 0.4852 0.1179
C96_6 C 0.0454(6) 0.48938(19) 0.248(4)
H97_13 H 0.0102 0.5411 0.9839
N2_10 N 0.5339(4) 0.65276(9) 0.890(2)
C20_10 C 0.5180(5) 0.63534(11) 0.930(4)
H15_10 H 0.5186 0.6287 0.8808
C21_10 C 0.5349(5) 0.64285(12) 0.823(3)
H16_10 H 0.5470 0.6413 0.7055
H62_7 H 0.1809 0.4536 0.0181
C86_7 C 0.1123(5) 0.45789(15) 0.130(3)
H65_7 H 0.0880 0.4593 0.1240
C87_7 C 0.1292(6) 0.46125(15) 0.282(3)
H66_7 H 0.1537 0.4603 0.2861
C88_7 C 0.1115(7) 0.46662(16) 0.452(4)
C89_6 C 0.1308(8) 0.47101(17) 0.598(4)
H67_6 H 0.1555 0.4707 0.5901
C90_6 C 0.1152(9) 0.47612(19) 0.763(4)
H68_6 H 0.1287 0.4798 0.8533
C91_6 C 0.0760(8) 0.47518(18) 0.782(4)
C92_6 C 0.0584(6) 0.4704(2) 0.642(3)
H69_6 H 0.0338 0.4700 0.6529
C93_7 C 0.0745(7) 0.4659(2) 0.480(4)
H70_7 H 0.0607 0.4624 0.3873
C94_6 C 0.0563(7) 0.47954(17) 0.952(4)
H71_6 H 0.0318 0.4786 0.9523
C81_7 C 0.1755(4) 0.44529(13) 0.764(3)
H61_7 H 0.1998 0.4451 0.7375
C82_7 C 0.1644(5) 0.45073(11) 0.930(3)
C83_7 C 0.1282(5) 0.45184(13) 0.961(3)
C84_7 C 0.1062(4) 0.44722(13) 0.826(3)
H63_7 H 0.0817 0.4479 0.8411
C85_7 C 0.1189(4) 0.44162(12) 0.667(3)
H64_7 H 0.1030 0.4387 0.5773
O25_7 O 0.7216(3) 0.42585(8) 0.174(2)
O13_7 O 0.7144(3) 0.44223(9) 0.798(2)
H75_7 H 0.9289 0.4876 0.1060
C102_7 C 0.8986(5) 0.46973(13) 0.009(3)
C103_7 C 0.8841(5) 0.47166(17) 0.177(5)
H78_7 H 0.8909 0.4778 0.2366
C104_7 C 0.8573(6) 0.46531(14) 0.294(4)
C105_7 C 0.8445(8) 0.45613(18) 0.214(4)
H79_7 H 0.8537 0.4535 0.0953
C106_7 C 0.8177(7) 0.45111(18) 0.317(4)
H80_7 H 0.8096 0.4449 0.2693
C107_7 C 0.8030(5) 0.45502(15) 0.486(4)
C108_7 C 0.8172(6) 0.46391(17) 0.567(5)
H81_7 H 0.8093 0.4662 0.6914
C109_7 C 0.8433(6) 0.4695(2) 0.465(5)
H82_7 H 0.8509 0.4758 0.5114
C110_7 C 0.7733(5) 0.45027(15) 0.590(4)
H83_7 H 0.7621 0.4542 0.6863
C111_7 C 0.7604(4) 0.44095(12) 0.562(3)
H84_7 H 0.7699 0.4371 0.4586
C112_7 C 0.7321(4) 0.43622(12) 0.683(3)
O14_7 O 0.7263(3) 0.42692(8) 0.675(2)
N9_11 N 0.9767(6) 0.55026(19) 0.098(5)
C132_11 C 0.9974(6) 0.55912(18) 0.384(5)
H99_11 H 0.9925 0.5635 0.4894
C133_11 C 0.9715(6) 0.5570(2) 0.258(6)
H100_11 H 0.9493 0.5600 0.2760
O19_7 O 0.6560(3) 0.42450(9) 0.598(2)
O20_7 O 0.6099(3) 0.42985(9) 0.762(2)
C152_5 C 0.4935(6) 0.4067(2) 0.047(5)
C154_7 C 0.5516(4) 0.41349(16) 0.120(3)
H116_7 H 0.5749 0.4147 0.0808
C155_7 C 0.5399(4) 0.41670(16) 0.313(4)
C156_7 C 0.5053(5) 0.4150(2) 0.373(4)
H117_5 H 0.4974 0.4169 0.4994
C157_5 C 0.4826(6) 0.4104(2) 0.232(5)
H118_5 H 0.4586 0.4098 0.2651
C158_7 C 0.5654(4) 0.42117(12) 0.460(4)
H119_7 H 0.5554 0.4239 0.5751
C159_7 C 0.6002(4) 0.42167(11) 0.447(3)
H120_7 H 0.6113 0.4195 0.3297
C160_7 C 0.6226(4) 0.42561(12) 0.616(3)
O23_7 O 0.7584(3) 0.41441(9) 0.306(2)
Cd2_10 Cd 1.0000 0.5000 0.4857(15)
O8_6 O 0.9866(4) 0.51257(13) 0.258(3)
O9_6 O 0.9415(5) 0.50401(12) 0.368(3)
C79_6 C 0.9306(7) 0.51541(16) 0.102(3)
H60_6 H 0.9061 0.5148 0.1179
C80_6 C 0.9546(6) 0.51062(19) 0.248(4)
N7_7 N 0.9713(4) 0.48876(10) 0.692(3)
C97_7 C 0.9614(6) 0.47965(14) 0.608(3)
H73_7 H 0.9700 0.4777 0.4832
C98_7 C 0.9381(6) 0.47344(14) 0.712(4)
H74_7 H 0.9313 0.4672 0.6566
C99_7 C 0.9245(4) 0.47614(14) 0.898(4)
C100_7 C 0.9367(6) 0.48534(17) 0.982(3)
C101_7 C 0.9607(5) 0.49088(14) 0.871(3)
H76_7 H 0.9702 0.4967 0.9299
H77_7 H 0.8921 0.4636 0.9488
N10_7 N 0.3972(6) 0.3793(2) 0.422(4)
C145_7 C 0.4312(5) 0.3808(2) 0.363(4)
H109_7 H 0.4393 0.3782 0.2421
C146_7 C 0.4537(6) 0.3863(2) 0.487(3)
H110_7 H 0.4774 0.3869 0.4493
C147_6 C 0.4435(5) 0.3910(2) 0.664(3)
C148_6 C 0.4078(6) 0.3896(4) 0.697(6)
H111_6 H 0.3980 0.3928 0.8068
C149_6 C 0.3862(9) 0.3840(3) 0.588(4)
H112_6 H 0.3625 0.3833 0.6269
C150_6 C 0.4710(11) 0.3964(2) 0.769(5)
H113_6 H 0.4934 0.3965 0.7101
C151_6 C 0.4680(7) 0.4011(3) 0.935(5)
H114_6 H 0.4454 0.4008 0.9919
C153_7 C 0.5293(6) 0.4087(2) 0.994(4)
H115_7 H 0.5376 0.4067 0.8691
H50_7 H 0.8191 0.5464 0.0181
C70_7 C 0.8877(5) 0.54211(15) 0.130(3)
H53_7 H 0.9120 0.5407 0.1240
C71_7 C 0.8708(6) 0.53875(15) 0.282(3)
H54_7 H 0.8463 0.5397 0.2861
C72_7 C 0.8885(7) 0.53338(16) 0.452(4)
C73_6 C 0.8692(8) 0.52899(17) 0.598(4)
H55_6 H 0.8445 0.5293 0.5901
C74_6 C 0.8848(9) 0.52388(19) 0.763(4)
H56_6 H 0.8713 0.5202 0.8533
C75_6 C 0.9240(8) 0.52482(18) 0.782(4)
C76_6 C 0.9416(6) 0.5296(2) 0.642(3)
H57_6 H 0.9662 0.5300 0.6529
C77_7 C 0.9255(7) 0.5341(2) 0.480(4)
H58_7 H 0.9393 0.5376 0.3873
C78_6 C 0.9437(7) 0.52046(17) 0.952(4)
H59_6 H 0.9682 0.5214 0.9523
C65_7 C 0.8245(4) 0.55471(13) 0.764(3)
H49_7 H 0.8002 0.5549 0.7375
C66_7 C 0.8356(5) 0.54927(11) 0.930(3)
C67_7 C 0.8718(5) 0.54816(13) 0.961(3)
C68_7 C 0.8938(4) 0.55278(13) 0.826(3)
H51_7 H 0.9183 0.5521 0.8411
C69_7 C 0.8811(4) 0.55838(12) 0.667(3)
H52_7 H 0.8970 0.5613 0.5773
N9_12 N 0.0233(6) 0.44974(19) 0.098(5)
C132_12 C 0.0026(6) 0.44088(18) 0.384(5)
H99_12 H 0.0075 0.4365 0.4894
C133_12 C 0.0285(6) 0.4430(2) 0.258(6)
H100_12 H 0.0507 0.4400 0.2760
C140_14 C 0.8813(6) 0.4258(2) 0.073(5)
H105_14 H 0.8843 0.4219 0.1875
H106_14 H 0.9344 0.4286 0.0075
C142_14 C 0.8149(5) 0.42353(16) 0.106(3)
H107_14 H 0.8190 0.4184 0.1982
C143_14 C 0.7821(4) 0.42653(14) 0.073(3)
C144_14 C 0.7531(4) 0.42205(12) 0.186(3)
C129_14 C 0.9937(7) 0.4541(4) 0.083(7)
C130_14 C 0.9663(8) 0.4516(3) 0.219(6)
H98_14 H 0.9446 0.4550 0.2041
C131_14 C 0.9689(5) 0.4448(2) 0.369(5)
C134_14 C 0.9382(5) 0.4429(2) 0.499(4)
H101_14 H 0.9165 0.4455 0.4541
C135_14 C 0.9376(6) 0.4384(2) 0.664(5)
H102_14 H 0.9595 0.4367 0.7193
C136_14 C 0.9056(5) 0.4353(2) 0.780(5)
C137_14 C 0.8732(6) 0.4375(3) 0.723(5)
H103_14 H 0.8695 0.4411 0.6049
C138_14 C 0.8435(5) 0.4345(2) 0.840(4)
H104_14 H 0.8209 0.4369 0.8063
C139_14 C 0.8469(5) 0.4283(2) 0.996(4)
C141_14 C 0.9113(4) 0.4297(2) 0.961(4)
H108_14 H 0.7775 0.4315 0.9783
H97_14 H 0.9898 0.4589 0.9839
O5_8 O 0.5356(3) 0.69223(9) 0.048(2)
O7_8 O 0.6401(3) 0.67985(9) 0.012(2)
O17_8 O 0.5284(3) 0.67585(8) 0.424(2)
O18_8 O 0.4916(3) 0.66441(9) 0.556(2)
C136_15 C 0.3444(5) 0.6853(2) 0.030(5)
C138_15 C 0.4065(5) 0.6845(2) 0.090(4)
H104_15 H 0.4291 0.6869 0.0563
C139_15 C 0.4031(5) 0.6783(2) 0.246(4)
C140_15 C 0.3687(6) 0.6758(2) 0.323(5)
H105_15 H 0.3657 0.6719 0.4375
C141_15 C 0.3387(4) 0.6797(2) 0.211(4)
H106_15 H 0.3156 0.6786 0.2575
C142_15 C 0.4351(5) 0.67353(16) 0.356(3)
H107_15 H 0.4310 0.6684 0.4482
C143_15 C 0.4679(4) 0.67653(14) 0.323(3)
H108_15 H 0.4725 0.6815 0.2283
C144_15 C 0.4969(4) 0.67205(12) 0.436(3)
O6_8 O 0.5940(3) 0.67450(9) 0.848(2)
C35_8 C 0.3255(4) 0.72614(14) 0.148(4)
C36_8 C 0.3133(6) 0.73534(17) 0.232(3)
H27_8 H 0.3211 0.7376 0.3560
C37_8 C 0.2893(5) 0.74088(14) 0.121(3)
H28_8 H 0.2798 0.7467 0.1799
C38_8 C 0.3514(5) 0.71973(13) 0.259(3)
H29_8 H 0.3579 0.7136 0.1988
C39_8 C 0.3659(5) 0.72166(17) 0.427(5)
H30_8 H 0.3591 0.7278 0.4866
C40_8 C 0.3927(6) 0.71531(14) 0.544(4)
C41_8 C 0.4055(8) 0.70613(18) 0.464(4)
H31_8 H 0.3963 0.7035 0.3453
C42_8 C 0.4323(7) 0.70111(18) 0.567(4)
H32_8 H 0.4404 0.6949 0.5193
C43_8 C 0.4470(5) 0.70502(15) 0.736(4)
C44_8 C 0.4328(6) 0.71391(17) 0.817(5)
H33_8 H 0.4407 0.7162 0.9414
C45_8 C 0.4067(6) 0.7195(2) 0.715(5)
H34_8 H 0.3991 0.7258 0.7614
C46_8 C 0.4767(5) 0.70027(15) 0.840(4)
H35_8 H 0.4879 0.7042 0.9363
C47_8 C 0.4896(4) 0.69095(12) 0.812(3)
H36_8 H 0.4801 0.6871 0.7086
C48_8 C 0.5179(4) 0.68622(12) 0.933(3)
H39_7 H 0.8520 0.6428 0.0568
C54_7 C 0.7790(11) 0.6464(2) 0.019(5)
C55_7 C 0.7820(7) 0.6511(3) 0.185(5)
H42_7 H 0.8046 0.6508 0.2419
C56_7 C 0.7565(6) 0.6567(2) 0.297(5)
C57_8 C 0.7207(6) 0.6587(2) 0.244(4)
H43_8 H 0.7124 0.6567 0.1191
C58_8 C 0.6984(4) 0.66349(16) 0.370(3)
H44_8 H 0.6751 0.6647 0.3308
C59_8 C 0.7101(4) 0.66670(16) 0.563(4)
C60_8 C 0.7447(5) 0.6650(2) 0.623(4)
H45_7 H 0.7526 0.6669 0.7494
C61_7 C 0.7674(6) 0.6604(2) 0.482(5)
H46_7 H 0.7914 0.6598 0.5151
C62_8 C 0.6846(4) 0.67117(12) 0.710(4)
H47_8 H 0.6946 0.6739 0.8251
C63_8 C 0.6498(4) 0.67167(11) 0.697(3)
H48_8 H 0.6387 0.6695 0.5797
C64_8 C 0.6274(4) 0.67561(12) 0.866(3)
O10_8 O 0.5237(3) 0.67692(8) 0.925(2)
C99_8 C 0.1745(4) 0.77386(14) 0.148(4)
C100_8 C 0.1867(6) 0.76466(17) 0.232(3)
H75_8 H 0.1789 0.7624 0.3560
C101_8 C 0.2107(5) 0.75912(14) 0.121(3)
H76_8 H 0.2202 0.7533 0.1799
C102_8 C 0.1486(5) 0.78027(13) 0.259(3)
H77_8 H 0.1421 0.7864 0.1988
C103_8 C 0.1341(5) 0.77834(17) 0.427(5)
H78_8 H 0.1409 0.7722 0.4866
C104_8 C 0.1073(6) 0.78469(14) 0.544(4)
C105_8 C 0.0945(8) 0.79387(18) 0.464(4)
H79_8 H 0.1037 0.7965 0.3453
C106_8 C 0.0677(7) 0.79889(18) 0.567(4)
H80_8 H 0.0596 0.8051 0.5193
C107_8 C 0.0530(5) 0.79498(15) 0.736(4)
C108_8 C 0.0672(6) 0.78609(17) 0.817(5)
H81_8 H 0.0593 0.7838 0.9414
C109_8 C 0.0933(6) 0.7805(2) 0.715(5)
H82_8 H 0.1009 0.7742 0.7614
C110_8 C 0.0233(5) 0.79973(15) 0.840(4)
H83_8 H 0.0121 0.7958 0.9363
C111_8 C 0.0104(4) 0.80905(12) 0.812(3)
H84_8 H 0.0199 0.8129 0.7086
N9_13 N 0.2267(6) 0.69974(19) 0.348(5)
C129_15 C 0.2563(7) 0.7041(4) 0.333(7)
H97_15 H 0.2602 0.7089 0.2339
C130_15 C 0.2837(8) 0.7016(3) 0.469(6)
H98_15 H 0.3054 0.7050 0.4541
C131_15 C 0.2811(5) 0.6948(2) 0.619(5)
C132_13 C 0.2474(6) 0.69088(18) 0.634(5)
H99_13 H 0.2425 0.6865 0.7394
C133_13 C 0.2215(6) 0.6930(2) 0.508(6)
H100_13 H 0.1993 0.6900 0.5260
C134_15 C 0.3118(5) 0.6929(2) 0.749(4)
H101_15 H 0.3335 0.6955 0.7041
C135_15 C 0.3124(6) 0.6884(2) 0.914(5)
H102_15 H 0.2905 0.6867 0.9693
C137_15 C 0.3768(6) 0.6875(3) 0.973(5)
H103_15 H 0.3805 0.6911 0.8549
O23_8 O 0.0084(3) 0.83559(9) 0.556(2)
Cd2_11 Cd 0.2500 0.7500 0.7357(15)
O8_7 O 0.2366(4) 0.73743(13) 0.508(3)
O9_7 O 0.1915(5) 0.74599(12) 0.618(3)
N3_8 N 0.2787(4) 0.73876(10) 0.942(3)
N4_8 N 0.8528(6) 0.6293(2) 0.672(4)
C33_8 C 0.2886(6) 0.72965(14) 0.858(3)
H25_8 H 0.2800 0.7277 0.7332
C34_8 C 0.3119(6) 0.72344(14) 0.962(4)
H26_8 H 0.3187 0.7172 0.9066
C49_8 C 0.8188(5) 0.6308(2) 0.613(4)
H37_8 H 0.8107 0.6282 0.4921
C50_8 C 0.7963(6) 0.6363(2) 0.737(3)
H38_8 H 0.7726 0.6369 0.6993
C51_7 C 0.8065(5) 0.6410(2) 0.914(3)
C52_7 C 0.8422(6) 0.6396(4) 0.947(6)
C53_7 C 0.8638(9) 0.6340(3) 0.838(4)
H40_7 H 0.8875 0.6333 0.8769
H41_7 H 0.7566 0.6465 0.9601
C74_7 C 0.1348(9) 0.72612(19) 0.013(4)
H56_7 H 0.1213 0.7298 0.1033
C75_7 C 0.1740(8) 0.72518(18) 0.032(4)
C78_7 C 0.1937(7) 0.72954(17) 0.202(4)
H59_7 H 0.2182 0.7286 0.2023
C79_7 C 0.1806(7) 0.73459(16) 0.352(3)
H60_7 H 0.1561 0.7352 0.3679
C80_7 C 0.2046(6) 0.73938(19) 0.498(4)
O11_7 O 0.2634(4) 0.76257(13) 0.508(3)
O12_7 O 0.3085(5) 0.75401(12) 0.618(3)
C90_7 C 0.3652(9) 0.77388(19) 0.013(4)
H68_7 H 0.3787 0.7702 0.1033
C91_7 C 0.3260(8) 0.77482(18) 0.032(4)
C94_7 C 0.3063(7) 0.77046(17) 0.202(4)
H71_7 H 0.2818 0.7714 0.2023
C95_7 C 0.3194(7) 0.76541(16) 0.352(3)
H72_7 H 0.3439 0.7648 0.3679
C96_7 C 0.2954(6) 0.76062(19) 0.498(4)
N7_8 N 0.2213(4) 0.76124(10) 0.942(3)
C97_8 C 0.2114(6) 0.77035(14) 0.858(3)
H73_8 H 0.2200 0.7723 0.7332
C98_8 C 0.1881(6) 0.77656(14) 0.962(4)
H74_8 H 0.1813 0.7828 0.9066
C65_8 C 0.0745(4) 0.69529(13) 0.014(3)
C66_8 C 0.0856(5) 0.70073(11) 0.180(3)
H50_8 H 0.0691 0.7036 0.2681
C67_8 C 0.1218(5) 0.70184(13) 0.211(3)
C68_8 C 0.1438(4) 0.69722(13) 0.076(3)
H51_8 H 0.1683 0.6979 0.0911
C70_8 C 0.1377(5) 0.70789(15) 0.380(3)
H53_8 H 0.1620 0.7093 0.3740
C71_8 C 0.1208(6) 0.71125(15) 0.532(3)
H54_8 H 0.0963 0.7103 0.5361
C72_8 C 0.1385(7) 0.71662(16) 0.702(4)
C73_7 C 0.1192(8) 0.72101(17) 0.848(4)
H55_7 H 0.0945 0.7207 0.8401
C76_7 C 0.1916(6) 0.7204(2) 0.892(3)
H57_7 H 0.2162 0.7200 0.9029
C77_8 C 0.1755(7) 0.7159(2) 0.730(4)
H58_8 H 0.1893 0.7124 0.6373
C81_8 C 0.4255(4) 0.80471(13) 0.014(3)
C82_8 C 0.4144(5) 0.79927(11) 0.180(3)
H62_8 H 0.4309 0.7964 0.2681
C83_8 C 0.3782(5) 0.79816(13) 0.211(3)
C84_8 C 0.3562(4) 0.80278(13) 0.076(3)
H63_8 H 0.3317 0.8021 0.0911
C86_8 C 0.3623(5) 0.79211(15) 0.380(3)
H65_8 H 0.3380 0.7907 0.3740
C87_8 C 0.3792(6) 0.78875(15) 0.532(3)
H66_8 H 0.4037 0.7897 0.5361
C88_8 C 0.3615(7) 0.78338(16) 0.702(4)
C89_7 C 0.3808(8) 0.77899(17) 0.848(4)
H67_7 H 0.4055 0.7793 0.8401
C92_7 C 0.3084(6) 0.7796(2) 0.892(3)
H69_7 H 0.2838 0.7800 0.9029
C93_8 C 0.3245(7) 0.7841(2) 0.730(4)
H70_8 H 0.3107 0.7876 0.6373
H49_8 H 0.0502 0.6951 0.9875
C69_8 C 0.1311(4) 0.69162(12) 0.917(3)
H52_8 H 0.1470 0.6887 0.8273
H61_8 H 0.4498 0.8049 0.9875
C85_8 C 0.3689(4) 0.80838(12) 0.917(3)
H64_8 H 0.3530 0.8113 0.8273
O13_8 O 0.9644(3) 0.80777(9) 0.048(2)
O20_8 O 0.8599(3) 0.82015(9) 0.012(2)
O25_8 O 0.9716(3) 0.82415(8) 0.424(2)
C112_8 C 0.9821(4) 0.81378(12) 0.933(3)
O14_8 O 0.9763(3) 0.82308(8) 0.925(2)
O19_8 O 0.9060(3) 0.82550(9) 0.848(2)
H111_7 H 0.6480 0.8572 0.0568
C150_7 C 0.7210(11) 0.8536(2) 0.019(5)
C151_7 C 0.7180(7) 0.8489(3) 0.185(5)
H114_7 H 0.6954 0.8492 0.2419
C152_6 C 0.7435(6) 0.8433(2) 0.297(5)
C153_8 C 0.7793(6) 0.8413(2) 0.244(4)
H115_8 H 0.7876 0.8433 0.1191
C154_8 C 0.8016(4) 0.83651(16) 0.370(3)
H116_8 H 0.8249 0.8353 0.3308
C155_8 C 0.7899(4) 0.83330(16) 0.563(4)
C156_8 C 0.7553(5) 0.8350(2) 0.623(4)
H117_6 H 0.7474 0.8331 0.7494
C157_6 C 0.7326(6) 0.8396(2) 0.482(5)
H118_6 H 0.7086 0.8402 0.5151
C158_8 C 0.8154(4) 0.82883(12) 0.710(4)
H119_8 H 0.8054 0.8261 0.8251
C159_8 C 0.8502(4) 0.82833(11) 0.697(3)
H120_8 H 0.8613 0.8305 0.5797
C160_8 C 0.8726(4) 0.82439(12) 0.866(3)
N10_8 N 0.6472(6) 0.8707(2) 0.672(4)
C145_8 C 0.6812(5) 0.8692(2) 0.613(4)
H109_8 H 0.6893 0.8718 0.4921
C146_8 C 0.7037(6) 0.8637(2) 0.737(3)
H110_8 H 0.7274 0.8631 0.6993
C147_7 C 0.6935(5) 0.8590(2) 0.914(3)
C148_7 C 0.6578(6) 0.8604(4) 0.947(6)
C149_7 C 0.6362(9) 0.8660(3) 0.838(4)
H112_7 H 0.6125 0.8667 0.8769
H113_7 H 0.7434 0.8535 0.9601
C136_16 C 0.1556(5) 0.8147(2) 0.030(5)
C138_16 C 0.0935(5) 0.8155(2) 0.090(4)
H104_16 H 0.0709 0.8131 0.0563
C139_16 C 0.0969(5) 0.8217(2) 0.246(4)
C140_16 C 0.1313(6) 0.8242(2) 0.323(5)
H105_16 H 0.1343 0.8281 0.4375
C141_16 C 0.1613(4) 0.8203(2) 0.211(4)
H106_16 H 0.1844 0.8214 0.2575
C142_16 C 0.0649(5) 0.82647(16) 0.356(3)
H107_16 H 0.0690 0.8316 0.4482
C143_16 C 0.0321(4) 0.82347(14) 0.323(3)
H108_16 H 0.0275 0.8185 0.2283
C144_16 C 0.0031(4) 0.82795(12) 0.436(3)
N9_14 N 0.2733(6) 0.80026(19) 0.348(5)
C129_16 C 0.2437(7) 0.7959(4) 0.333(7)
H97_16 H 0.2398 0.7911 0.2339
C130_16 C 0.2163(8) 0.7984(3) 0.469(6)
H98_16 H 0.1946 0.7950 0.4541
C131_16 C 0.2189(5) 0.8052(2) 0.619(5)
C132_14 C 0.2526(6) 0.80912(18) 0.634(5)
H99_14 H 0.2575 0.8135 0.7394
C133_14 C 0.2785(6) 0.8070(2) 0.508(6)
H100_14 H 0.3007 0.8100 0.5260
C134_16 C 0.1882(5) 0.8071(2) 0.749(4)
H101_16 H 0.1665 0.8045 0.7041
C135_16 C 0.1876(6) 0.8116(2) 0.914(5)
H102_16 H 0.2095 0.8133 0.9693
C137_16 C 0.1232(6) 0.8125(3) 0.973(5)
H103_16 H 0.1195 0.8089 0.8549
C152_7 C 0.9935(6) 0.9067(2) 0.047(5)
H117_7 H 0.9974 0.9169 0.4994
C157_7 C 0.9826(6) 0.9104(2) 0.232(5)
H118_7 H 0.9586 0.9098 0.2651
C51_8 C 0.0565(5) 0.6090(2) 0.164(3)
C52_8 C 0.0922(6) 0.6104(4) 0.197(6)
H39_8 H 0.1020 0.6072 0.3068
C53_8 C 0.1138(9) 0.6160(3) 0.088(4)
H40_8 H 0.1375 0.6167 0.1269
C54_8 C 0.0290(11) 0.6036(2) 0.269(5)
H41_8 H 0.0066 0.6035 0.2101
C55_8 C 0.0320(7) 0.5989(3) 0.435(5)
H42_8 H 0.0546 0.5992 0.4919
C56_8 C 0.0065(6) 0.5933(2) 0.547(5)
H45_8 H 0.0026 0.5831 0.9994
C61_8 C 0.0174(6) 0.5896(2) 0.732(5)
H46_8 H 0.0414 0.5902 0.7651
C147_8 C 0.9435(5) 0.3910(2) 0.164(3)
C148_8 C 0.9078(6) 0.3896(4) 0.197(6)
H111_8 H 0.8980 0.3928 0.3068
C149_8 C 0.8862(9) 0.3840(3) 0.088(4)
H112_8 H 0.8625 0.3833 0.1269
C150_8 C 0.9710(11) 0.3964(2) 0.269(5)
H113_8 H 0.9934 0.3965 0.2101
C151_8 C 0.9680(7) 0.4011(3) 0.435(5)
H114_8 H 0.9454 0.4008 0.4919
C152_8 C 0.9935(6) 0.4067(2) 0.547(5)
H117_8 H 0.9974 0.4169 0.9994
C157_8 C 0.9826(6) 0.4104(2) 0.732(5)
H118_8 H 0.9586 0.4098 0.7651
Cd2_12 Cd -0.0000 1.0000 0.9857(15)
O11_8 O 0.0134(4) 0.98743(13) 0.758(3)
O12_8 O 0.0585(5) 0.99599(12) 0.868(3)
C89_8 C 0.1308(8) 0.97101(17) 0.098(4)
H67_8 H 0.1555 0.9707 0.0901
C90_8 C 0.1152(9) 0.97612(19) 0.263(4)
H68_8 H 0.1287 0.9798 0.3533
C91_8 C 0.0760(8) 0.97518(18) 0.282(4)
C92_8 C 0.0584(6) 0.9704(2) 0.142(3)
H69_8 H 0.0338 0.9700 0.1529
C94_8 C 0.0563(7) 0.97954(17) 0.452(4)
H71_8 H 0.0318 0.9786 0.4523
C95_8 C 0.0694(7) 0.98459(16) 0.602(3)
H72_8 H 0.0939 0.9852 0.6179
C96_8 C 0.0454(6) 0.98938(19) 0.748(4)
N9_15 N 0.0233(6) 0.94974(19) 0.598(5)
C132_15 C 0.0026(6) 0.94088(18) 0.884(5)
H99_15 H 0.0075 0.9365 0.9894
C133_15 C 0.0285(6) 0.9430(2) 0.758(6)
H100_15 H 0.0507 0.9400 0.7760
N9_16 N 0.9767(6) 0.05026(19) 0.598(5)
C132_16 C 0.9974(6) 0.05912(18) 0.884(5)
H99_16 H 0.9925 0.0635 0.9894
C133_16 C 0.9715(6) 0.0570(2) 0.758(6)
H100_16 H 0.9493 0.0600 0.7760
Cd2_13 Cd 1.0000 0.0000 0.9857(15)
O8_8 O 0.9866(4) 0.01257(13) 0.758(3)
O9_8 O 0.9415(5) 0.00401(12) 0.868(3)
C73_8 C 0.8692(8) 0.02899(17) 0.098(4)
H55_8 H 0.8445 0.0293 0.0901
C74_8 C 0.8848(9) 0.02388(19) 0.263(4)
H56_8 H 0.8713 0.0202 0.3533
C75_8 C 0.9240(8) 0.02482(18) 0.282(4)
C76_8 C 0.9416(6) 0.0296(2) 0.142(3)
H57_8 H 0.9662 0.0300 0.1529
C78_8 C 0.9437(7) 0.02046(17) 0.452(4)
H59_8 H 0.9682 0.0214 0.4523
C79_8 C 0.9306(7) 0.01541(16) 0.602(3)
H60_8 H 0.9061 0.0148 0.6179
C80_8 C 0.9546(6) 0.01062(19) 0.748(4)
loop_
_geom_bond_atom_site_label_1
_geom_bond_atom_site_label_2
_geom_bond_site_symmetry_1
_geom_bond_site_symmetry_2
C61 C56 1_555 1_555
H46 C61 1_555 1_555
N4 C49 1_555 1_555
C17 H13 1_555 1_555
C18 C17 1_555 1_555
C49 H37 1_555 1_555
C50 C49 1_555 1_555
H38 C50 1_555 1_555
C51 C50 1_555 1_555
C52 C51 1_555 1_555
H39 C52 1_555 1_555
C53 N4 1_555 1_555
H40 C53 1_555 1_555
C54 C51 1_555 1_555
H41 C54 1_555 1_555
C55 C54 1_555 1_555
H42 C55 1_555 1_555
C52 C53 1_555 1_555
H15 C20 1_555 1_555
C21 N2 1_555 1_555
H16 C21 1_555 1_555
Cd7 N2 1_555 1_555
C20 C21 1_555 1_555
Cd11 O16 1_555 1_555
O15 C128 1_555 1_555
H90 C119 1_555 1_555
C120 C119 1_555 1_555
C121 C120 1_555 1_555
H91 C121 1_555 1_555
C122 C121 1_555 1_555
H92 C122 1_555 1_555
C123 C122 1_555 1_555
C124 C123 1_555 1_555
H93 C124 1_555 1_555
C125 C120 1_555 1_555
H94 C125 1_555 1_555
C126 C123 1_555 1_555
H95 C126 1_555 1_555
C127 C126 1_555 1_555
H96 C127 1_555 1_555
C128 C127 1_555 1_555
O18 C144 1_555 1_555
H105 C140 1_555 1_555
H107 C142 1_555 1_555
C143 C142 1_555 1_555
C144 O17 1_555 1_555
Cd10 O15 1_555 1_555
Cd12 O17 1_555 1_555
C124 C125 1_555 1_555
O18 Cd12 1_555 1_555
C143 C144 1_555 1_555
Cd3 O5 1_555 1_555
O21 C32 1_555 1_555
O4 Cd12 1_555 1_555
O5 C48 1_555 1_555
O6 Cd12 1_555 1_555
O7 Cd3 1_555 1_555
C32 O4 1_555 1_555
C39 C38 1_555 1_555
H30 C39 1_555 1_555
C40 C39 1_555 1_555
C41 C40 1_555 1_555
H31 C41 1_555 1_555
C42 C41 1_555 1_555
H32 C42 1_555 1_555
C43 C42 1_555 1_555
C44 C43 1_555 1_555
H33 C44 1_555 1_555
C45 C40 1_555 1_555
H34 C45 1_555 1_555
C46 C43 1_555 1_555
H35 C46 1_555 1_555
C47 C46 1_555 1_555
H36 C47 1_555 1_555
C48 C47 1_555 1_555
H44 C58 1_555 1_555
C59 C58 1_555 1_555
C60 C59 1_555 1_555
C62 C59 1_555 1_555
H47 C62 1_555 1_555
C63 C62 1_555 1_555
H48 C63 1_555 1_555
C64 O6 1_555 1_555
O10 Cd12 1_555 1_555
N8 Cd12 1_555 1_555
C113 N8 1_555 1_555
H85 C113 1_555 1_555
C114 C113 1_555 1_555
C115 C114 1_555 1_555
C116 C115 1_555 1_555
H87 C116 1_555 1_555
C117 N8 1_555 1_555
H88 C117 1_555 1_555
C118 C115 1_555 1_555
H89 C118 1_555 1_555
N9 C129 1_555 1_555
C130 C129 1_555 1_555
H98 C130 1_555 1_555
C131 C130 1_555 1_555
C132 C131 1_555 1_555
H99 C132 1_555 1_555
C133 N9 1_555 1_555
H100 C133 1_555 1_555
C134 C131 1_555 1_555
H101 C134 1_555 1_555
C135 C134 1_555 1_555
H102 C135 1_555 1_555
C136 C135 1_555 1_555
C137 C136 1_555 1_555
H103 C137 1_555 1_555
C138 C137 1_555 1_555
H104 C138 1_555 1_555
C139 C138 1_555 1_555
C141 C136 1_555 1_555
Cd3 O10 1_555 1_555
Cd3 O6 1_555 1_555
O7 C64 1_555 1_555
C44 C45 1_555 1_555
C48 O10 1_555 1_555
C63 C64 1_555 1_555
C116 C117 1_555 1_555
C132 C133 1_555 1_555
Cd2 O8 1_555 1_555
O8 C80 1_555 1_555
O9 Cd2 1_555 1_555
N3 Cd2 1_555 1_555
C22 C19 1_555 1_555
H17 C22 1_555 1_555
C23 C22 1_555 1_555
H18 C23 1_555 1_555
C24 C23 1_555 1_555
C25 C24 1_555 1_555
H19 C25 1_555 1_555
C26 C25 1_555 1_555
H20 C26 1_555 1_555
C27 C26 1_555 1_555
C28 C27 1_555 1_555
H21 C28 1_555 1_555
C29 C24 1_555 1_555
H22 C29 1_555 1_555
C30 C27 1_555 1_555
H23 C30 1_555 1_555
C31 C30 1_555 1_555
C33 N3 1_555 1_555
H25 C33 1_555 1_555
C34 C33 1_555 1_555
H26 C34 1_555 1_555
C35 C34 1_555 1_555
C36 C35 1_555 1_555
C37 N3 1_555 1_555
H28 C37 1_555 1_555
H43 C57 1_555 1_555
H60 C79 1_555 1_555
C80 O9 1_555 1_555
C28 C29 1_555 1_555
C36 C37 1_555 1_555
C79 C80 1_555 1_555
H53 C70 1_555 1_555
C71 C70 1_555 1_555
H54 C71 1_555 1_555
C72 C71 1_555 1_555
C73 C72 1_555 1_555
H55 C73 1_555 1_555
C74 C73 1_555 1_555
H56 C74 1_555 1_555
C75 C74 1_555 1_555
C76 C75 1_555 1_555
H57 C76 1_555 1_555
C77 C72 1_555 1_555
H58 C77 1_555 1_555
C78 C75 1_555 1_555
H59 C78 1_555 1_555
C76 C77 1_555 1_555
N5 C65 1_555 1_555
C65 H49 1_555 1_555
C66 C65 1_555 1_555
C67 C66 1_555 1_555
C68 C67 1_555 1_555
H51 C68 1_555 1_555
C69 N5 1_555 1_555
H52 C69 1_555 1_555
Cd8 N5 1_555 1_555
C68 C69 1_555 1_555
O13 C112 1_555 1_555
C103 C102 1_555 1_555
H78 C103 1_555 1_555
C104 C103 1_555 1_555
C105 C104 1_555 1_555
H79 C105 1_555 1_555
C106 C105 1_555 1_555
H80 C106 1_555 1_555
C107 C106 1_555 1_555
C108 C107 1_555 1_555
H81 C108 1_555 1_555
C109 C104 1_555 1_555
H82 C109 1_555 1_555
C110 C107 1_555 1_555
H83 C110 1_555 1_555
C111 C110 1_555 1_555
H84 C111 1_555 1_555
C112 C111 1_555 1_555
O14 C112 1_555 1_555
Cd4 O14 1_555 1_555
Cd5 O13 1_555 1_555
O19 Cd4 1_555 1_555
O20 Cd5 1_555 1_555
H116 C154 1_555 1_555
C155 C154 1_555 1_555
C156 C155 1_555 1_555
C158 C155 1_555 1_555
H119 C158 1_555 1_555
C159 C158 1_555 1_555
H120 C159 1_555 1_555
C160 O19 1_555 1_555
O25 Cd4 1_555 1_555
O23 Cd4 1_555 1_555
O24 Cd4 1_555 1_555
N12 Cd4 1_555 1_555
C108 C109 1_555 1_555
O14 Cd5 1_555 1_555
Cd5 O19 1_555 1_555
O20 C160 1_555 1_555
C159 C160 1_555 1_555
O11 Cd2_2 1_555 1_555
O12 Cd2_2 1_555 1_555
H72 C95 1_555 1_555
C96 O11 1_555 1_555
N7 Cd2_2 1_555 1_555
C97 N7 1_555 1_555
H73 C97 1_555 1_555
C98 C97 1_555 1_555
H74 C98 1_555 1_555
C99 C98 1_555 1_555
C100 C99 1_555 1_555
C101 N7 1_555 1_555
H76 C101 1_555 1_555
H115 C153 1_555 1_555
O12 C96 1_555 1_555
C95 C96 1_555 1_555
C100 C101 1_555 1_555
H65 C86 1_555 1_555
C87 C86 1_555 1_555
H66 C87 1_555 1_555
C88 C87 1_555 1_555
C89 C88 1_555 1_555
H67 C89 1_555 1_555
C90 C89 1_555 1_555
H68 C90 1_555 1_555
C91 C90 1_555 1_555
C92 C91 1_555 1_555
H69 C92 1_555 1_555
C93 C88 1_555 1_555
H70 C93 1_555 1_555
C94 C91 1_555 1_555
H71 C94 1_555 1_555
C92 C93 1_555 1_555
N6 C81 1_555 1_555
C81 H61 1_555 1_555
C82 C81 1_555 1_555
C83 C82 1_555 1_555
C84 C83 1_555 1_555
H63 C84 1_555 1_555
C85 N6 1_555 1_555
H64 C85 1_555 1_555
Cd9 N6 1_555 1_555
C84 C85 1_555 1_555
N10 C145 1_555 1_555
C145 H109 1_555 1_555
C146 C145 1_555 1_555
H110 C146 1_555 1_555
C147 C146 1_555 1_555
C148 C147 1_555 1_555
H111 C148 1_555 1_555
C149 N10 1_555 1_555
H112 C149 1_555 1_555
C150 C147 1_555 1_555
H113 C150 1_555 1_555
C151 C150 1_555 1_555
H114 C151 1_555 1_555
C148 C149 1_555 1_555
Cd11_2 O16_2 1_555 1_555
O15_2 C128_2 1_555 1_555
H90_2 C119_2 1_555 1_555
C120_2 C119_2 1_555 1_555
C121_2 C120_2 1_555 1_555
H91_2 C121_2 1_555 1_555
C122_2 C121_2 1_555 1_555
H92_2 C122_2 1_555 1_555
C123_2 C122_2 1_555 1_555
C124_2 C123_2 1_555 1_555
H93_2 C124_2 1_555 1_555
C125_2 C120_2 1_555 1_555
H94_2 C125_2 1_555 1_555
C126_2 C123_2 1_555 1_555
H95_2 C126_2 1_555 1_555
C127_2 C126_2 1_555 1_555
H96_2 C127_2 1_555 1_555
C128_2 C127_2 1_555 1_555
O23 C144_2 1_555 1_555
H105_2 C140_2 1_555 1_555
H107_2 C142_2 1_555 1_555
C143_2 C142_2 1_555 1_555
C144_2 O25 1_555 1_555
Cd10_2 O15_2 1_555 1_555
C124_2 C125_2 1_555 1_555
C143_2 C144_2 1_555 1_555
O26 C32_2 1_555 1_555
C32_2 O24 1_555 1_555
C113_2 N12 1_555 1_555
H85_2 C113_2 1_555 1_555
C114_2 C113_2 1_555 1_555
C115_2 C114_2 1_555 1_555
C116_2 C115_2 1_555 1_555
H87_2 C116_2 1_555 1_555
C117_2 N12 1_555 1_555
H88_2 C117_2 1_555 1_555
C118_2 C115_2 1_555 1_555
H89_2 C118_2 1_555 1_555
N9_2 C129_2 1_555 1_555
C130_2 C129_2 1_555 1_555
H98_2 C130_2 1_555 1_555
C131_2 C130_2 1_555 1_555
C132_2 C131_2 1_555 1_555
H99_2 C132_2 1_555 1_555
C133_2 N9_2 1_555 1_555
H100_2 C133_2 1_555 1_555
C134_2 C131_2 1_555 1_555
H101_2 C134_2 1_555 1_555
C135_2 C134_2 1_555 1_555
H102_2 C135_2 1_555 1_555
C136_2 C135_2 1_555 1_555
C137_2 C136_2 1_555 1_555
H103_2 C137_2 1_555 1_555
C138_2 C137_2 1_555 1_555
H104_2 C138_2 1_555 1_555
C139_2 C138_2 1_555 1_555
C141_2 C136_2 1_555 1_555
C116_2 C117_2 1_555 1_555
C132_2 C133_2 1_555 1_555
C22_2 C19_2 1_555 1_555
H17_2 C22_2 1_555 1_555
C23_2 C22_2 1_555 1_555
H18_2 C23_2 1_555 1_555
C24_2 C23_2 1_555 1_555
C25_2 C24_2 1_555 1_555
H19_2 C25_2 1_555 1_555
C26_2 C25_2 1_555 1_555
H20_2 C26_2 1_555 1_555
C27_2 C26_2 1_555 1_555
C28_2 C27_2 1_555 1_555
H21_2 C28_2 1_555 1_555
C29_2 C24_2 1_555 1_555
H22_2 C29_2 1_555 1_555
C30_2 C27_2 1_555 1_555
H23_2 C30_2 1_555 1_555
C31_2 C30_2 1_555 1_555
C28_2 C29_2 1_555 1_555
C17_2 H13_2 1_555 1_555
C18_2 C17_2 1_555 1_555
H15_2 C20_2 1_555 1_555
C21_2 N2_2 1_555 1_555
H16_2 C21_2 1_555 1_555
Cd7_2 N2_2 1_555 1_555
C20_2 C21_2 1_555 1_555
Cd3_2 O5_2 1_555 1_555
O7_2 Cd3_2 1_555 1_555
O17_2 Cd3_2 1_555 1_555
O21_2 Cd3_2 1_555 1_555
N11_2 Cd3_2 1_555 1_555
Cd7 O17_2 1_555 1_555
O21_2 C32_3 1_555 1_555
O4_2 Cd7 1_555 1_555
O6_2 Cd7 1_555 1_555
H20_3 C26_3 1_555 1_555
H23_3 C30_3 1_555 1_555
C31_3 C30_3 1_555 1_555
H24_3 C31_3 1_555 1_555
C32_3 O4_2 1_555 1_555
C55_2 C54_2 1_555 1_555
H42_2 C55_2 1_555 1_555
C56_2 C55_2 1_555 1_555
C57_2 C56_2 1_555 1_555
H43_2 C57_2 1_555 1_555
C58_2 C57_2 1_555 1_555
H44_2 C58_2 1_555 1_555
C59_2 C58_2 1_555 1_555
C60_2 C59_2 1_555 1_555
H45_2 C60_2 1_555 1_555
C61_2 C56_2 1_555 1_555
H46_2 C61_2 1_555 1_555
C62_2 C59_2 1_555 1_555
H47_2 C62_2 1_555 1_555
C63_2 C62_2 1_555 1_555
H48_2 C63_2 1_555 1_555
C64_2 O6_2 1_555 1_555
O10_2 Cd7 1_555 1_555
C31_3 C32_3 1_555 1_555
C48_2 O10_2 1_555 1_555
C60_2 C61_2 1_555 1_555
C63_2 C64_2 1_555 1_555
N2_3 C17_3 1_555 1_555
N4_2 C49_2 1_555 1_555
C17_3 H13_3 1_555 1_555
C18_3 C17_3 1_555 1_555
H14_3 C18_3 1_555 1_555
C19_3 C18_3 1_555 1_555
C20_3 C19_3 1_555 1_555
H15_3 C20_3 1_555 1_555
C21_3 N2_3 1_555 1_555
C22_3 C19_3 1_555 1_555
H17_3 C22_3 1_555 1_555
C23_3 C22_3 1_555 1_555
H18_3 C23_3 1_555 1_555
C24_3 C23_3 1_555 1_555
C25_3 C24_3 1_555 1_555
H19_3 C25_3 1_555 1_555
C28_3 C27_3 1_555 1_555
H21_3 C28_3 1_555 1_555
C29_3 C24_3 1_555 1_555
H22_3 C29_3 1_555 1_555
C49_2 H37_2 1_555 1_555
C50_2 C49_2 1_555 1_555
H38_2 C50_2 1_555 1_555
C51_2 C50_2 1_555 1_555
C52_2 C51_2 1_555 1_555
C53_2 N4_2 1_555 1_555
H40_2 C53_2 1_555 1_555
C20_3 C21_3 1_555 1_555
C28_3 C29_3 1_555 1_555
C52_2 C53_2 1_555 1_555
Cd5_2 O13_2 1_555 1_555
O18_2 C144_3 1_555 1_555
H104_3 C138_3 1_555 1_555
C139_3 C138_3 1_555 1_555
C140_3 C139_3 1_555 1_555
H105_3 C140_3 1_555 1_555
C141_3 C136_3 1_555 1_555
H106_3 C141_3 1_555 1_555
C142_3 C139_3 1_555 1_555
H107_3 C142_3 1_555 1_555
C143_3 C142_3 1_555 1_555
H108_3 C143_3 1_555 1_555
O20_2 Cd5_2 1_555 1_555
O25_2 Cd5_2 1_555 1_555
O26_2 Cd5_2 1_555 1_555
N13_2 Cd5_2 1_555 1_555
C140_3 C141_3 1_555 1_555
C143_3 C144_3 1_555 1_555
C36_2 C35_2 1_555 1_555
H27_2 C36_2 1_555 1_555
H28_2 C37_2 1_555 1_555
C38_2 C35_2 1_555 1_555
H29_2 C38_2 1_555 1_555
C39_2 C38_2 1_555 1_555
H30_2 C39_2 1_555 1_555
C40_2 C39_2 1_555 1_555
C41_2 C40_2 1_555 1_555
H31_2 C41_2 1_555 1_555
C42_2 C41_2 1_555 1_555
H32_2 C42_2 1_555 1_555
C43_2 C42_2 1_555 1_555
C44_2 C43_2 1_555 1_555
H33_2 C44_2 1_555 1_555
C45_2 C40_2 1_555 1_555
H34_2 C45_2 1_555 1_555
C46_2 C43_2 1_555 1_555
H35_2 C46_2 1_555 1_555
C47_2 C46_2 1_555 1_555
H36_2 C47_2 1_555 1_555
C100_2 C99_2 1_555 1_555
H75_2 C100_2 1_555 1_555
H76_2 C101_2 1_555 1_555
C102_2 C99_2 1_555 1_555
H77_2 C102_2 1_555 1_555
C103_2 C102_2 1_555 1_555
H78_2 C103_2 1_555 1_555
C104_2 C103_2 1_555 1_555
C105_2 C104_2 1_555 1_555
H79_2 C105_2 1_555 1_555
C106_2 C105_2 1_555 1_555
H80_2 C106_2 1_555 1_555
C107_2 C106_2 1_555 1_555
C108_2 C107_2 1_555 1_555
H81_2 C108_2 1_555 1_555
C109_2 C104_2 1_555 1_555
H82_2 C109_2 1_555 1_555
C110_2 C107_2 1_555 1_555
H83_2 C110_2 1_555 1_555
C111_2 C110_2 1_555 1_555
H84_2 C111_2 1_555 1_555
C112_2 C111_2 1_555 1_555
O14_2 C112_2 1_555 1_555
Cd4_2 O14_2 1_555 1_555
N9_3 C129_3 1_555 1_555
C129_3 H97_3 1_555 1_555
C130_3 C129_3 1_555 1_555
H98_3 C130_3 1_555 1_555
C131_3 C130_3 1_555 1_555
C132_3 C131_3 1_555 1_555
H99_3 C132_3 1_555 1_555
C133_3 N9_3 1_555 1_555
H100_3 C133_3 1_555 1_555
C134_3 C131_3 1_555 1_555
H101_3 C134_3 1_555 1_555
C135_3 C134_3 1_555 1_555
H102_3 C135_3 1_555 1_555
H103_3 C137_3 1_555 1_555
O19_2 Cd4_2 1_555 1_555
C151_2 C150_2 1_555 1_555
H114_2 C151_2 1_555 1_555
C152 C151_2 1_555 1_555
C153_2 C152 1_555 1_555
H115_2 C153_2 1_555 1_555
C154_2 C153_2 1_555 1_555
H116_2 C154_2 1_555 1_555
C155_2 C154_2 1_555 1_555
C156_2 C155_2 1_555 1_555
H117 C156_2 1_555 1_555
C157 C152 1_555 1_555
H118 C157 1_555 1_555
C158_2 C155_2 1_555 1_555
H119_2 C158_2 1_555 1_555
C159_2 C158_2 1_555 1_555
H120_2 C159_2 1_555 1_555
C160_2 O19_2 1_555 1_555
O25_2 Cd4_2 1_555 1_555
O23_2 Cd4_2 1_555 1_555
O24_2 Cd4_2 1_555 1_555
N12_2 Cd4_2 1_555 1_555
C36_2 C37_2 1_555 1_555
C44_2 C45_2 1_555 1_555
C100_2 C101_2 1_555 1_555
C108_2 C109_2 1_555 1_555
C132_3 C133_3 1_555 1_555
C156_2 C157 1_555 1_555
C159_2 C160_2 1_555 1_555
Cd2_3 O8_2 1_555 1_555
O8_2 C80_2 1_555 1_555
O9_2 Cd2_3 1_555 1_555
N3_2 Cd2_3 1_555 1_555
C33_2 N3_2 1_555 1_555
H25_2 C33_2 1_555 1_555
C34_2 C33_2 1_555 1_555
H26_2 C34_2 1_555 1_555
H56_2 C74_2 1_555 1_555
C75_2 C74_2 1_555 1_555
C78_2 C75_2 1_555 1_555
H59_2 C78_2 1_555 1_555
C79_2 C78_2 1_555 1_555
H60_2 C79_2 1_555 1_555
C80_2 O9_2 1_555 1_555
O11_2 Cd2_3 1_555 1_555
O12_2 Cd2_3 1_555 1_555
H68_2 C90_2 1_555 1_555
C91_2 C90_2 1_555 1_555
C94_2 C91_2 1_555 1_555
H71_2 C94_2 1_555 1_555
C95_2 C94_2 1_555 1_555
H72_2 C95_2 1_555 1_555
C96_2 O11_2 1_555 1_555
N7_2 Cd2_3 1_555 1_555
C97_2 N7_2 1_555 1_555
H73_2 C97_2 1_555 1_555
C98_2 C97_2 1_555 1_555
H74_2 C98_2 1_555 1_555
N10_2 C145_2 1_555 1_555
C145_2 H109_2 1_555 1_555
C146_2 C145_2 1_555 1_555
H110_2 C146_2 1_555 1_555
C147_2 C146_2 1_555 1_555
C148_2 C147_2 1_555 1_555
C149_2 N10_2 1_555 1_555
H112_2 C149_2 1_555 1_555
C79_2 C80_2 1_555 1_555
O12_2 C96_2 1_555 1_555
C95_2 C96_2 1_555 1_555
C148_2 C149_2 1_555 1_555
C66_2 C65_2 1_555 1_555
H50_2 C66_2 1_555 1_555
C67_2 C66_2 1_555 1_555
C68_2 C67_2 1_555 1_555
H51_2 C68_2 1_555 1_555
C70_2 C67_2 1_555 1_555
H53_2 C70_2 1_555 1_555
C71_2 C70_2 1_555 1_555
H54_2 C71_2 1_555 1_555
C72_2 C71_2 1_555 1_555
C73_2 C72_2 1_555 1_555
H55_2 C73_2 1_555 1_555
H57_2 C76_2 1_555 1_555
C77_2 C72_2 1_555 1_555
H58_2 C77_2 1_555 1_555
C82_2 C81_2 1_555 1_555
H62_2 C82_2 1_555 1_555
C83_2 C82_2 1_555 1_555
C84_2 C83_2 1_555 1_555
H63_2 C84_2 1_555 1_555
C86_2 C83_2 1_555 1_555
H65_2 C86_2 1_555 1_555
C87_2 C86_2 1_555 1_555
H66_2 C87_2 1_555 1_555
C88_2 C87_2 1_555 1_555
C89_2 C88_2 1_555 1_555
H67_2 C89_2 1_555 1_555
H69_2 C92_2 1_555 1_555
C93_2 C88_2 1_555 1_555
H70_2 C93_2 1_555 1_555
C76_2 C77_2 1_555 1_555
C92_2 C93_2 1_555 1_555
C69_2 N5_2 1_555 1_555
H52_2 C69_2 1_555 1_555
C85_2 N6_2 1_555 1_555
H64_2 C85_2 1_555 1_555
Cd10 N5_2 1_555 1_555
Cd9_2 N6_2 1_555 1_555
O15_3 C128_3 1_555 1_555
O16_3 C128_3 1_555 1_555
Cd11_3 O16_3 1_555 1_555
H85_3 C113_3 1_555 1_555
C114_3 C113_3 1_555 1_555
H86_3 C114_3 1_555 1_555
C115_3 C114_3 1_555 1_555
C118_3 C115_3 1_555 1_555
H89_3 C118_3 1_555 1_555
C119_3 C118_3 1_555 1_555
H90_3 C119_3 1_555 1_555
C120_3 C119_3 1_555 1_555
C121_3 C120_3 1_555 1_555
H91_3 C121_3 1_555 1_555
C122_3 C121_3 1_555 1_555
H92_3 C122_3 1_555 1_555
C123_3 C122_3 1_555 1_555
C124_3 C123_3 1_555 1_555
H93_3 C124_3 1_555 1_555
C125_3 C120_3 1_555 1_555
H94_3 C125_3 1_555 1_555
C126_3 C123_3 1_555 1_555
H95_3 C126_3 1_555 1_555
C127_3 C126_3 1_555 1_555
O23_2 C144_4 1_555 1_555
H104_4 C138_4 1_555 1_555
C139_4 C138_4 1_555 1_555
C140_4 C139_4 1_555 1_555
H105_4 C140_4 1_555 1_555
C141_4 C136_4 1_555 1_555
H106_4 C141_4 1_555 1_555
C142_4 C139_4 1_555 1_555
H107_4 C142_4 1_555 1_555
C143_4 C142_4 1_555 1_555
H108_4 C143_4 1_555 1_555
C144_4 O25_2 1_555 1_555
C124_3 C125_3 1_555 1_555
C140_4 C141_4 1_555 1_555
C143_4 C144_4 1_555 1_555
O26_2 C32_4 1_555 1_555
H20_4 C26_4 1_555 1_555
H23_4 C30_4 1_555 1_555
C31_4 C30_4 1_555 1_555
H24_4 C31_4 1_555 1_555
C32_4 O24_2 1_555 1_555
H87_3 C116_3 1_555 1_555
C117_3 N12_2 1_555 1_555
H88_3 C117_3 1_555 1_555
N9_4 C129_4 1_555 1_555
C129_4 H97_4 1_555 1_555
C130_4 C129_4 1_555 1_555
H98_4 C130_4 1_555 1_555
C131_4 C130_4 1_555 1_555
C132_4 C131_4 1_555 1_555
H99_4 C132_4 1_555 1_555
C133_4 N9_4 1_555 1_555
H100_4 C133_4 1_555 1_555
C134_4 C131_4 1_555 1_555
H101_4 C134_4 1_555 1_555
C135_4 C134_4 1_555 1_555
H102_4 C135_4 1_555 1_555
H103_4 C137_4 1_555 1_555
C31_4 C32_4 1_555 1_555
C116_3 C117_3 1_555 1_555
C132_4 C133_4 1_555 1_555
N2_4 C17_4 1_555 1_555
C17_4 H13_4 1_555 1_555
C18_4 C17_4 1_555 1_555
H14_4 C18_4 1_555 1_555
C19_4 C18_4 1_555 1_555
C20_4 C19_4 1_555 1_555
H15_4 C20_4 1_555 1_555
C21_4 N2_4 1_555 1_555
C22_4 C19_4 1_555 1_555
H17_4 C22_4 1_555 1_555
C23_4 C22_4 1_555 1_555
H18_4 C23_4 1_555 1_555
C24_4 C23_4 1_555 1_555
C25_4 C24_4 1_555 1_555
H19_4 C25_4 1_555 1_555
C28_4 C27_4 1_555 1_555
H21_4 C28_4 1_555 1_555
C29_4 C24_4 1_555 1_555
H22_4 C29_4 1_555 1_555
C20_4 C21_4 1_555 1_555
C28_4 C29_4 1_555 1_555
N2_5 C17_5 1_555 1_555
N4_3 C49_3 1_555 1_555
C17_5 H13_5 1_555 1_555
C18_5 C17_5 1_555 1_555
H15_5 C20_5 1_555 1_555
C21_5 N2_5 1_555 1_555
H16_5 C21_5 1_555 1_555
C49_3 H37_3 1_555 1_555
C50_3 C49_3 1_555 1_555
H38_3 C50_3 1_555 1_555
Cd7_5 N2_5 1_555 1_555
C20_5 C21_5 1_555 1_555
O15_4 C128_4 1_555 1_555
O16_4 C128_4 1_555 1_555
H92_4 C122_4 1_555 1_555
H95_4 C126_4 1_555 1_555
C127_4 C126_4 1_555 1_555
H96_4 C127_4 1_555 1_555
C128_4 C127_4 1_555 1_555
Cd10_4 O15_4 1_555 1_555
Cd11_4 O16_4 1_555 1_555
Cd3_3 O5_3 1_555 1_555
O5_3 C48_3 1_555 1_555
O7_3 Cd3_3 1_555 1_555
H33_3 C44_3 1_555 1_555
H35_3 C46_3 1_555 1_555
C47_3 C46_3 1_555 1_555
C48_3 C47_3 1_555 1_555
C64_3 O6_3 1_555 1_555
O13_3 C112_3 1_555 1_555
H81_3 C108_3 1_555 1_555
H83_3 C110_3 1_555 1_555
C111_3 C110_3 1_555 1_555
C112_3 C111_3 1_555 1_555
O14_3 C112_3 1_555 1_555
Cd5_3 O13_3 1_555 1_555
C113_4 N8_2 1_555 1_555
H85_4 C113_4 1_555 1_555
C114_4 C113_4 1_555 1_555
H86_4 C114_4 1_555 1_555
C115_4 C114_4 1_555 1_555
C116_4 C115_4 1_555 1_555
H87_4 C116_4 1_555 1_555
C117_4 N8_2 1_555 1_555
C118_4 C115_4 1_555 1_555
H89_4 C118_4 1_555 1_555
C119_4 C118_4 1_555 1_555
H90_4 C119_4 1_555 1_555
C120_4 C119_4 1_555 1_555
C121_4 C120_4 1_555 1_555
H91_4 C121_4 1_555 1_555
C124_4 C123_4 1_555 1_555
H93_4 C124_4 1_555 1_555
C125_4 C120_4 1_555 1_555
H94_4 C125_4 1_555 1_555
O17_3 Cd3_3 1_555 1_555
O18_3 C144_5 1_555 1_555
H102_5 C135_5 1_555 1_555
C136_5 C135_5 1_555 1_555
C137_5 C136_5 1_555 1_555
H103_5 C137_5 1_555 1_555
C138_5 C137_5 1_555 1_555
H104_5 C138_5 1_555 1_555
C139_5 C138_5 1_555 1_555
C140_5 C139_5 1_555 1_555
H105_5 C140_5 1_555 1_555
C141_5 C136_5 1_555 1_555
H106_5 C141_5 1_555 1_555
C142_5 C139_5 1_555 1_555
H107_5 C142_5 1_555 1_555
C143_5 C142_5 1_555 1_555
H108_5 C143_5 1_555 1_555
C144_5 O17_3 1_555 1_555
O20_3 Cd5_3 1_555 1_555
C160_3 O19_3 1_555 1_555
O21_3 Cd3_3 1_555 1_555
N11_3 Cd3_3 1_555 1_555
O25_3 Cd5_3 1_555 1_555
O26_3 Cd5_3 1_555 1_555
N13_3 Cd5_3 1_555 1_555
Cd12_2 O17_3 1_555 1_555
Cd3_3 O10_3 1_555 1_555
Cd3_3 O6_3 1_555 1_555
O7_3 C64_3 1_555 1_555
C48_3 O10_3 1_555 1_555
O14_3 Cd5_3 1_555 1_555
Cd5_3 O19_3 1_555 1_555
C116_4 C117_4 1_555 1_555
C124_4 C125_4 1_555 1_555
O18_3 Cd12_2 1_555 1_555
C140_5 C141_5 1_555 1_555
C143_5 C144_5 1_555 1_555
O20_3 C160_3 1_555 1_555
O21_3 C32_5 1_555 1_555
O4_3 Cd12_2 1_555 1_555
C25_5 C24_5 1_555 1_555
H19_5 C25_5 1_555 1_555
C26_5 C25_5 1_555 1_555
H20_5 C26_5 1_555 1_555
C27_5 C26_5 1_555 1_555
C28_5 C27_5 1_555 1_555
C30_5 C27_5 1_555 1_555
H23_5 C30_5 1_555 1_555
C31_5 C30_5 1_555 1_555
H24_5 C31_5 1_555 1_555
C32_5 O4_3 1_555 1_555
C33_3 N3_3 1_555 1_555
C34_3 C33_3 1_555 1_555
H26_3 C34_3 1_555 1_555
C35_3 C34_3 1_555 1_555
C36_3 C35_3 1_555 1_555
H27_3 C36_3 1_555 1_555
C37_3 N3_3 1_555 1_555
H28_3 C37_3 1_555 1_555
C38_3 C35_3 1_555 1_555
H29_3 C38_3 1_555 1_555
C39_3 C38_3 1_555 1_555
H30_3 C39_3 1_555 1_555
C40_3 C39_3 1_555 1_555
C41_3 C40_3 1_555 1_555
H31_3 C41_3 1_555 1_555
C42_3 C41_3 1_555 1_555
H32_3 C42_3 1_555 1_555
C43_3 C42_3 1_555 1_555
C45_3 C40_3 1_555 1_555
H43_3 C57_3 1_555 1_555
C58_3 C57_3 1_555 1_555
H44_3 C58_3 1_555 1_555
C59_3 C58_3 1_555 1_555
C60_3 C59_3 1_555 1_555
C62_3 C59_3 1_555 1_555
C63_3 C62_3 1_555 1_555
H48_3 C63_3 1_555 1_555
C97_3 N7_3 1_555 1_555
C98_3 C97_3 1_555 1_555
H74_3 C98_3 1_555 1_555
C99_3 C98_3 1_555 1_555
C100_3 C99_3 1_555 1_555
H75_3 C100_3 1_555 1_555
C101_3 N7_3 1_555 1_555
H76_3 C101_3 1_555 1_555
C102_3 C99_3 1_555 1_555
H77_3 C102_3 1_555 1_555
C103_3 C102_3 1_555 1_555
H78_3 C103_3 1_555 1_555
C104_3 C103_3 1_555 1_555
C105_3 C104_3 1_555 1_555
H79_3 C105_3 1_555 1_555
C106_3 C105_3 1_555 1_555
H80_3 C106_3 1_555 1_555
C107_3 C106_3 1_555 1_555
C109_3 C104_3 1_555 1_555
N9_5 C129_5 1_555 1_555
C129_5 H97_5 1_555 1_555
C130_5 C129_5 1_555 1_555
H98_5 C130_5 1_555 1_555
C131_5 C130_5 1_555 1_555
C132_5 C131_5 1_555 1_555
H99_5 C132_5 1_555 1_555
C133_5 N9_5 1_555 1_555
H100_5 C133_5 1_555 1_555
C134_5 C131_5 1_555 1_555
H101_5 C134_5 1_555 1_555
H115_3 C153_3 1_555 1_555
C154_3 C153_3 1_555 1_555
H116_3 C154_3 1_555 1_555
C155_3 C154_3 1_555 1_555
C156_3 C155_3 1_555 1_555
C158_3 C155_3 1_555 1_555
C159_3 C158_3 1_555 1_555
H120_3 C159_3 1_555 1_555
O25_3 Cd7_4 1_555 1_555
O23_3 Cd7_4 1_555 1_555
O24_3 Cd7_4 1_555 1_555
C31_5 C32_5 1_555 1_555
C36_3 C37_3 1_555 1_555
C100_3 C101_3 1_555 1_555
C132_5 C133_5 1_555 1_555
Cd2_4 O8_3 1_555 1_555
O8_3 C80_3 1_555 1_555
O9_3 Cd2_4 1_555 1_555
C22_5 C19_5 1_555 1_555
H17_5 C22_5 1_555 1_555
C23_5 C22_5 1_555 1_555
H18_5 C23_5 1_555 1_555
H22_5 C29_5 1_555 1_555
H55_3 C73_3 1_555 1_555
C74_3 C73_3 1_555 1_555
H56_3 C74_3 1_555 1_555
C75_3 C74_3 1_555 1_555
C76_3 C75_3 1_555 1_555
H57_3 C76_3 1_555 1_555
C78_3 C75_3 1_555 1_555
H59_3 C78_3 1_555 1_555
C79_3 C78_3 1_555 1_555
H60_3 C79_3 1_555 1_555
C80_3 O9_3 1_555 1_555
O11_3 Cd2_4 1_555 1_555
O12_3 Cd2_4 1_555 1_555
H67_3 C89_3 1_555 1_555
C90_3 C89_3 1_555 1_555
H68_3 C90_3 1_555 1_555
C91_3 C90_3 1_555 1_555
C92_3 C91_3 1_555 1_555
H69_3 C92_3 1_555 1_555
C94_3 C91_3 1_555 1_555
H71_3 C94_3 1_555 1_555
C95_3 C94_3 1_555 1_555
H72_3 C95_3 1_555 1_555
C96_3 O11_3 1_555 1_555
C79_3 C80_3 1_555 1_555
O12_3 C96_3 1_555 1_555
C95_3 C96_3 1_555 1_555
N5_3 C65_3 1_555 1_555
C65_3 H49_3 1_555 1_555
C66_3 C65_3 1_555 1_555
H50_3 C66_3 1_555 1_555
C67_3 C66_3 1_555 1_555
C68_3 C67_3 1_555 1_555
H51_3 C68_3 1_555 1_555
C69_3 N5_3 1_555 1_555
H52_3 C69_3 1_555 1_555
C70_3 C67_3 1_555 1_555
H53_3 C70_3 1_555 1_555
C71_3 C70_3 1_555 1_555
H54_3 C71_3 1_555 1_555
C72_3 C71_3 1_555 1_555
C77_3 C72_3 1_555 1_555
H58_3 C77_3 1_555 1_555
N6_3 C81_3 1_555 1_555
C81_3 H61_3 1_555 1_555
C82_3 C81_3 1_555 1_555
H62_3 C82_3 1_555 1_555
C83_3 C82_3 1_555 1_555
C84_3 C83_3 1_555 1_555
H63_3 C84_3 1_555 1_555
C85_3 N6_3 1_555 1_555
H64_3 C85_3 1_555 1_555
C86_3 C83_3 1_555 1_555
H65_3 C86_3 1_555 1_555
C87_3 C86_3 1_555 1_555
H66_3 C87_3 1_555 1_555
C88_3 C87_3 1_555 1_555
C93_3 C88_3 1_555 1_555
H70_3 C93_3 1_555 1_555
C68_3 C69_3 1_555 1_555
C84_3 C85_3 1_555 1_555
N10_3 C145_3 1_555 1_555
C145_3 H109_3 1_555 1_555
C146_3 C145_3 1_555 1_555
H110_3 C146_3 1_555 1_555
O23_3 C144_6 1_555 1_555
H102_6 C135_6 1_555 1_555
C136_6 C135_6 1_555 1_555
C137_6 C136_6 1_555 1_555
H103_6 C137_6 1_555 1_555
C138_6 C137_6 1_555 1_555
H104_6 C138_6 1_555 1_555
C139_6 C138_6 1_555 1_555
C140_6 C139_6 1_555 1_555
H105_6 C140_6 1_555 1_555
C141_6 C136_6 1_555 1_555
H106_6 C141_6 1_555 1_555
C142_6 C139_6 1_555 1_555
H107_6 C142_6 1_555 1_555
C143_6 C142_6 1_555 1_555
H108_6 C143_6 1_555 1_555
C144_6 O25_3 1_555 1_555
C140_6 C141_6 1_555 1_555
C143_6 C144_6 1_555 1_555
O26_3 C32_6 1_555 1_555
C25_6 C24_6 1_555 1_555
H19_6 C25_6 1_555 1_555
C26_6 C25_6 1_555 1_555
H20_6 C26_6 1_555 1_555
C27_6 C26_6 1_555 1_555
C28_6 C27_6 1_555 1_555
C30_6 C27_6 1_555 1_555
H23_6 C30_6 1_555 1_555
C31_6 C30_6 1_555 1_555
H24_6 C31_6 1_555 1_555
C32_6 O24_3 1_555 1_555
N9_6 C129_6 1_555 1_555
C129_6 H97_6 1_555 1_555
C130_6 C129_6 1_555 1_555
H98_6 C130_6 1_555 1_555
C131_6 C130_6 1_555 1_555
C132_6 C131_6 1_555 1_555
H99_6 C132_6 1_555 1_555
C133_6 N9_6 1_555 1_555
H100_6 C133_6 1_555 1_555
C134_6 C131_6 1_555 1_555
H101_6 C134_6 1_555 1_555
C31_6 C32_6 1_555 1_555
C132_6 C133_6 1_555 1_555
C22_6 C19_6 1_555 1_555
H17_6 C22_6 1_555 1_555
C23_6 C22_6 1_555 1_555
H18_6 C23_6 1_555 1_555
H22_6 C29_6 1_555 1_555
N2_6 C17_6 1_555 1_555
C17_6 H13_6 1_555 1_555
C18_6 C17_6 1_555 1_555
H15_6 C20_6 1_555 1_555
C21_6 N2_6 1_555 1_555
H16_6 C21_6 1_555 1_555
Cd7_6 N2_6 1_555 1_555
C20_6 C21_6 1_555 1_555
Cd3_4 O5_4 1_555 1_555
O4_4 Cd7_5 1_555 1_555
O5_4 C48_4 1_555 1_555
O6_4 Cd7_5 1_555 1_555
O7_4 Cd3_4 1_555 1_555
C60_4 C59_4 1_555 1_555
H45_3 C60_4 1_555 1_555
C62_4 C59_4 1_555 1_555
H47_4 C62_4 1_555 1_555
C63_4 C62_4 1_555 1_555
H48_4 C63_4 1_555 1_555
C64_4 O6_4 1_555 1_555
O10_4 Cd7_5 1_555 1_555
O17_4 Cd3_4 1_555 1_555
O21_4 Cd3_4 1_555 1_555
N11_4 Cd3_4 1_555 1_555
Cd3_4 O10_4 1_555 1_555
Cd3_4 O6_4 1_555 1_555
O7_4 C64_4 1_555 1_555
C48_4 O10_4 1_555 1_555
C63_4 C64_4 1_555 1_555
O21_4 C32_7 1_555 1_555
N4_4 C49_4 1_555 1_555
H18_7 C23_7 1_555 1_555
C24_7 C23_7 1_555 1_555
C25_7 C24_7 1_555 1_555
H19_7 C25_7 1_555 1_555
C26_7 C25_7 1_555 1_555
H20_7 C26_7 1_555 1_555
C27_7 C26_7 1_555 1_555
C28_7 C27_7 1_555 1_555
H21_7 C28_7 1_555 1_555
C29_7 C24_7 1_555 1_555
H22_7 C29_7 1_555 1_555
C30_7 C27_7 1_555 1_555
H23_7 C30_7 1_555 1_555
C31_7 C30_7 1_555 1_555
H24_7 C31_7 1_555 1_555
C50_4 C49_4 1_555 1_555
H38_4 C50_4 1_555 1_555
C51_3 C50_4 1_555 1_555
C52_3 C51_3 1_555 1_555
H39_3 C52_3 1_555 1_555
C53_3 N4_4 1_555 1_555
H40_3 C53_3 1_555 1_555
C54_3 C51_3 1_555 1_555
H41_3 C54_3 1_555 1_555
C55_3 C54_3 1_555 1_555
H42_3 C55_3 1_555 1_555
C56_3 C55_3 1_555 1_555
C57_4 C56_3 1_555 1_555
H43_4 C57_4 1_555 1_555
C58_4 C57_4 1_555 1_555
H44_4 C58_4 1_555 1_555
C61_3 C56_3 1_555 1_555
C28_7 C29_7 1_555 1_555
C31_7 C32_7 1_555 1_555
C52_3 C53_3 1_555 1_555
N2_7 C17_7 1_555 1_555
C17_7 H13_7 1_555 1_555
C18_7 C17_7 1_555 1_555
C19_7 C18_7 1_555 1_555
C20_7 C19_7 1_555 1_555
H15_7 C20_7 1_555 1_555
C21_7 N2_7 1_555 1_555
H16_7 C21_7 1_555 1_555
C22_7 C19_7 1_555 1_555
H17_7 C22_7 1_555 1_555
Cd7_7 N2_7 1_555 1_555
C20_7 C21_7 1_555 1_555
H32_4 C42_4 1_555 1_555
C43_4 C42_4 1_555 1_555
C44_4 C43_4 1_555 1_555
H33_4 C44_4 1_555 1_555
C45_4 C40_4 1_555 1_555
H34_4 C45_4 1_555 1_555
C46_4 C43_4 1_555 1_555
H35_4 C46_4 1_555 1_555
C47_4 C46_4 1_555 1_555
H36_4 C47_4 1_555 1_555
O13_4 C112_4 1_555 1_555
H80_4 C106_4 1_555 1_555
C107_4 C106_4 1_555 1_555
C108_4 C107_4 1_555 1_555
H81_4 C108_4 1_555 1_555
C109_4 C104_4 1_555 1_555
H82_4 C109_4 1_555 1_555
C110_4 C107_4 1_555 1_555
H83_4 C110_4 1_555 1_555
C111_4 C110_4 1_555 1_555
H84_4 C111_4 1_555 1_555
C112_4 C111_4 1_555 1_555
O14_4 C112_4 1_555 1_555
Cd11_2 O14_4 1_555 1_555
Cd10_2 O13_4 1_555 1_555
C132_7 C131_7 1_555 1_555
H99_7 C132_7 1_555 1_555
H100_7 C133_7 1_555 1_555
C134_7 C131_7 1_555 1_555
H101_7 C134_7 1_555 1_555
C135_7 C134_7 1_555 1_555
H102_7 C135_7 1_555 1_555
C136_7 C135_7 1_555 1_555
C137_7 C136_7 1_555 1_555
H103_7 C137_7 1_555 1_555
C138_7 C137_7 1_555 1_555
H104_7 C138_7 1_555 1_555
C139_7 C138_7 1_555 1_555
C140_7 C139_7 1_555 1_555
H105_7 C140_7 1_555 1_555
C141_7 C136_7 1_555 1_555
H106_7 C141_7 1_555 1_555
C142_7 C139_7 1_555 1_555
H107_7 C142_7 1_555 1_555
C143_7 C142_7 1_555 1_555
H108_7 C143_7 1_555 1_555
O19_4 Cd11_2 1_555 1_555
O20_4 Cd10_2 1_555 1_555
C156_4 C155_4 1_555 1_555
H117_2 C156_4 1_555 1_555
C158_4 C155_4 1_555 1_555
H119_4 C158_4 1_555 1_555
C159_4 C158_4 1_555 1_555
H120_4 C159_4 1_555 1_555
C160_4 O19_4 1_555 1_555
O23_4 Cd11_2 1_555 1_555
N12_3 Cd11_2 1_555 1_555
O25_4 Cd10_2 1_555 1_555
N13_4 Cd10_2 1_555 1_555
C44_4 C45_4 1_555 1_555
C108_4 C109_4 1_555 1_555
O14_4 Cd10_2 1_555 1_555
Cd10_2 O19_4 1_555 1_555
C132_7 C133_7 1_555 1_555
C140_7 C141_7 1_555 1_555
C143_7 C144_7 1_555 1_555
O20_4 C160_4 1_555 1_555
C159_4 C160_4 1_555 1_555
Cd2_5 O8_4 1_555 1_555
O9_4 Cd2_5 1_555 1_555
N3_4 Cd2_5 1_555 1_555
C33_4 N3_4 1_555 1_555
H25_4 C33_4 1_555 1_555
C34_4 C33_4 1_555 1_555
H26_4 C34_4 1_555 1_555
C35_4 C34_4 1_555 1_555
C36_4 C35_4 1_555 1_555
H27_4 C36_4 1_555 1_555
C37_4 N3_4 1_555 1_555
H28_4 C37_4 1_555 1_555
C38_4 C35_4 1_555 1_555
H29_4 C38_4 1_555 1_555
C39_4 C38_4 1_555 1_555
H30_4 C39_4 1_555 1_555
H31_4 C41_4 1_555 1_555
O11_4 Cd2_5 1_555 1_555
O12_4 Cd2_5 1_555 1_555
N7_4 Cd2_5 1_555 1_555
C97_4 N7_4 1_555 1_555
H73_4 C97_4 1_555 1_555
C98_4 C97_4 1_555 1_555
H74_4 C98_4 1_555 1_555
C99_4 C98_4 1_555 1_555
C100_4 C99_4 1_555 1_555
H75_4 C100_4 1_555 1_555
C101_4 N7_4 1_555 1_555
H76_4 C101_4 1_555 1_555
C102_4 C99_4 1_555 1_555
H77_4 C102_4 1_555 1_555
C103_4 C102_4 1_555 1_555
H78_4 C103_4 1_555 1_555
H79_4 C105_4 1_555 1_555
N9_7 C129_7 1_555 1_555
C129_7 H97_7 1_555 1_555
C130_7 C129_7 1_555 1_555
H98_7 C130_7 1_555 1_555
N10_4 C145_4 1_555 1_555
C146_4 C145_4 1_555 1_555
H110_4 C146_4 1_555 1_555
C147_3 C146_4 1_555 1_555
C148_3 C147_3 1_555 1_555
H111_3 C148_3 1_555 1_555
C149_3 N10_4 1_555 1_555
H112_3 C149_3 1_555 1_555
C150_3 C147_3 1_555 1_555
H113_3 C150_3 1_555 1_555
C151_3 C150_3 1_555 1_555
H114_3 C151_3 1_555 1_555
C152_2 C151_3 1_555 1_555
C153_4 C152_2 1_555 1_555
H115_4 C153_4 1_555 1_555
C154_4 C153_4 1_555 1_555
H116_4 C154_4 1_555 1_555
C157_2 C152_2 1_555 1_555
C36_4 C37_4 1_555 1_555
C100_4 C101_4 1_555 1_555
C148_3 C149_3 1_555 1_555
H54_4 C71_4 1_555 1_555
C72_4 C71_4 1_555 1_555
C73_4 C72_4 1_555 1_555
H55_4 C73_4 1_555 1_555
C74_4 C73_4 1_555 1_555
H56_4 C74_4 1_555 1_555
C75_4 C74_4 1_555 1_555
C76_4 C75_4 1_555 1_555
H57_4 C76_4 1_555 1_555
C77_4 C72_4 1_555 1_555
H58_4 C77_4 1_555 1_555
C78_4 C75_4 1_555 1_555
H59_4 C78_4 1_555 1_555
C79_4 C78_4 1_555 1_555
H60_4 C79_4 1_555 1_555
H66_4 C87_4 1_555 1_555
C88_4 C87_4 1_555 1_555
C89_4 C88_4 1_555 1_555
H67_4 C89_4 1_555 1_555
C90_4 C89_4 1_555 1_555
H68_4 C90_4 1_555 1_555
C91_4 C90_4 1_555 1_555
C92_4 C91_4 1_555 1_555
H69_4 C92_4 1_555 1_555
C93_4 C88_4 1_555 1_555
H70_4 C93_4 1_555 1_555
C94_4 C91_4 1_555 1_555
H71_4 C94_4 1_555 1_555
C95_4 C94_4 1_555 1_555
H72_4 C95_4 1_555 1_555
C76_4 C77_4 1_555 1_555
C79_4 C80_4 1_555 1_555
C92_4 C93_4 1_555 1_555
C95_4 C96_4 1_555 1_555
N5_4 C65_4 1_555 1_555
C65_4 H49_4 1_555 1_555
C66_4 C65_4 1_555 1_555
H50_4 C66_4 1_555 1_555
C67_4 C66_4 1_555 1_555
C68_4 C67_4 1_555 1_555
H51_4 C68_4 1_555 1_555
C69_4 N5_4 1_555 1_555
H52_4 C69_4 1_555 1_555
C70_4 C67_4 1_555 1_555
H53_4 C70_4 1_555 1_555
N6_4 C81_4 1_555 1_555
C81_4 H61_4 1_555 1_555
C82_4 C81_4 1_555 1_555
H62_4 C82_4 1_555 1_555
C83_4 C82_4 1_555 1_555
C84_4 C83_4 1_555 1_555
H63_4 C84_4 1_555 1_555
C85_4 N6_4 1_555 1_555
H64_4 C85_4 1_555 1_555
C86_4 C83_4 1_555 1_555
H65_4 C86_4 1_555 1_555
Cd10_4 N5_4 1_555 1_555
Cd9_3 N6_4 1_555 1_555
C68_4 C69_4 1_555 1_555
C84_4 C85_4 1_555 1_555
O15_5 C128_5 1_555 1_555
O16_5 C128_5 1_555 1_555
C121_5 C120_5 1_555 1_555
H91_5 C121_5 1_555 1_555
C122_5 C121_5 1_555 1_555
H92_5 C122_5 1_555 1_555
C123_5 C122_5 1_555 1_555
C124_5 C123_5 1_555 1_555
C126_5 C123_5 1_555 1_555
H95_5 C126_5 1_555 1_555
C127_5 C126_5 1_555 1_555
H96_5 C127_5 1_555 1_555
C128_5 C127_5 1_555 1_555
Cd9 O15_5 1_555 1_555
Cd11_5 O16_5 1_555 1_555
C113_5 N12_3 1_555 1_555
H85_5 C113_5 1_555 1_555
C114_5 C113_5 1_555 1_555
H86_5 C114_5 1_555 1_555
C115_5 C114_5 1_555 1_555
C116_5 C115_5 1_555 1_555
H87_5 C116_5 1_555 1_555
C117_5 N12_3 1_555 1_555
H88_5 C117_5 1_555 1_555
C118_5 C115_5 1_555 1_555
H89_5 C118_5 1_555 1_555
C119_5 C118_5 1_555 1_555
H90_5 C119_5 1_555 1_555
H94_5 C125_5 1_555 1_555
C132_8 C131_8 1_555 1_555
H99_8 C132_8 1_555 1_555
H100_8 C133_8 1_555 1_555
C134_8 C131_8 1_555 1_555
H101_8 C134_8 1_555 1_555
C135_8 C134_8 1_555 1_555
H102_8 C135_8 1_555 1_555
C136_8 C135_8 1_555 1_555
C137_8 C136_8 1_555 1_555
H103_8 C137_8 1_555 1_555
C138_8 C137_8 1_555 1_555
H104_8 C138_8 1_555 1_555
C139_8 C138_8 1_555 1_555
C140_8 C139_8 1_555 1_555
H105_8 C140_8 1_555 1_555
C141_8 C136_8 1_555 1_555
H106_8 C141_8 1_555 1_555
C142_8 C139_8 1_555 1_555
H107_8 C142_8 1_555 1_555
C143_8 C142_8 1_555 1_555
H108_8 C143_8 1_555 1_555
C144_8 O25_4 1_555 1_555
C116_5 C117_5 1_555 1_555
C132_8 C133_8 1_555 1_555
C140_8 C141_8 1_555 1_555
C143_8 C144_8 1_555 1_555
N9_8 C129_8 1_555 1_555
C129_8 H97_8 1_555 1_555
C130_8 C129_8 1_555 1_555
H98_8 C130_8 1_555 1_555
Cd8 O5_5 1_555 1_555
O5_5 C48_5 1_555 1_555
O7_5 Cd8 1_555 1_555
H33_5 C44_5 1_555 1_555
H35_5 C46_5 1_555 1_555
C47_5 C46_5 1_555 1_555
C48_5 C47_5 1_555 1_555
C64_5 O6_5 1_555 1_555
O17_5 Cd8 1_555 1_555
O18_5 C144_9 1_555 1_555
H102_9 C135_9 1_555 1_555
C136_9 C135_9 1_555 1_555
C137_9 C136_9 1_555 1_555
H103_9 C137_9 1_555 1_555
C138_9 C137_9 1_555 1_555
H104_9 C138_9 1_555 1_555
C139_9 C138_9 1_555 1_555
C140_9 C139_9 1_555 1_555
H105_9 C140_9 1_555 1_555
C141_9 C136_9 1_555 1_555
H106_9 C141_9 1_555 1_555
C142_9 C139_9 1_555 1_555
H107_9 C142_9 1_555 1_555
C143_9 C142_9 1_555 1_555
H108_9 C143_9 1_555 1_555
C144_9 O17_5 1_555 1_555
O21_5 Cd8 1_555 1_555
Cd7_3 O17_5 1_555 1_555
Cd8 O10_5 1_555 1_555
Cd8 O6_5 1_555 1_555
O7_5 C64_5 1_555 1_555
C48_5 O10_5 1_555 1_555
O18_5 Cd7_3 1_555 1_555
C140_9 C141_9 1_555 1_555
C143_9 C144_9 1_555 1_555
O21_5 C32_8 1_555 1_555
O4_5 Cd7_3 1_555 1_555
C25_8 C24_8 1_555 1_555
H19_8 C25_8 1_555 1_555
C26_8 C25_8 1_555 1_555
H20_8 C26_8 1_555 1_555
C27_8 C26_8 1_555 1_555
C28_8 C27_8 1_555 1_555
C30_8 C27_8 1_555 1_555
H23_8 C30_8 1_555 1_555
C31_8 C30_8 1_555 1_555
H24_8 C31_8 1_555 1_555
C32_8 O4_5 1_555 1_555
C33_5 N3_5 1_555 1_555
C34_5 C33_5 1_555 1_555
H26_5 C34_5 1_555 1_555
C35_5 C34_5 1_555 1_555
C36_5 C35_5 1_555 1_555
H27_5 C36_5 1_555 1_555
C37_5 N3_5 1_555 1_555
H28_5 C37_5 1_555 1_555
C38_5 C35_5 1_555 1_555
H29_5 C38_5 1_555 1_555
C39_5 C38_5 1_555 1_555
H30_5 C39_5 1_555 1_555
C40_5 C39_5 1_555 1_555
C41_5 C40_5 1_555 1_555
H31_5 C41_5 1_555 1_555
C42_5 C41_5 1_555 1_555
H32_5 C42_5 1_555 1_555
C43_5 C42_5 1_555 1_555
C45_5 C40_5 1_555 1_555
C52_4 C51_4 1_555 1_555
H39_4 C52_4 1_555 1_555
H40_4 C53_4 1_555 1_555
C54_4 C51_4 1_555 1_555
H41_4 C54_4 1_555 1_555
C55_4 C54_4 1_555 1_555
H42_4 C55_4 1_555 1_555
C56_4 C55_4 1_555 1_555
C57_5 C56_4 1_555 1_555
H43_5 C57_5 1_555 1_555
C58_5 C57_5 1_555 1_555
H44_5 C58_5 1_555 1_555
C59_5 C58_5 1_555 1_555
C60_5 C59_5 1_555 1_555
H45_4 C60_5 1_555 1_555
C61_4 C56_4 1_555 1_555
H46_4 C61_4 1_555 1_555
C62_5 C59_5 1_555 1_555
C63_5 C62_5 1_555 1_555
H48_5 C63_5 1_555 1_555
C129_9 H97_9 1_555 1_555
C130_9 C129_9 1_555 1_555
H98_9 C130_9 1_555 1_555
C131_9 C130_9 1_555 1_555
C134_9 C131_9 1_555 1_555
H101_9 C134_9 1_555 1_555
C31_8 C32_8 1_555 1_555
C36_5 C37_5 1_555 1_555
C52_4 C53_4 1_555 1_555
C60_5 C61_4 1_555 1_555
N2_8 C17_8 1_555 1_555
N4_5 C49_5 1_555 1_555
C17_8 H13_8 1_555 1_555
C18_8 C17_8 1_555 1_555
H14_8 C18_8 1_555 1_555
C19_8 C18_8 1_555 1_555
C20_8 C19_8 1_555 1_555
H15_8 C20_8 1_555 1_555
C21_8 N2_8 1_555 1_555
H16_8 C21_8 1_555 1_555
C22_8 C19_8 1_555 1_555
H17_8 C22_8 1_555 1_555
C23_8 C22_8 1_555 1_555
H18_8 C23_8 1_555 1_555
H22_8 C29_8 1_555 1_555
C49_5 H37_5 1_555 1_555
C50_5 C49_5 1_555 1_555
H38_5 C50_5 1_555 1_555
Cd11 N2_8 1_555 1_555
C20_8 C21_8 1_555 1_555
N13 C81_5 1_555 1_555
C81_5 H61_5 1_555 1_555
C82_5 C81_5 1_555 1_555
H62_5 C82_5 1_555 1_555
C83_5 C82_5 1_555 1_555
C84_5 C83_5 1_555 1_555
H63_5 C84_5 1_555 1_555
C85_5 N13 1_555 1_555
H64_5 C85_5 1_555 1_555
C86_5 C83_5 1_555 1_555
H65_5 C86_5 1_555 1_555
C87_5 C86_5 1_555 1_555
H66_5 C87_5 1_555 1_555
C88_5 C87_5 1_555 1_555
C93_5 C88_5 1_555 1_555
H70_5 C93_5 1_555 1_555
C84_5 C85_5 1_555 1_555
N11 C65_5 1_555 1_555
C65_5 H49_5 1_555 1_555
C66_5 C65_5 1_555 1_555
H50_5 C66_5 1_555 1_555
C67_5 C66_5 1_555 1_555
C68_5 C67_5 1_555 1_555
H51_5 C68_5 1_555 1_555
C69_5 N11 1_555 1_555
H52_5 C69_5 1_555 1_555
C70_5 C67_5 1_555 1_555
H53_5 C70_5 1_555 1_555
C71_5 C70_5 1_555 1_555
H54_5 C71_5 1_555 1_555
C72_5 C71_5 1_555 1_555
C77_5 C72_5 1_555 1_555
H58_5 C77_5 1_555 1_555
C68_5 C69_5 1_555 1_555
O13_5 C112_5 1_555 1_555
H81_5 C108_5 1_555 1_555
H83_5 C110_5 1_555 1_555
C111_5 C110_5 1_555 1_555
C112_5 C111_5 1_555 1_555
O14_5 C112_5 1_555 1_555
Cd9 O13_5 1_555 1_555
O20_5 Cd9 1_555 1_555
C160_5 O19_5 1_555 1_555
O25_5 Cd9 1_555 1_555
O14_5 Cd9 1_555 1_555
Cd9 O19_5 1_555 1_555
O20_5 C160_5 1_555 1_555
C97_5 N7_5 1_555 1_555
C98_5 C97_5 1_555 1_555
H74_5 C98_5 1_555 1_555
C99_5 C98_5 1_555 1_555
C100_5 C99_5 1_555 1_555
H75_5 C100_5 1_555 1_555
C101_5 N7_5 1_555 1_555
H76_5 C101_5 1_555 1_555
C102_5 C99_5 1_555 1_555
H77_5 C102_5 1_555 1_555
C103_5 C102_5 1_555 1_555
H78_5 C103_5 1_555 1_555
C104_5 C103_5 1_555 1_555
C105_5 C104_5 1_555 1_555
H79_5 C105_5 1_555 1_555
C106_5 C105_5 1_555 1_555
H80_5 C106_5 1_555 1_555
C107_5 C106_5 1_555 1_555
C109_5 C104_5 1_555 1_555
C148_4 C147_4 1_555 1_555
H111_4 C148_4 1_555 1_555
H112_4 C149_4 1_555 1_555
C150_4 C147_4 1_555 1_555
H113_4 C150_4 1_555 1_555
C151_4 C150_4 1_555 1_555
H114_4 C151_4 1_555 1_555
C152_3 C151_4 1_555 1_555
C153_5 C152_3 1_555 1_555
H115_5 C153_5 1_555 1_555
C154_5 C153_5 1_555 1_555
H116_5 C154_5 1_555 1_555
C155_5 C154_5 1_555 1_555
C156_5 C155_5 1_555 1_555
H117_3 C156_5 1_555 1_555
C157_3 C152_3 1_555 1_555
H118_3 C157_3 1_555 1_555
C158_5 C155_5 1_555 1_555
C159_5 C158_5 1_555 1_555
H120_5 C159_5 1_555 1_555
O25_5 Cd11_5 1_555 1_555
O23_5 Cd11_5 1_555 1_555
C100_5 C101_5 1_555 1_555
C148_4 C149_4 1_555 1_555
C156_5 C157_3 1_555 1_555
N10_5 C145_5 1_555 1_555
C145_5 H109_5 1_555 1_555
C146_5 C145_5 1_555 1_555
H110_5 C146_5 1_555 1_555
O15_6 C128_6 1_555 1_555
O16_6 C128_6 1_555 1_555
H92_6 C122_6 1_555 1_555
H95_6 C126_6 1_555 1_555
C127_6 C126_6 1_555 1_555
H96_6 C127_6 1_555 1_555
C128_6 C127_6 1_555 1_555
Cd9_3 O15_6 1_555 1_555
Cd7_2 O16_6 1_555 1_555
C113_6 N12_4 1_555 1_555
H85_6 C113_6 1_555 1_555
C114_6 C113_6 1_555 1_555
H86_6 C114_6 1_555 1_555
C115_6 C114_6 1_555 1_555
C116_6 C115_6 1_555 1_555
H87_6 C116_6 1_555 1_555
C117_6 N12_4 1_555 1_555
C118_6 C115_6 1_555 1_555
H89_6 C118_6 1_555 1_555
C119_6 C118_6 1_555 1_555
H90_6 C119_6 1_555 1_555
C120_6 C119_6 1_555 1_555
C121_6 C120_6 1_555 1_555
H91_6 C121_6 1_555 1_555
C124_6 C123_6 1_555 1_555
H93_6 C124_6 1_555 1_555
C125_6 C120_6 1_555 1_555
H94_6 C125_6 1_555 1_555
O23_5 C144_10 1_555 1_555
H102_10 C135_10 1_555 1_555
C136_10 C135_10 1_555 1_555
C137_10 C136_10 1_555 1_555
H103_10 C137_10 1_555 1_555
C138_10 C137_10 1_555 1_555
H104_10 C138_10 1_555 1_555
C139_10 C138_10 1_555 1_555
C140_10 C139_10 1_555 1_555
H105_10 C140_10 1_555 1_555
C141_10 C136_10 1_555 1_555
H106_10 C141_10 1_555 1_555
C142_10 C139_10 1_555 1_555
H107_10 C142_10 1_555 1_555
C143_10 C142_10 1_555 1_555
H108_10 C143_10 1_555 1_555
C144_10 O25_5 1_555 1_555
C116_6 C117_6 1_555 1_555
C124_6 C125_6 1_555 1_555
C140_10 C141_10 1_555 1_555
C143_10 C144_10 1_555 1_555
C129_10 H97_10 1_555 1_555
C130_10 C129_10 1_555 1_555
H98_10 C130_10 1_555 1_555
C131_10 C130_10 1_555 1_555
C134_10 C131_10 1_555 1_555
H101_10 C134_10 1_555 1_555
O18_6 Cd11 1_555 1_555
Cd10 O5_6 1_555 1_555
O5_6 C48_6 1_555 1_555
O6_6 Cd11 1_555 1_555
O7_6 Cd10 1_555 1_555
H32_6 C42_6 1_555 1_555
C43_6 C42_6 1_555 1_555
C44_6 C43_6 1_555 1_555
H33_6 C44_6 1_555 1_555
C45_6 C40_6 1_555 1_555
H34_6 C45_6 1_555 1_555
C46_6 C43_6 1_555 1_555
H35_6 C46_6 1_555 1_555
C47_6 C46_6 1_555 1_555
H36_6 C47_6 1_555 1_555
C48_6 C47_6 1_555 1_555
C60_6 C59_6 1_555 1_555
H45_5 C60_6 1_555 1_555
C62_6 C59_6 1_555 1_555
H47_6 C62_6 1_555 1_555
C63_6 C62_6 1_555 1_555
H48_6 C63_6 1_555 1_555
C64_6 O6_6 1_555 1_555
O10_6 Cd11 1_555 1_555
H80_6 C106_6 1_555 1_555
C107_6 C106_6 1_555 1_555
C108_6 C107_6 1_555 1_555
H81_6 C108_6 1_555 1_555
C109_6 C104_6 1_555 1_555
H82_6 C109_6 1_555 1_555
C110_6 C107_6 1_555 1_555
H83_6 C110_6 1_555 1_555
C111_6 C110_6 1_555 1_555
H84_6 C111_6 1_555 1_555
O17_6 Cd10 1_555 1_555
C132_9 C131_11 1_555 1_555
H99_9 C132_9 1_555 1_555
H100_9 C133_9 1_555 1_555
C134_11 C131_11 1_555 1_555
H101_11 C134_11 1_555 1_555
C135_11 C134_11 1_555 1_555
H102_11 C135_11 1_555 1_555
C136_11 C135_11 1_555 1_555
C137_11 C136_11 1_555 1_555
H103_11 C137_11 1_555 1_555
C138_11 C137_11 1_555 1_555
H104_11 C138_11 1_555 1_555
C139_11 C138_11 1_555 1_555
C140_11 C139_11 1_555 1_555
H105_11 C140_11 1_555 1_555
C141_11 C136_11 1_555 1_555
H106_11 C141_11 1_555 1_555
C142_11 C139_11 1_555 1_555
H107_11 C142_11 1_555 1_555
C143_11 C142_11 1_555 1_555
H108_11 C143_11 1_555 1_555
C144_11 O17_6 1_555 1_555
Cd10 O10_6 1_555 1_555
Cd10 O6_6 1_555 1_555
O7_6 C64_6 1_555 1_555
C44_6 C45_6 1_555 1_555
C48_6 O10_6 1_555 1_555
C63_6 C64_6 1_555 1_555
C108_6 C109_6 1_555 1_555
C132_9 C133_9 1_555 1_555
C140_11 C141_11 1_555 1_555
C143_11 C144_11 1_555 1_555
Cd2_8 O8_5 1_555 1_555
O9_5 Cd2_8 1_555 1_555
N3_6 Cd2_8 1_555 1_555
N4_6 C49_6 1_555 1_555
C33_6 N3_6 1_555 1_555
H25_6 C33_6 1_555 1_555
C34_6 C33_6 1_555 1_555
H26_6 C34_6 1_555 1_555
C35_6 C34_6 1_555 1_555
C36_6 C35_6 1_555 1_555
H27_6 C36_6 1_555 1_555
C37_6 N3_6 1_555 1_555
H28_6 C37_6 1_555 1_555
C38_6 C35_6 1_555 1_555
H29_6 C38_6 1_555 1_555
C39_6 C38_6 1_555 1_555
H30_6 C39_6 1_555 1_555
H31_6 C41_6 1_555 1_555
C50_6 C49_6 1_555 1_555
H38_6 C50_6 1_555 1_555
C51_5 C50_6 1_555 1_555
C52_5 C51_5 1_555 1_555
H39_5 C52_5 1_555 1_555
C53_5 N4_6 1_555 1_555
H40_5 C53_5 1_555 1_555
C54_5 C51_5 1_555 1_555
H41_5 C54_5 1_555 1_555
C55_5 C54_5 1_555 1_555
H42_5 C55_5 1_555 1_555
C56_5 C55_5 1_555 1_555
C57_6 C56_5 1_555 1_555
H43_6 C57_6 1_555 1_555
C58_6 C57_6 1_555 1_555
H44_6 C58_6 1_555 1_555
C61_5 C56_5 1_555 1_555
O11_5 Cd2_8 1_555 1_555
O12_5 Cd2_8 1_555 1_555
N7_6 Cd2_8 1_555 1_555
C97_6 N7_6 1_555 1_555
H73_6 C97_6 1_555 1_555
C98_6 C97_6 1_555 1_555
H74_6 C98_6 1_555 1_555
C99_6 C98_6 1_555 1_555
C100_6 C99_6 1_555 1_555
H75_6 C100_6 1_555 1_555
C101_6 N7_6 1_555 1_555
H76_6 C101_6 1_555 1_555
C102_6 C99_6 1_555 1_555
H77_6 C102_6 1_555 1_555
C103_6 C102_6 1_555 1_555
H78_6 C103_6 1_555 1_555
H79_6 C105_6 1_555 1_555
N9_9 C129_11 1_555 1_555
C129_11 H97_11 1_555 1_555
C130_11 C129_11 1_555 1_555
H98_11 C130_11 1_555 1_555
C36_6 C37_6 1_555 1_555
C52_5 C53_5 1_555 1_555
C100_6 C101_6 1_555 1_555
H54_6 C71_6 1_555 1_555
C72_6 C71_6 1_555 1_555
C73_5 C72_6 1_555 1_555
H55_5 C73_5 1_555 1_555
C74_5 C73_5 1_555 1_555
H56_5 C74_5 1_555 1_555
C75_5 C74_5 1_555 1_555
C76_5 C75_5 1_555 1_555
H57_5 C76_5 1_555 1_555
C77_6 C72_6 1_555 1_555
H58_6 C77_6 1_555 1_555
C78_5 C75_5 1_555 1_555
H59_5 C78_5 1_555 1_555
C79_5 C78_5 1_555 1_555
H60_5 C79_5 1_555 1_555
H66_6 C87_6 1_555 1_555
C88_6 C87_6 1_555 1_555
C89_5 C88_6 1_555 1_555
H67_5 C89_5 1_555 1_555
C90_5 C89_5 1_555 1_555
H68_5 C90_5 1_555 1_555
C91_5 C90_5 1_555 1_555
C92_5 C91_5 1_555 1_555
H69_5 C92_5 1_555 1_555
C93_6 C88_6 1_555 1_555
H70_6 C93_6 1_555 1_555
C94_5 C91_5 1_555 1_555
H71_5 C94_5 1_555 1_555
C95_5 C94_5 1_555 1_555
H72_5 C95_5 1_555 1_555
C76_5 C77_6 1_555 1_555
C79_5 C80_5 1_555 1_555
C92_5 C93_6 1_555 1_555
C95_5 C96_5 1_555 1_555
N11_2 C65_6 1_555 1_555
C65_6 H49_6 1_555 1_555
C66_6 C65_6 1_555 1_555
H50_6 C66_6 1_555 1_555
C67_6 C66_6 1_555 1_555
C68_6 C67_6 1_555 1_555
H51_6 C68_6 1_555 1_555
C69_6 N11_2 1_555 1_555
H52_6 C69_6 1_555 1_555
C70_6 C67_6 1_555 1_555
H53_6 C70_6 1_555 1_555
N13_2 C81_6 1_555 1_555
C81_6 H61_6 1_555 1_555
C82_6 C81_6 1_555 1_555
H62_6 C82_6 1_555 1_555
C83_6 C82_6 1_555 1_555
C84_6 C83_6 1_555 1_555
H63_6 C84_6 1_555 1_555
C85_6 N13_2 1_555 1_555
H64_6 C85_6 1_555 1_555
C86_6 C83_6 1_555 1_555
H65_6 C86_6 1_555 1_555
C68_6 C69_6 1_555 1_555
C84_6 C85_6 1_555 1_555
O13_6 C112_6 1_555 1_555
O14_6 C112_6 1_555 1_555
Cd7_6 O14_6 1_555 1_555
Cd9_2 O13_6 1_555 1_555
O19_6 Cd7_6 1_555 1_555
O20_6 Cd9_2 1_555 1_555
C156_6 C155_6 1_555 1_555
H117_4 C156_6 1_555 1_555
C158_6 C155_6 1_555 1_555
H119_6 C158_6 1_555 1_555
C159_6 C158_6 1_555 1_555
H120_6 C159_6 1_555 1_555
C160_6 O19_6 1_555 1_555
O24_4 Cd7_6 1_555 1_555
O25_6 Cd9_2 1_555 1_555
O26_4 Cd9_2 1_555 1_555
O14_6 Cd9_2 1_555 1_555
Cd9_2 O19_6 1_555 1_555
O20_6 C160_6 1_555 1_555
C159_6 C160_6 1_555 1_555
N10_6 C145_6 1_555 1_555
C146_6 C145_6 1_555 1_555
H110_6 C146_6 1_555 1_555
C147_5 C146_6 1_555 1_555
C148_5 C147_5 1_555 1_555
H111_5 C148_5 1_555 1_555
C149_5 N10_6 1_555 1_555
H112_5 C149_5 1_555 1_555
C150_5 C147_5 1_555 1_555
H113_5 C150_5 1_555 1_555
C151_5 C150_5 1_555 1_555
H114_5 C151_5 1_555 1_555
C152_4 C151_5 1_555 1_555
C153_6 C152_4 1_555 1_555
H115_6 C153_6 1_555 1_555
C154_6 C153_6 1_555 1_555
H116_6 C154_6 1_555 1_555
C157_4 C152_4 1_555 1_555
C148_5 C149_5 1_555 1_555
C132_10 C131_12 1_555 1_555
H99_10 C132_10 1_555 1_555
H100_10 C133_10 1_555 1_555
C134_12 C131_12 1_555 1_555
H101_12 C134_12 1_555 1_555
C135_12 C134_12 1_555 1_555
H102_12 C135_12 1_555 1_555
C136_12 C135_12 1_555 1_555
C137_12 C136_12 1_555 1_555
H103_12 C137_12 1_555 1_555
C138_12 C137_12 1_555 1_555
H104_12 C138_12 1_555 1_555
C139_12 C138_12 1_555 1_555
C140_12 C139_12 1_555 1_555
H105_12 C140_12 1_555 1_555
C141_12 C136_12 1_555 1_555
H106_12 C141_12 1_555 1_555
C142_12 C139_12 1_555 1_555
H107_12 C142_12 1_555 1_555
C143_12 C142_12 1_555 1_555
H108_12 C143_12 1_555 1_555
C132_10 C133_10 1_555 1_555
C140_12 C141_12 1_555 1_555
C143_12 C144_12 1_555 1_555
N9_10 C129_12 1_555 1_555
C129_12 H97_12 1_555 1_555
C130_12 C129_12 1_555 1_555
H98_12 C130_12 1_555 1_555
O26_4 C32_9 1_555 1_555
H18_9 C23_9 1_555 1_555
C24_9 C23_9 1_555 1_555
C25_9 C24_9 1_555 1_555
H19_9 C25_9 1_555 1_555
C26_9 C25_9 1_555 1_555
H20_9 C26_9 1_555 1_555
C27_9 C26_9 1_555 1_555
C28_9 C27_9 1_555 1_555
H21_9 C28_9 1_555 1_555
C29_9 C24_9 1_555 1_555
H22_9 C29_9 1_555 1_555
C30_9 C27_9 1_555 1_555
H23_9 C30_9 1_555 1_555
C31_9 C30_9 1_555 1_555
H24_9 C31_9 1_555 1_555
C28_9 C29_9 1_555 1_555
C31_9 C32_9 1_555 1_555
N2_9 C17_9 1_555 1_555
C17_9 H13_9 1_555 1_555
C18_9 C17_9 1_555 1_555
C19_9 C18_9 1_555 1_555
C20_9 C19_9 1_555 1_555
H15_9 C20_9 1_555 1_555
C21_9 N2_9 1_555 1_555
H16_9 C21_9 1_555 1_555
C22_9 C19_9 1_555 1_555
H17_9 C22_9 1_555 1_555
Cd11_3 N2_9 1_555 1_555
C20_9 C21_9 1_555 1_555
O18_7 C144_13 1_555 1_555
H105_13 C140_13 1_555 1_555
H107_13 C142_13 1_555 1_555
C143_13 C142_13 1_555 1_555
C144_13 O17_7 1_555 1_555
Cd7_7 O17_7 1_555 1_555
O18_7 Cd7_7 1_555 1_555
C143_13 C144_13 1_555 1_555
Cd8_2 O5_7 1_555 1_555
O21_6 C32_10 1_555 1_555
O4_6 Cd7_7 1_555 1_555
O5_7 C48_7 1_555 1_555
O6_7 Cd7_7 1_555 1_555
O7_7 Cd8_2 1_555 1_555
C32_10 O4_6 1_555 1_555
C39_7 C38_7 1_555 1_555
H30_7 C39_7 1_555 1_555
C40_7 C39_7 1_555 1_555
C41_7 C40_7 1_555 1_555
H31_7 C41_7 1_555 1_555
C42_7 C41_7 1_555 1_555
H32_7 C42_7 1_555 1_555
C43_7 C42_7 1_555 1_555
C44_7 C43_7 1_555 1_555
H33_7 C44_7 1_555 1_555
C45_7 C40_7 1_555 1_555
H34_7 C45_7 1_555 1_555
C46_7 C43_7 1_555 1_555
H35_7 C46_7 1_555 1_555
C47_7 C46_7 1_555 1_555
H36_7 C47_7 1_555 1_555
C48_7 C47_7 1_555 1_555
H44_7 C58_7 1_555 1_555
C59_7 C58_7 1_555 1_555
C60_7 C59_7 1_555 1_555
H45_6 C60_7 1_555 1_555
C61_6 C56_6 1_555 1_555
H46_6 C61_6 1_555 1_555
C62_7 C59_7 1_555 1_555
H47_7 C62_7 1_555 1_555
C63_7 C62_7 1_555 1_555
H48_7 C63_7 1_555 1_555
C64_7 O6_7 1_555 1_555
O10_7 Cd7_7 1_555 1_555
C130_13 C129_13 1_555 1_555
H98_13 C130_13 1_555 1_555
C131_13 C130_13 1_555 1_555
C134_13 C131_13 1_555 1_555
H101_13 C134_13 1_555 1_555
C135_13 C134_13 1_555 1_555
H102_13 C135_13 1_555 1_555
C136_13 C135_13 1_555 1_555
C137_13 C136_13 1_555 1_555
H103_13 C137_13 1_555 1_555
C138_13 C137_13 1_555 1_555
H104_13 C138_13 1_555 1_555
C139_13 C138_13 1_555 1_555
C141_13 C136_13 1_555 1_555
Cd8_2 O10_7 1_555 1_555
Cd8_2 O6_7 1_555 1_555
O7_7 C64_7 1_555 1_555
C44_7 C45_7 1_555 1_555
C48_7 O10_7 1_555 1_555
C60_7 C61_6 1_555 1_555
C63_7 C64_7 1_555 1_555
N3_7 Cd2_9 1_555 1_555
N4_7 C49_7 1_555 1_555
C17_10 H13_10 1_555 1_555
C18_10 C17_10 1_555 1_555
H14_10 C18_10 1_555 1_555
C19_10 C18_10 1_555 1_555
C22_10 C19_10 1_555 1_555
H17_10 C22_10 1_555 1_555
C23_10 C22_10 1_555 1_555
H18_10 C23_10 1_555 1_555
C24_10 C23_10 1_555 1_555
C25_10 C24_10 1_555 1_555
H19_10 C25_10 1_555 1_555
C26_10 C25_10 1_555 1_555
H20_10 C26_10 1_555 1_555
C27_10 C26_10 1_555 1_555
C28_10 C27_10 1_555 1_555
H21_10 C28_10 1_555 1_555
C29_10 C24_10 1_555 1_555
H22_10 C29_10 1_555 1_555
C30_10 C27_10 1_555 1_555
H23_10 C30_10 1_555 1_555
C31_10 C30_10 1_555 1_555
C33_7 N3_7 1_555 1_555
H25_7 C33_7 1_555 1_555
C34_7 C33_7 1_555 1_555
H26_7 C34_7 1_555 1_555
C35_7 C34_7 1_555 1_555
C36_7 C35_7 1_555 1_555
C37_7 N3_7 1_555 1_555
H28_7 C37_7 1_555 1_555
C49_7 H37_7 1_555 1_555
C50_7 C49_7 1_555 1_555
H38_7 C50_7 1_555 1_555
C51_6 C50_7 1_555 1_555
C52_6 C51_6 1_555 1_555
H39_6 C52_6 1_555 1_555
C53_6 N4_7 1_555 1_555
H40_6 C53_6 1_555 1_555
C54_6 C51_6 1_555 1_555
H41_6 C54_6 1_555 1_555
C55_6 C54_6 1_555 1_555
H42_6 C55_6 1_555 1_555
H43_7 C57_7 1_555 1_555
O11_6 Cd2_9 1_555 1_555
O12_6 Cd2_9 1_555 1_555
H72_6 C95_6 1_555 1_555
C96_6 O11_6 1_555 1_555
C28_10 C29_10 1_555 1_555
C36_7 C37_7 1_555 1_555
C52_6 C53_6 1_555 1_555
O12_6 C96_6 1_555 1_555
C95_6 C96_6 1_555 1_555
H15_10 C20_10 1_555 1_555
C21_10 N2_10 1_555 1_555
H16_10 C21_10 1_555 1_555
H65_7 C86_7 1_555 1_555
C87_7 C86_7 1_555 1_555
H66_7 C87_7 1_555 1_555
C88_7 C87_7 1_555 1_555
C89_6 C88_7 1_555 1_555
H67_6 C89_6 1_555 1_555
C90_6 C89_6 1_555 1_555
H68_6 C90_6 1_555 1_555
C91_6 C90_6 1_555 1_555
C92_6 C91_6 1_555 1_555
H69_6 C92_6 1_555 1_555
C93_7 C88_7 1_555 1_555
H70_7 C93_7 1_555 1_555
C94_6 C91_6 1_555 1_555
H71_6 C94_6 1_555 1_555
Cd11_4 N2_10 1_555 1_555
C20_10 C21_10 1_555 1_555
C92_6 C93_7 1_555 1_555
N13_3 C81_7 1_555 1_555
C81_7 H61_7 1_555 1_555
C82_7 C81_7 1_555 1_555
C83_7 C82_7 1_555 1_555
C84_7 C83_7 1_555 1_555
H63_7 C84_7 1_555 1_555
C85_7 N13_3 1_555 1_555
H64_7 C85_7 1_555 1_555
C84_7 C85_7 1_555 1_555
O13_7 C112_7 1_555 1_555
C103_7 C102_7 1_555 1_555
H78_7 C103_7 1_555 1_555
C104_7 C103_7 1_555 1_555
C105_7 C104_7 1_555 1_555
H79_7 C105_7 1_555 1_555
C106_7 C105_7 1_555 1_555
H80_7 C106_7 1_555 1_555
C107_7 C106_7 1_555 1_555
C108_7 C107_7 1_555 1_555
H81_7 C108_7 1_555 1_555
C109_7 C104_7 1_555 1_555
H82_7 C109_7 1_555 1_555
C110_7 C107_7 1_555 1_555
H83_7 C110_7 1_555 1_555
C111_7 C110_7 1_555 1_555
H84_7 C111_7 1_555 1_555
C112_7 C111_7 1_555 1_555
O14_7 C112_7 1_555 1_555
Cd11_3 O14_7 1_555 1_555
Cd10_3 O13_7 1_555 1_555
H99_11 C132_11 1_555 1_555
C133_11 N9_11 1_555 1_555
H100_11 C133_11 1_555 1_555
O19_7 Cd11_3 1_555 1_555
O20_7 Cd10_3 1_555 1_555
H116_7 C154_7 1_555 1_555
C155_7 C154_7 1_555 1_555
C156_7 C155_7 1_555 1_555
H117_5 C156_7 1_555 1_555
C157_5 C152_5 1_555 1_555
H118_5 C157_5 1_555 1_555
C158_7 C155_7 1_555 1_555
H119_7 C158_7 1_555 1_555
C159_7 C158_7 1_555 1_555
H120_7 C159_7 1_555 1_555
C160_7 O19_7 1_555 1_555
O25_7 Cd11_3 1_555 1_555
O23_7 Cd11_3 1_555 1_555
C108_7 C109_7 1_555 1_555
O14_7 Cd10_3 1_555 1_555
Cd10_3 O19_7 1_555 1_555
C132_11 C133_11 1_555 1_555
O20_7 C160_7 1_555 1_555
C156_7 C157_5 1_555 1_555
C159_7 C160_7 1_555 1_555
Cd2_10 O8_6 1_555 1_555
O8_6 C80_6 1_555 1_555
O9_6 Cd2_10 1_555 1_555
H60_6 C79_6 1_555 1_555
C80_6 O9_6 1_555 1_555
N7_7 Cd2_10 1_555 1_555
C97_7 N7_7 1_555 1_555
H73_7 C97_7 1_555 1_555
C98_7 C97_7 1_555 1_555
H74_7 C98_7 1_555 1_555
C99_7 C98_7 1_555 1_555
C100_7 C99_7 1_555 1_555
C101_7 N7_7 1_555 1_555
H76_7 C101_7 1_555 1_555
N10_7 C145_7 1_555 1_555
C145_7 H109_7 1_555 1_555
C146_7 C145_7 1_555 1_555
H110_7 C146_7 1_555 1_555
C147_6 C146_7 1_555 1_555
C148_6 C147_6 1_555 1_555
H111_6 C148_6 1_555 1_555
C149_6 N10_7 1_555 1_555
H112_6 C149_6 1_555 1_555
C150_6 C147_6 1_555 1_555
H113_6 C150_6 1_555 1_555
C151_6 C150_6 1_555 1_555
H114_6 C151_6 1_555 1_555
H115_7 C153_7 1_555 1_555
C79_6 C80_6 1_555 1_555
C100_7 C101_7 1_555 1_555
C148_6 C149_6 1_555 1_555
H53_7 C70_7 1_555 1_555
C71_7 C70_7 1_555 1_555
H54_7 C71_7 1_555 1_555
C72_7 C71_7 1_555 1_555
C73_6 C72_7 1_555 1_555
H55_6 C73_6 1_555 1_555
C74_6 C73_6 1_555 1_555
H56_6 C74_6 1_555 1_555
C75_6 C74_6 1_555 1_555
C76_6 C75_6 1_555 1_555
H57_6 C76_6 1_555 1_555
C77_7 C72_7 1_555 1_555
H58_7 C77_7 1_555 1_555
C78_6 C75_6 1_555 1_555
H59_6 C78_6 1_555 1_555
C76_6 C77_7 1_555 1_555
N11_3 C65_7 1_555 1_555
C65_7 H49_7 1_555 1_555
C66_7 C65_7 1_555 1_555
C67_7 C66_7 1_555 1_555
C68_7 C67_7 1_555 1_555
H51_7 C68_7 1_555 1_555
C69_7 N11_3 1_555 1_555
H52_7 C69_7 1_555 1_555
C68_7 C69_7 1_555 1_555
H99_12 C132_12 1_555 1_555
C133_12 N9_12 1_555 1_555
H100_12 C133_12 1_555 1_555
C132_12 C133_12 1_555 1_555
O23_7 C144_14 1_555 1_555
H105_14 C140_14 1_555 1_555
H107_14 C142_14 1_555 1_555
C143_14 C142_14 1_555 1_555
C144_14 O25_7 1_555 1_555
C143_14 C144_14 1_555 1_555
C130_14 C129_14 1_555 1_555
H98_14 C130_14 1_555 1_555
C131_14 C130_14 1_555 1_555
C134_14 C131_14 1_555 1_555
H101_14 C134_14 1_555 1_555
C135_14 C134_14 1_555 1_555
H102_14 C135_14 1_555 1_555
C136_14 C135_14 1_555 1_555
C137_14 C136_14 1_555 1_555
H103_14 C137_14 1_555 1_555
C138_14 C137_14 1_555 1_555
H104_14 C138_14 1_555 1_555
C139_14 C138_14 1_555 1_555
C141_14 C136_14 1_555 1_555
Cd10_4 O5_8 1_555 1_555
O7_8 Cd10_4 1_555 1_555
O17_8 Cd10_4 1_555 1_555
O18_8 C144_15 1_555 1_555
H104_15 C138_15 1_555 1_555
C139_15 C138_15 1_555 1_555
C140_15 C139_15 1_555 1_555
H105_15 C140_15 1_555 1_555
C141_15 C136_15 1_555 1_555
H106_15 C141_15 1_555 1_555
C142_15 C139_15 1_555 1_555
H107_15 C142_15 1_555 1_555
C143_15 C142_15 1_555 1_555
H108_15 C143_15 1_555 1_555
C144_15 O17_8 1_555 1_555
Cd11_4 O17_8 1_555 1_555
O18_8 Cd11_4 1_555 1_555
C140_15 C141_15 1_555 1_555
C143_15 C144_15 1_555 1_555
O6_8 Cd11_4 1_555 1_555
C36_8 C35_8 1_555 1_555
H27_8 C36_8 1_555 1_555
H28_8 C37_8 1_555 1_555
C38_8 C35_8 1_555 1_555
H29_8 C38_8 1_555 1_555
C39_8 C38_8 1_555 1_555
H30_8 C39_8 1_555 1_555
C40_8 C39_8 1_555 1_555
C41_8 C40_8 1_555 1_555
H31_8 C41_8 1_555 1_555
C42_8 C41_8 1_555 1_555
H32_8 C42_8 1_555 1_555
C43_8 C42_8 1_555 1_555
C44_8 C43_8 1_555 1_555
H33_8 C44_8 1_555 1_555
C45_8 C40_8 1_555 1_555
H34_8 C45_8 1_555 1_555
C46_8 C43_8 1_555 1_555
H35_8 C46_8 1_555 1_555
C47_8 C46_8 1_555 1_555
H36_8 C47_8 1_555 1_555
C48_8 C47_8 1_555 1_555
C55_7 C54_7 1_555 1_555
H42_7 C55_7 1_555 1_555
C56_7 C55_7 1_555 1_555
C57_8 C56_7 1_555 1_555
H43_8 C57_8 1_555 1_555
C58_8 C57_8 1_555 1_555
H44_8 C58_8 1_555 1_555
C59_8 C58_8 1_555 1_555
C60_8 C59_8 1_555 1_555
H45_7 C60_8 1_555 1_555
C61_7 C56_7 1_555 1_555
H46_7 C61_7 1_555 1_555
C62_8 C59_8 1_555 1_555
H47_8 C62_8 1_555 1_555
C63_8 C62_8 1_555 1_555
H48_8 C63_8 1_555 1_555
C64_8 O6_8 1_555 1_555
O10_8 Cd11_4 1_555 1_555
C100_8 C99_8 1_555 1_555
H75_8 C100_8 1_555 1_555
H76_8 C101_8 1_555 1_555
C102_8 C99_8 1_555 1_555
H77_8 C102_8 1_555 1_555
C103_8 C102_8 1_555 1_555
H78_8 C103_8 1_555 1_555
C104_8 C103_8 1_555 1_555
C105_8 C104_8 1_555 1_555
H79_8 C105_8 1_555 1_555
C106_8 C105_8 1_555 1_555
H80_8 C106_8 1_555 1_555
C107_8 C106_8 1_555 1_555
C108_8 C107_8 1_555 1_555
H81_8 C108_8 1_555 1_555
C109_8 C104_8 1_555 1_555
H82_8 C109_8 1_555 1_555
C110_8 C107_8 1_555 1_555
H83_8 C110_8 1_555 1_555
C111_8 C110_8 1_555 1_555
H84_8 C111_8 1_555 1_555
N9_13 C129_15 1_555 1_555
C129_15 H97_15 1_555 1_555
C130_15 C129_15 1_555 1_555
H98_15 C130_15 1_555 1_555
C131_15 C130_15 1_555 1_555
C132_13 C131_15 1_555 1_555
H99_13 C132_13 1_555 1_555
C133_13 N9_13 1_555 1_555
H100_13 C133_13 1_555 1_555
C134_15 C131_15 1_555 1_555
H101_15 C134_15 1_555 1_555
C135_15 C134_15 1_555 1_555
H102_15 C135_15 1_555 1_555
H103_15 C137_15 1_555 1_555
C36_8 C37_8 1_555 1_555
C44_8 C45_8 1_555 1_555
C48_8 O10_8 1_555 1_555
C60_8 C61_7 1_555 1_555
C63_8 C64_8 1_555 1_555
C100_8 C101_8 1_555 1_555
C108_8 C109_8 1_555 1_555
C132_13 C133_13 1_555 1_555
Cd2_11 O8_7 1_555 1_555
O8_7 C80_7 1_555 1_555
O9_7 Cd2_11 1_555 1_555
N3_8 Cd2_11 1_555 1_555
N4_8 C49_8 1_555 1_555
C33_8 N3_8 1_555 1_555
H25_8 C33_8 1_555 1_555
C34_8 C33_8 1_555 1_555
H26_8 C34_8 1_555 1_555
C49_8 H37_8 1_555 1_555
C50_8 C49_8 1_555 1_555
H38_8 C50_8 1_555 1_555
C51_7 C50_8 1_555 1_555
C52_7 C51_7 1_555 1_555
C53_7 N4_8 1_555 1_555
H40_7 C53_7 1_555 1_555
H56_7 C74_7 1_555 1_555
C75_7 C74_7 1_555 1_555
C78_7 C75_7 1_555 1_555
H59_7 C78_7 1_555 1_555
C79_7 C78_7 1_555 1_555
H60_7 C79_7 1_555 1_555
C80_7 O9_7 1_555 1_555
O11_7 Cd2_11 1_555 1_555
O12_7 Cd2_11 1_555 1_555
H68_7 C90_7 1_555 1_555
C91_7 C90_7 1_555 1_555
C94_7 C91_7 1_555 1_555
H71_7 C94_7 1_555 1_555
C95_7 C94_7 1_555 1_555
H72_7 C95_7 1_555 1_555
C96_7 O11_7 1_555 1_555
N7_8 Cd2_11 1_555 1_555
C97_8 N7_8 1_555 1_555
H73_8 C97_8 1_555 1_555
C98_8 C97_8 1_555 1_555
H74_8 C98_8 1_555 1_555
C52_7 C53_7 1_555 1_555
C79_7 C80_7 1_555 1_555
O12_7 C96_7 1_555 1_555
C95_7 C96_7 1_555 1_555
C66_8 C65_8 1_555 1_555
H50_8 C66_8 1_555 1_555
C67_8 C66_8 1_555 1_555
C68_8 C67_8 1_555 1_555
H51_8 C68_8 1_555 1_555
C70_8 C67_8 1_555 1_555
H53_8 C70_8 1_555 1_555
C71_8 C70_8 1_555 1_555
H54_8 C71_8 1_555 1_555
C72_8 C71_8 1_555 1_555
C73_7 C72_8 1_555 1_555
H55_7 C73_7 1_555 1_555
H57_7 C76_7 1_555 1_555
C77_8 C72_8 1_555 1_555
H58_8 C77_8 1_555 1_555
C82_8 C81_8 1_555 1_555
H62_8 C82_8 1_555 1_555
C83_8 C82_8 1_555 1_555
C84_8 C83_8 1_555 1_555
H63_8 C84_8 1_555 1_555
C86_8 C83_8 1_555 1_555
H65_8 C86_8 1_555 1_555
C87_8 C86_8 1_555 1_555
H66_8 C87_8 1_555 1_555
C88_8 C87_8 1_555 1_555
C89_7 C88_8 1_555 1_555
H67_7 C89_7 1_555 1_555
H69_7 C92_7 1_555 1_555
C93_8 C88_8 1_555 1_555
H70_8 C93_8 1_555 1_555
C76_7 C77_8 1_555 1_555
C92_7 C93_8 1_555 1_555
C69_8 N11_4 1_555 1_555
H52_8 C69_8 1_555 1_555
C85_8 N13_4 1_555 1_555
H64_8 C85_8 1_555 1_555
Cd9_3 O13_8 1_555 1_555
O20_8 Cd9_3 1_555 1_555
O25_8 Cd9_3 1_555 1_555
O14_8 C112_8 1_555 1_555
Cd7_2 O14_8 1_555 1_555
O19_8 Cd7_2 1_555 1_555
C151_7 C150_7 1_555 1_555
H114_7 C151_7 1_555 1_555
C152_6 C151_7 1_555 1_555
C153_8 C152_6 1_555 1_555
H115_8 C153_8 1_555 1_555
C154_8 C153_8 1_555 1_555
H116_8 C154_8 1_555 1_555
C155_8 C154_8 1_555 1_555
C156_8 C155_8 1_555 1_555
H117_6 C156_8 1_555 1_555
C157_6 C152_6 1_555 1_555
H118_6 C157_6 1_555 1_555
C158_8 C155_8 1_555 1_555
H119_8 C158_8 1_555 1_555
C159_8 C158_8 1_555 1_555
H120_8 C159_8 1_555 1_555
C160_8 O19_8 1_555 1_555
O25_8 Cd7_2 1_555 1_555
C156_8 C157_6 1_555 1_555
C159_8 C160_8 1_555 1_555
N10_8 C145_8 1_555 1_555
C145_8 H109_8 1_555 1_555
C146_8 C145_8 1_555 1_555
H110_8 C146_8 1_555 1_555
C147_7 C146_8 1_555 1_555
C148_7 C147_7 1_555 1_555
C149_7 N10_8 1_555 1_555
H112_7 C149_7 1_555 1_555
C148_7 C149_7 1_555 1_555
O23_8 C144_16 1_555 1_555
H104_16 C138_16 1_555 1_555
C139_16 C138_16 1_555 1_555
C140_16 C139_16 1_555 1_555
H105_16 C140_16 1_555 1_555
C141_16 C136_16 1_555 1_555
H106_16 C141_16 1_555 1_555
C142_16 C139_16 1_555 1_555
H107_16 C142_16 1_555 1_555
C143_16 C142_16 1_555 1_555
H108_16 C143_16 1_555 1_555
C140_16 C141_16 1_555 1_555
C143_16 C144_16 1_555 1_555
N9_14 C129_16 1_555 1_555
C129_16 H97_16 1_555 1_555
C130_16 C129_16 1_555 1_555
H98_16 C130_16 1_555 1_555
C131_16 C130_16 1_555 1_555
C132_14 C131_16 1_555 1_555
H99_14 C132_14 1_555 1_555
C133_14 N9_14 1_555 1_555
H100_14 C133_14 1_555 1_555
C134_16 C131_16 1_555 1_555
H101_16 C134_16 1_555 1_555
C135_16 C134_16 1_555 1_555
H102_16 C135_16 1_555 1_555
H103_16 C137_16 1_555 1_555
C132_14 C133_14 1_555 1_555
C157_7 C152_7 1_555 1_555
H118_7 C157_7 1_555 1_555
C52_8 C51_8 1_555 1_555
H39_8 C52_8 1_555 1_555
H40_8 C53_8 1_555 1_555
C54_8 C51_8 1_555 1_555
H41_8 C54_8 1_555 1_555
C55_8 C54_8 1_555 1_555
H42_8 C55_8 1_555 1_555
C56_8 C55_8 1_555 1_555
C61_8 C56_8 1_555 1_555
H46_8 C61_8 1_555 1_555
C52_8 C53_8 1_555 1_555
C148_8 C147_8 1_555 1_555
H111_8 C148_8 1_555 1_555
H112_8 C149_8 1_555 1_555
C150_8 C147_8 1_555 1_555
H113_8 C150_8 1_555 1_555
C151_8 C150_8 1_555 1_555
H114_8 C151_8 1_555 1_555
C152_8 C151_8 1_555 1_555
C157_8 C152_8 1_555 1_555
H118_8 C157_8 1_555 1_555
C148_8 C149_8 1_555 1_555
O11_8 Cd2_12 1_555 1_555
O12_8 Cd2_12 1_555 1_555
H67_8 C89_8 1_555 1_555
C90_8 C89_8 1_555 1_555
H68_8 C90_8 1_555 1_555
C91_8 C90_8 1_555 1_555
C92_8 C91_8 1_555 1_555
H69_8 C92_8 1_555 1_555
C94_8 C91_8 1_555 1_555
H71_8 C94_8 1_555 1_555
C95_8 C94_8 1_555 1_555
H72_8 C95_8 1_555 1_555
C96_8 O11_8 1_555 1_555
O12_8 C96_8 1_555 1_555
C95_8 C96_8 1_555 1_555
H99_15 C132_15 1_555 1_555
C133_15 N9_15 1_555 1_555
H100_15 C133_15 1_555 1_555
C132_15 C133_15 1_555 1_555
H99_16 C132_16 1_555 1_555
C133_16 N9_16 1_555 1_555
H100_16 C133_16 1_555 1_555
C132_16 C133_16 1_555 1_555
Cd2_13 O8_8 1_555 1_555
O8_8 C80_8 1_555 1_555
O9_8 Cd2_13 1_555 1_555
H55_8 C73_8 1_555 1_555
C74_8 C73_8 1_555 1_555
H56_8 C74_8 1_555 1_555
C75_8 C74_8 1_555 1_555
C76_8 C75_8 1_555 1_555
H57_8 C76_8 1_555 1_555
C78_8 C75_8 1_555 1_555
H59_8 C78_8 1_555 1_555
C79_8 C78_8 1_555 1_555
H60_8 C79_8 1_555 1_555
C80_8 O9_8 1_555 1_555
C79_8 C80_8 1_555 1_555

#END
