
###############################################################################
#
# This file contains modified crystal structure data generated from the
# MOF subset of the Cambridge Structural Database (CSD) v543 
# hosted by the Cambridge Crystallographic Data Centre (CCDC).
#
# This work is licensed under the Creative Commons
# Attribution-NonCommercial-ShareAlike 4.0 International License.
# To view a copy of this license, visit
# http://creativecommons.org/licenses/by-nc-sa/4.0/
# or send a letter to
# Creative Commons, PO Box 1866, Mountain View, CA 94042, USA.
#
# CIF created using the CSD Python API on 29 September 2022
# The structure has been converted into the P1 space group
# The structure has a 3D framework
# The original CSD entry ICAXIX is in the cubic crystal system
# The original CSD entry ICAXIX is in a Sohncke space group
# The framework has been calculated to contain at least 10.0% void space
# The void calculation uses a probe of radius 1.32A, grid spacing 0.4
# The framework is charged, counterions have been retained in the structure
#
###############################################################################

data_ICAXIX
_chemical_formula_moiety         '(C222 H192 Cl4 Cu20 N72 18+)n'
_symmetry_cell_setting           triclinic
_symmetry_space_group_name_H-M   'P 1'
_symmetry_Int_Tables_number      1
_space_group_name_Hall           'P 1'
loop_
_symmetry_equiv_pos_site_id
_symmetry_equiv_pos_as_xyz
1 x,y,z
_cell_length_a                   18.77320(19)
_cell_length_b                   18.77320(19)
_cell_length_c                   18.77320(19)
_cell_angle_alpha                90
_cell_angle_beta                 90
_cell_angle_gamma                90
_cell_volume                     6616.3
loop_
_atom_site_label
_atom_site_type_symbol
_atom_site_fract_x
_atom_site_fract_y
_atom_site_fract_z
Cu2 Cu 0.39739(5) 0.10261(5) 0.89739(5)
N1 N 0.4578(3) 0.0804(3) 0.7505(3)
N5 N 0.4619(4) 0.0626(4) 0.8216(4)
C1 C 0.5000(4) 0.0345(4) 0.7191(5)
H1 H 0.5081 0.0339 0.6702
C18 C 0.5080(6) 0.0096(6) 0.8248(9)
Cl2 Cl 0.32019(5) 0.17981(5) 0.82019(5)
Cu7 Cu 0.39820(6) 0.15243(6) 0.71382(6)
N22 N 0.3216(4) 0.0381(4) 0.9374(4)
N23 N 0.4374(4) 0.1784(4) 0.9619(4)
Cu1 Cu 0.34757(6) 0.28618(6) 0.89820(6)
Cu3 Cu 0.24327(6) 0.25673(6) 0.74327(6)
N2 N 0.2574(4) 0.3502(4) 0.7938(4)
N3 N 0.2922(4) 0.3590(3) 0.8572(4)
N4 N 0.5298(4) 0.9893(4) 0.7637(6)
C2 C 0.2270(6) 0.4129(6) 0.7754(8)
H2 H 0.2000 0.4218 0.7348
N6 N 0.2435(4) 0.4611(4) 0.8283(6)
C3 C 0.4415(5) 0.7430(4) 0.7679(6)
C4 C 0.4420(5) 0.7754(5) 0.7013(6)
H3 H 0.4139 0.7572 0.6647
C5 C 0.4844(5) 0.8349(5) 0.6894(5)
H4 H 0.4847 0.8566 0.6448
C6 C 0.5263(5) 0.8621(4) 0.7440(6)
C7 C 0.5258(5) 0.8297(5) 0.8106(5)
H5 H 0.5538 0.8478 0.8472
C8 C 0.4834(6) 0.7702(5) 0.8226(5)
H6 H 0.4831 0.7485 0.8671
C9 C 0.2878(4) 0.5850(4) 0.8138(5)
C10 C 0.2949(4) 0.6128(4) 0.7456(4)
H7 H 0.2641 0.5984 0.7096
C11 C 0.3481(5) 0.6623(4) 0.7311(4)
H8 H 0.3528 0.6810 0.6855
C12 C 0.3941(4) 0.6839(4) 0.7849(5)
C13 C 0.3871(4) 0.6561(4) 0.8532(4)
H9 H 0.4179 0.6705 0.8891
C14 C 0.3339(5) 0.6066(4) 0.8676(4)
H10 H 0.3292 0.5880 0.9133
C15 C 0.2813(5) 0.4277(4) 0.8727(7)
H11 H 0.3001 0.4491 0.9132
C16 C 0.2231(7) 0.5372(7) 0.8322(8)
H12 H 0.2063 0.5482 0.8798
H13 H 0.1847 0.5465 0.7990
C17 C 0.5711(8) 0.9283(7) 0.7365(10)
H14 H 0.6149 0.9231 0.7635
H15 H 0.5833 0.9359 0.6869
H16 H 0.5231 0.9892 0.8673
N8 N 0.2938(4) 0.2426(4) 0.6498(4)
N9 N 0.3572(4) 0.2078(4) 0.6410(3)
C20 C 0.2754(8) 0.2730(6) 0.5871(6)
H18 H 0.2348 0.3000 0.5782
N12 N 0.3283(6) 0.2565(4) 0.5389(4)
C21 C 0.2679(6) 0.0585(5) 0.2570(4)
C22 C 0.2013(6) 0.0580(5) 0.2246(5)
H19 H 0.1647 0.0861 0.2428
C23 C 0.1894(5) 0.0156(5) 0.1651(5)
H20 H 0.1448 0.0153 0.1434
C26 C 0.3226(5) 0.0166(6) 0.2298(5)
H22 H 0.3671 0.0169 0.2515
C27 C 0.3138(5) 0.2122(4) 0.4150(4)
C28 C 0.2456(4) 0.2051(4) 0.3872(4)
H23 H 0.2096 0.2359 0.4016
C29 C 0.2311(4) 0.1519(5) 0.3377(4)
H24 H 0.1855 0.1472 0.3190
C30 C 0.2849(5) 0.1059(4) 0.3161(4)
C31 C 0.3532(4) 0.1129(4) 0.3439(4)
H25 H 0.3891 0.0821 0.3295
C32 C 0.3676(4) 0.1661(5) 0.3934(4)
H26 H 0.4133 0.1708 0.4120
C33 C 0.3727(7) 0.2187(5) 0.5723(4)
H27 H 0.4132 0.1999 0.5509
C34 C 0.3322(8) 0.2769(7) 0.4628(7)
H28 H 0.3798 0.2937 0.4518
H29 H 0.2990 0.3153 0.4535
Cu5 Cu 0.21382(6) 0.10180(6) 0.84757(6)
N14 N 0.1498(4) 0.2062(4) 0.7574(4)
N15 N 0.1410(3) 0.1428(4) 0.7922(4)
C38 C 0.0871(6) 0.2246(8) 0.7270(6)
H34 H 0.0782 0.2652 0.7000
N18 N 0.0389(4) 0.1717(6) 0.7435(4)
C51 C 0.0723(4) 0.1273(7) 0.7813(5)
H43 H 0.0509 0.0868 0.8001
N20 N 0.2505(3) 0.0422(3) 0.9196(3)
N21 N 0.4196(3) 0.2495(3) 0.9578(3)
C19 C 0.2191(5) -0.0000(4) 0.9655(4)
C37 C 0.4655(4) 0.2809(5) 1.0000(4)
C39 C 0.7570(4) 0.2321(6) 0.9415(5)
C40 C 0.7246(5) 0.2987(6) 0.9420(5)
H35 H 0.7428 0.3353 0.9139
C41 C 0.6651(5) 0.3106(5) 0.9844(5)
H36 H 0.6434 0.3552 0.9847
C44 C 0.7298(5) 0.1774(5) 0.9834(6)
H38 H 0.7515 0.1329 0.9831
C45 C 0.9150(4) 0.1862(5) 0.7878(4)
C46 C 0.8872(4) 0.2544(4) 0.7949(4)
H39 H 0.9016 0.2904 0.7641
C47 C 0.8377(4) 0.2689(4) 0.8481(5)
H40 H 0.8190 0.3145 0.8528
C48 C 0.8161(4) 0.2151(5) 0.8941(4)
C49 C 0.8439(4) 0.1468(4) 0.8871(4)
H41 H 0.8295 0.1109 0.9179
C50 C 0.8934(4) 0.1324(4) 0.8339(5)
H42 H 0.9120 0.0867 0.8292
C52 C 0.9628(7) 0.1678(8) 0.7231(7)
H44 H 0.9518 0.1202 0.7063
H45 H 0.9535 0.2010 0.6847
N10 N 0.2637(6) 0.9702(4) 0.0107(4)
C24 C 0.2440(6) 0.9737(5) 0.1379(4)
C25 C 0.3106(5) 0.9742(5) 0.1703(5)
H21 H 0.3472 0.9462 0.1522
C35 C 0.2365(10) 0.9289(8) 0.0717(7)
H30 H 0.2635 0.8851 0.0769
H31 H 0.1869 0.9167 0.0641
H32 H 0.3673 0.9769 0.0108
C19_2 C 0.2191(5) 1.0000(4) 0.9655(4)
H17 H 0.1702 0.9919 0.9661
C36 C 0.3248(9) 0.9920(6) 0.9904(6)
N16 N 0.5107(4) 0.2363(6) 0.0298(4)
C37_2 C 0.4655(4) 0.2809(5) 0.0000(4)
H33 H 0.4661 0.3298 0.0081
C42 C 0.6379(4) 0.2560(6) 0.0263(5)
C43 C 0.6703(5) 0.1894(5) 0.0258(5)
H37 H 0.6522 0.1528 0.0538
C53 C 0.5717(7) 0.2635(10) 0.0711(8)
H46 H 0.5769 0.2365 0.1149
H47 H 0.5641 0.3131 0.0833
C54 C 0.4904(6) 0.1752(9) 0.0080(6)
H48 H 0.5108 0.1327 0.0231
N13 N 0.0804(3) 0.7505(3) 0.4578(3)
N17 N 0.0626(4) 0.8216(4) 0.4619(4)
C37_3 C 0.0345(4) 0.7191(5) 0.5000(4)
H33_2 H 0.0339 0.6702 0.5081
C54_2 C 0.0096(6) 0.8248(9) 0.5080(6)
Cu6 Cu 0.15243(6) 0.71382(6) 0.39820(6)
Cu9 Cu 0.10261(5) 0.89739(5) 0.39739(5)
Cl1 Cl 0.17981(5) 0.82019(5) 0.32019(5)
Cu3_2 Cu 0.25673(6) 0.74327(6) 0.24327(6)
N2_2 N 0.2426(4) 0.6498(4) 0.2938(4)
N3_2 N 0.2078(4) 0.6410(3) 0.3572(4)
C2_2 C 0.2730(6) 0.5871(6) 0.2754(8)
H2_2 H 0.3000 0.5782 0.2348
N6_2 N 0.2565(4) 0.5389(4) 0.3283(6)
C3_2 C 0.0585(5) 0.2570(4) 0.2679(6)
C4_2 C 0.0580(5) 0.2246(5) 0.2013(6)
H3_2 H 0.0861 0.2428 0.1647
C5_2 C 0.0156(5) 0.1651(5) 0.1894(5)
H4_2 H 0.0153 0.1434 0.1448
C8_2 C 0.0166(6) 0.2298(5) 0.3226(5)
H6_2 H 0.0169 0.2515 0.3671
C9_2 C 0.2122(4) 0.4150(4) 0.3138(5)
C10_2 C 0.2051(4) 0.3872(4) 0.2456(4)
H7_2 H 0.2359 0.4016 0.2096
C11_2 C 0.1519(5) 0.3377(4) 0.2311(4)
H8_2 H 0.1472 0.3190 0.1855
C12_2 C 0.1059(4) 0.3161(4) 0.2849(5)
C13_2 C 0.1129(4) 0.3439(4) 0.3532(4)
H9_2 H 0.0821 0.3295 0.3891
C14_2 C 0.1661(5) 0.3934(4) 0.3676(4)
H10_2 H 0.1708 0.4120 0.4133
C15_2 C 0.2187(5) 0.5723(4) 0.3727(7)
H11_2 H 0.1999 0.5509 0.4132
C16_2 C 0.2769(7) 0.4628(7) 0.3322(8)
H12_2 H 0.2937 0.4518 0.3798
H13_2 H 0.3153 0.4535 0.2990
Cu4 Cu 0.10180(6) 0.84757(6) 0.21382(6)
N8_2 N 0.2062(4) 0.7574(4) 0.1498(4)
N9_2 N 0.1428(4) 0.7922(4) 0.1410(3)
C20_2 C 0.2246(8) 0.7270(6) 0.0871(6)
H18_2 H 0.2652 0.7000 0.0782
N12_2 N 0.1717(6) 0.7435(4) 0.0389(4)
C33_2 C 0.1273(7) 0.7813(5) 0.0723(4)
H27_2 H 0.0868 0.8001 0.0509
Cu5_2 Cu 0.28618(6) 0.89820(6) 0.34757(6)
N14_2 N 0.3502(4) 0.7938(4) 0.2574(4)
N15_2 N 0.3590(3) 0.8572(4) 0.2922(4)
N16_2 N 0.9893(4) 0.7637(6) 0.5298(4)
C38_2 C 0.4129(6) 0.7754(8) 0.2270(6)
H34_2 H 0.4218 0.7348 0.2000
N18_2 N 0.4611(4) 0.8283(6) 0.2435(4)
C39_2 C 0.7430(4) 0.7679(6) 0.4415(5)
C40_2 C 0.7754(5) 0.7013(6) 0.4420(5)
H35_2 H 0.7572 0.6647 0.4139
C41_2 C 0.8349(5) 0.6894(5) 0.4844(5)
H36_2 H 0.8566 0.6448 0.4847
C42_2 C 0.8621(4) 0.7440(6) 0.5263(5)
C43_2 C 0.8297(5) 0.8106(5) 0.5258(5)
H37_2 H 0.8478 0.8472 0.5538
C44_2 C 0.7702(5) 0.8226(5) 0.4834(6)
H38_2 H 0.7485 0.8671 0.4831
C45_2 C 0.5850(4) 0.8138(5) 0.2878(4)
C46_2 C 0.6128(4) 0.7456(4) 0.2949(4)
H39_2 H 0.5984 0.7096 0.2641
C47_2 C 0.6623(4) 0.7311(4) 0.3481(5)
H40_2 H 0.6810 0.6855 0.3528
C48_2 C 0.6839(4) 0.7849(5) 0.3941(4)
C49_2 C 0.6561(4) 0.8532(4) 0.3871(4)
H41_2 H 0.6705 0.8891 0.4179
C50_2 C 0.6066(4) 0.8676(4) 0.3339(5)
H42_2 H 0.5880 0.9133 0.3292
C51_2 C 0.4277(4) 0.8727(7) 0.2813(5)
H43_2 H 0.4491 0.9132 0.3001
C52_2 C 0.5372(7) 0.8322(8) 0.2231(7)
H44_2 H 0.5482 0.8798 0.2063
H45_2 H 0.5465 0.7990 0.1847
C53_2 C 0.9283(7) 0.7365(10) 0.5711(8)
H46_2 H 0.9231 0.7635 0.6149
H47_2 H 0.9359 0.6869 0.5833
H48_2 H 0.9892 0.8673 0.5231
N19 N 0.0422(3) 0.9196(3) 0.2505(3)
N20_2 N 0.2495(3) 0.9578(3) 0.4196(3)
N11 N 0.1784(4) 0.9619(4) 0.4374(4)
C19_3 C 0.2809(5) 1.0000(4) 0.4655(4)
C21_2 C 0.2321(6) 0.9415(5) 0.7570(4)
C22_2 C 0.2987(6) 0.9420(5) 0.7246(5)
H19_2 H 0.3353 0.9139 0.7428
C23_2 C 0.3106(5) 0.9844(5) 0.6651(5)
H20_2 H 0.3552 0.9847 0.6434
C26_2 C 0.1774(5) 0.9834(6) 0.7298(5)
H22_2 H 0.1329 0.9831 0.7515
C27_2 C 0.1862(5) 0.7878(4) 0.9150(4)
C28_2 C 0.2544(4) 0.7949(4) 0.8872(4)
H23_2 H 0.2904 0.7641 0.9016
C29_2 C 0.2689(4) 0.8481(5) 0.8377(4)
H24_2 H 0.3145 0.8528 0.8190
C30_2 C 0.2151(5) 0.8941(4) 0.8161(4)
C31_2 C 0.1468(4) 0.8871(4) 0.8439(4)
H25_2 H 0.1109 0.9179 0.8295
C32_2 C 0.1324(4) 0.8339(5) 0.8934(4)
H26_2 H 0.0867 0.8292 0.9120
C34_2 C 0.1678(8) 0.7231(7) 0.9628(7)
H28_2 H 0.1202 0.7063 0.9518
H29_2 H 0.2010 0.6847 0.9535
N5_2 N 0.0381(4) 0.9374(4) 0.3216(4)
C1_2 C 0.0000(4) 0.9655(4) 0.2191(5)
N10_2 N 0.2363(6) 0.0298(4) 0.5107(4)
C19_4 C 0.2809(5) 0.0000(4) 0.4655(4)
H17_2 H 0.3298 0.0081 0.4661
C24_2 C 0.2560(6) 0.0263(5) 0.6379(4)
C25_2 C 0.1894(5) 0.0258(5) 0.6703(5)
H21_2 H 0.1528 0.0538 0.6522
C35_2 C 0.2635(10) 0.0711(8) 0.5717(7)
H30_2 H 0.2365 0.1149 0.5769
H31_2 H 0.3131 0.0833 0.5641
C36_2 C 0.1752(9) 0.0080(6) 0.4904(6)
H32_2 H 0.1327 0.0231 0.5108
N4_2 N 0.9702(4) 0.0107(4) 0.2637(6)
C6_2 C 0.9737(5) 0.1379(4) 0.2440(6)
C7_2 C 0.9742(5) 0.1703(5) 0.3106(5)
H5_2 H 0.9462 0.1522 0.3472
C17_2 C 0.9289(8) 0.0717(7) 0.2365(10)
H14_2 H 0.8851 0.0769 0.2635
H15_2 H 0.9167 0.0641 0.1869
H16_2 H 0.9769 0.0108 0.3673
C1_3 C 1.0000(4) 0.9655(4) 0.2191(5)
H1_2 H 0.9919 0.9661 0.1702
C18_2 C 0.9920(6) 0.9904(6) 0.3248(9)
N13_2 N 0.5804(3) 0.7495(3) 0.5422(3)
N16_3 N 0.4893(4) 0.7363(6) 0.4702(4)
N17_2 N 0.5626(4) 0.6784(4) 0.5381(4)
C37_4 C 0.5345(4) 0.7809(5) 0.5000(4)
H33_3 H 0.5339 0.8298 0.4919
C39_3 C 0.2430(4) 0.7321(6) 0.5585(5)
C40_3 C 0.2754(5) 0.7987(6) 0.5580(5)
H35_3 H 0.2572 0.8353 0.5861
C41_3 C 0.3349(5) 0.8106(5) 0.5156(5)
H36_3 H 0.3566 0.8552 0.5153
C42_3 C 0.3621(4) 0.7560(6) 0.4737(5)
C43_3 C 0.3297(5) 0.6894(5) 0.4742(5)
H37_3 H 0.3478 0.6528 0.4462
C44_3 C 0.2702(5) 0.6774(5) 0.5166(6)
H38_3 H 0.2485 0.6329 0.5169
C45_3 C 0.0850(4) 0.6862(5) 0.7122(4)
C46_3 C 0.1128(4) 0.7544(4) 0.7051(4)
H39_3 H 0.0984 0.7904 0.7359
C47_3 C 0.1623(4) 0.7689(4) 0.6519(5)
H40_3 H 0.1810 0.8145 0.6472
C48_3 C 0.1839(4) 0.7151(5) 0.6059(4)
C49_3 C 0.1561(4) 0.6468(4) 0.6129(4)
H41_3 H 0.1705 0.6109 0.5821
C50_3 C 0.1066(4) 0.6324(4) 0.6661(5)
H42_3 H 0.0880 0.5867 0.6708
C52_3 C 0.0372(7) 0.6678(8) 0.7769(7)
H44_3 H 0.0482 0.6202 0.7937
H45_3 H 0.0465 0.7010 0.8153
C53_3 C 0.4283(7) 0.7635(10) 0.4289(8)
H46_3 H 0.4231 0.7365 0.3851
H47_3 H 0.4359 0.8131 0.4167
C54_3 C 0.5096(6) 0.6752(9) 0.4920(6)
H48_3 H 0.4892 0.6327 0.4769
Cu6_2 Cu 0.65243(6) 0.78618(6) 0.60180(6)
Cu9_2 Cu 0.60261(5) 0.60261(5) 0.60261(5)
N1_2 N 0.5422(3) 0.5804(3) 0.7495(3)
N4_3 N 0.4702(4) 0.4893(4) 0.7363(6)
N5_3 N 0.5381(4) 0.5626(4) 0.6784(4)
C1_4 C 0.5000(4) 0.5345(4) 0.7809(5)
H1_3 H 0.4919 0.5339 0.8298
C3_3 C 0.5585(5) 0.2430(4) 0.7321(6)
C4_3 C 0.5580(5) 0.2754(5) 0.7987(6)
H3_3 H 0.5861 0.2572 0.8353
C5_3 C 0.5156(5) 0.3349(5) 0.8106(5)
H4_3 H 0.5153 0.3566 0.8552
C6_3 C 0.4737(5) 0.3621(4) 0.7560(6)
C7_3 C 0.4742(5) 0.3297(5) 0.6894(5)
H5_3 H 0.4462 0.3478 0.6528
C8_3 C 0.5166(6) 0.2702(5) 0.6774(5)
H6_3 H 0.5169 0.2485 0.6329
C9_3 C 0.7122(4) 0.0850(4) 0.6862(5)
C10_3 C 0.7051(4) 0.1128(4) 0.7544(4)
H7_3 H 0.7359 0.0984 0.7904
C11_3 C 0.6519(5) 0.1623(4) 0.7689(4)
H8_3 H 0.6472 0.1810 0.8145
C12_3 C 0.6059(4) 0.1839(4) 0.7151(5)
C13_3 C 0.6129(4) 0.1561(4) 0.6468(4)
H9_3 H 0.5821 0.1705 0.6109
C14_3 C 0.6661(5) 0.1066(4) 0.6324(4)
H10_3 H 0.6708 0.0880 0.5867
C16_3 C 0.7769(7) 0.0372(7) 0.6678(8)
H12_3 H 0.7937 0.0482 0.6202
H13_3 H 0.8153 0.0465 0.7010
C17_3 C 0.4289(8) 0.4283(7) 0.7635(10)
H14_3 H 0.3851 0.4231 0.7365
H15_3 H 0.4167 0.4359 0.8131
C18_3 C 0.4920(6) 0.5096(6) 0.6752(9)
H16_3 H 0.4769 0.4892 0.6327
Cl2_2 Cl 0.67981(5) 0.67981(5) 0.67981(5)
Cu7_2 Cu 0.60180(6) 0.65243(6) 0.78618(6)
N22_2 N 0.6784(4) 0.5381(4) 0.5626(4)
N7 N 0.7495(3) 0.5422(3) 0.5804(3)
N10_3 N 0.7363(6) 0.4702(4) 0.4893(4)
C19_5 C 0.7809(5) 0.5000(4) 0.5345(4)
H17_3 H 0.8298 0.4919 0.5339
C21_3 C 0.7321(6) 0.5585(5) 0.2430(4)
C22_3 C 0.7987(6) 0.5580(5) 0.2754(5)
H19_3 H 0.8353 0.5861 0.2572
C23_3 C 0.8106(5) 0.5156(5) 0.3349(5)
H20_3 H 0.8552 0.5153 0.3566
C24_3 C 0.7560(6) 0.4737(5) 0.3621(4)
C25_3 C 0.6894(5) 0.4742(5) 0.3297(5)
H21_3 H 0.6528 0.4462 0.3478
C26_3 C 0.6774(5) 0.5166(6) 0.2702(5)
H22_3 H 0.6329 0.5169 0.2485
C27_3 C 0.6862(5) 0.7122(4) 0.0850(4)
C28_3 C 0.7544(4) 0.7051(4) 0.1128(4)
H23_3 H 0.7904 0.7359 0.0984
C29_3 C 0.7689(4) 0.6519(5) 0.1623(4)
H24_3 H 0.8145 0.6472 0.1810
C30_3 C 0.7151(5) 0.6059(4) 0.1839(4)
C31_3 C 0.6468(4) 0.6129(4) 0.1561(4)
H25_3 H 0.6109 0.5821 0.1705
C32_3 C 0.6324(4) 0.6661(5) 0.1066(4)
H26_3 H 0.5867 0.6708 0.0880
C34_3 C 0.6678(8) 0.7769(7) 0.0372(7)
H28_3 H 0.6202 0.7937 0.0482
H29_3 H 0.7010 0.8153 0.0465
C35_3 C 0.7635(10) 0.4289(8) 0.4283(7)
H30_3 H 0.7365 0.3851 0.4231
H31_3 H 0.8131 0.4167 0.4359
C36_3 C 0.6752(9) 0.4920(6) 0.5096(6)
H32_3 H 0.6327 0.4769 0.4892
Cu8 Cu 0.78618(6) 0.60180(6) 0.65243(6)
Cu3_3 Cu 0.75673(6) 0.75673(6) 0.75673(6)
N2_3 N 0.7426(4) 0.8502(4) 0.7062(4)
N3_3 N 0.7078(4) 0.8590(3) 0.6428(4)
C2_3 C 0.7730(6) 0.9129(6) 0.7246(8)
H2_3 H 0.8000 0.9218 0.7652
N6_3 N 0.7565(4) 0.9611(4) 0.6717(6)
C15_3 C 0.7187(5) 0.9277(4) 0.6273(7)
H11_3 H 0.6999 0.9491 0.5868
N8_3 N 0.7062(4) 0.7426(4) 0.8502(4)
N9_3 N 0.6428(4) 0.7078(4) 0.8590(3)
C20_3 C 0.7246(8) 0.7730(6) 0.9129(6)
H18_3 H 0.7652 0.8000 0.9218
N12_3 N 0.6717(6) 0.7565(4) 0.9611(4)
C33_3 C 0.6273(7) 0.7187(5) 0.9277(4)
H27_3 H 0.5868 0.6999 0.9491
N14_3 N 0.8502(4) 0.7062(4) 0.7426(4)
N15_3 N 0.8590(3) 0.6428(4) 0.7078(4)
C38_3 C 0.9129(6) 0.7246(8) 0.7730(6)
H34_3 H 0.9218 0.7652 0.8000
N18_3 N 0.9611(4) 0.6717(6) 0.7565(4)
C51_3 C 0.9277(4) 0.6273(7) 0.7187(5)
H43_3 H 0.9491 0.5868 0.6999
N4_4 N 0.0298(4) 0.5107(4) 0.2363(6)
C1_5 C -0.0000(4) 0.4655(4) 0.2809(5)
H1_4 H 0.0081 0.4661 0.3298
C6_4 C 0.0263(5) 0.6379(4) 0.2560(6)
C7_4 C 0.0258(5) 0.6703(5) 0.1894(5)
H5_4 H 0.0538 0.6522 0.1528
C17_4 C 0.0711(8) 0.5717(7) 0.2635(10)
H14_4 H 0.1149 0.5769 0.2365
H15_4 H 0.0833 0.5641 0.3131
C18_4 C 0.0080(6) 0.4904(6) 0.1752(9)
H16_4 H 0.0231 0.5108 0.1327
N7_2 N 0.7505(3) 0.4578(3) 0.0804(3)
N11_2 N 0.8216(4) 0.4619(4) 0.0626(4)
C19_6 C 0.7191(5) 0.5000(4) 0.0345(4)
H17_4 H 0.6702 0.5081 0.0339
C36_4 C 0.8248(9) 0.5080(6) 0.0096(6)
Cu8_2 Cu 0.71382(6) 0.39820(6) 0.15243(6)
Cu10 Cu 0.89739(5) 0.39739(5) 0.10261(5)
Cl1_2 Cl 0.82019(5) 0.32019(5) 0.17981(5)
Cu1_2 Cu 0.84757(6) 0.21382(6) 0.10180(6)
Cu3_4 Cu 0.74327(6) 0.24327(6) 0.25673(6)
N2_4 N 0.7574(4) 0.1498(4) 0.2062(4)
N3_4 N 0.7922(4) 0.1410(3) 0.1428(4)
C2_4 C 0.7270(6) 0.0871(6) 0.2246(8)
H2_4 H 0.7000 0.0782 0.2652
N6_4 N 0.7435(4) 0.0389(4) 0.1717(6)
C15_4 C 0.7813(5) 0.0723(4) 0.1273(7)
H11_4 H 0.8001 0.0509 0.0868
Cu4_2 Cu 0.89820(6) 0.34757(6) 0.28618(6)
N8_4 N 0.7938(4) 0.2574(4) 0.3502(4)
N9_4 N 0.8572(4) 0.2922(4) 0.3590(3)
N10_4 N 0.7637(6) 0.5298(4) 0.9893(4)
C20_4 C 0.7754(8) 0.2270(6) 0.4129(6)
H18_4 H 0.7348 0.2000 0.4218
N12_4 N 0.8283(6) 0.2435(4) 0.4611(4)
C21_4 C 0.7679(6) 0.4415(5) 0.7430(4)
C22_4 C 0.7013(6) 0.4420(5) 0.7754(5)
H19_4 H 0.6647 0.4139 0.7572
C23_4 C 0.6894(5) 0.4844(5) 0.8349(5)
H20_4 H 0.6448 0.4847 0.8566
C24_4 C 0.7440(6) 0.5263(5) 0.8621(4)
C25_4 C 0.8106(5) 0.5258(5) 0.8297(5)
H21_4 H 0.8472 0.5538 0.8478
C26_4 C 0.8226(5) 0.4834(6) 0.7702(5)
H22_4 H 0.8671 0.4831 0.7485
C27_4 C 0.8138(5) 0.2878(4) 0.5850(4)
C28_4 C 0.7456(4) 0.2949(4) 0.6128(4)
H23_4 H 0.7096 0.2641 0.5984
C29_4 C 0.7311(4) 0.3481(5) 0.6623(4)
H24_4 H 0.6855 0.3528 0.6810
C30_4 C 0.7849(5) 0.3941(4) 0.6839(4)
C31_4 C 0.8532(4) 0.3871(4) 0.6561(4)
H25_4 H 0.8891 0.4179 0.6705
C32_4 C 0.8676(4) 0.3339(5) 0.6066(4)
H26_4 H 0.9133 0.3292 0.5880
C33_4 C 0.8727(7) 0.2813(5) 0.4277(4)
H27_4 H 0.9132 0.3001 0.4491
C34_4 C 0.8322(8) 0.2231(7) 0.5372(7)
H28_4 H 0.8798 0.2063 0.5482
H29_4 H 0.7990 0.1847 0.5465
C35_4 C 0.7365(10) 0.5711(8) 0.9283(7)
H30_4 H 0.7635 0.6149 0.9231
H31_4 H 0.6869 0.5833 0.9359
H32_4 H 0.8673 0.5231 0.9892
N14_4 N 0.6498(4) 0.2938(4) 0.2426(4)
N15_4 N 0.6410(3) 0.3572(4) 0.2078(4)
C38_4 C 0.5871(6) 0.2754(8) 0.2730(6)
H34_4 H 0.5782 0.2348 0.3000
N18_4 N 0.5389(4) 0.3283(6) 0.2565(4)
C39_4 C 0.2570(4) 0.2679(6) 0.0585(5)
C40_4 C 0.2246(5) 0.2013(6) 0.0580(5)
H35_4 H 0.2428 0.1647 0.0861
C41_4 C 0.1651(5) 0.1894(5) 0.0156(5)
H36_4 H 0.1434 0.1448 0.0153
C44_4 C 0.2298(5) 0.3226(5) 0.0166(6)
H38_4 H 0.2515 0.3671 0.0169
C45_4 C 0.4150(4) 0.3138(5) 0.2122(4)
C46_4 C 0.3872(4) 0.2456(4) 0.2051(4)
H39_4 H 0.4016 0.2096 0.2359
C47_4 C 0.3377(4) 0.2311(4) 0.1519(5)
H40_4 H 0.3190 0.1855 0.1472
C48_4 C 0.3161(4) 0.2849(5) 0.1059(4)
C49_4 C 0.3439(4) 0.3532(4) 0.1129(4)
H41_4 H 0.3295 0.3891 0.0821
C50_4 C 0.3934(4) 0.3676(4) 0.1661(5)
H42_4 H 0.4120 0.4133 0.1708
C51_4 C 0.5723(4) 0.3727(7) 0.2187(5)
H43_4 H 0.5509 0.4132 0.1999
C52_4 C 0.4628(7) 0.3322(8) 0.2769(7)
H44_4 H 0.4518 0.3798 0.2937
H45_4 H 0.4535 0.2990 0.3153
N19_2 N 0.9578(3) 0.4196(3) 0.2495(3)
N21_2 N 0.9196(3) 0.2505(3) 0.0422(3)
N5_4 N 0.9619(4) 0.4374(4) 0.1784(4)
C1_6 C 1.0000(4) 0.4655(4) 0.2809(5)
C3_4 C 0.9415(5) 0.7570(4) 0.2321(6)
C4_4 C 0.9420(5) 0.7246(5) 0.2987(6)
H3_4 H 0.9139 0.7428 0.3353
C5_4 C 0.9844(5) 0.6651(5) 0.3106(5)
H4_4 H 0.9847 0.6434 0.3552
C8_4 C 0.9834(6) 0.7298(5) 0.1774(5)
H6_4 H 0.9831 0.7515 0.1329
C9_4 C 0.7878(4) 0.9150(4) 0.1862(5)
C10_4 C 0.7949(4) 0.8872(4) 0.2544(4)
H7_4 H 0.7641 0.9016 0.2904
C11_4 C 0.8481(5) 0.8377(4) 0.2689(4)
H8_4 H 0.8528 0.8190 0.3145
C12_4 C 0.8941(4) 0.8161(4) 0.2151(5)
C13_4 C 0.8871(4) 0.8439(4) 0.1468(4)
H9_4 H 0.9179 0.8295 0.1109
C14_4 C 0.8339(5) 0.8934(4) 0.1324(4)
H10_4 H 0.8292 0.9120 0.0867
C16_4 C 0.7231(7) 0.9628(7) 0.1678(8)
H12_4 H 0.7063 0.9518 0.1202
H13_4 H 0.6847 0.9535 0.2010
N23_2 N 0.9374(4) 0.3216(4) 0.0381(4)
C37_5 C 0.9655(4) 0.2191(5) 0.0000(4)
N16_4 N 0.0107(4) 0.2637(6) 0.9702(4)
C42_4 C 0.1379(4) 0.2440(6) 0.9737(5)
C43_4 C 0.1703(5) 0.3106(5) 0.9742(5)
H37_4 H 0.1522 0.3472 0.9462
C53_4 C 0.0717(7) 0.2365(10) 0.9289(8)
H46_4 H 0.0769 0.2635 0.8851
H47_4 H 0.0641 0.1869 0.9167
H48_4 H 0.0108 0.3673 0.9769
C37_6 C 0.9655(4) 0.2191(5) 1.0000(4)
H33_4 H 0.9661 0.1702 0.9919
C54_4 C 0.9904(6) 0.3248(9) 0.9920(6)
loop_
_geom_bond_atom_site_label_1
_geom_bond_atom_site_label_2
_geom_bond_site_symmetry_1
_geom_bond_site_symmetry_2
Cu2 N5 1_555 1_555
N1 N5 1_555 1_555
N5 C18 1_555 1_555
C1 N1 1_555 1_555
H1 C1 1_555 1_555
Cl2 Cu2 1_555 1_555
Cu7 N1 1_555 1_555
N22 Cu2 1_555 1_555
N23 Cu2 1_555 1_555
Cl2 Cu7 1_555 1_555
Cl2 Cu1 1_555 1_555
Cu1 N3 1_555 1_555
Cu3 Cl2 1_555 1_555
N2 Cu3 1_555 1_555
N3 N2 1_555 1_555
C2 N2 1_555 1_555
H2 C2 1_555 1_555
N6 C2 1_555 1_555
C3 C4 1_555 1_555
C4 H3 1_555 1_555
C5 C4 1_555 1_555
H4 C5 1_555 1_555
C6 C5 1_555 1_555
C7 C6 1_555 1_555
H5 C7 1_555 1_555
C8 C3 1_555 1_555
H6 C8 1_555 1_555
C9 C10 1_555 1_555
C10 H7 1_555 1_555
C11 C10 1_555 1_555
H8 C11 1_555 1_555
C12 C3 1_555 1_555
C13 C12 1_555 1_555
H9 C13 1_555 1_555
C14 C9 1_555 1_555
H10 C14 1_555 1_555
C15 N3 1_555 1_555
H11 C15 1_555 1_555
C16 N6 1_555 1_555
H12 C16 1_555 1_555
H13 C16 1_555 1_555
C17 N4 1_555 1_555
H14 C17 1_555 1_555
H15 C17 1_555 1_555
N8 Cu3 1_555 1_555
N9 Cu7 1_555 1_555
C20 N8 1_555 1_555
H18 C20 1_555 1_555
N12 C20 1_555 1_555
C21 C22 1_555 1_555
C22 H19 1_555 1_555
C23 C22 1_555 1_555
H20 C23 1_555 1_555
C26 C21 1_555 1_555
H22 C26 1_555 1_555
C27 C28 1_555 1_555
C28 H23 1_555 1_555
C29 C28 1_555 1_555
H24 C29 1_555 1_555
C30 C21 1_555 1_555
C31 C30 1_555 1_555
H25 C31 1_555 1_555
C32 C27 1_555 1_555
H26 C32 1_555 1_555
C33 N9 1_555 1_555
H27 C33 1_555 1_555
C34 N12 1_555 1_555
H28 C34 1_555 1_555
H29 C34 1_555 1_555
Cu5 Cl2 1_555 1_555
N14 Cu3 1_555 1_555
N15 Cu5 1_555 1_555
C38 N14 1_555 1_555
H34 C38 1_555 1_555
N18 C38 1_555 1_555
C51 N15 1_555 1_555
H43 C51 1_555 1_555
N20 Cu5 1_555 1_555
N21 Cu1 1_555 1_555
N6 C15 1_555 1_555
C6 C17 1_555 1_555
C7 C8 1_555 1_555
C9 C16 1_555 1_555
C11 C12 1_555 1_555
C13 C14 1_555 1_555
N8 N9 1_555 1_555
N12 C33 1_555 1_555
C27 C34 1_555 1_555
C29 C30 1_555 1_555
C31 C32 1_555 1_555
N14 N15 1_555 1_555
N18 C51 1_555 1_555
N20 N22 1_555 1_555
C19 N20 1_555 1_555
N21 N23 1_555 1_555
C37 N21 1_555 1_555
C39 C40 1_555 1_555
C40 H35 1_555 1_555
C41 C40 1_555 1_555
H36 C41 1_555 1_555
C44 C39 1_555 1_555
H38 C44 1_555 1_555
C45 C46 1_555 1_555
C46 H39 1_555 1_555
C47 C46 1_555 1_555
H40 C47 1_555 1_555
C48 C39 1_555 1_555
C49 C48 1_555 1_555
H41 C49 1_555 1_555
C50 C45 1_555 1_555
H42 C50 1_555 1_555
H44 C52 1_555 1_555
H45 C52 1_555 1_555
C45 C52 1_555 1_555
C47 C48 1_555 1_555
C49 C50 1_555 1_555
C25 C24 1_555 1_555
H21 C25 1_555 1_555
C35 N10 1_555 1_555
H30 C35 1_555 1_555
H31 C35 1_555 1_555
C24 C35 1_555 1_555
H17 C19_2 1_555 1_555
N16 C37_2 1_555 1_555
H33 C37_2 1_555 1_555
C43 C42 1_555 1_555
H37 C43 1_555 1_555
C53 N16 1_555 1_555
H46 C53 1_555 1_555
H47 C53 1_555 1_555
C54 N16 1_555 1_555
H48 C54 1_555 1_555
C42 C53 1_555 1_555
N13 N17 1_555 1_555
N17 C54_2 1_555 1_555
C37_3 N13 1_555 1_555
H33_2 C37_3 1_555 1_555
Cu6 N13 1_555 1_555
Cu9 N17 1_555 1_555
Cl1 Cu6 1_555 1_555
Cu6 N3_2 1_555 1_555
Cu3_2 Cl1 1_555 1_555
N2_2 Cu3_2 1_555 1_555
N3_2 N2_2 1_555 1_555
C2_2 N2_2 1_555 1_555
H2_2 C2_2 1_555 1_555
N6_2 C2_2 1_555 1_555
C3_2 C4_2 1_555 1_555
C4_2 H3_2 1_555 1_555
C5_2 C4_2 1_555 1_555
H4_2 C5_2 1_555 1_555
C8_2 C3_2 1_555 1_555
H6_2 C8_2 1_555 1_555
C9_2 C10_2 1_555 1_555
C10_2 H7_2 1_555 1_555
C11_2 C10_2 1_555 1_555
H8_2 C11_2 1_555 1_555
C12_2 C3_2 1_555 1_555
C13_2 C12_2 1_555 1_555
H9_2 C13_2 1_555 1_555
C14_2 C9_2 1_555 1_555
H10_2 C14_2 1_555 1_555
C15_2 N3_2 1_555 1_555
H11_2 C15_2 1_555 1_555
C16_2 N6_2 1_555 1_555
H12_2 C16_2 1_555 1_555
H13_2 C16_2 1_555 1_555
Cu4 Cl1 1_555 1_555
N8_2 Cu3_2 1_555 1_555
N9_2 Cu4 1_555 1_555
C20_2 N8_2 1_555 1_555
H18_2 C20_2 1_555 1_555
N12_2 C20_2 1_555 1_555
C33_2 N9_2 1_555 1_555
H27_2 C33_2 1_555 1_555
Cu5_2 Cl1 1_555 1_555
N14_2 Cu3_2 1_555 1_555
N15_2 Cu5_2 1_555 1_555
C38_2 N14_2 1_555 1_555
H34_2 C38_2 1_555 1_555
N18_2 C38_2 1_555 1_555
C39_2 C40_2 1_555 1_555
C40_2 H35_2 1_555 1_555
C41_2 C40_2 1_555 1_555
H36_2 C41_2 1_555 1_555
C42_2 C41_2 1_555 1_555
C43_2 C42_2 1_555 1_555
H37_2 C43_2 1_555 1_555
C44_2 C39_2 1_555 1_555
H38_2 C44_2 1_555 1_555
C45_2 C46_2 1_555 1_555
C46_2 H39_2 1_555 1_555
C47_2 C46_2 1_555 1_555
H40_2 C47_2 1_555 1_555
C48_2 C39_2 1_555 1_555
C49_2 C48_2 1_555 1_555
H41_2 C49_2 1_555 1_555
C50_2 C45_2 1_555 1_555
H42_2 C50_2 1_555 1_555
C51_2 N15_2 1_555 1_555
H43_2 C51_2 1_555 1_555
C52_2 N18_2 1_555 1_555
H44_2 C52_2 1_555 1_555
H45_2 C52_2 1_555 1_555
C53_2 N16_2 1_555 1_555
H46_2 C53_2 1_555 1_555
H47_2 C53_2 1_555 1_555
Cu9 Cl1 1_555 1_555
N19 Cu4 1_555 1_555
N20_2 Cu5_2 1_555 1_555
N6_2 C15_2 1_555 1_555
C9_2 C16_2 1_555 1_555
C11_2 C12_2 1_555 1_555
C13_2 C14_2 1_555 1_555
N8_2 N9_2 1_555 1_555
N12_2 C33_2 1_555 1_555
N14_2 N15_2 1_555 1_555
N18_2 C51_2 1_555 1_555
C42_2 C53_2 1_555 1_555
C43_2 C44_2 1_555 1_555
C45_2 C52_2 1_555 1_555
C47_2 C48_2 1_555 1_555
C49_2 C50_2 1_555 1_555
N20_2 N11 1_555 1_555
C19_3 N20_2 1_555 1_555
C21_2 C22_2 1_555 1_555
C22_2 H19_2 1_555 1_555
C23_2 C22_2 1_555 1_555
H20_2 C23_2 1_555 1_555
C26_2 C21_2 1_555 1_555
H22_2 C26_2 1_555 1_555
C27_2 C28_2 1_555 1_555
C28_2 H23_2 1_555 1_555
C29_2 C28_2 1_555 1_555
H24_2 C29_2 1_555 1_555
C30_2 C21_2 1_555 1_555
C31_2 C30_2 1_555 1_555
H25_2 C31_2 1_555 1_555
C32_2 C27_2 1_555 1_555
H26_2 C32_2 1_555 1_555
H28_2 C34_2 1_555 1_555
H29_2 C34_2 1_555 1_555
Cu9 N11 1_555 1_555
C27_2 C34_2 1_555 1_555
C29_2 C30_2 1_555 1_555
C31_2 C32_2 1_555 1_555
Cu9 N5_2 1_555 1_555
N19 N5_2 1_555 1_555
C1_2 N19 1_555 1_555
N10_2 C19_4 1_555 1_555
H17_2 C19_4 1_555 1_555
C25_2 C24_2 1_555 1_555
H21_2 C25_2 1_555 1_555
C35_2 N10_2 1_555 1_555
H30_2 C35_2 1_555 1_555
H31_2 C35_2 1_555 1_555
C36_2 N10_2 1_555 1_555
H32_2 C36_2 1_555 1_555
C24_2 C35_2 1_555 1_555
C7_2 C6_2 1_555 1_555
H5_2 C7_2 1_555 1_555
C17_2 N4_2 1_555 1_555
H14_2 C17_2 1_555 1_555
H15_2 C17_2 1_555 1_555
C6_2 C17_2 1_555 1_555
H1_2 C1_3 1_555 1_555
N13_2 N17_2 1_555 1_555
N16_3 C37_4 1_555 1_555
N17_2 C54_3 1_555 1_555
C37_4 N13_2 1_555 1_555
H33_3 C37_4 1_555 1_555
C39_3 C40_3 1_555 1_555
C40_3 H35_3 1_555 1_555
C41_3 C40_3 1_555 1_555
H36_3 C41_3 1_555 1_555
C42_3 C41_3 1_555 1_555
C43_3 C42_3 1_555 1_555
H37_3 C43_3 1_555 1_555
C44_3 C39_3 1_555 1_555
H38_3 C44_3 1_555 1_555
C45_3 C46_3 1_555 1_555
C46_3 H39_3 1_555 1_555
C47_3 C46_3 1_555 1_555
H40_3 C47_3 1_555 1_555
C48_3 C39_3 1_555 1_555
C49_3 C48_3 1_555 1_555
H41_3 C49_3 1_555 1_555
C50_3 C45_3 1_555 1_555
H42_3 C50_3 1_555 1_555
H44_3 C52_3 1_555 1_555
H45_3 C52_3 1_555 1_555
C53_3 N16_3 1_555 1_555
H46_3 C53_3 1_555 1_555
H47_3 C53_3 1_555 1_555
C54_3 N16_3 1_555 1_555
H48_3 C54_3 1_555 1_555
Cu6_2 N13_2 1_555 1_555
Cu9_2 N17_2 1_555 1_555
C42_3 C53_3 1_555 1_555
C43_3 C44_3 1_555 1_555
C45_3 C52_3 1_555 1_555
C47_3 C48_3 1_555 1_555
C49_3 C50_3 1_555 1_555
Cu9_2 N5_3 1_555 1_555
N1_2 N5_3 1_555 1_555
N4_3 C1_4 1_555 1_555
N5_3 C18_3 1_555 1_555
C1_4 N1_2 1_555 1_555
H1_3 C1_4 1_555 1_555
C3_3 C4_3 1_555 1_555
C4_3 H3_3 1_555 1_555
C5_3 C4_3 1_555 1_555
H4_3 C5_3 1_555 1_555
C6_3 C5_3 1_555 1_555
C7_3 C6_3 1_555 1_555
H5_3 C7_3 1_555 1_555
C8_3 C3_3 1_555 1_555
H6_3 C8_3 1_555 1_555
C9_3 C10_3 1_555 1_555
C10_3 H7_3 1_555 1_555
C11_3 C10_3 1_555 1_555
H8_3 C11_3 1_555 1_555
C12_3 C3_3 1_555 1_555
C13_3 C12_3 1_555 1_555
H9_3 C13_3 1_555 1_555
C14_3 C9_3 1_555 1_555
H10_3 C14_3 1_555 1_555
H12_3 C16_3 1_555 1_555
H13_3 C16_3 1_555 1_555
C17_3 N4_3 1_555 1_555
H14_3 C17_3 1_555 1_555
H15_3 C17_3 1_555 1_555
C18_3 N4_3 1_555 1_555
H16_3 C18_3 1_555 1_555
Cl2_2 Cu9_2 1_555 1_555
Cu7_2 N1_2 1_555 1_555
N22_2 Cu9_2 1_555 1_555
C6_3 C17_3 1_555 1_555
C7_3 C8_3 1_555 1_555
C9_3 C16_3 1_555 1_555
C11_3 C12_3 1_555 1_555
C13_3 C14_3 1_555 1_555
Cl2_2 Cu7_2 1_555 1_555
N7 N22_2 1_555 1_555
N10_3 C19_5 1_555 1_555
N22_2 C36_3 1_555 1_555
C19_5 N7 1_555 1_555
H17_3 C19_5 1_555 1_555
C21_3 C22_3 1_555 1_555
C22_3 H19_3 1_555 1_555
C23_3 C22_3 1_555 1_555
H20_3 C23_3 1_555 1_555
C24_3 C23_3 1_555 1_555
C25_3 C24_3 1_555 1_555
H21_3 C25_3 1_555 1_555
C26_3 C21_3 1_555 1_555
H22_3 C26_3 1_555 1_555
C27_3 C28_3 1_555 1_555
C28_3 H23_3 1_555 1_555
C29_3 C28_3 1_555 1_555
H24_3 C29_3 1_555 1_555
C30_3 C21_3 1_555 1_555
C31_3 C30_3 1_555 1_555
H25_3 C31_3 1_555 1_555
C32_3 C27_3 1_555 1_555
H26_3 C32_3 1_555 1_555
H28_3 C34_3 1_555 1_555
H29_3 C34_3 1_555 1_555
C35_3 N10_3 1_555 1_555
H30_3 C35_3 1_555 1_555
H31_3 C35_3 1_555 1_555
C36_3 N10_3 1_555 1_555
H32_3 C36_3 1_555 1_555
Cu8 N7 1_555 1_555
C24_3 C35_3 1_555 1_555
C25_3 C26_3 1_555 1_555
C27_3 C34_3 1_555 1_555
C29_3 C30_3 1_555 1_555
C31_3 C32_3 1_555 1_555
Cl2_2 Cu6_2 1_555 1_555
Cu6_2 N3_3 1_555 1_555
Cu3_3 Cl2_2 1_555 1_555
N2_3 Cu3_3 1_555 1_555
N3_3 N2_3 1_555 1_555
C2_3 N2_3 1_555 1_555
H2_3 C2_3 1_555 1_555
N6_3 C2_3 1_555 1_555
C15_3 N3_3 1_555 1_555
H11_3 C15_3 1_555 1_555
N8_3 Cu3_3 1_555 1_555
N9_3 Cu7_2 1_555 1_555
C20_3 N8_3 1_555 1_555
H18_3 C20_3 1_555 1_555
N12_3 C20_3 1_555 1_555
C33_3 N9_3 1_555 1_555
H27_3 C33_3 1_555 1_555
Cu8 Cl2_2 1_555 1_555
N14_3 Cu3_3 1_555 1_555
N15_3 Cu8 1_555 1_555
C38_3 N14_3 1_555 1_555
H34_3 C38_3 1_555 1_555
N18_3 C38_3 1_555 1_555
C51_3 N15_3 1_555 1_555
H43_3 C51_3 1_555 1_555
N6_3 C15_3 1_555 1_555
N8_3 N9_3 1_555 1_555
N12_3 C33_3 1_555 1_555
N14_3 N15_3 1_555 1_555
N18_3 C51_3 1_555 1_555
N4_4 C1_5 1_555 1_555
H1_4 C1_5 1_555 1_555
C7_4 C6_4 1_555 1_555
H5_4 C7_4 1_555 1_555
C17_4 N4_4 1_555 1_555
H14_4 C17_4 1_555 1_555
H15_4 C17_4 1_555 1_555
C18_4 N4_4 1_555 1_555
H16_4 C18_4 1_555 1_555
C6_4 C17_4 1_555 1_555
N7_2 N11_2 1_555 1_555
N11_2 C36_4 1_555 1_555
C19_6 N7_2 1_555 1_555
H17_4 C19_6 1_555 1_555
Cu8_2 N7_2 1_555 1_555
Cu10 N11_2 1_555 1_555
Cl1_2 Cu1_2 1_555 1_555
Cu1_2 N3_4 1_555 1_555
Cu3_4 Cl1_2 1_555 1_555
N2_4 Cu3_4 1_555 1_555
N3_4 N2_4 1_555 1_555
C2_4 N2_4 1_555 1_555
H2_4 C2_4 1_555 1_555
N6_4 C2_4 1_555 1_555
C15_4 N3_4 1_555 1_555
H11_4 C15_4 1_555 1_555
Cu4_2 Cl1_2 1_555 1_555
N8_4 Cu3_4 1_555 1_555
N9_4 Cu4_2 1_555 1_555
C20_4 N8_4 1_555 1_555
H18_4 C20_4 1_555 1_555
N12_4 C20_4 1_555 1_555
C21_4 C22_4 1_555 1_555
C22_4 H19_4 1_555 1_555
C23_4 C22_4 1_555 1_555
H20_4 C23_4 1_555 1_555
C24_4 C23_4 1_555 1_555
C25_4 C24_4 1_555 1_555
H21_4 C25_4 1_555 1_555
C26_4 C21_4 1_555 1_555
H22_4 C26_4 1_555 1_555
C27_4 C28_4 1_555 1_555
C28_4 H23_4 1_555 1_555
C29_4 C28_4 1_555 1_555
H24_4 C29_4 1_555 1_555
C30_4 C21_4 1_555 1_555
C31_4 C30_4 1_555 1_555
H25_4 C31_4 1_555 1_555
C32_4 C27_4 1_555 1_555
H26_4 C32_4 1_555 1_555
C33_4 N9_4 1_555 1_555
H27_4 C33_4 1_555 1_555
C34_4 N12_4 1_555 1_555
H28_4 C34_4 1_555 1_555
H29_4 C34_4 1_555 1_555
C35_4 N10_4 1_555 1_555
H30_4 C35_4 1_555 1_555
H31_4 C35_4 1_555 1_555
Cu8_2 Cl1_2 1_555 1_555
N14_4 Cu3_4 1_555 1_555
N15_4 Cu8_2 1_555 1_555
C38_4 N14_4 1_555 1_555
H34_4 C38_4 1_555 1_555
N18_4 C38_4 1_555 1_555
C39_4 C40_4 1_555 1_555
C40_4 H35_4 1_555 1_555
C41_4 C40_4 1_555 1_555
H36_4 C41_4 1_555 1_555
C44_4 C39_4 1_555 1_555
H38_4 C44_4 1_555 1_555
C45_4 C46_4 1_555 1_555
C46_4 H39_4 1_555 1_555
C47_4 C46_4 1_555 1_555
H40_4 C47_4 1_555 1_555
C48_4 C39_4 1_555 1_555
C49_4 C48_4 1_555 1_555
H41_4 C49_4 1_555 1_555
C50_4 C45_4 1_555 1_555
H42_4 C50_4 1_555 1_555
C51_4 N15_4 1_555 1_555
H43_4 C51_4 1_555 1_555
C52_4 N18_4 1_555 1_555
H44_4 C52_4 1_555 1_555
H45_4 C52_4 1_555 1_555
Cu10 Cl1_2 1_555 1_555
N19_2 Cu4_2 1_555 1_555
N21_2 Cu1_2 1_555 1_555
N6_4 C15_4 1_555 1_555
N8_4 N9_4 1_555 1_555
N12_4 C33_4 1_555 1_555
C24_4 C35_4 1_555 1_555
C25_4 C26_4 1_555 1_555
C27_4 C34_4 1_555 1_555
C29_4 C30_4 1_555 1_555
C31_4 C32_4 1_555 1_555
N14_4 N15_4 1_555 1_555
N18_4 C51_4 1_555 1_555
C45_4 C52_4 1_555 1_555
C47_4 C48_4 1_555 1_555
C49_4 C50_4 1_555 1_555
Cu10 N5_4 1_555 1_555
N19_2 N5_4 1_555 1_555
C1_6 N19_2 1_555 1_555
C3_4 C4_4 1_555 1_555
C4_4 H3_4 1_555 1_555
C5_4 C4_4 1_555 1_555
H4_4 C5_4 1_555 1_555
C8_4 C3_4 1_555 1_555
H6_4 C8_4 1_555 1_555
C9_4 C10_4 1_555 1_555
C10_4 H7_4 1_555 1_555
C11_4 C10_4 1_555 1_555
H8_4 C11_4 1_555 1_555
C12_4 C3_4 1_555 1_555
C13_4 C12_4 1_555 1_555
H9_4 C13_4 1_555 1_555
C14_4 C9_4 1_555 1_555
H10_4 C14_4 1_555 1_555
H12_4 C16_4 1_555 1_555
H13_4 C16_4 1_555 1_555
N23_2 Cu10 1_555 1_555
C9_4 C16_4 1_555 1_555
C11_4 C12_4 1_555 1_555
C13_4 C14_4 1_555 1_555
N21_2 N23_2 1_555 1_555
C37_5 N21_2 1_555 1_555
C43_4 C42_4 1_555 1_555
H37_4 C43_4 1_555 1_555
C53_4 N16_4 1_555 1_555
H46_4 C53_4 1_555 1_555
H47_4 C53_4 1_555 1_555
C42_4 C53_4 1_555 1_555
H33_4 C37_6 1_555 1_555

#END
