
###############################################################################
#
# This file contains modified crystal structure data generated from the
# MOF subset of the Cambridge Structural Database (CSD) v543 
# hosted by the Cambridge Crystallographic Data Centre (CCDC).
#
# This work is licensed under the Creative Commons
# Attribution-NonCommercial-ShareAlike 4.0 International License.
# To view a copy of this license, visit
# http://creativecommons.org/licenses/by-nc-sa/4.0/
# or send a letter to
# Creative Commons, PO Box 1866, Mountain View, CA 94042, USA.
#
# CIF created using the CSD Python API on 29 September 2022
# The structure has been converted into the P1 space group
# The structure has a 3D framework
# The original CSD entry ICEGED is in the triclinic crystal system
# The framework has been calculated to contain at least 10.0% void space
# The void calculation uses a probe of radius 1.32A, grid spacing 0.4
#
###############################################################################

data_ICEGED
_chemical_formula_moiety         '(C36 H44 Cd3 N28 O6)n'
_symmetry_cell_setting           triclinic
_symmetry_space_group_name_H-M   'P 1'
_symmetry_Int_Tables_number      1
_space_group_name_Hall           'P 1'
loop_
_symmetry_equiv_pos_site_id
_symmetry_equiv_pos_as_xyz
1 x,y,z
_cell_length_a                   11.8400(6)
_cell_length_b                   12.3247(6)
_cell_length_c                   13.7362(6)
_cell_angle_alpha                92.6150(10)
_cell_angle_beta                 112.6750(10)
_cell_angle_gamma                109.0400(10)
_cell_volume                     1714.25
loop_
_atom_site_label
_atom_site_type_symbol
_atom_site_fract_x
_atom_site_fract_y
_atom_site_fract_z
N13 N 0.0577(2) 0.0988(2) 0.7741(2)
C14 C 0.0303(4) 0.2055(3) 0.7787(3)
H9 H 0.1014 0.2707 0.7742
H10 H 0.0247 0.2230 0.8466
C15 C 0.1778(4) 0.0978(4) 0.8566(3)
H11 H 0.1839 0.0214 0.8443
H12 H 0.1774 0.1122 0.9272
H13 H 0.2536 0.1592 0.8543
C23 C 0.0823(3) 0.4390(2) 0.0418(2)
C24 C 0.0197(3) 0.4695(2) 0.0998(2)
C25 C 0.0407(2) 0.4413(2) 0.2066(2)
N19 N 0.0669(2) 0.34794(19) 0.23966(17)
N20 N 0.0729(2) 0.35663(19) 0.33897(17)
N21 N 0.0521(2) 0.45070(18) 0.36279(16)
N22 N 0.0313(2) 0.50614(19) 0.28098(17)
H26 H 0.1378 0.3966 0.0699
Cd6 Cd 0.115087(16) 0.233316(14) 0.460836(13)
Cd7 Cd 0.0000 0.5000 0.5000
C7 C 0.0635(3) 0.4705(2) 0.9432(2)
H3 H 0.1078 0.4511 0.9044
N29 N 0.1839(2) 0.46988(18) 0.63012(16)
N31 N 0.11887(19) 0.70063(17) 0.51675(17)
N32 N 0.08357(19) 0.79039(17) 0.52711(17)
C19 C 0.4403(3) 0.5775(2) 0.9606(2)
C20 C 0.4133(2) 0.4784(2) 0.89155(19)
C21 C 0.3223(2) 0.4556(2) 0.77697(19)
N15 N 0.2541(2) 0.52277(19) 0.73326(16)
N17 N 0.20958(19) 0.37639(18) 0.61302(16)
N18 N 0.2971(2) 0.36488(19) 0.70498(17)
C22 C 0.4733(3) 0.3998(2) 0.9313(2)
H23 H 0.4553 0.3310 0.8847
H24 H 0.3993 0.6312 0.9340
O4 O 0.0081(2) 0.08351(18) 0.31596(17)
O5 O 0.31327(18) 0.27769(19) 0.44529(16)
C34 C 0.3130(3) 0.2690(3) 0.3553(2)
H36 H 0.2349 0.2163 0.2974
N28 N 0.4132(2) 0.3276(2) 0.3329(2)
C35 C 0.4021(4) 0.3140(4) 0.2232(3)
H37 H 0.3149 0.2563 0.1750
H38 H 0.4134 0.3894 0.2000
H39 H 0.4705 0.2872 0.2207
C36 C 0.5367(3) 0.4103(3) 0.4158(3)
H40 H 0.5321 0.4117 0.4855
H41 H 0.6092 0.3864 0.4192
H42 H 0.5523 0.4886 0.3984
O6 O 0.1711(2) 0.11276(18) 0.57710(17)
H43 H 0.169(3) 0.049(3) 0.559(3)
H44 H 0.236(4) 0.144(3) 0.630(3)
C11 C 0.5947(3) 0.9558(2) 0.5037(2)
H5 H 0.6595 0.9250 0.5064
C27 C 0.4816(3) 0.8861(2) 0.5113(2)
C28 C 0.3861(2) 0.9294(2) 0.5081(2)
C29 C 0.2661(2) 0.8528(2) 0.5155(2)
N23 N 0.2337(2) 0.73726(18) 0.50938(18)
N26 N 0.1751(2) 0.88791(18) 0.52608(17)
H28 H 0.4691 0.8073 0.5189
C13 C 0.9772(3) 0.0082(3) 0.6948(2)
H7 H 0.9012 0.0155 0.6417
H8 H 0.9464 0.1946 0.7183
C26 C 0.9365(3) 0.5295(2) 0.0568(2)
H25 H 0.8922 0.5489 0.0956
Cd7_2 Cd 1.0000 0.5000 0.5000
Cd2 Cd 0.884913(16) 0.766684(14) 0.539164(13)
N1 N 0.7459(2) 0.47723(19) 0.26674(16)
N2 N 0.8161(2) 0.53012(18) 0.36988(16)
N3 N 0.79042(19) 0.62361(18) 0.38698(16)
N4 N 0.7029(2) 0.63512(19) 0.29502(17)
C1 C 0.6777(2) 0.5444(2) 0.22303(19)
C2 C 0.5867(2) 0.5216(2) 0.10845(19)
C3 C 0.5267(3) 0.6002(2) 0.0687(2)
H1 H 0.5447 0.6690 0.1153
C4 C 0.5597(3) 0.4225(2) 0.0394(2)
H2 H 0.6007 0.3688 0.0660
N5 N 0.9331(2) 0.65206(19) 0.76034(17)
N6 N 0.9271(2) 0.64337(19) 0.66103(17)
N7 N 0.9479(2) 0.54930(18) 0.63721(16)
N8 N 0.9687(2) 0.49386(19) 0.71902(17)
C5 C 0.9593(2) 0.5587(2) 0.7934(2)
C6 C 0.9803(3) 0.5305(2) 0.9002(2)
C8 C 0.9177(3) 0.5610(2) 0.9582(2)
H4 H 0.8622 0.6034 0.9301
N9 N 0.7663(2) 0.26274(18) 0.49062(18)
N10 N 0.88113(19) 0.29937(17) 0.48325(17)
N11 N 0.91643(19) 0.20961(17) 0.47289(17)
N12 N 0.8249(2) 0.11209(18) 0.47392(17)
C9 C 0.7339(2) 0.1472(2) 0.4845(2)
C10 C 0.6139(2) 0.0706(2) 0.4919(2)
C12 C 0.5184(3) 0.1139(2) 0.4887(2)
H6 H 0.5309 0.1927 0.4811
O1 O 0.9919(2) 0.91649(18) 0.68404(17)
O2 O 0.68673(18) 0.72231(19) 0.55471(16)
C16 C 0.6870(3) 0.7310(3) 0.6447(2)
H14 H 0.7651 0.7837 0.7026
N14 N 0.5868(2) 0.6724(2) 0.6671(2)
C17 C 0.5979(4) 0.6860(4) 0.7768(3)
H15 H 0.6851 0.7437 0.8250
H16 H 0.5866 0.6106 0.8000
H17 H 0.5295 0.7128 0.7793
C18 C 0.4633(3) 0.5897(3) 0.5842(3)
H18 H 0.4679 0.5883 0.5145
H19 H 0.3908 0.6136 0.5808
H20 H 0.4477 0.5114 0.6016
O3 O 0.8289(2) 0.88724(18) 0.42290(17)
H21 H 0.831(3) 0.951(3) 0.441(3)
H22 H 0.764(4) 0.856(3) 0.370(3)
C30 C 0.4053(3) 0.0442(2) 0.4963(2)
H27 H 0.3405 0.0750 0.4936
C31 C 0.0228(3) 0.9918(3) 0.3052(2)
H29 H 0.0988 0.9845 0.3583
H30 H 0.0536 0.8054 0.2817
N27 N 0.9423(2) 0.9012(2) 0.2259(2)
C32 C 0.9697(4) 0.7945(3) 0.2213(3)
H31 H 0.8986 0.7293 0.2258
H32 H 0.9753 0.7770 0.1534
C33 C 0.8222(4) 0.9022(4) 0.1434(3)
H33 H 0.8161 0.9786 0.1557
H34 H 0.8226 0.8878 0.0728
H35 H 0.7464 0.8408 0.1457
loop_
_geom_bond_atom_site_label_1
_geom_bond_atom_site_label_2
_geom_bond_site_symmetry_1
_geom_bond_site_symmetry_2
C14 N13 1_555 1_555
H9 C14 1_555 1_555
H10 C14 1_555 1_555
C15 N13 1_555 1_555
H11 C15 1_555 1_555
H12 C15 1_555 1_555
H13 C15 1_555 1_555
C24 C23 1_555 1_555
C25 C24 1_555 1_555
N19 C25 1_555 1_555
N20 N19 1_555 1_555
N21 N20 1_555 1_555
N22 C25 1_555 1_555
H26 C23 1_555 1_555
Cd6 N20 1_555 1_555
Cd7 N21 1_555 1_555
N21 N22 1_555 1_555
H3 C7 1_555 1_555
N29 Cd7 1_555 1_555
N31 Cd7 1_555 1_555
N31 N32 1_555 1_555
C20 C19 1_555 1_555
C21 C20 1_555 1_555
N15 C21 1_555 1_555
N29 N15 1_555 1_555
N17 N29 1_555 1_555
N18 C21 1_555 1_555
H23 C22 1_555 1_555
H24 C19 1_555 1_555
Cd6 N17 1_555 1_555
O4 Cd6 1_555 1_555
O5 Cd6 1_555 1_555
C34 O5 1_555 1_555
H36 C34 1_555 1_555
N28 C34 1_555 1_555
C35 N28 1_555 1_555
H37 C35 1_555 1_555
H38 C35 1_555 1_555
H39 C35 1_555 1_555
C36 N28 1_555 1_555
H40 C36 1_555 1_555
H41 C36 1_555 1_555
H42 C36 1_555 1_555
O6 Cd6 1_555 1_555
H43 O6 1_555 1_555
H44 O6 1_555 1_555
C20 C22 1_555 1_555
N17 N18 1_555 1_555
H5 C11 1_555 1_555
C27 C11 1_555 1_555
C28 C27 1_555 1_555
C29 C28 1_555 1_555
N23 C29 1_555 1_555
N31 N23 1_555 1_555
N26 C29 1_555 1_555
H28 C27 1_555 1_555
N32 N26 1_555 1_555
H7 C13 1_555 1_555
H25 C26 1_555 1_555
Cd7_2 N2 1_555 1_555
Cd2 N3 1_555 1_555
N1 N2 1_555 1_555
N2 N3 1_555 1_555
N3 N4 1_555 1_555
N4 C1 1_555 1_555
C1 N1 1_555 1_555
C2 C1 1_555 1_555
C3 C2 1_555 1_555
H1 C3 1_555 1_555
C4 C2 1_555 1_555
H2 C4 1_555 1_555
N5 N6 1_555 1_555
N6 Cd2 1_555 1_555
N7 Cd7_2 1_555 1_555
N8 N7 1_555 1_555
C5 N5 1_555 1_555
C6 C5 1_555 1_555
C8 C6 1_555 1_555
H4 C8 1_555 1_555
N9 N10 1_555 1_555
N10 Cd7_2 1_555 1_555
N11 N10 1_555 1_555
N12 N11 1_555 1_555
C9 N9 1_555 1_555
C10 C9 1_555 1_555
C12 C10 1_555 1_555
H6 C12 1_555 1_555
O1 Cd2 1_555 1_555
O2 Cd2 1_555 1_555
C16 O2 1_555 1_555
H14 C16 1_555 1_555
N14 C16 1_555 1_555
C17 N14 1_555 1_555
H15 C17 1_555 1_555
H16 C17 1_555 1_555
H17 C17 1_555 1_555
C18 N14 1_555 1_555
H18 C18 1_555 1_555
H19 C18 1_555 1_555
H20 C18 1_555 1_555
O3 Cd2 1_555 1_555
H21 O3 1_555 1_555
H22 O3 1_555 1_555
C30 C12 1_555 1_555
H27 C30 1_555 1_555
N6 N7 1_555 1_555
N8 C5 1_555 1_555
N12 C9 1_555 1_555
H29 C31 1_555 1_555
C32 N27 1_555 1_555
H31 C32 1_555 1_555
H32 C32 1_555 1_555
C33 N27 1_555 1_555
H33 C33 1_555 1_555
H34 C33 1_555 1_555
H35 C33 1_555 1_555

#END
