
###############################################################################
#
# This file contains modified crystal structure data generated from the
# MOF subset of the Cambridge Structural Database (CSD) v543 
# hosted by the Cambridge Crystallographic Data Centre (CCDC).
#
# This work is licensed under the Creative Commons
# Attribution-NonCommercial-ShareAlike 4.0 International License.
# To view a copy of this license, visit
# http://creativecommons.org/licenses/by-nc-sa/4.0/
# or send a letter to
# Creative Commons, PO Box 1866, Mountain View, CA 94042, USA.
#
# CIF created using the CSD Python API on 29 September 2022
# The structure has been converted into the P1 space group
# The structure has a 3D framework
# The original CSD entry ICEPEM is in the triclinic crystal system
# The framework has been calculated to contain at least 10.0% void space
# The void calculation uses a probe of radius 1.32A, grid spacing 0.4
# H atom positions have been added when not included in the experimental data
# Generated hydrogen atom positions removed from atoms on special positions
#
###############################################################################

data_ICEPEM
_chemical_formula_moiety         '(C16 H30 N2 Ni4 O18)n'
_symmetry_cell_setting           triclinic
_symmetry_space_group_name_H-M   'P 1'
_symmetry_Int_Tables_number      1
_space_group_name_Hall           'P 1'
loop_
_symmetry_equiv_pos_site_id
_symmetry_equiv_pos_as_xyz
1 x,y,z
_cell_length_a                   7.495(8)
_cell_length_b                   9.668(11)
_cell_length_c                   11.102(12)
_cell_angle_alpha                113.484(13)
_cell_angle_beta                 109.727(10)
_cell_angle_gamma                90.000(13)
_cell_volume                     686.053
loop_
_atom_site_label
_atom_site_type_symbol
_atom_site_fract_x
_atom_site_fract_y
_atom_site_fract_z
Ni2 Ni 0.12880(9) 0.35927(7) 0.28412(7)
C1 C 0.0507(8) 0.6611(6) 0.3405(6)
C3 C 0.1593(9) 0.6987(7) 0.2611(6)
H1 H 0.2654 0.7795 0.3299
H2 H 0.0741 0.7400 0.2007
C4 C 0.2405(8) 0.5711(7) 0.1696(6)
C5 C 0.0029(8) 0.8087(6) 0.4374(6)
H3 H 0.1214 0.8769 0.5045
N1 N 0.0543(7) 0.1419(5) 0.1179(5)
O1 O 0.1697(5) 0.5894(4) 0.4223(4)
O4 O 0.2180(6) 0.4366(5) 0.1620(5)
O5 O 0.3246(6) 0.6091(5) 0.1059(4)
O9 O 0.4042(6) 0.3370(6) 0.3819(5)
H7 H 0.08(2) 0.607(16) 0.496(15)
C10 C 0.1340(9) 0.0207(7) 0.1222(6)
H9 H 0.2288 0.0302 0.2060
O21 O 0.0404(6) 0.3004(5) 0.4160(4)
Ni4 Ni 0.5000 0.5000 0.0000
Ni4_2 Ni 0.5000 0.5000 1.0000
C9 C 0.0806(9) 0.8791(7) 0.0051(6)
H8 H 0.1408 0.7974 0.0133
C2 C 0.8639(8) 0.5489(6) 0.2355(5)
H4 H 0.9299 0.8590 0.3808
C6 C 0.8881(8) 0.7809(6) 0.5183(6)
O2 O 0.8616(5) 0.4102(4) 0.2109(4)
O3 O 0.7306(6) 0.6061(5) 0.1809(4)
O6 O 0.9596(6) 0.6996(5) 0.5840(4)
O7 O 0.7413(7) 0.8381(6) 0.5203(5)
O8 O 0.4619(7) 0.3035(5) 0.0294(5)
Ni5 Ni 0.87120(9) 0.64073(7) 0.71588(7)
C7 C 0.9194(9) 0.1209(7) 0.9949(6)
H5 H 0.8592 0.2026 0.9867
C12 C 0.1361(8) 0.4511(6) 0.7645(5)
H13 H 0.0701 0.1410 0.6192
C16 C 0.1119(8) 0.2191(6) 0.4817(6)
O11 O 0.1384(5) 0.5898(4) 0.7891(4)
O12 O 0.2694(6) 0.3939(5) 0.8191(4)
O16 O 0.2587(7) 0.1619(6) 0.4797(5)
O17 O 0.5381(7) 0.6965(5) 0.9706(5)
O20 O 0.6754(6) 0.3909(5) 0.8941(4)
H18 H 0.350215 0.231306 0.948679
C8 C 0.8660(9) 0.9793(7) 0.8778(6)
H6 H 0.7712 0.9698 0.7940
N2 N 0.9457(7) 0.8581(5) 0.8821(5)
C11 C 0.9493(8) 0.3389(6) 0.6595(6)
C13 C 0.8407(9) 0.3013(7) 0.7389(6)
H10 H 0.7346 0.2205 0.6701
H11 H 0.9259 0.2600 0.7993
C14 C 0.7595(8) 0.4289(7) 0.8304(6)
C15 C 0.9971(8) 0.1913(6) 0.5626(6)
H12 H 0.8786 0.1231 0.4955
O10 O 0.8303(5) 0.4106(4) 0.5777(4)
O13 O 0.7820(6) 0.5634(5) 0.8380(5)
H14 H 0.92(2) 0.393(16) 0.504(15)
O18 O 0.5958(6) 0.6630(6) 0.6181(5)
H18_2 H 0.649785 0.768694 0.0513213
loop_
_geom_bond_atom_site_label_1
_geom_bond_atom_site_label_2
_geom_bond_site_symmetry_1
_geom_bond_site_symmetry_2
Ni2 N1 1_555 1_555
C3 C1 1_555 1_555
H1 C3 1_555 1_555
H2 C3 1_555 1_555
C4 C3 1_555 1_555
C5 C1 1_555 1_555
H3 C5 1_555 1_555
O1 Ni2 1_555 1_555
O4 Ni2 1_555 1_555
O5 C4 1_555 1_555
O9 Ni2 1_555 1_555
H7 O1 1_555 1_555
C10 N1 1_555 1_555
H9 C10 1_555 1_555
O21 Ni2 1_555 1_555
Ni4 O5 1_555 1_555
C1 O1 1_555 1_555
C4 O4 1_555 1_555
H8 C9 1_555 1_555
Ni4 O3 1_555 1_555
C2 O2 1_555 1_555
O3 C2 1_555 1_555
O6 C6 1_555 1_555
O7 C6 1_555 1_555
O8 Ni4 1_555 1_555
Ni5 O6 1_555 1_555
C7 H5 1_555 1_555
C12 O11 1_555 1_555
O12 Ni4_2 1_555 1_555
O21 C16 1_555 1_555
O16 C16 1_555 1_555
O17 Ni4_2 1_555 1_555
O20 Ni4_2 1_555 1_555
C12 O12 1_555 1_555
H6 C8 1_555 1_555
N2 C8 1_555 1_555
Ni5 N2 1_555 1_555
C13 C11 1_555 1_555
H10 C13 1_555 1_555
H11 C13 1_555 1_555
C14 C13 1_555 1_555
C15 C11 1_555 1_555
H12 C15 1_555 1_555
O10 C11 1_555 1_555
O13 C14 1_555 1_555
O20 C14 1_555 1_555
H14 O10 1_555 1_555
Ni5 O10 1_555 1_555
O18 Ni5 1_555 1_555
O13 Ni5 1_555 1_555

#END
