
###############################################################################
#
# This file contains modified crystal structure data generated from the
# MOF subset of the Cambridge Structural Database (CSD) v543 
# hosted by the Cambridge Crystallographic Data Centre (CCDC).
#
# This work is licensed under the Creative Commons
# Attribution-NonCommercial-ShareAlike 4.0 International License.
# To view a copy of this license, visit
# http://creativecommons.org/licenses/by-nc-sa/4.0/
# or send a letter to
# Creative Commons, PO Box 1866, Mountain View, CA 94042, USA.
#
# CIF created using the CSD Python API on 29 September 2022
# The structure has been converted into the P1 space group
# The structure has a 3D framework
# The original CSD entry ICICAB is in the tetragonal crystal system
# The framework has been calculated to contain at least 10.0% void space
# The void calculation uses a probe of radius 1.32A, grid spacing 0.4
#
###############################################################################

data_ICICAB
_chemical_formula_moiety         '(C432 H272 F64 Fe13 N84)n'
_symmetry_cell_setting           triclinic
_symmetry_space_group_name_H-M   'P 1'
_symmetry_Int_Tables_number      1
_space_group_name_Hall           'P 1'
loop_
_symmetry_equiv_pos_site_id
_symmetry_equiv_pos_as_xyz
1 x,y,z
_cell_length_a                   26.541(4)
_cell_length_b                   26.541(4)
_cell_length_c                   34.867(5)
_cell_angle_alpha                90
_cell_angle_beta                 90
_cell_angle_gamma                90
_cell_volume                     24561.2
loop_
_atom_site_label
_atom_site_type_symbol
_atom_site_fract_x
_atom_site_fract_y
_atom_site_fract_z
Fe1 Fe 0.0000 0.5000 0.0000
C2 C 0.0183(2) 0.34200(18) 0.01402(15)
H1 H 0.0090 0.3086 0.0099
C3 C 0.05655(19) 0.3581(2) 0.03555(14)
H2 H 0.0794 0.3379 0.0487
C4 C 0.05615(18) 0.41190(19) 0.03473(13)
C5 C 0.08899(17) 0.4414(2) 0.05489(13)
C6 C 0.08897(18) 0.4939(2) 0.05287(14)
C7 C 0.1254(2) 0.5249(2) 0.07259(16)
H3 H 0.1511 0.5135 0.0885
C8 C 0.11555(19) 0.5728(2) 0.06398(16)
H4 H 0.1327 0.6012 0.0724
C9 C 0.07183(18) 0.5708(2) 0.03827(14)
C17 C 0.1260(2) 0.41631(17) 0.08131(16)
C18 C 0.1741(2) 0.4087(2) 0.07170(17)
H5 H 0.1861 0.4204 0.0482
C19 C 0.2067(2) 0.3834(3) 0.09659(18)
H6 H 0.2398 0.3779 0.0888
C20 C 0.1927(2) 0.36726(19) 0.13033(17)
C21 C 0.1449(3) 0.3757(2) 0.14090(17)
H7 H 0.1338 0.3655 0.1650
C22 C 0.1115(2) 0.3997(2) 0.11584(18)
H8 H 0.0783 0.4044 0.1234
C23 C 0.21232(17) 0.31344(16) 0.18672(13)
H9 H 0.1792 0.3086 0.1947
C24 C 0.2743(2) 0.3379(2) 0.15343(19)
H10 H 0.2946 0.3528 0.1349
C25 C 0.2906(2) 0.3084(3) 0.18326(18)
H11 H 0.3239 0.2998 0.1883
N1 N 0.01753(12) 0.42820(13) 0.01160(9)
N2 N 0.05723(12) 0.52324(14) 0.03201(9)
N3 N 0.24998(16) 0.29400(14) 0.20423(11)
N4 N 0.22438(15) 0.34155(16) 0.15575(13)
F5 F 0.0323(3) 0.6672(2) 0.09425(17)
F6 F 0.0739(3) 0.7557(3) 0.1109(2)
C28 C 0.00589(17) 0.61464(18) 0.00146(13)
C37 C 0.04764(18) 0.61458(19) 0.02444(13)
C38 C 0.07100(17) 0.66670(16) 0.03323(18)
C39 C 0.0596(2) 0.6894(3) 0.06809(17)
C40 C 0.0800(3) 0.7362(3) 0.07710(19)
C41 C 0.1118(2) 0.76021(17) 0.0513(3)
C42 C 0.12324(19) 0.7375(2) 0.0164(2)
C43 C 0.1028(2) 0.6907(2) 0.00739(16)
C53 C 0.1124(4) 0.8466(4) 0.0769(4)
H29 H 0.0857 0.8354 0.0934
H30 H 0.1377 0.8634 0.0920
H31 H 0.0992 0.8696 0.0582
C54 C 0.1775(5) 0.8235(5) 0.0412(4)
H32 H 0.1854 0.8564 0.0511
H33 H 0.2048 0.8009 0.0466
H34 H 0.1725 0.8255 0.0140
N10 N 0.1336(4) 0.8058(3) 0.0586(3)
Fe2 Fe 0.2500 0.2500 0.2500
Fe1_2 Fe 0.0000 0.5000 1.0000
F7 F 0.1503(3) 0.7579(2) 0.9888(2)
F8 F 0.1124(2) 0.66954(17) 0.97524(14)
N11 N 0.04400(14) 0.50002(16) 0.95423(11)
Fe1_3 Fe 1.0000 0.5000 0.0000
F3 F 0.8497(3) 0.2421(2) 0.0112(2)
F4 F 0.8876(2) 0.33046(17) 0.02476(14)
N12 N 0.95600(14) 0.49998(16) 0.04577(11)
Fe1_4 Fe 1.0000 0.5000 1.0000
F1 F 0.9677(3) 0.3328(2) 0.90575(17)
F2 F 0.9261(3) 0.2443(3) 0.8891(2)
C1 C 0.99411(17) 0.38536(18) 0.99854(13)
C10 C 0.95236(18) 0.38542(19) 0.97556(13)
C11 C 0.92900(17) 0.33330(16) 0.96677(18)
C12 C 0.9404(2) 0.3106(3) 0.93191(17)
C13 C 0.9200(3) 0.2638(3) 0.92290(19)
C14 C 0.8882(2) 0.23979(17) 0.9487(3)
C15 C 0.87676(19) 0.2625(2) 0.9836(2)
C16 C 0.8972(2) 0.3093(2) 0.99261(16)
C26 C 0.8876(4) 0.1534(4) 0.9231(4)
H12 H 0.9143 0.1646 0.9066
H13 H 0.8623 0.1366 0.9080
H14 H 0.9008 0.1304 0.9418
C27 C 0.8225(5) 0.1765(5) 0.9588(4)
H15 H 0.8146 0.1436 0.9489
H16 H 0.7952 0.1991 0.9534
H17 H 0.8275 0.1745 0.9860
N5 N 0.8664(4) 0.1942(3) 0.9414(3)
C29 C 0.9817(2) 0.65800(18) 0.98598(15)
H18 H 0.9910 0.6914 0.9901
C30 C 0.94345(19) 0.6419(2) 0.96445(14)
H19 H 0.9206 0.6621 0.9513
C31 C 0.94385(18) 0.58810(19) 0.96527(13)
C32 C 0.91101(17) 0.5586(2) 0.94511(13)
C33 C 0.91103(18) 0.5061(2) 0.94713(14)
C34 C 0.8746(2) 0.4751(2) 0.92741(16)
H20 H 0.8489 0.4865 0.9115
C35 C 0.88445(19) 0.4272(2) 0.93602(16)
H21 H 0.8673 0.3988 0.9276
C36 C 0.92817(18) 0.4292(2) 0.96173(14)
C44 C 0.8740(2) 0.58369(17) 0.91869(16)
C45 C 0.8259(2) 0.5913(2) 0.92830(17)
H22 H 0.8139 0.5796 0.9518
C46 C 0.7933(2) 0.6166(3) 0.90341(18)
H23 H 0.7602 0.6221 0.9112
C47 C 0.8073(2) 0.63274(19) 0.86967(17)
C48 C 0.8551(3) 0.6243(2) 0.85910(17)
H24 H 0.8662 0.6345 0.8350
C49 C 0.8885(2) 0.6003(2) 0.88416(18)
H25 H 0.9217 0.5956 0.8766
C50 C 0.78768(17) 0.68656(16) 0.81328(13)
H26 H 0.8208 0.6914 0.8053
C51 C 0.7257(2) 0.6621(2) 0.84657(19)
H27 H 0.7054 0.6472 0.8651
C52 C 0.7094(2) 0.6916(3) 0.81674(18)
H28 H 0.6761 0.7002 0.8117
N6 N 0.98247(12) 0.57180(13) 0.98840(9)
N7 N 0.94277(12) 0.47676(14) 0.96799(9)
N8 N 0.75002(16) 0.70600(14) 0.79577(11)
N9 N 0.77562(15) 0.65845(16) 0.84425(13)
Fe3 Fe 0.7500 0.7500 0.7500
Fe1_5 Fe 0.5000 0.5000 0.5000
F1_2 F 0.5323(3) 0.6672(2) 0.40575(17)
F2_2 F 0.5739(3) 0.7557(3) 0.3891(2)
F3_2 F 0.6503(3) 0.7579(2) 0.5112(2)
F4_2 F 0.6124(2) 0.66954(17) 0.52476(14)
C1_2 C 0.50589(17) 0.61464(18) 0.49854(13)
C2_2 C 0.4817(2) 0.65800(18) 0.51402(15)
H1_2 H 0.4910 0.6914 0.5099
C3_2 C 0.44345(19) 0.6419(2) 0.53555(14)
H2_2 H 0.4206 0.6621 0.5487
C4_2 C 0.44385(18) 0.58810(19) 0.53473(13)
C5_2 C 0.41101(17) 0.5586(2) 0.55489(13)
C6_2 C 0.41103(18) 0.5061(2) 0.55287(14)
C7_2 C 0.3746(2) 0.4751(2) 0.57259(16)
H3_2 H 0.3489 0.4865 0.5885
C8_2 C 0.38445(19) 0.4272(2) 0.56398(16)
H4_2 H 0.3673 0.3988 0.5724
C9_2 C 0.42817(18) 0.4292(2) 0.53827(14)
C10_2 C 0.54764(18) 0.61458(19) 0.47556(13)
C11_2 C 0.57100(17) 0.66670(16) 0.46677(18)
C12_2 C 0.5596(2) 0.6894(3) 0.43191(17)
C13_2 C 0.5800(3) 0.7362(3) 0.42290(19)
C14_2 C 0.6118(2) 0.76021(17) 0.4487(3)
C15_2 C 0.62324(19) 0.7375(2) 0.4836(2)
C16_2 C 0.6028(2) 0.6907(2) 0.49261(16)
C17_2 C 0.3740(2) 0.58369(17) 0.58131(16)
C18_2 C 0.3259(2) 0.5913(2) 0.57170(17)
H5_2 H 0.3139 0.5796 0.5482
C19_2 C 0.2933(2) 0.6166(3) 0.59659(18)
H6_2 H 0.2602 0.6221 0.5888
C20_2 C 0.3073(2) 0.63274(19) 0.63033(17)
C21_2 C 0.3551(3) 0.6243(2) 0.64090(17)
H7_2 H 0.3662 0.6345 0.6650
C22_2 C 0.3885(2) 0.6003(2) 0.61584(18)
H8_2 H 0.4217 0.5956 0.6234
C23_2 C 0.28768(17) 0.68656(16) 0.68672(13)
H9_2 H 0.3208 0.6914 0.6947
C24_2 C 0.2257(2) 0.6621(2) 0.65343(19)
H10_2 H 0.2054 0.6472 0.6349
C25_2 C 0.2094(2) 0.6916(3) 0.68326(18)
H11_2 H 0.1761 0.7002 0.6883
C26_2 C 0.6124(4) 0.8466(4) 0.4231(4)
H12_2 H 0.5857 0.8354 0.4066
H13_2 H 0.6377 0.8634 0.4080
H14_2 H 0.5992 0.8696 0.4418
C27_2 C 0.6775(5) 0.8235(5) 0.4588(4)
H15_2 H 0.6854 0.8564 0.4489
H16_2 H 0.7048 0.8009 0.4534
H17_2 H 0.6725 0.8255 0.4860
N1_2 N 0.48247(12) 0.57180(13) 0.51160(9)
N2_2 N 0.44277(12) 0.47676(14) 0.53201(9)
N3_2 N 0.25002(16) 0.70600(14) 0.70423(11)
N4_2 N 0.27562(15) 0.65845(16) 0.65575(13)
N5_2 N 0.6336(4) 0.8058(3) 0.4414(3)
F5_2 F 0.4677(3) 0.3328(2) 0.59425(17)
F6_2 F 0.4261(3) 0.2443(3) 0.6109(2)
F7_2 F 0.3497(3) 0.2421(2) 0.4888(2)
F8_2 F 0.3876(2) 0.33046(17) 0.47524(14)
C28_2 C 0.49411(17) 0.38536(18) 0.50146(13)
C29_2 C 0.5183(2) 0.34200(18) 0.48598(15)
H18_2 H 0.5090 0.3086 0.4901
C30_2 C 0.55655(19) 0.3581(2) 0.46445(14)
H19_2 H 0.5794 0.3379 0.4513
C31_2 C 0.55615(18) 0.41190(19) 0.46527(13)
C32_2 C 0.58899(17) 0.4414(2) 0.44511(13)
C33_2 C 0.58897(18) 0.4939(2) 0.44713(14)
C34_2 C 0.6254(2) 0.5249(2) 0.42741(16)
H20_2 H 0.6511 0.5135 0.4115
C35_2 C 0.61555(19) 0.5728(2) 0.43602(16)
H21_2 H 0.6327 0.6012 0.4276
C36_2 C 0.57183(18) 0.5708(2) 0.46173(14)
C37_2 C 0.45236(18) 0.38542(19) 0.52444(13)
C38_2 C 0.42900(17) 0.33330(16) 0.53323(18)
C39_2 C 0.4404(2) 0.3106(3) 0.56809(17)
C40_2 C 0.4200(3) 0.2638(3) 0.57710(19)
C41_2 C 0.3882(2) 0.23979(17) 0.5513(3)
C42_2 C 0.37676(19) 0.2625(2) 0.5164(2)
C43_2 C 0.3972(2) 0.3093(2) 0.50739(16)
C44_2 C 0.6260(2) 0.41631(17) 0.41869(16)
C45_2 C 0.6741(2) 0.4087(2) 0.42830(17)
H22_2 H 0.6861 0.4204 0.4518
C46_2 C 0.7067(2) 0.3834(3) 0.40341(18)
H23_2 H 0.7398 0.3779 0.4112
C47_2 C 0.6927(2) 0.36726(19) 0.36967(17)
C48_2 C 0.6449(3) 0.3757(2) 0.35910(17)
H24_2 H 0.6338 0.3655 0.3350
C49_2 C 0.6115(2) 0.3997(2) 0.38416(18)
H25_2 H 0.5783 0.4044 0.3766
C50_2 C 0.71232(17) 0.31344(16) 0.31328(13)
H26_2 H 0.6792 0.3086 0.3053
C51_2 C 0.7743(2) 0.3379(2) 0.34657(19)
H27_2 H 0.7946 0.3528 0.3651
C52_2 C 0.7906(2) 0.3084(3) 0.31674(18)
H28_2 H 0.8239 0.2998 0.3117
C53_2 C 0.3876(4) 0.1534(4) 0.5769(4)
H29_2 H 0.4143 0.1646 0.5934
H30_2 H 0.3623 0.1366 0.5920
H31_2 H 0.4008 0.1304 0.5582
C54_2 C 0.3225(5) 0.1765(5) 0.5412(4)
H32_2 H 0.3146 0.1436 0.5511
H33_2 H 0.2952 0.1991 0.5466
H34_2 H 0.3275 0.1745 0.5140
N6_2 N 0.51753(12) 0.42820(13) 0.48840(9)
N7_2 N 0.55723(12) 0.52324(14) 0.46799(9)
N8_2 N 0.74998(16) 0.29400(14) 0.29577(11)
N9_2 N 0.72438(15) 0.34155(16) 0.34425(13)
N10_2 N 0.3664(4) 0.1942(3) 0.5586(3)
Fe2_2 Fe 0.2500 0.7500 0.7500
Fe3_2 Fe 0.7500 0.2500 0.2500
N11_2 N 0.45600(14) 0.49998(16) 0.45423(11)
N12_2 N 0.54400(14) 0.50002(16) 0.54577(11)
F1_3 F 0.4172(2) 0.2177(3) 0.15575(17)
F2_3 F 0.5057(3) 0.1761(3) 0.1391(2)
F3_3 F 0.5079(2) 0.0997(3) 0.2612(2)
F4_3 F 0.41954(17) 0.1376(2) 0.27476(14)
C1_3 C 0.36464(18) 0.24411(17) 0.24854(13)
C2_3 C 0.40800(18) 0.2683(2) 0.26402(15)
H1_3 H 0.4414 0.2590 0.2599
C3_3 C 0.3919(2) 0.30655(19) 0.28555(14)
H2_3 H 0.4121 0.3294 0.2987
C4_3 C 0.33810(19) 0.30615(18) 0.28473(13)
C5_3 C 0.3086(2) 0.33899(17) 0.30489(13)
C6_3 C 0.2561(2) 0.33897(18) 0.30287(14)
C7_3 C 0.2251(2) 0.3754(2) 0.32259(16)
H3_3 H 0.2365 0.4011 0.3385
C8_3 C 0.1772(2) 0.36555(19) 0.31398(16)
H4_3 H 0.1488 0.3827 0.3224
C9_3 C 0.1792(2) 0.32183(18) 0.28827(14)
C10_3 C 0.36458(19) 0.20236(18) 0.22556(13)
C11_3 C 0.41670(16) 0.17900(17) 0.21677(18)
C12_3 C 0.4394(3) 0.1904(2) 0.18191(17)
C13_3 C 0.4862(3) 0.1700(3) 0.17290(19)
C14_3 C 0.51021(17) 0.1382(2) 0.1987(3)
C15_3 C 0.4875(2) 0.12676(19) 0.2336(2)
C16_3 C 0.4407(2) 0.1472(2) 0.24261(16)
C17_3 C 0.33369(17) 0.3760(2) 0.33131(16)
C18_3 C 0.3413(2) 0.4241(2) 0.32170(17)
H5_3 H 0.3296 0.4361 0.2982
C19_3 C 0.3666(3) 0.4567(2) 0.34659(18)
H6_3 H 0.3721 0.4898 0.3388
C20_3 C 0.38274(19) 0.4427(2) 0.38033(17)
C21_3 C 0.3743(2) 0.3949(3) 0.39090(17)
H7_3 H 0.3845 0.3838 0.4150
C22_3 C 0.3503(2) 0.3615(2) 0.36584(18)
H8_3 H 0.3456 0.3283 0.3734
C23_3 C 0.43656(16) 0.46232(17) 0.43672(13)
H9_3 H 0.4414 0.4292 0.4447
C24_3 C 0.4121(2) 0.5243(2) 0.40343(19)
H10_3 H 0.3972 0.5446 0.3849
C25_3 C 0.4416(3) 0.5406(2) 0.43326(18)
H11_3 H 0.4502 0.5739 0.4383
C26_3 C 0.5966(4) 0.1376(4) 0.1731(4)
H12_3 H 0.5854 0.1643 0.1566
H13_3 H 0.6134 0.1123 0.1580
H14_3 H 0.6196 0.1508 0.1918
C27_3 C 0.5735(5) 0.0725(5) 0.2088(4)
H15_3 H 0.6064 0.0646 0.1989
H16_3 H 0.5509 0.0452 0.2034
H17_3 H 0.5755 0.0775 0.2360
N1_3 N 0.32180(13) 0.26753(12) 0.26160(9)
N2_3 N 0.22676(14) 0.30723(12) 0.28201(9)
N4_3 N 0.40845(16) 0.47438(15) 0.40575(13)
N5_3 N 0.5558(3) 0.1164(4) 0.1914(3)
F5_3 F 0.0828(2) 0.2823(3) 0.34425(17)
F8_3 F 0.08046(17) 0.3624(2) 0.22524(14)
C28_3 C 0.13536(18) 0.25589(17) 0.25146(13)
C29_3 C 0.09200(18) 0.2317(2) 0.23598(15)
H18_3 H 0.0586 0.2410 0.2401
C30_3 C 0.1081(2) 0.19345(19) 0.21445(14)
H19_3 H 0.0879 0.1706 0.2013
C31_3 C 0.16190(19) 0.19385(18) 0.21527(13)
C32_3 C 0.1914(2) 0.16101(17) 0.19511(13)
C33_3 C 0.2439(2) 0.16103(18) 0.19713(14)
C34_3 C 0.2749(2) 0.1246(2) 0.17741(16)
H20_3 H 0.2635 0.0989 0.1615
C35_3 C 0.3228(2) 0.13445(19) 0.18602(16)
H21_3 H 0.3512 0.1173 0.1776
C36_3 C 0.3208(2) 0.17817(18) 0.21173(14)
C37_3 C 0.13542(19) 0.29764(18) 0.27444(13)
C38_3 C 0.08330(16) 0.32100(17) 0.28323(18)
C39_3 C 0.0606(3) 0.3096(2) 0.31809(17)
C40_3 C 0.0138(3) 0.3300(3) 0.32710(19)
C42_3 C 0.0125(2) 0.37324(19) 0.2664(2)
C43_3 C 0.0593(2) 0.3528(2) 0.25739(16)
C44_3 C 0.16631(17) 0.1240(2) 0.16869(16)
C45_3 C 0.1587(2) 0.0759(2) 0.17830(17)
H22_3 H 0.1704 0.0639 0.2018
C46_3 C 0.1334(3) 0.0433(2) 0.15341(18)
H23_3 H 0.1279 0.0102 0.1612
C47_3 C 0.11726(19) 0.0573(2) 0.11967(17)
C48_3 C 0.1257(2) 0.1051(3) 0.10910(17)
H24_3 H 0.1155 0.1162 0.0850
C49_3 C 0.1497(2) 0.1385(2) 0.13416(18)
H25_3 H 0.1544 0.1717 0.1266
C50_3 C 0.06344(16) 0.03768(17) 0.06328(13)
H26_3 H 0.0586 0.0708 0.0553
N6_3 N 0.17820(13) 0.23247(12) 0.23840(9)
N7_3 N 0.27324(14) 0.19277(12) 0.21799(9)
N8_3 N 0.04400(14) 0.00002(16) 0.04577(11)
N9_3 N 0.09155(16) 0.02562(15) 0.09425(13)
Fe3_3 Fe 0.0000 -0.0000 0.0000
N12_3 N 0.25002(16) 0.20600(14) 0.29577(11)
Fe3_4 Fe 0.0000 1.0000 1.0000
F6_3 F 0.9943(3) 0.3239(3) 0.3609(2)
F7_3 F 0.9921(2) 0.4003(3) 0.2388(2)
C41_3 C 0.98979(17) 0.3618(2) 0.3013(3)
C53_3 C 0.9034(4) 0.3624(4) 0.3269(4)
H29_3 H 0.9146 0.3357 0.3434
H30_3 H 0.8866 0.3877 0.3420
H31_3 H 0.8804 0.3492 0.3082
C54_3 C 0.9265(5) 0.4275(5) 0.2912(4)
H32_3 H 0.8936 0.4354 0.3011
H33_3 H 0.9491 0.4548 0.2966
H34_3 H 0.9245 0.4225 0.2640
N10_3 N 0.9442(3) 0.3836(4) 0.3086(3)
Fe3_5 Fe 1.0000 -0.0000 0.0000
Fe3_6 Fe 1.0000 1.0000 1.0000
C51_3 C 0.4121(2) 0.0243(2) 0.59657(19)
H27_3 H 0.3972 0.0446 0.6151
C52_3 C 0.4416(3) 0.0406(2) 0.56674(18)
H28_3 H 0.4502 0.0739 0.5617
N8_4 N 0.45600(14) -0.00002(16) 0.54577(11)
Fe3_7 Fe 0.5000 0.0000 0.5000
F1_4 F 0.0828(2) 0.7823(3) 0.65575(17)
F4_4 F 0.08046(17) 0.8624(2) 0.77476(14)
C1_4 C 0.13536(18) 0.75589(17) 0.74854(13)
C2_4 C 0.09200(18) 0.7317(2) 0.76402(15)
H1_4 H 0.0586 0.7410 0.7599
C3_4 C 0.1081(2) 0.69345(19) 0.78555(14)
H2_4 H 0.0879 0.6706 0.7987
C4_4 C 0.16190(19) 0.69385(18) 0.78473(13)
C5_4 C 0.1914(2) 0.66101(17) 0.80489(13)
C6_4 C 0.2439(2) 0.66103(18) 0.80287(14)
C7_4 C 0.2749(2) 0.6246(2) 0.82259(16)
H3_4 H 0.2635 0.5989 0.8385
C8_4 C 0.3228(2) 0.63445(19) 0.81398(16)
H4_4 H 0.3512 0.6173 0.8224
C9_4 C 0.3208(2) 0.67817(18) 0.78827(14)
C10_4 C 0.13542(19) 0.79764(18) 0.72556(13)
C11_4 C 0.08330(16) 0.82100(17) 0.71677(18)
C12_4 C 0.0606(3) 0.8096(2) 0.68191(17)
C13_4 C 0.0138(3) 0.8300(3) 0.67290(19)
C15_4 C 0.0125(2) 0.87324(19) 0.7336(2)
C16_4 C 0.0593(2) 0.8528(2) 0.74261(16)
C17_4 C 0.16631(17) 0.6240(2) 0.83131(16)
C18_4 C 0.1587(2) 0.5759(2) 0.82170(17)
H5_4 H 0.1704 0.5639 0.7982
C19_4 C 0.1334(3) 0.5433(2) 0.84659(18)
H6_4 H 0.1279 0.5102 0.8388
C20_4 C 0.11726(19) 0.5573(2) 0.88033(17)
C21_4 C 0.1257(2) 0.6051(3) 0.89090(17)
H7_4 H 0.1155 0.6162 0.9150
C22_4 C 0.1497(2) 0.6385(2) 0.86584(18)
H8_4 H 0.1544 0.6717 0.8734
C23_4 C 0.06344(16) 0.53768(17) 0.93672(13)
H9_4 H 0.0586 0.5708 0.9447
C24_4 C 0.0879(2) 0.4757(2) 0.90343(19)
H10_4 H 0.1028 0.4554 0.8849
C25_4 C 0.0584(3) 0.4594(2) 0.93326(18)
H11_4 H 0.0498 0.4261 0.9383
N1_4 N 0.17820(13) 0.73247(12) 0.76160(9)
N2_4 N 0.27324(14) 0.69277(12) 0.78201(9)
N4_4 N 0.09155(16) 0.52562(15) 0.90575(13)
F5_4 F 0.4172(2) 0.7177(3) 0.84425(17)
F6_4 F 0.5057(3) 0.6761(3) 0.8609(2)
F7_4 F 0.5079(2) 0.5997(3) 0.7388(2)
F8_4 F 0.41954(17) 0.6376(2) 0.72524(14)
C28_4 C 0.36464(18) 0.74411(17) 0.75146(13)
C29_4 C 0.40800(18) 0.7683(2) 0.73598(15)
H18_4 H 0.4414 0.7590 0.7401
C30_4 C 0.3919(2) 0.80655(19) 0.71445(14)
H19_4 H 0.4121 0.8294 0.7013
C31_4 C 0.33810(19) 0.80615(18) 0.71527(13)
C32_4 C 0.3086(2) 0.83899(17) 0.69511(13)
C33_4 C 0.2561(2) 0.83897(18) 0.69713(14)
C34_4 C 0.2251(2) 0.8754(2) 0.67741(16)
H20_4 H 0.2365 0.9011 0.6615
C35_4 C 0.1772(2) 0.86555(19) 0.68602(16)
H21_4 H 0.1488 0.8827 0.6776
C36_4 C 0.1792(2) 0.82183(18) 0.71173(14)
C37_4 C 0.36458(19) 0.70236(18) 0.77444(13)
C38_4 C 0.41670(16) 0.67900(17) 0.78323(18)
C39_4 C 0.4394(3) 0.6904(2) 0.81809(17)
C40_4 C 0.4862(3) 0.6700(3) 0.82710(19)
C41_4 C 0.51021(17) 0.6382(2) 0.8013(3)
C42_4 C 0.4875(2) 0.62676(19) 0.7664(2)
C43_4 C 0.4407(2) 0.6472(2) 0.75739(16)
C44_4 C 0.33369(17) 0.8760(2) 0.66869(16)
C45_4 C 0.3413(2) 0.9241(2) 0.67830(17)
H22_4 H 0.3296 0.9361 0.7018
C46_4 C 0.3666(3) 0.9567(2) 0.65341(18)
H23_4 H 0.3721 0.9898 0.6612
C47_4 C 0.38274(19) 0.9427(2) 0.61967(17)
C48_4 C 0.3743(2) 0.8949(3) 0.60910(17)
H24_4 H 0.3845 0.8838 0.5850
C49_4 C 0.3503(2) 0.8615(2) 0.63416(18)
H25_4 H 0.3456 0.8283 0.6266
C50_4 C 0.43656(16) 0.96232(17) 0.56328(13)
H26_4 H 0.4414 0.9292 0.5553
C53_4 C 0.5966(4) 0.6376(4) 0.8269(4)
H29_4 H 0.5854 0.6643 0.8434
H30_4 H 0.6134 0.6123 0.8420
H31_4 H 0.6196 0.6508 0.8082
C54_4 C 0.5735(5) 0.5725(5) 0.7912(4)
H32_4 H 0.6064 0.5646 0.8011
H33_4 H 0.5509 0.5452 0.7966
H34_4 H 0.5755 0.5775 0.7640
N6_4 N 0.32180(13) 0.76753(12) 0.73840(9)
N7_4 N 0.22676(14) 0.80723(12) 0.71799(9)
N8_5 N 0.45600(14) 0.99998(16) 0.54577(11)
N9_4 N 0.40845(16) 0.97438(15) 0.59425(13)
N10_4 N 0.5558(3) 0.6164(4) 0.8086(3)
Fe3_8 Fe 0.5000 1.0000 0.5000
N12_4 N 0.24998(16) 0.79400(14) 0.79577(11)
F2_4 F 0.9943(3) 0.8239(3) 0.6391(2)
F3_4 F 0.9921(2) 0.9003(3) 0.7612(2)
C14_4 C 0.98979(17) 0.8618(2) 0.6987(3)
C26_4 C 0.9034(4) 0.8624(4) 0.6731(4)
H12_4 H 0.9146 0.8357 0.6566
H13_4 H 0.8866 0.8877 0.6580
H14_4 H 0.8804 0.8492 0.6918
C27_4 C 0.9265(5) 0.9275(5) 0.7088(4)
H15_4 H 0.8936 0.9354 0.6989
H16_4 H 0.9491 0.9548 0.7034
H17_4 H 0.9245 0.9225 0.7360
N5_4 N 0.9442(3) 0.8836(4) 0.6914(3)
C7_5 C 0.6254(2) 0.0249(2) 0.57259(16)
H3_5 H 0.6511 0.0135 0.5885
C8_5 C 0.61555(19) 0.0728(2) 0.56398(16)
H4_5 H 0.6327 0.1012 0.5724
C9_5 C 0.57183(18) 0.0708(2) 0.53827(14)
N2_5 N 0.55723(12) 0.02324(14) 0.53201(9)
F5_5 F 0.5323(3) 0.1672(2) 0.59425(17)
F6_5 F 0.5739(3) 0.2557(3) 0.6109(2)
F7_5 F 0.6503(3) 0.2579(2) 0.4888(2)
F8_5 F 0.6124(2) 0.16954(17) 0.47524(14)
C28_5 C 0.50589(17) 0.11464(18) 0.50146(13)
C29_5 C 0.4817(2) 0.15800(18) 0.48598(15)
H18_5 H 0.4910 0.1914 0.4901
C30_5 C 0.44345(19) 0.1419(2) 0.46445(14)
H19_5 H 0.4206 0.1621 0.4513
C31_5 C 0.44385(18) 0.08810(19) 0.46527(13)
C32_5 C 0.41101(17) 0.0586(2) 0.44511(13)
C33_5 C 0.41103(18) 0.0061(2) 0.44713(14)
C37_5 C 0.54764(18) 0.11458(19) 0.52444(13)
C38_5 C 0.57100(17) 0.16670(16) 0.53323(18)
C39_5 C 0.5596(2) 0.1894(3) 0.56809(17)
C40_5 C 0.5800(3) 0.2362(3) 0.57710(19)
C41_5 C 0.6118(2) 0.26021(17) 0.5513(3)
C42_5 C 0.62324(19) 0.2375(2) 0.5164(2)
C43_5 C 0.6028(2) 0.1907(2) 0.50739(16)
C44_5 C 0.3740(2) 0.08369(17) 0.41869(16)
C45_5 C 0.3259(2) 0.0913(2) 0.42830(17)
H22_5 H 0.3139 0.0796 0.4518
C46_5 C 0.2933(2) 0.1166(3) 0.40341(18)
H23_5 H 0.2602 0.1221 0.4112
C47_5 C 0.3073(2) 0.13274(19) 0.36967(17)
C48_5 C 0.3551(3) 0.1243(2) 0.35910(17)
H24_5 H 0.3662 0.1345 0.3350
C49_5 C 0.3885(2) 0.1003(2) 0.38416(18)
H25_5 H 0.4217 0.0956 0.3766
C50_5 C 0.28768(17) 0.18656(16) 0.31328(13)
H26_5 H 0.3208 0.1914 0.3053
C51_4 C 0.2257(2) 0.1621(2) 0.34657(19)
H27_4 H 0.2054 0.1472 0.3651
C52_4 C 0.2094(2) 0.1916(3) 0.31674(18)
H28_4 H 0.1761 0.2002 0.3117
C53_5 C 0.6124(4) 0.3466(4) 0.5769(4)
H29_5 H 0.5857 0.3354 0.5934
H30_5 H 0.6377 0.3634 0.5920
H31_5 H 0.5992 0.3696 0.5582
C54_5 C 0.6775(5) 0.3235(5) 0.5412(4)
H32_5 H 0.6854 0.3564 0.5511
H33_5 H 0.7048 0.3009 0.5466
H34_5 H 0.6725 0.3255 0.5140
N6_5 N 0.48247(12) 0.07180(13) 0.48840(9)
N9_5 N 0.27562(15) 0.15845(16) 0.34425(13)
N10_5 N 0.6336(4) 0.3058(3) 0.5586(3)
N11_3 N 0.54400(14) 0.00002(16) 0.45423(11)
F1_5 F 0.4677(3) 0.8328(2) 0.40575(17)
F2_5 F 0.4261(3) 0.7443(3) 0.3891(2)
F3_5 F 0.3497(3) 0.7421(2) 0.5112(2)
F4_5 F 0.3876(2) 0.83046(17) 0.52476(14)
C1_5 C 0.49411(17) 0.88536(18) 0.49854(13)
C2_5 C 0.5183(2) 0.84200(18) 0.51402(15)
H1_5 H 0.5090 0.8086 0.5099
C3_5 C 0.55655(19) 0.8581(2) 0.53555(14)
H2_5 H 0.5794 0.8379 0.5487
C4_5 C 0.55615(18) 0.91190(19) 0.53473(13)
C5_5 C 0.58899(17) 0.9414(2) 0.55489(13)
C6_5 C 0.58897(18) 0.9939(2) 0.55287(14)
C10_5 C 0.45236(18) 0.88542(19) 0.47556(13)
C11_5 C 0.42900(17) 0.83330(16) 0.46677(18)
C12_5 C 0.4404(2) 0.8106(3) 0.43191(17)
C13_5 C 0.4200(3) 0.7638(3) 0.42290(19)
C14_5 C 0.3882(2) 0.73979(17) 0.4487(3)
C15_5 C 0.37676(19) 0.7625(2) 0.4836(2)
C16_5 C 0.3972(2) 0.8093(2) 0.49261(16)
C17_5 C 0.6260(2) 0.91631(17) 0.58131(16)
C18_5 C 0.6741(2) 0.9087(2) 0.57170(17)
H5_5 H 0.6861 0.9204 0.5482
C19_5 C 0.7067(2) 0.8834(3) 0.59659(18)
H6_5 H 0.7398 0.8779 0.5888
C20_5 C 0.6927(2) 0.86726(19) 0.63033(17)
C21_5 C 0.6449(3) 0.8757(2) 0.64090(17)
H7_5 H 0.6338 0.8655 0.6650
C22_5 C 0.6115(2) 0.8997(2) 0.61584(18)
H8_5 H 0.5783 0.9044 0.6234
C23_5 C 0.71232(17) 0.81344(16) 0.68672(13)
H9_5 H 0.6792 0.8086 0.6947
C24_5 C 0.7743(2) 0.8379(2) 0.65343(19)
H10_5 H 0.7946 0.8528 0.6349
C25_5 C 0.7906(2) 0.8084(3) 0.68326(18)
H11_5 H 0.8239 0.7998 0.6883
C26_5 C 0.3876(4) 0.6534(4) 0.4231(4)
H12_5 H 0.4143 0.6646 0.4066
H13_5 H 0.3623 0.6366 0.4080
H14_5 H 0.4008 0.6304 0.4418
C27_5 C 0.3225(5) 0.6765(5) 0.4588(4)
H15_5 H 0.3146 0.6436 0.4489
H16_5 H 0.2952 0.6991 0.4534
H17_5 H 0.3275 0.6745 0.4860
N1_5 N 0.51753(12) 0.92820(13) 0.51160(9)
N3_3 N 0.74998(16) 0.79400(14) 0.70423(11)
N4_5 N 0.72438(15) 0.84155(16) 0.65575(13)
N5_5 N 0.3664(4) 0.6942(3) 0.4414(3)
C34_5 C 0.3746(2) 0.9751(2) 0.42741(16)
H20_5 H 0.3489 0.9865 0.4115
C35_5 C 0.38445(19) 0.9272(2) 0.43602(16)
H21_5 H 0.3673 0.8988 0.4276
C36_5 C 0.42817(18) 0.9292(2) 0.46173(14)
N7_5 N 0.44277(12) 0.97676(14) 0.46799(9)
N11_4 N 0.54400(14) 1.00002(16) 0.45423(11)
F3_6 F 0.1503(3) 0.2579(2) 0.0112(2)
F4_6 F 0.1124(2) 0.16954(17) 0.02476(14)
C29_6 C 0.0183(2) 0.84200(18) 0.98598(15)
H18_6 H 0.0090 0.8086 0.9901
C30_6 C 0.05655(19) 0.8581(2) 0.96445(14)
H19_6 H 0.0794 0.8379 0.9513
C31_6 C 0.05615(18) 0.91190(19) 0.96527(13)
C32_6 C 0.08899(17) 0.9414(2) 0.94511(13)
C33_6 C 0.08897(18) 0.9939(2) 0.94713(14)
C44_6 C 0.1260(2) 0.91631(17) 0.91869(16)
C45_6 C 0.1741(2) 0.9087(2) 0.92830(17)
H22_6 H 0.1861 0.9204 0.9518
C46_6 C 0.2067(2) 0.8834(3) 0.90341(18)
H23_6 H 0.2398 0.8779 0.9112
C47_6 C 0.1927(2) 0.86726(19) 0.86967(17)
C48_6 C 0.1449(3) 0.8757(2) 0.85910(17)
H24_6 H 0.1338 0.8655 0.8350
C49_6 C 0.1115(2) 0.8997(2) 0.88416(18)
H25_6 H 0.0783 0.9044 0.8766
C50_6 C 0.21232(17) 0.81344(16) 0.81328(13)
H26_6 H 0.1792 0.8086 0.8053
C51_5 C 0.2743(2) 0.8379(2) 0.84657(19)
H27_5 H 0.2946 0.8528 0.8651
C52_5 C 0.2906(2) 0.8084(3) 0.81674(18)
H28_5 H 0.3239 0.7998 0.8117
N6_6 N 0.01753(12) 0.92820(13) 0.98840(9)
N9_6 N 0.22438(15) 0.84155(16) 0.84425(13)
C2_6 C 0.9817(2) 0.15800(18) 0.01402(15)
H1_6 H 0.9910 0.1914 0.0099
C3_6 C 0.94345(19) 0.1419(2) 0.03555(14)
H2_6 H 0.9206 0.1621 0.0487
C4_6 C 0.94385(18) 0.08810(19) 0.03473(13)
C5_6 C 0.91101(17) 0.0586(2) 0.05489(13)
C6_6 C 0.91103(18) 0.0061(2) 0.05287(14)
C17_6 C 0.8740(2) 0.08369(17) 0.08131(16)
C18_6 C 0.8259(2) 0.0913(2) 0.07170(17)
H5_6 H 0.8139 0.0796 0.0482
C19_6 C 0.7933(2) 0.1166(3) 0.09659(18)
H6_6 H 0.7602 0.1221 0.0888
C20_6 C 0.8073(2) 0.13274(19) 0.13033(17)
C21_6 C 0.8551(3) 0.1243(2) 0.14090(17)
H7_6 H 0.8662 0.1345 0.1650
C22_6 C 0.8885(2) 0.1003(2) 0.11584(18)
H8_6 H 0.9217 0.0956 0.1234
C23_6 C 0.78768(17) 0.18656(16) 0.18672(13)
H9_6 H 0.8208 0.1914 0.1947
C24_6 C 0.7257(2) 0.1621(2) 0.15343(19)
H10_6 H 0.7054 0.1472 0.1349
C25_6 C 0.7094(2) 0.1916(3) 0.18326(18)
H11_6 H 0.6761 0.2002 0.1883
N1_6 N 0.98247(12) 0.07180(13) 0.01160(9)
N3_4 N 0.75002(16) 0.20600(14) 0.20423(11)
N4_6 N 0.77562(15) 0.15845(16) 0.15575(13)
F7_6 F 0.8497(3) 0.7421(2) 0.9888(2)
F8_6 F 0.8876(2) 0.83046(17) 0.97524(14)
N11_5 N 0.95600(14) 0.99998(16) 0.95423(11)
F2_6 F 0.0057(3) 0.6761(3) 0.6391(2)
F3_7 F 0.0079(2) 0.5997(3) 0.7612(2)
C14_6 C 0.01021(17) 0.6382(2) 0.6987(3)
C26_6 C 0.0966(4) 0.6376(4) 0.6731(4)
H12_6 H 0.0854 0.6643 0.6566
H13_6 H 0.1134 0.6123 0.6580
H14_6 H 0.1196 0.6508 0.6918
C27_6 C 0.0735(5) 0.5725(5) 0.7088(4)
H15_6 H 0.1064 0.5646 0.6989
H16_6 H 0.0509 0.5452 0.7034
H17_6 H 0.0755 0.5775 0.7360
N5_6 N 0.0558(3) 0.6164(4) 0.6914(3)
F1_6 F 0.9172(2) 0.7177(3) 0.65575(17)
F4_7 F 0.91954(17) 0.6376(2) 0.77476(14)
C1_6 C 0.86464(18) 0.74411(17) 0.74854(13)
C2_7 C 0.90800(18) 0.7683(2) 0.76402(15)
H1_7 H 0.9414 0.7590 0.7599
C3_7 C 0.8919(2) 0.80655(19) 0.78555(14)
H2_7 H 0.9121 0.8294 0.7987
C4_7 C 0.83810(19) 0.80615(18) 0.78473(13)
C5_7 C 0.8086(2) 0.83899(17) 0.80489(13)
C6_7 C 0.7561(2) 0.83897(18) 0.80287(14)
C7_6 C 0.7251(2) 0.8754(2) 0.82259(16)
H3_6 H 0.7365 0.9011 0.8385
C8_6 C 0.6772(2) 0.86555(19) 0.81398(16)
H4_6 H 0.6488 0.8827 0.8224
C9_6 C 0.6792(2) 0.82183(18) 0.78827(14)
C10_6 C 0.86458(19) 0.70236(18) 0.72556(13)
C11_6 C 0.91670(16) 0.67900(17) 0.71677(18)
C12_6 C 0.9394(3) 0.6904(2) 0.68191(17)
C13_6 C 0.9862(3) 0.6700(3) 0.67290(19)
C15_6 C 0.9875(2) 0.62676(19) 0.7336(2)
C16_6 C 0.9407(2) 0.6472(2) 0.74261(16)
C17_7 C 0.83369(17) 0.8760(2) 0.83131(16)
C18_7 C 0.8413(2) 0.9241(2) 0.82170(17)
H5_7 H 0.8296 0.9361 0.7982
C19_7 C 0.8666(3) 0.9567(2) 0.84659(18)
H6_7 H 0.8721 0.9898 0.8388
C20_7 C 0.88274(19) 0.9427(2) 0.88033(17)
C21_7 C 0.8743(2) 0.8949(3) 0.89090(17)
H7_7 H 0.8845 0.8838 0.9150
C22_7 C 0.8503(2) 0.8615(2) 0.86584(18)
H8_7 H 0.8456 0.8283 0.8734
C23_7 C 0.93656(16) 0.96232(17) 0.93672(13)
H9_7 H 0.9414 0.9292 0.9447
N1_7 N 0.82180(13) 0.76753(12) 0.76160(9)
N2_6 N 0.72676(14) 0.80723(12) 0.78201(9)
N4_7 N 0.90845(16) 0.97438(15) 0.90575(13)
F5_6 F 0.5828(2) 0.7823(3) 0.84425(17)
F6_6 F 0.4943(3) 0.8239(3) 0.8609(2)
F7_7 F 0.4921(2) 0.9003(3) 0.7388(2)
F8_7 F 0.58046(17) 0.8624(2) 0.72524(14)
C28_6 C 0.63536(18) 0.75589(17) 0.75146(13)
C29_7 C 0.59200(18) 0.7317(2) 0.73598(15)
H18_7 H 0.5586 0.7410 0.7401
C30_7 C 0.6081(2) 0.69345(19) 0.71445(14)
H19_7 H 0.5879 0.6706 0.7013
C31_7 C 0.66190(19) 0.69385(18) 0.71527(13)
C32_7 C 0.6914(2) 0.66101(17) 0.69511(13)
C33_7 C 0.7439(2) 0.66103(18) 0.69713(14)
C34_6 C 0.7749(2) 0.6246(2) 0.67741(16)
H20_6 H 0.7635 0.5989 0.6615
C35_6 C 0.8228(2) 0.63445(19) 0.68602(16)
H21_6 H 0.8512 0.6173 0.6776
C36_6 C 0.8208(2) 0.67817(18) 0.71173(14)
C37_6 C 0.63542(19) 0.79764(18) 0.77444(13)
C38_6 C 0.58330(16) 0.82100(17) 0.78323(18)
C39_6 C 0.5606(3) 0.8096(2) 0.81809(17)
C40_6 C 0.5138(3) 0.8300(3) 0.82710(19)
C41_6 C 0.48979(17) 0.8618(2) 0.8013(3)
C42_6 C 0.5125(2) 0.87324(19) 0.7664(2)
C43_6 C 0.5593(2) 0.8528(2) 0.75739(16)
C44_7 C 0.66631(17) 0.6240(2) 0.66869(16)
C45_7 C 0.6587(2) 0.5759(2) 0.67830(17)
H22_7 H 0.6704 0.5639 0.7018
C46_7 C 0.6334(3) 0.5433(2) 0.65341(18)
H23_7 H 0.6279 0.5102 0.6612
C47_7 C 0.61726(19) 0.5573(2) 0.61967(17)
C48_7 C 0.6257(2) 0.6051(3) 0.60910(17)
H24_7 H 0.6155 0.6162 0.5850
C49_7 C 0.6497(2) 0.6385(2) 0.63416(18)
H25_7 H 0.6544 0.6717 0.6266
C50_7 C 0.56344(16) 0.53768(17) 0.56328(13)
H26_7 H 0.5586 0.5708 0.5553
C51_6 C 0.5879(2) 0.4757(2) 0.59657(19)
H27_6 H 0.6028 0.4554 0.6151
C52_6 C 0.5584(3) 0.4594(2) 0.56674(18)
H28_6 H 0.5498 0.4261 0.5617
C53_6 C 0.4034(4) 0.8624(4) 0.8269(4)
H29_6 H 0.4146 0.8357 0.8434
H30_6 H 0.3866 0.8877 0.8420
H31_6 H 0.3804 0.8492 0.8082
C54_6 C 0.4265(5) 0.9275(5) 0.7912(4)
H32_6 H 0.3936 0.9354 0.8011
H33_6 H 0.4491 0.9548 0.7966
H34_6 H 0.4245 0.9225 0.7640
N6_7 N 0.67820(13) 0.73247(12) 0.73840(9)
N7_6 N 0.77324(14) 0.69277(12) 0.71799(9)
N9_7 N 0.59155(16) 0.52562(15) 0.59425(13)
N10_6 N 0.4442(3) 0.8836(4) 0.8086(3)
F6_7 F 0.0057(3) 0.1761(3) 0.3609(2)
F7_8 F 0.0079(2) 0.0997(3) 0.2388(2)
C41_7 C 0.01021(17) 0.1382(2) 0.3013(3)
C53_7 C 0.0966(4) 0.1376(4) 0.3269(4)
H29_7 H 0.0854 0.1643 0.3434
H30_7 H 0.1134 0.1123 0.3420
H31_7 H 0.1196 0.1508 0.3082
C54_7 C 0.0735(5) 0.0725(5) 0.2912(4)
H32_7 H 0.1064 0.0646 0.3011
H33_7 H 0.0509 0.0452 0.2966
H34_7 H 0.0755 0.0775 0.2640
N10_7 N 0.0558(3) 0.1164(4) 0.3086(3)
F1_7 F 0.5828(2) 0.2823(3) 0.15575(17)
F2_7 F 0.4943(3) 0.3239(3) 0.1391(2)
F3_8 F 0.4921(2) 0.4003(3) 0.2612(2)
F4_8 F 0.58046(17) 0.3624(2) 0.27476(14)
C1_7 C 0.63536(18) 0.25589(17) 0.24854(13)
C2_8 C 0.59200(18) 0.2317(2) 0.26402(15)
H1_8 H 0.5586 0.2410 0.2599
C3_8 C 0.6081(2) 0.19345(19) 0.28555(14)
H2_8 H 0.5879 0.1706 0.2987
C4_8 C 0.66190(19) 0.19385(18) 0.28473(13)
C5_8 C 0.6914(2) 0.16101(17) 0.30489(13)
C6_8 C 0.7439(2) 0.16103(18) 0.30287(14)
C7_7 C 0.7749(2) 0.1246(2) 0.32259(16)
H3_7 H 0.7635 0.0989 0.3385
C8_7 C 0.8228(2) 0.13445(19) 0.31398(16)
H4_7 H 0.8512 0.1173 0.3224
C9_7 C 0.8208(2) 0.17817(18) 0.28827(14)
C10_7 C 0.63542(19) 0.29764(18) 0.22556(13)
C11_7 C 0.58330(16) 0.32100(17) 0.21677(18)
C12_7 C 0.5606(3) 0.3096(2) 0.18191(17)
C13_7 C 0.5138(3) 0.3300(3) 0.17290(19)
C14_7 C 0.48979(17) 0.3618(2) 0.1987(3)
C15_7 C 0.5125(2) 0.37324(19) 0.2336(2)
C16_7 C 0.5593(2) 0.3528(2) 0.24261(16)
C17_8 C 0.66631(17) 0.1240(2) 0.33131(16)
C18_8 C 0.6587(2) 0.0759(2) 0.32170(17)
H5_8 H 0.6704 0.0639 0.2982
C19_8 C 0.6334(3) 0.0433(2) 0.34659(18)
H6_8 H 0.6279 0.0102 0.3388
C20_8 C 0.61726(19) 0.0573(2) 0.38033(17)
C21_8 C 0.6257(2) 0.1051(3) 0.39090(17)
H7_8 H 0.6155 0.1162 0.4150
C22_8 C 0.6497(2) 0.1385(2) 0.36584(18)
H8_8 H 0.6544 0.1717 0.3734
C23_8 C 0.56344(16) 0.03768(17) 0.43672(13)
H9_8 H 0.5586 0.0708 0.4447
C26_7 C 0.4034(4) 0.3624(4) 0.1731(4)
H12_7 H 0.4146 0.3357 0.1566
H13_7 H 0.3866 0.3877 0.1580
H14_7 H 0.3804 0.3492 0.1918
C27_7 C 0.4265(5) 0.4275(5) 0.2088(4)
H15_7 H 0.3936 0.4354 0.1989
H16_7 H 0.4491 0.4548 0.2034
H17_7 H 0.4245 0.4225 0.2360
N1_8 N 0.67820(13) 0.23247(12) 0.26160(9)
N2_7 N 0.77324(14) 0.19277(12) 0.28201(9)
N4_8 N 0.59155(16) 0.02562(15) 0.40575(13)
N5_7 N 0.4442(3) 0.3836(4) 0.1914(3)
F5_7 F 0.9172(2) 0.2177(3) 0.34425(17)
F8_8 F 0.91954(17) 0.1376(2) 0.22524(14)
C28_7 C 0.86464(18) 0.24411(17) 0.25146(13)
C29_8 C 0.90800(18) 0.2683(2) 0.23598(15)
H18_8 H 0.9414 0.2590 0.2401
C30_8 C 0.8919(2) 0.30655(19) 0.21445(14)
H19_8 H 0.9121 0.3294 0.2013
C31_8 C 0.83810(19) 0.30615(18) 0.21527(13)
C32_8 C 0.8086(2) 0.33899(17) 0.19511(13)
C33_8 C 0.7561(2) 0.33897(18) 0.19713(14)
C34_7 C 0.7251(2) 0.3754(2) 0.17741(16)
H20_7 H 0.7365 0.4011 0.1615
C35_7 C 0.6772(2) 0.36555(19) 0.18602(16)
H21_7 H 0.6488 0.3827 0.1776
C36_7 C 0.6792(2) 0.32183(18) 0.21173(14)
C37_7 C 0.86458(19) 0.20236(18) 0.27444(13)
C38_7 C 0.91670(16) 0.17900(17) 0.28323(18)
C39_7 C 0.9394(3) 0.1904(2) 0.31809(17)
C40_7 C 0.9862(3) 0.1700(3) 0.32710(19)
C42_7 C 0.9875(2) 0.12676(19) 0.2664(2)
C43_7 C 0.9407(2) 0.1472(2) 0.25739(16)
C44_8 C 0.83369(17) 0.3760(2) 0.16869(16)
C45_8 C 0.8413(2) 0.4241(2) 0.17830(17)
H22_8 H 0.8296 0.4361 0.2018
C46_8 C 0.8666(3) 0.4567(2) 0.15341(18)
H23_8 H 0.8721 0.4898 0.1612
C47_8 C 0.88274(19) 0.4427(2) 0.11967(17)
C48_8 C 0.8743(2) 0.3949(3) 0.10910(17)
H24_8 H 0.8845 0.3838 0.0850
C49_8 C 0.8503(2) 0.3615(2) 0.13416(18)
H25_8 H 0.8456 0.3283 0.1266
C50_8 C 0.93656(16) 0.46232(17) 0.06328(13)
H26_8 H 0.9414 0.4292 0.0553
C51_7 C 0.9121(2) 0.5243(2) 0.09657(19)
H27_7 H 0.8972 0.5446 0.1151
C52_7 C 0.9416(3) 0.5406(2) 0.06674(18)
H28_7 H 0.9502 0.5739 0.0617
N6_8 N 0.82180(13) 0.26753(12) 0.23840(9)
N7_7 N 0.72676(14) 0.30723(12) 0.21799(9)
N9_8 N 0.90845(16) 0.47438(15) 0.09425(13)
C24_7 C 0.5879(2) 0.9757(2) 0.40343(19)
H10_7 H 0.6028 0.9554 0.3849
C25_7 C 0.5584(3) 0.9594(2) 0.43326(18)
H11_7 H 0.5498 0.9261 0.4383
Fe3_9 Fe 0.0000 -0.0000 1.0000
F1_8 F 0.0323(3) 0.1672(2) 0.90575(17)
F2_8 F 0.0739(3) 0.2557(3) 0.8891(2)
C1_8 C 0.00589(17) 0.11464(18) 0.99854(13)
C10_8 C 0.04764(18) 0.11458(19) 0.97556(13)
C11_8 C 0.07100(17) 0.16670(16) 0.96677(18)
C12_8 C 0.0596(2) 0.1894(3) 0.93191(17)
C13_8 C 0.0800(3) 0.2362(3) 0.92290(19)
C14_8 C 0.1118(2) 0.26021(17) 0.9487(3)
C15_8 C 0.12324(19) 0.2375(2) 0.9836(2)
C16_8 C 0.1028(2) 0.1907(2) 0.99261(16)
C26_8 C 0.1124(4) 0.3466(4) 0.9231(4)
H12_8 H 0.0857 0.3354 0.9066
H13_8 H 0.1377 0.3634 0.9080
H14_8 H 0.0992 0.3696 0.9418
C27_8 C 0.1775(5) 0.3235(5) 0.9588(4)
H15_8 H 0.1854 0.3564 0.9489
H16_8 H 0.2048 0.3009 0.9534
H17_8 H 0.1725 0.3255 0.9860
N5_8 N 0.1336(4) 0.3058(3) 0.9414(3)
C34_8 C 0.1254(2) 0.0249(2) 0.92741(16)
H20_8 H 0.1511 0.0135 0.9115
C35_8 C 0.11555(19) 0.0728(2) 0.93602(16)
H21_8 H 0.1327 0.1012 0.9276
C36_8 C 0.07183(18) 0.0708(2) 0.96173(14)
N7_8 N 0.05723(12) 0.02324(14) 0.96799(9)
C51_8 C 0.0879(2) 0.9757(2) 0.09657(19)
H27_8 H 0.1028 0.9554 0.1151
C52_8 C 0.0584(3) 0.9594(2) 0.06674(18)
H28_8 H 0.0498 0.9261 0.0617
N8_6 N 0.04400(14) 1.00002(16) 0.04577(11)
Fe3_10 Fe -0.0000 1.0000 0.0000
Fe3_11 Fe 1.0000 -0.0000 1.0000
N11_6 N 0.95600(14) -0.00002(16) 0.95423(11)
C24_8 C 0.9121(2) 0.0243(2) 0.90343(19)
H10_8 H 0.8972 0.0446 0.8849
C25_8 C 0.9416(3) 0.0406(2) 0.93326(18)
H11_8 H 0.9502 0.0739 0.9383
Fe3_12 Fe 1.0000 1.0000 0.0000
C7_8 C 0.8746(2) 0.9751(2) 0.07259(16)
H3_8 H 0.8489 0.9865 0.0885
C8_8 C 0.88445(19) 0.9272(2) 0.06398(16)
H4_8 H 0.8673 0.8988 0.0724
C9_8 C 0.92817(18) 0.9292(2) 0.03827(14)
N2_8 N 0.94277(12) 0.97676(14) 0.03201(9)
F5_8 F 0.9677(3) 0.8328(2) 0.09425(17)
F6_8 F 0.9261(3) 0.7443(3) 0.1109(2)
C28_8 C 0.99411(17) 0.88536(18) 0.00146(13)
C37_8 C 0.95236(18) 0.88542(19) 0.02444(13)
C38_8 C 0.92900(17) 0.83330(16) 0.03323(18)
C39_8 C 0.9404(2) 0.8106(3) 0.06809(17)
C40_8 C 0.9200(3) 0.7638(3) 0.07710(19)
C41_8 C 0.8882(2) 0.73979(17) 0.0513(3)
C42_8 C 0.87676(19) 0.7625(2) 0.0164(2)
C43_8 C 0.8972(2) 0.8093(2) 0.00739(16)
C53_8 C 0.8876(4) 0.6534(4) 0.0769(4)
H29_8 H 0.9143 0.6646 0.0934
H30_8 H 0.8623 0.6366 0.0920
H31_8 H 0.9008 0.6304 0.0582
C54_8 C 0.8225(5) 0.6765(5) 0.0412(4)
H32_8 H 0.8146 0.6436 0.0511
H33_8 H 0.7952 0.6991 0.0466
H34_8 H 0.8275 0.6745 0.0140
N10_8 N 0.8664(4) 0.6942(3) 0.0586(3)
loop_
_geom_bond_atom_site_label_1
_geom_bond_atom_site_label_2
_geom_bond_site_symmetry_1
_geom_bond_site_symmetry_2
Fe1 N1 1_555 1_555
C2 H1 1_555 1_555
C3 C2 1_555 1_555
H2 C3 1_555 1_555
C4 C3 1_555 1_555
C5 C4 1_555 1_555
C6 C5 1_555 1_555
C7 C6 1_555 1_555
H3 C7 1_555 1_555
C8 C7 1_555 1_555
H4 C8 1_555 1_555
C9 C8 1_555 1_555
C17 C5 1_555 1_555
C18 C17 1_555 1_555
H5 C18 1_555 1_555
C19 C18 1_555 1_555
H6 C19 1_555 1_555
C20 C19 1_555 1_555
C21 C20 1_555 1_555
H7 C21 1_555 1_555
C22 C17 1_555 1_555
H8 C22 1_555 1_555
C23 H9 1_555 1_555
C24 H10 1_555 1_555
C25 C24 1_555 1_555
H11 C25 1_555 1_555
N2 Fe1 1_555 1_555
N3 C23 1_555 1_555
N4 C20 1_555 1_555
F5 C39 1_555 1_555
F6 C40 1_555 1_555
C37 C9 1_555 1_555
C38 C37 1_555 1_555
C39 C38 1_555 1_555
C40 C39 1_555 1_555
C41 C40 1_555 1_555
C42 C41 1_555 1_555
C43 C38 1_555 1_555
C53 H29 1_555 1_555
H30 C53 1_555 1_555
H31 C53 1_555 1_555
C54 H32 1_555 1_555
H33 C54 1_555 1_555
H34 C54 1_555 1_555
N10 C41 1_555 1_555
Fe2 N3 1_555 1_555
C4 N1 1_555 1_555
C6 N2 1_555 1_555
C9 N2 1_555 1_555
C21 C22 1_555 1_555
C23 N4 1_555 1_555
C24 N4 1_555 1_555
C25 N3 1_555 1_555
C28 C37 1_555 1_555
C42 C43 1_555 1_555
C53 N10 1_555 1_555
C54 N10 1_555 1_555
N11 Fe1_2 1_555 1_555
N12 Fe1_3 1_555 1_555
F1 C12 1_555 1_555
F2 C13 1_555 1_555
C10 C1 1_555 1_555
C11 C10 1_555 1_555
C12 C11 1_555 1_555
C13 C12 1_555 1_555
C14 C13 1_555 1_555
C15 C14 1_555 1_555
C16 C11 1_555 1_555
C26 H12 1_555 1_555
H13 C26 1_555 1_555
H14 C26 1_555 1_555
C27 H15 1_555 1_555
H16 C27 1_555 1_555
H17 C27 1_555 1_555
N5 C14 1_555 1_555
C29 H18 1_555 1_555
C30 C29 1_555 1_555
H19 C30 1_555 1_555
C31 C30 1_555 1_555
C32 C31 1_555 1_555
C33 C32 1_555 1_555
C34 C33 1_555 1_555
H20 C34 1_555 1_555
C35 C34 1_555 1_555
H21 C35 1_555 1_555
C36 C10 1_555 1_555
C44 C32 1_555 1_555
C45 C44 1_555 1_555
H22 C45 1_555 1_555
C46 C45 1_555 1_555
H23 C46 1_555 1_555
C47 C46 1_555 1_555
C48 C47 1_555 1_555
H24 C48 1_555 1_555
C49 C44 1_555 1_555
H25 C49 1_555 1_555
C50 H26 1_555 1_555
C51 H27 1_555 1_555
C52 C51 1_555 1_555
H28 C52 1_555 1_555
N6 Fe1_4 1_555 1_555
N7 Fe1_4 1_555 1_555
N8 C50 1_555 1_555
N9 C47 1_555 1_555
Fe3 N8 1_555 1_555
C15 C16 1_555 1_555
C26 N5 1_555 1_555
C27 N5 1_555 1_555
C31 N6 1_555 1_555
C33 N7 1_555 1_555
C35 C36 1_555 1_555
C36 N7 1_555 1_555
C48 C49 1_555 1_555
C50 N9 1_555 1_555
C51 N9 1_555 1_555
C52 N8 1_555 1_555
Fe1_5 N1_2 1_555 1_555
F1_2 C12_2 1_555 1_555
F2_2 C13_2 1_555 1_555
F3_2 C15_2 1_555 1_555
F4_2 C16_2 1_555 1_555
C1_2 C2_2 1_555 1_555
C2_2 H1_2 1_555 1_555
C3_2 C2_2 1_555 1_555
H2_2 C3_2 1_555 1_555
C4_2 C3_2 1_555 1_555
C5_2 C4_2 1_555 1_555
C6_2 C5_2 1_555 1_555
C7_2 C6_2 1_555 1_555
H3_2 C7_2 1_555 1_555
C8_2 C7_2 1_555 1_555
H4_2 C8_2 1_555 1_555
C9_2 C8_2 1_555 1_555
C10_2 C1_2 1_555 1_555
C11_2 C10_2 1_555 1_555
C12_2 C11_2 1_555 1_555
C13_2 C12_2 1_555 1_555
C14_2 C13_2 1_555 1_555
C15_2 C14_2 1_555 1_555
C16_2 C11_2 1_555 1_555
C17_2 C5_2 1_555 1_555
C18_2 C17_2 1_555 1_555
H5_2 C18_2 1_555 1_555
C19_2 C18_2 1_555 1_555
H6_2 C19_2 1_555 1_555
C20_2 C19_2 1_555 1_555
C21_2 C20_2 1_555 1_555
H7_2 C21_2 1_555 1_555
C22_2 C17_2 1_555 1_555
H8_2 C22_2 1_555 1_555
C23_2 H9_2 1_555 1_555
C24_2 H10_2 1_555 1_555
C25_2 C24_2 1_555 1_555
H11_2 C25_2 1_555 1_555
C26_2 H12_2 1_555 1_555
H13_2 C26_2 1_555 1_555
H14_2 C26_2 1_555 1_555
C27_2 H15_2 1_555 1_555
H16_2 C27_2 1_555 1_555
H17_2 C27_2 1_555 1_555
N1_2 C1_2 1_555 1_555
N2_2 Fe1_5 1_555 1_555
N3_2 C23_2 1_555 1_555
N4_2 C20_2 1_555 1_555
N5_2 C14_2 1_555 1_555
F5_2 C39_2 1_555 1_555
F6_2 C40_2 1_555 1_555
F7_2 C42_2 1_555 1_555
F8_2 C43_2 1_555 1_555
C28_2 C29_2 1_555 1_555
C29_2 H18_2 1_555 1_555
C30_2 C29_2 1_555 1_555
H19_2 C30_2 1_555 1_555
C31_2 C30_2 1_555 1_555
C32_2 C31_2 1_555 1_555
C33_2 C32_2 1_555 1_555
C34_2 C33_2 1_555 1_555
H20_2 C34_2 1_555 1_555
C35_2 C34_2 1_555 1_555
H21_2 C35_2 1_555 1_555
C36_2 C10_2 1_555 1_555
C37_2 C9_2 1_555 1_555
C38_2 C37_2 1_555 1_555
C39_2 C38_2 1_555 1_555
C40_2 C39_2 1_555 1_555
C41_2 C40_2 1_555 1_555
C42_2 C41_2 1_555 1_555
C43_2 C38_2 1_555 1_555
C44_2 C32_2 1_555 1_555
C45_2 C44_2 1_555 1_555
H22_2 C45_2 1_555 1_555
C46_2 C45_2 1_555 1_555
H23_2 C46_2 1_555 1_555
C47_2 C46_2 1_555 1_555
C48_2 C47_2 1_555 1_555
H24_2 C48_2 1_555 1_555
C49_2 C44_2 1_555 1_555
H25_2 C49_2 1_555 1_555
C50_2 H26_2 1_555 1_555
C51_2 H27_2 1_555 1_555
C52_2 C51_2 1_555 1_555
H28_2 C52_2 1_555 1_555
C53_2 H29_2 1_555 1_555
H30_2 C53_2 1_555 1_555
H31_2 C53_2 1_555 1_555
C54_2 H32_2 1_555 1_555
H33_2 C54_2 1_555 1_555
H34_2 C54_2 1_555 1_555
N6_2 Fe1_5 1_555 1_555
N7_2 Fe1_5 1_555 1_555
N8_2 C50_2 1_555 1_555
N9_2 C47_2 1_555 1_555
N10_2 C41_2 1_555 1_555
Fe2_2 N3_2 1_555 1_555
Fe3_2 N8_2 1_555 1_555
N11_2 Fe1_5 1_555 1_555
N12_2 Fe1_5 1_555 1_555
C4_2 N1_2 1_555 1_555
C6_2 N2_2 1_555 1_555
C9_2 N2_2 1_555 1_555
C15_2 C16_2 1_555 1_555
C21_2 C22_2 1_555 1_555
C23_2 N4_2 1_555 1_555
C24_2 N4_2 1_555 1_555
C25_2 N3_2 1_555 1_555
C26_2 N5_2 1_555 1_555
C27_2 N5_2 1_555 1_555
C28_2 C37_2 1_555 1_555
C28_2 N6_2 1_555 1_555
C31_2 N6_2 1_555 1_555
C33_2 N7_2 1_555 1_555
C35_2 C36_2 1_555 1_555
C36_2 N7_2 1_555 1_555
C42_2 C43_2 1_555 1_555
C48_2 C49_2 1_555 1_555
C50_2 N9_2 1_555 1_555
C51_2 N9_2 1_555 1_555
C52_2 N8_2 1_555 1_555
C53_2 N10_2 1_555 1_555
C54_2 N10_2 1_555 1_555
Fe2 N1_3 1_555 1_555
F1_3 C12_3 1_555 1_555
F2_3 C13_3 1_555 1_555
F3_3 C15_3 1_555 1_555
F4_3 C16_3 1_555 1_555
C1_3 C2_3 1_555 1_555
C2_3 H1_3 1_555 1_555
C3_3 C2_3 1_555 1_555
H2_3 C3_3 1_555 1_555
C4_3 C3_3 1_555 1_555
C5_3 C4_3 1_555 1_555
C6_3 C5_3 1_555 1_555
C7_3 C6_3 1_555 1_555
H3_3 C7_3 1_555 1_555
C8_3 C7_3 1_555 1_555
H4_3 C8_3 1_555 1_555
C9_3 C8_3 1_555 1_555
C10_3 C1_3 1_555 1_555
C11_3 C10_3 1_555 1_555
C12_3 C11_3 1_555 1_555
C13_3 C12_3 1_555 1_555
C14_3 C13_3 1_555 1_555
C15_3 C14_3 1_555 1_555
C16_3 C11_3 1_555 1_555
C17_3 C5_3 1_555 1_555
C18_3 C17_3 1_555 1_555
H5_3 C18_3 1_555 1_555
C19_3 C18_3 1_555 1_555
H6_3 C19_3 1_555 1_555
C20_3 C19_3 1_555 1_555
C21_3 C20_3 1_555 1_555
H7_3 C21_3 1_555 1_555
C22_3 C17_3 1_555 1_555
H8_3 C22_3 1_555 1_555
C23_3 H9_3 1_555 1_555
C24_3 H10_3 1_555 1_555
C25_3 C24_3 1_555 1_555
H11_3 C25_3 1_555 1_555
C26_3 H12_3 1_555 1_555
H13_3 C26_3 1_555 1_555
H14_3 C26_3 1_555 1_555
C27_3 H15_3 1_555 1_555
H16_3 C27_3 1_555 1_555
H17_3 C27_3 1_555 1_555
N1_3 C1_3 1_555 1_555
N2_3 Fe2 1_555 1_555
N11_2 C23_3 1_555 1_555
N4_3 C20_3 1_555 1_555
N5_3 C14_3 1_555 1_555
F5_3 C39_3 1_555 1_555
F8_3 C43_3 1_555 1_555
C28_3 C29_3 1_555 1_555
C29_3 H18_3 1_555 1_555
C30_3 C29_3 1_555 1_555
H19_3 C30_3 1_555 1_555
C31_3 C30_3 1_555 1_555
C32_3 C31_3 1_555 1_555
C33_3 C32_3 1_555 1_555
C34_3 C33_3 1_555 1_555
H20_3 C34_3 1_555 1_555
C35_3 C34_3 1_555 1_555
H21_3 C35_3 1_555 1_555
C36_3 C10_3 1_555 1_555
C37_3 C9_3 1_555 1_555
C38_3 C37_3 1_555 1_555
C39_3 C38_3 1_555 1_555
C40_3 C39_3 1_555 1_555
C43_3 C38_3 1_555 1_555
C44_3 C32_3 1_555 1_555
C45_3 C44_3 1_555 1_555
H22_3 C45_3 1_555 1_555
C46_3 C45_3 1_555 1_555
H23_3 C46_3 1_555 1_555
C47_3 C46_3 1_555 1_555
C48_3 C47_3 1_555 1_555
H24_3 C48_3 1_555 1_555
C49_3 C44_3 1_555 1_555
H25_3 C49_3 1_555 1_555
C50_3 H26_3 1_555 1_555
N6_3 Fe2 1_555 1_555
N7_3 Fe2 1_555 1_555
N8_3 C50_3 1_555 1_555
N9_3 C47_3 1_555 1_555
Fe3_3 N8_3 1_555 1_555
N12_3 Fe2 1_555 1_555
C4_3 N1_3 1_555 1_555
C6_3 N2_3 1_555 1_555
C9_3 N2_3 1_555 1_555
C15_3 C16_3 1_555 1_555
C21_3 C22_3 1_555 1_555
C23_3 N4_3 1_555 1_555
C24_3 N4_3 1_555 1_555
C25_3 N11_2 1_555 1_555
C26_3 N5_3 1_555 1_555
C27_3 N5_3 1_555 1_555
C28_3 C37_3 1_555 1_555
C28_3 N6_3 1_555 1_555
C31_3 N6_3 1_555 1_555
C33_3 N7_3 1_555 1_555
C35_3 C36_3 1_555 1_555
C36_3 N7_3 1_555 1_555
C42_3 C43_3 1_555 1_555
C48_3 C49_3 1_555 1_555
C50_3 N9_3 1_555 1_555
C53_3 H29_3 1_555 1_555
H30_3 C53_3 1_555 1_555
H31_3 C53_3 1_555 1_555
C54_3 H32_3 1_555 1_555
H33_3 C54_3 1_555 1_555
H34_3 C54_3 1_555 1_555
N10_3 C41_3 1_555 1_555
C53_3 N10_3 1_555 1_555
C54_3 N10_3 1_555 1_555
C51_3 H27_3 1_555 1_555
C52_3 C51_3 1_555 1_555
H28_3 C52_3 1_555 1_555
Fe3_7 N8_4 1_555 1_555
C52_3 N8_4 1_555 1_555
Fe2_2 N1_4 1_555 1_555
F1_4 C12_4 1_555 1_555
F4_4 C16_4 1_555 1_555
C1_4 C2_4 1_555 1_555
C2_4 H1_4 1_555 1_555
C3_4 C2_4 1_555 1_555
H2_4 C3_4 1_555 1_555
C4_4 C3_4 1_555 1_555
C5_4 C4_4 1_555 1_555
C6_4 C5_4 1_555 1_555
C7_4 C6_4 1_555 1_555
H3_4 C7_4 1_555 1_555
C8_4 C7_4 1_555 1_555
H4_4 C8_4 1_555 1_555
C9_4 C8_4 1_555 1_555
C10_4 C1_4 1_555 1_555
C11_4 C10_4 1_555 1_555
C12_4 C11_4 1_555 1_555
C13_4 C12_4 1_555 1_555
C16_4 C11_4 1_555 1_555
C17_4 C5_4 1_555 1_555
C18_4 C17_4 1_555 1_555
H5_4 C18_4 1_555 1_555
C19_4 C18_4 1_555 1_555
H6_4 C19_4 1_555 1_555
C20_4 C19_4 1_555 1_555
C21_4 C20_4 1_555 1_555
H7_4 C21_4 1_555 1_555
C22_4 C17_4 1_555 1_555
H8_4 C22_4 1_555 1_555
C23_4 H9_4 1_555 1_555
C24_4 H10_4 1_555 1_555
C25_4 C24_4 1_555 1_555
H11_4 C25_4 1_555 1_555
N1_4 C1_4 1_555 1_555
N2_4 Fe2_2 1_555 1_555
N11 C23_4 1_555 1_555
N4_4 C20_4 1_555 1_555
F5_4 C39_4 1_555 1_555
F6_4 C40_4 1_555 1_555
F7_4 C42_4 1_555 1_555
F8_4 C43_4 1_555 1_555
C28_4 C29_4 1_555 1_555
C29_4 H18_4 1_555 1_555
C30_4 C29_4 1_555 1_555
H19_4 C30_4 1_555 1_555
C31_4 C30_4 1_555 1_555
C32_4 C31_4 1_555 1_555
C33_4 C32_4 1_555 1_555
C34_4 C33_4 1_555 1_555
H20_4 C34_4 1_555 1_555
C35_4 C34_4 1_555 1_555
H21_4 C35_4 1_555 1_555
C36_4 C10_4 1_555 1_555
C37_4 C9_4 1_555 1_555
C38_4 C37_4 1_555 1_555
C39_4 C38_4 1_555 1_555
C40_4 C39_4 1_555 1_555
C41_4 C40_4 1_555 1_555
C42_4 C41_4 1_555 1_555
C43_4 C38_4 1_555 1_555
C44_4 C32_4 1_555 1_555
C45_4 C44_4 1_555 1_555
H22_4 C45_4 1_555 1_555
C46_4 C45_4 1_555 1_555
H23_4 C46_4 1_555 1_555
C47_4 C46_4 1_555 1_555
C48_4 C47_4 1_555 1_555
H24_4 C48_4 1_555 1_555
C49_4 C44_4 1_555 1_555
H25_4 C49_4 1_555 1_555
C50_4 H26_4 1_555 1_555
C53_4 H29_4 1_555 1_555
H30_4 C53_4 1_555 1_555
H31_4 C53_4 1_555 1_555
C54_4 H32_4 1_555 1_555
H33_4 C54_4 1_555 1_555
H34_4 C54_4 1_555 1_555
N6_4 Fe2_2 1_555 1_555
N7_4 Fe2_2 1_555 1_555
N8_5 C50_4 1_555 1_555
N9_4 C47_4 1_555 1_555
N10_4 C41_4 1_555 1_555
Fe3_8 N8_5 1_555 1_555
N12_4 Fe2_2 1_555 1_555
C4_4 N1_4 1_555 1_555
C6_4 N2_4 1_555 1_555
C9_4 N2_4 1_555 1_555
C15_4 C16_4 1_555 1_555
C21_4 C22_4 1_555 1_555
C23_4 N4_4 1_555 1_555
C24_4 N4_4 1_555 1_555
C25_4 N11 1_555 1_555
C28_4 C37_4 1_555 1_555
C28_4 N6_4 1_555 1_555
C31_4 N6_4 1_555 1_555
C33_4 N7_4 1_555 1_555
C35_4 C36_4 1_555 1_555
C36_4 N7_4 1_555 1_555
C42_4 C43_4 1_555 1_555
C48_4 C49_4 1_555 1_555
C50_4 N9_4 1_555 1_555
C53_4 N10_4 1_555 1_555
C54_4 N10_4 1_555 1_555
C26_4 H12_4 1_555 1_555
H13_4 C26_4 1_555 1_555
H14_4 C26_4 1_555 1_555
C27_4 H15_4 1_555 1_555
H16_4 C27_4 1_555 1_555
H17_4 C27_4 1_555 1_555
N5_4 C14_4 1_555 1_555
C26_4 N5_4 1_555 1_555
C27_4 N5_4 1_555 1_555
H3_5 C7_5 1_555 1_555
C8_5 C7_5 1_555 1_555
H4_5 C8_5 1_555 1_555
C9_5 C8_5 1_555 1_555
N2_5 Fe3_7 1_555 1_555
F5_5 C39_5 1_555 1_555
F6_5 C40_5 1_555 1_555
F7_5 C42_5 1_555 1_555
F8_5 C43_5 1_555 1_555
C28_5 C29_5 1_555 1_555
C29_5 H18_5 1_555 1_555
C30_5 C29_5 1_555 1_555
H19_5 C30_5 1_555 1_555
C31_5 C30_5 1_555 1_555
C32_5 C31_5 1_555 1_555
C33_5 C32_5 1_555 1_555
C37_5 C9_5 1_555 1_555
C38_5 C37_5 1_555 1_555
C39_5 C38_5 1_555 1_555
C40_5 C39_5 1_555 1_555
C41_5 C40_5 1_555 1_555
C42_5 C41_5 1_555 1_555
C43_5 C38_5 1_555 1_555
C44_5 C32_5 1_555 1_555
C45_5 C44_5 1_555 1_555
H22_5 C45_5 1_555 1_555
C46_5 C45_5 1_555 1_555
H23_5 C46_5 1_555 1_555
C47_5 C46_5 1_555 1_555
C48_5 C47_5 1_555 1_555
H24_5 C48_5 1_555 1_555
C49_5 C44_5 1_555 1_555
H25_5 C49_5 1_555 1_555
C50_5 H26_5 1_555 1_555
C51_4 H27_4 1_555 1_555
C52_4 C51_4 1_555 1_555
H28_4 C52_4 1_555 1_555
C53_5 H29_5 1_555 1_555
H30_5 C53_5 1_555 1_555
H31_5 C53_5 1_555 1_555
C54_5 H32_5 1_555 1_555
H33_5 C54_5 1_555 1_555
H34_5 C54_5 1_555 1_555
N6_5 Fe3_7 1_555 1_555
N12_3 C50_5 1_555 1_555
N9_5 C47_5 1_555 1_555
N10_5 C41_5 1_555 1_555
N11_3 Fe3_7 1_555 1_555
C9_5 N2_5 1_555 1_555
C28_5 C37_5 1_555 1_555
C28_5 N6_5 1_555 1_555
C31_5 N6_5 1_555 1_555
C42_5 C43_5 1_555 1_555
C48_5 C49_5 1_555 1_555
C50_5 N9_5 1_555 1_555
C51_4 N9_5 1_555 1_555
C52_4 N12_3 1_555 1_555
C53_5 N10_5 1_555 1_555
C54_5 N10_5 1_555 1_555
Fe3_8 N1_5 1_555 1_555
F1_5 C12_5 1_555 1_555
F2_5 C13_5 1_555 1_555
F3_5 C15_5 1_555 1_555
F4_5 C16_5 1_555 1_555
C1_5 C2_5 1_555 1_555
C2_5 H1_5 1_555 1_555
C3_5 C2_5 1_555 1_555
H2_5 C3_5 1_555 1_555
C4_5 C3_5 1_555 1_555
C5_5 C4_5 1_555 1_555
C6_5 C5_5 1_555 1_555
C10_5 C1_5 1_555 1_555
C11_5 C10_5 1_555 1_555
C12_5 C11_5 1_555 1_555
C13_5 C12_5 1_555 1_555
C14_5 C13_5 1_555 1_555
C15_5 C14_5 1_555 1_555
C16_5 C11_5 1_555 1_555
C17_5 C5_5 1_555 1_555
C18_5 C17_5 1_555 1_555
H5_5 C18_5 1_555 1_555
C19_5 C18_5 1_555 1_555
H6_5 C19_5 1_555 1_555
C20_5 C19_5 1_555 1_555
C21_5 C20_5 1_555 1_555
H7_5 C21_5 1_555 1_555
C22_5 C17_5 1_555 1_555
H8_5 C22_5 1_555 1_555
C23_5 H9_5 1_555 1_555
C24_5 H10_5 1_555 1_555
C25_5 C24_5 1_555 1_555
H11_5 C25_5 1_555 1_555
C26_5 H12_5 1_555 1_555
H13_5 C26_5 1_555 1_555
H14_5 C26_5 1_555 1_555
C27_5 H15_5 1_555 1_555
H16_5 C27_5 1_555 1_555
H17_5 C27_5 1_555 1_555
N1_5 C1_5 1_555 1_555
N3_3 C23_5 1_555 1_555
N4_5 C20_5 1_555 1_555
N5_5 C14_5 1_555 1_555
H20_5 C34_5 1_555 1_555
C35_5 C34_5 1_555 1_555
H21_5 C35_5 1_555 1_555
C36_5 C10_5 1_555 1_555
N7_5 Fe3_8 1_555 1_555
Fe3 N3_3 1_555 1_555
N11_4 Fe3_8 1_555 1_555
C4_5 N1_5 1_555 1_555
C15_5 C16_5 1_555 1_555
C21_5 C22_5 1_555 1_555
C23_5 N4_5 1_555 1_555
C24_5 N4_5 1_555 1_555
C25_5 N3_3 1_555 1_555
C26_5 N5_5 1_555 1_555
C27_5 N5_5 1_555 1_555
C35_5 C36_5 1_555 1_555
C36_5 N7_5 1_555 1_555
C29_6 H18_6 1_555 1_555
C30_6 C29_6 1_555 1_555
H19_6 C30_6 1_555 1_555
C31_6 C30_6 1_555 1_555
C32_6 C31_6 1_555 1_555
C33_6 C32_6 1_555 1_555
C44_6 C32_6 1_555 1_555
C45_6 C44_6 1_555 1_555
H22_6 C45_6 1_555 1_555
C46_6 C45_6 1_555 1_555
H23_6 C46_6 1_555 1_555
C47_6 C46_6 1_555 1_555
C48_6 C47_6 1_555 1_555
H24_6 C48_6 1_555 1_555
C49_6 C44_6 1_555 1_555
H25_6 C49_6 1_555 1_555
C50_6 H26_6 1_555 1_555
C51_5 H27_5 1_555 1_555
C52_5 C51_5 1_555 1_555
H28_5 C52_5 1_555 1_555
N6_6 Fe3_4 1_555 1_555
N12_4 C50_6 1_555 1_555
N9_6 C47_6 1_555 1_555
C31_6 N6_6 1_555 1_555
C48_6 C49_6 1_555 1_555
C50_6 N9_6 1_555 1_555
C51_5 N9_6 1_555 1_555
C52_5 N12_4 1_555 1_555
Fe3_5 N1_6 1_555 1_555
C2_6 H1_6 1_555 1_555
C3_6 C2_6 1_555 1_555
H2_6 C3_6 1_555 1_555
C4_6 C3_6 1_555 1_555
C5_6 C4_6 1_555 1_555
C6_6 C5_6 1_555 1_555
C17_6 C5_6 1_555 1_555
C18_6 C17_6 1_555 1_555
H5_6 C18_6 1_555 1_555
C19_6 C18_6 1_555 1_555
H6_6 C19_6 1_555 1_555
C20_6 C19_6 1_555 1_555
C21_6 C20_6 1_555 1_555
H7_6 C21_6 1_555 1_555
C22_6 C17_6 1_555 1_555
H8_6 C22_6 1_555 1_555
C23_6 H9_6 1_555 1_555
C24_6 H10_6 1_555 1_555
C25_6 C24_6 1_555 1_555
H11_6 C25_6 1_555 1_555
N3_4 C23_6 1_555 1_555
N4_6 C20_6 1_555 1_555
Fe3_2 N3_4 1_555 1_555
C4_6 N1_6 1_555 1_555
C21_6 C22_6 1_555 1_555
C23_6 N4_6 1_555 1_555
C24_6 N4_6 1_555 1_555
C25_6 N3_4 1_555 1_555
N11_5 Fe3_6 1_555 1_555
C26_6 H12_6 1_555 1_555
H13_6 C26_6 1_555 1_555
H14_6 C26_6 1_555 1_555
C27_6 H15_6 1_555 1_555
H16_6 C27_6 1_555 1_555
H17_6 C27_6 1_555 1_555
N5_6 C14_6 1_555 1_555
C26_6 N5_6 1_555 1_555
C27_6 N5_6 1_555 1_555
Fe3 N1_7 1_555 1_555
F1_6 C12_6 1_555 1_555
F4_7 C16_6 1_555 1_555
C1_6 C2_7 1_555 1_555
C2_7 H1_7 1_555 1_555
C3_7 C2_7 1_555 1_555
H2_7 C3_7 1_555 1_555
C4_7 C3_7 1_555 1_555
C5_7 C4_7 1_555 1_555
C6_7 C5_7 1_555 1_555
C7_6 C6_7 1_555 1_555
H3_6 C7_6 1_555 1_555
C8_6 C7_6 1_555 1_555
H4_6 C8_6 1_555 1_555
C9_6 C8_6 1_555 1_555
C10_6 C1_6 1_555 1_555
C11_6 C10_6 1_555 1_555
C12_6 C11_6 1_555 1_555
C13_6 C12_6 1_555 1_555
C16_6 C11_6 1_555 1_555
C17_7 C5_7 1_555 1_555
C18_7 C17_7 1_555 1_555
H5_7 C18_7 1_555 1_555
C19_7 C18_7 1_555 1_555
H6_7 C19_7 1_555 1_555
C20_7 C19_7 1_555 1_555
C21_7 C20_7 1_555 1_555
H7_7 C21_7 1_555 1_555
C22_7 C17_7 1_555 1_555
H8_7 C22_7 1_555 1_555
C23_7 H9_7 1_555 1_555
N1_7 C1_6 1_555 1_555
N2_6 Fe3 1_555 1_555
N11_5 C23_7 1_555 1_555
N4_7 C20_7 1_555 1_555
F5_6 C39_6 1_555 1_555
F6_6 C40_6 1_555 1_555
F7_7 C42_6 1_555 1_555
F8_7 C43_6 1_555 1_555
C28_6 C29_7 1_555 1_555
C29_7 H18_7 1_555 1_555
C30_7 C29_7 1_555 1_555
H19_7 C30_7 1_555 1_555
C31_7 C30_7 1_555 1_555
C32_7 C31_7 1_555 1_555
C33_7 C32_7 1_555 1_555
C34_6 C33_7 1_555 1_555
H20_6 C34_6 1_555 1_555
C35_6 C34_6 1_555 1_555
H21_6 C35_6 1_555 1_555
C36_6 C10_6 1_555 1_555
C37_6 C9_6 1_555 1_555
C38_6 C37_6 1_555 1_555
C39_6 C38_6 1_555 1_555
C40_6 C39_6 1_555 1_555
C41_6 C40_6 1_555 1_555
C42_6 C41_6 1_555 1_555
C43_6 C38_6 1_555 1_555
C44_7 C32_7 1_555 1_555
C45_7 C44_7 1_555 1_555
H22_7 C45_7 1_555 1_555
C46_7 C45_7 1_555 1_555
H23_7 C46_7 1_555 1_555
C47_7 C46_7 1_555 1_555
C48_7 C47_7 1_555 1_555
H24_7 C48_7 1_555 1_555
C49_7 C44_7 1_555 1_555
H25_7 C49_7 1_555 1_555
C50_7 H26_7 1_555 1_555
C51_6 H27_6 1_555 1_555
C52_6 C51_6 1_555 1_555
H28_6 C52_6 1_555 1_555
C53_6 H29_6 1_555 1_555
H30_6 C53_6 1_555 1_555
H31_6 C53_6 1_555 1_555
C54_6 H32_6 1_555 1_555
H33_6 C54_6 1_555 1_555
H34_6 C54_6 1_555 1_555
N6_7 Fe3 1_555 1_555
N7_6 Fe3 1_555 1_555
N12_2 C50_7 1_555 1_555
N9_7 C47_7 1_555 1_555
N10_6 C41_6 1_555 1_555
C4_7 N1_7 1_555 1_555
C6_7 N2_6 1_555 1_555
C9_6 N2_6 1_555 1_555
C15_6 C16_6 1_555 1_555
C21_7 C22_7 1_555 1_555
C23_7 N4_7 1_555 1_555
C28_6 C37_6 1_555 1_555
C28_6 N6_7 1_555 1_555
C31_7 N6_7 1_555 1_555
C33_7 N7_6 1_555 1_555
C35_6 C36_6 1_555 1_555
C36_6 N7_6 1_555 1_555
C42_6 C43_6 1_555 1_555
C48_7 C49_7 1_555 1_555
C50_7 N9_7 1_555 1_555
C51_6 N9_7 1_555 1_555
C52_6 N12_2 1_555 1_555
C53_6 N10_6 1_555 1_555
C54_6 N10_6 1_555 1_555
C53_7 H29_7 1_555 1_555
H30_7 C53_7 1_555 1_555
H31_7 C53_7 1_555 1_555
C54_7 H32_7 1_555 1_555
H33_7 C54_7 1_555 1_555
H34_7 C54_7 1_555 1_555
N10_7 C41_7 1_555 1_555
C53_7 N10_7 1_555 1_555
C54_7 N10_7 1_555 1_555
Fe3_2 N1_8 1_555 1_555
F1_7 C12_7 1_555 1_555
F2_7 C13_7 1_555 1_555
F3_8 C15_7 1_555 1_555
F4_8 C16_7 1_555 1_555
C1_7 C2_8 1_555 1_555
C2_8 H1_8 1_555 1_555
C3_8 C2_8 1_555 1_555
H2_8 C3_8 1_555 1_555
C4_8 C3_8 1_555 1_555
C5_8 C4_8 1_555 1_555
C6_8 C5_8 1_555 1_555
C7_7 C6_8 1_555 1_555
H3_7 C7_7 1_555 1_555
C8_7 C7_7 1_555 1_555
H4_7 C8_7 1_555 1_555
C9_7 C8_7 1_555 1_555
C10_7 C1_7 1_555 1_555
C11_7 C10_7 1_555 1_555
C12_7 C11_7 1_555 1_555
C13_7 C12_7 1_555 1_555
C14_7 C13_7 1_555 1_555
C15_7 C14_7 1_555 1_555
C16_7 C11_7 1_555 1_555
C17_8 C5_8 1_555 1_555
C18_8 C17_8 1_555 1_555
H5_8 C18_8 1_555 1_555
C19_8 C18_8 1_555 1_555
H6_8 C19_8 1_555 1_555
C20_8 C19_8 1_555 1_555
C21_8 C20_8 1_555 1_555
H7_8 C21_8 1_555 1_555
C22_8 C17_8 1_555 1_555
H8_8 C22_8 1_555 1_555
C23_8 H9_8 1_555 1_555
C26_7 H12_7 1_555 1_555
H13_7 C26_7 1_555 1_555
H14_7 C26_7 1_555 1_555
C27_7 H15_7 1_555 1_555
H16_7 C27_7 1_555 1_555
H17_7 C27_7 1_555 1_555
N1_8 C1_7 1_555 1_555
N2_7 Fe3_2 1_555 1_555
N11_3 C23_8 1_555 1_555
N4_8 C20_8 1_555 1_555
N5_7 C14_7 1_555 1_555
F5_7 C39_7 1_555 1_555
F8_8 C43_7 1_555 1_555
C28_7 C29_8 1_555 1_555
C29_8 H18_8 1_555 1_555
C30_8 C29_8 1_555 1_555
H19_8 C30_8 1_555 1_555
C31_8 C30_8 1_555 1_555
C32_8 C31_8 1_555 1_555
C33_8 C32_8 1_555 1_555
C34_7 C33_8 1_555 1_555
H20_7 C34_7 1_555 1_555
C35_7 C34_7 1_555 1_555
H21_7 C35_7 1_555 1_555
C36_7 C10_7 1_555 1_555
C37_7 C9_7 1_555 1_555
C38_7 C37_7 1_555 1_555
C39_7 C38_7 1_555 1_555
C40_7 C39_7 1_555 1_555
C43_7 C38_7 1_555 1_555
C44_8 C32_8 1_555 1_555
C45_8 C44_8 1_555 1_555
H22_8 C45_8 1_555 1_555
C46_8 C45_8 1_555 1_555
H23_8 C46_8 1_555 1_555
C47_8 C46_8 1_555 1_555
C48_8 C47_8 1_555 1_555
H24_8 C48_8 1_555 1_555
C49_8 C44_8 1_555 1_555
H25_8 C49_8 1_555 1_555
C50_8 H26_8 1_555 1_555
C51_7 H27_7 1_555 1_555
C52_7 C51_7 1_555 1_555
H28_7 C52_7 1_555 1_555
N6_8 Fe3_2 1_555 1_555
N7_7 Fe3_2 1_555 1_555
N12 C50_8 1_555 1_555
N9_8 C47_8 1_555 1_555
C4_8 N1_8 1_555 1_555
C6_8 N2_7 1_555 1_555
C9_7 N2_7 1_555 1_555
C15_7 C16_7 1_555 1_555
C21_8 C22_8 1_555 1_555
C23_8 N4_8 1_555 1_555
C26_7 N5_7 1_555 1_555
C27_7 N5_7 1_555 1_555
C28_7 C37_7 1_555 1_555
C28_7 N6_8 1_555 1_555
C31_8 N6_8 1_555 1_555
C33_8 N7_7 1_555 1_555
C35_7 C36_7 1_555 1_555
C36_7 N7_7 1_555 1_555
C42_7 C43_7 1_555 1_555
C48_8 C49_8 1_555 1_555
C50_8 N9_8 1_555 1_555
C51_7 N9_8 1_555 1_555
C52_7 N12 1_555 1_555
C24_7 H10_7 1_555 1_555
C25_7 C24_7 1_555 1_555
H11_7 C25_7 1_555 1_555
C25_7 N11_4 1_555 1_555
F1_8 C12_8 1_555 1_555
F2_8 C13_8 1_555 1_555
C10_8 C1_8 1_555 1_555
C11_8 C10_8 1_555 1_555
C12_8 C11_8 1_555 1_555
C13_8 C12_8 1_555 1_555
C14_8 C13_8 1_555 1_555
C15_8 C14_8 1_555 1_555
C16_8 C11_8 1_555 1_555
C26_8 H12_8 1_555 1_555
H13_8 C26_8 1_555 1_555
H14_8 C26_8 1_555 1_555
C27_8 H15_8 1_555 1_555
H16_8 C27_8 1_555 1_555
H17_8 C27_8 1_555 1_555
N5_8 C14_8 1_555 1_555
H20_8 C34_8 1_555 1_555
C35_8 C34_8 1_555 1_555
H21_8 C35_8 1_555 1_555
C36_8 C10_8 1_555 1_555
N7_8 Fe3_9 1_555 1_555
C15_8 C16_8 1_555 1_555
C26_8 N5_8 1_555 1_555
C27_8 N5_8 1_555 1_555
C35_8 C36_8 1_555 1_555
C36_8 N7_8 1_555 1_555
C51_8 H27_8 1_555 1_555
C52_8 C51_8 1_555 1_555
H28_8 C52_8 1_555 1_555
Fe3_10 N8_6 1_555 1_555
C52_8 N8_6 1_555 1_555
N11_6 Fe3_11 1_555 1_555
C24_8 H10_8 1_555 1_555
C25_8 C24_8 1_555 1_555
H11_8 C25_8 1_555 1_555
C25_8 N11_6 1_555 1_555
H3_8 C7_8 1_555 1_555
C8_8 C7_8 1_555 1_555
H4_8 C8_8 1_555 1_555
C9_8 C8_8 1_555 1_555
N2_8 Fe3_12 1_555 1_555
F5_8 C39_8 1_555 1_555
F6_8 C40_8 1_555 1_555
C37_8 C9_8 1_555 1_555
C38_8 C37_8 1_555 1_555
C39_8 C38_8 1_555 1_555
C40_8 C39_8 1_555 1_555
C41_8 C40_8 1_555 1_555
C42_8 C41_8 1_555 1_555
C43_8 C38_8 1_555 1_555
C53_8 H29_8 1_555 1_555
H30_8 C53_8 1_555 1_555
H31_8 C53_8 1_555 1_555
C54_8 H32_8 1_555 1_555
H33_8 C54_8 1_555 1_555
H34_8 C54_8 1_555 1_555
N10_8 C41_8 1_555 1_555
C9_8 N2_8 1_555 1_555
C28_8 C37_8 1_555 1_555
C42_8 C43_8 1_555 1_555
C53_8 N10_8 1_555 1_555
C54_8 N10_8 1_555 1_555

#END
