
###############################################################################
#
# This file contains modified crystal structure data generated from the
# MOF subset of the Cambridge Structural Database (CSD) v543 
# hosted by the Cambridge Crystallographic Data Centre (CCDC).
#
# This work is licensed under the Creative Commons
# Attribution-NonCommercial-ShareAlike 4.0 International License.
# To view a copy of this license, visit
# http://creativecommons.org/licenses/by-nc-sa/4.0/
# or send a letter to
# Creative Commons, PO Box 1866, Mountain View, CA 94042, USA.
#
# CIF created using the CSD Python API on 29 September 2022
# The structure has been converted into the P1 space group
# The structure has a 3D framework
# The original CSD entry ICITEU is in the cubic crystal system
# The framework has been calculated to contain at least 10.0% void space
# The void calculation uses a probe of radius 1.32A, grid spacing 0.4
# The framework is charged, counterions have been retained in the structure
# H atom positions have been added when not included in the experimental data
#
###############################################################################

data_ICITEU
_chemical_formula_moiety         '(C624 H432 Fe48 N48 O299 S48 40-)n'
_symmetry_cell_setting           triclinic
_symmetry_space_group_name_H-M   'P 1'
_symmetry_Int_Tables_number      1
_space_group_name_Hall           'P 1'
loop_
_symmetry_equiv_pos_site_id
_symmetry_equiv_pos_as_xyz
1 x,y,z
_cell_length_a                   38.5091(12)
_cell_length_b                   38.5091(12)
_cell_length_c                   38.5091(12)
_cell_angle_alpha                90
_cell_angle_beta                 90
_cell_angle_gamma                90
_cell_volume                     57107.1
loop_
_atom_site_label
_atom_site_type_symbol
_atom_site_fract_x
_atom_site_fract_y
_atom_site_fract_z
O85 O 0.0169(4) 0.0897(3) 0.4103(3)
O96 O 0.0041(5) 0.1327(3) 0.3673(3)
H94 H 0.0089 0.0647 0.2589
H96 H 0.0647 0.0089 0.2589
N12 N 0.0598(4) 0.9402(4) 0.3117(5)
C110 C 0.0704(6) 0.9671(6) 0.2969(5)
C111 C 0.0329(6) 0.9296(6) 0.2969(5)
H72 H 0.0240 0.9091 0.3061
H73 H 0.0909 0.9760 0.3061
C133 C 0.0559(8) 0.9878(7) 0.2666(6)
C134 C 0.0122(7) 0.9441(8) 0.2666(6)
C145 C 0.0285(6) 0.9715(6) 0.2525(8)
C156 C 0.0115(5) 0.9885(5) 0.2194(7)
Fe23 Fe 0.08132(4) 0.91868(4) 0.35778(6)
H108 H 0.0205793 0.979421 0.194204
N1 N 0.5598(4) 0.0598(4) 0.1883(5)
O1 O 0.5766(2) 0.1270(3) 0.1672(2)
O2 O 0.6012(3) 0.1012(3) 0.1012(3)
O3 O 0.5322(2) 0.0825(2) 0.1264(2)
O4 O 0.4831(4) 0.0897(3) 0.0897(3)
O5 O 0.4959(5) 0.1327(3) 0.1327(3)
S1 S 0.51009(15) 0.10803(11) 0.10803(11)
C1 C 0.5757(6) 0.1579(4) 0.1579(4)
C2 C 0.5719(6) 0.1849(3) 0.1849(3)
C3 C 0.5719(6) 0.1765(4) 0.2186(5)
H1 H 0.5724 0.1531 0.2246
C4 C 0.5712(7) 0.2016(4) 0.2455(4)
H2 H 0.5701 0.1951 0.2687
C5 C 0.5721(7) 0.2357(4) 0.2357(4)
C6 C 0.5329(6) 0.0704(6) 0.2031(5)
H3 H 0.5240 0.0909 0.1939
C7 C 0.5122(7) 0.0559(8) 0.2334(6)
H4 H 0.4911 0.0647 0.2411
C8 C 0.5285(6) 0.0285(6) 0.2475(8)
C9 C 0.5115(5) 0.0115(5) 0.2806(7)
Fe1 Fe 0.58132(4) 0.08132(4) 0.14222(6)
N3 N 0.5598(4) 0.1883(5) 0.0598(4)
N5 N 0.5598(4) 0.4402(4) 0.3117(5)
N6 N 0.4402(4) 0.5598(4) 0.3117(5)
N7 N 0.5598(4) 0.3117(5) 0.4402(4)
N8 N 0.4402(4) 0.3117(5) 0.5598(4)
N9 N 0.6883(5) 0.0598(4) 0.0598(4)
N11 N 0.9402(4) 0.0598(4) 0.3117(5)
N13 N 0.8117(5) 0.0598(4) 0.4402(4)
O6 O 0.5766(2) 0.1672(2) 0.1270(3)
O7 O 0.5766(2) 0.3730(3) 0.3328(2)
O8 O 0.5766(2) 0.3328(2) 0.3730(3)
O9 O 0.6270(3) 0.0766(2) 0.1672(2)
O10 O 0.6672(2) 0.0766(2) 0.1270(3)
O11 O 0.8730(3) 0.0766(2) 0.3328(2)
O12 O 0.8328(2) 0.0766(2) 0.3730(3)
O21 O 0.6270(3) 0.1672(2) 0.0766(2)
O22 O 0.6672(2) 0.1270(3) 0.0766(2)
O23 O 0.8730(3) 0.3328(2) 0.0766(2)
O24 O 0.8328(2) 0.3730(3) 0.0766(2)
O25 O 0.6270(3) 0.4234(2) 0.3328(2)
O26 O 0.6672(2) 0.4234(2) 0.3730(3)
O27 O 0.8730(3) 0.4234(2) 0.1672(2)
O28 O 0.8328(2) 0.4234(2) 0.1270(3)
O29 O 0.6270(3) 0.3328(2) 0.4234(2)
O30 O 0.9234(2) 0.1270(3) 0.3328(2)
O31 O 0.8328(2) 0.1270(3) 0.4234(2)
O34 O 0.4234(2) 0.6270(3) 0.3328(2)
O35 O 0.3730(3) 0.5766(2) 0.3328(2)
O36 O 0.4234(2) 0.3328(2) 0.6270(3)
O37 O 0.3730(3) 0.3328(2) 0.5766(2)
O41 O 0.6012(3) 0.3988(3) 0.3988(3)
O42 O 0.8988(3) 0.1012(3) 0.3988(3)
O44 O 0.3988(3) 0.6012(3) 0.3988(3)
O45 O 0.3988(3) 0.3988(3) 0.6012(3)
O47 O 0.5322(2) 0.1264(2) 0.0825(2)
O48 O 0.5825(2) 0.0322(2) 0.1264(2)
O49 O 0.6264(2) 0.0322(2) 0.0825(2)
O54 O 0.5825(2) 0.1264(2) 0.0322(2)
O55 O 0.6264(2) 0.0825(2) 0.0322(2)
O56 O 0.5322(2) 0.4175(2) 0.3736(2)
O57 O 0.5322(2) 0.3736(2) 0.4175(2)
O58 O 0.5825(2) 0.4678(2) 0.3736(2)
O59 O 0.6264(2) 0.4678(2) 0.4175(2)
O60 O 0.5825(2) 0.3736(2) 0.4678(2)
O61 O 0.6264(2) 0.4175(2) 0.4678(2)
O62 O 0.9175(2) 0.0322(2) 0.3736(2)
O63 O 0.8736(2) 0.0322(2) 0.4175(2)
O64 O 0.9678(2) 0.0825(2) 0.3736(2)
O65 O 0.9678(2) 0.1264(2) 0.4175(2)
O66 O 0.8736(2) 0.0825(2) 0.4678(2)
O67 O 0.9175(2) 0.1264(2) 0.4678(2)
O71 O 0.4678(2) 0.5825(2) 0.3736(2)
O72 O 0.4175(2) 0.5322(2) 0.3736(2)
O73 O 0.4678(2) 0.3736(2) 0.5825(2)
O74 O 0.4175(2) 0.3736(2) 0.5322(2)
O79 O 0.4103(3) 0.0169(4) 0.0897(3)
O81 O 0.4831(4) 0.4103(3) 0.4103(3)
O82 O 0.5897(3) 0.5169(4) 0.4103(3)
O83 O 0.5897(3) 0.4103(3) 0.5169(4)
O86 O 0.9103(3) 0.0897(3) 0.5169(4)
O90 O 0.3673(3) 0.0041(5) 0.1327(3)
O92 O 0.4959(5) 0.3673(3) 0.3673(3)
O93 O 0.6327(3) 0.5041(5) 0.3673(3)
O94 O 0.6327(3) 0.3673(3) 0.5041(5)
O97 O 0.8673(3) 0.1327(3) 0.5041(5)
S2 S 0.60803(11) 0.01009(15) 0.10803(11)
S5 S 0.60803(11) 0.10803(11) 0.01009(15)
S6 S 0.51009(15) 0.39197(11) 0.39197(11)
S7 S 0.60803(11) 0.48991(15) 0.39197(11)
S8 S 0.60803(11) 0.39197(11) 0.48991(15)
S9 S 0.89197(11) 0.01009(15) 0.39197(11)
S10 S 0.98991(15) 0.10803(11) 0.39197(11)
S11 S 0.89197(11) 0.10803(11) 0.48991(15)
C10 C 0.5757(6) 0.3421(4) 0.3421(4)
C11 C 0.6579(4) 0.0757(6) 0.1579(4)
C12 C 0.8421(4) 0.0757(6) 0.3421(4)
C17 C 0.6579(4) 0.1579(4) 0.0757(6)
C18 C 0.8421(4) 0.3421(4) 0.0757(6)
C19 C 0.6579(4) 0.4243(6) 0.3421(4)
C20 C 0.8421(4) 0.4243(6) 0.1579(4)
C21 C 0.5719(6) 0.3151(3) 0.3151(3)
C22 C 0.6849(3) 0.0719(6) 0.1849(3)
C23 C 0.8151(3) 0.0719(6) 0.3151(3)
C28 C 0.6849(3) 0.1849(3) 0.0719(6)
C29 C 0.8151(3) 0.3151(3) 0.0719(6)
C30 C 0.6849(3) 0.4281(6) 0.3151(3)
C31 C 0.8151(3) 0.4281(6) 0.1849(3)
C32 C 0.5719(6) 0.2186(5) 0.1765(4)
C33 C 0.5719(6) 0.3235(4) 0.2814(5)
C34 C 0.5719(6) 0.2814(5) 0.3235(4)
C35 C 0.6765(4) 0.0719(6) 0.2186(5)
C36 C 0.7186(5) 0.0719(6) 0.1765(4)
C37 C 0.8235(4) 0.0719(6) 0.2814(5)
C38 C 0.7814(5) 0.0719(6) 0.3235(4)
C47 C 0.6765(4) 0.2186(5) 0.0719(6)
C48 C 0.7186(5) 0.1765(4) 0.0719(6)
C49 C 0.8235(4) 0.2814(5) 0.0719(6)
C50 C 0.7814(5) 0.3235(4) 0.0719(6)
C51 C 0.6765(4) 0.4281(6) 0.2814(5)
C52 C 0.7186(5) 0.4281(6) 0.3235(4)
C53 C 0.8235(4) 0.4281(6) 0.2186(5)
C54 C 0.7814(5) 0.4281(6) 0.1765(4)
H5 H 0.5724 0.2246 0.1531
H6 H 0.5724 0.2754 0.3469
H7 H 0.5724 0.3469 0.2754
H8 H 0.6531 0.0724 0.2246
H9 H 0.7246 0.0724 0.1531
H10 H 0.7754 0.0724 0.3469
H11 H 0.8469 0.0724 0.2754
H20 H 0.6531 0.2246 0.0724
H21 H 0.7246 0.1531 0.0724
H22 H 0.7754 0.3469 0.0724
H23 H 0.8469 0.2754 0.0724
H24 H 0.6531 0.4276 0.2754
H25 H 0.7246 0.4276 0.3469
H26 H 0.7754 0.4276 0.1531
H27 H 0.8469 0.4276 0.2246
C55 C 0.5712(7) 0.2455(4) 0.2016(4)
C56 C 0.5712(7) 0.2984(4) 0.2545(4)
C57 C 0.5712(7) 0.2545(4) 0.2984(4)
C58 C 0.7016(4) 0.0712(7) 0.2455(4)
C59 C 0.7455(4) 0.0712(7) 0.2016(4)
C60 C 0.7984(4) 0.0712(7) 0.2545(4)
C61 C 0.7545(4) 0.0712(7) 0.2984(4)
C70 C 0.7016(4) 0.2455(4) 0.0712(7)
C71 C 0.7455(4) 0.2016(4) 0.0712(7)
C72 C 0.7984(4) 0.2545(4) 0.0712(7)
C73 C 0.7545(4) 0.2984(4) 0.0712(7)
C74 C 0.7016(4) 0.4288(7) 0.2545(4)
C75 C 0.7455(4) 0.4288(7) 0.2984(4)
C76 C 0.7984(4) 0.4288(7) 0.2455(4)
C77 C 0.7545(4) 0.4288(7) 0.2016(4)
H28 H 0.5701 0.2687 0.1951
H29 H 0.5701 0.2313 0.3049
H30 H 0.5701 0.3049 0.2313
H31 H 0.6951 0.0701 0.2687
H32 H 0.7687 0.0701 0.1951
H33 H 0.7313 0.0701 0.3049
H34 H 0.8049 0.0701 0.2313
H43 H 0.6951 0.2687 0.0701
H44 H 0.7687 0.1951 0.0701
H45 H 0.7313 0.3049 0.0701
H46 H 0.8049 0.2313 0.0701
H47 H 0.6951 0.4299 0.2313
H48 H 0.7687 0.4299 0.3049
H49 H 0.7313 0.4299 0.1951
H50 H 0.8049 0.4299 0.2687
C78 C 0.5721(7) 0.2643(4) 0.2643(4)
C79 C 0.7357(4) 0.0721(7) 0.2357(4)
C80 C 0.7643(4) 0.0721(7) 0.2643(4)
C85 C 0.7357(4) 0.2357(4) 0.0721(7)
C86 C 0.7643(4) 0.2643(4) 0.0721(7)
C87 C 0.7357(4) 0.4279(7) 0.2643(4)
C88 C 0.7643(4) 0.4279(7) 0.2357(4)
C89 C 0.5704(6) 0.0329(6) 0.2031(5)
C92 C 0.5329(6) 0.2031(5) 0.0704(6)
C93 C 0.5704(6) 0.2031(5) 0.0329(6)
C96 C 0.5329(6) 0.4296(6) 0.2969(5)
C97 C 0.5704(6) 0.4671(6) 0.2969(5)
C98 C 0.4671(6) 0.5704(6) 0.2969(5)
C99 C 0.4296(6) 0.5329(6) 0.2969(5)
C100 C 0.5329(6) 0.2969(5) 0.4296(6)
C101 C 0.5704(6) 0.2969(5) 0.4671(6)
C102 C 0.4671(6) 0.2969(5) 0.5704(6)
C103 C 0.4296(6) 0.2969(5) 0.5329(6)
C104 C 0.7031(5) 0.0329(6) 0.0704(6)
C105 C 0.7031(5) 0.0704(6) 0.0329(6)
C108 C 0.9296(6) 0.0329(6) 0.2969(5)
C109 C 0.9671(6) 0.0704(6) 0.2969(5)
H51 H 0.5909 0.0240 0.1939
H54 H 0.5240 0.1939 0.0909
H55 H 0.5909 0.1939 0.0240
H58 H 0.5240 0.4091 0.3061
H59 H 0.5909 0.4760 0.3061
H60 H 0.4091 0.5240 0.3061
H61 H 0.4760 0.5909 0.3061
H62 H 0.5240 0.3061 0.4091
H63 H 0.5909 0.3061 0.4760
H64 H 0.4091 0.3061 0.5240
H65 H 0.4760 0.3061 0.5909
H66 H 0.6939 0.0240 0.0909
H67 H 0.6939 0.0909 0.0240
H70 H 0.9091 0.0240 0.3061
H71 H 0.9760 0.0909 0.3061
C112 C 0.5559(8) 0.0122(7) 0.2334(6)
C115 C 0.5122(7) 0.2334(6) 0.0559(8)
C116 C 0.5559(8) 0.2334(6) 0.0122(7)
C119 C 0.5122(7) 0.4441(8) 0.2666(6)
C120 C 0.5559(8) 0.4878(7) 0.2666(6)
C121 C 0.4878(7) 0.5559(8) 0.2666(6)
C122 C 0.4441(8) 0.5122(7) 0.2666(6)
C123 C 0.5122(7) 0.2666(6) 0.4441(8)
C124 C 0.5559(8) 0.2666(6) 0.4878(7)
C125 C 0.4878(7) 0.2666(6) 0.5559(8)
C126 C 0.4441(8) 0.2666(6) 0.5122(7)
C127 C 0.7334(6) 0.0122(7) 0.0559(8)
C128 C 0.7334(6) 0.0559(8) 0.0122(7)
C131 C 0.9441(8) 0.0122(7) 0.2666(6)
C132 C 0.9878(7) 0.0559(8) 0.2666(6)
H75 H 0.4353 0.0089 0.2411
H77 H 0.4911 0.2411 0.0647
H79 H 0.4353 0.2411 0.0089
H81 H 0.4911 0.4353 0.2589
H82 H 0.5647 0.5089 0.2589
H83 H 0.4353 0.4911 0.2589
H84 H 0.5089 0.5647 0.2589
H85 H 0.4911 0.2589 0.4353
H86 H 0.5647 0.2589 0.5089
H87 H 0.4353 0.2589 0.4911
H88 H 0.5089 0.2589 0.5647
C136 C 0.5285(6) 0.2475(8) 0.0285(6)
C138 C 0.5285(6) 0.4715(6) 0.2525(8)
C139 C 0.4715(6) 0.5285(6) 0.2525(8)
C140 C 0.5285(6) 0.2525(8) 0.4715(6)
C141 C 0.4715(6) 0.2525(8) 0.5285(6)
C142 C 0.7475(8) 0.0285(6) 0.0285(6)
C144 C 0.9715(6) 0.0285(6) 0.2525(8)
C147 C 0.5115(5) 0.2806(7) 0.0115(5)
C149 C 0.5115(5) 0.4885(5) 0.2194(7)
C150 C 0.4885(5) 0.5115(5) 0.2194(7)
C151 C 0.5115(5) 0.2194(7) 0.4885(5)
C152 C 0.4885(5) 0.2194(7) 0.5115(5)
C153 C 0.7806(7) 0.0115(5) 0.0115(5)
C155 C 0.9885(5) 0.0115(5) 0.2194(7)
Fe3 Fe 0.58132(4) 0.14222(6) 0.08132(4)
Fe4 Fe 0.58132(4) 0.41868(4) 0.35778(6)
Fe5 Fe 0.58132(4) 0.35778(6) 0.41868(4)
Fe6 Fe 0.64222(6) 0.08132(4) 0.08132(4)
Fe7 Fe 0.91868(4) 0.08132(4) 0.35778(6)
Fe8 Fe 0.85778(6) 0.08132(4) 0.41868(4)
Fe10 Fe 0.41868(4) 0.58132(4) 0.35778(6)
Fe11 Fe 0.41868(4) 0.35778(6) 0.58132(4)
Fe19 Fe 0.91868(4) 0.35778(6) 0.08132(4)
Fe20 Fe 0.85778(6) 0.41868(4) 0.08132(4)
Fe21 Fe 0.64222(6) 0.41868(4) 0.41868(4)
Fe22 Fe 0.91868(4) 0.41868(4) 0.14222(6)
Fe24 Fe 0.91868(4) 0.14222(6) 0.41868(4)
H97 H 0.520579 0.0205793 0.305796
H99 H 0.520579 0.305796 0.0205793
H100 H 0.520579 0.479421 0.194204
H101 H 0.520579 0.194204 0.479421
H103 H 0.805796 0.0205793 0.0205793
H104 H 0.979421 0.0205793 0.194204
H106 H 0.479421 0.520579 0.194204
H107 H 0.479421 0.194204 0.520579
N4 N 0.4402(4) 0.1883(5) 0.9402(4)
O32 O 0.4234(2) 0.1672(2) 0.8730(3)
O33 O 0.3730(3) 0.1672(2) 0.9234(2)
O43 O 0.3988(3) 0.1012(3) 0.8988(3)
O68 O 0.4678(2) 0.1264(2) 0.9175(2)
O69 O 0.4678(2) 0.0825(2) 0.8736(2)
O70 O 0.4175(2) 0.1264(2) 0.9678(2)
O80 O 0.5897(3) 0.0897(3) 0.9831(4)
O87 O 0.5169(4) 0.0897(3) 0.9103(3)
O91 O 0.6327(3) 0.1327(3) 0.9959(5)
O98 O 0.5041(5) 0.1327(3) 0.8673(3)
S12 S 0.48991(15) 0.10803(11) 0.89197(11)
C94 C 0.4671(6) 0.2031(5) 0.9296(6)
C95 C 0.4296(6) 0.2031(5) 0.9671(6)
H56 H 0.4091 0.1939 0.9760
H57 H 0.4760 0.1939 0.9091
C117 C 0.4878(7) 0.2334(6) 0.9441(8)
C118 C 0.4441(8) 0.2334(6) 0.9878(7)
H78 H 0.5647 0.2411 0.9911
H80 H 0.5089 0.2411 0.9353
H90 H 0.7411 0.0647 0.9911
H92 H 0.7411 0.0089 0.9353
C137 C 0.4715(6) 0.2475(8) 0.9715(6)
C148 C 0.4885(5) 0.2806(7) 0.9885(5)
Fe9 Fe 0.41868(4) 0.14222(6) 0.91868(4)
Fe25 Fe 0.41868(4) 0.08132(4) 0.85778(6)
H105 H 0.479421 0.305796 0.979421
N2 N 0.4402(4) 0.9402(4) 0.1883(5)
O13 O 0.4234(2) 0.8730(3) 0.1672(2)
O14 O 0.4234(2) 0.8328(2) 0.1270(3)
O16 O 0.4234(2) 0.6672(2) 0.3730(3)
O17 O 0.3730(3) 0.9234(2) 0.1672(2)
O18 O 0.3328(2) 0.9234(2) 0.1270(3)
O19 O 0.1270(3) 0.9234(2) 0.3328(2)
O20 O 0.1672(2) 0.9234(2) 0.3730(3)
O40 O 0.3988(3) 0.8988(3) 0.1012(3)
O50 O 0.4678(2) 0.9175(2) 0.1264(2)
O51 O 0.4678(2) 0.8736(2) 0.0825(2)
O52 O 0.4175(2) 0.9678(2) 0.1264(2)
O53 O 0.3736(2) 0.9678(2) 0.0825(2)
O77 O 0.5897(3) 0.9831(4) 0.0897(3)
O78 O 0.5169(4) 0.9103(3) 0.0897(3)
O84 O 0.9103(3) 0.9831(4) 0.4103(3)
O88 O 0.6327(3) 0.9959(5) 0.1327(3)
O89 O 0.5041(5) 0.8673(3) 0.1327(3)
O95 O 0.8673(3) 0.9959(5) 0.3673(3)
S3 S 0.48991(15) 0.89197(11) 0.10803(11)
S4 S 0.39197(11) 0.98991(15) 0.10803(11)
C13 C 0.4243(6) 0.8421(4) 0.1579(4)
C14 C 0.4243(6) 0.6579(4) 0.3421(4)
C15 C 0.3421(4) 0.9243(6) 0.1579(4)
C16 C 0.1579(4) 0.9243(6) 0.3421(4)
C24 C 0.4281(6) 0.8151(3) 0.1849(3)
C25 C 0.4281(6) 0.6849(3) 0.3151(3)
C26 C 0.3151(3) 0.9281(6) 0.1849(3)
C27 C 0.1849(3) 0.9281(6) 0.3151(3)
C39 C 0.4281(6) 0.8235(4) 0.2186(5)
C40 C 0.4281(6) 0.7814(5) 0.1765(4)
C41 C 0.4281(6) 0.6765(4) 0.2814(5)
C42 C 0.4281(6) 0.7186(5) 0.3235(4)
C43 C 0.3235(4) 0.9281(6) 0.2186(5)
C44 C 0.2814(5) 0.9281(6) 0.1765(4)
C45 C 0.1765(4) 0.9281(6) 0.2814(5)
C46 C 0.2186(5) 0.9281(6) 0.3235(4)
H12 H 0.4276 0.8469 0.2246
H13 H 0.4276 0.7754 0.1531
H14 H 0.4276 0.7246 0.3469
H15 H 0.4276 0.6531 0.2754
H16 H 0.3469 0.9276 0.2246
H17 H 0.2754 0.9276 0.1531
H18 H 0.2246 0.9276 0.3469
H19 H 0.1531 0.9276 0.2754
C62 C 0.4288(7) 0.7984(4) 0.2455(4)
C63 C 0.4288(7) 0.7545(4) 0.2016(4)
C64 C 0.4288(7) 0.7016(4) 0.2545(4)
C65 C 0.4288(7) 0.7455(4) 0.2984(4)
C66 C 0.2984(4) 0.9288(7) 0.2455(4)
C67 C 0.2545(4) 0.9288(7) 0.2016(4)
C68 C 0.2016(4) 0.9288(7) 0.2545(4)
C69 C 0.2455(4) 0.9288(7) 0.2984(4)
H35 H 0.4299 0.8049 0.2687
H36 H 0.4299 0.7313 0.1951
H37 H 0.4299 0.7687 0.3049
H38 H 0.4299 0.6951 0.2313
H39 H 0.3049 0.9299 0.2687
H40 H 0.2313 0.9299 0.1951
H41 H 0.2687 0.9299 0.3049
H42 H 0.1951 0.9299 0.2313
C81 C 0.4279(7) 0.7643(4) 0.2357(4)
C82 C 0.4279(7) 0.7357(4) 0.2643(4)
C83 C 0.2643(4) 0.9279(7) 0.2357(4)
C84 C 0.2357(4) 0.9279(7) 0.2643(4)
C90 C 0.4671(6) 0.9296(6) 0.2031(5)
C91 C 0.4296(6) 0.9671(6) 0.2031(5)
H52 H 0.4091 0.9760 0.1939
H53 H 0.4760 0.9091 0.1939
C113 C 0.4878(7) 0.9441(8) 0.2334(6)
C114 C 0.4441(8) 0.9878(7) 0.2334(6)
H74 H 0.5647 0.9911 0.2411
H76 H 0.5089 0.9353 0.2411
H89 H 0.7411 0.9911 0.0647
H91 H 0.7411 0.9353 0.0089
H93 H 0.9353 0.9911 0.2589
H95 H 0.9911 0.9353 0.2589
C135 C 0.4715(6) 0.9715(6) 0.2475(8)
C146 C 0.4885(5) 0.9885(5) 0.2806(7)
Fe2 Fe 0.41868(4) 0.91868(4) 0.14222(6)
Fe13 Fe 0.41868(4) 0.85778(6) 0.08132(4)
Fe15 Fe 0.41868(4) 0.64222(6) 0.41868(4)
Fe16 Fe 0.35778(6) 0.91868(4) 0.08132(4)
Fe18 Fe 0.14222(6) 0.91868(4) 0.41868(4)
H98 H 0.479421 0.979421 0.305796
N10 N 0.6883(5) 0.9402(4) 0.9402(4)
O38 O 0.6672(2) 0.8730(3) 0.9234(2)
O39 O 0.6672(2) 0.9234(2) 0.8730(3)
O46 O 0.6012(3) 0.8988(3) 0.8988(3)
O75 O 0.6264(2) 0.9175(2) 0.9678(2)
O76 O 0.6264(2) 0.9678(2) 0.9175(2)
C106 C 0.7031(5) 0.9671(6) 0.9296(6)
C107 C 0.7031(5) 0.9296(6) 0.9671(6)
H68 H 0.6939 0.9091 0.9760
H69 H 0.6939 0.9760 0.9091
C129 C 0.7334(6) 0.9878(7) 0.9441(8)
C130 C 0.7334(6) 0.9441(8) 0.9878(7)
C143 C 0.7475(8) 0.9715(6) 0.9715(6)
C154 C 0.7806(7) 0.9885(5) 0.9885(5)
Fe12 Fe 0.64222(6) 0.91868(4) 0.91868(4)
H102 H 0.805796 0.979421 0.979421
O84_2 O 0.0897(3) 0.0169(4) 0.4103(3)
O95_2 O 0.1327(3) 0.0041(5) 0.3673(3)
H89_2 H 0.2589 0.0089 0.0647
H91_2 H 0.2589 0.0647 0.0089
N10_2 N 0.3117(5) 0.0598(4) 0.9402(4)
O38_2 O 0.3328(2) 0.1270(3) 0.9234(2)
O39_2 O 0.3328(2) 0.0766(2) 0.8730(3)
O75_2 O 0.3736(2) 0.0825(2) 0.9678(2)
O76_2 O 0.3736(2) 0.0322(2) 0.9175(2)
C106_2 C 0.2969(5) 0.0329(6) 0.9296(6)
C107_2 C 0.2969(5) 0.0704(6) 0.9671(6)
H68_2 H 0.3061 0.0909 0.9760
H69_2 H 0.3061 0.0240 0.9091
C129_2 C 0.2666(6) 0.0122(7) 0.9441(8)
C130_2 C 0.2666(6) 0.0559(8) 0.9878(7)
C143_2 C 0.2525(8) 0.0285(6) 0.9715(6)
C154_2 C 0.2194(7) 0.0115(5) 0.9885(5)
Fe12_2 Fe 0.35778(6) 0.08132(4) 0.91868(4)
H102_2 H 0.194204 0.0205793 0.979421
N3_2 N 0.4402(4) 0.8117(5) 0.0598(4)
N7_2 N 0.4402(4) 0.6883(5) 0.4402(4)
N8_2 N 0.5598(4) 0.6883(5) 0.5598(4)
N9_2 N 0.3117(5) 0.9402(4) 0.0598(4)
N13_2 N 0.1883(5) 0.9402(4) 0.4402(4)
O21_2 O 0.3730(3) 0.8328(2) 0.0766(2)
O22_2 O 0.3328(2) 0.8730(3) 0.0766(2)
O23_2 O 0.1270(3) 0.6672(2) 0.0766(2)
O24_2 O 0.1672(2) 0.6270(3) 0.0766(2)
O26_2 O 0.3328(2) 0.5766(2) 0.3730(3)
O27_2 O 0.1270(3) 0.5766(2) 0.1672(2)
O28_2 O 0.1672(2) 0.5766(2) 0.1270(3)
O29_2 O 0.3730(3) 0.6672(2) 0.4234(2)
O30_2 O 0.0766(2) 0.8730(3) 0.3328(2)
O31_2 O 0.1672(2) 0.8730(3) 0.4234(2)
O36_2 O 0.5766(2) 0.6672(2) 0.6270(3)
O37_2 O 0.6270(3) 0.6672(2) 0.5766(2)
O42_2 O 0.1012(3) 0.8988(3) 0.3988(3)
O45_2 O 0.6012(3) 0.6012(3) 0.6012(3)
O54_2 O 0.4175(2) 0.8736(2) 0.0322(2)
O55_2 O 0.3736(2) 0.9175(2) 0.0322(2)
O57_2 O 0.4678(2) 0.6264(2) 0.4175(2)
O59_2 O 0.3736(2) 0.5322(2) 0.4175(2)
O60_2 O 0.4175(2) 0.6264(2) 0.4678(2)
O61_2 O 0.3736(2) 0.5825(2) 0.4678(2)
O62_2 O 0.0825(2) 0.9678(2) 0.3736(2)
O63_2 O 0.1264(2) 0.9678(2) 0.4175(2)
O64_2 O 0.0322(2) 0.9175(2) 0.3736(2)
O65_2 O 0.0322(2) 0.8736(2) 0.4175(2)
O66_2 O 0.1264(2) 0.9175(2) 0.4678(2)
O67_2 O 0.0825(2) 0.8736(2) 0.4678(2)
O73_2 O 0.5322(2) 0.6264(2) 0.5825(2)
O74_2 O 0.5825(2) 0.6264(2) 0.5322(2)
O81_2 O 0.5169(4) 0.5897(3) 0.4103(3)
O82_2 O 0.4103(3) 0.4831(4) 0.4103(3)
O83_2 O 0.4103(3) 0.5897(3) 0.5169(4)
O86_2 O 0.0897(3) 0.9103(3) 0.5169(4)
O92_2 O 0.5041(5) 0.6327(3) 0.3673(3)
O93_2 O 0.3673(3) 0.4959(5) 0.3673(3)
O94_2 O 0.3673(3) 0.6327(3) 0.5041(5)
O97_2 O 0.1327(3) 0.8673(3) 0.5041(5)
S5_2 S 0.39197(11) 0.89197(11) 0.01009(15)
S6_2 S 0.48991(15) 0.60803(11) 0.39197(11)
S7_2 S 0.39197(11) 0.51009(15) 0.39197(11)
S8_2 S 0.39197(11) 0.60803(11) 0.48991(15)
S9_2 S 0.10803(11) 0.98991(15) 0.39197(11)
S10_2 S 0.01009(15) 0.89197(11) 0.39197(11)
S11_2 S 0.10803(11) 0.89197(11) 0.48991(15)
C17_2 C 0.3421(4) 0.8421(4) 0.0757(6)
C18_2 C 0.1579(4) 0.6579(4) 0.0757(6)
C19_2 C 0.3421(4) 0.5757(6) 0.3421(4)
C20_2 C 0.1579(4) 0.5757(6) 0.1579(4)
C28_2 C 0.3151(3) 0.8151(3) 0.0719(6)
C29_2 C 0.1849(3) 0.6849(3) 0.0719(6)
C30_2 C 0.3151(3) 0.5719(6) 0.3151(3)
C31_2 C 0.1849(3) 0.5719(6) 0.1849(3)
C47_2 C 0.3235(4) 0.7814(5) 0.0719(6)
C48_2 C 0.2814(5) 0.8235(4) 0.0719(6)
C49_2 C 0.1765(4) 0.7186(5) 0.0719(6)
C50_2 C 0.2186(5) 0.6765(4) 0.0719(6)
C51_2 C 0.3235(4) 0.5719(6) 0.2814(5)
C52_2 C 0.2814(5) 0.5719(6) 0.3235(4)
C53_2 C 0.1765(4) 0.5719(6) 0.2186(5)
C54_2 C 0.2186(5) 0.5719(6) 0.1765(4)
H20_2 H 0.3469 0.7754 0.0724
H21_2 H 0.2754 0.8469 0.0724
H22_2 H 0.2246 0.6531 0.0724
H23_2 H 0.1531 0.7246 0.0724
H24_2 H 0.3469 0.5724 0.2754
H25_2 H 0.2754 0.5724 0.3469
H26_2 H 0.2246 0.5724 0.1531
H27_2 H 0.1531 0.5724 0.2246
C70_2 C 0.2984(4) 0.7545(4) 0.0712(7)
C71_2 C 0.2545(4) 0.7984(4) 0.0712(7)
C72_2 C 0.2016(4) 0.7455(4) 0.0712(7)
C73_2 C 0.2455(4) 0.7016(4) 0.0712(7)
C74_2 C 0.2984(4) 0.5712(7) 0.2545(4)
C75_2 C 0.2545(4) 0.5712(7) 0.2984(4)
C76_2 C 0.2016(4) 0.5712(7) 0.2455(4)
C77_2 C 0.2455(4) 0.5712(7) 0.2016(4)
H43_2 H 0.3049 0.7313 0.0701
H44_2 H 0.2313 0.8049 0.0701
H45_2 H 0.2687 0.6951 0.0701
H46_2 H 0.1951 0.7687 0.0701
H47_2 H 0.3049 0.5701 0.2313
H48_2 H 0.2313 0.5701 0.3049
H49_2 H 0.2687 0.5701 0.1951
H50_2 H 0.1951 0.5701 0.2687
C85_2 C 0.2643(4) 0.7643(4) 0.0721(7)
C86_2 C 0.2357(4) 0.7357(4) 0.0721(7)
C87_2 C 0.2643(4) 0.5721(7) 0.2643(4)
C88_2 C 0.2357(4) 0.5721(7) 0.2357(4)
C92_2 C 0.4671(6) 0.7969(5) 0.0704(6)
C93_2 C 0.4296(6) 0.7969(5) 0.0329(6)
C100_2 C 0.4671(6) 0.7031(5) 0.4296(6)
C101_2 C 0.4296(6) 0.7031(5) 0.4671(6)
C102_2 C 0.5329(6) 0.7031(5) 0.5704(6)
C103_2 C 0.5704(6) 0.7031(5) 0.5329(6)
C104_2 C 0.2969(5) 0.9671(6) 0.0704(6)
C105_2 C 0.2969(5) 0.9296(6) 0.0329(6)
H54_2 H 0.4760 0.8061 0.0909
H55_2 H 0.4091 0.8061 0.0240
H62_2 H 0.4760 0.6939 0.4091
H63_2 H 0.4091 0.6939 0.4760
H64_2 H 0.5909 0.6939 0.5240
H65_2 H 0.5240 0.6939 0.5909
H66_2 H 0.3061 0.9760 0.0909
H67_2 H 0.3061 0.9091 0.0240
C115_2 C 0.4878(7) 0.7666(6) 0.0559(8)
C116_2 C 0.4441(8) 0.7666(6) 0.0122(7)
C123_2 C 0.4878(7) 0.7334(6) 0.4441(8)
C124_2 C 0.4441(8) 0.7334(6) 0.4878(7)
C125_2 C 0.5122(7) 0.7334(6) 0.5559(8)
C126_2 C 0.5559(8) 0.7334(6) 0.5122(7)
C127_2 C 0.2666(6) 0.9878(7) 0.0559(8)
C128_2 C 0.2666(6) 0.9441(8) 0.0122(7)
H77_2 H 0.5089 0.7589 0.0647
H79_2 H 0.5647 0.7589 0.0089
H85_2 H 0.5089 0.7411 0.4353
H86_2 H 0.4353 0.7411 0.5089
H87_2 H 0.5647 0.7411 0.4911
H88_2 H 0.4911 0.7411 0.5647
C136_2 C 0.4715(6) 0.7525(8) 0.0285(6)
C140_2 C 0.4715(6) 0.7475(8) 0.4715(6)
C141_2 C 0.5285(6) 0.7475(8) 0.5285(6)
C142_2 C 0.2525(8) 0.9715(6) 0.0285(6)
C147_2 C 0.4885(5) 0.7194(7) 0.0115(5)
C151_2 C 0.4885(5) 0.7806(7) 0.4885(5)
C152_2 C 0.5115(5) 0.7806(7) 0.5115(5)
C153_2 C 0.2194(7) 0.9885(5) 0.0115(5)
Fe11_2 Fe 0.58132(4) 0.64222(6) 0.58132(4)
Fe19_2 Fe 0.08132(4) 0.64222(6) 0.08132(4)
Fe20_2 Fe 0.14222(6) 0.58132(4) 0.08132(4)
Fe21_2 Fe 0.35778(6) 0.58132(4) 0.41868(4)
Fe22_2 Fe 0.08132(4) 0.58132(4) 0.14222(6)
Fe24_2 Fe 0.08132(4) 0.85778(6) 0.41868(4)
H99_2 H 0.479421 0.694204 0.0205793
H101_2 H 0.479421 0.805796 0.479421
H103_2 H 0.194204 0.979421 0.0205793
H107_2 H 0.520579 0.805796 0.520579
N4_2 N 0.5598(4) 0.8117(5) 0.9402(4)
O32_2 O 0.5766(2) 0.8328(2) 0.8730(3)
O33_2 O 0.6270(3) 0.8328(2) 0.9234(2)
O68_2 O 0.5322(2) 0.8736(2) 0.9175(2)
O69_2 O 0.5322(2) 0.9175(2) 0.8736(2)
O70_2 O 0.5825(2) 0.8736(2) 0.9678(2)
O80_2 O 0.4103(3) 0.9103(3) 0.9831(4)
O87_2 O 0.4831(4) 0.9103(3) 0.9103(3)
O91_2 O 0.3673(3) 0.8673(3) 0.9959(5)
O98_2 O 0.4959(5) 0.8673(3) 0.8673(3)
S12_2 S 0.51009(15) 0.89197(11) 0.89197(11)
C94_2 C 0.5329(6) 0.7969(5) 0.9296(6)
C95_2 C 0.5704(6) 0.7969(5) 0.9671(6)
H56_2 H 0.5909 0.8061 0.9760
H57_2 H 0.5240 0.8061 0.9091
C117_2 C 0.5122(7) 0.7666(6) 0.9441(8)
C118_2 C 0.5559(8) 0.7666(6) 0.9878(7)
H78_2 H 0.4353 0.7589 0.9911
H80_2 H 0.4911 0.7589 0.9353
H90_2 H 0.2589 0.9353 0.9911
H92_2 H 0.2589 0.9911 0.9353
C137_2 C 0.5285(6) 0.7525(8) 0.9715(6)
C148_2 C 0.5115(5) 0.7194(7) 0.9885(5)
Fe9_2 Fe 0.58132(4) 0.85778(6) 0.91868(4)
Fe25_2 Fe 0.58132(4) 0.91868(4) 0.85778(6)
H105_2 H 0.520579 0.694204 0.979421
O85_2 O 0.9831(4) 0.9103(3) 0.4103(3)
O96_2 O 0.9959(5) 0.8673(3) 0.3673(3)
O80_3 O 0.4103(3) 0.0897(3) 0.0169(4)
O91_3 O 0.3673(3) 0.1327(3) 0.0041(5)
N1_2 N 0.4402(4) 0.0598(4) 0.8117(5)
O1_2 O 0.4234(2) 0.1270(3) 0.8328(2)
C1_2 C 0.4243(6) 0.1579(4) 0.8421(4)
C2_2 C 0.4281(6) 0.1849(3) 0.8151(3)
C3_2 C 0.4281(6) 0.1765(4) 0.7814(5)
H1_2 H 0.4276 0.1531 0.7754
C4_2 C 0.4288(7) 0.2016(4) 0.7545(4)
H2_2 H 0.4299 0.1951 0.7313
C5_2 C 0.4279(7) 0.2357(4) 0.7643(4)
C6_2 C 0.4671(6) 0.0704(6) 0.7969(5)
H3_2 H 0.4760 0.0909 0.8061
C7_2 C 0.4878(7) 0.0559(8) 0.7666(6)
H4_2 H 0.5089 0.0647 0.7589
C8_2 C 0.4715(6) 0.0285(6) 0.7525(8)
C9_2 C 0.4885(5) 0.0115(5) 0.7194(7)
N5_2 N 0.4402(4) 0.4402(4) 0.6883(5)
N6_2 N 0.5598(4) 0.5598(4) 0.6883(5)
N11_2 N 0.0598(4) 0.0598(4) 0.6883(5)
N13_3 N 0.1883(5) 0.0598(4) 0.5598(4)
O7_2 O 0.4234(2) 0.3730(3) 0.6672(2)
O9_2 O 0.3730(3) 0.0766(2) 0.8328(2)
O11_2 O 0.1270(3) 0.0766(2) 0.6672(2)
O12_2 O 0.1672(2) 0.0766(2) 0.6270(3)
O23_3 O 0.1270(3) 0.3328(2) 0.9234(2)
O24_3 O 0.1672(2) 0.3730(3) 0.9234(2)
O25_2 O 0.3730(3) 0.4234(2) 0.6672(2)
O26_3 O 0.3328(2) 0.4234(2) 0.6270(3)
O27_3 O 0.1270(3) 0.4234(2) 0.8328(2)
O28_3 O 0.1672(2) 0.4234(2) 0.8730(3)
O30_3 O 0.0766(2) 0.1270(3) 0.6672(2)
O31_3 O 0.1672(2) 0.1270(3) 0.5766(2)
O34_2 O 0.5766(2) 0.6270(3) 0.6672(2)
O35_2 O 0.6270(3) 0.5766(2) 0.6672(2)
O42_3 O 0.1012(3) 0.1012(3) 0.6012(3)
O48_2 O 0.4175(2) 0.0322(2) 0.8736(2)
O56_2 O 0.4678(2) 0.4175(2) 0.6264(2)
O58_2 O 0.4175(2) 0.4678(2) 0.6264(2)
O59_3 O 0.3736(2) 0.4678(2) 0.5825(2)
O61_3 O 0.3736(2) 0.4175(2) 0.5322(2)
O62_3 O 0.0825(2) 0.0322(2) 0.6264(2)
O63_3 O 0.1264(2) 0.0322(2) 0.5825(2)
O64_3 O 0.0322(2) 0.0825(2) 0.6264(2)
O65_3 O 0.0322(2) 0.1264(2) 0.5825(2)
O66_3 O 0.1264(2) 0.0825(2) 0.5322(2)
O67_3 O 0.0825(2) 0.1264(2) 0.5322(2)
O71_2 O 0.5322(2) 0.5825(2) 0.6264(2)
O72_2 O 0.5825(2) 0.5322(2) 0.6264(2)
O79_2 O 0.5897(3) 0.0169(4) 0.9103(3)
O81_3 O 0.5169(4) 0.4103(3) 0.5897(3)
O82_3 O 0.4103(3) 0.5169(4) 0.5897(3)
O83_3 O 0.4103(3) 0.4103(3) 0.4831(4)
O86_3 O 0.0897(3) 0.0897(3) 0.4831(4)
O90_2 O 0.6327(3) 0.0041(5) 0.8673(3)
O92_3 O 0.5041(5) 0.3673(3) 0.6327(3)
O93_3 O 0.3673(3) 0.5041(5) 0.6327(3)
O94_3 O 0.3673(3) 0.3673(3) 0.4959(5)
O97_3 O 0.1327(3) 0.1327(3) 0.4959(5)
S2_2 S 0.39197(11) 0.01009(15) 0.89197(11)
S5_3 S 0.39197(11) 0.10803(11) 0.98991(15)
S6_3 S 0.48991(15) 0.39197(11) 0.60803(11)
S7_3 S 0.39197(11) 0.48991(15) 0.60803(11)
S8_3 S 0.39197(11) 0.39197(11) 0.51009(15)
S9_3 S 0.10803(11) 0.01009(15) 0.60803(11)
S10_3 S 0.01009(15) 0.10803(11) 0.60803(11)
S11_3 S 0.10803(11) 0.10803(11) 0.51009(15)
C10_2 C 0.4243(6) 0.3421(4) 0.6579(4)
C11_2 C 0.3421(4) 0.0757(6) 0.8421(4)
C12_2 C 0.1579(4) 0.0757(6) 0.6579(4)
C17_3 C 0.3421(4) 0.1579(4) 0.9243(6)
C18_3 C 0.1579(4) 0.3421(4) 0.9243(6)
C19_3 C 0.3421(4) 0.4243(6) 0.6579(4)
C20_3 C 0.1579(4) 0.4243(6) 0.8421(4)
C21_2 C 0.4281(6) 0.3151(3) 0.6849(3)
C22_2 C 0.3151(3) 0.0719(6) 0.8151(3)
C23_2 C 0.1849(3) 0.0719(6) 0.6849(3)
C28_3 C 0.3151(3) 0.1849(3) 0.9281(6)
C29_3 C 0.1849(3) 0.3151(3) 0.9281(6)
C30_3 C 0.3151(3) 0.4281(6) 0.6849(3)
C31_3 C 0.1849(3) 0.4281(6) 0.8151(3)
C32_2 C 0.4281(6) 0.2186(5) 0.8235(4)
C33_2 C 0.4281(6) 0.3235(4) 0.7186(5)
C34_2 C 0.4281(6) 0.2814(5) 0.6765(4)
C35_2 C 0.3235(4) 0.0719(6) 0.7814(5)
C36_2 C 0.2814(5) 0.0719(6) 0.8235(4)
C37_2 C 0.1765(4) 0.0719(6) 0.7186(5)
C38_2 C 0.2186(5) 0.0719(6) 0.6765(4)
C47_3 C 0.3235(4) 0.2186(5) 0.9281(6)
C48_3 C 0.2814(5) 0.1765(4) 0.9281(6)
C49_3 C 0.1765(4) 0.2814(5) 0.9281(6)
C50_3 C 0.2186(5) 0.3235(4) 0.9281(6)
C51_3 C 0.3235(4) 0.4281(6) 0.7186(5)
C52_3 C 0.2814(5) 0.4281(6) 0.6765(4)
C53_3 C 0.1765(4) 0.4281(6) 0.7814(5)
C54_3 C 0.2186(5) 0.4281(6) 0.8235(4)
H5_2 H 0.4276 0.2246 0.8469
H6_2 H 0.4276 0.2754 0.6531
H7_2 H 0.4276 0.3469 0.7246
H8_2 H 0.3469 0.0724 0.7754
H9_2 H 0.2754 0.0724 0.8469
H10_2 H 0.2246 0.0724 0.6531
H11_2 H 0.1531 0.0724 0.7246
H20_3 H 0.3469 0.2246 0.9276
H21_3 H 0.2754 0.1531 0.9276
H22_3 H 0.2246 0.3469 0.9276
H23_3 H 0.1531 0.2754 0.9276
H24_3 H 0.3469 0.4276 0.7246
H25_3 H 0.2754 0.4276 0.6531
H26_3 H 0.2246 0.4276 0.8469
H27_3 H 0.1531 0.4276 0.7754
C55_2 C 0.4288(7) 0.2455(4) 0.7984(4)
C56_2 C 0.4288(7) 0.2984(4) 0.7455(4)
C57_2 C 0.4288(7) 0.2545(4) 0.7016(4)
C58_2 C 0.2984(4) 0.0712(7) 0.7545(4)
C59_2 C 0.2545(4) 0.0712(7) 0.7984(4)
C60_2 C 0.2016(4) 0.0712(7) 0.7455(4)
C61_2 C 0.2455(4) 0.0712(7) 0.7016(4)
C70_3 C 0.2984(4) 0.2455(4) 0.9288(7)
C71_3 C 0.2545(4) 0.2016(4) 0.9288(7)
C72_3 C 0.2016(4) 0.2545(4) 0.9288(7)
C73_3 C 0.2455(4) 0.2984(4) 0.9288(7)
C74_3 C 0.2984(4) 0.4288(7) 0.7455(4)
C75_3 C 0.2545(4) 0.4288(7) 0.7016(4)
C76_3 C 0.2016(4) 0.4288(7) 0.7545(4)
C77_3 C 0.2455(4) 0.4288(7) 0.7984(4)
H28_2 H 0.4299 0.2687 0.8049
H29_2 H 0.4299 0.2313 0.6951
H30_2 H 0.4299 0.3049 0.7687
H31_2 H 0.3049 0.0701 0.7313
H32_2 H 0.2313 0.0701 0.8049
H33_2 H 0.2687 0.0701 0.6951
H34_2 H 0.1951 0.0701 0.7687
H43_3 H 0.3049 0.2687 0.9299
H44_3 H 0.2313 0.1951 0.9299
H45_3 H 0.2687 0.3049 0.9299
H46_3 H 0.1951 0.2313 0.9299
H47_3 H 0.3049 0.4299 0.7687
H48_3 H 0.2313 0.4299 0.6951
H49_3 H 0.2687 0.4299 0.8049
H50_3 H 0.1951 0.4299 0.7313
C78_2 C 0.4279(7) 0.2643(4) 0.7357(4)
C79_2 C 0.2643(4) 0.0721(7) 0.7643(4)
C80_2 C 0.2357(4) 0.0721(7) 0.7357(4)
C85_3 C 0.2643(4) 0.2357(4) 0.9279(7)
C86_3 C 0.2357(4) 0.2643(4) 0.9279(7)
C87_3 C 0.2643(4) 0.4279(7) 0.7357(4)
C88_3 C 0.2357(4) 0.4279(7) 0.7643(4)
C89_2 C 0.4296(6) 0.0329(6) 0.7969(5)
C96_2 C 0.4671(6) 0.4296(6) 0.7031(5)
C97_2 C 0.4296(6) 0.4671(6) 0.7031(5)
C98_2 C 0.5329(6) 0.5704(6) 0.7031(5)
C99_2 C 0.5704(6) 0.5329(6) 0.7031(5)
C108_2 C 0.0704(6) 0.0329(6) 0.7031(5)
C109_2 C 0.0329(6) 0.0704(6) 0.7031(5)
H51_2 H 0.4091 0.0240 0.8061
H58_2 H 0.4760 0.4091 0.6939
H59_2 H 0.4091 0.4760 0.6939
H60_2 H 0.5909 0.5240 0.6939
H61_2 H 0.5240 0.5909 0.6939
H70_2 H 0.0909 0.0240 0.6939
H71_2 H 0.0240 0.0909 0.6939
C112_2 C 0.4441(8) 0.0122(7) 0.7666(6)
C119_2 C 0.4878(7) 0.4441(8) 0.7334(6)
C120_2 C 0.4441(8) 0.4878(7) 0.7334(6)
C121_2 C 0.5122(7) 0.5559(8) 0.7334(6)
C122_2 C 0.5559(8) 0.5122(7) 0.7334(6)
C131_2 C 0.0559(8) 0.0122(7) 0.7334(6)
C132_2 C 0.0122(7) 0.0559(8) 0.7334(6)
H75_2 H 0.5647 0.0089 0.7589
H81_2 H 0.5089 0.4353 0.7411
H82_2 H 0.4353 0.5089 0.7411
H83_2 H 0.5647 0.4911 0.7411
H84_2 H 0.4911 0.5647 0.7411
C138_2 C 0.4715(6) 0.4715(6) 0.7475(8)
C139_2 C 0.5285(6) 0.5285(6) 0.7475(8)
C144_2 C 0.0285(6) 0.0285(6) 0.7475(8)
C149_2 C 0.4885(5) 0.4885(5) 0.7806(7)
C150_2 C 0.5115(5) 0.5115(5) 0.7806(7)
C155_2 C 0.0115(5) 0.0115(5) 0.7806(7)
Fe4_2 Fe 0.41868(4) 0.41868(4) 0.64222(6)
Fe7_2 Fe 0.08132(4) 0.08132(4) 0.64222(6)
Fe8_2 Fe 0.14222(6) 0.08132(4) 0.58132(4)
Fe10_2 Fe 0.58132(4) 0.58132(4) 0.64222(6)
Fe19_3 Fe 0.08132(4) 0.35778(6) 0.91868(4)
Fe20_3 Fe 0.14222(6) 0.41868(4) 0.91868(4)
Fe21_3 Fe 0.35778(6) 0.41868(4) 0.58132(4)
Fe22_3 Fe 0.08132(4) 0.41868(4) 0.85778(6)
Fe24_3 Fe 0.08132(4) 0.14222(6) 0.58132(4)
H97_2 H 0.479421 0.0205793 0.694204
H100_2 H 0.479421 0.479421 0.805796
H104_2 H 0.0205793 0.0205793 0.805796
H106_2 H 0.520579 0.520579 0.805796
N2_2 N 0.5598(4) 0.9402(4) 0.8117(5)
O13_2 O 0.5766(2) 0.8730(3) 0.8328(2)
O17_2 O 0.6270(3) 0.9234(2) 0.8328(2)
O19_2 O 0.8730(3) 0.9234(2) 0.6672(2)
O20_2 O 0.8328(2) 0.9234(2) 0.6270(3)
O52_2 O 0.5825(2) 0.9678(2) 0.8736(2)
O77_2 O 0.4103(3) 0.9831(4) 0.9103(3)
O84_3 O 0.0897(3) 0.9831(4) 0.5897(3)
O88_2 O 0.3673(3) 0.9959(5) 0.8673(3)
O95_3 O 0.1327(3) 0.9959(5) 0.6327(3)
S4_2 S 0.60803(11) 0.98991(15) 0.89197(11)
C13_2 C 0.5757(6) 0.8421(4) 0.8421(4)
C14_2 C 0.5757(6) 0.6579(4) 0.6579(4)
C15_2 C 0.6579(4) 0.9243(6) 0.8421(4)
C16_2 C 0.8421(4) 0.9243(6) 0.6579(4)
C24_2 C 0.5719(6) 0.8151(3) 0.8151(3)
C25_2 C 0.5719(6) 0.6849(3) 0.6849(3)
C26_2 C 0.6849(3) 0.9281(6) 0.8151(3)
C27_2 C 0.8151(3) 0.9281(6) 0.6849(3)
C39_2 C 0.5719(6) 0.8235(4) 0.7814(5)
C40_2 C 0.5719(6) 0.7814(5) 0.8235(4)
C41_2 C 0.5719(6) 0.6765(4) 0.7186(5)
C42_2 C 0.5719(6) 0.7186(5) 0.6765(4)
C43_2 C 0.6765(4) 0.9281(6) 0.7814(5)
C44_2 C 0.7186(5) 0.9281(6) 0.8235(4)
C45_2 C 0.8235(4) 0.9281(6) 0.7186(5)
C46_2 C 0.7814(5) 0.9281(6) 0.6765(4)
H12_2 H 0.5724 0.8469 0.7754
H13_2 H 0.5724 0.7754 0.8469
H14_2 H 0.5724 0.7246 0.6531
H15_2 H 0.5724 0.6531 0.7246
H16_2 H 0.6531 0.9276 0.7754
H17_2 H 0.7246 0.9276 0.8469
H18_2 H 0.7754 0.9276 0.6531
H19_2 H 0.8469 0.9276 0.7246
C62_2 C 0.5712(7) 0.7984(4) 0.7545(4)
C63_2 C 0.5712(7) 0.7545(4) 0.7984(4)
C64_2 C 0.5712(7) 0.7016(4) 0.7455(4)
C65_2 C 0.5712(7) 0.7455(4) 0.7016(4)
C66_2 C 0.7016(4) 0.9288(7) 0.7545(4)
C67_2 C 0.7455(4) 0.9288(7) 0.7984(4)
C68_2 C 0.7984(4) 0.9288(7) 0.7455(4)
C69_2 C 0.7545(4) 0.9288(7) 0.7016(4)
H35_2 H 0.5701 0.8049 0.7313
H36_2 H 0.5701 0.7313 0.8049
H37_2 H 0.5701 0.7687 0.6951
H38_2 H 0.5701 0.6951 0.7687
H39_2 H 0.6951 0.9299 0.7313
H40_2 H 0.7687 0.9299 0.8049
H41_2 H 0.7313 0.9299 0.6951
H42_2 H 0.8049 0.9299 0.7687
C81_2 C 0.5721(7) 0.7643(4) 0.7643(4)
C82_2 C 0.5721(7) 0.7357(4) 0.7357(4)
C83_2 C 0.7357(4) 0.9279(7) 0.7643(4)
C84_2 C 0.7643(4) 0.9279(7) 0.7357(4)
C90_2 C 0.5329(6) 0.9296(6) 0.7969(5)
C91_2 C 0.5704(6) 0.9671(6) 0.7969(5)
H52_2 H 0.5909 0.9760 0.8061
H53_2 H 0.5240 0.9091 0.8061
C113_2 C 0.5122(7) 0.9441(8) 0.7666(6)
C114_2 C 0.5559(8) 0.9878(7) 0.7666(6)
H74_2 H 0.4353 0.9911 0.7589
H76_2 H 0.4911 0.9353 0.7589
H93_2 H 0.0647 0.9911 0.7411
H95_2 H 0.0089 0.9353 0.7411
C135_2 C 0.5285(6) 0.9715(6) 0.7525(8)
C146_2 C 0.5115(5) 0.9885(5) 0.7194(7)
Fe17 Fe 0.91868(4) 0.91868(4) 0.64222(6)
Fe18_2 Fe 0.85778(6) 0.91868(4) 0.58132(4)
H98_2 H 0.520579 0.979421 0.694204
O85_3 O 0.9831(4) 0.0897(3) 0.5897(3)
O96_3 O 0.9959(5) 0.1327(3) 0.6327(3)
H94_2 H 0.9911 0.0647 0.7411
H96_2 H 0.9353 0.0089 0.7411
N12_2 N 0.9402(4) 0.9402(4) 0.6883(5)
C110_2 C 0.9296(6) 0.9671(6) 0.7031(5)
C111_2 C 0.9671(6) 0.9296(6) 0.7031(5)
H72_2 H 0.9760 0.9091 0.6939
H73_2 H 0.9091 0.9760 0.6939
C133_2 C 0.9441(8) 0.9878(7) 0.7334(6)
C134_2 C 0.9878(7) 0.9441(8) 0.7334(6)
C145_2 C 0.9715(6) 0.9715(6) 0.7475(8)
C156_2 C 0.9885(5) 0.9885(5) 0.7806(7)
H108_2 H 0.979421 0.979421 0.805796
O85_4 O 0.0169(4) 0.9103(3) 0.5897(3)
O96_4 O 0.0041(5) 0.8673(3) 0.6327(3)
O84_4 O 0.9103(3) 0.0169(4) 0.5897(3)
O95_4 O 0.8673(3) 0.0041(5) 0.6327(3)
O80_4 O 0.5897(3) 0.9103(3) 0.0169(4)
O91_4 O 0.6327(3) 0.8673(3) 0.0041(5)
N13_4 N 0.8117(5) 0.9402(4) 0.5598(4)
O23_4 O 0.8730(3) 0.6672(2) 0.9234(2)
O24_4 O 0.8328(2) 0.6270(3) 0.9234(2)
O26_4 O 0.6672(2) 0.5766(2) 0.6270(3)
O27_4 O 0.8730(3) 0.5766(2) 0.8328(2)
O28_4 O 0.8328(2) 0.5766(2) 0.8730(3)
O30_4 O 0.9234(2) 0.8730(3) 0.6672(2)
O31_4 O 0.8328(2) 0.8730(3) 0.5766(2)
O42_4 O 0.8988(3) 0.8988(3) 0.6012(3)
O59_4 O 0.6264(2) 0.5322(2) 0.5825(2)
O61_4 O 0.6264(2) 0.5825(2) 0.5322(2)
O62_4 O 0.9175(2) 0.9678(2) 0.6264(2)
O63_4 O 0.8736(2) 0.9678(2) 0.5825(2)
O64_4 O 0.9678(2) 0.9175(2) 0.6264(2)
O65_4 O 0.9678(2) 0.8736(2) 0.5825(2)
O66_4 O 0.8736(2) 0.9175(2) 0.5322(2)
O67_4 O 0.9175(2) 0.8736(2) 0.5322(2)
O81_4 O 0.4831(4) 0.5897(3) 0.5897(3)
O82_4 O 0.5897(3) 0.4831(4) 0.5897(3)
O83_4 O 0.5897(3) 0.5897(3) 0.4831(4)
O86_4 O 0.9103(3) 0.9103(3) 0.4831(4)
O92_4 O 0.4959(5) 0.6327(3) 0.6327(3)
O93_4 O 0.6327(3) 0.4959(5) 0.6327(3)
O94_4 O 0.6327(3) 0.6327(3) 0.4959(5)
O97_4 O 0.8673(3) 0.8673(3) 0.4959(5)
S5_4 S 0.60803(11) 0.89197(11) 0.98991(15)
S6_4 S 0.51009(15) 0.60803(11) 0.60803(11)
S7_4 S 0.60803(11) 0.51009(15) 0.60803(11)
S8_4 S 0.60803(11) 0.60803(11) 0.51009(15)
S9_4 S 0.89197(11) 0.98991(15) 0.60803(11)
S10_4 S 0.98991(15) 0.89197(11) 0.60803(11)
S11_4 S 0.89197(11) 0.89197(11) 0.51009(15)
C17_4 C 0.6579(4) 0.8421(4) 0.9243(6)
C18_4 C 0.8421(4) 0.6579(4) 0.9243(6)
C19_4 C 0.6579(4) 0.5757(6) 0.6579(4)
C20_4 C 0.8421(4) 0.5757(6) 0.8421(4)
C28_4 C 0.6849(3) 0.8151(3) 0.9281(6)
C29_4 C 0.8151(3) 0.6849(3) 0.9281(6)
C30_4 C 0.6849(3) 0.5719(6) 0.6849(3)
C31_4 C 0.8151(3) 0.5719(6) 0.8151(3)
C47_4 C 0.6765(4) 0.7814(5) 0.9281(6)
C48_4 C 0.7186(5) 0.8235(4) 0.9281(6)
C49_4 C 0.8235(4) 0.7186(5) 0.9281(6)
C50_4 C 0.7814(5) 0.6765(4) 0.9281(6)
C51_4 C 0.6765(4) 0.5719(6) 0.7186(5)
C52_4 C 0.7186(5) 0.5719(6) 0.6765(4)
C53_4 C 0.8235(4) 0.5719(6) 0.7814(5)
C54_4 C 0.7814(5) 0.5719(6) 0.8235(4)
H20_4 H 0.6531 0.7754 0.9276
H21_4 H 0.7246 0.8469 0.9276
H22_4 H 0.7754 0.6531 0.9276
H23_4 H 0.8469 0.7246 0.9276
H24_4 H 0.6531 0.5724 0.7246
H25_4 H 0.7246 0.5724 0.6531
H26_4 H 0.7754 0.5724 0.8469
H27_4 H 0.8469 0.5724 0.7754
C70_4 C 0.7016(4) 0.7545(4) 0.9288(7)
C71_4 C 0.7455(4) 0.7984(4) 0.9288(7)
C72_4 C 0.7984(4) 0.7455(4) 0.9288(7)
C73_4 C 0.7545(4) 0.7016(4) 0.9288(7)
C74_4 C 0.7016(4) 0.5712(7) 0.7455(4)
C75_4 C 0.7455(4) 0.5712(7) 0.7016(4)
C76_4 C 0.7984(4) 0.5712(7) 0.7545(4)
C77_4 C 0.7545(4) 0.5712(7) 0.7984(4)
H43_4 H 0.6951 0.7313 0.9299
H44_4 H 0.7687 0.8049 0.9299
H45_4 H 0.7313 0.6951 0.9299
H46_4 H 0.8049 0.7687 0.9299
H47_4 H 0.6951 0.5701 0.7687
H48_4 H 0.7687 0.5701 0.6951
H49_4 H 0.7313 0.5701 0.8049
H50_4 H 0.8049 0.5701 0.7313
C85_4 C 0.7357(4) 0.7643(4) 0.9279(7)
C86_4 C 0.7643(4) 0.7357(4) 0.9279(7)
C87_4 C 0.7357(4) 0.5721(7) 0.7357(4)
C88_4 C 0.7643(4) 0.5721(7) 0.7643(4)
Fe19_4 Fe 0.91868(4) 0.64222(6) 0.91868(4)
Fe20_4 Fe 0.85778(6) 0.58132(4) 0.91868(4)
Fe21_4 Fe 0.64222(6) 0.58132(4) 0.58132(4)
Fe22_4 Fe 0.91868(4) 0.58132(4) 0.85778(6)
Fe24_4 Fe 0.91868(4) 0.85778(6) 0.58132(4)
N1_3 N 0.1883(5) 0.5598(4) 0.0598(4)
O2_2 O 0.1012(3) 0.6012(3) 0.1012(3)
O3_2 O 0.1264(2) 0.5322(2) 0.0825(2)
O4_2 O 0.0897(3) 0.4831(4) 0.0897(3)
O5_2 O 0.1327(3) 0.4959(5) 0.1327(3)
S1_2 S 0.10803(11) 0.51009(15) 0.10803(11)
C6_3 C 0.2031(5) 0.5329(6) 0.0704(6)
H3_3 H 0.1939 0.5240 0.0909
C7_3 C 0.2334(6) 0.5122(7) 0.0559(8)
H4_3 H 0.2411 0.4911 0.0647
C8_3 C 0.2475(8) 0.5285(6) 0.0285(6)
C9_3 C 0.2806(7) 0.5115(5) 0.0115(5)
N3_3 N 0.0598(4) 0.5598(4) 0.1883(5)
N5_3 N 0.3117(5) 0.5598(4) 0.4402(4)
N6_3 N 0.3117(5) 0.4402(4) 0.5598(4)
N9_3 N 0.0598(4) 0.6883(5) 0.0598(4)
O21_3 O 0.0766(2) 0.6270(3) 0.1672(2)
O22_3 O 0.0766(2) 0.6672(2) 0.1270(3)
O24_5 O 0.0766(2) 0.8328(2) 0.3730(3)
O25_3 O 0.3328(2) 0.6270(3) 0.4234(2)
O28_5 O 0.1270(3) 0.8328(2) 0.4234(2)
O35_3 O 0.3328(2) 0.3730(3) 0.5766(2)
O47_2 O 0.0825(2) 0.5322(2) 0.1264(2)
O48_3 O 0.1264(2) 0.5825(2) 0.0322(2)
O49_2 O 0.0825(2) 0.6264(2) 0.0322(2)
O54_3 O 0.0322(2) 0.5825(2) 0.1264(2)
O55_3 O 0.0322(2) 0.6264(2) 0.0825(2)
O79_3 O 0.0897(3) 0.4103(3) 0.0169(4)
O90_3 O 0.1327(3) 0.3673(3) 0.0041(5)
S2_3 S 0.10803(11) 0.60803(11) 0.01009(15)
S5_5 S 0.01009(15) 0.60803(11) 0.10803(11)
C17_5 C 0.0757(6) 0.6579(4) 0.1579(4)
C18_5 C 0.0757(6) 0.8421(4) 0.3421(4)
C19_5 C 0.3421(4) 0.6579(4) 0.4243(6)
C20_5 C 0.1579(4) 0.8421(4) 0.4243(6)
C28_5 C 0.0719(6) 0.6849(3) 0.1849(3)
C29_5 C 0.0719(6) 0.8151(3) 0.3151(3)
C30_5 C 0.3151(3) 0.6849(3) 0.4281(6)
C31_5 C 0.1849(3) 0.8151(3) 0.4281(6)
C47_5 C 0.0719(6) 0.6765(4) 0.2186(5)
C48_5 C 0.0719(6) 0.7186(5) 0.1765(4)
C49_5 C 0.0719(6) 0.8235(4) 0.2814(5)
C50_5 C 0.0719(6) 0.7814(5) 0.3235(4)
C51_5 C 0.2814(5) 0.6765(4) 0.4281(6)
C52_5 C 0.3235(4) 0.7186(5) 0.4281(6)
C53_5 C 0.2186(5) 0.8235(4) 0.4281(6)
C54_5 C 0.1765(4) 0.7814(5) 0.4281(6)
H20_5 H 0.0724 0.6531 0.2246
H21_5 H 0.0724 0.7246 0.1531
H22_5 H 0.0724 0.7754 0.3469
H23_5 H 0.0724 0.8469 0.2754
H24_5 H 0.2754 0.6531 0.4276
H25_5 H 0.3469 0.7246 0.4276
H26_5 H 0.1531 0.7754 0.4276
H27_5 H 0.2246 0.8469 0.4276
C70_5 C 0.0712(7) 0.7016(4) 0.2455(4)
C71_5 C 0.0712(7) 0.7455(4) 0.2016(4)
C72_5 C 0.0712(7) 0.7984(4) 0.2545(4)
C73_5 C 0.0712(7) 0.7545(4) 0.2984(4)
C74_5 C 0.2545(4) 0.7016(4) 0.4288(7)
C75_5 C 0.2984(4) 0.7455(4) 0.4288(7)
C76_5 C 0.2455(4) 0.7984(4) 0.4288(7)
C77_5 C 0.2016(4) 0.7545(4) 0.4288(7)
H43_5 H 0.0701 0.6951 0.2687
H44_5 H 0.0701 0.7687 0.1951
H45_5 H 0.0701 0.7313 0.3049
H46_5 H 0.0701 0.8049 0.2313
H47_5 H 0.2313 0.6951 0.4299
H48_5 H 0.3049 0.7687 0.4299
H49_5 H 0.1951 0.7313 0.4299
H50_5 H 0.2687 0.8049 0.4299
C85_5 C 0.0721(7) 0.7357(4) 0.2357(4)
C86_5 C 0.0721(7) 0.7643(4) 0.2643(4)
C87_5 C 0.2643(4) 0.7357(4) 0.4279(7)
C88_5 C 0.2357(4) 0.7643(4) 0.4279(7)
C89_3 C 0.2031(5) 0.5704(6) 0.0329(6)
C92_3 C 0.0704(6) 0.5329(6) 0.2031(5)
C93_3 C 0.0329(6) 0.5704(6) 0.2031(5)
C96_3 C 0.2969(5) 0.5329(6) 0.4296(6)
C97_3 C 0.2969(5) 0.5704(6) 0.4671(6)
C98_3 C 0.2969(5) 0.4671(6) 0.5704(6)
C99_3 C 0.2969(5) 0.4296(6) 0.5329(6)
C104_3 C 0.0704(6) 0.7031(5) 0.0329(6)
C105_3 C 0.0329(6) 0.7031(5) 0.0704(6)
H51_3 H 0.1939 0.5909 0.0240
H54_3 H 0.0909 0.5240 0.1939
H55_3 H 0.0240 0.5909 0.1939
H58_3 H 0.3061 0.5240 0.4091
H59_3 H 0.3061 0.5909 0.4760
H60_3 H 0.3061 0.4091 0.5240
H61_3 H 0.3061 0.4760 0.5909
H66_3 H 0.0909 0.6939 0.0240
H67_3 H 0.0240 0.6939 0.0909
C112_3 C 0.2334(6) 0.5559(8) 0.0122(7)
C115_3 C 0.0559(8) 0.5122(7) 0.2334(6)
C116_3 C 0.0122(7) 0.5559(8) 0.2334(6)
C119_3 C 0.2666(6) 0.5122(7) 0.4441(8)
C120_3 C 0.2666(6) 0.5559(8) 0.4878(7)
C121_3 C 0.2666(6) 0.4878(7) 0.5559(8)
C122_3 C 0.2666(6) 0.4441(8) 0.5122(7)
C127_3 C 0.0559(8) 0.7334(6) 0.0122(7)
C128_3 C 0.0122(7) 0.7334(6) 0.0559(8)
H75_3 H 0.2411 0.4353 0.0089
H77_3 H 0.0647 0.4911 0.2411
H79_3 H 0.0089 0.4353 0.2411
H81_3 H 0.2589 0.4911 0.4353
H82_3 H 0.2589 0.5647 0.5089
H83_3 H 0.2589 0.4353 0.4911
H84_3 H 0.2589 0.5089 0.5647
C136_3 C 0.0285(6) 0.5285(6) 0.2475(8)
C138_3 C 0.2525(8) 0.5285(6) 0.4715(6)
C139_3 C 0.2525(8) 0.4715(6) 0.5285(6)
C142_3 C 0.0285(6) 0.7475(8) 0.0285(6)
C147_3 C 0.0115(5) 0.5115(5) 0.2806(7)
C149_3 C 0.2194(7) 0.5115(5) 0.4885(5)
C150_3 C 0.2194(7) 0.4885(5) 0.5115(5)
C153_3 C 0.0115(5) 0.7806(7) 0.0115(5)
H97_3 H 0.305796 0.520579 0.0205793
H99_3 H 0.0205793 0.520579 0.305796
H100_3 H 0.194204 0.520579 0.479421
H103_3 H 0.0205793 0.805796 0.0205793
H106_3 H 0.194204 0.479421 0.520579
N2_3 N 0.1883(5) 0.4402(4) 0.9402(4)
O40_2 O 0.1012(3) 0.3988(3) 0.8988(3)
O50_2 O 0.1264(2) 0.4678(2) 0.9175(2)
O51_2 O 0.0825(2) 0.4678(2) 0.8736(2)
O52_3 O 0.1264(2) 0.4175(2) 0.9678(2)
O53_2 O 0.0825(2) 0.3736(2) 0.9678(2)
O77_3 O 0.0897(3) 0.5897(3) 0.9831(4)
O78_2 O 0.0897(3) 0.5169(4) 0.9103(3)
O88_3 O 0.1327(3) 0.6327(3) 0.9959(5)
O89_2 O 0.1327(3) 0.5041(5) 0.8673(3)
S3_2 S 0.10803(11) 0.48991(15) 0.89197(11)
S4_3 S 0.10803(11) 0.39197(11) 0.98991(15)
C90_3 C 0.2031(5) 0.4671(6) 0.9296(6)
C91_3 C 0.2031(5) 0.4296(6) 0.9671(6)
H52_3 H 0.1939 0.4091 0.9760
H53_3 H 0.1939 0.4760 0.9091
C113_3 C 0.2334(6) 0.4878(7) 0.9441(8)
C114_3 C 0.2334(6) 0.4441(8) 0.9878(7)
H74_3 H 0.2411 0.5647 0.9911
H76_3 H 0.2411 0.5089 0.9353
H89_3 H 0.0647 0.7411 0.9911
H91_3 H 0.0089 0.7411 0.9353
C135_3 C 0.2475(8) 0.4715(6) 0.9715(6)
C146_3 C 0.2806(7) 0.4885(5) 0.9885(5)
H98_3 H 0.305796 0.479421 0.979421
N4_3 N 0.9402(4) 0.4402(4) 0.1883(5)
O33_3 O 0.9234(2) 0.3730(3) 0.1672(2)
O43_2 O 0.8988(3) 0.3988(3) 0.1012(3)
O68_3 O 0.9175(2) 0.4678(2) 0.1264(2)
O69_3 O 0.8736(2) 0.4678(2) 0.0825(2)
O70_3 O 0.9678(2) 0.4175(2) 0.1264(2)
O80_5 O 0.9831(4) 0.5897(3) 0.0897(3)
O87_3 O 0.9103(3) 0.5169(4) 0.0897(3)
O91_5 O 0.9959(5) 0.6327(3) 0.1327(3)
O98_3 O 0.8673(3) 0.5041(5) 0.1327(3)
S12_3 S 0.89197(11) 0.48991(15) 0.10803(11)
C94_3 C 0.9296(6) 0.4671(6) 0.2031(5)
C95_3 C 0.9671(6) 0.4296(6) 0.2031(5)
H56_3 H 0.9760 0.4091 0.1939
H57_3 H 0.9091 0.4760 0.1939
C117_3 C 0.9441(8) 0.4878(7) 0.2334(6)
C118_3 C 0.9878(7) 0.4441(8) 0.2334(6)
H78_3 H 0.9911 0.5647 0.2411
H80_3 H 0.9353 0.5089 0.2411
H90_3 H 0.9911 0.7411 0.0647
H92_3 H 0.9353 0.7411 0.0089
C137_3 C 0.9715(6) 0.4715(6) 0.2475(8)
C148_3 C 0.9885(5) 0.4885(5) 0.2806(7)
H105_3 H 0.979421 0.479421 0.305796
N10_3 N 0.9402(4) 0.6883(5) 0.9402(4)
O38_3 O 0.9234(2) 0.6672(2) 0.8730(3)
O46_2 O 0.8988(3) 0.6012(3) 0.8988(3)
O75_3 O 0.9678(2) 0.6264(2) 0.9175(2)
O76_3 O 0.9175(2) 0.6264(2) 0.9678(2)
C106_3 C 0.9296(6) 0.7031(5) 0.9671(6)
C107_3 C 0.9671(6) 0.7031(5) 0.9296(6)
H68_3 H 0.9760 0.6939 0.9091
H69_3 H 0.9091 0.6939 0.9760
C129_3 C 0.9441(8) 0.7334(6) 0.9878(7)
C130_3 C 0.9878(7) 0.7334(6) 0.9441(8)
C143_3 C 0.9715(6) 0.7475(8) 0.9715(6)
C154_3 C 0.9885(5) 0.7806(7) 0.9885(5)
H102_3 H 0.979421 0.805796 0.979421
H89_4 H 0.0647 0.2589 0.0089
H91_4 H 0.0089 0.2589 0.0647
N3_4 N 0.0598(4) 0.4402(4) 0.8117(5)
N9_4 N 0.0598(4) 0.3117(5) 0.9402(4)
O21_4 O 0.0766(2) 0.3730(3) 0.8328(2)
O22_4 O 0.0766(2) 0.3328(2) 0.8730(3)
O24_6 O 0.0766(2) 0.1672(2) 0.6270(3)
O28_6 O 0.1270(3) 0.1672(2) 0.5766(2)
O54_4 O 0.0322(2) 0.4175(2) 0.8736(2)
O55_4 O 0.0322(2) 0.3736(2) 0.9175(2)
S5_6 S 0.01009(15) 0.39197(11) 0.89197(11)
C17_6 C 0.0757(6) 0.3421(4) 0.8421(4)
C18_6 C 0.0757(6) 0.1579(4) 0.6579(4)
C19_6 C 0.3421(4) 0.3421(4) 0.5757(6)
C20_6 C 0.1579(4) 0.1579(4) 0.5757(6)
C28_6 C 0.0719(6) 0.3151(3) 0.8151(3)
C29_6 C 0.0719(6) 0.1849(3) 0.6849(3)
C30_6 C 0.3151(3) 0.3151(3) 0.5719(6)
C31_6 C 0.1849(3) 0.1849(3) 0.5719(6)
C47_6 C 0.0719(6) 0.3235(4) 0.7814(5)
C48_6 C 0.0719(6) 0.2814(5) 0.8235(4)
C49_6 C 0.0719(6) 0.1765(4) 0.7186(5)
C50_6 C 0.0719(6) 0.2186(5) 0.6765(4)
C51_6 C 0.2814(5) 0.3235(4) 0.5719(6)
C52_6 C 0.3235(4) 0.2814(5) 0.5719(6)
C53_6 C 0.2186(5) 0.1765(4) 0.5719(6)
C54_6 C 0.1765(4) 0.2186(5) 0.5719(6)
H20_6 H 0.0724 0.3469 0.7754
H21_6 H 0.0724 0.2754 0.8469
H22_6 H 0.0724 0.2246 0.6531
H23_6 H 0.0724 0.1531 0.7246
H24_6 H 0.2754 0.3469 0.5724
H25_6 H 0.3469 0.2754 0.5724
H26_6 H 0.1531 0.2246 0.5724
H27_6 H 0.2246 0.1531 0.5724
C70_6 C 0.0712(7) 0.2984(4) 0.7545(4)
C71_6 C 0.0712(7) 0.2545(4) 0.7984(4)
C72_6 C 0.0712(7) 0.2016(4) 0.7455(4)
C73_6 C 0.0712(7) 0.2455(4) 0.7016(4)
C74_6 C 0.2545(4) 0.2984(4) 0.5712(7)
C75_6 C 0.2984(4) 0.2545(4) 0.5712(7)
C76_6 C 0.2455(4) 0.2016(4) 0.5712(7)
C77_6 C 0.2016(4) 0.2455(4) 0.5712(7)
H43_6 H 0.0701 0.3049 0.7313
H44_6 H 0.0701 0.2313 0.8049
H45_6 H 0.0701 0.2687 0.6951
H46_6 H 0.0701 0.1951 0.7687
H47_6 H 0.2313 0.3049 0.5701
H48_6 H 0.3049 0.2313 0.5701
H49_6 H 0.1951 0.2687 0.5701
H50_6 H 0.2687 0.1951 0.5701
C85_6 C 0.0721(7) 0.2643(4) 0.7643(4)
C86_6 C 0.0721(7) 0.2357(4) 0.7357(4)
C87_6 C 0.2643(4) 0.2643(4) 0.5721(7)
C88_6 C 0.2357(4) 0.2357(4) 0.5721(7)
C92_4 C 0.0704(6) 0.4671(6) 0.7969(5)
C93_4 C 0.0329(6) 0.4296(6) 0.7969(5)
C104_4 C 0.0704(6) 0.2969(5) 0.9671(6)
C105_4 C 0.0329(6) 0.2969(5) 0.9296(6)
H54_4 H 0.0909 0.4760 0.8061
H55_4 H 0.0240 0.4091 0.8061
H66_4 H 0.0909 0.3061 0.9760
H67_4 H 0.0240 0.3061 0.9091
C115_4 C 0.0559(8) 0.4878(7) 0.7666(6)
C116_4 C 0.0122(7) 0.4441(8) 0.7666(6)
C127_4 C 0.0559(8) 0.2666(6) 0.9878(7)
C128_4 C 0.0122(7) 0.2666(6) 0.9441(8)
H77_4 H 0.0647 0.5089 0.7589
H79_4 H 0.0089 0.5647 0.7589
C136_4 C 0.0285(6) 0.4715(6) 0.7525(8)
C142_4 C 0.0285(6) 0.2525(8) 0.9715(6)
C147_4 C 0.0115(5) 0.4885(5) 0.7194(7)
C153_4 C 0.0115(5) 0.2194(7) 0.9885(5)
H99_4 H 0.0205793 0.479421 0.694204
H103_4 H 0.0205793 0.194204 0.979421
N10_4 N 0.9402(4) 0.3117(5) 0.0598(4)
O38_4 O 0.9234(2) 0.3328(2) 0.1270(3)
O75_4 O 0.9678(2) 0.3736(2) 0.0825(2)
O76_4 O 0.9175(2) 0.3736(2) 0.0322(2)
C106_4 C 0.9296(6) 0.2969(5) 0.0329(6)
C107_4 C 0.9671(6) 0.2969(5) 0.0704(6)
H68_4 H 0.9760 0.3061 0.0909
H69_4 H 0.9091 0.3061 0.0240
C129_4 C 0.9441(8) 0.2666(6) 0.0122(7)
C130_4 C 0.9878(7) 0.2666(6) 0.0559(8)
C143_4 C 0.9715(6) 0.2525(8) 0.0285(6)
C154_4 C 0.9885(5) 0.2194(7) 0.0115(5)
H102_4 H 0.979421 0.194204 0.0205793
N4_4 N 0.9402(4) 0.5598(4) 0.8117(5)
O33_4 O 0.9234(2) 0.6270(3) 0.8328(2)
O68_4 O 0.9175(2) 0.5322(2) 0.8736(2)
O69_4 O 0.8736(2) 0.5322(2) 0.9175(2)
O70_4 O 0.9678(2) 0.5825(2) 0.8736(2)
O80_6 O 0.9831(4) 0.4103(3) 0.9103(3)
O87_4 O 0.9103(3) 0.4831(4) 0.9103(3)
O91_6 O 0.9959(5) 0.3673(3) 0.8673(3)
O98_4 O 0.8673(3) 0.4959(5) 0.8673(3)
S12_4 S 0.89197(11) 0.51009(15) 0.89197(11)
C94_4 C 0.9296(6) 0.5329(6) 0.7969(5)
C95_4 C 0.9671(6) 0.5704(6) 0.7969(5)
H56_4 H 0.9760 0.5909 0.8061
H57_4 H 0.9091 0.5240 0.8061
C117_4 C 0.9441(8) 0.5122(7) 0.7666(6)
C118_4 C 0.9878(7) 0.5559(8) 0.7666(6)
H78_4 H 0.9911 0.4353 0.7589
H80_4 H 0.9353 0.4911 0.7589
H90_4 H 0.9911 0.2589 0.9353
H92_4 H 0.9353 0.2589 0.9911
C137_4 C 0.9715(6) 0.5285(6) 0.7525(8)
C148_4 C 0.9885(5) 0.5115(5) 0.7194(7)
H105_4 H 0.979421 0.520579 0.694204
O80_7 O 0.0169(4) 0.4103(3) 0.0897(3)
O91_7 O 0.0041(5) 0.3673(3) 0.1327(3)
N1_4 N 0.8117(5) 0.4402(4) 0.0598(4)
C6_4 C 0.7969(5) 0.4671(6) 0.0704(6)
H3_4 H 0.8061 0.4760 0.0909
C7_4 C 0.7666(6) 0.4878(7) 0.0559(8)
H4_4 H 0.7589 0.5089 0.0647
C8_4 C 0.7525(8) 0.4715(6) 0.0285(6)
C9_4 C 0.7194(7) 0.4885(5) 0.0115(5)
N5_4 N 0.6883(5) 0.4402(4) 0.4402(4)
N6_4 N 0.6883(5) 0.5598(4) 0.5598(4)
O24_7 O 0.9234(2) 0.1672(2) 0.3730(3)
O25_4 O 0.6672(2) 0.3730(3) 0.4234(2)
O28_7 O 0.8730(3) 0.1672(2) 0.4234(2)
O35_4 O 0.6672(2) 0.6270(3) 0.5766(2)
O48_4 O 0.8736(2) 0.4175(2) 0.0322(2)
O79_4 O 0.9103(3) 0.5897(3) 0.0169(4)
O90_4 O 0.8673(3) 0.6327(3) 0.0041(5)
S2_4 S 0.89197(11) 0.39197(11) 0.01009(15)
S5_7 S 0.98991(15) 0.39197(11) 0.10803(11)
C17_7 C 0.9243(6) 0.3421(4) 0.1579(4)
C18_7 C 0.9243(6) 0.1579(4) 0.3421(4)
C19_7 C 0.6579(4) 0.3421(4) 0.4243(6)
C20_7 C 0.8421(4) 0.1579(4) 0.4243(6)
C28_7 C 0.9281(6) 0.3151(3) 0.1849(3)
C29_7 C 0.9281(6) 0.1849(3) 0.3151(3)
C30_7 C 0.6849(3) 0.3151(3) 0.4281(6)
C31_7 C 0.8151(3) 0.1849(3) 0.4281(6)
C47_7 C 0.9281(6) 0.3235(4) 0.2186(5)
C48_7 C 0.9281(6) 0.2814(5) 0.1765(4)
C49_7 C 0.9281(6) 0.1765(4) 0.2814(5)
C50_7 C 0.9281(6) 0.2186(5) 0.3235(4)
C51_7 C 0.7186(5) 0.3235(4) 0.4281(6)
C52_7 C 0.6765(4) 0.2814(5) 0.4281(6)
C53_7 C 0.7814(5) 0.1765(4) 0.4281(6)
C54_7 C 0.8235(4) 0.2186(5) 0.4281(6)
H20_7 H 0.9276 0.3469 0.2246
H21_7 H 0.9276 0.2754 0.1531
H22_7 H 0.9276 0.2246 0.3469
H23_7 H 0.9276 0.1531 0.2754
H24_7 H 0.7246 0.3469 0.4276
H25_7 H 0.6531 0.2754 0.4276
H26_7 H 0.8469 0.2246 0.4276
H27_7 H 0.7754 0.1531 0.4276
C70_7 C 0.9288(7) 0.2984(4) 0.2455(4)
C71_7 C 0.9288(7) 0.2545(4) 0.2016(4)
C72_7 C 0.9288(7) 0.2016(4) 0.2545(4)
C73_7 C 0.9288(7) 0.2455(4) 0.2984(4)
C74_7 C 0.7455(4) 0.2984(4) 0.4288(7)
C75_7 C 0.7016(4) 0.2545(4) 0.4288(7)
C76_7 C 0.7545(4) 0.2016(4) 0.4288(7)
C77_7 C 0.7984(4) 0.2455(4) 0.4288(7)
H43_7 H 0.9299 0.3049 0.2687
H44_7 H 0.9299 0.2313 0.1951
H45_7 H 0.9299 0.2687 0.3049
H46_7 H 0.9299 0.1951 0.2313
H47_7 H 0.7687 0.3049 0.4299
H48_7 H 0.6951 0.2313 0.4299
H49_7 H 0.8049 0.2687 0.4299
H50_7 H 0.7313 0.1951 0.4299
C85_7 C 0.9279(7) 0.2643(4) 0.2357(4)
C86_7 C 0.9279(7) 0.2357(4) 0.2643(4)
C87_7 C 0.7357(4) 0.2643(4) 0.4279(7)
C88_7 C 0.7643(4) 0.2357(4) 0.4279(7)
C89_4 C 0.7969(5) 0.4296(6) 0.0329(6)
C96_4 C 0.7031(5) 0.4671(6) 0.4296(6)
C97_4 C 0.7031(5) 0.4296(6) 0.4671(6)
C98_4 C 0.7031(5) 0.5329(6) 0.5704(6)
C99_4 C 0.7031(5) 0.5704(6) 0.5329(6)
H51_4 H 0.8061 0.4091 0.0240
H58_4 H 0.6939 0.4760 0.4091
H59_4 H 0.6939 0.4091 0.4760
H60_4 H 0.6939 0.5909 0.5240
H61_4 H 0.6939 0.5240 0.5909
C112_4 C 0.7666(6) 0.4441(8) 0.0122(7)
C119_4 C 0.7334(6) 0.4878(7) 0.4441(8)
C120_4 C 0.7334(6) 0.4441(8) 0.4878(7)
C121_4 C 0.7334(6) 0.5122(7) 0.5559(8)
C122_4 C 0.7334(6) 0.5559(8) 0.5122(7)
H75_4 H 0.7589 0.5647 0.0089
H81_4 H 0.7411 0.5089 0.4353
H82_4 H 0.7411 0.4353 0.5089
H83_4 H 0.7411 0.5647 0.4911
H84_4 H 0.7411 0.4911 0.5647
C138_4 C 0.7475(8) 0.4715(6) 0.4715(6)
C139_4 C 0.7475(8) 0.5285(6) 0.5285(6)
C149_4 C 0.7806(7) 0.4885(5) 0.4885(5)
C150_4 C 0.7806(7) 0.5115(5) 0.5115(5)
H97_4 H 0.694204 0.479421 0.0205793
H100_4 H 0.805796 0.479421 0.479421
H106_4 H 0.805796 0.520579 0.520579
N2_4 N 0.8117(5) 0.5598(4) 0.9402(4)
O52_4 O 0.8736(2) 0.5825(2) 0.9678(2)
O77_4 O 0.9103(3) 0.4103(3) 0.9831(4)
O88_4 O 0.8673(3) 0.3673(3) 0.9959(5)
S4_4 S 0.89197(11) 0.60803(11) 0.98991(15)
C90_4 C 0.7969(5) 0.5329(6) 0.9296(6)
C91_4 C 0.7969(5) 0.5704(6) 0.9671(6)
H52_4 H 0.8061 0.5909 0.9760
H53_4 H 0.8061 0.5240 0.9091
C113_4 C 0.7666(6) 0.5122(7) 0.9441(8)
C114_4 C 0.7666(6) 0.5559(8) 0.9878(7)
H74_4 H 0.7589 0.4353 0.9911
H76_4 H 0.7589 0.4911 0.9353
C135_4 C 0.7525(8) 0.5285(6) 0.9715(6)
C146_4 C 0.7194(7) 0.5115(5) 0.9885(5)
H98_4 H 0.694204 0.520579 0.979421
O80_8 O 0.0169(4) 0.5897(3) 0.9103(3)
O91_8 O 0.0041(5) 0.6327(3) 0.8673(3)
O24_8 O 0.9234(2) 0.8328(2) 0.6270(3)
O28_8 O 0.8730(3) 0.8328(2) 0.5766(2)
S5_8 S 0.98991(15) 0.60803(11) 0.89197(11)
C17_8 C 0.9243(6) 0.6579(4) 0.8421(4)
C18_8 C 0.9243(6) 0.8421(4) 0.6579(4)
C19_8 C 0.6579(4) 0.6579(4) 0.5757(6)
C20_8 C 0.8421(4) 0.8421(4) 0.5757(6)
C28_8 C 0.9281(6) 0.6849(3) 0.8151(3)
C29_8 C 0.9281(6) 0.8151(3) 0.6849(3)
C30_8 C 0.6849(3) 0.6849(3) 0.5719(6)
C31_8 C 0.8151(3) 0.8151(3) 0.5719(6)
C47_8 C 0.9281(6) 0.6765(4) 0.7814(5)
C48_8 C 0.9281(6) 0.7186(5) 0.8235(4)
C49_8 C 0.9281(6) 0.8235(4) 0.7186(5)
C50_8 C 0.9281(6) 0.7814(5) 0.6765(4)
C51_8 C 0.7186(5) 0.6765(4) 0.5719(6)
C52_8 C 0.6765(4) 0.7186(5) 0.5719(6)
C53_8 C 0.7814(5) 0.8235(4) 0.5719(6)
C54_8 C 0.8235(4) 0.7814(5) 0.5719(6)
H20_8 H 0.9276 0.6531 0.7754
H21_8 H 0.9276 0.7246 0.8469
H22_8 H 0.9276 0.7754 0.6531
H23_8 H 0.9276 0.8469 0.7246
H24_8 H 0.7246 0.6531 0.5724
H25_8 H 0.6531 0.7246 0.5724
H26_8 H 0.8469 0.7754 0.5724
H27_8 H 0.7754 0.8469 0.5724
C70_8 C 0.9288(7) 0.7016(4) 0.7545(4)
C71_8 C 0.9288(7) 0.7455(4) 0.7984(4)
C72_8 C 0.9288(7) 0.7984(4) 0.7455(4)
C73_8 C 0.9288(7) 0.7545(4) 0.7016(4)
C74_8 C 0.7455(4) 0.7016(4) 0.5712(7)
C75_8 C 0.7016(4) 0.7455(4) 0.5712(7)
C76_8 C 0.7545(4) 0.7984(4) 0.5712(7)
C77_8 C 0.7984(4) 0.7545(4) 0.5712(7)
H43_8 H 0.9299 0.6951 0.7313
H44_8 H 0.9299 0.7687 0.8049
H45_8 H 0.9299 0.7313 0.6951
H46_8 H 0.9299 0.8049 0.7687
H47_8 H 0.7687 0.6951 0.5701
H48_8 H 0.6951 0.7687 0.5701
H49_8 H 0.8049 0.7313 0.5701
H50_8 H 0.7313 0.8049 0.5701
C85_8 C 0.9279(7) 0.7357(4) 0.7643(4)
C86_8 C 0.9279(7) 0.7643(4) 0.7357(4)
C87_8 C 0.7357(4) 0.7357(4) 0.5721(7)
C88_8 C 0.7643(4) 0.7643(4) 0.5721(7)
N1_5 N 0.0598(4) 0.1883(5) 0.5598(4)
C6_5 C 0.0704(6) 0.2031(5) 0.5329(6)
H3_5 H 0.0909 0.1939 0.5240
C7_5 C 0.0559(8) 0.2334(6) 0.5122(7)
H4_5 H 0.0647 0.2411 0.4911
C8_5 C 0.0285(6) 0.2475(8) 0.5285(6)
C9_5 C 0.0115(5) 0.2806(7) 0.5115(5)
C89_5 C 0.0329(6) 0.2031(5) 0.5704(6)
C92_5 C 0.2031(5) 0.0704(6) 0.5329(6)
C93_5 C 0.2031(5) 0.0329(6) 0.5704(6)
H51_5 H 0.0240 0.1939 0.5909
H54_5 H 0.1939 0.0909 0.5240
H55_5 H 0.1939 0.0240 0.5909
C112_5 C 0.0122(7) 0.2334(6) 0.5559(8)
C115_5 C 0.2334(6) 0.0559(8) 0.5122(7)
C116_5 C 0.2334(6) 0.0122(7) 0.5559(8)
H75_5 H 0.0089 0.2411 0.4353
H77_5 H 0.2411 0.0647 0.4911
H79_5 H 0.2411 0.0089 0.4353
C136_5 C 0.2475(8) 0.0285(6) 0.5285(6)
C147_5 C 0.2806(7) 0.0115(5) 0.5115(5)
H97_5 H 0.0205793 0.305796 0.520579
H99_5 H 0.305796 0.0205793 0.520579
C94_5 C 0.2031(5) 0.9296(6) 0.4671(6)
C95_5 C 0.2031(5) 0.9671(6) 0.4296(6)
H56_5 H 0.1939 0.9760 0.4091
H57_5 H 0.1939 0.9091 0.4760
C117_5 C 0.2334(6) 0.9441(8) 0.4878(7)
C118_5 C 0.2334(6) 0.9878(7) 0.4441(8)
H78_5 H 0.2411 0.9911 0.5647
H80_5 H 0.2411 0.9353 0.5089
C137_5 C 0.2475(8) 0.9715(6) 0.4715(6)
C148_5 C 0.2806(7) 0.9885(5) 0.4885(5)
H105_5 H 0.305796 0.979421 0.479421
N2_5 N 0.9402(4) 0.1883(5) 0.4402(4)
C90_5 C 0.9296(6) 0.2031(5) 0.4671(6)
C91_5 C 0.9671(6) 0.2031(5) 0.4296(6)
H52_5 H 0.9760 0.1939 0.4091
H53_5 H 0.9091 0.1939 0.4760
C113_5 C 0.9441(8) 0.2334(6) 0.4878(7)
C114_5 C 0.9878(7) 0.2334(6) 0.4441(8)
H74_5 H 0.9911 0.2411 0.5647
H76_5 H 0.9353 0.2411 0.5089
C135_5 C 0.9715(6) 0.2475(8) 0.4715(6)
C146_5 C 0.9885(5) 0.2806(7) 0.4885(5)
H98_5 H 0.979421 0.305796 0.479421
C92_6 C 0.7969(5) 0.0704(6) 0.4671(6)
C93_6 C 0.7969(5) 0.0329(6) 0.4296(6)
H54_6 H 0.8061 0.0909 0.4760
H55_6 H 0.8061 0.0240 0.4091
C115_6 C 0.7666(6) 0.0559(8) 0.4878(7)
C116_6 C 0.7666(6) 0.0122(7) 0.4441(8)
H77_6 H 0.7589 0.0647 0.5089
H79_6 H 0.7589 0.0089 0.5647
C136_6 C 0.7525(8) 0.0285(6) 0.4715(6)
C147_6 C 0.7194(7) 0.0115(5) 0.4885(5)
H99_6 H 0.694204 0.0205793 0.479421
C94_6 C 0.7969(5) 0.9296(6) 0.5329(6)
C95_6 C 0.7969(5) 0.9671(6) 0.5704(6)
H56_6 H 0.8061 0.9760 0.5909
H57_6 H 0.8061 0.9091 0.5240
C117_6 C 0.7666(6) 0.9441(8) 0.5122(7)
C118_6 C 0.7666(6) 0.9878(7) 0.5559(8)
H78_6 H 0.7589 0.9911 0.4353
H80_6 H 0.7589 0.9353 0.4911
C137_6 C 0.7525(8) 0.9715(6) 0.5285(6)
C148_6 C 0.7194(7) 0.9885(5) 0.5115(5)
H105_6 H 0.694204 0.979421 0.520579
N1_6 N 0.0598(4) 0.8117(5) 0.4402(4)
C6_6 C 0.0704(6) 0.7969(5) 0.4671(6)
H3_6 H 0.0909 0.8061 0.4760
C7_6 C 0.0559(8) 0.7666(6) 0.4878(7)
H4_6 H 0.0647 0.7589 0.5089
C8_6 C 0.0285(6) 0.7525(8) 0.4715(6)
C9_6 C 0.0115(5) 0.7194(7) 0.4885(5)
C89_6 C 0.0329(6) 0.7969(5) 0.4296(6)
H51_6 H 0.0240 0.8061 0.4091
C112_6 C 0.0122(7) 0.7666(6) 0.4441(8)
H75_6 H 0.0089 0.7589 0.5647
H97_6 H 0.0205793 0.694204 0.479421
N2_6 N 0.9402(4) 0.8117(5) 0.5598(4)
C90_6 C 0.9296(6) 0.7969(5) 0.5329(6)
C91_6 C 0.9671(6) 0.7969(5) 0.5704(6)
H52_6 H 0.9760 0.8061 0.5909
H53_6 H 0.9091 0.8061 0.5240
C113_6 C 0.9441(8) 0.7666(6) 0.5122(7)
C114_6 C 0.9878(7) 0.7666(6) 0.5559(8)
H74_6 H 0.9911 0.7589 0.4353
H76_6 H 0.9353 0.7589 0.4911
C135_6 C 0.9715(6) 0.7525(8) 0.5285(6)
C146_6 C 0.9885(5) 0.7194(7) 0.5115(5)
H98_6 H 0.979421 0.694204 0.520579
loop_
_geom_bond_atom_site_label_1
_geom_bond_atom_site_label_2
_geom_bond_site_symmetry_1
_geom_bond_site_symmetry_2
N12 C110 1_555 1_555
C110 H73 1_555 1_555
C111 N12 1_555 1_555
H72 C111 1_555 1_555
C133 C110 1_555 1_555
C134 C111 1_555 1_555
C145 C133 1_555 1_555
C156 C145 1_555 1_555
Fe23 N12 1_555 1_555
C134 C145 1_555 1_555
C156 H108 1_555 1_555
N1 C6 1_555 1_555
O1 C1 1_555 1_555
O2 Fe1 1_555 1_555
O3 S1 1_555 1_555
O4 S1 1_555 1_555
O5 S1 1_555 1_555
S1 O47 1_555 1_555
C1 C2 1_555 1_555
C2 C3 1_555 1_555
C3 H1 1_555 1_555
C4 C3 1_555 1_555
H2 C4 1_555 1_555
C5 C4 1_555 1_555
C6 H3 1_555 1_555
C7 C6 1_555 1_555
H4 C7 1_555 1_555
C8 C7 1_555 1_555
C9 C8 1_555 1_555
Fe1 N1 1_555 1_555
N3 C92 1_555 1_555
N5 C96 1_555 1_555
N6 C98 1_555 1_555
N7 C100 1_555 1_555
N8 C102 1_555 1_555
N9 C104 1_555 1_555
N11 C108 1_555 1_555
N13 Fe8 1_555 1_555
O6 C1 1_555 1_555
O7 C10 1_555 1_555
O8 C10 1_555 1_555
O9 Fe1 1_555 1_555
O10 C11 1_555 1_555
O11 C12 1_555 1_555
O12 C12 1_555 1_555
O21 C17 1_555 1_555
O22 C17 1_555 1_555
O23 C18 1_555 1_555
O24 C18 1_555 1_555
O25 C19 1_555 1_555
O26 C19 1_555 1_555
O27 C20 1_555 1_555
O28 C20 1_555 1_555
O29 Fe5 1_555 1_555
O30 Fe7 1_555 1_555
O31 Fe8 1_555 1_555
O34 Fe10 1_555 1_555
O35 Fe10 1_555 1_555
O36 Fe11 1_555 1_555
O37 Fe11 1_555 1_555
O41 Fe4 1_555 1_555
O42 Fe7 1_555 1_555
O44 Fe10 1_555 1_555
O45 Fe11 1_555 1_555
O47 Fe3 1_555 1_555
O48 Fe1 1_555 1_555
O49 S2 1_555 1_555
O54 S5 1_555 1_555
O55 S5 1_555 1_555
O56 S6 1_555 1_555
O57 S6 1_555 1_555
O58 S7 1_555 1_555
O59 S7 1_555 1_555
O60 S8 1_555 1_555
O61 S8 1_555 1_555
O62 S9 1_555 1_555
O63 S9 1_555 1_555
O64 S10 1_555 1_555
O65 S10 1_555 1_555
O66 S11 1_555 1_555
O67 S11 1_555 1_555
O71 Fe10 1_555 1_555
O72 Fe10 1_555 1_555
O73 Fe11 1_555 1_555
O74 Fe11 1_555 1_555
O81 S6 1_555 1_555
O82 S7 1_555 1_555
O83 S8 1_555 1_555
O86 S11 1_555 1_555
O92 S6 1_555 1_555
O93 S7 1_555 1_555
O94 S8 1_555 1_555
O97 S11 1_555 1_555
S2 O48 1_555 1_555
C10 C21 1_555 1_555
C11 O9 1_555 1_555
C12 C23 1_555 1_555
C17 C28 1_555 1_555
C18 C29 1_555 1_555
C19 C30 1_555 1_555
C20 C31 1_555 1_555
C21 C33 1_555 1_555
C22 C11 1_555 1_555
C23 C37 1_555 1_555
C28 C47 1_555 1_555
C29 C49 1_555 1_555
C30 C51 1_555 1_555
C31 C53 1_555 1_555
C32 C2 1_555 1_555
C33 H7 1_555 1_555
C34 C21 1_555 1_555
C35 C22 1_555 1_555
C36 C22 1_555 1_555
C37 H11 1_555 1_555
C38 C23 1_555 1_555
C47 H20 1_555 1_555
C48 C28 1_555 1_555
C49 H23 1_555 1_555
C50 C29 1_555 1_555
C51 H24 1_555 1_555
C52 C30 1_555 1_555
C53 H27 1_555 1_555
C54 C31 1_555 1_555
H5 C32 1_555 1_555
H6 C34 1_555 1_555
H8 C35 1_555 1_555
H9 C36 1_555 1_555
H10 C38 1_555 1_555
H21 C48 1_555 1_555
H22 C50 1_555 1_555
H25 C52 1_555 1_555
H26 C54 1_555 1_555
C55 C5 1_555 1_555
C56 C33 1_555 1_555
C57 C34 1_555 1_555
C58 C35 1_555 1_555
C59 C36 1_555 1_555
C60 C37 1_555 1_555
C61 C38 1_555 1_555
C70 C47 1_555 1_555
C71 C48 1_555 1_555
C72 C49 1_555 1_555
C73 C50 1_555 1_555
C74 C51 1_555 1_555
C75 C52 1_555 1_555
C76 C53 1_555 1_555
C77 C54 1_555 1_555
H28 C55 1_555 1_555
H29 C57 1_555 1_555
H30 C56 1_555 1_555
H31 C58 1_555 1_555
H32 C59 1_555 1_555
H33 C61 1_555 1_555
H34 C60 1_555 1_555
H43 C70 1_555 1_555
H44 C71 1_555 1_555
H45 C73 1_555 1_555
H46 C72 1_555 1_555
H47 C74 1_555 1_555
H48 C75 1_555 1_555
H49 C77 1_555 1_555
H50 C76 1_555 1_555
C78 C5 1_555 1_555
C79 C58 1_555 1_555
C80 C60 1_555 1_555
C85 C70 1_555 1_555
C86 C72 1_555 1_555
C87 C74 1_555 1_555
C88 C76 1_555 1_555
C89 N1 1_555 1_555
C92 H54 1_555 1_555
C93 N3 1_555 1_555
C96 H58 1_555 1_555
C97 N5 1_555 1_555
C98 H61 1_555 1_555
C99 N6 1_555 1_555
C100 H62 1_555 1_555
C101 N7 1_555 1_555
C102 H65 1_555 1_555
C103 N8 1_555 1_555
C104 H66 1_555 1_555
C105 N9 1_555 1_555
C108 H70 1_555 1_555
C109 N11 1_555 1_555
H51 C89 1_555 1_555
H55 C93 1_555 1_555
H59 C97 1_555 1_555
H60 C99 1_555 1_555
H63 C101 1_555 1_555
H64 C103 1_555 1_555
H67 C105 1_555 1_555
H71 C109 1_555 1_555
C112 C8 1_555 1_555
C115 C92 1_555 1_555
C116 C93 1_555 1_555
C119 C96 1_555 1_555
C120 C97 1_555 1_555
C121 C98 1_555 1_555
C122 C99 1_555 1_555
C123 C100 1_555 1_555
C124 C101 1_555 1_555
C125 C102 1_555 1_555
C126 C103 1_555 1_555
C127 C104 1_555 1_555
C128 C105 1_555 1_555
C131 C108 1_555 1_555
C132 C109 1_555 1_555
H77 C115 1_555 1_555
H81 C119 1_555 1_555
H82 C120 1_555 1_555
H83 C122 1_555 1_555
H84 C121 1_555 1_555
H85 C123 1_555 1_555
H86 C124 1_555 1_555
H87 C126 1_555 1_555
H88 C125 1_555 1_555
C136 C115 1_555 1_555
C138 C119 1_555 1_555
C139 C121 1_555 1_555
C140 C123 1_555 1_555
C141 C125 1_555 1_555
C142 C127 1_555 1_555
C144 C131 1_555 1_555
C147 C136 1_555 1_555
C149 C138 1_555 1_555
C150 C139 1_555 1_555
C151 C140 1_555 1_555
C152 C141 1_555 1_555
C153 C142 1_555 1_555
C155 C144 1_555 1_555
Fe3 O2 1_555 1_555
Fe4 N5 1_555 1_555
Fe5 N7 1_555 1_555
Fe6 O2 1_555 1_555
Fe7 N11 1_555 1_555
Fe8 O12 1_555 1_555
Fe10 N6 1_555 1_555
Fe11 N8 1_555 1_555
Fe19 O23 1_555 1_555
Fe20 O24 1_555 1_555
Fe21 O26 1_555 1_555
Fe22 O27 1_555 1_555
Fe24 O42 1_555 1_555
O1 Fe1 1_555 1_555
O3 Fe1 1_555 1_555
N3 Fe3 1_555 1_555
N9 Fe6 1_555 1_555
O6 Fe3 1_555 1_555
O7 Fe4 1_555 1_555
O8 Fe5 1_555 1_555
O10 Fe6 1_555 1_555
O11 Fe7 1_555 1_555
O21 Fe3 1_555 1_555
O22 Fe6 1_555 1_555
O25 Fe4 1_555 1_555
O28 Fe20 1_555 1_555
O41 Fe5 1_555 1_555
O41 Fe21 1_555 1_555
O42 Fe8 1_555 1_555
O49 Fe6 1_555 1_555
O54 Fe3 1_555 1_555
O55 Fe6 1_555 1_555
O56 Fe4 1_555 1_555
O57 Fe5 1_555 1_555
O58 Fe4 1_555 1_555
O59 Fe21 1_555 1_555
O60 Fe5 1_555 1_555
O61 Fe21 1_555 1_555
O62 Fe7 1_555 1_555
O63 Fe8 1_555 1_555
O64 Fe7 1_555 1_555
O65 Fe24 1_555 1_555
O66 Fe8 1_555 1_555
O67 Fe24 1_555 1_555
C32 C55 1_555 1_555
C56 C78 1_555 1_555
C57 C78 1_555 1_555
C59 C79 1_555 1_555
C61 C80 1_555 1_555
C71 C85 1_555 1_555
C73 C86 1_555 1_555
C75 C87 1_555 1_555
C77 C88 1_555 1_555
C79 C80 1_555 1_555
C85 C86 1_555 1_555
C87 C88 1_555 1_555
C89 C112 1_555 1_555
C116 C136 1_555 1_555
C120 C138 1_555 1_555
C122 C139 1_555 1_555
C124 C140 1_555 1_555
C126 C141 1_555 1_555
C128 C142 1_555 1_555
C132 C144 1_555 1_555
C149 C150 1_555 1_555
C151 C152 1_555 1_555
C9 H97 1_555 1_555
C147 H99 1_555 1_555
C149 H100 1_555 1_555
C151 H101 1_555 1_555
C153 H103 1_555 1_555
C155 H104 1_555 1_555
C150 H106 1_555 1_555
C152 H107 1_555 1_555
N4 C94 1_555 1_555
O32 Fe9 1_555 1_555
O33 Fe9 1_555 1_555
O43 Fe9 1_555 1_555
O68 S12 1_555 1_555
O69 S12 1_555 1_555
O70 Fe9 1_555 1_555
O87 S12 1_555 1_555
O98 S12 1_555 1_555
C94 H57 1_555 1_555
C95 N4 1_555 1_555
H56 C95 1_555 1_555
C117 C94 1_555 1_555
C118 C95 1_555 1_555
H80 C117 1_555 1_555
C137 C117 1_555 1_555
C148 C137 1_555 1_555
Fe9 N4 1_555 1_555
Fe25 O43 1_555 1_555
O68 Fe9 1_555 1_555
O69 Fe25 1_555 1_555
C118 C137 1_555 1_555
C148 H105 1_555 1_555
N2 C90 1_555 1_555
O13 C13 1_555 1_555
O14 C13 1_555 1_555
O34 C14 1_555 1_555
O16 C14 1_555 1_555
O17 C15 1_555 1_555
O18 C15 1_555 1_555
O19 C16 1_555 1_555
O20 C16 1_555 1_555
O40 Fe2 1_555 1_555
O50 S3 1_555 1_555
O51 S3 1_555 1_555
O52 S4 1_555 1_555
O53 S4 1_555 1_555
O78 S3 1_555 1_555
O89 S3 1_555 1_555
C13 C24 1_555 1_555
C14 C25 1_555 1_555
C15 C26 1_555 1_555
C16 C27 1_555 1_555
C24 C39 1_555 1_555
C25 C41 1_555 1_555
C26 C43 1_555 1_555
C27 C45 1_555 1_555
C39 H12 1_555 1_555
C40 C24 1_555 1_555
C41 H15 1_555 1_555
C42 C25 1_555 1_555
C43 H16 1_555 1_555
C44 C26 1_555 1_555
C45 H19 1_555 1_555
C46 C27 1_555 1_555
H13 C40 1_555 1_555
H14 C42 1_555 1_555
H17 C44 1_555 1_555
H18 C46 1_555 1_555
C62 C39 1_555 1_555
C63 C40 1_555 1_555
C64 C41 1_555 1_555
C65 C42 1_555 1_555
C66 C43 1_555 1_555
C67 C44 1_555 1_555
C68 C45 1_555 1_555
C69 C46 1_555 1_555
H35 C62 1_555 1_555
H36 C63 1_555 1_555
H37 C65 1_555 1_555
H38 C64 1_555 1_555
H39 C66 1_555 1_555
H40 C67 1_555 1_555
H41 C69 1_555 1_555
H42 C68 1_555 1_555
C81 C62 1_555 1_555
C82 C64 1_555 1_555
C83 C66 1_555 1_555
C84 C68 1_555 1_555
C90 H53 1_555 1_555
C91 N2 1_555 1_555
H52 C91 1_555 1_555
C113 C90 1_555 1_555
C114 C91 1_555 1_555
H76 C113 1_555 1_555
C135 C113 1_555 1_555
Fe2 N2 1_555 1_555
Fe13 O14 1_555 1_555
Fe15 O16 1_555 1_555
Fe16 O18 1_555 1_555
Fe23 O19 1_555 1_555
Fe18 O20 1_555 1_555
O13 Fe2 1_555 1_555
O17 Fe2 1_555 1_555
O40 Fe13 1_555 1_555
O40 Fe16 1_555 1_555
O50 Fe2 1_555 1_555
O51 Fe13 1_555 1_555
O52 Fe2 1_555 1_555
O53 Fe16 1_555 1_555
C63 C81 1_555 1_555
C65 C82 1_555 1_555
C67 C83 1_555 1_555
C69 C84 1_555 1_555
C81 C82 1_555 1_555
C83 C84 1_555 1_555
C114 C135 1_555 1_555
C135 C146 1_555 1_555
C146 H98 1_555 1_555
N10 C106 1_555 1_555
O38 Fe12 1_555 1_555
O39 Fe12 1_555 1_555
O46 Fe12 1_555 1_555
O75 Fe12 1_555 1_555
O76 Fe12 1_555 1_555
C106 H69 1_555 1_555
C107 N10 1_555 1_555
H68 C107 1_555 1_555
C129 C106 1_555 1_555
C130 C107 1_555 1_555
C143 C129 1_555 1_555
C154 C143 1_555 1_555
Fe12 N10 1_555 1_555
C130 C143 1_555 1_555
C154 H102 1_555 1_555
N10_2 C106_2 1_555 1_555
O38_2 Fe12_2 1_555 1_555
O39_2 Fe12_2 1_555 1_555
O43 Fe12_2 1_555 1_555
O75_2 Fe12_2 1_555 1_555
O76_2 Fe12_2 1_555 1_555
C106_2 H69_2 1_555 1_555
C107_2 N10_2 1_555 1_555
H68_2 C107_2 1_555 1_555
C129_2 C106_2 1_555 1_555
C130_2 C107_2 1_555 1_555
C143_2 C129_2 1_555 1_555
C154_2 C143_2 1_555 1_555
Fe12_2 N10_2 1_555 1_555
C130_2 C143_2 1_555 1_555
C154_2 H102_2 1_555 1_555
N3_2 C92_2 1_555 1_555
N7_2 C100_2 1_555 1_555
N8_2 C102_2 1_555 1_555
N9_2 C104_2 1_555 1_555
N13_2 Fe18 1_555 1_555
O21_2 C17_2 1_555 1_555
O22_2 C17_2 1_555 1_555
O23_2 C18_2 1_555 1_555
O24_2 C18_2 1_555 1_555
O35 C19_2 1_555 1_555
O26_2 C19_2 1_555 1_555
O27_2 C20_2 1_555 1_555
O28_2 C20_2 1_555 1_555
O29_2 Fe15 1_555 1_555
O30_2 Fe23 1_555 1_555
O31_2 Fe18 1_555 1_555
O36_2 Fe11_2 1_555 1_555
O37_2 Fe11_2 1_555 1_555
O42_2 Fe23 1_555 1_555
O45_2 Fe11_2 1_555 1_555
O54_2 S5_2 1_555 1_555
O55_2 S5_2 1_555 1_555
O71 S6_2 1_555 1_555
O57_2 S6_2 1_555 1_555
O72 S7_2 1_555 1_555
O59_2 S7_2 1_555 1_555
O60_2 S8_2 1_555 1_555
O61_2 S8_2 1_555 1_555
O62_2 S9_2 1_555 1_555
O63_2 S9_2 1_555 1_555
O64_2 S10_2 1_555 1_555
O65_2 S10_2 1_555 1_555
O66_2 S11_2 1_555 1_555
O67_2 S11_2 1_555 1_555
O73_2 Fe11_2 1_555 1_555
O74_2 Fe11_2 1_555 1_555
O81_2 S6_2 1_555 1_555
O82_2 S7_2 1_555 1_555
O83_2 S8_2 1_555 1_555
O86_2 S11_2 1_555 1_555
O92_2 S6_2 1_555 1_555
O93_2 S7_2 1_555 1_555
O94_2 S8_2 1_555 1_555
O97_2 S11_2 1_555 1_555
C17_2 C28_2 1_555 1_555
C18_2 C29_2 1_555 1_555
C19_2 C30_2 1_555 1_555
C20_2 C31_2 1_555 1_555
C28_2 C47_2 1_555 1_555
C29_2 C49_2 1_555 1_555
C30_2 C51_2 1_555 1_555
C31_2 C53_2 1_555 1_555
C47_2 H20_2 1_555 1_555
C48_2 C28_2 1_555 1_555
C49_2 H23_2 1_555 1_555
C50_2 C29_2 1_555 1_555
C51_2 H24_2 1_555 1_555
C52_2 C30_2 1_555 1_555
C53_2 H27_2 1_555 1_555
C54_2 C31_2 1_555 1_555
H21_2 C48_2 1_555 1_555
H22_2 C50_2 1_555 1_555
H25_2 C52_2 1_555 1_555
H26_2 C54_2 1_555 1_555
C70_2 C47_2 1_555 1_555
C71_2 C48_2 1_555 1_555
C72_2 C49_2 1_555 1_555
C73_2 C50_2 1_555 1_555
C74_2 C51_2 1_555 1_555
C75_2 C52_2 1_555 1_555
C76_2 C53_2 1_555 1_555
C77_2 C54_2 1_555 1_555
H43_2 C70_2 1_555 1_555
H44_2 C71_2 1_555 1_555
H45_2 C73_2 1_555 1_555
H46_2 C72_2 1_555 1_555
H47_2 C74_2 1_555 1_555
H48_2 C75_2 1_555 1_555
H49_2 C77_2 1_555 1_555
H50_2 C76_2 1_555 1_555
C85_2 C70_2 1_555 1_555
C86_2 C72_2 1_555 1_555
C87_2 C74_2 1_555 1_555
C88_2 C76_2 1_555 1_555
C92_2 H54_2 1_555 1_555
C93_2 N3_2 1_555 1_555
C100_2 H62_2 1_555 1_555
C101_2 N7_2 1_555 1_555
C102_2 H65_2 1_555 1_555
C103_2 N8_2 1_555 1_555
C104_2 H66_2 1_555 1_555
C105_2 N9_2 1_555 1_555
H55_2 C93_2 1_555 1_555
H63_2 C101_2 1_555 1_555
H64_2 C103_2 1_555 1_555
H67_2 C105_2 1_555 1_555
C115_2 C92_2 1_555 1_555
C116_2 C93_2 1_555 1_555
C123_2 C100_2 1_555 1_555
C124_2 C101_2 1_555 1_555
C125_2 C102_2 1_555 1_555
C126_2 C103_2 1_555 1_555
C127_2 C104_2 1_555 1_555
C128_2 C105_2 1_555 1_555
H77_2 C115_2 1_555 1_555
H85_2 C123_2 1_555 1_555
H86_2 C124_2 1_555 1_555
H87_2 C126_2 1_555 1_555
H88_2 C125_2 1_555 1_555
C136_2 C115_2 1_555 1_555
C140_2 C123_2 1_555 1_555
C141_2 C125_2 1_555 1_555
C142_2 C127_2 1_555 1_555
C147_2 C136_2 1_555 1_555
C151_2 C140_2 1_555 1_555
C152_2 C141_2 1_555 1_555
C153_2 C142_2 1_555 1_555
Fe15 N7_2 1_555 1_555
Fe11_2 N8_2 1_555 1_555
Fe19_2 O23_2 1_555 1_555
Fe20_2 O24_2 1_555 1_555
Fe21_2 O26_2 1_555 1_555
Fe22_2 O27_2 1_555 1_555
Fe24_2 O42_2 1_555 1_555
N3_2 Fe13 1_555 1_555
N9_2 Fe16 1_555 1_555
O21_2 Fe13 1_555 1_555
O22_2 Fe16 1_555 1_555
O28_2 Fe20_2 1_555 1_555
O44 Fe15 1_555 1_555
O44 Fe21_2 1_555 1_555
O42_2 Fe18 1_555 1_555
O54_2 Fe13 1_555 1_555
O55_2 Fe16 1_555 1_555
O57_2 Fe15 1_555 1_555
O59_2 Fe21_2 1_555 1_555
O60_2 Fe15 1_555 1_555
O61_2 Fe21_2 1_555 1_555
O62_2 Fe23 1_555 1_555
O63_2 Fe18 1_555 1_555
O64_2 Fe23 1_555 1_555
O65_2 Fe24_2 1_555 1_555
O66_2 Fe18 1_555 1_555
O67_2 Fe24_2 1_555 1_555
C71_2 C85_2 1_555 1_555
C73_2 C86_2 1_555 1_555
C75_2 C87_2 1_555 1_555
C77_2 C88_2 1_555 1_555
C85_2 C86_2 1_555 1_555
C87_2 C88_2 1_555 1_555
C116_2 C136_2 1_555 1_555
C124_2 C140_2 1_555 1_555
C126_2 C141_2 1_555 1_555
C128_2 C142_2 1_555 1_555
C151_2 C152_2 1_555 1_555
C147_2 H99_2 1_555 1_555
C151_2 H101_2 1_555 1_555
C153_2 H103_2 1_555 1_555
C152_2 H107_2 1_555 1_555
N4_2 C94_2 1_555 1_555
O32_2 Fe9_2 1_555 1_555
O33_2 Fe9_2 1_555 1_555
O46 Fe9_2 1_555 1_555
O68_2 S12_2 1_555 1_555
O69_2 S12_2 1_555 1_555
O70_2 Fe9_2 1_555 1_555
O87_2 S12_2 1_555 1_555
O98_2 S12_2 1_555 1_555
C94_2 H57_2 1_555 1_555
C95_2 N4_2 1_555 1_555
H56_2 C95_2 1_555 1_555
C117_2 C94_2 1_555 1_555
C118_2 C95_2 1_555 1_555
H80_2 C117_2 1_555 1_555
C137_2 C117_2 1_555 1_555
C148_2 C137_2 1_555 1_555
Fe9_2 N4_2 1_555 1_555
Fe25_2 O46 1_555 1_555
O68_2 Fe9_2 1_555 1_555
O69_2 Fe25_2 1_555 1_555
C118_2 C137_2 1_555 1_555
C148_2 H105_2 1_555 1_555
N1_2 C6_2 1_555 1_555
O1_2 C1_2 1_555 1_555
C1_2 C2_2 1_555 1_555
C2_2 C3_2 1_555 1_555
C3_2 H1_2 1_555 1_555
C4_2 C3_2 1_555 1_555
H2_2 C4_2 1_555 1_555
C5_2 C4_2 1_555 1_555
C6_2 H3_2 1_555 1_555
C7_2 C6_2 1_555 1_555
H4_2 C7_2 1_555 1_555
C8_2 C7_2 1_555 1_555
C9_2 C8_2 1_555 1_555
Fe25 N1_2 1_555 1_555
N5_2 C96_2 1_555 1_555
N6_2 C98_2 1_555 1_555
N11_2 C108_2 1_555 1_555
N13_3 Fe8_2 1_555 1_555
O32 C1_2 1_555 1_555
O7_2 C10_2 1_555 1_555
O36 C10_2 1_555 1_555
O9_2 Fe25 1_555 1_555
O39_2 C11_2 1_555 1_555
O11_2 C12_2 1_555 1_555
O12_2 C12_2 1_555 1_555
O33 C17_3 1_555 1_555
O38_2 C17_3 1_555 1_555
O23_3 C18_3 1_555 1_555
O24_3 C18_3 1_555 1_555
O25_2 C19_3 1_555 1_555
O26_3 C19_3 1_555 1_555
O27_3 C20_3 1_555 1_555
O28_3 C20_3 1_555 1_555
O30_3 Fe7_2 1_555 1_555
O31_3 Fe8_2 1_555 1_555
O34_2 Fe10_2 1_555 1_555
O35_2 Fe10_2 1_555 1_555
O45 Fe4_2 1_555 1_555
O42_3 Fe7_2 1_555 1_555
O45_2 Fe10_2 1_555 1_555
O48_2 Fe25 1_555 1_555
O76_2 S2_2 1_555 1_555
O70 S5_3 1_555 1_555
O75_2 S5_3 1_555 1_555
O56_2 S6_3 1_555 1_555
O73 S6_3 1_555 1_555
O58_2 S7_3 1_555 1_555
O59_3 S7_3 1_555 1_555
O74 S8_3 1_555 1_555
O61_3 S8_3 1_555 1_555
O62_3 S9_3 1_555 1_555
O63_3 S9_3 1_555 1_555
O64_3 S10_3 1_555 1_555
O65_3 S10_3 1_555 1_555
O66_3 S11_3 1_555 1_555
O67_3 S11_3 1_555 1_555
O71_2 Fe10_2 1_555 1_555
O72_2 Fe10_2 1_555 1_555
O81_3 S6_3 1_555 1_555
O82_3 S7_3 1_555 1_555
O83_3 S8_3 1_555 1_555
O86_3 S11_3 1_555 1_555
O92_3 S6_3 1_555 1_555
O93_3 S7_3 1_555 1_555
O94_3 S8_3 1_555 1_555
O97_3 S11_3 1_555 1_555
S2_2 O48_2 1_555 1_555
C10_2 C21_2 1_555 1_555
C11_2 O9_2 1_555 1_555
C12_2 C23_2 1_555 1_555
C17_3 C28_3 1_555 1_555
C18_3 C29_3 1_555 1_555
C19_3 C30_3 1_555 1_555
C20_3 C31_3 1_555 1_555
C21_2 C33_2 1_555 1_555
C22_2 C11_2 1_555 1_555
C23_2 C37_2 1_555 1_555
C28_3 C47_3 1_555 1_555
C29_3 C49_3 1_555 1_555
C30_3 C51_3 1_555 1_555
C31_3 C53_3 1_555 1_555
C32_2 C2_2 1_555 1_555
C33_2 H7_2 1_555 1_555
C34_2 C21_2 1_555 1_555
C35_2 C22_2 1_555 1_555
C36_2 C22_2 1_555 1_555
C37_2 H11_2 1_555 1_555
C38_2 C23_2 1_555 1_555
C47_3 H20_3 1_555 1_555
C48_3 C28_3 1_555 1_555
C49_3 H23_3 1_555 1_555
C50_3 C29_3 1_555 1_555
C51_3 H24_3 1_555 1_555
C52_3 C30_3 1_555 1_555
C53_3 H27_3 1_555 1_555
C54_3 C31_3 1_555 1_555
H5_2 C32_2 1_555 1_555
H6_2 C34_2 1_555 1_555
H8_2 C35_2 1_555 1_555
H9_2 C36_2 1_555 1_555
H10_2 C38_2 1_555 1_555
H21_3 C48_3 1_555 1_555
H22_3 C50_3 1_555 1_555
H25_3 C52_3 1_555 1_555
H26_3 C54_3 1_555 1_555
C55_2 C5_2 1_555 1_555
C56_2 C33_2 1_555 1_555
C57_2 C34_2 1_555 1_555
C58_2 C35_2 1_555 1_555
C59_2 C36_2 1_555 1_555
C60_2 C37_2 1_555 1_555
C61_2 C38_2 1_555 1_555
C70_3 C47_3 1_555 1_555
C71_3 C48_3 1_555 1_555
C72_3 C49_3 1_555 1_555
C73_3 C50_3 1_555 1_555
C74_3 C51_3 1_555 1_555
C75_3 C52_3 1_555 1_555
C76_3 C53_3 1_555 1_555
C77_3 C54_3 1_555 1_555
H28_2 C55_2 1_555 1_555
H29_2 C57_2 1_555 1_555
H30_2 C56_2 1_555 1_555
H31_2 C58_2 1_555 1_555
H32_2 C59_2 1_555 1_555
H33_2 C61_2 1_555 1_555
H34_2 C60_2 1_555 1_555
H43_3 C70_3 1_555 1_555
H44_3 C71_3 1_555 1_555
H45_3 C73_3 1_555 1_555
H46_3 C72_3 1_555 1_555
H47_3 C74_3 1_555 1_555
H48_3 C75_3 1_555 1_555
H49_3 C77_3 1_555 1_555
H50_3 C76_3 1_555 1_555
C78_2 C5_2 1_555 1_555
C79_2 C58_2 1_555 1_555
C80_2 C60_2 1_555 1_555
C85_3 C70_3 1_555 1_555
C86_3 C72_3 1_555 1_555
C87_3 C74_3 1_555 1_555
C88_3 C76_3 1_555 1_555
C89_2 N1_2 1_555 1_555
C96_2 H58_2 1_555 1_555
C97_2 N5_2 1_555 1_555
C98_2 H61_2 1_555 1_555
C99_2 N6_2 1_555 1_555
C108_2 H70_2 1_555 1_555
C109_2 N11_2 1_555 1_555
H51_2 C89_2 1_555 1_555
H59_2 C97_2 1_555 1_555
H60_2 C99_2 1_555 1_555
H71_2 C109_2 1_555 1_555
C112_2 C8_2 1_555 1_555
C119_2 C96_2 1_555 1_555
C120_2 C97_2 1_555 1_555
C121_2 C98_2 1_555 1_555
C122_2 C99_2 1_555 1_555
C131_2 C108_2 1_555 1_555
C132_2 C109_2 1_555 1_555
H81_2 C119_2 1_555 1_555
H82_2 C120_2 1_555 1_555
H83_2 C122_2 1_555 1_555
H84_2 C121_2 1_555 1_555
C138_2 C119_2 1_555 1_555
C139_2 C121_2 1_555 1_555
C144_2 C131_2 1_555 1_555
C149_2 C138_2 1_555 1_555
C150_2 C139_2 1_555 1_555
C155_2 C144_2 1_555 1_555
Fe4_2 N5_2 1_555 1_555
Fe7_2 N11_2 1_555 1_555
Fe8_2 O12_2 1_555 1_555
Fe10_2 N6_2 1_555 1_555
Fe19_3 O23_3 1_555 1_555
Fe20_3 O24_3 1_555 1_555
Fe21_3 O26_3 1_555 1_555
Fe22_3 O27_3 1_555 1_555
Fe24_3 O42_3 1_555 1_555
O1_2 Fe25 1_555 1_555
O7_2 Fe4_2 1_555 1_555
O11_2 Fe7_2 1_555 1_555
O25_2 Fe4_2 1_555 1_555
O28_3 Fe20_3 1_555 1_555
O45 Fe21_3 1_555 1_555
O42_3 Fe8_2 1_555 1_555
O56_2 Fe4_2 1_555 1_555
O58_2 Fe4_2 1_555 1_555
O59_3 Fe21_3 1_555 1_555
O61_3 Fe21_3 1_555 1_555
O62_3 Fe7_2 1_555 1_555
O63_3 Fe8_2 1_555 1_555
O64_3 Fe7_2 1_555 1_555
O65_3 Fe24_3 1_555 1_555
O66_3 Fe8_2 1_555 1_555
O67_3 Fe24_3 1_555 1_555
C32_2 C55_2 1_555 1_555
C56_2 C78_2 1_555 1_555
C57_2 C78_2 1_555 1_555
C59_2 C79_2 1_555 1_555
C61_2 C80_2 1_555 1_555
C71_3 C85_3 1_555 1_555
C73_3 C86_3 1_555 1_555
C75_3 C87_3 1_555 1_555
C77_3 C88_3 1_555 1_555
C79_2 C80_2 1_555 1_555
C85_3 C86_3 1_555 1_555
C87_3 C88_3 1_555 1_555
C89_2 C112_2 1_555 1_555
C120_2 C138_2 1_555 1_555
C122_2 C139_2 1_555 1_555
C132_2 C144_2 1_555 1_555
C149_2 C150_2 1_555 1_555
C9_2 H97_2 1_555 1_555
C149_2 H100_2 1_555 1_555
C155_2 H104_2 1_555 1_555
C150_2 H106_2 1_555 1_555
N2_2 C90_2 1_555 1_555
O13_2 C13_2 1_555 1_555
O32_2 C13_2 1_555 1_555
O34_2 C14_2 1_555 1_555
O36_2 C14_2 1_555 1_555
O17_2 C15_2 1_555 1_555
O39 C15_2 1_555 1_555
O19_2 C16_2 1_555 1_555
O20_2 C16_2 1_555 1_555
O52_2 S4_2 1_555 1_555
O76 S4_2 1_555 1_555
C13_2 C24_2 1_555 1_555
C14_2 C25_2 1_555 1_555
C15_2 C26_2 1_555 1_555
C16_2 C27_2 1_555 1_555
C24_2 C39_2 1_555 1_555
C25_2 C41_2 1_555 1_555
C26_2 C43_2 1_555 1_555
C27_2 C45_2 1_555 1_555
C39_2 H12_2 1_555 1_555
C40_2 C24_2 1_555 1_555
C41_2 H15_2 1_555 1_555
C42_2 C25_2 1_555 1_555
C43_2 H16_2 1_555 1_555
C44_2 C26_2 1_555 1_555
C45_2 H19_2 1_555 1_555
C46_2 C27_2 1_555 1_555
H13_2 C40_2 1_555 1_555
H14_2 C42_2 1_555 1_555
H17_2 C44_2 1_555 1_555
H18_2 C46_2 1_555 1_555
C62_2 C39_2 1_555 1_555
C63_2 C40_2 1_555 1_555
C64_2 C41_2 1_555 1_555
C65_2 C42_2 1_555 1_555
C66_2 C43_2 1_555 1_555
C67_2 C44_2 1_555 1_555
C68_2 C45_2 1_555 1_555
C69_2 C46_2 1_555 1_555
H35_2 C62_2 1_555 1_555
H36_2 C63_2 1_555 1_555
H37_2 C65_2 1_555 1_555
H38_2 C64_2 1_555 1_555
H39_2 C66_2 1_555 1_555
H40_2 C67_2 1_555 1_555
H41_2 C69_2 1_555 1_555
H42_2 C68_2 1_555 1_555
C81_2 C62_2 1_555 1_555
C82_2 C64_2 1_555 1_555
C83_2 C66_2 1_555 1_555
C84_2 C68_2 1_555 1_555
C90_2 H53_2 1_555 1_555
C91_2 N2_2 1_555 1_555
H52_2 C91_2 1_555 1_555
C113_2 C90_2 1_555 1_555
C114_2 C91_2 1_555 1_555
H76_2 C113_2 1_555 1_555
C135_2 C113_2 1_555 1_555
Fe25_2 N2_2 1_555 1_555
Fe17 O19_2 1_555 1_555
Fe18_2 O20_2 1_555 1_555
O13_2 Fe25_2 1_555 1_555
O17_2 Fe25_2 1_555 1_555
O52_2 Fe25_2 1_555 1_555
C63_2 C81_2 1_555 1_555
C65_2 C82_2 1_555 1_555
C67_2 C83_2 1_555 1_555
C69_2 C84_2 1_555 1_555
C81_2 C82_2 1_555 1_555
C83_2 C84_2 1_555 1_555
C114_2 C135_2 1_555 1_555
C135_2 C146_2 1_555 1_555
C146_2 H98_2 1_555 1_555
N12_2 C110_2 1_555 1_555
C110_2 H73_2 1_555 1_555
C111_2 N12_2 1_555 1_555
H72_2 C111_2 1_555 1_555
C133_2 C110_2 1_555 1_555
C134_2 C111_2 1_555 1_555
C145_2 C133_2 1_555 1_555
C156_2 C145_2 1_555 1_555
Fe17 N12_2 1_555 1_555
C134_2 C145_2 1_555 1_555
C156_2 H108_2 1_555 1_555
N13_4 Fe18_2 1_555 1_555
O33_2 C17_4 1_555 1_555
O38 C17_4 1_555 1_555
O23_4 C18_4 1_555 1_555
O24_4 C18_4 1_555 1_555
O35_2 C19_4 1_555 1_555
O26_4 C19_4 1_555 1_555
O27_4 C20_4 1_555 1_555
O28_4 C20_4 1_555 1_555
O30_4 Fe17 1_555 1_555
O31_4 Fe18_2 1_555 1_555
O42_4 Fe17 1_555 1_555
O70_2 S5_4 1_555 1_555
O75 S5_4 1_555 1_555
O71_2 S6_4 1_555 1_555
O73_2 S6_4 1_555 1_555
O72_2 S7_4 1_555 1_555
O59_4 S7_4 1_555 1_555
O74_2 S8_4 1_555 1_555
O61_4 S8_4 1_555 1_555
O62_4 S9_4 1_555 1_555
O63_4 S9_4 1_555 1_555
O64_4 S10_4 1_555 1_555
O65_4 S10_4 1_555 1_555
O66_4 S11_4 1_555 1_555
O67_4 S11_4 1_555 1_555
O81_4 S6_4 1_555 1_555
O82_4 S7_4 1_555 1_555
O83_4 S8_4 1_555 1_555
O86_4 S11_4 1_555 1_555
O92_4 S6_4 1_555 1_555
O93_4 S7_4 1_555 1_555
O94_4 S8_4 1_555 1_555
O97_4 S11_4 1_555 1_555
C17_4 C28_4 1_555 1_555
C18_4 C29_4 1_555 1_555
C19_4 C30_4 1_555 1_555
C20_4 C31_4 1_555 1_555
C28_4 C47_4 1_555 1_555
C29_4 C49_4 1_555 1_555
C30_4 C51_4 1_555 1_555
C31_4 C53_4 1_555 1_555
C47_4 H20_4 1_555 1_555
C48_4 C28_4 1_555 1_555
C49_4 H23_4 1_555 1_555
C50_4 C29_4 1_555 1_555
C51_4 H24_4 1_555 1_555
C52_4 C30_4 1_555 1_555
C53_4 H27_4 1_555 1_555
C54_4 C31_4 1_555 1_555
H21_4 C48_4 1_555 1_555
H22_4 C50_4 1_555 1_555
H25_4 C52_4 1_555 1_555
H26_4 C54_4 1_555 1_555
C70_4 C47_4 1_555 1_555
C71_4 C48_4 1_555 1_555
C72_4 C49_4 1_555 1_555
C73_4 C50_4 1_555 1_555
C74_4 C51_4 1_555 1_555
C75_4 C52_4 1_555 1_555
C76_4 C53_4 1_555 1_555
C77_4 C54_4 1_555 1_555
H43_4 C70_4 1_555 1_555
H44_4 C71_4 1_555 1_555
H45_4 C73_4 1_555 1_555
H46_4 C72_4 1_555 1_555
H47_4 C74_4 1_555 1_555
H48_4 C75_4 1_555 1_555
H49_4 C77_4 1_555 1_555
H50_4 C76_4 1_555 1_555
C85_4 C70_4 1_555 1_555
C86_4 C72_4 1_555 1_555
C87_4 C74_4 1_555 1_555
C88_4 C76_4 1_555 1_555
Fe19_4 O23_4 1_555 1_555
Fe20_4 O24_4 1_555 1_555
Fe21_4 O26_4 1_555 1_555
Fe22_4 O27_4 1_555 1_555
Fe24_4 O42_4 1_555 1_555
O28_4 Fe20_4 1_555 1_555
O45_2 Fe21_4 1_555 1_555
O42_4 Fe18_2 1_555 1_555
O59_4 Fe21_4 1_555 1_555
O61_4 Fe21_4 1_555 1_555
O62_4 Fe17 1_555 1_555
O63_4 Fe18_2 1_555 1_555
O64_4 Fe17 1_555 1_555
O65_4 Fe24_4 1_555 1_555
O66_4 Fe18_2 1_555 1_555
O67_4 Fe24_4 1_555 1_555
C71_4 C85_4 1_555 1_555
C73_4 C86_4 1_555 1_555
C75_4 C87_4 1_555 1_555
C77_4 C88_4 1_555 1_555
C85_4 C86_4 1_555 1_555
C87_4 C88_4 1_555 1_555
N1_3 C6_3 1_555 1_555
O2_2 Fe20_2 1_555 1_555
O3_2 S1_2 1_555 1_555
O4_2 S1_2 1_555 1_555
O5_2 S1_2 1_555 1_555
S1_2 O47_2 1_555 1_555
C6_3 H3_3 1_555 1_555
C7_3 C6_3 1_555 1_555
H4_3 C7_3 1_555 1_555
C8_3 C7_3 1_555 1_555
C9_3 C8_3 1_555 1_555
Fe20_2 N1_3 1_555 1_555
N3_3 C92_3 1_555 1_555
N5_3 C96_3 1_555 1_555
N6_3 C98_3 1_555 1_555
N9_3 C104_3 1_555 1_555
O21_3 C17_5 1_555 1_555
O22_3 C17_5 1_555 1_555
O30_2 C18_5 1_555 1_555
O24_5 C18_5 1_555 1_555
O25_3 C19_5 1_555 1_555
O29_2 C19_5 1_555 1_555
O31_2 C20_5 1_555 1_555
O28_5 C20_5 1_555 1_555
O35_3 Fe21_3 1_555 1_555
O47_2 Fe22_2 1_555 1_555
O48_3 Fe20_2 1_555 1_555
O49_2 S2_3 1_555 1_555
O54_3 S5_5 1_555 1_555
O55_3 S5_5 1_555 1_555
S2_3 O48_3 1_555 1_555
C17_5 C28_5 1_555 1_555
C18_5 C29_5 1_555 1_555
C19_5 C30_5 1_555 1_555
C20_5 C31_5 1_555 1_555
C28_5 C47_5 1_555 1_555
C29_5 C49_5 1_555 1_555
C30_5 C51_5 1_555 1_555
C31_5 C53_5 1_555 1_555
C47_5 H20_5 1_555 1_555
C48_5 C28_5 1_555 1_555
C49_5 H23_5 1_555 1_555
C50_5 C29_5 1_555 1_555
C51_5 H24_5 1_555 1_555
C52_5 C30_5 1_555 1_555
C53_5 H27_5 1_555 1_555
C54_5 C31_5 1_555 1_555
H21_5 C48_5 1_555 1_555
H22_5 C50_5 1_555 1_555
H25_5 C52_5 1_555 1_555
H26_5 C54_5 1_555 1_555
C70_5 C47_5 1_555 1_555
C71_5 C48_5 1_555 1_555
C72_5 C49_5 1_555 1_555
C73_5 C50_5 1_555 1_555
C74_5 C51_5 1_555 1_555
C75_5 C52_5 1_555 1_555
C76_5 C53_5 1_555 1_555
C77_5 C54_5 1_555 1_555
H43_5 C70_5 1_555 1_555
H44_5 C71_5 1_555 1_555
H45_5 C73_5 1_555 1_555
H46_5 C72_5 1_555 1_555
H47_5 C74_5 1_555 1_555
H48_5 C75_5 1_555 1_555
H49_5 C77_5 1_555 1_555
H50_5 C76_5 1_555 1_555
C85_5 C70_5 1_555 1_555
C86_5 C72_5 1_555 1_555
C87_5 C74_5 1_555 1_555
C88_5 C76_5 1_555 1_555
C89_3 N1_3 1_555 1_555
C92_3 H54_3 1_555 1_555
C93_3 N3_3 1_555 1_555
C96_3 H58_3 1_555 1_555
C97_3 N5_3 1_555 1_555
C98_3 H61_3 1_555 1_555
C99_3 N6_3 1_555 1_555
C104_3 H66_3 1_555 1_555
C105_3 N9_3 1_555 1_555
H51_3 C89_3 1_555 1_555
H55_3 C93_3 1_555 1_555
H59_3 C97_3 1_555 1_555
H60_3 C99_3 1_555 1_555
H67_3 C105_3 1_555 1_555
C112_3 C8_3 1_555 1_555
C115_3 C92_3 1_555 1_555
C116_3 C93_3 1_555 1_555
C119_3 C96_3 1_555 1_555
C120_3 C97_3 1_555 1_555
C121_3 C98_3 1_555 1_555
C122_3 C99_3 1_555 1_555
C127_3 C104_3 1_555 1_555
C128_3 C105_3 1_555 1_555
H77_3 C115_3 1_555 1_555
H81_3 C119_3 1_555 1_555
H82_3 C120_3 1_555 1_555
H83_3 C122_3 1_555 1_555
H84_3 C121_3 1_555 1_555
C136_3 C115_3 1_555 1_555
C138_3 C119_3 1_555 1_555
C139_3 C121_3 1_555 1_555
C142_3 C127_3 1_555 1_555
C147_3 C136_3 1_555 1_555
C149_3 C138_3 1_555 1_555
C150_3 C139_3 1_555 1_555
C153_3 C142_3 1_555 1_555
Fe22_2 O2_2 1_555 1_555
Fe21_2 N5_3 1_555 1_555
Fe19_2 O2_2 1_555 1_555
Fe21_3 N6_3 1_555 1_555
Fe24_2 O24_5 1_555 1_555
O3_2 Fe20_2 1_555 1_555
N3_3 Fe22_2 1_555 1_555
N9_3 Fe19_2 1_555 1_555
O21_3 Fe22_2 1_555 1_555
O22_3 Fe19_2 1_555 1_555
O25_3 Fe21_2 1_555 1_555
O28_5 Fe24_2 1_555 1_555
O49_2 Fe19_2 1_555 1_555
O54_3 Fe22_2 1_555 1_555
O55_3 Fe19_2 1_555 1_555
C71_5 C85_5 1_555 1_555
C73_5 C86_5 1_555 1_555
C75_5 C87_5 1_555 1_555
C77_5 C88_5 1_555 1_555
C85_5 C86_5 1_555 1_555
C87_5 C88_5 1_555 1_555
C89_3 C112_3 1_555 1_555
C116_3 C136_3 1_555 1_555
C120_3 C138_3 1_555 1_555
C122_3 C139_3 1_555 1_555
C128_3 C142_3 1_555 1_555
C149_3 C150_3 1_555 1_555
C9_3 H97_3 1_555 1_555
C147_3 H99_3 1_555 1_555
C149_3 H100_3 1_555 1_555
C153_3 H103_3 1_555 1_555
C150_3 H106_3 1_555 1_555
N2_3 C90_3 1_555 1_555
O40_2 Fe20_3 1_555 1_555
O50_2 S3_2 1_555 1_555
O51_2 S3_2 1_555 1_555
O52_3 S4_3 1_555 1_555
O53_2 S4_3 1_555 1_555
O78_2 S3_2 1_555 1_555
O89_2 S3_2 1_555 1_555
C90_3 H53_3 1_555 1_555
C91_3 N2_3 1_555 1_555
H52_3 C91_3 1_555 1_555
C113_3 C90_3 1_555 1_555
C114_3 C91_3 1_555 1_555
H76_3 C113_3 1_555 1_555
C135_3 C113_3 1_555 1_555
Fe20_3 N2_3 1_555 1_555
O40_2 Fe22_3 1_555 1_555
O40_2 Fe19_3 1_555 1_555
O50_2 Fe20_3 1_555 1_555
O51_2 Fe22_3 1_555 1_555
O52_3 Fe20_3 1_555 1_555
O53_2 Fe19_3 1_555 1_555
C114_3 C135_3 1_555 1_555
C135_3 C146_3 1_555 1_555
C146_3 H98_3 1_555 1_555
N4_3 C94_3 1_555 1_555
O33_3 Fe22 1_555 1_555
O43_2 Fe22 1_555 1_555
O68_3 S12_3 1_555 1_555
O69_3 S12_3 1_555 1_555
O70_3 Fe22 1_555 1_555
O87_3 S12_3 1_555 1_555
O98_3 S12_3 1_555 1_555
C94_3 H57_3 1_555 1_555
C95_3 N4_3 1_555 1_555
H56_3 C95_3 1_555 1_555
C117_3 C94_3 1_555 1_555
C118_3 C95_3 1_555 1_555
H80_3 C117_3 1_555 1_555
C137_3 C117_3 1_555 1_555
C148_3 C137_3 1_555 1_555
Fe22 N4_3 1_555 1_555
Fe20 O43_2 1_555 1_555
O68_3 Fe22 1_555 1_555
O69_3 Fe20 1_555 1_555
C118_3 C137_3 1_555 1_555
C148_3 H105_3 1_555 1_555
N10_3 C106_3 1_555 1_555
O38_3 Fe19_4 1_555 1_555
O46_2 Fe19_4 1_555 1_555
O75_3 Fe19_4 1_555 1_555
O76_3 Fe19_4 1_555 1_555
C106_3 H69_3 1_555 1_555
C107_3 N10_3 1_555 1_555
H68_3 C107_3 1_555 1_555
C129_3 C106_3 1_555 1_555
C130_3 C107_3 1_555 1_555
C143_3 C129_3 1_555 1_555
C154_3 C143_3 1_555 1_555
Fe19_4 N10_3 1_555 1_555
C130_3 C143_3 1_555 1_555
C154_3 H102_3 1_555 1_555
N3_4 C92_4 1_555 1_555
N9_4 C104_4 1_555 1_555
O21_4 C17_6 1_555 1_555
O22_4 C17_6 1_555 1_555
O30_3 C18_6 1_555 1_555
O24_6 C18_6 1_555 1_555
O35_3 C19_6 1_555 1_555
O37 C19_6 1_555 1_555
O31_3 C20_6 1_555 1_555
O28_6 C20_6 1_555 1_555
O54_4 S5_6 1_555 1_555
O55_4 S5_6 1_555 1_555
C17_6 C28_6 1_555 1_555
C18_6 C29_6 1_555 1_555
C19_6 C30_6 1_555 1_555
C20_6 C31_6 1_555 1_555
C28_6 C47_6 1_555 1_555
C29_6 C49_6 1_555 1_555
C30_6 C51_6 1_555 1_555
C31_6 C53_6 1_555 1_555
C47_6 H20_6 1_555 1_555
C48_6 C28_6 1_555 1_555
C49_6 H23_6 1_555 1_555
C50_6 C29_6 1_555 1_555
C51_6 H24_6 1_555 1_555
C52_6 C30_6 1_555 1_555
C53_6 H27_6 1_555 1_555
C54_6 C31_6 1_555 1_555
H21_6 C48_6 1_555 1_555
H22_6 C50_6 1_555 1_555
H25_6 C52_6 1_555 1_555
H26_6 C54_6 1_555 1_555
C70_6 C47_6 1_555 1_555
C71_6 C48_6 1_555 1_555
C72_6 C49_6 1_555 1_555
C73_6 C50_6 1_555 1_555
C74_6 C51_6 1_555 1_555
C75_6 C52_6 1_555 1_555
C76_6 C53_6 1_555 1_555
C77_6 C54_6 1_555 1_555
H43_6 C70_6 1_555 1_555
H44_6 C71_6 1_555 1_555
H45_6 C73_6 1_555 1_555
H46_6 C72_6 1_555 1_555
H47_6 C74_6 1_555 1_555
H48_6 C75_6 1_555 1_555
H49_6 C77_6 1_555 1_555
H50_6 C76_6 1_555 1_555
C85_6 C70_6 1_555 1_555
C86_6 C72_6 1_555 1_555
C87_6 C74_6 1_555 1_555
C88_6 C76_6 1_555 1_555
C92_4 H54_4 1_555 1_555
C93_4 N3_4 1_555 1_555
C104_4 H66_4 1_555 1_555
C105_4 N9_4 1_555 1_555
H55_4 C93_4 1_555 1_555
H67_4 C105_4 1_555 1_555
C115_4 C92_4 1_555 1_555
C116_4 C93_4 1_555 1_555
C127_4 C104_4 1_555 1_555
C128_4 C105_4 1_555 1_555
H77_4 C115_4 1_555 1_555
C136_4 C115_4 1_555 1_555
C142_4 C127_4 1_555 1_555
C147_4 C136_4 1_555 1_555
C153_4 C142_4 1_555 1_555
Fe24_3 O24_6 1_555 1_555
N3_4 Fe22_3 1_555 1_555
N9_4 Fe19_3 1_555 1_555
O21_4 Fe22_3 1_555 1_555
O22_4 Fe19_3 1_555 1_555
O28_6 Fe24_3 1_555 1_555
O54_4 Fe22_3 1_555 1_555
O55_4 Fe19_3 1_555 1_555
C71_6 C85_6 1_555 1_555
C73_6 C86_6 1_555 1_555
C75_6 C87_6 1_555 1_555
C77_6 C88_6 1_555 1_555
C85_6 C86_6 1_555 1_555
C87_6 C88_6 1_555 1_555
C116_4 C136_4 1_555 1_555
C128_4 C142_4 1_555 1_555
C147_4 H99_4 1_555 1_555
C153_4 H103_4 1_555 1_555
N10_4 C106_4 1_555 1_555
O38_4 Fe19 1_555 1_555
O43_2 Fe19 1_555 1_555
O75_4 Fe19 1_555 1_555
O76_4 Fe19 1_555 1_555
C106_4 H69_4 1_555 1_555
C107_4 N10_4 1_555 1_555
H68_4 C107_4 1_555 1_555
C129_4 C106_4 1_555 1_555
C130_4 C107_4 1_555 1_555
C143_4 C129_4 1_555 1_555
C154_4 C143_4 1_555 1_555
Fe19 N10_4 1_555 1_555
C130_4 C143_4 1_555 1_555
C154_4 H102_4 1_555 1_555
N4_4 C94_4 1_555 1_555
O33_4 Fe22_4 1_555 1_555
O46_2 Fe22_4 1_555 1_555
O68_4 S12_4 1_555 1_555
O69_4 S12_4 1_555 1_555
O70_4 Fe22_4 1_555 1_555
O87_4 S12_4 1_555 1_555
O98_4 S12_4 1_555 1_555
C94_4 H57_4 1_555 1_555
C95_4 N4_4 1_555 1_555
H56_4 C95_4 1_555 1_555
C117_4 C94_4 1_555 1_555
C118_4 C95_4 1_555 1_555
H80_4 C117_4 1_555 1_555
C137_4 C117_4 1_555 1_555
C148_4 C137_4 1_555 1_555
Fe22_4 N4_4 1_555 1_555
Fe20_4 O46_2 1_555 1_555
O68_4 Fe22_4 1_555 1_555
O69_4 Fe20_4 1_555 1_555
C118_4 C137_4 1_555 1_555
C148_4 H105_4 1_555 1_555
N1_4 C6_4 1_555 1_555
C6_4 H3_4 1_555 1_555
C7_4 C6_4 1_555 1_555
H4_4 C7_4 1_555 1_555
C8_4 C7_4 1_555 1_555
C9_4 C8_4 1_555 1_555
Fe20 N1_4 1_555 1_555
N5_4 C96_4 1_555 1_555
N6_4 C98_4 1_555 1_555
O33_3 C17_7 1_555 1_555
O38_4 C17_7 1_555 1_555
O30 C18_7 1_555 1_555
O24_7 C18_7 1_555 1_555
O25_4 C19_7 1_555 1_555
O29 C19_7 1_555 1_555
O31 C20_7 1_555 1_555
O28_7 C20_7 1_555 1_555
O35_4 Fe21_4 1_555 1_555
O48_4 Fe20 1_555 1_555
O76_4 S2_4 1_555 1_555
O70_3 S5_7 1_555 1_555
O75_4 S5_7 1_555 1_555
S2_4 O48_4 1_555 1_555
C17_7 C28_7 1_555 1_555
C18_7 C29_7 1_555 1_555
C19_7 C30_7 1_555 1_555
C20_7 C31_7 1_555 1_555
C28_7 C47_7 1_555 1_555
C29_7 C49_7 1_555 1_555
C30_7 C51_7 1_555 1_555
C31_7 C53_7 1_555 1_555
C47_7 H20_7 1_555 1_555
C48_7 C28_7 1_555 1_555
C49_7 H23_7 1_555 1_555
C50_7 C29_7 1_555 1_555
C51_7 H24_7 1_555 1_555
C52_7 C30_7 1_555 1_555
C53_7 H27_7 1_555 1_555
C54_7 C31_7 1_555 1_555
H21_7 C48_7 1_555 1_555
H22_7 C50_7 1_555 1_555
H25_7 C52_7 1_555 1_555
H26_7 C54_7 1_555 1_555
C70_7 C47_7 1_555 1_555
C71_7 C48_7 1_555 1_555
C72_7 C49_7 1_555 1_555
C73_7 C50_7 1_555 1_555
C74_7 C51_7 1_555 1_555
C75_7 C52_7 1_555 1_555
C76_7 C53_7 1_555 1_555
C77_7 C54_7 1_555 1_555
H43_7 C70_7 1_555 1_555
H44_7 C71_7 1_555 1_555
H45_7 C73_7 1_555 1_555
H46_7 C72_7 1_555 1_555
H47_7 C74_7 1_555 1_555
H48_7 C75_7 1_555 1_555
H49_7 C77_7 1_555 1_555
H50_7 C76_7 1_555 1_555
C85_7 C70_7 1_555 1_555
C86_7 C72_7 1_555 1_555
C87_7 C74_7 1_555 1_555
C88_7 C76_7 1_555 1_555
C89_4 N1_4 1_555 1_555
C96_4 H58_4 1_555 1_555
C97_4 N5_4 1_555 1_555
C98_4 H61_4 1_555 1_555
C99_4 N6_4 1_555 1_555
H51_4 C89_4 1_555 1_555
H59_4 C97_4 1_555 1_555
H60_4 C99_4 1_555 1_555
C112_4 C8_4 1_555 1_555
C119_4 C96_4 1_555 1_555
C120_4 C97_4 1_555 1_555
C121_4 C98_4 1_555 1_555
C122_4 C99_4 1_555 1_555
H81_4 C119_4 1_555 1_555
H82_4 C120_4 1_555 1_555
H83_4 C122_4 1_555 1_555
H84_4 C121_4 1_555 1_555
C138_4 C119_4 1_555 1_555
C139_4 C121_4 1_555 1_555
C149_4 C138_4 1_555 1_555
C150_4 C139_4 1_555 1_555
Fe21 N5_4 1_555 1_555
Fe21_4 N6_4 1_555 1_555
Fe24 O24_7 1_555 1_555
O25_4 Fe21 1_555 1_555
O28_7 Fe24 1_555 1_555
C71_7 C85_7 1_555 1_555
C73_7 C86_7 1_555 1_555
C75_7 C87_7 1_555 1_555
C77_7 C88_7 1_555 1_555
C85_7 C86_7 1_555 1_555
C87_7 C88_7 1_555 1_555
C89_4 C112_4 1_555 1_555
C120_4 C138_4 1_555 1_555
C122_4 C139_4 1_555 1_555
C149_4 C150_4 1_555 1_555
C9_4 H97_4 1_555 1_555
C149_4 H100_4 1_555 1_555
C150_4 H106_4 1_555 1_555
N2_4 C90_4 1_555 1_555
O52_4 S4_4 1_555 1_555
O76_3 S4_4 1_555 1_555
C90_4 H53_4 1_555 1_555
C91_4 N2_4 1_555 1_555
H52_4 C91_4 1_555 1_555
C113_4 C90_4 1_555 1_555
C114_4 C91_4 1_555 1_555
H76_4 C113_4 1_555 1_555
C135_4 C113_4 1_555 1_555
Fe20_4 N2_4 1_555 1_555
O52_4 Fe20_4 1_555 1_555
C114_4 C135_4 1_555 1_555
C135_4 C146_4 1_555 1_555
C146_4 H98_4 1_555 1_555
O33_4 C17_8 1_555 1_555
O38_3 C17_8 1_555 1_555
O30_4 C18_8 1_555 1_555
O24_8 C18_8 1_555 1_555
O35_4 C19_8 1_555 1_555
O37_2 C19_8 1_555 1_555
O31_4 C20_8 1_555 1_555
O28_8 C20_8 1_555 1_555
O70_4 S5_8 1_555 1_555
O75_3 S5_8 1_555 1_555
C17_8 C28_8 1_555 1_555
C18_8 C29_8 1_555 1_555
C19_8 C30_8 1_555 1_555
C20_8 C31_8 1_555 1_555
C28_8 C47_8 1_555 1_555
C29_8 C49_8 1_555 1_555
C30_8 C51_8 1_555 1_555
C31_8 C53_8 1_555 1_555
C47_8 H20_8 1_555 1_555
C48_8 C28_8 1_555 1_555
C49_8 H23_8 1_555 1_555
C50_8 C29_8 1_555 1_555
C51_8 H24_8 1_555 1_555
C52_8 C30_8 1_555 1_555
C53_8 H27_8 1_555 1_555
C54_8 C31_8 1_555 1_555
H21_8 C48_8 1_555 1_555
H22_8 C50_8 1_555 1_555
H25_8 C52_8 1_555 1_555
H26_8 C54_8 1_555 1_555
C70_8 C47_8 1_555 1_555
C71_8 C48_8 1_555 1_555
C72_8 C49_8 1_555 1_555
C73_8 C50_8 1_555 1_555
C74_8 C51_8 1_555 1_555
C75_8 C52_8 1_555 1_555
C76_8 C53_8 1_555 1_555
C77_8 C54_8 1_555 1_555
H43_8 C70_8 1_555 1_555
H44_8 C71_8 1_555 1_555
H45_8 C73_8 1_555 1_555
H46_8 C72_8 1_555 1_555
H47_8 C74_8 1_555 1_555
H48_8 C75_8 1_555 1_555
H49_8 C77_8 1_555 1_555
H50_8 C76_8 1_555 1_555
C85_8 C70_8 1_555 1_555
C86_8 C72_8 1_555 1_555
C87_8 C74_8 1_555 1_555
C88_8 C76_8 1_555 1_555
Fe24_4 O24_8 1_555 1_555
O28_8 Fe24_4 1_555 1_555
C71_8 C85_8 1_555 1_555
C73_8 C86_8 1_555 1_555
C75_8 C87_8 1_555 1_555
C77_8 C88_8 1_555 1_555
C85_8 C86_8 1_555 1_555
C87_8 C88_8 1_555 1_555
N1_5 C6_5 1_555 1_555
C6_5 H3_5 1_555 1_555
C7_5 C6_5 1_555 1_555
H4_5 C7_5 1_555 1_555
C8_5 C7_5 1_555 1_555
C9_5 C8_5 1_555 1_555
Fe24_3 N1_5 1_555 1_555
N13_3 C92_5 1_555 1_555
C89_5 N1_5 1_555 1_555
C92_5 H54_5 1_555 1_555
C93_5 N13_3 1_555 1_555
H51_5 C89_5 1_555 1_555
H55_5 C93_5 1_555 1_555
C112_5 C8_5 1_555 1_555
C115_5 C92_5 1_555 1_555
C116_5 C93_5 1_555 1_555
H77_5 C115_5 1_555 1_555
C136_5 C115_5 1_555 1_555
C147_5 C136_5 1_555 1_555
C89_5 C112_5 1_555 1_555
C116_5 C136_5 1_555 1_555
C9_5 H97_5 1_555 1_555
C147_5 H99_5 1_555 1_555
N13_2 C94_5 1_555 1_555
C94_5 H57_5 1_555 1_555
C95_5 N13_2 1_555 1_555
H56_5 C95_5 1_555 1_555
C117_5 C94_5 1_555 1_555
C118_5 C95_5 1_555 1_555
H80_5 C117_5 1_555 1_555
C137_5 C117_5 1_555 1_555
C148_5 C137_5 1_555 1_555
C118_5 C137_5 1_555 1_555
C148_5 H105_5 1_555 1_555
N2_5 C90_5 1_555 1_555
C90_5 H53_5 1_555 1_555
C91_5 N2_5 1_555 1_555
H52_5 C91_5 1_555 1_555
C113_5 C90_5 1_555 1_555
C114_5 C91_5 1_555 1_555
H76_5 C113_5 1_555 1_555
C135_5 C113_5 1_555 1_555
Fe24 N2_5 1_555 1_555
C114_5 C135_5 1_555 1_555
C135_5 C146_5 1_555 1_555
C146_5 H98_5 1_555 1_555
N13 C92_6 1_555 1_555
C92_6 H54_6 1_555 1_555
C93_6 N13 1_555 1_555
H55_6 C93_6 1_555 1_555
C115_6 C92_6 1_555 1_555
C116_6 C93_6 1_555 1_555
H77_6 C115_6 1_555 1_555
C136_6 C115_6 1_555 1_555
C147_6 C136_6 1_555 1_555
C116_6 C136_6 1_555 1_555
C147_6 H99_6 1_555 1_555
N13_4 C94_6 1_555 1_555
C94_6 H57_6 1_555 1_555
C95_6 N13_4 1_555 1_555
H56_6 C95_6 1_555 1_555
C117_6 C94_6 1_555 1_555
C118_6 C95_6 1_555 1_555
H80_6 C117_6 1_555 1_555
C137_6 C117_6 1_555 1_555
C148_6 C137_6 1_555 1_555
C118_6 C137_6 1_555 1_555
C148_6 H105_6 1_555 1_555
N1_6 C6_6 1_555 1_555
C6_6 H3_6 1_555 1_555
C7_6 C6_6 1_555 1_555
H4_6 C7_6 1_555 1_555
C8_6 C7_6 1_555 1_555
C9_6 C8_6 1_555 1_555
Fe24_2 N1_6 1_555 1_555
C89_6 N1_6 1_555 1_555
H51_6 C89_6 1_555 1_555
C112_6 C8_6 1_555 1_555
C89_6 C112_6 1_555 1_555
C9_6 H97_6 1_555 1_555
N2_6 C90_6 1_555 1_555
C90_6 H53_6 1_555 1_555
C91_6 N2_6 1_555 1_555
H52_6 C91_6 1_555 1_555
C113_6 C90_6 1_555 1_555
C114_6 C91_6 1_555 1_555
H76_6 C113_6 1_555 1_555
C135_6 C113_6 1_555 1_555
Fe24_4 N2_6 1_555 1_555
C114_6 C135_6 1_555 1_555
C135_6 C146_6 1_555 1_555
C146_6 H98_6 1_555 1_555

#END
