
###############################################################################
#
# This file contains modified crystal structure data generated from the
# MOF subset of the Cambridge Structural Database (CSD) v543 
# hosted by the Cambridge Crystallographic Data Centre (CCDC).
#
# This work is licensed under the Creative Commons
# Attribution-NonCommercial-ShareAlike 4.0 International License.
# To view a copy of this license, visit
# http://creativecommons.org/licenses/by-nc-sa/4.0/
# or send a letter to
# Creative Commons, PO Box 1866, Mountain View, CA 94042, USA.
#
# CIF created using the CSD Python API on 29 September 2022
# The structure has been converted into the P1 space group
# The structure has a 3D framework
# The original CSD entry ICIVAS is in the orthorhombic crystal system
# The original CSD entry ICIVAS is in a Sohncke space group
# The framework has been calculated to contain at least 10.0% void space
# The void calculation uses a probe of radius 1.32A, grid spacing 0.4
# H atom positions have been added when not included in the experimental data
# Generated hydrogen atom positions removed from atoms on special positions
#
###############################################################################

data_ICIVAS
_chemical_formula_moiety         '(C120 H144 N48 Na40 Ni16 O151)n'
_symmetry_cell_setting           triclinic
_symmetry_space_group_name_H-M   'P 1'
_symmetry_Int_Tables_number      1
_space_group_name_Hall           'P 1'
loop_
_symmetry_equiv_pos_site_id
_symmetry_equiv_pos_as_xyz
1 x,y,z
_cell_length_a                   16.441(2)
_cell_length_b                   16.539(4)
_cell_length_c                   25.639(4)
_cell_angle_alpha                90
_cell_angle_beta                 90
_cell_angle_gamma                90
_cell_volume                     6971.7
loop_
_atom_site_label
_atom_site_type_symbol
_atom_site_fract_x
_atom_site_fract_y
_atom_site_fract_z
Na24 Na 0.0929(11) 0.0153(10) 0.3099(5)
Na1 Na 0.3150(3) 0.0052(2) 0.30721(15)
Na2 Na 0.2003(2) 0.2172(2) 0.30815(17)
Na4 Na 0.2468(6) 0.0882(5) 0.4431(3)
Na5 Na 0.8054(2) 0.2001(2) 0.31314(16)
Ni1 Ni 0.69124(4) 0.30615(4) 0.37842(3)
Ni2 Ni 0.31258(4) 0.31769(4) 0.37738(3)
C1 C 0.4576(4) 0.2238(3) 0.3636(2)
C2 C 0.5416(4) 0.2209(4) 0.3628(2)
C3 C 0.5043(4) 0.3439(3) 0.3743(2)
H1 H 0.5064 0.3996 0.3792
C4 C 0.3904(4) 0.1626(4) 0.3605(3)
C5 C 0.6052(4) 0.1583(3) 0.3575(3)
C6 C 0.2232(4) 0.2868(4) 0.5246(3)
C7 C 0.3447(3) 0.3119(3) 0.4991(3)
H2 H 0.4004 0.3219 0.4996
C8 C 0.1614(5) 0.2696(5) 0.5663(4)
C9 C 0.2102(4) 0.0471(4) 0.1799(2)
C11 C 0.1924(3) 0.0051(4) 0.1015(2)
H3 H 0.1855 0.0048 0.0655
C12 C 0.2183(5) 0.1136(4) 0.2197(3)
C14 C 0.2224(4) 0.2934(4) 0.4713(3)
C15 C 0.1588(5) 0.2941(8) 0.4306(4)
N1 N 0.4335(3) 0.3019(3) 0.3710(2)
N2 N 0.5696(3) 0.2983(3) 0.3701(2)
N3 N 0.2995(3) 0.2986(3) 0.5432(2)
N4 N 0.2004(3) 0.0729(3) 0.1292(2)
N6 N 0.3016(3) 0.3091(3) 0.4562(2)
O1 O 0.3186(3) 0.1911(3) 0.36621(19)
O2 O 0.4043(4) 0.0912(3) 0.3547(3)
O3 O 0.6778(3) 0.1807(3) 0.3663(2)
O4 O 0.5886(4) 0.0869(3) 0.3430(4)
O5 O 0.1835(3) 0.2828(3) 0.6128(2)
O6 O 0.0916(4) 0.2486(6) 0.5549(4)
O7 O 0.2141(3) 0.1839(3) 0.2030(2)
O8 O 0.2272(5) 0.0955(3) 0.2671(2)
O9 O 0.1863(3) 0.3015(3) 0.3850(2)
O10 O 0.0878(5) 0.2882(11) 0.4408(4)
O14 O 0.2360(11) 0.004(4) 0.3903(7)
O15 O 0.0937(11) 0.2809(18) 0.2639(10)
O16 O 0.0703(11) 0.1658(14) 0.3358(14)
O17 O 0.0842(9) 0.1156(8) 0.4636(9)
O18 O 0.9269(9) 0.2415(12) 0.2669(4)
Na9 Na 0.1850(3) 0.5052(2) 0.19279(15)
Na10 Na 0.8150(3) 0.4948(2) 0.19279(15)
Na15 Na 0.2997(2) 0.7172(2) 0.19185(17)
Na16 Na 0.7997(2) 0.2172(2) 0.69185(17)
Na17 Na 0.7003(2) 0.2828(2) 0.19185(17)
Na18 Na 0.7997(2) 0.7828(2) 0.30815(17)
Na19 Na 0.4071(11) 0.5153(10) 0.1901(5)
Na20 Na 0.5929(11) 0.4847(10) 0.1901(5)
Na30 Na 0.3054(2) 0.2999(2) 0.18686(16)
Na32 Na 0.1946(2) 0.2001(2) 0.68686(16)
Na33 Na 0.1946(2) 0.7999(2) 0.31314(16)
Na34 Na 0.6946(2) 0.7001(2) 0.18686(16)
Ni4 Ni 0.19124(4) 0.19385(4) 0.12158(3)
Ni6 Ni 0.30876(4) 0.30615(4) 0.62158(3)
Ni7 Ni 0.30876(4) 0.69385(4) 0.37842(3)
Ni14 Ni 0.68742(4) 0.31769(4) 0.62262(3)
Ni15 Ni 0.68742(4) 0.68231(4) 0.37738(3)
Ni16 Ni 0.81258(4) 0.18231(4) 0.12262(3)
C21 C 0.0416(4) 0.2791(4) 0.1372(2)
C24 C 0.0043(4) 0.1561(3) 0.1257(2)
H6 H 0.0064 0.1004 0.1208
C30 C 0.1052(4) 0.3417(3) 0.1425(3)
C31 C 0.7768(4) 0.2868(4) 0.4754(3)
C34 C 0.6553(3) 0.3119(3) 0.5009(3)
H7 H 0.5996 0.3219 0.5004
C37 C 0.8386(5) 0.2696(5) 0.4337(4)
C40 C 0.2898(4) 0.5471(4) 0.3201(2)
C41 C 0.7102(4) 0.4529(4) 0.3201(2)
C43 C 0.2933(4) 0.4638(4) 0.3202(3)
C44 C 0.7067(4) 0.5362(4) 0.3202(3)
C45 C 0.7933(4) 0.0362(4) 0.1798(3)
C46 C 0.3076(3) 0.5051(4) 0.3985(2)
C47 C 0.6924(3) 0.4949(4) 0.3985(2)
H10 H 0.3145 0.5048 0.4345
H11 H 0.6855 0.4952 0.4345
C49 C 0.2817(5) 0.6136(4) 0.2803(3)
C50 C 0.7183(5) 0.3864(4) 0.2803(3)
C52 C 0.2864(5) 0.3999(4) 0.2788(3)
C53 C 0.7136(5) 0.6001(4) 0.2788(3)
C54 C 0.7864(5) 0.1001(4) 0.2212(3)
C55 C 0.7776(4) 0.2934(4) 0.5287(3)
C58 C 0.8412(5) 0.2941(8) 0.5694(4)
N12 N 0.0696(3) 0.2017(3) 0.1299(2)
N13 N 0.7005(3) 0.2986(3) 0.4568(2)
N17 N 0.2005(3) 0.2014(3) 0.0432(2)
N19 N 0.2996(3) 0.5729(3) 0.3708(2)
N20 N 0.7004(3) 0.4271(3) 0.3708(2)
N24 N 0.3046(3) 0.4391(3) 0.3702(2)
N25 N 0.6954(3) 0.5609(3) 0.3702(2)
N26 N 0.8046(3) 0.0609(3) 0.1298(2)
N29 N 0.6984(3) 0.3091(3) 0.5438(2)
O28 O 0.1778(3) 0.3193(3) 0.1337(2)
O31 O 0.0886(4) 0.4131(3) 0.1570(4)
O34 O 0.8165(3) 0.2828(3) 0.3872(2)
O38 O 0.3165(3) 0.2172(3) 0.1128(2)
O40 O 0.9084(4) 0.2486(6) 0.4451(4)
O43 O 0.2859(3) 0.6839(3) 0.2970(2)
O44 O 0.7141(3) 0.3161(3) 0.2970(2)
O49 O 0.2728(5) 0.5955(3) 0.2329(2)
O50 O 0.7272(5) 0.4045(3) 0.2329(2)
O54 O 0.8137(3) 0.3015(3) 0.6150(2)
O58 O 0.9122(5) 0.2882(11) 0.5592(4)
O61 O 0.2931(3) 0.3279(3) 0.29549(19)
O62 O 0.7069(3) 0.6721(3) 0.29549(19)
O63 O 0.7931(3) 0.1721(3) 0.20451(19)
O66 O 0.2783(5) 0.4166(3) 0.2319(3)
O67 O 0.7217(5) 0.5834(3) 0.2319(3)
O68 O 0.7783(5) 0.0834(3) 0.2681(3)
O72 O 0.5932(9) 0.018(2) 0.2451(5)
O84 O 0.4297(11) 0.6658(14) 0.1642(14)
O85 O 0.5703(11) 0.3342(14) 0.1642(14)
O90 O 0.4269(9) 0.2585(12) 0.2331(4)
O92 O 0.8934(8) 0.1073(7) 0.3718(6)
O93 O 0.3934(8) 0.3927(7) 0.1282(6)
O94 O 0.6066(8) 0.6073(7) 0.1282(6)
H39 H 0.0586864 0.0649309 0.476407
H40 H 0.0789651 0.158323 0.490604
C10 C 0.2067(4) 0.9638(4) 0.1798(3)
C13 C 0.2136(5) 0.8999(4) 0.2212(3)
N5 N 0.1954(3) 0.9391(3) 0.1298(2)
O11 O 0.2069(3) 0.8279(3) 0.20451(19)
O12 O 0.2217(5) 0.9166(3) 0.2681(3)
O13 O 0.4068(9) 0.982(2) 0.2451(5)
O19 O 0.1066(8) 0.8927(7) 0.3718(6)
Na6 Na 0.6850(3) 0.9948(2) 0.30721(15)
Na21 Na 0.9071(11) 0.9847(10) 0.3099(5)
Na26 Na 0.7532(6) 0.9118(5) 0.4431(3)
Na27 Na 0.2532(6) 0.5882(5) 0.0569(3)
Na36 Na 0.8054(2) 0.7999(2) 0.68686(16)
Ni8 Ni 0.80876(4) 0.80615(4) 0.12158(3)
Ni9 Ni 0.69124(4) 0.69385(4) 0.62158(3)
Ni12 Ni 0.18742(4) 0.81769(4) 0.12262(3)
C16 C 0.5424(4) 0.7762(3) 0.3636(2)
C17 C 0.0424(4) 0.7238(3) 0.1364(2)
C19 C 0.4584(4) 0.7791(4) 0.3628(2)
C22 C 0.4957(4) 0.6561(3) 0.3743(2)
H4 H 0.4936 0.6004 0.3792
C25 C 0.6096(4) 0.8374(4) 0.3605(3)
C26 C 0.1096(4) 0.6626(4) 0.1395(3)
C28 C 0.3948(4) 0.8417(3) 0.3575(3)
C32 C 0.7768(4) 0.7132(4) 0.5246(3)
C35 C 0.6553(3) 0.6881(3) 0.4991(3)
C36 C 0.1553(3) 0.8119(3) 0.0009(3)
H8 H 0.5996 0.6781 0.4996
H9 H 0.0996 0.8219 0.0004
C38 C 0.8386(5) 0.7304(5) 0.5663(4)
C42 C 0.7898(4) 0.9529(4) 0.1799(2)
C48 C 0.8076(3) 0.9949(4) 0.1015(2)
H12 H 0.8145 0.9952 0.0655
C51 C 0.7817(5) 0.8864(4) 0.2197(3)
C56 C 0.7776(4) 0.7066(4) 0.4713(3)
C57 C 0.2776(4) 0.7934(4) 0.0287(3)
C59 C 0.8412(5) 0.7059(8) 0.4306(4)
C60 C 0.3412(5) 0.7941(8) 0.0694(4)
N7 N 0.5665(3) 0.6981(3) 0.3710(2)
N8 N 0.0665(3) 0.8019(3) 0.1290(2)
N10 N 0.4304(3) 0.7017(3) 0.3701(2)
N14 N 0.7005(3) 0.7014(3) 0.5432(2)
N16 N 0.2995(3) 0.7014(3) 0.4568(2)
N21 N 0.7996(3) 0.9271(3) 0.1292(2)
N30 N 0.6984(3) 0.6909(3) 0.4562(2)
N31 N 0.1984(3) 0.8091(3) 0.0438(2)
O20 O 0.6814(3) 0.8089(3) 0.36621(19)
O21 O 0.1814(3) 0.6911(3) 0.13379(19)
O23 O 0.5957(4) 0.9088(3) 0.3547(3)
O24 O 0.0957(4) 0.5912(3) 0.1453(3)
O26 O 0.3222(3) 0.8193(3) 0.3663(2)
O29 O 0.4114(4) 0.9131(3) 0.3430(4)
O35 O 0.8165(3) 0.7172(3) 0.6128(2)
O37 O 0.1835(3) 0.7172(3) 0.3872(2)
O41 O 0.9084(4) 0.7514(6) 0.5549(4)
O45 O 0.7859(3) 0.8161(3) 0.2030(2)
O51 O 0.7728(5) 0.9045(3) 0.2671(2)
O55 O 0.8137(3) 0.6985(3) 0.3850(2)
O56 O 0.3137(3) 0.8015(3) 0.1150(2)
O59 O 0.9122(5) 0.7118(11) 0.4408(4)
O60 O 0.4122(5) 0.7882(11) 0.0592(4)
O73 O 0.0932(9) 0.482(2) 0.2549(5)
O75 O 0.7640(11) 0.996(4) 0.3903(7)
O76 O 0.2640(11) 0.504(4) 0.1097(7)
O78 O 0.9063(11) 0.7191(18) 0.2639(10)
O79 O 0.4063(11) 0.7809(18) 0.2361(10)
O81 O 0.9297(11) 0.8342(14) 0.3358(14)
O86 O 0.9158(9) 0.8844(8) 0.4636(9)
O87 O 0.4158(9) 0.6156(8) 0.0364(9)
O89 O 0.0731(9) 0.7585(12) 0.2669(4)
H18 H 0.607593 0.986583 0.213412
H23 H 0.941314 0.935069 0.476407
H24 H 0.921035 0.841677 0.490604
H25 H 0.441314 0.564931 0.0235928
H26 H 0.421035 0.658323 0.00939554
Na37 Na 0.3054(2) 0.7001(2) 0.81314(16)
Ni10 Ni 0.19124(4) 0.80615(4) 0.87842(3)
C33 C 0.2768(4) 0.7868(4) 0.9754(3)
C39 C 0.3386(5) 0.7696(5) 0.9337(4)
N15 N 0.2005(3) 0.7986(3) 0.9568(2)
O36 O 0.3165(3) 0.7828(3) 0.8872(2)
O42 O 0.4084(4) 0.7486(6) 0.9451(4)
Na28 Na 0.7468(6) 0.4118(5) 0.0569(3)
C18 C 0.9576(4) 0.2762(3) 0.1364(2)
C27 C 0.8904(4) 0.3374(4) 0.1395(3)
N9 N 0.9335(3) 0.1981(3) 0.1290(2)
N32 N 0.8016(3) 0.1909(3) 0.0438(2)
O22 O 0.8186(3) 0.3089(3) 0.13379(19)
O25 O 0.9043(4) 0.4088(3) 0.1453(3)
O33 O 0.9114(4) 0.5869(3) 0.1570(4)
O57 O 0.6863(3) 0.1985(3) 0.1150(2)
O74 O 0.9068(9) 0.518(2) 0.2549(5)
O77 O 0.7360(11) 0.496(4) 0.1097(7)
O80 O 0.5937(11) 0.2191(18) 0.2361(10)
O88 O 0.5842(9) 0.3844(8) 0.0364(9)
H35 H 0.558686 0.435069 0.0235928
H36 H 0.578965 0.341677 0.00939554
C20 C 0.9584(4) 0.7209(4) 0.1372(2)
C23 C 0.9957(4) 0.8439(3) 0.1257(2)
H5 H 0.9936 0.8996 0.1208
C29 C 0.8948(4) 0.6583(3) 0.1425(3)
N11 N 0.9304(3) 0.7983(3) 0.1299(2)
N18 N 0.7995(3) 0.7986(3) 0.0432(2)
O27 O 0.8222(3) 0.6807(3) 0.1337(2)
O39 O 0.6835(3) 0.7828(3) 0.1128(2)
O91 O 0.5731(9) 0.7415(12) 0.2331(4)
C36_2 C 0.8447(3) 0.1881(3) 0.0009(3)
H9_2 H 0.9004 0.1781 0.0004
C57_2 C 0.7224(4) 0.2066(4) 0.0287(3)
C60_2 C 0.6588(5) 0.2059(8) 0.0694(4)
O60_2 O 0.5878(5) 0.2118(11) 0.0592(4)
H18_2 H 0.392407 0.0134169 0.213412
Na37_2 Na 0.6946(2) 0.2999(2) 0.81314(16)
Ni10_2 Ni 0.80876(4) 0.19385(4) 0.87842(3)
C33_2 C 0.7232(4) 0.2132(4) 0.9754(3)
C39_2 C 0.6614(5) 0.2304(5) 0.9337(4)
N15_2 N 0.7995(3) 0.2014(3) 0.9568(2)
O36_2 O 0.6835(3) 0.2172(3) 0.8872(2)
O42_2 O 0.5916(4) 0.2514(6) 0.9451(4)
Na16_2 Na 0.2003(2) 0.7828(2) 0.69185(17)
Ni14_2 Ni 0.31258(4) 0.68231(4) 0.62262(3)
C31_2 C 0.2232(4) 0.7132(4) 0.4754(3)
C34_2 C 0.3447(3) 0.6881(3) 0.5009(3)
H7_2 H 0.4004 0.6781 0.5004
C37_2 C 0.1614(5) 0.7304(5) 0.4337(4)
C55_2 C 0.2224(4) 0.7066(4) 0.5287(3)
C58_2 C 0.1588(5) 0.7059(8) 0.5694(4)
N29_2 N 0.3016(3) 0.6909(3) 0.5438(2)
O40_2 O 0.0916(4) 0.7514(6) 0.4451(4)
O54_2 O 0.1863(3) 0.6985(3) 0.6150(2)
O58_2 O 0.0878(5) 0.7118(11) 0.5592(4)
C31_3 C 0.7232(4) 0.7868(4) 0.0246(3)
C37_3 C 0.6614(5) 0.7696(5) 0.0663(4)
O40_3 O 0.5916(4) 0.7486(6) 0.0549(4)
Na16_3 Na 0.7003(2) 0.7172(2) 0.80815(17)
Ni14_3 Ni 0.81258(4) 0.81769(4) 0.87738(3)
C34_3 C 0.8447(3) 0.8119(3) 0.9991(3)
H7_3 H 0.9004 0.8219 0.9996
C55_3 C 0.7224(4) 0.7934(4) 0.9713(3)
C58_3 C 0.6588(5) 0.7941(8) 0.9306(4)
N29_3 N 0.8016(3) 0.8091(3) 0.9562(2)
O54_3 O 0.6863(3) 0.8015(3) 0.8850(2)
O58_3 O 0.5878(5) 0.7882(11) 0.9408(4)
C31_4 C 0.2768(4) 0.2132(4) 0.0246(3)
C37_4 C 0.3386(5) 0.2304(5) 0.0663(4)
O40_4 O 0.4084(4) 0.2514(6) 0.0549(4)
Na16_4 Na 0.2997(2) 0.2828(2) 0.80815(17)
Ni14_4 Ni 0.18742(4) 0.18231(4) 0.87738(3)
C34_4 C 0.1553(3) 0.1881(3) 0.9991(3)
H7_4 H 0.0996 0.1781 0.9996
C55_4 C 0.2776(4) 0.2066(4) 0.9713(3)
C58_4 C 0.3412(5) 0.2059(8) 0.9306(4)
N29_4 N 0.1984(3) 0.1909(3) 0.9562(2)
O54_4 O 0.3137(3) 0.1985(3) 0.8850(2)
O58_4 O 0.4122(5) 0.2118(11) 0.9408(4)
C44_2 C 0.2067(4) 0.0362(4) 0.8202(3)
C53_2 C 0.2136(5) 0.1001(4) 0.7788(3)
N25_2 N 0.1954(3) 0.0609(3) 0.8702(2)
O62_2 O 0.2069(3) 0.1721(3) 0.79549(19)
O67_2 O 0.2217(5) 0.0834(3) 0.7319(3)
O94_2 O 0.1066(8) 0.1073(7) 0.6282(6)
C2_2 C 0.0416(4) 0.7209(4) 0.8628(2)
C3_2 C 0.0043(4) 0.8439(3) 0.8743(2)
H1_2 H 0.0064 0.8996 0.8792
C5_2 C 0.1052(4) 0.6583(3) 0.8575(3)
N2_2 N 0.0696(3) 0.7983(3) 0.8701(2)
O3_2 O 0.1778(3) 0.6807(3) 0.8663(2)
O4_2 O 0.0886(4) 0.5869(3) 0.8430(4)
O18_2 O 0.4269(9) 0.7415(12) 0.7669(4)
Na6_2 Na 0.1850(3) 0.4948(2) 0.80721(15)
Na10_2 Na 0.3150(3) 0.9948(2) 0.69279(15)
Na20_2 Na 0.0929(11) 0.9847(10) 0.6901(5)
Na21_2 Na 0.4071(11) 0.4847(10) 0.8099(5)
Na24_2 Na 0.5929(11) 0.5153(10) 0.8099(5)
Na26_2 Na 0.2532(6) 0.4118(5) 0.9431(3)
C16_2 C 0.0424(4) 0.2762(3) 0.8636(2)
C25_2 C 0.1096(4) 0.3374(4) 0.8605(3)
C41_2 C 0.2102(4) 0.9529(4) 0.8201(2)
C42_2 C 0.2898(4) 0.4529(4) 0.6799(2)
C45_2 C 0.2933(4) 0.5362(4) 0.6798(3)
C47_2 C 0.1924(3) 0.9949(4) 0.8985(2)
C48_2 C 0.3076(3) 0.4949(4) 0.6015(2)
H11_2 H 0.1855 0.9952 0.9345
H12_2 H 0.3145 0.4952 0.5655
C50_2 C 0.2183(5) 0.8864(4) 0.7803(3)
C51_2 C 0.2817(5) 0.3864(4) 0.7197(3)
C54_2 C 0.2864(5) 0.6001(4) 0.7212(3)
N7_2 N 0.0665(3) 0.1981(3) 0.8710(2)
N20_2 N 0.2004(3) 0.9271(3) 0.8708(2)
N21_2 N 0.2996(3) 0.4271(3) 0.6292(2)
N26_2 N 0.3046(3) 0.5609(3) 0.6298(2)
O20_2 O 0.1814(3) 0.3089(3) 0.86621(19)
O23_2 O 0.0957(4) 0.4088(3) 0.8547(3)
O44_2 O 0.2141(3) 0.8161(3) 0.7970(2)
O45_2 O 0.2859(3) 0.3161(3) 0.7030(2)
O50_2 O 0.2272(5) 0.9045(3) 0.7329(2)
O51_2 O 0.2728(5) 0.4045(3) 0.7671(2)
O63_2 O 0.2931(3) 0.6721(3) 0.70451(19)
O68_2 O 0.2783(5) 0.5834(3) 0.7681(3)
O72_2 O 0.0932(9) 0.518(2) 0.7451(5)
O75_2 O 0.2640(11) 0.496(4) 0.8903(7)
O78_2 O 0.4063(11) 0.2191(18) 0.7639(10)
O81_2 O 0.4297(11) 0.3342(14) 0.8358(14)
O85_2 O 0.0703(11) 0.8342(14) 0.6642(14)
O86_2 O 0.4158(9) 0.3844(8) 0.9636(9)
O92_2 O 0.3934(8) 0.6073(7) 0.8718(6)
H23_2 H 0.441314 0.435069 0.976407
H24_2 H 0.421035 0.341677 0.990604
Na9_2 Na 0.6850(3) 0.0052(2) 0.69279(15)
Na19_2 Na 0.9071(11) 0.0153(10) 0.6901(5)
C40_2 C 0.7898(4) 0.0471(4) 0.8201(2)
C46_2 C 0.8076(3) 0.0051(4) 0.8985(2)
H10_2 H 0.8145 0.0048 0.9345
C49_2 C 0.7817(5) 0.1136(4) 0.7803(3)
N19_2 N 0.7996(3) 0.0729(3) 0.8708(2)
O33_2 O 0.4114(4) 0.0869(3) 0.6570(4)
O43_2 O 0.7859(3) 0.1839(3) 0.7970(2)
O49_2 O 0.7728(5) 0.0955(3) 0.7329(2)
O74_2 O 0.4068(9) 0.018(2) 0.7549(5)
O84_2 O 0.9297(11) 0.1658(14) 0.6642(14)
Na1_2 Na 0.8150(3) 0.5052(2) 0.80721(15)
Na4_2 Na 0.7468(6) 0.5882(5) 0.9431(3)
C1_2 C 0.9576(4) 0.7238(3) 0.8636(2)
C4_2 C 0.8904(4) 0.6626(4) 0.8605(3)
C9_2 C 0.7102(4) 0.5471(4) 0.6799(2)
C10_2 C 0.7067(4) 0.4638(4) 0.6798(3)
C11_2 C 0.6924(3) 0.5051(4) 0.6015(2)
H3_2 H 0.6855 0.5048 0.5655
C12_2 C 0.7183(5) 0.6136(4) 0.7197(3)
C13_2 C 0.7136(5) 0.3999(4) 0.7212(3)
N1_2 N 0.9335(3) 0.8019(3) 0.8710(2)
N4_2 N 0.7004(3) 0.5729(3) 0.6292(2)
N5_2 N 0.6954(3) 0.4391(3) 0.6298(2)
O1_2 O 0.8186(3) 0.6911(3) 0.86621(19)
O2_2 O 0.9043(4) 0.5912(3) 0.8547(3)
O7_2 O 0.7141(3) 0.6839(3) 0.7030(2)
O8_2 O 0.7272(5) 0.5955(3) 0.7671(2)
O11_2 O 0.7069(3) 0.3279(3) 0.70451(19)
O12_2 O 0.7217(5) 0.4166(3) 0.7681(3)
O13_2 O 0.9068(9) 0.482(2) 0.7451(5)
O14_2 O 0.7360(11) 0.504(4) 0.8903(7)
O15_2 O 0.5937(11) 0.7809(18) 0.7639(10)
O16_2 O 0.5703(11) 0.6658(14) 0.8358(14)
O17_2 O 0.5842(9) 0.6156(8) 0.9636(9)
O19_2 O 0.6066(8) 0.3927(7) 0.8718(6)
Na27_2 Na 0.7532(6) 0.0882(5) 0.5569(3)
Na28_2 Na 0.2468(6) 0.9118(5) 0.5569(3)
C17_2 C 0.5424(4) 0.2238(3) 0.6364(2)
C18_2 C 0.4576(4) 0.7762(3) 0.6364(2)
C19_2 C 0.9584(4) 0.2791(4) 0.8628(2)
C20_2 C 0.4584(4) 0.2209(4) 0.6372(2)
C21_2 C 0.5416(4) 0.7791(4) 0.6372(2)
C22_2 C 0.9957(4) 0.1561(3) 0.8743(2)
C23_2 C 0.4957(4) 0.3439(3) 0.6257(2)
C24_2 C 0.5043(4) 0.6561(3) 0.6257(2)
H4_2 H 0.9936 0.1004 0.8792
H5_2 H 0.4936 0.3996 0.6208
H6_2 H 0.5064 0.6004 0.6208
C26_2 C 0.6096(4) 0.1626(4) 0.6395(3)
C27_2 C 0.3904(4) 0.8374(4) 0.6395(3)
C28_2 C 0.8948(4) 0.3417(3) 0.8575(3)
C29_2 C 0.3948(4) 0.1583(3) 0.6425(3)
C30_2 C 0.6052(4) 0.8417(3) 0.6425(3)
C43_2 C 0.7933(4) 0.9638(4) 0.8202(3)
C52_2 C 0.7864(5) 0.8999(4) 0.7788(3)
N8_2 N 0.5665(3) 0.3019(3) 0.6290(2)
N9_2 N 0.4335(3) 0.6981(3) 0.6290(2)
N10_2 N 0.9304(3) 0.2017(3) 0.8701(2)
N11_2 N 0.4304(3) 0.2983(3) 0.6299(2)
N12_2 N 0.5696(3) 0.7017(3) 0.6299(2)
N24_2 N 0.8046(3) 0.9391(3) 0.8702(2)
O21_2 O 0.6814(3) 0.1911(3) 0.63379(19)
O22_2 O 0.3186(3) 0.8089(3) 0.63379(19)
O24_2 O 0.5957(4) 0.0912(3) 0.6453(3)
O25_2 O 0.4043(4) 0.9088(3) 0.6453(3)
O26_2 O 0.8222(3) 0.3193(3) 0.8663(2)
O27_2 O 0.3222(3) 0.1807(3) 0.6337(2)
O28_2 O 0.6778(3) 0.8193(3) 0.6337(2)
O29_2 O 0.9114(4) 0.4131(3) 0.8430(4)
O31_2 O 0.5886(4) 0.9131(3) 0.6570(4)
O61_2 O 0.7931(3) 0.8279(3) 0.79549(19)
O66_2 O 0.7783(5) 0.9166(3) 0.7319(3)
O76_2 O 0.7640(11) 0.004(4) 0.6097(7)
O77_2 O 0.2360(11) 0.996(4) 0.6097(7)
O79_2 O 0.9063(11) 0.2809(18) 0.7361(10)
O80_2 O 0.0937(11) 0.7191(18) 0.7361(10)
O87_2 O 0.9158(9) 0.1156(8) 0.5364(9)
O88_2 O 0.0842(9) 0.8844(8) 0.5364(9)
O89_2 O 0.5731(9) 0.2585(12) 0.7669(4)
O90_2 O 0.9269(9) 0.7585(12) 0.7331(4)
O91_2 O 0.0731(9) 0.2415(12) 0.7331(4)
O93_2 O 0.8934(8) 0.8927(7) 0.6282(6)
H25_2 H 0.941314 0.0649309 0.523593
H26_2 H 0.921035 0.158323 0.509396
H35_2 H 0.0586864 0.935069 0.523593
H36_2 H 0.0789651 0.841677 0.509396
H39_2 H 0.558686 0.564931 0.976407
H40_2 H 0.578965 0.658323 0.990604
O73_2 O 0.5932(9) 0.982(2) 0.7549(5)
H18_3 H 0.392407 0.986583 0.786588
H18_4 H 0.607593 0.0134169 0.786588
loop_
_geom_bond_atom_site_label_1
_geom_bond_atom_site_label_2
_geom_bond_site_symmetry_1
_geom_bond_site_symmetry_2
Na1 O2 1_555 1_555
Na2 Ni2 1_555 1_555
Na24 O8 1_555 1_555
Na4 O14 1_555 1_555
Na5 Ni1 1_555 1_555
Ni1 N2 1_555 1_555
Ni2 N1 1_555 1_555
C1 C2 1_555 1_555
C2 C5 1_555 1_555
C3 H1 1_555 1_555
C4 C1 1_555 1_555
C5 O3 1_555 1_555
C6 C8 1_555 1_555
C7 H2 1_555 1_555
C8 O5 1_555 1_555
C11 H3 1_555 1_555
C12 C9 1_555 1_555
C14 C6 1_555 1_555
C15 C14 1_555 1_555
N1 C1 1_555 1_555
N2 C2 1_555 1_555
N3 C6 1_555 1_555
N4 C9 1_555 1_555
N6 Ni2 1_555 1_555
O1 Na2 1_555 1_555
O2 C4 1_555 1_555
O3 Na5 1_555 1_555
O4 C5 1_555 1_555
O5 Na32 1_555 1_555
O6 C8 1_555 1_555
O7 Na2 1_555 1_555
O8 Na1 1_555 1_555
O9 Na2 1_555 1_555
O10 C15 1_555 1_555
O14 Na1 1_555 1_555
O15 Na2 1_555 1_555
O16 Na2 1_555 1_555
O17 Na4 1_555 1_555
O18 Na5 1_555 1_555
Na9 O31 1_555 1_555
Na10 O50 1_555 1_555
Na15 O43 1_555 1_555
Na16 Ni14 1_555 1_555
Na17 Ni16 1_555 1_555
Na18 Ni15 1_555 1_555
Na19 Na20 1_555 1_555
Na20 O50 1_555 1_555
Na30 O7 1_555 1_555
Na32 Ni6 1_555 1_555
Na33 Ni7 1_555 1_555
Na34 O67 1_555 1_555
Ni4 N4 1_555 1_555
Ni6 N3 1_555 1_555
Ni7 N19 1_555 1_555
Ni14 N29 1_555 1_555
Ni15 N25 1_555 1_555
Ni16 N26 1_555 1_555
C21 C30 1_555 1_555
C24 H6 1_555 1_555
C30 O28 1_555 1_555
C31 C37 1_555 1_555
C34 H7 1_555 1_555
C37 O34 1_555 1_555
C40 C43 1_555 1_555
C41 C44 1_555 1_555
C43 C52 1_555 1_555
C44 C53 1_555 1_555
C45 C54 1_555 1_555
C46 H10 1_555 1_555
C47 H11 1_555 1_555
C49 C40 1_555 1_555
C50 C41 1_555 1_555
C52 O61 1_555 1_555
C53 O62 1_555 1_555
C54 O63 1_555 1_555
C55 C31 1_555 1_555
C58 C55 1_555 1_555
N12 Ni4 1_555 1_555
N13 Ni1 1_555 1_555
N17 Ni4 1_555 1_555
N19 C40 1_555 1_555
N20 Ni1 1_555 1_555
N24 Ni2 1_555 1_555
N25 C44 1_555 1_555
N26 C45 1_555 1_555
N29 C34 1_555 1_555
O28 Na30 1_555 1_555
O31 C30 1_555 1_555
O34 Na5 1_555 1_555
O38 Na30 1_555 1_555
O40 C37 1_555 1_555
O43 Na33 1_555 1_555
O44 Na5 1_555 1_555
O49 Na9 1_555 1_555
O50 Na17 1_555 1_555
O54 Na16 1_555 1_555
O58 C58 1_555 1_555
O61 Na2 1_555 1_555
O62 Na18 1_555 1_555
O63 Na17 1_555 1_555
O66 Na9 1_555 1_555
O67 Na10 1_555 1_555
O68 Na5 1_555 1_555
O84 Na15 1_555 1_555
O85 Na17 1_555 1_555
O90 Na30 1_555 1_555
O92 Na5 1_555 1_555
O93 Na19 1_555 1_555
O94 Na20 1_555 1_555
Na2 O8 1_555 1_555
Na24 O16 1_555 1_555
Ni1 O3 1_555 1_555
Ni1 O34 1_555 1_555
Ni1 O44 1_555 1_555
Ni2 O1 1_555 1_555
Ni2 O9 1_555 1_555
Ni2 O61 1_555 1_555
C3 N1 1_555 1_555
C3 N2 1_555 1_555
C4 O1 1_555 1_555
C7 N3 1_555 1_555
C7 N6 1_555 1_555
C11 N4 1_555 1_555
C12 O7 1_555 1_555
C12 O8 1_555 1_555
C14 N6 1_555 1_555
C15 O9 1_555 1_555
O5 Ni6 1_555 1_555
O7 Ni4 1_555 1_555
Na15 O49 1_555 1_555
Na17 O44 1_555 1_555
Na19 O49 1_555 1_555
Na19 O84 1_555 1_555
Na20 O85 1_555 1_555
Na30 Ni4 1_555 1_555
Na30 O66 1_555 1_555
Na30 O93 1_555 1_555
Na34 O94 1_555 1_555
Ni4 O28 1_555 1_555
Ni4 O38 1_555 1_555
Ni7 O43 1_555 1_555
Ni14 O54 1_555 1_555
Ni15 O62 1_555 1_555
Ni16 O63 1_555 1_555
C21 N12 1_555 1_555
C24 N12 1_555 1_555
C31 N13 1_555 1_555
C34 N13 1_555 1_555
C41 N20 1_555 1_555
C43 N24 1_555 1_555
C46 N19 1_555 1_555
C46 N24 1_555 1_555
C47 N20 1_555 1_555
C47 N25 1_555 1_555
C49 O43 1_555 1_555
C49 O49 1_555 1_555
C50 O44 1_555 1_555
C50 O50 1_555 1_555
C52 O66 1_555 1_555
C53 O67 1_555 1_555
C54 O68 1_555 1_555
C55 N29 1_555 1_555
C58 O54 1_555 1_555
O17 H39 1_555 1_555
O17 H40 1_555 1_555
C10 C13 1_555 1_555
C13 O11 1_555 1_555
N5 C10 1_555 1_555
O11 Na15 1_555 1_555
Na9 O24 1_555 1_555
Na15 Ni12 1_555 1_555
Na26 O75 1_555 1_555
Na27 O76 1_555 1_555
Na33 O12 1_555 1_555
Na34 Ni8 1_555 1_555
Na36 Ni9 1_555 1_555
Ni8 N21 1_555 1_555
Ni9 N14 1_555 1_555
Ni15 N7 1_555 1_555
Ni12 N5 1_555 1_555
C16 C19 1_555 1_555
C19 C28 1_555 1_555
C22 H4 1_555 1_555
C25 C16 1_555 1_555
C26 C17 1_555 1_555
C28 O26 1_555 1_555
C32 C38 1_555 1_555
C35 H8 1_555 1_555
C36 H9 1_555 1_555
C38 O35 1_555 1_555
C48 H12 1_555 1_555
C51 C42 1_555 1_555
C56 C32 1_555 1_555
C59 C56 1_555 1_555
C60 C57 1_555 1_555
N7 C16 1_555 1_555
N8 Ni12 1_555 1_555
N10 Ni7 1_555 1_555
N14 C32 1_555 1_555
N16 Ni7 1_555 1_555
N21 C42 1_555 1_555
N30 Ni15 1_555 1_555
N31 Ni12 1_555 1_555
O20 Na18 1_555 1_555
O21 Na15 1_555 1_555
O23 Na6 1_555 1_555
O24 C26 1_555 1_555
O26 Na33 1_555 1_555
O35 Na36 1_555 1_555
O37 Na33 1_555 1_555
O41 C38 1_555 1_555
O45 Na18 1_555 1_555
O51 Na6 1_555 1_555
O55 Na18 1_555 1_555
O56 Na15 1_555 1_555
O59 C59 1_555 1_555
O60 C60 1_555 1_555
O73 Na9 1_555 1_555
O75 Na6 1_555 1_555
O76 Na9 1_555 1_555
O78 Na18 1_555 1_555
O79 Na15 1_555 1_555
O81 Na18 1_555 1_555
O86 Na26 1_555 1_555
O87 Na27 1_555 1_555
O89 Na33 1_555 1_555
C13 O12 1_555 1_555
O11 Ni12 1_555 1_555
O19 Na33 1_555 1_555
Na18 O51 1_555 1_555
Na21 O51 1_555 1_555
Na21 O81 1_555 1_555
Na34 O45 1_555 1_555
Ni7 O26 1_555 1_555
Ni7 O37 1_555 1_555
Ni8 O45 1_555 1_555
Ni9 O35 1_555 1_555
Ni15 O20 1_555 1_555
Ni15 O55 1_555 1_555
Ni12 O21 1_555 1_555
Ni12 O56 1_555 1_555
C17 N8 1_555 1_555
C19 N10 1_555 1_555
C22 N7 1_555 1_555
C22 N10 1_555 1_555
C25 O20 1_555 1_555
C25 O23 1_555 1_555
C26 O21 1_555 1_555
C28 O29 1_555 1_555
C35 N14 1_555 1_555
C35 N30 1_555 1_555
C36 N31 1_555 1_555
C48 N21 1_555 1_555
C51 O45 1_555 1_555
C51 O51 1_555 1_555
C56 N30 1_555 1_555
C57 N31 1_555 1_555
C59 O55 1_555 1_555
C60 O56 1_555 1_555
O86 H23 1_555 1_555
O86 H24 1_555 1_555
O87 H25 1_555 1_555
O87 H26 1_555 1_555
Na37 Ni10 1_555 1_555
Ni10 N15 1_555 1_555
C33 C39 1_555 1_555
C39 O36 1_555 1_555
N15 C33 1_555 1_555
O36 Na37 1_555 1_555
O42 C39 1_555 1_555
Ni10 O36 1_555 1_555
Na10 O25 1_555 1_555
Na28 O77 1_555 1_555
Ni16 N9 1_555 1_555
C27 C18 1_555 1_555
N9 C18 1_555 1_555
N32 Ni16 1_555 1_555
O22 Na17 1_555 1_555
O25 C27 1_555 1_555
O33 Na10 1_555 1_555
O57 Na17 1_555 1_555
O74 Na10 1_555 1_555
O77 Na10 1_555 1_555
O80 Na17 1_555 1_555
O88 Na28 1_555 1_555
Ni16 O22 1_555 1_555
Ni16 O57 1_555 1_555
C27 O22 1_555 1_555
O88 H35 1_555 1_555
O88 H36 1_555 1_555
Ni8 N11 1_555 1_555
C20 C29 1_555 1_555
C23 H5 1_555 1_555
C29 O27 1_555 1_555
N11 C20 1_555 1_555
N18 Ni8 1_555 1_555
O27 Na34 1_555 1_555
O33 C29 1_555 1_555
O39 Na34 1_555 1_555
O91 Na34 1_555 1_555
Ni8 O27 1_555 1_555
Ni8 O39 1_555 1_555
C23 N11 1_555 1_555
C36_2 H9_2 1_555 1_555
C60_2 C57_2 1_555 1_555
O60_2 C60_2 1_555 1_555
C36_2 N32 1_555 1_555
C57_2 N32 1_555 1_555
C60_2 O57 1_555 1_555
Na37_2 Ni10_2 1_555 1_555
Ni10_2 N15_2 1_555 1_555
C33_2 C39_2 1_555 1_555
C39_2 O36_2 1_555 1_555
N15_2 C33_2 1_555 1_555
O36_2 Na37_2 1_555 1_555
O42_2 C39_2 1_555 1_555
Ni10_2 O36_2 1_555 1_555
Na16_2 Ni14_2 1_555 1_555
Ni14_2 N29_2 1_555 1_555
C31_2 C37_2 1_555 1_555
C34_2 H7_2 1_555 1_555
C37_2 O37 1_555 1_555
C55_2 C31_2 1_555 1_555
C58_2 C55_2 1_555 1_555
N29_2 C34_2 1_555 1_555
O40_2 C37_2 1_555 1_555
O54_2 Na16_2 1_555 1_555
O58_2 C58_2 1_555 1_555
Ni14_2 O54_2 1_555 1_555
C31_2 N16 1_555 1_555
C34_2 N16 1_555 1_555
C55_2 N29_2 1_555 1_555
C58_2 O54_2 1_555 1_555
C31_3 C37_3 1_555 1_555
C37_3 O39 1_555 1_555
O40_3 C37_3 1_555 1_555
C31_3 N18 1_555 1_555
Na16_3 Ni14_3 1_555 1_555
Ni14_3 N29_3 1_555 1_555
C34_3 H7_3 1_555 1_555
C58_3 C55_3 1_555 1_555
N29_3 C34_3 1_555 1_555
O54_3 Na16_3 1_555 1_555
O58_3 C58_3 1_555 1_555
Ni14_3 O54_3 1_555 1_555
C55_3 N29_3 1_555 1_555
C58_3 O54_3 1_555 1_555
C31_4 C37_4 1_555 1_555
C37_4 O38 1_555 1_555
O40_4 C37_4 1_555 1_555
C31_4 N17 1_555 1_555
Na16_4 Ni14_4 1_555 1_555
Ni14_4 N29_4 1_555 1_555
C34_4 H7_4 1_555 1_555
C58_4 C55_4 1_555 1_555
N29_4 C34_4 1_555 1_555
O54_4 Na16_4 1_555 1_555
O58_4 C58_4 1_555 1_555
Ni14_4 O54_4 1_555 1_555
C55_4 N29_4 1_555 1_555
C58_4 O54_4 1_555 1_555
Na32 O67_2 1_555 1_555
Ni14_4 N25_2 1_555 1_555
C44_2 C53_2 1_555 1_555
C53_2 O62_2 1_555 1_555
N25_2 C44_2 1_555 1_555
O62_2 Na16_4 1_555 1_555
Na32 O94_2 1_555 1_555
Ni14_4 O62_2 1_555 1_555
C53_2 O67_2 1_555 1_555
Ni10 N2_2 1_555 1_555
C2_2 C5_2 1_555 1_555
C3_2 H1_2 1_555 1_555
C5_2 O3_2 1_555 1_555
N2_2 C2_2 1_555 1_555
O3_2 Na37 1_555 1_555
O4_2 C5_2 1_555 1_555
O18_2 Na37 1_555 1_555
Na6_2 O4_2 1_555 1_555
Na10_2 O50_2 1_555 1_555
Na20_2 O50_2 1_555 1_555
Na21_2 Na24_2 1_555 1_555
Na26_2 O75_2 1_555 1_555
Ni6 N21_2 1_555 1_555
Ni14_4 N7_2 1_555 1_555
Ni14_2 N26_2 1_555 1_555
C25_2 C16_2 1_555 1_555
C42_2 C45_2 1_555 1_555
C45_2 C54_2 1_555 1_555
C47_2 H11_2 1_555 1_555
C48_2 H12_2 1_555 1_555
C50_2 C41_2 1_555 1_555
C51_2 C42_2 1_555 1_555
C54_2 O63_2 1_555 1_555
N7_2 C16_2 1_555 1_555
N20_2 Ni10 1_555 1_555
N21_2 C42_2 1_555 1_555
N26_2 C45_2 1_555 1_555
O20_2 Na16_4 1_555 1_555
O23_2 Na6_2 1_555 1_555
O44_2 Na37 1_555 1_555
O45_2 Na16_4 1_555 1_555
O50_2 Na16_2 1_555 1_555
O51_2 Na6_2 1_555 1_555
O63_2 Na16_2 1_555 1_555
O68_2 Na37 1_555 1_555
O72_2 Na6_2 1_555 1_555
O75_2 Na6_2 1_555 1_555
O78_2 Na16_4 1_555 1_555
O81_2 Na16_4 1_555 1_555
O85_2 Na16_2 1_555 1_555
O86_2 Na26_2 1_555 1_555
O92_2 Na37 1_555 1_555
Ni10 O3_2 1_555 1_555
Ni10 O44_2 1_555 1_555
C3_2 N2_2 1_555 1_555
Na6_2 O68_2 1_555 1_555
Na16_4 O51_2 1_555 1_555
Na16_2 O44_2 1_555 1_555
Na20_2 O85_2 1_555 1_555
Na21_2 O51_2 1_555 1_555
Na21_2 O81_2 1_555 1_555
Na21_2 O92_2 1_555 1_555
Na32 O45_2 1_555 1_555
Ni6 O45_2 1_555 1_555
Ni14_4 O20_2 1_555 1_555
Ni14_2 O63_2 1_555 1_555
C25_2 O20_2 1_555 1_555
C25_2 O23_2 1_555 1_555
C41_2 N20_2 1_555 1_555
C47_2 N20_2 1_555 1_555
C48_2 N21_2 1_555 1_555
C48_2 N26_2 1_555 1_555
C50_2 O44_2 1_555 1_555
C50_2 O50_2 1_555 1_555
C51_2 O45_2 1_555 1_555
C51_2 O51_2 1_555 1_555
C54_2 O68_2 1_555 1_555
O86_2 H23_2 1_555 1_555
O86_2 H24_2 1_555 1_555
Na16 O43_2 1_555 1_555
Ni10_2 N19_2 1_555 1_555
C46_2 H10_2 1_555 1_555
C49_2 C40_2 1_555 1_555
N19_2 C40_2 1_555 1_555
O43_2 Na37_2 1_555 1_555
O49_2 Na9_2 1_555 1_555
O84_2 Na16 1_555 1_555
Na16 O49_2 1_555 1_555
Na19_2 O49_2 1_555 1_555
Na19_2 O84_2 1_555 1_555
Ni10_2 O43_2 1_555 1_555
C46_2 N19_2 1_555 1_555
C49_2 O43_2 1_555 1_555
C49_2 O49_2 1_555 1_555
Na1_2 O2_2 1_555 1_555
Na24_2 O8_2 1_555 1_555
Na4_2 O14_2 1_555 1_555
Ni14_3 N1_2 1_555 1_555
C4_2 C1_2 1_555 1_555
C9_2 C10_2 1_555 1_555
C10_2 C13_2 1_555 1_555
C11_2 H3_2 1_555 1_555
C12_2 C9_2 1_555 1_555
C13_2 O11_2 1_555 1_555
N1_2 C1_2 1_555 1_555
N4_2 C9_2 1_555 1_555
N5_2 C10_2 1_555 1_555
O1_2 Na16_3 1_555 1_555
O2_2 C4_2 1_555 1_555
O7_2 Na16_3 1_555 1_555
O8_2 Na1_2 1_555 1_555
O11_2 Na16 1_555 1_555
O12_2 Na1_2 1_555 1_555
O13_2 Na1_2 1_555 1_555
O14_2 Na1_2 1_555 1_555
O15_2 Na16_3 1_555 1_555
O16_2 Na16_3 1_555 1_555
O17_2 Na4_2 1_555 1_555
O19_2 Na24_2 1_555 1_555
Na9_2 O24_2 1_555 1_555
Na10_2 O25_2 1_555 1_555
Na27_2 O76_2 1_555 1_555
Na28_2 O77_2 1_555 1_555
Na37_2 O12_2 1_555 1_555
Na36 O7_2 1_555 1_555
Ni9 N4_2 1_555 1_555
Ni6 N11_2 1_555 1_555
Ni14 N5_2 1_555 1_555
Ni14_2 N9_2 1_555 1_555
C17_2 C20_2 1_555 1_555
C18_2 C21_2 1_555 1_555
C19_2 C28_2 1_555 1_555
C20_2 C29_2 1_555 1_555
C21_2 C30_2 1_555 1_555
C22_2 H4_2 1_555 1_555
C23_2 H5_2 1_555 1_555
C24_2 H6_2 1_555 1_555
C26_2 C17_2 1_555 1_555
C27_2 C18_2 1_555 1_555
C28_2 O26_2 1_555 1_555
C29_2 O27_2 1_555 1_555
C30_2 O28_2 1_555 1_555
C43_2 C52_2 1_555 1_555
C52_2 O61_2 1_555 1_555
N8_2 Ni14 1_555 1_555
N9_2 C18_2 1_555 1_555
N10_2 Ni10_2 1_555 1_555
N11_2 C20_2 1_555 1_555
N12_2 Ni9 1_555 1_555
N24_2 Ni14_3 1_555 1_555
O21_2 Na16 1_555 1_555
O22_2 Na16_2 1_555 1_555
O24_2 C26_2 1_555 1_555
O25_2 C27_2 1_555 1_555
O26_2 Na37_2 1_555 1_555
O27_2 Na32 1_555 1_555
O28_2 Na36 1_555 1_555
O29_2 Na1_2 1_555 1_555
O33_2 C29_2 1_555 1_555
O31_2 C30_2 1_555 1_555
O61_2 Na16_3 1_555 1_555
O76_2 Na9_2 1_555 1_555
O77_2 Na10_2 1_555 1_555
O79_2 Na16 1_555 1_555
O80_2 Na16_2 1_555 1_555
O87_2 Na27_2 1_555 1_555
O88_2 Na28_2 1_555 1_555
O89_2 Na37_2 1_555 1_555
O90_2 Na36 1_555 1_555
O91_2 Na32 1_555 1_555
Na16_3 O8_2 1_555 1_555
Na24_2 O16_2 1_555 1_555
Ni14_3 O1_2 1_555 1_555
Ni14_3 O61_2 1_555 1_555
C4_2 O1_2 1_555 1_555
C11_2 N4_2 1_555 1_555
C11_2 N5_2 1_555 1_555
C12_2 O7_2 1_555 1_555
C12_2 O8_2 1_555 1_555
C13_2 O12_2 1_555 1_555
O7_2 Ni9 1_555 1_555
O11_2 Ni14 1_555 1_555
O19_2 Na37_2 1_555 1_555
Na36 O66_2 1_555 1_555
Na36 O93_2 1_555 1_555
Ni10_2 O26_2 1_555 1_555
Ni9 O28_2 1_555 1_555
Ni6 O27_2 1_555 1_555
Ni14 O21_2 1_555 1_555
Ni14_2 O22_2 1_555 1_555
C17_2 N8_2 1_555 1_555
C19_2 N10_2 1_555 1_555
C21_2 N12_2 1_555 1_555
C22_2 N10_2 1_555 1_555
C23_2 N8_2 1_555 1_555
C23_2 N11_2 1_555 1_555
C24_2 N9_2 1_555 1_555
C24_2 N12_2 1_555 1_555
C26_2 O21_2 1_555 1_555
C27_2 O22_2 1_555 1_555
C28_2 O29_2 1_555 1_555
C43_2 N24_2 1_555 1_555
C52_2 O66_2 1_555 1_555
O87_2 H25_2 1_555 1_555
O87_2 H26_2 1_555 1_555
O88_2 H35_2 1_555 1_555
O88_2 H36_2 1_555 1_555
O17_2 H39_2 1_555 1_555
O17_2 H40_2 1_555 1_555

#END
