
###############################################################################
#
# This file contains modified crystal structure data generated from the
# MOF subset of the Cambridge Structural Database (CSD) v543 
# hosted by the Cambridge Crystallographic Data Centre (CCDC).
#
# This work is licensed under the Creative Commons
# Attribution-NonCommercial-ShareAlike 4.0 International License.
# To view a copy of this license, visit
# http://creativecommons.org/licenses/by-nc-sa/4.0/
# or send a letter to
# Creative Commons, PO Box 1866, Mountain View, CA 94042, USA.
#
# CIF created using the CSD Python API on 29 September 2022
# The structure has been converted into the P1 space group
# The structure has a 3D framework
# The original CSD entry ICIVIC is in the monoclinic crystal system
# The framework has been calculated to contain at least 10.0% void space
# The void calculation uses a probe of radius 1.32A, grid spacing 0.4
#
###############################################################################

data_ICIVIC
_chemical_formula_moiety         '(C214 H128 F24 N24 O32 S8 Zn8)n'
_symmetry_cell_setting           triclinic
_symmetry_space_group_name_H-M   'P 1'
_symmetry_Int_Tables_number      1
_space_group_name_Hall           'P 1'
loop_
_symmetry_equiv_pos_site_id
_symmetry_equiv_pos_as_xyz
1 x,y,z
_cell_length_a                   22.4106(9)
_cell_length_b                   23.6354(9)
_cell_length_c                   15.2117(6)
_cell_angle_alpha                90
_cell_angle_beta                 126.403(2)
_cell_angle_gamma                90
_cell_volume                     6485.09
loop_
_atom_site_label
_atom_site_type_symbol
_atom_site_fract_x
_atom_site_fract_y
_atom_site_fract_z
Zn8 Zn 0.055507(13) 0.510851(11) 0.225802(19)
C2 C 0.93517(13) 0.43321(10) 0.10448(17)
C4 C 0.89107(13) 0.38735(10) 0.02291(19)
C12 C 0.83630(16) 0.35885(12) 0.0220(2)
H7 H 0.8284 0.3676 0.0739
O3 O 0.91104(10) 0.45251(8) 0.15415(14)
O4 O 0.99207(10) 0.45045(8) 0.11492(14)
Zn6 Zn 0.944493(13) 0.510851(11) 0.274198(19)
C40 C 0.06483(13) 0.43321(10) 0.39552(17)
C42 C 0.10893(13) 0.38735(10) 0.47709(19)
C44 C 0.39521(18) 0.15089(14) 0.9468(2)
H25 H 0.4352 0.1356 0.9515
C45 C 0.14156(17) 0.33426(13) 0.6338(2)
H26 H 0.1348 0.3260 0.6872
C46 C 0.09737(15) 0.37415(11) 0.5548(2)
H27 H 0.0600 0.3921 0.5537
C47 C 0.16370(16) 0.35885(12) 0.4780(2)
H28 H 0.1716 0.3676 0.4261
C48 C 0.20589(17) 0.31811(14) 0.5543(3)
H29 H 0.2411 0.2984 0.5527
C49 C 0.19604(16) 0.30638(12) 0.6339(3)
C50 C 0.2901(2) 0.21359(14) 0.8593(3)
C51 C 0.3495(2) 0.19065(16) 0.8658(3)
H30 H 0.3589 0.2017 0.8164
C53 C 0.2760(2) 0.19716(17) 0.9322(3)
H32 H 0.2361 0.2125 0.9278
N5 N 0.24769(17) 0.26346(13) 0.7122(2)
N6 N 0.23739(19) 0.25578(15) 0.7797(3)
O7 O 0.08896(10) 0.45251(8) 0.34585(14)
O8 O 0.00793(10) 0.45045(8) 0.38508(14)
C3 C 0.07262(13) 0.58950(10) 0.39489(18)
C5 C 0.11883(15) 0.63424(11) 0.4797(2)
C8 C 0.10479(18) 0.65089(14) 0.5532(2)
H3 H 0.0648 0.6356 0.5485
C10 C 0.35844(17) 0.83426(13) 0.8662(2)
H5 H 0.3652 0.8260 0.8128
C11 C 0.40263(15) 0.87415(11) 0.9452(2)
H6 H 0.4400 0.8921 0.9463
C14 C 0.29411(17) 0.81811(14) 0.9457(3)
H9 H 0.2589 0.7984 0.9473
C15 C 0.30396(16) 0.80638(12) 0.8661(3)
C16 C 0.2099(2) 0.71359(14) 0.6407(3)
C17 C 0.1505(2) 0.69065(16) 0.6342(3)
H10 H 0.1411 0.7017 0.6836
C19 C 0.1787(2) 0.65782(15) 0.4882(3)
H11 H 0.1886 0.6469 0.4392
C22 C 0.2240(2) 0.69716(17) 0.5678(3)
H13 H 0.2639 0.7125 0.5722
N1 N 0.25231(17) 0.76346(13) 0.7878(2)
N2 N 0.26261(19) 0.75578(15) 0.7203(3)
O1 O 0.01730(10) 0.57074(8) 0.38659(14)
O2 O 0.09456(10) 0.57327(8) 0.34078(14)
C1 C 0.80206(17) 0.49674(12) 0.3737(3)
H1 H 0.8061 0.4805 0.4327
C6 C 0.85865(15) 0.49055(11) 0.3623(2)
H2 H 0.9007 0.4703 0.4154
C7 C 0.73975(15) 0.52730(13) 0.2967(2)
C9 C 0.79319(14) 0.53995(13) 0.2021(2)
H4 H 0.7892 0.5542 0.1419
C13 C 0.73549(15) 0.54813(14) 0.2083(2)
H8 H 0.6935 0.5676 0.1533
C18 C 0.68157(17) 0.54053(14) 0.3100(3)
C20 C 0.63427(17) 0.58502(15) 0.2669(3)
H12 H 0.6324 0.6109 0.2192
C21 C 0.5353(2) 0.63577(16) 0.2684(5)
C23 C 0.58753(19) 0.58855(15) 0.3015(4)
C24 C 0.5992(2) 0.54626(19) 0.3691(4)
C25 C 0.5640(3) 0.6958(2) 0.2860(10)
C26 C 0.5000 0.7337(3) 0.2500
C27 C 0.5635(3) 0.5340(3) 0.4262(6)
H14 H 0.5624 0.5679 0.4599
H15 H 0.5917 0.5056 0.4811
H16 H 0.5138 0.5206 0.3738
F1 F 0.6215(3) 0.70402(19) 0.3887(7)
F2 F 0.5916(4) 0.70596(16) 0.2336(9)
F3 F 0.4845(3) 0.7667(2) 0.1727(6)
N3 N 0.85560(11) 0.51218(8) 0.27911(17)
S1 S 0.66854(8) 0.50181(5) 0.39313(12)
C28 C 0.19794(17) 0.49674(12) 0.1263(3)
H17 H 0.1939 0.4805 0.0673
C29 C 0.14135(15) 0.49055(11) 0.1377(2)
H18 H 0.0993 0.4703 0.0846
C30 C 0.26025(15) 0.52730(13) 0.2033(2)
C31 C 0.20681(14) 0.53995(13) 0.2979(2)
H19 H 0.2108 0.5542 0.3581
C32 C 0.26451(15) 0.54813(14) 0.2917(2)
H20 H 0.3065 0.5676 0.3467
C33 C 0.31843(17) 0.54053(14) 0.1900(3)
C34 C 0.36573(17) 0.58502(15) 0.2331(3)
H21 H 0.3676 0.6109 0.2808
C35 C 0.4647(2) 0.63577(16) 0.2316(5)
C36 C 0.41247(19) 0.58855(15) 0.1985(4)
C37 C 0.4008(2) 0.54626(19) 0.1309(4)
C38 C 0.4360(3) 0.6958(2) 0.2140(10)
C39 C 0.4365(3) 0.5340(3) 0.0738(6)
H22 H 0.4376 0.5679 0.0401
H23 H 0.4083 0.5056 0.0189
H24 H 0.4862 0.5206 0.1262
F4 F 0.3785(3) 0.70402(19) 0.1113(7)
F5 F 0.4084(4) 0.70596(16) 0.2664(9)
F6 F 0.5155(3) 0.7667(2) 0.3273(6)
N4 N 0.14440(11) 0.51218(8) 0.22089(17)
S2 S 0.33146(8) 0.50181(5) 0.10687(12)
O10 O 0.90544(10) 0.57327(8) 0.15922(14)
C41 C 0.92738(13) 0.58950(10) 0.10511(18)
C43 C 0.88117(15) 0.63424(11) 0.0203(2)
C52 C 0.8213(2) 0.65782(15) 0.0118(3)
H31 H 0.8114 0.6469 0.0608
O5 O 0.98270(10) 0.57074(8) 0.11341(14)
C3_2 C 0.57262(13) 0.08950(10) 0.39489(18)
C5_2 C 0.61883(15) 0.13424(11) 0.4797(2)
C7_2 C 0.23975(15) 0.02730(13) 0.2967(2)
C8_2 C 0.60479(18) 0.15089(14) 0.5532(2)
H3_2 H 0.5648 0.1356 0.5485
C9_2 C 0.29319(14) 0.03995(13) 0.2021(2)
H4_2 H 0.2892 0.0542 0.1419
C10_2 C 0.85844(17) 0.33426(13) 0.8662(2)
H5_2 H 0.8652 0.3260 0.8128
C11_2 C 0.90263(15) 0.37415(11) 0.9452(2)
H6_2 H 0.9400 0.3921 0.9463
C13_2 C 0.23549(15) 0.04813(14) 0.2083(2)
H8_2 H 0.1935 0.0676 0.1533
C14_2 C 0.79411(17) 0.31811(14) 0.9457(3)
H9_2 H 0.7589 0.2984 0.9473
C15_2 C 0.80396(16) 0.30638(12) 0.8661(3)
C16_2 C 0.7099(2) 0.21359(14) 0.6407(3)
C17_2 C 0.6505(2) 0.19065(16) 0.6342(3)
H10_2 H 0.6411 0.2017 0.6836
C18_2 C 0.18157(17) 0.04053(14) 0.3100(3)
C19_2 C 0.6787(2) 0.15782(15) 0.4882(3)
H11_2 H 0.6886 0.1469 0.4392
C20_2 C 0.13427(17) 0.08502(15) 0.2669(3)
H12_2 H 0.1324 0.1109 0.2192
C21_2 C 0.0353(2) 0.13577(16) 0.2684(5)
C22_2 C 0.7240(2) 0.19716(17) 0.5678(3)
H13_2 H 0.7639 0.2125 0.5722
C23_2 C 0.08753(19) 0.08855(15) 0.3015(4)
C24_2 C 0.0992(2) 0.04626(19) 0.3691(4)
C25_2 C 0.0640(3) 0.1958(2) 0.2860(10)
C26_2 C 0.0000 0.2337(3) 0.2500
C27_2 C 0.0635(3) 0.0340(3) 0.4262(6)
H14_2 H 0.0624 0.0679 0.4599
H15_2 H 0.0917 0.0056 0.4811
H16_2 H 0.0138 0.0206 0.3738
F1_2 F 0.1215(3) 0.20402(19) 0.3887(7)
F2_2 F 0.0916(4) 0.20596(16) 0.2336(9)
N1_2 N 0.75231(17) 0.26346(13) 0.7878(2)
N2_2 N 0.76261(19) 0.25578(15) 0.7203(3)
N3_2 N 0.35560(11) 0.01218(8) 0.27911(17)
O1_2 O 0.51730(10) 0.07074(8) 0.38659(14)
O2_2 O 0.59456(10) 0.07327(8) 0.34078(14)
S1_2 S 0.16854(8) 0.00181(5) 0.39313(12)
Zn1 Zn 0.444493(13) 0.010851(11) 0.274198(19)
F6_2 F 0.0155(3) 0.2667(2) 0.3273(6)
O10_2 O 0.40544(10) 0.07327(8) 0.15922(14)
Zn4 Zn 0.555507(13) 0.010851(11) 0.225802(19)
C26_3 C 1.0000 0.2337(3) 0.2500
F3_2 F 0.9845(3) 0.2667(2) 0.1727(6)
C30_2 C 0.76025(15) 0.02730(13) 0.2033(2)
C31_2 C 0.70681(14) 0.03995(13) 0.2979(2)
H19_2 H 0.7108 0.0542 0.3581
C32_2 C 0.76451(15) 0.04813(14) 0.2917(2)
H20_2 H 0.8065 0.0676 0.3467
C33_2 C 0.81843(17) 0.04053(14) 0.1900(3)
C34_2 C 0.86573(17) 0.08502(15) 0.2331(3)
H21_2 H 0.8676 0.1109 0.2808
C35_2 C 0.9647(2) 0.13577(16) 0.2316(5)
C36_2 C 0.91247(19) 0.08855(15) 0.1985(4)
C37_2 C 0.9008(2) 0.04626(19) 0.1309(4)
C38_2 C 0.9360(3) 0.1958(2) 0.2140(10)
C39_2 C 0.9365(3) 0.0340(3) 0.0738(6)
H22_2 H 0.9376 0.0679 0.0401
H23_2 H 0.9083 0.0056 0.0189
H24_2 H 0.9862 0.0206 0.1262
F4_2 F 0.8785(3) 0.20402(19) 0.1113(7)
F5_2 F 0.9084(4) 0.20596(16) 0.2664(9)
N4_2 N 0.64440(11) 0.01218(8) 0.22089(17)
S2_2 S 0.83146(8) 0.00181(5) 0.10687(12)
C41_2 C 0.42738(13) 0.08950(10) 0.10511(18)
C43_2 C 0.38117(15) 0.13424(11) 0.0203(2)
C52_2 C 0.3213(2) 0.15782(15) 0.0118(3)
H31_2 H 0.3114 0.1469 0.0608
O5_2 O 0.48270(10) 0.07074(8) 0.11341(14)
C1_2 C 0.30206(17) 0.99674(12) 0.3737(3)
H1_2 H 0.3061 0.9805 0.4327
C6_2 C 0.35865(15) 0.99055(11) 0.3623(2)
H2_2 H 0.4007 0.9703 0.4154
O11 O 0.41104(10) 0.95251(8) 0.15415(14)
O14 O 0.50793(10) 0.95045(8) 0.38508(14)
C28_2 C 0.69794(17) 0.99674(12) 0.1263(3)
H17_2 H 0.6939 0.9805 0.0673
C29_2 C 0.64135(15) 0.99055(11) 0.1377(2)
H18_2 H 0.5993 0.9703 0.0846
O12 O 0.58896(10) 0.95251(8) 0.34585(14)
O13 O 0.49207(10) 0.95045(8) 0.11492(14)
C2_2 C 0.43517(13) 0.93321(10) 0.10448(17)
C4_2 C 0.39107(13) 0.88735(10) 0.02291(19)
C12_2 C 0.33630(16) 0.85885(12) 0.0220(2)
H7_2 H 0.3284 0.8676 0.0739
C40_2 C 0.56483(13) 0.93321(10) 0.39552(17)
C42_2 C 0.60893(13) 0.88735(10) 0.47709(19)
C44_2 C 0.89521(18) 0.65089(14) 0.9468(2)
H25_2 H 0.9352 0.6356 0.9515
C45_2 C 0.64156(17) 0.83426(13) 0.6338(2)
H26_2 H 0.6348 0.8260 0.6872
C46_2 C 0.59737(15) 0.87415(11) 0.5548(2)
H27_2 H 0.5600 0.8921 0.5537
C47_2 C 0.66370(16) 0.85885(12) 0.4780(2)
H28_2 H 0.6716 0.8676 0.4261
C48_2 C 0.70589(17) 0.81811(14) 0.5543(3)
H29_2 H 0.7411 0.7984 0.5527
C49_2 C 0.69604(16) 0.80638(12) 0.6339(3)
C50_2 C 0.7901(2) 0.71359(14) 0.8593(3)
C51_2 C 0.8495(2) 0.69065(16) 0.8658(3)
H30_2 H 0.8589 0.7017 0.8164
C53_2 C 0.7760(2) 0.69716(17) 0.9322(3)
H32_2 H 0.7361 0.7125 0.9278
N5_2 N 0.74769(17) 0.76346(13) 0.7122(2)
N6_2 N 0.73739(19) 0.75578(15) 0.7797(3)
Zn5 Zn 0.055507(13) 0.489149(11) 0.725802(19)
C40_3 C 0.93517(13) 0.56679(10) 0.60448(17)
C42_3 C 0.89107(13) 0.61265(10) 0.52291(19)
C44_3 C 0.60479(18) 0.84911(14) 0.0532(2)
H25_3 H 0.5648 0.8644 0.0485
C45_3 C 0.85844(17) 0.66574(13) 0.3662(2)
H26_3 H 0.8652 0.6740 0.3128
C46_3 C 0.90263(15) 0.62585(11) 0.4452(2)
H27_3 H 0.9400 0.6079 0.4463
C47_3 C 0.83630(16) 0.64115(12) 0.5220(2)
H28_3 H 0.8284 0.6324 0.5739
C48_3 C 0.79411(17) 0.68189(14) 0.4457(3)
H29_3 H 0.7589 0.7016 0.4473
C49_3 C 0.80396(16) 0.69362(12) 0.3661(3)
C50_3 C 0.7099(2) 0.78641(14) 0.1407(3)
C51_3 C 0.6505(2) 0.80935(16) 0.1342(3)
H30_3 H 0.6411 0.7983 0.1836
C53_3 C 0.7240(2) 0.80284(17) 0.0678(3)
H32_3 H 0.7639 0.7875 0.0722
N5_3 N 0.75231(17) 0.73654(13) 0.2878(2)
N6_3 N 0.76261(19) 0.74422(15) 0.2203(3)
O7_2 O 0.91104(10) 0.54749(8) 0.65415(14)
O8_2 O 0.99207(10) 0.54955(8) 0.61492(14)
Zn7 Zn 0.944493(13) 0.489149(11) 0.774198(19)
C2_3 C 0.06483(13) 0.56679(10) 0.89552(17)
C4_3 C 0.10893(13) 0.61265(10) 0.97709(19)
C12_3 C 0.16370(16) 0.64115(12) 0.9780(2)
H7_3 H 0.1716 0.6324 0.9261
O3_2 O 0.08896(10) 0.54749(8) 0.84585(14)
O4_2 O 0.00793(10) 0.54955(8) 0.88508(14)
C41_3 C 0.07262(13) 0.41050(10) 0.89489(18)
C43_3 C 0.11883(15) 0.36576(11) 0.9797(2)
C52_3 C 0.1787(2) 0.34218(15) 0.9882(3)
H31_3 H 0.1886 0.3531 0.9392
O5_3 O 0.01730(10) 0.42926(8) 0.88659(14)
O6 O 0.09456(10) 0.42673(8) 0.84078(14)
C1_3 C 0.19794(17) 0.50326(12) 0.6263(3)
H1_3 H 0.1939 0.5195 0.5673
C6_3 C 0.14135(15) 0.50945(11) 0.6377(2)
H2_3 H 0.0993 0.5297 0.5846
C7_3 C 0.26025(15) 0.47270(13) 0.7033(2)
C9_3 C 0.20681(14) 0.46005(13) 0.7979(2)
H4_3 H 0.2108 0.4458 0.8581
C13_3 C 0.26451(15) 0.45187(14) 0.7917(2)
H8_3 H 0.3065 0.4324 0.8467
C18_3 C 0.31843(17) 0.45947(14) 0.6900(3)
C20_3 C 0.36573(17) 0.41498(15) 0.7331(3)
H12_3 H 0.3676 0.3891 0.7808
C21_3 C 0.4647(2) 0.36423(16) 0.7316(5)
C23_3 C 0.41247(19) 0.41145(15) 0.6985(4)
C24_3 C 0.4008(2) 0.45374(19) 0.6309(4)
C25_3 C 0.4360(3) 0.3042(2) 0.7140(10)
C26_4 C 0.5000 0.2663(3) 0.7500
C27_3 C 0.4365(3) 0.4660(3) 0.5738(6)
H14_3 H 0.4376 0.4321 0.5401
H15_3 H 0.4083 0.4944 0.5189
H16_3 H 0.4862 0.4794 0.6262
F1_3 F 0.3785(3) 0.29598(19) 0.6113(7)
F2_3 F 0.4084(4) 0.29404(16) 0.7664(9)
F3_3 F 0.5155(3) 0.2333(2) 0.8273(6)
N3_3 N 0.14440(11) 0.48782(8) 0.72089(17)
S1_3 S 0.33146(8) 0.49819(5) 0.60687(12)
C28_3 C 0.80206(17) 0.50326(12) 0.8737(3)
H17_3 H 0.8061 0.5195 0.9327
C29_3 C 0.85865(15) 0.50945(11) 0.8623(2)
H18_3 H 0.9007 0.5297 0.9154
C30_3 C 0.73975(15) 0.47270(13) 0.7967(2)
C31_3 C 0.79319(14) 0.46005(13) 0.7021(2)
H19_3 H 0.7892 0.4458 0.6419
C32_3 C 0.73549(15) 0.45187(14) 0.7083(2)
H20_3 H 0.6935 0.4324 0.6533
C33_3 C 0.68157(17) 0.45947(14) 0.8100(3)
C34_3 C 0.63427(17) 0.41498(15) 0.7669(3)
H21_3 H 0.6324 0.3891 0.7192
C35_3 C 0.5353(2) 0.36423(16) 0.7684(5)
C36_3 C 0.58753(19) 0.41145(15) 0.8015(4)
C37_3 C 0.5992(2) 0.45374(19) 0.8691(4)
C38_3 C 0.5640(3) 0.3042(2) 0.7860(10)
C39_3 C 0.5635(3) 0.4660(3) 0.9262(6)
H22_3 H 0.5624 0.4321 0.9599
H23_3 H 0.5917 0.4944 0.9811
H24_3 H 0.5138 0.4794 0.8738
F4_3 F 0.6215(3) 0.29598(19) 0.8887(7)
F5_3 F 0.5916(4) 0.29404(16) 0.7336(9)
F6_3 F 0.4845(3) 0.2333(2) 0.6727(6)
N4_3 N 0.85560(11) 0.48782(8) 0.77911(17)
S2_3 S 0.66854(8) 0.49819(5) 0.89313(12)
O9 O 0.90544(10) 0.42673(8) 0.65922(14)
C3_3 C 0.92738(13) 0.41050(10) 0.60511(18)
C5_3 C 0.88117(15) 0.36576(11) 0.5203(2)
C8_3 C 0.89521(18) 0.34911(14) 0.4468(2)
H3_3 H 0.9352 0.3644 0.4515
C10_3 C 0.64156(17) 0.16574(13) 0.1338(2)
H5_3 H 0.6348 0.1740 0.1872
C11_3 C 0.59737(15) 0.12585(11) 0.0548(2)
H6_3 H 0.5600 0.1079 0.0537
C14_3 C 0.70589(17) 0.18189(14) 0.0543(3)
H9_3 H 0.7411 0.2016 0.0527
C15_3 C 0.69604(16) 0.19362(12) 0.1339(3)
C16_3 C 0.7901(2) 0.28641(14) 0.3593(3)
C17_3 C 0.8495(2) 0.30935(16) 0.3658(3)
H10_3 H 0.8589 0.2983 0.3164
C19_3 C 0.8213(2) 0.34218(15) 0.5118(3)
H11_3 H 0.8114 0.3531 0.5608
C22_3 C 0.7760(2) 0.30284(17) 0.4322(3)
H13_3 H 0.7361 0.2875 0.4278
N1_3 N 0.74769(17) 0.23654(13) 0.2122(2)
N2_3 N 0.73739(19) 0.24422(15) 0.2797(3)
O1_3 O 0.98270(10) 0.42926(8) 0.61341(14)
C28_4 C 0.30206(17) 0.00326(12) 0.8737(3)
H17_4 H 0.3061 0.0195 0.9327
C29_4 C 0.35865(15) 0.00945(11) 0.8623(2)
H18_4 H 0.4007 0.0297 0.9154
O12_2 O 0.41104(10) 0.04749(8) 0.65415(14)
O13_2 O 0.50793(10) 0.04955(8) 0.88508(14)
C1_4 C 0.69794(17) 0.00326(12) 0.6263(3)
H1_4 H 0.6939 0.0195 0.5673
C6_4 C 0.64135(15) 0.00945(11) 0.6377(2)
H2_4 H 0.5993 0.0297 0.5846
O11_2 O 0.58896(10) 0.04749(8) 0.84585(14)
O14_2 O 0.49207(10) 0.04955(8) 0.61492(14)
C40_4 C 0.43517(13) 0.06679(10) 0.60448(17)
C42_4 C 0.39107(13) 0.11265(10) 0.52291(19)
C44_4 C 0.10479(18) 0.34911(14) 0.0532(2)
H25_4 H 0.0648 0.3644 0.0485
C45_4 C 0.35844(17) 0.16574(13) 0.3662(2)
H26_4 H 0.3652 0.1740 0.3128
C46_4 C 0.40263(15) 0.12585(11) 0.4452(2)
H27_4 H 0.4400 0.1079 0.4463
C47_4 C 0.33630(16) 0.14115(12) 0.5220(2)
H28_4 H 0.3284 0.1324 0.5739
C48_4 C 0.29411(17) 0.18189(14) 0.4457(3)
H29_4 H 0.2589 0.2016 0.4473
C49_4 C 0.30396(16) 0.19362(12) 0.3661(3)
C50_4 C 0.2099(2) 0.28641(14) 0.1407(3)
C51_4 C 0.1505(2) 0.30935(16) 0.1342(3)
H30_4 H 0.1411 0.2983 0.1836
C53_4 C 0.2240(2) 0.30284(17) 0.0678(3)
H32_4 H 0.2639 0.2875 0.0722
N5_4 N 0.25231(17) 0.23654(13) 0.2878(2)
N6_4 N 0.26261(19) 0.24422(15) 0.2203(3)
C2_4 C 0.56483(13) 0.06679(10) 0.89552(17)
C4_4 C 0.60893(13) 0.11265(10) 0.97709(19)
C12_4 C 0.66370(16) 0.14115(12) 0.9780(2)
H7_4 H 0.6716 0.1324 0.9261
C26_5 C 0.0000 0.7663(3) 0.7500
F3_4 F 0.0155(3) 0.7333(2) 0.8273(6)
C30_4 C 0.23975(15) 0.97270(13) 0.7967(2)
C31_4 C 0.29319(14) 0.96005(13) 0.7021(2)
H19_4 H 0.2892 0.9458 0.6419
C32_4 C 0.23549(15) 0.95187(14) 0.7083(2)
H20_4 H 0.1935 0.9324 0.6533
C33_4 C 0.18157(17) 0.95947(14) 0.8100(3)
C34_4 C 0.13427(17) 0.91498(15) 0.7669(3)
H21_4 H 0.1324 0.8891 0.7192
C35_4 C 0.0353(2) 0.86423(16) 0.7684(5)
C36_4 C 0.08753(19) 0.91145(15) 0.8015(4)
C37_4 C 0.0992(2) 0.95374(19) 0.8691(4)
C38_4 C 0.0640(3) 0.8042(2) 0.7860(10)
C39_4 C 0.0635(3) 0.9660(3) 0.9262(6)
H22_4 H 0.0624 0.9321 0.9599
H23_4 H 0.0917 0.9944 0.9811
H24_4 H 0.0138 0.9794 0.8738
F4_4 F 0.1215(3) 0.79598(19) 0.8887(7)
F5_4 F 0.0916(4) 0.79404(16) 0.7336(9)
N4_4 N 0.35560(11) 0.98782(8) 0.77911(17)
S2_4 S 0.16854(8) 0.99819(5) 0.89313(12)
C41_4 C 0.57262(13) 0.91050(10) 0.89489(18)
C43_4 C 0.61883(15) 0.86576(11) 0.9797(2)
C52_4 C 0.6787(2) 0.84218(15) 0.9882(3)
H31_4 H 0.6886 0.8531 0.9392
O5_4 O 0.51730(10) 0.92926(8) 0.88659(14)
O6_2 O 0.59456(10) 0.92673(8) 0.84078(14)
Zn2 Zn 0.444493(13) 0.989149(11) 0.774198(19)
O9_2 O 0.40544(10) 0.92673(8) 0.65922(14)
Zn3 Zn 0.555507(13) 0.989149(11) 0.725802(19)
C3_4 C 0.42738(13) 0.91050(10) 0.60511(18)
C5_4 C 0.38117(15) 0.86576(11) 0.5203(2)
C7_4 C 0.76025(15) 0.97270(13) 0.7033(2)
C8_4 C 0.39521(18) 0.84911(14) 0.4468(2)
H3_4 H 0.4352 0.8644 0.4515
C9_4 C 0.70681(14) 0.96005(13) 0.7979(2)
H4_4 H 0.7108 0.9458 0.8581
C10_4 C 0.14156(17) 0.66574(13) 0.1338(2)
H5_4 H 0.1348 0.6740 0.1872
C11_4 C 0.09737(15) 0.62585(11) 0.0548(2)
H6_4 H 0.0600 0.6079 0.0537
C13_4 C 0.76451(15) 0.95187(14) 0.7917(2)
H8_4 H 0.8065 0.9324 0.8467
C14_4 C 0.20589(17) 0.68189(14) 0.0543(3)
H9_4 H 0.2411 0.7016 0.0527
C15_4 C 0.19604(16) 0.69362(12) 0.1339(3)
C16_4 C 0.2901(2) 0.78641(14) 0.3593(3)
C17_4 C 0.3495(2) 0.80935(16) 0.3658(3)
H10_4 H 0.3589 0.7983 0.3164
C18_4 C 0.81843(17) 0.95947(14) 0.6900(3)
C19_4 C 0.3213(2) 0.84218(15) 0.5118(3)
H11_4 H 0.3114 0.8531 0.5608
C20_4 C 0.86573(17) 0.91498(15) 0.7331(3)
H12_4 H 0.8676 0.8891 0.7808
C21_4 C 0.9647(2) 0.86423(16) 0.7316(5)
C22_4 C 0.2760(2) 0.80284(17) 0.4322(3)
H13_4 H 0.2361 0.7875 0.4278
C23_4 C 0.91247(19) 0.91145(15) 0.6985(4)
C24_4 C 0.9008(2) 0.95374(19) 0.6309(4)
C25_4 C 0.9360(3) 0.8042(2) 0.7140(10)
C26_6 C 1.0000 0.7663(3) 0.7500
C27_4 C 0.9365(3) 0.9660(3) 0.5738(6)
H14_4 H 0.9376 0.9321 0.5401
H15_4 H 0.9083 0.9944 0.5189
H16_4 H 0.9862 0.9794 0.6262
F1_4 F 0.8785(3) 0.79598(19) 0.6113(7)
F2_4 F 0.9084(4) 0.79404(16) 0.7664(9)
N1_4 N 0.24769(17) 0.73654(13) 0.2122(2)
N2_4 N 0.23739(19) 0.74422(15) 0.2797(3)
N3_4 N 0.64440(11) 0.98782(8) 0.72089(17)
O1_4 O 0.48270(10) 0.92926(8) 0.61341(14)
S1_4 S 0.83146(8) 0.99819(5) 0.60687(12)
F6_4 F 0.9845(3) 0.7333(2) 0.6727(6)
loop_
_geom_bond_atom_site_label_1
_geom_bond_atom_site_label_2
_geom_bond_site_symmetry_1
_geom_bond_site_symmetry_2
C2 C4 1_555 1_555
C12 C4 1_555 1_555
H7 C12 1_555 1_555
O3 C2 1_555 1_555
O4 C2 1_555 1_555
Zn6 O3 1_555 1_555
C40 C42 1_555 1_555
C42 C46 1_555 1_555
C44 H25 1_555 1_555
C45 H26 1_555 1_555
C46 C45 1_555 1_555
H27 C46 1_555 1_555
C47 C42 1_555 1_555
H28 C47 1_555 1_555
C48 C47 1_555 1_555
H29 C48 1_555 1_555
C49 C45 1_555 1_555
C50 C51 1_555 1_555
C51 C44 1_555 1_555
H30 C51 1_555 1_555
C53 C50 1_555 1_555
H32 C53 1_555 1_555
N5 C49 1_555 1_555
N6 C50 1_555 1_555
O7 C40 1_555 1_555
O8 C40 1_555 1_555
Zn8 O7 1_555 1_555
C48 C49 1_555 1_555
N5 N6 1_555 1_555
C3 C5 1_555 1_555
C5 C8 1_555 1_555
C8 H3 1_555 1_555
C10 H5 1_555 1_555
C11 C10 1_555 1_555
H6 C11 1_555 1_555
H9 C14 1_555 1_555
C15 C10 1_555 1_555
C16 C17 1_555 1_555
C17 C8 1_555 1_555
H10 C17 1_555 1_555
C19 C5 1_555 1_555
H11 C19 1_555 1_555
C22 C16 1_555 1_555
H13 C22 1_555 1_555
N1 C15 1_555 1_555
N2 C16 1_555 1_555
O1 C3 1_555 1_555
O2 C3 1_555 1_555
Zn8 O2 1_555 1_555
C14 C15 1_555 1_555
C19 C22 1_555 1_555
N1 N2 1_555 1_555
C1 H1 1_555 1_555
C6 C1 1_555 1_555
H2 C6 1_555 1_555
C7 C1 1_555 1_555
C9 H4 1_555 1_555
C13 C7 1_555 1_555
H8 C13 1_555 1_555
C18 C7 1_555 1_555
C20 C18 1_555 1_555
H12 C20 1_555 1_555
C21 C23 1_555 1_555
C23 C20 1_555 1_555
C24 C23 1_555 1_555
C25 C21 1_555 1_555
C26 C25 1_555 1_555
C27 C24 1_555 1_555
H14 C27 1_555 1_555
H15 C27 1_555 1_555
H16 C27 1_555 1_555
F1 C25 1_555 1_555
F2 C25 1_555 1_555
F3 C26 1_555 1_555
N3 C6 1_555 1_555
S1 C18 1_555 1_555
Zn6 N3 1_555 1_555
C28 H17 1_555 1_555
C29 C28 1_555 1_555
H18 C29 1_555 1_555
C30 C28 1_555 1_555
C31 H19 1_555 1_555
C32 C30 1_555 1_555
H20 C32 1_555 1_555
C33 C30 1_555 1_555
C34 C33 1_555 1_555
H21 C34 1_555 1_555
C35 C21 1_555 1_555
C36 C34 1_555 1_555
C37 C36 1_555 1_555
C38 C26 1_555 1_555
C39 C37 1_555 1_555
H22 C39 1_555 1_555
H23 C39 1_555 1_555
H24 C39 1_555 1_555
F4 C38 1_555 1_555
F5 C38 1_555 1_555
F6 C26 1_555 1_555
N4 C29 1_555 1_555
S2 C33 1_555 1_555
Zn8 N4 1_555 1_555
O10 Zn6 1_555 1_555
C9 C13 1_555 1_555
C9 N3 1_555 1_555
C24 S1 1_555 1_555
C31 C32 1_555 1_555
C31 N4 1_555 1_555
C35 C36 1_555 1_555
C35 C38 1_555 1_555
C37 S2 1_555 1_555
C41 C43 1_555 1_555
C52 C43 1_555 1_555
H31 C52 1_555 1_555
O5 C41 1_555 1_555
O10 C41 1_555 1_555
C3_2 C5_2 1_555 1_555
C5_2 C8_2 1_555 1_555
C8_2 H3_2 1_555 1_555
C9_2 H4_2 1_555 1_555
C10_2 H5_2 1_555 1_555
C11_2 C10_2 1_555 1_555
H6_2 C11_2 1_555 1_555
C13_2 C7_2 1_555 1_555
H8_2 C13_2 1_555 1_555
H9_2 C14_2 1_555 1_555
C15_2 C10_2 1_555 1_555
C16_2 C17_2 1_555 1_555
C17_2 C8_2 1_555 1_555
H10_2 C17_2 1_555 1_555
C18_2 C7_2 1_555 1_555
C19_2 C5_2 1_555 1_555
H11_2 C19_2 1_555 1_555
C20_2 C18_2 1_555 1_555
H12_2 C20_2 1_555 1_555
C21_2 C23_2 1_555 1_555
C22_2 C16_2 1_555 1_555
H13_2 C22_2 1_555 1_555
C23_2 C20_2 1_555 1_555
C24_2 C23_2 1_555 1_555
C25_2 C21_2 1_555 1_555
C26_2 C25_2 1_555 1_555
C27_2 C24_2 1_555 1_555
H14_2 C27_2 1_555 1_555
H15_2 C27_2 1_555 1_555
H16_2 C27_2 1_555 1_555
F1_2 C25_2 1_555 1_555
F2_2 C25_2 1_555 1_555
N1_2 C15_2 1_555 1_555
N2_2 C16_2 1_555 1_555
O1_2 C3_2 1_555 1_555
O2_2 C3_2 1_555 1_555
S1_2 C18_2 1_555 1_555
Zn1 N3_2 1_555 1_555
F6_2 C26_2 1_555 1_555
O10_2 Zn1 1_555 1_555
Zn4 O2_2 1_555 1_555
C9_2 C13_2 1_555 1_555
C9_2 N3_2 1_555 1_555
C14_2 C15_2 1_555 1_555
C19_2 C22_2 1_555 1_555
C24_2 S1_2 1_555 1_555
N1_2 N2_2 1_555 1_555
O1_2 Zn1 1_555 1_555
F3_2 C26_3 1_555 1_555
C31_2 H19_2 1_555 1_555
C32_2 C30_2 1_555 1_555
H20_2 C32_2 1_555 1_555
C33_2 C30_2 1_555 1_555
C34_2 C33_2 1_555 1_555
H21_2 C34_2 1_555 1_555
C36_2 C34_2 1_555 1_555
C37_2 C36_2 1_555 1_555
C38_2 C26_3 1_555 1_555
C39_2 C37_2 1_555 1_555
H22_2 C39_2 1_555 1_555
H23_2 C39_2 1_555 1_555
H24_2 C39_2 1_555 1_555
F4_2 C38_2 1_555 1_555
F5_2 C38_2 1_555 1_555
S2_2 C33_2 1_555 1_555
C41_2 C43_2 1_555 1_555
C52_2 C43_2 1_555 1_555
H31_2 C52_2 1_555 1_555
O5_2 C41_2 1_555 1_555
O10_2 C41_2 1_555 1_555
Zn4 N4_2 1_555 1_555
C31_2 C32_2 1_555 1_555
C31_2 N4_2 1_555 1_555
C35_2 C36_2 1_555 1_555
C35_2 C38_2 1_555 1_555
C37_2 S2_2 1_555 1_555
O5_2 Zn4 1_555 1_555
C1_2 H1_2 1_555 1_555
C6_2 C1_2 1_555 1_555
H2_2 C6_2 1_555 1_555
C28_2 H17_2 1_555 1_555
C29_2 C28_2 1_555 1_555
H18_2 C29_2 1_555 1_555
C2_2 C4_2 1_555 1_555
C12_2 C4_2 1_555 1_555
H7_2 C12_2 1_555 1_555
O11 C2_2 1_555 1_555
O13 C2_2 1_555 1_555
C40_2 C42_2 1_555 1_555
C42_2 C46_2 1_555 1_555
C44_2 H25_2 1_555 1_555
C45_2 H26_2 1_555 1_555
C46_2 C45_2 1_555 1_555
H27_2 C46_2 1_555 1_555
C47_2 C42_2 1_555 1_555
H28_2 C47_2 1_555 1_555
C48_2 C47_2 1_555 1_555
H29_2 C48_2 1_555 1_555
C49_2 C45_2 1_555 1_555
C50_2 C51_2 1_555 1_555
C51_2 C44_2 1_555 1_555
H30_2 C51_2 1_555 1_555
C53_2 C50_2 1_555 1_555
H32_2 C53_2 1_555 1_555
N5_2 C49_2 1_555 1_555
N6_2 C50_2 1_555 1_555
O12 C40_2 1_555 1_555
O14 C40_2 1_555 1_555
C48_2 C49_2 1_555 1_555
N5_2 N6_2 1_555 1_555
C40_3 C42_3 1_555 1_555
C42_3 C46_3 1_555 1_555
C44_3 H25_3 1_555 1_555
C45_3 H26_3 1_555 1_555
C46_3 C45_3 1_555 1_555
H27_3 C46_3 1_555 1_555
C47_3 C42_3 1_555 1_555
H28_3 C47_3 1_555 1_555
C48_3 C47_3 1_555 1_555
H29_3 C48_3 1_555 1_555
C49_3 C45_3 1_555 1_555
C50_3 C51_3 1_555 1_555
C51_3 C44_3 1_555 1_555
H30_3 C51_3 1_555 1_555
C53_3 C50_3 1_555 1_555
H32_3 C53_3 1_555 1_555
N5_3 C49_3 1_555 1_555
N6_3 C50_3 1_555 1_555
O7_2 C40_3 1_555 1_555
O8_2 C40_3 1_555 1_555
Zn7 O7_2 1_555 1_555
C48_3 C49_3 1_555 1_555
N5_3 N6_3 1_555 1_555
C2_3 C4_3 1_555 1_555
C12_3 C4_3 1_555 1_555
H7_3 C12_3 1_555 1_555
O3_2 C2_3 1_555 1_555
O4_2 C2_3 1_555 1_555
Zn5 O3_2 1_555 1_555
C41_3 C43_3 1_555 1_555
C52_3 C43_3 1_555 1_555
H31_3 C52_3 1_555 1_555
O5_3 C41_3 1_555 1_555
O6 C41_3 1_555 1_555
Zn5 O6 1_555 1_555
C1_3 H1_3 1_555 1_555
C6_3 C1_3 1_555 1_555
H2_3 C6_3 1_555 1_555
C7_3 C1_3 1_555 1_555
C9_3 H4_3 1_555 1_555
C13_3 C7_3 1_555 1_555
H8_3 C13_3 1_555 1_555
C18_3 C7_3 1_555 1_555
C20_3 C18_3 1_555 1_555
H12_3 C20_3 1_555 1_555
C21_3 C23_3 1_555 1_555
C23_3 C20_3 1_555 1_555
C24_3 C23_3 1_555 1_555
C25_3 C21_3 1_555 1_555
C26_4 C25_3 1_555 1_555
C27_3 C24_3 1_555 1_555
H14_3 C27_3 1_555 1_555
H15_3 C27_3 1_555 1_555
H16_3 C27_3 1_555 1_555
F1_3 C25_3 1_555 1_555
F2_3 C25_3 1_555 1_555
F3_3 C26_4 1_555 1_555
N3_3 C6_3 1_555 1_555
S1_3 C18_3 1_555 1_555
Zn5 N3_3 1_555 1_555
C28_3 H17_3 1_555 1_555
C29_3 C28_3 1_555 1_555
H18_3 C29_3 1_555 1_555
C30_3 C28_3 1_555 1_555
C31_3 H19_3 1_555 1_555
C32_3 C30_3 1_555 1_555
H20_3 C32_3 1_555 1_555
C33_3 C30_3 1_555 1_555
C34_3 C33_3 1_555 1_555
H21_3 C34_3 1_555 1_555
C35_3 C21_3 1_555 1_555
C36_3 C34_3 1_555 1_555
C37_3 C36_3 1_555 1_555
C38_3 C26_4 1_555 1_555
C39_3 C37_3 1_555 1_555
H22_3 C39_3 1_555 1_555
H23_3 C39_3 1_555 1_555
H24_3 C39_3 1_555 1_555
F4_3 C38_3 1_555 1_555
F5_3 C38_3 1_555 1_555
F6_3 C26_4 1_555 1_555
N4_3 C29_3 1_555 1_555
S2_3 C33_3 1_555 1_555
Zn7 N4_3 1_555 1_555
O9 Zn7 1_555 1_555
C9_3 C13_3 1_555 1_555
C9_3 N3_3 1_555 1_555
C24_3 S1_3 1_555 1_555
C31_3 C32_3 1_555 1_555
C31_3 N4_3 1_555 1_555
C35_3 C36_3 1_555 1_555
C35_3 C38_3 1_555 1_555
C37_3 S2_3 1_555 1_555
C3_3 C5_3 1_555 1_555
C5_3 C8_3 1_555 1_555
C8_3 H3_3 1_555 1_555
C10_3 H5_3 1_555 1_555
C11_3 C10_3 1_555 1_555
H6_3 C11_3 1_555 1_555
H9_3 C14_3 1_555 1_555
C15_3 C10_3 1_555 1_555
C16_3 C17_3 1_555 1_555
C17_3 C8_3 1_555 1_555
H10_3 C17_3 1_555 1_555
C19_3 C5_3 1_555 1_555
H11_3 C19_3 1_555 1_555
C22_3 C16_3 1_555 1_555
H13_3 C22_3 1_555 1_555
N1_3 C15_3 1_555 1_555
N2_3 C16_3 1_555 1_555
O1_3 C3_3 1_555 1_555
O9 C3_3 1_555 1_555
C14_3 C15_3 1_555 1_555
C19_3 C22_3 1_555 1_555
N1_3 N2_3 1_555 1_555
C28_4 H17_4 1_555 1_555
C29_4 C28_4 1_555 1_555
H18_4 C29_4 1_555 1_555
C1_4 H1_4 1_555 1_555
C6_4 C1_4 1_555 1_555
H2_4 C6_4 1_555 1_555
C40_4 C42_4 1_555 1_555
C42_4 C46_4 1_555 1_555
C44_4 H25_4 1_555 1_555
C45_4 H26_4 1_555 1_555
C46_4 C45_4 1_555 1_555
H27_4 C46_4 1_555 1_555
C47_4 C42_4 1_555 1_555
H28_4 C47_4 1_555 1_555
C48_4 C47_4 1_555 1_555
H29_4 C48_4 1_555 1_555
C49_4 C45_4 1_555 1_555
C50_4 C51_4 1_555 1_555
C51_4 C44_4 1_555 1_555
H30_4 C51_4 1_555 1_555
C53_4 C50_4 1_555 1_555
H32_4 C53_4 1_555 1_555
N5_4 C49_4 1_555 1_555
N6_4 C50_4 1_555 1_555
O12_2 C40_4 1_555 1_555
O14_2 C40_4 1_555 1_555
C48_4 C49_4 1_555 1_555
N5_4 N6_4 1_555 1_555
C2_4 C4_4 1_555 1_555
C12_4 C4_4 1_555 1_555
H7_4 C12_4 1_555 1_555
O11_2 C2_4 1_555 1_555
O13_2 C2_4 1_555 1_555
F3_4 C26_5 1_555 1_555
C31_4 H19_4 1_555 1_555
C32_4 C30_4 1_555 1_555
H20_4 C32_4 1_555 1_555
C33_4 C30_4 1_555 1_555
C34_4 C33_4 1_555 1_555
H21_4 C34_4 1_555 1_555
C36_4 C34_4 1_555 1_555
C37_4 C36_4 1_555 1_555
C38_4 C26_5 1_555 1_555
C39_4 C37_4 1_555 1_555
H22_4 C39_4 1_555 1_555
H23_4 C39_4 1_555 1_555
H24_4 C39_4 1_555 1_555
F4_4 C38_4 1_555 1_555
F5_4 C38_4 1_555 1_555
S2_4 C33_4 1_555 1_555
C41_4 C43_4 1_555 1_555
C52_4 C43_4 1_555 1_555
H31_4 C52_4 1_555 1_555
O5_4 C41_4 1_555 1_555
O6_2 C41_4 1_555 1_555
Zn2 N4_4 1_555 1_555
O9_2 Zn2 1_555 1_555
Zn3 O6_2 1_555 1_555
C31_4 C32_4 1_555 1_555
C31_4 N4_4 1_555 1_555
C35_4 C36_4 1_555 1_555
C35_4 C38_4 1_555 1_555
C37_4 S2_4 1_555 1_555
O5_4 Zn2 1_555 1_555
C3_4 C5_4 1_555 1_555
C5_4 C8_4 1_555 1_555
C8_4 H3_4 1_555 1_555
C9_4 H4_4 1_555 1_555
C10_4 H5_4 1_555 1_555
C11_4 C10_4 1_555 1_555
H6_4 C11_4 1_555 1_555
C13_4 C7_4 1_555 1_555
H8_4 C13_4 1_555 1_555
H9_4 C14_4 1_555 1_555
C15_4 C10_4 1_555 1_555
C16_4 C17_4 1_555 1_555
C17_4 C8_4 1_555 1_555
H10_4 C17_4 1_555 1_555
C18_4 C7_4 1_555 1_555
C19_4 C5_4 1_555 1_555
H11_4 C19_4 1_555 1_555
C20_4 C18_4 1_555 1_555
H12_4 C20_4 1_555 1_555
C21_4 C23_4 1_555 1_555
C22_4 C16_4 1_555 1_555
H13_4 C22_4 1_555 1_555
C23_4 C20_4 1_555 1_555
C24_4 C23_4 1_555 1_555
C25_4 C21_4 1_555 1_555
C26_6 C25_4 1_555 1_555
C27_4 C24_4 1_555 1_555
H14_4 C27_4 1_555 1_555
H15_4 C27_4 1_555 1_555
H16_4 C27_4 1_555 1_555
F1_4 C25_4 1_555 1_555
F2_4 C25_4 1_555 1_555
N1_4 C15_4 1_555 1_555
N2_4 C16_4 1_555 1_555
O1_4 C3_4 1_555 1_555
O9_2 C3_4 1_555 1_555
S1_4 C18_4 1_555 1_555
Zn3 N3_4 1_555 1_555
F6_4 C26_6 1_555 1_555
C9_4 C13_4 1_555 1_555
C9_4 N3_4 1_555 1_555
C14_4 C15_4 1_555 1_555
C19_4 C22_4 1_555 1_555
C24_4 S1_4 1_555 1_555
N1_4 N2_4 1_555 1_555
O1_4 Zn3 1_555 1_555

#END
