
###############################################################################
#
# This file contains modified crystal structure data generated from the
# MOF subset of the Cambridge Structural Database (CSD) v543 
# hosted by the Cambridge Crystallographic Data Centre (CCDC).
#
# This work is licensed under the Creative Commons
# Attribution-NonCommercial-ShareAlike 4.0 International License.
# To view a copy of this license, visit
# http://creativecommons.org/licenses/by-nc-sa/4.0/
# or send a letter to
# Creative Commons, PO Box 1866, Mountain View, CA 94042, USA.
#
# CIF created using the CSD Python API on 29 September 2022
# The structure has been converted into the P1 space group
# The structure has a 3D framework
# The original CSD entry ICIZOL is in the monoclinic crystal system
# The framework has been calculated to contain at least 10.0% void space
# The void calculation uses a probe of radius 1.32A, grid spacing 0.4
# H atom positions have been added when not included in the experimental data
#
###############################################################################

data_ICIZOL
_chemical_formula_moiety         '(C80 H64 Mn4 N16 O32 S8)n'
_symmetry_cell_setting           triclinic
_symmetry_space_group_name_H-M   'P 1'
_symmetry_Int_Tables_number      1
_space_group_name_Hall           'P 1'
loop_
_symmetry_equiv_pos_site_id
_symmetry_equiv_pos_as_xyz
1 x,y,z
_cell_length_a                   9.316(6)
_cell_length_b                   11.917(8)
_cell_length_c                   25.515(16)
_cell_angle_alpha                90
_cell_angle_beta                 94.663(13)
_cell_angle_gamma                90
_cell_volume                     2823.27
loop_
_atom_site_label
_atom_site_type_symbol
_atom_site_fract_x
_atom_site_fract_y
_atom_site_fract_z
S4 S 0.1102(3) 0.6559(3) 0.69817(13)
O9 O 0.1148(18) 0.6634(12) 0.6448(4)
O10 O 0.2474(10) 0.6691(11) 0.7285(6)
O11 O 0.0398(9) 0.5560(8) 0.7131(4)
C32 C 0.0476(12) 0.8426(9) 0.7544(4)
H19 H 0.1436 0.8367 0.7698
Mn1 Mn 0.44433(13) 0.08057(12) 0.02126(5)
O1 O 0.6420(13) 0.1571(14) 0.0022(10)
N11 N 0.4693(9) 0.1147(6) 0.1089(3)
N12 N 0.2413(8) 0.0207(6) 0.0567(2)
H27 H 0.66206 0.223941 0.0248573
H28 H 0.722038 0.102386 0.00821458
H32 H 0.233007 0.232879 0.00412211
O14 O 0.1647(11) 0.9757(14) 0.8902(5)
O15 O 0.1223(11) 0.3247(12) 0.7399(5)
N5 N 0.4693(9) 0.8853(6) 0.6089(3)
N6 N 0.6002(8) 0.8605(7) 0.6349(2)
N7 N 0.3712(7) 0.9165(6) 0.6909(2)
N8 N 0.2413(8) 0.9793(6) 0.5567(2)
H1 H 0.6189 0.6878 0.9921
C3 C 0.4412(12) 0.5908(9) 0.9766(4)
H2 H 0.4776 0.5473 0.9495
C4 C 0.2990(11) 0.5735(9) 0.9917(4)
H3 H 0.2396 0.5187 0.9738
C10 C 0.0325(12) 0.6911(9) 0.9318(3)
H5 H 0.0856 0.7458 0.9523
C11 C 0.0156(15) 0.7004(9) 0.8769(4)
H6 H 0.0543 0.7644 0.8609
H16 H 0.1177 0.9939 0.6732
C25 C 0.2329(10) 0.9680(8) 0.6092(3)
C26 C 0.3638(10) 0.9230(8) 0.6382(3)
C27 C 0.4933(9) 0.8863(7) 0.7153(3)
C28 C 0.6176(10) 0.8688(7) 0.6864(3)
C29 C 0.7630(9) 0.8561(7) 0.7096(3)
C30 C 0.8196(11) 0.9365(8) 0.7485(3)
H17 H 0.7606 0.9958 0.7593
C31 C 0.9614(11) 0.9262(10) 0.7701(4)
H18 H 0.9982 0.9782 0.7960
C33 C 0.9993(9) 0.7677(9) 0.7173(4)
C34 C 0.8602(10) 0.7746(7) 0.6938(3)
H20 H 0.8297 0.7234 0.6667
C35 C 0.4958(9) 0.8699(7) 0.7734(3)
C36 C 0.4178(9) 0.9430(7) 0.8021(3)
C37 C 0.4149(10) 0.9237(7) 0.8570(3)
C38 C 0.4833(13) 0.8337(10) 0.8813(4)
H22 H 0.4811 0.8221 0.9181
C39 C 0.5571(18) 0.7587(12) 0.8502(4)
H23 H 0.6007 0.6944 0.8667
C40 C 0.5694(9) 0.7729(7) 0.7977(3)
H24 H 0.6230 0.7224 0.7780
Mn3 Mn 0.44433(13) 0.91943(12) 0.52126(5)
Mn4 Mn 0.92644(15) 0.39945(13) 0.70595(5)
H25 H 0.0989818 0.25737 0.760508
H26 H 0.18321 0.302404 0.711461
N2 N 0.9619(8) 0.5981(6) 0.1188(3)
N3 N 0.8600(8) 0.5462(7) 0.0335(3)
N4 N 0.7277(9) 0.5221(7) 0.1629(3)
C8 C 0.9781(9) 0.5868(7) 0.0135(3)
C15 C 0.8601(10) 0.5472(7) 0.0865(3)
C16 C 0.7321(9) 0.5028(8) 0.1108(3)
C17 C 0.6228(10) 0.4495(8) 0.0794(4)
H9 H 0.6319 0.4380 0.0430
C18 C 0.5013(11) 0.4138(10) 0.1021(6)
H10 H 0.4230 0.3793 0.0820
C19 C 0.4998(14) 0.4322(13) 0.1588(6)
H11 H 0.4205 0.4070 0.1769
C20 C 0.6120(11) 0.4851(10) 0.1853(5)
H12 H 0.6082 0.4967 0.2220
Mn5 Mn 0.92644(15) 0.60055(13) 0.20595(5)
S2 S 0.7794(3) 0.4329(3) 0.83052(9)
O6 O 0.8383(10) 0.4309(8) 0.7805(3)
O7 O 0.7977(14) 0.3283(7) 0.8573(4)
O8 O 0.6332(11) 0.4762(11) 0.8256(5)
O16 O 0.8197(11) 0.2365(7) 0.6979(3)
C9 C 0.9697(9) 0.5996(7) 0.9559(3)
C12 C 0.9467(12) 0.6226(11) 0.8459(4)
H7 H 0.9415 0.6298 0.8087
C13 C 0.8815(9) 0.5290(8) 0.8698(3)
C14 C 0.8912(10) 0.5201(8) 0.9243(3)
H8 H 0.8446 0.4598 0.9403
N9 N 0.9619(8) 0.4019(6) 0.6188(3)
N10 N 0.7277(9) 0.4779(7) 0.6629(3)
H29 H 0.71387 0.246975 0.697491
H30 H 0.843228 0.200586 0.66454
S4_2 S 0.1102(3) 0.3441(3) 0.19817(13)
O9_2 O 0.1148(18) 0.3366(12) 0.1448(4)
O10_2 O 0.2474(10) 0.3309(11) 0.2285(6)
O11_2 O 0.0398(9) 0.4440(8) 0.2131(4)
C32_2 C 0.0476(12) 0.1574(9) 0.2544(4)
H19_2 H 0.1436 0.1633 0.2698
S1 S 0.5826(3) 0.1621(2) 0.57683(11)
O3 O 0.5804(8) 0.0670(6) 0.5403(3)
O4 O 0.7286(7) 0.2116(7) 0.5858(3)
O5 O 0.5187(9) 0.1353(7) 0.6252(3)
O14_2 O 0.1647(11) 0.0243(14) 0.3902(5)
O15_2 O 0.1223(11) 0.6753(12) 0.2399(5)
N1 N 0.0876(9) 0.3740(7) 0.5994(3)
N6_2 N 0.6002(8) 0.1395(7) 0.1349(2)
N7_2 N 0.3712(7) 0.0835(6) 0.1909(2)
C1 C 0.4748(11) 0.2659(9) 0.5440(4)
C2 C 0.5253(11) 0.3270(10) 0.5026(4)
H1_2 H 0.6189 0.3122 0.4921
C3_2 C 0.4412(12) 0.4092(9) 0.4766(4)
H2_2 H 0.4776 0.4527 0.4495
C4_2 C 0.2990(11) 0.4265(9) 0.4917(4)
H3_2 H 0.2396 0.4813 0.4738
C5 C 0.2459(10) 0.3660(8) 0.5315(3)
C6 C 0.3317(9) 0.2821(8) 0.5573(4)
H4 H 0.2937 0.2367 0.5834
C7 C 0.1023(9) 0.3843(8) 0.5481(3)
C10_2 C 0.0325(12) 0.3089(9) 0.4318(3)
H5_2 H 0.0856 0.2542 0.4523
C11_2 C 0.0156(15) 0.2996(9) 0.3769(4)
H6_2 H 0.0543 0.2356 0.3609
H16_2 H 0.1177 0.0061 0.1732
C25_2 C 0.2329(10) 0.0320(8) 0.1092(3)
C26_2 C 0.3638(10) 0.0770(8) 0.1382(3)
C27_2 C 0.4933(9) 0.1137(7) 0.2153(3)
C28_2 C 0.6176(10) 0.1312(7) 0.1864(3)
C29_2 C 0.7630(9) 0.1439(7) 0.2096(3)
C30_2 C 0.8196(11) 0.0635(8) 0.2485(3)
H17_2 H 0.7606 0.0042 0.2593
C31_2 C 0.9614(11) 0.0738(10) 0.2701(4)
H18_2 H 0.9982 0.0218 0.2960
C33_2 C 0.9993(9) 0.2323(9) 0.2173(4)
C34_2 C 0.8602(10) 0.2254(7) 0.1938(3)
H20_2 H 0.8297 0.2766 0.1667
C35_2 C 0.4958(9) 0.1301(7) 0.2734(3)
C36_2 C 0.4178(9) 0.0570(7) 0.3021(3)
C37_2 C 0.4149(10) 0.0763(7) 0.3570(3)
C38_2 C 0.4833(13) 0.1663(10) 0.3813(4)
H22_2 H 0.4811 0.1779 0.4181
C39_2 C 0.5571(18) 0.2413(12) 0.3502(4)
H23_2 H 0.6007 0.3056 0.3667
C40_2 C 0.5694(9) 0.2271(7) 0.2977(3)
H24_2 H 0.6230 0.2776 0.2780
H25_2 H 0.0989818 0.74263 0.260508
H26_2 H 0.18321 0.697596 0.211461
S3 S 0.3127(3) 0.9838(2) 0.39417(8)
O1_2 O 0.6420(13) 0.8429(14) 0.5022(10)
O2 O 0.3375(11) 0.7607(7) 0.4995(3)
O12 O 0.3162(16) 0.8760(8) 0.3721(4)
O13 O 0.3822(12) 0.9909(10) 0.4477(3)
C21 C 0.1208(13) 0.9804(10) 0.0288(4)
C24 C 0.1168(12) 0.9984(11) 0.1362(4)
H21 H 0.3674 0.9956 0.2855
H27_2 H 0.66206 0.776059 0.524857
H28_2 H 0.722038 0.897614 0.508215
H31 H 0.35116 0.743247 0.462176
H32_2 H 0.233007 0.767121 0.504122
S2_2 S 0.7794(3) 0.5671(3) 0.33052(9)
O6_2 O 0.8383(10) 0.5691(8) 0.2805(3)
O7_2 O 0.7977(14) 0.6717(7) 0.3573(4)
O8_2 O 0.6332(11) 0.5238(11) 0.3256(5)
O16_2 O 0.8197(11) 0.7635(7) 0.1979(3)
N3_2 N 0.8600(8) 0.4538(7) 0.5335(3)
C8_2 C 0.9781(9) 0.4132(7) 0.5135(3)
C9_2 C 0.9697(9) 0.4004(7) 0.4559(3)
C12_2 C 0.9467(12) 0.3774(11) 0.3459(4)
H7_2 H 0.9415 0.3702 0.3087
C13_2 C 0.8815(9) 0.4710(8) 0.3698(3)
C14_2 C 0.8912(10) 0.4799(8) 0.4243(3)
H8_2 H 0.8446 0.5402 0.4403
C15_2 C 0.8601(10) 0.4528(7) 0.5865(3)
C16_2 C 0.7321(9) 0.4972(8) 0.6108(3)
C17_2 C 0.6228(10) 0.5505(8) 0.5794(4)
H9_2 H 0.6319 0.5620 0.5430
C18_2 C 0.5013(11) 0.5862(10) 0.6021(6)
H10_2 H 0.4230 0.6207 0.5820
C19_2 C 0.4998(14) 0.5678(13) 0.6588(6)
H11_2 H 0.4205 0.5930 0.6769
C20_2 C 0.6120(11) 0.5149(10) 0.6853(5)
H12_2 H 0.6082 0.5033 0.7220
H29_2 H 0.71387 0.753025 0.197491
H30_2 H 0.843228 0.799414 0.16454
S3_2 S 0.3127(3) 0.0162(2) 0.89417(8)
O2_2 O 0.3375(11) 0.2393(7) 0.9995(3)
O12_2 O 0.3162(16) 0.1240(8) 0.8721(4)
O13_2 O 0.3822(12) 0.0091(10) 0.9477(3)
C21_2 C 0.1208(13) 0.0196(10) 0.5288(4)
H13 H 0.1207 0.0252 0.4917
C24_2 C 0.1168(12) 0.0016(11) 0.6362(4)
H21_2 H 0.3674 0.0044 0.7855
H31_2 H 0.35116 0.256753 0.962176
S1_2 S 0.5826(3) 0.8379(2) 0.07683(11)
O3_2 O 0.5804(8) 0.9330(6) 0.0403(3)
O4_2 O 0.7286(7) 0.7884(7) 0.0858(3)
O5_2 O 0.5187(9) 0.8647(7) 0.1252(3)
N1_2 N 0.0876(9) 0.6260(7) 0.0994(3)
C1_2 C 0.4748(11) 0.7341(9) 0.0440(4)
C2_2 C 0.5253(11) 0.6730(10) 0.0026(4)
C5_2 C 0.2459(10) 0.6340(8) 0.0315(3)
C6_2 C 0.3317(9) 0.7179(8) 0.0573(4)
H4_2 H 0.2937 0.7633 0.0834
C7_2 C 0.1023(9) 0.6157(8) 0.0481(3)
C22 C 0.9996(12) 0.0526(11) 0.5521(5)
H14 H 0.9174 0.0786 0.5312
C23 C 0.9979(13) 0.0475(16) 0.6064(5)
H15 H 0.9173 0.0748 0.6231
H13_2 H 0.1207 0.9748 0.9917
C22_2 C 0.9996(12) 0.9474(11) 0.0521(5)
H14_2 H 0.9174 0.9214 0.0312
C23_2 C 0.9979(13) 0.9525(16) 0.1064(5)
H15_2 H 0.9173 0.9252 0.1231
loop_
_geom_bond_atom_site_label_1
_geom_bond_atom_site_label_2
_geom_bond_site_symmetry_1
_geom_bond_site_symmetry_2
S4 O9 1_555 1_555
O10 S4 1_555 1_555
O11 S4 1_555 1_555
H19 C32 1_555 1_555
Mn1 O1 1_555 1_555
N11 Mn1 1_555 1_555
N12 Mn1 1_555 1_555
O1 H27 1_555 1_555
O1 H28 1_555 1_555
N5 N6 1_555 1_555
N6 C28 1_555 1_555
N7 C26 1_555 1_555
H2 C3 1_555 1_555
C4 C3 1_555 1_555
H3 C4 1_555 1_555
H5 C10 1_555 1_555
C11 C10 1_555 1_555
H6 C11 1_555 1_555
C25 N8 1_555 1_555
C26 N5 1_555 1_555
C27 N7 1_555 1_555
C28 C27 1_555 1_555
C29 C28 1_555 1_555
C30 C29 1_555 1_555
H17 C30 1_555 1_555
C31 C30 1_555 1_555
H18 C31 1_555 1_555
C34 C29 1_555 1_555
H20 C34 1_555 1_555
C35 C27 1_555 1_555
C36 C35 1_555 1_555
C38 C37 1_555 1_555
H22 C38 1_555 1_555
C39 C38 1_555 1_555
H23 C39 1_555 1_555
C40 C35 1_555 1_555
H24 C40 1_555 1_555
Mn3 N5 1_555 1_555
N8 Mn3 1_555 1_555
C25 C26 1_555 1_555
C33 C34 1_555 1_555
C36 C37 1_555 1_555
C39 C40 1_555 1_555
O15 H25 1_555 1_555
O15 H26 1_555 1_555
N2 C15 1_555 1_555
N3 C8 1_555 1_555
N4 C16 1_555 1_555
C15 N3 1_555 1_555
C16 C15 1_555 1_555
C17 C16 1_555 1_555
H9 C17 1_555 1_555
C18 C17 1_555 1_555
H10 C18 1_555 1_555
C19 C18 1_555 1_555
H11 C19 1_555 1_555
C20 N4 1_555 1_555
H12 C20 1_555 1_555
Mn5 N2 1_555 1_555
N4 Mn5 1_555 1_555
C19 C20 1_555 1_555
Mn4 O6 1_555 1_555
S2 O6 1_555 1_555
O7 S2 1_555 1_555
O8 S2 1_555 1_555
O16 Mn4 1_555 1_555
H7 C12 1_555 1_555
C13 S2 1_555 1_555
C14 C9 1_555 1_555
H8 C14 1_555 1_555
N9 Mn4 1_555 1_555
N10 Mn4 1_555 1_555
C12 C13 1_555 1_555
C13 C14 1_555 1_555
O16 H29 1_555 1_555
O16 H30 1_555 1_555
S4_2 O9_2 1_555 1_555
O10_2 S4_2 1_555 1_555
O11_2 S4_2 1_555 1_555
H19_2 C32_2 1_555 1_555
S1 O3 1_555 1_555
O4 S1 1_555 1_555
O5 S1 1_555 1_555
N11 N6_2 1_555 1_555
N6_2 C28_2 1_555 1_555
N7_2 C26_2 1_555 1_555
C1 S1 1_555 1_555
C2 C1 1_555 1_555
H1_2 C2 1_555 1_555
C3_2 C2 1_555 1_555
H2_2 C3_2 1_555 1_555
C4_2 C3_2 1_555 1_555
H3_2 C4_2 1_555 1_555
C5 C4_2 1_555 1_555
C6 C1 1_555 1_555
H4 C6 1_555 1_555
C7 N1 1_555 1_555
H5_2 C10_2 1_555 1_555
C11_2 C10_2 1_555 1_555
H6_2 C11_2 1_555 1_555
C25_2 N12 1_555 1_555
C26_2 N11 1_555 1_555
C27_2 N7_2 1_555 1_555
C28_2 C27_2 1_555 1_555
C29_2 C28_2 1_555 1_555
C30_2 C29_2 1_555 1_555
H17_2 C30_2 1_555 1_555
C31_2 C30_2 1_555 1_555
H18_2 C31_2 1_555 1_555
C34_2 C29_2 1_555 1_555
H20_2 C34_2 1_555 1_555
C35_2 C27_2 1_555 1_555
C36_2 C35_2 1_555 1_555
C38_2 C37_2 1_555 1_555
H22_2 C38_2 1_555 1_555
C39_2 C38_2 1_555 1_555
H23_2 C39_2 1_555 1_555
C40_2 C35_2 1_555 1_555
H24_2 C40_2 1_555 1_555
C5 C6 1_555 1_555
C5 C7 1_555 1_555
C25_2 C26_2 1_555 1_555
C33_2 C34_2 1_555 1_555
C36_2 C37_2 1_555 1_555
C39_2 C40_2 1_555 1_555
O15_2 H25_2 1_555 1_555
O15_2 H26_2 1_555 1_555
Mn3 O1_2 1_555 1_555
S3 O12 1_555 1_555
O2 Mn3 1_555 1_555
O13 Mn3 1_555 1_555
S3 O13 1_555 1_555
O1_2 H27_2 1_555 1_555
O1_2 H28_2 1_555 1_555
O2 H31 1_555 1_555
O2 H32_2 1_555 1_555
Mn5 O6_2 1_555 1_555
S2_2 O6_2 1_555 1_555
O7_2 S2_2 1_555 1_555
O8_2 S2_2 1_555 1_555
O16_2 Mn5 1_555 1_555
N9 C15_2 1_555 1_555
N3_2 C8_2 1_555 1_555
N10 C16_2 1_555 1_555
C9_2 C8_2 1_555 1_555
H7_2 C12_2 1_555 1_555
C13_2 S2_2 1_555 1_555
C14_2 C9_2 1_555 1_555
H8_2 C14_2 1_555 1_555
C15_2 N3_2 1_555 1_555
C16_2 C15_2 1_555 1_555
C17_2 C16_2 1_555 1_555
H9_2 C17_2 1_555 1_555
C18_2 C17_2 1_555 1_555
H10_2 C18_2 1_555 1_555
C19_2 C18_2 1_555 1_555
H11_2 C19_2 1_555 1_555
C20_2 N10 1_555 1_555
H12_2 C20_2 1_555 1_555
C12_2 C13_2 1_555 1_555
C13_2 C14_2 1_555 1_555
C19_2 C20_2 1_555 1_555
O16_2 H29_2 1_555 1_555
O16_2 H30_2 1_555 1_555
S3_2 O12_2 1_555 1_555
C21_2 H13 1_555 1_555
S3_2 O13_2 1_555 1_555
O2_2 H31_2 1_555 1_555
S1_2 O3_2 1_555 1_555
O4_2 S1_2 1_555 1_555
O5_2 S1_2 1_555 1_555
C1_2 S1_2 1_555 1_555
C2_2 C1_2 1_555 1_555
C6_2 C1_2 1_555 1_555
H4_2 C6_2 1_555 1_555
C7_2 N1_2 1_555 1_555
C5_2 C6_2 1_555 1_555
C5_2 C7_2 1_555 1_555
H14 C22 1_555 1_555
C23 C22 1_555 1_555
H15 C23 1_555 1_555
H14_2 C22_2 1_555 1_555
C23_2 C22_2 1_555 1_555
H15_2 C23_2 1_555 1_555

#END
