
###############################################################################
#
# This file contains modified crystal structure data generated from the
# MOF subset of the Cambridge Structural Database (CSD) v543 
# hosted by the Cambridge Crystallographic Data Centre (CCDC).
#
# This work is licensed under the Creative Commons
# Attribution-NonCommercial-ShareAlike 4.0 International License.
# To view a copy of this license, visit
# http://creativecommons.org/licenses/by-nc-sa/4.0/
# or send a letter to
# Creative Commons, PO Box 1866, Mountain View, CA 94042, USA.
#
# CIF created using the CSD Python API on 29 September 2022
# The structure has been converted into the P1 space group
# The structure has a 3D framework
# The original CSD entry ICIZAV is in the triclinic crystal system
# The framework has been calculated to contain at least 10.0% void space
# The void calculation uses a probe of radius 1.32A, grid spacing 0.4
#
###############################################################################

data_ICIZAV
_chemical_formula_moiety         '(C20 H16 Cu2 N4 O8 P4)n'
_symmetry_cell_setting           triclinic
_symmetry_space_group_name_H-M   'P 1'
_symmetry_Int_Tables_number      1
_space_group_name_Hall           'P 1'
loop_
_symmetry_equiv_pos_site_id
_symmetry_equiv_pos_as_xyz
1 x,y,z
_cell_length_a                   7.5074(8)
_cell_length_b                   9.2012(8)
_cell_length_c                   11.6139(13)
_cell_angle_alpha                100.368(11)
_cell_angle_beta                 104.665(10)
_cell_angle_gamma                94.691(9)
_cell_volume                     756.58
loop_
_atom_site_label
_atom_site_type_symbol
_atom_site_fract_x
_atom_site_fract_y
_atom_site_fract_z
C9 C 0.333(2) 0.1119(16) 0.0946(12)
H7 H 0.3995 0.1871 0.1597
Cu1 Cu 0.1605(2) 0.12120(15) 0.51184(13)
Cu2 Cu 0.6413(2) 0.07526(18) 0.72147(14)
P2 P 0.0345(4) 0.0803(3) 0.7391(3)
O4 O 0.1808(12) 0.1529(9) 0.6891(7)
C6 C 0.1596(18) 0.0382(14) 0.8829(11)
C10 C 0.260(2) 0.1480(15) 0.9830(12)
H8 H 0.2793 0.2462 0.9745
O7 O 0.0735(12) 0.0689(9) 0.3339(7)
N3 N 0.2006(15) 0.3375(10) 0.5116(9)
O8 O 0.5478(13) 0.1561(9) 0.5760(8)
O9 O 0.8993(12) 0.1883(9) 0.7688(8)
N4 N 0.6901(16) 0.0267(13) 0.8878(9)
N2 N 0.3099(16) 0.9733(13) 0.1122(9)
C8 C 0.221(2) 0.8654(15) 0.0161(12)
H6 H 0.2099 0.7674 0.0264
Cu7 Cu 0.3587(2) 0.92474(18) 0.27853(14)
P1 P 0.3532(4) 0.8361(3) 0.5241(3)
O1 O 0.1745(12) 0.9091(9) 0.5063(7)
O2 O 0.4863(12) 0.8879(9) 0.6507(7)
O3 O 0.4522(13) 0.8439(9) 0.4240(8)
C1 C 0.2838(17) 0.6410(12) 0.5162(11)
C2 C 0.2851(19) 0.5314(13) 0.4151(11)
H1 H 0.3150 0.5581 0.3480
C3 C 0.2405(18) 0.3809(14) 0.4171(12)
H2 H 0.2388 0.3088 0.3494
C4 C 0.196(2) 0.4425(14) 0.6089(11)
H3 H 0.1651 0.4129 0.6745
C5 C 0.238(2) 0.5924(14) 0.6125(12)
H4 H 0.2347 0.6619 0.6806
C7 C 0.144(2) 0.8943(15) 0.9017(11)
H5 H 0.0823 0.8162 0.8375
O5 O 0.9265(12) 0.9311(9) 0.6661(7)
Cu4 Cu 0.8395(2) 0.87880(15) 0.48816(13)
O6 O 0.1007(12) 0.8117(9) 0.2312(8)
P1_2 P 0.6468(4) 0.1639(3) 0.4759(3)
O1_2 O 0.8255(12) 0.0909(9) 0.4937(7)
O2_2 O 0.5137(12) 0.1121(9) 0.3493(7)
N1 N 0.7994(15) 0.6625(10) 0.4884(9)
C1_2 C 0.7162(17) 0.3590(12) 0.4838(11)
C2_2 C 0.7149(19) 0.4686(13) 0.5849(11)
H1_2 H 0.6850 0.4419 0.6520
C3_2 C 0.7595(18) 0.6191(14) 0.5829(12)
H2_2 H 0.7612 0.6912 0.6506
C4_2 C 0.804(2) 0.5575(14) 0.3911(11)
H3_2 H 0.8349 0.5871 0.3255
C5_2 C 0.762(2) 0.4076(14) 0.3875(12)
H4_2 H 0.7653 0.3381 0.3194
C7_2 C 0.856(2) 0.1057(15) 0.0983(11)
H5_2 H 0.9177 0.1838 0.1625
C8_2 C 0.779(2) 0.1346(15) 0.9839(12)
H6_2 H 0.7901 0.2326 0.9736
P2_2 P 0.9655(4) 0.9197(3) 0.2609(3)
O4_2 O 0.8192(12) 0.8471(9) 0.3109(7)
C6_2 C 0.8404(18) 0.9618(14) 0.1171(11)
C10_2 C 0.740(2) 0.8520(15) 0.0170(12)
H8_2 H 0.7207 0.7538 0.0255
C9_2 C 0.667(2) 0.8881(16) 0.9054(12)
H7_2 H 0.6005 0.8129 0.8403
loop_
_geom_bond_atom_site_label_1
_geom_bond_atom_site_label_2
_geom_bond_site_symmetry_1
_geom_bond_site_symmetry_2
H7 C9 1_555 1_555
P2 O4 1_555 1_555
O4 Cu1 1_555 1_555
C6 P2 1_555 1_555
C10 C6 1_555 1_555
H8 C10 1_555 1_555
O7 Cu1 1_555 1_555
N3 Cu1 1_555 1_555
O8 Cu2 1_555 1_555
O9 Cu2 1_555 1_555
N4 Cu2 1_555 1_555
N2 C8 1_555 1_555
H6 C8 1_555 1_555
Cu7 N2 1_555 1_555
P1 O1 1_555 1_555
O2 P1 1_555 1_555
O3 P1 1_555 1_555
N3 C3 1_555 1_555
C1 P1 1_555 1_555
C2 C1 1_555 1_555
H1 C2 1_555 1_555
C3 C2 1_555 1_555
H2 C3 1_555 1_555
C4 N3 1_555 1_555
H3 C4 1_555 1_555
C5 C1 1_555 1_555
H4 C5 1_555 1_555
H5 C7 1_555 1_555
Cu7 O3 1_555 1_555
C4 C5 1_555 1_555
Cu4 O5 1_555 1_555
Cu7 O6 1_555 1_555
P1_2 O1_2 1_555 1_555
O2_2 P1_2 1_555 1_555
O8 P1_2 1_555 1_555
N1 C3_2 1_555 1_555
C1_2 P1_2 1_555 1_555
C2_2 C1_2 1_555 1_555
H1_2 C2_2 1_555 1_555
C3_2 C2_2 1_555 1_555
H2_2 C3_2 1_555 1_555
C4_2 N1 1_555 1_555
H3_2 C4_2 1_555 1_555
C5_2 C1_2 1_555 1_555
H4_2 C5_2 1_555 1_555
H5_2 C7_2 1_555 1_555
Cu4 N1 1_555 1_555
C4_2 C5_2 1_555 1_555
N4 C8_2 1_555 1_555
H6_2 C8_2 1_555 1_555
P2_2 O4_2 1_555 1_555
O4_2 Cu4 1_555 1_555
C6_2 P2_2 1_555 1_555
C10_2 C6_2 1_555 1_555
H8_2 C10_2 1_555 1_555
H7_2 C9_2 1_555 1_555

#END
