
###############################################################################
#
# This file contains modified crystal structure data generated from the
# MOF subset of the Cambridge Structural Database (CSD) v543 
# hosted by the Cambridge Crystallographic Data Centre (CCDC).
#
# This work is licensed under the Creative Commons
# Attribution-NonCommercial-ShareAlike 4.0 International License.
# To view a copy of this license, visit
# http://creativecommons.org/licenses/by-nc-sa/4.0/
# or send a letter to
# Creative Commons, PO Box 1866, Mountain View, CA 94042, USA.
#
# CIF created using the CSD Python API on 29 September 2022
# The structure has been converted into the P1 space group
# The structure has a 3D framework
# The original CSD entry ICODIP01 is in the cubic crystal system
# The original CSD entry ICODIP01 is in a Sohncke space group
# The framework has been calculated to contain at least 10.0% void space
# The void calculation uses a probe of radius 1.32A, grid spacing 0.4
#
###############################################################################

data_ICODIP01
_chemical_formula_moiety         '(C864 H384 N192 O384 Zn27)n'
_symmetry_cell_setting           triclinic
_symmetry_space_group_name_H-M   'P 1'
_symmetry_Int_Tables_number      1
_space_group_name_Hall           'P 1'
loop_
_symmetry_equiv_pos_site_id
_symmetry_equiv_pos_as_xyz
1 x,y,z
_cell_length_a                   36.044(5)
_cell_length_b                   36.044(5)
_cell_length_c                   36.044(5)
_cell_angle_alpha                90
_cell_angle_beta                 90
_cell_angle_gamma                90
_cell_volume                     46827.3
loop_
_atom_site_label
_atom_site_type_symbol
_atom_site_fract_x
_atom_site_fract_y
_atom_site_fract_z
Zn5 Zn -0.0000 0.2500 0.89072(3)
Zn1 Zn 0.60928(3) 0.0000 0.7500
Zn2 Zn 0.62631(2) 0.12369(2) 0.8750
O1 O 0.63533(11) 0.04181(11) 0.77492(12)
N1 N 0.74303(14) 0.23053(14) 0.70268(14)
C1 C 0.67462(17) 0.09423(16) 0.76717(16)
C2 C 0.74365(16) 0.20448(16) 0.72942(16)
O2 O 0.68036(14) 0.12747(15) 0.88139(12)
O3 O 0.57700(12) 0.00922(12) 0.70699(11)
C4 C 0.52456(18) 0.03802(18) 0.67907(17)
C5 C 0.47177(18) 0.06631(18) 0.65034(18)
N3 N 0.71669(16) 0.17867(14) 0.72818(14)
H1 H 0.7041 0.1783 0.7079
C6 C 0.49931(17) 0.01261(17) 0.62181(17)
O4 O 0.55058(16) 0.05526(16) 0.73673(15)
O5 O 0.41261(15) 0.08907(14) 0.63209(14)
O6 O 0.65886(17) 0.05193(15) 0.71823(14)
C7 C 0.47130(19) 0.03980(18) 0.62249(18)
H2 H 0.4528 0.0400 0.6045
C8 C 0.52564(18) 0.01187(18) 0.64980(18)
C9 C 0.71134(19) 0.15657(19) 0.79193(18)
H4 H 0.7239 0.1773 0.8009
C10 C 0.69849(19) 0.13046(19) 0.81653(17)
O7 O 0.44788(17) 0.12461(16) 0.66631(16)
C11 C 0.65528(17) 0.06160(18) 0.75228(18)
C12 C 0.68902(16) 0.11973(18) 0.74192(17)
H6 H 0.6873 0.1149 0.7166
C13 C 0.67909(17) 0.10035(17) 0.80353(18)
H7 H 0.6688 0.0838 0.8204
C14 C 0.70609(16) 0.15273(17) 0.75419(18)
C15 C 0.49767(18) 0.06539(18) 0.67826(19)
H8 H 0.4971 0.0833 0.6968
C16 C 0.55252(18) 0.03364(19) 0.71066(17)
C17 C 0.4413(2) 0.0962(2) 0.6499(2)
C18 C 0.7043(3) 0.1375(3) 0.8588(2)
O8 O 0.7380(3) 0.1469(3) 0.86683(17)
Zn4 Zn 0.7500 0.39072(3) 0.5000
Zn5_2 Zn 1.0000 0.2500 0.89072(3)
Zn6 Zn 0.2500 0.10928(3) 0.5000
Zn8 Zn 0.3750 0.12631(2) 0.62369(2)
Zn9 Zn 0.87631(2) 0.3750 0.87369(2)
Zn10 Zn 0.6250 0.37369(2) 0.62369(2)
O9 O 0.72508(12) 0.36467(11) 0.54181(11)
O10 O 0.95819(11) 0.27492(12) 0.86467(11)
N5 N 0.79732(14) 0.25697(14) 0.73053(14)
N6 N 0.76947(14) 0.20268(14) 0.75697(14)
C19 C 0.73283(16) 0.32538(17) 0.59423(16)
C20 C 0.90577(16) 0.26717(16) 0.82538(17)
C21 C 0.77058(16) 0.25635(16) 0.70448(16)
C22 C 0.79552(16) 0.22942(16) 0.75635(16)
O12 O 0.61861(12) 0.31964(14) 0.62747(15)
O13 O 0.87253(15) 0.38139(12) 0.81964(14)
O14 O 0.62253(15) 0.06964(14) 0.86861(12)
O15 O 0.29301(11) 0.07700(12) 0.49078(12)
C25 C 0.32093(17) 0.02456(18) 0.46198(18)
N9 N 0.77182(14) 0.28331(16) 0.67867(14)
N10 N 0.82133(14) 0.22818(14) 0.78331(16)
H9 H 0.7921 0.2959 0.6783
H10 H 0.8217 0.2079 0.7959
O18 O 0.26327(15) 0.05058(16) 0.44474(16)
O22 O 0.61791(14) 0.16093(14) 0.83739(15)
O23 O 0.58907(14) 0.13209(14) 0.91261(15)
O24 O 0.78177(14) 0.34114(17) 0.55193(15)
O25 O 0.94807(15) 0.21823(14) 0.84114(17)
C33 C 0.35020(18) 0.02564(18) 0.48813(18)
H13 H 0.3506 0.0442 0.5060
C35 C 0.70807(18) 0.28866(19) 0.65657(19)
C36 C 0.84343(19) 0.29193(18) 0.78866(19)
H15 H 0.6991 0.2761 0.6773
H16 H 0.8227 0.3009 0.7761
C37 C 0.68347(17) 0.30151(19) 0.63046(19)
C38 C 0.86954(19) 0.31653(17) 0.80151(19)
N11 N 0.40590(14) 0.00304(15) 0.51467(14)
H17 H 0.4035 0.0226 0.5281
C39 C 0.74772(18) 0.34472(17) 0.56160(18)
C40 C 0.93840(18) 0.25228(18) 0.84472(17)
C41 C 0.75808(17) 0.31098(16) 0.61973(18)
C42 C 0.88027(18) 0.24192(17) 0.81098(16)
H19 H 0.7834 0.3127 0.6149
H20 H 0.8851 0.2166 0.8127
C43 C 0.69647(18) 0.32091(17) 0.60035(17)
C44 C 0.89965(17) 0.30353(18) 0.82091(17)
H21 H 0.6796 0.3312 0.5838
H22 H 0.9162 0.3204 0.8312
C45 C 0.74581(18) 0.29391(16) 0.65273(17)
C46 C 0.84727(17) 0.25419(18) 0.79391(16)
C49 C 0.28934(17) 0.05252(18) 0.46636(19)
C53 C 0.6412(2) 0.2957(3) 0.6375(3)
C54 C 0.8625(3) 0.3588(2) 0.7957(3)
O28 O 0.63317(17) 0.2620(3) 0.6469(3)
O29 O 0.8531(3) 0.36683(17) 0.7620(3)
Zn1_2 Zn 0.60928(3) 1.0000 0.7500
N2 N 0.45377(14) 0.99590(15) 0.55462(15)
C3 C 0.48231(18) 0.97604(17) 0.56473(17)
H3 H 0.5442 0.9940 0.6494
N4 N 0.50304(15) 0.98533(14) 0.59410(14)
H5 H 0.5226 0.9719 0.5965
Zn3 Zn 0.5000 0.7500 0.39072(3)
Zn7 Zn 0.37631(2) 0.8750 0.37369(2)
Zn11 Zn 0.62631(2) 0.87631(2) 0.6250
O11 O 0.63533(11) 0.95819(11) 0.72508(12)
N7 N 0.44538(15) 0.95377(14) 0.50410(15)
N8 N 0.49590(15) 0.94538(15) 0.54623(14)
O16 O 0.50922(12) 0.79301(11) 0.42300(12)
O17 O 0.57700(12) 0.99078(12) 0.79301(11)
C23 C 0.43527(17) 0.98231(18) 0.52396(17)
C24 C 0.47604(17) 0.93527(17) 0.51769(18)
C26 C 0.53802(18) 0.82093(17) 0.47544(18)
C27 C 0.34966(18) 0.97177(18) 0.43369(18)
C28 C 0.56631(18) 0.84966(18) 0.52823(18)
C29 C 0.37819(17) 0.99931(17) 0.48739(17)
C30 C 0.51261(17) 0.87819(17) 0.50069(17)
O19 O 0.55526(16) 0.76327(15) 0.44942(16)
O20 O 0.36791(14) 0.91261(15) 0.41093(14)
O21 O 0.58907(14) 0.86791(14) 0.58739(15)
C31 C 0.37751(18) 0.97130(19) 0.46020(18)
C32 C 0.53980(18) 0.87751(18) 0.52870(19)
H11 H 0.3955 0.9528 0.4600
H12 H 0.5400 0.8955 0.5472
C34 C 0.51187(18) 0.85020(18) 0.47436(18)
H14 H 0.4940 0.8506 0.4558
O26 O 0.33369(16) 0.94788(17) 0.37539(16)
O27 O 0.62461(16) 0.83369(16) 0.55212(17)
N12 N 0.48533(14) 0.90590(14) 0.49696(15)
H18 H 0.4719 0.9035 0.4774
C47 C 0.32174(19) 0.99767(18) 0.43461(18)
C48 C 0.56539(18) 0.82174(19) 0.50233(18)
H23 H 0.3032 0.9971 0.4167
H24 H 0.5833 0.8032 0.5029
C50 C 0.53364(19) 0.78934(17) 0.44748(18)
C51 C 0.3501(2) 0.9413(2) 0.4038(2)
C52 C 0.5962(2) 0.8501(2) 0.5587(2)
Zn1_3 Zn 0.39072(3) 0.5000 0.7500
Zn2_2 Zn 0.37369(2) 0.37631(2) 0.8750
O1_2 O 0.36467(11) 0.45819(11) 0.77492(12)
N1_2 N 0.25697(14) 0.26947(14) 0.70268(14)
C1_2 C 0.32538(17) 0.40577(16) 0.76717(16)
C2_2 C 0.25635(16) 0.29552(16) 0.72942(16)
O2_2 O 0.31964(14) 0.37253(15) 0.88139(12)
N2_2 N 0.54623(14) 0.50410(15) 0.55462(15)
O3_2 O 0.42300(12) 0.49078(12) 0.70699(11)
C3_2 C 0.51769(18) 0.52396(17) 0.56473(17)
C4_2 C 0.47544(18) 0.46198(18) 0.67907(17)
C5_2 C 0.52823(18) 0.43369(18) 0.65034(18)
N3_2 N 0.28331(16) 0.32133(14) 0.72818(14)
H1_2 H 0.2959 0.3217 0.7079
C6_2 C 0.50069(17) 0.48739(17) 0.62181(17)
O4_2 O 0.44942(16) 0.44474(16) 0.73673(15)
O5_2 O 0.58739(15) 0.41093(14) 0.63209(14)
O6_2 O 0.34114(17) 0.44807(15) 0.71823(14)
C7_2 C 0.52870(19) 0.46020(18) 0.62249(18)
H2_2 H 0.5472 0.4600 0.6045
C8_2 C 0.47436(18) 0.48813(18) 0.64980(18)
H3_2 H 0.4558 0.5060 0.6494
C9_2 C 0.28866(19) 0.34343(19) 0.79193(18)
H4_2 H 0.2761 0.3227 0.8009
C10_2 C 0.30151(19) 0.36954(19) 0.81653(17)
O7_2 O 0.55212(17) 0.37539(16) 0.66631(16)
N4_2 N 0.49696(15) 0.51467(14) 0.59410(14)
H5_2 H 0.4774 0.5281 0.5965
C11_2 C 0.34472(17) 0.43840(18) 0.75228(18)
C12_2 C 0.31098(16) 0.38027(18) 0.74192(17)
H6_2 H 0.3127 0.3851 0.7166
C13_2 C 0.32091(17) 0.39965(17) 0.80353(18)
H7_2 H 0.3312 0.4162 0.8204
C14_2 C 0.29391(16) 0.34727(17) 0.75419(18)
C15_2 C 0.50233(18) 0.43461(18) 0.67826(19)
H8_2 H 0.5029 0.4167 0.6968
C16_2 C 0.44748(18) 0.46636(19) 0.71066(17)
C17_2 C 0.5587(2) 0.4038(2) 0.6499(2)
C18_2 C 0.2957(3) 0.3625(3) 0.8588(2)
O8_2 O 0.2620(3) 0.3531(3) 0.86683(17)
Zn7_2 Zn 0.62369(2) 0.6250 0.37369(2)
Zn9_2 Zn 0.12369(2) 0.1250 0.87369(2)
Zn11_2 Zn 0.37369(2) 0.62369(2) 0.6250
O9_2 O 0.27492(12) 0.13533(11) 0.54181(11)
O10_2 O 0.04181(11) 0.22508(12) 0.86467(11)
O11_2 O 0.36467(11) 0.54181(11) 0.72508(12)
N5_2 N 0.20268(14) 0.24303(14) 0.73053(14)
N6_2 N 0.23053(14) 0.29732(14) 0.75697(14)
C19_2 C 0.26717(16) 0.17462(17) 0.59423(16)
C20_2 C 0.09423(16) 0.23283(16) 0.82538(17)
C21_2 C 0.22942(16) 0.24365(16) 0.70448(16)
C22_2 C 0.20448(16) 0.27058(16) 0.75635(16)
O12_2 O 0.38139(12) 0.18036(14) 0.62747(15)
O13_2 O 0.12747(15) 0.11861(12) 0.81964(14)
O14_2 O 0.37747(15) 0.43036(14) 0.86861(12)
N7_2 N 0.55462(15) 0.54623(14) 0.50410(15)
N8_2 N 0.50410(15) 0.55462(15) 0.54623(14)
O15_2 O 0.70699(11) 0.42300(12) 0.49078(12)
O16_2 O 0.49078(12) 0.70699(11) 0.42300(12)
O17_2 O 0.42300(12) 0.50922(12) 0.79301(11)
C23_2 C 0.56473(17) 0.51769(18) 0.52396(17)
C24_2 C 0.52396(17) 0.56473(17) 0.51769(18)
C25_2 C 0.67907(17) 0.47544(18) 0.46198(18)
C26_2 C 0.46198(18) 0.67907(17) 0.47544(18)
C27_2 C 0.65034(18) 0.52823(18) 0.43369(18)
C28_2 C 0.43369(18) 0.65034(18) 0.52823(18)
N9_2 N 0.22818(14) 0.21669(16) 0.67867(14)
N10_2 N 0.17867(14) 0.27182(14) 0.78331(16)
H9_2 H 0.2079 0.2041 0.6783
H10_2 H 0.1783 0.2921 0.7959
C29_2 C 0.62181(17) 0.50069(17) 0.48739(17)
C30_2 C 0.48739(17) 0.62181(17) 0.50069(17)
O18_2 O 0.73673(15) 0.44942(16) 0.44474(16)
O19_2 O 0.44474(16) 0.73673(15) 0.44942(16)
O20_2 O 0.63209(14) 0.58739(15) 0.41093(14)
O21_2 O 0.41093(14) 0.63209(14) 0.58739(15)
O22_2 O 0.38209(14) 0.33907(14) 0.83739(15)
O23_2 O 0.41093(14) 0.36791(14) 0.91261(15)
O24_2 O 0.21823(14) 0.15886(17) 0.55193(15)
O25_2 O 0.05193(15) 0.28177(14) 0.84114(17)
C31_2 C 0.62249(18) 0.52870(19) 0.46020(18)
C32_2 C 0.46020(18) 0.62249(18) 0.52870(19)
H11_2 H 0.6045 0.5472 0.4600
H12_2 H 0.4600 0.6045 0.5472
C33_2 C 0.64980(18) 0.47436(18) 0.48813(18)
C34_2 C 0.48813(18) 0.64980(18) 0.47436(18)
H13_2 H 0.6494 0.4558 0.5060
H14_2 H 0.5060 0.6494 0.4558
C35_2 C 0.29193(18) 0.21134(19) 0.65657(19)
C36_2 C 0.15657(19) 0.20807(18) 0.78866(19)
H15_2 H 0.3009 0.2239 0.6773
H16_2 H 0.1773 0.1991 0.7761
C37_2 C 0.31653(17) 0.19849(19) 0.63046(19)
C38_2 C 0.13046(19) 0.18347(17) 0.80151(19)
O26_2 O 0.66631(16) 0.55212(17) 0.37539(16)
O27_2 O 0.37539(16) 0.66631(16) 0.55212(17)
N11_2 N 0.59410(14) 0.49696(15) 0.51467(14)
N12_2 N 0.51467(14) 0.59410(14) 0.49696(15)
H17_2 H 0.5965 0.4774 0.5281
H18_2 H 0.5281 0.5965 0.4774
C39_2 C 0.25228(18) 0.15528(17) 0.56160(18)
C40_2 C 0.06160(18) 0.24772(18) 0.84472(17)
C41_2 C 0.24192(17) 0.18902(16) 0.61973(18)
C42_2 C 0.11973(18) 0.25808(17) 0.81098(16)
H19_2 H 0.2166 0.1873 0.6149
H20_2 H 0.1149 0.2834 0.8127
C43_2 C 0.30353(18) 0.17909(17) 0.60035(17)
C44_2 C 0.10035(17) 0.19647(18) 0.82091(17)
H21_2 H 0.3204 0.1688 0.5838
H22_2 H 0.0838 0.1796 0.8312
C45_2 C 0.25419(18) 0.20609(16) 0.65273(17)
C46_2 C 0.15273(17) 0.24581(18) 0.79391(16)
C47_2 C 0.67826(19) 0.50233(18) 0.43461(18)
C48_2 C 0.43461(18) 0.67826(19) 0.50233(18)
H23_2 H 0.6968 0.5029 0.4167
H24_2 H 0.4167 0.6968 0.5029
C49_2 C 0.71066(17) 0.44748(18) 0.46636(19)
C50_2 C 0.46636(19) 0.71066(17) 0.44748(18)
C51_2 C 0.6499(2) 0.5587(2) 0.4038(2)
C52_2 C 0.4038(2) 0.6499(2) 0.5587(2)
C53_2 C 0.3588(2) 0.2043(3) 0.6375(3)
C54_2 C 0.1375(3) 0.1412(2) 0.7957(3)
O28_2 O 0.36683(17) 0.2380(3) 0.6469(3)
O29_2 O 0.1469(3) 0.13317(17) 0.7620(3)
Zn5_3 Zn -0.0000 0.7500 0.60928(3)
Zn3_2 Zn 0.5000 0.2500 0.10928(3)
Zn7_3 Zn 0.37631(2) 0.1250 0.12631(2)
O16_3 O 0.50922(12) 0.20699(11) 0.07700(12)
C26_3 C 0.53802(18) 0.17907(17) 0.02456(18)
C27_3 C 0.34966(18) 0.02823(18) 0.06631(18)
C29_3 C 0.37819(17) 0.00069(17) 0.01261(17)
O19_3 O 0.55526(16) 0.23673(15) 0.05058(16)
O20_3 O 0.36791(14) 0.08739(15) 0.08907(14)
C31_3 C 0.37751(18) 0.02870(19) 0.03980(18)
H11_3 H 0.3955 0.0472 0.0400
C34_3 C 0.51187(18) 0.14980(18) 0.02564(18)
H14_3 H 0.4940 0.1494 0.0442
O26_3 O 0.33369(16) 0.05212(17) 0.12461(16)
N12_3 N 0.48533(14) 0.09410(14) 0.00304(15)
H18_3 H 0.4719 0.0965 0.0226
C47_3 C 0.32174(19) 0.00233(18) 0.06539(18)
H23_3 H 0.3032 0.0029 0.0833
C50_3 C 0.53364(19) 0.21066(17) 0.05252(18)
C51_3 C 0.3501(2) 0.0587(2) 0.0962(2)
N2_3 N 0.45377(14) 0.00410(15) 0.94538(15)
C3_3 C 0.48231(18) 0.02396(17) 0.93527(17)
H3_3 H 0.5442 0.0060 0.8506
N4_3 N 0.50304(15) 0.01467(14) 0.90590(14)
H5_3 H 0.5226 0.0281 0.9035
N7_3 N 0.44538(15) 0.04623(14) 0.99590(15)
N8_3 N 0.49590(15) 0.05462(15) 0.95377(14)
C23_3 C 0.43527(17) 0.01769(18) 0.97604(17)
C24_3 C 0.47604(17) 0.06473(17) 0.98231(18)
C28_3 C 0.56631(18) 0.15034(18) 0.97177(18)
C30_3 C 0.51261(17) 0.12181(17) 0.99931(17)
C32_3 C 0.53980(18) 0.12249(18) 0.97130(19)
H12_3 H 0.5400 0.1045 0.9528
O27_3 O 0.62461(16) 0.16631(16) 0.94788(17)
C48_3 C 0.56539(18) 0.17826(19) 0.99767(18)
H24_3 H 0.5833 0.1968 0.9971
C52_3 C 0.5962(2) 0.1499(2) 0.9413(2)
Zn4_2 Zn 0.7500 0.60928(3) 0.0000
Zn6_2 Zn 0.2500 0.89072(3) 0.0000
O15_3 O 0.29301(11) 0.92300(12) 0.00922(12)
C25_3 C 0.32093(17) 0.97544(18) 0.03802(18)
O18_3 O 0.26327(15) 0.94942(16) 0.05526(16)
C33_3 C 0.35020(18) 0.97436(18) 0.01187(18)
C49_3 C 0.28934(17) 0.94748(18) 0.03364(19)
N1_3 N 0.74303(14) 0.76947(14) 0.79732(14)
C1_3 C 0.67462(17) 0.90577(16) 0.73283(16)
C2_3 C 0.74365(16) 0.79552(16) 0.77058(16)
O2_3 O 0.68036(14) 0.87253(15) 0.61861(12)
C4_3 C 0.52456(18) 0.96198(18) 0.82093(17)
C5_3 C 0.47177(18) 0.93369(18) 0.84966(18)
N3_3 N 0.71669(16) 0.82133(14) 0.77182(14)
H1_3 H 0.7041 0.8217 0.7921
C6_3 C 0.49931(17) 0.98739(17) 0.87819(17)
O4_3 O 0.55058(16) 0.94474(16) 0.76327(15)
O5_3 O 0.41261(15) 0.91093(14) 0.86791(14)
O6_3 O 0.65886(17) 0.94807(15) 0.78177(14)
C7_3 C 0.47130(19) 0.96020(18) 0.87751(18)
H2_3 H 0.4528 0.9600 0.8955
C8_3 C 0.52564(18) 0.98813(18) 0.85020(18)
C9_3 C 0.71134(19) 0.84343(19) 0.70807(18)
H4_3 H 0.7239 0.8227 0.6991
C10_3 C 0.69849(19) 0.86954(19) 0.68347(17)
O7_3 O 0.44788(17) 0.87539(16) 0.83369(16)
C11_3 C 0.65528(17) 0.93840(18) 0.74772(18)
C12_3 C 0.68902(16) 0.88027(18) 0.75808(17)
H6_3 H 0.6873 0.8851 0.7834
C13_3 C 0.67909(17) 0.89965(17) 0.69647(18)
H7_3 H 0.6688 0.9162 0.6796
C14_3 C 0.70609(16) 0.84727(17) 0.74581(18)
C15_3 C 0.49767(18) 0.93461(18) 0.82174(19)
H8_3 H 0.4971 0.9167 0.8032
C16_3 C 0.55252(18) 0.96636(19) 0.78934(17)
C17_3 C 0.4413(2) 0.9038(2) 0.8501(2)
C18_3 C 0.7043(3) 0.8625(3) 0.6412(2)
O8_3 O 0.7380(3) 0.8531(3) 0.63317(17)
Zn4_3 Zn 0.7500 0.60928(3) 1.0000
Zn5_4 Zn 1.0000 0.7500 0.60928(3)
Zn6_3 Zn 0.2500 0.89072(3) 1.0000
Zn8_2 Zn 0.3750 0.87369(2) 0.87631(2)
Zn9_3 Zn 0.87631(2) 0.6250 0.62631(2)
Zn10_2 Zn 0.6250 0.62631(2) 0.87631(2)
O9_3 O 0.72508(12) 0.63533(11) 0.95819(11)
O10_3 O 0.95819(11) 0.72508(12) 0.63533(11)
N5_3 N 0.79732(14) 0.74303(14) 0.76947(14)
N6_3 N 0.76947(14) 0.79732(14) 0.74303(14)
C19_3 C 0.73283(16) 0.67462(17) 0.90577(16)
C20_3 C 0.90577(16) 0.73283(16) 0.67462(17)
C21_3 C 0.77058(16) 0.74365(16) 0.79552(16)
C22_3 C 0.79552(16) 0.77058(16) 0.74365(16)
O12_3 O 0.61861(12) 0.68036(14) 0.87253(15)
O13_3 O 0.87253(15) 0.61861(12) 0.68036(14)
O14_3 O 0.62253(15) 0.93036(14) 0.63139(12)
N9_3 N 0.77182(14) 0.71669(16) 0.82133(14)
N10_3 N 0.82133(14) 0.77182(14) 0.71669(16)
H9_3 H 0.7921 0.7041 0.8217
H10_3 H 0.8217 0.7921 0.7041
O22_3 O 0.61791(14) 0.83907(14) 0.66261(15)
O24_3 O 0.78177(14) 0.65886(17) 0.94807(15)
O25_3 O 0.94807(15) 0.78177(14) 0.65886(17)
H13_3 H 0.3506 0.9558 0.9940
C35_3 C 0.70807(18) 0.71134(19) 0.84343(19)
C36_3 C 0.84343(19) 0.70807(18) 0.71134(19)
H15_3 H 0.6991 0.7239 0.8227
H16_3 H 0.8227 0.6991 0.7239
C37_3 C 0.68347(17) 0.69849(19) 0.86954(19)
C38_3 C 0.86954(19) 0.68347(17) 0.69849(19)
N11_3 N 0.40590(14) 0.99696(15) 0.98533(14)
H17_3 H 0.4035 0.9774 0.9719
C39_3 C 0.74772(18) 0.65528(17) 0.93840(18)
C40_3 C 0.93840(18) 0.74772(18) 0.65528(17)
C41_3 C 0.75808(17) 0.68902(16) 0.88027(18)
C42_3 C 0.88027(18) 0.75808(17) 0.68902(16)
H19_3 H 0.7834 0.6873 0.8851
H20_3 H 0.8851 0.7834 0.6873
C43_3 C 0.69647(18) 0.67909(17) 0.89965(17)
C44_3 C 0.89965(17) 0.69647(18) 0.67909(17)
H21_3 H 0.6796 0.6688 0.9162
H22_3 H 0.9162 0.6796 0.6688
C45_3 C 0.74581(18) 0.70609(16) 0.84727(17)
C46_3 C 0.84727(17) 0.74581(18) 0.70609(16)
C53_3 C 0.6412(2) 0.7043(3) 0.8625(3)
C54_3 C 0.8625(3) 0.6412(2) 0.7043(3)
O28_3 O 0.63317(17) 0.7380(3) 0.8531(3)
O29_3 O 0.8531(3) 0.63317(17) 0.7380(3)
C5_4 C 0.02823(18) 0.06631(18) 0.34966(18)
C6_4 C 0.00069(17) 0.01261(17) 0.37819(17)
O5_4 O 0.08739(15) 0.08907(14) 0.36791(14)
C7_4 C 0.02870(19) 0.03980(18) 0.37751(18)
H2_4 H 0.0472 0.0400 0.3955
O7_4 O 0.05212(17) 0.12461(16) 0.33369(16)
C15_4 C 0.00233(18) 0.06539(18) 0.32174(19)
H8_4 H 0.0029 0.0833 0.3032
C17_4 C 0.0587(2) 0.0962(2) 0.3501(2)
Zn8_3 Zn 0.1250 0.12631(2) 0.37631(2)
O15_4 O 0.20699(11) 0.07700(12) 0.50922(12)
C25_4 C 0.17907(17) 0.02456(18) 0.53802(18)
O18_4 O 0.23673(15) 0.05058(16) 0.55526(16)
C33_4 C 0.14980(18) 0.02564(18) 0.51187(18)
H13_4 H 0.1494 0.0442 0.4940
N11_4 N 0.09410(14) 0.00304(15) 0.48533(14)
H17_4 H 0.0965 0.0226 0.4719
C49_4 C 0.21066(17) 0.05252(18) 0.53364(19)
N2_4 N 0.04623(14) 0.99590(15) 0.44538(15)
C3_4 C 0.01769(18) 0.97604(17) 0.43527(17)
Zn7_4 Zn 0.12369(2) 0.8750 0.62631(2)
N7_4 N 0.05462(15) 0.95377(14) 0.49590(15)
N8_4 N 0.00410(15) 0.94538(15) 0.45377(14)
C23_4 C 0.06473(17) 0.98231(18) 0.47604(17)
C24_4 C 0.02396(17) 0.93527(17) 0.48231(18)
C27_4 C 0.15034(18) 0.97177(18) 0.56631(18)
C29_4 C 0.12181(17) 0.99931(17) 0.51261(17)
O20_4 O 0.13209(14) 0.91261(15) 0.58907(14)
C31_4 C 0.12249(18) 0.97130(19) 0.53980(18)
H11_4 H 0.1045 0.9528 0.5400
H14_4 H 0.0060 0.8506 0.5442
O26_4 O 0.16631(16) 0.94788(17) 0.62461(16)
N12_4 N 0.01467(14) 0.90590(14) 0.50304(15)
H18_4 H 0.0281 0.9035 0.5226
C47_4 C 0.17826(19) 0.99767(18) 0.56539(18)
H23_4 H 0.1968 0.9971 0.5833
C51_4 C 0.1499(2) 0.9413(2) 0.5962(2)
Zn1_4 Zn 0.89072(3) 0.0000 0.2500
Zn2_3 Zn 0.87369(2) 0.12369(2) 0.1250
O1_3 O 0.86467(11) 0.04181(11) 0.22508(12)
N1_4 N 0.75697(14) 0.23053(14) 0.29732(14)
C1_4 C 0.82538(17) 0.09423(16) 0.23283(16)
C2_4 C 0.75635(16) 0.20448(16) 0.27058(16)
O2_4 O 0.81964(14) 0.12747(15) 0.11861(12)
O3_3 O 0.92300(12) 0.00922(12) 0.29301(11)
C4_4 C 0.97544(18) 0.03802(18) 0.32093(17)
N3_4 N 0.78331(16) 0.17867(14) 0.27182(14)
H1_4 H 0.7959 0.1783 0.2921
O4_4 O 0.94942(16) 0.05526(16) 0.26327(15)
O6_4 O 0.84114(17) 0.05193(15) 0.28177(14)
C8_4 C 0.97436(18) 0.01187(18) 0.35020(18)
C9_4 C 0.78866(19) 0.15657(19) 0.20807(18)
H4_4 H 0.7761 0.1773 0.1991
C10_4 C 0.80151(19) 0.13046(19) 0.18347(17)
C11_4 C 0.84472(17) 0.06160(18) 0.24772(18)
C12_4 C 0.81098(16) 0.11973(18) 0.25808(17)
H6_4 H 0.8127 0.1149 0.2834
C13_4 C 0.82091(17) 0.10035(17) 0.19647(18)
H7_4 H 0.8312 0.0838 0.1796
C14_4 C 0.79391(16) 0.15273(17) 0.24581(18)
C16_4 C 0.94748(18) 0.03364(19) 0.28934(17)
C18_4 C 0.7957(3) 0.1375(3) 0.1412(2)
O8_4 O 0.7620(3) 0.1469(3) 0.13317(17)
Zn9_4 Zn 0.62369(2) 0.3750 0.12631(2)
Zn10_3 Zn 0.8750 0.37369(2) 0.37631(2)
O9_4 O 0.77492(12) 0.36467(11) 0.45819(11)
O10_4 O 0.54181(11) 0.27492(12) 0.13533(11)
N5_4 N 0.70268(14) 0.25697(14) 0.26947(14)
N6_4 N 0.73053(14) 0.20268(14) 0.24303(14)
C19_4 C 0.76717(16) 0.32538(17) 0.40577(16)
C20_4 C 0.59423(16) 0.26717(16) 0.17462(17)
C21_4 C 0.72942(16) 0.25635(16) 0.29552(16)
C22_4 C 0.70448(16) 0.22942(16) 0.24365(16)
O12_4 O 0.88139(12) 0.31964(14) 0.37253(15)
O13_4 O 0.62747(15) 0.38139(12) 0.18036(14)
O14_4 O 0.87747(15) 0.06964(14) 0.13139(12)
N9_4 N 0.72818(14) 0.28331(16) 0.32133(14)
N10_4 N 0.67867(14) 0.22818(14) 0.21669(16)
H9_4 H 0.7079 0.2959 0.3217
H10_4 H 0.6783 0.2079 0.2041
O22_4 O 0.88209(14) 0.16093(14) 0.16261(15)
O23_3 O 0.91093(14) 0.13209(14) 0.08739(15)
O24_4 O 0.71823(14) 0.34114(17) 0.44807(15)
O25_4 O 0.55193(15) 0.21823(14) 0.15886(17)
C35_4 C 0.79193(18) 0.28866(19) 0.34343(19)
C36_4 C 0.65657(19) 0.29193(18) 0.21134(19)
H15_4 H 0.8009 0.2761 0.3227
H16_4 H 0.6773 0.3009 0.2239
C37_4 C 0.81653(17) 0.30151(19) 0.36954(19)
C38_4 C 0.63046(19) 0.31653(17) 0.19849(19)
C39_4 C 0.75228(18) 0.34472(17) 0.43840(18)
C40_4 C 0.56160(18) 0.25228(18) 0.15528(17)
C41_4 C 0.74192(17) 0.31098(16) 0.38027(18)
C42_4 C 0.61973(18) 0.24192(17) 0.18902(16)
H19_4 H 0.7166 0.3127 0.3851
H20_4 H 0.6149 0.2166 0.1873
C43_4 C 0.80353(18) 0.32091(17) 0.39965(17)
C44_4 C 0.60035(17) 0.30353(18) 0.17909(17)
H21_4 H 0.8204 0.3312 0.4162
H22_4 H 0.5838 0.3204 0.1688
C45_4 C 0.75419(18) 0.29391(16) 0.34727(17)
C46_4 C 0.65273(17) 0.25419(18) 0.20609(16)
C53_4 C 0.8588(2) 0.2957(3) 0.3625(3)
C54_4 C 0.6375(3) 0.3588(2) 0.2043(3)
O28_4 O 0.86683(17) 0.2620(3) 0.3531(3)
O29_4 O 0.6469(3) 0.36683(17) 0.2380(3)
Zn1_5 Zn 0.89072(3) 1.0000 0.2500
H3_4 H 0.9558 0.9940 0.3506
N4_4 N 0.99696(15) 0.98533(14) 0.40590(14)
H5_4 H 0.9774 0.9719 0.4035
Zn11_3 Zn 0.87369(2) 0.87631(2) 0.3750
O11_3 O 0.86467(11) 0.95819(11) 0.27492(12)
O16_4 O 0.99078(12) 0.79301(11) 0.57700(12)
O17_3 O 0.92300(12) 0.99078(12) 0.20699(11)
C26_4 C 0.96198(18) 0.82093(17) 0.52456(18)
C28_4 C 0.93369(18) 0.84966(18) 0.47177(18)
C30_4 C 0.98739(17) 0.87819(17) 0.49931(17)
O19_4 O 0.94474(16) 0.76327(15) 0.55058(16)
O21_3 O 0.91093(14) 0.86791(14) 0.41261(15)
C32_4 C 0.96020(18) 0.87751(18) 0.47130(19)
H12_4 H 0.9600 0.8955 0.4528
C34_4 C 0.98813(18) 0.85020(18) 0.52564(18)
O27_4 O 0.87539(16) 0.83369(16) 0.44788(17)
C48_4 C 0.93461(18) 0.82174(19) 0.49767(18)
H24_4 H 0.9167 0.8032 0.4971
C50_4 C 0.96636(19) 0.78934(17) 0.55252(18)
C52_4 C 0.9038(2) 0.8501(2) 0.4413(2)
Zn2_4 Zn 0.8750 0.62631(2) 0.12369(2)
O1_4 O 0.77492(12) 0.63533(11) 0.04181(11)
N1_5 N 0.70268(14) 0.74303(14) 0.23053(14)
C1_5 C 0.76717(16) 0.67462(17) 0.09423(16)
C2_5 C 0.72942(16) 0.74365(16) 0.20448(16)
O2_5 O 0.88139(12) 0.68036(14) 0.12747(15)
O3_4 O 0.70699(11) 0.57700(12) 0.00922(12)
C4_5 C 0.67907(17) 0.52456(18) 0.03802(18)
C5_5 C 0.65034(18) 0.47177(18) 0.06631(18)
N3_5 N 0.72818(14) 0.71669(16) 0.17867(14)
H1_5 H 0.7079 0.7041 0.1783
C6_5 C 0.62181(17) 0.49931(17) 0.01261(17)
O4_5 O 0.73673(15) 0.55058(16) 0.05526(16)
O5_5 O 0.63209(14) 0.41261(15) 0.08907(14)
O6_5 O 0.71823(14) 0.65886(17) 0.05193(15)
C7_5 C 0.62249(18) 0.47130(19) 0.03980(18)
H2_5 H 0.6045 0.4528 0.0400
C8_5 C 0.64980(18) 0.52564(18) 0.01187(18)
C9_5 C 0.79193(18) 0.71134(19) 0.15657(19)
H4_5 H 0.8009 0.7239 0.1773
C10_5 C 0.81653(17) 0.69849(19) 0.13046(19)
O7_5 O 0.66631(16) 0.44788(17) 0.12461(16)
C11_5 C 0.75228(18) 0.65528(17) 0.06160(18)
C12_5 C 0.74192(17) 0.68902(16) 0.11973(18)
H6_5 H 0.7166 0.6873 0.1149
C13_5 C 0.80353(18) 0.67909(17) 0.10035(17)
H7_5 H 0.8204 0.6688 0.0838
C14_5 C 0.75419(18) 0.70609(16) 0.15273(17)
C15_5 C 0.67826(19) 0.49767(18) 0.06539(18)
H8_5 H 0.6968 0.4971 0.0833
C16_5 C 0.71066(17) 0.55252(18) 0.03364(19)
C17_5 C 0.6499(2) 0.4413(2) 0.0962(2)
C18_5 C 0.8588(2) 0.7043(3) 0.1375(3)
O8_5 O 0.86683(17) 0.7380(3) 0.1469(3)
O9_5 O 0.54181(11) 0.72508(12) 0.36467(11)
N5_5 N 0.73053(14) 0.79732(14) 0.25697(14)
N6_5 N 0.75697(14) 0.76947(14) 0.20268(14)
C19_5 C 0.59423(16) 0.73283(16) 0.32538(17)
C20_5 C 0.82538(17) 0.90577(16) 0.26717(16)
C21_5 C 0.70448(16) 0.77058(16) 0.25635(16)
C22_5 C 0.75635(16) 0.79552(16) 0.22942(16)
O12_5 O 0.62747(15) 0.61861(12) 0.31964(14)
O13_5 O 0.81964(14) 0.87253(15) 0.38139(12)
O14_5 O 0.86861(12) 0.62253(15) 0.06964(14)
O15_5 O 0.49078(12) 0.29301(11) 0.07700(12)
C25_5 C 0.46198(18) 0.32093(17) 0.02456(18)
N9_5 N 0.67867(14) 0.77182(14) 0.28331(16)
N10_5 N 0.78331(16) 0.82133(14) 0.22818(14)
H9_5 H 0.6783 0.7921 0.2959
H10_5 H 0.7959 0.8217 0.2079
O18_5 O 0.44474(16) 0.26327(15) 0.05058(16)
O22_5 O 0.83739(15) 0.61791(14) 0.16093(14)
O23_4 O 0.91261(15) 0.58907(14) 0.13209(14)
O24_5 O 0.55193(15) 0.78177(14) 0.34114(17)
O25_5 O 0.84114(17) 0.94807(15) 0.21823(14)
C33_5 C 0.48813(18) 0.35020(18) 0.02564(18)
H13_5 H 0.5060 0.3506 0.0442
C35_5 C 0.65657(19) 0.70807(18) 0.28866(19)
C36_5 C 0.78866(19) 0.84343(19) 0.29193(18)
H15_5 H 0.6773 0.6991 0.2761
H16_5 H 0.7761 0.8227 0.3009
C37_5 C 0.63046(19) 0.68347(17) 0.30151(19)
C38_5 C 0.80151(19) 0.86954(19) 0.31653(17)
N11_5 N 0.51467(14) 0.40590(14) 0.00304(15)
H17_5 H 0.5281 0.4035 0.0226
C39_5 C 0.56160(18) 0.74772(18) 0.34472(17)
C40_5 C 0.84472(17) 0.93840(18) 0.25228(18)
C41_5 C 0.61973(18) 0.75808(17) 0.31098(16)
C42_5 C 0.81098(16) 0.88027(18) 0.24192(17)
H19_5 H 0.6149 0.7834 0.3127
H20_5 H 0.8127 0.8851 0.2166
C43_5 C 0.60035(17) 0.69647(18) 0.32091(17)
C44_5 C 0.82091(17) 0.89965(17) 0.30353(18)
H21_5 H 0.5838 0.6796 0.3312
H22_5 H 0.8312 0.9162 0.3204
C45_5 C 0.65273(17) 0.74581(18) 0.29391(16)
C46_5 C 0.79391(16) 0.84727(17) 0.25419(18)
C49_5 C 0.46636(19) 0.28934(17) 0.05252(18)
C53_5 C 0.6375(3) 0.6412(2) 0.2957(3)
C54_5 C 0.7957(3) 0.8625(3) 0.3588(2)
O28_5 O 0.6469(3) 0.63317(17) 0.2620(3)
O29_5 O 0.7620(3) 0.8531(3) 0.36683(17)
N2_5 N 0.55462(15) 0.45377(14) 0.99590(15)
C3_5 C 0.56473(17) 0.48231(18) 0.97604(17)
H3_5 H 0.6494 0.5442 0.9940
N4_5 N 0.59410(14) 0.50304(15) 0.98533(14)
H5_5 H 0.5965 0.5226 0.9719
N7_5 N 0.50410(15) 0.44538(15) 0.95377(14)
N8_5 N 0.54623(14) 0.49590(15) 0.94538(15)
O17_4 O 0.79301(11) 0.57700(12) 0.99078(12)
C23_5 C 0.52396(17) 0.43527(17) 0.98231(18)
C24_5 C 0.51769(18) 0.47604(17) 0.93527(17)
C26_5 C 0.47544(18) 0.53802(18) 0.82093(17)
C27_5 C 0.43369(18) 0.34966(18) 0.97177(18)
C28_5 C 0.52823(18) 0.56631(18) 0.84966(18)
C29_5 C 0.48739(17) 0.37819(17) 0.99931(17)
C30_5 C 0.50069(17) 0.51261(17) 0.87819(17)
O19_5 O 0.44942(16) 0.55526(16) 0.76327(15)
O21_4 O 0.58739(15) 0.58907(14) 0.86791(14)
C31_5 C 0.46020(18) 0.37751(18) 0.97130(19)
C32_5 C 0.52870(19) 0.53980(18) 0.87751(18)
H11_5 H 0.4600 0.3955 0.9528
H12_5 H 0.5472 0.5400 0.8955
C34_5 C 0.47436(18) 0.51187(18) 0.85020(18)
H14_5 H 0.4558 0.4940 0.8506
O26_5 O 0.37539(16) 0.33369(16) 0.94788(17)
O27_5 O 0.55212(17) 0.62461(16) 0.83369(16)
N12_5 N 0.49696(15) 0.48533(14) 0.90590(14)
H18_5 H 0.4774 0.4719 0.9035
C47_5 C 0.43461(18) 0.32174(19) 0.99767(18)
C48_5 C 0.50233(18) 0.56539(18) 0.82174(19)
H23_5 H 0.4167 0.3032 0.9971
H24_5 H 0.5029 0.5833 0.8032
C50_5 C 0.44748(18) 0.53364(19) 0.78934(17)
C51_5 C 0.4038(2) 0.3501(2) 0.9413(2)
C52_5 C 0.5587(2) 0.5962(2) 0.8501(2)
O1_5 O 0.04181(11) 0.77492(12) 0.63533(11)
N1_6 N 0.23053(14) 0.70268(14) 0.74303(14)
C1_6 C 0.09423(16) 0.76717(16) 0.67462(17)
C2_6 C 0.20448(16) 0.72942(16) 0.74365(16)
O2_6 O 0.12747(15) 0.88139(12) 0.68036(14)
O3_5 O 0.00922(12) 0.70699(11) 0.57700(12)
C4_6 C 0.03802(18) 0.67907(17) 0.52456(18)
C5_6 C 0.06631(18) 0.65034(18) 0.47177(18)
N3_6 N 0.17867(14) 0.72818(14) 0.71669(16)
H1_6 H 0.1783 0.7079 0.7041
C6_6 C 0.01261(17) 0.62181(17) 0.49931(17)
O4_6 O 0.05526(16) 0.73673(15) 0.55058(16)
O5_6 O 0.08907(14) 0.63209(14) 0.41261(15)
O6_6 O 0.05193(15) 0.71823(14) 0.65886(17)
C7_6 C 0.03980(18) 0.62249(18) 0.47130(19)
H2_6 H 0.0400 0.6045 0.4528
C8_6 C 0.01187(18) 0.64980(18) 0.52564(18)
C9_6 C 0.15657(19) 0.79193(18) 0.71134(19)
H4_6 H 0.1773 0.8009 0.7239
C10_6 C 0.13046(19) 0.81653(17) 0.69849(19)
O7_6 O 0.12461(16) 0.66631(16) 0.44788(17)
C11_6 C 0.06160(18) 0.75228(18) 0.65528(17)
C12_6 C 0.11973(18) 0.74192(17) 0.68902(16)
H6_6 H 0.1149 0.7166 0.6873
C13_6 C 0.10035(17) 0.80353(18) 0.67909(17)
H7_6 H 0.0838 0.8204 0.6688
C14_6 C 0.15273(17) 0.75419(18) 0.70609(16)
C15_6 C 0.06539(18) 0.67826(19) 0.49767(18)
H8_6 H 0.0833 0.6968 0.4971
C16_6 C 0.03364(19) 0.71066(17) 0.55252(18)
C17_6 C 0.0962(2) 0.6499(2) 0.4413(2)
C18_6 C 0.1375(3) 0.8588(2) 0.7043(3)
O8_6 O 0.1469(3) 0.86683(17) 0.7380(3)
Zn6_4 Zn 0.10928(3) 0.5000 0.2500
Zn8_4 Zn 0.12631(2) 0.62369(2) 0.3750
O10_5 O 0.27492(12) 0.86467(11) 0.95819(11)
N5_6 N 0.25697(14) 0.73053(14) 0.79732(14)
N6_6 N 0.20268(14) 0.75697(14) 0.76947(14)
C19_6 C 0.32538(17) 0.59423(16) 0.73283(16)
C20_6 C 0.26717(16) 0.82538(17) 0.90577(16)
C21_6 C 0.25635(16) 0.70448(16) 0.77058(16)
C22_6 C 0.22942(16) 0.75635(16) 0.79552(16)
O12_6 O 0.31964(14) 0.62747(15) 0.61861(12)
O13_6 O 0.38139(12) 0.81964(14) 0.87253(15)
O14_6 O 0.06964(14) 0.86861(12) 0.62253(15)
O15_6 O 0.07700(12) 0.49078(12) 0.29301(11)
C25_6 C 0.02456(18) 0.46198(18) 0.32093(17)
N9_6 N 0.28331(16) 0.67867(14) 0.77182(14)
N10_6 N 0.22818(14) 0.78331(16) 0.82133(14)
H9_6 H 0.2959 0.6783 0.7921
H10_6 H 0.2079 0.7959 0.8217
O18_6 O 0.05058(16) 0.44474(16) 0.26327(15)
O22_6 O 0.16093(14) 0.83739(15) 0.61791(14)
O24_6 O 0.34114(17) 0.55193(15) 0.78177(14)
O25_6 O 0.21823(14) 0.84114(17) 0.94807(15)
C33_6 C 0.02564(18) 0.48813(18) 0.35020(18)
H13_6 H 0.0442 0.5060 0.3506
C35_6 C 0.28866(19) 0.65657(19) 0.70807(18)
C36_6 C 0.29193(18) 0.78866(19) 0.84343(19)
H15_6 H 0.2761 0.6773 0.6991
H16_6 H 0.3009 0.7761 0.8227
C37_6 C 0.30151(19) 0.63046(19) 0.68347(17)
C38_6 C 0.31653(17) 0.80151(19) 0.86954(19)
N11_6 N 0.00304(15) 0.51467(14) 0.40590(14)
H17_6 H 0.0226 0.5281 0.4035
C39_6 C 0.34472(17) 0.56160(18) 0.74772(18)
C40_6 C 0.25228(18) 0.84472(17) 0.93840(18)
C41_6 C 0.31098(16) 0.61973(18) 0.75808(17)
C42_6 C 0.24192(17) 0.81098(16) 0.88027(18)
H19_6 H 0.3127 0.6149 0.7834
H20_6 H 0.2166 0.8127 0.8851
C43_6 C 0.32091(17) 0.60035(17) 0.69647(18)
C44_6 C 0.30353(18) 0.82091(17) 0.89965(17)
H21_6 H 0.3312 0.5838 0.6796
H22_6 H 0.3204 0.8312 0.9162
C45_6 C 0.29391(16) 0.65273(17) 0.74581(18)
C46_6 C 0.25419(18) 0.79391(16) 0.84727(17)
C49_6 C 0.05252(18) 0.46636(19) 0.28934(17)
C53_6 C 0.2957(3) 0.6375(3) 0.6412(2)
C54_6 C 0.3588(2) 0.7957(3) 0.8625(3)
O28_6 O 0.2620(3) 0.6469(3) 0.63317(17)
O29_6 O 0.36683(17) 0.7620(3) 0.8531(3)
N2_6 N 0.99590(15) 0.55462(15) 0.45377(14)
C3_6 C 0.97604(17) 0.56473(17) 0.48231(18)
H3_6 H 0.9940 0.6494 0.5442
N4_6 N 0.98533(14) 0.59410(14) 0.50304(15)
H5_6 H 0.9719 0.5965 0.5226
N7_6 N 0.95377(14) 0.50410(15) 0.44538(15)
N8_6 N 0.94538(15) 0.54623(14) 0.49590(15)
O16_5 O 0.79301(11) 0.42300(12) 0.50922(12)
C23_6 C 0.98231(18) 0.52396(17) 0.43527(17)
C24_6 C 0.93527(17) 0.51769(18) 0.47604(17)
C26_6 C 0.82093(17) 0.47544(18) 0.53802(18)
C27_6 C 0.97177(18) 0.43369(18) 0.34966(18)
C28_6 C 0.84966(18) 0.52823(18) 0.56631(18)
C29_6 C 0.99931(17) 0.48739(17) 0.37819(17)
C30_6 C 0.87819(17) 0.50069(17) 0.51261(17)
O19_6 O 0.76327(15) 0.44942(16) 0.55526(16)
O20_5 O 0.91261(15) 0.41093(14) 0.36791(14)
O21_5 O 0.86791(14) 0.58739(15) 0.58907(14)
C31_6 C 0.97130(19) 0.46020(18) 0.37751(18)
C32_6 C 0.87751(18) 0.52870(19) 0.53980(18)
H11_6 H 0.9528 0.4600 0.3955
H12_6 H 0.8955 0.5472 0.5400
C34_6 C 0.85020(18) 0.47436(18) 0.51187(18)
H14_6 H 0.8506 0.4558 0.4940
O26_6 O 0.94788(17) 0.37539(16) 0.33369(16)
O27_6 O 0.83369(16) 0.55212(17) 0.62461(16)
N12_6 N 0.90590(14) 0.49696(15) 0.48533(14)
H18_6 H 0.9035 0.4774 0.4719
C47_6 C 0.99767(18) 0.43461(18) 0.32174(19)
C48_6 C 0.82174(19) 0.50233(18) 0.56539(18)
H23_6 H 0.9971 0.4167 0.3032
H24_6 H 0.8032 0.5029 0.5833
C50_6 C 0.78934(17) 0.44748(18) 0.53364(19)
C51_6 C 0.9413(2) 0.4038(2) 0.3501(2)
C52_6 C 0.8501(2) 0.5587(2) 0.5962(2)
Zn2_5 Zn 0.1250 0.87369(2) 0.12369(2)
O1_6 O 0.22508(12) 0.86467(11) 0.04181(11)
N1_7 N 0.29732(14) 0.75697(14) 0.23053(14)
C1_7 C 0.23283(16) 0.82538(17) 0.09423(16)
C2_7 C 0.27058(16) 0.75635(16) 0.20448(16)
O2_7 O 0.11861(12) 0.81964(14) 0.12747(15)
N3_7 N 0.27182(14) 0.78331(16) 0.17867(14)
H1_7 H 0.2921 0.7959 0.1783
O6_7 O 0.28177(14) 0.84114(17) 0.05193(15)
C9_7 C 0.20807(18) 0.78866(19) 0.15657(19)
H4_7 H 0.1991 0.7761 0.1773
C10_7 C 0.18347(17) 0.80151(19) 0.13046(19)
C11_7 C 0.24772(18) 0.84472(17) 0.06160(18)
C12_7 C 0.25808(17) 0.81098(16) 0.11973(18)
H6_7 H 0.2834 0.8127 0.1149
C13_7 C 0.19647(18) 0.82091(17) 0.10035(17)
H7_7 H 0.1796 0.8312 0.0838
C14_7 C 0.24581(18) 0.79391(16) 0.15273(17)
C18_7 C 0.1412(2) 0.7957(3) 0.1375(3)
O8_7 O 0.13317(17) 0.7620(3) 0.1469(3)
O9_6 O 0.45819(11) 0.77492(12) 0.36467(11)
O10_6 O 0.13533(11) 0.54181(11) 0.27492(12)
N5_7 N 0.26947(14) 0.70268(14) 0.25697(14)
N6_7 N 0.24303(14) 0.73053(14) 0.20268(14)
C19_7 C 0.40577(16) 0.76717(16) 0.32538(17)
C20_7 C 0.17462(17) 0.59423(16) 0.26717(16)
C21_7 C 0.29552(16) 0.72942(16) 0.25635(16)
C22_7 C 0.24365(16) 0.70448(16) 0.22942(16)
O12_7 O 0.37253(15) 0.88139(12) 0.31964(14)
O13_7 O 0.18036(14) 0.62747(15) 0.38139(12)
O14_7 O 0.13139(12) 0.87747(15) 0.06964(14)
N9_7 N 0.32133(14) 0.72818(14) 0.28331(16)
N10_7 N 0.21669(16) 0.67867(14) 0.22818(14)
H9_7 H 0.3217 0.7079 0.2959
H10_7 H 0.2041 0.6783 0.2079
O22_7 O 0.16261(15) 0.88209(14) 0.16093(14)
O23_5 O 0.08739(15) 0.91093(14) 0.13209(14)
O24_7 O 0.44807(15) 0.71823(14) 0.34114(17)
O25_7 O 0.15886(17) 0.55193(15) 0.21823(14)
C35_7 C 0.34343(19) 0.79193(18) 0.28866(19)
C36_7 C 0.21134(19) 0.65657(19) 0.29193(18)
H15_7 H 0.3227 0.8009 0.2761
H16_7 H 0.2239 0.6773 0.3009
C37_7 C 0.36954(19) 0.81653(17) 0.30151(19)
C38_7 C 0.19849(19) 0.63046(19) 0.31653(17)
C39_7 C 0.43840(18) 0.75228(18) 0.34472(17)
C40_7 C 0.15528(17) 0.56160(18) 0.25228(18)
C41_7 C 0.38027(18) 0.74192(17) 0.31098(16)
C42_7 C 0.18902(16) 0.61973(18) 0.24192(17)
H19_7 H 0.3851 0.7166 0.3127
H20_7 H 0.1873 0.6149 0.2166
C43_7 C 0.39965(17) 0.80353(18) 0.32091(17)
C44_7 C 0.17909(17) 0.60035(17) 0.30353(18)
H21_7 H 0.4162 0.8204 0.3312
H22_7 H 0.1688 0.5838 0.3204
C45_7 C 0.34727(17) 0.75419(18) 0.29391(16)
C46_7 C 0.20609(16) 0.65273(17) 0.25419(18)
C53_7 C 0.3625(3) 0.8588(2) 0.2957(3)
C54_7 C 0.2043(3) 0.6375(3) 0.3588(2)
O28_7 O 0.3531(3) 0.86683(17) 0.2620(3)
O29_7 O 0.2380(3) 0.6469(3) 0.36683(17)
O17_5 O 0.20699(11) 0.92300(12) 0.99078(12)
O14_8 O 0.43036(14) 0.86861(12) 0.37747(15)
O22_8 O 0.33907(14) 0.83739(15) 0.38209(14)
O14_9 O 0.86861(12) 0.37747(15) 0.43036(14)
O22_9 O 0.83739(15) 0.38209(14) 0.33907(14)
O14_10 O 0.93036(14) 0.63139(12) 0.62253(15)
O22_10 O 0.83907(14) 0.66261(15) 0.61791(14)
Zn7_5 Zn 0.12631(2) 0.37631(2) 0.1250
O16_6 O 0.07700(12) 0.50922(12) 0.20699(11)
C26_7 C 0.02456(18) 0.53802(18) 0.17907(17)
C27_7 C 0.06631(18) 0.34966(18) 0.02823(18)
C29_7 C 0.01261(17) 0.37819(17) 0.00069(17)
O19_7 O 0.05058(16) 0.55526(16) 0.23673(15)
O20_6 O 0.08907(14) 0.36791(14) 0.08739(15)
C31_7 C 0.03980(18) 0.37751(18) 0.02870(19)
H11_7 H 0.0400 0.3955 0.0472
C34_7 C 0.02564(18) 0.51187(18) 0.14980(18)
H14_7 H 0.0442 0.4940 0.1494
O26_7 O 0.12461(16) 0.33369(16) 0.05212(17)
N12_7 N 0.00304(15) 0.48533(14) 0.09410(14)
H18_7 H 0.0226 0.4719 0.0965
C47_7 C 0.06539(18) 0.32174(19) 0.00233(18)
H23_7 H 0.0833 0.3032 0.0029
C50_7 C 0.05252(18) 0.53364(19) 0.21066(17)
C51_7 C 0.0962(2) 0.3501(2) 0.0587(2)
O15_7 O 0.00922(12) 0.29301(11) 0.92300(12)
C25_7 C 0.03802(18) 0.32093(17) 0.97544(18)
O18_7 O 0.05526(16) 0.26327(15) 0.94942(16)
C33_7 C 0.01187(18) 0.35020(18) 0.97436(18)
C49_7 C 0.03364(19) 0.28934(17) 0.94748(18)
N2_7 N 0.94538(15) 0.45377(14) 0.00410(15)
C3_7 C 0.93527(17) 0.48231(18) 0.02396(17)
H3_7 H 0.8506 0.5442 0.0060
N4_7 N 0.90590(14) 0.50304(15) 0.01467(14)
H5_7 H 0.9035 0.5226 0.0281
N7_7 N 0.99590(15) 0.44538(15) 0.04623(14)
N8_7 N 0.95377(14) 0.49590(15) 0.05462(15)
C23_7 C 0.97604(17) 0.43527(17) 0.01769(18)
C24_7 C 0.98231(18) 0.47604(17) 0.06473(17)
C28_7 C 0.97177(18) 0.56631(18) 0.15034(18)
C30_7 C 0.99931(17) 0.51261(17) 0.12181(17)
C32_7 C 0.97130(19) 0.53980(18) 0.12249(18)
H12_7 H 0.9528 0.5400 0.1045
O27_7 O 0.94788(17) 0.62461(16) 0.16631(16)
C48_7 C 0.99767(18) 0.56539(18) 0.17826(19)
H24_7 H 0.9971 0.5833 0.1968
C52_7 C 0.9413(2) 0.5962(2) 0.1499(2)
C4_7 C 0.82093(17) 0.52456(18) 0.96198(18)
C5_7 C 0.84966(18) 0.47177(18) 0.93369(18)
C6_7 C 0.87819(17) 0.49931(17) 0.98739(17)
O4_7 O 0.76327(15) 0.55058(16) 0.94474(16)
O5_7 O 0.86791(14) 0.41261(15) 0.91093(14)
C7_7 C 0.87751(18) 0.47130(19) 0.96020(18)
H2_7 H 0.8955 0.4528 0.9600
C8_7 C 0.85020(18) 0.52564(18) 0.98813(18)
O7_7 O 0.83369(16) 0.44788(17) 0.87539(16)
C15_7 C 0.82174(19) 0.49767(18) 0.93461(18)
H8_7 H 0.8032 0.4971 0.9167
C16_7 C 0.78934(17) 0.55252(18) 0.96636(19)
C17_7 C 0.8501(2) 0.4413(2) 0.9038(2)
O14_11 O 0.63139(12) 0.62253(15) 0.93036(14)
O22_11 O 0.66261(15) 0.61791(14) 0.83907(14)
H13_7 H 0.9940 0.3506 0.9558
N11_7 N 0.98533(14) 0.40590(14) 0.99696(15)
H17_7 H 0.9719 0.4035 0.9774
O14_12 O 0.06964(14) 0.13139(12) 0.87747(15)
O22_12 O 0.16093(14) 0.16261(15) 0.88209(14)
O23_6 O 0.13209(14) 0.08739(15) 0.91093(14)
O17_6 O 0.99078(12) 0.20699(11) 0.92300(12)
Zn6_5 Zn 0.14072(3) 0.0000 0.7500
Zn1_6 Zn 0.2500 0.64072(3) 0.5000
O1_7 O 0.20819(11) 0.61467(11) 0.47508(12)
N1_8 N 0.01947(14) 0.50697(14) 0.54732(14)
C1_8 C 0.15577(16) 0.57538(17) 0.48283(16)
C2_8 C 0.04552(16) 0.50635(16) 0.52058(16)
O2_8 O 0.12253(15) 0.56964(14) 0.36861(12)
N2_8 N 0.25410(15) 0.79623(14) 0.69538(15)
O3_6 O 0.24078(12) 0.67300(12) 0.54301(11)
C3_8 C 0.27396(17) 0.76769(18) 0.68527(17)
C4_8 C 0.21198(18) 0.72544(18) 0.57093(17)
C5_8 C 0.18369(18) 0.77823(18) 0.59966(18)
N3_8 N 0.07133(14) 0.53331(16) 0.52182(14)
H1_8 H 0.0717 0.5459 0.5421
C6_8 C 0.23739(17) 0.75069(17) 0.62819(17)
O4_8 O 0.19474(16) 0.69942(16) 0.51327(15)
O6_8 O 0.19807(15) 0.59114(17) 0.53177(14)
C7_8 C 0.21020(18) 0.77870(19) 0.62751(18)
H2_8 H 0.2100 0.7972 0.6455
C8_8 C 0.23813(18) 0.72436(18) 0.60020(18)
H3_8 H 0.2560 0.7058 0.6006
C9_8 C 0.09343(19) 0.53866(19) 0.45807(18)
H4_8 H 0.0727 0.5261 0.4491
C10_8 C 0.11954(19) 0.55151(19) 0.43347(17)
O7_8 O 0.12539(16) 0.80212(17) 0.58369(16)
N4_8 N 0.26467(14) 0.74696(15) 0.65590(14)
H5_8 H 0.2781 0.7274 0.6535
C11_8 C 0.18840(18) 0.59472(17) 0.49772(18)
C12_8 C 0.13027(18) 0.56098(16) 0.50808(17)
H6_8 H 0.1351 0.5627 0.5334
C13_8 C 0.14965(17) 0.57091(17) 0.44647(18)
H7_8 H 0.1662 0.5812 0.4296
C14_8 C 0.09727(17) 0.54391(16) 0.49581(18)
C15_8 C 0.18461(18) 0.75233(18) 0.57174(19)
H8_8 H 0.1667 0.7529 0.5532
C16_8 C 0.21636(19) 0.69748(18) 0.53934(17)
C17_8 C 0.1538(2) 0.8087(2) 0.6001(2)
C18_8 C 0.1125(3) 0.5457(3) 0.3912(2)
O8_8 O 0.1031(3) 0.5120(3) 0.38317(17)
Zn3_3 Zn 0.5000 0.7500 0.85928(3)
Zn5_5 Zn 0.0000 0.2500 0.35928(3)
Zn6_6 Zn 0.14072(3) 1.0000 0.7500
O11_4 O 0.29181(11) 0.61467(11) 0.52492(12)
N6_8 N 0.04732(14) 0.48053(14) 0.49303(14)
C22_8 C 0.02058(16) 0.45448(16) 0.49365(16)
N7_8 N 0.29623(14) 0.80462(15) 0.74590(15)
N8_8 N 0.30462(15) 0.75410(15) 0.70377(14)
O15_8 O 0.17300(12) 0.95699(11) 0.75922(12)
O16_7 O 0.45699(11) 0.74078(12) 0.82700(12)
O17_7 O 0.25922(12) 0.67300(12) 0.45699(11)
C23_8 C 0.26769(18) 0.81473(17) 0.72604(17)
C24_8 C 0.31473(17) 0.77396(17) 0.73231(18)
C25_8 C 0.22544(18) 0.92907(17) 0.78802(18)
C26_8 C 0.42907(17) 0.71198(18) 0.77456(18)
C27_8 C 0.27823(18) 0.90034(18) 0.81631(18)
C28_8 C 0.40034(18) 0.68369(18) 0.72177(18)
N10_8 N 0.02182(14) 0.42867(14) 0.46669(16)
H10_8 H 0.0421 0.4283 0.4541
C29_8 C 0.25069(17) 0.87181(17) 0.76261(17)
C30_8 C 0.37181(17) 0.73739(17) 0.74931(17)
O18_8 O 0.19942(16) 0.98673(15) 0.80526(16)
O19_8 O 0.48673(15) 0.69474(16) 0.80058(16)
O20_7 O 0.33739(15) 0.88209(14) 0.83907(14)
O21_6 O 0.38209(14) 0.66093(14) 0.66261(15)
O23_7 O 0.11791(14) 0.66093(14) 0.33739(15)
O25_8 O 0.03177(14) 0.30193(15) 0.40886(17)
C31_8 C 0.27870(19) 0.87249(18) 0.78980(18)
C32_8 C 0.37249(18) 0.71020(18) 0.72130(19)
H11_8 H 0.2972 0.8545 0.7900
H12_8 H 0.3545 0.7100 0.7028
C33_8 C 0.22436(18) 0.89980(18) 0.76187(18)
C34_8 C 0.39980(18) 0.73813(18) 0.77564(18)
H13_8 H 0.2058 0.8994 0.7440
H14_8 H 0.3994 0.7560 0.7942
O26_8 O 0.30212(17) 0.91631(16) 0.87461(16)
O27_8 O 0.41631(16) 0.62539(16) 0.69788(17)
N11_8 N 0.24696(15) 0.84410(14) 0.73533(14)
N12_8 N 0.34410(14) 0.76467(14) 0.75304(15)
H17_8 H 0.2274 0.8465 0.7219
H18_8 H 0.3465 0.7781 0.7726
C42_8 C 0.00808(17) 0.36973(18) 0.43902(16)
H20_8 H 0.0334 0.3649 0.4373
C47_8 C 0.25233(18) 0.92826(19) 0.81539(18)
C48_8 C 0.42826(19) 0.68461(18) 0.74767(18)
H23_8 H 0.2529 0.9468 0.8333
H24_8 H 0.4468 0.6667 0.7471
C49_8 C 0.19748(18) 0.96066(17) 0.78364(19)
C50_8 C 0.46066(17) 0.71636(19) 0.80252(18)
C51_8 C 0.3087(2) 0.8999(2) 0.8462(2)
C52_8 C 0.3999(2) 0.6538(2) 0.6913(2)
Zn4_4 Zn 0.85928(3) 0.5000 0.7500
Zn5_6 Zn 1.0000 0.2500 0.35928(3)
O9_7 O 0.88533(11) 0.52492(12) 0.70819(11)
O10_7 O 0.97508(12) 0.29181(11) 0.38533(11)
N5_8 N 0.99303(14) 0.45268(14) 0.51947(14)
C19_8 C 0.92462(17) 0.51717(16) 0.65577(16)
C20_8 C 0.98283(16) 0.34423(16) 0.42462(17)
C21_8 C 0.99365(16) 0.47942(16) 0.54552(16)
N9_8 N 0.96669(16) 0.47818(14) 0.57133(14)
H9_8 H 0.9541 0.4579 0.5717
O24_8 O 0.90886(17) 0.46823(14) 0.69807(15)
C35_8 C 0.96134(19) 0.54193(18) 0.59343(19)
C36_8 C 0.95807(18) 0.40657(19) 0.46134(19)
H15_8 H 0.9739 0.5509 0.5727
H16_8 H 0.9491 0.4273 0.4739
C37_8 C 0.94849(19) 0.56653(17) 0.61954(19)
C38_8 C 0.93347(17) 0.38046(19) 0.44849(19)
C39_8 C 0.90528(17) 0.50228(18) 0.68840(18)
C40_8 C 0.99772(18) 0.31160(18) 0.40528(17)
C41_8 C 0.93902(16) 0.49192(17) 0.63027(18)
H19_8 H 0.9373 0.4666 0.6351
C43_8 C 0.92909(17) 0.55353(18) 0.64965(17)
C44_8 C 0.94647(18) 0.35035(17) 0.42909(17)
H21_8 H 0.9188 0.5704 0.6662
H22_8 H 0.9296 0.3338 0.4188
C45_8 C 0.95609(16) 0.50419(18) 0.59727(17)
C46_8 C 0.99581(18) 0.40273(17) 0.45609(16)
C53_8 C 0.9543(3) 0.6088(2) 0.6125(3)
C54_8 C 0.8912(2) 0.3875(3) 0.4543(3)
O28_8 O 0.9880(3) 0.61683(17) 0.6031(3)
O29_8 O 0.88317(17) 0.3969(3) 0.4880(3)
O10_8 O 0.02492(12) 0.20819(11) 0.38533(11)
N5_9 N 0.00697(14) 0.04732(14) 0.51947(14)
C20_9 C 0.01717(16) 0.15577(16) 0.42462(17)
C21_9 C 0.00635(16) 0.02058(16) 0.54552(16)
O13_8 O 0.13139(12) 0.12253(15) 0.43036(14)
N9_9 N 0.03331(16) 0.02182(14) 0.57133(14)
H9_9 H 0.0459 0.0421 0.5717
O24_9 O 0.09114(17) 0.03177(14) 0.69807(15)
C36_9 C 0.04193(18) 0.09343(19) 0.46134(19)
H16_9 H 0.0509 0.0727 0.4739
C38_9 C 0.06653(17) 0.11954(19) 0.44849(19)
C40_9 C 0.00228(18) 0.18840(18) 0.40528(17)
C41_9 C 0.06098(16) 0.00808(17) 0.63027(18)
H19_9 H 0.0627 0.0334 0.6351
C44_9 C 0.05353(18) 0.14965(17) 0.42909(17)
H22_9 H 0.0704 0.1662 0.4188
C46_9 C 0.00419(18) 0.09727(17) 0.45609(16)
C54_9 C 0.1088(2) 0.1125(3) 0.4543(3)
O29_9 O 0.11683(17) 0.1031(3) 0.4880(3)
O9_8 O 0.11467(11) 0.97508(12) 0.70819(11)
C19_9 C 0.07538(17) 0.98283(16) 0.65577(16)
C35_9 C 0.03866(19) 0.95807(18) 0.59343(19)
H15_9 H 0.0261 0.9491 0.5727
C37_9 C 0.05151(19) 0.93347(17) 0.61954(19)
C39_9 C 0.09472(17) 0.99772(18) 0.68840(18)
C43_9 C 0.07091(17) 0.94647(18) 0.64965(17)
H21_9 H 0.0812 0.9296 0.6662
C45_9 C 0.04391(16) 0.99581(18) 0.59727(17)
C53_9 C 0.0457(3) 0.8912(2) 0.6125(3)
O28_9 O 0.0120(3) 0.88317(17) 0.6031(3)
N6_9 N 0.95268(14) 0.01947(14) 0.49303(14)
C22_9 C 0.97942(16) 0.04552(16) 0.49365(16)
N10_9 N 0.97818(14) 0.07133(14) 0.46669(16)
H10_9 H 0.9579 0.0717 0.4541
O25_9 O 0.96823(14) 0.19807(15) 0.40886(17)
C42_9 C 0.99192(17) 0.13027(18) 0.43902(16)
H20_9 H 0.9666 0.1351 0.4373
Zn1_7 Zn 0.7500 0.85928(3) 0.5000
O1_8 O 0.79181(11) 0.88533(11) 0.47508(12)
N1_9 N 0.98053(14) 0.99303(14) 0.54732(14)
C1_9 C 0.84423(16) 0.92462(17) 0.48283(16)
C2_9 C 0.95448(16) 0.99365(16) 0.52058(16)
O2_9 O 0.87747(15) 0.93036(14) 0.36861(12)
N2_9 N 0.74590(15) 0.70377(14) 0.69538(15)
O3_7 O 0.75922(12) 0.82700(12) 0.54301(11)
C3_9 C 0.72604(17) 0.73231(18) 0.68527(17)
C4_9 C 0.78802(18) 0.77456(18) 0.57093(17)
C5_9 C 0.81631(18) 0.72177(18) 0.59966(18)
N3_9 N 0.92867(14) 0.96669(16) 0.52182(14)
H1_9 H 0.9283 0.9541 0.5421
C6_9 C 0.76261(17) 0.74931(17) 0.62819(17)
O4_9 O 0.80526(16) 0.80058(16) 0.51327(15)
O6_9 O 0.80193(15) 0.90886(17) 0.53177(14)
C7_9 C 0.78980(18) 0.72130(19) 0.62751(18)
H2_9 H 0.7900 0.7028 0.6455
C8_9 C 0.76187(18) 0.77564(18) 0.60020(18)
H3_9 H 0.7440 0.7942 0.6006
C9_9 C 0.90657(19) 0.96134(19) 0.45807(18)
H4_9 H 0.9273 0.9739 0.4491
C10_9 C 0.88046(19) 0.94849(19) 0.43347(17)
O7_9 O 0.87461(16) 0.69788(17) 0.58369(16)
N4_9 N 0.73533(14) 0.75304(15) 0.65590(14)
H5_9 H 0.7219 0.7726 0.6535
C11_9 C 0.81160(18) 0.90528(17) 0.49772(18)
C12_9 C 0.86973(18) 0.93902(16) 0.50808(17)
H6_9 H 0.8649 0.9373 0.5334
C13_9 C 0.85035(17) 0.92909(17) 0.44647(18)
H7_9 H 0.8338 0.9188 0.4296
C14_9 C 0.90273(17) 0.95609(16) 0.49581(18)
C15_9 C 0.81539(18) 0.74767(18) 0.57174(19)
H8_9 H 0.8333 0.7471 0.5532
C16_9 C 0.78364(19) 0.80252(18) 0.53934(17)
C17_9 C 0.8462(2) 0.6913(2) 0.6001(2)
C18_9 C 0.8875(3) 0.9543(3) 0.3912(2)
O8_9 O 0.8969(3) 0.9880(3) 0.38317(17)
O11_5 O 0.70819(11) 0.88533(11) 0.52492(12)
N7_9 N 0.70377(14) 0.69538(15) 0.74590(15)
N8_9 N 0.69538(15) 0.74590(15) 0.70377(14)
O15_9 O 0.82700(12) 0.54301(11) 0.75922(12)
O16_8 O 0.54301(11) 0.75922(12) 0.82700(12)
O17_8 O 0.74078(12) 0.82700(12) 0.45699(11)
C23_9 C 0.73231(18) 0.68527(17) 0.72604(17)
C24_9 C 0.68527(17) 0.72604(17) 0.73231(18)
C25_9 C 0.77456(18) 0.57093(17) 0.78802(18)
C26_9 C 0.57093(17) 0.78802(18) 0.77456(18)
C27_9 C 0.72177(18) 0.59966(18) 0.81631(18)
C28_9 C 0.59966(18) 0.81631(18) 0.72177(18)
C29_9 C 0.74931(17) 0.62819(17) 0.76261(17)
C30_9 C 0.62819(17) 0.76261(17) 0.74931(17)
O18_9 O 0.80058(16) 0.51327(15) 0.80526(16)
O19_9 O 0.51327(15) 0.80526(16) 0.80058(16)
O23_8 O 0.88209(14) 0.83907(14) 0.33739(15)
C31_9 C 0.72130(19) 0.62751(18) 0.78980(18)
C32_9 C 0.62751(18) 0.78980(18) 0.72130(19)
H11_9 H 0.7028 0.6455 0.7900
H12_9 H 0.6455 0.7900 0.7028
C33_9 C 0.77564(18) 0.60020(18) 0.76187(18)
C34_9 C 0.60020(18) 0.76187(18) 0.77564(18)
H13_9 H 0.7942 0.6006 0.7440
H14_9 H 0.6006 0.7440 0.7942
O26_9 O 0.69788(17) 0.58369(16) 0.87461(16)
O27_9 O 0.58369(16) 0.87461(16) 0.69788(17)
N11_9 N 0.75304(15) 0.65590(14) 0.73533(14)
N12_9 N 0.65590(14) 0.73533(14) 0.75304(15)
H17_9 H 0.7726 0.6535 0.7219
H18_9 H 0.6535 0.7219 0.7726
C47_9 C 0.74767(18) 0.57174(19) 0.81539(18)
C48_9 C 0.57174(19) 0.81539(18) 0.74767(18)
H23_9 H 0.7471 0.5532 0.8333
H24_9 H 0.5532 0.8333 0.7471
C49_9 C 0.80252(18) 0.53934(17) 0.78364(19)
C50_9 C 0.53934(17) 0.78364(19) 0.80252(18)
C51_9 C 0.6913(2) 0.6001(2) 0.8462(2)
C52_9 C 0.6001(2) 0.8462(2) 0.6913(2)
Zn6_7 Zn 0.35928(3) 0.0000 0.2500
N1_10 N 0.48053(14) 0.50697(14) 0.45268(14)
C1_10 C 0.34423(16) 0.57538(17) 0.51717(16)
C2_10 C 0.45448(16) 0.50635(16) 0.47942(16)
O2_10 O 0.37747(15) 0.56964(14) 0.63139(12)
N2_10 N 0.24590(15) 0.79623(14) 0.30462(15)
C3_10 C 0.22604(17) 0.76769(18) 0.31473(17)
C4_10 C 0.28802(18) 0.72544(18) 0.42907(17)
C5_10 C 0.31631(18) 0.77823(18) 0.40034(18)
N3_10 N 0.42867(14) 0.53331(16) 0.47818(14)
H1_10 H 0.4283 0.5459 0.4579
C6_10 C 0.26261(17) 0.75069(17) 0.37181(17)
O4_10 O 0.30526(16) 0.69942(16) 0.48673(15)
O6_10 O 0.30193(15) 0.59114(17) 0.46823(14)
C7_10 C 0.28980(18) 0.77870(19) 0.37249(18)
H2_10 H 0.2900 0.7972 0.3545
C8_10 C 0.26187(18) 0.72436(18) 0.39980(18)
H3_10 H 0.2440 0.7058 0.3994
C9_10 C 0.40657(19) 0.53866(19) 0.54193(18)
H4_10 H 0.4273 0.5261 0.5509
C10_10 C 0.38046(19) 0.55151(19) 0.56653(17)
O7_10 O 0.37461(16) 0.80212(17) 0.41631(16)
N4_10 N 0.23533(14) 0.74696(15) 0.34410(14)
H5_10 H 0.2219 0.7274 0.3465
C11_10 C 0.31160(18) 0.59472(17) 0.50228(18)
C12_10 C 0.36973(18) 0.56098(16) 0.49192(17)
H6_10 H 0.3649 0.5627 0.4666
C13_10 C 0.35035(17) 0.57091(17) 0.55353(18)
H7_10 H 0.3338 0.5812 0.5704
C14_10 C 0.40273(17) 0.54391(16) 0.50419(18)
C15_10 C 0.31539(18) 0.75233(18) 0.42826(19)
H8_10 H 0.3333 0.7529 0.4468
C16_10 C 0.28364(19) 0.69748(18) 0.46066(17)
C17_10 C 0.3462(2) 0.8087(2) 0.3999(2)
C18_10 C 0.3875(3) 0.5457(3) 0.6088(2)
O8_10 O 0.3969(3) 0.5120(3) 0.61683(17)
Zn3_4 Zn 0.0000 0.7500 0.14072(3)
Zn4_5 Zn 0.64072(3) 0.5000 0.2500
Zn5_7 Zn 0.5000 0.2500 0.64072(3)
Zn6_8 Zn 0.35928(3) 1.0000 0.2500
O9_9 O 0.61467(11) 0.52492(12) 0.29181(11)
O10_9 O 0.52492(12) 0.29181(11) 0.61467(11)
N5_10 N 0.50697(14) 0.45268(14) 0.48053(14)
N6_10 N 0.45268(14) 0.48053(14) 0.50697(14)
C19_10 C 0.57538(17) 0.51717(16) 0.34423(16)
C20_10 C 0.51717(16) 0.34423(16) 0.57538(17)
C21_10 C 0.50635(16) 0.47942(16) 0.45448(16)
C22_10 C 0.47942(16) 0.45448(16) 0.50635(16)
O12_8 O 0.56964(14) 0.63139(12) 0.37747(15)
O13_9 O 0.63139(12) 0.37747(15) 0.56964(14)
N7_10 N 0.20377(14) 0.80462(15) 0.25410(15)
N8_10 N 0.19538(15) 0.75410(15) 0.29623(14)
O15_10 O 0.32700(12) 0.95699(11) 0.24078(12)
O16_9 O 0.04301(11) 0.74078(12) 0.17300(12)
C23_10 C 0.23231(18) 0.81473(17) 0.27396(17)
C24_10 C 0.18527(17) 0.77396(17) 0.26769(18)
C25_10 C 0.27456(18) 0.92907(17) 0.21198(18)
C26_10 C 0.07093(17) 0.71198(18) 0.22544(18)
C27_10 C 0.22177(18) 0.90034(18) 0.18369(18)
C28_10 C 0.09966(18) 0.68369(18) 0.27823(18)
N9_10 N 0.53331(16) 0.47818(14) 0.42867(14)
N10_10 N 0.47818(14) 0.42867(14) 0.53331(16)
H9_10 H 0.5459 0.4579 0.4283
H10_10 H 0.4579 0.4283 0.5459
C29_10 C 0.24931(17) 0.87181(17) 0.23739(17)
C30_10 C 0.12819(17) 0.73739(17) 0.25069(17)
O18_10 O 0.30058(16) 0.98673(15) 0.19474(16)
O19_10 O 0.01327(15) 0.69474(16) 0.19942(16)
O24_10 O 0.59114(17) 0.46823(14) 0.30193(15)
O25_10 O 0.46823(14) 0.30193(15) 0.59114(17)
C31_10 C 0.22130(19) 0.87249(18) 0.21020(18)
C32_10 C 0.12751(18) 0.71020(18) 0.27870(19)
H11_10 H 0.2028 0.8545 0.2100
H12_10 H 0.1455 0.7100 0.2972
C33_10 C 0.27564(18) 0.89980(18) 0.23813(18)
C34_10 C 0.10020(18) 0.73813(18) 0.22436(18)
H13_10 H 0.2942 0.8994 0.2560
H14_10 H 0.1006 0.7560 0.2058
C35_10 C 0.53866(19) 0.54193(18) 0.40657(19)
C36_10 C 0.54193(18) 0.40657(19) 0.53866(19)
H15_10 H 0.5261 0.5509 0.4273
H16_10 H 0.5509 0.4273 0.5261
C37_10 C 0.55151(19) 0.56653(17) 0.38046(19)
C38_10 C 0.56653(17) 0.38046(19) 0.55151(19)
O26_10 O 0.19788(17) 0.91631(16) 0.12539(16)
O27_10 O 0.08369(16) 0.62539(16) 0.30212(17)
N11_10 N 0.25304(15) 0.84410(14) 0.26467(14)
N12_10 N 0.15590(14) 0.76467(14) 0.24696(15)
H17_10 H 0.2726 0.8465 0.2781
H18_10 H 0.1535 0.7781 0.2274
C39_10 C 0.59472(17) 0.50228(18) 0.31160(18)
C40_10 C 0.50228(18) 0.31160(18) 0.59472(17)
C41_10 C 0.56098(16) 0.49192(17) 0.36973(18)
C42_10 C 0.49192(17) 0.36973(18) 0.56098(16)
H19_10 H 0.5627 0.4666 0.3649
H20_10 H 0.4666 0.3649 0.5627
C43_10 C 0.57091(17) 0.55353(18) 0.35035(17)
C44_10 C 0.55353(18) 0.35035(17) 0.57091(17)
H21_10 H 0.5812 0.5704 0.3338
H22_10 H 0.5704 0.3338 0.5812
C45_10 C 0.54391(16) 0.50419(18) 0.40273(17)
C46_10 C 0.50419(18) 0.40273(17) 0.54391(16)
C47_10 C 0.24767(18) 0.92826(19) 0.18461(18)
C48_10 C 0.07174(19) 0.68461(18) 0.25233(18)
H23_10 H 0.2471 0.9468 0.1667
H24_10 H 0.0532 0.6667 0.2529
C49_10 C 0.30252(18) 0.96066(17) 0.21636(19)
C50_10 C 0.03934(17) 0.71636(19) 0.19748(18)
C51_10 C 0.1913(2) 0.8999(2) 0.1538(2)
C52_10 C 0.1001(2) 0.6538(2) 0.3087(2)
C53_10 C 0.5457(3) 0.6088(2) 0.3875(3)
C54_10 C 0.6088(2) 0.3875(3) 0.5457(3)
O28_10 O 0.5120(3) 0.61683(17) 0.3969(3)
O29_10 O 0.61683(17) 0.3969(3) 0.5120(3)
Zn3_5 Zn 1.0000 0.7500 0.14072(3)
Zn1_8 Zn 0.2500 0.35928(3) 0.0000
O1_9 O 0.20819(11) 0.38533(11) 0.02492(12)
C1_11 C 0.15577(16) 0.42462(17) 0.01717(16)
O2_11 O 0.12253(15) 0.43036(14) 0.13139(12)
C9_11 C 0.09343(19) 0.46134(19) 0.04193(18)
H4_11 H 0.0727 0.4739 0.0509
C10_11 C 0.11954(19) 0.44849(19) 0.06653(17)
C11_11 C 0.18840(18) 0.40528(17) 0.00228(18)
C13_11 C 0.14965(17) 0.42909(17) 0.05353(18)
H7_11 H 0.1662 0.4188 0.0704
C14_11 C 0.09727(17) 0.45609(16) 0.00419(18)
C18_11 C 0.1125(3) 0.4543(3) 0.1088(2)
O8_11 O 0.1031(3) 0.4880(3) 0.11683(17)
N6_11 N 0.04732(14) 0.51947(14) 0.00697(14)
C22_11 C 0.02058(16) 0.54552(16) 0.00635(16)
O14_13 O 0.18036(14) 0.37253(15) 0.11861(12)
O17_9 O 0.25922(12) 0.32700(12) 0.04301(11)
N10_11 N 0.02182(14) 0.57133(14) 0.03331(16)
H10_11 H 0.0421 0.5717 0.0459
O23_9 O 0.11791(14) 0.33907(14) 0.16261(15)
O25_11 O 0.03177(14) 0.69807(15) 0.09114(17)
C42_11 C 0.00808(17) 0.63027(18) 0.06098(16)
H20_11 H 0.0334 0.6351 0.0627
Zn1_9 Zn 0.2500 0.35928(3) 1.0000
N1_11 N 0.01947(14) 0.49303(14) 0.95268(14)
C2_11 C 0.04552(16) 0.49365(16) 0.97942(16)
N2_11 N 0.25410(15) 0.20377(14) 0.80462(15)
O3_8 O 0.24078(12) 0.32700(12) 0.95699(11)
C3_11 C 0.27396(17) 0.23231(18) 0.81473(17)
C4_11 C 0.21198(18) 0.27456(18) 0.92907(17)
C5_11 C 0.18369(18) 0.22177(18) 0.90034(18)
N3_11 N 0.07133(14) 0.46669(16) 0.97818(14)
H1_11 H 0.0717 0.4541 0.9579
C6_11 C 0.23739(17) 0.24931(17) 0.87181(17)
O4_11 O 0.19474(16) 0.30058(16) 0.98673(15)
O6_11 O 0.19807(15) 0.40886(17) 0.96823(14)
C7_11 C 0.21020(18) 0.22130(19) 0.87249(18)
H2_11 H 0.2100 0.2028 0.8545
C8_11 C 0.23813(18) 0.27564(18) 0.89980(18)
H3_11 H 0.2560 0.2942 0.8994
O7_11 O 0.12539(16) 0.19788(17) 0.91631(16)
N4_11 N 0.26467(14) 0.25304(15) 0.84410(14)
H5_11 H 0.2781 0.2726 0.8465
C12_11 C 0.13027(18) 0.43902(16) 0.99192(17)
H6_11 H 0.1351 0.4373 0.9666
C15_11 C 0.18461(18) 0.24767(18) 0.92826(19)
H8_11 H 0.1667 0.2471 0.9468
C16_11 C 0.21636(19) 0.30252(18) 0.96066(17)
C17_11 C 0.1538(2) 0.1913(2) 0.8999(2)
O11_6 O 0.29181(11) 0.38533(11) 0.97508(12)
N7_11 N 0.29623(14) 0.19538(15) 0.75410(15)
N8_11 N 0.30462(15) 0.24590(15) 0.79623(14)
O15_11 O 0.17300(12) 0.04301(11) 0.74078(12)
O16_10 O 0.45699(11) 0.25922(12) 0.67300(12)
C23_11 C 0.26769(18) 0.18527(17) 0.77396(17)
C24_11 C 0.31473(17) 0.22604(17) 0.76769(18)
C25_11 C 0.22544(18) 0.07093(17) 0.71198(18)
C26_11 C 0.42907(17) 0.28802(18) 0.72544(18)
C27_11 C 0.27823(18) 0.09966(18) 0.68369(18)
C28_11 C 0.40034(18) 0.31631(18) 0.77823(18)
C29_11 C 0.25069(17) 0.12819(17) 0.73739(17)
C30_11 C 0.37181(17) 0.26261(17) 0.75069(17)
O18_11 O 0.19942(16) 0.01327(15) 0.69474(16)
O19_11 O 0.48673(15) 0.30526(16) 0.69942(16)
O20_8 O 0.33739(15) 0.11791(14) 0.66093(14)
C31_11 C 0.27870(19) 0.12751(18) 0.71020(18)
C32_11 C 0.37249(18) 0.28980(18) 0.77870(19)
H11_11 H 0.2972 0.1455 0.7100
H12_11 H 0.3545 0.2900 0.7972
C33_11 C 0.22436(18) 0.10020(18) 0.73813(18)
C34_11 C 0.39980(18) 0.26187(18) 0.72436(18)
H13_11 H 0.2058 0.1006 0.7560
H14_11 H 0.3994 0.2440 0.7058
O26_11 O 0.30212(17) 0.08369(16) 0.62539(16)
O27_11 O 0.41631(16) 0.37461(16) 0.80212(17)
N11_11 N 0.24696(15) 0.15590(14) 0.76467(14)
N12_11 N 0.34410(14) 0.23533(14) 0.74696(15)
H17_11 H 0.2274 0.1535 0.7781
H18_11 H 0.3465 0.2219 0.7274
C47_11 C 0.25233(18) 0.07174(19) 0.68461(18)
C48_11 C 0.42826(19) 0.31539(18) 0.75233(18)
H23_11 H 0.2529 0.0532 0.6667
H24_11 H 0.4468 0.3333 0.7529
C49_11 C 0.19748(18) 0.03934(17) 0.71636(19)
C50_11 C 0.46066(17) 0.28364(19) 0.69748(18)
C51_11 C 0.3087(2) 0.1001(2) 0.6538(2)
C52_11 C 0.3999(2) 0.3462(2) 0.8087(2)
O10_10 O 0.97508(12) 0.70819(11) 0.11467(11)
C20_11 C 0.98283(16) 0.65577(16) 0.07538(17)
C36_11 C 0.95807(18) 0.59343(19) 0.03866(19)
H16_11 H 0.9491 0.5727 0.0261
C38_11 C 0.93347(17) 0.61954(19) 0.05151(19)
C40_11 C 0.99772(18) 0.68840(18) 0.09472(17)
C44_11 C 0.94647(18) 0.64965(17) 0.07091(17)
H22_11 H 0.9296 0.6662 0.0812
C46_11 C 0.99581(18) 0.59727(17) 0.04391(16)
C54_11 C 0.8912(2) 0.6125(3) 0.0457(3)
O29_11 O 0.88317(17) 0.6031(3) 0.0120(3)
O9_10 O 0.88533(11) 0.47508(12) 0.79181(11)
N5_11 N 0.99303(14) 0.54732(14) 0.98053(14)
C19_11 C 0.92462(17) 0.48283(16) 0.84423(16)
C21_11 C 0.99365(16) 0.52058(16) 0.95448(16)
O12_9 O 0.93036(14) 0.36861(12) 0.87747(15)
N9_11 N 0.96669(16) 0.52182(14) 0.92867(14)
H9_11 H 0.9541 0.5421 0.9283
O24_11 O 0.90886(17) 0.53177(14) 0.80193(15)
C35_11 C 0.96134(19) 0.45807(18) 0.90657(19)
H15_11 H 0.9739 0.4491 0.9273
C37_11 C 0.94849(19) 0.43347(17) 0.88046(19)
C39_11 C 0.90528(17) 0.49772(18) 0.81160(18)
C41_11 C 0.93902(16) 0.50808(17) 0.86973(18)
H19_11 H 0.9373 0.5334 0.8649
C43_11 C 0.92909(17) 0.44647(18) 0.85035(17)
H21_11 H 0.9188 0.4296 0.8338
C45_11 C 0.95609(16) 0.49581(18) 0.90273(17)
C53_11 C 0.9543(3) 0.3912(2) 0.8875(3)
O28_11 O 0.9880(3) 0.38317(17) 0.8969(3)
O1_10 O 0.61467(11) 0.47508(12) 0.20819(11)
N1_12 N 0.50697(14) 0.54732(14) 0.01947(14)
C1_12 C 0.57538(17) 0.48283(16) 0.15577(16)
C2_12 C 0.50635(16) 0.52058(16) 0.04552(16)
O2_12 O 0.56964(14) 0.36861(12) 0.12253(15)
N2_12 N 0.79623(14) 0.69538(15) 0.25410(15)
O3_9 O 0.67300(12) 0.54301(11) 0.24078(12)
C3_12 C 0.76769(18) 0.68527(17) 0.27396(17)
C4_12 C 0.72544(18) 0.57093(17) 0.21198(18)
C5_12 C 0.77823(18) 0.59966(18) 0.18369(18)
N3_12 N 0.53331(16) 0.52182(14) 0.07133(14)
H1_12 H 0.5459 0.5421 0.0717
C6_12 C 0.75069(17) 0.62819(17) 0.23739(17)
O4_12 O 0.69942(16) 0.51327(15) 0.19474(16)
O6_12 O 0.59114(17) 0.53177(14) 0.19807(15)
C7_12 C 0.77870(19) 0.62751(18) 0.21020(18)
H2_12 H 0.7972 0.6455 0.2100
C8_12 C 0.72436(18) 0.60020(18) 0.23813(18)
H3_12 H 0.7058 0.6006 0.2560
C9_12 C 0.53866(19) 0.45807(18) 0.09343(19)
H4_12 H 0.5261 0.4491 0.0727
C10_12 C 0.55151(19) 0.43347(17) 0.11954(19)
O7_12 O 0.80212(17) 0.58369(16) 0.12539(16)
N4_12 N 0.74696(15) 0.65590(14) 0.26467(14)
H5_12 H 0.7274 0.6535 0.2781
C11_12 C 0.59472(17) 0.49772(18) 0.18840(18)
C12_12 C 0.56098(16) 0.50808(17) 0.13027(18)
H6_12 H 0.5627 0.5334 0.1351
C13_12 C 0.57091(17) 0.44647(18) 0.14965(17)
H7_12 H 0.5812 0.4296 0.1662
C14_12 C 0.54391(16) 0.49581(18) 0.09727(17)
C15_12 C 0.75233(18) 0.57174(19) 0.18461(18)
H8_12 H 0.7529 0.5532 0.1667
C16_12 C 0.69748(18) 0.53934(17) 0.21636(19)
C17_12 C 0.8087(2) 0.6001(2) 0.1538(2)
C18_12 C 0.5457(3) 0.3912(2) 0.1125(3)
O8_12 O 0.5120(3) 0.38317(17) 0.1031(3)
N6_12 N 0.48053(14) 0.49303(14) 0.04732(14)
C22_12 C 0.45448(16) 0.49365(16) 0.02058(16)
N7_12 N 0.80462(15) 0.74590(15) 0.29623(14)
N8_12 N 0.75410(15) 0.70377(14) 0.30462(15)
O15_12 O 0.95699(11) 0.75922(12) 0.17300(12)
O17_10 O 0.67300(12) 0.45699(11) 0.25922(12)
C23_12 C 0.81473(17) 0.72604(17) 0.26769(18)
C24_12 C 0.77396(17) 0.73231(18) 0.31473(17)
C25_12 C 0.92907(17) 0.78802(18) 0.22544(18)
C26_12 C 0.71198(18) 0.77456(18) 0.42907(17)
C27_12 C 0.90034(18) 0.81631(18) 0.27823(18)
C28_12 C 0.68369(18) 0.72177(18) 0.40034(18)
N10_12 N 0.42867(14) 0.46669(16) 0.02182(14)
H10_12 H 0.4283 0.4541 0.0421
C29_12 C 0.87181(17) 0.76261(17) 0.25069(17)
C30_12 C 0.73739(17) 0.74931(17) 0.37181(17)
O18_12 O 0.98673(15) 0.80526(16) 0.19942(16)
O19_12 O 0.69474(16) 0.80058(16) 0.48673(15)
O21_7 O 0.66093(14) 0.66261(15) 0.38209(14)
O23_10 O 0.66093(14) 0.33739(15) 0.11791(14)
O25_12 O 0.30193(15) 0.40886(17) 0.03177(14)
C31_12 C 0.87249(18) 0.78980(18) 0.27870(19)
C32_12 C 0.71020(18) 0.72130(19) 0.37249(18)
H11_12 H 0.8545 0.7900 0.2972
H12_12 H 0.7100 0.7028 0.3545
C33_12 C 0.89980(18) 0.76187(18) 0.22436(18)
C34_12 C 0.73813(18) 0.77564(18) 0.39980(18)
H13_12 H 0.8994 0.7440 0.2058
H14_12 H 0.7560 0.7942 0.3994
O26_12 O 0.91631(16) 0.87461(16) 0.30212(17)
O27_12 O 0.62539(16) 0.69788(17) 0.41631(16)
N11_12 N 0.84410(14) 0.73533(14) 0.24696(15)
N12_12 N 0.76467(14) 0.75304(15) 0.34410(14)
H17_12 H 0.8465 0.7219 0.2274
H18_12 H 0.7781 0.7726 0.3465
C42_12 C 0.36973(18) 0.43902(16) 0.00808(17)
H20_12 H 0.3649 0.4373 0.0334
C47_12 C 0.92826(19) 0.81539(18) 0.25233(18)
C48_12 C 0.68461(18) 0.74767(18) 0.42826(19)
H23_12 H 0.9468 0.8333 0.2529
H24_12 H 0.6667 0.7471 0.4468
C49_12 C 0.96066(17) 0.78364(19) 0.19748(18)
C50_12 C 0.71636(19) 0.80252(18) 0.46066(17)
C51_12 C 0.8999(2) 0.8462(2) 0.3087(2)
C52_12 C 0.6538(2) 0.6913(2) 0.3999(2)
O9_11 O 0.52492(12) 0.70819(11) 0.88533(11)
N5_12 N 0.45268(14) 0.51947(14) 0.99303(14)
C19_12 C 0.51717(16) 0.65577(16) 0.92462(17)
C20_12 C 0.34423(16) 0.42462(17) 0.98283(16)
C21_12 C 0.47942(16) 0.54552(16) 0.99365(16)
N9_12 N 0.47818(14) 0.57133(14) 0.96669(16)
H9_12 H 0.4579 0.5717 0.9541
O24_12 O 0.46823(14) 0.69807(15) 0.90886(17)
C35_12 C 0.54193(18) 0.59343(19) 0.96134(19)
C36_12 C 0.40657(19) 0.46134(19) 0.95807(18)
H15_12 H 0.5509 0.5727 0.9739
H16_12 H 0.4273 0.4739 0.9491
C37_12 C 0.56653(17) 0.61954(19) 0.94849(19)
C38_12 C 0.38046(19) 0.44849(19) 0.93347(17)
C39_12 C 0.50228(18) 0.68840(18) 0.90528(17)
C40_12 C 0.31160(18) 0.40528(17) 0.99772(18)
C41_12 C 0.49192(17) 0.63027(18) 0.93902(16)
H19_12 H 0.4666 0.6351 0.9373
C43_12 C 0.55353(18) 0.64965(17) 0.92909(17)
C44_12 C 0.35035(17) 0.42909(17) 0.94647(18)
H21_12 H 0.5704 0.6662 0.9188
H22_12 H 0.3338 0.4188 0.9296
C45_12 C 0.50419(18) 0.59727(17) 0.95609(16)
C46_12 C 0.40273(17) 0.45609(16) 0.99581(18)
C53_12 C 0.6088(2) 0.6125(3) 0.9543(3)
C54_12 C 0.3875(3) 0.4543(3) 0.8912(2)
O28_12 O 0.61683(17) 0.6031(3) 0.9880(3)
O29_12 O 0.3969(3) 0.4880(3) 0.88317(17)
Zn6_9 Zn 0.7500 0.14072(3) 0.0000
O1_11 O 0.47508(12) 0.20819(11) 0.61467(11)
N1_13 N 0.54732(14) 0.01947(14) 0.50697(14)
C1_13 C 0.48283(16) 0.15577(16) 0.57538(17)
C2_13 C 0.52058(16) 0.04552(16) 0.50635(16)
O2_13 O 0.36861(12) 0.12253(15) 0.56964(14)
N2_13 N 0.69538(15) 0.25410(15) 0.79623(14)
O3_10 O 0.54301(11) 0.24078(12) 0.67300(12)
C3_13 C 0.68527(17) 0.27396(17) 0.76769(18)
C4_13 C 0.57093(17) 0.21198(18) 0.72544(18)
C5_13 C 0.59966(18) 0.18369(18) 0.77823(18)
N3_13 N 0.52182(14) 0.07133(14) 0.53331(16)
H1_13 H 0.5421 0.0717 0.5459
C6_13 C 0.62819(17) 0.23739(17) 0.75069(17)
O4_13 O 0.51327(15) 0.19474(16) 0.69942(16)
O6_13 O 0.53177(14) 0.19807(15) 0.59114(17)
C7_13 C 0.62751(18) 0.21020(18) 0.77870(19)
H2_13 H 0.6455 0.2100 0.7972
C8_13 C 0.60020(18) 0.23813(18) 0.72436(18)
H3_13 H 0.6006 0.2560 0.7058
C9_13 C 0.45807(18) 0.09343(19) 0.53866(19)
H4_13 H 0.4491 0.0727 0.5261
C10_13 C 0.43347(17) 0.11954(19) 0.55151(19)
O7_13 O 0.58369(16) 0.12539(16) 0.80212(17)
N4_13 N 0.65590(14) 0.26467(14) 0.74696(15)
H5_13 H 0.6535 0.2781 0.7274
C11_13 C 0.49772(18) 0.18840(18) 0.59472(17)
C12_13 C 0.50808(17) 0.13027(18) 0.56098(16)
H6_13 H 0.5334 0.1351 0.5627
C13_13 C 0.44647(18) 0.14965(17) 0.57091(17)
H7_13 H 0.4296 0.1662 0.5812
C14_13 C 0.49581(18) 0.09727(17) 0.54391(16)
C15_13 C 0.57174(19) 0.18461(18) 0.75233(18)
H8_13 H 0.5532 0.1667 0.7529
C16_13 C 0.53934(17) 0.21636(19) 0.69748(18)
C17_13 C 0.6001(2) 0.1538(2) 0.8087(2)
C18_13 C 0.3912(2) 0.1125(3) 0.5457(3)
O8_13 O 0.38317(17) 0.1031(3) 0.5120(3)
Zn6_10 Zn 0.7500 0.14072(3) 1.0000
N6_13 N 0.49303(14) 0.04732(14) 0.48053(14)
C22_13 C 0.49365(16) 0.02058(16) 0.45448(16)
N7_13 N 0.74590(15) 0.29623(14) 0.80462(15)
N8_13 N 0.70377(14) 0.30462(15) 0.75410(15)
O15_13 O 0.75922(12) 0.17300(12) 0.95699(11)
O16_11 O 0.82700(12) 0.45699(11) 0.74078(12)
C23_13 C 0.72604(17) 0.26769(18) 0.81473(17)
C24_13 C 0.73231(18) 0.31473(17) 0.77396(17)
C25_13 C 0.78802(18) 0.22544(18) 0.92907(17)
C26_13 C 0.77456(18) 0.42907(17) 0.71198(18)
C27_13 C 0.81631(18) 0.27823(18) 0.90034(18)
C28_13 C 0.72177(18) 0.40034(18) 0.68369(18)
N10_13 N 0.46669(16) 0.02182(14) 0.42867(14)
H10_13 H 0.4541 0.0421 0.4283
C29_13 C 0.76261(17) 0.25069(17) 0.87181(17)
C30_13 C 0.74931(17) 0.37181(17) 0.73739(17)
O18_13 O 0.80526(16) 0.19942(16) 0.98673(15)
O19_13 O 0.80058(16) 0.48673(15) 0.69474(16)
O20_9 O 0.83907(14) 0.33739(15) 0.88209(14)
O21_8 O 0.66261(15) 0.38209(14) 0.66093(14)
O25_13 O 0.40886(17) 0.03177(14) 0.30193(15)
C31_13 C 0.78980(18) 0.27870(19) 0.87249(18)
C32_13 C 0.72130(19) 0.37249(18) 0.71020(18)
H11_13 H 0.7900 0.2972 0.8545
H12_13 H 0.7028 0.3545 0.7100
C33_13 C 0.76187(18) 0.22436(18) 0.89980(18)
C34_13 C 0.77564(18) 0.39980(18) 0.73813(18)
H13_13 H 0.7440 0.2058 0.8994
H14_13 H 0.7942 0.3994 0.7560
O26_13 O 0.87461(16) 0.30212(17) 0.91631(16)
O27_13 O 0.69788(17) 0.41631(16) 0.62539(16)
N11_13 N 0.73533(14) 0.24696(15) 0.84410(14)
N12_13 N 0.75304(15) 0.34410(14) 0.76467(14)
H17_13 H 0.7219 0.2274 0.8465
H18_13 H 0.7726 0.3465 0.7781
C42_13 C 0.43902(16) 0.00808(17) 0.36973(18)
H20_13 H 0.4373 0.0334 0.3649
C47_13 C 0.81539(18) 0.25233(18) 0.92826(19)
C48_13 C 0.74767(18) 0.42826(19) 0.68461(18)
H23_13 H 0.8333 0.2529 0.9468
H24_13 H 0.7471 0.4468 0.6667
C49_13 C 0.78364(19) 0.19748(18) 0.96066(17)
C50_13 C 0.80252(18) 0.46066(17) 0.71636(19)
C51_13 C 0.8462(2) 0.3087(2) 0.8999(2)
C52_13 C 0.6913(2) 0.3999(2) 0.6538(2)
O10_11 O 0.38533(11) 0.97508(12) 0.29181(11)
N5_13 N 0.51947(14) 0.99303(14) 0.45268(14)
C19_13 C 0.65577(16) 0.92462(17) 0.51717(16)
C20_13 C 0.42462(17) 0.98283(16) 0.34423(16)
C21_13 C 0.54552(16) 0.99365(16) 0.47942(16)
N9_13 N 0.57133(14) 0.96669(16) 0.47818(14)
H9_13 H 0.5717 0.9541 0.4579
O24_13 O 0.69807(15) 0.90886(17) 0.46823(14)
C35_13 C 0.59343(19) 0.96134(19) 0.54193(18)
C36_13 C 0.46134(19) 0.95807(18) 0.40657(19)
H15_13 H 0.5727 0.9739 0.5509
H16_13 H 0.4739 0.9491 0.4273
C37_13 C 0.61954(19) 0.94849(19) 0.56653(17)
C38_13 C 0.44849(19) 0.93347(17) 0.38046(19)
C39_13 C 0.68840(18) 0.90528(17) 0.50228(18)
C40_13 C 0.40528(17) 0.99772(18) 0.31160(18)
C41_13 C 0.63027(18) 0.93902(16) 0.49192(17)
H19_13 H 0.6351 0.9373 0.4666
C43_13 C 0.64965(17) 0.92909(17) 0.55353(18)
C44_13 C 0.42909(17) 0.94647(18) 0.35035(17)
H21_13 H 0.6662 0.9188 0.5704
H22_13 H 0.4188 0.9296 0.3338
C45_13 C 0.59727(17) 0.95609(16) 0.50419(18)
C46_13 C 0.45609(16) 0.99581(18) 0.40273(17)
C53_13 C 0.6125(3) 0.9543(3) 0.6088(2)
C54_13 C 0.4543(3) 0.8912(2) 0.3875(3)
O28_13 O 0.6031(3) 0.9880(3) 0.61683(17)
O29_13 O 0.4880(3) 0.88317(17) 0.3969(3)
O1_12 O 0.38533(11) 0.02492(12) 0.20819(11)
C1_14 C 0.42462(17) 0.01717(16) 0.15577(16)
O2_14 O 0.43036(14) 0.13139(12) 0.12253(15)
C9_14 C 0.46134(19) 0.04193(18) 0.09343(19)
H4_14 H 0.4739 0.0509 0.0727
C10_14 C 0.44849(19) 0.06653(17) 0.11954(19)
C11_14 C 0.40528(17) 0.00228(18) 0.18840(18)
C13_14 C 0.42909(17) 0.05353(18) 0.14965(17)
H7_14 H 0.4188 0.0704 0.1662
C14_14 C 0.45609(16) 0.00419(18) 0.09727(17)
C18_14 C 0.4543(3) 0.1088(2) 0.1125(3)
O8_14 O 0.4880(3) 0.11683(17) 0.1031(3)
N6_14 N 0.51947(14) 0.00697(14) 0.04732(14)
C22_14 C 0.54552(16) 0.00635(16) 0.02058(16)
O14_14 O 0.37253(15) 0.11861(12) 0.18036(14)
O17_11 O 0.32700(12) 0.04301(11) 0.25922(12)
N10_14 N 0.57133(14) 0.03331(16) 0.02182(14)
H10_14 H 0.5717 0.0459 0.0421
O23_11 O 0.33907(14) 0.16261(15) 0.11791(14)
O25_14 O 0.69807(15) 0.09114(17) 0.03177(14)
C42_14 C 0.63027(18) 0.06098(16) 0.00808(17)
H20_14 H 0.6351 0.0627 0.0334
O10_12 O 0.70819(11) 0.11467(11) 0.97508(12)
C20_14 C 0.65577(16) 0.07538(17) 0.98283(16)
C36_14 C 0.59343(19) 0.03866(19) 0.95807(18)
H16_14 H 0.5727 0.0261 0.9491
C38_14 C 0.61954(19) 0.05151(19) 0.93347(17)
C40_14 C 0.68840(18) 0.09472(17) 0.99772(18)
C44_14 C 0.64965(17) 0.07091(17) 0.94647(18)
H22_14 H 0.6662 0.0812 0.9296
C46_14 C 0.59727(17) 0.04391(16) 0.99581(18)
C54_14 C 0.6125(3) 0.0457(3) 0.8912(2)
O29_14 O 0.6031(3) 0.0120(3) 0.88317(17)
N1_14 N 0.49303(14) 0.95268(14) 0.01947(14)
C2_14 C 0.49365(16) 0.97942(16) 0.04552(16)
N3_14 N 0.46669(16) 0.97818(14) 0.07133(14)
H1_14 H 0.4541 0.9579 0.0717
O6_14 O 0.40886(17) 0.96823(14) 0.19807(15)
C12_14 C 0.43902(16) 0.99192(17) 0.13027(18)
H6_14 H 0.4373 0.9666 0.1351
O9_12 O 0.47508(12) 0.79181(11) 0.88533(11)
N5_14 N 0.54732(14) 0.98053(14) 0.99303(14)
C19_14 C 0.48283(16) 0.84423(16) 0.92462(17)
C21_14 C 0.52058(16) 0.95448(16) 0.99365(16)
O12_10 O 0.36861(12) 0.87747(15) 0.93036(14)
N9_14 N 0.52182(14) 0.92867(14) 0.96669(16)
H9_14 H 0.5421 0.9283 0.9541
O24_14 O 0.53177(14) 0.80193(15) 0.90886(17)
C35_14 C 0.45807(18) 0.90657(19) 0.96134(19)
H15_14 H 0.4491 0.9273 0.9739
C37_14 C 0.43347(17) 0.88046(19) 0.94849(19)
C39_14 C 0.49772(18) 0.81160(18) 0.90528(17)
C41_14 C 0.50808(17) 0.86973(18) 0.93902(16)
H19_14 H 0.5334 0.8649 0.9373
C43_14 C 0.44647(18) 0.85035(17) 0.92909(17)
H21_14 H 0.4296 0.8338 0.9188
C45_14 C 0.49581(18) 0.90273(17) 0.95609(16)
C53_14 C 0.3912(2) 0.8875(3) 0.9543(3)
O28_14 O 0.38317(17) 0.8969(3) 0.9880(3)
N2_14 N 0.79623(14) 0.30462(15) 0.24590(15)
C3_14 C 0.76769(18) 0.31473(17) 0.22604(17)
C4_14 C 0.72544(18) 0.42907(17) 0.28802(18)
C5_14 C 0.77823(18) 0.40034(18) 0.31631(18)
C6_14 C 0.75069(17) 0.37181(17) 0.26261(17)
O4_14 O 0.69942(16) 0.48673(15) 0.30526(16)
C7_14 C 0.77870(19) 0.37249(18) 0.28980(18)
H2_14 H 0.7972 0.3545 0.2900
C8_14 C 0.72436(18) 0.39980(18) 0.26187(18)
H3_14 H 0.7058 0.3994 0.2440
O7_14 O 0.80212(17) 0.41631(16) 0.37461(16)
N4_14 N 0.74696(15) 0.34410(14) 0.23533(14)
H5_14 H 0.7274 0.3465 0.2219
C15_14 C 0.75233(18) 0.42826(19) 0.31539(18)
H8_14 H 0.7529 0.4468 0.3333
C16_14 C 0.69748(18) 0.46066(17) 0.28364(19)
C17_14 C 0.8087(2) 0.3999(2) 0.3462(2)
N7_14 N 0.80462(15) 0.25410(15) 0.20377(14)
N8_14 N 0.75410(15) 0.29623(14) 0.19538(15)
O15_14 O 0.95699(11) 0.24078(12) 0.32700(12)
O16_12 O 0.74078(12) 0.17300(12) 0.04301(11)
C23_14 C 0.81473(17) 0.27396(17) 0.23231(18)
C24_14 C 0.77396(17) 0.26769(18) 0.18527(17)
C25_14 C 0.92907(17) 0.21198(18) 0.27456(18)
C26_14 C 0.71198(18) 0.22544(18) 0.07093(17)
C27_14 C 0.90034(18) 0.18369(18) 0.22177(18)
C28_14 C 0.68369(18) 0.27823(18) 0.09966(18)
C29_14 C 0.87181(17) 0.23739(17) 0.24931(17)
C30_14 C 0.73739(17) 0.25069(17) 0.12819(17)
O18_14 O 0.98673(15) 0.19474(16) 0.30058(16)
O19_14 O 0.69474(16) 0.19942(16) 0.01327(15)
C31_14 C 0.87249(18) 0.21020(18) 0.22130(19)
C32_14 C 0.71020(18) 0.27870(19) 0.12751(18)
H11_14 H 0.8545 0.2100 0.2028
H12_14 H 0.7100 0.2972 0.1455
C33_14 C 0.89980(18) 0.23813(18) 0.27564(18)
C34_14 C 0.73813(18) 0.22436(18) 0.10020(18)
H13_14 H 0.8994 0.2560 0.2942
H14_14 H 0.7560 0.2058 0.1006
O26_14 O 0.91631(16) 0.12539(16) 0.19788(17)
O27_14 O 0.62539(16) 0.30212(17) 0.08369(16)
N11_14 N 0.84410(14) 0.26467(14) 0.25304(15)
N12_14 N 0.76467(14) 0.24696(15) 0.15590(14)
H17_14 H 0.8465 0.2781 0.2726
H18_14 H 0.7781 0.2274 0.1535
C47_14 C 0.92826(19) 0.18461(18) 0.24767(18)
C48_14 C 0.68461(18) 0.25233(18) 0.07174(19)
H23_14 H 0.9468 0.1667 0.2471
H24_14 H 0.6667 0.2529 0.0532
C49_14 C 0.96066(17) 0.21636(19) 0.30252(18)
C50_14 C 0.71636(19) 0.19748(18) 0.03934(17)
C51_14 C 0.8999(2) 0.1538(2) 0.1913(2)
C52_14 C 0.6538(2) 0.3087(2) 0.1001(2)
O14_15 O 0.11861(12) 0.18036(14) 0.37253(15)
O17_12 O 0.04301(11) 0.25922(12) 0.32700(12)
O23_12 O 0.16261(15) 0.11791(14) 0.33907(14)
O11_7 O 0.13533(11) 0.45819(11) 0.22508(12)
C27_15 C 0.15034(18) 0.02823(18) 0.93369(18)
C29_15 C 0.12181(17) 0.00069(17) 0.98739(17)
C31_15 C 0.12249(18) 0.02870(19) 0.96020(18)
H11_15 H 0.1045 0.0472 0.9600
H14_15 H 0.0060 0.1494 0.9558
O26_15 O 0.16631(16) 0.05212(17) 0.87539(16)
N12_15 N 0.01467(14) 0.09410(14) 0.99696(15)
H18_15 H 0.0281 0.0965 0.9774
C47_15 C 0.17826(19) 0.00233(18) 0.93461(18)
H23_15 H 0.1968 0.0029 0.9167
C51_15 C 0.1499(2) 0.0587(2) 0.9038(2)
C5_15 C 0.02823(18) 0.93369(18) 0.15034(18)
C6_15 C 0.00069(17) 0.98739(17) 0.12181(17)
C7_15 C 0.02870(19) 0.96020(18) 0.12249(18)
H2_15 H 0.0472 0.9600 0.1045
O7_15 O 0.05212(17) 0.87539(16) 0.16631(16)
C15_15 C 0.00233(18) 0.93461(18) 0.17826(19)
H8_15 H 0.0029 0.9167 0.1968
C17_15 C 0.0587(2) 0.9038(2) 0.1499(2)
H13_15 H 0.1494 0.9558 0.0060
N11_15 N 0.09410(14) 0.99696(15) 0.01467(14)
H17_15 H 0.0965 0.9774 0.0281
C25_15 C 0.17907(17) 0.97544(18) 0.96198(18)
O18_15 O 0.23673(15) 0.94942(16) 0.94474(16)
C33_15 C 0.14980(18) 0.97436(18) 0.98813(18)
C49_15 C 0.21066(17) 0.94748(18) 0.96636(19)
H3_15 H 0.9558 0.0060 0.1494
N4_15 N 0.99696(15) 0.01467(14) 0.09410(14)
H5_15 H 0.9774 0.0281 0.0965
C28_15 C 0.93369(18) 0.15034(18) 0.02823(18)
C30_15 C 0.98739(17) 0.12181(17) 0.00069(17)
C32_15 C 0.96020(18) 0.12249(18) 0.02870(19)
H12_15 H 0.9600 0.1045 0.0472
O27_15 O 0.87539(16) 0.16631(16) 0.05212(17)
C48_15 C 0.93461(18) 0.17826(19) 0.00233(18)
H24_15 H 0.9167 0.1968 0.0029
C52_15 C 0.9038(2) 0.1499(2) 0.0587(2)
C26_15 C 0.96198(18) 0.17907(17) 0.97544(18)
O19_15 O 0.94474(16) 0.23673(15) 0.94942(16)
C34_15 C 0.98813(18) 0.14980(18) 0.97436(18)
C50_15 C 0.96636(19) 0.21066(17) 0.94748(18)
C4_15 C 0.97544(18) 0.96198(18) 0.17907(17)
O4_15 O 0.94942(16) 0.94474(16) 0.23673(15)
C8_15 C 0.97436(18) 0.98813(18) 0.14980(18)
C16_15 C 0.94748(18) 0.96636(19) 0.21066(17)
N1_15 N 0.24303(14) 0.26947(14) 0.29732(14)
C1_15 C 0.17462(17) 0.40577(16) 0.23283(16)
C2_15 C 0.24365(16) 0.29552(16) 0.27058(16)
N3_15 N 0.21669(16) 0.32133(14) 0.27182(14)
H1_15 H 0.2041 0.3217 0.2921
O6_15 O 0.15886(17) 0.44807(15) 0.28177(14)
C9_15 C 0.21134(19) 0.34343(19) 0.20807(18)
H4_15 H 0.2239 0.3227 0.1991
C10_15 C 0.19849(19) 0.36954(19) 0.18347(17)
C11_15 C 0.15528(17) 0.43840(18) 0.24772(18)
C12_15 C 0.18902(16) 0.38027(18) 0.25808(17)
H6_15 H 0.1873 0.3851 0.2834
C13_15 C 0.17909(17) 0.39965(17) 0.19647(18)
H7_15 H 0.1688 0.4162 0.1796
C14_15 C 0.20609(16) 0.34727(17) 0.24581(18)
C18_15 C 0.2043(3) 0.3625(3) 0.1412(2)
O8_15 O 0.2380(3) 0.3531(3) 0.13317(17)
O9_13 O 0.22508(12) 0.13533(11) 0.45819(11)
O10_13 O 0.45819(11) 0.22508(12) 0.13533(11)
N5_15 N 0.29732(14) 0.24303(14) 0.26947(14)
N6_15 N 0.26947(14) 0.29732(14) 0.24303(14)
C19_15 C 0.23283(16) 0.17462(17) 0.40577(16)
C20_15 C 0.40577(16) 0.23283(16) 0.17462(17)
C21_15 C 0.27058(16) 0.24365(16) 0.29552(16)
C22_15 C 0.29552(16) 0.27058(16) 0.24365(16)
N9_15 N 0.27182(14) 0.21669(16) 0.32133(14)
N10_15 N 0.32133(14) 0.27182(14) 0.21669(16)
H9_15 H 0.2921 0.2041 0.3217
H10_15 H 0.3217 0.2921 0.2041
O24_15 O 0.28177(14) 0.15886(17) 0.44807(15)
O25_15 O 0.44807(15) 0.28177(14) 0.15886(17)
C35_15 C 0.20807(18) 0.21134(19) 0.34343(19)
C36_15 C 0.34343(19) 0.20807(18) 0.21134(19)
H15_15 H 0.1991 0.2239 0.3227
H16_15 H 0.3227 0.1991 0.2239
C37_15 C 0.18347(17) 0.19849(19) 0.36954(19)
C38_15 C 0.36954(19) 0.18347(17) 0.19849(19)
C39_15 C 0.24772(18) 0.15528(17) 0.43840(18)
C40_15 C 0.43840(18) 0.24772(18) 0.15528(17)
C41_15 C 0.25808(17) 0.18902(16) 0.38027(18)
C42_15 C 0.38027(18) 0.25808(17) 0.18902(16)
H19_15 H 0.2834 0.1873 0.3851
H20_15 H 0.3851 0.2834 0.1873
C43_15 C 0.19647(18) 0.17909(17) 0.39965(17)
C44_15 C 0.39965(17) 0.19647(18) 0.17909(17)
H21_15 H 0.1796 0.1688 0.4162
H22_15 H 0.4162 0.1796 0.1688
C45_15 C 0.24581(18) 0.20609(16) 0.34727(17)
C46_15 C 0.34727(17) 0.24581(18) 0.20609(16)
C53_15 C 0.1412(2) 0.2043(3) 0.3625(3)
C54_15 C 0.3625(3) 0.1412(2) 0.2043(3)
O28_15 O 0.13317(17) 0.2380(3) 0.3531(3)
O29_15 O 0.3531(3) 0.13317(17) 0.2380(3)
O11_8 O 0.79181(11) 0.11467(11) 0.02492(12)
N2_15 N 0.24590(15) 0.20377(14) 0.19538(15)
C3_15 C 0.22604(17) 0.23231(18) 0.18527(17)
C4_16 C 0.28802(18) 0.27456(18) 0.07093(17)
C5_16 C 0.31631(18) 0.22177(18) 0.09966(18)
C6_16 C 0.26261(17) 0.24931(17) 0.12819(17)
O4_16 O 0.30526(16) 0.30058(16) 0.01327(15)
C7_16 C 0.28980(18) 0.22130(19) 0.12751(18)
H2_16 H 0.2900 0.2028 0.1455
C8_16 C 0.26187(18) 0.27564(18) 0.10020(18)
H3_16 H 0.2440 0.2942 0.1006
O7_16 O 0.37461(16) 0.19788(17) 0.08369(16)
N4_16 N 0.23533(14) 0.25304(15) 0.15590(14)
H5_16 H 0.2219 0.2726 0.1535
C15_16 C 0.31539(18) 0.24767(18) 0.07174(19)
H8_16 H 0.3333 0.2471 0.0532
C16_16 C 0.28364(19) 0.30252(18) 0.03934(17)
C17_16 C 0.3462(2) 0.1913(2) 0.1001(2)
N7_15 N 0.20377(14) 0.19538(15) 0.24590(15)
N8_15 N 0.19538(15) 0.24590(15) 0.20377(14)
C23_15 C 0.23231(18) 0.18527(17) 0.22604(17)
C24_15 C 0.18527(17) 0.22604(17) 0.23231(18)
C25_16 C 0.27456(18) 0.07093(17) 0.28802(18)
C26_16 C 0.07093(17) 0.28802(18) 0.27456(18)
C27_16 C 0.22177(18) 0.09966(18) 0.31631(18)
C28_16 C 0.09966(18) 0.31631(18) 0.22177(18)
C29_16 C 0.24931(17) 0.12819(17) 0.26261(17)
C30_16 C 0.12819(17) 0.26261(17) 0.24931(17)
O18_16 O 0.30058(16) 0.01327(15) 0.30526(16)
O19_16 O 0.01327(15) 0.30526(16) 0.30058(16)
C31_16 C 0.22130(19) 0.12751(18) 0.28980(18)
C32_16 C 0.12751(18) 0.28980(18) 0.22130(19)
H11_16 H 0.2028 0.1455 0.2900
H12_16 H 0.1455 0.2900 0.2028
C33_16 C 0.27564(18) 0.10020(18) 0.26187(18)
C34_16 C 0.10020(18) 0.26187(18) 0.27564(18)
H13_16 H 0.2942 0.1006 0.2440
H14_16 H 0.1006 0.2440 0.2942
O26_16 O 0.19788(17) 0.08369(16) 0.37461(16)
O27_16 O 0.08369(16) 0.37461(16) 0.19788(17)
N11_16 N 0.25304(15) 0.15590(14) 0.23533(14)
N12_16 N 0.15590(14) 0.23533(14) 0.25304(15)
H17_16 H 0.2726 0.1535 0.2219
H18_16 H 0.1535 0.2219 0.2726
C47_16 C 0.24767(18) 0.07174(19) 0.31539(18)
C48_16 C 0.07174(19) 0.31539(18) 0.24767(18)
H23_16 H 0.2471 0.0532 0.3333
H24_16 H 0.0532 0.3333 0.2471
C49_16 C 0.30252(18) 0.03934(17) 0.28364(19)
C50_16 C 0.03934(17) 0.28364(19) 0.30252(18)
C51_16 C 0.1913(2) 0.1001(2) 0.3462(2)
C52_16 C 0.1001(2) 0.3462(2) 0.1913(2)
O9_14 O 0.11467(11) 0.02492(12) 0.79181(11)
C19_16 C 0.07538(17) 0.01717(16) 0.84423(16)
C35_16 C 0.03866(19) 0.04193(18) 0.90657(19)
H15_16 H 0.0261 0.0509 0.9273
C37_16 C 0.05151(19) 0.06653(17) 0.88046(19)
C39_16 C 0.09472(17) 0.00228(18) 0.81160(18)
C43_16 C 0.07091(17) 0.05353(18) 0.85035(17)
H21_16 H 0.0812 0.0704 0.8338
C45_16 C 0.04391(16) 0.00419(18) 0.90273(17)
C53_16 C 0.0457(3) 0.1088(2) 0.8875(3)
O28_16 O 0.0120(3) 0.11683(17) 0.8969(3)
O10_14 O 0.02492(12) 0.79181(11) 0.11467(11)
C20_16 C 0.01717(16) 0.84423(16) 0.07538(17)
C36_16 C 0.04193(18) 0.90657(19) 0.03866(19)
H16_16 H 0.0509 0.9273 0.0261
C38_16 C 0.06653(17) 0.88046(19) 0.05151(19)
C40_16 C 0.00228(18) 0.81160(18) 0.09472(17)
C44_16 C 0.05353(18) 0.85035(17) 0.07091(17)
H22_16 H 0.0704 0.8338 0.0812
C46_16 C 0.00419(18) 0.90273(17) 0.04391(16)
C54_16 C 0.1088(2) 0.8875(3) 0.0457(3)
O29_16 O 0.11683(17) 0.8969(3) 0.0120(3)
N5_16 N 0.00697(14) 0.95268(14) 0.98053(14)
C21_16 C 0.00635(16) 0.97942(16) 0.95448(16)
N9_16 N 0.03331(16) 0.97818(14) 0.92867(14)
H9_16 H 0.0459 0.9579 0.9283
O24_16 O 0.09114(17) 0.96823(14) 0.80193(15)
C41_16 C 0.06098(16) 0.99192(17) 0.86973(18)
H19_16 H 0.0627 0.9666 0.8649
C1_16 C 0.84423(16) 0.07538(17) 0.01717(16)
C9_16 C 0.90657(19) 0.03866(19) 0.04193(18)
H4_16 H 0.9273 0.0261 0.0509
C10_16 C 0.88046(19) 0.05151(19) 0.06653(17)
C11_16 C 0.81160(18) 0.09472(17) 0.00228(18)
C13_16 C 0.85035(17) 0.07091(17) 0.05353(18)
H7_16 H 0.8338 0.0812 0.0704
C14_16 C 0.90273(17) 0.04391(16) 0.00419(18)
C18_16 C 0.8875(3) 0.0457(3) 0.1088(2)
O8_16 O 0.8969(3) 0.0120(3) 0.11683(17)
N1_16 N 0.98053(14) 0.00697(14) 0.95268(14)
C2_16 C 0.95448(16) 0.00635(16) 0.97942(16)
N3_16 N 0.92867(14) 0.03331(16) 0.97818(14)
H1_16 H 0.9283 0.0459 0.9579
O6_16 O 0.80193(15) 0.09114(17) 0.96823(14)
C12_16 C 0.86973(18) 0.06098(16) 0.99192(17)
H6_16 H 0.8649 0.0627 0.9666
N6_16 N 0.95268(14) 0.98053(14) 0.00697(14)
C22_16 C 0.97942(16) 0.95448(16) 0.00635(16)
N10_16 N 0.97818(14) 0.92867(14) 0.03331(16)
H10_16 H 0.9579 0.9283 0.0459
O25_16 O 0.96823(14) 0.80193(15) 0.09114(17)
C42_16 C 0.99192(17) 0.86973(18) 0.06098(16)
H20_16 H 0.9666 0.8649 0.0627
N2_16 N 0.04623(14) 0.00410(15) 0.05462(15)
C3_16 C 0.01769(18) 0.02396(17) 0.06473(17)
N7_16 N 0.05462(15) 0.04623(14) 0.00410(15)
N8_16 N 0.00410(15) 0.05462(15) 0.04623(14)
C23_16 C 0.06473(17) 0.01769(18) 0.02396(17)
C24_16 C 0.02396(17) 0.06473(17) 0.01769(18)
loop_
_geom_bond_atom_site_label_1
_geom_bond_atom_site_label_2
_geom_bond_site_symmetry_1
_geom_bond_site_symmetry_2
Zn1 O1 1_555 1_555
Zn2 O2 1_555 1_555
O1 C11 1_555 1_555
N1 C2 1_555 1_555
C1 C11 1_555 1_555
C2 N3 1_555 1_555
O2 C18 1_555 1_555
O3 Zn1 1_555 1_555
C4 C8 1_555 1_555
C5 C7 1_555 1_555
N3 H1 1_555 1_555
C6 C7 1_555 1_555
O4 C16 1_555 1_555
O5 C17 1_555 1_555
O6 C11 1_555 1_555
C7 H2 1_555 1_555
C8 C6 1_555 1_555
C9 H4 1_555 1_555
C10 C9 1_555 1_555
O7 C17 1_555 1_555
C12 C1 1_555 1_555
H6 C12 1_555 1_555
C13 C1 1_555 1_555
H7 C13 1_555 1_555
C14 N3 1_555 1_555
C15 C4 1_555 1_555
H8 C15 1_555 1_555
C16 O3 1_555 1_555
C17 C5 1_555 1_555
C18 C10 1_555 1_555
O8 C18 1_555 1_555
Zn4 O9 1_555 1_555
Zn5_2 O10 1_555 1_555
Zn6 O15 1_555 1_555
Zn8 O5 1_555 1_555
Zn9 O13 1_555 1_555
Zn10 O12 1_555 1_555
O9 C39 1_555 1_555
O10 C40 1_555 1_555
N5 C21 1_555 1_555
N6 C2 1_555 1_555
C19 C39 1_555 1_555
C20 C40 1_555 1_555
C21 N1 1_555 1_555
C22 N5 1_555 1_555
O12 C53 1_555 1_555
O13 C54 1_555 1_555
O14 Zn2 1_555 1_555
O15 C49 1_555 1_555
C25 C33 1_555 1_555
N9 C21 1_555 1_555
N10 C22 1_555 1_555
H9 N9 1_555 1_555
H10 N10 1_555 1_555
O18 C49 1_555 1_555
O22 Zn2 1_555 1_555
O23 Zn2 1_555 1_555
O24 C39 1_555 1_555
O25 C40 1_555 1_555
H13 C33 1_555 1_555
C35 H15 1_555 1_555
C36 H16 1_555 1_555
C37 C35 1_555 1_555
C38 C36 1_555 1_555
H17 N11 1_555 1_555
C41 C19 1_555 1_555
C42 C20 1_555 1_555
H19 C41 1_555 1_555
H20 C42 1_555 1_555
C43 C19 1_555 1_555
C44 C20 1_555 1_555
H21 C43 1_555 1_555
H22 C44 1_555 1_555
C45 N9 1_555 1_555
C46 N10 1_555 1_555
C49 C25 1_555 1_555
C53 C37 1_555 1_555
C54 C38 1_555 1_555
O28 C53 1_555 1_555
O29 C54 1_555 1_555
C4 C16 1_555 1_555
C5 C15 1_555 1_555
C9 C14 1_555 1_555
C10 C13 1_555 1_555
C12 C14 1_555 1_555
N6 C22 1_555 1_555
C35 C45 1_555 1_555
C36 C46 1_555 1_555
C37 C43 1_555 1_555
C38 C44 1_555 1_555
C41 C45 1_555 1_555
C42 C46 1_555 1_555
N2 C3 1_555 1_555
C3 N4 1_555 1_555
H5 N4 1_555 1_555
Zn3 O16 1_555 1_555
Zn7 O20 1_555 1_555
Zn11 O21 1_555 1_555
O11 Zn1_2 1_555 1_555
N7 C23 1_555 1_555
N8 C3 1_555 1_555
O16 C50 1_555 1_555
O17 Zn1_2 1_555 1_555
C23 N2 1_555 1_555
C24 N7 1_555 1_555
C26 C34 1_555 1_555
C27 C31 1_555 1_555
C28 C32 1_555 1_555
C29 C31 1_555 1_555
C30 C32 1_555 1_555
O19 C50 1_555 1_555
O20 C51 1_555 1_555
O21 C52 1_555 1_555
C31 H11 1_555 1_555
C32 H12 1_555 1_555
C34 C30 1_555 1_555
H14 C34 1_555 1_555
O26 C51 1_555 1_555
O27 C52 1_555 1_555
N12 C24 1_555 1_555
H18 N12 1_555 1_555
C48 C26 1_555 1_555
H23 C47 1_555 1_555
H24 C48 1_555 1_555
C50 C26 1_555 1_555
C51 C27 1_555 1_555
C52 C28 1_555 1_555
N8 C24 1_555 1_555
C27 C47 1_555 1_555
C28 C48 1_555 1_555
C30 N12 1_555 1_555
Zn1_3 O1_2 1_555 1_555
Zn2_2 O2_2 1_555 1_555
O1_2 C11_2 1_555 1_555
N1_2 C2_2 1_555 1_555
C1_2 C11_2 1_555 1_555
C2_2 N3_2 1_555 1_555
O2_2 C18_2 1_555 1_555
N2_2 C3_2 1_555 1_555
O3_2 Zn1_3 1_555 1_555
C3_2 N4_2 1_555 1_555
C4_2 C8_2 1_555 1_555
C5_2 C7_2 1_555 1_555
N3_2 H1_2 1_555 1_555
C6_2 C7_2 1_555 1_555
O4_2 C16_2 1_555 1_555
O5_2 C17_2 1_555 1_555
O6_2 C11_2 1_555 1_555
C7_2 H2_2 1_555 1_555
C8_2 C6_2 1_555 1_555
H3_2 C8_2 1_555 1_555
C9_2 H4_2 1_555 1_555
C10_2 C9_2 1_555 1_555
O7_2 C17_2 1_555 1_555
N4_2 C6_2 1_555 1_555
H5_2 N4_2 1_555 1_555
C12_2 C1_2 1_555 1_555
H6_2 C12_2 1_555 1_555
C13_2 C1_2 1_555 1_555
H7_2 C13_2 1_555 1_555
C14_2 N3_2 1_555 1_555
C15_2 C4_2 1_555 1_555
H8_2 C15_2 1_555 1_555
C16_2 O3_2 1_555 1_555
C17_2 C5_2 1_555 1_555
C18_2 C10_2 1_555 1_555
O8_2 C18_2 1_555 1_555
Zn3 O16_2 1_555 1_555
Zn6 O9_2 1_555 1_555
Zn5 O10_2 1_555 1_555
Zn4 O15_2 1_555 1_555
Zn7_2 O20_2 1_555 1_555
Zn10 O5_2 1_555 1_555
Zn9_2 O13_2 1_555 1_555
Zn8 O12_2 1_555 1_555
Zn11_2 O21_2 1_555 1_555
O9_2 C39_2 1_555 1_555
O10_2 C40_2 1_555 1_555
O11_2 Zn1_3 1_555 1_555
N5_2 C21_2 1_555 1_555
N6_2 C2_2 1_555 1_555
C19_2 C39_2 1_555 1_555
C20_2 C40_2 1_555 1_555
C21_2 N1_2 1_555 1_555
C22_2 N5_2 1_555 1_555
O12_2 C53_2 1_555 1_555
O13_2 C54_2 1_555 1_555
O14_2 Zn2_2 1_555 1_555
N7_2 C23_2 1_555 1_555
N8_2 C3_2 1_555 1_555
O15_2 C49_2 1_555 1_555
O16_2 C50_2 1_555 1_555
O17_2 Zn1_3 1_555 1_555
C23_2 N2_2 1_555 1_555
C24_2 N7_2 1_555 1_555
C25_2 C33_2 1_555 1_555
C26_2 C34_2 1_555 1_555
C27_2 C31_2 1_555 1_555
C28_2 C32_2 1_555 1_555
N9_2 C21_2 1_555 1_555
N10_2 C22_2 1_555 1_555
H9_2 N9_2 1_555 1_555
H10_2 N10_2 1_555 1_555
C29_2 C31_2 1_555 1_555
C30_2 C32_2 1_555 1_555
O18_2 C49_2 1_555 1_555
O19_2 C50_2 1_555 1_555
O20_2 C51_2 1_555 1_555
O21_2 C52_2 1_555 1_555
O22_2 Zn2_2 1_555 1_555
O23_2 Zn2_2 1_555 1_555
O24_2 C39_2 1_555 1_555
O25_2 C40_2 1_555 1_555
C31_2 H11_2 1_555 1_555
C32_2 H12_2 1_555 1_555
C33_2 C29_2 1_555 1_555
C34_2 C30_2 1_555 1_555
H13_2 C33_2 1_555 1_555
H14_2 C34_2 1_555 1_555
C35_2 H15_2 1_555 1_555
C36_2 H16_2 1_555 1_555
C37_2 C35_2 1_555 1_555
C38_2 C36_2 1_555 1_555
O26_2 C51_2 1_555 1_555
O27_2 C52_2 1_555 1_555
N11_2 C23_2 1_555 1_555
N12_2 C24_2 1_555 1_555
H17_2 N11_2 1_555 1_555
H18_2 N12_2 1_555 1_555
C41_2 C19_2 1_555 1_555
C42_2 C20_2 1_555 1_555
H19_2 C41_2 1_555 1_555
H20_2 C42_2 1_555 1_555
C43_2 C19_2 1_555 1_555
C44_2 C20_2 1_555 1_555
H21_2 C43_2 1_555 1_555
H22_2 C44_2 1_555 1_555
C45_2 N9_2 1_555 1_555
C46_2 N10_2 1_555 1_555
C47_2 C25_2 1_555 1_555
C48_2 C26_2 1_555 1_555
H23_2 C47_2 1_555 1_555
H24_2 C48_2 1_555 1_555
C49_2 C25_2 1_555 1_555
C50_2 C26_2 1_555 1_555
C51_2 C27_2 1_555 1_555
C52_2 C28_2 1_555 1_555
C53_2 C37_2 1_555 1_555
C54_2 C38_2 1_555 1_555
O28_2 C53_2 1_555 1_555
O29_2 C54_2 1_555 1_555
C4_2 C16_2 1_555 1_555
C5_2 C15_2 1_555 1_555
C9_2 C14_2 1_555 1_555
C10_2 C13_2 1_555 1_555
C12_2 C14_2 1_555 1_555
N6_2 C22_2 1_555 1_555
N8_2 C24_2 1_555 1_555
C27_2 C47_2 1_555 1_555
C28_2 C48_2 1_555 1_555
C29_2 N11_2 1_555 1_555
C30_2 N12_2 1_555 1_555
C35_2 C45_2 1_555 1_555
C36_2 C46_2 1_555 1_555
C37_2 C43_2 1_555 1_555
C38_2 C44_2 1_555 1_555
C41_2 C45_2 1_555 1_555
C42_2 C46_2 1_555 1_555
Zn3_2 O16_3 1_555 1_555
Zn7_3 O20_3 1_555 1_555
O16_3 C50_3 1_555 1_555
C26_3 C34_3 1_555 1_555
C27_3 C31_3 1_555 1_555
C29_3 C31_3 1_555 1_555
O19_3 C50_3 1_555 1_555
O20_3 C51_3 1_555 1_555
C31_3 H11_3 1_555 1_555
H14_3 C34_3 1_555 1_555
O26_3 C51_3 1_555 1_555
H18_3 N12_3 1_555 1_555
H23_3 C47_3 1_555 1_555
C50_3 C26_3 1_555 1_555
C51_3 C27_3 1_555 1_555
C27_3 C47_3 1_555 1_555
N2_3 C3_3 1_555 1_555
C3_3 N4_3 1_555 1_555
H5_3 N4_3 1_555 1_555
N7_3 C23_3 1_555 1_555
N8_3 C3_3 1_555 1_555
C23_3 N2_3 1_555 1_555
C24_3 N7_3 1_555 1_555
C28_3 C32_3 1_555 1_555
C30_3 C32_3 1_555 1_555
O23 C52_3 1_555 1_555
C32_3 H12_3 1_555 1_555
O27_3 C52_3 1_555 1_555
H24_3 C48_3 1_555 1_555
C52_3 C28_3 1_555 1_555
N8_3 C24_3 1_555 1_555
C28_3 C48_3 1_555 1_555
Zn6_2 O15_3 1_555 1_555
O15_3 C49_3 1_555 1_555
C25_3 C33_3 1_555 1_555
O18_3 C49_3 1_555 1_555
C49_3 C25_3 1_555 1_555
Zn11 O2_3 1_555 1_555
O11 C11_3 1_555 1_555
N1_3 C2_3 1_555 1_555
C1_3 C11_3 1_555 1_555
C2_3 N3_3 1_555 1_555
O2_3 C18_3 1_555 1_555
C4_3 C8_3 1_555 1_555
C5_3 C7_3 1_555 1_555
N3_3 H1_3 1_555 1_555
C6_3 C7_3 1_555 1_555
O4_3 C16_3 1_555 1_555
O5_3 C17_3 1_555 1_555
O6_3 C11_3 1_555 1_555
C7_3 H2_3 1_555 1_555
C8_3 C6_3 1_555 1_555
C9_3 H4_3 1_555 1_555
C10_3 C9_3 1_555 1_555
O7_3 C17_3 1_555 1_555
C12_3 C1_3 1_555 1_555
H6_3 C12_3 1_555 1_555
C13_3 C1_3 1_555 1_555
H7_3 C13_3 1_555 1_555
C14_3 N3_3 1_555 1_555
C15_3 C4_3 1_555 1_555
H8_3 C15_3 1_555 1_555
C16_3 O17 1_555 1_555
C17_3 C5_3 1_555 1_555
C18_3 C10_3 1_555 1_555
O8_3 C18_3 1_555 1_555
Zn4_3 O9_3 1_555 1_555
Zn5_4 O10_3 1_555 1_555
Zn8_2 O5_3 1_555 1_555
Zn9_3 O13_3 1_555 1_555
Zn10_2 O12_3 1_555 1_555
O9_3 C39_3 1_555 1_555
O10_3 C40_3 1_555 1_555
N5_3 C21_3 1_555 1_555
N6_3 C2_3 1_555 1_555
C19_3 C39_3 1_555 1_555
C20_3 C40_3 1_555 1_555
C21_3 N1_3 1_555 1_555
C22_3 N5_3 1_555 1_555
O12_3 C53_3 1_555 1_555
O13_3 C54_3 1_555 1_555
O14_3 Zn11 1_555 1_555
N9_3 C21_3 1_555 1_555
N10_3 C22_3 1_555 1_555
H9_3 N9_3 1_555 1_555
H10_3 N10_3 1_555 1_555
O22_3 Zn11 1_555 1_555
O24_3 C39_3 1_555 1_555
O25_3 C40_3 1_555 1_555
C35_3 H15_3 1_555 1_555
C36_3 H16_3 1_555 1_555
C37_3 C35_3 1_555 1_555
C38_3 C36_3 1_555 1_555
H17_3 N11_3 1_555 1_555
C41_3 C19_3 1_555 1_555
C42_3 C20_3 1_555 1_555
H19_3 C41_3 1_555 1_555
H20_3 C42_3 1_555 1_555
C43_3 C19_3 1_555 1_555
C44_3 C20_3 1_555 1_555
H21_3 C43_3 1_555 1_555
H22_3 C44_3 1_555 1_555
C45_3 N9_3 1_555 1_555
C46_3 N10_3 1_555 1_555
C53_3 C37_3 1_555 1_555
C54_3 C38_3 1_555 1_555
O28_3 C53_3 1_555 1_555
O29_3 C54_3 1_555 1_555
C4_3 C16_3 1_555 1_555
C5_3 C15_3 1_555 1_555
C9_3 C14_3 1_555 1_555
C10_3 C13_3 1_555 1_555
C12_3 C14_3 1_555 1_555
N6_3 C22_3 1_555 1_555
C35_3 C45_3 1_555 1_555
C36_3 C46_3 1_555 1_555
C37_3 C43_3 1_555 1_555
C38_3 C44_3 1_555 1_555
C41_3 C45_3 1_555 1_555
C42_3 C46_3 1_555 1_555
C5_4 C7_4 1_555 1_555
C6_4 C7_4 1_555 1_555
O5_4 C17_4 1_555 1_555
C7_4 H2_4 1_555 1_555
O7_4 C17_4 1_555 1_555
H8_4 C15_4 1_555 1_555
C17_4 C5_4 1_555 1_555
Zn6 O15_4 1_555 1_555
Zn8_3 O5_4 1_555 1_555
O15_4 C49_4 1_555 1_555
C25_4 C33_4 1_555 1_555
O18_4 C49_4 1_555 1_555
H13_4 C33_4 1_555 1_555
H17_4 N11_4 1_555 1_555
C49_4 C25_4 1_555 1_555
C5_4 C15_4 1_555 1_555
N2_4 C3_4 1_555 1_555
Zn7_4 O20_4 1_555 1_555
N7_4 C23_4 1_555 1_555
N8_4 C3_4 1_555 1_555
C23_4 N2_4 1_555 1_555
C24_4 N7_4 1_555 1_555
C27_4 C31_4 1_555 1_555
C29_4 C31_4 1_555 1_555
O20_4 C51_4 1_555 1_555
C31_4 H11_4 1_555 1_555
O26_4 C51_4 1_555 1_555
N12_4 C24_4 1_555 1_555
H18_4 N12_4 1_555 1_555
H23_4 C47_4 1_555 1_555
C51_4 C27_4 1_555 1_555
N8_4 C24_4 1_555 1_555
C27_4 C47_4 1_555 1_555
Zn1_4 O1_3 1_555 1_555
Zn2_3 O2_4 1_555 1_555
O1_3 C11_4 1_555 1_555
N1_4 C2_4 1_555 1_555
C1_4 C11_4 1_555 1_555
C2_4 N3_4 1_555 1_555
O2_4 C18_4 1_555 1_555
O3_3 Zn1_4 1_555 1_555
C4_4 C8_4 1_555 1_555
N3_4 H1_4 1_555 1_555
O4_4 C16_4 1_555 1_555
O6_4 C11_4 1_555 1_555
C9_4 H4_4 1_555 1_555
C10_4 C9_4 1_555 1_555
C12_4 C1_4 1_555 1_555
H6_4 C12_4 1_555 1_555
C13_4 C1_4 1_555 1_555
H7_4 C13_4 1_555 1_555
C14_4 N3_4 1_555 1_555
C16_4 O3_3 1_555 1_555
C18_4 C10_4 1_555 1_555
O8_4 C18_4 1_555 1_555
Zn4 O9_4 1_555 1_555
Zn3_2 O10_4 1_555 1_555
Zn9_4 O13_4 1_555 1_555
Zn10_3 O12_4 1_555 1_555
O9_4 C39_4 1_555 1_555
O10_4 C40_4 1_555 1_555
N5_4 C21_4 1_555 1_555
N6_4 C2_4 1_555 1_555
C19_4 C39_4 1_555 1_555
C20_4 C40_4 1_555 1_555
C21_4 N1_4 1_555 1_555
C22_4 N5_4 1_555 1_555
O12_4 C53_4 1_555 1_555
O13_4 C54_4 1_555 1_555
O14_4 Zn2_3 1_555 1_555
N9_4 C21_4 1_555 1_555
N10_4 C22_4 1_555 1_555
H9_4 N9_4 1_555 1_555
H10_4 N10_4 1_555 1_555
O22_4 Zn2_3 1_555 1_555
O23_3 Zn2_3 1_555 1_555
O24_4 C39_4 1_555 1_555
O25_4 C40_4 1_555 1_555
C35_4 H15_4 1_555 1_555
C36_4 H16_4 1_555 1_555
C37_4 C35_4 1_555 1_555
C38_4 C36_4 1_555 1_555
C41_4 C19_4 1_555 1_555
C42_4 C20_4 1_555 1_555
H19_4 C41_4 1_555 1_555
H20_4 C42_4 1_555 1_555
C43_4 C19_4 1_555 1_555
C44_4 C20_4 1_555 1_555
H21_4 C43_4 1_555 1_555
H22_4 C44_4 1_555 1_555
C45_4 N9_4 1_555 1_555
C46_4 N10_4 1_555 1_555
C53_4 C37_4 1_555 1_555
C54_4 C38_4 1_555 1_555
O28_4 C53_4 1_555 1_555
O29_4 C54_4 1_555 1_555
C4_4 C16_4 1_555 1_555
C9_4 C14_4 1_555 1_555
C10_4 C13_4 1_555 1_555
C12_4 C14_4 1_555 1_555
N6_4 C22_4 1_555 1_555
C35_4 C45_4 1_555 1_555
C36_4 C46_4 1_555 1_555
C37_4 C43_4 1_555 1_555
C38_4 C44_4 1_555 1_555
C41_4 C45_4 1_555 1_555
C42_4 C46_4 1_555 1_555
H5_4 N4_4 1_555 1_555
Zn5_4 O16_4 1_555 1_555
Zn11_3 O21_3 1_555 1_555
O11_3 Zn1_5 1_555 1_555
O16_4 C50_4 1_555 1_555
O17_3 Zn1_5 1_555 1_555
C26_4 C34_4 1_555 1_555
C28_4 C32_4 1_555 1_555
C30_4 C32_4 1_555 1_555
O19_4 C50_4 1_555 1_555
O21_3 C52_4 1_555 1_555
C32_4 H12_4 1_555 1_555
C34_4 C30_4 1_555 1_555
O27_4 C52_4 1_555 1_555
C48_4 C26_4 1_555 1_555
H24_4 C48_4 1_555 1_555
C50_4 C26_4 1_555 1_555
C52_4 C28_4 1_555 1_555
C28_4 C48_4 1_555 1_555
Zn4_2 O1_4 1_555 1_555
Zn2_4 O2_5 1_555 1_555
O1_4 C11_5 1_555 1_555
N1_5 C2_5 1_555 1_555
C1_5 C11_5 1_555 1_555
C2_5 N3_5 1_555 1_555
O2_5 C18_5 1_555 1_555
O3_4 Zn4_2 1_555 1_555
C4_5 C8_5 1_555 1_555
C5_5 C7_5 1_555 1_555
N3_5 H1_5 1_555 1_555
C6_5 C7_5 1_555 1_555
O4_5 C16_5 1_555 1_555
O5_5 C17_5 1_555 1_555
O6_5 C11_5 1_555 1_555
C7_5 H2_5 1_555 1_555
C8_5 C6_5 1_555 1_555
C9_5 H4_5 1_555 1_555
C10_5 C9_5 1_555 1_555
O7_5 C17_5 1_555 1_555
C12_5 C1_5 1_555 1_555
H6_5 C12_5 1_555 1_555
C13_5 C1_5 1_555 1_555
H7_5 C13_5 1_555 1_555
C14_5 N3_5 1_555 1_555
C15_5 C4_5 1_555 1_555
H8_5 C15_5 1_555 1_555
C16_5 O3_4 1_555 1_555
C17_5 C5_5 1_555 1_555
C18_5 C10_5 1_555 1_555
O8_5 C18_5 1_555 1_555
Zn3 O9_5 1_555 1_555
Zn3_2 O15_5 1_555 1_555
Zn9_4 O5_5 1_555 1_555
Zn11_3 O13_5 1_555 1_555
Zn7_2 O12_5 1_555 1_555
O9_5 C39_5 1_555 1_555
O11_3 C40_5 1_555 1_555
N5_5 C21_5 1_555 1_555
N6_5 C2_5 1_555 1_555
C19_5 C39_5 1_555 1_555
C20_5 C40_5 1_555 1_555
C21_5 N1_5 1_555 1_555
C22_5 N5_5 1_555 1_555
O12_5 C53_5 1_555 1_555
O13_5 C54_5 1_555 1_555
O14_5 Zn2_4 1_555 1_555
O15_5 C49_5 1_555 1_555
C25_5 C33_5 1_555 1_555
N9_5 C21_5 1_555 1_555
N10_5 C22_5 1_555 1_555
H9_5 N9_5 1_555 1_555
H10_5 N10_5 1_555 1_555
O18_5 C49_5 1_555 1_555
O22_5 Zn2_4 1_555 1_555
O23_4 Zn2_4 1_555 1_555
O24_5 C39_5 1_555 1_555
O25_5 C40_5 1_555 1_555
H13_5 C33_5 1_555 1_555
C35_5 H15_5 1_555 1_555
C36_5 H16_5 1_555 1_555
C37_5 C35_5 1_555 1_555
C38_5 C36_5 1_555 1_555
H17_5 N11_5 1_555 1_555
C41_5 C19_5 1_555 1_555
C42_5 C20_5 1_555 1_555
H19_5 C41_5 1_555 1_555
H20_5 C42_5 1_555 1_555
C43_5 C19_5 1_555 1_555
C44_5 C20_5 1_555 1_555
H21_5 C43_5 1_555 1_555
H22_5 C44_5 1_555 1_555
C45_5 N9_5 1_555 1_555
C46_5 N10_5 1_555 1_555
C49_5 C25_5 1_555 1_555
C53_5 C37_5 1_555 1_555
C54_5 C38_5 1_555 1_555
O28_5 C53_5 1_555 1_555
O29_5 C54_5 1_555 1_555
C4_5 C16_5 1_555 1_555
C5_5 C15_5 1_555 1_555
C9_5 C14_5 1_555 1_555
C10_5 C13_5 1_555 1_555
C12_5 C14_5 1_555 1_555
N6_5 C22_5 1_555 1_555
C35_5 C45_5 1_555 1_555
C36_5 C46_5 1_555 1_555
C37_5 C43_5 1_555 1_555
C38_5 C44_5 1_555 1_555
C41_5 C45_5 1_555 1_555
C42_5 C46_5 1_555 1_555
N2_5 C3_5 1_555 1_555
C3_5 N4_5 1_555 1_555
H5_5 N4_5 1_555 1_555
Zn10_2 O21_4 1_555 1_555
N7_5 C23_5 1_555 1_555
N8_5 C3_5 1_555 1_555
O17_2 C50_5 1_555 1_555
O17_4 Zn4_3 1_555 1_555
C23_5 N2_5 1_555 1_555
C24_5 N7_5 1_555 1_555
C26_5 C34_5 1_555 1_555
C27_5 C31_5 1_555 1_555
C28_5 C32_5 1_555 1_555
C29_5 C31_5 1_555 1_555
C30_5 C32_5 1_555 1_555
O19_5 C50_5 1_555 1_555
O23_2 C51_5 1_555 1_555
O21_4 C52_5 1_555 1_555
C31_5 H11_5 1_555 1_555
C32_5 H12_5 1_555 1_555
C34_5 C30_5 1_555 1_555
H14_5 C34_5 1_555 1_555
O26_5 C51_5 1_555 1_555
O27_5 C52_5 1_555 1_555
N12_5 C24_5 1_555 1_555
H18_5 N12_5 1_555 1_555
C48_5 C26_5 1_555 1_555
H23_5 C47_5 1_555 1_555
H24_5 C48_5 1_555 1_555
C50_5 C26_5 1_555 1_555
C51_5 C27_5 1_555 1_555
C52_5 C28_5 1_555 1_555
N8_5 C24_5 1_555 1_555
C27_5 C47_5 1_555 1_555
C28_5 C48_5 1_555 1_555
C30_5 N12_5 1_555 1_555
Zn5_3 O1_5 1_555 1_555
Zn7_4 O2_6 1_555 1_555
O1_5 C11_6 1_555 1_555
N1_6 C2_6 1_555 1_555
C1_6 C11_6 1_555 1_555
C2_6 N3_6 1_555 1_555
O2_6 C18_6 1_555 1_555
O3_5 Zn5_3 1_555 1_555
C4_6 C8_6 1_555 1_555
C5_6 C7_6 1_555 1_555
N3_6 H1_6 1_555 1_555
C6_6 C7_6 1_555 1_555
O4_6 C16_6 1_555 1_555
O5_6 C17_6 1_555 1_555
O6_6 C11_6 1_555 1_555
C7_6 H2_6 1_555 1_555
C8_6 C6_6 1_555 1_555
C9_6 H4_6 1_555 1_555
C10_6 C9_6 1_555 1_555
O7_6 C17_6 1_555 1_555
C12_6 C1_6 1_555 1_555
H6_6 C12_6 1_555 1_555
C13_6 C1_6 1_555 1_555
H7_6 C13_6 1_555 1_555
C14_6 N3_6 1_555 1_555
C15_6 C4_6 1_555 1_555
H8_6 C15_6 1_555 1_555
C16_6 O3_5 1_555 1_555
C17_6 C5_6 1_555 1_555
C18_6 C10_6 1_555 1_555
O8_6 C18_6 1_555 1_555
Zn6_3 O10_5 1_555 1_555
Zn6_4 O15_6 1_555 1_555
Zn8_4 O5_6 1_555 1_555
Zn8_2 O13_6 1_555 1_555
Zn11_2 O12_6 1_555 1_555
O11_2 C39_6 1_555 1_555
O10_5 C40_6 1_555 1_555
N5_6 C21_6 1_555 1_555
N6_6 C2_6 1_555 1_555
C19_6 C39_6 1_555 1_555
C20_6 C40_6 1_555 1_555
C21_6 N1_6 1_555 1_555
C22_6 N5_6 1_555 1_555
O12_6 C53_6 1_555 1_555
O13_6 C54_6 1_555 1_555
O14_6 Zn7_4 1_555 1_555
O15_6 C49_6 1_555 1_555
C25_6 C33_6 1_555 1_555
N9_6 C21_6 1_555 1_555
N10_6 C22_6 1_555 1_555
H9_6 N9_6 1_555 1_555
H10_6 N10_6 1_555 1_555
O18_6 C49_6 1_555 1_555
O22_6 Zn7_4 1_555 1_555
O24_6 C39_6 1_555 1_555
O25_6 C40_6 1_555 1_555
H13_6 C33_6 1_555 1_555
C35_6 H15_6 1_555 1_555
C36_6 H16_6 1_555 1_555
C37_6 C35_6 1_555 1_555
C38_6 C36_6 1_555 1_555
H17_6 N11_6 1_555 1_555
C41_6 C19_6 1_555 1_555
C42_6 C20_6 1_555 1_555
H19_6 C41_6 1_555 1_555
H20_6 C42_6 1_555 1_555
C43_6 C19_6 1_555 1_555
C44_6 C20_6 1_555 1_555
H21_6 C43_6 1_555 1_555
H22_6 C44_6 1_555 1_555
C45_6 N9_6 1_555 1_555
C46_6 N10_6 1_555 1_555
C49_6 C25_6 1_555 1_555
C53_6 C37_6 1_555 1_555
C54_6 C38_6 1_555 1_555
O28_6 C53_6 1_555 1_555
O29_6 C54_6 1_555 1_555
C4_6 C16_6 1_555 1_555
C5_6 C15_6 1_555 1_555
C9_6 C14_6 1_555 1_555
C10_6 C13_6 1_555 1_555
C12_6 C14_6 1_555 1_555
N6_6 C22_6 1_555 1_555
C35_6 C45_6 1_555 1_555
C36_6 C46_6 1_555 1_555
C37_6 C43_6 1_555 1_555
C38_6 C44_6 1_555 1_555
C41_6 C45_6 1_555 1_555
C42_6 C46_6 1_555 1_555
N2_6 C3_6 1_555 1_555
C3_6 N4_6 1_555 1_555
H5_6 N4_6 1_555 1_555
Zn4 O16_5 1_555 1_555
Zn10_3 O20_5 1_555 1_555
Zn9_3 O21_5 1_555 1_555
N7_6 C23_6 1_555 1_555
N8_6 C3_6 1_555 1_555
O16_5 C50_6 1_555 1_555
C23_6 N2_6 1_555 1_555
C24_6 N7_6 1_555 1_555
C26_6 C34_6 1_555 1_555
C27_6 C31_6 1_555 1_555
C28_6 C32_6 1_555 1_555
C29_6 C31_6 1_555 1_555
C30_6 C32_6 1_555 1_555
O19_6 C50_6 1_555 1_555
O20_5 C51_6 1_555 1_555
O21_5 C52_6 1_555 1_555
C31_6 H11_6 1_555 1_555
C32_6 H12_6 1_555 1_555
C34_6 C30_6 1_555 1_555
H14_6 C34_6 1_555 1_555
O26_6 C51_6 1_555 1_555
O27_6 C52_6 1_555 1_555
N12_6 C24_6 1_555 1_555
H18_6 N12_6 1_555 1_555
C48_6 C26_6 1_555 1_555
H23_6 C47_6 1_555 1_555
H24_6 C48_6 1_555 1_555
C50_6 C26_6 1_555 1_555
C51_6 C27_6 1_555 1_555
C52_6 C28_6 1_555 1_555
N8_6 C24_6 1_555 1_555
C27_6 C47_6 1_555 1_555
C28_6 C48_6 1_555 1_555
C30_6 N12_6 1_555 1_555
Zn6_2 O1_6 1_555 1_555
Zn2_5 O2_7 1_555 1_555
O1_6 C11_7 1_555 1_555
N1_7 C2_7 1_555 1_555
C1_7 C11_7 1_555 1_555
C2_7 N3_7 1_555 1_555
O2_7 C18_7 1_555 1_555
N3_7 H1_7 1_555 1_555
O6_7 C11_7 1_555 1_555
C9_7 H4_7 1_555 1_555
C10_7 C9_7 1_555 1_555
C12_7 C1_7 1_555 1_555
H6_7 C12_7 1_555 1_555
C13_7 C1_7 1_555 1_555
H7_7 C13_7 1_555 1_555
C14_7 N3_7 1_555 1_555
C18_7 C10_7 1_555 1_555
O8_7 C18_7 1_555 1_555
Zn3 O9_6 1_555 1_555
Zn6_4 O10_6 1_555 1_555
Zn8_4 O13_7 1_555 1_555
Zn7 O12_7 1_555 1_555
O9_6 C39_7 1_555 1_555
O10_6 C40_7 1_555 1_555
N5_7 C21_7 1_555 1_555
N6_7 C2_7 1_555 1_555
C19_7 C39_7 1_555 1_555
C20_7 C40_7 1_555 1_555
C21_7 N1_7 1_555 1_555
C22_7 N5_7 1_555 1_555
O12_7 C53_7 1_555 1_555
O13_7 C54_7 1_555 1_555
O14_7 Zn2_5 1_555 1_555
N9_7 C21_7 1_555 1_555
N10_7 C22_7 1_555 1_555
H9_7 N9_7 1_555 1_555
H10_7 N10_7 1_555 1_555
O22_7 Zn2_5 1_555 1_555
O23_5 Zn2_5 1_555 1_555
O24_7 C39_7 1_555 1_555
O25_7 C40_7 1_555 1_555
C35_7 H15_7 1_555 1_555
C36_7 H16_7 1_555 1_555
C37_7 C35_7 1_555 1_555
C38_7 C36_7 1_555 1_555
C41_7 C19_7 1_555 1_555
C42_7 C20_7 1_555 1_555
H19_7 C41_7 1_555 1_555
H20_7 C42_7 1_555 1_555
C43_7 C19_7 1_555 1_555
C44_7 C20_7 1_555 1_555
H21_7 C43_7 1_555 1_555
H22_7 C44_7 1_555 1_555
C45_7 N9_7 1_555 1_555
C46_7 N10_7 1_555 1_555
C53_7 C37_7 1_555 1_555
C54_7 C38_7 1_555 1_555
O28_7 C53_7 1_555 1_555
O29_7 C54_7 1_555 1_555
C9_7 C14_7 1_555 1_555
C10_7 C13_7 1_555 1_555
C12_7 C14_7 1_555 1_555
N6_7 C22_7 1_555 1_555
C35_7 C45_7 1_555 1_555
C36_7 C46_7 1_555 1_555
C37_7 C43_7 1_555 1_555
C38_7 C44_7 1_555 1_555
C41_7 C45_7 1_555 1_555
C42_7 C46_7 1_555 1_555
O17_5 Zn6_3 1_555 1_555
O14_8 Zn7 1_555 1_555
O22_8 Zn7 1_555 1_555
O14_9 Zn10_3 1_555 1_555
O22_9 Zn10_3 1_555 1_555
O14_10 Zn9_3 1_555 1_555
O22_10 Zn9_3 1_555 1_555
Zn6_4 O16_6 1_555 1_555
Zn7_5 O20_6 1_555 1_555
O16_6 C50_7 1_555 1_555
C26_7 C34_7 1_555 1_555
C27_7 C31_7 1_555 1_555
C29_7 C31_7 1_555 1_555
O19_7 C50_7 1_555 1_555
O20_6 C51_7 1_555 1_555
C31_7 H11_7 1_555 1_555
H14_7 C34_7 1_555 1_555
O26_7 C51_7 1_555 1_555
H18_7 N12_7 1_555 1_555
H23_7 C47_7 1_555 1_555
C50_7 C26_7 1_555 1_555
C51_7 C27_7 1_555 1_555
C27_7 C47_7 1_555 1_555
Zn5 O15_7 1_555 1_555
O15_7 C49_7 1_555 1_555
C25_7 C33_7 1_555 1_555
O18_7 C49_7 1_555 1_555
C49_7 C25_7 1_555 1_555
N2_7 C3_7 1_555 1_555
C3_7 N4_7 1_555 1_555
H5_7 N4_7 1_555 1_555
N7_7 C23_7 1_555 1_555
N8_7 C3_7 1_555 1_555
C23_7 N2_7 1_555 1_555
C24_7 N7_7 1_555 1_555
C28_7 C32_7 1_555 1_555
C30_7 C32_7 1_555 1_555
O23_4 C52_7 1_555 1_555
C32_7 H12_7 1_555 1_555
O27_7 C52_7 1_555 1_555
H24_7 C48_7 1_555 1_555
C52_7 C28_7 1_555 1_555
N8_7 C24_7 1_555 1_555
C28_7 C48_7 1_555 1_555
C4_7 C8_7 1_555 1_555
C5_7 C7_7 1_555 1_555
C6_7 C7_7 1_555 1_555
O4_7 C16_7 1_555 1_555
O5_7 C17_7 1_555 1_555
C7_7 H2_7 1_555 1_555
C8_7 C6_7 1_555 1_555
O7_7 C17_7 1_555 1_555
C15_7 C4_7 1_555 1_555
H8_7 C15_7 1_555 1_555
C16_7 O17_4 1_555 1_555
C17_7 C5_7 1_555 1_555
Zn9 O5_7 1_555 1_555
O14_11 Zn10_2 1_555 1_555
O22_11 Zn10_2 1_555 1_555
H17_7 N11_7 1_555 1_555
C4_7 C16_7 1_555 1_555
C5_7 C15_7 1_555 1_555
O14_12 Zn9_2 1_555 1_555
O22_12 Zn9_2 1_555 1_555
O23_6 Zn9_2 1_555 1_555
O17_6 Zn5_2 1_555 1_555
Zn1_6 O1_7 1_555 1_555
Zn8_4 O2_8 1_555 1_555
O1_7 C11_8 1_555 1_555
N1_8 C2_8 1_555 1_555
C1_8 C11_8 1_555 1_555
C2_8 N3_8 1_555 1_555
O2_8 C18_8 1_555 1_555
N2_8 C3_8 1_555 1_555
O3_6 Zn1_6 1_555 1_555
C3_8 N4_8 1_555 1_555
C4_8 C8_8 1_555 1_555
C5_8 C7_8 1_555 1_555
N3_8 H1_8 1_555 1_555
C6_8 C7_8 1_555 1_555
O4_8 C16_8 1_555 1_555
O22_6 C17_8 1_555 1_555
O6_8 C11_8 1_555 1_555
C7_8 H2_8 1_555 1_555
C8_8 C6_8 1_555 1_555
H3_8 C8_8 1_555 1_555
C9_8 H4_8 1_555 1_555
C10_8 C9_8 1_555 1_555
O7_8 C17_8 1_555 1_555
N4_8 C6_8 1_555 1_555
H5_8 N4_8 1_555 1_555
C12_8 C1_8 1_555 1_555
H6_8 C12_8 1_555 1_555
C13_8 C1_8 1_555 1_555
H7_8 C13_8 1_555 1_555
C14_8 N3_8 1_555 1_555
C15_8 C4_8 1_555 1_555
H8_8 C15_8 1_555 1_555
C16_8 O3_6 1_555 1_555
C17_8 C5_8 1_555 1_555
C18_8 C10_8 1_555 1_555
O8_8 C18_8 1_555 1_555
Zn3_3 O16_7 1_555 1_555
Zn6_6 O15_8 1_555 1_555
Zn8_2 O20_7 1_555 1_555
Zn11_2 O21_6 1_555 1_555
O11_4 Zn1_6 1_555 1_555
N6_8 C2_8 1_555 1_555
N7_8 C23_8 1_555 1_555
N8_8 C3_8 1_555 1_555
O15_8 C49_8 1_555 1_555
O16_7 C50_8 1_555 1_555
O17_7 Zn1_6 1_555 1_555
C23_8 N2_8 1_555 1_555
C24_8 N7_8 1_555 1_555
C25_8 C33_8 1_555 1_555
C26_8 C34_8 1_555 1_555
C27_8 C31_8 1_555 1_555
C28_8 C32_8 1_555 1_555
N10_8 C22_8 1_555 1_555
H10_8 N10_8 1_555 1_555
C29_8 C31_8 1_555 1_555
C30_8 C32_8 1_555 1_555
O18_8 C49_8 1_555 1_555
O19_8 C50_8 1_555 1_555
O20_7 C51_8 1_555 1_555
O21_6 C52_8 1_555 1_555
O23_7 Zn8_4 1_555 1_555
C31_8 H11_8 1_555 1_555
C32_8 H12_8 1_555 1_555
C33_8 C29_8 1_555 1_555
C34_8 C30_8 1_555 1_555
H13_8 C33_8 1_555 1_555
H14_8 C34_8 1_555 1_555
O26_8 C51_8 1_555 1_555
O27_8 C52_8 1_555 1_555
N11_8 C23_8 1_555 1_555
N12_8 C24_8 1_555 1_555
H17_8 N11_8 1_555 1_555
H18_8 N12_8 1_555 1_555
H20_8 C42_8 1_555 1_555
C47_8 C25_8 1_555 1_555
C48_8 C26_8 1_555 1_555
H23_8 C47_8 1_555 1_555
H24_8 C48_8 1_555 1_555
C49_8 C25_8 1_555 1_555
C50_8 C26_8 1_555 1_555
C51_8 C27_8 1_555 1_555
C52_8 C28_8 1_555 1_555
C4_8 C16_8 1_555 1_555
C5_8 C15_8 1_555 1_555
C9_8 C14_8 1_555 1_555
C10_8 C13_8 1_555 1_555
C12_8 C14_8 1_555 1_555
N6_8 C22_8 1_555 1_555
N8_8 C24_8 1_555 1_555
C27_8 C47_8 1_555 1_555
C28_8 C48_8 1_555 1_555
C29_8 N11_8 1_555 1_555
C30_8 N12_8 1_555 1_555
Zn4_4 O9_7 1_555 1_555
Zn5_6 O10_7 1_555 1_555
O9_7 C39_8 1_555 1_555
O10_7 C40_8 1_555 1_555
N5_8 C21_8 1_555 1_555
C19_8 C39_8 1_555 1_555
C20_8 C40_8 1_555 1_555
O14_10 C53_8 1_555 1_555
O14_9 C54_8 1_555 1_555
N9_8 C21_8 1_555 1_555
H9_8 N9_8 1_555 1_555
O24_8 C39_8 1_555 1_555
C35_8 H15_8 1_555 1_555
C36_8 H16_8 1_555 1_555
C37_8 C35_8 1_555 1_555
C38_8 C36_8 1_555 1_555
C41_8 C19_8 1_555 1_555
H19_8 C41_8 1_555 1_555
C43_8 C19_8 1_555 1_555
C44_8 C20_8 1_555 1_555
H21_8 C43_8 1_555 1_555
H22_8 C44_8 1_555 1_555
C45_8 N9_8 1_555 1_555
C53_8 C37_8 1_555 1_555
C54_8 C38_8 1_555 1_555
O28_8 C53_8 1_555 1_555
O29_8 C54_8 1_555 1_555
C35_8 C45_8 1_555 1_555
C36_8 C46_8 1_555 1_555
C37_8 C43_8 1_555 1_555
C38_8 C44_8 1_555 1_555
C41_8 C45_8 1_555 1_555
Zn5_5 O10_8 1_555 1_555
Zn8_3 O13_8 1_555 1_555
O10_8 C40_9 1_555 1_555
N5_9 C21_9 1_555 1_555
C20_9 C40_9 1_555 1_555
O13_8 C54_9 1_555 1_555
N9_9 C21_9 1_555 1_555
H9_9 N9_9 1_555 1_555
C36_9 H16_9 1_555 1_555
C38_9 C36_9 1_555 1_555
H19_9 C41_9 1_555 1_555
C44_9 C20_9 1_555 1_555
H22_9 C44_9 1_555 1_555
C54_9 C38_9 1_555 1_555
O29_9 C54_9 1_555 1_555
C36_9 C46_9 1_555 1_555
C38_9 C44_9 1_555 1_555
Zn6_6 O9_8 1_555 1_555
O9_8 C39_9 1_555 1_555
C19_9 C39_9 1_555 1_555
O14_6 C53_9 1_555 1_555
C35_9 H15_9 1_555 1_555
C37_9 C35_9 1_555 1_555
C43_9 C19_9 1_555 1_555
H21_9 C43_9 1_555 1_555
C53_9 C37_9 1_555 1_555
O28_9 C53_9 1_555 1_555
C35_9 C45_9 1_555 1_555
C37_9 C43_9 1_555 1_555
N10_9 C22_9 1_555 1_555
H10_9 N10_9 1_555 1_555
H20_9 C42_9 1_555 1_555
N6_9 C22_9 1_555 1_555
Zn1_7 O1_8 1_555 1_555
Zn11_3 O2_9 1_555 1_555
O1_8 C11_9 1_555 1_555
N1_9 C2_9 1_555 1_555
C1_9 C11_9 1_555 1_555
C2_9 N3_9 1_555 1_555
O2_9 C18_9 1_555 1_555
N2_9 C3_9 1_555 1_555
O3_7 Zn1_7 1_555 1_555
C3_9 N4_9 1_555 1_555
C4_9 C8_9 1_555 1_555
C5_9 C7_9 1_555 1_555
N3_9 H1_9 1_555 1_555
C6_9 C7_9 1_555 1_555
O4_9 C16_9 1_555 1_555
O22_10 C17_9 1_555 1_555
O6_9 C11_9 1_555 1_555
C7_9 H2_9 1_555 1_555
C8_9 C6_9 1_555 1_555
H3_9 C8_9 1_555 1_555
C9_9 H4_9 1_555 1_555
C10_9 C9_9 1_555 1_555
O7_9 C17_9 1_555 1_555
N4_9 C6_9 1_555 1_555
H5_9 N4_9 1_555 1_555
C12_9 C1_9 1_555 1_555
H6_9 C12_9 1_555 1_555
C13_9 C1_9 1_555 1_555
H7_9 C13_9 1_555 1_555
C14_9 N3_9 1_555 1_555
C15_9 C4_9 1_555 1_555
H8_9 C15_9 1_555 1_555
C16_9 O3_7 1_555 1_555
C17_9 C5_9 1_555 1_555
C18_9 C10_9 1_555 1_555
O8_9 C18_9 1_555 1_555
Zn3_3 O16_8 1_555 1_555
Zn4_4 O15_9 1_555 1_555
O11_5 Zn1_7 1_555 1_555
N7_9 C23_9 1_555 1_555
N8_9 C3_9 1_555 1_555
O15_9 C49_9 1_555 1_555
O16_8 C50_9 1_555 1_555
O17_8 Zn1_7 1_555 1_555
C23_9 N2_9 1_555 1_555
C24_9 N7_9 1_555 1_555
C25_9 C33_9 1_555 1_555
C26_9 C34_9 1_555 1_555
C27_9 C31_9 1_555 1_555
C28_9 C32_9 1_555 1_555
C29_9 C31_9 1_555 1_555
C30_9 C32_9 1_555 1_555
O18_9 C49_9 1_555 1_555
O19_9 C50_9 1_555 1_555
O22_11 C51_9 1_555 1_555
O22_3 C52_9 1_555 1_555
O23_8 Zn11_3 1_555 1_555
C31_9 H11_9 1_555 1_555
C32_9 H12_9 1_555 1_555
C33_9 C29_9 1_555 1_555
C34_9 C30_9 1_555 1_555
H13_9 C33_9 1_555 1_555
H14_9 C34_9 1_555 1_555
O26_9 C51_9 1_555 1_555
O27_9 C52_9 1_555 1_555
N11_9 C23_9 1_555 1_555
N12_9 C24_9 1_555 1_555
H17_9 N11_9 1_555 1_555
H18_9 N12_9 1_555 1_555
C47_9 C25_9 1_555 1_555
C48_9 C26_9 1_555 1_555
H23_9 C47_9 1_555 1_555
H24_9 C48_9 1_555 1_555
C49_9 C25_9 1_555 1_555
C50_9 C26_9 1_555 1_555
C51_9 C27_9 1_555 1_555
C52_9 C28_9 1_555 1_555
C4_9 C16_9 1_555 1_555
C5_9 C15_9 1_555 1_555
C9_9 C14_9 1_555 1_555
C10_9 C13_9 1_555 1_555
C12_9 C14_9 1_555 1_555
N8_9 C24_9 1_555 1_555
C27_9 C47_9 1_555 1_555
C28_9 C48_9 1_555 1_555
C29_9 N11_9 1_555 1_555
C30_9 N12_9 1_555 1_555
Zn11_2 O2_10 1_555 1_555
O11_4 C11_10 1_555 1_555
N1_10 C2_10 1_555 1_555
C1_10 C11_10 1_555 1_555
C2_10 N3_10 1_555 1_555
O2_10 C18_10 1_555 1_555
N2_10 C3_10 1_555 1_555
C3_10 N4_10 1_555 1_555
C4_10 C8_10 1_555 1_555
C5_10 C7_10 1_555 1_555
N3_10 H1_10 1_555 1_555
C6_10 C7_10 1_555 1_555
O4_10 C16_10 1_555 1_555
O22_8 C17_10 1_555 1_555
O6_10 C11_10 1_555 1_555
C7_10 H2_10 1_555 1_555
C8_10 C6_10 1_555 1_555
H3_10 C8_10 1_555 1_555
C9_10 H4_10 1_555 1_555
C10_10 C9_10 1_555 1_555
O7_10 C17_10 1_555 1_555
N4_10 C6_10 1_555 1_555
H5_10 N4_10 1_555 1_555
C12_10 C1_10 1_555 1_555
H6_10 C12_10 1_555 1_555
C13_10 C1_10 1_555 1_555
H7_10 C13_10 1_555 1_555
C14_10 N3_10 1_555 1_555
C15_10 C4_10 1_555 1_555
H8_10 C15_10 1_555 1_555
C16_10 O17_7 1_555 1_555
C17_10 C5_10 1_555 1_555
C18_10 C10_10 1_555 1_555
O8_10 C18_10 1_555 1_555
Zn3_4 O16_9 1_555 1_555
Zn4_5 O9_9 1_555 1_555
Zn5_7 O10_9 1_555 1_555
Zn6_8 O15_10 1_555 1_555
Zn10 O13_9 1_555 1_555
Zn7_2 O12_8 1_555 1_555
O9_9 C39_10 1_555 1_555
O10_9 C40_10 1_555 1_555
N5_10 C21_10 1_555 1_555
N6_10 C2_10 1_555 1_555
C19_10 C39_10 1_555 1_555
C20_10 C40_10 1_555 1_555
C21_10 N1_10 1_555 1_555
C22_10 N5_10 1_555 1_555
O12_8 C53_10 1_555 1_555
O13_9 C54_10 1_555 1_555
N7_10 C23_10 1_555 1_555
N8_10 C3_10 1_555 1_555
O15_10 C49_10 1_555 1_555
O16_9 C50_10 1_555 1_555
C23_10 N2_10 1_555 1_555
C24_10 N7_10 1_555 1_555
C25_10 C33_10 1_555 1_555
C26_10 C34_10 1_555 1_555
C27_10 C31_10 1_555 1_555
C28_10 C32_10 1_555 1_555
N9_10 C21_10 1_555 1_555
N10_10 C22_10 1_555 1_555
H9_10 N9_10 1_555 1_555
H10_10 N10_10 1_555 1_555
C29_10 C31_10 1_555 1_555
C30_10 C32_10 1_555 1_555
O18_10 C49_10 1_555 1_555
O19_10 C50_10 1_555 1_555
O22_7 C51_10 1_555 1_555
O23_7 C52_10 1_555 1_555
O24_10 C39_10 1_555 1_555
O25_10 C40_10 1_555 1_555
C31_10 H11_10 1_555 1_555
C32_10 H12_10 1_555 1_555
C33_10 C29_10 1_555 1_555
C34_10 C30_10 1_555 1_555
H13_10 C33_10 1_555 1_555
H14_10 C34_10 1_555 1_555
C35_10 H15_10 1_555 1_555
C36_10 H16_10 1_555 1_555
C37_10 C35_10 1_555 1_555
C38_10 C36_10 1_555 1_555
O26_10 C51_10 1_555 1_555
O27_10 C52_10 1_555 1_555
N11_10 C23_10 1_555 1_555
N12_10 C24_10 1_555 1_555
H17_10 N11_10 1_555 1_555
H18_10 N12_10 1_555 1_555
C41_10 C19_10 1_555 1_555
C42_10 C20_10 1_555 1_555
H19_10 C41_10 1_555 1_555
H20_10 C42_10 1_555 1_555
C43_10 C19_10 1_555 1_555
C44_10 C20_10 1_555 1_555
H21_10 C43_10 1_555 1_555
H22_10 C44_10 1_555 1_555
C45_10 N9_10 1_555 1_555
C46_10 N10_10 1_555 1_555
C47_10 C25_10 1_555 1_555
C48_10 C26_10 1_555 1_555
H23_10 C47_10 1_555 1_555
H24_10 C48_10 1_555 1_555
C49_10 C25_10 1_555 1_555
C50_10 C26_10 1_555 1_555
C51_10 C27_10 1_555 1_555
C52_10 C28_10 1_555 1_555
C53_10 C37_10 1_555 1_555
C54_10 C38_10 1_555 1_555
O28_10 C53_10 1_555 1_555
O29_10 C54_10 1_555 1_555
C4_10 C16_10 1_555 1_555
C5_10 C15_10 1_555 1_555
C9_10 C14_10 1_555 1_555
C10_10 C13_10 1_555 1_555
C12_10 C14_10 1_555 1_555
N6_10 C22_10 1_555 1_555
N8_10 C24_10 1_555 1_555
C27_10 C47_10 1_555 1_555
C28_10 C48_10 1_555 1_555
C29_10 N11_10 1_555 1_555
C30_10 N12_10 1_555 1_555
C35_10 C45_10 1_555 1_555
C36_10 C46_10 1_555 1_555
C37_10 C43_10 1_555 1_555
C38_10 C44_10 1_555 1_555
C41_10 C45_10 1_555 1_555
C42_10 C46_10 1_555 1_555
Zn1_8 O1_9 1_555 1_555
Zn7_5 O2_11 1_555 1_555
O1_9 C11_11 1_555 1_555
C1_11 C11_11 1_555 1_555
O2_11 C18_11 1_555 1_555
C9_11 H4_11 1_555 1_555
C10_11 C9_11 1_555 1_555
C13_11 C1_11 1_555 1_555
H7_11 C13_11 1_555 1_555
C18_11 C10_11 1_555 1_555
O8_11 C18_11 1_555 1_555
O14_13 Zn7_5 1_555 1_555
O17_9 Zn1_8 1_555 1_555
N10_11 C22_11 1_555 1_555
H10_11 N10_11 1_555 1_555
O23_9 Zn7_5 1_555 1_555
H20_11 C42_11 1_555 1_555
C9_11 C14_11 1_555 1_555
C10_11 C13_11 1_555 1_555
N6_11 C22_11 1_555 1_555
N1_11 C2_11 1_555 1_555
C2_11 N3_11 1_555 1_555
N2_11 C3_11 1_555 1_555
O3_8 Zn1_9 1_555 1_555
C3_11 N4_11 1_555 1_555
C4_11 C8_11 1_555 1_555
C5_11 C7_11 1_555 1_555
N3_11 H1_11 1_555 1_555
C6_11 C7_11 1_555 1_555
O4_11 C16_11 1_555 1_555
O22_12 C17_11 1_555 1_555
C7_11 H2_11 1_555 1_555
C8_11 C6_11 1_555 1_555
H3_11 C8_11 1_555 1_555
O7_11 C17_11 1_555 1_555
N4_11 C6_11 1_555 1_555
H5_11 N4_11 1_555 1_555
H6_11 C12_11 1_555 1_555
C15_11 C4_11 1_555 1_555
H8_11 C15_11 1_555 1_555
C16_11 O3_8 1_555 1_555
C17_11 C5_11 1_555 1_555
Zn5_7 O16_10 1_555 1_555
Zn6_5 O15_11 1_555 1_555
Zn8 O20_8 1_555 1_555
O11_6 Zn1_9 1_555 1_555
N7_11 C23_11 1_555 1_555
N8_11 C3_11 1_555 1_555
O15_11 C49_11 1_555 1_555
O16_10 C50_11 1_555 1_555
C23_11 N2_11 1_555 1_555
C24_11 N7_11 1_555 1_555
C25_11 C33_11 1_555 1_555
C26_11 C34_11 1_555 1_555
C27_11 C31_11 1_555 1_555
C28_11 C32_11 1_555 1_555
C29_11 C31_11 1_555 1_555
C30_11 C32_11 1_555 1_555
O18_11 C49_11 1_555 1_555
O19_11 C50_11 1_555 1_555
O20_8 C51_11 1_555 1_555
O22_2 C52_11 1_555 1_555
C31_11 H11_11 1_555 1_555
C32_11 H12_11 1_555 1_555
C33_11 C29_11 1_555 1_555
C34_11 C30_11 1_555 1_555
H13_11 C33_11 1_555 1_555
H14_11 C34_11 1_555 1_555
O26_11 C51_11 1_555 1_555
O27_11 C52_11 1_555 1_555
N11_11 C23_11 1_555 1_555
N12_11 C24_11 1_555 1_555
H17_11 N11_11 1_555 1_555
H18_11 N12_11 1_555 1_555
C47_11 C25_11 1_555 1_555
C48_11 C26_11 1_555 1_555
H23_11 C47_11 1_555 1_555
H24_11 C48_11 1_555 1_555
C49_11 C25_11 1_555 1_555
C50_11 C26_11 1_555 1_555
C51_11 C27_11 1_555 1_555
C52_11 C28_11 1_555 1_555
C4_11 C16_11 1_555 1_555
C5_11 C15_11 1_555 1_555
N8_11 C24_11 1_555 1_555
C27_11 C47_11 1_555 1_555
C28_11 C48_11 1_555 1_555
C29_11 N11_11 1_555 1_555
C30_11 N12_11 1_555 1_555
Zn3_5 O10_10 1_555 1_555
O10_10 C40_11 1_555 1_555
C20_11 C40_11 1_555 1_555
O14_5 C54_11 1_555 1_555
C36_11 H16_11 1_555 1_555
C38_11 C36_11 1_555 1_555
C44_11 C20_11 1_555 1_555
H22_11 C44_11 1_555 1_555
C54_11 C38_11 1_555 1_555
O29_11 C54_11 1_555 1_555
C36_11 C46_11 1_555 1_555
C38_11 C44_11 1_555 1_555
Zn4_4 O9_10 1_555 1_555
Zn9 O12_9 1_555 1_555
O9_10 C39_11 1_555 1_555
N5_11 C21_11 1_555 1_555
C19_11 C39_11 1_555 1_555
O12_9 C53_11 1_555 1_555
N9_11 C21_11 1_555 1_555
H9_11 N9_11 1_555 1_555
O24_11 C39_11 1_555 1_555
C35_11 H15_11 1_555 1_555
C37_11 C35_11 1_555 1_555
C41_11 C19_11 1_555 1_555
H19_11 C41_11 1_555 1_555
C43_11 C19_11 1_555 1_555
H21_11 C43_11 1_555 1_555
C45_11 N9_11 1_555 1_555
C53_11 C37_11 1_555 1_555
O28_11 C53_11 1_555 1_555
C35_11 C45_11 1_555 1_555
C37_11 C43_11 1_555 1_555
C41_11 C45_11 1_555 1_555
Zn4_5 O1_10 1_555 1_555
Zn9_4 O2_12 1_555 1_555
O1_10 C11_12 1_555 1_555
N1_12 C2_12 1_555 1_555
C1_12 C11_12 1_555 1_555
C2_12 N3_12 1_555 1_555
O2_12 C18_12 1_555 1_555
N2_12 C3_12 1_555 1_555
O3_9 Zn4_5 1_555 1_555
C3_12 N4_12 1_555 1_555
C4_12 C8_12 1_555 1_555
C5_12 C7_12 1_555 1_555
N3_12 H1_12 1_555 1_555
C6_12 C7_12 1_555 1_555
O4_12 C16_12 1_555 1_555
O22_5 C17_12 1_555 1_555
O6_12 C11_12 1_555 1_555
C7_12 H2_12 1_555 1_555
C8_12 C6_12 1_555 1_555
H3_12 C8_12 1_555 1_555
C9_12 H4_12 1_555 1_555
C10_12 C9_12 1_555 1_555
O7_12 C17_12 1_555 1_555
N4_12 C6_12 1_555 1_555
H5_12 N4_12 1_555 1_555
C12_12 C1_12 1_555 1_555
H6_12 C12_12 1_555 1_555
C13_12 C1_12 1_555 1_555
H7_12 C13_12 1_555 1_555
C14_12 N3_12 1_555 1_555
C15_12 C4_12 1_555 1_555
H8_12 C15_12 1_555 1_555
C16_12 O3_9 1_555 1_555
C17_12 C5_12 1_555 1_555
C18_12 C10_12 1_555 1_555
O8_12 C18_12 1_555 1_555
Zn3_5 O15_12 1_555 1_555
Zn7_2 O21_7 1_555 1_555
N6_12 C2_12 1_555 1_555
N7_12 C23_12 1_555 1_555
N8_12 C3_12 1_555 1_555
O15_12 C49_12 1_555 1_555
O17_8 C50_12 1_555 1_555
O17_10 Zn4_5 1_555 1_555
C23_12 N2_12 1_555 1_555
C24_12 N7_12 1_555 1_555
C25_12 C33_12 1_555 1_555
C26_12 C34_12 1_555 1_555
C27_12 C31_12 1_555 1_555
C28_12 C32_12 1_555 1_555
N10_12 C22_12 1_555 1_555
H10_12 N10_12 1_555 1_555
C29_12 C31_12 1_555 1_555
C30_12 C32_12 1_555 1_555
O18_12 C49_12 1_555 1_555
O19_12 C50_12 1_555 1_555
O23_8 C51_12 1_555 1_555
O21_7 C52_12 1_555 1_555
O23_10 Zn9_4 1_555 1_555
C31_12 H11_12 1_555 1_555
C32_12 H12_12 1_555 1_555
C33_12 C29_12 1_555 1_555
C34_12 C30_12 1_555 1_555
H13_12 C33_12 1_555 1_555
H14_12 C34_12 1_555 1_555
O26_12 C51_12 1_555 1_555
O27_12 C52_12 1_555 1_555
N11_12 C23_12 1_555 1_555
N12_12 C24_12 1_555 1_555
H17_12 N11_12 1_555 1_555
H18_12 N12_12 1_555 1_555
H20_12 C42_12 1_555 1_555
C47_12 C25_12 1_555 1_555
C48_12 C26_12 1_555 1_555
H23_12 C47_12 1_555 1_555
H24_12 C48_12 1_555 1_555
C49_12 C25_12 1_555 1_555
C50_12 C26_12 1_555 1_555
C51_12 C27_12 1_555 1_555
C52_12 C28_12 1_555 1_555
C4_12 C16_12 1_555 1_555
C5_12 C15_12 1_555 1_555
C9_12 C14_12 1_555 1_555
C10_12 C13_12 1_555 1_555
C12_12 C14_12 1_555 1_555
N6_12 C22_12 1_555 1_555
N8_12 C24_12 1_555 1_555
C27_12 C47_12 1_555 1_555
C28_12 C48_12 1_555 1_555
C29_12 N11_12 1_555 1_555
C30_12 N12_12 1_555 1_555
Zn3_3 O9_11 1_555 1_555
O9_11 C39_12 1_555 1_555
O11_6 C40_12 1_555 1_555
N5_12 C21_12 1_555 1_555
C19_12 C39_12 1_555 1_555
C20_12 C40_12 1_555 1_555
O14_11 C53_12 1_555 1_555
O14_2 C54_12 1_555 1_555
N9_12 C21_12 1_555 1_555
H9_12 N9_12 1_555 1_555
O24_12 C39_12 1_555 1_555
C35_12 H15_12 1_555 1_555
C36_12 H16_12 1_555 1_555
C37_12 C35_12 1_555 1_555
C38_12 C36_12 1_555 1_555
C41_12 C19_12 1_555 1_555
H19_12 C41_12 1_555 1_555
C43_12 C19_12 1_555 1_555
C44_12 C20_12 1_555 1_555
H21_12 C43_12 1_555 1_555
H22_12 C44_12 1_555 1_555
C45_12 N9_12 1_555 1_555
C53_12 C37_12 1_555 1_555
C54_12 C38_12 1_555 1_555
O28_12 C53_12 1_555 1_555
O29_12 C54_12 1_555 1_555
C35_12 C45_12 1_555 1_555
C36_12 C46_12 1_555 1_555
C37_12 C43_12 1_555 1_555
C38_12 C44_12 1_555 1_555
C41_12 C45_12 1_555 1_555
Zn5_7 O1_11 1_555 1_555
Zn8 O2_13 1_555 1_555
O1_11 C11_13 1_555 1_555
N1_13 C2_13 1_555 1_555
C1_13 C11_13 1_555 1_555
C2_13 N3_13 1_555 1_555
O2_13 C18_13 1_555 1_555
N2_13 C3_13 1_555 1_555
O3_10 Zn5_7 1_555 1_555
C3_13 N4_13 1_555 1_555
C4_13 C8_13 1_555 1_555
C5_13 C7_13 1_555 1_555
N3_13 H1_13 1_555 1_555
C6_13 C7_13 1_555 1_555
O4_13 C16_13 1_555 1_555
O22 C17_13 1_555 1_555
O6_13 C11_13 1_555 1_555
C7_13 H2_13 1_555 1_555
C8_13 C6_13 1_555 1_555
H3_13 C8_13 1_555 1_555
C9_13 H4_13 1_555 1_555
C10_13 C9_13 1_555 1_555
O7_13 C17_13 1_555 1_555
N4_13 C6_13 1_555 1_555
H5_13 N4_13 1_555 1_555
C12_13 C1_13 1_555 1_555
H6_13 C12_13 1_555 1_555
C13_13 C1_13 1_555 1_555
H7_13 C13_13 1_555 1_555
C14_13 N3_13 1_555 1_555
C15_13 C4_13 1_555 1_555
H8_13 C15_13 1_555 1_555
C16_13 O3_10 1_555 1_555
C17_13 C5_13 1_555 1_555
C18_13 C10_13 1_555 1_555
O8_13 C18_13 1_555 1_555
Zn4_4 O16_11 1_555 1_555
Zn6_10 O15_13 1_555 1_555
Zn9 O20_9 1_555 1_555
Zn10 O21_8 1_555 1_555
N6_13 C2_13 1_555 1_555
N7_13 C23_13 1_555 1_555
N8_13 C3_13 1_555 1_555
O15_13 C49_13 1_555 1_555
O16_11 C50_13 1_555 1_555
C23_13 N2_13 1_555 1_555
C24_13 N7_13 1_555 1_555
C25_13 C33_13 1_555 1_555
C26_13 C34_13 1_555 1_555
C27_13 C31_13 1_555 1_555
C28_13 C32_13 1_555 1_555
N10_13 C22_13 1_555 1_555
H10_13 N10_13 1_555 1_555
C29_13 C31_13 1_555 1_555
C30_13 C32_13 1_555 1_555
O18_13 C49_13 1_555 1_555
O19_13 C50_13 1_555 1_555
O20_9 C51_13 1_555 1_555
O21_8 C52_13 1_555 1_555
C31_13 H11_13 1_555 1_555
C32_13 H12_13 1_555 1_555
C33_13 C29_13 1_555 1_555
C34_13 C30_13 1_555 1_555
H13_13 C33_13 1_555 1_555
H14_13 C34_13 1_555 1_555
O26_13 C51_13 1_555 1_555
O27_13 C52_13 1_555 1_555
N11_13 C23_13 1_555 1_555
N12_13 C24_13 1_555 1_555
H17_13 N11_13 1_555 1_555
H18_13 N12_13 1_555 1_555
H20_13 C42_13 1_555 1_555
C47_13 C25_13 1_555 1_555
C48_13 C26_13 1_555 1_555
H23_13 C47_13 1_555 1_555
H24_13 C48_13 1_555 1_555
C49_13 C25_13 1_555 1_555
C50_13 C26_13 1_555 1_555
C51_13 C27_13 1_555 1_555
C52_13 C28_13 1_555 1_555
C4_13 C16_13 1_555 1_555
C5_13 C15_13 1_555 1_555
C9_13 C14_13 1_555 1_555
C10_13 C13_13 1_555 1_555
C12_13 C14_13 1_555 1_555
N6_13 C22_13 1_555 1_555
N8_13 C24_13 1_555 1_555
C27_13 C47_13 1_555 1_555
C28_13 C48_13 1_555 1_555
C29_13 N11_13 1_555 1_555
C30_13 N12_13 1_555 1_555
Zn6_8 O10_11 1_555 1_555
O11_5 C39_13 1_555 1_555
O10_11 C40_13 1_555 1_555
N5_13 C21_13 1_555 1_555
C19_13 C39_13 1_555 1_555
C20_13 C40_13 1_555 1_555
O14_3 C53_13 1_555 1_555
O14_8 C54_13 1_555 1_555
N9_13 C21_13 1_555 1_555
H9_13 N9_13 1_555 1_555
O24_13 C39_13 1_555 1_555
C35_13 H15_13 1_555 1_555
C36_13 H16_13 1_555 1_555
C37_13 C35_13 1_555 1_555
C38_13 C36_13 1_555 1_555
C41_13 C19_13 1_555 1_555
H19_13 C41_13 1_555 1_555
C43_13 C19_13 1_555 1_555
C44_13 C20_13 1_555 1_555
H21_13 C43_13 1_555 1_555
H22_13 C44_13 1_555 1_555
C45_13 N9_13 1_555 1_555
C53_13 C37_13 1_555 1_555
C54_13 C38_13 1_555 1_555
O28_13 C53_13 1_555 1_555
O29_13 C54_13 1_555 1_555
C35_13 C45_13 1_555 1_555
C36_13 C46_13 1_555 1_555
C37_13 C43_13 1_555 1_555
C38_13 C44_13 1_555 1_555
C41_13 C45_13 1_555 1_555
Zn6_7 O1_12 1_555 1_555
Zn7_3 O2_14 1_555 1_555
O1_12 C11_14 1_555 1_555
C1_14 C11_14 1_555 1_555
O2_14 C18_14 1_555 1_555
C9_14 H4_14 1_555 1_555
C10_14 C9_14 1_555 1_555
C13_14 C1_14 1_555 1_555
H7_14 C13_14 1_555 1_555
C18_14 C10_14 1_555 1_555
O8_14 C18_14 1_555 1_555
O14_14 Zn7_3 1_555 1_555
O17_11 Zn6_7 1_555 1_555
N10_14 C22_14 1_555 1_555
H10_14 N10_14 1_555 1_555
O23_11 Zn7_3 1_555 1_555
H20_14 C42_14 1_555 1_555
C9_14 C14_14 1_555 1_555
C10_14 C13_14 1_555 1_555
N6_14 C22_14 1_555 1_555
Zn6_10 O10_12 1_555 1_555
O10_12 C40_14 1_555 1_555
C20_14 C40_14 1_555 1_555
O14 C54_14 1_555 1_555
C36_14 H16_14 1_555 1_555
C38_14 C36_14 1_555 1_555
C44_14 C20_14 1_555 1_555
H22_14 C44_14 1_555 1_555
C54_14 C38_14 1_555 1_555
O29_14 C54_14 1_555 1_555
C36_14 C46_14 1_555 1_555
C38_14 C44_14 1_555 1_555
N1_14 C2_14 1_555 1_555
C2_14 N3_14 1_555 1_555
N3_14 H1_14 1_555 1_555
H6_14 C12_14 1_555 1_555
Zn3_3 O9_12 1_555 1_555
Zn8_2 O12_10 1_555 1_555
O9_12 C39_14 1_555 1_555
N5_14 C21_14 1_555 1_555
C19_14 C39_14 1_555 1_555
O12_10 C53_14 1_555 1_555
N9_14 C21_14 1_555 1_555
H9_14 N9_14 1_555 1_555
O24_14 C39_14 1_555 1_555
C35_14 H15_14 1_555 1_555
C37_14 C35_14 1_555 1_555
C41_14 C19_14 1_555 1_555
H19_14 C41_14 1_555 1_555
C43_14 C19_14 1_555 1_555
H21_14 C43_14 1_555 1_555
C45_14 N9_14 1_555 1_555
C53_14 C37_14 1_555 1_555
O28_14 C53_14 1_555 1_555
C35_14 C45_14 1_555 1_555
C37_14 C43_14 1_555 1_555
C41_14 C45_14 1_555 1_555
N2_14 C3_14 1_555 1_555
C3_14 N4_14 1_555 1_555
C4_14 C8_14 1_555 1_555
C5_14 C7_14 1_555 1_555
C6_14 C7_14 1_555 1_555
O4_14 C16_14 1_555 1_555
O22_9 C17_14 1_555 1_555
C7_14 H2_14 1_555 1_555
C8_14 C6_14 1_555 1_555
H3_14 C8_14 1_555 1_555
O7_14 C17_14 1_555 1_555
N4_14 C6_14 1_555 1_555
H5_14 N4_14 1_555 1_555
C15_14 C4_14 1_555 1_555
H8_14 C15_14 1_555 1_555
C16_14 O17_10 1_555 1_555
C17_14 C5_14 1_555 1_555
Zn6_9 O16_12 1_555 1_555
Zn5_6 O15_14 1_555 1_555
N7_14 C23_14 1_555 1_555
N8_14 C3_14 1_555 1_555
O15_14 C49_14 1_555 1_555
O16_12 C50_14 1_555 1_555
C23_14 N2_14 1_555 1_555
C24_14 N7_14 1_555 1_555
C25_14 C33_14 1_555 1_555
C26_14 C34_14 1_555 1_555
C27_14 C31_14 1_555 1_555
C28_14 C32_14 1_555 1_555
C29_14 C31_14 1_555 1_555
C30_14 C32_14 1_555 1_555
O18_14 C49_14 1_555 1_555
O19_14 C50_14 1_555 1_555
O22_4 C51_14 1_555 1_555
O23_10 C52_14 1_555 1_555
C31_14 H11_14 1_555 1_555
C32_14 H12_14 1_555 1_555
C33_14 C29_14 1_555 1_555
C34_14 C30_14 1_555 1_555
H13_14 C33_14 1_555 1_555
H14_14 C34_14 1_555 1_555
O26_14 C51_14 1_555 1_555
O27_14 C52_14 1_555 1_555
N11_14 C23_14 1_555 1_555
N12_14 C24_14 1_555 1_555
H17_14 N11_14 1_555 1_555
H18_14 N12_14 1_555 1_555
C47_14 C25_14 1_555 1_555
C48_14 C26_14 1_555 1_555
H23_14 C47_14 1_555 1_555
H24_14 C48_14 1_555 1_555
C49_14 C25_14 1_555 1_555
C50_14 C26_14 1_555 1_555
C51_14 C27_14 1_555 1_555
C52_14 C28_14 1_555 1_555
C4_14 C16_14 1_555 1_555
C5_14 C15_14 1_555 1_555
N8_14 C24_14 1_555 1_555
C27_14 C47_14 1_555 1_555
C28_14 C48_14 1_555 1_555
C29_14 N11_14 1_555 1_555
C30_14 N12_14 1_555 1_555
O14_15 Zn8_3 1_555 1_555
O17_12 Zn5_5 1_555 1_555
O23_12 Zn8_3 1_555 1_555
O11_7 Zn6_4 1_555 1_555
C27_15 C31_15 1_555 1_555
C29_15 C31_15 1_555 1_555
O23_6 C51_15 1_555 1_555
C31_15 H11_15 1_555 1_555
O26_15 C51_15 1_555 1_555
H18_15 N12_15 1_555 1_555
H23_15 C47_15 1_555 1_555
C51_15 C27_15 1_555 1_555
C27_15 C47_15 1_555 1_555
C5_15 C7_15 1_555 1_555
C6_15 C7_15 1_555 1_555
O23_5 C17_15 1_555 1_555
C7_15 H2_15 1_555 1_555
O7_15 C17_15 1_555 1_555
H8_15 C15_15 1_555 1_555
C17_15 C5_15 1_555 1_555
H17_15 N11_15 1_555 1_555
C5_15 C15_15 1_555 1_555
O17_5 C49_15 1_555 1_555
C25_15 C33_15 1_555 1_555
O18_15 C49_15 1_555 1_555
C49_15 C25_15 1_555 1_555
H5_15 N4_15 1_555 1_555
C28_15 C32_15 1_555 1_555
C30_15 C32_15 1_555 1_555
O23_3 C52_15 1_555 1_555
C32_15 H12_15 1_555 1_555
O27_15 C52_15 1_555 1_555
H24_15 C48_15 1_555 1_555
C52_15 C28_15 1_555 1_555
C28_15 C48_15 1_555 1_555
O17_6 C50_15 1_555 1_555
C26_15 C34_15 1_555 1_555
O19_15 C50_15 1_555 1_555
C50_15 C26_15 1_555 1_555
C4_15 C8_15 1_555 1_555
O4_15 C16_15 1_555 1_555
C16_15 O17_3 1_555 1_555
C4_15 C16_15 1_555 1_555
O11_7 C11_15 1_555 1_555
N1_15 C2_15 1_555 1_555
C1_15 C11_15 1_555 1_555
C2_15 N3_15 1_555 1_555
O14_13 C18_15 1_555 1_555
N3_15 H1_15 1_555 1_555
O6_15 C11_15 1_555 1_555
C9_15 H4_15 1_555 1_555
C10_15 C9_15 1_555 1_555
C12_15 C1_15 1_555 1_555
H6_15 C12_15 1_555 1_555
C13_15 C1_15 1_555 1_555
H7_15 C13_15 1_555 1_555
C14_15 N3_15 1_555 1_555
C18_15 C10_15 1_555 1_555
O8_15 C18_15 1_555 1_555
Zn6 O9_13 1_555 1_555
Zn3_2 O10_13 1_555 1_555
O9_13 C39_15 1_555 1_555
O10_13 C40_15 1_555 1_555
N5_15 C21_15 1_555 1_555
N6_15 C2_15 1_555 1_555
C19_15 C39_15 1_555 1_555
C20_15 C40_15 1_555 1_555
C21_15 N1_15 1_555 1_555
C22_15 N5_15 1_555 1_555
O14_15 C53_15 1_555 1_555
O14_14 C54_15 1_555 1_555
N9_15 C21_15 1_555 1_555
N10_15 C22_15 1_555 1_555
H9_15 N9_15 1_555 1_555
H10_15 N10_15 1_555 1_555
O24_15 C39_15 1_555 1_555
O25_15 C40_15 1_555 1_555
C35_15 H15_15 1_555 1_555
C36_15 H16_15 1_555 1_555
C37_15 C35_15 1_555 1_555
C38_15 C36_15 1_555 1_555
C41_15 C19_15 1_555 1_555
C42_15 C20_15 1_555 1_555
H19_15 C41_15 1_555 1_555
H20_15 C42_15 1_555 1_555
C43_15 C19_15 1_555 1_555
C44_15 C20_15 1_555 1_555
H21_15 C43_15 1_555 1_555
H22_15 C44_15 1_555 1_555
C45_15 N9_15 1_555 1_555
C46_15 N10_15 1_555 1_555
C53_15 C37_15 1_555 1_555
C54_15 C38_15 1_555 1_555
O28_15 C53_15 1_555 1_555
O29_15 C54_15 1_555 1_555
C9_15 C14_15 1_555 1_555
C10_15 C13_15 1_555 1_555
C12_15 C14_15 1_555 1_555
N6_15 C22_15 1_555 1_555
C35_15 C45_15 1_555 1_555
C36_15 C46_15 1_555 1_555
C37_15 C43_15 1_555 1_555
C38_15 C44_15 1_555 1_555
C41_15 C45_15 1_555 1_555
C42_15 C46_15 1_555 1_555
O11_8 Zn6_9 1_555 1_555
N2_15 C3_15 1_555 1_555
C3_15 N4_16 1_555 1_555
C4_16 C8_16 1_555 1_555
C5_16 C7_16 1_555 1_555
C6_16 C7_16 1_555 1_555
O4_16 C16_16 1_555 1_555
O23_11 C17_16 1_555 1_555
C7_16 H2_16 1_555 1_555
C8_16 C6_16 1_555 1_555
H3_16 C8_16 1_555 1_555
O7_16 C17_16 1_555 1_555
N4_16 C6_16 1_555 1_555
H5_16 N4_16 1_555 1_555
C15_16 C4_16 1_555 1_555
H8_16 C15_16 1_555 1_555
C16_16 O17_9 1_555 1_555
C17_16 C5_16 1_555 1_555
N7_15 C23_15 1_555 1_555
N8_15 C3_15 1_555 1_555
O17_11 C49_16 1_555 1_555
O17_12 C50_16 1_555 1_555
C23_15 N2_15 1_555 1_555
C24_15 N7_15 1_555 1_555
C25_16 C33_16 1_555 1_555
C26_16 C34_16 1_555 1_555
C27_16 C31_16 1_555 1_555
C28_16 C32_16 1_555 1_555
C29_16 C31_16 1_555 1_555
C30_16 C32_16 1_555 1_555
O18_16 C49_16 1_555 1_555
O19_16 C50_16 1_555 1_555
O23_12 C51_16 1_555 1_555
O23_9 C52_16 1_555 1_555
C31_16 H11_16 1_555 1_555
C32_16 H12_16 1_555 1_555
C33_16 C29_16 1_555 1_555
C34_16 C30_16 1_555 1_555
H13_16 C33_16 1_555 1_555
H14_16 C34_16 1_555 1_555
O26_16 C51_16 1_555 1_555
O27_16 C52_16 1_555 1_555
N11_16 C23_15 1_555 1_555
N12_16 C24_15 1_555 1_555
H17_16 N11_16 1_555 1_555
H18_16 N12_16 1_555 1_555
C47_16 C25_16 1_555 1_555
C48_16 C26_16 1_555 1_555
H23_16 C47_16 1_555 1_555
H24_16 C48_16 1_555 1_555
C49_16 C25_16 1_555 1_555
C50_16 C26_16 1_555 1_555
C51_16 C27_16 1_555 1_555
C52_16 C28_16 1_555 1_555
C4_16 C16_16 1_555 1_555
C5_16 C15_16 1_555 1_555
N8_15 C24_15 1_555 1_555
C27_16 C47_16 1_555 1_555
C28_16 C48_16 1_555 1_555
C29_16 N11_16 1_555 1_555
C30_16 N12_16 1_555 1_555
Zn6_5 O9_14 1_555 1_555
O9_14 C39_16 1_555 1_555
C19_16 C39_16 1_555 1_555
O14_12 C53_16 1_555 1_555
C35_16 H15_16 1_555 1_555
C37_16 C35_16 1_555 1_555
C43_16 C19_16 1_555 1_555
H21_16 C43_16 1_555 1_555
C53_16 C37_16 1_555 1_555
O28_16 C53_16 1_555 1_555
C35_16 C45_16 1_555 1_555
C37_16 C43_16 1_555 1_555
Zn3_4 O10_14 1_555 1_555
O10_14 C40_16 1_555 1_555
C20_16 C40_16 1_555 1_555
O14_7 C54_16 1_555 1_555
C36_16 H16_16 1_555 1_555
C38_16 C36_16 1_555 1_555
C44_16 C20_16 1_555 1_555
H22_16 C44_16 1_555 1_555
C54_16 C38_16 1_555 1_555
O29_16 C54_16 1_555 1_555
C36_16 C46_16 1_555 1_555
C38_16 C44_16 1_555 1_555
N5_16 C21_16 1_555 1_555
N9_16 C21_16 1_555 1_555
H9_16 N9_16 1_555 1_555
H19_16 C41_16 1_555 1_555
O11_8 C11_16 1_555 1_555
C1_16 C11_16 1_555 1_555
O14_4 C18_16 1_555 1_555
C9_16 H4_16 1_555 1_555
C10_16 C9_16 1_555 1_555
C13_16 C1_16 1_555 1_555
H7_16 C13_16 1_555 1_555
C18_16 C10_16 1_555 1_555
O8_16 C18_16 1_555 1_555
C9_16 C14_16 1_555 1_555
C10_16 C13_16 1_555 1_555
N1_16 C2_16 1_555 1_555
C2_16 N3_16 1_555 1_555
N3_16 H1_16 1_555 1_555
H6_16 C12_16 1_555 1_555
N10_16 C22_16 1_555 1_555
H10_16 N10_16 1_555 1_555
H20_16 C42_16 1_555 1_555
N6_16 C22_16 1_555 1_555
N2_16 C3_16 1_555 1_555
N7_16 C23_16 1_555 1_555
N8_16 C3_16 1_555 1_555
C23_16 N2_16 1_555 1_555
C24_16 N7_16 1_555 1_555
N8_16 C24_16 1_555 1_555

#END
