
###############################################################################
#
# This file contains modified crystal structure data generated from the
# MOF subset of the Cambridge Structural Database (CSD) v543 
# hosted by the Cambridge Crystallographic Data Centre (CCDC).
#
# This work is licensed under the Creative Commons
# Attribution-NonCommercial-ShareAlike 4.0 International License.
# To view a copy of this license, visit
# http://creativecommons.org/licenses/by-nc-sa/4.0/
# or send a letter to
# Creative Commons, PO Box 1866, Mountain View, CA 94042, USA.
#
# CIF created using the CSD Python API on 29 September 2022
# The structure has been converted into the P1 space group
# The structure has a 3D framework
# The original CSD entry ICODIP is in the cubic crystal system
# The original CSD entry ICODIP is in a Sohncke space group
# The framework has been calculated to contain at least 10.0% void space
# The void calculation uses a probe of radius 1.32A, grid spacing 0.4
#
###############################################################################

data_ICODIP
_chemical_formula_moiety         '(C864 H384 N192 O384 Zn18)n'
_symmetry_cell_setting           triclinic
_symmetry_space_group_name_H-M   'P 1'
_symmetry_Int_Tables_number      1
_space_group_name_Hall           'P 1'
loop_
_symmetry_equiv_pos_site_id
_symmetry_equiv_pos_as_xyz
1 x,y,z
_cell_length_a                   35.9299(12)
_cell_length_b                   35.9299(12)
_cell_length_c                   35.9299(12)
_cell_angle_alpha                90
_cell_angle_beta                 90
_cell_angle_gamma                90
_cell_volume                     46384
loop_
_atom_site_label
_atom_site_type_symbol
_atom_site_fract_x
_atom_site_fract_y
_atom_site_fract_z
Zn3 Zn -0.0000 0.2500 0.39039(2)
Zn6 Zn 0.10961(2) 0.0000 0.7500
C24 C 0.05229(13) 0.03324(14) 0.79023(12)
O16 O 0.05103(11) 0.05529(12) 0.76410(12)
C38 C 0.02464(14) 0.01228(13) 0.85018(14)
C50 C 0.02464(13) 0.03772(13) 0.82077(13)
O22 O 0.07650(9) 0.00834(9) 0.79300(8)
Zn5 Zn 0.0000 0.7500 0.10961(2)
C23 C 0.03324(14) 0.79023(12) 0.05229(13)
O15 O 0.05529(12) 0.76410(12) 0.05103(11)
C37 C 0.01228(13) 0.85018(14) 0.02464(14)
C49 C 0.03772(13) 0.82077(13) 0.02464(13)
O21 O 0.00834(9) 0.79300(8) 0.07650(9)
Zn6_2 Zn 0.10961(2) 1.0000 0.7500
Zn11 Zn 0.125640(17) 0.875640(17) 0.8750
C19 C 0.01244(13) 0.87879(14) 0.99987(12)
C21 C 0.06514(13) 0.82214(14) 0.99685(14)
H11 H 0.0828 0.8033 0.9957
N12 N 0.00314(11) 0.98540(10) 0.90563(11)
H14 H 0.0226 0.9717 0.9029
C27 C 0.04004(13) 0.87797(13) 0.97265(13)
H15 H 0.0409 0.8965 0.9546
C33 C 0.06651(13) 0.84941(14) 0.97242(13)
H22 H 0.0429 0.9939 0.8502
O24 O 0.08906(11) 0.86787(11) 0.91293(10)
O28 O 0.12518(12) 0.83328(12) 0.94804(12)
C53 C 0.09714(17) 0.84990(17) 0.94210(17)
Zn1 Zn 0.7500 0.10961(2) 0.0000
Zn2 Zn 0.6250 0.125640(17) 0.124360(17)
O1 O 0.61913(9) 0.17948(11) 0.12752(12)
O2 O 0.72529(9) 0.13553(8) 0.04133(8)
N1 N 0.77181(11) 0.21726(12) 0.17797(11)
H1 H 0.7924 0.2050 0.1771
N3 N 0.79761(10) 0.24306(10) 0.23095(10)
C3 C 0.79023(12) 0.05229(13) 0.03324(14)
C4 C 0.77039(12) 0.24365(12) 0.20443(13)
O3 O 0.76410(12) 0.05103(11) 0.05529(12)
C6 C 0.70831(13) 0.21092(14) 0.15614(12)
H5 H 0.6996 0.2232 0.1772
O4 O 0.78069(11) 0.15939(12) 0.05063(11)
C7 C 0.74597(14) 0.20670(12) 0.15220(12)
C9 C 0.75805(13) 0.18943(12) 0.11989(14)
H6 H 0.7835 0.1874 0.1156
C10 C 0.85018(14) 0.02464(14) 0.01228(13)
C11 C 0.68322(12) 0.19839(14) 0.13153(14)
C12 C 0.69711(16) 0.17779(14) 0.10076(14)
H8 H 0.6803 0.1659 0.0851
C13 C 0.73354(13) 0.17496(13) 0.09355(13)
C15 C 0.74794(15) 0.15575(14) 0.06106(13)
O5 O 0.63335(12) 0.2370(2) 0.1490(2)
C16 C 0.82077(13) 0.02464(13) 0.03772(13)
O6 O 0.79300(8) 0.07650(9) 0.00834(9)
C17 C 0.64163(17) 0.2022(2) 0.13771(17)
Zn3_2 Zn 1.0000 0.2500 0.39039(2)
Zn4 Zn 0.60961(2) 0.5000 0.2500
Zn7 Zn 0.875640(17) 0.1250 0.374360(17)
Zn8 Zn 0.625640(17) 0.375640(17) 0.3750
O9 O 0.87248(12) 0.11913(9) 0.32052(11)
O10 O 0.67948(11) 0.37248(12) 0.38087(9)
O11 O 0.63087(9) 0.12248(12) 0.07052(11)
O12 O 0.95867(8) 0.22529(9) 0.36447(8)
O13 O 0.63553(8) 0.45867(8) 0.27471(9)
N5 N 0.82203(11) 0.27181(11) 0.28274(12)
N6 N 0.71726(12) 0.32203(11) 0.22819(11)
H9 H 0.8229 0.2924 0.2950
H10 H 0.7050 0.3229 0.2076
N9 N 0.76905(10) 0.29761(10) 0.25694(10)
N10 N 0.74306(10) 0.26905(10) 0.20239(10)
C25 C 0.79557(13) 0.27039(12) 0.25635(12)
C26 C 0.74365(12) 0.29557(13) 0.22961(12)
C29 C 0.84386(12) 0.20831(13) 0.28908(14)
C30 C 0.71092(14) 0.34386(12) 0.29169(13)
H17 H 0.8228 0.1996 0.2768
H18 H 0.7232 0.3228 0.3004
O17 O 0.94937(11) 0.28069(11) 0.34061(12)
O18 O 0.65939(12) 0.44937(11) 0.21931(11)
C31 C 0.84780(12) 0.24597(14) 0.29330(12)
C32 C 0.70670(12) 0.34780(12) 0.25403(14)
C35 C 0.88011(14) 0.25805(13) 0.31057(12)
C36 C 0.68943(12) 0.38011(14) 0.24195(13)
H19 H 0.8844 0.2835 0.3126
H20 H 0.6874 0.3844 0.2165
C39 C 0.86847(14) 0.18322(12) 0.30161(14)
C40 C 0.69839(14) 0.36847(14) 0.31678(12)
C41 C 0.89924(14) 0.19711(16) 0.32221(14)
C42 C 0.67779(14) 0.39924(14) 0.30289(16)
H23 H 0.9149 0.1803 0.3341
H24 H 0.6659 0.4149 0.3197
C43 C 0.90645(13) 0.23354(13) 0.32504(13)
C44 C 0.67496(13) 0.40645(13) 0.26646(13)
C47 C 0.93894(13) 0.24794(15) 0.34425(14)
C48 C 0.65575(14) 0.43894(13) 0.25206(15)
O19 O 0.8510(2) 0.13335(12) 0.2630(2)
O20 O 0.7370(2) 0.3510(2) 0.36665(12)
C51 C 0.86229(17) 0.14163(17) 0.2978(2)
C52 C 0.7022(2) 0.36229(17) 0.35837(17)
O26 O 0.66293(10) 0.11787(11) 0.16094(11)
O27 O 0.58707(10) 0.08906(11) 0.13213(11)
Zn1_2 Zn 0.7500 0.10961(2) 1.0000
N4 N 0.90563(11) 0.00314(11) 0.98540(10)
H3 H 0.9029 0.0226 0.9717
H7 H 0.8502 0.0429 0.9939
Zn10 Zn 0.8750 0.125640(17) 0.875640(17)
C20 C 0.99987(12) 0.01244(13) 0.87879(14)
O14 O 0.77471(9) 0.13553(8) 0.95867(8)
C22 C 0.99685(14) 0.06514(13) 0.82214(14)
H12 H 0.9957 0.0828 0.8033
C28 C 0.97265(13) 0.04004(13) 0.87797(13)
H16 H 0.9546 0.0409 0.8965
C34 C 0.97242(13) 0.06651(13) 0.84941(14)
O23 O 0.70700(8) 0.07650(9) 0.99166(9)
O25 O 0.91293(10) 0.08906(11) 0.86787(11)
O29 O 0.94804(12) 0.12518(12) 0.83328(12)
C54 C 0.94210(17) 0.09714(17) 0.84990(17)
C1 C 0.87879(14) 0.99987(12) 0.01244(13)
C2 C 0.82214(14) 0.99685(14) 0.06514(13)
H2 H 0.8033 0.9957 0.0828
C5 C 0.87797(13) 0.97265(13) 0.04004(13)
H4 H 0.8965 0.9546 0.0409
C8 C 0.84941(14) 0.97242(13) 0.06651(13)
O7 O 0.86787(11) 0.91293(10) 0.08906(11)
O8 O 0.83328(12) 0.94804(12) 0.12518(12)
C18 C 0.84990(17) 0.94210(17) 0.09714(17)
Zn5_2 Zn 1.0000 0.7500 0.10961(2)
Zn9 Zn 0.875640(17) 0.8750 0.125640(17)
N11 N 0.98540(10) 0.90563(11) 0.00314(11)
H13 H 0.9717 0.9029 0.0226
H21 H 0.9939 0.8502 0.0429
C1_2 C 0.62121(14) 0.00013(12) 0.51244(13)
N2 N 0.54645(10) 0.00405(12) 0.44548(11)
C2_2 C 0.67786(14) 0.00315(14) 0.56514(13)
H2_2 H 0.6967 0.0043 0.5828
C5_2 C 0.62203(13) 0.02735(13) 0.54004(13)
H4_2 H 0.6035 0.0454 0.5409
C8_2 C 0.65059(14) 0.02758(13) 0.56651(13)
C14 C 0.56480(13) 0.01763(15) 0.47584(14)
O7_2 O 0.63213(11) 0.08707(10) 0.58906(11)
O8_2 O 0.66672(12) 0.05196(12) 0.62518(12)
C18_2 C 0.65010(17) 0.05790(17) 0.59714(17)
Zn5_3 Zn 0.5000 0.2500 0.60961(2)
Zn6_3 Zn 0.39039(2) 0.0000 0.2500
Zn9_2 Zn 0.624360(17) 0.1250 0.625640(17)
Zn11_2 Zn 0.374360(17) 0.124360(17) 0.3750
C19_2 C 0.48756(13) 0.12121(14) 0.49987(12)
N7 N 0.55452(11) 0.04645(10) 0.49595(12)
N8 N 0.50405(12) 0.05452(11) 0.45355(10)
C21_2 C 0.43486(13) 0.17786(14) 0.49685(14)
H11_2 H 0.4172 0.1967 0.4957
N11_2 N 0.51460(10) 0.09437(11) 0.50314(11)
N12_2 N 0.49686(11) 0.01460(10) 0.40563(11)
H13_2 H 0.5283 0.0971 0.5226
H14_2 H 0.4774 0.0283 0.4029
C23_2 C 0.46676(14) 0.20977(12) 0.55229(13)
O15_2 O 0.44471(12) 0.23590(12) 0.55103(11)
C27_2 C 0.45996(13) 0.12203(13) 0.47265(13)
H15_2 H 0.4591 0.1035 0.4546
C33_2 C 0.43349(13) 0.15059(14) 0.47242(13)
C37_2 C 0.48772(13) 0.14982(14) 0.52464(14)
H21_2 H 0.5061 0.1498 0.5429
H22_2 H 0.4571 0.0061 0.3502
C45 C 0.52416(14) 0.06480(13) 0.48237(15)
C46 C 0.51763(15) 0.02416(14) 0.43520(13)
C49_2 C 0.46228(13) 0.17923(13) 0.52464(13)
O21_2 O 0.49166(9) 0.20700(8) 0.57650(9)
O24_2 O 0.41094(11) 0.13213(11) 0.41293(10)
O28_2 O 0.37482(12) 0.16672(12) 0.44804(12)
C53_2 C 0.40286(17) 0.15010(17) 0.44210(17)
Zn1_3 Zn 0.7500 0.89039(2) 0.5000
Zn2_2 Zn 0.8750 0.874360(17) 0.624360(17)
O1_2 O 0.88087(9) 0.82052(11) 0.62752(12)
O2_2 O 0.77471(9) 0.86447(8) 0.54133(8)
N1_2 N 0.72819(11) 0.78274(12) 0.67797(11)
H1_2 H 0.7076 0.7950 0.6771
N3_2 N 0.70239(10) 0.75694(10) 0.73095(10)
N4_2 N 0.59437(11) 0.99686(11) 0.48540(10)
H3_2 H 0.5971 0.9774 0.4717
C3_2 C 0.70977(12) 0.94771(13) 0.53324(14)
C4_2 C 0.72961(12) 0.75635(12) 0.70443(13)
O3_2 O 0.73590(12) 0.94897(11) 0.55529(12)
C6_2 C 0.79169(13) 0.78908(14) 0.65614(12)
H5_2 H 0.8004 0.7768 0.6772
O4_2 O 0.71931(11) 0.84061(12) 0.55063(11)
C7_2 C 0.75403(14) 0.79330(12) 0.65220(12)
C9_2 C 0.74195(13) 0.81057(12) 0.61989(14)
H6_2 H 0.7165 0.8126 0.6156
C10_2 C 0.64982(14) 0.97536(14) 0.51228(13)
H7_2 H 0.6498 0.9571 0.4939
C11_2 C 0.81678(12) 0.80161(14) 0.63153(14)
C12_2 C 0.80289(16) 0.82221(14) 0.60076(14)
H8_2 H 0.8197 0.8341 0.5851
C13_2 C 0.76646(13) 0.82504(13) 0.59355(13)
C15_2 C 0.75206(15) 0.84425(14) 0.56106(13)
O5_2 O 0.86665(12) 0.7630(2) 0.6490(2)
C16_2 C 0.67923(13) 0.97536(13) 0.53772(13)
O6_2 O 0.70700(8) 0.92350(9) 0.50834(9)
C17_2 C 0.85837(17) 0.7978(2) 0.63771(17)
Zn3_3 Zn 0.5000 0.7500 0.89039(2)
Zn4_2 Zn 0.89039(2) 0.5000 0.7500
Zn6_4 Zn 0.39039(2) 1.0000 0.2500
Zn7_2 Zn 0.624360(17) 0.8750 0.874360(17)
Zn8_2 Zn 0.874360(17) 0.624360(17) 0.8750
Zn10_2 Zn 0.6250 0.874360(17) 0.375640(17)
C20_2 C 0.50013(12) 0.98756(13) 0.37879(14)
O9_2 O 0.62752(12) 0.88087(9) 0.82052(11)
O10_2 O 0.82052(11) 0.62752(12) 0.88087(9)
O11_2 O 0.86913(9) 0.87752(12) 0.57052(11)
O12_2 O 0.54133(8) 0.77471(9) 0.86447(8)
O13_2 O 0.86447(8) 0.54133(8) 0.77471(9)
O14_2 O 0.72529(9) 0.86447(8) 0.45867(8)
N5_2 N 0.67797(11) 0.72819(11) 0.78274(12)
N6_2 N 0.78274(12) 0.67797(11) 0.72819(11)
H9_2 H 0.6771 0.7076 0.7950
H10_2 H 0.7950 0.6771 0.7076
N9_2 N 0.73095(10) 0.70239(10) 0.75694(10)
N10_2 N 0.75694(10) 0.73095(10) 0.70239(10)
C22_2 C 0.50315(14) 0.93486(13) 0.32214(14)
H12_2 H 0.5043 0.9172 0.3033
C24_2 C 0.44771(13) 0.96676(14) 0.29023(12)
C25_2 C 0.70443(13) 0.72961(12) 0.75635(12)
C26_2 C 0.75635(12) 0.70443(13) 0.72961(12)
O16_2 O 0.44897(11) 0.94471(12) 0.26410(12)
C28_2 C 0.52735(13) 0.95996(13) 0.37797(13)
H16_2 H 0.5454 0.9591 0.3965
C29_2 C 0.65614(12) 0.79169(13) 0.78908(14)
C30_2 C 0.78908(14) 0.65614(12) 0.79169(13)
H17_2 H 0.6772 0.8004 0.7768
H18_2 H 0.7768 0.6772 0.8004
O17_2 O 0.55063(11) 0.71931(11) 0.84061(12)
O18_2 O 0.84061(12) 0.55063(11) 0.71931(11)
C31_2 C 0.65220(12) 0.75403(14) 0.79330(12)
C32_2 C 0.79330(12) 0.65220(12) 0.75403(14)
C34_2 C 0.52758(13) 0.93349(13) 0.34941(14)
C35_2 C 0.61989(14) 0.74195(13) 0.81057(12)
C36_2 C 0.81057(12) 0.61989(14) 0.74195(13)
H19_2 H 0.6156 0.7165 0.8126
H20_2 H 0.8126 0.6156 0.7165
C38_2 C 0.47536(14) 0.98772(13) 0.35018(14)
C39_2 C 0.63153(14) 0.81678(12) 0.80161(14)
C40_2 C 0.80161(14) 0.63153(14) 0.81678(12)
C41_2 C 0.60076(14) 0.80289(16) 0.82221(14)
C42_2 C 0.82221(14) 0.60076(14) 0.80289(16)
H23_2 H 0.5851 0.8197 0.8341
H24_2 H 0.8341 0.5851 0.8197
C43_2 C 0.59355(13) 0.76646(13) 0.82504(13)
C44_2 C 0.82504(13) 0.59355(13) 0.76646(13)
C47_2 C 0.56106(13) 0.75206(15) 0.84425(14)
C48_2 C 0.84425(14) 0.56106(13) 0.75206(15)
O19_2 O 0.6490(2) 0.86665(12) 0.7630(2)
O20_2 O 0.7630(2) 0.6490(2) 0.86665(12)
C50_2 C 0.47536(13) 0.96228(13) 0.32077(13)
O22_2 O 0.42350(9) 0.99166(9) 0.29300(8)
O23_2 O 0.79300(8) 0.92350(9) 0.49166(9)
C51_2 C 0.63771(17) 0.85837(17) 0.7978(2)
C52_2 C 0.7978(2) 0.63771(17) 0.85837(17)
O25_2 O 0.58707(10) 0.91094(11) 0.36787(11)
O26_2 O 0.83707(10) 0.88213(11) 0.66094(11)
O27_2 O 0.91293(10) 0.91094(11) 0.63213(11)
O29_2 O 0.55196(12) 0.87482(12) 0.33328(12)
C54_2 C 0.55790(17) 0.90286(17) 0.34990(17)
Zn1_4 Zn 0.2500 0.60961(2) 0.5000
Zn2_3 Zn 0.3750 0.625640(17) 0.375640(17)
C1_3 C 0.12121(14) 0.49987(12) 0.48756(13)
O1_3 O 0.38087(9) 0.67948(11) 0.37248(12)
O2_3 O 0.27471(9) 0.63553(8) 0.45867(8)
N1_3 N 0.22819(11) 0.71726(12) 0.32203(11)
H1_3 H 0.2076 0.7050 0.3229
N2_2 N 0.04645(10) 0.49595(12) 0.55452(11)
N3_3 N 0.20239(10) 0.74306(10) 0.26905(10)
C2_3 C 0.17786(14) 0.49685(14) 0.43486(13)
H2_3 H 0.1967 0.4957 0.4172
N4_3 N 0.09437(11) 0.50314(11) 0.51460(10)
H3_3 H 0.0971 0.5226 0.5283
C3_3 C 0.20977(12) 0.55229(13) 0.46676(14)
C4_3 C 0.22961(12) 0.74365(12) 0.29557(13)
O3_3 O 0.23590(12) 0.55103(11) 0.44471(12)
C5_3 C 0.12203(13) 0.47265(13) 0.45996(13)
H4_3 H 0.1035 0.4546 0.4591
C6_3 C 0.29169(13) 0.71092(14) 0.34386(12)
H5_3 H 0.3004 0.7232 0.3228
O4_3 O 0.21931(11) 0.65939(12) 0.44937(11)
C7_3 C 0.25403(14) 0.70670(12) 0.34780(12)
C8_3 C 0.15059(14) 0.47242(13) 0.43349(13)
C9_3 C 0.24195(13) 0.68943(12) 0.38011(14)
H6_3 H 0.2165 0.6874 0.3844
C10_3 C 0.14982(14) 0.52464(14) 0.48772(13)
H7_3 H 0.1498 0.5429 0.5061
C11_3 C 0.31678(12) 0.69839(14) 0.36847(14)
C12_3 C 0.30289(16) 0.67779(14) 0.39924(14)
H8_3 H 0.3197 0.6659 0.4149
C13_3 C 0.26646(13) 0.67496(13) 0.40645(13)
C14_2 C 0.06480(13) 0.48237(15) 0.52416(14)
C15_3 C 0.25206(15) 0.65575(14) 0.43894(13)
O5_3 O 0.36665(12) 0.7370(2) 0.3510(2)
C16_3 C 0.17923(13) 0.52464(13) 0.46228(13)
O6_3 O 0.20700(8) 0.57650(9) 0.49166(9)
C17_3 C 0.35837(17) 0.7022(2) 0.36229(17)
O7_3 O 0.13213(11) 0.41293(10) 0.41094(11)
O8_3 O 0.16672(12) 0.44804(12) 0.37482(12)
C18_3 C 0.15010(17) 0.44210(17) 0.40286(17)
Zn7_3 Zn 0.124360(17) 0.6250 0.125640(17)
Zn8_3 Zn 0.374360(17) 0.875640(17) 0.1250
Zn9_3 Zn 0.124360(17) 0.3750 0.374360(17)
Zn10_3 Zn 0.1250 0.625640(17) 0.624360(17)
C20_3 C 0.00013(12) 0.51244(13) 0.62121(14)
O9_3 O 0.12752(12) 0.61913(9) 0.17948(11)
O10_3 O 0.32052(11) 0.87248(12) 0.11913(9)
O11_3 O 0.36913(9) 0.62248(12) 0.42948(11)
O12_3 O 0.04133(8) 0.72529(9) 0.13553(8)
O13_3 O 0.36447(8) 0.95867(8) 0.22529(9)
O14_3 O 0.22529(9) 0.63553(8) 0.54133(8)
N5_3 N 0.17797(11) 0.77181(11) 0.21726(12)
N6_3 N 0.28274(12) 0.82203(11) 0.27181(11)
H9_3 H 0.1771 0.7924 0.2050
H10_3 H 0.2950 0.8229 0.2924
N7_2 N 0.05452(11) 0.45355(10) 0.50405(12)
N8_2 N 0.00405(12) 0.44548(11) 0.54645(10)
N9_3 N 0.23095(10) 0.79761(10) 0.24306(10)
N10_3 N 0.25694(10) 0.76905(10) 0.29761(10)
C22_3 C 0.00315(14) 0.56514(13) 0.67786(14)
H12_3 H 0.0043 0.5828 0.6967
N11_3 N 0.01460(10) 0.40563(11) 0.49686(11)
H13_3 H 0.0283 0.4029 0.4774
C25_3 C 0.20443(13) 0.77039(12) 0.24365(12)
C26_3 C 0.25635(12) 0.79557(13) 0.27039(12)
C28_3 C 0.02735(13) 0.54004(13) 0.62203(13)
H16_3 H 0.0454 0.5409 0.6035
C29_3 C 0.15614(12) 0.70831(13) 0.21092(14)
C30_3 C 0.28908(14) 0.84386(12) 0.20831(13)
H17_3 H 0.1772 0.6996 0.2232
H18_3 H 0.2768 0.8228 0.1996
O17_3 O 0.05063(11) 0.78069(11) 0.15939(12)
O18_3 O 0.34061(12) 0.94937(11) 0.28069(11)
C31_3 C 0.15220(12) 0.74597(14) 0.20670(12)
C32_3 C 0.29330(12) 0.84780(12) 0.24597(14)
C34_3 C 0.02758(13) 0.56651(13) 0.65059(14)
C35_3 C 0.11989(14) 0.75805(13) 0.18943(12)
C36_3 C 0.31057(12) 0.88011(14) 0.25805(13)
H19_3 H 0.1156 0.7835 0.1874
H20_3 H 0.3126 0.8844 0.2835
H21_3 H 0.0061 0.3502 0.4571
C39_3 C 0.13153(14) 0.68322(12) 0.19839(14)
C40_3 C 0.30161(14) 0.86847(14) 0.18322(12)
C41_3 C 0.10076(14) 0.69711(16) 0.17779(14)
C42_3 C 0.32221(14) 0.89924(14) 0.19711(16)
H23_3 H 0.0851 0.6803 0.1659
H24_3 H 0.3341 0.9149 0.1803
C43_3 C 0.09355(13) 0.73354(13) 0.17496(13)
C44_3 C 0.32504(13) 0.90645(13) 0.23354(13)
C45_2 C 0.02416(14) 0.43520(13) 0.51763(15)
C46_2 C 0.01763(15) 0.47584(14) 0.56480(13)
C47_3 C 0.06106(13) 0.74794(15) 0.15575(14)
C48_3 C 0.34425(14) 0.93894(13) 0.24794(15)
O19_3 O 0.1490(2) 0.63335(12) 0.2370(2)
O20_3 O 0.2630(2) 0.8510(2) 0.13335(12)
O23_3 O 0.29300(8) 0.57650(9) 0.50834(9)
C51_3 C 0.13771(17) 0.64163(17) 0.2022(2)
C52_3 C 0.2978(2) 0.86229(17) 0.14163(17)
O25_3 O 0.08707(10) 0.58906(11) 0.63213(11)
O26_3 O 0.33707(10) 0.61787(11) 0.33906(11)
O27_3 O 0.41293(10) 0.58906(11) 0.36787(11)
O29_3 O 0.05196(12) 0.62518(12) 0.66672(12)
C54_3 C 0.05790(17) 0.59714(17) 0.65010(17)
Zn11_3 Zn 0.874360(17) 0.375640(17) 0.6250
C19_3 C 0.98756(13) 0.37879(14) 0.50013(12)
C21_3 C 0.93486(13) 0.32214(14) 0.50315(14)
H11_3 H 0.9172 0.3033 0.5043
N12_3 N 0.99686(11) 0.48540(10) 0.59437(11)
H14_3 H 0.9774 0.4717 0.5971
C23_3 C 0.96676(14) 0.29023(12) 0.44771(13)
C24_3 C 0.94771(13) 0.53324(14) 0.70977(12)
O15_3 O 0.94471(12) 0.26410(12) 0.44897(11)
O16_3 O 0.94897(11) 0.55529(12) 0.73590(12)
C27_3 C 0.95996(13) 0.37797(13) 0.52735(13)
H15_3 H 0.9591 0.3965 0.5454
C33_3 C 0.93349(13) 0.34941(14) 0.52758(13)
C37_3 C 0.98772(13) 0.35018(14) 0.47536(14)
C38_3 C 0.97536(14) 0.51228(13) 0.64982(14)
H22_3 H 0.9571 0.4939 0.6498
C49_3 C 0.96228(13) 0.32077(13) 0.47536(13)
C50_3 C 0.97536(13) 0.53772(13) 0.67923(13)
O21_3 O 0.99166(9) 0.29300(8) 0.42350(9)
O22_3 O 0.92350(9) 0.50834(9) 0.70700(8)
O24_3 O 0.91094(11) 0.36787(11) 0.58707(10)
O28_3 O 0.87482(12) 0.33328(12) 0.55196(12)
C53_3 C 0.90286(17) 0.34990(17) 0.55790(17)
Zn1_5 Zn 0.2500 0.39039(2) 0.0000
N2_3 N 0.45355(10) 0.50405(12) 0.05452(11)
N4_4 N 0.40563(11) 0.49686(11) 0.01460(10)
H3_4 H 0.4029 0.4774 0.0283
H7_4 H 0.3502 0.4571 0.0061
C14_3 C 0.43520(13) 0.51763(15) 0.02416(14)
Zn10_4 Zn 0.3750 0.374360(17) 0.124360(17)
Zn11_4 Zn 0.625640(17) 0.624360(17) 0.1250
C19_4 C 0.51244(13) 0.62121(14) 0.00013(12)
C20_4 C 0.49987(12) 0.48756(13) 0.12121(14)
O14_4 O 0.27471(9) 0.36447(8) 0.04133(8)
N7_3 N 0.44548(11) 0.54645(10) 0.00405(12)
N8_3 N 0.49595(12) 0.55452(11) 0.04645(10)
C21_4 C 0.56514(13) 0.67786(14) 0.00315(14)
C22_4 C 0.49685(14) 0.43486(13) 0.17786(14)
H11_4 H 0.5828 0.6967 0.0043
H12_4 H 0.4957 0.4172 0.1967
N12_4 N 0.50314(11) 0.51460(10) 0.09437(11)
H14_4 H 0.5226 0.5283 0.0971
C24_4 C 0.55229(13) 0.46676(14) 0.20977(12)
O16_4 O 0.55103(11) 0.44471(12) 0.23590(12)
C27_4 C 0.54004(13) 0.62203(13) 0.02735(13)
C28_4 C 0.47265(13) 0.45996(13) 0.12203(13)
H15_4 H 0.5409 0.6035 0.0454
H16_4 H 0.4546 0.4591 0.1035
C33_4 C 0.56651(13) 0.65059(14) 0.02758(13)
C34_4 C 0.47242(13) 0.43349(13) 0.15059(14)
C38_4 C 0.52464(14) 0.48772(13) 0.14982(14)
H22_4 H 0.5429 0.5061 0.1498
C45_3 C 0.47584(14) 0.56480(13) 0.01763(15)
C46_3 C 0.48237(15) 0.52416(14) 0.06480(13)
C50_4 C 0.52464(13) 0.46228(13) 0.17923(13)
O22_4 O 0.57650(9) 0.49166(9) 0.20700(8)
O23_4 O 0.20700(8) 0.42350(9) 0.00834(9)
O24_4 O 0.58906(11) 0.63213(11) 0.08707(10)
O25_4 O 0.41293(10) 0.41094(11) 0.13213(11)
O28_4 O 0.62518(12) 0.66672(12) 0.05196(12)
O29_4 O 0.44804(12) 0.37482(12) 0.16672(12)
C53_4 C 0.59714(17) 0.65010(17) 0.05790(17)
C54_4 C 0.44210(17) 0.40286(17) 0.15010(17)
Zn1_6 Zn 0.2500 0.39039(2) 1.0000
Zn2_4 Zn 0.1250 0.374360(17) 0.875640(17)
C1_4 C 0.37879(14) 0.50013(12) 0.98756(13)
O1_4 O 0.11913(9) 0.32052(11) 0.87248(12)
O2_4 O 0.22529(9) 0.36447(8) 0.95867(8)
N1_4 N 0.27181(11) 0.28274(12) 0.82203(11)
H1_4 H 0.2924 0.2950 0.8229
N3_4 N 0.29761(10) 0.25694(10) 0.76905(10)
C2_4 C 0.32214(14) 0.50315(14) 0.93486(13)
H2_4 H 0.3033 0.5043 0.9172
C3_4 C 0.29023(12) 0.44771(13) 0.96676(14)
C4_4 C 0.27039(12) 0.25635(12) 0.79557(13)
O3_4 O 0.26410(12) 0.44897(11) 0.94471(12)
C5_4 C 0.37797(13) 0.52735(13) 0.95996(13)
H4_4 H 0.3965 0.5454 0.9591
C6_4 C 0.20831(13) 0.28908(14) 0.84386(12)
H5_4 H 0.1996 0.2768 0.8228
O4_4 O 0.28069(11) 0.34061(12) 0.94937(11)
C7_4 C 0.24597(14) 0.29330(12) 0.84780(12)
C8_4 C 0.34941(14) 0.52758(13) 0.93349(13)
C9_4 C 0.25805(13) 0.31057(12) 0.88011(14)
H6_4 H 0.2835 0.3126 0.8844
C10_4 C 0.35018(14) 0.47536(14) 0.98772(13)
C11_4 C 0.18322(12) 0.30161(14) 0.86847(14)
C12_4 C 0.19711(16) 0.32221(14) 0.89924(14)
H8_4 H 0.1803 0.3341 0.9149
C13_4 C 0.23354(13) 0.32504(13) 0.90645(13)
C15_4 C 0.24794(15) 0.34425(14) 0.93894(13)
O5_4 O 0.13335(12) 0.2630(2) 0.8510(2)
C16_4 C 0.32077(13) 0.47536(13) 0.96228(13)
O6_4 O 0.29300(8) 0.42350(9) 0.99166(9)
C17_4 C 0.14163(17) 0.2978(2) 0.86229(17)
O7_4 O 0.36787(11) 0.58707(10) 0.91094(11)
O8_4 O 0.33328(12) 0.55196(12) 0.87482(12)
C18_4 C 0.34990(17) 0.55790(17) 0.90286(17)
Zn7_4 Zn 0.375640(17) 0.3750 0.625640(17)
Zn8_4 Zn 0.125640(17) 0.124360(17) 0.6250
Zn9_4 Zn 0.375640(17) 0.6250 0.874360(17)
O9_4 O 0.37248(12) 0.38087(9) 0.67948(11)
O10_4 O 0.17948(11) 0.12752(12) 0.61913(9)
O11_4 O 0.13087(9) 0.37752(12) 0.92948(11)
O12_4 O 0.45867(8) 0.27471(9) 0.63553(8)
O13_4 O 0.13553(8) 0.04133(8) 0.72529(9)
N5_4 N 0.32203(11) 0.22819(11) 0.71726(12)
N6_4 N 0.21726(12) 0.17797(11) 0.77181(11)
H9_4 H 0.3229 0.2076 0.7050
H10_4 H 0.2050 0.1771 0.7924
N9_4 N 0.26905(10) 0.20239(10) 0.74306(10)
N10_4 N 0.24306(10) 0.23095(10) 0.79761(10)
N11_4 N 0.48540(10) 0.59437(11) 0.99686(11)
H13_4 H 0.4717 0.5971 0.9774
C23_4 C 0.53324(14) 0.70977(12) 0.94771(13)
C25_4 C 0.29557(13) 0.22961(12) 0.74365(12)
C26_4 C 0.24365(12) 0.20443(13) 0.77039(12)
O15_4 O 0.55529(12) 0.73590(12) 0.94897(11)
C29_4 C 0.34386(12) 0.29169(13) 0.71092(14)
C30_4 C 0.21092(14) 0.15614(12) 0.70831(13)
H17_4 H 0.3228 0.3004 0.7232
H18_4 H 0.2232 0.1772 0.6996
O17_4 O 0.44937(11) 0.21931(11) 0.65939(12)
O18_4 O 0.15939(12) 0.05063(11) 0.78069(11)
C31_4 C 0.34780(12) 0.25403(14) 0.70670(12)
C32_4 C 0.20670(12) 0.15220(12) 0.74597(14)
C35_4 C 0.38011(14) 0.24195(13) 0.68943(12)
C36_4 C 0.18943(12) 0.11989(14) 0.75805(13)
H19_4 H 0.3844 0.2165 0.6874
H20_4 H 0.1874 0.1156 0.7835
C37_4 C 0.51228(13) 0.64982(14) 0.97536(14)
H21_4 H 0.4939 0.6498 0.9571
C39_4 C 0.36847(14) 0.31678(12) 0.69839(14)
C40_4 C 0.19839(14) 0.13153(14) 0.68322(12)
C41_4 C 0.39924(14) 0.30289(16) 0.67779(14)
C42_4 C 0.17779(14) 0.10076(14) 0.69711(16)
H23_4 H 0.4149 0.3197 0.6659
H24_4 H 0.1659 0.0851 0.6803
C43_4 C 0.40645(13) 0.26646(13) 0.67496(13)
C44_4 C 0.17496(13) 0.09355(13) 0.73354(13)
C47_4 C 0.43894(13) 0.25206(15) 0.65575(14)
C48_4 C 0.15575(14) 0.06106(13) 0.74794(15)
O19_4 O 0.3510(2) 0.36665(12) 0.7370(2)
O20_4 O 0.2370(2) 0.1490(2) 0.63335(12)
C49_4 C 0.53772(13) 0.67923(13) 0.97536(13)
O21_4 O 0.50834(9) 0.70700(8) 0.92350(9)
C51_4 C 0.36229(17) 0.35837(17) 0.7022(2)
C52_4 C 0.2022(2) 0.13771(17) 0.64163(17)
O26_4 O 0.16293(10) 0.38213(11) 0.83906(11)
O27_4 O 0.08707(10) 0.41094(11) 0.86787(11)
O11_5 O 0.07052(11) 0.63087(9) 0.12248(12)
O26_5 O 0.16094(11) 0.66293(10) 0.11787(11)
O27_5 O 0.13213(11) 0.58707(10) 0.08906(11)
O14_5 O 0.95867(8) 0.77471(9) 0.13553(8)
O23_5 O 0.99166(9) 0.70700(8) 0.07650(9)
O11_6 O 0.57052(11) 0.86913(9) 0.87752(12)
O14_6 O 0.45867(8) 0.72529(9) 0.86447(8)
O23_6 O 0.49166(9) 0.79300(8) 0.92350(9)
O26_6 O 0.66094(11) 0.83707(10) 0.88213(11)
O27_6 O 0.63213(11) 0.91293(10) 0.91094(11)
O11_7 O 0.42948(11) 0.36913(9) 0.62248(12)
O14_7 O 0.54133(8) 0.22529(9) 0.63553(8)
O23_7 O 0.50834(9) 0.29300(8) 0.57650(9)
O26_7 O 0.33906(11) 0.33707(10) 0.61787(11)
O27_7 O 0.36787(11) 0.41293(10) 0.58906(11)
O14_8 O 0.04133(8) 0.27471(9) 0.36447(8)
O23_8 O 0.00834(9) 0.20700(8) 0.42350(9)
O11_8 O 0.92948(11) 0.13087(9) 0.37752(12)
O26_8 O 0.83906(11) 0.16293(10) 0.38213(11)
O27_8 O 0.86787(11) 0.08707(10) 0.41094(11)
O11_9 O 0.12248(12) 0.07052(11) 0.63087(9)
O26_9 O 0.11787(11) 0.16094(11) 0.66293(10)
O27_9 O 0.08906(11) 0.13213(11) 0.58707(10)
O14_9 O 0.13553(8) 0.95867(8) 0.77471(9)
O23_9 O 0.07650(9) 0.99166(9) 0.70700(8)
O11_10 O 0.87752(12) 0.57052(11) 0.86913(9)
O14_10 O 0.86447(8) 0.45867(8) 0.72529(9)
O23_10 O 0.92350(9) 0.49166(9) 0.79300(8)
O26_10 O 0.88213(11) 0.66094(11) 0.83707(10)
O27_10 O 0.91094(11) 0.63213(11) 0.91293(10)
O11_11 O 0.62248(12) 0.42948(11) 0.36913(9)
O14_11 O 0.63553(8) 0.54133(8) 0.22529(9)
O23_11 O 0.57650(9) 0.50834(9) 0.29300(8)
O26_11 O 0.61787(11) 0.33906(11) 0.33707(10)
O27_11 O 0.58906(11) 0.36787(11) 0.41293(10)
O14_12 O 0.36447(8) 0.04133(8) 0.27471(9)
O23_12 O 0.42350(9) 0.00834(9) 0.20700(8)
O11_12 O 0.37752(12) 0.92948(11) 0.13087(9)
O26_12 O 0.38213(11) 0.83906(11) 0.16293(10)
O27_12 O 0.41094(11) 0.86787(11) 0.08707(10)
Zn3_4 Zn 0.0000 0.2500 0.85961(2)
N5_5 N 0.02181(11) 0.07203(11) 0.96726(12)
H9_5 H 0.0424 0.0729 0.9550
N9_5 N 0.04761(10) 0.01905(10) 0.99306(10)
C25_5 C 0.02039(12) 0.04557(13) 0.99365(12)
O17_5 O 0.03069(11) 0.19937(11) 0.90939(12)
C35_5 C 0.00805(13) 0.13011(14) 0.93943(12)
H19_5 H 0.0335 0.1344 0.9374
Zn4_3 Zn 0.2500 0.85961(2) 0.0000
N6_5 N 0.07203(11) 0.96726(12) 0.02181(11)
H10_5 H 0.0729 0.9550 0.0424
N10_5 N 0.01905(10) 0.99306(10) 0.04761(10)
C26_5 C 0.04557(13) 0.99365(12) 0.02039(12)
O18_5 O 0.19937(11) 0.90939(12) 0.03069(11)
C36_5 C 0.13011(14) 0.93943(12) 0.00805(13)
H20_5 H 0.1344 0.9374 0.0335
Zn4_4 Zn 0.2500 0.85961(2) 1.0000
O10_5 O 0.12248(12) 0.92948(11) 0.86913(9)
O13_5 O 0.20867(8) 0.88553(8) 0.97529(9)
C30_5 C 0.09386(12) 0.96092(14) 0.95831(13)
H18_5 H 0.0728 0.9732 0.9496
C32_5 C 0.09780(12) 0.95670(12) 0.99597(14)
C40_5 C 0.11847(14) 0.94839(14) 0.93322(12)
C42_5 C 0.14924(14) 0.92779(14) 0.94711(16)
H24_5 H 0.1649 0.9159 0.9303
C44_5 C 0.15645(13) 0.92496(13) 0.98354(13)
C48_5 C 0.18894(13) 0.90575(14) 0.99794(15)
O20_5 O 0.1010(2) 0.9870(2) 0.88335(12)
C52_5 C 0.11229(17) 0.9522(2) 0.89163(17)
Zn1_7 Zn 0.85961(2) 0.0000 0.2500
C1_5 C 0.74987(12) 0.12879(14) 0.23756(13)
N1_5 N 0.96726(12) 0.02181(11) 0.07203(11)
H1_5 H 0.9550 0.0424 0.0729
N2_4 N 0.74595(12) 0.20355(10) 0.30452(11)
N3_5 N 0.99306(10) 0.04761(10) 0.01905(10)
C2_5 C 0.74685(14) 0.07214(14) 0.18486(13)
H2_5 H 0.7457 0.0533 0.1672
N4_5 N 0.75314(11) 0.15563(11) 0.26460(10)
H3_5 H 0.7726 0.1529 0.2783
C3_5 C 0.80229(13) 0.04023(12) 0.21676(14)
C4_5 C 0.99365(12) 0.02039(12) 0.04557(13)
O3_5 O 0.80103(11) 0.01410(12) 0.19471(12)
C5_5 C 0.72265(13) 0.12797(13) 0.20996(13)
H4_5 H 0.7046 0.1465 0.2091
O4_5 O 0.90939(12) 0.03069(11) 0.19937(11)
C8_5 C 0.72242(13) 0.09941(14) 0.18349(13)
C9_5 C 0.93943(12) 0.00805(13) 0.13011(14)
H6_5 H 0.9374 0.0335 0.1344
C10_5 C 0.77464(14) 0.10018(14) 0.23772(13)
H7_5 H 0.7929 0.1002 0.2561
C14_4 C 0.73237(15) 0.18520(13) 0.27416(14)
C16_5 C 0.77464(13) 0.07077(13) 0.21228(13)
O6_5 O 0.82650(9) 0.04300(8) 0.24166(9)
O8_5 O 0.69804(12) 0.08328(12) 0.12482(12)
C18_5 C 0.69210(17) 0.09990(17) 0.15286(17)
Zn5_4 Zn 0.5000 0.2500 0.14039(2)
Zn6_5 Zn 0.7500 0.35961(2) 0.5000
C19_5 C 0.62879(14) 0.26244(13) 0.25013(12)
C20_5 C 0.76244(13) 0.24987(12) 0.37121(14)
O14_13 O 0.88553(8) 0.02471(9) 0.29133(8)
N7_4 N 0.70355(10) 0.19548(11) 0.25405(12)
N8_4 N 0.69548(11) 0.24595(12) 0.29645(10)
C21_5 C 0.57214(14) 0.31514(13) 0.25315(14)
C22_5 C 0.81514(13) 0.24685(14) 0.42786(14)
H11_5 H 0.5533 0.3328 0.2543
H12_5 H 0.8328 0.2457 0.4467
N11_5 N 0.65563(11) 0.23540(10) 0.24686(11)
N12_5 N 0.73540(10) 0.25314(11) 0.34437(11)
H13_5 H 0.6529 0.2217 0.2274
H14_5 H 0.7217 0.2726 0.3471
C23_5 C 0.54023(12) 0.28324(14) 0.19771(13)
C24_5 C 0.78324(14) 0.30229(13) 0.45977(12)
O15_5 O 0.51410(12) 0.30529(12) 0.19897(11)
O16_5 O 0.80529(12) 0.30103(11) 0.48590(12)
C27_5 C 0.62797(13) 0.29004(13) 0.27735(13)
C28_5 C 0.79004(13) 0.22265(13) 0.37203(13)
H15_5 H 0.6465 0.2909 0.2954
H16_5 H 0.7909 0.2046 0.3535
C33_5 C 0.59941(14) 0.31651(13) 0.27758(13)
C34_5 C 0.81651(13) 0.22242(13) 0.40059(14)
C37_5 C 0.60018(14) 0.26228(13) 0.22536(14)
C38_5 C 0.76228(13) 0.27464(14) 0.39982(14)
H21_5 H 0.6002 0.2439 0.2071
H22_5 H 0.7439 0.2929 0.3998
C45_4 C 0.68520(13) 0.22584(14) 0.26763(15)
C46_4 C 0.72584(14) 0.23237(15) 0.31480(13)
C49_5 C 0.57077(13) 0.28772(13) 0.22536(13)
C50_5 C 0.78772(13) 0.27464(13) 0.42923(13)
O21_5 O 0.54300(8) 0.25834(9) 0.17350(9)
O22_5 O 0.75834(9) 0.32650(9) 0.45700(8)
O28_5 O 0.58328(12) 0.37518(12) 0.30196(12)
O29_5 O 0.87518(12) 0.19804(12) 0.41672(12)
C53_5 C 0.59990(17) 0.34714(17) 0.30790(17)
C54_5 C 0.84714(17) 0.19210(17) 0.40010(17)
Zn3_5 Zn 1.0000 0.2500 0.85961(2)
O9_5 O 0.86913(9) 0.12248(12) 0.92948(11)
O12_5 O 0.97529(9) 0.20867(8) 0.88553(8)
C29_5 C 0.95831(13) 0.09386(12) 0.96092(14)
H17_5 H 0.9496 0.0728 0.9732
C31_5 C 0.99597(14) 0.09780(12) 0.95670(12)
C39_5 C 0.93322(12) 0.11847(14) 0.94839(14)
C41_5 C 0.94711(16) 0.14924(14) 0.92779(14)
H23_5 H 0.9303 0.1649 0.9159
C43_5 C 0.98354(13) 0.15645(13) 0.92496(13)
C47_5 C 0.99794(15) 0.18894(13) 0.90575(14)
O19_5 O 0.88335(12) 0.1010(2) 0.9870(2)
C51_5 C 0.89163(17) 0.11229(17) 0.9522(2)
Zn1_8 Zn 0.85961(2) 1.0000 0.2500
O1_5 O 0.92948(11) 0.86913(9) 0.12248(12)
O2_5 O 0.88553(8) 0.97529(9) 0.20867(8)
C6_5 C 0.96092(14) 0.95831(13) 0.09386(12)
H5_5 H 0.9732 0.9496 0.0728
C7_5 C 0.95670(12) 0.99597(14) 0.09780(12)
C11_5 C 0.94839(14) 0.93322(12) 0.11847(14)
C12_5 C 0.92779(14) 0.94711(16) 0.14924(14)
H8_5 H 0.9159 0.9303 0.1649
C13_5 C 0.92496(13) 0.98354(13) 0.15645(13)
C15_5 C 0.90575(14) 0.99794(15) 0.18894(13)
O5_5 O 0.9870(2) 0.88335(12) 0.1010(2)
C17_5 C 0.9522(2) 0.89163(17) 0.11229(17)
O11_13 O 0.87248(12) 0.88087(9) 0.17948(11)
O23_13 O 0.82650(9) 0.95700(8) 0.25834(9)
O27_13 O 0.83906(11) 0.83707(10) 0.11787(11)
Zn5_5 Zn -0.0000 0.7500 0.64039(2)
Zn1_9 Zn 0.64039(2) -0.0000 0.7500
O1_6 O 0.57052(11) 0.13087(9) 0.62248(12)
O2_6 O 0.61447(8) 0.02471(9) 0.70867(8)
C6_6 C 0.53908(14) 0.04169(13) 0.59386(12)
H5_6 H 0.5268 0.0504 0.5728
C7_6 C 0.54330(12) 0.00403(14) 0.59780(12)
C11_6 C 0.55161(14) 0.06678(12) 0.61847(14)
C12_6 C 0.57221(14) 0.05289(16) 0.64924(14)
H8_6 H 0.5841 0.0697 0.6649
C13_6 C 0.57504(13) 0.01646(13) 0.65645(13)
C15_6 C 0.59425(14) 0.00206(15) 0.68894(13)
O5_6 O 0.5130(2) 0.11665(12) 0.6010(2)
C17_6 C 0.5478(2) 0.10837(17) 0.61229(17)
Zn4_5 Zn 0.2500 0.14039(2) 0.5000
O10_6 O 0.37752(12) 0.07052(11) 0.36913(9)
O11_14 O 0.62752(12) 0.11913(9) 0.67948(11)
O13_6 O 0.29133(8) 0.11447(8) 0.47529(9)
N6_6 N 0.42797(11) 0.03274(12) 0.52181(11)
H10_6 H 0.4271 0.0450 0.5424
N10_6 N 0.48095(10) 0.00694(10) 0.54761(10)
C26_6 C 0.45443(13) 0.00635(12) 0.52039(12)
C30_6 C 0.40614(12) 0.03908(14) 0.45831(13)
H18_6 H 0.4272 0.0268 0.4496
O18_6 O 0.30063(11) 0.09061(12) 0.53069(11)
C32_6 C 0.40220(12) 0.04330(12) 0.49597(14)
C36_6 C 0.36989(14) 0.06057(12) 0.50805(13)
H20_6 H 0.3656 0.0626 0.5335
C40_6 C 0.38153(14) 0.05161(14) 0.43322(12)
C42_6 C 0.35076(14) 0.07221(14) 0.44711(16)
H24_6 H 0.3351 0.0841 0.4303
C44_6 C 0.34355(13) 0.07504(13) 0.48354(13)
C48_6 C 0.31106(13) 0.09425(14) 0.49794(15)
O20_6 O 0.3990(2) 0.0130(2) 0.38335(12)
O23_14 O 0.67350(9) 0.04300(8) 0.75834(9)
C52_6 C 0.38771(17) 0.0478(2) 0.39163(17)
O27_14 O 0.66094(11) 0.16293(10) 0.61787(11)
Zn6_6 Zn 0.7500 0.64039(2) 0.0000
Zn1_10 Zn 0.64039(2) 1.0000 0.7500
C1_6 C 0.75013(12) 0.87121(14) 0.73756(13)
N1_6 N 0.53274(12) 0.97819(11) 0.57203(11)
H1_6 H 0.5450 0.9576 0.5729
N2_5 N 0.75405(12) 0.79645(10) 0.80452(11)
N3_6 N 0.50694(10) 0.95239(10) 0.51905(10)
C2_6 C 0.75315(14) 0.92786(14) 0.68486(13)
H2_6 H 0.7543 0.9467 0.6672
N4_6 N 0.74686(11) 0.84437(11) 0.76460(10)
H3_6 H 0.7274 0.8471 0.7783
C3_6 C 0.69771(13) 0.95977(12) 0.71676(14)
C4_6 C 0.50635(12) 0.97961(12) 0.54557(13)
O3_6 O 0.69897(11) 0.98590(12) 0.69471(12)
C5_6 C 0.77735(13) 0.87203(13) 0.70996(13)
H4_6 H 0.7954 0.8535 0.7091
O4_6 O 0.59061(12) 0.96931(11) 0.69937(11)
C8_6 C 0.77758(13) 0.90059(14) 0.68349(13)
C9_6 C 0.56057(12) 0.99195(13) 0.63011(14)
H6_6 H 0.5626 0.9665 0.6344
C10_6 C 0.72536(14) 0.89982(14) 0.73772(13)
H7_6 H 0.7071 0.8998 0.7561
C14_5 C 0.76763(15) 0.81480(13) 0.77416(14)
C16_6 C 0.72536(13) 0.92923(13) 0.71228(13)
O6_6 O 0.67350(9) 0.95700(8) 0.74166(9)
O8_6 O 0.80196(12) 0.91672(12) 0.62482(12)
C18_6 C 0.80790(17) 0.90010(17) 0.65286(17)
Zn3_6 Zn 0.5000 0.7500 0.35961(2)
Zn5_6 Zn 1.0000 0.7500 0.64039(2)
Zn6_7 Zn 0.7500 0.64039(2) 1.0000
C19_6 C 0.87121(14) 0.73756(13) 0.75013(12)
C20_6 C 0.73756(13) 0.75013(12) 0.87121(14)
O9_6 O 0.63087(9) 0.87752(12) 0.42948(11)
O12_6 O 0.52471(9) 0.79133(8) 0.38553(8)
O14_14 O 0.61447(8) 0.97529(9) 0.79133(8)
N5_6 N 0.47819(11) 0.92797(11) 0.46726(12)
H9_6 H 0.4576 0.9271 0.4550
N7_5 N 0.79645(10) 0.80452(11) 0.75405(12)
N8_5 N 0.80452(11) 0.75405(12) 0.79645(10)
N9_6 N 0.45239(10) 0.98095(10) 0.49306(10)
C21_6 C 0.92786(14) 0.68486(13) 0.75315(14)
C22_6 C 0.68486(13) 0.75315(14) 0.92786(14)
H11_6 H 0.9467 0.6672 0.7543
H12_6 H 0.6672 0.7543 0.9467
N11_6 N 0.84437(11) 0.76460(10) 0.74686(11)
N12_6 N 0.76460(10) 0.74686(11) 0.84437(11)
H13_6 H 0.8471 0.7783 0.7274
H14_6 H 0.7783 0.7274 0.8471
C23_6 C 0.95977(12) 0.71676(14) 0.69771(13)
C24_6 C 0.71676(14) 0.69771(13) 0.95977(12)
C25_6 C 0.47961(12) 0.95443(13) 0.49365(12)
O15_6 O 0.98590(12) 0.69471(12) 0.69897(11)
O16_6 O 0.69471(12) 0.69897(11) 0.98590(12)
C27_6 C 0.87203(13) 0.70996(13) 0.77735(13)
C28_6 C 0.70996(13) 0.77735(13) 0.87203(13)
H15_6 H 0.8535 0.7091 0.7954
H16_6 H 0.7091 0.7954 0.8535
C29_6 C 0.54169(13) 0.90614(12) 0.46092(14)
H17_6 H 0.5504 0.9272 0.4732
O17_6 O 0.46931(11) 0.80063(11) 0.40939(12)
C31_6 C 0.50403(14) 0.90220(12) 0.45670(12)
C33_6 C 0.90059(14) 0.68349(13) 0.77758(13)
C34_6 C 0.68349(13) 0.77758(13) 0.90059(14)
C35_6 C 0.49195(13) 0.86989(14) 0.43943(12)
H19_6 H 0.4665 0.8656 0.4374
C37_6 C 0.89982(14) 0.73772(13) 0.72536(14)
C38_6 C 0.73772(13) 0.72536(14) 0.89982(14)
H21_6 H 0.8998 0.7561 0.7071
H22_6 H 0.7561 0.7071 0.8998
C39_6 C 0.56678(12) 0.88153(14) 0.44839(14)
C41_6 C 0.55289(16) 0.85076(14) 0.42779(14)
H23_6 H 0.5697 0.8351 0.4159
C43_6 C 0.51646(13) 0.84355(13) 0.42496(13)
C45_5 C 0.81480(13) 0.77416(14) 0.76763(15)
C46_5 C 0.77416(14) 0.76763(15) 0.81480(13)
C47_6 C 0.50206(15) 0.81106(13) 0.40575(14)
O19_6 O 0.61665(12) 0.8990(2) 0.4870(2)
C49_6 C 0.92923(13) 0.71228(13) 0.72536(13)
C50_6 C 0.71228(13) 0.72536(13) 0.92923(13)
O21_6 O 0.95700(8) 0.74166(9) 0.67350(9)
O22_6 O 0.74166(9) 0.67350(9) 0.95700(8)
C51_6 C 0.60837(17) 0.88771(17) 0.4522(2)
O28_6 O 0.91672(12) 0.62482(12) 0.80196(12)
O29_6 O 0.62482(12) 0.80196(12) 0.91672(12)
C53_6 C 0.90010(17) 0.65286(17) 0.80790(17)
C54_6 C 0.65286(17) 0.80790(17) 0.90010(17)
O9_7 O 0.36913(9) 0.37752(12) 0.07052(11)
O10_7 O 0.62248(12) 0.57052(11) 0.13087(9)
O12_7 O 0.47529(9) 0.29133(8) 0.11447(8)
O13_7 O 0.70867(8) 0.61447(8) 0.02471(9)
N5_7 N 0.52181(11) 0.42797(11) 0.03274(12)
H9_7 H 0.5424 0.4271 0.0450
N9_7 N 0.54761(10) 0.48095(10) 0.00694(10)
C25_7 C 0.52039(12) 0.45443(13) 0.00635(12)
C29_7 C 0.45831(13) 0.40614(12) 0.03908(14)
C30_7 C 0.59386(12) 0.53908(14) 0.04169(13)
H17_7 H 0.4496 0.4272 0.0268
H18_7 H 0.5728 0.5268 0.0504
O17_7 O 0.53069(11) 0.30063(11) 0.09061(12)
C31_7 C 0.49597(14) 0.40220(12) 0.04330(12)
C32_7 C 0.59780(12) 0.54330(12) 0.00403(14)
C35_7 C 0.50805(13) 0.36989(14) 0.06057(12)
H19_7 H 0.5335 0.3656 0.0626
C39_7 C 0.43322(12) 0.38153(14) 0.05161(14)
C40_7 C 0.61847(14) 0.55161(14) 0.06678(12)
C41_7 C 0.44711(16) 0.35076(14) 0.07221(14)
C42_7 C 0.64924(14) 0.57221(14) 0.05289(16)
H23_7 H 0.4303 0.3351 0.0841
H24_7 H 0.6649 0.5841 0.0697
C43_7 C 0.48354(13) 0.34355(13) 0.07504(13)
C44_7 C 0.65645(13) 0.57504(13) 0.01646(13)
C47_7 C 0.49794(15) 0.31106(13) 0.09425(14)
C48_7 C 0.68894(13) 0.59425(14) 0.00206(15)
O19_7 O 0.38335(12) 0.3990(2) 0.0130(2)
O20_7 O 0.6010(2) 0.5130(2) 0.11665(12)
C51_7 C 0.39163(17) 0.38771(17) 0.0478(2)
C52_7 C 0.61229(17) 0.5478(2) 0.10837(17)
Zn1_11 Zn 0.35961(2) 0.5000 0.7500
C1_7 C 0.24987(12) 0.37121(14) 0.76244(13)
O1_7 O 0.42948(11) 0.63087(9) 0.87752(12)
O2_7 O 0.38553(8) 0.52471(9) 0.79133(8)
N1_7 N 0.46726(12) 0.47819(11) 0.92797(11)
H1_7 H 0.4550 0.4576 0.9271
N2_6 N 0.24595(12) 0.29645(10) 0.69548(11)
N3_7 N 0.49306(10) 0.45239(10) 0.98095(10)
C2_7 C 0.24685(14) 0.42786(14) 0.81514(13)
H2_7 H 0.2457 0.4467 0.8328
N4_7 N 0.25314(11) 0.34437(11) 0.73540(10)
H3_7 H 0.2726 0.3471 0.7217
C3_7 C 0.30229(13) 0.45977(12) 0.78324(14)
C4_7 C 0.49365(12) 0.47961(12) 0.95443(13)
O3_7 O 0.30103(11) 0.48590(12) 0.80529(12)
C5_7 C 0.22265(13) 0.37203(13) 0.79004(13)
H4_7 H 0.2046 0.3535 0.7909
C6_7 C 0.46092(14) 0.54169(13) 0.90614(12)
H5_7 H 0.4732 0.5504 0.9272
O4_7 O 0.40939(12) 0.46931(11) 0.80063(11)
C7_7 C 0.45670(12) 0.50403(14) 0.90220(12)
C8_7 C 0.22242(13) 0.40059(14) 0.81651(13)
C9_7 C 0.43943(12) 0.49195(13) 0.86989(14)
H6_7 H 0.4374 0.4665 0.8656
C10_7 C 0.27464(14) 0.39982(14) 0.76228(13)
H7_7 H 0.2929 0.3998 0.7439
C11_7 C 0.44839(14) 0.56678(12) 0.88153(14)
C12_7 C 0.42779(14) 0.55289(16) 0.85076(14)
H8_7 H 0.4159 0.5697 0.8351
C13_7 C 0.42496(13) 0.51646(13) 0.84355(13)
C14_6 C 0.23237(15) 0.31480(13) 0.72584(14)
C15_7 C 0.40575(14) 0.50206(15) 0.81106(13)
O5_7 O 0.4870(2) 0.61665(12) 0.8990(2)
C16_7 C 0.27464(13) 0.42923(13) 0.78772(13)
O6_7 O 0.32650(9) 0.45700(8) 0.75834(9)
C17_7 C 0.4522(2) 0.60837(17) 0.88771(17)
O8_7 O 0.19804(12) 0.41672(12) 0.87518(12)
C18_7 C 0.19210(17) 0.40010(17) 0.84714(17)
C19_7 C 0.12879(14) 0.23756(13) 0.74987(12)
C20_7 C 0.26244(13) 0.25013(12) 0.62879(14)
O11_15 O 0.37248(12) 0.61913(9) 0.82052(11)
O14_15 O 0.38553(8) 0.47529(9) 0.70867(8)
N6_7 N 0.57203(11) 0.53274(12) 0.97819(11)
H10_7 H 0.5729 0.5450 0.9576
N7_6 N 0.20355(10) 0.30452(11) 0.74595(12)
N8_6 N 0.19548(11) 0.25405(12) 0.70355(10)
N10_7 N 0.51905(10) 0.50694(10) 0.95239(10)
C21_7 C 0.07214(14) 0.18486(13) 0.74685(14)
C22_7 C 0.31514(13) 0.25315(14) 0.57214(14)
H11_7 H 0.0533 0.1672 0.7457
H12_7 H 0.3328 0.2543 0.5533
N11_7 N 0.15563(11) 0.26460(10) 0.75314(11)
N12_7 N 0.23540(10) 0.24686(11) 0.65563(11)
H13_7 H 0.1529 0.2783 0.7726
H14_7 H 0.2217 0.2274 0.6529
C23_7 C 0.04023(12) 0.21676(14) 0.80229(13)
C24_7 C 0.28324(14) 0.19771(13) 0.54023(12)
C26_7 C 0.54557(13) 0.50635(12) 0.97961(12)
O15_7 O 0.01410(12) 0.19471(12) 0.80103(11)
O16_7 O 0.30529(12) 0.19897(11) 0.51410(12)
C27_7 C 0.12797(13) 0.20996(13) 0.72265(13)
C28_7 C 0.29004(13) 0.27735(13) 0.62797(13)
H15_7 H 0.1465 0.2091 0.7046
H16_7 H 0.2909 0.2954 0.6465
O18_7 O 0.69937(11) 0.59061(12) 0.96931(11)
C33_7 C 0.09941(14) 0.18349(13) 0.72242(13)
C34_7 C 0.31651(13) 0.27758(13) 0.59941(14)
C36_7 C 0.63011(14) 0.56057(12) 0.99195(13)
H20_7 H 0.6344 0.5626 0.9665
C37_7 C 0.10018(14) 0.23772(13) 0.77464(14)
C38_7 C 0.26228(13) 0.22536(14) 0.60018(14)
H21_7 H 0.1002 0.2561 0.7929
H22_7 H 0.2439 0.2071 0.6002
C45_6 C 0.18520(13) 0.27416(14) 0.73237(15)
C46_6 C 0.22584(14) 0.26763(15) 0.68520(13)
C49_7 C 0.07077(13) 0.21228(13) 0.77464(13)
C50_7 C 0.28772(13) 0.22536(13) 0.57077(13)
O21_7 O 0.04300(8) 0.24166(9) 0.82650(9)
O22_7 O 0.25834(9) 0.17350(9) 0.54300(8)
O23_15 O 0.32650(9) 0.54300(8) 0.74166(9)
O27_15 O 0.33906(11) 0.66293(10) 0.88213(11)
O28_7 O 0.08328(12) 0.12482(12) 0.69804(12)
O29_7 O 0.37518(12) 0.30196(12) 0.58328(12)
C53_7 C 0.09990(17) 0.15286(17) 0.69210(17)
C54_7 C 0.34714(17) 0.30790(17) 0.59990(17)
Zn1_12 Zn 0.14039(2) 0.5000 0.2500
C1_8 C 0.25013(12) 0.62879(14) 0.26244(13)
O1_8 O 0.07052(11) 0.36913(9) 0.37752(12)
O2_8 O 0.11447(8) 0.47529(9) 0.29133(8)
N1_8 N 0.03274(12) 0.52181(11) 0.42797(11)
H1_8 H 0.0450 0.5424 0.4271
N2_7 N 0.25405(12) 0.70355(10) 0.19548(11)
N3_8 N 0.00694(10) 0.54761(10) 0.48095(10)
C2_8 C 0.25315(14) 0.57214(14) 0.31514(13)
H2_8 H 0.2543 0.5533 0.3328
N4_8 N 0.24686(11) 0.65563(11) 0.23540(10)
H3_8 H 0.2274 0.6529 0.2217
C3_8 C 0.19771(13) 0.54023(12) 0.28324(14)
C4_8 C 0.00635(12) 0.52039(12) 0.45443(13)
O3_8 O 0.19897(11) 0.51410(12) 0.30529(12)
C5_8 C 0.27735(13) 0.62797(13) 0.29004(13)
H4_8 H 0.2954 0.6465 0.2909
C6_8 C 0.03908(14) 0.45831(13) 0.40614(12)
H5_8 H 0.0268 0.4496 0.4272
O4_8 O 0.09061(12) 0.53069(11) 0.30063(11)
C7_8 C 0.04330(12) 0.49597(14) 0.40220(12)
C8_8 C 0.27758(13) 0.59941(14) 0.31651(13)
C9_8 C 0.06057(12) 0.50805(13) 0.36989(14)
H6_8 H 0.0626 0.5335 0.3656
C10_8 C 0.22536(14) 0.60018(14) 0.26228(13)
H7_8 H 0.2071 0.6002 0.2439
C11_8 C 0.05161(14) 0.43322(12) 0.38153(14)
C12_8 C 0.07221(14) 0.44711(16) 0.35076(14)
H8_8 H 0.0841 0.4303 0.3351
C13_8 C 0.07504(13) 0.48354(13) 0.34355(13)
C14_7 C 0.26763(15) 0.68520(13) 0.22584(14)
C15_8 C 0.09425(14) 0.49794(15) 0.31106(13)
O5_8 O 0.0130(2) 0.38335(12) 0.3990(2)
C16_8 C 0.22536(13) 0.57077(13) 0.28772(13)
O6_8 O 0.17350(9) 0.54300(8) 0.25834(9)
C17_8 C 0.0478(2) 0.39163(17) 0.38771(17)
O8_8 O 0.30196(12) 0.58328(12) 0.37518(12)
C18_8 C 0.30790(17) 0.59990(17) 0.34714(17)
C19_8 C 0.37121(14) 0.76244(13) 0.24987(12)
C20_8 C 0.23756(13) 0.74987(12) 0.12879(14)
O9_8 O 0.13087(9) 0.62248(12) 0.57052(11)
O11_16 O 0.12752(12) 0.38087(9) 0.32052(11)
O12_8 O 0.02471(9) 0.70867(8) 0.61447(8)
O14_16 O 0.11447(8) 0.52471(9) 0.20867(8)
N7_7 N 0.29645(10) 0.69548(11) 0.24595(12)
N8_7 N 0.30452(11) 0.74595(12) 0.20355(10)
C21_8 C 0.42786(14) 0.81514(13) 0.24685(14)
C22_8 C 0.18486(13) 0.74685(14) 0.07214(14)
H11_8 H 0.4467 0.8328 0.2457
H12_8 H 0.1672 0.7457 0.0533
N11_8 N 0.34437(11) 0.73540(10) 0.25314(11)
N12_8 N 0.26460(10) 0.75314(11) 0.15563(11)
H13_8 H 0.3471 0.7217 0.2726
H14_8 H 0.2783 0.7726 0.1529
C23_8 C 0.45977(12) 0.78324(14) 0.30229(13)
C24_8 C 0.21676(14) 0.80229(13) 0.04023(12)
O15_8 O 0.48590(12) 0.80529(12) 0.30103(11)
O16_8 O 0.19471(12) 0.80103(11) 0.01410(12)
C27_8 C 0.37203(13) 0.79004(13) 0.22265(13)
C28_8 C 0.20996(13) 0.72265(13) 0.12797(13)
H15_8 H 0.3535 0.7909 0.2046
H16_8 H 0.2091 0.7046 0.1465
C29_8 C 0.04169(13) 0.59386(12) 0.53908(14)
H17_8 H 0.0504 0.5728 0.5268
C31_8 C 0.00403(14) 0.59780(12) 0.54330(12)
C33_8 C 0.40059(14) 0.81651(13) 0.22242(13)
C34_8 C 0.18349(13) 0.72242(13) 0.09941(14)
C37_8 C 0.39982(14) 0.76228(13) 0.27464(14)
C38_8 C 0.23772(13) 0.77464(14) 0.10018(14)
H21_8 H 0.3998 0.7439 0.2929
H22_8 H 0.2561 0.7929 0.1002
C39_8 C 0.06678(12) 0.61847(14) 0.55161(14)
C41_8 C 0.05289(16) 0.64924(14) 0.57221(14)
H23_8 H 0.0697 0.6649 0.5841
C43_8 C 0.01646(13) 0.65645(13) 0.57504(13)
C45_7 C 0.31480(13) 0.72584(14) 0.23237(15)
C46_7 C 0.27416(14) 0.73237(15) 0.18520(13)
C47_8 C 0.00206(15) 0.68894(13) 0.59425(14)
O19_8 O 0.11665(12) 0.6010(2) 0.5130(2)
C49_8 C 0.42923(13) 0.78772(13) 0.27464(13)
C50_8 C 0.21228(13) 0.77464(13) 0.07077(13)
O21_8 O 0.45700(8) 0.75834(9) 0.32650(9)
O22_8 O 0.24166(9) 0.82650(9) 0.04300(8)
O23_16 O 0.17350(9) 0.45700(8) 0.24166(9)
C51_8 C 0.10837(17) 0.61229(17) 0.5478(2)
O27_16 O 0.16094(11) 0.33707(10) 0.38213(11)
O28_8 O 0.41672(12) 0.87518(12) 0.19804(12)
O29_8 O 0.12482(12) 0.69804(12) 0.08328(12)
C53_8 C 0.40010(17) 0.84714(17) 0.19210(17)
C54_8 C 0.15286(17) 0.69210(17) 0.09990(17)
O10_8 O 0.87752(12) 0.42948(11) 0.63087(9)
O13_8 O 0.79133(8) 0.38553(8) 0.52471(9)
N5_8 N 0.97819(11) 0.57203(11) 0.53274(12)
N6_8 N 0.92797(11) 0.46726(12) 0.47819(11)
H9_8 H 0.9576 0.5729 0.5450
H10_8 H 0.9271 0.4550 0.4576
N9_8 N 0.95239(10) 0.51905(10) 0.50694(10)
N10_8 N 0.98095(10) 0.49306(10) 0.45239(10)
C25_8 C 0.97961(12) 0.54557(13) 0.50635(12)
C26_8 C 0.95443(13) 0.49365(12) 0.47961(12)
C30_8 C 0.90614(12) 0.46092(14) 0.54169(13)
H18_8 H 0.9272 0.4732 0.5504
O17_8 O 0.96931(11) 0.69937(11) 0.59061(12)
O18_8 O 0.80063(11) 0.40939(12) 0.46931(11)
C32_8 C 0.90220(12) 0.45670(12) 0.50403(14)
C35_8 C 0.99195(13) 0.63011(14) 0.56057(12)
C36_8 C 0.86989(14) 0.43943(12) 0.49195(13)
H19_8 H 0.9665 0.6344 0.5626
H20_8 H 0.8656 0.4374 0.4665
C40_8 C 0.88153(14) 0.44839(14) 0.56678(12)
C42_8 C 0.85076(14) 0.42779(14) 0.55289(16)
H24_8 H 0.8351 0.4159 0.5697
C44_8 C 0.84355(13) 0.42496(13) 0.51646(13)
C48_8 C 0.81106(13) 0.40575(14) 0.50206(15)
O20_8 O 0.8990(2) 0.4870(2) 0.61665(12)
C52_8 C 0.88771(17) 0.4522(2) 0.60837(17)
O11_17 O 0.38087(9) 0.32052(11) 0.12752(12)
O14_17 O 0.52471(9) 0.20867(8) 0.11447(8)
O23_17 O 0.45700(8) 0.24166(9) 0.17350(9)
O27_17 O 0.33707(10) 0.38213(11) 0.16094(11)
O11_18 O 0.61913(9) 0.82052(11) 0.37248(12)
O14_18 O 0.47529(9) 0.70867(8) 0.38553(8)
O23_18 O 0.54300(8) 0.74166(9) 0.32650(9)
O27_18 O 0.66293(10) 0.88213(11) 0.33906(11)
O11_19 O 0.11913(9) 0.67948(11) 0.62752(12)
O23_19 O 0.04300(8) 0.75834(9) 0.67350(9)
O27_19 O 0.16293(10) 0.61787(11) 0.66094(11)
O14_19 O 0.97529(9) 0.79133(8) 0.61447(8)
O14_20 O 0.02471(9) 0.29133(8) 0.88553(8)
O11_20 O 0.88087(9) 0.17948(11) 0.87248(12)
O23_20 O 0.95700(8) 0.25834(9) 0.82650(9)
O27_20 O 0.83707(10) 0.11787(11) 0.83906(11)
O11_21 O 0.82052(11) 0.37248(12) 0.61913(9)
O14_21 O 0.70867(8) 0.38553(8) 0.47529(9)
O23_21 O 0.74166(9) 0.32650(9) 0.54300(8)
O27_21 O 0.88213(11) 0.33906(11) 0.66293(10)
O11_22 O 0.32052(11) 0.12752(12) 0.38087(9)
O14_22 O 0.20867(8) 0.11447(8) 0.52471(9)
O23_22 O 0.24166(9) 0.17350(9) 0.45700(8)
O27_22 O 0.38213(11) 0.16094(11) 0.33707(10)
O14_23 O 0.29133(8) 0.88553(8) 0.02471(9)
O11_23 O 0.17948(11) 0.87248(12) 0.88087(9)
O23_23 O 0.25834(9) 0.82650(9) 0.95700(8)
O27_23 O 0.11787(11) 0.83906(11) 0.83707(10)
O11_24 O 0.67948(11) 0.62752(12) 0.11913(9)
O23_24 O 0.75834(9) 0.67350(9) 0.04300(8)
O27_24 O 0.61787(11) 0.66094(11) 0.16293(10)
O14_24 O 0.79133(8) 0.61447(8) 0.97529(9)
C1_9 C 0.37879(14) 0.49987(12) 0.51244(13)
N1_9 N 0.27181(11) 0.71726(12) 0.67797(11)
H1_9 H 0.2924 0.7050 0.6771
N2_8 N 0.45355(10) 0.49595(12) 0.44548(11)
N3_9 N 0.29761(10) 0.74306(10) 0.73095(10)
C2_9 C 0.32214(14) 0.49685(14) 0.56514(13)
H2_9 H 0.3033 0.4957 0.5828
N4_9 N 0.40563(11) 0.50314(11) 0.48540(10)
H3_9 H 0.4029 0.5226 0.4717
C3_9 C 0.29023(12) 0.55229(13) 0.53324(14)
C4_9 C 0.27039(12) 0.74365(12) 0.70443(13)
O3_9 O 0.26410(12) 0.55103(11) 0.55529(12)
C5_9 C 0.37797(13) 0.47265(13) 0.54004(13)
H4_9 H 0.3965 0.4546 0.5409
C6_9 C 0.20831(13) 0.71092(14) 0.65614(12)
H5_9 H 0.1996 0.7232 0.6772
O4_9 O 0.28069(11) 0.65939(12) 0.55063(11)
C7_9 C 0.24597(14) 0.70670(12) 0.65220(12)
C8_9 C 0.34941(14) 0.47242(13) 0.56651(13)
C9_9 C 0.25805(13) 0.68943(12) 0.61989(14)
H6_9 H 0.2835 0.6874 0.6156
C10_9 C 0.35018(14) 0.52464(14) 0.51228(13)
H7_9 H 0.3502 0.5429 0.4939
C11_9 C 0.18322(12) 0.69839(14) 0.63153(14)
C12_9 C 0.19711(16) 0.67779(14) 0.60076(14)
H8_9 H 0.1803 0.6659 0.5851
C13_9 C 0.23354(13) 0.67496(13) 0.59355(13)
C14_8 C 0.43520(13) 0.48237(15) 0.47584(14)
C15_9 C 0.24794(15) 0.65575(14) 0.56106(13)
O5_9 O 0.13335(12) 0.7370(2) 0.6490(2)
C16_9 C 0.32077(13) 0.52464(13) 0.53772(13)
C17_9 C 0.14163(17) 0.7022(2) 0.63771(17)
O8_9 O 0.33328(12) 0.44804(12) 0.62518(12)
C18_9 C 0.34990(17) 0.44210(17) 0.59714(17)
C19_9 C 0.51244(13) 0.37879(14) 0.49987(12)
C20_9 C 0.49987(12) 0.51244(13) 0.37879(14)
N5_9 N 0.32203(11) 0.77181(11) 0.78274(12)
N6_9 N 0.21726(12) 0.82203(11) 0.72819(11)
H9_9 H 0.3229 0.7924 0.7950
H10_9 H 0.2050 0.8229 0.7076
N7_8 N 0.44548(11) 0.45355(10) 0.49595(12)
N8_8 N 0.49595(12) 0.44548(11) 0.45355(10)
N9_9 N 0.26905(10) 0.79761(10) 0.75694(10)
N10_9 N 0.24306(10) 0.76905(10) 0.70239(10)
C21_9 C 0.56514(13) 0.32214(14) 0.49685(14)
C22_9 C 0.49685(14) 0.56514(13) 0.32214(14)
H11_9 H 0.5828 0.3033 0.4957
H12_9 H 0.4957 0.5828 0.3033
N11_9 N 0.48540(10) 0.40563(11) 0.50314(11)
N12_9 N 0.50314(11) 0.48540(10) 0.40563(11)
H13_9 H 0.4717 0.4029 0.5226
H14_9 H 0.5226 0.4717 0.4029
C23_9 C 0.53324(14) 0.29023(12) 0.55229(13)
C24_9 C 0.55229(13) 0.53324(14) 0.29023(12)
C25_9 C 0.29557(13) 0.77039(12) 0.75635(12)
C26_9 C 0.24365(12) 0.79557(13) 0.72961(12)
O15_9 O 0.55529(12) 0.26410(12) 0.55103(11)
O16_9 O 0.55103(11) 0.55529(12) 0.26410(12)
C27_9 C 0.54004(13) 0.37797(13) 0.47265(13)
C28_9 C 0.47265(13) 0.54004(13) 0.37797(13)
H15_9 H 0.5409 0.3965 0.4546
H16_9 H 0.4546 0.5409 0.3965
C29_9 C 0.34386(12) 0.70831(13) 0.78908(14)
C30_9 C 0.21092(14) 0.84386(12) 0.79169(13)
H17_9 H 0.3228 0.6996 0.7768
H18_9 H 0.2232 0.8228 0.8004
O17_9 O 0.44937(11) 0.78069(11) 0.84061(12)
O18_9 O 0.15939(12) 0.94937(11) 0.71931(11)
C31_9 C 0.34780(12) 0.74597(14) 0.79330(12)
C32_9 C 0.20670(12) 0.84780(12) 0.75403(14)
C33_9 C 0.56651(13) 0.34941(14) 0.47242(13)
C34_9 C 0.47242(13) 0.56651(13) 0.34941(14)
C35_9 C 0.38011(14) 0.75805(13) 0.81057(12)
C36_9 C 0.18943(12) 0.88011(14) 0.74195(13)
H19_9 H 0.3844 0.7835 0.8126
H20_9 H 0.1874 0.8844 0.7165
C37_9 C 0.51228(13) 0.35018(14) 0.52464(14)
C38_9 C 0.52464(14) 0.51228(13) 0.35018(14)
H21_9 H 0.4939 0.3502 0.5429
H22_9 H 0.5429 0.4939 0.3502
C39_9 C 0.36847(14) 0.68322(12) 0.80161(14)
C40_9 C 0.19839(14) 0.86847(14) 0.81678(12)
C41_9 C 0.39924(14) 0.69711(16) 0.82221(14)
C42_9 C 0.17779(14) 0.89924(14) 0.80289(16)
H23_9 H 0.4149 0.6803 0.8341
H24_9 H 0.1659 0.9149 0.8197
C43_9 C 0.40645(13) 0.73354(13) 0.82504(13)
C44_9 C 0.17496(13) 0.90645(13) 0.76646(13)
C45_8 C 0.47584(14) 0.43520(13) 0.48237(15)
C46_8 C 0.48237(15) 0.47584(14) 0.43520(13)
C47_9 C 0.43894(13) 0.74794(15) 0.84425(14)
C48_9 C 0.15575(14) 0.93894(13) 0.75206(15)
O19_9 O 0.3510(2) 0.63335(12) 0.7630(2)
O20_9 O 0.2370(2) 0.8510(2) 0.86665(12)
C49_9 C 0.53772(13) 0.32077(13) 0.52464(13)
C50_9 C 0.52464(13) 0.53772(13) 0.32077(13)
C51_9 C 0.36229(17) 0.64163(17) 0.7978(2)
C52_9 C 0.2022(2) 0.86229(17) 0.85837(17)
O28_9 O 0.62518(12) 0.33328(12) 0.44804(12)
O29_9 O 0.44804(12) 0.62518(12) 0.33328(12)
C53_9 C 0.59714(17) 0.34990(17) 0.44210(17)
C54_9 C 0.44210(17) 0.59714(17) 0.34990(17)
C1_10 C 0.12121(14) 0.50013(12) 0.01244(13)
N1_10 N 0.22819(11) 0.28274(12) 0.17797(11)
H1_10 H 0.2076 0.2950 0.1771
N3_10 N 0.20239(10) 0.25694(10) 0.23095(10)
C2_10 C 0.17786(14) 0.50315(14) 0.06514(13)
H2_10 H 0.1967 0.5043 0.0828
C3_10 C 0.20977(12) 0.44771(13) 0.03324(14)
C4_10 C 0.22961(12) 0.25635(12) 0.20443(13)
O3_10 O 0.23590(12) 0.44897(11) 0.05529(12)
C5_10 C 0.12203(13) 0.52735(13) 0.04004(13)
H4_10 H 0.1035 0.5454 0.0409
C6_10 C 0.29169(13) 0.28908(14) 0.15614(12)
H5_10 H 0.3004 0.2768 0.1772
O4_10 O 0.21931(11) 0.34061(12) 0.05063(11)
C7_10 C 0.25403(14) 0.29330(12) 0.15220(12)
C8_10 C 0.15059(14) 0.52758(13) 0.06651(13)
C9_10 C 0.24195(13) 0.31057(12) 0.11989(14)
H6_10 H 0.2165 0.3126 0.1156
C10_10 C 0.14982(14) 0.47536(14) 0.01228(13)
C11_10 C 0.31678(12) 0.30161(14) 0.13153(14)
C12_10 C 0.30289(16) 0.32221(14) 0.10076(14)
H8_10 H 0.3197 0.3341 0.0851
C13_10 C 0.26646(13) 0.32504(13) 0.09355(13)
C15_10 C 0.25206(15) 0.34425(14) 0.06106(13)
O5_10 O 0.36665(12) 0.2630(2) 0.1490(2)
C16_10 C 0.17923(13) 0.47536(13) 0.03772(13)
C17_10 C 0.35837(17) 0.2978(2) 0.13771(17)
O8_10 O 0.16672(12) 0.55196(12) 0.12518(12)
C18_10 C 0.15010(17) 0.55790(17) 0.09714(17)
N5_10 N 0.17797(11) 0.22819(11) 0.28274(12)
N6_10 N 0.28274(12) 0.17797(11) 0.22819(11)
H9_10 H 0.1771 0.2076 0.2950
H10_10 H 0.2950 0.1771 0.2076
N9_10 N 0.23095(10) 0.20239(10) 0.25694(10)
N10_10 N 0.25694(10) 0.23095(10) 0.20239(10)
N11_10 N 0.01460(10) 0.59437(11) 0.00314(11)
H13_10 H 0.0283 0.5971 0.0226
C25_10 C 0.20443(13) 0.22961(12) 0.25635(12)
C26_10 C 0.25635(12) 0.20443(13) 0.22961(12)
C29_10 C 0.15614(12) 0.29169(13) 0.28908(14)
C30_10 C 0.28908(14) 0.15614(12) 0.29169(13)
H17_10 H 0.1772 0.3004 0.2768
H18_10 H 0.2768 0.1772 0.3004
O17_10 O 0.05063(11) 0.21931(11) 0.34061(12)
O18_10 O 0.34061(12) 0.05063(11) 0.21931(11)
C31_10 C 0.15220(12) 0.25403(14) 0.29330(12)
C32_10 C 0.29330(12) 0.15220(12) 0.25403(14)
C35_10 C 0.11989(14) 0.24195(13) 0.31057(12)
C36_10 C 0.31057(12) 0.11989(14) 0.24195(13)
H19_10 H 0.1156 0.2165 0.3126
H20_10 H 0.3126 0.1156 0.2165
H21_10 H 0.0061 0.6498 0.0429
C39_10 C 0.13153(14) 0.31678(12) 0.30161(14)
C40_10 C 0.30161(14) 0.13153(14) 0.31678(12)
C41_10 C 0.10076(14) 0.30289(16) 0.32221(14)
C42_10 C 0.32221(14) 0.10076(14) 0.30289(16)
H23_10 H 0.0851 0.3197 0.3341
H24_10 H 0.3341 0.0851 0.3197
C43_10 C 0.09355(13) 0.26646(13) 0.32504(13)
C44_10 C 0.32504(13) 0.09355(13) 0.26646(13)
C47_10 C 0.06106(13) 0.25206(15) 0.34425(14)
C48_10 C 0.34425(14) 0.06106(13) 0.25206(15)
O19_10 O 0.1490(2) 0.36665(12) 0.2630(2)
O20_10 O 0.2630(2) 0.1490(2) 0.36665(12)
C51_10 C 0.13771(17) 0.35837(17) 0.2978(2)
C52_10 C 0.2978(2) 0.13771(17) 0.35837(17)
N2_9 N 0.04645(10) 0.50405(12) 0.94548(11)
N4_10 N 0.09437(11) 0.49686(11) 0.98540(10)
H3_10 H 0.0971 0.4774 0.9717
H7_10 H 0.1498 0.4571 0.9939
C14_9 C 0.06480(13) 0.51763(15) 0.97584(14)
C20_10 C 0.00013(12) 0.48756(13) 0.87879(14)
N7_9 N 0.05452(11) 0.54645(10) 0.99595(12)
N8_9 N 0.00405(12) 0.55452(11) 0.95355(10)
C22_10 C 0.00315(14) 0.43486(13) 0.82214(14)
H12_10 H 0.0043 0.4172 0.8033
C28_10 C 0.02735(13) 0.45996(13) 0.87797(13)
H16_10 H 0.0454 0.4591 0.8965
C34_10 C 0.02758(13) 0.43349(13) 0.84941(14)
C45_9 C 0.02416(14) 0.56480(13) 0.98237(15)
C46_9 C 0.01763(15) 0.52416(14) 0.93520(13)
O29_10 O 0.05196(12) 0.37482(12) 0.83328(12)
C54_10 C 0.05790(17) 0.40286(17) 0.84990(17)
C23_10 C 0.96676(14) 0.70977(12) 0.05229(13)
O15_10 O 0.94471(12) 0.73590(12) 0.05103(11)
C37_10 C 0.98772(13) 0.64982(14) 0.02464(14)
C49_10 C 0.96228(13) 0.67923(13) 0.02464(13)
C19_10 C 0.98756(13) 0.62121(14) 0.99987(12)
C21_10 C 0.93486(13) 0.67786(14) 0.99685(14)
H11_10 H 0.9172 0.6967 0.9957
N12_10 N 0.99686(11) 0.51460(10) 0.90563(11)
H14_10 H 0.9774 0.5283 0.9029
C24_10 C 0.94771(13) 0.46676(14) 0.79023(12)
O16_10 O 0.94897(11) 0.44471(12) 0.76410(12)
C27_10 C 0.95996(13) 0.62203(13) 0.97265(13)
H15_10 H 0.9591 0.6035 0.9546
C33_10 C 0.93349(13) 0.65059(14) 0.97242(13)
C38_10 C 0.97536(14) 0.48772(13) 0.85018(14)
H22_10 H 0.9571 0.5061 0.8502
C50_10 C 0.97536(13) 0.46228(13) 0.82077(13)
O28_10 O 0.87482(12) 0.66672(12) 0.94804(12)
C53_10 C 0.90286(17) 0.65010(17) 0.94210(17)
N4_11 N 0.59437(11) 0.00314(11) 0.01460(10)
H3_11 H 0.5971 0.0226 0.0283
H7_11 H 0.6498 0.0429 0.0061
C20_11 C 0.50013(12) 0.01244(13) 0.12121(14)
C22_11 C 0.50315(14) 0.06514(13) 0.17786(14)
H12_11 H 0.5043 0.0828 0.1967
C24_11 C 0.44771(13) 0.03324(14) 0.20977(12)
O16_11 O 0.44897(11) 0.05529(12) 0.23590(12)
C28_11 C 0.52735(13) 0.04004(13) 0.12203(13)
H16_11 H 0.5454 0.0409 0.1035
C34_11 C 0.52758(13) 0.06651(13) 0.15059(14)
C38_11 C 0.47536(14) 0.01228(13) 0.14982(14)
C50_11 C 0.47536(13) 0.03772(13) 0.17923(13)
O29_11 O 0.55196(12) 0.12518(12) 0.16672(12)
C54_11 C 0.55790(17) 0.09714(17) 0.15010(17)
N1_11 N 0.72819(11) 0.21726(12) 0.82203(11)
H1_11 H 0.7076 0.2050 0.8229
N3_11 N 0.70239(10) 0.24306(10) 0.76905(10)
C3_11 C 0.70977(12) 0.05229(13) 0.96676(14)
C4_11 C 0.72961(12) 0.24365(12) 0.79557(13)
O3_11 O 0.73590(12) 0.05103(11) 0.94471(12)
C6_11 C 0.79169(13) 0.21092(14) 0.84386(12)
H5_11 H 0.8004 0.2232 0.8228
O4_11 O 0.71931(11) 0.15939(12) 0.94937(11)
C7_11 C 0.75403(14) 0.20670(12) 0.84780(12)
C9_11 C 0.74195(13) 0.18943(12) 0.88011(14)
H6_11 H 0.7165 0.1874 0.8844
C10_11 C 0.64982(14) 0.02464(14) 0.98772(13)
C11_11 C 0.81678(12) 0.19839(14) 0.86847(14)
C12_11 C 0.80289(16) 0.17779(14) 0.89924(14)
H8_11 H 0.8197 0.1659 0.9149
C13_11 C 0.76646(13) 0.17496(13) 0.90645(13)
C15_11 C 0.75206(15) 0.15575(14) 0.93894(13)
O5_11 O 0.86665(12) 0.2370(2) 0.8510(2)
C16_11 C 0.67923(13) 0.02464(13) 0.96228(13)
C17_11 C 0.85837(17) 0.2022(2) 0.86229(17)
N5_11 N 0.67797(11) 0.27181(11) 0.71726(12)
N6_11 N 0.78274(12) 0.32203(11) 0.77181(11)
H9_11 H 0.6771 0.2924 0.7050
H10_11 H 0.7950 0.3229 0.7924
N9_11 N 0.73095(10) 0.29761(10) 0.74306(10)
N10_11 N 0.75694(10) 0.26905(10) 0.79761(10)
C25_11 C 0.70443(13) 0.27039(12) 0.74365(12)
C26_11 C 0.75635(12) 0.29557(13) 0.77039(12)
C29_11 C 0.65614(12) 0.20831(13) 0.71092(14)
C30_11 C 0.78908(14) 0.34386(12) 0.70831(13)
H17_11 H 0.6772 0.1996 0.7232
H18_11 H 0.7768 0.3228 0.6996
O17_11 O 0.55063(11) 0.28069(11) 0.65939(12)
O18_11 O 0.84061(12) 0.44937(11) 0.78069(11)
C31_11 C 0.65220(12) 0.24597(14) 0.70670(12)
C32_11 C 0.79330(12) 0.34780(12) 0.74597(14)
C35_11 C 0.61989(14) 0.25805(13) 0.68943(12)
C36_11 C 0.81057(12) 0.38011(14) 0.75805(13)
H19_11 H 0.6156 0.2835 0.6874
H20_11 H 0.8126 0.3844 0.7835
C39_11 C 0.63153(14) 0.18322(12) 0.69839(14)
C40_11 C 0.80161(14) 0.36847(14) 0.68322(12)
C41_11 C 0.60076(14) 0.19711(16) 0.67779(14)
C42_11 C 0.82221(14) 0.39924(14) 0.69711(16)
H23_11 H 0.5851 0.1803 0.6659
H24_11 H 0.8341 0.4149 0.6803
C43_11 C 0.59355(13) 0.23354(13) 0.67496(13)
C44_11 C 0.82504(13) 0.40645(13) 0.73354(13)
C47_11 C 0.56106(13) 0.24794(15) 0.65575(14)
C48_11 C 0.84425(14) 0.43894(13) 0.74794(15)
O19_11 O 0.6490(2) 0.13335(12) 0.7370(2)
O20_11 O 0.7630(2) 0.3510(2) 0.63335(12)
C51_11 C 0.63771(17) 0.14163(17) 0.7022(2)
C52_11 C 0.7978(2) 0.36229(17) 0.64163(17)
N2_10 N 0.54645(10) 0.99595(12) 0.05452(11)
C14_10 C 0.56480(13) 0.98237(15) 0.02416(14)
C19_11 C 0.48756(13) 0.87879(14) 0.00013(12)
N7_10 N 0.55452(11) 0.95355(10) 0.00405(12)
N8_10 N 0.50405(12) 0.94548(11) 0.04645(10)
C21_11 C 0.43486(13) 0.82214(14) 0.00315(14)
H11_11 H 0.4172 0.8033 0.0043
N12_11 N 0.49686(11) 0.98540(10) 0.09437(11)
H14_11 H 0.4774 0.9717 0.0971
C27_11 C 0.45996(13) 0.87797(13) 0.02735(13)
H15_11 H 0.4591 0.8965 0.0454
C33_11 C 0.43349(13) 0.84941(14) 0.02758(13)
H22_11 H 0.4571 0.9939 0.1498
C45_10 C 0.52416(14) 0.93520(13) 0.01763(15)
C46_10 C 0.51763(15) 0.97584(14) 0.06480(13)
O28_11 O 0.37482(12) 0.83328(12) 0.05196(12)
C53_11 C 0.40286(17) 0.84990(17) 0.05790(17)
C1_11 C 0.62121(14) 0.99987(12) 0.98756(13)
C2_11 C 0.67786(14) 0.99685(14) 0.93486(13)
H2_11 H 0.6967 0.9957 0.9172
C5_11 C 0.62203(13) 0.97265(13) 0.95996(13)
H4_11 H 0.6035 0.9546 0.9591
C8_11 C 0.65059(14) 0.97242(13) 0.93349(13)
O8_11 O 0.66672(12) 0.94804(12) 0.87482(12)
C18_11 C 0.65010(17) 0.94210(17) 0.90286(17)
N11_11 N 0.51460(10) 0.90563(11) 0.99686(11)
H13_11 H 0.5283 0.9029 0.9774
C23_11 C 0.46676(14) 0.79023(12) 0.94771(13)
O15_11 O 0.44471(12) 0.76410(12) 0.94897(11)
C37_11 C 0.48772(13) 0.85018(14) 0.97536(14)
H21_11 H 0.5061 0.8502 0.9571
C49_11 C 0.46228(13) 0.82077(13) 0.97536(13)
C19_12 C 0.01244(13) 0.12121(14) 0.50013(12)
C21_12 C 0.06514(13) 0.17786(14) 0.50315(14)
H11_12 H 0.0828 0.1967 0.5043
N12_12 N 0.00314(11) 0.01460(10) 0.59437(11)
H14_12 H 0.0226 0.0283 0.5971
C23_12 C 0.03324(14) 0.20977(12) 0.44771(13)
O15_12 O 0.05529(12) 0.23590(12) 0.44897(11)
C27_12 C 0.04004(13) 0.12203(13) 0.52735(13)
H15_12 H 0.0409 0.1035 0.5454
C33_12 C 0.06651(13) 0.15059(14) 0.52758(13)
C37_12 C 0.01228(13) 0.14982(14) 0.47536(14)
H22_12 H 0.0429 0.0061 0.6498
C49_12 C 0.03772(13) 0.17923(13) 0.47536(13)
O28_12 O 0.12518(12) 0.16672(12) 0.55196(12)
C53_12 C 0.09714(17) 0.15010(17) 0.55790(17)
C24_12 C 0.05229(13) 0.96676(14) 0.70977(12)
O16_12 O 0.05103(11) 0.94471(12) 0.73590(12)
C38_12 C 0.02464(14) 0.98772(13) 0.64982(14)
C50_12 C 0.02464(13) 0.96228(13) 0.67923(13)
C1_12 C 0.87879(14) 0.00013(12) 0.48756(13)
N2_11 N 0.95355(10) 0.00405(12) 0.55452(11)
C2_12 C 0.82214(14) 0.00315(14) 0.43486(13)
H2_12 H 0.8033 0.0043 0.4172
C5_12 C 0.87797(13) 0.02735(13) 0.45996(13)
H4_12 H 0.8965 0.0454 0.4591
C8_12 C 0.84941(14) 0.02758(13) 0.43349(13)
C14_11 C 0.93520(13) 0.01763(15) 0.52416(14)
O8_12 O 0.83328(12) 0.05196(12) 0.37482(12)
C18_12 C 0.84990(17) 0.05790(17) 0.40286(17)
N7_11 N 0.94548(11) 0.04645(10) 0.50405(12)
N8_11 N 0.99595(12) 0.05452(11) 0.54645(10)
N11_12 N 0.98540(10) 0.09437(11) 0.49686(11)
H13_12 H 0.9717 0.0971 0.4774
H21_12 H 0.9939 0.1498 0.4571
C45_11 C 0.97584(14) 0.06480(13) 0.51763(15)
C46_11 C 0.98237(15) 0.02416(14) 0.56480(13)
N1_12 N 0.77181(11) 0.78274(12) 0.32203(11)
H1_12 H 0.7924 0.7950 0.3229
N3_12 N 0.79761(10) 0.75694(10) 0.26905(10)
N4_12 N 0.90563(11) 0.99686(11) 0.51460(10)
H3_12 H 0.9029 0.9774 0.5283
C3_12 C 0.79023(12) 0.94771(13) 0.46676(14)
C4_12 C 0.77039(12) 0.75635(12) 0.29557(13)
O3_12 O 0.76410(12) 0.94897(11) 0.44471(12)
C6_12 C 0.70831(13) 0.78908(14) 0.34386(12)
H5_12 H 0.6996 0.7768 0.3228
O4_12 O 0.78069(11) 0.84061(12) 0.44937(11)
C7_12 C 0.74597(14) 0.79330(12) 0.34780(12)
C9_12 C 0.75805(13) 0.81057(12) 0.38011(14)
H6_12 H 0.7835 0.8126 0.3844
C10_12 C 0.85018(14) 0.97536(14) 0.48772(13)
H7_12 H 0.8502 0.9571 0.5061
C11_12 C 0.68322(12) 0.80161(14) 0.36847(14)
C12_12 C 0.69711(16) 0.82221(14) 0.39924(14)
H8_12 H 0.6803 0.8341 0.4149
C13_12 C 0.73354(13) 0.82504(13) 0.40645(13)
C15_12 C 0.74794(15) 0.84425(14) 0.43894(13)
O5_12 O 0.63335(12) 0.7630(2) 0.3510(2)
C16_12 C 0.82077(13) 0.97536(13) 0.46228(13)
C17_12 C 0.64163(17) 0.7978(2) 0.36229(17)
C20_12 C 0.99987(12) 0.98756(13) 0.62121(14)
N5_12 N 0.82203(11) 0.72819(11) 0.21726(12)
N6_12 N 0.71726(12) 0.67797(11) 0.27181(11)
H9_12 H 0.8229 0.7076 0.2050
H10_12 H 0.7050 0.6771 0.2924
N9_12 N 0.76905(10) 0.70239(10) 0.24306(10)
N10_12 N 0.74306(10) 0.73095(10) 0.29761(10)
C22_12 C 0.99685(14) 0.93486(13) 0.67786(14)
H12_12 H 0.9957 0.9172 0.6967
C25_12 C 0.79557(13) 0.72961(12) 0.24365(12)
C26_12 C 0.74365(12) 0.70443(13) 0.27039(12)
C28_12 C 0.97265(13) 0.95996(13) 0.62203(13)
H16_12 H 0.9546 0.9591 0.6035
C29_12 C 0.84386(12) 0.79169(13) 0.21092(14)
C30_12 C 0.71092(14) 0.65614(12) 0.20831(13)
H17_12 H 0.8228 0.8004 0.2232
H18_12 H 0.7232 0.6772 0.1996
O17_12 O 0.94937(11) 0.71931(11) 0.15939(12)
O18_12 O 0.65939(12) 0.55063(11) 0.28069(11)
C31_12 C 0.84780(12) 0.75403(14) 0.20670(12)
C32_12 C 0.70670(12) 0.65220(12) 0.24597(14)
C34_12 C 0.97242(13) 0.93349(13) 0.65059(14)
C35_12 C 0.88011(14) 0.74195(13) 0.18943(12)
C36_12 C 0.68943(12) 0.61989(14) 0.25805(13)
H19_12 H 0.8844 0.7165 0.1874
H20_12 H 0.6874 0.6156 0.2835
C39_12 C 0.86847(14) 0.81678(12) 0.19839(14)
C40_12 C 0.69839(14) 0.63153(14) 0.18322(12)
C41_12 C 0.89924(14) 0.80289(16) 0.17779(14)
C42_12 C 0.67779(14) 0.60076(14) 0.19711(16)
H23_12 H 0.9149 0.8197 0.1659
H24_12 H 0.6659 0.5851 0.1803
C43_12 C 0.90645(13) 0.76646(13) 0.17496(13)
C44_12 C 0.67496(13) 0.59355(13) 0.23354(13)
C47_12 C 0.93894(13) 0.75206(15) 0.15575(14)
C48_12 C 0.65575(14) 0.56106(13) 0.24794(15)
O19_12 O 0.8510(2) 0.86665(12) 0.2370(2)
O20_12 O 0.7370(2) 0.6490(2) 0.13335(12)
C51_12 C 0.86229(17) 0.85837(17) 0.2022(2)
C52_12 C 0.7022(2) 0.63771(17) 0.14163(17)
O29_12 O 0.94804(12) 0.87482(12) 0.66672(12)
C54_12 C 0.94210(17) 0.90286(17) 0.65010(17)
C1_13 C 0.24987(12) 0.62879(14) 0.73756(13)
N1_13 N 0.46726(12) 0.52181(11) 0.57203(11)
H1_13 H 0.4550 0.5424 0.5729
N2_12 N 0.24595(12) 0.70355(10) 0.80452(11)
N3_13 N 0.49306(10) 0.54761(10) 0.51905(10)
C2_13 C 0.24685(14) 0.57214(14) 0.68486(13)
H2_13 H 0.2457 0.5533 0.6672
N4_13 N 0.25314(11) 0.65563(11) 0.76460(10)
H3_13 H 0.2726 0.6529 0.7783
C3_13 C 0.30229(13) 0.54023(12) 0.71676(14)
C4_13 C 0.49365(12) 0.52039(12) 0.54557(13)
O3_13 O 0.30103(11) 0.51410(12) 0.69471(12)
C5_13 C 0.22265(13) 0.62797(13) 0.70996(13)
H4_13 H 0.2046 0.6465 0.7091
C6_13 C 0.46092(14) 0.45831(13) 0.59386(12)
H5_13 H 0.4732 0.4496 0.5728
O4_13 O 0.40939(12) 0.53069(11) 0.69937(11)
C7_13 C 0.45670(12) 0.49597(14) 0.59780(12)
C8_13 C 0.22242(13) 0.59941(14) 0.68349(13)
C9_13 C 0.43943(12) 0.50805(13) 0.63011(14)
H6_13 H 0.4374 0.5335 0.6344
C10_13 C 0.27464(14) 0.60018(14) 0.73772(13)
H7_13 H 0.2929 0.6002 0.7561
C11_13 C 0.44839(14) 0.43322(12) 0.61847(14)
C12_13 C 0.42779(14) 0.44711(16) 0.64924(14)
H8_13 H 0.4159 0.4303 0.6649
C13_13 C 0.42496(13) 0.48354(13) 0.65645(13)
C14_12 C 0.23237(15) 0.68520(13) 0.77416(14)
C15_13 C 0.40575(14) 0.49794(15) 0.68894(13)
O5_13 O 0.4870(2) 0.38335(12) 0.6010(2)
C16_13 C 0.27464(13) 0.57077(13) 0.71228(13)
C17_13 C 0.4522(2) 0.39163(17) 0.61229(17)
O8_13 O 0.19804(12) 0.58328(12) 0.62482(12)
C18_13 C 0.19210(17) 0.59990(17) 0.65286(17)
C19_13 C 0.12879(14) 0.76244(13) 0.75013(12)
C20_13 C 0.26244(13) 0.74987(12) 0.87121(14)
N5_13 N 0.52181(11) 0.57203(11) 0.46726(12)
N6_13 N 0.57203(11) 0.46726(12) 0.52181(11)
H9_13 H 0.5424 0.5729 0.4550
H10_13 H 0.5729 0.4550 0.5424
N7_12 N 0.20355(10) 0.69548(11) 0.75405(12)
N8_12 N 0.19548(11) 0.74595(12) 0.79645(10)
N9_13 N 0.54761(10) 0.51905(10) 0.49306(10)
N10_13 N 0.51905(10) 0.49306(10) 0.54761(10)
C21_13 C 0.07214(14) 0.81514(13) 0.75315(14)
C22_13 C 0.31514(13) 0.74685(14) 0.92786(14)
H11_13 H 0.0533 0.8328 0.7543
H12_13 H 0.3328 0.7457 0.9467
N11_13 N 0.15563(11) 0.73540(10) 0.74686(11)
N12_13 N 0.23540(10) 0.75314(11) 0.84437(11)
H13_13 H 0.1529 0.7217 0.7274
H14_13 H 0.2217 0.7726 0.8471
C23_13 C 0.04023(12) 0.78324(14) 0.69771(13)
C24_13 C 0.28324(14) 0.80229(13) 0.95977(12)
C25_13 C 0.52039(12) 0.54557(13) 0.49365(12)
C26_13 C 0.54557(13) 0.49365(12) 0.52039(12)
O15_13 O 0.01410(12) 0.80529(12) 0.69897(11)
O16_13 O 0.30529(12) 0.80103(11) 0.98590(12)
C27_13 C 0.12797(13) 0.79004(13) 0.77735(13)
C28_13 C 0.29004(13) 0.72265(13) 0.87203(13)
H15_13 H 0.1465 0.7909 0.7954
H16_13 H 0.2909 0.7046 0.8535
C29_13 C 0.45831(13) 0.59386(12) 0.46092(14)
C30_13 C 0.59386(12) 0.46092(14) 0.45831(13)
H17_13 H 0.4496 0.5728 0.4732
H18_13 H 0.5728 0.4732 0.4496
O17_13 O 0.53069(11) 0.69937(11) 0.40939(12)
O18_13 O 0.69937(11) 0.40939(12) 0.53069(11)
C31_13 C 0.49597(14) 0.59780(12) 0.45670(12)
C32_13 C 0.59780(12) 0.45670(12) 0.49597(14)
C33_13 C 0.09941(14) 0.81651(13) 0.77758(13)
C34_13 C 0.31651(13) 0.72242(13) 0.90059(14)
C35_13 C 0.50805(13) 0.63011(14) 0.43943(12)
C36_13 C 0.63011(14) 0.43943(12) 0.50805(13)
H19_13 H 0.5335 0.6344 0.4374
H20_13 H 0.6344 0.4374 0.5335
C37_13 C 0.10018(14) 0.76228(13) 0.72536(14)
C38_13 C 0.26228(13) 0.77464(14) 0.89982(14)
H21_13 H 0.1002 0.7439 0.7071
H22_13 H 0.2439 0.7929 0.8998
C39_13 C 0.43322(12) 0.61847(14) 0.44839(14)
C40_13 C 0.61847(14) 0.44839(14) 0.43322(12)
C41_13 C 0.44711(16) 0.64924(14) 0.42779(14)
C42_13 C 0.64924(14) 0.42779(14) 0.44711(16)
H23_13 H 0.4303 0.6649 0.4159
H24_13 H 0.6649 0.4159 0.4303
C43_13 C 0.48354(13) 0.65645(13) 0.42496(13)
C44_13 C 0.65645(13) 0.42496(13) 0.48354(13)
C45_12 C 0.18520(13) 0.72584(14) 0.76763(15)
C46_12 C 0.22584(14) 0.73237(15) 0.81480(13)
C47_13 C 0.49794(15) 0.68894(13) 0.40575(14)
C48_13 C 0.68894(13) 0.40575(14) 0.49794(15)
O19_13 O 0.38335(12) 0.6010(2) 0.4870(2)
O20_13 O 0.6010(2) 0.4870(2) 0.38335(12)
C49_13 C 0.07077(13) 0.78772(13) 0.72536(13)
C50_13 C 0.28772(13) 0.77464(13) 0.92923(13)
C51_13 C 0.39163(17) 0.61229(17) 0.4522(2)
C52_13 C 0.61229(17) 0.4522(2) 0.39163(17)
O28_13 O 0.08328(12) 0.87518(12) 0.80196(12)
O29_13 O 0.37518(12) 0.69804(12) 0.91672(12)
C53_13 C 0.09990(17) 0.84714(17) 0.80790(17)
C54_13 C 0.34714(17) 0.69210(17) 0.90010(17)
C1_14 C 0.25013(12) 0.37121(14) 0.23756(13)
N1_14 N 0.03274(12) 0.47819(11) 0.07203(11)
H1_14 H 0.0450 0.4576 0.0729
N2_13 N 0.25405(12) 0.29645(10) 0.30452(11)
N3_14 N 0.00694(10) 0.45239(10) 0.01905(10)
C2_14 C 0.25315(14) 0.42786(14) 0.18486(13)
H2_14 H 0.2543 0.4467 0.1672
N4_14 N 0.24686(11) 0.34437(11) 0.26460(10)
H3_14 H 0.2274 0.3471 0.2783
C3_14 C 0.19771(13) 0.45977(12) 0.21676(14)
C4_14 C 0.00635(12) 0.47961(12) 0.04557(13)
O3_14 O 0.19897(11) 0.48590(12) 0.19471(12)
C5_14 C 0.27735(13) 0.37203(13) 0.20996(13)
H4_14 H 0.2954 0.3535 0.2091
C6_14 C 0.03908(14) 0.54169(13) 0.09386(12)
H5_14 H 0.0268 0.5504 0.0728
O4_14 O 0.09061(12) 0.46931(11) 0.19937(11)
C7_14 C 0.04330(12) 0.50403(14) 0.09780(12)
C8_14 C 0.27758(13) 0.40059(14) 0.18349(13)
C9_14 C 0.06057(12) 0.49195(13) 0.13011(14)
H6_14 H 0.0626 0.4665 0.1344
C10_14 C 0.22536(14) 0.39982(14) 0.23772(13)
H7_14 H 0.2071 0.3998 0.2561
C11_14 C 0.05161(14) 0.56678(12) 0.11847(14)
C12_14 C 0.07221(14) 0.55289(16) 0.14924(14)
H8_14 H 0.0841 0.5697 0.1649
C13_14 C 0.07504(13) 0.51646(13) 0.15645(13)
C14_13 C 0.26763(15) 0.31480(13) 0.27416(14)
C15_14 C 0.09425(14) 0.50206(15) 0.18894(13)
O5_14 O 0.0130(2) 0.61665(12) 0.1010(2)
C16_14 C 0.22536(13) 0.42923(13) 0.21228(13)
C17_14 C 0.0478(2) 0.60837(17) 0.11229(17)
O8_14 O 0.30196(12) 0.41672(12) 0.12482(12)
C18_14 C 0.30790(17) 0.40010(17) 0.15286(17)
C19_14 C 0.37121(14) 0.23756(13) 0.25013(12)
C20_14 C 0.23756(13) 0.25013(12) 0.37121(14)
N7_13 N 0.29645(10) 0.30452(11) 0.25405(12)
N8_13 N 0.30452(11) 0.25405(12) 0.29645(10)
C21_14 C 0.42786(14) 0.18486(13) 0.25315(14)
C22_14 C 0.18486(13) 0.25315(14) 0.42786(14)
H11_14 H 0.4467 0.1672 0.2543
H12_14 H 0.1672 0.2543 0.4467
N11_14 N 0.34437(11) 0.26460(10) 0.24686(11)
N12_14 N 0.26460(10) 0.24686(11) 0.34437(11)
H13_14 H 0.3471 0.2783 0.2274
H14_14 H 0.2783 0.2274 0.3471
C23_14 C 0.45977(12) 0.21676(14) 0.19771(13)
C24_14 C 0.21676(14) 0.19771(13) 0.45977(12)
O15_14 O 0.48590(12) 0.19471(12) 0.19897(11)
O16_14 O 0.19471(12) 0.19897(11) 0.48590(12)
C27_14 C 0.37203(13) 0.20996(13) 0.27735(13)
C28_14 C 0.20996(13) 0.27735(13) 0.37203(13)
H15_14 H 0.3535 0.2091 0.2954
H16_14 H 0.2091 0.2954 0.3535
C33_14 C 0.40059(14) 0.18349(13) 0.27758(13)
C34_14 C 0.18349(13) 0.27758(13) 0.40059(14)
C37_14 C 0.39982(14) 0.23772(13) 0.22536(14)
C38_14 C 0.23772(13) 0.22536(14) 0.39982(14)
H21_14 H 0.3998 0.2561 0.2071
H22_14 H 0.2561 0.2071 0.3998
C45_13 C 0.31480(13) 0.27416(14) 0.26763(15)
C46_13 C 0.27416(14) 0.26763(15) 0.31480(13)
C49_14 C 0.42923(13) 0.21228(13) 0.22536(13)
C50_14 C 0.21228(13) 0.22536(13) 0.42923(13)
O28_14 O 0.41672(12) 0.12482(12) 0.30196(12)
O29_14 O 0.12482(12) 0.30196(12) 0.41672(12)
C53_14 C 0.40010(17) 0.15286(17) 0.30790(17)
C54_14 C 0.15286(17) 0.30790(17) 0.40010(17)
C29_14 C 0.04169(13) 0.40614(12) 0.96092(14)
H17_14 H 0.0504 0.4272 0.9732
C31_14 C 0.00403(14) 0.40220(12) 0.95670(12)
C39_14 C 0.06678(12) 0.38153(14) 0.94839(14)
C41_14 C 0.05289(16) 0.35076(14) 0.92779(14)
H23_14 H 0.0697 0.3351 0.9159
C43_14 C 0.01646(13) 0.34355(13) 0.92496(13)
C47_14 C 0.00206(15) 0.31106(13) 0.90575(14)
O19_14 O 0.11665(12) 0.3990(2) 0.9870(2)
C51_14 C 0.10837(17) 0.38771(17) 0.9522(2)
N6_14 N 0.92797(11) 0.53274(12) 0.02181(11)
H10_14 H 0.9271 0.5450 0.0424
N10_14 N 0.98095(10) 0.50694(10) 0.04761(10)
C26_14 C 0.95443(13) 0.50635(12) 0.02039(12)
O18_14 O 0.80063(11) 0.59061(12) 0.03069(11)
C36_14 C 0.86989(14) 0.56057(12) 0.00805(13)
H20_14 H 0.8656 0.5626 0.0335
N5_14 N 0.97819(11) 0.42797(11) 0.96726(12)
H9_14 H 0.9576 0.4271 0.9550
N9_14 N 0.95239(10) 0.48095(10) 0.99306(10)
C25_14 C 0.97961(12) 0.45443(13) 0.99365(12)
C30_14 C 0.90614(12) 0.53908(14) 0.95831(13)
H18_14 H 0.9272 0.5268 0.9496
O17_14 O 0.96931(11) 0.30063(11) 0.90939(12)
C32_14 C 0.90220(12) 0.54330(12) 0.99597(14)
C35_14 C 0.99195(13) 0.36989(14) 0.93943(12)
H19_14 H 0.9665 0.3656 0.9374
C40_14 C 0.88153(14) 0.55161(14) 0.93322(12)
C42_14 C 0.85076(14) 0.57221(14) 0.94711(16)
H24_14 H 0.8351 0.5841 0.9303
C44_14 C 0.84355(13) 0.57504(13) 0.98354(13)
C48_14 C 0.81106(13) 0.59425(14) 0.99794(15)
O20_14 O 0.8990(2) 0.5130(2) 0.88335(12)
C52_14 C 0.88771(17) 0.5478(2) 0.89163(17)
N6_15 N 0.07203(11) 0.03274(12) 0.47819(11)
H10_15 H 0.0729 0.0450 0.4576
N10_15 N 0.01905(10) 0.00694(10) 0.45239(10)
C26_15 C 0.04557(13) 0.00635(12) 0.47961(12)
C30_15 C 0.09386(12) 0.03908(14) 0.54169(13)
H18_15 H 0.0728 0.0268 0.5504
O18_15 O 0.19937(11) 0.09061(12) 0.46931(11)
C32_15 C 0.09780(12) 0.04330(12) 0.50403(14)
C36_15 C 0.13011(14) 0.06057(12) 0.49195(13)
H20_15 H 0.1344 0.0626 0.4665
C40_15 C 0.11847(14) 0.05161(14) 0.56678(12)
C42_15 C 0.14924(14) 0.07221(14) 0.55289(16)
H24_15 H 0.1649 0.0841 0.5697
C44_15 C 0.15645(13) 0.07504(13) 0.51646(13)
C48_15 C 0.18894(13) 0.09425(14) 0.50206(15)
O20_15 O 0.1010(2) 0.0130(2) 0.61665(12)
C52_15 C 0.11229(17) 0.0478(2) 0.60837(17)
N5_15 N 0.02181(11) 0.92797(11) 0.53274(12)
H9_15 H 0.0424 0.9271 0.5450
N9_15 N 0.04761(10) 0.98095(10) 0.50694(10)
C25_15 C 0.02039(12) 0.95443(13) 0.50635(12)
O17_15 O 0.03069(11) 0.80063(11) 0.59061(12)
C35_15 C 0.00805(13) 0.86989(14) 0.56057(12)
H19_15 H 0.0335 0.8656 0.5626
C6_15 C 0.96092(14) 0.04169(13) 0.40614(12)
H5_15 H 0.9732 0.0504 0.4272
C7_15 C 0.95670(12) 0.00403(14) 0.40220(12)
C11_15 C 0.94839(14) 0.06678(12) 0.38153(14)
C12_15 C 0.92779(14) 0.05289(16) 0.35076(14)
H8_15 H 0.9159 0.0697 0.3351
C13_15 C 0.92496(13) 0.01646(13) 0.34355(13)
C15_15 C 0.90575(14) 0.00206(15) 0.31106(13)
O5_15 O 0.9870(2) 0.11665(12) 0.3990(2)
C17_15 C 0.9522(2) 0.10837(17) 0.38771(17)
C1_15 C 0.74987(12) 0.87121(14) 0.26244(13)
N1_15 N 0.96726(12) 0.97819(11) 0.42797(11)
H1_15 H 0.9550 0.9576 0.4271
N2_14 N 0.74595(12) 0.79645(10) 0.19548(11)
N3_15 N 0.99306(10) 0.95239(10) 0.48095(10)
C2_15 C 0.74685(14) 0.92786(14) 0.31514(13)
H2_15 H 0.7457 0.9467 0.3328
N4_15 N 0.75314(11) 0.84437(11) 0.23540(10)
H3_15 H 0.7726 0.8471 0.2217
C3_15 C 0.80229(13) 0.95977(12) 0.28324(14)
C4_15 C 0.99365(12) 0.97961(12) 0.45443(13)
O3_15 O 0.80103(11) 0.98590(12) 0.30529(12)
C5_15 C 0.72265(13) 0.87203(13) 0.29004(13)
H4_15 H 0.7046 0.8535 0.2909
O4_15 O 0.90939(12) 0.96931(11) 0.30063(11)
C8_15 C 0.72242(13) 0.90059(14) 0.31651(13)
C9_15 C 0.93943(12) 0.99195(13) 0.36989(14)
H6_15 H 0.9374 0.9665 0.3656
C10_15 C 0.77464(14) 0.89982(14) 0.26228(13)
H7_15 H 0.7929 0.8998 0.2439
C14_14 C 0.73237(15) 0.81480(13) 0.22584(14)
C16_15 C 0.77464(13) 0.92923(13) 0.28772(13)
O8_15 O 0.69804(12) 0.91672(12) 0.37518(12)
C18_15 C 0.69210(17) 0.90010(17) 0.34714(17)
C19_15 C 0.62879(14) 0.73756(13) 0.24987(12)
C20_15 C 0.76244(13) 0.75013(12) 0.12879(14)
N7_14 N 0.70355(10) 0.80452(11) 0.24595(12)
N8_14 N 0.69548(11) 0.75405(12) 0.20355(10)
C21_15 C 0.57214(14) 0.68486(13) 0.24685(14)
C22_15 C 0.81514(13) 0.75315(14) 0.07214(14)
H11_15 H 0.5533 0.6672 0.2457
H12_15 H 0.8328 0.7543 0.0533
N11_15 N 0.65563(11) 0.76460(10) 0.25314(11)
N12_15 N 0.73540(10) 0.74686(11) 0.15563(11)
H13_15 H 0.6529 0.7783 0.2726
H14_15 H 0.7217 0.7274 0.1529
C23_15 C 0.54023(12) 0.71676(14) 0.30229(13)
C24_15 C 0.78324(14) 0.69771(13) 0.04023(12)
O15_15 O 0.51410(12) 0.69471(12) 0.30103(11)
O16_15 O 0.80529(12) 0.69897(11) 0.01410(12)
C27_15 C 0.62797(13) 0.70996(13) 0.22265(13)
C28_15 C 0.79004(13) 0.77735(13) 0.12797(13)
H15_15 H 0.6465 0.7091 0.2046
H16_15 H 0.7909 0.7954 0.1465
C29_15 C 0.95831(13) 0.90614(12) 0.53908(14)
H17_15 H 0.9496 0.9272 0.5268
C31_15 C 0.99597(14) 0.90220(12) 0.54330(12)
C33_15 C 0.59941(14) 0.68349(13) 0.22242(13)
C34_15 C 0.81651(13) 0.77758(13) 0.09941(14)
C37_15 C 0.60018(14) 0.73772(13) 0.27464(14)
C38_15 C 0.76228(13) 0.72536(14) 0.10018(14)
H21_15 H 0.6002 0.7561 0.2929
H22_15 H 0.7439 0.7071 0.1002
C39_15 C 0.93322(12) 0.88153(14) 0.55161(14)
C41_15 C 0.94711(16) 0.85076(14) 0.57221(14)
H23_15 H 0.9303 0.8351 0.5841
C43_15 C 0.98354(13) 0.84355(13) 0.57504(13)
C45_14 C 0.68520(13) 0.77416(14) 0.23237(15)
C46_14 C 0.72584(14) 0.76763(15) 0.18520(13)
C47_15 C 0.99794(15) 0.81106(13) 0.59425(14)
O19_15 O 0.88335(12) 0.8990(2) 0.5130(2)
C49_15 C 0.57077(13) 0.71228(13) 0.27464(13)
C50_15 C 0.78772(13) 0.72536(13) 0.07077(13)
C51_15 C 0.89163(17) 0.88771(17) 0.5478(2)
O28_15 O 0.58328(12) 0.62482(12) 0.19804(12)
O29_15 O 0.87518(12) 0.80196(12) 0.08328(12)
C53_15 C 0.59990(17) 0.65286(17) 0.19210(17)
C54_15 C 0.84714(17) 0.80790(17) 0.09990(17)
N5_16 N 0.47819(11) 0.07203(11) 0.03274(12)
H9_16 H 0.4576 0.0729 0.0450
N9_16 N 0.45239(10) 0.01905(10) 0.00694(10)
C25_16 C 0.47961(12) 0.04557(13) 0.00635(12)
C29_16 C 0.54169(13) 0.09386(12) 0.03908(14)
H17_16 H 0.5504 0.0728 0.0268
O17_16 O 0.46931(11) 0.19937(11) 0.09061(12)
C31_16 C 0.50403(14) 0.09780(12) 0.04330(12)
C35_16 C 0.49195(13) 0.13011(14) 0.06057(12)
H19_16 H 0.4665 0.1344 0.0626
C39_16 C 0.56678(12) 0.11847(14) 0.05161(14)
C41_16 C 0.55289(16) 0.14924(14) 0.07221(14)
H23_16 H 0.5697 0.1649 0.0841
C43_16 C 0.51646(13) 0.15645(13) 0.07504(13)
C47_16 C 0.50206(15) 0.18894(13) 0.09425(14)
O19_16 O 0.61665(12) 0.1010(2) 0.0130(2)
C51_16 C 0.60837(17) 0.11229(17) 0.0478(2)
C1_16 C 0.75013(12) 0.12879(14) 0.76244(13)
N1_16 N 0.53274(12) 0.02181(11) 0.92797(11)
H1_16 H 0.5450 0.0424 0.9271
N2_15 N 0.75405(12) 0.20355(10) 0.69548(11)
N3_16 N 0.50694(10) 0.04761(10) 0.98095(10)
C2_16 C 0.75315(14) 0.07214(14) 0.81514(13)
H2_16 H 0.7543 0.0533 0.8328
N4_16 N 0.74686(11) 0.15563(11) 0.73540(10)
H3_16 H 0.7274 0.1529 0.7217
C3_16 C 0.69771(13) 0.04023(12) 0.78324(14)
C4_16 C 0.50635(12) 0.02039(12) 0.95443(13)
O3_16 O 0.69897(11) 0.01410(12) 0.80529(12)
C5_16 C 0.77735(13) 0.12797(13) 0.79004(13)
H4_16 H 0.7954 0.1465 0.7909
O4_16 O 0.59061(12) 0.03069(11) 0.80063(11)
C8_16 C 0.77758(13) 0.09941(14) 0.81651(13)
C9_16 C 0.56057(12) 0.00805(13) 0.86989(14)
H6_16 H 0.5626 0.0335 0.8656
C10_16 C 0.72536(14) 0.10018(14) 0.76228(13)
H7_16 H 0.7071 0.1002 0.7439
C14_15 C 0.76763(15) 0.18520(13) 0.72584(14)
C16_16 C 0.72536(13) 0.07077(13) 0.78772(13)
O8_16 O 0.80196(12) 0.08328(12) 0.87518(12)
C18_16 C 0.80790(17) 0.09990(17) 0.84714(17)
C19_16 C 0.87121(14) 0.26244(13) 0.74987(12)
C20_16 C 0.73756(13) 0.24987(12) 0.62879(14)
N7_15 N 0.79645(10) 0.19548(11) 0.74595(12)
N8_15 N 0.80452(11) 0.24595(12) 0.70355(10)
C21_16 C 0.92786(14) 0.31514(13) 0.74685(14)
C22_16 C 0.68486(13) 0.24685(14) 0.57214(14)
H11_16 H 0.9467 0.3328 0.7457
H12_16 H 0.6672 0.2457 0.5533
N11_16 N 0.84437(11) 0.23540(10) 0.75314(11)
N12_16 N 0.76460(10) 0.25314(11) 0.65563(11)
H13_16 H 0.8471 0.2217 0.7726
H14_16 H 0.7783 0.2726 0.6529
C23_16 C 0.95977(12) 0.28324(14) 0.80229(13)
C24_16 C 0.71676(14) 0.30229(13) 0.54023(12)
O15_16 O 0.98590(12) 0.30529(12) 0.80103(11)
O16_16 O 0.69471(12) 0.30103(11) 0.51410(12)
C27_16 C 0.87203(13) 0.29004(13) 0.72265(13)
C28_16 C 0.70996(13) 0.22265(13) 0.62797(13)
H15_16 H 0.8535 0.2909 0.7046
H16_16 H 0.7091 0.2046 0.6465
C33_16 C 0.90059(14) 0.31651(13) 0.72242(13)
C34_16 C 0.68349(13) 0.22242(13) 0.59941(14)
C37_16 C 0.89982(14) 0.26228(13) 0.77464(14)
C38_16 C 0.73772(13) 0.27464(14) 0.60018(14)
H21_16 H 0.8998 0.2439 0.7929
H22_16 H 0.7561 0.2929 0.6002
C45_15 C 0.81480(13) 0.22584(14) 0.73237(15)
C46_15 C 0.77416(14) 0.23237(15) 0.68520(13)
C49_16 C 0.92923(13) 0.28772(13) 0.77464(13)
C50_16 C 0.71228(13) 0.27464(13) 0.57077(13)
O28_16 O 0.91672(12) 0.37518(12) 0.69804(12)
O29_16 O 0.62482(12) 0.19804(12) 0.58328(12)
C53_16 C 0.90010(17) 0.34714(17) 0.69210(17)
C54_16 C 0.65286(17) 0.19210(17) 0.59990(17)
C30_16 C 0.40614(12) 0.96092(14) 0.04169(13)
H18_16 H 0.4272 0.9732 0.0504
C32_16 C 0.40220(12) 0.95670(12) 0.00403(14)
C40_16 C 0.38153(14) 0.94839(14) 0.06678(12)
C42_16 C 0.35076(14) 0.92779(14) 0.05289(16)
H24_16 H 0.3351 0.9159 0.0697
C44_16 C 0.34355(13) 0.92496(13) 0.01646(13)
C48_16 C 0.31106(13) 0.90575(14) 0.00206(15)
O20_16 O 0.3990(2) 0.9870(2) 0.11665(12)
C52_16 C 0.38771(17) 0.9522(2) 0.10837(17)
C6_16 C 0.53908(14) 0.95831(13) 0.90614(12)
H5_16 H 0.5268 0.9496 0.9272
C7_16 C 0.54330(12) 0.99597(14) 0.90220(12)
C11_16 C 0.55161(14) 0.93322(12) 0.88153(14)
C12_16 C 0.57221(14) 0.94711(16) 0.85076(14)
H8_16 H 0.5841 0.9303 0.8351
C13_16 C 0.57504(13) 0.98354(13) 0.84355(13)
C15_16 C 0.59425(14) 0.99794(15) 0.81106(13)
O5_16 O 0.5130(2) 0.88335(12) 0.8990(2)
C17_16 C 0.5478(2) 0.89163(17) 0.88771(17)
N6_16 N 0.42797(11) 0.96726(12) 0.97819(11)
H10_16 H 0.4271 0.9550 0.9576
N10_16 N 0.48095(10) 0.99306(10) 0.95239(10)
C26_16 C 0.45443(13) 0.99365(12) 0.97961(12)
O18_16 O 0.30063(11) 0.90939(12) 0.96931(11)
C36_16 C 0.36989(14) 0.93943(12) 0.99195(13)
H20_16 H 0.3656 0.9374 0.9665
N2_16 N 0.95355(10) 0.99595(12) 0.94548(11)
C14_16 C 0.93520(13) 0.98237(15) 0.97584(14)
N7_16 N 0.94548(11) 0.95355(10) 0.99595(12)
N8_16 N 0.99595(12) 0.94548(11) 0.95355(10)
C45_16 C 0.97584(14) 0.93520(13) 0.98237(15)
C46_16 C 0.98237(15) 0.97584(14) 0.93520(13)
loop_
_geom_bond_atom_site_label_1
_geom_bond_atom_site_label_2
_geom_bond_site_symmetry_1
_geom_bond_site_symmetry_2
Zn6 O22 1_555 1_555
C24 O16 1_555 1_555
O22 C24 1_555 1_555
C24 C50 1_555 1_555
C38 C50 1_555 1_555
Zn5 O21 1_555 1_555
C23 O15 1_555 1_555
O21 C23 1_555 1_555
C23 C49 1_555 1_555
C37 C49 1_555 1_555
Zn11 O24 1_555 1_555
C21 H11 1_555 1_555
N12 H14 1_555 1_555
C27 C19 1_555 1_555
H15 C27 1_555 1_555
C33 C21 1_555 1_555
O24 C53 1_555 1_555
O28 C53 1_555 1_555
C53 C33 1_555 1_555
C27 C33 1_555 1_555
Zn1 O2 1_555 1_555
Zn2 O1 1_555 1_555
O1 C17 1_555 1_555
O2 C15 1_555 1_555
N1 H1 1_555 1_555
N3 C4 1_555 1_555
C3 O3 1_555 1_555
C4 N1 1_555 1_555
C6 H5 1_555 1_555
O4 C15 1_555 1_555
C7 N1 1_555 1_555
C9 C7 1_555 1_555
H6 C9 1_555 1_555
C11 C6 1_555 1_555
C12 C11 1_555 1_555
H8 C12 1_555 1_555
C13 C9 1_555 1_555
C15 C13 1_555 1_555
O5 C17 1_555 1_555
O6 Zn1 1_555 1_555
C17 C11 1_555 1_555
Zn3_2 O12 1_555 1_555
Zn4 O13 1_555 1_555
Zn7 O9 1_555 1_555
Zn8 O10 1_555 1_555
O9 C51 1_555 1_555
O10 C52 1_555 1_555
O11 Zn2 1_555 1_555
O12 C47 1_555 1_555
O13 C48 1_555 1_555
N5 H9 1_555 1_555
N6 H10 1_555 1_555
N9 C25 1_555 1_555
N10 C4 1_555 1_555
C25 N3 1_555 1_555
C26 N6 1_555 1_555
C29 H17 1_555 1_555
C30 H18 1_555 1_555
O17 C47 1_555 1_555
O18 C48 1_555 1_555
C31 N5 1_555 1_555
C32 N6 1_555 1_555
C35 C31 1_555 1_555
C36 C32 1_555 1_555
H19 C35 1_555 1_555
H20 C36 1_555 1_555
C39 C29 1_555 1_555
C40 C30 1_555 1_555
C41 C39 1_555 1_555
C42 C40 1_555 1_555
H23 C41 1_555 1_555
H24 C42 1_555 1_555
C43 C35 1_555 1_555
C44 C36 1_555 1_555
C47 C43 1_555 1_555
C48 C44 1_555 1_555
O19 C51 1_555 1_555
O20 C52 1_555 1_555
C51 C39 1_555 1_555
C52 C40 1_555 1_555
O26 Zn2 1_555 1_555
O27 Zn2 1_555 1_555
C3 C16 1_555 1_555
C3 O6 1_555 1_555
C6 C7 1_555 1_555
C10 C16 1_555 1_555
C12 C13 1_555 1_555
N5 C25 1_555 1_555
N9 C26 1_555 1_555
N10 C26 1_555 1_555
C29 C31 1_555 1_555
C30 C32 1_555 1_555
C41 C43 1_555 1_555
C42 C44 1_555 1_555
N4 H3 1_555 1_555
Zn10 O25 1_555 1_555
O14 Zn1_2 1_555 1_555
C22 H12 1_555 1_555
C28 C20 1_555 1_555
H16 C28 1_555 1_555
C34 C22 1_555 1_555
O23 Zn1_2 1_555 1_555
O25 C54 1_555 1_555
O29 C54 1_555 1_555
C54 C34 1_555 1_555
C28 C34 1_555 1_555
C2 H2 1_555 1_555
C5 C1 1_555 1_555
H4 C5 1_555 1_555
C8 C2 1_555 1_555
O7 C18 1_555 1_555
O8 C18 1_555 1_555
C18 C8 1_555 1_555
Zn9 O7 1_555 1_555
N11 H13 1_555 1_555
C5 C8 1_555 1_555
N2 C14 1_555 1_555
C2_2 H2_2 1_555 1_555
C5_2 C1_2 1_555 1_555
H4_2 C5_2 1_555 1_555
C8_2 C2_2 1_555 1_555
O7_2 C18_2 1_555 1_555
O8_2 C18_2 1_555 1_555
C18_2 C8_2 1_555 1_555
Zn5_3 O21_2 1_555 1_555
Zn9_2 O7_2 1_555 1_555
Zn11_2 O24_2 1_555 1_555
C19_2 N11_2 1_555 1_555
N7 C14 1_555 1_555
N8 C45 1_555 1_555
C21_2 H11_2 1_555 1_555
N11_2 H13_2 1_555 1_555
N12_2 H14_2 1_555 1_555
C23_2 O15_2 1_555 1_555
C27_2 C19_2 1_555 1_555
H15_2 C27_2 1_555 1_555
C33_2 C21_2 1_555 1_555
C37_2 C19_2 1_555 1_555
H21_2 C37_2 1_555 1_555
C45 N7 1_555 1_555
C46 N2 1_555 1_555
C49_2 C21_2 1_555 1_555
O21_2 C23_2 1_555 1_555
O24_2 C53_2 1_555 1_555
O28_2 C53_2 1_555 1_555
C53_2 C33_2 1_555 1_555
C5_2 C8_2 1_555 1_555
N8 C46 1_555 1_555
N11_2 C45 1_555 1_555
N12_2 C46 1_555 1_555
C23_2 C49_2 1_555 1_555
C27_2 C33_2 1_555 1_555
C37_2 C49_2 1_555 1_555
Zn1_3 O2_2 1_555 1_555
Zn2_2 O1_2 1_555 1_555
O1_2 C17_2 1_555 1_555
O2_2 C15_2 1_555 1_555
N1_2 H1_2 1_555 1_555
N3_2 C4_2 1_555 1_555
N4_2 H3_2 1_555 1_555
C3_2 O3_2 1_555 1_555
C4_2 N1_2 1_555 1_555
C6_2 H5_2 1_555 1_555
O4_2 C15_2 1_555 1_555
C7_2 N1_2 1_555 1_555
C9_2 C7_2 1_555 1_555
H6_2 C9_2 1_555 1_555
H7_2 C10_2 1_555 1_555
C11_2 C6_2 1_555 1_555
C12_2 C11_2 1_555 1_555
H8_2 C12_2 1_555 1_555
C13_2 C9_2 1_555 1_555
C15_2 C13_2 1_555 1_555
O5_2 C17_2 1_555 1_555
O6_2 Zn1_3 1_555 1_555
C17_2 C11_2 1_555 1_555
Zn3_3 O12_2 1_555 1_555
Zn4_2 O13_2 1_555 1_555
Zn6_4 O22_2 1_555 1_555
Zn7_2 O9_2 1_555 1_555
Zn8_2 O10_2 1_555 1_555
Zn10_2 O25_2 1_555 1_555
O9_2 C51_2 1_555 1_555
O10_2 C52_2 1_555 1_555
O11_2 Zn2_2 1_555 1_555
O12_2 C47_2 1_555 1_555
O13_2 C48_2 1_555 1_555
O14_2 Zn1_3 1_555 1_555
N5_2 H9_2 1_555 1_555
N6_2 H10_2 1_555 1_555
N9_2 C25_2 1_555 1_555
N10_2 C4_2 1_555 1_555
C22_2 H12_2 1_555 1_555
C24_2 O16_2 1_555 1_555
C25_2 N3_2 1_555 1_555
C26_2 N6_2 1_555 1_555
C28_2 C20_2 1_555 1_555
H16_2 C28_2 1_555 1_555
C29_2 H17_2 1_555 1_555
C30_2 H18_2 1_555 1_555
O17_2 C47_2 1_555 1_555
O18_2 C48_2 1_555 1_555
C31_2 N5_2 1_555 1_555
C32_2 N6_2 1_555 1_555
C34_2 C22_2 1_555 1_555
C35_2 C31_2 1_555 1_555
C36_2 C32_2 1_555 1_555
H19_2 C35_2 1_555 1_555
H20_2 C36_2 1_555 1_555
C38_2 C20_2 1_555 1_555
C39_2 C29_2 1_555 1_555
C40_2 C30_2 1_555 1_555
C41_2 C39_2 1_555 1_555
C42_2 C40_2 1_555 1_555
H23_2 C41_2 1_555 1_555
H24_2 C42_2 1_555 1_555
C43_2 C35_2 1_555 1_555
C44_2 C36_2 1_555 1_555
C47_2 C43_2 1_555 1_555
C48_2 C44_2 1_555 1_555
O19_2 C51_2 1_555 1_555
O20_2 C52_2 1_555 1_555
C50_2 C22_2 1_555 1_555
O22_2 C24_2 1_555 1_555
O23_2 Zn1_3 1_555 1_555
C51_2 C39_2 1_555 1_555
C52_2 C40_2 1_555 1_555
O25_2 C54_2 1_555 1_555
O26_2 Zn2_2 1_555 1_555
O27_2 Zn2_2 1_555 1_555
O29_2 C54_2 1_555 1_555
C54_2 C34_2 1_555 1_555
C3_2 C16_2 1_555 1_555
C3_2 O6_2 1_555 1_555
C6_2 C7_2 1_555 1_555
C10_2 C16_2 1_555 1_555
C12_2 C13_2 1_555 1_555
N5_2 C25_2 1_555 1_555
N9_2 C26_2 1_555 1_555
N10_2 C26_2 1_555 1_555
C24_2 C50_2 1_555 1_555
C28_2 C34_2 1_555 1_555
C29_2 C31_2 1_555 1_555
C30_2 C32_2 1_555 1_555
C38_2 C50_2 1_555 1_555
C41_2 C43_2 1_555 1_555
C42_2 C44_2 1_555 1_555
Zn1_4 O2_3 1_555 1_555
Zn2_3 O1_3 1_555 1_555
C1_3 N4_3 1_555 1_555
O1_3 C17_3 1_555 1_555
O2_3 C15_3 1_555 1_555
N1_3 H1_3 1_555 1_555
N2_2 C14_2 1_555 1_555
N3_3 C4_3 1_555 1_555
C2_3 H2_3 1_555 1_555
N4_3 H3_3 1_555 1_555
C3_3 O3_3 1_555 1_555
C4_3 N1_3 1_555 1_555
C5_3 C1_3 1_555 1_555
H4_3 C5_3 1_555 1_555
C6_3 H5_3 1_555 1_555
O4_3 C15_3 1_555 1_555
C7_3 N1_3 1_555 1_555
C8_3 C2_3 1_555 1_555
C9_3 C7_3 1_555 1_555
H6_3 C9_3 1_555 1_555
C10_3 C1_3 1_555 1_555
H7_3 C10_3 1_555 1_555
C11_3 C6_3 1_555 1_555
C12_3 C11_3 1_555 1_555
H8_3 C12_3 1_555 1_555
C13_3 C9_3 1_555 1_555
C14_2 N4_3 1_555 1_555
C15_3 C13_3 1_555 1_555
O5_3 C17_3 1_555 1_555
C16_3 C2_3 1_555 1_555
O6_3 Zn1_4 1_555 1_555
C17_3 C11_3 1_555 1_555
O7_3 C18_3 1_555 1_555
O8_3 C18_3 1_555 1_555
C18_3 C8_3 1_555 1_555
Zn5 O12_3 1_555 1_555
Zn6_4 O13_3 1_555 1_555
Zn7_3 O9_3 1_555 1_555
Zn8_3 O10_3 1_555 1_555
Zn9_3 O7_3 1_555 1_555
Zn10_3 O25_3 1_555 1_555
O9_3 C51_3 1_555 1_555
O10_3 C52_3 1_555 1_555
O11_3 Zn2_3 1_555 1_555
O12_3 C47_3 1_555 1_555
O13_3 C48_3 1_555 1_555
O14_3 Zn1_4 1_555 1_555
N5_3 H9_3 1_555 1_555
N6_3 H10_3 1_555 1_555
N7_2 C14_2 1_555 1_555
N8_2 C45_2 1_555 1_555
N9_3 C25_3 1_555 1_555
N10_3 C4_3 1_555 1_555
C22_3 H12_3 1_555 1_555
N11_3 H13_3 1_555 1_555
C25_3 N3_3 1_555 1_555
C26_3 N6_3 1_555 1_555
C28_3 C20_3 1_555 1_555
H16_3 C28_3 1_555 1_555
C29_3 H17_3 1_555 1_555
C30_3 H18_3 1_555 1_555
O17_3 C47_3 1_555 1_555
O18_3 C48_3 1_555 1_555
C31_3 N5_3 1_555 1_555
C32_3 N6_3 1_555 1_555
C34_3 C22_3 1_555 1_555
C35_3 C31_3 1_555 1_555
C36_3 C32_3 1_555 1_555
H19_3 C35_3 1_555 1_555
H20_3 C36_3 1_555 1_555
C39_3 C29_3 1_555 1_555
C40_3 C30_3 1_555 1_555
C41_3 C39_3 1_555 1_555
C42_3 C40_3 1_555 1_555
H23_3 C41_3 1_555 1_555
H24_3 C42_3 1_555 1_555
C43_3 C35_3 1_555 1_555
C44_3 C36_3 1_555 1_555
C45_2 N7_2 1_555 1_555
C46_2 N2_2 1_555 1_555
C47_3 C43_3 1_555 1_555
C48_3 C44_3 1_555 1_555
O19_3 C51_3 1_555 1_555
O20_3 C52_3 1_555 1_555
O23_3 Zn1_4 1_555 1_555
C51_3 C39_3 1_555 1_555
C52_3 C40_3 1_555 1_555
O25_3 C54_3 1_555 1_555
O26_3 Zn2_3 1_555 1_555
O27_3 Zn2_3 1_555 1_555
O29_3 C54_3 1_555 1_555
C54_3 C34_3 1_555 1_555
C3_3 C16_3 1_555 1_555
C3_3 O6_3 1_555 1_555
C5_3 C8_3 1_555 1_555
C6_3 C7_3 1_555 1_555
C10_3 C16_3 1_555 1_555
C12_3 C13_3 1_555 1_555
N5_3 C25_3 1_555 1_555
N8_2 C46_2 1_555 1_555
N9_3 C26_3 1_555 1_555
N10_3 C26_3 1_555 1_555
N11_3 C45_2 1_555 1_555
C28_3 C34_3 1_555 1_555
C29_3 C31_3 1_555 1_555
C30_3 C32_3 1_555 1_555
C41_3 C43_3 1_555 1_555
C42_3 C44_3 1_555 1_555
Zn3_2 O21_3 1_555 1_555
Zn4_2 O22_3 1_555 1_555
Zn11_3 O24_3 1_555 1_555
C21_3 H11_3 1_555 1_555
N12_3 H14_3 1_555 1_555
C23_3 O15_3 1_555 1_555
C24_3 O16_3 1_555 1_555
C27_3 C19_3 1_555 1_555
H15_3 C27_3 1_555 1_555
C33_3 C21_3 1_555 1_555
C37_3 C19_3 1_555 1_555
H22_3 C38_3 1_555 1_555
C49_3 C21_3 1_555 1_555
O21_3 C23_3 1_555 1_555
O22_3 C24_3 1_555 1_555
O24_3 C53_3 1_555 1_555
O28_3 C53_3 1_555 1_555
C53_3 C33_3 1_555 1_555
C23_3 C49_3 1_555 1_555
C24_3 C50_3 1_555 1_555
C27_3 C33_3 1_555 1_555
C37_3 C49_3 1_555 1_555
C38_3 C50_3 1_555 1_555
N2_3 C14_3 1_555 1_555
N4_4 H3_4 1_555 1_555
C14_3 N4_4 1_555 1_555
Zn4 O22_4 1_555 1_555
Zn10_4 O25_4 1_555 1_555
Zn11_4 O24_4 1_555 1_555
C20_4 N12_4 1_555 1_555
O14_4 Zn1_5 1_555 1_555
N7_3 C14_3 1_555 1_555
N8_3 C45_3 1_555 1_555
C21_4 H11_4 1_555 1_555
C22_4 H12_4 1_555 1_555
N12_4 H14_4 1_555 1_555
C24_4 O16_4 1_555 1_555
C27_4 C19_4 1_555 1_555
C28_4 C20_4 1_555 1_555
H15_4 C27_4 1_555 1_555
H16_4 C28_4 1_555 1_555
C33_4 C21_4 1_555 1_555
C34_4 C22_4 1_555 1_555
C38_4 C20_4 1_555 1_555
H22_4 C38_4 1_555 1_555
C45_3 N7_3 1_555 1_555
C46_3 N2_3 1_555 1_555
C50_4 C22_4 1_555 1_555
O22_4 C24_4 1_555 1_555
O23_4 Zn1_5 1_555 1_555
O24_4 C53_4 1_555 1_555
O25_4 C54_4 1_555 1_555
O28_4 C53_4 1_555 1_555
O29_4 C54_4 1_555 1_555
C53_4 C33_4 1_555 1_555
C54_4 C34_4 1_555 1_555
N8_3 C46_3 1_555 1_555
N12_4 C46_3 1_555 1_555
C24_4 C50_4 1_555 1_555
C27_4 C33_4 1_555 1_555
C28_4 C34_4 1_555 1_555
C38_4 C50_4 1_555 1_555
Zn1_6 O2_4 1_555 1_555
Zn2_4 O1_4 1_555 1_555
O1_4 C17_4 1_555 1_555
O2_4 C15_4 1_555 1_555
N1_4 H1_4 1_555 1_555
N3_4 C4_4 1_555 1_555
C2_4 H2_4 1_555 1_555
C3_4 O3_4 1_555 1_555
C4_4 N1_4 1_555 1_555
C5_4 C1_4 1_555 1_555
H4_4 C5_4 1_555 1_555
C6_4 H5_4 1_555 1_555
O4_4 C15_4 1_555 1_555
C7_4 N1_4 1_555 1_555
C8_4 C2_4 1_555 1_555
C9_4 C7_4 1_555 1_555
H6_4 C9_4 1_555 1_555
C10_4 C1_4 1_555 1_555
C11_4 C6_4 1_555 1_555
C12_4 C11_4 1_555 1_555
H8_4 C12_4 1_555 1_555
C13_4 C9_4 1_555 1_555
C15_4 C13_4 1_555 1_555
O5_4 C17_4 1_555 1_555
C16_4 C2_4 1_555 1_555
O6_4 Zn1_6 1_555 1_555
C17_4 C11_4 1_555 1_555
O7_4 C18_4 1_555 1_555
O8_4 C18_4 1_555 1_555
C18_4 C8_4 1_555 1_555
Zn5_3 O12_4 1_555 1_555
Zn6 O13_4 1_555 1_555
Zn3_3 O21_4 1_555 1_555
Zn7_4 O9_4 1_555 1_555
Zn8_4 O10_4 1_555 1_555
Zn9_4 O7_4 1_555 1_555
O9_4 C51_4 1_555 1_555
O10_4 C52_4 1_555 1_555
O11_4 Zn2_4 1_555 1_555
O12_4 C47_4 1_555 1_555
O13_4 C48_4 1_555 1_555
N5_4 H9_4 1_555 1_555
N6_4 H10_4 1_555 1_555
N9_4 C25_4 1_555 1_555
N10_4 C4_4 1_555 1_555
N11_4 H13_4 1_555 1_555
C23_4 O15_4 1_555 1_555
C25_4 N3_4 1_555 1_555
C26_4 N6_4 1_555 1_555
C29_4 H17_4 1_555 1_555
C30_4 H18_4 1_555 1_555
O17_4 C47_4 1_555 1_555
O18_4 C48_4 1_555 1_555
C31_4 N5_4 1_555 1_555
C32_4 N6_4 1_555 1_555
C35_4 C31_4 1_555 1_555
C36_4 C32_4 1_555 1_555
H19_4 C35_4 1_555 1_555
H20_4 C36_4 1_555 1_555
H21_4 C37_4 1_555 1_555
C39_4 C29_4 1_555 1_555
C40_4 C30_4 1_555 1_555
C41_4 C39_4 1_555 1_555
C42_4 C40_4 1_555 1_555
H23_4 C41_4 1_555 1_555
H24_4 C42_4 1_555 1_555
C43_4 C35_4 1_555 1_555
C44_4 C36_4 1_555 1_555
C47_4 C43_4 1_555 1_555
C48_4 C44_4 1_555 1_555
O19_4 C51_4 1_555 1_555
O20_4 C52_4 1_555 1_555
O21_4 C23_4 1_555 1_555
C51_4 C39_4 1_555 1_555
C52_4 C40_4 1_555 1_555
O26_4 Zn2_4 1_555 1_555
O27_4 Zn2_4 1_555 1_555
C3_4 C16_4 1_555 1_555
C3_4 O6_4 1_555 1_555
C5_4 C8_4 1_555 1_555
C6_4 C7_4 1_555 1_555
C10_4 C16_4 1_555 1_555
C12_4 C13_4 1_555 1_555
N5_4 C25_4 1_555 1_555
N9_4 C26_4 1_555 1_555
N10_4 C26_4 1_555 1_555
C23_4 C49_4 1_555 1_555
C29_4 C31_4 1_555 1_555
C30_4 C32_4 1_555 1_555
C37_4 C49_4 1_555 1_555
C41_4 C43_4 1_555 1_555
C42_4 C44_4 1_555 1_555
O11_5 Zn7_3 1_555 1_555
O26_5 Zn7_3 1_555 1_555
O27_5 Zn7_3 1_555 1_555
O14_5 Zn5_2 1_555 1_555
O23_5 Zn5_2 1_555 1_555
O11_6 Zn7_2 1_555 1_555
O14_6 Zn3_3 1_555 1_555
O23_6 Zn3_3 1_555 1_555
O26_6 Zn7_2 1_555 1_555
O27_6 Zn7_2 1_555 1_555
O11_7 Zn7_4 1_555 1_555
O14_7 Zn5_3 1_555 1_555
O23_7 Zn5_3 1_555 1_555
O26_7 Zn7_4 1_555 1_555
O27_7 Zn7_4 1_555 1_555
O14_8 Zn3 1_555 1_555
O23_8 Zn3 1_555 1_555
O11_8 Zn7 1_555 1_555
O26_8 Zn7 1_555 1_555
O27_8 Zn7 1_555 1_555
O11_9 Zn8_4 1_555 1_555
O26_9 Zn8_4 1_555 1_555
O27_9 Zn8_4 1_555 1_555
O14_9 Zn6_2 1_555 1_555
O23_9 Zn6_2 1_555 1_555
O11_10 Zn8_2 1_555 1_555
O14_10 Zn4_2 1_555 1_555
O23_10 Zn4_2 1_555 1_555
O26_10 Zn8_2 1_555 1_555
O27_10 Zn8_2 1_555 1_555
O11_11 Zn8 1_555 1_555
O14_11 Zn4 1_555 1_555
O23_11 Zn4 1_555 1_555
O26_11 Zn8 1_555 1_555
O27_11 Zn8 1_555 1_555
O14_12 Zn6_3 1_555 1_555
O23_12 Zn6_3 1_555 1_555
O11_12 Zn8_3 1_555 1_555
O26_12 Zn8_3 1_555 1_555
O27_12 Zn8_3 1_555 1_555
N5_5 H9_5 1_555 1_555
N9_5 C25_5 1_555 1_555
H19_5 C35_5 1_555 1_555
N5_5 C25_5 1_555 1_555
N6_5 H10_5 1_555 1_555
C26_5 N6_5 1_555 1_555
H20_5 C36_5 1_555 1_555
N10_5 C26_5 1_555 1_555
Zn4_4 O13_5 1_555 1_555
Zn11 O10_5 1_555 1_555
O10_5 C52_5 1_555 1_555
O13_5 C48_5 1_555 1_555
C30_5 H18_5 1_555 1_555
C40_5 C30_5 1_555 1_555
C42_5 C40_5 1_555 1_555
H24_5 C42_5 1_555 1_555
C48_5 C44_5 1_555 1_555
O20_5 C52_5 1_555 1_555
C52_5 C40_5 1_555 1_555
C30_5 C32_5 1_555 1_555
C42_5 C44_5 1_555 1_555
C1_5 N4_5 1_555 1_555
N1_5 H1_5 1_555 1_555
N2_4 C14_4 1_555 1_555
N3_5 C4_5 1_555 1_555
C2_5 H2_5 1_555 1_555
N4_5 H3_5 1_555 1_555
C3_5 O3_5 1_555 1_555
C4_5 N1_5 1_555 1_555
C5_5 C1_5 1_555 1_555
H4_5 C5_5 1_555 1_555
C8_5 C2_5 1_555 1_555
H6_5 C9_5 1_555 1_555
C10_5 C1_5 1_555 1_555
H7_5 C10_5 1_555 1_555
C14_4 N4_5 1_555 1_555
C16_5 C2_5 1_555 1_555
O6_5 Zn1_7 1_555 1_555
O26 C18_5 1_555 1_555
O8_5 C18_5 1_555 1_555
C18_5 C8_5 1_555 1_555
Zn5_4 O21_5 1_555 1_555
Zn6_5 O22_5 1_555 1_555
C19_5 N11_5 1_555 1_555
C20_5 N12_5 1_555 1_555
O14_13 Zn1_7 1_555 1_555
N7_4 C14_4 1_555 1_555
N8_4 C45_4 1_555 1_555
C21_5 H11_5 1_555 1_555
C22_5 H12_5 1_555 1_555
N11_5 H13_5 1_555 1_555
N12_5 H14_5 1_555 1_555
C23_5 O15_5 1_555 1_555
C24_5 O16_5 1_555 1_555
C27_5 C19_5 1_555 1_555
C28_5 C20_5 1_555 1_555
H15_5 C27_5 1_555 1_555
H16_5 C28_5 1_555 1_555
C33_5 C21_5 1_555 1_555
C34_5 C22_5 1_555 1_555
C37_5 C19_5 1_555 1_555
C38_5 C20_5 1_555 1_555
H21_5 C37_5 1_555 1_555
H22_5 C38_5 1_555 1_555
C45_4 N7_4 1_555 1_555
C46_4 N2_4 1_555 1_555
C49_5 C21_5 1_555 1_555
C50_5 C22_5 1_555 1_555
O21_5 C23_5 1_555 1_555
O22_5 C24_5 1_555 1_555
O26_11 C53_5 1_555 1_555
O26_8 C54_5 1_555 1_555
O28_5 C53_5 1_555 1_555
O29_5 C54_5 1_555 1_555
C53_5 C33_5 1_555 1_555
C54_5 C34_5 1_555 1_555
C3_5 C16_5 1_555 1_555
C3_5 O6_5 1_555 1_555
C5_5 C8_5 1_555 1_555
C10_5 C16_5 1_555 1_555
N8_4 C46_4 1_555 1_555
N11_5 C45_4 1_555 1_555
N12_5 C46_4 1_555 1_555
C23_5 C49_5 1_555 1_555
C24_5 C50_5 1_555 1_555
C27_5 C33_5 1_555 1_555
C28_5 C34_5 1_555 1_555
C37_5 C49_5 1_555 1_555
C38_5 C50_5 1_555 1_555
Zn3_5 O12_5 1_555 1_555
Zn10 O9_5 1_555 1_555
O9_5 C51_5 1_555 1_555
O12_5 C47_5 1_555 1_555
C29_5 H17_5 1_555 1_555
C39_5 C29_5 1_555 1_555
C41_5 C39_5 1_555 1_555
H23_5 C41_5 1_555 1_555
C47_5 C43_5 1_555 1_555
O19_5 C51_5 1_555 1_555
C51_5 C39_5 1_555 1_555
C29_5 C31_5 1_555 1_555
C41_5 C43_5 1_555 1_555
Zn1_8 O2_5 1_555 1_555
Zn9 O1_5 1_555 1_555
O1_5 C17_5 1_555 1_555
O2_5 C15_5 1_555 1_555
C6_5 H5_5 1_555 1_555
C11_5 C6_5 1_555 1_555
C12_5 C11_5 1_555 1_555
H8_5 C12_5 1_555 1_555
C15_5 C13_5 1_555 1_555
O5_5 C17_5 1_555 1_555
C17_5 C11_5 1_555 1_555
O11_13 Zn9 1_555 1_555
O23_13 Zn1_8 1_555 1_555
O27_13 Zn9 1_555 1_555
C6_5 C7_5 1_555 1_555
C12_5 C13_5 1_555 1_555
Zn1_9 O2_6 1_555 1_555
Zn9_2 O1_6 1_555 1_555
O1_6 C17_6 1_555 1_555
O2_6 C15_6 1_555 1_555
C6_6 H5_6 1_555 1_555
C11_6 C6_6 1_555 1_555
C12_6 C11_6 1_555 1_555
H8_6 C12_6 1_555 1_555
C15_6 C13_6 1_555 1_555
O5_6 C17_6 1_555 1_555
C17_6 C11_6 1_555 1_555
Zn4_5 O13_6 1_555 1_555
Zn11_2 O10_6 1_555 1_555
O10_6 C52_6 1_555 1_555
O11_14 Zn9_2 1_555 1_555
O13_6 C48_6 1_555 1_555
N6_6 H10_6 1_555 1_555
C26_6 N6_6 1_555 1_555
C30_6 H18_6 1_555 1_555
O18_6 C48_6 1_555 1_555
C32_6 N6_6 1_555 1_555
C36_6 C32_6 1_555 1_555
H20_6 C36_6 1_555 1_555
C40_6 C30_6 1_555 1_555
C42_6 C40_6 1_555 1_555
H24_6 C42_6 1_555 1_555
C44_6 C36_6 1_555 1_555
C48_6 C44_6 1_555 1_555
O20_6 C52_6 1_555 1_555
O23_14 Zn1_9 1_555 1_555
C52_6 C40_6 1_555 1_555
O27_14 Zn9_2 1_555 1_555
C6_6 C7_6 1_555 1_555
C12_6 C13_6 1_555 1_555
N10_6 C26_6 1_555 1_555
C30_6 C32_6 1_555 1_555
C42_6 C44_6 1_555 1_555
C1_6 N4_6 1_555 1_555
N1_6 H1_6 1_555 1_555
N2_5 C14_5 1_555 1_555
N3_6 C4_6 1_555 1_555
C2_6 H2_6 1_555 1_555
N4_6 H3_6 1_555 1_555
C3_6 O3_6 1_555 1_555
C4_6 N1_6 1_555 1_555
C5_6 C1_6 1_555 1_555
H4_6 C5_6 1_555 1_555
C8_6 C2_6 1_555 1_555
H6_6 C9_6 1_555 1_555
C10_6 C1_6 1_555 1_555
H7_6 C10_6 1_555 1_555
C14_5 N4_6 1_555 1_555
C16_6 C2_6 1_555 1_555
O6_6 Zn1_10 1_555 1_555
O26_2 C18_6 1_555 1_555
O8_6 C18_6 1_555 1_555
C18_6 C8_6 1_555 1_555
Zn3_6 O12_6 1_555 1_555
Zn5_6 O21_6 1_555 1_555
Zn6_7 O22_6 1_555 1_555
Zn10_2 O9_6 1_555 1_555
C19_6 N11_6 1_555 1_555
C20_6 N12_6 1_555 1_555
O9_6 C51_6 1_555 1_555
O12_6 C47_6 1_555 1_555
O14_14 Zn1_10 1_555 1_555
N5_6 H9_6 1_555 1_555
N7_5 C14_5 1_555 1_555
N8_5 C45_5 1_555 1_555
N9_6 C25_6 1_555 1_555
C21_6 H11_6 1_555 1_555
C22_6 H12_6 1_555 1_555
N11_6 H13_6 1_555 1_555
N12_6 H14_6 1_555 1_555
C23_6 O15_6 1_555 1_555
C24_6 O16_6 1_555 1_555
C25_6 N3_6 1_555 1_555
C27_6 C19_6 1_555 1_555
C28_6 C20_6 1_555 1_555
H15_6 C27_6 1_555 1_555
H16_6 C28_6 1_555 1_555
C29_6 H17_6 1_555 1_555
O17_6 C47_6 1_555 1_555
C31_6 N5_6 1_555 1_555
C33_6 C21_6 1_555 1_555
C34_6 C22_6 1_555 1_555
C35_6 C31_6 1_555 1_555
H19_6 C35_6 1_555 1_555
C37_6 C19_6 1_555 1_555
C38_6 C20_6 1_555 1_555
H21_6 C37_6 1_555 1_555
H22_6 C38_6 1_555 1_555
C39_6 C29_6 1_555 1_555
C41_6 C39_6 1_555 1_555
H23_6 C41_6 1_555 1_555
C43_6 C35_6 1_555 1_555
C45_5 N7_5 1_555 1_555
C46_5 N2_5 1_555 1_555
C47_6 C43_6 1_555 1_555
O19_6 C51_6 1_555 1_555
C49_6 C21_6 1_555 1_555
C50_6 C22_6 1_555 1_555
O21_6 C23_6 1_555 1_555
O22_6 C24_6 1_555 1_555
C51_6 C39_6 1_555 1_555
O26_10 C53_6 1_555 1_555
O26_6 C54_6 1_555 1_555
O28_6 C53_6 1_555 1_555
O29_6 C54_6 1_555 1_555
C53_6 C33_6 1_555 1_555
C54_6 C34_6 1_555 1_555
C3_6 C16_6 1_555 1_555
C3_6 O6_6 1_555 1_555
C5_6 C8_6 1_555 1_555
C10_6 C16_6 1_555 1_555
N5_6 C25_6 1_555 1_555
N8_5 C46_5 1_555 1_555
N11_6 C45_5 1_555 1_555
N12_6 C46_5 1_555 1_555
C23_6 C49_6 1_555 1_555
C24_6 C50_6 1_555 1_555
C27_6 C33_6 1_555 1_555
C28_6 C34_6 1_555 1_555
C29_6 C31_6 1_555 1_555
C37_6 C49_6 1_555 1_555
C38_6 C50_6 1_555 1_555
C41_6 C43_6 1_555 1_555
Zn5_4 O12_7 1_555 1_555
Zn6_6 O13_7 1_555 1_555
Zn10_4 O9_7 1_555 1_555
Zn11_4 O10_7 1_555 1_555
O9_7 C51_7 1_555 1_555
O10_7 C52_7 1_555 1_555
O12_7 C47_7 1_555 1_555
O13_7 C48_7 1_555 1_555
N5_7 H9_7 1_555 1_555
N9_7 C25_7 1_555 1_555
C29_7 H17_7 1_555 1_555
C30_7 H18_7 1_555 1_555
O17_7 C47_7 1_555 1_555
C31_7 N5_7 1_555 1_555
C35_7 C31_7 1_555 1_555
H19_7 C35_7 1_555 1_555
C39_7 C29_7 1_555 1_555
C40_7 C30_7 1_555 1_555
C41_7 C39_7 1_555 1_555
C42_7 C40_7 1_555 1_555
H23_7 C41_7 1_555 1_555
H24_7 C42_7 1_555 1_555
C43_7 C35_7 1_555 1_555
C47_7 C43_7 1_555 1_555
C48_7 C44_7 1_555 1_555
O19_7 C51_7 1_555 1_555
O20_7 C52_7 1_555 1_555
C51_7 C39_7 1_555 1_555
C52_7 C40_7 1_555 1_555
N5_7 C25_7 1_555 1_555
C29_7 C31_7 1_555 1_555
C30_7 C32_7 1_555 1_555
C41_7 C43_7 1_555 1_555
C42_7 C44_7 1_555 1_555
Zn1_11 O2_7 1_555 1_555
Zn9_4 O1_7 1_555 1_555
C1_7 N4_7 1_555 1_555
O1_7 C17_7 1_555 1_555
O2_7 C15_7 1_555 1_555
N1_7 H1_7 1_555 1_555
N2_6 C14_6 1_555 1_555
N3_7 C4_7 1_555 1_555
C2_7 H2_7 1_555 1_555
N4_7 H3_7 1_555 1_555
C3_7 O3_7 1_555 1_555
C4_7 N1_7 1_555 1_555
C5_7 C1_7 1_555 1_555
H4_7 C5_7 1_555 1_555
C6_7 H5_7 1_555 1_555
O4_7 C15_7 1_555 1_555
C7_7 N1_7 1_555 1_555
C8_7 C2_7 1_555 1_555
C9_7 C7_7 1_555 1_555
H6_7 C9_7 1_555 1_555
C10_7 C1_7 1_555 1_555
H7_7 C10_7 1_555 1_555
C11_7 C6_7 1_555 1_555
C12_7 C11_7 1_555 1_555
H8_7 C12_7 1_555 1_555
C13_7 C9_7 1_555 1_555
C14_6 N4_7 1_555 1_555
C15_7 C13_7 1_555 1_555
O5_7 C17_7 1_555 1_555
C16_7 C2_7 1_555 1_555
O6_7 Zn1_11 1_555 1_555
C17_7 C11_7 1_555 1_555
O26_4 C18_7 1_555 1_555
O8_7 C18_7 1_555 1_555
C18_7 C8_7 1_555 1_555
Zn3_4 O21_7 1_555 1_555
Zn4_5 O22_7 1_555 1_555
C19_7 N11_7 1_555 1_555
C20_7 N12_7 1_555 1_555
O11_15 Zn9_4 1_555 1_555
O14_15 Zn1_11 1_555 1_555
N6_7 H10_7 1_555 1_555
N7_6 C14_6 1_555 1_555
N8_6 C45_6 1_555 1_555
N10_7 C4_7 1_555 1_555
C21_7 H11_7 1_555 1_555
C22_7 H12_7 1_555 1_555
N11_7 H13_7 1_555 1_555
N12_7 H14_7 1_555 1_555
C23_7 O15_7 1_555 1_555
C24_7 O16_7 1_555 1_555
C26_7 N6_7 1_555 1_555
C27_7 C19_7 1_555 1_555
C28_7 C20_7 1_555 1_555
H15_7 C27_7 1_555 1_555
H16_7 C28_7 1_555 1_555
C33_7 C21_7 1_555 1_555
C34_7 C22_7 1_555 1_555
H20_7 C36_7 1_555 1_555
C37_7 C19_7 1_555 1_555
C38_7 C20_7 1_555 1_555
H21_7 C37_7 1_555 1_555
H22_7 C38_7 1_555 1_555
C45_6 N7_6 1_555 1_555
C46_6 N2_6 1_555 1_555
C49_7 C21_7 1_555 1_555
C50_7 C22_7 1_555 1_555
O21_7 C23_7 1_555 1_555
O22_7 C24_7 1_555 1_555
O23_15 Zn1_11 1_555 1_555
O26_9 C53_7 1_555 1_555
O26_7 C54_7 1_555 1_555
O27_15 Zn9_4 1_555 1_555
O28_7 C53_7 1_555 1_555
O29_7 C54_7 1_555 1_555
C53_7 C33_7 1_555 1_555
C54_7 C34_7 1_555 1_555
C3_7 C16_7 1_555 1_555
C3_7 O6_7 1_555 1_555
C5_7 C8_7 1_555 1_555
C6_7 C7_7 1_555 1_555
C10_7 C16_7 1_555 1_555
C12_7 C13_7 1_555 1_555
N8_6 C46_6 1_555 1_555
N10_7 C26_7 1_555 1_555
N11_7 C45_6 1_555 1_555
N12_7 C46_6 1_555 1_555
C23_7 C49_7 1_555 1_555
C24_7 C50_7 1_555 1_555
C27_7 C33_7 1_555 1_555
C28_7 C34_7 1_555 1_555
C37_7 C49_7 1_555 1_555
C38_7 C50_7 1_555 1_555
Zn1_12 O2_8 1_555 1_555
Zn9_3 O1_8 1_555 1_555
C1_8 N4_8 1_555 1_555
O1_8 C17_8 1_555 1_555
O2_8 C15_8 1_555 1_555
N1_8 H1_8 1_555 1_555
N2_7 C14_7 1_555 1_555
N3_8 C4_8 1_555 1_555
C2_8 H2_8 1_555 1_555
N4_8 H3_8 1_555 1_555
C3_8 O3_8 1_555 1_555
C4_8 N1_8 1_555 1_555
C5_8 C1_8 1_555 1_555
H4_8 C5_8 1_555 1_555
C6_8 H5_8 1_555 1_555
O4_8 C15_8 1_555 1_555
C7_8 N1_8 1_555 1_555
C8_8 C2_8 1_555 1_555
C9_8 C7_8 1_555 1_555
H6_8 C9_8 1_555 1_555
C10_8 C1_8 1_555 1_555
H7_8 C10_8 1_555 1_555
C11_8 C6_8 1_555 1_555
C12_8 C11_8 1_555 1_555
H8_8 C12_8 1_555 1_555
C13_8 C9_8 1_555 1_555
C14_7 N4_8 1_555 1_555
C15_8 C13_8 1_555 1_555
O5_8 C17_8 1_555 1_555
C16_8 C2_8 1_555 1_555
O6_8 Zn1_12 1_555 1_555
C17_8 C11_8 1_555 1_555
O26_3 C18_8 1_555 1_555
O8_8 C18_8 1_555 1_555
C18_8 C8_8 1_555 1_555
Zn5_5 O12_8 1_555 1_555
Zn3_6 O21_8 1_555 1_555
Zn4_3 O22_8 1_555 1_555
Zn10_3 O9_8 1_555 1_555
C19_8 N11_8 1_555 1_555
C20_8 N12_8 1_555 1_555
O9_8 C51_8 1_555 1_555
O11_16 Zn9_3 1_555 1_555
O12_8 C47_8 1_555 1_555
O14_16 Zn1_12 1_555 1_555
N7_7 C14_7 1_555 1_555
N8_7 C45_7 1_555 1_555
C21_8 H11_8 1_555 1_555
C22_8 H12_8 1_555 1_555
N11_8 H13_8 1_555 1_555
N12_8 H14_8 1_555 1_555
C23_8 O15_8 1_555 1_555
C24_8 O16_8 1_555 1_555
C27_8 C19_8 1_555 1_555
C28_8 C20_8 1_555 1_555
H15_8 C27_8 1_555 1_555
H16_8 C28_8 1_555 1_555
C29_8 H17_8 1_555 1_555
C33_8 C21_8 1_555 1_555
C34_8 C22_8 1_555 1_555
C37_8 C19_8 1_555 1_555
C38_8 C20_8 1_555 1_555
H21_8 C37_8 1_555 1_555
H22_8 C38_8 1_555 1_555
C39_8 C29_8 1_555 1_555
C41_8 C39_8 1_555 1_555
H23_8 C41_8 1_555 1_555
C45_7 N7_7 1_555 1_555
C46_7 N2_7 1_555 1_555
C47_8 C43_8 1_555 1_555
O19_8 C51_8 1_555 1_555
C49_8 C21_8 1_555 1_555
C50_8 C22_8 1_555 1_555
O21_8 C23_8 1_555 1_555
O22_8 C24_8 1_555 1_555
O23_16 Zn1_12 1_555 1_555
C51_8 C39_8 1_555 1_555
O26_12 C53_8 1_555 1_555
O26_5 C54_8 1_555 1_555
O27_16 Zn9_3 1_555 1_555
O28_8 C53_8 1_555 1_555
O29_8 C54_8 1_555 1_555
C53_8 C33_8 1_555 1_555
C54_8 C34_8 1_555 1_555
C3_8 C16_8 1_555 1_555
C3_8 O6_8 1_555 1_555
C5_8 C8_8 1_555 1_555
C6_8 C7_8 1_555 1_555
C10_8 C16_8 1_555 1_555
C12_8 C13_8 1_555 1_555
N8_7 C46_7 1_555 1_555
N11_8 C45_7 1_555 1_555
N12_8 C46_7 1_555 1_555
C23_8 C49_8 1_555 1_555
C24_8 C50_8 1_555 1_555
C27_8 C33_8 1_555 1_555
C28_8 C34_8 1_555 1_555
C29_8 C31_8 1_555 1_555
C37_8 C49_8 1_555 1_555
C38_8 C50_8 1_555 1_555
C41_8 C43_8 1_555 1_555
Zn6_5 O13_8 1_555 1_555
Zn11_3 O10_8 1_555 1_555
O10_8 C52_8 1_555 1_555
O13_8 C48_8 1_555 1_555
N5_8 H9_8 1_555 1_555
N6_8 H10_8 1_555 1_555
N9_8 C25_8 1_555 1_555
C26_8 N6_8 1_555 1_555
C30_8 H18_8 1_555 1_555
O18_8 C48_8 1_555 1_555
C32_8 N6_8 1_555 1_555
C36_8 C32_8 1_555 1_555
H19_8 C35_8 1_555 1_555
H20_8 C36_8 1_555 1_555
C40_8 C30_8 1_555 1_555
C42_8 C40_8 1_555 1_555
H24_8 C42_8 1_555 1_555
C44_8 C36_8 1_555 1_555
C48_8 C44_8 1_555 1_555
O20_8 C52_8 1_555 1_555
C52_8 C40_8 1_555 1_555
N5_8 C25_8 1_555 1_555
N9_8 C26_8 1_555 1_555
N10_8 C26_8 1_555 1_555
C30_8 C32_8 1_555 1_555
C42_8 C44_8 1_555 1_555
O11_17 Zn10_4 1_555 1_555
O14_17 Zn5_4 1_555 1_555
O23_17 Zn5_4 1_555 1_555
O27_17 Zn10_4 1_555 1_555
O11_18 Zn10_2 1_555 1_555
O14_18 Zn3_6 1_555 1_555
O23_18 Zn3_6 1_555 1_555
O27_18 Zn10_2 1_555 1_555
O11_19 Zn10_3 1_555 1_555
O23_19 Zn5_5 1_555 1_555
O27_19 Zn10_3 1_555 1_555
O14_19 Zn5_6 1_555 1_555
O14_20 Zn3_4 1_555 1_555
O11_20 Zn10 1_555 1_555
O23_20 Zn3_5 1_555 1_555
O27_20 Zn10 1_555 1_555
O11_21 Zn11_3 1_555 1_555
O14_21 Zn6_5 1_555 1_555
O23_21 Zn6_5 1_555 1_555
O27_21 Zn11_3 1_555 1_555
O11_22 Zn11_2 1_555 1_555
O14_22 Zn4_5 1_555 1_555
O23_22 Zn4_5 1_555 1_555
O27_22 Zn11_2 1_555 1_555
O14_23 Zn4_3 1_555 1_555
O11_23 Zn11 1_555 1_555
O23_23 Zn4_4 1_555 1_555
O27_23 Zn11 1_555 1_555
O11_24 Zn11_4 1_555 1_555
O23_24 Zn6_6 1_555 1_555
O27_24 Zn11_4 1_555 1_555
O14_24 Zn6_7 1_555 1_555
C1_9 N4_9 1_555 1_555
O11_19 C17_9 1_555 1_555
O14_3 C15_9 1_555 1_555
N1_9 H1_9 1_555 1_555
N2_8 C14_8 1_555 1_555
N3_9 C4_9 1_555 1_555
C2_9 H2_9 1_555 1_555
N4_9 H3_9 1_555 1_555
C3_9 O3_9 1_555 1_555
C4_9 N1_9 1_555 1_555
C5_9 C1_9 1_555 1_555
H4_9 C5_9 1_555 1_555
C6_9 H5_9 1_555 1_555
O4_9 C15_9 1_555 1_555
C7_9 N1_9 1_555 1_555
C8_9 C2_9 1_555 1_555
C9_9 C7_9 1_555 1_555
H6_9 C9_9 1_555 1_555
C10_9 C1_9 1_555 1_555
H7_9 C10_9 1_555 1_555
C11_9 C6_9 1_555 1_555
C12_9 C11_9 1_555 1_555
H8_9 C12_9 1_555 1_555
C13_9 C9_9 1_555 1_555
C14_8 N4_9 1_555 1_555
C15_9 C13_9 1_555 1_555
O5_9 C17_9 1_555 1_555
C16_9 C2_9 1_555 1_555
C17_9 C11_9 1_555 1_555
O27_7 C18_9 1_555 1_555
O8_9 C18_9 1_555 1_555
C18_9 C8_9 1_555 1_555
C19_9 N11_9 1_555 1_555
C20_9 N12_9 1_555 1_555
O11_15 C51_9 1_555 1_555
O11_23 C52_9 1_555 1_555
O14_6 C47_9 1_555 1_555
O14_9 C48_9 1_555 1_555
N5_9 H9_9 1_555 1_555
N6_9 H10_9 1_555 1_555
N7_8 C14_8 1_555 1_555
N8_8 C45_8 1_555 1_555
N9_9 C25_9 1_555 1_555
N10_9 C4_9 1_555 1_555
C21_9 H11_9 1_555 1_555
C22_9 H12_9 1_555 1_555
N11_9 H13_9 1_555 1_555
N12_9 H14_9 1_555 1_555
C23_9 O15_9 1_555 1_555
C24_9 O16_9 1_555 1_555
C25_9 N3_9 1_555 1_555
C26_9 N6_9 1_555 1_555
C27_9 C19_9 1_555 1_555
C28_9 C20_9 1_555 1_555
H15_9 C27_9 1_555 1_555
H16_9 C28_9 1_555 1_555
C29_9 H17_9 1_555 1_555
C30_9 H18_9 1_555 1_555
O17_9 C47_9 1_555 1_555
O18_9 C48_9 1_555 1_555
C31_9 N5_9 1_555 1_555
C32_9 N6_9 1_555 1_555
C33_9 C21_9 1_555 1_555
C34_9 C22_9 1_555 1_555
C35_9 C31_9 1_555 1_555
C36_9 C32_9 1_555 1_555
H19_9 C35_9 1_555 1_555
H20_9 C36_9 1_555 1_555
C37_9 C19_9 1_555 1_555
C38_9 C20_9 1_555 1_555
H21_9 C37_9 1_555 1_555
H22_9 C38_9 1_555 1_555
C39_9 C29_9 1_555 1_555
C40_9 C30_9 1_555 1_555
C41_9 C39_9 1_555 1_555
C42_9 C40_9 1_555 1_555
H23_9 C41_9 1_555 1_555
H24_9 C42_9 1_555 1_555
C43_9 C35_9 1_555 1_555
C44_9 C36_9 1_555 1_555
C45_8 N7_8 1_555 1_555
C46_8 N2_8 1_555 1_555
C47_9 C43_9 1_555 1_555
C48_9 C44_9 1_555 1_555
O19_9 C51_9 1_555 1_555
O20_9 C52_9 1_555 1_555
C49_9 C21_9 1_555 1_555
C50_9 C22_9 1_555 1_555
O23_7 C23_9 1_555 1_555
O23_11 C24_9 1_555 1_555
C51_9 C39_9 1_555 1_555
C52_9 C40_9 1_555 1_555
O27_11 C53_9 1_555 1_555
O27_3 C54_9 1_555 1_555
O28_9 C53_9 1_555 1_555
O29_9 C54_9 1_555 1_555
C53_9 C33_9 1_555 1_555
C54_9 C34_9 1_555 1_555
C3_9 C16_9 1_555 1_555
C3_9 O23_3 1_555 1_555
C5_9 C8_9 1_555 1_555
C6_9 C7_9 1_555 1_555
C10_9 C16_9 1_555 1_555
C12_9 C13_9 1_555 1_555
N5_9 C25_9 1_555 1_555
N8_8 C46_8 1_555 1_555
N9_9 C26_9 1_555 1_555
N10_9 C26_9 1_555 1_555
N11_9 C45_8 1_555 1_555
N12_9 C46_8 1_555 1_555
C23_9 C49_9 1_555 1_555
C24_9 C50_9 1_555 1_555
C27_9 C33_9 1_555 1_555
C28_9 C34_9 1_555 1_555
C29_9 C31_9 1_555 1_555
C30_9 C32_9 1_555 1_555
C37_9 C49_9 1_555 1_555
C38_9 C50_9 1_555 1_555
C41_9 C43_9 1_555 1_555
C42_9 C44_9 1_555 1_555
O11_17 C17_10 1_555 1_555
O14_4 C15_10 1_555 1_555
N1_10 H1_10 1_555 1_555
N3_10 C4_10 1_555 1_555
C2_10 H2_10 1_555 1_555
C3_10 O3_10 1_555 1_555
C4_10 N1_10 1_555 1_555
C5_10 C1_10 1_555 1_555
H4_10 C5_10 1_555 1_555
C6_10 H5_10 1_555 1_555
O4_10 C15_10 1_555 1_555
C7_10 N1_10 1_555 1_555
C8_10 C2_10 1_555 1_555
C9_10 C7_10 1_555 1_555
H6_10 C9_10 1_555 1_555
C10_10 C1_10 1_555 1_555
C11_10 C6_10 1_555 1_555
C12_10 C11_10 1_555 1_555
H8_10 C12_10 1_555 1_555
C13_10 C9_10 1_555 1_555
C15_10 C13_10 1_555 1_555
O5_10 C17_10 1_555 1_555
C16_10 C2_10 1_555 1_555
C17_10 C11_10 1_555 1_555
O27_5 C18_10 1_555 1_555
O8_10 C18_10 1_555 1_555
C18_10 C8_10 1_555 1_555
O11_16 C51_10 1_555 1_555
O11_22 C52_10 1_555 1_555
O14_8 C47_10 1_555 1_555
O14_12 C48_10 1_555 1_555
N5_10 H9_10 1_555 1_555
N6_10 H10_10 1_555 1_555
N9_10 C25_10 1_555 1_555
N10_10 C4_10 1_555 1_555
N11_10 H13_10 1_555 1_555
C25_10 N3_10 1_555 1_555
C26_10 N6_10 1_555 1_555
C29_10 H17_10 1_555 1_555
C30_10 H18_10 1_555 1_555
O17_10 C47_10 1_555 1_555
O18_10 C48_10 1_555 1_555
C31_10 N5_10 1_555 1_555
C32_10 N6_10 1_555 1_555
C35_10 C31_10 1_555 1_555
C36_10 C32_10 1_555 1_555
H19_10 C35_10 1_555 1_555
H20_10 C36_10 1_555 1_555
C39_10 C29_10 1_555 1_555
C40_10 C30_10 1_555 1_555
C41_10 C39_10 1_555 1_555
C42_10 C40_10 1_555 1_555
H23_10 C41_10 1_555 1_555
H24_10 C42_10 1_555 1_555
C43_10 C35_10 1_555 1_555
C44_10 C36_10 1_555 1_555
C47_10 C43_10 1_555 1_555
C48_10 C44_10 1_555 1_555
O19_10 C51_10 1_555 1_555
O20_10 C52_10 1_555 1_555
C51_10 C39_10 1_555 1_555
C52_10 C40_10 1_555 1_555
C3_10 C16_10 1_555 1_555
C3_10 O23_4 1_555 1_555
C5_10 C8_10 1_555 1_555
C6_10 C7_10 1_555 1_555
C10_10 C16_10 1_555 1_555
C12_10 C13_10 1_555 1_555
N5_10 C25_10 1_555 1_555
N9_10 C26_10 1_555 1_555
N10_10 C26_10 1_555 1_555
C29_10 C31_10 1_555 1_555
C30_10 C32_10 1_555 1_555
C41_10 C43_10 1_555 1_555
C42_10 C44_10 1_555 1_555
N2_9 C14_9 1_555 1_555
N4_10 H3_10 1_555 1_555
C14_9 N4_10 1_555 1_555
N7_9 C14_9 1_555 1_555
N8_9 C45_9 1_555 1_555
C22_10 H12_10 1_555 1_555
C28_10 C20_10 1_555 1_555
H16_10 C28_10 1_555 1_555
C34_10 C22_10 1_555 1_555
C45_9 N7_9 1_555 1_555
C46_9 N2_9 1_555 1_555
O27_4 C54_10 1_555 1_555
O29_10 C54_10 1_555 1_555
C54_10 C34_10 1_555 1_555
N8_9 C46_9 1_555 1_555
C28_10 C34_10 1_555 1_555
C23_10 O15_10 1_555 1_555
O23_5 C23_10 1_555 1_555
C23_10 C49_10 1_555 1_555
C37_10 C49_10 1_555 1_555
C21_10 H11_10 1_555 1_555
N12_10 H14_10 1_555 1_555
C24_10 O16_10 1_555 1_555
C27_10 C19_10 1_555 1_555
H15_10 C27_10 1_555 1_555
C33_10 C21_10 1_555 1_555
H22_10 C38_10 1_555 1_555
O23_10 C24_10 1_555 1_555
O27_10 C53_10 1_555 1_555
O28_10 C53_10 1_555 1_555
C53_10 C33_10 1_555 1_555
C24_10 C50_10 1_555 1_555
C27_10 C33_10 1_555 1_555
C38_10 C50_10 1_555 1_555
N4_11 H3_11 1_555 1_555
C22_11 H12_11 1_555 1_555
C24_11 O16_11 1_555 1_555
C28_11 C20_11 1_555 1_555
H16_11 C28_11 1_555 1_555
C34_11 C22_11 1_555 1_555
C38_11 C20_11 1_555 1_555
C50_11 C22_11 1_555 1_555
O23_12 C24_11 1_555 1_555
O27 C54_11 1_555 1_555
O29_11 C54_11 1_555 1_555
C54_11 C34_11 1_555 1_555
C24_11 C50_11 1_555 1_555
C28_11 C34_11 1_555 1_555
C38_11 C50_11 1_555 1_555
O11_20 C17_11 1_555 1_555
O14 C15_11 1_555 1_555
N1_11 H1_11 1_555 1_555
N3_11 C4_11 1_555 1_555
C3_11 O3_11 1_555 1_555
C4_11 N1_11 1_555 1_555
C6_11 H5_11 1_555 1_555
O4_11 C15_11 1_555 1_555
C7_11 N1_11 1_555 1_555
C9_11 C7_11 1_555 1_555
H6_11 C9_11 1_555 1_555
C11_11 C6_11 1_555 1_555
C12_11 C11_11 1_555 1_555
H8_11 C12_11 1_555 1_555
C13_11 C9_11 1_555 1_555
C15_11 C13_11 1_555 1_555
O5_11 C17_11 1_555 1_555
C17_11 C11_11 1_555 1_555
O11_14 C51_11 1_555 1_555
O11_21 C52_11 1_555 1_555
O14_7 C47_11 1_555 1_555
O14_10 C48_11 1_555 1_555
N5_11 H9_11 1_555 1_555
N6_11 H10_11 1_555 1_555
N9_11 C25_11 1_555 1_555
N10_11 C4_11 1_555 1_555
C25_11 N3_11 1_555 1_555
C26_11 N6_11 1_555 1_555
C29_11 H17_11 1_555 1_555
C30_11 H18_11 1_555 1_555
O17_11 C47_11 1_555 1_555
O18_11 C48_11 1_555 1_555
C31_11 N5_11 1_555 1_555
C32_11 N6_11 1_555 1_555
C35_11 C31_11 1_555 1_555
C36_11 C32_11 1_555 1_555
H19_11 C35_11 1_555 1_555
H20_11 C36_11 1_555 1_555
C39_11 C29_11 1_555 1_555
C40_11 C30_11 1_555 1_555
C41_11 C39_11 1_555 1_555
C42_11 C40_11 1_555 1_555
H23_11 C41_11 1_555 1_555
H24_11 C42_11 1_555 1_555
C43_11 C35_11 1_555 1_555
C44_11 C36_11 1_555 1_555
C47_11 C43_11 1_555 1_555
C48_11 C44_11 1_555 1_555
O19_11 C51_11 1_555 1_555
O20_11 C52_11 1_555 1_555
C51_11 C39_11 1_555 1_555
C52_11 C40_11 1_555 1_555
C3_11 C16_11 1_555 1_555
C3_11 O23 1_555 1_555
C6_11 C7_11 1_555 1_555
C10_11 C16_11 1_555 1_555
C12_11 C13_11 1_555 1_555
N5_11 C25_11 1_555 1_555
N9_11 C26_11 1_555 1_555
N10_11 C26_11 1_555 1_555
C29_11 C31_11 1_555 1_555
C30_11 C32_11 1_555 1_555
C41_11 C43_11 1_555 1_555
C42_11 C44_11 1_555 1_555
N2_10 C14_10 1_555 1_555
N7_10 C14_10 1_555 1_555
N8_10 C45_10 1_555 1_555
C21_11 H11_11 1_555 1_555
N12_11 H14_11 1_555 1_555
C27_11 C19_11 1_555 1_555
H15_11 C27_11 1_555 1_555
C33_11 C21_11 1_555 1_555
C45_10 N7_10 1_555 1_555
C46_10 N2_10 1_555 1_555
O27_12 C53_11 1_555 1_555
O28_11 C53_11 1_555 1_555
C53_11 C33_11 1_555 1_555
N8_10 C46_10 1_555 1_555
N12_11 C46_10 1_555 1_555
C27_11 C33_11 1_555 1_555
C2_11 H2_11 1_555 1_555
C5_11 C1_11 1_555 1_555
H4_11 C5_11 1_555 1_555
C8_11 C2_11 1_555 1_555
O27_6 C18_11 1_555 1_555
O8_11 C18_11 1_555 1_555
C18_11 C8_11 1_555 1_555
N11_11 H13_11 1_555 1_555
C23_11 O15_11 1_555 1_555
H21_11 C37_11 1_555 1_555
O23_6 C23_11 1_555 1_555
C5_11 C8_11 1_555 1_555
C23_11 C49_11 1_555 1_555
C37_11 C49_11 1_555 1_555
C21_12 H11_12 1_555 1_555
N12_12 H14_12 1_555 1_555
C23_12 O15_12 1_555 1_555
C27_12 C19_12 1_555 1_555
H15_12 C27_12 1_555 1_555
C33_12 C21_12 1_555 1_555
C37_12 C19_12 1_555 1_555
C49_12 C21_12 1_555 1_555
O23_8 C23_12 1_555 1_555
O27_9 C53_12 1_555 1_555
O28_12 C53_12 1_555 1_555
C53_12 C33_12 1_555 1_555
C23_12 C49_12 1_555 1_555
C27_12 C33_12 1_555 1_555
C37_12 C49_12 1_555 1_555
C24_12 O16_12 1_555 1_555
O23_9 C24_12 1_555 1_555
C24_12 C50_12 1_555 1_555
C38_12 C50_12 1_555 1_555
N2_11 C14_11 1_555 1_555
C2_12 H2_12 1_555 1_555
C5_12 C1_12 1_555 1_555
H4_12 C5_12 1_555 1_555
C8_12 C2_12 1_555 1_555
O27_8 C18_12 1_555 1_555
O8_12 C18_12 1_555 1_555
C18_12 C8_12 1_555 1_555
N7_11 C14_11 1_555 1_555
N8_11 C45_11 1_555 1_555
N11_12 H13_12 1_555 1_555
C45_11 N7_11 1_555 1_555
C46_11 N2_11 1_555 1_555
C5_12 C8_12 1_555 1_555
N8_11 C46_11 1_555 1_555
N11_12 C45_11 1_555 1_555
O11_18 C17_12 1_555 1_555
O14_2 C15_12 1_555 1_555
N1_12 H1_12 1_555 1_555
N3_12 C4_12 1_555 1_555
N4_12 H3_12 1_555 1_555
C3_12 O3_12 1_555 1_555
C4_12 N1_12 1_555 1_555
C6_12 H5_12 1_555 1_555
O4_12 C15_12 1_555 1_555
C7_12 N1_12 1_555 1_555
C9_12 C7_12 1_555 1_555
H6_12 C9_12 1_555 1_555
H7_12 C10_12 1_555 1_555
C11_12 C6_12 1_555 1_555
C12_12 C11_12 1_555 1_555
H8_12 C12_12 1_555 1_555
C13_12 C9_12 1_555 1_555
C15_12 C13_12 1_555 1_555
O5_12 C17_12 1_555 1_555
C17_12 C11_12 1_555 1_555
O11_13 C51_12 1_555 1_555
O11_24 C52_12 1_555 1_555
O14_5 C47_12 1_555 1_555
O14_11 C48_12 1_555 1_555
N5_12 H9_12 1_555 1_555
N6_12 H10_12 1_555 1_555
N9_12 C25_12 1_555 1_555
N10_12 C4_12 1_555 1_555
C22_12 H12_12 1_555 1_555
C25_12 N3_12 1_555 1_555
C26_12 N6_12 1_555 1_555
C28_12 C20_12 1_555 1_555
H16_12 C28_12 1_555 1_555
C29_12 H17_12 1_555 1_555
C30_12 H18_12 1_555 1_555
O17_12 C47_12 1_555 1_555
O18_12 C48_12 1_555 1_555
C31_12 N5_12 1_555 1_555
C32_12 N6_12 1_555 1_555
C34_12 C22_12 1_555 1_555
C35_12 C31_12 1_555 1_555
C36_12 C32_12 1_555 1_555
H19_12 C35_12 1_555 1_555
H20_12 C36_12 1_555 1_555
C39_12 C29_12 1_555 1_555
C40_12 C30_12 1_555 1_555
C41_12 C39_12 1_555 1_555
C42_12 C40_12 1_555 1_555
H23_12 C41_12 1_555 1_555
H24_12 C42_12 1_555 1_555
C43_12 C35_12 1_555 1_555
C44_12 C36_12 1_555 1_555
C47_12 C43_12 1_555 1_555
C48_12 C44_12 1_555 1_555
O19_12 C51_12 1_555 1_555
O20_12 C52_12 1_555 1_555
C51_12 C39_12 1_555 1_555
C52_12 C40_12 1_555 1_555
O27_2 C54_12 1_555 1_555
O29_12 C54_12 1_555 1_555
C54_12 C34_12 1_555 1_555
C3_12 C16_12 1_555 1_555
C3_12 O23_2 1_555 1_555
C6_12 C7_12 1_555 1_555
C10_12 C16_12 1_555 1_555
C12_12 C13_12 1_555 1_555
N5_12 C25_12 1_555 1_555
N9_12 C26_12 1_555 1_555
N10_12 C26_12 1_555 1_555
C28_12 C34_12 1_555 1_555
C29_12 C31_12 1_555 1_555
C30_12 C32_12 1_555 1_555
C41_12 C43_12 1_555 1_555
C42_12 C44_12 1_555 1_555
C1_13 N4_13 1_555 1_555
O11_7 C17_13 1_555 1_555
O14_15 C15_13 1_555 1_555
N1_13 H1_13 1_555 1_555
N2_12 C14_12 1_555 1_555
N3_13 C4_13 1_555 1_555
C2_13 H2_13 1_555 1_555
N4_13 H3_13 1_555 1_555
C3_13 O3_13 1_555 1_555
C4_13 N1_13 1_555 1_555
C5_13 C1_13 1_555 1_555
H4_13 C5_13 1_555 1_555
C6_13 H5_13 1_555 1_555
O4_13 C15_13 1_555 1_555
C7_13 N1_13 1_555 1_555
C8_13 C2_13 1_555 1_555
C9_13 C7_13 1_555 1_555
H6_13 C9_13 1_555 1_555
C10_13 C1_13 1_555 1_555
H7_13 C10_13 1_555 1_555
C11_13 C6_13 1_555 1_555
C12_13 C11_13 1_555 1_555
H8_13 C12_13 1_555 1_555
C13_13 C9_13 1_555 1_555
C14_12 N4_13 1_555 1_555
C15_13 C13_13 1_555 1_555
O5_13 C17_13 1_555 1_555
C16_13 C2_13 1_555 1_555
C17_13 C11_13 1_555 1_555
O27_19 C18_13 1_555 1_555
O8_13 C18_13 1_555 1_555
C18_13 C8_13 1_555 1_555
C19_13 N11_13 1_555 1_555
C20_13 N12_13 1_555 1_555
O11_3 C51_13 1_555 1_555
O11_11 C52_13 1_555 1_555
O14_18 C47_13 1_555 1_555
O14_21 C48_13 1_555 1_555
N5_13 H9_13 1_555 1_555
N6_13 H10_13 1_555 1_555
N7_12 C14_12 1_555 1_555
N8_12 C45_12 1_555 1_555
N9_13 C25_13 1_555 1_555
N10_13 C4_13 1_555 1_555
C21_13 H11_13 1_555 1_555
C22_13 H12_13 1_555 1_555
N11_13 H13_13 1_555 1_555
N12_13 H14_13 1_555 1_555
C23_13 O15_13 1_555 1_555
C24_13 O16_13 1_555 1_555
C25_13 N3_13 1_555 1_555
C26_13 N6_13 1_555 1_555
C27_13 C19_13 1_555 1_555
C28_13 C20_13 1_555 1_555
H15_13 C27_13 1_555 1_555
H16_13 C28_13 1_555 1_555
C29_13 H17_13 1_555 1_555
C30_13 H18_13 1_555 1_555
O17_13 C47_13 1_555 1_555
O18_13 C48_13 1_555 1_555
C31_13 N5_13 1_555 1_555
C32_13 N6_13 1_555 1_555
C33_13 C21_13 1_555 1_555
C34_13 C22_13 1_555 1_555
C35_13 C31_13 1_555 1_555
C36_13 C32_13 1_555 1_555
H19_13 C35_13 1_555 1_555
H20_13 C36_13 1_555 1_555
C37_13 C19_13 1_555 1_555
C38_13 C20_13 1_555 1_555
H21_13 C37_13 1_555 1_555
H22_13 C38_13 1_555 1_555
C39_13 C29_13 1_555 1_555
C40_13 C30_13 1_555 1_555
C41_13 C39_13 1_555 1_555
C42_13 C40_13 1_555 1_555
H23_13 C41_13 1_555 1_555
H24_13 C42_13 1_555 1_555
C43_13 C35_13 1_555 1_555
C44_13 C36_13 1_555 1_555
C45_12 N7_12 1_555 1_555
C46_12 N2_12 1_555 1_555
C47_13 C43_13 1_555 1_555
C48_13 C44_13 1_555 1_555
O19_13 C51_13 1_555 1_555
O20_13 C52_13 1_555 1_555
C49_13 C21_13 1_555 1_555
C50_13 C22_13 1_555 1_555
O23_19 C23_13 1_555 1_555
O23_23 C24_13 1_555 1_555
C51_13 C39_13 1_555 1_555
C52_13 C40_13 1_555 1_555
O27_23 C53_13 1_555 1_555
O27_15 C54_13 1_555 1_555
O28_13 C53_13 1_555 1_555
O29_13 C54_13 1_555 1_555
C53_13 C33_13 1_555 1_555
C54_13 C34_13 1_555 1_555
C3_13 C16_13 1_555 1_555
C3_13 O23_15 1_555 1_555
C5_13 C8_13 1_555 1_555
C6_13 C7_13 1_555 1_555
C10_13 C16_13 1_555 1_555
C12_13 C13_13 1_555 1_555
N5_13 C25_13 1_555 1_555
N8_12 C46_12 1_555 1_555
N9_13 C26_13 1_555 1_555
N10_13 C26_13 1_555 1_555
N11_13 C45_12 1_555 1_555
N12_13 C46_12 1_555 1_555
C23_13 C49_13 1_555 1_555
C24_13 C50_13 1_555 1_555
C27_13 C33_13 1_555 1_555
C28_13 C34_13 1_555 1_555
C29_13 C31_13 1_555 1_555
C30_13 C32_13 1_555 1_555
C37_13 C49_13 1_555 1_555
C38_13 C50_13 1_555 1_555
C41_13 C43_13 1_555 1_555
C42_13 C44_13 1_555 1_555
C1_14 N4_14 1_555 1_555
O11_5 C17_14 1_555 1_555
O14_16 C15_14 1_555 1_555
N1_14 H1_14 1_555 1_555
N2_13 C14_13 1_555 1_555
N3_14 C4_14 1_555 1_555
C2_14 H2_14 1_555 1_555
N4_14 H3_14 1_555 1_555
C3_14 O3_14 1_555 1_555
C4_14 N1_14 1_555 1_555
C5_14 C1_14 1_555 1_555
H4_14 C5_14 1_555 1_555
C6_14 H5_14 1_555 1_555
O4_14 C15_14 1_555 1_555
C7_14 N1_14 1_555 1_555
C8_14 C2_14 1_555 1_555
C9_14 C7_14 1_555 1_555
H6_14 C9_14 1_555 1_555
C10_14 C1_14 1_555 1_555
H7_14 C10_14 1_555 1_555
C11_14 C6_14 1_555 1_555
C12_14 C11_14 1_555 1_555
H8_14 C12_14 1_555 1_555
C13_14 C9_14 1_555 1_555
C14_13 N4_14 1_555 1_555
C15_14 C13_14 1_555 1_555
O5_14 C17_14 1_555 1_555
C16_14 C2_14 1_555 1_555
C17_14 C11_14 1_555 1_555
O27_17 C18_14 1_555 1_555
O8_14 C18_14 1_555 1_555
C18_14 C8_14 1_555 1_555
C19_14 N11_14 1_555 1_555
C20_14 N12_14 1_555 1_555
N7_13 C14_13 1_555 1_555
N8_13 C45_13 1_555 1_555
C21_14 H11_14 1_555 1_555
C22_14 H12_14 1_555 1_555
N11_14 H13_14 1_555 1_555
N12_14 H14_14 1_555 1_555
C23_14 O15_14 1_555 1_555
C24_14 O16_14 1_555 1_555
C27_14 C19_14 1_555 1_555
C28_14 C20_14 1_555 1_555
H15_14 C27_14 1_555 1_555
H16_14 C28_14 1_555 1_555
C33_14 C21_14 1_555 1_555
C34_14 C22_14 1_555 1_555
C37_14 C19_14 1_555 1_555
C38_14 C20_14 1_555 1_555
H21_14 C37_14 1_555 1_555
H22_14 C38_14 1_555 1_555
C45_13 N7_13 1_555 1_555
C46_13 N2_13 1_555 1_555
C49_14 C21_14 1_555 1_555
C50_14 C22_14 1_555 1_555
O23_17 C23_14 1_555 1_555
O23_22 C24_14 1_555 1_555
O27_22 C53_14 1_555 1_555
O27_16 C54_14 1_555 1_555
O28_14 C53_14 1_555 1_555
O29_14 C54_14 1_555 1_555
C53_14 C33_14 1_555 1_555
C54_14 C34_14 1_555 1_555
C3_14 C16_14 1_555 1_555
C3_14 O23_16 1_555 1_555
C5_14 C8_14 1_555 1_555
C6_14 C7_14 1_555 1_555
C10_14 C16_14 1_555 1_555
C12_14 C13_14 1_555 1_555
N8_13 C46_13 1_555 1_555
N11_14 C45_13 1_555 1_555
N12_14 C46_13 1_555 1_555
C23_14 C49_14 1_555 1_555
C24_14 C50_14 1_555 1_555
C27_14 C33_14 1_555 1_555
C28_14 C34_14 1_555 1_555
C37_14 C49_14 1_555 1_555
C38_14 C50_14 1_555 1_555
O11_4 C51_14 1_555 1_555
O14_20 C47_14 1_555 1_555
C29_14 H17_14 1_555 1_555
C39_14 C29_14 1_555 1_555
C41_14 C39_14 1_555 1_555
H23_14 C41_14 1_555 1_555
C47_14 C43_14 1_555 1_555
O19_14 C51_14 1_555 1_555
C51_14 C39_14 1_555 1_555
C29_14 C31_14 1_555 1_555
C41_14 C43_14 1_555 1_555
N6_14 H10_14 1_555 1_555
C26_14 N6_14 1_555 1_555
H20_14 C36_14 1_555 1_555
N10_14 C26_14 1_555 1_555
O11_10 C52_14 1_555 1_555
O14_24 C48_14 1_555 1_555
N5_14 H9_14 1_555 1_555
N9_14 C25_14 1_555 1_555
C30_14 H18_14 1_555 1_555
H19_14 C35_14 1_555 1_555
C40_14 C30_14 1_555 1_555
C42_14 C40_14 1_555 1_555
H24_14 C42_14 1_555 1_555
C48_14 C44_14 1_555 1_555
O20_14 C52_14 1_555 1_555
C52_14 C40_14 1_555 1_555
N5_14 C25_14 1_555 1_555
C30_14 C32_14 1_555 1_555
C42_14 C44_14 1_555 1_555
O11_9 C52_15 1_555 1_555
O14_22 C48_15 1_555 1_555
N6_15 H10_15 1_555 1_555
C26_15 N6_15 1_555 1_555
C30_15 H18_15 1_555 1_555
O18_15 C48_15 1_555 1_555
C32_15 N6_15 1_555 1_555
C36_15 C32_15 1_555 1_555
H20_15 C36_15 1_555 1_555
C40_15 C30_15 1_555 1_555
C42_15 C40_15 1_555 1_555
H24_15 C42_15 1_555 1_555
C44_15 C36_15 1_555 1_555
C48_15 C44_15 1_555 1_555
O20_15 C52_15 1_555 1_555
C52_15 C40_15 1_555 1_555
N10_15 C26_15 1_555 1_555
C30_15 C32_15 1_555 1_555
C42_15 C44_15 1_555 1_555
N5_15 H9_15 1_555 1_555
N9_15 C25_15 1_555 1_555
H19_15 C35_15 1_555 1_555
N5_15 C25_15 1_555 1_555
O11_8 C17_15 1_555 1_555
O14_13 C15_15 1_555 1_555
C6_15 H5_15 1_555 1_555
C11_15 C6_15 1_555 1_555
C12_15 C11_15 1_555 1_555
H8_15 C12_15 1_555 1_555
C15_15 C13_15 1_555 1_555
O5_15 C17_15 1_555 1_555
C17_15 C11_15 1_555 1_555
C6_15 C7_15 1_555 1_555
C12_15 C13_15 1_555 1_555
C1_15 N4_15 1_555 1_555
N1_15 H1_15 1_555 1_555
N2_14 C14_14 1_555 1_555
N3_15 C4_15 1_555 1_555
C2_15 H2_15 1_555 1_555
N4_15 H3_15 1_555 1_555
C3_15 O3_15 1_555 1_555
C4_15 N1_15 1_555 1_555
C5_15 C1_15 1_555 1_555
H4_15 C5_15 1_555 1_555
C8_15 C2_15 1_555 1_555
H6_15 C9_15 1_555 1_555
C10_15 C1_15 1_555 1_555
H7_15 C10_15 1_555 1_555
C14_14 N4_15 1_555 1_555
C16_15 C2_15 1_555 1_555
O27_18 C18_15 1_555 1_555
O8_15 C18_15 1_555 1_555
C18_15 C8_15 1_555 1_555
C19_15 N11_15 1_555 1_555
C20_15 N12_15 1_555 1_555
O11_2 C51_15 1_555 1_555
O14_19 C47_15 1_555 1_555
N7_14 C14_14 1_555 1_555
N8_14 C45_14 1_555 1_555
C21_15 H11_15 1_555 1_555
C22_15 H12_15 1_555 1_555
N11_15 H13_15 1_555 1_555
N12_15 H14_15 1_555 1_555
C23_15 O15_15 1_555 1_555
C24_15 O16_15 1_555 1_555
C27_15 C19_15 1_555 1_555
C28_15 C20_15 1_555 1_555
H15_15 C27_15 1_555 1_555
H16_15 C28_15 1_555 1_555
C29_15 H17_15 1_555 1_555
C33_15 C21_15 1_555 1_555
C34_15 C22_15 1_555 1_555
C37_15 C19_15 1_555 1_555
C38_15 C20_15 1_555 1_555
H21_15 C37_15 1_555 1_555
H22_15 C38_15 1_555 1_555
C39_15 C29_15 1_555 1_555
C41_15 C39_15 1_555 1_555
H23_15 C41_15 1_555 1_555
C45_14 N7_14 1_555 1_555
C46_14 N2_14 1_555 1_555
C47_15 C43_15 1_555 1_555
O19_15 C51_15 1_555 1_555
C49_15 C21_15 1_555 1_555
C50_15 C22_15 1_555 1_555
O23_18 C23_15 1_555 1_555
O23_24 C24_15 1_555 1_555
C51_15 C39_15 1_555 1_555
O27_24 C53_15 1_555 1_555
O27_13 C54_15 1_555 1_555
O28_15 C53_15 1_555 1_555
O29_15 C54_15 1_555 1_555
C53_15 C33_15 1_555 1_555
C54_15 C34_15 1_555 1_555
C3_15 C16_15 1_555 1_555
C3_15 O23_13 1_555 1_555
C5_15 C8_15 1_555 1_555
C10_15 C16_15 1_555 1_555
N8_14 C46_14 1_555 1_555
N11_15 C45_14 1_555 1_555
N12_15 C46_14 1_555 1_555
C23_15 C49_15 1_555 1_555
C24_15 C50_15 1_555 1_555
C27_15 C33_15 1_555 1_555
C28_15 C34_15 1_555 1_555
C29_15 C31_15 1_555 1_555
C37_15 C49_15 1_555 1_555
C38_15 C50_15 1_555 1_555
C41_15 C43_15 1_555 1_555
O11 C51_16 1_555 1_555
O14_17 C47_16 1_555 1_555
N5_16 H9_16 1_555 1_555
N9_16 C25_16 1_555 1_555
C29_16 H17_16 1_555 1_555
O17_16 C47_16 1_555 1_555
C31_16 N5_16 1_555 1_555
C35_16 C31_16 1_555 1_555
H19_16 C35_16 1_555 1_555
C39_16 C29_16 1_555 1_555
C41_16 C39_16 1_555 1_555
H23_16 C41_16 1_555 1_555
C43_16 C35_16 1_555 1_555
C47_16 C43_16 1_555 1_555
O19_16 C51_16 1_555 1_555
C51_16 C39_16 1_555 1_555
N5_16 C25_16 1_555 1_555
C29_16 C31_16 1_555 1_555
C41_16 C43_16 1_555 1_555
C1_16 N4_16 1_555 1_555
N1_16 H1_16 1_555 1_555
N2_15 C14_15 1_555 1_555
N3_16 C4_16 1_555 1_555
C2_16 H2_16 1_555 1_555
N4_16 H3_16 1_555 1_555
C3_16 O3_16 1_555 1_555
C4_16 N1_16 1_555 1_555
C5_16 C1_16 1_555 1_555
H4_16 C5_16 1_555 1_555
C8_16 C2_16 1_555 1_555
H6_16 C9_16 1_555 1_555
C10_16 C1_16 1_555 1_555
H7_16 C10_16 1_555 1_555
C14_15 N4_16 1_555 1_555
C16_16 C2_16 1_555 1_555
O27_20 C18_16 1_555 1_555
O8_16 C18_16 1_555 1_555
C18_16 C8_16 1_555 1_555
C19_16 N11_16 1_555 1_555
C20_16 N12_16 1_555 1_555
N7_15 C14_15 1_555 1_555
N8_15 C45_15 1_555 1_555
C21_16 H11_16 1_555 1_555
C22_16 H12_16 1_555 1_555
N11_16 H13_16 1_555 1_555
N12_16 H14_16 1_555 1_555
C23_16 O15_16 1_555 1_555
C24_16 O16_16 1_555 1_555
C27_16 C19_16 1_555 1_555
C28_16 C20_16 1_555 1_555
H15_16 C27_16 1_555 1_555
H16_16 C28_16 1_555 1_555
C33_16 C21_16 1_555 1_555
C34_16 C22_16 1_555 1_555
C37_16 C19_16 1_555 1_555
C38_16 C20_16 1_555 1_555
H21_16 C37_16 1_555 1_555
H22_16 C38_16 1_555 1_555
C45_15 N7_15 1_555 1_555
C46_15 N2_15 1_555 1_555
C49_16 C21_16 1_555 1_555
C50_16 C22_16 1_555 1_555
O23_20 C23_16 1_555 1_555
O23_21 C24_16 1_555 1_555
O27_21 C53_16 1_555 1_555
O27_14 C54_16 1_555 1_555
O28_16 C53_16 1_555 1_555
O29_16 C54_16 1_555 1_555
C53_16 C33_16 1_555 1_555
C54_16 C34_16 1_555 1_555
C3_16 C16_16 1_555 1_555
C3_16 O23_14 1_555 1_555
C5_16 C8_16 1_555 1_555
C10_16 C16_16 1_555 1_555
N8_15 C46_15 1_555 1_555
N11_16 C45_15 1_555 1_555
N12_16 C46_15 1_555 1_555
C23_16 C49_16 1_555 1_555
C24_16 C50_16 1_555 1_555
C27_16 C33_16 1_555 1_555
C28_16 C34_16 1_555 1_555
C37_16 C49_16 1_555 1_555
C38_16 C50_16 1_555 1_555
O11_12 C52_16 1_555 1_555
O14_23 C48_16 1_555 1_555
C30_16 H18_16 1_555 1_555
C40_16 C30_16 1_555 1_555
C42_16 C40_16 1_555 1_555
H24_16 C42_16 1_555 1_555
C48_16 C44_16 1_555 1_555
O20_16 C52_16 1_555 1_555
C52_16 C40_16 1_555 1_555
C30_16 C32_16 1_555 1_555
C42_16 C44_16 1_555 1_555
O11_6 C17_16 1_555 1_555
O14_14 C15_16 1_555 1_555
C6_16 H5_16 1_555 1_555
C11_16 C6_16 1_555 1_555
C12_16 C11_16 1_555 1_555
H8_16 C12_16 1_555 1_555
C15_16 C13_16 1_555 1_555
O5_16 C17_16 1_555 1_555
C17_16 C11_16 1_555 1_555
N6_16 H10_16 1_555 1_555
C26_16 N6_16 1_555 1_555
H20_16 C36_16 1_555 1_555
C6_16 C7_16 1_555 1_555
C12_16 C13_16 1_555 1_555
N10_16 C26_16 1_555 1_555
N2_16 C14_16 1_555 1_555
N7_16 C14_16 1_555 1_555
N8_16 C45_16 1_555 1_555
C45_16 N7_16 1_555 1_555
C46_16 N2_16 1_555 1_555
N8_16 C46_16 1_555 1_555

#END
