
###############################################################################
#
# This file contains modified crystal structure data generated from the
# MOF subset of the Cambridge Structural Database (CSD) v543 
# hosted by the Cambridge Crystallographic Data Centre (CCDC).
#
# This work is licensed under the Creative Commons
# Attribution-NonCommercial-ShareAlike 4.0 International License.
# To view a copy of this license, visit
# http://creativecommons.org/licenses/by-nc-sa/4.0/
# or send a letter to
# Creative Commons, PO Box 1866, Mountain View, CA 94042, USA.
#
# CIF created using the CSD Python API on 29 September 2022
# The structure has been converted into the P1 space group
# The structure has a 3D framework
# The original CSD entry ICORAV is in the monoclinic crystal system
# The original CSD entry ICORAV is in a Sohncke space group
# The framework has been calculated to contain at least 10.0% void space
# The void calculation uses a probe of radius 1.32A, grid spacing 0.4
# The framework is charged, counterions have been retained in the structure
#
###############################################################################

data_ICORAV
_chemical_formula_moiety         '(C24 H24 Cl2 La4 N2 O28 S4)n'
_symmetry_cell_setting           triclinic
_symmetry_space_group_name_H-M   'P 1'
_symmetry_Int_Tables_number      1
_space_group_name_Hall           'P 1'
loop_
_symmetry_equiv_pos_site_id
_symmetry_equiv_pos_as_xyz
1 x,y,z
_cell_length_a                   12.827(3)
_cell_length_b                   6.5366(13)
_cell_length_c                   16.096(3)
_cell_angle_alpha                90
_cell_angle_beta                 90.34(3)
_cell_angle_gamma                90
_cell_volume                     1349.54
loop_
_atom_site_label
_atom_site_type_symbol
_atom_site_fract_x
_atom_site_fract_y
_atom_site_fract_z
O2 O 0.0865(5) 0.2852(9) 0.6085(4)
La2 La 0.21595(4) 0.32122(8) 0.73133(3)
O7 O 0.1004(4) 0.5994(9) 0.6591(3)
O8 O 0.0958(5) 0.0096(10) 0.7575(4)
O10 O 0.0275(5) 0.5565(9) 0.5354(3)
N1 N 0.0703(6) 0.4794(12) 0.5994(5)
O13 O 0.2719(5) 0.6764(11) 0.7705(4)
H8 H 0.2378 0.7785 0.7522
H9 H 0.3244 0.6951 0.8021
O14 O 0.3529(7) 0.1229(16) 0.8138(5)
H10 H 0.4022 0.1928 0.8455
O16 O 0.0561(5) 0.4145(12) 0.8239(3)
O17 O 0.2021(6) 0.3707(12) 0.8959(4)
La3 La 0.01706(3) 0.92829(6) 0.60585(2)
O19 O 0.2961(6) 0.4317(15) 0.5910(6)
O22 O 0.4193(6) 0.3855(13) 0.6816(5)
O3 O 0.2445(5) 0.9901(9) 0.6446(4)
O4 O 0.1862(5) 0.9218(12) 0.5185(3)
C1 C 0.2613(6) 0.9509(13) 0.5689(5)
O9 O 0.7039(6) 0.9317(15) 0.4090(6)
C4 C 0.0123(7) 0.9469(14) 0.7929(4)
C5 C 0.0098(7) 0.9286(15) 0.8843(4)
C7 C 0.0924(7) 0.9327(15) 0.9378(5)
H4 H 0.1615 0.9422 0.9211
C8 C 0.5307(7) 0.9303(17) 0.4581(6)
C9 C 0.6103(8) 0.9130(18) 0.3890(7)
S2 S 0.39513(19) 0.9264(4) 0.43427(14)
C10 C 0.3678(6) 0.9389(15) 0.5376(5)
C11 C 0.4616(7) 0.9416(15) 0.5825(6)
H7 H 0.4625 0.9479 0.6402
H11 H 0.3534 0.9807 0.8124
O15 O 0.5807(6) 0.8855(13) 0.3184(5)
C12 C 0.5494(7) 0.9349(18) 0.5389(6)
H12 H 0.6158 0.9336 0.5625
La6 La 0.78405(4) 0.82122(8) 0.26867(3)
O1 O 0.8636(5) 0.1813(11) 0.6237(4)
H1 H 0.8519 0.2570 0.6656
H2 H 0.8415 0.2398 0.5798
La4 La 0.98294(3) 0.42829(6) 0.39415(2)
O21 O 0.9725(5) 0.0565(9) 0.4646(3)
O5 O 0.9439(5) 0.9145(12) 0.1761(3)
O6 O 0.7979(6) 0.8707(12) 0.1041(4)
C2 C 0.8973(8) 0.9014(14) 0.1077(5)
C6 C 0.9547(7) 0.9143(15) 0.0303(5)
O1_2 O 0.1364(5) 0.6813(11) 0.3763(4)
H1_2 H 0.1481 0.7570 0.3344
H2_2 H 0.1585 0.7398 0.4202
S1 S 0.10701(18) 0.4147(4) 0.06563(12)
O11 O 0.1557(6) 0.2452(13) 0.4058(5)
H5 H 0.2023 0.2636 0.3693
H6 H 0.1674 0.1659 0.4467
O12 O 0.0675(5) 0.3983(12) 0.2495(3)
C2_2 C 0.1027(8) 0.4014(14) 0.8923(5)
C6_2 C 0.0453(7) 0.4143(15) 0.9697(5)
O7_2 O 0.8996(4) 0.0994(9) 0.3409(3)
O13_2 O 0.7281(5) 0.1764(11) 0.2295(4)
H8_2 H 0.7622 0.2785 0.2478
H9_2 H 0.6756 0.1951 0.1979
O2_2 O 0.9135(5) 0.7852(9) 0.3915(4)
O3_2 O 0.7555(5) 0.4901(9) 0.3554(4)
O4_2 O 0.8138(5) 0.4218(12) 0.4815(3)
C1_2 C 0.7387(6) 0.4509(13) 0.4311(5)
O8_2 O 0.9042(5) 0.5096(10) 0.2425(4)
C4_2 C 0.9877(7) 0.4469(14) 0.2071(4)
C5_2 C 0.9902(7) 0.4286(15) 0.1157(4)
C7_2 C 0.9076(7) 0.4327(15) 0.0622(5)
H4_2 H 0.8385 0.4422 0.0789
C8_2 C 0.4693(7) 0.4303(17) 0.5419(6)
N1_2 N 0.9297(6) 0.9794(12) 0.4006(5)
C9_2 C 0.3897(8) 0.4130(18) 0.6110(7)
S2_2 S 0.60487(19) 0.4264(4) 0.56573(14)
C10_2 C 0.6322(6) 0.4389(15) 0.4624(5)
C11_2 C 0.5384(7) 0.4416(15) 0.4175(6)
H7_2 H 0.5375 0.4479 0.3598
O14_2 O 0.6471(7) 0.6229(16) 0.1862(5)
H10_2 H 0.5978 0.6928 0.1545
H11_2 H 0.6466 0.4807 0.1876
C12_2 C 0.4506(7) 0.4349(18) 0.4611(6)
H12_2 H 0.3842 0.4336 0.4375
C3 C 0.0607(7) 0.9208(16) 0.0216(5)
H3 H 0.1071 0.9177 0.0662
S1_2 S 0.89299(18) 0.9147(4) 0.93437(12)
O11_2 O 0.8443(6) 0.7452(13) 0.5942(5)
H5_2 H 0.7977 0.7636 0.6307
H6_2 H 0.8326 0.6659 0.5533
O12_2 O 0.9325(5) 0.8983(12) 0.7505(3)
C3_2 C 0.9393(7) 0.4208(16) 0.9784(5)
H3_2 H 0.8929 0.4177 0.9338
Cl1 Cl 0.381(4) 0.742(10) 0.887(3)
Cl1_2 Cl 0.619(4) 0.242(10) 0.113(3)
loop_
_geom_bond_atom_site_label_1
_geom_bond_atom_site_label_2
_geom_bond_site_symmetry_1
_geom_bond_site_symmetry_2
La2 O2 1_555 1_555
O7 La2 1_555 1_555
O10 N1 1_555 1_555
N1 O2 1_555 1_555
O13 La2 1_555 1_555
H8 O13 1_555 1_555
H9 O13 1_555 1_555
O14 La2 1_555 1_555
H10 O14 1_555 1_555
O16 La2 1_555 1_555
O17 La2 1_555 1_555
La3 O7 1_555 1_555
O19 La2 1_555 1_555
O22 La2 1_555 1_555
La2 O8 1_555 1_555
O7 N1 1_555 1_555
O10 La3 1_555 1_555
O3 C1 1_555 1_555
O4 C1 1_555 1_555
C1 C10 1_555 1_555
O9 C9 1_555 1_555
C5 C4 1_555 1_555
H4 C7 1_555 1_555
C8 C9 1_555 1_555
C9 O15 1_555 1_555
S2 C8 1_555 1_555
C10 S2 1_555 1_555
C11 C10 1_555 1_555
H7 C11 1_555 1_555
O15 La6 1_555 1_555
C12 C8 1_555 1_555
H12 C12 1_555 1_555
La6 O9 1_555 1_555
O4 La3 1_555 1_555
C5 C7 1_555 1_555
C11 C12 1_555 1_555
O1 H1 1_555 1_555
H2 O1 1_555 1_555
La4 O21 1_555 1_555
O5 C2 1_555 1_555
O6 C2 1_555 1_555
C2 C6 1_555 1_555
La6 O5 1_555 1_555
O6 La6 1_555 1_555
O1_2 H1_2 1_555 1_555
H2_2 O1_2 1_555 1_555
H5 O11 1_555 1_555
H6 O11 1_555 1_555
O16 C2_2 1_555 1_555
O17 C2_2 1_555 1_555
C2_2 C6_2 1_555 1_555
H8_2 O13_2 1_555 1_555
H9_2 O13_2 1_555 1_555
La4 O7_2 1_555 1_555
O2_2 La4 1_555 1_555
O3_2 C1_2 1_555 1_555
O4_2 C1_2 1_555 1_555
C1_2 C10_2 1_555 1_555
La6 O2_2 1_555 1_555
O8_2 La4 1_555 1_555
O19 C9_2 1_555 1_555
C4_2 O8_2 1_555 1_555
C5_2 C4_2 1_555 1_555
H4_2 C7_2 1_555 1_555
C8_2 C9_2 1_555 1_555
N1_2 O2_2 1_555 1_555
C9_2 O22 1_555 1_555
S2_2 C8_2 1_555 1_555
C10_2 S2_2 1_555 1_555
C11_2 C10_2 1_555 1_555
H7_2 C11_2 1_555 1_555
O14_2 La6 1_555 1_555
H10_2 O14_2 1_555 1_555
H11_2 O14_2 1_555 1_555
C12_2 C8_2 1_555 1_555
H12_2 C12_2 1_555 1_555
O3_2 La6 1_555 1_555
O4_2 La4 1_555 1_555
La6 O8_2 1_555 1_555
C5_2 C7_2 1_555 1_555
C11_2 C12_2 1_555 1_555
C3 H3 1_555 1_555
H5_2 O11_2 1_555 1_555
H6_2 O11_2 1_555 1_555
C3_2 H3_2 1_555 1_555

#END
