
###############################################################################
#
# This file contains modified crystal structure data generated from the
# MOF subset of the Cambridge Structural Database (CSD) v543 
# hosted by the Cambridge Crystallographic Data Centre (CCDC).
#
# This work is licensed under the Creative Commons
# Attribution-NonCommercial-ShareAlike 4.0 International License.
# To view a copy of this license, visit
# http://creativecommons.org/licenses/by-nc-sa/4.0/
# or send a letter to
# Creative Commons, PO Box 1866, Mountain View, CA 94042, USA.
#
# CIF created using the CSD Python API on 29 September 2022
# The structure has been converted into the P1 space group
# The structure has a 3D framework
# The original CSD entry ICOYIK is in the triclinic crystal system
# The framework has been calculated to contain at least 10.0% void space
# The void calculation uses a probe of radius 1.32A, grid spacing 0.4
# H atom positions have been added when not included in the experimental data
#
###############################################################################

data_ICOYIK
_chemical_formula_moiety         '(C56 H74 La4 N2 O54 S8)n'
_symmetry_cell_setting           triclinic
_symmetry_space_group_name_H-M   'P 1'
_symmetry_Int_Tables_number      1
_space_group_name_Hall           'P 1'
loop_
_symmetry_equiv_pos_site_id
_symmetry_equiv_pos_as_xyz
1 x,y,z
_cell_length_a                   10.4588(16)
_cell_length_b                   14.995(2)
_cell_length_c                   16.699(3)
_cell_angle_alpha                65.446(3)
_cell_angle_beta                 83.487(3)
_cell_angle_gamma                73.305(3)
_cell_volume                     2281.61
loop_
_atom_site_label
_atom_site_type_symbol
_atom_site_fract_x
_atom_site_fract_y
_atom_site_fract_z
H31 H 0.0175461 0.422499 0.155135
N1 N 0.0532(5) 0.1551(4) 0.8039(4)
O17 O 0.1611(5) 0.1203(5) 0.8376(4)
O18 O 0.0435(4) 0.1869(4) 0.7211(3)
La2 La 0.72090(3) 0.50682(2) 0.128970(19)
S1 S 0.44923(16) 0.38702(10) 0.23242(10)
O1 O 0.3779(6) 0.4363(4) 0.1496(4)
O2 O 0.3758(6) 0.4187(4) 0.2968(4)
O3 O 0.5806(5) 0.3988(4) 0.2212(4)
C1 C 0.4637(5) 0.2565(4) 0.2685(3)
C2 C 0.5293(5) 0.2085(4) 0.2159(3)
H4 H 0.5655 0.2448 0.1629
C3 C 0.5419(4) 0.1069(4) 0.2412(3)
C4 C 0.4868(5) 0.0554(4) 0.3214(3)
C5 C 0.4153(4) 0.1044(4) 0.3728(3)
C6 C 0.4062(5) 0.2062(4) 0.3457(3)
H5 H 0.3609 0.2407 0.3800
C7 C 0.6098(4) 0.0556(4) 0.1812(3)
H7 H 0.6915 0.0758 0.1593
C10 C 0.3378(4) 0.0576(3) 0.0479(3)
C11 C 0.4179(5) 0.0373(3) 0.1171(3)
C12 C 0.5236(5) 0.0817(3) 0.1048(3)
C13 C 0.5467(5) 0.1470(3) 0.0218(3)
H9 H 0.6174 0.1763 0.0118
C14 C 0.2237(4) 0.0109(3) 0.0613(3)
H11 H 0.1965 0.0182 0.0048
C18 C 0.0836(4) 0.0156(3) 0.1943(3)
C19 C 0.1059(4) 0.0591(3) 0.1036(3)
C20 C 0.0225(4) 0.1509(4) 0.0522(3)
C23 C 0.1107(5) 0.1560(4) 0.4640(3)
H16 H 0.1445 0.1852 0.4934
C24 C 0.1948(5) 0.0827(4) 0.4396(3)
C25 C 0.1419(4) 0.0395(3) 0.3962(3)
C26 C 0.0063(5) 0.0692(4) 0.3779(3)
C28 C 0.3428(5) 0.0533(4) 0.4548(3)
H18 H 0.3600 0.0718 0.5010
O24 O 0.9470(5) 0.3887(4) 0.1870(4)
O26 O 0.7403(6) 0.4903(4) 0.2818(3)
O27 O 0.8508(4) 0.6258(4) 0.1252(3)
O28 O 0.5511(4) 0.5842(3) 0.0087(3)
O29 O 0.5437(4) 0.6445(3) 0.1443(2)
O30 O 0.7546(5) 0.3698(3) 0.0790(3)
H22 H 0.776212 0.41754 0.32092
H23 H 0.801567 0.52964 0.282745
H26 H 0.464693 0.616485 0.0293094
H30 H 0.959483 0.325394 0.177866
H36 H 0.921 0.589081 0.171659
H37 H 0.893135 0.651259 0.0666648
La1 La 0.79168(2) 0.256042(19) 0.709489(16)
S2 S 0.48935(11) 0.25840(9) 0.84884(8)
O5 O 0.4065(4) 0.2569(3) 0.7875(2)
O6 O 0.4563(4) 0.3555(3) 0.8557(2)
O7 O 0.6305(3) 0.2302(3) 0.8298(2)
C8 C 0.4651(5) 0.1694(3) 0.9531(3)
C9 C 0.3625(4) 0.1245(4) 0.9655(3)
H8 H 0.3098 0.1394 0.9179
H13 H 0.0357 0.1789 0.9917
O19 O 0.9479(4) 0.1627(3) 0.8459(3)
O20 O 0.5903(4) 0.2334(3) 0.6575(3)
O21 O 0.9051(5) 0.4002(3) 0.6053(3)
O22 O 0.8083(5) 0.3687(3) 0.7863(3)
O23 O 0.6086(5) 0.4253(3) 0.6521(4)
O25 O 0.8414(5) 0.5621(4) 0.9856(3)
La5 La 0.27910(3) 0.49318(2) 0.871030(19)
O31 O 0.8318(3) 0.0718(2) 0.7546(2)
O32 O 0.8536(4) 0.2348(3) 0.5699(2)
H20 H 0.59866 0.458911 0.693503
H21 H 0.633834 0.470392 0.593161
H24 H 0.955853 0.416975 0.641488
H25 H 0.966893 0.37593 0.564473
H27 H 0.581587 0.636432 0.956613
H28 H 0.776388 0.592924 0.936209
H29 H 0.887021 0.613028 0.98265
H32 H 0.510064 0.287451 0.659332
H33 H 0.604795 0.23813 0.596214
H34 H 0.834286 0.325652 0.848896
H35 H 0.876612 0.405881 0.756584
O4 O 0.5055(3) 0.9527(3) 0.3514(2)
H1 H 0.4788 0.9397 0.3142
O8 O 0.3995(4) 0.9738(3) 0.2003(2)
H2 H 0.3239 0.9664 0.2050
O12 O 0.1682(3) 0.9282(2) 0.2454(2)
O16 O 0.2295(3) 0.9683(3) 0.3746(3)
H3 H 0.1989 0.9631 0.3342
H6 H 0.6338 0.9826 0.2145
H10 H 0.2534 0.9388 0.0980
H19 H 0.3770 0.9801 0.4746
La3 La 0.20832(2) 0.743958(19) 0.290511(16)
S3 S 0.82243(11) 0.32075(8) 0.02154(8)
S4 S 0.87436(13) 0.28081(9) 0.47588(8)
O13 O 0.7509(4) 0.3178(3) 0.4278(3)
O14 O 0.9434(4) 0.3582(3) 0.4545(3)
C15 C 0.9197(4) 0.2019(3) 0.0894(3)
C16 C 0.8967(4) 0.1590(3) 0.1785(3)
H12 H 0.8263 0.1932 0.2032
C17 C 0.9767(4) 0.0660(3) 0.2317(3)
C21 C 0.9512(4) 0.0231(4) 0.3294(3)
H15 H 0.8557 0.0346 0.3391
C22 C 0.9765(5) 0.1863(4) 0.4450(3)
C27 C 0.9247(5) 0.1435(4) 0.4026(3)
H17 H 0.8336 0.1647 0.3905
S3_2 S 0.17757(11) 0.67925(8) 0.97846(8)
O10 O 0.2454(5) 0.6302(3) 0.9210(3)
S4_2 S 0.12564(13) 0.71919(9) 0.52412(8)
O13_2 O 0.2491(4) 0.6822(3) 0.5722(3)
O14_2 O 0.0566(4) 0.6418(3) 0.5455(3)
O15 O 0.1464(4) 0.7652(3) 0.4301(2)
C15_2 C 0.0803(4) 0.7981(3) 0.9106(3)
C16_2 C 0.1033(4) 0.8410(3) 0.8215(3)
H12_2 H 0.1737 0.8068 0.7968
C17_2 C 0.0233(4) 0.9340(3) 0.7683(3)
C21_2 C 0.0488(4) 0.9769(4) 0.6706(3)
H15_2 H 0.1443 0.9654 0.6609
C22_2 C 0.0235(5) 0.8137(4) 0.5550(3)
C27_2 C 0.0753(5) 0.8565(4) 0.5974(3)
H17_2 H 0.1664 0.8353 0.6095
O4_2 O 0.4945(3) 0.0473(3) 0.6486(2)
H1_2 H 0.5212 0.0603 0.6858
O8_2 O 0.6005(4) 0.0262(3) 0.7997(2)
H2_2 H 0.6761 0.0336 0.7950
O16_2 O 0.7705(3) 0.0317(3) 0.6254(3)
H3_2 H 0.8011 0.0369 0.6658
H6_2 H 0.3662 0.0174 0.7855
H10_2 H 0.7466 0.0612 0.9020
H19_2 H 0.6230 0.0199 0.5254
S2_2 S 0.51065(11) 0.74160(9) 0.15116(8)
O5_2 O 0.5935(4) 0.7431(3) 0.2125(2)
O7_2 O 0.3695(3) 0.7698(3) 0.1702(2)
C8_2 C 0.5349(5) 0.8306(3) 0.0469(3)
C9_2 C 0.6375(4) 0.8755(4) 0.0345(3)
H8_2 H 0.6902 0.8606 0.0821
H13_2 H 0.9643 0.8211 0.0083
O19_2 O 0.0521(4) 0.8373(3) 0.1541(3)
O20_2 O 0.4097(4) 0.7666(3) 0.3425(3)
O21_2 O 0.0949(5) 0.5998(3) 0.3947(3)
O22_2 O 0.1917(5) 0.6313(3) 0.2137(3)
O23_2 O 0.3914(5) 0.5747(3) 0.3479(4)
O25_2 O 0.1586(5) 0.4379(4) 0.0144(3)
H20_2 H 0.40134 0.541089 0.306497
H21_2 H 0.366166 0.529608 0.406839
H24_2 H 0.0441473 0.583025 0.358512
H25_2 H 0.0331067 0.62407 0.435527
H27_2 H 0.418413 0.363568 0.0433874
H28_2 H 0.223612 0.407076 0.063791
H29_2 H 0.112979 0.386972 0.0173501
H32_2 H 0.489936 0.712549 0.340668
H33_2 H 0.395205 0.76187 0.403786
H34_2 H 0.165714 0.674348 0.151104
H35_2 H 0.123388 0.594119 0.243416
S1_2 S 0.55077(16) 0.61298(10) 0.76758(10)
O1_2 O 0.6221(6) 0.5637(4) 0.8504(4)
O2_2 O 0.6242(6) 0.5813(4) 0.7032(4)
O3_2 O 0.4194(5) 0.6012(4) 0.7788(4)
C1_2 C 0.5363(5) 0.7435(4) 0.7315(3)
C2_2 C 0.4707(5) 0.7915(4) 0.7841(3)
H4_2 H 0.4345 0.7552 0.8371
C3_2 C 0.4581(4) 0.8931(4) 0.7588(3)
C4_2 C 0.5132(5) 0.9446(4) 0.6786(3)
C5_2 C 0.5847(4) 0.8956(4) 0.6272(3)
C6_2 C 0.5938(5) 0.7938(4) 0.6543(3)
H5_2 H 0.6391 0.7593 0.6200
C7_2 C 0.3902(4) 0.9444(4) 0.8188(3)
H7_2 H 0.3085 0.9242 0.8407
C10_2 C 0.6622(4) 0.9424(3) 0.9521(3)
C11_2 C 0.5821(5) 0.9627(3) 0.8829(3)
C12_2 C 0.4764(5) 0.9183(3) 0.8952(3)
C13_2 C 0.4533(5) 0.8530(3) 0.9782(3)
H9_2 H 0.3826 0.8237 0.9882
C14_2 C 0.7763(4) 0.9891(3) 0.9387(3)
H11_2 H 0.8035 0.9818 0.9952
C18_2 C 0.9164(4) 0.9844(3) 0.8057(3)
C19_2 C 0.8941(4) 0.9409(3) 0.8964(3)
C20_2 C 0.9775(4) 0.8491(4) 0.9478(3)
C23_2 C 0.8893(5) 0.8440(4) 0.5360(3)
H16_2 H 0.8555 0.8148 0.5066
C24_2 C 0.8052(5) 0.9173(4) 0.5604(3)
C25_2 C 0.8581(4) 0.9605(3) 0.6038(3)
C26_2 C 0.9937(5) 0.9308(4) 0.6221(3)
C28_2 C 0.6572(5) 0.9467(4) 0.5452(3)
H18_2 H 0.6400 0.9282 0.4990
O24_2 O 0.0530(5) 0.6113(4) 0.8130(4)
O26_2 O 0.2597(6) 0.5097(4) 0.7182(3)
O27_2 O 0.1492(4) 0.3742(4) 0.8748(3)
O28_2 O 0.4489(4) 0.4158(3) 0.9913(3)
H22_2 H 0.223788 0.58246 0.67908
H23_2 H 0.198433 0.47036 0.717255
H26_2 H 0.535307 0.383515 0.970691
H30_2 H 0.0405171 0.674606 0.822134
H36_2 H 0.0789997 0.410919 0.828341
H37_2 H 0.106865 0.348741 0.933335
O9 O 0.9124(4) 0.3750(3) 0.9633(3)
O11 O 0.7283(4) 0.3078(3) 0.9752(3)
H14 H 0.9910 0.9503 0.3536
H14_2 H 0.0090 0.0497 0.6464
O9_2 O 0.0876(4) 0.6250(3) 0.0367(3)
O11_2 O 0.2717(4) 0.6922(3) 0.0248(3)
N1_2 N 0.9468(5) 0.8449(4) 0.1961(4)
O17_2 O 0.8389(5) 0.8797(5) 0.1624(4)
O18_2 O 0.9565(4) 0.8131(4) 0.2789(3)
H31_2 H 0.982454 0.577501 0.844865
loop_
_geom_bond_atom_site_label_1
_geom_bond_atom_site_label_2
_geom_bond_site_symmetry_1
_geom_bond_site_symmetry_2
N1 O17 1_555 1_555
N1 O18 1_555 1_555
La2 O3 1_555 1_555
S1 O1 1_555 1_555
O2 S1 1_555 1_555
O3 S1 1_555 1_555
C1 S1 1_555 1_555
C2 C1 1_555 1_555
H4 C2 1_555 1_555
C3 C2 1_555 1_555
C5 C4 1_555 1_555
C6 C1 1_555 1_555
H5 C6 1_555 1_555
C7 C3 1_555 1_555
H7 C7 1_555 1_555
C12 C7 1_555 1_555
H9 C13 1_555 1_555
C14 C10 1_555 1_555
H11 C14 1_555 1_555
C19 C14 1_555 1_555
H16 C23 1_555 1_555
C24 C23 1_555 1_555
C28 C5 1_555 1_555
H18 C28 1_555 1_555
O24 La2 1_555 1_555
O26 La2 1_555 1_555
O27 La2 1_555 1_555
O28 La2 1_555 1_555
O29 La2 1_555 1_555
O30 La2 1_555 1_555
C3 C4 1_555 1_555
C5 C6 1_555 1_555
C10 C11 1_555 1_555
C11 C12 1_555 1_555
C12 C13 1_555 1_555
C18 C19 1_555 1_555
C19 C20 1_555 1_555
C24 C25 1_555 1_555
C24 C28 1_555 1_555
C25 C26 1_555 1_555
O26 H22 1_555 1_555
O26 H23 1_555 1_555
O28 H26 1_555 1_555
O24 H30 1_555 1_555
O27 H36 1_555 1_555
O27 H37 1_555 1_555
La1 O7 1_555 1_555
S2 O5 1_555 1_555
O6 S2 1_555 1_555
O7 S2 1_555 1_555
C8 S2 1_555 1_555
C9 C8 1_555 1_555
H8 C9 1_555 1_555
O19 La1 1_555 1_555
O20 La1 1_555 1_555
O21 La1 1_555 1_555
O22 La1 1_555 1_555
O23 La1 1_555 1_555
La5 O6 1_555 1_555
O31 La1 1_555 1_555
O32 La1 1_555 1_555
O23 H20 1_555 1_555
O23 H21 1_555 1_555
O21 H24 1_555 1_555
O21 H25 1_555 1_555
O25 H28 1_555 1_555
O25 H29 1_555 1_555
O20 H32 1_555 1_555
O20 H33 1_555 1_555
O22 H34 1_555 1_555
O22 H35 1_555 1_555
O4 H1 1_555 1_555
O8 H2 1_555 1_555
O16 H3 1_555 1_555
La3 O12 1_555 1_555
O30 S3 1_555 1_555
S4 O13 1_555 1_555
O14 S4 1_555 1_555
O32 S4 1_555 1_555
C15 S3 1_555 1_555
C16 C15 1_555 1_555
H12 C16 1_555 1_555
C17 C16 1_555 1_555
C21 C17 1_555 1_555
H15 C21 1_555 1_555
C22 S4 1_555 1_555
C27 C22 1_555 1_555
H17 C27 1_555 1_555
O10 S3_2 1_555 1_555
S4_2 O13_2 1_555 1_555
O14_2 S4_2 1_555 1_555
O15 S4_2 1_555 1_555
C15_2 S3_2 1_555 1_555
C16_2 C15_2 1_555 1_555
H12_2 C16_2 1_555 1_555
C17_2 C16_2 1_555 1_555
C21_2 C17_2 1_555 1_555
H15_2 C21_2 1_555 1_555
C22_2 S4_2 1_555 1_555
C27_2 C22_2 1_555 1_555
H17_2 C27_2 1_555 1_555
La3 O15 1_555 1_555
La5 O10 1_555 1_555
O4_2 H1_2 1_555 1_555
O8_2 H2_2 1_555 1_555
O16_2 H3_2 1_555 1_555
La3 O7_2 1_555 1_555
S2_2 O5_2 1_555 1_555
O29 S2_2 1_555 1_555
O7_2 S2_2 1_555 1_555
C8_2 S2_2 1_555 1_555
C9_2 C8_2 1_555 1_555
H8_2 C9_2 1_555 1_555
O19_2 La3 1_555 1_555
O20_2 La3 1_555 1_555
O21_2 La3 1_555 1_555
O22_2 La3 1_555 1_555
O23_2 La3 1_555 1_555
O23_2 H20_2 1_555 1_555
O23_2 H21_2 1_555 1_555
O21_2 H24_2 1_555 1_555
O21_2 H25_2 1_555 1_555
O25_2 H28_2 1_555 1_555
O25_2 H29_2 1_555 1_555
O20_2 H32_2 1_555 1_555
O20_2 H33_2 1_555 1_555
O22_2 H34_2 1_555 1_555
O22_2 H35_2 1_555 1_555
La5 O3_2 1_555 1_555
S1_2 O1_2 1_555 1_555
O2_2 S1_2 1_555 1_555
O3_2 S1_2 1_555 1_555
C1_2 S1_2 1_555 1_555
C2_2 C1_2 1_555 1_555
H4_2 C2_2 1_555 1_555
C3_2 C2_2 1_555 1_555
C5_2 C4_2 1_555 1_555
C6_2 C1_2 1_555 1_555
H5_2 C6_2 1_555 1_555
C7_2 C3_2 1_555 1_555
H7_2 C7_2 1_555 1_555
C12_2 C7_2 1_555 1_555
H9_2 C13_2 1_555 1_555
C14_2 C10_2 1_555 1_555
H11_2 C14_2 1_555 1_555
C19_2 C14_2 1_555 1_555
H16_2 C23_2 1_555 1_555
C24_2 C23_2 1_555 1_555
C28_2 C5_2 1_555 1_555
H18_2 C28_2 1_555 1_555
O24_2 La5 1_555 1_555
O26_2 La5 1_555 1_555
O27_2 La5 1_555 1_555
O28_2 La5 1_555 1_555
C3_2 C4_2 1_555 1_555
C5_2 C6_2 1_555 1_555
C10_2 C11_2 1_555 1_555
C11_2 C12_2 1_555 1_555
C12_2 C13_2 1_555 1_555
C18_2 C19_2 1_555 1_555
C19_2 C20_2 1_555 1_555
C24_2 C25_2 1_555 1_555
C24_2 C28_2 1_555 1_555
C25_2 C26_2 1_555 1_555
O26_2 H22_2 1_555 1_555
O26_2 H23_2 1_555 1_555
O28_2 H26_2 1_555 1_555
O24_2 H30_2 1_555 1_555
O27_2 H36_2 1_555 1_555
O27_2 H37_2 1_555 1_555
N1_2 O17_2 1_555 1_555
N1_2 O18_2 1_555 1_555

#END
