
###############################################################################
#
# This file contains modified crystal structure data generated from the
# MOF subset of the Cambridge Structural Database (CSD) v543 
# hosted by the Cambridge Crystallographic Data Centre (CCDC).
#
# This work is licensed under the Creative Commons
# Attribution-NonCommercial-ShareAlike 4.0 International License.
# To view a copy of this license, visit
# http://creativecommons.org/licenses/by-nc-sa/4.0/
# or send a letter to
# Creative Commons, PO Box 1866, Mountain View, CA 94042, USA.
#
# CIF created using the CSD Python API on 29 September 2022
# The structure has been converted into the P1 space group
# The structure has a 3D framework
# The original CSD entry ICUZIT is in the orthorhombic crystal system
# The original CSD entry ICUZIT is in a Sohncke space group
# The framework has been calculated to contain at least 10.0% void space
# The void calculation uses a probe of radius 1.32A, grid spacing 0.4
#
###############################################################################

data_ICUZIT
_chemical_formula_moiety         '(C80 H240 Cl16 Co8 N32 O54 Pd8 Pt8 S16 2-)n'
_symmetry_cell_setting           triclinic
_symmetry_space_group_name_H-M   'P 1'
_symmetry_Int_Tables_number      1
_space_group_name_Hall           'P 1'
loop_
_symmetry_equiv_pos_site_id
_symmetry_equiv_pos_as_xyz
1 x,y,z
_cell_length_a                   9.0942(2)
_cell_length_b                   21.9908(5)
_cell_length_c                   30.830(8)
_cell_angle_alpha                90
_cell_angle_beta                 90
_cell_angle_gamma                90
_cell_volume                     6165.65
loop_
_atom_site_label
_atom_site_type_symbol
_atom_site_fract_x
_atom_site_fract_y
_atom_site_fract_z
Cl1 Cl 0.7634(3) 0.72398(11) 0.24091(10)
Cl1_2 Cl 0.7366(3) 0.27602(11) 0.74091(10)
Cl1_3 Cl 0.2634(3) 0.77602(11) 0.75909(10)
Cl1_4 Cl 0.2366(3) 0.22398(11) 0.25909(10)
Cl2 Cl 0.6268(4) 0.93936(13) 0.27617(12)
Cl2_2 Cl 0.8732(4) 0.06064(13) 0.77617(12)
Cl2_3 Cl 0.1268(4) 0.56064(13) 0.72383(12)
Cl2_4 Cl 0.3732(4) 0.43936(13) 0.22383(12)
Cl3 Cl 0.1361(4) 0.66863(15) 0.47843(13)
Cl3_2 Cl 0.3639(4) 0.33137(15) 0.97843(13)
Cl3_3 Cl 0.6361(4) 0.83137(15) 0.52157(13)
Cl3_4 Cl 0.8639(4) 0.16863(15) 0.02157(13)
Cl4 Cl 0.9203(4) 0.87121(18) 0.11428(15)
Cl4_2 Cl 0.5797(4) 0.12879(18) 0.61428(15)
Cl4_3 Cl 0.4203(4) 0.62879(18) 0.88572(15)
Cl4_4 Cl 0.0797(4) 0.37121(18) 0.38572(15)
O10 O 0.0539(9) 0.0014(4) 0.0867(3)
O11 O 0.1571(9) 0.0956(3) 0.0310(3)
H51 H 0.061196 0.029373 0.106515
H53 H 0.213091 0.126747 0.024233
H54 H 0.070808 0.111856 0.035234
Co4 Co 0.22376(17) 0.00795(6) 0.04255(5)
O15 O 0.3637(8) 0.0454(3) 0.0899(3)
O17 O 0.5925(9) 0.0531(3) 0.0625(3)
Pt1 Pt 0.26272(4) 0.65038(2) 0.24011(2)
S1 S 0.1363(3) 0.66570(10) 0.17635(9)
S2 S 0.3850(3) 0.66332(10) 0.30481(9)
N1 N 0.4666(10) 0.6473(4) 0.2096(3)
N2 N 0.0599(10) 0.6450(4) 0.2704(3)
Pd1 Pd 0.22551(9) 0.73488(3) 0.12897(2)
C1 C 0.1110(11) 0.5983(4) 0.1405(4)
Pd2 Pd 0.27049(8) 0.72221(3) 0.35480(2)
C2 C 0.4026(11) 0.5918(4) 0.3379(4)
H1 H 0.512792 0.611856 0.216543
H2 H 0.522323 0.679256 0.218579
H3 H 0.453963 0.649301 0.180367
H4 H 0.014227 0.609895 0.262452
H5 H 0.003622 0.677327 0.262365
H6 H 0.072575 0.645418 0.299668
S3 S 0.3723(3) 0.78762(10) 0.17512(9)
N3 N 0.1205(11) 0.6805(4) 0.0832(3)
N4 N 0.2654(11) 0.8053(3) 0.0870(3)
C3 C 0.0327(13) 0.6296(5) 0.1012(4)
C4 C 0.0110(14) 0.5553(5) 0.1646(4)
C5 C 0.2544(13) 0.5702(4) 0.1274(4)
S4 S 0.1460(3) 0.78104(11) 0.30746(9)
N5 N 0.3697(10) 0.6647(4) 0.3991(3)
N6 N 0.1737(10) 0.7776(4) 0.4020(3)
C6 C 0.4749(12) 0.6176(4) 0.3796(4)
C7 C 0.2566(13) 0.5628(4) 0.3464(3)
C8 C 0.5036(13) 0.5512(5) 0.3127(4)
Pt2 Pt 0.26249(4) 0.79894(2) 0.24234(2)
C9 C 0.3962(12) 0.8612(4) 0.1452(4)
H7 H 0.059936 0.704481 0.067026
H8 H 0.189699 0.664905 0.065017
H9 H 0.275314 0.789801 0.059762
H10 H 0.185656 0.830259 0.086858
C10 C 0.3957(12) 0.8417(4) 0.0969(4)
H14 H 0.061295 0.540270 0.190553
H15 H 0.302424 0.552723 0.152974
H16 H 0.318083 0.601414 0.114675
H17 H 0.236414 0.538111 0.105999
C12 C 0.1149(12) 0.8487(4) 0.3417(4)
H18 H 0.420526 0.687623 0.418581
H19 H 0.298135 0.644594 0.413993
H20 H 0.127833 0.753543 0.421780
H21 H 0.245931 0.798393 0.416047
C13 C 0.0652(13) 0.8221(5) 0.3845(4)
C14 C 0.5068(12) 0.5688(4) 0.4129(4)
H22 H 0.569109 0.638198 0.371580
H23 H 0.217726 0.545757 0.319388
H24 H 0.188104 0.593499 0.357578
H25 H 0.268200 0.530333 0.367883
H26 H 0.533987 0.516968 0.330938
H27 H 0.590525 0.574313 0.303676
H28 H 0.452300 0.535839 0.286976
N7 N 0.0561(9) 0.8047(4) 0.2148(3)
N8 N 0.4692(9) 0.8025(4) 0.2700(3)
C15 C 0.5508(12) 0.8860(5) 0.1586(4)
C16 C 0.2779(13) 0.9054(4) 0.1567(4)
C17 C 0.4023(12) 0.8992(4) 0.0678(4)
H29 H 0.485181 0.816445 0.091183
O1 O 0.0918(9) 0.5763(3) 0.0359(3)
C18 C 0.2540(15) 0.8870(4) 0.3465(4)
C20 C 0.0276(14) 0.8694(5) 0.4185(4)
O3 O 0.6363(8) 0.5454(3) 0.4101(3)
O4 O 0.4075(9) 0.5531(3) 0.4375(3)
H31 H 0.019760 0.842911 0.218628
H33 H 0.062290 0.796485 0.185928
H34 H 0.505421 0.840964 0.267728
H35 H 0.530118 0.776252 0.255915
H36 H 0.463193 0.791905 0.298446
H37 H 0.583527 0.916267 0.137335
H38 H 0.621378 0.852291 0.159412
H39 H 0.544595 0.904823 0.187294
H40 H 0.291187 0.942875 0.139906
H41 H 0.282925 0.914695 0.187702
H42 H 0.181739 0.887631 0.149875
O5 O 0.2786(9) 0.9195(3) 0.0549(3)
O6 O 0.5236(8) 0.9199(3) 0.0589(3)
H43 H 0.237149 0.919088 0.368007
H44 H 0.278781 0.905429 0.318523
H45 H 0.335353 0.861046 0.356122
H47 H 0.039051 0.903401 0.290241
O7 O 0.1107(11) 0.8737(4) 0.4517(3)
Co2 Co 0.77624(17) 0.50795(6) 0.45745(5)
O13 O 0.7994(9) 0.9481(3) 0.0340(3)
H52 H 0.030974 0.966685 0.099113
H57 H 0.871388 0.971678 0.024965
H58 H 0.807889 0.949063 0.062597
Co3 Co 0.40301(16) 0.48529(6) 0.48413(5)
Co5 Co 0.59699(16) 0.98529(6) 0.01587(5)
Co1 Co 0.09699(16) 0.51471(6) 0.98413(5)
O12 O 0.0740(9) 0.9713(3) 0.9963(3)
H55 H 0.068634 0.995733 0.972963
H56 H 0.094337 0.935131 0.988457
O16 O 0.5918(9) 0.9237(3) 0.9641(3)
Pt1_2 Pt 0.23728(4) 0.34962(2) 0.74011(2)
S1_2 S 0.3637(3) 0.33430(10) 0.67635(9)
S2_2 S 0.1150(3) 0.33668(10) 0.80481(9)
N1_2 N 0.0334(10) 0.3527(4) 0.7096(3)
N2_2 N 0.4401(10) 0.3550(4) 0.7704(3)
Pd1_2 Pd 0.27449(9) 0.26512(3) 0.62897(2)
C1_2 C 0.3890(11) 0.4017(4) 0.6405(4)
Pd2_2 Pd 0.22951(8) 0.27779(3) 0.85480(2)
C2_2 C 0.0974(11) 0.4082(4) 0.8379(4)
H3_2 H 0.046037 0.350699 0.680367
H4_2 H 0.485773 0.390105 0.762452
H5_2 H 0.496378 0.322673 0.762365
H6_2 H 0.427425 0.354582 0.799668
S3_2 S 0.1277(3) 0.21238(10) 0.67512(9)
N3_2 N 0.3795(11) 0.3195(4) 0.5832(3)
N4_2 N 0.2346(11) 0.1947(3) 0.5870(3)
C3_2 C 0.4673(13) 0.3704(5) 0.6012(4)
C4_2 C 0.4890(14) 0.4447(5) 0.6646(4)
C5_2 C 0.2456(13) 0.4298(4) 0.6274(4)
S4_2 S 0.3540(3) 0.21896(11) 0.80746(9)
N5_2 N 0.1303(10) 0.3353(4) 0.8991(3)
N6_2 N 0.3263(10) 0.2224(4) 0.9020(3)
C6_2 C 0.0251(12) 0.3824(4) 0.8796(4)
C7_2 C 0.2434(13) 0.4372(4) 0.8464(3)
Pt2_2 Pt 0.23751(4) 0.20106(2) 0.74234(2)
C9_2 C 0.1038(12) 0.1388(4) 0.6452(4)
H7_2 H 0.440064 0.295519 0.567026
H8_2 H 0.310301 0.335095 0.565017
H9_2 H 0.224686 0.210199 0.559762
H10_2 H 0.314344 0.169741 0.586858
C10_2 C 0.1043(12) 0.1583(4) 0.5969(4)
C11 C 0.5036(12) 0.4169(4) 0.5662(4)
H11 H 0.562230 0.353204 0.611947
H12 H 0.514188 0.479044 0.645732
H13 H 0.578947 0.423259 0.673050
H14_2 H 0.438705 0.459730 0.690553
H15_2 H 0.197576 0.447277 0.652974
H16_2 H 0.181917 0.398586 0.614675
H17_2 H 0.263586 0.461889 0.605999
C12_2 C 0.3851(12) 0.1513(4) 0.8417(4)
H18_2 H 0.079474 0.312377 0.918581
H19_2 H 0.201865 0.355406 0.913993
H20_2 H 0.372167 0.246457 0.921780
H21_2 H 0.254069 0.201607 0.916047
C13_2 C 0.4348(13) 0.1779(5) 0.8845(4)
H23_2 H 0.282274 0.454243 0.819388
H24_2 H 0.311896 0.406501 0.857578
H25_2 H 0.231800 0.469667 0.867883
H28_2 H 0.047700 0.464161 0.786976
N7_2 N 0.4439(9) 0.1953(4) 0.7148(3)
N8_2 N 0.0308(9) 0.1975(4) 0.7700(3)
C16_2 C 0.2221(13) 0.0946(4) 0.6567(4)
C17_2 C 0.0977(12) 0.1008(4) 0.5678(4)
H29_2 H 0.014819 0.183555 0.591183
O1_2 O 0.4082(9) 0.4237(3) 0.5359(3)
O2 O 0.6186(9) 0.4468(3) 0.5697(3)
C18_2 C 0.2460(15) 0.1130(4) 0.8465(4)
C19 C 0.5044(14) 0.1138(5) 0.8166(4)
C20_2 C 0.4724(14) 0.1306(5) 0.9185(4)
H30 H 0.527134 0.201103 0.878564
O4_2 O 0.0925(9) 0.4469(3) 0.9375(3)
H31_2 H 0.480240 0.157089 0.718628
H32 H 0.504882 0.222673 0.727689
H33_2 H 0.437710 0.203515 0.685928
H36_2 H 0.036807 0.208095 0.798446
H40_2 H 0.208813 0.057125 0.639906
H41_2 H 0.217075 0.085305 0.687702
H42_2 H 0.318261 0.112369 0.649875
O5_2 O 0.2214(9) 0.0805(3) 0.5549(3)
H43_2 H 0.262851 0.080912 0.868007
H44_2 H 0.221219 0.094571 0.818523
H45_2 H 0.164647 0.138954 0.856122
H46 H 0.586525 0.140447 0.808792
H47_2 H 0.460949 0.096599 0.790241
H48 H 0.540346 0.080745 0.835164
O7_2 O 0.3893(11) 0.1263(4) 0.9517(3)
O8 O 0.5818(11) 0.0947(4) 0.9116(3)
O12_2 O 0.4260(9) 0.0287(3) 0.4963(3)
H52_2 H 0.469026 0.033315 0.599113
H55_2 H 0.431366 0.004267 0.472963
H56_2 H 0.405663 0.064869 0.488457
O9 O 0.1131(8) 0.9808(3) 0.4937(2)
O10_2 O 0.4461(9) 0.9986(4) 0.5867(3)
O11_2 O 0.3429(9) 0.9044(3) 0.5310(3)
H49 H 0.105315 0.943313 0.487277
H50 H 0.138836 0.999859 0.470914
H51_2 H 0.438804 0.970627 0.606515
H53_2 H 0.286909 0.873253 0.524233
H54_2 H 0.429192 0.888144 0.535234
Co4_2 Co 0.27624(17) 0.99205(6) 0.54255(5)
O15_2 O 0.1363(8) 0.9546(3) 0.5899(3)
H1_2 H 0.987208 0.388144 0.716543
H2_2 H 0.977677 0.320744 0.718579
C8_2 C 0.9964(13) 0.4488(5) 0.8127(4)
C14_2 C 0.9932(12) 0.4312(4) 0.9129(4)
H22_2 H 0.930891 0.361802 0.871580
H26_2 H 0.966013 0.483032 0.830938
H27_2 H 0.909475 0.425687 0.803676
C15_2 C 0.9492(12) 0.1140(5) 0.6586(4)
O3_2 O 0.8637(8) 0.4546(3) 0.9101(3)
H34_2 H 0.994579 0.159036 0.767728
H35_2 H 0.969882 0.223748 0.755915
H37_2 H 0.916473 0.083733 0.637335
H38_2 H 0.878622 0.147709 0.659412
H39_2 H 0.955405 0.095177 0.687294
O6_2 O 0.9764(8) 0.0801(3) 0.5589(3)
Co2_2 Co 0.72376(17) 0.49205(6) 0.95745(5)
O13_2 O 0.7006(9) 0.0519(3) 0.5340(3)
H57_2 H 0.628612 0.028322 0.524965
H58_2 H 0.692111 0.050937 0.562597
Co5_2 Co 0.90301(16) 0.01471(6) 0.51587(5)
O16_2 O 0.9082(9) 0.0763(3) 0.4641(3)
O14 O 0.7845(9) 0.9523(3) 0.4778(2)
H59 H 0.829957 0.947024 0.452976
H60 H 0.699830 0.967914 0.470617
O17_2 O 0.9075(9) 0.9469(3) 0.5625(3)
O14_2 O 0.2155(9) 0.4523(3) 0.0222(2)
H59_2 H 0.170043 0.447024 0.047024
H60_2 H 0.300170 0.467914 0.029383
H1_3 H 0.012792 0.888144 0.783457
H2_3 H 0.022323 0.820744 0.781421
C8_3 C 0.0036(13) 0.9488(5) 0.6873(4)
C14_3 C 0.0068(12) 0.9312(4) 0.5871(4)
H22_3 H 0.069109 0.861802 0.628420
H26_3 H 0.033987 0.983032 0.669062
H27_3 H 0.090525 0.925687 0.696324
C15_3 C 0.0508(12) 0.6140(5) 0.8414(4)
H34_3 H 0.005421 0.659036 0.732272
H35_3 H 0.030118 0.723748 0.744085
H37_3 H 0.083527 0.583733 0.862665
H38_3 H 0.121378 0.647709 0.840588
H39_3 H 0.044595 0.595177 0.812706
O6_3 O 0.0236(8) 0.5801(3) 0.9411(3)
O13_3 O 0.2994(9) 0.5519(3) 0.9660(3)
H57_3 H 0.371388 0.528322 0.975035
H58_3 H 0.307889 0.550937 0.937403
O9_2 O 0.8869(8) 0.4808(3) 0.0063(2)
O12_3 O 0.5740(9) 0.5287(3) 0.0037(3)
H49_2 H 0.894685 0.443313 0.012723
H50_2 H 0.861164 0.499859 0.029086
H55_3 H 0.568634 0.504267 0.027037
H56_3 H 0.594337 0.564869 0.011543
Pt1_3 Pt 0.76272(4) 0.84962(2) 0.75989(2)
S1_3 S 0.6363(3) 0.83430(10) 0.82365(9)
S2_3 S 0.8850(3) 0.83668(10) 0.69519(9)
N1_3 N 0.9666(10) 0.8527(4) 0.7904(3)
N2_3 N 0.5599(10) 0.8550(4) 0.7296(3)
Pd1_3 Pd 0.72551(9) 0.76512(3) 0.87103(2)
C1_3 C 0.6110(11) 0.9017(4) 0.8595(4)
Pd2_3 Pd 0.77049(8) 0.77779(3) 0.64520(2)
C2_3 C 0.9026(11) 0.9082(4) 0.6621(4)
H3_3 H 0.953963 0.850699 0.819633
H4_3 H 0.514227 0.890105 0.737548
H5_3 H 0.503622 0.822673 0.737635
H6_3 H 0.572575 0.854582 0.700332
S3_3 S 0.8723(3) 0.71238(10) 0.82488(9)
N3_3 N 0.6205(11) 0.8195(4) 0.9168(3)
N4_3 N 0.7654(11) 0.6947(3) 0.9130(3)
C3_3 C 0.5327(13) 0.8704(5) 0.8988(4)
C4_3 C 0.5110(14) 0.9447(5) 0.8354(4)
C5_3 C 0.7544(13) 0.9298(4) 0.8726(4)
S4_3 S 0.6460(3) 0.71896(11) 0.69254(9)
N5_3 N 0.8697(10) 0.8353(4) 0.6009(3)
N6_3 N 0.6737(10) 0.7224(4) 0.5980(3)
C6_3 C 0.9749(12) 0.8824(4) 0.6204(4)
C7_3 C 0.7566(13) 0.9372(4) 0.6536(3)
Pt2_3 Pt 0.76249(4) 0.70106(2) 0.75766(2)
C9_3 C 0.8962(12) 0.6388(4) 0.8548(4)
H7_3 H 0.559936 0.795519 0.932974
H8_3 H 0.689699 0.835095 0.934983
H9_3 H 0.775314 0.710199 0.940238
H10_3 H 0.685656 0.669741 0.913142
C10_3 C 0.8957(12) 0.6583(4) 0.9031(4)
C11_2 C 0.4964(12) 0.9169(4) 0.9338(4)
H11_2 H 0.437770 0.853204 0.888053
H12_2 H 0.485812 0.979044 0.854268
H13_2 H 0.421053 0.923259 0.826950
H14_3 H 0.561295 0.959730 0.809447
H15_3 H 0.802424 0.947277 0.847026
H16_3 H 0.818083 0.898586 0.885325
H17_3 H 0.736414 0.961889 0.894001
C12_3 C 0.6149(12) 0.6513(4) 0.6583(4)
H18_3 H 0.920526 0.812377 0.581419
H19_3 H 0.798135 0.855406 0.586007
H20_3 H 0.627833 0.746457 0.578220
H21_3 H 0.745931 0.701607 0.583953
C13_3 C 0.5652(13) 0.6779(5) 0.6155(4)
H23_3 H 0.717726 0.954243 0.680612
H24_3 H 0.688104 0.906501 0.642422
H25_3 H 0.768200 0.969667 0.632117
H28_3 H 0.952300 0.964161 0.713024
N7_3 N 0.5561(9) 0.6953(4) 0.7852(3)
N8_3 N 0.9692(9) 0.6975(4) 0.7300(3)
C16_3 C 0.7779(13) 0.5946(4) 0.8433(4)
C17_3 C 0.9023(12) 0.6008(4) 0.9322(4)
H29_3 H 0.985181 0.683555 0.908817
O2_2 O 0.3814(9) 0.9468(3) 0.9303(3)
C18_3 C 0.7540(15) 0.6130(4) 0.6535(4)
C19_2 C 0.4956(14) 0.6138(5) 0.6834(4)
C20_3 C 0.5276(14) 0.6306(5) 0.5815(4)
H30_2 H 0.472866 0.701103 0.621436
H31_3 H 0.519760 0.657089 0.781372
H32_2 H 0.495118 0.722673 0.772311
H33_3 H 0.562290 0.703515 0.814072
H36_3 H 0.963193 0.708095 0.701554
H40_3 H 0.791187 0.557125 0.860094
H41_3 H 0.782925 0.585305 0.812298
H42_3 H 0.681739 0.612369 0.850125
O5_3 O 0.7786(9) 0.5805(3) 0.9451(3)
H43_3 H 0.737149 0.580912 0.631993
H44_3 H 0.778781 0.594571 0.681477
H45_3 H 0.835353 0.638954 0.643878
H46_2 H 0.413475 0.640447 0.691208
H47_3 H 0.539051 0.596599 0.709759
H48_2 H 0.459654 0.580745 0.664836
O7_3 O 0.6107(11) 0.6263(4) 0.5483(3)
O8_2 O 0.4182(11) 0.5947(4) 0.5884(3)
O10_3 O 0.5539(9) 0.4986(4) 0.9133(3)
O11_3 O 0.6571(9) 0.4044(3) 0.9690(3)
H51_3 H 0.561196 0.470627 0.893485
H52_3 H 0.530974 0.533315 0.900887
H53_3 H 0.713091 0.373253 0.975767
H54_3 H 0.570808 0.388144 0.964766
Pt1_4 Pt 0.73728(4) 0.15038(2) 0.25989(2)
S1_4 S 0.8637(3) 0.16570(10) 0.32365(9)
S2_4 S 0.6150(3) 0.16332(10) 0.19519(9)
N1_4 N 0.5334(10) 0.1473(4) 0.2904(3)
N2_4 N 0.9401(10) 0.1450(4) 0.2296(3)
Pd1_4 Pd 0.77449(9) 0.23488(3) 0.37103(2)
C1_4 C 0.8890(11) 0.0983(4) 0.3595(4)
Pd2_4 Pd 0.72951(8) 0.22221(3) 0.14520(2)
C2_4 C 0.5974(11) 0.0918(4) 0.1621(4)
H1_4 H 0.487208 0.111856 0.283457
H2_4 H 0.477677 0.179256 0.281421
H3_4 H 0.546037 0.149301 0.319633
H4_4 H 0.985773 0.109895 0.237548
H5_4 H 0.996378 0.177327 0.237635
H6_4 H 0.927425 0.145418 0.200332
S3_4 S 0.6277(3) 0.28762(10) 0.32488(9)
N3_4 N 0.8795(11) 0.1805(4) 0.4168(3)
N4_4 N 0.7346(11) 0.3053(3) 0.4130(3)
C3_4 C 0.9673(13) 0.1296(5) 0.3988(4)
C4_4 C 0.9890(14) 0.0553(5) 0.3354(4)
C5_4 C 0.7456(13) 0.0702(4) 0.3726(4)
S4_4 S 0.8540(3) 0.28104(11) 0.19254(9)
N5_4 N 0.6303(10) 0.1647(4) 0.1009(3)
N6_4 N 0.8263(10) 0.2776(4) 0.0980(3)
C6_4 C 0.5251(12) 0.1176(4) 0.1204(4)
C7_4 C 0.7434(13) 0.0628(4) 0.1536(3)
C8_4 C 0.4964(13) 0.0512(5) 0.1873(4)
Pt2_4 Pt 0.73751(4) 0.29894(2) 0.25766(2)
C9_4 C 0.6038(12) 0.3612(4) 0.3548(4)
H7_4 H 0.940064 0.204481 0.432974
H8_4 H 0.810301 0.164905 0.434983
H9_4 H 0.724686 0.289801 0.440238
H10_4 H 0.814344 0.330259 0.413142
C10_4 C 0.6043(12) 0.3417(4) 0.4031(4)
H14_4 H 0.938705 0.040270 0.309447
H15_4 H 0.697576 0.052723 0.347026
H16_4 H 0.681917 0.101414 0.385325
H17_4 H 0.763586 0.038111 0.394001
C12_4 C 0.8851(12) 0.3487(4) 0.1583(4)
H18_4 H 0.579474 0.187623 0.081419
H19_4 H 0.701865 0.144594 0.086007
H20_4 H 0.872167 0.253543 0.078220
H21_4 H 0.754069 0.298393 0.083953
C13_4 C 0.9348(13) 0.3221(5) 0.1155(4)
C14_4 C 0.4932(12) 0.0688(4) 0.0871(4)
H22_4 H 0.430891 0.138198 0.128420
H23_4 H 0.782274 0.045757 0.180612
H24_4 H 0.811896 0.093499 0.142422
H25_4 H 0.731800 0.030333 0.132117
H26_4 H 0.466013 0.016968 0.169062
H27_4 H 0.409475 0.074313 0.196324
H28_4 H 0.547700 0.035839 0.213024
N7_4 N 0.9439(9) 0.3047(4) 0.2852(3)
N8_4 N 0.5308(9) 0.3025(4) 0.2300(3)
C15_4 C 0.4492(12) 0.3860(5) 0.3414(4)
C16_4 C 0.7221(13) 0.4054(4) 0.3433(4)
C17_4 C 0.5977(12) 0.3992(4) 0.4322(4)
H29_4 H 0.514819 0.316445 0.408817
C18_4 C 0.7460(15) 0.3870(4) 0.1535(4)
C20_4 C 0.9724(14) 0.3694(5) 0.0815(4)
H31_4 H 0.980240 0.342911 0.281372
H33_4 H 0.937710 0.296485 0.314072
H34_4 H 0.494579 0.340964 0.232272
H35_4 H 0.469882 0.276252 0.244085
H36_4 H 0.536807 0.291905 0.201554
H37_4 H 0.416473 0.416267 0.362665
H38_4 H 0.378622 0.352291 0.340588
H39_4 H 0.455405 0.404823 0.312706
H40_4 H 0.708813 0.442875 0.360094
H41_4 H 0.717075 0.414695 0.312298
H42_4 H 0.818261 0.387631 0.350125
O5_4 O 0.7214(9) 0.4195(3) 0.4451(3)
O6_4 O 0.4764(8) 0.4199(3) 0.4411(3)
H43_4 H 0.762851 0.419088 0.131993
H44_4 H 0.721219 0.405429 0.181477
H45_4 H 0.664647 0.361046 0.143878
H47_4 H 0.960949 0.403401 0.209759
O7_4 O 0.8893(11) 0.3737(4) 0.0483(3)
O9_3 O 0.6131(8) 0.5192(3) 0.5063(2)
O10_4 O 0.9461(9) 0.5014(4) 0.4133(3)
O11_4 O 0.8429(9) 0.5956(3) 0.4690(3)
O12_4 O 0.9260(9) 0.4713(3) 0.5037(3)
O13_4 O 0.2006(9) 0.4481(3) 0.4660(3)
O14_3 O 0.2845(9) 0.5477(3) 0.5222(2)
H49_3 H 0.605315 0.556687 0.512723
H50_3 H 0.638836 0.500141 0.529086
H51_4 H 0.938804 0.529373 0.393485
H52_4 H 0.969026 0.466685 0.400887
H53_4 H 0.786909 0.626747 0.475767
H54_4 H 0.929192 0.611856 0.464766
H55_4 H 0.931366 0.495733 0.527037
H56_4 H 0.905663 0.435131 0.511543
H57_4 H 0.128612 0.471678 0.475035
H58_4 H 0.192111 0.449063 0.437403
H59_3 H 0.329957 0.552976 0.547024
H60_3 H 0.199830 0.532086 0.529383
O9_4 O 0.3869(8) 0.0192(3) 0.9937(2)
O14_4 O 0.7155(9) 0.0477(3) 0.9778(2)
H49_4 H 0.394685 0.056687 0.987277
H50_4 H 0.361164 0.000141 0.970914
H59_4 H 0.670043 0.052976 0.952976
H60_4 H 0.800170 0.032086 0.970617
C11_3 C 0.9964(12) 0.5831(4) 0.0662(4)
H11_3 H 0.937770 0.646796 0.111947
H12_3 H 0.985812 0.520956 0.145732
H13_3 H 0.921053 0.576741 0.173050
O2_3 O 0.8814(9) 0.5532(3) 0.0697(3)
C19_3 C 0.9956(14) 0.8862(5) 0.3166(4)
H30_3 H 0.972866 0.798897 0.378564
H32_3 H 0.995118 0.777327 0.227689
H46_3 H 0.913475 0.859553 0.308792
H48_3 H 0.959654 0.919255 0.335164
O8_3 O 0.9182(11) 0.9053(4) 0.4116(3)
C11_4 C 0.0036(12) 0.0831(4) 0.4338(4)
H11_4 H 0.062230 0.146796 0.388053
H12_4 H 0.014188 0.020956 0.354268
H13_4 H 0.078947 0.076741 0.326950
O2_4 O 0.1186(9) 0.0532(3) 0.4303(3)
C19_4 C 0.0044(14) 0.3862(5) 0.1834(4)
H30_4 H 0.027134 0.298897 0.121436
H32_4 H 0.004882 0.277327 0.272311
H46_4 H 0.086525 0.359553 0.191208
H48_4 H 0.040346 0.419255 0.164836
O8_4 O 0.0818(11) 0.4053(4) 0.0884(3)
loop_
_geom_bond_atom_site_label_1
_geom_bond_atom_site_label_2
_geom_bond_site_symmetry_1
_geom_bond_site_symmetry_2
O10 H51 1_555 1_555
O11 H53 1_555 1_555
H54 O11 1_555 1_555
O15 Co4 1_555 1_555
O10 Co4 1_555 1_555
O11 Co4 1_555 1_555
Pt1 S1 1_555 1_555
S1 Pd1 1_555 1_555
S2 Pt1 1_555 1_555
N1 Pt1 1_555 1_555
N2 Pt1 1_555 1_555
Pd1 S3 1_555 1_555
C1 S1 1_555 1_555
Pd2 S2 1_555 1_555
C2 S2 1_555 1_555
H1 N1 1_555 1_555
H2 N1 1_555 1_555
H3 N1 1_555 1_555
H4 N2 1_555 1_555
H5 N2 1_555 1_555
H6 N2 1_555 1_555
S3 Pt2 1_555 1_555
N3 Pd1 1_555 1_555
N4 Pd1 1_555 1_555
C3 C1 1_555 1_555
C4 C1 1_555 1_555
C5 C1 1_555 1_555
S4 Pd2 1_555 1_555
N5 Pd2 1_555 1_555
N6 Pd2 1_555 1_555
C6 C2 1_555 1_555
C7 C2 1_555 1_555
C8 C2 1_555 1_555
Pt2 S4 1_555 1_555
C9 S3 1_555 1_555
H7 N3 1_555 1_555
H8 N3 1_555 1_555
H9 N4 1_555 1_555
H10 N4 1_555 1_555
C10 N4 1_555 1_555
H14 C4 1_555 1_555
H15 C5 1_555 1_555
H16 C5 1_555 1_555
H17 C5 1_555 1_555
C12 S4 1_555 1_555
H18 N5 1_555 1_555
H19 N5 1_555 1_555
H20 N6 1_555 1_555
H21 N6 1_555 1_555
C13 N6 1_555 1_555
C14 C6 1_555 1_555
H22 C6 1_555 1_555
H23 C7 1_555 1_555
H24 C7 1_555 1_555
H25 C7 1_555 1_555
H26 C8 1_555 1_555
H27 C8 1_555 1_555
H28 C8 1_555 1_555
N7 Pt2 1_555 1_555
N8 Pt2 1_555 1_555
C15 C9 1_555 1_555
C16 C9 1_555 1_555
C17 C10 1_555 1_555
H29 C10 1_555 1_555
C18 C12 1_555 1_555
C20 C13 1_555 1_555
O3 C14 1_555 1_555
O4 C14 1_555 1_555
H31 N7 1_555 1_555
H33 N7 1_555 1_555
H34 N8 1_555 1_555
H35 N8 1_555 1_555
H36 N8 1_555 1_555
H37 C15 1_555 1_555
H38 C15 1_555 1_555
H39 C15 1_555 1_555
H40 C16 1_555 1_555
H41 C16 1_555 1_555
H42 C16 1_555 1_555
O5 C17 1_555 1_555
O6 C17 1_555 1_555
H43 C18 1_555 1_555
H44 C18 1_555 1_555
H45 C18 1_555 1_555
O7 C20 1_555 1_555
Co2 O3 1_555 1_555
O13 H57 1_555 1_555
H58 O13 1_555 1_555
Co3 O4 1_555 1_555
Co5 O6 1_555 1_555
N3 C3 1_555 1_555
N5 C6 1_555 1_555
C9 C10 1_555 1_555
C12 C13 1_555 1_555
O13 Co5 1_555 1_555
O12 H55 1_555 1_555
H56 O12 1_555 1_555
Pt1_2 S1_2 1_555 1_555
S1_2 Pd1_2 1_555 1_555
S2_2 Pt1_2 1_555 1_555
N1_2 Pt1_2 1_555 1_555
N2_2 Pt1_2 1_555 1_555
Pd1_2 S3_2 1_555 1_555
C1_2 S1_2 1_555 1_555
Pd2_2 S2_2 1_555 1_555
C2_2 S2_2 1_555 1_555
H3_2 N1_2 1_555 1_555
H4_2 N2_2 1_555 1_555
H5_2 N2_2 1_555 1_555
H6_2 N2_2 1_555 1_555
S3_2 Pt2_2 1_555 1_555
N3_2 Pd1_2 1_555 1_555
N4_2 Pd1_2 1_555 1_555
C3_2 C1_2 1_555 1_555
C4_2 C1_2 1_555 1_555
C5_2 C1_2 1_555 1_555
S4_2 Pd2_2 1_555 1_555
N5_2 Pd2_2 1_555 1_555
N6_2 Pd2_2 1_555 1_555
C6_2 C2_2 1_555 1_555
C7_2 C2_2 1_555 1_555
Pt2_2 S4_2 1_555 1_555
C9_2 S3_2 1_555 1_555
H7_2 N3_2 1_555 1_555
H8_2 N3_2 1_555 1_555
H9_2 N4_2 1_555 1_555
H10_2 N4_2 1_555 1_555
C10_2 N4_2 1_555 1_555
C11 C3_2 1_555 1_555
H11 C3_2 1_555 1_555
H12 C4_2 1_555 1_555
H13 C4_2 1_555 1_555
H14_2 C4_2 1_555 1_555
H15_2 C5_2 1_555 1_555
H16_2 C5_2 1_555 1_555
H17_2 C5_2 1_555 1_555
C12_2 S4_2 1_555 1_555
H18_2 N5_2 1_555 1_555
H19_2 N5_2 1_555 1_555
H20_2 N6_2 1_555 1_555
H21_2 N6_2 1_555 1_555
C13_2 N6_2 1_555 1_555
H23_2 C7_2 1_555 1_555
H24_2 C7_2 1_555 1_555
H25_2 C7_2 1_555 1_555
N7_2 Pt2_2 1_555 1_555
N8_2 Pt2_2 1_555 1_555
C16_2 C9_2 1_555 1_555
C17_2 C10_2 1_555 1_555
H29_2 C10_2 1_555 1_555
O1_2 C11 1_555 1_555
O2 C11 1_555 1_555
C18_2 C12_2 1_555 1_555
C19 C12_2 1_555 1_555
C20_2 C13_2 1_555 1_555
H30 C13_2 1_555 1_555
H31_2 N7_2 1_555 1_555
H32 N7_2 1_555 1_555
H33_2 N7_2 1_555 1_555
H36_2 N8_2 1_555 1_555
H40_2 C16_2 1_555 1_555
H41_2 C16_2 1_555 1_555
H42_2 C16_2 1_555 1_555
O5_2 C17_2 1_555 1_555
Co3 O1_2 1_555 1_555
H43_2 C18_2 1_555 1_555
H44_2 C18_2 1_555 1_555
H45_2 C18_2 1_555 1_555
H46 C19 1_555 1_555
H47_2 C19 1_555 1_555
H48 C19 1_555 1_555
O7_2 C20_2 1_555 1_555
O8 C20_2 1_555 1_555
O12_2 H55_2 1_555 1_555
H56_2 O12_2 1_555 1_555
Co1 O4_2 1_555 1_555
N3_2 C3_2 1_555 1_555
N5_2 C6_2 1_555 1_555
C9_2 C10_2 1_555 1_555
C12_2 C13_2 1_555 1_555
O9 H49 1_555 1_555
O10_2 H51_2 1_555 1_555
O11_2 H53_2 1_555 1_555
H50 O9 1_555 1_555
H54_2 O11_2 1_555 1_555
O15_2 Co4_2 1_555 1_555
O9 Co4_2 1_555 1_555
O10_2 Co4_2 1_555 1_555
O11_2 Co4_2 1_555 1_555
H26_2 C8_2 1_555 1_555
H27_2 C8_2 1_555 1_555
O3_2 C14_2 1_555 1_555
H37_2 C15_2 1_555 1_555
H38_2 C15_2 1_555 1_555
H39_2 C15_2 1_555 1_555
Co2_2 O3_2 1_555 1_555
O13_2 H57_2 1_555 1_555
H58_2 O13_2 1_555 1_555
Co5_2 O6_2 1_555 1_555
O16_2 Co5_2 1_555 1_555
O13_2 Co5_2 1_555 1_555
O14 H59 1_555 1_555
H60 O14 1_555 1_555
O14_2 H59_2 1_555 1_555
H60_2 O14_2 1_555 1_555
H26_3 C8_3 1_555 1_555
H27_3 C8_3 1_555 1_555
O15_2 C14_3 1_555 1_555
H37_3 C15_3 1_555 1_555
H38_3 C15_3 1_555 1_555
H39_3 C15_3 1_555 1_555
O13_3 H57_3 1_555 1_555
H58_3 O13_3 1_555 1_555
Co1 O6_3 1_555 1_555
O13_3 Co1 1_555 1_555
O9_2 H49_2 1_555 1_555
O12_3 H55_3 1_555 1_555
H50_2 O9_2 1_555 1_555
H56_3 O12_3 1_555 1_555
Pt1_3 S1_3 1_555 1_555
S1_3 Pd1_3 1_555 1_555
S2_3 Pt1_3 1_555 1_555
N1_3 Pt1_3 1_555 1_555
N2_3 Pt1_3 1_555 1_555
Pd1_3 S3_3 1_555 1_555
C1_3 S1_3 1_555 1_555
Pd2_3 S2_3 1_555 1_555
C2_3 S2_3 1_555 1_555
H3_3 N1_3 1_555 1_555
H4_3 N2_3 1_555 1_555
H5_3 N2_3 1_555 1_555
H6_3 N2_3 1_555 1_555
S3_3 Pt2_3 1_555 1_555
N3_3 Pd1_3 1_555 1_555
N4_3 Pd1_3 1_555 1_555
C3_3 C1_3 1_555 1_555
C4_3 C1_3 1_555 1_555
C5_3 C1_3 1_555 1_555
S4_3 Pd2_3 1_555 1_555
N5_3 Pd2_3 1_555 1_555
N6_3 Pd2_3 1_555 1_555
C6_3 C2_3 1_555 1_555
C7_3 C2_3 1_555 1_555
Pt2_3 S4_3 1_555 1_555
C9_3 S3_3 1_555 1_555
H7_3 N3_3 1_555 1_555
H8_3 N3_3 1_555 1_555
H9_3 N4_3 1_555 1_555
H10_3 N4_3 1_555 1_555
C10_3 N4_3 1_555 1_555
C11_2 C3_3 1_555 1_555
H11_2 C3_3 1_555 1_555
H12_2 C4_3 1_555 1_555
H13_2 C4_3 1_555 1_555
H14_3 C4_3 1_555 1_555
H15_3 C5_3 1_555 1_555
H16_3 C5_3 1_555 1_555
H17_3 C5_3 1_555 1_555
C12_3 S4_3 1_555 1_555
H18_3 N5_3 1_555 1_555
H19_3 N5_3 1_555 1_555
H20_3 N6_3 1_555 1_555
H21_3 N6_3 1_555 1_555
C13_3 N6_3 1_555 1_555
H23_3 C7_3 1_555 1_555
H24_3 C7_3 1_555 1_555
H25_3 C7_3 1_555 1_555
N7_3 Pt2_3 1_555 1_555
N8_3 Pt2_3 1_555 1_555
C16_3 C9_3 1_555 1_555
C17_3 C10_3 1_555 1_555
H29_3 C10_3 1_555 1_555
O16 C11_2 1_555 1_555
O2_2 C11_2 1_555 1_555
C18_3 C12_3 1_555 1_555
C19_2 C12_3 1_555 1_555
C20_3 C13_3 1_555 1_555
H30_2 C13_3 1_555 1_555
H31_3 N7_3 1_555 1_555
H32_2 N7_3 1_555 1_555
H33_3 N7_3 1_555 1_555
H36_3 N8_3 1_555 1_555
H40_3 C16_3 1_555 1_555
H41_3 C16_3 1_555 1_555
H42_3 C16_3 1_555 1_555
O5_3 C17_3 1_555 1_555
H43_3 C18_3 1_555 1_555
H44_3 C18_3 1_555 1_555
H45_3 C18_3 1_555 1_555
H46_2 C19_2 1_555 1_555
H47_3 C19_2 1_555 1_555
H48_2 C19_2 1_555 1_555
O7_3 C20_3 1_555 1_555
O8_2 C20_3 1_555 1_555
O10_3 H51_3 1_555 1_555
O11_3 H53_3 1_555 1_555
H52_3 O10_3 1_555 1_555
H54_3 O11_3 1_555 1_555
Co2_2 O5_3 1_555 1_555
N3_3 C3_3 1_555 1_555
N5_3 C6_3 1_555 1_555
C9_3 C10_3 1_555 1_555
C12_3 C13_3 1_555 1_555
O10_3 Co2_2 1_555 1_555
O11_3 Co2_2 1_555 1_555
Pt1_4 S1_4 1_555 1_555
S1_4 Pd1_4 1_555 1_555
S2_4 Pt1_4 1_555 1_555
N1_4 Pt1_4 1_555 1_555
N2_4 Pt1_4 1_555 1_555
Pd1_4 S3_4 1_555 1_555
C1_4 S1_4 1_555 1_555
Pd2_4 S2_4 1_555 1_555
C2_4 S2_4 1_555 1_555
H1_4 N1_4 1_555 1_555
H2_4 N1_4 1_555 1_555
H3_4 N1_4 1_555 1_555
H4_4 N2_4 1_555 1_555
H5_4 N2_4 1_555 1_555
H6_4 N2_4 1_555 1_555
S3_4 Pt2_4 1_555 1_555
N3_4 Pd1_4 1_555 1_555
N4_4 Pd1_4 1_555 1_555
C3_4 C1_4 1_555 1_555
C4_4 C1_4 1_555 1_555
C5_4 C1_4 1_555 1_555
S4_4 Pd2_4 1_555 1_555
N5_4 Pd2_4 1_555 1_555
N6_4 Pd2_4 1_555 1_555
C6_4 C2_4 1_555 1_555
C7_4 C2_4 1_555 1_555
C8_4 C2_4 1_555 1_555
Pt2_4 S4_4 1_555 1_555
C9_4 S3_4 1_555 1_555
H7_4 N3_4 1_555 1_555
H8_4 N3_4 1_555 1_555
H9_4 N4_4 1_555 1_555
H10_4 N4_4 1_555 1_555
C10_4 N4_4 1_555 1_555
H14_4 C4_4 1_555 1_555
H15_4 C5_4 1_555 1_555
H16_4 C5_4 1_555 1_555
H17_4 C5_4 1_555 1_555
C12_4 S4_4 1_555 1_555
H18_4 N5_4 1_555 1_555
H19_4 N5_4 1_555 1_555
H20_4 N6_4 1_555 1_555
H21_4 N6_4 1_555 1_555
C13_4 N6_4 1_555 1_555
C14_4 C6_4 1_555 1_555
H22_4 C6_4 1_555 1_555
H23_4 C7_4 1_555 1_555
H24_4 C7_4 1_555 1_555
H25_4 C7_4 1_555 1_555
H26_4 C8_4 1_555 1_555
H27_4 C8_4 1_555 1_555
H28_4 C8_4 1_555 1_555
N7_4 Pt2_4 1_555 1_555
N8_4 Pt2_4 1_555 1_555
C15_4 C9_4 1_555 1_555
C16_4 C9_4 1_555 1_555
C17_4 C10_4 1_555 1_555
H29_4 C10_4 1_555 1_555
C18_4 C12_4 1_555 1_555
C20_4 C13_4 1_555 1_555
O15 C14_4 1_555 1_555
O17 C14_4 1_555 1_555
H31_4 N7_4 1_555 1_555
H33_4 N7_4 1_555 1_555
H34_4 N8_4 1_555 1_555
H35_4 N8_4 1_555 1_555
H36_4 N8_4 1_555 1_555
H37_4 C15_4 1_555 1_555
H38_4 C15_4 1_555 1_555
H39_4 C15_4 1_555 1_555
H40_4 C16_4 1_555 1_555
H41_4 C16_4 1_555 1_555
H42_4 C16_4 1_555 1_555
O5_4 C17_4 1_555 1_555
O6_4 C17_4 1_555 1_555
H43_4 C18_4 1_555 1_555
H44_4 C18_4 1_555 1_555
H45_4 C18_4 1_555 1_555
O7_4 C20_4 1_555 1_555
O9_3 H49_3 1_555 1_555
O10_4 H51_4 1_555 1_555
O11_4 H53_4 1_555 1_555
O12_4 H55_4 1_555 1_555
O13_4 H57_4 1_555 1_555
O14_3 H59_3 1_555 1_555
H50_3 O9_3 1_555 1_555
H52_4 O10_4 1_555 1_555
H54_4 O11_4 1_555 1_555
H56_4 O12_4 1_555 1_555
H58_4 O13_4 1_555 1_555
H60_3 O14_3 1_555 1_555
Co2 O5_4 1_555 1_555
Co3 O6_4 1_555 1_555
N3_4 C3_4 1_555 1_555
N5_4 C6_4 1_555 1_555
C9_4 C10_4 1_555 1_555
C12_4 C13_4 1_555 1_555
O9_3 Co2 1_555 1_555
O9_3 Co3 1_555 1_555
O10_4 Co2 1_555 1_555
O11_4 Co2 1_555 1_555
O12_4 Co2 1_555 1_555
O13_4 Co3 1_555 1_555
O14_3 Co3 1_555 1_555
O9_4 H49_4 1_555 1_555
O14_4 H59_4 1_555 1_555
H50_4 O9_4 1_555 1_555
H60_4 O14_4 1_555 1_555
O2_3 C11_3 1_555 1_555
H46_3 C19_3 1_555 1_555
H48_3 C19_3 1_555 1_555
O2_4 C11_4 1_555 1_555
H46_4 C19_4 1_555 1_555
H48_4 C19_4 1_555 1_555

#END
