
###############################################################################
#
# This file contains modified crystal structure data generated from the
# MOF subset of the Cambridge Structural Database (CSD) v543 
# hosted by the Cambridge Crystallographic Data Centre (CCDC).
#
# This work is licensed under the Creative Commons
# Attribution-NonCommercial-ShareAlike 4.0 International License.
# To view a copy of this license, visit
# http://creativecommons.org/licenses/by-nc-sa/4.0/
# or send a letter to
# Creative Commons, PO Box 1866, Mountain View, CA 94042, USA.
#
# CIF created using the CSD Python API on 29 September 2022
# The structure has been converted into the P1 space group
# The structure has a 3D framework
# The original CSD entry ICUZOZ is in the orthorhombic crystal system
# The original CSD entry ICUZOZ is in a Sohncke space group
# The framework has been calculated to contain at least 10.0% void space
# The void calculation uses a probe of radius 1.32A, grid spacing 0.4
#
###############################################################################

data_ICUZOZ
_chemical_formula_moiety         '(C80 H240 Br16 Co8 N32 O54 Pd8 Pt8 S16 2-)n'
_symmetry_cell_setting           triclinic
_symmetry_space_group_name_H-M   'P 1'
_symmetry_Int_Tables_number      1
_space_group_name_Hall           'P 1'
loop_
_symmetry_equiv_pos_site_id
_symmetry_equiv_pos_as_xyz
1 x,y,z
_cell_length_a                   9.25625(5)
_cell_length_b                   21.99085(11)
_cell_length_c                   30.87849(16)
_cell_angle_alpha                90
_cell_angle_beta                 90
_cell_angle_gamma                90
_cell_volume                     6285.4
loop_
_atom_site_label
_atom_site_type_symbol
_atom_site_fract_x
_atom_site_fract_y
_atom_site_fract_z
Br1 Br 0.73480(8) 0.77666(4) 0.24471(3)
Br1_2 Br 0.76520(8) 0.22334(4) 0.74471(3)
Br1_3 Br 0.23480(8) 0.72334(4) 0.75529(3)
Br1_4 Br 0.26520(8) 0.27666(4) 0.25529(3)
Br2 Br 0.86745(9) 0.55599(4) 0.27759(3)
Br2_2 Br 0.63255(9) 0.44401(4) 0.77759(3)
Br2_3 Br 0.36745(9) 0.94401(4) 0.72241(3)
Br2_4 Br 0.13255(9) 0.05599(4) 0.22241(3)
Br3 Br 0.64303(12) 0.32431(5) 0.01708(4)
Br3_2 Br 0.85697(12) 0.67569(5) 0.51708(4)
Br3_3 Br 0.14303(12) 0.17569(5) 0.98292(4)
Br3_4 Br 0.35697(12) 0.82431(5) 0.48292(4)
Br4 Br 0.58078(12) 0.63311(6) 0.11210(4)
Br4_2 Br 0.91922(12) 0.36689(6) 0.61210(4)
Br4_3 Br 0.08078(12) 0.86689(6) 0.88790(4)
Br4_4 Br 0.41922(12) 0.13311(6) 0.38790(4)
Co3 Co 0.09180(9) 0.01340(4) 0.48423(3)
Pt1 Pt 0.23339(2) 0.85066(2) 0.23967(2)
S1 S 0.35843(17) 0.83465(7) 0.17623(4)
S2 S 0.11257(16) 0.83695(6) 0.30434(4)
N1 N 0.0364(6) 0.8535(3) 0.20919(17)
N2 N 0.4307(6) 0.8560(3) 0.26985(17)
Pd1 Pd 0.27086(5) 0.76504(2) 0.12868(2)
C1 C 0.3839(7) 0.9006(3) 0.13997(19)
Pd2 Pd 0.22516(5) 0.77768(2) 0.35411(2)
C2 C 0.0905(7) 0.9064(3) 0.33744(19)
H1 H 0.046607 0.841906 0.181748
H2 H 0.001900 0.891255 0.210041
H4 H 0.469182 0.892495 0.265155
H5 H 0.489081 0.827457 0.259292
H6 H 0.419374 0.850345 0.298190
S3 S 0.12746(16) 0.71197(6) 0.17475(5)
N3 N 0.3737(9) 0.8191(3) 0.0830(2)
N4 N 0.2322(7) 0.6938(2) 0.08625(17)
C3 C 0.4627(7) 0.8702(3) 0.1009(2)
C4 C 0.4841(10) 0.9447(4) 0.1629(2)
C5 C 0.2447(8) 0.9310(3) 0.1272(2)
S4 S 0.35066(17) 0.71997(7) 0.30685(4)
N5 N 0.1239(7) 0.8344(3) 0.39937(17)
N6 N 0.3150(8) 0.7200(3) 0.40053(19)
C6 C 0.0239(7) 0.8802(3) 0.37956(18)
C7 C 0.2348(9) 0.9392(3) 0.3451(2)
Pt2 Pt 0.23676(2) 0.70126(2) 0.24184(2)
C9 C 0.1035(7) 0.6386(3) 0.14521(19)
H7 H 0.430783 0.795500 0.067030
H8 H 0.306990 0.834724 0.065518
H9 H 0.220731 0.709004 0.059752
H10 H 0.309662 0.669894 0.085756
C10 C 0.1049(7) 0.6565(3) 0.0969(2)
C11 C 0.5002(7) 0.9163(3) 0.0653(2)
H11 H 0.553454 0.852911 0.111628
H12 H 0.431985 0.965329 0.185444
H13 H 0.520159 0.973909 0.142531
H14 H 0.563491 0.922693 0.175369
H15 H 0.175803 0.900687 0.118638
H16 H 0.262125 0.958205 0.103474
H17 H 0.207434 0.953485 0.151406
C12 C 0.3807(8) 0.6509(3) 0.3402(2)
H18 H 0.074056 0.811441 0.417830
H19 H 0.191447 0.853936 0.414431
H20 H 0.353722 0.742694 0.421407
H21 H 0.244467 0.698125 0.412345
C13 C 0.4267(8) 0.6782(3) 0.3840(2)
H23 H 0.300642 0.912308 0.359602
H24 H 0.218761 0.974553 0.362762
H25 H 0.275192 0.951380 0.317829
H26 H 0.024527 0.957302 0.285683
N7 N 0.0365(6) 0.6969(3) 0.27019(18)
N8 N 0.4385(6) 0.6955(3) 0.21445(17)
C16 C 0.2233(9) 0.5940(3) 0.1569(2)
C17 C 0.1007(7) 0.5999(3) 0.06753(19)
H29 H 0.018275 0.680780 0.091042
O1 O 0.4102(6) 0.9237(2) 0.03544(15)
O2 O 0.6184(6) 0.9441(3) 0.06910(17)
C18 C 0.2476(11) 0.6117(3) 0.3430(2)
C19 C 0.5017(10) 0.6159(4) 0.3171(3)
C20 C 0.4629(10) 0.6289(4) 0.4179(2)
H30 H 0.514632 0.702020 0.379023
O4 O 0.0854(5) 0.9456(2) 0.43759(15)
H32 H 0.042392 0.709703 0.297475
H33 H 0.004947 0.658688 0.269738
H34 H 0.462071 0.656588 0.210863
H35 H 0.502767 0.713278 0.231756
H36 H 0.438113 0.714141 0.188869
H40 H 0.315284 0.611406 0.149649
H41 H 0.210059 0.556866 0.141056
H42 H 0.220078 0.585630 0.187412
O5 O 0.2219(6) 0.5787(2) 0.05594(16)
H43 H 0.168791 0.635281 0.354278
H44 H 0.265952 0.577872 0.361866
H45 H 0.223125 0.596992 0.314672
H46 H 0.465846 0.599834 0.290268
H47 H 0.534108 0.583147 0.335185
H48 H 0.580973 0.642925 0.311358
O7 O 0.3793(11) 0.6225(4) 0.4488(3)
O8 O 0.5752(8) 0.5970(4) 0.4117(2)
O9 O 0.4448(6) 0.4955(3) 0.08725(18)
O12 O 0.3406(7) 0.4021(3) 0.0286(2)
H49 H 0.438887 0.528345 0.105483
H50 H 0.443919 0.464188 0.106806
H55 H 0.268990 0.377880 0.031154
H56 H 0.364714 0.399317 0.001972
Co4 Co 0.27570(10) 0.49034(4) 0.04229(3)
O15 O 0.1396(5) 0.4517(2) 0.08961(15)
Co1 Co 0.40820(9) 0.98660(4) 0.98423(3)
O10 O 0.4290(6) 0.5261(3) 0.99825(17)
O11 O 0.1166(5) 0.4813(2) 0.99367(14)
H51 H 0.453573 0.498645 0.980010
H52 H 0.389796 0.553757 0.982676
H53 H 0.109808 0.444194 0.986350
H54 H 0.142058 0.501549 0.971483
H3 H 0.975233 0.828550 0.222577
C8 C 0.9849(9) 0.9466(3) 0.3134(2)
C14 C 0.9881(7) 0.9303(3) 0.41239(19)
H22 H 0.933735 0.859428 0.371928
H27 H 0.967459 0.982870 0.329879
H28 H 0.895559 0.925144 0.309314
C15 C 0.9531(8) 0.6149(3) 0.1586(2)
O3 O 0.8604(5) 0.9517(2) 0.41039(15)
H31 H 0.975183 0.720484 0.255636
H37 H 0.958036 0.598436 0.187395
H38 H 0.922830 0.583751 0.138848
H39 H 0.884980 0.647800 0.158035
O6 O 0.9795(5) 0.5790(2) 0.05856(16)
Co2 Co 0.72430(10) 0.99034(4) 0.45771(3)
O13 O 0.7081(5) 0.5470(3) 0.03493(18)
H57 H 0.702469 0.567234 0.059292
H58 H 0.636456 0.521201 0.036503
Co5 Co 0.90820(9) 0.51340(4) 0.01577(3)
O17 O 0.9146(5) 0.4456(2) 0.06241(15)
O14 O 0.7916(6) 0.4521(2) 0.97704(15)
H59 H 0.842839 0.441868 0.955377
H60 H 0.719032 0.470176 0.966033
O16 O 0.9102(6) 0.5763(2) 0.96456(15)
Pt1_2 Pt 0.26661(2) 0.14934(2) 0.73967(2)
S1_2 S 0.14157(17) 0.16535(7) 0.67623(4)
S2_2 S 0.38743(16) 0.16305(6) 0.80434(4)
N1_2 N 0.4636(6) 0.1465(3) 0.70919(17)
N2_2 N 0.0693(6) 0.1440(3) 0.76985(17)
Pd1_2 Pd 0.22914(5) 0.23496(2) 0.62868(2)
C1_2 C 0.1161(7) 0.0994(3) 0.63997(19)
Pd2_2 Pd 0.27484(5) 0.22232(2) 0.85411(2)
C2_2 C 0.4095(7) 0.0936(3) 0.83744(19)
H1_2 H 0.453393 0.158094 0.681748
H2_2 H 0.498100 0.108745 0.710041
H3_2 H 0.524767 0.171450 0.722577
H4_2 H 0.030818 0.107505 0.765155
H5_2 H 0.010919 0.172543 0.759292
H6_2 H 0.080626 0.149655 0.798190
S3_2 S 0.37254(16) 0.28803(6) 0.67475(5)
N3_2 N 0.1263(9) 0.1809(3) 0.5830(2)
N4_2 N 0.2678(7) 0.3062(2) 0.58625(17)
C3_2 C 0.0373(7) 0.1298(3) 0.6009(2)
C4_2 C 0.0159(10) 0.0553(4) 0.6629(2)
C5_2 C 0.2553(8) 0.0690(3) 0.6272(2)
S4_2 S 0.14934(17) 0.28003(7) 0.80685(4)
N5_2 N 0.3761(7) 0.1656(3) 0.89937(17)
N6_2 N 0.1850(8) 0.2800(3) 0.90053(19)
C6_2 C 0.4761(7) 0.1198(3) 0.87956(18)
C7_2 C 0.2652(9) 0.0608(3) 0.8451(2)
C8_2 C 0.5151(9) 0.0534(3) 0.8134(2)
Pt2_2 Pt 0.26324(2) 0.29874(2) 0.74184(2)
C9_2 C 0.3965(7) 0.3614(3) 0.64521(19)
H7_2 H 0.069217 0.204500 0.567030
H8_2 H 0.193010 0.165276 0.565518
H9_2 H 0.279269 0.290996 0.559752
H10_2 H 0.190338 0.330106 0.585756
C10_2 C 0.3951(7) 0.3435(3) 0.5969(2)
H12_2 H 0.068015 0.034671 0.685444
H15_2 H 0.324197 0.099313 0.618638
H16_2 H 0.237875 0.041795 0.603474
H17_2 H 0.292566 0.046515 0.651406
C12_2 C 0.1193(8) 0.3491(3) 0.8402(2)
H18_2 H 0.425944 0.188559 0.917830
H19_2 H 0.308553 0.146064 0.914431
H20_2 H 0.146278 0.257306 0.921407
H21_2 H 0.255533 0.301875 0.912345
C13_2 C 0.0733(8) 0.3218(3) 0.8840(2)
C14_2 C 0.5119(7) 0.0697(3) 0.91239(19)
H22_2 H 0.566265 0.140572 0.871928
H23_2 H 0.199358 0.087692 0.859602
H24_2 H 0.281239 0.025447 0.862762
H25_2 H 0.224808 0.048620 0.817829
H26_2 H 0.475473 0.042698 0.785683
H27_2 H 0.532541 0.017130 0.829879
H28_2 H 0.604441 0.074856 0.809314
N7_2 N 0.4635(6) 0.3031(3) 0.77019(18)
N8_2 N 0.0615(6) 0.3045(3) 0.71445(17)
C15_2 C 0.5469(8) 0.3851(3) 0.6586(2)
C16_2 C 0.2767(9) 0.4060(3) 0.6569(2)
C17_2 C 0.3993(7) 0.4001(3) 0.56753(19)
H29_2 H 0.481725 0.319220 0.591042
O1_2 O 0.0898(6) 0.0763(2) 0.53544(15)
C18_2 C 0.2524(11) 0.3883(3) 0.8430(2)
C20_2 C 0.0371(10) 0.3711(4) 0.9179(2)
O3_2 O 0.6396(5) 0.0483(2) 0.91039(15)
O4_2 O 0.4146(5) 0.0544(2) 0.93759(15)
H31_2 H 0.524817 0.279516 0.755636
H32_2 H 0.457608 0.290297 0.797475
H33_2 H 0.495053 0.341312 0.769738
H34_2 H 0.037929 0.343412 0.710863
H36_2 H 0.061887 0.285859 0.688869
H37_2 H 0.541964 0.401564 0.687395
H38_2 H 0.577170 0.416249 0.638848
H39_2 H 0.615020 0.352200 0.658035
H40_2 H 0.184716 0.388594 0.649649
H41_2 H 0.289941 0.443134 0.641056
H42_2 H 0.279922 0.414370 0.687412
O5_2 O 0.2781(6) 0.4213(2) 0.55594(16)
O6_2 O 0.5205(5) 0.4210(2) 0.55856(16)
H43_2 H 0.331209 0.364719 0.854278
H44_2 H 0.234048 0.422128 0.861866
H45_2 H 0.276875 0.403008 0.814672
H46_2 H 0.034154 0.400166 0.790268
O7_2 O 0.1207(11) 0.3775(4) 0.9488(3)
Co2_2 Co 0.77570(10) 0.00966(4) 0.95771(3)
O9_2 O 0.0552(6) 0.5045(3) 0.58725(18)
O10_2 O 0.0710(6) 0.4739(3) 0.49825(17)
O11_2 O 0.3834(5) 0.5187(2) 0.49367(14)
O12_2 O 0.1594(7) 0.5979(3) 0.5286(2)
O13_2 O 0.7919(5) 0.4530(3) 0.53493(18)
O14_2 O 0.7084(6) 0.5479(2) 0.47704(15)
H49_2 H 0.061113 0.471655 0.605483
H50_2 H 0.056081 0.535812 0.606806
H51_2 H 0.046427 0.501355 0.480010
H52_2 H 0.110204 0.446243 0.482676
H53_2 H 0.390192 0.555806 0.486350
H54_2 H 0.357942 0.498451 0.471483
H55_2 H 0.231010 0.622120 0.531154
H56_2 H 0.135286 0.600683 0.501972
H57_2 H 0.797531 0.432766 0.559292
H58_2 H 0.863544 0.478799 0.536503
H59_2 H 0.657161 0.558132 0.455377
H60_2 H 0.780968 0.529824 0.466033
Co4_2 Co 0.22430(10) 0.50966(4) 0.54229(3)
Co5_2 Co 0.59180(9) 0.48660(4) 0.51577(3)
O15_2 O 0.3604(5) 0.5483(2) 0.58961(15)
O16_2 O 0.5898(6) 0.4237(2) 0.46456(15)
O17_2 O 0.5854(5) 0.5544(2) 0.56241(15)
O9_3 O 0.9448(6) 0.0045(3) 0.91275(18)
O12_3 O 0.8406(7) 0.0979(3) 0.9714(2)
H50_3 H 0.943919 0.035812 0.893194
H55_3 H 0.768990 0.122120 0.968846
H56_3 H 0.864714 0.100683 0.998028
O10_3 O 0.9290(6) 0.9739(3) 0.00175(17)
H52_3 H 0.889796 0.946243 0.017324
H54_3 H 0.642058 0.998451 0.028517
Pt1_3 Pt 0.73339(2) 0.64934(2) 0.76033(2)
S1_3 S 0.85843(17) 0.66535(7) 0.82377(4)
S2_3 S 0.61257(16) 0.66305(6) 0.69566(4)
N1_3 N 0.5364(6) 0.6465(3) 0.79081(17)
N2_3 N 0.9307(6) 0.6440(3) 0.73015(17)
Pd1_3 Pd 0.77086(5) 0.73496(2) 0.87132(2)
C1_3 C 0.8839(7) 0.5994(3) 0.86003(19)
Pd2_3 Pd 0.72516(5) 0.72232(2) 0.64589(2)
C2_3 C 0.5905(7) 0.5936(3) 0.66256(19)
H1_3 H 0.546607 0.658094 0.818252
H2_3 H 0.501900 0.608745 0.789959
H3_3 H 0.475233 0.671450 0.777423
H4_3 H 0.969182 0.607505 0.734845
H5_3 H 0.989081 0.672543 0.740708
H6_3 H 0.919374 0.649655 0.701810
S3_3 S 0.62746(16) 0.78803(6) 0.82525(5)
N3_3 N 0.8737(9) 0.6809(3) 0.9170(2)
N4_3 N 0.7322(7) 0.8062(2) 0.91375(17)
C3_3 C 0.9627(7) 0.6298(3) 0.8991(2)
C4_3 C 0.9841(10) 0.5553(4) 0.8371(2)
C5_3 C 0.7447(8) 0.5690(3) 0.8728(2)
S4_3 S 0.85066(17) 0.78003(7) 0.69315(4)
N5_3 N 0.6239(7) 0.6656(3) 0.60063(17)
N6_3 N 0.8150(8) 0.7800(3) 0.59947(19)
C6_3 C 0.5239(7) 0.6198(3) 0.62044(18)
C7_3 C 0.7348(9) 0.5608(3) 0.6549(2)
C8_3 C 0.4849(9) 0.5534(3) 0.6866(2)
Pt2_3 Pt 0.73676(2) 0.79874(2) 0.75816(2)
C9_3 C 0.6035(7) 0.8614(3) 0.85479(19)
H7_3 H 0.930783 0.704500 0.932970
H8_3 H 0.806990 0.665276 0.934482
H9_3 H 0.720731 0.790996 0.940248
H10_3 H 0.809662 0.830106 0.914244
C10_3 C 0.6049(7) 0.8435(3) 0.9031(2)
H12_3 H 0.931985 0.534671 0.814556
H15_3 H 0.675803 0.599313 0.881362
H16_3 H 0.762125 0.541795 0.896526
H17_3 H 0.707434 0.546515 0.848594
C12_3 C 0.8807(8) 0.8491(3) 0.6598(2)
H18_3 H 0.574056 0.688559 0.582170
H19_3 H 0.691447 0.646064 0.585569
H20_3 H 0.853722 0.757306 0.578593
H21_3 H 0.744467 0.801875 0.587655
C13_3 C 0.9267(8) 0.8218(3) 0.6160(2)
C14_3 C 0.4881(7) 0.5697(3) 0.58761(19)
H22_3 H 0.433735 0.640572 0.628072
H23_3 H 0.800642 0.587692 0.640398
H24_3 H 0.718761 0.525447 0.637238
H25_3 H 0.775192 0.548620 0.682171
H26_3 H 0.524527 0.542698 0.714317
H27_3 H 0.467459 0.517130 0.670121
H28_3 H 0.395559 0.574856 0.690686
N7_3 N 0.5365(6) 0.8031(3) 0.72981(18)
N8_3 N 0.9385(6) 0.8045(3) 0.78555(17)
C15_3 C 0.4531(8) 0.8851(3) 0.8414(2)
C16_3 C 0.7233(9) 0.9060(3) 0.8431(2)
C17_3 C 0.6007(7) 0.9001(3) 0.93247(19)
H29_3 H 0.518275 0.819220 0.908958
C18_3 C 0.7476(11) 0.8883(3) 0.6570(2)
C20_3 C 0.9629(10) 0.8711(4) 0.5821(2)
H31_3 H 0.475183 0.779516 0.744364
H32_3 H 0.542392 0.790297 0.702525
H33_3 H 0.504947 0.841312 0.730262
H34_3 H 0.962071 0.843412 0.789137
H36_3 H 0.938113 0.785859 0.811131
H37_3 H 0.458036 0.901564 0.812605
H38_3 H 0.422830 0.916249 0.861152
H39_3 H 0.384980 0.852200 0.841965
H40_3 H 0.815284 0.888594 0.850351
H41_3 H 0.710059 0.943134 0.858944
H42_3 H 0.720078 0.914370 0.812588
O5_3 O 0.7219(6) 0.9213(2) 0.94406(16)
O6_3 O 0.4795(5) 0.9210(2) 0.94144(16)
H43_3 H 0.668791 0.864719 0.645722
H44_3 H 0.765952 0.922128 0.638134
H45_3 H 0.723125 0.903008 0.685328
H46_3 H 0.965846 0.900166 0.709732
O7_3 O 0.8793(11) 0.8775(4) 0.5512(3)
O13_3 O 0.2081(5) 0.9530(3) 0.96507(18)
H49_3 H 0.938887 0.971655 0.894517
H57_3 H 0.202469 0.932766 0.940708
H58_3 H 0.136456 0.978799 0.963497
H3_4 H 0.024767 0.328550 0.277423
C8_4 C 0.0151(9) 0.4466(3) 0.1866(2)
C14_4 C 0.0119(7) 0.4303(3) 0.08761(19)
H22_4 H 0.066265 0.359428 0.128072
H27_4 H 0.032541 0.482870 0.170121
H28_4 H 0.104441 0.425144 0.190686
C15_4 C 0.0469(8) 0.1149(3) 0.3414(2)
H31_4 H 0.024817 0.220484 0.244364
H37_4 H 0.041964 0.098436 0.312605
H38_4 H 0.077170 0.083751 0.361152
H39_4 H 0.115020 0.147800 0.341965
O6_4 O 0.0205(5) 0.0790(2) 0.44144(16)
O13_4 O 0.2919(5) 0.0470(3) 0.46507(18)
H57_4 H 0.297531 0.067234 0.440708
H58_4 H 0.363544 0.021201 0.463497
O14_3 O 0.2084(6) 0.9521(2) 0.52296(15)
H59_3 H 0.157161 0.941868 0.544623
H60_3 H 0.280968 0.970176 0.533967
Pt1_4 Pt 0.76661(2) 0.35066(2) 0.26033(2)
S1_4 S 0.64157(17) 0.33465(7) 0.32377(4)
S2_4 S 0.88743(16) 0.33695(6) 0.19566(4)
N1_4 N 0.9636(6) 0.3535(3) 0.29081(17)
N2_4 N 0.5693(6) 0.3560(3) 0.23015(17)
Pd1_4 Pd 0.72914(5) 0.26504(2) 0.37132(2)
C1_4 C 0.6161(7) 0.4006(3) 0.36003(19)
Pd2_4 Pd 0.77484(5) 0.27768(2) 0.14589(2)
C2_4 C 0.9095(7) 0.4064(3) 0.16256(19)
H1_4 H 0.953393 0.341906 0.318252
H2_4 H 0.998100 0.391255 0.289959
H4_4 H 0.530818 0.392495 0.234845
H5_4 H 0.510919 0.327457 0.240708
H6_4 H 0.580626 0.350345 0.201810
S3_4 S 0.87254(16) 0.21197(6) 0.32525(5)
N3_4 N 0.6263(9) 0.3191(3) 0.4170(2)
N4_4 N 0.7678(7) 0.1938(2) 0.41375(17)
C3_4 C 0.5373(7) 0.3702(3) 0.3991(2)
C4_4 C 0.5159(10) 0.4447(4) 0.3371(2)
C5_4 C 0.7553(8) 0.4310(3) 0.3728(2)
S4_4 S 0.64934(17) 0.21997(7) 0.19315(4)
N5_4 N 0.8761(7) 0.3344(3) 0.10063(17)
N6_4 N 0.6850(8) 0.2200(3) 0.09947(19)
C6_4 C 0.9761(7) 0.3802(3) 0.12044(18)
C7_4 C 0.7652(9) 0.4392(3) 0.1549(2)
Pt2_4 Pt 0.76324(2) 0.20126(2) 0.25816(2)
C9_4 C 0.8965(7) 0.1386(3) 0.35479(19)
H7_4 H 0.569217 0.295500 0.432970
H8_4 H 0.693010 0.334724 0.434482
H9_4 H 0.779269 0.209004 0.440248
H10_4 H 0.690338 0.169894 0.414244
C10_4 C 0.8951(7) 0.1565(3) 0.4031(2)
C11_2 C 0.4998(7) 0.4163(3) 0.4347(2)
H11_2 H 0.446546 0.352911 0.388372
H12_4 H 0.568015 0.465329 0.314556
H13_2 H 0.479841 0.473909 0.357469
H14_2 H 0.436509 0.422693 0.324631
H15_4 H 0.824197 0.400687 0.381362
H16_4 H 0.737875 0.458205 0.396526
H17_4 H 0.792566 0.453485 0.348594
C12_4 C 0.6193(8) 0.1509(3) 0.1598(2)
H18_4 H 0.925944 0.311441 0.082170
H19_4 H 0.808553 0.353936 0.085569
H20_4 H 0.646278 0.242694 0.078593
H21_4 H 0.755533 0.198125 0.087655
C13_4 C 0.5733(8) 0.1782(3) 0.1160(2)
H23_4 H 0.699358 0.412308 0.140398
H24_4 H 0.781239 0.474553 0.137238
H25_4 H 0.724808 0.451380 0.182171
H26_4 H 0.975473 0.457302 0.214317
N7_4 N 0.9635(6) 0.1969(3) 0.22981(18)
N8_4 N 0.5615(6) 0.1955(3) 0.28555(17)
C16_4 C 0.7767(9) 0.0940(3) 0.3431(2)
C17_4 C 0.8993(7) 0.0999(3) 0.43247(19)
H29_4 H 0.981725 0.180780 0.408958
O2_2 O 0.3816(6) 0.4441(3) 0.43090(17)
C18_4 C 0.7524(11) 0.1117(3) 0.1570(2)
C19_2 C 0.4983(10) 0.1159(4) 0.1829(3)
C20_4 C 0.5371(10) 0.1289(4) 0.0821(2)
H30_2 H 0.485368 0.202020 0.120977
H32_4 H 0.957608 0.209703 0.202525
H33_4 H 0.995053 0.158688 0.230262
H34_4 H 0.537929 0.156588 0.289137
H35_2 H 0.497233 0.213278 0.268244
H36_4 H 0.561887 0.214141 0.311131
H40_4 H 0.684716 0.111406 0.350351
H41_4 H 0.789941 0.056866 0.358944
H42_4 H 0.779922 0.085630 0.312588
O5_4 O 0.7781(6) 0.0787(2) 0.44406(16)
H43_4 H 0.831209 0.135281 0.145722
H44_4 H 0.734048 0.077872 0.138134
H45_4 H 0.776875 0.096992 0.185328
H46_4 H 0.534154 0.099834 0.209732
H47_2 H 0.465892 0.083147 0.164815
H48_2 H 0.419027 0.142925 0.188642
O7_4 O 0.6207(11) 0.1225(4) 0.0512(3)
O8_2 O 0.4248(8) 0.0970(4) 0.0883(2)
O10_4 O 0.5710(6) 0.0261(3) 0.50175(17)
H49_4 H 0.561113 0.028345 0.394517
H52_4 H 0.610204 0.053757 0.517324
H54_4 H 0.857942 0.001549 0.528517
O9_4 O 0.5552(6) 0.9955(3) 0.41275(18)
O11_3 O 0.8834(5) 0.9813(2) 0.50633(14)
O12_4 O 0.6594(7) 0.9021(3) 0.4714(2)
H50_4 H 0.556081 0.964188 0.393194
H51_3 H 0.546427 0.998645 0.519990
H53_3 H 0.890192 0.944194 0.513650
H55_4 H 0.731010 0.877880 0.468846
H56_4 H 0.635286 0.899317 0.498028
C11_3 C 0.9998(7) 0.0837(3) 0.5653(2)
H11_3 H 0.946546 0.147089 0.611628
H13_3 H 0.979841 0.026091 0.642531
H14_3 H 0.936509 0.077307 0.675369
O2_3 O 0.8816(6) 0.0559(3) 0.56910(17)
C19_3 C 0.9983(10) 0.3841(4) 0.8171(3)
H30_3 H 0.985368 0.297980 0.879023
H35_3 H 0.997233 0.286722 0.731756
H47_3 H 0.965892 0.416853 0.835185
H48_3 H 0.919027 0.357075 0.811358
O8_3 O 0.9248(8) 0.4030(4) 0.9117(2)
C11_4 C 0.0002(7) 0.5837(3) 0.9347(2)
H11_4 H 0.053454 0.647089 0.888372
H13_4 H 0.020159 0.526091 0.857469
H14_4 H 0.063491 0.577307 0.824631
O2_4 O 0.1184(6) 0.5559(3) 0.93090(17)
C19_4 C 0.0017(10) 0.8841(4) 0.6829(3)
H30_4 H 0.014632 0.797980 0.620977
H35_4 H 0.002767 0.786722 0.768244
H47_4 H 0.034108 0.916853 0.664815
H48_4 H 0.080973 0.857075 0.688642
O8_4 O 0.0752(8) 0.9030(4) 0.5883(2)
O11_4 O 0.6166(5) 0.0187(2) 0.00633(14)
O14_4 O 0.2916(6) 0.0479(2) 0.02296(15)
H51_4 H 0.953573 0.001355 0.019990
H53_4 H 0.609808 0.055806 0.013650
H59_4 H 0.342839 0.058132 0.044623
H60_4 H 0.219032 0.029824 0.033967
loop_
_geom_bond_atom_site_label_1
_geom_bond_atom_site_label_2
_geom_bond_site_symmetry_1
_geom_bond_site_symmetry_2
Pt1 S1 1_555 1_555
S1 Pd1 1_555 1_555
S2 Pt1 1_555 1_555
N1 Pt1 1_555 1_555
N2 Pt1 1_555 1_555
Pd1 S3 1_555 1_555
C1 S1 1_555 1_555
Pd2 S2 1_555 1_555
C2 S2 1_555 1_555
H1 N1 1_555 1_555
H2 N1 1_555 1_555
H4 N2 1_555 1_555
H5 N2 1_555 1_555
H6 N2 1_555 1_555
S3 Pt2 1_555 1_555
N3 Pd1 1_555 1_555
N4 Pd1 1_555 1_555
C3 C1 1_555 1_555
C4 C1 1_555 1_555
C5 C1 1_555 1_555
S4 Pd2 1_555 1_555
N5 Pd2 1_555 1_555
N6 Pd2 1_555 1_555
C6 C2 1_555 1_555
C7 C2 1_555 1_555
Pt2 S4 1_555 1_555
C9 S3 1_555 1_555
H7 N3 1_555 1_555
H8 N3 1_555 1_555
H9 N4 1_555 1_555
H10 N4 1_555 1_555
C10 N4 1_555 1_555
C11 C3 1_555 1_555
H11 C3 1_555 1_555
H12 C4 1_555 1_555
H13 C4 1_555 1_555
H14 C4 1_555 1_555
H15 C5 1_555 1_555
H16 C5 1_555 1_555
H17 C5 1_555 1_555
C12 S4 1_555 1_555
H18 N5 1_555 1_555
H19 N5 1_555 1_555
H20 N6 1_555 1_555
H21 N6 1_555 1_555
C13 N6 1_555 1_555
H23 C7 1_555 1_555
H24 C7 1_555 1_555
H25 C7 1_555 1_555
N7 Pt2 1_555 1_555
N8 Pt2 1_555 1_555
C16 C9 1_555 1_555
C17 C10 1_555 1_555
H29 C10 1_555 1_555
O1 C11 1_555 1_555
O2 C11 1_555 1_555
C18 C12 1_555 1_555
C19 C12 1_555 1_555
C20 C13 1_555 1_555
H30 C13 1_555 1_555
H32 N7 1_555 1_555
H33 N7 1_555 1_555
H34 N8 1_555 1_555
H35 N8 1_555 1_555
H36 N8 1_555 1_555
H40 C16 1_555 1_555
H41 C16 1_555 1_555
H42 C16 1_555 1_555
O5 C17 1_555 1_555
H43 C18 1_555 1_555
H44 C18 1_555 1_555
H45 C18 1_555 1_555
H46 C19 1_555 1_555
H47 C19 1_555 1_555
H48 C19 1_555 1_555
O7 C20 1_555 1_555
O8 C20 1_555 1_555
O9 H49 1_555 1_555
O12 H55 1_555 1_555
H50 O9 1_555 1_555
H56 O12 1_555 1_555
Co4 O5 1_555 1_555
O15 Co4 1_555 1_555
N3 C3 1_555 1_555
N5 C6 1_555 1_555
C9 C10 1_555 1_555
C12 C13 1_555 1_555
O9 Co4 1_555 1_555
O12 Co4 1_555 1_555
O10 H51 1_555 1_555
O11 H53 1_555 1_555
H52 O10 1_555 1_555
H54 O11 1_555 1_555
H27 C8 1_555 1_555
H28 C8 1_555 1_555
O3 C14 1_555 1_555
H37 C15 1_555 1_555
H38 C15 1_555 1_555
H39 C15 1_555 1_555
Co2 O3 1_555 1_555
O13 H57 1_555 1_555
H58 O13 1_555 1_555
Co5 O6 1_555 1_555
O17 Co5 1_555 1_555
O13 Co5 1_555 1_555
O14 H59 1_555 1_555
H60 O14 1_555 1_555
Pt1_2 S1_2 1_555 1_555
S1_2 Pd1_2 1_555 1_555
S2_2 Pt1_2 1_555 1_555
N1_2 Pt1_2 1_555 1_555
N2_2 Pt1_2 1_555 1_555
Pd1_2 S3_2 1_555 1_555
C1_2 S1_2 1_555 1_555
Pd2_2 S2_2 1_555 1_555
C2_2 S2_2 1_555 1_555
H1_2 N1_2 1_555 1_555
H2_2 N1_2 1_555 1_555
H3_2 N1_2 1_555 1_555
H4_2 N2_2 1_555 1_555
H5_2 N2_2 1_555 1_555
H6_2 N2_2 1_555 1_555
S3_2 Pt2_2 1_555 1_555
N3_2 Pd1_2 1_555 1_555
N4_2 Pd1_2 1_555 1_555
C3_2 C1_2 1_555 1_555
C4_2 C1_2 1_555 1_555
C5_2 C1_2 1_555 1_555
S4_2 Pd2_2 1_555 1_555
N5_2 Pd2_2 1_555 1_555
N6_2 Pd2_2 1_555 1_555
C6_2 C2_2 1_555 1_555
C7_2 C2_2 1_555 1_555
C8_2 C2_2 1_555 1_555
Pt2_2 S4_2 1_555 1_555
C9_2 S3_2 1_555 1_555
H7_2 N3_2 1_555 1_555
H8_2 N3_2 1_555 1_555
H9_2 N4_2 1_555 1_555
H10_2 N4_2 1_555 1_555
C10_2 N4_2 1_555 1_555
H12_2 C4_2 1_555 1_555
H15_2 C5_2 1_555 1_555
H16_2 C5_2 1_555 1_555
H17_2 C5_2 1_555 1_555
C12_2 S4_2 1_555 1_555
H18_2 N5_2 1_555 1_555
H19_2 N5_2 1_555 1_555
H20_2 N6_2 1_555 1_555
H21_2 N6_2 1_555 1_555
C13_2 N6_2 1_555 1_555
C14_2 C6_2 1_555 1_555
H22_2 C6_2 1_555 1_555
H23_2 C7_2 1_555 1_555
H24_2 C7_2 1_555 1_555
H25_2 C7_2 1_555 1_555
H26_2 C8_2 1_555 1_555
H27_2 C8_2 1_555 1_555
H28_2 C8_2 1_555 1_555
N7_2 Pt2_2 1_555 1_555
N8_2 Pt2_2 1_555 1_555
C15_2 C9_2 1_555 1_555
C16_2 C9_2 1_555 1_555
C17_2 C10_2 1_555 1_555
H29_2 C10_2 1_555 1_555
C18_2 C12_2 1_555 1_555
C20_2 C13_2 1_555 1_555
O3_2 C14_2 1_555 1_555
O4_2 C14_2 1_555 1_555
H31_2 N7_2 1_555 1_555
H32_2 N7_2 1_555 1_555
H33_2 N7_2 1_555 1_555
H34_2 N8_2 1_555 1_555
H36_2 N8_2 1_555 1_555
H37_2 C15_2 1_555 1_555
H38_2 C15_2 1_555 1_555
H39_2 C15_2 1_555 1_555
H40_2 C16_2 1_555 1_555
H41_2 C16_2 1_555 1_555
H42_2 C16_2 1_555 1_555
O5_2 C17_2 1_555 1_555
O6_2 C17_2 1_555 1_555
Co3 O1_2 1_555 1_555
H43_2 C18_2 1_555 1_555
H44_2 C18_2 1_555 1_555
H45_2 C18_2 1_555 1_555
O7_2 C20_2 1_555 1_555
Co2_2 O3_2 1_555 1_555
O9_2 H49_2 1_555 1_555
O10_2 H51_2 1_555 1_555
O11_2 H53_2 1_555 1_555
O12_2 H55_2 1_555 1_555
O13_2 H57_2 1_555 1_555
O14_2 H59_2 1_555 1_555
H50_2 O9_2 1_555 1_555
H52_2 O10_2 1_555 1_555
H54_2 O11_2 1_555 1_555
H56_2 O12_2 1_555 1_555
H58_2 O13_2 1_555 1_555
H60_2 O14_2 1_555 1_555
Co4_2 O5_2 1_555 1_555
Co5_2 O6_2 1_555 1_555
O15_2 Co4_2 1_555 1_555
O16_2 Co5_2 1_555 1_555
O17_2 Co5_2 1_555 1_555
N3_2 C3_2 1_555 1_555
N5_2 C6_2 1_555 1_555
C9_2 C10_2 1_555 1_555
C12_2 C13_2 1_555 1_555
O9_2 Co4_2 1_555 1_555
O10_2 Co4_2 1_555 1_555
O11_2 Co4_2 1_555 1_555
O11_2 Co5_2 1_555 1_555
O12_2 Co4_2 1_555 1_555
O13_2 Co5_2 1_555 1_555
O14_2 Co5_2 1_555 1_555
O12_3 H55_3 1_555 1_555
H50_3 O9_3 1_555 1_555
H56_3 O12_3 1_555 1_555
O9_3 Co2_2 1_555 1_555
O12_3 Co2_2 1_555 1_555
H52_3 O10_3 1_555 1_555
Pt1_3 S1_3 1_555 1_555
S1_3 Pd1_3 1_555 1_555
S2_3 Pt1_3 1_555 1_555
N1_3 Pt1_3 1_555 1_555
N2_3 Pt1_3 1_555 1_555
Pd1_3 S3_3 1_555 1_555
C1_3 S1_3 1_555 1_555
Pd2_3 S2_3 1_555 1_555
C2_3 S2_3 1_555 1_555
H1_3 N1_3 1_555 1_555
H2_3 N1_3 1_555 1_555
H3_3 N1_3 1_555 1_555
H4_3 N2_3 1_555 1_555
H5_3 N2_3 1_555 1_555
H6_3 N2_3 1_555 1_555
S3_3 Pt2_3 1_555 1_555
N3_3 Pd1_3 1_555 1_555
N4_3 Pd1_3 1_555 1_555
C3_3 C1_3 1_555 1_555
C4_3 C1_3 1_555 1_555
C5_3 C1_3 1_555 1_555
S4_3 Pd2_3 1_555 1_555
N5_3 Pd2_3 1_555 1_555
N6_3 Pd2_3 1_555 1_555
C6_3 C2_3 1_555 1_555
C7_3 C2_3 1_555 1_555
C8_3 C2_3 1_555 1_555
Pt2_3 S4_3 1_555 1_555
C9_3 S3_3 1_555 1_555
H7_3 N3_3 1_555 1_555
H8_3 N3_3 1_555 1_555
H9_3 N4_3 1_555 1_555
H10_3 N4_3 1_555 1_555
C10_3 N4_3 1_555 1_555
H12_3 C4_3 1_555 1_555
H15_3 C5_3 1_555 1_555
H16_3 C5_3 1_555 1_555
H17_3 C5_3 1_555 1_555
C12_3 S4_3 1_555 1_555
H18_3 N5_3 1_555 1_555
H19_3 N5_3 1_555 1_555
H20_3 N6_3 1_555 1_555
H21_3 N6_3 1_555 1_555
C13_3 N6_3 1_555 1_555
C14_3 C6_3 1_555 1_555
H22_3 C6_3 1_555 1_555
H23_3 C7_3 1_555 1_555
H24_3 C7_3 1_555 1_555
H25_3 C7_3 1_555 1_555
H26_3 C8_3 1_555 1_555
H27_3 C8_3 1_555 1_555
H28_3 C8_3 1_555 1_555
N7_3 Pt2_3 1_555 1_555
N8_3 Pt2_3 1_555 1_555
C15_3 C9_3 1_555 1_555
C16_3 C9_3 1_555 1_555
C17_3 C10_3 1_555 1_555
H29_3 C10_3 1_555 1_555
C18_3 C12_3 1_555 1_555
C20_3 C13_3 1_555 1_555
O15_2 C14_3 1_555 1_555
O17_2 C14_3 1_555 1_555
H31_3 N7_3 1_555 1_555
H32_3 N7_3 1_555 1_555
H33_3 N7_3 1_555 1_555
H34_3 N8_3 1_555 1_555
H36_3 N8_3 1_555 1_555
H37_3 C15_3 1_555 1_555
H38_3 C15_3 1_555 1_555
H39_3 C15_3 1_555 1_555
H40_3 C16_3 1_555 1_555
H41_3 C16_3 1_555 1_555
H42_3 C16_3 1_555 1_555
O5_3 C17_3 1_555 1_555
O6_3 C17_3 1_555 1_555
H43_3 C18_3 1_555 1_555
H44_3 C18_3 1_555 1_555
H45_3 C18_3 1_555 1_555
O7_3 C20_3 1_555 1_555
O13_3 H57_3 1_555 1_555
H58_3 O13_3 1_555 1_555
Co1 O6_3 1_555 1_555
N3_3 C3_3 1_555 1_555
N5_3 C6_3 1_555 1_555
C9_3 C10_3 1_555 1_555
C12_3 C13_3 1_555 1_555
O13_3 Co1 1_555 1_555
H27_4 C8_4 1_555 1_555
H28_4 C8_4 1_555 1_555
O15 C14_4 1_555 1_555
H37_4 C15_4 1_555 1_555
H38_4 C15_4 1_555 1_555
H39_4 C15_4 1_555 1_555
O13_4 H57_4 1_555 1_555
H58_4 O13_4 1_555 1_555
Co3 O6_4 1_555 1_555
O13_4 Co3 1_555 1_555
O14_3 H59_3 1_555 1_555
H60_3 O14_3 1_555 1_555
Pt1_4 S1_4 1_555 1_555
S1_4 Pd1_4 1_555 1_555
S2_4 Pt1_4 1_555 1_555
N1_4 Pt1_4 1_555 1_555
N2_4 Pt1_4 1_555 1_555
Pd1_4 S3_4 1_555 1_555
C1_4 S1_4 1_555 1_555
Pd2_4 S2_4 1_555 1_555
C2_4 S2_4 1_555 1_555
H1_4 N1_4 1_555 1_555
H2_4 N1_4 1_555 1_555
H4_4 N2_4 1_555 1_555
H5_4 N2_4 1_555 1_555
H6_4 N2_4 1_555 1_555
S3_4 Pt2_4 1_555 1_555
N3_4 Pd1_4 1_555 1_555
N4_4 Pd1_4 1_555 1_555
C3_4 C1_4 1_555 1_555
C4_4 C1_4 1_555 1_555
C5_4 C1_4 1_555 1_555
S4_4 Pd2_4 1_555 1_555
N5_4 Pd2_4 1_555 1_555
N6_4 Pd2_4 1_555 1_555
C6_4 C2_4 1_555 1_555
C7_4 C2_4 1_555 1_555
Pt2_4 S4_4 1_555 1_555
C9_4 S3_4 1_555 1_555
H7_4 N3_4 1_555 1_555
H8_4 N3_4 1_555 1_555
H9_4 N4_4 1_555 1_555
H10_4 N4_4 1_555 1_555
C10_4 N4_4 1_555 1_555
C11_2 C3_4 1_555 1_555
H11_2 C3_4 1_555 1_555
H12_4 C4_4 1_555 1_555
H13_2 C4_4 1_555 1_555
H14_2 C4_4 1_555 1_555
H15_4 C5_4 1_555 1_555
H16_4 C5_4 1_555 1_555
H17_4 C5_4 1_555 1_555
C12_4 S4_4 1_555 1_555
H18_4 N5_4 1_555 1_555
H19_4 N5_4 1_555 1_555
H20_4 N6_4 1_555 1_555
H21_4 N6_4 1_555 1_555
C13_4 N6_4 1_555 1_555
H23_4 C7_4 1_555 1_555
H24_4 C7_4 1_555 1_555
H25_4 C7_4 1_555 1_555
N7_4 Pt2_4 1_555 1_555
N8_4 Pt2_4 1_555 1_555
C16_4 C9_4 1_555 1_555
C17_4 C10_4 1_555 1_555
H29_4 C10_4 1_555 1_555
O16_2 C11_2 1_555 1_555
O2_2 C11_2 1_555 1_555
C18_4 C12_4 1_555 1_555
C19_2 C12_4 1_555 1_555
C20_4 C13_4 1_555 1_555
H30_2 C13_4 1_555 1_555
H32_4 N7_4 1_555 1_555
H33_4 N7_4 1_555 1_555
H34_4 N8_4 1_555 1_555
H35_2 N8_4 1_555 1_555
H36_4 N8_4 1_555 1_555
H40_4 C16_4 1_555 1_555
H41_4 C16_4 1_555 1_555
H42_4 C16_4 1_555 1_555
O5_4 C17_4 1_555 1_555
H43_4 C18_4 1_555 1_555
H44_4 C18_4 1_555 1_555
H45_4 C18_4 1_555 1_555
H46_4 C19_2 1_555 1_555
H47_2 C19_2 1_555 1_555
H48_2 C19_2 1_555 1_555
O7_4 C20_4 1_555 1_555
O8_2 C20_4 1_555 1_555
H52_4 O10_4 1_555 1_555
N3_4 C3_4 1_555 1_555
N5_4 C6_4 1_555 1_555
C9_4 C10_4 1_555 1_555
C12_4 C13_4 1_555 1_555
O11_3 H53_3 1_555 1_555
O12_4 H55_4 1_555 1_555
H50_4 O9_4 1_555 1_555
H56_4 O12_4 1_555 1_555
O9_4 Co2 1_555 1_555
O11_3 Co2 1_555 1_555
O12_4 Co2 1_555 1_555
O2_3 C11_3 1_555 1_555
H47_3 C19_3 1_555 1_555
H48_3 C19_3 1_555 1_555
O2_4 C11_4 1_555 1_555
H47_4 C19_4 1_555 1_555
H48_4 C19_4 1_555 1_555
O11_4 H53_4 1_555 1_555
O14_4 H59_4 1_555 1_555
H60_4 O14_4 1_555 1_555

#END
