
###############################################################################
#
# This file contains modified crystal structure data generated from the
# MOF subset of the Cambridge Structural Database (CSD) v543 
# hosted by the Cambridge Crystallographic Data Centre (CCDC).
#
# This work is licensed under the Creative Commons
# Attribution-NonCommercial-ShareAlike 4.0 International License.
# To view a copy of this license, visit
# http://creativecommons.org/licenses/by-nc-sa/4.0/
# or send a letter to
# Creative Commons, PO Box 1866, Mountain View, CA 94042, USA.
#
# CIF created using the CSD Python API on 29 September 2022
# The structure has been converted into the P1 space group
# The structure has a 3D framework
# The original CSD entry IDAGEA is in the monoclinic crystal system
# The framework has been calculated to contain at least 10.0% void space
# The void calculation uses a probe of radius 1.32A, grid spacing 0.4
# H atom positions have been added when not included in the experimental data
#
###############################################################################

data_IDAGEA
_chemical_formula_moiety         '(C152 H176 Cu8 N30 O60 30-)n'
_symmetry_cell_setting           triclinic
_symmetry_space_group_name_H-M   'P 1'
_symmetry_Int_Tables_number      1
_space_group_name_Hall           'P 1'
loop_
_symmetry_equiv_pos_site_id
_symmetry_equiv_pos_as_xyz
1 x,y,z
_cell_length_a                   22.8992(13)
_cell_length_b                   24.8190(11)
_cell_length_c                   9.0518(5)
_cell_angle_alpha                90
_cell_angle_beta                 94.305(2)
_cell_angle_gamma                90
_cell_volume                     5129.94
loop_
_atom_site_label
_atom_site_type_symbol
_atom_site_fract_x
_atom_site_fract_y
_atom_site_fract_z
O1 O 0.23618(14) 0.01627(12) 0.0231(3)
C1 C 0.2790(2) 0.01426(16) 0.1208(4)
C2 C 0.3251(2) 0.05804(19) 0.1180(5)
H3 H 0.3648 0.0415 0.1362
C3 C 0.3156(3) 0.0991(2) 0.2423(5)
H4 H 0.3213 0.0804 0.3390
H5 H 0.3458 0.1275 0.2403
C4 C 0.2562(3) 0.1254(2) 0.2317(5)
C5 C 0.2456(3) 0.1717(2) 0.1479(7)
H6 H 0.2756 0.1867 0.0937
C6 C 0.1907(4) 0.1961(3) 0.1435(8)
H7 H 0.1832 0.2276 0.0856
C7 C 0.1481(3) 0.1751(3) 0.2209(8)
H8 H 0.1110 0.1923 0.2185
C8 C 0.1578(3) 0.1296(3) 0.3026(7)
H9 H 0.1273 0.1153 0.3566
C9 C 0.2108(3) 0.1044(2) 0.3075(6)
H10 H 0.2167 0.0721 0.3631
H15 H 0.1337 0.0743 0.0296
Cu1 Cu 0.23987(2) 0.072534(19) 0.87316(5)
N1 N 0.32064(16) 0.08388(15) 0.9701(4)
H1 H 0.3479 0.0692 0.9123
H2 H 0.3281 0.1202 0.9797
N2 N 0.24238(16) 0.13765(14) 0.7401(4)
N3 N 0.15371(15) 0.06195(14) 0.8236(4)
C10 C 0.1991(2) 0.17404(19) 0.7244(6)
H11 H 0.1659 0.1694 0.7800
C11 C 0.2005(2) 0.21797(19) 0.6313(6)
H12 H 0.1685 0.2424 0.6229
C12 C 0.2886(2) 0.14583(18) 0.6612(5)
H13 H 0.3200 0.1207 0.6708
C13 C 0.2929(2) 0.18883(18) 0.5669(5)
H14 H 0.3266 0.1928 0.5127
C14 C 0.24808(19) 0.22643(15) 0.5510(4)
C15 C 0.1173(2) 0.0680(2) 0.9316(5)
C16 C 0.0584(2) 0.0656(2) 0.9074(5)
H16 H 0.0347 0.0693 0.9886
C17 C 0.1302(2) 0.0527(2) 0.6859(5)
H17 H 0.1553 0.0474 0.6082
C18 C 0.0700(2) 0.0509(2) 0.6541(5)
H18 H 0.0547 0.0447 0.5551
C19 C 0.03163(17) 0.05786(16) 0.7648(4)
Cu4 Cu 0.26013(2) 0.427466(19) 0.12684(5)
O4 O 0.28469(16) 0.01976(14) 0.7197(4)
N5 N 0.25762(16) 0.36235(14) 0.2599(4)
C29 C 0.3009(2) 0.32596(19) 0.2756(6)
H29 H 0.3341 0.3306 0.2200
C30 C 0.2995(2) 0.28203(19) 0.3687(6)
H30 H 0.3315 0.2576 0.3771
C31 C 0.2114(2) 0.35417(18) 0.3388(5)
H31 H 0.1800 0.3793 0.3292
C32 C 0.2071(2) 0.31117(18) 0.4331(5)
H32 H 0.1734 0.3072 0.4873
C33 C 0.25192(19) 0.27357(15) 0.4490(4)
O2 O 0.28469(16) 0.98024(14) 0.2197(4)
Cu3 Cu 0.23987(2) 0.927466(19) 0.37316(5)
O3 O 0.23618(14) 0.98373(12) 0.5231(3)
N4 N 0.32064(16) 0.91612(15) 0.4701(4)
H19 H 0.3479 0.9308 0.4123
H20 H 0.3281 0.8798 0.4797
N6 N 0.24238(16) 0.86235(14) 0.2401(4)
N8 N 0.15371(15) 0.93805(14) 0.3236(4)
C20 C 0.2790(2) 0.98574(16) 0.6208(4)
C21 C 0.3251(2) 0.94196(19) 0.6180(5)
H21 H 0.3648 0.9585 0.6362
C22 C 0.3156(3) 0.9009(2) 0.7423(5)
H22 H 0.3213 0.9196 0.8390
H23 H 0.3458 0.8725 0.7403
C23 C 0.2562(3) 0.8746(2) 0.7317(5)
C24 C 0.2456(3) 0.8283(2) 0.6479(7)
H24 H 0.2756 0.8133 0.5937
C25 C 0.1907(4) 0.8039(3) 0.6435(8)
H25 H 0.1832 0.7724 0.5856
C26 C 0.1481(3) 0.8249(3) 0.7209(8)
H26 H 0.1110 0.8077 0.7185
C27 C 0.1578(3) 0.8704(3) 0.8026(7)
H27 H 0.1273 0.8847 0.8566
C28 C 0.2108(3) 0.8956(2) 0.8075(6)
H28 H 0.2167 0.9279 0.8631
Cu5 Cu 0.76013(2) 0.072534(19) 0.62684(5)
N7 N 0.84629(15) 0.06195(14) 0.6764(4)
C34 C 0.8827(2) 0.0680(2) 0.5684(5)
H33 H 0.8663 0.0743 0.4704
C35 C 0.9416(2) 0.0656(2) 0.5926(5)
H34 H 0.9653 0.0693 0.5114
C36 C 0.8698(2) 0.0527(2) 0.8141(5)
H35 H 0.8447 0.0474 0.8918
C37 C 0.9300(2) 0.0509(2) 0.8459(5)
H36 H 0.9453 0.0447 0.9449
C38 C 0.96837(17) 0.05786(16) 0.7352(4)
O1_2 O 0.73618(14) 0.51627(12) 0.0231(3)
O2_2 O 0.78469(16) 0.48024(14) 0.2197(4)
C1_2 C 0.7790(2) 0.51426(16) 0.1208(4)
C2_2 C 0.8251(2) 0.55804(19) 0.1180(5)
H3_2 H 0.8648 0.5415 0.1362
C3_2 C 0.8156(3) 0.5991(2) 0.2423(5)
H4_2 H 0.8213 0.5804 0.3390
H5_2 H 0.8458 0.6275 0.2403
C4_2 C 0.7562(3) 0.6254(2) 0.2317(5)
C5_2 C 0.7456(3) 0.6717(2) 0.1479(7)
H6_2 H 0.7756 0.6867 0.0937
C6_2 C 0.6907(4) 0.6961(3) 0.1435(8)
H7_2 H 0.6832 0.7276 0.0856
C7_2 C 0.6481(3) 0.6751(3) 0.2209(8)
H8_2 H 0.6110 0.6923 0.2185
C8_2 C 0.6578(3) 0.6296(3) 0.3026(7)
H9_2 H 0.6273 0.6153 0.3566
C9_2 C 0.7108(3) 0.6044(2) 0.3075(6)
H10_2 H 0.7167 0.5721 0.3631
H15_2 H 0.6337 0.5743 0.0296
Cu3_2 Cu 0.73987(2) 0.427466(19) 0.37316(5)
Cu1_2 Cu 0.73987(2) 0.572534(19) 0.87316(5)
N1_2 N 0.82064(16) 0.58388(15) 0.9701(4)
H1_2 H 0.8479 0.5692 0.9123
H2_2 H 0.8281 0.6202 0.9797
N2_2 N 0.74238(16) 0.63765(14) 0.7401(4)
N3_2 N 0.65371(15) 0.56195(14) 0.8236(4)
C10_2 C 0.6991(2) 0.67404(19) 0.7244(6)
H11_2 H 0.6659 0.6694 0.7800
C11_2 C 0.7005(2) 0.71797(19) 0.6313(6)
H12_2 H 0.6685 0.7424 0.6229
C12_2 C 0.7886(2) 0.64583(18) 0.6612(5)
H13_2 H 0.8200 0.6207 0.6708
C13_2 C 0.7929(2) 0.68883(18) 0.5669(5)
H14_2 H 0.8266 0.6928 0.5127
C14_2 C 0.74808(19) 0.72643(15) 0.5510(4)
C15_2 C 0.6173(2) 0.5680(2) 0.9316(5)
C16_2 C 0.5584(2) 0.5656(2) 0.9074(5)
H16_2 H 0.5347 0.5693 0.9886
C17_2 C 0.6302(2) 0.5527(2) 0.6859(5)
H17_2 H 0.6553 0.5474 0.6082
C18_2 C 0.5700(2) 0.5509(2) 0.6541(5)
H18_2 H 0.5547 0.5447 0.5551
C19_2 C 0.53163(17) 0.55786(16) 0.7648(4)
Cu4_2 Cu 0.76013(2) 0.927466(19) 0.12684(5)
Cu5_2 Cu 0.26013(2) 0.572534(19) 0.62684(5)
O3_2 O 0.73618(14) 0.48373(12) 0.5231(3)
O4_2 O 0.78469(16) 0.51976(14) 0.7197(4)
N4_2 N 0.82064(16) 0.41612(15) 0.4701(4)
H19_2 H 0.8479 0.4308 0.4123
H20_2 H 0.8281 0.3798 0.4797
N5_2 N 0.75762(16) 0.86235(14) 0.2599(4)
N6_2 N 0.74238(16) 0.36235(14) 0.2401(4)
N7_2 N 0.34629(15) 0.56195(14) 0.6764(4)
N8_2 N 0.65371(15) 0.43805(14) 0.3236(4)
C20_2 C 0.7790(2) 0.48574(16) 0.6208(4)
C21_2 C 0.8251(2) 0.44196(19) 0.6180(5)
H21_2 H 0.8648 0.4585 0.6362
C22_2 C 0.8156(3) 0.4009(2) 0.7423(5)
H22_2 H 0.8213 0.4196 0.8390
H23_2 H 0.8458 0.3725 0.7403
C23_2 C 0.7562(3) 0.3746(2) 0.7317(5)
C24_2 C 0.7456(3) 0.3283(2) 0.6479(7)
H24_2 H 0.7756 0.3133 0.5937
C25_2 C 0.6907(4) 0.3039(3) 0.6435(8)
H25_2 H 0.6832 0.2724 0.5856
C26_2 C 0.6481(3) 0.3249(3) 0.7209(8)
H26_2 H 0.6110 0.3077 0.7185
C27_2 C 0.6578(3) 0.3704(3) 0.8026(7)
H27_2 H 0.6273 0.3847 0.8566
C28_2 C 0.7108(3) 0.3956(2) 0.8075(6)
H28_2 H 0.7167 0.4279 0.8631
C29_2 C 0.8009(2) 0.82596(19) 0.2756(6)
H29_2 H 0.8341 0.8306 0.2200
C30_2 C 0.7995(2) 0.78203(19) 0.3687(6)
H30_2 H 0.8315 0.7576 0.3771
C31_2 C 0.7114(2) 0.85417(18) 0.3388(5)
H31_2 H 0.6800 0.8793 0.3292
C32_2 C 0.7071(2) 0.81117(18) 0.4331(5)
H32_2 H 0.6734 0.8072 0.4873
C33_2 C 0.75192(19) 0.77357(15) 0.4490(4)
C34_2 C 0.3827(2) 0.5680(2) 0.5684(5)
H33_2 H 0.3663 0.5743 0.4704
C35_2 C 0.4416(2) 0.5656(2) 0.5926(5)
H34_2 H 0.4653 0.5693 0.5114
C36_2 C 0.3698(2) 0.5527(2) 0.8141(5)
H35_2 H 0.3447 0.5474 0.8918
C37_2 C 0.4300(2) 0.5509(2) 0.8459(5)
H36_2 H 0.4453 0.5447 0.9449
C38_2 C 0.46837(17) 0.55786(16) 0.7352(4)
C29_3 C 0.6991(2) 0.32596(19) 0.2244(6)
H29_3 H 0.6659 0.3306 0.2800
C30_3 C 0.7005(2) 0.28203(19) 0.1313(6)
H30_3 H 0.6685 0.2576 0.1229
C31_3 C 0.7886(2) 0.35417(18) 0.1612(5)
H31_3 H 0.8200 0.3793 0.1708
C32_3 C 0.7929(2) 0.31117(18) 0.0669(5)
H32_3 H 0.8266 0.3072 0.0127
C33_3 C 0.74808(19) 0.27357(15) 0.0510(4)
O1_3 O 0.76382(14) 0.01627(12) 0.4769(3)
N1_3 N 0.67936(16) 0.08388(15) 0.5299(4)
H1_3 H 0.6521 0.0692 0.5877
H2_3 H 0.6719 0.1202 0.5203
N2_3 N 0.75762(16) 0.13765(14) 0.7599(4)
C1_3 C 0.7210(2) 0.01426(16) 0.3792(4)
C2_3 C 0.6749(2) 0.05804(19) 0.3820(5)
H3_3 H 0.6352 0.0415 0.3638
C3_3 C 0.6844(3) 0.0991(2) 0.2577(5)
H4_3 H 0.6787 0.0804 0.1610
H5_3 H 0.6542 0.1275 0.2597
C4_3 C 0.7438(3) 0.1254(2) 0.2683(5)
C5_3 C 0.7544(3) 0.1717(2) 0.3521(7)
H6_3 H 0.7244 0.1867 0.4063
C6_3 C 0.8093(4) 0.1961(3) 0.3565(8)
H7_3 H 0.8168 0.2276 0.4144
C7_3 C 0.8519(3) 0.1751(3) 0.2791(8)
H8_3 H 0.8890 0.1923 0.2815
C8_3 C 0.8422(3) 0.1296(3) 0.1974(7)
H9_3 H 0.8727 0.1153 0.1434
C9_3 C 0.7892(3) 0.1044(2) 0.1925(6)
H10_3 H 0.7833 0.0721 0.1369
C10_3 C 0.8009(2) 0.17404(19) 0.7756(6)
H11_3 H 0.8341 0.1694 0.7200
C11_3 C 0.7995(2) 0.21797(19) 0.8687(6)
H12_3 H 0.8315 0.2424 0.8771
C12_3 C 0.7114(2) 0.14583(18) 0.8388(5)
H13_3 H 0.6800 0.1207 0.8292
C13_3 C 0.7071(2) 0.18883(18) 0.9331(5)
H14_3 H 0.6734 0.1928 0.9873
C14_3 C 0.75192(19) 0.22643(15) 0.9490(4)
O4_3 O 0.71531(16) 0.01976(14) 0.7803(4)
O5 O 0.71531(16) 0.98024(14) 0.2803(4)
N4_3 N 0.67936(16) 0.91612(15) 0.0299(4)
H19_3 H 0.6521 0.9308 0.0877
H20_3 H 0.6719 0.8798 0.0203
N8_3 N 0.84629(15) 0.93805(14) 0.1764(4)
O3_3 O 0.76382(14) 0.98373(12) 0.9769(3)
C20_3 C 0.7210(2) 0.98574(16) 0.8792(4)
C21_3 C 0.6749(2) 0.94196(19) 0.8820(5)
H21_3 H 0.6352 0.9585 0.8638
C22_3 C 0.6844(3) 0.9009(2) 0.7577(5)
H22_3 H 0.6787 0.9196 0.6610
H23_3 H 0.6542 0.8725 0.7597
C23_3 C 0.7438(3) 0.8746(2) 0.7683(5)
C24_3 C 0.7544(3) 0.8283(2) 0.8521(7)
H24_3 H 0.7244 0.8133 0.9063
C25_3 C 0.8093(4) 0.8039(3) 0.8565(8)
H25_3 H 0.8168 0.7724 0.9144
C26_3 C 0.8519(3) 0.8249(3) 0.7791(8)
H26_3 H 0.8890 0.8077 0.7815
C27_3 C 0.8422(3) 0.8704(3) 0.6974(7)
H27_3 H 0.8727 0.8847 0.6434
C28_3 C 0.7892(3) 0.8956(2) 0.6925(6)
H28_3 H 0.7833 0.9279 0.6369
O5_2 O 0.21531(16) 0.48024(14) 0.2803(4)
N4_4 N 0.17936(16) 0.41612(15) 0.0299(4)
H19_4 H 0.1521 0.4308 0.0877
H20_4 H 0.1719 0.3798 0.0203
N8_4 N 0.34629(15) 0.43805(14) 0.1764(4)
C29_4 C 0.1991(2) 0.82596(19) 0.2244(6)
H29_4 H 0.1659 0.8306 0.2800
C30_4 C 0.2005(2) 0.78203(19) 0.1313(6)
H30_4 H 0.1685 0.7576 0.1229
C31_4 C 0.2886(2) 0.85417(18) 0.1612(5)
H31_4 H 0.3200 0.8793 0.1708
C32_4 C 0.2929(2) 0.81117(18) 0.0669(5)
H32_4 H 0.3266 0.8072 0.0127
C33_4 C 0.24808(19) 0.77357(15) 0.0510(4)
O1_4 O 0.26382(14) 0.51627(12) 0.4769(3)
N1_4 N 0.17936(16) 0.58388(15) 0.5299(4)
H1_4 H 0.1521 0.5692 0.5877
H2_4 H 0.1719 0.6202 0.5203
N2_4 N 0.25762(16) 0.63765(14) 0.7599(4)
C1_4 C 0.2210(2) 0.51426(16) 0.3792(4)
C2_4 C 0.1749(2) 0.55804(19) 0.3820(5)
H3_4 H 0.1352 0.5415 0.3638
C3_4 C 0.1844(3) 0.5991(2) 0.2577(5)
H4_4 H 0.1787 0.5804 0.1610
H5_4 H 0.1542 0.6275 0.2597
C4_4 C 0.2438(3) 0.6254(2) 0.2683(5)
C5_4 C 0.2544(3) 0.6717(2) 0.3521(7)
H6_4 H 0.2244 0.6867 0.4063
C6_4 C 0.3093(4) 0.6961(3) 0.3565(8)
H7_4 H 0.3168 0.7276 0.4144
C7_4 C 0.3519(3) 0.6751(3) 0.2791(8)
H8_4 H 0.3890 0.6923 0.2815
C8_4 C 0.3422(3) 0.6296(3) 0.1974(7)
H9_4 H 0.3727 0.6153 0.1434
C9_4 C 0.2892(3) 0.6044(2) 0.1925(6)
H10_4 H 0.2833 0.5721 0.1369
C10_4 C 0.3009(2) 0.67404(19) 0.7756(6)
H11_4 H 0.3341 0.6694 0.7200
C11_4 C 0.2995(2) 0.71797(19) 0.8687(6)
H12_4 H 0.3315 0.7424 0.8771
C12_4 C 0.2114(2) 0.64583(18) 0.8388(5)
H13_4 H 0.1800 0.6207 0.8292
C13_4 C 0.2071(2) 0.68883(18) 0.9331(5)
H14_4 H 0.1734 0.6928 0.9873
C14_4 C 0.25192(19) 0.72643(15) 0.9490(4)
O3_4 O 0.26382(14) 0.48373(12) 0.9769(3)
O4_4 O 0.21531(16) 0.51976(14) 0.7803(4)
C20_4 C 0.2210(2) 0.48574(16) 0.8792(4)
C21_4 C 0.1749(2) 0.44196(19) 0.8820(5)
H21_4 H 0.1352 0.4585 0.8638
C22_4 C 0.1844(3) 0.4009(2) 0.7577(5)
H22_4 H 0.1787 0.4196 0.6610
H23_4 H 0.1542 0.3725 0.7597
C23_4 C 0.2438(3) 0.3746(2) 0.7683(5)
C24_4 C 0.2544(3) 0.3283(2) 0.8521(7)
H24_4 H 0.2244 0.3133 0.9063
C25_4 C 0.3093(4) 0.3039(3) 0.8565(8)
H25_4 H 0.3168 0.2724 0.9144
C26_4 C 0.3519(3) 0.3249(3) 0.7791(8)
H26_4 H 0.3890 0.3077 0.7815
C27_4 C 0.3422(3) 0.3704(3) 0.6974(7)
H27_4 H 0.3727 0.3847 0.6434
C28_4 C 0.2892(3) 0.3956(2) 0.6925(6)
H28_4 H 0.2833 0.4279 0.6369
C34_3 C 0.1173(2) 0.9320(2) 0.4316(5)
H33_3 H 0.1337 0.9257 0.5296
C35_3 C 0.0584(2) 0.9344(2) 0.4074(5)
H34_3 H 0.0347 0.9307 0.4886
C36_3 C 0.1302(2) 0.9473(2) 0.1859(5)
H35_3 H 0.1553 0.9526 0.1082
C37_3 C 0.0700(2) 0.9491(2) 0.1541(5)
H36_3 H 0.0547 0.9553 0.0551
C38_3 C 0.03163(17) 0.94214(16) 0.2648(4)
C15_3 C 0.8827(2) 0.9320(2) 0.0684(5)
C16_3 C 0.9416(2) 0.9344(2) 0.0926(5)
H16_3 H 0.9653 0.9307 0.0114
C17_3 C 0.8698(2) 0.9473(2) 0.3141(5)
H17_3 H 0.8447 0.9526 0.3918
C18_3 C 0.9300(2) 0.9491(2) 0.3459(5)
H18_3 H 0.9453 0.9553 0.4449
C19_3 C 0.96837(17) 0.94214(16) 0.2352(4)
H15_3 H 0.8663 0.9257 0.9704
C15_4 C 0.3827(2) 0.4320(2) 0.0684(5)
C16_4 C 0.4416(2) 0.4344(2) 0.0926(5)
H16_4 H 0.4653 0.4307 0.0114
C17_4 C 0.3698(2) 0.4473(2) 0.3141(5)
H17_4 H 0.3447 0.4526 0.3918
C18_4 C 0.4300(2) 0.4491(2) 0.3459(5)
H18_4 H 0.4453 0.4553 0.4449
C19_4 C 0.46837(17) 0.44214(16) 0.2352(4)
C34_4 C 0.6173(2) 0.4320(2) 0.4316(5)
H33_4 H 0.6337 0.4257 0.5296
C35_4 C 0.5584(2) 0.4344(2) 0.4074(5)
H34_4 H 0.5347 0.4307 0.4886
C36_4 C 0.6302(2) 0.4473(2) 0.1859(5)
H35_4 H 0.6553 0.4526 0.1082
C37_4 C 0.5700(2) 0.4491(2) 0.1541(5)
H36_4 H 0.5547 0.4553 0.0551
C38_4 C 0.53163(17) 0.44214(16) 0.2648(4)
H15_4 H 0.3663 0.4257 0.9704
O6 O -0.0000 0.0768(5) 0.2500
N9 N 0.0000 0.1238(6) 0.2500
O8 O 0.0106(4) 0.1493(4) 0.3637(9)
O6_2 O 1.0000 0.0768(5) 0.2500
O7 O 0.9894(4) 0.1493(4) 0.1363(9)
N9_2 N 1.0000 0.1238(6) 0.2500
O6_3 O 0.5000 0.5768(5) 0.2500
O7_2 O 0.4894(4) 0.6493(4) 0.1363(9)
N9_3 N 0.5000 0.6238(6) 0.2500
O8_2 O 0.5106(4) 0.6493(4) 0.3637(9)
O6_4 O 0.0000 0.9232(5) 0.7500
O7_3 O 0.0106(4) 0.8507(4) 0.8637(9)
N9_4 N 0.0000 0.8762(6) 0.7500
O6_5 O 1.0000 0.9232(5) 0.7500
N9_5 N 1.0000 0.8762(6) 0.7500
O8_3 O 0.9894(4) 0.8507(4) 0.6363(9)
O6_6 O 0.5000 0.4232(5) 0.7500
O7_4 O 0.5106(4) 0.3507(4) 0.8637(9)
N9_6 N 0.5000 0.3762(6) 0.7500
O8_4 O 0.4894(4) 0.3507(4) 0.6363(9)
O9 O 0.4297(10) 0.0312(10) 0.858(3)
H37 H 0.473064 0.0312 0.858
O9_2 O 0.9297(10) 0.5312(10) 0.858(3)
H37_2 H 0.973064 0.5312 0.858
O9_3 O 0.5703(10) 0.0312(10) 0.642(3)
H37_3 H 0.526936 0.0312 0.642
O9_4 O 0.0703(10) 0.5312(10) 0.642(3)
H37_4 H 0.026936 0.5312 0.642
O9_5 O 0.5703(10) 0.9688(10) 0.142(3)
H37_5 H 0.526936 0.9688 0.142
O9_6 O 0.0703(10) 0.4688(10) 0.142(3)
H37_6 H 0.026936 0.4688 0.142
O9_7 O 0.4297(10) 0.9688(10) 0.358(3)
H37_7 H 0.473064 0.9688 0.358
O9_8 O 0.9297(10) 0.4688(10) 0.358(3)
H37_8 H 0.973064 0.4688 0.358
O10 O 0.42771(17) 0.19974(16) 0.4117(4)
H39 H 0.471074 0.19974 0.4117
O10_2 O 0.92771(17) 0.69974(16) 0.4117(4)
H39_2 H 0.971074 0.69974 0.4117
O10_3 O 0.57229(17) 0.19974(16) 0.0883(4)
H39_3 H 0.528926 0.19974 0.0883
O10_4 O 0.07229(17) 0.69974(16) 0.0883(4)
H39_4 H 0.028926 0.69974 0.0883
O10_5 O 0.57229(17) 0.80026(16) 0.5883(4)
H39_5 H 0.528926 0.80026 0.5883
O10_6 O 0.07229(17) 0.30026(16) 0.5883(4)
H39_6 H 0.028926 0.30026 0.5883
O10_7 O 0.42771(17) 0.80026(16) 0.9117(4)
H39_7 H 0.471074 0.80026 0.9117
O10_8 O 0.92771(17) 0.30026(16) 0.9117(4)
H39_8 H 0.971074 0.30026 0.9117
O11 O 0.07089(17) 0.20664(16) 0.8843(4)
H40 H 0.114254 0.20664 0.8843
O11_2 O 0.57089(17) 0.70664(16) 0.8843(4)
H40_2 H 0.614254 0.70664 0.8843
O11_3 O 0.92911(17) 0.20664(16) 0.6157(4)
H40_3 H 0.885746 0.20664 0.6157
O11_4 O 0.42911(17) 0.70664(16) 0.6157(4)
H40_4 H 0.385746 0.70664 0.6157
O11_5 O 0.92911(17) 0.79336(16) 0.1157(4)
H40_5 H 0.885746 0.79336 0.1157
O11_6 O 0.42911(17) 0.29336(16) 0.1157(4)
H40_6 H 0.385746 0.29336 0.1157
O11_7 O 0.07089(17) 0.79336(16) 0.3843(4)
H40_7 H 0.114254 0.79336 0.3843
O11_8 O 0.57089(17) 0.29336(16) 0.3843(4)
H40_8 H 0.614254 0.29336 0.3843
O12 O 0.03803(17) 0.19329(16) 0.6387(4)
H38 H 0.081394 0.19329 0.6387
O12_2 O 0.53803(17) 0.69329(16) 0.6387(4)
H38_2 H 0.581394 0.69329 0.6387
O12_3 O 0.96197(17) 0.19329(16) 0.8613(4)
H38_3 H 0.918606 0.19329 0.8613
O12_4 O 0.46197(17) 0.69329(16) 0.8613(4)
H38_4 H 0.418606 0.69329 0.8613
O12_5 O 0.96197(17) 0.80671(16) 0.3613(4)
H38_5 H 0.918606 0.80671 0.3613
O12_6 O 0.46197(17) 0.30671(16) 0.3613(4)
H38_6 H 0.418606 0.30671 0.3613
O12_7 O 0.03803(17) 0.80671(16) 0.1387(4)
H38_7 H 0.081394 0.80671 0.1387
O12_8 O 0.53803(17) 0.30671(16) 0.1387(4)
H38_8 H 0.581394 0.30671 0.1387
loop_
_geom_bond_atom_site_label_1
_geom_bond_atom_site_label_2
_geom_bond_site_symmetry_1
_geom_bond_site_symmetry_2
O1 C1 1_555 1_555
C1 C2 1_555 1_555
H3 C2 1_555 1_555
C3 C2 1_555 1_555
H4 C3 1_555 1_555
H5 C3 1_555 1_555
C4 C3 1_555 1_555
C5 C4 1_555 1_555
H6 C5 1_555 1_555
C6 C5 1_555 1_555
H7 C6 1_555 1_555
C7 C6 1_555 1_555
H8 C7 1_555 1_555
C8 C7 1_555 1_555
H9 C8 1_555 1_555
C9 C4 1_555 1_555
H10 C9 1_555 1_555
C8 C9 1_555 1_555
N1 Cu1 1_555 1_555
H1 N1 1_555 1_555
H2 N1 1_555 1_555
N2 Cu1 1_555 1_555
N3 Cu1 1_555 1_555
C10 N2 1_555 1_555
H11 C10 1_555 1_555
C11 C10 1_555 1_555
H12 C11 1_555 1_555
C12 N2 1_555 1_555
H13 C12 1_555 1_555
C13 C12 1_555 1_555
H14 C13 1_555 1_555
C14 C11 1_555 1_555
C15 N3 1_555 1_555
C16 C15 1_555 1_555
H16 C16 1_555 1_555
C17 N3 1_555 1_555
H17 C17 1_555 1_555
C18 C17 1_555 1_555
H18 C18 1_555 1_555
C19 C16 1_555 1_555
Cu4 N5 1_555 1_555
O4 Cu1 1_555 1_555
N5 C29 1_555 1_555
C29 H29 1_555 1_555
C30 C29 1_555 1_555
H30 C30 1_555 1_555
C31 N5 1_555 1_555
H31 C31 1_555 1_555
C32 C31 1_555 1_555
H32 C32 1_555 1_555
C33 C14 1_555 1_555
C13 C14 1_555 1_555
C18 C19 1_555 1_555
C30 C33 1_555 1_555
C32 C33 1_555 1_555
Cu3 O2 1_555 1_555
Cu3 O3 1_555 1_555
O3 C20 1_555 1_555
N4 Cu3 1_555 1_555
H19 N4 1_555 1_555
H20 N4 1_555 1_555
N6 Cu3 1_555 1_555
N8 Cu3 1_555 1_555
C21 N4 1_555 1_555
H21 C21 1_555 1_555
C22 C21 1_555 1_555
H22 C22 1_555 1_555
H23 C22 1_555 1_555
C23 C22 1_555 1_555
C24 C23 1_555 1_555
H24 C24 1_555 1_555
C25 C24 1_555 1_555
H25 C25 1_555 1_555
C26 C25 1_555 1_555
H26 C26 1_555 1_555
C27 C26 1_555 1_555
H27 C27 1_555 1_555
C28 C23 1_555 1_555
H28 C28 1_555 1_555
C20 C21 1_555 1_555
C27 C28 1_555 1_555
Cu5 N7 1_555 1_555
N7 C34 1_555 1_555
C34 H33 1_555 1_555
C35 C34 1_555 1_555
H34 C35 1_555 1_555
C36 N7 1_555 1_555
H35 C36 1_555 1_555
C37 C36 1_555 1_555
H36 C37 1_555 1_555
C35 C38 1_555 1_555
C37 C38 1_555 1_555
O1_2 C1_2 1_555 1_555
O2_2 C1_2 1_555 1_555
C1_2 C2_2 1_555 1_555
H3_2 C2_2 1_555 1_555
C3_2 C2_2 1_555 1_555
H4_2 C3_2 1_555 1_555
H5_2 C3_2 1_555 1_555
C4_2 C3_2 1_555 1_555
C5_2 C4_2 1_555 1_555
H6_2 C5_2 1_555 1_555
C6_2 C5_2 1_555 1_555
H7_2 C6_2 1_555 1_555
C7_2 C6_2 1_555 1_555
H8_2 C7_2 1_555 1_555
C8_2 C7_2 1_555 1_555
H9_2 C8_2 1_555 1_555
C9_2 C4_2 1_555 1_555
H10_2 C9_2 1_555 1_555
Cu3_2 O2_2 1_555 1_555
C8_2 C9_2 1_555 1_555
N1_2 Cu1_2 1_555 1_555
H1_2 N1_2 1_555 1_555
H2_2 N1_2 1_555 1_555
N2_2 Cu1_2 1_555 1_555
N3_2 Cu1_2 1_555 1_555
C10_2 N2_2 1_555 1_555
H11_2 C10_2 1_555 1_555
C11_2 C10_2 1_555 1_555
H12_2 C11_2 1_555 1_555
C12_2 N2_2 1_555 1_555
H13_2 C12_2 1_555 1_555
C13_2 C12_2 1_555 1_555
H14_2 C13_2 1_555 1_555
C14_2 C11_2 1_555 1_555
C15_2 N3_2 1_555 1_555
C16_2 C15_2 1_555 1_555
H16_2 C16_2 1_555 1_555
C17_2 N3_2 1_555 1_555
H17_2 C17_2 1_555 1_555
C18_2 C17_2 1_555 1_555
H18_2 C18_2 1_555 1_555
C19_2 C16_2 1_555 1_555
Cu3_2 O3_2 1_555 1_555
Cu4_2 N5_2 1_555 1_555
Cu5_2 N7_2 1_555 1_555
O3_2 C20_2 1_555 1_555
O4_2 Cu1_2 1_555 1_555
N4_2 Cu3_2 1_555 1_555
H19_2 N4_2 1_555 1_555
H20_2 N4_2 1_555 1_555
N5_2 C29_2 1_555 1_555
N6_2 Cu3_2 1_555 1_555
N7_2 C34_2 1_555 1_555
N8_2 Cu3_2 1_555 1_555
C20_2 O4_2 1_555 1_555
C21_2 N4_2 1_555 1_555
H21_2 C21_2 1_555 1_555
C22_2 C21_2 1_555 1_555
H22_2 C22_2 1_555 1_555
H23_2 C22_2 1_555 1_555
C23_2 C22_2 1_555 1_555
C24_2 C23_2 1_555 1_555
H24_2 C24_2 1_555 1_555
C25_2 C24_2 1_555 1_555
H25_2 C25_2 1_555 1_555
C26_2 C25_2 1_555 1_555
H26_2 C26_2 1_555 1_555
C27_2 C26_2 1_555 1_555
H27_2 C27_2 1_555 1_555
C28_2 C23_2 1_555 1_555
H28_2 C28_2 1_555 1_555
C29_2 H29_2 1_555 1_555
C30_2 C29_2 1_555 1_555
H30_2 C30_2 1_555 1_555
C31_2 N5_2 1_555 1_555
H31_2 C31_2 1_555 1_555
C32_2 C31_2 1_555 1_555
H32_2 C32_2 1_555 1_555
C33_2 C14_2 1_555 1_555
C34_2 H33_2 1_555 1_555
C35_2 C34_2 1_555 1_555
H34_2 C35_2 1_555 1_555
C36_2 N7_2 1_555 1_555
H35_2 C36_2 1_555 1_555
C37_2 C36_2 1_555 1_555
H36_2 C37_2 1_555 1_555
C38_2 C19_2 1_555 1_555
C13_2 C14_2 1_555 1_555
C18_2 C19_2 1_555 1_555
C20_2 C21_2 1_555 1_555
C27_2 C28_2 1_555 1_555
C30_2 C33_2 1_555 1_555
C32_2 C33_2 1_555 1_555
C35_2 C38_2 1_555 1_555
C37_2 C38_2 1_555 1_555
N6_2 C29_3 1_555 1_555
C29_3 H29_3 1_555 1_555
C30_3 C29_3 1_555 1_555
H30_3 C30_3 1_555 1_555
C31_3 N6_2 1_555 1_555
H31_3 C31_3 1_555 1_555
C32_3 C31_3 1_555 1_555
H32_3 C32_3 1_555 1_555
C30_3 C33_3 1_555 1_555
C32_3 C33_3 1_555 1_555
Cu5 O1_3 1_555 1_555
O1_3 C1_3 1_555 1_555
N1_3 Cu5 1_555 1_555
H1_3 N1_3 1_555 1_555
H2_3 N1_3 1_555 1_555
N2_3 Cu5 1_555 1_555
C1_3 C2_3 1_555 1_555
C2_3 N1_3 1_555 1_555
H3_3 C2_3 1_555 1_555
C3_3 C2_3 1_555 1_555
H4_3 C3_3 1_555 1_555
H5_3 C3_3 1_555 1_555
C4_3 C3_3 1_555 1_555
C5_3 C4_3 1_555 1_555
H6_3 C5_3 1_555 1_555
C6_3 C5_3 1_555 1_555
H7_3 C6_3 1_555 1_555
C7_3 C6_3 1_555 1_555
H8_3 C7_3 1_555 1_555
C8_3 C7_3 1_555 1_555
H9_3 C8_3 1_555 1_555
C9_3 C4_3 1_555 1_555
H10_3 C9_3 1_555 1_555
C10_3 N2_3 1_555 1_555
H11_3 C10_3 1_555 1_555
C11_3 C10_3 1_555 1_555
H12_3 C11_3 1_555 1_555
C12_3 N2_3 1_555 1_555
H13_3 C12_3 1_555 1_555
C13_3 C12_3 1_555 1_555
H14_3 C13_3 1_555 1_555
C14_3 C11_3 1_555 1_555
O4_3 Cu5 1_555 1_555
C8_3 C9_3 1_555 1_555
C13_3 C14_3 1_555 1_555
O5 Cu4_2 1_555 1_555
N4_3 Cu4_2 1_555 1_555
H19_3 N4_3 1_555 1_555
H20_3 N4_3 1_555 1_555
N8_3 Cu4_2 1_555 1_555
O3_3 C20_3 1_555 1_555
H21_3 C21_3 1_555 1_555
C22_3 C21_3 1_555 1_555
H22_3 C22_3 1_555 1_555
H23_3 C22_3 1_555 1_555
C23_3 C22_3 1_555 1_555
C24_3 C23_3 1_555 1_555
H24_3 C24_3 1_555 1_555
C25_3 C24_3 1_555 1_555
H25_3 C25_3 1_555 1_555
C26_3 C25_3 1_555 1_555
H26_3 C26_3 1_555 1_555
C27_3 C26_3 1_555 1_555
H27_3 C27_3 1_555 1_555
C28_3 C23_3 1_555 1_555
H28_3 C28_3 1_555 1_555
C20_3 C21_3 1_555 1_555
C27_3 C28_3 1_555 1_555
O5_2 Cu4 1_555 1_555
N4_4 Cu4 1_555 1_555
H19_4 N4_4 1_555 1_555
H20_4 N4_4 1_555 1_555
N6 C29_4 1_555 1_555
N8_4 Cu4 1_555 1_555
C29_4 H29_4 1_555 1_555
C30_4 C29_4 1_555 1_555
H30_4 C30_4 1_555 1_555
C31_4 N6 1_555 1_555
H31_4 C31_4 1_555 1_555
C32_4 C31_4 1_555 1_555
H32_4 C32_4 1_555 1_555
C30_4 C33_4 1_555 1_555
C32_4 C33_4 1_555 1_555
Cu5_2 O1_4 1_555 1_555
O1_4 C1_4 1_555 1_555
O5_2 C1_4 1_555 1_555
N1_4 Cu5_2 1_555 1_555
H1_4 N1_4 1_555 1_555
H2_4 N1_4 1_555 1_555
N2_4 Cu5_2 1_555 1_555
C1_4 C2_4 1_555 1_555
C2_4 N1_4 1_555 1_555
H3_4 C2_4 1_555 1_555
C3_4 C2_4 1_555 1_555
H4_4 C3_4 1_555 1_555
H5_4 C3_4 1_555 1_555
C4_4 C3_4 1_555 1_555
C5_4 C4_4 1_555 1_555
H6_4 C5_4 1_555 1_555
C6_4 C5_4 1_555 1_555
H7_4 C6_4 1_555 1_555
C7_4 C6_4 1_555 1_555
H8_4 C7_4 1_555 1_555
C8_4 C7_4 1_555 1_555
H9_4 C8_4 1_555 1_555
C9_4 C4_4 1_555 1_555
H10_4 C9_4 1_555 1_555
C10_4 N2_4 1_555 1_555
H11_4 C10_4 1_555 1_555
C11_4 C10_4 1_555 1_555
H12_4 C11_4 1_555 1_555
C12_4 N2_4 1_555 1_555
H13_4 C12_4 1_555 1_555
C13_4 C12_4 1_555 1_555
H14_4 C13_4 1_555 1_555
C14_4 C11_4 1_555 1_555
O3_4 C20_4 1_555 1_555
O4_4 Cu5_2 1_555 1_555
C20_4 O4_4 1_555 1_555
H21_4 C21_4 1_555 1_555
C22_4 C21_4 1_555 1_555
H22_4 C22_4 1_555 1_555
H23_4 C22_4 1_555 1_555
C23_4 C22_4 1_555 1_555
C24_4 C23_4 1_555 1_555
H24_4 C24_4 1_555 1_555
C25_4 C24_4 1_555 1_555
H25_4 C25_4 1_555 1_555
C26_4 C25_4 1_555 1_555
H26_4 C26_4 1_555 1_555
C27_4 C26_4 1_555 1_555
H27_4 C27_4 1_555 1_555
C28_4 C23_4 1_555 1_555
H28_4 C28_4 1_555 1_555
C8_4 C9_4 1_555 1_555
C13_4 C14_4 1_555 1_555
C20_4 C21_4 1_555 1_555
C27_4 C28_4 1_555 1_555
N8 C34_3 1_555 1_555
C34_3 H33_3 1_555 1_555
C35_3 C34_3 1_555 1_555
H34_3 C35_3 1_555 1_555
C36_3 N8 1_555 1_555
H35_3 C36_3 1_555 1_555
C37_3 C36_3 1_555 1_555
H36_3 C37_3 1_555 1_555
C35_3 C38_3 1_555 1_555
C37_3 C38_3 1_555 1_555
C15_3 N8_3 1_555 1_555
C16_3 C15_3 1_555 1_555
H16_3 C16_3 1_555 1_555
C17_3 N8_3 1_555 1_555
H17_3 C17_3 1_555 1_555
C18_3 C17_3 1_555 1_555
H18_3 C18_3 1_555 1_555
C19_3 C16_3 1_555 1_555
C18_3 C19_3 1_555 1_555
C15_4 N8_4 1_555 1_555
C16_4 C15_4 1_555 1_555
H16_4 C16_4 1_555 1_555
C17_4 N8_4 1_555 1_555
H17_4 C17_4 1_555 1_555
C18_4 C17_4 1_555 1_555
H18_4 C18_4 1_555 1_555
C19_4 C16_4 1_555 1_555
N8_2 C34_4 1_555 1_555
C34_4 H33_4 1_555 1_555
C35_4 C34_4 1_555 1_555
H34_4 C35_4 1_555 1_555
C36_4 N8_2 1_555 1_555
H35_4 C36_4 1_555 1_555
C37_4 C36_4 1_555 1_555
H36_4 C37_4 1_555 1_555
C38_4 C19_4 1_555 1_555
C18_4 C19_4 1_555 1_555
C35_4 C38_4 1_555 1_555
C37_4 C38_4 1_555 1_555
O6 N9 1_555 1_555
N9 O8 1_555 1_555
O6_2 N9_2 1_555 1_555
O7 N9_2 1_555 1_555
O6_3 N9_3 1_555 1_555
O7_2 N9_3 1_555 1_555
N9_3 O8_2 1_555 1_555
O6_4 N9_4 1_555 1_555
O7_3 N9_4 1_555 1_555
O6_5 N9_5 1_555 1_555
N9_5 O8_3 1_555 1_555
O6_6 N9_6 1_555 1_555
O7_4 N9_6 1_555 1_555
N9_6 O8_4 1_555 1_555
O9 H37 1_555 1_555
O9_2 H37_2 1_555 1_555
O9_3 H37_3 1_555 1_555
O9_4 H37_4 1_555 1_555
O9_5 H37_5 1_555 1_555
O9_6 H37_6 1_555 1_555
O9_7 H37_7 1_555 1_555
O9_8 H37_8 1_555 1_555
O10 H39 1_555 1_555
O10_2 H39_2 1_555 1_555
O10_3 H39_3 1_555 1_555
O10_4 H39_4 1_555 1_555
O10_5 H39_5 1_555 1_555
O10_6 H39_6 1_555 1_555
O10_7 H39_7 1_555 1_555
O10_8 H39_8 1_555 1_555
O11 H40 1_555 1_555
O11_2 H40_2 1_555 1_555
O11_3 H40_3 1_555 1_555
O11_4 H40_4 1_555 1_555
O11_5 H40_5 1_555 1_555
O11_6 H40_6 1_555 1_555
O11_7 H40_7 1_555 1_555
O11_8 H40_8 1_555 1_555
O12 H38 1_555 1_555
O12_2 H38_2 1_555 1_555
O12_3 H38_3 1_555 1_555
O12_4 H38_4 1_555 1_555
O12_5 H38_5 1_555 1_555
O12_6 H38_6 1_555 1_555
O12_7 H38_7 1_555 1_555
O12_8 H38_8 1_555 1_555

#END
