
###############################################################################
#
# This file contains modified crystal structure data generated from the
# MOF subset of the Cambridge Structural Database (CSD) v543 
# hosted by the Cambridge Crystallographic Data Centre (CCDC).
#
# This work is licensed under the Creative Commons
# Attribution-NonCommercial-ShareAlike 4.0 International License.
# To view a copy of this license, visit
# http://creativecommons.org/licenses/by-nc-sa/4.0/
# or send a letter to
# Creative Commons, PO Box 1866, Mountain View, CA 94042, USA.
#
# CIF created using the CSD Python API on 29 September 2022
# The structure has been converted into the P1 space group
# The structure has a 3D framework
# The original CSD entry IDESUI is in the tetragonal crystal system
# The framework has been calculated to contain at least 10.0% void space
# The void calculation uses a probe of radius 1.32A, grid spacing 0.4
#
###############################################################################

data_IDESUI
_chemical_formula_moiety         '(C144 H112 Ag15 Co10 N66 O16)n'
_symmetry_cell_setting           triclinic
_symmetry_space_group_name_H-M   'P 1'
_symmetry_Int_Tables_number      1
_space_group_name_Hall           'P 1'
loop_
_symmetry_equiv_pos_site_id
_symmetry_equiv_pos_as_xyz
1 x,y,z
_cell_length_a                   19.198(3)
_cell_length_b                   19.198(3)
_cell_length_c                   13.4842(18)
_cell_angle_alpha                90
_cell_angle_beta                 90
_cell_angle_gamma                90
_cell_volume                     4969.78
loop_
_atom_site_label
_atom_site_type_symbol
_atom_site_fract_x
_atom_site_fract_y
_atom_site_fract_z
C1 C 0.5602(3) 0.4895(2) 0.2873(3)
H1 H 0.6013 0.4811 0.3219
C2 C 0.5606(2) 0.4912(2) 0.1842(3)
C3 C 0.6206(2) 0.48572(19) 0.1161(3)
N1 N 0.5000 0.5000 0.1371(3)
N2 N 0.5000 0.5000 0.3374(4)
N3 N 0.60038(16) 0.49012(16) 0.0210(2)
O1 O 0.68150(19) 0.4788(2) 0.1460(3)
Co1 Co 0.5000 0.5000 0.0000
Ag1 Ag 0.5000 0.5000 0.5000
C10 C 0.4398(3) 0.5105(2) 0.2873(3)
H8 H 0.3987 0.5189 0.3219
C11 C 0.4394(2) 0.5088(2) 0.1842(3)
C12 C 0.3794(2) 0.51428(19) 0.1161(3)
N5 N 0.39962(16) 0.50988(16) 0.0210(2)
O2 O 0.31850(19) 0.5212(2) 0.1460(3)
C22 C 0.5010(3) 0.6530(2) 0.0545(3)
H16 H 0.4941 0.6977 0.0225
H17 H 0.4591 0.6426 0.0920
C23 C 0.5610(2) 0.65906(19) 0.1255(3)
C24 C 0.6274(3) 0.6560(2) 0.0966(3)
H18 H 0.6381 0.6501 0.0299
C25 C 0.6817(3) 0.6619(3) 0.1674(4)
H19 H 0.7277 0.6609 0.1459
C26 C 0.6027(3) 0.6728(3) 0.2936(4)
H20 H 0.5937 0.6799 0.3606
C27 C 0.5468(3) 0.6670(2) 0.2295(3)
H21 H 0.5013 0.6682 0.2530
N10 N 0.6684(3) 0.6686(2) 0.2643(4)
C31 C 0.4990(3) 0.3470(2) 0.0545(3)
H23 H 0.5059 0.3023 0.0225
H24 H 0.5409 0.3574 0.0920
C32 C 0.4390(2) 0.34094(19) 0.1255(3)
C33 C 0.3726(3) 0.3440(2) 0.0966(3)
H25 H 0.3619 0.3499 0.0299
C34 C 0.3183(3) 0.3381(3) 0.1674(4)
H26 H 0.2723 0.3391 0.1459
C35 C 0.3973(3) 0.3272(3) 0.2936(4)
H27 H 0.4063 0.3201 0.3606
C36 C 0.4532(3) 0.3330(2) 0.2295(3)
H28 H 0.4987 0.3318 0.2530
N12 N 0.3316(3) 0.3314(2) 0.2643(4)
N13 N 0.5000 0.5000 0.6626(4)
Ag5 Ag 0.2500 0.32398(5) 0.3750
Ag6 Ag 0.7500 0.67602(5) 0.3750
C4 C 0.6530(2) 0.4990(3) 0.9455(3)
H2 H 0.6977 0.5059 0.9775
H3 H 0.6426 0.5409 0.9080
C5 C 0.65906(19) 0.4390(2) 0.8745(3)
C6 C 0.6560(2) 0.3726(3) 0.9034(3)
H4 H 0.6501 0.3619 0.9701
C7 C 0.6619(3) 0.3183(3) 0.8326(4)
H5 H 0.6609 0.2723 0.8541
C8 C 0.6728(3) 0.3973(3) 0.7064(4)
H6 H 0.6799 0.4063 0.6394
C9 C 0.6670(2) 0.4532(3) 0.7705(3)
H7 H 0.6682 0.4987 0.7470
N4 N 0.6686(2) 0.3316(3) 0.7357(4)
Co1_2 Co 0.5000 0.5000 1.0000
Ag2 Ag 0.67602(5) 0.2500 0.6250
C13 C 0.3470(2) 0.5010(3) 0.9455(3)
H9 H 0.3023 0.4941 0.9775
H10 H 0.3574 0.4591 0.9080
C14 C 0.34094(19) 0.5610(2) 0.8745(3)
C15 C 0.3440(2) 0.6274(3) 0.9034(3)
H11 H 0.3499 0.6381 0.9701
C16 C 0.3381(3) 0.6817(3) 0.8326(4)
H12 H 0.3391 0.7277 0.8541
C17 C 0.3272(3) 0.6027(3) 0.7064(4)
H13 H 0.3201 0.5937 0.6394
C18 C 0.3330(2) 0.5468(3) 0.7705(3)
H14 H 0.3318 0.5013 0.7470
N6 N 0.3314(2) 0.6684(3) 0.7357(4)
Ag3 Ag 0.32398(5) 0.7500 0.6250
C19 C 0.5105(2) 0.5602(3) 0.7127(3)
H15 H 0.5189 0.6013 0.6781
C20 C 0.5088(2) 0.5606(2) 0.8158(3)
C21 C 0.51428(19) 0.6206(2) 0.8839(3)
N7 N 0.5000 0.5000 0.8629(3)
N9 N 0.50988(16) 0.60038(16) 0.9790(2)
O3 O 0.5212(2) 0.68150(19) 0.8540(3)
C28 C 0.4895(2) 0.4398(3) 0.7127(3)
H22 H 0.4811 0.3987 0.6781
C29 C 0.4912(2) 0.4394(2) 0.8158(3)
C30 C 0.48572(19) 0.3794(2) 0.8839(3)
N11 N 0.49012(16) 0.39962(16) 0.9790(2)
O4 O 0.4788(2) 0.31850(19) 0.8540(3)
N14 N 0.6686(2) 0.1684(3) 0.5143(4)
N15 N 0.3314(2) 0.8316(3) 0.5143(4)
C2_2 C 0.5606(2) 0.0088(2) 0.0658(3)
C3_2 C 0.6206(2) 0.01428(19) 0.1339(3)
C4_2 C 0.6530(2) 0.0010(3) 0.3045(3)
C5_2 C 0.65906(19) 0.0610(2) 0.3755(3)
C6_2 C 0.6560(2) 0.1274(3) 0.3466(3)
H4_2 H 0.6501 0.1381 0.2799
C7_2 C 0.6619(3) 0.1817(3) 0.4174(4)
H5_2 H 0.6609 0.2277 0.3959
C8_2 C 0.6728(3) 0.1027(3) 0.5436(4)
H6_2 H 0.6799 0.0937 0.6106
C9_2 C 0.6670(2) 0.0468(3) 0.4795(3)
H7_2 H 0.6682 0.0013 0.5030
N1_2 N 0.5000 0.0000 0.1129(3)
N3_2 N 0.60038(16) 0.00988(16) 0.2290(2)
O1_2 O 0.68150(19) 0.0212(2) 0.1040(3)
Co1_3 Co 0.5000 0.0000 0.2500
H9_2 H 0.3023 0.0059 0.2725
H10_2 H 0.3574 0.0409 0.3420
N7_2 N 0.5000 0.0000 0.3871(3)
N8 N 0.5000 0.0000 0.5874(4)
C28_2 C 0.4895(2) 0.0602(3) 0.5373(3)
H22_2 H 0.4811 0.1013 0.5719
C29_2 C 0.4912(2) 0.0606(2) 0.4342(3)
C30_2 C 0.48572(19) 0.1206(2) 0.3661(3)
C31_2 C 0.4990(3) 0.1530(2) 0.1955(3)
H23_2 H 0.5059 0.1977 0.2275
H24_2 H 0.5409 0.1426 0.1580
C32_2 C 0.4390(2) 0.15906(19) 0.1245(3)
C33_2 C 0.3726(3) 0.1560(2) 0.1534(3)
H25_2 H 0.3619 0.1501 0.2201
C34_2 C 0.3183(3) 0.1619(3) 0.0826(4)
H26_2 H 0.2723 0.1609 0.1041
C36_2 C 0.4532(3) 0.1670(2) 0.0205(3)
N11_2 N 0.49012(16) 0.10038(16) 0.2710(2)
O4_2 O 0.4788(2) 0.18150(19) 0.3960(3)
Ag4 Ag 0.5000 0.0000 0.7500
C1_2 C 0.5602(3) 0.0105(2) 0.9627(3)
H1_2 H 0.6013 0.0189 0.9281
N2_2 N 0.5000 0.0000 0.9126(4)
C35_2 C 0.3973(3) 0.1728(3) 0.9564(4)
H27_2 H 0.4063 0.1799 0.8894
H28_2 H 0.4987 0.1682 0.9970
N12_2 N 0.3316(3) 0.1686(2) 0.9857(4)
Ag5_2 Ag 0.2500 0.17602(5) 0.8750
H2_2 H 0.6977 0.9941 0.2725
H3_2 H 0.6426 0.9591 0.3420
N1_3 N 0.5000 1.0000 0.1129(3)
Co1_4 Co 0.5000 1.0000 0.2500
C11_2 C 0.4394(2) 0.9912(2) 0.0658(3)
C12_2 C 0.3794(2) 0.98572(19) 0.1339(3)
C13_2 C 0.3470(2) 0.9990(3) 0.3045(3)
C14_2 C 0.34094(19) 0.9390(2) 0.3755(3)
C15_2 C 0.3440(2) 0.8726(3) 0.3466(3)
H11_2 H 0.3499 0.8619 0.2799
C16_2 C 0.3381(3) 0.8183(3) 0.4174(4)
H12_2 H 0.3391 0.7723 0.3959
C17_2 C 0.3272(3) 0.8973(3) 0.5436(4)
H13_2 H 0.3201 0.9063 0.6106
C18_2 C 0.3330(2) 0.9532(3) 0.4795(3)
H14_2 H 0.3318 0.9987 0.5030
N5_2 N 0.39962(16) 0.99012(16) 0.2290(2)
O2_2 O 0.31850(19) 0.9788(2) 0.1040(3)
C19_2 C 0.5105(2) 0.9398(3) 0.5373(3)
H15_2 H 0.5189 0.8987 0.5719
C20_2 C 0.5088(2) 0.9394(2) 0.4342(3)
C21_2 C 0.51428(19) 0.8794(2) 0.3661(3)
C22_2 C 0.5010(3) 0.8470(2) 0.1955(3)
H16_2 H 0.4941 0.8023 0.2275
H17_2 H 0.4591 0.8574 0.1580
C23_2 C 0.5610(2) 0.84094(19) 0.1245(3)
C24_2 C 0.6274(3) 0.8440(2) 0.1534(3)
H18_2 H 0.6381 0.8499 0.2201
C25_2 C 0.6817(3) 0.8381(3) 0.0826(4)
H19_2 H 0.7277 0.8391 0.1041
C27_2 C 0.5468(3) 0.8330(2) 0.0205(3)
N7_3 N 0.5000 1.0000 0.3871(3)
N8_2 N 0.5000 1.0000 0.5874(4)
N9_2 N 0.50988(16) 0.89962(16) 0.2710(2)
O3_2 O 0.5212(2) 0.81850(19) 0.3960(3)
Ag4_2 Ag 0.5000 1.0000 0.7500
N2_3 N 0.5000 1.0000 0.9126(4)
C10_2 C 0.4398(3) 0.9895(2) 0.9627(3)
H8_2 H 0.3987 0.9811 0.9281
C26_2 C 0.6027(3) 0.8272(3) 0.9564(4)
H20_2 H 0.5937 0.8201 0.8894
H21_2 H 0.5013 0.8318 0.9970
N10_2 N 0.6684(3) 0.8314(2) 0.9857(4)
Ag6_2 Ag 0.7500 0.82398(5) 0.8750
C1_3 C 0.0105(2) 0.4398(3) 0.0373(3)
H1_3 H 0.0189 0.3987 0.0719
N2_4 N 0.0000 0.5000 0.0874(4)
Ag1_2 Ag 0.0000 0.5000 0.2500
C35_3 C 0.1728(3) 0.6027(3) 0.0436(4)
H27_3 H 0.1799 0.5937 0.1106
H28_3 H 0.1682 0.5013 0.0030
N12_3 N 0.1686(2) 0.6684(3) 0.0143(4)
N13_2 N -0.0000 0.5000 0.4126(4)
Ag5_3 Ag 0.17602(5) 0.7500 0.1250
C2_3 C 0.0088(2) 0.4394(2) 0.9342(3)
C3_3 C 0.01428(19) 0.3794(2) 0.8661(3)
C4_3 C 0.0010(3) 0.3470(2) 0.6955(3)
C5_3 C 0.0610(2) 0.34094(19) 0.6245(3)
C6_3 C 0.1274(3) 0.3440(2) 0.6534(3)
H4_3 H 0.1381 0.3499 0.7201
C7_3 C 0.1817(3) 0.3381(3) 0.5826(4)
H5_3 H 0.2277 0.3391 0.6041
C8_3 C 0.1027(3) 0.3272(3) 0.4564(4)
H6_3 H 0.0937 0.3201 0.3894
C9_3 C 0.0468(3) 0.3330(2) 0.5205(3)
H7_3 H 0.0013 0.3318 0.4970
N1_4 N 0.0000 0.5000 0.8871(3)
N3_3 N 0.00988(16) 0.39962(16) 0.7710(2)
N4_2 N 0.1684(3) 0.3314(2) 0.4857(4)
O1_3 O 0.0212(2) 0.31850(19) 0.8960(3)
Co1_5 Co 0.0000 0.5000 0.7500
H9_3 H 0.0059 0.6977 0.7275
H10_3 H 0.0409 0.6426 0.6580
N7_4 N 0.0000 0.5000 0.6129(3)
C28_3 C 0.0602(3) 0.5105(2) 0.4627(3)
H22_3 H 0.1013 0.5189 0.4281
C29_3 C 0.0606(2) 0.5088(2) 0.5658(3)
C30_3 C 0.1206(2) 0.51428(19) 0.6339(3)
C31_3 C 0.1530(2) 0.5010(3) 0.8045(3)
H23_3 H 0.1977 0.4941 0.7725
H24_3 H 0.1426 0.4591 0.8420
C32_3 C 0.15906(19) 0.5610(2) 0.8755(3)
C33_3 C 0.1560(2) 0.6274(3) 0.8466(3)
H25_3 H 0.1501 0.6381 0.7799
C34_3 C 0.1619(3) 0.6817(3) 0.9174(4)
H26_3 H 0.1609 0.7277 0.8959
C36_3 C 0.1670(2) 0.5468(3) 0.9795(3)
N11_3 N 0.10038(16) 0.50988(16) 0.7290(2)
O4_3 O 0.18150(19) 0.5212(2) 0.6040(3)
N2_5 N 1.0000 0.5000 0.0874(4)
Ag1_3 Ag 1.0000 0.5000 0.2500
C10_3 C 0.9895(2) 0.5602(3) 0.0373(3)
H8_3 H 0.9811 0.6013 0.0719
C26_3 C 0.8272(3) 0.3973(3) 0.0436(4)
H20_3 H 0.8201 0.4063 0.1106
H21_3 H 0.8318 0.4987 0.0030
N10_3 N 0.8314(2) 0.3316(3) 0.0143(4)
N13_3 N 1.0000 0.5000 0.4126(4)
Ag6_3 Ag 0.82398(5) 0.2500 0.1250
H2_3 H 0.9941 0.3023 0.7275
H3_3 H 0.9591 0.3574 0.6580
N1_5 N 1.0000 0.5000 0.8871(3)
Co1_6 Co 1.0000 0.5000 0.7500
C11_3 C 0.9912(2) 0.5606(2) 0.9342(3)
C12_3 C 0.98572(19) 0.6206(2) 0.8661(3)
C13_3 C 0.9990(3) 0.6530(2) 0.6955(3)
C14_3 C 0.9390(2) 0.65906(19) 0.6245(3)
C15_3 C 0.8726(3) 0.6560(2) 0.6534(3)
H11_3 H 0.8619 0.6501 0.7201
C16_3 C 0.8183(3) 0.6619(3) 0.5826(4)
H12_3 H 0.7723 0.6609 0.6041
C17_3 C 0.8973(3) 0.6728(3) 0.4564(4)
H13_3 H 0.9063 0.6799 0.3894
C18_3 C 0.9532(3) 0.6670(2) 0.5205(3)
H14_3 H 0.9987 0.6682 0.4970
N5_3 N 0.99012(16) 0.60038(16) 0.7710(2)
N6_2 N 0.8316(3) 0.6686(2) 0.4857(4)
O2_3 O 0.9788(2) 0.68150(19) 0.8960(3)
C19_3 C 0.9398(3) 0.4895(2) 0.4627(3)
H15_3 H 0.8987 0.4811 0.4281
C20_3 C 0.9394(2) 0.4912(2) 0.5658(3)
C21_3 C 0.8794(2) 0.48572(19) 0.6339(3)
C22_3 C 0.8470(2) 0.4990(3) 0.8045(3)
H16_3 H 0.8023 0.5059 0.7725
H17_3 H 0.8574 0.5409 0.8420
C23_3 C 0.84094(19) 0.4390(2) 0.8755(3)
C24_3 C 0.8440(2) 0.3726(3) 0.8466(3)
H18_3 H 0.8499 0.3619 0.7799
C25_3 C 0.8381(3) 0.3183(3) 0.9174(4)
H19_3 H 0.8391 0.2723 0.8959
C27_3 C 0.8330(2) 0.4532(3) 0.9795(3)
N7_5 N 1.0000 0.5000 0.6129(3)
N9_3 N 0.89962(16) 0.49012(16) 0.7290(2)
O3_3 O 0.81850(19) 0.4788(2) 0.6040(3)
Ag1_4 Ag -0.0000 0.0000 0.0000
N13_4 N -0.0000 0.0000 0.1626(4)
H2_4 H 0.1977 0.0059 0.4775
H3_4 H 0.1426 0.0409 0.4080
N1_6 N -0.0000 0.0000 0.6371(3)
N2_6 N -0.0000 0.0000 0.8374(4)
Co1_7 Co -0.0000 0.0000 0.5000
Ag1_5 Ag -0.0000 0.0000 1.0000
C19_4 C 0.0105(2) 0.0602(3) 0.2127(3)
H15_4 H 0.0189 0.1013 0.1781
C20_4 C 0.0088(2) 0.0606(2) 0.3158(3)
C21_4 C 0.01428(19) 0.1206(2) 0.3839(3)
C22_4 C 0.0010(3) 0.1530(2) 0.5545(3)
C23_4 C 0.0610(2) 0.15906(19) 0.6255(3)
C24_4 C 0.1274(3) 0.1560(2) 0.5966(3)
H18_4 H 0.1381 0.1501 0.5299
C25_4 C 0.1817(3) 0.1619(3) 0.6674(4)
H19_4 H 0.2277 0.1609 0.6459
C26_4 C 0.1027(3) 0.1728(3) 0.7936(4)
H20_4 H 0.0937 0.1799 0.8606
C27_4 C 0.0468(3) 0.1670(2) 0.7295(3)
H21_4 H 0.0013 0.1682 0.7530
N7_6 N -0.0000 0.0000 0.3629(3)
N9_4 N 0.00988(16) 0.10038(16) 0.4790(2)
N10_4 N 0.1684(3) 0.1686(2) 0.7643(4)
O3_4 O 0.0212(2) 0.18150(19) 0.3540(3)
Ag1_6 Ag -0.0000 1.0000 0.0000
N13_5 N -0.0000 1.0000 0.1626(4)
C1_4 C 0.0602(3) 0.9895(2) 0.7873(3)
H1_4 H 0.1013 0.9811 0.8219
C2_4 C 0.0606(2) 0.9912(2) 0.6842(3)
C3_4 C 0.1206(2) 0.98572(19) 0.6161(3)
C4_4 C 0.1530(2) 0.9990(3) 0.4455(3)
C5_4 C 0.15906(19) 0.9390(2) 0.3745(3)
C6_4 C 0.1560(2) 0.8726(3) 0.4034(3)
H4_4 H 0.1501 0.8619 0.4701
C7_4 C 0.1619(3) 0.8183(3) 0.3326(4)
H5_4 H 0.1609 0.7723 0.3541
C8_4 C 0.1728(3) 0.8973(3) 0.2064(4)
H6_4 H 0.1799 0.9063 0.1394
C9_4 C 0.1670(2) 0.9532(3) 0.2705(3)
H7_4 H 0.1682 0.9987 0.2470
N1_7 N -0.0000 1.0000 0.6371(3)
N2_7 N -0.0000 1.0000 0.8374(4)
N3_4 N 0.10038(16) 0.99012(16) 0.5210(2)
N4_3 N 0.1686(2) 0.8316(3) 0.2357(4)
O1_4 O 0.18150(19) 0.9788(2) 0.6460(3)
Co1_8 Co -0.0000 1.0000 0.5000
Ag1_7 Ag -0.0000 1.0000 1.0000
N7_7 N -0.0000 1.0000 0.3629(3)
H23_4 H 0.0059 0.8023 0.5225
H24_4 H 0.0409 0.8574 0.5920
Ag1_8 Ag 1.0000 0.0000 0.0000
N13_6 N 1.0000 0.0000 0.1626(4)
N1_8 N 1.0000 0.0000 0.6371(3)
N2_8 N 1.0000 0.0000 0.8374(4)
Co1_9 Co 1.0000 0.0000 0.5000
Ag1_9 Ag 1.0000 0.0000 1.0000
C10_4 C 0.9398(3) 0.0105(2) 0.7873(3)
H8_4 H 0.8987 0.0189 0.8219
C11_4 C 0.9394(2) 0.0088(2) 0.6842(3)
C12_4 C 0.8794(2) 0.01428(19) 0.6161(3)
C13_4 C 0.8470(2) 0.0010(3) 0.4455(3)
C14_4 C 0.84094(19) 0.0610(2) 0.3745(3)
C15_4 C 0.8440(2) 0.1274(3) 0.4034(3)
H11_4 H 0.8499 0.1381 0.4701
C16_4 C 0.8381(3) 0.1817(3) 0.3326(4)
H12_4 H 0.8391 0.2277 0.3541
C17_4 C 0.8272(3) 0.1027(3) 0.2064(4)
H13_4 H 0.8201 0.0937 0.1394
C18_4 C 0.8330(2) 0.0468(3) 0.2705(3)
H14_4 H 0.8318 0.0013 0.2470
N5_4 N 0.89962(16) 0.00988(16) 0.5210(2)
N6_3 N 0.8314(2) 0.1684(3) 0.2357(4)
O2_4 O 0.81850(19) 0.0212(2) 0.6460(3)
H16_4 H 0.9941 0.1977 0.5225
H17_4 H 0.9591 0.1426 0.5920
N7_8 N 1.0000 0.0000 0.3629(3)
Ag1_10 Ag 1.0000 1.0000 0.0000
N13_7 N 1.0000 1.0000 0.1626(4)
N1_9 N 1.0000 1.0000 0.6371(3)
N2_9 N 1.0000 1.0000 0.8374(4)
Co1_10 Co 1.0000 1.0000 0.5000
Ag1_11 Ag 1.0000 1.0000 1.0000
H9_4 H 0.8023 0.9941 0.4775
H10_4 H 0.8574 0.9591 0.4080
N7_9 N 1.0000 1.0000 0.3629(3)
C28_4 C 0.9895(2) 0.9398(3) 0.2127(3)
H22_4 H 0.9811 0.8987 0.1781
C29_4 C 0.9912(2) 0.9394(2) 0.3158(3)
C30_4 C 0.98572(19) 0.8794(2) 0.3839(3)
C31_4 C 0.9990(3) 0.8470(2) 0.5545(3)
C32_4 C 0.9390(2) 0.84094(19) 0.6255(3)
C33_4 C 0.8726(3) 0.8440(2) 0.5966(3)
H25_4 H 0.8619 0.8499 0.5299
C34_4 C 0.8183(3) 0.8381(3) 0.6674(4)
H26_4 H 0.7723 0.8391 0.6459
C35_4 C 0.8973(3) 0.8272(3) 0.7936(4)
H27_4 H 0.9063 0.8201 0.8606
C36_4 C 0.9532(3) 0.8330(2) 0.7295(3)
H28_4 H 0.9987 0.8318 0.7530
N11_4 N 0.99012(16) 0.89962(16) 0.4790(2)
N12_4 N 0.8316(3) 0.8314(2) 0.7643(4)
O4_4 O 0.9788(2) 0.81850(19) 0.3540(3)
loop_
_geom_bond_atom_site_label_1
_geom_bond_atom_site_label_2
_geom_bond_site_symmetry_1
_geom_bond_site_symmetry_2
C1 H1 1_555 1_555
C2 C1 1_555 1_555
C3 C2 1_555 1_555
N1 C2 1_555 1_555
N2 C1 1_555 1_555
N3 C3 1_555 1_555
O1 C3 1_555 1_555
Co1 N1 1_555 1_555
Ag1 N2 1_555 1_555
C10 N2 1_555 1_555
H8 C10 1_555 1_555
C11 N1 1_555 1_555
C12 C11 1_555 1_555
N5 Co1 1_555 1_555
O2 C12 1_555 1_555
C22 H16 1_555 1_555
H17 C22 1_555 1_555
C23 C22 1_555 1_555
C24 C23 1_555 1_555
H18 C24 1_555 1_555
C25 C24 1_555 1_555
H19 C25 1_555 1_555
C26 H20 1_555 1_555
C27 C23 1_555 1_555
H21 C27 1_555 1_555
N10 C25 1_555 1_555
C31 H23 1_555 1_555
H24 C31 1_555 1_555
C32 C31 1_555 1_555
C33 C32 1_555 1_555
H25 C33 1_555 1_555
C34 C33 1_555 1_555
H26 C34 1_555 1_555
C35 H27 1_555 1_555
C36 C32 1_555 1_555
H28 C36 1_555 1_555
N12 C34 1_555 1_555
N13 Ag1 1_555 1_555
Ag5 N12 1_555 1_555
Ag6 N10 1_555 1_555
N3 Co1 1_555 1_555
C10 C11 1_555 1_555
C12 N5 1_555 1_555
C26 C27 1_555 1_555
C26 N10 1_555 1_555
C35 C36 1_555 1_555
C35 N12 1_555 1_555
C4 H2 1_555 1_555
H3 C4 1_555 1_555
C5 C4 1_555 1_555
C6 C5 1_555 1_555
H4 C6 1_555 1_555
C7 C6 1_555 1_555
H5 C7 1_555 1_555
C8 H6 1_555 1_555
C9 C5 1_555 1_555
H7 C9 1_555 1_555
N4 C7 1_555 1_555
Ag2 N4 1_555 1_555
C13 H9 1_555 1_555
H10 C13 1_555 1_555
C14 C13 1_555 1_555
C15 C14 1_555 1_555
H11 C15 1_555 1_555
C16 C15 1_555 1_555
H12 C16 1_555 1_555
C17 H13 1_555 1_555
C18 C14 1_555 1_555
H14 C18 1_555 1_555
N6 C16 1_555 1_555
Ag3 N6 1_555 1_555
C19 H15 1_555 1_555
C20 C19 1_555 1_555
C21 C20 1_555 1_555
N7 Co1_2 1_555 1_555
N13 C19 1_555 1_555
N9 Co1_2 1_555 1_555
O3 C21 1_555 1_555
C28 N13 1_555 1_555
H22 C28 1_555 1_555
C29 N7 1_555 1_555
C30 C29 1_555 1_555
N11 Co1_2 1_555 1_555
O4 C30 1_555 1_555
N14 Ag2 1_555 1_555
N15 Ag3 1_555 1_555
C8 C9 1_555 1_555
C8 N4 1_555 1_555
C17 C18 1_555 1_555
C17 N6 1_555 1_555
C20 N7 1_555 1_555
C21 N9 1_555 1_555
C28 C29 1_555 1_555
C30 N11 1_555 1_555
C3_2 C2_2 1_555 1_555
C5_2 C4_2 1_555 1_555
C6_2 C5_2 1_555 1_555
H4_2 C6_2 1_555 1_555
C7_2 C6_2 1_555 1_555
H5_2 C7_2 1_555 1_555
C8_2 H6_2 1_555 1_555
C9_2 C5_2 1_555 1_555
H7_2 C9_2 1_555 1_555
N1_2 C2_2 1_555 1_555
N3_2 C3_2 1_555 1_555
N14 C7_2 1_555 1_555
O1_2 C3_2 1_555 1_555
Co1_3 N1_2 1_555 1_555
N7_2 Co1_3 1_555 1_555
C28_2 N8 1_555 1_555
H22_2 C28_2 1_555 1_555
C29_2 N7_2 1_555 1_555
C30_2 C29_2 1_555 1_555
C31_2 H23_2 1_555 1_555
H24_2 C31_2 1_555 1_555
C32_2 C31_2 1_555 1_555
C33_2 C32_2 1_555 1_555
H25_2 C33_2 1_555 1_555
C34_2 C33_2 1_555 1_555
H26_2 C34_2 1_555 1_555
C36_2 C32_2 1_555 1_555
N11_2 Co1_3 1_555 1_555
O4_2 C30_2 1_555 1_555
Ag4 N8 1_555 1_555
C4_2 N3_2 1_555 1_555
C8_2 C9_2 1_555 1_555
C8_2 N14 1_555 1_555
N3_2 Co1_3 1_555 1_555
C28_2 C29_2 1_555 1_555
C30_2 N11_2 1_555 1_555
C31_2 N11_2 1_555 1_555
C1_2 H1_2 1_555 1_555
N2_2 C1_2 1_555 1_555
Ag4 N2_2 1_555 1_555
C35_2 H27_2 1_555 1_555
Ag5_2 N12_2 1_555 1_555
C35_2 N12_2 1_555 1_555
Co1_4 N1_3 1_555 1_555
C11_2 N1_3 1_555 1_555
C12_2 C11_2 1_555 1_555
C14_2 C13_2 1_555 1_555
C15_2 C14_2 1_555 1_555
H11_2 C15_2 1_555 1_555
C16_2 C15_2 1_555 1_555
H12_2 C16_2 1_555 1_555
C17_2 H13_2 1_555 1_555
C18_2 C14_2 1_555 1_555
H14_2 C18_2 1_555 1_555
N5_2 Co1_4 1_555 1_555
N15 C16_2 1_555 1_555
O2_2 C12_2 1_555 1_555
C19_2 H15_2 1_555 1_555
C20_2 C19_2 1_555 1_555
C21_2 C20_2 1_555 1_555
C22_2 H16_2 1_555 1_555
H17_2 C22_2 1_555 1_555
C23_2 C22_2 1_555 1_555
C24_2 C23_2 1_555 1_555
H18_2 C24_2 1_555 1_555
C25_2 C24_2 1_555 1_555
H19_2 C25_2 1_555 1_555
C27_2 C23_2 1_555 1_555
N7_3 Co1_4 1_555 1_555
N8_2 C19_2 1_555 1_555
N9_2 Co1_4 1_555 1_555
O3_2 C21_2 1_555 1_555
Ag4_2 N8_2 1_555 1_555
C12_2 N5_2 1_555 1_555
C13_2 N5_2 1_555 1_555
C17_2 C18_2 1_555 1_555
C17_2 N15 1_555 1_555
C20_2 N7_3 1_555 1_555
C21_2 N9_2 1_555 1_555
C22_2 N9_2 1_555 1_555
Ag4_2 N2_3 1_555 1_555
C10_2 N2_3 1_555 1_555
H8_2 C10_2 1_555 1_555
C26_2 H20_2 1_555 1_555
Ag6_2 N10_2 1_555 1_555
C26_2 N10_2 1_555 1_555
C1_3 H1_3 1_555 1_555
N2_4 C1_3 1_555 1_555
Ag1_2 N2_4 1_555 1_555
C35_3 H27_3 1_555 1_555
N13_2 Ag1_2 1_555 1_555
Ag5_3 N12_3 1_555 1_555
C35_3 N12_3 1_555 1_555
C3_3 C2_3 1_555 1_555
C5_3 C4_3 1_555 1_555
C6_3 C5_3 1_555 1_555
H4_3 C6_3 1_555 1_555
C7_3 C6_3 1_555 1_555
H5_3 C7_3 1_555 1_555
C8_3 H6_3 1_555 1_555
C9_3 C5_3 1_555 1_555
H7_3 C9_3 1_555 1_555
N1_4 C2_3 1_555 1_555
N3_3 C3_3 1_555 1_555
N4_2 C7_3 1_555 1_555
O1_3 C3_3 1_555 1_555
Co1_5 N1_4 1_555 1_555
Ag5 N4_2 1_555 1_555
N7_4 Co1_5 1_555 1_555
C28_3 N13_2 1_555 1_555
H22_3 C28_3 1_555 1_555
C29_3 N7_4 1_555 1_555
C30_3 C29_3 1_555 1_555
C31_3 H23_3 1_555 1_555
H24_3 C31_3 1_555 1_555
C32_3 C31_3 1_555 1_555
C33_3 C32_3 1_555 1_555
H25_3 C33_3 1_555 1_555
C34_3 C33_3 1_555 1_555
H26_3 C34_3 1_555 1_555
C36_3 C32_3 1_555 1_555
N11_3 Co1_5 1_555 1_555
O4_3 C30_3 1_555 1_555
C4_3 N3_3 1_555 1_555
C8_3 C9_3 1_555 1_555
C8_3 N4_2 1_555 1_555
N3_3 Co1_5 1_555 1_555
C28_3 C29_3 1_555 1_555
C30_3 N11_3 1_555 1_555
C31_3 N11_3 1_555 1_555
Ag1_3 N2_5 1_555 1_555
C10_3 N2_5 1_555 1_555
H8_3 C10_3 1_555 1_555
C26_3 H20_3 1_555 1_555
N13_3 Ag1_3 1_555 1_555
Ag6_3 N10_3 1_555 1_555
C26_3 N10_3 1_555 1_555
Co1_6 N1_5 1_555 1_555
C11_3 N1_5 1_555 1_555
C12_3 C11_3 1_555 1_555
C14_3 C13_3 1_555 1_555
C15_3 C14_3 1_555 1_555
H11_3 C15_3 1_555 1_555
C16_3 C15_3 1_555 1_555
H12_3 C16_3 1_555 1_555
C17_3 H13_3 1_555 1_555
C18_3 C14_3 1_555 1_555
H14_3 C18_3 1_555 1_555
N5_3 Co1_6 1_555 1_555
N6_2 C16_3 1_555 1_555
O2_3 C12_3 1_555 1_555
Ag6 N6_2 1_555 1_555
C19_3 H15_3 1_555 1_555
C20_3 C19_3 1_555 1_555
C21_3 C20_3 1_555 1_555
C22_3 H16_3 1_555 1_555
H17_3 C22_3 1_555 1_555
C23_3 C22_3 1_555 1_555
C24_3 C23_3 1_555 1_555
H18_3 C24_3 1_555 1_555
C25_3 C24_3 1_555 1_555
H19_3 C25_3 1_555 1_555
C27_3 C23_3 1_555 1_555
N7_5 Co1_6 1_555 1_555
N13_3 C19_3 1_555 1_555
N9_3 Co1_6 1_555 1_555
O3_3 C21_3 1_555 1_555
C12_3 N5_3 1_555 1_555
C13_3 N5_3 1_555 1_555
C17_3 C18_3 1_555 1_555
C17_3 N6_2 1_555 1_555
C20_3 N7_5 1_555 1_555
C21_3 N9_3 1_555 1_555
C22_3 N9_3 1_555 1_555
N13_4 Ag1_4 1_555 1_555
Co1_7 N1_6 1_555 1_555
Ag1_5 N2_6 1_555 1_555
C19_4 H15_4 1_555 1_555
C20_4 C19_4 1_555 1_555
C21_4 C20_4 1_555 1_555
C23_4 C22_4 1_555 1_555
C24_4 C23_4 1_555 1_555
H18_4 C24_4 1_555 1_555
C25_4 C24_4 1_555 1_555
H19_4 C25_4 1_555 1_555
C26_4 H20_4 1_555 1_555
C27_4 C23_4 1_555 1_555
H21_4 C27_4 1_555 1_555
N7_6 Co1_7 1_555 1_555
N13_4 C19_4 1_555 1_555
N9_4 Co1_7 1_555 1_555
N10_4 C25_4 1_555 1_555
O3_4 C21_4 1_555 1_555
Ag5_2 N10_4 1_555 1_555
C20_4 N7_6 1_555 1_555
C21_4 N9_4 1_555 1_555
C22_4 N9_4 1_555 1_555
C26_4 C27_4 1_555 1_555
C26_4 N10_4 1_555 1_555
N13_5 Ag1_6 1_555 1_555
C1_4 H1_4 1_555 1_555
C2_4 C1_4 1_555 1_555
C3_4 C2_4 1_555 1_555
C5_4 C4_4 1_555 1_555
C6_4 C5_4 1_555 1_555
H4_4 C6_4 1_555 1_555
C7_4 C6_4 1_555 1_555
H5_4 C7_4 1_555 1_555
C8_4 H6_4 1_555 1_555
C9_4 C5_4 1_555 1_555
H7_4 C9_4 1_555 1_555
N1_7 C2_4 1_555 1_555
N2_7 C1_4 1_555 1_555
N3_4 C3_4 1_555 1_555
N4_3 C7_4 1_555 1_555
O1_4 C3_4 1_555 1_555
Co1_8 N1_7 1_555 1_555
Ag1_7 N2_7 1_555 1_555
Ag5_3 N4_3 1_555 1_555
N7_7 Co1_8 1_555 1_555
C4_4 N3_4 1_555 1_555
C8_4 C9_4 1_555 1_555
C8_4 N4_3 1_555 1_555
N3_4 Co1_8 1_555 1_555
N13_6 Ag1_8 1_555 1_555
Co1_9 N1_8 1_555 1_555
Ag1_9 N2_8 1_555 1_555
C10_4 N2_8 1_555 1_555
H8_4 C10_4 1_555 1_555
C11_4 N1_8 1_555 1_555
C12_4 C11_4 1_555 1_555
C14_4 C13_4 1_555 1_555
C15_4 C14_4 1_555 1_555
H11_4 C15_4 1_555 1_555
C16_4 C15_4 1_555 1_555
H12_4 C16_4 1_555 1_555
C17_4 H13_4 1_555 1_555
C18_4 C14_4 1_555 1_555
H14_4 C18_4 1_555 1_555
N5_4 Co1_9 1_555 1_555
N6_3 C16_4 1_555 1_555
O2_4 C12_4 1_555 1_555
Ag6_3 N6_3 1_555 1_555
N7_8 Co1_9 1_555 1_555
C10_4 C11_4 1_555 1_555
C12_4 N5_4 1_555 1_555
C13_4 N5_4 1_555 1_555
C17_4 C18_4 1_555 1_555
C17_4 N6_3 1_555 1_555
N13_7 Ag1_10 1_555 1_555
Co1_10 N1_9 1_555 1_555
Ag1_11 N2_9 1_555 1_555
N7_9 Co1_10 1_555 1_555
C28_4 N13_7 1_555 1_555
H22_4 C28_4 1_555 1_555
C29_4 N7_9 1_555 1_555
C30_4 C29_4 1_555 1_555
C32_4 C31_4 1_555 1_555
C33_4 C32_4 1_555 1_555
H25_4 C33_4 1_555 1_555
C34_4 C33_4 1_555 1_555
H26_4 C34_4 1_555 1_555
C35_4 H27_4 1_555 1_555
C36_4 C32_4 1_555 1_555
H28_4 C36_4 1_555 1_555
N11_4 Co1_10 1_555 1_555
N12_4 C34_4 1_555 1_555
O4_4 C30_4 1_555 1_555
Ag6_2 N12_4 1_555 1_555
C28_4 C29_4 1_555 1_555
C30_4 N11_4 1_555 1_555
C31_4 N11_4 1_555 1_555
C35_4 C36_4 1_555 1_555
C35_4 N12_4 1_555 1_555

#END
