
###############################################################################
#
# This file contains modified crystal structure data generated from the
# MOF subset of the Cambridge Structural Database (CSD) v543 
# hosted by the Cambridge Crystallographic Data Centre (CCDC).
#
# This work is licensed under the Creative Commons
# Attribution-NonCommercial-ShareAlike 4.0 International License.
# To view a copy of this license, visit
# http://creativecommons.org/licenses/by-nc-sa/4.0/
# or send a letter to
# Creative Commons, PO Box 1866, Mountain View, CA 94042, USA.
#
# CIF created using the CSD Python API on 29 September 2022
# The structure has been converted into the P1 space group
# The structure has a 3D framework
# The original CSD entry IDEYOF is in the monoclinic crystal system
# The framework has been calculated to contain at least 10.0% void space
# The void calculation uses a probe of radius 1.32A, grid spacing 0.4
#
###############################################################################

data_IDEYOF
_chemical_formula_moiety         '(C160 H160 N30 Ni19 O64 P16)n'
_symmetry_cell_setting           triclinic
_symmetry_space_group_name_H-M   'P 1'
_symmetry_Int_Tables_number      1
_space_group_name_Hall           'P 1'
loop_
_symmetry_equiv_pos_site_id
_symmetry_equiv_pos_as_xyz
1 x,y,z
_cell_length_a                   15.1902(7)
_cell_length_b                   16.8168(8)
_cell_length_c                   22.6800(10)
_cell_angle_alpha                90
_cell_angle_beta                 97.2140(10)
_cell_angle_gamma                90
_cell_volume                     5747.76
loop_
_atom_site_label
_atom_site_type_symbol
_atom_site_fract_x
_atom_site_fract_y
_atom_site_fract_z
Ni1 Ni 0.0000 0.38270(2) 0.2500
O2 O 0.04650(13) 0.39210(11) 0.06190(10)
H10 H 0.0602 0.4372 0.0668
P2 P 0.03674(4) 0.37326(3) 0.40645(2)
O5 O 0.01532(10) 0.38293(9) 0.34098(7)
O7 O 0.05303(12) 0.28209(10) 0.41889(8)
O8 O 0.11472(11) 0.42157(10) 0.43438(7)
H11 H 0.0834 0.2709 0.4552
N3 N 0.09672(12) 0.29241(10) 0.24945(8)
C11 C 0.3683(2) 0.0100(2) 0.19829(11)
C12 C 0.3080(2) 0.0716(2) 0.19658(11)
H14 H 0.2861(2) 0.0947(2) 0.16045(11)
C13 C 0.27985(15) 0.09894(13) 0.24897(10)
C14 C 0.3120(2) 0.0596(2) 0.30084(11)
H15 H 0.2943(2) 0.0751(2) 0.33691(11)
C16 C 0.16367(15) 0.28320(14) 0.29352(10)
H17 H 0.16971(15) 0.32004(14) 0.32434(10)
C17 C 0.2243(2) 0.22122(15) 0.29522(11)
H18 H 0.2690(2) 0.21633(15) 0.32700(11)
C18 C 0.21740(15) 0.16657(13) 0.24890(10)
C19 C 0.1492(2) 0.17728(14) 0.20280(11)
H19 H 0.1431(2) 0.14260(14) 0.17060(11)
C20 C 0.0904(2) 0.23950(13) 0.20490(11)
H20 H 0.0444(2) 0.24500(13) 0.17401(11)
N5 N 0.09925(12) 0.47259(11) 0.25129(8)
N4 N 0.40075(12) 0.97259(11) 0.24871(8)
H13 H 0.3875(2) 0.9936(2) 0.16285(11)
C15 C 0.3707(2) 0.99692(15) 0.29869(11)
H16 H 0.3904(2) 0.97037(15) 0.33386(11)
Ni3 Ni 0.5000 0.88270(2) 0.2500
Ni1_2 Ni 1.0000 0.38270(2) 0.2500
P1 P 0.96326(4) 0.37326(3) 0.09355(2)
O1 O 0.98468(10) 0.38293(9) 0.15902(7)
O3 O 0.94697(12) 0.28209(10) 0.08111(8)
O4 O 0.88528(11) 0.42157(10) 0.06562(7)
N1 N 0.90328(12) 0.29241(10) 0.25055(8)
C1 C 0.6317(2) 0.0100(2) 0.30171(11)
C2 C 0.6920(2) 0.0716(2) 0.30342(11)
H2 H 0.7139(2) 0.0947(2) 0.33955(11)
C3 C 0.72015(15) 0.09894(13) 0.25103(10)
C4 C 0.6880(2) 0.0596(2) 0.19916(11)
H3 H 0.7057(2) 0.0751(2) 0.16309(11)
C6 C 0.83633(15) 0.28320(14) 0.20648(10)
H5 H 0.83029(15) 0.32004(14) 0.17566(10)
C7 C 0.7757(2) 0.22122(15) 0.20478(11)
H6 H 0.7310(2) 0.21633(15) 0.17300(11)
C8 C 0.78260(15) 0.16657(13) 0.25110(10)
C9 C 0.8508(2) 0.17728(14) 0.29720(11)
H7 H 0.8569(2) 0.14260(14) 0.32940(11)
C10 C 0.9096(2) 0.23950(13) 0.29510(11)
H8 H 0.9556(2) 0.24500(13) 0.32599(11)
H9 H 0.9166 0.2709 0.0448
O6 O 0.95350(13) 0.39210(11) 0.43810(10)
H12 H 0.9398 0.4372 0.4332
N6 N 0.90075(12) 0.47259(11) 0.24871(8)
N2 N 0.59925(12) 0.97259(11) 0.25129(8)
H1 H 0.6125(2) 0.9936(2) 0.33715(11)
C5 C 0.6293(2) 0.99692(15) 0.20131(11)
H4 H 0.6096(2) 0.97037(15) 0.16614(11)
P1_2 P 0.46326(4) 0.87326(3) 0.09355(2)
O1_2 O 0.48468(10) 0.88293(9) 0.15902(7)
O2_2 O 0.54650(13) 0.89210(11) 0.06190(10)
O3_2 O 0.44697(12) 0.78209(10) 0.08111(8)
O4_2 O 0.38528(11) 0.92157(10) 0.06562(7)
N1_2 N 0.40328(12) 0.79241(10) 0.25055(8)
C1_2 C 0.1317(2) 0.5100(2) 0.30171(11)
H1_2 H 0.1125(2) 0.4936(2) 0.33715(11)
C2_2 C 0.1920(2) 0.5716(2) 0.30342(11)
H2_2 H 0.2139(2) 0.5947(2) 0.33955(11)
C3_2 C 0.22015(15) 0.59894(13) 0.25103(10)
C4_2 C 0.1880(2) 0.5596(2) 0.19916(11)
H3_2 H 0.2057(2) 0.5751(2) 0.16309(11)
C5_2 C 0.1293(2) 0.49692(15) 0.20131(11)
H4_2 H 0.1096(2) 0.47037(15) 0.16614(11)
C6_2 C 0.33633(15) 0.78320(14) 0.20648(10)
H5_2 H 0.33029(15) 0.82004(14) 0.17566(10)
C7_2 C 0.2757(2) 0.72122(15) 0.20478(11)
H6_2 H 0.2310(2) 0.71633(15) 0.17300(11)
C8_2 C 0.28260(15) 0.66657(13) 0.25110(10)
C9_2 C 0.3508(2) 0.67728(14) 0.29720(11)
H7_2 H 0.3569(2) 0.64260(14) 0.32940(11)
C10_2 C 0.4096(2) 0.73950(13) 0.29510(11)
H8_2 H 0.4556(2) 0.74500(13) 0.32599(11)
H9_2 H 0.4166 0.7709 0.0448
H10_2 H 0.5602 0.9372 0.0668
P2_2 P 0.53674(4) 0.87326(3) 0.40645(2)
O5_2 O 0.51532(10) 0.88293(9) 0.34098(7)
O6_2 O 0.45350(13) 0.89210(11) 0.43810(10)
O7_2 O 0.55303(12) 0.78209(10) 0.41889(8)
O8_2 O 0.61472(11) 0.92157(10) 0.43438(7)
H11_2 H 0.5834 0.7709 0.4552
H12_2 H 0.4398 0.9372 0.4332
N3_2 N 0.59672(12) 0.79241(10) 0.24945(8)
C11_2 C 0.8683(2) 0.5100(2) 0.19829(11)
H13_2 H 0.8875(2) 0.4936(2) 0.16285(11)
C12_2 C 0.8080(2) 0.5716(2) 0.19658(11)
H14_2 H 0.7861(2) 0.5947(2) 0.16045(11)
C13_2 C 0.77985(15) 0.59894(13) 0.24897(10)
C14_2 C 0.8120(2) 0.5596(2) 0.30084(11)
H15_2 H 0.7943(2) 0.5751(2) 0.33691(11)
C15_2 C 0.8707(2) 0.49692(15) 0.29869(11)
H16_2 H 0.8904(2) 0.47037(15) 0.33386(11)
C16_2 C 0.66367(15) 0.78320(14) 0.29352(10)
H17_2 H 0.66971(15) 0.82004(14) 0.32434(10)
C17_2 C 0.7243(2) 0.72122(15) 0.29522(11)
H18_2 H 0.7690(2) 0.71633(15) 0.32700(11)
C18_2 C 0.71740(15) 0.66657(13) 0.24890(10)
C19_2 C 0.6492(2) 0.67728(14) 0.20280(11)
H19_2 H 0.6431(2) 0.64260(14) 0.17060(11)
C20_2 C 0.5904(2) 0.73950(13) 0.20490(11)
H20_2 H 0.5444(2) 0.74500(13) 0.17401(11)
N4_2 N 0.40075(12) 0.02741(11) 0.74871(8)
H13_3 H 0.3875(2) 0.0064(2) 0.66285(11)
C15_3 C 0.3707(2) 0.00308(15) 0.79869(11)
H16_3 H 0.3904(2) 0.02963(15) 0.83386(11)
Ni3_2 Ni 0.5000 0.11730(2) 0.7500
Ni1_3 Ni -0.0000 0.61730(2) 0.7500
O2_3 O 0.04650(13) 0.60790(11) 0.56190(10)
H10_3 H 0.0602 0.5628 0.5668
P2_3 P 0.03674(4) 0.62674(3) 0.90645(2)
O5_3 O 0.01532(10) 0.61707(9) 0.84098(7)
O7_3 O 0.05303(12) 0.71791(10) 0.91889(8)
O8_3 O 0.11472(11) 0.57843(10) 0.93438(7)
H11_3 H 0.0834 0.7291 0.9552
N3_3 N 0.09672(12) 0.70759(10) 0.74945(8)
C11_3 C 0.3683(2) 0.9900(2) 0.69829(11)
C12_3 C 0.3080(2) 0.9284(2) 0.69658(11)
H14_3 H 0.2861(2) 0.9053(2) 0.66045(11)
C13_3 C 0.27985(15) 0.90106(13) 0.74897(10)
C14_3 C 0.3120(2) 0.9404(2) 0.80084(11)
H15_3 H 0.2943(2) 0.9249(2) 0.83691(11)
C16_3 C 0.16367(15) 0.71680(14) 0.79352(10)
H17_3 H 0.16971(15) 0.67996(14) 0.82434(10)
C17_3 C 0.2243(2) 0.77878(15) 0.79522(11)
H18_3 H 0.2690(2) 0.78367(15) 0.82700(11)
C18_3 C 0.21740(15) 0.83343(13) 0.74890(10)
C19_3 C 0.1492(2) 0.82272(14) 0.70280(11)
H19_3 H 0.1431(2) 0.85740(14) 0.67060(11)
C20_3 C 0.0904(2) 0.76050(13) 0.70490(11)
H20_3 H 0.0444(2) 0.75500(13) 0.67401(11)
N5_2 N 0.09925(12) 0.52741(11) 0.75129(8)
N2_2 N 0.59925(12) 0.02741(11) 0.75129(8)
H1_3 H 0.6125(2) 0.0064(2) 0.83715(11)
C5_3 C 0.6293(2) 0.00308(15) 0.70131(11)
H4_3 H 0.6096(2) 0.02963(15) 0.66614(11)
Ni1_4 Ni 1.0000 0.61730(2) 0.7500
P1_3 P 0.96326(4) 0.62674(3) 0.59355(2)
O1_3 O 0.98468(10) 0.61707(9) 0.65902(7)
O3_3 O 0.94697(12) 0.71791(10) 0.58111(8)
O4_3 O 0.88528(11) 0.57843(10) 0.56562(7)
N1_3 N 0.90328(12) 0.70759(10) 0.75055(8)
C1_3 C 0.6317(2) 0.9900(2) 0.80171(11)
C2_3 C 0.6920(2) 0.9284(2) 0.80342(11)
H2_3 H 0.7139(2) 0.9053(2) 0.83955(11)
C3_3 C 0.72015(15) 0.90106(13) 0.75103(10)
C4_3 C 0.6880(2) 0.9404(2) 0.69916(11)
H3_3 H 0.7057(2) 0.9249(2) 0.66309(11)
C6_3 C 0.83633(15) 0.71680(14) 0.70648(10)
H5_3 H 0.83029(15) 0.67996(14) 0.67566(10)
C7_3 C 0.7757(2) 0.77878(15) 0.70478(11)
H6_3 H 0.7310(2) 0.78367(15) 0.67300(11)
C8_3 C 0.78260(15) 0.83343(13) 0.75110(10)
C9_3 C 0.8508(2) 0.82272(14) 0.79720(11)
H7_3 H 0.8569(2) 0.85740(14) 0.82940(11)
C10_3 C 0.9096(2) 0.76050(13) 0.79510(11)
H8_3 H 0.9556(2) 0.75500(13) 0.82599(11)
H9_3 H 0.9166 0.7291 0.5448
O6_3 O 0.95350(13) 0.60790(11) 0.93810(10)
H12_3 H 0.9398 0.5628 0.9332
N6_2 N 0.90075(12) 0.52741(11) 0.74871(8)
P1_4 P 0.46326(4) 0.12674(3) 0.59355(2)
O1_4 O 0.48468(10) 0.11707(9) 0.65902(7)
O2_4 O 0.54650(13) 0.10790(11) 0.56190(10)
O3_4 O 0.44697(12) 0.21791(10) 0.58111(8)
O4_4 O 0.38528(11) 0.07843(10) 0.56562(7)
N1_4 N 0.40328(12) 0.20759(10) 0.75055(8)
C1_4 C 0.1317(2) 0.4900(2) 0.80171(11)
H1_4 H 0.1125(2) 0.5064(2) 0.83715(11)
C2_4 C 0.1920(2) 0.4284(2) 0.80342(11)
H2_4 H 0.2139(2) 0.4053(2) 0.83955(11)
C3_4 C 0.22015(15) 0.40106(13) 0.75103(10)
C4_4 C 0.1880(2) 0.4404(2) 0.69916(11)
H3_4 H 0.2057(2) 0.4249(2) 0.66309(11)
C5_4 C 0.1293(2) 0.50308(15) 0.70131(11)
H4_4 H 0.1096(2) 0.52963(15) 0.66614(11)
C6_4 C 0.33633(15) 0.21680(14) 0.70648(10)
H5_4 H 0.33029(15) 0.17996(14) 0.67566(10)
C7_4 C 0.2757(2) 0.27878(15) 0.70478(11)
H6_4 H 0.2310(2) 0.28367(15) 0.67300(11)
C8_4 C 0.28260(15) 0.33343(13) 0.75110(10)
C9_4 C 0.3508(2) 0.32272(14) 0.79720(11)
H7_4 H 0.3569(2) 0.35740(14) 0.82940(11)
C10_4 C 0.4096(2) 0.26050(13) 0.79510(11)
H8_4 H 0.4556(2) 0.25500(13) 0.82599(11)
H9_4 H 0.4166 0.2291 0.5448
H10_4 H 0.5602 0.0628 0.5668
P2_4 P 0.53674(4) 0.12674(3) 0.90645(2)
O5_4 O 0.51532(10) 0.11707(9) 0.84098(7)
O6_4 O 0.45350(13) 0.10790(11) 0.93810(10)
O7_4 O 0.55303(12) 0.21791(10) 0.91889(8)
O8_4 O 0.61472(11) 0.07843(10) 0.93438(7)
H11_4 H 0.5834 0.2291 0.9552
H12_4 H 0.4398 0.0628 0.9332
N3_4 N 0.59672(12) 0.20759(10) 0.74945(8)
C11_4 C 0.8683(2) 0.4900(2) 0.69829(11)
H13_4 H 0.8875(2) 0.5064(2) 0.66285(11)
C12_4 C 0.8080(2) 0.4284(2) 0.69658(11)
H14_4 H 0.7861(2) 0.4053(2) 0.66045(11)
C13_4 C 0.77985(15) 0.40106(13) 0.74897(10)
C14_4 C 0.8120(2) 0.4404(2) 0.80084(11)
H15_4 H 0.7943(2) 0.4249(2) 0.83691(11)
C15_4 C 0.8707(2) 0.50308(15) 0.79869(11)
H16_4 H 0.8904(2) 0.52963(15) 0.83386(11)
C16_4 C 0.66367(15) 0.21680(14) 0.79352(10)
H17_4 H 0.66971(15) 0.17996(14) 0.82434(10)
C17_4 C 0.7243(2) 0.27878(15) 0.79522(11)
H18_4 H 0.7690(2) 0.28367(15) 0.82700(11)
C18_4 C 0.71740(15) 0.33343(13) 0.74890(10)
C19_4 C 0.6492(2) 0.32272(14) 0.70280(11)
H19_4 H 0.6431(2) 0.35740(14) 0.67060(11)
C20_4 C 0.5904(2) 0.26050(13) 0.70490(11)
H20_4 H 0.5444(2) 0.25500(13) 0.67401(11)
Ni4 Ni 0.0000 0.0000 0.0000
N7 N 0.00114(13) 0.00448(11) 0.09368(8)
N8 N 0.10263(12) 0.08674(11) 0.00816(8)
C23 C 0.0007(2) 0.00561(14) 0.21730(9)
C28 C 0.22008(15) 0.21548(13) 0.00305(11)
C29 C 0.1391(2) 0.22421(14) 0.02414(13)
H27 H 0.1222(2) 0.27371(14) 0.03714(13)
C30 C 0.0834(2) 0.15995(14) 0.02597(12)
H28 H 0.0294(2) 0.16780(14) 0.04040(12)
C32 C 0.0697(2) 0.0354(2) 0.32067(11)
C33 C 0.0666(2) 0.0348(2) 0.38131(11)
H33 H 0.1141(2) 0.0565(2) 0.40596(11)
H34 H 0.1191(2) 0.0559(2) 0.30548(11)
C37 C 0.2572(2) 0.3616(2) 0.0120(2)
C38 C 0.3165(2) 0.42294(14) 0.00833(14)
H37 H 0.2993(2) 0.47396(14) 0.01784(14)
H38 H 0.2022(2) 0.3716(2) 0.0245(2)
Ni5 Ni 0.0000 0.0000 0.5000
Ni6 Ni 0.5000 0.5000 0.0000
Ni4_2 Ni 0.0000 0.0000 1.0000
C26 C 0.1835(2) 0.07706(14) 0.99167(14)
H25 H 0.2007(2) 0.02604(14) 0.98216(14)
C27 C 0.2428(2) 0.1384(2) 0.9880(2)
H26 H 0.2978(2) 0.1284(2) 0.9755(2)
C36 C 0.27992(15) 0.28452(13) 0.99695(11)
N10 N 0.39737(12) 0.41326(11) 0.99184(8)
C39 C 0.4166(2) 0.34005(14) 0.97403(12)
C40 C 0.3609(2) 0.27579(14) 0.97586(13)
H35 H 0.3778(2) 0.22629(14) 0.96286(13)
H36 H 0.4706(2) 0.33220(14) 0.95960(12)
Ni6_2 Ni 0.5000 0.5000 1.0000
Ni4_3 Ni 0.0000 1.0000 0.0000
P3 P 0.16927(4) 0.84914(3) 0.01863(2)
O9 O 0.09665(10) 0.90942(9) 0.00790(7)
O11 O 0.23132(11) 0.86878(12) 0.07703(8)
O12 O 0.13960(12) 0.76365(10) 0.02207(8)
C24 C 0.0726(2) 0.9768(2) 0.19165(10)
H23 H 0.1224(2) 0.9576(2) 0.21546(10)
C25 C 0.0697(2) 0.9768(2) 0.13052(10)
H24 H 0.1182(2) 0.9563(2) 0.11417(10)
H30 H 0.2826 0.8909 0.0704
Ni5_2 Ni 0.0000 1.0000 0.5000
Ni4_4 Ni 0.0000 1.0000 1.0000
O10 O 0.22756(11) 0.85658(11) 0.96565(8)
H29 H 0.2717 0.8198 0.9666
Ni4_5 Ni 1.0000 0.0000 0.0000
C21 C 0.9334(2) 0.0348(2) 0.11869(11)
H21 H 0.8859(2) 0.0565(2) 0.09404(11)
C22 C 0.9303(2) 0.0354(2) 0.17933(11)
H22 H 0.8809(2) 0.0559(2) 0.19452(11)
C31 C 0.9993(2) 0.00561(14) 0.28270(9)
N9 N 0.99886(13) 0.00448(11) 0.40632(8)
O14 O 0.77244(11) 0.14342(11) 0.03435(8)
H39 H 0.7283 0.1802 0.0334
Ni5_3 Ni 1.0000 0.0000 0.5000
Ni4_6 Ni 1.0000 0.0000 1.0000
P4 P 0.83073(4) 0.15086(3) 0.98137(2)
O13 O 0.90335(10) 0.09058(9) 0.99210(7)
O15 O 0.76868(11) 0.13122(12) 0.92297(8)
O16 O 0.86040(12) 0.23635(10) 0.97793(8)
H40 H 0.7174 0.1091 0.9296
Ni4_7 Ni 1.0000 1.0000 0.0000
C34 C 0.9303(2) 0.9768(2) 0.36948(10)
C35 C 0.9274(2) 0.9768(2) 0.30835(10)
H31 H 0.8776(2) 0.9576(2) 0.28454(10)
H32 H 0.8818(2) 0.9563(2) 0.38583(10)
Ni5_4 Ni 1.0000 1.0000 0.5000
Ni4_8 Ni 1.0000 1.0000 1.0000
N11 N 0.99886(13) 0.99552(11) 0.90632(8)
N12 N 0.89737(12) 0.91326(11) 0.99184(8)
P3_2 P 0.66927(4) 0.34914(3) 0.01863(2)
O9_2 O 0.59665(10) 0.40942(9) 0.00790(7)
O11_2 O 0.73132(11) 0.36878(12) 0.07703(8)
O12_2 O 0.63960(12) 0.26365(10) 0.02207(8)
N7_2 N 0.50114(13) 0.50448(11) 0.09368(8)
N8_2 N 0.60263(12) 0.58674(11) 0.00816(8)
C21_2 C 0.4334(2) 0.5348(2) 0.11869(11)
H21_2 H 0.3859(2) 0.5565(2) 0.09404(11)
C22_2 C 0.4303(2) 0.5354(2) 0.17933(11)
H22_2 H 0.3809(2) 0.5559(2) 0.19452(11)
C23_2 C 0.5007(2) 0.50561(14) 0.21730(9)
C24_2 C 0.5726(2) 0.4768(2) 0.19165(10)
H23_2 H 0.6224(2) 0.4576(2) 0.21546(10)
C25_2 C 0.5697(2) 0.4768(2) 0.13052(10)
H24_2 H 0.6182(2) 0.4563(2) 0.11417(10)
C28_2 C 0.72008(15) 0.71548(13) 0.00305(11)
C29_2 C 0.6391(2) 0.72421(14) 0.02414(13)
H27_2 H 0.6222(2) 0.77371(14) 0.03714(13)
C30_2 C 0.5834(2) 0.65995(14) 0.02597(12)
H28_2 H 0.5294(2) 0.66780(14) 0.04040(12)
H30_2 H 0.7826 0.3909 0.0704
C31_2 C 0.4993(2) 0.50561(14) 0.28270(9)
C32_2 C 0.5697(2) 0.5354(2) 0.32067(11)
C33_2 C 0.5666(2) 0.5348(2) 0.38131(11)
N9_2 N 0.49886(13) 0.50448(11) 0.40632(8)
C34_2 C 0.4303(2) 0.4768(2) 0.36948(10)
C35_2 C 0.4274(2) 0.4768(2) 0.30835(10)
H31_2 H 0.3776(2) 0.4576(2) 0.28454(10)
H32_2 H 0.3818(2) 0.4563(2) 0.38583(10)
H33_2 H 0.6141(2) 0.5565(2) 0.40596(11)
H34_2 H 0.6191(2) 0.5559(2) 0.30548(11)
C37_2 C 0.7572(2) 0.8616(2) 0.0120(2)
C38_2 C 0.8165(2) 0.92294(14) 0.00833(14)
H37_2 H 0.7993(2) 0.97396(14) 0.01784(14)
H38_2 H 0.7022(2) 0.8716(2) 0.0245(2)
O14_2 O 0.27244(11) 0.64342(11) 0.03435(8)
H39_2 H 0.2283 0.6802 0.0334
Ni5_5 Ni 0.5000 0.5000 0.5000
O10_2 O 0.72756(11) 0.35658(11) 0.96565(8)
C26_2 C 0.6835(2) 0.57706(14) 0.99167(14)
H25_2 H 0.7007(2) 0.52604(14) 0.98216(14)
C27_2 C 0.7428(2) 0.6384(2) 0.9880(2)
H26_2 H 0.7978(2) 0.6284(2) 0.9755(2)
H29_2 H 0.7717 0.3198 0.9666
C36_2 C 0.77992(15) 0.78452(13) 0.99695(11)
C39_2 C 0.9166(2) 0.84005(14) 0.97403(12)
C40_2 C 0.8609(2) 0.77579(14) 0.97586(13)
H35_2 H 0.8778(2) 0.72629(14) 0.96286(13)
H36_2 H 0.9706(2) 0.83220(14) 0.95960(12)
P4_2 P 0.33073(4) 0.65086(3) 0.98137(2)
O13_2 O 0.40335(10) 0.59058(9) 0.99210(7)
O15_2 O 0.26868(11) 0.63122(12) 0.92297(8)
O16_2 O 0.36040(12) 0.73635(10) 0.97793(8)
H40_2 H 0.2174 0.6091 0.9296
N11_2 N 0.49886(13) 0.49552(11) 0.90632(8)
P3_3 P 0.16927(4) 0.15086(3) 0.51863(2)
O9_3 O 0.09665(10) 0.09058(9) 0.50790(7)
O10_3 O 0.22756(11) 0.14342(11) 0.46565(8)
O11_3 O 0.23132(11) 0.13122(12) 0.57703(8)
O12_3 O 0.13960(12) 0.23635(10) 0.52207(8)
C24_3 C 0.0726(2) 0.0232(2) 0.69165(10)
H23_3 H 0.1224(2) 0.0424(2) 0.71546(10)
C25_3 C 0.0697(2) 0.0232(2) 0.63052(10)
H24_3 H 0.1182(2) 0.0437(2) 0.61417(10)
H29_3 H 0.2717 0.1802 0.4666
H30_3 H 0.2826 0.1091 0.5704
N7_3 N 0.00114(13) 0.99552(11) 0.59368(8)
N8_3 N 0.10263(12) 0.91326(11) 0.50816(8)
C23_3 C 0.0007(2) 0.99439(14) 0.71730(9)
C26_3 C 0.1835(2) 0.92294(14) 0.49167(14)
H25_3 H 0.2007(2) 0.97396(14) 0.48216(14)
C27_3 C 0.2428(2) 0.8616(2) 0.4880(2)
H26_3 H 0.2978(2) 0.8716(2) 0.4755(2)
C28_3 C 0.22008(15) 0.78452(13) 0.50305(11)
C29_3 C 0.1391(2) 0.77579(14) 0.52414(13)
H27_3 H 0.1222(2) 0.72629(14) 0.53714(13)
C30_3 C 0.0834(2) 0.84005(14) 0.52597(12)
H28_3 H 0.0294(2) 0.83220(14) 0.54040(12)
C32_3 C 0.0697(2) 0.9646(2) 0.82067(11)
C33_3 C 0.0666(2) 0.9652(2) 0.88131(11)
H33_3 H 0.1141(2) 0.9435(2) 0.90596(11)
H34_3 H 0.1191(2) 0.9441(2) 0.80548(11)
C36_3 C 0.27992(15) 0.71548(13) 0.49695(11)
C37_3 C 0.2572(2) 0.6384(2) 0.5120(2)
C38_3 C 0.3165(2) 0.57706(14) 0.50833(14)
N10_2 N 0.39737(12) 0.58674(11) 0.49184(8)
C39_3 C 0.4166(2) 0.65995(14) 0.47403(12)
C40_3 C 0.3609(2) 0.72421(14) 0.47586(13)
H35_3 H 0.3778(2) 0.77371(14) 0.46286(13)
H36_3 H 0.4706(2) 0.66780(14) 0.45960(12)
H37_3 H 0.2993(2) 0.52604(14) 0.51784(14)
H38_3 H 0.2022(2) 0.6284(2) 0.5245(2)
C34_3 C 0.9303(2) 0.0232(2) 0.86948(10)
C35_3 C 0.9274(2) 0.0232(2) 0.80835(10)
H31_3 H 0.8776(2) 0.0424(2) 0.78454(10)
H32_3 H 0.8818(2) 0.0437(2) 0.88583(10)
N12_2 N 0.89737(12) 0.08674(11) 0.49184(8)
C21_3 C 0.9334(2) 0.9652(2) 0.61869(11)
H21_3 H 0.8859(2) 0.9435(2) 0.59404(11)
C22_3 C 0.9303(2) 0.9646(2) 0.67933(11)
H22_3 H 0.8809(2) 0.9441(2) 0.69452(11)
C31_3 C 0.9993(2) 0.99439(14) 0.78270(9)
P4_3 P 0.83073(4) 0.84914(3) 0.48137(2)
O13_3 O 0.90335(10) 0.90942(9) 0.49210(7)
O14_3 O 0.77244(11) 0.85658(11) 0.53435(8)
O15_3 O 0.76868(11) 0.86878(12) 0.42297(8)
O16_3 O 0.86040(12) 0.76365(10) 0.47793(8)
H39_3 H 0.7283 0.8198 0.5334
H40_3 H 0.7174 0.8909 0.4296
P3_4 P 0.66927(4) 0.65086(3) 0.51863(2)
O9_4 O 0.59665(10) 0.59058(9) 0.50790(7)
O10_4 O 0.72756(11) 0.64342(11) 0.46565(8)
O11_4 O 0.73132(11) 0.63122(12) 0.57703(8)
O12_4 O 0.63960(12) 0.73635(10) 0.52207(8)
N7_4 N 0.50114(13) 0.49552(11) 0.59368(8)
N8_4 N 0.60263(12) 0.41326(11) 0.50816(8)
C21_4 C 0.4334(2) 0.4652(2) 0.61869(11)
H21_4 H 0.3859(2) 0.4435(2) 0.59404(11)
C22_4 C 0.4303(2) 0.4646(2) 0.67933(11)
H22_4 H 0.3809(2) 0.4441(2) 0.69452(11)
C23_4 C 0.5007(2) 0.49439(14) 0.71730(9)
C24_4 C 0.5726(2) 0.5232(2) 0.69165(10)
H23_4 H 0.6224(2) 0.5424(2) 0.71546(10)
C25_4 C 0.5697(2) 0.5232(2) 0.63052(10)
H24_4 H 0.6182(2) 0.5437(2) 0.61417(10)
C26_4 C 0.6835(2) 0.42294(14) 0.49167(14)
H25_4 H 0.7007(2) 0.47396(14) 0.48216(14)
C27_4 C 0.7428(2) 0.3616(2) 0.4880(2)
H26_4 H 0.7978(2) 0.3716(2) 0.4755(2)
C28_4 C 0.72008(15) 0.28452(13) 0.50305(11)
C29_4 C 0.6391(2) 0.27579(14) 0.52414(13)
H27_4 H 0.6222(2) 0.22629(14) 0.53714(13)
C30_4 C 0.5834(2) 0.34005(14) 0.52597(12)
H28_4 H 0.5294(2) 0.33220(14) 0.54040(12)
H29_4 H 0.7717 0.6802 0.4666
H30_4 H 0.7826 0.6091 0.5704
C31_4 C 0.4993(2) 0.49439(14) 0.78270(9)
C32_4 C 0.5697(2) 0.4646(2) 0.82067(11)
C33_4 C 0.5666(2) 0.4652(2) 0.88131(11)
C34_4 C 0.4303(2) 0.5232(2) 0.86948(10)
C35_4 C 0.4274(2) 0.5232(2) 0.80835(10)
H31_4 H 0.3776(2) 0.5424(2) 0.78454(10)
H32_4 H 0.3818(2) 0.5437(2) 0.88583(10)
H33_4 H 0.6141(2) 0.4435(2) 0.90596(11)
H34_4 H 0.6191(2) 0.4441(2) 0.80548(11)
C36_4 C 0.77992(15) 0.21548(13) 0.49695(11)
C37_4 C 0.7572(2) 0.1384(2) 0.5120(2)
C38_4 C 0.8165(2) 0.07706(14) 0.50833(14)
C39_4 C 0.9166(2) 0.15995(14) 0.47403(12)
C40_4 C 0.8609(2) 0.22421(14) 0.47586(13)
H35_4 H 0.8778(2) 0.27371(14) 0.46286(13)
H36_4 H 0.9706(2) 0.16780(14) 0.45960(12)
H37_4 H 0.7993(2) 0.02604(14) 0.51784(14)
H38_4 H 0.7022(2) 0.1284(2) 0.5245(2)
P4_4 P 0.33073(4) 0.34914(3) 0.48137(2)
O13_4 O 0.40335(10) 0.40942(9) 0.49210(7)
O14_4 O 0.27244(11) 0.35658(11) 0.53435(8)
O15_4 O 0.26868(11) 0.36878(12) 0.42297(8)
O16_4 O 0.36040(12) 0.26365(10) 0.47793(8)
H39_4 H 0.2283 0.3198 0.5334
H40_4 H 0.2174 0.3909 0.4296
loop_
_geom_bond_atom_site_label_1
_geom_bond_atom_site_label_2
_geom_bond_site_symmetry_1
_geom_bond_site_symmetry_2
H10 O2 1_555 1_555
P2 O5 1_555 1_555
O5 Ni1 1_555 1_555
O7 P2 1_555 1_555
O8 P2 1_555 1_555
H11 O7 1_555 1_555
N3 Ni1 1_555 1_555
C12 C11 1_555 1_555
H14 C12 1_555 1_555
C13 C12 1_555 1_555
C14 C13 1_555 1_555
H15 C14 1_555 1_555
C16 N3 1_555 1_555
H17 C16 1_555 1_555
C17 C16 1_555 1_555
H18 C17 1_555 1_555
C18 C13 1_555 1_555
C19 C18 1_555 1_555
H19 C19 1_555 1_555
C20 N3 1_555 1_555
H20 C20 1_555 1_555
N5 Ni1 1_555 1_555
C17 C18 1_555 1_555
C19 C20 1_555 1_555
C15 N4 1_555 1_555
H16 C15 1_555 1_555
Ni3 N4 1_555 1_555
Ni1_2 O1 1_555 1_555
P1 O1 1_555 1_555
O3 P1 1_555 1_555
O4 P1 1_555 1_555
N1 Ni1_2 1_555 1_555
C2 C1 1_555 1_555
H2 C2 1_555 1_555
C3 C2 1_555 1_555
C4 C3 1_555 1_555
H3 C4 1_555 1_555
C6 N1 1_555 1_555
H5 C6 1_555 1_555
C7 C6 1_555 1_555
H6 C7 1_555 1_555
C8 C3 1_555 1_555
C9 C8 1_555 1_555
H7 C9 1_555 1_555
C10 N1 1_555 1_555
H8 C10 1_555 1_555
H9 O3 1_555 1_555
H12 O6 1_555 1_555
N6 Ni1_2 1_555 1_555
C7 C8 1_555 1_555
C9 C10 1_555 1_555
C5 N2 1_555 1_555
H4 C5 1_555 1_555
Ni3 N2 1_555 1_555
Ni3 O1_2 1_555 1_555
P1_2 O1_2 1_555 1_555
O2_2 P1_2 1_555 1_555
O3_2 P1_2 1_555 1_555
O4_2 P1_2 1_555 1_555
N1_2 Ni3 1_555 1_555
N5 C1_2 1_555 1_555
C1_2 H1_2 1_555 1_555
C2_2 C1_2 1_555 1_555
H2_2 C2_2 1_555 1_555
C3_2 C2_2 1_555 1_555
C4_2 C3_2 1_555 1_555
H3_2 C4_2 1_555 1_555
C5_2 N5 1_555 1_555
H4_2 C5_2 1_555 1_555
C6_2 N1_2 1_555 1_555
H5_2 C6_2 1_555 1_555
C7_2 C6_2 1_555 1_555
H6_2 C7_2 1_555 1_555
C8_2 C3_2 1_555 1_555
C9_2 C8_2 1_555 1_555
H7_2 C9_2 1_555 1_555
C10_2 N1_2 1_555 1_555
H8_2 C10_2 1_555 1_555
H9_2 O3_2 1_555 1_555
H10_2 O2_2 1_555 1_555
P2_2 O5_2 1_555 1_555
O5_2 Ni3 1_555 1_555
O6_2 P2_2 1_555 1_555
O7_2 P2_2 1_555 1_555
O8_2 P2_2 1_555 1_555
H11_2 O7_2 1_555 1_555
H12_2 O6_2 1_555 1_555
N3_2 Ni3 1_555 1_555
N6 C11_2 1_555 1_555
C11_2 H13_2 1_555 1_555
C12_2 C11_2 1_555 1_555
H14_2 C12_2 1_555 1_555
C13_2 C12_2 1_555 1_555
C14_2 C13_2 1_555 1_555
H15_2 C14_2 1_555 1_555
C15_2 N6 1_555 1_555
H16_2 C15_2 1_555 1_555
C16_2 N3_2 1_555 1_555
H17_2 C16_2 1_555 1_555
C17_2 C16_2 1_555 1_555
H18_2 C17_2 1_555 1_555
C18_2 C13_2 1_555 1_555
C19_2 C18_2 1_555 1_555
H19_2 C19_2 1_555 1_555
C20_2 N3_2 1_555 1_555
H20_2 C20_2 1_555 1_555
C4_2 C5_2 1_555 1_555
C7_2 C8_2 1_555 1_555
C9_2 C10_2 1_555 1_555
C14_2 C15_2 1_555 1_555
C17_2 C18_2 1_555 1_555
C19_2 C20_2 1_555 1_555
C15_3 N4_2 1_555 1_555
H16_3 C15_3 1_555 1_555
Ni3_2 N4_2 1_555 1_555
H10_3 O2_3 1_555 1_555
P2_3 O5_3 1_555 1_555
O5_3 Ni1_3 1_555 1_555
O7_3 P2_3 1_555 1_555
O8_3 P2_3 1_555 1_555
H11_3 O7_3 1_555 1_555
N3_3 Ni1_3 1_555 1_555
C12_3 C11_3 1_555 1_555
H14_3 C12_3 1_555 1_555
C13_3 C12_3 1_555 1_555
C14_3 C13_3 1_555 1_555
H15_3 C14_3 1_555 1_555
C16_3 N3_3 1_555 1_555
H17_3 C16_3 1_555 1_555
C17_3 C16_3 1_555 1_555
H18_3 C17_3 1_555 1_555
C18_3 C13_3 1_555 1_555
C19_3 C18_3 1_555 1_555
H19_3 C19_3 1_555 1_555
C20_3 N3_3 1_555 1_555
H20_3 C20_3 1_555 1_555
N5_2 Ni1_3 1_555 1_555
C17_3 C18_3 1_555 1_555
C19_3 C20_3 1_555 1_555
C5_3 N2_2 1_555 1_555
H4_3 C5_3 1_555 1_555
Ni3_2 N2_2 1_555 1_555
Ni1_4 O1_3 1_555 1_555
P1_3 O1_3 1_555 1_555
O3_3 P1_3 1_555 1_555
O4_3 P1_3 1_555 1_555
N1_3 Ni1_4 1_555 1_555
C2_3 C1_3 1_555 1_555
H2_3 C2_3 1_555 1_555
C3_3 C2_3 1_555 1_555
C4_3 C3_3 1_555 1_555
H3_3 C4_3 1_555 1_555
C6_3 N1_3 1_555 1_555
H5_3 C6_3 1_555 1_555
C7_3 C6_3 1_555 1_555
H6_3 C7_3 1_555 1_555
C8_3 C3_3 1_555 1_555
C9_3 C8_3 1_555 1_555
H7_3 C9_3 1_555 1_555
C10_3 N1_3 1_555 1_555
H8_3 C10_3 1_555 1_555
H9_3 O3_3 1_555 1_555
H12_3 O6_3 1_555 1_555
N6_2 Ni1_4 1_555 1_555
C7_3 C8_3 1_555 1_555
C9_3 C10_3 1_555 1_555
Ni3_2 O1_4 1_555 1_555
P1_4 O1_4 1_555 1_555
O2_4 P1_4 1_555 1_555
O3_4 P1_4 1_555 1_555
O4_4 P1_4 1_555 1_555
N1_4 Ni3_2 1_555 1_555
N5_2 C1_4 1_555 1_555
C1_4 H1_4 1_555 1_555
C2_4 C1_4 1_555 1_555
H2_4 C2_4 1_555 1_555
C3_4 C2_4 1_555 1_555
C4_4 C3_4 1_555 1_555
H3_4 C4_4 1_555 1_555
C5_4 N5_2 1_555 1_555
H4_4 C5_4 1_555 1_555
C6_4 N1_4 1_555 1_555
H5_4 C6_4 1_555 1_555
C7_4 C6_4 1_555 1_555
H6_4 C7_4 1_555 1_555
C8_4 C3_4 1_555 1_555
C9_4 C8_4 1_555 1_555
H7_4 C9_4 1_555 1_555
C10_4 N1_4 1_555 1_555
H8_4 C10_4 1_555 1_555
H9_4 O3_4 1_555 1_555
H10_4 O2_4 1_555 1_555
P2_4 O5_4 1_555 1_555
O5_4 Ni3_2 1_555 1_555
O6_4 P2_4 1_555 1_555
O7_4 P2_4 1_555 1_555
O8_4 P2_4 1_555 1_555
H11_4 O7_4 1_555 1_555
H12_4 O6_4 1_555 1_555
N3_4 Ni3_2 1_555 1_555
N6_2 C11_4 1_555 1_555
C11_4 H13_4 1_555 1_555
C12_4 C11_4 1_555 1_555
H14_4 C12_4 1_555 1_555
C13_4 C12_4 1_555 1_555
C14_4 C13_4 1_555 1_555
H15_4 C14_4 1_555 1_555
C15_4 N6_2 1_555 1_555
H16_4 C15_4 1_555 1_555
C16_4 N3_4 1_555 1_555
H17_4 C16_4 1_555 1_555
C17_4 C16_4 1_555 1_555
H18_4 C17_4 1_555 1_555
C18_4 C13_4 1_555 1_555
C19_4 C18_4 1_555 1_555
H19_4 C19_4 1_555 1_555
C20_4 N3_4 1_555 1_555
H20_4 C20_4 1_555 1_555
C4_4 C5_4 1_555 1_555
C7_4 C8_4 1_555 1_555
C9_4 C10_4 1_555 1_555
C14_4 C15_4 1_555 1_555
C17_4 C18_4 1_555 1_555
C19_4 C20_4 1_555 1_555
N7 Ni4 1_555 1_555
N8 Ni4 1_555 1_555
C29 C28 1_555 1_555
H27 C29 1_555 1_555
C30 N8 1_555 1_555
H28 C30 1_555 1_555
C33 C32 1_555 1_555
H33 C33 1_555 1_555
H34 C32 1_555 1_555
C38 C37 1_555 1_555
H37 C38 1_555 1_555
H38 C37 1_555 1_555
C29 C30 1_555 1_555
H25 C26 1_555 1_555
C27 C26 1_555 1_555
H26 C27 1_555 1_555
C39 N10 1_555 1_555
C40 C36 1_555 1_555
H35 C40 1_555 1_555
H36 C39 1_555 1_555
Ni6_2 N10 1_555 1_555
C39 C40 1_555 1_555
Ni4_3 O9 1_555 1_555
P3 O9 1_555 1_555
O11 P3 1_555 1_555
O12 P3 1_555 1_555
H23 C24 1_555 1_555
H24 C25 1_555 1_555
H30 O11 1_555 1_555
C24 C25 1_555 1_555
H29 O10 1_555 1_555
H21 C21 1_555 1_555
C22 C21 1_555 1_555
H22 C22 1_555 1_555
H39 O14 1_555 1_555
Ni5_3 N9 1_555 1_555
P4 O13 1_555 1_555
O13 Ni4_6 1_555 1_555
O15 P4 1_555 1_555
O16 P4 1_555 1_555
H40 O15 1_555 1_555
H31 C35 1_555 1_555
H32 C34 1_555 1_555
C34 C35 1_555 1_555
N11 Ni4_8 1_555 1_555
N12 Ni4_8 1_555 1_555
Ni6 O9_2 1_555 1_555
P3_2 O9_2 1_555 1_555
O11_2 P3_2 1_555 1_555
O12_2 P3_2 1_555 1_555
N7_2 Ni6 1_555 1_555
N8_2 Ni6 1_555 1_555
C21_2 N7_2 1_555 1_555
H21_2 C21_2 1_555 1_555
C22_2 C21_2 1_555 1_555
H22_2 C22_2 1_555 1_555
C23_2 C22_2 1_555 1_555
C24_2 C23_2 1_555 1_555
H23_2 C24_2 1_555 1_555
C25_2 N7_2 1_555 1_555
H24_2 C25_2 1_555 1_555
C29_2 C28_2 1_555 1_555
H27_2 C29_2 1_555 1_555
C30_2 N8_2 1_555 1_555
H28_2 C30_2 1_555 1_555
H30_2 O11_2 1_555 1_555
C31_2 C23_2 1_555 1_555
C32_2 C31_2 1_555 1_555
C33_2 C32_2 1_555 1_555
N9_2 C33_2 1_555 1_555
C34_2 N9_2 1_555 1_555
C35_2 C31_2 1_555 1_555
H31_2 C35_2 1_555 1_555
H32_2 C34_2 1_555 1_555
H33_2 C33_2 1_555 1_555
H34_2 C32_2 1_555 1_555
C38_2 C37_2 1_555 1_555
H37_2 C38_2 1_555 1_555
H38_2 C37_2 1_555 1_555
H39_2 O14_2 1_555 1_555
Ni5_5 N9_2 1_555 1_555
C24_2 C25_2 1_555 1_555
C29_2 C30_2 1_555 1_555
C34_2 C35_2 1_555 1_555
H25_2 C26_2 1_555 1_555
C27_2 C26_2 1_555 1_555
H26_2 C27_2 1_555 1_555
H29_2 O10_2 1_555 1_555
C39_2 N12 1_555 1_555
C40_2 C36_2 1_555 1_555
H35_2 C40_2 1_555 1_555
H36_2 C39_2 1_555 1_555
P4_2 O13_2 1_555 1_555
O13_2 Ni6_2 1_555 1_555
O15_2 P4_2 1_555 1_555
O16_2 P4_2 1_555 1_555
H40_2 O15_2 1_555 1_555
N11_2 Ni6_2 1_555 1_555
C39_2 C40_2 1_555 1_555
Ni5 O9_3 1_555 1_555
P3_3 O9_3 1_555 1_555
O10_3 P3_3 1_555 1_555
O11_3 P3_3 1_555 1_555
O12_3 P3_3 1_555 1_555
H23_3 C24_3 1_555 1_555
H24_3 C25_3 1_555 1_555
H29_3 O10_3 1_555 1_555
H30_3 O11_3 1_555 1_555
C24_3 C25_3 1_555 1_555
N7_3 Ni5_2 1_555 1_555
N8_3 Ni5_2 1_555 1_555
C26_3 N8_3 1_555 1_555
H25_3 C26_3 1_555 1_555
C27_3 C26_3 1_555 1_555
H26_3 C27_3 1_555 1_555
C28_3 C27_3 1_555 1_555
C29_3 C28_3 1_555 1_555
H27_3 C29_3 1_555 1_555
C30_3 N8_3 1_555 1_555
H28_3 C30_3 1_555 1_555
C33_3 C32_3 1_555 1_555
H33_3 C33_3 1_555 1_555
H34_3 C32_3 1_555 1_555
C36_3 C28_3 1_555 1_555
C37_3 C36_3 1_555 1_555
C38_3 C37_3 1_555 1_555
N10_2 C38_3 1_555 1_555
C39_3 N10_2 1_555 1_555
C40_3 C36_3 1_555 1_555
H35_3 C40_3 1_555 1_555
H36_3 C39_3 1_555 1_555
H37_3 C38_3 1_555 1_555
H38_3 C37_3 1_555 1_555
Ni5_5 N10_2 1_555 1_555
C29_3 C30_3 1_555 1_555
C39_3 C40_3 1_555 1_555
H31_3 C35_3 1_555 1_555
H32_3 C34_3 1_555 1_555
N12_2 Ni5_3 1_555 1_555
C34_3 C35_3 1_555 1_555
H21_3 C21_3 1_555 1_555
C22_3 C21_3 1_555 1_555
H22_3 C22_3 1_555 1_555
P4_3 O13_3 1_555 1_555
O13_3 Ni5_4 1_555 1_555
O14_3 P4_3 1_555 1_555
O15_3 P4_3 1_555 1_555
O16_3 P4_3 1_555 1_555
H39_3 O14_3 1_555 1_555
H40_3 O15_3 1_555 1_555
Ni5_5 O9_4 1_555 1_555
P3_4 O9_4 1_555 1_555
O10_4 P3_4 1_555 1_555
O11_4 P3_4 1_555 1_555
O12_4 P3_4 1_555 1_555
N7_4 Ni5_5 1_555 1_555
N8_4 Ni5_5 1_555 1_555
C21_4 N7_4 1_555 1_555
H21_4 C21_4 1_555 1_555
C22_4 C21_4 1_555 1_555
H22_4 C22_4 1_555 1_555
C23_4 C22_4 1_555 1_555
C24_4 C23_4 1_555 1_555
H23_4 C24_4 1_555 1_555
C25_4 N7_4 1_555 1_555
H24_4 C25_4 1_555 1_555
C26_4 N8_4 1_555 1_555
H25_4 C26_4 1_555 1_555
C27_4 C26_4 1_555 1_555
H26_4 C27_4 1_555 1_555
C28_4 C27_4 1_555 1_555
C29_4 C28_4 1_555 1_555
H27_4 C29_4 1_555 1_555
C30_4 N8_4 1_555 1_555
H28_4 C30_4 1_555 1_555
H29_4 O10_4 1_555 1_555
H30_4 O11_4 1_555 1_555
C31_4 C23_4 1_555 1_555
C32_4 C31_4 1_555 1_555
C33_4 C32_4 1_555 1_555
N11_2 C33_4 1_555 1_555
C34_4 N11_2 1_555 1_555
C35_4 C31_4 1_555 1_555
H31_4 C35_4 1_555 1_555
H32_4 C34_4 1_555 1_555
H33_4 C33_4 1_555 1_555
H34_4 C32_4 1_555 1_555
C36_4 C28_4 1_555 1_555
C37_4 C36_4 1_555 1_555
C38_4 C37_4 1_555 1_555
N12_2 C38_4 1_555 1_555
C39_4 N12_2 1_555 1_555
C40_4 C36_4 1_555 1_555
H35_4 C40_4 1_555 1_555
H36_4 C39_4 1_555 1_555
H37_4 C38_4 1_555 1_555
H38_4 C37_4 1_555 1_555
P4_4 O13_4 1_555 1_555
O13_4 Ni5_5 1_555 1_555
O14_4 P4_4 1_555 1_555
O15_4 P4_4 1_555 1_555
O16_4 P4_4 1_555 1_555
H39_4 O14_4 1_555 1_555
H40_4 O15_4 1_555 1_555
C24_4 C25_4 1_555 1_555
C29_4 C30_4 1_555 1_555
C34_4 C35_4 1_555 1_555
C39_4 C40_4 1_555 1_555

#END
