
###############################################################################
#
# This file contains modified crystal structure data generated from the
# MOF subset of the Cambridge Structural Database (CSD) v543 
# hosted by the Cambridge Crystallographic Data Centre (CCDC).
#
# This work is licensed under the Creative Commons
# Attribution-NonCommercial-ShareAlike 4.0 International License.
# To view a copy of this license, visit
# http://creativecommons.org/licenses/by-nc-sa/4.0/
# or send a letter to
# Creative Commons, PO Box 1866, Mountain View, CA 94042, USA.
#
# CIF created using the CSD Python API on 29 September 2022
# The structure has been converted into the P1 space group
# The structure has a 3D framework
# The original CSD entry IDIMOA is in the orthorhombic crystal system
# The framework has been calculated to contain at least 10.0% void space
# The void calculation uses a probe of radius 1.32A, grid spacing 0.4
# The framework is charged, counterions have been retained in the structure
#
###############################################################################

data_IDIMOA
_chemical_formula_moiety         '(C84 H84 Cd64 In256 N56 S504 120-)n'
_symmetry_cell_setting           triclinic
_symmetry_space_group_name_H-M   'P 1'
_symmetry_Int_Tables_number      1
_space_group_name_Hall           'P 1'
loop_
_symmetry_equiv_pos_site_id
_symmetry_equiv_pos_as_xyz
1 x,y,z
_cell_length_a                   30.481(4)
_cell_length_b                   41.069(6)
_cell_length_c                   53.108(8)
_cell_angle_alpha                90
_cell_angle_beta                 90
_cell_angle_gamma                90
_cell_volume                     66481.9
loop_
_atom_site_label
_atom_site_type_symbol
_atom_site_fract_x
_atom_site_fract_y
_atom_site_fract_z
In1 In 0.09841(10) 0.50345(7) 0.65468(6)
S1 S 0.1219(7) 0.4557(5) 0.6820(4)
S2 S 0.1166(4) 0.5496(3) 0.6815(2)
S3 S 0.1421(4) 0.4972(2) 0.6165(2)
S4 S 0.0203(4) 0.4920(3) 0.6506(2)
In2 In 0.09240(8) 0.59516(6) 0.65599(5)
In3 In 0.11745(8) 0.54363(6) 0.59216(5)
S5 S 0.1343(3) 0.5945(2) 0.61563(17)
S6 S 0.0114(3) 0.5892(2) 0.64969(17)
S7 S 0.1072(3) 0.6449(2) 0.67850(19)
S8 S 0.0374(3) 0.5370(2) 0.58429(18)
S9 S 0.1572(3) 0.5449(2) 0.5525(2)
Cd1 Cd 0.10900(8) 0.64153(6) 0.59031(5)
In5 In 0.08285(9) 0.69104(6) 0.65341(5)
Cd3 Cd 0.01254(7) 0.58398(6) 0.55870(5)
In6 In 0.13187(8) 0.59009(6) 0.52728(5)
S11 S 0.0271(2) 0.63632(17) 0.58228(15)
S12 S 0.1232(3) 0.6940(2) 0.61289(17)
S13 S 0.1487(3) 0.6422(2) 0.54938(17)
S15 S 0.0017(3) 0.6868(2) 0.64643(17)
S16 S 0.0974(4) 0.7417(2) 0.67633(19)
S17 S 0.0518(3) 0.5843(2) 0.51733(17)
S19 S 0.1721(3) 0.5908(3) 0.4876(2)
Cd4 Cd 0.00212(7) 0.68321(6) 0.55584(5)
In8 In 0.09646(8) 0.73899(6) 0.58606(5)
In9 In 0.12119(8) 0.68906(6) 0.52440(5)
In12 In 0.06901(10) 0.78041(6) 0.64684(6)
In13 In 0.02593(7) 0.63202(6) 0.49288(5)
In15 In 0.13882(8) 0.63708(8) 0.46710(5)
S22 S 0.0411(3) 0.68499(19) 0.51462(16)
S23 S 0.0155(3) 0.73530(19) 0.57857(17)
S24 S 0.1355(3) 0.7396(2) 0.54664(18)
S25 S 0.1104(4) 0.7896(2) 0.6087(2)
S26 S 0.1599(3) 0.6901(3) 0.48414(19)
N1 N 0.0747(10) 0.8275(7) 0.6662(5)
S31 S 0.0642(3) 0.6319(3) 0.45282(19)
N2 N 0.1774(9) 0.6354(8) 0.4326(4)
C1 C 0.1640(11) 0.6427(9) 0.4085(4)
C2 C 0.2195(12) 0.6297(9) 0.4309(7)
H1 H 0.1368 0.6512 0.4042
C5 C 0.1978(12) 0.6355(9) 0.3912(8)
N4 N 0.2332(9) 0.6316(8) 0.4064(6)
H2 H 0.2377 0.6250 0.4445
H5 H 0.1962 0.6339 0.3738
In17 In 0.30335(8) 0.62072(7) 0.39911(5)
S81 S 0.5895(4) 0.0404(2) 0.19502(19)
In45 In 0.58653(8) 0.01454(6) 0.10726(5)
In47 In 0.46695(8) 0.01162(6) 0.14211(5)
In49 In 0.55611(10) 0.06953(6) 0.16081(5)
S85 S 0.5060(3) 0.00612(19) 0.10128(16)
S90 S 0.6259(3) 0.0074(2) 0.06838(16)
S91 S 0.5963(3) 0.0704(2) 0.12096(19)
S92 S 0.3900(3) 0.0009(2) 0.13537(18)
S93 S 0.4772(4) 0.0674(2) 0.15726(19)
N12 N 0.5675(11) 0.1210(7) 0.1731(7)
C15 C 0.5856(14) 0.1343(9) 0.1936(8)
C16 C 0.5650(14) 0.1446(9) 0.1581(8)
H15 H 0.5928 0.1233 0.2083
C18 C 0.5919(12) 0.1680(9) 0.1891(5)
N15 N 0.5747(10) 0.1725(7) 0.1662(5)
H16 H 0.5564 0.1415 0.1415
H18 H 0.6049 0.1833 0.1997
In52 In 0.56901(10) 0.21959(6) 0.14684(6)
S95 S 0.5974(4) 0.2583(2) 0.17633(19)
S96 S 0.4894(4) 0.2168(2) 0.1419(2)
S97 S 0.6104(4) 0.2104(2) 0.1087(2)
In53 In 0.58285(9) 0.30896(6) 0.15341(5)
In54 In 0.47675(8) 0.26736(6) 0.11935(5)
In55 In 0.59646(8) 0.26101(6) 0.08606(5)
S98 S 0.5017(3) 0.3132(2) 0.14643(17)
S99 S 0.6232(3) 0.3060(2) 0.11289(17)
S100 S 0.6072(3) 0.3551(2) 0.17850(19)
S101 S 0.5155(3) 0.26470(19) 0.07857(17)
S102 S 0.3991(3) 0.2712(2) 0.11174(19)
S103 S 0.6355(3) 0.2604(2) 0.04664(18)
Cd13 Cd 0.48768(8) 0.36437(6) 0.12320(5)
Cd14 Cd 0.60900(8) 0.35847(6) 0.09031(5)
In56 In 0.59240(8) 0.40484(6) 0.15599(5)
Cd15 Cd 0.50212(7) 0.31679(6) 0.05584(5)
In57 In 0.38470(8) 0.32217(6) 0.09009(5)
In58 In 0.62119(8) 0.31094(6) 0.02440(5)
S104 S 0.5271(2) 0.36368(17) 0.08228(15)
S105 S 0.4075(3) 0.3697(2) 0.11617(16)
S106 S 0.5114(3) 0.4108(2) 0.14969(17)
S107 S 0.6487(3) 0.3578(2) 0.04938(17)
S108 S 0.6343(3) 0.4055(2) 0.11563(17)
S109 S 0.6166(4) 0.4504(3) 0.1815(2)
S110 S 0.5411(3) 0.31501(19) 0.01462(16)
S111 S 0.4214(3) 0.3214(2) 0.04827(16)
S112 S 0.3061(3) 0.3268(3) 0.08381(19)
Cd16 Cd 0.51254(7) 0.41602(6) 0.05870(5)
In59 In 0.39481(8) 0.42131(6) 0.09208(5)
In60 In 0.49695(8) 0.46184(6) 0.12493(5)
In61 In 0.63187(8) 0.40991(6) 0.02728(5)
In62 In 0.61745(8) 0.45637(6) 0.09216(5)
In63 In 0.59841(10) 0.49655(7) 0.15468(6)
In65 In 0.40971(7) 0.37335(6) 0.02546(5)
In66 In 0.30346(8) 0.37705(7) 0.06069(5)
S114 S 0.4325(3) 0.4212(2) 0.05049(17)
S115 S 0.5518(3) 0.4157(2) 0.01733(17)
S116 S 0.5374(3) 0.4630(2) 0.08429(18)
S117 S 0.4184(3) 0.4669(2) 0.1172(2)
S118 S 0.3163(3) 0.4261(3) 0.0850(2)
S119 S 0.5203(4) 0.5080(3) 0.1506(2)
S120 S 0.6572(3) 0.4551(2) 0.0525(2)
S122 S 0.6421(4) 0.5028(2) 0.1165(2)
S123 S 0.6219(7) 0.5443(5) 0.1820(4)
S126 S 0.3311(3) 0.3771(3) 0.01801(18)
N16 N 0.2350(9) 0.3784(7) 0.0526(6)
S113 S 0.6599(3) 0.3099(3) 0.98414(19)
In64 In 0.52593(7) 0.36798(6) 0.99288(5)
In67 In 0.63882(8) 0.36292(8) 0.96710(5)
S121 S 0.6721(3) 0.4092(3) 0.9876(2)
S124 S 0.4478(3) 0.3726(2) 0.98517(17)
S125 S 0.5642(3) 0.3681(3) 0.95282(19)
N17 N 0.6774(9) 0.3646(8) 0.9326(4)
C19 C 0.7195(12) 0.3703(9) 0.9309(7)
C20 C 0.6640(11) 0.3573(9) 0.9085(4)
N18 N 0.7332(9) 0.3684(8) 0.9064(6)
H19 H 0.7377 0.3750 0.9445
C21 C 0.6978(12) 0.3645(9) 0.8912(8)
H20 H 0.6368 0.3488 0.9042
In68 In 0.80335(8) 0.37928(7) 0.89911(5)
H21 H 0.6962 0.3661 0.8738
In4 In 0.99695(8) 0.53816(6) 0.62493(5)
S10 S 0.9184(3) 0.5331(2) 0.6172(2)
Cd2 Cd 0.98768(8) 0.63563(6) 0.62320(5)
In7 In 0.89481(8) 0.57869(6) 0.59208(5)
S14 S 0.9075(3) 0.6303(2) 0.61617(16)
S18 S 0.9325(3) 0.5788(2) 0.55049(17)
S20 S 0.8163(3) 0.5739(3) 0.5850(2)
In10 In 0.88470(8) 0.67783(6) 0.59009(5)
In11 In 0.97675(8) 0.73264(6) 0.61935(5)
In14 In 0.90971(7) 0.62665(6) 0.52546(5)
In16 In 0.80346(8) 0.62295(7) 0.56069(5)
S21 S 0.9214(3) 0.6786(2) 0.54827(16)
S27 S 0.8061(3) 0.6732(3) 0.58381(19)
S28 S 0.8991(3) 0.7288(2) 0.61174(19)
S29 S 0.9894(4) 0.7832(2) 0.6419(2)
S30 S 0.9478(3) 0.6274(2) 0.48517(17)
S32 S 0.8311(3) 0.6229(3) 0.51801(18)
N3 N 0.7350(9) 0.6216(7) 0.5526(6)
C3 C 0.7023(12) 0.6295(11) 0.5668(8)
C4 C 0.7203(10) 0.6173(8) 0.5301(7)
H3 H 0.7027 0.6345 0.5839
C6 C 0.6654(12) 0.6287(10) 0.5502(7)
H4 H 0.7381 0.6134 0.5163
N5 N 0.6761(8) 0.6192(5) 0.5290(5)
H6 H 0.6370 0.6345 0.5548
In18 In 0.63645(7) 0.61205(6) 0.49418(5)
S33 S 0.5623(3) 0.6240(2) 0.50773(16)
S34 S 0.6548(3) 0.5561(2) 0.48492(16)
S35 S 0.6726(3) 0.6526(2) 0.46770(18)
In19 In 0.52482(7) 0.61594(5) 0.46774(4)
In20 In 0.61542(7) 0.54828(6) 0.44597(4)
In21 In 0.63398(7) 0.64365(6) 0.42836(5)
S36 S 0.5358(2) 0.55879(18) 0.45369(14)
S37 S 0.5549(2) 0.65540(19) 0.43644(16)
S38 S 0.4469(3) 0.6264(2) 0.47450(16)
S39 S 0.6470(2) 0.58640(19) 0.41453(15)
S40 S 0.6259(3) 0.4926(2) 0.43162(16)
S41 S 0.6631(3) 0.6808(2) 0.39785(17)
Cd5 Cd 0.49631(7) 0.55128(5) 0.41349(4)
Cd6 Cd 0.51566(7) 0.64706(6) 0.39584(4)
In22 In 0.40926(7) 0.61865(6) 0.43478(4)
Cd7 Cd 0.60616(7) 0.57870(6) 0.37425(4)
In23 In 0.58653(8) 0.48546(6) 0.39274(5)
In24 In 0.62398(8) 0.67285(6) 0.35820(5)
S42 S 0.5261(2) 0.58990(18) 0.38088(14)
S43 S 0.4168(3) 0.56170(19) 0.42007(15)
S44 S 0.5060(3) 0.49388(19) 0.39872(16)
S45 S 0.4362(2) 0.6583(2) 0.40261(16)
S46 S 0.5446(3) 0.6857(2) 0.36391(16)
S47 S 0.3318(3) 0.6307(2) 0.44161(18)
S48 S 0.6176(3) 0.5217(2) 0.35943(16)
S49 S 0.6360(3) 0.6168(2) 0.34199(16)
S50 S 0.5963(3) 0.4296(2) 0.37904(19)
S51 S 0.6547(3) 0.7097(2) 0.32715(19)
Cd8 Cd 0.48637(7) 0.58177(6) 0.33966(4)
In25 In 0.38000(7) 0.55448(6) 0.37854(5)
In26 In 0.46695(8) 0.48838(6) 0.35789(5)
In27 In 0.39850(7) 0.64989(6) 0.36141(5)
In28 In 0.50454(8) 0.67612(6) 0.32384(5)
In29 In 0.57667(8) 0.51539(6) 0.31930(5)
In30 In 0.59458(8) 0.60755(6) 0.30212(5)
In31 In 0.55611(10) 0.43047(6) 0.33919(5)
In32 In 0.60968(9) 0.69562(7) 0.29143(5)
S52 S 0.5148(3) 0.6193(2) 0.30709(16)
S53 S 0.4960(3) 0.5250(2) 0.32460(16)
S54 S 0.4072(3) 0.5934(2) 0.34615(16)
S55 S 0.3023(3) 0.5654(2) 0.38498(18)
S56 S 0.3900(3) 0.4991(2) 0.36463(18)
S57 S 0.4772(4) 0.4326(2) 0.34274(19)
S58 S 0.4278(3) 0.6870(2) 0.33039(18)
S59 S 0.3208(3) 0.6611(3) 0.3675(2)
S60 S 0.5337(3) 0.7134(2) 0.2928(2)
S61 S 0.6047(3) 0.5524(2) 0.28762(17)
S62 S 0.5895(4) 0.4596(2) 0.30498(19)
S63 S 0.6245(3) 0.6444(2) 0.27102(19)
N6 N 0.5675(11) 0.3790(7) 0.3269(7)
N7 N 0.6382(8) 0.7308(6) 0.2643(4)
C7 C 0.5856(14) 0.3657(9) 0.3064(8)
C8 C 0.5650(14) 0.3554(9) 0.3419(8)
C9 C 0.6788(11) 0.7375(8) 0.2586(6)
C10 C 0.6111(16) 0.7500 0.2500
H7 H 0.5928 0.3767 0.2917
C11 C 0.5919(12) 0.3320(9) 0.3109(5)
H8 H 0.5564 0.3585 0.3585
H9 H 0.7035 0.7272 0.2651
H10 H 0.5806 0.7500 0.2500
H11 H 0.6049 0.3167 0.3003
N9 N 0.5747(10) 0.3275(7) 0.3338(5)
C12 C 0.6788(11) 0.7625(8) 0.2414(6)
N10 N 0.6382(8) 0.7692(6) 0.2357(4)
In34 In 0.56901(10) 0.28041(6) 0.35316(6)
H12 H 0.7035 0.7728 0.2349
In35 In 0.60968(9) 0.80438(7) 0.20857(5)
S64 S 0.6547(3) 0.7903(2) 0.17285(19)
S65 S 0.6245(3) 0.8556(2) 0.22898(19)
S66 S 0.5337(3) 0.7866(2) 0.2072(2)
In36 In 0.62398(8) 0.82715(6) 0.14180(5)
In37 In 0.59458(8) 0.89245(6) 0.19788(5)
In38 In 0.50454(8) 0.82388(6) 0.17616(5)
S67 S 0.5446(3) 0.8143(2) 0.13609(16)
S68 S 0.6360(3) 0.8832(2) 0.15801(16)
S69 S 0.6631(3) 0.8192(2) 0.10215(17)
S70 S 0.5148(3) 0.8807(2) 0.19291(16)
S71 S 0.6047(3) 0.9476(2) 0.21238(17)
S72 S 0.4278(3) 0.8130(2) 0.16961(18)
Cd9 Cd 0.51566(7) 0.85294(6) 0.10416(4)
Cd10 Cd 0.60616(7) 0.92130(6) 0.12575(4)
In39 In 0.63398(7) 0.85635(6) 0.07164(5)
Cd11 Cd 0.48637(7) 0.91823(6) 0.16034(4)
In40 In 0.57667(8) 0.98461(6) 0.18070(5)
In41 In 0.39850(7) 0.85011(6) 0.13859(5)
S73 S 0.5261(2) 0.91010(18) 0.11912(14)
S74 S 0.4362(2) 0.8417(2) 0.09739(16)
S75 S 0.5549(2) 0.84460(19) 0.06356(16)
S76 S 0.6470(2) 0.91360(19) 0.08547(15)
S77 S 0.6176(3) 0.9783(2) 0.14057(16)
S78 S 0.6726(3) 0.8474(2) 0.03230(18)
S79 S 0.4960(3) 0.9750(2) 0.17540(16)
S80 S 0.4072(3) 0.9066(2) 0.15385(16)
S82 S 0.3208(3) 0.8389(3) 0.1325(2)
Cd12 Cd 0.49631(7) 0.94872(5) 0.08651(4)
In42 In 0.40926(7) 0.88135(6) 0.06522(4)
In43 In 0.52482(7) 0.88406(5) 0.03226(4)
In44 In 0.61542(7) 0.95172(6) 0.05403(4)
In46 In 0.63645(7) 0.88795(6) 0.00582(5)
In48 In 0.38000(7) 0.94552(6) 0.12146(5)
In50 In 0.30335(8) 0.87928(7) 0.10089(5)
S83 S 0.5358(2) 0.94121(18) 0.04631(14)
S84 S 0.4168(3) 0.93830(19) 0.07993(15)
S86 S 0.4469(3) 0.8736(2) 0.02550(16)
S87 S 0.3318(3) 0.8693(2) 0.05839(18)
S89 S 0.6548(3) 0.9439(2) 0.01508(16)
S94 S 0.3023(3) 0.9346(2) 0.11502(18)
N13 N 0.2332(9) 0.8684(8) 0.0936(6)
S88 S 0.5623(3) 0.8760(2) 0.99227(16)
N11 N 0.6761(8) 0.8808(5) 0.9710(5)
C13 C 0.6654(12) 0.8713(10) 0.9498(7)
C14 C 0.7203(10) 0.8827(8) 0.9699(7)
C17 C 0.7023(12) 0.8705(11) 0.9332(8)
H13 H 0.6370 0.8655 0.9452
N14 N 0.7350(9) 0.8784(7) 0.9474(6)
H14 H 0.7381 0.8866 0.9837
H17 H 0.7027 0.8655 0.9161
In51 In 0.80346(8) 0.87705(7) 0.93931(5)
S19_2 S 0.1721(3) 0.9092(3) 0.0124(2)
In13_2 In 0.02593(7) 0.86798(6) 0.00712(5)
In15_2 In 0.13882(8) 0.86292(8) 0.03290(5)
S26_2 S 0.1599(3) 0.8099(3) 0.01586(19)
S31_2 S 0.0642(3) 0.8681(3) 0.04718(19)
N2_2 N 0.1774(9) 0.8646(8) 0.0674(4)
C1_2 C 0.1640(11) 0.8573(9) 0.0915(4)
C2_2 C 0.2195(12) 0.8703(9) 0.0691(7)
H1_2 H 0.1368 0.8488 0.0958
C5_2 C 0.1978(12) 0.8645(9) 0.1088(8)
H2_2 H 0.2377 0.8750 0.0555
H5_2 H 0.1962 0.8661 0.1262
In1_2 In 0.09841(10) 0.99655(7) 0.84532(6)
S2_2 S 0.1166(4) 0.9504(3) 0.8185(2)
In2_2 In 0.09240(8) 0.90484(6) 0.84401(5)
In3_2 In 0.11745(8) 0.95637(6) 0.90784(5)
S5_2 S 0.1343(3) 0.9055(2) 0.88437(17)
S6_2 S 0.0114(3) 0.9108(2) 0.85031(17)
S7_2 S 0.1072(3) 0.8551(2) 0.82150(19)
S8_2 S 0.0374(3) 0.9630(2) 0.91571(18)
S9_2 S 0.1572(3) 0.9551(2) 0.9475(2)
Cd1_2 Cd 0.10900(8) 0.85847(6) 0.90969(5)
In5_2 In 0.08285(9) 0.80896(6) 0.84659(5)
Cd3_2 Cd 0.01254(7) 0.91602(6) 0.94130(5)
In6_2 In 0.13187(8) 0.90991(6) 0.97272(5)
S11_2 S 0.0271(2) 0.86368(17) 0.91772(15)
S12_2 S 0.1232(3) 0.8060(2) 0.88711(17)
S13_2 S 0.1487(3) 0.8578(2) 0.95062(17)
S15_2 S 0.0017(3) 0.8132(2) 0.85357(17)
S16_2 S 0.0974(4) 0.7583(2) 0.82367(19)
S17_2 S 0.0518(3) 0.9157(2) 0.98267(17)
Cd4_2 Cd 0.00212(7) 0.81679(6) 0.94416(5)
In8_2 In 0.09646(8) 0.76101(6) 0.91394(5)
In9_2 In 0.12119(8) 0.81094(6) 0.97560(5)
In12_2 In 0.06901(10) 0.71959(6) 0.85316(6)
S22_2 S 0.0411(3) 0.81501(19) 0.98538(16)
S23_2 S 0.0155(3) 0.76470(19) 0.92143(17)
S24_2 S 0.1355(3) 0.7604(2) 0.95336(18)
S25_2 S 0.1104(4) 0.7104(2) 0.8913(2)
N1_2 N 0.0747(10) 0.6725(7) 0.8338(5)
S30_2 S 0.9478(3) 0.8726(2) 0.01483(17)
S95_2 S 0.5974(4) 0.2417(2) 0.32367(19)
S96_2 S 0.4894(4) 0.2832(2) 0.3581(2)
S97_2 S 0.6104(4) 0.2896(2) 0.3913(2)
In53_2 In 0.58285(9) 0.19104(6) 0.34659(5)
In54_2 In 0.47675(8) 0.23264(6) 0.38065(5)
In55_2 In 0.59646(8) 0.23899(6) 0.41394(5)
S98_2 S 0.5017(3) 0.1868(2) 0.35357(17)
S99_2 S 0.6232(3) 0.1940(2) 0.38711(17)
S100_2 S 0.6072(3) 0.1449(2) 0.32150(19)
S101_2 S 0.5155(3) 0.23530(19) 0.42143(17)
S102_2 S 0.3991(3) 0.2288(2) 0.38826(19)
S103_2 S 0.6355(3) 0.2396(2) 0.45336(18)
Cd13_2 Cd 0.48768(8) 0.13563(6) 0.37680(5)
Cd14_2 Cd 0.60900(8) 0.14153(6) 0.40969(5)
In56_2 In 0.59240(8) 0.09516(6) 0.34401(5)
Cd15_2 Cd 0.50212(7) 0.18321(6) 0.44416(5)
In57_2 In 0.38470(8) 0.17783(6) 0.40991(5)
In58_2 In 0.62119(8) 0.18906(6) 0.47560(5)
S104_2 S 0.5271(2) 0.13632(17) 0.41772(15)
S105_2 S 0.4075(3) 0.1303(2) 0.38383(16)
S106_2 S 0.5114(3) 0.0892(2) 0.35031(17)
S107_2 S 0.6487(3) 0.1422(2) 0.45062(17)
S108_2 S 0.6343(3) 0.0945(2) 0.38437(17)
S109_2 S 0.6166(4) 0.0496(3) 0.3185(2)
S110_2 S 0.5411(3) 0.18499(19) 0.48538(16)
S111_2 S 0.4214(3) 0.1786(2) 0.45173(16)
S112_2 S 0.3061(3) 0.1732(3) 0.41619(19)
S113_2 S 0.6599(3) 0.1901(3) 0.51586(19)
Cd16_2 Cd 0.51254(7) 0.08398(6) 0.44130(5)
In59_2 In 0.39481(8) 0.07869(6) 0.40792(5)
In60_2 In 0.49695(8) 0.03816(6) 0.37507(5)
In61_2 In 0.63187(8) 0.09009(6) 0.47272(5)
In62_2 In 0.61745(8) 0.04363(6) 0.40784(5)
In63_2 In 0.59841(10) 0.00345(7) 0.34532(6)
In64_2 In 0.52593(7) 0.13202(6) 0.50712(5)
In65_2 In 0.40971(7) 0.12665(6) 0.47454(5)
In66_2 In 0.30346(8) 0.12295(7) 0.43931(5)
In67_2 In 0.63882(8) 0.13708(8) 0.53290(5)
S114_2 S 0.4325(3) 0.0788(2) 0.44951(17)
S115_2 S 0.5518(3) 0.0843(2) 0.48267(17)
S116_2 S 0.5374(3) 0.0370(2) 0.41571(18)
S117_2 S 0.4184(3) 0.0331(2) 0.3828(2)
S118_2 S 0.3163(3) 0.0739(3) 0.4150(2)
S120_2 S 0.6572(3) 0.0449(2) 0.4475(2)
S121_2 S 0.6721(3) 0.0908(3) 0.5124(2)
S124_2 S 0.4478(3) 0.1274(2) 0.51483(17)
S125_2 S 0.5642(3) 0.1319(3) 0.54718(19)
S126_2 S 0.3311(3) 0.1229(3) 0.48199(18)
N16_2 N 0.2350(9) 0.1216(7) 0.4474(6)
N17_2 N 0.6774(9) 0.1354(8) 0.5674(4)
C19_2 C 0.7195(12) 0.1297(9) 0.5691(7)
C20_2 C 0.6640(11) 0.1427(9) 0.5915(4)
N18_2 N 0.7332(9) 0.1316(8) 0.5936(6)
H19_2 H 0.7377 0.1250 0.5555
C21_2 C 0.6978(12) 0.1355(9) 0.6088(8)
H20_2 H 0.6368 0.1512 0.5958
In68_2 In 0.80335(8) 0.12072(7) 0.60089(5)
H21_2 H 0.6962 0.1339 0.6262
In4_2 In 0.99695(8) 0.96184(6) 0.87507(5)
S10_2 S 0.9184(3) 0.9669(2) 0.8828(2)
Cd2_2 Cd 0.98768(8) 0.86437(6) 0.87680(5)
In7_2 In 0.89481(8) 0.92131(6) 0.90792(5)
S14_2 S 0.9075(3) 0.8697(2) 0.88383(16)
S18_2 S 0.9325(3) 0.9212(2) 0.94951(17)
S20_2 S 0.8163(3) 0.9261(3) 0.9150(2)
In10_2 In 0.88470(8) 0.82217(6) 0.90991(5)
In11_2 In 0.97675(8) 0.76736(6) 0.88065(5)
In14_2 In 0.90971(7) 0.87335(6) 0.97454(5)
S21_2 S 0.9214(3) 0.8214(2) 0.95173(16)
S27_2 S 0.8061(3) 0.8268(3) 0.91619(19)
S28_2 S 0.8991(3) 0.7712(2) 0.88826(19)
S29_2 S 0.9894(4) 0.7168(2) 0.8581(2)
S32_2 S 0.8311(3) 0.8771(3) 0.98199(18)
S119_2 S 0.5203(4) 0.9920(3) 0.3494(2)
S122_2 S 0.6421(4) 0.9972(2) 0.3835(2)
S123_2 S 0.6219(7) 0.9557(5) 0.3180(4)
S88_2 S 0.0623(3) 0.3760(2) 0.00773(16)
N11_2 N 0.1761(8) 0.3808(5) 0.0290(5)
C13_2 C 0.1654(12) 0.3713(10) 0.0502(7)
C14_2 C 0.2203(10) 0.3827(8) 0.0301(7)
C17_2 C 0.2023(12) 0.3705(11) 0.0668(8)
H13_2 H 0.1370 0.3655 0.0548
H14_2 H 0.2381 0.3866 0.0163
H17_2 H 0.2027 0.3655 0.0839
C3_2 C 0.2023(12) 0.1295(11) 0.4332(8)
C4_2 C 0.2203(10) 0.1173(8) 0.4699(7)
H3_2 H 0.2027 0.1345 0.4161
C6_2 C 0.1654(12) 0.1287(10) 0.4498(7)
H4_2 H 0.2381 0.1134 0.4837
N5_2 N 0.1761(8) 0.1192(5) 0.4710(5)
H6_2 H 0.1370 0.1345 0.4452
In18_2 In 0.13645(7) 0.11205(6) 0.50582(5)
S33_2 S 0.0623(3) 0.1240(2) 0.49227(16)
S34_2 S 0.1548(3) 0.0561(2) 0.51508(16)
S35_2 S 0.1726(3) 0.1526(2) 0.53230(18)
In19_2 In 0.02482(7) 0.11594(5) 0.53226(4)
In20_2 In 0.11542(7) 0.04828(6) 0.55403(4)
In21_2 In 0.13398(7) 0.14365(6) 0.57164(5)
S36_2 S 0.0358(2) 0.05879(18) 0.54631(14)
S37_2 S 0.0549(2) 0.15540(19) 0.56356(16)
S39_2 S 0.1470(2) 0.08640(19) 0.58547(15)
S41_2 S 0.1631(3) 0.1808(2) 0.60215(17)
Cd6_2 Cd 0.01566(7) 0.14706(6) 0.60416(4)
Cd7_2 Cd 0.10616(7) 0.07870(6) 0.62575(4)
In24_2 In 0.12398(8) 0.17285(6) 0.64180(5)
S42_2 S 0.0261(2) 0.08990(18) 0.61912(14)
S46_2 S 0.0446(3) 0.1857(2) 0.63609(16)
S48_2 S 0.1176(3) 0.0217(2) 0.64057(16)
S49_2 S 0.1360(3) 0.1168(2) 0.65801(16)
S51_2 S 0.1547(3) 0.2097(2) 0.67285(19)
In28_2 In 0.00454(8) 0.17612(6) 0.67616(5)
In29_2 In 0.07667(8) 0.01539(6) 0.68070(5)
In30_2 In 0.09458(8) 0.10755(6) 0.69788(5)
In32_2 In 0.10968(9) 0.19562(7) 0.70857(5)
S52_2 S 0.0148(3) 0.1193(2) 0.69291(16)
S60_2 S 0.0337(3) 0.2134(2) 0.7072(2)
S61_2 S 0.1047(3) 0.0524(2) 0.71238(17)
S63_2 S 0.1245(3) 0.1444(2) 0.72898(19)
N7_2 N 0.1382(8) 0.2308(6) 0.7357(4)
C9_2 C 0.1788(11) 0.2375(8) 0.7414(6)
C10_2 C 0.1111(16) 0.2500 0.7500
H9_2 H 0.2035 0.2272 0.7349
H10_2 H 0.0806 0.2500 0.7500
C12_2 C 0.1788(11) 0.2625(8) 0.7586(6)
N10_2 N 0.1382(8) 0.2692(6) 0.7643(4)
H12_2 H 0.2035 0.2728 0.7651
In35_2 In 0.10968(9) 0.30438(7) 0.79143(5)
S64_2 S 0.1547(3) 0.2903(2) 0.82715(19)
S65_2 S 0.1245(3) 0.3556(2) 0.77102(19)
S66_2 S 0.0337(3) 0.2866(2) 0.7928(2)
In36_2 In 0.12398(8) 0.32715(6) 0.85820(5)
In37_2 In 0.09458(8) 0.39245(6) 0.80212(5)
In38_2 In 0.00454(8) 0.32388(6) 0.82384(5)
S67_2 S 0.0446(3) 0.3143(2) 0.86391(16)
S68_2 S 0.1360(3) 0.3832(2) 0.84199(16)
S69_2 S 0.1631(3) 0.3192(2) 0.89785(17)
S70_2 S 0.0148(3) 0.3807(2) 0.80709(16)
S71_2 S 0.1047(3) 0.4476(2) 0.78762(17)
Cd9_2 Cd 0.01566(7) 0.35294(6) 0.89584(4)
Cd10_2 Cd 0.10616(7) 0.42130(6) 0.87425(4)
In39_2 In 0.13398(7) 0.35635(6) 0.92836(5)
In40_2 In 0.07667(8) 0.48461(6) 0.81930(5)
S73_2 S 0.0261(2) 0.41010(18) 0.88088(14)
S75_2 S 0.0549(2) 0.34460(19) 0.93644(16)
S76_2 S 0.1470(2) 0.41360(19) 0.91453(15)
S77_2 S 0.1176(3) 0.4783(2) 0.85943(16)
S78_2 S 0.1726(3) 0.3474(2) 0.96770(18)
S81_2 S 0.0895(4) 0.5404(2) 0.80498(19)
In43_2 In 0.02482(7) 0.38406(5) 0.96774(4)
In44_2 In 0.11542(7) 0.45172(6) 0.94597(4)
In45_2 In 0.08653(8) 0.51454(6) 0.89274(5)
In46_2 In 0.13645(7) 0.38795(6) 0.99418(5)
In49_2 In 0.05611(10) 0.56953(6) 0.83919(5)
S83_2 S 0.0358(2) 0.44121(18) 0.95369(14)
S85_2 S 0.0060(3) 0.50612(19) 0.89872(16)
S89_2 S 0.1548(3) 0.4439(2) 0.98492(16)
S90_2 S 0.1259(3) 0.5074(2) 0.93162(16)
S91_2 S 0.0963(3) 0.5704(2) 0.87904(19)
N12_2 N 0.0675(11) 0.6210(7) 0.8269(7)
C15_2 C 0.0856(14) 0.6343(9) 0.8064(8)
C16_2 C 0.0650(14) 0.6446(9) 0.8419(8)
H15_2 H 0.0928 0.6233 0.7917
C18_2 C 0.0919(12) 0.6680(9) 0.8109(5)
H16_2 H 0.0564 0.6415 0.8585
H18_2 H 0.1049 0.6833 0.8003
S40_2 S 0.1259(3) 0.9926(2) 0.56838(16)
In23_2 In 0.08653(8) 0.98546(6) 0.60726(5)
S44_2 S 0.0060(3) 0.99388(19) 0.60128(16)
S50_2 S 0.0963(3) 0.9296(2) 0.62096(19)
In31_2 In 0.05611(10) 0.93047(6) 0.66081(5)
S62_2 S 0.0895(4) 0.9596(2) 0.69502(19)
N6_2 N 0.0675(11) 0.8790(7) 0.6731(7)
C7_2 C 0.0856(14) 0.8657(9) 0.6936(8)
C8_2 C 0.0650(14) 0.8554(9) 0.6581(8)
H7_2 H 0.0928 0.8767 0.7083
C11_2 C 0.0919(12) 0.8320(9) 0.6891(5)
H8_2 H 0.0564 0.8585 0.6415
H11_2 H 0.1049 0.8167 0.6997
S38_2 S 0.9469(3) 0.1264(2) 0.52550(16)
Cd5_2 Cd 0.99631(7) 0.05128(5) 0.58651(4)
In22_2 In 0.90926(7) 0.11865(6) 0.56522(4)
S43_2 S 0.9168(3) 0.06170(19) 0.57993(15)
S45_2 S 0.9362(2) 0.1583(2) 0.59739(16)
S47_2 S 0.8318(3) 0.1307(2) 0.55839(18)
Cd8_2 Cd 0.98637(7) 0.08177(6) 0.66034(4)
In25_2 In 0.88000(7) 0.05448(6) 0.62146(5)
In27_2 In 0.89850(7) 0.14989(6) 0.63859(5)
S53_2 S 0.9960(3) 0.0250(2) 0.67540(16)
S54_2 S 0.9072(3) 0.0934(2) 0.65385(16)
S55_2 S 0.8023(3) 0.0654(2) 0.61502(18)
S58_2 S 0.9278(3) 0.1870(2) 0.66961(18)
S59_2 S 0.8208(3) 0.1611(3) 0.6325(2)
S72_2 S 0.9278(3) 0.3130(2) 0.83039(18)
Cd11_2 Cd 0.98637(7) 0.41823(6) 0.83966(4)
In41_2 In 0.89850(7) 0.35011(6) 0.86141(5)
S74_2 S 0.9362(2) 0.3417(2) 0.90261(16)
S79_2 S 0.9960(3) 0.4750(2) 0.82460(16)
S80_2 S 0.9072(3) 0.4066(2) 0.84615(16)
S82_2 S 0.8208(3) 0.3389(3) 0.8675(2)
Cd12_2 Cd 0.99631(7) 0.44872(5) 0.91349(4)
In42_2 In 0.90926(7) 0.38135(6) 0.93478(4)
In47_2 In 0.96695(8) 0.51162(6) 0.85789(5)
In48_2 In 0.88000(7) 0.44552(6) 0.87854(5)
S84_2 S 0.9168(3) 0.43830(19) 0.92007(15)
S86_2 S 0.9469(3) 0.3736(2) 0.97450(16)
S87_2 S 0.8318(3) 0.3693(2) 0.94161(18)
S92_2 S 0.8900(3) 0.5009(2) 0.86463(18)
S93_2 S 0.9772(4) 0.5674(2) 0.84274(19)
S94_2 S 0.8023(3) 0.4346(2) 0.88498(18)
In26_2 In 0.96695(8) 0.98838(6) 0.64211(5)
S56_2 S 0.8900(3) 0.9991(2) 0.63537(18)
S57_2 S 0.9772(4) 0.9326(2) 0.65726(19)
In26_3 In 0.03305(8) 0.01162(6) 0.35789(5)
S56_3 S 0.1100(3) 0.0009(2) 0.36463(18)
S57_3 S 0.0228(4) 0.0674(2) 0.34274(19)
S38_3 S 0.0531(3) 0.8736(2) 0.47450(16)
Cd5_3 Cd 0.00369(7) 0.94872(5) 0.41349(4)
In22_3 In 0.09074(7) 0.88135(6) 0.43478(4)
S43_3 S 0.0832(3) 0.93830(19) 0.42007(15)
S45_3 S 0.0638(2) 0.8417(2) 0.40261(16)
S47_3 S 0.1682(3) 0.8693(2) 0.44161(18)
Cd8_3 Cd 0.01363(7) 0.91823(6) 0.33966(4)
In25_3 In 0.12000(7) 0.94552(6) 0.37854(5)
In27_3 In 0.10150(7) 0.85011(6) 0.36141(5)
S53_3 S 0.0040(3) 0.9750(2) 0.32460(16)
S54_3 S 0.0928(3) 0.9066(2) 0.34615(16)
S55_3 S 0.1977(3) 0.9346(2) 0.38498(18)
S58_3 S 0.0722(3) 0.8130(2) 0.33039(18)
S59_3 S 0.1792(3) 0.8389(3) 0.3675(2)
In33 In 0.19665(8) 0.87928(7) 0.39911(5)
N8 N 0.2668(9) 0.8684(8) 0.4064(6)
S72_3 S 0.0722(3) 0.6870(2) 0.16961(18)
Cd11_3 Cd 0.01363(7) 0.58177(6) 0.16034(4)
In41_3 In 0.10150(7) 0.64989(6) 0.13859(5)
S74_3 S 0.0638(2) 0.6583(2) 0.09739(16)
S79_3 S 0.0040(3) 0.5250(2) 0.17540(16)
S80_3 S 0.0928(3) 0.5934(2) 0.15385(16)
S82_3 S 0.1792(3) 0.6611(3) 0.1325(2)
Cd12_3 Cd 0.00369(7) 0.55128(5) 0.08651(4)
In42_3 In 0.09074(7) 0.61865(6) 0.06522(4)
In47_3 In 0.03305(8) 0.48838(6) 0.14211(5)
In48_3 In 0.12000(7) 0.55448(6) 0.12146(5)
In50_2 In 0.19665(8) 0.62072(7) 0.10089(5)
S84_3 S 0.0832(3) 0.56170(19) 0.07993(15)
S86_3 S 0.0531(3) 0.6264(2) 0.02550(16)
S87_3 S 0.1682(3) 0.6307(2) 0.05839(18)
S92_3 S 0.1100(3) 0.4991(2) 0.13537(18)
S93_3 S 0.0228(4) 0.4326(2) 0.15726(19)
S94_3 S 0.1977(3) 0.5654(2) 0.11502(18)
N13_2 N 0.2668(9) 0.6316(8) 0.0936(6)
S96_3 S 0.0106(4) 0.2832(2) 0.1419(2)
In54_3 In 0.02325(8) 0.23264(6) 0.11935(5)
S102_3 S 0.1009(3) 0.2288(2) 0.11174(19)
Cd13_3 Cd 0.01232(8) 0.13563(6) 0.12320(5)
In57_3 In 0.11530(8) 0.17783(6) 0.09009(5)
S105_3 S 0.0925(3) 0.1303(2) 0.11617(16)
S111_3 S 0.0786(3) 0.1786(2) 0.04827(16)
S112_3 S 0.1939(3) 0.1732(3) 0.08381(19)
In59_3 In 0.10519(8) 0.07869(6) 0.09208(5)
In60_3 In 0.00305(8) 0.03816(6) 0.12493(5)
In65_3 In 0.09029(7) 0.12665(6) 0.02546(5)
In66_3 In 0.19654(8) 0.12295(7) 0.06069(5)
S114_3 S 0.0675(3) 0.0788(2) 0.05049(17)
S117_3 S 0.0816(3) 0.0331(2) 0.1172(2)
S118_3 S 0.1837(3) 0.0739(3) 0.0850(2)
S126_3 S 0.1689(3) 0.1229(3) 0.01801(18)
N16_3 N 0.2650(9) 0.1216(7) 0.0526(6)
S124_3 S 0.0522(3) 0.1274(2) 0.98517(17)
S1_2 S 0.3781(7) 0.0443(5) 0.6820(4)
S3_2 S 0.3579(4) 0.0028(2) 0.6165(2)
S4_2 S 0.4797(4) 0.0080(3) 0.6506(2)
S40_3 S 0.8741(3) 0.0074(2) 0.43162(16)
In23_3 In 0.91347(8) 0.01454(6) 0.39274(5)
S44_3 S 0.9940(3) 0.00612(19) 0.39872(16)
S50_3 S 0.9037(3) 0.0704(2) 0.37904(19)
In31_3 In 0.94389(10) 0.06953(6) 0.33919(5)
S62_3 S 0.9105(4) 0.0404(2) 0.30498(19)
N6_3 N 0.9325(11) 0.1210(7) 0.3269(7)
C7_3 C 0.9144(14) 0.1343(9) 0.3064(8)
C8_3 C 0.9350(14) 0.1446(9) 0.3419(8)
H7_3 H 0.9072 0.1233 0.2917
C11_3 C 0.9081(12) 0.1680(9) 0.3109(5)
H8_3 H 0.9436 0.1415 0.3585
H11_3 H 0.8951 0.1833 0.3003
N9_2 N 0.9253(10) 0.1725(7) 0.3338(5)
In34_2 In 0.93099(10) 0.21959(6) 0.35316(6)
In1_3 In 0.40159(10) 0.99655(7) 0.65468(6)
S2_3 S 0.3834(4) 0.9504(3) 0.6815(2)
In2_3 In 0.40760(8) 0.90484(6) 0.65599(5)
In3_3 In 0.38255(8) 0.95637(6) 0.59216(5)
In4_3 In 0.50305(8) 0.96184(6) 0.62493(5)
S5_3 S 0.3657(3) 0.9055(2) 0.61563(17)
S6_3 S 0.4886(3) 0.9108(2) 0.64969(17)
S7_3 S 0.3928(3) 0.8551(2) 0.67850(19)
S8_3 S 0.4626(3) 0.9630(2) 0.58429(18)
S9_3 S 0.3428(3) 0.9551(2) 0.5525(2)
S10_3 S 0.5816(3) 0.9669(2) 0.6172(2)
Cd1_3 Cd 0.39100(8) 0.85847(6) 0.59031(5)
Cd2_3 Cd 0.51232(8) 0.86437(6) 0.62320(5)
In5_3 In 0.41715(9) 0.80896(6) 0.65341(5)
Cd3_3 Cd 0.48746(7) 0.91602(6) 0.55870(5)
In6_3 In 0.36813(8) 0.90991(6) 0.52728(5)
In7_3 In 0.60519(8) 0.92131(6) 0.59208(5)
S11_3 S 0.4729(2) 0.86368(17) 0.58228(15)
S12_3 S 0.3768(3) 0.8060(2) 0.61289(17)
S13_3 S 0.3513(3) 0.8578(2) 0.54938(17)
S14_3 S 0.5925(3) 0.8697(2) 0.61617(16)
S15_3 S 0.4983(3) 0.8132(2) 0.64643(17)
S16_3 S 0.4026(4) 0.7583(2) 0.67633(19)
S17_3 S 0.4482(3) 0.9157(2) 0.51733(17)
S18_3 S 0.5675(3) 0.9212(2) 0.55049(17)
S19_3 S 0.3279(3) 0.9092(3) 0.4876(2)
S20_3 S 0.6837(3) 0.9261(3) 0.5850(2)
Cd4_3 Cd 0.49788(7) 0.81679(6) 0.55584(5)
In8_3 In 0.40354(8) 0.76101(6) 0.58606(5)
In9_3 In 0.37881(8) 0.81094(6) 0.52440(5)
In10_3 In 0.61530(8) 0.82217(6) 0.59009(5)
In11_3 In 0.52325(8) 0.76736(6) 0.61935(5)
In12_3 In 0.43099(10) 0.71959(6) 0.64684(6)
In13_3 In 0.47407(7) 0.86798(6) 0.49288(5)
In14_3 In 0.59029(7) 0.87335(6) 0.52546(5)
In15_3 In 0.36118(8) 0.86292(8) 0.46710(5)
In16_2 In 0.69654(8) 0.87705(7) 0.56069(5)
S21_3 S 0.5786(3) 0.8214(2) 0.54827(16)
S22_3 S 0.4589(3) 0.81501(19) 0.51462(16)
S23_3 S 0.4845(3) 0.76470(19) 0.57857(17)
S24_3 S 0.3645(3) 0.7604(2) 0.54664(18)
S25_3 S 0.3896(4) 0.7104(2) 0.6087(2)
S26_3 S 0.3401(3) 0.8099(3) 0.48414(19)
S27_3 S 0.6939(3) 0.8268(3) 0.58381(19)
S28_3 S 0.6009(3) 0.7712(2) 0.61174(19)
S29_3 S 0.5106(4) 0.7168(2) 0.6419(2)
N1_3 N 0.4253(10) 0.6725(7) 0.6662(5)
S30_3 S 0.5522(3) 0.8726(2) 0.48517(17)
S31_3 S 0.4358(3) 0.8681(3) 0.45282(19)
S32_3 S 0.6689(3) 0.8771(3) 0.51801(18)
N2_3 N 0.3226(9) 0.8646(8) 0.4326(4)
N3_2 N 0.7650(9) 0.8784(7) 0.5526(6)
C1_3 C 0.3360(11) 0.8573(9) 0.4085(4)
C2_3 C 0.2805(12) 0.8703(9) 0.4309(7)
C3_3 C 0.7977(12) 0.8705(11) 0.5668(8)
C4_3 C 0.7797(10) 0.8827(8) 0.5301(7)
H1_3 H 0.3632 0.8488 0.4042
C5_3 C 0.3022(12) 0.8645(9) 0.3912(8)
H2_3 H 0.2623 0.8750 0.4445
H3_3 H 0.7973 0.8655 0.5839
C6_3 C 0.8346(12) 0.8713(10) 0.5502(7)
H4_3 H 0.7619 0.8866 0.5163
N5_3 N 0.8239(8) 0.8808(5) 0.5290(5)
H5_3 H 0.3038 0.8661 0.3738
H6_3 H 0.8630 0.8655 0.5548
In18_3 In 0.86355(7) 0.88795(6) 0.49418(5)
S33_3 S 0.9377(3) 0.8760(2) 0.50773(16)
S34_3 S 0.8452(3) 0.9439(2) 0.48492(16)
S35_3 S 0.8274(3) 0.8474(2) 0.46770(18)
In19_3 In 0.97518(7) 0.88406(5) 0.46774(4)
In20_3 In 0.88458(7) 0.95172(6) 0.44597(4)
In21_3 In 0.86602(7) 0.85635(6) 0.42836(5)
S36_3 S 0.9642(2) 0.94121(18) 0.45369(14)
S37_3 S 0.9451(2) 0.84460(19) 0.43644(16)
S39_3 S 0.8530(2) 0.91360(19) 0.41453(15)
S41_3 S 0.8369(3) 0.8192(2) 0.39785(17)
Cd6_3 Cd 0.98434(7) 0.85294(6) 0.39584(4)
Cd7_3 Cd 0.89384(7) 0.92130(6) 0.37425(4)
In24_3 In 0.87602(8) 0.82715(6) 0.35820(5)
S42_3 S 0.9739(2) 0.91010(18) 0.38088(14)
S46_3 S 0.9554(3) 0.8143(2) 0.36391(16)
S48_3 S 0.8824(3) 0.9783(2) 0.35943(16)
S49_3 S 0.8640(3) 0.8832(2) 0.34199(16)
S51_3 S 0.8453(3) 0.7903(2) 0.32715(19)
In28_3 In 0.99546(8) 0.82388(6) 0.32384(5)
In29_3 In 0.92333(8) 0.98461(6) 0.31930(5)
In30_3 In 0.90542(8) 0.89245(6) 0.30212(5)
In32_3 In 0.89032(9) 0.80438(7) 0.29143(5)
S52_3 S 0.9852(3) 0.8807(2) 0.30709(16)
S60_3 S 0.9663(3) 0.7866(2) 0.2928(2)
S61_3 S 0.8953(3) 0.9476(2) 0.28762(17)
S63_3 S 0.8755(3) 0.8556(2) 0.27102(19)
N7_3 N 0.8618(8) 0.7692(6) 0.2643(4)
C9_3 C 0.8212(11) 0.7625(8) 0.2586(6)
C10_3 C 0.8889(16) 0.7500 0.2500
H9_3 H 0.7965 0.7728 0.2651
H10_3 H 0.9194 0.7500 0.2500
C12_3 C 0.8212(11) 0.7375(8) 0.2414(6)
N10_3 N 0.8618(8) 0.7308(6) 0.2357(4)
H12_3 H 0.7965 0.7272 0.2349
In35_3 In 0.89032(9) 0.69562(7) 0.20857(5)
S64_3 S 0.8453(3) 0.7097(2) 0.17285(19)
S65_3 S 0.8755(3) 0.6444(2) 0.22898(19)
S66_3 S 0.9663(3) 0.7134(2) 0.2072(2)
In36_3 In 0.87602(8) 0.67285(6) 0.14180(5)
In37_3 In 0.90542(8) 0.60755(6) 0.19788(5)
In38_3 In 0.99546(8) 0.67612(6) 0.17616(5)
S67_3 S 0.9554(3) 0.6857(2) 0.13609(16)
S68_3 S 0.8640(3) 0.6168(2) 0.15801(16)
S69_3 S 0.8369(3) 0.6808(2) 0.10215(17)
S70_3 S 0.9852(3) 0.6193(2) 0.19291(16)
S71_3 S 0.8953(3) 0.5524(2) 0.21238(17)
Cd9_3 Cd 0.98434(7) 0.64706(6) 0.10416(4)
Cd10_3 Cd 0.89384(7) 0.57870(6) 0.12575(4)
In39_3 In 0.86602(7) 0.64365(6) 0.07164(5)
In40_3 In 0.92333(8) 0.51539(6) 0.18070(5)
S73_3 S 0.9739(2) 0.58990(18) 0.11912(14)
S75_3 S 0.9451(2) 0.65540(19) 0.06356(16)
S76_3 S 0.8530(2) 0.58640(19) 0.08547(15)
S77_3 S 0.8824(3) 0.5217(2) 0.14057(16)
S78_3 S 0.8274(3) 0.6526(2) 0.03230(18)
S81_3 S 0.9105(4) 0.4596(2) 0.19502(19)
In43_3 In 0.97518(7) 0.61594(5) 0.03226(4)
In44_3 In 0.88458(7) 0.54828(6) 0.05403(4)
In45_3 In 0.91347(8) 0.48546(6) 0.10726(5)
In46_3 In 0.86355(7) 0.61205(6) 0.00582(5)
In49_3 In 0.94389(10) 0.43047(6) 0.16081(5)
S83_3 S 0.9642(2) 0.55879(18) 0.04631(14)
S85_3 S 0.9940(3) 0.49388(19) 0.10128(16)
S89_3 S 0.8452(3) 0.5561(2) 0.01508(16)
S90_3 S 0.8741(3) 0.4926(2) 0.06838(16)
S91_3 S 0.9037(3) 0.4296(2) 0.12096(19)
N12_3 N 0.9325(11) 0.3790(7) 0.1731(7)
C15_3 C 0.9144(14) 0.3657(9) 0.1936(8)
C16_3 C 0.9350(14) 0.3554(9) 0.1581(8)
H15_3 H 0.9072 0.3767 0.2083
C18_3 C 0.9081(12) 0.3320(9) 0.1891(5)
N15_2 N 0.9253(10) 0.3275(7) 0.1662(5)
H16_3 H 0.9436 0.3585 0.1415
H18_3 H 0.8951 0.3167 0.1997
In52_2 In 0.93099(10) 0.28041(6) 0.14684(6)
S95_3 S 0.9026(4) 0.2417(2) 0.17633(19)
S97_3 S 0.8896(4) 0.2896(2) 0.1087(2)
In53_3 In 0.91715(9) 0.19104(6) 0.15341(5)
In55_3 In 0.90354(8) 0.23899(6) 0.08606(5)
S98_3 S 0.9983(3) 0.1868(2) 0.14643(17)
S99_3 S 0.8768(3) 0.1940(2) 0.11289(17)
S100_3 S 0.8928(3) 0.1449(2) 0.17850(19)
S101_3 S 0.9845(3) 0.23530(19) 0.07857(17)
S103_3 S 0.8645(3) 0.2396(2) 0.04664(18)
Cd14_3 Cd 0.89100(8) 0.14153(6) 0.09031(5)
In56_3 In 0.90760(8) 0.09516(6) 0.15599(5)
Cd15_3 Cd 0.99788(7) 0.18321(6) 0.05584(5)
In58_3 In 0.87881(8) 0.18906(6) 0.02440(5)
S104_3 S 0.9729(2) 0.13632(17) 0.08228(15)
S106_3 S 0.9886(3) 0.0892(2) 0.14969(17)
S107_3 S 0.8513(3) 0.1422(2) 0.04938(17)
S108_3 S 0.8657(3) 0.0945(2) 0.11563(17)
S109_3 S 0.8834(4) 0.0496(3) 0.1815(2)
S110_3 S 0.9589(3) 0.18499(19) 0.01462(16)
Cd16_3 Cd 0.98746(7) 0.08398(6) 0.05870(5)
In61_3 In 0.86813(8) 0.09009(6) 0.02728(5)
In62_3 In 0.88255(8) 0.04363(6) 0.09216(5)
In63_3 In 0.90159(10) 0.00345(7) 0.15468(6)
S115_3 S 0.9482(3) 0.0843(2) 0.01733(17)
S116_3 S 0.9626(3) 0.0370(2) 0.08429(18)
S120_3 S 0.8428(3) 0.0449(2) 0.0525(2)
S88_3 S 0.9377(3) 0.6240(2) 0.99227(16)
N11_3 N 0.8239(8) 0.6192(5) 0.9710(5)
C13_3 C 0.8346(12) 0.6287(10) 0.9498(7)
C14_3 C 0.7797(10) 0.6173(8) 0.9699(7)
C17_3 C 0.7977(12) 0.6295(11) 0.9332(8)
H13_3 H 0.8630 0.6345 0.9452
N14_2 N 0.7650(9) 0.6216(7) 0.9474(6)
H14_3 H 0.7619 0.6134 0.9837
H17_3 H 0.7973 0.6345 0.9161
In51_2 In 0.69654(8) 0.62295(7) 0.93931(5)
S113_3 S 0.8401(3) 0.1901(3) 0.98414(19)
In64_3 In 0.97407(7) 0.13202(6) 0.99288(5)
In67_3 In 0.86118(8) 0.13708(8) 0.96710(5)
S121_3 S 0.8279(3) 0.0908(3) 0.9876(2)
S125_3 S 0.9358(3) 0.1319(3) 0.95282(19)
N17_3 N 0.8226(9) 0.1354(8) 0.9326(4)
C19_3 C 0.7805(12) 0.1297(9) 0.9309(7)
C20_3 C 0.8360(11) 0.1427(9) 0.9085(4)
N18_3 N 0.7668(9) 0.1316(8) 0.9064(6)
H19_3 H 0.7623 0.1250 0.9445
C21_3 C 0.8022(12) 0.1355(9) 0.8912(8)
H20_3 H 0.8632 0.1512 0.9042
In68_3 In 0.69665(8) 0.12072(7) 0.89911(5)
H21_3 H 0.8038 0.1339 0.8738
S96_4 S 0.0106(4) 0.2168(2) 0.3581(2)
In54_4 In 0.02325(8) 0.26736(6) 0.38065(5)
S102_4 S 0.1009(3) 0.2712(2) 0.38826(19)
Cd13_4 Cd 0.01232(8) 0.36437(6) 0.37680(5)
In57_4 In 0.11530(8) 0.32217(6) 0.40991(5)
S105_4 S 0.0925(3) 0.3697(2) 0.38383(16)
S111_4 S 0.0786(3) 0.3214(2) 0.45173(16)
S112_4 S 0.1939(3) 0.3268(3) 0.41619(19)
In59_4 In 0.10519(8) 0.42131(6) 0.40792(5)
In60_4 In 0.00305(8) 0.46184(6) 0.37507(5)
In65_4 In 0.09029(7) 0.37335(6) 0.47454(5)
In66_4 In 0.19654(8) 0.37705(7) 0.43931(5)
S114_4 S 0.0675(3) 0.4212(2) 0.44951(17)
S117_4 S 0.0816(3) 0.4669(2) 0.3828(2)
S118_4 S 0.1837(3) 0.4261(3) 0.4150(2)
S124_4 S 0.0522(3) 0.3726(2) 0.51483(17)
S126_4 S 0.1689(3) 0.3771(3) 0.48199(18)
N16_4 N 0.2650(9) 0.3784(7) 0.4474(6)
S95_4 S 0.9026(4) 0.2583(2) 0.32367(19)
S97_4 S 0.8896(4) 0.2104(2) 0.3913(2)
In53_4 In 0.91715(9) 0.30896(6) 0.34659(5)
In55_4 In 0.90354(8) 0.26101(6) 0.41394(5)
S98_4 S 0.9983(3) 0.3132(2) 0.35357(17)
S99_4 S 0.8768(3) 0.3060(2) 0.38711(17)
S100_4 S 0.8928(3) 0.3551(2) 0.32150(19)
S101_4 S 0.9845(3) 0.26470(19) 0.42143(17)
S103_4 S 0.8645(3) 0.2604(2) 0.45336(18)
Cd14_4 Cd 0.89100(8) 0.35847(6) 0.40969(5)
In56_4 In 0.90760(8) 0.40484(6) 0.34401(5)
Cd15_4 Cd 0.99788(7) 0.31679(6) 0.44416(5)
In58_4 In 0.87881(8) 0.31094(6) 0.47560(5)
S104_4 S 0.9729(2) 0.36368(17) 0.41772(15)
S106_4 S 0.9886(3) 0.4108(2) 0.35031(17)
S107_4 S 0.8513(3) 0.3578(2) 0.45062(17)
S108_4 S 0.8657(3) 0.4055(2) 0.38437(17)
S109_4 S 0.8834(4) 0.4504(3) 0.3185(2)
S110_4 S 0.9589(3) 0.31501(19) 0.48538(16)
S113_4 S 0.8401(3) 0.3099(3) 0.51586(19)
Cd16_4 Cd 0.98746(7) 0.41602(6) 0.44130(5)
In61_4 In 0.86813(8) 0.40991(6) 0.47272(5)
In62_4 In 0.88255(8) 0.45637(6) 0.40784(5)
In63_4 In 0.90159(10) 0.49655(7) 0.34532(6)
In64_4 In 0.97407(7) 0.36798(6) 0.50712(5)
In67_4 In 0.86118(8) 0.36292(8) 0.53290(5)
S115_4 S 0.9482(3) 0.4157(2) 0.48267(17)
S116_4 S 0.9626(3) 0.4630(2) 0.41571(18)
S119_3 S 0.9797(4) 0.5080(3) 0.3494(2)
S120_4 S 0.8428(3) 0.4551(2) 0.4475(2)
S121_4 S 0.8279(3) 0.4092(3) 0.5124(2)
S122_3 S 0.8579(4) 0.5028(2) 0.3835(2)
S123_3 S 0.8781(7) 0.5443(5) 0.3180(4)
S125_4 S 0.9358(3) 0.3681(3) 0.54718(19)
N17_4 N 0.8226(9) 0.3646(8) 0.5674(4)
C19_4 C 0.7805(12) 0.3703(9) 0.5691(7)
C20_4 C 0.8360(11) 0.3573(9) 0.5915(4)
N18_4 N 0.7668(9) 0.3684(8) 0.5936(6)
H19_4 H 0.7623 0.3750 0.5555
C21_4 C 0.8022(12) 0.3645(9) 0.6088(8)
H20_4 H 0.8632 0.3488 0.5958
In68_4 In 0.69665(8) 0.37928(7) 0.60089(5)
H21_4 H 0.8038 0.3661 0.6262
S19_4 S 0.3279(3) 0.5908(3) 0.0124(2)
In13_4 In 0.47407(7) 0.63202(6) 0.00712(5)
In15_4 In 0.36118(8) 0.63708(8) 0.03290(5)
S26_4 S 0.3401(3) 0.6901(3) 0.01586(19)
S30_4 S 0.5522(3) 0.6274(2) 0.01483(17)
S31_4 S 0.4358(3) 0.6319(3) 0.04718(19)
N2_4 N 0.3226(9) 0.6354(8) 0.0674(4)
C1_4 C 0.3360(11) 0.6427(9) 0.0915(4)
C2_4 C 0.2805(12) 0.6297(9) 0.0691(7)
H1_4 H 0.3632 0.6512 0.0958
C5_4 C 0.3022(12) 0.6355(9) 0.1088(8)
H2_4 H 0.2623 0.6250 0.0555
H5_4 H 0.3038 0.6339 0.1262
In1_4 In 0.40159(10) 0.50345(7) 0.84532(6)
S1_3 S 0.3781(7) 0.4557(5) 0.8180(4)
S2_4 S 0.3834(4) 0.5496(3) 0.8185(2)
S3_3 S 0.3579(4) 0.4972(2) 0.8835(2)
S4_3 S 0.4797(4) 0.4920(3) 0.8494(2)
In2_4 In 0.40760(8) 0.59516(6) 0.84401(5)
In3_4 In 0.38255(8) 0.54363(6) 0.90784(5)
In4_4 In 0.50305(8) 0.53816(6) 0.87507(5)
S5_4 S 0.3657(3) 0.5945(2) 0.88437(17)
S6_4 S 0.4886(3) 0.5892(2) 0.85031(17)
S7_4 S 0.3928(3) 0.6449(2) 0.82150(19)
S8_4 S 0.4626(3) 0.5370(2) 0.91571(18)
S9_4 S 0.3428(3) 0.5449(2) 0.9475(2)
S10_4 S 0.5816(3) 0.5331(2) 0.8828(2)
Cd1_4 Cd 0.39100(8) 0.64153(6) 0.90969(5)
Cd2_4 Cd 0.51232(8) 0.63563(6) 0.87680(5)
In5_4 In 0.41715(9) 0.69104(6) 0.84659(5)
Cd3_4 Cd 0.48746(7) 0.58398(6) 0.94130(5)
In6_4 In 0.36813(8) 0.59009(6) 0.97272(5)
In7_4 In 0.60519(8) 0.57869(6) 0.90792(5)
S11_4 S 0.4729(2) 0.63632(17) 0.91772(15)
S12_4 S 0.3768(3) 0.6940(2) 0.88711(17)
S13_4 S 0.3513(3) 0.6422(2) 0.95062(17)
S14_4 S 0.5925(3) 0.6303(2) 0.88383(16)
S15_4 S 0.4983(3) 0.6868(2) 0.85357(17)
S16_4 S 0.4026(4) 0.7417(2) 0.82367(19)
S17_4 S 0.4482(3) 0.5843(2) 0.98267(17)
S18_4 S 0.5675(3) 0.5788(2) 0.94951(17)
S20_4 S 0.6837(3) 0.5739(3) 0.9150(2)
Cd4_4 Cd 0.49788(7) 0.68321(6) 0.94416(5)
In8_4 In 0.40354(8) 0.73899(6) 0.91394(5)
In9_4 In 0.37881(8) 0.68906(6) 0.97560(5)
In10_4 In 0.61530(8) 0.67783(6) 0.90991(5)
In11_4 In 0.52325(8) 0.73264(6) 0.88065(5)
In12_4 In 0.43099(10) 0.78041(6) 0.85316(6)
In14_4 In 0.59029(7) 0.62665(6) 0.97454(5)
S21_4 S 0.5786(3) 0.6786(2) 0.95173(16)
S22_4 S 0.4589(3) 0.68499(19) 0.98538(16)
S23_4 S 0.4845(3) 0.73530(19) 0.92143(17)
S24_4 S 0.3645(3) 0.7396(2) 0.95336(18)
S25_4 S 0.3896(4) 0.7896(2) 0.8913(2)
S27_4 S 0.6939(3) 0.6732(3) 0.91619(19)
S28_4 S 0.6009(3) 0.7288(2) 0.88826(19)
S29_4 S 0.5106(4) 0.7832(2) 0.8581(2)
N1_4 N 0.4253(10) 0.8275(7) 0.8338(5)
S32_4 S 0.6689(3) 0.6229(3) 0.98199(18)
S88_4 S 0.4377(3) 0.1240(2) 0.00773(16)
N11_4 N 0.3239(8) 0.1192(5) 0.0290(5)
C13_4 C 0.3346(12) 0.1287(10) 0.0502(7)
C14_4 C 0.2797(10) 0.1173(8) 0.0301(7)
C17_4 C 0.2977(12) 0.1295(11) 0.0668(8)
H13_4 H 0.3630 0.1345 0.0548
H14_4 H 0.2619 0.1134 0.0163
H17_4 H 0.2973 0.1345 0.0839
C3_4 C 0.2977(12) 0.3705(11) 0.4332(8)
C4_4 C 0.2797(10) 0.3827(8) 0.4699(7)
H3_4 H 0.2973 0.3655 0.4161
C6_4 C 0.3346(12) 0.3713(10) 0.4498(7)
H4_4 H 0.2619 0.3866 0.4837
N5_4 N 0.3239(8) 0.3808(5) 0.4710(5)
H6_4 H 0.3630 0.3655 0.4452
In18_4 In 0.36355(7) 0.38795(6) 0.50582(5)
S33_4 S 0.4377(3) 0.3760(2) 0.49227(16)
S34_4 S 0.3452(3) 0.4439(2) 0.51508(16)
S35_4 S 0.3274(3) 0.3474(2) 0.53230(18)
In19_4 In 0.47518(7) 0.38406(5) 0.53226(4)
In20_4 In 0.38458(7) 0.45172(6) 0.55403(4)
In21_4 In 0.36602(7) 0.35635(6) 0.57164(5)
S36_4 S 0.4642(2) 0.44121(18) 0.54631(14)
S37_4 S 0.4451(2) 0.34460(19) 0.56356(16)
S38_4 S 0.5531(3) 0.3736(2) 0.52550(16)
S39_4 S 0.3530(2) 0.41360(19) 0.58547(15)
S40_4 S 0.3741(3) 0.5074(2) 0.56838(16)
S41_4 S 0.3369(3) 0.3192(2) 0.60215(17)
Cd5_4 Cd 0.50369(7) 0.44872(5) 0.58651(4)
Cd6_4 Cd 0.48434(7) 0.35294(6) 0.60416(4)
In22_4 In 0.59074(7) 0.38135(6) 0.56522(4)
Cd7_4 Cd 0.39384(7) 0.42130(6) 0.62575(4)
In23_4 In 0.41347(8) 0.51454(6) 0.60726(5)
In24_4 In 0.37602(8) 0.32715(6) 0.64180(5)
S42_4 S 0.4739(2) 0.41010(18) 0.61912(14)
S43_4 S 0.5832(3) 0.43830(19) 0.57993(15)
S44_4 S 0.4940(3) 0.50612(19) 0.60128(16)
S45_4 S 0.5638(2) 0.3417(2) 0.59739(16)
S46_4 S 0.4554(3) 0.3143(2) 0.63609(16)
S47_4 S 0.6682(3) 0.3693(2) 0.55839(18)
S48_4 S 0.3824(3) 0.4783(2) 0.64057(16)
S49_4 S 0.3640(3) 0.3832(2) 0.65801(16)
S50_4 S 0.4037(3) 0.5704(2) 0.62096(19)
S51_4 S 0.3453(3) 0.2903(2) 0.67285(19)
Cd8_4 Cd 0.51363(7) 0.41823(6) 0.66034(4)
In25_4 In 0.62000(7) 0.44552(6) 0.62146(5)
In26_4 In 0.53305(8) 0.51162(6) 0.64211(5)
In27_4 In 0.60150(7) 0.35011(6) 0.63859(5)
In28_4 In 0.49546(8) 0.32388(6) 0.67616(5)
In29_4 In 0.42333(8) 0.48461(6) 0.68070(5)
In30_4 In 0.40542(8) 0.39245(6) 0.69788(5)
In31_4 In 0.44389(10) 0.56953(6) 0.66081(5)
In32_4 In 0.39032(9) 0.30438(7) 0.70857(5)
S52_4 S 0.4852(3) 0.3807(2) 0.69291(16)
S53_4 S 0.5040(3) 0.4750(2) 0.67540(16)
S54_4 S 0.5928(3) 0.4066(2) 0.65385(16)
S55_4 S 0.6977(3) 0.4346(2) 0.61502(18)
S56_4 S 0.6100(3) 0.5009(2) 0.63537(18)
S57_4 S 0.5228(4) 0.5674(2) 0.65726(19)
S58_4 S 0.5722(3) 0.3130(2) 0.66961(18)
S59_4 S 0.6792(3) 0.3389(3) 0.6325(2)
S60_4 S 0.4663(3) 0.2866(2) 0.7072(2)
S61_4 S 0.3953(3) 0.4476(2) 0.71238(17)
S62_4 S 0.4105(4) 0.5404(2) 0.69502(19)
S63_4 S 0.3755(3) 0.3556(2) 0.72898(19)
N6_4 N 0.4325(11) 0.6210(7) 0.6731(7)
N7_4 N 0.3618(8) 0.2692(6) 0.7357(4)
C7_4 C 0.4144(14) 0.6343(9) 0.6936(8)
C8_4 C 0.4350(14) 0.6446(9) 0.6581(8)
C9_4 C 0.3212(11) 0.2625(8) 0.7414(6)
C10_4 C 0.3889(16) 0.2500 0.7500
H7_4 H 0.4072 0.6233 0.7083
C11_4 C 0.4081(12) 0.6680(9) 0.6891(5)
H8_4 H 0.4436 0.6415 0.6415
H9_4 H 0.2965 0.2728 0.7349
H10_4 H 0.4194 0.2500 0.7500
H11_4 H 0.3951 0.6833 0.6997
C12_4 C 0.3212(11) 0.2375(8) 0.7586(6)
N10_4 N 0.3618(8) 0.2308(6) 0.7643(4)
H12_4 H 0.2965 0.2272 0.7651
In35_4 In 0.39032(9) 0.19562(7) 0.79143(5)
S64_4 S 0.3453(3) 0.2097(2) 0.82715(19)
S65_4 S 0.3755(3) 0.1444(2) 0.77102(19)
S66_4 S 0.4663(3) 0.2134(2) 0.7928(2)
In36_4 In 0.37602(8) 0.17285(6) 0.85820(5)
In37_4 In 0.40542(8) 0.10755(6) 0.80212(5)
In38_4 In 0.49546(8) 0.17612(6) 0.82384(5)
S67_4 S 0.4554(3) 0.1857(2) 0.86391(16)
S68_4 S 0.3640(3) 0.1168(2) 0.84199(16)
S69_4 S 0.3369(3) 0.1808(2) 0.89785(17)
S70_4 S 0.4852(3) 0.1193(2) 0.80709(16)
S71_4 S 0.3953(3) 0.0524(2) 0.78762(17)
S72_4 S 0.5722(3) 0.1870(2) 0.83039(18)
Cd9_4 Cd 0.48434(7) 0.14706(6) 0.89584(4)
Cd10_4 Cd 0.39384(7) 0.07870(6) 0.87425(4)
In39_4 In 0.36602(7) 0.14365(6) 0.92836(5)
Cd11_4 Cd 0.51363(7) 0.08177(6) 0.83966(4)
In40_4 In 0.42333(8) 0.01539(6) 0.81930(5)
In41_4 In 0.60150(7) 0.14989(6) 0.86141(5)
S73_4 S 0.4739(2) 0.08990(18) 0.88088(14)
S74_4 S 0.5638(2) 0.1583(2) 0.90261(16)
S75_4 S 0.4451(2) 0.15540(19) 0.93644(16)
S76_4 S 0.3530(2) 0.08640(19) 0.91453(15)
S77_4 S 0.3824(3) 0.0217(2) 0.85943(16)
S78_4 S 0.3274(3) 0.1526(2) 0.96770(18)
S79_4 S 0.5040(3) 0.0250(2) 0.82460(16)
S80_4 S 0.5928(3) 0.0934(2) 0.84615(16)
S82_4 S 0.6792(3) 0.1611(3) 0.8675(2)
Cd12_4 Cd 0.50369(7) 0.05128(5) 0.91349(4)
In42_4 In 0.59074(7) 0.11865(6) 0.93478(4)
In43_4 In 0.47518(7) 0.11594(5) 0.96774(4)
In44_4 In 0.38458(7) 0.04828(6) 0.94597(4)
In46_4 In 0.36355(7) 0.11205(6) 0.99418(5)
In48_4 In 0.62000(7) 0.05448(6) 0.87854(5)
S83_4 S 0.4642(2) 0.05879(18) 0.95369(14)
S84_4 S 0.5832(3) 0.06170(19) 0.92007(15)
S86_4 S 0.5531(3) 0.1264(2) 0.97450(16)
S87_4 S 0.6682(3) 0.1307(2) 0.94161(18)
S89_4 S 0.3452(3) 0.0561(2) 0.98492(16)
S94_4 S 0.6977(3) 0.0654(2) 0.88498(18)
S81_4 S 0.4105(4) 0.9596(2) 0.80498(19)
In45_4 In 0.41347(8) 0.98546(6) 0.89274(5)
In47_4 In 0.53305(8) 0.98838(6) 0.85789(5)
In49_4 In 0.44389(10) 0.93047(6) 0.83919(5)
S85_4 S 0.4940(3) 0.99388(19) 0.89872(16)
S90_4 S 0.3741(3) 0.9926(2) 0.93162(16)
S91_4 S 0.4037(3) 0.9296(2) 0.87904(19)
S92_4 S 0.6100(3) 0.9991(2) 0.86463(18)
S93_4 S 0.5228(4) 0.9326(2) 0.84274(19)
N12_4 N 0.4325(11) 0.8790(7) 0.8269(7)
C15_4 C 0.4144(14) 0.8657(9) 0.8064(8)
C16_4 C 0.4350(14) 0.8554(9) 0.8419(8)
H15_4 H 0.4072 0.8767 0.7917
C18_4 C 0.4081(12) 0.8320(9) 0.8109(5)
H16_4 H 0.4436 0.8585 0.8585
H18_4 H 0.3951 0.8167 0.8003
S119_4 S 0.9797(4) 0.9920(3) 0.1506(2)
S122_4 S 0.8579(4) 0.9972(2) 0.1165(2)
S123_4 S 0.8781(7) 0.9557(5) 0.1820(4)
S1_4 S 0.1219(7) 0.0443(5) 0.8180(4)
S3_4 S 0.1421(4) 0.0028(2) 0.8835(2)
S4_4 S 0.0203(4) 0.0080(3) 0.8494(2)
loop_
_geom_bond_atom_site_label_1
_geom_bond_atom_site_label_2
_geom_bond_site_symmetry_1
_geom_bond_site_symmetry_2
In1 S1 1_555 1_555
S2 In1 1_555 1_555
S3 In1 1_555 1_555
S4 In1 1_555 1_555
In2 S2 1_555 1_555
In3 S3 1_555 1_555
S5 In2 1_555 1_555
S6 In2 1_555 1_555
S7 In2 1_555 1_555
S8 In3 1_555 1_555
S9 In3 1_555 1_555
Cd1 S5 1_555 1_555
In5 S7 1_555 1_555
Cd3 S8 1_555 1_555
In6 S9 1_555 1_555
S11 Cd1 1_555 1_555
S12 Cd1 1_555 1_555
S13 Cd1 1_555 1_555
S16 In5 1_555 1_555
S17 Cd3 1_555 1_555
S19 In6 1_555 1_555
Cd4 S11 1_555 1_555
In8 S12 1_555 1_555
In9 S13 1_555 1_555
In12 S16 1_555 1_555
In13 S17 1_555 1_555
In15 S19 1_555 1_555
S22 Cd4 1_555 1_555
S23 Cd4 1_555 1_555
S24 In8 1_555 1_555
S25 In8 1_555 1_555
S26 In9 1_555 1_555
N1 In12 1_555 1_555
S31 In13 1_555 1_555
N2 In15 1_555 1_555
C1 N2 1_555 1_555
C2 N2 1_555 1_555
H1 C1 1_555 1_555
C5 C1 1_555 1_555
N4 C2 1_555 1_555
H2 C2 1_555 1_555
H5 C5 1_555 1_555
In17 N4 1_555 1_555
In3 S5 1_555 1_555
In5 S12 1_555 1_555
In5 S15 1_555 1_555
Cd3 S11 1_555 1_555
In6 S13 1_555 1_555
In6 S17 1_555 1_555
In8 S23 1_555 1_555
In9 S22 1_555 1_555
In9 S24 1_555 1_555
In12 S25 1_555 1_555
In13 S22 1_555 1_555
In15 S26 1_555 1_555
In15 S31 1_555 1_555
C5 N4 1_555 1_555
In49 S81 1_555 1_555
S91 In45 1_555 1_555
S92 In47 1_555 1_555
S93 In47 1_555 1_555
N12 In49 1_555 1_555
C15 N12 1_555 1_555
C16 N12 1_555 1_555
H15 C15 1_555 1_555
C18 C15 1_555 1_555
N15 C16 1_555 1_555
H16 C16 1_555 1_555
H18 C18 1_555 1_555
In52 N15 1_555 1_555
S95 In52 1_555 1_555
S96 In52 1_555 1_555
S97 In52 1_555 1_555
In53 S95 1_555 1_555
In54 S96 1_555 1_555
In55 S97 1_555 1_555
S98 In53 1_555 1_555
S99 In53 1_555 1_555
S100 In53 1_555 1_555
S101 In54 1_555 1_555
S102 In54 1_555 1_555
S103 In55 1_555 1_555
Cd13 S98 1_555 1_555
Cd14 S99 1_555 1_555
In56 S100 1_555 1_555
Cd15 S101 1_555 1_555
In57 S102 1_555 1_555
In58 S103 1_555 1_555
S104 Cd13 1_555 1_555
S105 Cd13 1_555 1_555
S106 Cd13 1_555 1_555
S107 Cd14 1_555 1_555
S108 Cd14 1_555 1_555
S109 In56 1_555 1_555
S110 Cd15 1_555 1_555
S111 Cd15 1_555 1_555
S112 In57 1_555 1_555
Cd16 S104 1_555 1_555
In59 S105 1_555 1_555
In60 S106 1_555 1_555
In61 S107 1_555 1_555
In62 S108 1_555 1_555
In63 S109 1_555 1_555
In65 S111 1_555 1_555
In66 S112 1_555 1_555
S114 Cd16 1_555 1_555
S115 Cd16 1_555 1_555
S116 Cd16 1_555 1_555
S117 In59 1_555 1_555
S118 In59 1_555 1_555
S119 In60 1_555 1_555
S120 In61 1_555 1_555
S122 In62 1_555 1_555
S123 In63 1_555 1_555
S126 In65 1_555 1_555
N16 In66 1_555 1_555
In45 S85 1_555 1_555
In45 S90 1_555 1_555
In47 S85 1_555 1_555
In49 S91 1_555 1_555
In49 S93 1_555 1_555
C18 N15 1_555 1_555
In54 S98 1_555 1_555
In55 S99 1_555 1_555
In55 S101 1_555 1_555
Cd14 S104 1_555 1_555
In56 S106 1_555 1_555
In56 S108 1_555 1_555
Cd15 S104 1_555 1_555
In57 S105 1_555 1_555
In57 S111 1_555 1_555
In58 S107 1_555 1_555
In58 S110 1_555 1_555
In59 S114 1_555 1_555
In60 S116 1_555 1_555
In60 S117 1_555 1_555
In61 S115 1_555 1_555
In62 S116 1_555 1_555
In62 S120 1_555 1_555
In63 S119 1_555 1_555
In63 S122 1_555 1_555
In65 S114 1_555 1_555
In66 S118 1_555 1_555
In66 S126 1_555 1_555
In67 S113 1_555 1_555
S124 In64 1_555 1_555
S125 In64 1_555 1_555
N17 In67 1_555 1_555
C19 N17 1_555 1_555
C20 N17 1_555 1_555
N18 C19 1_555 1_555
H19 C19 1_555 1_555
C21 C20 1_555 1_555
H20 C20 1_555 1_555
In68 N18 1_555 1_555
H21 C21 1_555 1_555
In67 S121 1_555 1_555
In67 S125 1_555 1_555
N18 C21 1_555 1_555
S10 In4 1_555 1_555
In7 S10 1_555 1_555
S14 Cd2 1_555 1_555
S20 In7 1_555 1_555
In10 S14 1_555 1_555
In14 S18 1_555 1_555
In16 S20 1_555 1_555
S27 In10 1_555 1_555
S28 In10 1_555 1_555
S29 In11 1_555 1_555
S32 In14 1_555 1_555
N3 In16 1_555 1_555
C3 N3 1_555 1_555
C4 N3 1_555 1_555
H3 C3 1_555 1_555
C6 C3 1_555 1_555
H4 C4 1_555 1_555
N5 C4 1_555 1_555
H6 C6 1_555 1_555
In18 N5 1_555 1_555
S33 In18 1_555 1_555
S34 In18 1_555 1_555
S35 In18 1_555 1_555
In19 S33 1_555 1_555
In20 S34 1_555 1_555
In21 S35 1_555 1_555
S36 In19 1_555 1_555
S37 In19 1_555 1_555
S38 In19 1_555 1_555
S39 In20 1_555 1_555
S40 In20 1_555 1_555
S41 In21 1_555 1_555
Cd5 S36 1_555 1_555
Cd6 S37 1_555 1_555
In22 S38 1_555 1_555
Cd7 S39 1_555 1_555
In23 S40 1_555 1_555
In24 S41 1_555 1_555
S42 Cd5 1_555 1_555
S43 Cd5 1_555 1_555
S44 Cd5 1_555 1_555
S45 Cd6 1_555 1_555
S46 Cd6 1_555 1_555
S47 In22 1_555 1_555
S48 Cd7 1_555 1_555
S49 Cd7 1_555 1_555
S50 In23 1_555 1_555
S51 In24 1_555 1_555
Cd8 S42 1_555 1_555
In25 S43 1_555 1_555
In26 S44 1_555 1_555
In27 S45 1_555 1_555
In28 S46 1_555 1_555
In29 S48 1_555 1_555
In30 S49 1_555 1_555
In31 S50 1_555 1_555
In32 S51 1_555 1_555
S52 Cd8 1_555 1_555
S53 Cd8 1_555 1_555
S54 Cd8 1_555 1_555
S55 In25 1_555 1_555
S56 In25 1_555 1_555
S57 In26 1_555 1_555
S58 In27 1_555 1_555
S59 In27 1_555 1_555
S60 In28 1_555 1_555
S61 In29 1_555 1_555
S62 In29 1_555 1_555
S63 In30 1_555 1_555
N6 In31 1_555 1_555
N7 In32 1_555 1_555
C7 N6 1_555 1_555
C8 N6 1_555 1_555
C9 N7 1_555 1_555
C10 N7 1_555 1_555
H7 C7 1_555 1_555
C11 C7 1_555 1_555
H8 C8 1_555 1_555
H9 C9 1_555 1_555
H10 C10 1_555 1_555
H11 C11 1_555 1_555
In17 S47 1_555 1_555
N9 C8 1_555 1_555
C12 C9 1_555 1_555
N10 C10 1_555 1_555
In34 N9 1_555 1_555
H12 C12 1_555 1_555
In35 N10 1_555 1_555
S64 In35 1_555 1_555
S65 In35 1_555 1_555
S66 In35 1_555 1_555
In36 S64 1_555 1_555
In37 S65 1_555 1_555
In38 S66 1_555 1_555
S67 In36 1_555 1_555
S68 In36 1_555 1_555
S69 In36 1_555 1_555
S70 In37 1_555 1_555
S71 In37 1_555 1_555
S72 In38 1_555 1_555
Cd9 S67 1_555 1_555
Cd10 S68 1_555 1_555
In39 S69 1_555 1_555
Cd11 S70 1_555 1_555
In40 S71 1_555 1_555
In41 S72 1_555 1_555
S73 Cd9 1_555 1_555
S74 Cd9 1_555 1_555
S75 Cd9 1_555 1_555
S76 Cd10 1_555 1_555
S77 Cd10 1_555 1_555
S78 In39 1_555 1_555
S79 Cd11 1_555 1_555
S80 Cd11 1_555 1_555
S82 In41 1_555 1_555
Cd12 S73 1_555 1_555
In42 S74 1_555 1_555
In43 S75 1_555 1_555
In44 S76 1_555 1_555
In46 S78 1_555 1_555
In48 S80 1_555 1_555
In50 S82 1_555 1_555
S83 Cd12 1_555 1_555
S84 Cd12 1_555 1_555
S86 In42 1_555 1_555
S87 In42 1_555 1_555
S89 In44 1_555 1_555
S94 In48 1_555 1_555
N13 In50 1_555 1_555
In7 S14 1_555 1_555
In7 S18 1_555 1_555
In10 S21 1_555 1_555
In11 S28 1_555 1_555
In14 S21 1_555 1_555
In14 S30 1_555 1_555
In16 S27 1_555 1_555
In16 S32 1_555 1_555
C6 N5 1_555 1_555
In20 S36 1_555 1_555
In21 S37 1_555 1_555
In21 S39 1_555 1_555
Cd6 S42 1_555 1_555
In22 S43 1_555 1_555
In22 S45 1_555 1_555
Cd7 S42 1_555 1_555
In23 S44 1_555 1_555
In23 S48 1_555 1_555
In24 S46 1_555 1_555
In24 S49 1_555 1_555
In25 S54 1_555 1_555
In26 S53 1_555 1_555
In26 S56 1_555 1_555
In27 S54 1_555 1_555
In28 S52 1_555 1_555
In28 S58 1_555 1_555
In29 S53 1_555 1_555
In30 S52 1_555 1_555
In30 S61 1_555 1_555
In31 S57 1_555 1_555
In31 S62 1_555 1_555
In32 S60 1_555 1_555
In32 S63 1_555 1_555
S55 In17 1_555 1_555
S59 In17 1_555 1_555
C11 N9 1_555 1_555
C12 N10 1_555 1_555
In37 S68 1_555 1_555
In38 S67 1_555 1_555
In38 S70 1_555 1_555
Cd10 S73 1_555 1_555
In39 S75 1_555 1_555
In39 S76 1_555 1_555
Cd11 S73 1_555 1_555
In40 S77 1_555 1_555
In40 S79 1_555 1_555
In41 S74 1_555 1_555
In41 S80 1_555 1_555
In42 S84 1_555 1_555
In43 S83 1_555 1_555
In43 S86 1_555 1_555
In44 S83 1_555 1_555
In46 S89 1_555 1_555
In48 S84 1_555 1_555
In50 S87 1_555 1_555
In50 S94 1_555 1_555
C13 N11 1_555 1_555
C14 N11 1_555 1_555
C17 C13 1_555 1_555
H13 C13 1_555 1_555
N14 C14 1_555 1_555
H14 C14 1_555 1_555
H17 C17 1_555 1_555
In51 N14 1_555 1_555
C17 N14 1_555 1_555
In15_2 S19_2 1_555 1_555
S31_2 In13_2 1_555 1_555
N2_2 In15_2 1_555 1_555
C1_2 N2_2 1_555 1_555
C2_2 N2_2 1_555 1_555
H1_2 C1_2 1_555 1_555
C5_2 C1_2 1_555 1_555
N13 C2_2 1_555 1_555
H2_2 C2_2 1_555 1_555
H5_2 C5_2 1_555 1_555
In15_2 S26_2 1_555 1_555
In15_2 S31_2 1_555 1_555
C5_2 N13 1_555 1_555
S2_2 In1_2 1_555 1_555
In2_2 S2_2 1_555 1_555
S5_2 In2_2 1_555 1_555
S6_2 In2_2 1_555 1_555
S7_2 In2_2 1_555 1_555
S8_2 In3_2 1_555 1_555
S9_2 In3_2 1_555 1_555
Cd1_2 S5_2 1_555 1_555
In5_2 S7_2 1_555 1_555
Cd3_2 S8_2 1_555 1_555
In6_2 S9_2 1_555 1_555
S11_2 Cd1_2 1_555 1_555
S12_2 Cd1_2 1_555 1_555
S13_2 Cd1_2 1_555 1_555
S16_2 In5_2 1_555 1_555
S17_2 Cd3_2 1_555 1_555
Cd4_2 S11_2 1_555 1_555
In8_2 S12_2 1_555 1_555
In9_2 S13_2 1_555 1_555
In12_2 S16_2 1_555 1_555
S22_2 Cd4_2 1_555 1_555
S23_2 Cd4_2 1_555 1_555
S24_2 In8_2 1_555 1_555
S25_2 In8_2 1_555 1_555
N1_2 In12_2 1_555 1_555
In3_2 S5_2 1_555 1_555
In5_2 S12_2 1_555 1_555
In5_2 S15_2 1_555 1_555
Cd3_2 S11_2 1_555 1_555
In6_2 S13_2 1_555 1_555
In6_2 S17_2 1_555 1_555
In8_2 S23_2 1_555 1_555
In9_2 S22_2 1_555 1_555
In9_2 S24_2 1_555 1_555
In12_2 S25_2 1_555 1_555
S95_2 In34 1_555 1_555
S96_2 In34 1_555 1_555
S97_2 In34 1_555 1_555
In53_2 S95_2 1_555 1_555
In54_2 S96_2 1_555 1_555
In55_2 S97_2 1_555 1_555
S98_2 In53_2 1_555 1_555
S99_2 In53_2 1_555 1_555
S100_2 In53_2 1_555 1_555
S101_2 In54_2 1_555 1_555
S102_2 In54_2 1_555 1_555
S103_2 In55_2 1_555 1_555
Cd13_2 S98_2 1_555 1_555
Cd14_2 S99_2 1_555 1_555
In56_2 S100_2 1_555 1_555
Cd15_2 S101_2 1_555 1_555
In57_2 S102_2 1_555 1_555
In58_2 S103_2 1_555 1_555
S104_2 Cd13_2 1_555 1_555
S105_2 Cd13_2 1_555 1_555
S106_2 Cd13_2 1_555 1_555
S107_2 Cd14_2 1_555 1_555
S108_2 Cd14_2 1_555 1_555
S109_2 In56_2 1_555 1_555
S110_2 Cd15_2 1_555 1_555
S111_2 Cd15_2 1_555 1_555
S112_2 In57_2 1_555 1_555
S113_2 In58_2 1_555 1_555
Cd16_2 S104_2 1_555 1_555
In59_2 S105_2 1_555 1_555
In60_2 S106_2 1_555 1_555
In61_2 S107_2 1_555 1_555
In62_2 S108_2 1_555 1_555
In63_2 S109_2 1_555 1_555
In64_2 S110_2 1_555 1_555
In65_2 S111_2 1_555 1_555
In66_2 S112_2 1_555 1_555
In67_2 S113_2 1_555 1_555
S114_2 Cd16_2 1_555 1_555
S115_2 Cd16_2 1_555 1_555
S116_2 Cd16_2 1_555 1_555
S117_2 In59_2 1_555 1_555
S118_2 In59_2 1_555 1_555
S120_2 In61_2 1_555 1_555
S121_2 In61_2 1_555 1_555
S124_2 In64_2 1_555 1_555
S125_2 In64_2 1_555 1_555
S126_2 In65_2 1_555 1_555
N16_2 In66_2 1_555 1_555
N17_2 In67_2 1_555 1_555
C19_2 N17_2 1_555 1_555
C20_2 N17_2 1_555 1_555
N18_2 C19_2 1_555 1_555
H19_2 C19_2 1_555 1_555
C21_2 C20_2 1_555 1_555
H20_2 C20_2 1_555 1_555
In68_2 N18_2 1_555 1_555
H21_2 C21_2 1_555 1_555
In54_2 S98_2 1_555 1_555
In55_2 S99_2 1_555 1_555
In55_2 S101_2 1_555 1_555
Cd14_2 S104_2 1_555 1_555
In56_2 S106_2 1_555 1_555
In56_2 S108_2 1_555 1_555
Cd15_2 S104_2 1_555 1_555
In57_2 S105_2 1_555 1_555
In57_2 S111_2 1_555 1_555
In58_2 S107_2 1_555 1_555
In58_2 S110_2 1_555 1_555
In59_2 S114_2 1_555 1_555
In60_2 S116_2 1_555 1_555
In60_2 S117_2 1_555 1_555
In61_2 S115_2 1_555 1_555
In62_2 S116_2 1_555 1_555
In62_2 S120_2 1_555 1_555
In64_2 S115_2 1_555 1_555
In65_2 S114_2 1_555 1_555
In65_2 S124_2 1_555 1_555
In66_2 S118_2 1_555 1_555
In66_2 S126_2 1_555 1_555
In67_2 S121_2 1_555 1_555
In67_2 S125_2 1_555 1_555
N18_2 C21_2 1_555 1_555
S10_2 In4_2 1_555 1_555
In7_2 S10_2 1_555 1_555
S14_2 Cd2_2 1_555 1_555
S20_2 In7_2 1_555 1_555
In10_2 S14_2 1_555 1_555
In14_2 S18_2 1_555 1_555
In51 S20_2 1_555 1_555
S27_2 In10_2 1_555 1_555
S28_2 In10_2 1_555 1_555
S29_2 In11_2 1_555 1_555
S32_2 In14_2 1_555 1_555
In7_2 S14_2 1_555 1_555
In7_2 S18_2 1_555 1_555
In10_2 S21_2 1_555 1_555
In11_2 S28_2 1_555 1_555
In14_2 S21_2 1_555 1_555
In51 S27_2 1_555 1_555
In51 S32_2 1_555 1_555
C13_2 N11_2 1_555 1_555
C14_2 N11_2 1_555 1_555
C17_2 C13_2 1_555 1_555
H13_2 C13_2 1_555 1_555
N16 C14_2 1_555 1_555
H14_2 C14_2 1_555 1_555
H17_2 C17_2 1_555 1_555
C17_2 N16 1_555 1_555
C3_2 N16_2 1_555 1_555
C4_2 N16_2 1_555 1_555
H3_2 C3_2 1_555 1_555
C6_2 C3_2 1_555 1_555
H4_2 C4_2 1_555 1_555
N5_2 C4_2 1_555 1_555
H6_2 C6_2 1_555 1_555
In18_2 N5_2 1_555 1_555
S33_2 In18_2 1_555 1_555
S34_2 In18_2 1_555 1_555
S35_2 In18_2 1_555 1_555
In19_2 S33_2 1_555 1_555
In20_2 S34_2 1_555 1_555
In21_2 S35_2 1_555 1_555
S36_2 In19_2 1_555 1_555
S37_2 In19_2 1_555 1_555
S39_2 In20_2 1_555 1_555
S41_2 In21_2 1_555 1_555
Cd6_2 S37_2 1_555 1_555
Cd7_2 S39_2 1_555 1_555
In24_2 S41_2 1_555 1_555
S46_2 Cd6_2 1_555 1_555
S48_2 Cd7_2 1_555 1_555
S49_2 Cd7_2 1_555 1_555
S51_2 In24_2 1_555 1_555
In28_2 S46_2 1_555 1_555
In29_2 S48_2 1_555 1_555
In30_2 S49_2 1_555 1_555
In32_2 S51_2 1_555 1_555
S60_2 In28_2 1_555 1_555
S61_2 In29_2 1_555 1_555
S63_2 In30_2 1_555 1_555
N7_2 In32_2 1_555 1_555
C9_2 N7_2 1_555 1_555
C10_2 N7_2 1_555 1_555
H9_2 C9_2 1_555 1_555
H10_2 C10_2 1_555 1_555
C12_2 C9_2 1_555 1_555
N10_2 C10_2 1_555 1_555
H12_2 C12_2 1_555 1_555
In35_2 N10_2 1_555 1_555
S64_2 In35_2 1_555 1_555
S65_2 In35_2 1_555 1_555
S66_2 In35_2 1_555 1_555
In36_2 S64_2 1_555 1_555
In37_2 S65_2 1_555 1_555
In38_2 S66_2 1_555 1_555
S67_2 In36_2 1_555 1_555
S68_2 In36_2 1_555 1_555
S69_2 In36_2 1_555 1_555
S70_2 In37_2 1_555 1_555
S71_2 In37_2 1_555 1_555
Cd9_2 S67_2 1_555 1_555
Cd10_2 S68_2 1_555 1_555
In39_2 S69_2 1_555 1_555
In40_2 S71_2 1_555 1_555
S73_2 Cd9_2 1_555 1_555
S75_2 Cd9_2 1_555 1_555
S76_2 Cd10_2 1_555 1_555
S77_2 Cd10_2 1_555 1_555
S78_2 In39_2 1_555 1_555
S81_2 In40_2 1_555 1_555
In43_2 S75_2 1_555 1_555
In44_2 S76_2 1_555 1_555
In45_2 S77_2 1_555 1_555
In46_2 S78_2 1_555 1_555
In49_2 S81_2 1_555 1_555
S89_2 In44_2 1_555 1_555
S90_2 In44_2 1_555 1_555
S91_2 In45_2 1_555 1_555
N12_2 In49_2 1_555 1_555
C15_2 N12_2 1_555 1_555
C16_2 N12_2 1_555 1_555
H15_2 C15_2 1_555 1_555
C18_2 C15_2 1_555 1_555
N1_2 C16_2 1_555 1_555
H16_2 C16_2 1_555 1_555
H18_2 C18_2 1_555 1_555
C6_2 N5_2 1_555 1_555
In20_2 S36_2 1_555 1_555
In21_2 S37_2 1_555 1_555
In21_2 S39_2 1_555 1_555
Cd6_2 S42_2 1_555 1_555
Cd7_2 S42_2 1_555 1_555
In24_2 S46_2 1_555 1_555
In24_2 S49_2 1_555 1_555
In28_2 S52_2 1_555 1_555
In30_2 S52_2 1_555 1_555
In30_2 S61_2 1_555 1_555
In32_2 S60_2 1_555 1_555
In32_2 S63_2 1_555 1_555
C12_2 N10_2 1_555 1_555
In37_2 S68_2 1_555 1_555
In38_2 S67_2 1_555 1_555
In38_2 S70_2 1_555 1_555
Cd10_2 S73_2 1_555 1_555
In39_2 S75_2 1_555 1_555
In39_2 S76_2 1_555 1_555
In40_2 S77_2 1_555 1_555
In43_2 S83_2 1_555 1_555
In44_2 S83_2 1_555 1_555
In45_2 S85_2 1_555 1_555
In45_2 S90_2 1_555 1_555
In46_2 S89_2 1_555 1_555
In49_2 S91_2 1_555 1_555
C18_2 N1_2 1_555 1_555
In23_2 S40_2 1_555 1_555
S50_2 In23_2 1_555 1_555
In31_2 S50_2 1_555 1_555
N6_2 In31_2 1_555 1_555
C7_2 N6_2 1_555 1_555
C8_2 N6_2 1_555 1_555
H7_2 C7_2 1_555 1_555
C11_2 C7_2 1_555 1_555
H8_2 C8_2 1_555 1_555
H11_2 C11_2 1_555 1_555
N1 C8_2 1_555 1_555
In23_2 S44_2 1_555 1_555
In31_2 S62_2 1_555 1_555
C11_2 N1 1_555 1_555
In22_2 S38_2 1_555 1_555
S43_2 Cd5_2 1_555 1_555
S47_2 In22_2 1_555 1_555
In25_2 S43_2 1_555 1_555
In27_2 S45_2 1_555 1_555
S53_2 Cd8_2 1_555 1_555
S54_2 Cd8_2 1_555 1_555
S55_2 In25_2 1_555 1_555
S58_2 In27_2 1_555 1_555
S59_2 In27_2 1_555 1_555
In68_2 S47_2 1_555 1_555
In41_2 S72_2 1_555 1_555
S79_2 Cd11_2 1_555 1_555
S80_2 Cd11_2 1_555 1_555
S82_2 In41_2 1_555 1_555
In42_2 S74_2 1_555 1_555
In47_2 S79_2 1_555 1_555
In48_2 S80_2 1_555 1_555
In68 S82_2 1_555 1_555
S84_2 Cd12_2 1_555 1_555
S86_2 In42_2 1_555 1_555
S87_2 In42_2 1_555 1_555
S92_2 In47_2 1_555 1_555
S93_2 In47_2 1_555 1_555
S94_2 In48_2 1_555 1_555
In22_2 S43_2 1_555 1_555
In22_2 S45_2 1_555 1_555
In25_2 S54_2 1_555 1_555
In27_2 S54_2 1_555 1_555
S55_2 In68_2 1_555 1_555
S59_2 In68_2 1_555 1_555
In41_2 S74_2 1_555 1_555
In41_2 S80_2 1_555 1_555
In42_2 S84_2 1_555 1_555
In48_2 S84_2 1_555 1_555
In48_2 S92_2 1_555 1_555
In68 S87_2 1_555 1_555
In68 S94_2 1_555 1_555
S57_2 In26_2 1_555 1_555
In26_2 S56_2 1_555 1_555
S57_3 In26_3 1_555 1_555
In26_3 S56_3 1_555 1_555
In22_3 S38_3 1_555 1_555
S43_3 Cd5_3 1_555 1_555
S47_3 In22_3 1_555 1_555
In25_3 S43_3 1_555 1_555
In27_3 S45_3 1_555 1_555
S53_3 Cd8_3 1_555 1_555
S54_3 Cd8_3 1_555 1_555
S55_3 In25_3 1_555 1_555
S58_3 In27_3 1_555 1_555
S59_3 In27_3 1_555 1_555
In33 S47_3 1_555 1_555
N8 In33 1_555 1_555
In41_3 S72_3 1_555 1_555
S79_3 Cd11_3 1_555 1_555
S80_3 Cd11_3 1_555 1_555
S82_3 In41_3 1_555 1_555
In42_3 S74_3 1_555 1_555
In47_3 S79_3 1_555 1_555
In48_3 S80_3 1_555 1_555
In50_2 S82_3 1_555 1_555
S84_3 Cd12_3 1_555 1_555
S86_3 In42_3 1_555 1_555
S87_3 In42_3 1_555 1_555
S92_3 In47_3 1_555 1_555
S93_3 In47_3 1_555 1_555
S94_3 In48_3 1_555 1_555
N13_2 In50_2 1_555 1_555
In54_3 S96_3 1_555 1_555
S102_3 In54_3 1_555 1_555
In57_3 S102_3 1_555 1_555
S105_3 Cd13_3 1_555 1_555
S112_3 In57_3 1_555 1_555
In59_3 S105_3 1_555 1_555
In65_3 S111_3 1_555 1_555
In66_3 S112_3 1_555 1_555
S117_3 In59_3 1_555 1_555
S118_3 In59_3 1_555 1_555
S126_3 In65_3 1_555 1_555
N16_3 In66_3 1_555 1_555
In22_3 S43_3 1_555 1_555
In22_3 S45_3 1_555 1_555
In25_3 S54_3 1_555 1_555
In27_3 S54_3 1_555 1_555
S55_3 In33 1_555 1_555
S59_3 In33 1_555 1_555
In41_3 S74_3 1_555 1_555
In41_3 S80_3 1_555 1_555
In42_3 S84_3 1_555 1_555
In48_3 S84_3 1_555 1_555
In48_3 S92_3 1_555 1_555
In50_2 S87_3 1_555 1_555
In50_2 S94_3 1_555 1_555
In57_3 S105_3 1_555 1_555
In57_3 S111_3 1_555 1_555
In59_3 S114_3 1_555 1_555
In60_3 S117_3 1_555 1_555
In65_3 S114_3 1_555 1_555
In66_3 S118_3 1_555 1_555
In66_3 S126_3 1_555 1_555
In23_3 S40_3 1_555 1_555
S50_3 In23_3 1_555 1_555
In31_3 S50_3 1_555 1_555
N6_3 In31_3 1_555 1_555
C7_3 N6_3 1_555 1_555
C8_3 N6_3 1_555 1_555
H7_3 C7_3 1_555 1_555
C11_3 C7_3 1_555 1_555
H8_3 C8_3 1_555 1_555
H11_3 C11_3 1_555 1_555
N9_2 C8_3 1_555 1_555
In34_2 N9_2 1_555 1_555
In23_3 S44_3 1_555 1_555
In31_3 S62_3 1_555 1_555
C11_3 N9_2 1_555 1_555
S2_3 In1_3 1_555 1_555
In2_3 S2_3 1_555 1_555
S5_3 In2_3 1_555 1_555
S6_3 In2_3 1_555 1_555
S7_3 In2_3 1_555 1_555
S8_3 In3_3 1_555 1_555
S9_3 In3_3 1_555 1_555
S10_3 In4_3 1_555 1_555
Cd1_3 S5_3 1_555 1_555
Cd2_3 S6_3 1_555 1_555
In5_3 S7_3 1_555 1_555
Cd3_3 S8_3 1_555 1_555
In6_3 S9_3 1_555 1_555
In7_3 S10_3 1_555 1_555
S11_3 Cd1_3 1_555 1_555
S12_3 Cd1_3 1_555 1_555
S13_3 Cd1_3 1_555 1_555
S14_3 Cd2_3 1_555 1_555
S15_3 Cd2_3 1_555 1_555
S16_3 In5_3 1_555 1_555
S17_3 Cd3_3 1_555 1_555
S18_3 Cd3_3 1_555 1_555
S19_3 In6_3 1_555 1_555
S20_3 In7_3 1_555 1_555
Cd4_3 S11_3 1_555 1_555
In8_3 S12_3 1_555 1_555
In9_3 S13_3 1_555 1_555
In10_3 S14_3 1_555 1_555
In11_3 S15_3 1_555 1_555
In12_3 S16_3 1_555 1_555
In13_3 S17_3 1_555 1_555
In14_3 S18_3 1_555 1_555
In15_3 S19_3 1_555 1_555
In16_2 S20_3 1_555 1_555
S21_3 Cd4_3 1_555 1_555
S22_3 Cd4_3 1_555 1_555
S23_3 Cd4_3 1_555 1_555
S24_3 In8_3 1_555 1_555
S25_3 In8_3 1_555 1_555
S26_3 In9_3 1_555 1_555
S27_3 In10_3 1_555 1_555
S28_3 In10_3 1_555 1_555
S29_3 In11_3 1_555 1_555
N1_3 In12_3 1_555 1_555
S30_3 In13_3 1_555 1_555
S31_3 In13_3 1_555 1_555
S32_3 In14_3 1_555 1_555
N2_3 In15_3 1_555 1_555
N3_2 In16_2 1_555 1_555
C1_3 N2_3 1_555 1_555
C2_3 N2_3 1_555 1_555
C3_3 N3_2 1_555 1_555
C4_3 N3_2 1_555 1_555
H1_3 C1_3 1_555 1_555
C5_3 C1_3 1_555 1_555
N8 C2_3 1_555 1_555
H2_3 C2_3 1_555 1_555
H3_3 C3_3 1_555 1_555
C6_3 C3_3 1_555 1_555
H4_3 C4_3 1_555 1_555
N5_3 C4_3 1_555 1_555
H5_3 C5_3 1_555 1_555
H6_3 C6_3 1_555 1_555
In18_3 N5_3 1_555 1_555
S33_3 In18_3 1_555 1_555
S34_3 In18_3 1_555 1_555
S35_3 In18_3 1_555 1_555
In19_3 S33_3 1_555 1_555
In20_3 S34_3 1_555 1_555
In21_3 S35_3 1_555 1_555
S36_3 In19_3 1_555 1_555
S37_3 In19_3 1_555 1_555
S39_3 In20_3 1_555 1_555
S41_3 In21_3 1_555 1_555
Cd6_3 S37_3 1_555 1_555
Cd7_3 S39_3 1_555 1_555
In24_3 S41_3 1_555 1_555
S46_3 Cd6_3 1_555 1_555
S48_3 Cd7_3 1_555 1_555
S49_3 Cd7_3 1_555 1_555
S51_3 In24_3 1_555 1_555
In28_3 S46_3 1_555 1_555
In29_3 S48_3 1_555 1_555
In30_3 S49_3 1_555 1_555
In32_3 S51_3 1_555 1_555
S60_3 In28_3 1_555 1_555
S61_3 In29_3 1_555 1_555
S63_3 In30_3 1_555 1_555
N7_3 In32_3 1_555 1_555
C9_3 N7_3 1_555 1_555
C10_3 N7_3 1_555 1_555
H9_3 C9_3 1_555 1_555
H10_3 C10_3 1_555 1_555
C12_3 C9_3 1_555 1_555
N10_3 C10_3 1_555 1_555
H12_3 C12_3 1_555 1_555
In35_3 N10_3 1_555 1_555
S64_3 In35_3 1_555 1_555
S65_3 In35_3 1_555 1_555
S66_3 In35_3 1_555 1_555
In36_3 S64_3 1_555 1_555
In37_3 S65_3 1_555 1_555
In38_3 S66_3 1_555 1_555
S67_3 In36_3 1_555 1_555
S68_3 In36_3 1_555 1_555
S69_3 In36_3 1_555 1_555
S70_3 In37_3 1_555 1_555
S71_3 In37_3 1_555 1_555
Cd9_3 S67_3 1_555 1_555
Cd10_3 S68_3 1_555 1_555
In39_3 S69_3 1_555 1_555
In40_3 S71_3 1_555 1_555
S73_3 Cd9_3 1_555 1_555
S75_3 Cd9_3 1_555 1_555
S76_3 Cd10_3 1_555 1_555
S77_3 Cd10_3 1_555 1_555
S78_3 In39_3 1_555 1_555
S81_3 In40_3 1_555 1_555
In43_3 S75_3 1_555 1_555
In44_3 S76_3 1_555 1_555
In45_3 S77_3 1_555 1_555
In46_3 S78_3 1_555 1_555
In49_3 S81_3 1_555 1_555
S89_3 In44_3 1_555 1_555
S90_3 In44_3 1_555 1_555
S91_3 In45_3 1_555 1_555
N12_3 In49_3 1_555 1_555
C15_3 N12_3 1_555 1_555
C16_3 N12_3 1_555 1_555
H15_3 C15_3 1_555 1_555
C18_3 C15_3 1_555 1_555
N15_2 C16_3 1_555 1_555
H16_3 C16_3 1_555 1_555
H18_3 C18_3 1_555 1_555
In52_2 N15_2 1_555 1_555
S95_3 In52_2 1_555 1_555
S97_3 In52_2 1_555 1_555
In53_3 S95_3 1_555 1_555
In55_3 S97_3 1_555 1_555
S98_3 In53_3 1_555 1_555
S99_3 In53_3 1_555 1_555
S100_3 In53_3 1_555 1_555
S103_3 In55_3 1_555 1_555
Cd14_3 S99_3 1_555 1_555
In56_3 S100_3 1_555 1_555
Cd15_3 S101_3 1_555 1_555
In58_3 S103_3 1_555 1_555
S107_3 Cd14_3 1_555 1_555
S108_3 Cd14_3 1_555 1_555
S109_3 In56_3 1_555 1_555
S110_3 Cd15_3 1_555 1_555
Cd16_3 S104_3 1_555 1_555
In61_3 S107_3 1_555 1_555
In62_3 S108_3 1_555 1_555
In63_3 S109_3 1_555 1_555
S115_3 Cd16_3 1_555 1_555
S116_3 Cd16_3 1_555 1_555
S120_3 In61_3 1_555 1_555
In3_3 S5_3 1_555 1_555
In4_3 S6_3 1_555 1_555
In4_3 S8_3 1_555 1_555
Cd2_3 S11_3 1_555 1_555
In5_3 S12_3 1_555 1_555
In5_3 S15_3 1_555 1_555
Cd3_3 S11_3 1_555 1_555
In6_3 S13_3 1_555 1_555
In6_3 S17_3 1_555 1_555
In7_3 S14_3 1_555 1_555
In7_3 S18_3 1_555 1_555
In8_3 S23_3 1_555 1_555
In9_3 S22_3 1_555 1_555
In9_3 S24_3 1_555 1_555
In10_3 S21_3 1_555 1_555
In11_3 S23_3 1_555 1_555
In11_3 S28_3 1_555 1_555
In12_3 S25_3 1_555 1_555
In12_3 S29_3 1_555 1_555
In13_3 S22_3 1_555 1_555
In14_3 S21_3 1_555 1_555
In14_3 S30_3 1_555 1_555
In15_3 S26_3 1_555 1_555
In15_3 S31_3 1_555 1_555
In16_2 S27_3 1_555 1_555
In16_2 S32_3 1_555 1_555
C5_3 N8 1_555 1_555
C6_3 N5_3 1_555 1_555
In20_3 S36_3 1_555 1_555
In21_3 S37_3 1_555 1_555
In21_3 S39_3 1_555 1_555
Cd6_3 S42_3 1_555 1_555
Cd7_3 S42_3 1_555 1_555
In24_3 S46_3 1_555 1_555
In24_3 S49_3 1_555 1_555
In28_3 S52_3 1_555 1_555
In30_3 S52_3 1_555 1_555
In30_3 S61_3 1_555 1_555
In32_3 S60_3 1_555 1_555
In32_3 S63_3 1_555 1_555
C12_3 N10_3 1_555 1_555
In37_3 S68_3 1_555 1_555
In38_3 S67_3 1_555 1_555
In38_3 S70_3 1_555 1_555
Cd10_3 S73_3 1_555 1_555
In39_3 S75_3 1_555 1_555
In39_3 S76_3 1_555 1_555
In40_3 S77_3 1_555 1_555
In43_3 S83_3 1_555 1_555
In44_3 S83_3 1_555 1_555
In45_3 S85_3 1_555 1_555
In45_3 S90_3 1_555 1_555
In46_3 S89_3 1_555 1_555
In49_3 S91_3 1_555 1_555
C18_3 N15_2 1_555 1_555
In55_3 S99_3 1_555 1_555
In55_3 S101_3 1_555 1_555
Cd14_3 S104_3 1_555 1_555
In56_3 S106_3 1_555 1_555
In56_3 S108_3 1_555 1_555
Cd15_3 S104_3 1_555 1_555
In58_3 S107_3 1_555 1_555
In58_3 S110_3 1_555 1_555
In61_3 S115_3 1_555 1_555
In62_3 S116_3 1_555 1_555
In62_3 S120_3 1_555 1_555
C13_3 N11_3 1_555 1_555
C14_3 N11_3 1_555 1_555
C17_3 C13_3 1_555 1_555
H13_3 C13_3 1_555 1_555
N14_2 C14_3 1_555 1_555
H14_3 C14_3 1_555 1_555
H17_3 C17_3 1_555 1_555
In51_2 N14_2 1_555 1_555
In67_3 S113_3 1_555 1_555
S125_3 In64_3 1_555 1_555
N17_3 In67_3 1_555 1_555
C19_3 N17_3 1_555 1_555
C20_3 N17_3 1_555 1_555
N18_3 C19_3 1_555 1_555
H19_3 C19_3 1_555 1_555
C21_3 C20_3 1_555 1_555
H20_3 C20_3 1_555 1_555
In68_3 N18_3 1_555 1_555
H21_3 C21_3 1_555 1_555
C17_3 N14_2 1_555 1_555
In67_3 S121_3 1_555 1_555
In67_3 S125_3 1_555 1_555
N18_3 C21_3 1_555 1_555
In54_4 S96_4 1_555 1_555
S102_4 In54_4 1_555 1_555
In57_4 S102_4 1_555 1_555
S105_4 Cd13_4 1_555 1_555
S112_4 In57_4 1_555 1_555
In59_4 S105_4 1_555 1_555
In65_4 S111_4 1_555 1_555
In66_4 S112_4 1_555 1_555
S117_4 In59_4 1_555 1_555
S118_4 In59_4 1_555 1_555
S126_4 In65_4 1_555 1_555
N16_4 In66_4 1_555 1_555
In57_4 S105_4 1_555 1_555
In57_4 S111_4 1_555 1_555
In59_4 S114_4 1_555 1_555
In60_4 S117_4 1_555 1_555
In65_4 S114_4 1_555 1_555
In65_4 S124_4 1_555 1_555
In66_4 S118_4 1_555 1_555
In66_4 S126_4 1_555 1_555
S95_4 In34_2 1_555 1_555
S97_4 In34_2 1_555 1_555
In53_4 S95_4 1_555 1_555
In55_4 S97_4 1_555 1_555
S98_4 In53_4 1_555 1_555
S99_4 In53_4 1_555 1_555
S100_4 In53_4 1_555 1_555
S103_4 In55_4 1_555 1_555
Cd14_4 S99_4 1_555 1_555
In56_4 S100_4 1_555 1_555
Cd15_4 S101_4 1_555 1_555
In58_4 S103_4 1_555 1_555
S107_4 Cd14_4 1_555 1_555
S108_4 Cd14_4 1_555 1_555
S109_4 In56_4 1_555 1_555
S110_4 Cd15_4 1_555 1_555
S113_4 In58_4 1_555 1_555
Cd16_4 S104_4 1_555 1_555
In61_4 S107_4 1_555 1_555
In62_4 S108_4 1_555 1_555
In63_4 S109_4 1_555 1_555
In64_4 S110_4 1_555 1_555
In67_4 S113_4 1_555 1_555
S115_4 Cd16_4 1_555 1_555
S116_4 Cd16_4 1_555 1_555
S120_4 In61_4 1_555 1_555
S121_4 In61_4 1_555 1_555
S122_3 In62_4 1_555 1_555
S123_3 In63_4 1_555 1_555
S125_4 In64_4 1_555 1_555
N17_4 In67_4 1_555 1_555
C19_4 N17_4 1_555 1_555
C20_4 N17_4 1_555 1_555
N18_4 C19_4 1_555 1_555
H19_4 C19_4 1_555 1_555
C21_4 C20_4 1_555 1_555
H20_4 C20_4 1_555 1_555
In68_4 N18_4 1_555 1_555
H21_4 C21_4 1_555 1_555
In55_4 S99_4 1_555 1_555
In55_4 S101_4 1_555 1_555
Cd14_4 S104_4 1_555 1_555
In56_4 S106_4 1_555 1_555
In56_4 S108_4 1_555 1_555
Cd15_4 S104_4 1_555 1_555
In58_4 S107_4 1_555 1_555
In58_4 S110_4 1_555 1_555
In61_4 S115_4 1_555 1_555
In62_4 S116_4 1_555 1_555
In62_4 S120_4 1_555 1_555
In63_4 S119_3 1_555 1_555
In63_4 S122_3 1_555 1_555
In64_4 S115_4 1_555 1_555
In67_4 S121_4 1_555 1_555
In67_4 S125_4 1_555 1_555
N18_4 C21_4 1_555 1_555
In15_4 S19_4 1_555 1_555
S30_4 In13_4 1_555 1_555
S31_4 In13_4 1_555 1_555
N2_4 In15_4 1_555 1_555
C1_4 N2_4 1_555 1_555
C2_4 N2_4 1_555 1_555
H1_4 C1_4 1_555 1_555
C5_4 C1_4 1_555 1_555
N13_2 C2_4 1_555 1_555
H2_4 C2_4 1_555 1_555
H5_4 C5_4 1_555 1_555
In15_4 S26_4 1_555 1_555
In15_4 S31_4 1_555 1_555
C5_4 N13_2 1_555 1_555
In1_4 S1_3 1_555 1_555
S2_4 In1_4 1_555 1_555
S3_3 In1_4 1_555 1_555
S4_3 In1_4 1_555 1_555
In2_4 S2_4 1_555 1_555
In3_4 S3_3 1_555 1_555
In4_4 S4_3 1_555 1_555
S5_4 In2_4 1_555 1_555
S6_4 In2_4 1_555 1_555
S7_4 In2_4 1_555 1_555
S8_4 In3_4 1_555 1_555
S9_4 In3_4 1_555 1_555
S10_4 In4_4 1_555 1_555
Cd1_4 S5_4 1_555 1_555
Cd2_4 S6_4 1_555 1_555
In5_4 S7_4 1_555 1_555
Cd3_4 S8_4 1_555 1_555
In6_4 S9_4 1_555 1_555
In7_4 S10_4 1_555 1_555
S11_4 Cd1_4 1_555 1_555
S12_4 Cd1_4 1_555 1_555
S13_4 Cd1_4 1_555 1_555
S14_4 Cd2_4 1_555 1_555
S15_4 Cd2_4 1_555 1_555
S16_4 In5_4 1_555 1_555
S17_4 Cd3_4 1_555 1_555
S18_4 Cd3_4 1_555 1_555
S20_4 In7_4 1_555 1_555
Cd4_4 S11_4 1_555 1_555
In8_4 S12_4 1_555 1_555
In9_4 S13_4 1_555 1_555
In10_4 S14_4 1_555 1_555
In11_4 S15_4 1_555 1_555
In12_4 S16_4 1_555 1_555
In14_4 S18_4 1_555 1_555
In51_2 S20_4 1_555 1_555
S21_4 Cd4_4 1_555 1_555
S22_4 Cd4_4 1_555 1_555
S23_4 Cd4_4 1_555 1_555
S24_4 In8_4 1_555 1_555
S25_4 In8_4 1_555 1_555
S27_4 In10_4 1_555 1_555
S28_4 In10_4 1_555 1_555
S29_4 In11_4 1_555 1_555
N1_4 In12_4 1_555 1_555
S32_4 In14_4 1_555 1_555
In3_4 S5_4 1_555 1_555
In4_4 S6_4 1_555 1_555
In4_4 S8_4 1_555 1_555
Cd2_4 S11_4 1_555 1_555
In5_4 S12_4 1_555 1_555
In5_4 S15_4 1_555 1_555
Cd3_4 S11_4 1_555 1_555
In6_4 S13_4 1_555 1_555
In6_4 S17_4 1_555 1_555
In7_4 S14_4 1_555 1_555
In7_4 S18_4 1_555 1_555
In8_4 S23_4 1_555 1_555
In9_4 S22_4 1_555 1_555
In9_4 S24_4 1_555 1_555
In10_4 S21_4 1_555 1_555
In11_4 S23_4 1_555 1_555
In11_4 S28_4 1_555 1_555
In12_4 S25_4 1_555 1_555
In12_4 S29_4 1_555 1_555
In14_4 S21_4 1_555 1_555
In51_2 S27_4 1_555 1_555
In51_2 S32_4 1_555 1_555
C13_4 N11_4 1_555 1_555
C14_4 N11_4 1_555 1_555
C17_4 C13_4 1_555 1_555
H13_4 C13_4 1_555 1_555
N16_3 C14_4 1_555 1_555
H14_4 C14_4 1_555 1_555
H17_4 C17_4 1_555 1_555
C17_4 N16_3 1_555 1_555
C3_4 N16_4 1_555 1_555
C4_4 N16_4 1_555 1_555
H3_4 C3_4 1_555 1_555
C6_4 C3_4 1_555 1_555
H4_4 C4_4 1_555 1_555
N5_4 C4_4 1_555 1_555
H6_4 C6_4 1_555 1_555
In18_4 N5_4 1_555 1_555
S33_4 In18_4 1_555 1_555
S34_4 In18_4 1_555 1_555
S35_4 In18_4 1_555 1_555
In19_4 S33_4 1_555 1_555
In20_4 S34_4 1_555 1_555
In21_4 S35_4 1_555 1_555
S36_4 In19_4 1_555 1_555
S37_4 In19_4 1_555 1_555
S38_4 In19_4 1_555 1_555
S39_4 In20_4 1_555 1_555
S40_4 In20_4 1_555 1_555
S41_4 In21_4 1_555 1_555
Cd5_4 S36_4 1_555 1_555
Cd6_4 S37_4 1_555 1_555
In22_4 S38_4 1_555 1_555
Cd7_4 S39_4 1_555 1_555
In23_4 S40_4 1_555 1_555
In24_4 S41_4 1_555 1_555
S42_4 Cd5_4 1_555 1_555
S43_4 Cd5_4 1_555 1_555
S44_4 Cd5_4 1_555 1_555
S45_4 Cd6_4 1_555 1_555
S46_4 Cd6_4 1_555 1_555
S47_4 In22_4 1_555 1_555
S48_4 Cd7_4 1_555 1_555
S49_4 Cd7_4 1_555 1_555
S50_4 In23_4 1_555 1_555
S51_4 In24_4 1_555 1_555
Cd8_4 S42_4 1_555 1_555
In25_4 S43_4 1_555 1_555
In26_4 S44_4 1_555 1_555
In27_4 S45_4 1_555 1_555
In28_4 S46_4 1_555 1_555
In29_4 S48_4 1_555 1_555
In30_4 S49_4 1_555 1_555
In31_4 S50_4 1_555 1_555
In32_4 S51_4 1_555 1_555
S52_4 Cd8_4 1_555 1_555
S53_4 Cd8_4 1_555 1_555
S54_4 Cd8_4 1_555 1_555
S55_4 In25_4 1_555 1_555
S56_4 In25_4 1_555 1_555
S57_4 In26_4 1_555 1_555
S58_4 In27_4 1_555 1_555
S59_4 In27_4 1_555 1_555
S60_4 In28_4 1_555 1_555
S61_4 In29_4 1_555 1_555
S62_4 In29_4 1_555 1_555
S63_4 In30_4 1_555 1_555
N6_4 In31_4 1_555 1_555
N7_4 In32_4 1_555 1_555
C7_4 N6_4 1_555 1_555
C8_4 N6_4 1_555 1_555
C9_4 N7_4 1_555 1_555
C10_4 N7_4 1_555 1_555
H7_4 C7_4 1_555 1_555
C11_4 C7_4 1_555 1_555
H8_4 C8_4 1_555 1_555
H9_4 C9_4 1_555 1_555
H10_4 C10_4 1_555 1_555
H11_4 C11_4 1_555 1_555
In68_4 S47_4 1_555 1_555
N1_3 C8_4 1_555 1_555
C12_4 C9_4 1_555 1_555
N10_4 C10_4 1_555 1_555
H12_4 C12_4 1_555 1_555
In35_4 N10_4 1_555 1_555
S64_4 In35_4 1_555 1_555
S65_4 In35_4 1_555 1_555
S66_4 In35_4 1_555 1_555
In36_4 S64_4 1_555 1_555
In37_4 S65_4 1_555 1_555
In38_4 S66_4 1_555 1_555
S67_4 In36_4 1_555 1_555
S68_4 In36_4 1_555 1_555
S69_4 In36_4 1_555 1_555
S70_4 In37_4 1_555 1_555
S71_4 In37_4 1_555 1_555
S72_4 In38_4 1_555 1_555
Cd9_4 S67_4 1_555 1_555
Cd10_4 S68_4 1_555 1_555
In39_4 S69_4 1_555 1_555
Cd11_4 S70_4 1_555 1_555
In40_4 S71_4 1_555 1_555
In41_4 S72_4 1_555 1_555
S73_4 Cd9_4 1_555 1_555
S74_4 Cd9_4 1_555 1_555
S75_4 Cd9_4 1_555 1_555
S76_4 Cd10_4 1_555 1_555
S77_4 Cd10_4 1_555 1_555
S78_4 In39_4 1_555 1_555
S79_4 Cd11_4 1_555 1_555
S80_4 Cd11_4 1_555 1_555
S82_4 In41_4 1_555 1_555
Cd12_4 S73_4 1_555 1_555
In42_4 S74_4 1_555 1_555
In43_4 S75_4 1_555 1_555
In44_4 S76_4 1_555 1_555
In46_4 S78_4 1_555 1_555
In48_4 S80_4 1_555 1_555
In68_3 S82_4 1_555 1_555
S83_4 Cd12_4 1_555 1_555
S84_4 Cd12_4 1_555 1_555
S86_4 In42_4 1_555 1_555
S87_4 In42_4 1_555 1_555
S89_4 In44_4 1_555 1_555
S94_4 In48_4 1_555 1_555
C6_4 N5_4 1_555 1_555
In20_4 S36_4 1_555 1_555
In21_4 S37_4 1_555 1_555
In21_4 S39_4 1_555 1_555
Cd6_4 S42_4 1_555 1_555
In22_4 S43_4 1_555 1_555
In22_4 S45_4 1_555 1_555
Cd7_4 S42_4 1_555 1_555
In23_4 S44_4 1_555 1_555
In23_4 S48_4 1_555 1_555
In24_4 S46_4 1_555 1_555
In24_4 S49_4 1_555 1_555
In25_4 S54_4 1_555 1_555
In26_4 S53_4 1_555 1_555
In26_4 S56_4 1_555 1_555
In27_4 S54_4 1_555 1_555
In28_4 S52_4 1_555 1_555
In28_4 S58_4 1_555 1_555
In29_4 S53_4 1_555 1_555
In30_4 S52_4 1_555 1_555
In30_4 S61_4 1_555 1_555
In31_4 S57_4 1_555 1_555
In31_4 S62_4 1_555 1_555
In32_4 S60_4 1_555 1_555
In32_4 S63_4 1_555 1_555
S55_4 In68_4 1_555 1_555
S59_4 In68_4 1_555 1_555
C11_4 N1_3 1_555 1_555
C12_4 N10_4 1_555 1_555
In37_4 S68_4 1_555 1_555
In38_4 S67_4 1_555 1_555
In38_4 S70_4 1_555 1_555
Cd10_4 S73_4 1_555 1_555
In39_4 S75_4 1_555 1_555
In39_4 S76_4 1_555 1_555
Cd11_4 S73_4 1_555 1_555
In40_4 S77_4 1_555 1_555
In40_4 S79_4 1_555 1_555
In41_4 S74_4 1_555 1_555
In41_4 S80_4 1_555 1_555
In42_4 S84_4 1_555 1_555
In43_4 S83_4 1_555 1_555
In43_4 S86_4 1_555 1_555
In44_4 S83_4 1_555 1_555
In46_4 S89_4 1_555 1_555
In48_4 S84_4 1_555 1_555
In68_3 S87_4 1_555 1_555
In68_3 S94_4 1_555 1_555
In49_4 S81_4 1_555 1_555
S91_4 In45_4 1_555 1_555
S92_4 In47_4 1_555 1_555
S93_4 In47_4 1_555 1_555
N12_4 In49_4 1_555 1_555
C15_4 N12_4 1_555 1_555
C16_4 N12_4 1_555 1_555
H15_4 C15_4 1_555 1_555
C18_4 C15_4 1_555 1_555
N1_4 C16_4 1_555 1_555
H16_4 C16_4 1_555 1_555
H18_4 C18_4 1_555 1_555
In45_4 S85_4 1_555 1_555
In45_4 S90_4 1_555 1_555
In47_4 S85_4 1_555 1_555
In49_4 S91_4 1_555 1_555
In49_4 S93_4 1_555 1_555
C18_4 N1_4 1_555 1_555

#END
