
###############################################################################
#
# This file contains modified crystal structure data generated from the
# MOF subset of the Cambridge Structural Database (CSD) v543 
# hosted by the Cambridge Crystallographic Data Centre (CCDC).
#
# This work is licensed under the Creative Commons
# Attribution-NonCommercial-ShareAlike 4.0 International License.
# To view a copy of this license, visit
# http://creativecommons.org/licenses/by-nc-sa/4.0/
# or send a letter to
# Creative Commons, PO Box 1866, Mountain View, CA 94042, USA.
#
# CIF created using the CSD Python API on 29 September 2022
# The structure has been converted into the P1 space group
# The structure has a 3D framework
# The original CSD entry IDIMIU is in the orthorhombic crystal system
# The framework has been calculated to contain at least 10.0% void space
# The void calculation uses a probe of radius 1.32A, grid spacing 0.4
# The framework is charged, counterions have been retained in the structure
#
###############################################################################

data_IDIMIU
_chemical_formula_moiety         '(C24 H24 In80 N16 S132 40-)n'
_symmetry_cell_setting           triclinic
_symmetry_space_group_name_H-M   'P 1'
_symmetry_Int_Tables_number      1
_space_group_name_Hall           'P 1'
loop_
_symmetry_equiv_pos_site_id
_symmetry_equiv_pos_as_xyz
1 x,y,z
_cell_length_a                   21.037(4)
_cell_length_b                   23.016(5)
_cell_length_c                   32.547(7)
_cell_angle_alpha                90
_cell_angle_beta                 90
_cell_angle_gamma                90
_cell_volume                     15758.9
loop_
_atom_site_label
_atom_site_type_symbol
_atom_site_fract_x
_atom_site_fract_y
_atom_site_fract_z
In1 In 0.30988(4) 0.26768(4) 0.14801(3)
S1 S 0.20392(16) 0.24511(16) 0.12619(11)
S2 S 0.37516(16) 0.31284(16) 0.09256(11)
S3 S 0.35808(17) 0.17456(16) 0.17219(11)
S4 S 0.30405(18) 0.33608(18) 0.20431(13)
In2 In 0.21614(4) 0.18293(4) 0.06464(3)
In3 In 0.48609(4) 0.33121(4) 0.11640(3)
In4 In 0.38055(4) 0.24332(4) 0.03221(3)
In5 In 0.46787(5) 0.19584(4) 0.19802(3)
In6 In 0.36275(4) 0.10706(4) 0.11201(3)
In7 In 0.41454(5) 0.34607(5) 0.22196(3)
S5 S 0.10758(16) 0.15227(17) 0.04840(12)
S6 S 0.27373(17) 0.2287(2) 0.00855(12)
S7 S 0.26016(17) 0.08722(17) 0.08451(13)
S8 S 0.53383(17) 0.23868(16) 0.14202(11)
S9 S 0.54768(18) 0.37492(17) 0.06355(12)
S10 S 0.48339(18) 0.39731(16) 0.17469(12)
S12 S 0.42961(16) 0.15057(16) 0.05684(10)
S13 S 0.4610(2) 0.26188(17) 0.25509(12)
S14 S 0.51729(18) 0.10673(17) 0.22072(11)
S15 S 0.41325(17) 0.01755(16) 0.13446(12)
N1 N 0.4069(5) 0.4093(5) 0.2720(3)
In8 In 0.53927(4) 0.17156(4) 0.08150(3)
In9 In 0.55241(4) 0.30136(4) 0.00863(3)
In10 In 0.51673(5) 0.05208(4) 0.15710(3)
C1 C 0.3544(9) 0.4242(10) 0.2932(6)
C2 C 0.4521(7) 0.4408(7) 0.2886(5)
S16 S 0.60612(17) 0.21243(16) 0.02981(12)
S17 S 0.58893(17) 0.08148(17) 0.10336(12)
H1 H 0.3137 0.4070 0.2896
C3 C 0.3676(8) 0.4668(8) 0.3201(6)
H2 H 0.4952 0.4384 0.2800
H3 H 0.3384 0.4870 0.3372
N3 N 0.4337(5) 0.4752(5) 0.3176(3)
In12 In 0.48327(5) 0.55208(4) 0.34290(3)
N2 N 0.5663(5) 0.9752(5) 0.1824(3)
In1_2 In 0.19012(4) 0.73232(4) 0.64801(3)
S1_2 S 0.29608(16) 0.75489(16) 0.62619(11)
S2_2 S 0.12484(16) 0.68716(16) 0.59256(11)
S3_2 S 0.14192(17) 0.82544(16) 0.67219(11)
S4_2 S 0.19595(18) 0.66392(18) 0.70431(13)
In2_2 In 0.28386(4) 0.81707(4) 0.56464(3)
In3_2 In 0.01391(4) 0.66879(4) 0.61640(3)
In4_2 In 0.11945(4) 0.75668(4) 0.53221(3)
In5_2 In 0.03213(5) 0.80416(4) 0.69802(3)
In6_2 In 0.13725(4) 0.89294(4) 0.61201(3)
In7_2 In 0.08546(5) 0.65393(5) 0.72196(3)
S5_2 S 0.39242(16) 0.84773(17) 0.54840(12)
S6_2 S 0.22627(17) 0.7713(2) 0.50855(12)
S7_2 S 0.23984(17) 0.91278(17) 0.58451(13)
S10_2 S 0.01661(18) 0.60269(16) 0.67469(12)
S11 S 0.05293(16) 0.71813(16) 0.47880(11)
S12_2 S 0.07039(16) 0.84943(16) 0.55684(10)
S13_2 S 0.0390(2) 0.73812(17) 0.75509(12)
S15_2 S 0.08675(17) 0.98245(16) 0.63446(12)
N1_2 N 0.0931(5) 0.5907(5) 0.7720(3)
C1_2 C 0.1456(9) 0.5758(10) 0.7932(6)
C2_2 C 0.0479(7) 0.5592(7) 0.7886(5)
H1_2 H 0.1863 0.5930 0.7896
C3_2 C 0.1324(8) 0.5332(8) 0.8201(6)
H2_2 H 0.0048 0.5616 0.7800
H3_2 H 0.1616 0.5130 0.8372
N3_2 N 0.0663(5) 0.5248(5) 0.8176(3)
In12_2 In 0.01673(5) 0.44792(4) 0.84290(3)
S8_2 S 0.96617(17) 0.76132(16) 0.64202(11)
S9_2 S 0.95232(18) 0.62508(17) 0.56355(12)
S14_2 S 0.98271(18) 0.89327(17) 0.72072(11)
In8_2 In 0.96073(4) 0.82844(4) 0.58150(3)
In9_2 In 0.94759(4) 0.69864(4) 0.50863(3)
In10_2 In 0.98327(5) 0.94792(4) 0.65710(3)
S16_2 S 0.89388(17) 0.78757(16) 0.52981(12)
S17_2 S 0.91107(17) 0.91852(17) 0.60336(12)
S18 S 0.89242(16) 0.65227(17) 0.45160(12)
In11 In 0.78386(4) 0.68293(4) 0.43536(3)
In1_3 In 0.69012(4) 0.76768(4) 0.35199(3)
S1_3 S 0.79608(16) 0.74511(16) 0.37381(11)
S2_3 S 0.62484(16) 0.81284(16) 0.40744(11)
S3_3 S 0.64192(17) 0.67456(16) 0.32781(11)
S4_3 S 0.69595(18) 0.83608(18) 0.29569(13)
In3_3 In 0.51391(4) 0.83121(4) 0.38360(3)
In4_3 In 0.61945(4) 0.74332(4) 0.46779(3)
In5_3 In 0.53213(5) 0.69584(4) 0.30198(3)
In6_3 In 0.63725(4) 0.60706(4) 0.38799(3)
In7_3 In 0.58546(5) 0.84607(5) 0.27804(3)
S6_3 S 0.72627(17) 0.7287(2) 0.49145(12)
S7_3 S 0.73984(17) 0.58722(17) 0.41549(13)
S8_3 S 0.46617(17) 0.73868(16) 0.35798(11)
S9_3 S 0.45232(18) 0.87492(17) 0.43645(12)
S10_3 S 0.51661(18) 0.89731(16) 0.32531(12)
S11_2 S 0.55293(16) 0.78187(16) 0.52120(11)
S12_3 S 0.57039(16) 0.65057(16) 0.44316(10)
S13_3 S 0.5390(2) 0.76188(17) 0.24491(12)
S14_3 S 0.48271(18) 0.60673(17) 0.27928(11)
S15_3 S 0.58675(17) 0.51755(16) 0.36554(12)
N1_3 N 0.5931(5) 0.9093(5) 0.2280(3)
In8_3 In 0.46073(4) 0.67156(4) 0.41850(3)
In9_3 In 0.44759(4) 0.80136(4) 0.49137(3)
C1_3 C 0.6456(9) 0.9242(10) 0.2068(6)
C2_3 C 0.5479(7) 0.9408(7) 0.2114(5)
S16_3 S 0.39388(17) 0.71243(16) 0.47019(12)
S17_3 S 0.41107(17) 0.58148(17) 0.39664(12)
H1_3 H 0.6863 0.9070 0.2104
C3_3 C 0.6324(8) 0.9668(8) 0.1799(6)
H2_3 H 0.5048 0.9384 0.2200
H3_3 H 0.6616 0.9870 0.1628
S8_4 S 0.03383(17) 0.26132(16) 0.85798(11)
S9_4 S 0.04768(18) 0.12508(17) 0.93645(12)
S14_4 S 0.01729(18) 0.39327(17) 0.77928(11)
In8_4 In 0.03927(4) 0.32844(4) 0.91850(3)
In9_4 In 0.05241(4) 0.19864(4) 0.99137(3)
S16_4 S 0.10612(17) 0.28757(16) 0.97019(12)
S17_4 S 0.08893(17) 0.41852(17) 0.89664(12)
S11_3 S 0.44707(16) 0.28187(16) 0.97880(11)
S18_2 S 0.60758(16) 0.34773(17) 0.95160(12)
In11_2 In 0.71614(4) 0.31707(4) 0.93536(3)
N2_2 N 0.9337(5) 0.0248(5) 0.6824(3)
In1_4 In 0.80988(4) 0.23232(4) 0.85199(3)
S1_4 S 0.70392(16) 0.25489(16) 0.87381(11)
S2_4 S 0.87516(16) 0.18716(16) 0.90744(11)
S3_4 S 0.85808(17) 0.32544(16) 0.82781(11)
S4_4 S 0.80405(18) 0.16392(18) 0.79569(13)
In3_4 In 0.98609(4) 0.16879(4) 0.88360(3)
In4_4 In 0.88055(4) 0.25668(4) 0.96779(3)
In5_4 In 0.96787(5) 0.30416(4) 0.80198(3)
In6_4 In 0.86275(4) 0.39294(4) 0.88799(3)
In7_4 In 0.91454(5) 0.15393(5) 0.77804(3)
S6_4 S 0.77373(17) 0.2713(2) 0.99145(12)
S7_4 S 0.76016(17) 0.41278(17) 0.91549(13)
S10_4 S 0.98339(18) 0.10269(16) 0.82531(12)
S12_4 S 0.92961(16) 0.34943(16) 0.94316(10)
S13_4 S 0.9610(2) 0.23812(17) 0.74491(12)
S15_4 S 0.91325(17) 0.48245(16) 0.86554(12)
N1_4 N 0.9069(5) 0.0907(5) 0.7280(3)
C1_4 C 0.8544(9) 0.0758(10) 0.7068(6)
C2_4 C 0.9521(7) 0.0592(7) 0.7114(5)
H1_4 H 0.8137 0.0930 0.7104
C3_4 C 0.8676(8) 0.0332(8) 0.6799(6)
H2_4 H 0.9952 0.0616 0.7200
H3_4 H 0.8384 0.0130 0.6628
S11_4 S 0.94707(16) 0.21813(16) 0.02120(11)
N2_3 N 0.4337(5) 0.0248(5) 0.8176(3)
In1_5 In 0.69012(4) 0.73232(4) 0.85199(3)
S1_5 S 0.79608(16) 0.75489(16) 0.87381(11)
S2_5 S 0.62484(16) 0.68716(16) 0.90744(11)
S3_5 S 0.64192(17) 0.82544(16) 0.82781(11)
S4_5 S 0.69595(18) 0.66392(18) 0.79569(13)
In2_3 In 0.78386(4) 0.81707(4) 0.93536(3)
In3_5 In 0.51391(4) 0.66879(4) 0.88360(3)
In4_5 In 0.61945(4) 0.75668(4) 0.96779(3)
In5_5 In 0.53213(5) 0.80416(4) 0.80198(3)
In6_5 In 0.63725(4) 0.89294(4) 0.88799(3)
In7_5 In 0.58546(5) 0.65393(5) 0.77804(3)
S5_3 S 0.89242(16) 0.84773(17) 0.95160(12)
S6_5 S 0.72627(17) 0.7713(2) 0.99145(12)
S7_5 S 0.73984(17) 0.91278(17) 0.91549(13)
S8_5 S 0.46617(17) 0.76132(16) 0.85798(11)
S9_5 S 0.45232(18) 0.62508(17) 0.93645(12)
S10_5 S 0.51661(18) 0.60269(16) 0.82531(12)
S12_5 S 0.57039(16) 0.84943(16) 0.94316(10)
S13_5 S 0.5390(2) 0.73812(17) 0.74491(12)
S14_5 S 0.48271(18) 0.89327(17) 0.77928(11)
S15_5 S 0.58675(17) 0.98245(16) 0.86554(12)
N1_5 N 0.5931(5) 0.5907(5) 0.7280(3)
In8_5 In 0.46073(4) 0.82844(4) 0.91850(3)
In9_5 In 0.44759(4) 0.69864(4) 0.99137(3)
In10_3 In 0.48327(5) 0.94792(4) 0.84290(3)
C1_5 C 0.6456(9) 0.5758(10) 0.7068(6)
C2_5 C 0.5479(7) 0.5592(7) 0.7114(5)
S16_5 S 0.39388(17) 0.78757(16) 0.97019(12)
S17_5 S 0.41107(17) 0.91852(17) 0.89664(12)
H1_5 H 0.6863 0.5930 0.7104
C3_5 C 0.6324(8) 0.5332(8) 0.6799(6)
H2_5 H 0.5048 0.5616 0.7200
H3_5 H 0.6616 0.5130 0.6628
N3_3 N 0.5663(5) 0.5248(5) 0.6824(3)
In12_3 In 0.51673(5) 0.44792(4) 0.65710(3)
S8_6 S 0.03383(17) 0.23868(16) 0.35798(11)
S9_6 S 0.04768(18) 0.37492(17) 0.43645(12)
S14_6 S 0.01729(18) 0.10673(17) 0.27928(11)
In8_6 In 0.03927(4) 0.17156(4) 0.41850(3)
In9_6 In 0.05241(4) 0.30136(4) 0.49137(3)
In10_4 In 0.01673(5) 0.05208(4) 0.34290(3)
S16_6 S 0.10612(17) 0.21243(16) 0.47019(12)
S17_6 S 0.08893(17) 0.08148(17) 0.39664(12)
S18_3 S 0.10758(16) 0.34773(17) 0.54840(12)
In11_3 In 0.21614(4) 0.31707(4) 0.56464(3)
In1_6 In 0.80988(4) 0.26768(4) 0.35199(3)
S1_6 S 0.70392(16) 0.24511(16) 0.37381(11)
S2_6 S 0.87516(16) 0.31284(16) 0.40744(11)
S3_6 S 0.85808(17) 0.17456(16) 0.32781(11)
S4_6 S 0.80405(18) 0.33608(18) 0.29569(13)
In2_4 In 0.71614(4) 0.18293(4) 0.43536(3)
In3_6 In 0.98609(4) 0.33121(4) 0.38360(3)
In4_6 In 0.88055(4) 0.24332(4) 0.46779(3)
In5_6 In 0.96787(5) 0.19584(4) 0.30198(3)
In6_6 In 0.86275(4) 0.10706(4) 0.38799(3)
In7_6 In 0.91454(5) 0.34607(5) 0.27804(3)
S5_4 S 0.60758(16) 0.15227(17) 0.45160(12)
S6_6 S 0.77373(17) 0.2287(2) 0.49145(12)
S7_6 S 0.76016(17) 0.08722(17) 0.41549(13)
S10_6 S 0.98339(18) 0.39731(16) 0.32531(12)
S11_5 S 0.94707(16) 0.28187(16) 0.52120(11)
S12_6 S 0.92961(16) 0.15057(16) 0.44316(10)
S13_6 S 0.9610(2) 0.26188(17) 0.24491(12)
S15_6 S 0.91325(17) 0.01755(16) 0.36554(12)
N1_6 N 0.9069(5) 0.4093(5) 0.2280(3)
C1_6 C 0.8544(9) 0.4242(10) 0.2068(6)
C2_6 C 0.9521(7) 0.4408(7) 0.2114(5)
H1_6 H 0.8137 0.4070 0.2104
C3_6 C 0.8676(8) 0.4668(8) 0.1799(6)
H2_6 H 0.9952 0.4384 0.2200
H3_6 H 0.8384 0.4870 0.1628
N3_4 N 0.9337(5) 0.4752(5) 0.1824(3)
In12_4 In 0.98327(5) 0.55208(4) 0.15710(3)
In1_7 In 0.30988(4) 0.23232(4) 0.64801(3)
S1_7 S 0.20392(16) 0.25489(16) 0.62619(11)
S2_7 S 0.37516(16) 0.18716(16) 0.59256(11)
S3_7 S 0.35808(17) 0.32544(16) 0.67219(11)
S4_7 S 0.30405(18) 0.16392(18) 0.70431(13)
In3_7 In 0.48609(4) 0.16879(4) 0.61640(3)
In4_7 In 0.38055(4) 0.25668(4) 0.53221(3)
In5_7 In 0.46787(5) 0.30416(4) 0.69802(3)
In6_7 In 0.36275(4) 0.39294(4) 0.61201(3)
In7_7 In 0.41454(5) 0.15393(5) 0.72196(3)
S6_7 S 0.27373(17) 0.2713(2) 0.50855(12)
S7_7 S 0.26016(17) 0.41278(17) 0.58451(13)
S8_7 S 0.53383(17) 0.26132(16) 0.64202(11)
S9_7 S 0.54768(18) 0.12508(17) 0.56355(12)
S10_7 S 0.48339(18) 0.10269(16) 0.67469(12)
S11_6 S 0.44707(16) 0.21813(16) 0.47880(11)
S12_7 S 0.42961(16) 0.34943(16) 0.55684(10)
S13_7 S 0.4610(2) 0.23812(17) 0.75509(12)
S14_7 S 0.51729(18) 0.39327(17) 0.72072(11)
S15_7 S 0.41325(17) 0.48245(16) 0.63446(12)
N1_7 N 0.4069(5) 0.0907(5) 0.7720(3)
In8_7 In 0.53927(4) 0.32844(4) 0.58150(3)
In9_7 In 0.55241(4) 0.19864(4) 0.50863(3)
C1_7 C 0.3544(9) 0.0758(10) 0.7932(6)
C2_7 C 0.4521(7) 0.0592(7) 0.7886(5)
S16_7 S 0.60612(17) 0.28757(16) 0.52981(12)
S17_7 S 0.58893(17) 0.41852(17) 0.60336(12)
H1_7 H 0.3137 0.0930 0.7896
C3_7 C 0.3676(8) 0.0332(8) 0.8201(6)
H2_7 H 0.4952 0.0616 0.7800
H3_7 H 0.3384 0.0130 0.8372
S8_8 S 0.96617(17) 0.73868(16) 0.14202(11)
S9_8 S 0.95232(18) 0.87492(17) 0.06355(12)
S14_8 S 0.98271(18) 0.60673(17) 0.22072(11)
In8_8 In 0.96073(4) 0.67156(4) 0.08150(3)
In9_8 In 0.94759(4) 0.80136(4) 0.00863(3)
S16_8 S 0.89388(17) 0.71243(16) 0.02981(12)
S17_8 S 0.91107(17) 0.58148(17) 0.10336(12)
S11_7 S 0.55293(16) 0.71813(16) 0.02120(11)
S18_4 S 0.39242(16) 0.65227(17) 0.04840(12)
In11_4 In 0.28386(4) 0.68293(4) 0.06464(3)
N2_4 N 0.0663(5) 0.9752(5) 0.3176(3)
In1_8 In 0.19012(4) 0.76768(4) 0.14801(3)
S1_8 S 0.29608(16) 0.74511(16) 0.12619(11)
S2_8 S 0.12484(16) 0.81284(16) 0.09256(11)
S3_8 S 0.14192(17) 0.67456(16) 0.17219(11)
S4_8 S 0.19595(18) 0.83608(18) 0.20431(13)
In3_8 In 0.01391(4) 0.83121(4) 0.11640(3)
In4_8 In 0.11945(4) 0.74332(4) 0.03221(3)
In5_8 In 0.03213(5) 0.69584(4) 0.19802(3)
In6_8 In 0.13725(4) 0.60706(4) 0.11201(3)
In7_8 In 0.08546(5) 0.84607(5) 0.22196(3)
S6_8 S 0.22627(17) 0.7287(2) 0.00855(12)
S7_8 S 0.23984(17) 0.58722(17) 0.08451(13)
S10_8 S 0.01661(18) 0.89731(16) 0.17469(12)
S12_8 S 0.07039(16) 0.65057(16) 0.05684(10)
S13_8 S 0.0390(2) 0.76188(17) 0.25509(12)
S15_8 S 0.08675(17) 0.51755(16) 0.13446(12)
N1_8 N 0.0931(5) 0.9093(5) 0.2720(3)
C1_8 C 0.1456(9) 0.9242(10) 0.2932(6)
C2_8 C 0.0479(7) 0.9408(7) 0.2886(5)
H1_8 H 0.1863 0.9070 0.2896
C3_8 C 0.1324(8) 0.9668(8) 0.3201(6)
H2_8 H 0.0048 0.9384 0.2800
H3_8 H 0.1616 0.9870 0.3372
S11_8 S 0.05293(16) 0.78187(16) 0.97880(11)
loop_
_geom_bond_atom_site_label_1
_geom_bond_atom_site_label_2
_geom_bond_site_symmetry_1
_geom_bond_site_symmetry_2
In1 S1 1_555 1_555
S1 In2 1_555 1_555
S2 In1 1_555 1_555
S3 In1 1_555 1_555
S4 In1 1_555 1_555
In2 S5 1_555 1_555
In3 S2 1_555 1_555
In4 S2 1_555 1_555
In5 S3 1_555 1_555
In6 S3 1_555 1_555
In7 S4 1_555 1_555
S6 In2 1_555 1_555
S7 In2 1_555 1_555
S8 In3 1_555 1_555
S9 In3 1_555 1_555
S10 In3 1_555 1_555
S12 In4 1_555 1_555
S13 In5 1_555 1_555
S14 In5 1_555 1_555
S15 In6 1_555 1_555
N1 In7 1_555 1_555
In8 S8 1_555 1_555
In9 S9 1_555 1_555
In10 S14 1_555 1_555
C1 N1 1_555 1_555
C2 N1 1_555 1_555
S16 In8 1_555 1_555
S17 In8 1_555 1_555
H1 C1 1_555 1_555
C3 C1 1_555 1_555
H2 C2 1_555 1_555
H3 C3 1_555 1_555
N3 C2 1_555 1_555
In12 N3 1_555 1_555
In4 S6 1_555 1_555
In5 S8 1_555 1_555
In6 S7 1_555 1_555
In6 S12 1_555 1_555
In7 S10 1_555 1_555
In7 S13 1_555 1_555
S12 In8 1_555 1_555
S15 In10 1_555 1_555
In9 S16 1_555 1_555
In10 S17 1_555 1_555
C3 N3 1_555 1_555
In1_2 S1_2 1_555 1_555
S1_2 In2_2 1_555 1_555
S2_2 In1_2 1_555 1_555
S3_2 In1_2 1_555 1_555
S4_2 In1_2 1_555 1_555
In2_2 S5_2 1_555 1_555
In3_2 S2_2 1_555 1_555
In4_2 S2_2 1_555 1_555
In5_2 S3_2 1_555 1_555
In6_2 S3_2 1_555 1_555
In7_2 S4_2 1_555 1_555
S6_2 In2_2 1_555 1_555
S7_2 In2_2 1_555 1_555
S10_2 In3_2 1_555 1_555
S11 In4_2 1_555 1_555
S12_2 In4_2 1_555 1_555
S13_2 In5_2 1_555 1_555
S15_2 In6_2 1_555 1_555
N1_2 In7_2 1_555 1_555
C1_2 N1_2 1_555 1_555
C2_2 N1_2 1_555 1_555
H1_2 C1_2 1_555 1_555
C3_2 C1_2 1_555 1_555
H2_2 C2_2 1_555 1_555
H3_2 C3_2 1_555 1_555
N3_2 C2_2 1_555 1_555
In12_2 N3_2 1_555 1_555
In4_2 S6_2 1_555 1_555
In6_2 S7_2 1_555 1_555
In6_2 S12_2 1_555 1_555
In7_2 S10_2 1_555 1_555
In7_2 S13_2 1_555 1_555
C3_2 N3_2 1_555 1_555
In8_2 S8_2 1_555 1_555
In9_2 S9_2 1_555 1_555
In10_2 S14_2 1_555 1_555
S16_2 In8_2 1_555 1_555
S17_2 In8_2 1_555 1_555
S18 In9_2 1_555 1_555
In11 S18 1_555 1_555
In9_2 S16_2 1_555 1_555
In10_2 S17_2 1_555 1_555
In1_3 S1_3 1_555 1_555
S1_3 In11 1_555 1_555
S2_3 In1_3 1_555 1_555
S3_3 In1_3 1_555 1_555
S4_3 In1_3 1_555 1_555
In3_3 S2_3 1_555 1_555
In4_3 S2_3 1_555 1_555
In5_3 S3_3 1_555 1_555
In6_3 S3_3 1_555 1_555
In7_3 S4_3 1_555 1_555
S6_3 In11 1_555 1_555
S7_3 In11 1_555 1_555
S8_3 In3_3 1_555 1_555
S9_3 In3_3 1_555 1_555
S10_3 In3_3 1_555 1_555
S11_2 In4_3 1_555 1_555
S12_3 In4_3 1_555 1_555
S13_3 In5_3 1_555 1_555
S14_3 In5_3 1_555 1_555
S15_3 In6_3 1_555 1_555
N1_3 In7_3 1_555 1_555
In8_3 S8_3 1_555 1_555
In9_3 S9_3 1_555 1_555
In12 S14_3 1_555 1_555
C1_3 N1_3 1_555 1_555
C2_3 N1_3 1_555 1_555
S16_3 In8_3 1_555 1_555
S17_3 In8_3 1_555 1_555
H1_3 C1_3 1_555 1_555
C3_3 C1_3 1_555 1_555
H2_3 C2_3 1_555 1_555
H3_3 C3_3 1_555 1_555
S5_2 In9_3 1_555 1_555
N2 C2_3 1_555 1_555
In4_3 S6_3 1_555 1_555
In5_3 S8_3 1_555 1_555
In6_3 S7_3 1_555 1_555
In6_3 S12_3 1_555 1_555
In7_3 S10_3 1_555 1_555
In7_3 S13_3 1_555 1_555
S11_2 In9_3 1_555 1_555
S12_3 In8_3 1_555 1_555
S15_3 In12 1_555 1_555
In9_3 S16_3 1_555 1_555
In12 S17_3 1_555 1_555
C3_3 N2 1_555 1_555
In8_4 S8_4 1_555 1_555
In9_4 S9_4 1_555 1_555
In12_2 S14_4 1_555 1_555
S16_4 In8_4 1_555 1_555
S17_4 In8_4 1_555 1_555
In9_4 S16_4 1_555 1_555
In12_2 S17_4 1_555 1_555
In11_2 S18_2 1_555 1_555
In1_4 S1_4 1_555 1_555
S1_4 In11_2 1_555 1_555
S2_4 In1_4 1_555 1_555
S3_4 In1_4 1_555 1_555
S4_4 In1_4 1_555 1_555
In3_4 S2_4 1_555 1_555
In4_4 S2_4 1_555 1_555
In5_4 S3_4 1_555 1_555
In6_4 S3_4 1_555 1_555
In7_4 S4_4 1_555 1_555
S6_4 In11_2 1_555 1_555
S7_4 In11_2 1_555 1_555
S10_4 In3_4 1_555 1_555
S12_4 In4_4 1_555 1_555
S13_4 In5_4 1_555 1_555
S15_4 In6_4 1_555 1_555
N1_4 In7_4 1_555 1_555
C1_4 N1_4 1_555 1_555
C2_4 N1_4 1_555 1_555
H1_4 C1_4 1_555 1_555
C3_4 C1_4 1_555 1_555
H2_4 C2_4 1_555 1_555
H3_4 C3_4 1_555 1_555
N2_2 C2_4 1_555 1_555
In4_4 S6_4 1_555 1_555
In6_4 S7_4 1_555 1_555
In6_4 S12_4 1_555 1_555
In7_4 S10_4 1_555 1_555
In7_4 S13_4 1_555 1_555
C3_4 N2_2 1_555 1_555
In1_5 S1_5 1_555 1_555
S1_5 In2_3 1_555 1_555
S2_5 In1_5 1_555 1_555
S3_5 In1_5 1_555 1_555
S4_5 In1_5 1_555 1_555
In2_3 S5_3 1_555 1_555
In3_5 S2_5 1_555 1_555
In4_5 S2_5 1_555 1_555
In5_5 S3_5 1_555 1_555
In6_5 S3_5 1_555 1_555
In7_5 S4_5 1_555 1_555
S6_5 In2_3 1_555 1_555
S7_5 In2_3 1_555 1_555
S8_5 In3_5 1_555 1_555
S9_5 In3_5 1_555 1_555
S10_5 In3_5 1_555 1_555
S12_5 In4_5 1_555 1_555
S13_5 In5_5 1_555 1_555
S14_5 In5_5 1_555 1_555
S15_5 In6_5 1_555 1_555
N1_5 In7_5 1_555 1_555
In8_5 S8_5 1_555 1_555
In9_5 S9_5 1_555 1_555
In10_3 S14_5 1_555 1_555
C1_5 N1_5 1_555 1_555
C2_5 N1_5 1_555 1_555
S16_5 In8_5 1_555 1_555
S17_5 In8_5 1_555 1_555
H1_5 C1_5 1_555 1_555
C3_5 C1_5 1_555 1_555
H2_5 C2_5 1_555 1_555
H3_5 C3_5 1_555 1_555
N3_3 C2_5 1_555 1_555
In12_3 N3_3 1_555 1_555
In4_5 S6_5 1_555 1_555
In5_5 S8_5 1_555 1_555
In6_5 S7_5 1_555 1_555
In6_5 S12_5 1_555 1_555
In7_5 S10_5 1_555 1_555
In7_5 S13_5 1_555 1_555
S12_5 In8_5 1_555 1_555
S15_5 In10_3 1_555 1_555
In9_5 S16_5 1_555 1_555
In10_3 S17_5 1_555 1_555
C3_5 N3_3 1_555 1_555
In8_6 S8_6 1_555 1_555
In9_6 S9_6 1_555 1_555
In10_4 S14_6 1_555 1_555
S16_6 In8_6 1_555 1_555
S17_6 In8_6 1_555 1_555
S18_3 In9_6 1_555 1_555
In11_3 S18_3 1_555 1_555
In9_6 S16_6 1_555 1_555
In10_4 S17_6 1_555 1_555
In1_6 S1_6 1_555 1_555
S1_6 In2_4 1_555 1_555
S2_6 In1_6 1_555 1_555
S3_6 In1_6 1_555 1_555
S4_6 In1_6 1_555 1_555
In2_4 S5_4 1_555 1_555
In3_6 S2_6 1_555 1_555
In4_6 S2_6 1_555 1_555
In5_6 S3_6 1_555 1_555
In6_6 S3_6 1_555 1_555
In7_6 S4_6 1_555 1_555
S6_6 In2_4 1_555 1_555
S7_6 In2_4 1_555 1_555
S10_6 In3_6 1_555 1_555
S11_5 In4_6 1_555 1_555
S12_6 In4_6 1_555 1_555
S13_6 In5_6 1_555 1_555
S15_6 In6_6 1_555 1_555
N1_6 In7_6 1_555 1_555
C1_6 N1_6 1_555 1_555
C2_6 N1_6 1_555 1_555
H1_6 C1_6 1_555 1_555
C3_6 C1_6 1_555 1_555
H2_6 C2_6 1_555 1_555
H3_6 C3_6 1_555 1_555
N3_4 C2_6 1_555 1_555
In12_4 N3_4 1_555 1_555
In4_6 S6_6 1_555 1_555
In6_6 S7_6 1_555 1_555
In6_6 S12_6 1_555 1_555
In7_6 S10_6 1_555 1_555
In7_6 S13_6 1_555 1_555
C3_6 N3_4 1_555 1_555
In1_7 S1_7 1_555 1_555
S1_7 In11_3 1_555 1_555
S2_7 In1_7 1_555 1_555
S3_7 In1_7 1_555 1_555
S4_7 In1_7 1_555 1_555
In3_7 S2_7 1_555 1_555
In4_7 S2_7 1_555 1_555
In5_7 S3_7 1_555 1_555
In6_7 S3_7 1_555 1_555
In7_7 S4_7 1_555 1_555
S6_7 In11_3 1_555 1_555
S7_7 In11_3 1_555 1_555
S8_7 In3_7 1_555 1_555
S9_7 In3_7 1_555 1_555
S10_7 In3_7 1_555 1_555
S11_6 In4_7 1_555 1_555
S12_7 In4_7 1_555 1_555
S13_7 In5_7 1_555 1_555
S14_7 In5_7 1_555 1_555
S15_7 In6_7 1_555 1_555
N1_7 In7_7 1_555 1_555
In8_7 S8_7 1_555 1_555
In9_7 S9_7 1_555 1_555
In12_3 S14_7 1_555 1_555
C1_7 N1_7 1_555 1_555
C2_7 N1_7 1_555 1_555
S16_7 In8_7 1_555 1_555
S17_7 In8_7 1_555 1_555
H1_7 C1_7 1_555 1_555
C3_7 C1_7 1_555 1_555
H2_7 C2_7 1_555 1_555
H3_7 C3_7 1_555 1_555
S5_4 In9_7 1_555 1_555
N2_3 C2_7 1_555 1_555
In4_7 S6_7 1_555 1_555
In5_7 S8_7 1_555 1_555
In6_7 S7_7 1_555 1_555
In6_7 S12_7 1_555 1_555
In7_7 S10_7 1_555 1_555
In7_7 S13_7 1_555 1_555
S11_6 In9_7 1_555 1_555
S12_7 In8_7 1_555 1_555
S15_7 In12_3 1_555 1_555
In9_7 S16_7 1_555 1_555
In12_3 S17_7 1_555 1_555
C3_7 N2_3 1_555 1_555
In8_8 S8_8 1_555 1_555
In9_8 S9_8 1_555 1_555
In12_4 S14_8 1_555 1_555
S16_8 In8_8 1_555 1_555
S17_8 In8_8 1_555 1_555
In9_8 S16_8 1_555 1_555
In12_4 S17_8 1_555 1_555
In11_4 S18_4 1_555 1_555
In1_8 S1_8 1_555 1_555
S1_8 In11_4 1_555 1_555
S2_8 In1_8 1_555 1_555
S3_8 In1_8 1_555 1_555
S4_8 In1_8 1_555 1_555
In3_8 S2_8 1_555 1_555
In4_8 S2_8 1_555 1_555
In5_8 S3_8 1_555 1_555
In6_8 S3_8 1_555 1_555
In7_8 S4_8 1_555 1_555
S6_8 In11_4 1_555 1_555
S7_8 In11_4 1_555 1_555
S10_8 In3_8 1_555 1_555
S12_8 In4_8 1_555 1_555
S13_8 In5_8 1_555 1_555
S15_8 In6_8 1_555 1_555
N1_8 In7_8 1_555 1_555
C1_8 N1_8 1_555 1_555
C2_8 N1_8 1_555 1_555
H1_8 C1_8 1_555 1_555
C3_8 C1_8 1_555 1_555
H2_8 C2_8 1_555 1_555
H3_8 C3_8 1_555 1_555
N2_4 C2_8 1_555 1_555
In4_8 S6_8 1_555 1_555
In6_8 S7_8 1_555 1_555
In6_8 S12_8 1_555 1_555
In7_8 S10_8 1_555 1_555
In7_8 S13_8 1_555 1_555
C3_8 N2_4 1_555 1_555

#END
