
###############################################################################
#
# This file contains modified crystal structure data generated from the
# MOF subset of the Cambridge Structural Database (CSD) v543 
# hosted by the Cambridge Crystallographic Data Centre (CCDC).
#
# This work is licensed under the Creative Commons
# Attribution-NonCommercial-ShareAlike 4.0 International License.
# To view a copy of this license, visit
# http://creativecommons.org/licenses/by-nc-sa/4.0/
# or send a letter to
# Creative Commons, PO Box 1866, Mountain View, CA 94042, USA.
#
# CIF created using the CSD Python API on 29 September 2022
# The structure has been converted into the P1 space group
# The structure has a 3D framework
# The original CSD entry IDIWOH01 is in the orthorhombic crystal system
# The framework has been calculated to contain at least 10.0% void space
# The void calculation uses a probe of radius 1.32A, grid spacing 0.4
#
###############################################################################

data_IDIWOH01
_chemical_formula_moiety         '(C32 H16 O16 V4)n'
_symmetry_cell_setting           triclinic
_symmetry_space_group_name_H-M   'P 1'
_symmetry_Int_Tables_number      1
_space_group_name_Hall           'P 1'
loop_
_symmetry_equiv_pos_site_id
_symmetry_equiv_pos_as_xyz
1 x,y,z
_cell_length_a                   6.8249(8)
_cell_length_b                   16.073(2)
_cell_length_c                   13.9951(17)
_cell_angle_alpha                90
_cell_angle_beta                 90
_cell_angle_gamma                90
_cell_volume                     1535.22
loop_
_atom_site_label
_atom_site_type_symbol
_atom_site_fract_x
_atom_site_fract_y
_atom_site_fract_z
V3 V 0.81450(5) 0.7500 0.23612(3)
V4 V 0.31450(5) 0.7500 0.26388(3)
O4 O 0.69280(17) 0.66255(8) 0.15438(10)
O7 O 0.36591(18) 0.66230(8) 0.16790(9)
C5 C 0.5251(2) 0.63564(11) 0.13416(12)
C6 C 0.5123(3) 0.56517(12) 0.06478(14)
C7 C 0.3324(3) 0.53271(15) 0.03975(18)
H3 H 0.2189 0.5547 0.0664
C8 C 0.6803(3) 0.53206(15) 0.02454(18)
H4 H 0.8023 0.5536 0.0409
V1 V 0.18550(5) 0.2500 0.76388(3)
O1 O 0.30720(17) 0.33745(8) 0.84562(10)
O2 O 0.4687(2) 0.2500 0.69049(11)
O3 O 0.63409(18) 0.33770(8) 0.83210(9)
C1 C 0.4749(2) 0.36436(11) 0.86584(12)
C2 C 0.4877(3) 0.43483(12) 0.93522(14)
C3 C 0.6676(3) 0.46729(15) 0.96025(18)
H1 H 0.7811 0.4453 0.9336
C4 C 0.3197(3) 0.46794(15) 0.97546(18)
H2 H 0.1977 0.4464 0.9591
V2 V 0.68550(5) 0.2500 0.73612(3)
O5 O 0.30720(17) 0.16255(8) 0.84562(10)
O8 O 0.13409(18) 0.33770(8) 0.66790(9)
O9 O 0.13409(18) 0.16230(8) 0.66790(9)
O6 O 0.9687(2) 0.2500 0.80951(11)
O1_2 O 0.19280(17) 0.66255(8) 0.34562(10)
O2_2 O 0.0313(2) 0.7500 0.19049(11)
C1_2 C 0.0251(2) 0.63564(11) 0.36584(12)
C2_2 C 0.0123(3) 0.56517(12) 0.43522(14)
C4_2 C 0.1803(3) 0.53206(15) 0.47546(18)
H2_2 H 0.3023 0.5536 0.4591
O5_2 O 0.19280(17) 0.83745(8) 0.34562(10)
O6_2 O 0.5313(2) 0.7500 0.30951(11)
O9_2 O 0.36591(18) 0.83770(8) 0.16790(9)
C7_2 C 0.1676(3) 0.46729(15) 0.53975(18)
H3_2 H 0.2811 0.4453 0.5664
O3_2 O 0.86591(18) 0.66230(8) 0.33210(9)
C3_2 C 0.8324(3) 0.53271(15) 0.46025(18)
H1_2 H 0.7189 0.5547 0.4336
O4_2 O 0.80720(17) 0.33745(8) 0.65438(10)
C5_2 C 0.9749(2) 0.36436(11) 0.63416(12)
C6_2 C 0.9877(3) 0.43483(12) 0.56478(14)
C8_2 C 0.8197(3) 0.46794(15) 0.52454(18)
H4_2 H 0.6977 0.4464 0.5409
O7_2 O 0.63409(18) 0.16230(8) 0.83210(9)
C5_3 C 0.4749(2) 0.13564(11) 0.86584(12)
C6_3 C 0.4877(3) 0.06517(12) 0.93522(14)
C7_3 C 0.6676(3) 0.03271(15) 0.96025(18)
H3_3 H 0.7811 0.0547 0.9336
C8_3 C 0.3197(3) 0.03206(15) 0.97546(18)
H4_3 H 0.1977 0.0536 0.9591
O1_3 O 0.69280(17) 0.83745(8) 0.15438(10)
C1_3 C 0.5251(2) 0.86436(11) 0.13416(12)
C2_3 C 0.5123(3) 0.93483(12) 0.06478(14)
C3_3 C 0.3324(3) 0.96729(15) 0.03975(18)
H1_3 H 0.2189 0.9453 0.0664
C4_3 C 0.6803(3) 0.96794(15) 0.02454(18)
H2_3 H 0.8023 0.9464 0.0409
O8_2 O 0.86591(18) 0.83770(8) 0.33210(9)
C3_4 C 0.1676(3) 0.03271(15) 0.53975(18)
H1_4 H 0.2811 0.0547 0.5664
C5_4 C 0.0251(2) 0.86436(11) 0.36584(12)
C6_4 C 0.0123(3) 0.93483(12) 0.43522(14)
C8_4 C 0.1803(3) 0.96794(15) 0.47546(18)
H4_4 H 0.3023 0.9464 0.4591
O1_4 O 0.80720(17) 0.16255(8) 0.65438(10)
C1_4 C 0.9749(2) 0.13564(11) 0.63416(12)
C2_4 C 0.9877(3) 0.06517(12) 0.56478(14)
C4_4 C 0.8197(3) 0.03206(15) 0.52454(18)
H2_4 H 0.6977 0.0536 0.5409
C7_4 C 0.8324(3) 0.96729(15) 0.46025(18)
H3_4 H 0.7189 0.9453 0.4336
loop_
_geom_bond_atom_site_label_1
_geom_bond_atom_site_label_2
_geom_bond_site_symmetry_1
_geom_bond_site_symmetry_2
V3 O4 1_555 1_555
V4 O7 1_555 1_555
O4 C5 1_555 1_555
O7 C5 1_555 1_555
C5 C6 1_555 1_555
C6 C7 1_555 1_555
H3 C7 1_555 1_555
H4 C8 1_555 1_555
C6 C8 1_555 1_555
V1 O1 1_555 1_555
O1 C1 1_555 1_555
O2 V1 1_555 1_555
O3 C1 1_555 1_555
C1 C2 1_555 1_555
C2 C3 1_555 1_555
C3 H1 1_555 1_555
C4 C2 1_555 1_555
H2 C4 1_555 1_555
V2 O2 1_555 1_555
O5 V1 1_555 1_555
O8 V1 1_555 1_555
O9 V1 1_555 1_555
O3 V2 1_555 1_555
V4 O1_2 1_555 1_555
O1_2 C1_2 1_555 1_555
O2_2 V4 1_555 1_555
C1_2 C2_2 1_555 1_555
C4_2 C2_2 1_555 1_555
H2_2 C4_2 1_555 1_555
O5_2 V4 1_555 1_555
O6_2 V4 1_555 1_555
O9_2 V4 1_555 1_555
C7_2 C4_2 1_555 1_555
H3_2 C7_2 1_555 1_555
C3_2 H1_2 1_555 1_555
V2 O4_2 1_555 1_555
O4_2 C5_2 1_555 1_555
C5_2 C6_2 1_555 1_555
C8_2 C3_2 1_555 1_555
H4_2 C8_2 1_555 1_555
O3_2 V3 1_555 1_555
C6_2 C8_2 1_555 1_555
V2 O7_2 1_555 1_555
O5 C5_3 1_555 1_555
O7_2 C5_3 1_555 1_555
C5_3 C6_3 1_555 1_555
C6_3 C7_3 1_555 1_555
H3_3 C7_3 1_555 1_555
H4_3 C8_3 1_555 1_555
C6_3 C8_3 1_555 1_555
V3 O1_3 1_555 1_555
O1_3 C1_3 1_555 1_555
O6_2 V3 1_555 1_555
O9_2 C1_3 1_555 1_555
C1_3 C2_3 1_555 1_555
C2_3 C3_3 1_555 1_555
C3_3 H1_3 1_555 1_555
C4_3 C2_3 1_555 1_555
H2_3 C4_3 1_555 1_555
O8_2 V3 1_555 1_555
C3_4 H1_4 1_555 1_555
O5_2 C5_4 1_555 1_555
C5_4 C6_4 1_555 1_555
H4_4 C8_4 1_555 1_555
C6_4 C8_4 1_555 1_555
V2 O1_4 1_555 1_555
O1_4 C1_4 1_555 1_555
O6 V2 1_555 1_555
C1_4 C2_4 1_555 1_555
C4_4 C2_4 1_555 1_555
H2_4 C4_4 1_555 1_555
H3_4 C7_4 1_555 1_555

#END
