
###############################################################################
#
# This file contains modified crystal structure data generated from the
# MOF subset of the Cambridge Structural Database (CSD) v543 
# hosted by the Cambridge Crystallographic Data Centre (CCDC).
#
# This work is licensed under the Creative Commons
# Attribution-NonCommercial-ShareAlike 4.0 International License.
# To view a copy of this license, visit
# http://creativecommons.org/licenses/by-nc-sa/4.0/
# or send a letter to
# Creative Commons, PO Box 1866, Mountain View, CA 94042, USA.
#
# CIF created using the CSD Python API on 29 September 2022
# The structure has been converted into the P1 space group
# The structure has a 3D framework
# The original CSD entry IDIWOH06 is in the triclinic crystal system
# The original CSD entry IDIWOH06 is in a Sohncke space group
# The framework has been calculated to contain at least 10.0% void space
# The void calculation uses a probe of radius 1.32A, grid spacing 0.4
#
###############################################################################

data_IDIWOH06
_chemical_formula_moiety         '(C34 H16 O18 V4)n'
_symmetry_cell_setting           triclinic
_symmetry_space_group_name_H-M   'P 1'
_symmetry_Int_Tables_number      1
_space_group_name_Hall           'P 1'
loop_
_symmetry_equiv_pos_site_id
_symmetry_equiv_pos_as_xyz
1 x,y,z
_cell_length_a                   16.23054
_cell_length_b                   13.97504
_cell_length_c                   6.85427
_cell_angle_alpha                89.99999
_cell_angle_beta                 90.08054
_cell_angle_gamma                89.99999
_cell_volume                     1554.7
loop_
_atom_site_label
_atom_site_type_symbol
_atom_site_fract_x
_atom_site_fract_y
_atom_site_fract_z
_atom_site_U_iso_or_equiv
_atom_site_thermal_displace_type
O16 O 0.162799 0.163090 0.163535 0.0127 Uiso
C16 C 0.035261 0.027673 0.180531 0.0127 Uiso
C19 C 0.064793 0.064453 0.003266 0.0127 Uiso
C20 C 0.134840 0.132987 -0.000144 0.0127 Uiso
H16 H 0.064745 0.049933 0.316021 0.0127 Uiso
V11 V 0.248954 0.260761 0.218594 0.0127 Uiso
O2 O 0.162061 0.157342 0.832265 0.0127 Uiso
C2 C 0.027918 0.036594 0.826715 0.0127 Uiso
C20_2 C 0.134840 0.132987 0.999856 0.0127 Uiso
H2 H 0.051533 0.066011 0.690715 0.0127 Uiso
V14 V 0.248954 0.239195 0.718594 0.0127 Uiso
O5 O 0.162798 0.336865 0.663534 0.0127 Uiso
O11 O 0.162060 0.342613 0.332265 0.0127 Uiso
C5 C 0.035260 0.472281 0.680531 0.0127 Uiso
C11 C 0.027915 0.463358 0.326715 0.0127 Uiso
C25 C 0.064791 0.435500 0.503266 0.0127 Uiso
C26 C 0.134839 0.366967 0.499855 0.0127 Uiso
H5 H 0.064743 0.450022 0.816021 0.0127 Uiso
H11 H 0.051530 0.433940 0.190715 0.0127 Uiso
V6 V 0.748954 0.739195 0.218594 0.0127 Uiso
V2 V 0.748955 0.760761 0.718594 0.0127 Uiso
O1 O 0.662059 0.657344 0.332265 0.0127 Uiso
O3 O 0.837361 0.665532 0.665668 0.0127 Uiso
O4 O 0.337362 0.165534 0.165668 0.0127 Uiso
O7 O 0.333590 0.344842 0.335023 0.0127 Uiso
O9 O 0.337361 0.334423 0.665668 0.0127 Uiso
O10 O 0.837362 0.834421 0.165668 0.0127 Uiso
O13 O 0.833589 0.655113 0.335023 0.0127 Uiso
O15 O 0.662797 0.663092 0.663534 0.0127 Uiso
O17 O 0.748824 0.695645 0.994226 0.0127 Uiso
O18 O 0.248825 0.195645 0.494226 0.0127 Uiso
O19 O 0.248824 0.304311 0.994226 0.0127 Uiso
O20 O 0.748825 0.804311 0.494225 0.0127 Uiso
C1 C 0.527915 0.536598 0.326715 0.0127 Uiso
C3 C 0.969779 0.536502 0.681048 0.0127 Uiso
C4 C 0.469779 0.036503 0.181047 0.0127 Uiso
C7 C 0.462324 0.472906 0.327307 0.0127 Uiso
C9 C 0.469779 0.463453 0.681047 0.0127 Uiso
C10 C 0.969781 0.963451 0.181047 0.0127 Uiso
C13 C 0.962324 0.527050 0.327307 0.0127 Uiso
C15 C 0.535260 0.527675 0.680531 0.0127 Uiso
C17 C 0.564791 0.564456 0.503266 0.0127 Uiso
C18 C 0.634838 0.632989 0.499856 0.0127 Uiso
C21 C 0.932906 0.564194 0.504395 0.0127 Uiso
C22 C 0.863037 0.632989 0.502004 0.0127 Uiso
C23 C 0.432908 0.064198 0.004394 0.0127 Uiso
C24 C 0.363039 0.132992 0.002004 0.0127 Uiso
C29 C 0.432907 0.435761 0.504395 0.0127 Uiso
C30 C 0.363038 0.366966 0.502004 0.0127 Uiso
C31 C 0.932909 0.935758 0.004395 0.0127 Uiso
C32 C 0.863040 0.866963 0.002004 0.0127 Uiso
H1 H 0.551529 0.566016 0.190715 0.0127 Uiso
H3 H 0.946283 0.566207 0.816979 0.0127 Uiso
H4 H 0.446281 0.066205 0.316979 0.0127 Uiso
H7 H 0.432763 0.450906 0.191817 0.0127 Uiso
H9 H 0.446284 0.433748 0.816979 0.0127 Uiso
H10 H 0.946285 0.933747 0.316979 0.0127 Uiso
H13 H 0.932762 0.549049 0.191817 0.0127 Uiso
H15 H 0.564744 0.549934 0.816021 0.0127 Uiso
O23 O 0.662799 0.836867 0.163534 0.0127 Uiso
O24 O 0.833592 0.844840 0.835023 0.0127 Uiso
O26 O 0.662062 0.842615 0.832265 0.0127 Uiso
O27 O 0.333591 0.155115 0.835023 0.0127 Uiso
C8 C 0.962327 0.972901 0.827307 0.0127 Uiso
C14 C 0.462328 0.027056 0.827306 0.0127 Uiso
H8 H 0.932766 0.950901 0.691816 0.0127 Uiso
H14 H 0.432769 0.049058 0.691815 0.0127 Uiso
C6 C 0.535260 0.972281 0.180530 0.0127 Uiso
C27 C 0.564793 0.935503 0.003265 0.0127 Uiso
C28 C 0.634841 0.866970 -0.000145 0.0127 Uiso
H6 H 0.564742 0.950019 0.316021 0.0127 Uiso
C12 C 0.527920 0.963365 0.826714 0.0127 Uiso
C28_2 C 0.634841 0.866970 0.999855 0.0127 Uiso
H12 H 0.551536 0.933949 0.690713 0.0127 Uiso
loop_
_geom_bond_atom_site_label_1
_geom_bond_atom_site_label_2
_geom_bond_site_symmetry_1
_geom_bond_site_symmetry_2
O16 C20 1_555 1_555
C16 C19 1_555 1_555
C20 C19 1_555 1_555
H16 C16 1_555 1_555
V11 O16 1_555 1_555
O2 C20_2 1_555 1_555
H2 C2 1_555 1_555
V14 O2 1_555 1_555
O5 C26 1_555 1_555
O11 C26 1_555 1_555
C5 C25 1_555 1_555
C25 C11 1_555 1_555
C26 C25 1_555 1_555
H5 C5 1_555 1_555
H11 C11 1_555 1_555
V11 O11 1_555 1_555
V14 O5 1_555 1_555
V6 O1 1_555 1_555
V2 O3 1_555 1_555
V11 O4 1_555 1_555
V14 O9 1_555 1_555
O1 C18 1_555 1_555
O3 C22 1_555 1_555
O4 C24 1_555 1_555
O7 V11 1_555 1_555
O9 C30 1_555 1_555
O10 V6 1_555 1_555
O13 V6 1_555 1_555
O15 V2 1_555 1_555
O17 V2 1_555 1_555
O18 V11 1_555 1_555
O19 V14 1_555 1_555
O20 V6 1_555 1_555
C1 C7 1_555 1_555
C7 C29 1_555 1_555
C9 C15 1_555 1_555
C13 C21 1_555 1_555
C15 C17 1_555 1_555
C17 C1 1_555 1_555
C18 O15 1_555 1_555
C21 C3 1_555 1_555
C22 O13 1_555 1_555
C23 C4 1_555 1_555
C24 C23 1_555 1_555
C29 C9 1_555 1_555
C30 O7 1_555 1_555
C31 C10 1_555 1_555
C32 O10 1_555 1_555
H1 C1 1_555 1_555
H3 C3 1_555 1_555
H4 C4 1_555 1_555
H7 C7 1_555 1_555
H9 C9 1_555 1_555
H10 C10 1_555 1_555
H13 C13 1_555 1_555
H15 C15 1_555 1_555
O23 V6 1_555 1_555
O24 V2 1_555 1_555
O26 V2 1_555 1_555
O27 V14 1_555 1_555
V2 O20 1_555 1_555
V14 O18 1_555 1_555
C17 C18 1_555 1_555
C21 C22 1_555 1_555
C29 C30 1_555 1_555
C31 C32 1_555 1_555
H8 C8 1_555 1_555
H14 C14 1_555 1_555
O23 C28 1_555 1_555
C6 C27 1_555 1_555
C28 C27 1_555 1_555
H6 C6 1_555 1_555
O26 C28_2 1_555 1_555
H12 C12 1_555 1_555

#END
