
###############################################################################
#
# This file contains modified crystal structure data generated from the
# MOF subset of the Cambridge Structural Database (CSD) v543 
# hosted by the Cambridge Crystallographic Data Centre (CCDC).
#
# This work is licensed under the Creative Commons
# Attribution-NonCommercial-ShareAlike 4.0 International License.
# To view a copy of this license, visit
# http://creativecommons.org/licenses/by-nc-sa/4.0/
# or send a letter to
# Creative Commons, PO Box 1866, Mountain View, CA 94042, USA.
#
# CIF created using the CSD Python API on 29 September 2022
# The structure has been converted into the P1 space group
# The structure has a 3D framework
# The original CSD entry IDIWOH is in the orthorhombic crystal system
# The framework has been calculated to contain at least 10.0% void space
# The void calculation uses a probe of radius 1.32A, grid spacing 0.4
#
###############################################################################

data_IDIWOH
_chemical_formula_moiety         '(C32 H16 O16 V4)n'
_symmetry_cell_setting           triclinic
_symmetry_space_group_name_H-M   'P 1'
_symmetry_Int_Tables_number      1
_space_group_name_Hall           'P 1'
loop_
_symmetry_equiv_pos_site_id
_symmetry_equiv_pos_as_xyz
1 x,y,z
_cell_length_a                   6.8179(12)
_cell_length_b                   16.143(3)
_cell_length_c                   13.939(2)
_cell_angle_alpha                90
_cell_angle_beta                 90
_cell_angle_gamma                90
_cell_volume                     1534.15
loop_
_atom_site_label
_atom_site_type_symbol
_atom_site_fract_x
_atom_site_fract_y
_atom_site_fract_z
V1 V 0.2002(2) 0.2500 0.73916(13)
O1 O 0.4751(8) 0.2500 0.8084(4)
O2 O 0.3118(7) 0.1632(3) 0.6555(3)
O3 O 0.6415(6) 0.1626(3) 0.6665(3)
C1 C 0.3225(11) 0.0329(5) 0.5261(6)
H1 H 0.2015 0.0554 0.5425
C2 C 0.6675(11) 0.0323(5) 0.5369(6)
H2 H 0.7830 0.0548 0.5611
C3 C 0.4911(10) 0.0649(4) 0.5650(5)
C4 C 0.4781(12) 0.1366(4) 0.6333(5)
O7 O 0.3118(7) 0.3368(3) 0.6555(3)
O8 O 0.1415(6) 0.1626(3) 0.8335(3)
O9 O 0.1415(6) 0.3374(3) 0.8335(3)
V2 V 0.7002(2) 0.2500 0.76084(13)
C5 C 0.3325(11) 0.9677(5) 0.4631(6)
H3 H 0.2170 0.9452 0.4389
C6 C 0.5089(10) 0.9351(4) 0.4350(5)
C7 C 0.6775(11) 0.9671(5) 0.4739(6)
H4 H 0.7985 0.9446 0.4575
C8 C 0.5219(12) 0.8634(4) 0.3667(5)
O4 O 0.6882(7) 0.8368(3) 0.3445(3)
O5 O 0.3585(6) 0.8374(3) 0.3335(3)
V3 V 0.7998(2) 0.7500 0.26084(13)
V4 V 0.2998(2) 0.7500 0.23916(13)
O6 O 0.9751(8) 0.2500 0.6916(4)
C5_2 C 0.1675(11) 0.0323(5) 0.9631(6)
H3_2 H 0.2830 0.0548 0.9389
O1_2 O 0.0249(8) 0.7500 0.3084(4)
O2_2 O 0.1882(7) 0.8368(3) 0.1555(3)
C1_2 C 0.1775(11) 0.9671(5) 0.0261(6)
H1_2 H 0.2985 0.9446 0.0425
C3_2 C 0.0089(10) 0.9351(4) 0.0650(5)
C4_2 C 0.0219(12) 0.8634(4) 0.1333(5)
O6_2 O 0.5249(8) 0.7500 0.1916(4)
O7_2 O 0.1882(7) 0.6632(3) 0.1555(3)
O9_2 O 0.3585(6) 0.6626(3) 0.3335(3)
C6_2 C 0.9911(10) 0.0649(4) 0.9350(5)
C7_2 C 0.8225(11) 0.0329(5) 0.9739(6)
H4_2 H 0.7015 0.0554 0.9575
C8_2 C 0.9781(12) 0.1366(4) 0.8667(5)
O4_2 O 0.8118(7) 0.1632(3) 0.8445(3)
O3_2 O 0.8585(6) 0.8374(3) 0.1665(3)
C2_2 C 0.8325(11) 0.9677(5) 0.0369(6)
H2_2 H 0.7170 0.9452 0.0611
O2_3 O 0.6882(7) 0.6632(3) 0.3445(3)
C1_3 C 0.6775(11) 0.5329(5) 0.4739(6)
H1_3 H 0.7985 0.5554 0.4575
C2_3 C 0.3325(11) 0.5323(5) 0.4631(6)
H2_3 H 0.2170 0.5548 0.4389
C3_3 C 0.5089(10) 0.5649(4) 0.4350(5)
C4_3 C 0.5219(12) 0.6366(4) 0.3667(5)
C5_3 C 0.6675(11) 0.4677(5) 0.5369(6)
H3_3 H 0.7830 0.4452 0.5611
C6_3 C 0.4911(10) 0.4351(4) 0.5650(5)
C7_3 C 0.3225(11) 0.4671(5) 0.5261(6)
H4_3 H 0.2015 0.4446 0.5425
C8_3 C 0.4781(12) 0.3634(4) 0.6333(5)
O5_2 O 0.6415(6) 0.3374(3) 0.6665(3)
O8_2 O 0.8585(6) 0.6626(3) 0.1665(3)
C6_4 C 0.0089(10) 0.5649(4) 0.0650(5)
C7_4 C 0.1775(11) 0.5329(5) 0.0261(6)
H4_4 H 0.2985 0.5554 0.0425
C8_4 C 0.0219(12) 0.6366(4) 0.1333(5)
C2_4 C 0.1675(11) 0.4677(5) 0.9631(6)
H2_4 H 0.2830 0.4452 0.9389
C5_4 C 0.8325(11) 0.5323(5) 0.0369(6)
H3_4 H 0.7170 0.5548 0.0611
O2_4 O 0.8118(7) 0.3368(3) 0.8445(3)
C1_4 C 0.8225(11) 0.4671(5) 0.9739(6)
H1_4 H 0.7015 0.4446 0.9575
C3_4 C 0.9911(10) 0.4351(4) 0.9350(5)
C4_4 C 0.9781(12) 0.3634(4) 0.8667(5)
loop_
_geom_bond_atom_site_label_1
_geom_bond_atom_site_label_2
_geom_bond_site_symmetry_1
_geom_bond_site_symmetry_2
V1 O1 1_555 1_555
O1 V2 1_555 1_555
O2 V1 1_555 1_555
O3 C4 1_555 1_555
C1 H1 1_555 1_555
C2 H2 1_555 1_555
C3 C1 1_555 1_555
C4 O2 1_555 1_555
O7 V1 1_555 1_555
O8 V1 1_555 1_555
O9 V1 1_555 1_555
V2 O3 1_555 1_555
C2 C3 1_555 1_555
C3 C4 1_555 1_555
H3 C5 1_555 1_555
C6 C5 1_555 1_555
H4 C7 1_555 1_555
C8 C6 1_555 1_555
O4 C8 1_555 1_555
O5 C8 1_555 1_555
V3 O4 1_555 1_555
V4 O5 1_555 1_555
C6 C7 1_555 1_555
H3_2 C5_2 1_555 1_555
V4 O1_2 1_555 1_555
O2_2 V4 1_555 1_555
C1_2 H1_2 1_555 1_555
C3_2 C1_2 1_555 1_555
C4_2 O2_2 1_555 1_555
O6_2 V4 1_555 1_555
O7_2 V4 1_555 1_555
O9_2 V4 1_555 1_555
C3_2 C4_2 1_555 1_555
H4_2 C7_2 1_555 1_555
C8_2 C6_2 1_555 1_555
O4_2 C8_2 1_555 1_555
V2 O4_2 1_555 1_555
C6_2 C7_2 1_555 1_555
C2_2 H2_2 1_555 1_555
V3 O3_2 1_555 1_555
V3 O6_2 1_555 1_555
O2_3 V3 1_555 1_555
O9_2 C4_3 1_555 1_555
C1_3 H1_3 1_555 1_555
C2_3 H2_3 1_555 1_555
C3_3 C1_3 1_555 1_555
C4_3 O2_3 1_555 1_555
C5_3 C1_3 1_555 1_555
H3_3 C5_3 1_555 1_555
C6_3 C5_3 1_555 1_555
C7_3 C2_3 1_555 1_555
H4_3 C7_3 1_555 1_555
C8_3 C6_3 1_555 1_555
O7 C8_3 1_555 1_555
O5_2 C8_3 1_555 1_555
O8_2 V3 1_555 1_555
V2 O5_2 1_555 1_555
C2_3 C3_3 1_555 1_555
C3_3 C4_3 1_555 1_555
C6_3 C7_3 1_555 1_555
H4_4 C7_4 1_555 1_555
C8_4 C6_4 1_555 1_555
O7_2 C8_4 1_555 1_555
C6_4 C7_4 1_555 1_555
C2_4 H2_4 1_555 1_555
H3_4 C5_4 1_555 1_555
V2 O6 1_555 1_555
O2_4 V2 1_555 1_555
C1_4 H1_4 1_555 1_555
C3_4 C1_4 1_555 1_555
C4_4 O2_4 1_555 1_555
C3_4 C4_4 1_555 1_555

#END
