
###############################################################################
#
# This file contains modified crystal structure data generated from the
# MOF subset of the Cambridge Structural Database (CSD) v543 
# hosted by the Cambridge Crystallographic Data Centre (CCDC).
#
# This work is licensed under the Creative Commons
# Attribution-NonCommercial-ShareAlike 4.0 International License.
# To view a copy of this license, visit
# http://creativecommons.org/licenses/by-nc-sa/4.0/
# or send a letter to
# Creative Commons, PO Box 1866, Mountain View, CA 94042, USA.
#
# CIF created using the CSD Python API on 29 September 2022
# The structure has been converted into the P1 space group
# The structure has a 3D framework
# The original CSD entry IDIWOH04 is in the triclinic crystal system
# The original CSD entry IDIWOH04 is in a Sohncke space group
# The framework has been calculated to contain at least 10.0% void space
# The void calculation uses a probe of radius 1.32A, grid spacing 0.4
#
###############################################################################

data_IDIWOH04
_chemical_formula_moiety         '(C32 H16 O16 V4)n'
_symmetry_cell_setting           triclinic
_symmetry_space_group_name_H-M   'P 1'
_symmetry_Int_Tables_number      1
_space_group_name_Hall           'P 1'
loop_
_symmetry_equiv_pos_site_id
_symmetry_equiv_pos_as_xyz
1 x,y,z
_cell_length_a                   16.35110
_cell_length_b                   13.90337
_cell_length_c                   6.84990
_cell_angle_alpha                90.00001
_cell_angle_beta                 90.10788
_cell_angle_gamma                90
_cell_volume                     1557.22
loop_
_atom_site_label
_atom_site_type_symbol
_atom_site_fract_x
_atom_site_fract_y
_atom_site_fract_z
_atom_site_U_iso_or_equiv
_atom_site_thermal_displace_type
O16 O 0.162742 0.162221 0.163367 0.0127 Uiso
C16 C 0.035227 0.027568 0.180621 0.0127 Uiso
C19 C 0.064801 0.064019 0.003118 0.0127 Uiso
H16 H 0.064664 0.049853 0.316082 0.0127 Uiso
V11 V 0.248949 0.261072 0.218516 0.0127 Uiso
O2 O 0.161814 0.156412 0.831683 0.0127 Uiso
C2 C 0.028031 0.036210 0.826525 0.0127 Uiso
C20 C 0.134878 0.132376 0.999576 0.0127 Uiso
H2 H 0.051770 0.065357 0.690388 0.0127 Uiso
V14 V 0.248949 0.238884 0.718515 0.0127 Uiso
O5 O 0.162740 0.337734 0.663367 0.0127 Uiso
O11 O 0.161812 0.343542 0.331683 0.0127 Uiso
C5 C 0.035227 0.472388 0.680620 0.0127 Uiso
C11 C 0.028024 0.463736 0.326527 0.0127 Uiso
C25 C 0.064798 0.435933 0.503118 0.0127 Uiso
C26 C 0.134876 0.367577 0.499576 0.0127 Uiso
H5 H 0.064667 0.450108 0.816080 0.0127 Uiso
H11 H 0.051760 0.434584 0.190390 0.0127 Uiso
V6 V 0.748949 0.738884 0.218514 0.0127 Uiso
V2 V 0.748949 0.761073 0.718514 0.0127 Uiso
O1 O 0.661812 0.656414 0.331681 0.0127 Uiso
O3 O 0.838154 0.665542 0.666276 0.0127 Uiso
O4 O 0.338156 0.165543 0.166278 0.0127 Uiso
O7 O 0.332905 0.346760 0.335587 0.0127 Uiso
O9 O 0.338154 0.334415 0.666277 0.0127 Uiso
O10 O 0.838156 0.834412 0.166276 0.0127 Uiso
O13 O 0.832905 0.653196 0.335585 0.0127 Uiso
O15 O 0.662740 0.662224 0.663366 0.0127 Uiso
O17 O 0.748881 0.695777 0.993098 0.0127 Uiso
O18 O 0.248882 0.195777 0.493100 0.0127 Uiso
O19 O 0.248881 0.304179 0.993101 0.0127 Uiso
O20 O 0.748882 0.804179 0.493099 0.0127 Uiso
C1 C 0.528028 0.536214 0.326525 0.0127 Uiso
C3 C 0.969735 0.536275 0.681339 0.0127 Uiso
C4 C 0.469732 0.036270 0.181341 0.0127 Uiso
C7 C 0.462382 0.472927 0.327329 0.0127 Uiso
C9 C 0.469733 0.463685 0.681340 0.0127 Uiso
C10 C 0.969735 0.963681 0.181340 0.0127 Uiso
C13 C 0.962377 0.527023 0.327330 0.0127 Uiso
C15 C 0.535224 0.527572 0.680620 0.0127 Uiso
C17 C 0.564799 0.564022 0.503117 0.0127 Uiso
C18 C 0.634876 0.632379 0.499575 0.0127 Uiso
C21 C 0.932923 0.563853 0.504653 0.0127 Uiso
C22 C 0.862952 0.632380 0.502529 0.0127 Uiso
C23 C 0.432926 0.063858 0.004654 0.0127 Uiso
C24 C 0.362955 0.132383 0.002529 0.0127 Uiso
C29 C 0.432924 0.436102 0.504654 0.0127 Uiso
C30 C 0.362953 0.367576 0.502529 0.0127 Uiso
C31 C 0.932927 0.936098 0.004653 0.0127 Uiso
C32 C 0.862955 0.867573 0.002527 0.0127 Uiso
H1 H 0.551767 0.565361 0.190387 0.0127 Uiso
H3 H 0.946144 0.565762 0.817398 0.0127 Uiso
H4 H 0.446135 0.065749 0.317402 0.0127 Uiso
H7 H 0.432830 0.450965 0.191877 0.0127 Uiso
H9 H 0.446139 0.434202 0.817401 0.0127 Uiso
H10 H 0.946141 0.934198 0.317400 0.0127 Uiso
H13 H 0.932823 0.548980 0.191878 0.0127 Uiso
H15 H 0.564662 0.549857 0.816081 0.0127 Uiso
O23 O 0.662742 0.837735 0.163366 0.0127 Uiso
O24 O 0.832907 0.846758 0.835585 0.0127 Uiso
O26 O 0.661814 0.843545 0.831681 0.0127 Uiso
O27 O 0.332907 0.153200 0.835587 0.0127 Uiso
C8 C 0.962385 0.972923 0.827329 0.0127 Uiso
C14 C 0.462387 0.027037 0.827328 0.0127 Uiso
H8 H 0.932834 0.950961 0.691876 0.0127 Uiso
H14 H 0.432838 0.049003 0.691875 0.0127 Uiso
C6 C 0.535224 0.972383 0.180621 0.0127 Uiso
C27 C 0.564801 0.935938 0.003117 0.0127 Uiso
H6 H 0.564659 0.950095 0.316082 0.0127 Uiso
C12 C 0.528034 0.963751 0.826524 0.0127 Uiso
C28 C 0.634878 0.867581 0.999574 0.0127 Uiso
H12 H 0.551775 0.934607 0.690386 0.0127 Uiso
loop_
_geom_bond_atom_site_label_1
_geom_bond_atom_site_label_2
_geom_bond_site_symmetry_1
_geom_bond_site_symmetry_2
C16 C19 1_555 1_555
H16 C16 1_555 1_555
V11 O16 1_555 1_555
O2 C20 1_555 1_555
H2 C2 1_555 1_555
V14 O2 1_555 1_555
O5 C26 1_555 1_555
O11 C26 1_555 1_555
C5 C25 1_555 1_555
C25 C11 1_555 1_555
C26 C25 1_555 1_555
H5 C5 1_555 1_555
H11 C11 1_555 1_555
V11 O11 1_555 1_555
V14 O5 1_555 1_555
V6 O1 1_555 1_555
V2 O3 1_555 1_555
V11 O4 1_555 1_555
V14 O9 1_555 1_555
O1 C18 1_555 1_555
O3 C22 1_555 1_555
O4 C24 1_555 1_555
O7 V11 1_555 1_555
O9 C30 1_555 1_555
O10 V6 1_555 1_555
O13 V6 1_555 1_555
O15 V2 1_555 1_555
O17 V2 1_555 1_555
O18 V11 1_555 1_555
O19 V14 1_555 1_555
O20 V6 1_555 1_555
C1 C7 1_555 1_555
C7 C29 1_555 1_555
C9 C15 1_555 1_555
C13 C21 1_555 1_555
C15 C17 1_555 1_555
C17 C1 1_555 1_555
C18 O15 1_555 1_555
C21 C3 1_555 1_555
C22 O13 1_555 1_555
C23 C4 1_555 1_555
C24 C23 1_555 1_555
C29 C9 1_555 1_555
C30 O7 1_555 1_555
C31 C10 1_555 1_555
C32 O10 1_555 1_555
H1 C1 1_555 1_555
H3 C3 1_555 1_555
H4 C4 1_555 1_555
H7 C7 1_555 1_555
H9 C9 1_555 1_555
H10 C10 1_555 1_555
H13 C13 1_555 1_555
H15 C15 1_555 1_555
O23 V6 1_555 1_555
O24 V2 1_555 1_555
O26 V2 1_555 1_555
O27 V14 1_555 1_555
V2 O20 1_555 1_555
V14 O18 1_555 1_555
C17 C18 1_555 1_555
C21 C22 1_555 1_555
C29 C30 1_555 1_555
C31 C32 1_555 1_555
H8 C8 1_555 1_555
H14 C14 1_555 1_555
C6 C27 1_555 1_555
H6 C6 1_555 1_555
O26 C28 1_555 1_555
H12 C12 1_555 1_555

#END
