
###############################################################################
#
# This file contains modified crystal structure data generated from the
# MOF subset of the Cambridge Structural Database (CSD) v543 
# hosted by the Cambridge Crystallographic Data Centre (CCDC).
#
# This work is licensed under the Creative Commons
# Attribution-NonCommercial-ShareAlike 4.0 International License.
# To view a copy of this license, visit
# http://creativecommons.org/licenses/by-nc-sa/4.0/
# or send a letter to
# Creative Commons, PO Box 1866, Mountain View, CA 94042, USA.
#
# CIF created using the CSD Python API on 29 September 2022
# The structure has been converted into the P1 space group
# The structure has a 3D framework
# The original CSD entry IDIWOH05 is in the triclinic crystal system
# The original CSD entry IDIWOH05 is in a Sohncke space group
# The framework has been calculated to contain at least 10.0% void space
# The void calculation uses a probe of radius 1.32A, grid spacing 0.4
#
###############################################################################

data_IDIWOH05
_chemical_formula_moiety         '(C34 H16 O18 V4)n'
_symmetry_cell_setting           triclinic
_symmetry_space_group_name_H-M   'P 1'
_symmetry_Int_Tables_number      1
_space_group_name_Hall           'P 1'
loop_
_symmetry_equiv_pos_site_id
_symmetry_equiv_pos_as_xyz
1 x,y,z
_cell_length_a                   16.23684
_cell_length_b                   13.96850
_cell_length_c                   6.85483
_cell_angle_alpha                90.00040
_cell_angle_beta                 90.08141
_cell_angle_gamma                90.00001
_cell_volume                     1554.7
loop_
_atom_site_label
_atom_site_type_symbol
_atom_site_fract_x
_atom_site_fract_y
_atom_site_fract_z
_atom_site_U_iso_or_equiv
_atom_site_thermal_displace_type
O16 O 0.162819 0.163058 0.163531 0.0127 Uiso
C16 C 0.035234 0.027694 0.180523 0.0127 Uiso
C19 C 0.064816 0.064418 0.003268 0.0127 Uiso
C20 C 0.134866 0.132946 -0.000140 0.0127 Uiso
H16 H 0.064689 0.049975 0.316018 0.0127 Uiso
V11 V 0.248951 0.260762 0.218594 0.0127 Uiso
O2 O 0.162091 0.157297 0.832288 0.0127 Uiso
C2 C 0.027972 0.036523 0.826722 0.0127 Uiso
C20_2 C 0.134866 0.132946 0.999860 0.0127 Uiso
H2 H 0.051626 0.065887 0.690722 0.0127 Uiso
V14 V 0.248950 0.239193 0.718594 0.0127 Uiso
O5 O 0.162818 0.336896 0.663529 0.0127 Uiso
O11 O 0.162092 0.342658 0.332286 0.0127 Uiso
C5 C 0.035230 0.472260 0.680522 0.0127 Uiso
C11 C 0.027970 0.463428 0.326721 0.0127 Uiso
C25 C 0.064814 0.435535 0.503267 0.0127 Uiso
C26 C 0.134865 0.367008 0.499859 0.0127 Uiso
H5 H 0.064686 0.449981 0.816017 0.0127 Uiso
H11 H 0.051624 0.434063 0.190721 0.0127 Uiso
V6 V 0.748948 0.739193 0.218591 0.0127 Uiso
V2 V 0.748949 0.760763 0.718591 0.0127 Uiso
O1 O 0.662089 0.657299 0.332285 0.0127 Uiso
O3 O 0.837322 0.665493 0.665650 0.0127 Uiso
O4 O 0.337324 0.165493 0.165653 0.0127 Uiso
O7 O 0.333567 0.344873 0.335029 0.0127 Uiso
O9 O 0.337325 0.334462 0.665652 0.0127 Uiso
O10 O 0.837325 0.834460 0.165650 0.0127 Uiso
O13 O 0.833564 0.655080 0.335026 0.0127 Uiso
O15 O 0.662816 0.663062 0.663529 0.0127 Uiso
O17 O 0.748817 0.695621 0.994244 0.0127 Uiso
O18 O 0.248821 0.195620 0.494247 0.0127 Uiso
O19 O 0.248821 0.304334 0.994248 0.0127 Uiso
O20 O 0.748819 0.804335 0.494244 0.0127 Uiso
C1 C 0.527969 0.536528 0.326722 0.0127 Uiso
C3 C 0.969730 0.536452 0.681036 0.0127 Uiso
C4 C 0.469731 0.036453 0.181037 0.0127 Uiso
C7 C 0.462358 0.472866 0.327311 0.0127 Uiso
C9 C 0.469732 0.463504 0.681037 0.0127 Uiso
C10 C 0.969734 0.963502 0.181037 0.0127 Uiso
C13 C 0.962358 0.527089 0.327310 0.0127 Uiso
C15 C 0.535232 0.527697 0.680524 0.0127 Uiso
C17 C 0.564813 0.564421 0.503267 0.0127 Uiso
C18 C 0.634863 0.632949 0.499858 0.0127 Uiso
C21 C 0.932887 0.564176 0.504390 0.0127 Uiso
C22 C 0.863008 0.632956 0.501995 0.0127 Uiso
C23 C 0.432890 0.064179 0.004390 0.0127 Uiso
C24 C 0.363010 0.132958 0.001997 0.0127 Uiso
C29 C 0.432888 0.435779 0.504391 0.0127 Uiso
C30 C 0.363010 0.366998 0.501998 0.0127 Uiso
C31 C 0.932890 0.935776 0.004391 0.0127 Uiso
C32 C 0.863010 0.866997 0.001996 0.0127 Uiso
H1 H 0.551622 0.565893 0.190722 0.0127 Uiso
H3 H 0.946195 0.566104 0.816969 0.0127 Uiso
H4 H 0.446194 0.066103 0.316970 0.0127 Uiso
H7 H 0.432822 0.450848 0.191817 0.0127 Uiso
H9 H 0.446198 0.433851 0.816970 0.0127 Uiso
H10 H 0.946199 0.933850 0.316971 0.0127 Uiso
H13 H 0.932824 0.549107 0.191815 0.0127 Uiso
H15 H 0.564688 0.549977 0.816018 0.0127 Uiso
O23 O 0.662818 0.836898 0.163527 0.0127 Uiso
O24 O 0.833566 0.844873 0.835028 0.0127 Uiso
O26 O 0.662091 0.842661 0.832284 0.0127 Uiso
O27 O 0.333567 0.155083 0.835029 0.0127 Uiso
C8 C 0.962361 0.972862 0.827311 0.0127 Uiso
C14 C 0.462362 0.027096 0.827309 0.0127 Uiso
H8 H 0.932826 0.950842 0.691817 0.0127 Uiso
H14 H 0.432829 0.049116 0.691815 0.0127 Uiso
C6 C 0.535231 0.972261 0.180523 0.0127 Uiso
C27 C 0.564816 0.935539 0.003266 0.0127 Uiso
C28 C 0.634866 0.867011 -0.000143 0.0127 Uiso
H6 H 0.564685 0.949979 0.316018 0.0127 Uiso
C12 C 0.527974 0.963435 0.826720 0.0127 Uiso
C28_2 C 0.634866 0.867011 0.999857 0.0127 Uiso
H12 H 0.551630 0.934072 0.690719 0.0127 Uiso
loop_
_geom_bond_atom_site_label_1
_geom_bond_atom_site_label_2
_geom_bond_site_symmetry_1
_geom_bond_site_symmetry_2
O16 C20 1_555 1_555
C16 C19 1_555 1_555
C20 C19 1_555 1_555
H16 C16 1_555 1_555
V11 O16 1_555 1_555
O2 C20_2 1_555 1_555
H2 C2 1_555 1_555
V14 O2 1_555 1_555
O5 C26 1_555 1_555
O11 C26 1_555 1_555
C5 C25 1_555 1_555
C25 C11 1_555 1_555
C26 C25 1_555 1_555
H5 C5 1_555 1_555
H11 C11 1_555 1_555
V11 O11 1_555 1_555
V14 O5 1_555 1_555
V6 O1 1_555 1_555
V2 O3 1_555 1_555
V11 O4 1_555 1_555
V14 O9 1_555 1_555
O1 C18 1_555 1_555
O3 C22 1_555 1_555
O4 C24 1_555 1_555
O7 V11 1_555 1_555
O9 C30 1_555 1_555
O10 V6 1_555 1_555
O13 V6 1_555 1_555
O15 V2 1_555 1_555
O17 V2 1_555 1_555
O18 V11 1_555 1_555
O19 V14 1_555 1_555
O20 V6 1_555 1_555
C1 C7 1_555 1_555
C7 C29 1_555 1_555
C9 C15 1_555 1_555
C13 C21 1_555 1_555
C15 C17 1_555 1_555
C17 C1 1_555 1_555
C18 O15 1_555 1_555
C21 C3 1_555 1_555
C22 O13 1_555 1_555
C23 C4 1_555 1_555
C24 C23 1_555 1_555
C29 C9 1_555 1_555
C30 O7 1_555 1_555
C31 C10 1_555 1_555
C32 O10 1_555 1_555
H1 C1 1_555 1_555
H3 C3 1_555 1_555
H4 C4 1_555 1_555
H7 C7 1_555 1_555
H9 C9 1_555 1_555
H10 C10 1_555 1_555
H13 C13 1_555 1_555
H15 C15 1_555 1_555
O23 V6 1_555 1_555
O24 V2 1_555 1_555
O26 V2 1_555 1_555
O27 V14 1_555 1_555
V2 O20 1_555 1_555
V14 O18 1_555 1_555
C17 C18 1_555 1_555
C21 C22 1_555 1_555
C29 C30 1_555 1_555
C31 C32 1_555 1_555
H8 C8 1_555 1_555
H14 C14 1_555 1_555
O23 C28 1_555 1_555
C6 C27 1_555 1_555
C28 C27 1_555 1_555
H6 C6 1_555 1_555
O26 C28_2 1_555 1_555
H12 C12 1_555 1_555

#END
