
###############################################################################
#
# This file contains modified crystal structure data generated from the
# MOF subset of the Cambridge Structural Database (CSD) v543 
# hosted by the Cambridge Crystallographic Data Centre (CCDC).
#
# This work is licensed under the Creative Commons
# Attribution-NonCommercial-ShareAlike 4.0 International License.
# To view a copy of this license, visit
# http://creativecommons.org/licenses/by-nc-sa/4.0/
# or send a letter to
# Creative Commons, PO Box 1866, Mountain View, CA 94042, USA.
#
# CIF created using the CSD Python API on 29 September 2022
# The structure has been converted into the P1 space group
# The structure has a 3D framework
# The original CSD entry IDIWOH03 is in the triclinic crystal system
# The original CSD entry IDIWOH03 is in a Sohncke space group
# The framework has been calculated to contain at least 10.0% void space
# The void calculation uses a probe of radius 1.32A, grid spacing 0.4
#
###############################################################################

data_IDIWOH03
_chemical_formula_moiety         '(C33 H16 O17 V4)n'
_symmetry_cell_setting           triclinic
_symmetry_space_group_name_H-M   'P 1'
_symmetry_Int_Tables_number      1
_space_group_name_Hall           'P 1'
loop_
_symmetry_equiv_pos_site_id
_symmetry_equiv_pos_as_xyz
1 x,y,z
_cell_length_a                   16.31061
_cell_length_b                   13.91427
_cell_length_c                   6.85121
_cell_angle_alpha                89.98019
_cell_angle_beta                 90.07617
_cell_angle_gamma                89.99968
_cell_volume                     1554.88
loop_
_atom_site_label
_atom_site_type_symbol
_atom_site_fract_x
_atom_site_fract_y
_atom_site_fract_z
_atom_site_U_iso_or_equiv
_atom_site_thermal_displace_type
O16 O 0.162853 0.163067 0.163849 0.0127 Uiso
C16 C 0.034934 0.028425 0.180868 0.0127 Uiso
C19 C 0.065259 0.064153 0.003377 0.0127 Uiso
C20 C 0.135231 0.132632 0.000119 0.0127 Uiso
H16 H 0.063776 0.051393 0.316570 0.0127 Uiso
V11 V 0.248911 0.260843 0.218636 0.0127 Uiso
O2 O 0.162706 0.156658 0.832516 0.0127 Uiso
C2 C 0.029195 0.035458 0.826527 0.0127 Uiso
C20_2 C 0.135231 0.132632 1.000119 0.0127 Uiso
H2 H 0.053483 0.064022 0.690371 0.0127 Uiso
V14 V 0.248912 0.239135 0.718714 0.0127 Uiso
O5 O 0.162896 0.336879 0.663853 0.0127 Uiso
O11 O 0.162666 0.343314 0.332513 0.0127 Uiso
C5 C 0.035015 0.471554 0.680961 0.0127 Uiso
C11 C 0.029102 0.464454 0.326651 0.0127 Uiso
C25 C 0.065255 0.435796 0.503465 0.0127 Uiso
C26 C 0.135233 0.367325 0.500087 0.0127 Uiso
H5 H 0.063925 0.448617 0.816636 0.0127 Uiso
H11 H 0.053326 0.435864 0.190492 0.0127 Uiso
V6 V 0.748928 0.738876 0.218421 0.0127 Uiso
V2 V 0.748928 0.761084 0.718414 0.0127 Uiso
O1 O 0.661912 0.656177 0.332160 0.0127 Uiso
O3 O 0.838069 0.665300 0.665970 0.0127 Uiso
O4 O 0.336700 0.164935 0.165587 0.0127 Uiso
O7 O 0.333449 0.344985 0.334734 0.0127 Uiso
O9 O 0.336669 0.334999 0.665596 0.0127 Uiso
O10 O 0.838063 0.834642 0.165846 0.0127 Uiso
O13 O 0.833404 0.653578 0.335193 0.0127 Uiso
O15 O 0.662179 0.662637 0.663738 0.0127 Uiso
O17 O 0.748872 0.695812 0.993067 0.0127 Uiso
O18 O 0.248817 0.195446 0.494234 0.0127 Uiso
O19 O 0.248820 0.304568 0.994102 0.0127 Uiso
O20 O 0.748875 0.804147 0.493003 0.0127 Uiso
C1 C 0.528686 0.534954 0.326454 0.0127 Uiso
C3 C 0.969485 0.535551 0.681435 0.0127 Uiso
C4 C 0.468325 0.035129 0.181245 0.0127 Uiso
C7 C 0.463036 0.471514 0.326956 0.0127 Uiso
C9 C 0.468247 0.464847 0.681363 0.0127 Uiso
C10 C 0.969408 0.964428 0.181301 0.0127 Uiso
C13 C 0.963427 0.527866 0.327245 0.0127 Uiso
C15 C 0.533786 0.528834 0.680861 0.0127 Uiso
C17 C 0.564432 0.564082 0.503334 0.0127 Uiso
C18 C 0.634605 0.632475 0.499965 0.0127 Uiso
C21 C 0.933289 0.563951 0.504551 0.0127 Uiso
C22 C 0.863197 0.632473 0.502238 0.0127 Uiso
C23 C 0.432480 0.064048 0.004263 0.0127 Uiso
C24 C 0.362602 0.132674 0.001873 0.0127 Uiso
C29 C 0.432482 0.435905 0.504350 0.0127 Uiso
C30 C 0.362605 0.367277 0.501842 0.0127 Uiso
C31 C 0.933296 0.935994 0.004381 0.0127 Uiso
C32 C 0.863203 0.867477 0.002082 0.0127 Uiso
H1 H 0.553284 0.563150 0.190301 0.0127 Uiso
H3 H 0.945341 0.564452 0.817478 0.0127 Uiso
H4 H 0.443960 0.063651 0.317395 0.0127 Uiso
H7 H 0.434359 0.448461 0.191198 0.0127 Uiso
H9 H 0.443824 0.436343 0.817509 0.0127 Uiso
H10 H 0.945194 0.935554 0.317340 0.0127 Uiso
H13 H 0.934357 0.550491 0.191627 0.0127 Uiso
H15 H 0.562431 0.552160 0.816549 0.0127 Uiso
O23 O 0.662196 0.837319 0.163611 0.0127 Uiso
O24 O 0.833422 0.846383 0.835050 0.0127 Uiso
O26 O 0.661906 0.843797 0.832023 0.0127 Uiso
O27 O 0.333405 0.154981 0.834739 0.0127 Uiso
C8 C 0.963520 0.972044 0.827078 0.0127 Uiso
C14 C 0.462959 0.028420 0.826862 0.0127 Uiso
H8 H 0.934517 0.949391 0.691430 0.0127 Uiso
H14 H 0.434223 0.051454 0.691127 0.0127 Uiso
C6 C 0.533864 0.971145 0.180704 0.0127 Uiso
C27 C 0.564436 0.935877 0.003166 0.0127 Uiso
H6 H 0.562571 0.947838 0.316364 0.0127 Uiso
C12 C 0.528613 0.964983 0.826318 0.0127 Uiso
C28 C 0.634609 0.867489 0.999810 0.0127 Uiso
H12 H 0.553151 0.936771 0.690157 0.0127 Uiso
loop_
_geom_bond_atom_site_label_1
_geom_bond_atom_site_label_2
_geom_bond_site_symmetry_1
_geom_bond_site_symmetry_2
O16 C20 1_555 1_555
C16 C19 1_555 1_555
C20 C19 1_555 1_555
H16 C16 1_555 1_555
V11 O16 1_555 1_555
O2 C20_2 1_555 1_555
H2 C2 1_555 1_555
V14 O2 1_555 1_555
O5 C26 1_555 1_555
O11 C26 1_555 1_555
C5 C25 1_555 1_555
C25 C11 1_555 1_555
C26 C25 1_555 1_555
H5 C5 1_555 1_555
H11 C11 1_555 1_555
V11 O11 1_555 1_555
V14 O5 1_555 1_555
V6 O1 1_555 1_555
V2 O3 1_555 1_555
V11 O4 1_555 1_555
V14 O9 1_555 1_555
O1 C18 1_555 1_555
O3 C22 1_555 1_555
O4 C24 1_555 1_555
O7 V11 1_555 1_555
O9 C30 1_555 1_555
O10 V6 1_555 1_555
O13 V6 1_555 1_555
O15 V2 1_555 1_555
O17 V2 1_555 1_555
O18 V11 1_555 1_555
O19 V14 1_555 1_555
O20 V6 1_555 1_555
C1 C7 1_555 1_555
C7 C29 1_555 1_555
C9 C15 1_555 1_555
C13 C21 1_555 1_555
C15 C17 1_555 1_555
C17 C1 1_555 1_555
C18 O15 1_555 1_555
C21 C3 1_555 1_555
C22 O13 1_555 1_555
C23 C4 1_555 1_555
C24 C23 1_555 1_555
C29 C9 1_555 1_555
C30 O7 1_555 1_555
C31 C10 1_555 1_555
C32 O10 1_555 1_555
H1 C1 1_555 1_555
H3 C3 1_555 1_555
H4 C4 1_555 1_555
H7 C7 1_555 1_555
H9 C9 1_555 1_555
H10 C10 1_555 1_555
H13 C13 1_555 1_555
H15 C15 1_555 1_555
O23 V6 1_555 1_555
O24 V2 1_555 1_555
O26 V2 1_555 1_555
O27 V14 1_555 1_555
V2 O20 1_555 1_555
V14 O18 1_555 1_555
C17 C18 1_555 1_555
C21 C22 1_555 1_555
C29 C30 1_555 1_555
C31 C32 1_555 1_555
H8 C8 1_555 1_555
H14 C14 1_555 1_555
C6 C27 1_555 1_555
H6 C6 1_555 1_555
O26 C28 1_555 1_555
H12 C12 1_555 1_555

#END
