
###############################################################################
#
# This file contains modified crystal structure data generated from the
# MOF subset of the Cambridge Structural Database (CSD) v543 
# hosted by the Cambridge Crystallographic Data Centre (CCDC).
#
# This work is licensed under the Creative Commons
# Attribution-NonCommercial-ShareAlike 4.0 International License.
# To view a copy of this license, visit
# http://creativecommons.org/licenses/by-nc-sa/4.0/
# or send a letter to
# Creative Commons, PO Box 1866, Mountain View, CA 94042, USA.
#
# CIF created using the CSD Python API on 29 September 2022
# The structure has been converted into the P1 space group
# The structure has a 3D framework
# The original CSD entry IDIXAU is in the monoclinic crystal system
# The framework has been calculated to contain at least 10.0% void space
# The void calculation uses a probe of radius 1.32A, grid spacing 0.4
#
###############################################################################

data_IDIXAU
_chemical_formula_moiety         '(C96 H56 O40 Zn20)n'
_symmetry_cell_setting           triclinic
_symmetry_space_group_name_H-M   'P 1'
_symmetry_Int_Tables_number      1
_space_group_name_Hall           'P 1'
loop_
_symmetry_equiv_pos_site_id
_symmetry_equiv_pos_as_xyz
1 x,y,z
_cell_length_a                   20.1658(15)
_cell_length_b                   18.5518(14)
_cell_length_c                   12.1580(9)
_cell_angle_alpha                90
_cell_angle_beta                 95.3310(10)
_cell_angle_gamma                90
_cell_volume                     4528.78
loop_
_atom_site_label
_atom_site_type_symbol
_atom_site_fract_x
_atom_site_fract_y
_atom_site_fract_z
Zn1 Zn 0.0000 0.0000 0.0000
Zn3 Zn 0.0000 0.07785(6) 0.2500
O15 O 0.0671(2) 0.1385(3) 0.3268(4)
Zn1_2 Zn 0.0000 0.0000 1.0000
O11 O 0.0517(3) 0.1000(3) 0.9921(4)
Zn9 Zn -0.0000 0.07877(6) 0.7500
Zn1_3 Zn 0.0000 1.0000 0.0000
Zn2 Zn 0.0000 0.92123(6) 0.2500
O1 O 0.0381(2) 0.9993(3) 0.1615(3)
H1 H 0.0788(10) 0.990(4) 0.162(6)
C9 C 0.1959(4) 0.8645(5) 0.0580(6)
H5 H 0.1844 0.9076 0.0938
C10 C 0.2495(4) 0.8249(5) 0.1005(6)
H6 H 0.2745 0.8409 0.1660
C12 C 0.2683(4) 0.7614(4) 0.0497(6)
C19 C 0.3245(4) 0.7206(4) 0.0899(6)
C20 C 0.3428(4) 0.6587(4) 0.0397(6)
C21 C 0.4013(4) 0.6150(4) 0.0865(6)
O8 O 0.4329(2) 0.6385(3) 0.1732(4)
O9 O 0.4127(2) 0.5556(3) 0.0399(4)
H13 H 0.3505 0.7367 0.1544
O14 O 0.0711(2) 0.8647(3) 0.3227(4)
Zn7 Zn 0.5000 0.57785(6) 0.2500
Zn8 Zn 0.5000 0.5000 0.0000
Zn1_4 Zn 0.0000 1.0000 1.0000
O4 O 0.0671(2) 0.8615(3) 0.8268(4)
O5 O 0.0873(2) 0.9444(3) 0.9601(4)
C7 C 0.0987(4) 0.8850(4) 0.9135(6)
C8 C 0.1572(4) 0.8413(4) 0.9603(6)
C11 C 0.1755(4) 0.7794(4) 0.9101(6)
H7 H 0.1495 0.7633 0.8456
C22 C 0.3041(4) 0.6355(5) 0.9420(6)
H11 H 0.3156 0.5924 0.9062
C23 C 0.2505(4) 0.6751(5) 0.8995(6)
H12 H 0.2255 0.6591 0.8340
C24 C 0.2317(4) 0.7386(4) 0.9503(6)
Zn4 Zn 0.0000 0.92215(6) 0.7500
Zn8_2 Zn 0.5000 0.5000 1.0000
Zn1_5 Zn 1.0000 0.0000 0.0000
Zn3_2 Zn 1.0000 0.07785(6) 0.2500
O12 O 0.9127(2) 0.0556(3) 0.0399(4)
O16 O 0.9329(2) 0.1385(3) 0.1732(4)
Zn1_6 Zn 1.0000 0.0000 1.0000
O10 O 0.9619(2) 0.0007(3) 0.8385(3)
H14 H 0.9212(10) 0.010(4) 0.838(6)
Zn9_2 Zn 1.0000 0.07877(6) 0.7500
Zn1_7 Zn 1.0000 1.0000 0.0000
Zn2_2 Zn 1.0000 0.92123(6) 0.2500
O2 O 0.9483(3) 0.9000(3) 0.0079(4)
O3 O 0.9289(2) 0.8647(3) 0.1773(4)
C1 C 0.9150(4) 0.8671(4) 0.0730(6)
C2 C 0.8548(4) 0.8255(4) 0.0290(6)
C3 C 0.8188(4) 0.7869(4) 0.0990(6)
H2 H 0.8328 0.7859 0.1758
C4 C 0.7607(4) 0.7483(5) 0.0579(6)
C6 C 0.7224(5) 0.7089(5) 0.1271(7)
H4 H 0.7361 0.7067 0.2040
C17 C 0.6652(4) 0.6732(5) 0.0865(6)
H8 H 0.6393 0.6479 0.1353
O13 O 0.9619(2) 0.9993(3) 0.3385(3)
H15 H 0.9212(10) 0.990(4) 0.338(6)
Zn1_8 Zn 1.0000 1.0000 1.0000
C5 C 0.8348(4) 0.8268(5) 0.9135(6)
H3 H 0.8607 0.8521 0.8647
C13 C 0.7393(4) 0.7517(5) 0.9421(6)
C14 C 0.6812(4) 0.7131(4) 0.9010(6)
C15 C 0.6452(4) 0.6745(4) 0.9710(6)
C16 C 0.5850(4) 0.6329(4) 0.9270(6)
O6 O 0.5517(3) 0.6000(3) 0.9921(4)
O7 O 0.5711(2) 0.6353(3) 0.8227(4)
H9 H 0.6672 0.7141 0.8242
C18 C 0.7776(5) 0.7911(5) 0.8729(7)
H10 H 0.7639 0.7933 0.7960
Zn4_2 Zn 1.0000 0.92215(6) 0.7500
Zn6 Zn 0.5000 0.57877(6) 0.7500
Zn2_3 Zn 0.5000 0.42123(6) 0.2500
O1_2 O 0.5381(2) 0.4993(3) 0.1615(3)
H1_2 H 0.5788(10) 0.490(4) 0.162(6)
O2_2 O 0.4483(3) 0.4000(3) 0.0079(4)
O3_2 O 0.4289(2) 0.3647(3) 0.1773(4)
C1_2 C 0.4150(4) 0.3671(4) 0.0730(6)
C2_2 C 0.3548(4) 0.3255(4) 0.0290(6)
C3_2 C 0.3188(4) 0.2869(4) 0.0990(6)
H2_2 H 0.3328 0.2859 0.1758
C4_2 C 0.2607(4) 0.2483(5) 0.0579(6)
C6_2 C 0.2224(5) 0.2089(5) 0.1271(7)
H4_2 H 0.2361 0.2067 0.2040
C9_2 C 0.6959(4) 0.3645(5) 0.0580(6)
H5_2 H 0.6844 0.4076 0.0938
C10_2 C 0.7495(4) 0.3249(5) 0.1005(6)
H6_2 H 0.7745 0.3409 0.1660
C12_2 C 0.7683(4) 0.2614(4) 0.0497(6)
C17_2 C 0.1652(4) 0.1732(5) 0.0865(6)
H8_2 H 0.1393 0.1479 0.1353
C19_2 C 0.8245(4) 0.2206(4) 0.0899(6)
C20_2 C 0.8428(4) 0.1587(4) 0.0397(6)
C21_2 C 0.9013(4) 0.1150(4) 0.0865(6)
H13_2 H 0.8505 0.2367 0.1544
O13_2 O 0.4619(2) 0.4993(3) 0.3385(3)
O14_2 O 0.5711(2) 0.3647(3) 0.3227(4)
O15_2 O 0.5671(2) 0.6385(3) 0.3268(4)
H15_2 H 0.4212(10) 0.490(4) 0.338(6)
O4_2 O 0.5671(2) 0.3615(3) 0.8268(4)
O5_2 O 0.5873(2) 0.4444(3) 0.9601(4)
C5_2 C 0.3348(4) 0.3268(5) 0.9135(6)
H3_2 H 0.3607 0.3521 0.8647
C7_2 C 0.5987(4) 0.3850(4) 0.9135(6)
C8_2 C 0.6572(4) 0.3413(4) 0.9603(6)
C11_2 C 0.6755(4) 0.2794(4) 0.9101(6)
H7_2 H 0.6495 0.2633 0.8456
C13_2 C 0.2393(4) 0.2517(5) 0.9421(6)
C14_2 C 0.1812(4) 0.2131(4) 0.9010(6)
C15_2 C 0.1452(4) 0.1745(4) 0.9710(6)
C16_2 C 0.0850(4) 0.1329(4) 0.9270(6)
O7_2 O 0.0711(2) 0.1353(3) 0.8227(4)
H9_2 H 0.1672 0.2141 0.8242
C18_2 C 0.2776(5) 0.2911(5) 0.8729(7)
H10_2 H 0.2639 0.2933 0.7960
C22_2 C 0.8041(4) 0.1355(5) 0.9420(6)
H11_2 H 0.8156 0.0924 0.9062
C23_2 C 0.7505(4) 0.1751(5) 0.8995(6)
H12_2 H 0.7255 0.1591 0.8340
C24_2 C 0.7317(4) 0.2386(4) 0.9503(6)
O10_2 O 0.4619(2) 0.5007(3) 0.8385(3)
H14_2 H 0.4212(10) 0.510(4) 0.838(6)
Zn4_3 Zn 0.5000 0.42215(6) 0.7500
Zn1_9 Zn 0.0000 0.0000 0.5000
O1_3 O 0.0381(2) 0.0007(3) 0.6615(3)
H1_3 H 0.0788(10) 0.010(4) 0.662(6)
O5_3 O 0.0873(2) 0.0556(3) 0.4601(4)
C7_3 C 0.0987(4) 0.1150(4) 0.4135(6)
C8_3 C 0.1572(4) 0.1587(4) 0.4603(6)
C9_3 C 0.1959(4) 0.1355(5) 0.5580(6)
H5_3 H 0.1844 0.0924 0.5938
C10_3 C 0.2495(4) 0.1751(5) 0.6005(6)
H6_3 H 0.2745 0.1591 0.6660
C11_3 C 0.1755(4) 0.2206(4) 0.4101(6)
H7_3 H 0.1495 0.2367 0.3456
C12_3 C 0.2683(4) 0.2386(4) 0.5497(6)
C19_3 C 0.3245(4) 0.2794(4) 0.5899(6)
C20_3 C 0.3428(4) 0.3413(4) 0.5397(6)
C21_3 C 0.4013(4) 0.3850(4) 0.5865(6)
O8_2 O 0.4329(2) 0.3615(3) 0.6732(4)
O9_2 O 0.4127(2) 0.4444(3) 0.5399(4)
C22_3 C 0.3041(4) 0.3645(5) 0.4420(6)
H11_3 H 0.3156 0.4076 0.4062
C23_3 C 0.2505(4) 0.3249(5) 0.3995(6)
H12_3 H 0.2255 0.3409 0.3340
C24_3 C 0.2317(4) 0.2614(4) 0.4503(6)
H13_3 H 0.3505 0.2633 0.6544
Zn8_3 Zn 0.5000 0.5000 0.5000
Zn1_10 Zn 0.0000 1.0000 0.5000
O11_2 O 0.0517(3) 0.9000(3) 0.4921(4)
Zn1_11 Zn 1.0000 0.0000 0.5000
O2_3 O 0.9483(3) 0.1000(3) 0.5079(4)
O3_3 O 0.9289(2) 0.1353(3) 0.6773(4)
C1_3 C 0.9150(4) 0.1329(4) 0.5730(6)
C2_3 C 0.8548(4) 0.1745(4) 0.5290(6)
C3_3 C 0.8188(4) 0.2131(4) 0.5990(6)
H2_3 H 0.8328 0.2141 0.6758
C4_3 C 0.7607(4) 0.2517(5) 0.5579(6)
C5_3 C 0.8348(4) 0.1732(5) 0.4135(6)
H3_3 H 0.8607 0.1479 0.3647
C6_3 C 0.7224(5) 0.2911(5) 0.6271(7)
H4_3 H 0.7361 0.2933 0.7040
C13_3 C 0.7393(4) 0.2483(5) 0.4421(6)
C14_3 C 0.6812(4) 0.2869(4) 0.4010(6)
C15_3 C 0.6452(4) 0.3255(4) 0.4710(6)
C16_3 C 0.5850(4) 0.3671(4) 0.4270(6)
O6_2 O 0.5517(3) 0.4000(3) 0.4921(4)
C17_3 C 0.6652(4) 0.3268(5) 0.5865(6)
H8_3 H 0.6393 0.3521 0.6353
H9_3 H 0.6672 0.2859 0.3242
C18_3 C 0.7776(5) 0.2089(5) 0.3729(7)
H10_3 H 0.7639 0.2067 0.2960
Zn1_12 Zn 1.0000 1.0000 0.5000
O12_2 O 0.9127(2) 0.9444(3) 0.5399(4)
O16_2 O 0.9329(2) 0.8615(3) 0.6732(4)
O1_4 O 0.5381(2) 0.5007(3) 0.6615(3)
H1_4 H 0.5788(10) 0.510(4) 0.662(6)
O2_4 O 0.4483(3) 0.6000(3) 0.5079(4)
O3_4 O 0.4289(2) 0.6353(3) 0.6773(4)
O5_4 O 0.5873(2) 0.5556(3) 0.4601(4)
C1_4 C 0.4150(4) 0.6329(4) 0.5730(6)
C2_4 C 0.3548(4) 0.6745(4) 0.5290(6)
C3_4 C 0.3188(4) 0.7131(4) 0.5990(6)
H2_4 H 0.3328 0.7141 0.6758
C4_4 C 0.2607(4) 0.7517(5) 0.5579(6)
C5_4 C 0.3348(4) 0.6732(5) 0.4135(6)
H3_4 H 0.3607 0.6479 0.3647
C6_4 C 0.2224(5) 0.7911(5) 0.6271(7)
H4_4 H 0.2361 0.7933 0.7040
C7_4 C 0.5987(4) 0.6150(4) 0.4135(6)
C8_4 C 0.6572(4) 0.6587(4) 0.4603(6)
C9_4 C 0.6959(4) 0.6355(5) 0.5580(6)
H5_4 H 0.6844 0.5924 0.5938
C10_4 C 0.7495(4) 0.6751(5) 0.6005(6)
H6_4 H 0.7745 0.6591 0.6660
C11_4 C 0.6755(4) 0.7206(4) 0.4101(6)
H7_4 H 0.6495 0.7367 0.3456
C12_4 C 0.7683(4) 0.7386(4) 0.5497(6)
C13_4 C 0.2393(4) 0.7483(5) 0.4421(6)
C14_4 C 0.1812(4) 0.7869(4) 0.4010(6)
C15_4 C 0.1452(4) 0.8255(4) 0.4710(6)
C16_4 C 0.0850(4) 0.8671(4) 0.4270(6)
C17_4 C 0.1652(4) 0.8268(5) 0.5865(6)
H8_4 H 0.1393 0.8521 0.6353
H9_4 H 0.1672 0.7859 0.3242
C18_4 C 0.2776(5) 0.7089(5) 0.3729(7)
H10_4 H 0.2639 0.7067 0.2960
C19_4 C 0.8245(4) 0.7794(4) 0.5899(6)
C20_4 C 0.8428(4) 0.8413(4) 0.5397(6)
C21_4 C 0.9013(4) 0.8850(4) 0.5865(6)
C22_4 C 0.8041(4) 0.8645(5) 0.4420(6)
H11_4 H 0.8156 0.9076 0.4062
C23_4 C 0.7505(4) 0.8249(5) 0.3995(6)
H12_4 H 0.7255 0.8409 0.3340
C24_4 C 0.7317(4) 0.7614(4) 0.4503(6)
H13_4 H 0.8505 0.7633 0.6544
loop_
_geom_bond_atom_site_label_1
_geom_bond_atom_site_label_2
_geom_bond_site_symmetry_1
_geom_bond_site_symmetry_2
O15 Zn3 1_555 1_555
O11 Zn1_2 1_555 1_555
Zn1_3 O1 1_555 1_555
Zn2 O1 1_555 1_555
O1 H1 1_555 1_555
H5 C9 1_555 1_555
C10 C9 1_555 1_555
H6 C10 1_555 1_555
C12 C10 1_555 1_555
C19 C12 1_555 1_555
C20 C19 1_555 1_555
C21 C20 1_555 1_555
O8 C21 1_555 1_555
O9 C21 1_555 1_555
H13 C19 1_555 1_555
O14 Zn2 1_555 1_555
Zn7 O8 1_555 1_555
Zn8 O9 1_555 1_555
O4 C7 1_555 1_555
O5 Zn1_4 1_555 1_555
C7 O5 1_555 1_555
C8 C7 1_555 1_555
C11 C8 1_555 1_555
H7 C11 1_555 1_555
H11 C22 1_555 1_555
C23 C22 1_555 1_555
H12 C23 1_555 1_555
C24 C11 1_555 1_555
Zn4 O4 1_555 1_555
C23 C24 1_555 1_555
O12 Zn1_5 1_555 1_555
O16 Zn3_2 1_555 1_555
O10 Zn1_6 1_555 1_555
H14 O10 1_555 1_555
Zn9_2 O10 1_555 1_555
O2 Zn1_7 1_555 1_555
O3 Zn2_2 1_555 1_555
C1 O2 1_555 1_555
C2 C1 1_555 1_555
C3 C2 1_555 1_555
H2 C3 1_555 1_555
C4 C3 1_555 1_555
C6 C4 1_555 1_555
H4 C6 1_555 1_555
C17 C6 1_555 1_555
H8 C17 1_555 1_555
O13 Zn2_2 1_555 1_555
H15 O13 1_555 1_555
O3 C1 1_555 1_555
H3 C5 1_555 1_555
C14 C13 1_555 1_555
C15 C14 1_555 1_555
C16 C15 1_555 1_555
O6 C16 1_555 1_555
O7 C16 1_555 1_555
H9 C14 1_555 1_555
C18 C5 1_555 1_555
H10 C18 1_555 1_555
Zn8_2 O6 1_555 1_555
Zn6 O7 1_555 1_555
C13 C18 1_555 1_555
Zn8 O1_2 1_555 1_555
Zn2_3 O1_2 1_555 1_555
Zn7 O1_2 1_555 1_555
O1_2 H1_2 1_555 1_555
O2_2 Zn8 1_555 1_555
O3_2 Zn2_3 1_555 1_555
C1_2 O2_2 1_555 1_555
C2_2 C1_2 1_555 1_555
C3_2 C2_2 1_555 1_555
H2_2 C3_2 1_555 1_555
C4_2 C3_2 1_555 1_555
C6_2 C4_2 1_555 1_555
H4_2 C6_2 1_555 1_555
H5_2 C9_2 1_555 1_555
C10_2 C9_2 1_555 1_555
H6_2 C10_2 1_555 1_555
C12_2 C10_2 1_555 1_555
C17_2 C6_2 1_555 1_555
H8_2 C17_2 1_555 1_555
C19_2 C12_2 1_555 1_555
C20_2 C19_2 1_555 1_555
C21_2 C20_2 1_555 1_555
O16 C21_2 1_555 1_555
O12 C21_2 1_555 1_555
H13_2 C19_2 1_555 1_555
O13_2 Zn2_3 1_555 1_555
O14_2 Zn2_3 1_555 1_555
O15_2 Zn7 1_555 1_555
H15_2 O13_2 1_555 1_555
Zn7 O13_2 1_555 1_555
O3_2 C1_2 1_555 1_555
O4_2 C7_2 1_555 1_555
O5_2 Zn8_2 1_555 1_555
H3_2 C5_2 1_555 1_555
C7_2 O5_2 1_555 1_555
C8_2 C7_2 1_555 1_555
C11_2 C8_2 1_555 1_555
H7_2 C11_2 1_555 1_555
C14_2 C13_2 1_555 1_555
C15_2 C14_2 1_555 1_555
C16_2 C15_2 1_555 1_555
O11 C16_2 1_555 1_555
O7_2 C16_2 1_555 1_555
H9_2 C14_2 1_555 1_555
C18_2 C5_2 1_555 1_555
H10_2 C18_2 1_555 1_555
H11_2 C22_2 1_555 1_555
C23_2 C22_2 1_555 1_555
H12_2 C23_2 1_555 1_555
C24_2 C11_2 1_555 1_555
O10_2 Zn8_2 1_555 1_555
H14_2 O10_2 1_555 1_555
Zn4_3 O4_2 1_555 1_555
Zn9 O7_2 1_555 1_555
Zn6 O10_2 1_555 1_555
C13_2 C18_2 1_555 1_555
C23_2 C24_2 1_555 1_555
O10_2 Zn4_3 1_555 1_555
Zn1_9 O1_3 1_555 1_555
Zn9 O1_3 1_555 1_555
O1_3 H1_3 1_555 1_555
O15 C7_3 1_555 1_555
O5_3 Zn1_9 1_555 1_555
C7_3 O5_3 1_555 1_555
C8_3 C7_3 1_555 1_555
C9_3 C8_3 1_555 1_555
H5_3 C9_3 1_555 1_555
C10_3 C9_3 1_555 1_555
H6_3 C10_3 1_555 1_555
C11_3 C8_3 1_555 1_555
H7_3 C11_3 1_555 1_555
C12_3 C10_3 1_555 1_555
C19_3 C12_3 1_555 1_555
C20_3 C19_3 1_555 1_555
C21_3 C20_3 1_555 1_555
O8_2 C21_3 1_555 1_555
O9_2 C21_3 1_555 1_555
C22_3 C20_3 1_555 1_555
H11_3 C22_3 1_555 1_555
C23_3 C22_3 1_555 1_555
H12_3 C23_3 1_555 1_555
C24_3 C11_3 1_555 1_555
H13_3 C19_3 1_555 1_555
Zn4_3 O8_2 1_555 1_555
Zn8_3 O9_2 1_555 1_555
C12_3 C24_3 1_555 1_555
C23_3 C24_3 1_555 1_555
O11_2 Zn1_10 1_555 1_555
O2_3 Zn1_11 1_555 1_555
O3_3 Zn9_2 1_555 1_555
C1_3 O2_3 1_555 1_555
C2_3 C1_3 1_555 1_555
C3_3 C2_3 1_555 1_555
H2_3 C3_3 1_555 1_555
C4_3 C3_3 1_555 1_555
C5_3 C2_3 1_555 1_555
H3_3 C5_3 1_555 1_555
C6_3 C4_3 1_555 1_555
H4_3 C6_3 1_555 1_555
C13_3 C4_3 1_555 1_555
C14_3 C13_3 1_555 1_555
C15_3 C14_3 1_555 1_555
C16_3 C15_3 1_555 1_555
O6_2 C16_3 1_555 1_555
O14_2 C16_3 1_555 1_555
C17_3 C6_3 1_555 1_555
H8_3 C17_3 1_555 1_555
H9_3 C14_3 1_555 1_555
C18_3 C5_3 1_555 1_555
H10_3 C18_3 1_555 1_555
Zn8_3 O6_2 1_555 1_555
O3_3 C1_3 1_555 1_555
C13_3 C18_3 1_555 1_555
C15_3 C17_3 1_555 1_555
O13 Zn1_12 1_555 1_555
O12_2 Zn1_12 1_555 1_555
O16_2 Zn4_2 1_555 1_555
Zn8_3 O1_4 1_555 1_555
Zn6 O1_4 1_555 1_555
Zn4_3 O1_4 1_555 1_555
O1_4 H1_4 1_555 1_555
O2_4 Zn8_3 1_555 1_555
O3_4 Zn6 1_555 1_555
O15_2 C7_4 1_555 1_555
O5_4 Zn8_3 1_555 1_555
C1_4 O2_4 1_555 1_555
C2_4 C1_4 1_555 1_555
C3_4 C2_4 1_555 1_555
H2_4 C3_4 1_555 1_555
C4_4 C3_4 1_555 1_555
C5_4 C2_4 1_555 1_555
H3_4 C5_4 1_555 1_555
C6_4 C4_4 1_555 1_555
H4_4 C6_4 1_555 1_555
C7_4 O5_4 1_555 1_555
C8_4 C7_4 1_555 1_555
C9_4 C8_4 1_555 1_555
H5_4 C9_4 1_555 1_555
C10_4 C9_4 1_555 1_555
H6_4 C10_4 1_555 1_555
C11_4 C8_4 1_555 1_555
H7_4 C11_4 1_555 1_555
C12_4 C10_4 1_555 1_555
C13_4 C4_4 1_555 1_555
C14_4 C13_4 1_555 1_555
C15_4 C14_4 1_555 1_555
C16_4 C15_4 1_555 1_555
O11_2 C16_4 1_555 1_555
O14 C16_4 1_555 1_555
C17_4 C6_4 1_555 1_555
H8_4 C17_4 1_555 1_555
H9_4 C14_4 1_555 1_555
C18_4 C5_4 1_555 1_555
H10_4 C18_4 1_555 1_555
C19_4 C12_4 1_555 1_555
C20_4 C19_4 1_555 1_555
C21_4 C20_4 1_555 1_555
O16_2 C21_4 1_555 1_555
O12_2 C21_4 1_555 1_555
C22_4 C20_4 1_555 1_555
H11_4 C22_4 1_555 1_555
C23_4 C22_4 1_555 1_555
H12_4 C23_4 1_555 1_555
C24_4 C11_4 1_555 1_555
H13_4 C19_4 1_555 1_555
O13_2 Zn8_3 1_555 1_555
O3_4 C1_4 1_555 1_555
C12_4 C24_4 1_555 1_555
C13_4 C18_4 1_555 1_555
C15_4 C17_4 1_555 1_555
C23_4 C24_4 1_555 1_555

#END
