
###############################################################################
#
# This file contains modified crystal structure data generated from the
# MOF subset of the Cambridge Structural Database (CSD) v543 
# hosted by the Cambridge Crystallographic Data Centre (CCDC).
#
# This work is licensed under the Creative Commons
# Attribution-NonCommercial-ShareAlike 4.0 International License.
# To view a copy of this license, visit
# http://creativecommons.org/licenses/by-nc-sa/4.0/
# or send a letter to
# Creative Commons, PO Box 1866, Mountain View, CA 94042, USA.
#
# CIF created using the CSD Python API on 29 September 2022
# The structure has been converted into the P1 space group
# The structure has a 3D framework
# The original CSD entry IDORAW is in the tetragonal crystal system
# The original CSD entry IDORAW is in a Sohncke space group
# The framework has been calculated to contain at least 10.0% void space
# The void calculation uses a probe of radius 1.32A, grid spacing 0.4
# H atom positions have been added when not included in the experimental data
#
###############################################################################

data_IDORAW
_chemical_formula_moiety         '(C352 H384 Cu16 Mn16 N48 O142)n'
_symmetry_cell_setting           triclinic
_symmetry_space_group_name_H-M   'P 1'
_symmetry_Int_Tables_number      1
_space_group_name_Hall           'P 1'
loop_
_symmetry_equiv_pos_site_id
_symmetry_equiv_pos_as_xyz
1 x,y,z
_cell_length_a                   20.467(3)
_cell_length_b                   20.467(3)
_cell_length_c                   34.344(7)
_cell_angle_alpha                90
_cell_angle_beta                 90
_cell_angle_gamma                90
_cell_volume                     14386.6
loop_
_atom_site_label
_atom_site_type_symbol
_atom_site_fract_x
_atom_site_fract_y
_atom_site_fract_z
Mn1 Mn 0.31852(4) 0.13038(4) 0.19785(2)
Mn2 Mn 0.11302(4) 0.31028(4) 0.21380(2)
Cu2 Cu 0.45192(3) 0.17063(4) 0.063902(19)
C1 C 0.3448(3) 0.0513(3) 0.03046(14)
H1 H 0.3882 0.0381 0.0316
C2 C 0.3014(3) 0.0219(3) 0.00379(14)
C3 C 0.2372(3) 0.0435(3) 0.00110(15)
C4 C 0.2144(3) 0.0911(3) 0.02598(16)
H3 H 0.1711 0.1044 0.0244
C5 C 0.2556(3) 0.1196(3) 0.05362(15)
H4 H 0.2395 0.1508 0.0708
C6 C 0.3219(3) 0.1005(2) 0.05521(15)
C9 C 0.3582(3) 0.1363(2) 0.11685(15)
C10 C 0.4164(3) 0.1630(3) 0.13996(15)
H8 H 0.3610 0.2527 0.0020
C20 C 0.5662(3) 0.1647(3) 0.02265(16)
C21 C 0.1893(3) 0.1898(3) 0.21311(15)
C22 C 0.2402(3) 0.2475(2) 0.21238(16)
N2 N 0.3674(2) 0.1319(2) 0.07976(13)
N4 N 0.4524(2) 0.1670(2) 0.00616(12)
O1 O 0.62277(18) 0.1616(2) 0.01049(11)
O3 O 0.4433(2) 0.2828(2) 0.06278(14)
O4 O 0.5494(2) 0.1677(3) 0.05775(11)
O5 O 0.2123(2) 0.13348(18) 0.20900(13)
O6 O 0.2985(2) 0.23326(19) 0.20693(13)
O7 O 0.2193(2) 0.30298(19) 0.22000(13)
O8 O 0.1308(2) 0.20500(19) 0.21551(12)
O9 O 0.4653(2) 0.1815(2) 0.12044(11)
O17 O 0.4134(2) 0.1638(2) 0.17614(11)
O18 O 0.30757(19) 0.11697(18) 0.13624(10)
O19 O 0.3384(2) 0.12277(18) 0.26049(11)
O20 O 0.3305(2) 0.02798(17) 0.20693(11)
O21 O 0.1016(2) 0.31979(19) 0.27764(11)
O22 O 0.1281(2) 0.41179(18) 0.22376(10)
O23 O 0.12606(18) 0.31761(19) 0.15126(10)
O24 O 0.0138(2) 0.3016(2) 0.19145(10)
H45 H 0.431463 0.298855 0.0891367
H46 H 0.485776 0.302062 0.0548151
H2 H 0.2096 0.0258 0.9824
C11 C 0.3880(2) 0.1185(3) 0.95411(14)
H5 H 0.4183 0.0848 0.9522
C12 C 0.3320(2) 0.1186(2) 0.93008(14)
C13 C 0.2886(2) 0.1697(3) 0.93377(15)
H6 H 0.2513 0.1700 0.9182
C14 C 0.2983(3) 0.2200(3) 0.95954(16)
H7 H 0.2684 0.2542 0.9609
C15 C 0.3541(3) 0.2195(3) 0.98401(16)
C16 C 0.3976(2) 0.1688(3) 0.98045(13)
C17 C 0.3154(2) 0.0735(3) 0.86717(14)
C18 C 0.3068(3) 0.0095(3) 0.84457(15)
C19 C 0.5116(2) 0.1663(3) 0.99147(15)
N3 N 0.3212(2) 0.0645(2) 0.90514(11)
O2 O 0.52798(17) 0.1695(2) 0.95693(11)
O12 O 0.31761(19) 0.12606(18) 0.84874(10)
O13 O 0.3016(2) 0.0138(2) 0.80855(10)
Mn3 Mn 0.63038(4) 0.18148(4) 0.94785(2)
Mn5 Mn 0.31028(4) 0.11302(4) 0.78620(2)
O11 O 0.3719(2) 0.91179(18) 0.02624(10)
Mn4 Mn 0.38698(4) 0.81028(4) 0.03620(2)
Cu1 Cu 0.31323(4) 0.97107(3) 0.920294(19)
C7 C 0.3560(3) 0.9236(2) 0.99052(15)
C8 C 0.3731(3) 0.8719(3) 0.96085(15)
N1 N 0.3240(2) 0.9732(2) 0.97749(13)
O10 O 0.3984(2) 0.81979(19) 0.97236(11)
O14 O 0.3055(2) 0.9569(2) 0.86371(12)
O15 O 0.2104(2) 0.9357(2) 0.92420(14)
O16 O 0.3570(2) 0.8820(2) 0.92567(11)
H47 H 0.183702 0.96803 0.938747
H48 H 0.192303 0.930222 0.897573
Cu1_2 Cu 0.68677(4) 0.02893(3) 0.420294(19)
C7_2 C 0.6440(3) 0.0764(2) 0.49052(15)
C8_2 C 0.6269(3) 0.1281(3) 0.46085(15)
N1_2 N 0.6760(2) 0.0268(2) 0.47749(13)
O10_2 O 0.6016(2) 0.18021(19) 0.47236(11)
O11_2 O 0.6281(2) 0.08821(18) 0.52624(10)
O14_2 O 0.6945(2) 0.0431(2) 0.36371(12)
O15_2 O 0.7896(2) 0.0643(2) 0.42420(14)
O16_2 O 0.6430(2) 0.1180(2) 0.42567(11)
Mn4_2 Mn 0.61302(4) 0.18972(4) 0.53620(2)
H47_2 H 0.816298 0.0319695 0.438747
H48_2 H 0.807697 0.0697782 0.397573
Mn1_2 Mn 0.68148(4) 0.86962(4) 0.69785(2)
Mn2_2 Mn 0.88698(4) 0.68972(4) 0.71380(2)
Cu2_2 Cu 0.54808(3) 0.82937(4) 0.563902(19)
C1_2 C 0.6552(3) 0.9487(3) 0.53046(14)
H1_2 H 0.6118 0.9619 0.5316
C2_2 C 0.6986(3) 0.9781(3) 0.50379(14)
C3_2 C 0.7628(3) 0.9565(3) 0.50110(15)
H2_2 H 0.7904 0.9742 0.4824
C4_2 C 0.7856(3) 0.9089(3) 0.52598(16)
H3_2 H 0.8289 0.8956 0.5244
C5_2 C 0.7444(3) 0.8804(3) 0.55362(15)
H4_2 H 0.7605 0.8492 0.5708
C6_2 C 0.6781(3) 0.8995(2) 0.55521(15)
C9_2 C 0.6418(3) 0.8637(2) 0.61685(15)
C10_2 C 0.5836(3) 0.8370(3) 0.63996(15)
C11_2 C 0.6120(2) 0.8815(3) 0.45411(14)
H5_2 H 0.5817 0.9152 0.4522
C12_2 C 0.6680(2) 0.8814(2) 0.43008(14)
C13_2 C 0.7114(2) 0.8303(3) 0.43377(15)
H6_2 H 0.7487 0.8300 0.4182
C14_2 C 0.7017(3) 0.7800(3) 0.45954(16)
H7_2 H 0.7316 0.7458 0.4609
C15_2 C 0.6459(3) 0.7805(3) 0.48401(16)
H8_2 H 0.6390 0.7473 0.5020
C16_2 C 0.6024(2) 0.8312(3) 0.48045(13)
C17_2 C 0.6846(2) 0.9265(3) 0.36717(14)
C18_2 C 0.6932(3) 0.9905(3) 0.34457(15)
C19_2 C 0.4884(2) 0.8337(3) 0.49147(15)
C20_2 C 0.4338(3) 0.8353(3) 0.52265(16)
C21_2 C 0.8107(3) 0.8102(3) 0.71311(15)
C22_2 C 0.7598(3) 0.7525(2) 0.71238(16)
N2_2 N 0.6326(2) 0.8681(2) 0.57976(13)
N3_2 N 0.6788(2) 0.9355(2) 0.40514(11)
N4_2 N 0.5476(2) 0.8330(2) 0.50616(12)
O1_2 O 0.37723(18) 0.8384(2) 0.51049(11)
O2_2 O 0.47202(17) 0.8305(2) 0.45693(11)
O3_2 O 0.5567(2) 0.7172(2) 0.56278(14)
O4_2 O 0.4506(2) 0.8323(3) 0.55775(11)
O5_2 O 0.7877(2) 0.86652(18) 0.70900(13)
O6_2 O 0.7015(2) 0.76674(19) 0.70693(13)
O7_2 O 0.7807(2) 0.69702(19) 0.72000(13)
O8_2 O 0.8692(2) 0.79500(19) 0.71551(12)
O9_2 O 0.5347(2) 0.8185(2) 0.62044(11)
O12_2 O 0.68239(19) 0.87394(18) 0.34874(10)
O13_2 O 0.6984(2) 0.9862(2) 0.30855(10)
O17_2 O 0.5866(2) 0.8362(2) 0.67614(11)
O18_2 O 0.69243(19) 0.88303(18) 0.63624(10)
Mn3_2 Mn 0.36962(4) 0.81852(4) 0.44785(2)
Mn5_2 Mn 0.68972(4) 0.88698(4) 0.28620(2)
O19_2 O 0.6616(2) 0.87723(18) 0.76049(11)
O20_2 O 0.6695(2) 0.97202(17) 0.70693(11)
O21_2 O 0.8984(2) 0.68021(19) 0.77764(11)
O22_2 O 0.8719(2) 0.58821(18) 0.72376(10)
O23_2 O 0.87394(18) 0.68239(19) 0.65126(10)
O24_2 O 0.9862(2) 0.6984(2) 0.69145(10)
H45_2 H 0.568537 0.701145 0.589137
H46_2 H 0.514224 0.697938 0.554815
C19_3 C 0.3337(3) 0.0116(2) 0.24147(15)
C20_3 C 0.3353(3) 0.0662(3) 0.27265(16)
O4_3 O 0.3323(3) 0.0494(2) 0.30775(11)
Mn2_3 Mn 0.18972(4) 0.61302(4) 0.46380(2)
Cu1_3 Cu 0.52893(3) 0.81323(4) 0.170294(19)
Cu2_3 Cu 0.32937(4) 0.95192(3) 0.313902(19)
C1_3 C 0.4487(3) 0.8448(3) 0.28046(14)
H1_3 H 0.4619 0.8882 0.2816
C2_3 C 0.4781(3) 0.8014(3) 0.25379(14)
C3_3 C 0.4565(3) 0.7372(3) 0.25110(15)
H2_3 H 0.4742 0.7096 0.2324
C4_3 C 0.4089(3) 0.7144(3) 0.27598(16)
H3_3 H 0.3956 0.6711 0.2744
C5_3 C 0.3804(3) 0.7556(3) 0.30362(15)
H4_3 H 0.3492 0.7395 0.3208
C6_3 C 0.3995(2) 0.8219(3) 0.30521(15)
C7_3 C 0.5764(2) 0.8560(3) 0.24052(15)
C8_3 C 0.6281(3) 0.8731(3) 0.21085(15)
C9_3 C 0.3637(2) 0.8582(3) 0.36685(15)
C10_3 C 0.3370(3) 0.9164(3) 0.38996(15)
C11_3 C 0.3815(3) 0.8880(2) 0.20411(14)
H5_3 H 0.4152 0.9183 0.2022
C12_3 C 0.3814(2) 0.8320(2) 0.18008(14)
C13_3 C 0.3303(3) 0.7886(2) 0.18377(15)
H6_3 H 0.3300 0.7513 0.1682
C14_3 C 0.2800(3) 0.7983(3) 0.20954(16)
H7_3 H 0.2458 0.7684 0.2109
C15_3 C 0.2805(3) 0.8541(3) 0.23401(16)
H8_3 H 0.2473 0.8610 0.2520
C16_3 C 0.3312(3) 0.8976(2) 0.23045(13)
C17_3 C 0.4265(3) 0.8154(2) 0.11717(14)
C18_3 C 0.4905(3) 0.8068(3) 0.09457(15)
C21_3 C 0.3102(3) 0.6893(3) 0.46311(15)
C22_3 C 0.2525(2) 0.7402(3) 0.46238(16)
N1_3 N 0.5268(2) 0.8240(2) 0.22749(13)
N2_3 N 0.3681(2) 0.8674(2) 0.32976(13)
N3_3 N 0.4355(2) 0.8212(2) 0.15514(11)
N4_3 N 0.3330(2) 0.9524(2) 0.25616(12)
O3_3 O 0.2172(2) 0.9433(2) 0.31278(14)
O5_3 O 0.36652(18) 0.7123(2) 0.45900(13)
O6_3 O 0.26674(19) 0.7985(2) 0.45693(13)
O7_3 O 0.19702(19) 0.7193(2) 0.47000(13)
O8_3 O 0.29500(19) 0.6308(2) 0.46551(12)
O9_3 O 0.3185(2) 0.9653(2) 0.37044(11)
O10_3 O 0.68021(19) 0.8984(2) 0.22236(11)
O11_3 O 0.58821(18) 0.8719(2) 0.27624(10)
O12_3 O 0.37394(18) 0.81761(19) 0.09874(10)
O13_3 O 0.4862(2) 0.8016(2) 0.05855(10)
O14_3 O 0.5431(2) 0.8055(2) 0.11371(12)
O15_3 O 0.5643(2) 0.7104(2) 0.17420(14)
O16_3 O 0.6180(2) 0.8570(2) 0.17567(11)
O17_3 O 0.3362(2) 0.9134(2) 0.42614(11)
O18_3 O 0.38303(18) 0.80757(19) 0.38624(10)
O21_3 O 0.18021(19) 0.6016(2) 0.52764(11)
O22_3 O 0.08821(18) 0.6281(2) 0.47376(10)
O23_3 O 0.18239(19) 0.62606(18) 0.40126(10)
O24_3 O 0.1984(2) 0.5138(2) 0.44145(10)
H45_3 H 0.201145 0.931463 0.339137
H46_3 H 0.197938 0.985776 0.304815
H47_3 H 0.53197 0.683702 0.188747
H48_3 H 0.569778 0.692303 0.147573
O21_4 O 0.81979(19) 0.3984(2) 0.02764(11)
Mn2_4 Mn 0.81028(4) 0.38698(4) 0.96380(2)
Cu1_4 Cu 0.47107(3) 0.18677(4) 0.670294(19)
Cu2_4 Cu 0.67063(4) 0.04808(3) 0.813902(19)
C1_4 C 0.5513(3) 0.1552(3) 0.78046(14)
H1_4 H 0.5381 0.1118 0.7816
C2_4 C 0.5219(3) 0.1986(3) 0.75379(14)
C3_4 C 0.5435(3) 0.2628(3) 0.75110(15)
H2_4 H 0.5258 0.2904 0.7324
C4_4 C 0.5911(3) 0.2856(3) 0.77598(16)
H3_4 H 0.6044 0.3289 0.7744
C5_4 C 0.6196(3) 0.2444(3) 0.80362(15)
H4_4 H 0.6508 0.2605 0.8208
C6_4 C 0.6005(2) 0.1781(3) 0.80521(15)
C7_4 C 0.4236(2) 0.1440(3) 0.74052(15)
C8_4 C 0.3719(3) 0.1269(3) 0.71085(15)
C9_4 C 0.6363(2) 0.1418(3) 0.86685(15)
C10_4 C 0.6630(3) 0.0836(3) 0.88996(15)
C11_4 C 0.6185(3) 0.1120(2) 0.70411(14)
H5_4 H 0.5848 0.0817 0.7022
C12_4 C 0.6186(2) 0.1680(2) 0.68008(14)
C13_4 C 0.6697(3) 0.2114(2) 0.68377(15)
H6_4 H 0.6700 0.2487 0.6682
C14_4 C 0.7200(3) 0.2017(3) 0.70954(16)
H7_4 H 0.7542 0.2316 0.7109
C15_4 C 0.7195(3) 0.1459(3) 0.73401(16)
H8_4 H 0.7527 0.1390 0.7520
C16_4 C 0.6688(3) 0.1024(2) 0.73045(13)
C17_4 C 0.5735(3) 0.1846(2) 0.61717(14)
C18_4 C 0.5095(3) 0.1932(3) 0.59457(15)
C21_4 C 0.6898(3) 0.3107(3) 0.96311(15)
C22_4 C 0.7475(2) 0.2598(3) 0.96238(16)
N1_4 N 0.4732(2) 0.1760(2) 0.72749(13)
N2_4 N 0.6319(2) 0.1326(2) 0.82976(13)
N3_4 N 0.5645(2) 0.1788(2) 0.65514(11)
N4_4 N 0.6670(2) 0.0476(2) 0.75616(12)
O3_4 O 0.7828(2) 0.0567(2) 0.81278(14)
O5_4 O 0.63348(18) 0.2877(2) 0.95900(13)
O6_4 O 0.73326(19) 0.2015(2) 0.95693(13)
O7_4 O 0.80298(19) 0.2807(2) 0.97000(13)
O8_4 O 0.70500(19) 0.3692(2) 0.96551(12)
O9_4 O 0.6815(2) 0.0347(2) 0.87044(11)
O10_4 O 0.31979(19) 0.1016(2) 0.72236(11)
O11_4 O 0.41179(18) 0.1281(2) 0.77624(10)
O12_4 O 0.62606(18) 0.18239(19) 0.59874(10)
O13_4 O 0.5138(2) 0.1984(2) 0.55855(10)
O14_4 O 0.4569(2) 0.1945(2) 0.61371(12)
O15_4 O 0.4357(2) 0.2896(2) 0.67420(14)
O16_4 O 0.3820(2) 0.1430(2) 0.67567(11)
O17_4 O 0.6638(2) 0.0866(2) 0.92614(11)
O18_4 O 0.61697(18) 0.19243(19) 0.88624(10)
O22_4 O 0.91179(18) 0.3719(2) 0.97376(10)
O23_4 O 0.81761(19) 0.37394(18) 0.90126(10)
O24_4 O 0.8016(2) 0.4862(2) 0.94145(10)
H45_4 H 0.798855 0.0685369 0.839137
H46_4 H 0.802062 0.0142235 0.804815
H47_4 H 0.46803 0.316298 0.688747
H48_4 H 0.430222 0.307697 0.647573
C19_4 C 0.6663(3) 0.9884(2) 0.74147(15)
C20_4 C 0.6647(3) 0.9338(3) 0.77265(16)
O4_4 O 0.6677(3) 0.9506(2) 0.80775(11)
Mn1_3 Mn 0.18148(4) 0.63038(4) 0.05215(2)
Cu1_5 Cu 0.18677(4) 0.47107(3) 0.329706(19)
Cu2_5 Cu 0.04808(3) 0.67063(4) 0.186098(19)
C1_5 C 0.1552(3) 0.5513(3) 0.21954(14)
H1_5 H 0.1118 0.5381 0.2184
C2_5 C 0.1986(3) 0.5219(3) 0.24621(14)
C3_5 C 0.2628(3) 0.5435(3) 0.24890(15)
H2_5 H 0.2904 0.5258 0.2676
C4_5 C 0.2856(3) 0.5911(3) 0.22402(16)
H3_5 H 0.3289 0.6044 0.2256
C5_5 C 0.2444(3) 0.6196(3) 0.19638(15)
H4_5 H 0.2605 0.6508 0.1792
C6_5 C 0.1781(3) 0.6005(2) 0.19479(15)
C7_5 C 0.1440(3) 0.4236(2) 0.25948(15)
C8_5 C 0.1269(3) 0.3719(3) 0.28915(15)
C9_5 C 0.1418(3) 0.6363(2) 0.13315(15)
C10_5 C 0.0836(3) 0.6630(3) 0.11004(15)
C11_5 C 0.1120(2) 0.6185(3) 0.29589(14)
H5_5 H 0.0817 0.5848 0.2978
C12_5 C 0.1680(2) 0.6186(2) 0.31992(14)
C13_5 C 0.2114(2) 0.6697(3) 0.31623(15)
H6_5 H 0.2487 0.6700 0.3318
C14_5 C 0.2017(3) 0.7200(3) 0.29046(16)
H7_5 H 0.2316 0.7542 0.2891
C15_5 C 0.1459(3) 0.7195(3) 0.26599(16)
H8_5 H 0.1390 0.7527 0.2480
C16_5 C 0.1024(2) 0.6688(3) 0.26955(13)
C17_5 C 0.1846(2) 0.5735(3) 0.38283(14)
C18_5 C 0.1932(3) 0.5095(3) 0.40543(15)
C21_5 C 0.3107(3) 0.6898(3) 0.03689(15)
C22_5 C 0.2598(3) 0.7475(2) 0.03762(16)
N1_5 N 0.1760(2) 0.4732(2) 0.27251(13)
N2_5 N 0.1326(2) 0.6319(2) 0.17024(13)
N3_5 N 0.1788(2) 0.5645(2) 0.34486(11)
N4_5 N 0.0476(2) 0.6670(2) 0.24384(12)
O3_5 O 0.0567(2) 0.7828(2) 0.18722(14)
O5_5 O 0.2877(2) 0.63348(18) 0.04100(13)
O6_5 O 0.2015(2) 0.73326(19) 0.04307(13)
O7_5 O 0.2807(2) 0.80298(19) 0.03000(13)
O8_5 O 0.3692(2) 0.70500(19) 0.03449(12)
O9_5 O 0.0347(2) 0.6815(2) 0.12956(11)
O14_5 O 0.1945(2) 0.4569(2) 0.38629(12)
O15_5 O 0.2896(2) 0.4357(2) 0.32580(14)
O16_5 O 0.1430(2) 0.3820(2) 0.32433(11)
O17_5 O 0.0866(2) 0.6638(2) 0.07386(11)
O18_5 O 0.19243(19) 0.61697(18) 0.11376(10)
O20_3 O 0.1695(2) 0.52798(17) 0.04307(11)
H45_5 H 0.0685369 0.798855 0.160863
H46_5 H 0.0142235 0.802062 0.195185
H47_5 H 0.316298 0.46803 0.311253
H48_5 H 0.307697 0.430222 0.352427
O19_3 O 0.1616(2) 0.62277(18) 0.98951(11)
C19_5 C 0.9884(2) 0.6663(3) 0.25853(15)
C20_5 C 0.9338(3) 0.6647(3) 0.22735(16)
O1_3 O 0.87723(18) 0.6616(2) 0.23951(11)
O2_3 O 0.97202(17) 0.6695(2) 0.29307(11)
O4_5 O 0.9506(2) 0.6677(3) 0.19225(11)
Mn3_3 Mn 0.86962(4) 0.68148(4) 0.30215(2)
C19_6 C 0.0116(2) 0.3337(3) 0.75853(15)
C20_6 C 0.0662(3) 0.3353(3) 0.72735(16)
O1_4 O 0.12277(18) 0.3384(2) 0.73951(11)
O2_4 O 0.02798(17) 0.3305(2) 0.79307(11)
O4_6 O 0.0494(2) 0.3323(3) 0.69225(11)
Mn3_4 Mn 0.13038(4) 0.31852(4) 0.80215(2)
Mn1_4 Mn 0.81852(4) 0.36962(4) 0.55215(2)
Cu1_6 Cu 0.81323(4) 0.52893(3) 0.829706(19)
Cu2_6 Cu 0.95192(3) 0.32937(4) 0.686098(19)
C1_6 C 0.8448(3) 0.4487(3) 0.71954(14)
H1_6 H 0.8882 0.4619 0.7184
C2_6 C 0.8014(3) 0.4781(3) 0.74621(14)
C3_6 C 0.7372(3) 0.4565(3) 0.74890(15)
H2_6 H 0.7096 0.4742 0.7676
C4_6 C 0.7144(3) 0.4089(3) 0.72402(16)
H3_6 H 0.6711 0.3956 0.7256
C5_6 C 0.7556(3) 0.3804(3) 0.69638(15)
H4_6 H 0.7395 0.3492 0.6792
C6_6 C 0.8219(3) 0.3995(2) 0.69479(15)
C7_6 C 0.8560(3) 0.5764(2) 0.75948(15)
C8_6 C 0.8731(3) 0.6281(3) 0.78915(15)
C9_6 C 0.8582(3) 0.3637(2) 0.63315(15)
C10_6 C 0.9164(3) 0.3370(3) 0.61004(15)
C11_6 C 0.8880(2) 0.3815(3) 0.79589(14)
H5_6 H 0.9183 0.4152 0.7978
C12_6 C 0.8320(2) 0.3814(2) 0.81992(14)
C13_6 C 0.7886(2) 0.3303(3) 0.81623(15)
H6_6 H 0.7513 0.3300 0.8318
C14_6 C 0.7983(3) 0.2800(3) 0.79046(16)
H7_6 H 0.7684 0.2458 0.7891
C15_6 C 0.8541(3) 0.2805(3) 0.76599(16)
H8_6 H 0.8610 0.2473 0.7480
C16_6 C 0.8976(2) 0.3312(3) 0.76955(13)
C17_6 C 0.8154(2) 0.4265(3) 0.88283(14)
C18_6 C 0.8068(3) 0.4905(3) 0.90543(15)
C21_6 C 0.6893(3) 0.3102(3) 0.53689(15)
C22_6 C 0.7402(3) 0.2525(2) 0.53762(16)
N1_6 N 0.8240(2) 0.5268(2) 0.77251(13)
N2_6 N 0.8674(2) 0.3681(2) 0.67024(13)
N3_6 N 0.8212(2) 0.4355(2) 0.84486(11)
N4_6 N 0.9524(2) 0.3330(2) 0.74384(12)
O3_6 O 0.9433(2) 0.2172(2) 0.68722(14)
O5_6 O 0.7123(2) 0.36652(18) 0.54100(13)
O6_6 O 0.7985(2) 0.26674(19) 0.54307(13)
O7_6 O 0.7193(2) 0.19702(19) 0.53000(13)
O8_6 O 0.6308(2) 0.29500(19) 0.53449(12)
O9_6 O 0.9653(2) 0.3185(2) 0.62956(11)
O14_6 O 0.8055(2) 0.5431(2) 0.88629(12)
O15_6 O 0.7104(2) 0.5643(2) 0.82580(14)
O16_6 O 0.8570(2) 0.6180(2) 0.82433(11)
O17_6 O 0.9134(2) 0.3362(2) 0.57386(11)
O18_6 O 0.80757(19) 0.38303(18) 0.61376(10)
O19_4 O 0.8384(2) 0.37723(18) 0.48951(11)
O20_4 O 0.8305(2) 0.47202(17) 0.54307(11)
H45_6 H 0.931463 0.201145 0.660863
H46_6 H 0.985776 0.197938 0.695185
H47_6 H 0.683702 0.53197 0.811253
H48_6 H 0.692303 0.569778 0.852427
H2_7 H 0.0258 0.2096 0.0176
C11_7 C 0.1185(3) 0.3880(2) 0.04589(14)
H5_7 H 0.0848 0.4183 0.0478
C12_7 C 0.1186(2) 0.3320(2) 0.06992(14)
C13_7 C 0.1697(3) 0.2886(2) 0.06623(15)
H6_7 H 0.1700 0.2513 0.0818
C14_7 C 0.2200(3) 0.2983(3) 0.04046(16)
H7_7 H 0.2542 0.2684 0.0391
C15_7 C 0.2195(3) 0.3541(3) 0.01599(16)
C16_7 C 0.1688(3) 0.3976(2) 0.01955(13)
C17_7 C 0.0735(3) 0.3154(2) 0.13283(14)
C18_7 C 0.0095(3) 0.3068(3) 0.15543(15)
C19_7 C 0.1663(3) 0.5116(2) 0.00853(15)
N3_7 N 0.0645(2) 0.3212(2) 0.09486(11)
Cu2_7 Cu 0.17063(4) 0.45192(3) 0.936098(19)
C1_7 C 0.0513(3) 0.3448(3) 0.96954(14)
H1_7 H 0.0381 0.3882 0.9684
C2_7 C 0.0219(3) 0.3014(3) 0.99621(14)
C3_7 C 0.0435(3) 0.2372(3) 0.99890(15)
C4_7 C 0.0911(3) 0.2144(3) 0.97402(16)
H3_7 H 0.1044 0.1711 0.9756
C5_7 C 0.1196(3) 0.2556(3) 0.94638(15)
H4_7 H 0.1508 0.2395 0.9292
C6_7 C 0.1005(2) 0.3219(3) 0.94479(15)
C9_7 C 0.1363(2) 0.3582(3) 0.88315(15)
C10_7 C 0.1630(3) 0.4164(3) 0.86004(15)
H8_7 H 0.2527 0.3610 0.9980
C20_7 C 0.1647(3) 0.5662(3) 0.97735(16)
C21_7 C 0.1898(3) 0.1893(3) 0.78689(15)
C22_7 C 0.2475(2) 0.2402(3) 0.78762(16)
N2_7 N 0.1319(2) 0.3674(2) 0.92024(13)
N4_7 N 0.1670(2) 0.4524(2) 0.99384(12)
O3_7 O 0.2828(2) 0.4433(2) 0.93722(14)
O4_7 O 0.1677(3) 0.5494(2) 0.94225(11)
O5_7 O 0.13348(18) 0.2123(2) 0.79100(13)
O6_7 O 0.23326(19) 0.2985(2) 0.79307(13)
O7_7 O 0.30298(19) 0.2193(2) 0.78000(13)
O8_7 O 0.20500(19) 0.1308(2) 0.78449(12)
O9_7 O 0.1815(2) 0.4653(2) 0.87956(11)
O17_7 O 0.1638(2) 0.4134(2) 0.82386(11)
O18_7 O 0.11697(18) 0.30757(19) 0.86376(10)
H45_7 H 0.298855 0.431463 0.910863
H46_7 H 0.302062 0.485776 0.945185
Cu1_7 Cu 0.97107(3) 0.31323(4) 0.079706(19)
C7_7 C 0.9236(2) 0.3560(3) 0.00948(15)
C8_7 C 0.8719(3) 0.3731(3) 0.03915(15)
N1_7 N 0.9732(2) 0.3240(2) 0.02251(13)
O14_7 O 0.9569(2) 0.3055(2) 0.13629(12)
O15_7 O 0.9357(2) 0.2104(2) 0.07580(14)
O16_7 O 0.8820(2) 0.3570(2) 0.07433(11)
H47_7 H 0.96803 0.183702 0.0612529
H48_7 H 0.930222 0.192303 0.102427
Cu1_8 Cu 0.02893(3) 0.68677(4) 0.579706(19)
C7_8 C 0.0764(2) 0.6440(3) 0.50948(15)
C8_8 C 0.1281(3) 0.6269(3) 0.53915(15)
N1_8 N 0.0268(2) 0.6760(2) 0.52251(13)
O14_8 O 0.0431(2) 0.6945(2) 0.63629(12)
O15_8 O 0.0643(2) 0.7896(2) 0.57580(14)
O16_8 O 0.1180(2) 0.6430(2) 0.57433(11)
H47_8 H 0.0319695 0.816298 0.561253
H48_8 H 0.0697782 0.807697 0.602427
Cu2_8 Cu 0.82937(4) 0.54808(3) 0.436098(19)
C1_8 C 0.9487(3) 0.6552(3) 0.46954(14)
H1_8 H 0.9619 0.6118 0.4684
C2_8 C 0.9781(3) 0.6986(3) 0.49621(14)
C3_8 C 0.9565(3) 0.7628(3) 0.49890(15)
H2_8 H 0.9742 0.7904 0.5176
C4_8 C 0.9089(3) 0.7856(3) 0.47402(16)
H3_8 H 0.8956 0.8289 0.4756
C5_8 C 0.8804(3) 0.7444(3) 0.44638(15)
H4_8 H 0.8492 0.7605 0.4292
C6_8 C 0.8995(2) 0.6781(3) 0.44479(15)
C9_8 C 0.8637(2) 0.6418(3) 0.38315(15)
C10_8 C 0.8370(3) 0.5836(3) 0.36004(15)
C11_8 C 0.8815(3) 0.6120(2) 0.54589(14)
H5_8 H 0.9152 0.5817 0.5478
C12_8 C 0.8814(2) 0.6680(2) 0.56992(14)
C13_8 C 0.8303(3) 0.7114(2) 0.56623(15)
H6_8 H 0.8300 0.7487 0.5818
C14_8 C 0.7800(3) 0.7017(3) 0.54046(16)
H7_8 H 0.7458 0.7316 0.5391
C15_8 C 0.7805(3) 0.6459(3) 0.51599(16)
H8_8 H 0.7473 0.6390 0.4980
C16_8 C 0.8312(3) 0.6024(2) 0.51955(13)
C17_8 C 0.9265(3) 0.6846(2) 0.63283(14)
C18_8 C 0.9905(3) 0.6932(3) 0.65543(15)
C19_8 C 0.8337(3) 0.4884(2) 0.50853(15)
C20_8 C 0.8353(3) 0.4338(3) 0.47735(16)
C21_8 C 0.8102(3) 0.8107(3) 0.28689(15)
C22_8 C 0.7525(2) 0.7598(3) 0.28762(16)
N2_8 N 0.8681(2) 0.6326(2) 0.42024(13)
N3_8 N 0.9355(2) 0.6788(2) 0.59486(11)
N4_8 N 0.8330(2) 0.5476(2) 0.49384(12)
O3_8 O 0.7172(2) 0.5567(2) 0.43722(14)
O4_8 O 0.8323(3) 0.4506(2) 0.44225(11)
O5_8 O 0.86652(18) 0.7877(2) 0.29100(13)
O6_8 O 0.76674(19) 0.7015(2) 0.29307(13)
O7_8 O 0.69702(19) 0.7807(2) 0.28000(13)
O8_8 O 0.79500(19) 0.8692(2) 0.28449(12)
O9_8 O 0.8185(2) 0.5347(2) 0.37956(11)
O17_8 O 0.8362(2) 0.5866(2) 0.32386(11)
O18_8 O 0.88303(18) 0.69243(19) 0.36376(10)
H45_8 H 0.701145 0.568537 0.410863
H46_8 H 0.697938 0.514224 0.445185
C23 C 0.0086(3) 0.1183(3) 0.88133(19)
C24 C 0.0646(3) 0.1435(3) 0.86480(17)
H9 H 0.0616 0.1755 0.8457
C25 C 0.1264(3) 0.1208(4) 0.87674(17)
H10 H 0.1640 0.1384 0.8658
C26 C 0.1312(4) 0.0723(4) 0.9048(2)
H11 H 0.1718 0.0563 0.9123
C27 C 0.0766(4) 0.0488(4) 0.9211(3)
H12 H 0.0802 0.0166 0.9400
C28 C 0.0165(4) 0.0699(3) 0.9110(2)
H13 H 0.9799 0.0528 0.9234
C29 C 0.9335(5) 0.1389(6) 0.8249(2)
H14 H 0.8895 0.1506 0.8182
H15 H 0.9436 0.0969 0.8140
H16 H 0.9631 0.1709 0.8146
N5 N 0.9183(2) 0.2020(2) 0.88587(14)
C30 C 0.9324(4) 0.2036(5) 0.92863(19)
H17 H 0.9135 0.1659 0.9408
H18 H 0.9138 0.2424 0.9398
H19 H 0.9788 0.2036 0.9327
C31 C 0.9464(4) 0.2589(3) 0.8666(3)
H20 H 0.9932 0.2572 0.8685
H21 H 0.9308 0.2979 0.8791
H22 H 0.9337 0.2592 0.8397
C32 C 0.8462(3) 0.2086(4) 0.8817(2)
H23 H 0.8250 0.1721 0.8939
H24 H 0.8349 0.2097 0.8546
H25 H 0.8320 0.2484 0.8939
C33 C 0.9403(3) 0.1363(3) 0.86807(19)
H26 H 0.9105 0.1024 0.8777
H13_2 H 0.0201 0.9472 0.4234
C29_2 C 0.0665(5) 0.8611(6) 0.3249(2)
H14_2 H 0.1105 0.8494 0.3182
H15_2 H 0.0564 0.9031 0.3140
H16_2 H 0.0369 0.8291 0.3146
N5_2 N 0.0817(2) 0.7980(2) 0.38587(14)
C30_2 C 0.0676(4) 0.7964(5) 0.42863(19)
H17_2 H 0.0865 0.8341 0.4408
H18_2 H 0.0862 0.7576 0.4398
H19_2 H 0.0212 0.7964 0.4327
C31_2 C 0.0536(4) 0.7411(3) 0.3666(3)
H20_2 H 0.0068 0.7428 0.3685
H21_2 H 0.0692 0.7021 0.3791
H22_2 H 0.0663 0.7408 0.3397
C32_2 C 0.1538(3) 0.7914(4) 0.3817(2)
H23_2 H 0.1750 0.8279 0.3939
H24_2 H 0.1651 0.7903 0.3546
H25_2 H 0.1680 0.7516 0.3939
C33_2 C 0.0597(3) 0.8637(3) 0.36807(19)
H26_2 H 0.0895 0.8976 0.3777
C23_2 C 0.9914(3) 0.8817(3) 0.38133(19)
C24_2 C 0.9354(3) 0.8565(3) 0.36480(17)
H9_2 H 0.9384 0.8245 0.3457
C25_2 C 0.8736(3) 0.8792(4) 0.37674(17)
H10_2 H 0.8360 0.8616 0.3658
C26_2 C 0.8688(4) 0.9277(4) 0.4048(2)
H11_2 H 0.8282 0.9437 0.4123
C27_2 C 0.9234(4) 0.9512(4) 0.4211(3)
H12_2 H 0.9198 0.9834 0.4400
C28_2 C 0.9835(4) 0.9301(3) 0.4110(2)
C23_3 C 0.3817(3) 0.5086(3) 0.13133(19)
C24_3 C 0.3565(3) 0.5646(3) 0.11480(17)
H9_3 H 0.3245 0.5616 0.0957
C25_3 C 0.3792(4) 0.6264(3) 0.12674(17)
H10_3 H 0.3616 0.6640 0.1158
C26_3 C 0.4277(4) 0.6312(4) 0.1548(2)
H11_3 H 0.4437 0.6718 0.1623
C27_3 C 0.4512(4) 0.5766(4) 0.1711(3)
H12_3 H 0.4834 0.5802 0.1900
C28_3 C 0.4301(3) 0.5165(4) 0.1610(2)
H13_3 H 0.4472 0.4799 0.1734
C29_3 C 0.3611(6) 0.4335(5) 0.0749(2)
H14_3 H 0.3494 0.3895 0.0682
H15_3 H 0.4031 0.4436 0.0640
H16_3 H 0.3291 0.4631 0.0646
N5_3 N 0.2980(2) 0.4183(2) 0.13587(14)
C30_3 C 0.2964(5) 0.4324(4) 0.17863(19)
H17_3 H 0.3341 0.4135 0.1908
H18_3 H 0.2576 0.4138 0.1898
H19_3 H 0.2964 0.4788 0.1827
C31_3 C 0.2411(3) 0.4464(4) 0.1166(3)
H20_3 H 0.2428 0.4932 0.1185
H21_3 H 0.2021 0.4308 0.1291
H22_3 H 0.2408 0.4337 0.0897
C32_3 C 0.2914(4) 0.3462(3) 0.1317(2)
H23_3 H 0.3279 0.3250 0.1439
H24_3 H 0.2903 0.3349 0.1046
H25_3 H 0.2516 0.3320 0.1439
C33_3 C 0.3637(3) 0.4403(3) 0.11807(19)
H26_3 H 0.3976 0.4105 0.1277
C23_4 C 0.6183(3) 0.4914(3) 0.63133(19)
C24_4 C 0.6435(3) 0.4354(3) 0.61480(17)
H9_4 H 0.6755 0.4384 0.5957
C25_4 C 0.6208(4) 0.3736(3) 0.62674(17)
H10_4 H 0.6384 0.3360 0.6158
C26_4 C 0.5723(4) 0.3688(4) 0.6548(2)
H11_4 H 0.5563 0.3282 0.6623
C27_4 C 0.5488(4) 0.4234(4) 0.6711(3)
H12_4 H 0.5166 0.4198 0.6900
C28_4 C 0.5699(3) 0.4835(4) 0.6610(2)
H13_4 H 0.5528 0.5201 0.6734
C29_4 C 0.6389(6) 0.5665(5) 0.5749(2)
H14_4 H 0.6506 0.6105 0.5682
H15_4 H 0.5969 0.5564 0.5640
H16_4 H 0.6709 0.5369 0.5646
N5_4 N 0.7020(2) 0.5817(2) 0.63587(14)
C30_4 C 0.7036(5) 0.5676(4) 0.67863(19)
H17_4 H 0.6659 0.5865 0.6908
H18_4 H 0.7424 0.5862 0.6898
H19_4 H 0.7036 0.5212 0.6827
C31_4 C 0.7589(3) 0.5536(4) 0.6166(3)
H20_4 H 0.7572 0.5068 0.6185
H21_4 H 0.7979 0.5692 0.6291
H22_4 H 0.7592 0.5663 0.5897
C32_4 C 0.7086(4) 0.6538(3) 0.6317(2)
H23_4 H 0.6721 0.6750 0.6439
H24_4 H 0.7097 0.6651 0.6046
H25_4 H 0.7484 0.6680 0.6439
C33_4 C 0.6363(3) 0.5597(3) 0.61807(19)
H26_4 H 0.6024 0.5895 0.6277
C23_5 C 0.4914(3) 0.6183(3) 0.36867(19)
C24_5 C 0.4354(3) 0.6435(3) 0.38520(17)
H9_5 H 0.4384 0.6755 0.4043
C25_5 C 0.3736(3) 0.6208(4) 0.37326(17)
H10_5 H 0.3360 0.6384 0.3842
C26_5 C 0.3688(4) 0.5723(4) 0.3452(2)
H11_5 H 0.3282 0.5563 0.3377
C27_5 C 0.4234(4) 0.5488(4) 0.3289(3)
H12_5 H 0.4198 0.5166 0.3100
C28_5 C 0.4835(4) 0.5699(3) 0.3390(2)
H13_5 H 0.5201 0.5528 0.3266
C29_5 C 0.5665(5) 0.6389(6) 0.4251(2)
H14_5 H 0.6105 0.6506 0.4318
H15_5 H 0.5564 0.5969 0.4360
H16_5 H 0.5369 0.6709 0.4354
N5_5 N 0.5817(2) 0.7020(2) 0.36413(14)
C30_5 C 0.5676(4) 0.7036(5) 0.32137(19)
H17_5 H 0.5865 0.6659 0.3092
H18_5 H 0.5862 0.7424 0.3102
H19_5 H 0.5212 0.7036 0.3173
C31_5 C 0.5536(4) 0.7589(3) 0.3834(3)
H20_5 H 0.5068 0.7572 0.3815
H21_5 H 0.5692 0.7979 0.3709
H22_5 H 0.5663 0.7592 0.4103
C32_5 C 0.6538(3) 0.7086(4) 0.3683(2)
H23_5 H 0.6750 0.6721 0.3561
H24_5 H 0.6651 0.7097 0.3954
H25_5 H 0.6680 0.7484 0.3561
C33_5 C 0.5597(3) 0.6363(3) 0.38193(19)
H26_5 H 0.5895 0.6024 0.3723
C23_6 C 0.5086(3) 0.3817(3) 0.86867(19)
C24_6 C 0.5646(3) 0.3565(3) 0.88520(17)
H9_6 H 0.5616 0.3245 0.9043
C25_6 C 0.6264(3) 0.3792(4) 0.87326(17)
H10_6 H 0.6640 0.3616 0.8842
C26_6 C 0.6312(4) 0.4277(4) 0.8452(2)
H11_6 H 0.6718 0.4437 0.8377
C27_6 C 0.5766(4) 0.4512(4) 0.8289(3)
H12_6 H 0.5802 0.4834 0.8100
C28_6 C 0.5165(4) 0.4301(3) 0.8390(2)
H13_6 H 0.4799 0.4472 0.8266
C29_6 C 0.4335(5) 0.3611(6) 0.9251(2)
H14_6 H 0.3895 0.3494 0.9318
H15_6 H 0.4436 0.4031 0.9360
H16_6 H 0.4631 0.3291 0.9354
N5_6 N 0.4183(2) 0.2980(2) 0.86413(14)
C30_6 C 0.4324(4) 0.2964(5) 0.82137(19)
H17_6 H 0.4135 0.3341 0.8092
H18_6 H 0.4138 0.2576 0.8102
H19_6 H 0.4788 0.2964 0.8173
C31_6 C 0.4464(4) 0.2411(3) 0.8834(3)
H20_6 H 0.4932 0.2428 0.8815
H21_6 H 0.4308 0.2021 0.8709
H22_6 H 0.4337 0.2408 0.9103
C32_6 C 0.3462(3) 0.2914(4) 0.8683(2)
H23_6 H 0.3250 0.3279 0.8561
H24_6 H 0.3349 0.2903 0.8954
H25_6 H 0.3320 0.2516 0.8561
C33_6 C 0.4403(3) 0.3637(3) 0.88193(19)
H26_6 H 0.4105 0.3976 0.8723
C23_7 C 0.1183(3) 0.0086(3) 0.11867(19)
C24_7 C 0.1435(3) 0.0646(3) 0.13520(17)
H9_7 H 0.1755 0.0616 0.1543
C25_7 C 0.1208(4) 0.1264(3) 0.12326(17)
H10_7 H 0.1384 0.1640 0.1342
C26_7 C 0.0723(4) 0.1312(4) 0.0952(2)
H11_7 H 0.0563 0.1718 0.0877
C27_7 C 0.0488(4) 0.0766(4) 0.0789(3)
H12_7 H 0.0166 0.0802 0.0600
C28_7 C 0.0699(3) 0.0165(4) 0.0890(2)
H13_7 H 0.0528 0.9799 0.0766
C29_7 C 0.1389(6) 0.9335(5) 0.1751(2)
H14_7 H 0.1506 0.8895 0.1818
H15_7 H 0.0969 0.9436 0.1860
H16_7 H 0.1709 0.9631 0.1854
N5_7 N 0.2020(2) 0.9183(2) 0.11413(14)
C30_7 C 0.2036(5) 0.9324(4) 0.07137(19)
H17_7 H 0.1659 0.9135 0.0592
H18_7 H 0.2424 0.9138 0.0602
H19_7 H 0.2036 0.9788 0.0673
C31_7 C 0.2589(3) 0.9464(4) 0.1334(3)
H20_7 H 0.2572 0.9932 0.1315
H21_7 H 0.2979 0.9308 0.1209
H22_7 H 0.2592 0.9337 0.1603
C32_7 C 0.2086(4) 0.8462(3) 0.1183(2)
H23_7 H 0.1721 0.8250 0.1061
H24_7 H 0.2097 0.8349 0.1454
H25_7 H 0.2484 0.8320 0.1061
C33_7 C 0.1363(3) 0.9403(3) 0.13193(19)
H26_7 H 0.1024 0.9105 0.1223
H13_8 H 0.9472 0.0201 0.5766
C29_8 C 0.8611(6) 0.0665(5) 0.6751(2)
H14_8 H 0.8494 0.1105 0.6818
H15_8 H 0.9031 0.0564 0.6860
H16_8 H 0.8291 0.0369 0.6854
N5_8 N 0.7980(2) 0.0817(2) 0.61413(14)
C30_8 C 0.7964(5) 0.0676(4) 0.57137(19)
H17_8 H 0.8341 0.0865 0.5592
H18_8 H 0.7576 0.0862 0.5602
H19_8 H 0.7964 0.0212 0.5673
C31_8 C 0.7411(3) 0.0536(4) 0.6334(3)
H20_8 H 0.7428 0.0068 0.6315
H21_8 H 0.7021 0.0692 0.6209
H22_8 H 0.7408 0.0663 0.6603
C32_8 C 0.7914(4) 0.1538(3) 0.6183(2)
H23_8 H 0.8279 0.1750 0.6061
H24_8 H 0.7903 0.1651 0.6454
H25_8 H 0.7516 0.1680 0.6061
C33_8 C 0.8637(3) 0.0597(3) 0.63193(19)
H26_8 H 0.8976 0.0895 0.6223
C23_8 C 0.8817(3) 0.9914(3) 0.61867(19)
C24_8 C 0.8565(3) 0.9354(3) 0.63520(17)
H9_8 H 0.8245 0.9384 0.6543
C25_8 C 0.8792(4) 0.8736(3) 0.62326(17)
H10_8 H 0.8616 0.8360 0.6342
C26_8 C 0.9277(4) 0.8688(4) 0.5952(2)
H11_8 H 0.9437 0.8282 0.5877
C27_8 C 0.9512(4) 0.9234(4) 0.5789(3)
H12_8 H 0.9834 0.9198 0.5600
C28_8 C 0.9301(3) 0.9835(4) 0.5890(2)
C37 C 0.5057(4) 0.0356(5) 0.8867(3)
H29 H 0.5095 0.0695 0.9046
C38 C 0.4727(4) 0.0420(5) 0.8537(3)
H30 H 0.4507 0.0812 0.8499
H31 H 0.4406 0.0069 0.8051
C34 C 0.5022(5) 0.9419(6) 0.8273(3)
C35 C 0.5355(7) 0.9279(5) 0.8617(3)
H27 H 0.5580 0.8885 0.8636
C36 C 0.5364(8) 0.9699(10) 0.8934(4)
H28 H 0.5548 0.9582 0.9171
C39 C 0.4680(5) 0.9987(4) 0.8261(3)
C40 C 0.5014(6) 0.9206(6) 0.7577(4)
H32 H 0.5355 0.9526 0.7556
H33 H 0.4597 0.9418 0.7555
H34 H 0.5059 0.8889 0.7373
N6 N 0.4519(6) 0.8373(6) 0.7989(4)
C41 C 0.3762(8) 0.8594(10) 0.8033(6)
H35 H 0.3740 0.9001 0.8170
H36 H 0.3526 0.8266 0.8174
H37 H 0.3572 0.8645 0.7779
C42 C 0.451(3) 0.8243(15) 0.8454(8)
H38 H 0.4507 0.8654 0.8589
H39 H 0.4899 0.8004 0.8526
H40 H 0.4133 0.7995 0.8522
C43 C 0.4528(9) 0.7755(10) 0.7770(8)
H41 H 0.4137 0.7512 0.7825
H42 H 0.4902 0.7502 0.7847
H43 H 0.4552 0.7846 0.7496
C44 C 0.5060(6) 0.8871(6) 0.7965(3)
H44 H 0.5483 0.8650 0.7985
C34_2 C 0.4978(5) 0.0581(6) 0.3273(3)
C35_2 C 0.4645(7) 0.0721(5) 0.3617(3)
H27_2 H 0.4420 0.1115 0.3636
C36_2 C 0.4636(8) 0.0301(10) 0.3934(4)
H28_2 H 0.4452 0.0418 0.4171
C39_2 C 0.5320(5) 0.0013(4) 0.3261(3)
C40_2 C 0.4986(6) 0.0794(6) 0.2577(4)
H32_2 H 0.4645 0.0474 0.2556
H33_2 H 0.5403 0.0582 0.2555
H34_2 H 0.4941 0.1111 0.2373
N6_2 N 0.5481(6) 0.1627(6) 0.2989(4)
C41_2 C 0.6238(8) 0.1406(10) 0.3033(6)
H35_2 H 0.6260 0.0999 0.3170
H36_2 H 0.6474 0.1734 0.3174
H37_2 H 0.6428 0.1355 0.2779
C42_2 C 0.549(3) 0.1757(15) 0.3454(8)
H38_2 H 0.5493 0.1346 0.3589
H39_2 H 0.5101 0.1996 0.3526
H40_2 H 0.5867 0.2005 0.3522
C43_2 C 0.5472(9) 0.2245(10) 0.2770(8)
H41_2 H 0.5863 0.2488 0.2825
H42_2 H 0.5098 0.2498 0.2847
H43_2 H 0.5448 0.2154 0.2496
C44_2 C 0.4940(6) 0.1129(6) 0.2965(3)
H44_2 H 0.4517 0.1350 0.2985
C37_2 C 0.4943(4) 0.9644(5) 0.3867(3)
H29_2 H 0.4905 0.9305 0.4046
C38_2 C 0.5273(4) 0.9580(5) 0.3537(3)
H30_2 H 0.5493 0.9188 0.3499
H31_2 H 0.5594 0.9931 0.3051
C34_3 C 0.5581(6) 0.0022(5) 0.0773(3)
C35_3 C 0.5721(5) 0.0355(7) 0.1117(3)
H27_3 H 0.6115 0.0580 0.1136
C36_3 C 0.5301(10) 0.0364(8) 0.1434(4)
H28_3 H 0.5418 0.0548 0.1671
C37_3 C 0.4644(5) 0.0057(4) 0.1367(3)
H29_3 H 0.4305 0.0095 0.1546
C40_3 C 0.5794(6) 0.0014(6) 0.0077(4)
H32_3 H 0.5474 0.0355 0.0056
C44_3 C 0.6129(6) 0.0060(6) 0.0465(3)
H44_3 H 0.6350 0.0483 0.0485
H34_3 H 0.6111 0.0059 0.9873
C38_3 C 0.4580(5) 0.9727(4) 0.1037(3)
H30_3 H 0.4188 0.9507 0.0999
C39_3 C 0.5013(4) 0.9680(5) 0.0761(3)
H31_3 H 0.4931 0.9406 0.0551
H33_3 H 0.5582 0.9597 0.0055
N6_3 N 0.6627(6) 0.9519(6) 0.0489(4)
C41_3 C 0.6406(10) 0.8762(8) 0.0533(6)
H35_3 H 0.5999 0.8740 0.0670
H36_3 H 0.6734 0.8526 0.0674
H37_3 H 0.6355 0.8572 0.0279
C42_3 C 0.6757(15) 0.951(3) 0.0954(8)
H38_3 H 0.6346 0.9507 0.1089
H39_3 H 0.6996 0.9899 0.1026
H40_3 H 0.7005 0.9133 0.1022
C43_3 C 0.7245(10) 0.9528(9) 0.0270(8)
H41_3 H 0.7488 0.9137 0.0325
H42_3 H 0.7498 0.9902 0.0347
H43_3 H 0.7154 0.9552 0.9996
C38_4 C 0.5420(5) 0.0273(4) 0.6037(3)
H30_4 H 0.5812 0.0493 0.5999
C39_4 C 0.4987(4) 0.0320(5) 0.5761(3)
H31_4 H 0.5069 0.0594 0.5551
H33_4 H 0.4418 0.0403 0.5055
N6_4 N 0.3373(6) 0.0481(6) 0.5489(4)
C41_4 C 0.3594(10) 0.1238(8) 0.5533(6)
H35_4 H 0.4001 0.1260 0.5670
H36_4 H 0.3266 0.1474 0.5674
H37_4 H 0.3645 0.1428 0.5279
C42_4 C 0.3243(15) 0.049(3) 0.5954(8)
H38_4 H 0.3654 0.0493 0.6089
H39_4 H 0.3004 0.0101 0.6026
H40_4 H 0.2995 0.0867 0.6022
C43_4 C 0.2755(10) 0.0472(9) 0.5270(8)
H41_4 H 0.2512 0.0863 0.5325
H42_4 H 0.2502 0.0098 0.5347
H43_4 H 0.2846 0.0448 0.4996
C34_4 C 0.4419(6) 0.9978(5) 0.5773(3)
C35_4 C 0.4279(5) 0.9645(7) 0.6117(3)
H27_4 H 0.3885 0.9420 0.6136
C36_4 C 0.4699(10) 0.9636(8) 0.6434(4)
H28_4 H 0.4582 0.9452 0.6671
C37_4 C 0.5356(5) 0.9943(4) 0.6367(3)
H29_4 H 0.5695 0.9905 0.6546
C40_4 C 0.4206(6) 0.9986(6) 0.5077(4)
H32_4 H 0.4526 0.9645 0.5056
H34_4 H 0.3889 0.9941 0.4873
C44_4 C 0.3871(6) 0.9940(6) 0.5465(3)
H44_4 H 0.3650 0.9517 0.5485
C38_5 C 0.0273(4) 0.5420(5) 0.3963(3)
H30_5 H 0.0493 0.5812 0.4001
C39_5 C 0.0320(5) 0.4987(4) 0.4239(3)
H31_5 H 0.0594 0.5069 0.4449
H33_5 H 0.0403 0.4418 0.4945
N6_5 N 0.0481(6) 0.3373(6) 0.4511(4)
C41_5 C 0.1238(8) 0.3594(10) 0.4467(6)
H35_5 H 0.1260 0.4001 0.4330
H36_5 H 0.1474 0.3266 0.4326
H37_5 H 0.1428 0.3645 0.4721
C42_5 C 0.049(3) 0.3243(15) 0.4046(8)
H38_5 H 0.0493 0.3654 0.3911
H39_5 H 0.0101 0.3004 0.3974
H40_5 H 0.0867 0.2995 0.3978
C43_5 C 0.0472(9) 0.2755(10) 0.4730(8)
H41_5 H 0.0863 0.2512 0.4675
H42_5 H 0.0098 0.2502 0.4653
H43_5 H 0.0448 0.2846 0.5004
C34_5 C 0.9978(5) 0.4419(6) 0.4227(3)
C35_5 C 0.9645(7) 0.4279(5) 0.3883(3)
H27_5 H 0.9420 0.3885 0.3864
C36_5 C 0.9636(8) 0.4699(10) 0.3566(4)
H28_5 H 0.9452 0.4582 0.3329
C37_5 C 0.9943(4) 0.5356(5) 0.3633(3)
H29_5 H 0.9905 0.5695 0.3454
C40_5 C 0.9986(6) 0.4206(6) 0.4923(4)
H32_5 H 0.9645 0.4526 0.4944
H34_5 H 0.9941 0.3889 0.5127
C44_5 C 0.9940(6) 0.3871(6) 0.4535(3)
H44_5 H 0.9517 0.3650 0.4515
H34_6 H 0.0059 0.6111 0.0127
C34_6 C 0.0022(5) 0.5581(6) 0.9227(3)
C35_6 C 0.0355(7) 0.5721(5) 0.8883(3)
H27_6 H 0.0580 0.6115 0.8864
C36_6 C 0.0364(8) 0.5301(10) 0.8566(4)
H28_6 H 0.0548 0.5418 0.8329
C37_6 C 0.0057(4) 0.4644(5) 0.8633(3)
H29_6 H 0.0095 0.4305 0.8454
C40_6 C 0.0014(6) 0.5794(6) 0.9923(4)
H32_6 H 0.0355 0.5474 0.9944
C44_6 C 0.0060(6) 0.6129(6) 0.9535(3)
H44_6 H 0.0483 0.6350 0.9515
H43_6 H 0.9552 0.7154 0.0004
C38_6 C 0.9727(4) 0.4580(5) 0.8963(3)
H30_6 H 0.9507 0.4188 0.9001
C39_6 C 0.9680(5) 0.5013(4) 0.9239(3)
H31_6 H 0.9406 0.4931 0.9449
H33_6 H 0.9597 0.5582 0.9945
N6_6 N 0.9519(6) 0.6627(6) 0.9511(4)
C41_6 C 0.8762(8) 0.6406(10) 0.9467(6)
H35_6 H 0.8740 0.5999 0.9330
H36_6 H 0.8526 0.6734 0.9326
H37_6 H 0.8572 0.6355 0.9721
C42_6 C 0.951(3) 0.6757(15) 0.9046(8)
H38_6 H 0.9507 0.6346 0.8911
H39_6 H 0.9899 0.6996 0.8974
H40_6 H 0.9133 0.7005 0.8978
C43_6 C 0.9528(9) 0.7245(10) 0.9730(8)
H41_6 H 0.9137 0.7488 0.9675
H42_6 H 0.9902 0.7498 0.9653
C37_7 C 0.0356(5) 0.5057(4) 0.1133(3)
H29_7 H 0.0695 0.5095 0.0954
C38_7 C 0.0420(5) 0.4727(4) 0.1463(3)
H30_7 H 0.0812 0.4507 0.1501
H31_7 H 0.0069 0.4406 0.1949
C34_7 C 0.9419(6) 0.5022(5) 0.1727(3)
C35_7 C 0.9279(5) 0.5355(7) 0.1383(3)
H27_7 H 0.8885 0.5580 0.1364
C36_7 C 0.9699(10) 0.5364(8) 0.1066(4)
H28_7 H 0.9582 0.5548 0.0829
C39_7 C 0.9987(4) 0.4680(5) 0.1739(3)
C40_7 C 0.9206(6) 0.5014(6) 0.2423(4)
H32_7 H 0.9526 0.5355 0.2444
H33_7 H 0.9418 0.4597 0.2445
H34_7 H 0.8889 0.5059 0.2627
N6_7 N 0.8373(6) 0.4519(6) 0.2011(4)
C41_7 C 0.8594(10) 0.3762(8) 0.1967(6)
H35_7 H 0.9001 0.3740 0.1830
H36_7 H 0.8266 0.3526 0.1826
H37_7 H 0.8645 0.3572 0.2221
C42_7 C 0.8243(15) 0.451(3) 0.1546(8)
H38_7 H 0.8654 0.4507 0.1411
H39_7 H 0.8004 0.4899 0.1474
H40_7 H 0.7995 0.4133 0.1478
C43_7 C 0.7755(10) 0.4528(9) 0.2230(8)
H41_7 H 0.7512 0.4137 0.2175
H42_7 H 0.7502 0.4902 0.2153
H43_7 H 0.7846 0.4552 0.2504
C44_7 C 0.8871(6) 0.5060(6) 0.2035(3)
H44_7 H 0.8650 0.5483 0.2015
C34_8 C 0.0581(6) 0.4978(5) 0.6727(3)
C35_8 C 0.0721(5) 0.4645(7) 0.6383(3)
H27_8 H 0.1115 0.4420 0.6364
C36_8 C 0.0301(10) 0.4636(8) 0.6066(4)
H28_8 H 0.0418 0.4452 0.5829
C39_8 C 0.0013(4) 0.5320(5) 0.6739(3)
C40_8 C 0.0794(6) 0.4986(6) 0.7423(4)
H32_8 H 0.0474 0.4645 0.7444
H33_8 H 0.0582 0.5403 0.7445
H34_8 H 0.1111 0.4941 0.7627
N6_8 N 0.1627(6) 0.5481(6) 0.7011(4)
C41_8 C 0.1406(10) 0.6238(8) 0.6967(6)
H35_8 H 0.0999 0.6260 0.6830
H36_8 H 0.1734 0.6474 0.6826
H37_8 H 0.1355 0.6428 0.7221
C42_8 C 0.1757(15) 0.549(3) 0.6546(8)
H38_8 H 0.1346 0.5493 0.6411
H39_8 H 0.1996 0.5101 0.6474
H40_8 H 0.2005 0.5867 0.6478
C43_8 C 0.2245(10) 0.5472(9) 0.7230(8)
H41_8 H 0.2488 0.5863 0.7175
H42_8 H 0.2498 0.5098 0.7153
H43_8 H 0.2154 0.5448 0.7504
C44_8 C 0.1129(6) 0.4940(6) 0.7035(3)
H44_8 H 0.1350 0.4517 0.7015
C37_8 C 0.9644(5) 0.4943(4) 0.6133(3)
H29_8 H 0.9305 0.4905 0.5954
C38_8 C 0.9580(5) 0.5273(4) 0.6463(3)
H30_8 H 0.9188 0.5493 0.6501
H31_8 H 0.9931 0.5594 0.6949
loop_
_geom_bond_atom_site_label_1
_geom_bond_atom_site_label_2
_geom_bond_site_symmetry_1
_geom_bond_site_symmetry_2
Mn1 O5 1_555 1_555
Mn2 O7 1_555 1_555
Cu2 N2 1_555 1_555
C1 H1 1_555 1_555
C2 C1 1_555 1_555
C3 C2 1_555 1_555
C4 C3 1_555 1_555
H3 C4 1_555 1_555
C5 C4 1_555 1_555
H4 C5 1_555 1_555
C6 C1 1_555 1_555
C9 C10 1_555 1_555
C10 O9 1_555 1_555
C20 O1 1_555 1_555
C21 C22 1_555 1_555
C22 O6 1_555 1_555
N2 C6 1_555 1_555
N4 Cu2 1_555 1_555
O3 Cu2 1_555 1_555
O4 Cu2 1_555 1_555
O5 C21 1_555 1_555
O6 Mn1 1_555 1_555
O7 C22 1_555 1_555
O8 Mn2 1_555 1_555
O9 Cu2 1_555 1_555
O17 Mn1 1_555 1_555
O18 Mn1 1_555 1_555
O19 Mn1 1_555 1_555
O20 Mn1 1_555 1_555
O21 Mn2 1_555 1_555
O22 Mn2 1_555 1_555
O23 Mn2 1_555 1_555
O24 Mn2 1_555 1_555
C5 C6 1_555 1_555
C9 N2 1_555 1_555
C9 O18 1_555 1_555
C10 O17 1_555 1_555
C20 O4 1_555 1_555
C21 O8 1_555 1_555
O3 H45 1_555 1_555
O3 H46 1_555 1_555
C11 H5 1_555 1_555
C12 C11 1_555 1_555
C13 C12 1_555 1_555
H6 C13 1_555 1_555
C14 C13 1_555 1_555
H7 C14 1_555 1_555
C15 C14 1_555 1_555
C16 C11 1_555 1_555
C17 C18 1_555 1_555
C18 O13 1_555 1_555
O2 C19 1_555 1_555
O12 C17 1_555 1_555
O13 Mn5 1_555 1_555
Mn3 O2 1_555 1_555
Mn5 O12 1_555 1_555
C12 N3 1_555 1_555
C15 C16 1_555 1_555
C17 N3 1_555 1_555
Mn4 O11 1_555 1_555
Cu1 N1 1_555 1_555
C7 C8 1_555 1_555
C8 O10 1_555 1_555
O14 Cu1 1_555 1_555
O15 Cu1 1_555 1_555
O16 Cu1 1_555 1_555
C7 N1 1_555 1_555
C8 O16 1_555 1_555
O15 H47 1_555 1_555
O15 H48 1_555 1_555
Cu1_2 N1_2 1_555 1_555
C7_2 C8_2 1_555 1_555
C8_2 O10_2 1_555 1_555
O10_2 Mn4_2 1_555 1_555
O11_2 C7_2 1_555 1_555
O14_2 Cu1_2 1_555 1_555
O15_2 Cu1_2 1_555 1_555
O16_2 Cu1_2 1_555 1_555
Mn4_2 O11_2 1_555 1_555
C7_2 N1_2 1_555 1_555
C8_2 O16_2 1_555 1_555
O15_2 H47_2 1_555 1_555
O15_2 H48_2 1_555 1_555
Mn1_2 O5_2 1_555 1_555
Mn2_2 O7_2 1_555 1_555
Cu2_2 N2_2 1_555 1_555
C1_2 H1_2 1_555 1_555
C2_2 C1_2 1_555 1_555
C3_2 C2_2 1_555 1_555
H2_2 C3_2 1_555 1_555
C4_2 C3_2 1_555 1_555
H3_2 C4_2 1_555 1_555
C5_2 C4_2 1_555 1_555
H4_2 C5_2 1_555 1_555
C6_2 C1_2 1_555 1_555
C9_2 C10_2 1_555 1_555
C10_2 O9_2 1_555 1_555
C11_2 H5_2 1_555 1_555
C12_2 C11_2 1_555 1_555
C13_2 C12_2 1_555 1_555
H6_2 C13_2 1_555 1_555
C14_2 C13_2 1_555 1_555
H7_2 C14_2 1_555 1_555
C15_2 C14_2 1_555 1_555
H8_2 C15_2 1_555 1_555
C16_2 C11_2 1_555 1_555
C17_2 C18_2 1_555 1_555
C18_2 O13_2 1_555 1_555
C19_2 C20_2 1_555 1_555
C20_2 O1_2 1_555 1_555
C21_2 C22_2 1_555 1_555
C22_2 O6_2 1_555 1_555
N2_2 C6_2 1_555 1_555
N4_2 Cu2_2 1_555 1_555
O1_2 Mn3_2 1_555 1_555
O2_2 C19_2 1_555 1_555
O3_2 Cu2_2 1_555 1_555
O4_2 Cu2_2 1_555 1_555
O5_2 C21_2 1_555 1_555
O6_2 Mn1_2 1_555 1_555
O7_2 C22_2 1_555 1_555
O8_2 Mn2_2 1_555 1_555
O9_2 Cu2_2 1_555 1_555
O12_2 C17_2 1_555 1_555
O13_2 Mn5_2 1_555 1_555
O17_2 Mn1_2 1_555 1_555
O18_2 Mn1_2 1_555 1_555
Mn3_2 O2_2 1_555 1_555
Mn5_2 O12_2 1_555 1_555
O19_2 Mn1_2 1_555 1_555
O20_2 Mn1_2 1_555 1_555
O21_2 Mn2_2 1_555 1_555
O22_2 Mn2_2 1_555 1_555
O23_2 Mn2_2 1_555 1_555
O24_2 Mn2_2 1_555 1_555
C5_2 C6_2 1_555 1_555
C9_2 N2_2 1_555 1_555
C9_2 O18_2 1_555 1_555
C10_2 O17_2 1_555 1_555
C12_2 N3_2 1_555 1_555
C15_2 C16_2 1_555 1_555
C16_2 N4_2 1_555 1_555
C17_2 N3_2 1_555 1_555
C19_2 N4_2 1_555 1_555
C20_2 O4_2 1_555 1_555
C21_2 O8_2 1_555 1_555
O3_2 H45_2 1_555 1_555
O3_2 H46_2 1_555 1_555
C19_3 C20_3 1_555 1_555
C20_3 O19 1_555 1_555
O20 C19_3 1_555 1_555
C20_3 O4_3 1_555 1_555
Mn3_2 O5_3 1_555 1_555
Mn2_3 O7_3 1_555 1_555
Cu1_3 N1_3 1_555 1_555
Cu2_3 N2_3 1_555 1_555
C1_3 H1_3 1_555 1_555
C2_3 C1_3 1_555 1_555
C3_3 C2_3 1_555 1_555
H2_3 C3_3 1_555 1_555
C4_3 C3_3 1_555 1_555
H3_3 C4_3 1_555 1_555
C5_3 C4_3 1_555 1_555
H4_3 C5_3 1_555 1_555
C6_3 C1_3 1_555 1_555
C7_3 C8_3 1_555 1_555
C8_3 O10_3 1_555 1_555
C9_3 C10_3 1_555 1_555
C10_3 O9_3 1_555 1_555
C11_3 H5_3 1_555 1_555
C12_3 C11_3 1_555 1_555
C13_3 C12_3 1_555 1_555
H6_3 C13_3 1_555 1_555
C14_3 C13_3 1_555 1_555
H7_3 C14_3 1_555 1_555
C15_3 C14_3 1_555 1_555
H8_3 C15_3 1_555 1_555
C16_3 C11_3 1_555 1_555
C17_3 C18_3 1_555 1_555
C18_3 O13_3 1_555 1_555
C21_3 C22_3 1_555 1_555
C22_3 O6_3 1_555 1_555
N1_3 C2_3 1_555 1_555
N2_3 C6_3 1_555 1_555
N3_3 Cu1_3 1_555 1_555
N4_3 Cu2_3 1_555 1_555
O3_3 Cu2_3 1_555 1_555
O5_3 C21_3 1_555 1_555
O6_3 Mn3_2 1_555 1_555
O7_3 C22_3 1_555 1_555
O8_3 Mn2_3 1_555 1_555
O9_3 Cu2_3 1_555 1_555
O10_3 Mn5_2 1_555 1_555
O11_3 C7_3 1_555 1_555
O12_3 C17_3 1_555 1_555
O13_3 Mn4 1_555 1_555
O14_3 Cu1_3 1_555 1_555
O15_3 Cu1_3 1_555 1_555
O16_3 Cu1_3 1_555 1_555
O17_3 Mn3_2 1_555 1_555
O18_3 Mn3_2 1_555 1_555
Mn5_2 O11_3 1_555 1_555
Mn4 O12_3 1_555 1_555
O21_3 Mn2_3 1_555 1_555
O22_3 Mn2_3 1_555 1_555
O23_3 Mn2_3 1_555 1_555
O24_3 Mn2_3 1_555 1_555
C5_3 C6_3 1_555 1_555
C7_3 N1_3 1_555 1_555
C8_3 O16_3 1_555 1_555
C9_3 N2_3 1_555 1_555
C9_3 O18_3 1_555 1_555
C10_3 O17_3 1_555 1_555
C12_3 N3_3 1_555 1_555
C15_3 C16_3 1_555 1_555
C16_3 N4_3 1_555 1_555
C17_3 N3_3 1_555 1_555
C18_3 O14_3 1_555 1_555
C21_3 O8_3 1_555 1_555
O3_3 H45_3 1_555 1_555
O3_3 H46_3 1_555 1_555
O15_3 H47_3 1_555 1_555
O15_3 H48_3 1_555 1_555
Mn3 O5_4 1_555 1_555
Mn2_4 O7_4 1_555 1_555
Cu1_4 N1_4 1_555 1_555
Cu2_4 N2_4 1_555 1_555
C1_4 H1_4 1_555 1_555
C2_4 C1_4 1_555 1_555
C3_4 C2_4 1_555 1_555
H2_4 C3_4 1_555 1_555
C4_4 C3_4 1_555 1_555
H3_4 C4_4 1_555 1_555
C5_4 C4_4 1_555 1_555
H4_4 C5_4 1_555 1_555
C6_4 C1_4 1_555 1_555
C7_4 C8_4 1_555 1_555
C8_4 O10_4 1_555 1_555
C9_4 C10_4 1_555 1_555
C10_4 O9_4 1_555 1_555
C11_4 H5_4 1_555 1_555
C12_4 C11_4 1_555 1_555
C13_4 C12_4 1_555 1_555
H6_4 C13_4 1_555 1_555
C14_4 C13_4 1_555 1_555
H7_4 C14_4 1_555 1_555
C15_4 C14_4 1_555 1_555
H8_4 C15_4 1_555 1_555
C16_4 C11_4 1_555 1_555
C17_4 C18_4 1_555 1_555
C18_4 O13_4 1_555 1_555
C21_4 C22_4 1_555 1_555
C22_4 O6_4 1_555 1_555
N1_4 C2_4 1_555 1_555
N2_4 C6_4 1_555 1_555
N3_4 Cu1_4 1_555 1_555
N4_4 Cu2_4 1_555 1_555
O3_4 Cu2_4 1_555 1_555
O5_4 C21_4 1_555 1_555
O6_4 Mn3 1_555 1_555
O7_4 C22_4 1_555 1_555
O8_4 Mn2_4 1_555 1_555
O9_4 Cu2_4 1_555 1_555
O10_4 Mn5 1_555 1_555
O11_4 C7_4 1_555 1_555
O12_4 C17_4 1_555 1_555
O13_4 Mn4_2 1_555 1_555
O14_4 Cu1_4 1_555 1_555
O15_4 Cu1_4 1_555 1_555
O16_4 Cu1_4 1_555 1_555
O17_4 Mn3 1_555 1_555
O18_4 Mn3 1_555 1_555
Mn5 O11_4 1_555 1_555
Mn4_2 O12_4 1_555 1_555
O22_4 Mn2_4 1_555 1_555
O23_4 Mn2_4 1_555 1_555
O24_4 Mn2_4 1_555 1_555
C5_4 C6_4 1_555 1_555
C7_4 N1_4 1_555 1_555
C8_4 O16_4 1_555 1_555
C9_4 N2_4 1_555 1_555
C9_4 O18_4 1_555 1_555
C10_4 O17_4 1_555 1_555
C12_4 N3_4 1_555 1_555
C15_4 C16_4 1_555 1_555
C16_4 N4_4 1_555 1_555
C17_4 N3_4 1_555 1_555
C18_4 O14_4 1_555 1_555
C21_4 O8_4 1_555 1_555
O3_4 H45_4 1_555 1_555
O3_4 H46_4 1_555 1_555
O15_4 H47_4 1_555 1_555
O15_4 H48_4 1_555 1_555
C19_4 C20_4 1_555 1_555
C20_4 O19_2 1_555 1_555
O20_2 C19_4 1_555 1_555
C20_4 O4_4 1_555 1_555
Mn1_3 O5_5 1_555 1_555
Mn4 O7_5 1_555 1_555
Cu1_5 N1_5 1_555 1_555
Cu2_5 N2_5 1_555 1_555
C1_5 H1_5 1_555 1_555
C2_5 C1_5 1_555 1_555
C3_5 C2_5 1_555 1_555
H2_5 C3_5 1_555 1_555
C4_5 C3_5 1_555 1_555
H3_5 C4_5 1_555 1_555
C5_5 C4_5 1_555 1_555
H4_5 C5_5 1_555 1_555
C6_5 C1_5 1_555 1_555
C7_5 C8_5 1_555 1_555
C8_5 O21 1_555 1_555
C9_5 C10_5 1_555 1_555
C10_5 O9_5 1_555 1_555
C11_5 H5_5 1_555 1_555
C12_5 C11_5 1_555 1_555
C13_5 C12_5 1_555 1_555
H6_5 C13_5 1_555 1_555
C14_5 C13_5 1_555 1_555
H7_5 C14_5 1_555 1_555
C15_5 C14_5 1_555 1_555
H8_5 C15_5 1_555 1_555
C16_5 C11_5 1_555 1_555
C17_5 C18_5 1_555 1_555
C18_5 O24_3 1_555 1_555
C21_5 C22_5 1_555 1_555
C22_5 O6_5 1_555 1_555
N1_5 C2_5 1_555 1_555
N2_5 C6_5 1_555 1_555
N3_5 Cu1_5 1_555 1_555
N4_5 Cu2_5 1_555 1_555
O3_5 Cu2_5 1_555 1_555
O5_5 C21_5 1_555 1_555
O6_5 Mn1_3 1_555 1_555
O7_5 C22_5 1_555 1_555
O8_5 Mn4 1_555 1_555
O9_5 Cu2_5 1_555 1_555
O22 C7_5 1_555 1_555
O23_3 C17_5 1_555 1_555
O14_5 Cu1_5 1_555 1_555
O15_5 Cu1_5 1_555 1_555
O16_5 Cu1_5 1_555 1_555
O17_5 Mn1_3 1_555 1_555
O18_5 Mn1_3 1_555 1_555
O20_3 Mn1_3 1_555 1_555
C5_5 C6_5 1_555 1_555
C7_5 N1_5 1_555 1_555
C8_5 O16_5 1_555 1_555
C9_5 N2_5 1_555 1_555
C9_5 O18_5 1_555 1_555
C10_5 O17_5 1_555 1_555
C12_5 N3_5 1_555 1_555
C15_5 C16_5 1_555 1_555
C16_5 N4_5 1_555 1_555
C17_5 N3_5 1_555 1_555
C18_5 O14_5 1_555 1_555
C21_5 O8_5 1_555 1_555
O3_5 H45_5 1_555 1_555
O3_5 H46_5 1_555 1_555
O15_5 H47_5 1_555 1_555
O15_5 H48_5 1_555 1_555
C19_5 C20_5 1_555 1_555
C20_5 O1_3 1_555 1_555
O1_3 Mn3_3 1_555 1_555
O2_3 C19_5 1_555 1_555
Mn3_3 O2_3 1_555 1_555
C20_5 O4_5 1_555 1_555
C19_6 C20_6 1_555 1_555
C20_6 O1_4 1_555 1_555
O1_4 Mn3_4 1_555 1_555
O2_4 C19_6 1_555 1_555
Mn3_4 O2_4 1_555 1_555
C20_6 O4_6 1_555 1_555
Mn1_4 O5_6 1_555 1_555
Mn4_2 O7_6 1_555 1_555
Cu1_6 N1_6 1_555 1_555
Cu2_6 N2_6 1_555 1_555
C1_6 H1_6 1_555 1_555
C2_6 C1_6 1_555 1_555
C3_6 C2_6 1_555 1_555
H2_6 C3_6 1_555 1_555
C4_6 C3_6 1_555 1_555
H3_6 C4_6 1_555 1_555
C5_6 C4_6 1_555 1_555
H4_6 C5_6 1_555 1_555
C6_6 C1_6 1_555 1_555
C7_6 C8_6 1_555 1_555
C8_6 O21_2 1_555 1_555
C9_6 C10_6 1_555 1_555
C10_6 O9_6 1_555 1_555
C11_6 H5_6 1_555 1_555
C12_6 C11_6 1_555 1_555
C13_6 C12_6 1_555 1_555
H6_6 C13_6 1_555 1_555
C14_6 C13_6 1_555 1_555
H7_6 C14_6 1_555 1_555
C15_6 C14_6 1_555 1_555
H8_6 C15_6 1_555 1_555
C16_6 C11_6 1_555 1_555
C17_6 C18_6 1_555 1_555
C18_6 O24_4 1_555 1_555
C21_6 C22_6 1_555 1_555
C22_6 O6_6 1_555 1_555
N1_6 C2_6 1_555 1_555
N2_6 C6_6 1_555 1_555
N3_6 Cu1_6 1_555 1_555
N4_6 Cu2_6 1_555 1_555
O3_6 Cu2_6 1_555 1_555
O5_6 C21_6 1_555 1_555
O6_6 Mn1_4 1_555 1_555
O7_6 C22_6 1_555 1_555
O8_6 Mn4_2 1_555 1_555
O9_6 Cu2_6 1_555 1_555
O22_2 C7_6 1_555 1_555
O23_4 C17_6 1_555 1_555
O14_6 Cu1_6 1_555 1_555
O15_6 Cu1_6 1_555 1_555
O16_6 Cu1_6 1_555 1_555
O17_6 Mn1_4 1_555 1_555
O18_6 Mn1_4 1_555 1_555
O19_4 Mn1_4 1_555 1_555
O20_4 Mn1_4 1_555 1_555
C5_6 C6_6 1_555 1_555
C7_6 N1_6 1_555 1_555
C8_6 O16_6 1_555 1_555
C9_6 N2_6 1_555 1_555
C9_6 O18_6 1_555 1_555
C10_6 O17_6 1_555 1_555
C12_6 N3_6 1_555 1_555
C15_6 C16_6 1_555 1_555
C16_6 N4_6 1_555 1_555
C17_6 N3_6 1_555 1_555
C18_6 O14_6 1_555 1_555
C21_6 O8_6 1_555 1_555
O3_6 H45_6 1_555 1_555
O3_6 H46_6 1_555 1_555
O15_6 H47_6 1_555 1_555
O15_6 H48_6 1_555 1_555
C11_7 H5_7 1_555 1_555
C12_7 C11_7 1_555 1_555
C13_7 C12_7 1_555 1_555
H6_7 C13_7 1_555 1_555
C14_7 C13_7 1_555 1_555
H7_7 C14_7 1_555 1_555
C15_7 C14_7 1_555 1_555
C16_7 C11_7 1_555 1_555
C17_7 C18_7 1_555 1_555
C18_7 O24 1_555 1_555
O20_3 C19_7 1_555 1_555
O23 C17_7 1_555 1_555
C12_7 N3_7 1_555 1_555
C15_7 C16_7 1_555 1_555
C17_7 N3_7 1_555 1_555
Mn3_4 O5_7 1_555 1_555
Mn5 O7_7 1_555 1_555
Cu2_7 N2_7 1_555 1_555
C1_7 H1_7 1_555 1_555
C2_7 C1_7 1_555 1_555
C3_7 C2_7 1_555 1_555
C4_7 C3_7 1_555 1_555
H3_7 C4_7 1_555 1_555
C5_7 C4_7 1_555 1_555
H4_7 C5_7 1_555 1_555
C6_7 C1_7 1_555 1_555
C9_7 C10_7 1_555 1_555
C10_7 O9_7 1_555 1_555
C20_7 O19_3 1_555 1_555
C21_7 C22_7 1_555 1_555
C22_7 O6_7 1_555 1_555
N2_7 C6_7 1_555 1_555
N4_7 Cu2_7 1_555 1_555
O3_7 Cu2_7 1_555 1_555
O4_7 Cu2_7 1_555 1_555
O5_7 C21_7 1_555 1_555
O6_7 Mn3_4 1_555 1_555
O7_7 C22_7 1_555 1_555
O8_7 Mn5 1_555 1_555
O9_7 Cu2_7 1_555 1_555
O17_7 Mn3_4 1_555 1_555
O18_7 Mn3_4 1_555 1_555
C5_7 C6_7 1_555 1_555
C9_7 N2_7 1_555 1_555
C9_7 O18_7 1_555 1_555
C10_7 O17_7 1_555 1_555
C20_7 O4_7 1_555 1_555
C21_7 O8_7 1_555 1_555
O3_7 H45_7 1_555 1_555
O3_7 H46_7 1_555 1_555
Cu1_7 N1_7 1_555 1_555
C7_7 C8_7 1_555 1_555
C8_7 O21_4 1_555 1_555
O14_7 Cu1_7 1_555 1_555
O15_7 Cu1_7 1_555 1_555
O16_7 Cu1_7 1_555 1_555
C7_7 N1_7 1_555 1_555
C8_7 O16_7 1_555 1_555
O15_7 H47_7 1_555 1_555
O15_7 H48_7 1_555 1_555
Cu1_8 N1_8 1_555 1_555
C7_8 C8_8 1_555 1_555
C8_8 O21_3 1_555 1_555
O22_3 C7_8 1_555 1_555
O14_8 Cu1_8 1_555 1_555
O15_8 Cu1_8 1_555 1_555
O16_8 Cu1_8 1_555 1_555
C7_8 N1_8 1_555 1_555
C8_8 O16_8 1_555 1_555
O15_8 H47_8 1_555 1_555
O15_8 H48_8 1_555 1_555
Mn3_3 O5_8 1_555 1_555
Mn5_2 O7_8 1_555 1_555
Cu2_8 N2_8 1_555 1_555
C1_8 H1_8 1_555 1_555
C2_8 C1_8 1_555 1_555
C3_8 C2_8 1_555 1_555
H2_8 C3_8 1_555 1_555
C4_8 C3_8 1_555 1_555
H3_8 C4_8 1_555 1_555
C5_8 C4_8 1_555 1_555
H4_8 C5_8 1_555 1_555
C6_8 C1_8 1_555 1_555
C9_8 C10_8 1_555 1_555
C10_8 O9_8 1_555 1_555
C11_8 H5_8 1_555 1_555
C12_8 C11_8 1_555 1_555
C13_8 C12_8 1_555 1_555
H6_8 C13_8 1_555 1_555
C14_8 C13_8 1_555 1_555
H7_8 C14_8 1_555 1_555
C15_8 C14_8 1_555 1_555
H8_8 C15_8 1_555 1_555
C16_8 C11_8 1_555 1_555
C17_8 C18_8 1_555 1_555
C18_8 O24_2 1_555 1_555
C19_8 C20_8 1_555 1_555
C20_8 O19_4 1_555 1_555
C21_8 C22_8 1_555 1_555
C22_8 O6_8 1_555 1_555
N2_8 C6_8 1_555 1_555
N4_8 Cu2_8 1_555 1_555
O20_4 C19_8 1_555 1_555
O3_8 Cu2_8 1_555 1_555
O4_8 Cu2_8 1_555 1_555
O5_8 C21_8 1_555 1_555
O6_8 Mn3_3 1_555 1_555
O7_8 C22_8 1_555 1_555
O8_8 Mn5_2 1_555 1_555
O9_8 Cu2_8 1_555 1_555
O23_2 C17_8 1_555 1_555
O17_8 Mn3_3 1_555 1_555
O18_8 Mn3_3 1_555 1_555
C5_8 C6_8 1_555 1_555
C9_8 N2_8 1_555 1_555
C9_8 O18_8 1_555 1_555
C10_8 O17_8 1_555 1_555
C12_8 N3_8 1_555 1_555
C15_8 C16_8 1_555 1_555
C16_8 N4_8 1_555 1_555
C17_8 N3_8 1_555 1_555
C19_8 N4_8 1_555 1_555
C20_8 O4_8 1_555 1_555
C21_8 O8_8 1_555 1_555
O3_8 H45_8 1_555 1_555
O3_8 H46_8 1_555 1_555
C23 C24 1_555 1_555
C24 H9 1_555 1_555
C25 C24 1_555 1_555
H10 C25 1_555 1_555
C26 C25 1_555 1_555
H11 C26 1_555 1_555
C27 C26 1_555 1_555
H12 C27 1_555 1_555
C28 C23 1_555 1_555
C27 C28 1_555 1_555
C29 H14 1_555 1_555
H15 C29 1_555 1_555
H16 C29 1_555 1_555
N5 C30 1_555 1_555
C30 H17 1_555 1_555
H18 C30 1_555 1_555
H19 C30 1_555 1_555
C31 N5 1_555 1_555
H20 C31 1_555 1_555
H21 C31 1_555 1_555
H22 C31 1_555 1_555
C32 N5 1_555 1_555
H23 C32 1_555 1_555
H24 C32 1_555 1_555
H25 C32 1_555 1_555
H26 C33 1_555 1_555
C29 C33 1_555 1_555
N5 C33 1_555 1_555
C29_2 H14_2 1_555 1_555
H15_2 C29_2 1_555 1_555
H16_2 C29_2 1_555 1_555
N5_2 C30_2 1_555 1_555
C30_2 H17_2 1_555 1_555
H18_2 C30_2 1_555 1_555
H19_2 C30_2 1_555 1_555
C31_2 N5_2 1_555 1_555
H20_2 C31_2 1_555 1_555
H21_2 C31_2 1_555 1_555
H22_2 C31_2 1_555 1_555
C32_2 N5_2 1_555 1_555
H23_2 C32_2 1_555 1_555
H24_2 C32_2 1_555 1_555
H25_2 C32_2 1_555 1_555
H26_2 C33_2 1_555 1_555
C29_2 C33_2 1_555 1_555
N5_2 C33_2 1_555 1_555
C23_2 C24_2 1_555 1_555
C24_2 H9_2 1_555 1_555
C25_2 C24_2 1_555 1_555
H10_2 C25_2 1_555 1_555
C26_2 C25_2 1_555 1_555
H11_2 C26_2 1_555 1_555
C27_2 C26_2 1_555 1_555
H12_2 C27_2 1_555 1_555
C28_2 C23_2 1_555 1_555
C27_2 C28_2 1_555 1_555
C23_3 C24_3 1_555 1_555
C24_3 H9_3 1_555 1_555
C25_3 C24_3 1_555 1_555
H10_3 C25_3 1_555 1_555
C26_3 C25_3 1_555 1_555
H11_3 C26_3 1_555 1_555
C27_3 C26_3 1_555 1_555
H12_3 C27_3 1_555 1_555
C28_3 C23_3 1_555 1_555
H13_3 C28_3 1_555 1_555
C29_3 H14_3 1_555 1_555
H15_3 C29_3 1_555 1_555
H16_3 C29_3 1_555 1_555
N5_3 C30_3 1_555 1_555
C30_3 H17_3 1_555 1_555
H18_3 C30_3 1_555 1_555
H19_3 C30_3 1_555 1_555
C31_3 N5_3 1_555 1_555
H20_3 C31_3 1_555 1_555
H21_3 C31_3 1_555 1_555
H22_3 C31_3 1_555 1_555
C32_3 N5_3 1_555 1_555
H23_3 C32_3 1_555 1_555
H24_3 C32_3 1_555 1_555
H25_3 C32_3 1_555 1_555
C33_3 C23_3 1_555 1_555
H26_3 C33_3 1_555 1_555
C27_3 C28_3 1_555 1_555
C29_3 C33_3 1_555 1_555
N5_3 C33_3 1_555 1_555
C23_4 C24_4 1_555 1_555
C24_4 H9_4 1_555 1_555
C25_4 C24_4 1_555 1_555
H10_4 C25_4 1_555 1_555
C26_4 C25_4 1_555 1_555
H11_4 C26_4 1_555 1_555
C27_4 C26_4 1_555 1_555
H12_4 C27_4 1_555 1_555
C28_4 C23_4 1_555 1_555
H13_4 C28_4 1_555 1_555
C29_4 H14_4 1_555 1_555
H15_4 C29_4 1_555 1_555
H16_4 C29_4 1_555 1_555
N5_4 C30_4 1_555 1_555
C30_4 H17_4 1_555 1_555
H18_4 C30_4 1_555 1_555
H19_4 C30_4 1_555 1_555
C31_4 N5_4 1_555 1_555
H20_4 C31_4 1_555 1_555
H21_4 C31_4 1_555 1_555
H22_4 C31_4 1_555 1_555
C32_4 N5_4 1_555 1_555
H23_4 C32_4 1_555 1_555
H24_4 C32_4 1_555 1_555
H25_4 C32_4 1_555 1_555
C33_4 C23_4 1_555 1_555
H26_4 C33_4 1_555 1_555
C27_4 C28_4 1_555 1_555
C29_4 C33_4 1_555 1_555
N5_4 C33_4 1_555 1_555
C23_5 C24_5 1_555 1_555
C24_5 H9_5 1_555 1_555
C25_5 C24_5 1_555 1_555
H10_5 C25_5 1_555 1_555
C26_5 C25_5 1_555 1_555
H11_5 C26_5 1_555 1_555
C27_5 C26_5 1_555 1_555
H12_5 C27_5 1_555 1_555
C28_5 C23_5 1_555 1_555
H13_5 C28_5 1_555 1_555
C29_5 H14_5 1_555 1_555
H15_5 C29_5 1_555 1_555
H16_5 C29_5 1_555 1_555
N5_5 C30_5 1_555 1_555
C30_5 H17_5 1_555 1_555
H18_5 C30_5 1_555 1_555
H19_5 C30_5 1_555 1_555
C31_5 N5_5 1_555 1_555
H20_5 C31_5 1_555 1_555
H21_5 C31_5 1_555 1_555
H22_5 C31_5 1_555 1_555
C32_5 N5_5 1_555 1_555
H23_5 C32_5 1_555 1_555
H24_5 C32_5 1_555 1_555
H25_5 C32_5 1_555 1_555
C33_5 C23_5 1_555 1_555
H26_5 C33_5 1_555 1_555
C27_5 C28_5 1_555 1_555
C29_5 C33_5 1_555 1_555
N5_5 C33_5 1_555 1_555
C23_6 C24_6 1_555 1_555
C24_6 H9_6 1_555 1_555
C25_6 C24_6 1_555 1_555
H10_6 C25_6 1_555 1_555
C26_6 C25_6 1_555 1_555
H11_6 C26_6 1_555 1_555
C27_6 C26_6 1_555 1_555
H12_6 C27_6 1_555 1_555
C28_6 C23_6 1_555 1_555
H13_6 C28_6 1_555 1_555
C29_6 H14_6 1_555 1_555
H15_6 C29_6 1_555 1_555
H16_6 C29_6 1_555 1_555
N5_6 C30_6 1_555 1_555
C30_6 H17_6 1_555 1_555
H18_6 C30_6 1_555 1_555
H19_6 C30_6 1_555 1_555
C31_6 N5_6 1_555 1_555
H20_6 C31_6 1_555 1_555
H21_6 C31_6 1_555 1_555
H22_6 C31_6 1_555 1_555
C32_6 N5_6 1_555 1_555
H23_6 C32_6 1_555 1_555
H24_6 C32_6 1_555 1_555
H25_6 C32_6 1_555 1_555
C33_6 C23_6 1_555 1_555
H26_6 C33_6 1_555 1_555
C27_6 C28_6 1_555 1_555
C29_6 C33_6 1_555 1_555
N5_6 C33_6 1_555 1_555
C23_7 C24_7 1_555 1_555
C24_7 H9_7 1_555 1_555
C25_7 C24_7 1_555 1_555
H10_7 C25_7 1_555 1_555
C26_7 C25_7 1_555 1_555
H11_7 C26_7 1_555 1_555
C27_7 C26_7 1_555 1_555
H12_7 C27_7 1_555 1_555
C28_7 C23_7 1_555 1_555
C27_7 C28_7 1_555 1_555
C29_7 H14_7 1_555 1_555
H15_7 C29_7 1_555 1_555
H16_7 C29_7 1_555 1_555
N5_7 C30_7 1_555 1_555
C30_7 H17_7 1_555 1_555
H18_7 C30_7 1_555 1_555
H19_7 C30_7 1_555 1_555
C31_7 N5_7 1_555 1_555
H20_7 C31_7 1_555 1_555
H21_7 C31_7 1_555 1_555
H22_7 C31_7 1_555 1_555
C32_7 N5_7 1_555 1_555
H23_7 C32_7 1_555 1_555
H24_7 C32_7 1_555 1_555
H25_7 C32_7 1_555 1_555
H26_7 C33_7 1_555 1_555
C29_7 C33_7 1_555 1_555
N5_7 C33_7 1_555 1_555
C29_8 H14_8 1_555 1_555
H15_8 C29_8 1_555 1_555
H16_8 C29_8 1_555 1_555
N5_8 C30_8 1_555 1_555
C30_8 H17_8 1_555 1_555
H18_8 C30_8 1_555 1_555
H19_8 C30_8 1_555 1_555
C31_8 N5_8 1_555 1_555
H20_8 C31_8 1_555 1_555
H21_8 C31_8 1_555 1_555
H22_8 C31_8 1_555 1_555
C32_8 N5_8 1_555 1_555
H23_8 C32_8 1_555 1_555
H24_8 C32_8 1_555 1_555
H25_8 C32_8 1_555 1_555
H26_8 C33_8 1_555 1_555
C29_8 C33_8 1_555 1_555
N5_8 C33_8 1_555 1_555
C23_8 C24_8 1_555 1_555
C24_8 H9_8 1_555 1_555
C25_8 C24_8 1_555 1_555
H10_8 C25_8 1_555 1_555
C26_8 C25_8 1_555 1_555
H11_8 C26_8 1_555 1_555
C27_8 C26_8 1_555 1_555
H12_8 C27_8 1_555 1_555
C28_8 C23_8 1_555 1_555
C27_8 C28_8 1_555 1_555
H29 C37 1_555 1_555
C38 C37 1_555 1_555
H30 C38 1_555 1_555
C34 C35 1_555 1_555
C35 H27 1_555 1_555
C36 C35 1_555 1_555
H28 C36 1_555 1_555
C39 C34 1_555 1_555
C40 H32 1_555 1_555
H33 C40 1_555 1_555
H34 C40 1_555 1_555
N6 C41 1_555 1_555
C41 H35 1_555 1_555
H36 C41 1_555 1_555
H37 C41 1_555 1_555
C42 N6 1_555 1_555
H38 C42 1_555 1_555
H39 C42 1_555 1_555
H40 C42 1_555 1_555
C43 N6 1_555 1_555
H41 C43 1_555 1_555
H42 C43 1_555 1_555
H43 C43 1_555 1_555
C44 C34 1_555 1_555
H44 C44 1_555 1_555
C40 C44 1_555 1_555
N6 C44 1_555 1_555
C34_2 C35_2 1_555 1_555
C35_2 H27_2 1_555 1_555
C36_2 C35_2 1_555 1_555
H28_2 C36_2 1_555 1_555
C39_2 C34_2 1_555 1_555
C40_2 H32_2 1_555 1_555
H33_2 C40_2 1_555 1_555
H34_2 C40_2 1_555 1_555
N6_2 C41_2 1_555 1_555
C41_2 H35_2 1_555 1_555
H36_2 C41_2 1_555 1_555
H37_2 C41_2 1_555 1_555
C42_2 N6_2 1_555 1_555
H38_2 C42_2 1_555 1_555
H39_2 C42_2 1_555 1_555
H40_2 C42_2 1_555 1_555
C43_2 N6_2 1_555 1_555
H41_2 C43_2 1_555 1_555
H42_2 C43_2 1_555 1_555
H43_2 C43_2 1_555 1_555
C44_2 C34_2 1_555 1_555
H44_2 C44_2 1_555 1_555
C40_2 C44_2 1_555 1_555
N6_2 C44_2 1_555 1_555
H29_2 C37_2 1_555 1_555
C38_2 C37_2 1_555 1_555
H30_2 C38_2 1_555 1_555
C34_3 C35_3 1_555 1_555
C35_3 H27_3 1_555 1_555
C36_3 C35_3 1_555 1_555
H28_3 C36_3 1_555 1_555
C37_3 C36_3 1_555 1_555
H29_3 C37_3 1_555 1_555
C40_3 H32_3 1_555 1_555
C44_3 C34_3 1_555 1_555
H44_3 C44_3 1_555 1_555
C40_3 C44_3 1_555 1_555
H30_3 C38_3 1_555 1_555
H31_3 C39_3 1_555 1_555
N6_3 C41_3 1_555 1_555
C41_3 H35_3 1_555 1_555
H36_3 C41_3 1_555 1_555
H37_3 C41_3 1_555 1_555
C42_3 N6_3 1_555 1_555
H38_3 C42_3 1_555 1_555
H39_3 C42_3 1_555 1_555
H40_3 C42_3 1_555 1_555
C43_3 N6_3 1_555 1_555
H41_3 C43_3 1_555 1_555
H42_3 C43_3 1_555 1_555
C38_3 C39_3 1_555 1_555
H30_4 C38_4 1_555 1_555
H31_4 C39_4 1_555 1_555
N6_4 C41_4 1_555 1_555
C41_4 H35_4 1_555 1_555
H36_4 C41_4 1_555 1_555
H37_4 C41_4 1_555 1_555
C42_4 N6_4 1_555 1_555
H38_4 C42_4 1_555 1_555
H39_4 C42_4 1_555 1_555
H40_4 C42_4 1_555 1_555
C43_4 N6_4 1_555 1_555
H41_4 C43_4 1_555 1_555
H42_4 C43_4 1_555 1_555
H43_4 C43_4 1_555 1_555
C38_4 C39_4 1_555 1_555
C34_4 C35_4 1_555 1_555
C35_4 H27_4 1_555 1_555
C36_4 C35_4 1_555 1_555
H28_4 C36_4 1_555 1_555
C37_4 C36_4 1_555 1_555
H29_4 C37_4 1_555 1_555
C40_4 H32_4 1_555 1_555
H34_4 C40_4 1_555 1_555
C44_4 C34_4 1_555 1_555
H44_4 C44_4 1_555 1_555
C40_4 C44_4 1_555 1_555
H30_5 C38_5 1_555 1_555
H31_5 C39_5 1_555 1_555
N6_5 C41_5 1_555 1_555
C41_5 H35_5 1_555 1_555
H36_5 C41_5 1_555 1_555
H37_5 C41_5 1_555 1_555
C42_5 N6_5 1_555 1_555
H38_5 C42_5 1_555 1_555
H39_5 C42_5 1_555 1_555
H40_5 C42_5 1_555 1_555
C43_5 N6_5 1_555 1_555
H41_5 C43_5 1_555 1_555
H42_5 C43_5 1_555 1_555
H43_5 C43_5 1_555 1_555
C38_5 C39_5 1_555 1_555
C34_5 C35_5 1_555 1_555
C35_5 H27_5 1_555 1_555
C36_5 C35_5 1_555 1_555
H28_5 C36_5 1_555 1_555
C37_5 C36_5 1_555 1_555
H29_5 C37_5 1_555 1_555
C40_5 H32_5 1_555 1_555
H34_5 C40_5 1_555 1_555
C44_5 C34_5 1_555 1_555
H44_5 C44_5 1_555 1_555
C40_5 C44_5 1_555 1_555
C34_6 C35_6 1_555 1_555
C35_6 H27_6 1_555 1_555
C36_6 C35_6 1_555 1_555
H28_6 C36_6 1_555 1_555
C37_6 C36_6 1_555 1_555
H29_6 C37_6 1_555 1_555
C40_6 H32_6 1_555 1_555
C44_6 C34_6 1_555 1_555
H44_6 C44_6 1_555 1_555
C40_6 C44_6 1_555 1_555
H30_6 C38_6 1_555 1_555
H31_6 C39_6 1_555 1_555
N6_6 C41_6 1_555 1_555
C41_6 H35_6 1_555 1_555
H36_6 C41_6 1_555 1_555
H37_6 C41_6 1_555 1_555
C42_6 N6_6 1_555 1_555
H38_6 C42_6 1_555 1_555
H39_6 C42_6 1_555 1_555
H40_6 C42_6 1_555 1_555
C43_6 N6_6 1_555 1_555
H41_6 C43_6 1_555 1_555
H42_6 C43_6 1_555 1_555
C38_6 C39_6 1_555 1_555
H29_7 C37_7 1_555 1_555
C38_7 C37_7 1_555 1_555
H30_7 C38_7 1_555 1_555
C34_7 C35_7 1_555 1_555
C35_7 H27_7 1_555 1_555
C36_7 C35_7 1_555 1_555
H28_7 C36_7 1_555 1_555
C39_7 C34_7 1_555 1_555
C40_7 H32_7 1_555 1_555
H33_7 C40_7 1_555 1_555
H34_7 C40_7 1_555 1_555
N6_7 C41_7 1_555 1_555
C41_7 H35_7 1_555 1_555
H36_7 C41_7 1_555 1_555
H37_7 C41_7 1_555 1_555
C42_7 N6_7 1_555 1_555
H38_7 C42_7 1_555 1_555
H39_7 C42_7 1_555 1_555
H40_7 C42_7 1_555 1_555
C43_7 N6_7 1_555 1_555
H41_7 C43_7 1_555 1_555
H42_7 C43_7 1_555 1_555
H43_7 C43_7 1_555 1_555
C44_7 C34_7 1_555 1_555
H44_7 C44_7 1_555 1_555
C40_7 C44_7 1_555 1_555
N6_7 C44_7 1_555 1_555
C34_8 C35_8 1_555 1_555
C35_8 H27_8 1_555 1_555
C36_8 C35_8 1_555 1_555
H28_8 C36_8 1_555 1_555
C39_8 C34_8 1_555 1_555
C40_8 H32_8 1_555 1_555
H33_8 C40_8 1_555 1_555
H34_8 C40_8 1_555 1_555
N6_8 C41_8 1_555 1_555
C41_8 H35_8 1_555 1_555
H36_8 C41_8 1_555 1_555
H37_8 C41_8 1_555 1_555
C42_8 N6_8 1_555 1_555
H38_8 C42_8 1_555 1_555
H39_8 C42_8 1_555 1_555
H40_8 C42_8 1_555 1_555
C43_8 N6_8 1_555 1_555
H41_8 C43_8 1_555 1_555
H42_8 C43_8 1_555 1_555
H43_8 C43_8 1_555 1_555
C44_8 C34_8 1_555 1_555
H44_8 C44_8 1_555 1_555
C40_8 C44_8 1_555 1_555
N6_8 C44_8 1_555 1_555
H29_8 C37_8 1_555 1_555
C38_8 C37_8 1_555 1_555
H30_8 C38_8 1_555 1_555

#END
