
###############################################################################
#
# This file contains modified crystal structure data generated from the
# MOF subset of the Cambridge Structural Database (CSD) v543 
# hosted by the Cambridge Crystallographic Data Centre (CCDC).
#
# This work is licensed under the Creative Commons
# Attribution-NonCommercial-ShareAlike 4.0 International License.
# To view a copy of this license, visit
# http://creativecommons.org/licenses/by-nc-sa/4.0/
# or send a letter to
# Creative Commons, PO Box 1866, Mountain View, CA 94042, USA.
#
# CIF created using the CSD Python API on 29 September 2022
# The structure has been converted into the P1 space group
# The structure has a 3D framework
# The original CSD entry IDUDIW is in the monoclinic crystal system
# The framework has been calculated to contain at least 10.0% void space
# The void calculation uses a probe of radius 1.32A, grid spacing 0.4
#
###############################################################################

data_IDUDIW
_chemical_formula_moiety         '(C48 H24 N8 O16)n'
_symmetry_cell_setting           triclinic
_symmetry_space_group_name_H-M   'P 1'
_symmetry_Int_Tables_number      1
_space_group_name_Hall           'P 1'
loop_
_symmetry_equiv_pos_site_id
_symmetry_equiv_pos_as_xyz
1 x,y,z
_cell_length_a                   10.908(7)
_cell_length_b                   12.434(8)
_cell_length_c                   14.354(9)
_cell_angle_alpha                90
_cell_angle_beta                 107.495(7)
_cell_angle_gamma                90
_cell_volume                     1856.78
loop_
_atom_site_label
_atom_site_type_symbol
_atom_site_fract_x
_atom_site_fract_y
_atom_site_fract_z
Cu1 Cu 0.09886(4) 0.06719(4) 0.02478(4)
N3 N 0.2529(3) 0.1858(3) 0.0703(2)
Cu5 Cu 0.09886(4) 0.43281(4) 0.52478(4)
O5 O 0.1697(3) 0.9643(2) 0.13242(19)
O7 O 0.1750(2) 0.9809(2) 0.94150(18)
O6 O 0.9924(2) 0.1341(2) 0.10079(18)
C1 C 0.2045(4) 0.2118(3) 0.5712(3)
H1 H 0.1161 0.2009 0.5509
C2 C 0.4170(4) 0.1410(3) 0.6312(3)
H2 H 0.4716 0.0826 0.6521
C3 C 0.4690(4) 0.2440(3) 0.6303(3)
C4 C 0.3847(4) 0.3308(3) 0.5993(3)
H3 H 0.4173 0.3998 0.5982
C5 C 0.6124(4) 0.2554(3) 0.6673(3)
C6 C 0.6817(4) 0.1876(3) 0.7423(3)
H4 H 0.6388 0.1406 0.7721
C7 C 0.8157(4) 0.1909(3) 0.7720(3)
C8 C 0.8806(4) 0.2609(3) 0.7288(3)
H5 H 0.9699 0.2625 0.7492
C9 C 0.8116(4) 0.3292(3) 0.6545(3)
C10 C 0.6765(4) 0.3265(3) 0.6237(3)
H6 H 0.6303 0.3722 0.5743
C11 C 0.8862(4) 0.1193(3) 0.8561(3)
C12 C 0.8807(4) 0.3973(3) 0.6001(3)
N1 N 0.2529(3) 0.3142(3) 0.5703(2)
N2 N 0.2860(3) 0.1254(3) 0.6017(2)
O1 O 0.9971(2) 0.1502(2) 0.90825(19)
O2 O 0.8303(3) 0.0357(2) 0.86758(19)
O3 O 0.9924(2) 0.3659(2) 0.60079(18)
O4 O 0.8250(2) 0.4809(2) 0.55850(18)
Cu2 Cu 0.90114(4) 0.56719(4) 0.47522(4)
Cu3 Cu 0.90114(4) 0.93281(4) 0.97522(4)
C1_2 C 0.7955(4) 0.7118(3) 0.9288(3)
H1_2 H 0.8839 0.7009 0.9491
C2_2 C 0.5830(4) 0.6410(3) 0.8688(3)
H2_2 H 0.5284 0.5826 0.8479
C3_2 C 0.5310(4) 0.7440(3) 0.8697(3)
C4_2 C 0.6153(4) 0.8308(3) 0.9007(3)
H3_2 H 0.5827 0.8998 0.9018
C5_2 C 0.3876(4) 0.7554(3) 0.8327(3)
C6_2 C 0.3183(4) 0.6876(3) 0.7577(3)
H4_2 H 0.3612 0.6406 0.7279
C7_2 C 0.1843(4) 0.6909(3) 0.7280(3)
C8_2 C 0.1194(4) 0.7609(3) 0.7712(3)
H5_2 H 0.0301 0.7625 0.7508
C9_2 C 0.1884(4) 0.8292(3) 0.8455(3)
C10_2 C 0.3235(4) 0.8265(3) 0.8763(3)
H6_2 H 0.3697 0.8722 0.9257
C11_2 C 0.1138(4) 0.6193(3) 0.6439(3)
C12_2 C 0.1193(4) 0.8973(3) 0.8999(3)
N1_2 N 0.7471(3) 0.8142(3) 0.9297(2)
N2_2 N 0.7140(3) 0.6254(3) 0.8983(2)
O1_2 O 0.0029(2) 0.6502(2) 0.59175(19)
O2_2 O 0.1697(3) 0.5357(2) 0.63242(19)
O3_2 O 0.0076(2) 0.8659(2) 0.89921(18)
O6_2 O 0.0076(2) 0.6341(2) 0.39921(18)
N3_2 N 0.7471(3) 0.6858(3) 0.4297(2)
O5_2 O 0.8303(3) 0.4643(2) 0.36758(19)
C1_3 C 0.7955(4) 0.7882(3) 0.4288(3)
H1_3 H 0.8839 0.7991 0.4491
C2_3 C 0.5830(4) 0.8590(3) 0.3688(3)
H2_3 H 0.5284 0.9174 0.3479
C3_3 C 0.5310(4) 0.7560(3) 0.3697(3)
C4_3 C 0.6153(4) 0.6692(3) 0.4007(3)
H3_3 H 0.5827 0.6002 0.4018
C5_3 C 0.3876(4) 0.7446(3) 0.3327(3)
C6_3 C 0.3183(4) 0.8124(3) 0.2577(3)
H4_3 H 0.3612 0.8594 0.2279
C7_3 C 0.1843(4) 0.8091(3) 0.2280(3)
C8_3 C 0.1194(4) 0.7391(3) 0.2712(3)
H5_3 H 0.0301 0.7375 0.2508
C9_3 C 0.1884(4) 0.6708(3) 0.3455(3)
C10_3 C 0.3235(4) 0.6735(3) 0.3763(3)
H6_3 H 0.3697 0.6278 0.4257
C11_3 C 0.1138(4) 0.8807(3) 0.1439(3)
C12_3 C 0.1193(4) 0.6027(3) 0.3999(3)
N2_3 N 0.7140(3) 0.8746(3) 0.3983(2)
O1_3 O 0.0029(2) 0.8498(2) 0.09175(19)
O4_2 O 0.1750(2) 0.5191(2) 0.44150(18)
O7_2 O 0.8250(2) 0.0191(2) 0.05850(18)
C1_4 C 0.2045(4) 0.2882(3) 0.0712(3)
H1_4 H 0.1161 0.2991 0.0509
C2_4 C 0.4170(4) 0.3590(3) 0.1312(3)
H2_4 H 0.4716 0.4174 0.1521
C3_4 C 0.4690(4) 0.2560(3) 0.1303(3)
C4_4 C 0.3847(4) 0.1692(3) 0.0993(3)
H3_4 H 0.4173 0.1002 0.0982
C5_4 C 0.6124(4) 0.2446(3) 0.1673(3)
C6_4 C 0.6817(4) 0.3124(3) 0.2423(3)
H4_4 H 0.6388 0.3594 0.2721
C7_4 C 0.8157(4) 0.3091(3) 0.2720(3)
C8_4 C 0.8806(4) 0.2391(3) 0.2288(3)
H5_4 H 0.9699 0.2375 0.2492
C9_4 C 0.8116(4) 0.1708(3) 0.1545(3)
C10_4 C 0.6765(4) 0.1735(3) 0.1237(3)
H6_4 H 0.6303 0.1278 0.0743
C11_4 C 0.8862(4) 0.3807(3) 0.3561(3)
C12_4 C 0.8807(4) 0.1027(3) 0.1001(3)
N2_4 N 0.2860(3) 0.3746(3) 0.1017(2)
O1_4 O 0.9971(2) 0.3498(2) 0.40825(19)
loop_
_geom_bond_atom_site_label_1
_geom_bond_atom_site_label_2
_geom_bond_site_symmetry_1
_geom_bond_site_symmetry_2
N3 Cu1 1_555 1_555
C1 H1 1_555 1_555
C2 H2 1_555 1_555
C3 C2 1_555 1_555
C4 C3 1_555 1_555
H3 C4 1_555 1_555
C5 C3 1_555 1_555
C6 C5 1_555 1_555
H4 C6 1_555 1_555
C7 C6 1_555 1_555
C8 C7 1_555 1_555
H5 C8 1_555 1_555
C9 C8 1_555 1_555
C10 C5 1_555 1_555
H6 C10 1_555 1_555
C11 C7 1_555 1_555
C12 C9 1_555 1_555
N1 C1 1_555 1_555
N2 C1 1_555 1_555
O1 C11 1_555 1_555
O2 C11 1_555 1_555
O3 C12 1_555 1_555
O4 C12 1_555 1_555
Cu2 O4 1_555 1_555
Cu5 N1 1_555 1_555
C2 N2 1_555 1_555
C4 N1 1_555 1_555
C9 C10 1_555 1_555
C1_2 H1_2 1_555 1_555
C2_2 H2_2 1_555 1_555
C3_2 C2_2 1_555 1_555
C4_2 C3_2 1_555 1_555
H3_2 C4_2 1_555 1_555
C5_2 C3_2 1_555 1_555
C6_2 C5_2 1_555 1_555
H4_2 C6_2 1_555 1_555
C7_2 C6_2 1_555 1_555
C8_2 C7_2 1_555 1_555
H5_2 C8_2 1_555 1_555
C9_2 C8_2 1_555 1_555
C10_2 C5_2 1_555 1_555
H6_2 C10_2 1_555 1_555
C11_2 C7_2 1_555 1_555
C12_2 C9_2 1_555 1_555
N1_2 C1_2 1_555 1_555
N2_2 C1_2 1_555 1_555
O1_2 C11_2 1_555 1_555
O2_2 C11_2 1_555 1_555
O3_2 C12_2 1_555 1_555
O7 C12_2 1_555 1_555
Cu3 N1_2 1_555 1_555
C2_2 N2_2 1_555 1_555
C4_2 N1_2 1_555 1_555
C9_2 C10_2 1_555 1_555
O2_2 Cu5 1_555 1_555
N3_2 Cu2 1_555 1_555
O5_2 Cu2 1_555 1_555
C1_3 H1_3 1_555 1_555
C2_3 H2_3 1_555 1_555
C3_3 C2_3 1_555 1_555
C4_3 C3_3 1_555 1_555
H3_3 C4_3 1_555 1_555
C5_3 C3_3 1_555 1_555
C6_3 C5_3 1_555 1_555
H4_3 C6_3 1_555 1_555
C7_3 C6_3 1_555 1_555
C8_3 C7_3 1_555 1_555
H5_3 C8_3 1_555 1_555
C9_3 C8_3 1_555 1_555
C10_3 C5_3 1_555 1_555
H6_3 C10_3 1_555 1_555
C11_3 C7_3 1_555 1_555
C12_3 C9_3 1_555 1_555
N3_2 C1_3 1_555 1_555
N2_3 C1_3 1_555 1_555
O1_3 C11_3 1_555 1_555
O5 C11_3 1_555 1_555
O6_2 C12_3 1_555 1_555
O4_2 C12_3 1_555 1_555
Cu5 O4_2 1_555 1_555
C2_3 N2_3 1_555 1_555
C4_3 N3_2 1_555 1_555
C9_3 C10_3 1_555 1_555
C1_4 H1_4 1_555 1_555
C2_4 H2_4 1_555 1_555
C3_4 C2_4 1_555 1_555
C4_4 C3_4 1_555 1_555
H3_4 C4_4 1_555 1_555
C5_4 C3_4 1_555 1_555
C6_4 C5_4 1_555 1_555
H4_4 C6_4 1_555 1_555
C7_4 C6_4 1_555 1_555
C8_4 C7_4 1_555 1_555
H5_4 C8_4 1_555 1_555
C9_4 C8_4 1_555 1_555
C10_4 C5_4 1_555 1_555
H6_4 C10_4 1_555 1_555
C11_4 C7_4 1_555 1_555
C12_4 C9_4 1_555 1_555
N3 C1_4 1_555 1_555
N2_4 C1_4 1_555 1_555
O1_4 C11_4 1_555 1_555
O5_2 C11_4 1_555 1_555
O6 C12_4 1_555 1_555
O7_2 C12_4 1_555 1_555
C2_4 N2_4 1_555 1_555
C4_4 N3 1_555 1_555
C9_4 C10_4 1_555 1_555

#END
