
###############################################################################
#
# This file contains modified crystal structure data generated from the
# MOF subset of the Cambridge Structural Database (CSD) v543 
# hosted by the Cambridge Crystallographic Data Centre (CCDC).
#
# This work is licensed under the Creative Commons
# Attribution-NonCommercial-ShareAlike 4.0 International License.
# To view a copy of this license, visit
# http://creativecommons.org/licenses/by-nc-sa/4.0/
# or send a letter to
# Creative Commons, PO Box 1866, Mountain View, CA 94042, USA.
#
# CIF created using the CSD Python API on 29 September 2022
# The structure has been converted into the P1 space group
# The structure has a 3D framework
# The original CSD entry IDUDES is in the monoclinic crystal system
# The framework has been calculated to contain at least 10.0% void space
# The void calculation uses a probe of radius 1.32A, grid spacing 0.4
#
###############################################################################

data_IDUDES
_chemical_formula_moiety         '(C52 H28 Cu2 N4 O14)n'
_symmetry_cell_setting           triclinic
_symmetry_space_group_name_H-M   'P 1'
_symmetry_Int_Tables_number      1
_space_group_name_Hall           'P 1'
loop_
_symmetry_equiv_pos_site_id
_symmetry_equiv_pos_as_xyz
1 x,y,z
_cell_length_a                   10.5385(9)
_cell_length_b                   10.7768(9)
_cell_length_c                   14.7694(12)
_cell_angle_alpha                90
_cell_angle_beta                 108.7200(10)
_cell_angle_gamma                90
_cell_volume                     1588.64
loop_
_atom_site_label
_atom_site_type_symbol
_atom_site_fract_x
_atom_site_fract_y
_atom_site_fract_z
Cu2 Cu 0.09349(2) 0.41405(2) 0.511142(19)
Cu4 Cu 0.09349(2) 0.08595(2) 0.011142(19)
O7 O 0.02801(15) 0.87819(15) 0.11923(12)
O5 O 0.02568(15) 0.82202(14) 0.93227(12)
O1 O 0.80851(15) 0.03757(14) 0.03911(12)
O2 O 0.97432(15) 0.17798(14) 0.06773(12)
O3 O 0.80990(15) 0.52009(14) 0.36089(11)
O4 O 0.97199(15) 0.37819(15) 0.38077(12)
N1 N 0.21728(17) 0.24552(16) 0.01078(14)
C1 C 0.8618(2) 0.1402(2) 0.06992(16)
C2 C 0.4336(2) 0.3419(2) 0.06959(16)
C3 C 0.8620(2) 0.42723(19) 0.33384(17)
C4 C 0.5818(2) 0.32590(19) 0.11409(16)
C5 C 0.8552(2) 0.2876(2) 0.19783(17)
H1 H 0.9467 0.2747 0.2260
C6 C 0.7871(2) 0.22576(19) 0.11445(16)
C7 C 0.3731(2) 0.4582(2) 0.05128(18)
H2 H 0.4244 0.5301 0.0671
C8 C 0.6519(2) 0.39065(19) 0.19572(17)
H3 H 0.6077 0.4490 0.2211
C9 C 0.6493(2) 0.24293(19) 0.07326(16)
H4 H 0.6025 0.1990 0.0185
C10 C 0.7883(2) 0.3691(2) 0.24039(17)
C12 C 0.3509(2) 0.2391(2) 0.04816(16)
H6 H 0.3903 0.1610 0.0604
C13 C 0.2360(2) 0.4651(2) 0.0092(2)
Cu5 Cu 0.90651(2) 0.58595(2) 0.488858(19)
Cu1 Cu 0.90651(2) 0.91405(2) 0.988858(19)
O6 O 0.80990(15) 0.97991(14) 0.86089(11)
N2 N 0.78272(17) 0.75448(16) 0.98922(14)
O3_2 O 0.19010(15) 0.02009(14) 0.13911(11)
H2_2 H 0.5756 0.0301 0.4329
H7 H 0.8058 0.0419 0.5059
O1_2 O 0.19149(15) 0.53757(14) 0.46089(12)
O2_2 O 0.02568(15) 0.67798(14) 0.43227(12)
N1_2 N 0.78272(17) 0.74552(16) 0.48922(14)
C1_2 C 0.1382(2) 0.6402(2) 0.43008(16)
C2_2 C 0.5664(2) 0.8419(2) 0.43041(16)
C3_2 C 0.1380(2) 0.92723(19) 0.16616(17)
C4_2 C 0.4182(2) 0.82590(19) 0.38591(16)
C5_2 C 0.1448(2) 0.7876(2) 0.30217(17)
H1_2 H 0.0533 0.7747 0.2740
C6_2 C 0.2129(2) 0.72576(19) 0.38555(16)
C7_2 C 0.6269(2) 0.9582(2) 0.44872(18)
C8_2 C 0.3481(2) 0.89065(19) 0.30428(17)
H3_2 H 0.3923 0.9490 0.2789
C9_2 C 0.3507(2) 0.74293(19) 0.42674(16)
H4_2 H 0.3975 0.6990 0.4815
C10_2 C 0.2117(2) 0.8691(2) 0.25961(17)
C11 C 0.8382(2) 0.8581(2) 0.51011(19)
H5 H 0.9305 0.8639 0.5388
C12_2 C 0.6491(2) 0.7391(2) 0.45184(16)
H6_2 H 0.6097 0.6610 0.4396
C13_2 C 0.7640(2) 0.9651(2) 0.4908(2)
O6_2 O 0.19010(15) 0.47991(14) 0.63911(11)
N2_2 N 0.21728(17) 0.25448(16) 0.51078(14)
O5_2 O 0.97432(15) 0.32202(14) 0.56773(12)
O1_3 O 0.19149(15) 0.96243(14) 0.96089(12)
O4_2 O 0.02801(15) 0.62181(15) 0.61923(12)
C1_3 C 0.1382(2) 0.8598(2) 0.93008(16)
C2_3 C 0.5664(2) 0.6581(2) 0.93041(16)
C3_3 C 0.1380(2) 0.57277(19) 0.66616(17)
C4_3 C 0.4182(2) 0.67410(19) 0.88591(16)
C5_3 C 0.1448(2) 0.7124(2) 0.80217(17)
H1_3 H 0.0533 0.7253 0.7740
C6_3 C 0.2129(2) 0.77424(19) 0.88555(16)
C7_3 C 0.6269(2) 0.5418(2) 0.94872(18)
H2_3 H 0.5756 0.4699 0.9329
C8_3 C 0.3481(2) 0.60935(19) 0.80428(17)
H3_3 H 0.3923 0.5510 0.7789
C9_3 C 0.3507(2) 0.75707(19) 0.92674(16)
H4_3 H 0.3975 0.8010 0.9815
C10_3 C 0.2117(2) 0.6309(2) 0.75961(17)
C12_3 C 0.6491(2) 0.7609(2) 0.95184(16)
H6_3 H 0.6097 0.8390 0.9396
C13_3 C 0.7640(2) 0.5349(2) 0.9908(2)
O7_2 O 0.97199(15) 0.12181(15) 0.88077(12)
O1_4 O 0.80851(15) 0.46243(14) 0.53911(12)
C1_4 C 0.8618(2) 0.3598(2) 0.56992(16)
C2_4 C 0.4336(2) 0.1581(2) 0.56959(16)
C3_4 C 0.8620(2) 0.07277(19) 0.83384(17)
C4_4 C 0.5818(2) 0.17410(19) 0.61409(16)
C5_4 C 0.8552(2) 0.2124(2) 0.69783(17)
H1_4 H 0.9467 0.2253 0.7260
C6_4 C 0.7871(2) 0.27424(19) 0.61445(16)
C7_4 C 0.3731(2) 0.0418(2) 0.55128(18)
C8_4 C 0.6519(2) 0.10935(19) 0.69572(17)
H3_4 H 0.6077 0.0510 0.7211
C9_4 C 0.6493(2) 0.25707(19) 0.57326(16)
H4_4 H 0.6025 0.3010 0.5185
C10_4 C 0.7883(2) 0.1309(2) 0.74039(17)
C11_2 C 0.1618(2) 0.1419(2) 0.48989(19)
H5_2 H 0.0695 0.1361 0.4612
C12_4 C 0.3509(2) 0.2609(2) 0.54816(16)
H6_4 H 0.3903 0.3390 0.5604
C13_4 C 0.2360(2) 0.0349(2) 0.5092(2)
H2_4 H 0.4244 0.9699 0.5671
H7_2 H 0.1942 0.9581 0.4941
C11_3 C 0.1618(2) 0.3581(2) 0.98989(19)
H5_3 H 0.0695 0.3639 0.9612
H7_3 H 0.1942 0.5419 0.9941
C11_4 C 0.8382(2) 0.6419(2) 0.01011(19)
H5_4 H 0.9305 0.6361 0.0388
H7_4 H 0.8058 0.4581 0.0059
loop_
_geom_bond_atom_site_label_1
_geom_bond_atom_site_label_2
_geom_bond_site_symmetry_1
_geom_bond_site_symmetry_2
O1 C1 1_555 1_555
O2 C1 1_555 1_555
O3 C3 1_555 1_555
O4 C3 1_555 1_555
C1 C6 1_555 1_555
C2 C4 1_555 1_555
C3 C10 1_555 1_555
C4 C8 1_555 1_555
C5 H1 1_555 1_555
C6 C5 1_555 1_555
C7 C2 1_555 1_555
H2 C7 1_555 1_555
C8 H3 1_555 1_555
C9 C4 1_555 1_555
H4 C9 1_555 1_555
C10 C5 1_555 1_555
C12 N1 1_555 1_555
H6 C12 1_555 1_555
C13 C7 1_555 1_555
Cu4 N1 1_555 1_555
Cu5 O3 1_555 1_555
C2 C12 1_555 1_555
C6 C9 1_555 1_555
C8 C10 1_555 1_555
O6 Cu1 1_555 1_555
N2 Cu1 1_555 1_555
Cu4 O3_2 1_555 1_555
Cu2 O1_2 1_555 1_555
O1_2 C1_2 1_555 1_555
O2_2 C1_2 1_555 1_555
O7 C3_2 1_555 1_555
N1_2 C11 1_555 1_555
C1_2 C6_2 1_555 1_555
C2_2 C4_2 1_555 1_555
C3_2 C10_2 1_555 1_555
C4_2 C8_2 1_555 1_555
C5_2 H1_2 1_555 1_555
C6_2 C5_2 1_555 1_555
C7_2 C2_2 1_555 1_555
C8_2 H3_2 1_555 1_555
C9_2 C4_2 1_555 1_555
H4_2 C9_2 1_555 1_555
C10_2 C5_2 1_555 1_555
C11 H5 1_555 1_555
C12_2 N1_2 1_555 1_555
H6_2 C12_2 1_555 1_555
C13_2 C7_2 1_555 1_555
Cu5 N1_2 1_555 1_555
O6_2 Cu2 1_555 1_555
N2_2 Cu2 1_555 1_555
C2_2 C12_2 1_555 1_555
C6_2 C9_2 1_555 1_555
C8_2 C10_2 1_555 1_555
C11 C13_2 1_555 1_555
O1_3 C1_3 1_555 1_555
O5 C1_3 1_555 1_555
O6_2 C3_3 1_555 1_555
O4_2 C3_3 1_555 1_555
C1_3 C6_3 1_555 1_555
C2_3 C4_3 1_555 1_555
C3_3 C10_3 1_555 1_555
C4_3 C8_3 1_555 1_555
C5_3 H1_3 1_555 1_555
C6_3 C5_3 1_555 1_555
C7_3 C2_3 1_555 1_555
H2_3 C7_3 1_555 1_555
C8_3 H3_3 1_555 1_555
C9_3 C4_3 1_555 1_555
H4_3 C9_3 1_555 1_555
C10_3 C5_3 1_555 1_555
C12_3 N2 1_555 1_555
H6_3 C12_3 1_555 1_555
C13_3 C7_3 1_555 1_555
C2_3 C12_3 1_555 1_555
C6_3 C9_3 1_555 1_555
C8_3 C10_3 1_555 1_555
Cu5 O1_4 1_555 1_555
O1_4 C1_4 1_555 1_555
O5_2 C1_4 1_555 1_555
O7_2 C3_4 1_555 1_555
N2_2 C11_2 1_555 1_555
C1_4 C6_4 1_555 1_555
C2_4 C4_4 1_555 1_555
C3_4 C10_4 1_555 1_555
C4_4 C8_4 1_555 1_555
C5_4 H1_4 1_555 1_555
C6_4 C5_4 1_555 1_555
C7_4 C2_4 1_555 1_555
C8_4 H3_4 1_555 1_555
C9_4 C4_4 1_555 1_555
H4_4 C9_4 1_555 1_555
C10_4 C5_4 1_555 1_555
C11_2 H5_2 1_555 1_555
C12_4 N2_2 1_555 1_555
H6_4 C12_4 1_555 1_555
C13_4 C7_4 1_555 1_555
C2_4 C12_4 1_555 1_555
C6_4 C9_4 1_555 1_555
C8_4 C10_4 1_555 1_555
C11_2 C13_4 1_555 1_555
C11_3 H5_3 1_555 1_555
C11_4 H5_4 1_555 1_555

#END
