
###############################################################################
#
# This file contains modified crystal structure data generated from the
# MOF subset of the Cambridge Structural Database (CSD) v543 
# hosted by the Cambridge Crystallographic Data Centre (CCDC).
#
# This work is licensed under the Creative Commons
# Attribution-NonCommercial-ShareAlike 4.0 International License.
# To view a copy of this license, visit
# http://creativecommons.org/licenses/by-nc-sa/4.0/
# or send a letter to
# Creative Commons, PO Box 1866, Mountain View, CA 94042, USA.
#
# CIF created using the CSD Python API on 29 September 2022
# The structure has been converted into the P1 space group
# The structure has a 3D framework
# The original CSD entry IDUDOA is in the monoclinic crystal system
# The framework has been calculated to contain at least 10.0% void space
# The void calculation uses a probe of radius 1.32A, grid spacing 0.4
# The framework is charged, counterions have been retained in the structure
#
###############################################################################

data_IDUDOA
_chemical_formula_moiety         '(C176 H96 Ag8 F48 N24 O8 Sb8)n'
_symmetry_cell_setting           triclinic
_symmetry_space_group_name_H-M   'P 1'
_symmetry_Int_Tables_number      1
_space_group_name_Hall           'P 1'
loop_
_symmetry_equiv_pos_site_id
_symmetry_equiv_pos_as_xyz
1 x,y,z
_cell_length_a                   15.2905(2)
_cell_length_b                   15.2386(2)
_cell_length_c                   25.6472(4)
_cell_angle_alpha                90
_cell_angle_beta                 94.269(5)
_cell_angle_gamma                90
_cell_volume                     5959.37
loop_
_atom_site_label
_atom_site_type_symbol
_atom_site_fract_x
_atom_site_fract_y
_atom_site_fract_z
Sb1 Sb 0.71009(2) 0.03073(2) 0.39727(1)
F2 F 0.6047(2) 0.0924(3) 0.3909(2)
F4 F 0.7677(3) 0.1301(2) 0.4250(1)
F6 F 0.7349(3) 0.0664(3) 0.3302(1)
F1 F 0.6524(3) 0.9321(3) 0.3685(2)
F3 F 0.6868(2) 0.9946(2) 0.4643(1)
F5 F 0.8148(2) 0.9688(2) 0.4024(2)
F1_2 F 0.6524(3) 0.0679(3) 0.8685(2)
F3_2 F 0.6868(2) 0.0054(2) 0.9643(1)
F5_2 F 0.8148(2) 0.0312(2) 0.9024(2)
Sb1_2 Sb 0.71009(2) 0.96927(2) 0.89727(1)
F2_2 F 0.6047(2) 0.9076(3) 0.8909(2)
F4_2 F 0.7677(3) 0.8699(2) 0.9250(1)
F6_2 F 0.7349(3) 0.9336(3) 0.8302(1)
Sb1_3 Sb 0.21009(2) 0.53073(2) 0.39727(1)
F1_3 F 0.1524(3) 0.4321(3) 0.3685(2)
F2_3 F 0.1047(2) 0.5924(3) 0.3909(2)
F3_3 F 0.1868(2) 0.4946(2) 0.4643(1)
F4_3 F 0.2677(3) 0.6301(2) 0.4250(1)
F5_3 F 0.3148(2) 0.4688(2) 0.4024(2)
F6_3 F 0.2349(3) 0.5664(3) 0.3302(1)
Sb1_4 Sb 0.21009(2) 0.46927(2) 0.89727(1)
F1_4 F 0.1524(3) 0.5679(3) 0.8685(2)
F2_4 F 0.1047(2) 0.4076(3) 0.8909(2)
F3_4 F 0.1868(2) 0.5054(2) 0.9643(1)
F4_4 F 0.2677(3) 0.3699(2) 0.9250(1)
F5_4 F 0.3148(2) 0.5312(2) 0.9024(2)
F6_4 F 0.2349(3) 0.4336(3) 0.8302(1)
F1_5 F 0.3476(3) 0.0679(3) 0.6315(2)
F3_5 F 0.3132(2) 0.0054(2) 0.5357(1)
F5_5 F 0.1852(2) 0.0312(2) 0.5976(2)
Sb1_5 Sb 0.28991(2) 0.96927(2) 0.60273(1)
F2_5 F 0.3953(2) 0.9076(3) 0.6091(2)
F4_5 F 0.2323(3) 0.8699(2) 0.5750(1)
F6_5 F 0.2651(3) 0.9336(3) 0.6698(1)
Sb1_6 Sb 0.28991(2) 0.03073(2) 0.10273(1)
F2_6 F 0.3953(2) 0.0924(3) 0.1091(2)
F4_6 F 0.2323(3) 0.1301(2) 0.0750(1)
F6_6 F 0.2651(3) 0.0664(3) 0.1698(1)
F1_6 F 0.3476(3) 0.9321(3) 0.1315(2)
F3_6 F 0.3132(2) 0.9946(2) 0.0357(1)
F5_6 F 0.1852(2) 0.9688(2) 0.0976(2)
Sb1_7 Sb 0.78991(2) 0.46927(2) 0.60273(1)
F1_7 F 0.8476(3) 0.5679(3) 0.6315(2)
F2_7 F 0.8953(2) 0.4076(3) 0.6091(2)
F3_7 F 0.8132(2) 0.5054(2) 0.5357(1)
F4_7 F 0.7323(3) 0.3699(2) 0.5750(1)
F5_7 F 0.6852(2) 0.5312(2) 0.5976(2)
F6_7 F 0.7651(3) 0.4336(3) 0.6698(1)
Sb1_8 Sb 0.78991(2) 0.53073(2) 0.10273(1)
F1_8 F 0.8476(3) 0.4321(3) 0.1315(2)
F2_8 F 0.8953(2) 0.5924(3) 0.1091(2)
F3_8 F 0.8132(2) 0.4946(2) 0.0357(1)
F4_8 F 0.7323(3) 0.6301(2) 0.0750(1)
F5_8 F 0.6852(2) 0.4688(2) 0.0976(2)
F6_8 F 0.7651(3) 0.5664(3) 0.1698(1)
C4 C 0.0125(3) 0.1605(3) 0.5868(2)
C5 C 0.0146(3) 0.1312(3) 0.5357(2)
C8 C 0.0911(3) 0.1446(3) 0.5070(2)
N1 N 0.1499(3) 0.1532(3) 0.4828(2)
H2 H 0.0613 0.1908 0.6033
O2 O 0.2111(2) 0.0210(2) 0.3759(1)
H20 H 0.3682 0.0069 0.3838
Ag2 Ag 0.26291(2) 0.15363(3) 0.43470(1)
N9 N 0.3991(3) 0.1504(3) 0.4716(2)
N10 N 0.2653(3) 0.2264(3) 0.3582(2)
C23 C 0.2142(3) 0.9275(3) 0.3816(2)
C24 C 0.1337(3) 0.9009(3) 0.4105(2)
C25 C 0.0623(3) 0.8551(3) 0.3862(2)
C28 C 0.0582(3) 0.9121(3) 0.4894(2)
C29 C 0.1303(3) 0.9282(3) 0.4617(2)
C31 C 0.2999(3) 0.9068(3) 0.4142(2)
C32 C 0.3073(3) 0.8365(3) 0.4477(2)
C33 C 0.3848(3) 0.8190(3) 0.4765(2)
C34 C 0.4564(3) 0.8742(3) 0.4714(2)
C35 C 0.4503(3) 0.9429(3) 0.4358(2)
C36 C 0.3726(3) 0.9593(3) 0.4078(2)
C37 C 0.5370(3) 0.8595(3) 0.5030(2)
N5 N 0.6009(3) 0.8496(3) 0.5284(2)
C38 C 0.2176(3) 0.8831(3) 0.3283(2)
C39 C 0.2323(3) 0.7931(3) 0.3246(2)
C40 C 0.2373(3) 0.7525(3) 0.2767(2)
C41 C 0.2268(3) 0.8020(3) 0.2312(2)
C42 C 0.2109(4) 0.8920(4) 0.2337(2)
C43 C 0.2070(4) 0.9306(3) 0.2819(2)
C44 C 0.2320(3) 0.7604(4) 0.1812(2)
N6 N 0.2347(3) 0.7264(3) 0.1418(2)
H13 H 0.0647 0.8345 0.3514
H15 H 0.0575 0.9301 0.5248
H16 H 0.1790 0.9587 0.4782
H17 H 0.2581 0.7993 0.4510
H18 H 0.3895 0.7701 0.4996
H19 H 0.5001 0.9784 0.4309
H21 H 0.2390 0.7589 0.3556
H22 H 0.2479 0.6912 0.2749
H23 H 0.2029 0.9260 0.2027
H24 H 0.1966 0.9920 0.2836
Ag5 Ag 0.73709(2) 0.84637(3) 0.56530(1)
Ag6 Ag 0.23709(2) 0.65363(3) 0.06530(1)
C1 C 0.7858(3) 0.0725(3) 0.6184(2)
C2 C 0.8663(3) 0.0991(3) 0.5895(2)
C3 C 0.9377(3) 0.1449(3) 0.6138(2)
C6 C 0.9418(3) 0.0879(3) 0.5106(2)
C7 C 0.8697(3) 0.0718(3) 0.5383(2)
C9 C 0.7001(3) 0.0932(3) 0.5858(2)
C10 C 0.6927(3) 0.1635(3) 0.5523(2)
C11 C 0.6152(3) 0.1810(3) 0.5235(2)
C12 C 0.5436(3) 0.1258(3) 0.5286(2)
C13 C 0.5497(3) 0.0571(3) 0.5642(2)
C14 C 0.6274(3) 0.0407(3) 0.5922(2)
C15 C 0.4630(3) 0.1405(3) 0.4970(2)
C16 C 0.7824(3) 0.1169(3) 0.6717(2)
C17 C 0.7677(3) 0.2069(3) 0.6754(2)
C18 C 0.7627(3) 0.2475(3) 0.7233(2)
C19 C 0.7732(3) 0.1980(3) 0.7688(2)
C20 C 0.7891(4) 0.1080(4) 0.7663(2)
C21 C 0.7930(4) 0.0694(3) 0.7181(2)
C22 C 0.7680(3) 0.2396(4) 0.8188(2)
N3 N 0.7653(3) 0.2736(3) 0.8582(2)
H1 H 0.9353 0.1655 0.6486
H3 H 0.9425 0.0699 0.4752
H4 H 0.8210 0.0413 0.5218
H5 H 0.7419 0.2007 0.5490
H6 H 0.6105 0.2299 0.5004
H7 H 0.4999 0.0216 0.5691
H9 H 0.7610 0.2411 0.6444
H10 H 0.7521 0.3088 0.7251
H11 H 0.7971 0.0740 0.7973
H12 H 0.8034 0.0080 0.7164
Ag4 Ag 0.76291(2) 0.34637(3) 0.93470(1)
O1 O 0.7889(2) 0.9790(2) 0.6241(1)
H8 H 0.6318 0.9931 0.6162
C26 C 0.9875(3) 0.8395(3) 0.4132(2)
C27 C 0.9854(3) 0.8688(3) 0.4643(2)
C30 C 0.9089(3) 0.8554(3) 0.4930(2)
N4 N 0.8501(3) 0.8468(3) 0.5172(2)
H14 H 0.9387 0.8092 0.3967
N8 N 0.7347(3) 0.7736(3) 0.6418(2)
C37_2 C 0.0370(3) 0.6405(3) 0.0030(2)
N5_2 N 0.1009(3) 0.6504(3) 0.0284(2)
C1_2 C 0.2858(3) 0.4275(3) 0.1184(2)
O1_2 O 0.2889(2) 0.5210(2) 0.1241(1)
C2_2 C 0.3663(3) 0.4009(3) 0.0895(2)
C3_2 C 0.4377(3) 0.3551(3) 0.1138(2)
C4_2 C 0.5125(3) 0.3395(3) 0.0868(2)
C5_2 C 0.5146(3) 0.3688(3) 0.0357(2)
C6_2 C 0.4418(3) 0.4121(3) 0.0106(2)
C7_2 C 0.3697(3) 0.4282(3) 0.0383(2)
C8_2 C 0.5911(3) 0.3554(3) 0.0070(2)
C9_2 C 0.2001(3) 0.4068(3) 0.0858(2)
C10_2 C 0.1927(3) 0.3365(3) 0.0523(2)
C11_2 C 0.1152(3) 0.3190(3) 0.0235(2)
C12_2 C 0.0436(3) 0.3742(3) 0.0286(2)
C13_2 C 0.0497(3) 0.4429(3) 0.0642(2)
C14_2 C 0.1274(3) 0.4593(3) 0.0922(2)
C16_2 C 0.2824(3) 0.3831(3) 0.1717(2)
C17_2 C 0.2677(3) 0.2931(3) 0.1754(2)
C18_2 C 0.2627(3) 0.2525(3) 0.2233(2)
C19_2 C 0.2732(3) 0.3020(3) 0.2688(2)
C20_2 C 0.2891(4) 0.3920(4) 0.2663(2)
C21_2 C 0.2930(4) 0.4306(3) 0.2181(2)
C22_2 C 0.2680(3) 0.2604(4) 0.3188(2)
H1_2 H 0.4353 0.3345 0.1486
H2_2 H 0.5613 0.3092 0.1033
H4_2 H 0.3210 0.4587 0.0218
H5_2 H 0.2419 0.2993 0.0490
H6_2 H 0.1105 0.2701 0.0004
H8_2 H 0.1318 0.5069 0.1162
H9_2 H 0.2610 0.2589 0.1444
H10_2 H 0.2521 0.1912 0.2251
H11_2 H 0.2971 0.4260 0.2973
H12_2 H 0.3034 0.4920 0.2164
N4_2 N 0.3501(3) 0.6532(3) 0.0172(2)
H15_2 H 0.5575 0.5699 0.0248
N1_2 N 0.6499(3) 0.3468(3) 0.9828(2)
H3_2 H 0.4425 0.4301 0.9752
C23_2 C 0.7142(3) 0.5725(3) 0.8816(2)
O2_2 O 0.7111(2) 0.4790(2) 0.8759(1)
C24_2 C 0.6337(3) 0.5991(3) 0.9105(2)
C25_2 C 0.5623(3) 0.6449(3) 0.8862(2)
C26_2 C 0.4875(3) 0.6605(3) 0.9132(2)
C27_2 C 0.4854(3) 0.6312(3) 0.9643(2)
C28_2 C 0.5582(3) 0.5879(3) 0.9894(2)
C29_2 C 0.6303(3) 0.5718(3) 0.9617(2)
C30_2 C 0.4089(3) 0.6446(3) 0.9930(2)
C31_2 C 0.7999(3) 0.5932(3) 0.9142(2)
C32_2 C 0.8073(3) 0.6635(3) 0.9477(2)
C33_2 C 0.8848(3) 0.6810(3) 0.9765(2)
C34_2 C 0.9564(3) 0.6258(3) 0.9714(2)
C35_2 C 0.9503(3) 0.5571(3) 0.9358(2)
C36_2 C 0.8726(3) 0.5407(3) 0.9078(2)
C38_2 C 0.7176(3) 0.6169(3) 0.8283(2)
C39_2 C 0.7323(3) 0.7069(3) 0.8246(2)
C40_2 C 0.7373(3) 0.7475(3) 0.7767(2)
C41_2 C 0.7268(3) 0.6980(3) 0.7312(2)
C42_2 C 0.7109(4) 0.6080(4) 0.7337(2)
C43_2 C 0.7070(4) 0.5694(3) 0.7819(2)
C44_2 C 0.7320(3) 0.7396(4) 0.6812(2)
H13_2 H 0.5647 0.6655 0.8514
H14_2 H 0.4387 0.6908 0.8967
H16_2 H 0.6790 0.5413 0.9782
H17_2 H 0.7581 0.7007 0.9510
H18_2 H 0.8895 0.7299 0.9996
H20_2 H 0.8682 0.4931 0.8838
H21_2 H 0.7390 0.7411 0.8556
H22_2 H 0.7479 0.8088 0.7749
H23_2 H 0.7029 0.5740 0.7027
H24_2 H 0.6966 0.5080 0.7836
N9_2 N 0.8991(3) 0.3496(3) 0.9716(2)
C15_2 C 0.9630(3) 0.3595(3) 0.9970(2)
C37_3 C 0.5370(3) 0.1405(3) 0.0030(2)
N5_3 N 0.6009(3) 0.1504(3) 0.0284(2)
H15_3 H 0.0575 0.0699 0.0248
Ag5_2 Ag 0.73709(2) 0.15363(3) 0.06530(1)
C23_3 C 0.2142(3) 0.0725(3) 0.8816(2)
C24_3 C 0.1337(3) 0.0991(3) 0.9105(2)
C25_3 C 0.0623(3) 0.1449(3) 0.8862(2)
C28_3 C 0.0582(3) 0.0879(3) 0.9894(2)
C29_3 C 0.1303(3) 0.0718(3) 0.9617(2)
C31_3 C 0.2999(3) 0.0932(3) 0.9142(2)
C32_3 C 0.3073(3) 0.1635(3) 0.9477(2)
C33_3 C 0.3848(3) 0.1810(3) 0.9765(2)
C34_3 C 0.4564(3) 0.1258(3) 0.9714(2)
C35_3 C 0.4503(3) 0.0571(3) 0.9358(2)
C36_3 C 0.3726(3) 0.0407(3) 0.9078(2)
C38_3 C 0.2176(3) 0.1169(3) 0.8283(2)
C39_3 C 0.2323(3) 0.2069(3) 0.8246(2)
C40_3 C 0.2373(3) 0.2475(3) 0.7767(2)
C41_3 C 0.2268(3) 0.1980(3) 0.7312(2)
C42_3 C 0.2109(4) 0.1080(4) 0.7337(2)
C43_3 C 0.2070(4) 0.0694(3) 0.7819(2)
C44_3 C 0.2320(3) 0.2396(4) 0.6812(2)
N6_2 N 0.2347(3) 0.2736(3) 0.6418(2)
H13_3 H 0.0647 0.1655 0.8514
H16_3 H 0.1790 0.0413 0.9782
H17_3 H 0.2581 0.2007 0.9510
H18_3 H 0.3895 0.2299 0.9996
H19_2 H 0.5001 0.0216 0.9309
H21_3 H 0.2390 0.2411 0.8556
H22_3 H 0.2479 0.3088 0.7749
H23_3 H 0.2029 0.0740 0.7027
H24_3 H 0.1966 0.0080 0.7836
Ag6_2 Ag 0.23709(2) 0.34637(3) 0.56530(1)
N1_3 N 0.1499(3) 0.8468(3) 0.9828(2)
O2_3 O 0.2111(2) 0.9790(2) 0.8759(1)
H20_3 H 0.3682 0.9931 0.8838
Ag2_2 Ag 0.26291(2) 0.84637(3) 0.93470(1)
N9_3 N 0.3991(3) 0.8496(3) 0.9716(2)
N10_2 N 0.2653(3) 0.7736(3) 0.8582(2)
O1_3 O 0.7889(2) 0.0210(2) 0.1241(1)
H8_3 H 0.6318 0.0069 0.1162
N4_3 N 0.8501(3) 0.1532(3) 0.0172(2)
N8_2 N 0.7347(3) 0.2264(3) 0.1418(2)
C1_3 C 0.7858(3) 0.9275(3) 0.1184(2)
C2_3 C 0.8663(3) 0.9009(3) 0.0895(2)
C3_3 C 0.9377(3) 0.8551(3) 0.1138(2)
C6_3 C 0.9418(3) 0.9121(3) 0.0106(2)
C7_3 C 0.8697(3) 0.9282(3) 0.0383(2)
C9_3 C 0.7001(3) 0.9068(3) 0.0858(2)
C10_3 C 0.6927(3) 0.8365(3) 0.0523(2)
C11_3 C 0.6152(3) 0.8190(3) 0.0235(2)
C12_3 C 0.5436(3) 0.8742(3) 0.0286(2)
C13_3 C 0.5497(3) 0.9429(3) 0.0642(2)
C14_3 C 0.6274(3) 0.9593(3) 0.0922(2)
C16_3 C 0.7824(3) 0.8831(3) 0.1717(2)
C17_3 C 0.7677(3) 0.7931(3) 0.1754(2)
C18_3 C 0.7627(3) 0.7525(3) 0.2233(2)
C19_3 C 0.7732(3) 0.8020(3) 0.2688(2)
C20_3 C 0.7891(4) 0.8920(4) 0.2663(2)
C21_3 C 0.7930(4) 0.9306(3) 0.2181(2)
C22_3 C 0.7680(3) 0.7604(4) 0.3188(2)
N3_2 N 0.7653(3) 0.7264(3) 0.3582(2)
H1_3 H 0.9353 0.8345 0.1486
H4_3 H 0.8210 0.9587 0.0218
H5_3 H 0.7419 0.7993 0.0490
H6_3 H 0.6105 0.7701 0.0004
H7_2 H 0.4999 0.9784 0.0691
H9_3 H 0.7610 0.7589 0.1444
H10_3 H 0.7521 0.6912 0.2251
H11_3 H 0.7971 0.9260 0.2973
H12_3 H 0.8034 0.9920 0.2164
Ag4_2 Ag 0.76291(2) 0.65363(3) 0.43470(1)
C15_3 C 0.4630(3) 0.8595(3) 0.9970(2)
H3_3 H 0.9425 0.9301 0.9752
C37_4 C 0.0370(3) 0.3595(3) 0.5030(2)
N5_4 N 0.1009(3) 0.3496(3) 0.5284(2)
H19_3 H 0.0001 0.4784 0.4309
C1_4 C 0.2858(3) 0.5725(3) 0.6184(2)
O1_4 O 0.2889(2) 0.4790(2) 0.6241(1)
C2_4 C 0.3663(3) 0.5991(3) 0.5895(2)
C3_4 C 0.4377(3) 0.6449(3) 0.6138(2)
C4_3 C 0.5125(3) 0.6605(3) 0.5868(2)
C5_3 C 0.5146(3) 0.6312(3) 0.5357(2)
C6_4 C 0.4418(3) 0.5879(3) 0.5106(2)
C7_4 C 0.3697(3) 0.5718(3) 0.5383(2)
C8_3 C 0.5911(3) 0.6446(3) 0.5070(2)
N1_4 N 0.6499(3) 0.6532(3) 0.4828(2)
C9_4 C 0.2001(3) 0.5932(3) 0.5858(2)
C10_4 C 0.1927(3) 0.6635(3) 0.5523(2)
C11_4 C 0.1152(3) 0.6810(3) 0.5235(2)
C12_4 C 0.0436(3) 0.6258(3) 0.5286(2)
C13_4 C 0.0497(3) 0.5571(3) 0.5642(2)
C14_4 C 0.1274(3) 0.5407(3) 0.5922(2)
C16_4 C 0.2824(3) 0.6169(3) 0.6717(2)
C17_4 C 0.2677(3) 0.7069(3) 0.6754(2)
C18_4 C 0.2627(3) 0.7475(3) 0.7233(2)
C19_4 C 0.2732(3) 0.6980(3) 0.7688(2)
C20_4 C 0.2891(4) 0.6080(4) 0.7663(2)
C21_4 C 0.2930(4) 0.5694(3) 0.7181(2)
C22_4 C 0.2680(3) 0.7396(4) 0.8188(2)
H1_4 H 0.4353 0.6655 0.6486
H2_3 H 0.5613 0.6908 0.6033
H3_4 H 0.4425 0.5699 0.4752
H4_4 H 0.3210 0.5413 0.5218
H5_4 H 0.2419 0.7007 0.5490
H6_4 H 0.1105 0.7299 0.5004
H8_4 H 0.1318 0.4931 0.6162
H9_4 H 0.2610 0.7411 0.6444
H10_4 H 0.2521 0.8088 0.7251
H11_4 H 0.2971 0.5740 0.7973
H12_4 H 0.3034 0.5080 0.7164
C23_4 C 0.7142(3) 0.4275(3) 0.3816(2)
O2_4 O 0.7111(2) 0.5210(2) 0.3759(1)
C24_4 C 0.6337(3) 0.4009(3) 0.4105(2)
C25_4 C 0.5623(3) 0.3551(3) 0.3862(2)
C26_3 C 0.4875(3) 0.3395(3) 0.4132(2)
C27_3 C 0.4854(3) 0.3688(3) 0.4643(2)
C28_4 C 0.5582(3) 0.4121(3) 0.4894(2)
C29_4 C 0.6303(3) 0.4282(3) 0.4617(2)
C30_3 C 0.4089(3) 0.3554(3) 0.4930(2)
N4_4 N 0.3501(3) 0.3468(3) 0.5172(2)
C31_4 C 0.7999(3) 0.4068(3) 0.4142(2)
C32_4 C 0.8073(3) 0.3365(3) 0.4477(2)
C33_4 C 0.8848(3) 0.3190(3) 0.4765(2)
C34_4 C 0.9564(3) 0.3742(3) 0.4714(2)
C35_4 C 0.9503(3) 0.4429(3) 0.4358(2)
C36_4 C 0.8726(3) 0.4593(3) 0.4078(2)
C38_4 C 0.7176(3) 0.3831(3) 0.3283(2)
C39_4 C 0.7323(3) 0.2931(3) 0.3246(2)
C40_4 C 0.7373(3) 0.2525(3) 0.2767(2)
C41_4 C 0.7268(3) 0.3020(3) 0.2312(2)
C42_4 C 0.7109(4) 0.3920(4) 0.2337(2)
C43_4 C 0.7070(4) 0.4306(3) 0.2819(2)
C44_4 C 0.7320(3) 0.2604(4) 0.1812(2)
H13_4 H 0.5647 0.3345 0.3514
H14_3 H 0.4387 0.3092 0.3967
H15_4 H 0.5575 0.4301 0.5248
H16_4 H 0.6790 0.4587 0.4782
H17_4 H 0.7581 0.2993 0.4510
H18_4 H 0.8895 0.2701 0.4996
H20_4 H 0.8682 0.5069 0.3838
H21_4 H 0.7390 0.2589 0.3556
H22_4 H 0.7479 0.1912 0.2749
H23_4 H 0.7029 0.4260 0.2027
H24_4 H 0.6966 0.4920 0.2836
N9_4 N 0.8991(3) 0.6504(3) 0.4716(2)
C15_4 C 0.9630(3) 0.6405(3) 0.4970(2)
H7_3 H 0.9999 0.5216 0.5691
C4_4 C 0.0125(3) 0.8395(3) 0.0868(2)
C5_4 C 0.0146(3) 0.8688(3) 0.0357(2)
C8_4 C 0.0911(3) 0.8554(3) 0.0070(2)
H2_4 H 0.0613 0.8092 0.1033
C26_4 C 0.9875(3) 0.1605(3) 0.9132(2)
C27_4 C 0.9854(3) 0.1312(3) 0.9643(2)
C30_4 C 0.9089(3) 0.1446(3) 0.9930(2)
H14_4 H 0.9387 0.1908 0.8967
H19_4 H 0.0001 0.5216 0.9309
H7_4 H 0.9999 0.4784 0.0691
loop_
_geom_bond_atom_site_label_1
_geom_bond_atom_site_label_2
_geom_bond_site_symmetry_1
_geom_bond_site_symmetry_2
F2 Sb1 1_555 1_555
F4 Sb1 1_555 1_555
F6 Sb1 1_555 1_555
F2_2 Sb1_2 1_555 1_555
F4_2 Sb1_2 1_555 1_555
F6_2 Sb1_2 1_555 1_555
Sb1_3 F1_3 1_555 1_555
F2_3 Sb1_3 1_555 1_555
F3_3 Sb1_3 1_555 1_555
F4_3 Sb1_3 1_555 1_555
F5_3 Sb1_3 1_555 1_555
F6_3 Sb1_3 1_555 1_555
Sb1_4 F1_4 1_555 1_555
F2_4 Sb1_4 1_555 1_555
F3_4 Sb1_4 1_555 1_555
F4_4 Sb1_4 1_555 1_555
F5_4 Sb1_4 1_555 1_555
F6_4 Sb1_4 1_555 1_555
F2_5 Sb1_5 1_555 1_555
F4_5 Sb1_5 1_555 1_555
F6_5 Sb1_5 1_555 1_555
F2_6 Sb1_6 1_555 1_555
F4_6 Sb1_6 1_555 1_555
F6_6 Sb1_6 1_555 1_555
Sb1_7 F1_7 1_555 1_555
F2_7 Sb1_7 1_555 1_555
F3_7 Sb1_7 1_555 1_555
F4_7 Sb1_7 1_555 1_555
F5_7 Sb1_7 1_555 1_555
F6_7 Sb1_7 1_555 1_555
Sb1_8 F1_8 1_555 1_555
F2_8 Sb1_8 1_555 1_555
F3_8 Sb1_8 1_555 1_555
F4_8 Sb1_8 1_555 1_555
F5_8 Sb1_8 1_555 1_555
F6_8 Sb1_8 1_555 1_555
C5 C4 1_555 1_555
C8 C5 1_555 1_555
N1 C8 1_555 1_555
H2 C4 1_555 1_555
O2 Ag2 1_555 1_555
Ag2 N1 1_555 1_555
N9 Ag2 1_555 1_555
N10 Ag2 1_555 1_555
C24 C23 1_555 1_555
C25 C24 1_555 1_555
C29 C24 1_555 1_555
C31 C23 1_555 1_555
C32 C31 1_555 1_555
C33 C32 1_555 1_555
C34 C33 1_555 1_555
C35 C34 1_555 1_555
C36 C31 1_555 1_555
C37 C34 1_555 1_555
N5 C37 1_555 1_555
C38 C23 1_555 1_555
C39 C38 1_555 1_555
C40 C39 1_555 1_555
C41 C40 1_555 1_555
C42 C41 1_555 1_555
C43 C38 1_555 1_555
C44 C41 1_555 1_555
N6 C44 1_555 1_555
H13 C25 1_555 1_555
H15 C28 1_555 1_555
H16 C29 1_555 1_555
H17 C32 1_555 1_555
H18 C33 1_555 1_555
H19 C35 1_555 1_555
H21 C39 1_555 1_555
H22 C40 1_555 1_555
H23 C42 1_555 1_555
H24 C43 1_555 1_555
Ag5 N5 1_555 1_555
Ag6 N6 1_555 1_555
C28 C29 1_555 1_555
C35 C36 1_555 1_555
C42 C43 1_555 1_555
C2 C1 1_555 1_555
C3 C2 1_555 1_555
C7 C2 1_555 1_555
C9 C1 1_555 1_555
C10 C9 1_555 1_555
C11 C10 1_555 1_555
C12 C11 1_555 1_555
C13 C12 1_555 1_555
C14 C9 1_555 1_555
C15 C12 1_555 1_555
N9 C15 1_555 1_555
C16 C1 1_555 1_555
C17 C16 1_555 1_555
C18 C17 1_555 1_555
C19 C18 1_555 1_555
C20 C19 1_555 1_555
C21 C16 1_555 1_555
C22 C19 1_555 1_555
N3 C22 1_555 1_555
H1 C3 1_555 1_555
H3 C6 1_555 1_555
H4 C7 1_555 1_555
H5 C10 1_555 1_555
H6 C11 1_555 1_555
H7 C13 1_555 1_555
H9 C17 1_555 1_555
H10 C18 1_555 1_555
H11 C20 1_555 1_555
H12 C21 1_555 1_555
Ag4 N3 1_555 1_555
C6 C7 1_555 1_555
C13 C14 1_555 1_555
C20 C21 1_555 1_555
Ag5 O1 1_555 1_555
C27 C26 1_555 1_555
C30 C27 1_555 1_555
N4 Ag5 1_555 1_555
H14 C26 1_555 1_555
N8 Ag5 1_555 1_555
C30 N4 1_555 1_555
N5_2 C37_2 1_555 1_555
Ag6 N5_2 1_555 1_555
Ag6 O1_2 1_555 1_555
C1_2 O1_2 1_555 1_555
C2_2 C1_2 1_555 1_555
C3_2 C2_2 1_555 1_555
C4_2 C3_2 1_555 1_555
C5_2 C4_2 1_555 1_555
C6_2 C5_2 1_555 1_555
C7_2 C2_2 1_555 1_555
C8_2 C5_2 1_555 1_555
C9_2 C1_2 1_555 1_555
C10_2 C9_2 1_555 1_555
C11_2 C10_2 1_555 1_555
C12_2 C11_2 1_555 1_555
C13_2 C12_2 1_555 1_555
C14_2 C9_2 1_555 1_555
C16_2 C1_2 1_555 1_555
C17_2 C16_2 1_555 1_555
C18_2 C17_2 1_555 1_555
C19_2 C18_2 1_555 1_555
C20_2 C19_2 1_555 1_555
C21_2 C16_2 1_555 1_555
C22_2 C19_2 1_555 1_555
N10 C22_2 1_555 1_555
H1_2 C3_2 1_555 1_555
H2_2 C4_2 1_555 1_555
H4_2 C7_2 1_555 1_555
H5_2 C10_2 1_555 1_555
H6_2 C11_2 1_555 1_555
H8_2 C14_2 1_555 1_555
H9_2 C17_2 1_555 1_555
H10_2 C18_2 1_555 1_555
H11_2 C20_2 1_555 1_555
H12_2 C21_2 1_555 1_555
N4_2 Ag6 1_555 1_555
C6_2 C7_2 1_555 1_555
C13_2 C14_2 1_555 1_555
C20_2 C21_2 1_555 1_555
C23_2 O2_2 1_555 1_555
O2_2 Ag4 1_555 1_555
C24_2 C23_2 1_555 1_555
C25_2 C24_2 1_555 1_555
C26_2 C25_2 1_555 1_555
C27_2 C26_2 1_555 1_555
C28_2 C27_2 1_555 1_555
C29_2 C24_2 1_555 1_555
C30_2 C27_2 1_555 1_555
C31_2 C23_2 1_555 1_555
C32_2 C31_2 1_555 1_555
C33_2 C32_2 1_555 1_555
C34_2 C33_2 1_555 1_555
C35_2 C34_2 1_555 1_555
C36_2 C31_2 1_555 1_555
C38_2 C23_2 1_555 1_555
C39_2 C38_2 1_555 1_555
C40_2 C39_2 1_555 1_555
C41_2 C40_2 1_555 1_555
C42_2 C41_2 1_555 1_555
C43_2 C38_2 1_555 1_555
C44_2 C41_2 1_555 1_555
N8 C44_2 1_555 1_555
H13_2 C25_2 1_555 1_555
H14_2 C26_2 1_555 1_555
H16_2 C29_2 1_555 1_555
H17_2 C32_2 1_555 1_555
H18_2 C33_2 1_555 1_555
H20_2 C36_2 1_555 1_555
H21_2 C39_2 1_555 1_555
H22_2 C40_2 1_555 1_555
H23_2 C42_2 1_555 1_555
H24_2 C43_2 1_555 1_555
Ag4 N1_2 1_555 1_555
N9_2 Ag4 1_555 1_555
C28_2 C29_2 1_555 1_555
C35_2 C36_2 1_555 1_555
C42_2 C43_2 1_555 1_555
N9_2 C15_2 1_555 1_555
N5_3 C37_3 1_555 1_555
Ag5_2 N5_3 1_555 1_555
C24_3 C23_3 1_555 1_555
C25_3 C24_3 1_555 1_555
C29_3 C24_3 1_555 1_555
C31_3 C23_3 1_555 1_555
C32_3 C31_3 1_555 1_555
C33_3 C32_3 1_555 1_555
C34_3 C33_3 1_555 1_555
C35_3 C34_3 1_555 1_555
C36_3 C31_3 1_555 1_555
C38_3 C23_3 1_555 1_555
C39_3 C38_3 1_555 1_555
C40_3 C39_3 1_555 1_555
C41_3 C40_3 1_555 1_555
C42_3 C41_3 1_555 1_555
C43_3 C38_3 1_555 1_555
C44_3 C41_3 1_555 1_555
N6_2 C44_3 1_555 1_555
H13_3 C25_3 1_555 1_555
H16_3 C29_3 1_555 1_555
H17_3 C32_3 1_555 1_555
H18_3 C33_3 1_555 1_555
H19_2 C35_3 1_555 1_555
H21_3 C39_3 1_555 1_555
H22_3 C40_3 1_555 1_555
H23_3 C42_3 1_555 1_555
H24_3 C43_3 1_555 1_555
Ag6_2 N6_2 1_555 1_555
C28_3 C29_3 1_555 1_555
C35_3 C36_3 1_555 1_555
C42_3 C43_3 1_555 1_555
O2_3 Ag2_2 1_555 1_555
Ag2_2 N1_3 1_555 1_555
N9_3 Ag2_2 1_555 1_555
N10_2 Ag2_2 1_555 1_555
Ag5_2 O1_3 1_555 1_555
N4_3 Ag5_2 1_555 1_555
N8_2 Ag5_2 1_555 1_555
C2_3 C1_3 1_555 1_555
C3_3 C2_3 1_555 1_555
C7_3 C2_3 1_555 1_555
C9_3 C1_3 1_555 1_555
C10_3 C9_3 1_555 1_555
C11_3 C10_3 1_555 1_555
C12_3 C11_3 1_555 1_555
C13_3 C12_3 1_555 1_555
C14_3 C9_3 1_555 1_555
C16_3 C1_3 1_555 1_555
C17_3 C16_3 1_555 1_555
C18_3 C17_3 1_555 1_555
C19_3 C18_3 1_555 1_555
C20_3 C19_3 1_555 1_555
C21_3 C16_3 1_555 1_555
C22_3 C19_3 1_555 1_555
N3_2 C22_3 1_555 1_555
H1_3 C3_3 1_555 1_555
H4_3 C7_3 1_555 1_555
H5_3 C10_3 1_555 1_555
H6_3 C11_3 1_555 1_555
H7_2 C13_3 1_555 1_555
H9_3 C17_3 1_555 1_555
H10_3 C18_3 1_555 1_555
H11_3 C20_3 1_555 1_555
H12_3 C21_3 1_555 1_555
Ag4_2 N3_2 1_555 1_555
C6_3 C7_3 1_555 1_555
C13_3 C14_3 1_555 1_555
C20_3 C21_3 1_555 1_555
N9_3 C15_3 1_555 1_555
N5_4 C37_4 1_555 1_555
Ag6_2 N5_4 1_555 1_555
Ag6_2 O1_4 1_555 1_555
C1_4 O1_4 1_555 1_555
C2_4 C1_4 1_555 1_555
C3_4 C2_4 1_555 1_555
C4_3 C3_4 1_555 1_555
C5_3 C4_3 1_555 1_555
C6_4 C5_3 1_555 1_555
C7_4 C2_4 1_555 1_555
C8_3 C5_3 1_555 1_555
N1_4 C8_3 1_555 1_555
C9_4 C1_4 1_555 1_555
C10_4 C9_4 1_555 1_555
C11_4 C10_4 1_555 1_555
C12_4 C11_4 1_555 1_555
C13_4 C12_4 1_555 1_555
C14_4 C9_4 1_555 1_555
C16_4 C1_4 1_555 1_555
C17_4 C16_4 1_555 1_555
C18_4 C17_4 1_555 1_555
C19_4 C18_4 1_555 1_555
C20_4 C19_4 1_555 1_555
C21_4 C16_4 1_555 1_555
C22_4 C19_4 1_555 1_555
N10_2 C22_4 1_555 1_555
H1_4 C3_4 1_555 1_555
H2_3 C4_3 1_555 1_555
H3_4 C6_4 1_555 1_555
H4_4 C7_4 1_555 1_555
H5_4 C10_4 1_555 1_555
H6_4 C11_4 1_555 1_555
H8_4 C14_4 1_555 1_555
H9_4 C17_4 1_555 1_555
H10_4 C18_4 1_555 1_555
H11_4 C20_4 1_555 1_555
H12_4 C21_4 1_555 1_555
C23_4 O2_4 1_555 1_555
O2_4 Ag4_2 1_555 1_555
C24_4 C23_4 1_555 1_555
C25_4 C24_4 1_555 1_555
C26_3 C25_4 1_555 1_555
C27_3 C26_3 1_555 1_555
C28_4 C27_3 1_555 1_555
C29_4 C24_4 1_555 1_555
C30_3 C27_3 1_555 1_555
N4_4 Ag6_2 1_555 1_555
C31_4 C23_4 1_555 1_555
C32_4 C31_4 1_555 1_555
C33_4 C32_4 1_555 1_555
C34_4 C33_4 1_555 1_555
C35_4 C34_4 1_555 1_555
C36_4 C31_4 1_555 1_555
C38_4 C23_4 1_555 1_555
C39_4 C38_4 1_555 1_555
C40_4 C39_4 1_555 1_555
C41_4 C40_4 1_555 1_555
C42_4 C41_4 1_555 1_555
C43_4 C38_4 1_555 1_555
C44_4 C41_4 1_555 1_555
N8_2 C44_4 1_555 1_555
H13_4 C25_4 1_555 1_555
H14_3 C26_3 1_555 1_555
H15_4 C28_4 1_555 1_555
H16_4 C29_4 1_555 1_555
H17_4 C32_4 1_555 1_555
H18_4 C33_4 1_555 1_555
H20_4 C36_4 1_555 1_555
H21_4 C39_4 1_555 1_555
H22_4 C40_4 1_555 1_555
H23_4 C42_4 1_555 1_555
H24_4 C43_4 1_555 1_555
Ag4_2 N1_4 1_555 1_555
N9_4 Ag4_2 1_555 1_555
C6_4 C7_4 1_555 1_555
C13_4 C14_4 1_555 1_555
C20_4 C21_4 1_555 1_555
C28_4 C29_4 1_555 1_555
C30_3 N4_4 1_555 1_555
C35_4 C36_4 1_555 1_555
C42_4 C43_4 1_555 1_555
N9_4 C15_4 1_555 1_555
C5_4 C4_4 1_555 1_555
C8_4 C5_4 1_555 1_555
H2_4 C4_4 1_555 1_555
C27_4 C26_4 1_555 1_555
C30_4 C27_4 1_555 1_555
H14_4 C26_4 1_555 1_555

#END
