
###############################################################################
#
# This file contains modified crystal structure data generated from the
# MOF subset of the Cambridge Structural Database (CSD) v543 
# hosted by the Cambridge Crystallographic Data Centre (CCDC).
#
# This work is licensed under the Creative Commons
# Attribution-NonCommercial-ShareAlike 4.0 International License.
# To view a copy of this license, visit
# http://creativecommons.org/licenses/by-nc-sa/4.0/
# or send a letter to
# Creative Commons, PO Box 1866, Mountain View, CA 94042, USA.
#
# CIF created using the CSD Python API on 29 September 2022
# The structure has been converted into the P1 space group
# The structure has a 3D framework
# The original CSD entry IDUQUT is in the rhombohedral crystal system
# The framework has been calculated to contain at least 10.0% void space
# The void calculation uses a probe of radius 1.32A, grid spacing 0.4
# H atom positions have been added when not included in the experimental data
#
###############################################################################

data_IDUQUT
_chemical_formula_moiety         '(C432 H504 Ni110 O492)n'
_symmetry_cell_setting           triclinic
_symmetry_space_group_name_H-M   'P 1'
_symmetry_Int_Tables_number      1
_space_group_name_Hall           'P 1'
loop_
_symmetry_equiv_pos_site_id
_symmetry_equiv_pos_as_xyz
1 x,y,z
_cell_length_a                   21.0396(13)
_cell_length_b                   21.0396(13)
_cell_length_c                   45.860(4)
_cell_angle_alpha                90
_cell_angle_beta                 90
_cell_angle_gamma                120
_cell_volume                     17580.8
loop_
_atom_site_label
_atom_site_type_symbol
_atom_site_fract_x
_atom_site_fract_y
_atom_site_fract_z
O5 O 0.05061(19) 0.52364(19) 0.02057(8)
O6 O 0.1458(3) 0.6304(3) 0.03385(13)
O7 O 0.08085(18) 0.39288(18) 0.00628(8)
O8 O 0.17886(19) 0.38246(19) 0.01649(8)
C5 C 0.1149(3) 0.5634(3) 0.03224(13)
C6 C 0.1496(3) 0.5218(4) 0.04553(15)
H5 H 0.1117 0.4782 0.0552
H6 H 0.1847 0.5524 0.0603
C7 C 0.1893(3) 0.4983(3) 0.02296(14)
H7 H 0.1988 0.5276 0.0054
H8 H 0.2363 0.5090 0.0310
C8 C 0.1470(3) 0.4192(3) 0.01490(11)
O31 O 0.04950(25) 0.23600(18) 0.01240(7)
Ni1 Ni 0.01536(3) 0.29482(3) 0.985530(13)
Ni4 Ni 0.01691(3) 0.43685(4) 0.991730(14)
O14 O 0.0970(2) 0.5109(2) 0.96336(8)
O29 O 0.10842(18) 0.30984(25) 0.96344(7)
Ni10 Ni 0.15516(3) 0.28503(4) 0.998150(12)
H25 H 0.144481 0.53818 0.973863
H26 H 0.102439 0.483807 0.946713
Ni2 Ni 0.87013(3) 0.15516(3) 0.001850(12)
Ni3 Ni 0.666667 0.00273(4) 0.083333
O1 O 0.92924(18) 0.26524(18) 0.01358(7)
O2 O 0.9401(2) 0.3745(2) 0.02291(8)
O3 O 0.79858(18) 0.10842(18) 0.03656(7)
O4 O 0.7416(2) 0.11068(19) 0.07713(8)
C1 C 0.9106(3) 0.3071(3) 0.02707(12)
C2 C 0.8511(4) 0.2725(4) 0.04848(15)
H1 H 0.8524 0.3100 0.0612
H2 H 0.8044 0.2493 0.0383
C3 C 0.8565(4) 0.2146(3) 0.06715(12)
H3 H 0.8546 0.2250 0.0876
H4 H 0.9031 0.2171 0.0635
C4 C 0.7944(3) 0.1384(3) 0.06010(10)
O15 O 0.40409(18) 0.00267(25) 0.15309(7)
O16 O 0.3932(2) 0.1011(3) 0.14376(8)
O18 O 0.5917(2) 0.03575(28) 0.08954(8)
C13 C 0.4227(3) 0.0632(4) 0.13960(12)
C14 C 0.4822(4) 0.0881(6) 0.11819(15)
H13 H 0.4809 0.1243 0.1055
H14 H 0.5289 0.1116 0.1284
C15 C 0.4768(4) 0.0248(5) 0.09952(12)
H15 H 0.4787 0.0371 0.0791
C16 C 0.5389(3) 0.0107(4) 0.10657(10)
O23 O 0.70164(18) 0.02108(25) 0.12735(7)
Ni7 Ni 0.31642(3) 0.08661(5) 0.174937(14)
O28 O 0.2363(2) 0.0806(3) 0.20331(8)
O34 O 0.94290(27) 0.1361(2) 0.02366(8)
Ni8 Ni 0.72054(4) 0.01536(3) 0.014470(13)
Ni9 Ni 0.98309(3) 0.56315(4) 0.008270(14)
Ni14 Ni 0.58006(5) 0.01691(3) 0.008270(14)
Ni19 Ni 0.75327(5) 0.10352(4) 0.158397(14)
O40 O 0.34723(18) 0.03498(18) 0.20599(7)
O41 O 0.53693(27) 0.04913(19) 0.18316(8)
O44 O 0.28272(19) 0.13970(27) 0.14610(8)
O45 O 0.38394(19) 0.19364(27) 0.18724(8)
H27 H 0.188852 0.0603647 0.192803
H28 H 0.230894 0.0480348 0.219953
O24 O 0.52697(27) 0.05061(19) 0.97943(8)
O25 O 0.5154(4) 0.1458(3) 0.96615(13)
O26 O 0.68797(25) 0.08085(18) 0.99372(8)
O27 O 0.79640(27) 0.17886(19) 0.98351(8)
C21 C 0.5515(4) 0.1149(3) 0.96776(13)
C22 C 0.6278(5) 0.1496(3) 0.95447(15)
H21 H 0.6335 0.1117 0.9448
H22 H 0.6323 0.1847 0.9397
C23 C 0.6910(4) 0.1893(3) 0.97704(14)
H23 H 0.6712 0.1988 0.9946
H24 H 0.7273 0.2363 0.9690
C24 C 0.7278(4) 0.1470(3) 0.98510(11)
O30 O 0.94099(18) 0.19809(26) 0.96760(7)
O32 O 0.98610(18) 0.35441(25) 0.96068(7)
O33 O 0.81350(18) 0.04950(25) 0.98760(7)
O35 O 0.94939(19) 0.47636(19) 0.97943(8)
O9 O 0.74290(19) 0.94099(18) 0.03240(7)
O10 O 0.7422(2) 0.9691(2) 0.07906(7)
O11 O 0.76400(18) 0.81350(18) 0.01240(7)
O12 O 0.8639(2) 0.80680(18) 0.02366(8)
O13 O 0.63169(18) 0.98610(18) 0.03932(7)
C9 C 0.7583(3) 0.9398(3) 0.05964(10)
C10 C 0.8002(4) 0.9018(4) 0.06714(12)
H9 H 0.7653 0.8506 0.0710
H10 H 0.8271 0.9230 0.0850
C11 C 0.8548(3) 0.9055(3) 0.04393(13)
H11 H 0.8992 0.9136 0.0536
H12 H 0.8677 0.9473 0.0313
C12 C 0.8258(3) 0.8374(3) 0.02534(10)
O17 O 0.53475(18) 0.97651(25) 0.13011(7)
H16 H 0.4302 0.9807 0.1032
O19 O 0.59043(19) 0.86476(26) 0.13427(7)
O20 O 0.5911(2) 0.8936(3) 0.08761(7)
O21 O 0.56933(18) 0.71617(25) 0.15427(7)
O22 O 0.4694(2) 0.60957(27) 0.14301(8)
C17 C 0.5750(3) 0.8482(4) 0.10703(10)
C18 C 0.5331(4) 0.7683(6) 0.09953(12)
H17 H 0.5680 0.7520 0.0957
H18 H 0.5062 0.7626 0.0817
C19 C 0.4785(3) 0.7174(4) 0.12274(13)
H19 H 0.4341 0.6811 0.1131
H20 H 0.4656 0.7463 0.1354
C20 C 0.5075(3) 0.6783(4) 0.14133(10)
Ni5 Ni 0.31797(3) 0.94613(4) 0.181137(13)
Ni6 Ni 0.46320(3) 0.95170(4) 0.164817(12)
Ni13 Ni 0.84484(3) 0.71497(4) 0.001850(12)
Ni15 Ni 0.61279(4) 0.96149(3) 0.152197(13)
Ni16 Ni 0.61836(4) 0.82183(3) 0.168517(12)
Ni17 Ni 0.62815(3) 0.68203(3) 0.181137(13)
Ni18 Ni 0.48849(3) 0.53680(3) 0.164817(12)
O36 O 0.22491(18) 0.86809(18) 0.20323(7)
O37 O 0.25248(18) 0.97870(25) 0.16039(8)
O38 O 0.39234(18) 0.92377(19) 0.19907(7)
O39 O 0.28383(25) 0.85317(18) 0.15427(7)
O42 O 0.51983(18) 0.90267(18) 0.17907(7)
O43 O 0.39043(27) 0.85987(18) 0.14301(8)
Ni11 Ni 0.71497(4) 0.87013(3) 0.998150(12)
Ni12 Ni 0.70518(3) 0.72054(4) 0.985530(13)
Ni20 Ni 0.41994(5) 0.98309(3) 0.991730(14)
O12_2 O 0.19320(18) 0.05710(27) 0.02366(8)
Ni13_2 Ni 0.28503(4) 0.12987(5) 0.001850(12)
O9_2 O 0.05901(18) 0.80191(26) 0.03240(7)
O10_2 O 0.0309(2) 0.7731(3) 0.07906(7)
O11_2 O 0.18650(18) 0.95050(25) 0.01240(7)
O13_2 O 0.01390(18) 0.64559(25) 0.03932(7)
C9_2 C 0.0602(3) 0.8185(4) 0.05964(10)
C10_2 C 0.0982(4) 0.8984(6) 0.06714(12)
H9_2 H 0.1494 0.9147 0.0710
H10_2 H 0.0770 0.9041 0.0850
C11_2 C 0.0945(3) 0.9493(4) 0.04393(13)
H11_2 H 0.0864 0.9856 0.0536
H12_2 H 0.0527 0.9204 0.0313
C12_2 C 0.1626(3) 0.9884(4) 0.02534(10)
O17_2 O 0.02349(25) 0.55825(31) 0.13011(7)
H16_2 H 0.0193 0.4496 0.1032
O19_2 O 0.13524(26) 0.72568(32) 0.13427(7)
O20_2 O 0.1064(3) 0.6976(4) 0.08761(7)
C17_2 C 0.1518(4) 0.7269(5) 0.10703(10)
C18_2 C 0.2317(6) 0.7649(7) 0.09953(12)
H17_2 H 0.2480 0.8161 0.0957
H18_2 H 0.2374 0.7437 0.0817
C19_2 C 0.2826(4) 0.7612(5) 0.12274(13)
H19_2 H 0.3189 0.7531 0.1131
H20_2 H 0.2537 0.7194 0.1354
C20_2 C 0.3217(4) 0.8293(5) 0.14133(10)
Ni5_2 Ni 0.05387(4) 0.37185(5) 0.181137(13)
Ni6_2 Ni 0.04830(4) 0.51151(5) 0.164817(12)
Ni15_2 Ni 0.03851(3) 0.65131(5) 0.152197(13)
Ni16_2 Ni 0.17817(3) 0.79654(5) 0.168517(12)
O36_2 O 0.13191(18) 0.35683(25) 0.20323(7)
O37_2 O 0.02130(25) 0.27379(31) 0.16039(8)
O38_2 O 0.07623(19) 0.46858(26) 0.19907(7)
O39_2 O 0.14683(18) 0.43067(31) 0.15427(7)
O42_2 O 0.09733(18) 0.61717(25) 0.17907(7)
O43_2 O 0.14013(18) 0.53057(32) 0.14301(8)
Ni11_2 Ni 0.12987(3) 0.84484(5) 0.998150(12)
Ni12_2 Ni 0.27946(4) 0.98464(5) 0.985530(13)
Ni3_2 Ni 0.99727(4) 0.663937(40) 0.083333
O1_2 O 0.73476(18) 0.66400(25) 0.01358(7)
O2_2 O 0.6255(2) 0.5656(3) 0.02291(8)
O3_2 O 0.89158(18) 0.69016(25) 0.03656(7)
O4_2 O 0.88932(19) 0.63092(28) 0.07713(8)
O5_2 O 0.47636(19) 0.52697(27) 0.02057(8)
O6_2 O 0.3696(3) 0.5154(4) 0.03385(13)
O7_2 O 0.60712(18) 0.68797(25) 0.00628(8)
O8_2 O 0.61754(19) 0.79640(27) 0.01649(8)
C1_2 C 0.6929(3) 0.6035(4) 0.02707(12)
C2_2 C 0.7275(4) 0.5786(6) 0.04848(15)
H1_2 H 0.6900 0.5424 0.0612
H2_2 H 0.7507 0.5551 0.0383
C3_2 C 0.7854(3) 0.6419(5) 0.06715(12)
H3_2 H 0.7750 0.6296 0.0876
H4_2 H 0.7829 0.6860 0.0635
C4_2 C 0.8616(3) 0.6560(4) 0.06010(10)
C5_2 C 0.4366(3) 0.5515(4) 0.03224(13)
C6_2 C 0.4782(4) 0.6278(5) 0.04553(15)
H5_2 H 0.5218 0.6335 0.0552
H6_2 H 0.4476 0.6323 0.0603
C7_2 C 0.5017(3) 0.6910(4) 0.02296(14)
H7_2 H 0.4724 0.6712 0.0054
H8_2 H 0.4910 0.7273 0.0310
C8_2 C 0.5808(3) 0.7278(4) 0.01490(11)
O15_2 O 0.99733(25) 0.40143(31) 0.15309(7)
O16_2 O 0.8989(3) 0.2922(4) 0.14376(8)
O18_2 O 0.96425(28) 0.55599(34) 0.08954(8)
C13_2 C 0.9368(4) 0.3596(5) 0.13960(12)
C14_2 C 0.9119(6) 0.3942(7) 0.11819(15)
H13_2 H 0.8757 0.3567 0.1055
H14_2 H 0.8884 0.4174 0.1284
C15_2 C 0.9752(5) 0.4521(6) 0.09952(12)
H15_2 H 0.9629 0.4417 0.0791
C16_2 C 0.9893(4) 0.5283(5) 0.10657(10)
O23_2 O 0.97892(25) 0.68057(31) 0.12735(7)
Ni7_2 Ni 0.91339(5) 0.22982(6) 0.174937(14)
O28_2 O 0.9194(3) 0.1558(4) 0.20331(8)
Ni8_2 Ni 0.98464(3) 0.70518(5) 0.014470(13)
Ni9_2 Ni 0.43685(4) 0.41994(5) 0.008270(14)
Ni19_2 Ni 0.89648(4) 0.64976(6) 0.158397(14)
O40_2 O 0.96502(18) 0.31226(25) 0.20599(7)
O41_2 O 0.95087(19) 0.48781(33) 0.18316(8)
O44_2 O 0.86030(27) 0.14303(33) 0.14610(8)
O45_2 O 0.80636(27) 0.19031(33) 0.18724(8)
H27_2 H 0.939635 0.128487 0.192803
H28_2 H 0.951965 0.18286 0.219953
Ni4_2 Ni 0.56315(4) 0.58006(5) 0.991730(14)
O14_2 O 0.4891(2) 0.5861(3) 0.96336(8)
O25_2 O 0.8542(3) 0.3696(5) 0.96615(13)
O26_2 O 0.91915(18) 0.60712(31) 0.99372(8)
O27_2 O 0.82114(19) 0.61754(33) 0.98351(8)
C21_2 C 0.8851(3) 0.4366(5) 0.96776(13)
C22_2 C 0.8504(3) 0.4782(6) 0.95447(15)
H21_2 H 0.8883 0.5218 0.9448
H22_2 H 0.8153 0.4476 0.9397
C23_2 C 0.8107(3) 0.5017(5) 0.97704(14)
H23_2 H 0.8012 0.4724 0.9946
H24_2 H 0.7637 0.4910 0.9690
C24_2 C 0.8530(3) 0.5808(5) 0.98510(11)
O29_2 O 0.69016(25) 0.79858(31) 0.96344(7)
O30_2 O 0.80191(26) 0.74290(32) 0.96760(7)
O32_2 O 0.64559(25) 0.63169(31) 0.96068(7)
O33_2 O 0.95050(25) 0.76400(31) 0.98760(7)
O35_2 O 0.52364(19) 0.47303(27) 0.97943(8)
H25_2 H 0.46182 0.606302 0.973863
H26_2 H 0.516193 0.618632 0.946713
Ni1_2 Ni 0.29482(3) 0.01536(3) 0.514470(13)
Ni4_3 Ni 0.43685(4) 0.01691(3) 0.508270(14)
O5_3 O 0.52364(19) 0.05061(19) 0.47943(8)
O6_3 O 0.6304(3) 0.1458(3) 0.46615(13)
O7_3 O 0.39288(18) 0.08085(18) 0.49372(8)
O8_3 O 0.38246(19) 0.17886(19) 0.48351(8)
O14_3 O 0.5109(2) 0.0970(2) 0.53664(8)
C5_3 C 0.5634(3) 0.1149(3) 0.46776(13)
C6_3 C 0.5218(4) 0.1496(3) 0.45447(15)
H5_3 H 0.4782 0.1117 0.4448
H6_3 H 0.5524 0.1847 0.4397
C7_3 C 0.4983(3) 0.1893(3) 0.47704(14)
H7_3 H 0.5276 0.1988 0.4946
H8_3 H 0.5090 0.2363 0.4690
C8_3 C 0.4192(3) 0.1470(3) 0.48510(11)
O29_3 O 0.30984(25) 0.10842(18) 0.53656(7)
O31_2 O 0.23600(18) 0.04950(25) 0.48760(7)
Ni10_2 Ni 0.28503(4) 0.15516(3) 0.501850(12)
H25_3 H 0.53818 0.144481 0.526137
H26_3 H 0.483807 0.102439 0.553287
Ni2_2 Ni 0.15516(3) 0.87013(3) 0.498150(12)
Ni3_3 Ni 0.00273(4) 0.666667 0.416667
O1_3 O 0.26524(18) 0.92924(18) 0.48642(7)
O2_3 O 0.3745(2) 0.9401(2) 0.47709(8)
O3_3 O 0.10842(18) 0.79858(18) 0.46344(7)
O4_3 O 0.11068(19) 0.7416(2) 0.42287(8)
C1_3 C 0.3071(3) 0.9106(3) 0.47293(12)
C2_3 C 0.2725(4) 0.8511(4) 0.45152(15)
H1_3 H 0.3100 0.8524 0.4388
H2_3 H 0.2493 0.8044 0.4617
C3_3 C 0.2146(3) 0.8565(4) 0.43285(12)
H3_3 H 0.2250 0.8546 0.4124
H4_3 H 0.2171 0.9031 0.4365
C4_3 C 0.1384(3) 0.7944(3) 0.43990(10)
O15_3 O 0.00267(25) 0.40409(18) 0.34691(7)
O16_3 O 0.1011(3) 0.3932(2) 0.35624(8)
O18_3 O 0.03575(28) 0.5917(2) 0.41046(8)
C13_3 C 0.0632(4) 0.4227(3) 0.36040(12)
C14_3 C 0.0881(6) 0.4822(4) 0.38181(15)
H13_3 H 0.1243 0.4809 0.3945
H14_3 H 0.1116 0.5289 0.3716
C15_3 C 0.0248(5) 0.4768(4) 0.40048(12)
H15_3 H 0.0371 0.4787 0.4209
C16_3 C 0.0107(4) 0.5389(3) 0.39343(10)
O23_3 O 0.02108(25) 0.70164(18) 0.37265(7)
Ni7_3 Ni 0.08661(5) 0.31642(3) 0.325063(14)
O24_2 O 0.05061(19) 0.52697(27) 0.52057(8)
O25_3 O 0.1458(3) 0.5154(4) 0.53385(13)
O26_3 O 0.08085(18) 0.68797(25) 0.50628(8)
O27_3 O 0.17886(19) 0.79640(27) 0.51649(8)
C21_3 C 0.1149(3) 0.5515(4) 0.53224(13)
C22_3 C 0.1496(3) 0.6278(5) 0.54553(15)
H21_3 H 0.1117 0.6335 0.5552
H22_3 H 0.1847 0.6323 0.5603
C23_3 C 0.1893(3) 0.6910(4) 0.52296(14)
H23_3 H 0.1988 0.6712 0.5054
H24_3 H 0.2363 0.7273 0.5310
C24_3 C 0.1470(3) 0.7278(4) 0.51490(11)
O28_3 O 0.0806(3) 0.2363(2) 0.29669(8)
O30_3 O 0.19809(26) 0.94099(18) 0.53240(7)
O32_3 O 0.35441(25) 0.98610(18) 0.53932(7)
O33_3 O 0.04950(25) 0.81350(18) 0.51240(7)
O34_2 O 0.1361(2) 0.94290(27) 0.47634(8)
O35_3 O 0.47636(19) 0.94939(19) 0.52057(8)
Ni8_3 Ni 0.01536(3) 0.72054(4) 0.485530(13)
Ni9_3 Ni 0.56315(4) 0.98309(3) 0.491730(14)
Ni14_2 Ni 0.01691(3) 0.58006(5) 0.491730(14)
Ni19_3 Ni 0.10352(4) 0.75327(5) 0.341603(14)
O40_3 O 0.03498(18) 0.34723(18) 0.29401(7)
O41_3 O 0.04913(19) 0.53693(27) 0.31684(8)
O44_3 O 0.13970(27) 0.28272(19) 0.35390(8)
O45_3 O 0.19364(27) 0.38394(19) 0.31276(8)
H27_3 H 0.0603647 0.188852 0.307197
H28_3 H 0.0480348 0.230894 0.280047
O9_3 O 0.94099(18) 0.74290(19) 0.46760(7)
O10_3 O 0.9691(2) 0.7422(2) 0.42094(7)
O11_3 O 0.81350(18) 0.76400(18) 0.48760(7)
O12_3 O 0.80680(18) 0.8639(2) 0.47634(8)
O13_3 O 0.98610(18) 0.63169(18) 0.46068(7)
C9_3 C 0.9398(3) 0.7583(3) 0.44036(10)
C10_3 C 0.9018(4) 0.8002(4) 0.43286(12)
H9_3 H 0.8506 0.7653 0.4290
H10_3 H 0.9230 0.8271 0.4150
C11_3 C 0.9055(3) 0.8548(3) 0.45607(13)
H11_3 H 0.9136 0.8992 0.4464
H12_3 H 0.9473 0.8677 0.4687
C12_3 C 0.8374(3) 0.8258(3) 0.47466(10)
O17_3 O 0.97651(25) 0.53475(18) 0.36989(7)
H16_3 H 0.9807 0.4302 0.3968
O19_3 O 0.86476(26) 0.59043(19) 0.36573(7)
O20_3 O 0.8936(3) 0.5911(2) 0.41239(7)
O21_2 O 0.71617(25) 0.56933(18) 0.34573(7)
O22_2 O 0.60957(27) 0.4694(2) 0.35699(8)
C17_3 C 0.8482(4) 0.5750(3) 0.39297(10)
C18_3 C 0.7683(6) 0.5331(4) 0.40047(12)
H17_3 H 0.7520 0.5680 0.4043
H18_3 H 0.7626 0.5062 0.4183
C19_3 C 0.7174(4) 0.4785(3) 0.37726(13)
H19_3 H 0.6811 0.4341 0.3869
H20_3 H 0.7463 0.4656 0.3646
C20_3 C 0.6783(4) 0.5075(3) 0.35867(10)
Ni5_3 Ni 0.94613(4) 0.31797(3) 0.318863(13)
Ni6_3 Ni 0.95170(4) 0.46320(3) 0.335183(12)
Ni11_3 Ni 0.87013(3) 0.71497(4) 0.501850(12)
Ni12_3 Ni 0.72054(4) 0.70518(3) 0.514470(13)
Ni13_3 Ni 0.71497(4) 0.84484(3) 0.498150(12)
Ni15_3 Ni 0.96149(3) 0.61279(4) 0.347803(13)
Ni16_3 Ni 0.82183(3) 0.61836(4) 0.331483(12)
Ni17_2 Ni 0.68203(3) 0.62815(3) 0.318863(13)
Ni18_2 Ni 0.53680(3) 0.48849(3) 0.335183(12)
O36_3 O 0.86809(18) 0.22491(18) 0.29677(7)
O37_3 O 0.97870(25) 0.25248(18) 0.33961(8)
O38_3 O 0.92377(19) 0.39234(18) 0.30093(7)
O39_3 O 0.85317(18) 0.28383(25) 0.34573(7)
O42_3 O 0.90267(18) 0.51983(18) 0.32093(7)
O43_3 O 0.85987(18) 0.39043(27) 0.35699(8)
Ni20_2 Ni 0.98309(3) 0.41994(5) 0.508270(14)
Ni3_4 Ni 0.336063(40) 0.333333 0.083333
O1_4 O 0.33600(25) 0.07076(18) 0.01358(7)
O2_4 O 0.4344(3) 0.0599(2) 0.02291(8)
O3_4 O 0.30984(25) 0.20142(18) 0.03656(7)
O4_4 O 0.36908(28) 0.2584(2) 0.07713(8)
O9_4 O 0.19809(26) 0.25710(19) 0.03240(7)
O10_4 O 0.2269(3) 0.2578(2) 0.07906(7)
O13_4 O 0.35441(25) 0.36831(18) 0.03932(7)
C1_4 C 0.3965(4) 0.0894(3) 0.02707(12)
C2_4 C 0.4214(6) 0.1489(4) 0.04848(15)
H1_4 H 0.4576 0.1476 0.0612
H2_4 H 0.4449 0.1956 0.0383
C3_4 C 0.3581(5) 0.1435(4) 0.06715(12)
H3_4 H 0.3704 0.1454 0.0876
H4_4 H 0.3140 0.0969 0.0635
C4_4 C 0.3440(4) 0.2056(3) 0.06010(10)
C9_4 C 0.1815(4) 0.2417(3) 0.05964(10)
C10_4 C 0.1016(6) 0.1998(4) 0.06714(12)
H9_4 H 0.0853 0.2347 0.0710
H10_4 H 0.0959 0.1729 0.0850
C11_4 C 0.0507(4) 0.1452(3) 0.04393(13)
H11_4 H 0.0144 0.1008 0.0536
H12_4 H 0.0796 0.1323 0.0313
C12_4 C 0.0116(4) 0.1742(3) 0.02534(10)
O15_4 O 0.59857(31) 0.59591(18) 0.15309(7)
O16_4 O 0.7078(4) 0.6068(2) 0.14376(8)
O17_4 O 0.44175(31) 0.46525(18) 0.13011(7)
O18_4 O 0.44401(34) 0.4083(2) 0.08954(8)
C13_4 C 0.6404(5) 0.5773(3) 0.13960(12)
C14_4 C 0.6058(7) 0.5178(4) 0.11819(15)
H13_4 H 0.6433 0.5191 0.1055
H14_4 H 0.5826 0.4711 0.1284
C15_4 C 0.5479(6) 0.5232(4) 0.09952(12)
H15_4 H 0.5583 0.5213 0.0791
H16_4 H 0.5504 0.5698 0.1032
C16_4 C 0.4717(5) 0.4611(3) 0.10657(10)
O19_4 O 0.27432(32) 0.40957(19) 0.13427(7)
O20_4 O 0.3024(4) 0.4089(2) 0.08761(7)
C17_4 C 0.2731(5) 0.4250(3) 0.10703(10)
C18_4 C 0.2351(7) 0.4669(4) 0.09953(12)
H17_4 H 0.1839 0.4320 0.0957
H18_4 H 0.2563 0.4938 0.0817
C19_4 C 0.2388(5) 0.5215(3) 0.12274(13)
H19_4 H 0.2469 0.5659 0.1131
H20_4 H 0.2806 0.5344 0.1354
C20_4 C 0.1707(5) 0.4925(3) 0.14133(10)
O23_4 O 0.31943(31) 0.29836(18) 0.12735(7)
Ni7_4 Ni 0.77018(6) 0.68358(3) 0.174937(14)
O28_4 O 0.8442(4) 0.7637(2) 0.20331(8)
Ni8_4 Ni 0.29482(5) 0.27946(4) 0.014470(13)
Ni15_4 Ni 0.34869(5) 0.38721(4) 0.152197(13)
Ni16_4 Ni 0.20346(5) 0.38164(4) 0.168517(12)
Ni19_4 Ni 0.35024(6) 0.24673(5) 0.158397(14)
O36_4 O 0.64317(25) 0.77509(18) 0.20323(7)
O37_4 O 0.72621(31) 0.74752(18) 0.16039(8)
O38_4 O 0.53142(26) 0.60766(18) 0.19907(7)
O40_4 O 0.68774(25) 0.65277(18) 0.20599(7)
O41_4 O 0.51219(33) 0.46307(27) 0.18316(8)
O42_4 O 0.38283(25) 0.48017(18) 0.17907(7)
O44_4 O 0.85697(33) 0.71728(19) 0.14610(8)
O45_4 O 0.80969(33) 0.61606(19) 0.18724(8)
H27_4 H 0.871513 0.811148 0.192803
H28_4 H 0.81714 0.769106 0.219953
O25_4 O 0.6304(5) 0.4846(4) 0.96615(13)
O26_4 O 0.39288(31) 0.31203(25) 0.99372(8)
O27_4 O 0.38246(33) 0.20360(27) 0.98351(8)
C21_4 C 0.5634(5) 0.4485(4) 0.96776(13)
C22_4 C 0.5218(6) 0.3722(5) 0.95447(15)
H21_4 H 0.4782 0.3665 0.9448
H22_4 H 0.5524 0.3677 0.9397
C23_4 C 0.4983(5) 0.3090(4) 0.97704(14)
H23_4 H 0.5276 0.3288 0.9946
H24_4 H 0.5090 0.2727 0.9690
C24_4 C 0.4192(5) 0.2722(4) 0.98510(11)
O30_4 O 0.25710(32) 0.05901(18) 0.96760(7)
O32_4 O 0.36831(31) 0.01390(18) 0.96068(7)
O33_4 O 0.23600(31) 0.18650(18) 0.98760(7)
O5_4 O 0.47303(27) 0.94939(19) 0.02057(8)
O6_4 O 0.4846(4) 0.8542(3) 0.03385(13)
O7_4 O 0.31203(25) 0.91915(18) 0.00628(8)
O8_4 O 0.20360(27) 0.82114(19) 0.01649(8)
C5_4 C 0.4485(4) 0.8851(3) 0.03224(13)
C6_4 C 0.3722(5) 0.8504(3) 0.04553(15)
H5_4 H 0.3665 0.8883 0.0552
H6_4 H 0.3677 0.8153 0.0603
C7_4 C 0.3090(4) 0.8107(3) 0.02296(14)
H7_4 H 0.3288 0.8012 0.0054
H8_4 H 0.2727 0.7637 0.0310
C8_4 C 0.2722(4) 0.8530(3) 0.01490(11)
O14_4 O 0.4139(3) 0.9030(2) 0.96336(8)
O29_4 O 0.20142(31) 0.89158(18) 0.96344(7)
H25_4 H 0.393698 0.855519 0.973863
H26_4 H 0.381368 0.897561 0.946713
Ni2_3 Ni 0.12987(3) 0.28503(4) 0.498150(12)
Ni3_5 Ni 0.333333 0.336063(40) 0.416667
O1_5 O 0.07076(18) 0.33600(25) 0.48642(7)
O2_5 O 0.0599(2) 0.4344(3) 0.47709(8)
O3_5 O 0.20142(18) 0.30984(25) 0.46344(7)
O4_5 O 0.2584(2) 0.36908(28) 0.42287(8)
O9_5 O 0.25710(19) 0.19809(26) 0.46760(7)
O10_5 O 0.2578(2) 0.2269(3) 0.42094(7)
O13_5 O 0.36831(18) 0.35441(25) 0.46068(7)
C1_5 C 0.0894(3) 0.3965(4) 0.47293(12)
C2_5 C 0.1489(4) 0.4214(6) 0.45152(15)
H1_5 H 0.1476 0.4576 0.4388
H2_5 H 0.1956 0.4449 0.4617
C3_5 C 0.1435(4) 0.3581(5) 0.43285(12)
H3_5 H 0.1454 0.3704 0.4124
H4_5 H 0.0969 0.3140 0.4365
C4_5 C 0.2056(3) 0.3440(4) 0.43990(10)
C9_5 C 0.2417(3) 0.1815(4) 0.44036(10)
C10_5 C 0.1998(4) 0.1016(6) 0.43286(12)
H9_5 H 0.2347 0.0853 0.4290
H10_5 H 0.1729 0.0959 0.4150
C11_5 C 0.1452(3) 0.0507(4) 0.45607(13)
H11_5 H 0.1008 0.0144 0.4464
H12_5 H 0.1323 0.0796 0.4687
C12_5 C 0.1742(3) 0.0116(4) 0.47466(10)
O15_5 O 0.59591(18) 0.59857(31) 0.34691(7)
O16_5 O 0.6068(2) 0.7078(4) 0.35624(8)
O17_5 O 0.46525(18) 0.44175(31) 0.36989(7)
O18_5 O 0.4083(2) 0.44401(34) 0.41046(8)
C13_5 C 0.5773(3) 0.6404(5) 0.36040(12)
C14_5 C 0.5178(4) 0.6058(7) 0.38181(15)
H13_5 H 0.5191 0.6433 0.3945
H14_5 H 0.4711 0.5826 0.3716
C15_5 C 0.5232(4) 0.5479(6) 0.40048(12)
H15_5 H 0.5213 0.5583 0.4209
H16_5 H 0.5698 0.5504 0.3968
C16_5 C 0.4611(3) 0.4717(5) 0.39343(10)
O19_5 O 0.40957(19) 0.27432(32) 0.36573(7)
O20_5 O 0.4089(2) 0.3024(4) 0.41239(7)
O21_3 O 0.43067(18) 0.14683(31) 0.34573(7)
O22_3 O 0.5306(2) 0.14013(34) 0.35699(8)
C17_5 C 0.4250(3) 0.2731(5) 0.39297(10)
C18_5 C 0.4669(4) 0.2351(7) 0.40047(12)
H17_5 H 0.4320 0.1839 0.4043
H18_5 H 0.4938 0.2563 0.4183
C19_5 C 0.5215(3) 0.2388(5) 0.37726(13)
H19_5 H 0.5659 0.2469 0.3869
H20_5 H 0.5344 0.2806 0.3646
C20_5 C 0.4925(3) 0.1707(5) 0.35867(10)
O23_5 O 0.29836(18) 0.31943(31) 0.37265(7)
Ni7_5 Ni 0.68358(3) 0.77018(6) 0.325063(14)
O24_3 O 0.47303(27) 0.52364(33) 0.52057(8)
O25_5 O 0.4846(4) 0.6304(5) 0.53385(13)
O26_5 O 0.31203(25) 0.39288(31) 0.50628(8)
O27_5 O 0.20360(27) 0.38246(33) 0.51649(8)
C21_5 C 0.4485(4) 0.5634(5) 0.53224(13)
C22_5 C 0.3722(5) 0.5218(6) 0.54553(15)
H21_5 H 0.3665 0.4782 0.5552
H22_5 H 0.3677 0.5524 0.5603
C23_5 C 0.3090(4) 0.4983(5) 0.52296(14)
H23_5 H 0.3288 0.5276 0.5054
H24_5 H 0.2727 0.5090 0.5310
C24_5 C 0.2722(4) 0.4192(5) 0.51490(11)
O28_5 O 0.7637(2) 0.8442(4) 0.29669(8)
O30_5 O 0.05901(18) 0.25710(32) 0.53240(7)
O32_5 O 0.01390(18) 0.36831(31) 0.53932(7)
O33_5 O 0.18650(18) 0.23600(31) 0.51240(7)
O34_3 O 0.05710(27) 0.19320(34) 0.47634(8)
Ni8_5 Ni 0.27946(4) 0.29482(5) 0.485530(13)
Ni14_3 Ni 0.41994(5) 0.43685(6) 0.491730(14)
Ni15_5 Ni 0.38721(4) 0.34869(5) 0.347803(13)
Ni16_5 Ni 0.38164(4) 0.20346(5) 0.331483(12)
Ni17_3 Ni 0.37185(3) 0.05387(4) 0.318863(13)
Ni18_3 Ni 0.51151(3) 0.04830(4) 0.335183(12)
Ni19_5 Ni 0.24673(5) 0.35024(6) 0.341603(14)
O36_5 O 0.77509(18) 0.64317(25) 0.29677(7)
O37_5 O 0.74752(18) 0.72621(31) 0.33961(8)
O38_5 O 0.60766(18) 0.53142(26) 0.30093(7)
O40_5 O 0.65277(18) 0.68774(25) 0.29401(7)
O41_5 O 0.46307(27) 0.51219(33) 0.31684(8)
O42_5 O 0.48017(18) 0.38283(25) 0.32093(7)
O44_5 O 0.71728(19) 0.85697(33) 0.35390(8)
O45_5 O 0.61606(19) 0.80969(33) 0.31276(8)
Ni20_3 Ni 0.58006(5) 0.56315(6) 0.508270(14)
H27_5 H 0.811148 0.871513 0.307197
H28_5 H 0.769106 0.81714 0.280047
Ni1_3 Ni 0.98464(3) 0.27946(4) 0.514470(13)
O5_5 O 0.94939(19) 0.47303(27) 0.47943(8)
O6_5 O 0.8542(3) 0.4846(4) 0.46615(13)
O7_5 O 0.91915(18) 0.31203(25) 0.49372(8)
O8_5 O 0.82114(19) 0.20360(27) 0.48351(8)
O14_5 O 0.9030(2) 0.4139(3) 0.53664(8)
C5_5 C 0.8851(3) 0.4485(4) 0.46776(13)
C6_5 C 0.8504(3) 0.3722(5) 0.45447(15)
H5_5 H 0.8883 0.3665 0.4448
H6_5 H 0.8153 0.3677 0.4397
C7_5 C 0.8107(3) 0.3090(4) 0.47704(14)
H7_5 H 0.8012 0.3288 0.4946
H8_5 H 0.7637 0.2727 0.4690
C8_5 C 0.8530(3) 0.2722(4) 0.48510(11)
O29_5 O 0.89158(18) 0.20142(31) 0.53656(7)
O31_3 O 0.95050(25) 0.18650(31) 0.48760(7)
Ni10_3 Ni 0.84484(3) 0.12987(5) 0.501850(12)
H25_5 H 0.855519 0.393698 0.526137
H26_5 H 0.897561 0.381368 0.553287
O9_6 O 0.80191(26) 0.05901(18) 0.46760(7)
O10_6 O 0.7731(3) 0.0309(2) 0.42094(7)
O13_6 O 0.64559(25) 0.01390(18) 0.46068(7)
C9_6 C 0.8185(4) 0.0602(3) 0.44036(10)
C10_6 C 0.8984(6) 0.0982(4) 0.43286(12)
H9_6 H 0.9147 0.1494 0.4290
H10_6 H 0.9041 0.0770 0.4150
C11_6 C 0.9493(4) 0.0945(3) 0.45607(13)
H11_6 H 0.9856 0.0864 0.4464
H12_6 H 0.9204 0.0527 0.4687
C12_6 C 0.9884(4) 0.1626(3) 0.47466(10)
O17_6 O 0.55825(31) 0.02349(25) 0.36989(7)
H16_6 H 0.4496 0.0193 0.3968
O19_6 O 0.72568(32) 0.13524(26) 0.36573(7)
O20_6 O 0.6976(4) 0.1064(3) 0.41239(7)
C17_6 C 0.7269(5) 0.1518(4) 0.39297(10)
C18_6 C 0.7649(7) 0.2317(6) 0.40047(12)
H17_6 H 0.8161 0.2480 0.4043
H18_6 H 0.7437 0.2374 0.4183
C19_6 C 0.7612(5) 0.2826(4) 0.37726(13)
H19_6 H 0.7531 0.3189 0.3869
H20_6 H 0.7194 0.2537 0.3646
C20_6 C 0.8293(5) 0.3217(4) 0.35867(10)
Ni15_6 Ni 0.65131(5) 0.03851(3) 0.347803(13)
Ni16_6 Ni 0.79654(5) 0.17817(3) 0.331483(12)
O36_6 O 0.35683(25) 0.13191(18) 0.29677(7)
O37_6 O 0.27379(31) 0.02130(25) 0.33961(8)
O38_6 O 0.46858(26) 0.07623(19) 0.30093(7)
O42_6 O 0.61717(25) 0.09733(18) 0.32093(7)
Ni3_6 Ni 0.663937(40) 0.99727(4) 0.416667
O1_6 O 0.66400(25) 0.73476(18) 0.48642(7)
O2_6 O 0.5656(3) 0.6255(2) 0.47709(8)
O3_6 O 0.69016(25) 0.89158(18) 0.46344(7)
O4_6 O 0.63092(28) 0.88932(19) 0.42287(8)
O5_6 O 0.52697(27) 0.47636(19) 0.47943(8)
O6_6 O 0.5154(4) 0.3696(3) 0.46615(13)
O7_6 O 0.68797(25) 0.60712(18) 0.49372(8)
O8_6 O 0.79640(27) 0.61754(19) 0.48351(8)
O14_6 O 0.5861(3) 0.4891(2) 0.53664(8)
C1_6 C 0.6035(4) 0.6929(3) 0.47293(12)
C2_6 C 0.5786(6) 0.7275(4) 0.45152(15)
H1_6 H 0.5424 0.6900 0.4388
H2_6 H 0.5551 0.7507 0.4617
C3_6 C 0.6419(5) 0.7854(3) 0.43285(12)
H3_6 H 0.6296 0.7750 0.4124
H4_6 H 0.6860 0.7829 0.4365
C4_6 C 0.6560(4) 0.8616(3) 0.43990(10)
C5_6 C 0.5515(4) 0.4366(3) 0.46776(13)
C6_6 C 0.6278(5) 0.4782(4) 0.45447(15)
H5_6 H 0.6335 0.5218 0.4448
H6_6 H 0.6323 0.4476 0.4397
C7_6 C 0.6910(4) 0.5017(3) 0.47704(14)
H7_6 H 0.6712 0.4724 0.4946
H8_6 H 0.7273 0.4910 0.4690
C8_6 C 0.7278(4) 0.5808(3) 0.48510(11)
O15_6 O 0.40143(31) 0.99733(25) 0.34691(7)
O16_6 O 0.2922(4) 0.8989(3) 0.35624(8)
O18_6 O 0.55599(34) 0.96425(28) 0.41046(8)
C13_6 C 0.3596(5) 0.9368(4) 0.36040(12)
C14_6 C 0.3942(7) 0.9119(6) 0.38181(15)
H13_6 H 0.3567 0.8757 0.3945
H14_6 H 0.4174 0.8884 0.3716
C15_6 C 0.4521(6) 0.9752(5) 0.40048(12)
H15_6 H 0.4417 0.9629 0.4209
C16_6 C 0.5283(5) 0.9893(4) 0.39343(10)
O23_6 O 0.68057(31) 0.97892(25) 0.37265(7)
Ni7_6 Ni 0.22982(6) 0.91339(5) 0.325063(14)
O25_6 O 0.3696(5) 0.8542(3) 0.53385(13)
O26_6 O 0.60712(31) 0.91915(18) 0.50628(8)
O27_6 O 0.61754(33) 0.82114(19) 0.51649(8)
C21_6 C 0.4366(5) 0.8851(3) 0.53224(13)
C22_6 C 0.4782(6) 0.8504(3) 0.54553(15)
H21_6 H 0.5218 0.8883 0.5552
H22_6 H 0.4476 0.8153 0.5603
C23_6 C 0.5017(5) 0.8107(3) 0.52296(14)
H23_6 H 0.4724 0.8012 0.5054
H24_6 H 0.4910 0.7637 0.5310
C24_6 C 0.5808(5) 0.8530(3) 0.51490(11)
O28_6 O 0.1558(4) 0.9194(3) 0.29669(8)
O29_6 O 0.79858(31) 0.69016(25) 0.53656(7)
O30_6 O 0.74290(32) 0.80191(26) 0.53240(7)
O32_6 O 0.63169(31) 0.64559(25) 0.53932(7)
O33_6 O 0.76400(31) 0.95050(25) 0.51240(7)
Ni8_6 Ni 0.70518(5) 0.98464(3) 0.485530(13)
Ni19_6 Ni 0.64976(6) 0.89648(4) 0.341603(14)
O40_6 O 0.31226(25) 0.96502(18) 0.29401(7)
O41_6 O 0.48781(33) 0.95087(19) 0.31684(8)
O44_6 O 0.14303(33) 0.86030(27) 0.35390(8)
O45_6 O 0.19031(33) 0.80636(27) 0.31276(8)
H25_6 H 0.606302 0.46182 0.526137
H26_6 H 0.618632 0.516193 0.553287
H27_6 H 0.128487 0.939635 0.307197
H28_6 H 0.18286 0.951965 0.280047
Ni4_4 Ni 0.35024(3) 0.10352(4) 0.658397(14)
O2_7 O 0.2734(2) 0.0412(2) 0.68958(8)
O5_7 O 0.38394(19) 0.19031(19) 0.68724(8)
O6_7 O 0.4791(3) 0.2971(3) 0.70052(13)
O7_7 O 0.41418(18) 0.05955(18) 0.67295(8)
O8_7 O 0.51219(19) 0.04913(19) 0.68316(8)
O14_7 O 0.4303(2) 0.1776(2) 0.63003(8)
C5_7 C 0.4482(3) 0.2301(3) 0.69891(13)
C6_7 C 0.4829(3) 0.1885(4) 0.71220(15)
H5_7 H 0.4450 0.1449 0.7219
H6_7 H 0.5180 0.2191 0.7270
C7_7 C 0.5226(3) 0.1650(3) 0.68963(14)
H7_7 H 0.5321 0.1943 0.6721
H8_7 H 0.5696 0.1757 0.6977
C8_7 C 0.4803(3) 0.0859(3) 0.68157(11)
O32_7 O 0.31943(18) 0.02108(25) 0.62735(7)
O35_4 O 0.28272(19) 0.14303(19) 0.64610(8)
Ni9_4 Ni 0.31642(3) 0.22982(4) 0.674937(14)
H25_7 H 0.477815 0.204846 0.64053
H26_7 H 0.435772 0.150474 0.61338
Ni1_4 Ni 0.34869(3) 0.96149(3) 0.652197(13)
Ni2_4 Ni 0.20346(3) 0.82183(3) 0.668517(12)
Ni3_7 Ni 0.000000 0.66940(4) 0.750000
O1_7 O 0.26257(18) 0.93191(18) 0.68025(7)
O3_7 O 0.13191(18) 0.77509(18) 0.70323(7)
O4_7 O 0.0749(2) 0.77735(19) 0.74380(8)
O9_7 O 0.07623(19) 0.60766(18) 0.69907(7)
O10_7 O 0.0755(2) 0.6358(2) 0.74573(7)
O11_4 O 0.09733(18) 0.48017(18) 0.67907(7)
O12_4 O 0.1972(2) 0.47347(18) 0.69033(8)
C1_7 C 0.2439(3) 0.9738(3) 0.69374(12)
C2_7 C 0.1844(4) 0.9392(4) 0.71515(15)
H1_7 H 0.1857 0.9767 0.7279
H2_7 H 0.1377 0.9160 0.7050
C3_7 C 0.1898(4) 0.8813(3) 0.73382(12)
H3_7 H 0.1879 0.8917 0.7543
H4_7 H 0.2364 0.8838 0.7302
C4_7 C 0.1277(3) 0.8051(3) 0.72677(10)
C9_7 C 0.0916(3) 0.6065(3) 0.72631(10)
C10_7 C 0.1335(4) 0.5685(4) 0.73381(12)
H9_7 H 0.0986 0.5173 0.7377
H10_7 H 0.1604 0.5897 0.7517
C11_7 C 0.1881(3) 0.5722(3) 0.71060(13)
H11_7 H 0.2325 0.5803 0.7203
H12_7 H 0.2010 0.6140 0.6980
C12_7 C 0.1591(3) 0.5041(3) 0.69201(10)
O23_7 O 0.03498(18) 0.68774(25) 0.79401(7)
O26_7 O 0.02130(25) 0.74752(18) 0.66039(8)
O27_7 O 0.12973(27) 0.84553(19) 0.65018(8)
C23_7 C 0.0243(4) 0.8560(3) 0.64371(14)
H23_7 H 0.0045 0.8655 0.6613
H24_7 H 0.0606 0.9030 0.6357
C24_7 C 0.0611(4) 0.8137(3) 0.65177(11)
O29_7 O 0.44175(18) 0.97651(25) 0.63011(7)
O30_7 O 0.27432(18) 0.86476(26) 0.63427(7)
O31_4 O 0.38283(25) 0.90267(18) 0.67907(7)
O33_7 O 0.14683(18) 0.71617(25) 0.65427(7)
O34_4 O 0.27623(27) 0.8028(2) 0.69033(8)
Ni8_7 Ni 0.05387(4) 0.68203(3) 0.681137(13)
Ni10_4 Ni 0.48849(3) 0.95170(4) 0.664817(12)
Ni11_4 Ni 0.04830(4) 0.53680(3) 0.664817(12)
Ni12_4 Ni 0.03851(3) 0.38721(4) 0.652197(13)
Ni13_4 Ni 0.17817(3) 0.38164(4) 0.668517(12)
Ni19_7 Ni 0.08661(5) 0.77018(4) 0.825063(14)
Ni3_8 Ni 1.000000 0.66940(4) 0.750000
O13_7 O 0.96502(18) 0.65277(18) 0.70599(7)
O15_7 O 0.73743(18) 0.66933(25) 0.81975(7)
O16_7 O 0.7266(2) 0.7677(3) 0.81042(8)
O17_7 O 0.86809(18) 0.64317(25) 0.79677(7)
O18_7 O 0.9251(2) 0.70241(28) 0.75620(8)
C13_7 C 0.7561(3) 0.7298(4) 0.80626(12)
C14_7 C 0.8156(4) 0.7547(6) 0.78485(15)
H13_7 H 0.8143 0.7909 0.7721
H14_7 H 0.8623 0.7782 0.7950
C15_7 C 0.8102(4) 0.6914(5) 0.76618(12)
H15_7 H 0.8121 0.7037 0.7457
H16_7 H 0.7636 0.6473 0.7698
C16_7 C 0.8723(3) 0.6773(4) 0.77323(10)
O19_7 O 0.92377(19) 0.53142(26) 0.80093(7)
O20_7 O 0.9245(2) 0.5602(3) 0.75427(7)
O21_4 O 0.90267(18) 0.38283(25) 0.82093(7)
O22_4 O 0.8028(2) 0.27623(27) 0.80967(8)
C17_7 C 0.9084(3) 0.5148(4) 0.77369(10)
C18_7 C 0.8665(4) 0.4349(6) 0.76619(12)
H17_7 H 0.9014 0.4186 0.7623
H18_7 H 0.8396 0.4292 0.7483
C19_7 C 0.8119(3) 0.3840(4) 0.78940(13)
H19_7 H 0.7675 0.3477 0.7797
H20_7 H 0.7990 0.4129 0.8020
C20_7 C 0.8409(3) 0.3449(4) 0.80799(10)
Ni5_4 Ni 0.65131(3) 0.61279(4) 0.847803(13)
Ni6_4 Ni 0.79654(3) 0.61836(4) 0.831483(12)
Ni7_7 Ni 0.64976(3) 0.75327(5) 0.841603(14)
O24_4 O 0.86030(27) 0.71728(19) 0.64610(8)
O25_7 O 0.8487(4) 0.8125(3) 0.63282(13)
C21_7 C 0.8848(4) 0.7816(3) 0.63443(13)
C22_7 C 0.9611(5) 0.8163(3) 0.62114(15)
H21_7 H 0.9668 0.7784 0.6115
H22_7 H 0.9656 0.8514 0.6064
O28_7 O 0.5697(2) 0.7472(3) 0.86997(8)
Ni14_4 Ni 0.91339(5) 0.68358(3) 0.674937(14)
Ni15_7 Ni 0.94613(4) 0.62815(3) 0.818863(13)
Ni16_7 Ni 0.95170(4) 0.48849(3) 0.835183(12)
Ni17_4 Ni 0.96149(3) 0.34869(3) 0.847803(13)
Ni18_4 Ni 0.82183(3) 0.20346(3) 0.831483(12)
O36_7 O 0.55825(18) 0.53475(18) 0.86989(7)
O37_7 O 0.58582(18) 0.64536(25) 0.82705(8)
O38_7 O 0.72568(18) 0.59043(19) 0.86573(7)
O39_4 O 0.61717(25) 0.51983(18) 0.82093(7)
O40_7 O 0.68057(18) 0.70164(18) 0.87265(7)
O41_7 O 0.87027(27) 0.71579(19) 0.84982(8)
O42_7 O 0.85317(18) 0.56933(18) 0.84573(7)
O43_4 O 0.72377(27) 0.52653(18) 0.80967(8)
O44_7 O 0.61606(19) 0.80636(27) 0.81276(8)
O45_7 O 0.71728(19) 0.86030(27) 0.85390(8)
Ni20_4 Ni 0.75327(5) 0.64976(3) 0.658397(14)
H27_7 H 0.522185 0.727031 0.85947
H28_7 H 0.564228 0.714701 0.88662
Ni3_9 Ni 0.33060(4) 0.330604(40) 0.750000
O1_8 O 0.06809(18) 0.33067(25) 0.68025(7)
O3_8 O 0.22491(18) 0.35683(25) 0.70323(7)
O4_8 O 0.22265(19) 0.29759(28) 0.74380(8)
O9_8 O 0.39234(18) 0.46858(26) 0.69907(7)
O10_8 O 0.3642(2) 0.4398(3) 0.74573(7)
O11_5 O 0.51983(18) 0.61717(25) 0.67907(7)
O12_5 O 0.52653(18) 0.72377(27) 0.69033(8)
O13_8 O 0.34723(18) 0.31226(25) 0.70599(7)
C1_8 C 0.0262(3) 0.2702(4) 0.69374(12)
C2_8 C 0.0608(4) 0.2453(6) 0.71515(15)
H1_8 H 0.0233 0.2091 0.7279
H2_8 H 0.0840 0.2218 0.7050
C3_8 C 0.1187(3) 0.3086(5) 0.73382(12)
H3_8 H 0.1083 0.2963 0.7543
H4_8 H 0.1162 0.3527 0.7302
C4_8 C 0.1949(3) 0.3227(4) 0.72677(10)
C9_8 C 0.3935(3) 0.4852(4) 0.72631(10)
C10_8 C 0.4315(4) 0.5651(6) 0.73381(12)
H9_8 H 0.4827 0.5814 0.7377
H10_8 H 0.4103 0.5708 0.7517
C11_8 C 0.4278(3) 0.6160(4) 0.71060(13)
H11_8 H 0.4197 0.6523 0.7203
H12_8 H 0.3860 0.5871 0.6980
C12_8 C 0.4959(3) 0.6551(4) 0.69201(10)
O15_8 O 0.33067(25) 0.06809(31) 0.81975(7)
O17_8 O 0.35683(25) 0.22491(31) 0.79677(7)
O18_8 O 0.29759(28) 0.22265(34) 0.75620(8)
C13_8 C 0.2702(4) 0.0262(5) 0.80626(12)
C14_8 C 0.2453(6) 0.0608(7) 0.78485(15)
H13_8 H 0.2091 0.0233 0.7721
H14_8 H 0.2218 0.0840 0.7950
C15_8 C 0.3086(5) 0.1187(6) 0.76618(12)
H15_8 H 0.2963 0.1083 0.7457
H16_8 H 0.3527 0.1162 0.7698
C16_8 C 0.3227(4) 0.1949(5) 0.77323(10)
O19_8 O 0.46858(26) 0.39234(32) 0.80093(7)
O20_8 O 0.4398(3) 0.3642(4) 0.75427(7)
C17_8 C 0.4852(4) 0.3935(5) 0.77369(10)
C18_8 C 0.5651(6) 0.4315(7) 0.76619(12)
H17_8 H 0.5814 0.4827 0.7623
H18_8 H 0.5708 0.4103 0.7483
C19_8 C 0.6160(4) 0.4278(5) 0.78940(13)
H19_8 H 0.6523 0.4197 0.7797
H20_8 H 0.5871 0.3860 0.8020
C20_8 C 0.6551(4) 0.4959(5) 0.80799(10)
O23_8 O 0.31226(25) 0.34723(31) 0.79401(7)
Ni5_5 Ni 0.38721(4) 0.03851(5) 0.847803(13)
Ni6_5 Ni 0.38164(4) 0.17817(5) 0.831483(12)
O25_8 O 0.1875(3) 0.0363(5) 0.63282(13)
O26_8 O 0.25248(18) 0.27379(31) 0.66039(8)
O27_8 O 0.15447(19) 0.28421(33) 0.65018(8)
C21_8 C 0.2184(3) 0.1033(5) 0.63443(13)
C22_8 C 0.1837(3) 0.1449(6) 0.62114(15)
H21_8 H 0.2216 0.1885 0.6115
H22_8 H 0.1486 0.1143 0.6064
C23_8 C 0.1440(3) 0.1684(5) 0.64371(14)
H23_8 H 0.1345 0.1391 0.6613
H24_8 H 0.0970 0.1577 0.6357
C24_8 C 0.1863(3) 0.2475(5) 0.65177(11)
O29_8 O 0.02349(25) 0.46525(31) 0.63011(7)
O30_8 O 0.13524(26) 0.40957(32) 0.63427(7)
O33_8 O 0.28383(25) 0.43067(31) 0.65427(7)
Ni8_8 Ni 0.31797(3) 0.37185(5) 0.681137(13)
Ni11_5 Ni 0.46320(3) 0.51151(5) 0.664817(12)
Ni12_5 Ni 0.61279(4) 0.65131(5) 0.652197(13)
Ni13_5 Ni 0.61836(4) 0.79654(5) 0.668517(12)
Ni15_8 Ni 0.37185(3) 0.31797(5) 0.818863(13)
Ni16_8 Ni 0.51151(3) 0.46320(5) 0.835183(12)
Ni19_8 Ni 0.22982(4) 0.31642(6) 0.825063(14)
O36_8 O 0.46525(18) 0.02349(25) 0.86989(7)
O38_8 O 0.40957(19) 0.13524(26) 0.86573(7)
O39_5 O 0.48017(18) 0.09733(31) 0.82093(7)
O41_8 O 0.28421(19) 0.15447(33) 0.84982(8)
O42_8 O 0.43067(18) 0.28383(25) 0.84573(7)
O43_5 O 0.47347(18) 0.19723(32) 0.80967(8)
O16_8 O 0.2323(3) 0.9588(4) 0.81042(8)
Ni7_8 Ni 0.24673(5) 0.89648(6) 0.841603(14)
O28_8 O 0.2528(3) 0.8224(4) 0.86997(8)
O37_8 O 0.35464(25) 0.94045(31) 0.82705(8)
O40_8 O 0.29836(18) 0.97892(25) 0.87265(7)
O44_8 O 0.19364(27) 0.80969(33) 0.81276(8)
O45_8 O 0.13970(27) 0.85697(33) 0.85390(8)
H27_8 H 0.272969 0.795154 0.85947
H28_8 H 0.285299 0.849526 0.88662
Ni4_5 Ni 0.89648(4) 0.24673(5) 0.658397(14)
O2_8 O 0.9588(2) 0.2323(3) 0.68958(8)
O5_8 O 0.80969(19) 0.19364(27) 0.68724(8)
O6_8 O 0.7029(3) 0.1821(4) 0.70052(13)
O7_8 O 0.94045(18) 0.35464(25) 0.67295(8)
O8_8 O 0.95087(19) 0.46307(27) 0.68316(8)
O14_8 O 0.8224(2) 0.2528(3) 0.63003(8)
C5_8 C 0.7699(3) 0.2182(4) 0.69891(13)
C6_8 C 0.8115(4) 0.2945(5) 0.71220(15)
H5_8 H 0.8551 0.3002 0.7219
H6_8 H 0.7809 0.2990 0.7270
C7_8 C 0.8350(3) 0.3577(4) 0.68963(14)
H7_8 H 0.8057 0.3379 0.6721
H8_8 H 0.8243 0.3940 0.6977
C8_8 C 0.9141(3) 0.3945(4) 0.68157(11)
O32_8 O 0.97892(25) 0.29836(31) 0.62735(7)
O35_5 O 0.85697(19) 0.13970(27) 0.64610(8)
Ni9_5 Ni 0.77018(4) 0.08661(5) 0.674937(14)
H25_8 H 0.795154 0.272969 0.64053
H26_8 H 0.849526 0.285299 0.61338
O6_9 O 0.9637(3) 0.8125(3) 0.13282(13)
O8_9 O 0.71579(19) 0.84553(19) 0.15018(8)
C5_9 C 0.8967(3) 0.7816(3) 0.13443(13)
C6_9 C 0.8551(4) 0.8163(3) 0.12114(15)
H5_9 H 0.8115 0.7784 0.1115
H6_9 H 0.8857 0.8514 0.1064
C7_9 C 0.8316(3) 0.8560(3) 0.14371(14)
H7_9 H 0.8609 0.8655 0.1613
H8_9 H 0.8423 0.9030 0.1357
C8_9 C 0.7525(3) 0.8137(3) 0.15177(11)
O25_9 O 0.4791(3) 0.1821(4) 0.20052(13)
O26_9 O 0.41418(18) 0.35464(25) 0.17295(8)
C21_9 C 0.4482(3) 0.2182(4) 0.19891(13)
C22_9 C 0.4829(3) 0.2945(5) 0.21220(15)
H21_9 H 0.4450 0.3002 0.2219
H22_9 H 0.5180 0.2990 0.2270
C23_9 C 0.5226(3) 0.3577(4) 0.18963(14)
H23_9 H 0.5321 0.3379 0.1721
H24_9 H 0.5696 0.3940 0.1977
C24_9 C 0.4803(3) 0.3945(4) 0.18157(11)
O16_9 O 0.0412(4) 0.2734(2) 0.81042(8)
Ni7_9 Ni 0.10352(6) 0.35024(3) 0.841603(14)
O28_9 O 0.1776(4) 0.4303(2) 0.86997(8)
O37_9 O 0.05955(31) 0.41418(18) 0.82705(8)
O40_9 O 0.02108(25) 0.31943(18) 0.87265(7)
O44_9 O 0.19031(33) 0.38394(19) 0.81276(8)
O45_9 O 0.14303(33) 0.28272(19) 0.85390(8)
H27_9 H 0.204846 0.477815 0.85947
H28_9 H 0.150474 0.435772 0.88662
Ni3_10 Ni 0.669396(40) -0.000000 0.750000
O13_9 O 0.68774(25) 0.03498(18) 0.70599(7)
O15_9 O 0.93191(31) 0.26257(18) 0.81975(7)
O17_9 O 0.77509(31) 0.13191(18) 0.79677(7)
O18_9 O 0.77735(34) 0.0749(2) 0.75620(8)
C13_9 C 0.9738(5) 0.2439(3) 0.80626(12)
C14_9 C 0.9392(7) 0.1844(4) 0.78485(15)
H13_9 H 0.9767 0.1857 0.7721
H14_9 H 0.9160 0.1377 0.7950
C15_9 C 0.8813(6) 0.1898(4) 0.76618(12)
H15_9 H 0.8917 0.1879 0.7457
H16_9 H 0.8838 0.2364 0.7698
C16_9 C 0.8051(5) 0.1277(3) 0.77323(10)
O19_9 O 0.60766(32) 0.07623(19) 0.80093(7)
O20_9 O 0.6358(4) 0.0755(2) 0.75427(7)
C17_9 C 0.6065(5) 0.0916(3) 0.77369(10)
C18_9 C 0.5685(7) 0.1335(4) 0.76619(12)
H17_9 H 0.5173 0.0986 0.7623
H18_9 H 0.5897 0.1604 0.7483
C19_9 C 0.5722(5) 0.1881(3) 0.78940(13)
H19_9 H 0.5803 0.2325 0.7797
H20_9 H 0.6140 0.2010 0.8020
C20_9 C 0.5041(5) 0.1591(3) 0.80799(10)
O25_10 O 0.9637(5) 0.1513(4) 0.63282(13)
C21_10 C 0.8967(5) 0.1152(4) 0.63443(13)
C22_10 C 0.8551(6) 0.0389(5) 0.62114(15)
H21_10 H 0.8115 0.0332 0.6115
H22_10 H 0.8857 0.0344 0.6064
Ni15_9 Ni 0.68203(5) 0.05387(4) 0.818863(13)
Ni16_9 Ni 0.53680(5) 0.04830(4) 0.835183(12)
O36_9 O 0.97651(25) 0.44175(18) 0.86989(7)
O38_9 O 0.86476(26) 0.27432(18) 0.86573(7)
O41_9 O 0.84553(33) 0.12973(27) 0.84982(8)
O42_9 O 0.71617(25) 0.14683(18) 0.84573(7)
Ni3_11 Ni 0.669396(40) 1.000000 0.750000
O1_9 O 0.66933(25) 0.73743(18) 0.68025(7)
O2_9 O 0.7677(3) 0.7266(2) 0.68958(8)
O3_9 O 0.64317(25) 0.86809(18) 0.70323(7)
O4_9 O 0.70241(28) 0.9251(2) 0.74380(8)
O5_9 O 0.80636(27) 0.61606(19) 0.68724(8)
O6_10 O 0.8179(4) 0.5209(3) 0.70052(13)
O7_9 O 0.64536(25) 0.58582(18) 0.67295(8)
O8_10 O 0.53693(27) 0.48781(19) 0.68316(8)
O9_9 O 0.53142(26) 0.92377(19) 0.69907(7)
O10_9 O 0.5602(3) 0.9245(2) 0.74573(7)
O14_9 O 0.7472(3) 0.5697(2) 0.63003(8)
C1_9 C 0.7298(4) 0.7561(3) 0.69374(12)
C2_9 C 0.7547(6) 0.8156(4) 0.71515(15)
H1_9 H 0.7909 0.8143 0.7279
H2_9 H 0.7782 0.8623 0.7050
C3_9 C 0.6914(5) 0.8102(4) 0.73382(12)
H3_9 H 0.7037 0.8121 0.7543
H4_9 H 0.6473 0.7636 0.7302
C4_9 C 0.6773(4) 0.8723(3) 0.72677(10)
C5_10 C 0.7818(4) 0.5518(3) 0.69891(13)
C6_10 C 0.7055(5) 0.5171(3) 0.71220(15)
H5_10 H 0.6998 0.5550 0.7219
H6_10 H 0.7010 0.4820 0.7270
C7_10 C 0.6423(4) 0.4774(3) 0.68963(14)
H7_10 H 0.6621 0.4679 0.6721
H8_10 H 0.6060 0.4304 0.6977
C8_10 C 0.6055(4) 0.5197(3) 0.68157(11)
C9_9 C 0.5148(4) 0.9084(3) 0.72631(10)
C10_9 C 0.4349(6) 0.8665(4) 0.73381(12)
H9_9 H 0.4186 0.9014 0.7377
H10_9 H 0.4292 0.8396 0.7517
C11_9 C 0.3840(4) 0.8119(3) 0.71060(13)
H11_9 H 0.3477 0.7675 0.7203
H12_9 H 0.4129 0.7990 0.6980
C12_9 C 0.3449(4) 0.8409(3) 0.69201(10)
O23_9 O 0.65277(31) 0.96502(18) 0.79401(7)
O26_10 O 0.72621(31) 0.97870(25) 0.66039(8)
O27_9 O 0.71579(33) 0.87027(27) 0.65018(8)
C23_10 C 0.8316(5) 0.9757(4) 0.64371(14)
H23_10 H 0.8609 0.9955 0.6613
H24_10 H 0.8423 0.9394 0.6357
C24_10 C 0.7525(5) 0.9389(4) 0.65177(11)
O29_9 O 0.53475(31) 0.55825(18) 0.63011(7)
O30_9 O 0.59043(32) 0.72568(18) 0.63427(7)
O32_9 O 0.70164(31) 0.68057(18) 0.62735(7)
O33_9 O 0.56933(31) 0.85317(18) 0.65427(7)
Ni8_9 Ni 0.62815(5) 0.94613(4) 0.681137(13)
Ni19_9 Ni 0.68358(6) 0.91339(5) 0.825063(14)
H25_9 H 0.727031 0.522185 0.64053
H26_9 H 0.714701 0.564228 0.61338
O6_11 O 0.1875(3) 0.1513(4) 0.13282(13)
C5_11 C 0.2184(3) 0.1152(4) 0.13443(13)
C6_11 C 0.1837(3) 0.0389(5) 0.12114(15)
H5_11 H 0.2216 0.0332 0.1115
H6_11 H 0.1486 0.0344 0.1064
O25_11 O 0.8179(4) 0.2971(5) 0.20052(13)
O26_11 O 0.64536(25) 0.05955(31) 0.17295(8)
C21_11 C 0.7818(4) 0.2301(5) 0.19891(13)
C22_11 C 0.7055(5) 0.1885(6) 0.21220(15)
H21_11 H 0.6998 0.1449 0.2219
H22_11 H 0.7010 0.2191 0.2270
C23_11 C 0.6423(4) 0.1650(5) 0.18963(14)
H23_11 H 0.6621 0.1943 0.1721
H24_11 H 0.6060 0.1757 0.1977
C24_11 C 0.6055(4) 0.0859(5) 0.18157(11)
O8_11 O 0.15447(19) 0.87027(27) 0.15018(8)
C7_11 C 0.1440(3) 0.9757(4) 0.14371(14)
H7_11 H 0.1345 0.9955 0.1613
H8_11 H 0.0970 0.9394 0.1357
C8_11 C 0.1863(3) 0.9389(4) 0.15177(11)
O8_12 O 0.12973(27) 0.28421(19) 0.15018(8)
C7_12 C 0.0243(4) 0.1684(3) 0.14371(14)
H7_12 H 0.0045 0.1391 0.1613
H8_12 H 0.0606 0.1577 0.1357
C8_12 C 0.0611(4) 0.2475(3) 0.15177(11)
O6_12 O 0.8487(4) 0.0363(3) 0.13282(13)
C5_12 C 0.8848(4) 0.1033(3) 0.13443(13)
C6_12 C 0.9611(5) 0.1449(4) 0.12114(15)
H5_12 H 0.9668 0.1885 0.1115
H6_12 H 0.9656 0.1143 0.1064
O25_12 O 0.7029(5) 0.5209(3) 0.20052(13)
O26_12 O 0.94045(31) 0.58582(18) 0.17295(8)
C21_12 C 0.7699(5) 0.5518(3) 0.19891(13)
C22_12 C 0.8115(6) 0.5171(3) 0.21220(15)
H21_12 H 0.8551 0.5550 0.2219
H22_12 H 0.7809 0.4820 0.2270
C23_12 C 0.8350(5) 0.4774(3) 0.18963(14)
H23_12 H 0.8057 0.4679 0.1721
H24_12 H 0.8243 0.4304 0.1977
C24_12 C 0.9141(5) 0.5197(3) 0.18157(11)
O6_13 O 0.8125(3) 0.9637(3) 0.36718(13)
O8_13 O 0.84553(19) 0.71579(19) 0.34982(8)
C5_13 C 0.7816(3) 0.8967(3) 0.36557(13)
C6_13 C 0.8163(3) 0.8551(4) 0.37886(15)
H5_13 H 0.7784 0.8115 0.3885
H6_13 H 0.8514 0.8857 0.3936
C7_13 C 0.8560(3) 0.8316(3) 0.35629(14)
H7_13 H 0.8655 0.8609 0.3387
H8_13 H 0.9030 0.8423 0.3643
C8_13 C 0.8137(3) 0.7525(3) 0.34823(11)
O25_13 O 0.1821(4) 0.4791(3) 0.29948(13)
O26_13 O 0.35464(25) 0.41418(18) 0.32705(8)
C21_13 C 0.2182(4) 0.4482(3) 0.30109(13)
C22_13 C 0.2945(5) 0.4829(3) 0.28780(15)
H21_13 H 0.3002 0.4450 0.2781
H22_13 H 0.2990 0.5180 0.2730
C23_13 C 0.3577(4) 0.5226(3) 0.31037(14)
H23_13 H 0.3379 0.5321 0.3279
H24_13 H 0.3940 0.5696 0.3023
C24_13 C 0.3945(4) 0.4803(3) 0.31843(11)
O8_14 O 0.28421(19) 0.12973(27) 0.34982(8)
C7_14 C 0.1684(3) 0.0243(4) 0.35629(14)
H7_14 H 0.1391 0.0045 0.3387
H8_14 H 0.1577 0.0606 0.3643
C8_14 C 0.2475(3) 0.0611(4) 0.34823(11)
O6_14 O 0.0363(3) 0.8487(4) 0.36718(13)
C5_14 C 0.1033(3) 0.8848(4) 0.36557(13)
C6_14 C 0.1449(4) 0.9611(5) 0.37886(15)
H5_14 H 0.1885 0.9668 0.3885
H6_14 H 0.1143 0.9656 0.3936
O25_14 O 0.5209(3) 0.7029(5) 0.29948(13)
O26_14 O 0.58582(18) 0.94045(31) 0.32705(8)
C21_14 C 0.5518(3) 0.7699(5) 0.30109(13)
C22_14 C 0.5171(3) 0.8115(6) 0.28780(15)
H21_14 H 0.5550 0.8551 0.2781
H22_14 H 0.4820 0.7809 0.2730
C23_14 C 0.4774(3) 0.8350(5) 0.31037(14)
H23_14 H 0.4679 0.8057 0.3279
H24_14 H 0.4304 0.8243 0.3023
C24_14 C 0.5197(3) 0.9141(5) 0.31843(11)
O6_15 O 0.2971(3) 0.4791(3) 0.79948(13)
O8_15 O 0.04913(19) 0.51219(19) 0.81684(8)
C5_15 C 0.2301(3) 0.4482(3) 0.80109(13)
C6_15 C 0.1885(4) 0.4829(3) 0.78780(15)
H5_15 H 0.1449 0.4450 0.7781
H6_15 H 0.2191 0.5180 0.7730
C7_15 C 0.1650(3) 0.5226(3) 0.81037(14)
H7_15 H 0.1943 0.5321 0.8279
H8_15 H 0.1757 0.5696 0.8023
C8_15 C 0.0859(3) 0.4803(3) 0.81843(11)
O26_15 O 0.74752(18) 0.02130(25) 0.83961(8)
C23_15 C 0.8560(3) 0.0243(4) 0.85629(14)
H23_15 H 0.8655 0.0045 0.8387
H24_15 H 0.9030 0.0606 0.8643
C24_15 C 0.8137(3) 0.0611(4) 0.84823(11)
O25_15 O 0.8125(3) 0.8487(4) 0.86718(13)
C21_15 C 0.7816(3) 0.8848(4) 0.86557(13)
C22_15 C 0.8163(3) 0.9611(5) 0.87886(15)
H21_15 H 0.7784 0.9668 0.8885
H22_15 H 0.8514 0.9656 0.8936
O6_16 O 0.1513(4) 0.1875(3) 0.36718(13)
C5_16 C 0.1152(4) 0.2184(3) 0.36557(13)
C6_16 C 0.0389(5) 0.1837(3) 0.37886(15)
H5_16 H 0.0332 0.2216 0.3885
H6_16 H 0.0344 0.1486 0.3936
O25_16 O 0.2971(5) 0.8179(4) 0.29948(13)
O26_16 O 0.05955(31) 0.64536(25) 0.32705(8)
C21_16 C 0.2301(5) 0.7818(4) 0.30109(13)
C22_16 C 0.1885(6) 0.7055(5) 0.28780(15)
H21_16 H 0.1449 0.6998 0.2781
H22_16 H 0.2191 0.7010 0.2730
C23_16 C 0.1650(5) 0.6423(4) 0.31037(14)
H23_16 H 0.1943 0.6621 0.3279
H24_16 H 0.1757 0.6060 0.3023
C24_16 C 0.0859(5) 0.6055(4) 0.31843(11)
O8_16 O 0.87027(27) 0.15447(19) 0.34982(8)
C7_16 C 0.9757(4) 0.1440(3) 0.35629(14)
H7_16 H 0.9955 0.1345 0.3387
H8_16 H 0.9394 0.0970 0.3643
C8_16 C 0.9389(4) 0.1863(3) 0.34823(11)
O25_17 O 0.1513(4) 0.9637(5) 0.86718(13)
C21_17 C 0.1152(4) 0.8967(5) 0.86557(13)
C22_17 C 0.0389(5) 0.8551(6) 0.87886(15)
H21_17 H 0.0332 0.8115 0.8885
H22_17 H 0.0344 0.8857 0.8936
O6_17 O 0.5209(3) 0.8179(4) 0.79948(13)
O8_17 O 0.48781(19) 0.53693(27) 0.81684(8)
C5_17 C 0.5518(3) 0.7818(4) 0.80109(13)
C6_17 C 0.5171(3) 0.7055(5) 0.78780(15)
H5_17 H 0.5550 0.6998 0.7781
H6_17 H 0.4820 0.7010 0.7730
C7_17 C 0.4774(3) 0.6423(4) 0.81037(14)
H7_17 H 0.4679 0.6621 0.8279
H8_17 H 0.4304 0.6060 0.8023
C8_17 C 0.5197(3) 0.6055(4) 0.81843(11)
O26_17 O 0.97870(25) 0.72621(31) 0.83961(8)
C23_17 C 0.9757(4) 0.8316(5) 0.85629(14)
H23_17 H 0.9955 0.8609 0.8387
H24_17 H 0.9394 0.8423 0.8643
C24_17 C 0.9389(4) 0.7525(5) 0.84823(11)
O25_18 O 0.0363(5) 0.1875(3) 0.86718(13)
O26_18 O 0.27379(31) 0.25248(18) 0.83961(8)
C21_18 C 0.1033(5) 0.2184(3) 0.86557(13)
C22_18 C 0.1449(6) 0.1837(3) 0.87886(15)
H21_18 H 0.1885 0.2216 0.8885
H22_18 H 0.1143 0.1486 0.8936
C23_18 C 0.1684(5) 0.1440(3) 0.85629(14)
H23_18 H 0.1391 0.1345 0.8387
H24_18 H 0.1577 0.0970 0.8643
C24_18 C 0.2475(5) 0.1863(3) 0.84823(11)
O6_18 O 0.1821(4) 0.7029(3) 0.79948(13)
O8_18 O 0.46307(27) 0.95087(19) 0.81684(8)
C5_18 C 0.2182(4) 0.7699(3) 0.80109(13)
C6_18 C 0.2945(5) 0.8115(4) 0.78780(15)
H5_18 H 0.3002 0.8551 0.7781
H6_18 H 0.2990 0.7809 0.7730
C7_18 C 0.3577(4) 0.8350(3) 0.81037(14)
H7_18 H 0.3379 0.8057 0.8279
H8_18 H 0.3940 0.8243 0.8023
C8_18 C 0.3945(4) 0.9141(3) 0.81843(11)
O10_10 O 0.2578(2) 0.0309(2) 0.92094(7)
O12_6 O 0.1361(2) 0.19320(18) 0.97634(8)
C9_10 C 0.2417(3) 0.0602(3) 0.94036(10)
C10_10 C 0.1998(4) 0.0982(4) 0.93286(12)
H9_10 H 0.2347 0.1494 0.9290
H10_10 H 0.1729 0.0770 0.9150
C11_10 C 0.1452(3) 0.0945(3) 0.95607(13)
H11_10 H 0.1008 0.0864 0.9464
H12_10 H 0.1323 0.0527 0.9687
C12_10 C 0.1742(3) 0.1626(3) 0.97466(10)
H16_10 H 0.5698 0.0193 0.8968
O20_10 O 0.4089(2) 0.1064(3) 0.91239(7)
O22_5 O 0.5306(2) 0.39043(27) 0.85699(8)
C17_10 C 0.4250(3) 0.1518(4) 0.89297(10)
C18_10 C 0.4669(4) 0.2317(6) 0.90047(12)
H17_10 H 0.4320 0.2480 0.9043
H18_10 H 0.4938 0.2374 0.9183
C19_10 C 0.5215(3) 0.2826(4) 0.87726(13)
H19_10 H 0.5659 0.3189 0.8869
H20_10 H 0.5344 0.2537 0.8646
C20_10 C 0.4925(3) 0.3217(4) 0.85867(10)
O43_6 O 0.60957(27) 0.14013(18) 0.85699(8)
Ni3_12 Ni 0.333333 0.99727(4) 0.916667
O1_10 O 0.07076(18) 0.73476(18) 0.98642(7)
O2_10 O 0.0599(2) 0.6255(2) 0.97709(8)
O4_10 O 0.2584(2) 0.88932(19) 0.92287(8)
C1_10 C 0.0894(3) 0.6929(3) 0.97293(12)
C2_10 C 0.1489(4) 0.7275(4) 0.95152(15)
H1_10 H 0.1476 0.6900 0.9388
H2_10 H 0.1956 0.7507 0.9617
C3_10 C 0.1435(4) 0.7854(3) 0.93285(12)
H3_10 H 0.1454 0.7750 0.9124
H4_10 H 0.0969 0.7829 0.9365
C4_10 C 0.2056(3) 0.8616(3) 0.93990(10)
O15_10 O 0.59591(18) 0.99733(25) 0.84691(7)
O16_10 O 0.6068(2) 0.8989(3) 0.85624(8)
O18_10 O 0.4083(2) 0.96425(28) 0.91046(8)
C13_10 C 0.5773(3) 0.9368(4) 0.86040(12)
C14_10 C 0.5178(4) 0.9119(6) 0.88181(15)
H13_10 H 0.5191 0.8757 0.8945
H14_10 H 0.4711 0.8884 0.8716
C15_10 C 0.5232(4) 0.9752(5) 0.90048(12)
H15_10 H 0.5213 0.9629 0.9209
C16_10 C 0.4611(3) 0.9893(4) 0.89343(10)
O28_10 O 0.7637(2) 0.9194(3) 0.79669(8)
O34_5 O 0.05710(27) 0.8639(2) 0.97634(8)
H27_10 H 0.811148 0.939635 0.807197
H28_10 H 0.769106 0.951965 0.780047
O14_10 O 0.9030(2) 0.4891(2) 0.03664(8)
H25_10 H 0.855519 0.46182 0.0261367
H26_10 H 0.897561 0.516193 0.0532866
O14_11 O 0.5109(2) 0.4139(3) 0.03664(8)
H25_11 H 0.53818 0.393698 0.0261367
H26_11 H 0.483807 0.381368 0.0532866
Ni3_13 Ni 0.00273(4) 0.336063(40) 0.916667
O1_11 O 0.26524(18) 0.33600(25) 0.98642(7)
O2_11 O 0.3745(2) 0.4344(3) 0.97709(8)
O4_11 O 0.11068(19) 0.36908(28) 0.92287(8)
C1_11 C 0.3071(3) 0.3965(4) 0.97293(12)
C2_11 C 0.2725(4) 0.4214(6) 0.95152(15)
H1_11 H 0.3100 0.4576 0.9388
H2_11 H 0.2493 0.4449 0.9617
C3_11 C 0.2146(3) 0.3581(5) 0.93285(12)
H3_11 H 0.2250 0.3704 0.9124
H4_11 H 0.2171 0.3140 0.9365
C4_11 C 0.1384(3) 0.3440(4) 0.93990(10)
O15_11 O 0.00267(25) 0.59857(31) 0.84691(7)
O16_11 O 0.1011(3) 0.7078(4) 0.85624(8)
O18_11 O 0.03575(28) 0.44401(34) 0.91046(8)
C13_11 C 0.0632(4) 0.6404(5) 0.86040(12)
C14_11 C 0.0881(6) 0.6058(7) 0.88181(15)
H13_11 H 0.1243 0.6433 0.8945
H14_11 H 0.1116 0.5826 0.8716
C15_11 C 0.0248(5) 0.5479(6) 0.90048(12)
H15_11 H 0.0371 0.5583 0.9209
C16_11 C 0.0107(4) 0.4717(5) 0.89343(10)
O28_11 O 0.0806(3) 0.8442(4) 0.79669(8)
H27_11 H 0.0603647 0.871513 0.807197
H28_11 H 0.0480348 0.81714 0.780047
O10_11 O 0.9691(2) 0.2269(3) 0.92094(7)
C9_11 C 0.9398(3) 0.1815(4) 0.94036(10)
C10_11 C 0.9018(4) 0.1016(6) 0.93286(12)
H9_11 H 0.8506 0.0853 0.9290
H10_11 H 0.9230 0.0959 0.9150
C11_11 C 0.9055(3) 0.0507(4) 0.95607(13)
H11_11 H 0.9136 0.0144 0.9464
H12_11 H 0.9473 0.0796 0.9687
C12_11 C 0.8374(3) 0.0116(4) 0.97466(10)
H16_11 H 0.9807 0.5504 0.8968
O20_11 O 0.8936(3) 0.3024(4) 0.91239(7)
C17_11 C 0.8482(4) 0.2731(5) 0.89297(10)
C18_11 C 0.7683(6) 0.2351(7) 0.90047(12)
H17_11 H 0.7520 0.1839 0.9043
H18_11 H 0.7626 0.2563 0.9183
C19_11 C 0.7174(4) 0.2388(5) 0.87726(13)
H19_11 H 0.6811 0.2469 0.8869
H20_11 H 0.7463 0.2806 0.8646
C20_11 C 0.6783(4) 0.1707(5) 0.85867(10)
O43_7 O 0.85987(18) 0.46943(32) 0.85699(8)
O12_7 O 0.80680(18) 0.94290(27) 0.97634(8)
O10_12 O 0.0309(2) 0.2578(2) 0.57906(7)
O12_8 O 0.19320(18) 0.1361(2) 0.52366(8)
C9_12 C 0.0602(3) 0.2417(3) 0.55964(10)
C10_12 C 0.0982(4) 0.1998(4) 0.56714(12)
H9_12 H 0.1494 0.2347 0.5710
H10_12 H 0.0770 0.1729 0.5850
C11_12 C 0.0945(3) 0.1452(3) 0.54393(13)
H11_12 H 0.0864 0.1008 0.5536
H12_12 H 0.0527 0.1323 0.5313
C12_12 C 0.1626(3) 0.1742(3) 0.52534(10)
H16_12 H 0.0193 0.5698 0.6032
O20_12 O 0.1064(3) 0.4089(2) 0.58761(7)
O22_6 O 0.39043(27) 0.5306(2) 0.64301(8)
C17_12 C 0.1518(4) 0.4250(3) 0.60703(10)
C18_12 C 0.2317(6) 0.4669(4) 0.59953(12)
H17_12 H 0.2480 0.4320 0.5957
H18_12 H 0.2374 0.4938 0.5817
C19_12 C 0.2826(4) 0.5215(3) 0.62274(13)
H19_12 H 0.3189 0.5659 0.6131
H20_12 H 0.2537 0.5344 0.6354
C20_12 C 0.3217(4) 0.4925(3) 0.64133(10)
O43_8 O 0.14013(18) 0.60957(27) 0.64301(8)
Ni3_14 Ni 0.99727(4) 0.333333 0.583333
O1_12 O 0.73476(18) 0.07076(18) 0.51358(7)
O2_12 O 0.6255(2) 0.0599(2) 0.52291(8)
O4_12 O 0.88932(19) 0.2584(2) 0.57713(8)
C1_12 C 0.6929(3) 0.0894(3) 0.52707(12)
C2_12 C 0.7275(4) 0.1489(4) 0.54848(15)
H1_12 H 0.6900 0.1476 0.5612
H2_12 H 0.7507 0.1956 0.5383
C3_12 C 0.7854(3) 0.1435(4) 0.56715(12)
H3_12 H 0.7750 0.1454 0.5876
H4_12 H 0.7829 0.0969 0.5635
C4_12 C 0.8616(3) 0.2056(3) 0.56010(10)
O15_12 O 0.99733(25) 0.59591(18) 0.65309(7)
O16_12 O 0.8989(3) 0.6068(2) 0.64376(8)
O18_12 O 0.96425(28) 0.4083(2) 0.58954(8)
C13_12 C 0.9368(4) 0.5773(3) 0.63960(12)
C14_12 C 0.9119(6) 0.5178(4) 0.61819(15)
H13_12 H 0.8757 0.5191 0.6055
H14_12 H 0.8884 0.4711 0.6284
C15_12 C 0.9752(5) 0.5232(4) 0.59952(12)
H15_12 H 0.9629 0.5213 0.5791
C16_12 C 0.9893(4) 0.4611(3) 0.60657(10)
O28_12 O 0.9194(3) 0.7637(2) 0.70331(8)
O34_6 O 0.8639(2) 0.05710(27) 0.52366(8)
H27_12 H 0.939635 0.811148 0.692803
H28_12 H 0.951965 0.769106 0.719953
O14_12 O 0.4891(2) 0.9030(2) 0.46336(8)
H25_12 H 0.46182 0.855519 0.473863
H26_12 H 0.516193 0.897561 0.446713
O14_13 O 0.5861(3) 0.0970(2) 0.03664(8)
H25_13 H 0.606302 0.144481 0.0261367
H26_13 H 0.618632 0.102439 0.0532866
Ni3_15 Ni 0.663937(40) 0.666667 0.916667
O1_13 O 0.66400(25) 0.92924(18) 0.98642(7)
O2_13 O 0.5656(3) 0.9401(2) 0.97709(8)
O4_13 O 0.63092(28) 0.7416(2) 0.92287(8)
O10_13 O 0.7731(3) 0.7422(2) 0.92094(7)
C1_13 C 0.6035(4) 0.9106(3) 0.97293(12)
C2_13 C 0.5786(6) 0.8511(4) 0.95152(15)
H1_13 H 0.5424 0.8524 0.9388
H2_13 H 0.5551 0.8044 0.9617
C3_13 C 0.6419(5) 0.8565(4) 0.93285(12)
H3_13 H 0.6296 0.8546 0.9124
H4_13 H 0.6860 0.9031 0.9365
C4_13 C 0.6560(4) 0.7944(3) 0.93990(10)
C9_13 C 0.8185(4) 0.7583(3) 0.94036(10)
C10_13 C 0.8984(6) 0.8002(4) 0.93286(12)
H9_13 H 0.9147 0.7653 0.9290
H10_13 H 0.9041 0.8271 0.9150
C11_13 C 0.9493(4) 0.8548(3) 0.95607(13)
H11_13 H 0.9856 0.8992 0.9464
H12_13 H 0.9204 0.8677 0.9687
C12_13 C 0.9884(4) 0.8258(3) 0.97466(10)
O15_13 O 0.40143(31) 0.40409(18) 0.84691(7)
O16_13 O 0.2922(4) 0.3932(2) 0.85624(8)
O18_13 O 0.55599(34) 0.5917(2) 0.91046(8)
C13_13 C 0.3596(5) 0.4227(3) 0.86040(12)
C14_13 C 0.3942(7) 0.4822(4) 0.88181(15)
H13_13 H 0.3567 0.4809 0.8945
H14_13 H 0.4174 0.5289 0.8716
C15_13 C 0.4521(6) 0.4768(4) 0.90048(12)
H15_13 H 0.4417 0.4787 0.9209
H16_13 H 0.4496 0.4302 0.8968
C16_13 C 0.5283(5) 0.5389(3) 0.89343(10)
O20_13 O 0.6976(4) 0.5911(2) 0.91239(7)
C17_13 C 0.7269(5) 0.5750(3) 0.89297(10)
C18_13 C 0.7649(7) 0.5331(4) 0.90047(12)
H17_13 H 0.8161 0.5680 0.9043
H18_13 H 0.7437 0.5062 0.9183
C19_13 C 0.7612(5) 0.4785(3) 0.87726(13)
H19_13 H 0.7531 0.4341 0.8869
H20_13 H 0.7194 0.4656 0.8646
C20_13 C 0.8293(5) 0.5075(3) 0.85867(10)
O28_13 O 0.1558(4) 0.2363(2) 0.79669(8)
H27_13 H 0.128487 0.188852 0.807197
H28_13 H 0.18286 0.230894 0.780047
O14_14 O 0.0970(2) 0.5861(3) 0.46336(8)
H25_14 H 0.144481 0.606302 0.473863
H26_14 H 0.102439 0.618632 0.446713
Ni3_16 Ni 0.666667 0.663937(40) 0.583333
O1_14 O 0.92924(18) 0.66400(25) 0.51358(7)
O2_14 O 0.9401(2) 0.5656(3) 0.52291(8)
O4_14 O 0.7416(2) 0.63092(28) 0.57713(8)
O10_14 O 0.7422(2) 0.7731(3) 0.57906(7)
C1_14 C 0.9106(3) 0.6035(4) 0.52707(12)
C2_14 C 0.8511(4) 0.5786(6) 0.54848(15)
H1_14 H 0.8524 0.5424 0.5612
H2_14 H 0.8044 0.5551 0.5383
C3_14 C 0.8565(4) 0.6419(5) 0.56715(12)
H3_14 H 0.8546 0.6296 0.5876
H4_14 H 0.9031 0.6860 0.5635
C4_14 C 0.7944(3) 0.6560(4) 0.56010(10)
C9_14 C 0.7583(3) 0.8185(4) 0.55964(10)
C10_14 C 0.8002(4) 0.8984(6) 0.56714(12)
H9_14 H 0.7653 0.9147 0.5710
H10_14 H 0.8271 0.9041 0.5850
C11_14 C 0.8548(3) 0.9493(4) 0.54393(13)
H11_14 H 0.8992 0.9856 0.5536
H12_14 H 0.8677 0.9204 0.5313
C12_14 C 0.8258(3) 0.9884(4) 0.52534(10)
O15_14 O 0.40409(18) 0.40143(31) 0.65309(7)
O16_14 O 0.3932(2) 0.2922(4) 0.64376(8)
O18_14 O 0.5917(2) 0.55599(34) 0.58954(8)
C13_14 C 0.4227(3) 0.3596(5) 0.63960(12)
C14_14 C 0.4822(4) 0.3942(7) 0.61819(15)
H13_14 H 0.4809 0.3567 0.6055
H14_14 H 0.5289 0.4174 0.6284
C15_14 C 0.4768(4) 0.4521(6) 0.59952(12)
H15_14 H 0.4787 0.4417 0.5791
H16_14 H 0.4302 0.4496 0.6032
C16_14 C 0.5389(3) 0.5283(5) 0.60657(10)
O20_14 O 0.5911(2) 0.6976(4) 0.58761(7)
O22_7 O 0.4694(2) 0.85987(34) 0.64301(8)
C17_14 C 0.5750(3) 0.7269(5) 0.60703(10)
C18_14 C 0.5331(4) 0.7649(7) 0.59953(12)
H17_14 H 0.5680 0.8161 0.5957
H18_14 H 0.5062 0.7437 0.5817
C19_14 C 0.4785(3) 0.7612(5) 0.62274(13)
H19_14 H 0.4341 0.7531 0.6131
H20_14 H 0.4656 0.7194 0.6354
C20_14 C 0.5075(3) 0.8293(5) 0.64133(10)
O28_14 O 0.2363(2) 0.1558(4) 0.70331(8)
O34_7 O 0.94290(27) 0.80680(34) 0.52366(8)
H27_14 H 0.188852 0.128487 0.692803
H28_14 H 0.230894 0.18286 0.719953
Ni3_17 Ni 0.336063(40) 0.00273(4) 0.583333
O1_15 O 0.33600(25) 0.26524(18) 0.51358(7)
O2_15 O 0.4344(3) 0.3745(2) 0.52291(8)
O4_15 O 0.36908(28) 0.11068(19) 0.57713(8)
O14_15 O 0.4139(3) 0.5109(2) 0.46336(8)
C1_15 C 0.3965(4) 0.3071(3) 0.52707(12)
C2_15 C 0.4214(6) 0.2725(4) 0.54848(15)
H1_15 H 0.4576 0.3100 0.5612
H2_15 H 0.4449 0.2493 0.5383
C3_15 C 0.3581(5) 0.2146(3) 0.56715(12)
H3_15 H 0.3704 0.2250 0.5876
H4_15 H 0.3140 0.2171 0.5635
C4_15 C 0.3440(4) 0.1384(3) 0.56010(10)
O15_15 O 0.59857(31) 0.00267(25) 0.65309(7)
O16_15 O 0.7078(4) 0.1011(3) 0.64376(8)
O18_15 O 0.44401(34) 0.03575(28) 0.58954(8)
C13_15 C 0.6404(5) 0.0632(4) 0.63960(12)
C14_15 C 0.6058(7) 0.0881(6) 0.61819(15)
H13_15 H 0.6433 0.1243 0.6055
H14_15 H 0.5826 0.1116 0.6284
C15_15 C 0.5479(6) 0.0248(5) 0.59952(12)
H15_15 H 0.5583 0.0371 0.5791
C16_15 C 0.4717(5) 0.0107(4) 0.60657(10)
O28_15 O 0.8442(4) 0.0806(3) 0.70331(8)
H25_15 H 0.393698 0.53818 0.473863
H26_15 H 0.381368 0.483807 0.446713
H27_15 H 0.871513 0.0603647 0.692803
H28_15 H 0.81714 0.0480348 0.719953
O10_15 O 0.2269(3) 0.9691(2) 0.57906(7)
C9_15 C 0.1815(4) 0.9398(3) 0.55964(10)
C10_15 C 0.1016(6) 0.9018(4) 0.56714(12)
H9_15 H 0.0853 0.8506 0.5710
H10_15 H 0.0959 0.9230 0.5850
C11_15 C 0.0507(4) 0.9055(3) 0.54393(13)
H11_15 H 0.0144 0.9136 0.5536
H12_15 H 0.0796 0.9473 0.5313
C12_15 C 0.0116(4) 0.8374(3) 0.52534(10)
H16_15 H 0.5504 0.9807 0.6032
O20_15 O 0.3024(4) 0.8936(3) 0.58761(7)
C17_15 C 0.2731(5) 0.8482(4) 0.60703(10)
C18_15 C 0.2351(7) 0.7683(6) 0.59953(12)
H17_15 H 0.1839 0.7520 0.5957
H18_15 H 0.2563 0.7626 0.5817
C19_15 C 0.2388(5) 0.7174(4) 0.62274(13)
H19_15 H 0.2469 0.6811 0.6131
H20_15 H 0.2806 0.7463 0.6354
C20_15 C 0.1707(5) 0.6783(4) 0.64133(10)
Ni3_18 Ni -0.000000 0.33060(4) 0.250000
O15_16 O 0.26257(18) 0.33067(25) 0.18025(7)
O16_16 O 0.2734(2) 0.2323(3) 0.18958(8)
O18_16 O 0.0749(2) 0.29759(28) 0.24380(8)
C13_16 C 0.2439(3) 0.2702(4) 0.19374(12)
C14_16 C 0.1844(4) 0.2453(6) 0.21515(15)
H13_16 H 0.1857 0.2091 0.2279
H14_16 H 0.1377 0.2218 0.2050
C15_16 C 0.1898(4) 0.3086(5) 0.23382(12)
H15_16 H 0.1879 0.2963 0.2543
H16_16 H 0.2364 0.3527 0.2302
C16_16 C 0.1277(3) 0.3227(4) 0.22677(10)
O20_16 O 0.0755(2) 0.4398(3) 0.24573(7)
O22_8 O 0.1972(2) 0.72377(27) 0.19033(8)
C17_16 C 0.0916(3) 0.4852(4) 0.22631(10)
C18_16 C 0.1335(4) 0.5651(6) 0.23381(12)
H17_16 H 0.0986 0.5814 0.2377
H18_16 H 0.1604 0.5708 0.2517
C19_16 C 0.1881(3) 0.6160(4) 0.21060(13)
H19_16 H 0.2325 0.6523 0.2203
H20_16 H 0.2010 0.5871 0.1980
C20_16 C 0.1591(3) 0.6551(4) 0.19201(10)
O28_16 O 0.4303(2) 0.2528(3) 0.13003(8)
O43_9 O 0.27623(27) 0.47347(18) 0.19033(8)
H27_16 H 0.477815 0.272969 0.14053
H28_16 H 0.435772 0.285299 0.11338
Ni3_19 Ni 1.000000 0.33060(4) 0.250000
O1_16 O 0.73743(18) 0.06809(18) 0.31975(7)
O4_16 O 0.9251(2) 0.22265(19) 0.25620(8)
O10_16 O 0.9245(2) 0.3642(2) 0.25427(7)
O12_9 O 0.8028(2) 0.52653(18) 0.30967(8)
C1_16 C 0.7561(3) 0.0262(3) 0.30626(12)
C2_16 C 0.8156(4) 0.0608(4) 0.28485(15)
H1_16 H 0.8143 0.0233 0.2721
H2_16 H 0.8623 0.0840 0.2950
C3_16 C 0.8102(4) 0.1187(3) 0.26618(12)
H3_16 H 0.8121 0.1083 0.2457
H4_16 H 0.7636 0.1162 0.2698
C4_16 C 0.8723(3) 0.1949(3) 0.27323(10)
C9_16 C 0.9084(3) 0.3935(3) 0.27369(10)
C10_16 C 0.8665(4) 0.4315(4) 0.26619(12)
H9_16 H 0.9014 0.4827 0.2623
H10_16 H 0.8396 0.4103 0.2483
C11_16 C 0.8119(3) 0.4278(3) 0.28940(13)
H11_16 H 0.7675 0.4197 0.2797
H12_16 H 0.7990 0.3860 0.3020
C12_16 C 0.8409(3) 0.4959(3) 0.30799(10)
O34_8 O 0.72377(27) 0.1972(2) 0.30967(8)
O2_16 O 0.7266(2) 0.9588(2) 0.31042(8)
O14_16 O 0.5697(2) 0.8224(2) 0.36997(8)
H25_16 H 0.522185 0.795154 0.35947
H26_16 H 0.564228 0.849526 0.38662
O2_17 O 0.0412(2) 0.7677(3) 0.31042(8)
O14_17 O 0.1776(2) 0.7472(3) 0.36997(8)
H25_17 H 0.204846 0.727031 0.35947
H26_17 H 0.150474 0.714701 0.38662
O16_17 O 0.7677(3) 0.0412(4) 0.18958(8)
O28_17 O 0.7472(3) 0.1776(4) 0.13003(8)
H27_17 H 0.727031 0.204846 0.14053
H28_17 H 0.714701 0.150474 0.11338
Ni3_20 Ni 0.66940(4) 0.669396(40) 0.250000
O1_17 O 0.93191(18) 0.66933(25) 0.31975(7)
O4_17 O 0.77735(19) 0.70241(28) 0.25620(8)
O10_17 O 0.6358(2) 0.5602(3) 0.25427(7)
O12_10 O 0.47347(18) 0.27623(27) 0.30967(8)
C1_17 C 0.9738(3) 0.7298(4) 0.30626(12)
C2_17 C 0.9392(4) 0.7547(6) 0.28485(15)
H1_17 H 0.9767 0.7909 0.2721
H2_17 H 0.9160 0.7782 0.2950
C3_17 C 0.8813(3) 0.6914(5) 0.26618(12)
H3_17 H 0.8917 0.7037 0.2457
H4_17 H 0.8838 0.6473 0.2698
C4_17 C 0.8051(3) 0.6773(4) 0.27323(10)
C9_17 C 0.6065(3) 0.5148(4) 0.27369(10)
C10_17 C 0.5685(4) 0.4349(6) 0.26619(12)
H9_17 H 0.5173 0.4186 0.2623
H10_17 H 0.5897 0.4292 0.2483
C11_17 C 0.5722(3) 0.3840(4) 0.28940(13)
H11_17 H 0.5803 0.3477 0.2797
H12_17 H 0.6140 0.4129 0.3020
C12_17 C 0.5041(3) 0.3449(4) 0.30799(10)
O15_17 O 0.66933(25) 0.93191(31) 0.18025(7)
O18_17 O 0.70241(28) 0.77735(34) 0.24380(8)
C13_17 C 0.7298(4) 0.9738(5) 0.19374(12)
C14_17 C 0.7547(6) 0.9392(7) 0.21515(15)
H13_17 H 0.7909 0.9767 0.2279
H14_17 H 0.7782 0.9160 0.2050
C15_17 C 0.6914(5) 0.8813(6) 0.23382(12)
H15_17 H 0.7037 0.8917 0.2543
H16_17 H 0.6473 0.8838 0.2302
C16_17 C 0.6773(4) 0.8051(5) 0.22677(10)
O20_17 O 0.5602(3) 0.6358(4) 0.24573(7)
C17_17 C 0.5148(4) 0.6065(5) 0.22631(10)
C18_17 C 0.4349(6) 0.5685(7) 0.23381(12)
H17_17 H 0.4186 0.5173 0.2377
H18_17 H 0.4292 0.5897 0.2517
C19_17 C 0.3840(4) 0.5722(5) 0.21060(13)
H19_17 H 0.3477 0.5803 0.2203
H20_17 H 0.4129 0.6140 0.1980
C20_17 C 0.3449(4) 0.5041(5) 0.19201(10)
O43_10 O 0.52653(18) 0.80277(32) 0.19033(8)
Ni3_21 Ni 0.330604(40) 0.000000 0.250000
O1_18 O 0.33067(25) 0.26257(18) 0.31975(7)
O2_18 O 0.2323(3) 0.2734(2) 0.31042(8)
O4_18 O 0.29759(28) 0.0749(2) 0.25620(8)
O10_18 O 0.4398(3) 0.0755(2) 0.25427(7)
O14_18 O 0.2528(3) 0.4303(2) 0.36997(8)
C1_18 C 0.2702(4) 0.2439(3) 0.30626(12)
C2_18 C 0.2453(6) 0.1844(4) 0.28485(15)
H1_18 H 0.2091 0.1857 0.2721
H2_18 H 0.2218 0.1377 0.2950
C3_18 C 0.3086(5) 0.1898(4) 0.26618(12)
H3_18 H 0.2963 0.1879 0.2457
H4_18 H 0.3527 0.2364 0.2698
C4_18 C 0.3227(4) 0.1277(3) 0.27323(10)
C9_18 C 0.4852(4) 0.0916(3) 0.27369(10)
C10_18 C 0.5651(6) 0.1335(4) 0.26619(12)
H9_18 H 0.5814 0.0986 0.2623
H10_18 H 0.5708 0.1604 0.2483
C11_18 C 0.6160(4) 0.1881(3) 0.28940(13)
H11_18 H 0.6523 0.2325 0.2797
H12_18 H 0.5871 0.2010 0.3020
C12_18 C 0.6551(4) 0.1591(3) 0.30799(10)
H25_18 H 0.272969 0.477815 0.35947
H26_18 H 0.285299 0.435772 0.38662
Ni3_22 Ni 0.330604(40) 1.000000 0.250000
O15_18 O 0.06809(31) 0.73743(18) 0.18025(7)
O18_18 O 0.22265(34) 0.9251(2) 0.24380(8)
C13_18 C 0.0262(5) 0.7561(3) 0.19374(12)
C14_18 C 0.0608(7) 0.8156(4) 0.21515(15)
H13_18 H 0.0233 0.8143 0.2279
H14_18 H 0.0840 0.8623 0.2050
C15_18 C 0.1187(6) 0.8102(4) 0.23382(12)
H15_18 H 0.1083 0.8121 0.2543
H16_18 H 0.1162 0.7636 0.2302
C16_18 C 0.1949(5) 0.8723(3) 0.22677(10)
O20_18 O 0.3642(4) 0.9245(2) 0.24573(7)
C17_18 C 0.3935(5) 0.9084(3) 0.22631(10)
C18_18 C 0.4315(7) 0.8665(4) 0.23381(12)
H17_18 H 0.4827 0.9014 0.2377
H18_18 H 0.4103 0.8396 0.2517
C19_18 C 0.4278(5) 0.8119(3) 0.21060(13)
H19_18 H 0.4197 0.7675 0.2203
H20_18 H 0.3860 0.7990 0.1980
C20_18 C 0.4959(5) 0.8409(3) 0.19201(10)
O16_18 O 0.9588(4) 0.7266(2) 0.18958(8)
O28_18 O 0.8224(4) 0.5697(2) 0.13003(8)
H27_18 H 0.795154 0.522185 0.14053
H28_18 H 0.849526 0.564228 0.11338
loop_
_geom_bond_atom_site_label_1
_geom_bond_atom_site_label_2
_geom_bond_site_symmetry_1
_geom_bond_site_symmetry_2
O6 C5 1_555 1_555
O8 C8 1_555 1_555
C5 O5 1_555 1_555
C6 C5 1_555 1_555
H5 C6 1_555 1_555
H6 C6 1_555 1_555
C7 C6 1_555 1_555
H7 C7 1_555 1_555
H8 C7 1_555 1_555
C8 O7 1_555 1_555
C7 C8 1_555 1_555
O14 Ni4 1_555 1_555
O29 Ni1 1_555 1_555
O29 Ni10 1_555 1_555
O14 H25 1_555 1_555
O14 H26 1_555 1_555
Ni2 O1 1_555 1_555
Ni3 O4 1_555 1_555
O1 C1 1_555 1_555
O2 C1 1_555 1_555
O3 Ni2 1_555 1_555
O4 C4 1_555 1_555
C1 C2 1_555 1_555
C2 H1 1_555 1_555
H2 C2 1_555 1_555
C3 C2 1_555 1_555
H3 C3 1_555 1_555
H4 C3 1_555 1_555
C4 O3 1_555 1_555
O15 C13 1_555 1_555
O16 C13 1_555 1_555
O18 Ni3 1_555 1_555
C13 C14 1_555 1_555
C14 H13 1_555 1_555
H14 C14 1_555 1_555
C15 C14 1_555 1_555
H15 C15 1_555 1_555
C16 O18 1_555 1_555
O23 Ni3 1_555 1_555
Ni7 O16 1_555 1_555
O28 Ni7 1_555 1_555
O34 Ni2 1_555 1_555
Ni8 O3 1_555 1_555
Ni19 O23 1_555 1_555
O44 Ni7 1_555 1_555
O45 Ni7 1_555 1_555
C3 C4 1_555 1_555
C15 C16 1_555 1_555
Ni7 O40 1_555 1_555
O28 H27 1_555 1_555
O28 H28 1_555 1_555
O24 C21 1_555 1_555
O25 C21 1_555 1_555
O26 C24 1_555 1_555
C21 C22 1_555 1_555
C22 H21 1_555 1_555
H22 C22 1_555 1_555
C23 C22 1_555 1_555
H23 C23 1_555 1_555
H24 C23 1_555 1_555
C24 O27 1_555 1_555
C23 C24 1_555 1_555
O9 C9 1_555 1_555
O11 C12 1_555 1_555
O12 C12 1_555 1_555
C9 O10 1_555 1_555
C10 C9 1_555 1_555
H9 C10 1_555 1_555
H10 C10 1_555 1_555
C11 C10 1_555 1_555
H11 C11 1_555 1_555
H12 C11 1_555 1_555
C12 C11 1_555 1_555
O19 C17 1_555 1_555
O21 C20 1_555 1_555
O22 C20 1_555 1_555
C17 O20 1_555 1_555
C18 C17 1_555 1_555
H17 C18 1_555 1_555
H18 C18 1_555 1_555
C19 C18 1_555 1_555
H19 C19 1_555 1_555
H20 C19 1_555 1_555
C20 C19 1_555 1_555
Ni13 O12 1_555 1_555
Ni15 O17 1_555 1_555
Ni16 O19 1_555 1_555
Ni17 O21 1_555 1_555
Ni18 O22 1_555 1_555
O36 Ni5 1_555 1_555
O37 Ni5 1_555 1_555
O38 Ni5 1_555 1_555
O39 Ni5 1_555 1_555
O42 Ni6 1_555 1_555
O43 Ni6 1_555 1_555
O17 Ni6 1_555 1_555
O19 Ni15 1_555 1_555
O21 Ni16 1_555 1_555
Ni6 O38 1_555 1_555
Ni15 O42 1_555 1_555
Ni13_2 O12_2 1_555 1_555
O9_2 C9_2 1_555 1_555
O11_2 C12_2 1_555 1_555
C9_2 O10_2 1_555 1_555
C10_2 C9_2 1_555 1_555
H9_2 C10_2 1_555 1_555
H10_2 C10_2 1_555 1_555
C11_2 C10_2 1_555 1_555
H11_2 C11_2 1_555 1_555
H12_2 C11_2 1_555 1_555
C12_2 C11_2 1_555 1_555
O19_2 C17_2 1_555 1_555
O39 C20_2 1_555 1_555
O43 C20_2 1_555 1_555
C17_2 O20_2 1_555 1_555
C18_2 C17_2 1_555 1_555
H17_2 C18_2 1_555 1_555
H18_2 C18_2 1_555 1_555
C19_2 C18_2 1_555 1_555
H19_2 C19_2 1_555 1_555
H20_2 C19_2 1_555 1_555
C20_2 C19_2 1_555 1_555
Ni15_2 O17_2 1_555 1_555
Ni16_2 O19_2 1_555 1_555
O36_2 Ni5_2 1_555 1_555
O37_2 Ni5_2 1_555 1_555
O38_2 Ni5_2 1_555 1_555
O39_2 Ni5_2 1_555 1_555
O42_2 Ni6_2 1_555 1_555
O43_2 Ni6_2 1_555 1_555
O17_2 Ni6_2 1_555 1_555
O19_2 Ni15_2 1_555 1_555
O39 Ni16_2 1_555 1_555
Ni6_2 O38_2 1_555 1_555
Ni15_2 O42_2 1_555 1_555
Ni13 O1_2 1_555 1_555
Ni3_2 O4_2 1_555 1_555
O1_2 C1_2 1_555 1_555
O2_2 C1_2 1_555 1_555
O3_2 Ni13 1_555 1_555
O4_2 C4_2 1_555 1_555
O6_2 C5_2 1_555 1_555
O8_2 C8_2 1_555 1_555
C1_2 C2_2 1_555 1_555
C2_2 H1_2 1_555 1_555
H2_2 C2_2 1_555 1_555
C3_2 C2_2 1_555 1_555
H3_2 C3_2 1_555 1_555
H4_2 C3_2 1_555 1_555
C4_2 O3_2 1_555 1_555
C5_2 O5_2 1_555 1_555
C6_2 C5_2 1_555 1_555
H5_2 C6_2 1_555 1_555
H6_2 C6_2 1_555 1_555
C7_2 C6_2 1_555 1_555
H7_2 C7_2 1_555 1_555
H8_2 C7_2 1_555 1_555
C8_2 O7_2 1_555 1_555
O15_2 C13_2 1_555 1_555
O16_2 C13_2 1_555 1_555
O18_2 Ni3_2 1_555 1_555
C13_2 C14_2 1_555 1_555
C14_2 H13_2 1_555 1_555
H14_2 C14_2 1_555 1_555
C15_2 C14_2 1_555 1_555
H15_2 C15_2 1_555 1_555
C16_2 O18_2 1_555 1_555
O23_2 Ni3_2 1_555 1_555
Ni7_2 O16_2 1_555 1_555
O28_2 Ni7_2 1_555 1_555
Ni8_2 O3_2 1_555 1_555
Ni9_2 O5_2 1_555 1_555
Ni19_2 O23_2 1_555 1_555
O44_2 Ni7_2 1_555 1_555
O45_2 Ni7_2 1_555 1_555
C3_2 C4_2 1_555 1_555
C7_2 C8_2 1_555 1_555
C15_2 C16_2 1_555 1_555
Ni7_2 O40_2 1_555 1_555
O28_2 H27_2 1_555 1_555
O28_2 H28_2 1_555 1_555
O14_2 Ni4_2 1_555 1_555
O35 C21_2 1_555 1_555
O25_2 C21_2 1_555 1_555
O26_2 C24_2 1_555 1_555
C21_2 C22_2 1_555 1_555
C22_2 H21_2 1_555 1_555
H22_2 C22_2 1_555 1_555
C23_2 C22_2 1_555 1_555
H23_2 C23_2 1_555 1_555
H24_2 C23_2 1_555 1_555
C24_2 O27_2 1_555 1_555
O29_2 Ni12 1_555 1_555
O30_2 Ni12 1_555 1_555
O32_2 Ni12 1_555 1_555
O35_2 Ni4_2 1_555 1_555
Ni4_2 O32_2 1_555 1_555
C23_2 C24_2 1_555 1_555
O29_2 Ni11 1_555 1_555
O14_2 H25_2 1_555 1_555
O14_2 H26_2 1_555 1_555
O5_3 Ni4_3 1_555 1_555
O6_3 C5_3 1_555 1_555
O7_3 Ni1_2 1_555 1_555
O8_3 C8_3 1_555 1_555
O14_3 Ni4_3 1_555 1_555
C5_3 O5_3 1_555 1_555
C6_3 C5_3 1_555 1_555
H5_3 C6_3 1_555 1_555
H6_3 C6_3 1_555 1_555
C7_3 C6_3 1_555 1_555
H7_3 C7_3 1_555 1_555
H8_3 C7_3 1_555 1_555
C8_3 O7_3 1_555 1_555
O29_3 Ni1_2 1_555 1_555
O31_2 Ni1_2 1_555 1_555
Ni10_2 O8_3 1_555 1_555
Ni4_3 O7_3 1_555 1_555
C7_3 C8_3 1_555 1_555
O29_3 Ni10_2 1_555 1_555
O31_2 Ni10_2 1_555 1_555
O14_3 H25_3 1_555 1_555
O14_3 H26_3 1_555 1_555
Ni2_2 O1_3 1_555 1_555
Ni3_3 O4_3 1_555 1_555
O1_3 C1_3 1_555 1_555
O2_3 C1_3 1_555 1_555
O3_3 Ni2_2 1_555 1_555
O4_3 C4_3 1_555 1_555
C1_3 C2_3 1_555 1_555
C2_3 H1_3 1_555 1_555
H2_3 C2_3 1_555 1_555
C3_3 C2_3 1_555 1_555
H3_3 C3_3 1_555 1_555
H4_3 C3_3 1_555 1_555
C4_3 O3_3 1_555 1_555
O15_3 C13_3 1_555 1_555
O16_3 C13_3 1_555 1_555
O18_3 Ni3_3 1_555 1_555
C13_3 C14_3 1_555 1_555
C14_3 H13_3 1_555 1_555
H14_3 C14_3 1_555 1_555
C15_3 C14_3 1_555 1_555
H15_3 C15_3 1_555 1_555
C16_3 O18_3 1_555 1_555
O23_3 Ni3_3 1_555 1_555
Ni7_3 O16_3 1_555 1_555
O24_2 C21_3 1_555 1_555
O25_3 C21_3 1_555 1_555
O26_3 C24_3 1_555 1_555
O27_3 Ni2_2 1_555 1_555
C21_3 C22_3 1_555 1_555
C22_3 H21_3 1_555 1_555
H22_3 C22_3 1_555 1_555
C23_3 C22_3 1_555 1_555
H23_3 C23_3 1_555 1_555
H24_3 C23_3 1_555 1_555
C24_3 O27_3 1_555 1_555
O28_3 Ni7_3 1_555 1_555
O33_3 Ni2_2 1_555 1_555
O34_2 Ni2_2 1_555 1_555
Ni8_3 O3_3 1_555 1_555
Ni19_3 O23_3 1_555 1_555
O44_3 Ni7_3 1_555 1_555
O45_3 Ni7_3 1_555 1_555
Ni2_2 O30_3 1_555 1_555
C3_3 C4_3 1_555 1_555
C15_3 C16_3 1_555 1_555
Ni7_3 O40_3 1_555 1_555
O24_2 Ni14_2 1_555 1_555
O26_3 Ni8_3 1_555 1_555
O26_3 Ni14_2 1_555 1_555
C23_3 C24_3 1_555 1_555
O33_3 Ni8_3 1_555 1_555
O35_3 Ni9_3 1_555 1_555
O28_3 H27_3 1_555 1_555
O28_3 H28_3 1_555 1_555
O9_3 C9_3 1_555 1_555
O11_3 C12_3 1_555 1_555
O12_3 C12_3 1_555 1_555
C9_3 O10_3 1_555 1_555
C10_3 C9_3 1_555 1_555
H9_3 C10_3 1_555 1_555
H10_3 C10_3 1_555 1_555
C11_3 C10_3 1_555 1_555
H11_3 C11_3 1_555 1_555
H12_3 C11_3 1_555 1_555
C12_3 C11_3 1_555 1_555
O19_3 C17_3 1_555 1_555
O21_2 C20_3 1_555 1_555
O22_2 C20_3 1_555 1_555
C17_3 O20_3 1_555 1_555
C18_3 C17_3 1_555 1_555
H17_3 C18_3 1_555 1_555
H18_3 C18_3 1_555 1_555
C19_3 C18_3 1_555 1_555
H19_3 C19_3 1_555 1_555
H20_3 C19_3 1_555 1_555
C20_3 C19_3 1_555 1_555
Ni11_3 O9_3 1_555 1_555
Ni12_3 O11_3 1_555 1_555
Ni13_3 O12_3 1_555 1_555
Ni15_3 O17_3 1_555 1_555
Ni16_3 O19_3 1_555 1_555
Ni17_2 O21_2 1_555 1_555
Ni18_2 O22_2 1_555 1_555
O36_3 Ni5_3 1_555 1_555
O37_3 Ni5_3 1_555 1_555
O38_3 Ni5_3 1_555 1_555
O39_3 Ni5_3 1_555 1_555
O42_3 Ni6_3 1_555 1_555
O43_3 Ni6_3 1_555 1_555
O11_3 Ni11_3 1_555 1_555
O17_3 Ni6_3 1_555 1_555
O19_3 Ni15_3 1_555 1_555
O21_2 Ni16_3 1_555 1_555
Ni6_3 O38_3 1_555 1_555
Ni15_3 O42_3 1_555 1_555
Ni13_2 O1_4 1_555 1_555
Ni3_4 O4_4 1_555 1_555
O1_4 C1_4 1_555 1_555
O2_4 C1_4 1_555 1_555
O3_4 Ni13_2 1_555 1_555
O4_4 C4_4 1_555 1_555
O9_4 C9_4 1_555 1_555
O10_4 Ni3_4 1_555 1_555
O31 C12_4 1_555 1_555
O13_4 Ni3_4 1_555 1_555
C1_4 C2_4 1_555 1_555
C2_4 H1_4 1_555 1_555
H2_4 C2_4 1_555 1_555
C3_4 C2_4 1_555 1_555
H3_4 C3_4 1_555 1_555
H4_4 C3_4 1_555 1_555
C4_4 O3_4 1_555 1_555
C9_4 O10_4 1_555 1_555
C10_4 C9_4 1_555 1_555
H9_4 C10_4 1_555 1_555
H10_4 C10_4 1_555 1_555
C11_4 C10_4 1_555 1_555
H11_4 C11_4 1_555 1_555
H12_4 C11_4 1_555 1_555
C12_4 C11_4 1_555 1_555
O15_4 C13_4 1_555 1_555
O16_4 C13_4 1_555 1_555
O17_4 C16_4 1_555 1_555
O18_4 Ni3_4 1_555 1_555
C13_4 C14_4 1_555 1_555
C14_4 H13_4 1_555 1_555
H14_4 C14_4 1_555 1_555
C15_4 C14_4 1_555 1_555
H15_4 C15_4 1_555 1_555
H16_4 C15_4 1_555 1_555
C16_4 O18_4 1_555 1_555
O19_4 C17_4 1_555 1_555
O20_4 Ni3_4 1_555 1_555
O39_2 C20_4 1_555 1_555
O43_2 C20_4 1_555 1_555
C17_4 O20_4 1_555 1_555
C18_4 C17_4 1_555 1_555
H17_4 C18_4 1_555 1_555
H18_4 C18_4 1_555 1_555
C19_4 C18_4 1_555 1_555
H19_4 C19_4 1_555 1_555
H20_4 C19_4 1_555 1_555
C20_4 C19_4 1_555 1_555
O23_4 Ni3_4 1_555 1_555
Ni17 O15_4 1_555 1_555
Ni18 O15_4 1_555 1_555
Ni7_4 O16_4 1_555 1_555
O28_4 Ni7_4 1_555 1_555
Ni8_4 O3_4 1_555 1_555
Ni9_2 O13_4 1_555 1_555
Ni15_4 O17_4 1_555 1_555
Ni16_4 O19_4 1_555 1_555
Ni19_4 O23_4 1_555 1_555
O36_4 Ni17 1_555 1_555
O37_4 Ni17 1_555 1_555
O38_4 Ni17 1_555 1_555
O40_4 Ni17 1_555 1_555
O41_4 Ni18 1_555 1_555
O42_4 Ni18 1_555 1_555
O44_4 Ni7_4 1_555 1_555
O45_4 Ni7_4 1_555 1_555
O9_4 Ni8_4 1_555 1_555
O13_4 Ni8_4 1_555 1_555
C3_4 C4_4 1_555 1_555
O17_4 Ni18 1_555 1_555
C15_4 C16_4 1_555 1_555
O19_4 Ni15_4 1_555 1_555
O39_2 Ni16_4 1_555 1_555
O23_4 Ni15_4 1_555 1_555
Ni18 O38_4 1_555 1_555
Ni7_4 O37_4 1_555 1_555
Ni7_4 O40_4 1_555 1_555
Ni15_4 O42_4 1_555 1_555
O28_4 H27_4 1_555 1_555
O28_4 H28_4 1_555 1_555
O35_2 C21_4 1_555 1_555
O25_4 C21_4 1_555 1_555
O26_4 C24_4 1_555 1_555
C21_4 C22_4 1_555 1_555
C22_4 H21_4 1_555 1_555
H22_4 C22_4 1_555 1_555
C23_4 C22_4 1_555 1_555
H23_4 C23_4 1_555 1_555
H24_4 C23_4 1_555 1_555
C24_4 O27_4 1_555 1_555
C23_4 C24_4 1_555 1_555
O6_4 C5_4 1_555 1_555
O8_4 C8_4 1_555 1_555
C5_4 O5_4 1_555 1_555
C6_4 C5_4 1_555 1_555
H5_4 C6_4 1_555 1_555
H6_4 C6_4 1_555 1_555
C7_4 C6_4 1_555 1_555
H7_4 C7_4 1_555 1_555
H8_4 C7_4 1_555 1_555
C8_4 O7_4 1_555 1_555
C7_4 C8_4 1_555 1_555
O14_4 Ni20 1_555 1_555
O29_4 Ni12_2 1_555 1_555
O29_4 Ni11_2 1_555 1_555
O14_4 H25_4 1_555 1_555
O14_4 H26_4 1_555 1_555
Ni2_3 O1_5 1_555 1_555
Ni3_5 O4_5 1_555 1_555
O1_5 C1_5 1_555 1_555
O2_5 C1_5 1_555 1_555
O3_5 Ni2_3 1_555 1_555
O4_5 C4_5 1_555 1_555
O9_5 C9_5 1_555 1_555
O10_5 Ni3_5 1_555 1_555
O31_2 C12_5 1_555 1_555
O13_5 Ni3_5 1_555 1_555
C1_5 C2_5 1_555 1_555
C2_5 H1_5 1_555 1_555
H2_5 C2_5 1_555 1_555
C3_5 C2_5 1_555 1_555
H3_5 C3_5 1_555 1_555
H4_5 C3_5 1_555 1_555
C4_5 O3_5 1_555 1_555
C9_5 O10_5 1_555 1_555
C10_5 C9_5 1_555 1_555
H9_5 C10_5 1_555 1_555
H10_5 C10_5 1_555 1_555
C11_5 C10_5 1_555 1_555
H11_5 C11_5 1_555 1_555
H12_5 C11_5 1_555 1_555
C12_5 C11_5 1_555 1_555
O15_5 C13_5 1_555 1_555
O16_5 C13_5 1_555 1_555
O17_5 C16_5 1_555 1_555
O18_5 Ni3_5 1_555 1_555
C13_5 C14_5 1_555 1_555
C14_5 H13_5 1_555 1_555
H14_5 C14_5 1_555 1_555
C15_5 C14_5 1_555 1_555
H15_5 C15_5 1_555 1_555
H16_5 C15_5 1_555 1_555
C16_5 O18_5 1_555 1_555
O19_5 C17_5 1_555 1_555
O20_5 Ni3_5 1_555 1_555
O21_3 C20_5 1_555 1_555
O22_3 C20_5 1_555 1_555
C17_5 O20_5 1_555 1_555
C18_5 C17_5 1_555 1_555
H17_5 C18_5 1_555 1_555
H18_5 C18_5 1_555 1_555
C19_5 C18_5 1_555 1_555
H19_5 C19_5 1_555 1_555
H20_5 C19_5 1_555 1_555
C20_5 C19_5 1_555 1_555
O23_5 Ni3_5 1_555 1_555
Ni17_2 O15_5 1_555 1_555
Ni18_2 O15_5 1_555 1_555
Ni7_5 O16_5 1_555 1_555
O24_3 C21_5 1_555 1_555
O25_5 C21_5 1_555 1_555
O26_5 C24_5 1_555 1_555
O27_5 Ni2_3 1_555 1_555
C21_5 C22_5 1_555 1_555
C22_5 H21_5 1_555 1_555
H22_5 C22_5 1_555 1_555
C23_5 C22_5 1_555 1_555
H23_5 C23_5 1_555 1_555
H24_5 C23_5 1_555 1_555
C24_5 O27_5 1_555 1_555
O28_5 Ni7_5 1_555 1_555
O33_5 Ni2_3 1_555 1_555
O34_3 Ni2_3 1_555 1_555
Ni8_5 O3_5 1_555 1_555
Ni10_2 O9_5 1_555 1_555
Ni14_3 O13_5 1_555 1_555
Ni15_5 O17_5 1_555 1_555
Ni16_5 O19_5 1_555 1_555
Ni17_3 O21_3 1_555 1_555
Ni18_3 O22_3 1_555 1_555
Ni19_5 O23_5 1_555 1_555
O36_5 Ni17_2 1_555 1_555
O37_5 Ni17_2 1_555 1_555
O38_5 Ni17_2 1_555 1_555
O40_5 Ni17_2 1_555 1_555
O41_5 Ni18_2 1_555 1_555
O42_5 Ni18_2 1_555 1_555
O44_5 Ni7_5 1_555 1_555
O45_5 Ni7_5 1_555 1_555
Ni20_3 O24_3 1_555 1_555
Ni2_3 O30_5 1_555 1_555
O9_5 Ni8_5 1_555 1_555
O13_5 Ni8_5 1_555 1_555
C3_5 C4_5 1_555 1_555
O17_5 Ni18_2 1_555 1_555
C15_5 C16_5 1_555 1_555
O19_5 Ni15_5 1_555 1_555
O21_3 Ni16_5 1_555 1_555
O23_5 Ni15_5 1_555 1_555
Ni18_2 O38_5 1_555 1_555
Ni7_5 O37_5 1_555 1_555
Ni7_5 O40_5 1_555 1_555
O24_3 Ni14_3 1_555 1_555
O26_5 Ni8_5 1_555 1_555
O26_5 Ni14_3 1_555 1_555
C23_5 C24_5 1_555 1_555
O33_5 Ni8_5 1_555 1_555
Ni15_5 O42_5 1_555 1_555
O28_5 H27_5 1_555 1_555
O28_5 H28_5 1_555 1_555
O5_5 Ni20_2 1_555 1_555
O6_5 C5_5 1_555 1_555
O7_5 Ni1_3 1_555 1_555
O8_5 C8_5 1_555 1_555
O14_5 Ni20_2 1_555 1_555
C5_5 O5_5 1_555 1_555
C6_5 C5_5 1_555 1_555
H5_5 C6_5 1_555 1_555
H6_5 C6_5 1_555 1_555
C7_5 C6_5 1_555 1_555
H7_5 C7_5 1_555 1_555
H8_5 C7_5 1_555 1_555
C8_5 O7_5 1_555 1_555
O29_5 Ni1_3 1_555 1_555
O31_3 Ni1_3 1_555 1_555
Ni10_3 O8_5 1_555 1_555
Ni20_2 O7_5 1_555 1_555
C7_5 C8_5 1_555 1_555
O29_5 Ni10_3 1_555 1_555
O31_3 Ni10_3 1_555 1_555
O14_5 H25_5 1_555 1_555
O14_5 H26_5 1_555 1_555
O9_6 C9_6 1_555 1_555
O31_3 C12_6 1_555 1_555
C9_6 O10_6 1_555 1_555
C10_6 C9_6 1_555 1_555
H9_6 C10_6 1_555 1_555
H10_6 C10_6 1_555 1_555
C11_6 C10_6 1_555 1_555
H11_6 C11_6 1_555 1_555
H12_6 C11_6 1_555 1_555
C12_6 C11_6 1_555 1_555
O19_6 C17_6 1_555 1_555
O39_3 C20_6 1_555 1_555
O43_3 C20_6 1_555 1_555
C17_6 O20_6 1_555 1_555
C18_6 C17_6 1_555 1_555
H17_6 C18_6 1_555 1_555
H18_6 C18_6 1_555 1_555
C19_6 C18_6 1_555 1_555
H19_6 C19_6 1_555 1_555
H20_6 C19_6 1_555 1_555
C20_6 C19_6 1_555 1_555
Ni10_3 O9_6 1_555 1_555
Ni15_6 O17_6 1_555 1_555
Ni16_6 O19_6 1_555 1_555
O36_6 Ni17_3 1_555 1_555
O37_6 Ni17_3 1_555 1_555
O38_6 Ni17_3 1_555 1_555
O42_6 Ni18_3 1_555 1_555
O17_6 Ni18_3 1_555 1_555
O19_6 Ni15_6 1_555 1_555
O39_3 Ni16_6 1_555 1_555
Ni18_3 O38_6 1_555 1_555
Ni15_6 O42_6 1_555 1_555
Ni12_3 O1_6 1_555 1_555
Ni13_3 O1_6 1_555 1_555
Ni3_6 O4_6 1_555 1_555
Ni20_3 O2_6 1_555 1_555
O1_6 C1_6 1_555 1_555
O2_6 C1_6 1_555 1_555
O3_6 Ni13_3 1_555 1_555
O4_6 C4_6 1_555 1_555
O5_6 Ni20_3 1_555 1_555
O6_6 C5_6 1_555 1_555
O7_6 Ni12_3 1_555 1_555
O8_6 C8_6 1_555 1_555
O14_6 Ni20_3 1_555 1_555
C1_6 C2_6 1_555 1_555
C2_6 H1_6 1_555 1_555
H2_6 C2_6 1_555 1_555
C3_6 C2_6 1_555 1_555
H3_6 C3_6 1_555 1_555
H4_6 C3_6 1_555 1_555
C4_6 O3_6 1_555 1_555
C5_6 O5_6 1_555 1_555
C6_6 C5_6 1_555 1_555
H5_6 C6_6 1_555 1_555
H6_6 C6_6 1_555 1_555
C7_6 C6_6 1_555 1_555
H7_6 C7_6 1_555 1_555
H8_6 C7_6 1_555 1_555
C8_6 O7_6 1_555 1_555
O15_6 C13_6 1_555 1_555
O16_6 C13_6 1_555 1_555
O18_6 Ni3_6 1_555 1_555
C13_6 C14_6 1_555 1_555
C14_6 H13_6 1_555 1_555
H14_6 C14_6 1_555 1_555
C15_6 C14_6 1_555 1_555
H15_6 C15_6 1_555 1_555
C16_6 O18_6 1_555 1_555
O23_6 Ni3_6 1_555 1_555
Ni7_6 O16_6 1_555 1_555
O35_3 C21_6 1_555 1_555
O25_6 C21_6 1_555 1_555
O26_6 C24_6 1_555 1_555
O27_6 Ni13_3 1_555 1_555
C21_6 C22_6 1_555 1_555
C22_6 H21_6 1_555 1_555
H22_6 C22_6 1_555 1_555
C23_6 C22_6 1_555 1_555
H23_6 C23_6 1_555 1_555
H24_6 C23_6 1_555 1_555
C24_6 O27_6 1_555 1_555
O28_6 Ni7_6 1_555 1_555
O29_6 Ni12_3 1_555 1_555
O30_6 Ni12_3 1_555 1_555
O32_6 Ni12_3 1_555 1_555
O33_6 Ni13_3 1_555 1_555
Ni8_6 O3_6 1_555 1_555
Ni14_3 O5_6 1_555 1_555
Ni11_3 O8_6 1_555 1_555
Ni19_6 O23_6 1_555 1_555
O44_6 Ni7_6 1_555 1_555
O45_6 Ni7_6 1_555 1_555
Ni13_3 O30_6 1_555 1_555
Ni20_3 O7_6 1_555 1_555
Ni20_3 O32_6 1_555 1_555
C3_6 C4_6 1_555 1_555
C7_6 C8_6 1_555 1_555
C15_6 C16_6 1_555 1_555
Ni7_6 O40_6 1_555 1_555
O26_6 Ni8_6 1_555 1_555
O26_6 Ni9_3 1_555 1_555
C23_6 C24_6 1_555 1_555
O29_6 Ni11_3 1_555 1_555
O33_6 Ni8_6 1_555 1_555
O14_6 H25_6 1_555 1_555
O14_6 H26_6 1_555 1_555
O28_6 H27_6 1_555 1_555
O28_6 H28_6 1_555 1_555
Ni4_4 O2_7 1_555 1_555
O5_7 Ni4_4 1_555 1_555
O6_7 C5_7 1_555 1_555
O8_7 C8_7 1_555 1_555
O14_7 Ni4_4 1_555 1_555
C5_7 O5_7 1_555 1_555
C6_7 C5_7 1_555 1_555
H5_7 C6_7 1_555 1_555
H6_7 C6_7 1_555 1_555
C7_7 C6_7 1_555 1_555
H7_7 C7_7 1_555 1_555
H8_7 C7_7 1_555 1_555
C8_7 O7_7 1_555 1_555
O35_4 Ni4_4 1_555 1_555
Ni9_4 O5_7 1_555 1_555
Ni4_4 O7_7 1_555 1_555
Ni4_4 O32_7 1_555 1_555
C7_7 C8_7 1_555 1_555
O35_4 Ni9_4 1_555 1_555
O14_7 H25_7 1_555 1_555
O14_7 H26_7 1_555 1_555
Ni1_4 O1_7 1_555 1_555
Ni2_4 O1_7 1_555 1_555
Ni3_7 O4_7 1_555 1_555
O1_7 C1_7 1_555 1_555
O3_7 Ni2_4 1_555 1_555
O4_7 C4_7 1_555 1_555
O9_7 C9_7 1_555 1_555
O10_7 Ni3_7 1_555 1_555
O11_4 C12_7 1_555 1_555
O12_4 C12_7 1_555 1_555
C1_7 C2_7 1_555 1_555
C2_7 H1_7 1_555 1_555
H2_7 C2_7 1_555 1_555
C3_7 C2_7 1_555 1_555
H3_7 C3_7 1_555 1_555
H4_7 C3_7 1_555 1_555
C4_7 O3_7 1_555 1_555
C9_7 O10_7 1_555 1_555
C10_7 C9_7 1_555 1_555
H9_7 C10_7 1_555 1_555
H10_7 C10_7 1_555 1_555
C11_7 C10_7 1_555 1_555
H11_7 C11_7 1_555 1_555
H12_7 C11_7 1_555 1_555
C12_7 C11_7 1_555 1_555
O23_7 Ni3_7 1_555 1_555
O26_7 C24_7 1_555 1_555
O27_7 Ni2_4 1_555 1_555
H23_7 C23_7 1_555 1_555
H24_7 C23_7 1_555 1_555
C24_7 O27_7 1_555 1_555
O29_7 Ni1_4 1_555 1_555
O30_7 Ni1_4 1_555 1_555
O31_4 Ni1_4 1_555 1_555
O33_7 Ni2_4 1_555 1_555
O34_4 Ni2_4 1_555 1_555
Ni8_7 O3_7 1_555 1_555
Ni11_4 O9_7 1_555 1_555
Ni12_4 O11_4 1_555 1_555
Ni13_4 O12_4 1_555 1_555
Ni19_7 O23_7 1_555 1_555
Ni2_4 O30_7 1_555 1_555
O9_7 Ni8_7 1_555 1_555
O11_4 Ni11_4 1_555 1_555
C3_7 C4_7 1_555 1_555
O26_7 Ni8_7 1_555 1_555
C23_7 C24_7 1_555 1_555
O29_7 Ni10_4 1_555 1_555
O31_4 Ni10_4 1_555 1_555
O33_7 Ni8_7 1_555 1_555
O13_7 Ni3_8 1_555 1_555
O15_7 C13_7 1_555 1_555
O16_7 C13_7 1_555 1_555
O17_7 C16_7 1_555 1_555
O18_7 Ni3_8 1_555 1_555
C13_7 C14_7 1_555 1_555
C14_7 H13_7 1_555 1_555
H14_7 C14_7 1_555 1_555
C15_7 C14_7 1_555 1_555
H15_7 C15_7 1_555 1_555
H16_7 C15_7 1_555 1_555
C16_7 O18_7 1_555 1_555
O19_7 C17_7 1_555 1_555
O20_7 Ni3_8 1_555 1_555
O21_4 C20_7 1_555 1_555
O22_4 C20_7 1_555 1_555
C17_7 O20_7 1_555 1_555
C18_7 C17_7 1_555 1_555
H17_7 C18_7 1_555 1_555
H18_7 C18_7 1_555 1_555
C19_7 C18_7 1_555 1_555
H19_7 C19_7 1_555 1_555
H20_7 C19_7 1_555 1_555
C20_7 C19_7 1_555 1_555
Ni5_4 O15_7 1_555 1_555
Ni6_4 O15_7 1_555 1_555
Ni7_7 O16_7 1_555 1_555
O24_4 C21_7 1_555 1_555
O25_7 C21_7 1_555 1_555
C21_7 C22_7 1_555 1_555
C22_7 H21_7 1_555 1_555
H22_7 C22_7 1_555 1_555
O28_7 Ni7_7 1_555 1_555
Ni14_4 O13_7 1_555 1_555
Ni15_7 O17_7 1_555 1_555
Ni16_7 O19_7 1_555 1_555
Ni17_4 O21_4 1_555 1_555
Ni18_4 O22_4 1_555 1_555
O36_7 Ni5_4 1_555 1_555
O37_7 Ni5_4 1_555 1_555
O38_7 Ni5_4 1_555 1_555
O39_4 Ni5_4 1_555 1_555
O40_7 Ni5_4 1_555 1_555
O41_7 Ni6_4 1_555 1_555
O42_7 Ni6_4 1_555 1_555
O43_4 Ni6_4 1_555 1_555
O44_7 Ni7_7 1_555 1_555
O45_7 Ni7_7 1_555 1_555
Ni20_4 O24_4 1_555 1_555
O17_7 Ni6_4 1_555 1_555
C15_7 C16_7 1_555 1_555
O19_7 Ni15_7 1_555 1_555
O21_4 Ni16_7 1_555 1_555
Ni6_4 O38_7 1_555 1_555
Ni7_7 O37_7 1_555 1_555
Ni7_7 O40_7 1_555 1_555
O24_4 Ni14_4 1_555 1_555
Ni15_7 O42_7 1_555 1_555
O28_7 H27_7 1_555 1_555
O28_7 H28_7 1_555 1_555
Ni12_4 O1_8 1_555 1_555
Ni13_4 O1_8 1_555 1_555
Ni3_9 O4_8 1_555 1_555
O1_8 C1_8 1_555 1_555
O3_8 Ni13_4 1_555 1_555
O4_8 C4_8 1_555 1_555
O9_8 C9_8 1_555 1_555
O10_8 Ni3_9 1_555 1_555
O11_5 C12_8 1_555 1_555
O12_5 C12_8 1_555 1_555
O13_8 Ni3_9 1_555 1_555
C1_8 C2_8 1_555 1_555
C2_8 H1_8 1_555 1_555
H2_8 C2_8 1_555 1_555
C3_8 C2_8 1_555 1_555
H3_8 C3_8 1_555 1_555
H4_8 C3_8 1_555 1_555
C4_8 O3_8 1_555 1_555
C9_8 O10_8 1_555 1_555
C10_8 C9_8 1_555 1_555
H9_8 C10_8 1_555 1_555
H10_8 C10_8 1_555 1_555
C11_8 C10_8 1_555 1_555
H11_8 C11_8 1_555 1_555
H12_8 C11_8 1_555 1_555
C12_8 C11_8 1_555 1_555
O15_8 C13_8 1_555 1_555
O17_8 C16_8 1_555 1_555
O18_8 Ni3_9 1_555 1_555
C13_8 C14_8 1_555 1_555
C14_8 H13_8 1_555 1_555
H14_8 C14_8 1_555 1_555
C15_8 C14_8 1_555 1_555
H15_8 C15_8 1_555 1_555
H16_8 C15_8 1_555 1_555
C16_8 O18_8 1_555 1_555
O19_8 C17_8 1_555 1_555
O20_8 Ni3_9 1_555 1_555
O39_4 C20_8 1_555 1_555
O43_4 C20_8 1_555 1_555
C17_8 O20_8 1_555 1_555
C18_8 C17_8 1_555 1_555
H17_8 C18_8 1_555 1_555
H18_8 C18_8 1_555 1_555
C19_8 C18_8 1_555 1_555
H19_8 C19_8 1_555 1_555
H20_8 C19_8 1_555 1_555
C20_8 C19_8 1_555 1_555
O23_8 Ni3_9 1_555 1_555
Ni5_5 O15_8 1_555 1_555
Ni6_5 O15_8 1_555 1_555
O35_4 C21_8 1_555 1_555
O25_8 C21_8 1_555 1_555
O26_8 C24_8 1_555 1_555
O27_8 Ni13_4 1_555 1_555
C21_8 C22_8 1_555 1_555
C22_8 H21_8 1_555 1_555
H22_8 C22_8 1_555 1_555
C23_8 C22_8 1_555 1_555
H23_8 C23_8 1_555 1_555
H24_8 C23_8 1_555 1_555
C24_8 O27_8 1_555 1_555
O29_8 Ni12_4 1_555 1_555
O30_8 Ni12_4 1_555 1_555
O33_8 Ni13_4 1_555 1_555
Ni8_8 O3_8 1_555 1_555
Ni11_5 O9_8 1_555 1_555
Ni12_5 O11_5 1_555 1_555
Ni13_5 O12_5 1_555 1_555
Ni9_4 O13_8 1_555 1_555
Ni15_8 O17_8 1_555 1_555
Ni16_8 O19_8 1_555 1_555
Ni19_8 O23_8 1_555 1_555
O36_8 Ni5_5 1_555 1_555
O38_8 Ni5_5 1_555 1_555
O39_5 Ni5_5 1_555 1_555
O41_8 Ni6_5 1_555 1_555
O42_8 Ni6_5 1_555 1_555
O43_5 Ni6_5 1_555 1_555
Ni13_4 O30_8 1_555 1_555
O9_8 Ni8_8 1_555 1_555
O11_5 Ni11_5 1_555 1_555
O13_8 Ni8_8 1_555 1_555
C3_8 C4_8 1_555 1_555
O17_8 Ni6_5 1_555 1_555
C15_8 C16_8 1_555 1_555
O19_8 Ni15_8 1_555 1_555
O39_4 Ni16_8 1_555 1_555
O23_8 Ni15_8 1_555 1_555
Ni6_5 O38_8 1_555 1_555
O26_8 Ni8_8 1_555 1_555
O26_8 Ni9_4 1_555 1_555
C23_8 C24_8 1_555 1_555
O29_8 Ni11_4 1_555 1_555
O33_8 Ni8_8 1_555 1_555
Ni15_8 O42_8 1_555 1_555
Ni7_8 O16_8 1_555 1_555
O28_8 Ni7_8 1_555 1_555
O44_8 Ni7_8 1_555 1_555
O45_8 Ni7_8 1_555 1_555
Ni7_8 O37_8 1_555 1_555
Ni7_8 O40_8 1_555 1_555
O28_8 H27_8 1_555 1_555
O28_8 H28_8 1_555 1_555
Ni4_5 O2_8 1_555 1_555
O5_8 Ni4_5 1_555 1_555
O6_8 C5_8 1_555 1_555
O8_8 C8_8 1_555 1_555
O14_8 Ni4_5 1_555 1_555
C5_8 O5_8 1_555 1_555
C6_8 C5_8 1_555 1_555
H5_8 C6_8 1_555 1_555
H6_8 C6_8 1_555 1_555
C7_8 C6_8 1_555 1_555
H7_8 C7_8 1_555 1_555
H8_8 C7_8 1_555 1_555
C8_8 O7_8 1_555 1_555
O35_5 Ni4_5 1_555 1_555
Ni9_5 O5_8 1_555 1_555
Ni4_5 O7_8 1_555 1_555
Ni4_5 O32_8 1_555 1_555
C7_8 C8_8 1_555 1_555
O35_5 Ni9_5 1_555 1_555
O14_8 H25_8 1_555 1_555
O14_8 H26_8 1_555 1_555
O6_9 C5_9 1_555 1_555
O8_9 C8_9 1_555 1_555
C5_9 O44_4 1_555 1_555
C6_9 C5_9 1_555 1_555
H5_9 C6_9 1_555 1_555
H6_9 C6_9 1_555 1_555
C7_9 C6_9 1_555 1_555
H7_9 C7_9 1_555 1_555
H8_9 C7_9 1_555 1_555
C8_9 O37_4 1_555 1_555
O45 C21_9 1_555 1_555
O25_9 C21_9 1_555 1_555
O26_9 C24_9 1_555 1_555
C21_9 C22_9 1_555 1_555
C22_9 H21_9 1_555 1_555
H22_9 C22_9 1_555 1_555
C23_9 C22_9 1_555 1_555
H23_9 C23_9 1_555 1_555
H24_9 C23_9 1_555 1_555
C24_9 O41_4 1_555 1_555
Ni19_2 O44_4 1_555 1_555
Ni16 O8_9 1_555 1_555
C7_9 C8_9 1_555 1_555
O45 Ni19_4 1_555 1_555
O26_9 Ni15_4 1_555 1_555
O26_9 Ni19_4 1_555 1_555
C23_9 C24_9 1_555 1_555
O36_4 Ni16 1_555 1_555
O45_4 Ni19_2 1_555 1_555
Ni7_9 O16_9 1_555 1_555
O28_9 Ni7_9 1_555 1_555
O44_9 Ni7_9 1_555 1_555
O45_9 Ni7_9 1_555 1_555
Ni7_9 O37_9 1_555 1_555
Ni7_9 O40_9 1_555 1_555
O28_9 H27_9 1_555 1_555
O28_9 H28_9 1_555 1_555
O13_9 Ni3_10 1_555 1_555
O15_9 C13_9 1_555 1_555
O17_9 C16_9 1_555 1_555
O18_9 Ni3_10 1_555 1_555
C13_9 C14_9 1_555 1_555
C14_9 H13_9 1_555 1_555
H14_9 C14_9 1_555 1_555
C15_9 C14_9 1_555 1_555
H15_9 C15_9 1_555 1_555
H16_9 C15_9 1_555 1_555
C16_9 O18_9 1_555 1_555
O19_9 C17_9 1_555 1_555
O20_9 Ni3_10 1_555 1_555
O39_5 C20_9 1_555 1_555
O43_5 C20_9 1_555 1_555
C17_9 O20_9 1_555 1_555
C18_9 C17_9 1_555 1_555
H17_9 C18_9 1_555 1_555
H18_9 C18_9 1_555 1_555
C19_9 C18_9 1_555 1_555
H19_9 C19_9 1_555 1_555
H20_9 C19_9 1_555 1_555
C20_9 C19_9 1_555 1_555
Ni17_4 O15_9 1_555 1_555
Ni18_4 O15_9 1_555 1_555
O35_5 C21_10 1_555 1_555
O25_10 C21_10 1_555 1_555
C21_10 C22_10 1_555 1_555
C22_10 H21_10 1_555 1_555
H22_10 C22_10 1_555 1_555
Ni9_5 O13_9 1_555 1_555
Ni15_9 O17_9 1_555 1_555
Ni16_9 O19_9 1_555 1_555
O36_9 Ni17_4 1_555 1_555
O38_9 Ni17_4 1_555 1_555
O41_9 Ni18_4 1_555 1_555
O42_9 Ni18_4 1_555 1_555
O17_9 Ni18_4 1_555 1_555
C15_9 C16_9 1_555 1_555
O19_9 Ni15_9 1_555 1_555
O39_5 Ni16_9 1_555 1_555
Ni18_4 O38_9 1_555 1_555
Ni15_9 O42_9 1_555 1_555
Ni12_5 O1_9 1_555 1_555
Ni13_5 O1_9 1_555 1_555
Ni3_11 O4_9 1_555 1_555
Ni20_4 O2_9 1_555 1_555
O1_9 C1_9 1_555 1_555
O2_9 C1_9 1_555 1_555
O3_9 Ni13_5 1_555 1_555
O4_9 C4_9 1_555 1_555
O5_9 Ni20_4 1_555 1_555
O6_10 C5_10 1_555 1_555
O7_9 Ni12_5 1_555 1_555
O8_10 C8_10 1_555 1_555
O9_9 C9_9 1_555 1_555
O10_9 Ni3_11 1_555 1_555
O31_4 C12_9 1_555 1_555
O34_4 C12_9 1_555 1_555
O14_9 Ni20_4 1_555 1_555
C1_9 C2_9 1_555 1_555
C2_9 H1_9 1_555 1_555
H2_9 C2_9 1_555 1_555
C3_9 C2_9 1_555 1_555
H3_9 C3_9 1_555 1_555
H4_9 C3_9 1_555 1_555
C4_9 O3_9 1_555 1_555
C5_10 O5_9 1_555 1_555
C6_10 C5_10 1_555 1_555
H5_10 C6_10 1_555 1_555
H6_10 C6_10 1_555 1_555
C7_10 C6_10 1_555 1_555
H7_10 C7_10 1_555 1_555
H8_10 C7_10 1_555 1_555
C8_10 O7_9 1_555 1_555
C9_9 O10_9 1_555 1_555
C10_9 C9_9 1_555 1_555
H9_9 C10_9 1_555 1_555
H10_9 C10_9 1_555 1_555
C11_9 C10_9 1_555 1_555
H11_9 C11_9 1_555 1_555
H12_9 C11_9 1_555 1_555
C12_9 C11_9 1_555 1_555
O23_9 Ni3_11 1_555 1_555
O26_10 C24_10 1_555 1_555
O27_9 Ni13_5 1_555 1_555
H23_10 C23_10 1_555 1_555
H24_10 C23_10 1_555 1_555
C24_10 O27_9 1_555 1_555
O29_9 Ni12_5 1_555 1_555
O30_9 Ni12_5 1_555 1_555
O32_9 Ni12_5 1_555 1_555
O33_9 Ni13_5 1_555 1_555
Ni8_9 O3_9 1_555 1_555
Ni14_4 O5_9 1_555 1_555
Ni11_5 O8_10 1_555 1_555
Ni10_4 O9_9 1_555 1_555
Ni19_9 O23_9 1_555 1_555
Ni13_5 O30_9 1_555 1_555
Ni20_4 O7_9 1_555 1_555
Ni20_4 O32_9 1_555 1_555
O9_9 Ni8_9 1_555 1_555
C3_9 C4_9 1_555 1_555
C7_10 C8_10 1_555 1_555
O26_10 Ni8_9 1_555 1_555
C23_10 C24_10 1_555 1_555
O29_9 Ni11_5 1_555 1_555
O33_9 Ni8_9 1_555 1_555
O14_9 H25_9 1_555 1_555
O14_9 H26_9 1_555 1_555
O6_11 C5_11 1_555 1_555
C5_11 O44 1_555 1_555
C6_11 C5_11 1_555 1_555
H5_11 C6_11 1_555 1_555
H6_11 C6_11 1_555 1_555
O45_2 C21_11 1_555 1_555
O25_11 C21_11 1_555 1_555
O26_11 C24_11 1_555 1_555
C21_11 C22_11 1_555 1_555
C22_11 H21_11 1_555 1_555
H22_11 C22_11 1_555 1_555
C23_11 C22_11 1_555 1_555
H23_11 C23_11 1_555 1_555
H24_11 C23_11 1_555 1_555
C24_11 O41 1_555 1_555
Ni19_4 O44 1_555 1_555
O45_2 Ni19 1_555 1_555
O26_11 Ni19 1_555 1_555
C23_11 C24_11 1_555 1_555
O8_11 C8_11 1_555 1_555
H7_11 C7_11 1_555 1_555
H8_11 C7_11 1_555 1_555
C8_11 O37 1_555 1_555
Ni16_2 O8_11 1_555 1_555
C7_11 C8_11 1_555 1_555
O36 Ni16_2 1_555 1_555
O8_12 C8_12 1_555 1_555
H7_12 C7_12 1_555 1_555
H8_12 C7_12 1_555 1_555
C8_12 O37_2 1_555 1_555
Ni16_4 O8_12 1_555 1_555
C7_12 C8_12 1_555 1_555
O36_2 Ni16_4 1_555 1_555
O6_12 C5_12 1_555 1_555
C5_12 O44_2 1_555 1_555
C6_12 C5_12 1_555 1_555
H5_12 C6_12 1_555 1_555
H6_12 C6_12 1_555 1_555
O45_4 C21_12 1_555 1_555
O25_12 C21_12 1_555 1_555
O26_12 C24_12 1_555 1_555
C21_12 C22_12 1_555 1_555
C22_12 H21_12 1_555 1_555
H22_12 C22_12 1_555 1_555
C23_12 C22_12 1_555 1_555
H23_12 C23_12 1_555 1_555
H24_12 C23_12 1_555 1_555
C24_12 O41_2 1_555 1_555
Ni19 O44_2 1_555 1_555
O26_12 Ni19_2 1_555 1_555
C23_12 C24_12 1_555 1_555
O6_13 C5_13 1_555 1_555
O8_13 C8_13 1_555 1_555
C5_13 O44_5 1_555 1_555
C6_13 C5_13 1_555 1_555
H5_13 C6_13 1_555 1_555
H6_13 C6_13 1_555 1_555
C7_13 C6_13 1_555 1_555
H7_13 C7_13 1_555 1_555
H8_13 C7_13 1_555 1_555
C8_13 O37_5 1_555 1_555
O45_3 C21_13 1_555 1_555
O25_13 C21_13 1_555 1_555
O26_13 C24_13 1_555 1_555
C21_13 C22_13 1_555 1_555
C22_13 H21_13 1_555 1_555
H22_13 C22_13 1_555 1_555
C23_13 C22_13 1_555 1_555
H23_13 C23_13 1_555 1_555
H24_13 C23_13 1_555 1_555
C24_13 O41_5 1_555 1_555
Ni19_6 O44_5 1_555 1_555
Ni16_3 O8_13 1_555 1_555
C7_13 C8_13 1_555 1_555
O45_3 Ni19_5 1_555 1_555
O26_13 Ni15_5 1_555 1_555
O26_13 Ni19_5 1_555 1_555
C23_13 C24_13 1_555 1_555
O36_5 Ni16_3 1_555 1_555
O45_5 Ni19_6 1_555 1_555
O8_14 C8_14 1_555 1_555
H7_14 C7_14 1_555 1_555
H8_14 C7_14 1_555 1_555
C8_14 O37_6 1_555 1_555
Ni16_5 O8_14 1_555 1_555
C7_14 C8_14 1_555 1_555
O36_6 Ni16_5 1_555 1_555
O6_14 C5_14 1_555 1_555
C5_14 O44_6 1_555 1_555
C6_14 C5_14 1_555 1_555
H5_14 C6_14 1_555 1_555
H6_14 C6_14 1_555 1_555
O45_5 C21_14 1_555 1_555
O25_14 C21_14 1_555 1_555
O26_14 C24_14 1_555 1_555
C21_14 C22_14 1_555 1_555
C22_14 H21_14 1_555 1_555
H22_14 C22_14 1_555 1_555
C23_14 C22_14 1_555 1_555
H23_14 C23_14 1_555 1_555
H24_14 C23_14 1_555 1_555
C24_14 O41_6 1_555 1_555
Ni19_3 O44_6 1_555 1_555
O26_14 Ni19_6 1_555 1_555
C23_14 C24_14 1_555 1_555
O45_6 Ni19_3 1_555 1_555
O6_15 C5_15 1_555 1_555
O8_15 C8_15 1_555 1_555
C5_15 O44_9 1_555 1_555
C6_15 C5_15 1_555 1_555
H5_15 C6_15 1_555 1_555
H6_15 C6_15 1_555 1_555
C7_15 C6_15 1_555 1_555
H7_15 C7_15 1_555 1_555
H8_15 C7_15 1_555 1_555
C8_15 O37_9 1_555 1_555
Ni19_8 O44_9 1_555 1_555
C7_15 C8_15 1_555 1_555
O45_9 Ni19_8 1_555 1_555
O26_15 C24_15 1_555 1_555
H23_15 C23_15 1_555 1_555
H24_15 C23_15 1_555 1_555
C24_15 O41_9 1_555 1_555
O26_15 Ni15_9 1_555 1_555
C23_15 C24_15 1_555 1_555
O36_9 Ni16_7 1_555 1_555
O45_7 C21_15 1_555 1_555
O25_15 C21_15 1_555 1_555
C21_15 C22_15 1_555 1_555
C22_15 H21_15 1_555 1_555
H22_15 C22_15 1_555 1_555
O45_7 Ni19_9 1_555 1_555
O6_16 C5_16 1_555 1_555
C5_16 O44_3 1_555 1_555
C6_16 C5_16 1_555 1_555
H5_16 C6_16 1_555 1_555
H6_16 C6_16 1_555 1_555
O45_6 C21_16 1_555 1_555
O25_16 C21_16 1_555 1_555
O26_16 C24_16 1_555 1_555
C21_16 C22_16 1_555 1_555
C22_16 H21_16 1_555 1_555
H22_16 C22_16 1_555 1_555
C23_16 C22_16 1_555 1_555
H23_16 C23_16 1_555 1_555
H24_16 C23_16 1_555 1_555
C24_16 O41_3 1_555 1_555
Ni19_5 O44_3 1_555 1_555
O26_16 Ni19_3 1_555 1_555
C23_16 C24_16 1_555 1_555
O8_16 C8_16 1_555 1_555
H7_16 C7_16 1_555 1_555
H8_16 C7_16 1_555 1_555
C8_16 O37_3 1_555 1_555
Ni16_6 O8_16 1_555 1_555
C7_16 C8_16 1_555 1_555
O36_3 Ni16_6 1_555 1_555
O45_8 C21_17 1_555 1_555
O25_17 C21_17 1_555 1_555
C21_17 C22_17 1_555 1_555
C22_17 H21_17 1_555 1_555
H22_17 C22_17 1_555 1_555
O45_8 Ni19_7 1_555 1_555
O6_17 C5_17 1_555 1_555
O8_17 C8_17 1_555 1_555
C5_17 O44_7 1_555 1_555
C6_17 C5_17 1_555 1_555
H5_17 C6_17 1_555 1_555
H6_17 C6_17 1_555 1_555
C7_17 C6_17 1_555 1_555
H7_17 C7_17 1_555 1_555
H8_17 C7_17 1_555 1_555
C8_17 O37_7 1_555 1_555
O26_17 C24_17 1_555 1_555
H23_17 C23_17 1_555 1_555
H24_17 C23_17 1_555 1_555
C24_17 O41_7 1_555 1_555
Ni19_9 O44_7 1_555 1_555
Ni16_8 O8_17 1_555 1_555
C7_17 C8_17 1_555 1_555
O26_17 Ni15_7 1_555 1_555
C23_17 C24_17 1_555 1_555
O36_7 Ni16_8 1_555 1_555
O45_9 C21_18 1_555 1_555
O25_18 C21_18 1_555 1_555
O26_18 C24_18 1_555 1_555
C21_18 C22_18 1_555 1_555
C22_18 H21_18 1_555 1_555
H22_18 C22_18 1_555 1_555
C23_18 C22_18 1_555 1_555
H23_18 C23_18 1_555 1_555
H24_18 C23_18 1_555 1_555
C24_18 O41_8 1_555 1_555
O26_18 Ni15_8 1_555 1_555
O26_18 Ni19_8 1_555 1_555
C23_18 C24_18 1_555 1_555
O36_8 Ni16_9 1_555 1_555
O6_18 C5_18 1_555 1_555
O8_18 C8_18 1_555 1_555
C5_18 O44_8 1_555 1_555
C6_18 C5_18 1_555 1_555
H5_18 C6_18 1_555 1_555
H6_18 C6_18 1_555 1_555
C7_18 C6_18 1_555 1_555
H7_18 C7_18 1_555 1_555
H8_18 C7_18 1_555 1_555
C8_18 O37_8 1_555 1_555
Ni19_7 O44_8 1_555 1_555
C7_18 C8_18 1_555 1_555
O30_4 C9_10 1_555 1_555
O33_4 C12_10 1_555 1_555
O12_6 C12_10 1_555 1_555
C9_10 O10_10 1_555 1_555
C10_10 C9_10 1_555 1_555
H9_10 C10_10 1_555 1_555
H10_10 C10_10 1_555 1_555
C11_10 C10_10 1_555 1_555
H11_10 C11_10 1_555 1_555
H12_10 C11_10 1_555 1_555
C12_10 C11_10 1_555 1_555
O38_8 C17_10 1_555 1_555
O42_8 C20_10 1_555 1_555
O22_5 C20_10 1_555 1_555
C17_10 O20_10 1_555 1_555
C18_10 C17_10 1_555 1_555
H17_10 C18_10 1_555 1_555
H18_10 C18_10 1_555 1_555
C19_10 C18_10 1_555 1_555
H19_10 C19_10 1_555 1_555
H20_10 C19_10 1_555 1_555
C20_10 C19_10 1_555 1_555
Ni10 O12_6 1_555 1_555
Ni16_8 O22_5 1_555 1_555
O43_6 Ni16_9 1_555 1_555
Ni11_2 O1_10 1_555 1_555
Ni3_12 O4_10 1_555 1_555
O1_10 C1_10 1_555 1_555
O2_10 C1_10 1_555 1_555
O4_10 C4_10 1_555 1_555
C1_10 C2_10 1_555 1_555
C2_10 H1_10 1_555 1_555
H2_10 C2_10 1_555 1_555
C3_10 C2_10 1_555 1_555
H3_10 C3_10 1_555 1_555
H4_10 C3_10 1_555 1_555
C4_10 O29_4 1_555 1_555
O15_10 C13_10 1_555 1_555
O16_10 C13_10 1_555 1_555
O18_10 Ni3_12 1_555 1_555
C13_10 C14_10 1_555 1_555
C14_10 H13_10 1_555 1_555
H14_10 C14_10 1_555 1_555
C15_10 C14_10 1_555 1_555
H15_10 C15_10 1_555 1_555
C16_10 O18_10 1_555 1_555
O40_8 Ni3_12 1_555 1_555
Ni19_9 O16_10 1_555 1_555
O28_10 Ni19_9 1_555 1_555
O34_5 Ni11_2 1_555 1_555
C3_10 C4_10 1_555 1_555
C15_10 C16_10 1_555 1_555
O28_10 H27_10 1_555 1_555
O28_10 H28_10 1_555 1_555
O14_10 Ni9 1_555 1_555
O14_10 H25_10 1_555 1_555
O14_10 H26_10 1_555 1_555
O14_11 Ni9_2 1_555 1_555
O14_11 H25_11 1_555 1_555
O14_11 H26_11 1_555 1_555
Ni10 O1_11 1_555 1_555
Ni3_13 O4_11 1_555 1_555
O1_11 C1_11 1_555 1_555
O2_11 C1_11 1_555 1_555
O4_11 C4_11 1_555 1_555
C1_11 C2_11 1_555 1_555
C2_11 H1_11 1_555 1_555
H2_11 C2_11 1_555 1_555
C3_11 C2_11 1_555 1_555
H3_11 C3_11 1_555 1_555
H4_11 C3_11 1_555 1_555
C4_11 O29 1_555 1_555
O15_11 C13_11 1_555 1_555
O16_11 C13_11 1_555 1_555
O18_11 Ni3_13 1_555 1_555
C13_11 C14_11 1_555 1_555
C14_11 H13_11 1_555 1_555
H14_11 C14_11 1_555 1_555
C15_11 C14_11 1_555 1_555
H15_11 C15_11 1_555 1_555
C16_11 O18_11 1_555 1_555
O40_9 Ni3_13 1_555 1_555
Ni19_7 O16_11 1_555 1_555
O28_11 Ni19_7 1_555 1_555
C3_11 C4_11 1_555 1_555
C15_11 C16_11 1_555 1_555
O28_11 H27_11 1_555 1_555
O28_11 H28_11 1_555 1_555
O30 C9_11 1_555 1_555
O33 C12_11 1_555 1_555
C9_11 O10_11 1_555 1_555
C10_11 C9_11 1_555 1_555
H9_11 C10_11 1_555 1_555
H10_11 C10_11 1_555 1_555
C11_11 C10_11 1_555 1_555
H11_11 C11_11 1_555 1_555
H12_11 C11_11 1_555 1_555
C12_11 C11_11 1_555 1_555
O38_9 C17_11 1_555 1_555
O42_9 C20_11 1_555 1_555
O43_6 C20_11 1_555 1_555
C17_11 O20_11 1_555 1_555
C18_11 C17_11 1_555 1_555
H17_11 C18_11 1_555 1_555
H18_11 C18_11 1_555 1_555
C19_11 C18_11 1_555 1_555
H19_11 C19_11 1_555 1_555
H20_11 C19_11 1_555 1_555
C20_11 C19_11 1_555 1_555
O43_7 Ni16_7 1_555 1_555
Ni11 O12_7 1_555 1_555
O30_5 C9_12 1_555 1_555
O33_5 C12_12 1_555 1_555
O12_8 C12_12 1_555 1_555
C9_12 O10_12 1_555 1_555
C10_12 C9_12 1_555 1_555
H9_12 C10_12 1_555 1_555
H10_12 C10_12 1_555 1_555
C11_12 C10_12 1_555 1_555
H11_12 C11_12 1_555 1_555
H12_12 C11_12 1_555 1_555
C12_12 C11_12 1_555 1_555
O30_8 C17_12 1_555 1_555
O33_8 C20_12 1_555 1_555
O22_6 C20_12 1_555 1_555
C17_12 O20_12 1_555 1_555
C18_12 C17_12 1_555 1_555
H17_12 C18_12 1_555 1_555
H18_12 C18_12 1_555 1_555
C19_12 C18_12 1_555 1_555
H19_12 C19_12 1_555 1_555
H20_12 C19_12 1_555 1_555
C20_12 C19_12 1_555 1_555
Ni10_2 O12_8 1_555 1_555
Ni11_5 O22_6 1_555 1_555
O43_8 Ni11_4 1_555 1_555
Ni10_3 O1_12 1_555 1_555
Ni3_14 O4_12 1_555 1_555
O1_12 C1_12 1_555 1_555
O2_12 C1_12 1_555 1_555
O4_12 C4_12 1_555 1_555
C1_12 C2_12 1_555 1_555
C2_12 H1_12 1_555 1_555
H2_12 C2_12 1_555 1_555
C3_12 C2_12 1_555 1_555
H3_12 C3_12 1_555 1_555
H4_12 C3_12 1_555 1_555
C4_12 O29_5 1_555 1_555
O15_12 C13_12 1_555 1_555
O16_12 C13_12 1_555 1_555
O18_12 Ni3_14 1_555 1_555
C13_12 C14_12 1_555 1_555
C14_12 H13_12 1_555 1_555
H14_12 C14_12 1_555 1_555
C15_12 C14_12 1_555 1_555
H15_12 C15_12 1_555 1_555
C16_12 O18_12 1_555 1_555
O32_8 Ni3_14 1_555 1_555
Ni14_4 O16_12 1_555 1_555
O28_12 Ni14_4 1_555 1_555
O34_6 Ni10_3 1_555 1_555
C3_12 C4_12 1_555 1_555
C15_12 C16_12 1_555 1_555
O28_12 H27_12 1_555 1_555
O28_12 H28_12 1_555 1_555
O14_12 Ni9_3 1_555 1_555
O14_12 H25_12 1_555 1_555
O14_12 H26_12 1_555 1_555
O14_13 Ni14 1_555 1_555
O14_13 H25_13 1_555 1_555
O14_13 H26_13 1_555 1_555
Ni11 O1_13 1_555 1_555
Ni3_15 O4_13 1_555 1_555
O1_13 C1_13 1_555 1_555
O2_13 C1_13 1_555 1_555
O4_13 C4_13 1_555 1_555
O30_2 C9_13 1_555 1_555
O10_13 Ni3_15 1_555 1_555
O33_2 C12_13 1_555 1_555
O32_2 Ni3_15 1_555 1_555
C1_13 C2_13 1_555 1_555
C2_13 H1_13 1_555 1_555
H2_13 C2_13 1_555 1_555
C3_13 C2_13 1_555 1_555
H3_13 C3_13 1_555 1_555
H4_13 C3_13 1_555 1_555
C4_13 O29_2 1_555 1_555
C9_13 O10_13 1_555 1_555
C10_13 C9_13 1_555 1_555
H9_13 C10_13 1_555 1_555
H10_13 C10_13 1_555 1_555
C11_13 C10_13 1_555 1_555
H11_13 C11_13 1_555 1_555
H12_13 C11_13 1_555 1_555
C12_13 C11_13 1_555 1_555
O15_13 C13_13 1_555 1_555
O16_13 C13_13 1_555 1_555
O36_7 C16_13 1_555 1_555
O18_13 Ni3_15 1_555 1_555
C13_13 C14_13 1_555 1_555
C14_13 H13_13 1_555 1_555
H14_13 C14_13 1_555 1_555
C15_13 C14_13 1_555 1_555
H15_13 C15_13 1_555 1_555
H16_13 C15_13 1_555 1_555
C16_13 O18_13 1_555 1_555
O38_7 C17_13 1_555 1_555
O20_13 Ni3_15 1_555 1_555
O42_7 C20_13 1_555 1_555
O43_7 C20_13 1_555 1_555
C17_13 O20_13 1_555 1_555
C18_13 C17_13 1_555 1_555
H17_13 C18_13 1_555 1_555
H18_13 C18_13 1_555 1_555
C19_13 C18_13 1_555 1_555
H19_13 C19_13 1_555 1_555
H20_13 C19_13 1_555 1_555
C20_13 C19_13 1_555 1_555
O40_7 Ni3_15 1_555 1_555
Ni15_8 O15_13 1_555 1_555
Ni16_8 O15_13 1_555 1_555
Ni19_8 O16_13 1_555 1_555
O28_13 Ni19_8 1_555 1_555
C3_13 C4_13 1_555 1_555
C15_13 C16_13 1_555 1_555
O28_13 H27_13 1_555 1_555
O28_13 H28_13 1_555 1_555
O14_14 Ni14_2 1_555 1_555
O14_14 H25_14 1_555 1_555
O14_14 H26_14 1_555 1_555
Ni11_3 O1_14 1_555 1_555
Ni3_16 O4_14 1_555 1_555
O1_14 C1_14 1_555 1_555
O2_14 C1_14 1_555 1_555
O4_14 C4_14 1_555 1_555
O30_6 C9_14 1_555 1_555
O10_14 Ni3_16 1_555 1_555
O33_6 C12_14 1_555 1_555
O32_6 Ni3_16 1_555 1_555
C1_14 C2_14 1_555 1_555
C2_14 H1_14 1_555 1_555
H2_14 C2_14 1_555 1_555
C3_14 C2_14 1_555 1_555
H3_14 C3_14 1_555 1_555
H4_14 C3_14 1_555 1_555
C4_14 O29_6 1_555 1_555
C9_14 O10_14 1_555 1_555
C10_14 C9_14 1_555 1_555
H9_14 C10_14 1_555 1_555
H10_14 C10_14 1_555 1_555
C11_14 C10_14 1_555 1_555
H11_14 C11_14 1_555 1_555
H12_14 C11_14 1_555 1_555
C12_14 C11_14 1_555 1_555
O15_14 C13_14 1_555 1_555
O16_14 C13_14 1_555 1_555
O29_9 C16_14 1_555 1_555
O18_14 Ni3_16 1_555 1_555
C13_14 C14_14 1_555 1_555
C14_14 H13_14 1_555 1_555
H14_14 C14_14 1_555 1_555
C15_14 C14_14 1_555 1_555
H15_14 C15_14 1_555 1_555
H16_14 C15_14 1_555 1_555
C16_14 O18_14 1_555 1_555
O30_9 C17_14 1_555 1_555
O20_14 Ni3_16 1_555 1_555
O33_9 C20_14 1_555 1_555
O22_7 C20_14 1_555 1_555
C17_14 O20_14 1_555 1_555
C18_14 C17_14 1_555 1_555
H17_14 C18_14 1_555 1_555
H18_14 C18_14 1_555 1_555
C19_14 C18_14 1_555 1_555
H19_14 C19_14 1_555 1_555
H20_14 C19_14 1_555 1_555
C20_14 C19_14 1_555 1_555
O32_9 Ni3_16 1_555 1_555
Ni8_8 O15_14 1_555 1_555
Ni11_5 O15_14 1_555 1_555
Ni9_4 O16_14 1_555 1_555
O28_14 Ni9_4 1_555 1_555
O34_7 Ni11_3 1_555 1_555
Ni10_4 O22_7 1_555 1_555
C3_14 C4_14 1_555 1_555
C15_14 C16_14 1_555 1_555
O28_14 H27_14 1_555 1_555
O28_14 H28_14 1_555 1_555
Ni8_5 O1_15 1_555 1_555
Ni10_2 O1_15 1_555 1_555
Ni3_17 O4_15 1_555 1_555
Ni14_3 O2_15 1_555 1_555
O1_15 C1_15 1_555 1_555
O2_15 C1_15 1_555 1_555
O4_15 C4_15 1_555 1_555
O14_15 Ni14_3 1_555 1_555
C1_15 C2_15 1_555 1_555
C2_15 H1_15 1_555 1_555
H2_15 C2_15 1_555 1_555
C3_15 C2_15 1_555 1_555
H3_15 C3_15 1_555 1_555
H4_15 C3_15 1_555 1_555
C4_15 O29_3 1_555 1_555
O15_15 C13_15 1_555 1_555
O16_15 C13_15 1_555 1_555
O18_15 Ni3_17 1_555 1_555
C13_15 C14_15 1_555 1_555
C14_15 H13_15 1_555 1_555
H14_15 C14_15 1_555 1_555
C15_15 C14_15 1_555 1_555
H15_15 C15_15 1_555 1_555
C16_15 O18_15 1_555 1_555
O32_7 Ni3_17 1_555 1_555
Ni9_5 O16_15 1_555 1_555
O28_15 Ni9_5 1_555 1_555
C3_15 C4_15 1_555 1_555
C15_15 C16_15 1_555 1_555
O14_15 H25_15 1_555 1_555
O14_15 H26_15 1_555 1_555
O28_15 H27_15 1_555 1_555
O28_15 H28_15 1_555 1_555
O30_3 C9_15 1_555 1_555
O33_3 C12_15 1_555 1_555
C9_15 O10_15 1_555 1_555
C10_15 C9_15 1_555 1_555
H9_15 C10_15 1_555 1_555
H10_15 C10_15 1_555 1_555
C11_15 C10_15 1_555 1_555
H11_15 C11_15 1_555 1_555
H12_15 C11_15 1_555 1_555
C12_15 C11_15 1_555 1_555
O30_7 C17_15 1_555 1_555
O33_7 C20_15 1_555 1_555
O43_8 C20_15 1_555 1_555
C17_15 O20_15 1_555 1_555
C18_15 C17_15 1_555 1_555
H17_15 C18_15 1_555 1_555
H18_15 C18_15 1_555 1_555
C19_15 C18_15 1_555 1_555
H19_15 C19_15 1_555 1_555
H20_15 C19_15 1_555 1_555
C20_15 C19_15 1_555 1_555
O40_3 Ni3_18 1_555 1_555
O15_16 C13_16 1_555 1_555
O16_16 C13_16 1_555 1_555
O36_2 C16_16 1_555 1_555
O18_16 Ni3_18 1_555 1_555
C13_16 C14_16 1_555 1_555
C14_16 H13_16 1_555 1_555
H14_16 C14_16 1_555 1_555
C15_16 C14_16 1_555 1_555
H15_16 C15_16 1_555 1_555
H16_16 C15_16 1_555 1_555
C16_16 O18_16 1_555 1_555
O38_2 C17_16 1_555 1_555
O20_16 Ni3_18 1_555 1_555
O42_2 C20_16 1_555 1_555
O22_8 C20_16 1_555 1_555
C17_16 O20_16 1_555 1_555
C18_16 C17_16 1_555 1_555
H17_16 C18_16 1_555 1_555
H18_16 C18_16 1_555 1_555
C19_16 C18_16 1_555 1_555
H19_16 C19_16 1_555 1_555
H20_16 C19_16 1_555 1_555
C20_16 C19_16 1_555 1_555
Ni15_4 O15_16 1_555 1_555
Ni16_4 O15_16 1_555 1_555
Ni19_4 O16_16 1_555 1_555
O28_16 Ni19_4 1_555 1_555
Ni16_2 O22_8 1_555 1_555
O43_9 Ni16_4 1_555 1_555
C15_16 C16_16 1_555 1_555
O28_16 H27_16 1_555 1_555
O28_16 H28_16 1_555 1_555
Ni15_6 O1_16 1_555 1_555
Ni16_6 O1_16 1_555 1_555
Ni3_19 O4_16 1_555 1_555
O1_16 C1_16 1_555 1_555
O4_16 C4_16 1_555 1_555
O38_3 C9_16 1_555 1_555
O10_16 Ni3_19 1_555 1_555
O42_3 C12_16 1_555 1_555
O12_9 C12_16 1_555 1_555
C1_16 C2_16 1_555 1_555
C2_16 H1_16 1_555 1_555
H2_16 C2_16 1_555 1_555
C3_16 C2_16 1_555 1_555
H3_16 C3_16 1_555 1_555
H4_16 C3_16 1_555 1_555
C4_16 O36_3 1_555 1_555
C9_16 O10_16 1_555 1_555
C10_16 C9_16 1_555 1_555
H9_16 C10_16 1_555 1_555
H10_16 C10_16 1_555 1_555
C11_16 C10_16 1_555 1_555
H11_16 C11_16 1_555 1_555
H12_16 C11_16 1_555 1_555
C12_16 C11_16 1_555 1_555
O40_2 Ni3_19 1_555 1_555
O34_8 Ni16_6 1_555 1_555
Ni16_3 O12_9 1_555 1_555
C3_16 C4_16 1_555 1_555
Ni19_6 O2_16 1_555 1_555
O14_16 Ni19_6 1_555 1_555
O14_16 H25_16 1_555 1_555
O14_16 H26_16 1_555 1_555
Ni19_3 O2_17 1_555 1_555
O14_17 Ni19_3 1_555 1_555
O14_17 H25_17 1_555 1_555
O14_17 H26_17 1_555 1_555
Ni19 O16_17 1_555 1_555
O28_17 Ni19 1_555 1_555
O28_17 H27_17 1_555 1_555
O28_17 H28_17 1_555 1_555
Ni15_3 O1_17 1_555 1_555
Ni16_3 O1_17 1_555 1_555
Ni3_20 O4_17 1_555 1_555
O1_17 C1_17 1_555 1_555
O4_17 C4_17 1_555 1_555
O38_5 C9_17 1_555 1_555
O10_17 Ni3_20 1_555 1_555
O42_5 C12_17 1_555 1_555
O12_10 C12_17 1_555 1_555
O40_5 Ni3_20 1_555 1_555
C1_17 C2_17 1_555 1_555
C2_17 H1_17 1_555 1_555
H2_17 C2_17 1_555 1_555
C3_17 C2_17 1_555 1_555
H3_17 C3_17 1_555 1_555
H4_17 C3_17 1_555 1_555
C4_17 O36_5 1_555 1_555
C9_17 O10_17 1_555 1_555
C10_17 C9_17 1_555 1_555
H9_17 C10_17 1_555 1_555
H10_17 C10_17 1_555 1_555
C11_17 C10_17 1_555 1_555
H11_17 C11_17 1_555 1_555
H12_17 C11_17 1_555 1_555
C12_17 C11_17 1_555 1_555
O15_17 C13_17 1_555 1_555
O36_4 C16_17 1_555 1_555
O18_17 Ni3_20 1_555 1_555
C13_17 C14_17 1_555 1_555
C14_17 H13_17 1_555 1_555
H14_17 C14_17 1_555 1_555
C15_17 C14_17 1_555 1_555
H15_17 C15_17 1_555 1_555
H16_17 C15_17 1_555 1_555
C16_17 O18_17 1_555 1_555
O38_4 C17_17 1_555 1_555
O20_17 Ni3_20 1_555 1_555
O42_4 C20_17 1_555 1_555
O43_9 C20_17 1_555 1_555
C17_17 O20_17 1_555 1_555
C18_17 C17_17 1_555 1_555
H17_17 C18_17 1_555 1_555
H18_17 C18_17 1_555 1_555
C19_17 C18_17 1_555 1_555
H19_17 C19_17 1_555 1_555
H20_17 C19_17 1_555 1_555
C20_17 C19_17 1_555 1_555
O40_4 Ni3_20 1_555 1_555
Ni15 O15_17 1_555 1_555
Ni16 O15_17 1_555 1_555
Ni16_5 O12_10 1_555 1_555
O43_10 Ni16 1_555 1_555
C3_17 C4_17 1_555 1_555
C15_17 C16_17 1_555 1_555
Ni15_5 O1_18 1_555 1_555
Ni16_5 O1_18 1_555 1_555
Ni3_21 O4_18 1_555 1_555
Ni19_5 O2_18 1_555 1_555
O1_18 C1_18 1_555 1_555
O2_18 C1_18 1_555 1_555
O4_18 C4_18 1_555 1_555
O38_6 C9_18 1_555 1_555
O10_18 Ni3_21 1_555 1_555
O42_6 C12_18 1_555 1_555
O34_8 C12_18 1_555 1_555
O14_18 Ni19_5 1_555 1_555
C1_18 C2_18 1_555 1_555
C2_18 H1_18 1_555 1_555
H2_18 C2_18 1_555 1_555
C3_18 C2_18 1_555 1_555
H3_18 C3_18 1_555 1_555
H4_18 C3_18 1_555 1_555
C4_18 O36_6 1_555 1_555
C9_18 O10_18 1_555 1_555
C10_18 C9_18 1_555 1_555
H9_18 C10_18 1_555 1_555
H10_18 C10_18 1_555 1_555
C11_18 C10_18 1_555 1_555
H11_18 C11_18 1_555 1_555
H12_18 C11_18 1_555 1_555
C12_18 C11_18 1_555 1_555
O40 Ni3_21 1_555 1_555
C3_18 C4_18 1_555 1_555
O14_18 H25_18 1_555 1_555
O14_18 H26_18 1_555 1_555
O40_6 Ni3_22 1_555 1_555
O15_18 C13_18 1_555 1_555
O36 C16_18 1_555 1_555
O18_18 Ni3_22 1_555 1_555
C13_18 C14_18 1_555 1_555
C14_18 H13_18 1_555 1_555
H14_18 C14_18 1_555 1_555
C15_18 C14_18 1_555 1_555
H15_18 C15_18 1_555 1_555
H16_18 C15_18 1_555 1_555
C16_18 O18_18 1_555 1_555
O38 C17_18 1_555 1_555
O20_18 Ni3_22 1_555 1_555
O42 C20_18 1_555 1_555
O43_10 C20_18 1_555 1_555
C17_18 O20_18 1_555 1_555
C18_18 C17_18 1_555 1_555
H17_18 C18_18 1_555 1_555
H18_18 C18_18 1_555 1_555
C19_18 C18_18 1_555 1_555
H19_18 C19_18 1_555 1_555
H20_18 C19_18 1_555 1_555
C20_18 C19_18 1_555 1_555
Ni15_2 O15_18 1_555 1_555
Ni16_2 O15_18 1_555 1_555
C15_18 C16_18 1_555 1_555
Ni19_2 O16_18 1_555 1_555
O28_18 Ni19_2 1_555 1_555
O28_18 H27_18 1_555 1_555
O28_18 H28_18 1_555 1_555

#END
