
###############################################################################
#
# This file contains modified crystal structure data generated from the
# MOF subset of the Cambridge Structural Database (CSD) v543 
# hosted by the Cambridge Crystallographic Data Centre (CCDC).
#
# This work is licensed under the Creative Commons
# Attribution-NonCommercial-ShareAlike 4.0 International License.
# To view a copy of this license, visit
# http://creativecommons.org/licenses/by-nc-sa/4.0/
# or send a letter to
# Creative Commons, PO Box 1866, Mountain View, CA 94042, USA.
#
# CIF created using the CSD Python API on 29 September 2022
# The structure has been converted into the P1 space group
# The structure has a 3D framework
# The original CSD entry IDUSIM01 is in the monoclinic crystal system
# The framework has been calculated to contain at least 10.0% void space
# The void calculation uses a probe of radius 1.32A, grid spacing 0.4
#
###############################################################################

data_IDUSIM01
_chemical_formula_moiety         '(C56 H32 Cu4 N8 O18)n'
_symmetry_cell_setting           triclinic
_symmetry_space_group_name_H-M   'P 1'
_symmetry_Int_Tables_number      1
_space_group_name_Hall           'P 1'
loop_
_symmetry_equiv_pos_site_id
_symmetry_equiv_pos_as_xyz
1 x,y,z
_cell_length_a                   8.4584(12)
_cell_length_b                   10.2551(14)
_cell_length_c                   17.773(3)
_cell_angle_alpha                90
_cell_angle_beta                 103.479(3)
_cell_angle_gamma                90
_cell_volume                     1499.2
loop_
_atom_site_label
_atom_site_type_symbol
_atom_site_fract_x
_atom_site_fract_y
_atom_site_fract_z
H2 H 0.3573 0.0920 0.0147
O4 O 0.5332(2) 0.28744(17) 0.05482(9)
Cu4 Cu 0.67599(4) 0.44589(3) 0.06667(2)
H1 H 0.1923 0.9460 0.7983
N1 N 0.1756(2) 0.8999(2) 0.93628(12)
H8 H 0.1420 0.8365 0.9030
N3 N 0.3329(2) 0.9227(2) 0.54697(12)
C13 C 0.9330(3) 0.6415(3) 0.10531(14)
H6 H 0.9329 0.6188 0.1571
N2 N 0.8329(2) 0.5773(2) 0.04697(12)
C11 C 0.9343(3) 0.7060(2) 0.95692(14)
H4 H 0.9327 0.7265 0.9046
C12 C 0.8354(3) 0.6094(2) 0.97413(14)
H5 H 0.7662 0.5636 0.9328
O6 O 0.9210(2) 0.89500(17) 0.54349(9)
O7 O 0.4210(2) 0.60500(17) 0.04349(9)
Cu3 Cu 0.82401(4) 0.94589(3) 0.43333(2)
C8 C 0.9838(3) 0.7957(2) 0.51745(13)
O4_2 O 0.9668(2) 0.78744(17) 0.44518(9)
C1 C 0.6897(3) 0.8802(2) 0.28475(14)
C2 C 0.6724(3) 0.8889(2) 0.19883(13)
C3 C 0.7489(3) 0.9895(2) 0.16809(14)
C4 C 0.7404(3) 0.9969(2) 0.08919(13)
C5 C 0.6511(3) 0.9035(2) 0.03949(14)
C6 C 0.5745(3) 0.8038(2) 0.07079(13)
C7 C 0.5846(3) 0.7948(2) 0.15007(13)
H3 H 0.5323 0.7257 0.1704
C8_2 C 0.4838(3) 0.7043(2) 0.01745(13)
O1 O 0.7828(2) 0.96737(16) 0.32460(9)
O2 O 0.6183(2) 0.79465(17) 0.31278(10)
C1_2 C 0.8103(3) 0.3802(2) 0.21525(14)
C2_2 C 0.8276(3) 0.3889(2) 0.30117(13)
C3_2 C 0.7511(3) 0.4895(2) 0.33191(14)
H1_2 H 0.6923 0.5540 0.2983
C4_2 C 0.7596(3) 0.4969(2) 0.41081(13)
C5_2 C 0.8489(3) 0.4035(2) 0.46051(14)
H2_2 H 0.8573 0.4080 0.5147
C6_2 C 0.9255(3) 0.3038(2) 0.42921(13)
C7_2 C 0.9154(3) 0.2948(2) 0.34993(13)
H3_2 H 0.9677 0.2257 0.3296
C9 C 0.6411(3) 0.6121(2) 0.50649(14)
C10 C 0.5364(3) 0.7267(2) 0.51676(14)
C11_2 C 0.4343(3) 0.7940(2) 0.45692(14)
H4_2 H 0.4327 0.7735 0.4046
C12_2 C 0.3354(3) 0.8906(2) 0.47413(14)
H5_2 H 0.2662 0.9364 0.4328
C13_2 C 0.4330(3) 0.8585(3) 0.60531(14)
H6_2 H 0.4329 0.8812 0.6571
C14 C 0.5349(3) 0.7614(3) 0.59230(15)
H7 H 0.6042 0.7180 0.6347
N1_2 N 0.6756(2) 0.6001(2) 0.43628(12)
H8_2 H 0.6420 0.6635 0.4030
O1_2 O 0.7172(2) 0.46737(16) 0.17540(9)
O2_2 O 0.8817(2) 0.29465(17) 0.18722(10)
O5 O 0.6873(2) 0.53629(19) 0.56011(10)
Cu1 Cu 0.17599(4) 0.05411(3) 0.56667(2)
C1_3 C 0.3103(3) 0.1198(2) 0.71525(14)
C2_3 C 0.3276(3) 0.1111(2) 0.80117(13)
C3_3 C 0.2511(3) 0.0105(2) 0.83191(14)
C4_3 C 0.2596(3) 0.0031(2) 0.91081(13)
C5_3 C 0.3489(3) 0.0965(2) 0.96051(14)
C6_3 C 0.4255(3) 0.1962(2) 0.92921(13)
C7_3 C 0.4154(3) 0.2052(2) 0.84993(13)
H3_3 H 0.4677 0.2743 0.8296
C8_3 C 0.5162(3) 0.2957(2) 0.98255(13)
O1_3 O 0.2172(2) 0.03263(16) 0.67540(9)
O2_3 O 0.3817(2) 0.20535(17) 0.68722(10)
O3 O 0.5790(2) 0.39500(17) 0.95651(9)
Cu2 Cu 0.32401(4) 0.55411(3) 0.93333(2)
O7_2 O 0.0790(2) 0.10500(17) 0.45651(9)
O8 O 0.0332(2) 0.21256(17) 0.55482(9)
C1_4 C 0.1897(3) 0.6198(2) 0.78475(14)
C2_4 C 0.1724(3) 0.6111(2) 0.69883(13)
C3_4 C 0.2489(3) 0.5105(2) 0.66809(14)
H1_3 H 0.3077 0.4460 0.7017
C4_4 C 0.2404(3) 0.5031(2) 0.58919(13)
C5_4 C 0.1511(3) 0.5965(2) 0.53949(14)
H2_3 H 0.1427 0.5920 0.4853
C6_4 C 0.0745(3) 0.6962(2) 0.57079(13)
C7_4 C 0.0846(3) 0.7052(2) 0.65007(13)
H3_4 H 0.0323 0.7743 0.6704
C9_2 C 0.3589(3) 0.3879(2) 0.49351(14)
C10_2 C 0.4636(3) 0.2733(2) 0.48324(14)
C11_3 C 0.5657(3) 0.2060(2) 0.54308(14)
H4_3 H 0.5673 0.2265 0.5954
C12_3 C 0.6646(3) 0.1094(2) 0.52587(14)
H5_3 H 0.7338 0.0636 0.5672
C13_3 C 0.5670(3) 0.1415(3) 0.39469(14)
H6_3 H 0.5671 0.1188 0.3429
C14_2 C 0.4651(3) 0.2386(3) 0.40770(15)
H7_2 H 0.3958 0.2820 0.3653
N1_3 N 0.3244(2) 0.3999(2) 0.56372(12)
H8_3 H 0.3580 0.3365 0.5970
N2_2 N 0.6671(2) 0.0773(2) 0.45303(12)
O1_4 O 0.2828(2) 0.53263(16) 0.82460(9)
O2_4 O 0.1183(2) 0.70535(17) 0.81278(10)
O5_2 O 0.3127(2) 0.46371(19) 0.43989(10)
N3_2 N 0.1671(2) 0.4227(2) 0.95303(12)
O8_2 O 0.4668(2) 0.71256(17) 0.94518(9)
C11_4 C 0.0657(3) 0.2940(2) 0.04308(14)
H4_4 H 0.0673 0.2735 0.0954
C12_4 C 0.1646(3) 0.3906(2) 0.02587(14)
H5_4 H 0.2338 0.4364 0.0672
C13_4 C 0.0670(3) 0.3585(3) 0.89469(14)
H6_4 H 0.0671 0.3812 0.8429
H1_4 H 0.8077 0.0540 0.2017
N1_4 N 0.8244(2) 0.1001(2) 0.06372(12)
H8_4 H 0.8580 0.1635 0.0970
H2_4 H 0.6427 0.9080 0.9853
C8_4 C 0.0162(3) 0.2043(2) 0.48255(13)
C9_3 C 0.1411(3) 0.8879(2) 0.00649(14)
C10_3 C 0.0364(3) 0.7733(2) 0.01676(14)
C14_3 C 0.0349(3) 0.7386(3) 0.09230(15)
H7_3 H 0.1042 0.7820 0.1347
O5_3 O 0.1873(2) 0.96371(19) 0.06011(10)
C9_4 C 0.8589(3) 0.1121(2) 0.99351(14)
C10_4 C 0.9636(3) 0.2267(2) 0.98324(14)
C14_4 C 0.9651(3) 0.2614(3) 0.90770(15)
H7_4 H 0.8958 0.2180 0.8653
O5_4 O 0.8127(2) 0.03629(19) 0.93989(10)
loop_
_geom_bond_atom_site_label_1
_geom_bond_atom_site_label_2
_geom_bond_site_symmetry_1
_geom_bond_site_symmetry_2
O4 Cu4 1_555 1_555
H8 N1 1_555 1_555
C13 H6 1_555 1_555
Cu4 N2 1_555 1_555
C13 N2 1_555 1_555
C11 H4 1_555 1_555
C12 C11 1_555 1_555
H5 C12 1_555 1_555
O6 C8 1_555 1_555
O4_2 C8 1_555 1_555
Cu3 O6 1_555 1_555
O4_2 Cu3 1_555 1_555
Cu3 O1 1_555 1_555
C1 C2 1_555 1_555
C2 C3 1_555 1_555
C4 C3 1_555 1_555
C5 C4 1_555 1_555
C6 C5 1_555 1_555
C7 C2 1_555 1_555
H3 C7 1_555 1_555
C8_2 C6 1_555 1_555
O1 C1 1_555 1_555
O2 C1 1_555 1_555
O7 C8_2 1_555 1_555
Cu4 O7 1_555 1_555
C6 C7 1_555 1_555
Cu4 O1_2 1_555 1_555
C1_2 C2_2 1_555 1_555
C2_2 C3_2 1_555 1_555
C3_2 H1_2 1_555 1_555
C4_2 C3_2 1_555 1_555
C5_2 C4_2 1_555 1_555
H2_2 C5_2 1_555 1_555
C6_2 C5_2 1_555 1_555
C7_2 C2_2 1_555 1_555
H3_2 C7_2 1_555 1_555
C9 C10 1_555 1_555
C10 C11_2 1_555 1_555
C11_2 H4_2 1_555 1_555
C12_2 C11_2 1_555 1_555
H5_2 C12_2 1_555 1_555
C13_2 H6_2 1_555 1_555
C14 C10 1_555 1_555
H7 C14 1_555 1_555
N1_2 C4_2 1_555 1_555
H8_2 N1_2 1_555 1_555
N3 C12_2 1_555 1_555
O1_2 C1_2 1_555 1_555
O2_2 C1_2 1_555 1_555
O5 C9 1_555 1_555
C6_2 C7_2 1_555 1_555
C9 N1_2 1_555 1_555
C13_2 C14 1_555 1_555
C13_2 N3 1_555 1_555
Cu1 O1_3 1_555 1_555
C1_3 C2_3 1_555 1_555
C2_3 C3_3 1_555 1_555
C4_3 C3_3 1_555 1_555
C5_3 C4_3 1_555 1_555
C6_3 C5_3 1_555 1_555
C7_3 C2_3 1_555 1_555
H3_3 C7_3 1_555 1_555
C8_3 C6_3 1_555 1_555
O1_3 C1_3 1_555 1_555
O2_3 C1_3 1_555 1_555
O3 C8_3 1_555 1_555
Cu2 O3 1_555 1_555
O7_2 Cu1 1_555 1_555
O8 Cu1 1_555 1_555
C6_3 C7_3 1_555 1_555
Cu2 O1_4 1_555 1_555
C1_4 C2_4 1_555 1_555
C2_4 C3_4 1_555 1_555
C3_4 H1_3 1_555 1_555
C4_4 C3_4 1_555 1_555
C5_4 C4_4 1_555 1_555
H2_3 C5_4 1_555 1_555
C6_4 C5_4 1_555 1_555
C7_4 C2_4 1_555 1_555
H3_4 C7_4 1_555 1_555
C9_2 C10_2 1_555 1_555
C10_2 C11_3 1_555 1_555
C11_3 H4_3 1_555 1_555
C12_3 C11_3 1_555 1_555
H5_3 C12_3 1_555 1_555
C13_3 H6_3 1_555 1_555
C14_2 C10_2 1_555 1_555
H7_2 C14_2 1_555 1_555
N1_3 C4_4 1_555 1_555
H8_3 N1_3 1_555 1_555
N2_2 C12_3 1_555 1_555
O1_4 C1_4 1_555 1_555
O2_4 C1_4 1_555 1_555
O5_2 C9_2 1_555 1_555
N3_2 Cu2 1_555 1_555
O8_2 Cu2 1_555 1_555
C6_4 C7_4 1_555 1_555
C9_2 N1_3 1_555 1_555
C13_3 C14_2 1_555 1_555
C13_3 N2_2 1_555 1_555
C11_4 H4_4 1_555 1_555
C12_4 C11_4 1_555 1_555
H5_4 C12_4 1_555 1_555
C13_4 H6_4 1_555 1_555
C13_4 N3_2 1_555 1_555
H8_4 N1_4 1_555 1_555
O7_2 C8_4 1_555 1_555
O8 C8_4 1_555 1_555
C9_3 C10_3 1_555 1_555
C14_3 C10_3 1_555 1_555
H7_3 C14_3 1_555 1_555
O5_3 C9_3 1_555 1_555
C9_4 C10_4 1_555 1_555
C14_4 C10_4 1_555 1_555
H7_4 C14_4 1_555 1_555
O5_4 C9_4 1_555 1_555

#END
