
###############################################################################
#
# This file contains modified crystal structure data generated from the
# MOF subset of the Cambridge Structural Database (CSD) v543 
# hosted by the Cambridge Crystallographic Data Centre (CCDC).
#
# This work is licensed under the Creative Commons
# Attribution-NonCommercial-ShareAlike 4.0 International License.
# To view a copy of this license, visit
# http://creativecommons.org/licenses/by-nc-sa/4.0/
# or send a letter to
# Creative Commons, PO Box 1866, Mountain View, CA 94042, USA.
#
# CIF created using the CSD Python API on 29 September 2022
# The structure has been converted into the P1 space group
# The structure has a 3D framework
# The original CSD entry IDUSIM02 is in the monoclinic crystal system
# The framework has been calculated to contain at least 10.0% void space
# The void calculation uses a probe of radius 1.32A, grid spacing 0.4
#
###############################################################################

data_IDUSIM02
_chemical_formula_moiety         '(C56 H32 Cu4 N8 O20)n'
_symmetry_cell_setting           triclinic
_symmetry_space_group_name_H-M   'P 1'
_symmetry_Int_Tables_number      1
_space_group_name_Hall           'P 1'
loop_
_symmetry_equiv_pos_site_id
_symmetry_equiv_pos_as_xyz
1 x,y,z
_cell_length_a                   8.4025(11)
_cell_length_b                   10.2909(12)
_cell_length_c                   17.774(3)
_cell_angle_alpha                90
_cell_angle_beta                 103.533(6)
_cell_angle_gamma                90
_cell_volume                     1494.23
loop_
_atom_site_label
_atom_site_type_symbol
_atom_site_fract_x
_atom_site_fract_y
_atom_site_fract_z
N3 N 0.3336(3) 0.0775(2) 0.04717(13)
C1 C 0.4344(4) 0.1423(3) 0.10550(16)
H1 H 0.4344 0.1203 0.1563
C2 C 0.5363(4) 0.2390(3) 0.09267(16)
H2 H 0.6045 0.2812 0.1342
C4 C 0.5377(3) 0.2743(3) 0.01691(15)
H5 H 0.8579 0.5932 0.0135
O5 O 0.6872(3) 0.4650(2) 0.05993(11)
C14 C 0.6414(3) 0.3886(3) 0.00658(16)
Cu1 Cu 0.17631(5) 0.94665(4) 0.06664(2)
O3 O 0.0337(2) 0.78861(19) 0.05473(10)
O6 O 0.2181(2) 0.96755(19) 0.17538(11)
Cu3 Cu 0.82369(5) 0.05335(4) 0.93336(2)
O1 O 0.8812(2) 0.7062(2) 0.68707(11)
O2 O 0.7181(2) 0.53245(19) 0.67538(11)
C3 C 0.8106(3) 0.6202(3) 0.71532(16)
C5 C 0.9260(3) 0.6970(3) 0.92904(15)
N2 N 0.6769(3) 0.4004(2) 0.93632(13)
H3 H 0.6449 0.3383 0.9039
C6 C 0.9157(3) 0.7058(3) 0.84976(16)
H4 H 0.9664 0.7736 0.8298
C7 C 0.8497(3) 0.5973(3) 0.96050(16)
C8 C 0.8282(3) 0.6116(3) 0.80111(15)
C10 C 0.7522(3) 0.5109(3) 0.83205(16)
H6 H 0.6949 0.4475 0.7993
C11 C 0.7607(3) 0.5037(3) 0.91093(15)
C12 C 0.3363(4) 0.1097(3) 0.97428(16)
H7 H 0.2686 0.0647 0.9338
C13 C 0.4352(4) 0.2067(3) 0.95694(16)
H8 H 0.4333 0.2266 0.9057
Cu4 Cu 0.67631(5) 0.55335(4) 0.56664(2)
C1_2 C 0.0656(4) 0.6423(3) 0.39450(16)
H1_2 H 0.0656 0.6203 0.3437
N1 N 0.1664(3) 0.5775(2) 0.45283(13)
C12_2 C 0.1637(4) 0.6097(3) 0.52572(16)
H7_2 H 0.2314 0.5647 0.5662
C13_2 C 0.0648(4) 0.7067(3) 0.54306(16)
H8_2 H 0.0667 0.7266 0.5943
Cu2 Cu 0.32369(5) 0.44665(4) 0.43336(2)
O1_2 O 0.6188(2) 0.2062(2) 0.81293(11)
O2_2 O 0.7819(2) 0.03245(19) 0.82462(11)
C3_2 C 0.6894(3) 0.1202(3) 0.78468(16)
O3_2 O 0.4663(2) 0.28861(19) 0.44527(10)
O4 O 0.4215(2) 0.3963(2) 0.54358(11)
C5_2 C 0.5740(3) 0.1970(3) 0.57096(15)
C6_2 C 0.5843(3) 0.2058(3) 0.65024(16)
H4_2 H 0.5336 0.2736 0.6702
C7_2 C 0.6503(3) 0.0973(3) 0.53950(16)
H5_2 H 0.6421 0.0932 0.4865
C8_2 C 0.6718(3) 0.1116(3) 0.69889(15)
C9 C 0.4840(3) 0.2968(3) 0.51760(15)
C10_2 C 0.7478(3) 0.0109(3) 0.66795(16)
C11_2 C 0.7393(3) 0.0037(3) 0.58907(15)
O6_2 O 0.2819(2) 0.46755(19) 0.32462(11)
O7 O 0.5785(2) 0.6037(2) 0.45642(11)
O1_3 O 0.1188(2) 0.2938(2) 0.31293(11)
C3_3 C 0.1894(3) 0.3798(3) 0.28468(16)
C5_3 C 0.0740(3) 0.3030(3) 0.07096(15)
N2_2 N 0.3231(3) 0.5996(2) 0.06368(13)
H3_2 H 0.3551 0.6617 0.0961
C6_3 C 0.0843(3) 0.2942(3) 0.15024(16)
H4_3 H 0.0336 0.2264 0.1702
C7_3 C 0.1503(3) 0.4027(3) 0.03950(16)
C8_3 C 0.1718(3) 0.3884(3) 0.19889(15)
C10_3 C 0.2478(3) 0.4891(3) 0.16795(16)
H6_2 H 0.3051 0.5525 0.2007
C11_3 C 0.2393(3) 0.4963(3) 0.08907(15)
C12_3 C 0.6637(4) 0.8903(3) 0.02572(16)
H7_3 H 0.7314 0.9353 0.0662
C13_3 C 0.5648(4) 0.7933(3) 0.04306(16)
H8_3 H 0.5667 0.7734 0.0943
O3_3 O 0.9663(2) 0.21139(19) 0.94527(10)
O1_4 O 0.3812(2) 0.7938(2) 0.18707(11)
C3_4 C 0.3106(3) 0.8798(3) 0.21532(16)
O3_4 O 0.5337(2) 0.71139(19) 0.55473(10)
C5_4 C 0.4260(3) 0.8030(3) 0.42904(15)
C6_4 C 0.4157(3) 0.7942(3) 0.34976(16)
H4_4 H 0.4664 0.7264 0.3298
C7_4 C 0.3497(3) 0.9027(3) 0.46050(16)
H5_3 H 0.3579 0.9068 0.5135
C8_4 C 0.3282(3) 0.8884(3) 0.30111(15)
C9_2 C 0.5160(3) 0.7032(3) 0.48240(15)
C10_4 C 0.2522(3) 0.9891(3) 0.33205(16)
C11_4 C 0.2607(3) 0.9963(3) 0.41093(15)
N3_2 N 0.8336(3) 0.4225(2) 0.54717(13)
C1_3 C 0.9344(4) 0.3577(3) 0.60550(16)
H1_3 H 0.9344 0.3797 0.6563
C12_4 C 0.8363(4) 0.3903(3) 0.47428(16)
H7_4 H 0.7686 0.4353 0.4338
C13_4 C 0.9352(4) 0.2933(3) 0.45694(16)
H8_4 H 0.9333 0.2734 0.4057
O4_2 O 0.0785(2) 0.8963(2) 0.95642(11)
C9_3 C 0.0160(3) 0.7968(3) 0.98240(15)
O7_2 O 0.9215(2) 0.1037(2) 0.04358(11)
C9_4 C 0.9840(3) 0.2032(3) 0.01760(15)
C2_2 C 0.9637(4) 0.7390(3) 0.40733(16)
H2_2 H 0.8955 0.7812 0.3658
C4_2 C 0.9623(3) 0.7743(3) 0.48309(15)
N2_3 N 0.8231(3) 0.9004(2) 0.56368(13)
H3_3 H 0.8551 0.8383 0.5961
H6_3 H 0.8051 0.9475 0.7007
O5_2 O 0.8128(3) 0.9650(2) 0.44007(11)
C14_2 C 0.8586(3) 0.8886(3) 0.49342(16)
C1_4 C 0.5656(4) 0.8577(3) 0.89450(16)
H1_4 H 0.5656 0.8797 0.8437
C2_3 C 0.4637(4) 0.7610(3) 0.90733(16)
H2_3 H 0.3955 0.7188 0.8658
C4_3 C 0.4623(3) 0.7257(3) 0.98309(15)
N1_2 N 0.6664(3) 0.9225(2) 0.95283(13)
H5_4 H 0.1421 0.4068 0.9865
O5_3 O 0.3128(3) 0.5350(2) 0.94007(11)
C14_3 C 0.3586(3) 0.6114(3) 0.99342(16)
C2_4 C 0.0363(4) 0.2610(3) 0.59267(16)
H2_4 H 0.1045 0.2188 0.6342
C4_4 C 0.0377(3) 0.2257(3) 0.51691(15)
N2_4 N 0.1769(3) 0.0996(2) 0.43632(13)
H3_4 H 0.1449 0.1617 0.4039
H6_4 H 0.1949 0.0525 0.2993
O5_4 O 0.1872(3) 0.0350(2) 0.55993(11)
C14_4 C 0.1414(3) 0.1114(3) 0.50658(16)
loop_
_geom_bond_atom_site_label_1
_geom_bond_atom_site_label_2
_geom_bond_site_symmetry_1
_geom_bond_site_symmetry_2
C1 H1 1_555 1_555
C2 C1 1_555 1_555
H2 C2 1_555 1_555
C4 C2 1_555 1_555
N3 C1 1_555 1_555
O5 C14 1_555 1_555
C14 C4 1_555 1_555
Cu1 O3 1_555 1_555
O6 Cu1 1_555 1_555
O1 C3 1_555 1_555
O2 C3 1_555 1_555
C3 C8 1_555 1_555
C5 C6 1_555 1_555
N2 H3 1_555 1_555
C6 H4 1_555 1_555
C7 C5 1_555 1_555
C8 C6 1_555 1_555
C10 C8 1_555 1_555
H6 C10 1_555 1_555
C11 N2 1_555 1_555
H7 C12 1_555 1_555
H8 C13 1_555 1_555
Cu4 O2 1_555 1_555
C7 C11 1_555 1_555
C10 C11 1_555 1_555
C12 C13 1_555 1_555
C1_2 H1_2 1_555 1_555
N1 C1_2 1_555 1_555
C12_2 N1 1_555 1_555
H7_2 C12_2 1_555 1_555
H8_2 C13_2 1_555 1_555
Cu2 N1 1_555 1_555
C12_2 C13_2 1_555 1_555
O1_2 C3_2 1_555 1_555
O2_2 C3_2 1_555 1_555
C3_2 C8_2 1_555 1_555
Cu2 O3_2 1_555 1_555
O3_2 C9 1_555 1_555
O4 Cu2 1_555 1_555
C5_2 C6_2 1_555 1_555
C6_2 H4_2 1_555 1_555
C7_2 C5_2 1_555 1_555
H5_2 C7_2 1_555 1_555
C8_2 C6_2 1_555 1_555
C9 O4 1_555 1_555
C10_2 C8_2 1_555 1_555
O6_2 Cu2 1_555 1_555
Cu4 O4 1_555 1_555
Cu3 O2_2 1_555 1_555
O7 Cu2 1_555 1_555
C5_2 C9 1_555 1_555
C7_2 C11_2 1_555 1_555
C10_2 C11_2 1_555 1_555
Cu4 O7 1_555 1_555
O1_3 C3_3 1_555 1_555
O6_2 C3_3 1_555 1_555
C3_3 C8_3 1_555 1_555
C5_3 C6_3 1_555 1_555
N2_2 H3_2 1_555 1_555
C6_3 H4_3 1_555 1_555
C7_3 C5_3 1_555 1_555
C8_3 C6_3 1_555 1_555
C10_3 C8_3 1_555 1_555
H6_2 C10_3 1_555 1_555
C11_3 N2_2 1_555 1_555
H7_3 C12_3 1_555 1_555
H8_3 C13_3 1_555 1_555
C7_3 C11_3 1_555 1_555
C10_3 C11_3 1_555 1_555
C12_3 C13_3 1_555 1_555
Cu3 O3_3 1_555 1_555
O1_4 C3_4 1_555 1_555
O6 C3_4 1_555 1_555
C3_4 C8_4 1_555 1_555
Cu4 O3_4 1_555 1_555
O3_4 C9_2 1_555 1_555
C5_4 C6_4 1_555 1_555
C6_4 H4_4 1_555 1_555
C7_4 C5_4 1_555 1_555
H5_3 C7_4 1_555 1_555
C8_4 C6_4 1_555 1_555
C9_2 O7 1_555 1_555
C10_4 C8_4 1_555 1_555
N3_2 Cu4 1_555 1_555
C5_4 C9_2 1_555 1_555
C7_4 C11_4 1_555 1_555
C10_4 C11_4 1_555 1_555
C1_3 H1_3 1_555 1_555
N3_2 C1_3 1_555 1_555
C12_4 N3_2 1_555 1_555
H7_4 C12_4 1_555 1_555
H8_4 C13_4 1_555 1_555
C12_4 C13_4 1_555 1_555
C9_3 O4_2 1_555 1_555
C9_4 O7_2 1_555 1_555
H2_2 C2_2 1_555 1_555
C4_2 C2_2 1_555 1_555
N2_3 H3_3 1_555 1_555
O5_2 C14_2 1_555 1_555
C14_2 C4_2 1_555 1_555
N2_3 C14_2 1_555 1_555
C1_4 H1_4 1_555 1_555
C2_3 C1_4 1_555 1_555
H2_3 C2_3 1_555 1_555
C4_3 C2_3 1_555 1_555
N1_2 C1_4 1_555 1_555
O5_3 C14_3 1_555 1_555
C14_3 C4_3 1_555 1_555
H2_4 C2_4 1_555 1_555
C4_4 C2_4 1_555 1_555
N2_4 H3_4 1_555 1_555
O5_4 C14_4 1_555 1_555
C14_4 C4_4 1_555 1_555
N2_4 C14_4 1_555 1_555

#END
