
###############################################################################
#
# This file contains modified crystal structure data generated from the
# MOF subset of the Cambridge Structural Database (CSD) v543 
# hosted by the Cambridge Crystallographic Data Centre (CCDC).
#
# This work is licensed under the Creative Commons
# Attribution-NonCommercial-ShareAlike 4.0 International License.
# To view a copy of this license, visit
# http://creativecommons.org/licenses/by-nc-sa/4.0/
# or send a letter to
# Creative Commons, PO Box 1866, Mountain View, CA 94042, USA.
#
# CIF created using the CSD Python API on 29 September 2022
# The structure has been converted into the P1 space group
# The structure has a 3D framework
# The original CSD entry IDUTAF is in the monoclinic crystal system
# The framework has been calculated to contain at least 10.0% void space
# The void calculation uses a probe of radius 1.32A, grid spacing 0.4
#
###############################################################################

data_IDUTAF
_chemical_formula_moiety         '(C56 H32 Cu4 N8 O18)n'
_symmetry_cell_setting           triclinic
_symmetry_space_group_name_H-M   'P 1'
_symmetry_Int_Tables_number      1
_space_group_name_Hall           'P 1'
loop_
_symmetry_equiv_pos_site_id
_symmetry_equiv_pos_as_xyz
1 x,y,z
_cell_length_a                   8.1474(15)
_cell_length_b                   10.5098(17)
_cell_length_c                   17.662(3)
_cell_angle_alpha                90
_cell_angle_beta                 103.064(7)
_cell_angle_gamma                90
_cell_volume                     1473.21
loop_
_atom_site_label
_atom_site_type_symbol
_atom_site_fract_x
_atom_site_fract_y
_atom_site_fract_z
H2 H 0.3621 0.4037 0.0168
C9 C 0.1443(3) 0.6081(2) 0.00856(14)
C10 C 0.0424(3) 0.7238(2) 0.01892(14)
C14 C 0.0439(3) 0.7618(2) 0.09438(14)
H7 H 0.1154 0.7201 0.1372
O3 O 0.5343(2) 0.20822(16) 0.05616(9)
O5 O 0.1833(2) 0.53186(17) 0.06204(10)
Cu4 Cu 0.67792(4) 0.05210(3) 0.067579(18)
Cu1 Cu 0.17792(4) 0.44790(3) 0.567579(18)
C1 C 0.3125(3) 0.3745(2) 0.71555(14)
C2 C 0.3293(3) 0.3830(2) 0.80204(13)
C3 C 0.2553(3) 0.4838(2) 0.83313(14)
H1 H 0.1975 0.5480 0.7996
C4 C 0.2646(3) 0.4920(2) 0.91246(14)
C5 C 0.3527(3) 0.3988(2) 0.96224(13)
C6 C 0.4262(3) 0.2988(2) 0.93011(13)
C7 C 0.4154(3) 0.2886(2) 0.85067(13)
H3 H 0.4655 0.2190 0.8300
C8 C 0.5162(3) 0.1999(2) 0.98369(13)
N1 N 0.1844(2) 0.59632(19) 0.93874(11)
H8 H 0.1575 0.6605 0.9063
O1 O 0.2262(2) 0.46525(16) 0.67673(9)
O2 O 0.3786(2) 0.28665(16) 0.68677(9)
O4 O 0.5787(2) 0.10138(16) 0.95695(9)
N3 N 0.3383(3) 0.57834(19) 0.54772(12)
O6 O 0.0343(2) 0.29178(16) 0.55616(9)
O8 O 0.0787(2) 0.39862(16) 0.45695(9)
Cu2 Cu 0.32208(4) 0.94790(3) 0.932421(18)
C13 C 0.9420(3) 0.8596(2) 0.10688(14)
H6 H 0.9442 0.8847 0.1588
N2 N 0.8383(3) 0.92166(19) 0.04772(12)
C11 C 0.9371(3) 0.7885(2) 0.95802(14)
H4 H 0.9333 0.7655 0.9056
C12 C 0.8384(3) 0.8866(2) 0.97475(14)
H5 H 0.7677 0.9310 0.9329
O7 O 0.9213(2) 0.60138(16) 0.54305(9)
H1_2 H 0.3025 0.0480 0.7004
C9_2 C 0.3557(3) 0.1081(2) 0.49144(14)
C10_2 C 0.4576(3) 0.2238(2) 0.48108(14)
C11_2 C 0.5629(3) 0.2885(2) 0.54198(14)
H4_2 H 0.5667 0.2655 0.5944
C12_2 C 0.6616(3) 0.3866(2) 0.52525(14)
H5_2 H 0.7323 0.4310 0.5671
C13_2 C 0.5580(3) 0.3596(2) 0.39312(14)
H6_2 H 0.5558 0.3847 0.3412
C14_2 C 0.4561(3) 0.2618(2) 0.40562(14)
H7_2 H 0.3846 0.2201 0.3628
N1_2 N 0.3156(2) 0.09632(19) 0.56126(11)
H8_2 H 0.3425 0.1605 0.5937
N2_2 N 0.6617(3) 0.42166(19) 0.45228(12)
O5_2 O 0.3167(2) 0.03186(17) 0.43796(10)
Cu3 Cu 0.82208(4) 0.55210(3) 0.432421(18)
N3_2 N 0.1617(3) 0.07834(19) 0.95228(12)
O8_2 O 0.4213(2) 0.89862(16) 0.04305(9)
C1_2 C 0.1875(3) 0.8745(2) 0.78445(14)
C2_2 C 0.1707(3) 0.8830(2) 0.69796(13)
C3_2 C 0.2447(3) 0.9838(2) 0.66687(14)
C4_2 C 0.2354(3) 0.9920(2) 0.58754(14)
C5_2 C 0.1473(3) 0.8988(2) 0.53776(13)
H2_2 H 0.1379 0.9037 0.4832
C6_2 C 0.0738(3) 0.7988(2) 0.56989(13)
C7_2 C 0.0846(3) 0.7886(2) 0.64933(13)
H3_2 H 0.0345 0.7190 0.6700
O1_2 O 0.2738(2) 0.96525(16) 0.82327(9)
O2_2 O 0.1214(2) 0.78665(16) 0.81323(9)
O6_2 O 0.4657(2) 0.79178(16) 0.94384(9)
C8_2 C 0.9838(3) 0.6999(2) 0.51631(13)
O3_2 O 0.9657(2) 0.70822(16) 0.44384(9)
C11_3 C 0.0629(3) 0.2115(2) 0.04198(14)
H4_3 H 0.0667 0.2345 0.0944
C12_3 C 0.1616(3) 0.1134(2) 0.02525(14)
H5_3 H 0.2323 0.0690 0.0671
C13_3 C 0.0580(3) 0.1404(2) 0.89312(14)
H6_3 H 0.0558 0.1153 0.8412
C1_3 C 0.6875(3) 0.6255(2) 0.28445(14)
C2_3 C 0.6707(3) 0.6170(2) 0.19796(13)
C3_3 C 0.7447(3) 0.5162(2) 0.16687(14)
H1_3 H 0.8025 0.4520 0.2004
C4_3 C 0.7354(3) 0.5080(2) 0.08754(14)
C5_3 C 0.6473(3) 0.6012(2) 0.03776(13)
C6_3 C 0.5738(3) 0.7012(2) 0.06989(13)
C7_3 C 0.5846(3) 0.7114(2) 0.14933(13)
H3_3 H 0.5345 0.7810 0.1700
C8_3 C 0.4838(3) 0.8001(2) 0.01631(13)
N1_3 N 0.8156(2) 0.40368(19) 0.06126(11)
H8_3 H 0.8425 0.3395 0.0937
O1_3 O 0.7738(2) 0.53475(16) 0.32327(9)
O2_3 O 0.6214(2) 0.71335(16) 0.31323(9)
H2_3 H 0.6379 0.5963 0.9832
C9_3 C 0.8557(3) 0.3919(2) 0.99144(14)
C10_3 C 0.9576(3) 0.2762(2) 0.98108(14)
C14_3 C 0.9561(3) 0.2382(2) 0.90562(14)
H7_3 H 0.8846 0.2799 0.8628
O5_3 O 0.8167(2) 0.46814(17) 0.93796(10)
C8_4 C 0.0162(3) 0.3001(2) 0.48369(13)
C1_4 C 0.8125(3) 0.1255(2) 0.21555(14)
C2_4 C 0.8293(3) 0.1170(2) 0.30204(13)
C3_4 C 0.7553(3) 0.0162(2) 0.33313(14)
C4_4 C 0.7646(3) 0.0080(2) 0.41246(14)
C5_4 C 0.8527(3) 0.1012(2) 0.46224(13)
H2_4 H 0.8621 0.0963 0.5168
C6_4 C 0.9262(3) 0.2012(2) 0.43011(13)
C7_4 C 0.9154(3) 0.2114(2) 0.35067(13)
H3_4 H 0.9655 0.2810 0.3300
O1_4 O 0.7262(2) 0.03475(16) 0.17673(9)
O2_4 O 0.8786(2) 0.21335(16) 0.18677(9)
H1_4 H 0.6975 0.9520 0.2996
C9_4 C 0.6443(3) 0.8919(2) 0.50856(14)
C10_4 C 0.5424(3) 0.7762(2) 0.51892(14)
C11_4 C 0.4371(3) 0.7115(2) 0.45802(14)
H4_4 H 0.4333 0.7345 0.4056
C12_4 C 0.3384(3) 0.6134(2) 0.47475(14)
H5_4 H 0.2677 0.5690 0.4329
C13_4 C 0.4420(3) 0.6404(2) 0.60688(14)
H6_4 H 0.4442 0.6153 0.6588
C14_4 C 0.5439(3) 0.7382(2) 0.59438(14)
H7_4 H 0.6154 0.7799 0.6372
N1_4 N 0.6844(2) 0.90368(19) 0.43874(11)
H8_4 H 0.6575 0.8395 0.4063
O5_4 O 0.6833(2) 0.96814(17) 0.56204(10)
loop_
_geom_bond_atom_site_label_1
_geom_bond_atom_site_label_2
_geom_bond_site_symmetry_1
_geom_bond_site_symmetry_2
C9 C10 1_555 1_555
C14 C10 1_555 1_555
H7 C14 1_555 1_555
O5 C9 1_555 1_555
Cu4 O3 1_555 1_555
Cu1 O1 1_555 1_555
C1 C2 1_555 1_555
C2 C3 1_555 1_555
C3 H1 1_555 1_555
C4 C3 1_555 1_555
C5 C4 1_555 1_555
C6 C5 1_555 1_555
C7 C2 1_555 1_555
H3 C7 1_555 1_555
C8 C6 1_555 1_555
N1 C4 1_555 1_555
H8 N1 1_555 1_555
O1 C1 1_555 1_555
O2 C1 1_555 1_555
O4 C8 1_555 1_555
N3 Cu1 1_555 1_555
O6 Cu1 1_555 1_555
O8 Cu1 1_555 1_555
C6 C7 1_555 1_555
C13 H6 1_555 1_555
C13 N2 1_555 1_555
C11 H4 1_555 1_555
C12 C11 1_555 1_555
H5 C12 1_555 1_555
C9_2 C10_2 1_555 1_555
C10_2 C11_2 1_555 1_555
C11_2 H4_2 1_555 1_555
C12_2 C11_2 1_555 1_555
H5_2 C12_2 1_555 1_555
C13_2 H6_2 1_555 1_555
C14_2 C10_2 1_555 1_555
H7_2 C14_2 1_555 1_555
H8_2 N1_2 1_555 1_555
N2_2 C12_2 1_555 1_555
O5_2 C9_2 1_555 1_555
Cu3 N2_2 1_555 1_555
C9_2 N1_2 1_555 1_555
C13_2 C14_2 1_555 1_555
C13_2 N2_2 1_555 1_555
Cu2 O1_2 1_555 1_555
C1_2 C2_2 1_555 1_555
C2_2 C3_2 1_555 1_555
C4_2 C3_2 1_555 1_555
C5_2 C4_2 1_555 1_555
H2_2 C5_2 1_555 1_555
C6_2 C5_2 1_555 1_555
C7_2 C2_2 1_555 1_555
H3_2 C7_2 1_555 1_555
O1_2 C1_2 1_555 1_555
O2_2 C1_2 1_555 1_555
O6_2 Cu2 1_555 1_555
C6_2 C7_2 1_555 1_555
O3_2 C8_2 1_555 1_555
O7 C8_2 1_555 1_555
Cu3 O3_2 1_555 1_555
O7 Cu3 1_555 1_555
C11_3 H4_3 1_555 1_555
C12_3 C11_3 1_555 1_555
H5_3 C12_3 1_555 1_555
C13_3 H6_3 1_555 1_555
C13_3 N3_2 1_555 1_555
Cu3 O1_3 1_555 1_555
C1_3 C2_3 1_555 1_555
C2_3 C3_3 1_555 1_555
C3_3 H1_3 1_555 1_555
C4_3 C3_3 1_555 1_555
C5_3 C4_3 1_555 1_555
C6_3 C5_3 1_555 1_555
C7_3 C2_3 1_555 1_555
H3_3 C7_3 1_555 1_555
C8_3 C6_3 1_555 1_555
N1_3 C4_3 1_555 1_555
H8_3 N1_3 1_555 1_555
O1_3 C1_3 1_555 1_555
O2_3 C1_3 1_555 1_555
O8_2 C8_3 1_555 1_555
C6_3 C7_3 1_555 1_555
C9_3 C10_3 1_555 1_555
C14_3 C10_3 1_555 1_555
H7_3 C14_3 1_555 1_555
O5_3 C9_3 1_555 1_555
O6 C8_4 1_555 1_555
O8 C8_4 1_555 1_555
Cu4 O1_4 1_555 1_555
C1_4 C2_4 1_555 1_555
C2_4 C3_4 1_555 1_555
C4_4 C3_4 1_555 1_555
C5_4 C4_4 1_555 1_555
H2_4 C5_4 1_555 1_555
C6_4 C5_4 1_555 1_555
C7_4 C2_4 1_555 1_555
H3_4 C7_4 1_555 1_555
O1_4 C1_4 1_555 1_555
O2_4 C1_4 1_555 1_555
C6_4 C7_4 1_555 1_555
C9_4 C10_4 1_555 1_555
C10_4 C11_4 1_555 1_555
C11_4 H4_4 1_555 1_555
C12_4 C11_4 1_555 1_555
H5_4 C12_4 1_555 1_555
C13_4 H6_4 1_555 1_555
C14_4 C10_4 1_555 1_555
H7_4 C14_4 1_555 1_555
H8_4 N1_4 1_555 1_555
N3 C12_4 1_555 1_555
O5_4 C9_4 1_555 1_555
C9_4 N1_4 1_555 1_555
C13_4 C14_4 1_555 1_555
C13_4 N3 1_555 1_555

#END
