
###############################################################################
#
# This file contains modified crystal structure data generated from the
# MOF subset of the Cambridge Structural Database (CSD) v543 
# hosted by the Cambridge Crystallographic Data Centre (CCDC).
#
# This work is licensed under the Creative Commons
# Attribution-NonCommercial-ShareAlike 4.0 International License.
# To view a copy of this license, visit
# http://creativecommons.org/licenses/by-nc-sa/4.0/
# or send a letter to
# Creative Commons, PO Box 1866, Mountain View, CA 94042, USA.
#
# CIF created using the CSD Python API on 29 September 2022
# The structure has been converted into the P1 space group
# The structure has a 3D framework
# The original CSD entry IDUYOX is in the triclinic crystal system
# The framework has been calculated to contain at least 10.0% void space
# The void calculation uses a probe of radius 1.32A, grid spacing 0.4
# The framework is charged, counterions have been retained in the structure
# H atom positions have been added when not included in the experimental data
#
###############################################################################

data_IDUYOX
_chemical_formula_moiety         '(C68 H52 Cu8 O30 4-)n'
_symmetry_cell_setting           triclinic
_symmetry_space_group_name_H-M   'P 1'
_symmetry_Int_Tables_number      1
_space_group_name_Hall           'P 1'
loop_
_symmetry_equiv_pos_site_id
_symmetry_equiv_pos_as_xyz
1 x,y,z
_cell_length_a                   10.6580(7)
_cell_length_b                   18.4613(12)
_cell_length_c                   21.0920(14)
_cell_angle_alpha                89.068(2)
_cell_angle_beta                 88.1190(10)
_cell_angle_gamma                85.215(2)
_cell_volume                     4133
loop_
_atom_site_label
_atom_site_type_symbol
_atom_site_fract_x
_atom_site_fract_y
_atom_site_fract_z
Cu7 Cu 0.63797(4) 0.50477(3) 0.00554(2)
O17 O 0.5064(2) 0.43628(16) 0.02849(13)
O19 O 0.2295(2) 0.45178(17) 0.04603(14)
H22 H 0.462054 0.637876 0.0456177
Cu1 Cu 0.50504(4) 0.57171(3) 0.87954(2)
Cu2 Cu 0.36203(4) 0.49523(3) 0.99446(2)
Cu3 Cu 0.13851(4) 0.00690(3) 0.49590(2)
O1 O 0.4936(2) 0.56372(16) 0.97151(13)
O2 O 0.2587(2) 0.03771(17) 0.55423(14)
O3 O 0.2280(2) 0.56199(17) 0.96316(13)
O4 O 0.7194(3) 0.03896(19) 0.55174(15)
O6 O 0.3243(3) 0.5933(2) 0.87156(16)
O7 O 0.3529(3) 0.4274(2) 0.91307(15)
O8 O 0.1450(3) 0.1336(2) 0.5974(2)
C2 C 0.3608(4) 0.1189(2) 0.6159(2)
O9 O 0.5430(3) 0.4558(2) 0.87667(18)
C3 C 0.3512(4) 0.1723(3) 0.6612(2)
H1 H 0.2705 0.1908 0.6770
O10 O 0.8001(3) 0.1290(2) 0.6020(2)
C4 C 0.2455(4) 0.0935(2) 0.5872(2)
C6 C 0.1075(4) 0.6194(3) 0.8823(2)
C8 C 0.4589(4) 0.1995(3) 0.6839(2)
C9 C 0.4518(4) 0.2573(3) 0.7320(2)
C10 C 0.7126(3) 0.0924(3) 0.58755(19)
C12 C 0.5761(4) 0.1716(3) 0.6592(2)
H4 H 0.6505 0.1900 0.6737
C14 C 0.1053(4) 0.6634(3) 0.8289(2)
H5 H 0.1821 0.6779 0.8107
C15 C 0.2304(4) 0.5896(3) 0.9078(2)
C16 C 0.3615(4) 0.2594(3) 0.7812(2)
H6 H 0.3003 0.2248 0.7828
C17 C 0.4781(4) 0.0900(2) 0.59280(19)
H7 H 0.4847 0.0518 0.5629
C18 C 0.4485(4) 0.4199(3) 0.8752(2)
C19 C 0.4472(4) 0.3632(3) 0.8253(2)
C20 C 0.5363(5) 0.3103(3) 0.7289(3)
H8 H 0.5960 0.3110 0.6945
C21 C 0.3599(4) 0.3111(3) 0.8274(2)
H9 H 0.2986 0.3113 0.8612
C22 C 0.5348(5) 0.3621(3) 0.7755(3)
H10 H 0.5947 0.3975 0.7732
C23 C 0.5856(4) 0.1185(3) 0.6148(2)
O12 O 0.5230(4) 0.5810(3) 0.78686(17)
C24 C 0.4307(17) 0.5683(11) 0.7474(9)
C27 C 0.4696(15) 0.6383(9) 0.9940(8)
O15 O 0.0723(4) 0.8539(3) 0.5314(2)
C33 C 0.0904(6) 0.7286(5) 0.6985(4)
H13 H 0.1637 0.6978 0.7076
C34 C 0.0878(6) 0.7696(6) 0.6435(4)
H14 H 0.1601 0.7682 0.6158
O21 O 0.6655(3) 0.6130(2) 0.87976(17)
Cu11 Cu 0.97378(5) 0.13202(3) 0.56644(3)
Cu12 Cu 0.02622(5) 0.86798(3) 0.43356(3)
O24 O 0.1268(3) 0.1103(2) 0.44515(19)
H15 H 0.347926 0.605262 0.758051
H16 H 0.462856 0.576979 0.698537
H17 H 0.406688 0.51239 0.753707
H18 H 0.00732175 0.242126 0.655461
H21 H 0.381972 0.662597 0.974831
H23 H 0.54691 0.669937 0.978291
H24 H 0.073128 0.028166 0.648731
Cu10 Cu 0.86149(4) 0.99310(3) 0.50410(2)
O18 O 0.2806(3) 0.96104(19) 0.44826(15)
O22 O 0.0070(3) 0.97207(19) 0.44363(15)
H26 H 0.0130059 0.94472 0.628878
O5 O 0.7705(2) 0.54822(17) 0.95397(14)
C1 C 0.7638(3) 0.5906(2) 0.90708(19)
C5 C 0.9964(3) 0.5971(2) 0.90953(19)
H2 H 0.9981 0.5673 0.9467
C7 C 0.8829(3) 0.6190(2) 0.88186(19)
C11 C 0.8807(4) 0.6642(3) 0.8287(2)
H3 H 0.8023 0.6799 0.8108
C13 C 0.9914(4) 0.6869(3) 0.8011(2)
O13 O 0.9575(8) 0.2389(5) 0.5632(5)
C25 C 0.9308(19) 0.2622(12) 0.6252(10)
C26 C 0.997(2) 0.0037(10) 0.6260(11)
O14 O 0.9930(3) 0.02793(19) 0.55637(15)
C28 C 0.8839(6) 0.7760(5) 0.7260(4)
H11 H 0.8134 0.7801 0.7548
C29 C 0.9890(5) 0.7312(4) 0.7408(3)
C30 C 0.8803(6) 0.8151(4) 0.6697(4)
H12 H 0.8060 0.8443 0.6595
C31 C 0.9816(5) 0.8123(3) 0.6285(3)
C32 C 0.9757(5) 0.8551(3) 0.5664(3)
O16 O 0.8732(3) 0.8897(2) 0.55485(19)
O23 O 0.9277(4) 0.1461(3) 0.4686(2)
H19 H 0.920884 0.321375 0.625849
H20 H 0.843369 0.241272 0.642646
H25 H 0.907715 0.0209587 0.649979
C1_2 C 0.2362(3) 0.4094(2) 0.09292(19)
C5_2 C 0.0036(3) 0.4029(2) 0.09047(19)
H2_2 H 0.0019 0.4327 0.0533
C7_2 C 0.1171(3) 0.3810(2) 0.11814(19)
C11_2 C 0.1193(4) 0.3358(3) 0.1713(2)
H3_2 H 0.1977 0.3201 0.1892
C13_2 C 0.0086(4) 0.3131(3) 0.1989(2)
O11 O 0.3345(3) 0.3870(2) 0.12024(17)
O13_2 O 0.0425(8) 0.7611(5) 0.4368(5)
C25_2 C 0.0692(19) 0.7378(12) 0.3748(10)
C26_2 C 0.003(2) 0.9963(10) 0.3740(11)
C28_2 C 0.1161(6) 0.2240(5) 0.2740(4)
H11_2 H 0.1866 0.2199 0.2452
C29_2 C 0.0110(5) 0.2688(4) 0.2592(3)
C30_2 C 0.1197(6) 0.1849(4) 0.3303(4)
H12_2 H 0.1940 0.1557 0.3405
C31_2 C 0.0184(5) 0.1877(3) 0.3715(3)
C32_2 C 0.0243(5) 0.1449(3) 0.4336(3)
Cu5 Cu 0.49496(4) 0.42829(3) 0.12046(2)
O20 O 0.1999(3) 0.8710(2) 0.3980(2)
H19_2 H 0.0791156 0.678625 0.374151
H20_2 H 0.156631 0.758728 0.357354
H25_2 H 0.0922854 0.979041 0.350021
H26_2 H 0.986994 0.0552802 0.371122
O2_2 O 0.7413(2) 0.96229(17) 0.44577(14)
O3_2 O 0.7720(2) 0.43801(17) 0.03684(13)
O6_2 O 0.6757(3) 0.4067(2) 0.12844(16)
O7_2 O 0.6471(3) 0.5726(2) 0.08693(15)
O8_2 O 0.8550(3) 0.8664(2) 0.4026(2)
C2_2 C 0.6392(4) 0.8811(2) 0.3841(2)
O9_2 O 0.4570(3) 0.5442(2) 0.12333(18)
C3_2 C 0.6488(4) 0.8277(3) 0.3388(2)
H1_2 H 0.7295 0.8092 0.3230
C4_2 C 0.7545(4) 0.9065(2) 0.4128(2)
C6_2 C 0.8925(4) 0.3806(3) 0.1177(2)
C8_2 C 0.5411(4) 0.8005(3) 0.3161(2)
C9_2 C 0.5482(4) 0.7427(3) 0.2680(2)
C10_2 C 0.2874(3) 0.9076(3) 0.41245(19)
C12_2 C 0.4239(4) 0.8284(3) 0.3408(2)
H4_2 H 0.3495 0.8100 0.3263
C14_2 C 0.8947(4) 0.3366(3) 0.1711(2)
H5_2 H 0.8179 0.3221 0.1893
C15_2 C 0.7696(4) 0.4104(3) 0.0922(2)
C16_2 C 0.6385(4) 0.7406(3) 0.2188(2)
H6_2 H 0.6997 0.7752 0.2172
C17_2 C 0.5219(4) 0.9100(2) 0.40720(19)
H7_2 H 0.5153 0.9482 0.4371
C18_2 C 0.5515(4) 0.5801(3) 0.1248(2)
C19_2 C 0.5528(4) 0.6368(3) 0.1747(2)
C20_2 C 0.4637(5) 0.6897(3) 0.2711(3)
H8_2 H 0.4040 0.6890 0.3055
C21_2 C 0.6401(4) 0.6889(3) 0.1726(2)
H9_2 H 0.7014 0.6887 0.1388
C22_2 C 0.4652(5) 0.6379(3) 0.2245(3)
H10_2 H 0.4053 0.6025 0.2268
C23_2 C 0.4144(4) 0.8815(3) 0.3852(2)
O12_2 O 0.4770(4) 0.4190(3) 0.21314(17)
C24_2 C 0.5693(17) 0.4317(11) 0.2526(9)
C27_2 C 0.5304(15) 0.3617(9) 0.0060(8)
C33_2 C 0.9096(6) 0.2714(5) 0.3015(4)
H13_2 H 0.8363 0.3022 0.2924
C34_2 C 0.9122(6) 0.2304(6) 0.3565(4)
H14_2 H 0.8399 0.2318 0.3842
H15_2 H 0.652074 0.394738 0.241949
H16_2 H 0.537144 0.423021 0.301463
H17_2 H 0.593312 0.48761 0.246293
H18_2 H 0.992678 0.757874 0.344539
H21_2 H 0.618028 0.337403 0.0251695
H23_2 H 0.45309 0.330063 0.0217087
H24_2 H 0.926872 0.971834 0.351269
H22_2 H 0.537946 0.362124 0.954382
loop_
_geom_bond_atom_site_label_1
_geom_bond_atom_site_label_2
_geom_bond_site_symmetry_1
_geom_bond_site_symmetry_2
Cu7 O17 1_555 1_555
Cu1 O1 1_555 1_555
Cu2 O1 1_555 1_555
Cu3 O2 1_555 1_555
O1 C27 1_555 1_555
O2 C4 1_555 1_555
O3 Cu2 1_555 1_555
O4 C10 1_555 1_555
O6 Cu1 1_555 1_555
O7 Cu2 1_555 1_555
O8 C4 1_555 1_555
C2 C3 1_555 1_555
O9 Cu1 1_555 1_555
C3 H1 1_555 1_555
O10 C10 1_555 1_555
C4 C2 1_555 1_555
C8 C3 1_555 1_555
C9 C8 1_555 1_555
C10 C23 1_555 1_555
C12 C8 1_555 1_555
H4 C12 1_555 1_555
C14 C6 1_555 1_555
H5 C14 1_555 1_555
C15 O3 1_555 1_555
C16 C9 1_555 1_555
H6 C16 1_555 1_555
C17 C2 1_555 1_555
H7 C17 1_555 1_555
C18 O7 1_555 1_555
C19 C18 1_555 1_555
C20 C9 1_555 1_555
H8 C20 1_555 1_555
C21 C16 1_555 1_555
H9 C21 1_555 1_555
C22 C19 1_555 1_555
H10 C22 1_555 1_555
C23 C12 1_555 1_555
O12 Cu1 1_555 1_555
C24 O12 1_555 1_555
H13 C33 1_555 1_555
H14 C34 1_555 1_555
O21 Cu1 1_555 1_555
Cu11 O10 1_555 1_555
Cu12 O15 1_555 1_555
O24 Cu3 1_555 1_555
O6 C15 1_555 1_555
O9 C18 1_555 1_555
C6 C15 1_555 1_555
C17 C23 1_555 1_555
C19 C21 1_555 1_555
C20 C22 1_555 1_555
C33 C34 1_555 1_555
C24 H15 1_555 1_555
C24 H16 1_555 1_555
C24 H17 1_555 1_555
C27 H21 1_555 1_555
C27 H23 1_555 1_555
O5 C1 1_555 1_555
C1 C7 1_555 1_555
C5 H2 1_555 1_555
C7 C5 1_555 1_555
C11 C7 1_555 1_555
H3 C11 1_555 1_555
C13 C11 1_555 1_555
O21 C1 1_555 1_555
O13 C25 1_555 1_555
C26 O14 1_555 1_555
C28 H11 1_555 1_555
C29 C13 1_555 1_555
C30 C28 1_555 1_555
H12 C30 1_555 1_555
C31 C30 1_555 1_555
C32 C31 1_555 1_555
O16 C32 1_555 1_555
Cu10 O16 1_555 1_555
O23 Cu11 1_555 1_555
O13 Cu11 1_555 1_555
O14 Cu11 1_555 1_555
C28 C29 1_555 1_555
C25 H19 1_555 1_555
C25 H20 1_555 1_555
C26 H25 1_555 1_555
O19 C1_2 1_555 1_555
C1_2 C7_2 1_555 1_555
C5_2 H2_2 1_555 1_555
C7_2 C5_2 1_555 1_555
C11_2 C7_2 1_555 1_555
H3_2 C11_2 1_555 1_555
C13_2 C11_2 1_555 1_555
O11 C1_2 1_555 1_555
O13_2 C25_2 1_555 1_555
C26_2 O22 1_555 1_555
C28_2 H11_2 1_555 1_555
C29_2 C13_2 1_555 1_555
C30_2 C28_2 1_555 1_555
H12_2 C30_2 1_555 1_555
C31_2 C30_2 1_555 1_555
C32_2 C31_2 1_555 1_555
O24 C32_2 1_555 1_555
Cu5 O11 1_555 1_555
O20 Cu12 1_555 1_555
O13_2 Cu12 1_555 1_555
O22 Cu12 1_555 1_555
C28_2 C29_2 1_555 1_555
C25_2 H19_2 1_555 1_555
C25_2 H20_2 1_555 1_555
C26_2 H25_2 1_555 1_555
Cu5 O17 1_555 1_555
Cu10 O2_2 1_555 1_555
O17 C27_2 1_555 1_555
O2_2 C4_2 1_555 1_555
O3_2 Cu7 1_555 1_555
O18 C10_2 1_555 1_555
O6_2 Cu5 1_555 1_555
O7_2 Cu7 1_555 1_555
O8_2 C4_2 1_555 1_555
C2_2 C3_2 1_555 1_555
O9_2 Cu5 1_555 1_555
C3_2 H1_2 1_555 1_555
O20 C10_2 1_555 1_555
C4_2 C2_2 1_555 1_555
C8_2 C3_2 1_555 1_555
C9_2 C8_2 1_555 1_555
C10_2 C23_2 1_555 1_555
C12_2 C8_2 1_555 1_555
H4_2 C12_2 1_555 1_555
C14_2 C6_2 1_555 1_555
H5_2 C14_2 1_555 1_555
C15_2 O3_2 1_555 1_555
C16_2 C9_2 1_555 1_555
H6_2 C16_2 1_555 1_555
C17_2 C2_2 1_555 1_555
H7_2 C17_2 1_555 1_555
C18_2 O7_2 1_555 1_555
C19_2 C18_2 1_555 1_555
C20_2 C9_2 1_555 1_555
H8_2 C20_2 1_555 1_555
C21_2 C16_2 1_555 1_555
H9_2 C21_2 1_555 1_555
C22_2 C19_2 1_555 1_555
H10_2 C22_2 1_555 1_555
C23_2 C12_2 1_555 1_555
O12_2 Cu5 1_555 1_555
C24_2 O12_2 1_555 1_555
H13_2 C33_2 1_555 1_555
H14_2 C34_2 1_555 1_555
O6_2 C15_2 1_555 1_555
O9_2 C18_2 1_555 1_555
C6_2 C15_2 1_555 1_555
C17_2 C23_2 1_555 1_555
C19_2 C21_2 1_555 1_555
C20_2 C22_2 1_555 1_555
C33_2 C34_2 1_555 1_555
C24_2 H15_2 1_555 1_555
C24_2 H16_2 1_555 1_555
C24_2 H17_2 1_555 1_555
C27_2 H21_2 1_555 1_555
C27_2 H23_2 1_555 1_555

#END
