
###############################################################################
#
# This file contains modified crystal structure data generated from the
# MOF subset of the Cambridge Structural Database (CSD) v543 
# hosted by the Cambridge Crystallographic Data Centre (CCDC).
#
# This work is licensed under the Creative Commons
# Attribution-NonCommercial-ShareAlike 4.0 International License.
# To view a copy of this license, visit
# http://creativecommons.org/licenses/by-nc-sa/4.0/
# or send a letter to
# Creative Commons, PO Box 1866, Mountain View, CA 94042, USA.
#
# CIF created using the CSD Python API on 29 September 2022
# The structure has been converted into the P1 space group
# The structure has a 3D framework
# The original CSD entry IFAGEE is in the cubic crystal system
# The framework has been calculated to contain at least 10.0% void space
# The void calculation uses a probe of radius 1.32A, grid spacing 0.4
# The framework is charged, counterions have been retained in the structure
#
###############################################################################

data_IFAGEE
_chemical_formula_moiety         '(C288 H96 Hf81 O1393 Se288 576-)n'
_symmetry_cell_setting           triclinic
_symmetry_space_group_name_H-M   'P 1'
_symmetry_Int_Tables_number      1
_space_group_name_Hall           'P 1'
loop_
_symmetry_equiv_pos_site_id
_symmetry_equiv_pos_as_xyz
1 x,y,z
_cell_length_a                   35.0872(11)
_cell_length_b                   35.0872(11)
_cell_length_c                   35.0872(11)
_cell_angle_alpha                90
_cell_angle_beta                 90
_cell_angle_gamma                90
_cell_volume                     43196.3
loop_
_atom_site_label
_atom_site_type_symbol
_atom_site_fract_x
_atom_site_fract_y
_atom_site_fract_z
C1 C 0.53147(17) 0.53147(17) 0.6176(2)
C2 C 0.54644(18) 0.54644(18) 0.6552(3)
C3 C 0.5304(3) 0.57823(18) 0.67177(18)
H1 H 0.507879 0.588872 0.661127
Hf1 Hf 0.47761(2) 0.54700(2) 0.54700(2)
O1 O 0.50329(11) 0.54871(11) 0.60372(10)
O2 O 0.5338(3) 0.5338(3) 0.5338(3)
O3 O 0.4406(3) 0.51311(13) 0.51311(13)
C4 C 0.6324(2) 0.53147(17) 0.71853(17)
C5 C 0.5948(3) 0.54644(18) 0.70356(18)
C6 C 0.57823(18) 0.5304(3) 0.67177(18)
H2 H 0.588873 0.507879 0.661128
O4 O 0.64628(10) 0.50329(11) 0.70129(11)
C7 C 0.53147(17) 0.6324(2) 0.71853(17)
C8 C 0.54644(18) 0.5948(3) 0.70356(18)
C9 C 0.57823(18) 0.57823(18) 0.7196(3)
H3 H 0.588872 0.588873 0.742121
O5 O 0.54871(11) 0.64628(10) 0.74671(11)
O6 O 0.50329(11) 0.64628(10) 0.70129(11)
O7 O 0.64628(10) 0.54871(11) 0.74671(11)
O8 O 0.54871(11) 0.50329(11) 0.60372(10)
Hf2 Hf 0.70300(2) 0.47761(2) 0.70300(2)
O9 O 0.73689(13) 0.4406(3) 0.73689(13)
Hf3 Hf 0.54700(2) 0.70300(2) 0.77239(2)
O10 O 0.51311(13) 0.73689(13) 0.8094(3)
Hf4 Hf 0.79700(2) 0.45300(2) 0.72761(2)
Hf5 Hf 0.72761(2) 0.45300(2) 0.79700(2)
Hf6 Hf 0.47761(2) 0.70300(2) 0.70300(2)
Hf7 Hf 0.70300(2) 0.54700(2) 0.77239(2)
Hf8 Hf 0.45300(2) 0.45300(2) 0.52239(2)
Hf9 Hf 0.45300(2) 0.52239(2) 0.45300(2)
Hf10 Hf 0.54700(2) 0.54700(2) 0.47761(2)
Hf11 Hf 0.54700(2) 0.47761(2) 0.54700(2)
Hf12 Hf 0.52239(2) 0.79700(2) 0.79700(2)
Hf13 Hf 0.45300(2) 0.72761(2) 0.79700(2)
O11 O 0.50329(11) 0.60372(10) 0.54871(11)
O12 O 0.60372(10) 0.70129(11) 0.74671(11)
O13 O 0.70129(11) 0.50329(11) 0.64628(10)
O14 O 0.7162(3) 0.5338(3) 0.7162(3)
O15 O 0.5338(3) 0.7162(3) 0.7162(3)
O16 O 0.76311(13) 0.48689(13) 0.6906(3)
O17 O 0.6906(3) 0.48689(13) 0.76311(13)
O18 O 0.48689(13) 0.48689(13) 0.5594(3)
O19 O 0.48689(13) 0.5594(3) 0.48689(13)
O20 O 0.5594(3) 0.76311(13) 0.76311(13)
O21 O 0.48689(13) 0.6906(3) 0.76311(13)
Hf12_2 Hf 0.04700(2) 0.77239(2) 0.20300(2)
O20_2 O 0.01311(13) 0.8094(3) 0.23689(13)
Hf4_2 Hf 0.70300(2) 0.04700(2) 0.27239(2)
O16_2 O 0.73689(13) 0.01311(13) 0.3094(3)
C1_2 C 0.78147(17) 0.78147(17) 0.3824(2)
C2_2 C 0.79644(18) 0.79644(18) 0.3448(3)
C3_2 C 0.82823(18) 0.7804(3) 0.32823(18)
H1_2 H 0.838872 0.757879 0.338873
Hf1_2 Hf 0.79700(2) 0.72761(2) 0.45300(2)
O1_2 O 0.79871(11) 0.75329(11) 0.39628(10)
O2_2 O 0.7838(3) 0.7838(3) 0.4662(3)
O3_2 O 0.76311(13) 0.6906(3) 0.48689(13)
C4_2 C 0.78147(17) 0.8824(2) 0.28147(17)
C5_2 C 0.79644(18) 0.8448(3) 0.29644(18)
C6_2 C 0.7804(3) 0.82823(18) 0.32823(18)
H2_2 H 0.757879 0.838873 0.338872
O4_2 O 0.75329(11) 0.89628(10) 0.29871(11)
C7_2 C 0.8824(2) 0.78147(17) 0.28147(17)
C8_2 C 0.8448(3) 0.79644(18) 0.29644(18)
C9_2 C 0.82823(18) 0.82823(18) 0.2804(3)
H3_2 H 0.838873 0.838872 0.257879
O5_2 O 0.89628(10) 0.79871(11) 0.25329(11)
O6_2 O 0.89628(10) 0.75329(11) 0.29871(11)
O7_2 O 0.79871(11) 0.89628(10) 0.25329(11)
O8_2 O 0.75329(11) 0.79871(11) 0.39628(10)
Hf2_2 Hf 0.72761(2) 0.95300(2) 0.29700(2)
O9_2 O 0.6906(3) 0.98689(13) 0.26311(13)
Hf3_2 Hf 0.95300(2) 0.79700(2) 0.22761(2)
O10_2 O 0.98689(13) 0.76311(13) 0.1906(3)
Hf5_2 Hf 0.70300(2) 0.97761(2) 0.20300(2)
Hf6_2 Hf 0.95300(2) 0.72761(2) 0.29700(2)
Hf7_2 Hf 0.79700(2) 0.95300(2) 0.22761(2)
Hf8_2 Hf 0.70300(2) 0.70300(2) 0.47761(2)
Hf9_2 Hf 0.77239(2) 0.70300(2) 0.54700(2)
Hf10_2 Hf 0.79700(2) 0.79700(2) 0.52239(2)
Hf11_2 Hf 0.72761(2) 0.79700(2) 0.45300(2)
Hf13_2 Hf 0.97761(2) 0.70300(2) 0.20300(2)
O11_2 O 0.85372(10) 0.75329(11) 0.45129(11)
O12_2 O 0.95129(11) 0.85372(10) 0.25329(11)
O13_2 O 0.75329(11) 0.95129(11) 0.35372(10)
O14_2 O 0.7838(3) 0.9662(3) 0.2838(3)
O15_2 O 0.9662(3) 0.7838(3) 0.2838(3)
O17_2 O 0.73689(13) 0.9406(3) 0.23689(13)
O18_2 O 0.73689(13) 0.73689(13) 0.4406(3)
O19_2 O 0.8094(3) 0.73689(13) 0.51311(13)
O21_2 O 0.9406(3) 0.73689(13) 0.23689(13)
Hf4_3 Hf 0.04700(2) 0.27239(2) 0.70300(2)
O16_3 O 0.01311(13) 0.3094(3) 0.73689(13)
Hf12_3 Hf 0.77239(2) 0.20300(2) 0.04700(2)
O20_3 O 0.8094(3) 0.23689(13) 0.01311(13)
C1_3 C 0.78147(17) 0.3824(2) 0.78147(17)
C2_3 C 0.79644(18) 0.3448(3) 0.79644(18)
C3_3 C 0.7804(3) 0.32823(18) 0.82823(18)
H1_3 H 0.757879 0.338873 0.838872
O1_3 O 0.75329(11) 0.39628(10) 0.79871(11)
O2_3 O 0.7838(3) 0.4662(3) 0.7838(3)
C4_3 C 0.8824(2) 0.28147(17) 0.78147(17)
C5_3 C 0.8448(3) 0.29644(18) 0.79644(18)
C6_3 C 0.82823(18) 0.32823(18) 0.7804(3)
H2_3 H 0.838873 0.338872 0.757879
O4_3 O 0.89628(10) 0.29871(11) 0.75329(11)
C7_3 C 0.78147(17) 0.28147(17) 0.8824(2)
C8_3 C 0.79644(18) 0.29644(18) 0.8448(3)
C9_3 C 0.82823(18) 0.2804(3) 0.82823(18)
H3_3 H 0.838872 0.257879 0.838873
O5_3 O 0.79871(11) 0.25329(11) 0.89628(10)
O6_3 O 0.75329(11) 0.29871(11) 0.89628(10)
O7_3 O 0.89628(10) 0.25329(11) 0.79871(11)
O8_3 O 0.79871(11) 0.39628(10) 0.75329(11)
Hf2_3 Hf 0.95300(2) 0.29700(2) 0.72761(2)
O9_3 O 0.98689(13) 0.26311(13) 0.6906(3)
Hf3_3 Hf 0.79700(2) 0.22761(2) 0.95300(2)
O10_3 O 0.76311(13) 0.1906(3) 0.98689(13)
Hf5_3 Hf 0.97761(2) 0.20300(2) 0.70300(2)
Hf6_3 Hf 0.72761(2) 0.29700(2) 0.95300(2)
Hf7_3 Hf 0.95300(2) 0.22761(2) 0.79700(2)
Hf10_3 Hf 0.79700(2) 0.52239(2) 0.79700(2)
Hf13_3 Hf 0.70300(2) 0.20300(2) 0.97761(2)
O11_3 O 0.75329(11) 0.45129(11) 0.85372(10)
O12_3 O 0.85372(10) 0.25329(11) 0.95129(11)
O13_3 O 0.95129(11) 0.35372(10) 0.75329(11)
O14_3 O 0.9662(3) 0.2838(3) 0.7838(3)
O15_3 O 0.7838(3) 0.2838(3) 0.9662(3)
O17_3 O 0.9406(3) 0.23689(13) 0.73689(13)
O19_3 O 0.73689(13) 0.51311(13) 0.8094(3)
O21_3 O 0.73689(13) 0.23689(13) 0.9406(3)
Hf12_4 Hf 0.20300(2) 0.04700(2) 0.77239(2)
O20_4 O 0.23689(13) 0.01311(13) 0.8094(3)
Hf4_4 Hf 0.27239(2) 0.70300(2) 0.04700(2)
O16_4 O 0.3094(3) 0.73689(13) 0.01311(13)
C1_4 C 0.3824(2) 0.78147(17) 0.78147(17)
C2_4 C 0.3448(3) 0.79644(18) 0.79644(18)
C3_4 C 0.32823(18) 0.82823(18) 0.7804(3)
H1_4 H 0.338873 0.838872 0.757879
Hf1_3 Hf 0.45300(2) 0.79700(2) 0.72761(2)
O1_4 O 0.39628(10) 0.79871(11) 0.75329(11)
O2_4 O 0.4662(3) 0.7838(3) 0.7838(3)
O3_3 O 0.48689(13) 0.76311(13) 0.6906(3)
C4_4 C 0.28147(17) 0.78147(17) 0.8824(2)
C5_4 C 0.29644(18) 0.79644(18) 0.8448(3)
C6_4 C 0.32823(18) 0.7804(3) 0.82823(18)
H2_4 H 0.338872 0.757879 0.838873
O4_4 O 0.29871(11) 0.75329(11) 0.89628(10)
C7_4 C 0.28147(17) 0.8824(2) 0.78147(17)
C8_4 C 0.29644(18) 0.8448(3) 0.79644(18)
C9_4 C 0.2804(3) 0.82823(18) 0.82823(18)
H3_4 H 0.257879 0.838873 0.838872
O5_4 O 0.25329(11) 0.89628(10) 0.79871(11)
O6_4 O 0.29871(11) 0.89628(10) 0.75329(11)
O7_4 O 0.25329(11) 0.79871(11) 0.89628(10)
O8_4 O 0.39628(10) 0.75329(11) 0.79871(11)
Hf2_4 Hf 0.29700(2) 0.72761(2) 0.95300(2)
O9_4 O 0.26311(13) 0.6906(3) 0.98689(13)
Hf3_4 Hf 0.22761(2) 0.95300(2) 0.79700(2)
O10_4 O 0.1906(3) 0.98689(13) 0.76311(13)
Hf5_4 Hf 0.20300(2) 0.70300(2) 0.97761(2)
Hf6_4 Hf 0.29700(2) 0.95300(2) 0.72761(2)
Hf7_4 Hf 0.22761(2) 0.79700(2) 0.95300(2)
Hf9_3 Hf 0.54700(2) 0.77239(2) 0.70300(2)
Hf13_4 Hf 0.20300(2) 0.97761(2) 0.70300(2)
O11_4 O 0.45129(11) 0.85372(10) 0.75329(11)
O12_4 O 0.25329(11) 0.95129(11) 0.85372(10)
O13_4 O 0.35372(10) 0.75329(11) 0.95129(11)
O14_4 O 0.2838(3) 0.7838(3) 0.9662(3)
O15_4 O 0.2838(3) 0.9662(3) 0.7838(3)
O17_4 O 0.23689(13) 0.73689(13) 0.9406(3)
O18_3 O 0.4406(3) 0.73689(13) 0.73689(13)
O19_4 O 0.51311(13) 0.8094(3) 0.73689(13)
O21_4 O 0.23689(13) 0.9406(3) 0.73689(13)
Hf12_5 Hf 0.04700(2) 0.04700(2) 0.47761(2)
O20_5 O 0.01311(13) 0.01311(13) 0.4406(3)
Hf3_5 Hf 0.02239(2) 0.95300(2) 0.45300(2)
O10_5 O 0.0594(3) 0.98689(13) 0.48689(13)
Hf5_5 Hf 0.04700(2) 0.70300(2) 0.27239(2)
Hf7_5 Hf 0.02239(2) 0.79700(2) 0.29700(2)
Hf13_5 Hf 0.04700(2) 0.97761(2) 0.54700(2)
O17_5 O 0.01311(13) 0.73689(13) 0.3094(3)
O21_5 O 0.01311(13) 0.9406(3) 0.51311(13)
C1_5 C 0.8676(2) 0.78147(17) 0.46853(17)
C2_5 C 0.9052(3) 0.79644(18) 0.45356(18)
C3_5 C 0.92177(18) 0.82823(18) 0.4696(3)
H1_5 H 0.911127 0.838872 0.492121
O1_5 O 0.85372(10) 0.79871(11) 0.49671(11)
O3_4 O 0.76311(13) 0.76311(13) 0.5594(3)
C4_5 C 0.96853(17) 0.78147(17) 0.3676(2)
C5_5 C 0.95356(18) 0.79644(18) 0.4052(3)
C6_5 C 0.92177(18) 0.7804(3) 0.42177(18)
H2_5 H 0.911128 0.757879 0.411127
O4_5 O 0.95129(11) 0.75329(11) 0.35372(10)
C7_5 C 0.96853(17) 0.8824(2) 0.46853(17)
C8_5 C 0.95356(18) 0.8448(3) 0.45356(18)
C9_5 C 0.9696(3) 0.82823(18) 0.42177(18)
H3_5 H 0.992121 0.838873 0.411128
O5_5 O 0.99671(11) 0.89628(10) 0.45129(11)
O6_5 O 0.95129(11) 0.89628(10) 0.49671(11)
O7_5 O 0.99671(11) 0.79871(11) 0.35372(10)
O9_5 O 0.98689(13) 0.6906(3) 0.26311(13)
Hf6_5 Hf 0.95300(2) 0.95300(2) 0.52239(2)
Hf9_4 Hf 0.70300(2) 0.77239(2) 0.54700(2)
O11_5 O 0.79871(11) 0.85372(10) 0.49671(11)
O12_5 O 0.99671(11) 0.95129(11) 0.39628(10)
O15_5 O 0.9662(3) 0.9662(3) 0.4662(3)
O19_5 O 0.73689(13) 0.8094(3) 0.51311(13)
Hf10_4 Hf 0.77239(2) 0.54700(2) 0.70300(2)
Hf3_6 Hf 0.79700(2) 0.02239(2) 0.29700(2)
O10_6 O 0.76311(13) 0.0594(3) 0.26311(13)
Hf5_6 Hf 0.97761(2) 0.04700(2) 0.54700(2)
Hf7_6 Hf 0.95300(2) 0.02239(2) 0.45300(2)
Hf12_6 Hf 0.77239(2) 0.04700(2) 0.20300(2)
O17_6 O 0.9406(3) 0.01311(13) 0.51311(13)
O20_6 O 0.8094(3) 0.01311(13) 0.23689(13)
C1_6 C 0.78147(17) 0.8676(2) 0.46853(17)
C2_6 C 0.79644(18) 0.9052(3) 0.45356(18)
C3_6 C 0.7804(3) 0.92177(18) 0.42177(18)
H1_6 H 0.757879 0.911127 0.411128
O1_6 O 0.75329(11) 0.85372(10) 0.45129(11)
O3_5 O 0.6906(3) 0.76311(13) 0.48689(13)
C4_6 C 0.8824(2) 0.96853(17) 0.46853(17)
C5_6 C 0.8448(3) 0.95356(18) 0.45356(18)
C6_6 C 0.82823(18) 0.92177(18) 0.4696(3)
H2_6 H 0.838873 0.911128 0.492121
O4_6 O 0.89628(10) 0.95129(11) 0.49671(11)
C7_6 C 0.78147(17) 0.96853(17) 0.3676(2)
C8_6 C 0.79644(18) 0.95356(18) 0.4052(3)
C9_6 C 0.82823(18) 0.9696(3) 0.42177(18)
H3_6 H 0.838872 0.992121 0.411127
O5_6 O 0.79871(11) 0.99671(11) 0.35372(10)
O7_6 O 0.89628(10) 0.99671(11) 0.45129(11)
O9_6 O 0.98689(13) 0.98689(13) 0.5594(3)
O12_6 O 0.85372(10) 0.99671(11) 0.29871(11)
Hf12_7 Hf 0.04700(2) 0.47761(2) 0.04700(2)
O20_7 O 0.01311(13) 0.4406(3) 0.01311(13)
Hf3_7 Hf 0.95300(2) 0.45300(2) 0.02239(2)
O10_7 O 0.98689(13) 0.48689(13) 0.0594(3)
Hf5_7 Hf 0.70300(2) 0.27239(2) 0.04700(2)
Hf7_7 Hf 0.79700(2) 0.29700(2) 0.02239(2)
Hf13_6 Hf 0.97761(2) 0.54700(2) 0.04700(2)
O17_7 O 0.73689(13) 0.3094(3) 0.01311(13)
O21_6 O 0.9406(3) 0.51311(13) 0.01311(13)
C1_7 C 0.78147(17) 0.46853(17) 0.8676(2)
C2_7 C 0.79644(18) 0.45356(18) 0.9052(3)
C3_7 C 0.82823(18) 0.4696(3) 0.92177(18)
H1_7 H 0.838872 0.492121 0.911127
O1_7 O 0.79871(11) 0.49671(11) 0.85372(10)
O3_6 O 0.76311(13) 0.5594(3) 0.76311(13)
C4_7 C 0.78147(17) 0.3676(2) 0.96853(17)
C5_7 C 0.79644(18) 0.4052(3) 0.95356(18)
C6_7 C 0.7804(3) 0.42177(18) 0.92177(18)
H2_7 H 0.757879 0.411127 0.911128
O4_7 O 0.75329(11) 0.35372(10) 0.95129(11)
C7_7 C 0.8824(2) 0.46853(17) 0.96853(17)
C8_7 C 0.8448(3) 0.45356(18) 0.95356(18)
C9_7 C 0.82823(18) 0.42177(18) 0.9696(3)
H3_7 H 0.838873 0.411128 0.992121
O5_7 O 0.89628(10) 0.45129(11) 0.99671(11)
O6_6 O 0.89628(10) 0.49671(11) 0.95129(11)
O7_7 O 0.79871(11) 0.35372(10) 0.99671(11)
O9_7 O 0.6906(3) 0.26311(13) 0.98689(13)
Hf6_6 Hf 0.95300(2) 0.52239(2) 0.95300(2)
O11_6 O 0.85372(10) 0.49671(11) 0.79871(11)
O12_7 O 0.95129(11) 0.39628(10) 0.99671(11)
O15_6 O 0.9662(3) 0.4662(3) 0.9662(3)
O19_6 O 0.8094(3) 0.51311(13) 0.73689(13)
C1_8 C 0.53147(17) 0.71853(17) 0.6324(2)
C2_8 C 0.54644(18) 0.70356(18) 0.5948(3)
C3_8 C 0.5304(3) 0.67177(18) 0.57823(18)
H1_8 H 0.507879 0.661128 0.588873
O1_8 O 0.50329(11) 0.70129(11) 0.64628(10)
C4_8 C 0.6324(2) 0.71853(17) 0.53147(17)
C5_8 C 0.5948(3) 0.70356(18) 0.54644(18)
C6_8 C 0.57823(18) 0.7196(3) 0.57823(18)
H2_8 H 0.588873 0.742121 0.588872
O4_8 O 0.64628(10) 0.74671(11) 0.54871(11)
C7_8 C 0.53147(17) 0.6176(2) 0.53147(17)
C8_8 C 0.54644(18) 0.6552(3) 0.54644(18)
C9_8 C 0.57823(18) 0.67177(18) 0.5304(3)
H3_8 H 0.588872 0.661127 0.507879
O5_8 O 0.54871(11) 0.60372(10) 0.50329(11)
O7_8 O 0.64628(10) 0.70129(11) 0.50329(11)
O8_5 O 0.54871(11) 0.74671(11) 0.64628(10)
O10_8 O 0.51311(13) 0.51311(13) 0.4406(3)
Hf12_8 Hf 0.52239(2) 0.45300(2) 0.45300(2)
O12_8 O 0.60372(10) 0.54871(11) 0.50329(11)
O13_5 O 0.70129(11) 0.74671(11) 0.60372(10)
O14_5 O 0.7162(3) 0.7162(3) 0.5338(3)
O20_8 O 0.5594(3) 0.48689(13) 0.48689(13)
C1_9 C 0.71853(17) 0.71853(17) 0.6176(2)
C2_9 C 0.70356(18) 0.70356(18) 0.6552(3)
C3_9 C 0.7196(3) 0.67177(18) 0.67177(18)
H1_9 H 0.742121 0.661128 0.661127
O1_9 O 0.74671(11) 0.70129(11) 0.60372(10)
C4_9 C 0.6176(2) 0.71853(17) 0.71853(17)
C5_9 C 0.6552(3) 0.70356(18) 0.70356(18)
C6_9 C 0.67177(18) 0.7196(3) 0.67177(18)
H2_9 H 0.661127 0.742121 0.661128
O4_9 O 0.60372(10) 0.74671(11) 0.70129(11)
C7_9 C 0.71853(17) 0.6176(2) 0.71853(17)
C8_9 C 0.70356(18) 0.6552(3) 0.70356(18)
C9_9 C 0.67177(18) 0.67177(18) 0.7196(3)
H3_9 H 0.661128 0.661127 0.742121
O5_9 O 0.70129(11) 0.60372(10) 0.74671(11)
O6_7 O 0.74671(11) 0.60372(10) 0.70129(11)
O11_7 O 0.74671(11) 0.64628(10) 0.54871(11)
C1_10 C 0.46853(17) 0.46853(17) 0.3824(2)
C2_10 C 0.45356(18) 0.45356(18) 0.3448(3)
C3_10 C 0.42177(18) 0.4696(3) 0.32823(18)
H1_10 H 0.411128 0.492121 0.338873
O1_10 O 0.45129(11) 0.49671(11) 0.39628(10)
O2_5 O 0.4662(3) 0.4662(3) 0.4662(3)
C4_10 C 0.46853(17) 0.3676(2) 0.28147(17)
C5_10 C 0.45356(18) 0.4052(3) 0.29644(18)
C6_10 C 0.4696(3) 0.42177(18) 0.32823(18)
H2_10 H 0.492121 0.411127 0.338872
O4_10 O 0.49671(11) 0.35372(10) 0.29871(11)
C7_10 C 0.3676(2) 0.46853(17) 0.28147(17)
C8_10 C 0.4052(3) 0.45356(18) 0.29644(18)
C9_10 C 0.42177(18) 0.42177(18) 0.2804(3)
H3_10 H 0.411127 0.411128 0.257879
O5_10 O 0.35372(10) 0.45129(11) 0.25329(11)
O6_8 O 0.35372(10) 0.49671(11) 0.29871(11)
O7_9 O 0.45129(11) 0.35372(10) 0.25329(11)
O8_6 O 0.49671(11) 0.45129(11) 0.39628(10)
Hf2_5 Hf 0.52239(2) 0.29700(2) 0.29700(2)
O9_8 O 0.5594(3) 0.26311(13) 0.26311(13)
Hf3_8 Hf 0.29700(2) 0.45300(2) 0.22761(2)
O10_9 O 0.26311(13) 0.48689(13) 0.1906(3)
Hf4_5 Hf 0.54700(2) 0.20300(2) 0.27239(2)
Hf5_8 Hf 0.54700(2) 0.27239(2) 0.20300(2)
Hf6_7 Hf 0.29700(2) 0.52239(2) 0.29700(2)
Hf7_8 Hf 0.45300(2) 0.29700(2) 0.22761(2)
Hf12_9 Hf 0.20300(2) 0.47761(2) 0.20300(2)
Hf13_7 Hf 0.27239(2) 0.54700(2) 0.20300(2)
O11_8 O 0.39628(10) 0.49671(11) 0.45129(11)
O12_9 O 0.29871(11) 0.39628(10) 0.25329(11)
O13_6 O 0.49671(11) 0.29871(11) 0.35372(10)
O14_6 O 0.4662(3) 0.2838(3) 0.2838(3)
O15_7 O 0.2838(3) 0.4662(3) 0.2838(3)
O16_5 O 0.51311(13) 0.23689(13) 0.3094(3)
O17_8 O 0.51311(13) 0.3094(3) 0.23689(13)
O20_9 O 0.23689(13) 0.4406(3) 0.23689(13)
O21_7 O 0.3094(3) 0.51311(13) 0.23689(13)
C1_11 C 0.3824(2) 0.46853(17) 0.46853(17)
C2_11 C 0.3448(3) 0.45356(18) 0.45356(18)
C3_11 C 0.32823(18) 0.42177(18) 0.4696(3)
H1_11 H 0.338873 0.411128 0.492121
O1_11 O 0.39628(10) 0.45129(11) 0.49671(11)
C4_11 C 0.28147(17) 0.46853(17) 0.3676(2)
C5_11 C 0.29644(18) 0.45356(18) 0.4052(3)
C6_11 C 0.32823(18) 0.4696(3) 0.42177(18)
H2_11 H 0.338872 0.492121 0.411127
O4_11 O 0.29871(11) 0.49671(11) 0.35372(10)
C7_11 C 0.28147(17) 0.3676(2) 0.46853(17)
C8_11 C 0.29644(18) 0.4052(3) 0.45356(18)
C9_11 C 0.2804(3) 0.42177(18) 0.42177(18)
H3_11 H 0.257879 0.411127 0.411128
O5_11 O 0.25329(11) 0.35372(10) 0.45129(11)
O6_9 O 0.29871(11) 0.35372(10) 0.49671(11)
O7_10 O 0.25329(11) 0.45129(11) 0.35372(10)
O9_9 O 0.26311(13) 0.5594(3) 0.26311(13)
Hf3_9 Hf 0.22761(2) 0.29700(2) 0.45300(2)
O10_10 O 0.1906(3) 0.26311(13) 0.48689(13)
Hf5_9 Hf 0.20300(2) 0.54700(2) 0.27239(2)
Hf6_8 Hf 0.29700(2) 0.29700(2) 0.52239(2)
Hf7_9 Hf 0.22761(2) 0.45300(2) 0.29700(2)
Hf12_10 Hf 0.20300(2) 0.20300(2) 0.47761(2)
Hf13_8 Hf 0.20300(2) 0.27239(2) 0.54700(2)
O11_9 O 0.45129(11) 0.39628(10) 0.49671(11)
O12_10 O 0.25329(11) 0.29871(11) 0.39628(10)
O15_8 O 0.2838(3) 0.2838(3) 0.4662(3)
O17_9 O 0.23689(13) 0.51311(13) 0.3094(3)
O19_7 O 0.51311(13) 0.4406(3) 0.51311(13)
O20_10 O 0.23689(13) 0.23689(13) 0.4406(3)
O21_8 O 0.23689(13) 0.3094(3) 0.51311(13)
C1_12 C 0.53147(17) 0.03147(17) 0.1176(2)
C2_12 C 0.54644(18) 0.04644(18) 0.1552(3)
C3_12 C 0.5304(3) 0.07823(18) 0.17177(18)
H1_12 H 0.507879 0.088872 0.161127
Hf1_4 Hf 0.47761(2) 0.04700(2) 0.04700(2)
O1_12 O 0.50329(11) 0.04871(11) 0.10372(10)
O2_6 O 0.5338(3) 0.0338(3) 0.0338(3)
O3_7 O 0.4406(3) 0.01311(13) 0.01311(13)
C4_12 C 0.6324(2) 0.03147(17) 0.21853(17)
C5_12 C 0.5948(3) 0.04644(18) 0.20356(18)
C6_12 C 0.57823(18) 0.0304(3) 0.17177(18)
H2_12 H 0.588873 0.007879 0.161128
O4_12 O 0.64628(10) 0.00329(11) 0.20129(11)
C7_12 C 0.53147(17) 0.1324(2) 0.21853(17)
C8_12 C 0.54644(18) 0.0948(3) 0.20356(18)
C9_12 C 0.57823(18) 0.07823(18) 0.2196(3)
H3_12 H 0.588872 0.088873 0.242121
O5_12 O 0.54871(11) 0.14628(10) 0.24671(11)
O6_10 O 0.50329(11) 0.14628(10) 0.20129(11)
O7_11 O 0.64628(10) 0.04871(11) 0.24671(11)
O8_7 O 0.54871(11) 0.00329(11) 0.10372(10)
Hf6_9 Hf 0.47761(2) 0.20300(2) 0.20300(2)
Hf13_9 Hf 0.45300(2) 0.22761(2) 0.29700(2)
O11_10 O 0.50329(11) 0.10372(10) 0.04871(11)
O12_11 O 0.60372(10) 0.20129(11) 0.24671(11)
O13_7 O 0.70129(11) 0.00329(11) 0.14628(10)
O14_7 O 0.7162(3) 0.0338(3) 0.2162(3)
O15_9 O 0.5338(3) 0.2162(3) 0.2162(3)
O21_9 O 0.48689(13) 0.1906(3) 0.26311(13)
Hf9_5 Hf 0.45300(2) 0.02239(2) 0.95300(2)
Hf10_5 Hf 0.54700(2) 0.04700(2) 0.97761(2)
O19_8 O 0.48689(13) 0.0594(3) 0.98689(13)
Hf8_3 Hf 0.45300(2) 0.95300(2) 0.02239(2)
Hf11_3 Hf 0.54700(2) 0.97761(2) 0.04700(2)
O16_6 O 0.76311(13) 0.98689(13) 0.1906(3)
O18_4 O 0.48689(13) 0.98689(13) 0.0594(3)
C1_13 C 0.3824(2) 0.28147(17) 0.28147(17)
C2_13 C 0.3448(3) 0.29644(18) 0.29644(18)
C3_13 C 0.32823(18) 0.32823(18) 0.2804(3)
H1_13 H 0.338873 0.338872 0.257879
O1_13 O 0.39628(10) 0.29871(11) 0.25329(11)
O3_8 O 0.48689(13) 0.26311(13) 0.1906(3)
C4_13 C 0.28147(17) 0.28147(17) 0.3824(2)
C5_13 C 0.29644(18) 0.29644(18) 0.3448(3)
C6_13 C 0.32823(18) 0.2804(3) 0.32823(18)
H2_13 H 0.338872 0.257879 0.338873
O4_13 O 0.29871(11) 0.25329(11) 0.39628(10)
C7_13 C 0.28147(17) 0.3824(2) 0.28147(17)
C8_13 C 0.29644(18) 0.3448(3) 0.29644(18)
C9_13 C 0.2804(3) 0.32823(18) 0.32823(18)
H3_13 H 0.257879 0.338873 0.338872
O5_13 O 0.25329(11) 0.39628(10) 0.29871(11)
O8_8 O 0.39628(10) 0.25329(11) 0.29871(11)
Hf2_6 Hf 0.29700(2) 0.22761(2) 0.45300(2)
O9_10 O 0.26311(13) 0.1906(3) 0.48689(13)
O10_11 O 0.1906(3) 0.48689(13) 0.26311(13)
Hf4_6 Hf 0.27239(2) 0.20300(2) 0.54700(2)
O13_8 O 0.35372(10) 0.25329(11) 0.45129(11)
O16_7 O 0.3094(3) 0.23689(13) 0.51311(13)
O18_5 O 0.4406(3) 0.23689(13) 0.23689(13)
Hf3_10 Hf 0.02239(2) 0.45300(2) 0.95300(2)
O10_12 O 0.0594(3) 0.48689(13) 0.98689(13)
Hf5_10 Hf 0.04700(2) 0.20300(2) 0.77239(2)
Hf7_10 Hf 0.02239(2) 0.29700(2) 0.79700(2)
Hf12_11 Hf 0.04700(2) 0.54700(2) 0.97761(2)
O17_10 O 0.01311(13) 0.23689(13) 0.8094(3)
O20_11 O 0.01311(13) 0.51311(13) 0.9406(3)
O3_9 O 0.76311(13) 0.26311(13) 0.0594(3)
C1_14 C 0.8676(2) 0.28147(17) 0.96853(17)
C2_14 C 0.9052(3) 0.29644(18) 0.95356(18)
C3_14 C 0.92177(18) 0.32823(18) 0.9696(3)
H1_14 H 0.911127 0.338872 0.992121
O1_14 O 0.85372(10) 0.29871(11) 0.99671(11)
C4_14 C 0.96853(17) 0.28147(17) 0.8676(2)
C5_14 C 0.95356(18) 0.29644(18) 0.9052(3)
C6_14 C 0.92177(18) 0.2804(3) 0.92177(18)
H2_14 H 0.911128 0.257879 0.911127
O4_14 O 0.95129(11) 0.25329(11) 0.85372(10)
C7_14 C 0.96853(17) 0.3824(2) 0.96853(17)
C8_14 C 0.95356(18) 0.3448(3) 0.95356(18)
C9_14 C 0.9696(3) 0.32823(18) 0.92177(18)
H3_14 H 0.992121 0.338873 0.911128
O5_14 O 0.99671(11) 0.39628(10) 0.95129(11)
O7_12 O 0.99671(11) 0.29871(11) 0.85372(10)
O9_11 O 0.98689(13) 0.1906(3) 0.76311(13)
O12_12 O 0.99671(11) 0.45129(11) 0.89628(10)
C1_15 C 0.53147(17) 0.21853(17) 0.1324(2)
C2_15 C 0.54644(18) 0.20356(18) 0.0948(3)
C3_15 C 0.5304(3) 0.17177(18) 0.07823(18)
H1_15 H 0.507879 0.161128 0.088873
O1_15 O 0.50329(11) 0.20129(11) 0.14628(10)
C4_15 C 0.6324(2) 0.21853(17) 0.03147(17)
C5_15 C 0.5948(3) 0.20356(18) 0.04644(18)
C6_15 C 0.57823(18) 0.2196(3) 0.07823(18)
H2_15 H 0.588873 0.242121 0.088872
O4_15 O 0.64628(10) 0.24671(11) 0.04871(11)
C7_15 C 0.53147(17) 0.1176(2) 0.03147(17)
C8_15 C 0.54644(18) 0.1552(3) 0.04644(18)
C9_15 C 0.57823(18) 0.17177(18) 0.0304(3)
H3_15 H 0.588872 0.161127 0.007879
O5_15 O 0.54871(11) 0.10372(10) 0.00329(11)
O7_13 O 0.64628(10) 0.20129(11) 0.00329(11)
O8_9 O 0.54871(11) 0.24671(11) 0.14628(10)
O12_13 O 0.60372(10) 0.04871(11) 0.00329(11)
O13_9 O 0.70129(11) 0.24671(11) 0.10372(10)
O14_8 O 0.7162(3) 0.2162(3) 0.0338(3)
O10_13 O 0.51311(13) 0.01311(13) 0.9406(3)
Hf12_12 Hf 0.52239(2) 0.95300(2) 0.95300(2)
O20_12 O 0.5594(3) 0.98689(13) 0.98689(13)
C1_16 C 0.71853(17) 0.21853(17) 0.1176(2)
C2_16 C 0.70356(18) 0.20356(18) 0.1552(3)
C3_16 C 0.7196(3) 0.17177(18) 0.17177(18)
H1_16 H 0.742121 0.161128 0.161127
O1_16 O 0.74671(11) 0.20129(11) 0.10372(10)
C4_16 C 0.6176(2) 0.21853(17) 0.21853(17)
C5_16 C 0.6552(3) 0.20356(18) 0.20356(18)
C6_16 C 0.67177(18) 0.2196(3) 0.17177(18)
H2_16 H 0.661127 0.242121 0.161128
O4_16 O 0.60372(10) 0.24671(11) 0.20129(11)
C7_16 C 0.71853(17) 0.1176(2) 0.21853(17)
C8_16 C 0.70356(18) 0.1552(3) 0.20356(18)
C9_16 C 0.67177(18) 0.17177(18) 0.2196(3)
H3_16 H 0.661128 0.161127 0.242121
O5_16 O 0.70129(11) 0.10372(10) 0.24671(11)
O6_11 O 0.74671(11) 0.10372(10) 0.20129(11)
O11_11 O 0.74671(11) 0.14628(10) 0.04871(11)
Hf6_10 Hf 0.29700(2) 0.02239(2) 0.79700(2)
Hf13_10 Hf 0.27239(2) 0.04700(2) 0.70300(2)
O21_10 O 0.3094(3) 0.01311(13) 0.73689(13)
C1_17 C 0.46853(17) 0.96853(17) 0.8824(2)
C2_17 C 0.45356(18) 0.95356(18) 0.8448(3)
C3_17 C 0.42177(18) 0.9696(3) 0.82823(18)
H1_17 H 0.411128 0.992121 0.838873
O1_17 O 0.45129(11) 0.99671(11) 0.89628(10)
O2_7 O 0.4662(3) 0.9662(3) 0.9662(3)
C4_17 C 0.46853(17) 0.8676(2) 0.78147(17)
C5_17 C 0.45356(18) 0.9052(3) 0.79644(18)
C6_17 C 0.4696(3) 0.92177(18) 0.82823(18)
H2_17 H 0.492121 0.911127 0.838872
O4_17 O 0.49671(11) 0.85372(10) 0.79871(11)
C7_17 C 0.3676(2) 0.96853(17) 0.78147(17)
C8_17 C 0.4052(3) 0.95356(18) 0.79644(18)
C9_17 C 0.42177(18) 0.92177(18) 0.7804(3)
H3_17 H 0.411127 0.911128 0.757879
O5_17 O 0.35372(10) 0.95129(11) 0.75329(11)
O6_12 O 0.35372(10) 0.99671(11) 0.79871(11)
O8_10 O 0.49671(11) 0.95129(11) 0.89628(10)
O10_14 O 0.26311(13) 0.98689(13) 0.6906(3)
O11_12 O 0.39628(10) 0.99671(11) 0.95129(11)
O13_10 O 0.49671(11) 0.79871(11) 0.85372(10)
O9_12 O 0.26311(13) 0.0594(3) 0.76311(13)
Hf6_11 Hf 0.29700(2) 0.79700(2) 0.02239(2)
Hf13_11 Hf 0.20300(2) 0.77239(2) 0.04700(2)
O19_9 O 0.51311(13) 0.9406(3) 0.01311(13)
O21_11 O 0.23689(13) 0.8094(3) 0.01311(13)
C1_18 C 0.3824(2) 0.96853(17) 0.96853(17)
C2_18 C 0.3448(3) 0.95356(18) 0.95356(18)
C3_18 C 0.32823(18) 0.92177(18) 0.9696(3)
H1_18 H 0.338873 0.911128 0.992121
O1_18 O 0.39628(10) 0.95129(11) 0.99671(11)
C4_18 C 0.28147(17) 0.96853(17) 0.8676(2)
C5_18 C 0.29644(18) 0.95356(18) 0.9052(3)
C6_18 C 0.32823(18) 0.9696(3) 0.92177(18)
H2_18 H 0.338872 0.992121 0.911127
O4_18 O 0.29871(11) 0.99671(11) 0.85372(10)
C7_18 C 0.28147(17) 0.8676(2) 0.96853(17)
C8_18 C 0.29644(18) 0.9052(3) 0.95356(18)
C9_18 C 0.2804(3) 0.92177(18) 0.92177(18)
H3_18 H 0.257879 0.911127 0.911128
O5_18 O 0.25329(11) 0.85372(10) 0.95129(11)
O6_13 O 0.29871(11) 0.85372(10) 0.99671(11)
O10_15 O 0.1906(3) 0.76311(13) 0.98689(13)
O11_13 O 0.45129(11) 0.89628(10) 0.99671(11)
C1_19 C 0.03147(17) 0.53147(17) 0.1176(2)
C2_19 C 0.04644(18) 0.54644(18) 0.1552(3)
C3_19 C 0.0304(3) 0.57823(18) 0.17177(18)
H1_19 H 0.007879 0.588872 0.161127
O1_19 O 0.00329(11) 0.54871(11) 0.10372(10)
O2_8 O 0.0338(3) 0.5338(3) 0.0338(3)
C4_19 C 0.1324(2) 0.53147(17) 0.21853(17)
C5_19 C 0.0948(3) 0.54644(18) 0.20356(18)
C6_19 C 0.07823(18) 0.5304(3) 0.17177(18)
H2_19 H 0.088873 0.507879 0.161128
O4_19 O 0.14628(10) 0.50329(11) 0.20129(11)
C7_19 C 0.03147(17) 0.6324(2) 0.21853(17)
C8_19 C 0.04644(18) 0.5948(3) 0.20356(18)
C9_19 C 0.07823(18) 0.57823(18) 0.2196(3)
H3_19 H 0.088872 0.588873 0.242121
O5_19 O 0.04871(11) 0.64628(10) 0.24671(11)
O6_14 O 0.00329(11) 0.64628(10) 0.20129(11)
O7_14 O 0.14628(10) 0.54871(11) 0.24671(11)
O8_11 O 0.04871(11) 0.50329(11) 0.10372(10)
O11_14 O 0.00329(11) 0.60372(10) 0.04871(11)
O12_14 O 0.10372(10) 0.70129(11) 0.24671(11)
O13_11 O 0.20129(11) 0.50329(11) 0.14628(10)
O14_9 O 0.2162(3) 0.5338(3) 0.2162(3)
O15_10 O 0.0338(3) 0.7162(3) 0.2162(3)
O20_13 O 0.0594(3) 0.76311(13) 0.26311(13)
O19_10 O 0.98689(13) 0.5594(3) 0.98689(13)
O3_10 O 0.26311(13) 0.76311(13) 0.0594(3)
C1_20 C 0.3676(2) 0.78147(17) 0.96853(17)
C2_20 C 0.4052(3) 0.79644(18) 0.95356(18)
C3_20 C 0.42177(18) 0.82823(18) 0.9696(3)
H1_20 H 0.411127 0.838872 0.992121
O1_20 O 0.35372(10) 0.79871(11) 0.99671(11)
C4_20 C 0.46853(17) 0.78147(17) 0.8676(2)
C5_20 C 0.45356(18) 0.79644(18) 0.9052(3)
C6_20 C 0.42177(18) 0.7804(3) 0.92177(18)
H2_20 H 0.411128 0.757879 0.911127
O4_20 O 0.45129(11) 0.75329(11) 0.85372(10)
C7_20 C 0.46853(17) 0.8824(2) 0.96853(17)
C8_20 C 0.45356(18) 0.8448(3) 0.95356(18)
C9_20 C 0.4696(3) 0.82823(18) 0.92177(18)
H3_20 H 0.492121 0.838873 0.911128
O5_20 O 0.49671(11) 0.89628(10) 0.95129(11)
C1_21 C 0.03147(17) 0.71853(17) 0.1324(2)
C2_21 C 0.04644(18) 0.70356(18) 0.0948(3)
C3_21 C 0.0304(3) 0.67177(18) 0.07823(18)
H1_21 H 0.007879 0.661128 0.088873
O1_21 O 0.00329(11) 0.70129(11) 0.14628(10)
C4_21 C 0.1324(2) 0.71853(17) 0.03147(17)
C5_21 C 0.0948(3) 0.70356(18) 0.04644(18)
C6_21 C 0.07823(18) 0.7196(3) 0.07823(18)
H2_21 H 0.088873 0.742121 0.088872
O4_21 O 0.14628(10) 0.74671(11) 0.04871(11)
C7_21 C 0.03147(17) 0.6176(2) 0.03147(17)
C8_21 C 0.04644(18) 0.6552(3) 0.04644(18)
C9_21 C 0.07823(18) 0.67177(18) 0.0304(3)
H3_21 H 0.088872 0.661127 0.007879
O5_21 O 0.04871(11) 0.60372(10) 0.00329(11)
O7_15 O 0.14628(10) 0.70129(11) 0.00329(11)
O8_12 O 0.04871(11) 0.74671(11) 0.14628(10)
O12_15 O 0.10372(10) 0.54871(11) 0.00329(11)
O13_12 O 0.20129(11) 0.74671(11) 0.10372(10)
O14_10 O 0.2162(3) 0.7162(3) 0.0338(3)
C1_22 C 0.21853(17) 0.71853(17) 0.1176(2)
C2_22 C 0.20356(18) 0.70356(18) 0.1552(3)
C3_22 C 0.2196(3) 0.67177(18) 0.17177(18)
H1_22 H 0.242121 0.661128 0.161127
O1_22 O 0.24671(11) 0.70129(11) 0.10372(10)
C4_22 C 0.1176(2) 0.71853(17) 0.21853(17)
C5_22 C 0.1552(3) 0.70356(18) 0.20356(18)
C6_22 C 0.17177(18) 0.7196(3) 0.17177(18)
H2_22 H 0.161127 0.742121 0.161128
O4_22 O 0.10372(10) 0.74671(11) 0.20129(11)
C7_22 C 0.21853(17) 0.6176(2) 0.21853(17)
C8_22 C 0.20356(18) 0.6552(3) 0.20356(18)
C9_22 C 0.17177(18) 0.67177(18) 0.2196(3)
H3_22 H 0.161128 0.661127 0.242121
O5_22 O 0.20129(11) 0.60372(10) 0.24671(11)
O6_15 O 0.24671(11) 0.60372(10) 0.20129(11)
O11_15 O 0.24671(11) 0.64628(10) 0.04871(11)
O9_13 O 0.0594(3) 0.26311(13) 0.76311(13)
C1_23 C 0.96853(17) 0.46853(17) 0.8824(2)
C2_23 C 0.95356(18) 0.45356(18) 0.8448(3)
C3_23 C 0.92177(18) 0.4696(3) 0.82823(18)
H1_23 H 0.911128 0.492121 0.838873
O1_23 O 0.95129(11) 0.49671(11) 0.89628(10)
C4_23 C 0.96853(17) 0.3676(2) 0.78147(17)
C5_23 C 0.95356(18) 0.4052(3) 0.79644(18)
C6_23 C 0.9696(3) 0.42177(18) 0.82823(18)
H2_23 H 0.992121 0.411127 0.838872
O4_23 O 0.99671(11) 0.35372(10) 0.79871(11)
C7_23 C 0.8676(2) 0.46853(17) 0.78147(17)
C8_23 C 0.9052(3) 0.45356(18) 0.79644(18)
C9_23 C 0.92177(18) 0.42177(18) 0.7804(3)
H3_23 H 0.911127 0.411128 0.757879
O5_23 O 0.85372(10) 0.45129(11) 0.75329(11)
C1_24 C 0.03147(17) 0.03147(17) 0.6176(2)
C2_24 C 0.04644(18) 0.04644(18) 0.6552(3)
C3_24 C 0.0304(3) 0.07823(18) 0.67177(18)
H1_24 H 0.007879 0.088872 0.661127
O1_24 O 0.00329(11) 0.04871(11) 0.60372(10)
O2_9 O 0.0338(3) 0.0338(3) 0.5338(3)
C4_24 C 0.1324(2) 0.03147(17) 0.71853(17)
C5_24 C 0.0948(3) 0.04644(18) 0.70356(18)
C6_24 C 0.07823(18) 0.0304(3) 0.67177(18)
H2_24 H 0.088873 0.007879 0.661128
O4_24 O 0.14628(10) 0.00329(11) 0.70129(11)
C7_24 C 0.03147(17) 0.1324(2) 0.71853(17)
C8_24 C 0.04644(18) 0.0948(3) 0.70356(18)
C9_24 C 0.07823(18) 0.07823(18) 0.7196(3)
H3_24 H 0.088872 0.088873 0.742121
O5_24 O 0.04871(11) 0.14628(10) 0.74671(11)
O6_16 O 0.00329(11) 0.14628(10) 0.70129(11)
O7_16 O 0.14628(10) 0.04871(11) 0.74671(11)
O8_13 O 0.04871(11) 0.00329(11) 0.60372(10)
O11_16 O 0.00329(11) 0.10372(10) 0.54871(11)
O12_16 O 0.10372(10) 0.20129(11) 0.74671(11)
O13_13 O 0.20129(11) 0.00329(11) 0.64628(10)
O14_11 O 0.2162(3) 0.0338(3) 0.7162(3)
O15_11 O 0.0338(3) 0.2162(3) 0.7162(3)
O19_11 O 0.98689(13) 0.0594(3) 0.48689(13)
C1_25 C 0.3676(2) 0.28147(17) 0.46853(17)
C2_25 C 0.4052(3) 0.29644(18) 0.45356(18)
C3_25 C 0.42177(18) 0.32823(18) 0.4696(3)
H1_25 H 0.411127 0.338872 0.492121
O1_25 O 0.35372(10) 0.29871(11) 0.49671(11)
O3_11 O 0.26311(13) 0.26311(13) 0.5594(3)
C4_25 C 0.46853(17) 0.28147(17) 0.3676(2)
C5_25 C 0.45356(18) 0.29644(18) 0.4052(3)
C6_25 C 0.42177(18) 0.2804(3) 0.42177(18)
H2_25 H 0.411128 0.257879 0.411127
O4_25 O 0.45129(11) 0.25329(11) 0.35372(10)
C7_25 C 0.46853(17) 0.3824(2) 0.46853(17)
C8_25 C 0.45356(18) 0.3448(3) 0.45356(18)
C9_25 C 0.4696(3) 0.32823(18) 0.42177(18)
H3_25 H 0.492121 0.338873 0.411128
O5_25 O 0.49671(11) 0.39628(10) 0.45129(11)
C1_26 C 0.03147(17) 0.21853(17) 0.6324(2)
C2_26 C 0.04644(18) 0.20356(18) 0.5948(3)
C3_26 C 0.0304(3) 0.17177(18) 0.57823(18)
H1_26 H 0.007879 0.161128 0.588873
O1_26 O 0.00329(11) 0.20129(11) 0.64628(10)
C4_26 C 0.1324(2) 0.21853(17) 0.53147(17)
C5_26 C 0.0948(3) 0.20356(18) 0.54644(18)
C6_26 C 0.07823(18) 0.2196(3) 0.57823(18)
H2_26 H 0.088873 0.242121 0.588872
O4_26 O 0.14628(10) 0.24671(11) 0.54871(11)
C7_26 C 0.03147(17) 0.1176(2) 0.53147(17)
C8_26 C 0.04644(18) 0.1552(3) 0.54644(18)
C9_26 C 0.07823(18) 0.17177(18) 0.5304(3)
H3_26 H 0.088872 0.161127 0.507879
O5_26 O 0.04871(11) 0.10372(10) 0.50329(11)
O7_17 O 0.14628(10) 0.20129(11) 0.50329(11)
O8_14 O 0.04871(11) 0.24671(11) 0.64628(10)
O12_17 O 0.10372(10) 0.04871(11) 0.50329(11)
O13_14 O 0.20129(11) 0.24671(11) 0.60372(10)
O14_12 O 0.2162(3) 0.2162(3) 0.5338(3)
C1_27 C 0.21853(17) 0.21853(17) 0.6176(2)
C2_27 C 0.20356(18) 0.20356(18) 0.6552(3)
C3_27 C 0.2196(3) 0.17177(18) 0.67177(18)
H1_27 H 0.242121 0.161128 0.661127
O1_27 O 0.24671(11) 0.20129(11) 0.60372(10)
C4_27 C 0.1176(2) 0.21853(17) 0.71853(17)
C5_27 C 0.1552(3) 0.20356(18) 0.70356(18)
C6_27 C 0.17177(18) 0.2196(3) 0.67177(18)
H2_27 H 0.161127 0.242121 0.661128
O4_27 O 0.10372(10) 0.24671(11) 0.70129(11)
C7_27 C 0.21853(17) 0.1176(2) 0.71853(17)
C8_27 C 0.20356(18) 0.1552(3) 0.70356(18)
C9_27 C 0.17177(18) 0.17177(18) 0.7196(3)
H3_27 H 0.161128 0.161127 0.742121
O5_27 O 0.20129(11) 0.10372(10) 0.74671(11)
O6_17 O 0.24671(11) 0.10372(10) 0.70129(11)
O11_17 O 0.24671(11) 0.14628(10) 0.54871(11)
C1_28 C 0.96853(17) 0.96853(17) 0.3824(2)
C2_28 C 0.95356(18) 0.95356(18) 0.3448(3)
C3_28 C 0.92177(18) 0.9696(3) 0.32823(18)
H1_28 H 0.911128 0.992121 0.338873
O1_28 O 0.95129(11) 0.99671(11) 0.39628(10)
C4_28 C 0.96853(17) 0.8676(2) 0.28147(17)
C5_28 C 0.95356(18) 0.9052(3) 0.29644(18)
C6_28 C 0.9696(3) 0.92177(18) 0.32823(18)
H2_28 H 0.992121 0.911127 0.338872
O4_28 O 0.99671(11) 0.85372(10) 0.29871(11)
C7_28 C 0.8676(2) 0.96853(17) 0.28147(17)
C8_28 C 0.9052(3) 0.95356(18) 0.29644(18)
C9_28 C 0.92177(18) 0.92177(18) 0.2804(3)
H3_28 H 0.911127 0.911128 0.257879
O5_28 O 0.85372(10) 0.95129(11) 0.25329(11)
C1_29 C 0.21853(17) 0.1324(2) 0.53147(17)
C2_29 C 0.20356(18) 0.0948(3) 0.54644(18)
C3_29 C 0.17177(18) 0.07823(18) 0.5304(3)
H1_29 H 0.161128 0.088873 0.507879
O1_29 O 0.20129(11) 0.14628(10) 0.50329(11)
C4_29 C 0.21853(17) 0.03147(17) 0.6324(2)
C5_29 C 0.20356(18) 0.04644(18) 0.5948(3)
C6_29 C 0.2196(3) 0.07823(18) 0.57823(18)
H2_29 H 0.242121 0.088872 0.588873
O4_29 O 0.24671(11) 0.04871(11) 0.64628(10)
C7_29 C 0.1176(2) 0.03147(17) 0.53147(17)
C8_29 C 0.1552(3) 0.04644(18) 0.54644(18)
C9_29 C 0.17177(18) 0.0304(3) 0.57823(18)
H3_29 H 0.161127 0.007879 0.588872
O5_29 O 0.10372(10) 0.00329(11) 0.54871(11)
C1_30 C 0.21853(17) 0.53147(17) 0.1324(2)
C2_30 C 0.20356(18) 0.54644(18) 0.0948(3)
C3_30 C 0.2196(3) 0.57823(18) 0.07823(18)
H1_30 H 0.242121 0.588872 0.088873
O1_30 O 0.24671(11) 0.54871(11) 0.14628(10)
C4_30 C 0.1176(2) 0.53147(17) 0.03147(17)
C5_30 C 0.1552(3) 0.54644(18) 0.04644(18)
C6_30 C 0.17177(18) 0.5304(3) 0.07823(18)
H2_30 H 0.161127 0.507879 0.088872
O4_30 O 0.10372(10) 0.50329(11) 0.04871(11)
C7_30 C 0.21853(17) 0.6324(2) 0.03147(17)
C8_30 C 0.20356(18) 0.5948(3) 0.04644(18)
C9_30 C 0.17177(18) 0.57823(18) 0.0304(3)
H3_30 H 0.161128 0.588873 0.007879
O5_30 O 0.20129(11) 0.64628(10) 0.00329(11)
C1_31 C 0.6176(2) 0.53147(17) 0.53147(17)
C2_31 C 0.6552(3) 0.54644(18) 0.54644(18)
C3_31 C 0.67177(18) 0.5304(3) 0.57823(18)
H1_31 H 0.661127 0.507879 0.588872
O1_31 O 0.60372(10) 0.50329(11) 0.54871(11)
C4_31 C 0.71853(17) 0.6324(2) 0.53147(17)
C5_31 C 0.70356(18) 0.5948(3) 0.54644(18)
C6_31 C 0.67177(18) 0.57823(18) 0.5304(3)
H2_31 H 0.661128 0.588873 0.507879
O4_31 O 0.70129(11) 0.64628(10) 0.50329(11)
C7_31 C 0.71853(17) 0.53147(17) 0.6324(2)
C8_31 C 0.70356(18) 0.54644(18) 0.5948(3)
C9_31 C 0.7196(3) 0.57823(18) 0.57823(18)
H3_31 H 0.742121 0.588872 0.588873
O5_31 O 0.74671(11) 0.54871(11) 0.64628(10)
C1_32 C 0.6176(2) 0.03147(17) 0.03147(17)
C2_32 C 0.6552(3) 0.04644(18) 0.04644(18)
C3_32 C 0.67177(18) 0.0304(3) 0.07823(18)
H1_32 H 0.661127 0.007879 0.088872
O1_32 O 0.60372(10) 0.00329(11) 0.04871(11)
C4_32 C 0.71853(17) 0.1324(2) 0.03147(17)
C5_32 C 0.70356(18) 0.0948(3) 0.04644(18)
C6_32 C 0.67177(18) 0.07823(18) 0.0304(3)
H2_32 H 0.661128 0.088873 0.007879
O4_32 O 0.70129(11) 0.14628(10) 0.00329(11)
C7_32 C 0.71853(17) 0.03147(17) 0.1324(2)
C8_32 C 0.70356(18) 0.04644(18) 0.0948(3)
C9_32 C 0.7196(3) 0.07823(18) 0.07823(18)
H3_32 H 0.742121 0.088872 0.088873
O5_32 O 0.74671(11) 0.04871(11) 0.14628(10)
O22 O 0.43018(17) 0.58899(18) 0.5376(2)
Se1 Se 0.3971(2) 0.57105(17) 0.57105(17)
O23 O 0.3803(16) 0.6011(9) 0.6011(9)
O24 O 0.3641(15) 0.5474(10) 0.5474(10)
O25 O 0.43018(17) 0.5376(2) 0.58899(18)
O22_2 O 0.83899(18) 0.68018(17) 0.4624(2)
Se1_2 Se 0.82105(17) 0.6471(2) 0.42895(17)
O23_2 O 0.8511(9) 0.6303(16) 0.3989(9)
O24_2 O 0.7974(10) 0.6141(15) 0.4526(10)
O25_2 O 0.7876(2) 0.68018(17) 0.41101(18)
O22_3 O 0.68018(17) 0.4624(2) 0.83899(18)
Se1_3 Se 0.6471(2) 0.42895(17) 0.82105(17)
O23_3 O 0.6303(16) 0.3989(9) 0.8511(9)
O24_3 O 0.6141(15) 0.4526(10) 0.7974(10)
O25_3 O 0.68018(17) 0.41101(18) 0.7876(2)
O22_4 O 0.4624(2) 0.83899(18) 0.68018(17)
Se1_4 Se 0.42895(17) 0.82105(17) 0.6471(2)
O23_4 O 0.3989(9) 0.8511(9) 0.6303(16)
O24_4 O 0.4526(10) 0.7974(10) 0.6141(15)
O25_4 O 0.41101(18) 0.7876(2) 0.68018(17)
O22_5 O 0.7876(2) 0.83899(18) 0.56982(17)
Se1_5 Se 0.82105(17) 0.82105(17) 0.6029(2)
O23_5 O 0.8511(9) 0.8511(9) 0.6197(16)
O24_5 O 0.7974(10) 0.7974(10) 0.6359(15)
O25_5 O 0.83899(18) 0.7876(2) 0.56982(17)
O22_6 O 0.7124(2) 0.43018(17) 0.66101(18)
Se1_6 Se 0.67895(17) 0.3971(2) 0.67895(17)
O23_6 O 0.6489(9) 0.3803(16) 0.6489(9)
O24_6 O 0.7026(10) 0.3641(15) 0.7026(10)
O25_6 O 0.66101(18) 0.43018(17) 0.7124(2)
O22_7 O 0.68018(17) 0.7876(2) 0.41101(18)
Se1_7 Se 0.6471(2) 0.82105(17) 0.42895(17)
O23_7 O 0.6303(16) 0.8511(9) 0.3989(9)
O24_7 O 0.6141(15) 0.7974(10) 0.4526(10)
O25_7 O 0.68018(17) 0.83899(18) 0.4624(2)
O22_8 O 0.58899(18) 0.7124(2) 0.81982(17)
Se1_8 Se 0.57105(17) 0.67895(17) 0.8529(2)
O23_8 O 0.6011(9) 0.6489(9) 0.8697(16)
O24_8 O 0.5474(10) 0.7026(10) 0.8859(15)
O25_8 O 0.5376(2) 0.66101(18) 0.81982(17)
O22_9 O 0.83899(18) 0.56982(17) 0.7876(2)
Se1_9 Se 0.82105(17) 0.6029(2) 0.82105(17)
O23_9 O 0.8511(9) 0.6197(16) 0.8511(9)
O24_9 O 0.7974(10) 0.6359(15) 0.7974(10)
O25_9 O 0.7876(2) 0.56982(17) 0.83899(18)
O22_10 O 0.43018(17) 0.66101(18) 0.7124(2)
Se1_10 Se 0.3971(2) 0.67895(17) 0.67895(17)
O23_10 O 0.3803(16) 0.6489(9) 0.6489(9)
O24_10 O 0.3641(15) 0.7026(10) 0.7026(10)
O25_10 O 0.43018(17) 0.7124(2) 0.66101(18)
O22_11 O 0.81982(17) 0.66101(18) 0.5376(2)
Se1_11 Se 0.8529(2) 0.67895(17) 0.57105(17)
O23_11 O 0.8697(16) 0.6489(9) 0.6011(9)
O24_11 O 0.8859(15) 0.7026(10) 0.5474(10)
O25_11 O 0.81982(17) 0.7124(2) 0.58899(18)
O22_12 O 0.41101(18) 0.56982(17) 0.4624(2)
Se1_12 Se 0.42895(17) 0.6029(2) 0.42895(17)
O23_12 O 0.3989(9) 0.6197(16) 0.3989(9)
O24_12 O 0.4526(10) 0.6359(15) 0.4526(10)
O25_12 O 0.4624(2) 0.56982(17) 0.41101(18)
O22_13 O 0.4624(2) 0.41101(18) 0.56982(17)
Se1_13 Se 0.42895(17) 0.42895(17) 0.6029(2)
O23_13 O 0.3989(9) 0.3989(9) 0.6197(16)
O24_13 O 0.4526(10) 0.4526(10) 0.6359(15)
O25_13 O 0.41101(18) 0.4624(2) 0.56982(17)
O22_14 O 0.5376(2) 0.81982(17) 0.66101(18)
Se1_14 Se 0.57105(17) 0.8529(2) 0.67895(17)
O23_14 O 0.6011(9) 0.8697(16) 0.6489(9)
O24_14 O 0.5474(10) 0.8859(15) 0.7026(10)
O25_14 O 0.58899(18) 0.81982(17) 0.7124(2)
O22_15 O 0.43018(17) 0.08899(18) 0.0376(2)
Se1_15 Se 0.3971(2) 0.07105(17) 0.07105(17)
O23_15 O 0.3803(16) 0.1011(9) 0.1011(9)
O24_15 O 0.3641(15) 0.0474(10) 0.0474(10)
O25_15 O 0.43018(17) 0.0376(2) 0.08899(18)
O22_16 O 0.83899(18) 0.18018(17) 0.9624(2)
Se1_16 Se 0.82105(17) 0.1471(2) 0.92895(17)
O23_16 O 0.8511(9) 0.1303(16) 0.8989(9)
O24_16 O 0.7974(10) 0.1141(15) 0.9526(10)
O25_16 O 0.7876(2) 0.18018(17) 0.91101(18)
O22_17 O 0.68018(17) 0.9624(2) 0.33899(18)
Se1_17 Se 0.6471(2) 0.92895(17) 0.32105(17)
O23_17 O 0.6303(16) 0.8989(9) 0.3511(9)
O24_17 O 0.6141(15) 0.9526(10) 0.2974(10)
O25_17 O 0.68018(17) 0.91101(18) 0.2876(2)
O22_18 O 0.4624(2) 0.33899(18) 0.18018(17)
Se1_18 Se 0.42895(17) 0.32105(17) 0.1471(2)
O23_18 O 0.3989(9) 0.3511(9) 0.1303(16)
O24_18 O 0.4526(10) 0.2974(10) 0.1141(15)
O25_18 O 0.41101(18) 0.2876(2) 0.18018(17)
O22_19 O 0.7876(2) 0.33899(18) 0.06982(17)
Se1_19 Se 0.82105(17) 0.32105(17) 0.1029(2)
O23_19 O 0.8511(9) 0.3511(9) 0.1197(16)
O24_19 O 0.7974(10) 0.2974(10) 0.1359(15)
O25_19 O 0.83899(18) 0.2876(2) 0.06982(17)
O22_20 O 0.7124(2) 0.93018(17) 0.16101(18)
Se1_20 Se 0.67895(17) 0.8971(2) 0.17895(17)
O23_20 O 0.6489(9) 0.8803(16) 0.1489(9)
O24_20 O 0.7026(10) 0.8641(15) 0.2026(10)
O25_20 O 0.66101(18) 0.93018(17) 0.2124(2)
O22_21 O 0.68018(17) 0.2876(2) 0.91101(18)
Se1_21 Se 0.6471(2) 0.32105(17) 0.92895(17)
O23_21 O 0.6303(16) 0.3511(9) 0.8989(9)
O24_21 O 0.6141(15) 0.2974(10) 0.9526(10)
O25_21 O 0.68018(17) 0.33899(18) 0.9624(2)
O22_22 O 0.58899(18) 0.2124(2) 0.31982(17)
Se1_22 Se 0.57105(17) 0.17895(17) 0.3529(2)
O23_22 O 0.6011(9) 0.1489(9) 0.3697(16)
O24_22 O 0.5474(10) 0.2026(10) 0.3859(15)
O25_22 O 0.5376(2) 0.16101(18) 0.31982(17)
O22_23 O 0.83899(18) 0.06982(17) 0.2876(2)
Se1_23 Se 0.82105(17) 0.1029(2) 0.32105(17)
O23_23 O 0.8511(9) 0.1197(16) 0.3511(9)
O24_23 O 0.7974(10) 0.1359(15) 0.2974(10)
O25_23 O 0.7876(2) 0.06982(17) 0.33899(18)
O22_24 O 0.43018(17) 0.16101(18) 0.2124(2)
Se1_24 Se 0.3971(2) 0.17895(17) 0.17895(17)
O23_24 O 0.3803(16) 0.1489(9) 0.1489(9)
O24_24 O 0.3641(15) 0.2026(10) 0.2026(10)
O25_24 O 0.43018(17) 0.2124(2) 0.16101(18)
O22_25 O 0.81982(17) 0.16101(18) 0.0376(2)
Se1_25 Se 0.8529(2) 0.17895(17) 0.07105(17)
O23_25 O 0.8697(16) 0.1489(9) 0.1011(9)
O24_25 O 0.8859(15) 0.2026(10) 0.0474(10)
O25_25 O 0.81982(17) 0.2124(2) 0.08899(18)
O22_26 O 0.41101(18) 0.06982(17) 0.9624(2)
Se1_26 Se 0.42895(17) 0.1029(2) 0.92895(17)
O23_26 O 0.3989(9) 0.1197(16) 0.8989(9)
O24_26 O 0.4526(10) 0.1359(15) 0.9526(10)
O25_26 O 0.4624(2) 0.06982(17) 0.91101(18)
O22_27 O 0.4624(2) 0.91101(18) 0.06982(17)
Se1_27 Se 0.42895(17) 0.92895(17) 0.1029(2)
O23_27 O 0.3989(9) 0.8989(9) 0.1197(16)
O24_27 O 0.4526(10) 0.9526(10) 0.1359(15)
O25_27 O 0.41101(18) 0.9624(2) 0.06982(17)
O22_28 O 0.5376(2) 0.31982(17) 0.16101(18)
Se1_28 Se 0.57105(17) 0.3529(2) 0.17895(17)
O23_28 O 0.6011(9) 0.3697(16) 0.1489(9)
O24_28 O 0.5474(10) 0.3859(15) 0.2026(10)
O25_28 O 0.58899(18) 0.31982(17) 0.2124(2)
O22_29 O 0.93018(17) 0.58899(18) 0.0376(2)
Se1_29 Se 0.8971(2) 0.57105(17) 0.07105(17)
O23_29 O 0.8803(16) 0.6011(9) 0.1011(9)
O24_29 O 0.8641(15) 0.5474(10) 0.0474(10)
O25_29 O 0.93018(17) 0.5376(2) 0.08899(18)
O22_30 O 0.33899(18) 0.68018(17) 0.9624(2)
Se1_30 Se 0.32105(17) 0.6471(2) 0.92895(17)
O23_30 O 0.3511(9) 0.6303(16) 0.8989(9)
O24_30 O 0.2974(10) 0.6141(15) 0.9526(10)
O25_30 O 0.2876(2) 0.68018(17) 0.91101(18)
O22_31 O 0.18018(17) 0.4624(2) 0.33899(18)
Se1_31 Se 0.1471(2) 0.42895(17) 0.32105(17)
O23_31 O 0.1303(16) 0.3989(9) 0.3511(9)
O24_31 O 0.1141(15) 0.4526(10) 0.2974(10)
O25_31 O 0.18018(17) 0.41101(18) 0.2876(2)
O22_32 O 0.9624(2) 0.83899(18) 0.18018(17)
Se1_32 Se 0.92895(17) 0.82105(17) 0.1471(2)
O23_32 O 0.8989(9) 0.8511(9) 0.1303(16)
O24_32 O 0.9526(10) 0.7974(10) 0.1141(15)
O25_32 O 0.91101(18) 0.7876(2) 0.18018(17)
O22_33 O 0.2876(2) 0.83899(18) 0.06982(17)
Se1_33 Se 0.32105(17) 0.82105(17) 0.1029(2)
O23_33 O 0.3511(9) 0.8511(9) 0.1197(16)
O24_33 O 0.2974(10) 0.7974(10) 0.1359(15)
O25_33 O 0.33899(18) 0.7876(2) 0.06982(17)
O22_34 O 0.2124(2) 0.43018(17) 0.16101(18)
Se1_34 Se 0.17895(17) 0.3971(2) 0.17895(17)
O23_34 O 0.1489(9) 0.3803(16) 0.1489(9)
O24_34 O 0.2026(10) 0.3641(15) 0.2026(10)
O25_34 O 0.16101(18) 0.43018(17) 0.2124(2)
O22_35 O 0.18018(17) 0.7876(2) 0.91101(18)
Se1_35 Se 0.1471(2) 0.82105(17) 0.92895(17)
O23_35 O 0.1303(16) 0.8511(9) 0.8989(9)
O24_35 O 0.1141(15) 0.7974(10) 0.9526(10)
O25_35 O 0.18018(17) 0.83899(18) 0.9624(2)
O22_36 O 0.08899(18) 0.7124(2) 0.31982(17)
Se1_36 Se 0.07105(17) 0.67895(17) 0.3529(2)
O23_36 O 0.1011(9) 0.6489(9) 0.3697(16)
O24_36 O 0.0474(10) 0.7026(10) 0.3859(15)
O25_36 O 0.0376(2) 0.66101(18) 0.31982(17)
O22_37 O 0.33899(18) 0.56982(17) 0.2876(2)
Se1_37 Se 0.32105(17) 0.6029(2) 0.32105(17)
O23_37 O 0.3511(9) 0.6197(16) 0.3511(9)
O24_37 O 0.2974(10) 0.6359(15) 0.2974(10)
O25_37 O 0.2876(2) 0.56982(17) 0.33899(18)
O22_38 O 0.93018(17) 0.66101(18) 0.2124(2)
Se1_38 Se 0.8971(2) 0.67895(17) 0.17895(17)
O23_38 O 0.8803(16) 0.6489(9) 0.1489(9)
O24_38 O 0.8641(15) 0.7026(10) 0.2026(10)
O25_38 O 0.93018(17) 0.7124(2) 0.16101(18)
O22_39 O 0.31982(17) 0.66101(18) 0.0376(2)
Se1_39 Se 0.3529(2) 0.67895(17) 0.07105(17)
O23_39 O 0.3697(16) 0.6489(9) 0.1011(9)
O24_39 O 0.3859(15) 0.7026(10) 0.0474(10)
O25_39 O 0.31982(17) 0.7124(2) 0.08899(18)
O22_40 O 0.91101(18) 0.56982(17) 0.9624(2)
Se1_40 Se 0.92895(17) 0.6029(2) 0.92895(17)
O23_40 O 0.8989(9) 0.6197(16) 0.8989(9)
O24_40 O 0.9526(10) 0.6359(15) 0.9526(10)
O25_40 O 0.9624(2) 0.56982(17) 0.91101(18)
O22_41 O 0.9624(2) 0.41101(18) 0.06982(17)
Se1_41 Se 0.92895(17) 0.42895(17) 0.1029(2)
O23_41 O 0.8989(9) 0.3989(9) 0.1197(16)
O24_41 O 0.9526(10) 0.4526(10) 0.1359(15)
O25_41 O 0.91101(18) 0.4624(2) 0.06982(17)
O22_42 O 0.0376(2) 0.81982(17) 0.16101(18)
Se1_42 Se 0.07105(17) 0.8529(2) 0.17895(17)
O23_42 O 0.1011(9) 0.8697(16) 0.1489(9)
O24_42 O 0.0474(10) 0.8859(15) 0.2026(10)
O25_42 O 0.08899(18) 0.81982(17) 0.2124(2)
O22_43 O 0.93018(17) 0.08899(18) 0.5376(2)
Se1_43 Se 0.8971(2) 0.07105(17) 0.57105(17)
O23_43 O 0.8803(16) 0.1011(9) 0.6011(9)
O24_43 O 0.8641(15) 0.0474(10) 0.5474(10)
O25_43 O 0.93018(17) 0.0376(2) 0.58899(18)
O22_44 O 0.33899(18) 0.18018(17) 0.4624(2)
Se1_44 Se 0.32105(17) 0.1471(2) 0.42895(17)
O23_44 O 0.3511(9) 0.1303(16) 0.3989(9)
O24_44 O 0.2974(10) 0.1141(15) 0.4526(10)
O25_44 O 0.2876(2) 0.18018(17) 0.41101(18)
O22_45 O 0.18018(17) 0.9624(2) 0.83899(18)
Se1_45 Se 0.1471(2) 0.92895(17) 0.82105(17)
O23_45 O 0.1303(16) 0.8989(9) 0.8511(9)
O24_45 O 0.1141(15) 0.9526(10) 0.7974(10)
O25_45 O 0.18018(17) 0.91101(18) 0.7876(2)
O22_46 O 0.9624(2) 0.33899(18) 0.68018(17)
Se1_46 Se 0.92895(17) 0.32105(17) 0.6471(2)
O23_46 O 0.8989(9) 0.3511(9) 0.6303(16)
O24_46 O 0.9526(10) 0.2974(10) 0.6141(15)
O25_46 O 0.91101(18) 0.2876(2) 0.68018(17)
O22_47 O 0.2876(2) 0.33899(18) 0.56982(17)
Se1_47 Se 0.32105(17) 0.32105(17) 0.6029(2)
O23_47 O 0.3511(9) 0.3511(9) 0.6197(16)
O24_47 O 0.2974(10) 0.2974(10) 0.6359(15)
O25_47 O 0.33899(18) 0.2876(2) 0.56982(17)
O22_48 O 0.2124(2) 0.93018(17) 0.66101(18)
Se1_48 Se 0.17895(17) 0.8971(2) 0.67895(17)
O23_48 O 0.1489(9) 0.8803(16) 0.6489(9)
O24_48 O 0.2026(10) 0.8641(15) 0.7026(10)
O25_48 O 0.16101(18) 0.93018(17) 0.7124(2)
O22_49 O 0.18018(17) 0.2876(2) 0.41101(18)
Se1_49 Se 0.1471(2) 0.32105(17) 0.42895(17)
O23_49 O 0.1303(16) 0.3511(9) 0.3989(9)
O24_49 O 0.1141(15) 0.2974(10) 0.4526(10)
O25_49 O 0.18018(17) 0.33899(18) 0.4624(2)
O22_50 O 0.08899(18) 0.2124(2) 0.81982(17)
Se1_50 Se 0.07105(17) 0.17895(17) 0.8529(2)
O23_50 O 0.1011(9) 0.1489(9) 0.8697(16)
O24_50 O 0.0474(10) 0.2026(10) 0.8859(15)
O25_50 O 0.0376(2) 0.16101(18) 0.81982(17)
O22_51 O 0.33899(18) 0.06982(17) 0.7876(2)
Se1_51 Se 0.32105(17) 0.1029(2) 0.82105(17)
O23_51 O 0.3511(9) 0.1197(16) 0.8511(9)
O24_51 O 0.2974(10) 0.1359(15) 0.7974(10)
O25_51 O 0.2876(2) 0.06982(17) 0.83899(18)
O22_52 O 0.93018(17) 0.16101(18) 0.7124(2)
Se1_52 Se 0.8971(2) 0.17895(17) 0.67895(17)
O23_52 O 0.8803(16) 0.1489(9) 0.6489(9)
O24_52 O 0.8641(15) 0.2026(10) 0.7026(10)
O25_52 O 0.93018(17) 0.2124(2) 0.66101(18)
O22_53 O 0.31982(17) 0.16101(18) 0.5376(2)
Se1_53 Se 0.3529(2) 0.17895(17) 0.57105(17)
O23_53 O 0.3697(16) 0.1489(9) 0.6011(9)
O24_53 O 0.3859(15) 0.2026(10) 0.5474(10)
O25_53 O 0.31982(17) 0.2124(2) 0.58899(18)
O22_54 O 0.91101(18) 0.06982(17) 0.4624(2)
Se1_54 Se 0.92895(17) 0.1029(2) 0.42895(17)
O23_54 O 0.8989(9) 0.1197(16) 0.3989(9)
O24_54 O 0.9526(10) 0.1359(15) 0.4526(10)
O25_54 O 0.9624(2) 0.06982(17) 0.41101(18)
O22_55 O 0.9624(2) 0.91101(18) 0.56982(17)
Se1_55 Se 0.92895(17) 0.92895(17) 0.6029(2)
O23_55 O 0.8989(9) 0.8989(9) 0.6197(16)
O24_55 O 0.9526(10) 0.9526(10) 0.6359(15)
O25_55 O 0.91101(18) 0.9624(2) 0.56982(17)
O22_56 O 0.0376(2) 0.31982(17) 0.66101(18)
Se1_56 Se 0.07105(17) 0.3529(2) 0.67895(17)
O23_56 O 0.1011(9) 0.3697(16) 0.6489(9)
O24_56 O 0.0474(10) 0.3859(15) 0.7026(10)
O25_56 O 0.08899(18) 0.31982(17) 0.7124(2)
O22_57 O 0.56982(17) 0.4624(2) 0.41101(18)
Se1_57 Se 0.6029(2) 0.42895(17) 0.42895(17)
O23_57 O 0.6197(16) 0.3989(9) 0.3989(9)
O24_57 O 0.6359(15) 0.4526(10) 0.4526(10)
O25_57 O 0.56982(17) 0.41101(18) 0.4624(2)
O22_58 O 0.16101(18) 0.5376(2) 0.31982(17)
Se1_58 Se 0.17895(17) 0.57105(17) 0.3529(2)
O23_58 O 0.1489(9) 0.6011(9) 0.3697(16)
O24_58 O 0.2026(10) 0.5474(10) 0.3859(15)
O25_58 O 0.2124(2) 0.58899(18) 0.31982(17)
O22_59 O 0.2124(2) 0.31982(17) 0.58899(18)
Se1_59 Se 0.17895(17) 0.3529(2) 0.57105(17)
O23_59 O 0.1489(9) 0.3697(16) 0.6011(9)
O24_59 O 0.2026(10) 0.3859(15) 0.5474(10)
O25_59 O 0.16101(18) 0.31982(17) 0.5376(2)
O22_60 O 0.16101(18) 0.2124(2) 0.43018(17)
Se1_60 Se 0.17895(17) 0.17895(17) 0.3971(2)
O23_60 O 0.1489(9) 0.1489(9) 0.3803(16)
O24_60 O 0.2026(10) 0.2026(10) 0.3641(15)
O25_60 O 0.2124(2) 0.16101(18) 0.43018(17)
O22_61 O 0.56982(17) 0.2876(2) 0.33899(18)
Se1_61 Se 0.6029(2) 0.32105(17) 0.32105(17)
O23_61 O 0.6197(16) 0.3511(9) 0.3511(9)
O24_61 O 0.6359(15) 0.2974(10) 0.2974(10)
O25_61 O 0.56982(17) 0.33899(18) 0.2876(2)
O22_62 O 0.2876(2) 0.41101(18) 0.18018(17)
Se1_62 Se 0.32105(17) 0.42895(17) 0.1471(2)
O23_62 O 0.3511(9) 0.3989(9) 0.1303(16)
O24_62 O 0.2974(10) 0.4526(10) 0.1141(15)
O25_62 O 0.33899(18) 0.4624(2) 0.18018(17)
O22_63 O 0.31982(17) 0.58899(18) 0.2124(2)
Se1_63 Se 0.3529(2) 0.57105(17) 0.17895(17)
O23_63 O 0.3697(16) 0.6011(9) 0.1489(9)
O24_63 O 0.3859(15) 0.5474(10) 0.2026(10)
O25_63 O 0.31982(17) 0.5376(2) 0.16101(18)
O22_64 O 0.41101(18) 0.18018(17) 0.2876(2)
Se1_64 Se 0.42895(17) 0.1471(2) 0.32105(17)
O23_64 O 0.3989(9) 0.1303(16) 0.3511(9)
O24_64 O 0.4526(10) 0.1141(15) 0.2974(10)
O25_64 O 0.4624(2) 0.18018(17) 0.33899(18)
O22_65 O 0.58899(18) 0.5376(2) 0.43018(17)
Se1_65 Se 0.57105(17) 0.57105(17) 0.3971(2)
O23_65 O 0.6011(9) 0.6011(9) 0.3803(16)
O24_65 O 0.5474(10) 0.5474(10) 0.3641(15)
O25_65 O 0.5376(2) 0.58899(18) 0.43018(17)
O22_66 O 0.5376(2) 0.43018(17) 0.58899(18)
Se1_66 Se 0.57105(17) 0.3971(2) 0.57105(17)
O23_66 O 0.6011(9) 0.3803(16) 0.6011(9)
O24_66 O 0.5474(10) 0.3641(15) 0.5474(10)
O25_66 O 0.58899(18) 0.43018(17) 0.5376(2)
O22_67 O 0.56982(17) 0.9624(2) 0.91101(18)
Se1_67 Se 0.6029(2) 0.92895(17) 0.92895(17)
O23_67 O 0.6197(16) 0.8989(9) 0.8989(9)
O24_67 O 0.6359(15) 0.9526(10) 0.9526(10)
O25_67 O 0.56982(17) 0.91101(18) 0.9624(2)
O22_68 O 0.16101(18) 0.0376(2) 0.81982(17)
Se1_68 Se 0.17895(17) 0.07105(17) 0.8529(2)
O23_68 O 0.1489(9) 0.1011(9) 0.8697(16)
O24_68 O 0.2026(10) 0.0474(10) 0.8859(15)
O25_68 O 0.2124(2) 0.08899(18) 0.81982(17)
O22_69 O 0.2124(2) 0.81982(17) 0.08899(18)
Se1_69 Se 0.17895(17) 0.8529(2) 0.07105(17)
O23_69 O 0.1489(9) 0.8697(16) 0.1011(9)
O24_69 O 0.2026(10) 0.8859(15) 0.0474(10)
O25_69 O 0.16101(18) 0.81982(17) 0.0376(2)
O22_70 O 0.16101(18) 0.7124(2) 0.93018(17)
Se1_70 Se 0.17895(17) 0.67895(17) 0.8971(2)
O23_70 O 0.1489(9) 0.6489(9) 0.8803(16)
O24_70 O 0.2026(10) 0.7026(10) 0.8641(15)
O25_70 O 0.2124(2) 0.66101(18) 0.93018(17)
O22_71 O 0.56982(17) 0.7876(2) 0.83899(18)
Se1_71 Se 0.6029(2) 0.82105(17) 0.82105(17)
O23_71 O 0.6197(16) 0.8511(9) 0.8511(9)
O24_71 O 0.6359(15) 0.7974(10) 0.7974(10)
O25_71 O 0.56982(17) 0.83899(18) 0.7876(2)
O22_72 O 0.2876(2) 0.91101(18) 0.68018(17)
Se1_72 Se 0.32105(17) 0.92895(17) 0.6471(2)
O23_72 O 0.3511(9) 0.8989(9) 0.6303(16)
O24_72 O 0.2974(10) 0.9526(10) 0.6141(15)
O25_72 O 0.33899(18) 0.9624(2) 0.68018(17)
O22_73 O 0.31982(17) 0.08899(18) 0.7124(2)
Se1_73 Se 0.3529(2) 0.07105(17) 0.67895(17)
O23_73 O 0.3697(16) 0.1011(9) 0.6489(9)
O24_73 O 0.3859(15) 0.0474(10) 0.7026(10)
O25_73 O 0.31982(17) 0.0376(2) 0.66101(18)
O22_74 O 0.41101(18) 0.68018(17) 0.7876(2)
Se1_74 Se 0.42895(17) 0.6471(2) 0.82105(17)
O23_74 O 0.3989(9) 0.6303(16) 0.8511(9)
O24_74 O 0.4526(10) 0.6141(15) 0.7974(10)
O25_74 O 0.4624(2) 0.68018(17) 0.83899(18)
O22_75 O 0.58899(18) 0.0376(2) 0.93018(17)
Se1_75 Se 0.57105(17) 0.07105(17) 0.8971(2)
O23_75 O 0.6011(9) 0.1011(9) 0.8803(16)
O24_75 O 0.5474(10) 0.0474(10) 0.8641(15)
O25_75 O 0.5376(2) 0.08899(18) 0.93018(17)
O22_76 O 0.5376(2) 0.93018(17) 0.08899(18)
Se1_76 Se 0.57105(17) 0.8971(2) 0.07105(17)
O23_76 O 0.6011(9) 0.8803(16) 0.1011(9)
O24_76 O 0.5474(10) 0.8641(15) 0.0474(10)
O25_76 O 0.58899(18) 0.93018(17) 0.0376(2)
O22_77 O 0.06982(17) 0.4624(2) 0.91101(18)
Se1_77 Se 0.1029(2) 0.42895(17) 0.92895(17)
O23_77 O 0.1197(16) 0.3989(9) 0.8989(9)
O24_77 O 0.1359(15) 0.4526(10) 0.9526(10)
O25_77 O 0.06982(17) 0.41101(18) 0.9624(2)
O22_78 O 0.66101(18) 0.5376(2) 0.81982(17)
Se1_78 Se 0.67895(17) 0.57105(17) 0.8529(2)
O23_78 O 0.6489(9) 0.6011(9) 0.8697(16)
O24_78 O 0.7026(10) 0.5474(10) 0.8859(15)
O25_78 O 0.7124(2) 0.58899(18) 0.81982(17)
O22_79 O 0.7124(2) 0.31982(17) 0.08899(18)
Se1_79 Se 0.67895(17) 0.3529(2) 0.07105(17)
O23_79 O 0.6489(9) 0.3697(16) 0.1011(9)
O24_79 O 0.7026(10) 0.3859(15) 0.0474(10)
O25_79 O 0.66101(18) 0.31982(17) 0.0376(2)
O22_80 O 0.66101(18) 0.2124(2) 0.93018(17)
Se1_80 Se 0.67895(17) 0.17895(17) 0.8971(2)
O23_80 O 0.6489(9) 0.1489(9) 0.8803(16)
O24_80 O 0.7026(10) 0.2026(10) 0.8641(15)
O25_80 O 0.7124(2) 0.16101(18) 0.93018(17)
O22_81 O 0.06982(17) 0.2876(2) 0.83899(18)
Se1_81 Se 0.1029(2) 0.32105(17) 0.82105(17)
O23_81 O 0.1197(16) 0.3511(9) 0.8511(9)
O24_81 O 0.1359(15) 0.2974(10) 0.7974(10)
O25_81 O 0.06982(17) 0.33899(18) 0.7876(2)
O22_82 O 0.7876(2) 0.41101(18) 0.68018(17)
Se1_82 Se 0.82105(17) 0.42895(17) 0.6471(2)
O23_82 O 0.8511(9) 0.3989(9) 0.6303(16)
O24_82 O 0.7974(10) 0.4526(10) 0.6141(15)
O25_82 O 0.83899(18) 0.4624(2) 0.68018(17)
O22_83 O 0.81982(17) 0.58899(18) 0.7124(2)
Se1_83 Se 0.8529(2) 0.57105(17) 0.67895(17)
O23_83 O 0.8697(16) 0.6011(9) 0.6489(9)
O24_83 O 0.8859(15) 0.5474(10) 0.7026(10)
O25_83 O 0.81982(17) 0.5376(2) 0.66101(18)
O22_84 O 0.91101(18) 0.18018(17) 0.7876(2)
Se1_84 Se 0.92895(17) 0.1471(2) 0.82105(17)
O23_84 O 0.8989(9) 0.1303(16) 0.8511(9)
O24_84 O 0.9526(10) 0.1141(15) 0.7974(10)
O25_84 O 0.9624(2) 0.18018(17) 0.83899(18)
O22_85 O 0.08899(18) 0.5376(2) 0.93018(17)
Se1_85 Se 0.07105(17) 0.57105(17) 0.8971(2)
O23_85 O 0.1011(9) 0.6011(9) 0.8803(16)
O24_85 O 0.0474(10) 0.5474(10) 0.8641(15)
O25_85 O 0.0376(2) 0.58899(18) 0.93018(17)
O22_86 O 0.0376(2) 0.43018(17) 0.08899(18)
Se1_86 Se 0.07105(17) 0.3971(2) 0.07105(17)
O23_86 O 0.1011(9) 0.3803(16) 0.1011(9)
O24_86 O 0.0474(10) 0.3641(15) 0.0474(10)
O25_86 O 0.08899(18) 0.43018(17) 0.0376(2)
O22_87 O 0.06982(17) 0.9624(2) 0.41101(18)
Se1_87 Se 0.1029(2) 0.92895(17) 0.42895(17)
O23_87 O 0.1197(16) 0.8989(9) 0.3989(9)
O24_87 O 0.1359(15) 0.9526(10) 0.4526(10)
O25_87 O 0.06982(17) 0.91101(18) 0.4624(2)
O22_88 O 0.66101(18) 0.0376(2) 0.31982(17)
Se1_88 Se 0.67895(17) 0.07105(17) 0.3529(2)
O23_88 O 0.6489(9) 0.1011(9) 0.3697(16)
O24_88 O 0.7026(10) 0.0474(10) 0.3859(15)
O25_88 O 0.7124(2) 0.08899(18) 0.31982(17)
O22_89 O 0.7124(2) 0.81982(17) 0.58899(18)
Se1_89 Se 0.67895(17) 0.8529(2) 0.57105(17)
O23_89 O 0.6489(9) 0.8697(16) 0.6011(9)
O24_89 O 0.7026(10) 0.8859(15) 0.5474(10)
O25_89 O 0.66101(18) 0.81982(17) 0.5376(2)
O22_90 O 0.66101(18) 0.7124(2) 0.43018(17)
Se1_90 Se 0.67895(17) 0.67895(17) 0.3971(2)
O23_90 O 0.6489(9) 0.6489(9) 0.3803(16)
O24_90 O 0.7026(10) 0.7026(10) 0.3641(15)
O25_90 O 0.7124(2) 0.66101(18) 0.43018(17)
O22_91 O 0.06982(17) 0.7876(2) 0.33899(18)
Se1_91 Se 0.1029(2) 0.82105(17) 0.32105(17)
O23_91 O 0.1197(16) 0.8511(9) 0.3511(9)
O24_91 O 0.1359(15) 0.7974(10) 0.2974(10)
O25_91 O 0.06982(17) 0.83899(18) 0.2876(2)
O22_92 O 0.7876(2) 0.91101(18) 0.18018(17)
Se1_92 Se 0.82105(17) 0.92895(17) 0.1471(2)
O23_92 O 0.8511(9) 0.8989(9) 0.1303(16)
O24_92 O 0.7974(10) 0.9526(10) 0.1141(15)
O25_92 O 0.83899(18) 0.9624(2) 0.18018(17)
O22_93 O 0.81982(17) 0.08899(18) 0.2124(2)
Se1_93 Se 0.8529(2) 0.07105(17) 0.17895(17)
O23_93 O 0.8697(16) 0.1011(9) 0.1489(9)
O24_93 O 0.8859(15) 0.0474(10) 0.2026(10)
O25_93 O 0.81982(17) 0.0376(2) 0.16101(18)
O22_94 O 0.91101(18) 0.68018(17) 0.2876(2)
Se1_94 Se 0.92895(17) 0.6471(2) 0.32105(17)
O23_94 O 0.8989(9) 0.6303(16) 0.3511(9)
O24_94 O 0.9526(10) 0.6141(15) 0.2974(10)
O25_94 O 0.9624(2) 0.68018(17) 0.33899(18)
O22_95 O 0.08899(18) 0.0376(2) 0.43018(17)
Se1_95 Se 0.07105(17) 0.07105(17) 0.3971(2)
O23_95 O 0.1011(9) 0.1011(9) 0.3803(16)
O24_95 O 0.0474(10) 0.0474(10) 0.3641(15)
O25_95 O 0.0376(2) 0.08899(18) 0.43018(17)
O22_96 O 0.0376(2) 0.93018(17) 0.58899(18)
Se1_96 Se 0.07105(17) 0.8971(2) 0.57105(17)
O23_96 O 0.1011(9) 0.8803(16) 0.6011(9)
O24_96 O 0.0474(10) 0.8641(15) 0.5474(10)
O25_96 O 0.08899(18) 0.93018(17) 0.5376(2)
O26 O 0.7124(2) 0.43018(17) 0.66101(18)
Se2 Se 0.67895(17) 0.3971(2) 0.67895(17)
O27 O 0.6489(9) 0.3803(16) 0.6489(9)
O28 O 0.7026(10) 0.3641(15) 0.7026(10)
O29 O 0.66101(18) 0.43018(17) 0.7124(2)
O26_2 O 0.68018(17) 0.9624(2) 0.33899(18)
Se2_2 Se 0.6471(2) 0.92895(17) 0.32105(17)
O27_2 O 0.6303(16) 0.8989(9) 0.3511(9)
O28_2 O 0.6141(15) 0.9526(10) 0.2974(10)
O29_2 O 0.68018(17) 0.91101(18) 0.2876(2)
O26_3 O 0.9624(2) 0.33899(18) 0.68018(17)
Se2_3 Se 0.92895(17) 0.32105(17) 0.6471(2)
O27_3 O 0.8989(9) 0.3511(9) 0.6303(16)
O28_3 O 0.9526(10) 0.2974(10) 0.6141(15)
O29_3 O 0.91101(18) 0.2876(2) 0.68018(17)
O26_4 O 0.33899(18) 0.68018(17) 0.9624(2)
Se2_4 Se 0.32105(17) 0.6471(2) 0.92895(17)
O27_4 O 0.3511(9) 0.6303(16) 0.8989(9)
O28_4 O 0.2974(10) 0.6141(15) 0.9526(10)
O29_4 O 0.2876(2) 0.68018(17) 0.91101(18)
O26_5 O 0.91101(18) 0.68018(17) 0.2876(2)
Se2_5 Se 0.92895(17) 0.6471(2) 0.32105(17)
O27_5 O 0.8989(9) 0.6303(16) 0.3511(9)
O28_5 O 0.9526(10) 0.6141(15) 0.2974(10)
O29_5 O 0.9624(2) 0.68018(17) 0.33899(18)
O26_6 O 0.58899(18) 0.7124(2) 0.81982(17)
Se2_6 Se 0.57105(17) 0.67895(17) 0.8529(2)
O27_6 O 0.6011(9) 0.6489(9) 0.8697(16)
O28_6 O 0.5474(10) 0.7026(10) 0.8859(15)
O29_6 O 0.5376(2) 0.66101(18) 0.81982(17)
O26_7 O 0.9624(2) 0.91101(18) 0.56982(17)
Se2_7 Se 0.92895(17) 0.92895(17) 0.6029(2)
O27_7 O 0.8989(9) 0.8989(9) 0.6197(16)
O28_7 O 0.9526(10) 0.9526(10) 0.6359(15)
O29_7 O 0.91101(18) 0.9624(2) 0.56982(17)
O26_8 O 0.43018(17) 0.58899(18) 0.5376(2)
Se2_8 Se 0.3971(2) 0.57105(17) 0.57105(17)
O27_8 O 0.3803(16) 0.6011(9) 0.6011(9)
O28_8 O 0.3641(15) 0.5474(10) 0.5474(10)
O29_8 O 0.43018(17) 0.5376(2) 0.58899(18)
O26_9 O 0.68018(17) 0.2876(2) 0.91101(18)
Se2_9 Se 0.6471(2) 0.32105(17) 0.92895(17)
O27_9 O 0.6303(16) 0.3511(9) 0.8989(9)
O28_9 O 0.6141(15) 0.2974(10) 0.9526(10)
O29_9 O 0.68018(17) 0.33899(18) 0.9624(2)
O26_10 O 0.7124(2) 0.81982(17) 0.58899(18)
Se2_10 Se 0.67895(17) 0.8529(2) 0.57105(17)
O27_10 O 0.6489(9) 0.8697(16) 0.6011(9)
O28_10 O 0.7026(10) 0.8859(15) 0.5474(10)
O29_10 O 0.66101(18) 0.81982(17) 0.5376(2)
O26_11 O 0.5376(2) 0.81982(17) 0.66101(18)
Se2_11 Se 0.57105(17) 0.8529(2) 0.67895(17)
O27_11 O 0.6011(9) 0.8697(16) 0.6489(9)
O28_11 O 0.5474(10) 0.8859(15) 0.7026(10)
O29_11 O 0.58899(18) 0.81982(17) 0.7124(2)
O26_12 O 0.56982(17) 0.2876(2) 0.33899(18)
Se2_12 Se 0.6029(2) 0.32105(17) 0.32105(17)
O27_12 O 0.6197(16) 0.3511(9) 0.3511(9)
O28_12 O 0.6359(15) 0.2974(10) 0.2974(10)
O29_12 O 0.56982(17) 0.33899(18) 0.2876(2)
O26_13 O 0.33899(18) 0.56982(17) 0.2876(2)
Se2_13 Se 0.32105(17) 0.6029(2) 0.32105(17)
O27_13 O 0.3511(9) 0.6197(16) 0.3511(9)
O28_13 O 0.2974(10) 0.6359(15) 0.2974(10)
O29_13 O 0.2876(2) 0.56982(17) 0.33899(18)
O26_14 O 0.66101(18) 0.5376(2) 0.81982(17)
Se2_14 Se 0.67895(17) 0.57105(17) 0.8529(2)
O27_14 O 0.6489(9) 0.6011(9) 0.8697(16)
O28_14 O 0.7026(10) 0.5474(10) 0.8859(15)
O29_14 O 0.7124(2) 0.58899(18) 0.81982(17)
O26_15 O 0.7124(2) 0.93018(17) 0.16101(18)
Se2_15 Se 0.67895(17) 0.8971(2) 0.17895(17)
O27_15 O 0.6489(9) 0.8803(16) 0.1489(9)
O28_15 O 0.7026(10) 0.8641(15) 0.2026(10)
O29_15 O 0.66101(18) 0.93018(17) 0.2124(2)
O26_16 O 0.68018(17) 0.4624(2) 0.83899(18)
Se2_16 Se 0.6471(2) 0.42895(17) 0.82105(17)
O27_16 O 0.6303(16) 0.3989(9) 0.8511(9)
O28_16 O 0.6141(15) 0.4526(10) 0.7974(10)
O29_16 O 0.68018(17) 0.41101(18) 0.7876(2)
O26_17 O 0.9624(2) 0.83899(18) 0.18018(17)
Se2_17 Se 0.92895(17) 0.82105(17) 0.1471(2)
O27_17 O 0.8989(9) 0.8511(9) 0.1303(16)
O28_17 O 0.9526(10) 0.7974(10) 0.1141(15)
O29_17 O 0.91101(18) 0.7876(2) 0.18018(17)
O26_18 O 0.33899(18) 0.18018(17) 0.4624(2)
Se2_18 Se 0.32105(17) 0.1471(2) 0.42895(17)
O27_18 O 0.3511(9) 0.1303(16) 0.3989(9)
O28_18 O 0.2974(10) 0.1141(15) 0.4526(10)
O29_18 O 0.2876(2) 0.18018(17) 0.41101(18)
O26_19 O 0.91101(18) 0.18018(17) 0.7876(2)
Se2_19 Se 0.92895(17) 0.1471(2) 0.82105(17)
O27_19 O 0.8989(9) 0.1303(16) 0.8511(9)
O28_19 O 0.9526(10) 0.1141(15) 0.7974(10)
O29_19 O 0.9624(2) 0.18018(17) 0.83899(18)
O26_20 O 0.58899(18) 0.2124(2) 0.31982(17)
Se2_20 Se 0.57105(17) 0.17895(17) 0.3529(2)
O27_20 O 0.6011(9) 0.1489(9) 0.3697(16)
O28_20 O 0.5474(10) 0.2026(10) 0.3859(15)
O29_20 O 0.5376(2) 0.16101(18) 0.31982(17)
O26_21 O 0.9624(2) 0.41101(18) 0.06982(17)
Se2_21 Se 0.92895(17) 0.42895(17) 0.1029(2)
O27_21 O 0.8989(9) 0.3989(9) 0.1197(16)
O28_21 O 0.9526(10) 0.4526(10) 0.1359(15)
O29_21 O 0.91101(18) 0.4624(2) 0.06982(17)
O26_22 O 0.43018(17) 0.08899(18) 0.0376(2)
Se2_22 Se 0.3971(2) 0.07105(17) 0.07105(17)
O27_22 O 0.3803(16) 0.1011(9) 0.1011(9)
O28_22 O 0.3641(15) 0.0474(10) 0.0474(10)
O29_22 O 0.43018(17) 0.0376(2) 0.08899(18)
O26_23 O 0.68018(17) 0.7876(2) 0.41101(18)
Se2_23 Se 0.6471(2) 0.82105(17) 0.42895(17)
O27_23 O 0.6303(16) 0.8511(9) 0.3989(9)
O28_23 O 0.6141(15) 0.7974(10) 0.4526(10)
O29_23 O 0.68018(17) 0.83899(18) 0.4624(2)
O26_24 O 0.7124(2) 0.31982(17) 0.08899(18)
Se2_24 Se 0.67895(17) 0.3529(2) 0.07105(17)
O27_24 O 0.6489(9) 0.3697(16) 0.1011(9)
O28_24 O 0.7026(10) 0.3859(15) 0.0474(10)
O29_24 O 0.66101(18) 0.31982(17) 0.0376(2)
O26_25 O 0.5376(2) 0.31982(17) 0.16101(18)
Se2_25 Se 0.57105(17) 0.3529(2) 0.17895(17)
O27_25 O 0.6011(9) 0.3697(16) 0.1489(9)
O28_25 O 0.5474(10) 0.3859(15) 0.2026(10)
O29_25 O 0.58899(18) 0.31982(17) 0.2124(2)
O26_26 O 0.56982(17) 0.7876(2) 0.83899(18)
Se2_26 Se 0.6029(2) 0.82105(17) 0.82105(17)
O27_26 O 0.6197(16) 0.8511(9) 0.8511(9)
O28_26 O 0.6359(15) 0.7974(10) 0.7974(10)
O29_26 O 0.56982(17) 0.83899(18) 0.7876(2)
O26_27 O 0.33899(18) 0.06982(17) 0.7876(2)
Se2_27 Se 0.32105(17) 0.1029(2) 0.82105(17)
O27_27 O 0.3511(9) 0.1197(16) 0.8511(9)
O28_27 O 0.2974(10) 0.1359(15) 0.7974(10)
O29_27 O 0.2876(2) 0.06982(17) 0.83899(18)
O26_28 O 0.66101(18) 0.0376(2) 0.31982(17)
Se2_28 Se 0.67895(17) 0.07105(17) 0.3529(2)
O27_28 O 0.6489(9) 0.1011(9) 0.3697(16)
O28_28 O 0.7026(10) 0.0474(10) 0.3859(15)
O29_28 O 0.7124(2) 0.08899(18) 0.31982(17)
O26_29 O 0.2124(2) 0.43018(17) 0.16101(18)
Se2_29 Se 0.17895(17) 0.3971(2) 0.17895(17)
O27_29 O 0.1489(9) 0.3803(16) 0.1489(9)
O28_29 O 0.2026(10) 0.3641(15) 0.2026(10)
O29_29 O 0.16101(18) 0.43018(17) 0.2124(2)
O26_30 O 0.18018(17) 0.9624(2) 0.83899(18)
Se2_30 Se 0.1471(2) 0.92895(17) 0.82105(17)
O27_30 O 0.1303(16) 0.8989(9) 0.8511(9)
O28_30 O 0.1141(15) 0.9526(10) 0.7974(10)
O29_30 O 0.18018(17) 0.91101(18) 0.7876(2)
O26_31 O 0.4624(2) 0.33899(18) 0.18018(17)
Se2_31 Se 0.42895(17) 0.32105(17) 0.1471(2)
O27_31 O 0.3989(9) 0.3511(9) 0.1303(16)
O28_31 O 0.4526(10) 0.2974(10) 0.1141(15)
O29_31 O 0.41101(18) 0.2876(2) 0.18018(17)
O26_32 O 0.83899(18) 0.68018(17) 0.4624(2)
Se2_32 Se 0.82105(17) 0.6471(2) 0.42895(17)
O27_32 O 0.8511(9) 0.6303(16) 0.3989(9)
O28_32 O 0.7974(10) 0.6141(15) 0.4526(10)
O29_32 O 0.7876(2) 0.68018(17) 0.41101(18)
O26_33 O 0.41101(18) 0.68018(17) 0.7876(2)
Se2_33 Se 0.42895(17) 0.6471(2) 0.82105(17)
O27_33 O 0.3989(9) 0.6303(16) 0.8511(9)
O28_33 O 0.4526(10) 0.6141(15) 0.7974(10)
O29_33 O 0.4624(2) 0.68018(17) 0.83899(18)
O26_34 O 0.08899(18) 0.7124(2) 0.31982(17)
Se2_34 Se 0.07105(17) 0.67895(17) 0.3529(2)
O27_34 O 0.1011(9) 0.6489(9) 0.3697(16)
O28_34 O 0.0474(10) 0.7026(10) 0.3859(15)
O29_34 O 0.0376(2) 0.66101(18) 0.31982(17)
O26_35 O 0.4624(2) 0.91101(18) 0.06982(17)
Se2_35 Se 0.42895(17) 0.92895(17) 0.1029(2)
O27_35 O 0.3989(9) 0.8989(9) 0.1197(16)
O28_35 O 0.4526(10) 0.9526(10) 0.1359(15)
O29_35 O 0.41101(18) 0.9624(2) 0.06982(17)
O26_36 O 0.93018(17) 0.58899(18) 0.0376(2)
Se2_36 Se 0.8971(2) 0.57105(17) 0.07105(17)
O27_36 O 0.8803(16) 0.6011(9) 0.1011(9)
O28_36 O 0.8641(15) 0.5474(10) 0.0474(10)
O29_36 O 0.93018(17) 0.5376(2) 0.08899(18)
O26_37 O 0.18018(17) 0.2876(2) 0.41101(18)
Se2_37 Se 0.1471(2) 0.32105(17) 0.42895(17)
O27_37 O 0.1303(16) 0.3511(9) 0.3989(9)
O28_37 O 0.1141(15) 0.2974(10) 0.4526(10)
O29_37 O 0.18018(17) 0.33899(18) 0.4624(2)
O26_38 O 0.2124(2) 0.81982(17) 0.08899(18)
Se2_38 Se 0.17895(17) 0.8529(2) 0.07105(17)
O27_38 O 0.1489(9) 0.8697(16) 0.1011(9)
O28_38 O 0.2026(10) 0.8859(15) 0.0474(10)
O29_38 O 0.16101(18) 0.81982(17) 0.0376(2)
O26_39 O 0.0376(2) 0.81982(17) 0.16101(18)
Se2_39 Se 0.07105(17) 0.8529(2) 0.17895(17)
O27_39 O 0.1011(9) 0.8697(16) 0.1489(9)
O28_39 O 0.0474(10) 0.8859(15) 0.2026(10)
O29_39 O 0.08899(18) 0.81982(17) 0.2124(2)
O26_40 O 0.06982(17) 0.2876(2) 0.83899(18)
Se2_40 Se 0.1029(2) 0.32105(17) 0.82105(17)
O27_40 O 0.1197(16) 0.3511(9) 0.8511(9)
O28_40 O 0.1359(15) 0.2974(10) 0.7974(10)
O29_40 O 0.06982(17) 0.33899(18) 0.7876(2)
O26_41 O 0.83899(18) 0.56982(17) 0.7876(2)
Se2_41 Se 0.82105(17) 0.6029(2) 0.82105(17)
O27_41 O 0.8511(9) 0.6197(16) 0.8511(9)
O28_41 O 0.7974(10) 0.6359(15) 0.7974(10)
O29_41 O 0.7876(2) 0.56982(17) 0.83899(18)
O26_42 O 0.16101(18) 0.5376(2) 0.31982(17)
Se2_42 Se 0.17895(17) 0.57105(17) 0.3529(2)
O27_42 O 0.1489(9) 0.6011(9) 0.3697(16)
O28_42 O 0.2026(10) 0.5474(10) 0.3859(15)
O29_42 O 0.2124(2) 0.58899(18) 0.31982(17)
O26_43 O 0.2124(2) 0.93018(17) 0.66101(18)
Se2_43 Se 0.17895(17) 0.8971(2) 0.67895(17)
O27_43 O 0.1489(9) 0.8803(16) 0.6489(9)
O28_43 O 0.2026(10) 0.8641(15) 0.7026(10)
O29_43 O 0.16101(18) 0.93018(17) 0.7124(2)
O26_44 O 0.18018(17) 0.4624(2) 0.33899(18)
Se2_44 Se 0.1471(2) 0.42895(17) 0.32105(17)
O27_44 O 0.1303(16) 0.3989(9) 0.3511(9)
O28_44 O 0.1141(15) 0.4526(10) 0.2974(10)
O29_44 O 0.18018(17) 0.41101(18) 0.2876(2)
O26_45 O 0.4624(2) 0.83899(18) 0.68018(17)
Se2_45 Se 0.42895(17) 0.82105(17) 0.6471(2)
O27_45 O 0.3989(9) 0.8511(9) 0.6303(16)
O28_45 O 0.4526(10) 0.7974(10) 0.6141(15)
O29_45 O 0.41101(18) 0.7876(2) 0.68018(17)
O26_46 O 0.83899(18) 0.18018(17) 0.9624(2)
Se2_46 Se 0.82105(17) 0.1471(2) 0.92895(17)
O27_46 O 0.8511(9) 0.1303(16) 0.8989(9)
O28_46 O 0.7974(10) 0.1141(15) 0.9526(10)
O29_46 O 0.7876(2) 0.18018(17) 0.91101(18)
O26_47 O 0.41101(18) 0.18018(17) 0.2876(2)
Se2_47 Se 0.42895(17) 0.1471(2) 0.32105(17)
O27_47 O 0.3989(9) 0.1303(16) 0.3511(9)
O28_47 O 0.4526(10) 0.1141(15) 0.2974(10)
O29_47 O 0.4624(2) 0.18018(17) 0.33899(18)
O26_48 O 0.08899(18) 0.2124(2) 0.81982(17)
Se2_48 Se 0.07105(17) 0.17895(17) 0.8529(2)
O27_48 O 0.1011(9) 0.1489(9) 0.8697(16)
O28_48 O 0.0474(10) 0.2026(10) 0.8859(15)
O29_48 O 0.0376(2) 0.16101(18) 0.81982(17)
O26_49 O 0.4624(2) 0.41101(18) 0.56982(17)
Se2_49 Se 0.42895(17) 0.42895(17) 0.6029(2)
O27_49 O 0.3989(9) 0.3989(9) 0.6197(16)
O28_49 O 0.4526(10) 0.4526(10) 0.6359(15)
O29_49 O 0.41101(18) 0.4624(2) 0.56982(17)
O26_50 O 0.93018(17) 0.08899(18) 0.5376(2)
Se2_50 Se 0.8971(2) 0.07105(17) 0.57105(17)
O27_50 O 0.8803(16) 0.1011(9) 0.6011(9)
O28_50 O 0.8641(15) 0.0474(10) 0.5474(10)
O29_50 O 0.93018(17) 0.0376(2) 0.58899(18)
O26_51 O 0.18018(17) 0.7876(2) 0.91101(18)
Se2_51 Se 0.1471(2) 0.82105(17) 0.92895(17)
O27_51 O 0.1303(16) 0.8511(9) 0.8989(9)
O28_51 O 0.1141(15) 0.7974(10) 0.9526(10)
O29_51 O 0.18018(17) 0.83899(18) 0.9624(2)
O26_52 O 0.2124(2) 0.31982(17) 0.58899(18)
Se2_52 Se 0.17895(17) 0.3529(2) 0.57105(17)
O27_52 O 0.1489(9) 0.3697(16) 0.6011(9)
O28_52 O 0.2026(10) 0.3859(15) 0.5474(10)
O29_52 O 0.16101(18) 0.31982(17) 0.5376(2)
O26_53 O 0.0376(2) 0.31982(17) 0.66101(18)
Se2_53 Se 0.07105(17) 0.3529(2) 0.67895(17)
O27_53 O 0.1011(9) 0.3697(16) 0.6489(9)
O28_53 O 0.0474(10) 0.3859(15) 0.7026(10)
O29_53 O 0.08899(18) 0.31982(17) 0.7124(2)
O26_54 O 0.06982(17) 0.7876(2) 0.33899(18)
Se2_54 Se 0.1029(2) 0.82105(17) 0.32105(17)
O27_54 O 0.1197(16) 0.8511(9) 0.3511(9)
O28_54 O 0.1359(15) 0.7974(10) 0.2974(10)
O29_54 O 0.06982(17) 0.83899(18) 0.2876(2)
O26_55 O 0.83899(18) 0.06982(17) 0.2876(2)
Se2_55 Se 0.82105(17) 0.1029(2) 0.32105(17)
O27_55 O 0.8511(9) 0.1197(16) 0.3511(9)
O28_55 O 0.7974(10) 0.1359(15) 0.2974(10)
O29_55 O 0.7876(2) 0.06982(17) 0.33899(18)
O26_56 O 0.16101(18) 0.0376(2) 0.81982(17)
Se2_56 Se 0.17895(17) 0.07105(17) 0.8529(2)
O27_56 O 0.1489(9) 0.1011(9) 0.8697(16)
O28_56 O 0.2026(10) 0.0474(10) 0.8859(15)
O29_56 O 0.2124(2) 0.08899(18) 0.81982(17)
O26_57 O 0.2876(2) 0.33899(18) 0.56982(17)
Se2_57 Se 0.32105(17) 0.32105(17) 0.6029(2)
O27_57 O 0.3511(9) 0.3511(9) 0.6197(16)
O28_57 O 0.2974(10) 0.2974(10) 0.6359(15)
O29_57 O 0.33899(18) 0.2876(2) 0.56982(17)
O26_58 O 0.31982(17) 0.66101(18) 0.0376(2)
Se2_58 Se 0.3529(2) 0.67895(17) 0.07105(17)
O27_58 O 0.3697(16) 0.6489(9) 0.1011(9)
O28_58 O 0.3859(15) 0.7026(10) 0.0474(10)
O29_58 O 0.31982(17) 0.7124(2) 0.08899(18)
O26_59 O 0.08899(18) 0.0376(2) 0.43018(17)
Se2_59 Se 0.07105(17) 0.07105(17) 0.3971(2)
O27_59 O 0.1011(9) 0.1011(9) 0.3803(16)
O28_59 O 0.0474(10) 0.0474(10) 0.3641(15)
O29_59 O 0.0376(2) 0.08899(18) 0.43018(17)
O26_60 O 0.31982(17) 0.08899(18) 0.7124(2)
Se2_60 Se 0.3529(2) 0.07105(17) 0.67895(17)
O27_60 O 0.3697(16) 0.1011(9) 0.6489(9)
O28_60 O 0.3859(15) 0.0474(10) 0.7026(10)
O29_60 O 0.31982(17) 0.0376(2) 0.66101(18)
O26_61 O 0.2876(2) 0.41101(18) 0.18018(17)
Se2_61 Se 0.32105(17) 0.42895(17) 0.1471(2)
O27_61 O 0.3511(9) 0.3989(9) 0.1303(16)
O28_61 O 0.2974(10) 0.4526(10) 0.1141(15)
O29_61 O 0.33899(18) 0.4624(2) 0.18018(17)
O26_62 O 0.41101(18) 0.56982(17) 0.4624(2)
Se2_62 Se 0.42895(17) 0.6029(2) 0.42895(17)
O27_62 O 0.3989(9) 0.6197(16) 0.3989(9)
O28_62 O 0.4526(10) 0.6359(15) 0.4526(10)
O29_62 O 0.4624(2) 0.56982(17) 0.41101(18)
O26_63 O 0.0376(2) 0.43018(17) 0.08899(18)
Se2_63 Se 0.07105(17) 0.3971(2) 0.07105(17)
O27_63 O 0.1011(9) 0.3803(16) 0.1011(9)
O28_63 O 0.0474(10) 0.3641(15) 0.0474(10)
O29_63 O 0.08899(18) 0.43018(17) 0.0376(2)
O26_64 O 0.56982(17) 0.4624(2) 0.41101(18)
Se2_64 Se 0.6029(2) 0.42895(17) 0.42895(17)
O27_64 O 0.6197(16) 0.3989(9) 0.3989(9)
O28_64 O 0.6359(15) 0.4526(10) 0.4526(10)
O29_64 O 0.56982(17) 0.41101(18) 0.4624(2)
O26_65 O 0.43018(17) 0.66101(18) 0.7124(2)
Se2_65 Se 0.3971(2) 0.67895(17) 0.67895(17)
O27_65 O 0.3803(16) 0.6489(9) 0.6489(9)
O28_65 O 0.3641(15) 0.7026(10) 0.7026(10)
O29_65 O 0.43018(17) 0.7124(2) 0.66101(18)
O26_66 O 0.66101(18) 0.7124(2) 0.43018(17)
Se2_66 Se 0.67895(17) 0.67895(17) 0.3971(2)
O27_66 O 0.6489(9) 0.6489(9) 0.3803(16)
O28_66 O 0.7026(10) 0.7026(10) 0.3641(15)
O29_66 O 0.7124(2) 0.66101(18) 0.43018(17)
O26_67 O 0.2876(2) 0.83899(18) 0.06982(17)
Se2_67 Se 0.32105(17) 0.82105(17) 0.1029(2)
O27_67 O 0.3511(9) 0.8511(9) 0.1197(16)
O28_67 O 0.2974(10) 0.7974(10) 0.1359(15)
O29_67 O 0.33899(18) 0.7876(2) 0.06982(17)
O26_68 O 0.31982(17) 0.16101(18) 0.5376(2)
Se2_68 Se 0.3529(2) 0.17895(17) 0.57105(17)
O27_68 O 0.3697(16) 0.1489(9) 0.6011(9)
O28_68 O 0.3859(15) 0.2026(10) 0.5474(10)
O29_68 O 0.31982(17) 0.2124(2) 0.58899(18)
O26_69 O 0.08899(18) 0.5376(2) 0.93018(17)
Se2_69 Se 0.07105(17) 0.57105(17) 0.8971(2)
O27_69 O 0.1011(9) 0.6011(9) 0.8803(16)
O28_69 O 0.0474(10) 0.5474(10) 0.8641(15)
O29_69 O 0.0376(2) 0.58899(18) 0.93018(17)
O26_70 O 0.31982(17) 0.58899(18) 0.2124(2)
Se2_70 Se 0.3529(2) 0.57105(17) 0.17895(17)
O27_70 O 0.3697(16) 0.6011(9) 0.1489(9)
O28_70 O 0.3859(15) 0.5474(10) 0.2026(10)
O29_70 O 0.31982(17) 0.5376(2) 0.16101(18)
O26_71 O 0.2876(2) 0.91101(18) 0.68018(17)
Se2_71 Se 0.32105(17) 0.92895(17) 0.6471(2)
O27_71 O 0.3511(9) 0.8989(9) 0.6303(16)
O28_71 O 0.2974(10) 0.9526(10) 0.6141(15)
O29_71 O 0.33899(18) 0.9624(2) 0.68018(17)
O26_72 O 0.41101(18) 0.06982(17) 0.9624(2)
Se2_72 Se 0.42895(17) 0.1029(2) 0.92895(17)
O27_72 O 0.3989(9) 0.1197(16) 0.8989(9)
O28_72 O 0.4526(10) 0.1359(15) 0.9526(10)
O29_72 O 0.4624(2) 0.06982(17) 0.91101(18)
O26_73 O 0.0376(2) 0.93018(17) 0.58899(18)
Se2_73 Se 0.07105(17) 0.8971(2) 0.57105(17)
O27_73 O 0.1011(9) 0.8803(16) 0.6011(9)
O28_73 O 0.0474(10) 0.8641(15) 0.5474(10)
O29_73 O 0.08899(18) 0.93018(17) 0.5376(2)
O26_74 O 0.56982(17) 0.9624(2) 0.91101(18)
Se2_74 Se 0.6029(2) 0.92895(17) 0.92895(17)
O27_74 O 0.6197(16) 0.8989(9) 0.8989(9)
O28_74 O 0.6359(15) 0.9526(10) 0.9526(10)
O29_74 O 0.56982(17) 0.91101(18) 0.9624(2)
O26_75 O 0.43018(17) 0.16101(18) 0.2124(2)
Se2_75 Se 0.3971(2) 0.17895(17) 0.17895(17)
O27_75 O 0.3803(16) 0.1489(9) 0.1489(9)
O28_75 O 0.3641(15) 0.2026(10) 0.2026(10)
O29_75 O 0.43018(17) 0.2124(2) 0.16101(18)
O26_76 O 0.66101(18) 0.2124(2) 0.93018(17)
Se2_76 Se 0.67895(17) 0.17895(17) 0.8971(2)
O27_76 O 0.6489(9) 0.1489(9) 0.8803(16)
O28_76 O 0.7026(10) 0.2026(10) 0.8641(15)
O29_76 O 0.7124(2) 0.16101(18) 0.93018(17)
O26_77 O 0.7876(2) 0.33899(18) 0.06982(17)
Se2_77 Se 0.82105(17) 0.32105(17) 0.1029(2)
O27_77 O 0.8511(9) 0.3511(9) 0.1197(16)
O28_77 O 0.7974(10) 0.2974(10) 0.1359(15)
O29_77 O 0.83899(18) 0.2876(2) 0.06982(17)
O26_78 O 0.81982(17) 0.66101(18) 0.5376(2)
Se2_78 Se 0.8529(2) 0.67895(17) 0.57105(17)
O27_78 O 0.8697(16) 0.6489(9) 0.6011(9)
O28_78 O 0.8859(15) 0.7026(10) 0.5474(10)
O29_78 O 0.81982(17) 0.7124(2) 0.58899(18)
O26_79 O 0.58899(18) 0.0376(2) 0.93018(17)
Se2_79 Se 0.57105(17) 0.07105(17) 0.8971(2)
O27_79 O 0.6011(9) 0.1011(9) 0.8803(16)
O28_79 O 0.5474(10) 0.0474(10) 0.8641(15)
O29_79 O 0.5376(2) 0.08899(18) 0.93018(17)
O26_80 O 0.81982(17) 0.08899(18) 0.2124(2)
Se2_80 Se 0.8529(2) 0.07105(17) 0.17895(17)
O27_80 O 0.8697(16) 0.1011(9) 0.1489(9)
O28_80 O 0.8859(15) 0.0474(10) 0.2026(10)
O29_80 O 0.81982(17) 0.0376(2) 0.16101(18)
O26_81 O 0.7876(2) 0.41101(18) 0.68018(17)
Se2_81 Se 0.82105(17) 0.42895(17) 0.6471(2)
O27_81 O 0.8511(9) 0.3989(9) 0.6303(16)
O28_81 O 0.7974(10) 0.4526(10) 0.6141(15)
O29_81 O 0.83899(18) 0.4624(2) 0.68018(17)
O26_82 O 0.91101(18) 0.56982(17) 0.9624(2)
Se2_82 Se 0.92895(17) 0.6029(2) 0.92895(17)
O27_82 O 0.8989(9) 0.6197(16) 0.8989(9)
O28_82 O 0.9526(10) 0.6359(15) 0.9526(10)
O29_82 O 0.9624(2) 0.56982(17) 0.91101(18)
O26_83 O 0.5376(2) 0.43018(17) 0.58899(18)
Se2_83 Se 0.57105(17) 0.3971(2) 0.57105(17)
O27_83 O 0.6011(9) 0.3803(16) 0.6011(9)
O28_83 O 0.5474(10) 0.3641(15) 0.5474(10)
O29_83 O 0.58899(18) 0.43018(17) 0.5376(2)
O26_84 O 0.06982(17) 0.4624(2) 0.91101(18)
Se2_84 Se 0.1029(2) 0.42895(17) 0.92895(17)
O27_84 O 0.1197(16) 0.3989(9) 0.8989(9)
O28_84 O 0.1359(15) 0.4526(10) 0.9526(10)
O29_84 O 0.06982(17) 0.41101(18) 0.9624(2)
O26_85 O 0.93018(17) 0.66101(18) 0.2124(2)
Se2_85 Se 0.8971(2) 0.67895(17) 0.17895(17)
O27_85 O 0.8803(16) 0.6489(9) 0.1489(9)
O28_85 O 0.8641(15) 0.7026(10) 0.2026(10)
O29_85 O 0.93018(17) 0.7124(2) 0.16101(18)
O26_86 O 0.16101(18) 0.7124(2) 0.93018(17)
Se2_86 Se 0.17895(17) 0.67895(17) 0.8971(2)
O27_86 O 0.1489(9) 0.6489(9) 0.8803(16)
O28_86 O 0.2026(10) 0.7026(10) 0.8641(15)
O29_86 O 0.2124(2) 0.66101(18) 0.93018(17)
O26_87 O 0.7876(2) 0.83899(18) 0.56982(17)
Se2_87 Se 0.82105(17) 0.82105(17) 0.6029(2)
O27_87 O 0.8511(9) 0.8511(9) 0.6197(16)
O28_87 O 0.7974(10) 0.7974(10) 0.6359(15)
O29_87 O 0.83899(18) 0.7876(2) 0.56982(17)
O26_88 O 0.81982(17) 0.16101(18) 0.0376(2)
Se2_88 Se 0.8529(2) 0.17895(17) 0.07105(17)
O27_88 O 0.8697(16) 0.1489(9) 0.1011(9)
O28_88 O 0.8859(15) 0.2026(10) 0.0474(10)
O29_88 O 0.81982(17) 0.2124(2) 0.08899(18)
O26_89 O 0.58899(18) 0.5376(2) 0.43018(17)
Se2_89 Se 0.57105(17) 0.57105(17) 0.3971(2)
O27_89 O 0.6011(9) 0.6011(9) 0.3803(16)
O28_89 O 0.5474(10) 0.5474(10) 0.3641(15)
O29_89 O 0.5376(2) 0.58899(18) 0.43018(17)
O26_90 O 0.81982(17) 0.58899(18) 0.7124(2)
Se2_90 Se 0.8529(2) 0.57105(17) 0.67895(17)
O27_90 O 0.8697(16) 0.6011(9) 0.6489(9)
O28_90 O 0.8859(15) 0.5474(10) 0.7026(10)
O29_90 O 0.81982(17) 0.5376(2) 0.66101(18)
O26_91 O 0.7876(2) 0.91101(18) 0.18018(17)
Se2_91 Se 0.82105(17) 0.92895(17) 0.1471(2)
O27_91 O 0.8511(9) 0.8989(9) 0.1303(16)
O28_91 O 0.7974(10) 0.9526(10) 0.1141(15)
O29_91 O 0.83899(18) 0.9624(2) 0.18018(17)
O26_92 O 0.91101(18) 0.06982(17) 0.4624(2)
Se2_92 Se 0.92895(17) 0.1029(2) 0.42895(17)
O27_92 O 0.8989(9) 0.1197(16) 0.3989(9)
O28_92 O 0.9526(10) 0.1359(15) 0.4526(10)
O29_92 O 0.9624(2) 0.06982(17) 0.41101(18)
O26_93 O 0.5376(2) 0.93018(17) 0.08899(18)
Se2_93 Se 0.57105(17) 0.8971(2) 0.07105(17)
O27_93 O 0.6011(9) 0.8803(16) 0.1011(9)
O28_93 O 0.5474(10) 0.8641(15) 0.0474(10)
O29_93 O 0.58899(18) 0.93018(17) 0.0376(2)
O26_94 O 0.06982(17) 0.9624(2) 0.41101(18)
Se2_94 Se 0.1029(2) 0.92895(17) 0.42895(17)
O27_94 O 0.1197(16) 0.8989(9) 0.3989(9)
O28_94 O 0.1359(15) 0.9526(10) 0.4526(10)
O29_94 O 0.06982(17) 0.91101(18) 0.4624(2)
O26_95 O 0.93018(17) 0.16101(18) 0.7124(2)
Se2_95 Se 0.8971(2) 0.17895(17) 0.67895(17)
O27_95 O 0.8803(16) 0.1489(9) 0.6489(9)
O28_95 O 0.8641(15) 0.2026(10) 0.7026(10)
O29_95 O 0.93018(17) 0.2124(2) 0.66101(18)
O26_96 O 0.16101(18) 0.2124(2) 0.43018(17)
Se2_96 Se 0.17895(17) 0.17895(17) 0.3971(2)
O27_96 O 0.1489(9) 0.1489(9) 0.3803(16)
O28_96 O 0.2026(10) 0.2026(10) 0.3641(15)
O29_96 O 0.2124(2) 0.16101(18) 0.43018(17)
O30 O 0.58899(18) 0.7124(2) 0.81982(17)
Se3 Se 0.57105(17) 0.67895(17) 0.8529(2)
O31 O 0.6011(9) 0.6489(9) 0.8697(16)
O32 O 0.5474(10) 0.7026(10) 0.8859(15)
O33 O 0.5376(2) 0.66101(18) 0.81982(17)
O30_2 O 0.9624(2) 0.83899(18) 0.18018(17)
Se3_2 Se 0.92895(17) 0.82105(17) 0.1471(2)
O31_2 O 0.8989(9) 0.8511(9) 0.1303(16)
O32_2 O 0.9526(10) 0.7974(10) 0.1141(15)
O33_2 O 0.91101(18) 0.7876(2) 0.18018(17)
O30_3 O 0.83899(18) 0.18018(17) 0.9624(2)
Se3_3 Se 0.82105(17) 0.1471(2) 0.92895(17)
O31_3 O 0.8511(9) 0.1303(16) 0.8989(9)
O32_3 O 0.7974(10) 0.1141(15) 0.9526(10)
O33_3 O 0.7876(2) 0.18018(17) 0.91101(18)
O30_4 O 0.18018(17) 0.9624(2) 0.83899(18)
Se3_4 Se 0.1471(2) 0.92895(17) 0.82105(17)
O31_4 O 0.1303(16) 0.8989(9) 0.8511(9)
O32_4 O 0.1141(15) 0.9526(10) 0.7974(10)
O33_4 O 0.18018(17) 0.91101(18) 0.7876(2)
O30_5 O 0.06982(17) 0.9624(2) 0.41101(18)
Se3_5 Se 0.1029(2) 0.92895(17) 0.42895(17)
O31_5 O 0.1197(16) 0.8989(9) 0.3989(9)
O32_5 O 0.1359(15) 0.9526(10) 0.4526(10)
O33_5 O 0.06982(17) 0.91101(18) 0.4624(2)
O30_6 O 0.43018(17) 0.58899(18) 0.5376(2)
Se3_6 Se 0.3971(2) 0.57105(17) 0.57105(17)
O31_6 O 0.3803(16) 0.6011(9) 0.6011(9)
O32_6 O 0.3641(15) 0.5474(10) 0.5474(10)
O33_6 O 0.43018(17) 0.5376(2) 0.58899(18)
O30_7 O 0.83899(18) 0.06982(17) 0.2876(2)
Se3_7 Se 0.82105(17) 0.1029(2) 0.32105(17)
O31_7 O 0.8511(9) 0.1197(16) 0.3511(9)
O32_7 O 0.7974(10) 0.1359(15) 0.2974(10)
O33_7 O 0.7876(2) 0.06982(17) 0.33899(18)
O30_8 O 0.7124(2) 0.43018(17) 0.66101(18)
Se3_8 Se 0.67895(17) 0.3971(2) 0.67895(17)
O31_8 O 0.6489(9) 0.3803(16) 0.6489(9)
O32_8 O 0.7026(10) 0.3641(15) 0.7026(10)
O33_8 O 0.66101(18) 0.43018(17) 0.7124(2)
O30_9 O 0.9624(2) 0.41101(18) 0.06982(17)
Se3_9 Se 0.92895(17) 0.42895(17) 0.1029(2)
O31_9 O 0.8989(9) 0.3989(9) 0.1197(16)
O32_9 O 0.9526(10) 0.4526(10) 0.1359(15)
O33_9 O 0.91101(18) 0.4624(2) 0.06982(17)
O30_10 O 0.58899(18) 0.5376(2) 0.43018(17)
Se3_10 Se 0.57105(17) 0.57105(17) 0.3971(2)
O31_10 O 0.6011(9) 0.6011(9) 0.3803(16)
O32_10 O 0.5474(10) 0.5474(10) 0.3641(15)
O33_10 O 0.5376(2) 0.58899(18) 0.43018(17)
O30_11 O 0.66101(18) 0.5376(2) 0.81982(17)
Se3_11 Se 0.67895(17) 0.57105(17) 0.8529(2)
O31_11 O 0.6489(9) 0.6011(9) 0.8697(16)
O32_11 O 0.7026(10) 0.5474(10) 0.8859(15)
O33_11 O 0.7124(2) 0.58899(18) 0.81982(17)
O30_12 O 0.2876(2) 0.41101(18) 0.18018(17)
Se3_12 Se 0.32105(17) 0.42895(17) 0.1471(2)
O31_12 O 0.3511(9) 0.3989(9) 0.1303(16)
O32_12 O 0.2974(10) 0.4526(10) 0.1141(15)
O33_12 O 0.33899(18) 0.4624(2) 0.18018(17)
O30_13 O 0.18018(17) 0.2876(2) 0.41101(18)
Se3_13 Se 0.1471(2) 0.32105(17) 0.42895(17)
O31_13 O 0.1303(16) 0.3511(9) 0.3989(9)
O32_13 O 0.1141(15) 0.2974(10) 0.4526(10)
O33_13 O 0.18018(17) 0.33899(18) 0.4624(2)
O30_14 O 0.81982(17) 0.66101(18) 0.5376(2)
Se3_14 Se 0.8529(2) 0.67895(17) 0.57105(17)
O31_14 O 0.8697(16) 0.6489(9) 0.6011(9)
O32_14 O 0.8859(15) 0.7026(10) 0.5474(10)
O33_14 O 0.81982(17) 0.7124(2) 0.58899(18)
O30_15 O 0.58899(18) 0.2124(2) 0.31982(17)
Se3_15 Se 0.57105(17) 0.17895(17) 0.3529(2)
O31_15 O 0.6011(9) 0.1489(9) 0.3697(16)
O32_15 O 0.5474(10) 0.2026(10) 0.3859(15)
O33_15 O 0.5376(2) 0.16101(18) 0.31982(17)
O30_16 O 0.9624(2) 0.33899(18) 0.68018(17)
Se3_16 Se 0.92895(17) 0.32105(17) 0.6471(2)
O31_16 O 0.8989(9) 0.3511(9) 0.6303(16)
O32_16 O 0.9526(10) 0.2974(10) 0.6141(15)
O33_16 O 0.91101(18) 0.2876(2) 0.68018(17)
O30_17 O 0.83899(18) 0.68018(17) 0.4624(2)
Se3_17 Se 0.82105(17) 0.6471(2) 0.42895(17)
O31_17 O 0.8511(9) 0.6303(16) 0.3989(9)
O32_17 O 0.7974(10) 0.6141(15) 0.4526(10)
O33_17 O 0.7876(2) 0.68018(17) 0.41101(18)
O30_18 O 0.18018(17) 0.4624(2) 0.33899(18)
Se3_18 Se 0.1471(2) 0.42895(17) 0.32105(17)
O31_18 O 0.1303(16) 0.3989(9) 0.3511(9)
O32_18 O 0.1141(15) 0.4526(10) 0.2974(10)
O33_18 O 0.18018(17) 0.41101(18) 0.2876(2)
O30_19 O 0.06982(17) 0.4624(2) 0.91101(18)
Se3_19 Se 0.1029(2) 0.42895(17) 0.92895(17)
O31_19 O 0.1197(16) 0.3989(9) 0.8989(9)
O32_19 O 0.1359(15) 0.4526(10) 0.9526(10)
O33_19 O 0.06982(17) 0.41101(18) 0.9624(2)
O30_20 O 0.43018(17) 0.08899(18) 0.0376(2)
Se3_20 Se 0.3971(2) 0.07105(17) 0.07105(17)
O31_20 O 0.3803(16) 0.1011(9) 0.1011(9)
O32_20 O 0.3641(15) 0.0474(10) 0.0474(10)
O33_20 O 0.43018(17) 0.0376(2) 0.08899(18)
O30_21 O 0.83899(18) 0.56982(17) 0.7876(2)
Se3_21 Se 0.82105(17) 0.6029(2) 0.82105(17)
O31_21 O 0.8511(9) 0.6197(16) 0.8511(9)
O32_21 O 0.7974(10) 0.6359(15) 0.7974(10)
O33_21 O 0.7876(2) 0.56982(17) 0.83899(18)
O30_22 O 0.7124(2) 0.93018(17) 0.16101(18)
Se3_22 Se 0.67895(17) 0.8971(2) 0.17895(17)
O31_22 O 0.6489(9) 0.8803(16) 0.1489(9)
O32_22 O 0.7026(10) 0.8641(15) 0.2026(10)
O33_22 O 0.66101(18) 0.93018(17) 0.2124(2)
O30_23 O 0.9624(2) 0.91101(18) 0.56982(17)
Se3_23 Se 0.92895(17) 0.92895(17) 0.6029(2)
O31_23 O 0.8989(9) 0.8989(9) 0.6197(16)
O32_23 O 0.9526(10) 0.9526(10) 0.6359(15)
O33_23 O 0.91101(18) 0.9624(2) 0.56982(17)
O30_24 O 0.58899(18) 0.0376(2) 0.93018(17)
Se3_24 Se 0.57105(17) 0.07105(17) 0.8971(2)
O31_24 O 0.6011(9) 0.1011(9) 0.8803(16)
O32_24 O 0.5474(10) 0.0474(10) 0.8641(15)
O33_24 O 0.5376(2) 0.08899(18) 0.93018(17)
O30_25 O 0.66101(18) 0.0376(2) 0.31982(17)
Se3_25 Se 0.67895(17) 0.07105(17) 0.3529(2)
O31_25 O 0.6489(9) 0.1011(9) 0.3697(16)
O32_25 O 0.7026(10) 0.0474(10) 0.3859(15)
O33_25 O 0.7124(2) 0.08899(18) 0.31982(17)
O30_26 O 0.2876(2) 0.91101(18) 0.68018(17)
Se3_26 Se 0.32105(17) 0.92895(17) 0.6471(2)
O31_26 O 0.3511(9) 0.8989(9) 0.6303(16)
O32_26 O 0.2974(10) 0.9526(10) 0.6141(15)
O33_26 O 0.33899(18) 0.9624(2) 0.68018(17)
O30_27 O 0.18018(17) 0.7876(2) 0.91101(18)
Se3_27 Se 0.1471(2) 0.82105(17) 0.92895(17)
O31_27 O 0.1303(16) 0.8511(9) 0.8989(9)
O32_27 O 0.1141(15) 0.7974(10) 0.9526(10)
O33_27 O 0.18018(17) 0.83899(18) 0.9624(2)
O30_28 O 0.81982(17) 0.16101(18) 0.0376(2)
Se3_28 Se 0.8529(2) 0.17895(17) 0.07105(17)
O31_28 O 0.8697(16) 0.1489(9) 0.1011(9)
O32_28 O 0.8859(15) 0.2026(10) 0.0474(10)
O33_28 O 0.81982(17) 0.2124(2) 0.08899(18)
O30_29 O 0.08899(18) 0.7124(2) 0.31982(17)
Se3_29 Se 0.07105(17) 0.67895(17) 0.3529(2)
O31_29 O 0.1011(9) 0.6489(9) 0.3697(16)
O32_29 O 0.0474(10) 0.7026(10) 0.3859(15)
O33_29 O 0.0376(2) 0.66101(18) 0.31982(17)
O30_30 O 0.4624(2) 0.83899(18) 0.68018(17)
Se3_30 Se 0.42895(17) 0.82105(17) 0.6471(2)
O31_30 O 0.3989(9) 0.8511(9) 0.6303(16)
O32_30 O 0.4526(10) 0.7974(10) 0.6141(15)
O33_30 O 0.41101(18) 0.7876(2) 0.68018(17)
O30_31 O 0.33899(18) 0.18018(17) 0.4624(2)
Se3_31 Se 0.32105(17) 0.1471(2) 0.42895(17)
O31_31 O 0.3511(9) 0.1303(16) 0.3989(9)
O32_31 O 0.2974(10) 0.1141(15) 0.4526(10)
O33_31 O 0.2876(2) 0.18018(17) 0.41101(18)
O30_32 O 0.68018(17) 0.9624(2) 0.33899(18)
Se3_32 Se 0.6471(2) 0.92895(17) 0.32105(17)
O31_32 O 0.6303(16) 0.8989(9) 0.3511(9)
O32_32 O 0.6141(15) 0.9526(10) 0.2974(10)
O33_32 O 0.68018(17) 0.91101(18) 0.2876(2)
O30_33 O 0.56982(17) 0.9624(2) 0.91101(18)
Se3_33 Se 0.6029(2) 0.92895(17) 0.92895(17)
O31_33 O 0.6197(16) 0.8989(9) 0.8989(9)
O32_33 O 0.6359(15) 0.9526(10) 0.9526(10)
O33_33 O 0.56982(17) 0.91101(18) 0.9624(2)
O30_34 O 0.93018(17) 0.58899(18) 0.0376(2)
Se3_34 Se 0.8971(2) 0.57105(17) 0.07105(17)
O31_34 O 0.8803(16) 0.6011(9) 0.1011(9)
O32_34 O 0.8641(15) 0.5474(10) 0.0474(10)
O33_34 O 0.93018(17) 0.5376(2) 0.08899(18)
O30_35 O 0.33899(18) 0.06982(17) 0.7876(2)
Se3_35 Se 0.32105(17) 0.1029(2) 0.82105(17)
O31_35 O 0.3511(9) 0.1197(16) 0.8511(9)
O32_35 O 0.2974(10) 0.1359(15) 0.7974(10)
O33_35 O 0.2876(2) 0.06982(17) 0.83899(18)
O30_36 O 0.2124(2) 0.43018(17) 0.16101(18)
Se3_36 Se 0.17895(17) 0.3971(2) 0.17895(17)
O31_36 O 0.1489(9) 0.3803(16) 0.1489(9)
O32_36 O 0.2026(10) 0.3641(15) 0.2026(10)
O33_36 O 0.16101(18) 0.43018(17) 0.2124(2)
O30_37 O 0.4624(2) 0.41101(18) 0.56982(17)
Se3_37 Se 0.42895(17) 0.42895(17) 0.6029(2)
O31_37 O 0.3989(9) 0.3989(9) 0.6197(16)
O32_37 O 0.4526(10) 0.4526(10) 0.6359(15)
O33_37 O 0.41101(18) 0.4624(2) 0.56982(17)
O30_38 O 0.08899(18) 0.5376(2) 0.93018(17)
Se3_38 Se 0.07105(17) 0.57105(17) 0.8971(2)
O31_38 O 0.1011(9) 0.6011(9) 0.8803(16)
O32_38 O 0.0474(10) 0.5474(10) 0.8641(15)
O33_38 O 0.0376(2) 0.58899(18) 0.93018(17)
O30_39 O 0.16101(18) 0.5376(2) 0.31982(17)
Se3_39 Se 0.17895(17) 0.57105(17) 0.3529(2)
O31_39 O 0.1489(9) 0.6011(9) 0.3697(16)
O32_39 O 0.2026(10) 0.5474(10) 0.3859(15)
O33_39 O 0.2124(2) 0.58899(18) 0.31982(17)
O30_40 O 0.7876(2) 0.41101(18) 0.68018(17)
Se3_40 Se 0.82105(17) 0.42895(17) 0.6471(2)
O31_40 O 0.8511(9) 0.3989(9) 0.6303(16)
O32_40 O 0.7974(10) 0.4526(10) 0.6141(15)
O33_40 O 0.83899(18) 0.4624(2) 0.68018(17)
O30_41 O 0.68018(17) 0.2876(2) 0.91101(18)
Se3_41 Se 0.6471(2) 0.32105(17) 0.92895(17)
O31_41 O 0.6303(16) 0.3511(9) 0.8989(9)
O32_41 O 0.6141(15) 0.2974(10) 0.9526(10)
O33_41 O 0.68018(17) 0.33899(18) 0.9624(2)
O30_42 O 0.31982(17) 0.66101(18) 0.0376(2)
Se3_42 Se 0.3529(2) 0.67895(17) 0.07105(17)
O31_42 O 0.3697(16) 0.6489(9) 0.1011(9)
O32_42 O 0.3859(15) 0.7026(10) 0.0474(10)
O33_42 O 0.31982(17) 0.7124(2) 0.08899(18)
O30_43 O 0.08899(18) 0.2124(2) 0.81982(17)
Se3_43 Se 0.07105(17) 0.17895(17) 0.8529(2)
O31_43 O 0.1011(9) 0.1489(9) 0.8697(16)
O32_43 O 0.0474(10) 0.2026(10) 0.8859(15)
O33_43 O 0.0376(2) 0.16101(18) 0.81982(17)
O30_44 O 0.4624(2) 0.33899(18) 0.18018(17)
Se3_44 Se 0.42895(17) 0.32105(17) 0.1471(2)
O31_44 O 0.3989(9) 0.3511(9) 0.1303(16)
O32_44 O 0.4526(10) 0.2974(10) 0.1141(15)
O33_44 O 0.41101(18) 0.2876(2) 0.18018(17)
O30_45 O 0.33899(18) 0.68018(17) 0.9624(2)
Se3_45 Se 0.32105(17) 0.6471(2) 0.92895(17)
O31_45 O 0.3511(9) 0.6303(16) 0.8989(9)
O32_45 O 0.2974(10) 0.6141(15) 0.9526(10)
O33_45 O 0.2876(2) 0.68018(17) 0.91101(18)
O30_46 O 0.68018(17) 0.4624(2) 0.83899(18)
Se3_46 Se 0.6471(2) 0.42895(17) 0.82105(17)
O31_46 O 0.6303(16) 0.3989(9) 0.8511(9)
O32_46 O 0.6141(15) 0.4526(10) 0.7974(10)
O33_46 O 0.68018(17) 0.41101(18) 0.7876(2)
O30_47 O 0.56982(17) 0.4624(2) 0.41101(18)
Se3_47 Se 0.6029(2) 0.42895(17) 0.42895(17)
O31_47 O 0.6197(16) 0.3989(9) 0.3989(9)
O32_47 O 0.6359(15) 0.4526(10) 0.4526(10)
O33_47 O 0.56982(17) 0.41101(18) 0.4624(2)
O30_48 O 0.93018(17) 0.08899(18) 0.5376(2)
Se3_48 Se 0.8971(2) 0.07105(17) 0.57105(17)
O31_48 O 0.8803(16) 0.1011(9) 0.6011(9)
O32_48 O 0.8641(15) 0.0474(10) 0.5474(10)
O33_48 O 0.93018(17) 0.0376(2) 0.58899(18)
O30_49 O 0.33899(18) 0.56982(17) 0.2876(2)
Se3_49 Se 0.32105(17) 0.6029(2) 0.32105(17)
O31_49 O 0.3511(9) 0.6197(16) 0.3511(9)
O32_49 O 0.2974(10) 0.6359(15) 0.2974(10)
O33_49 O 0.2876(2) 0.56982(17) 0.33899(18)
O30_50 O 0.2124(2) 0.93018(17) 0.66101(18)
Se3_50 Se 0.17895(17) 0.8971(2) 0.67895(17)
O31_50 O 0.1489(9) 0.8803(16) 0.6489(9)
O32_50 O 0.2026(10) 0.8641(15) 0.7026(10)
O33_50 O 0.16101(18) 0.93018(17) 0.7124(2)
O30_51 O 0.4624(2) 0.91101(18) 0.06982(17)
Se3_51 Se 0.42895(17) 0.92895(17) 0.1029(2)
O31_51 O 0.3989(9) 0.8989(9) 0.1197(16)
O32_51 O 0.4526(10) 0.9526(10) 0.1359(15)
O33_51 O 0.41101(18) 0.9624(2) 0.06982(17)
O30_52 O 0.08899(18) 0.0376(2) 0.43018(17)
Se3_52 Se 0.07105(17) 0.07105(17) 0.3971(2)
O31_52 O 0.1011(9) 0.1011(9) 0.3803(16)
O32_52 O 0.0474(10) 0.0474(10) 0.3641(15)
O33_52 O 0.0376(2) 0.08899(18) 0.43018(17)
O30_53 O 0.16101(18) 0.0376(2) 0.81982(17)
Se3_53 Se 0.17895(17) 0.07105(17) 0.8529(2)
O31_53 O 0.1489(9) 0.1011(9) 0.8697(16)
O32_53 O 0.2026(10) 0.0474(10) 0.8859(15)
O33_53 O 0.2124(2) 0.08899(18) 0.81982(17)
O30_54 O 0.7876(2) 0.91101(18) 0.18018(17)
Se3_54 Se 0.82105(17) 0.92895(17) 0.1471(2)
O31_54 O 0.8511(9) 0.8989(9) 0.1303(16)
O32_54 O 0.7974(10) 0.9526(10) 0.1141(15)
O33_54 O 0.83899(18) 0.9624(2) 0.18018(17)
O30_55 O 0.68018(17) 0.7876(2) 0.41101(18)
Se3_55 Se 0.6471(2) 0.82105(17) 0.42895(17)
O31_55 O 0.6303(16) 0.8511(9) 0.3989(9)
O32_55 O 0.6141(15) 0.7974(10) 0.4526(10)
O33_55 O 0.68018(17) 0.83899(18) 0.4624(2)
O30_56 O 0.31982(17) 0.16101(18) 0.5376(2)
Se3_56 Se 0.3529(2) 0.17895(17) 0.57105(17)
O31_56 O 0.3697(16) 0.1489(9) 0.6011(9)
O32_56 O 0.3859(15) 0.2026(10) 0.5474(10)
O33_56 O 0.31982(17) 0.2124(2) 0.58899(18)
O30_57 O 0.41101(18) 0.18018(17) 0.2876(2)
Se3_57 Se 0.42895(17) 0.1471(2) 0.32105(17)
O31_57 O 0.3989(9) 0.1303(16) 0.3511(9)
O32_57 O 0.4526(10) 0.1141(15) 0.2974(10)
O33_57 O 0.4624(2) 0.18018(17) 0.33899(18)
O30_58 O 0.0376(2) 0.81982(17) 0.16101(18)
Se3_58 Se 0.07105(17) 0.8529(2) 0.17895(17)
O31_58 O 0.1011(9) 0.8697(16) 0.1489(9)
O32_58 O 0.0474(10) 0.8859(15) 0.2026(10)
O33_58 O 0.08899(18) 0.81982(17) 0.2124(2)
O30_59 O 0.93018(17) 0.16101(18) 0.7124(2)
Se3_59 Se 0.8971(2) 0.17895(17) 0.67895(17)
O31_59 O 0.8803(16) 0.1489(9) 0.6489(9)
O32_59 O 0.8641(15) 0.2026(10) 0.7026(10)
O33_59 O 0.93018(17) 0.2124(2) 0.66101(18)
O30_60 O 0.0376(2) 0.93018(17) 0.58899(18)
Se3_60 Se 0.07105(17) 0.8971(2) 0.57105(17)
O31_60 O 0.1011(9) 0.8803(16) 0.6011(9)
O32_60 O 0.0474(10) 0.8641(15) 0.5474(10)
O33_60 O 0.08899(18) 0.93018(17) 0.5376(2)
O30_61 O 0.41101(18) 0.56982(17) 0.4624(2)
Se3_61 Se 0.42895(17) 0.6029(2) 0.42895(17)
O31_61 O 0.3989(9) 0.6197(16) 0.3989(9)
O32_61 O 0.4526(10) 0.6359(15) 0.4526(10)
O33_61 O 0.4624(2) 0.56982(17) 0.41101(18)
O30_62 O 0.56982(17) 0.2876(2) 0.33899(18)
Se3_62 Se 0.6029(2) 0.32105(17) 0.32105(17)
O31_62 O 0.6197(16) 0.3511(9) 0.3511(9)
O32_62 O 0.6359(15) 0.2974(10) 0.2974(10)
O33_62 O 0.56982(17) 0.33899(18) 0.2876(2)
O30_63 O 0.16101(18) 0.7124(2) 0.93018(17)
Se3_63 Se 0.17895(17) 0.67895(17) 0.8971(2)
O31_63 O 0.1489(9) 0.6489(9) 0.8803(16)
O32_63 O 0.2026(10) 0.7026(10) 0.8641(15)
O33_63 O 0.2124(2) 0.66101(18) 0.93018(17)
O30_64 O 0.2876(2) 0.33899(18) 0.56982(17)
Se3_64 Se 0.32105(17) 0.32105(17) 0.6029(2)
O31_64 O 0.3511(9) 0.3511(9) 0.6197(16)
O32_64 O 0.2974(10) 0.2974(10) 0.6359(15)
O33_64 O 0.33899(18) 0.2876(2) 0.56982(17)
O30_65 O 0.7124(2) 0.81982(17) 0.58899(18)
Se3_65 Se 0.67895(17) 0.8529(2) 0.57105(17)
O31_65 O 0.6489(9) 0.8697(16) 0.6011(9)
O32_65 O 0.7026(10) 0.8859(15) 0.5474(10)
O33_65 O 0.66101(18) 0.81982(17) 0.5376(2)
O30_66 O 0.81982(17) 0.58899(18) 0.7124(2)
Se3_66 Se 0.8529(2) 0.57105(17) 0.67895(17)
O31_66 O 0.8697(16) 0.6011(9) 0.6489(9)
O32_66 O 0.8859(15) 0.5474(10) 0.7026(10)
O33_66 O 0.81982(17) 0.5376(2) 0.66101(18)
O30_67 O 0.41101(18) 0.68018(17) 0.7876(2)
Se3_67 Se 0.42895(17) 0.6471(2) 0.82105(17)
O31_67 O 0.3989(9) 0.6303(16) 0.8511(9)
O32_67 O 0.4526(10) 0.6141(15) 0.7974(10)
O33_67 O 0.4624(2) 0.68018(17) 0.83899(18)
O30_68 O 0.0376(2) 0.31982(17) 0.66101(18)
Se3_68 Se 0.07105(17) 0.3529(2) 0.67895(17)
O31_68 O 0.1011(9) 0.3697(16) 0.6489(9)
O32_68 O 0.0474(10) 0.3859(15) 0.7026(10)
O33_68 O 0.08899(18) 0.31982(17) 0.7124(2)
O30_69 O 0.93018(17) 0.66101(18) 0.2124(2)
Se3_69 Se 0.8971(2) 0.67895(17) 0.17895(17)
O31_69 O 0.8803(16) 0.6489(9) 0.1489(9)
O32_69 O 0.8641(15) 0.7026(10) 0.2026(10)
O33_69 O 0.93018(17) 0.7124(2) 0.16101(18)
O30_70 O 0.0376(2) 0.43018(17) 0.08899(18)
Se3_70 Se 0.07105(17) 0.3971(2) 0.07105(17)
O31_70 O 0.1011(9) 0.3803(16) 0.1011(9)
O32_70 O 0.0474(10) 0.3641(15) 0.0474(10)
O33_70 O 0.08899(18) 0.43018(17) 0.0376(2)
O30_71 O 0.41101(18) 0.06982(17) 0.9624(2)
Se3_71 Se 0.42895(17) 0.1029(2) 0.92895(17)
O31_71 O 0.3989(9) 0.1197(16) 0.8989(9)
O32_71 O 0.4526(10) 0.1359(15) 0.9526(10)
O33_71 O 0.4624(2) 0.06982(17) 0.91101(18)
O30_72 O 0.56982(17) 0.7876(2) 0.83899(18)
Se3_72 Se 0.6029(2) 0.82105(17) 0.82105(17)
O31_72 O 0.6197(16) 0.8511(9) 0.8511(9)
O32_72 O 0.6359(15) 0.7974(10) 0.7974(10)
O33_72 O 0.56982(17) 0.83899(18) 0.7876(2)
O30_73 O 0.16101(18) 0.2124(2) 0.43018(17)
Se3_73 Se 0.17895(17) 0.17895(17) 0.3971(2)
O31_73 O 0.1489(9) 0.1489(9) 0.3803(16)
O32_73 O 0.2026(10) 0.2026(10) 0.3641(15)
O33_73 O 0.2124(2) 0.16101(18) 0.43018(17)
O30_74 O 0.2876(2) 0.83899(18) 0.06982(17)
Se3_74 Se 0.32105(17) 0.82105(17) 0.1029(2)
O31_74 O 0.3511(9) 0.8511(9) 0.1197(16)
O32_74 O 0.2974(10) 0.7974(10) 0.1359(15)
O33_74 O 0.33899(18) 0.7876(2) 0.06982(17)
O30_75 O 0.7124(2) 0.31982(17) 0.08899(18)
Se3_75 Se 0.67895(17) 0.3529(2) 0.07105(17)
O31_75 O 0.6489(9) 0.3697(16) 0.1011(9)
O32_75 O 0.7026(10) 0.3859(15) 0.0474(10)
O33_75 O 0.66101(18) 0.31982(17) 0.0376(2)
O30_76 O 0.81982(17) 0.08899(18) 0.2124(2)
Se3_76 Se 0.8529(2) 0.07105(17) 0.17895(17)
O31_76 O 0.8697(16) 0.1011(9) 0.1489(9)
O32_76 O 0.8859(15) 0.0474(10) 0.2026(10)
O33_76 O 0.81982(17) 0.0376(2) 0.16101(18)
O30_77 O 0.91101(18) 0.18018(17) 0.7876(2)
Se3_77 Se 0.92895(17) 0.1471(2) 0.82105(17)
O31_77 O 0.8989(9) 0.1303(16) 0.8511(9)
O32_77 O 0.9526(10) 0.1141(15) 0.7974(10)
O33_77 O 0.9624(2) 0.18018(17) 0.83899(18)
O30_78 O 0.5376(2) 0.81982(17) 0.66101(18)
Se3_78 Se 0.57105(17) 0.8529(2) 0.67895(17)
O31_78 O 0.6011(9) 0.8697(16) 0.6489(9)
O32_78 O 0.5474(10) 0.8859(15) 0.7026(10)
O33_78 O 0.58899(18) 0.81982(17) 0.7124(2)
O30_79 O 0.43018(17) 0.16101(18) 0.2124(2)
Se3_79 Se 0.3971(2) 0.17895(17) 0.17895(17)
O31_79 O 0.3803(16) 0.1489(9) 0.1489(9)
O32_79 O 0.3641(15) 0.2026(10) 0.2026(10)
O33_79 O 0.43018(17) 0.2124(2) 0.16101(18)
O30_80 O 0.5376(2) 0.93018(17) 0.08899(18)
Se3_80 Se 0.57105(17) 0.8971(2) 0.07105(17)
O31_80 O 0.6011(9) 0.8803(16) 0.1011(9)
O32_80 O 0.5474(10) 0.8641(15) 0.0474(10)
O33_80 O 0.58899(18) 0.93018(17) 0.0376(2)
O30_81 O 0.91101(18) 0.56982(17) 0.9624(2)
Se3_81 Se 0.92895(17) 0.6029(2) 0.92895(17)
O31_81 O 0.8989(9) 0.6197(16) 0.8989(9)
O32_81 O 0.9526(10) 0.6359(15) 0.9526(10)
O33_81 O 0.9624(2) 0.56982(17) 0.91101(18)
O30_82 O 0.06982(17) 0.2876(2) 0.83899(18)
Se3_82 Se 0.1029(2) 0.32105(17) 0.82105(17)
O31_82 O 0.1197(16) 0.3511(9) 0.8511(9)
O32_82 O 0.1359(15) 0.2974(10) 0.7974(10)
O33_82 O 0.06982(17) 0.33899(18) 0.7876(2)
O30_83 O 0.66101(18) 0.7124(2) 0.43018(17)
Se3_83 Se 0.67895(17) 0.67895(17) 0.3971(2)
O31_83 O 0.6489(9) 0.6489(9) 0.3803(16)
O32_83 O 0.7026(10) 0.7026(10) 0.3641(15)
O33_83 O 0.7124(2) 0.66101(18) 0.43018(17)
O30_84 O 0.7876(2) 0.33899(18) 0.06982(17)
Se3_84 Se 0.82105(17) 0.32105(17) 0.1029(2)
O31_84 O 0.8511(9) 0.3511(9) 0.1197(16)
O32_84 O 0.7974(10) 0.2974(10) 0.1359(15)
O33_84 O 0.83899(18) 0.2876(2) 0.06982(17)
O30_85 O 0.2124(2) 0.81982(17) 0.08899(18)
Se3_85 Se 0.17895(17) 0.8529(2) 0.07105(17)
O31_85 O 0.1489(9) 0.8697(16) 0.1011(9)
O32_85 O 0.2026(10) 0.8859(15) 0.0474(10)
O33_85 O 0.16101(18) 0.81982(17) 0.0376(2)
O30_86 O 0.31982(17) 0.58899(18) 0.2124(2)
Se3_86 Se 0.3529(2) 0.57105(17) 0.17895(17)
O31_86 O 0.3697(16) 0.6011(9) 0.1489(9)
O32_86 O 0.3859(15) 0.5474(10) 0.2026(10)
O33_86 O 0.31982(17) 0.5376(2) 0.16101(18)
O30_87 O 0.91101(18) 0.68018(17) 0.2876(2)
Se3_87 Se 0.92895(17) 0.6471(2) 0.32105(17)
O31_87 O 0.8989(9) 0.6303(16) 0.3511(9)
O32_87 O 0.9526(10) 0.6141(15) 0.2974(10)
O33_87 O 0.9624(2) 0.68018(17) 0.33899(18)
O30_88 O 0.5376(2) 0.31982(17) 0.16101(18)
Se3_88 Se 0.57105(17) 0.3529(2) 0.17895(17)
O31_88 O 0.6011(9) 0.3697(16) 0.1489(9)
O32_88 O 0.5474(10) 0.3859(15) 0.2026(10)
O33_88 O 0.58899(18) 0.31982(17) 0.2124(2)
O30_89 O 0.43018(17) 0.66101(18) 0.7124(2)
Se3_89 Se 0.3971(2) 0.67895(17) 0.67895(17)
O31_89 O 0.3803(16) 0.6489(9) 0.6489(9)
O32_89 O 0.3641(15) 0.7026(10) 0.7026(10)
O33_89 O 0.43018(17) 0.7124(2) 0.66101(18)
O30_90 O 0.5376(2) 0.43018(17) 0.58899(18)
Se3_90 Se 0.57105(17) 0.3971(2) 0.57105(17)
O31_90 O 0.6011(9) 0.3803(16) 0.6011(9)
O32_90 O 0.5474(10) 0.3641(15) 0.5474(10)
O33_90 O 0.58899(18) 0.43018(17) 0.5376(2)
O30_91 O 0.91101(18) 0.06982(17) 0.4624(2)
Se3_91 Se 0.92895(17) 0.1029(2) 0.42895(17)
O31_91 O 0.8989(9) 0.1197(16) 0.3989(9)
O32_91 O 0.9526(10) 0.1359(15) 0.4526(10)
O33_91 O 0.9624(2) 0.06982(17) 0.41101(18)
O30_92 O 0.06982(17) 0.7876(2) 0.33899(18)
Se3_92 Se 0.1029(2) 0.82105(17) 0.32105(17)
O31_92 O 0.1197(16) 0.8511(9) 0.3511(9)
O32_92 O 0.1359(15) 0.7974(10) 0.2974(10)
O33_92 O 0.06982(17) 0.83899(18) 0.2876(2)
O30_93 O 0.66101(18) 0.2124(2) 0.93018(17)
Se3_93 Se 0.67895(17) 0.17895(17) 0.8971(2)
O31_93 O 0.6489(9) 0.1489(9) 0.8803(16)
O32_93 O 0.7026(10) 0.2026(10) 0.8641(15)
O33_93 O 0.7124(2) 0.16101(18) 0.93018(17)
O30_94 O 0.7876(2) 0.83899(18) 0.56982(17)
Se3_94 Se 0.82105(17) 0.82105(17) 0.6029(2)
O31_94 O 0.8511(9) 0.8511(9) 0.6197(16)
O32_94 O 0.7974(10) 0.7974(10) 0.6359(15)
O33_94 O 0.83899(18) 0.7876(2) 0.56982(17)
O30_95 O 0.2124(2) 0.31982(17) 0.58899(18)
Se3_95 Se 0.17895(17) 0.3529(2) 0.57105(17)
O31_95 O 0.1489(9) 0.3697(16) 0.6011(9)
O32_95 O 0.2026(10) 0.3859(15) 0.5474(10)
O33_95 O 0.16101(18) 0.31982(17) 0.5376(2)
O30_96 O 0.31982(17) 0.08899(18) 0.7124(2)
Se3_96 Se 0.3529(2) 0.07105(17) 0.67895(17)
O31_96 O 0.3697(16) 0.1011(9) 0.6489(9)
O32_96 O 0.3859(15) 0.0474(10) 0.7026(10)
O33_96 O 0.31982(17) 0.0376(2) 0.66101(18)
loop_
_geom_bond_atom_site_label_1
_geom_bond_atom_site_label_2
_geom_bond_site_symmetry_1
_geom_bond_site_symmetry_2
C1 C2 1_555 1_555
C2 C3 1_555 1_555
C3 H1 1_555 1_555
Hf1 O1 1_555 1_555
O1 C1 1_555 1_555
O2 Hf1 1_555 1_555
O3 Hf1 1_555 1_555
C4 C5 1_555 1_555
C5 C6 1_555 1_555
C6 C2 1_555 1_555
H2 C6 1_555 1_555
O4 C4 1_555 1_555
C7 C8 1_555 1_555
C8 C3 1_555 1_555
C9 C5 1_555 1_555
H3 C9 1_555 1_555
O5 C7 1_555 1_555
O6 C7 1_555 1_555
O7 C4 1_555 1_555
O8 C1 1_555 1_555
Hf2 O4 1_555 1_555
O9 Hf2 1_555 1_555
Hf3 O5 1_555 1_555
O10 Hf3 1_555 1_555
Hf4 O9 1_555 1_555
Hf5 O9 1_555 1_555
Hf6 O6 1_555 1_555
Hf7 O7 1_555 1_555
Hf8 O3 1_555 1_555
Hf9 O3 1_555 1_555
Hf10 O2 1_555 1_555
Hf11 O2 1_555 1_555
Hf12 O10 1_555 1_555
Hf13 O10 1_555 1_555
O11 Hf1 1_555 1_555
O12 Hf3 1_555 1_555
O13 Hf2 1_555 1_555
O14 Hf2 1_555 1_555
O15 Hf3 1_555 1_555
O16 Hf2 1_555 1_555
O17 Hf2 1_555 1_555
O18 Hf1 1_555 1_555
O19 Hf1 1_555 1_555
O20 Hf3 1_555 1_555
O21 Hf3 1_555 1_555
C8 C9 1_555 1_555
O8 Hf11 1_555 1_555
Hf4 O16 1_555 1_555
Hf5 O17 1_555 1_555
Hf6 O15 1_555 1_555
Hf6 O21 1_555 1_555
Hf7 O14 1_555 1_555
Hf7 O17 1_555 1_555
Hf8 O18 1_555 1_555
Hf9 O19 1_555 1_555
Hf10 O19 1_555 1_555
Hf11 O18 1_555 1_555
Hf12 O20 1_555 1_555
Hf13 O21 1_555 1_555
Hf12_2 O20_2 1_555 1_555
Hf4_2 O16_2 1_555 1_555
C1_2 C2_2 1_555 1_555
C2_2 C3_2 1_555 1_555
C3_2 H1_2 1_555 1_555
Hf1_2 O1_2 1_555 1_555
O1_2 C1_2 1_555 1_555
O2_2 Hf1_2 1_555 1_555
O3_2 Hf1_2 1_555 1_555
C4_2 C5_2 1_555 1_555
C5_2 C6_2 1_555 1_555
C6_2 C2_2 1_555 1_555
H2_2 C6_2 1_555 1_555
O4_2 C4_2 1_555 1_555
C7_2 C8_2 1_555 1_555
C8_2 C3_2 1_555 1_555
C9_2 C5_2 1_555 1_555
H3_2 C9_2 1_555 1_555
O5_2 C7_2 1_555 1_555
O6_2 C7_2 1_555 1_555
O7_2 C4_2 1_555 1_555
O8_2 C1_2 1_555 1_555
Hf2_2 O4_2 1_555 1_555
O9_2 Hf2_2 1_555 1_555
Hf3_2 O5_2 1_555 1_555
O10_2 Hf3_2 1_555 1_555
Hf5_2 O9_2 1_555 1_555
Hf6_2 O6_2 1_555 1_555
Hf7_2 O7_2 1_555 1_555
Hf8_2 O3_2 1_555 1_555
Hf9_2 O3_2 1_555 1_555
Hf10_2 O2_2 1_555 1_555
Hf11_2 O2_2 1_555 1_555
Hf13_2 O10_2 1_555 1_555
O11_2 Hf1_2 1_555 1_555
O12_2 Hf3_2 1_555 1_555
O13_2 Hf2_2 1_555 1_555
O14_2 Hf2_2 1_555 1_555
O15_2 Hf3_2 1_555 1_555
O17_2 Hf2_2 1_555 1_555
O18_2 Hf1_2 1_555 1_555
O19_2 Hf1_2 1_555 1_555
O21_2 Hf3_2 1_555 1_555
C8_2 C9_2 1_555 1_555
O8_2 Hf11_2 1_555 1_555
Hf5_2 O17_2 1_555 1_555
Hf6_2 O15_2 1_555 1_555
Hf6_2 O21_2 1_555 1_555
Hf7_2 O14_2 1_555 1_555
Hf7_2 O17_2 1_555 1_555
Hf8_2 O18_2 1_555 1_555
Hf9_2 O19_2 1_555 1_555
Hf10_2 O19_2 1_555 1_555
Hf11_2 O18_2 1_555 1_555
Hf13_2 O21_2 1_555 1_555
Hf4_3 O16_3 1_555 1_555
Hf12_3 O20_3 1_555 1_555
C1_3 C2_3 1_555 1_555
C2_3 C3_3 1_555 1_555
C3_3 H1_3 1_555 1_555
Hf5 O1_3 1_555 1_555
O1_3 C1_3 1_555 1_555
O2_3 Hf5 1_555 1_555
C4_3 C5_3 1_555 1_555
C5_3 C6_3 1_555 1_555
C6_3 C2_3 1_555 1_555
H2_3 C6_3 1_555 1_555
O4_3 C4_3 1_555 1_555
C7_3 C8_3 1_555 1_555
C8_3 C3_3 1_555 1_555
C9_3 C5_3 1_555 1_555
H3_3 C9_3 1_555 1_555
O5_3 C7_3 1_555 1_555
O6_3 C7_3 1_555 1_555
O7_3 C4_3 1_555 1_555
O8_3 C1_3 1_555 1_555
Hf2_3 O4_3 1_555 1_555
O9_3 Hf2_3 1_555 1_555
Hf3_3 O5_3 1_555 1_555
O10_3 Hf3_3 1_555 1_555
Hf5_3 O9_3 1_555 1_555
Hf6_3 O6_3 1_555 1_555
Hf7_3 O7_3 1_555 1_555
Hf10_3 O2_3 1_555 1_555
Hf4 O2_3 1_555 1_555
Hf13_3 O10_3 1_555 1_555
O11_3 Hf5 1_555 1_555
O12_3 Hf3_3 1_555 1_555
O13_3 Hf2_3 1_555 1_555
O14_3 Hf2_3 1_555 1_555
O15_3 Hf3_3 1_555 1_555
O17_3 Hf2_3 1_555 1_555
O19_3 Hf5 1_555 1_555
O21_3 Hf3_3 1_555 1_555
C8_3 C9_3 1_555 1_555
O8_3 Hf4 1_555 1_555
Hf5_3 O17_3 1_555 1_555
Hf6_3 O15_3 1_555 1_555
Hf6_3 O21_3 1_555 1_555
Hf7_3 O14_3 1_555 1_555
Hf7_3 O17_3 1_555 1_555
Hf7 O19_3 1_555 1_555
Hf10_3 O19_3 1_555 1_555
Hf13_3 O21_3 1_555 1_555
Hf12_4 O20_4 1_555 1_555
Hf4_4 O16_4 1_555 1_555
C1_4 C2_4 1_555 1_555
C2_4 C3_4 1_555 1_555
C3_4 H1_4 1_555 1_555
Hf1_3 O1_4 1_555 1_555
O1_4 C1_4 1_555 1_555
O2_4 Hf1_3 1_555 1_555
O3_3 Hf1_3 1_555 1_555
C4_4 C5_4 1_555 1_555
C5_4 C6_4 1_555 1_555
C6_4 C2_4 1_555 1_555
H2_4 C6_4 1_555 1_555
O4_4 C4_4 1_555 1_555
C7_4 C8_4 1_555 1_555
C8_4 C3_4 1_555 1_555
C9_4 C5_4 1_555 1_555
H3_4 C9_4 1_555 1_555
O5_4 C7_4 1_555 1_555
O6_4 C7_4 1_555 1_555
O7_4 C4_4 1_555 1_555
O8_4 C1_4 1_555 1_555
Hf2_4 O4_4 1_555 1_555
O9_4 Hf2_4 1_555 1_555
Hf3_4 O5_4 1_555 1_555
O10_4 Hf3_4 1_555 1_555
Hf5_4 O9_4 1_555 1_555
Hf6_4 O6_4 1_555 1_555
Hf7_4 O7_4 1_555 1_555
Hf6 O3_3 1_555 1_555
Hf9_3 O3_3 1_555 1_555
Hf12 O2_4 1_555 1_555
Hf13 O2_4 1_555 1_555
Hf13_4 O10_4 1_555 1_555
O11_4 Hf1_3 1_555 1_555
O12_4 Hf3_4 1_555 1_555
O13_4 Hf2_4 1_555 1_555
O14_4 Hf2_4 1_555 1_555
O15_4 Hf3_4 1_555 1_555
O17_4 Hf2_4 1_555 1_555
O18_3 Hf1_3 1_555 1_555
O19_4 Hf1_3 1_555 1_555
O21_4 Hf3_4 1_555 1_555
C8_4 C9_4 1_555 1_555
O8_4 Hf13 1_555 1_555
Hf5_4 O17_4 1_555 1_555
Hf6_4 O15_4 1_555 1_555
Hf6_4 O21_4 1_555 1_555
Hf7_4 O14_4 1_555 1_555
Hf7_4 O17_4 1_555 1_555
Hf6 O18_3 1_555 1_555
Hf9_3 O19_4 1_555 1_555
Hf12 O19_4 1_555 1_555
Hf13 O18_3 1_555 1_555
Hf13_4 O21_4 1_555 1_555
Hf12_5 O20_5 1_555 1_555
O10_5 Hf3_5 1_555 1_555
Hf13_5 O10_5 1_555 1_555
O21_5 Hf3_5 1_555 1_555
Hf5_5 O17_5 1_555 1_555
Hf7_5 O17_5 1_555 1_555
Hf13_5 O21_5 1_555 1_555
C1_5 C2_5 1_555 1_555
C2_5 C3_5 1_555 1_555
C3_5 H1_5 1_555 1_555
Hf10_2 O1_5 1_555 1_555
O1_5 C1_5 1_555 1_555
O3_4 Hf10_2 1_555 1_555
C4_5 C5_5 1_555 1_555
C5_5 C6_5 1_555 1_555
C6_5 C2_5 1_555 1_555
H2_5 C6_5 1_555 1_555
O4_5 C4_5 1_555 1_555
C7_5 C8_5 1_555 1_555
C8_5 C3_5 1_555 1_555
C9_5 C5_5 1_555 1_555
H3_5 C9_5 1_555 1_555
O5_5 C7_5 1_555 1_555
O6_5 C7_5 1_555 1_555
O7_5 C4_5 1_555 1_555
O11_2 C1_5 1_555 1_555
Hf6_2 O4_5 1_555 1_555
O9_5 Hf6_2 1_555 1_555
Hf13_2 O9_5 1_555 1_555
Hf6_5 O6_5 1_555 1_555
Hf9_2 O3_4 1_555 1_555
Hf9_4 O3_4 1_555 1_555
O11_5 Hf10_2 1_555 1_555
O19_5 Hf10_2 1_555 1_555
C8_5 C9_5 1_555 1_555
Hf6_5 O15_5 1_555 1_555
Hf9_4 O19_5 1_555 1_555
Hf11_2 O19_5 1_555 1_555
Hf10_4 O14 1_555 1_555
Hf10_4 O16 1_555 1_555
O10_6 Hf3_6 1_555 1_555
Hf12_6 O10_6 1_555 1_555
Hf4_2 O10_6 1_555 1_555
O20_6 Hf3_6 1_555 1_555
O16_2 Hf3_6 1_555 1_555
Hf5_6 O17_6 1_555 1_555
Hf7_6 O17_6 1_555 1_555
Hf12_6 O20_6 1_555 1_555
C1_6 C2_6 1_555 1_555
C2_6 C3_6 1_555 1_555
C3_6 H1_6 1_555 1_555
Hf11_2 O1_6 1_555 1_555
O1_6 C1_6 1_555 1_555
O3_5 Hf11_2 1_555 1_555
C4_6 C5_6 1_555 1_555
C5_6 C6_6 1_555 1_555
C6_6 C2_6 1_555 1_555
H2_6 C6_6 1_555 1_555
O4_6 C4_6 1_555 1_555
C7_6 C8_6 1_555 1_555
C8_6 C3_6 1_555 1_555
C9_6 C5_6 1_555 1_555
H3_6 C9_6 1_555 1_555
O5_6 C7_6 1_555 1_555
O13_2 C7_6 1_555 1_555
O7_6 C4_6 1_555 1_555
O11_5 C1_6 1_555 1_555
Hf6_5 O4_6 1_555 1_555
O9_6 Hf6_5 1_555 1_555
Hf9_4 O3_5 1_555 1_555
Hf8_2 O3_5 1_555 1_555
C8_6 C9_6 1_555 1_555
Hf9_3 O15 1_555 1_555
Hf9_3 O20 1_555 1_555
Hf12_7 O20_7 1_555 1_555
O10_7 Hf3_7 1_555 1_555
Hf13_6 O10_7 1_555 1_555
O21_6 Hf3_7 1_555 1_555
Hf5_7 O17_7 1_555 1_555
Hf7_7 O17_7 1_555 1_555
Hf13_6 O21_6 1_555 1_555
C1_7 C2_7 1_555 1_555
C2_7 C3_7 1_555 1_555
C3_7 H1_7 1_555 1_555
Hf10_3 O1_7 1_555 1_555
O1_7 C1_7 1_555 1_555
O3_6 Hf10_3 1_555 1_555
C4_7 C5_7 1_555 1_555
C5_7 C6_7 1_555 1_555
C6_7 C2_7 1_555 1_555
H2_7 C6_7 1_555 1_555
O4_7 C4_7 1_555 1_555
C7_7 C8_7 1_555 1_555
C8_7 C3_7 1_555 1_555
C9_7 C5_7 1_555 1_555
H3_7 C9_7 1_555 1_555
O5_7 C7_7 1_555 1_555
O6_6 C7_7 1_555 1_555
O7_7 C4_7 1_555 1_555
O11_3 C1_7 1_555 1_555
Hf6_3 O4_7 1_555 1_555
O9_7 Hf6_3 1_555 1_555
Hf13_3 O9_7 1_555 1_555
Hf6_6 O6_6 1_555 1_555
Hf7 O3_6 1_555 1_555
Hf10_4 O3_6 1_555 1_555
O11_6 Hf10_3 1_555 1_555
O19_6 Hf10_3 1_555 1_555
C8_7 C9_7 1_555 1_555
Hf6_6 O15_6 1_555 1_555
Hf10_4 O19_6 1_555 1_555
Hf4 O19_6 1_555 1_555
C1_8 C2_8 1_555 1_555
C2_8 C3_8 1_555 1_555
C3_8 H1_8 1_555 1_555
Hf6 O1_8 1_555 1_555
O1_8 C1_8 1_555 1_555
C4_8 C5_8 1_555 1_555
C5_8 C6_8 1_555 1_555
C6_8 C2_8 1_555 1_555
H2_8 C6_8 1_555 1_555
O4_8 C4_8 1_555 1_555
C7_8 C8_8 1_555 1_555
C8_8 C3_8 1_555 1_555
C9_8 C5_8 1_555 1_555
H3_8 C9_8 1_555 1_555
O5_8 C7_8 1_555 1_555
O11 C7_8 1_555 1_555
O7_8 C4_8 1_555 1_555
O8_5 C1_8 1_555 1_555
Hf9_4 O4_8 1_555 1_555
Hf10 O5_8 1_555 1_555
O10_8 Hf10 1_555 1_555
Hf8_2 O7_8 1_555 1_555
Hf12_8 O10_8 1_555 1_555
Hf9 O10_8 1_555 1_555
O12_8 Hf10 1_555 1_555
O13_5 Hf9_4 1_555 1_555
O14_5 Hf9_4 1_555 1_555
O20_8 Hf10 1_555 1_555
C8_8 C9_8 1_555 1_555
O8_5 Hf9_3 1_555 1_555
Hf8_2 O14_5 1_555 1_555
Hf12_8 O20_8 1_555 1_555
C1_9 C2_9 1_555 1_555
C2_9 C3_9 1_555 1_555
C3_9 H1_9 1_555 1_555
Hf9_2 O1_9 1_555 1_555
O1_9 C1_9 1_555 1_555
O14_5 Hf9_2 1_555 1_555
C4_9 C5_9 1_555 1_555
C5_9 C6_9 1_555 1_555
C6_9 C2_9 1_555 1_555
H2_9 C6_9 1_555 1_555
O4_9 C4_9 1_555 1_555
C7_9 C8_9 1_555 1_555
C8_9 C3_9 1_555 1_555
C9_9 C5_9 1_555 1_555
H3_9 C9_9 1_555 1_555
O5_9 C7_9 1_555 1_555
O6_7 C7_9 1_555 1_555
O12 C4_9 1_555 1_555
O13_5 C1_9 1_555 1_555
Hf9_3 O4_9 1_555 1_555
Hf7 O5_9 1_555 1_555
Hf10_4 O6_7 1_555 1_555
O11_7 Hf9_2 1_555 1_555
C8_9 C9_9 1_555 1_555
C1_10 C2_10 1_555 1_555
C2_10 C3_10 1_555 1_555
C3_10 H1_10 1_555 1_555
Hf9 O1_10 1_555 1_555
O1_10 C1_10 1_555 1_555
O2_5 Hf9 1_555 1_555
C4_10 C5_10 1_555 1_555
C5_10 C6_10 1_555 1_555
C6_10 C2_10 1_555 1_555
H2_10 C6_10 1_555 1_555
O4_10 C4_10 1_555 1_555
C7_10 C8_10 1_555 1_555
C8_10 C3_10 1_555 1_555
C9_10 C5_10 1_555 1_555
H3_10 C9_10 1_555 1_555
O5_10 C7_10 1_555 1_555
O6_8 C7_10 1_555 1_555
O7_9 C4_10 1_555 1_555
O8_6 C1_10 1_555 1_555
Hf2_5 O4_10 1_555 1_555
O9_8 Hf2_5 1_555 1_555
Hf3_8 O5_10 1_555 1_555
O10_9 Hf3_8 1_555 1_555
Hf4_5 O9_8 1_555 1_555
Hf5_8 O9_8 1_555 1_555
Hf6_7 O6_8 1_555 1_555
Hf7_8 O7_9 1_555 1_555
Hf8 O2_5 1_555 1_555
Hf12_8 O2_5 1_555 1_555
Hf12_9 O10_9 1_555 1_555
Hf13_7 O10_9 1_555 1_555
O11_8 Hf9 1_555 1_555
O12_9 Hf3_8 1_555 1_555
O13_6 Hf2_5 1_555 1_555
O14_6 Hf2_5 1_555 1_555
O15_7 Hf3_8 1_555 1_555
O16_5 Hf2_5 1_555 1_555
O17_8 Hf2_5 1_555 1_555
O20_9 Hf3_8 1_555 1_555
O21_7 Hf3_8 1_555 1_555
C8_10 C9_10 1_555 1_555
O8_6 Hf12_8 1_555 1_555
Hf4_5 O16_5 1_555 1_555
Hf5_8 O17_8 1_555 1_555
Hf6_7 O15_7 1_555 1_555
Hf6_7 O21_7 1_555 1_555
Hf7_8 O14_6 1_555 1_555
Hf7_8 O17_8 1_555 1_555
Hf12_9 O20_9 1_555 1_555
Hf13_7 O21_7 1_555 1_555
C1_11 C2_11 1_555 1_555
C2_11 C3_11 1_555 1_555
C3_11 H1_11 1_555 1_555
Hf8 O1_11 1_555 1_555
O1_11 C1_11 1_555 1_555
C4_11 C5_11 1_555 1_555
C5_11 C6_11 1_555 1_555
C6_11 C2_11 1_555 1_555
H2_11 C6_11 1_555 1_555
O4_11 C4_11 1_555 1_555
C7_11 C8_11 1_555 1_555
C8_11 C3_11 1_555 1_555
C9_11 C5_11 1_555 1_555
H3_11 C9_11 1_555 1_555
O5_11 C7_11 1_555 1_555
O6_9 C7_11 1_555 1_555
O7_10 C4_11 1_555 1_555
O11_8 C1_11 1_555 1_555
Hf6_7 O4_11 1_555 1_555
O9_9 Hf6_7 1_555 1_555
Hf3_9 O5_11 1_555 1_555
O10_10 Hf3_9 1_555 1_555
Hf13_7 O9_9 1_555 1_555
Hf5_9 O9_9 1_555 1_555
Hf6_8 O6_9 1_555 1_555
Hf7_9 O7_10 1_555 1_555
Hf12_10 O10_10 1_555 1_555
Hf13_8 O10_10 1_555 1_555
O11_9 Hf8 1_555 1_555
O12_10 Hf3_9 1_555 1_555
O15_8 Hf3_9 1_555 1_555
O17_9 Hf6_7 1_555 1_555
O19_7 Hf8 1_555 1_555
O20_10 Hf3_9 1_555 1_555
O21_8 Hf3_9 1_555 1_555
C8_11 C9_11 1_555 1_555
Hf5_9 O17_9 1_555 1_555
Hf6_8 O15_8 1_555 1_555
Hf6_8 O21_8 1_555 1_555
Hf7_9 O15_7 1_555 1_555
Hf7_9 O17_9 1_555 1_555
Hf11 O19_7 1_555 1_555
Hf12_8 O19_7 1_555 1_555
Hf12_10 O20_10 1_555 1_555
Hf13_8 O21_8 1_555 1_555
C1_12 C2_12 1_555 1_555
C2_12 C3_12 1_555 1_555
C3_12 H1_12 1_555 1_555
Hf1_4 O1_12 1_555 1_555
O1_12 C1_12 1_555 1_555
O2_6 Hf1_4 1_555 1_555
O3_7 Hf1_4 1_555 1_555
C4_12 C5_12 1_555 1_555
C5_12 C6_12 1_555 1_555
C6_12 C2_12 1_555 1_555
H2_12 C6_12 1_555 1_555
O4_12 C4_12 1_555 1_555
C7_12 C8_12 1_555 1_555
C8_12 C3_12 1_555 1_555
C9_12 C5_12 1_555 1_555
H3_12 C9_12 1_555 1_555
O5_12 C7_12 1_555 1_555
O6_10 C7_12 1_555 1_555
O7_11 C4_12 1_555 1_555
O8_7 C1_12 1_555 1_555
Hf4_5 O5_12 1_555 1_555
Hf6_9 O6_10 1_555 1_555
Hf4_2 O7_11 1_555 1_555
Hf13_9 O16_5 1_555 1_555
O11_10 Hf1_4 1_555 1_555
O12_11 Hf4_5 1_555 1_555
O15_9 Hf4_5 1_555 1_555
O21_9 Hf4_5 1_555 1_555
C8_12 C9_12 1_555 1_555
Hf6_9 O15_9 1_555 1_555
Hf6_9 O21_9 1_555 1_555
Hf4_2 O14_7 1_555 1_555
Hf13_9 O21_9 1_555 1_555
Hf9_5 O19_8 1_555 1_555
Hf10_5 O19_8 1_555 1_555
O16_6 Hf5_2 1_555 1_555
Hf7_2 O16_6 1_555 1_555
Hf8_3 O18_4 1_555 1_555
Hf11_3 O18_4 1_555 1_555
Hf7_7 O20_3 1_555 1_555
C1_13 C2_13 1_555 1_555
C2_13 C3_13 1_555 1_555
C3_13 H1_13 1_555 1_555
Hf7_8 O1_13 1_555 1_555
O1_13 C1_13 1_555 1_555
O3_8 Hf7_8 1_555 1_555
C4_13 C5_13 1_555 1_555
C5_13 C6_13 1_555 1_555
C6_13 C2_13 1_555 1_555
H2_13 C6_13 1_555 1_555
O4_13 C4_13 1_555 1_555
C7_13 C8_13 1_555 1_555
C8_13 C3_13 1_555 1_555
C9_13 C5_13 1_555 1_555
H3_13 C9_13 1_555 1_555
O5_13 C7_13 1_555 1_555
O12_9 C7_13 1_555 1_555
O12_10 C4_13 1_555 1_555
O8_8 C1_13 1_555 1_555
Hf2_6 O4_13 1_555 1_555
O9_10 Hf2_6 1_555 1_555
Hf7_9 O5_13 1_555 1_555
O10_11 Hf7_9 1_555 1_555
Hf4_6 O9_10 1_555 1_555
Hf12_10 O9_10 1_555 1_555
Hf6_9 O3_8 1_555 1_555
Hf5_8 O3_8 1_555 1_555
Hf13_9 O14_6 1_555 1_555
Hf5_9 O10_11 1_555 1_555
Hf12_9 O10_11 1_555 1_555
O13_8 Hf2_6 1_555 1_555
O15_8 Hf2_6 1_555 1_555
O16_7 Hf2_6 1_555 1_555
O20_10 Hf2_6 1_555 1_555
O18_5 Hf7_8 1_555 1_555
O20_9 Hf7_9 1_555 1_555
C8_13 C9_13 1_555 1_555
O8_8 Hf13_9 1_555 1_555
Hf4_6 O16_7 1_555 1_555
Hf6_9 O18_5 1_555 1_555
Hf13_9 O18_5 1_555 1_555
O10_12 Hf3_10 1_555 1_555
Hf12_11 O10_12 1_555 1_555
O20_11 Hf3_10 1_555 1_555
Hf5_10 O17_10 1_555 1_555
Hf7_10 O17_10 1_555 1_555
Hf12_11 O20_11 1_555 1_555
O3_9 Hf7_7 1_555 1_555
Hf12_3 O3_9 1_555 1_555
Hf5_7 O3_9 1_555 1_555
C1_14 C2_14 1_555 1_555
C2_14 C3_14 1_555 1_555
C3_14 H1_14 1_555 1_555
O1_14 C1_14 1_555 1_555
C4_14 C5_14 1_555 1_555
C5_14 C6_14 1_555 1_555
C6_14 C2_14 1_555 1_555
H2_14 C6_14 1_555 1_555
O4_14 C4_14 1_555 1_555
C7_14 C8_14 1_555 1_555
C8_14 C3_14 1_555 1_555
C9_14 C5_14 1_555 1_555
H3_14 C9_14 1_555 1_555
O5_14 C7_14 1_555 1_555
O12_7 C7_14 1_555 1_555
O7_12 C4_14 1_555 1_555
O12_3 C1_14 1_555 1_555
Hf7_3 O4_14 1_555 1_555
O9_11 Hf7_3 1_555 1_555
Hf5_3 O9_11 1_555 1_555
C8_14 C9_14 1_555 1_555
Hf12_6 O14_7 1_555 1_555
Hf5_8 O15_9 1_555 1_555
C1_15 C2_15 1_555 1_555
C2_15 C3_15 1_555 1_555
C3_15 H1_15 1_555 1_555
Hf6_9 O1_15 1_555 1_555
O1_15 C1_15 1_555 1_555
C4_15 C5_15 1_555 1_555
C5_15 C6_15 1_555 1_555
C6_15 C2_15 1_555 1_555
H2_15 C6_15 1_555 1_555
O4_15 C4_15 1_555 1_555
C7_15 C8_15 1_555 1_555
C8_15 C3_15 1_555 1_555
C9_15 C5_15 1_555 1_555
H3_15 C9_15 1_555 1_555
O5_15 C7_15 1_555 1_555
O11_10 C7_15 1_555 1_555
O7_13 C4_15 1_555 1_555
O8_9 C1_15 1_555 1_555
Hf5_7 O4_15 1_555 1_555
O13_9 Hf5_7 1_555 1_555
O14_8 Hf5_7 1_555 1_555
C8_15 C9_15 1_555 1_555
O8_9 Hf5_8 1_555 1_555
O10_13 Hf10_5 1_555 1_555
Hf9_5 O10_13 1_555 1_555
Hf12_12 O20_12 1_555 1_555
C1_16 C2_16 1_555 1_555
C2_16 C3_16 1_555 1_555
C3_16 H1_16 1_555 1_555
Hf12_3 O1_16 1_555 1_555
O1_16 C1_16 1_555 1_555
O14_8 Hf12_3 1_555 1_555
C4_16 C5_16 1_555 1_555
C5_16 C6_16 1_555 1_555
C6_16 C2_16 1_555 1_555
H2_16 C6_16 1_555 1_555
O4_16 C4_16 1_555 1_555
C7_16 C8_16 1_555 1_555
C8_16 C3_16 1_555 1_555
C9_16 C5_16 1_555 1_555
H3_16 C9_16 1_555 1_555
O5_16 C7_16 1_555 1_555
O6_11 C7_16 1_555 1_555
O12_11 C4_16 1_555 1_555
O13_9 C1_16 1_555 1_555
Hf5_8 O4_16 1_555 1_555
Hf4_2 O5_16 1_555 1_555
Hf12_6 O6_11 1_555 1_555
O11_11 Hf12_3 1_555 1_555
C8_16 C9_16 1_555 1_555
Hf6_10 O21_10 1_555 1_555
Hf13_10 O21_10 1_555 1_555
C1_17 C2_17 1_555 1_555
C2_17 C3_17 1_555 1_555
C3_17 H1_17 1_555 1_555
O1_17 C1_17 1_555 1_555
C4_17 C5_17 1_555 1_555
C5_17 C6_17 1_555 1_555
C6_17 C2_17 1_555 1_555
H2_17 C6_17 1_555 1_555
O4_17 C4_17 1_555 1_555
C7_17 C8_17 1_555 1_555
C8_17 C3_17 1_555 1_555
C9_17 C5_17 1_555 1_555
H3_17 C9_17 1_555 1_555
O5_17 C7_17 1_555 1_555
O6_12 C7_17 1_555 1_555
O11_4 C4_17 1_555 1_555
O8_10 C1_17 1_555 1_555
Hf12 O4_17 1_555 1_555
Hf6_4 O5_17 1_555 1_555
O10_14 Hf6_4 1_555 1_555
Hf12_12 O2_7 1_555 1_555
Hf13_4 O10_14 1_555 1_555
O13_10 Hf12 1_555 1_555
C8_17 C9_17 1_555 1_555
O8_10 Hf12_12 1_555 1_555
O9_12 Hf6_10 1_555 1_555
Hf13_10 O9_12 1_555 1_555
Hf12_4 O9_12 1_555 1_555
O20_4 Hf6_10 1_555 1_555
O19_9 Hf8_3 1_555 1_555
Hf6_11 O21_11 1_555 1_555
Hf11_3 O19_9 1_555 1_555
Hf13_11 O21_11 1_555 1_555
C1_18 C2_18 1_555 1_555
C2_18 C3_18 1_555 1_555
C3_18 H1_18 1_555 1_555
O1_18 C1_18 1_555 1_555
C4_18 C5_18 1_555 1_555
C5_18 C6_18 1_555 1_555
C6_18 C2_18 1_555 1_555
H2_18 C6_18 1_555 1_555
O4_18 C4_18 1_555 1_555
C7_18 C8_18 1_555 1_555
C8_18 C3_18 1_555 1_555
C9_18 C5_18 1_555 1_555
H3_18 C9_18 1_555 1_555
O5_18 C7_18 1_555 1_555
O6_13 C7_18 1_555 1_555
O12_4 C4_18 1_555 1_555
O11_12 C1_18 1_555 1_555
Hf7_4 O5_18 1_555 1_555
O10_15 Hf7_4 1_555 1_555
Hf5_4 O10_15 1_555 1_555
C8_18 C9_18 1_555 1_555
C1_19 C2_19 1_555 1_555
C2_19 C3_19 1_555 1_555
C3_19 H1_19 1_555 1_555
O1_19 C1_19 1_555 1_555
C4_19 C5_19 1_555 1_555
C5_19 C6_19 1_555 1_555
C6_19 C2_19 1_555 1_555
H2_19 C6_19 1_555 1_555
O4_19 C4_19 1_555 1_555
C7_19 C8_19 1_555 1_555
C8_19 C3_19 1_555 1_555
C9_19 C5_19 1_555 1_555
H3_19 C9_19 1_555 1_555
O5_19 C7_19 1_555 1_555
O6_14 C7_19 1_555 1_555
O7_14 C4_19 1_555 1_555
O8_11 C1_19 1_555 1_555
Hf12_9 O4_19 1_555 1_555
Hf5_5 O5_19 1_555 1_555
Hf5_9 O7_14 1_555 1_555
Hf12_7 O2_8 1_555 1_555
O12_14 Hf5_5 1_555 1_555
O13_11 Hf12_9 1_555 1_555
O14_9 Hf12_9 1_555 1_555
O15_10 Hf5_5 1_555 1_555
O20_13 Hf5_5 1_555 1_555
C8_19 C9_19 1_555 1_555
O8_11 Hf12_7 1_555 1_555
Hf5_9 O14_9 1_555 1_555
Hf7_5 O20_13 1_555 1_555
Hf6_6 O19_10 1_555 1_555
Hf6_11 O16_4 1_555 1_555
Hf7_5 O20_2 1_555 1_555
O3_10 Hf6_11 1_555 1_555
Hf4_4 O3_10 1_555 1_555
Hf13_11 O3_10 1_555 1_555
C1_20 C2_20 1_555 1_555
C2_20 C3_20 1_555 1_555
C3_20 H1_20 1_555 1_555
O1_20 C1_20 1_555 1_555
C4_20 C5_20 1_555 1_555
C5_20 C6_20 1_555 1_555
C6_20 C2_20 1_555 1_555
H2_20 C6_20 1_555 1_555
O4_20 C4_20 1_555 1_555
C7_20 C8_20 1_555 1_555
C8_20 C3_20 1_555 1_555
C9_20 C5_20 1_555 1_555
H3_20 C9_20 1_555 1_555
O5_20 C7_20 1_555 1_555
O11_13 C7_20 1_555 1_555
O13_10 C4_20 1_555 1_555
O13_4 C1_20 1_555 1_555
Hf13 O4_20 1_555 1_555
Hf12_12 O5_20 1_555 1_555
C8_20 C9_20 1_555 1_555
Hf13_7 O14_9 1_555 1_555
Hf12_2 O15_10 1_555 1_555
Hf12_2 O20_13 1_555 1_555
C1_21 C2_21 1_555 1_555
C2_21 C3_21 1_555 1_555
C3_21 H1_21 1_555 1_555
O1_21 C1_21 1_555 1_555
C4_21 C5_21 1_555 1_555
C5_21 C6_21 1_555 1_555
C6_21 C2_21 1_555 1_555
H2_21 C6_21 1_555 1_555
O4_21 C4_21 1_555 1_555
C7_21 C8_21 1_555 1_555
C8_21 C3_21 1_555 1_555
C9_21 C5_21 1_555 1_555
H3_21 C9_21 1_555 1_555
O5_21 C7_21 1_555 1_555
O11_14 C7_21 1_555 1_555
O7_15 C4_21 1_555 1_555
O8_12 C1_21 1_555 1_555
Hf13_11 O4_21 1_555 1_555
O13_12 Hf13_11 1_555 1_555
O14_10 Hf13_11 1_555 1_555
C8_21 C9_21 1_555 1_555
O8_12 Hf12_2 1_555 1_555
C1_22 C2_22 1_555 1_555
C2_22 C3_22 1_555 1_555
C3_22 H1_22 1_555 1_555
Hf4_4 O1_22 1_555 1_555
O1_22 C1_22 1_555 1_555
O14_10 Hf4_4 1_555 1_555
C4_22 C5_22 1_555 1_555
C5_22 C6_22 1_555 1_555
C6_22 C2_22 1_555 1_555
H2_22 C6_22 1_555 1_555
O4_22 C4_22 1_555 1_555
C7_22 C8_22 1_555 1_555
C8_22 C3_22 1_555 1_555
C9_22 C5_22 1_555 1_555
H3_22 C9_22 1_555 1_555
O5_22 C7_22 1_555 1_555
O6_15 C7_22 1_555 1_555
O12_14 C4_22 1_555 1_555
O13_12 C1_22 1_555 1_555
Hf12_2 O4_22 1_555 1_555
Hf5_9 O5_22 1_555 1_555
Hf13_7 O6_15 1_555 1_555
O11_15 Hf4_4 1_555 1_555
C8_22 C9_22 1_555 1_555
O9_13 Hf7_10 1_555 1_555
Hf5_10 O9_13 1_555 1_555
Hf4_3 O9_13 1_555 1_555
O16_3 Hf7_10 1_555 1_555
C1_23 C2_23 1_555 1_555
C2_23 C3_23 1_555 1_555
C3_23 H1_23 1_555 1_555
Hf6_6 O1_23 1_555 1_555
O1_23 C1_23 1_555 1_555
C4_23 C5_23 1_555 1_555
C5_23 C6_23 1_555 1_555
C6_23 C2_23 1_555 1_555
H2_23 C6_23 1_555 1_555
O4_23 C4_23 1_555 1_555
C7_23 C8_23 1_555 1_555
C8_23 C3_23 1_555 1_555
C9_23 C5_23 1_555 1_555
H3_23 C9_23 1_555 1_555
O5_23 C7_23 1_555 1_555
O11_6 C7_23 1_555 1_555
O13_3 C4_23 1_555 1_555
O12_12 C1_23 1_555 1_555
Hf4 O5_23 1_555 1_555
C8_23 C9_23 1_555 1_555
C1_24 C2_24 1_555 1_555
C2_24 C3_24 1_555 1_555
C3_24 H1_24 1_555 1_555
O1_24 C1_24 1_555 1_555
C4_24 C5_24 1_555 1_555
C5_24 C6_24 1_555 1_555
C6_24 C2_24 1_555 1_555
H2_24 C6_24 1_555 1_555
O4_24 C4_24 1_555 1_555
C7_24 C8_24 1_555 1_555
C8_24 C3_24 1_555 1_555
C9_24 C5_24 1_555 1_555
H3_24 C9_24 1_555 1_555
O5_24 C7_24 1_555 1_555
O6_16 C7_24 1_555 1_555
O7_16 C4_24 1_555 1_555
O8_13 C1_24 1_555 1_555
Hf5_10 O5_24 1_555 1_555
Hf12_4 O7_16 1_555 1_555
Hf12_5 O2_9 1_555 1_555
O12_16 Hf5_10 1_555 1_555
O15_11 Hf5_10 1_555 1_555
C8_24 C9_24 1_555 1_555
Hf12_4 O14_11 1_555 1_555
O19_11 Hf5_6 1_555 1_555
Hf7_6 O19_11 1_555 1_555
Hf6_8 O16_7 1_555 1_555
C1_25 C2_25 1_555 1_555
C2_25 C3_25 1_555 1_555
C3_25 H1_25 1_555 1_555
Hf6_8 O1_25 1_555 1_555
O1_25 C1_25 1_555 1_555
O3_11 Hf6_8 1_555 1_555
C4_25 C5_25 1_555 1_555
C5_25 C6_25 1_555 1_555
C6_25 C2_25 1_555 1_555
H2_25 C6_25 1_555 1_555
O4_25 C4_25 1_555 1_555
C7_25 C8_25 1_555 1_555
C8_25 C3_25 1_555 1_555
C9_25 C5_25 1_555 1_555
H3_25 C9_25 1_555 1_555
O5_25 C7_25 1_555 1_555
O11_9 C7_25 1_555 1_555
O13_6 C4_25 1_555 1_555
O13_8 C1_25 1_555 1_555
Hf13_9 O4_25 1_555 1_555
Hf12_8 O5_25 1_555 1_555
Hf4_6 O3_11 1_555 1_555
Hf13_8 O3_11 1_555 1_555
Hf11 O20_8 1_555 1_555
C8_25 C9_25 1_555 1_555
Hf13_10 O14_11 1_555 1_555
Hf4_3 O15_11 1_555 1_555
C1_26 C2_26 1_555 1_555
C2_26 C3_26 1_555 1_555
C3_26 H1_26 1_555 1_555
O1_26 C1_26 1_555 1_555
C4_26 C5_26 1_555 1_555
C5_26 C6_26 1_555 1_555
C6_26 C2_26 1_555 1_555
H2_26 C6_26 1_555 1_555
O4_26 C4_26 1_555 1_555
C7_26 C8_26 1_555 1_555
C8_26 C3_26 1_555 1_555
C9_26 C5_26 1_555 1_555
H3_26 C9_26 1_555 1_555
O5_26 C7_26 1_555 1_555
O11_16 C7_26 1_555 1_555
O7_17 C4_26 1_555 1_555
O8_14 C1_26 1_555 1_555
Hf13_8 O4_26 1_555 1_555
Hf12_5 O5_26 1_555 1_555
Hf12_10 O7_17 1_555 1_555
O12_17 Hf12_5 1_555 1_555
O13_14 Hf13_8 1_555 1_555
O14_12 Hf13_8 1_555 1_555
C8_26 C9_26 1_555 1_555
O8_14 Hf4_3 1_555 1_555
Hf12_10 O14_12 1_555 1_555
C1_27 C2_27 1_555 1_555
C2_27 C3_27 1_555 1_555
C3_27 H1_27 1_555 1_555
Hf4_6 O1_27 1_555 1_555
O1_27 C1_27 1_555 1_555
O14_12 Hf4_6 1_555 1_555
C4_27 C5_27 1_555 1_555
C5_27 C6_27 1_555 1_555
C6_27 C2_27 1_555 1_555
H2_27 C6_27 1_555 1_555
O4_27 C4_27 1_555 1_555
C7_27 C8_27 1_555 1_555
C8_27 C3_27 1_555 1_555
C9_27 C5_27 1_555 1_555
H3_27 C9_27 1_555 1_555
O5_27 C7_27 1_555 1_555
O6_17 C7_27 1_555 1_555
O12_16 C4_27 1_555 1_555
O13_14 C1_27 1_555 1_555
Hf4_3 O4_27 1_555 1_555
Hf12_4 O5_27 1_555 1_555
Hf13_10 O6_17 1_555 1_555
O11_17 Hf4_6 1_555 1_555
C8_27 C9_27 1_555 1_555
C1_28 C2_28 1_555 1_555
C2_28 C3_28 1_555 1_555
C3_28 H1_28 1_555 1_555
O1_28 C1_28 1_555 1_555
C4_28 C5_28 1_555 1_555
C5_28 C6_28 1_555 1_555
C6_28 C2_28 1_555 1_555
H2_28 C6_28 1_555 1_555
O4_28 C4_28 1_555 1_555
C7_28 C8_28 1_555 1_555
C8_28 C3_28 1_555 1_555
C9_28 C5_28 1_555 1_555
H3_28 C9_28 1_555 1_555
O5_28 C7_28 1_555 1_555
O12_6 C7_28 1_555 1_555
O12_2 C4_28 1_555 1_555
O12_5 C1_28 1_555 1_555
Hf7_2 O5_28 1_555 1_555
C8_28 C9_28 1_555 1_555
C1_29 C2_29 1_555 1_555
C2_29 C3_29 1_555 1_555
C3_29 H1_29 1_555 1_555
Hf12_10 O1_29 1_555 1_555
O1_29 C1_29 1_555 1_555
C4_29 C5_29 1_555 1_555
C5_29 C6_29 1_555 1_555
C6_29 C2_29 1_555 1_555
H2_29 C6_29 1_555 1_555
O4_29 C4_29 1_555 1_555
C7_29 C8_29 1_555 1_555
C8_29 C3_29 1_555 1_555
C9_29 C5_29 1_555 1_555
H3_29 C9_29 1_555 1_555
O5_29 C7_29 1_555 1_555
O12_17 C7_29 1_555 1_555
O13_13 C4_29 1_555 1_555
O11_17 C1_29 1_555 1_555
Hf13_10 O4_29 1_555 1_555
C8_29 C9_29 1_555 1_555
C1_30 C2_30 1_555 1_555
C2_30 C3_30 1_555 1_555
C3_30 H1_30 1_555 1_555
Hf13_7 O1_30 1_555 1_555
O1_30 C1_30 1_555 1_555
C4_30 C5_30 1_555 1_555
C5_30 C6_30 1_555 1_555
C6_30 C2_30 1_555 1_555
H2_30 C6_30 1_555 1_555
O4_30 C4_30 1_555 1_555
C7_30 C8_30 1_555 1_555
C8_30 C3_30 1_555 1_555
C9_30 C5_30 1_555 1_555
H3_30 C9_30 1_555 1_555
O5_30 C7_30 1_555 1_555
O11_15 C7_30 1_555 1_555
O12_15 C4_30 1_555 1_555
O13_11 C1_30 1_555 1_555
Hf12_7 O4_30 1_555 1_555
C8_30 C9_30 1_555 1_555
C1_31 C2_31 1_555 1_555
C2_31 C3_31 1_555 1_555
C3_31 H1_31 1_555 1_555
Hf11 O1_31 1_555 1_555
O1_31 C1_31 1_555 1_555
C4_31 C5_31 1_555 1_555
C5_31 C6_31 1_555 1_555
C6_31 C2_31 1_555 1_555
H2_31 C6_31 1_555 1_555
O4_31 C4_31 1_555 1_555
C7_31 C8_31 1_555 1_555
C8_31 C3_31 1_555 1_555
C9_31 C5_31 1_555 1_555
H3_31 C9_31 1_555 1_555
O5_31 C7_31 1_555 1_555
O13 C7_31 1_555 1_555
O11_7 C4_31 1_555 1_555
O12_8 C1_31 1_555 1_555
Hf8_2 O4_31 1_555 1_555
Hf10_4 O5_31 1_555 1_555
C8_31 C9_31 1_555 1_555
C1_32 C2_32 1_555 1_555
C2_32 C3_32 1_555 1_555
C3_32 H1_32 1_555 1_555
O1_32 C1_32 1_555 1_555
C4_32 C5_32 1_555 1_555
C5_32 C6_32 1_555 1_555
C6_32 C2_32 1_555 1_555
H2_32 C6_32 1_555 1_555
O4_32 C4_32 1_555 1_555
C7_32 C8_32 1_555 1_555
C8_32 C3_32 1_555 1_555
C9_32 C5_32 1_555 1_555
H3_32 C9_32 1_555 1_555
O5_32 C7_32 1_555 1_555
O13_7 C7_32 1_555 1_555
O11_11 C4_32 1_555 1_555
O12_13 C1_32 1_555 1_555
Hf12_6 O5_32 1_555 1_555
C8_32 C9_32 1_555 1_555
O22 Se1 1_555 1_555
Se1 O23 1_555 1_555
O24 Se1 1_555 1_555
O25 Se1 1_555 1_555
O22_2 Se1_2 1_555 1_555
Se1_2 O23_2 1_555 1_555
O24_2 Se1_2 1_555 1_555
O25_2 Se1_2 1_555 1_555
O22_3 Se1_3 1_555 1_555
Se1_3 O23_3 1_555 1_555
O24_3 Se1_3 1_555 1_555
O25_3 Se1_3 1_555 1_555
O22_4 Se1_4 1_555 1_555
Se1_4 O23_4 1_555 1_555
O24_4 Se1_4 1_555 1_555
O25_4 Se1_4 1_555 1_555
O22_5 Se1_5 1_555 1_555
Se1_5 O23_5 1_555 1_555
O24_5 Se1_5 1_555 1_555
O25_5 Se1_5 1_555 1_555
O22_6 Se1_6 1_555 1_555
Se1_6 O23_6 1_555 1_555
O24_6 Se1_6 1_555 1_555
O25_6 Se1_6 1_555 1_555
O22_7 Se1_7 1_555 1_555
Se1_7 O23_7 1_555 1_555
O24_7 Se1_7 1_555 1_555
O25_7 Se1_7 1_555 1_555
O22_8 Se1_8 1_555 1_555
Se1_8 O23_8 1_555 1_555
O24_8 Se1_8 1_555 1_555
O25_8 Se1_8 1_555 1_555
O22_9 Se1_9 1_555 1_555
Se1_9 O23_9 1_555 1_555
O24_9 Se1_9 1_555 1_555
O25_9 Se1_9 1_555 1_555
O22_10 Se1_10 1_555 1_555
Se1_10 O23_10 1_555 1_555
O24_10 Se1_10 1_555 1_555
O25_10 Se1_10 1_555 1_555
O22_11 Se1_11 1_555 1_555
Se1_11 O23_11 1_555 1_555
O24_11 Se1_11 1_555 1_555
O25_11 Se1_11 1_555 1_555
O22_12 Se1_12 1_555 1_555
Se1_12 O23_12 1_555 1_555
O24_12 Se1_12 1_555 1_555
O25_12 Se1_12 1_555 1_555
O22_13 Se1_13 1_555 1_555
Se1_13 O23_13 1_555 1_555
O24_13 Se1_13 1_555 1_555
O25_13 Se1_13 1_555 1_555
O22_14 Se1_14 1_555 1_555
Se1_14 O23_14 1_555 1_555
O24_14 Se1_14 1_555 1_555
O25_14 Se1_14 1_555 1_555
O22_15 Se1_15 1_555 1_555
Se1_15 O23_15 1_555 1_555
O24_15 Se1_15 1_555 1_555
O25_15 Se1_15 1_555 1_555
O22_16 Se1_16 1_555 1_555
Se1_16 O23_16 1_555 1_555
O24_16 Se1_16 1_555 1_555
O25_16 Se1_16 1_555 1_555
O22_17 Se1_17 1_555 1_555
Se1_17 O23_17 1_555 1_555
O24_17 Se1_17 1_555 1_555
O25_17 Se1_17 1_555 1_555
O22_18 Se1_18 1_555 1_555
Se1_18 O23_18 1_555 1_555
O24_18 Se1_18 1_555 1_555
O25_18 Se1_18 1_555 1_555
O22_19 Se1_19 1_555 1_555
Se1_19 O23_19 1_555 1_555
O24_19 Se1_19 1_555 1_555
O25_19 Se1_19 1_555 1_555
O22_20 Se1_20 1_555 1_555
Se1_20 O23_20 1_555 1_555
O24_20 Se1_20 1_555 1_555
O25_20 Se1_20 1_555 1_555
O22_21 Se1_21 1_555 1_555
Se1_21 O23_21 1_555 1_555
O24_21 Se1_21 1_555 1_555
O25_21 Se1_21 1_555 1_555
O22_22 Se1_22 1_555 1_555
Se1_22 O23_22 1_555 1_555
O24_22 Se1_22 1_555 1_555
O25_22 Se1_22 1_555 1_555
O22_23 Se1_23 1_555 1_555
Se1_23 O23_23 1_555 1_555
O24_23 Se1_23 1_555 1_555
O25_23 Se1_23 1_555 1_555
O22_24 Se1_24 1_555 1_555
Se1_24 O23_24 1_555 1_555
O24_24 Se1_24 1_555 1_555
O25_24 Se1_24 1_555 1_555
O22_25 Se1_25 1_555 1_555
Se1_25 O23_25 1_555 1_555
O24_25 Se1_25 1_555 1_555
O25_25 Se1_25 1_555 1_555
O22_26 Se1_26 1_555 1_555
Se1_26 O23_26 1_555 1_555
O24_26 Se1_26 1_555 1_555
O25_26 Se1_26 1_555 1_555
O22_27 Se1_27 1_555 1_555
Se1_27 O23_27 1_555 1_555
O24_27 Se1_27 1_555 1_555
O25_27 Se1_27 1_555 1_555
O22_28 Se1_28 1_555 1_555
Se1_28 O23_28 1_555 1_555
O24_28 Se1_28 1_555 1_555
O25_28 Se1_28 1_555 1_555
O22_29 Se1_29 1_555 1_555
Se1_29 O23_29 1_555 1_555
O24_29 Se1_29 1_555 1_555
O25_29 Se1_29 1_555 1_555
O22_30 Se1_30 1_555 1_555
Se1_30 O23_30 1_555 1_555
O24_30 Se1_30 1_555 1_555
O25_30 Se1_30 1_555 1_555
O22_31 Se1_31 1_555 1_555
Se1_31 O23_31 1_555 1_555
O24_31 Se1_31 1_555 1_555
O25_31 Se1_31 1_555 1_555
O22_32 Se1_32 1_555 1_555
Se1_32 O23_32 1_555 1_555
O24_32 Se1_32 1_555 1_555
O25_32 Se1_32 1_555 1_555
O22_33 Se1_33 1_555 1_555
Se1_33 O23_33 1_555 1_555
O24_33 Se1_33 1_555 1_555
O25_33 Se1_33 1_555 1_555
O22_34 Se1_34 1_555 1_555
Se1_34 O23_34 1_555 1_555
O24_34 Se1_34 1_555 1_555
O25_34 Se1_34 1_555 1_555
O22_35 Se1_35 1_555 1_555
Se1_35 O23_35 1_555 1_555
O24_35 Se1_35 1_555 1_555
O25_35 Se1_35 1_555 1_555
O22_36 Se1_36 1_555 1_555
Se1_36 O23_36 1_555 1_555
O24_36 Se1_36 1_555 1_555
O25_36 Se1_36 1_555 1_555
O22_37 Se1_37 1_555 1_555
Se1_37 O23_37 1_555 1_555
O24_37 Se1_37 1_555 1_555
O25_37 Se1_37 1_555 1_555
O22_38 Se1_38 1_555 1_555
Se1_38 O23_38 1_555 1_555
O24_38 Se1_38 1_555 1_555
O25_38 Se1_38 1_555 1_555
O22_39 Se1_39 1_555 1_555
Se1_39 O23_39 1_555 1_555
O24_39 Se1_39 1_555 1_555
O25_39 Se1_39 1_555 1_555
O22_40 Se1_40 1_555 1_555
Se1_40 O23_40 1_555 1_555
O24_40 Se1_40 1_555 1_555
O25_40 Se1_40 1_555 1_555
O22_41 Se1_41 1_555 1_555
Se1_41 O23_41 1_555 1_555
O24_41 Se1_41 1_555 1_555
O25_41 Se1_41 1_555 1_555
O22_42 Se1_42 1_555 1_555
Se1_42 O23_42 1_555 1_555
O24_42 Se1_42 1_555 1_555
O25_42 Se1_42 1_555 1_555
O22_43 Se1_43 1_555 1_555
Se1_43 O23_43 1_555 1_555
O24_43 Se1_43 1_555 1_555
O25_43 Se1_43 1_555 1_555
O22_44 Se1_44 1_555 1_555
Se1_44 O23_44 1_555 1_555
O24_44 Se1_44 1_555 1_555
O25_44 Se1_44 1_555 1_555
O22_45 Se1_45 1_555 1_555
Se1_45 O23_45 1_555 1_555
O24_45 Se1_45 1_555 1_555
O25_45 Se1_45 1_555 1_555
O22_46 Se1_46 1_555 1_555
Se1_46 O23_46 1_555 1_555
O24_46 Se1_46 1_555 1_555
O25_46 Se1_46 1_555 1_555
O22_47 Se1_47 1_555 1_555
Se1_47 O23_47 1_555 1_555
O24_47 Se1_47 1_555 1_555
O25_47 Se1_47 1_555 1_555
O22_48 Se1_48 1_555 1_555
Se1_48 O23_48 1_555 1_555
O24_48 Se1_48 1_555 1_555
O25_48 Se1_48 1_555 1_555
O22_49 Se1_49 1_555 1_555
Se1_49 O23_49 1_555 1_555
O24_49 Se1_49 1_555 1_555
O25_49 Se1_49 1_555 1_555
O22_50 Se1_50 1_555 1_555
Se1_50 O23_50 1_555 1_555
O24_50 Se1_50 1_555 1_555
O25_50 Se1_50 1_555 1_555
O22_51 Se1_51 1_555 1_555
Se1_51 O23_51 1_555 1_555
O24_51 Se1_51 1_555 1_555
O25_51 Se1_51 1_555 1_555
O22_52 Se1_52 1_555 1_555
Se1_52 O23_52 1_555 1_555
O24_52 Se1_52 1_555 1_555
O25_52 Se1_52 1_555 1_555
O22_53 Se1_53 1_555 1_555
Se1_53 O23_53 1_555 1_555
O24_53 Se1_53 1_555 1_555
O25_53 Se1_53 1_555 1_555
O22_54 Se1_54 1_555 1_555
Se1_54 O23_54 1_555 1_555
O24_54 Se1_54 1_555 1_555
O25_54 Se1_54 1_555 1_555
O22_55 Se1_55 1_555 1_555
Se1_55 O23_55 1_555 1_555
O24_55 Se1_55 1_555 1_555
O25_55 Se1_55 1_555 1_555
O22_56 Se1_56 1_555 1_555
Se1_56 O23_56 1_555 1_555
O24_56 Se1_56 1_555 1_555
O25_56 Se1_56 1_555 1_555
O22_57 Se1_57 1_555 1_555
Se1_57 O23_57 1_555 1_555
O24_57 Se1_57 1_555 1_555
O25_57 Se1_57 1_555 1_555
O22_58 Se1_58 1_555 1_555
Se1_58 O23_58 1_555 1_555
O24_58 Se1_58 1_555 1_555
O25_58 Se1_58 1_555 1_555
O22_59 Se1_59 1_555 1_555
Se1_59 O23_59 1_555 1_555
O24_59 Se1_59 1_555 1_555
O25_59 Se1_59 1_555 1_555
O22_60 Se1_60 1_555 1_555
Se1_60 O23_60 1_555 1_555
O24_60 Se1_60 1_555 1_555
O25_60 Se1_60 1_555 1_555
O22_61 Se1_61 1_555 1_555
Se1_61 O23_61 1_555 1_555
O24_61 Se1_61 1_555 1_555
O25_61 Se1_61 1_555 1_555
O22_62 Se1_62 1_555 1_555
Se1_62 O23_62 1_555 1_555
O24_62 Se1_62 1_555 1_555
O25_62 Se1_62 1_555 1_555
O22_63 Se1_63 1_555 1_555
Se1_63 O23_63 1_555 1_555
O24_63 Se1_63 1_555 1_555
O25_63 Se1_63 1_555 1_555
O22_64 Se1_64 1_555 1_555
Se1_64 O23_64 1_555 1_555
O24_64 Se1_64 1_555 1_555
O25_64 Se1_64 1_555 1_555
O22_65 Se1_65 1_555 1_555
Se1_65 O23_65 1_555 1_555
O24_65 Se1_65 1_555 1_555
O25_65 Se1_65 1_555 1_555
O22_66 Se1_66 1_555 1_555
Se1_66 O23_66 1_555 1_555
O24_66 Se1_66 1_555 1_555
O25_66 Se1_66 1_555 1_555
O22_67 Se1_67 1_555 1_555
Se1_67 O23_67 1_555 1_555
O24_67 Se1_67 1_555 1_555
O25_67 Se1_67 1_555 1_555
O22_68 Se1_68 1_555 1_555
Se1_68 O23_68 1_555 1_555
O24_68 Se1_68 1_555 1_555
O25_68 Se1_68 1_555 1_555
O22_69 Se1_69 1_555 1_555
Se1_69 O23_69 1_555 1_555
O24_69 Se1_69 1_555 1_555
O25_69 Se1_69 1_555 1_555
O22_70 Se1_70 1_555 1_555
Se1_70 O23_70 1_555 1_555
O24_70 Se1_70 1_555 1_555
O25_70 Se1_70 1_555 1_555
O22_71 Se1_71 1_555 1_555
Se1_71 O23_71 1_555 1_555
O24_71 Se1_71 1_555 1_555
O25_71 Se1_71 1_555 1_555
O22_72 Se1_72 1_555 1_555
Se1_72 O23_72 1_555 1_555
O24_72 Se1_72 1_555 1_555
O25_72 Se1_72 1_555 1_555
O22_73 Se1_73 1_555 1_555
Se1_73 O23_73 1_555 1_555
O24_73 Se1_73 1_555 1_555
O25_73 Se1_73 1_555 1_555
O22_74 Se1_74 1_555 1_555
Se1_74 O23_74 1_555 1_555
O24_74 Se1_74 1_555 1_555
O25_74 Se1_74 1_555 1_555
O22_75 Se1_75 1_555 1_555
Se1_75 O23_75 1_555 1_555
O24_75 Se1_75 1_555 1_555
O25_75 Se1_75 1_555 1_555
O22_76 Se1_76 1_555 1_555
Se1_76 O23_76 1_555 1_555
O24_76 Se1_76 1_555 1_555
O25_76 Se1_76 1_555 1_555
O22_77 Se1_77 1_555 1_555
Se1_77 O23_77 1_555 1_555
O24_77 Se1_77 1_555 1_555
O25_77 Se1_77 1_555 1_555
O22_78 Se1_78 1_555 1_555
Se1_78 O23_78 1_555 1_555
O24_78 Se1_78 1_555 1_555
O25_78 Se1_78 1_555 1_555
O22_79 Se1_79 1_555 1_555
Se1_79 O23_79 1_555 1_555
O24_79 Se1_79 1_555 1_555
O25_79 Se1_79 1_555 1_555
O22_80 Se1_80 1_555 1_555
Se1_80 O23_80 1_555 1_555
O24_80 Se1_80 1_555 1_555
O25_80 Se1_80 1_555 1_555
O22_81 Se1_81 1_555 1_555
Se1_81 O23_81 1_555 1_555
O24_81 Se1_81 1_555 1_555
O25_81 Se1_81 1_555 1_555
O22_82 Se1_82 1_555 1_555
Se1_82 O23_82 1_555 1_555
O24_82 Se1_82 1_555 1_555
O25_82 Se1_82 1_555 1_555
O22_83 Se1_83 1_555 1_555
Se1_83 O23_83 1_555 1_555
O24_83 Se1_83 1_555 1_555
O25_83 Se1_83 1_555 1_555
O22_84 Se1_84 1_555 1_555
Se1_84 O23_84 1_555 1_555
O24_84 Se1_84 1_555 1_555
O25_84 Se1_84 1_555 1_555
O22_85 Se1_85 1_555 1_555
Se1_85 O23_85 1_555 1_555
O24_85 Se1_85 1_555 1_555
O25_85 Se1_85 1_555 1_555
O22_86 Se1_86 1_555 1_555
Se1_86 O23_86 1_555 1_555
O24_86 Se1_86 1_555 1_555
O25_86 Se1_86 1_555 1_555
O22_87 Se1_87 1_555 1_555
Se1_87 O23_87 1_555 1_555
O24_87 Se1_87 1_555 1_555
O25_87 Se1_87 1_555 1_555
O22_88 Se1_88 1_555 1_555
Se1_88 O23_88 1_555 1_555
O24_88 Se1_88 1_555 1_555
O25_88 Se1_88 1_555 1_555
O22_89 Se1_89 1_555 1_555
Se1_89 O23_89 1_555 1_555
O24_89 Se1_89 1_555 1_555
O25_89 Se1_89 1_555 1_555
O22_90 Se1_90 1_555 1_555
Se1_90 O23_90 1_555 1_555
O24_90 Se1_90 1_555 1_555
O25_90 Se1_90 1_555 1_555
O22_91 Se1_91 1_555 1_555
Se1_91 O23_91 1_555 1_555
O24_91 Se1_91 1_555 1_555
O25_91 Se1_91 1_555 1_555
O22_92 Se1_92 1_555 1_555
Se1_92 O23_92 1_555 1_555
O24_92 Se1_92 1_555 1_555
O25_92 Se1_92 1_555 1_555
O22_93 Se1_93 1_555 1_555
Se1_93 O23_93 1_555 1_555
O24_93 Se1_93 1_555 1_555
O25_93 Se1_93 1_555 1_555
O22_94 Se1_94 1_555 1_555
Se1_94 O23_94 1_555 1_555
O24_94 Se1_94 1_555 1_555
O25_94 Se1_94 1_555 1_555
O22_95 Se1_95 1_555 1_555
Se1_95 O23_95 1_555 1_555
O24_95 Se1_95 1_555 1_555
O25_95 Se1_95 1_555 1_555
O22_96 Se1_96 1_555 1_555
Se1_96 O23_96 1_555 1_555
O24_96 Se1_96 1_555 1_555
O25_96 Se1_96 1_555 1_555
O26 Se2 1_555 1_555
Se2 O27 1_555 1_555
O28 Se2 1_555 1_555
O29 Se2 1_555 1_555
O26_2 Se2_2 1_555 1_555
Se2_2 O27_2 1_555 1_555
O28_2 Se2_2 1_555 1_555
O29_2 Se2_2 1_555 1_555
O26_3 Se2_3 1_555 1_555
Se2_3 O27_3 1_555 1_555
O28_3 Se2_3 1_555 1_555
O29_3 Se2_3 1_555 1_555
O26_4 Se2_4 1_555 1_555
Se2_4 O27_4 1_555 1_555
O28_4 Se2_4 1_555 1_555
O29_4 Se2_4 1_555 1_555
O26_5 Se2_5 1_555 1_555
Se2_5 O27_5 1_555 1_555
O28_5 Se2_5 1_555 1_555
O29_5 Se2_5 1_555 1_555
O26_6 Se2_6 1_555 1_555
Se2_6 O27_6 1_555 1_555
O28_6 Se2_6 1_555 1_555
O29_6 Se2_6 1_555 1_555
O26_7 Se2_7 1_555 1_555
Se2_7 O27_7 1_555 1_555
O28_7 Se2_7 1_555 1_555
O29_7 Se2_7 1_555 1_555
O26_8 Se2_8 1_555 1_555
Se2_8 O27_8 1_555 1_555
O28_8 Se2_8 1_555 1_555
O29_8 Se2_8 1_555 1_555
O26_9 Se2_9 1_555 1_555
Se2_9 O27_9 1_555 1_555
O28_9 Se2_9 1_555 1_555
O29_9 Se2_9 1_555 1_555
O26_10 Se2_10 1_555 1_555
Se2_10 O27_10 1_555 1_555
O28_10 Se2_10 1_555 1_555
O29_10 Se2_10 1_555 1_555
O26_11 Se2_11 1_555 1_555
Se2_11 O27_11 1_555 1_555
O28_11 Se2_11 1_555 1_555
O29_11 Se2_11 1_555 1_555
O26_12 Se2_12 1_555 1_555
Se2_12 O27_12 1_555 1_555
O28_12 Se2_12 1_555 1_555
O29_12 Se2_12 1_555 1_555
O26_13 Se2_13 1_555 1_555
Se2_13 O27_13 1_555 1_555
O28_13 Se2_13 1_555 1_555
O29_13 Se2_13 1_555 1_555
O26_14 Se2_14 1_555 1_555
Se2_14 O27_14 1_555 1_555
O28_14 Se2_14 1_555 1_555
O29_14 Se2_14 1_555 1_555
O26_15 Se2_15 1_555 1_555
Se2_15 O27_15 1_555 1_555
O28_15 Se2_15 1_555 1_555
O29_15 Se2_15 1_555 1_555
O26_16 Se2_16 1_555 1_555
Se2_16 O27_16 1_555 1_555
O28_16 Se2_16 1_555 1_555
O29_16 Se2_16 1_555 1_555
O26_17 Se2_17 1_555 1_555
Se2_17 O27_17 1_555 1_555
O28_17 Se2_17 1_555 1_555
O29_17 Se2_17 1_555 1_555
O26_18 Se2_18 1_555 1_555
Se2_18 O27_18 1_555 1_555
O28_18 Se2_18 1_555 1_555
O29_18 Se2_18 1_555 1_555
O26_19 Se2_19 1_555 1_555
Se2_19 O27_19 1_555 1_555
O28_19 Se2_19 1_555 1_555
O29_19 Se2_19 1_555 1_555
O26_20 Se2_20 1_555 1_555
Se2_20 O27_20 1_555 1_555
O28_20 Se2_20 1_555 1_555
O29_20 Se2_20 1_555 1_555
O26_21 Se2_21 1_555 1_555
Se2_21 O27_21 1_555 1_555
O28_21 Se2_21 1_555 1_555
O29_21 Se2_21 1_555 1_555
O26_22 Se2_22 1_555 1_555
Se2_22 O27_22 1_555 1_555
O28_22 Se2_22 1_555 1_555
O29_22 Se2_22 1_555 1_555
O26_23 Se2_23 1_555 1_555
Se2_23 O27_23 1_555 1_555
O28_23 Se2_23 1_555 1_555
O29_23 Se2_23 1_555 1_555
O26_24 Se2_24 1_555 1_555
Se2_24 O27_24 1_555 1_555
O28_24 Se2_24 1_555 1_555
O29_24 Se2_24 1_555 1_555
O26_25 Se2_25 1_555 1_555
Se2_25 O27_25 1_555 1_555
O28_25 Se2_25 1_555 1_555
O29_25 Se2_25 1_555 1_555
O26_26 Se2_26 1_555 1_555
Se2_26 O27_26 1_555 1_555
O28_26 Se2_26 1_555 1_555
O29_26 Se2_26 1_555 1_555
O26_27 Se2_27 1_555 1_555
Se2_27 O27_27 1_555 1_555
O28_27 Se2_27 1_555 1_555
O29_27 Se2_27 1_555 1_555
O26_28 Se2_28 1_555 1_555
Se2_28 O27_28 1_555 1_555
O28_28 Se2_28 1_555 1_555
O29_28 Se2_28 1_555 1_555
O26_29 Se2_29 1_555 1_555
Se2_29 O27_29 1_555 1_555
O28_29 Se2_29 1_555 1_555
O29_29 Se2_29 1_555 1_555
O26_30 Se2_30 1_555 1_555
Se2_30 O27_30 1_555 1_555
O28_30 Se2_30 1_555 1_555
O29_30 Se2_30 1_555 1_555
O26_31 Se2_31 1_555 1_555
Se2_31 O27_31 1_555 1_555
O28_31 Se2_31 1_555 1_555
O29_31 Se2_31 1_555 1_555
O26_32 Se2_32 1_555 1_555
Se2_32 O27_32 1_555 1_555
O28_32 Se2_32 1_555 1_555
O29_32 Se2_32 1_555 1_555
O26_33 Se2_33 1_555 1_555
Se2_33 O27_33 1_555 1_555
O28_33 Se2_33 1_555 1_555
O29_33 Se2_33 1_555 1_555
O26_34 Se2_34 1_555 1_555
Se2_34 O27_34 1_555 1_555
O28_34 Se2_34 1_555 1_555
O29_34 Se2_34 1_555 1_555
O26_35 Se2_35 1_555 1_555
Se2_35 O27_35 1_555 1_555
O28_35 Se2_35 1_555 1_555
O29_35 Se2_35 1_555 1_555
O26_36 Se2_36 1_555 1_555
Se2_36 O27_36 1_555 1_555
O28_36 Se2_36 1_555 1_555
O29_36 Se2_36 1_555 1_555
O26_37 Se2_37 1_555 1_555
Se2_37 O27_37 1_555 1_555
O28_37 Se2_37 1_555 1_555
O29_37 Se2_37 1_555 1_555
O26_38 Se2_38 1_555 1_555
Se2_38 O27_38 1_555 1_555
O28_38 Se2_38 1_555 1_555
O29_38 Se2_38 1_555 1_555
O26_39 Se2_39 1_555 1_555
Se2_39 O27_39 1_555 1_555
O28_39 Se2_39 1_555 1_555
O29_39 Se2_39 1_555 1_555
O26_40 Se2_40 1_555 1_555
Se2_40 O27_40 1_555 1_555
O28_40 Se2_40 1_555 1_555
O29_40 Se2_40 1_555 1_555
O26_41 Se2_41 1_555 1_555
Se2_41 O27_41 1_555 1_555
O28_41 Se2_41 1_555 1_555
O29_41 Se2_41 1_555 1_555
O26_42 Se2_42 1_555 1_555
Se2_42 O27_42 1_555 1_555
O28_42 Se2_42 1_555 1_555
O29_42 Se2_42 1_555 1_555
O26_43 Se2_43 1_555 1_555
Se2_43 O27_43 1_555 1_555
O28_43 Se2_43 1_555 1_555
O29_43 Se2_43 1_555 1_555
O26_44 Se2_44 1_555 1_555
Se2_44 O27_44 1_555 1_555
O28_44 Se2_44 1_555 1_555
O29_44 Se2_44 1_555 1_555
O26_45 Se2_45 1_555 1_555
Se2_45 O27_45 1_555 1_555
O28_45 Se2_45 1_555 1_555
O29_45 Se2_45 1_555 1_555
O26_46 Se2_46 1_555 1_555
Se2_46 O27_46 1_555 1_555
O28_46 Se2_46 1_555 1_555
O29_46 Se2_46 1_555 1_555
O26_47 Se2_47 1_555 1_555
Se2_47 O27_47 1_555 1_555
O28_47 Se2_47 1_555 1_555
O29_47 Se2_47 1_555 1_555
O26_48 Se2_48 1_555 1_555
Se2_48 O27_48 1_555 1_555
O28_48 Se2_48 1_555 1_555
O29_48 Se2_48 1_555 1_555
O26_49 Se2_49 1_555 1_555
Se2_49 O27_49 1_555 1_555
O28_49 Se2_49 1_555 1_555
O29_49 Se2_49 1_555 1_555
O26_50 Se2_50 1_555 1_555
Se2_50 O27_50 1_555 1_555
O28_50 Se2_50 1_555 1_555
O29_50 Se2_50 1_555 1_555
O26_51 Se2_51 1_555 1_555
Se2_51 O27_51 1_555 1_555
O28_51 Se2_51 1_555 1_555
O29_51 Se2_51 1_555 1_555
O26_52 Se2_52 1_555 1_555
Se2_52 O27_52 1_555 1_555
O28_52 Se2_52 1_555 1_555
O29_52 Se2_52 1_555 1_555
O26_53 Se2_53 1_555 1_555
Se2_53 O27_53 1_555 1_555
O28_53 Se2_53 1_555 1_555
O29_53 Se2_53 1_555 1_555
O26_54 Se2_54 1_555 1_555
Se2_54 O27_54 1_555 1_555
O28_54 Se2_54 1_555 1_555
O29_54 Se2_54 1_555 1_555
O26_55 Se2_55 1_555 1_555
Se2_55 O27_55 1_555 1_555
O28_55 Se2_55 1_555 1_555
O29_55 Se2_55 1_555 1_555
O26_56 Se2_56 1_555 1_555
Se2_56 O27_56 1_555 1_555
O28_56 Se2_56 1_555 1_555
O29_56 Se2_56 1_555 1_555
O26_57 Se2_57 1_555 1_555
Se2_57 O27_57 1_555 1_555
O28_57 Se2_57 1_555 1_555
O29_57 Se2_57 1_555 1_555
O26_58 Se2_58 1_555 1_555
Se2_58 O27_58 1_555 1_555
O28_58 Se2_58 1_555 1_555
O29_58 Se2_58 1_555 1_555
O26_59 Se2_59 1_555 1_555
Se2_59 O27_59 1_555 1_555
O28_59 Se2_59 1_555 1_555
O29_59 Se2_59 1_555 1_555
O26_60 Se2_60 1_555 1_555
Se2_60 O27_60 1_555 1_555
O28_60 Se2_60 1_555 1_555
O29_60 Se2_60 1_555 1_555
O26_61 Se2_61 1_555 1_555
Se2_61 O27_61 1_555 1_555
O28_61 Se2_61 1_555 1_555
O29_61 Se2_61 1_555 1_555
O26_62 Se2_62 1_555 1_555
Se2_62 O27_62 1_555 1_555
O28_62 Se2_62 1_555 1_555
O29_62 Se2_62 1_555 1_555
O26_63 Se2_63 1_555 1_555
Se2_63 O27_63 1_555 1_555
O28_63 Se2_63 1_555 1_555
O29_63 Se2_63 1_555 1_555
O26_64 Se2_64 1_555 1_555
Se2_64 O27_64 1_555 1_555
O28_64 Se2_64 1_555 1_555
O29_64 Se2_64 1_555 1_555
O26_65 Se2_65 1_555 1_555
Se2_65 O27_65 1_555 1_555
O28_65 Se2_65 1_555 1_555
O29_65 Se2_65 1_555 1_555
O26_66 Se2_66 1_555 1_555
Se2_66 O27_66 1_555 1_555
O28_66 Se2_66 1_555 1_555
O29_66 Se2_66 1_555 1_555
O26_67 Se2_67 1_555 1_555
Se2_67 O27_67 1_555 1_555
O28_67 Se2_67 1_555 1_555
O29_67 Se2_67 1_555 1_555
O26_68 Se2_68 1_555 1_555
Se2_68 O27_68 1_555 1_555
O28_68 Se2_68 1_555 1_555
O29_68 Se2_68 1_555 1_555
O26_69 Se2_69 1_555 1_555
Se2_69 O27_69 1_555 1_555
O28_69 Se2_69 1_555 1_555
O29_69 Se2_69 1_555 1_555
O26_70 Se2_70 1_555 1_555
Se2_70 O27_70 1_555 1_555
O28_70 Se2_70 1_555 1_555
O29_70 Se2_70 1_555 1_555
O26_71 Se2_71 1_555 1_555
Se2_71 O27_71 1_555 1_555
O28_71 Se2_71 1_555 1_555
O29_71 Se2_71 1_555 1_555
O26_72 Se2_72 1_555 1_555
Se2_72 O27_72 1_555 1_555
O28_72 Se2_72 1_555 1_555
O29_72 Se2_72 1_555 1_555
O26_73 Se2_73 1_555 1_555
Se2_73 O27_73 1_555 1_555
O28_73 Se2_73 1_555 1_555
O29_73 Se2_73 1_555 1_555
O26_74 Se2_74 1_555 1_555
Se2_74 O27_74 1_555 1_555
O28_74 Se2_74 1_555 1_555
O29_74 Se2_74 1_555 1_555
O26_75 Se2_75 1_555 1_555
Se2_75 O27_75 1_555 1_555
O28_75 Se2_75 1_555 1_555
O29_75 Se2_75 1_555 1_555
O26_76 Se2_76 1_555 1_555
Se2_76 O27_76 1_555 1_555
O28_76 Se2_76 1_555 1_555
O29_76 Se2_76 1_555 1_555
O26_77 Se2_77 1_555 1_555
Se2_77 O27_77 1_555 1_555
O28_77 Se2_77 1_555 1_555
O29_77 Se2_77 1_555 1_555
O26_78 Se2_78 1_555 1_555
Se2_78 O27_78 1_555 1_555
O28_78 Se2_78 1_555 1_555
O29_78 Se2_78 1_555 1_555
O26_79 Se2_79 1_555 1_555
Se2_79 O27_79 1_555 1_555
O28_79 Se2_79 1_555 1_555
O29_79 Se2_79 1_555 1_555
O26_80 Se2_80 1_555 1_555
Se2_80 O27_80 1_555 1_555
O28_80 Se2_80 1_555 1_555
O29_80 Se2_80 1_555 1_555
O26_81 Se2_81 1_555 1_555
Se2_81 O27_81 1_555 1_555
O28_81 Se2_81 1_555 1_555
O29_81 Se2_81 1_555 1_555
O26_82 Se2_82 1_555 1_555
Se2_82 O27_82 1_555 1_555
O28_82 Se2_82 1_555 1_555
O29_82 Se2_82 1_555 1_555
O26_83 Se2_83 1_555 1_555
Se2_83 O27_83 1_555 1_555
O28_83 Se2_83 1_555 1_555
O29_83 Se2_83 1_555 1_555
O26_84 Se2_84 1_555 1_555
Se2_84 O27_84 1_555 1_555
O28_84 Se2_84 1_555 1_555
O29_84 Se2_84 1_555 1_555
O26_85 Se2_85 1_555 1_555
Se2_85 O27_85 1_555 1_555
O28_85 Se2_85 1_555 1_555
O29_85 Se2_85 1_555 1_555
O26_86 Se2_86 1_555 1_555
Se2_86 O27_86 1_555 1_555
O28_86 Se2_86 1_555 1_555
O29_86 Se2_86 1_555 1_555
O26_87 Se2_87 1_555 1_555
Se2_87 O27_87 1_555 1_555
O28_87 Se2_87 1_555 1_555
O29_87 Se2_87 1_555 1_555
O26_88 Se2_88 1_555 1_555
Se2_88 O27_88 1_555 1_555
O28_88 Se2_88 1_555 1_555
O29_88 Se2_88 1_555 1_555
O26_89 Se2_89 1_555 1_555
Se2_89 O27_89 1_555 1_555
O28_89 Se2_89 1_555 1_555
O29_89 Se2_89 1_555 1_555
O26_90 Se2_90 1_555 1_555
Se2_90 O27_90 1_555 1_555
O28_90 Se2_90 1_555 1_555
O29_90 Se2_90 1_555 1_555
O26_91 Se2_91 1_555 1_555
Se2_91 O27_91 1_555 1_555
O28_91 Se2_91 1_555 1_555
O29_91 Se2_91 1_555 1_555
O26_92 Se2_92 1_555 1_555
Se2_92 O27_92 1_555 1_555
O28_92 Se2_92 1_555 1_555
O29_92 Se2_92 1_555 1_555
O26_93 Se2_93 1_555 1_555
Se2_93 O27_93 1_555 1_555
O28_93 Se2_93 1_555 1_555
O29_93 Se2_93 1_555 1_555
O26_94 Se2_94 1_555 1_555
Se2_94 O27_94 1_555 1_555
O28_94 Se2_94 1_555 1_555
O29_94 Se2_94 1_555 1_555
O26_95 Se2_95 1_555 1_555
Se2_95 O27_95 1_555 1_555
O28_95 Se2_95 1_555 1_555
O29_95 Se2_95 1_555 1_555
O26_96 Se2_96 1_555 1_555
Se2_96 O27_96 1_555 1_555
O28_96 Se2_96 1_555 1_555
O29_96 Se2_96 1_555 1_555
O30 Se3 1_555 1_555
Se3 O31 1_555 1_555
O32 Se3 1_555 1_555
O33 Se3 1_555 1_555
O30_2 Se3_2 1_555 1_555
Se3_2 O31_2 1_555 1_555
O32_2 Se3_2 1_555 1_555
O33_2 Se3_2 1_555 1_555
O30_3 Se3_3 1_555 1_555
Se3_3 O31_3 1_555 1_555
O32_3 Se3_3 1_555 1_555
O33_3 Se3_3 1_555 1_555
O30_4 Se3_4 1_555 1_555
Se3_4 O31_4 1_555 1_555
O32_4 Se3_4 1_555 1_555
O33_4 Se3_4 1_555 1_555
O30_5 Se3_5 1_555 1_555
Se3_5 O31_5 1_555 1_555
O32_5 Se3_5 1_555 1_555
O33_5 Se3_5 1_555 1_555
O30_6 Se3_6 1_555 1_555
Se3_6 O31_6 1_555 1_555
O32_6 Se3_6 1_555 1_555
O33_6 Se3_6 1_555 1_555
O30_7 Se3_7 1_555 1_555
Se3_7 O31_7 1_555 1_555
O32_7 Se3_7 1_555 1_555
O33_7 Se3_7 1_555 1_555
O30_8 Se3_8 1_555 1_555
Se3_8 O31_8 1_555 1_555
O32_8 Se3_8 1_555 1_555
O33_8 Se3_8 1_555 1_555
O30_9 Se3_9 1_555 1_555
Se3_9 O31_9 1_555 1_555
O32_9 Se3_9 1_555 1_555
O33_9 Se3_9 1_555 1_555
O30_10 Se3_10 1_555 1_555
Se3_10 O31_10 1_555 1_555
O32_10 Se3_10 1_555 1_555
O33_10 Se3_10 1_555 1_555
O30_11 Se3_11 1_555 1_555
Se3_11 O31_11 1_555 1_555
O32_11 Se3_11 1_555 1_555
O33_11 Se3_11 1_555 1_555
O30_12 Se3_12 1_555 1_555
Se3_12 O31_12 1_555 1_555
O32_12 Se3_12 1_555 1_555
O33_12 Se3_12 1_555 1_555
O30_13 Se3_13 1_555 1_555
Se3_13 O31_13 1_555 1_555
O32_13 Se3_13 1_555 1_555
O33_13 Se3_13 1_555 1_555
O30_14 Se3_14 1_555 1_555
Se3_14 O31_14 1_555 1_555
O32_14 Se3_14 1_555 1_555
O33_14 Se3_14 1_555 1_555
O30_15 Se3_15 1_555 1_555
Se3_15 O31_15 1_555 1_555
O32_15 Se3_15 1_555 1_555
O33_15 Se3_15 1_555 1_555
O30_16 Se3_16 1_555 1_555
Se3_16 O31_16 1_555 1_555
O32_16 Se3_16 1_555 1_555
O33_16 Se3_16 1_555 1_555
O30_17 Se3_17 1_555 1_555
Se3_17 O31_17 1_555 1_555
O32_17 Se3_17 1_555 1_555
O33_17 Se3_17 1_555 1_555
O30_18 Se3_18 1_555 1_555
Se3_18 O31_18 1_555 1_555
O32_18 Se3_18 1_555 1_555
O33_18 Se3_18 1_555 1_555
O30_19 Se3_19 1_555 1_555
Se3_19 O31_19 1_555 1_555
O32_19 Se3_19 1_555 1_555
O33_19 Se3_19 1_555 1_555
O30_20 Se3_20 1_555 1_555
Se3_20 O31_20 1_555 1_555
O32_20 Se3_20 1_555 1_555
O33_20 Se3_20 1_555 1_555
O30_21 Se3_21 1_555 1_555
Se3_21 O31_21 1_555 1_555
O32_21 Se3_21 1_555 1_555
O33_21 Se3_21 1_555 1_555
O30_22 Se3_22 1_555 1_555
Se3_22 O31_22 1_555 1_555
O32_22 Se3_22 1_555 1_555
O33_22 Se3_22 1_555 1_555
O30_23 Se3_23 1_555 1_555
Se3_23 O31_23 1_555 1_555
O32_23 Se3_23 1_555 1_555
O33_23 Se3_23 1_555 1_555
O30_24 Se3_24 1_555 1_555
Se3_24 O31_24 1_555 1_555
O32_24 Se3_24 1_555 1_555
O33_24 Se3_24 1_555 1_555
O30_25 Se3_25 1_555 1_555
Se3_25 O31_25 1_555 1_555
O32_25 Se3_25 1_555 1_555
O33_25 Se3_25 1_555 1_555
O30_26 Se3_26 1_555 1_555
Se3_26 O31_26 1_555 1_555
O32_26 Se3_26 1_555 1_555
O33_26 Se3_26 1_555 1_555
O30_27 Se3_27 1_555 1_555
Se3_27 O31_27 1_555 1_555
O32_27 Se3_27 1_555 1_555
O33_27 Se3_27 1_555 1_555
O30_28 Se3_28 1_555 1_555
Se3_28 O31_28 1_555 1_555
O32_28 Se3_28 1_555 1_555
O33_28 Se3_28 1_555 1_555
O30_29 Se3_29 1_555 1_555
Se3_29 O31_29 1_555 1_555
O32_29 Se3_29 1_555 1_555
O33_29 Se3_29 1_555 1_555
O30_30 Se3_30 1_555 1_555
Se3_30 O31_30 1_555 1_555
O32_30 Se3_30 1_555 1_555
O33_30 Se3_30 1_555 1_555
O30_31 Se3_31 1_555 1_555
Se3_31 O31_31 1_555 1_555
O32_31 Se3_31 1_555 1_555
O33_31 Se3_31 1_555 1_555
O30_32 Se3_32 1_555 1_555
Se3_32 O31_32 1_555 1_555
O32_32 Se3_32 1_555 1_555
O33_32 Se3_32 1_555 1_555
O30_33 Se3_33 1_555 1_555
Se3_33 O31_33 1_555 1_555
O32_33 Se3_33 1_555 1_555
O33_33 Se3_33 1_555 1_555
O30_34 Se3_34 1_555 1_555
Se3_34 O31_34 1_555 1_555
O32_34 Se3_34 1_555 1_555
O33_34 Se3_34 1_555 1_555
O30_35 Se3_35 1_555 1_555
Se3_35 O31_35 1_555 1_555
O32_35 Se3_35 1_555 1_555
O33_35 Se3_35 1_555 1_555
O30_36 Se3_36 1_555 1_555
Se3_36 O31_36 1_555 1_555
O32_36 Se3_36 1_555 1_555
O33_36 Se3_36 1_555 1_555
O30_37 Se3_37 1_555 1_555
Se3_37 O31_37 1_555 1_555
O32_37 Se3_37 1_555 1_555
O33_37 Se3_37 1_555 1_555
O30_38 Se3_38 1_555 1_555
Se3_38 O31_38 1_555 1_555
O32_38 Se3_38 1_555 1_555
O33_38 Se3_38 1_555 1_555
O30_39 Se3_39 1_555 1_555
Se3_39 O31_39 1_555 1_555
O32_39 Se3_39 1_555 1_555
O33_39 Se3_39 1_555 1_555
O30_40 Se3_40 1_555 1_555
Se3_40 O31_40 1_555 1_555
O32_40 Se3_40 1_555 1_555
O33_40 Se3_40 1_555 1_555
O30_41 Se3_41 1_555 1_555
Se3_41 O31_41 1_555 1_555
O32_41 Se3_41 1_555 1_555
O33_41 Se3_41 1_555 1_555
O30_42 Se3_42 1_555 1_555
Se3_42 O31_42 1_555 1_555
O32_42 Se3_42 1_555 1_555
O33_42 Se3_42 1_555 1_555
O30_43 Se3_43 1_555 1_555
Se3_43 O31_43 1_555 1_555
O32_43 Se3_43 1_555 1_555
O33_43 Se3_43 1_555 1_555
O30_44 Se3_44 1_555 1_555
Se3_44 O31_44 1_555 1_555
O32_44 Se3_44 1_555 1_555
O33_44 Se3_44 1_555 1_555
O30_45 Se3_45 1_555 1_555
Se3_45 O31_45 1_555 1_555
O32_45 Se3_45 1_555 1_555
O33_45 Se3_45 1_555 1_555
O30_46 Se3_46 1_555 1_555
Se3_46 O31_46 1_555 1_555
O32_46 Se3_46 1_555 1_555
O33_46 Se3_46 1_555 1_555
O30_47 Se3_47 1_555 1_555
Se3_47 O31_47 1_555 1_555
O32_47 Se3_47 1_555 1_555
O33_47 Se3_47 1_555 1_555
O30_48 Se3_48 1_555 1_555
Se3_48 O31_48 1_555 1_555
O32_48 Se3_48 1_555 1_555
O33_48 Se3_48 1_555 1_555
O30_49 Se3_49 1_555 1_555
Se3_49 O31_49 1_555 1_555
O32_49 Se3_49 1_555 1_555
O33_49 Se3_49 1_555 1_555
O30_50 Se3_50 1_555 1_555
Se3_50 O31_50 1_555 1_555
O32_50 Se3_50 1_555 1_555
O33_50 Se3_50 1_555 1_555
O30_51 Se3_51 1_555 1_555
Se3_51 O31_51 1_555 1_555
O32_51 Se3_51 1_555 1_555
O33_51 Se3_51 1_555 1_555
O30_52 Se3_52 1_555 1_555
Se3_52 O31_52 1_555 1_555
O32_52 Se3_52 1_555 1_555
O33_52 Se3_52 1_555 1_555
O30_53 Se3_53 1_555 1_555
Se3_53 O31_53 1_555 1_555
O32_53 Se3_53 1_555 1_555
O33_53 Se3_53 1_555 1_555
O30_54 Se3_54 1_555 1_555
Se3_54 O31_54 1_555 1_555
O32_54 Se3_54 1_555 1_555
O33_54 Se3_54 1_555 1_555
O30_55 Se3_55 1_555 1_555
Se3_55 O31_55 1_555 1_555
O32_55 Se3_55 1_555 1_555
O33_55 Se3_55 1_555 1_555
O30_56 Se3_56 1_555 1_555
Se3_56 O31_56 1_555 1_555
O32_56 Se3_56 1_555 1_555
O33_56 Se3_56 1_555 1_555
O30_57 Se3_57 1_555 1_555
Se3_57 O31_57 1_555 1_555
O32_57 Se3_57 1_555 1_555
O33_57 Se3_57 1_555 1_555
O30_58 Se3_58 1_555 1_555
Se3_58 O31_58 1_555 1_555
O32_58 Se3_58 1_555 1_555
O33_58 Se3_58 1_555 1_555
O30_59 Se3_59 1_555 1_555
Se3_59 O31_59 1_555 1_555
O32_59 Se3_59 1_555 1_555
O33_59 Se3_59 1_555 1_555
O30_60 Se3_60 1_555 1_555
Se3_60 O31_60 1_555 1_555
O32_60 Se3_60 1_555 1_555
O33_60 Se3_60 1_555 1_555
O30_61 Se3_61 1_555 1_555
Se3_61 O31_61 1_555 1_555
O32_61 Se3_61 1_555 1_555
O33_61 Se3_61 1_555 1_555
O30_62 Se3_62 1_555 1_555
Se3_62 O31_62 1_555 1_555
O32_62 Se3_62 1_555 1_555
O33_62 Se3_62 1_555 1_555
O30_63 Se3_63 1_555 1_555
Se3_63 O31_63 1_555 1_555
O32_63 Se3_63 1_555 1_555
O33_63 Se3_63 1_555 1_555
O30_64 Se3_64 1_555 1_555
Se3_64 O31_64 1_555 1_555
O32_64 Se3_64 1_555 1_555
O33_64 Se3_64 1_555 1_555
O30_65 Se3_65 1_555 1_555
Se3_65 O31_65 1_555 1_555
O32_65 Se3_65 1_555 1_555
O33_65 Se3_65 1_555 1_555
O30_66 Se3_66 1_555 1_555
Se3_66 O31_66 1_555 1_555
O32_66 Se3_66 1_555 1_555
O33_66 Se3_66 1_555 1_555
O30_67 Se3_67 1_555 1_555
Se3_67 O31_67 1_555 1_555
O32_67 Se3_67 1_555 1_555
O33_67 Se3_67 1_555 1_555
O30_68 Se3_68 1_555 1_555
Se3_68 O31_68 1_555 1_555
O32_68 Se3_68 1_555 1_555
O33_68 Se3_68 1_555 1_555
O30_69 Se3_69 1_555 1_555
Se3_69 O31_69 1_555 1_555
O32_69 Se3_69 1_555 1_555
O33_69 Se3_69 1_555 1_555
O30_70 Se3_70 1_555 1_555
Se3_70 O31_70 1_555 1_555
O32_70 Se3_70 1_555 1_555
O33_70 Se3_70 1_555 1_555
O30_71 Se3_71 1_555 1_555
Se3_71 O31_71 1_555 1_555
O32_71 Se3_71 1_555 1_555
O33_71 Se3_71 1_555 1_555
O30_72 Se3_72 1_555 1_555
Se3_72 O31_72 1_555 1_555
O32_72 Se3_72 1_555 1_555
O33_72 Se3_72 1_555 1_555
O30_73 Se3_73 1_555 1_555
Se3_73 O31_73 1_555 1_555
O32_73 Se3_73 1_555 1_555
O33_73 Se3_73 1_555 1_555
O30_74 Se3_74 1_555 1_555
Se3_74 O31_74 1_555 1_555
O32_74 Se3_74 1_555 1_555
O33_74 Se3_74 1_555 1_555
O30_75 Se3_75 1_555 1_555
Se3_75 O31_75 1_555 1_555
O32_75 Se3_75 1_555 1_555
O33_75 Se3_75 1_555 1_555
O30_76 Se3_76 1_555 1_555
Se3_76 O31_76 1_555 1_555
O32_76 Se3_76 1_555 1_555
O33_76 Se3_76 1_555 1_555
O30_77 Se3_77 1_555 1_555
Se3_77 O31_77 1_555 1_555
O32_77 Se3_77 1_555 1_555
O33_77 Se3_77 1_555 1_555
O30_78 Se3_78 1_555 1_555
Se3_78 O31_78 1_555 1_555
O32_78 Se3_78 1_555 1_555
O33_78 Se3_78 1_555 1_555
O30_79 Se3_79 1_555 1_555
Se3_79 O31_79 1_555 1_555
O32_79 Se3_79 1_555 1_555
O33_79 Se3_79 1_555 1_555
O30_80 Se3_80 1_555 1_555
Se3_80 O31_80 1_555 1_555
O32_80 Se3_80 1_555 1_555
O33_80 Se3_80 1_555 1_555
O30_81 Se3_81 1_555 1_555
Se3_81 O31_81 1_555 1_555
O32_81 Se3_81 1_555 1_555
O33_81 Se3_81 1_555 1_555
O30_82 Se3_82 1_555 1_555
Se3_82 O31_82 1_555 1_555
O32_82 Se3_82 1_555 1_555
O33_82 Se3_82 1_555 1_555
O30_83 Se3_83 1_555 1_555
Se3_83 O31_83 1_555 1_555
O32_83 Se3_83 1_555 1_555
O33_83 Se3_83 1_555 1_555
O30_84 Se3_84 1_555 1_555
Se3_84 O31_84 1_555 1_555
O32_84 Se3_84 1_555 1_555
O33_84 Se3_84 1_555 1_555
O30_85 Se3_85 1_555 1_555
Se3_85 O31_85 1_555 1_555
O32_85 Se3_85 1_555 1_555
O33_85 Se3_85 1_555 1_555
O30_86 Se3_86 1_555 1_555
Se3_86 O31_86 1_555 1_555
O32_86 Se3_86 1_555 1_555
O33_86 Se3_86 1_555 1_555
O30_87 Se3_87 1_555 1_555
Se3_87 O31_87 1_555 1_555
O32_87 Se3_87 1_555 1_555
O33_87 Se3_87 1_555 1_555
O30_88 Se3_88 1_555 1_555
Se3_88 O31_88 1_555 1_555
O32_88 Se3_88 1_555 1_555
O33_88 Se3_88 1_555 1_555
O30_89 Se3_89 1_555 1_555
Se3_89 O31_89 1_555 1_555
O32_89 Se3_89 1_555 1_555
O33_89 Se3_89 1_555 1_555
O30_90 Se3_90 1_555 1_555
Se3_90 O31_90 1_555 1_555
O32_90 Se3_90 1_555 1_555
O33_90 Se3_90 1_555 1_555
O30_91 Se3_91 1_555 1_555
Se3_91 O31_91 1_555 1_555
O32_91 Se3_91 1_555 1_555
O33_91 Se3_91 1_555 1_555
O30_92 Se3_92 1_555 1_555
Se3_92 O31_92 1_555 1_555
O32_92 Se3_92 1_555 1_555
O33_92 Se3_92 1_555 1_555
O30_93 Se3_93 1_555 1_555
Se3_93 O31_93 1_555 1_555
O32_93 Se3_93 1_555 1_555
O33_93 Se3_93 1_555 1_555
O30_94 Se3_94 1_555 1_555
Se3_94 O31_94 1_555 1_555
O32_94 Se3_94 1_555 1_555
O33_94 Se3_94 1_555 1_555
O30_95 Se3_95 1_555 1_555
Se3_95 O31_95 1_555 1_555
O32_95 Se3_95 1_555 1_555
O33_95 Se3_95 1_555 1_555
O30_96 Se3_96 1_555 1_555
Se3_96 O31_96 1_555 1_555
O32_96 Se3_96 1_555 1_555
O33_96 Se3_96 1_555 1_555

#END
