
###############################################################################
#
# This file contains modified crystal structure data generated from the
# MOF subset of the Cambridge Structural Database (CSD) v543 
# hosted by the Cambridge Crystallographic Data Centre (CCDC).
#
# This work is licensed under the Creative Commons
# Attribution-NonCommercial-ShareAlike 4.0 International License.
# To view a copy of this license, visit
# http://creativecommons.org/licenses/by-nc-sa/4.0/
# or send a letter to
# Creative Commons, PO Box 1866, Mountain View, CA 94042, USA.
#
# CIF created using the CSD Python API on 29 September 2022
# The structure has been converted into the P1 space group
# The structure has a 3D framework
# The original CSD entry IFAGII is in the cubic crystal system
# The framework has been calculated to contain at least 10.0% void space
# The void calculation uses a probe of radius 1.32A, grid spacing 0.4
# The framework is charged, counterions have been retained in the structure
#
###############################################################################

data_IFAGII
_chemical_formula_moiety         '(C288 H96 Hf68 O1125 Se288 576-)n'
_symmetry_cell_setting           triclinic
_symmetry_space_group_name_H-M   'P 1'
_symmetry_Int_Tables_number      1
_space_group_name_Hall           'P 1'
loop_
_symmetry_equiv_pos_site_id
_symmetry_equiv_pos_as_xyz
1 x,y,z
_cell_length_a                   35.286(9)
_cell_length_b                   35.286(9)
_cell_length_c                   35.286(9)
_cell_angle_alpha                90
_cell_angle_beta                 90
_cell_angle_gamma                90
_cell_volume                     43934.7
loop_
_atom_site_label
_atom_site_type_symbol
_atom_site_fract_x
_atom_site_fract_y
_atom_site_fract_z
Hf1 Hf 0.77234(3) 0.54687(2) 0.70313(2)
O1 O 0.7457(2) 0.5500(2) 0.6466(2)
O2 O 0.7178(5) 0.5322(5) 0.7178(5)
O3 O 0.7629(3) 0.4871(3) 0.6891(5)
C1 C 0.7164(4) 0.5336(4) 0.6337(6)
C2 C 0.7010(4) 0.5490(4) 0.5976(6)
C3 C 0.6685(4) 0.5330(5) 0.5815(4)
H1 H 0.657481 0.511479 0.592517
O4 O 0.8109(5) 0.5129(3) 0.7371(3)
O5 O 0.7457(2) 0.6034(2) 0.7000(2)
O6 O 0.7629(3) 0.5609(5) 0.7629(3)
Hf2 Hf 0.70313(2) 0.47766(3) 0.70313(2)
Hf3 Hf 0.70313(2) 0.54687(2) 0.77234(3)
Hf4 Hf 0.79687(2) 0.45313(2) 0.72766(3)
Hf5 Hf 0.79687(2) 0.52234(3) 0.79687(2)
O7 O 0.7000(2) 0.5043(2) 0.6466(2)
O8 O 0.7371(3) 0.4391(5) 0.7371(3)
O9 O 0.8000(2) 0.3966(2) 0.7543(2)
O10 O 0.8534(2) 0.4500(2) 0.7543(2)
O11 O 0.7822(5) 0.4678(5) 0.7822(5)
C4 C 0.7170(5) 0.5815(4) 0.5815(4)
C5 C 0.6524(6) 0.5490(4) 0.5490(4)
C6 C 0.7010(4) 0.5976(6) 0.5490(4)
H2 H 0.738521 0.592517 0.592519
C7 C 0.6163(6) 0.5336(4) 0.5336(4)
C8 C 0.6685(4) 0.5815(4) 0.5330(5)
C9 C 0.7164(4) 0.6337(6) 0.5336(4)
O12 O 0.6034(2) 0.5500(2) 0.5043(2)
O13 O 0.6034(2) 0.5043(2) 0.5500(2)
H3 H 0.657481 0.592517 0.511479
O14 O 0.7000(2) 0.6466(2) 0.5043(2)
O15 O 0.7457(2) 0.6466(2) 0.5500(2)
O16 O 0.7457(2) 0.7000(2) 0.6034(2)
Hf6 Hf 0.54687(2) 0.54687(2) 0.47766(3)
Hf7 Hf 0.54687(2) 0.47766(3) 0.54687(2)
Hf8 Hf 0.70313(2) 0.70313(2) 0.47766(3)
Hf9 Hf 0.77234(3) 0.70313(2) 0.54687(2)
O17 O 0.7629(3) 0.6891(5) 0.4871(3)
O18 O 0.7178(5) 0.7178(5) 0.5322(5)
O19 O 0.7629(3) 0.7629(3) 0.5609(5)
O20 O 0.8109(5) 0.7371(3) 0.5129(3)
Hf10 Hf 0.79687(2) 0.72766(3) 0.45313(2)
O19_2 O 0.0129(3) 0.0129(3) 0.4391(5)
Hf1_2 Hf 0.79687(2) 0.02234(3) 0.29687(2)
O3_2 O 0.7371(3) 0.0129(3) 0.3109(5)
O4_2 O 0.7629(3) 0.0609(5) 0.2629(3)
O6_2 O 0.8109(5) 0.0129(3) 0.2371(3)
Hf4_2 Hf 0.70313(2) 0.04687(2) 0.27234(3)
Hf5_2 Hf 0.77234(3) 0.04687(2) 0.20313(2)
O9_2 O 0.6466(2) 0.0500(2) 0.2457(2)
O10_2 O 0.7000(2) 0.1034(2) 0.2457(2)
O11_2 O 0.7178(5) 0.0322(5) 0.2178(5)
Hf9_2 Hf 0.95313(2) 0.02234(3) 0.45313(2)
O17_2 O 0.9391(5) 0.0129(3) 0.5129(3)
O20_2 O 0.9871(3) 0.0609(5) 0.4871(3)
Hf10_2 Hf 0.97766(3) 0.04687(2) 0.54687(2)
O1_2 O 0.8000(2) 0.9957(2) 0.3534(2)
O2_2 O 0.7822(5) 0.9678(5) 0.2822(5)
C1_2 C 0.7836(4) 0.9664(4) 0.3663(6)
C2_2 C 0.7990(4) 0.9510(4) 0.4024(6)
C3_2 C 0.7830(5) 0.9185(4) 0.4185(4)
H1_2 H 0.761479 0.907481 0.407483
O5_2 O 0.8534(2) 0.9957(2) 0.3000(2)
Hf2_2 Hf 0.72766(3) 0.95313(2) 0.29687(2)
Hf3_2 Hf 0.79687(2) 0.95313(2) 0.22766(3)
O7_2 O 0.7543(2) 0.9500(2) 0.3534(2)
O8_2 O 0.6891(5) 0.9871(3) 0.2629(3)
C4_2 C 0.8315(4) 0.9670(5) 0.4185(4)
C5_2 C 0.7990(4) 0.9024(6) 0.4510(4)
C6_2 C 0.8476(6) 0.9510(4) 0.4510(4)
H2_2 H 0.842517 0.988521 0.407481
C7_2 C 0.7836(4) 0.8663(6) 0.4664(4)
C8_2 C 0.8315(4) 0.9185(4) 0.4670(5)
C9_2 C 0.8837(6) 0.9664(4) 0.4664(4)
O12_2 O 0.8000(2) 0.8534(2) 0.4957(2)
O13_2 O 0.7543(2) 0.8534(2) 0.4500(2)
H3_2 H 0.842517 0.907481 0.488521
O14_2 O 0.8966(2) 0.9500(2) 0.4957(2)
O15_2 O 0.8966(2) 0.9957(2) 0.4500(2)
O16_2 O 0.9500(2) 0.9957(2) 0.3966(2)
Hf6_2 Hf 0.79687(2) 0.79687(2) 0.52234(3)
Hf7_2 Hf 0.72766(3) 0.79687(2) 0.45313(2)
Hf8_2 Hf 0.95313(2) 0.95313(2) 0.52234(3)
O18_2 O 0.9678(5) 0.9678(5) 0.4678(5)
O19_3 O 0.0129(3) 0.4391(5) 0.0129(3)
Hf1_3 Hf 0.02234(3) 0.29687(2) 0.79687(2)
O3_3 O 0.0129(3) 0.3109(5) 0.7371(3)
O4_3 O 0.0609(5) 0.2629(3) 0.7629(3)
O6_3 O 0.0129(3) 0.2371(3) 0.8109(5)
Hf4_3 Hf 0.04687(2) 0.27234(3) 0.70313(2)
Hf5_3 Hf 0.04687(2) 0.20313(2) 0.77234(3)
O9_3 O 0.0500(2) 0.2457(2) 0.6466(2)
O10_3 O 0.1034(2) 0.2457(2) 0.7000(2)
O11_3 O 0.0322(5) 0.2178(5) 0.7178(5)
Hf9_3 Hf 0.02234(3) 0.45313(2) 0.95313(2)
O17_3 O 0.0129(3) 0.5129(3) 0.9391(5)
O20_3 O 0.0609(5) 0.4871(3) 0.9871(3)
Hf10_3 Hf 0.04687(2) 0.54687(2) 0.97766(3)
O1_3 O 0.9957(2) 0.3534(2) 0.8000(2)
O2_3 O 0.9678(5) 0.2822(5) 0.7822(5)
C1_3 C 0.9664(4) 0.3663(6) 0.7836(4)
C2_3 C 0.9510(4) 0.4024(6) 0.7990(4)
C3_3 C 0.9185(4) 0.4185(4) 0.7830(5)
H1_3 H 0.907481 0.407483 0.761479
O5_3 O 0.9957(2) 0.3000(2) 0.8534(2)
Hf2_3 Hf 0.95313(2) 0.29687(2) 0.72766(3)
Hf3_3 Hf 0.95313(2) 0.22766(3) 0.79687(2)
O7_3 O 0.9500(2) 0.3534(2) 0.7543(2)
O8_3 O 0.9871(3) 0.2629(3) 0.6891(5)
C4_3 C 0.9670(5) 0.4185(4) 0.8315(4)
C5_3 C 0.9024(6) 0.4510(4) 0.7990(4)
C6_3 C 0.9510(4) 0.4510(4) 0.8476(6)
H2_3 H 0.988521 0.407481 0.842517
C7_3 C 0.8663(6) 0.4664(4) 0.7836(4)
C8_3 C 0.9185(4) 0.4670(5) 0.8315(4)
C9_3 C 0.9664(4) 0.4664(4) 0.8837(6)
O12_3 O 0.8534(2) 0.4957(2) 0.8000(2)
H3_3 H 0.907481 0.488521 0.842517
O14_3 O 0.9500(2) 0.4957(2) 0.8966(2)
O15_3 O 0.9957(2) 0.4500(2) 0.8966(2)
O16_3 O 0.9957(2) 0.3966(2) 0.9500(2)
Hf8_3 Hf 0.95313(2) 0.52234(3) 0.95313(2)
O18_3 O 0.9678(5) 0.4678(5) 0.9678(5)
O19_4 O 0.4391(5) 0.0129(3) 0.0129(3)
Hf1_4 Hf 0.29687(2) 0.79687(2) 0.02234(3)
O3_4 O 0.3109(5) 0.7371(3) 0.0129(3)
O4_4 O 0.2629(3) 0.7629(3) 0.0609(5)
O6_4 O 0.2371(3) 0.8109(5) 0.0129(3)
Hf4_4 Hf 0.27234(3) 0.70313(2) 0.04687(2)
Hf5_4 Hf 0.20313(2) 0.77234(3) 0.04687(2)
O9_4 O 0.2457(2) 0.6466(2) 0.0500(2)
O10_4 O 0.2457(2) 0.7000(2) 0.1034(2)
O11_4 O 0.2178(5) 0.7178(5) 0.0322(5)
Hf9_4 Hf 0.45313(2) 0.95313(2) 0.02234(3)
O17_4 O 0.5129(3) 0.9391(5) 0.0129(3)
O20_4 O 0.4871(3) 0.9871(3) 0.0609(5)
Hf10_4 Hf 0.54687(2) 0.97766(3) 0.04687(2)
O1_4 O 0.3534(2) 0.8000(2) 0.9957(2)
O2_4 O 0.2822(5) 0.7822(5) 0.9678(5)
C1_4 C 0.3663(6) 0.7836(4) 0.9664(4)
C2_4 C 0.4024(6) 0.7990(4) 0.9510(4)
C3_4 C 0.4185(4) 0.7830(5) 0.9185(4)
H1_4 H 0.407483 0.761479 0.907481
O5_4 O 0.3000(2) 0.8534(2) 0.9957(2)
Hf2_4 Hf 0.29687(2) 0.72766(3) 0.95313(2)
Hf3_4 Hf 0.22766(3) 0.79687(2) 0.95313(2)
O7_4 O 0.3534(2) 0.7543(2) 0.9500(2)
O8_4 O 0.2629(3) 0.6891(5) 0.9871(3)
C4_4 C 0.4185(4) 0.8315(4) 0.9670(5)
C5_4 C 0.4510(4) 0.7990(4) 0.9024(6)
C6_4 C 0.4510(4) 0.8476(6) 0.9510(4)
H2_4 H 0.407481 0.842517 0.988521
C7_4 C 0.4664(4) 0.7836(4) 0.8663(6)
C8_4 C 0.4670(5) 0.8315(4) 0.9185(4)
C9_4 C 0.4664(4) 0.8837(6) 0.9664(4)
O12_4 O 0.4957(2) 0.8000(2) 0.8534(2)
O13_3 O 0.4500(2) 0.7543(2) 0.8534(2)
H3_4 H 0.488521 0.842517 0.907481
O14_4 O 0.4957(2) 0.8966(2) 0.9500(2)
O15_4 O 0.4500(2) 0.8966(2) 0.9957(2)
O16_4 O 0.3966(2) 0.9500(2) 0.9957(2)
Hf6_3 Hf 0.52234(3) 0.79687(2) 0.79687(2)
Hf7_3 Hf 0.45313(2) 0.72766(3) 0.79687(2)
Hf8_4 Hf 0.52234(3) 0.95313(2) 0.95313(2)
O18_4 O 0.4678(5) 0.9678(5) 0.9678(5)
O6_5 O 0.0129(3) 0.8109(5) 0.2371(3)
Hf3_5 Hf 0.02234(3) 0.79687(2) 0.29687(2)
Hf5_5 Hf 0.04687(2) 0.77234(3) 0.20313(2)
O9_5 O 0.0043(2) 0.6466(2) 0.2000(2)
O10_5 O 0.0043(2) 0.7000(2) 0.1466(2)
O11_5 O 0.0322(5) 0.7178(5) 0.2178(5)
Hf1_5 Hf 0.95313(2) 0.79687(2) 0.22766(3)
O1_5 O 0.8966(2) 0.8000(2) 0.2543(2)
O2_5 O 0.9678(5) 0.7822(5) 0.2822(5)
O3_5 O 0.9391(5) 0.7371(3) 0.2371(3)
C1_5 C 0.8837(6) 0.7836(4) 0.2836(4)
C2_5 C 0.8476(6) 0.7990(4) 0.2990(4)
C3_5 C 0.8315(4) 0.7830(5) 0.3315(4)
H1_5 H 0.842517 0.761479 0.342519
O4_5 O 0.9871(3) 0.7629(3) 0.1891(5)
O5_5 O 0.9500(2) 0.8534(2) 0.2543(2)
Hf2_5 Hf 0.95313(2) 0.72766(3) 0.29687(2)
Hf4_5 Hf 0.97766(3) 0.70313(2) 0.20313(2)
O7_5 O 0.8966(2) 0.7543(2) 0.3000(2)
O8_5 O 0.9871(3) 0.6891(5) 0.2629(3)
C4_5 C 0.8315(4) 0.8315(4) 0.2830(5)
C5_5 C 0.7990(4) 0.7990(4) 0.3476(6)
C6_5 C 0.7990(4) 0.8476(6) 0.2990(4)
H2_5 H 0.842519 0.842517 0.261479
C7_5 C 0.7836(4) 0.7836(4) 0.3837(6)
C8_5 C 0.7830(5) 0.8315(4) 0.3315(4)
C9_5 C 0.7836(4) 0.8837(6) 0.2836(4)
O12_5 O 0.7543(2) 0.8000(2) 0.3966(2)
O13_4 O 0.8000(2) 0.7543(2) 0.3966(2)
H3_5 H 0.761479 0.842517 0.342519
O14_5 O 0.7543(2) 0.8966(2) 0.3000(2)
O15_5 O 0.8000(2) 0.8966(2) 0.2543(2)
O16_5 O 0.8534(2) 0.9500(2) 0.2543(2)
O17_5 O 0.7371(3) 0.9391(5) 0.2371(3)
O20_5 O 0.7629(3) 0.9871(3) 0.1891(5)
Hf10_5 Hf 0.70313(2) 0.97766(3) 0.20313(2)
Hf1_6 Hf 0.54687(2) 0.77234(3) 0.70313(2)
O1_6 O 0.6034(2) 0.7457(2) 0.7000(2)
O2_6 O 0.5322(5) 0.7178(5) 0.7178(5)
O3_6 O 0.5609(5) 0.7629(3) 0.7629(3)
C1_6 C 0.6163(6) 0.7164(4) 0.7164(4)
C2_6 C 0.6524(6) 0.7010(4) 0.7010(4)
C3_6 C 0.6685(4) 0.6685(4) 0.7170(5)
H1_6 H 0.657483 0.657481 0.738521
O4_6 O 0.5129(3) 0.8109(5) 0.7371(3)
O5_6 O 0.5500(2) 0.7457(2) 0.6466(2)
O6_6 O 0.4871(3) 0.7629(3) 0.6891(5)
Hf2_6 Hf 0.54687(2) 0.70313(2) 0.77234(3)
Hf3_6 Hf 0.47766(3) 0.70313(2) 0.70313(2)
Hf5_6 Hf 0.45313(2) 0.79687(2) 0.72766(3)
O7_6 O 0.6034(2) 0.7000(2) 0.7457(2)
O8_6 O 0.5129(3) 0.7371(3) 0.8109(5)
O10_6 O 0.4957(2) 0.8534(2) 0.8000(2)
O11_6 O 0.4678(5) 0.7822(5) 0.7822(5)
C4_6 C 0.6685(4) 0.7170(5) 0.6685(4)
C5_6 C 0.7010(4) 0.6524(6) 0.7010(4)
C6_6 C 0.7010(4) 0.7010(4) 0.6524(6)
H2_6 H 0.657481 0.738521 0.657483
C7_6 C 0.7164(4) 0.6163(6) 0.7164(4)
C8_6 C 0.7170(5) 0.6685(4) 0.6685(4)
C9_6 C 0.7164(4) 0.7164(4) 0.6163(6)
O13_5 O 0.7000(2) 0.6034(2) 0.7457(2)
H3_6 H 0.738521 0.657481 0.657483
O15_6 O 0.7000(2) 0.7457(2) 0.6034(2)
O16_6 O 0.6466(2) 0.7457(2) 0.5500(2)
Hf9_5 Hf 0.70313(2) 0.77234(3) 0.54687(2)
O19_5 O 0.6891(5) 0.7629(3) 0.4871(3)
O20_6 O 0.7371(3) 0.8109(5) 0.5129(3)
Hf5_7 Hf 0.04687(2) 0.04687(2) 0.47766(3)
O9_6 O 0.0500(2) 0.0043(2) 0.6034(2)
O10_7 O 0.1034(2) 0.0043(2) 0.5500(2)
O11_7 O 0.0322(5) 0.0322(5) 0.5322(5)
Hf1_7 Hf 0.02234(3) 0.95313(2) 0.45313(2)
O3_7 O 0.0129(3) 0.9391(5) 0.5129(3)
O4_7 O 0.0609(5) 0.9871(3) 0.4871(3)
Hf4_6 Hf 0.04687(2) 0.97766(3) 0.54687(2)
O17_6 O 0.0129(3) 0.7371(3) 0.3109(5)
O20_7 O 0.0609(5) 0.7629(3) 0.2629(3)
Hf10_6 Hf 0.04687(2) 0.70313(2) 0.27234(3)
O1_7 O 0.9957(2) 0.8966(2) 0.4500(2)
C1_7 C 0.9664(4) 0.8837(6) 0.4664(4)
C2_7 C 0.9510(4) 0.8476(6) 0.4510(4)
C3_7 C 0.9185(4) 0.8315(4) 0.4670(5)
H1_7 H 0.907481 0.842517 0.488521
O5_7 O 0.9957(2) 0.9500(2) 0.3966(2)
O7_7 O 0.9500(2) 0.8966(2) 0.4957(2)
O8_7 O 0.9871(3) 0.9871(3) 0.5609(5)
C4_7 C 0.9670(5) 0.8315(4) 0.4185(4)
C5_7 C 0.9024(6) 0.7990(4) 0.4510(4)
C6_7 C 0.9510(4) 0.7990(4) 0.4024(6)
H2_7 H 0.988521 0.842519 0.407483
C7_7 C 0.8663(6) 0.7836(4) 0.4664(4)
C8_7 C 0.9185(4) 0.7830(5) 0.4185(4)
C9_7 C 0.9664(4) 0.7836(4) 0.3663(6)
O12_6 O 0.8534(2) 0.7543(2) 0.4500(2)
O13_6 O 0.8534(2) 0.8000(2) 0.4957(2)
H3_7 H 0.907481 0.761479 0.407483
O14_6 O 0.9500(2) 0.7543(2) 0.3534(2)
O15_7 O 0.9957(2) 0.8000(2) 0.3534(2)
O16_7 O 0.9957(2) 0.8534(2) 0.3000(2)
O1_8 O 0.5500(2) 0.6034(2) 0.5043(2)
O2_7 O 0.5322(5) 0.5322(5) 0.5322(5)
O3_8 O 0.4871(3) 0.5609(5) 0.4871(3)
C1_8 C 0.5336(4) 0.6163(6) 0.5336(4)
C2_8 C 0.5490(4) 0.6524(6) 0.5490(4)
C3_8 C 0.5330(5) 0.6685(4) 0.5815(4)
H1_8 H 0.511479 0.657483 0.592519
O4_8 O 0.5129(3) 0.5129(3) 0.4391(5)
O6_7 O 0.5609(5) 0.4871(3) 0.4871(3)
Hf2_7 Hf 0.47766(3) 0.54687(2) 0.54687(2)
Hf4_7 Hf 0.45313(2) 0.52234(3) 0.45313(2)
Hf5_8 Hf 0.52234(3) 0.45313(2) 0.45313(2)
O7_8 O 0.5043(2) 0.6034(2) 0.5500(2)
O8_8 O 0.4391(5) 0.5129(3) 0.5129(3)
O9_7 O 0.3966(2) 0.4957(2) 0.4500(2)
O10_8 O 0.4500(2) 0.4957(2) 0.3966(2)
O11_8 O 0.4678(5) 0.4678(5) 0.4678(5)
C4_8 C 0.5815(4) 0.6685(4) 0.5330(5)
C5_8 C 0.5490(4) 0.7010(4) 0.5976(6)
C6_8 C 0.5976(6) 0.7010(4) 0.5490(4)
H2_8 H 0.592517 0.657481 0.511479
C7_8 C 0.5336(4) 0.7164(4) 0.6337(6)
C8_8 C 0.5815(4) 0.7170(5) 0.5815(4)
C9_8 C 0.6337(6) 0.7164(4) 0.5336(4)
O13_7 O 0.5043(2) 0.7000(2) 0.6466(2)
H3_8 H 0.592517 0.738521 0.592519
O15_8 O 0.6466(2) 0.7000(2) 0.5043(2)
O20_8 O 0.7371(3) 0.7371(3) 0.4391(5)
O6_8 O 0.8109(5) 0.2371(3) 0.0129(3)
Hf3_7 Hf 0.79687(2) 0.29687(2) 0.02234(3)
Hf5_9 Hf 0.77234(3) 0.20313(2) 0.04687(2)
O9_8 O 0.6466(2) 0.2000(2) 0.0043(2)
O10_9 O 0.7000(2) 0.1466(2) 0.0043(2)
O11_9 O 0.7178(5) 0.2178(5) 0.0322(5)
Hf1_8 Hf 0.79687(2) 0.22766(3) 0.95313(2)
O1_9 O 0.8000(2) 0.2543(2) 0.8966(2)
O2_8 O 0.7822(5) 0.2822(5) 0.9678(5)
O3_9 O 0.7371(3) 0.2371(3) 0.9391(5)
C1_9 C 0.7836(4) 0.2836(4) 0.8837(6)
C2_9 C 0.7990(4) 0.2990(4) 0.8476(6)
C3_9 C 0.7830(5) 0.3315(4) 0.8315(4)
H1_9 H 0.761479 0.342519 0.842517
O4_9 O 0.7629(3) 0.1891(5) 0.9871(3)
O5_8 O 0.8534(2) 0.2543(2) 0.9500(2)
Hf2_8 Hf 0.72766(3) 0.29687(2) 0.95313(2)
Hf4_8 Hf 0.70313(2) 0.20313(2) 0.97766(3)
O7_9 O 0.7543(2) 0.3000(2) 0.8966(2)
O8_9 O 0.6891(5) 0.2629(3) 0.9871(3)
C4_9 C 0.8315(4) 0.2830(5) 0.8315(4)
C5_9 C 0.7990(4) 0.3476(6) 0.7990(4)
C6_9 C 0.8476(6) 0.2990(4) 0.7990(4)
H2_9 H 0.842517 0.261479 0.842519
C7_9 C 0.7836(4) 0.3837(6) 0.7836(4)
C8_9 C 0.8315(4) 0.3315(4) 0.7830(5)
C9_9 C 0.8837(6) 0.2836(4) 0.7836(4)
O13_8 O 0.7543(2) 0.3966(2) 0.8000(2)
H3_9 H 0.842517 0.342519 0.761479
O14_7 O 0.8966(2) 0.3000(2) 0.7543(2)
O15_9 O 0.8966(2) 0.2543(2) 0.8000(2)
O16_8 O 0.9500(2) 0.2543(2) 0.8534(2)
Hf7_4 Hf 0.72766(3) 0.45313(2) 0.79687(2)
O17_7 O 0.9391(5) 0.2371(3) 0.7371(3)
O20_9 O 0.9871(3) 0.1891(5) 0.7629(3)
Hf10_7 Hf 0.97766(3) 0.20313(2) 0.70313(2)
O11_10 O 0.7822(5) 0.7822(5) 0.4678(5)
O4_10 O 0.4391(5) 0.7371(3) 0.7371(3)
O5_9 O 0.5043(2) 0.6466(2) 0.7000(2)
O6_9 O 0.4871(3) 0.6891(5) 0.7629(3)
O9_9 O 0.4500(2) 0.8534(2) 0.7543(2)
O10_10 O 0.3966(2) 0.8000(2) 0.7543(2)
O16_9 O 0.5043(2) 0.5500(2) 0.6034(2)
O19_6 O 0.4871(3) 0.4871(3) 0.5609(5)
Hf1_9 Hf 0.45313(2) 0.22766(3) 0.29687(2)
O1_10 O 0.4500(2) 0.2543(2) 0.3534(2)
O2_9 O 0.4678(5) 0.2822(5) 0.2822(5)
O3_10 O 0.5129(3) 0.2371(3) 0.3109(5)
C1_10 C 0.4664(4) 0.2836(4) 0.3663(6)
C2_10 C 0.4510(4) 0.2990(4) 0.4024(6)
C3_10 C 0.4670(5) 0.3315(4) 0.4185(4)
H1_10 H 0.488521 0.342519 0.407483
O4_11 O 0.4871(3) 0.1891(5) 0.2629(3)
O5_10 O 0.3966(2) 0.2543(2) 0.3000(2)
O6_10 O 0.4391(5) 0.2371(3) 0.2371(3)
Hf2_9 Hf 0.52234(3) 0.29687(2) 0.29687(2)
Hf3_8 Hf 0.45313(2) 0.29687(2) 0.22766(3)
Hf4_9 Hf 0.54687(2) 0.20313(2) 0.27234(3)
Hf5_10 Hf 0.47766(3) 0.20313(2) 0.20313(2)
O7_10 O 0.4957(2) 0.3000(2) 0.3534(2)
O8_10 O 0.5609(5) 0.2629(3) 0.2629(3)
O9_10 O 0.6034(2) 0.2000(2) 0.2457(2)
O10_11 O 0.5500(2) 0.1466(2) 0.2457(2)
O11_11 O 0.5322(5) 0.2178(5) 0.2178(5)
C4_10 C 0.4185(4) 0.2830(5) 0.4185(4)
C5_10 C 0.4510(4) 0.3476(6) 0.4510(4)
C6_10 C 0.4024(6) 0.2990(4) 0.4510(4)
H2_10 H 0.407483 0.261479 0.407481
C7_10 C 0.4664(4) 0.3837(6) 0.4664(4)
C8_10 C 0.4185(4) 0.3315(4) 0.4670(5)
C9_10 C 0.3663(6) 0.2836(4) 0.4664(4)
O12_7 O 0.4500(2) 0.3966(2) 0.4957(2)
O13_9 O 0.4957(2) 0.3966(2) 0.4500(2)
H3_10 H 0.407483 0.342519 0.488521
O14_8 O 0.3534(2) 0.3000(2) 0.4957(2)
O15_10 O 0.3534(2) 0.2543(2) 0.4500(2)
O16_10 O 0.3000(2) 0.2543(2) 0.3966(2)
Hf6_4 Hf 0.45313(2) 0.45313(2) 0.52234(3)
Hf8_5 Hf 0.29687(2) 0.29687(2) 0.52234(3)
Hf9_6 Hf 0.29687(2) 0.22766(3) 0.45313(2)
O17_8 O 0.3109(5) 0.2371(3) 0.5129(3)
O18_5 O 0.2822(5) 0.2822(5) 0.4678(5)
O19_7 O 0.2371(3) 0.2371(3) 0.4391(5)
O20_10 O 0.2629(3) 0.1891(5) 0.4871(3)
Hf10_8 Hf 0.27234(3) 0.20313(2) 0.54687(2)
Hf1_10 Hf 0.29687(2) 0.45313(2) 0.22766(3)
O1_11 O 0.3534(2) 0.4500(2) 0.2543(2)
O2_10 O 0.2822(5) 0.4678(5) 0.2822(5)
O3_11 O 0.3109(5) 0.5129(3) 0.2371(3)
C1_11 C 0.3663(6) 0.4664(4) 0.2836(4)
C2_11 C 0.4024(6) 0.4510(4) 0.2990(4)
C3_11 C 0.4185(4) 0.4670(5) 0.3315(4)
H1_11 H 0.407483 0.488521 0.342519
O4_12 O 0.2629(3) 0.4871(3) 0.1891(5)
O5_11 O 0.3000(2) 0.3966(2) 0.2543(2)
O6_11 O 0.2371(3) 0.4391(5) 0.2371(3)
Hf2_10 Hf 0.29687(2) 0.52234(3) 0.29687(2)
Hf3_9 Hf 0.22766(3) 0.45313(2) 0.29687(2)
Hf4_10 Hf 0.27234(3) 0.54687(2) 0.20313(2)
Hf5_11 Hf 0.20313(2) 0.47766(3) 0.20313(2)
O7_11 O 0.3534(2) 0.4957(2) 0.3000(2)
O8_11 O 0.2629(3) 0.5609(5) 0.2629(3)
O9_11 O 0.2457(2) 0.6034(2) 0.2000(2)
O10_12 O 0.2457(2) 0.5500(2) 0.1466(2)
O11_12 O 0.2178(5) 0.5322(5) 0.2178(5)
C4_11 C 0.4185(4) 0.4185(4) 0.2830(5)
C5_11 C 0.4510(4) 0.4510(4) 0.3476(6)
C6_11 C 0.4510(4) 0.4024(6) 0.2990(4)
H2_11 H 0.407481 0.407483 0.261479
C7_11 C 0.4664(4) 0.4664(4) 0.3837(6)
C8_11 C 0.4670(5) 0.4185(4) 0.3315(4)
C9_11 C 0.4664(4) 0.3663(6) 0.2836(4)
O12_8 O 0.4957(2) 0.4500(2) 0.3966(2)
H3_11 H 0.488521 0.407483 0.342519
O14_9 O 0.4957(2) 0.3534(2) 0.3000(2)
O15_11 O 0.4500(2) 0.3534(2) 0.2543(2)
O16_11 O 0.3966(2) 0.3000(2) 0.2543(2)
O17_9 O 0.5129(3) 0.3109(5) 0.2371(3)
O20_11 O 0.4871(3) 0.2629(3) 0.1891(5)
Hf10_9 Hf 0.54687(2) 0.27234(3) 0.20313(2)
O1_12 O 0.6466(2) 0.5043(2) 0.7000(2)
O3_12 O 0.6891(5) 0.4871(3) 0.7629(3)
C1_12 C 0.6337(6) 0.5336(4) 0.7164(4)
C2_12 C 0.5976(6) 0.5490(4) 0.7010(4)
C3_12 C 0.5815(4) 0.5815(4) 0.7170(5)
H1_12 H 0.592517 0.592519 0.738521
O7_12 O 0.6466(2) 0.5500(2) 0.7457(2)
O8_12 O 0.7371(3) 0.5129(3) 0.8109(5)
O9_12 O 0.7543(2) 0.4500(2) 0.8534(2)
C4_12 C 0.5815(4) 0.5330(5) 0.6685(4)
C5_12 C 0.5490(4) 0.5976(6) 0.7010(4)
C6_12 C 0.5490(4) 0.5490(4) 0.6524(6)
H2_12 H 0.592519 0.511479 0.657483
C7_12 C 0.5336(4) 0.6337(6) 0.7164(4)
C8_12 C 0.5330(5) 0.5815(4) 0.6685(4)
C9_12 C 0.5336(4) 0.5336(4) 0.6163(6)
O13_10 O 0.5500(2) 0.6466(2) 0.7457(2)
H3_12 H 0.511479 0.592519 0.657483
O15_12 O 0.5500(2) 0.5043(2) 0.6034(2)
O20_12 O 0.5129(3) 0.4391(5) 0.5129(3)
O1_13 O 0.7457(2) 0.0500(2) 0.1466(2)
C1_13 C 0.7164(4) 0.0336(4) 0.1337(6)
C2_13 C 0.7010(4) 0.0490(4) 0.0976(6)
C3_13 C 0.6685(4) 0.0330(5) 0.0815(4)
H1_13 H 0.657481 0.011479 0.092517
O5_12 O 0.7457(2) 0.1034(2) 0.2000(2)
O7_13 O 0.7000(2) 0.0043(2) 0.1466(2)
C4_13 C 0.7170(5) 0.0815(4) 0.0815(4)
C5_13 C 0.6524(6) 0.0490(4) 0.0490(4)
C6_13 C 0.7010(4) 0.0976(6) 0.0490(4)
H2_13 H 0.738521 0.092517 0.092519
C7_13 C 0.6163(6) 0.0336(4) 0.0336(4)
C8_13 C 0.6685(4) 0.0815(4) 0.0330(5)
C9_13 C 0.7164(4) 0.1337(6) 0.0336(4)
O12_9 O 0.6034(2) 0.0500(2) 0.0043(2)
O13_11 O 0.6034(2) 0.0043(2) 0.0500(2)
H3_13 H 0.657481 0.092517 0.011479
O15_13 O 0.7457(2) 0.1466(2) 0.0500(2)
O16_12 O 0.7457(2) 0.2000(2) 0.1034(2)
O19_8 O 0.7629(3) 0.2629(3) 0.0609(5)
Hf6_5 Hf 0.54687(2) 0.04687(2) 0.97766(3)
Hf8_6 Hf 0.95313(2) 0.45313(2) 0.02234(3)
O17_10 O 0.9391(5) 0.5129(3) 0.0129(3)
Hf10_10 Hf 0.97766(3) 0.54687(2) 0.04687(2)
O1_14 O 0.8000(2) 0.4957(2) 0.8534(2)
C1_14 C 0.7836(4) 0.4664(4) 0.8663(6)
C2_14 C 0.7990(4) 0.4510(4) 0.9024(6)
C3_14 C 0.7830(5) 0.4185(4) 0.9185(4)
H1_14 H 0.761479 0.407481 0.907483
C4_14 C 0.8315(4) 0.4670(5) 0.9185(4)
C5_14 C 0.7990(4) 0.4024(6) 0.9510(4)
C6_14 C 0.8476(6) 0.4510(4) 0.9510(4)
H2_14 H 0.842517 0.488521 0.907481
C7_14 C 0.7836(4) 0.3663(6) 0.9664(4)
C8_14 C 0.8315(4) 0.4185(4) 0.9670(5)
C9_14 C 0.8837(6) 0.4664(4) 0.9664(4)
O12_10 O 0.8000(2) 0.3534(2) 0.9957(2)
O13_12 O 0.7543(2) 0.3534(2) 0.9500(2)
H3_14 H 0.842517 0.407481 0.988521
O14_10 O 0.8966(2) 0.4500(2) 0.9957(2)
O15_14 O 0.8966(2) 0.4957(2) 0.9500(2)
O20_13 O 0.9871(3) 0.5609(5) 0.9871(3)
O9_13 O 0.0500(2) 0.7457(2) 0.1466(2)
O10_13 O 0.1034(2) 0.7457(2) 0.2000(2)
C1_15 C 0.9664(4) 0.8663(6) 0.2836(4)
C2_15 C 0.9510(4) 0.9024(6) 0.2990(4)
C3_15 C 0.9185(4) 0.9185(4) 0.2830(5)
H1_15 H 0.907481 0.907483 0.261479
C4_15 C 0.9670(5) 0.9185(4) 0.3315(4)
C5_15 C 0.9024(6) 0.9510(4) 0.2990(4)
C6_15 C 0.9510(4) 0.9510(4) 0.3476(6)
H2_15 H 0.988521 0.907481 0.342517
C7_15 C 0.8663(6) 0.9664(4) 0.2836(4)
C8_15 C 0.9185(4) 0.9670(5) 0.3315(4)
C9_15 C 0.9664(4) 0.9664(4) 0.3837(6)
H3_15 H 0.907481 0.988521 0.342517
O4_13 O 0.2629(3) 0.2629(3) 0.5609(5)
O5_13 O 0.3000(2) 0.3534(2) 0.4957(2)
O6_12 O 0.2371(3) 0.3109(5) 0.5129(3)
Hf3_10 Hf 0.22766(3) 0.29687(2) 0.45313(2)
Hf5_12 Hf 0.20313(2) 0.27234(3) 0.54687(2)
O9_14 O 0.2457(2) 0.1466(2) 0.5500(2)
O10_14 O 0.2457(2) 0.2000(2) 0.6034(2)
O11_13 O 0.2178(5) 0.2178(5) 0.5322(5)
O16_13 O 0.3966(2) 0.4500(2) 0.4957(2)
O9_15 O 0.0043(2) 0.1466(2) 0.7000(2)
O10_15 O 0.0043(2) 0.2000(2) 0.6466(2)
O1_15 O 0.6034(2) 0.2457(2) 0.2000(2)
C1_16 C 0.6163(6) 0.2164(4) 0.2164(4)
C2_16 C 0.6524(6) 0.2010(4) 0.2010(4)
C3_16 C 0.6685(4) 0.1685(4) 0.2170(5)
H1_16 H 0.657483 0.157481 0.238521
O5_14 O 0.5500(2) 0.2457(2) 0.1466(2)
C4_16 C 0.6685(4) 0.2170(5) 0.1685(4)
C5_16 C 0.7010(4) 0.1524(6) 0.2010(4)
C6_16 C 0.7010(4) 0.2010(4) 0.1524(6)
H2_16 H 0.657481 0.238521 0.157483
C7_16 C 0.7164(4) 0.1163(6) 0.2164(4)
C8_16 C 0.7170(5) 0.1685(4) 0.1685(4)
C9_16 C 0.7164(4) 0.2164(4) 0.1163(6)
H3_16 H 0.738521 0.157481 0.157483
O15_15 O 0.7000(2) 0.2457(2) 0.1034(2)
O16_14 O 0.6466(2) 0.2457(2) 0.0500(2)
Hf9_7 Hf 0.70313(2) 0.27234(3) 0.04687(2)
O20_14 O 0.7371(3) 0.3109(5) 0.0129(3)
Hf4_11 Hf 0.04687(2) 0.47766(3) 0.04687(2)
O9_16 O 0.0500(2) 0.5043(2) 0.1034(2)
O10_16 O 0.1034(2) 0.5043(2) 0.0500(2)
O11_14 O 0.0322(5) 0.5322(5) 0.0322(5)
O8_13 O 0.9871(3) 0.4871(3) 0.0609(5)
C1_17 C 0.9664(4) 0.3837(6) 0.9664(4)
C2_17 C 0.9510(4) 0.3476(6) 0.9510(4)
C3_17 C 0.9185(4) 0.3315(4) 0.9670(5)
H1_17 H 0.907481 0.342517 0.988521
O7_14 O 0.9500(2) 0.3966(2) 0.9957(2)
C4_17 C 0.9670(5) 0.3315(4) 0.9185(4)
C5_17 C 0.9024(6) 0.2990(4) 0.9510(4)
C6_17 C 0.9510(4) 0.2990(4) 0.9024(6)
H2_17 H 0.988521 0.342519 0.907483
C7_17 C 0.8663(6) 0.2836(4) 0.9664(4)
C8_17 C 0.9185(4) 0.2830(5) 0.9185(4)
C9_17 C 0.9664(4) 0.2836(4) 0.8663(6)
O13_13 O 0.8534(2) 0.3000(2) 0.9957(2)
H3_17 H 0.907481 0.261479 0.907483
O1_16 O 0.5500(2) 0.1034(2) 0.0043(2)
O2_11 O 0.5322(5) 0.0322(5) 0.0322(5)
C1_18 C 0.5336(4) 0.1163(6) 0.0336(4)
C2_18 C 0.5490(4) 0.1524(6) 0.0490(4)
C3_18 C 0.5330(5) 0.1685(4) 0.0815(4)
H1_18 H 0.511479 0.157483 0.092519
Hf2_11 Hf 0.47766(3) 0.04687(2) 0.04687(2)
O7_15 O 0.5043(2) 0.1034(2) 0.0500(2)
C4_18 C 0.5815(4) 0.1685(4) 0.0330(5)
C5_18 C 0.5490(4) 0.2010(4) 0.0976(6)
C6_18 C 0.5976(6) 0.2010(4) 0.0490(4)
H2_18 H 0.592517 0.157481 0.011479
C7_18 C 0.5336(4) 0.2164(4) 0.1337(6)
C8_18 C 0.5815(4) 0.2170(5) 0.0815(4)
C9_18 C 0.6337(6) 0.2164(4) 0.0336(4)
O13_14 O 0.5043(2) 0.2000(2) 0.1466(2)
H3_18 H 0.592517 0.238521 0.092519
O3_13 O 0.4871(3) 0.0609(5) 0.9871(3)
O4_14 O 0.5129(3) 0.0129(3) 0.9391(5)
Hf4_12 Hf 0.45313(2) 0.02234(3) 0.95313(2)
O6_13 O 0.5609(5) 0.9871(3) 0.9871(3)
O9_17 O 0.3966(2) 0.9957(2) 0.9500(2)
O10_17 O 0.4500(2) 0.9957(2) 0.8966(2)
O5_15 O 0.5043(2) 0.1466(2) 0.2000(2)
O16_15 O 0.5043(2) 0.0500(2) 0.1034(2)
O5_16 O 0.3966(2) 0.7543(2) 0.8000(2)
O16_16 O 0.3000(2) 0.7543(2) 0.8966(2)
O19_9 O 0.2371(3) 0.7371(3) 0.9391(5)
O3_14 O 0.3109(5) 0.0129(3) 0.7371(3)
Hf2_12 Hf 0.29687(2) 0.02234(3) 0.79687(2)
Hf4_13 Hf 0.27234(3) 0.04687(2) 0.70313(2)
O8_14 O 0.2629(3) 0.0609(5) 0.7629(3)
O9_18 O 0.2457(2) 0.1034(2) 0.7000(2)
O10_18 O 0.2457(2) 0.0500(2) 0.6466(2)
O11_15 O 0.2178(5) 0.0322(5) 0.7178(5)
Hf1_11 Hf 0.29687(2) 0.95313(2) 0.72766(3)
O1_17 O 0.3534(2) 0.9500(2) 0.7543(2)
O2_12 O 0.2822(5) 0.9678(5) 0.7822(5)
C1_19 C 0.3663(6) 0.9664(4) 0.7836(4)
C2_19 C 0.4024(6) 0.9510(4) 0.7990(4)
C3_19 C 0.4185(4) 0.9670(5) 0.8315(4)
H1_19 H 0.407483 0.988521 0.842519
O4_15 O 0.2629(3) 0.9871(3) 0.6891(5)
O5_17 O 0.3000(2) 0.8966(2) 0.7543(2)
O6_14 O 0.2371(3) 0.9391(5) 0.7371(3)
Hf3_11 Hf 0.22766(3) 0.95313(2) 0.79687(2)
Hf5_13 Hf 0.20313(2) 0.97766(3) 0.70313(2)
O7_16 O 0.3534(2) 0.9957(2) 0.8000(2)
C4_19 C 0.4185(4) 0.9185(4) 0.7830(5)
C5_19 C 0.4510(4) 0.9510(4) 0.8476(6)
C6_19 C 0.4510(4) 0.9024(6) 0.7990(4)
H2_19 H 0.407481 0.907483 0.761479
C7_19 C 0.4664(4) 0.9664(4) 0.8837(6)
C8_19 C 0.4670(5) 0.9185(4) 0.8315(4)
C9_19 C 0.4664(4) 0.8663(6) 0.7836(4)
O12_11 O 0.4957(2) 0.9500(2) 0.8966(2)
H3_19 H 0.488521 0.907483 0.842519
O1_18 O 0.6466(2) 0.0043(2) 0.2000(2)
C1_20 C 0.6337(6) 0.0336(4) 0.2164(4)
C2_20 C 0.5976(6) 0.0490(4) 0.2010(4)
C3_20 C 0.5815(4) 0.0815(4) 0.2170(5)
H1_20 H 0.592517 0.092519 0.238521
C4_20 C 0.5815(4) 0.0330(5) 0.1685(4)
C5_20 C 0.5490(4) 0.0976(6) 0.2010(4)
C6_20 C 0.5490(4) 0.0490(4) 0.1524(6)
H2_20 H 0.592519 0.011479 0.157483
C7_20 C 0.5336(4) 0.1337(6) 0.2164(4)
C8_20 C 0.5330(5) 0.0815(4) 0.1685(4)
C9_20 C 0.5336(4) 0.0336(4) 0.1163(6)
H3_20 H 0.511479 0.092519 0.157483
O15_16 O 0.5500(2) 0.0043(2) 0.1034(2)
C1_21 C 0.2164(4) 0.5336(4) 0.1337(6)
C2_21 C 0.2010(4) 0.5490(4) 0.0976(6)
C3_21 C 0.1685(4) 0.5330(5) 0.0815(4)
H1_21 H 0.157481 0.511479 0.092517
Hf3_12 Hf 0.20313(2) 0.54687(2) 0.27234(3)
O7_17 O 0.2000(2) 0.5043(2) 0.1466(2)
C4_21 C 0.2170(5) 0.5815(4) 0.0815(4)
C5_21 C 0.1524(6) 0.5490(4) 0.0490(4)
C6_21 C 0.2010(4) 0.5976(6) 0.0490(4)
H2_21 H 0.238521 0.592517 0.092519
C7_21 C 0.1163(6) 0.5336(4) 0.0336(4)
C8_21 C 0.1685(4) 0.5815(4) 0.0330(5)
C9_21 C 0.2164(4) 0.6337(6) 0.0336(4)
O12_12 O 0.1034(2) 0.5500(2) 0.0043(2)
H3_21 H 0.157481 0.592517 0.011479
O14_11 O 0.2000(2) 0.6466(2) 0.0043(2)
Hf8_7 Hf 0.20313(2) 0.70313(2) 0.97766(3)
O3_15 O 0.2371(3) 0.0129(3) 0.8109(5)
Hf4_14 Hf 0.20313(2) 0.04687(2) 0.77234(3)
O9_19 O 0.1466(2) 0.0500(2) 0.7457(2)
O10_19 O 0.2000(2) 0.1034(2) 0.7457(2)
O1_19 O 0.3000(2) 0.9957(2) 0.8534(2)
C1_22 C 0.2836(4) 0.9664(4) 0.8663(6)
C2_22 C 0.2990(4) 0.9510(4) 0.9024(6)
C3_22 C 0.2830(5) 0.9185(4) 0.9185(4)
H1_22 H 0.261479 0.907481 0.907483
O7_18 O 0.2543(2) 0.9500(2) 0.8534(2)
O8_15 O 0.1891(5) 0.9871(3) 0.7629(3)
C4_22 C 0.3315(4) 0.9670(5) 0.9185(4)
C5_22 C 0.2990(4) 0.9024(6) 0.9510(4)
C6_22 C 0.3476(6) 0.9510(4) 0.9510(4)
H2_22 H 0.342517 0.988521 0.907481
C7_22 C 0.2836(4) 0.8663(6) 0.9664(4)
C8_22 C 0.3315(4) 0.9185(4) 0.9670(5)
C9_22 C 0.3837(6) 0.9664(4) 0.9664(4)
O13_15 O 0.2543(2) 0.8534(2) 0.9500(2)
H3_22 H 0.342517 0.907481 0.988521
C1_23 C 0.3837(6) 0.7836(4) 0.7836(4)
C2_23 C 0.3476(6) 0.7990(4) 0.7990(4)
C3_23 C 0.3315(4) 0.7830(5) 0.8315(4)
H1_23 H 0.342517 0.761479 0.842519
C4_23 C 0.3315(4) 0.8315(4) 0.7830(5)
C5_23 C 0.2990(4) 0.7990(4) 0.8476(6)
C6_23 C 0.2990(4) 0.8476(6) 0.7990(4)
H2_23 H 0.342519 0.842517 0.761479
C7_23 C 0.2836(4) 0.7836(4) 0.8837(6)
C8_23 C 0.2830(5) 0.8315(4) 0.8315(4)
C9_23 C 0.2836(4) 0.8837(6) 0.7836(4)
O12_13 O 0.2543(2) 0.8000(2) 0.8966(2)
H3_23 H 0.261479 0.842517 0.842519
O14_12 O 0.2543(2) 0.8966(2) 0.8000(2)
C1_24 C 0.1163(6) 0.7164(4) 0.2164(4)
C2_24 C 0.1524(6) 0.7010(4) 0.2010(4)
C3_24 C 0.1685(4) 0.6685(4) 0.2170(5)
H1_24 H 0.157483 0.657481 0.238521
O7_19 O 0.1034(2) 0.7000(2) 0.2457(2)
C4_24 C 0.1685(4) 0.7170(5) 0.1685(4)
C5_24 C 0.2010(4) 0.6524(6) 0.2010(4)
C6_24 C 0.2010(4) 0.7010(4) 0.1524(6)
H2_24 H 0.157481 0.738521 0.157483
C7_24 C 0.2164(4) 0.6163(6) 0.2164(4)
C8_24 C 0.2170(5) 0.6685(4) 0.1685(4)
C9_24 C 0.2164(4) 0.7164(4) 0.1163(6)
O13_16 O 0.2000(2) 0.6034(2) 0.2457(2)
H3_24 H 0.238521 0.657481 0.157483
O15_17 O 0.2000(2) 0.7457(2) 0.1034(2)
O16_17 O 0.1466(2) 0.7457(2) 0.0500(2)
O19_10 O 0.1891(5) 0.7629(3) 0.9871(3)
O1_20 O 0.0500(2) 0.6034(2) 0.0043(2)
C1_25 C 0.0336(4) 0.6163(6) 0.0336(4)
C2_25 C 0.0490(4) 0.6524(6) 0.0490(4)
C3_25 C 0.0330(5) 0.6685(4) 0.0815(4)
H1_25 H 0.011479 0.657483 0.092519
O7_20 O 0.0043(2) 0.6034(2) 0.0500(2)
C4_25 C 0.0815(4) 0.6685(4) 0.0330(5)
C5_25 C 0.0490(4) 0.7010(4) 0.0976(6)
C6_25 C 0.0976(6) 0.7010(4) 0.0490(4)
H2_25 H 0.092517 0.657481 0.011479
C7_25 C 0.0336(4) 0.7164(4) 0.1337(6)
C8_25 C 0.0815(4) 0.7170(5) 0.0815(4)
C9_25 C 0.1337(6) 0.7164(4) 0.0336(4)
H3_25 H 0.092517 0.738521 0.092519
O15_18 O 0.1466(2) 0.7000(2) 0.0043(2)
C1_26 C 0.2836(4) 0.2836(4) 0.3837(6)
C2_26 C 0.2990(4) 0.2990(4) 0.3476(6)
C3_26 C 0.2830(5) 0.3315(4) 0.3315(4)
H1_26 H 0.261479 0.342519 0.342517
Hf4_15 Hf 0.20313(2) 0.20313(2) 0.47766(3)
O7_21 O 0.2543(2) 0.3000(2) 0.3966(2)
O8_16 O 0.1891(5) 0.2629(3) 0.4871(3)
O9_20 O 0.1466(2) 0.2000(2) 0.5043(2)
O10_20 O 0.2000(2) 0.1466(2) 0.5043(2)
C4_26 C 0.3315(4) 0.2830(5) 0.3315(4)
C5_26 C 0.2990(4) 0.3476(6) 0.2990(4)
C6_26 C 0.3476(6) 0.2990(4) 0.2990(4)
H2_26 H 0.342517 0.261479 0.342519
C7_26 C 0.2836(4) 0.3837(6) 0.2836(4)
C8_26 C 0.3315(4) 0.3315(4) 0.2830(5)
C9_26 C 0.3837(6) 0.2836(4) 0.2836(4)
O13_17 O 0.2543(2) 0.3966(2) 0.3000(2)
H3_26 H 0.342517 0.342519 0.261479
O16_18 O 0.0043(2) 0.5500(2) 0.1034(2)
O9_21 O 0.1034(2) 0.2000(2) 0.7457(2)
O10_21 O 0.0500(2) 0.1466(2) 0.7457(2)
O1_21 O 0.1466(2) 0.5043(2) 0.2000(2)
O3_16 O 0.1891(5) 0.4871(3) 0.2629(3)
C1_27 C 0.1337(6) 0.5336(4) 0.2164(4)
C2_27 C 0.0976(6) 0.5490(4) 0.2010(4)
C3_27 C 0.0815(4) 0.5815(4) 0.2170(5)
H1_27 H 0.092517 0.592519 0.238521
O7_22 O 0.1466(2) 0.5500(2) 0.2457(2)
O8_17 O 0.2371(3) 0.5129(3) 0.3109(5)
O9_22 O 0.2543(2) 0.4500(2) 0.3534(2)
C4_27 C 0.0815(4) 0.5330(5) 0.1685(4)
C5_27 C 0.0490(4) 0.5976(6) 0.2010(4)
C6_27 C 0.0490(4) 0.5490(4) 0.1524(6)
H2_27 H 0.092519 0.511479 0.157483
C7_27 C 0.0336(4) 0.6337(6) 0.2164(4)
C8_27 C 0.0330(5) 0.5815(4) 0.1685(4)
C9_27 C 0.0336(4) 0.5336(4) 0.1163(6)
O13_18 O 0.0500(2) 0.6466(2) 0.2457(2)
H3_27 H 0.011479 0.592519 0.157483
C1_28 C 0.2164(4) 0.0336(4) 0.6337(6)
C2_28 C 0.2010(4) 0.0490(4) 0.5976(6)
C3_28 C 0.1685(4) 0.0330(5) 0.5815(4)
H1_28 H 0.157481 0.011479 0.592517
O7_23 O 0.2000(2) 0.0043(2) 0.6466(2)
C4_28 C 0.2170(5) 0.0815(4) 0.5815(4)
C5_28 C 0.1524(6) 0.0490(4) 0.5490(4)
C6_28 C 0.2010(4) 0.0976(6) 0.5490(4)
H2_28 H 0.238521 0.092517 0.592519
C7_28 C 0.1163(6) 0.0336(4) 0.5336(4)
C8_28 C 0.1685(4) 0.0815(4) 0.5330(5)
C9_28 C 0.2164(4) 0.1337(6) 0.5336(4)
O12_14 O 0.1034(2) 0.0500(2) 0.5043(2)
H3_28 H 0.157481 0.092517 0.511479
O1_22 O 0.3000(2) 0.4957(2) 0.3534(2)
C1_29 C 0.2836(4) 0.4664(4) 0.3663(6)
C2_29 C 0.2990(4) 0.4510(4) 0.4024(6)
C3_29 C 0.2830(5) 0.4185(4) 0.4185(4)
H1_29 H 0.261479 0.407481 0.407483
C4_29 C 0.3315(4) 0.4670(5) 0.4185(4)
C5_29 C 0.2990(4) 0.4024(6) 0.4510(4)
C6_29 C 0.3476(6) 0.4510(4) 0.4510(4)
H2_29 H 0.342517 0.488521 0.407481
C7_29 C 0.2836(4) 0.3663(6) 0.4664(4)
C8_29 C 0.3315(4) 0.4185(4) 0.4670(5)
C9_29 C 0.3837(6) 0.4664(4) 0.4664(4)
O13_19 O 0.2543(2) 0.3534(2) 0.4500(2)
H3_29 H 0.342517 0.407481 0.488521
C1_30 C 0.1163(6) 0.2164(4) 0.7164(4)
C2_30 C 0.1524(6) 0.2010(4) 0.7010(4)
C3_30 C 0.1685(4) 0.1685(4) 0.7170(5)
H1_30 H 0.157483 0.157481 0.738521
C4_30 C 0.1685(4) 0.2170(5) 0.6685(4)
C5_30 C 0.2010(4) 0.1524(6) 0.7010(4)
C6_30 C 0.2010(4) 0.2010(4) 0.6524(6)
H2_30 H 0.157481 0.238521 0.657483
C7_30 C 0.2164(4) 0.1163(6) 0.7164(4)
C8_30 C 0.2170(5) 0.1685(4) 0.6685(4)
C9_30 C 0.2164(4) 0.2164(4) 0.6163(6)
H3_30 H 0.238521 0.157481 0.657483
O15_19 O 0.2000(2) 0.2457(2) 0.6034(2)
O16_19 O 0.1466(2) 0.2457(2) 0.5500(2)
O1_23 O 0.0500(2) 0.1034(2) 0.5043(2)
C1_31 C 0.0336(4) 0.1163(6) 0.5336(4)
C2_31 C 0.0490(4) 0.1524(6) 0.5490(4)
C3_31 C 0.0330(5) 0.1685(4) 0.5815(4)
H1_31 H 0.011479 0.157483 0.592519
O7_24 O 0.0043(2) 0.1034(2) 0.5500(2)
C4_31 C 0.0815(4) 0.1685(4) 0.5330(5)
C5_31 C 0.0490(4) 0.2010(4) 0.5976(6)
C6_31 C 0.0976(6) 0.2010(4) 0.5490(4)
H2_31 H 0.092517 0.157481 0.511479
C7_31 C 0.0336(4) 0.2164(4) 0.6337(6)
C8_31 C 0.0815(4) 0.2170(5) 0.5815(4)
C9_31 C 0.1337(6) 0.2164(4) 0.5336(4)
H3_31 H 0.092517 0.238521 0.592519
O16_20 O 0.0043(2) 0.0500(2) 0.6034(2)
O1_24 O 0.1466(2) 0.0043(2) 0.7000(2)
C1_32 C 0.1337(6) 0.0336(4) 0.7164(4)
C2_32 C 0.0976(6) 0.0490(4) 0.7010(4)
C3_32 C 0.0815(4) 0.0815(4) 0.7170(5)
H1_32 H 0.092517 0.092519 0.738521
C4_32 C 0.0815(4) 0.0330(5) 0.6685(4)
C5_32 C 0.0490(4) 0.0976(6) 0.7010(4)
C6_32 C 0.0490(4) 0.0490(4) 0.6524(6)
H2_32 H 0.092519 0.011479 0.657483
C7_32 C 0.0336(4) 0.1337(6) 0.7164(4)
C8_32 C 0.0330(5) 0.0815(4) 0.6685(4)
C9_32 C 0.0336(4) 0.0336(4) 0.6163(6)
H3_32 H 0.011479 0.092519 0.657483
O21 O 0.8181(3) 0.5380(4) 0.6595(3)
Se1 Se 0.8533(5) 0.5726(4) 0.6774(4)
O22 O 0.884(9) 0.545(5) 0.705(5)
O23 O 0.8181(3) 0.5905(3) 0.7120(4)
O21_2 O 0.7880(4) 0.0681(3) 0.3405(3)
Se1_2 Se 0.8226(4) 0.1033(5) 0.3226(4)
O22_2 O 0.795(5) 0.134(9) 0.295(5)
O23_2 O 0.8405(3) 0.0681(3) 0.2880(4)
O21_3 O 0.0681(3) 0.3405(3) 0.7880(4)
Se1_3 Se 0.1033(5) 0.3226(4) 0.8226(4)
O22_3 O 0.134(9) 0.295(5) 0.795(5)
O23_3 O 0.0681(3) 0.2880(4) 0.8405(3)
O21_4 O 0.3405(3) 0.7880(4) 0.0681(3)
Se1_4 Se 0.3226(4) 0.8226(4) 0.1033(5)
O22_4 O 0.295(5) 0.795(5) 0.134(9)
O23_4 O 0.2880(4) 0.8405(3) 0.0681(3)
O21_5 O 0.9095(3) 0.7880(4) 0.1819(3)
Se1_5 Se 0.9274(4) 0.8226(4) 0.1467(5)
O22_5 O 0.955(5) 0.795(5) 0.116(9)
O23_5 O 0.9620(4) 0.8405(3) 0.1819(3)
O21_6 O 0.5905(3) 0.8181(3) 0.7120(4)
Se1_6 Se 0.5726(4) 0.8533(5) 0.6774(4)
O22_6 O 0.545(5) 0.884(9) 0.705(5)
O23_6 O 0.5380(4) 0.8181(3) 0.6595(3)
O21_7 O 0.0681(3) 0.9095(3) 0.4620(4)
Se1_7 Se 0.1033(5) 0.9274(4) 0.4274(4)
O22_7 O 0.134(9) 0.955(5) 0.455(5)
O23_7 O 0.0681(3) 0.9620(4) 0.4095(3)
O21_8 O 0.5380(4) 0.5905(3) 0.4319(3)
Se1_8 Se 0.5726(4) 0.5726(4) 0.3967(5)
O22_8 O 0.545(5) 0.545(5) 0.366(9)
O23_8 O 0.5905(3) 0.5380(4) 0.4319(3)
O21_9 O 0.7880(4) 0.1819(3) 0.9095(3)
Se1_9 Se 0.8226(4) 0.1467(5) 0.9274(4)
O22_9 O 0.795(5) 0.116(9) 0.955(5)
O23_9 O 0.8405(3) 0.1819(3) 0.9620(4)
O21_10 O 0.8181(3) 0.7120(4) 0.5905(3)
Se1_10 Se 0.8533(5) 0.6774(4) 0.5726(4)
O22_10 O 0.884(9) 0.705(5) 0.545(5)
O23_10 O 0.8181(3) 0.6595(3) 0.5380(4)
O21_11 O 0.4319(3) 0.7120(4) 0.6595(3)
Se1_11 Se 0.3967(5) 0.6774(4) 0.6774(4)
O22_11 O 0.366(9) 0.705(5) 0.705(5)
O23_11 O 0.4319(3) 0.6595(3) 0.7120(4)
O21_12 O 0.4620(4) 0.1819(3) 0.3405(3)
Se1_12 Se 0.4274(4) 0.1467(5) 0.3226(4)
O22_12 O 0.455(5) 0.116(9) 0.295(5)
O23_12 O 0.4095(3) 0.1819(3) 0.2880(4)
O21_13 O 0.3405(3) 0.4620(4) 0.1819(3)
Se1_13 Se 0.3226(4) 0.4274(4) 0.1467(5)
O22_13 O 0.295(5) 0.455(5) 0.116(9)
O23_13 O 0.2880(4) 0.4095(3) 0.1819(3)
O21_14 O 0.6595(3) 0.4319(3) 0.7120(4)
Se1_14 Se 0.6774(4) 0.3967(5) 0.6774(4)
O22_14 O 0.705(5) 0.366(9) 0.705(5)
O23_14 O 0.7120(4) 0.4319(3) 0.6595(3)
O21_15 O 0.8181(3) 0.0380(4) 0.1595(3)
Se1_15 Se 0.8533(5) 0.0726(4) 0.1774(4)
O22_15 O 0.884(9) 0.045(5) 0.205(5)
O23_15 O 0.8181(3) 0.0905(3) 0.2120(4)
O21_16 O 0.7880(4) 0.5681(3) 0.8405(3)
Se1_16 Se 0.8226(4) 0.6033(5) 0.8226(4)
O22_16 O 0.795(5) 0.634(9) 0.795(5)
O23_16 O 0.8405(3) 0.5681(3) 0.7880(4)
O21_17 O 0.0681(3) 0.8405(3) 0.2880(4)
Se1_17 Se 0.1033(5) 0.8226(4) 0.3226(4)
O22_17 O 0.134(9) 0.795(5) 0.295(5)
O23_17 O 0.0681(3) 0.7880(4) 0.3405(3)
O21_18 O 0.3405(3) 0.2880(4) 0.5681(3)
Se1_18 Se 0.3226(4) 0.3226(4) 0.6033(5)
O22_18 O 0.295(5) 0.295(5) 0.634(9)
O23_18 O 0.2880(4) 0.3405(3) 0.5681(3)
O21_19 O 0.9095(3) 0.2880(4) 0.6819(3)
Se1_19 Se 0.9274(4) 0.3226(4) 0.6467(5)
O22_19 O 0.955(5) 0.295(5) 0.616(9)
O23_19 O 0.9620(4) 0.3405(3) 0.6819(3)
O21_20 O 0.5905(3) 0.3181(3) 0.2120(4)
Se1_20 Se 0.5726(4) 0.3533(5) 0.1774(4)
O22_20 O 0.545(5) 0.384(9) 0.205(5)
O23_20 O 0.5380(4) 0.3181(3) 0.1595(3)
O21_21 O 0.0681(3) 0.4095(3) 0.9620(4)
Se1_21 Se 0.1033(5) 0.4274(4) 0.9274(4)
O22_21 O 0.134(9) 0.455(5) 0.955(5)
O23_21 O 0.0681(3) 0.4620(4) 0.9095(3)
O21_22 O 0.5380(4) 0.0905(3) 0.9319(3)
Se1_22 Se 0.5726(4) 0.0726(4) 0.8967(5)
O22_22 O 0.545(5) 0.045(5) 0.866(9)
O23_22 O 0.5905(3) 0.0380(4) 0.9319(3)
O21_23 O 0.7880(4) 0.6819(3) 0.4095(3)
Se1_23 Se 0.8226(4) 0.6467(5) 0.4274(4)
O22_23 O 0.795(5) 0.616(9) 0.455(5)
O23_23 O 0.8405(3) 0.6819(3) 0.4620(4)
O21_24 O 0.8181(3) 0.2120(4) 0.0905(3)
Se1_24 Se 0.8533(5) 0.1774(4) 0.0726(4)
O22_24 O 0.884(9) 0.205(5) 0.045(5)
O23_24 O 0.8181(3) 0.1595(3) 0.0380(4)
O21_25 O 0.4319(3) 0.2120(4) 0.1595(3)
Se1_25 Se 0.3967(5) 0.1774(4) 0.1774(4)
O22_25 O 0.366(9) 0.205(5) 0.205(5)
O23_25 O 0.4319(3) 0.1595(3) 0.2120(4)
O21_26 O 0.4620(4) 0.6819(3) 0.8405(3)
Se1_26 Se 0.4274(4) 0.6467(5) 0.8226(4)
O22_26 O 0.455(5) 0.616(9) 0.795(5)
O23_26 O 0.4095(3) 0.6819(3) 0.7880(4)
O21_27 O 0.3405(3) 0.9620(4) 0.6819(3)
Se1_27 Se 0.3226(4) 0.9274(4) 0.6467(5)
O22_27 O 0.295(5) 0.955(5) 0.616(9)
O23_27 O 0.2880(4) 0.9095(3) 0.6819(3)
O21_28 O 0.6595(3) 0.9319(3) 0.2120(4)
Se1_28 Se 0.6774(4) 0.8967(5) 0.1774(4)
O22_28 O 0.705(5) 0.866(9) 0.205(5)
O23_28 O 0.7120(4) 0.9319(3) 0.1595(3)
O21_29 O 0.3181(3) 0.5380(4) 0.1595(3)
Se1_29 Se 0.3533(5) 0.5726(4) 0.1774(4)
O22_29 O 0.384(9) 0.545(5) 0.205(5)
O23_29 O 0.3181(3) 0.5905(3) 0.2120(4)
O21_30 O 0.2880(4) 0.0681(3) 0.8405(3)
Se1_30 Se 0.3226(4) 0.1033(5) 0.8226(4)
O22_30 O 0.295(5) 0.134(9) 0.795(5)
O23_30 O 0.3405(3) 0.0681(3) 0.7880(4)
O21_31 O 0.5681(3) 0.3405(3) 0.2880(4)
Se1_31 Se 0.6033(5) 0.3226(4) 0.3226(4)
O22_31 O 0.634(9) 0.295(5) 0.295(5)
O23_31 O 0.5681(3) 0.2880(4) 0.3405(3)
O21_32 O 0.8405(3) 0.7880(4) 0.5681(3)
Se1_32 Se 0.8226(4) 0.8226(4) 0.6033(5)
O22_32 O 0.795(5) 0.795(5) 0.634(9)
O23_32 O 0.7880(4) 0.8405(3) 0.5681(3)
O21_33 O 0.4095(3) 0.7880(4) 0.6819(3)
Se1_33 Se 0.4274(4) 0.8226(4) 0.6467(5)
O22_33 O 0.455(5) 0.795(5) 0.616(9)
O23_33 O 0.4620(4) 0.8405(3) 0.6819(3)
O21_34 O 0.0905(3) 0.8181(3) 0.2120(4)
Se1_34 Se 0.0726(4) 0.8533(5) 0.1774(4)
O22_34 O 0.045(5) 0.884(9) 0.205(5)
O23_34 O 0.0380(4) 0.8181(3) 0.1595(3)
O21_35 O 0.5681(3) 0.9095(3) 0.9620(4)
Se1_35 Se 0.6033(5) 0.9274(4) 0.9274(4)
O22_35 O 0.634(9) 0.955(5) 0.955(5)
O23_35 O 0.5681(3) 0.9620(4) 0.9095(3)
O21_36 O 0.0380(4) 0.5905(3) 0.9319(3)
Se1_36 Se 0.0726(4) 0.5726(4) 0.8967(5)
O22_36 O 0.045(5) 0.545(5) 0.866(9)
O23_36 O 0.0905(3) 0.5380(4) 0.9319(3)
O21_37 O 0.2880(4) 0.1819(3) 0.4095(3)
Se1_37 Se 0.3226(4) 0.1467(5) 0.4274(4)
O22_37 O 0.295(5) 0.116(9) 0.455(5)
O23_37 O 0.3405(3) 0.1819(3) 0.4620(4)
O21_38 O 0.3181(3) 0.7120(4) 0.0905(3)
Se1_38 Se 0.3533(5) 0.6774(4) 0.0726(4)
O22_38 O 0.384(9) 0.705(5) 0.045(5)
O23_38 O 0.3181(3) 0.6595(3) 0.0380(4)
O21_39 O 0.9319(3) 0.7120(4) 0.1595(3)
Se1_39 Se 0.8967(5) 0.6774(4) 0.1774(4)
O22_39 O 0.866(9) 0.705(5) 0.205(5)
O23_39 O 0.9319(3) 0.6595(3) 0.2120(4)
O21_40 O 0.9620(4) 0.1819(3) 0.8405(3)
Se1_40 Se 0.9274(4) 0.1467(5) 0.8226(4)
O22_40 O 0.955(5) 0.116(9) 0.795(5)
O23_40 O 0.9095(3) 0.1819(3) 0.7880(4)
O21_41 O 0.8405(3) 0.4620(4) 0.6819(3)
Se1_41 Se 0.8226(4) 0.4274(4) 0.6467(5)
O22_41 O 0.795(5) 0.455(5) 0.616(9)
O23_41 O 0.7880(4) 0.4095(3) 0.6819(3)
O21_42 O 0.1595(3) 0.4319(3) 0.2120(4)
Se1_42 Se 0.1774(4) 0.3967(5) 0.1774(4)
O22_42 O 0.205(5) 0.366(9) 0.205(5)
O23_42 O 0.2120(4) 0.4319(3) 0.1595(3)
O21_43 O 0.3181(3) 0.0380(4) 0.6595(3)
Se1_43 Se 0.3533(5) 0.0726(4) 0.6774(4)
O22_43 O 0.384(9) 0.045(5) 0.705(5)
O23_43 O 0.3181(3) 0.0905(3) 0.7120(4)
O21_44 O 0.2880(4) 0.5681(3) 0.3405(3)
Se1_44 Se 0.3226(4) 0.6033(5) 0.3226(4)
O22_44 O 0.295(5) 0.634(9) 0.295(5)
O23_44 O 0.3405(3) 0.5681(3) 0.2880(4)
O21_45 O 0.5681(3) 0.8405(3) 0.7880(4)
Se1_45 Se 0.6033(5) 0.8226(4) 0.8226(4)
O22_45 O 0.634(9) 0.795(5) 0.795(5)
O23_45 O 0.5681(3) 0.7880(4) 0.8405(3)
O21_46 O 0.8405(3) 0.2880(4) 0.0681(3)
Se1_46 Se 0.8226(4) 0.3226(4) 0.1033(5)
O22_46 O 0.795(5) 0.295(5) 0.134(9)
O23_46 O 0.7880(4) 0.3405(3) 0.0681(3)
O21_47 O 0.4095(3) 0.2880(4) 0.1819(3)
Se1_47 Se 0.4274(4) 0.3226(4) 0.1467(5)
O22_47 O 0.455(5) 0.295(5) 0.116(9)
O23_47 O 0.4620(4) 0.3405(3) 0.1819(3)
O21_48 O 0.0905(3) 0.3181(3) 0.7120(4)
Se1_48 Se 0.0726(4) 0.3533(5) 0.6774(4)
O22_48 O 0.045(5) 0.384(9) 0.705(5)
O23_48 O 0.0380(4) 0.3181(3) 0.6595(3)
O21_49 O 0.5681(3) 0.4095(3) 0.4620(4)
Se1_49 Se 0.6033(5) 0.4274(4) 0.4274(4)
O22_49 O 0.634(9) 0.455(5) 0.455(5)
O23_49 O 0.5681(3) 0.4620(4) 0.4095(3)
O21_50 O 0.0380(4) 0.0905(3) 0.4319(3)
Se1_50 Se 0.0726(4) 0.0726(4) 0.3967(5)
O22_50 O 0.045(5) 0.045(5) 0.366(9)
O23_50 O 0.0905(3) 0.0380(4) 0.4319(3)
O21_51 O 0.2880(4) 0.6819(3) 0.9095(3)
Se1_51 Se 0.3226(4) 0.6467(5) 0.9274(4)
O22_51 O 0.295(5) 0.616(9) 0.955(5)
O23_51 O 0.3405(3) 0.6819(3) 0.9620(4)
O21_52 O 0.3181(3) 0.2120(4) 0.5905(3)
Se1_52 Se 0.3533(5) 0.1774(4) 0.5726(4)
O22_52 O 0.384(9) 0.205(5) 0.545(5)
O23_52 O 0.3181(3) 0.1595(3) 0.5380(4)
O21_53 O 0.9319(3) 0.2120(4) 0.6595(3)
Se1_53 Se 0.8967(5) 0.1774(4) 0.6774(4)
O22_53 O 0.866(9) 0.205(5) 0.705(5)
O23_53 O 0.9319(3) 0.1595(3) 0.7120(4)
O21_54 O 0.9620(4) 0.6819(3) 0.3405(3)
Se1_54 Se 0.9274(4) 0.6467(5) 0.3226(4)
O22_54 O 0.955(5) 0.616(9) 0.295(5)
O23_54 O 0.9095(3) 0.6819(3) 0.2880(4)
O21_55 O 0.8405(3) 0.9620(4) 0.1819(3)
Se1_55 Se 0.8226(4) 0.9274(4) 0.1467(5)
O22_55 O 0.795(5) 0.955(5) 0.116(9)
O23_55 O 0.7880(4) 0.9095(3) 0.1819(3)
O21_56 O 0.1595(3) 0.9319(3) 0.7120(4)
Se1_56 Se 0.1774(4) 0.8967(5) 0.6774(4)
O22_56 O 0.205(5) 0.866(9) 0.705(5)
O23_56 O 0.2120(4) 0.9319(3) 0.6595(3)
O21_57 O 0.1819(3) 0.3405(3) 0.4620(4)
Se1_57 Se 0.1467(5) 0.3226(4) 0.4274(4)
O22_57 O 0.116(9) 0.295(5) 0.455(5)
O23_57 O 0.1819(3) 0.2880(4) 0.4095(3)
O21_58 O 0.2120(4) 0.6595(3) 0.9319(3)
Se1_58 Se 0.1774(4) 0.6774(4) 0.8967(5)
O22_58 O 0.205(5) 0.705(5) 0.866(9)
O23_58 O 0.1595(3) 0.7120(4) 0.9319(3)
O21_59 O 0.0905(3) 0.9319(3) 0.5380(4)
Se1_59 Se 0.0726(4) 0.8967(5) 0.5726(4)
O22_59 O 0.045(5) 0.866(9) 0.545(5)
O23_59 O 0.0380(4) 0.9319(3) 0.5905(3)
O21_60 O 0.2120(4) 0.0905(3) 0.8181(3)
Se1_60 Se 0.1774(4) 0.0726(4) 0.8533(5)
O22_60 O 0.205(5) 0.045(5) 0.884(9)
O23_60 O 0.1595(3) 0.0380(4) 0.8181(3)
O21_61 O 0.1819(3) 0.4095(3) 0.2880(4)
Se1_61 Se 0.1467(5) 0.4274(4) 0.3226(4)
O22_61 O 0.116(9) 0.455(5) 0.295(5)
O23_61 O 0.1819(3) 0.4620(4) 0.3405(3)
O21_62 O 0.4095(3) 0.4620(4) 0.5681(3)
Se1_62 Se 0.4274(4) 0.4274(4) 0.6033(5)
O22_62 O 0.455(5) 0.455(5) 0.634(9)
O23_62 O 0.4620(4) 0.4095(3) 0.5681(3)
O21_63 O 0.9319(3) 0.5380(4) 0.0905(3)
Se1_63 Se 0.8967(5) 0.5726(4) 0.0726(4)
O22_63 O 0.866(9) 0.545(5) 0.045(5)
O23_63 O 0.9319(3) 0.5905(3) 0.0380(4)
O21_64 O 0.4620(4) 0.5681(3) 0.4095(3)
Se1_64 Se 0.4274(4) 0.6033(5) 0.4274(4)
O22_64 O 0.455(5) 0.634(9) 0.455(5)
O23_64 O 0.4095(3) 0.5681(3) 0.4620(4)
O21_65 O 0.5380(4) 0.6595(3) 0.8181(3)
Se1_65 Se 0.5726(4) 0.6774(4) 0.8533(5)
O22_65 O 0.545(5) 0.705(5) 0.884(9)
O23_65 O 0.5905(3) 0.7120(4) 0.8181(3)
O21_66 O 0.6595(3) 0.8181(3) 0.5380(4)
Se1_66 Se 0.6774(4) 0.8533(5) 0.5726(4)
O22_66 O 0.705(5) 0.884(9) 0.545(5)
O23_66 O 0.7120(4) 0.8181(3) 0.5905(3)
O21_67 O 0.1819(3) 0.8405(3) 0.9620(4)
Se1_67 Se 0.1467(5) 0.8226(4) 0.9274(4)
O22_67 O 0.116(9) 0.795(5) 0.955(5)
O23_67 O 0.1819(3) 0.7880(4) 0.9095(3)
O21_68 O 0.2120(4) 0.1595(3) 0.4319(3)
Se1_68 Se 0.1774(4) 0.1774(4) 0.3967(5)
O22_68 O 0.205(5) 0.205(5) 0.366(9)
O23_68 O 0.1595(3) 0.2120(4) 0.4319(3)
O21_69 O 0.0905(3) 0.4319(3) 0.0380(4)
Se1_69 Se 0.0726(4) 0.3967(5) 0.0726(4)
O22_69 O 0.045(5) 0.366(9) 0.045(5)
O23_69 O 0.0380(4) 0.4319(3) 0.0905(3)
O21_70 O 0.2120(4) 0.5905(3) 0.3181(3)
Se1_70 Se 0.1774(4) 0.5726(4) 0.3533(5)
O22_70 O 0.205(5) 0.545(5) 0.384(9)
O23_70 O 0.1595(3) 0.5380(4) 0.3181(3)
O21_71 O 0.1819(3) 0.9095(3) 0.7880(4)
Se1_71 Se 0.1467(5) 0.9274(4) 0.8226(4)
O22_71 O 0.116(9) 0.955(5) 0.795(5)
O23_71 O 0.1819(3) 0.9620(4) 0.8405(3)
O21_72 O 0.4095(3) 0.9620(4) 0.0681(3)
Se1_72 Se 0.4274(4) 0.9274(4) 0.1033(5)
O22_72 O 0.455(5) 0.955(5) 0.134(9)
O23_72 O 0.4620(4) 0.9095(3) 0.0681(3)
O21_73 O 0.9319(3) 0.0380(4) 0.5905(3)
Se1_73 Se 0.8967(5) 0.0726(4) 0.5726(4)
O22_73 O 0.866(9) 0.045(5) 0.545(5)
O23_73 O 0.9319(3) 0.0905(3) 0.5380(4)
O21_74 O 0.4620(4) 0.0681(3) 0.9095(3)
Se1_74 Se 0.4274(4) 0.1033(5) 0.9274(4)
O22_74 O 0.455(5) 0.134(9) 0.955(5)
O23_74 O 0.4095(3) 0.0681(3) 0.9620(4)
O21_75 O 0.5380(4) 0.1595(3) 0.3181(3)
Se1_75 Se 0.5726(4) 0.1774(4) 0.3533(5)
O22_75 O 0.545(5) 0.205(5) 0.384(9)
O23_75 O 0.5905(3) 0.2120(4) 0.3181(3)
O21_76 O 0.6595(3) 0.3181(3) 0.0380(4)
Se1_76 Se 0.6774(4) 0.3533(5) 0.0726(4)
O22_76 O 0.705(5) 0.384(9) 0.045(5)
O23_76 O 0.7120(4) 0.3181(3) 0.0905(3)
O21_77 O 0.6819(3) 0.3405(3) 0.9620(4)
Se1_77 Se 0.6467(5) 0.3226(4) 0.9274(4)
O22_77 O 0.616(9) 0.295(5) 0.955(5)
O23_77 O 0.6819(3) 0.2880(4) 0.9095(3)
O21_78 O 0.7120(4) 0.6595(3) 0.4319(3)
Se1_78 Se 0.6774(4) 0.6774(4) 0.3967(5)
O22_78 O 0.705(5) 0.705(5) 0.366(9)
O23_78 O 0.6595(3) 0.7120(4) 0.4319(3)
O21_79 O 0.5905(3) 0.9319(3) 0.0380(4)
Se1_79 Se 0.5726(4) 0.8967(5) 0.0726(4)
O22_79 O 0.545(5) 0.866(9) 0.045(5)
O23_79 O 0.5380(4) 0.9319(3) 0.0905(3)
O21_80 O 0.7120(4) 0.0905(3) 0.3181(3)
Se1_80 Se 0.6774(4) 0.0726(4) 0.3533(5)
O22_80 O 0.705(5) 0.045(5) 0.384(9)
O23_80 O 0.6595(3) 0.0380(4) 0.3181(3)
O21_81 O 0.6819(3) 0.4095(3) 0.7880(4)
Se1_81 Se 0.6467(5) 0.4274(4) 0.8226(4)
O22_81 O 0.616(9) 0.455(5) 0.795(5)
O23_81 O 0.6819(3) 0.4620(4) 0.8405(3)
O21_82 O 0.9095(3) 0.4620(4) 0.0681(3)
Se1_82 Se 0.9274(4) 0.4274(4) 0.1033(5)
O22_82 O 0.955(5) 0.455(5) 0.134(9)
O23_82 O 0.9620(4) 0.4095(3) 0.0681(3)
O21_83 O 0.4319(3) 0.5380(4) 0.5905(3)
Se1_83 Se 0.3967(5) 0.5726(4) 0.5726(4)
O22_83 O 0.366(9) 0.545(5) 0.545(5)
O23_83 O 0.4319(3) 0.5905(3) 0.5380(4)
O21_84 O 0.9620(4) 0.5681(3) 0.9095(3)
Se1_84 Se 0.9274(4) 0.6033(5) 0.9274(4)
O22_84 O 0.955(5) 0.634(9) 0.955(5)
O23_84 O 0.9095(3) 0.5681(3) 0.9620(4)
O21_85 O 0.0380(4) 0.6595(3) 0.3181(3)
Se1_85 Se 0.0726(4) 0.6774(4) 0.3533(5)
O22_85 O 0.045(5) 0.705(5) 0.384(9)
O23_85 O 0.0905(3) 0.7120(4) 0.3181(3)
O21_86 O 0.1595(3) 0.8181(3) 0.0380(4)
Se1_86 Se 0.1774(4) 0.8533(5) 0.0726(4)
O22_86 O 0.205(5) 0.884(9) 0.045(5)
O23_86 O 0.2120(4) 0.8181(3) 0.0905(3)
O21_87 O 0.6819(3) 0.8405(3) 0.4620(4)
Se1_87 Se 0.6467(5) 0.8226(4) 0.4274(4)
O22_87 O 0.616(9) 0.795(5) 0.455(5)
O23_87 O 0.6819(3) 0.7880(4) 0.4095(3)
O21_88 O 0.7120(4) 0.1595(3) 0.9319(3)
Se1_88 Se 0.6774(4) 0.1774(4) 0.8967(5)
O22_88 O 0.705(5) 0.205(5) 0.866(9)
O23_88 O 0.6595(3) 0.2120(4) 0.9319(3)
O21_89 O 0.5905(3) 0.4319(3) 0.5380(4)
Se1_89 Se 0.5726(4) 0.3967(5) 0.5726(4)
O22_89 O 0.545(5) 0.366(9) 0.545(5)
O23_89 O 0.5380(4) 0.4319(3) 0.5905(3)
O21_90 O 0.7120(4) 0.5905(3) 0.8181(3)
Se1_90 Se 0.6774(4) 0.5726(4) 0.8533(5)
O22_90 O 0.705(5) 0.545(5) 0.884(9)
O23_90 O 0.6595(3) 0.5380(4) 0.8181(3)
O21_91 O 0.6819(3) 0.9095(3) 0.2880(4)
Se1_91 Se 0.6467(5) 0.9274(4) 0.3226(4)
O22_91 O 0.616(9) 0.955(5) 0.295(5)
O23_91 O 0.6819(3) 0.9620(4) 0.3405(3)
O21_92 O 0.9095(3) 0.9620(4) 0.5681(3)
Se1_92 Se 0.9274(4) 0.9274(4) 0.6033(5)
O22_92 O 0.955(5) 0.955(5) 0.634(9)
O23_92 O 0.9620(4) 0.9095(3) 0.5681(3)
O21_93 O 0.4319(3) 0.0380(4) 0.0905(3)
Se1_93 Se 0.3967(5) 0.0726(4) 0.0726(4)
O22_93 O 0.366(9) 0.045(5) 0.045(5)
O23_93 O 0.4319(3) 0.0905(3) 0.0380(4)
O21_94 O 0.9620(4) 0.0681(3) 0.4095(3)
Se1_94 Se 0.9274(4) 0.1033(5) 0.4274(4)
O22_94 O 0.955(5) 0.134(9) 0.455(5)
O23_94 O 0.9095(3) 0.0681(3) 0.4620(4)
O21_95 O 0.0380(4) 0.1595(3) 0.8181(3)
Se1_95 Se 0.0726(4) 0.1774(4) 0.8533(5)
O22_95 O 0.045(5) 0.205(5) 0.884(9)
O23_95 O 0.0905(3) 0.2120(4) 0.8181(3)
O21_96 O 0.1595(3) 0.3181(3) 0.5380(4)
Se1_96 Se 0.1774(4) 0.3533(5) 0.5726(4)
O22_96 O 0.205(5) 0.384(9) 0.545(5)
O23_96 O 0.2120(4) 0.3181(3) 0.5905(3)
O24 O 0.8181(3) 0.6595(3) 0.5380(4)
Se2 Se 0.8533(5) 0.6774(4) 0.5726(4)
O25 O 0.884(9) 0.705(5) 0.545(5)
O26 O 0.8181(3) 0.7120(4) 0.5905(3)
O24_2 O 0.9095(3) 0.0681(3) 0.4620(4)
Se2_2 Se 0.9274(4) 0.1033(5) 0.4274(4)
O25_2 O 0.955(5) 0.134(9) 0.455(5)
O26_2 O 0.9620(4) 0.0681(3) 0.4095(3)
O24_3 O 0.0681(3) 0.4620(4) 0.9095(3)
Se2_3 Se 0.1033(5) 0.4274(4) 0.9274(4)
O25_3 O 0.134(9) 0.455(5) 0.955(5)
O26_3 O 0.0681(3) 0.4095(3) 0.9620(4)
O24_4 O 0.4620(4) 0.9095(3) 0.0681(3)
Se2_4 Se 0.4274(4) 0.9274(4) 0.1033(5)
O25_4 O 0.455(5) 0.955(5) 0.134(9)
O26_4 O 0.4095(3) 0.9620(4) 0.0681(3)
O24_5 O 0.7880(4) 0.9095(3) 0.1819(3)
Se2_5 Se 0.8226(4) 0.9274(4) 0.1467(5)
O25_5 O 0.795(5) 0.955(5) 0.116(9)
O26_5 O 0.8405(3) 0.9620(4) 0.1819(3)
O24_6 O 0.7120(4) 0.8181(3) 0.5905(3)
Se2_6 Se 0.6774(4) 0.8533(5) 0.5726(4)
O25_6 O 0.705(5) 0.884(9) 0.545(5)
O26_6 O 0.6595(3) 0.8181(3) 0.5380(4)
O24_7 O 0.0681(3) 0.7880(4) 0.3405(3)
Se2_7 Se 0.1033(5) 0.8226(4) 0.3226(4)
O25_7 O 0.134(9) 0.795(5) 0.295(5)
O26_7 O 0.0681(3) 0.8405(3) 0.2880(4)
O24_8 O 0.6595(3) 0.7120(4) 0.4319(3)
Se2_8 Se 0.6774(4) 0.6774(4) 0.3967(5)
O25_8 O 0.705(5) 0.705(5) 0.366(9)
O26_8 O 0.7120(4) 0.6595(3) 0.4319(3)
O24_9 O 0.9095(3) 0.1819(3) 0.7880(4)
Se2_9 Se 0.9274(4) 0.1467(5) 0.8226(4)
O25_9 O 0.955(5) 0.116(9) 0.795(5)
O26_9 O 0.9620(4) 0.1819(3) 0.8405(3)
O24_10 O 0.8181(3) 0.5905(3) 0.7120(4)
Se2_10 Se 0.8533(5) 0.5726(4) 0.6774(4)
O25_10 O 0.884(9) 0.545(5) 0.705(5)
O26_10 O 0.8181(3) 0.5380(4) 0.6595(3)
O24_11 O 0.4319(3) 0.5905(3) 0.5380(4)
Se2_11 Se 0.3967(5) 0.5726(4) 0.5726(4)
O25_11 O 0.366(9) 0.545(5) 0.545(5)
O26_11 O 0.4319(3) 0.5380(4) 0.5905(3)
O24_12 O 0.3405(3) 0.1819(3) 0.4620(4)
Se2_12 Se 0.3226(4) 0.1467(5) 0.4274(4)
O25_12 O 0.295(5) 0.116(9) 0.455(5)
O26_12 O 0.2880(4) 0.1819(3) 0.4095(3)
O24_13 O 0.4620(4) 0.3405(3) 0.1819(3)
Se2_13 Se 0.4274(4) 0.3226(4) 0.1467(5)
O25_13 O 0.455(5) 0.295(5) 0.116(9)
O26_13 O 0.4095(3) 0.2880(4) 0.1819(3)
O24_14 O 0.5380(4) 0.4319(3) 0.5905(3)
Se2_14 Se 0.5726(4) 0.3967(5) 0.5726(4)
O25_14 O 0.545(5) 0.366(9) 0.545(5)
O26_14 O 0.5905(3) 0.4319(3) 0.5380(4)
O24_15 O 0.8181(3) 0.1595(3) 0.0380(4)
Se2_15 Se 0.8533(5) 0.1774(4) 0.0726(4)
O25_15 O 0.884(9) 0.205(5) 0.045(5)
O26_15 O 0.8181(3) 0.2120(4) 0.0905(3)
O24_16 O 0.9095(3) 0.5681(3) 0.9620(4)
Se2_16 Se 0.9274(4) 0.6033(5) 0.9274(4)
O25_16 O 0.955(5) 0.634(9) 0.955(5)
O26_16 O 0.9620(4) 0.5681(3) 0.9095(3)
O24_17 O 0.0681(3) 0.9620(4) 0.4095(3)
Se2_17 Se 0.1033(5) 0.9274(4) 0.4274(4)
O25_17 O 0.134(9) 0.955(5) 0.455(5)
O26_17 O 0.0681(3) 0.9095(3) 0.4620(4)
O24_18 O 0.4620(4) 0.4095(3) 0.5681(3)
Se2_18 Se 0.4274(4) 0.4274(4) 0.6033(5)
O25_18 O 0.455(5) 0.455(5) 0.634(9)
O26_18 O 0.4095(3) 0.4620(4) 0.5681(3)
O24_19 O 0.7880(4) 0.4095(3) 0.6819(3)
Se2_19 Se 0.8226(4) 0.4274(4) 0.6467(5)
O25_19 O 0.795(5) 0.455(5) 0.616(9)
O26_19 O 0.8405(3) 0.4620(4) 0.6819(3)
O24_20 O 0.7120(4) 0.3181(3) 0.0905(3)
Se2_20 Se 0.6774(4) 0.3533(5) 0.0726(4)
O25_20 O 0.705(5) 0.384(9) 0.045(5)
O26_20 O 0.6595(3) 0.3181(3) 0.0380(4)
O24_21 O 0.0681(3) 0.2880(4) 0.8405(3)
Se2_21 Se 0.1033(5) 0.3226(4) 0.8226(4)
O25_21 O 0.134(9) 0.295(5) 0.795(5)
O26_21 O 0.0681(3) 0.3405(3) 0.7880(4)
O24_22 O 0.6595(3) 0.2120(4) 0.9319(3)
Se2_22 Se 0.6774(4) 0.1774(4) 0.8967(5)
O25_22 O 0.705(5) 0.205(5) 0.866(9)
O26_22 O 0.7120(4) 0.1595(3) 0.9319(3)
O24_23 O 0.9095(3) 0.6819(3) 0.2880(4)
Se2_23 Se 0.9274(4) 0.6467(5) 0.3226(4)
O25_23 O 0.955(5) 0.616(9) 0.295(5)
O26_23 O 0.9620(4) 0.6819(3) 0.3405(3)
O24_24 O 0.8181(3) 0.0905(3) 0.2120(4)
Se2_24 Se 0.8533(5) 0.0726(4) 0.1774(4)
O25_24 O 0.884(9) 0.045(5) 0.205(5)
O26_24 O 0.8181(3) 0.0380(4) 0.1595(3)
O24_25 O 0.4319(3) 0.0905(3) 0.0380(4)
Se2_25 Se 0.3967(5) 0.0726(4) 0.0726(4)
O25_25 O 0.366(9) 0.045(5) 0.045(5)
O26_25 O 0.4319(3) 0.0380(4) 0.0905(3)
O24_26 O 0.3405(3) 0.6819(3) 0.9620(4)
Se2_26 Se 0.3226(4) 0.6467(5) 0.9274(4)
O25_26 O 0.295(5) 0.616(9) 0.955(5)
O26_26 O 0.2880(4) 0.6819(3) 0.9095(3)
O24_27 O 0.4620(4) 0.8405(3) 0.6819(3)
Se2_27 Se 0.4274(4) 0.8226(4) 0.6467(5)
O25_27 O 0.455(5) 0.795(5) 0.616(9)
O26_27 O 0.4095(3) 0.7880(4) 0.6819(3)
O24_28 O 0.5380(4) 0.9319(3) 0.0905(3)
Se2_28 Se 0.5726(4) 0.8967(5) 0.0726(4)
O25_28 O 0.545(5) 0.866(9) 0.045(5)
O26_28 O 0.5905(3) 0.9319(3) 0.0380(4)
O24_29 O 0.3181(3) 0.6595(3) 0.0380(4)
Se2_29 Se 0.3533(5) 0.6774(4) 0.0726(4)
O25_29 O 0.384(9) 0.705(5) 0.045(5)
O26_29 O 0.3181(3) 0.7120(4) 0.0905(3)
O24_30 O 0.4095(3) 0.0681(3) 0.9620(4)
Se2_30 Se 0.4274(4) 0.1033(5) 0.9274(4)
O25_30 O 0.455(5) 0.134(9) 0.955(5)
O26_30 O 0.4620(4) 0.0681(3) 0.9095(3)
O24_31 O 0.5681(3) 0.4620(4) 0.4095(3)
Se2_31 Se 0.6033(5) 0.4274(4) 0.4274(4)
O25_31 O 0.634(9) 0.455(5) 0.455(5)
O26_31 O 0.5681(3) 0.4095(3) 0.4620(4)
O24_32 O 0.9620(4) 0.9095(3) 0.5681(3)
Se2_32 Se 0.9274(4) 0.9274(4) 0.6033(5)
O25_32 O 0.955(5) 0.955(5) 0.634(9)
O26_32 O 0.9095(3) 0.9620(4) 0.5681(3)
O24_33 O 0.2880(4) 0.9095(3) 0.6819(3)
Se2_33 Se 0.3226(4) 0.9274(4) 0.6467(5)
O25_33 O 0.295(5) 0.955(5) 0.616(9)
O26_33 O 0.3405(3) 0.9620(4) 0.6819(3)
O24_34 O 0.2120(4) 0.8181(3) 0.0905(3)
Se2_34 Se 0.1774(4) 0.8533(5) 0.0726(4)
O25_34 O 0.205(5) 0.884(9) 0.045(5)
O26_34 O 0.1595(3) 0.8181(3) 0.0380(4)
O24_35 O 0.5681(3) 0.7880(4) 0.8405(3)
Se2_35 Se 0.6033(5) 0.8226(4) 0.8226(4)
O25_35 O 0.634(9) 0.795(5) 0.795(5)
O26_35 O 0.5681(3) 0.8405(3) 0.7880(4)
O24_36 O 0.1595(3) 0.7120(4) 0.9319(3)
Se2_36 Se 0.1774(4) 0.6774(4) 0.8967(5)
O25_36 O 0.205(5) 0.705(5) 0.866(9)
O26_36 O 0.2120(4) 0.6595(3) 0.9319(3)
O24_37 O 0.4095(3) 0.1819(3) 0.2880(4)
Se2_37 Se 0.4274(4) 0.1467(5) 0.3226(4)
O25_37 O 0.455(5) 0.116(9) 0.295(5)
O26_37 O 0.4620(4) 0.1819(3) 0.3405(3)
O24_38 O 0.3181(3) 0.5905(3) 0.2120(4)
Se2_38 Se 0.3533(5) 0.5726(4) 0.1774(4)
O25_38 O 0.384(9) 0.545(5) 0.205(5)
O26_38 O 0.3181(3) 0.5380(4) 0.1595(3)
O24_39 O 0.9319(3) 0.5905(3) 0.0380(4)
Se2_39 Se 0.8967(5) 0.5726(4) 0.0726(4)
O25_39 O 0.866(9) 0.545(5) 0.045(5)
O26_39 O 0.9319(3) 0.5380(4) 0.0905(3)
O24_40 O 0.8405(3) 0.1819(3) 0.9620(4)
Se2_40 Se 0.8226(4) 0.1467(5) 0.9274(4)
O25_40 O 0.795(5) 0.116(9) 0.955(5)
O26_40 O 0.7880(4) 0.1819(3) 0.9095(3)
O24_41 O 0.9620(4) 0.3405(3) 0.6819(3)
Se2_41 Se 0.9274(4) 0.3226(4) 0.6467(5)
O25_41 O 0.955(5) 0.295(5) 0.616(9)
O26_41 O 0.9095(3) 0.2880(4) 0.6819(3)
O24_42 O 0.0380(4) 0.4319(3) 0.0905(3)
Se2_42 Se 0.0726(4) 0.3967(5) 0.0726(4)
O25_42 O 0.045(5) 0.366(9) 0.045(5)
O26_42 O 0.0905(3) 0.4319(3) 0.0380(4)
O24_43 O 0.3181(3) 0.1595(3) 0.5380(4)
Se2_43 Se 0.3533(5) 0.1774(4) 0.5726(4)
O25_43 O 0.384(9) 0.205(5) 0.545(5)
O26_43 O 0.3181(3) 0.2120(4) 0.5905(3)
O24_44 O 0.4095(3) 0.5681(3) 0.4620(4)
Se2_44 Se 0.4274(4) 0.6033(5) 0.4274(4)
O25_44 O 0.455(5) 0.634(9) 0.455(5)
O26_44 O 0.4620(4) 0.5681(3) 0.4095(3)
O24_45 O 0.5681(3) 0.9620(4) 0.9095(3)
Se2_45 Se 0.6033(5) 0.9274(4) 0.9274(4)
O25_45 O 0.634(9) 0.955(5) 0.955(5)
O26_45 O 0.5681(3) 0.9095(3) 0.9620(4)
O24_46 O 0.9620(4) 0.4095(3) 0.0681(3)
Se2_46 Se 0.9274(4) 0.4274(4) 0.1033(5)
O25_46 O 0.955(5) 0.455(5) 0.134(9)
O26_46 O 0.9095(3) 0.4620(4) 0.0681(3)
O24_47 O 0.2880(4) 0.4095(3) 0.1819(3)
Se2_47 Se 0.3226(4) 0.4274(4) 0.1467(5)
O25_47 O 0.295(5) 0.455(5) 0.116(9)
O26_47 O 0.3405(3) 0.4620(4) 0.1819(3)
O24_48 O 0.2120(4) 0.3181(3) 0.5905(3)
Se2_48 Se 0.1774(4) 0.3533(5) 0.5726(4)
O25_48 O 0.205(5) 0.384(9) 0.545(5)
O26_48 O 0.1595(3) 0.3181(3) 0.5380(4)
O24_49 O 0.5681(3) 0.2880(4) 0.3405(3)
Se2_49 Se 0.6033(5) 0.3226(4) 0.3226(4)
O25_49 O 0.634(9) 0.295(5) 0.295(5)
O26_49 O 0.5681(3) 0.3405(3) 0.2880(4)
O24_50 O 0.1595(3) 0.2120(4) 0.4319(3)
Se2_50 Se 0.1774(4) 0.1774(4) 0.3967(5)
O25_50 O 0.205(5) 0.205(5) 0.366(9)
O26_50 O 0.2120(4) 0.1595(3) 0.4319(3)
O24_51 O 0.4095(3) 0.6819(3) 0.7880(4)
Se2_51 Se 0.4274(4) 0.6467(5) 0.8226(4)
O25_51 O 0.455(5) 0.616(9) 0.795(5)
O26_51 O 0.4620(4) 0.6819(3) 0.8405(3)
O24_52 O 0.3181(3) 0.0905(3) 0.7120(4)
Se2_52 Se 0.3533(5) 0.0726(4) 0.6774(4)
O25_52 O 0.384(9) 0.045(5) 0.705(5)
O26_52 O 0.3181(3) 0.0380(4) 0.6595(3)
O24_53 O 0.9319(3) 0.0905(3) 0.5380(4)
Se2_53 Se 0.8967(5) 0.0726(4) 0.5726(4)
O25_53 O 0.866(9) 0.045(5) 0.545(5)
O26_53 O 0.9319(3) 0.0380(4) 0.5905(3)
O24_54 O 0.8405(3) 0.6819(3) 0.4620(4)
Se2_54 Se 0.8226(4) 0.6467(5) 0.4274(4)
O25_54 O 0.795(5) 0.616(9) 0.455(5)
O26_54 O 0.7880(4) 0.6819(3) 0.4095(3)
O24_55 O 0.9620(4) 0.8405(3) 0.1819(3)
Se2_55 Se 0.9274(4) 0.8226(4) 0.1467(5)
O25_55 O 0.955(5) 0.795(5) 0.116(9)
O26_55 O 0.9095(3) 0.7880(4) 0.1819(3)
O24_56 O 0.0380(4) 0.9319(3) 0.5905(3)
Se2_56 Se 0.0726(4) 0.8967(5) 0.5726(4)
O25_56 O 0.045(5) 0.866(9) 0.545(5)
O26_56 O 0.0905(3) 0.9319(3) 0.5380(4)
O24_57 O 0.1819(3) 0.4620(4) 0.3405(3)
Se2_57 Se 0.1467(5) 0.4274(4) 0.3226(4)
O25_57 O 0.116(9) 0.455(5) 0.295(5)
O26_57 O 0.1819(3) 0.4095(3) 0.2880(4)
O24_58 O 0.0905(3) 0.5380(4) 0.9319(3)
Se2_58 Se 0.0726(4) 0.5726(4) 0.8967(5)
O25_58 O 0.045(5) 0.545(5) 0.866(9)
O26_58 O 0.0380(4) 0.5905(3) 0.9319(3)
O24_59 O 0.2120(4) 0.9319(3) 0.6595(3)
Se2_59 Se 0.1774(4) 0.8967(5) 0.6774(4)
O25_59 O 0.205(5) 0.866(9) 0.705(5)
O26_59 O 0.1595(3) 0.9319(3) 0.7120(4)
O24_60 O 0.0905(3) 0.2120(4) 0.8181(3)
Se2_60 Se 0.0726(4) 0.1774(4) 0.8533(5)
O25_60 O 0.045(5) 0.205(5) 0.884(9)
O26_60 O 0.0380(4) 0.1595(3) 0.8181(3)
O24_61 O 0.1819(3) 0.2880(4) 0.4095(3)
Se2_61 Se 0.1467(5) 0.3226(4) 0.4274(4)
O25_61 O 0.116(9) 0.295(5) 0.455(5)
O26_61 O 0.1819(3) 0.3405(3) 0.4620(4)
O24_62 O 0.2880(4) 0.3405(3) 0.5681(3)
Se2_62 Se 0.3226(4) 0.3226(4) 0.6033(5)
O25_62 O 0.295(5) 0.295(5) 0.634(9)
O26_62 O 0.3405(3) 0.2880(4) 0.5681(3)
O24_63 O 0.9319(3) 0.6595(3) 0.2120(4)
Se2_63 Se 0.8967(5) 0.6774(4) 0.1774(4)
O25_63 O 0.866(9) 0.705(5) 0.205(5)
O26_63 O 0.9319(3) 0.7120(4) 0.1595(3)
O24_64 O 0.3405(3) 0.5681(3) 0.2880(4)
Se2_64 Se 0.3226(4) 0.6033(5) 0.3226(4)
O25_64 O 0.295(5) 0.634(9) 0.295(5)
O26_64 O 0.2880(4) 0.5681(3) 0.3405(3)
O24_65 O 0.6595(3) 0.5380(4) 0.8181(3)
Se2_65 Se 0.6774(4) 0.5726(4) 0.8533(5)
O25_65 O 0.705(5) 0.545(5) 0.884(9)
O26_65 O 0.7120(4) 0.5905(3) 0.8181(3)
O24_66 O 0.5380(4) 0.8181(3) 0.6595(3)
Se2_66 Se 0.5726(4) 0.8533(5) 0.6774(4)
O25_66 O 0.545(5) 0.884(9) 0.705(5)
O26_66 O 0.5905(3) 0.8181(3) 0.7120(4)
O24_67 O 0.1819(3) 0.9620(4) 0.8405(3)
Se2_67 Se 0.1467(5) 0.9274(4) 0.8226(4)
O25_67 O 0.116(9) 0.955(5) 0.795(5)
O26_67 O 0.1819(3) 0.9095(3) 0.7880(4)
O24_68 O 0.0905(3) 0.0380(4) 0.4319(3)
Se2_68 Se 0.0726(4) 0.0726(4) 0.3967(5)
O25_68 O 0.045(5) 0.045(5) 0.366(9)
O26_68 O 0.0380(4) 0.0905(3) 0.4319(3)
O24_69 O 0.2120(4) 0.4319(3) 0.1595(3)
Se2_69 Se 0.1774(4) 0.3967(5) 0.1774(4)
O25_69 O 0.205(5) 0.366(9) 0.205(5)
O26_69 O 0.1595(3) 0.4319(3) 0.2120(4)
O24_70 O 0.0905(3) 0.7120(4) 0.3181(3)
Se2_70 Se 0.0726(4) 0.6774(4) 0.3533(5)
O25_70 O 0.045(5) 0.705(5) 0.384(9)
O26_70 O 0.0380(4) 0.6595(3) 0.3181(3)
O24_71 O 0.1819(3) 0.7880(4) 0.9095(3)
Se2_71 Se 0.1467(5) 0.8226(4) 0.9274(4)
O25_71 O 0.116(9) 0.795(5) 0.955(5)
O26_71 O 0.1819(3) 0.8405(3) 0.9620(4)
O24_72 O 0.2880(4) 0.8405(3) 0.0681(3)
Se2_72 Se 0.3226(4) 0.8226(4) 0.1033(5)
O25_72 O 0.295(5) 0.795(5) 0.134(9)
O26_72 O 0.3405(3) 0.7880(4) 0.0681(3)
O24_73 O 0.9319(3) 0.1595(3) 0.7120(4)
Se2_73 Se 0.8967(5) 0.1774(4) 0.6774(4)
O25_73 O 0.866(9) 0.205(5) 0.705(5)
O26_73 O 0.9319(3) 0.2120(4) 0.6595(3)
O24_74 O 0.3405(3) 0.0681(3) 0.7880(4)
Se2_74 Se 0.3226(4) 0.1033(5) 0.8226(4)
O25_74 O 0.295(5) 0.134(9) 0.795(5)
O26_74 O 0.2880(4) 0.0681(3) 0.8405(3)
O24_75 O 0.6595(3) 0.0380(4) 0.3181(3)
Se2_75 Se 0.6774(4) 0.0726(4) 0.3533(5)
O25_75 O 0.705(5) 0.045(5) 0.384(9)
O26_75 O 0.7120(4) 0.0905(3) 0.3181(3)
O24_76 O 0.5380(4) 0.3181(3) 0.1595(3)
Se2_76 Se 0.5726(4) 0.3533(5) 0.1774(4)
O25_76 O 0.545(5) 0.384(9) 0.205(5)
O26_76 O 0.5905(3) 0.3181(3) 0.2120(4)
O24_77 O 0.6819(3) 0.4620(4) 0.8405(3)
Se2_77 Se 0.6467(5) 0.4274(4) 0.8226(4)
O25_77 O 0.616(9) 0.455(5) 0.795(5)
O26_77 O 0.6819(3) 0.4095(3) 0.7880(4)
O24_78 O 0.5905(3) 0.5380(4) 0.4319(3)
Se2_78 Se 0.5726(4) 0.5726(4) 0.3967(5)
O25_78 O 0.545(5) 0.545(5) 0.366(9)
O26_78 O 0.5380(4) 0.5905(3) 0.4319(3)
O24_79 O 0.7120(4) 0.9319(3) 0.1595(3)
Se2_79 Se 0.6774(4) 0.8967(5) 0.1774(4)
O25_79 O 0.705(5) 0.866(9) 0.205(5)
O26_79 O 0.6595(3) 0.9319(3) 0.2120(4)
O24_80 O 0.5905(3) 0.2120(4) 0.3181(3)
Se2_80 Se 0.5726(4) 0.1774(4) 0.3533(5)
O25_80 O 0.545(5) 0.205(5) 0.384(9)
O26_80 O 0.5380(4) 0.1595(3) 0.3181(3)
O24_81 O 0.6819(3) 0.2880(4) 0.9095(3)
Se2_81 Se 0.6467(5) 0.3226(4) 0.9274(4)
O25_81 O 0.616(9) 0.295(5) 0.955(5)
O26_81 O 0.6819(3) 0.3405(3) 0.9620(4)
O24_82 O 0.7880(4) 0.3405(3) 0.0681(3)
Se2_82 Se 0.8226(4) 0.3226(4) 0.1033(5)
O25_82 O 0.795(5) 0.295(5) 0.134(9)
O26_82 O 0.8405(3) 0.2880(4) 0.0681(3)
O24_83 O 0.4319(3) 0.6595(3) 0.7120(4)
Se2_83 Se 0.3967(5) 0.6774(4) 0.6774(4)
O25_83 O 0.366(9) 0.705(5) 0.705(5)
O26_83 O 0.4319(3) 0.7120(4) 0.6595(3)
O24_84 O 0.8405(3) 0.5681(3) 0.7880(4)
Se2_84 Se 0.8226(4) 0.6033(5) 0.8226(4)
O25_84 O 0.795(5) 0.634(9) 0.795(5)
O26_84 O 0.7880(4) 0.5681(3) 0.8405(3)
O24_85 O 0.1595(3) 0.5380(4) 0.3181(3)
Se2_85 Se 0.1774(4) 0.5726(4) 0.3533(5)
O25_85 O 0.205(5) 0.545(5) 0.384(9)
O26_85 O 0.2120(4) 0.5905(3) 0.3181(3)
O24_86 O 0.0380(4) 0.8181(3) 0.1595(3)
Se2_86 Se 0.0726(4) 0.8533(5) 0.1774(4)
O25_86 O 0.045(5) 0.884(9) 0.205(5)
O26_86 O 0.0905(3) 0.8181(3) 0.2120(4)
O24_87 O 0.6819(3) 0.9620(4) 0.3405(3)
Se2_87 Se 0.6467(5) 0.9274(4) 0.3226(4)
O25_87 O 0.616(9) 0.955(5) 0.295(5)
O26_87 O 0.6819(3) 0.9095(3) 0.2880(4)
O24_88 O 0.5905(3) 0.0380(4) 0.9319(3)
Se2_88 Se 0.5726(4) 0.0726(4) 0.8967(5)
O25_88 O 0.545(5) 0.045(5) 0.866(9)
O26_88 O 0.5380(4) 0.0905(3) 0.9319(3)
O24_89 O 0.7120(4) 0.4319(3) 0.6595(3)
Se2_89 Se 0.6774(4) 0.3967(5) 0.6774(4)
O25_89 O 0.705(5) 0.366(9) 0.705(5)
O26_89 O 0.6595(3) 0.4319(3) 0.7120(4)
O24_90 O 0.5905(3) 0.7120(4) 0.8181(3)
Se2_90 Se 0.5726(4) 0.6774(4) 0.8533(5)
O25_90 O 0.545(5) 0.705(5) 0.884(9)
O26_90 O 0.5380(4) 0.6595(3) 0.8181(3)
O24_91 O 0.6819(3) 0.7880(4) 0.4095(3)
Se2_91 Se 0.6467(5) 0.8226(4) 0.4274(4)
O25_91 O 0.616(9) 0.795(5) 0.455(5)
O26_91 O 0.6819(3) 0.8405(3) 0.4620(4)
O24_92 O 0.7880(4) 0.8405(3) 0.5681(3)
Se2_92 Se 0.8226(4) 0.8226(4) 0.6033(5)
O25_92 O 0.795(5) 0.795(5) 0.634(9)
O26_92 O 0.8405(3) 0.7880(4) 0.5681(3)
O24_93 O 0.4319(3) 0.1595(3) 0.2120(4)
Se2_93 Se 0.3967(5) 0.1774(4) 0.1774(4)
O25_93 O 0.366(9) 0.205(5) 0.205(5)
O26_93 O 0.4319(3) 0.2120(4) 0.1595(3)
O24_94 O 0.8405(3) 0.0681(3) 0.2880(4)
Se2_94 Se 0.8226(4) 0.1033(5) 0.3226(4)
O25_94 O 0.795(5) 0.134(9) 0.295(5)
O26_94 O 0.7880(4) 0.0681(3) 0.3405(3)
O24_95 O 0.1595(3) 0.0380(4) 0.8181(3)
Se2_95 Se 0.1774(4) 0.0726(4) 0.8533(5)
O25_95 O 0.205(5) 0.045(5) 0.884(9)
O26_95 O 0.2120(4) 0.0905(3) 0.8181(3)
O24_96 O 0.0380(4) 0.3181(3) 0.6595(3)
Se2_96 Se 0.0726(4) 0.3533(5) 0.6774(4)
O25_96 O 0.045(5) 0.384(9) 0.705(5)
O26_96 O 0.0905(3) 0.3181(3) 0.7120(4)
O27 O 0.8405(3) 0.4620(4) 0.6819(3)
Se3 Se 0.8226(4) 0.4274(4) 0.6467(5)
O28 O 0.795(5) 0.455(5) 0.616(9)
O29 O 0.7880(4) 0.4095(3) 0.6819(3)
O27_2 O 0.7120(4) 0.0905(3) 0.3181(3)
Se3_2 Se 0.6774(4) 0.0726(4) 0.3533(5)
O28_2 O 0.705(5) 0.045(5) 0.384(9)
O29_2 O 0.6595(3) 0.0380(4) 0.3181(3)
O27_3 O 0.0905(3) 0.3181(3) 0.7120(4)
Se3_3 Se 0.0726(4) 0.3533(5) 0.6774(4)
O28_3 O 0.045(5) 0.384(9) 0.705(5)
O29_3 O 0.0380(4) 0.3181(3) 0.6595(3)
O27_4 O 0.3181(3) 0.7120(4) 0.0905(3)
Se3_4 Se 0.3533(5) 0.6774(4) 0.0726(4)
O28_4 O 0.384(9) 0.705(5) 0.045(5)
O29_4 O 0.3181(3) 0.6595(3) 0.0380(4)
O27_5 O 0.9319(3) 0.7120(4) 0.1595(3)
Se3_5 Se 0.8967(5) 0.6774(4) 0.1774(4)
O28_5 O 0.866(9) 0.705(5) 0.205(5)
O29_5 O 0.9319(3) 0.6595(3) 0.2120(4)
O27_6 O 0.5681(3) 0.8405(3) 0.7880(4)
Se3_6 Se 0.6033(5) 0.8226(4) 0.8226(4)
O28_6 O 0.634(9) 0.795(5) 0.795(5)
O29_6 O 0.5681(3) 0.7880(4) 0.8405(3)
O27_7 O 0.0905(3) 0.9319(3) 0.5380(4)
Se3_7 Se 0.0726(4) 0.8967(5) 0.5726(4)
O28_7 O 0.045(5) 0.866(9) 0.545(5)
O29_7 O 0.0380(4) 0.9319(3) 0.5905(3)
O27_8 O 0.4620(4) 0.5681(3) 0.4095(3)
Se3_8 Se 0.4274(4) 0.6033(5) 0.4274(4)
O28_8 O 0.455(5) 0.634(9) 0.455(5)
O29_8 O 0.4095(3) 0.5681(3) 0.4620(4)
O27_9 O 0.7120(4) 0.1595(3) 0.9319(3)
Se3_9 Se 0.6774(4) 0.1774(4) 0.8967(5)
O28_9 O 0.705(5) 0.205(5) 0.866(9)
O29_9 O 0.6595(3) 0.2120(4) 0.9319(3)
O27_10 O 0.8405(3) 0.7880(4) 0.5681(3)
Se3_10 Se 0.8226(4) 0.8226(4) 0.6033(5)
O28_10 O 0.795(5) 0.795(5) 0.634(9)
O29_10 O 0.7880(4) 0.8405(3) 0.5681(3)
O27_11 O 0.4095(3) 0.7880(4) 0.6819(3)
Se3_11 Se 0.4274(4) 0.8226(4) 0.6467(5)
O28_11 O 0.455(5) 0.795(5) 0.616(9)
O29_11 O 0.4620(4) 0.8405(3) 0.6819(3)
O27_12 O 0.5380(4) 0.1595(3) 0.3181(3)
Se3_12 Se 0.5726(4) 0.1774(4) 0.3533(5)
O28_12 O 0.545(5) 0.205(5) 0.384(9)
O29_12 O 0.5905(3) 0.2120(4) 0.3181(3)
O27_13 O 0.3181(3) 0.5380(4) 0.1595(3)
Se3_13 Se 0.3533(5) 0.5726(4) 0.1774(4)
O28_13 O 0.384(9) 0.545(5) 0.205(5)
O29_13 O 0.3181(3) 0.5905(3) 0.2120(4)
O27_14 O 0.6819(3) 0.4095(3) 0.7880(4)
Se3_14 Se 0.6467(5) 0.4274(4) 0.8226(4)
O28_14 O 0.616(9) 0.455(5) 0.795(5)
O29_14 O 0.6819(3) 0.4620(4) 0.8405(3)
O27_15 O 0.8405(3) 0.9620(4) 0.1819(3)
Se3_15 Se 0.8226(4) 0.9274(4) 0.1467(5)
O28_15 O 0.795(5) 0.955(5) 0.116(9)
O29_15 O 0.7880(4) 0.9095(3) 0.1819(3)
O27_16 O 0.7120(4) 0.5905(3) 0.8181(3)
Se3_16 Se 0.6774(4) 0.5726(4) 0.8533(5)
O28_16 O 0.705(5) 0.545(5) 0.884(9)
O29_16 O 0.6595(3) 0.5380(4) 0.8181(3)
O27_17 O 0.0905(3) 0.8181(3) 0.2120(4)
Se3_17 Se 0.0726(4) 0.8533(5) 0.1774(4)
O28_17 O 0.045(5) 0.884(9) 0.205(5)
O29_17 O 0.0380(4) 0.8181(3) 0.1595(3)
O27_18 O 0.3181(3) 0.2120(4) 0.5905(3)
Se3_18 Se 0.3533(5) 0.1774(4) 0.5726(4)
O28_18 O 0.384(9) 0.205(5) 0.545(5)
O29_18 O 0.3181(3) 0.1595(3) 0.5380(4)
O27_19 O 0.9319(3) 0.2120(4) 0.6595(3)
Se3_19 Se 0.8967(5) 0.1774(4) 0.6774(4)
O28_19 O 0.866(9) 0.205(5) 0.705(5)
O29_19 O 0.9319(3) 0.1595(3) 0.7120(4)
O27_20 O 0.5681(3) 0.3405(3) 0.2880(4)
Se3_20 Se 0.6033(5) 0.3226(4) 0.3226(4)
O28_20 O 0.634(9) 0.295(5) 0.295(5)
O29_20 O 0.5681(3) 0.2880(4) 0.3405(3)
O27_21 O 0.0905(3) 0.4319(3) 0.0380(4)
Se3_21 Se 0.0726(4) 0.3967(5) 0.0726(4)
O28_21 O 0.045(5) 0.366(9) 0.045(5)
O29_21 O 0.0380(4) 0.4319(3) 0.0905(3)
O27_22 O 0.4620(4) 0.0681(3) 0.9095(3)
Se3_22 Se 0.4274(4) 0.1033(5) 0.9274(4)
O28_22 O 0.455(5) 0.134(9) 0.955(5)
O29_22 O 0.4095(3) 0.0681(3) 0.9620(4)
O27_23 O 0.7120(4) 0.6595(3) 0.4319(3)
Se3_23 Se 0.6774(4) 0.6774(4) 0.3967(5)
O28_23 O 0.705(5) 0.705(5) 0.366(9)
O29_23 O 0.6595(3) 0.7120(4) 0.4319(3)
O27_24 O 0.8405(3) 0.2880(4) 0.0681(3)
Se3_24 Se 0.8226(4) 0.3226(4) 0.1033(5)
O28_24 O 0.795(5) 0.295(5) 0.134(9)
O29_24 O 0.7880(4) 0.3405(3) 0.0681(3)
O27_25 O 0.4095(3) 0.2880(4) 0.1819(3)
Se3_25 Se 0.4274(4) 0.3226(4) 0.1467(5)
O28_25 O 0.455(5) 0.295(5) 0.116(9)
O29_25 O 0.4620(4) 0.3405(3) 0.1819(3)
O27_26 O 0.5380(4) 0.6595(3) 0.8181(3)
Se3_26 Se 0.5726(4) 0.6774(4) 0.8533(5)
O28_26 O 0.545(5) 0.705(5) 0.884(9)
O29_26 O 0.5905(3) 0.7120(4) 0.8181(3)
O27_27 O 0.3181(3) 0.0380(4) 0.6595(3)
Se3_27 Se 0.3533(5) 0.0726(4) 0.6774(4)
O28_27 O 0.384(9) 0.045(5) 0.705(5)
O29_27 O 0.3181(3) 0.0905(3) 0.7120(4)
O27_28 O 0.6819(3) 0.9095(3) 0.2880(4)
Se3_28 Se 0.6467(5) 0.9274(4) 0.3226(4)
O28_28 O 0.616(9) 0.955(5) 0.295(5)
O29_28 O 0.6819(3) 0.9620(4) 0.3405(3)
O27_29 O 0.3405(3) 0.4620(4) 0.1819(3)
Se3_29 Se 0.3226(4) 0.4274(4) 0.1467(5)
O28_29 O 0.295(5) 0.455(5) 0.116(9)
O29_29 O 0.2880(4) 0.4095(3) 0.1819(3)
O27_30 O 0.2120(4) 0.0905(3) 0.8181(3)
Se3_30 Se 0.1774(4) 0.0726(4) 0.8533(5)
O28_30 O 0.205(5) 0.045(5) 0.884(9)
O29_30 O 0.1595(3) 0.0380(4) 0.8181(3)
O27_31 O 0.5905(3) 0.3181(3) 0.2120(4)
Se3_31 Se 0.5726(4) 0.3533(5) 0.1774(4)
O28_31 O 0.545(5) 0.384(9) 0.205(5)
O29_31 O 0.5380(4) 0.3181(3) 0.1595(3)
O27_32 O 0.8181(3) 0.7120(4) 0.5905(3)
Se3_32 Se 0.8533(5) 0.6774(4) 0.5726(4)
O28_32 O 0.884(9) 0.705(5) 0.545(5)
O29_32 O 0.8181(3) 0.6595(3) 0.5380(4)
O27_33 O 0.4319(3) 0.7120(4) 0.6595(3)
Se3_33 Se 0.3967(5) 0.6774(4) 0.6774(4)
O28_33 O 0.366(9) 0.705(5) 0.705(5)
O29_33 O 0.4319(3) 0.6595(3) 0.7120(4)
O27_34 O 0.0681(3) 0.8405(3) 0.2880(4)
Se3_34 Se 0.1033(5) 0.8226(4) 0.3226(4)
O28_34 O 0.134(9) 0.795(5) 0.295(5)
O29_34 O 0.0681(3) 0.7880(4) 0.3405(3)
O27_35 O 0.5905(3) 0.9319(3) 0.0380(4)
Se3_35 Se 0.5726(4) 0.8967(5) 0.0726(4)
O28_35 O 0.545(5) 0.866(9) 0.045(5)
O29_35 O 0.5380(4) 0.9319(3) 0.0905(3)
O27_36 O 0.9620(4) 0.5681(3) 0.9095(3)
Se3_36 Se 0.9274(4) 0.6033(5) 0.9274(4)
O28_36 O 0.955(5) 0.634(9) 0.955(5)
O29_36 O 0.9095(3) 0.5681(3) 0.9620(4)
O27_37 O 0.2120(4) 0.1595(3) 0.4319(3)
Se3_37 Se 0.1774(4) 0.1774(4) 0.3967(5)
O28_37 O 0.205(5) 0.205(5) 0.366(9)
O29_37 O 0.1595(3) 0.2120(4) 0.4319(3)
O27_38 O 0.3405(3) 0.7880(4) 0.0681(3)
Se3_38 Se 0.3226(4) 0.8226(4) 0.1033(5)
O28_38 O 0.295(5) 0.795(5) 0.134(9)
O29_38 O 0.2880(4) 0.8405(3) 0.0681(3)
O27_39 O 0.9095(3) 0.7880(4) 0.1819(3)
Se3_39 Se 0.9274(4) 0.8226(4) 0.1467(5)
O28_39 O 0.955(5) 0.795(5) 0.116(9)
O29_39 O 0.9620(4) 0.8405(3) 0.1819(3)
O27_40 O 0.0380(4) 0.1595(3) 0.8181(3)
Se3_40 Se 0.0726(4) 0.1774(4) 0.8533(5)
O28_40 O 0.045(5) 0.205(5) 0.884(9)
O29_40 O 0.0905(3) 0.2120(4) 0.8181(3)
O27_41 O 0.8181(3) 0.5380(4) 0.6595(3)
Se3_41 Se 0.8533(5) 0.5726(4) 0.6774(4)
O28_41 O 0.884(9) 0.545(5) 0.705(5)
O29_41 O 0.8181(3) 0.5905(3) 0.7120(4)
O27_42 O 0.1819(3) 0.4095(3) 0.2880(4)
Se3_42 Se 0.1467(5) 0.4274(4) 0.3226(4)
O28_42 O 0.116(9) 0.455(5) 0.295(5)
O29_42 O 0.1819(3) 0.4620(4) 0.3405(3)
O27_43 O 0.3405(3) 0.9620(4) 0.6819(3)
Se3_43 Se 0.3226(4) 0.9274(4) 0.6467(5)
O28_43 O 0.295(5) 0.955(5) 0.616(9)
O29_43 O 0.2880(4) 0.9095(3) 0.6819(3)
O27_44 O 0.2120(4) 0.5905(3) 0.3181(3)
Se3_44 Se 0.1774(4) 0.5726(4) 0.3533(5)
O28_44 O 0.205(5) 0.545(5) 0.384(9)
O29_44 O 0.1595(3) 0.5380(4) 0.3181(3)
O27_45 O 0.5905(3) 0.8181(3) 0.7120(4)
Se3_45 Se 0.5726(4) 0.8533(5) 0.6774(4)
O28_45 O 0.545(5) 0.884(9) 0.705(5)
O29_45 O 0.5380(4) 0.8181(3) 0.6595(3)
O27_46 O 0.8181(3) 0.2120(4) 0.0905(3)
Se3_46 Se 0.8533(5) 0.1774(4) 0.0726(4)
O28_46 O 0.884(9) 0.205(5) 0.045(5)
O29_46 O 0.8181(3) 0.1595(3) 0.0380(4)
O27_47 O 0.4319(3) 0.2120(4) 0.1595(3)
Se3_47 Se 0.3967(5) 0.1774(4) 0.1774(4)
O28_47 O 0.366(9) 0.205(5) 0.205(5)
O29_47 O 0.4319(3) 0.1595(3) 0.2120(4)
O27_48 O 0.0681(3) 0.3405(3) 0.7880(4)
Se3_48 Se 0.1033(5) 0.3226(4) 0.8226(4)
O28_48 O 0.134(9) 0.295(5) 0.795(5)
O29_48 O 0.0681(3) 0.2880(4) 0.8405(3)
O27_49 O 0.5905(3) 0.4319(3) 0.5380(4)
Se3_49 Se 0.5726(4) 0.3967(5) 0.5726(4)
O28_49 O 0.545(5) 0.366(9) 0.545(5)
O29_49 O 0.5380(4) 0.4319(3) 0.5905(3)
O27_50 O 0.9620(4) 0.0681(3) 0.4095(3)
Se3_50 Se 0.9274(4) 0.1033(5) 0.4274(4)
O28_50 O 0.955(5) 0.134(9) 0.455(5)
O29_50 O 0.9095(3) 0.0681(3) 0.4620(4)
O27_51 O 0.2120(4) 0.6595(3) 0.9319(3)
Se3_51 Se 0.1774(4) 0.6774(4) 0.8967(5)
O28_51 O 0.205(5) 0.705(5) 0.866(9)
O29_51 O 0.1595(3) 0.7120(4) 0.9319(3)
O27_52 O 0.3405(3) 0.2880(4) 0.5681(3)
Se3_52 Se 0.3226(4) 0.3226(4) 0.6033(5)
O28_52 O 0.295(5) 0.295(5) 0.634(9)
O29_52 O 0.2880(4) 0.3405(3) 0.5681(3)
O27_53 O 0.9095(3) 0.2880(4) 0.6819(3)
Se3_53 Se 0.9274(4) 0.3226(4) 0.6467(5)
O28_53 O 0.955(5) 0.295(5) 0.616(9)
O29_53 O 0.9620(4) 0.3405(3) 0.6819(3)
O27_54 O 0.0380(4) 0.6595(3) 0.3181(3)
Se3_54 Se 0.0726(4) 0.6774(4) 0.3533(5)
O28_54 O 0.045(5) 0.705(5) 0.384(9)
O29_54 O 0.0905(3) 0.7120(4) 0.3181(3)
O27_55 O 0.8181(3) 0.0380(4) 0.1595(3)
Se3_55 Se 0.8533(5) 0.0726(4) 0.1774(4)
O28_55 O 0.884(9) 0.045(5) 0.205(5)
O29_55 O 0.8181(3) 0.0905(3) 0.2120(4)
O27_56 O 0.1819(3) 0.9095(3) 0.7880(4)
Se3_56 Se 0.1467(5) 0.9274(4) 0.8226(4)
O28_56 O 0.116(9) 0.955(5) 0.795(5)
O29_56 O 0.1819(3) 0.9620(4) 0.8405(3)
O27_57 O 0.1595(3) 0.3181(3) 0.5380(4)
Se3_57 Se 0.1774(4) 0.3533(5) 0.5726(4)
O28_57 O 0.205(5) 0.384(9) 0.545(5)
O29_57 O 0.2120(4) 0.3181(3) 0.5905(3)
O27_58 O 0.2880(4) 0.6819(3) 0.9095(3)
Se3_58 Se 0.3226(4) 0.6467(5) 0.9274(4)
O28_58 O 0.295(5) 0.616(9) 0.955(5)
O29_58 O 0.3405(3) 0.6819(3) 0.9620(4)
O27_59 O 0.0681(3) 0.9095(3) 0.4620(4)
Se3_59 Se 0.1033(5) 0.9274(4) 0.4274(4)
O28_59 O 0.134(9) 0.955(5) 0.455(5)
O29_59 O 0.0681(3) 0.9620(4) 0.4095(3)
O27_60 O 0.2880(4) 0.0681(3) 0.8405(3)
Se3_60 Se 0.3226(4) 0.1033(5) 0.8226(4)
O28_60 O 0.295(5) 0.134(9) 0.795(5)
O29_60 O 0.3405(3) 0.0681(3) 0.7880(4)
O27_61 O 0.1595(3) 0.4319(3) 0.2120(4)
Se3_61 Se 0.1774(4) 0.3967(5) 0.1774(4)
O28_61 O 0.205(5) 0.366(9) 0.205(5)
O29_61 O 0.2120(4) 0.4319(3) 0.1595(3)
O27_62 O 0.4319(3) 0.5380(4) 0.5905(3)
Se3_62 Se 0.3967(5) 0.5726(4) 0.5726(4)
O28_62 O 0.366(9) 0.545(5) 0.545(5)
O29_62 O 0.4319(3) 0.5905(3) 0.5380(4)
O27_63 O 0.9095(3) 0.4620(4) 0.0681(3)
Se3_63 Se 0.9274(4) 0.4274(4) 0.1033(5)
O28_63 O 0.955(5) 0.455(5) 0.134(9)
O29_63 O 0.9620(4) 0.4095(3) 0.0681(3)
O27_64 O 0.5380(4) 0.5905(3) 0.4319(3)
Se3_64 Se 0.5726(4) 0.5726(4) 0.3967(5)
O28_64 O 0.545(5) 0.545(5) 0.366(9)
O29_64 O 0.5905(3) 0.5380(4) 0.4319(3)
O27_65 O 0.4620(4) 0.6819(3) 0.8405(3)
Se3_65 Se 0.4274(4) 0.6467(5) 0.8226(4)
O28_65 O 0.455(5) 0.616(9) 0.795(5)
O29_65 O 0.4095(3) 0.6819(3) 0.7880(4)
O27_66 O 0.6819(3) 0.8405(3) 0.4620(4)
Se3_66 Se 0.6467(5) 0.8226(4) 0.4274(4)
O28_66 O 0.616(9) 0.795(5) 0.455(5)
O29_66 O 0.6819(3) 0.7880(4) 0.4095(3)
O27_67 O 0.1595(3) 0.8181(3) 0.0380(4)
Se3_67 Se 0.1774(4) 0.8533(5) 0.0726(4)
O28_67 O 0.205(5) 0.884(9) 0.045(5)
O29_67 O 0.2120(4) 0.8181(3) 0.0905(3)
O27_68 O 0.2880(4) 0.1819(3) 0.4095(3)
Se3_68 Se 0.3226(4) 0.1467(5) 0.4274(4)
O28_68 O 0.295(5) 0.116(9) 0.455(5)
O29_68 O 0.3405(3) 0.1819(3) 0.4620(4)
O27_69 O 0.0681(3) 0.4095(3) 0.9620(4)
Se3_69 Se 0.1033(5) 0.4274(4) 0.9274(4)
O28_69 O 0.134(9) 0.455(5) 0.955(5)
O29_69 O 0.0681(3) 0.4620(4) 0.9095(3)
O27_70 O 0.2880(4) 0.5681(3) 0.3405(3)
Se3_70 Se 0.3226(4) 0.6033(5) 0.3226(4)
O28_70 O 0.295(5) 0.634(9) 0.295(5)
O29_70 O 0.3405(3) 0.5681(3) 0.2880(4)
O27_71 O 0.1595(3) 0.9319(3) 0.7120(4)
Se3_71 Se 0.1774(4) 0.8967(5) 0.6774(4)
O28_71 O 0.205(5) 0.866(9) 0.705(5)
O29_71 O 0.2120(4) 0.9319(3) 0.6595(3)
O27_72 O 0.4319(3) 0.0380(4) 0.0905(3)
Se3_72 Se 0.3967(5) 0.0726(4) 0.0726(4)
O28_72 O 0.366(9) 0.045(5) 0.045(5)
O29_72 O 0.4319(3) 0.0905(3) 0.0380(4)
O27_73 O 0.9095(3) 0.9620(4) 0.5681(3)
Se3_73 Se 0.9274(4) 0.9274(4) 0.6033(5)
O28_73 O 0.955(5) 0.955(5) 0.634(9)
O29_73 O 0.9620(4) 0.9095(3) 0.5681(3)
O27_74 O 0.5380(4) 0.0905(3) 0.9319(3)
Se3_74 Se 0.5726(4) 0.0726(4) 0.8967(5)
O28_74 O 0.545(5) 0.045(5) 0.866(9)
O29_74 O 0.5905(3) 0.0380(4) 0.9319(3)
O27_75 O 0.4620(4) 0.1819(3) 0.3405(3)
Se3_75 Se 0.4274(4) 0.1467(5) 0.3226(4)
O28_75 O 0.455(5) 0.116(9) 0.295(5)
O29_75 O 0.4095(3) 0.1819(3) 0.2880(4)
O27_76 O 0.6819(3) 0.3405(3) 0.9620(4)
Se3_76 Se 0.6467(5) 0.3226(4) 0.9274(4)
O28_76 O 0.616(9) 0.295(5) 0.955(5)
O29_76 O 0.6819(3) 0.2880(4) 0.9095(3)
O27_77 O 0.6595(3) 0.3181(3) 0.0380(4)
Se3_77 Se 0.6774(4) 0.3533(5) 0.0726(4)
O28_77 O 0.705(5) 0.384(9) 0.045(5)
O29_77 O 0.7120(4) 0.3181(3) 0.0905(3)
O27_78 O 0.7880(4) 0.6819(3) 0.4095(3)
Se3_78 Se 0.8226(4) 0.6467(5) 0.4274(4)
O28_78 O 0.795(5) 0.616(9) 0.455(5)
O29_78 O 0.8405(3) 0.6819(3) 0.4620(4)
O27_79 O 0.5681(3) 0.9095(3) 0.9620(4)
Se3_79 Se 0.6033(5) 0.9274(4) 0.9274(4)
O28_79 O 0.634(9) 0.955(5) 0.955(5)
O29_79 O 0.5681(3) 0.9620(4) 0.9095(3)
O27_80 O 0.7880(4) 0.0681(3) 0.3405(3)
Se3_80 Se 0.8226(4) 0.1033(5) 0.3226(4)
O28_80 O 0.795(5) 0.134(9) 0.295(5)
O29_80 O 0.8405(3) 0.0681(3) 0.2880(4)
O27_81 O 0.6595(3) 0.4319(3) 0.7120(4)
Se3_81 Se 0.6774(4) 0.3967(5) 0.6774(4)
O28_81 O 0.705(5) 0.366(9) 0.705(5)
O29_81 O 0.7120(4) 0.4319(3) 0.6595(3)
O27_82 O 0.9319(3) 0.5380(4) 0.0905(3)
Se3_82 Se 0.8967(5) 0.5726(4) 0.0726(4)
O28_82 O 0.866(9) 0.545(5) 0.045(5)
O29_82 O 0.9319(3) 0.5905(3) 0.0380(4)
O27_83 O 0.4095(3) 0.4620(4) 0.5681(3)
Se3_83 Se 0.4274(4) 0.4274(4) 0.6033(5)
O28_83 O 0.455(5) 0.455(5) 0.634(9)
O29_83 O 0.4620(4) 0.4095(3) 0.5681(3)
O27_84 O 0.0380(4) 0.5905(3) 0.9319(3)
Se3_84 Se 0.0726(4) 0.5726(4) 0.8967(5)
O28_84 O 0.045(5) 0.545(5) 0.866(9)
O29_84 O 0.0905(3) 0.5380(4) 0.9319(3)
O27_85 O 0.9620(4) 0.6819(3) 0.3405(3)
Se3_85 Se 0.9274(4) 0.6467(5) 0.3226(4)
O28_85 O 0.955(5) 0.616(9) 0.295(5)
O29_85 O 0.9095(3) 0.6819(3) 0.2880(4)
O27_86 O 0.1819(3) 0.8405(3) 0.9620(4)
Se3_86 Se 0.1467(5) 0.8226(4) 0.9274(4)
O28_86 O 0.116(9) 0.795(5) 0.955(5)
O29_86 O 0.1819(3) 0.7880(4) 0.9095(3)
O27_87 O 0.6595(3) 0.8181(3) 0.5380(4)
Se3_87 Se 0.6774(4) 0.8533(5) 0.5726(4)
O28_87 O 0.705(5) 0.884(9) 0.545(5)
O29_87 O 0.7120(4) 0.8181(3) 0.5905(3)
O27_88 O 0.7880(4) 0.1819(3) 0.9095(3)
Se3_88 Se 0.8226(4) 0.1467(5) 0.9274(4)
O28_88 O 0.795(5) 0.116(9) 0.955(5)
O29_88 O 0.8405(3) 0.1819(3) 0.9620(4)
O27_89 O 0.5681(3) 0.4095(3) 0.4620(4)
Se3_89 Se 0.6033(5) 0.4274(4) 0.4274(4)
O28_89 O 0.634(9) 0.455(5) 0.455(5)
O29_89 O 0.5681(3) 0.4620(4) 0.4095(3)
O27_90 O 0.7880(4) 0.5681(3) 0.8405(3)
Se3_90 Se 0.8226(4) 0.6033(5) 0.8226(4)
O28_90 O 0.795(5) 0.634(9) 0.795(5)
O29_90 O 0.8405(3) 0.5681(3) 0.7880(4)
O27_91 O 0.6595(3) 0.9319(3) 0.2120(4)
Se3_91 Se 0.6774(4) 0.8967(5) 0.1774(4)
O28_91 O 0.705(5) 0.866(9) 0.205(5)
O29_91 O 0.7120(4) 0.9319(3) 0.1595(3)
O27_92 O 0.9319(3) 0.0380(4) 0.5905(3)
Se3_92 Se 0.8967(5) 0.0726(4) 0.5726(4)
O28_92 O 0.866(9) 0.045(5) 0.545(5)
O29_92 O 0.9319(3) 0.0905(3) 0.5380(4)
O27_93 O 0.4095(3) 0.9620(4) 0.0681(3)
Se3_93 Se 0.4274(4) 0.9274(4) 0.1033(5)
O28_93 O 0.455(5) 0.955(5) 0.134(9)
O29_93 O 0.4620(4) 0.9095(3) 0.0681(3)
O27_94 O 0.0380(4) 0.0905(3) 0.4319(3)
Se3_94 Se 0.0726(4) 0.0726(4) 0.3967(5)
O28_94 O 0.045(5) 0.045(5) 0.366(9)
O29_94 O 0.0905(3) 0.0380(4) 0.4319(3)
O27_95 O 0.9620(4) 0.1819(3) 0.8405(3)
Se3_95 Se 0.9274(4) 0.1467(5) 0.8226(4)
O28_95 O 0.955(5) 0.116(9) 0.795(5)
O29_95 O 0.9095(3) 0.1819(3) 0.7880(4)
O27_96 O 0.1819(3) 0.3405(3) 0.4620(4)
Se3_96 Se 0.1467(5) 0.3226(4) 0.4274(4)
O28_96 O 0.116(9) 0.295(5) 0.455(5)
O29_96 O 0.1819(3) 0.2880(4) 0.4095(3)
loop_
_geom_bond_atom_site_label_1
_geom_bond_atom_site_label_2
_geom_bond_site_symmetry_1
_geom_bond_site_symmetry_2
Hf1 O1 1_555 1_555
O1 C1 1_555 1_555
O2 Hf1 1_555 1_555
O3 Hf1 1_555 1_555
C1 C2 1_555 1_555
C2 C3 1_555 1_555
C3 H1 1_555 1_555
O4 Hf1 1_555 1_555
O5 Hf1 1_555 1_555
O6 Hf1 1_555 1_555
Hf2 O2 1_555 1_555
Hf3 O2 1_555 1_555
Hf4 O3 1_555 1_555
Hf5 O4 1_555 1_555
O7 C1 1_555 1_555
O8 Hf2 1_555 1_555
O9 Hf4 1_555 1_555
O10 Hf4 1_555 1_555
O11 Hf4 1_555 1_555
C4 C2 1_555 1_555
C5 C3 1_555 1_555
C6 C4 1_555 1_555
H2 C4 1_555 1_555
C7 C5 1_555 1_555
C8 C5 1_555 1_555
C9 C6 1_555 1_555
O12 C7 1_555 1_555
O13 C7 1_555 1_555
H3 C8 1_555 1_555
O14 C9 1_555 1_555
O15 C9 1_555 1_555
O16 Hf9 1_555 1_555
Hf6 O12 1_555 1_555
Hf7 O13 1_555 1_555
Hf8 O14 1_555 1_555
Hf9 O15 1_555 1_555
O17 Hf8 1_555 1_555
O18 Hf8 1_555 1_555
O19 Hf9 1_555 1_555
O20 Hf9 1_555 1_555
Hf10 O17 1_555 1_555
O3 Hf2 1_555 1_555
O4 Hf4 1_555 1_555
O6 Hf3 1_555 1_555
O6 Hf5 1_555 1_555
Hf2 O7 1_555 1_555
Hf4 O8 1_555 1_555
Hf5 O11 1_555 1_555
C6 C8 1_555 1_555
Hf9 O17 1_555 1_555
Hf9 O18 1_555 1_555
O20 Hf10 1_555 1_555
O3_2 Hf1_2 1_555 1_555
O4_2 Hf1_2 1_555 1_555
O6_2 Hf1_2 1_555 1_555
Hf4_2 O3_2 1_555 1_555
Hf5_2 O4_2 1_555 1_555
O9_2 Hf4_2 1_555 1_555
O10_2 Hf4_2 1_555 1_555
O11_2 Hf4_2 1_555 1_555
O20_2 Hf9_2 1_555 1_555
Hf10_2 O17_2 1_555 1_555
O4_2 Hf4_2 1_555 1_555
O6_2 Hf5_2 1_555 1_555
Hf5_2 O11_2 1_555 1_555
Hf9_2 O17_2 1_555 1_555
O20_2 Hf10_2 1_555 1_555
O1_2 C1_2 1_555 1_555
C1_2 C2_2 1_555 1_555
C2_2 C3_2 1_555 1_555
C3_2 H1_2 1_555 1_555
Hf2_2 O2_2 1_555 1_555
Hf3_2 O2_2 1_555 1_555
O7_2 C1_2 1_555 1_555
O8_2 Hf2_2 1_555 1_555
C4_2 C2_2 1_555 1_555
C5_2 C3_2 1_555 1_555
C6_2 C4_2 1_555 1_555
H2_2 C4_2 1_555 1_555
C7_2 C5_2 1_555 1_555
C8_2 C5_2 1_555 1_555
C9_2 C6_2 1_555 1_555
O12_2 C7_2 1_555 1_555
O13_2 C7_2 1_555 1_555
H3_2 C8_2 1_555 1_555
O14_2 C9_2 1_555 1_555
O15_2 C9_2 1_555 1_555
Hf6_2 O12_2 1_555 1_555
Hf7_2 O13_2 1_555 1_555
Hf8_2 O14_2 1_555 1_555
O18_2 Hf8_2 1_555 1_555
Hf2_2 O7_2 1_555 1_555
C6_2 C8_2 1_555 1_555
O3_3 Hf1_3 1_555 1_555
O4_3 Hf1_3 1_555 1_555
O6_3 Hf1_3 1_555 1_555
Hf4_3 O3_3 1_555 1_555
Hf5_3 O4_3 1_555 1_555
O9_3 Hf4_3 1_555 1_555
O10_3 Hf4_3 1_555 1_555
O11_3 Hf4_3 1_555 1_555
O20_3 Hf9_3 1_555 1_555
Hf10_3 O17_3 1_555 1_555
O4_3 Hf4_3 1_555 1_555
O6_3 Hf5_3 1_555 1_555
Hf5_3 O11_3 1_555 1_555
Hf9_3 O17_3 1_555 1_555
O20_3 Hf10_3 1_555 1_555
O1_3 C1_3 1_555 1_555
C1_3 C2_3 1_555 1_555
C2_3 C3_3 1_555 1_555
C3_3 H1_3 1_555 1_555
Hf2_3 O2_3 1_555 1_555
Hf3_3 O2_3 1_555 1_555
O7_3 C1_3 1_555 1_555
O8_3 Hf2_3 1_555 1_555
C4_3 C2_3 1_555 1_555
C5_3 C3_3 1_555 1_555
C6_3 C4_3 1_555 1_555
H2_3 C4_3 1_555 1_555
C7_3 C5_3 1_555 1_555
C8_3 C5_3 1_555 1_555
C9_3 C6_3 1_555 1_555
O12_3 C7_3 1_555 1_555
O10 C7_3 1_555 1_555
H3_3 C8_3 1_555 1_555
O14_3 C9_3 1_555 1_555
O15_3 C9_3 1_555 1_555
Hf5 O12_3 1_555 1_555
Hf8_3 O14_3 1_555 1_555
O18_3 Hf8_3 1_555 1_555
Hf2_3 O7_3 1_555 1_555
C6_3 C8_3 1_555 1_555
O3_4 Hf1_4 1_555 1_555
O4_4 Hf1_4 1_555 1_555
O6_4 Hf1_4 1_555 1_555
Hf4_4 O3_4 1_555 1_555
Hf5_4 O4_4 1_555 1_555
O9_4 Hf4_4 1_555 1_555
O10_4 Hf4_4 1_555 1_555
O11_4 Hf4_4 1_555 1_555
O20_4 Hf9_4 1_555 1_555
Hf10_4 O17_4 1_555 1_555
O4_4 Hf4_4 1_555 1_555
O6_4 Hf5_4 1_555 1_555
Hf5_4 O11_4 1_555 1_555
Hf9_4 O17_4 1_555 1_555
O20_4 Hf10_4 1_555 1_555
O1_4 C1_4 1_555 1_555
C1_4 C2_4 1_555 1_555
C2_4 C3_4 1_555 1_555
C3_4 H1_4 1_555 1_555
Hf2_4 O2_4 1_555 1_555
Hf3_4 O2_4 1_555 1_555
O7_4 C1_4 1_555 1_555
O8_4 Hf2_4 1_555 1_555
C4_4 C2_4 1_555 1_555
C5_4 C3_4 1_555 1_555
C6_4 C4_4 1_555 1_555
H2_4 C4_4 1_555 1_555
C7_4 C5_4 1_555 1_555
C8_4 C5_4 1_555 1_555
C9_4 C6_4 1_555 1_555
O12_4 C7_4 1_555 1_555
O13_3 C7_4 1_555 1_555
H3_4 C8_4 1_555 1_555
O14_4 C9_4 1_555 1_555
O15_4 C9_4 1_555 1_555
Hf6_3 O12_4 1_555 1_555
Hf7_3 O13_3 1_555 1_555
Hf8_4 O14_4 1_555 1_555
O18_4 Hf8_4 1_555 1_555
Hf2_4 O7_4 1_555 1_555
C6_4 C8_4 1_555 1_555
O6_5 Hf3_5 1_555 1_555
O6_5 Hf5_5 1_555 1_555
Hf5_5 O11_5 1_555 1_555
Hf1_5 O1_5 1_555 1_555
O1_5 C1_5 1_555 1_555
O2_5 Hf1_5 1_555 1_555
O3_5 Hf1_5 1_555 1_555
C1_5 C2_5 1_555 1_555
C2_5 C3_5 1_555 1_555
C3_5 H1_5 1_555 1_555
O4_5 Hf1_5 1_555 1_555
O5_5 Hf1_5 1_555 1_555
Hf2_5 O2_5 1_555 1_555
Hf4_5 O3_5 1_555 1_555
O7_5 C1_5 1_555 1_555
O8_5 Hf2_5 1_555 1_555
C4_5 C2_5 1_555 1_555
C5_5 C3_5 1_555 1_555
C6_5 C4_5 1_555 1_555
H2_5 C4_5 1_555 1_555
C7_5 C5_5 1_555 1_555
C8_5 C5_5 1_555 1_555
C9_5 C6_5 1_555 1_555
O12_5 C7_5 1_555 1_555
O13_4 C7_5 1_555 1_555
H3_5 C8_5 1_555 1_555
O14_5 C9_5 1_555 1_555
O15_5 C9_5 1_555 1_555
O16_5 Hf3_2 1_555 1_555
Hf7_2 O12_5 1_555 1_555
Hf10 O13_4 1_555 1_555
Hf2_2 O14_5 1_555 1_555
Hf3_2 O15_5 1_555 1_555
O17_5 Hf2_2 1_555 1_555
O20_5 Hf3_2 1_555 1_555
Hf10_5 O17_5 1_555 1_555
O3_5 Hf2_5 1_555 1_555
O4_5 Hf4_5 1_555 1_555
Hf2_5 O7_5 1_555 1_555
Hf4_5 O8_5 1_555 1_555
C6_5 C8_5 1_555 1_555
Hf3_2 O17_5 1_555 1_555
O20_5 Hf10_5 1_555 1_555
Hf1_6 O1_6 1_555 1_555
O1_6 C1_6 1_555 1_555
O2_6 Hf1_6 1_555 1_555
O3_6 Hf1_6 1_555 1_555
C1_6 C2_6 1_555 1_555
C2_6 C3_6 1_555 1_555
C3_6 H1_6 1_555 1_555
O4_6 Hf1_6 1_555 1_555
O5_6 Hf1_6 1_555 1_555
O6_6 Hf1_6 1_555 1_555
Hf2_6 O2_6 1_555 1_555
Hf3_6 O2_6 1_555 1_555
Hf6_3 O3_6 1_555 1_555
Hf5_6 O4_6 1_555 1_555
O7_6 C1_6 1_555 1_555
O8_6 Hf2_6 1_555 1_555
O10_6 Hf6_3 1_555 1_555
O11_6 Hf6_3 1_555 1_555
C4_6 C2_6 1_555 1_555
C5_6 C3_6 1_555 1_555
C6_6 C4_6 1_555 1_555
H2_6 C4_6 1_555 1_555
C7_6 C5_6 1_555 1_555
C8_6 C5_6 1_555 1_555
C9_6 C6_6 1_555 1_555
O5 C7_6 1_555 1_555
O13_5 C7_6 1_555 1_555
H3_6 C8_6 1_555 1_555
O16 C9_6 1_555 1_555
O15_6 C9_6 1_555 1_555
O16_6 Hf9_5 1_555 1_555
Hf3 O13_5 1_555 1_555
Hf9_5 O15_6 1_555 1_555
O19_5 Hf9_5 1_555 1_555
O20_6 Hf9_5 1_555 1_555
Hf6_2 O19 1_555 1_555
O3_6 Hf2_6 1_555 1_555
O4_6 Hf6_3 1_555 1_555
O6_6 Hf3_6 1_555 1_555
O6_6 Hf5_6 1_555 1_555
Hf2_6 O7_6 1_555 1_555
Hf6_3 O8_6 1_555 1_555
Hf5_6 O11_6 1_555 1_555
C6_6 C8_6 1_555 1_555
Hf9_5 O19 1_555 1_555
Hf9_5 O18 1_555 1_555
O20_6 Hf6_2 1_555 1_555
O19_2 Hf5_7 1_555 1_555
Hf5_7 O11_7 1_555 1_555
O3_7 Hf1_7 1_555 1_555
O4_7 Hf1_7 1_555 1_555
Hf4_6 O3_7 1_555 1_555
O20_7 Hf3_5 1_555 1_555
Hf10_6 O17_6 1_555 1_555
O4_7 Hf4_6 1_555 1_555
Hf3_5 O17_6 1_555 1_555
O20_7 Hf10_6 1_555 1_555
O1_7 C1_7 1_555 1_555
C1_7 C2_7 1_555 1_555
C2_7 C3_7 1_555 1_555
C3_7 H1_7 1_555 1_555
O7_7 C1_7 1_555 1_555
O8_7 Hf8_2 1_555 1_555
C4_7 C2_7 1_555 1_555
C5_7 C3_7 1_555 1_555
C6_7 C4_7 1_555 1_555
H2_7 C4_7 1_555 1_555
C7_7 C5_7 1_555 1_555
C8_7 C5_7 1_555 1_555
C9_7 C6_7 1_555 1_555
O12_6 C7_7 1_555 1_555
O13_6 C7_7 1_555 1_555
H3_7 C8_7 1_555 1_555
O14_6 C9_7 1_555 1_555
O15_7 C9_7 1_555 1_555
Hf10 O12_6 1_555 1_555
Hf6_2 O13_6 1_555 1_555
Hf2_5 O14_6 1_555 1_555
Hf8_2 O7_7 1_555 1_555
C6_7 C8_7 1_555 1_555
Hf6 O1_8 1_555 1_555
O1_8 C1_8 1_555 1_555
O2_7 Hf6 1_555 1_555
O3_8 Hf6 1_555 1_555
C1_8 C2_8 1_555 1_555
C2_8 C3_8 1_555 1_555
C3_8 H1_8 1_555 1_555
O4_8 Hf6 1_555 1_555
O6_7 Hf6 1_555 1_555
Hf2_7 O2_7 1_555 1_555
Hf7 O2_7 1_555 1_555
Hf4_7 O3_8 1_555 1_555
Hf5_8 O4_8 1_555 1_555
O7_8 C1_8 1_555 1_555
O8_8 Hf2_7 1_555 1_555
O9_7 Hf4_7 1_555 1_555
O10_8 Hf4_7 1_555 1_555
O11_8 Hf4_7 1_555 1_555
C4_8 C2_8 1_555 1_555
C5_8 C3_8 1_555 1_555
C6_8 C4_8 1_555 1_555
H2_8 C4_8 1_555 1_555
C7_8 C5_8 1_555 1_555
C8_8 C5_8 1_555 1_555
C9_8 C6_8 1_555 1_555
O5_6 C7_8 1_555 1_555
O13_7 C7_8 1_555 1_555
H3_8 C8_8 1_555 1_555
O16_6 C9_8 1_555 1_555
O15_8 C9_8 1_555 1_555
Hf3_6 O13_7 1_555 1_555
Hf8 O15_8 1_555 1_555
O20_8 Hf8 1_555 1_555
Hf7_2 O19_5 1_555 1_555
O3_8 Hf2_7 1_555 1_555
O4_8 Hf4_7 1_555 1_555
O6_7 Hf7 1_555 1_555
O6_7 Hf5_8 1_555 1_555
Hf2_7 O7_8 1_555 1_555
Hf4_7 O8_8 1_555 1_555
Hf5_8 O11_8 1_555 1_555
C6_8 C8_8 1_555 1_555
Hf8 O19_5 1_555 1_555
O20_8 Hf7_2 1_555 1_555
O6_8 Hf3_7 1_555 1_555
O6_8 Hf5_9 1_555 1_555
Hf5_9 O11_9 1_555 1_555
Hf1_8 O1_9 1_555 1_555
O1_9 C1_9 1_555 1_555
O2_8 Hf1_8 1_555 1_555
O3_9 Hf1_8 1_555 1_555
C1_9 C2_9 1_555 1_555
C2_9 C3_9 1_555 1_555
C3_9 H1_9 1_555 1_555
O4_9 Hf1_8 1_555 1_555
O5_8 Hf1_8 1_555 1_555
Hf2_8 O2_8 1_555 1_555
Hf4_8 O3_9 1_555 1_555
O7_9 C1_9 1_555 1_555
O8_9 Hf2_8 1_555 1_555
C4_9 C2_9 1_555 1_555
C5_9 C3_9 1_555 1_555
C6_9 C4_9 1_555 1_555
H2_9 C4_9 1_555 1_555
C7_9 C5_9 1_555 1_555
C8_9 C5_9 1_555 1_555
C9_9 C6_9 1_555 1_555
O9 C7_9 1_555 1_555
O13_8 C7_9 1_555 1_555
H3_9 C8_9 1_555 1_555
O14_7 C9_9 1_555 1_555
O15_9 C9_9 1_555 1_555
O16_8 Hf3_3 1_555 1_555
Hf7_4 O13_8 1_555 1_555
Hf2_3 O14_7 1_555 1_555
Hf3_3 O15_9 1_555 1_555
O17_7 Hf2_3 1_555 1_555
O20_9 Hf3_3 1_555 1_555
Hf10_7 O17_7 1_555 1_555
O3_9 Hf2_8 1_555 1_555
O4_9 Hf4_8 1_555 1_555
Hf2_8 O7_9 1_555 1_555
Hf4_8 O8_9 1_555 1_555
C6_9 C8_9 1_555 1_555
Hf3_3 O17_7 1_555 1_555
O20_9 Hf10_7 1_555 1_555
O11_10 Hf6_2 1_555 1_555
O20 Hf6_2 1_555 1_555
Hf10 O11_10 1_555 1_555
O4_10 Hf3_6 1_555 1_555
O5_9 Hf3_6 1_555 1_555
O6_9 Hf3_6 1_555 1_555
Hf7_3 O4_10 1_555 1_555
O9_9 Hf5_6 1_555 1_555
O10_10 Hf5_6 1_555 1_555
O16_9 Hf2_7 1_555 1_555
O19_6 Hf2_7 1_555 1_555
O4_10 Hf5_6 1_555 1_555
O6_9 Hf2_6 1_555 1_555
O6_9 Hf7_3 1_555 1_555
Hf7_3 O11_6 1_555 1_555
Hf1_9 O1_10 1_555 1_555
O1_10 C1_10 1_555 1_555
O2_9 Hf1_9 1_555 1_555
O3_10 Hf1_9 1_555 1_555
C1_10 C2_10 1_555 1_555
C2_10 C3_10 1_555 1_555
C3_10 H1_10 1_555 1_555
O4_11 Hf1_9 1_555 1_555
O5_10 Hf1_9 1_555 1_555
O6_10 Hf1_9 1_555 1_555
Hf2_9 O2_9 1_555 1_555
Hf3_8 O2_9 1_555 1_555
Hf4_9 O3_10 1_555 1_555
Hf5_10 O4_11 1_555 1_555
O7_10 C1_10 1_555 1_555
O8_10 Hf2_9 1_555 1_555
O9_10 Hf4_9 1_555 1_555
O10_11 Hf4_9 1_555 1_555
O11_11 Hf4_9 1_555 1_555
C4_10 C2_10 1_555 1_555
C5_10 C3_10 1_555 1_555
C6_10 C4_10 1_555 1_555
H2_10 C4_10 1_555 1_555
C7_10 C5_10 1_555 1_555
C8_10 C5_10 1_555 1_555
C9_10 C6_10 1_555 1_555
O12_7 C7_10 1_555 1_555
O13_9 C7_10 1_555 1_555
H3_10 C8_10 1_555 1_555
O14_8 C9_10 1_555 1_555
O15_10 C9_10 1_555 1_555
O16_10 Hf9_6 1_555 1_555
Hf6_4 O12_7 1_555 1_555
Hf5_8 O13_9 1_555 1_555
Hf8_5 O14_8 1_555 1_555
Hf9_6 O15_10 1_555 1_555
O17_8 Hf8_5 1_555 1_555
O18_5 Hf8_5 1_555 1_555
O19_7 Hf9_6 1_555 1_555
O20_10 Hf9_6 1_555 1_555
Hf10_8 O17_8 1_555 1_555
O3_10 Hf2_9 1_555 1_555
O4_11 Hf4_9 1_555 1_555
O6_10 Hf3_8 1_555 1_555
O6_10 Hf5_10 1_555 1_555
Hf2_9 O7_10 1_555 1_555
Hf4_9 O8_10 1_555 1_555
Hf5_10 O11_11 1_555 1_555
C6_10 C8_10 1_555 1_555
Hf9_6 O17_8 1_555 1_555
Hf9_6 O18_5 1_555 1_555
O20_10 Hf10_8 1_555 1_555
Hf1_10 O1_11 1_555 1_555
O1_11 C1_11 1_555 1_555
O2_10 Hf1_10 1_555 1_555
O3_11 Hf1_10 1_555 1_555
C1_11 C2_11 1_555 1_555
C2_11 C3_11 1_555 1_555
C3_11 H1_11 1_555 1_555
O4_12 Hf1_10 1_555 1_555
O5_11 Hf1_10 1_555 1_555
O6_11 Hf1_10 1_555 1_555
Hf2_10 O2_10 1_555 1_555
Hf3_9 O2_10 1_555 1_555
Hf4_10 O3_11 1_555 1_555
Hf5_11 O4_12 1_555 1_555
O7_11 C1_11 1_555 1_555
O8_11 Hf2_10 1_555 1_555
O9_11 Hf4_10 1_555 1_555
O10_12 Hf4_10 1_555 1_555
O11_12 Hf4_10 1_555 1_555
C4_11 C2_11 1_555 1_555
C5_11 C3_11 1_555 1_555
C6_11 C4_11 1_555 1_555
H2_11 C4_11 1_555 1_555
C7_11 C5_11 1_555 1_555
C8_11 C5_11 1_555 1_555
C9_11 C6_11 1_555 1_555
O12_8 C7_11 1_555 1_555
O10_8 C7_11 1_555 1_555
H3_11 C8_11 1_555 1_555
O14_9 C9_11 1_555 1_555
O15_11 C9_11 1_555 1_555
O16_11 Hf3_8 1_555 1_555
Hf5_8 O12_8 1_555 1_555
Hf2_9 O14_9 1_555 1_555
Hf3_8 O15_11 1_555 1_555
O17_9 Hf2_9 1_555 1_555
O20_11 Hf3_8 1_555 1_555
Hf10_9 O17_9 1_555 1_555
O3_11 Hf2_10 1_555 1_555
O4_12 Hf4_10 1_555 1_555
O6_11 Hf3_9 1_555 1_555
O6_11 Hf5_11 1_555 1_555
Hf2_10 O7_11 1_555 1_555
Hf4_10 O8_11 1_555 1_555
Hf5_11 O11_12 1_555 1_555
C6_11 C8_11 1_555 1_555
Hf3_8 O17_9 1_555 1_555
O20_11 Hf10_9 1_555 1_555
Hf2 O1_12 1_555 1_555
O1_12 C1_12 1_555 1_555
O3_12 Hf2 1_555 1_555
C1_12 C2_12 1_555 1_555
C2_12 C3_12 1_555 1_555
C3_12 H1_12 1_555 1_555
Hf7_4 O3_12 1_555 1_555
O7_12 C1_12 1_555 1_555
O8_12 Hf3 1_555 1_555
O9_12 Hf7_4 1_555 1_555
O11 Hf7_4 1_555 1_555
C4_12 C2_12 1_555 1_555
C5_12 C3_12 1_555 1_555
C6_12 C4_12 1_555 1_555
H2_12 C4_12 1_555 1_555
C7_12 C5_12 1_555 1_555
C8_12 C5_12 1_555 1_555
C9_12 C6_12 1_555 1_555
O5_9 C7_12 1_555 1_555
O13_10 C7_12 1_555 1_555
H3_12 C8_12 1_555 1_555
O16_9 C9_12 1_555 1_555
O15_12 C9_12 1_555 1_555
Hf2_6 O13_10 1_555 1_555
Hf7 O15_12 1_555 1_555
O20_12 Hf7 1_555 1_555
Hf6_4 O19_6 1_555 1_555
O3_12 Hf3 1_555 1_555
O8 Hf7_4 1_555 1_555
Hf3 O7_12 1_555 1_555
Hf7_4 O8_12 1_555 1_555
C6_12 C8_12 1_555 1_555
Hf7 O19_6 1_555 1_555
O20_12 Hf6_4 1_555 1_555
Hf5_2 O1_13 1_555 1_555
O1_13 C1_13 1_555 1_555
C1_13 C2_13 1_555 1_555
C2_13 C3_13 1_555 1_555
C3_13 H1_13 1_555 1_555
O5_12 Hf5_2 1_555 1_555
O7_13 C1_13 1_555 1_555
C4_13 C2_13 1_555 1_555
C5_13 C3_13 1_555 1_555
C6_13 C4_13 1_555 1_555
H2_13 C4_13 1_555 1_555
C7_13 C5_13 1_555 1_555
C8_13 C5_13 1_555 1_555
C9_13 C6_13 1_555 1_555
O12_9 C7_13 1_555 1_555
O13_11 C7_13 1_555 1_555
H3_13 C8_13 1_555 1_555
O10_9 C9_13 1_555 1_555
O15_13 C9_13 1_555 1_555
O16_12 Hf5_9 1_555 1_555
Hf5_9 O15_13 1_555 1_555
O19_8 Hf5_9 1_555 1_555
C6_13 C8_13 1_555 1_555
O17_10 Hf8_6 1_555 1_555
Hf10_10 O17_10 1_555 1_555
Hf5 O1_14 1_555 1_555
O1_14 C1_14 1_555 1_555
O8_12 Hf5 1_555 1_555
C1_14 C2_14 1_555 1_555
C2_14 C3_14 1_555 1_555
C3_14 H1_14 1_555 1_555
O9_12 C1_14 1_555 1_555
C4_14 C2_14 1_555 1_555
C5_14 C3_14 1_555 1_555
C6_14 C4_14 1_555 1_555
H2_14 C4_14 1_555 1_555
C7_14 C5_14 1_555 1_555
C8_14 C5_14 1_555 1_555
C9_14 C6_14 1_555 1_555
O12_10 C7_14 1_555 1_555
O13_12 C7_14 1_555 1_555
H3_14 C8_14 1_555 1_555
O14_10 C9_14 1_555 1_555
O15_14 C9_14 1_555 1_555
Hf2_8 O13_12 1_555 1_555
Hf8_3 O15_14 1_555 1_555
O20_13 Hf8_3 1_555 1_555
C6_14 C8_14 1_555 1_555
O9_13 Hf5_5 1_555 1_555
O10_13 Hf5_5 1_555 1_555
O20_7 Hf5_5 1_555 1_555
Hf10_6 O11_5 1_555 1_555
O16_7 C1_15 1_555 1_555
C1_15 C2_15 1_555 1_555
C2_15 C3_15 1_555 1_555
C3_15 H1_15 1_555 1_555
O5_5 C1_15 1_555 1_555
C4_15 C2_15 1_555 1_555
C5_15 C3_15 1_555 1_555
C6_15 C4_15 1_555 1_555
H2_15 C4_15 1_555 1_555
C7_15 C5_15 1_555 1_555
C8_15 C5_15 1_555 1_555
C9_15 C6_15 1_555 1_555
O5_2 C7_15 1_555 1_555
O16_5 C7_15 1_555 1_555
H3_15 C8_15 1_555 1_555
O16_2 C9_15 1_555 1_555
O5_7 C9_15 1_555 1_555
C6_15 C8_15 1_555 1_555
O4_13 Hf8_5 1_555 1_555
O5_13 Hf8_5 1_555 1_555
O6_12 Hf8_5 1_555 1_555
Hf3_10 O18_5 1_555 1_555
Hf5_12 O4_13 1_555 1_555
O9_14 Hf10_8 1_555 1_555
O10_14 Hf10_8 1_555 1_555
O11_13 Hf10_8 1_555 1_555
O16_13 Hf6_4 1_555 1_555
O20_12 Hf5_8 1_555 1_555
O8_8 Hf6_4 1_555 1_555
O4_13 Hf10_8 1_555 1_555
O6_12 Hf3_10 1_555 1_555
O6_12 Hf5_12 1_555 1_555
Hf5_12 O11_13 1_555 1_555
Hf6_4 O11_8 1_555 1_555
O8_3 Hf10_7 1_555 1_555
Hf10_9 O1_15 1_555 1_555
O1_15 C1_16 1_555 1_555
O11_11 Hf10_9 1_555 1_555
O8_10 Hf10_9 1_555 1_555
C1_16 C2_16 1_555 1_555
C2_16 C3_16 1_555 1_555
C3_16 H1_16 1_555 1_555
O5_14 Hf10_9 1_555 1_555
O9_10 C1_16 1_555 1_555
C4_16 C2_16 1_555 1_555
C5_16 C3_16 1_555 1_555
C6_16 C4_16 1_555 1_555
H2_16 C4_16 1_555 1_555
C7_16 C5_16 1_555 1_555
C8_16 C5_16 1_555 1_555
C9_16 C6_16 1_555 1_555
O5_12 C7_16 1_555 1_555
O10_2 C7_16 1_555 1_555
H3_16 C8_16 1_555 1_555
O16_12 C9_16 1_555 1_555
O15_15 C9_16 1_555 1_555
O16_14 Hf9_7 1_555 1_555
Hf9_7 O15_15 1_555 1_555
O20_14 Hf9_7 1_555 1_555
Hf3_7 O19_8 1_555 1_555
O20_11 Hf5_10 1_555 1_555
C6_16 C8_16 1_555 1_555
Hf9_7 O19_8 1_555 1_555
Hf9_7 O11_9 1_555 1_555
O20_14 Hf3_7 1_555 1_555
Hf4_11 O19_3 1_555 1_555
O9_16 Hf4_11 1_555 1_555
O10_16 Hf4_11 1_555 1_555
O11_14 Hf4_11 1_555 1_555
O8_13 Hf8_6 1_555 1_555
O16_3 C1_17 1_555 1_555
C1_17 C2_17 1_555 1_555
C2_17 C3_17 1_555 1_555
C3_17 H1_17 1_555 1_555
O7_14 C1_17 1_555 1_555
C4_17 C2_17 1_555 1_555
C5_17 C3_17 1_555 1_555
C6_17 C4_17 1_555 1_555
H2_17 C4_17 1_555 1_555
C7_17 C5_17 1_555 1_555
C8_17 C5_17 1_555 1_555
C9_17 C6_17 1_555 1_555
O5_8 C7_17 1_555 1_555
O13_13 C7_17 1_555 1_555
H3_17 C8_17 1_555 1_555
O16_8 C9_17 1_555 1_555
O5_3 C9_17 1_555 1_555
C6_17 C8_17 1_555 1_555
O1_16 C1_18 1_555 1_555
C1_18 C2_18 1_555 1_555
C2_18 C3_18 1_555 1_555
C3_18 H1_18 1_555 1_555
Hf2_11 O2_11 1_555 1_555
O7_15 C1_18 1_555 1_555
O19_4 Hf2_11 1_555 1_555
C4_18 C2_18 1_555 1_555
C5_18 C3_18 1_555 1_555
C6_18 C4_18 1_555 1_555
H2_18 C4_18 1_555 1_555
C7_18 C5_18 1_555 1_555
C8_18 C5_18 1_555 1_555
C9_18 C6_18 1_555 1_555
O5_14 C7_18 1_555 1_555
O13_14 C7_18 1_555 1_555
H3_18 C8_18 1_555 1_555
O16_14 C9_18 1_555 1_555
O9_8 C9_18 1_555 1_555
Hf5_10 O13_14 1_555 1_555
Hf2_11 O7_15 1_555 1_555
C6_18 C8_18 1_555 1_555
O3_13 Hf6_5 1_555 1_555
O4_14 Hf6_5 1_555 1_555
Hf4_12 O3_13 1_555 1_555
O4_14 Hf4_12 1_555 1_555
O6_13 Hf8_4 1_555 1_555
O20_8 Hf10 1_555 1_555
Hf7_2 O11_10 1_555 1_555
O5_15 Hf5_10 1_555 1_555
O16_15 Hf2_11 1_555 1_555
O8_6 Hf7_3 1_555 1_555
O5_16 Hf7_3 1_555 1_555
O16_16 Hf2_4 1_555 1_555
O19_9 Hf2_4 1_555 1_555
Hf4_13 O3_14 1_555 1_555
O8_14 Hf2_12 1_555 1_555
O9_18 Hf4_13 1_555 1_555
O10_18 Hf4_13 1_555 1_555
O11_15 Hf4_13 1_555 1_555
O3_14 Hf2_12 1_555 1_555
Hf4_13 O8_14 1_555 1_555
Hf1_11 O1_17 1_555 1_555
O1_17 C1_19 1_555 1_555
O2_12 Hf1_11 1_555 1_555
C1_19 C2_19 1_555 1_555
C2_19 C3_19 1_555 1_555
C3_19 H1_19 1_555 1_555
O4_15 Hf1_11 1_555 1_555
O5_17 Hf1_11 1_555 1_555
O6_14 Hf1_11 1_555 1_555
Hf3_11 O2_12 1_555 1_555
Hf5_13 O4_15 1_555 1_555
O7_16 C1_19 1_555 1_555
C4_19 C2_19 1_555 1_555
C5_19 C3_19 1_555 1_555
C6_19 C4_19 1_555 1_555
H2_19 C4_19 1_555 1_555
C7_19 C5_19 1_555 1_555
C8_19 C5_19 1_555 1_555
C9_19 C6_19 1_555 1_555
O12_11 C7_19 1_555 1_555
O10_17 C7_19 1_555 1_555
H3_19 C8_19 1_555 1_555
O10_6 C9_19 1_555 1_555
O9_9 C9_19 1_555 1_555
Hf8_4 O12_11 1_555 1_555
O6_14 Hf3_11 1_555 1_555
O6_14 Hf5_13 1_555 1_555
C6_19 C8_19 1_555 1_555
O1_18 C1_20 1_555 1_555
C1_20 C2_20 1_555 1_555
C2_20 C3_20 1_555 1_555
C3_20 H1_20 1_555 1_555
O9_2 C1_20 1_555 1_555
C4_20 C2_20 1_555 1_555
C5_20 C3_20 1_555 1_555
C6_20 C4_20 1_555 1_555
H2_20 C4_20 1_555 1_555
C7_20 C5_20 1_555 1_555
C8_20 C5_20 1_555 1_555
C9_20 C6_20 1_555 1_555
O5_15 C7_20 1_555 1_555
O10_11 C7_20 1_555 1_555
H3_20 C8_20 1_555 1_555
O16_15 C9_20 1_555 1_555
O15_16 C9_20 1_555 1_555
C6_20 C8_20 1_555 1_555
O8_2 Hf10_5 1_555 1_555
O10_12 C1_21 1_555 1_555
C1_21 C2_21 1_555 1_555
C2_21 C3_21 1_555 1_555
C3_21 H1_21 1_555 1_555
Hf3_12 O11_12 1_555 1_555
O7_17 C1_21 1_555 1_555
C4_21 C2_21 1_555 1_555
C5_21 C3_21 1_555 1_555
C6_21 C4_21 1_555 1_555
H2_21 C4_21 1_555 1_555
C7_21 C5_21 1_555 1_555
C8_21 C5_21 1_555 1_555
C9_21 C6_21 1_555 1_555
O12_12 C7_21 1_555 1_555
O10_16 C7_21 1_555 1_555
H3_21 C8_21 1_555 1_555
O14_11 C9_21 1_555 1_555
O9_4 C9_21 1_555 1_555
O8_11 Hf3_12 1_555 1_555
Hf5_11 O7_17 1_555 1_555
C6_21 C8_21 1_555 1_555
O8_4 Hf8_7 1_555 1_555
O3_15 Hf2_12 1_555 1_555
Hf4_14 O3_15 1_555 1_555
O9_19 Hf4_14 1_555 1_555
O10_19 Hf4_14 1_555 1_555
O11_15 Hf4_14 1_555 1_555
O8_14 Hf4_14 1_555 1_555
O1_19 C1_22 1_555 1_555
C1_22 C2_22 1_555 1_555
C2_22 C3_22 1_555 1_555
C3_22 H1_22 1_555 1_555
O7_18 C1_22 1_555 1_555
O8_15 Hf3_11 1_555 1_555
C4_22 C2_22 1_555 1_555
C5_22 C3_22 1_555 1_555
C6_22 C4_22 1_555 1_555
H2_22 C4_22 1_555 1_555
C7_22 C5_22 1_555 1_555
C8_22 C5_22 1_555 1_555
C9_22 C6_22 1_555 1_555
O5_4 C7_22 1_555 1_555
O13_15 C7_22 1_555 1_555
H3_22 C8_22 1_555 1_555
O16_4 C9_22 1_555 1_555
O9_17 C9_22 1_555 1_555
Hf3_4 O13_15 1_555 1_555
Hf3_11 O7_18 1_555 1_555
C6_22 C8_22 1_555 1_555
O20_6 Hf7_2 1_555 1_555
O10_10 C1_23 1_555 1_555
C1_23 C2_23 1_555 1_555
C2_23 C3_23 1_555 1_555
C3_23 H1_23 1_555 1_555
O5_16 C1_23 1_555 1_555
C4_23 C2_23 1_555 1_555
C5_23 C3_23 1_555 1_555
C6_23 C4_23 1_555 1_555
H2_23 C4_23 1_555 1_555
C7_23 C5_23 1_555 1_555
C8_23 C5_23 1_555 1_555
C9_23 C6_23 1_555 1_555
O12_13 C7_23 1_555 1_555
O16_16 C7_23 1_555 1_555
H3_23 C8_23 1_555 1_555
O14_12 C9_23 1_555 1_555
O5_17 C9_23 1_555 1_555
Hf3_4 O12_13 1_555 1_555
Hf3_11 O14_12 1_555 1_555
C6_23 C8_23 1_555 1_555
O10_13 C1_24 1_555 1_555
C1_24 C2_24 1_555 1_555
C2_24 C3_24 1_555 1_555
C3_24 H1_24 1_555 1_555
O7_19 C1_24 1_555 1_555
C4_24 C2_24 1_555 1_555
C5_24 C3_24 1_555 1_555
C6_24 C4_24 1_555 1_555
H2_24 C4_24 1_555 1_555
C7_24 C5_24 1_555 1_555
C8_24 C5_24 1_555 1_555
C9_24 C6_24 1_555 1_555
O9_11 C7_24 1_555 1_555
O13_16 C7_24 1_555 1_555
H3_24 C8_24 1_555 1_555
O10_4 C9_24 1_555 1_555
O15_17 C9_24 1_555 1_555
O16_17 Hf5_4 1_555 1_555
Hf3_12 O13_16 1_555 1_555
Hf5_4 O15_17 1_555 1_555
Hf10_6 O7_19 1_555 1_555
C6_24 C8_24 1_555 1_555
O1_20 C1_25 1_555 1_555
C1_25 C2_25 1_555 1_555
C2_25 C3_25 1_555 1_555
C3_25 H1_25 1_555 1_555
O7_20 C1_25 1_555 1_555
C4_25 C2_25 1_555 1_555
C5_25 C3_25 1_555 1_555
C6_25 C4_25 1_555 1_555
H2_25 C4_25 1_555 1_555
C7_25 C5_25 1_555 1_555
C8_25 C5_25 1_555 1_555
C9_25 C6_25 1_555 1_555
O9_13 C7_25 1_555 1_555
O10_5 C7_25 1_555 1_555
H3_25 C8_25 1_555 1_555
O16_17 C9_25 1_555 1_555
O15_18 C9_25 1_555 1_555
C6_25 C8_25 1_555 1_555
O19_9 Hf8_7 1_555 1_555
Hf3_4 O19_10 1_555 1_555
Hf8_7 O19_10 1_555 1_555
O19_9 Hf3_4 1_555 1_555
O16_10 C1_26 1_555 1_555
C1_26 C2_26 1_555 1_555
C2_26 C3_26 1_555 1_555
C3_26 H1_26 1_555 1_555
Hf4_15 O19_7 1_555 1_555
O7_21 C1_26 1_555 1_555
O8_16 Hf3_10 1_555 1_555
O9_20 Hf4_15 1_555 1_555
O10_20 Hf4_15 1_555 1_555
O11_13 Hf4_15 1_555 1_555
C4_26 C2_26 1_555 1_555
C5_26 C3_26 1_555 1_555
C6_26 C4_26 1_555 1_555
H2_26 C4_26 1_555 1_555
C7_26 C5_26 1_555 1_555
C8_26 C5_26 1_555 1_555
C9_26 C6_26 1_555 1_555
O5_11 C7_26 1_555 1_555
O13_17 C7_26 1_555 1_555
H3_26 C8_26 1_555 1_555
O16_11 C9_26 1_555 1_555
O5_10 C9_26 1_555 1_555
Hf3_9 O13_17 1_555 1_555
O19_7 Hf3_10 1_555 1_555
O20_10 Hf4_15 1_555 1_555
Hf3_10 O7_21 1_555 1_555
Hf4_15 O8_16 1_555 1_555
C6_26 C8_26 1_555 1_555
O8_13 Hf10_10 1_555 1_555
O9_21 Hf5_3 1_555 1_555
O10_21 Hf5_3 1_555 1_555
Hf5_11 O1_21 1_555 1_555
O1_21 C1_27 1_555 1_555
O3_16 Hf5_11 1_555 1_555
C1_27 C2_27 1_555 1_555
C2_27 C3_27 1_555 1_555
C3_27 H1_27 1_555 1_555
Hf3_9 O3_16 1_555 1_555
O7_22 C1_27 1_555 1_555
O8_17 Hf3_12 1_555 1_555
O9_22 Hf3_9 1_555 1_555
C4_27 C2_27 1_555 1_555
C5_27 C3_27 1_555 1_555
C6_27 C4_27 1_555 1_555
H2_27 C4_27 1_555 1_555
C7_27 C5_27 1_555 1_555
C8_27 C5_27 1_555 1_555
C9_27 C6_27 1_555 1_555
O9_5 C7_27 1_555 1_555
O13_18 C7_27 1_555 1_555
H3_27 C8_27 1_555 1_555
O16_18 C9_27 1_555 1_555
O9_16 C9_27 1_555 1_555
Hf10_6 O13_18 1_555 1_555
O3_16 Hf3_12 1_555 1_555
Hf3_12 O7_22 1_555 1_555
Hf3_9 O8_17 1_555 1_555
C6_27 C8_27 1_555 1_555
O10_18 C1_28 1_555 1_555
C1_28 C2_28 1_555 1_555
C2_28 C3_28 1_555 1_555
C3_28 H1_28 1_555 1_555
O7_23 C1_28 1_555 1_555
C4_28 C2_28 1_555 1_555
C5_28 C3_28 1_555 1_555
C6_28 C4_28 1_555 1_555
H2_28 C4_28 1_555 1_555
C7_28 C5_28 1_555 1_555
C8_28 C5_28 1_555 1_555
C9_28 C6_28 1_555 1_555
O12_14 C7_28 1_555 1_555
O10_7 C7_28 1_555 1_555
H3_28 C8_28 1_555 1_555
O10_20 C9_28 1_555 1_555
O9_14 C9_28 1_555 1_555
Hf5_7 O12_14 1_555 1_555
C6_28 C8_28 1_555 1_555
Hf2_10 O1_22 1_555 1_555
O1_22 C1_29 1_555 1_555
O8_17 Hf2_10 1_555 1_555
C1_29 C2_29 1_555 1_555
C2_29 C3_29 1_555 1_555
C3_29 H1_29 1_555 1_555
O9_22 C1_29 1_555 1_555
C4_29 C2_29 1_555 1_555
C5_29 C3_29 1_555 1_555
C6_29 C4_29 1_555 1_555
H2_29 C4_29 1_555 1_555
C7_29 C5_29 1_555 1_555
C8_29 C5_29 1_555 1_555
C9_29 C6_29 1_555 1_555
O5_13 C7_29 1_555 1_555
O13_19 C7_29 1_555 1_555
H3_29 C8_29 1_555 1_555
O16_13 C9_29 1_555 1_555
O9_7 C9_29 1_555 1_555
Hf3_10 O13_19 1_555 1_555
C6_29 C8_29 1_555 1_555
O10_3 C1_30 1_555 1_555
C1_30 C2_30 1_555 1_555
C2_30 C3_30 1_555 1_555
C3_30 H1_30 1_555 1_555
O9_21 C1_30 1_555 1_555
C4_30 C2_30 1_555 1_555
C5_30 C3_30 1_555 1_555
C6_30 C4_30 1_555 1_555
H2_30 C4_30 1_555 1_555
C7_30 C5_30 1_555 1_555
C8_30 C5_30 1_555 1_555
C9_30 C6_30 1_555 1_555
O9_18 C7_30 1_555 1_555
O10_19 C7_30 1_555 1_555
H3_30 C8_30 1_555 1_555
O10_14 C9_30 1_555 1_555
O15_19 C9_30 1_555 1_555
O16_19 Hf5_12 1_555 1_555
Hf5_12 O15_19 1_555 1_555
O8_16 Hf5_12 1_555 1_555
C6_30 C8_30 1_555 1_555
Hf5_7 O1_23 1_555 1_555
O1_23 C1_31 1_555 1_555
C1_31 C2_31 1_555 1_555
C2_31 C3_31 1_555 1_555
C3_31 H1_31 1_555 1_555
O7_24 C1_31 1_555 1_555
C4_31 C2_31 1_555 1_555
C5_31 C3_31 1_555 1_555
C6_31 C4_31 1_555 1_555
H2_31 C4_31 1_555 1_555
C7_31 C5_31 1_555 1_555
C8_31 C5_31 1_555 1_555
C9_31 C6_31 1_555 1_555
O9_3 C7_31 1_555 1_555
O10_15 C7_31 1_555 1_555
H3_31 C8_31 1_555 1_555
O16_19 C9_31 1_555 1_555
O9_20 C9_31 1_555 1_555
C6_31 C8_31 1_555 1_555
O1_24 C1_32 1_555 1_555
C1_32 C2_32 1_555 1_555
C2_32 C3_32 1_555 1_555
C3_32 H1_32 1_555 1_555
O9_19 C1_32 1_555 1_555
C4_32 C2_32 1_555 1_555
C5_32 C3_32 1_555 1_555
C6_32 C4_32 1_555 1_555
H2_32 C4_32 1_555 1_555
C7_32 C5_32 1_555 1_555
C8_32 C5_32 1_555 1_555
C9_32 C6_32 1_555 1_555
O9_15 C7_32 1_555 1_555
O10_21 C7_32 1_555 1_555
H3_32 C8_32 1_555 1_555
O16_20 C9_32 1_555 1_555
O9_6 C9_32 1_555 1_555
C6_32 C8_32 1_555 1_555
O8_15 Hf5_13 1_555 1_555
O21 Se1 1_555 1_555
Se1 O22 1_555 1_555
O23 Se1 1_555 1_555
O21_2 Se1_2 1_555 1_555
Se1_2 O22_2 1_555 1_555
O23_2 Se1_2 1_555 1_555
O21_3 Se1_3 1_555 1_555
Se1_3 O22_3 1_555 1_555
O23_3 Se1_3 1_555 1_555
O21_4 Se1_4 1_555 1_555
Se1_4 O22_4 1_555 1_555
O23_4 Se1_4 1_555 1_555
O21_5 Se1_5 1_555 1_555
Se1_5 O22_5 1_555 1_555
O23_5 Se1_5 1_555 1_555
O21_6 Se1_6 1_555 1_555
Se1_6 O22_6 1_555 1_555
O23_6 Se1_6 1_555 1_555
O21_7 Se1_7 1_555 1_555
Se1_7 O22_7 1_555 1_555
O23_7 Se1_7 1_555 1_555
O21_8 Se1_8 1_555 1_555
Se1_8 O22_8 1_555 1_555
O23_8 Se1_8 1_555 1_555
O21_9 Se1_9 1_555 1_555
Se1_9 O22_9 1_555 1_555
O23_9 Se1_9 1_555 1_555
O21_10 Se1_10 1_555 1_555
Se1_10 O22_10 1_555 1_555
O23_10 Se1_10 1_555 1_555
O21_11 Se1_11 1_555 1_555
Se1_11 O22_11 1_555 1_555
O23_11 Se1_11 1_555 1_555
O21_12 Se1_12 1_555 1_555
Se1_12 O22_12 1_555 1_555
O23_12 Se1_12 1_555 1_555
O21_13 Se1_13 1_555 1_555
Se1_13 O22_13 1_555 1_555
O23_13 Se1_13 1_555 1_555
O21_14 Se1_14 1_555 1_555
Se1_14 O22_14 1_555 1_555
O23_14 Se1_14 1_555 1_555
O21_15 Se1_15 1_555 1_555
Se1_15 O22_15 1_555 1_555
O23_15 Se1_15 1_555 1_555
O21_16 Se1_16 1_555 1_555
Se1_16 O22_16 1_555 1_555
O23_16 Se1_16 1_555 1_555
O21_17 Se1_17 1_555 1_555
Se1_17 O22_17 1_555 1_555
O23_17 Se1_17 1_555 1_555
O21_18 Se1_18 1_555 1_555
Se1_18 O22_18 1_555 1_555
O23_18 Se1_18 1_555 1_555
O21_19 Se1_19 1_555 1_555
Se1_19 O22_19 1_555 1_555
O23_19 Se1_19 1_555 1_555
O21_20 Se1_20 1_555 1_555
Se1_20 O22_20 1_555 1_555
O23_20 Se1_20 1_555 1_555
O21_21 Se1_21 1_555 1_555
Se1_21 O22_21 1_555 1_555
O23_21 Se1_21 1_555 1_555
O21_22 Se1_22 1_555 1_555
Se1_22 O22_22 1_555 1_555
O23_22 Se1_22 1_555 1_555
O21_23 Se1_23 1_555 1_555
Se1_23 O22_23 1_555 1_555
O23_23 Se1_23 1_555 1_555
O21_24 Se1_24 1_555 1_555
Se1_24 O22_24 1_555 1_555
O23_24 Se1_24 1_555 1_555
O21_25 Se1_25 1_555 1_555
Se1_25 O22_25 1_555 1_555
O23_25 Se1_25 1_555 1_555
O21_26 Se1_26 1_555 1_555
Se1_26 O22_26 1_555 1_555
O23_26 Se1_26 1_555 1_555
O21_27 Se1_27 1_555 1_555
Se1_27 O22_27 1_555 1_555
O23_27 Se1_27 1_555 1_555
O21_28 Se1_28 1_555 1_555
Se1_28 O22_28 1_555 1_555
O23_28 Se1_28 1_555 1_555
O21_29 Se1_29 1_555 1_555
Se1_29 O22_29 1_555 1_555
O23_29 Se1_29 1_555 1_555
O21_30 Se1_30 1_555 1_555
Se1_30 O22_30 1_555 1_555
O23_30 Se1_30 1_555 1_555
O21_31 Se1_31 1_555 1_555
Se1_31 O22_31 1_555 1_555
O23_31 Se1_31 1_555 1_555
O21_32 Se1_32 1_555 1_555
Se1_32 O22_32 1_555 1_555
O23_32 Se1_32 1_555 1_555
O21_33 Se1_33 1_555 1_555
Se1_33 O22_33 1_555 1_555
O23_33 Se1_33 1_555 1_555
O21_34 Se1_34 1_555 1_555
Se1_34 O22_34 1_555 1_555
O23_34 Se1_34 1_555 1_555
O21_35 Se1_35 1_555 1_555
Se1_35 O22_35 1_555 1_555
O23_35 Se1_35 1_555 1_555
O21_36 Se1_36 1_555 1_555
Se1_36 O22_36 1_555 1_555
O23_36 Se1_36 1_555 1_555
O21_37 Se1_37 1_555 1_555
Se1_37 O22_37 1_555 1_555
O23_37 Se1_37 1_555 1_555
O21_38 Se1_38 1_555 1_555
Se1_38 O22_38 1_555 1_555
O23_38 Se1_38 1_555 1_555
O21_39 Se1_39 1_555 1_555
Se1_39 O22_39 1_555 1_555
O23_39 Se1_39 1_555 1_555
O21_40 Se1_40 1_555 1_555
Se1_40 O22_40 1_555 1_555
O23_40 Se1_40 1_555 1_555
O21_41 Se1_41 1_555 1_555
Se1_41 O22_41 1_555 1_555
O23_41 Se1_41 1_555 1_555
O21_42 Se1_42 1_555 1_555
Se1_42 O22_42 1_555 1_555
O23_42 Se1_42 1_555 1_555
O21_43 Se1_43 1_555 1_555
Se1_43 O22_43 1_555 1_555
O23_43 Se1_43 1_555 1_555
O21_44 Se1_44 1_555 1_555
Se1_44 O22_44 1_555 1_555
O23_44 Se1_44 1_555 1_555
O21_45 Se1_45 1_555 1_555
Se1_45 O22_45 1_555 1_555
O23_45 Se1_45 1_555 1_555
O21_46 Se1_46 1_555 1_555
Se1_46 O22_46 1_555 1_555
O23_46 Se1_46 1_555 1_555
O21_47 Se1_47 1_555 1_555
Se1_47 O22_47 1_555 1_555
O23_47 Se1_47 1_555 1_555
O21_48 Se1_48 1_555 1_555
Se1_48 O22_48 1_555 1_555
O23_48 Se1_48 1_555 1_555
O21_49 Se1_49 1_555 1_555
Se1_49 O22_49 1_555 1_555
O23_49 Se1_49 1_555 1_555
O21_50 Se1_50 1_555 1_555
Se1_50 O22_50 1_555 1_555
O23_50 Se1_50 1_555 1_555
O21_51 Se1_51 1_555 1_555
Se1_51 O22_51 1_555 1_555
O23_51 Se1_51 1_555 1_555
O21_52 Se1_52 1_555 1_555
Se1_52 O22_52 1_555 1_555
O23_52 Se1_52 1_555 1_555
O21_53 Se1_53 1_555 1_555
Se1_53 O22_53 1_555 1_555
O23_53 Se1_53 1_555 1_555
O21_54 Se1_54 1_555 1_555
Se1_54 O22_54 1_555 1_555
O23_54 Se1_54 1_555 1_555
O21_55 Se1_55 1_555 1_555
Se1_55 O22_55 1_555 1_555
O23_55 Se1_55 1_555 1_555
O21_56 Se1_56 1_555 1_555
Se1_56 O22_56 1_555 1_555
O23_56 Se1_56 1_555 1_555
O21_57 Se1_57 1_555 1_555
Se1_57 O22_57 1_555 1_555
O23_57 Se1_57 1_555 1_555
O21_58 Se1_58 1_555 1_555
Se1_58 O22_58 1_555 1_555
O23_58 Se1_58 1_555 1_555
O21_59 Se1_59 1_555 1_555
Se1_59 O22_59 1_555 1_555
O23_59 Se1_59 1_555 1_555
O21_60 Se1_60 1_555 1_555
Se1_60 O22_60 1_555 1_555
O23_60 Se1_60 1_555 1_555
O21_61 Se1_61 1_555 1_555
Se1_61 O22_61 1_555 1_555
O23_61 Se1_61 1_555 1_555
O21_62 Se1_62 1_555 1_555
Se1_62 O22_62 1_555 1_555
O23_62 Se1_62 1_555 1_555
O21_63 Se1_63 1_555 1_555
Se1_63 O22_63 1_555 1_555
O23_63 Se1_63 1_555 1_555
O21_64 Se1_64 1_555 1_555
Se1_64 O22_64 1_555 1_555
O23_64 Se1_64 1_555 1_555
O21_65 Se1_65 1_555 1_555
Se1_65 O22_65 1_555 1_555
O23_65 Se1_65 1_555 1_555
O21_66 Se1_66 1_555 1_555
Se1_66 O22_66 1_555 1_555
O23_66 Se1_66 1_555 1_555
O21_67 Se1_67 1_555 1_555
Se1_67 O22_67 1_555 1_555
O23_67 Se1_67 1_555 1_555
O21_68 Se1_68 1_555 1_555
Se1_68 O22_68 1_555 1_555
O23_68 Se1_68 1_555 1_555
O21_69 Se1_69 1_555 1_555
Se1_69 O22_69 1_555 1_555
O23_69 Se1_69 1_555 1_555
O21_70 Se1_70 1_555 1_555
Se1_70 O22_70 1_555 1_555
O23_70 Se1_70 1_555 1_555
O21_71 Se1_71 1_555 1_555
Se1_71 O22_71 1_555 1_555
O23_71 Se1_71 1_555 1_555
O21_72 Se1_72 1_555 1_555
Se1_72 O22_72 1_555 1_555
O23_72 Se1_72 1_555 1_555
O21_73 Se1_73 1_555 1_555
Se1_73 O22_73 1_555 1_555
O23_73 Se1_73 1_555 1_555
O21_74 Se1_74 1_555 1_555
Se1_74 O22_74 1_555 1_555
O23_74 Se1_74 1_555 1_555
O21_75 Se1_75 1_555 1_555
Se1_75 O22_75 1_555 1_555
O23_75 Se1_75 1_555 1_555
O21_76 Se1_76 1_555 1_555
Se1_76 O22_76 1_555 1_555
O23_76 Se1_76 1_555 1_555
O21_77 Se1_77 1_555 1_555
Se1_77 O22_77 1_555 1_555
O23_77 Se1_77 1_555 1_555
O21_78 Se1_78 1_555 1_555
Se1_78 O22_78 1_555 1_555
O23_78 Se1_78 1_555 1_555
O21_79 Se1_79 1_555 1_555
Se1_79 O22_79 1_555 1_555
O23_79 Se1_79 1_555 1_555
O21_80 Se1_80 1_555 1_555
Se1_80 O22_80 1_555 1_555
O23_80 Se1_80 1_555 1_555
O21_81 Se1_81 1_555 1_555
Se1_81 O22_81 1_555 1_555
O23_81 Se1_81 1_555 1_555
O21_82 Se1_82 1_555 1_555
Se1_82 O22_82 1_555 1_555
O23_82 Se1_82 1_555 1_555
O21_83 Se1_83 1_555 1_555
Se1_83 O22_83 1_555 1_555
O23_83 Se1_83 1_555 1_555
O21_84 Se1_84 1_555 1_555
Se1_84 O22_84 1_555 1_555
O23_84 Se1_84 1_555 1_555
O21_85 Se1_85 1_555 1_555
Se1_85 O22_85 1_555 1_555
O23_85 Se1_85 1_555 1_555
O21_86 Se1_86 1_555 1_555
Se1_86 O22_86 1_555 1_555
O23_86 Se1_86 1_555 1_555
O21_87 Se1_87 1_555 1_555
Se1_87 O22_87 1_555 1_555
O23_87 Se1_87 1_555 1_555
O21_88 Se1_88 1_555 1_555
Se1_88 O22_88 1_555 1_555
O23_88 Se1_88 1_555 1_555
O21_89 Se1_89 1_555 1_555
Se1_89 O22_89 1_555 1_555
O23_89 Se1_89 1_555 1_555
O21_90 Se1_90 1_555 1_555
Se1_90 O22_90 1_555 1_555
O23_90 Se1_90 1_555 1_555
O21_91 Se1_91 1_555 1_555
Se1_91 O22_91 1_555 1_555
O23_91 Se1_91 1_555 1_555
O21_92 Se1_92 1_555 1_555
Se1_92 O22_92 1_555 1_555
O23_92 Se1_92 1_555 1_555
O21_93 Se1_93 1_555 1_555
Se1_93 O22_93 1_555 1_555
O23_93 Se1_93 1_555 1_555
O21_94 Se1_94 1_555 1_555
Se1_94 O22_94 1_555 1_555
O23_94 Se1_94 1_555 1_555
O21_95 Se1_95 1_555 1_555
Se1_95 O22_95 1_555 1_555
O23_95 Se1_95 1_555 1_555
O21_96 Se1_96 1_555 1_555
Se1_96 O22_96 1_555 1_555
O23_96 Se1_96 1_555 1_555
O24 Se2 1_555 1_555
Se2 O25 1_555 1_555
O26 Se2 1_555 1_555
O24_2 Se2_2 1_555 1_555
Se2_2 O25_2 1_555 1_555
O26_2 Se2_2 1_555 1_555
O24_3 Se2_3 1_555 1_555
Se2_3 O25_3 1_555 1_555
O26_3 Se2_3 1_555 1_555
O24_4 Se2_4 1_555 1_555
Se2_4 O25_4 1_555 1_555
O26_4 Se2_4 1_555 1_555
O24_5 Se2_5 1_555 1_555
Se2_5 O25_5 1_555 1_555
O26_5 Se2_5 1_555 1_555
O24_6 Se2_6 1_555 1_555
Se2_6 O25_6 1_555 1_555
O26_6 Se2_6 1_555 1_555
O24_7 Se2_7 1_555 1_555
Se2_7 O25_7 1_555 1_555
O26_7 Se2_7 1_555 1_555
O24_8 Se2_8 1_555 1_555
Se2_8 O25_8 1_555 1_555
O26_8 Se2_8 1_555 1_555
O24_9 Se2_9 1_555 1_555
Se2_9 O25_9 1_555 1_555
O26_9 Se2_9 1_555 1_555
O24_10 Se2_10 1_555 1_555
Se2_10 O25_10 1_555 1_555
O26_10 Se2_10 1_555 1_555
O24_11 Se2_11 1_555 1_555
Se2_11 O25_11 1_555 1_555
O26_11 Se2_11 1_555 1_555
O24_12 Se2_12 1_555 1_555
Se2_12 O25_12 1_555 1_555
O26_12 Se2_12 1_555 1_555
O24_13 Se2_13 1_555 1_555
Se2_13 O25_13 1_555 1_555
O26_13 Se2_13 1_555 1_555
O24_14 Se2_14 1_555 1_555
Se2_14 O25_14 1_555 1_555
O26_14 Se2_14 1_555 1_555
O24_15 Se2_15 1_555 1_555
Se2_15 O25_15 1_555 1_555
O26_15 Se2_15 1_555 1_555
O24_16 Se2_16 1_555 1_555
Se2_16 O25_16 1_555 1_555
O26_16 Se2_16 1_555 1_555
O24_17 Se2_17 1_555 1_555
Se2_17 O25_17 1_555 1_555
O26_17 Se2_17 1_555 1_555
O24_18 Se2_18 1_555 1_555
Se2_18 O25_18 1_555 1_555
O26_18 Se2_18 1_555 1_555
O24_19 Se2_19 1_555 1_555
Se2_19 O25_19 1_555 1_555
O26_19 Se2_19 1_555 1_555
O24_20 Se2_20 1_555 1_555
Se2_20 O25_20 1_555 1_555
O26_20 Se2_20 1_555 1_555
O24_21 Se2_21 1_555 1_555
Se2_21 O25_21 1_555 1_555
O26_21 Se2_21 1_555 1_555
O24_22 Se2_22 1_555 1_555
Se2_22 O25_22 1_555 1_555
O26_22 Se2_22 1_555 1_555
O24_23 Se2_23 1_555 1_555
Se2_23 O25_23 1_555 1_555
O26_23 Se2_23 1_555 1_555
O24_24 Se2_24 1_555 1_555
Se2_24 O25_24 1_555 1_555
O26_24 Se2_24 1_555 1_555
O24_25 Se2_25 1_555 1_555
Se2_25 O25_25 1_555 1_555
O26_25 Se2_25 1_555 1_555
O24_26 Se2_26 1_555 1_555
Se2_26 O25_26 1_555 1_555
O26_26 Se2_26 1_555 1_555
O24_27 Se2_27 1_555 1_555
Se2_27 O25_27 1_555 1_555
O26_27 Se2_27 1_555 1_555
O24_28 Se2_28 1_555 1_555
Se2_28 O25_28 1_555 1_555
O26_28 Se2_28 1_555 1_555
O24_29 Se2_29 1_555 1_555
Se2_29 O25_29 1_555 1_555
O26_29 Se2_29 1_555 1_555
O24_30 Se2_30 1_555 1_555
Se2_30 O25_30 1_555 1_555
O26_30 Se2_30 1_555 1_555
O24_31 Se2_31 1_555 1_555
Se2_31 O25_31 1_555 1_555
O26_31 Se2_31 1_555 1_555
O24_32 Se2_32 1_555 1_555
Se2_32 O25_32 1_555 1_555
O26_32 Se2_32 1_555 1_555
O24_33 Se2_33 1_555 1_555
Se2_33 O25_33 1_555 1_555
O26_33 Se2_33 1_555 1_555
O24_34 Se2_34 1_555 1_555
Se2_34 O25_34 1_555 1_555
O26_34 Se2_34 1_555 1_555
O24_35 Se2_35 1_555 1_555
Se2_35 O25_35 1_555 1_555
O26_35 Se2_35 1_555 1_555
O24_36 Se2_36 1_555 1_555
Se2_36 O25_36 1_555 1_555
O26_36 Se2_36 1_555 1_555
O24_37 Se2_37 1_555 1_555
Se2_37 O25_37 1_555 1_555
O26_37 Se2_37 1_555 1_555
O24_38 Se2_38 1_555 1_555
Se2_38 O25_38 1_555 1_555
O26_38 Se2_38 1_555 1_555
O24_39 Se2_39 1_555 1_555
Se2_39 O25_39 1_555 1_555
O26_39 Se2_39 1_555 1_555
O24_40 Se2_40 1_555 1_555
Se2_40 O25_40 1_555 1_555
O26_40 Se2_40 1_555 1_555
O24_41 Se2_41 1_555 1_555
Se2_41 O25_41 1_555 1_555
O26_41 Se2_41 1_555 1_555
O24_42 Se2_42 1_555 1_555
Se2_42 O25_42 1_555 1_555
O26_42 Se2_42 1_555 1_555
O24_43 Se2_43 1_555 1_555
Se2_43 O25_43 1_555 1_555
O26_43 Se2_43 1_555 1_555
O24_44 Se2_44 1_555 1_555
Se2_44 O25_44 1_555 1_555
O26_44 Se2_44 1_555 1_555
O24_45 Se2_45 1_555 1_555
Se2_45 O25_45 1_555 1_555
O26_45 Se2_45 1_555 1_555
O24_46 Se2_46 1_555 1_555
Se2_46 O25_46 1_555 1_555
O26_46 Se2_46 1_555 1_555
O24_47 Se2_47 1_555 1_555
Se2_47 O25_47 1_555 1_555
O26_47 Se2_47 1_555 1_555
O24_48 Se2_48 1_555 1_555
Se2_48 O25_48 1_555 1_555
O26_48 Se2_48 1_555 1_555
O24_49 Se2_49 1_555 1_555
Se2_49 O25_49 1_555 1_555
O26_49 Se2_49 1_555 1_555
O24_50 Se2_50 1_555 1_555
Se2_50 O25_50 1_555 1_555
O26_50 Se2_50 1_555 1_555
O24_51 Se2_51 1_555 1_555
Se2_51 O25_51 1_555 1_555
O26_51 Se2_51 1_555 1_555
O24_52 Se2_52 1_555 1_555
Se2_52 O25_52 1_555 1_555
O26_52 Se2_52 1_555 1_555
O24_53 Se2_53 1_555 1_555
Se2_53 O25_53 1_555 1_555
O26_53 Se2_53 1_555 1_555
O24_54 Se2_54 1_555 1_555
Se2_54 O25_54 1_555 1_555
O26_54 Se2_54 1_555 1_555
O24_55 Se2_55 1_555 1_555
Se2_55 O25_55 1_555 1_555
O26_55 Se2_55 1_555 1_555
O24_56 Se2_56 1_555 1_555
Se2_56 O25_56 1_555 1_555
O26_56 Se2_56 1_555 1_555
O24_57 Se2_57 1_555 1_555
Se2_57 O25_57 1_555 1_555
O26_57 Se2_57 1_555 1_555
O24_58 Se2_58 1_555 1_555
Se2_58 O25_58 1_555 1_555
O26_58 Se2_58 1_555 1_555
O24_59 Se2_59 1_555 1_555
Se2_59 O25_59 1_555 1_555
O26_59 Se2_59 1_555 1_555
O24_60 Se2_60 1_555 1_555
Se2_60 O25_60 1_555 1_555
O26_60 Se2_60 1_555 1_555
O24_61 Se2_61 1_555 1_555
Se2_61 O25_61 1_555 1_555
O26_61 Se2_61 1_555 1_555
O24_62 Se2_62 1_555 1_555
Se2_62 O25_62 1_555 1_555
O26_62 Se2_62 1_555 1_555
O24_63 Se2_63 1_555 1_555
Se2_63 O25_63 1_555 1_555
O26_63 Se2_63 1_555 1_555
O24_64 Se2_64 1_555 1_555
Se2_64 O25_64 1_555 1_555
O26_64 Se2_64 1_555 1_555
O24_65 Se2_65 1_555 1_555
Se2_65 O25_65 1_555 1_555
O26_65 Se2_65 1_555 1_555
O24_66 Se2_66 1_555 1_555
Se2_66 O25_66 1_555 1_555
O26_66 Se2_66 1_555 1_555
O24_67 Se2_67 1_555 1_555
Se2_67 O25_67 1_555 1_555
O26_67 Se2_67 1_555 1_555
O24_68 Se2_68 1_555 1_555
Se2_68 O25_68 1_555 1_555
O26_68 Se2_68 1_555 1_555
O24_69 Se2_69 1_555 1_555
Se2_69 O25_69 1_555 1_555
O26_69 Se2_69 1_555 1_555
O24_70 Se2_70 1_555 1_555
Se2_70 O25_70 1_555 1_555
O26_70 Se2_70 1_555 1_555
O24_71 Se2_71 1_555 1_555
Se2_71 O25_71 1_555 1_555
O26_71 Se2_71 1_555 1_555
O24_72 Se2_72 1_555 1_555
Se2_72 O25_72 1_555 1_555
O26_72 Se2_72 1_555 1_555
O24_73 Se2_73 1_555 1_555
Se2_73 O25_73 1_555 1_555
O26_73 Se2_73 1_555 1_555
O24_74 Se2_74 1_555 1_555
Se2_74 O25_74 1_555 1_555
O26_74 Se2_74 1_555 1_555
O24_75 Se2_75 1_555 1_555
Se2_75 O25_75 1_555 1_555
O26_75 Se2_75 1_555 1_555
O24_76 Se2_76 1_555 1_555
Se2_76 O25_76 1_555 1_555
O26_76 Se2_76 1_555 1_555
O24_77 Se2_77 1_555 1_555
Se2_77 O25_77 1_555 1_555
O26_77 Se2_77 1_555 1_555
O24_78 Se2_78 1_555 1_555
Se2_78 O25_78 1_555 1_555
O26_78 Se2_78 1_555 1_555
O24_79 Se2_79 1_555 1_555
Se2_79 O25_79 1_555 1_555
O26_79 Se2_79 1_555 1_555
O24_80 Se2_80 1_555 1_555
Se2_80 O25_80 1_555 1_555
O26_80 Se2_80 1_555 1_555
O24_81 Se2_81 1_555 1_555
Se2_81 O25_81 1_555 1_555
O26_81 Se2_81 1_555 1_555
O24_82 Se2_82 1_555 1_555
Se2_82 O25_82 1_555 1_555
O26_82 Se2_82 1_555 1_555
O24_83 Se2_83 1_555 1_555
Se2_83 O25_83 1_555 1_555
O26_83 Se2_83 1_555 1_555
O24_84 Se2_84 1_555 1_555
Se2_84 O25_84 1_555 1_555
O26_84 Se2_84 1_555 1_555
O24_85 Se2_85 1_555 1_555
Se2_85 O25_85 1_555 1_555
O26_85 Se2_85 1_555 1_555
O24_86 Se2_86 1_555 1_555
Se2_86 O25_86 1_555 1_555
O26_86 Se2_86 1_555 1_555
O24_87 Se2_87 1_555 1_555
Se2_87 O25_87 1_555 1_555
O26_87 Se2_87 1_555 1_555
O24_88 Se2_88 1_555 1_555
Se2_88 O25_88 1_555 1_555
O26_88 Se2_88 1_555 1_555
O24_89 Se2_89 1_555 1_555
Se2_89 O25_89 1_555 1_555
O26_89 Se2_89 1_555 1_555
O24_90 Se2_90 1_555 1_555
Se2_90 O25_90 1_555 1_555
O26_90 Se2_90 1_555 1_555
O24_91 Se2_91 1_555 1_555
Se2_91 O25_91 1_555 1_555
O26_91 Se2_91 1_555 1_555
O24_92 Se2_92 1_555 1_555
Se2_92 O25_92 1_555 1_555
O26_92 Se2_92 1_555 1_555
O24_93 Se2_93 1_555 1_555
Se2_93 O25_93 1_555 1_555
O26_93 Se2_93 1_555 1_555
O24_94 Se2_94 1_555 1_555
Se2_94 O25_94 1_555 1_555
O26_94 Se2_94 1_555 1_555
O24_95 Se2_95 1_555 1_555
Se2_95 O25_95 1_555 1_555
O26_95 Se2_95 1_555 1_555
O24_96 Se2_96 1_555 1_555
Se2_96 O25_96 1_555 1_555
O26_96 Se2_96 1_555 1_555
O27 Se3 1_555 1_555
Se3 O28 1_555 1_555
O29 Se3 1_555 1_555
O27_2 Se3_2 1_555 1_555
Se3_2 O28_2 1_555 1_555
O29_2 Se3_2 1_555 1_555
O27_3 Se3_3 1_555 1_555
Se3_3 O28_3 1_555 1_555
O29_3 Se3_3 1_555 1_555
O27_4 Se3_4 1_555 1_555
Se3_4 O28_4 1_555 1_555
O29_4 Se3_4 1_555 1_555
O27_5 Se3_5 1_555 1_555
Se3_5 O28_5 1_555 1_555
O29_5 Se3_5 1_555 1_555
O27_6 Se3_6 1_555 1_555
Se3_6 O28_6 1_555 1_555
O29_6 Se3_6 1_555 1_555
O27_7 Se3_7 1_555 1_555
Se3_7 O28_7 1_555 1_555
O29_7 Se3_7 1_555 1_555
O27_8 Se3_8 1_555 1_555
Se3_8 O28_8 1_555 1_555
O29_8 Se3_8 1_555 1_555
O27_9 Se3_9 1_555 1_555
Se3_9 O28_9 1_555 1_555
O29_9 Se3_9 1_555 1_555
O27_10 Se3_10 1_555 1_555
Se3_10 O28_10 1_555 1_555
O29_10 Se3_10 1_555 1_555
O27_11 Se3_11 1_555 1_555
Se3_11 O28_11 1_555 1_555
O29_11 Se3_11 1_555 1_555
O27_12 Se3_12 1_555 1_555
Se3_12 O28_12 1_555 1_555
O29_12 Se3_12 1_555 1_555
O27_13 Se3_13 1_555 1_555
Se3_13 O28_13 1_555 1_555
O29_13 Se3_13 1_555 1_555
O27_14 Se3_14 1_555 1_555
Se3_14 O28_14 1_555 1_555
O29_14 Se3_14 1_555 1_555
O27_15 Se3_15 1_555 1_555
Se3_15 O28_15 1_555 1_555
O29_15 Se3_15 1_555 1_555
O27_16 Se3_16 1_555 1_555
Se3_16 O28_16 1_555 1_555
O29_16 Se3_16 1_555 1_555
O27_17 Se3_17 1_555 1_555
Se3_17 O28_17 1_555 1_555
O29_17 Se3_17 1_555 1_555
O27_18 Se3_18 1_555 1_555
Se3_18 O28_18 1_555 1_555
O29_18 Se3_18 1_555 1_555
O27_19 Se3_19 1_555 1_555
Se3_19 O28_19 1_555 1_555
O29_19 Se3_19 1_555 1_555
O27_20 Se3_20 1_555 1_555
Se3_20 O28_20 1_555 1_555
O29_20 Se3_20 1_555 1_555
O27_21 Se3_21 1_555 1_555
Se3_21 O28_21 1_555 1_555
O29_21 Se3_21 1_555 1_555
O27_22 Se3_22 1_555 1_555
Se3_22 O28_22 1_555 1_555
O29_22 Se3_22 1_555 1_555
O27_23 Se3_23 1_555 1_555
Se3_23 O28_23 1_555 1_555
O29_23 Se3_23 1_555 1_555
O27_24 Se3_24 1_555 1_555
Se3_24 O28_24 1_555 1_555
O29_24 Se3_24 1_555 1_555
O27_25 Se3_25 1_555 1_555
Se3_25 O28_25 1_555 1_555
O29_25 Se3_25 1_555 1_555
O27_26 Se3_26 1_555 1_555
Se3_26 O28_26 1_555 1_555
O29_26 Se3_26 1_555 1_555
O27_27 Se3_27 1_555 1_555
Se3_27 O28_27 1_555 1_555
O29_27 Se3_27 1_555 1_555
O27_28 Se3_28 1_555 1_555
Se3_28 O28_28 1_555 1_555
O29_28 Se3_28 1_555 1_555
O27_29 Se3_29 1_555 1_555
Se3_29 O28_29 1_555 1_555
O29_29 Se3_29 1_555 1_555
O27_30 Se3_30 1_555 1_555
Se3_30 O28_30 1_555 1_555
O29_30 Se3_30 1_555 1_555
O27_31 Se3_31 1_555 1_555
Se3_31 O28_31 1_555 1_555
O29_31 Se3_31 1_555 1_555
O27_32 Se3_32 1_555 1_555
Se3_32 O28_32 1_555 1_555
O29_32 Se3_32 1_555 1_555
O27_33 Se3_33 1_555 1_555
Se3_33 O28_33 1_555 1_555
O29_33 Se3_33 1_555 1_555
O27_34 Se3_34 1_555 1_555
Se3_34 O28_34 1_555 1_555
O29_34 Se3_34 1_555 1_555
O27_35 Se3_35 1_555 1_555
Se3_35 O28_35 1_555 1_555
O29_35 Se3_35 1_555 1_555
O27_36 Se3_36 1_555 1_555
Se3_36 O28_36 1_555 1_555
O29_36 Se3_36 1_555 1_555
O27_37 Se3_37 1_555 1_555
Se3_37 O28_37 1_555 1_555
O29_37 Se3_37 1_555 1_555
O27_38 Se3_38 1_555 1_555
Se3_38 O28_38 1_555 1_555
O29_38 Se3_38 1_555 1_555
O27_39 Se3_39 1_555 1_555
Se3_39 O28_39 1_555 1_555
O29_39 Se3_39 1_555 1_555
O27_40 Se3_40 1_555 1_555
Se3_40 O28_40 1_555 1_555
O29_40 Se3_40 1_555 1_555
O27_41 Se3_41 1_555 1_555
Se3_41 O28_41 1_555 1_555
O29_41 Se3_41 1_555 1_555
O27_42 Se3_42 1_555 1_555
Se3_42 O28_42 1_555 1_555
O29_42 Se3_42 1_555 1_555
O27_43 Se3_43 1_555 1_555
Se3_43 O28_43 1_555 1_555
O29_43 Se3_43 1_555 1_555
O27_44 Se3_44 1_555 1_555
Se3_44 O28_44 1_555 1_555
O29_44 Se3_44 1_555 1_555
O27_45 Se3_45 1_555 1_555
Se3_45 O28_45 1_555 1_555
O29_45 Se3_45 1_555 1_555
O27_46 Se3_46 1_555 1_555
Se3_46 O28_46 1_555 1_555
O29_46 Se3_46 1_555 1_555
O27_47 Se3_47 1_555 1_555
Se3_47 O28_47 1_555 1_555
O29_47 Se3_47 1_555 1_555
O27_48 Se3_48 1_555 1_555
Se3_48 O28_48 1_555 1_555
O29_48 Se3_48 1_555 1_555
O27_49 Se3_49 1_555 1_555
Se3_49 O28_49 1_555 1_555
O29_49 Se3_49 1_555 1_555
O27_50 Se3_50 1_555 1_555
Se3_50 O28_50 1_555 1_555
O29_50 Se3_50 1_555 1_555
O27_51 Se3_51 1_555 1_555
Se3_51 O28_51 1_555 1_555
O29_51 Se3_51 1_555 1_555
O27_52 Se3_52 1_555 1_555
Se3_52 O28_52 1_555 1_555
O29_52 Se3_52 1_555 1_555
O27_53 Se3_53 1_555 1_555
Se3_53 O28_53 1_555 1_555
O29_53 Se3_53 1_555 1_555
O27_54 Se3_54 1_555 1_555
Se3_54 O28_54 1_555 1_555
O29_54 Se3_54 1_555 1_555
O27_55 Se3_55 1_555 1_555
Se3_55 O28_55 1_555 1_555
O29_55 Se3_55 1_555 1_555
O27_56 Se3_56 1_555 1_555
Se3_56 O28_56 1_555 1_555
O29_56 Se3_56 1_555 1_555
O27_57 Se3_57 1_555 1_555
Se3_57 O28_57 1_555 1_555
O29_57 Se3_57 1_555 1_555
O27_58 Se3_58 1_555 1_555
Se3_58 O28_58 1_555 1_555
O29_58 Se3_58 1_555 1_555
O27_59 Se3_59 1_555 1_555
Se3_59 O28_59 1_555 1_555
O29_59 Se3_59 1_555 1_555
O27_60 Se3_60 1_555 1_555
Se3_60 O28_60 1_555 1_555
O29_60 Se3_60 1_555 1_555
O27_61 Se3_61 1_555 1_555
Se3_61 O28_61 1_555 1_555
O29_61 Se3_61 1_555 1_555
O27_62 Se3_62 1_555 1_555
Se3_62 O28_62 1_555 1_555
O29_62 Se3_62 1_555 1_555
O27_63 Se3_63 1_555 1_555
Se3_63 O28_63 1_555 1_555
O29_63 Se3_63 1_555 1_555
O27_64 Se3_64 1_555 1_555
Se3_64 O28_64 1_555 1_555
O29_64 Se3_64 1_555 1_555
O27_65 Se3_65 1_555 1_555
Se3_65 O28_65 1_555 1_555
O29_65 Se3_65 1_555 1_555
O27_66 Se3_66 1_555 1_555
Se3_66 O28_66 1_555 1_555
O29_66 Se3_66 1_555 1_555
O27_67 Se3_67 1_555 1_555
Se3_67 O28_67 1_555 1_555
O29_67 Se3_67 1_555 1_555
O27_68 Se3_68 1_555 1_555
Se3_68 O28_68 1_555 1_555
O29_68 Se3_68 1_555 1_555
O27_69 Se3_69 1_555 1_555
Se3_69 O28_69 1_555 1_555
O29_69 Se3_69 1_555 1_555
O27_70 Se3_70 1_555 1_555
Se3_70 O28_70 1_555 1_555
O29_70 Se3_70 1_555 1_555
O27_71 Se3_71 1_555 1_555
Se3_71 O28_71 1_555 1_555
O29_71 Se3_71 1_555 1_555
O27_72 Se3_72 1_555 1_555
Se3_72 O28_72 1_555 1_555
O29_72 Se3_72 1_555 1_555
O27_73 Se3_73 1_555 1_555
Se3_73 O28_73 1_555 1_555
O29_73 Se3_73 1_555 1_555
O27_74 Se3_74 1_555 1_555
Se3_74 O28_74 1_555 1_555
O29_74 Se3_74 1_555 1_555
O27_75 Se3_75 1_555 1_555
Se3_75 O28_75 1_555 1_555
O29_75 Se3_75 1_555 1_555
O27_76 Se3_76 1_555 1_555
Se3_76 O28_76 1_555 1_555
O29_76 Se3_76 1_555 1_555
O27_77 Se3_77 1_555 1_555
Se3_77 O28_77 1_555 1_555
O29_77 Se3_77 1_555 1_555
O27_78 Se3_78 1_555 1_555
Se3_78 O28_78 1_555 1_555
O29_78 Se3_78 1_555 1_555
O27_79 Se3_79 1_555 1_555
Se3_79 O28_79 1_555 1_555
O29_79 Se3_79 1_555 1_555
O27_80 Se3_80 1_555 1_555
Se3_80 O28_80 1_555 1_555
O29_80 Se3_80 1_555 1_555
O27_81 Se3_81 1_555 1_555
Se3_81 O28_81 1_555 1_555
O29_81 Se3_81 1_555 1_555
O27_82 Se3_82 1_555 1_555
Se3_82 O28_82 1_555 1_555
O29_82 Se3_82 1_555 1_555
O27_83 Se3_83 1_555 1_555
Se3_83 O28_83 1_555 1_555
O29_83 Se3_83 1_555 1_555
O27_84 Se3_84 1_555 1_555
Se3_84 O28_84 1_555 1_555
O29_84 Se3_84 1_555 1_555
O27_85 Se3_85 1_555 1_555
Se3_85 O28_85 1_555 1_555
O29_85 Se3_85 1_555 1_555
O27_86 Se3_86 1_555 1_555
Se3_86 O28_86 1_555 1_555
O29_86 Se3_86 1_555 1_555
O27_87 Se3_87 1_555 1_555
Se3_87 O28_87 1_555 1_555
O29_87 Se3_87 1_555 1_555
O27_88 Se3_88 1_555 1_555
Se3_88 O28_88 1_555 1_555
O29_88 Se3_88 1_555 1_555
O27_89 Se3_89 1_555 1_555
Se3_89 O28_89 1_555 1_555
O29_89 Se3_89 1_555 1_555
O27_90 Se3_90 1_555 1_555
Se3_90 O28_90 1_555 1_555
O29_90 Se3_90 1_555 1_555
O27_91 Se3_91 1_555 1_555
Se3_91 O28_91 1_555 1_555
O29_91 Se3_91 1_555 1_555
O27_92 Se3_92 1_555 1_555
Se3_92 O28_92 1_555 1_555
O29_92 Se3_92 1_555 1_555
O27_93 Se3_93 1_555 1_555
Se3_93 O28_93 1_555 1_555
O29_93 Se3_93 1_555 1_555
O27_94 Se3_94 1_555 1_555
Se3_94 O28_94 1_555 1_555
O29_94 Se3_94 1_555 1_555
O27_95 Se3_95 1_555 1_555
Se3_95 O28_95 1_555 1_555
O29_95 Se3_95 1_555 1_555
O27_96 Se3_96 1_555 1_555
Se3_96 O28_96 1_555 1_555
O29_96 Se3_96 1_555 1_555

#END
