
###############################################################################
#
# This file contains modified crystal structure data generated from the
# MOF subset of the Cambridge Structural Database (CSD) v543 
# hosted by the Cambridge Crystallographic Data Centre (CCDC).
#
# This work is licensed under the Creative Commons
# Attribution-NonCommercial-ShareAlike 4.0 International License.
# To view a copy of this license, visit
# http://creativecommons.org/licenses/by-nc-sa/4.0/
# or send a letter to
# Creative Commons, PO Box 1866, Mountain View, CA 94042, USA.
#
# CIF created using the CSD Python API on 29 September 2022
# The structure has been converted into the P1 space group
# The structure has a 3D framework
# The original CSD entry IFAGON is in the tetragonal crystal system
# The framework has been calculated to contain at least 10.0% void space
# The void calculation uses a probe of radius 1.32A, grid spacing 0.4
#
###############################################################################

data_IFAGON
_chemical_formula_moiety         '(C416 H448 N32 O128 Zn32)n'
_symmetry_cell_setting           triclinic
_symmetry_space_group_name_H-M   'P 1'
_symmetry_Int_Tables_number      1
_space_group_name_Hall           'P 1'
loop_
_symmetry_equiv_pos_site_id
_symmetry_equiv_pos_as_xyz
1 x,y,z
_cell_length_a                   21.624(9)
_cell_length_b                   21.624(9)
_cell_length_c                   38.385(9)
_cell_angle_alpha                90
_cell_angle_beta                 90
_cell_angle_gamma                90
_cell_volume                     17948.7
loop_
_atom_site_label
_atom_site_type_symbol
_atom_site_fract_x
_atom_site_fract_y
_atom_site_fract_z
Zn1 Zn 0.228824(12) 0.027058(12) 0.086574(7)
H1 H 0.1502 0.0161 0.0217
C2 C 0.24379(14) 0.09488(11) 0.01962(6)
H3 H 0.2768 0.1183 0.0317
H4 H 0.2039 0.1157 0.0243
H6 H 0.3363 0.0222 0.0348
N1 N 0.24169(9) 0.03072(9) 0.03342(6)
Zn4 Zn 0.222942(12) 0.021176(12) 0.163426(7)
O9 O 0.13674(8) 0.01035(8) 0.09296(4)
O12 O 0.31900(8) 0.04006(8) 0.10242(5)
O14 O 0.21355(8) 0.11640(8) 0.10016(5)
H15 H 0.3498 0.0161 0.9783
C15 C 0.25621(14) 0.09488(11) 0.98038(6)
H17 H 0.2232 0.1183 0.9683
H18 H 0.2961 0.1157 0.9757
H20 H 0.1637 0.0222 0.9652
N2 N 0.25831(9) 0.03072(9) 0.96658(6)
Zn2 Zn 0.271176(12) 0.027058(12) 0.913426(7)
Zn3 Zn 0.277058(12) 0.021176(12) 0.836574(7)
O10 O 0.36326(8) 0.01035(8) 0.90704(4)
O11 O 0.18100(8) 0.04006(8) 0.89758(5)
O13 O 0.28645(8) 0.11640(8) 0.89984(5)
O1 O 0.24484(9) 0.93434(8) 0.09236(5)
O2 O 0.26035(8) 0.61326(8) 0.15704(4)
O3 O 0.20994(8) 0.93100(8) 0.14758(5)
O4 O 0.28645(8) 0.61640(8) 0.10016(5)
C1 C 0.19026(12) 0.99705(13) 0.01537(7)
H2 H 0.1896 0.9534 0.0232
C3 C 0.30135(12) 0.99938(13) 0.02419(7)
H5 H 0.3014 0.9568 0.0337
C4 C 0.23049(11) 0.90632(12) 0.12017(7)
C5 C 0.23978(12) 0.83724(11) 0.12113(6)
C6 C 0.25779(13) 0.81160(12) 0.15282(7)
H7 H 0.2625 0.8383 0.1723
C7 C 0.23285(13) 0.79904(12) 0.09137(7)
C8 C 0.21463(17) 0.82282(13) 0.05578(7)
H8 H 0.2502 0.8431 0.0449
H9 H 0.1807 0.8526 0.0582
H10 H 0.2011 0.7881 0.0412
C9 C 0.27054(10) 0.64129(12) 0.12872(6)
C10 C 0.26162(12) 0.71048(12) 0.12791(6)
C11 C 0.24374(13) 0.73641(12) 0.09605(7)
H11 H 0.2388 0.7097 0.0766
C12 C 0.26930(12) 0.74864(12) 0.15735(7)
C13 C 0.28952(17) 0.72578(13) 0.19291(7)
H12 H 0.2544 0.7064 0.2047
H13 H 0.3228 0.6955 0.1902
H14 H 0.3044 0.7608 0.2068
Zn7 Zn 0.277058(12) 0.521176(12) 0.163426(7)
Zn8 Zn 0.271176(12) 0.527058(12) 0.086574(7)
C14 C 0.30974(12) 0.99705(13) 0.98463(7)
H16 H 0.3104 0.9534 0.9768
C16 C 0.19865(12) 0.99938(13) 0.97581(7)
H19 H 0.1986 0.9568 0.9663
O5 O 0.25516(9) 0.93434(8) 0.90764(5)
O6 O 0.23965(8) 0.61326(8) 0.84296(4)
O7 O 0.29006(8) 0.93100(8) 0.85242(5)
O8 O 0.21355(8) 0.61640(8) 0.89984(5)
C17 C 0.26951(11) 0.90632(12) 0.87983(7)
C18 C 0.26022(12) 0.83724(11) 0.87887(6)
C19 C 0.24221(13) 0.81160(12) 0.84718(7)
H21 H 0.2375 0.8383 0.8277
C20 C 0.26715(13) 0.79904(12) 0.90863(7)
C21 C 0.28537(17) 0.82282(13) 0.94422(7)
H22 H 0.2498 0.8431 0.9551
H23 H 0.3193 0.8526 0.9418
H24 H 0.2989 0.7881 0.9588
C22 C 0.22946(10) 0.64129(12) 0.87128(6)
C23 C 0.23838(12) 0.71048(12) 0.87209(6)
C24 C 0.25626(13) 0.73641(12) 0.90395(7)
H25 H 0.2612 0.7097 0.9234
C25 C 0.23070(12) 0.74864(12) 0.84265(7)
C26 C 0.21048(17) 0.72578(13) 0.80709(7)
H26 H 0.2456 0.7064 0.7953
H27 H 0.1772 0.6955 0.8098
H28 H 0.1956 0.7608 0.7932
Zn5 Zn 0.228824(12) 0.527058(12) 0.913426(7)
Zn6 Zn 0.222942(12) 0.521176(12) 0.836574(7)
O2_2 O 0.63674(8) 0.01035(8) 0.40704(4)
O4_2 O 0.63360(8) 0.03645(8) 0.35016(5)
H3_2 H 0.1317 0.0268 0.2817
C3_2 C 0.25062(13) 0.05135(12) 0.27419(7)
H5_2 H 0.2932 0.0514 0.2837
H6_2 H 0.2278 0.0863 0.2848
C6_2 C 0.43840(12) 0.00779(13) 0.40282(7)
H7_2 H 0.4117 0.0125 0.4223
H8_2 H 0.4069 0.0002 0.2949
C9_2 C 0.60871(12) 0.02054(10) 0.37872(6)
C10_2 C 0.53952(12) 0.01162(12) 0.37791(6)
C12_2 C 0.50136(12) 0.01930(12) 0.40735(7)
C13_2 C 0.52422(13) 0.03952(17) 0.44291(7)
H12_2 H 0.5436 0.0044 0.4547
H13_2 H 0.5545 0.0728 0.4402
H14_2 H 0.4892 0.0544 0.4568
C14_2 C 0.25295(13) 0.05974(12) 0.23463(7)
H15_2 H 0.2339 0.0998 0.2283
H16_2 H 0.2966 0.0604 0.2268
C15_2 C 0.15512(11) 0.00621(14) 0.23038(6)
H18_2 H 0.1343 0.0461 0.2257
N2_2 N 0.21928(9) 0.00831(9) 0.21658(6)
O5_2 O 0.31566(8) 0.00516(9) 0.15764(5)
C17_2 C 0.34368(12) 0.01951(11) 0.12983(7)
C18_2 C 0.41276(11) 0.01022(12) 0.12887(6)
C20_2 C 0.45096(12) 0.01715(13) 0.15863(7)
C21_2 C 0.42718(13) 0.03537(17) 0.19422(7)
H23_2 H 0.3974 0.0693 0.1918
H24_2 H 0.4619 0.0489 0.2088
C24_2 C 0.51359(12) 0.00626(13) 0.15395(7)
H25_2 H 0.5403 0.0112 0.1734
Zn7_2 Zn 0.728824(12) 0.027058(12) 0.413426(7)
Zn8_2 Zn 0.722942(12) 0.021176(12) 0.336574(7)
O10_2 O 0.23965(8) 0.11326(8) 0.15704(4)
O12_2 O 0.20994(8) 0.06900(8) 0.35242(5)
O13_2 O 0.13360(8) 0.03645(8) 0.14984(5)
Zn1_2 Zn 0.222942(12) 0.978824(12) 0.336574(7)
O1_2 O 0.31566(8) 0.99484(9) 0.34236(5)
O3_2 O 0.31900(8) 0.95994(8) 0.39758(5)
C1_2 C 0.25295(13) 0.94026(12) 0.26537(7)
H1_2 H 0.2339 0.9002 0.2717
H2_2 H 0.2966 0.9396 0.2732
C2_2 C 0.15512(11) 0.99379(14) 0.26962(6)
H4_2 H 0.1343 0.9539 0.2743
N1_2 N 0.21928(9) 0.99169(9) 0.28342(6)
C4_2 C 0.34368(12) 0.98049(11) 0.37017(7)
C5_2 C 0.41276(11) 0.98978(12) 0.37113(6)
C7_2 C 0.45096(12) 0.98285(13) 0.34137(7)
C8_2 C 0.42718(13) 0.96463(17) 0.30578(7)
H9_2 H 0.3974 0.9307 0.3082
H10_2 H 0.4619 0.9511 0.2912
C11_2 C 0.51359(12) 0.99374(13) 0.34605(7)
H11_2 H 0.5403 0.9888 0.3266
H17_2 H 0.1317 0.9732 0.2183
C16_2 C 0.25062(13) 0.94865(12) 0.22581(7)
H19_2 H 0.2932 0.9486 0.2163
H20_2 H 0.2278 0.9137 0.2152
O6_2 O 0.63674(8) 0.98965(8) 0.09296(4)
O8_2 O 0.63360(8) 0.96355(8) 0.14984(5)
C19_2 C 0.43840(12) 0.99221(13) 0.09718(7)
H21_2 H 0.4117 0.9875 0.0777
H22_2 H 0.4069 0.9998 0.2051
C22_2 C 0.60871(12) 0.97946(10) 0.12128(6)
C23_2 C 0.53952(12) 0.98838(12) 0.12209(6)
C25_2 C 0.50136(12) 0.98070(12) 0.09265(7)
C26_2 C 0.52422(13) 0.96048(17) 0.05709(7)
H26_2 H 0.5436 0.9956 0.0453
H27_2 H 0.5545 0.9272 0.0598
H28_2 H 0.4892 0.9456 0.0432
Zn4_2 Zn 0.228824(12) 0.972942(12) 0.413426(7)
Zn5_2 Zn 0.722942(12) 0.978824(12) 0.163426(7)
Zn6_2 Zn 0.728824(12) 0.972942(12) 0.086574(7)
O9_2 O 0.23965(8) 0.88674(8) 0.34296(4)
O14_2 O 0.13360(8) 0.96355(8) 0.35016(5)
Zn1_3 Zn 0.771176(12) 0.472942(12) 0.086574(7)
O1_3 O 0.75516(9) 0.56566(8) 0.09236(5)
O2_3 O 0.73965(8) 0.88674(8) 0.15704(4)
O3_3 O 0.79006(8) 0.56900(8) 0.14758(5)
O4_3 O 0.71355(8) 0.88360(8) 0.10016(5)
C1_3 C 0.80974(12) 0.50295(13) 0.01537(7)
H1_3 H 0.8498 0.4839 0.0217
H2_3 H 0.8104 0.5466 0.0232
C2_3 C 0.75621(14) 0.40512(11) 0.01962(6)
H3_3 H 0.7232 0.3817 0.0317
H4_3 H 0.7961 0.3843 0.0243
C3_3 C 0.69865(12) 0.50062(13) 0.02419(7)
H5_3 H 0.6986 0.5432 0.0337
H6_3 H 0.6637 0.4778 0.0348
N1_3 N 0.75831(9) 0.46928(9) 0.03342(6)
C4_3 C 0.76951(11) 0.59368(12) 0.12017(7)
C5_3 C 0.76022(12) 0.66276(11) 0.12113(6)
C6_3 C 0.74221(13) 0.68840(12) 0.15282(7)
H7_3 H 0.7375 0.6617 0.1723
C7_3 C 0.76715(13) 0.70096(12) 0.09137(7)
C8_3 C 0.78537(17) 0.67718(13) 0.05578(7)
H8_3 H 0.7498 0.6569 0.0449
H9_3 H 0.8193 0.6474 0.0582
H10_3 H 0.7989 0.7119 0.0412
C9_3 C 0.72946(10) 0.85871(12) 0.12872(6)
C10_3 C 0.73838(12) 0.78952(12) 0.12791(6)
C11_3 C 0.75626(13) 0.76359(12) 0.09605(7)
H11_3 H 0.7612 0.7903 0.0766
C12_3 C 0.73070(12) 0.75136(12) 0.15735(7)
C13_3 C 0.71048(17) 0.77422(13) 0.19291(7)
H12_3 H 0.7456 0.7936 0.2047
H13_3 H 0.6772 0.8045 0.1902
H14_3 H 0.6956 0.7392 0.2068
Zn4_3 Zn 0.777058(12) 0.478824(12) 0.163426(7)
O9_3 O 0.86326(8) 0.48965(8) 0.09296(4)
O12_3 O 0.68100(8) 0.45994(8) 0.10242(5)
O14_3 O 0.78645(8) 0.38360(8) 0.10016(5)
C14_3 C 0.69026(12) 0.50295(13) 0.98463(7)
H15_3 H 0.6502 0.4839 0.9783
H16_3 H 0.6896 0.5466 0.9768
C15_3 C 0.74379(14) 0.40512(11) 0.98038(6)
H17_3 H 0.7768 0.3817 0.9683
H18_3 H 0.7039 0.3843 0.9757
C16_3 C 0.80135(12) 0.50062(13) 0.97581(7)
H19_3 H 0.8014 0.5432 0.9663
H20_3 H 0.8363 0.4778 0.9652
N2_3 N 0.74169(9) 0.46928(9) 0.96658(6)
Zn2_2 Zn 0.728824(12) 0.472942(12) 0.913426(7)
O5_3 O 0.74484(9) 0.56566(8) 0.90764(5)
O6_3 O 0.76035(8) 0.88674(8) 0.84296(4)
O7_2 O 0.70994(8) 0.56900(8) 0.85242(5)
O8_3 O 0.78645(8) 0.88360(8) 0.89984(5)
C17_3 C 0.73049(11) 0.59368(12) 0.87983(7)
C18_3 C 0.73978(12) 0.66276(11) 0.87887(6)
C19_3 C 0.75779(13) 0.68840(12) 0.84718(7)
H21_3 H 0.7625 0.6617 0.8277
C20_3 C 0.73285(13) 0.70096(12) 0.90863(7)
C21_3 C 0.71463(17) 0.67718(13) 0.94422(7)
H22_3 H 0.7502 0.6569 0.9551
H23_3 H 0.6807 0.6474 0.9418
H24_3 H 0.7011 0.7119 0.9588
C22_3 C 0.77054(10) 0.85871(12) 0.87128(6)
C23_3 C 0.76162(12) 0.78952(12) 0.87209(6)
C24_3 C 0.74374(13) 0.76359(12) 0.90395(7)
H25_3 H 0.7388 0.7903 0.9234
C25_3 C 0.76930(12) 0.75136(12) 0.84265(7)
C26_3 C 0.78952(17) 0.77422(13) 0.80709(7)
H26_3 H 0.7544 0.7936 0.7953
H27_3 H 0.8228 0.8045 0.8098
H28_3 H 0.8044 0.7392 0.7932
Zn3_2 Zn 0.722942(12) 0.478824(12) 0.836574(7)
Zn5_3 Zn 0.771176(12) 0.972942(12) 0.913426(7)
Zn6_3 Zn 0.777058(12) 0.978824(12) 0.836574(7)
O10_3 O 0.63674(8) 0.48965(8) 0.90704(4)
O11_2 O 0.81900(8) 0.45994(8) 0.89758(5)
O13_3 O 0.71355(8) 0.38360(8) 0.89984(5)
O1_4 O 0.18434(8) 0.00516(9) 0.84236(5)
C1_4 C 0.24705(13) 0.05974(12) 0.76537(7)
H1_4 H 0.2661 0.0998 0.7717
H2_4 H 0.2034 0.0604 0.7732
C2_4 C 0.34488(11) 0.00621(14) 0.76962(6)
H4_4 H 0.3657 0.0461 0.7743
N1_4 N 0.28072(9) 0.00831(9) 0.78342(6)
C4_4 C 0.15632(12) 0.01951(11) 0.87017(7)
C5_4 C 0.08724(11) 0.01022(12) 0.87113(6)
C7_4 C 0.04904(12) 0.01715(13) 0.84137(7)
C8_4 C 0.07282(13) 0.03537(17) 0.80578(7)
H9_4 H 0.1026 0.0693 0.8082
H10_4 H 0.0381 0.0489 0.7912
H17_4 H 0.3683 0.0268 0.7183
C16_4 C 0.24938(13) 0.05135(12) 0.72581(7)
H19_4 H 0.2068 0.0514 0.7163
H20_4 H 0.2722 0.0863 0.7152
C19_4 C 0.06160(12) 0.00779(13) 0.59718(7)
H21_4 H 0.0883 0.0125 0.5777
H22_4 H 0.0931 0.0002 0.7051
H28_4 H 0.0108 0.0544 0.5432
O9_4 O 0.26035(8) 0.11326(8) 0.84296(4)
O11_3 O 0.29006(8) 0.06900(8) 0.64758(5)
O14_4 O 0.36640(8) 0.03645(8) 0.85016(5)
H3_4 H 0.3683 0.9732 0.7817
C3_4 C 0.24938(13) 0.94865(12) 0.77419(7)
H5_4 H 0.2068 0.9486 0.7837
H6_4 H 0.2722 0.9137 0.7848
C6_4 C 0.06160(12) 0.99221(13) 0.90282(7)
H7_4 H 0.0883 0.9875 0.9223
H8_4 H 0.0931 0.9998 0.7949
H14_4 H 0.0108 0.9456 0.9568
C14_4 C 0.24705(13) 0.94026(12) 0.73463(7)
H15_4 H 0.2661 0.9002 0.7283
H16_4 H 0.2034 0.9396 0.7268
C15_4 C 0.34488(11) 0.99379(14) 0.73038(6)
H18_4 H 0.3657 0.9539 0.7257
N2_4 N 0.28072(9) 0.99169(9) 0.71658(6)
Zn2_3 Zn 0.277058(12) 0.978824(12) 0.663426(7)
O5_4 O 0.18434(8) 0.99484(9) 0.65764(5)
O7_3 O 0.18100(8) 0.95994(8) 0.60242(5)
C17_4 C 0.15632(12) 0.98049(11) 0.62983(7)
C18_4 C 0.08724(11) 0.98978(12) 0.62887(6)
C20_4 C 0.04904(12) 0.98285(13) 0.65863(7)
C21_4 C 0.07282(13) 0.96463(17) 0.69422(7)
H23_4 H 0.1026 0.9307 0.6918
H24_4 H 0.0381 0.9511 0.7088
Zn3_3 Zn 0.271176(12) 0.972942(12) 0.586574(7)
O10_4 O 0.26035(8) 0.88674(8) 0.65704(4)
O13_4 O 0.36640(8) 0.96355(8) 0.64984(5)
C11_4 C 0.98641(12) 0.00626(13) 0.84605(7)
H11_4 H 0.9597 0.0112 0.8266
O6_4 O 0.86326(8) 0.01035(8) 0.59296(4)
O8_4 O 0.86640(8) 0.03645(8) 0.64984(5)
C22_4 C 0.89129(12) 0.02054(10) 0.62128(6)
C23_4 C 0.96048(12) 0.01162(12) 0.62209(6)
C25_4 C 0.99864(12) 0.01930(12) 0.59265(7)
C26_4 C 0.97578(13) 0.03952(17) 0.55709(7)
H26_4 H 0.9564 0.0044 0.5453
H27_4 H 0.9455 0.0728 0.5598
Zn5_4 Zn 0.777058(12) 0.021176(12) 0.663426(7)
Zn6_4 Zn 0.771176(12) 0.027058(12) 0.586574(7)
O2_4 O 0.86326(8) 0.98965(8) 0.90704(4)
O4_4 O 0.86640(8) 0.96355(8) 0.85016(5)
C9_4 C 0.89129(12) 0.97946(10) 0.87872(6)
C10_4 C 0.96048(12) 0.98838(12) 0.87791(6)
C12_4 C 0.99864(12) 0.98070(12) 0.90735(7)
C13_4 C 0.97578(13) 0.96048(17) 0.94291(7)
H12_4 H 0.9564 0.9956 0.9547
H13_4 H 0.9455 0.9272 0.9402
C24_4 C 0.98641(12) 0.99374(13) 0.65395(7)
H25_4 H 0.9597 0.9888 0.6734
O1_5 O 0.24484(9) 0.06566(8) 0.40764(5)
O2_5 O 0.26035(8) 0.38674(8) 0.34296(4)
O4_5 O 0.28645(8) 0.38360(8) 0.39984(5)
C1_5 C 0.19026(12) 0.00295(13) 0.48463(7)
H2_5 H 0.1896 0.0466 0.4768
C3_5 C 0.30135(12) 0.00062(13) 0.47581(7)
H5_5 H 0.3014 0.0432 0.4663
C4_5 C 0.23049(11) 0.09368(12) 0.37983(7)
C5_5 C 0.23978(12) 0.16276(11) 0.37887(6)
C6_5 C 0.25779(13) 0.18840(12) 0.34718(7)
H7_5 H 0.2625 0.1617 0.3277
C7_5 C 0.23285(13) 0.20096(12) 0.40863(7)
C8_5 C 0.21463(17) 0.17718(13) 0.44422(7)
H8_5 H 0.2502 0.1569 0.4551
H9_5 H 0.1807 0.1474 0.4418
H10_5 H 0.2011 0.2119 0.4588
C9_5 C 0.27054(10) 0.35871(12) 0.37128(6)
C10_5 C 0.26162(12) 0.28952(12) 0.37209(6)
C11_5 C 0.24374(13) 0.26359(12) 0.40395(7)
H11_5 H 0.2388 0.2903 0.4234
C12_5 C 0.26930(12) 0.25136(12) 0.34265(7)
C13_5 C 0.28952(17) 0.27422(13) 0.30709(7)
H12_5 H 0.2544 0.2936 0.2953
H13_5 H 0.3228 0.3045 0.3098
H14_5 H 0.3044 0.2392 0.2932
C14_5 C 0.30974(12) 0.00295(13) 0.51537(7)
H16_5 H 0.3104 0.0466 0.5232
C16_5 C 0.19865(12) 0.00062(13) 0.52419(7)
H19_5 H 0.1986 0.0432 0.5337
O5_5 O 0.25516(9) 0.06566(8) 0.59236(5)
O6_5 O 0.23965(8) 0.38674(8) 0.65704(4)
O8_5 O 0.21355(8) 0.38360(8) 0.60016(5)
C17_5 C 0.26951(11) 0.09368(12) 0.62017(7)
C18_5 C 0.26022(12) 0.16276(11) 0.62113(6)
C19_5 C 0.24221(13) 0.18840(12) 0.65282(7)
H21_5 H 0.2375 0.1617 0.6723
C20_5 C 0.26715(13) 0.20096(12) 0.59137(7)
C21_5 C 0.28537(17) 0.17718(13) 0.55578(7)
H22_5 H 0.2498 0.1569 0.5449
H23_5 H 0.3193 0.1474 0.5582
H24_5 H 0.2989 0.2119 0.5412
C22_5 C 0.22946(10) 0.35871(12) 0.62872(6)
C23_5 C 0.23838(12) 0.28952(12) 0.62791(6)
C24_5 C 0.25626(13) 0.26359(12) 0.59605(7)
H25_5 H 0.2612 0.2903 0.5766
C25_5 C 0.23070(12) 0.25136(12) 0.65735(7)
C26_5 C 0.21048(17) 0.27422(13) 0.69291(7)
H26_5 H 0.2456 0.2936 0.7047
H27_5 H 0.1772 0.3045 0.6902
H28_5 H 0.1956 0.2392 0.7068
Zn5_5 Zn 0.228824(12) 0.472942(12) 0.586574(7)
Zn6_5 Zn 0.222942(12) 0.478824(12) 0.663426(7)
Zn7_3 Zn 0.277058(12) 0.478824(12) 0.336574(7)
Zn8_3 Zn 0.271176(12) 0.472942(12) 0.413426(7)
H1_5 H 0.1502 0.9839 0.4783
C2_5 C 0.24379(14) 0.90512(11) 0.48038(6)
H3_5 H 0.2768 0.8817 0.4683
H4_5 H 0.2039 0.8843 0.4757
H6_5 H 0.3363 0.9778 0.4652
N1_5 N 0.24169(9) 0.96928(9) 0.46658(6)
H15_5 H 0.3498 0.9839 0.5217
C15_5 C 0.25621(14) 0.90512(11) 0.51962(6)
H17_5 H 0.2232 0.8817 0.5317
H18_5 H 0.2961 0.8843 0.5243
H20_5 H 0.1637 0.9778 0.5348
N2_5 N 0.25831(9) 0.96928(9) 0.53342(6)
O9_5 O 0.13674(8) 0.98965(8) 0.40704(4)
O10_5 O 0.36326(8) 0.98965(8) 0.59296(4)
O13_5 O 0.28645(8) 0.88360(8) 0.60016(5)
O14_5 O 0.21355(8) 0.88360(8) 0.39984(5)
O1_6 O 0.68434(8) 0.49484(9) 0.15764(5)
O2_6 O 0.36326(8) 0.51035(8) 0.09296(4)
O4_6 O 0.36640(8) 0.53645(8) 0.14984(5)
C1_6 C 0.74705(13) 0.44026(12) 0.23463(7)
H1_6 H 0.7661 0.4002 0.2283
H2_6 H 0.7034 0.4396 0.2268
C2_6 C 0.84488(11) 0.49379(14) 0.23038(6)
H3_6 H 0.8683 0.5268 0.2183
H4_6 H 0.8657 0.4539 0.2257
C3_6 C 0.74938(13) 0.55135(12) 0.22581(7)
H5_6 H 0.7068 0.5514 0.2163
H6_6 H 0.7722 0.5863 0.2152
N1_6 N 0.78072(9) 0.49169(9) 0.21658(6)
C4_6 C 0.65632(12) 0.48049(11) 0.12983(7)
C5_6 C 0.58724(11) 0.48978(12) 0.12887(6)
C6_6 C 0.56160(12) 0.50779(13) 0.09718(7)
H7_6 H 0.5883 0.5125 0.0777
C7_6 C 0.54904(12) 0.48285(13) 0.15863(7)
C8_6 C 0.57282(13) 0.46463(17) 0.19422(7)
H8_6 H 0.5931 0.5002 0.2051
H9_6 H 0.6026 0.4307 0.1918
H10_6 H 0.5381 0.4511 0.2088
C9_6 C 0.39129(12) 0.52054(10) 0.12128(6)
C10_6 C 0.46048(12) 0.51162(12) 0.12209(6)
C11_6 C 0.48641(12) 0.49374(13) 0.15395(7)
H11_6 H 0.4597 0.4888 0.1734
C12_6 C 0.49864(12) 0.51930(12) 0.09265(7)
C13_6 C 0.47578(13) 0.53952(17) 0.05709(7)
H12_6 H 0.4564 0.5044 0.0453
H13_6 H 0.4455 0.5728 0.0598
H14_6 H 0.5108 0.5544 0.0432
C14_6 C 0.74705(13) 0.55974(12) 0.26537(7)
H15_6 H 0.7661 0.5998 0.2717
H16_6 H 0.7034 0.5604 0.2732
C15_6 C 0.84488(11) 0.50621(14) 0.26962(6)
H17_6 H 0.8683 0.4732 0.2817
H18_6 H 0.8657 0.5461 0.2743
C16_6 C 0.74938(13) 0.44865(12) 0.27419(7)
H19_6 H 0.7068 0.4486 0.2837
H20_6 H 0.7722 0.4137 0.2848
N2_6 N 0.78072(9) 0.50831(9) 0.28342(6)
Zn2_4 Zn 0.777058(12) 0.521176(12) 0.336574(7)
O5_6 O 0.68434(8) 0.50516(9) 0.34236(5)
O6_6 O 0.36326(8) 0.48965(8) 0.40704(4)
O7_4 O 0.68100(8) 0.54006(8) 0.39758(5)
O8_6 O 0.36640(8) 0.46355(8) 0.35016(5)
C17_6 C 0.65632(12) 0.51951(11) 0.37017(7)
C18_6 C 0.58724(11) 0.51022(12) 0.37113(6)
C19_6 C 0.56160(12) 0.49221(13) 0.40282(7)
H21_6 H 0.5883 0.4875 0.4223
C20_6 C 0.54904(12) 0.51715(13) 0.34137(7)
C21_6 C 0.57282(13) 0.53537(17) 0.30578(7)
H22_6 H 0.5931 0.4998 0.2949
H23_6 H 0.6026 0.5693 0.3082
H24_6 H 0.5381 0.5489 0.2912
C22_6 C 0.39129(12) 0.47946(10) 0.37872(6)
C23_6 C 0.46048(12) 0.48838(12) 0.37791(6)
C24_6 C 0.48641(12) 0.50626(13) 0.34605(7)
H25_6 H 0.4597 0.5112 0.3266
C25_6 C 0.49864(12) 0.48070(12) 0.40735(7)
C26_6 C 0.47578(13) 0.46048(17) 0.44291(7)
H26_6 H 0.4564 0.4956 0.4547
H27_6 H 0.4455 0.4272 0.4402
H28_6 H 0.5108 0.4456 0.4568
Zn3_4 Zn 0.771176(12) 0.527058(12) 0.413426(7)
O9_6 O 0.76035(8) 0.38674(8) 0.15704(4)
O10_6 O 0.76035(8) 0.61326(8) 0.34296(4)
O11_4 O 0.79006(8) 0.43100(8) 0.35242(5)
O13_6 O 0.86640(8) 0.53645(8) 0.35016(5)
O14_6 O 0.86640(8) 0.46355(8) 0.14984(5)
Zn1_4 Zn 0.728824(12) 0.527058(12) 0.586574(7)
O1_7 O 0.74484(9) 0.43434(8) 0.59236(5)
O2_7 O 0.76035(8) 0.11326(8) 0.65704(4)
O3_4 O 0.70994(8) 0.43100(8) 0.64758(5)
O4_7 O 0.78645(8) 0.11640(8) 0.60016(5)
C1_7 C 0.69026(12) 0.49705(13) 0.51537(7)
H1_7 H 0.6502 0.5161 0.5217
H2_7 H 0.6896 0.4534 0.5232
C2_7 C 0.74379(14) 0.59488(11) 0.51962(6)
H3_7 H 0.7768 0.6183 0.5317
H4_7 H 0.7039 0.6157 0.5243
C3_7 C 0.80135(12) 0.49938(13) 0.52419(7)
H5_7 H 0.8014 0.4568 0.5337
H6_7 H 0.8363 0.5222 0.5348
N1_7 N 0.74169(9) 0.53072(9) 0.53342(6)
C4_7 C 0.73049(11) 0.40632(12) 0.62017(7)
C5_7 C 0.73978(12) 0.33724(11) 0.62113(6)
C6_7 C 0.75779(13) 0.31160(12) 0.65282(7)
H7_7 H 0.7625 0.3383 0.6723
C7_7 C 0.73285(13) 0.29904(12) 0.59137(7)
C8_7 C 0.71463(17) 0.32282(13) 0.55578(7)
H8_7 H 0.7502 0.3431 0.5449
H9_7 H 0.6807 0.3526 0.5582
H10_7 H 0.7011 0.2881 0.5412
C9_7 C 0.77054(10) 0.14129(12) 0.62872(6)
C10_7 C 0.76162(12) 0.21048(12) 0.62791(6)
C11_7 C 0.74374(13) 0.23641(12) 0.59605(7)
H11_7 H 0.7388 0.2097 0.5766
C12_7 C 0.76930(12) 0.24864(12) 0.65735(7)
C13_7 C 0.78952(17) 0.22578(13) 0.69291(7)
H12_7 H 0.7544 0.2064 0.7047
H13_7 H 0.8228 0.1955 0.6902
H14_7 H 0.8044 0.2608 0.7068
C14_7 C 0.80974(12) 0.49705(13) 0.48463(7)
H15_7 H 0.8498 0.5161 0.4783
H16_7 H 0.8104 0.4534 0.4768
C15_7 C 0.75621(14) 0.59488(11) 0.48038(6)
H17_7 H 0.7232 0.6183 0.4683
H18_7 H 0.7961 0.6157 0.4757
C16_7 C 0.69865(12) 0.49938(13) 0.47581(7)
H19_7 H 0.6986 0.4568 0.4663
H20_7 H 0.6637 0.5222 0.4652
N2_7 N 0.75831(9) 0.53072(9) 0.46658(6)
O5_7 O 0.75516(9) 0.43434(8) 0.40764(5)
O6_7 O 0.73965(8) 0.11326(8) 0.34296(4)
O8_7 O 0.71355(8) 0.11640(8) 0.39984(5)
C17_7 C 0.76951(11) 0.40632(12) 0.37983(7)
C18_7 C 0.76022(12) 0.33724(11) 0.37887(6)
C19_7 C 0.74221(13) 0.31160(12) 0.34718(7)
H21_7 H 0.7375 0.3383 0.3277
C20_7 C 0.76715(13) 0.29904(12) 0.40863(7)
C21_7 C 0.78537(17) 0.32282(13) 0.44422(7)
H22_7 H 0.7498 0.3431 0.4551
H23_7 H 0.8193 0.3526 0.4418
H24_7 H 0.7989 0.2881 0.4588
C22_7 C 0.72946(10) 0.14129(12) 0.37128(6)
C23_7 C 0.73838(12) 0.21048(12) 0.37209(6)
C24_7 C 0.75626(13) 0.23641(12) 0.40395(7)
H25_7 H 0.7612 0.2097 0.4234
C25_7 C 0.73070(12) 0.24864(12) 0.34265(7)
C26_7 C 0.71048(17) 0.22578(13) 0.30709(7)
H26_7 H 0.7456 0.2064 0.2953
H27_7 H 0.6772 0.1955 0.3098
H28_7 H 0.6956 0.2608 0.2932
Zn4_4 Zn 0.722942(12) 0.521176(12) 0.663426(7)
O9_7 O 0.63674(8) 0.51035(8) 0.59296(4)
O10_7 O 0.86326(8) 0.51035(8) 0.40704(4)
O12_4 O 0.81900(8) 0.54006(8) 0.60242(5)
O13_7 O 0.78645(8) 0.61640(8) 0.39984(5)
O14_7 O 0.71355(8) 0.61640(8) 0.60016(5)
O2_8 O 0.13674(8) 0.51035(8) 0.90704(4)
O4_8 O 0.13360(8) 0.53645(8) 0.85016(5)
C9_8 C 0.10871(12) 0.52054(10) 0.87872(6)
C10_8 C 0.03952(12) 0.51162(12) 0.87791(6)
C11_8 C 0.01359(12) 0.49374(13) 0.84605(7)
H11_8 H 0.0403 0.4888 0.8266
C12_8 C 0.00136(12) 0.51930(12) 0.90735(7)
C13_8 C 0.02422(13) 0.53952(17) 0.94291(7)
H12_8 H 0.0436 0.5044 0.9547
H13_8 H 0.0545 0.5728 0.9402
O6_8 O 0.13674(8) 0.48965(8) 0.59296(4)
O8_8 O 0.13360(8) 0.46355(8) 0.64984(5)
C22_8 C 0.10871(12) 0.47946(10) 0.62128(6)
C23_8 C 0.03952(12) 0.48838(12) 0.62209(6)
C24_8 C 0.01359(12) 0.50626(13) 0.65395(7)
H25_8 H 0.0403 0.5112 0.6734
C25_8 C 0.00136(12) 0.48070(12) 0.59265(7)
C26_8 C 0.02422(13) 0.46048(17) 0.55709(7)
H26_8 H 0.0436 0.4956 0.5453
H27_8 H 0.0545 0.4272 0.5598
O1_8 O 0.81566(8) 0.49484(9) 0.84236(5)
C1_8 C 0.75295(13) 0.44026(12) 0.76537(7)
H1_8 H 0.7339 0.4002 0.7717
H2_8 H 0.7966 0.4396 0.7732
C2_8 C 0.65512(11) 0.49379(14) 0.76962(6)
H3_8 H 0.6317 0.5268 0.7817
H4_8 H 0.6343 0.4539 0.7743
C3_8 C 0.75062(13) 0.55135(12) 0.77419(7)
H5_8 H 0.7932 0.5514 0.7837
H6_8 H 0.7278 0.5863 0.7848
N1_8 N 0.71928(9) 0.49169(9) 0.78342(6)
C4_8 C 0.84368(12) 0.48049(11) 0.87017(7)
C5_8 C 0.91276(11) 0.48978(12) 0.87113(6)
C6_8 C 0.93840(12) 0.50779(13) 0.90282(7)
H7_8 H 0.9117 0.5125 0.9223
C7_8 C 0.95096(12) 0.48285(13) 0.84137(7)
C8_8 C 0.92718(13) 0.46463(17) 0.80578(7)
H8_8 H 0.9069 0.5002 0.7949
H9_8 H 0.8974 0.4307 0.8082
H10_8 H 0.9619 0.4511 0.7912
H14_8 H 0.9892 0.5544 0.9568
C14_8 C 0.75295(13) 0.55974(12) 0.73463(7)
H15_8 H 0.7339 0.5998 0.7283
H16_8 H 0.7966 0.5604 0.7268
C15_8 C 0.65512(11) 0.50621(14) 0.73038(6)
H17_8 H 0.6317 0.4732 0.7183
H18_8 H 0.6343 0.5461 0.7257
C16_8 C 0.75062(13) 0.44865(12) 0.72581(7)
H19_8 H 0.7932 0.4486 0.7163
H20_8 H 0.7278 0.4137 0.7152
N2_8 N 0.71928(9) 0.50831(9) 0.71658(6)
O5_8 O 0.81566(8) 0.50516(9) 0.65764(5)
C17_8 C 0.84368(12) 0.51951(11) 0.62983(7)
C18_8 C 0.91276(11) 0.51022(12) 0.62887(6)
C19_8 C 0.93840(12) 0.49221(13) 0.59718(7)
H21_8 H 0.9117 0.4875 0.5777
C20_8 C 0.95096(12) 0.51715(13) 0.65863(7)
C21_8 C 0.92718(13) 0.53537(17) 0.69422(7)
H22_8 H 0.9069 0.4998 0.7051
H23_8 H 0.8974 0.5693 0.6918
H24_8 H 0.9619 0.5489 0.7088
H28_8 H 0.9892 0.4456 0.5432
O9_8 O 0.73965(8) 0.38674(8) 0.84296(4)
O10_8 O 0.73965(8) 0.61326(8) 0.65704(4)
O13_8 O 0.63360(8) 0.53645(8) 0.64984(5)
O14_8 O 0.63360(8) 0.46355(8) 0.85016(5)
C14_9 C 0.69026(12) 0.00295(13) 0.01537(7)
H16_9 H 0.6896 0.0466 0.0232
C16_9 C 0.80135(12) 0.00062(13) 0.02419(7)
H19_9 H 0.8014 0.0432 0.0337
O5_9 O 0.74484(9) 0.06566(8) 0.09236(5)
O7_5 O 0.70994(8) 0.06900(8) 0.14758(5)
C17_9 C 0.73049(11) 0.09368(12) 0.12017(7)
C18_9 C 0.73978(12) 0.16276(11) 0.12113(6)
C19_9 C 0.75779(13) 0.18840(12) 0.15282(7)
H21_9 H 0.7625 0.1617 0.1723
C20_9 C 0.73285(13) 0.20096(12) 0.09137(7)
C21_9 C 0.71463(17) 0.17718(13) 0.05578(7)
H22_9 H 0.7502 0.1569 0.0449
H23_9 H 0.6807 0.1474 0.0582
H24_9 H 0.7011 0.2119 0.0412
C22_9 C 0.77054(10) 0.35871(12) 0.12872(6)
C23_9 C 0.76162(12) 0.28952(12) 0.12791(6)
C24_9 C 0.74374(13) 0.26359(12) 0.09605(7)
H25_9 H 0.7388 0.2903 0.0766
C25_9 C 0.76930(12) 0.25136(12) 0.15735(7)
C26_9 C 0.78952(17) 0.27422(13) 0.19291(7)
H26_9 H 0.7544 0.2936 0.2047
H27_9 H 0.8228 0.3045 0.1902
H28_9 H 0.8044 0.2392 0.2068
O1_9 O 0.75516(9) 0.06566(8) 0.90764(5)
O3_5 O 0.79006(8) 0.06900(8) 0.85242(5)
C1_9 C 0.80974(12) 0.00295(13) 0.98463(7)
H2_9 H 0.8104 0.0466 0.9768
C3_9 C 0.69865(12) 0.00062(13) 0.97581(7)
H5_9 H 0.6986 0.0432 0.9663
C4_9 C 0.76951(11) 0.09368(12) 0.87983(7)
C5_9 C 0.76022(12) 0.16276(11) 0.87887(6)
C6_9 C 0.74221(13) 0.18840(12) 0.84718(7)
H7_9 H 0.7375 0.1617 0.8277
C7_9 C 0.76715(13) 0.20096(12) 0.90863(7)
C8_9 C 0.78537(17) 0.17718(13) 0.94422(7)
H8_9 H 0.7498 0.1569 0.9551
H9_9 H 0.8193 0.1474 0.9418
H10_9 H 0.7989 0.2119 0.9588
C9_9 C 0.72946(10) 0.35871(12) 0.87128(6)
C10_9 C 0.73838(12) 0.28952(12) 0.87209(6)
C11_9 C 0.75626(13) 0.26359(12) 0.90395(7)
H11_9 H 0.7612 0.2903 0.9234
C12_9 C 0.73070(12) 0.25136(12) 0.84265(7)
C13_9 C 0.71048(17) 0.27422(13) 0.80709(7)
H12_9 H 0.7456 0.2936 0.7953
H13_9 H 0.6772 0.3045 0.8098
H14_9 H 0.6956 0.2392 0.7932
H15_9 H 0.6502 0.9839 0.0217
C15_9 C 0.74379(14) 0.90512(11) 0.01962(6)
H17_9 H 0.7768 0.8817 0.0317
H18_9 H 0.7039 0.8843 0.0243
H20_9 H 0.8363 0.9778 0.0348
N2_9 N 0.74169(9) 0.96928(9) 0.03342(6)
O11_5 O 0.81900(8) 0.95994(8) 0.10242(5)
H1_9 H 0.8498 0.9839 0.9783
C2_9 C 0.75621(14) 0.90512(11) 0.98038(6)
H3_9 H 0.7232 0.8817 0.9683
H4_9 H 0.7961 0.8843 0.9757
H6_9 H 0.6637 0.9778 0.9652
N1_9 N 0.75831(9) 0.96928(9) 0.96658(6)
O12_5 O 0.68100(8) 0.95994(8) 0.89758(5)
O1_10 O 0.68434(8) 0.00516(9) 0.65764(5)
O3_6 O 0.68100(8) 0.04006(8) 0.60242(5)
C1_10 C 0.74705(13) 0.05974(12) 0.73463(7)
H1_10 H 0.7661 0.0998 0.7283
H2_10 H 0.7034 0.0604 0.7268
C2_10 C 0.84488(11) 0.00621(14) 0.73038(6)
H4_10 H 0.8657 0.0461 0.7257
N1_10 N 0.78072(9) 0.00831(9) 0.71658(6)
C4_10 C 0.65632(12) 0.01951(11) 0.62983(7)
C5_10 C 0.58724(11) 0.01022(12) 0.62887(6)
C7_10 C 0.54904(12) 0.01715(13) 0.65863(7)
C8_10 C 0.57282(13) 0.03537(17) 0.69422(7)
H9_10 H 0.6026 0.0693 0.6918
H10_10 H 0.5381 0.0489 0.7088
C11_10 C 0.48641(12) 0.00626(13) 0.65395(7)
H11_10 H 0.4597 0.0112 0.6734
H17_10 H 0.8683 0.0268 0.7817
C16_10 C 0.74938(13) 0.05135(12) 0.77419(7)
H19_10 H 0.7068 0.0514 0.7837
H20_10 H 0.7722 0.0863 0.7848
C19_10 C 0.56160(12) 0.00779(13) 0.90282(7)
H21_10 H 0.5883 0.0125 0.9223
H22_10 H 0.5931 0.0002 0.7949
C22_10 C 0.39129(12) 0.02054(10) 0.87872(6)
C23_10 C 0.46048(12) 0.01162(12) 0.87791(6)
C25_10 C 0.49864(12) 0.01930(12) 0.90735(7)
C26_10 C 0.47578(13) 0.03952(17) 0.94291(7)
H26_10 H 0.4564 0.0044 0.9547
H27_10 H 0.4455 0.0728 0.9402
H28_10 H 0.5108 0.0544 0.9568
H3_10 H 0.8683 0.9732 0.7183
C3_10 C 0.74938(13) 0.94865(12) 0.72581(7)
H5_10 H 0.7068 0.9486 0.7163
H6_10 H 0.7722 0.9137 0.7152
C6_10 C 0.56160(12) 0.99221(13) 0.59718(7)
H7_10 H 0.5883 0.9875 0.5777
H8_10 H 0.5931 0.9998 0.7051
C9_10 C 0.39129(12) 0.97946(10) 0.62128(6)
C10_10 C 0.46048(12) 0.98838(12) 0.62209(6)
C12_10 C 0.49864(12) 0.98070(12) 0.59265(7)
C13_10 C 0.47578(13) 0.96048(17) 0.55709(7)
H12_10 H 0.4564 0.9956 0.5453
H13_10 H 0.4455 0.9272 0.5598
H14_10 H 0.5108 0.9456 0.5432
C14_10 C 0.74705(13) 0.94026(12) 0.76537(7)
H15_10 H 0.7661 0.9002 0.7717
H16_10 H 0.7034 0.9396 0.7732
C15_10 C 0.84488(11) 0.99379(14) 0.76962(6)
H18_10 H 0.8657 0.9539 0.7743
N2_10 N 0.78072(9) 0.99169(9) 0.78342(6)
O5_10 O 0.68434(8) 0.99484(9) 0.84236(5)
C17_10 C 0.65632(12) 0.98049(11) 0.87017(7)
C18_10 C 0.58724(11) 0.98978(12) 0.87113(6)
C20_10 C 0.54904(12) 0.98285(13) 0.84137(7)
C21_10 C 0.57282(13) 0.96463(17) 0.80578(7)
H23_10 H 0.6026 0.9307 0.8082
H24_10 H 0.5381 0.9511 0.7912
C24_10 C 0.48641(12) 0.99374(13) 0.84605(7)
H25_10 H 0.4597 0.9888 0.8266
O12_6 O 0.79006(8) 0.93100(8) 0.64758(5)
C14_11 C 0.30974(12) 0.49705(13) 0.01537(7)
H15_11 H 0.3498 0.5161 0.0217
H16_11 H 0.3104 0.4534 0.0232
C15_11 C 0.25621(14) 0.59488(11) 0.01962(6)
H17_11 H 0.2232 0.6183 0.0317
H18_11 H 0.2961 0.6157 0.0243
C16_11 C 0.19865(12) 0.49938(13) 0.02419(7)
H19_11 H 0.1986 0.4568 0.0337
H20_11 H 0.1637 0.5222 0.0348
N2_11 N 0.25831(9) 0.53072(9) 0.03342(6)
O5_11 O 0.25516(9) 0.43434(8) 0.09236(5)
O7_6 O 0.29006(8) 0.43100(8) 0.14758(5)
C17_11 C 0.26951(11) 0.40632(12) 0.12017(7)
C18_11 C 0.26022(12) 0.33724(11) 0.12113(6)
C19_11 C 0.24221(13) 0.31160(12) 0.15282(7)
H21_11 H 0.2375 0.3383 0.1723
C20_11 C 0.26715(13) 0.29904(12) 0.09137(7)
C21_11 C 0.28537(17) 0.32282(13) 0.05578(7)
H22_11 H 0.2498 0.3431 0.0449
H23_11 H 0.3193 0.3526 0.0582
H24_11 H 0.2989 0.2881 0.0412
C22_11 C 0.22946(10) 0.14129(12) 0.12872(6)
C23_11 C 0.23838(12) 0.21048(12) 0.12791(6)
C24_11 C 0.25626(13) 0.23641(12) 0.09605(7)
H25_11 H 0.2612 0.2097 0.0766
C25_11 C 0.23070(12) 0.24864(12) 0.15735(7)
C26_11 C 0.21048(17) 0.22578(13) 0.19291(7)
H26_11 H 0.2456 0.2064 0.2047
H27_11 H 0.1772 0.1955 0.1902
H28_11 H 0.1956 0.2608 0.2068
O11_6 O 0.18100(8) 0.54006(8) 0.10242(5)
O1_11 O 0.24484(9) 0.43434(8) 0.90764(5)
O3_7 O 0.20994(8) 0.43100(8) 0.85242(5)
C1_11 C 0.19026(12) 0.49705(13) 0.98463(7)
H1_11 H 0.1502 0.5161 0.9783
H2_11 H 0.1896 0.4534 0.9768
C2_11 C 0.24379(14) 0.59488(11) 0.98038(6)
H3_11 H 0.2768 0.6183 0.9683
H4_11 H 0.2039 0.6157 0.9757
C3_11 C 0.30135(12) 0.49938(13) 0.97581(7)
H5_11 H 0.3014 0.4568 0.9663
H6_11 H 0.3363 0.5222 0.9652
N1_11 N 0.24169(9) 0.53072(9) 0.96658(6)
C4_11 C 0.23049(11) 0.40632(12) 0.87983(7)
C5_11 C 0.23978(12) 0.33724(11) 0.87887(6)
C6_11 C 0.25779(13) 0.31160(12) 0.84718(7)
H7_11 H 0.2625 0.3383 0.8277
C7_11 C 0.23285(13) 0.29904(12) 0.90863(7)
C8_11 C 0.21463(17) 0.32282(13) 0.94422(7)
H8_11 H 0.2502 0.3431 0.9551
H9_11 H 0.1807 0.3526 0.9418
H10_11 H 0.2011 0.2881 0.9588
C9_11 C 0.27054(10) 0.14129(12) 0.87128(6)
C10_11 C 0.26162(12) 0.21048(12) 0.87209(6)
C11_11 C 0.24374(13) 0.23641(12) 0.90395(7)
H11_11 H 0.2388 0.2097 0.9234
C12_11 C 0.26930(12) 0.24864(12) 0.84265(7)
C13_11 C 0.28952(17) 0.22578(13) 0.80709(7)
H12_11 H 0.2544 0.2064 0.7953
H13_11 H 0.3228 0.1955 0.8098
H14_11 H 0.3044 0.2608 0.7932
O12_7 O 0.31900(8) 0.54006(8) 0.89758(5)
C9_12 C 0.10871(12) 0.02054(10) 0.12128(6)
C10_12 C 0.03952(12) 0.01162(12) 0.12209(6)
C12_12 C 0.00136(12) 0.01930(12) 0.09265(7)
C13_12 C 0.02422(13) 0.03952(17) 0.05709(7)
H12_12 H 0.0436 0.0044 0.0453
H13_12 H 0.0545 0.0728 0.0598
C24_12 C 0.01359(12) 0.00626(13) 0.34605(7)
H25_12 H 0.0403 0.0112 0.3266
C11_12 C 0.01359(12) 0.99374(13) 0.15395(7)
H11_12 H 0.0403 0.9888 0.1734
C22_12 C 0.10871(12) 0.97946(10) 0.37872(6)
C23_12 C 0.03952(12) 0.98838(12) 0.37791(6)
C25_12 C 0.00136(12) 0.98070(12) 0.40735(7)
C26_12 C 0.02422(13) 0.96048(17) 0.44291(7)
H26_12 H 0.0436 0.9956 0.4547
H27_12 H 0.0545 0.9272 0.4402
H3_12 H 0.6317 0.0268 0.2183
C3_12 C 0.75062(13) 0.05135(12) 0.22581(7)
H5_12 H 0.7932 0.0514 0.2163
H6_12 H 0.7278 0.0863 0.2152
C6_12 C 0.93840(12) 0.00779(13) 0.09718(7)
H7_12 H 0.9117 0.0125 0.0777
H8_12 H 0.9069 0.0002 0.2051
H14_12 H 0.9892 0.0544 0.0432
C14_12 C 0.75295(13) 0.05974(12) 0.26537(7)
H15_12 H 0.7339 0.0998 0.2717
H16_12 H 0.7966 0.0604 0.2732
C15_12 C 0.65512(11) 0.00621(14) 0.26962(6)
H18_12 H 0.6343 0.0461 0.2743
N2_12 N 0.71928(9) 0.00831(9) 0.28342(6)
O5_12 O 0.81566(8) 0.00516(9) 0.34236(5)
O7_7 O 0.81900(8) 0.04006(8) 0.39758(5)
C17_12 C 0.84368(12) 0.01951(11) 0.37017(7)
C18_12 C 0.91276(11) 0.01022(12) 0.37113(6)
C20_12 C 0.95096(12) 0.01715(13) 0.34137(7)
C21_12 C 0.92718(13) 0.03537(17) 0.30578(7)
H23_12 H 0.8974 0.0693 0.3082
H24_12 H 0.9619 0.0489 0.2912
O1_12 O 0.81566(8) 0.99484(9) 0.15764(5)
C1_12 C 0.75295(13) 0.94026(12) 0.23463(7)
H1_12 H 0.7339 0.9002 0.2283
H2_12 H 0.7966 0.9396 0.2268
C2_12 C 0.65512(11) 0.99379(14) 0.23038(6)
H4_12 H 0.6343 0.9539 0.2257
N1_12 N 0.71928(9) 0.99169(9) 0.21658(6)
C4_12 C 0.84368(12) 0.98049(11) 0.12983(7)
C5_12 C 0.91276(11) 0.98978(12) 0.12887(6)
C7_12 C 0.95096(12) 0.98285(13) 0.15863(7)
C8_12 C 0.92718(13) 0.96463(17) 0.19422(7)
H9_12 H 0.8974 0.9307 0.1918
H10_12 H 0.9619 0.9511 0.2088
H17_12 H 0.6317 0.9732 0.2817
C16_12 C 0.75062(13) 0.94865(12) 0.27419(7)
H19_12 H 0.7932 0.9486 0.2837
H20_12 H 0.7278 0.9137 0.2848
C19_12 C 0.93840(12) 0.99221(13) 0.40282(7)
H21_12 H 0.9117 0.9875 0.4223
H22_12 H 0.9069 0.9998 0.2949
H28_12 H 0.9892 0.9456 0.4568
O11_7 O 0.70994(8) 0.93100(8) 0.35242(5)
H1_13 H 0.8498 0.0161 0.5217
C2_13 C 0.75621(14) 0.09488(11) 0.51962(6)
H3_13 H 0.7232 0.1183 0.5317
H4_13 H 0.7961 0.1157 0.5243
H6_13 H 0.6637 0.0222 0.5348
N1_13 N 0.75831(9) 0.03072(9) 0.53342(6)
H15_13 H 0.6502 0.0161 0.4783
C15_13 C 0.74379(14) 0.09488(11) 0.48038(6)
H17_13 H 0.7768 0.1183 0.4683
H18_13 H 0.7039 0.1157 0.4757
H20_13 H 0.8363 0.0222 0.4652
N2_13 N 0.74169(9) 0.03072(9) 0.46658(6)
O1_13 O 0.75516(9) 0.93434(8) 0.59236(5)
C1_13 C 0.80974(12) 0.99705(13) 0.51537(7)
H2_13 H 0.8104 0.9534 0.5232
C3_13 C 0.69865(12) 0.99938(13) 0.52419(7)
H5_13 H 0.6986 0.9568 0.5337
C4_13 C 0.76951(11) 0.90632(12) 0.62017(7)
C5_13 C 0.76022(12) 0.83724(11) 0.62113(6)
C6_13 C 0.74221(13) 0.81160(12) 0.65282(7)
H7_13 H 0.7375 0.8383 0.6723
C7_13 C 0.76715(13) 0.79904(12) 0.59137(7)
C8_13 C 0.78537(17) 0.82282(13) 0.55578(7)
H8_13 H 0.7498 0.8431 0.5449
H9_13 H 0.8193 0.8526 0.5582
H10_13 H 0.7989 0.7881 0.5412
C9_13 C 0.72946(10) 0.64129(12) 0.62872(6)
C10_13 C 0.73838(12) 0.71048(12) 0.62791(6)
C11_13 C 0.75626(13) 0.73641(12) 0.59605(7)
H11_13 H 0.7612 0.7097 0.5766
C12_13 C 0.73070(12) 0.74864(12) 0.65735(7)
C13_13 C 0.71048(17) 0.72578(13) 0.69291(7)
H12_13 H 0.7456 0.7064 0.7047
H13_13 H 0.6772 0.6955 0.6902
H14_13 H 0.6956 0.7608 0.7068
C14_13 C 0.69026(12) 0.99705(13) 0.48463(7)
H16_13 H 0.6896 0.9534 0.4768
C16_13 C 0.80135(12) 0.99938(13) 0.47581(7)
H19_13 H 0.8014 0.9568 0.4663
O5_13 O 0.74484(9) 0.93434(8) 0.40764(5)
C17_13 C 0.73049(11) 0.90632(12) 0.37983(7)
C18_13 C 0.73978(12) 0.83724(11) 0.37887(6)
C19_13 C 0.75779(13) 0.81160(12) 0.34718(7)
H21_13 H 0.7625 0.8383 0.3277
C20_13 C 0.73285(13) 0.79904(12) 0.40863(7)
C21_13 C 0.71463(17) 0.82282(13) 0.44422(7)
H22_13 H 0.7502 0.8431 0.4551
H23_13 H 0.6807 0.8526 0.4418
H24_13 H 0.7011 0.7881 0.4588
C22_13 C 0.77054(10) 0.64129(12) 0.37128(6)
C23_13 C 0.76162(12) 0.71048(12) 0.37209(6)
C24_13 C 0.74374(13) 0.73641(12) 0.40395(7)
H25_13 H 0.7388 0.7097 0.4234
C25_13 C 0.76930(12) 0.74864(12) 0.34265(7)
C26_13 C 0.78952(17) 0.72578(13) 0.30709(7)
H26_13 H 0.7544 0.7064 0.2953
H27_13 H 0.8228 0.6955 0.3098
H28_13 H 0.8044 0.7608 0.2932
O1_14 O 0.31566(8) 0.50516(9) 0.84236(5)
C1_14 C 0.25295(13) 0.55974(12) 0.76537(7)
H1_14 H 0.2339 0.5998 0.7717
H2_14 H 0.2966 0.5604 0.7732
C2_14 C 0.15512(11) 0.50621(14) 0.76962(6)
H3_14 H 0.1317 0.4732 0.7817
H4_14 H 0.1343 0.5461 0.7743
C3_14 C 0.25062(13) 0.44865(12) 0.77419(7)
H5_14 H 0.2932 0.4486 0.7837
H6_14 H 0.2278 0.4137 0.7848
N1_14 N 0.21928(9) 0.50831(9) 0.78342(6)
C4_14 C 0.34368(12) 0.51951(11) 0.87017(7)
C5_14 C 0.41276(11) 0.51022(12) 0.87113(6)
C6_14 C 0.43840(12) 0.49221(13) 0.90282(7)
H7_14 H 0.4117 0.4875 0.9223
C7_14 C 0.45096(12) 0.51715(13) 0.84137(7)
C8_14 C 0.42718(13) 0.53537(17) 0.80578(7)
H8_14 H 0.4069 0.4998 0.7949
H9_14 H 0.3974 0.5693 0.8082
H10_14 H 0.4619 0.5489 0.7912
C9_14 C 0.60871(12) 0.47946(10) 0.87872(6)
C10_14 C 0.53952(12) 0.48838(12) 0.87791(6)
C11_14 C 0.51359(12) 0.50626(13) 0.84605(7)
H11_14 H 0.5403 0.5112 0.8266
C12_14 C 0.50136(12) 0.48070(12) 0.90735(7)
C13_14 C 0.52422(13) 0.46048(17) 0.94291(7)
H12_14 H 0.5436 0.4956 0.9547
H13_14 H 0.5545 0.4272 0.9402
H14_14 H 0.4892 0.4456 0.9568
C14_14 C 0.25295(13) 0.44026(12) 0.73463(7)
H15_14 H 0.2339 0.4002 0.7283
H16_14 H 0.2966 0.4396 0.7268
C15_14 C 0.15512(11) 0.49379(14) 0.73038(6)
H17_14 H 0.1317 0.5268 0.7183
H18_14 H 0.1343 0.4539 0.7257
C16_14 C 0.25062(13) 0.55135(12) 0.72581(7)
H19_14 H 0.2932 0.5514 0.7163
H20_14 H 0.2278 0.5863 0.7152
N2_14 N 0.21928(9) 0.49169(9) 0.71658(6)
O5_14 O 0.31566(8) 0.49484(9) 0.65764(5)
O7_8 O 0.31900(8) 0.45994(8) 0.60242(5)
C17_14 C 0.34368(12) 0.48049(11) 0.62983(7)
C18_14 C 0.41276(11) 0.48978(12) 0.62887(6)
C19_14 C 0.43840(12) 0.50779(13) 0.59718(7)
H21_14 H 0.4117 0.5125 0.5777
C20_14 C 0.45096(12) 0.48285(13) 0.65863(7)
C21_14 C 0.42718(13) 0.46463(17) 0.69422(7)
H22_14 H 0.4069 0.5002 0.7051
H23_14 H 0.3974 0.4307 0.6918
H24_14 H 0.4619 0.4511 0.7088
C22_14 C 0.60871(12) 0.52054(10) 0.62128(6)
C23_14 C 0.53952(12) 0.51162(12) 0.62209(6)
C24_14 C 0.51359(12) 0.49374(13) 0.65395(7)
H25_14 H 0.5403 0.4888 0.6734
C25_14 C 0.50136(12) 0.51930(12) 0.59265(7)
C26_14 C 0.52422(13) 0.53952(17) 0.55709(7)
H26_14 H 0.5436 0.5044 0.5453
H27_14 H 0.5545 0.5728 0.5598
H28_14 H 0.4892 0.5544 0.5432
O11_8 O 0.20994(8) 0.56900(8) 0.64758(5)
O1_15 O 0.25516(9) 0.56566(8) 0.40764(5)
O3_8 O 0.29006(8) 0.56900(8) 0.35242(5)
C1_15 C 0.30974(12) 0.50295(13) 0.48463(7)
H1_15 H 0.3498 0.4839 0.4783
H2_15 H 0.3104 0.5466 0.4768
C2_15 C 0.25621(14) 0.40512(11) 0.48038(6)
H3_15 H 0.2232 0.3817 0.4683
H4_15 H 0.2961 0.3843 0.4757
C3_15 C 0.19865(12) 0.50062(13) 0.47581(7)
H5_15 H 0.1986 0.5432 0.4663
H6_15 H 0.1637 0.4778 0.4652
N1_15 N 0.25831(9) 0.46928(9) 0.46658(6)
C4_15 C 0.26951(11) 0.59368(12) 0.37983(7)
C5_15 C 0.26022(12) 0.66276(11) 0.37887(6)
C6_15 C 0.24221(13) 0.68840(12) 0.34718(7)
H7_15 H 0.2375 0.6617 0.3277
C7_15 C 0.26715(13) 0.70096(12) 0.40863(7)
C8_15 C 0.28537(17) 0.67718(13) 0.44422(7)
H8_15 H 0.2498 0.6569 0.4551
H9_15 H 0.3193 0.6474 0.4418
H10_15 H 0.2989 0.7119 0.4588
C9_15 C 0.22946(10) 0.85871(12) 0.37128(6)
C10_15 C 0.23838(12) 0.78952(12) 0.37209(6)
C11_15 C 0.25626(13) 0.76359(12) 0.40395(7)
H11_15 H 0.2612 0.7903 0.4234
C12_15 C 0.23070(12) 0.75136(12) 0.34265(7)
C13_15 C 0.21048(17) 0.77422(13) 0.30709(7)
H12_15 H 0.2456 0.7936 0.2953
H13_15 H 0.1772 0.8045 0.3098
H14_15 H 0.1956 0.7392 0.2932
C14_15 C 0.19026(12) 0.50295(13) 0.51537(7)
H15_15 H 0.1502 0.4839 0.5217
H16_15 H 0.1896 0.5466 0.5232
C15_15 C 0.24379(14) 0.40512(11) 0.51962(6)
H17_15 H 0.2768 0.3817 0.5317
H18_15 H 0.2039 0.3843 0.5243
C16_15 C 0.30135(12) 0.50062(13) 0.52419(7)
H19_15 H 0.3014 0.5432 0.5337
H20_15 H 0.3363 0.4778 0.5348
N2_15 N 0.24169(9) 0.46928(9) 0.53342(6)
O5_15 O 0.24484(9) 0.56566(8) 0.59236(5)
C17_15 C 0.23049(11) 0.59368(12) 0.62017(7)
C18_15 C 0.23978(12) 0.66276(11) 0.62113(6)
C19_15 C 0.25779(13) 0.68840(12) 0.65282(7)
H21_15 H 0.2625 0.6617 0.6723
C20_15 C 0.23285(13) 0.70096(12) 0.59137(7)
C21_15 C 0.21463(17) 0.67718(13) 0.55578(7)
H22_15 H 0.2502 0.6569 0.5449
H23_15 H 0.1807 0.6474 0.5582
H24_15 H 0.2011 0.7119 0.5412
C22_15 C 0.27054(10) 0.85871(12) 0.62872(6)
C23_15 C 0.26162(12) 0.78952(12) 0.62791(6)
C24_15 C 0.24374(13) 0.76359(12) 0.59605(7)
H25_15 H 0.2388 0.7903 0.5766
C25_15 C 0.26930(12) 0.75136(12) 0.65735(7)
C26_15 C 0.28952(17) 0.77422(13) 0.69291(7)
H26_15 H 0.2544 0.7936 0.7047
H27_15 H 0.3228 0.8045 0.6902
H28_15 H 0.3044 0.7392 0.7068
O12_8 O 0.18100(8) 0.45994(8) 0.39758(5)
O1_16 O 0.18434(8) 0.50516(9) 0.15764(5)
C1_16 C 0.24705(13) 0.55974(12) 0.23463(7)
H1_16 H 0.2661 0.5998 0.2283
H2_16 H 0.2034 0.5604 0.2268
C2_16 C 0.34488(11) 0.50621(14) 0.23038(6)
H3_16 H 0.3683 0.4732 0.2183
H4_16 H 0.3657 0.5461 0.2257
C3_16 C 0.24938(13) 0.44865(12) 0.22581(7)
H5_16 H 0.2068 0.4486 0.2163
H6_16 H 0.2722 0.4137 0.2152
N1_16 N 0.28072(9) 0.50831(9) 0.21658(6)
C4_16 C 0.15632(12) 0.51951(11) 0.12983(7)
C5_16 C 0.08724(11) 0.51022(12) 0.12887(6)
C6_16 C 0.06160(12) 0.49221(13) 0.09718(7)
H7_16 H 0.0883 0.4875 0.0777
C7_16 C 0.04904(12) 0.51715(13) 0.15863(7)
C8_16 C 0.07282(13) 0.53537(17) 0.19422(7)
H8_16 H 0.0931 0.4998 0.2051
H9_16 H 0.1026 0.5693 0.1918
H10_16 H 0.0381 0.5489 0.2088
H14_16 H 0.0108 0.4456 0.0432
C14_16 C 0.24705(13) 0.44026(12) 0.26537(7)
H15_16 H 0.2661 0.4002 0.2717
H16_16 H 0.2034 0.4396 0.2732
C15_16 C 0.34488(11) 0.49379(14) 0.26962(6)
H17_16 H 0.3683 0.5268 0.2817
H18_16 H 0.3657 0.4539 0.2743
C16_16 C 0.24938(13) 0.55135(12) 0.27419(7)
H19_16 H 0.2068 0.5514 0.2837
H20_16 H 0.2722 0.5863 0.2848
N2_16 N 0.28072(9) 0.49169(9) 0.28342(6)
O5_16 O 0.18434(8) 0.49484(9) 0.34236(5)
C17_16 C 0.15632(12) 0.48049(11) 0.37017(7)
C18_16 C 0.08724(11) 0.48978(12) 0.37113(6)
C19_16 C 0.06160(12) 0.50779(13) 0.40282(7)
H21_16 H 0.0883 0.5125 0.4223
C20_16 C 0.04904(12) 0.48285(13) 0.34137(7)
C21_16 C 0.07282(13) 0.46463(17) 0.30578(7)
H22_16 H 0.0931 0.5002 0.2949
H23_16 H 0.1026 0.4307 0.3082
H24_16 H 0.0381 0.4511 0.2912
H28_16 H 0.0108 0.5544 0.4568
C9_16 C 0.89129(12) 0.47946(10) 0.12128(6)
C10_16 C 0.96048(12) 0.48838(12) 0.12209(6)
C11_16 C 0.98641(12) 0.50626(13) 0.15395(7)
H11_16 H 0.9597 0.5112 0.1734
C12_16 C 0.99864(12) 0.48070(12) 0.09265(7)
C13_16 C 0.97578(13) 0.46048(17) 0.05709(7)
H12_16 H 0.9564 0.4956 0.0453
H13_16 H 0.9455 0.4272 0.0598
C22_16 C 0.89129(12) 0.52054(10) 0.37872(6)
C23_16 C 0.96048(12) 0.51162(12) 0.37791(6)
C24_16 C 0.98641(12) 0.49374(13) 0.34605(7)
H25_16 H 0.9597 0.4888 0.3266
C25_16 C 0.99864(12) 0.51930(12) 0.40735(7)
C26_16 C 0.97578(13) 0.53952(17) 0.44291(7)
H26_16 H 0.9564 0.5044 0.4547
H27_16 H 0.9455 0.5728 0.4402
loop_
_geom_bond_atom_site_label_1
_geom_bond_atom_site_label_2
_geom_bond_site_symmetry_1
_geom_bond_site_symmetry_2
C2 H3 1_555 1_555
H4 C2 1_555 1_555
N1 Zn1 1_555 1_555
O9 Zn1 1_555 1_555
O12 Zn1 1_555 1_555
O14 Zn1 1_555 1_555
C2 N1 1_555 1_555
H17 C15 1_555 1_555
H18 C15 1_555 1_555
Zn2 N2 1_555 1_555
O10 Zn2 1_555 1_555
O11 Zn2 1_555 1_555
O13 Zn2 1_555 1_555
C15 N2 1_555 1_555
O1 C4 1_555 1_555
O2 C9 1_555 1_555
O3 C4 1_555 1_555
O4 C9 1_555 1_555
H2 C1 1_555 1_555
C3 H5 1_555 1_555
C4 C5 1_555 1_555
C5 C6 1_555 1_555
C6 H7 1_555 1_555
C7 C5 1_555 1_555
C8 C7 1_555 1_555
H8 C8 1_555 1_555
H9 C8 1_555 1_555
H10 C8 1_555 1_555
C9 C10 1_555 1_555
C10 C11 1_555 1_555
C11 C7 1_555 1_555
H11 C11 1_555 1_555
C12 C6 1_555 1_555
C13 C12 1_555 1_555
H12 C13 1_555 1_555
H13 C13 1_555 1_555
H14 C13 1_555 1_555
Zn7 O2 1_555 1_555
Zn8 O4 1_555 1_555
C10 C12 1_555 1_555
H16 C14 1_555 1_555
H19 C16 1_555 1_555
O6 C22 1_555 1_555
O7 C17 1_555 1_555
O8 C22 1_555 1_555
C17 O5 1_555 1_555
C18 C17 1_555 1_555
C19 C18 1_555 1_555
H21 C19 1_555 1_555
C20 C18 1_555 1_555
C21 C20 1_555 1_555
H22 C21 1_555 1_555
H23 C21 1_555 1_555
H24 C21 1_555 1_555
C22 C23 1_555 1_555
C23 C24 1_555 1_555
C24 C20 1_555 1_555
H25 C24 1_555 1_555
C25 C19 1_555 1_555
C26 C25 1_555 1_555
H26 C26 1_555 1_555
H27 C26 1_555 1_555
H28 C26 1_555 1_555
Zn5 O8 1_555 1_555
Zn6 O6 1_555 1_555
C23 C25 1_555 1_555
O2_2 C9_2 1_555 1_555
O4_2 C9_2 1_555 1_555
C3_2 H5_2 1_555 1_555
H6_2 C3_2 1_555 1_555
C6_2 H7_2 1_555 1_555
C9_2 C10_2 1_555 1_555
C12_2 C6_2 1_555 1_555
C13_2 C12_2 1_555 1_555
H12_2 C13_2 1_555 1_555
H13_2 C13_2 1_555 1_555
H14_2 C13_2 1_555 1_555
C14_2 C3_2 1_555 1_555
H15_2 C14_2 1_555 1_555
H16_2 C14_2 1_555 1_555
H18_2 C15_2 1_555 1_555
N2_2 C14_2 1_555 1_555
Zn4 N2_2 1_555 1_555
O5_2 Zn4 1_555 1_555
O12 C17_2 1_555 1_555
C17_2 O5_2 1_555 1_555
C18_2 C17_2 1_555 1_555
C20_2 C18_2 1_555 1_555
C21_2 C20_2 1_555 1_555
H23_2 C21_2 1_555 1_555
H24_2 C21_2 1_555 1_555
C24_2 C20_2 1_555 1_555
H25_2 C24_2 1_555 1_555
Zn7_2 O2_2 1_555 1_555
Zn8_2 O4_2 1_555 1_555
O10_2 Zn4 1_555 1_555
O13_2 Zn4 1_555 1_555
C10_2 C12_2 1_555 1_555
C15_2 N2_2 1_555 1_555
Zn1_2 O1_2 1_555 1_555
O1_2 C4_2 1_555 1_555
O3_2 C4_2 1_555 1_555
C1_2 H1_2 1_555 1_555
H2_2 C1_2 1_555 1_555
H4_2 C2_2 1_555 1_555
N1_2 Zn1_2 1_555 1_555
C4_2 C5_2 1_555 1_555
C7_2 C5_2 1_555 1_555
C8_2 C7_2 1_555 1_555
H9_2 C8_2 1_555 1_555
H10_2 C8_2 1_555 1_555
C11_2 C7_2 1_555 1_555
H11_2 C11_2 1_555 1_555
C16_2 C1_2 1_555 1_555
H19_2 C16_2 1_555 1_555
H20_2 C16_2 1_555 1_555
O6_2 C22_2 1_555 1_555
O8_2 C22_2 1_555 1_555
H21_2 C19_2 1_555 1_555
C22_2 C23_2 1_555 1_555
C25_2 C19_2 1_555 1_555
C26_2 C25_2 1_555 1_555
H26_2 C26_2 1_555 1_555
H27_2 C26_2 1_555 1_555
H28_2 C26_2 1_555 1_555
Zn4_2 O3_2 1_555 1_555
Zn5_2 O8_2 1_555 1_555
Zn6_2 O6_2 1_555 1_555
O9_2 Zn1_2 1_555 1_555
O14_2 Zn1_2 1_555 1_555
C1_2 N1_2 1_555 1_555
C2_2 N1_2 1_555 1_555
C23_2 C25_2 1_555 1_555
Zn1_3 O1_3 1_555 1_555
O1_3 C4_3 1_555 1_555
O2_3 C9_3 1_555 1_555
O3_3 C4_3 1_555 1_555
O4_3 C9_3 1_555 1_555
C1_3 H1_3 1_555 1_555
H2_3 C1_3 1_555 1_555
C2_3 H3_3 1_555 1_555
H4_3 C2_3 1_555 1_555
C3_3 H5_3 1_555 1_555
H6_3 C3_3 1_555 1_555
N1_3 Zn1_3 1_555 1_555
C4_3 C5_3 1_555 1_555
C5_3 C6_3 1_555 1_555
C6_3 H7_3 1_555 1_555
C7_3 C5_3 1_555 1_555
C8_3 C7_3 1_555 1_555
H8_3 C8_3 1_555 1_555
H9_3 C8_3 1_555 1_555
H10_3 C8_3 1_555 1_555
C9_3 C10_3 1_555 1_555
C10_3 C11_3 1_555 1_555
C11_3 C7_3 1_555 1_555
H11_3 C11_3 1_555 1_555
C12_3 C6_3 1_555 1_555
C13_3 C12_3 1_555 1_555
H12_3 C13_3 1_555 1_555
H13_3 C13_3 1_555 1_555
H14_3 C13_3 1_555 1_555
Zn4_3 O3_3 1_555 1_555
Zn5_2 O2_3 1_555 1_555
Zn6_2 O4_3 1_555 1_555
O9_3 Zn1_3 1_555 1_555
O12_3 Zn1_3 1_555 1_555
O14_3 Zn1_3 1_555 1_555
C1_3 N1_3 1_555 1_555
C2_3 N1_3 1_555 1_555
C3_3 N1_3 1_555 1_555
C10_3 C12_3 1_555 1_555
H15_3 C14_3 1_555 1_555
H16_3 C14_3 1_555 1_555
H17_3 C15_3 1_555 1_555
H18_3 C15_3 1_555 1_555
H19_3 C16_3 1_555 1_555
H20_3 C16_3 1_555 1_555
N2_3 C14_3 1_555 1_555
Zn2_2 N2_3 1_555 1_555
O5_3 Zn2_2 1_555 1_555
O6_3 C22_3 1_555 1_555
O7_2 C17_3 1_555 1_555
O8_3 C22_3 1_555 1_555
C17_3 O5_3 1_555 1_555
C18_3 C17_3 1_555 1_555
C19_3 C18_3 1_555 1_555
H21_3 C19_3 1_555 1_555
C20_3 C18_3 1_555 1_555
C21_3 C20_3 1_555 1_555
H22_3 C21_3 1_555 1_555
H23_3 C21_3 1_555 1_555
H24_3 C21_3 1_555 1_555
C22_3 C23_3 1_555 1_555
C23_3 C24_3 1_555 1_555
C24_3 C20_3 1_555 1_555
H25_3 C24_3 1_555 1_555
C25_3 C19_3 1_555 1_555
C26_3 C25_3 1_555 1_555
H26_3 C26_3 1_555 1_555
H27_3 C26_3 1_555 1_555
H28_3 C26_3 1_555 1_555
Zn3_2 O7_2 1_555 1_555
Zn5_3 O8_3 1_555 1_555
Zn6_3 O6_3 1_555 1_555
O10_3 Zn2_2 1_555 1_555
O11_2 Zn2_2 1_555 1_555
O13_3 Zn2_2 1_555 1_555
C15_3 N2_3 1_555 1_555
C16_3 N2_3 1_555 1_555
C23_3 C25_3 1_555 1_555
Zn3 O1_4 1_555 1_555
O1_4 C4_4 1_555 1_555
O11 C4_4 1_555 1_555
C1_4 H1_4 1_555 1_555
H2_4 C1_4 1_555 1_555
H4_4 C2_4 1_555 1_555
N1_4 Zn3 1_555 1_555
C4_4 C5_4 1_555 1_555
C7_4 C5_4 1_555 1_555
C8_4 C7_4 1_555 1_555
H9_4 C8_4 1_555 1_555
H10_4 C8_4 1_555 1_555
C16_4 C1_4 1_555 1_555
H19_4 C16_4 1_555 1_555
H20_4 C16_4 1_555 1_555
H21_4 C19_4 1_555 1_555
O9_4 Zn3 1_555 1_555
O14_4 Zn3 1_555 1_555
C1_4 N1_4 1_555 1_555
C2_4 N1_4 1_555 1_555
C3_4 H5_4 1_555 1_555
H6_4 C3_4 1_555 1_555
C6_4 H7_4 1_555 1_555
C14_4 C3_4 1_555 1_555
H15_4 C14_4 1_555 1_555
H16_4 C14_4 1_555 1_555
H18_4 C15_4 1_555 1_555
N2_4 C14_4 1_555 1_555
Zn2_3 N2_4 1_555 1_555
O5_4 Zn2_3 1_555 1_555
O7_3 C17_4 1_555 1_555
C17_4 O5_4 1_555 1_555
C18_4 C17_4 1_555 1_555
C20_4 C18_4 1_555 1_555
C21_4 C20_4 1_555 1_555
H23_4 C21_4 1_555 1_555
H24_4 C21_4 1_555 1_555
Zn3_3 O7_3 1_555 1_555
O10_4 Zn2_3 1_555 1_555
O13_4 Zn2_3 1_555 1_555
C15_4 N2_4 1_555 1_555
H11_4 C11_4 1_555 1_555
O6_4 C22_4 1_555 1_555
O8_4 C22_4 1_555 1_555
C22_4 C23_4 1_555 1_555
C26_4 C25_4 1_555 1_555
H26_4 C26_4 1_555 1_555
H27_4 C26_4 1_555 1_555
Zn5_4 O8_4 1_555 1_555
Zn6_4 O6_4 1_555 1_555
C23_4 C25_4 1_555 1_555
O2_4 C9_4 1_555 1_555
O4_4 C9_4 1_555 1_555
C9_4 C10_4 1_555 1_555
C13_4 C12_4 1_555 1_555
H12_4 C13_4 1_555 1_555
H13_4 C13_4 1_555 1_555
H25_4 C24_4 1_555 1_555
Zn5_3 O2_4 1_555 1_555
Zn6_3 O4_4 1_555 1_555
C10_4 C12_4 1_555 1_555
O1_5 C4_5 1_555 1_555
O2_5 C9_5 1_555 1_555
O12_2 C4_5 1_555 1_555
O4_5 C9_5 1_555 1_555
H2_5 C1_5 1_555 1_555
C3_5 H5_5 1_555 1_555
C4_5 C5_5 1_555 1_555
C5_5 C6_5 1_555 1_555
C6_5 H7_5 1_555 1_555
C7_5 C5_5 1_555 1_555
C8_5 C7_5 1_555 1_555
H8_5 C8_5 1_555 1_555
H9_5 C8_5 1_555 1_555
H10_5 C8_5 1_555 1_555
C9_5 C10_5 1_555 1_555
C10_5 C11_5 1_555 1_555
C11_5 C7_5 1_555 1_555
H11_5 C11_5 1_555 1_555
C12_5 C6_5 1_555 1_555
C13_5 C12_5 1_555 1_555
H12_5 C13_5 1_555 1_555
H13_5 C13_5 1_555 1_555
H14_5 C13_5 1_555 1_555
C14_5 C3_5 1_555 1_555
H16_5 C14_5 1_555 1_555
C16_5 C1_5 1_555 1_555
H19_5 C16_5 1_555 1_555
O6_5 C22_5 1_555 1_555
O11_3 C17_5 1_555 1_555
O8_5 C22_5 1_555 1_555
C17_5 O5_5 1_555 1_555
C18_5 C17_5 1_555 1_555
C19_5 C18_5 1_555 1_555
H21_5 C19_5 1_555 1_555
C20_5 C18_5 1_555 1_555
C21_5 C20_5 1_555 1_555
H22_5 C21_5 1_555 1_555
H23_5 C21_5 1_555 1_555
H24_5 C21_5 1_555 1_555
C22_5 C23_5 1_555 1_555
C23_5 C24_5 1_555 1_555
C24_5 C20_5 1_555 1_555
H25_5 C24_5 1_555 1_555
C25_5 C19_5 1_555 1_555
C26_5 C25_5 1_555 1_555
H26_5 C26_5 1_555 1_555
H27_5 C26_5 1_555 1_555
H28_5 C26_5 1_555 1_555
Zn5_5 O8_5 1_555 1_555
Zn6_5 O6_5 1_555 1_555
Zn7_3 O2_5 1_555 1_555
Zn8_3 O4_5 1_555 1_555
C10_5 C12_5 1_555 1_555
C23_5 C25_5 1_555 1_555
C2_5 H3_5 1_555 1_555
H4_5 C2_5 1_555 1_555
N1_5 Zn4_2 1_555 1_555
C15_5 C2_5 1_555 1_555
H17_5 C15_5 1_555 1_555
H18_5 C15_5 1_555 1_555
Zn3_3 N2_5 1_555 1_555
O9_5 Zn4_2 1_555 1_555
O10_5 Zn3_3 1_555 1_555
O13_5 Zn3_3 1_555 1_555
O14_5 Zn4_2 1_555 1_555
C2_5 N1_5 1_555 1_555
C15_5 N2_5 1_555 1_555
Zn4_3 O1_6 1_555 1_555
O1_6 C4_6 1_555 1_555
O2_6 C9_6 1_555 1_555
O12_3 C4_6 1_555 1_555
O4_6 C9_6 1_555 1_555
C1_6 H1_6 1_555 1_555
H2_6 C1_6 1_555 1_555
C2_6 H3_6 1_555 1_555
H4_6 C2_6 1_555 1_555
C3_6 H5_6 1_555 1_555
H6_6 C3_6 1_555 1_555
N1_6 Zn4_3 1_555 1_555
C4_6 C5_6 1_555 1_555
C5_6 C6_6 1_555 1_555
C6_6 H7_6 1_555 1_555
C7_6 C5_6 1_555 1_555
C8_6 C7_6 1_555 1_555
H8_6 C8_6 1_555 1_555
H9_6 C8_6 1_555 1_555
H10_6 C8_6 1_555 1_555
C9_6 C10_6 1_555 1_555
C10_6 C11_6 1_555 1_555
C11_6 C7_6 1_555 1_555
H11_6 C11_6 1_555 1_555
C12_6 C6_6 1_555 1_555
C13_6 C12_6 1_555 1_555
H12_6 C13_6 1_555 1_555
H13_6 C13_6 1_555 1_555
H14_6 C13_6 1_555 1_555
C14_6 C3_6 1_555 1_555
H15_6 C14_6 1_555 1_555
H16_6 C14_6 1_555 1_555
C15_6 C2_6 1_555 1_555
H17_6 C15_6 1_555 1_555
H18_6 C15_6 1_555 1_555
C16_6 C1_6 1_555 1_555
H19_6 C16_6 1_555 1_555
H20_6 C16_6 1_555 1_555
N2_6 C14_6 1_555 1_555
Zn2_4 N2_6 1_555 1_555
O5_6 Zn2_4 1_555 1_555
O6_6 C22_6 1_555 1_555
O7_4 C17_6 1_555 1_555
O8_6 C22_6 1_555 1_555
C17_6 O5_6 1_555 1_555
C18_6 C17_6 1_555 1_555
C19_6 C18_6 1_555 1_555
H21_6 C19_6 1_555 1_555
C20_6 C18_6 1_555 1_555
C21_6 C20_6 1_555 1_555
H22_6 C21_6 1_555 1_555
H23_6 C21_6 1_555 1_555
H24_6 C21_6 1_555 1_555
C22_6 C23_6 1_555 1_555
C23_6 C24_6 1_555 1_555
C24_6 C20_6 1_555 1_555
H25_6 C24_6 1_555 1_555
C25_6 C19_6 1_555 1_555
C26_6 C25_6 1_555 1_555
H26_6 C26_6 1_555 1_555
H27_6 C26_6 1_555 1_555
H28_6 C26_6 1_555 1_555
Zn3_4 O7_4 1_555 1_555
Zn7_3 O8_6 1_555 1_555
Zn8_3 O6_6 1_555 1_555
Zn8 O2_6 1_555 1_555
Zn7 O4_6 1_555 1_555
O9_6 Zn4_3 1_555 1_555
O10_6 Zn2_4 1_555 1_555
O11_4 Zn2_4 1_555 1_555
O13_6 Zn2_4 1_555 1_555
O14_6 Zn4_3 1_555 1_555
C1_6 N1_6 1_555 1_555
C2_6 N1_6 1_555 1_555
C3_6 N1_6 1_555 1_555
C10_6 C12_6 1_555 1_555
C15_6 N2_6 1_555 1_555
C16_6 N2_6 1_555 1_555
C23_6 C25_6 1_555 1_555
Zn1_4 O1_7 1_555 1_555
O1_7 C4_7 1_555 1_555
O2_7 C9_7 1_555 1_555
O3_4 C4_7 1_555 1_555
O4_7 C9_7 1_555 1_555
C1_7 H1_7 1_555 1_555
H2_7 C1_7 1_555 1_555
C2_7 H3_7 1_555 1_555
H4_7 C2_7 1_555 1_555
C3_7 H5_7 1_555 1_555
H6_7 C3_7 1_555 1_555
N1_7 Zn1_4 1_555 1_555
C4_7 C5_7 1_555 1_555
C5_7 C6_7 1_555 1_555
C6_7 H7_7 1_555 1_555
C7_7 C5_7 1_555 1_555
C8_7 C7_7 1_555 1_555
H8_7 C8_7 1_555 1_555
H9_7 C8_7 1_555 1_555
H10_7 C8_7 1_555 1_555
C9_7 C10_7 1_555 1_555
C10_7 C11_7 1_555 1_555
C11_7 C7_7 1_555 1_555
H11_7 C11_7 1_555 1_555
C12_7 C6_7 1_555 1_555
C13_7 C12_7 1_555 1_555
H12_7 C13_7 1_555 1_555
H13_7 C13_7 1_555 1_555
H14_7 C13_7 1_555 1_555
C14_7 C3_7 1_555 1_555
H15_7 C14_7 1_555 1_555
H16_7 C14_7 1_555 1_555
C15_7 C2_7 1_555 1_555
H17_7 C15_7 1_555 1_555
H18_7 C15_7 1_555 1_555
C16_7 C1_7 1_555 1_555
H19_7 C16_7 1_555 1_555
H20_7 C16_7 1_555 1_555
N2_7 C14_7 1_555 1_555
Zn3_4 N2_7 1_555 1_555
O5_7 Zn3_4 1_555 1_555
O6_7 C22_7 1_555 1_555
O11_4 C17_7 1_555 1_555
O8_7 C22_7 1_555 1_555
C17_7 O5_7 1_555 1_555
C18_7 C17_7 1_555 1_555
C19_7 C18_7 1_555 1_555
H21_7 C19_7 1_555 1_555
C20_7 C18_7 1_555 1_555
C21_7 C20_7 1_555 1_555
H22_7 C21_7 1_555 1_555
H23_7 C21_7 1_555 1_555
H24_7 C21_7 1_555 1_555
C22_7 C23_7 1_555 1_555
C23_7 C24_7 1_555 1_555
C24_7 C20_7 1_555 1_555
H25_7 C24_7 1_555 1_555
C25_7 C19_7 1_555 1_555
C26_7 C25_7 1_555 1_555
H26_7 C26_7 1_555 1_555
H27_7 C26_7 1_555 1_555
H28_7 C26_7 1_555 1_555
Zn4_4 O3_4 1_555 1_555
Zn7_2 O8_7 1_555 1_555
Zn8_2 O6_7 1_555 1_555
Zn5_4 O2_7 1_555 1_555
Zn6_4 O4_7 1_555 1_555
O9_7 Zn1_4 1_555 1_555
O10_7 Zn3_4 1_555 1_555
O12_4 Zn1_4 1_555 1_555
O13_7 Zn3_4 1_555 1_555
O14_7 Zn1_4 1_555 1_555
C1_7 N1_7 1_555 1_555
C2_7 N1_7 1_555 1_555
C3_7 N1_7 1_555 1_555
C10_7 C12_7 1_555 1_555
C15_7 N2_7 1_555 1_555
C16_7 N2_7 1_555 1_555
C23_7 C25_7 1_555 1_555
O2_8 C9_8 1_555 1_555
O4_8 C9_8 1_555 1_555
C9_8 C10_8 1_555 1_555
C10_8 C11_8 1_555 1_555
H11_8 C11_8 1_555 1_555
C13_8 C12_8 1_555 1_555
H12_8 C13_8 1_555 1_555
H13_8 C13_8 1_555 1_555
O6_8 C22_8 1_555 1_555
O8_8 C22_8 1_555 1_555
C22_8 C23_8 1_555 1_555
C23_8 C24_8 1_555 1_555
H25_8 C24_8 1_555 1_555
C26_8 C25_8 1_555 1_555
H26_8 C26_8 1_555 1_555
H27_8 C26_8 1_555 1_555
Zn6_5 O8_8 1_555 1_555
Zn5_5 O6_8 1_555 1_555
Zn5 O2_8 1_555 1_555
Zn6 O4_8 1_555 1_555
C10_8 C12_8 1_555 1_555
C23_8 C25_8 1_555 1_555
Zn3_2 O1_8 1_555 1_555
O1_8 C4_8 1_555 1_555
O11_2 C4_8 1_555 1_555
C1_8 H1_8 1_555 1_555
H2_8 C1_8 1_555 1_555
C2_8 H3_8 1_555 1_555
H4_8 C2_8 1_555 1_555
C3_8 H5_8 1_555 1_555
H6_8 C3_8 1_555 1_555
N1_8 Zn3_2 1_555 1_555
C4_8 C5_8 1_555 1_555
C5_8 C6_8 1_555 1_555
C6_8 H7_8 1_555 1_555
C7_8 C5_8 1_555 1_555
C8_8 C7_8 1_555 1_555
H8_8 C8_8 1_555 1_555
H9_8 C8_8 1_555 1_555
H10_8 C8_8 1_555 1_555
C14_8 C3_8 1_555 1_555
H15_8 C14_8 1_555 1_555
H16_8 C14_8 1_555 1_555
C15_8 C2_8 1_555 1_555
H17_8 C15_8 1_555 1_555
H18_8 C15_8 1_555 1_555
C16_8 C1_8 1_555 1_555
H19_8 C16_8 1_555 1_555
H20_8 C16_8 1_555 1_555
N2_8 C14_8 1_555 1_555
Zn4_4 N2_8 1_555 1_555
O5_8 Zn4_4 1_555 1_555
O12_4 C17_8 1_555 1_555
C17_8 O5_8 1_555 1_555
C18_8 C17_8 1_555 1_555
C19_8 C18_8 1_555 1_555
H21_8 C19_8 1_555 1_555
C20_8 C18_8 1_555 1_555
C21_8 C20_8 1_555 1_555
H22_8 C21_8 1_555 1_555
H23_8 C21_8 1_555 1_555
H24_8 C21_8 1_555 1_555
O9_8 Zn3_2 1_555 1_555
O10_8 Zn4_4 1_555 1_555
O13_8 Zn4_4 1_555 1_555
O14_8 Zn3_2 1_555 1_555
C1_8 N1_8 1_555 1_555
C2_8 N1_8 1_555 1_555
C3_8 N1_8 1_555 1_555
C15_8 N2_8 1_555 1_555
C16_8 N2_8 1_555 1_555
H16_9 C14_9 1_555 1_555
H19_9 C16_9 1_555 1_555
O9_6 C22_9 1_555 1_555
O7_5 C17_9 1_555 1_555
O14_3 C22_9 1_555 1_555
C17_9 O5_9 1_555 1_555
C18_9 C17_9 1_555 1_555
C19_9 C18_9 1_555 1_555
H21_9 C19_9 1_555 1_555
C20_9 C18_9 1_555 1_555
C21_9 C20_9 1_555 1_555
H22_9 C21_9 1_555 1_555
H23_9 C21_9 1_555 1_555
H24_9 C21_9 1_555 1_555
C22_9 C23_9 1_555 1_555
C23_9 C24_9 1_555 1_555
C24_9 C20_9 1_555 1_555
H25_9 C24_9 1_555 1_555
C25_9 C19_9 1_555 1_555
C26_9 C25_9 1_555 1_555
H26_9 C26_9 1_555 1_555
H27_9 C26_9 1_555 1_555
H28_9 C26_9 1_555 1_555
C23_9 C25_9 1_555 1_555
O1_9 C4_9 1_555 1_555
O9_8 C9_9 1_555 1_555
O3_5 C4_9 1_555 1_555
O13_3 C9_9 1_555 1_555
H2_9 C1_9 1_555 1_555
C3_9 H5_9 1_555 1_555
C4_9 C5_9 1_555 1_555
C5_9 C6_9 1_555 1_555
C6_9 H7_9 1_555 1_555
C7_9 C5_9 1_555 1_555
C8_9 C7_9 1_555 1_555
H8_9 C8_9 1_555 1_555
H9_9 C8_9 1_555 1_555
H10_9 C8_9 1_555 1_555
C9_9 C10_9 1_555 1_555
C10_9 C11_9 1_555 1_555
C11_9 C7_9 1_555 1_555
H11_9 C11_9 1_555 1_555
C12_9 C6_9 1_555 1_555
C13_9 C12_9 1_555 1_555
H12_9 C13_9 1_555 1_555
H13_9 C13_9 1_555 1_555
H14_9 C13_9 1_555 1_555
C10_9 C12_9 1_555 1_555
H17_9 C15_9 1_555 1_555
H18_9 C15_9 1_555 1_555
Zn6_2 N2_9 1_555 1_555
O11_5 Zn6_2 1_555 1_555
C15_9 N2_9 1_555 1_555
C2_9 H3_9 1_555 1_555
H4_9 C2_9 1_555 1_555
N1_9 Zn5_3 1_555 1_555
O12_5 Zn5_3 1_555 1_555
C2_9 N1_9 1_555 1_555
Zn5_4 O1_10 1_555 1_555
O1_10 C4_10 1_555 1_555
O3_6 C4_10 1_555 1_555
C1_10 H1_10 1_555 1_555
H2_10 C1_10 1_555 1_555
H4_10 C2_10 1_555 1_555
N1_10 Zn5_4 1_555 1_555
C4_10 C5_10 1_555 1_555
C7_10 C5_10 1_555 1_555
C8_10 C7_10 1_555 1_555
H9_10 C8_10 1_555 1_555
H10_10 C8_10 1_555 1_555
C11_10 C7_10 1_555 1_555
H11_10 C11_10 1_555 1_555
C16_10 C1_10 1_555 1_555
H19_10 C16_10 1_555 1_555
H20_10 C16_10 1_555 1_555
O10 C22_10 1_555 1_555
O14_4 C22_10 1_555 1_555
H21_10 C19_10 1_555 1_555
C22_10 C23_10 1_555 1_555
C25_10 C19_10 1_555 1_555
C26_10 C25_10 1_555 1_555
H26_10 C26_10 1_555 1_555
H27_10 C26_10 1_555 1_555
H28_10 C26_10 1_555 1_555
Zn6_4 O3_6 1_555 1_555
C1_10 N1_10 1_555 1_555
C2_10 N1_10 1_555 1_555
C23_10 C25_10 1_555 1_555
O10_5 C9_10 1_555 1_555
O13_4 C9_10 1_555 1_555
C3_10 H5_10 1_555 1_555
H6_10 C3_10 1_555 1_555
C6_10 H7_10 1_555 1_555
C9_10 C10_10 1_555 1_555
C12_10 C6_10 1_555 1_555
C13_10 C12_10 1_555 1_555
H12_10 C13_10 1_555 1_555
H13_10 C13_10 1_555 1_555
H14_10 C13_10 1_555 1_555
C14_10 C3_10 1_555 1_555
H15_10 C14_10 1_555 1_555
H16_10 C14_10 1_555 1_555
H18_10 C15_10 1_555 1_555
N2_10 C14_10 1_555 1_555
Zn6_3 N2_10 1_555 1_555
O5_10 Zn6_3 1_555 1_555
O12_5 C17_10 1_555 1_555
C17_10 O5_10 1_555 1_555
C18_10 C17_10 1_555 1_555
C20_10 C18_10 1_555 1_555
C21_10 C20_10 1_555 1_555
H23_10 C21_10 1_555 1_555
H24_10 C21_10 1_555 1_555
C24_10 C20_10 1_555 1_555
H25_10 C24_10 1_555 1_555
C10_10 C12_10 1_555 1_555
C15_10 N2_10 1_555 1_555
H15_11 C14_11 1_555 1_555
H16_11 C14_11 1_555 1_555
H17_11 C15_11 1_555 1_555
H18_11 C15_11 1_555 1_555
H19_11 C16_11 1_555 1_555
H20_11 C16_11 1_555 1_555
N2_11 C14_11 1_555 1_555
Zn8 N2_11 1_555 1_555
O5_11 Zn8 1_555 1_555
O10_2 C22_11 1_555 1_555
O7_6 C17_11 1_555 1_555
O14 C22_11 1_555 1_555
C17_11 O5_11 1_555 1_555
C18_11 C17_11 1_555 1_555
C19_11 C18_11 1_555 1_555
H21_11 C19_11 1_555 1_555
C20_11 C18_11 1_555 1_555
C21_11 C20_11 1_555 1_555
H22_11 C21_11 1_555 1_555
H23_11 C21_11 1_555 1_555
H24_11 C21_11 1_555 1_555
C22_11 C23_11 1_555 1_555
C23_11 C24_11 1_555 1_555
C24_11 C20_11 1_555 1_555
H25_11 C24_11 1_555 1_555
C25_11 C19_11 1_555 1_555
C26_11 C25_11 1_555 1_555
H26_11 C26_11 1_555 1_555
H27_11 C26_11 1_555 1_555
H28_11 C26_11 1_555 1_555
Zn7 O7_6 1_555 1_555
O11_6 Zn8 1_555 1_555
C15_11 N2_11 1_555 1_555
C16_11 N2_11 1_555 1_555
C23_11 C25_11 1_555 1_555
Zn5 O1_11 1_555 1_555
O1_11 C4_11 1_555 1_555
O9_4 C9_11 1_555 1_555
O3_7 C4_11 1_555 1_555
O13 C9_11 1_555 1_555
C1_11 H1_11 1_555 1_555
H2_11 C1_11 1_555 1_555
C2_11 H3_11 1_555 1_555
H4_11 C2_11 1_555 1_555
C3_11 H5_11 1_555 1_555
H6_11 C3_11 1_555 1_555
N1_11 Zn5 1_555 1_555
C4_11 C5_11 1_555 1_555
C5_11 C6_11 1_555 1_555
C6_11 H7_11 1_555 1_555
C7_11 C5_11 1_555 1_555
C8_11 C7_11 1_555 1_555
H8_11 C8_11 1_555 1_555
H9_11 C8_11 1_555 1_555
H10_11 C8_11 1_555 1_555
C9_11 C10_11 1_555 1_555
C10_11 C11_11 1_555 1_555
C11_11 C7_11 1_555 1_555
H11_11 C11_11 1_555 1_555
C12_11 C6_11 1_555 1_555
C13_11 C12_11 1_555 1_555
H12_11 C13_11 1_555 1_555
H13_11 C13_11 1_555 1_555
H14_11 C13_11 1_555 1_555
Zn6 O3_7 1_555 1_555
O12_7 Zn5 1_555 1_555
C1_11 N1_11 1_555 1_555
C2_11 N1_11 1_555 1_555
C3_11 N1_11 1_555 1_555
C10_11 C12_11 1_555 1_555
O9 C9_12 1_555 1_555
O13_2 C9_12 1_555 1_555
C9_12 C10_12 1_555 1_555
C13_12 C12_12 1_555 1_555
H12_12 C13_12 1_555 1_555
H13_12 C13_12 1_555 1_555
H25_12 C24_12 1_555 1_555
C10_12 C12_12 1_555 1_555
H11_12 C11_12 1_555 1_555
O9_5 C22_12 1_555 1_555
O14_2 C22_12 1_555 1_555
C22_12 C23_12 1_555 1_555
C26_12 C25_12 1_555 1_555
H26_12 C26_12 1_555 1_555
H27_12 C26_12 1_555 1_555
C23_12 C25_12 1_555 1_555
C3_12 H5_12 1_555 1_555
H6_12 C3_12 1_555 1_555
C6_12 H7_12 1_555 1_555
C14_12 C3_12 1_555 1_555
H15_12 C14_12 1_555 1_555
H16_12 C14_12 1_555 1_555
H18_12 C15_12 1_555 1_555
N2_12 C14_12 1_555 1_555
Zn8_2 N2_12 1_555 1_555
O5_12 Zn8_2 1_555 1_555
O7_7 C17_12 1_555 1_555
C17_12 O5_12 1_555 1_555
C18_12 C17_12 1_555 1_555
C20_12 C18_12 1_555 1_555
C21_12 C20_12 1_555 1_555
H23_12 C21_12 1_555 1_555
H24_12 C21_12 1_555 1_555
Zn7_2 O7_7 1_555 1_555
C15_12 N2_12 1_555 1_555
Zn5_2 O1_12 1_555 1_555
O1_12 C4_12 1_555 1_555
O11_5 C4_12 1_555 1_555
C1_12 H1_12 1_555 1_555
H2_12 C1_12 1_555 1_555
H4_12 C2_12 1_555 1_555
N1_12 Zn5_2 1_555 1_555
C4_12 C5_12 1_555 1_555
C7_12 C5_12 1_555 1_555
C8_12 C7_12 1_555 1_555
H9_12 C8_12 1_555 1_555
H10_12 C8_12 1_555 1_555
C16_12 C1_12 1_555 1_555
H19_12 C16_12 1_555 1_555
H20_12 C16_12 1_555 1_555
H21_12 C19_12 1_555 1_555
C1_12 N1_12 1_555 1_555
C2_12 N1_12 1_555 1_555
C2_13 H3_13 1_555 1_555
H4_13 C2_13 1_555 1_555
N1_13 Zn6_4 1_555 1_555
C15_13 C2_13 1_555 1_555
H17_13 C15_13 1_555 1_555
H18_13 C15_13 1_555 1_555
Zn7_2 N2_13 1_555 1_555
C2_13 N1_13 1_555 1_555
C15_13 N2_13 1_555 1_555
O1_13 C4_13 1_555 1_555
O10_8 C9_13 1_555 1_555
O12_6 C4_13 1_555 1_555
O14_7 C9_13 1_555 1_555
H2_13 C1_13 1_555 1_555
C3_13 H5_13 1_555 1_555
C4_13 C5_13 1_555 1_555
C5_13 C6_13 1_555 1_555
C6_13 H7_13 1_555 1_555
C7_13 C5_13 1_555 1_555
C8_13 C7_13 1_555 1_555
H8_13 C8_13 1_555 1_555
H9_13 C8_13 1_555 1_555
H10_13 C8_13 1_555 1_555
C9_13 C10_13 1_555 1_555
C10_13 C11_13 1_555 1_555
C11_13 C7_13 1_555 1_555
H11_13 C11_13 1_555 1_555
C12_13 C6_13 1_555 1_555
C13_13 C12_13 1_555 1_555
H12_13 C13_13 1_555 1_555
H13_13 C13_13 1_555 1_555
H14_13 C13_13 1_555 1_555
C14_13 C3_13 1_555 1_555
H16_13 C14_13 1_555 1_555
C16_13 C1_13 1_555 1_555
H19_13 C16_13 1_555 1_555
O10_6 C22_13 1_555 1_555
O11_7 C17_13 1_555 1_555
O13_7 C22_13 1_555 1_555
C17_13 O5_13 1_555 1_555
C18_13 C17_13 1_555 1_555
C19_13 C18_13 1_555 1_555
H21_13 C19_13 1_555 1_555
C20_13 C18_13 1_555 1_555
C21_13 C20_13 1_555 1_555
H22_13 C21_13 1_555 1_555
H23_13 C21_13 1_555 1_555
H24_13 C21_13 1_555 1_555
C22_13 C23_13 1_555 1_555
C23_13 C24_13 1_555 1_555
C24_13 C20_13 1_555 1_555
H25_13 C24_13 1_555 1_555
C25_13 C19_13 1_555 1_555
C26_13 C25_13 1_555 1_555
H26_13 C26_13 1_555 1_555
H27_13 C26_13 1_555 1_555
H28_13 C26_13 1_555 1_555
C10_13 C12_13 1_555 1_555
C23_13 C25_13 1_555 1_555
Zn6 O1_14 1_555 1_555
O1_14 C4_14 1_555 1_555
O10_3 C9_14 1_555 1_555
O12_7 C4_14 1_555 1_555
O14_8 C9_14 1_555 1_555
C1_14 H1_14 1_555 1_555
H2_14 C1_14 1_555 1_555
C2_14 H3_14 1_555 1_555
H4_14 C2_14 1_555 1_555
C3_14 H5_14 1_555 1_555
H6_14 C3_14 1_555 1_555
N1_14 Zn6 1_555 1_555
C4_14 C5_14 1_555 1_555
C5_14 C6_14 1_555 1_555
C6_14 H7_14 1_555 1_555
C7_14 C5_14 1_555 1_555
C8_14 C7_14 1_555 1_555
H8_14 C8_14 1_555 1_555
H9_14 C8_14 1_555 1_555
H10_14 C8_14 1_555 1_555
C9_14 C10_14 1_555 1_555
C10_14 C11_14 1_555 1_555
C11_14 C7_14 1_555 1_555
H11_14 C11_14 1_555 1_555
C12_14 C6_14 1_555 1_555
C13_14 C12_14 1_555 1_555
H12_14 C13_14 1_555 1_555
H13_14 C13_14 1_555 1_555
H14_14 C13_14 1_555 1_555
C14_14 C3_14 1_555 1_555
H15_14 C14_14 1_555 1_555
H16_14 C14_14 1_555 1_555
C15_14 C2_14 1_555 1_555
H17_14 C15_14 1_555 1_555
H18_14 C15_14 1_555 1_555
C16_14 C1_14 1_555 1_555
H19_14 C16_14 1_555 1_555
H20_14 C16_14 1_555 1_555
N2_14 C14_14 1_555 1_555
Zn6_5 N2_14 1_555 1_555
O5_14 Zn6_5 1_555 1_555
O9_7 C22_14 1_555 1_555
O7_8 C17_14 1_555 1_555
O13_8 C22_14 1_555 1_555
C17_14 O5_14 1_555 1_555
C18_14 C17_14 1_555 1_555
C19_14 C18_14 1_555 1_555
H21_14 C19_14 1_555 1_555
C20_14 C18_14 1_555 1_555
C21_14 C20_14 1_555 1_555
H22_14 C21_14 1_555 1_555
H23_14 C21_14 1_555 1_555
H24_14 C21_14 1_555 1_555
C22_14 C23_14 1_555 1_555
C23_14 C24_14 1_555 1_555
C24_14 C20_14 1_555 1_555
H25_14 C24_14 1_555 1_555
C25_14 C19_14 1_555 1_555
C26_14 C25_14 1_555 1_555
H26_14 C26_14 1_555 1_555
H27_14 C26_14 1_555 1_555
H28_14 C26_14 1_555 1_555
Zn5_5 O7_8 1_555 1_555
O11_8 Zn6_5 1_555 1_555
C1_14 N1_14 1_555 1_555
C2_14 N1_14 1_555 1_555
C3_14 N1_14 1_555 1_555
C10_14 C12_14 1_555 1_555
C15_14 N2_14 1_555 1_555
C16_14 N2_14 1_555 1_555
C23_14 C25_14 1_555 1_555
Zn8_3 O1_15 1_555 1_555
O1_15 C4_15 1_555 1_555
O9_2 C9_15 1_555 1_555
O3_8 C4_15 1_555 1_555
O14_5 C9_15 1_555 1_555
C1_15 H1_15 1_555 1_555
H2_15 C1_15 1_555 1_555
C2_15 H3_15 1_555 1_555
H4_15 C2_15 1_555 1_555
C3_15 H5_15 1_555 1_555
H6_15 C3_15 1_555 1_555
N1_15 Zn8_3 1_555 1_555
C4_15 C5_15 1_555 1_555
C5_15 C6_15 1_555 1_555
C6_15 H7_15 1_555 1_555
C7_15 C5_15 1_555 1_555
C8_15 C7_15 1_555 1_555
H8_15 C8_15 1_555 1_555
H9_15 C8_15 1_555 1_555
H10_15 C8_15 1_555 1_555
C9_15 C10_15 1_555 1_555
C10_15 C11_15 1_555 1_555
C11_15 C7_15 1_555 1_555
H11_15 C11_15 1_555 1_555
C12_15 C6_15 1_555 1_555
C13_15 C12_15 1_555 1_555
H12_15 C13_15 1_555 1_555
H13_15 C13_15 1_555 1_555
H14_15 C13_15 1_555 1_555
C14_15 C3_15 1_555 1_555
H15_15 C14_15 1_555 1_555
H16_15 C14_15 1_555 1_555
C15_15 C2_15 1_555 1_555
H17_15 C15_15 1_555 1_555
H18_15 C15_15 1_555 1_555
C16_15 C1_15 1_555 1_555
H19_15 C16_15 1_555 1_555
H20_15 C16_15 1_555 1_555
N2_15 C14_15 1_555 1_555
Zn5_5 N2_15 1_555 1_555
O5_15 Zn5_5 1_555 1_555
O10_4 C22_15 1_555 1_555
O11_8 C17_15 1_555 1_555
O13_5 C22_15 1_555 1_555
C17_15 O5_15 1_555 1_555
C18_15 C17_15 1_555 1_555
C19_15 C18_15 1_555 1_555
H21_15 C19_15 1_555 1_555
C20_15 C18_15 1_555 1_555
C21_15 C20_15 1_555 1_555
H22_15 C21_15 1_555 1_555
H23_15 C21_15 1_555 1_555
H24_15 C21_15 1_555 1_555
C22_15 C23_15 1_555 1_555
C23_15 C24_15 1_555 1_555
C24_15 C20_15 1_555 1_555
H25_15 C24_15 1_555 1_555
C25_15 C19_15 1_555 1_555
C26_15 C25_15 1_555 1_555
H26_15 C26_15 1_555 1_555
H27_15 C26_15 1_555 1_555
H28_15 C26_15 1_555 1_555
Zn7_3 O3_8 1_555 1_555
O12_8 Zn8_3 1_555 1_555
C1_15 N1_15 1_555 1_555
C2_15 N1_15 1_555 1_555
C3_15 N1_15 1_555 1_555
C10_15 C12_15 1_555 1_555
C15_15 N2_15 1_555 1_555
C16_15 N2_15 1_555 1_555
C23_15 C25_15 1_555 1_555
Zn7 O1_16 1_555 1_555
O1_16 C4_16 1_555 1_555
O11_6 C4_16 1_555 1_555
C1_16 H1_16 1_555 1_555
H2_16 C1_16 1_555 1_555
C2_16 H3_16 1_555 1_555
H4_16 C2_16 1_555 1_555
C3_16 H5_16 1_555 1_555
H6_16 C3_16 1_555 1_555
N1_16 Zn7 1_555 1_555
C4_16 C5_16 1_555 1_555
C5_16 C6_16 1_555 1_555
C6_16 H7_16 1_555 1_555
C7_16 C5_16 1_555 1_555
C8_16 C7_16 1_555 1_555
H8_16 C8_16 1_555 1_555
H9_16 C8_16 1_555 1_555
H10_16 C8_16 1_555 1_555
C14_16 C3_16 1_555 1_555
H15_16 C14_16 1_555 1_555
H16_16 C14_16 1_555 1_555
C15_16 C2_16 1_555 1_555
H17_16 C15_16 1_555 1_555
H18_16 C15_16 1_555 1_555
C16_16 C1_16 1_555 1_555
H19_16 C16_16 1_555 1_555
H20_16 C16_16 1_555 1_555
N2_16 C14_16 1_555 1_555
Zn7_3 N2_16 1_555 1_555
O5_16 Zn7_3 1_555 1_555
O12_8 C17_16 1_555 1_555
C17_16 O5_16 1_555 1_555
C18_16 C17_16 1_555 1_555
C19_16 C18_16 1_555 1_555
H21_16 C19_16 1_555 1_555
C20_16 C18_16 1_555 1_555
C21_16 C20_16 1_555 1_555
H22_16 C21_16 1_555 1_555
H23_16 C21_16 1_555 1_555
H24_16 C21_16 1_555 1_555
C1_16 N1_16 1_555 1_555
C2_16 N1_16 1_555 1_555
C3_16 N1_16 1_555 1_555
C15_16 N2_16 1_555 1_555
C16_16 N2_16 1_555 1_555
O9_3 C9_16 1_555 1_555
O14_6 C9_16 1_555 1_555
C9_16 C10_16 1_555 1_555
C10_16 C11_16 1_555 1_555
H11_16 C11_16 1_555 1_555
C13_16 C12_16 1_555 1_555
H12_16 C13_16 1_555 1_555
H13_16 C13_16 1_555 1_555
O10_7 C22_16 1_555 1_555
O13_6 C22_16 1_555 1_555
C22_16 C23_16 1_555 1_555
C23_16 C24_16 1_555 1_555
H25_16 C24_16 1_555 1_555
C26_16 C25_16 1_555 1_555
H26_16 C26_16 1_555 1_555
H27_16 C26_16 1_555 1_555
C10_16 C12_16 1_555 1_555
C23_16 C25_16 1_555 1_555

#END
