
###############################################################################
#
# This file contains modified crystal structure data generated from the
# MOF subset of the Cambridge Structural Database (CSD) v543 
# hosted by the Cambridge Crystallographic Data Centre (CCDC).
#
# This work is licensed under the Creative Commons
# Attribution-NonCommercial-ShareAlike 4.0 International License.
# To view a copy of this license, visit
# http://creativecommons.org/licenses/by-nc-sa/4.0/
# or send a letter to
# Creative Commons, PO Box 1866, Mountain View, CA 94042, USA.
#
# CIF created using the CSD Python API on 29 September 2022
# The structure has been converted into the P1 space group
# The structure has a 3D framework
# The original CSD entry IFAQUC is in the monoclinic crystal system
# The framework has been calculated to contain at least 10.0% void space
# The void calculation uses a probe of radius 1.32A, grid spacing 0.4
#
###############################################################################

data_IFAQUC
_chemical_formula_moiety         '(C108 H112 Co6 Mo20 N24 O92 P8)n'
_symmetry_cell_setting           triclinic
_symmetry_space_group_name_H-M   'P 1'
_symmetry_Int_Tables_number      1
_space_group_name_Hall           'P 1'
loop_
_symmetry_equiv_pos_site_id
_symmetry_equiv_pos_as_xyz
1 x,y,z
_cell_length_a                   8.9070(7)
_cell_length_b                   18.9320(14)
_cell_length_c                   28.644(2)
_cell_angle_alpha                90
_cell_angle_beta                 98.641(2)
_cell_angle_gamma                90
_cell_volume                     4775.33
loop_
_atom_site_label
_atom_site_type_symbol
_atom_site_fract_x
_atom_site_fract_y
_atom_site_fract_z
Mo4 Mo 0.53662(3) 0.369343(13) 0.192397(9)
Mo5 Mo 0.64324(3) 0.207449(14) 0.229485(9)
P2 P 0.32903(8) 0.22989(4) 0.14306(3)
O5 O 0.4452(2) 0.17719(11) 0.16834(7)
O8 O 0.2655(2) 0.20520(11) 0.09375(7)
O13 O 0.5505(3) 0.41340(11) 0.13250(8)
O14 O 0.4011(2) 0.30391(11) 0.13882(7)
O15 O 0.3875(3) 0.41530(13) 0.20815(9)
O16 O 0.6955(3) 0.40774(12) 0.22413(8)
O18 O 0.5186(2) 0.28889(11) 0.23208(7)
O19 O 0.8093(3) 0.23270(14) 0.26242(8)
O20 O 0.5601(3) 0.15362(13) 0.26716(8)
C2 C 0.1089(4) 0.07476(19) 0.24583(13)
H2 H 0.1527 0.1084 0.2674
C3 C 0.1921(4) 0.0440(2) 0.21414(14)
H3 H 0.2932 0.0563 0.2142
H13 H 0.0364 0.0213 0.0940
C22 C 0.1606(4) 0.0052(2) 0.04132(14)
H14 H 0.1975 0.0511 0.0401
C26 C 0.1839(3) 0.23935(19) 0.17942(11)
H19 H 0.1548 0.1925 0.1884
H20 H 0.2276 0.2635 0.2081
C27 C 0.0387(3) 0.27908(18) 0.15838(13)
H22 H 0.0651 0.3173 0.1386
Mo6 Mo 0.60269(3) 0.095000(13) 0.135790(9)
Mo7 Mo 0.43227(3) 0.182290(13) 0.041260(8)
Mo8 Mo 0.46758(3) 0.370470(13) 0.073610(9)
Co3 Co 0.82436(5) 0.46130(2) 0.280480(14)
O30 O 0.6976(2) 0.28216(11) 0.17137(7)
O31 O 0.7194(2) 0.14076(11) 0.18944(8)
P1 P 0.73283(8) 0.26085(4) 0.12229(3)
O1 O 0.5386(3) 0.02521(12) 0.16696(8)
O2 O 0.7520(3) 0.06027(13) 0.11320(8)
O3 O 0.4544(2) 0.09917(11) 0.08015(7)
O4 O 0.6305(2) 0.19857(11) 0.10201(7)
O6 O 0.5659(3) 0.16799(13) 0.00543(8)
O7 O 0.2667(2) 0.16434(11) 0.00308(7)
O9 O 0.4341(2) 0.28207(11) 0.04105(7)
O10 O 0.5416(3) 0.42188(13) 0.03373(9)
O11 O 0.2848(3) 0.40032(14) 0.06806(9)
O12 O 0.7068(2) 0.32260(11) 0.08852(7)
O22 O 0.5839(3) 0.01309(14) 0.26907(9)
O23 O 0.0593(3) 0.26511(15) 0.02393(9)
N1 N 0.8910(3) 0.00757(13) 0.21401(9)
C1 C 0.9596(4) 0.05463(17) 0.24491(12)
H1 H 0.9044 0.0746 0.2667
C25 C 0.9245(3) 0.23035(17) 0.12916(11)
H17 H 0.9295 0.1842 0.1441
H18 H 0.9539 0.2247 0.0981
H21 H 0.9923 0.2996 0.1838
H23 H 0.578(7) 0.0593(10) 0.2717(18)
H25 H 0.120(5) 0.252(2) 0.0493(12)
H26 H 0.016(6) 0.3062(17) 0.0317(17)
Co2 Co 0.09004(5) 0.22313(2) 0.961940(14)
N7 N 0.2371(3) 0.29373(14) 0.93384(9)
N8 N 0.1464(3) 0.17026(13) 0.90215(9)
Co1 Co 0.67564(5) 0.96130(2) 0.219520(14)
N2 N 0.7567(3) 0.90269(13) 0.16678(9)
N3 N 0.5156(3) 0.87806(14) 0.20550(9)
N4 N 0.7629(3) 0.70627(14) 0.06616(9)
N5 N 0.8536(3) 0.82974(13) 0.09785(9)
C5 C 0.9704(3) 0.97879(16) 0.18227(11)
C6 C 0.8838(3) 0.92440(15) 0.15113(10)
C7 C 0.6771(3) 0.84588(16) 0.14987(10)
C8 C 0.5288(3) 0.83907(16) 0.16693(11)
C9 C 0.4084(4) 0.7994(2) 0.14435(13)
H5 H 0.4159 0.7760 0.1162
C10 C 0.2771(4) 0.7954(2) 0.16444(15)
H6 H 0.1958 0.7682 0.1503
C11 C 0.2671(4) 0.8319(2) 0.20553(13)
H7 H 0.1810 0.8283 0.2202
C12 C 0.3885(4) 0.87404(18) 0.22451(12)
H8 H 0.3808 0.9004 0.2514
C13 C 0.9184(3) 0.89230(16) 0.10974(11)
C14 C 0.7422(4) 0.63945(18) 0.05192(12)
H9 H 0.7778 0.6254 0.0245
C15 C 0.6696(5) 0.58996(19) 0.07644(14)
H10 H 0.6539 0.5441 0.0652
C16 C 0.6217(5) 0.6103(2) 0.11754(14)
H11 H 0.5758 0.5777 0.1352
C17 C 0.6414(4) 0.67917(19) 0.13288(12)
H12 H 0.6100 0.6934 0.1609
C18 C 0.7090(4) 0.72682(16) 0.10570(11)
C19 C 0.7431(3) 0.80173(16) 0.11871(10)
H24 H 0.602(4) 0.9940(19) 0.2984(8)
Co4 Co 0.90996(5) 0.77687(2) 0.038060(14)
O29 O 0.8045(3) 0.90774(12) 0.27587(8)
Mo2 Mo 0.06773(3) 0.682290(13) 0.458740(8)
Mo3 Mo 0.03242(3) 0.870470(13) 0.426390(9)
Co2_2 Co 0.40996(5) 0.72313(2) 0.538060(14)
O3_2 O 0.0456(2) 0.59917(11) 0.41985(7)
O7_2 O 0.2333(2) 0.66434(11) 0.49692(7)
O9_2 O 0.0659(2) 0.78207(11) 0.45895(7)
O11_2 O 0.2152(3) 0.90032(14) 0.43194(9)
O23_2 O 0.4407(3) 0.76511(15) 0.47607(9)
O24 O 0.5866(3) 0.78770(16) 0.57037(10)
C9_2 C 0.0916(4) 0.2994(2) 0.35565(13)
H5_2 H 0.0841 0.2760 0.3838
C10_2 C 0.2229(4) 0.2954(2) 0.33556(15)
H6_2 H 0.3042 0.2682 0.3497
C11_2 C 0.2329(4) 0.3319(2) 0.29447(13)
H7_2 H 0.3190 0.3283 0.2798
C12_2 C 0.1115(4) 0.37404(18) 0.27549(12)
H8_2 H 0.1192 0.4004 0.2486
H25_2 H 0.380(5) 0.752(2) 0.4507(12)
H26_2 H 0.484(6) 0.8062(17) 0.4683(17)
H27 H 0.581(5) 0.822(2) 0.5917(14)
H28 H 0.670(4) 0.800(3) 0.5574(17)
O25 O 0.0548(2) 0.67719(11) 0.33166(7)
O26 O 0.2345(2) 0.70520(11) 0.40625(7)
O28 O 0.0989(2) 0.80391(11) 0.36118(7)
N7_2 N 0.2629(3) 0.79373(14) 0.56616(9)
N8_2 N 0.3536(3) 0.67026(13) 0.59785(9)
N9 N 0.5480(3) 0.63093(15) 0.54431(10)
Mo1 Mo 0.89731(3) 0.595000(13) 0.364210(9)
P1_2 P 0.76717(8) 0.76085(4) 0.37771(3)
P2_2 P 0.17097(8) 0.72989(4) 0.35694(3)
O1_2 O 0.9614(3) 0.52521(12) 0.33304(8)
O2_2 O 0.7480(3) 0.56027(13) 0.38680(8)
O4_2 O 0.8695(2) 0.69857(11) 0.39799(7)
O6_2 O 0.9341(3) 0.66799(13) 0.49457(8)
O10_2 O 0.9584(3) 0.92188(13) 0.46627(9)
O12_2 O 0.7932(2) 0.82260(11) 0.41148(7)
O15_2 O 0.1125(3) 0.91530(13) 0.29185(9)
O17 O 0.8024(2) 0.78216(11) 0.32863(7)
O21 O 0.7806(2) 0.64076(11) 0.31056(8)
O22_2 O 0.9161(3) 0.51309(14) 0.23093(9)
N1_2 N 0.6090(3) 0.50757(13) 0.28599(9)
N2_2 N 0.7433(3) 0.40269(13) 0.33322(9)
N3_2 N 0.9844(3) 0.37806(14) 0.29450(9)
N4_2 N 0.7371(3) 0.20627(14) 0.43384(9)
N5_2 N 0.6464(3) 0.32974(13) 0.40215(9)
N6 N 0.4520(3) 0.36907(15) 0.45569(10)
C1_2 C 0.5404(4) 0.55463(17) 0.25509(12)
H1_2 H 0.5956 0.5746 0.2333
C2_2 C 0.3911(4) 0.57476(19) 0.25417(13)
H2_2 H 0.3473 0.6084 0.2326
C3_2 C 0.3079(4) 0.5440(2) 0.28586(14)
H3_2 H 0.2068 0.5563 0.2858
C4 C 0.3779(4) 0.49470(18) 0.31771(12)
H4 H 0.3235 0.4725 0.3388
C5_2 C 0.5296(3) 0.47879(16) 0.31773(11)
C6_2 C 0.6162(3) 0.42440(15) 0.34887(10)
C7_2 C 0.8229(3) 0.34588(16) 0.35013(10)
C8_2 C 0.9712(3) 0.33907(16) 0.33307(11)
C13_2 C 0.5816(3) 0.39230(16) 0.39026(11)
C14_2 C 0.7578(4) 0.13945(18) 0.44808(12)
H9_2 H 0.7222 0.1254 0.4755
C15_2 C 0.8304(5) 0.08996(19) 0.42356(14)
H10_2 H 0.8461 0.0441 0.4348
C16_2 C 0.8783(5) 0.1103(2) 0.38246(14)
H11_2 H 0.9242 0.0777 0.3648
C17_2 C 0.8586(4) 0.17917(19) 0.36712(12)
H12_2 H 0.8900 0.1934 0.3391
C18_2 C 0.7910(4) 0.22682(16) 0.39430(11)
C19_2 C 0.7569(3) 0.30173(16) 0.38129(10)
C20 C 0.4835(3) 0.41817(17) 0.42422(11)
C21 C 0.4339(4) 0.48730(19) 0.42623(13)
H13_2 H 0.4636 0.5213 0.4060
C22_2 C 0.3394(4) 0.5052(2) 0.45868(14)
H14_2 H 0.3025 0.5511 0.4599
C23 C 0.3009(4) 0.4544(2) 0.48905(15)
H15 H 0.2346 0.4648 0.5103
C24 C 0.3628(4) 0.3872(2) 0.48752(14)
H16 H 0.3416 0.3536 0.5093
C25_2 C 0.5755(3) 0.73035(17) 0.37084(11)
H17_2 H 0.5705 0.6842 0.3559
H18_2 H 0.5461 0.7247 0.4019
C26_2 C 0.3161(3) 0.73935(19) 0.32058(11)
H19_2 H 0.3452 0.6925 0.3116
H20_2 H 0.2724 0.7635 0.2919
C27_2 C 0.4613(3) 0.77908(18) 0.34162(13)
H21_2 H 0.5077 0.7996 0.3162
H22_2 H 0.4349 0.8173 0.3614
H23_2 H 0.922(7) 0.5593(10) 0.2283(18)
H24_2 H 0.898(4) 0.4940(19) 0.2016(8)
Mo9 Mo 0.96338(3) 0.869343(13) 0.307603(9)
Mo10 Mo 0.85676(3) 0.707449(14) 0.270515(9)
Co4_2 Co 0.59004(5) 0.27687(2) 0.461940(14)
O27 O 0.9495(3) 0.91340(11) 0.36750(8)
O18_2 O 0.9814(2) 0.78889(11) 0.26792(7)
O19_2 O 0.6907(3) 0.73270(14) 0.23758(8)
O20_2 O 0.9399(3) 0.65362(13) 0.23284(8)
Co1_2 Co 0.32436(5) 0.03870(2) 0.780480(14)
N2_3 N 0.2433(3) 0.09731(13) 0.83322(9)
N3_3 N 0.4844(3) 0.12194(14) 0.79450(9)
C5_3 C 0.0296(3) 0.02121(16) 0.81773(11)
C6_3 C 0.1162(3) 0.07560(15) 0.84887(10)
C7_3 C 0.3229(3) 0.15412(16) 0.85013(10)
C8_3 C 0.4712(3) 0.16093(16) 0.83307(11)
C9_3 C 0.5916(4) 0.2006(2) 0.85565(13)
H5_3 H 0.5841 0.2240 0.8838
C10_3 C 0.7229(4) 0.2046(2) 0.83556(15)
H6_3 H 0.8042 0.2318 0.8497
C11_3 C 0.7329(4) 0.1681(2) 0.79447(13)
H7_3 H 0.8190 0.1717 0.7798
C12_3 C 0.6115(4) 0.12596(18) 0.77549(12)
H8_3 H 0.6192 0.0996 0.7486
C13_3 C 0.0816(3) 0.10770(16) 0.89026(11)
C14_3 C 0.2578(4) 0.36055(18) 0.94808(12)
H9_3 H 0.2222 0.3746 0.9755
C15_3 C 0.3304(5) 0.41004(19) 0.92356(14)
H10_3 H 0.3461 0.4559 0.9348
C16_3 C 0.3783(5) 0.3897(2) 0.88246(14)
H11_3 H 0.4242 0.4223 0.8648
C17_3 C 0.3586(4) 0.32083(19) 0.86712(12)
H12_3 H 0.3900 0.3066 0.8391
C18_3 C 0.2910(4) 0.27318(16) 0.89430(11)
C19_3 C 0.2569(3) 0.19827(16) 0.88129(10)
H24_3 H 0.398(4) 0.0060(19) 0.7016(8)
O29_2 O 0.1955(3) 0.09226(12) 0.72413(8)
Mo1_2 Mo 0.39731(3) 0.905000(13) 0.864210(9)
Mo2_2 Mo 0.56773(3) 0.817710(13) 0.958740(8)
Mo3_2 Mo 0.53242(3) 0.629530(13) 0.926390(9)
P1_3 P 0.26717(8) 0.73915(4) 0.87771(3)
O1_3 O 0.4614(3) 0.97479(12) 0.83304(8)
O2_3 O 0.2480(3) 0.93973(13) 0.88680(8)
O3_3 O 0.5456(2) 0.90083(11) 0.91985(7)
O4_3 O 0.3695(2) 0.80143(11) 0.89799(7)
O6_3 O 0.4341(3) 0.83201(13) 0.99457(8)
O7_3 O 0.7333(2) 0.83566(11) 0.99692(7)
O9_3 O 0.5659(2) 0.71793(11) 0.95895(7)
O10_3 O 0.4584(3) 0.57812(13) 0.96627(9)
O11_3 O 0.7152(3) 0.59968(14) 0.93194(9)
O12_3 O 0.2932(2) 0.67740(11) 0.91148(7)
O17_2 O 0.3024(2) 0.71784(11) 0.82863(7)
O21_2 O 0.2806(2) 0.85924(11) 0.81056(8)
O22_3 O 0.4161(3) 0.98691(14) 0.73093(9)
O23_3 O 0.9407(3) 0.73489(15) 0.97607(9)
N1_3 N 0.1090(3) 0.99243(13) 0.78599(9)
C1_3 C 0.0404(4) 0.94537(17) 0.75509(12)
H1_3 H 0.0956 0.9254 0.7333
C25_3 C 0.0755(3) 0.76965(17) 0.87084(11)
H17_3 H 0.0705 0.8158 0.8559
H18_3 H 0.0461 0.7753 0.9019
H21_3 H 0.0077 0.7004 0.8162
H23_3 H 0.422(7) 0.9407(10) 0.7283(18)
H25_3 H 0.880(5) 0.748(2) 0.9507(12)
H26_3 H 0.984(6) 0.6938(17) 0.9683(17)
Mo9_2 Mo 0.46338(3) 0.630657(13) 0.807603(9)
Mo10_2 Mo 0.35676(3) 0.792551(14) 0.770515(9)
O25_2 O 0.5548(2) 0.82281(11) 0.83166(7)
O26_2 O 0.7345(2) 0.79480(11) 0.90625(7)
O27_2 O 0.4495(3) 0.58660(11) 0.86750(8)
O28_2 O 0.5989(2) 0.69609(11) 0.86118(7)
P2_3 P 0.67097(8) 0.77011(4) 0.85694(3)
O15_3 O 0.6125(3) 0.58470(13) 0.79185(9)
O16_2 O 0.3045(3) 0.59226(12) 0.77587(8)
O18_3 O 0.4814(2) 0.71111(11) 0.76792(7)
O19_3 O 0.1907(3) 0.76730(14) 0.73758(8)
O20_3 O 0.4399(3) 0.84638(13) 0.73284(8)
C2_3 C 0.8911(4) 0.92524(19) 0.75417(13)
H2_3 H 0.8473 0.8916 0.7326
C3_3 C 0.8079(4) 0.9560(2) 0.78586(14)
H3_3 H 0.7068 0.9437 0.7858
H13_3 H 0.9636 0.9787 0.9060
C22_3 C 0.8394(4) 0.9948(2) 0.95868(14)
H14_3 H 0.8025 0.9489 0.9599
C26_3 C 0.8161(3) 0.76065(19) 0.82058(11)
H19_3 H 0.8452 0.8075 0.8116
H20_3 H 0.7724 0.7365 0.7919
C27_3 C 0.9613(3) 0.72092(18) 0.84162(13)
H22_3 H 0.9349 0.6827 0.8614
Co3_2 Co 0.17564(5) 0.53870(2) 0.719520(14)
Mo4_2 Mo 0.03662(3) 0.130657(13) 0.692397(9)
Mo5_2 Mo 0.14324(3) 0.292551(14) 0.729485(9)
O13_2 O 0.0505(3) 0.08660(11) 0.63250(8)
O18_4 O 0.0186(2) 0.21111(11) 0.73208(7)
O19_4 O 0.3093(3) 0.26730(14) 0.76242(8)
O20_4 O 0.0601(3) 0.34638(13) 0.76716(8)
Mo6_2 Mo 0.10269(3) 0.405000(13) 0.635790(9)
O30_2 O 0.1976(2) 0.21784(11) 0.67137(7)
O31_2 O 0.2194(2) 0.35924(11) 0.68944(8)
P1_4 P 0.23283(8) 0.23915(4) 0.62229(3)
P2_4 P 0.82903(8) 0.27011(4) 0.64306(3)
O1_4 O 0.0386(3) 0.47479(12) 0.66696(8)
O2_4 O 0.2520(3) 0.43973(13) 0.61320(8)
O4_4 O 0.1305(2) 0.30143(11) 0.60201(7)
O5_2 O 0.9452(2) 0.32281(11) 0.66834(7)
O6_4 O 0.0659(3) 0.33201(13) 0.50543(8)
O8_2 O 0.7655(2) 0.29480(11) 0.59375(7)
O10_4 O 0.0416(3) 0.07812(13) 0.53373(9)
O12_4 O 0.2068(2) 0.17740(11) 0.58852(7)
O14_2 O 0.9011(2) 0.19609(11) 0.63882(7)
O15_4 O 0.8875(3) 0.08470(13) 0.70815(9)
O22_4 O 0.0839(3) 0.48691(14) 0.76907(9)
N1_4 N 0.3910(3) 0.49243(13) 0.71401(9)
N2_4 N 0.2567(3) 0.59731(13) 0.66678(9)
N3_4 N 0.0156(3) 0.62194(14) 0.70550(9)
C1_4 C 0.4596(4) 0.44537(17) 0.74491(12)
H1_4 H 0.4044 0.4254 0.7667
C2_4 C 0.6089(4) 0.42524(19) 0.74583(13)
H2_4 H 0.6527 0.3916 0.7674
C3_4 C 0.6921(4) 0.4560(2) 0.71414(14)
H3_4 H 0.7932 0.4437 0.7142
C4_2 C 0.6221(4) 0.50530(18) 0.68229(12)
H4_2 H 0.6765 0.5275 0.6612
C5_4 C 0.4704(3) 0.52121(16) 0.68227(11)
C6_4 C 0.3838(3) 0.57560(15) 0.65113(10)
C7_4 C 0.1771(3) 0.65412(16) 0.64987(10)
C8_4 C 0.0288(3) 0.66093(16) 0.66693(11)
C13_4 C 0.4184(3) 0.60770(16) 0.60974(11)
C14_4 C 0.2422(4) 0.86055(18) 0.55192(12)
H9_4 H 0.2778 0.8746 0.5245
C15_4 C 0.1696(5) 0.91004(19) 0.57644(14)
H10_4 H 0.1539 0.9559 0.5652
C16_4 C 0.1217(5) 0.8897(2) 0.61754(14)
H11_4 H 0.0758 0.9223 0.6352
C17_4 C 0.1414(4) 0.82083(19) 0.63288(12)
H12_4 H 0.1100 0.8066 0.6609
C18_4 C 0.2090(4) 0.77318(16) 0.60570(11)
C19_4 C 0.2431(3) 0.69827(16) 0.61871(10)
C20_2 C 0.5165(3) 0.58183(17) 0.57578(11)
C21_2 C 0.5661(4) 0.51270(19) 0.57377(13)
H13_4 H 0.5364 0.4787 0.5940
C22_4 C 0.6606(4) 0.4948(2) 0.54132(14)
H14_4 H 0.6975 0.4489 0.5401
C23_2 C 0.6991(4) 0.5456(2) 0.51095(15)
H15_2 H 0.7654 0.5352 0.4897
C24_2 C 0.6372(4) 0.6128(2) 0.51248(14)
H16_2 H 0.6584 0.6464 0.4907
C25_4 C 0.4245(3) 0.26965(17) 0.62916(11)
H17_4 H 0.4295 0.3158 0.6441
H18_4 H 0.4539 0.2753 0.5981
C26_4 C 0.6839(3) 0.26065(19) 0.67942(11)
H19_4 H 0.6548 0.3075 0.6884
H20_4 H 0.7276 0.2365 0.7081
C27_4 C 0.5387(3) 0.22092(18) 0.65838(13)
H21_4 H 0.4923 0.2004 0.6838
H22_4 H 0.5651 0.1827 0.6386
H23_4 H 0.078(7) 0.4407(10) 0.7717(18)
H24_4 H 0.102(4) 0.5060(19) 0.7984(8)
Mo7_2 Mo 0.93227(3) 0.317710(13) 0.541260(8)
Mo8_2 Mo 0.96758(3) 0.129530(13) 0.573610(9)
O3_4 O 0.9544(2) 0.40083(11) 0.58015(7)
O7_4 O 0.7667(2) 0.33566(11) 0.50308(7)
O9_4 O 0.9341(2) 0.21793(11) 0.54105(7)
O11_4 O 0.7848(3) 0.09968(14) 0.56806(9)
O23_4 O 0.5593(3) 0.23489(15) 0.52393(9)
O24_2 O 0.4134(3) 0.21230(16) 0.42963(10)
C9_4 C 0.9084(4) 0.7006(2) 0.64435(13)
H5_4 H 0.9159 0.7240 0.6162
C10_4 C 0.7771(4) 0.7046(2) 0.66444(15)
H6_4 H 0.6958 0.7318 0.6503
C11_4 C 0.7671(4) 0.6681(2) 0.70553(13)
H7_4 H 0.6810 0.6717 0.7202
C12_4 C 0.8885(4) 0.62596(18) 0.72451(12)
H8_4 H 0.8808 0.5996 0.7514
H25_4 H 0.620(5) 0.248(2) 0.5493(12)
H26_4 H 0.516(6) 0.1938(17) 0.5317(17)
H27_2 H 0.419(5) 0.178(2) 0.4083(14)
H28_2 H 0.330(4) 0.200(3) 0.4426(17)
N6_2 N 0.0480(3) 0.86907(15) 0.04431(10)
C4_3 C 0.1221(4) 0.99470(18) 0.18229(12)
H4_3 H 0.1765 0.9725 0.1612
C20_3 C 0.0165(3) 0.91817(17) 0.07578(11)
C21_3 C 0.0661(4) 0.98730(19) 0.07377(13)
C23_3 C 0.1991(4) 0.9544(2) 0.01095(15)
C24_3 C 0.1372(4) 0.8872(2) 0.01248(14)
O24_3 O 0.0866(3) 0.71230(16) 0.07037(10)
H27_3 H 0.081(5) 0.678(2) 0.0917(14)
H28_3 H 0.170(4) 0.700(3) 0.0574(17)
H15_3 H 0.2654 0.9648 0.9897
H16_3 H 0.1584 0.8536 0.9907
O24_4 O 0.9134(3) 0.28770(16) 0.92963(10)
H27_4 H 0.919(5) 0.322(2) 0.9083(14)
H28_4 H 0.830(4) 0.300(3) 0.9426(17)
N9_2 N 0.9520(3) 0.13093(15) 0.95569(10)
C4_4 C 0.8779(4) 0.00530(18) 0.81771(12)
H4_4 H 0.8235 0.0275 0.8388
C20_4 C 0.9835(3) 0.08183(17) 0.92422(11)
C21_4 C 0.9339(4) 0.01270(19) 0.92623(13)
C23_4 C 0.8009(4) 0.0456(2) 0.98905(15)
C24_4 C 0.8628(4) 0.1128(2) 0.98752(14)
H15_4 H 0.7346 0.0352 0.0103
H16_4 H 0.8416 0.1464 0.0093
loop_
_geom_bond_atom_site_label_1
_geom_bond_atom_site_label_2
_geom_bond_site_symmetry_1
_geom_bond_site_symmetry_2
Mo4 O13 1_555 1_555
Mo5 O5 1_555 1_555
P2 O5 1_555 1_555
O5 Mo6 1_555 1_555
O8 P2 1_555 1_555
O13 Mo8 1_555 1_555
O14 Mo4 1_555 1_555
O15 Mo4 1_555 1_555
O16 Mo4 1_555 1_555
O18 Mo4 1_555 1_555
O19 Mo5 1_555 1_555
O20 Mo5 1_555 1_555
H2 C2 1_555 1_555
C3 C2 1_555 1_555
H3 C3 1_555 1_555
H14 C22 1_555 1_555
C26 P2 1_555 1_555
H19 C26 1_555 1_555
H20 C26 1_555 1_555
H22 C27 1_555 1_555
Mo6 O31 1_555 1_555
Mo7 O8 1_555 1_555
Mo8 O14 1_555 1_555
Co3 O16 1_555 1_555
O30 Mo4 1_555 1_555
O31 Mo5 1_555 1_555
Mo5 O18 1_555 1_555
Mo5 O30 1_555 1_555
P2 O14 1_555 1_555
C26 C27 1_555 1_555
Mo6 O1 1_555 1_555
Mo7 O3 1_555 1_555
Mo8 O9 1_555 1_555
P1 O4 1_555 1_555
O2 Mo6 1_555 1_555
O3 Mo6 1_555 1_555
O4 Mo6 1_555 1_555
O6 Mo7 1_555 1_555
O7 Mo7 1_555 1_555
O9 Mo7 1_555 1_555
O10 Mo8 1_555 1_555
O11 Mo8 1_555 1_555
O12 Mo8 1_555 1_555
O30 P1 1_555 1_555
C1 N1 1_555 1_555
H1 C1 1_555 1_555
C25 P1 1_555 1_555
H17 C25 1_555 1_555
H18 C25 1_555 1_555
H23 O22 1_555 1_555
H25 O23 1_555 1_555
H26 O23 1_555 1_555
Mo7 O4 1_555 1_555
P1 O12 1_555 1_555
N7 Co2 1_555 1_555
N8 Co2 1_555 1_555
N2 Co1 1_555 1_555
N3 Co1 1_555 1_555
N4 C14 1_555 1_555
N5 C13 1_555 1_555
C6 N2 1_555 1_555
C7 N2 1_555 1_555
C8 N3 1_555 1_555
C9 C8 1_555 1_555
H5 C9 1_555 1_555
C10 C9 1_555 1_555
H6 C10 1_555 1_555
C11 C10 1_555 1_555
H7 C11 1_555 1_555
C12 N3 1_555 1_555
H8 C12 1_555 1_555
C13 C6 1_555 1_555
C14 H9 1_555 1_555
C15 C14 1_555 1_555
H10 C15 1_555 1_555
C16 C15 1_555 1_555
H11 C16 1_555 1_555
C17 C16 1_555 1_555
H12 C17 1_555 1_555
C18 N4 1_555 1_555
C19 N5 1_555 1_555
Co4 N4 1_555 1_555
O29 Co1 1_555 1_555
N5 Co4 1_555 1_555
C5 C6 1_555 1_555
C7 C8 1_555 1_555
C7 C19 1_555 1_555
C11 C12 1_555 1_555
C17 C18 1_555 1_555
C18 C19 1_555 1_555
Mo2 O3_2 1_555 1_555
Mo3 O9_2 1_555 1_555
Co2_2 O7_2 1_555 1_555
O7_2 Mo2 1_555 1_555
O9_2 Mo2 1_555 1_555
O11_2 Mo3 1_555 1_555
O23_2 Co2_2 1_555 1_555
O24 Co2_2 1_555 1_555
H5_2 C9_2 1_555 1_555
C10_2 C9_2 1_555 1_555
H6_2 C10_2 1_555 1_555
C11_2 C10_2 1_555 1_555
H7_2 C11_2 1_555 1_555
H8_2 C12_2 1_555 1_555
H25_2 O23_2 1_555 1_555
H26_2 O23_2 1_555 1_555
H27 O24 1_555 1_555
H28 O24 1_555 1_555
O26 Mo2 1_555 1_555
O28 Mo3 1_555 1_555
N7_2 Co2_2 1_555 1_555
N8_2 Co2_2 1_555 1_555
N9 Co2_2 1_555 1_555
C11_2 C12_2 1_555 1_555
Mo1 O1_2 1_555 1_555
Co3 O1_2 1_555 1_555
P1_2 O4_2 1_555 1_555
P2_2 O25 1_555 1_555
O2_2 Mo1 1_555 1_555
O4_2 Mo1 1_555 1_555
O26 P2_2 1_555 1_555
O17 P1_2 1_555 1_555
O21 Mo1 1_555 1_555
O22_2 Co3 1_555 1_555
N1_2 Co3 1_555 1_555
N2_2 Co3 1_555 1_555
N3_2 Co3 1_555 1_555
N4_2 C14_2 1_555 1_555
N5_2 C13_2 1_555 1_555
N6 C20 1_555 1_555
C1_2 N1_2 1_555 1_555
H1_2 C1_2 1_555 1_555
C2_2 C1_2 1_555 1_555
H2_2 C2_2 1_555 1_555
C3_2 C2_2 1_555 1_555
H3_2 C3_2 1_555 1_555
C4 C3_2 1_555 1_555
H4 C4 1_555 1_555
C5_2 N1_2 1_555 1_555
C6_2 N2_2 1_555 1_555
C7_2 N2_2 1_555 1_555
C8_2 N3_2 1_555 1_555
C13_2 C6_2 1_555 1_555
C14_2 H9_2 1_555 1_555
C15_2 C14_2 1_555 1_555
H10_2 C15_2 1_555 1_555
C16_2 C15_2 1_555 1_555
H11_2 C16_2 1_555 1_555
C17_2 C16_2 1_555 1_555
H12_2 C17_2 1_555 1_555
C18_2 N4_2 1_555 1_555
C19_2 N5_2 1_555 1_555
C20 C13_2 1_555 1_555
C21 C20 1_555 1_555
H13_2 C21 1_555 1_555
C22_2 C21 1_555 1_555
H14_2 C22_2 1_555 1_555
C23 C22_2 1_555 1_555
H15 C23 1_555 1_555
C24 N6 1_555 1_555
H16 C24 1_555 1_555
C25_2 P1_2 1_555 1_555
H17_2 C25_2 1_555 1_555
H18_2 C25_2 1_555 1_555
C26_2 P2_2 1_555 1_555
H19_2 C26_2 1_555 1_555
H20_2 C26_2 1_555 1_555
C27_2 C25_2 1_555 1_555
H21_2 C27_2 1_555 1_555
H22_2 C27_2 1_555 1_555
H23_2 O22_2 1_555 1_555
H24_2 O22_2 1_555 1_555
Mo9 O17 1_555 1_555
Mo10 O17 1_555 1_555
Co4_2 N4_2 1_555 1_555
P1_2 O12_2 1_555 1_555
P2_2 O28 1_555 1_555
O21 Mo10 1_555 1_555
N5_2 Co4_2 1_555 1_555
N6 Co4_2 1_555 1_555
C4 C5_2 1_555 1_555
C5_2 C6_2 1_555 1_555
C7_2 C8_2 1_555 1_555
C7_2 C19_2 1_555 1_555
C17_2 C18_2 1_555 1_555
C18_2 C19_2 1_555 1_555
C23 C24 1_555 1_555
C26_2 C27_2 1_555 1_555
Mo9 O27 1_555 1_555
O29 Mo9 1_555 1_555
O18_2 Mo9 1_555 1_555
O19_2 Mo10 1_555 1_555
O20_2 Mo10 1_555 1_555
Mo10 O18_2 1_555 1_555
N2_3 Co1_2 1_555 1_555
N3_3 Co1_2 1_555 1_555
N7 C14_3 1_555 1_555
N8 C13_3 1_555 1_555
C6_3 N2_3 1_555 1_555
C7_3 N2_3 1_555 1_555
C8_3 N3_3 1_555 1_555
C9_3 C8_3 1_555 1_555
H5_3 C9_3 1_555 1_555
C10_3 C9_3 1_555 1_555
H6_3 C10_3 1_555 1_555
C11_3 C10_3 1_555 1_555
H7_3 C11_3 1_555 1_555
C12_3 N3_3 1_555 1_555
H8_3 C12_3 1_555 1_555
C13_3 C6_3 1_555 1_555
C14_3 H9_3 1_555 1_555
C15_3 C14_3 1_555 1_555
H10_3 C15_3 1_555 1_555
C16_3 C15_3 1_555 1_555
H11_3 C16_3 1_555 1_555
C17_3 C16_3 1_555 1_555
H12_3 C17_3 1_555 1_555
C18_3 N7 1_555 1_555
C19_3 N8 1_555 1_555
O29_2 Co1_2 1_555 1_555
C5_3 C6_3 1_555 1_555
C7_3 C8_3 1_555 1_555
C7_3 C19_3 1_555 1_555
C11_3 C12_3 1_555 1_555
C17_3 C18_3 1_555 1_555
C18_3 C19_3 1_555 1_555
Mo1_2 O1_3 1_555 1_555
Mo2_2 O3_3 1_555 1_555
Mo3_2 O9_3 1_555 1_555
P1_3 O4_3 1_555 1_555
O2_3 Mo1_2 1_555 1_555
O3_3 Mo1_2 1_555 1_555
O4_3 Mo1_2 1_555 1_555
O6_3 Mo2_2 1_555 1_555
O7_3 Mo2_2 1_555 1_555
O9_3 Mo2_2 1_555 1_555
O10_3 Mo3_2 1_555 1_555
O11_3 Mo3_2 1_555 1_555
O12_3 Mo3_2 1_555 1_555
O17_2 P1_3 1_555 1_555
O21_2 Mo1_2 1_555 1_555
C1_3 N1_3 1_555 1_555
H1_3 C1_3 1_555 1_555
C25_3 P1_3 1_555 1_555
H17_3 C25_3 1_555 1_555
H18_3 C25_3 1_555 1_555
H23_3 O22_3 1_555 1_555
H25_3 O23_3 1_555 1_555
H26_3 O23_3 1_555 1_555
Mo9_2 O17_2 1_555 1_555
Mo10_2 O17_2 1_555 1_555
O25_2 Mo1_2 1_555 1_555
O26_2 Mo2_2 1_555 1_555
O27_2 Mo3_2 1_555 1_555
O28_2 Mo3_2 1_555 1_555
Mo2_2 O4_3 1_555 1_555
P1_3 O12_3 1_555 1_555
O21_2 Mo10_2 1_555 1_555
Mo9_2 O27_2 1_555 1_555
Mo9_2 O28_2 1_555 1_555
Mo10_2 O25_2 1_555 1_555
P2_3 O25_2 1_555 1_555
O26_2 P2_3 1_555 1_555
O15_3 Mo9_2 1_555 1_555
O16_2 Mo9_2 1_555 1_555
O18_3 Mo9_2 1_555 1_555
O19_3 Mo10_2 1_555 1_555
O20_3 Mo10_2 1_555 1_555
H2_3 C2_3 1_555 1_555
C3_3 C2_3 1_555 1_555
H3_3 C3_3 1_555 1_555
H14_3 C22_3 1_555 1_555
C26_3 P2_3 1_555 1_555
H19_3 C26_3 1_555 1_555
H20_3 C26_3 1_555 1_555
H22_3 C27_3 1_555 1_555
Co3_2 O16_2 1_555 1_555
Mo10_2 O18_3 1_555 1_555
P2_3 O28_2 1_555 1_555
C26_3 C27_3 1_555 1_555
Mo4_2 O13_2 1_555 1_555
O29_2 Mo4_2 1_555 1_555
O18_4 Mo4_2 1_555 1_555
O19_4 Mo5_2 1_555 1_555
O20_4 Mo5_2 1_555 1_555
Mo6_2 O31_2 1_555 1_555
O30_2 Mo4_2 1_555 1_555
O31_2 Mo5_2 1_555 1_555
Mo5_2 O18_4 1_555 1_555
Mo5_2 O30_2 1_555 1_555
Mo6_2 O1_4 1_555 1_555
Co3_2 O1_4 1_555 1_555
P1_4 O4_4 1_555 1_555
P2_4 O5_2 1_555 1_555
O2_4 Mo6_2 1_555 1_555
O4_4 Mo6_2 1_555 1_555
O8_2 P2_4 1_555 1_555
O30_2 P1_4 1_555 1_555
O22_4 Co3_2 1_555 1_555
N1_4 Co3_2 1_555 1_555
N2_4 Co3_2 1_555 1_555
N3_4 Co3_2 1_555 1_555
N7_2 C14_4 1_555 1_555
N8_2 C13_4 1_555 1_555
N9 C20_2 1_555 1_555
C1_4 N1_4 1_555 1_555
H1_4 C1_4 1_555 1_555
C2_4 C1_4 1_555 1_555
H2_4 C2_4 1_555 1_555
C3_4 C2_4 1_555 1_555
H3_4 C3_4 1_555 1_555
C4_2 C3_4 1_555 1_555
H4_2 C4_2 1_555 1_555
C5_4 N1_4 1_555 1_555
C6_4 N2_4 1_555 1_555
C7_4 N2_4 1_555 1_555
C8_4 N3_4 1_555 1_555
C13_4 C6_4 1_555 1_555
C14_4 H9_4 1_555 1_555
C15_4 C14_4 1_555 1_555
H10_4 C15_4 1_555 1_555
C16_4 C15_4 1_555 1_555
H11_4 C16_4 1_555 1_555
C17_4 C16_4 1_555 1_555
H12_4 C17_4 1_555 1_555
C18_4 N7_2 1_555 1_555
C19_4 N8_2 1_555 1_555
C20_2 C13_4 1_555 1_555
C21_2 C20_2 1_555 1_555
H13_4 C21_2 1_555 1_555
C22_4 C21_2 1_555 1_555
H14_4 C22_4 1_555 1_555
C23_2 C22_4 1_555 1_555
H15_2 C23_2 1_555 1_555
C24_2 N9 1_555 1_555
H16_2 C24_2 1_555 1_555
C25_4 P1_4 1_555 1_555
H17_4 C25_4 1_555 1_555
H18_4 C25_4 1_555 1_555
C26_4 P2_4 1_555 1_555
H19_4 C26_4 1_555 1_555
H20_4 C26_4 1_555 1_555
C27_4 C25_4 1_555 1_555
H21_4 C27_4 1_555 1_555
H22_4 C27_4 1_555 1_555
H23_4 O22_4 1_555 1_555
H24_4 O22_4 1_555 1_555
Mo7_2 O8_2 1_555 1_555
Mo8_2 O14_2 1_555 1_555
P1_4 O12_4 1_555 1_555
P2_4 O14_2 1_555 1_555
C4_2 C5_4 1_555 1_555
C5_4 C6_4 1_555 1_555
C7_4 C8_4 1_555 1_555
C7_4 C19_4 1_555 1_555
C17_4 C18_4 1_555 1_555
C18_4 C19_4 1_555 1_555
C23_2 C24_2 1_555 1_555
C26_4 C27_4 1_555 1_555
Mo7_2 O3_4 1_555 1_555
Mo8_2 O9_4 1_555 1_555
Co4_2 O7_4 1_555 1_555
O7_4 Mo7_2 1_555 1_555
O9_4 Mo7_2 1_555 1_555
O11_4 Mo8_2 1_555 1_555
O23_4 Co4_2 1_555 1_555
O24_2 Co4_2 1_555 1_555
H5_4 C9_4 1_555 1_555
C10_4 C9_4 1_555 1_555
H6_4 C10_4 1_555 1_555
C11_4 C10_4 1_555 1_555
H7_4 C11_4 1_555 1_555
H8_4 C12_4 1_555 1_555
H25_4 O23_4 1_555 1_555
H26_4 O23_4 1_555 1_555
H27_2 O24_2 1_555 1_555
H28_2 O24_2 1_555 1_555
C11_4 C12_4 1_555 1_555
N6_2 C20_3 1_555 1_555
H4_3 C4_3 1_555 1_555
C21_3 C20_3 1_555 1_555
C24_3 N6_2 1_555 1_555
C23_3 C24_3 1_555 1_555
H27_3 O24_3 1_555 1_555
H28_3 O24_3 1_555 1_555
H27_4 O24_4 1_555 1_555
H28_4 O24_4 1_555 1_555
N9_2 C20_4 1_555 1_555
H4_4 C4_4 1_555 1_555
C21_4 C20_4 1_555 1_555
C24_4 N9_2 1_555 1_555
C23_4 C24_4 1_555 1_555

#END
