
###############################################################################
#
# This file contains modified crystal structure data generated from the
# MOF subset of the Cambridge Structural Database (CSD) v543 
# hosted by the Cambridge Crystallographic Data Centre (CCDC).
#
# This work is licensed under the Creative Commons
# Attribution-NonCommercial-ShareAlike 4.0 International License.
# To view a copy of this license, visit
# http://creativecommons.org/licenses/by-nc-sa/4.0/
# or send a letter to
# Creative Commons, PO Box 1866, Mountain View, CA 94042, USA.
#
# CIF created using the CSD Python API on 29 September 2022
# The structure has been converted into the P1 space group
# The structure has a 3D framework
# The original CSD entry IFASOZ is in the monoclinic crystal system
# The framework has been calculated to contain at least 10.0% void space
# The void calculation uses a probe of radius 1.32A, grid spacing 0.4
# H atom positions have been added when not included in the experimental data
#
###############################################################################

data_IFASOZ
_chemical_formula_moiety         '(C224 H344 Mg32 N8 O136)n'
_symmetry_cell_setting           triclinic
_symmetry_space_group_name_H-M   'P 1'
_symmetry_Int_Tables_number      1
_space_group_name_Hall           'P 1'
loop_
_symmetry_equiv_pos_site_id
_symmetry_equiv_pos_as_xyz
1 x,y,z
_cell_length_a                   35.558(5)
_cell_length_b                   13.495(5)
_cell_length_c                   29.699(5)
_cell_angle_alpha                90
_cell_angle_beta                 122.628(5)
_cell_angle_gamma                90
_cell_volume                     12002.2
loop_
_atom_site_label
_atom_site_type_symbol
_atom_site_fract_x
_atom_site_fract_y
_atom_site_fract_z
H24 H 0.073 0.032 0.5045
O11 O 0.14880(11) 0.0066(3) 0.58735(14)
Mg11 Mg 0.15503(6) 0.12875(14) 0.63124(7)
C15 C 0.00008(18) 0.9173(5) 0.4378(2)
C16 C 0.04972(17) 0.8948(5) 0.4723(2)
H21 H 0.054 0.8261 0.486
H22 H 0.0628 0.8996 0.4502
C17 C 0.07339(18) 0.9651(5) 0.5185(3)
H23 H 0.0568 0.9686 0.5365
C18 C 0.12145(19) 0.9369(5) 0.5594(2)
O12 O 0.13445(12) 0.8510(3) 0.56479(16)
Mg13 Mg 0.20051(6) 0.90233(14) 0.62591(7)
C19 C 0.82740(17) 0.0543(5) 0.2958(2)
C20 C 0.8424(2) 0.0971(4) 0.2597(3)
H25 H 0.8728 0.0725 0.2726
H26 H 0.8222 0.0717 0.2229
C21 C 0.84280(19) 0.2084(5) 0.2578(3)
H27 H 0.8619 0.2294 0.2446
H28 H 0.8563 0.2346 0.2945
C22 C 0.79656(19) 0.2535(4) 0.2222(3)
H29 H 0.779 0.2427 0.2386
H30 H 0.7809 0.2199 0.187
C23 C 0.79950(18) 0.3661(4) 0.2141(2)
H31 H 0.8142 0.3991 0.2494
H32 H 0.8187 0.3761 0.1997
C24 C 0.75500(17) 0.4158(4) 0.1771(2)
O14 O 0.81678(13) 0.1128(3) 0.31910(16)
O15 O 0.72043(12) 0.3643(3) 0.15360(15)
O16 O 0.75559(12) 0.5085(3) 0.17177(14)
Mg7 Mg 0.80464(6) 0.62090(14) 0.19012(7)
Mg10 Mg 0.65503(6) 0.37125(14) 0.13124(7)
Mg14 Mg 0.79949(6) 0.09767(14) 0.37409(7)
Mg15 Mg 0.70051(6) 0.59767(14) 0.12591(7)
N1 N 0.5762(4) 0.0542(9) 0.7469(5)
C27 C 0.5930(6) 0.1060(15) 0.7973(7)
H36 H 0.572 0.1584 0.7923
H37 H 0.6221 0.1354 0.8091
H38 H 0.5962 0.0591 0.8243
C28 C 0.5329(4) 0.0895(15) 0.7053(7)
H39 H 0.5218 0.0488 0.6732
H40 H 0.5353 0.1586 0.6971
H41 H 0.5122 0.0851 0.7174
O23 O 0.85120(11) 0.0066(3) 0.91265(14)
C3 C 0.7972(2) 0.8654(5) 0.0297(2)
H3 H 0.8196 0.9155 0.035
H4 H 0.8062 0.8009 0.0225
C4 C 0.7965(2) 0.8574(5) 0.0810(2)
H5 H 0.7913 0.9239 0.0907
H6 H 0.7715 0.814 0.0741
C5 C 0.8403(2) 0.8154(5) 0.1277(2)
H7 H 0.8426 0.7444 0.121
H8 H 0.8657 0.8506 0.1301
C6 C 0.84282(17) 0.8260(5) 0.1791(2)
C13 C 0.92504(17) 0.8616(4) 0.3578(2)
C14 C 0.97546(19) 0.8539(5) 0.3869(2)
H17 H 0.9848 0.8748 0.3625
H18 H 0.9843 0.7837 0.3966
H19 H 0.996 0.9882 0.4276
H20 H 0.9866 0.9058 0.4591
O3 O 0.83989(12) 0.7507(3) 0.20369(14)
O4 O 0.84573(13) 0.9110(3) 0.19789(16)
O9 O 0.90361(12) 0.8507(3) 0.30801(15)
O10 O 0.90867(12) 0.8742(3) 0.38604(15)
O13 O 0.82797(12) 0.9612(3) 0.30024(14)
Mg2 Mg 0.83581(6) 0.85098(14) 0.25757(7)
Mg3 Mg 0.84497(6) 0.87125(14) 0.36876(7)
O17 O 0.86917(13) 0.7821(3) 0.43546(15)
O20 O 0.76897(12) 0.8580(3) 0.20023(15)
O22 O 0.83056(12) 0.7637(3) 0.31089(15)
O24 O 0.85120(11) 0.9934(3) 0.41265(14)
O27 O 0.77957(12) 0.8643(3) 0.34640(15)
H42 H 0.892488 0.818502 0.467587
H43 H 0.844365 0.763962 0.440048
C1 C 0.7500(2) 0.8975(4) 0.9291(2)
C2 C 0.75216(18) 0.8941(5) 0.9826(2)
H1 H 0.7441 0.9602 0.9894
H2 H 0.7297 0.8462 0.9792
C7 C 0.75993(18) 0.6992(4) 0.8340(2)
C8 C 0.80470(19) 0.6582(4) 0.8749(2)
H9 H 0.8135 0.6861 0.9101
H10 H 0.8265 0.6824 0.8664
C9 C 0.8089(2) 0.5458(4) 0.8804(2)
H11 H 0.8364 0.5294 0.915
H12 H 0.7833 0.5195 0.8811
C10 C 0.81057(19) 0.4946(4) 0.8366(2)
H13 H 0.8343 0.5252 0.8334
H14 H 0.7818 0.5049 0.8023
C11 C 0.8193(2) 0.3853(4) 0.8460(2)
H15 H 0.7951 0.3552 0.8485
H16 H 0.8476 0.3757 0.881
C12 C 0.82264(16) 0.3297(5) 0.8041(2)
O1 O 0.71192(12) 0.8936(3) 0.88724(14)
O2 O 0.78646(12) 0.9027(3) 0.93234(15)
O5 O 0.75300(12) 0.7916(3) 0.83647(15)
O6 O 0.73103(12) 0.6420(3) 0.79977(15)
O7 O 0.81742(13) 0.3764(3) 0.76472(15)
O8 O 0.83056(12) 0.2363(3) 0.81089(15)
Mg1 Mg 0.69536(6) 0.87910(14) 0.80988(7)
Mg4 Mg 0.79949(6) 0.90233(14) 0.87409(7)
O18 O 0.63841(13) 0.9607(3) 0.78280(17)
C25 C 0.5789(3) 0.9327(9) 0.6895(5)
H33 H 0.5475 0.9537 0.6691
H34 H 0.5805 0.8604 0.688
H35 H 0.5945 0.9632 0.6742
C26 C 0.6023(5) 0.9676(11) 0.7516(6)
O19 O 0.66011(12) 0.7493(3) 0.79631(14)
O21 O 0.68258(13) 0.8764(3) 0.73528(15)
O25 O 0.86555(12) 0.8510(3) 0.93521(16)
O26 O 0.81678(13) 0.8872(3) 0.81910(16)
O28 O 0.74441(12) 0.9915(3) 0.82823(14)
Mg5 Mg 0.80464(6) 0.37910(14) 0.69012(7)
Mg8 Mg 0.83581(6) 0.14902(14) 0.75757(7)
Mg9 Mg 0.66419(6) 0.64902(14) 0.74243(7)
Mg12 Mg 0.84497(6) 0.12875(14) 0.86876(7)
C19_2 C 0.17260(17) 0.0543(5) 0.2042(2)
C20_2 C 0.1576(2) 0.0971(4) 0.2403(3)
H25_2 H 0.1272 0.0725 0.2274
H26_2 H 0.1778 0.0717 0.2771
C21_2 C 0.15720(19) 0.2084(5) 0.2422(3)
H27_2 H 0.1381 0.2294 0.2554
H28_2 H 0.1437 0.2346 0.2055
C22_2 C 0.20344(19) 0.2535(4) 0.2778(3)
H29_2 H 0.221 0.2427 0.2614
H30_2 H 0.2191 0.2199 0.313
C23_2 C 0.20050(18) 0.3661(4) 0.2859(2)
H31_2 H 0.1858 0.3991 0.2506
H32_2 H 0.1813 0.3761 0.3003
C24_2 C 0.24500(17) 0.4158(4) 0.3229(2)
O14_2 O 0.18322(13) 0.1128(3) 0.18090(16)
O15_2 O 0.27957(12) 0.3643(3) 0.34640(15)
O16_2 O 0.24441(12) 0.5085(3) 0.32823(14)
N1_2 N 0.4238(4) 0.0542(9) 0.7531(5)
C27_2 C 0.4070(6) 0.1060(15) 0.7027(7)
H36_2 H 0.428 0.1584 0.7077
H37_2 H 0.3779 0.1354 0.6909
H38_2 H 0.4038 0.0591 0.6757
C28_2 C 0.4671(4) 0.0895(15) 0.7947(7)
H39_2 H 0.4782 0.0488 0.8268
H40_2 H 0.4647 0.1586 0.8029
H41_2 H 0.4878 0.0851 0.7826
Mg7_2 Mg 0.19536(6) 0.62090(14) 0.30988(7)
Mg10_2 Mg 0.34497(6) 0.37125(14) 0.36876(7)
Mg14_2 Mg 0.20051(6) 0.09767(14) 0.12591(7)
Mg15_2 Mg 0.29949(6) 0.59767(14) 0.37409(7)
C1_2 C 0.2500(2) 0.8975(4) 0.5709(2)
C2_2 C 0.24784(18) 0.8941(5) 0.5174(2)
H1_2 H 0.2559 0.9602 0.5106
H2_2 H 0.2703 0.8462 0.5208
C3_2 C 0.2028(2) 0.8654(5) 0.4703(2)
H3_2 H 0.1804 0.9155 0.465
H4_2 H 0.1938 0.8009 0.4775
C4_2 C 0.2035(2) 0.8574(5) 0.4190(2)
H5_2 H 0.2087 0.9239 0.4093
H6_2 H 0.2285 0.814 0.4259
C5_2 C 0.1597(2) 0.8154(5) 0.3723(2)
H7_2 H 0.1574 0.7444 0.379
H8_2 H 0.1343 0.8506 0.3699
C6_2 C 0.15718(17) 0.8260(5) 0.3209(2)
C7_2 C 0.24007(18) 0.6992(4) 0.6660(2)
C8_2 C 0.19530(19) 0.6582(4) 0.6251(2)
H9_2 H 0.1865 0.6861 0.5899
H10_2 H 0.1735 0.6824 0.6336
C9_2 C 0.1911(2) 0.5458(4) 0.6196(2)
H11_2 H 0.1636 0.5294 0.585
H12_2 H 0.2167 0.5195 0.6189
C10_2 C 0.18943(19) 0.4946(4) 0.6634(2)
H13_2 H 0.1657 0.5252 0.6666
H14_2 H 0.2182 0.5049 0.6977
C11_2 C 0.1807(2) 0.3853(4) 0.6540(2)
H15_2 H 0.2049 0.3552 0.6515
H16_2 H 0.1524 0.3757 0.619
C12_2 C 0.17736(16) 0.3297(5) 0.6959(2)
C13_2 C 0.07496(17) 0.8616(4) 0.1422(2)
C14_2 C 0.02454(19) 0.8539(5) 0.1131(2)
H17_2 H 0.0152 0.8748 0.1375
H18_2 H 0.0157 0.7837 0.1034
H19_2 H 0.004 0.9882 0.0724
H20_2 H 0.0134 0.9058 0.0409
O1_2 O 0.28808(12) 0.8936(3) 0.61276(14)
O2_2 O 0.21354(12) 0.9027(3) 0.56766(15)
O3_2 O 0.16011(12) 0.7507(3) 0.29631(14)
O4_2 O 0.15427(13) 0.9110(3) 0.30211(16)
O5_2 O 0.24700(12) 0.7916(3) 0.66353(15)
O6_2 O 0.26897(12) 0.6420(3) 0.70023(15)
O7_2 O 0.18258(13) 0.3764(3) 0.73528(15)
O8_2 O 0.16944(12) 0.2363(3) 0.68911(15)
O9_2 O 0.09639(12) 0.8507(3) 0.19199(15)
O10_2 O 0.09133(12) 0.8742(3) 0.11396(15)
O13_2 O 0.17203(12) 0.9612(3) 0.19976(14)
Mg1_2 Mg 0.30464(6) 0.87910(14) 0.69012(7)
Mg2_2 Mg 0.16419(6) 0.85098(14) 0.24243(7)
Mg3_2 Mg 0.15503(6) 0.87125(14) 0.13124(7)
O17_2 O 0.13083(13) 0.7821(3) 0.06454(15)
O18_2 O 0.36159(13) 0.9607(3) 0.71720(17)
C25_2 C 0.4211(3) 0.9327(9) 0.8105(5)
H33_2 H 0.4525 0.9537 0.8309
H34_2 H 0.4195 0.8604 0.812
H35_2 H 0.4055 0.9632 0.8258
C26_2 C 0.3977(5) 0.9676(11) 0.7484(6)
O19_2 O 0.33989(12) 0.7493(3) 0.70369(14)
O20_2 O 0.23103(12) 0.8580(3) 0.29977(15)
O21_2 O 0.31742(13) 0.8764(3) 0.76472(15)
O22_2 O 0.16944(12) 0.7637(3) 0.18911(15)
O24_2 O 0.14880(11) 0.9934(3) 0.08735(14)
O26_2 O 0.18322(13) 0.8872(3) 0.68090(16)
O27_2 O 0.22043(12) 0.8643(3) 0.15360(15)
O28_2 O 0.25559(12) 0.9915(3) 0.67177(14)
Mg5_2 Mg 0.19536(6) 0.37910(14) 0.80988(7)
Mg8_2 Mg 0.16419(6) 0.14902(14) 0.74243(7)
Mg9_2 Mg 0.33581(6) 0.64902(14) 0.75757(7)
H42_2 H 0.107512 0.818502 0.0324131
H43_2 H 0.155635 0.763962 0.0599515
H24_2 H 0.927 0.032 0.9955
C17_2 C 0.92661(18) 0.9651(5) 0.9815(3)
H23_2 H 0.9432 0.9686 0.9635
C18_2 C 0.87855(19) 0.9369(5) 0.9406(2)
O16_3 O 0.25559(12) 0.0085(3) 0.17177(14)
Mg7_3 Mg 0.30464(6) 0.12090(14) 0.19012(7)
C3_3 C 0.2972(2) 0.3654(5) 0.0297(2)
H3_3 H 0.3196 0.4155 0.035
H4_3 H 0.3062 0.3009 0.0225
C4_3 C 0.2965(2) 0.3574(5) 0.0810(2)
H5_3 H 0.2913 0.4239 0.0907
H6_3 H 0.2715 0.314 0.0741
C5_3 C 0.3403(2) 0.3154(5) 0.1277(2)
H7_3 H 0.3426 0.2444 0.121
H8_3 H 0.3657 0.3506 0.1301
C6_3 C 0.34282(17) 0.3260(5) 0.1791(2)
C13_3 C 0.42504(17) 0.3616(4) 0.3578(2)
C14_3 C 0.47546(19) 0.3539(5) 0.3869(2)
H17_3 H 0.4848 0.3748 0.3625
H18_3 H 0.4843 0.2837 0.3966
C15_2 C 0.50008(18) 0.4173(5) 0.4378(2)
H19_3 H 0.496 0.4882 0.4276
H20_3 H 0.4866 0.4058 0.4591
C16_2 C 0.54972(17) 0.3948(5) 0.4723(2)
H21_2 H 0.554 0.3261 0.486
H22_2 H 0.5628 0.3996 0.4502
C17_3 C 0.57339(18) 0.4651(5) 0.5185(3)
H23_3 H 0.5568 0.4686 0.5365
H24_3 H 0.573 0.532 0.5045
C18_3 C 0.62145(19) 0.4369(5) 0.5594(2)
C19_3 C 0.32740(17) 0.5543(5) 0.2958(2)
C20_3 C 0.3424(2) 0.5971(4) 0.2597(3)
H25_3 H 0.3728 0.5725 0.2726
H26_3 H 0.3222 0.5717 0.2229
C21_3 C 0.34280(19) 0.7084(5) 0.2578(3)
H27_3 H 0.3619 0.7294 0.2446
H28_3 H 0.3563 0.7346 0.2945
C22_3 C 0.29656(19) 0.7535(4) 0.2222(3)
H29_3 H 0.279 0.7427 0.2386
H30_3 H 0.2809 0.7199 0.187
C23_3 C 0.29950(18) 0.8661(4) 0.2141(2)
H31_3 H 0.3142 0.8991 0.2494
H32_3 H 0.3187 0.8761 0.1997
C24_3 C 0.25500(17) 0.9158(4) 0.1771(2)
O3_3 O 0.33989(12) 0.2507(3) 0.20369(14)
O4_3 O 0.34573(13) 0.4110(3) 0.19789(16)
O9_3 O 0.40361(12) 0.3507(3) 0.30801(15)
O10_3 O 0.40867(12) 0.3742(3) 0.38604(15)
O11_2 O 0.64880(11) 0.5066(3) 0.58735(14)
O12_2 O 0.63445(12) 0.3510(3) 0.56479(16)
O13_3 O 0.32797(12) 0.4612(3) 0.30024(14)
O14_3 O 0.31678(13) 0.6128(3) 0.31910(16)
Mg2_3 Mg 0.33581(6) 0.35098(14) 0.25757(7)
O17_3 O 0.36917(13) 0.2821(3) 0.43546(15)
O20_3 O 0.26897(12) 0.3580(3) 0.20023(15)
O22_3 O 0.33056(12) 0.2637(3) 0.31089(15)
O24_3 O 0.35120(11) 0.4934(3) 0.41265(14)
Mg11_2 Mg 0.65503(6) 0.62875(14) 0.63124(7)
Mg13_2 Mg 0.70051(6) 0.40233(14) 0.62591(7)
H42_3 H 0.392488 0.318502 0.467587
H43_3 H 0.344365 0.263962 0.440048
C1_3 C 0.2500(2) 0.3975(4) 0.9291(2)
C2_3 C 0.25216(18) 0.3941(5) 0.9826(2)
H1_3 H 0.2441 0.4602 0.9894
H2_3 H 0.2297 0.3462 0.9792
C7_3 C 0.25993(18) 0.1992(4) 0.8340(2)
C8_3 C 0.30470(19) 0.1582(4) 0.8749(2)
H9_3 H 0.3135 0.1861 0.9101
H10_3 H 0.3265 0.1824 0.8664
C9_3 C 0.3089(2) 0.0458(4) 0.8804(2)
H11_3 H 0.3364 0.0294 0.915
H12_3 H 0.2833 0.0195 0.8811
H13_3 H 0.3343 0.0252 0.8334
H14_3 H 0.2818 0.0049 0.8023
O1_3 O 0.21192(12) 0.3936(3) 0.88724(14)
O2_3 O 0.28646(12) 0.4027(3) 0.93234(15)
O5_3 O 0.25300(12) 0.2916(3) 0.83647(15)
O6_3 O 0.23103(12) 0.1420(3) 0.79977(15)
Mg4_2 Mg 0.29949(6) 0.40233(14) 0.87409(7)
O18_3 O 0.13841(13) 0.4607(3) 0.78280(17)
C25_3 C 0.0789(3) 0.4327(9) 0.6895(5)
H33_3 H 0.0475 0.4537 0.6691
H34_3 H 0.0805 0.3604 0.688
H35_3 H 0.0945 0.4632 0.6742
N1_3 N 0.0762(4) 0.5542(9) 0.7469(5)
C26_3 C 0.1023(5) 0.4676(11) 0.7516(6)
C27_3 C 0.0930(6) 0.6060(15) 0.7973(7)
H36_3 H 0.072 0.6584 0.7923
H37_3 H 0.1221 0.6354 0.8091
H38_3 H 0.0962 0.5591 0.8243
C28_3 C 0.0329(4) 0.5895(15) 0.7053(7)
H39_3 H 0.0218 0.5488 0.6732
H40_3 H 0.0353 0.6586 0.6971
H41_3 H 0.0122 0.5851 0.7174
O19_3 O 0.16011(12) 0.2493(3) 0.79631(14)
O23_2 O 0.35120(11) 0.5066(3) 0.91265(14)
O25_2 O 0.36555(12) 0.3510(3) 0.93521(16)
O26_3 O 0.31678(13) 0.3872(3) 0.81910(16)
O28_3 O 0.24441(12) 0.4915(3) 0.82823(14)
C10_3 C 0.31057(19) 0.9946(4) 0.8366(2)
C11_3 C 0.3193(2) 0.8853(4) 0.8460(2)
H15_3 H 0.2951 0.8552 0.8485
H16_3 H 0.3476 0.8757 0.881
C12_3 C 0.32264(16) 0.8297(5) 0.8041(2)
O8_3 O 0.33056(12) 0.7363(3) 0.81089(15)
Mg12_2 Mg 0.34497(6) 0.62875(14) 0.86876(7)
O16_4 O 0.74441(12) 0.0085(3) 0.32823(14)
Mg7_4 Mg 0.69536(6) 0.12090(14) 0.30988(7)
C1_4 C 0.7500(2) 0.3975(4) 0.5709(2)
C2_4 C 0.74784(18) 0.3941(5) 0.5174(2)
H1_4 H 0.7559 0.4602 0.5106
H2_4 H 0.7703 0.3462 0.5208
C3_4 C 0.7028(2) 0.3654(5) 0.4703(2)
H3_4 H 0.6804 0.4155 0.465
H4_4 H 0.6938 0.3009 0.4775
C4_4 C 0.7035(2) 0.3574(5) 0.4190(2)
H5_4 H 0.7087 0.4239 0.4093
H6_4 H 0.7285 0.314 0.4259
C5_4 C 0.6597(2) 0.3154(5) 0.3723(2)
H7_4 H 0.6574 0.2444 0.379
H8_4 H 0.6343 0.3506 0.3699
C6_4 C 0.65718(17) 0.3260(5) 0.3209(2)
C7_4 C 0.74007(18) 0.1992(4) 0.6660(2)
C8_4 C 0.69530(19) 0.1582(4) 0.6251(2)
H9_4 H 0.6865 0.1861 0.5899
H10_4 H 0.6735 0.1824 0.6336
C9_4 C 0.6911(2) 0.0458(4) 0.6196(2)
H11_4 H 0.6636 0.0294 0.585
H12_4 H 0.7167 0.0195 0.6189
H13_4 H 0.6657 0.0252 0.6666
H14_4 H 0.7182 0.0049 0.6977
C13_4 C 0.57496(17) 0.3616(4) 0.1422(2)
C14_4 C 0.52454(19) 0.3539(5) 0.1131(2)
H17_4 H 0.5152 0.3748 0.1375
H18_4 H 0.5157 0.2837 0.1034
C15_3 C 0.49992(18) 0.4173(5) 0.0622(2)
H19_4 H 0.504 0.4882 0.0724
H20_4 H 0.5134 0.4058 0.0409
C16_3 C 0.45028(17) 0.3948(5) 0.0277(2)
H21_3 H 0.446 0.3261 0.014
H22_3 H 0.4372 0.3996 0.0498
C19_4 C 0.67260(17) 0.5543(5) 0.2042(2)
C20_4 C 0.6576(2) 0.5971(4) 0.2403(3)
H25_4 H 0.6272 0.5725 0.2274
H26_4 H 0.6778 0.5717 0.2771
C21_4 C 0.65720(19) 0.7084(5) 0.2422(3)
H27_4 H 0.6381 0.7294 0.2554
H28_4 H 0.6437 0.7346 0.2055
C22_4 C 0.70344(19) 0.7535(4) 0.2778(3)
H29_4 H 0.721 0.7427 0.2614
H30_4 H 0.7191 0.7199 0.313
C23_4 C 0.70050(18) 0.8661(4) 0.2859(2)
H31_4 H 0.6858 0.8991 0.2506
H32_4 H 0.6813 0.8761 0.3003
C24_4 C 0.74500(17) 0.9158(4) 0.3229(2)
O1_4 O 0.78808(12) 0.3936(3) 0.61276(14)
O2_4 O 0.71354(12) 0.4027(3) 0.56766(15)
O3_4 O 0.66011(12) 0.2507(3) 0.29631(14)
O4_4 O 0.65427(13) 0.4110(3) 0.30211(16)
O5_4 O 0.74700(12) 0.2916(3) 0.66353(15)
O6_4 O 0.76897(12) 0.1420(3) 0.70023(15)
O9_4 O 0.59639(12) 0.3507(3) 0.19199(15)
O10_4 O 0.59133(12) 0.3742(3) 0.11396(15)
O13_4 O 0.67203(12) 0.4612(3) 0.19976(14)
O14_4 O 0.68322(13) 0.6128(3) 0.18090(16)
Mg2_4 Mg 0.66419(6) 0.35098(14) 0.24243(7)
O17_4 O 0.63083(13) 0.2821(3) 0.06454(15)
O18_4 O 0.86159(13) 0.4607(3) 0.71720(17)
C25_4 C 0.9211(3) 0.4327(9) 0.8105(5)
H33_4 H 0.9525 0.4537 0.8309
H34_4 H 0.9195 0.3604 0.812
H35_4 H 0.9055 0.4632 0.8258
N1_4 N 0.9238(4) 0.5542(9) 0.7531(5)
C26_4 C 0.8977(5) 0.4676(11) 0.7484(6)
C27_4 C 0.9070(6) 0.6060(15) 0.7027(7)
H36_4 H 0.928 0.6584 0.7077
H37_4 H 0.8779 0.6354 0.6909
H38_4 H 0.9038 0.5591 0.6757
C28_4 C 0.9671(4) 0.5895(15) 0.7947(7)
H39_4 H 0.9782 0.5488 0.8268
H40_4 H 0.9647 0.6586 0.8029
H41_4 H 0.9878 0.5851 0.7826
O19_4 O 0.83989(12) 0.2493(3) 0.70369(14)
O20_4 O 0.73103(12) 0.3580(3) 0.29977(15)
O22_4 O 0.66944(12) 0.2637(3) 0.18911(15)
O24_4 O 0.64880(11) 0.4934(3) 0.08735(14)
O26_4 O 0.68322(13) 0.3872(3) 0.68090(16)
O28_4 O 0.75559(12) 0.4915(3) 0.67177(14)
H42_4 H 0.607512 0.318502 0.0324131
H43_4 H 0.655635 0.263962 0.0599515
C17_4 C 0.42661(18) 0.4651(5) 0.9815(3)
H23_4 H 0.4432 0.4686 0.9635
H24_4 H 0.427 0.532 0.9955
C18_4 C 0.37855(19) 0.4369(5) 0.9406(2)
C10_4 C 0.68943(19) 0.9946(4) 0.6634(2)
C11_4 C 0.6807(2) 0.8853(4) 0.6540(2)
H15_4 H 0.7049 0.8552 0.6515
H16_4 H 0.6524 0.8757 0.619
C12_4 C 0.67736(16) 0.8297(5) 0.6959(2)
O8_4 O 0.66944(12) 0.7363(3) 0.68911(15)
C1_5 C 0.2500(2) 0.1025(4) 0.0709(2)
C2_5 C 0.24784(18) 0.1059(5) 0.0174(2)
H1_5 H 0.2559 0.0398 0.0106
H2_5 H 0.2703 0.1538 0.0208
C7_5 C 0.24007(18) 0.3008(4) 0.1660(2)
C8_5 C 0.19530(19) 0.3418(4) 0.1251(2)
H9_5 H 0.1865 0.3139 0.0899
H10_5 H 0.1735 0.3176 0.1336
C9_5 C 0.1911(2) 0.4542(4) 0.1196(2)
H11_5 H 0.1636 0.4706 0.085
H12_5 H 0.2167 0.4805 0.1189
C10_5 C 0.18943(19) 0.5054(4) 0.1634(2)
H13_5 H 0.1657 0.4748 0.1666
H14_5 H 0.2182 0.4951 0.1977
C11_5 C 0.1807(2) 0.6147(4) 0.1540(2)
H15_5 H 0.2049 0.6448 0.1515
H16_5 H 0.1524 0.6243 0.119
C12_5 C 0.17736(16) 0.6703(5) 0.1959(2)
O1_5 O 0.28808(12) 0.1064(3) 0.11276(14)
O2_5 O 0.21354(12) 0.0973(3) 0.06766(15)
O5_5 O 0.24700(12) 0.2084(3) 0.16353(15)
O7_3 O 0.18258(13) 0.6236(3) 0.23528(15)
O18_5 O 0.36159(13) 0.0393(3) 0.21720(17)
C25_5 C 0.4211(3) 0.0673(9) 0.3105(5)
H33_5 H 0.4525 0.0463 0.3309
H34_5 H 0.4195 0.1396 0.312
H35_5 H 0.4055 0.0368 0.3258
C26_5 C 0.3977(5) 0.0324(11) 0.2484(6)
O21_3 O 0.31742(13) 0.1236(3) 0.26472(15)
O25_3 O 0.13445(12) 0.1490(3) 0.06479(16)
C3_5 C 0.2028(2) 0.1346(5) 0.9703(2)
H3_5 H 0.1804 0.0845 0.965
H4_5 H 0.1938 0.1991 0.9775
C4_5 C 0.2035(2) 0.1426(5) 0.9190(2)
H5_5 H 0.2087 0.0761 0.9093
H6_5 H 0.2285 0.186 0.9259
C5_5 C 0.1597(2) 0.1846(5) 0.8723(2)
H7_5 H 0.1574 0.2556 0.879
H8_5 H 0.1343 0.1494 0.8699
C6_5 C 0.15718(17) 0.1740(5) 0.8209(2)
C13_5 C 0.07496(17) 0.1384(4) 0.6422(2)
C14_5 C 0.02454(19) 0.1461(5) 0.6131(2)
H17_5 H 0.0152 0.1252 0.6375
H18_5 H 0.0157 0.2163 0.6034
H19_5 H 0.004 0.0118 0.5724
H20_5 H 0.0134 0.0942 0.5409
O4_5 O 0.15427(13) 0.0890(3) 0.80211(16)
O9_5 O 0.09639(12) 0.1493(3) 0.69199(15)
O10_5 O 0.09133(12) 0.1258(3) 0.61396(15)
O13_5 O 0.17203(12) 0.0388(3) 0.69976(14)
O17_5 O 0.13083(13) 0.2179(3) 0.56454(15)
O27_3 O 0.22043(12) 0.1357(3) 0.65360(15)
H42_5 H 0.107512 0.181498 0.532413
H43_5 H 0.155635 0.236038 0.559952
N1_5 N 0.4238(4) 0.9458(9) 0.2531(5)
C27_5 C 0.4070(6) 0.8940(15) 0.2027(7)
H36_5 H 0.428 0.8416 0.2077
H37_5 H 0.3779 0.8646 0.1909
H38_5 H 0.4038 0.9409 0.1757
C28_5 C 0.4671(4) 0.9105(15) 0.2947(7)
H39_5 H 0.4782 0.9512 0.3268
H40_5 H 0.4647 0.8414 0.3029
H41_5 H 0.4878 0.9149 0.2826
C19_5 C 0.17260(17) 0.9457(5) 0.7042(2)
C20_5 C 0.1576(2) 0.9029(4) 0.7403(3)
H25_5 H 0.1272 0.9275 0.7274
H26_5 H 0.1778 0.9283 0.7771
C21_5 C 0.15720(19) 0.7916(5) 0.7422(3)
H27_5 H 0.1381 0.7706 0.7554
H28_5 H 0.1437 0.7654 0.7055
C22_5 C 0.20344(19) 0.7465(4) 0.7778(3)
H29_5 H 0.221 0.7573 0.7614
H30_5 H 0.2191 0.7801 0.813
C23_5 C 0.20050(18) 0.6339(4) 0.7859(2)
H31_5 H 0.1858 0.6009 0.7506
H32_5 H 0.1813 0.6239 0.8003
C24_5 C 0.24500(17) 0.5842(4) 0.8229(2)
O15_3 O 0.27957(12) 0.6357(3) 0.84640(15)
C15_4 C 0.99992(18) 0.0827(5) 0.5622(2)
C16_4 C 0.95028(17) 0.1052(5) 0.5277(2)
H21_4 H 0.946 0.1739 0.514
H22_4 H 0.9372 0.1004 0.5498
C17_5 C 0.92661(18) 0.0349(5) 0.4815(3)
H23_5 H 0.9432 0.0314 0.4635
C18_5 C 0.87855(19) 0.0631(5) 0.4406(2)
O12_3 O 0.86555(12) 0.1490(3) 0.43521(16)
H24_5 H 0.927 0.968 0.4955
C17_6 C 0.07339(18) 0.0349(5) 0.0185(3)
H23_6 H 0.0568 0.0314 0.0365
C18_6 C 0.12145(19) 0.0631(5) 0.0594(2)
H24_6 H 0.073 0.968 0.0045
C1_6 C 0.7500(2) 0.1025(4) 0.4291(2)
C2_6 C 0.75216(18) 0.1059(5) 0.4826(2)
H1_6 H 0.7441 0.0398 0.4894
H2_6 H 0.7297 0.1538 0.4792
C3_6 C 0.7972(2) 0.1346(5) 0.5297(2)
H3_6 H 0.8196 0.0845 0.535
H4_6 H 0.8062 0.1991 0.5225
C4_6 C 0.7965(2) 0.1426(5) 0.5810(2)
H5_6 H 0.7913 0.0761 0.5907
H6_6 H 0.7715 0.186 0.5741
C5_6 C 0.8403(2) 0.1846(5) 0.6277(2)
H7_6 H 0.8426 0.2556 0.621
H8_6 H 0.8657 0.1494 0.6301
C6_6 C 0.84282(17) 0.1740(5) 0.6791(2)
C7_6 C 0.75993(18) 0.3008(4) 0.3340(2)
C8_6 C 0.80470(19) 0.3418(4) 0.3749(2)
H9_6 H 0.8135 0.3139 0.4101
H10_6 H 0.8265 0.3176 0.3664
C9_6 C 0.8089(2) 0.4542(4) 0.3804(2)
H11_6 H 0.8364 0.4706 0.415
H12_6 H 0.7833 0.4805 0.3811
C10_6 C 0.81057(19) 0.5054(4) 0.3366(2)
H13_6 H 0.8343 0.4748 0.3334
H14_6 H 0.7818 0.4951 0.3023
C11_6 C 0.8193(2) 0.6147(4) 0.3460(2)
H15_6 H 0.7951 0.6448 0.3485
H16_6 H 0.8476 0.6243 0.381
C12_6 C 0.82264(16) 0.6703(5) 0.3041(2)
C13_6 C 0.92504(17) 0.1384(4) 0.8578(2)
C14_6 C 0.97546(19) 0.1461(5) 0.8869(2)
H17_6 H 0.9848 0.1252 0.8625
H18_6 H 0.9843 0.2163 0.8966
H19_6 H 0.996 0.0118 0.9276
H20_6 H 0.9866 0.0942 0.9591
O1_6 O 0.71192(12) 0.1064(3) 0.38724(14)
O2_6 O 0.78646(12) 0.0973(3) 0.43234(15)
O4_6 O 0.84573(13) 0.0890(3) 0.69789(16)
O5_6 O 0.75300(12) 0.2084(3) 0.33647(15)
O7_4 O 0.81742(13) 0.6236(3) 0.26472(15)
O9_6 O 0.90361(12) 0.1493(3) 0.80801(15)
O10_6 O 0.90867(12) 0.1258(3) 0.88604(15)
O13_6 O 0.82797(12) 0.0388(3) 0.80024(14)
O17_6 O 0.86917(13) 0.2179(3) 0.93546(15)
O18_6 O 0.63841(13) 0.0393(3) 0.28280(17)
C25_6 C 0.5789(3) 0.0673(9) 0.1895(5)
H33_6 H 0.5475 0.0463 0.1691
H34_6 H 0.5805 0.1396 0.188
H35_6 H 0.5945 0.0368 0.1742
C26_6 C 0.6023(5) 0.0324(11) 0.2516(6)
O21_4 O 0.68258(13) 0.1236(3) 0.23528(15)
O27_4 O 0.77957(12) 0.1357(3) 0.84640(15)
H42_6 H 0.892488 0.181498 0.967587
H43_6 H 0.844365 0.236038 0.940048
C19_6 C 0.82740(17) 0.9457(5) 0.7958(2)
C20_6 C 0.8424(2) 0.9029(4) 0.7597(3)
H25_6 H 0.8728 0.9275 0.7726
H26_6 H 0.8222 0.9283 0.7229
C21_6 C 0.84280(19) 0.7916(5) 0.7578(3)
H27_6 H 0.8619 0.7706 0.7446
H28_6 H 0.8563 0.7654 0.7945
C22_6 C 0.79656(19) 0.7465(4) 0.7222(3)
H29_6 H 0.779 0.7573 0.7386
H30_6 H 0.7809 0.7801 0.687
C23_6 C 0.79950(18) 0.6339(4) 0.7141(2)
H31_6 H 0.8142 0.6009 0.7494
H32_6 H 0.8187 0.6239 0.6997
C24_6 C 0.75500(17) 0.5842(4) 0.6771(2)
O15_4 O 0.72043(12) 0.6357(3) 0.65360(15)
N1_6 N 0.5762(4) 0.9458(9) 0.2469(5)
C27_6 C 0.5930(6) 0.8940(15) 0.2973(7)
H36_6 H 0.572 0.8416 0.2923
H37_6 H 0.6221 0.8646 0.3091
H38_6 H 0.5962 0.9409 0.3243
C28_6 C 0.5329(4) 0.9105(15) 0.2053(7)
H39_6 H 0.5218 0.9512 0.1732
H40_6 H 0.5353 0.8414 0.1971
H41_6 H 0.5122 0.9149 0.2174
C10_7 C 0.68943(19) 0.0054(4) 0.1634(2)
C11_7 C 0.6807(2) 0.1147(4) 0.1540(2)
H15_7 H 0.7049 0.1448 0.1515
H16_7 H 0.6524 0.1243 0.119
C12_7 C 0.67736(16) 0.1703(5) 0.1959(2)
C1_7 C 0.7500(2) 0.6025(4) 0.0709(2)
C2_7 C 0.74784(18) 0.6059(5) 0.0174(2)
H1_7 H 0.7559 0.5398 0.0106
H2_7 H 0.7703 0.6538 0.0208
C7_7 C 0.74007(18) 0.8008(4) 0.1660(2)
C8_7 C 0.69530(19) 0.8418(4) 0.1251(2)
H9_7 H 0.6865 0.8139 0.0899
H10_7 H 0.6735 0.8176 0.1336
C9_7 C 0.6911(2) 0.9542(4) 0.1196(2)
H11_7 H 0.6636 0.9706 0.085
H12_7 H 0.7167 0.9805 0.1189
H13_7 H 0.6657 0.9748 0.1666
H14_7 H 0.7182 0.9951 0.1977
O1_7 O 0.78808(12) 0.6064(3) 0.11276(14)
O2_7 O 0.71354(12) 0.5973(3) 0.06766(15)
O5_7 O 0.74700(12) 0.7084(3) 0.16353(15)
O18_7 O 0.86159(13) 0.5393(3) 0.21720(17)
C25_7 C 0.9211(3) 0.5673(9) 0.3105(5)
H33_7 H 0.9525 0.5463 0.3309
H34_7 H 0.9195 0.6396 0.312
H35_7 H 0.9055 0.5368 0.3258
N1_7 N 0.9238(4) 0.4458(9) 0.2531(5)
C26_7 C 0.8977(5) 0.5324(11) 0.2484(6)
C27_7 C 0.9070(6) 0.3940(15) 0.2027(7)
H36_7 H 0.928 0.3416 0.2077
H37_7 H 0.8779 0.3646 0.1909
H38_7 H 0.9038 0.4409 0.1757
C28_7 C 0.9671(4) 0.4105(15) 0.2947(7)
H39_7 H 0.9782 0.4512 0.3268
H40_7 H 0.9647 0.3414 0.3029
H41_7 H 0.9878 0.4149 0.2826
O25_4 O 0.63445(12) 0.6490(3) 0.06479(16)
C3_7 C 0.7028(2) 0.6346(5) 0.9703(2)
H3_7 H 0.6804 0.5845 0.965
H4_7 H 0.6938 0.6991 0.9775
C4_7 C 0.7035(2) 0.6426(5) 0.9190(2)
H5_7 H 0.7087 0.5761 0.9093
H6_7 H 0.7285 0.686 0.9259
C5_7 C 0.6597(2) 0.6846(5) 0.8723(2)
H7_7 H 0.6574 0.7556 0.879
H8_7 H 0.6343 0.6494 0.8699
C6_7 C 0.65718(17) 0.6740(5) 0.8209(2)
C13_7 C 0.57496(17) 0.6384(4) 0.6422(2)
C14_7 C 0.52454(19) 0.6461(5) 0.6131(2)
H17_7 H 0.5152 0.6252 0.6375
H18_7 H 0.5157 0.7163 0.6034
C15_5 C 0.49992(18) 0.5827(5) 0.5622(2)
H19_7 H 0.504 0.5118 0.5724
H20_7 H 0.5134 0.5942 0.5409
C16_5 C 0.45028(17) 0.6052(5) 0.5277(2)
H21_5 H 0.446 0.6739 0.514
H22_5 H 0.4372 0.6004 0.5498
C17_7 C 0.42661(18) 0.5349(5) 0.4815(3)
H23_7 H 0.4432 0.5314 0.4635
H24_7 H 0.427 0.468 0.4955
C18_7 C 0.37855(19) 0.5631(5) 0.4406(2)
C19_7 C 0.67260(17) 0.4457(5) 0.7042(2)
C20_7 C 0.6576(2) 0.4029(4) 0.7403(3)
H25_7 H 0.6272 0.4275 0.7274
H26_7 H 0.6778 0.4283 0.7771
C21_7 C 0.65720(19) 0.2916(5) 0.7422(3)
H27_7 H 0.6381 0.2706 0.7554
H28_7 H 0.6437 0.2654 0.7055
C22_7 C 0.70344(19) 0.2465(4) 0.7778(3)
H29_7 H 0.721 0.2573 0.7614
H30_7 H 0.7191 0.2801 0.813
C23_7 C 0.70050(18) 0.1339(4) 0.7859(2)
H31_7 H 0.6858 0.1009 0.7506
H32_7 H 0.6813 0.1239 0.8003
C24_7 C 0.74500(17) 0.0842(4) 0.8229(2)
O4_7 O 0.65427(13) 0.5890(3) 0.80211(16)
O9_7 O 0.59639(12) 0.6493(3) 0.69199(15)
O10_7 O 0.59133(12) 0.6258(3) 0.61396(15)
O12_4 O 0.36555(12) 0.6490(3) 0.43521(16)
O13_7 O 0.67203(12) 0.5388(3) 0.69976(14)
O17_7 O 0.63083(13) 0.7179(3) 0.56454(15)
H42_7 H 0.607512 0.681498 0.532413
H43_7 H 0.655635 0.736038 0.559952
C10_8 C 0.31057(19) 0.0054(4) 0.3366(2)
C11_8 C 0.3193(2) 0.1147(4) 0.3460(2)
H15_8 H 0.2951 0.1448 0.3485
H16_8 H 0.3476 0.1243 0.381
C12_8 C 0.32264(16) 0.1703(5) 0.3041(2)
C17_8 C 0.57339(18) 0.5349(5) 0.0185(3)
H23_8 H 0.5568 0.5314 0.0365
H24_8 H 0.573 0.468 0.0045
C18_8 C 0.62145(19) 0.5631(5) 0.0594(2)
C1_8 C 0.2500(2) 0.6025(4) 0.4291(2)
C2_8 C 0.25216(18) 0.6059(5) 0.4826(2)
H1_8 H 0.2441 0.5398 0.4894
H2_8 H 0.2297 0.6538 0.4792
C3_8 C 0.2972(2) 0.6346(5) 0.5297(2)
H3_8 H 0.3196 0.5845 0.535
H4_8 H 0.3062 0.6991 0.5225
C4_8 C 0.2965(2) 0.6426(5) 0.5810(2)
H5_8 H 0.2913 0.5761 0.5907
H6_8 H 0.2715 0.686 0.5741
C5_8 C 0.3403(2) 0.6846(5) 0.6277(2)
H7_8 H 0.3426 0.7556 0.621
H8_8 H 0.3657 0.6494 0.6301
C6_8 C 0.34282(17) 0.6740(5) 0.6791(2)
C7_8 C 0.25993(18) 0.8008(4) 0.3340(2)
C8_8 C 0.30470(19) 0.8418(4) 0.3749(2)
H9_8 H 0.3135 0.8139 0.4101
H10_8 H 0.3265 0.8176 0.3664
C9_8 C 0.3089(2) 0.9542(4) 0.3804(2)
H11_8 H 0.3364 0.9706 0.415
H12_8 H 0.2833 0.9805 0.3811
H13_8 H 0.3343 0.9748 0.3334
H14_8 H 0.2818 0.9951 0.3023
C13_8 C 0.42504(17) 0.6384(4) 0.8578(2)
C14_8 C 0.47546(19) 0.6461(5) 0.8869(2)
H17_8 H 0.4848 0.6252 0.8625
H18_8 H 0.4843 0.7163 0.8966
C15_6 C 0.50008(18) 0.5827(5) 0.9378(2)
H19_8 H 0.496 0.5118 0.9276
H20_8 H 0.4866 0.5942 0.9591
C16_6 C 0.54972(17) 0.6052(5) 0.9723(2)
H21_6 H 0.554 0.6739 0.986
H22_6 H 0.5628 0.6004 0.9502
C19_8 C 0.32740(17) 0.4457(5) 0.7958(2)
C20_8 C 0.3424(2) 0.4029(4) 0.7597(3)
H25_8 H 0.3728 0.4275 0.7726
H26_8 H 0.3222 0.4283 0.7229
C21_8 C 0.34280(19) 0.2916(5) 0.7578(3)
H27_8 H 0.3619 0.2706 0.7446
H28_8 H 0.3563 0.2654 0.7945
C22_8 C 0.29656(19) 0.2465(4) 0.7222(3)
H29_8 H 0.279 0.2573 0.7386
H30_8 H 0.2809 0.2801 0.687
C23_8 C 0.29950(18) 0.1339(4) 0.7141(2)
H31_8 H 0.3142 0.1009 0.7494
H32_8 H 0.3187 0.1239 0.6997
C24_8 C 0.25500(17) 0.0842(4) 0.6771(2)
O1_8 O 0.21192(12) 0.6064(3) 0.38724(14)
O2_8 O 0.28646(12) 0.5973(3) 0.43234(15)
O4_8 O 0.34573(13) 0.5890(3) 0.69789(16)
O5_8 O 0.25300(12) 0.7084(3) 0.33647(15)
O9_8 O 0.40361(12) 0.6493(3) 0.80801(15)
O10_8 O 0.40867(12) 0.6258(3) 0.88604(15)
O13_8 O 0.32797(12) 0.5388(3) 0.80024(14)
O17_8 O 0.36917(13) 0.7179(3) 0.93546(15)
O18_8 O 0.13841(13) 0.5393(3) 0.28280(17)
C25_8 C 0.0789(3) 0.5673(9) 0.1895(5)
H33_8 H 0.0475 0.5463 0.1691
H34_8 H 0.0805 0.6396 0.188
H35_8 H 0.0945 0.5368 0.1742
N1_8 N 0.0762(4) 0.4458(9) 0.2469(5)
C26_8 C 0.1023(5) 0.5324(11) 0.2516(6)
C27_8 C 0.0930(6) 0.3940(15) 0.2973(7)
H36_8 H 0.072 0.3416 0.2923
H37_8 H 0.1221 0.3646 0.3091
H38_8 H 0.0962 0.4409 0.3243
C28_8 C 0.0329(4) 0.4105(15) 0.2053(7)
H39_8 H 0.0218 0.4512 0.1732
H40_8 H 0.0353 0.3414 0.1971
H41_8 H 0.0122 0.4149 0.2174
H42_8 H 0.392488 0.681498 0.967587
H43_8 H 0.344365 0.736038 0.940048
C15_7 C 0.99992(18) 0.9173(5) 0.0622(2)
C16_7 C 0.95028(17) 0.8948(5) 0.0277(2)
H21_7 H 0.946 0.8261 0.014
H22_7 H 0.9372 0.8996 0.0498
C15_8 C 0.00008(18) 0.0827(5) 0.9378(2)
C16_8 C 0.04972(17) 0.1052(5) 0.9723(2)
H21_8 H 0.054 0.1739 0.986
H22_8 H 0.0628 0.1004 0.9502
loop_
_geom_bond_atom_site_label_1
_geom_bond_atom_site_label_2
_geom_bond_site_symmetry_1
_geom_bond_site_symmetry_2
Mg11 O11 1_555 1_555
C16 C15 1_555 1_555
H21 C16 1_555 1_555
H22 C16 1_555 1_555
C17 C16 1_555 1_555
H23 C17 1_555 1_555
C18 C17 1_555 1_555
O12 C18 1_555 1_555
O12 Mg13 1_555 1_555
C19 C20 1_555 1_555
C20 H25 1_555 1_555
H26 C20 1_555 1_555
C21 C20 1_555 1_555
H27 C21 1_555 1_555
H28 C21 1_555 1_555
C22 C21 1_555 1_555
H29 C22 1_555 1_555
H30 C22 1_555 1_555
C23 C22 1_555 1_555
H31 C23 1_555 1_555
H32 C23 1_555 1_555
C24 C23 1_555 1_555
O14 C19 1_555 1_555
O15 C24 1_555 1_555
O16 C24 1_555 1_555
Mg7 O16 1_555 1_555
Mg10 O15 1_555 1_555
Mg14 O14 1_555 1_555
Mg15 O16 1_555 1_555
C27 N1 1_555 1_555
H36 C27 1_555 1_555
H37 C27 1_555 1_555
H38 C27 1_555 1_555
C28 N1 1_555 1_555
H39 C28 1_555 1_555
H40 C28 1_555 1_555
H41 C28 1_555 1_555
H3 C3 1_555 1_555
H4 C3 1_555 1_555
C4 C3 1_555 1_555
H5 C4 1_555 1_555
H6 C4 1_555 1_555
C5 C4 1_555 1_555
H7 C5 1_555 1_555
H8 C5 1_555 1_555
C6 C5 1_555 1_555
C13 C14 1_555 1_555
C14 H17 1_555 1_555
H18 C14 1_555 1_555
O3 C6 1_555 1_555
O4 C6 1_555 1_555
O9 C13 1_555 1_555
O10 C13 1_555 1_555
Mg2 O3 1_555 1_555
Mg3 O10 1_555 1_555
O17 Mg3 1_555 1_555
O20 Mg2 1_555 1_555
O22 Mg2 1_555 1_555
O24 Mg3 1_555 1_555
O27 Mg3 1_555 1_555
Mg7 O3 1_555 1_555
O4 Mg2 1_555 1_555
O9 Mg2 1_555 1_555
O13 Mg2 1_555 1_555
O13 Mg3 1_555 1_555
Mg3 O22 1_555 1_555
O17 H42 1_555 1_555
O17 H43 1_555 1_555
C1 C2 1_555 1_555
C2 H1 1_555 1_555
H2 C2 1_555 1_555
C7 C8 1_555 1_555
C8 H9 1_555 1_555
H10 C8 1_555 1_555
C9 C8 1_555 1_555
H11 C9 1_555 1_555
H12 C9 1_555 1_555
C10 C9 1_555 1_555
H13 C10 1_555 1_555
H14 C10 1_555 1_555
C11 C10 1_555 1_555
H15 C11 1_555 1_555
H16 C11 1_555 1_555
C12 C11 1_555 1_555
O1 C1 1_555 1_555
O2 C1 1_555 1_555
O5 C7 1_555 1_555
O6 C7 1_555 1_555
O7 C12 1_555 1_555
O8 C12 1_555 1_555
Mg1 O1 1_555 1_555
Mg4 O2 1_555 1_555
O18 Mg1 1_555 1_555
C25 H33 1_555 1_555
H34 C25 1_555 1_555
H35 C25 1_555 1_555
C26 O18 1_555 1_555
O19 Mg1 1_555 1_555
O21 Mg1 1_555 1_555
O25 Mg4 1_555 1_555
O26 Mg4 1_555 1_555
O28 Mg1 1_555 1_555
Mg5 O7 1_555 1_555
Mg8 O8 1_555 1_555
Mg9 O6 1_555 1_555
Mg12 O8 1_555 1_555
O5 Mg1 1_555 1_555
O5 Mg4 1_555 1_555
Mg4 O28 1_555 1_555
C25 C26 1_555 1_555
O19 Mg9 1_555 1_555
C19_2 C20_2 1_555 1_555
C20_2 H25_2 1_555 1_555
H26_2 C20_2 1_555 1_555
C21_2 C20_2 1_555 1_555
H27_2 C21_2 1_555 1_555
H28_2 C21_2 1_555 1_555
C22_2 C21_2 1_555 1_555
H29_2 C22_2 1_555 1_555
H30_2 C22_2 1_555 1_555
C23_2 C22_2 1_555 1_555
H31_2 C23_2 1_555 1_555
H32_2 C23_2 1_555 1_555
C24_2 C23_2 1_555 1_555
O14_2 C19_2 1_555 1_555
O15_2 C24_2 1_555 1_555
O16_2 C24_2 1_555 1_555
C27_2 N1_2 1_555 1_555
H36_2 C27_2 1_555 1_555
H37_2 C27_2 1_555 1_555
H38_2 C27_2 1_555 1_555
C28_2 N1_2 1_555 1_555
H39_2 C28_2 1_555 1_555
H40_2 C28_2 1_555 1_555
H41_2 C28_2 1_555 1_555
Mg7_2 O16_2 1_555 1_555
Mg10_2 O15_2 1_555 1_555
Mg14_2 O14_2 1_555 1_555
Mg15_2 O16_2 1_555 1_555
C1_2 C2_2 1_555 1_555
C2_2 H1_2 1_555 1_555
H2_2 C2_2 1_555 1_555
C3_2 C2_2 1_555 1_555
H3_2 C3_2 1_555 1_555
H4_2 C3_2 1_555 1_555
C4_2 C3_2 1_555 1_555
H5_2 C4_2 1_555 1_555
H6_2 C4_2 1_555 1_555
C5_2 C4_2 1_555 1_555
H7_2 C5_2 1_555 1_555
H8_2 C5_2 1_555 1_555
C6_2 C5_2 1_555 1_555
C7_2 C8_2 1_555 1_555
C8_2 H9_2 1_555 1_555
H10_2 C8_2 1_555 1_555
C9_2 C8_2 1_555 1_555
H11_2 C9_2 1_555 1_555
H12_2 C9_2 1_555 1_555
C10_2 C9_2 1_555 1_555
H13_2 C10_2 1_555 1_555
H14_2 C10_2 1_555 1_555
C11_2 C10_2 1_555 1_555
H15_2 C11_2 1_555 1_555
H16_2 C11_2 1_555 1_555
C12_2 C11_2 1_555 1_555
C13_2 C14_2 1_555 1_555
C14_2 H17_2 1_555 1_555
H18_2 C14_2 1_555 1_555
O1_2 C1_2 1_555 1_555
O2_2 C1_2 1_555 1_555
O3_2 C6_2 1_555 1_555
O4_2 C6_2 1_555 1_555
O5_2 C7_2 1_555 1_555
O6_2 C7_2 1_555 1_555
O7_2 C12_2 1_555 1_555
O8_2 C12_2 1_555 1_555
O9_2 C13_2 1_555 1_555
O10_2 C13_2 1_555 1_555
Mg1_2 O1_2 1_555 1_555
Mg2_2 O3_2 1_555 1_555
Mg3_2 O10_2 1_555 1_555
Mg13 O2_2 1_555 1_555
O17_2 Mg3_2 1_555 1_555
O18_2 Mg1_2 1_555 1_555
C25_2 H33_2 1_555 1_555
H34_2 C25_2 1_555 1_555
H35_2 C25_2 1_555 1_555
C26_2 O18_2 1_555 1_555
O19_2 Mg1_2 1_555 1_555
O20_2 Mg2_2 1_555 1_555
O21_2 Mg1_2 1_555 1_555
O22_2 Mg2_2 1_555 1_555
O24_2 Mg3_2 1_555 1_555
O26_2 Mg13 1_555 1_555
O27_2 Mg3_2 1_555 1_555
O28_2 Mg1_2 1_555 1_555
Mg5_2 O7_2 1_555 1_555
Mg7_2 O3_2 1_555 1_555
Mg8_2 O8_2 1_555 1_555
Mg9_2 O6_2 1_555 1_555
Mg11 O8_2 1_555 1_555
O4_2 Mg2_2 1_555 1_555
O5_2 Mg1_2 1_555 1_555
O5_2 Mg13 1_555 1_555
O9_2 Mg2_2 1_555 1_555
O13_2 Mg2_2 1_555 1_555
O13_2 Mg3_2 1_555 1_555
Mg3_2 O22_2 1_555 1_555
Mg13 O28_2 1_555 1_555
C25_2 C26_2 1_555 1_555
O19_2 Mg9_2 1_555 1_555
O17_2 H42_2 1_555 1_555
O17_2 H43_2 1_555 1_555
Mg12 O23 1_555 1_555
H23_2 C17_2 1_555 1_555
C18_2 C17_2 1_555 1_555
O25 C18_2 1_555 1_555
Mg7_3 O16_3 1_555 1_555
Mg14_2 O16_3 1_555 1_555
H3_3 C3_3 1_555 1_555
H4_3 C3_3 1_555 1_555
C4_3 C3_3 1_555 1_555
H5_3 C4_3 1_555 1_555
H6_3 C4_3 1_555 1_555
C5_3 C4_3 1_555 1_555
H7_3 C5_3 1_555 1_555
H8_3 C5_3 1_555 1_555
C6_3 C5_3 1_555 1_555
C13_3 C14_3 1_555 1_555
C14_3 H17_3 1_555 1_555
H18_3 C14_3 1_555 1_555
C15_2 C14_3 1_555 1_555
H19_3 C15_2 1_555 1_555
H20_3 C15_2 1_555 1_555
C16_2 C15_2 1_555 1_555
H21_2 C16_2 1_555 1_555
H22_2 C16_2 1_555 1_555
C17_3 C16_2 1_555 1_555
H23_3 C17_3 1_555 1_555
H24_3 C17_3 1_555 1_555
C18_3 C17_3 1_555 1_555
C19_3 C20_3 1_555 1_555
C20_3 H25_3 1_555 1_555
H26_3 C20_3 1_555 1_555
C21_3 C20_3 1_555 1_555
H27_3 C21_3 1_555 1_555
H28_3 C21_3 1_555 1_555
C22_3 C21_3 1_555 1_555
H29_3 C22_3 1_555 1_555
H30_3 C22_3 1_555 1_555
C23_3 C22_3 1_555 1_555
H31_3 C23_3 1_555 1_555
H32_3 C23_3 1_555 1_555
C24_3 C23_3 1_555 1_555
O3_3 C6_3 1_555 1_555
O4_3 C6_3 1_555 1_555
O9_3 C13_3 1_555 1_555
O10_3 C13_3 1_555 1_555
O11_2 C18_3 1_555 1_555
O12_2 C18_3 1_555 1_555
O13_3 C19_3 1_555 1_555
O14_3 C19_3 1_555 1_555
O27_2 C24_3 1_555 1_555
Mg2_3 O3_3 1_555 1_555
Mg10_2 O10_3 1_555 1_555
O17_3 Mg10_2 1_555 1_555
O20_3 Mg2_3 1_555 1_555
O22_3 Mg2_3 1_555 1_555
O24_3 Mg10_2 1_555 1_555
Mg7_3 O3_3 1_555 1_555
Mg11_2 O11_2 1_555 1_555
Mg13_2 O11_2 1_555 1_555
Mg15_2 O14_3 1_555 1_555
O4_3 Mg2_3 1_555 1_555
O9_3 Mg2_3 1_555 1_555
O12_2 Mg13_2 1_555 1_555
O13_3 Mg2_3 1_555 1_555
O13_3 Mg10_2 1_555 1_555
Mg10_2 O22_3 1_555 1_555
O24_3 Mg15_2 1_555 1_555
O17_3 H42_3 1_555 1_555
O17_3 H43_3 1_555 1_555
C1_3 C2_3 1_555 1_555
C2_3 H1_3 1_555 1_555
H2_3 C2_3 1_555 1_555
C7_3 C8_3 1_555 1_555
C8_3 H9_3 1_555 1_555
H10_3 C8_3 1_555 1_555
C9_3 C8_3 1_555 1_555
H11_3 C9_3 1_555 1_555
H12_3 C9_3 1_555 1_555
O1_3 C1_3 1_555 1_555
O2_3 C1_3 1_555 1_555
O5_3 C7_3 1_555 1_555
O6_3 C7_3 1_555 1_555
Mg5_2 O1_3 1_555 1_555
Mg4_2 O2_3 1_555 1_555
O18_3 Mg5_2 1_555 1_555
C25_3 H33_3 1_555 1_555
H34_3 C25_3 1_555 1_555
H35_3 C25_3 1_555 1_555
N1_3 C26_3 1_555 1_555
C26_3 O18_3 1_555 1_555
C27_3 N1_3 1_555 1_555
H36_3 C27_3 1_555 1_555
H37_3 C27_3 1_555 1_555
H38_3 C27_3 1_555 1_555
C28_3 N1_3 1_555 1_555
H39_3 C28_3 1_555 1_555
H40_3 C28_3 1_555 1_555
H41_3 C28_3 1_555 1_555
O19_3 Mg5_2 1_555 1_555
O23_2 Mg4_2 1_555 1_555
O25_2 Mg4_2 1_555 1_555
O26_3 Mg4_2 1_555 1_555
O28_3 Mg5_2 1_555 1_555
Mg8_2 O6_3 1_555 1_555
O5_3 Mg5_2 1_555 1_555
O5_3 Mg4_2 1_555 1_555
Mg4_2 O28_3 1_555 1_555
C25_3 C26_3 1_555 1_555
O19_3 Mg8_2 1_555 1_555
C11_3 C10_3 1_555 1_555
H15_3 C11_3 1_555 1_555
H16_3 C11_3 1_555 1_555
C12_3 C11_3 1_555 1_555
O21_2 C12_3 1_555 1_555
O8_3 C12_3 1_555 1_555
Mg9_2 O8_3 1_555 1_555
Mg12_2 O8_3 1_555 1_555
Mg7_4 O16_4 1_555 1_555
Mg14 O16_4 1_555 1_555
C1_4 C2_4 1_555 1_555
C2_4 H1_4 1_555 1_555
H2_4 C2_4 1_555 1_555
C3_4 C2_4 1_555 1_555
H3_4 C3_4 1_555 1_555
H4_4 C3_4 1_555 1_555
C4_4 C3_4 1_555 1_555
H5_4 C4_4 1_555 1_555
H6_4 C4_4 1_555 1_555
C5_4 C4_4 1_555 1_555
H7_4 C5_4 1_555 1_555
H8_4 C5_4 1_555 1_555
C6_4 C5_4 1_555 1_555
C7_4 C8_4 1_555 1_555
C8_4 H9_4 1_555 1_555
H10_4 C8_4 1_555 1_555
C9_4 C8_4 1_555 1_555
H11_4 C9_4 1_555 1_555
H12_4 C9_4 1_555 1_555
C13_4 C14_4 1_555 1_555
C14_4 H17_4 1_555 1_555
H18_4 C14_4 1_555 1_555
C15_3 C14_4 1_555 1_555
H19_4 C15_3 1_555 1_555
H20_4 C15_3 1_555 1_555
C16_3 C15_3 1_555 1_555
H21_3 C16_3 1_555 1_555
H22_3 C16_3 1_555 1_555
C19_4 C20_4 1_555 1_555
C20_4 H25_4 1_555 1_555
H26_4 C20_4 1_555 1_555
C21_4 C20_4 1_555 1_555
H27_4 C21_4 1_555 1_555
H28_4 C21_4 1_555 1_555
C22_4 C21_4 1_555 1_555
H29_4 C22_4 1_555 1_555
H30_4 C22_4 1_555 1_555
C23_4 C22_4 1_555 1_555
H31_4 C23_4 1_555 1_555
H32_4 C23_4 1_555 1_555
C24_4 C23_4 1_555 1_555
O1_4 C1_4 1_555 1_555
O2_4 C1_4 1_555 1_555
O3_4 C6_4 1_555 1_555
O4_4 C6_4 1_555 1_555
O5_4 C7_4 1_555 1_555
O6_4 C7_4 1_555 1_555
O9_4 C13_4 1_555 1_555
O10_4 C13_4 1_555 1_555
O13_4 C19_4 1_555 1_555
O14_4 C19_4 1_555 1_555
O27 C24_4 1_555 1_555
Mg5 O1_4 1_555 1_555
Mg2_4 O3_4 1_555 1_555
Mg10 O10_4 1_555 1_555
Mg13_2 O2_4 1_555 1_555
O17_4 Mg10 1_555 1_555
O18_4 Mg5 1_555 1_555
C25_4 H33_4 1_555 1_555
H34_4 C25_4 1_555 1_555
H35_4 C25_4 1_555 1_555
N1_4 C26_4 1_555 1_555
C26_4 O18_4 1_555 1_555
C27_4 N1_4 1_555 1_555
H36_4 C27_4 1_555 1_555
H37_4 C27_4 1_555 1_555
H38_4 C27_4 1_555 1_555
C28_4 N1_4 1_555 1_555
H39_4 C28_4 1_555 1_555
H40_4 C28_4 1_555 1_555
H41_4 C28_4 1_555 1_555
O19_4 Mg5 1_555 1_555
O20_4 Mg2_4 1_555 1_555
O22_4 Mg2_4 1_555 1_555
O24_4 Mg10 1_555 1_555
O26_4 Mg13_2 1_555 1_555
O28_4 Mg5 1_555 1_555
Mg7_4 O3_4 1_555 1_555
Mg8 O6_4 1_555 1_555
Mg15 O14_4 1_555 1_555
O4_4 Mg2_4 1_555 1_555
O5_4 Mg5 1_555 1_555
O5_4 Mg13_2 1_555 1_555
O9_4 Mg2_4 1_555 1_555
O13_4 Mg2_4 1_555 1_555
O13_4 Mg10 1_555 1_555
Mg10 O22_4 1_555 1_555
Mg13_2 O28_4 1_555 1_555
C25_4 C26_4 1_555 1_555
O19_4 Mg8 1_555 1_555
O24_4 Mg15 1_555 1_555
O17_4 H42_4 1_555 1_555
O17_4 H43_4 1_555 1_555
H23_4 C17_4 1_555 1_555
H24_4 C17_4 1_555 1_555
C18_4 C17_4 1_555 1_555
O23_2 C18_4 1_555 1_555
O25_2 C18_4 1_555 1_555
Mg12_2 O23_2 1_555 1_555
C11_4 C10_4 1_555 1_555
H15_4 C11_4 1_555 1_555
H16_4 C11_4 1_555 1_555
C12_4 C11_4 1_555 1_555
O21 C12_4 1_555 1_555
O8_4 C12_4 1_555 1_555
Mg9 O8_4 1_555 1_555
Mg11_2 O8_4 1_555 1_555
C1_5 C2_5 1_555 1_555
C2_5 H1_5 1_555 1_555
H2_5 C2_5 1_555 1_555
C7_5 C8_5 1_555 1_555
C8_5 H9_5 1_555 1_555
H10_5 C8_5 1_555 1_555
C9_5 C8_5 1_555 1_555
H11_5 C9_5 1_555 1_555
H12_5 C9_5 1_555 1_555
C10_5 C9_5 1_555 1_555
H13_5 C10_5 1_555 1_555
H14_5 C10_5 1_555 1_555
C11_5 C10_5 1_555 1_555
H15_5 C11_5 1_555 1_555
H16_5 C11_5 1_555 1_555
C12_5 C11_5 1_555 1_555
O1_5 C1_5 1_555 1_555
O2_5 C1_5 1_555 1_555
O5_5 C7_5 1_555 1_555
O20_3 C7_5 1_555 1_555
O7_3 C12_5 1_555 1_555
O22_2 C12_5 1_555 1_555
Mg7_3 O1_5 1_555 1_555
Mg14_2 O2_5 1_555 1_555
O18_5 Mg7_3 1_555 1_555
C25_5 H33_5 1_555 1_555
H34_5 C25_5 1_555 1_555
H35_5 C25_5 1_555 1_555
C26_5 O18_5 1_555 1_555
O21_3 Mg7_3 1_555 1_555
O25_3 Mg14_2 1_555 1_555
Mg7_2 O7_3 1_555 1_555
O5_5 Mg7_3 1_555 1_555
O5_5 Mg14_2 1_555 1_555
C25_5 C26_5 1_555 1_555
H3_5 C3_5 1_555 1_555
H4_5 C3_5 1_555 1_555
C4_5 C3_5 1_555 1_555
H5_5 C4_5 1_555 1_555
H6_5 C4_5 1_555 1_555
C5_5 C4_5 1_555 1_555
H7_5 C5_5 1_555 1_555
H8_5 C5_5 1_555 1_555
C6_5 C5_5 1_555 1_555
C13_5 C14_5 1_555 1_555
C14_5 H17_5 1_555 1_555
H18_5 C14_5 1_555 1_555
O19_3 C6_5 1_555 1_555
O4_5 C6_5 1_555 1_555
O9_5 C13_5 1_555 1_555
O10_5 C13_5 1_555 1_555
Mg11 O10_5 1_555 1_555
O17_5 Mg11 1_555 1_555
O27_3 Mg11 1_555 1_555
O4_5 Mg8_2 1_555 1_555
O9_5 Mg8_2 1_555 1_555
O13_5 Mg8_2 1_555 1_555
O13_5 Mg11 1_555 1_555
O17_5 H42_5 1_555 1_555
O17_5 H43_5 1_555 1_555
C27_5 N1_5 1_555 1_555
H36_5 C27_5 1_555 1_555
H37_5 C27_5 1_555 1_555
H38_5 C27_5 1_555 1_555
C28_5 N1_5 1_555 1_555
H39_5 C28_5 1_555 1_555
H40_5 C28_5 1_555 1_555
H41_5 C28_5 1_555 1_555
C19_5 C20_5 1_555 1_555
C20_5 H25_5 1_555 1_555
H26_5 C20_5 1_555 1_555
C21_5 C20_5 1_555 1_555
H27_5 C21_5 1_555 1_555
H28_5 C21_5 1_555 1_555
C22_5 C21_5 1_555 1_555
H29_5 C22_5 1_555 1_555
H30_5 C22_5 1_555 1_555
C23_5 C22_5 1_555 1_555
H31_5 C23_5 1_555 1_555
H32_5 C23_5 1_555 1_555
C24_5 C23_5 1_555 1_555
O26_2 C19_5 1_555 1_555
O15_3 C24_5 1_555 1_555
O28_3 C24_5 1_555 1_555
Mg12_2 O15_3 1_555 1_555
C16_4 C15_4 1_555 1_555
H21_4 C16_4 1_555 1_555
H22_4 C16_4 1_555 1_555
C17_5 C16_4 1_555 1_555
H23_5 C17_5 1_555 1_555
C18_5 C17_5 1_555 1_555
O12_3 C18_5 1_555 1_555
O12_3 Mg14 1_555 1_555
H23_6 C17_6 1_555 1_555
C18_6 C17_6 1_555 1_555
O25_3 C18_6 1_555 1_555
C1_6 C2_6 1_555 1_555
C2_6 H1_6 1_555 1_555
H2_6 C2_6 1_555 1_555
C3_6 C2_6 1_555 1_555
H3_6 C3_6 1_555 1_555
H4_6 C3_6 1_555 1_555
C4_6 C3_6 1_555 1_555
H5_6 C4_6 1_555 1_555
H6_6 C4_6 1_555 1_555
C5_6 C4_6 1_555 1_555
H7_6 C5_6 1_555 1_555
H8_6 C5_6 1_555 1_555
C6_6 C5_6 1_555 1_555
C7_6 C8_6 1_555 1_555
C8_6 H9_6 1_555 1_555
H10_6 C8_6 1_555 1_555
C9_6 C8_6 1_555 1_555
H11_6 C9_6 1_555 1_555
H12_6 C9_6 1_555 1_555
C10_6 C9_6 1_555 1_555
H13_6 C10_6 1_555 1_555
H14_6 C10_6 1_555 1_555
C11_6 C10_6 1_555 1_555
H15_6 C11_6 1_555 1_555
H16_6 C11_6 1_555 1_555
C12_6 C11_6 1_555 1_555
C13_6 C14_6 1_555 1_555
C14_6 H17_6 1_555 1_555
H18_6 C14_6 1_555 1_555
O1_6 C1_6 1_555 1_555
O2_6 C1_6 1_555 1_555
O19_4 C6_6 1_555 1_555
O4_6 C6_6 1_555 1_555
O5_6 C7_6 1_555 1_555
O20_4 C7_6 1_555 1_555
O7_4 C12_6 1_555 1_555
O22 C12_6 1_555 1_555
O9_6 C13_6 1_555 1_555
O10_6 C13_6 1_555 1_555
Mg7_4 O1_6 1_555 1_555
Mg12 O10_6 1_555 1_555
Mg14 O2_6 1_555 1_555
O17_6 Mg12 1_555 1_555
O18_6 Mg7_4 1_555 1_555
C25_6 H33_6 1_555 1_555
H34_6 C25_6 1_555 1_555
H35_6 C25_6 1_555 1_555
C26_6 O18_6 1_555 1_555
O21_4 Mg7_4 1_555 1_555
O27_4 Mg12 1_555 1_555
Mg7 O7_4 1_555 1_555
O4_6 Mg8 1_555 1_555
O5_6 Mg7_4 1_555 1_555
O5_6 Mg14 1_555 1_555
O9_6 Mg8 1_555 1_555
O13_6 Mg8 1_555 1_555
O13_6 Mg12 1_555 1_555
C25_6 C26_6 1_555 1_555
O17_6 H42_6 1_555 1_555
O17_6 H43_6 1_555 1_555
C19_6 C20_6 1_555 1_555
C20_6 H25_6 1_555 1_555
H26_6 C20_6 1_555 1_555
C21_6 C20_6 1_555 1_555
H27_6 C21_6 1_555 1_555
H28_6 C21_6 1_555 1_555
C22_6 C21_6 1_555 1_555
H29_6 C22_6 1_555 1_555
H30_6 C22_6 1_555 1_555
C23_6 C22_6 1_555 1_555
H31_6 C23_6 1_555 1_555
H32_6 C23_6 1_555 1_555
C24_6 C23_6 1_555 1_555
O26 C19_6 1_555 1_555
O15_4 C24_6 1_555 1_555
O28_4 C24_6 1_555 1_555
C27_6 N1_6 1_555 1_555
H36_6 C27_6 1_555 1_555
H37_6 C27_6 1_555 1_555
H38_6 C27_6 1_555 1_555
C28_6 N1_6 1_555 1_555
H39_6 C28_6 1_555 1_555
H40_6 C28_6 1_555 1_555
H41_6 C28_6 1_555 1_555
Mg11_2 O15_4 1_555 1_555
C11_7 C10_7 1_555 1_555
H15_7 C11_7 1_555 1_555
H16_7 C11_7 1_555 1_555
C12_7 C11_7 1_555 1_555
O21_4 C12_7 1_555 1_555
O22_4 C12_7 1_555 1_555
C1_7 C2_7 1_555 1_555
C2_7 H1_7 1_555 1_555
H2_7 C2_7 1_555 1_555
C7_7 C8_7 1_555 1_555
C8_7 H9_7 1_555 1_555
H10_7 C8_7 1_555 1_555
C9_7 C8_7 1_555 1_555
H11_7 C9_7 1_555 1_555
H12_7 C9_7 1_555 1_555
O1_7 C1_7 1_555 1_555
O2_7 C1_7 1_555 1_555
O5_7 C7_7 1_555 1_555
O20 C7_7 1_555 1_555
Mg7 O1_7 1_555 1_555
Mg15 O2_7 1_555 1_555
O18_7 Mg7 1_555 1_555
C25_7 H33_7 1_555 1_555
H34_7 C25_7 1_555 1_555
H35_7 C25_7 1_555 1_555
N1_7 C26_7 1_555 1_555
C26_7 O18_7 1_555 1_555
C27_7 N1_7 1_555 1_555
H36_7 C27_7 1_555 1_555
H37_7 C27_7 1_555 1_555
H38_7 C27_7 1_555 1_555
C28_7 N1_7 1_555 1_555
H39_7 C28_7 1_555 1_555
H40_7 C28_7 1_555 1_555
H41_7 C28_7 1_555 1_555
O25_4 Mg15 1_555 1_555
O5_7 Mg7 1_555 1_555
O5_7 Mg15 1_555 1_555
C25_7 C26_7 1_555 1_555
H3_7 C3_7 1_555 1_555
H4_7 C3_7 1_555 1_555
C4_7 C3_7 1_555 1_555
H5_7 C4_7 1_555 1_555
H6_7 C4_7 1_555 1_555
C5_7 C4_7 1_555 1_555
H7_7 C5_7 1_555 1_555
H8_7 C5_7 1_555 1_555
C6_7 C5_7 1_555 1_555
C13_7 C14_7 1_555 1_555
C14_7 H17_7 1_555 1_555
H18_7 C14_7 1_555 1_555
C15_5 C14_7 1_555 1_555
H19_7 C15_5 1_555 1_555
H20_7 C15_5 1_555 1_555
C16_5 C15_5 1_555 1_555
H21_5 C16_5 1_555 1_555
H22_5 C16_5 1_555 1_555
C17_7 C16_5 1_555 1_555
H23_7 C17_7 1_555 1_555
H24_7 C17_7 1_555 1_555
C18_7 C17_7 1_555 1_555
C19_7 C20_7 1_555 1_555
C20_7 H25_7 1_555 1_555
H26_7 C20_7 1_555 1_555
C21_7 C20_7 1_555 1_555
H27_7 C21_7 1_555 1_555
H28_7 C21_7 1_555 1_555
C22_7 C21_7 1_555 1_555
H29_7 C22_7 1_555 1_555
H30_7 C22_7 1_555 1_555
C23_7 C22_7 1_555 1_555
H31_7 C23_7 1_555 1_555
H32_7 C23_7 1_555 1_555
C24_7 C23_7 1_555 1_555
O19 C6_7 1_555 1_555
O4_7 C6_7 1_555 1_555
O9_7 C13_7 1_555 1_555
O10_7 C13_7 1_555 1_555
O24_3 C18_7 1_555 1_555
O12_4 C18_7 1_555 1_555
O13_7 C19_7 1_555 1_555
O26_4 C19_7 1_555 1_555
O27_4 C24_7 1_555 1_555
Mg11_2 O10_7 1_555 1_555
O17_7 Mg11_2 1_555 1_555
O4_7 Mg9 1_555 1_555
O9_7 Mg9 1_555 1_555
O12_4 Mg15_2 1_555 1_555
O13_7 Mg9 1_555 1_555
O13_7 Mg11_2 1_555 1_555
O17_7 H42_7 1_555 1_555
O17_7 H43_7 1_555 1_555
C11_8 C10_8 1_555 1_555
H15_8 C11_8 1_555 1_555
H16_8 C11_8 1_555 1_555
C12_8 C11_8 1_555 1_555
O21_3 C12_8 1_555 1_555
O22_3 C12_8 1_555 1_555
H23_8 C17_8 1_555 1_555
H24_8 C17_8 1_555 1_555
C18_8 C17_8 1_555 1_555
O24_4 C18_8 1_555 1_555
O25_4 C18_8 1_555 1_555
C1_8 C2_8 1_555 1_555
C2_8 H1_8 1_555 1_555
H2_8 C2_8 1_555 1_555
C3_8 C2_8 1_555 1_555
H3_8 C3_8 1_555 1_555
H4_8 C3_8 1_555 1_555
C4_8 C3_8 1_555 1_555
H5_8 C4_8 1_555 1_555
H6_8 C4_8 1_555 1_555
C5_8 C4_8 1_555 1_555
H7_8 C5_8 1_555 1_555
H8_8 C5_8 1_555 1_555
C6_8 C5_8 1_555 1_555
C7_8 C8_8 1_555 1_555
C8_8 H9_8 1_555 1_555
H10_8 C8_8 1_555 1_555
C9_8 C8_8 1_555 1_555
H11_8 C9_8 1_555 1_555
H12_8 C9_8 1_555 1_555
C13_8 C14_8 1_555 1_555
C14_8 H17_8 1_555 1_555
H18_8 C14_8 1_555 1_555
C15_6 C14_8 1_555 1_555
H19_8 C15_6 1_555 1_555
H20_8 C15_6 1_555 1_555
C16_6 C15_6 1_555 1_555
H21_6 C16_6 1_555 1_555
H22_6 C16_6 1_555 1_555
C19_8 C20_8 1_555 1_555
C20_8 H25_8 1_555 1_555
H26_8 C20_8 1_555 1_555
C21_8 C20_8 1_555 1_555
H27_8 C21_8 1_555 1_555
H28_8 C21_8 1_555 1_555
C22_8 C21_8 1_555 1_555
H29_8 C22_8 1_555 1_555
H30_8 C22_8 1_555 1_555
C23_8 C22_8 1_555 1_555
H31_8 C23_8 1_555 1_555
H32_8 C23_8 1_555 1_555
C24_8 C23_8 1_555 1_555
O1_8 C1_8 1_555 1_555
O2_8 C1_8 1_555 1_555
O19_2 C6_8 1_555 1_555
O4_8 C6_8 1_555 1_555
O5_8 C7_8 1_555 1_555
O20_2 C7_8 1_555 1_555
O9_8 C13_8 1_555 1_555
O10_8 C13_8 1_555 1_555
O13_8 C19_8 1_555 1_555
O26_3 C19_8 1_555 1_555
O27_3 C24_8 1_555 1_555
Mg7_2 O1_8 1_555 1_555
Mg12_2 O10_8 1_555 1_555
Mg15_2 O2_8 1_555 1_555
O17_8 Mg12_2 1_555 1_555
O18_8 Mg7_2 1_555 1_555
C25_8 H33_8 1_555 1_555
H34_8 C25_8 1_555 1_555
H35_8 C25_8 1_555 1_555
N1_8 C26_8 1_555 1_555
C26_8 O18_8 1_555 1_555
C27_8 N1_8 1_555 1_555
H36_8 C27_8 1_555 1_555
H37_8 C27_8 1_555 1_555
H38_8 C27_8 1_555 1_555
C28_8 N1_8 1_555 1_555
H39_8 C28_8 1_555 1_555
H40_8 C28_8 1_555 1_555
H41_8 C28_8 1_555 1_555
O4_8 Mg9_2 1_555 1_555
O5_8 Mg7_2 1_555 1_555
O5_8 Mg15_2 1_555 1_555
O9_8 Mg9_2 1_555 1_555
O13_8 Mg9_2 1_555 1_555
O13_8 Mg12_2 1_555 1_555
C25_8 C26_8 1_555 1_555
O17_8 H42_8 1_555 1_555
O17_8 H43_8 1_555 1_555
C16_7 C15_7 1_555 1_555
H21_7 C16_7 1_555 1_555
H22_7 C16_7 1_555 1_555
C16_8 C15_8 1_555 1_555
H21_8 C16_8 1_555 1_555
H22_8 C16_8 1_555 1_555

#END
