
###############################################################################
#
# This file contains modified crystal structure data generated from the
# MOF subset of the Cambridge Structural Database (CSD) v543 
# hosted by the Cambridge Crystallographic Data Centre (CCDC).
#
# This work is licensed under the Creative Commons
# Attribution-NonCommercial-ShareAlike 4.0 International License.
# To view a copy of this license, visit
# http://creativecommons.org/licenses/by-nc-sa/4.0/
# or send a letter to
# Creative Commons, PO Box 1866, Mountain View, CA 94042, USA.
#
# CIF created using the CSD Python API on 29 September 2022
# The structure has been converted into the P1 space group
# The structure has a 3D framework
# The original CSD entry IFIPIZ is in the cubic crystal system
# The original CSD entry IFIPIZ is in a Sohncke space group
# The framework has been calculated to contain at least 10.0% void space
# The void calculation uses a probe of radius 1.32A, grid spacing 0.4
# H atom positions have been added when not included in the experimental data
#
###############################################################################

data_IFIPIZ
_chemical_formula_moiety         '(C176 H288 In12 N8 O96 S24 4-)n'
_symmetry_cell_setting           triclinic
_symmetry_space_group_name_H-M   'P 1'
_symmetry_Int_Tables_number      1
_space_group_name_Hall           'P 1'
loop_
_symmetry_equiv_pos_site_id
_symmetry_equiv_pos_as_xyz
1 x,y,z
_cell_length_a                   18.7063(2)
_cell_length_b                   18.7063(2)
_cell_length_c                   18.7063(2)
_cell_angle_alpha                90
_cell_angle_beta                 90
_cell_angle_gamma                90
_cell_volume                     6545.81
loop_
_atom_site_label
_atom_site_type_symbol
_atom_site_fract_x
_atom_site_fract_y
_atom_site_fract_z
C1 C 0.9062(12) 0.4496(12) 0.1600(11)
C2 C 0.8417(17) 0.3417(17) 0.1583(17)
N1 N 0.8887(7) 0.3887(7) 0.1113(7)
C3 C 0.8400(11) 0.4062(12) 0.0504(12)
C4 C 0.9496(12) 0.3400(11) 0.0938(12)
H5 H 0.970263 0.316377 0.142831
H6 H 0.931094 0.297797 0.0582255
H7 H 0.991805 0.37035 0.0675957
H17 H 0.794635 0.371702 0.174848
H18 H 0.825152 0.294635 0.128298
H19 H 0.871702 0.325152 0.205365
H20 H 0.934081 0.429485 0.20698
H21 H 0.940253 0.487644 0.132033
H22 H 0.857014 0.476034 0.176462
H26 H 0.864466 0.447265 0.0171711
H27 H 0.830829 0.358359 0.0185218
H28 H 0.78923 0.425723 0.0711445
H5_2 H 0.857169 0.470263 0.183623
H6_2 H 0.941775 0.431094 0.202203
H7_2 H 0.932404 0.491805 0.12965
H20_2 H 0.79302 0.434081 0.0705153
H21_2 H 0.867967 0.440253 0.0123564
H22_2 H 0.823538 0.357014 0.0239657
H26_2 H 0.982829 0.364466 0.0527349
H27_2 H 0.981478 0.330829 0.141641
H28_2 H 0.928856 0.28923 0.0742765
H5_3 H 0.816377 0.357169 0.0297366
H6_3 H 0.797797 0.441775 0.0689059
H7_3 H 0.87035 0.432404 0.00819494
H20_3 H 0.929485 0.29302 0.0659192
H21_3 H 0.987644 0.367967 0.0597468
H22_3 H 0.976034 0.323538 0.142986
H26_3 H 0.947265 0.482829 0.135534
H27_3 H 0.858359 0.481478 0.169171
H28_3 H 0.925723 0.428856 0.21077
C1_2 C 0.5938(12) 0.5504(12) 0.6600(11)
C2_2 C 0.6583(17) 0.6583(17) 0.6583(17)
N1_2 N 0.6113(7) 0.6113(7) 0.6113(7)
C3_2 C 0.6600(11) 0.5938(12) 0.5504(12)
C4_2 C 0.5504(12) 0.6600(11) 0.5938(12)
H5_4 H 0.529737 0.683623 0.642831
H6_4 H 0.568906 0.702203 0.558225
H7_4 H 0.508195 0.62965 0.567596
H17_2 H 0.705365 0.628298 0.674848
H18_2 H 0.674848 0.705365 0.628298
H19_2 H 0.628298 0.674848 0.705365
H20_4 H 0.565919 0.570515 0.70698
H21_4 H 0.559747 0.512356 0.632033
H22_4 H 0.642986 0.523966 0.676462
H26_4 H 0.635534 0.552735 0.517171
H27_4 H 0.669171 0.641641 0.518522
H28_4 H 0.71077 0.574277 0.571144
H5_5 H 0.642831 0.529737 0.683623
H6_5 H 0.558225 0.568906 0.702203
H7_5 H 0.567596 0.508195 0.62965
H20_5 H 0.70698 0.565919 0.570515
H21_5 H 0.632033 0.559747 0.512356
H22_5 H 0.676462 0.642986 0.523966
H26_5 H 0.517171 0.635534 0.552735
H27_5 H 0.518522 0.669171 0.641641
H28_5 H 0.571144 0.71077 0.574277
H5_6 H 0.683623 0.642831 0.529737
H6_6 H 0.702203 0.558225 0.568906
H7_6 H 0.62965 0.567596 0.508195
H20_6 H 0.570515 0.70698 0.565919
H21_6 H 0.512356 0.632033 0.559747
H22_6 H 0.523966 0.676462 0.642986
H26_6 H 0.552735 0.517171 0.635534
H27_6 H 0.641641 0.518522 0.669171
H28_6 H 0.574277 0.571144 0.71077
C1_3 C 0.0938(12) 0.9496(12) 0.3400(11)
C2_3 C 0.1583(17) 0.8417(17) 0.3417(17)
N1_3 N 0.1113(7) 0.8887(7) 0.3887(7)
C3_3 C 0.1600(11) 0.9062(12) 0.4496(12)
C4_3 C 0.0504(12) 0.8400(11) 0.4062(12)
H5_7 H 0.0297366 0.816377 0.357169
H6_7 H 0.0689059 0.797797 0.441775
H7_7 H 0.00819494 0.87035 0.432404
H17_3 H 0.205365 0.871702 0.325152
H18_3 H 0.174848 0.794635 0.371702
H19_3 H 0.128298 0.825152 0.294635
H20_7 H 0.0659192 0.929485 0.29302
H21_7 H 0.0597468 0.987644 0.367967
H22_7 H 0.142986 0.976034 0.323538
H26_7 H 0.135534 0.947265 0.482829
H27_7 H 0.169171 0.858359 0.481478
H28_7 H 0.21077 0.925723 0.428856
H5_8 H 0.142831 0.970263 0.316377
H6_8 H 0.0582255 0.931094 0.297797
H7_8 H 0.0675957 0.991805 0.37035
H20_8 H 0.20698 0.934081 0.429485
H21_8 H 0.132033 0.940253 0.487644
H22_8 H 0.176462 0.857014 0.476034
H26_8 H 0.0171711 0.864466 0.447265
H27_8 H 0.0185218 0.830829 0.358359
H28_8 H 0.0711445 0.78923 0.425723
H5_9 H 0.183623 0.857169 0.470263
H6_9 H 0.202203 0.941775 0.431094
H7_9 H 0.12965 0.932404 0.491805
H20_9 H 0.0705153 0.79302 0.434081
H21_9 H 0.0123564 0.867967 0.440253
H22_9 H 0.0239657 0.823538 0.357014
H26_9 H 0.0527349 0.982829 0.364466
H27_9 H 0.141641 0.981478 0.330829
H28_9 H 0.0742765 0.928856 0.28923
C1_4 C 0.4062(12) 0.0504(12) 0.8400(11)
C2_4 C 0.3417(17) 0.1583(17) 0.8417(17)
N1_4 N 0.3887(7) 0.1113(7) 0.8887(7)
C3_4 C 0.3400(11) 0.0938(12) 0.9496(12)
C4_4 C 0.4496(12) 0.1600(11) 0.9062(12)
H5_10 H 0.470263 0.183623 0.857169
H6_10 H 0.431094 0.202203 0.941775
H7_10 H 0.491805 0.12965 0.932404
H17_4 H 0.294635 0.128298 0.825152
H18_4 H 0.325152 0.205365 0.871702
H19_4 H 0.371702 0.174848 0.794635
H20_10 H 0.434081 0.0705153 0.79302
H21_10 H 0.440253 0.0123564 0.867967
H22_10 H 0.357014 0.0239657 0.823538
H26_10 H 0.364466 0.0527349 0.982829
H27_10 H 0.330829 0.141641 0.981478
H28_10 H 0.28923 0.0742765 0.928856
H5_11 H 0.357169 0.0297366 0.816377
H6_11 H 0.441775 0.0689059 0.797797
H7_11 H 0.432404 0.00819494 0.87035
H20_11 H 0.29302 0.0659192 0.929485
H21_11 H 0.367967 0.0597468 0.987644
H22_11 H 0.323538 0.142986 0.976034
H26_11 H 0.482829 0.135534 0.947265
H27_11 H 0.481478 0.169171 0.858359
H28_11 H 0.428856 0.21077 0.925723
H5_12 H 0.316377 0.142831 0.970263
H6_12 H 0.297797 0.0582255 0.931094
H7_12 H 0.37035 0.0675957 0.991805
H20_12 H 0.429485 0.20698 0.934081
H21_12 H 0.487644 0.132033 0.940253
H22_12 H 0.476034 0.176462 0.857014
H26_12 H 0.447265 0.0171711 0.864466
H27_12 H 0.358359 0.0185218 0.830829
H28_12 H 0.425723 0.0711445 0.78923
C6 C 0.4874(12) 0.5126(12) 0.0126(12)
C7 C 0.5937(11) 0.4474(11) 0.0124(11)
H12 H 0.470417 0.482427 0.0594002
H13 H 0.517573 0.5594 0.0295832
H14 H 0.621934 0.494767 0.0310637
H15 H 0.576025 0.416055 0.0581615
H8 H 0.57589 0.417742 0.059222
H10 H 0.623046 0.494715 0.029405
H24 H 0.62414 0.494594 0.0277378
H25 H 0.5758 0.419462 0.0602344
C5 C 0.5526(11) 0.5124(11) 0.9063(11)
N2 N 0.5306(6) 0.4694(6) 0.9694(6)
C8 C 0.4876(11) 0.4063(11) 0.9474(11)
H8_2 H 0.582258 0.559222 0.92411
H9 H 0.586374 0.480075 0.871609
H10_2 H 0.505285 0.529405 0.876954
H11 H 0.4406 0.529583 0.982427
H16 H 0.629369 0.415262 0.979477
H23 H 0.51927 0.372613 0.912027
H24_2 H 0.472262 0.37586 0.994594
H25_2 H 0.439766 0.4242 0.919462
H9_2 H 0.628391 0.413626 0.980075
H14_2 H 0.468936 0.378066 0.994767
H15_2 H 0.441839 0.423975 0.916055
H16_2 H 0.520523 0.370631 0.915262
H23_2 H 0.587973 0.48073 0.872613
H24_3 H 0.505406 0.527738 0.87586
H25_3 H 0.580538 0.560234 0.9242
H8_3 H 0.440778 0.42411 0.917742
H9_3 H 0.519925 0.371609 0.913626
H10_3 H 0.470595 0.376954 0.994715
H14_3 H 0.505233 0.531064 0.878066
H15_3 H 0.583945 0.558161 0.923975
H16_3 H 0.584738 0.479477 0.870631
H23_3 H 0.627387 0.412027 0.98073
C6_2 C 0.0126(12) 0.4874(12) 0.5126(12)
C8_2 C 0.0124(11) 0.5937(11) 0.4474(11)
H11_2 H 0.0594002 0.470417 0.482427
H12_2 H 0.0295832 0.517573 0.5594
H24_4 H 0.0277378 0.62414 0.494594
H25_4 H 0.0602344 0.5758 0.419462
H14_4 H 0.0310637 0.621934 0.494767
H15_4 H 0.0581615 0.576025 0.416055
H8_4 H 0.059222 0.57589 0.417742
H10_4 H 0.029405 0.623046 0.494715
C5_2 C 0.9474(11) 0.4876(11) 0.4063(11)
N2_2 N 0.9694(6) 0.5306(6) 0.4694(6)
C7_2 C 0.9063(11) 0.5526(11) 0.5124(11)
H8_5 H 0.917742 0.440778 0.42411
H9_4 H 0.913626 0.519925 0.371609
H10_5 H 0.994715 0.470595 0.376954
H13_2 H 0.982427 0.4406 0.529583
H14_5 H 0.878066 0.505233 0.531064
H15_5 H 0.923975 0.583945 0.558161
H16_4 H 0.870631 0.584738 0.479477
H23_4 H 0.98073 0.627387 0.412027
H8_6 H 0.92411 0.582258 0.559222
H9_5 H 0.871609 0.586374 0.480075
H10_6 H 0.876954 0.505285 0.529405
H16_5 H 0.979477 0.629369 0.415262
H23_5 H 0.912027 0.51927 0.372613
H24_5 H 0.994594 0.472262 0.37586
H25_5 H 0.919462 0.439766 0.4242
H9_6 H 0.980075 0.628391 0.413626
H14_6 H 0.994767 0.468936 0.378066
H15_6 H 0.916055 0.441839 0.423975
H16_6 H 0.915262 0.520523 0.370631
H23_6 H 0.872613 0.587973 0.48073
H24_6 H 0.87586 0.505406 0.527738
H25_6 H 0.9242 0.580538 0.560234
C5_3 C 0.4474(11) 0.0124(11) 0.5937(11)
C6_3 C 0.5126(12) 0.0126(12) 0.4874(12)
H8_7 H 0.417742 0.059222 0.57589
H10_7 H 0.494715 0.029405 0.623046
H11_3 H 0.5594 0.0295832 0.517573
H13_3 H 0.482427 0.0594002 0.470417
H24_7 H 0.494594 0.0277378 0.62414
H25_7 H 0.419462 0.0602344 0.5758
H14_7 H 0.494767 0.0310637 0.621934
H15_7 H 0.416055 0.0581615 0.576025
N2_3 N 0.4694(6) 0.9694(6) 0.5306(6)
C7_3 C 0.4063(11) 0.9474(11) 0.4876(11)
C8_3 C 0.5124(11) 0.9063(11) 0.5526(11)
H9_7 H 0.413626 0.980075 0.628391
H12_3 H 0.529583 0.982427 0.4406
H14_8 H 0.378066 0.994767 0.468936
H15_8 H 0.423975 0.916055 0.441839
H16_7 H 0.370631 0.915262 0.520523
H23_7 H 0.48073 0.872613 0.587973
H24_8 H 0.527738 0.87586 0.505406
H25_8 H 0.560234 0.9242 0.580538
H8_8 H 0.42411 0.917742 0.440778
H9_8 H 0.371609 0.913626 0.519925
H10_8 H 0.376954 0.994715 0.470595
H14_9 H 0.531064 0.878066 0.505233
H15_9 H 0.558161 0.923975 0.583945
H16_8 H 0.479477 0.870631 0.584738
H23_8 H 0.412027 0.98073 0.627387
H8_9 H 0.559222 0.92411 0.582258
H9_9 H 0.480075 0.871609 0.586374
H10_9 H 0.529405 0.876954 0.505285
H16_9 H 0.415262 0.979477 0.629369
H23_9 H 0.372613 0.912027 0.51927
H24_9 H 0.37586 0.994594 0.472262
H25_9 H 0.4242 0.919462 0.439766
N2_4 N 0.0306(6) 0.0306(6) 0.0306(6)
H9_10 H 0.0863743 0.0199252 0.128391
H16_10 H 0.129369 0.0847383 0.0205233
H23_10 H 0.0192704 0.127387 0.0879728
H9_11 H 0.128391 0.0863743 0.0199252
H16_11 H 0.0205233 0.129369 0.0847383
H23_11 H 0.0879728 0.0192704 0.127387
H9_12 H 0.0199252 0.128391 0.0863743
H16_12 H 0.0847383 0.0205233 0.129369
H23_12 H 0.127387 0.0879728 0.0192704
C7_4 C 0.0937(11) 0.0526(11) 0.9876(11)
H14_10 H 0.121934 0.00523349 0.968936
H15_10 H 0.0760246 0.0839454 0.941839
H8_10 H 0.0758903 0.0822578 0.940778
H10_10 H 0.123046 0.00528509 0.970595
H24_10 H 0.12414 0.00540648 0.972262
H25_10 H 0.0758001 0.080538 0.939766
C5_4 C 0.0526(11) 0.9876(11) 0.0937(11)
H8_11 H 0.0822578 0.940778 0.0758903
H10_11 H 0.00528509 0.970595 0.123046
H24_11 H 0.00540648 0.972262 0.12414
H25_11 H 0.080538 0.939766 0.0758001
H14_11 H 0.00523349 0.968936 0.121934
H15_11 H 0.0839454 0.941839 0.0760246
H13_4 H 0.0175725 0.9406 0.970417
C8_4 C 0.9876(11) 0.0937(11) 0.0526(11)
H24_12 H 0.972262 0.12414 0.00540648
H25_12 H 0.939766 0.0758001 0.080538
H14_12 H 0.968936 0.121934 0.00523349
H15_12 H 0.941839 0.0760246 0.0839454
H8_12 H 0.940778 0.0758903 0.0822578
H10_12 H 0.970595 0.123046 0.00528509
H12_4 H 0.970417 0.0175725 0.9406
H11_4 H 0.9406 0.970417 0.0175725
C6_4 C 0.9874(12) 0.9874(12) 0.9874(12)
O1 O 0.1972(6) 0.4865(6) 0.1495(4)
O4 O 0.0915(5) 0.4538(5) 0.1237(5)
C10 C 0.1724(6) 0.4677(6) 0.0302(6)
C17 C 0.1530(7) 0.4681(6) 0.1041(6)
S2 S 0.25855(19) 0.48416(19) 0.00318(15)
In2 In 0.12838(4) 0.47915(4) 0.24499(4)
In1 In 0.37162(4) 0.52085(4) 0.74499(4)
O2 O 0.6557(5) 0.1367(4) 0.7392(5)
O3 O 0.4709(5) 0.4617(4) 0.7466(6)
O5 O 0.3890(6) 0.3880(6) 0.7275(7)
O6 O 0.5435(5) 0.1085(5) 0.7254(5)
O7 O 0.2691(5) 0.4900(5) 0.7949(4)
O8 O 0.3557(5) 0.5018(6) 0.8733(5)
C9 C 0.5696(7) 0.2315(6) 0.7228(6)
C11 C 0.5778(7) 0.3517(7) 0.7273(7)
H1 H 0.6003 0.3960 0.7288
C12 C 0.2395(7) 0.4794(7) 0.9153(6)
C13 C 0.5057(7) 0.3436(6) 0.7298(6)
C14 C 0.1288(9) 0.4560(8) 0.9706(6)
H2 H 0.0804 0.4450 0.9734
C15 C 0.2964(10) 0.4927(7) 0.8586(8)
C16 C 0.4501(9) 0.3998(7) 0.7339(7)
C18 C 0.1673(7) 0.4628(8) 0.9049(7)
H3 H 0.1466 0.4568 0.8601
C19 C 0.6150(7) 0.2871(6) 0.7221(7)
H4 H 0.6644 0.2832 0.7188
C20 C 0.5914(8) 0.1534(6) 0.7288(6)
S1 S 0.48347(17) 0.25530(17) 0.72355(18)
In3 In 0.62838(4) 0.02085(4) 0.75501(4)
O9 O 0.3028(6) 0.5135(6) 0.6495(4)
O10 O 0.3443(5) 0.6367(4) 0.7608(5)
O11 O 0.4085(5) 0.5462(5) 0.6237(5)
O12 O 0.4565(5) 0.6085(5) 0.7746(5)
O3_2 O 0.0291(5) 0.5383(4) 0.2466(6)
O5_2 O 0.1110(6) 0.6120(6) 0.2275(7)
O7_2 O 0.2309(5) 0.5100(5) 0.2949(4)
O8_2 O 0.1443(5) 0.4982(6) 0.3733(5)
C10_2 C 0.3276(6) 0.5323(6) 0.5302(6)
C12_2 C 0.2605(7) 0.5206(7) 0.4153(6)
C14_2 C 0.3712(9) 0.5440(8) 0.4706(6)
H2_2 H 0.4196 0.5550 0.4734
C15_2 C 0.2036(10) 0.5073(7) 0.3586(8)
C16_2 C 0.0499(9) 0.6002(7) 0.2339(7)
C17_2 C 0.3470(7) 0.5319(6) 0.6041(6)
C18_2 C 0.3327(7) 0.5372(8) 0.4049(7)
H3_2 H 0.3534 0.5432 0.3601
S1_2 S 0.01653(17) 0.74470(17) 0.22355(18)
S2_2 S 0.24145(19) 0.51584(19) 0.50318(15)
O10_2 O 0.1557(5) 0.3633(4) 0.2608(5)
O12_2 O 0.0435(5) 0.3915(5) 0.2746(5)
O2_2 O 0.8443(5) 0.8633(4) 0.2392(5)
O6_2 O 0.9565(5) 0.8915(5) 0.2254(5)
C9_2 C 0.9304(7) 0.7685(6) 0.2228(6)
C11_2 C 0.9222(7) 0.6483(7) 0.2273(7)
H1_2 H 0.8997 0.6040 0.2288
C13_2 C 0.9943(7) 0.6564(6) 0.2298(6)
C19_2 C 0.8850(7) 0.7129(6) 0.2221(7)
H4_2 H 0.8356 0.7168 0.2188
C20_2 C 0.9086(8) 0.8466(6) 0.2288(6)
In3_2 In 0.87162(4) 0.97915(4) 0.25501(4)
O8_3 O 0.6443(5) 0.0018(6) 0.6267(5)
O9_2 O 0.6972(6) 0.0135(6) 0.8505(4)
O11_2 O 0.5915(5) 0.0462(5) 0.8763(5)
O1_2 O 0.8028(6) 0.9865(6) 0.3505(4)
O3_3 O 0.5291(5) 0.9617(4) 0.7534(6)
O4_2 O 0.9085(5) 0.9538(5) 0.3763(5)
O5_3 O 0.6110(6) 0.8880(6) 0.7725(7)
O7_3 O 0.7309(5) 0.9900(5) 0.7051(4)
C9_3 C 0.4304(7) 0.7315(6) 0.7772(6)
C10_3 C 0.8276(6) 0.9677(6) 0.4698(6)
C11_3 C 0.4222(7) 0.8517(7) 0.7727(7)
H1_3 H 0.3997 0.8960 0.7712
C12_3 C 0.7605(7) 0.9794(7) 0.5847(6)
C13_3 C 0.4943(7) 0.8436(6) 0.7702(6)
C14_3 C 0.8712(9) 0.9560(8) 0.5294(6)
H2_3 H 0.9196 0.9450 0.5266
C15_3 C 0.7036(10) 0.9927(7) 0.6414(8)
C16_3 C 0.5499(9) 0.8998(7) 0.7661(7)
C17_3 C 0.8470(7) 0.9681(6) 0.3959(6)
C18_3 C 0.8327(7) 0.9628(8) 0.5951(7)
H3_3 H 0.8534 0.9568 0.6399
C19_3 C 0.3850(7) 0.7871(6) 0.7779(7)
H4_3 H 0.3356 0.7832 0.7812
C20_3 C 0.4086(8) 0.6534(6) 0.7712(6)
S1_3 S 0.51653(17) 0.75530(17) 0.77645(18)
S2_3 S 0.74145(19) 0.98416(19) 0.49682(15)
C9_4 C 0.0696(7) 0.2685(6) 0.2772(6)
C11_4 C 0.0778(7) 0.1483(7) 0.2727(7)
H1_4 H 0.1003 0.1040 0.2712
C13_4 C 0.0057(7) 0.1564(6) 0.2702(6)
C19_4 C 0.1150(7) 0.2129(6) 0.2779(7)
H4_4 H 0.1644 0.2168 0.2812
C20_4 C 0.0914(8) 0.3466(6) 0.2712(6)
C10_4 C 0.6724(6) 0.0323(6) 0.9698(6)
C17_4 C 0.6530(7) 0.0319(6) 0.8959(6)
S2_4 S 0.75855(19) 0.01584(19) 0.99682(15)
O8_4 O 0.8557(5) 0.9982(6) 0.1267(5)
O3_4 O 0.9709(5) 0.0383(4) 0.2534(6)
O5_4 O 0.8890(6) 0.1120(6) 0.2725(7)
O7_4 O 0.7691(5) 0.0100(5) 0.2051(4)
C12_4 C 0.7395(7) 0.0206(7) 0.0847(6)
C14_4 C 0.6288(9) 0.0440(8) 0.0294(6)
H2_4 H 0.5804 0.0550 0.0266
C15_4 C 0.7964(10) 0.0073(7) 0.1414(8)
C16_4 C 0.9501(9) 0.1002(7) 0.2661(7)
C18_4 C 0.6673(7) 0.0372(8) 0.0951(7)
H3_4 H 0.6466 0.0432 0.1399
S1_4 S 0.98347(17) 0.24470(17) 0.27645(18)
O1_3 O 0.1495(4) 0.1972(6) 0.4865(6)
O4_3 O 0.1237(5) 0.0915(5) 0.4538(5)
C10_5 C 0.0302(6) 0.1724(6) 0.4677(6)
C17_5 C 0.1041(6) 0.1530(7) 0.4681(6)
S2_5 S 0.00318(15) 0.25855(19) 0.48416(19)
In2_2 In 0.24499(4) 0.12838(4) 0.47915(4)
In1_2 In 0.74499(4) 0.37162(4) 0.52085(4)
O2_3 O 0.7392(5) 0.6557(5) 0.1367(4)
O3_5 O 0.7466(6) 0.4709(5) 0.4617(4)
O5_5 O 0.7275(7) 0.3890(6) 0.3880(6)
O6_3 O 0.7254(5) 0.5435(5) 0.1085(5)
O7_5 O 0.7949(4) 0.2691(5) 0.4900(5)
O8_5 O 0.8733(5) 0.3557(5) 0.5018(6)
C9_5 C 0.7228(6) 0.5696(7) 0.2315(6)
C11_5 C 0.7273(7) 0.5778(7) 0.3517(7)
H1_5 H 0.7288 0.6003 0.3960
C12_5 C 0.9153(6) 0.2395(7) 0.4794(7)
C13_5 C 0.7298(6) 0.5057(7) 0.3436(6)
C14_5 C 0.9706(6) 0.1288(9) 0.4560(8)
H2_5 H 0.9734 0.0804 0.4450
C15_5 C 0.8586(8) 0.2964(10) 0.4927(7)
C16_5 C 0.7339(7) 0.4501(9) 0.3998(7)
C18_5 C 0.9049(7) 0.1673(7) 0.4628(8)
H3_5 H 0.8601 0.1466 0.4568
C19_5 C 0.7221(7) 0.6150(7) 0.2871(6)
H4_5 H 0.7188 0.6644 0.2832
C20_5 C 0.7288(6) 0.5914(8) 0.1534(6)
S1_5 S 0.72355(18) 0.48347(17) 0.25530(17)
In3_3 In 0.75501(4) 0.62838(4) 0.02085(4)
O9_3 O 0.6495(4) 0.3028(6) 0.5135(6)
O10_3 O 0.7608(5) 0.3443(5) 0.6367(4)
O11_3 O 0.6237(5) 0.4085(5) 0.5462(5)
O12_3 O 0.7746(5) 0.4565(5) 0.6085(5)
O3_6 O 0.2466(6) 0.0291(5) 0.5383(4)
O5_6 O 0.2275(7) 0.1110(6) 0.6120(6)
O7_6 O 0.2949(4) 0.2309(5) 0.5100(5)
O8_6 O 0.3733(5) 0.1443(5) 0.4982(6)
C10_6 C 0.5302(6) 0.3276(6) 0.5323(6)
C12_6 C 0.4153(6) 0.2605(7) 0.5206(7)
C14_6 C 0.4706(6) 0.3712(9) 0.5440(8)
H2_6 H 0.4734 0.4196 0.5550
C15_6 C 0.3586(8) 0.2036(10) 0.5073(7)
C16_6 C 0.2339(7) 0.0499(9) 0.6002(7)
C17_6 C 0.6041(6) 0.3470(7) 0.5319(6)
C18_6 C 0.4049(7) 0.3327(7) 0.5372(8)
H3_6 H 0.3601 0.3534 0.5432
S1_6 S 0.22355(18) 0.01653(17) 0.74470(17)
S2_6 S 0.50318(15) 0.24145(19) 0.51584(19)
O10_4 O 0.2608(5) 0.1557(5) 0.3633(4)
O12_4 O 0.2746(5) 0.0435(5) 0.3915(5)
O2_4 O 0.2392(5) 0.8443(5) 0.8633(4)
O6_4 O 0.2254(5) 0.9565(5) 0.8915(5)
C9_6 C 0.2228(6) 0.9304(7) 0.7685(6)
C11_6 C 0.2273(7) 0.9222(7) 0.6483(7)
H1_6 H 0.2288 0.8997 0.6040
C13_6 C 0.2298(6) 0.9943(7) 0.6564(6)
C19_6 C 0.2221(7) 0.8850(7) 0.7129(6)
H4_6 H 0.2188 0.8356 0.7168
C20_6 C 0.2288(6) 0.9086(8) 0.8466(6)
In3_4 In 0.25501(4) 0.87162(4) 0.97915(4)
O8_7 O 0.6267(5) 0.6443(5) 0.0018(6)
O9_4 O 0.8505(4) 0.6972(6) 0.0135(6)
O11_4 O 0.8763(5) 0.5915(5) 0.0462(5)
O1_4 O 0.3505(4) 0.8028(6) 0.9865(6)
O3_7 O 0.7534(6) 0.5291(5) 0.9617(4)
O4_4 O 0.3763(5) 0.9085(5) 0.9538(5)
O5_7 O 0.7725(7) 0.6110(6) 0.8880(6)
O7_7 O 0.7051(4) 0.7309(5) 0.9900(5)
C9_7 C 0.7772(6) 0.4304(7) 0.7315(6)
C10_7 C 0.4698(6) 0.8276(6) 0.9677(6)
C11_7 C 0.7727(7) 0.4222(7) 0.8517(7)
H1_7 H 0.7712 0.3997 0.8960
C12_7 C 0.5847(6) 0.7605(7) 0.9794(7)
C13_7 C 0.7702(6) 0.4943(7) 0.8436(6)
C14_7 C 0.5294(6) 0.8712(9) 0.9560(8)
H2_7 H 0.5266 0.9196 0.9450
C15_7 C 0.6414(8) 0.7036(10) 0.9927(7)
C16_7 C 0.7661(7) 0.5499(9) 0.8998(7)
C17_7 C 0.3959(6) 0.8470(7) 0.9681(6)
C18_7 C 0.5951(7) 0.8327(7) 0.9628(8)
H3_7 H 0.6399 0.8534 0.9568
C19_7 C 0.7779(7) 0.3850(7) 0.7871(6)
H4_7 H 0.7812 0.3356 0.7832
C20_7 C 0.7712(6) 0.4086(8) 0.6534(6)
S1_7 S 0.77645(18) 0.51653(17) 0.75530(17)
S2_7 S 0.49682(15) 0.74145(19) 0.98416(19)
C9_8 C 0.2772(6) 0.0696(7) 0.2685(6)
C11_8 C 0.2727(7) 0.0778(7) 0.1483(7)
H1_8 H 0.2712 0.1003 0.1040
C13_8 C 0.2702(6) 0.0057(7) 0.1564(6)
C19_8 C 0.2779(7) 0.1150(7) 0.2129(6)
H4_8 H 0.2812 0.1644 0.2168
C20_8 C 0.2712(6) 0.0914(8) 0.3466(6)
O8_8 O 0.1267(5) 0.8557(5) 0.9982(6)
C10_8 C 0.9698(6) 0.6724(6) 0.0323(6)
C17_8 C 0.8959(6) 0.6530(7) 0.0319(6)
S2_8 S 0.99682(15) 0.75855(19) 0.01584(19)
O3_8 O 0.2534(6) 0.9709(5) 0.0383(4)
O5_8 O 0.2725(7) 0.8890(6) 0.1120(6)
O7_8 O 0.2051(4) 0.7691(5) 0.0100(5)
C12_8 C 0.0847(6) 0.7395(7) 0.0206(7)
C14_8 C 0.0294(6) 0.6288(9) 0.0440(8)
H2_8 H 0.0266 0.5804 0.0550
C15_8 C 0.1414(8) 0.7964(10) 0.0073(7)
C16_8 C 0.2661(7) 0.9501(9) 0.1002(7)
C18_8 C 0.0951(7) 0.6673(7) 0.0372(8)
H3_8 H 0.1399 0.6466 0.0432
S1_8 S 0.27645(18) 0.98347(17) 0.24470(17)
O1_5 O 0.4865(6) 0.1495(4) 0.1972(6)
O4_5 O 0.4538(5) 0.1237(5) 0.0915(5)
C10_9 C 0.4677(6) 0.0302(6) 0.1724(6)
C17_9 C 0.4681(6) 0.1041(6) 0.1530(7)
S2_9 S 0.48416(19) 0.00318(15) 0.25855(19)
In2_3 In 0.47915(4) 0.24499(4) 0.12838(4)
In1_3 In 0.52085(4) 0.74499(4) 0.37162(4)
O2_5 O 0.1367(4) 0.7392(5) 0.6557(5)
O3_9 O 0.4617(4) 0.7466(6) 0.4709(5)
O5_9 O 0.3880(6) 0.7275(7) 0.3890(6)
O6_5 O 0.1085(5) 0.7254(5) 0.5435(5)
O7_9 O 0.4900(5) 0.7949(4) 0.2691(5)
O8_9 O 0.5018(6) 0.8733(5) 0.3557(5)
C9_9 C 0.2315(6) 0.7228(6) 0.5696(7)
C11_9 C 0.3517(7) 0.7273(7) 0.5778(7)
H1_9 H 0.3960 0.7288 0.6003
C12_9 C 0.4794(7) 0.9153(6) 0.2395(7)
C13_9 C 0.3436(6) 0.7298(6) 0.5057(7)
C14_9 C 0.4560(8) 0.9706(6) 0.1288(9)
H2_9 H 0.4450 0.9734 0.0804
C15_9 C 0.4927(7) 0.8586(8) 0.2964(10)
C16_9 C 0.3998(7) 0.7339(7) 0.4501(9)
C18_9 C 0.4628(8) 0.9049(7) 0.1673(7)
H3_9 H 0.4568 0.8601 0.1466
C19_9 C 0.2871(6) 0.7221(7) 0.6150(7)
H4_9 H 0.2832 0.7188 0.6644
C20_9 C 0.1534(6) 0.7288(6) 0.5914(8)
S1_9 S 0.25530(17) 0.72355(18) 0.48347(17)
In3_5 In 0.02085(4) 0.75501(4) 0.62838(4)
O9_5 O 0.5135(6) 0.6495(4) 0.3028(6)
O10_5 O 0.6367(4) 0.7608(5) 0.3443(5)
O11_5 O 0.5462(5) 0.6237(5) 0.4085(5)
O12_5 O 0.6085(5) 0.7746(5) 0.4565(5)
O3_10 O 0.5383(4) 0.2466(6) 0.0291(5)
O5_10 O 0.6120(6) 0.2275(7) 0.1110(6)
O7_10 O 0.5100(5) 0.2949(4) 0.2309(5)
O8_10 O 0.4982(6) 0.3733(5) 0.1443(5)
C10_10 C 0.5323(6) 0.5302(6) 0.3276(6)
C12_10 C 0.5206(7) 0.4153(6) 0.2605(7)
C14_10 C 0.5440(8) 0.4706(6) 0.3712(9)
H2_10 H 0.5550 0.4734 0.4196
C15_10 C 0.5073(7) 0.3586(8) 0.2036(10)
C16_10 C 0.6002(7) 0.2339(7) 0.0499(9)
C17_10 C 0.5319(6) 0.6041(6) 0.3470(7)
C18_10 C 0.5372(8) 0.4049(7) 0.3327(7)
H3_10 H 0.5432 0.3601 0.3534
S1_10 S 0.74470(17) 0.22355(18) 0.01653(17)
S2_10 S 0.51584(19) 0.50318(15) 0.24145(19)
O10_6 O 0.3633(4) 0.2608(5) 0.1557(5)
O12_6 O 0.3915(5) 0.2746(5) 0.0435(5)
O2_6 O 0.8633(4) 0.2392(5) 0.8443(5)
O6_6 O 0.8915(5) 0.2254(5) 0.9565(5)
C9_10 C 0.7685(6) 0.2228(6) 0.9304(7)
C11_10 C 0.6483(7) 0.2273(7) 0.9222(7)
H1_10 H 0.6040 0.2288 0.8997
C13_10 C 0.6564(6) 0.2298(6) 0.9943(7)
C19_10 C 0.7129(6) 0.2221(7) 0.8850(7)
H4_10 H 0.7168 0.2188 0.8356
C20_10 C 0.8466(6) 0.2288(6) 0.9086(8)
In3_6 In 0.97915(4) 0.25501(4) 0.87162(4)
O8_11 O 0.0018(6) 0.6267(5) 0.6443(5)
O9_6 O 0.0135(6) 0.8505(4) 0.6972(6)
O11_6 O 0.0462(5) 0.8763(5) 0.5915(5)
O1_6 O 0.9865(6) 0.3505(4) 0.8028(6)
O3_11 O 0.9617(4) 0.7534(6) 0.5291(5)
O4_6 O 0.9538(5) 0.3763(5) 0.9085(5)
O5_11 O 0.8880(6) 0.7725(7) 0.6110(6)
O7_11 O 0.9900(5) 0.7051(4) 0.7309(5)
C9_11 C 0.7315(6) 0.7772(6) 0.4304(7)
C10_11 C 0.9677(6) 0.4698(6) 0.8276(6)
C11_11 C 0.8517(7) 0.7727(7) 0.4222(7)
H1_11 H 0.8960 0.7712 0.3997
C12_11 C 0.9794(7) 0.5847(6) 0.7605(7)
C13_11 C 0.8436(6) 0.7702(6) 0.4943(7)
C14_11 C 0.9560(8) 0.5294(6) 0.8712(9)
H2_11 H 0.9450 0.5266 0.9196
C15_11 C 0.9927(7) 0.6414(8) 0.7036(10)
C16_11 C 0.8998(7) 0.7661(7) 0.5499(9)
C17_11 C 0.9681(6) 0.3959(6) 0.8470(7)
C18_11 C 0.9628(8) 0.5951(7) 0.8327(7)
H3_11 H 0.9568 0.6399 0.8534
C19_11 C 0.7871(6) 0.7779(7) 0.3850(7)
H4_11 H 0.7832 0.7812 0.3356
C20_11 C 0.6534(6) 0.7712(6) 0.4086(8)
S1_11 S 0.75530(17) 0.77645(18) 0.51653(17)
S2_11 S 0.98416(19) 0.49682(15) 0.74145(19)
C9_12 C 0.2685(6) 0.2772(6) 0.0696(7)
C11_12 C 0.1483(7) 0.2727(7) 0.0778(7)
H1_12 H 0.1040 0.2712 0.1003
C13_12 C 0.1564(6) 0.2702(6) 0.0057(7)
C19_12 C 0.2129(6) 0.2779(7) 0.1150(7)
H4_12 H 0.2168 0.2812 0.1644
C20_12 C 0.3466(6) 0.2712(6) 0.0914(8)
C10_12 C 0.0323(6) 0.9698(6) 0.6724(6)
C17_12 C 0.0319(6) 0.8959(6) 0.6530(7)
S2_12 S 0.01584(19) 0.99682(15) 0.75855(19)
O8_12 O 0.9982(6) 0.1267(5) 0.8557(5)
O3_12 O 0.0383(4) 0.2534(6) 0.9709(5)
O5_12 O 0.1120(6) 0.2725(7) 0.8890(6)
O7_12 O 0.0100(5) 0.2051(4) 0.7691(5)
C12_12 C 0.0206(7) 0.0847(6) 0.7395(7)
C14_12 C 0.0440(8) 0.0294(6) 0.6288(9)
H2_12 H 0.0550 0.0266 0.5804
C15_12 C 0.0073(7) 0.1414(8) 0.7964(10)
C16_12 C 0.1002(7) 0.2661(7) 0.9501(9)
C18_12 C 0.0372(8) 0.0951(7) 0.6673(7)
H3_12 H 0.0432 0.1399 0.6466
S1_12 S 0.24470(17) 0.27645(18) 0.98347(17)
loop_
_geom_bond_atom_site_label_1
_geom_bond_atom_site_label_2
_geom_bond_site_symmetry_1
_geom_bond_site_symmetry_2
C1 N1 1_555 1_555
C2 N1 1_555 1_555
N1 C3 1_555 1_555
C4 N1 1_555 1_555
C4 H5 1_555 1_555
C4 H6 1_555 1_555
C4 H7 1_555 1_555
C2 H17 1_555 1_555
C2 H18 1_555 1_555
C2 H19 1_555 1_555
C1 H20 1_555 1_555
C1 H21 1_555 1_555
C1 H22 1_555 1_555
C3 H26 1_555 1_555
C3 H27 1_555 1_555
C3 H28 1_555 1_555
C1 H5_2 1_555 1_555
C1 H6_2 1_555 1_555
C1 H7_2 1_555 1_555
C3 H20_2 1_555 1_555
C3 H21_2 1_555 1_555
C3 H22_2 1_555 1_555
C4 H26_2 1_555 1_555
C4 H27_2 1_555 1_555
C4 H28_2 1_555 1_555
C3 H5_3 1_555 1_555
C3 H6_3 1_555 1_555
C3 H7_3 1_555 1_555
C4 H20_3 1_555 1_555
C4 H21_3 1_555 1_555
C4 H22_3 1_555 1_555
C1 H26_3 1_555 1_555
C1 H27_3 1_555 1_555
C1 H28_3 1_555 1_555
C1_2 N1_2 1_555 1_555
C2_2 N1_2 1_555 1_555
N1_2 C3_2 1_555 1_555
C4_2 N1_2 1_555 1_555
C4_2 H5_4 1_555 1_555
C4_2 H6_4 1_555 1_555
C4_2 H7_4 1_555 1_555
C2_2 H17_2 1_555 1_555
C2_2 H18_2 1_555 1_555
C2_2 H19_2 1_555 1_555
C1_2 H20_4 1_555 1_555
C1_2 H21_4 1_555 1_555
C1_2 H22_4 1_555 1_555
C3_2 H26_4 1_555 1_555
C3_2 H27_4 1_555 1_555
C3_2 H28_4 1_555 1_555
C1_2 H5_5 1_555 1_555
C1_2 H6_5 1_555 1_555
C1_2 H7_5 1_555 1_555
C3_2 H20_5 1_555 1_555
C3_2 H21_5 1_555 1_555
C3_2 H22_5 1_555 1_555
C4_2 H26_5 1_555 1_555
C4_2 H27_5 1_555 1_555
C4_2 H28_5 1_555 1_555
C3_2 H5_6 1_555 1_555
C3_2 H6_6 1_555 1_555
C3_2 H7_6 1_555 1_555
C4_2 H20_6 1_555 1_555
C4_2 H21_6 1_555 1_555
C4_2 H22_6 1_555 1_555
C1_2 H26_6 1_555 1_555
C1_2 H27_6 1_555 1_555
C1_2 H28_6 1_555 1_555
C1_3 N1_3 1_555 1_555
C2_3 N1_3 1_555 1_555
N1_3 C3_3 1_555 1_555
C4_3 N1_3 1_555 1_555
C4_3 H5_7 1_555 1_555
C4_3 H6_7 1_555 1_555
C4_3 H7_7 1_555 1_555
C2_3 H17_3 1_555 1_555
C2_3 H18_3 1_555 1_555
C2_3 H19_3 1_555 1_555
C1_3 H20_7 1_555 1_555
C1_3 H21_7 1_555 1_555
C1_3 H22_7 1_555 1_555
C3_3 H26_7 1_555 1_555
C3_3 H27_7 1_555 1_555
C3_3 H28_7 1_555 1_555
C1_3 H5_8 1_555 1_555
C1_3 H6_8 1_555 1_555
C1_3 H7_8 1_555 1_555
C3_3 H20_8 1_555 1_555
C3_3 H21_8 1_555 1_555
C3_3 H22_8 1_555 1_555
C4_3 H26_8 1_555 1_555
C4_3 H27_8 1_555 1_555
C4_3 H28_8 1_555 1_555
C3_3 H5_9 1_555 1_555
C3_3 H6_9 1_555 1_555
C3_3 H7_9 1_555 1_555
C4_3 H20_9 1_555 1_555
C4_3 H21_9 1_555 1_555
C4_3 H22_9 1_555 1_555
C1_3 H26_9 1_555 1_555
C1_3 H27_9 1_555 1_555
C1_3 H28_9 1_555 1_555
C1_4 N1_4 1_555 1_555
C2_4 N1_4 1_555 1_555
N1_4 C3_4 1_555 1_555
C4_4 N1_4 1_555 1_555
C4_4 H5_10 1_555 1_555
C4_4 H6_10 1_555 1_555
C4_4 H7_10 1_555 1_555
C2_4 H17_4 1_555 1_555
C2_4 H18_4 1_555 1_555
C2_4 H19_4 1_555 1_555
C1_4 H20_10 1_555 1_555
C1_4 H21_10 1_555 1_555
C1_4 H22_10 1_555 1_555
C3_4 H26_10 1_555 1_555
C3_4 H27_10 1_555 1_555
C3_4 H28_10 1_555 1_555
C1_4 H5_11 1_555 1_555
C1_4 H6_11 1_555 1_555
C1_4 H7_11 1_555 1_555
C3_4 H20_11 1_555 1_555
C3_4 H21_11 1_555 1_555
C3_4 H22_11 1_555 1_555
C4_4 H26_11 1_555 1_555
C4_4 H27_11 1_555 1_555
C4_4 H28_11 1_555 1_555
C3_4 H5_12 1_555 1_555
C3_4 H6_12 1_555 1_555
C3_4 H7_12 1_555 1_555
C4_4 H20_12 1_555 1_555
C4_4 H21_12 1_555 1_555
C4_4 H22_12 1_555 1_555
C1_4 H26_12 1_555 1_555
C1_4 H27_12 1_555 1_555
C1_4 H28_12 1_555 1_555
C6 H12 1_555 1_555
C6 H13 1_555 1_555
C7 H14 1_555 1_555
C7 H15 1_555 1_555
C7 H8 1_555 1_555
C7 H10 1_555 1_555
C7 H24 1_555 1_555
C7 H25 1_555 1_555
C5 N2 1_555 1_555
C8 N2 1_555 1_555
C5 H8_2 1_555 1_555
C5 H9 1_555 1_555
C5 H10_2 1_555 1_555
C8 H23 1_555 1_555
C8 H24_2 1_555 1_555
C8 H25_2 1_555 1_555
C8 H14_2 1_555 1_555
C8 H15_2 1_555 1_555
C8 H16_2 1_555 1_555
C5 H23_2 1_555 1_555
C5 H24_3 1_555 1_555
C5 H25_3 1_555 1_555
C8 H8_3 1_555 1_555
C8 H9_3 1_555 1_555
C8 H10_3 1_555 1_555
C5 H14_3 1_555 1_555
C5 H15_3 1_555 1_555
C5 H16_3 1_555 1_555
C6_2 H11_2 1_555 1_555
C6_2 H12_2 1_555 1_555
C8_2 H24_4 1_555 1_555
C8_2 H25_4 1_555 1_555
C8_2 H14_4 1_555 1_555
C8_2 H15_4 1_555 1_555
C8_2 H8_4 1_555 1_555
C8_2 H10_4 1_555 1_555
C5_2 N2_2 1_555 1_555
N2_2 C7_2 1_555 1_555
C5_2 H8_5 1_555 1_555
C5_2 H9_4 1_555 1_555
C5_2 H10_5 1_555 1_555
C7_2 H14_5 1_555 1_555
C7_2 H15_5 1_555 1_555
C7_2 H16_4 1_555 1_555
C7_2 H8_6 1_555 1_555
C7_2 H9_5 1_555 1_555
C7_2 H10_6 1_555 1_555
C5_2 H23_5 1_555 1_555
C5_2 H24_5 1_555 1_555
C5_2 H25_5 1_555 1_555
C5_2 H14_6 1_555 1_555
C5_2 H15_6 1_555 1_555
C5_2 H16_6 1_555 1_555
C7_2 H23_6 1_555 1_555
C7_2 H24_6 1_555 1_555
C7_2 H25_6 1_555 1_555
C5_3 H8_7 1_555 1_555
C5_3 H10_7 1_555 1_555
C6_3 H11_3 1_555 1_555
C6_3 H13_3 1_555 1_555
C5_3 H24_7 1_555 1_555
C5_3 H25_7 1_555 1_555
C5_3 H14_7 1_555 1_555
C5_3 H15_7 1_555 1_555
N2_3 C7_3 1_555 1_555
C8_3 N2_3 1_555 1_555
C7_3 H14_8 1_555 1_555
C7_3 H15_8 1_555 1_555
C7_3 H16_7 1_555 1_555
C8_3 H23_7 1_555 1_555
C8_3 H24_8 1_555 1_555
C8_3 H25_8 1_555 1_555
C7_3 H8_8 1_555 1_555
C7_3 H9_8 1_555 1_555
C7_3 H10_8 1_555 1_555
C8_3 H14_9 1_555 1_555
C8_3 H15_9 1_555 1_555
C8_3 H16_8 1_555 1_555
C8_3 H8_9 1_555 1_555
C8_3 H9_9 1_555 1_555
C8_3 H10_9 1_555 1_555
C7_3 H23_9 1_555 1_555
C7_3 H24_9 1_555 1_555
C7_3 H25_9 1_555 1_555
C7_4 H14_10 1_555 1_555
C7_4 H15_10 1_555 1_555
C7_4 H8_10 1_555 1_555
C7_4 H10_10 1_555 1_555
C7_4 H24_10 1_555 1_555
C7_4 H25_10 1_555 1_555
C5_4 H8_11 1_555 1_555
C5_4 H10_11 1_555 1_555
C5_4 H24_11 1_555 1_555
C5_4 H25_11 1_555 1_555
C5_4 H14_11 1_555 1_555
C5_4 H15_11 1_555 1_555
C8_4 H24_12 1_555 1_555
C8_4 H25_12 1_555 1_555
C8_4 H14_12 1_555 1_555
C8_4 H15_12 1_555 1_555
C8_4 H8_12 1_555 1_555
C8_4 H10_12 1_555 1_555
O1 C17 1_555 1_555
O4 C17 1_555 1_555
C17 C10 1_555 1_555
S2 C10 1_555 1_555
In2 O1 1_555 1_555
O4 In2 1_555 1_555
In1 O3 1_555 1_555
O2 C20 1_555 1_555
O3 C16 1_555 1_555
O5 In1 1_555 1_555
O6 C20 1_555 1_555
O7 In1 1_555 1_555
O8 In1 1_555 1_555
C9 C19 1_555 1_555
C11 H1 1_555 1_555
C12 C15 1_555 1_555
C13 C11 1_555 1_555
C14 H2 1_555 1_555
C15 O7 1_555 1_555
C16 O5 1_555 1_555
C18 C12 1_555 1_555
H3 C18 1_555 1_555
C19 C11 1_555 1_555
H4 C19 1_555 1_555
C20 C9 1_555 1_555
S1 C9 1_555 1_555
In3 O2 1_555 1_555
O9 In1 1_555 1_555
O10 In1 1_555 1_555
O11 In1 1_555 1_555
O12 In1 1_555 1_555
O6 In3 1_555 1_555
O8 C15 1_555 1_555
C13 C16 1_555 1_555
C13 S1 1_555 1_555
C14 C18 1_555 1_555
In2 O3_2 1_555 1_555
O9 C17_2 1_555 1_555
O3_2 C16_2 1_555 1_555
O11 C17_2 1_555 1_555
O5_2 In2 1_555 1_555
O7_2 In2 1_555 1_555
O8_2 In2 1_555 1_555
C10_2 C14_2 1_555 1_555
C12_2 C15_2 1_555 1_555
C14_2 H2_2 1_555 1_555
C15_2 O7_2 1_555 1_555
C16_2 O5_2 1_555 1_555
C17_2 C10_2 1_555 1_555
C18_2 C12_2 1_555 1_555
H3_2 C18_2 1_555 1_555
S2_2 C10_2 1_555 1_555
O10_2 In2 1_555 1_555
O12_2 In2 1_555 1_555
O8_2 C15_2 1_555 1_555
C12_2 S2_2 1_555 1_555
C14_2 C18_2 1_555 1_555
O2_2 C20_2 1_555 1_555
O6_2 C20_2 1_555 1_555
C9_2 C19_2 1_555 1_555
C11_2 H1_2 1_555 1_555
C13_2 C11_2 1_555 1_555
C19_2 C11_2 1_555 1_555
H4_2 C19_2 1_555 1_555
C20_2 C9_2 1_555 1_555
In3_2 O2_2 1_555 1_555
O6_2 In3_2 1_555 1_555
O8_3 In3 1_555 1_555
O9_2 In3 1_555 1_555
O11_2 In3 1_555 1_555
O1_2 C17_3 1_555 1_555
O10 C20_3 1_555 1_555
O3_3 C16_3 1_555 1_555
O4_2 C17_3 1_555 1_555
O12 C20_3 1_555 1_555
C9_3 C19_3 1_555 1_555
C10_3 C14_3 1_555 1_555
C11_3 H1_3 1_555 1_555
C12_3 C15_3 1_555 1_555
C13_3 C11_3 1_555 1_555
C14_3 H2_3 1_555 1_555
C15_3 O7_3 1_555 1_555
C16_3 O5_3 1_555 1_555
C17_3 C10_3 1_555 1_555
C18_3 C12_3 1_555 1_555
H3_3 C18_3 1_555 1_555
C19_3 C11_3 1_555 1_555
H4_3 C19_3 1_555 1_555
C20_3 C9_3 1_555 1_555
S1_3 C9_3 1_555 1_555
S2_3 C10_3 1_555 1_555
In3_2 O1_2 1_555 1_555
O4_2 In3_2 1_555 1_555
C12_3 S2_3 1_555 1_555
C13_3 C16_3 1_555 1_555
C13_3 S1_3 1_555 1_555
C14_3 C18_3 1_555 1_555
O10_2 C20_4 1_555 1_555
O12_2 C20_4 1_555 1_555
C9_4 C19_4 1_555 1_555
C11_4 H1_4 1_555 1_555
C13_4 C11_4 1_555 1_555
C19_4 C11_4 1_555 1_555
H4_4 C19_4 1_555 1_555
C20_4 C9_4 1_555 1_555
O9_2 C17_4 1_555 1_555
O11_2 C17_4 1_555 1_555
C17_4 C10_4 1_555 1_555
S2_4 C10_4 1_555 1_555
O8_4 In3_2 1_555 1_555
O3_4 C16_4 1_555 1_555
C12_4 C15_4 1_555 1_555
C14_4 H2_4 1_555 1_555
C15_4 O7_4 1_555 1_555
C16_4 O5_4 1_555 1_555
C18_4 C12_4 1_555 1_555
H3_4 C18_4 1_555 1_555
C14_4 C18_4 1_555 1_555
O1_3 C17_5 1_555 1_555
O4_3 C17_5 1_555 1_555
C17_5 C10_5 1_555 1_555
S2_5 C10_5 1_555 1_555
In2_2 O1_3 1_555 1_555
O4_3 In2_2 1_555 1_555
In1_2 O3_5 1_555 1_555
O2_3 C20_5 1_555 1_555
O3_5 C16_5 1_555 1_555
O5_5 In1_2 1_555 1_555
O6_3 C20_5 1_555 1_555
O7_5 In1_2 1_555 1_555
O8_5 In1_2 1_555 1_555
C9_5 C19_5 1_555 1_555
C11_5 H1_5 1_555 1_555
C12_5 C15_5 1_555 1_555
C13_5 C11_5 1_555 1_555
C14_5 H2_5 1_555 1_555
C15_5 O7_5 1_555 1_555
C16_5 O5_5 1_555 1_555
C18_5 C12_5 1_555 1_555
H3_5 C18_5 1_555 1_555
C19_5 C11_5 1_555 1_555
H4_5 C19_5 1_555 1_555
C20_5 C9_5 1_555 1_555
S1_5 C9_5 1_555 1_555
In3_3 O2_3 1_555 1_555
O9_3 In1_2 1_555 1_555
O10_3 In1_2 1_555 1_555
O11_3 In1_2 1_555 1_555
O12_3 In1_2 1_555 1_555
O6_3 In3_3 1_555 1_555
O8_5 C15_5 1_555 1_555
C13_5 C16_5 1_555 1_555
C13_5 S1_5 1_555 1_555
C14_5 C18_5 1_555 1_555
In2_2 O3_6 1_555 1_555
O9_3 C17_6 1_555 1_555
O3_6 C16_6 1_555 1_555
O11_3 C17_6 1_555 1_555
O5_6 In2_2 1_555 1_555
O7_6 In2_2 1_555 1_555
O8_6 In2_2 1_555 1_555
C10_6 C14_6 1_555 1_555
C12_6 C15_6 1_555 1_555
C14_6 H2_6 1_555 1_555
C15_6 O7_6 1_555 1_555
C16_6 O5_6 1_555 1_555
C17_6 C10_6 1_555 1_555
C18_6 C12_6 1_555 1_555
H3_6 C18_6 1_555 1_555
S2_6 C10_6 1_555 1_555
O10_4 In2_2 1_555 1_555
O12_4 In2_2 1_555 1_555
O8_6 C15_6 1_555 1_555
C12_6 S2_6 1_555 1_555
C14_6 C18_6 1_555 1_555
O2_4 C20_6 1_555 1_555
O6_4 C20_6 1_555 1_555
C9_6 C19_6 1_555 1_555
C11_6 H1_6 1_555 1_555
C13_6 C11_6 1_555 1_555
C19_6 C11_6 1_555 1_555
H4_6 C19_6 1_555 1_555
C20_6 C9_6 1_555 1_555
In3_4 O2_4 1_555 1_555
O6_4 In3_4 1_555 1_555
O8_7 In3_3 1_555 1_555
O9_4 In3_3 1_555 1_555
O11_4 In3_3 1_555 1_555
O1_4 C17_7 1_555 1_555
O10_3 C20_7 1_555 1_555
O3_7 C16_7 1_555 1_555
O4_4 C17_7 1_555 1_555
O12_3 C20_7 1_555 1_555
C9_7 C19_7 1_555 1_555
C10_7 C14_7 1_555 1_555
C11_7 H1_7 1_555 1_555
C12_7 C15_7 1_555 1_555
C13_7 C11_7 1_555 1_555
C14_7 H2_7 1_555 1_555
C15_7 O7_7 1_555 1_555
C16_7 O5_7 1_555 1_555
C17_7 C10_7 1_555 1_555
C18_7 C12_7 1_555 1_555
H3_7 C18_7 1_555 1_555
C19_7 C11_7 1_555 1_555
H4_7 C19_7 1_555 1_555
C20_7 C9_7 1_555 1_555
S1_7 C9_7 1_555 1_555
S2_7 C10_7 1_555 1_555
In3_4 O1_4 1_555 1_555
O4_4 In3_4 1_555 1_555
C12_7 S2_7 1_555 1_555
C13_7 C16_7 1_555 1_555
C13_7 S1_7 1_555 1_555
C14_7 C18_7 1_555 1_555
O10_4 C20_8 1_555 1_555
O12_4 C20_8 1_555 1_555
C9_8 C19_8 1_555 1_555
C11_8 H1_8 1_555 1_555
C13_8 C11_8 1_555 1_555
C19_8 C11_8 1_555 1_555
H4_8 C19_8 1_555 1_555
C20_8 C9_8 1_555 1_555
O8_8 In3_4 1_555 1_555
O9_4 C17_8 1_555 1_555
O11_4 C17_8 1_555 1_555
C17_8 C10_8 1_555 1_555
S2_8 C10_8 1_555 1_555
O3_8 C16_8 1_555 1_555
C12_8 C15_8 1_555 1_555
C14_8 H2_8 1_555 1_555
C15_8 O7_8 1_555 1_555
C16_8 O5_8 1_555 1_555
C18_8 C12_8 1_555 1_555
H3_8 C18_8 1_555 1_555
C14_8 C18_8 1_555 1_555
O1_5 C17_9 1_555 1_555
O4_5 C17_9 1_555 1_555
C17_9 C10_9 1_555 1_555
S2_9 C10_9 1_555 1_555
In2_3 O1_5 1_555 1_555
O4_5 In2_3 1_555 1_555
In1_3 O3_9 1_555 1_555
O2_5 C20_9 1_555 1_555
O3_9 C16_9 1_555 1_555
O5_9 In1_3 1_555 1_555
O6_5 C20_9 1_555 1_555
O7_9 In1_3 1_555 1_555
O8_9 In1_3 1_555 1_555
C9_9 C19_9 1_555 1_555
C11_9 H1_9 1_555 1_555
C12_9 C15_9 1_555 1_555
C13_9 C11_9 1_555 1_555
C14_9 H2_9 1_555 1_555
C15_9 O7_9 1_555 1_555
C16_9 O5_9 1_555 1_555
C18_9 C12_9 1_555 1_555
H3_9 C18_9 1_555 1_555
C19_9 C11_9 1_555 1_555
H4_9 C19_9 1_555 1_555
C20_9 C9_9 1_555 1_555
S1_9 C9_9 1_555 1_555
In3_5 O2_5 1_555 1_555
O9_5 In1_3 1_555 1_555
O10_5 In1_3 1_555 1_555
O11_5 In1_3 1_555 1_555
O12_5 In1_3 1_555 1_555
O6_5 In3_5 1_555 1_555
O8_9 C15_9 1_555 1_555
C13_9 C16_9 1_555 1_555
C13_9 S1_9 1_555 1_555
C14_9 C18_9 1_555 1_555
In2_3 O3_10 1_555 1_555
O9_5 C17_10 1_555 1_555
O3_10 C16_10 1_555 1_555
O11_5 C17_10 1_555 1_555
O5_10 In2_3 1_555 1_555
O7_10 In2_3 1_555 1_555
O8_10 In2_3 1_555 1_555
C10_10 C14_10 1_555 1_555
C12_10 C15_10 1_555 1_555
C14_10 H2_10 1_555 1_555
C15_10 O7_10 1_555 1_555
C16_10 O5_10 1_555 1_555
C17_10 C10_10 1_555 1_555
C18_10 C12_10 1_555 1_555
H3_10 C18_10 1_555 1_555
S2_10 C10_10 1_555 1_555
O10_6 In2_3 1_555 1_555
O12_6 In2_3 1_555 1_555
O8_10 C15_10 1_555 1_555
C12_10 S2_10 1_555 1_555
C14_10 C18_10 1_555 1_555
O2_6 C20_10 1_555 1_555
O6_6 C20_10 1_555 1_555
C9_10 C19_10 1_555 1_555
C11_10 H1_10 1_555 1_555
C13_10 C11_10 1_555 1_555
C19_10 C11_10 1_555 1_555
H4_10 C19_10 1_555 1_555
C20_10 C9_10 1_555 1_555
In3_6 O2_6 1_555 1_555
O6_6 In3_6 1_555 1_555
O8_11 In3_5 1_555 1_555
O9_6 In3_5 1_555 1_555
O11_6 In3_5 1_555 1_555
O1_6 C17_11 1_555 1_555
O10_5 C20_11 1_555 1_555
O3_11 C16_11 1_555 1_555
O4_6 C17_11 1_555 1_555
O12_5 C20_11 1_555 1_555
C9_11 C19_11 1_555 1_555
C10_11 C14_11 1_555 1_555
C11_11 H1_11 1_555 1_555
C12_11 C15_11 1_555 1_555
C13_11 C11_11 1_555 1_555
C14_11 H2_11 1_555 1_555
C15_11 O7_11 1_555 1_555
C16_11 O5_11 1_555 1_555
C17_11 C10_11 1_555 1_555
C18_11 C12_11 1_555 1_555
H3_11 C18_11 1_555 1_555
C19_11 C11_11 1_555 1_555
H4_11 C19_11 1_555 1_555
C20_11 C9_11 1_555 1_555
S1_11 C9_11 1_555 1_555
S2_11 C10_11 1_555 1_555
In3_6 O1_6 1_555 1_555
O4_6 In3_6 1_555 1_555
C12_11 S2_11 1_555 1_555
C13_11 C16_11 1_555 1_555
C13_11 S1_11 1_555 1_555
C14_11 C18_11 1_555 1_555
O10_6 C20_12 1_555 1_555
O12_6 C20_12 1_555 1_555
C9_12 C19_12 1_555 1_555
C11_12 H1_12 1_555 1_555
C13_12 C11_12 1_555 1_555
C19_12 C11_12 1_555 1_555
H4_12 C19_12 1_555 1_555
C20_12 C9_12 1_555 1_555
O9_6 C17_12 1_555 1_555
O11_6 C17_12 1_555 1_555
C17_12 C10_12 1_555 1_555
S2_12 C10_12 1_555 1_555
O8_12 In3_6 1_555 1_555
O3_12 C16_12 1_555 1_555
C12_12 C15_12 1_555 1_555
C14_12 H2_12 1_555 1_555
C15_12 O7_12 1_555 1_555
C16_12 O5_12 1_555 1_555
C18_12 C12_12 1_555 1_555
H3_12 C18_12 1_555 1_555
C14_12 C18_12 1_555 1_555

#END
