
###############################################################################
#
# This file contains modified crystal structure data generated from the
# MOF subset of the Cambridge Structural Database (CSD) v543 
# hosted by the Cambridge Crystallographic Data Centre (CCDC).
#
# This work is licensed under the Creative Commons
# Attribution-NonCommercial-ShareAlike 4.0 International License.
# To view a copy of this license, visit
# http://creativecommons.org/licenses/by-nc-sa/4.0/
# or send a letter to
# Creative Commons, PO Box 1866, Mountain View, CA 94042, USA.
#
# CIF created using the CSD Python API on 29 September 2022
# The structure has been converted into the P1 space group
# The structure has a 3D framework
# The original CSD entry IFIPEV is in the orthorhombic crystal system
# The framework has been calculated to contain at least 10.0% void space
# The void calculation uses a probe of radius 1.32A, grid spacing 0.4
# The framework is charged, counterions have been retained in the structure
#
###############################################################################

data_IFIPEV
_chemical_formula_moiety         '(C112 H64 In6 O32 4-)n'
_symmetry_cell_setting           triclinic
_symmetry_space_group_name_H-M   'P 1'
_symmetry_Int_Tables_number      1
_space_group_name_Hall           'P 1'
loop_
_symmetry_equiv_pos_site_id
_symmetry_equiv_pos_as_xyz
1 x,y,z
_cell_length_a                   12.6055(8)
_cell_length_b                   21.4194(12)
_cell_length_c                   17.9475(14)
_cell_angle_alpha                90
_cell_angle_beta                 90
_cell_angle_gamma                90
_cell_volume                     4845.87
loop_
_atom_site_label
_atom_site_type_symbol
_atom_site_fract_x
_atom_site_fract_y
_atom_site_fract_z
C1 C 0.1152(4) 0.1294(2) 0.0090(3)
C4 C 0.0210(5) 0.2230(3) 0.0955(3)
H1 H 0.0234 0.3888 0.2492
C6 C 0.0139(5) 0.1230(2) 0.0352(3)
C8 C 0.0274(6) 0.3154(3) 0.1811(4)
H4 H 0.1010 0.3121 0.1806
C11 C 0.1690(5) 0.1831(3) 0.0265(3)
H5 H 0.2379 0.1884 0.0091
C12 C 0.1239(5) 0.2292(3) 0.0687(4)
H6 H 0.1626 0.2650 0.0797
In1 In 0.2500 -0.0000 0.86849(3)
O1 O 0.1090(3) 0.04067(15) 0.93101(18)
C2 C 0.1668(6) 0.0814(3) 0.9618(3)
O3 O 0.2652(3) 0.0804(2) 0.9525(2)
O10 O 0.3802(3) 0.04535(16) 0.8062(2)
O12 O 0.2243(4) 0.0830(2) 0.7819(3)
C15 C 0.3848(4) 0.8706(2) 0.0090(3)
O6 O 0.6198(3) 0.54535(16) 0.3062(2)
C17 C 0.6278(6) 0.6332(3) 0.2246(3)
O8 O 0.7757(4) 0.5830(2) 0.2819(3)
C18 C 0.4790(5) 0.7770(3) 0.0955(3)
C19 C 0.5187(6) 0.6389(3) 0.2223(4)
H9 H 0.4766 0.6112 0.2492
C20 C 0.4861(5) 0.8770(2) 0.0352(3)
H10 H 0.5243 0.9129 0.0240
C21 C 0.5322(5) 0.8314(3) 0.0777(3)
H11 H 0.6011 0.8371 0.0951
C22 C 0.4726(6) 0.6846(3) 0.1811(4)
H12 H 0.3990 0.6879 0.1806
C23 C 0.5320(6) 0.7264(3) 0.1400(3)
C24 C 0.6783(7) 0.5839(3) 0.2737(3)
C25 C 0.3310(5) 0.8169(3) 0.0265(3)
H13 H 0.2621 0.8116 0.0091
C26 C 0.3761(5) 0.7708(3) 0.0687(4)
H14 H 0.3374 0.7350 0.0797
C27 C 0.6404(6) 0.7202(3) 0.1426(4)
H15 H 0.6833 0.7476 0.1161
C28 C 0.6854(6) 0.6739(4) 0.1841(4)
H16 H 0.7589 0.6703 0.1845
In3 In 0.7500 0.5000 0.36849(3)
O2 O 0.8802(3) 0.45465(16) 0.3062(2)
C3 C 0.8722(6) 0.3668(3) 0.2246(3)
O4 O 0.7243(4) 0.4170(2) 0.2819(3)
C5 C 0.9813(6) 0.3611(3) 0.2223(4)
H2 H 0.9757 0.0871 0.0240
C7 C 0.9678(5) 0.1686(3) 0.0777(3)
H3 H 0.8989 0.1629 0.0951
C9 C 0.9680(6) 0.2736(3) 0.1400(3)
C10 C 0.8217(7) 0.4161(3) 0.2737(3)
C13 C 0.8596(6) 0.2798(3) 0.1426(4)
H7 H 0.8167 0.2524 0.1161
C14 C 0.8146(6) 0.3261(4) 0.1841(4)
H8 H 0.7411 0.3297 0.1845
O1_2 O 0.8910(3) 0.54067(15) 0.43101(18)
C1_2 C 0.8848(4) 0.6294(2) 0.5090(3)
C2_2 C 0.8332(6) 0.5814(3) 0.4618(3)
O3_2 O 0.7348(3) 0.5804(2) 0.4525(2)
C4_2 C 0.9790(5) 0.7230(3) 0.5955(3)
H1_2 H 0.9766 0.8888 0.7492
C6_2 C 0.9861(5) 0.6230(2) 0.5352(3)
C8_2 C 0.9726(6) 0.8154(3) 0.6811(4)
H4_2 H 0.8990 0.8121 0.6806
C11_2 C 0.8310(5) 0.6831(3) 0.5265(3)
H5_2 H 0.7621 0.6884 0.5091
C12_2 C 0.8761(5) 0.7292(3) 0.5687(4)
H6_2 H 0.8374 0.7650 0.5797
O5 O 0.6090(3) 0.45933(15) 0.43101(18)
C15_2 C 0.6152(4) 0.3706(2) 0.5090(3)
C16 C 0.6668(6) 0.4186(3) 0.4618(3)
C17_2 C 0.3722(6) 0.1332(3) 0.7246(3)
O7 O 0.7652(3) 0.4196(2) 0.4525(2)
C18_2 C 0.5210(5) 0.2770(3) 0.5955(3)
C19_2 C 0.4813(6) 0.1389(3) 0.7223(4)
H9_2 H 0.5234 0.1112 0.7492
C20_2 C 0.5139(5) 0.3770(2) 0.5352(3)
H10_2 H 0.4757 0.4129 0.5240
C21_2 C 0.4678(5) 0.3314(3) 0.5777(3)
H11_2 H 0.3989 0.3371 0.5951
C22_2 C 0.5274(6) 0.1846(3) 0.6811(4)
H12_2 H 0.6010 0.1879 0.6806
C23_2 C 0.4680(6) 0.2264(3) 0.6400(3)
C24_2 C 0.3217(7) 0.0839(3) 0.7737(3)
C25_2 C 0.6690(5) 0.3169(3) 0.5265(3)
H13_2 H 0.7379 0.3116 0.5091
C26_2 C 0.6239(5) 0.2708(3) 0.5687(4)
H14_2 H 0.6626 0.2350 0.5797
C27_2 C 0.3596(6) 0.2202(3) 0.6426(4)
H15_2 H 0.3167 0.2476 0.6161
C28_2 C 0.3146(6) 0.1739(4) 0.6841(4)
H16_2 H 0.2411 0.1703 0.6845
In1_2 In 0.2500 1.0000 0.86849(3)
O5_2 O 0.3910(3) 0.95933(15) 0.93101(18)
C16_2 C 0.3332(6) 0.9186(3) 0.9618(3)
O7_2 O 0.2348(3) 0.9196(2) 0.9525(2)
O9 O 0.1198(3) 0.95465(16) 0.8062(2)
O11 O 0.2757(4) 0.9170(2) 0.7819(3)
C3_2 C 0.1278(6) 0.8668(3) 0.7246(3)
C5_2 C 0.0187(6) 0.8611(3) 0.7223(4)
H2_2 H 0.0243 0.5871 0.5240
C7_2 C 0.0322(5) 0.6686(3) 0.5777(3)
H3_2 H 0.1011 0.6629 0.5951
C9_2 C 0.0320(6) 0.7736(3) 0.6400(3)
C10_2 C 0.1783(7) 0.9161(3) 0.7737(3)
C13_2 C 0.1404(6) 0.7798(3) 0.6426(4)
H7_2 H 0.1833 0.7524 0.6161
C14_2 C 0.1854(6) 0.8261(4) 0.6841(4)
H8_2 H 0.2589 0.8297 0.6845
In3_2 In 0.7500 -0.0000 0.13151(3)
O2_2 O 0.8802(3) 0.04535(16) 0.1938(2)
C3_3 C 0.8722(6) 0.1332(3) 0.2754(3)
O4_2 O 0.7243(4) 0.0830(2) 0.2181(3)
C5_3 C 0.9813(6) 0.1389(3) 0.2777(4)
H2_3 H 0.9757 0.4129 0.4760
C7_3 C 0.9678(5) 0.3314(3) 0.4223(3)
H3_3 H 0.8989 0.3371 0.4049
C9_3 C 0.9680(6) 0.2264(3) 0.3600(3)
C10_3 C 0.8217(7) 0.0839(3) 0.2263(3)
C13_3 C 0.8596(6) 0.2202(3) 0.3574(4)
H7_3 H 0.8167 0.2476 0.3839
C14_3 C 0.8146(6) 0.1739(4) 0.3159(4)
H8_3 H 0.7411 0.1703 0.3155
O5_3 O 0.6090(3) 0.04067(15) 0.06899(18)
C16_3 C 0.6668(6) 0.0814(3) 0.0382(3)
O7_3 O 0.7652(3) 0.0804(2) 0.0475(2)
In1_3 In 0.2500 0.5000 0.63151(3)
O1_3 O 0.1090(3) 0.45933(15) 0.56899(18)
C1_3 C 0.1152(4) 0.3706(2) 0.4910(3)
C2_3 C 0.1668(6) 0.4186(3) 0.5382(3)
O3_3 O 0.2652(3) 0.4196(2) 0.5475(2)
C4_3 C 0.0210(5) 0.2770(3) 0.4045(3)
H1_3 H 0.0234 0.1112 0.2508
C6_3 C 0.0139(5) 0.3770(2) 0.4648(3)
C8_3 C 0.0274(6) 0.1846(3) 0.3189(4)
H4_3 H 0.1010 0.1879 0.3194
C11_3 C 0.1690(5) 0.3169(3) 0.4735(3)
H5_3 H 0.2379 0.3116 0.4909
C12_3 C 0.1239(5) 0.2708(3) 0.4313(4)
H6_3 H 0.1626 0.2350 0.4203
O5_4 O 0.3910(3) 0.54067(15) 0.56899(18)
C15_3 C 0.3848(4) 0.6294(2) 0.4910(3)
O6_2 O 0.6198(3) 0.95465(16) 0.1938(2)
C16_4 C 0.3332(6) 0.5814(3) 0.5382(3)
C17_3 C 0.6278(6) 0.8668(3) 0.2754(3)
O7_4 O 0.2348(3) 0.5804(2) 0.5475(2)
O8_2 O 0.7757(4) 0.9170(2) 0.2181(3)
C18_3 C 0.4790(5) 0.7230(3) 0.4045(3)
C19_3 C 0.5187(6) 0.8611(3) 0.2777(4)
H9_3 H 0.4766 0.8888 0.2508
C20_3 C 0.4861(5) 0.6230(2) 0.4648(3)
H10_3 H 0.5243 0.5871 0.4760
C21_3 C 0.5322(5) 0.6686(3) 0.4223(3)
H11_3 H 0.6011 0.6629 0.4049
C22_3 C 0.4726(6) 0.8154(3) 0.3189(4)
H12_3 H 0.3990 0.8121 0.3194
C23_3 C 0.5320(6) 0.7736(3) 0.3600(3)
C24_3 C 0.6783(7) 0.9161(3) 0.2263(3)
C25_3 C 0.3310(5) 0.6831(3) 0.4735(3)
H13_3 H 0.2621 0.6884 0.4909
C26_3 C 0.3761(5) 0.7292(3) 0.4313(4)
H14_3 H 0.3374 0.7650 0.4203
C27_3 C 0.6404(6) 0.7798(3) 0.3574(4)
H15_3 H 0.6833 0.7524 0.3839
C28_3 C 0.6854(6) 0.8261(4) 0.3159(4)
H16_3 H 0.7589 0.8297 0.3155
In3_3 In 0.7500 1.0000 0.13151(3)
O9_2 O 0.1198(3) 0.54535(16) 0.6938(2)
O10_2 O 0.3802(3) 0.45465(16) 0.6938(2)
O11_2 O 0.2757(4) 0.5830(2) 0.7181(3)
O12_2 O 0.2243(4) 0.4170(2) 0.7181(3)
C3_4 C 0.1278(6) 0.6332(3) 0.7754(3)
C5_4 C 0.0187(6) 0.6389(3) 0.7777(4)
H2_4 H 0.0243 0.9129 0.9760
C7_4 C 0.0322(5) 0.8314(3) 0.9223(3)
H3_4 H 0.1011 0.8371 0.9049
C9_4 C 0.0320(6) 0.7264(3) 0.8600(3)
C10_4 C 0.1783(7) 0.5839(3) 0.7263(3)
C13_4 C 0.1404(6) 0.7202(3) 0.8574(4)
H7_4 H 0.1833 0.7476 0.8839
C14_4 C 0.1854(6) 0.6739(4) 0.8159(4)
H8_4 H 0.2589 0.6703 0.8155
C15_4 C 0.6152(4) 0.1294(2) 0.9910(3)
C17_4 C 0.3722(6) 0.3668(3) 0.7754(3)
C18_4 C 0.5210(5) 0.2230(3) 0.9045(3)
C19_4 C 0.4813(6) 0.3611(3) 0.7777(4)
H9_4 H 0.5234 0.3888 0.7508
C20_4 C 0.5139(5) 0.1230(2) 0.9648(3)
H10_4 H 0.4757 0.0871 0.9760
C21_4 C 0.4678(5) 0.1686(3) 0.9223(3)
H11_4 H 0.3989 0.1629 0.9049
C22_4 C 0.5274(6) 0.3154(3) 0.8189(4)
H12_4 H 0.6010 0.3121 0.8194
C23_4 C 0.4680(6) 0.2736(3) 0.8600(3)
C24_4 C 0.3217(7) 0.4161(3) 0.7263(3)
C25_4 C 0.6690(5) 0.1831(3) 0.9735(3)
H13_4 H 0.7379 0.1884 0.9909
C26_4 C 0.6239(5) 0.2292(3) 0.9313(4)
H14_4 H 0.6626 0.2650 0.9203
C27_4 C 0.3596(6) 0.2798(3) 0.8574(4)
H15_4 H 0.3167 0.2524 0.8839
C28_4 C 0.3146(6) 0.3261(4) 0.8159(4)
H16_4 H 0.2411 0.3297 0.8155
O1_4 O 0.8910(3) 0.95933(15) 0.06899(18)
C2_4 C 0.8332(6) 0.9186(3) 0.0382(3)
O3_4 O 0.7348(3) 0.9196(2) 0.0475(2)
C1_4 C 0.8848(4) 0.8706(2) 0.9910(3)
C4_4 C 0.9790(5) 0.7770(3) 0.9045(3)
H1_4 H 0.9766 0.6112 0.7508
C6_4 C 0.9861(5) 0.8770(2) 0.9648(3)
C8_4 C 0.9726(6) 0.6846(3) 0.8189(4)
H4_4 H 0.8990 0.6879 0.8194
C11_4 C 0.8310(5) 0.8169(3) 0.9735(3)
H5_4 H 0.7621 0.8116 0.9909
C12_4 C 0.8761(5) 0.7708(3) 0.9313(4)
H6_4 H 0.8374 0.7350 0.9203
loop_
_geom_bond_atom_site_label_1
_geom_bond_atom_site_label_2
_geom_bond_site_symmetry_1
_geom_bond_site_symmetry_2
C6 C1 1_555 1_555
H4 C8 1_555 1_555
C11 C1 1_555 1_555
H5 C11 1_555 1_555
C12 C4 1_555 1_555
H6 C12 1_555 1_555
C11 C12 1_555 1_555
In1 O1 1_555 1_555
O1 C2 1_555 1_555
C2 O3 1_555 1_555
O3 In1 1_555 1_555
O10 In1 1_555 1_555
O12 In1 1_555 1_555
O6 C24 1_555 1_555
C17 C19 1_555 1_555
O8 C24 1_555 1_555
C18 C21 1_555 1_555
C19 H9 1_555 1_555
C20 C15 1_555 1_555
H10 C20 1_555 1_555
C21 C20 1_555 1_555
H11 C21 1_555 1_555
C22 C19 1_555 1_555
H12 C22 1_555 1_555
C23 C18 1_555 1_555
C24 C17 1_555 1_555
C25 C15 1_555 1_555
H13 C25 1_555 1_555
C26 C18 1_555 1_555
H14 C26 1_555 1_555
C27 C23 1_555 1_555
H15 C27 1_555 1_555
C28 C17 1_555 1_555
H16 C28 1_555 1_555
In3 O6 1_555 1_555
O8 In3 1_555 1_555
C22 C23 1_555 1_555
C25 C26 1_555 1_555
C27 C28 1_555 1_555
O2 C10 1_555 1_555
C3 C5 1_555 1_555
O4 C10 1_555 1_555
H3 C7 1_555 1_555
C10 C3 1_555 1_555
C13 C9 1_555 1_555
H7 C13 1_555 1_555
C14 C3 1_555 1_555
H8 C14 1_555 1_555
In3 O2 1_555 1_555
O4 In3 1_555 1_555
C13 C14 1_555 1_555
In3 O1_2 1_555 1_555
O1_2 C2_2 1_555 1_555
C1_2 C2_2 1_555 1_555
C2_2 O3_2 1_555 1_555
O3_2 In3 1_555 1_555
C6_2 C1_2 1_555 1_555
H4_2 C8_2 1_555 1_555
C11_2 C1_2 1_555 1_555
H5_2 C11_2 1_555 1_555
C12_2 C4_2 1_555 1_555
H6_2 C12_2 1_555 1_555
O5 In3 1_555 1_555
C15_2 C16 1_555 1_555
O10 C24_2 1_555 1_555
C16 O5 1_555 1_555
C17_2 C19_2 1_555 1_555
O7 In3 1_555 1_555
O12 C24_2 1_555 1_555
C18_2 C21_2 1_555 1_555
C19_2 H9_2 1_555 1_555
C20_2 C15_2 1_555 1_555
H10_2 C20_2 1_555 1_555
C21_2 C20_2 1_555 1_555
H11_2 C21_2 1_555 1_555
C22_2 C19_2 1_555 1_555
H12_2 C22_2 1_555 1_555
C23_2 C18_2 1_555 1_555
C24_2 C17_2 1_555 1_555
C25_2 C15_2 1_555 1_555
H13_2 C25_2 1_555 1_555
C26_2 C18_2 1_555 1_555
H14_2 C26_2 1_555 1_555
C27_2 C23_2 1_555 1_555
H15_2 C27_2 1_555 1_555
C28_2 C17_2 1_555 1_555
H16_2 C28_2 1_555 1_555
C11_2 C12_2 1_555 1_555
C16 O7 1_555 1_555
C22_2 C23_2 1_555 1_555
C25_2 C26_2 1_555 1_555
C27_2 C28_2 1_555 1_555
O5_2 In1_2 1_555 1_555
C16_2 O5_2 1_555 1_555
O7_2 In1_2 1_555 1_555
O9 In1_2 1_555 1_555
O11 In1_2 1_555 1_555
C16_2 O7_2 1_555 1_555
O9 C10_2 1_555 1_555
C3_2 C5_2 1_555 1_555
O11 C10_2 1_555 1_555
H3_2 C7_2 1_555 1_555
C10_2 C3_2 1_555 1_555
C13_2 C9_2 1_555 1_555
H7_2 C13_2 1_555 1_555
C14_2 C3_2 1_555 1_555
H8_2 C14_2 1_555 1_555
C13_2 C14_2 1_555 1_555
O2_2 C10_3 1_555 1_555
C3_3 C5_3 1_555 1_555
O4_2 C10_3 1_555 1_555
H3_3 C7_3 1_555 1_555
C10_3 C3_3 1_555 1_555
C13_3 C9_3 1_555 1_555
H7_3 C13_3 1_555 1_555
C14_3 C3_3 1_555 1_555
H8_3 C14_3 1_555 1_555
In3_2 O2_2 1_555 1_555
O4_2 In3_2 1_555 1_555
C13_3 C14_3 1_555 1_555
O5_3 In3_2 1_555 1_555
C16_3 O5_3 1_555 1_555
O7_3 In3_2 1_555 1_555
C16_3 O7_3 1_555 1_555
In1_3 O1_3 1_555 1_555
O1_3 C2_3 1_555 1_555
C1_3 C2_3 1_555 1_555
C2_3 O3_3 1_555 1_555
O3_3 In1_3 1_555 1_555
C6_3 C1_3 1_555 1_555
H4_3 C8_3 1_555 1_555
C11_3 C1_3 1_555 1_555
H5_3 C11_3 1_555 1_555
C12_3 C4_3 1_555 1_555
H6_3 C12_3 1_555 1_555
O5_4 In1_3 1_555 1_555
C15_3 C16_4 1_555 1_555
O6_2 C24_3 1_555 1_555
C16_4 O5_4 1_555 1_555
C17_3 C19_3 1_555 1_555
O7_4 In1_3 1_555 1_555
O8_2 C24_3 1_555 1_555
C18_3 C21_3 1_555 1_555
C19_3 H9_3 1_555 1_555
C20_3 C15_3 1_555 1_555
H10_3 C20_3 1_555 1_555
C21_3 C20_3 1_555 1_555
H11_3 C21_3 1_555 1_555
C22_3 C19_3 1_555 1_555
H12_3 C22_3 1_555 1_555
C23_3 C18_3 1_555 1_555
C24_3 C17_3 1_555 1_555
C25_3 C15_3 1_555 1_555
H13_3 C25_3 1_555 1_555
C26_3 C18_3 1_555 1_555
H14_3 C26_3 1_555 1_555
C27_3 C23_3 1_555 1_555
H15_3 C27_3 1_555 1_555
C28_3 C17_3 1_555 1_555
H16_3 C28_3 1_555 1_555
In3_3 O6_2 1_555 1_555
O9_2 In1_3 1_555 1_555
O10_2 In1_3 1_555 1_555
O11_2 In1_3 1_555 1_555
O12_2 In1_3 1_555 1_555
C11_3 C12_3 1_555 1_555
C16_4 O7_4 1_555 1_555
O8_2 In3_3 1_555 1_555
C22_3 C23_3 1_555 1_555
C25_3 C26_3 1_555 1_555
C27_3 C28_3 1_555 1_555
O9_2 C10_4 1_555 1_555
C3_4 C5_4 1_555 1_555
O11_2 C10_4 1_555 1_555
H3_4 C7_4 1_555 1_555
C10_4 C3_4 1_555 1_555
C13_4 C9_4 1_555 1_555
H7_4 C13_4 1_555 1_555
C14_4 C3_4 1_555 1_555
H8_4 C14_4 1_555 1_555
C13_4 C14_4 1_555 1_555
O10_2 C24_4 1_555 1_555
C17_4 C19_4 1_555 1_555
O12_2 C24_4 1_555 1_555
C18_4 C21_4 1_555 1_555
C19_4 H9_4 1_555 1_555
C20_4 C15_4 1_555 1_555
H10_4 C20_4 1_555 1_555
C21_4 C20_4 1_555 1_555
H11_4 C21_4 1_555 1_555
C22_4 C19_4 1_555 1_555
H12_4 C22_4 1_555 1_555
C23_4 C18_4 1_555 1_555
C24_4 C17_4 1_555 1_555
C25_4 C15_4 1_555 1_555
H13_4 C25_4 1_555 1_555
C26_4 C18_4 1_555 1_555
H14_4 C26_4 1_555 1_555
C27_4 C23_4 1_555 1_555
H15_4 C27_4 1_555 1_555
C28_4 C17_4 1_555 1_555
H16_4 C28_4 1_555 1_555
C22_4 C23_4 1_555 1_555
C25_4 C26_4 1_555 1_555
C27_4 C28_4 1_555 1_555
In3_3 O1_4 1_555 1_555
O1_4 C2_4 1_555 1_555
C2_4 O3_4 1_555 1_555
O3_4 In3_3 1_555 1_555
C6_4 C1_4 1_555 1_555
H4_4 C8_4 1_555 1_555
C11_4 C1_4 1_555 1_555
H5_4 C11_4 1_555 1_555
C12_4 C4_4 1_555 1_555
H6_4 C12_4 1_555 1_555
C11_4 C12_4 1_555 1_555

#END
