
###############################################################################
#
# This file contains modified crystal structure data generated from the
# MOF subset of the Cambridge Structural Database (CSD) v543 
# hosted by the Cambridge Crystallographic Data Centre (CCDC).
#
# This work is licensed under the Creative Commons
# Attribution-NonCommercial-ShareAlike 4.0 International License.
# To view a copy of this license, visit
# http://creativecommons.org/licenses/by-nc-sa/4.0/
# or send a letter to
# Creative Commons, PO Box 1866, Mountain View, CA 94042, USA.
#
# CIF created using the CSD Python API on 29 September 2022
# The structure has been converted into the P1 space group
# The structure has a 3D framework
# The original CSD entry IFIYAA is in the cubic crystal system
# The framework has been calculated to contain at least 10.0% void space
# The void calculation uses a probe of radius 1.32A, grid spacing 0.4
# The framework is charged, counterions have been retained in the structure
#
###############################################################################

data_IFIYAA
_chemical_formula_moiety         '(C480 H192 Cl32 K30 N192 O378 Y48 32-)n'
_symmetry_cell_setting           triclinic
_symmetry_space_group_name_H-M   'P 1'
_symmetry_Int_Tables_number      1
_space_group_name_Hall           'P 1'
loop_
_symmetry_equiv_pos_site_id
_symmetry_equiv_pos_as_xyz
1 x,y,z
_cell_length_a                   28.006(4)
_cell_length_b                   28.006(4)
_cell_length_c                   28.006(4)
_cell_angle_alpha                90
_cell_angle_beta                 90
_cell_angle_gamma                90
_cell_volume                     21966.1
loop_
_atom_site_label
_atom_site_type_symbol
_atom_site_fract_x
_atom_site_fract_y
_atom_site_fract_z
Cl1 Cl 0.41739(2) 0.41739(2) 0.41739(2)
Cl1_2 Cl 0.08261(2) 0.58261(2) 0.91739(2)
Cl1_3 Cl 0.58261(2) 0.91739(2) 0.08261(2)
Cl1_4 Cl 0.91739(2) 0.08261(2) 0.58261(2)
Cl1_5 Cl 0.16739(2) 0.66739(2) 0.83261(2)
Cl1_6 Cl 0.33261(2) 0.33261(2) 0.33261(2)
Cl1_7 Cl 0.66739(2) 0.83261(2) 0.16739(2)
Cl1_8 Cl 0.83261(2) 0.16739(2) 0.66739(2)
Cl1_9 Cl 0.91739(2) 0.91739(2) 0.91739(2)
Cl1_10 Cl 0.58261(2) 0.08261(2) 0.41739(2)
Cl1_11 Cl 0.08261(2) 0.41739(2) 0.58261(2)
Cl1_12 Cl 0.41739(2) 0.58261(2) 0.08261(2)
Cl1_13 Cl 0.66739(2) 0.16739(2) 0.33261(2)
Cl1_14 Cl 0.83261(2) 0.83261(2) 0.83261(2)
Cl1_15 Cl 0.16739(2) 0.33261(2) 0.66739(2)
Cl1_16 Cl 0.33261(2) 0.66739(2) 0.16739(2)
Cl1_17 Cl 0.58261(2) 0.58261(2) 0.58261(2)
Cl1_18 Cl 0.91739(2) 0.41739(2) 0.08261(2)
Cl1_19 Cl 0.41739(2) 0.08261(2) 0.91739(2)
Cl1_20 Cl 0.08261(2) 0.91739(2) 0.41739(2)
Cl1_21 Cl 0.83261(2) 0.33261(2) 0.16739(2)
Cl1_22 Cl 0.66739(2) 0.66739(2) 0.66739(2)
Cl1_23 Cl 0.33261(2) 0.16739(2) 0.83261(2)
Cl1_24 Cl 0.16739(2) 0.83261(2) 0.33261(2)
Cl1_25 Cl 0.08261(2) 0.08261(2) 0.08261(2)
Cl1_26 Cl 0.41739(2) 0.91739(2) 0.58261(2)
Cl1_27 Cl 0.91739(2) 0.58261(2) 0.41739(2)
Cl1_28 Cl 0.58261(2) 0.41739(2) 0.91739(2)
Cl1_29 Cl 0.33261(2) 0.83261(2) 0.66739(2)
Cl1_30 Cl 0.16739(2) 0.16739(2) 0.16739(2)
Cl1_31 Cl 0.83261(2) 0.66739(2) 0.33261(2)
Cl1_32 Cl 0.66739(2) 0.33261(2) 0.83261(2)
Y1 Y 0.56828(2) 0.6250 0.31828(2)
K1 K 0.56163(3) 0.5000 0.2500
O1 O 0.49055(7) 0.64995(7) 0.32567(6)
O2 O 0.43853(7) 0.68491(7) 0.37402(7)
O3 O 0.52334(7) 0.55701(7) 0.31679(7)
O4 O 0.48884(8) 0.48766(7) 0.33214(8)
C1 C 0.44542(9) 0.60194(10) 0.37950(10)
C2 C 0.45836(10) 0.55526(10) 0.37038(10)
N1 N 0.40999(8) 0.60264(8) 0.41373(8)
C3 C 0.40205(11) 0.55761(10) 0.42499(11)
H1 H 0.3793 0.5473 0.4479
N2 N 0.43032(8) 0.52813(8) 0.39987(9)
H2 H 0.4308 0.4968 0.4020
C4 C 0.45952(9) 0.64845(9) 0.35814(9)
C5 C 0.49260(10) 0.53135(10) 0.33719(10)
O5 O 0.57567(6) 0.60005(7) 0.24055(7)
O6 O 0.62402(7) 0.56509(7) 0.18853(7)
O7 O 0.56679(7) 0.69299(7) 0.27334(7)
O8 O 0.58214(8) 0.76234(7) 0.23884(8)
C6 C 0.62950(10) 0.64806(10) 0.19542(9)
C7 C 0.62038(10) 0.69474(10) 0.20836(10)
N3 N 0.66373(8) 0.64736(8) 0.15999(8)
C8 C 0.67499(11) 0.69239(10) 0.15205(11)
H3 H 0.6979 0.7027 0.1293
N4 N 0.64987(9) 0.72187(8) 0.18032(8)
H4 H 0.6520 0.7532 0.1808
C9 C 0.60814(9) 0.60155(9) 0.20952(9)
C10 C 0.58719(10) 0.71865(10) 0.24260(10)
Y2 Y 0.3750 0.68172(2) 0.43172(2)
Y3 Y 0.68172(2) 0.56828(2) 0.1250
K2 K 0.5000 0.7500 0.31163(3)
K3 K 0.5000 0.7500 0.43837(3)
K4 K 0.68837(3) 0.5000 0.2500
O9 O 0.57567(6) 0.39995(7) 0.25945(7)
O10 O 0.62402(7) 0.43491(7) 0.31147(7)
O11 O 0.62598(7) 0.56147(7) 0.31509(7)
O12 O 0.62598(7) 0.43853(7) 0.18491(7)
O13 O 0.56509(7) 0.68853(7) 0.37598(7)
O14 O 0.52334(7) 0.44299(7) 0.18321(7)
O15 O 0.48884(8) 0.51234(7) 0.16786(8)
N5 N 0.58627(8) 0.59001(8) 0.39736(8)
N6 N 0.64736(8) 0.65999(8) 0.33627(8)
O1_2 O 0.00945(7) 0.35005(7) 0.82567(6)
O2_2 O 0.06147(7) 0.31509(7) 0.87402(7)
O4_2 O 0.01116(8) 0.51234(7) 0.83214(8)
C1_2 C 0.05458(9) 0.39806(10) 0.87950(10)
C2_2 C 0.04164(10) 0.44474(10) 0.87038(10)
N1_2 N 0.09001(8) 0.39736(8) 0.91373(8)
C3_2 C 0.09795(11) 0.44239(10) 0.92499(11)
H1_2 H 0.1207 0.4527 0.9479
N2_2 N 0.06968(8) 0.47187(8) 0.89987(9)
H2_2 H 0.0692 0.5032 0.9020
C4_2 C 0.04048(9) 0.35155(9) 0.85814(9)
C5_2 C 0.00740(10) 0.46865(10) 0.83719(10)
Y2_2 Y 0.1250 0.31828(2) 0.93172(2)
K2_2 K -0.0000 0.2500 0.81163(3)
K3_2 K -0.0000 0.2500 0.93837(3)
O15_2 O 0.01116(8) 0.48766(7) 0.66786(8)
Y1_2 Y 0.93172(2) 0.3750 0.81828(2)
K1_2 K 0.93837(3) 0.5000 0.7500
O3_2 O 0.97666(7) 0.44299(7) 0.81679(7)
O5_2 O 0.92433(6) 0.39995(7) 0.74055(7)
O6_2 O 0.87598(7) 0.43491(7) 0.68853(7)
O7_2 O 0.93321(7) 0.30701(7) 0.77334(7)
O8_2 O 0.91786(8) 0.23766(7) 0.73884(8)
C6_2 C 0.87050(10) 0.35194(10) 0.69542(9)
C7_2 C 0.87962(10) 0.30526(10) 0.70836(10)
N3_2 N 0.83627(8) 0.35264(8) 0.65999(8)
C8_2 C 0.82501(11) 0.30761(10) 0.65205(11)
H3_2 H 0.8021 0.2973 0.6293
N4_2 N 0.85013(9) 0.27813(8) 0.68032(8)
H4_2 H 0.8480 0.2468 0.6808
C9_2 C 0.89186(9) 0.39845(9) 0.70952(9)
C10_2 C 0.91281(10) 0.28135(10) 0.74260(10)
Y3_2 Y 0.81828(2) 0.43172(2) 0.6250
K2_3 K 1.0000 0.2500 0.81163(3)
K3_3 K 1.0000 0.2500 0.93837(3)
K4_2 K 0.81163(3) 0.5000 0.7500
O9_2 O 0.92433(6) 0.60005(7) 0.75945(7)
O10_2 O 0.87598(7) 0.56509(7) 0.81147(7)
O11_2 O 0.87402(7) 0.43853(7) 0.81509(7)
O12_2 O 0.87402(7) 0.56147(7) 0.68491(7)
O13_2 O 0.93491(7) 0.31147(7) 0.87598(7)
O14_2 O 0.97666(7) 0.55701(7) 0.68321(7)
N5_2 N 0.91373(8) 0.40999(8) 0.89736(8)
N6_2 N 0.85264(8) 0.34001(8) 0.83627(8)
Y1_3 Y 0.43172(2) 0.1250 0.18172(2)
K1_3 K 0.43837(3) 0.0000 0.2500
O1_3 O 0.50945(7) 0.14995(7) 0.17433(6)
O2_3 O 0.56147(7) 0.18491(7) 0.12598(7)
O3_3 O 0.47666(7) 0.05701(7) 0.18321(7)
C1_3 C 0.55458(9) 0.10194(10) 0.12050(10)
C2_3 C 0.54164(10) 0.05526(10) 0.12962(10)
N1_3 N 0.59001(8) 0.10264(8) 0.08627(8)
C3_3 C 0.59795(11) 0.05761(10) 0.07501(11)
H1_3 H 0.6207 0.0473 0.0521
N2_3 N 0.56968(8) 0.02813(8) 0.10013(9)
C4_3 C 0.54048(9) 0.14845(9) 0.14186(9)
C5_3 C 0.50740(10) 0.03135(10) 0.16281(10)
O5_3 O 0.42433(6) 0.10005(7) 0.25945(7)
O6_3 O 0.37598(7) 0.06509(7) 0.31147(7)
O7_3 O 0.43321(7) 0.19299(7) 0.22666(7)
O8_3 O 0.41786(8) 0.26234(7) 0.26116(8)
C6_3 C 0.37050(10) 0.14806(10) 0.30458(9)
C7_3 C 0.37962(10) 0.19474(10) 0.29164(10)
N3_3 N 0.33627(8) 0.14736(8) 0.34001(8)
C8_3 C 0.32501(11) 0.19239(10) 0.34795(11)
H3_3 H 0.3021 0.2027 0.3707
N4_3 N 0.35013(9) 0.22187(8) 0.31968(8)
H4_3 H 0.3480 0.2532 0.3192
C9_3 C 0.39186(9) 0.10155(9) 0.29048(9)
C10_3 C 0.41281(10) 0.21865(10) 0.25740(10)
Y2_3 Y 0.6250 0.18172(2) 0.06828(2)
Y3_3 Y 0.31828(2) 0.06828(2) 0.3750
K2_4 K 0.5000 0.2500 0.18837(3)
K3_4 K 0.5000 0.2500 0.06163(3)
K4_3 K 0.31163(3) 0.0000 0.2500
O11_3 O 0.37402(7) 0.06147(7) 0.18491(7)
O13_3 O 0.43491(7) 0.18853(7) 0.12402(7)
O15_3 O 0.51116(8) 0.01234(7) 0.33214(8)
N5_3 N 0.41373(8) 0.09001(8) 0.10264(8)
N6_3 N 0.35264(8) 0.15999(8) 0.16373(8)
K1_4 K 0.43837(3) 1.0000 0.2500
O4_3 O 0.51116(8) 0.98766(7) 0.16786(8)
H2_3 H 0.5692 0.9968 0.0980
K4_4 K 0.31163(3) 1.0000 0.2500
O9_3 O 0.42433(6) 0.89995(7) 0.24055(7)
O10_3 O 0.37598(7) 0.93491(7) 0.18853(7)
O12_3 O 0.37402(7) 0.93853(7) 0.31509(7)
O14_3 O 0.47666(7) 0.94299(7) 0.31679(7)
K1_5 K 0.06163(3) 0.0000 0.7500
K4_5 K 0.18837(3) 0.0000 0.7500
O9_4 O 0.07567(6) 0.10005(7) 0.74055(7)
O10_4 O 0.12402(7) 0.06509(7) 0.68853(7)
O12_4 O 0.12598(7) 0.06147(7) 0.81509(7)
O14_4 O 0.02334(7) 0.05701(7) 0.81679(7)
Y1_4 Y 0.06828(2) 0.8750 0.68172(2)
K1_6 K 0.06163(3) 1.0000 0.7500
O3_4 O 0.02334(7) 0.94299(7) 0.68321(7)
O5_4 O 0.07567(6) 0.89995(7) 0.75945(7)
O6_4 O 0.12402(7) 0.93491(7) 0.81147(7)
O7_4 O 0.06679(7) 0.80701(7) 0.72666(7)
O8_4 O 0.08214(8) 0.73766(7) 0.76116(8)
C6_4 C 0.12950(10) 0.85194(10) 0.80458(9)
C7_4 C 0.12038(10) 0.80526(10) 0.79164(10)
N3_4 N 0.16373(8) 0.85264(8) 0.84001(8)
C8_4 C 0.17499(11) 0.80761(10) 0.84795(11)
H3_4 H 0.1979 0.7973 0.8707
N4_4 N 0.14987(9) 0.77813(8) 0.81968(8)
H4_4 H 0.1520 0.7468 0.8192
C9_4 C 0.10814(9) 0.89845(9) 0.79048(9)
C10_4 C 0.08719(10) 0.78135(10) 0.75740(10)
Y3_4 Y 0.18172(2) 0.93172(2) 0.8750
K2_5 K 0.0000 0.7500 0.68837(3)
K3_5 K 0.0000 0.7500 0.56163(3)
K4_6 K 0.18837(3) 1.0000 0.7500
O11_4 O 0.12598(7) 0.93853(7) 0.68491(7)
O13_4 O 0.06509(7) 0.81147(7) 0.62402(7)
N5_4 N 0.08627(8) 0.90999(8) 0.60264(8)
N6_4 N 0.14736(8) 0.84001(8) 0.66373(8)
O4_4 O 0.98884(8) 0.01234(7) 0.66786(8)
H2_4 H 0.9308 0.0032 0.5980
O1_4 O 0.99055(7) 0.85005(7) 0.67433(6)
O2_4 O 0.93853(7) 0.81509(7) 0.62598(7)
C1_4 C 0.94542(9) 0.89806(10) 0.62050(10)
C2_4 C 0.95836(10) 0.94474(10) 0.62962(10)
N1_4 N 0.90999(8) 0.89736(8) 0.58627(8)
C3_4 C 0.90205(11) 0.94239(10) 0.57501(11)
H1_4 H 0.8793 0.9527 0.5521
N2_4 N 0.93032(8) 0.97187(8) 0.60013(9)
C4_4 C 0.95952(9) 0.85155(9) 0.64186(9)
C5_4 C 0.99260(10) 0.96865(10) 0.66281(10)
Y2_4 Y 0.8750 0.81828(2) 0.56828(2)
K2_6 K 1.0000 0.7500 0.68837(3)
K3_6 K 1.0000 0.7500 0.56163(3)
O15_4 O 0.98884(8) 0.98766(7) 0.83214(8)
Y1_5 Y 0.31828(2) 0.56828(2) 0.6250
K1_7 K 0.2500 0.56163(3) 0.5000
O1_5 O 0.32567(6) 0.49055(7) 0.64995(7)
O2_5 O 0.37402(7) 0.43853(7) 0.68491(7)
O3_5 O 0.31679(7) 0.52334(7) 0.55701(7)
O4_5 O 0.33214(8) 0.48884(8) 0.48766(7)
C1_5 C 0.37950(10) 0.44542(9) 0.60194(10)
C2_5 C 0.37038(10) 0.45836(10) 0.55526(10)
N1_5 N 0.41373(8) 0.40999(8) 0.60264(8)
C3_5 C 0.42499(11) 0.40205(11) 0.55761(10)
H1_5 H 0.4479 0.3793 0.5473
N2_5 N 0.39987(9) 0.43032(8) 0.52813(8)
H2_5 H 0.4020 0.4308 0.4968
C4_5 C 0.35814(9) 0.45952(9) 0.64845(9)
C5_5 C 0.33719(10) 0.49260(10) 0.53135(10)
O5_5 O 0.24055(7) 0.57567(6) 0.60005(7)
O6_5 O 0.18853(7) 0.62402(7) 0.56509(7)
O7_5 O 0.27334(7) 0.56679(7) 0.69299(7)
O8_5 O 0.23884(8) 0.58214(8) 0.76234(7)
C6_5 C 0.19542(9) 0.62950(10) 0.64806(10)
C7_5 C 0.20836(10) 0.62038(10) 0.69474(10)
N3_5 N 0.15999(8) 0.66373(8) 0.64736(8)
C8_5 C 0.15205(11) 0.67499(11) 0.69239(10)
H3_5 H 0.1293 0.6979 0.7027
N4_5 N 0.18032(8) 0.64987(9) 0.72187(8)
H4_5 H 0.1808 0.6520 0.7532
C9_5 C 0.20952(9) 0.60814(9) 0.60155(9)
C10_5 C 0.24260(10) 0.58719(10) 0.71865(10)
Y2_5 Y 0.43172(2) 0.3750 0.68172(2)
Y3_5 Y 0.1250 0.68172(2) 0.56828(2)
K2_7 K 0.31163(3) 0.5000 0.7500
K3_7 K 0.43837(3) 0.5000 0.7500
K4_7 K 0.2500 0.68837(3) 0.5000
O9_5 O 0.25945(7) 0.57567(6) 0.39995(7)
O10_5 O 0.31147(7) 0.62402(7) 0.43491(7)
O11_5 O 0.31509(7) 0.62598(7) 0.56147(7)
O12_5 O 0.18491(7) 0.62598(7) 0.43853(7)
O13_5 O 0.37598(7) 0.56509(7) 0.68853(7)
O14_5 O 0.18321(7) 0.52334(7) 0.44299(7)
O15_5 O 0.16786(8) 0.48884(8) 0.51234(7)
N5_5 N 0.39736(8) 0.58627(8) 0.59001(8)
N6_5 N 0.33627(8) 0.64736(8) 0.65999(8)
O1_6 O 0.82567(6) 0.00945(7) 0.35005(7)
O2_6 O 0.87402(7) 0.06147(7) 0.31509(7)
O4_6 O 0.83214(8) 0.01116(8) 0.51234(7)
C1_6 C 0.87950(10) 0.05458(9) 0.39806(10)
C2_6 C 0.87038(10) 0.04164(10) 0.44474(10)
N1_6 N 0.91373(8) 0.09001(8) 0.39736(8)
C3_6 C 0.92499(11) 0.09795(11) 0.44239(10)
H1_6 H 0.9479 0.1207 0.4527
N2_6 N 0.89987(9) 0.06968(8) 0.47187(8)
H2_6 H 0.9020 0.0692 0.5032
C4_6 C 0.85814(9) 0.04048(9) 0.35155(9)
C5_6 C 0.83719(10) 0.00740(10) 0.46865(10)
Y2_6 Y 0.93172(2) 0.1250 0.31828(2)
K2_8 K 0.81163(3) -0.0000 0.2500
K3_8 K 0.93837(3) -0.0000 0.2500
O15_6 O 0.66786(8) 0.01116(8) 0.48766(7)
Y1_6 Y 0.81828(2) 0.93172(2) 0.3750
K1_8 K 0.7500 0.93837(3) 0.5000
O3_6 O 0.81679(7) 0.97666(7) 0.44299(7)
O5_6 O 0.74055(7) 0.92433(6) 0.39995(7)
O6_6 O 0.68853(7) 0.87598(7) 0.43491(7)
O7_6 O 0.77334(7) 0.93321(7) 0.30701(7)
O8_6 O 0.73884(8) 0.91786(8) 0.23766(7)
C6_6 C 0.69542(9) 0.87050(10) 0.35194(10)
C7_6 C 0.70836(10) 0.87962(10) 0.30526(10)
N3_6 N 0.65999(8) 0.83627(8) 0.35264(8)
C8_6 C 0.65205(11) 0.82501(11) 0.30761(10)
H3_6 H 0.6293 0.8021 0.2973
N4_6 N 0.68032(8) 0.85013(9) 0.27813(8)
H4_6 H 0.6808 0.8480 0.2468
C9_6 C 0.70952(9) 0.89186(9) 0.39845(9)
C10_6 C 0.74260(10) 0.91281(10) 0.28135(10)
Y3_6 Y 0.6250 0.81828(2) 0.43172(2)
K2_9 K 0.81163(3) 1.0000 0.2500
K3_9 K 0.93837(3) 1.0000 0.2500
K4_8 K 0.7500 0.81163(3) 0.5000
O9_6 O 0.75945(7) 0.92433(6) 0.60005(7)
O10_6 O 0.81147(7) 0.87598(7) 0.56509(7)
O11_6 O 0.81509(7) 0.87402(7) 0.43853(7)
O12_6 O 0.68491(7) 0.87402(7) 0.56147(7)
O13_6 O 0.87598(7) 0.93491(7) 0.31147(7)
O14_6 O 0.68321(7) 0.97666(7) 0.55701(7)
N5_6 N 0.89736(8) 0.91373(8) 0.40999(8)
N6_6 N 0.83627(8) 0.85264(8) 0.34001(8)
Y1_7 Y 0.18172(2) 0.43172(2) 0.1250
K1_9 K 0.2500 0.43837(3) 0.0000
O1_7 O 0.17433(6) 0.50945(7) 0.14995(7)
O2_7 O 0.12598(7) 0.56147(7) 0.18491(7)
O3_7 O 0.18321(7) 0.47666(7) 0.05701(7)
C1_7 C 0.12050(10) 0.55458(9) 0.10194(10)
C2_7 C 0.12962(10) 0.54164(10) 0.05526(10)
N1_7 N 0.08627(8) 0.59001(8) 0.10264(8)
C3_7 C 0.07501(11) 0.59795(11) 0.05761(10)
H1_7 H 0.0521 0.6207 0.0473
N2_7 N 0.10013(9) 0.56968(8) 0.02813(8)
C4_7 C 0.14186(9) 0.54048(9) 0.14845(9)
C5_7 C 0.16281(10) 0.50740(10) 0.03135(10)
O5_7 O 0.25945(7) 0.42433(6) 0.10005(7)
O6_7 O 0.31147(7) 0.37598(7) 0.06509(7)
O7_7 O 0.22666(7) 0.43321(7) 0.19299(7)
O8_7 O 0.26116(8) 0.41786(8) 0.26234(7)
C6_7 C 0.30458(9) 0.37050(10) 0.14806(10)
C7_7 C 0.29164(10) 0.37962(10) 0.19474(10)
N3_7 N 0.34001(8) 0.33627(8) 0.14736(8)
C8_7 C 0.34795(11) 0.32501(11) 0.19239(10)
H3_7 H 0.3707 0.3021 0.2027
N4_7 N 0.31968(8) 0.35013(9) 0.22187(8)
H4_7 H 0.3192 0.3480 0.2532
C9_7 C 0.29048(9) 0.39186(9) 0.10155(9)
C10_7 C 0.25740(10) 0.41281(10) 0.21865(10)
Y2_7 Y 0.06828(2) 0.6250 0.18172(2)
Y3_7 Y 0.3750 0.31828(2) 0.06828(2)
K2_10 K 0.18837(3) 0.5000 0.2500
K3_10 K 0.06163(3) 0.5000 0.2500
K4_9 K 0.2500 0.31163(3) 0.0000
O11_7 O 0.18491(7) 0.37402(7) 0.06147(7)
O13_7 O 0.12402(7) 0.43491(7) 0.18853(7)
O15_7 O 0.33214(8) 0.51116(8) 0.01234(7)
N5_7 N 0.10264(8) 0.41373(8) 0.09001(8)
N6_7 N 0.16373(8) 0.35264(8) 0.15999(8)
K1_10 K 0.2500 0.43837(3) 1.0000
O4_7 O 0.16786(8) 0.51116(8) 0.98766(7)
H2_7 H 0.0980 0.5692 0.9968
K4_10 K 0.2500 0.31163(3) 1.0000
O9_7 O 0.24055(7) 0.42433(6) 0.89995(7)
O10_7 O 0.18853(7) 0.37598(7) 0.93491(7)
O12_7 O 0.31509(7) 0.37402(7) 0.93853(7)
O14_7 O 0.31679(7) 0.47666(7) 0.94299(7)
K1_11 K 0.7500 0.06163(3) 0.0000
K4_11 K 0.7500 0.18837(3) 0.0000
O9_8 O 0.74055(7) 0.07567(6) 0.10005(7)
O10_8 O 0.68853(7) 0.12402(7) 0.06509(7)
O12_8 O 0.81509(7) 0.12598(7) 0.06147(7)
O14_8 O 0.81679(7) 0.02334(7) 0.05701(7)
Y1_8 Y 0.68172(2) 0.06828(2) 0.8750
K1_12 K 0.7500 0.06163(3) 1.0000
O3_8 O 0.68321(7) 0.02334(7) 0.94299(7)
O5_8 O 0.75945(7) 0.07567(6) 0.89995(7)
O6_8 O 0.81147(7) 0.12402(7) 0.93491(7)
O7_8 O 0.72666(7) 0.06679(7) 0.80701(7)
O8_8 O 0.76116(8) 0.08214(8) 0.73766(7)
C6_8 C 0.80458(9) 0.12950(10) 0.85194(10)
C7_8 C 0.79164(10) 0.12038(10) 0.80526(10)
N3_8 N 0.84001(8) 0.16373(8) 0.85264(8)
C8_8 C 0.84795(11) 0.17499(11) 0.80761(10)
H3_8 H 0.8707 0.1979 0.7973
N4_8 N 0.81968(8) 0.14987(9) 0.77813(8)
H4_8 H 0.8192 0.1520 0.7468
C9_8 C 0.79048(9) 0.10814(9) 0.89845(9)
C10_8 C 0.75740(10) 0.08719(10) 0.78135(10)
Y3_8 Y 0.8750 0.18172(2) 0.93172(2)
K2_11 K 0.68837(3) 0.0000 0.7500
K3_11 K 0.56163(3) 0.0000 0.7500
K4_12 K 0.7500 0.18837(3) 1.0000
O11_8 O 0.68491(7) 0.12598(7) 0.93853(7)
O13_8 O 0.62402(7) 0.06509(7) 0.81147(7)
N5_8 N 0.60264(8) 0.08627(8) 0.90999(8)
N6_8 N 0.66373(8) 0.14736(8) 0.84001(8)
O4_8 O 0.66786(8) 0.98884(8) 0.01234(7)
H2_8 H 0.5980 0.9308 0.0032
O1_8 O 0.67433(6) 0.99055(7) 0.85005(7)
O2_8 O 0.62598(7) 0.93853(7) 0.81509(7)
C1_8 C 0.62050(10) 0.94542(9) 0.89806(10)
C2_8 C 0.62962(10) 0.95836(10) 0.94474(10)
N1_8 N 0.58627(8) 0.90999(8) 0.89736(8)
C3_8 C 0.57501(11) 0.90205(11) 0.94239(10)
H1_8 H 0.5521 0.8793 0.9527
N2_8 N 0.60013(9) 0.93032(8) 0.97187(8)
C4_8 C 0.64186(9) 0.95952(9) 0.85155(9)
C5_8 C 0.66281(10) 0.99260(10) 0.96865(10)
Y2_8 Y 0.56828(2) 0.8750 0.81828(2)
K2_12 K 0.68837(3) 1.0000 0.7500
K3_12 K 0.56163(3) 1.0000 0.7500
O15_8 O 0.83214(8) 0.98884(8) 0.98766(7)
Y1_9 Y 0.6250 0.31828(2) 0.56828(2)
K1_13 K 0.5000 0.2500 0.56163(3)
O1_9 O 0.64995(7) 0.32567(6) 0.49055(7)
O2_9 O 0.68491(7) 0.37402(7) 0.43853(7)
O3_9 O 0.55701(7) 0.31679(7) 0.52334(7)
O4_9 O 0.48766(7) 0.33214(8) 0.48884(8)
C1_9 C 0.60194(10) 0.37950(10) 0.44542(9)
C2_9 C 0.55526(10) 0.37038(10) 0.45836(10)
N1_9 N 0.60264(8) 0.41373(8) 0.40999(8)
C3_9 C 0.55761(10) 0.42499(11) 0.40205(11)
H1_9 H 0.5473 0.4479 0.3793
N2_9 N 0.52813(8) 0.39987(9) 0.43032(8)
H2_9 H 0.4968 0.4020 0.4308
C4_9 C 0.64845(9) 0.35814(9) 0.45952(9)
C5_9 C 0.53135(10) 0.33719(10) 0.49260(10)
O5_9 O 0.60005(7) 0.24055(7) 0.57567(6)
O6_9 O 0.56509(7) 0.18853(7) 0.62402(7)
O7_9 O 0.69299(7) 0.27334(7) 0.56679(7)
O8_9 O 0.76234(7) 0.23884(8) 0.58214(8)
C6_9 C 0.64806(10) 0.19542(9) 0.62950(10)
C7_9 C 0.69474(10) 0.20836(10) 0.62038(10)
N3_9 N 0.64736(8) 0.15999(8) 0.66373(8)
C8_9 C 0.69239(10) 0.15205(11) 0.67499(11)
H3_9 H 0.7027 0.1293 0.6979
N4_9 N 0.72187(8) 0.18032(8) 0.64987(9)
H4_9 H 0.7532 0.1808 0.6520
C9_9 C 0.60155(9) 0.20952(9) 0.60814(9)
C10_9 C 0.71865(10) 0.24260(10) 0.58719(10)
Y2_9 Y 0.68172(2) 0.43172(2) 0.3750
Y3_9 Y 0.56828(2) 0.1250 0.68172(2)
K2_13 K 0.7500 0.31163(3) 0.5000
K3_13 K 0.7500 0.43837(3) 0.5000
K4_13 K 0.5000 0.2500 0.68837(3)
O9_9 O 0.39995(7) 0.25945(7) 0.57567(6)
O10_9 O 0.43491(7) 0.31147(7) 0.62402(7)
O11_9 O 0.56147(7) 0.31509(7) 0.62598(7)
O12_9 O 0.43853(7) 0.18491(7) 0.62598(7)
O13_9 O 0.68853(7) 0.37598(7) 0.56509(7)
O14_9 O 0.44299(7) 0.18321(7) 0.52334(7)
O15_9 O 0.51234(7) 0.16786(8) 0.48884(8)
N5_9 N 0.59001(8) 0.39736(8) 0.58627(8)
N6_9 N 0.65999(8) 0.33627(8) 0.64736(8)
O1_10 O 0.35005(7) 0.82567(6) 0.00945(7)
O2_10 O 0.31509(7) 0.87402(7) 0.06147(7)
O4_10 O 0.51234(7) 0.83214(8) 0.01116(8)
C1_10 C 0.39806(10) 0.87950(10) 0.05458(9)
C2_10 C 0.44474(10) 0.87038(10) 0.04164(10)
N1_10 N 0.39736(8) 0.91373(8) 0.09001(8)
C3_10 C 0.44239(10) 0.92499(11) 0.09795(11)
H1_10 H 0.4527 0.9479 0.1207
N2_10 N 0.47187(8) 0.89987(9) 0.06968(8)
H2_10 H 0.5032 0.9020 0.0692
C4_10 C 0.35155(9) 0.85814(9) 0.04048(9)
C5_10 C 0.46865(10) 0.83719(10) 0.00740(10)
Y2_10 Y 0.31828(2) 0.93172(2) 0.1250
K2_14 K 0.2500 0.81163(3) -0.0000
K3_14 K 0.2500 0.93837(3) -0.0000
O15_10 O 0.48766(7) 0.66786(8) 0.01116(8)
Y1_10 Y 0.3750 0.81828(2) 0.93172(2)
K1_14 K 0.5000 0.7500 0.93837(3)
O3_10 O 0.44299(7) 0.81679(7) 0.97666(7)
O5_10 O 0.39995(7) 0.74055(7) 0.92433(6)
O6_10 O 0.43491(7) 0.68853(7) 0.87598(7)
O7_10 O 0.30701(7) 0.77334(7) 0.93321(7)
O8_10 O 0.23766(7) 0.73884(8) 0.91786(8)
C6_10 C 0.35194(10) 0.69542(9) 0.87050(10)
C7_10 C 0.30526(10) 0.70836(10) 0.87962(10)
N3_10 N 0.35264(8) 0.65999(8) 0.83627(8)
C8_10 C 0.30761(10) 0.65205(11) 0.82501(11)
H3_10 H 0.2973 0.6293 0.8021
N4_10 N 0.27813(8) 0.68032(8) 0.85013(9)
H4_10 H 0.2468 0.6808 0.8480
C9_10 C 0.39845(9) 0.70952(9) 0.89186(9)
C10_10 C 0.28135(10) 0.74260(10) 0.91281(10)
Y3_10 Y 0.43172(2) 0.6250 0.81828(2)
K2_15 K 0.2500 0.81163(3) 1.0000
K3_15 K 0.2500 0.93837(3) 1.0000
K4_14 K 0.5000 0.7500 0.81163(3)
O9_10 O 0.60005(7) 0.75945(7) 0.92433(6)
O10_10 O 0.56509(7) 0.81147(7) 0.87598(7)
O11_10 O 0.43853(7) 0.81509(7) 0.87402(7)
O12_10 O 0.56147(7) 0.68491(7) 0.87402(7)
O13_10 O 0.31147(7) 0.87598(7) 0.93491(7)
O14_10 O 0.55701(7) 0.68321(7) 0.97666(7)
N5_10 N 0.40999(8) 0.89736(8) 0.91373(8)
N6_10 N 0.34001(8) 0.83627(8) 0.85264(8)
Y1_11 Y 0.1250 0.18172(2) 0.43172(2)
K1_15 K 0.0000 0.2500 0.43837(3)
O1_11 O 0.14995(7) 0.17433(6) 0.50945(7)
O2_11 O 0.18491(7) 0.12598(7) 0.56147(7)
O3_11 O 0.05701(7) 0.18321(7) 0.47666(7)
C1_11 C 0.10194(10) 0.12050(10) 0.55458(9)
C2_11 C 0.05526(10) 0.12962(10) 0.54164(10)
N1_11 N 0.10264(8) 0.08627(8) 0.59001(8)
C3_11 C 0.05761(10) 0.07501(11) 0.59795(11)
H1_11 H 0.0473 0.0521 0.6207
N2_11 N 0.02813(8) 0.10013(9) 0.56968(8)
C4_11 C 0.14845(9) 0.14186(9) 0.54048(9)
C5_11 C 0.03135(10) 0.16281(10) 0.50740(10)
O5_11 O 0.10005(7) 0.25945(7) 0.42433(6)
O6_11 O 0.06509(7) 0.31147(7) 0.37598(7)
O7_11 O 0.19299(7) 0.22666(7) 0.43321(7)
O8_11 O 0.26234(7) 0.26116(8) 0.41786(8)
C6_11 C 0.14806(10) 0.30458(9) 0.37050(10)
C7_11 C 0.19474(10) 0.29164(10) 0.37962(10)
N3_11 N 0.14736(8) 0.34001(8) 0.33627(8)
C8_11 C 0.19239(10) 0.34795(11) 0.32501(11)
H3_11 H 0.2027 0.3707 0.3021
N4_11 N 0.22187(8) 0.31968(8) 0.35013(9)
H4_11 H 0.2532 0.3192 0.3480
C9_11 C 0.10155(9) 0.29048(9) 0.39186(9)
C10_11 C 0.21865(10) 0.25740(10) 0.41281(10)
Y2_11 Y 0.18172(2) 0.06828(2) 0.6250
Y3_11 Y 0.06828(2) 0.3750 0.31828(2)
K2_16 K 0.2500 0.18837(3) 0.5000
K3_16 K 0.2500 0.06163(3) 0.5000
K4_15 K 0.0000 0.2500 0.31163(3)
O11_11 O 0.06147(7) 0.18491(7) 0.37402(7)
O13_11 O 0.18853(7) 0.12402(7) 0.43491(7)
O15_11 O 0.01234(7) 0.33214(8) 0.51116(8)
N5_11 N 0.09001(8) 0.10264(8) 0.41373(8)
N6_11 N 0.15999(8) 0.16373(8) 0.35264(8)
K1_16 K 1.0000 0.2500 0.43837(3)
O4_11 O 0.98766(7) 0.16786(8) 0.51116(8)
H2_11 H 0.9968 0.0980 0.5692
K4_16 K 1.0000 0.2500 0.31163(3)
O9_11 O 0.89995(7) 0.24055(7) 0.42433(6)
O10_11 O 0.93491(7) 0.18853(7) 0.37598(7)
O12_11 O 0.93853(7) 0.31509(7) 0.37402(7)
O14_11 O 0.94299(7) 0.31679(7) 0.47666(7)
K1_17 K 0.0000 0.7500 0.06163(3)
K4_17 K 0.0000 0.7500 0.18837(3)
O9_12 O 0.10005(7) 0.74055(7) 0.07567(6)
O10_12 O 0.06509(7) 0.68853(7) 0.12402(7)
O12_12 O 0.06147(7) 0.81509(7) 0.12598(7)
O14_12 O 0.05701(7) 0.81679(7) 0.02334(7)
O4_12 O 0.01234(7) 0.66786(8) 0.98884(8)
H2_12 H 0.0032 0.5980 0.9308
Y1_12 Y 0.8750 0.68172(2) 0.06828(2)
K1_18 K 1.0000 0.7500 0.06163(3)
O3_12 O 0.94299(7) 0.68321(7) 0.02334(7)
O5_12 O 0.89995(7) 0.75945(7) 0.07567(6)
O6_12 O 0.93491(7) 0.81147(7) 0.12402(7)
O7_12 O 0.80701(7) 0.72666(7) 0.06679(7)
O8_12 O 0.73766(7) 0.76116(8) 0.08214(8)
C6_12 C 0.85194(10) 0.80458(9) 0.12950(10)
C7_12 C 0.80526(10) 0.79164(10) 0.12038(10)
N3_12 N 0.85264(8) 0.84001(8) 0.16373(8)
C8_12 C 0.80761(10) 0.84795(11) 0.17499(11)
H3_12 H 0.7973 0.8707 0.1979
N4_12 N 0.77813(8) 0.81968(8) 0.14987(9)
H4_12 H 0.7468 0.8192 0.1520
C9_12 C 0.89845(9) 0.79048(9) 0.10814(9)
C10_12 C 0.78135(10) 0.75740(10) 0.08719(10)
Y3_12 Y 0.93172(2) 0.8750 0.18172(2)
K2_17 K 0.7500 0.68837(3) 0.0000
K3_17 K 0.7500 0.56163(3) 0.0000
K4_18 K 1.0000 0.7500 0.18837(3)
O11_12 O 0.93853(7) 0.68491(7) 0.12598(7)
O13_12 O 0.81147(7) 0.62402(7) 0.06509(7)
N5_12 N 0.90999(8) 0.60264(8) 0.08627(8)
N6_12 N 0.84001(8) 0.66373(8) 0.14736(8)
O1_12 O 0.85005(7) 0.67433(6) 0.99055(7)
O2_12 O 0.81509(7) 0.62598(7) 0.93853(7)
C1_12 C 0.89806(10) 0.62050(10) 0.94542(9)
C2_12 C 0.94474(10) 0.62962(10) 0.95836(10)
N1_12 N 0.89736(8) 0.58627(8) 0.90999(8)
C3_12 C 0.94239(10) 0.57501(11) 0.90205(11)
H1_12 H 0.9527 0.5521 0.8793
N2_12 N 0.97187(8) 0.60013(9) 0.93032(8)
C4_12 C 0.85155(9) 0.64186(9) 0.95952(9)
C5_12 C 0.96865(10) 0.66281(10) 0.99260(10)
Y2_12 Y 0.81828(2) 0.56828(2) 0.8750
K2_18 K 0.7500 0.68837(3) 1.0000
K3_18 K 0.7500 0.56163(3) 1.0000
O15_12 O 0.98766(7) 0.83214(8) 0.98884(8)
O12_13 O 0.18853(7) 0.87598(7) 0.06509(7)
O14_13 O 0.19299(7) 0.77334(7) 0.06679(7)
O15_13 O 0.26234(7) 0.73884(8) 0.08214(8)
O9_13 O 0.14995(7) 0.82567(6) 0.99055(7)
O10_13 O 0.18491(7) 0.87402(7) 0.93853(7)
O9_14 O 0.35005(7) 0.17433(6) 0.49055(7)
O10_14 O 0.31509(7) 0.12598(7) 0.43853(7)
O12_14 O 0.31147(7) 0.12402(7) 0.56509(7)
O14_14 O 0.30701(7) 0.22666(7) 0.56679(7)
O15_14 O 0.23766(7) 0.26116(8) 0.58214(8)
O9_15 O 0.64995(7) 0.67433(6) 0.00945(7)
O10_15 O 0.68491(7) 0.62598(7) 0.06147(7)
O12_15 O 0.68853(7) 0.62402(7) 0.93491(7)
O14_15 O 0.69299(7) 0.72666(7) 0.93321(7)
O15_15 O 0.76234(7) 0.76116(8) 0.91786(8)
O9_16 O 0.85005(7) 0.32567(6) 0.50945(7)
O10_16 O 0.81509(7) 0.37402(7) 0.56147(7)
O12_16 O 0.81147(7) 0.37598(7) 0.43491(7)
O14_16 O 0.80701(7) 0.27334(7) 0.43321(7)
O15_16 O 0.73766(7) 0.23884(8) 0.41786(8)
O9_17 O 0.32567(6) 0.50945(7) 0.85005(7)
O10_17 O 0.37402(7) 0.56147(7) 0.81509(7)
O12_17 O 0.37598(7) 0.43491(7) 0.81147(7)
O14_17 O 0.27334(7) 0.43321(7) 0.80701(7)
O15_17 O 0.23884(8) 0.41786(8) 0.73766(7)
O9_18 O 0.67433(6) 0.00945(7) 0.64995(7)
O10_18 O 0.62598(7) 0.06147(7) 0.68491(7)
O12_18 O 0.62402(7) 0.93491(7) 0.68853(7)
O14_18 O 0.72666(7) 0.93321(7) 0.69299(7)
O15_18 O 0.76116(8) 0.91786(8) 0.76234(7)
O9_19 O 0.17433(6) 0.49055(7) 0.35005(7)
O10_19 O 0.12598(7) 0.43853(7) 0.31509(7)
O12_19 O 0.12402(7) 0.56509(7) 0.31147(7)
O14_19 O 0.22666(7) 0.56679(7) 0.30701(7)
O15_19 O 0.26116(8) 0.58214(8) 0.23766(7)
O12_20 O 0.87598(7) 0.06509(7) 0.18853(7)
O14_20 O 0.77334(7) 0.06679(7) 0.19299(7)
O15_20 O 0.73884(8) 0.08214(8) 0.26234(7)
O9_20 O 0.82567(6) 0.99055(7) 0.14995(7)
O10_20 O 0.87402(7) 0.93853(7) 0.18491(7)
O9_21 O 0.00945(7) 0.64995(7) 0.67433(6)
O10_21 O 0.06147(7) 0.68491(7) 0.62598(7)
O12_21 O 0.93491(7) 0.68853(7) 0.62402(7)
O14_21 O 0.93321(7) 0.69299(7) 0.72666(7)
O15_21 O 0.91786(8) 0.76234(7) 0.76116(8)
O9_22 O 0.50945(7) 0.85005(7) 0.32567(6)
O10_22 O 0.56147(7) 0.81509(7) 0.37402(7)
O12_22 O 0.43491(7) 0.81147(7) 0.37598(7)
O14_22 O 0.43321(7) 0.80701(7) 0.27334(7)
O15_22 O 0.41786(8) 0.73766(7) 0.23884(8)
O12_23 O 0.06509(7) 0.18853(7) 0.87598(7)
O14_23 O 0.06679(7) 0.19299(7) 0.77334(7)
O15_23 O 0.08214(8) 0.26234(7) 0.73884(8)
O9_23 O 0.99055(7) 0.14995(7) 0.82567(6)
O10_23 O 0.93853(7) 0.18491(7) 0.87402(7)
O9_24 O 0.49055(7) 0.35005(7) 0.17433(6)
O10_24 O 0.43853(7) 0.31509(7) 0.12598(7)
O12_24 O 0.56509(7) 0.31147(7) 0.12402(7)
O14_24 O 0.56679(7) 0.30701(7) 0.22666(7)
O15_24 O 0.58214(8) 0.23766(7) 0.26116(8)
Y1_13 Y 0.06828(2) 0.1250 0.81828(2)
C6_13 C 0.12950(10) 0.14806(10) 0.69542(9)
C7_13 C 0.12038(10) 0.19474(10) 0.70836(10)
N3_13 N 0.16373(8) 0.14736(8) 0.65999(8)
C8_13 C 0.17499(11) 0.19239(10) 0.65205(11)
H3_13 H 0.1979 0.2027 0.6293
N4_13 N 0.14987(9) 0.22187(8) 0.68032(8)
H4_13 H 0.1520 0.2532 0.6808
C9_13 C 0.10814(9) 0.10155(9) 0.70952(9)
C10_13 C 0.08719(10) 0.21865(10) 0.74260(10)
N5_13 N 0.08627(8) 0.09001(8) 0.89736(8)
N6_13 N 0.14736(8) 0.15999(8) 0.83627(8)
C1_13 C 0.94542(9) 0.10194(10) 0.87950(10)
C2_13 C 0.95836(10) 0.05526(10) 0.87038(10)
N1_13 N 0.90999(8) 0.10264(8) 0.91373(8)
C3_13 C 0.90205(11) 0.05761(10) 0.92499(11)
H1_13 H 0.8793 0.0473 0.9479
N2_13 N 0.93032(8) 0.02813(8) 0.89987(9)
C4_13 C 0.95952(9) 0.14845(9) 0.85814(9)
C5_13 C 0.99260(10) 0.03135(10) 0.83719(10)
H2_13 H 0.9308 0.9968 0.9020
H2_14 H 0.5692 0.0032 0.4020
Y1_14 Y 0.43172(2) 0.8750 0.31828(2)
C1_14 C 0.55458(9) 0.89806(10) 0.37950(10)
C2_14 C 0.54164(10) 0.94474(10) 0.37038(10)
N1_14 N 0.59001(8) 0.89736(8) 0.41373(8)
C3_14 C 0.59795(11) 0.94239(10) 0.42499(11)
H1_14 H 0.6207 0.9527 0.4479
N2_14 N 0.56968(8) 0.97187(8) 0.39987(9)
C4_14 C 0.54048(9) 0.85155(9) 0.35814(9)
C5_14 C 0.50740(10) 0.96865(10) 0.33719(10)
C6_14 C 0.37050(10) 0.85194(10) 0.19542(9)
C7_14 C 0.37962(10) 0.80526(10) 0.20836(10)
N3_14 N 0.33627(8) 0.85264(8) 0.15999(8)
C8_14 C 0.32501(11) 0.80761(10) 0.15205(11)
H3_14 H 0.3021 0.7973 0.1293
N4_14 N 0.35013(9) 0.77813(8) 0.18032(8)
H4_14 H 0.3480 0.7468 0.1808
C9_14 C 0.39186(9) 0.89845(9) 0.20952(9)
C10_14 C 0.41281(10) 0.78135(10) 0.24260(10)
N5_14 N 0.41373(8) 0.90999(8) 0.39736(8)
N6_14 N 0.35264(8) 0.84001(8) 0.33627(8)
C1_15 C 0.05458(9) 0.60194(10) 0.62050(10)
C2_15 C 0.04164(10) 0.55526(10) 0.62962(10)
N1_15 N 0.09001(8) 0.60264(8) 0.58627(8)
C3_15 C 0.09795(11) 0.55761(10) 0.57501(11)
H1_15 H 0.1207 0.5473 0.5521
N2_15 N 0.06968(8) 0.52813(8) 0.60013(9)
H2_15 H 0.0692 0.4968 0.5980
C4_15 C 0.04048(9) 0.64845(9) 0.64186(9)
C5_15 C 0.00740(10) 0.53135(10) 0.66281(10)
Y1_15 Y 0.93172(2) 0.6250 0.68172(2)
C6_15 C 0.87050(10) 0.64806(10) 0.80458(9)
C7_15 C 0.87962(10) 0.69474(10) 0.79164(10)
N3_15 N 0.83627(8) 0.64736(8) 0.84001(8)
C8_15 C 0.82501(11) 0.69239(10) 0.84795(11)
H3_15 H 0.8021 0.7027 0.8707
N4_15 N 0.85013(9) 0.72187(8) 0.81968(8)
H4_15 H 0.8480 0.7532 0.8192
C9_15 C 0.89186(9) 0.60155(9) 0.79048(9)
C10_15 C 0.91281(10) 0.71865(10) 0.75740(10)
N5_15 N 0.91373(8) 0.59001(8) 0.60264(8)
N6_15 N 0.85264(8) 0.65999(8) 0.66373(8)
Y1_16 Y 0.56828(2) 0.3750 0.18172(2)
C1_16 C 0.44542(9) 0.39806(10) 0.12050(10)
C2_16 C 0.45836(10) 0.44474(10) 0.12962(10)
N1_16 N 0.40999(8) 0.39736(8) 0.08627(8)
C3_16 C 0.40205(11) 0.44239(10) 0.07501(11)
H1_16 H 0.3793 0.4527 0.0521
N2_16 N 0.43032(8) 0.47187(8) 0.10013(9)
H2_16 H 0.4308 0.5032 0.0980
C4_16 C 0.45952(9) 0.35155(9) 0.14186(9)
C5_16 C 0.49260(10) 0.46865(10) 0.16281(10)
C6_16 C 0.62950(10) 0.35194(10) 0.30458(9)
C7_16 C 0.62038(10) 0.30526(10) 0.29164(10)
N3_16 N 0.66373(8) 0.35264(8) 0.34001(8)
C8_16 C 0.67499(11) 0.30761(10) 0.34795(11)
H3_16 H 0.6979 0.2973 0.3707
N4_16 N 0.64987(9) 0.27813(8) 0.31968(8)
H4_16 H 0.6520 0.2468 0.3192
C9_16 C 0.60814(9) 0.39845(9) 0.29048(9)
C10_16 C 0.58719(10) 0.28135(10) 0.25740(10)
N5_16 N 0.58627(8) 0.40999(8) 0.10264(8)
N6_16 N 0.64736(8) 0.34001(8) 0.16373(8)
Y1_17 Y 0.81828(2) 0.06828(2) 0.1250
C6_17 C 0.69542(9) 0.12950(10) 0.14806(10)
C7_17 C 0.70836(10) 0.12038(10) 0.19474(10)
N3_17 N 0.65999(8) 0.16373(8) 0.14736(8)
C8_17 C 0.65205(11) 0.17499(11) 0.19239(10)
H3_17 H 0.6293 0.1979 0.2027
N4_17 N 0.68032(8) 0.14987(9) 0.22187(8)
H4_17 H 0.6808 0.1520 0.2532
C9_17 C 0.70952(9) 0.10814(9) 0.10155(9)
C10_17 C 0.74260(10) 0.08719(10) 0.21865(10)
N5_17 N 0.89736(8) 0.08627(8) 0.09001(8)
N6_17 N 0.83627(8) 0.14736(8) 0.15999(8)
C1_17 C 0.87950(10) 0.94542(9) 0.10194(10)
C2_17 C 0.87038(10) 0.95836(10) 0.05526(10)
N1_17 N 0.91373(8) 0.90999(8) 0.10264(8)
C3_17 C 0.92499(11) 0.90205(11) 0.05761(10)
H1_17 H 0.9479 0.8793 0.0473
N2_17 N 0.89987(9) 0.93032(8) 0.02813(8)
C4_17 C 0.85814(9) 0.95952(9) 0.14845(9)
C5_17 C 0.83719(10) 0.99260(10) 0.03135(10)
H2_17 H 0.9020 0.9308 0.9968
H2_18 H 0.4020 0.5692 0.0032
Y1_18 Y 0.31828(2) 0.43172(2) 0.8750
C1_18 C 0.37950(10) 0.55458(9) 0.89806(10)
C2_18 C 0.37038(10) 0.54164(10) 0.94474(10)
N1_18 N 0.41373(8) 0.59001(8) 0.89736(8)
C3_18 C 0.42499(11) 0.59795(11) 0.94239(10)
H1_18 H 0.4479 0.6207 0.9527
N2_18 N 0.39987(9) 0.56968(8) 0.97187(8)
C4_18 C 0.35814(9) 0.54048(9) 0.85155(9)
C5_18 C 0.33719(10) 0.50740(10) 0.96865(10)
C6_18 C 0.19542(9) 0.37050(10) 0.85194(10)
C7_18 C 0.20836(10) 0.37962(10) 0.80526(10)
N3_18 N 0.15999(8) 0.33627(8) 0.85264(8)
C8_18 C 0.15205(11) 0.32501(11) 0.80761(10)
H3_18 H 0.1293 0.3021 0.7973
N4_18 N 0.18032(8) 0.35013(9) 0.77813(8)
H4_18 H 0.1808 0.3480 0.7468
C9_18 C 0.20952(9) 0.39186(9) 0.89845(9)
C10_18 C 0.24260(10) 0.41281(10) 0.78135(10)
N5_18 N 0.39736(8) 0.41373(8) 0.90999(8)
N6_18 N 0.33627(8) 0.35264(8) 0.84001(8)
C1_19 C 0.62050(10) 0.05458(9) 0.60194(10)
C2_19 C 0.62962(10) 0.04164(10) 0.55526(10)
N1_19 N 0.58627(8) 0.09001(8) 0.60264(8)
C3_19 C 0.57501(11) 0.09795(11) 0.55761(10)
H1_19 H 0.5521 0.1207 0.5473
N2_19 N 0.60013(9) 0.06968(8) 0.52813(8)
H2_19 H 0.5980 0.0692 0.4968
C4_19 C 0.64186(9) 0.04048(9) 0.64845(9)
C5_19 C 0.66281(10) 0.00740(10) 0.53135(10)
Y1_19 Y 0.68172(2) 0.93172(2) 0.6250
C6_19 C 0.80458(9) 0.87050(10) 0.64806(10)
C7_19 C 0.79164(10) 0.87962(10) 0.69474(10)
N3_19 N 0.84001(8) 0.83627(8) 0.64736(8)
C8_19 C 0.84795(11) 0.82501(11) 0.69239(10)
H3_19 H 0.8707 0.8021 0.7027
N4_19 N 0.81968(8) 0.85013(9) 0.72187(8)
H4_19 H 0.8192 0.8480 0.7532
C9_19 C 0.79048(9) 0.89186(9) 0.60155(9)
C10_19 C 0.75740(10) 0.91281(10) 0.71865(10)
N5_19 N 0.60264(8) 0.91373(8) 0.59001(8)
N6_19 N 0.66373(8) 0.85264(8) 0.65999(8)
Y1_20 Y 0.18172(2) 0.56828(2) 0.3750
C1_20 C 0.12050(10) 0.44542(9) 0.39806(10)
C2_20 C 0.12962(10) 0.45836(10) 0.44474(10)
N1_20 N 0.08627(8) 0.40999(8) 0.39736(8)
C3_20 C 0.07501(11) 0.40205(11) 0.44239(10)
H1_20 H 0.0521 0.3793 0.4527
N2_20 N 0.10013(9) 0.43032(8) 0.47187(8)
H2_20 H 0.0980 0.4308 0.5032
C4_20 C 0.14186(9) 0.45952(9) 0.35155(9)
C5_20 C 0.16281(10) 0.49260(10) 0.46865(10)
C6_20 C 0.30458(9) 0.62950(10) 0.35194(10)
C7_20 C 0.29164(10) 0.62038(10) 0.30526(10)
N3_20 N 0.34001(8) 0.66373(8) 0.35264(8)
C8_20 C 0.34795(11) 0.67499(11) 0.30761(10)
H3_20 H 0.3707 0.6979 0.2973
N4_20 N 0.31968(8) 0.64987(9) 0.27813(8)
H4_20 H 0.3192 0.6520 0.2468
C9_20 C 0.29048(9) 0.60814(9) 0.39845(9)
C10_20 C 0.25740(10) 0.58719(10) 0.28135(10)
N5_20 N 0.10264(8) 0.58627(8) 0.40999(8)
N6_20 N 0.16373(8) 0.64736(8) 0.34001(8)
Y1_21 Y 0.1250 0.81828(2) 0.06828(2)
C6_21 C 0.14806(10) 0.69542(9) 0.12950(10)
C7_21 C 0.19474(10) 0.70836(10) 0.12038(10)
N3_21 N 0.14736(8) 0.65999(8) 0.16373(8)
C8_21 C 0.19239(10) 0.65205(11) 0.17499(11)
H3_21 H 0.2027 0.6293 0.1979
N4_21 N 0.22187(8) 0.68032(8) 0.14987(9)
H4_21 H 0.2532 0.6808 0.1520
C9_21 C 0.10155(9) 0.70952(9) 0.10814(9)
C10_21 C 0.21865(10) 0.74260(10) 0.08719(10)
N5_21 N 0.09001(8) 0.89736(8) 0.08627(8)
N6_21 N 0.15999(8) 0.83627(8) 0.14736(8)
C1_21 C 0.10194(10) 0.87950(10) 0.94542(9)
C2_21 C 0.05526(10) 0.87038(10) 0.95836(10)
N1_21 N 0.10264(8) 0.91373(8) 0.90999(8)
C3_21 C 0.05761(10) 0.92499(11) 0.90205(11)
H1_21 H 0.0473 0.9479 0.8793
N2_21 N 0.02813(8) 0.89987(9) 0.93032(8)
C4_21 C 0.14845(9) 0.85814(9) 0.95952(9)
C5_21 C 0.03135(10) 0.83719(10) 0.99260(10)
H2_21 H 0.9968 0.9020 0.9308
H2_22 H 0.0032 0.4020 0.5692
Y1_22 Y 0.8750 0.31828(2) 0.43172(2)
C1_22 C 0.89806(10) 0.37950(10) 0.55458(9)
C2_22 C 0.94474(10) 0.37038(10) 0.54164(10)
N1_22 N 0.89736(8) 0.41373(8) 0.59001(8)
C3_22 C 0.94239(10) 0.42499(11) 0.59795(11)
H1_22 H 0.9527 0.4479 0.6207
N2_22 N 0.97187(8) 0.39987(9) 0.56968(8)
C4_22 C 0.85155(9) 0.35814(9) 0.54048(9)
C5_22 C 0.96865(10) 0.33719(10) 0.50740(10)
C6_22 C 0.85194(10) 0.19542(9) 0.37050(10)
C7_22 C 0.80526(10) 0.20836(10) 0.37962(10)
N3_22 N 0.85264(8) 0.15999(8) 0.33627(8)
C8_22 C 0.80761(10) 0.15205(11) 0.32501(11)
H3_22 H 0.7973 0.1293 0.3021
N4_22 N 0.77813(8) 0.18032(8) 0.35013(9)
H4_22 H 0.7468 0.1808 0.3480
C9_22 C 0.89845(9) 0.20952(9) 0.39186(9)
C10_22 C 0.78135(10) 0.24260(10) 0.41281(10)
N5_22 N 0.90999(8) 0.39736(8) 0.41373(8)
N6_22 N 0.84001(8) 0.33627(8) 0.35264(8)
C1_23 C 0.60194(10) 0.62050(10) 0.05458(9)
C2_23 C 0.55526(10) 0.62962(10) 0.04164(10)
N1_23 N 0.60264(8) 0.58627(8) 0.09001(8)
C3_23 C 0.55761(10) 0.57501(11) 0.09795(11)
H1_23 H 0.5473 0.5521 0.1207
N2_23 N 0.52813(8) 0.60013(9) 0.06968(8)
H2_23 H 0.4968 0.5980 0.0692
C4_23 C 0.64845(9) 0.64186(9) 0.04048(9)
C5_23 C 0.53135(10) 0.66281(10) 0.00740(10)
Y1_23 Y 0.6250 0.68172(2) 0.93172(2)
C6_23 C 0.64806(10) 0.80458(9) 0.87050(10)
C7_23 C 0.69474(10) 0.79164(10) 0.87962(10)
N3_23 N 0.64736(8) 0.84001(8) 0.83627(8)
C8_23 C 0.69239(10) 0.84795(11) 0.82501(11)
H3_23 H 0.7027 0.8707 0.8021
N4_23 N 0.72187(8) 0.81968(8) 0.85013(9)
H4_23 H 0.7532 0.8192 0.8480
C9_23 C 0.60155(9) 0.79048(9) 0.89186(9)
C10_23 C 0.71865(10) 0.75740(10) 0.91281(10)
N5_23 N 0.59001(8) 0.60264(8) 0.91373(8)
N6_23 N 0.65999(8) 0.66373(8) 0.85264(8)
Y1_24 Y 0.3750 0.18172(2) 0.56828(2)
C1_24 C 0.39806(10) 0.12050(10) 0.44542(9)
C2_24 C 0.44474(10) 0.12962(10) 0.45836(10)
N1_24 N 0.39736(8) 0.08627(8) 0.40999(8)
C3_24 C 0.44239(10) 0.07501(11) 0.40205(11)
H1_24 H 0.4527 0.0521 0.3793
N2_24 N 0.47187(8) 0.10013(9) 0.43032(8)
H2_24 H 0.5032 0.0980 0.4308
C4_24 C 0.35155(9) 0.14186(9) 0.45952(9)
C5_24 C 0.46865(10) 0.16281(10) 0.49260(10)
C6_24 C 0.35194(10) 0.30458(9) 0.62950(10)
C7_24 C 0.30526(10) 0.29164(10) 0.62038(10)
N3_24 N 0.35264(8) 0.34001(8) 0.66373(8)
C8_24 C 0.30761(10) 0.34795(11) 0.67499(11)
H3_24 H 0.2973 0.3707 0.6979
N4_24 N 0.27813(8) 0.31968(8) 0.64987(9)
H4_24 H 0.2468 0.3192 0.6520
C9_24 C 0.39845(9) 0.29048(9) 0.60814(9)
C10_24 C 0.28135(10) 0.25740(10) 0.58719(10)
N5_24 N 0.40999(8) 0.10264(8) 0.58627(8)
N6_24 N 0.34001(8) 0.16373(8) 0.64736(8)
O1_13 O 0.50945(7) 0.35005(7) 0.67433(6)
O3_13 O 0.47666(7) 0.44299(7) 0.68321(7)
O4_13 O 0.51116(8) 0.51234(7) 0.66786(8)
C1_25 C 0.55458(9) 0.39806(10) 0.62050(10)
C2_25 C 0.54164(10) 0.44474(10) 0.62962(10)
C3_25 C 0.59795(11) 0.44239(10) 0.57501(11)
H1_25 H 0.6207 0.4527 0.5521
N2_25 N 0.56968(8) 0.47187(8) 0.60013(9)
H2_25 H 0.5692 0.5032 0.5980
C4_25 C 0.54048(9) 0.35155(9) 0.64186(9)
C5_25 C 0.50740(10) 0.46865(10) 0.66281(10)
O5_13 O 0.42433(6) 0.39995(7) 0.75945(7)
O7_13 O 0.43321(7) 0.30701(7) 0.72666(7)
O8_13 O 0.41786(8) 0.23766(7) 0.76116(8)
C6_25 C 0.37050(10) 0.35194(10) 0.80458(9)
C7_25 C 0.37962(10) 0.30526(10) 0.79164(10)
C8_25 C 0.32501(11) 0.30761(10) 0.84795(11)
H3_25 H 0.3021 0.2973 0.8707
N4_25 N 0.35013(9) 0.27813(8) 0.81968(8)
H4_25 H 0.3480 0.2468 0.8192
C9_25 C 0.39186(9) 0.39845(9) 0.79048(9)
C10_25 C 0.41281(10) 0.28135(10) 0.75740(10)
O9_25 O 0.42433(6) 0.60005(7) 0.74055(7)
O14_25 O 0.47666(7) 0.55701(7) 0.81679(7)
O15_25 O 0.51116(8) 0.48766(7) 0.83214(8)
O3_14 O 0.02334(7) 0.55701(7) 0.18321(7)
O5_14 O 0.07567(6) 0.60005(7) 0.25945(7)
O7_14 O 0.06679(7) 0.69299(7) 0.22666(7)
O8_14 O 0.08214(8) 0.76234(7) 0.26116(8)
C6_26 C 0.12950(10) 0.64806(10) 0.30458(9)
C7_26 C 0.12038(10) 0.69474(10) 0.29164(10)
C8_26 C 0.17499(11) 0.69239(10) 0.34795(11)
H3_26 H 0.1979 0.7027 0.3707
N4_26 N 0.14987(9) 0.72187(8) 0.31968(8)
H4_26 H 0.1520 0.7532 0.3192
C9_26 C 0.10814(9) 0.60155(9) 0.29048(9)
C10_26 C 0.08719(10) 0.71865(10) 0.25740(10)
O9_26 O 0.07567(6) 0.39995(7) 0.24055(7)
O14_26 O 0.02334(7) 0.44299(7) 0.31679(7)
O1_14 O 0.99055(7) 0.64995(7) 0.17433(6)
O4_14 O 0.98884(8) 0.48766(7) 0.16786(8)
C1_26 C 0.94542(9) 0.60194(10) 0.12050(10)
C2_26 C 0.95836(10) 0.55526(10) 0.12962(10)
C3_26 C 0.90205(11) 0.55761(10) 0.07501(11)
H1_26 H 0.8793 0.5473 0.0521
N2_26 N 0.93032(8) 0.52813(8) 0.10013(9)
H2_26 H 0.9308 0.4968 0.0980
C4_26 C 0.95952(9) 0.64845(9) 0.14186(9)
C5_26 C 0.99260(10) 0.53135(10) 0.16281(10)
O15_26 O 0.98884(8) 0.51234(7) 0.33214(8)
O4_15 O 0.48884(8) 0.01234(7) 0.83214(8)
H2_27 H 0.4308 0.0032 0.9020
O9_27 O 0.57567(6) 0.10005(7) 0.75945(7)
O14_27 O 0.52334(7) 0.05701(7) 0.68321(7)
O1_15 O 0.49055(7) 0.85005(7) 0.82567(6)
O3_15 O 0.52334(7) 0.94299(7) 0.81679(7)
C1_27 C 0.44542(9) 0.89806(10) 0.87950(10)
C2_27 C 0.45836(10) 0.94474(10) 0.87038(10)
C3_27 C 0.40205(11) 0.94239(10) 0.92499(11)
H1_27 H 0.3793 0.9527 0.9479
N2_27 N 0.43032(8) 0.97187(8) 0.89987(9)
C4_27 C 0.45952(9) 0.85155(9) 0.85814(9)
C5_27 C 0.49260(10) 0.96865(10) 0.83719(10)
O5_15 O 0.57567(6) 0.89995(7) 0.74055(7)
O7_15 O 0.56679(7) 0.80701(7) 0.77334(7)
O8_15 O 0.58214(8) 0.73766(7) 0.73884(8)
C6_27 C 0.62950(10) 0.85194(10) 0.69542(9)
C7_27 C 0.62038(10) 0.80526(10) 0.70836(10)
C8_27 C 0.67499(11) 0.80761(10) 0.65205(11)
H3_27 H 0.6979 0.7973 0.6293
N4_27 N 0.64987(9) 0.77813(8) 0.68032(8)
H4_27 H 0.6520 0.7468 0.6808
C9_27 C 0.60814(9) 0.89845(9) 0.70952(9)
C10_27 C 0.58719(10) 0.78135(10) 0.74260(10)
O15_27 O 0.48884(8) 0.98766(7) 0.66786(8)
O1_16 O 0.00945(7) 0.14995(7) 0.32567(6)
C1_28 C 0.05458(9) 0.10194(10) 0.37950(10)
C2_28 C 0.04164(10) 0.05526(10) 0.37038(10)
C3_28 C 0.09795(11) 0.05761(10) 0.42499(11)
H1_28 H 0.1207 0.0473 0.4479
N2_28 N 0.06968(8) 0.02813(8) 0.39987(9)
C4_28 C 0.04048(9) 0.14845(9) 0.35814(9)
C5_28 C 0.00740(10) 0.03135(10) 0.33719(10)
O15_28 O 0.01116(8) 0.01234(7) 0.16786(8)
O4_16 O 0.01116(8) 0.98766(7) 0.33214(8)
H2_28 H 0.0692 0.9968 0.4020
O3_16 O 0.97666(7) 0.05701(7) 0.31679(7)
O5_16 O 0.92433(6) 0.10005(7) 0.24055(7)
O7_16 O 0.93321(7) 0.19299(7) 0.27334(7)
O8_16 O 0.91786(8) 0.26234(7) 0.23884(8)
C6_28 C 0.87050(10) 0.14806(10) 0.19542(9)
C7_28 C 0.87962(10) 0.19474(10) 0.20836(10)
C8_28 C 0.82501(11) 0.19239(10) 0.15205(11)
H3_28 H 0.8021 0.2027 0.1293
N4_28 N 0.85013(9) 0.22187(8) 0.18032(8)
H4_28 H 0.8480 0.2532 0.1808
C9_28 C 0.89186(9) 0.10155(9) 0.20952(9)
C10_28 C 0.91281(10) 0.21865(10) 0.24260(10)
O9_28 O 0.92433(6) 0.89995(7) 0.25945(7)
O14_28 O 0.97666(7) 0.94299(7) 0.18321(7)
O1_17 O 0.67433(6) 0.50945(7) 0.35005(7)
O3_17 O 0.68321(7) 0.47666(7) 0.44299(7)
O4_17 O 0.66786(8) 0.51116(8) 0.51234(7)
C1_29 C 0.62050(10) 0.55458(9) 0.39806(10)
C2_29 C 0.62962(10) 0.54164(10) 0.44474(10)
C3_29 C 0.57501(11) 0.59795(11) 0.44239(10)
H1_29 H 0.5521 0.6207 0.4527
N2_29 N 0.60013(9) 0.56968(8) 0.47187(8)
H2_29 H 0.5980 0.5692 0.5032
C4_29 C 0.64186(9) 0.54048(9) 0.35155(9)
C5_29 C 0.66281(10) 0.50740(10) 0.46865(10)
O5_17 O 0.75945(7) 0.42433(6) 0.39995(7)
O7_17 O 0.72666(7) 0.43321(7) 0.30701(7)
O8_17 O 0.76116(8) 0.41786(8) 0.23766(7)
C6_29 C 0.80458(9) 0.37050(10) 0.35194(10)
C7_29 C 0.79164(10) 0.37962(10) 0.30526(10)
C8_29 C 0.84795(11) 0.32501(11) 0.30761(10)
H3_29 H 0.8707 0.3021 0.2973
N4_29 N 0.81968(8) 0.35013(9) 0.27813(8)
H4_29 H 0.8192 0.3480 0.2468
C9_29 C 0.79048(9) 0.39186(9) 0.39845(9)
C10_29 C 0.75740(10) 0.41281(10) 0.28135(10)
O9_29 O 0.74055(7) 0.42433(6) 0.60005(7)
O14_29 O 0.81679(7) 0.47666(7) 0.55701(7)
O15_29 O 0.83214(8) 0.51116(8) 0.48766(7)
O3_18 O 0.18321(7) 0.02334(7) 0.55701(7)
O5_18 O 0.25945(7) 0.07567(6) 0.60005(7)
O7_18 O 0.22666(7) 0.06679(7) 0.69299(7)
O8_18 O 0.26116(8) 0.08214(8) 0.76234(7)
C6_30 C 0.30458(9) 0.12950(10) 0.64806(10)
C7_30 C 0.29164(10) 0.12038(10) 0.69474(10)
C8_30 C 0.34795(11) 0.17499(11) 0.69239(10)
H3_30 H 0.3707 0.1979 0.7027
N4_30 N 0.31968(8) 0.14987(9) 0.72187(8)
H4_30 H 0.3192 0.1520 0.7532
C9_30 C 0.29048(9) 0.10814(9) 0.60155(9)
C10_30 C 0.25740(10) 0.08719(10) 0.71865(10)
O9_30 O 0.24055(7) 0.07567(6) 0.39995(7)
O14_30 O 0.31679(7) 0.02334(7) 0.44299(7)
O1_18 O 0.17433(6) 0.99055(7) 0.64995(7)
O4_18 O 0.16786(8) 0.98884(8) 0.48766(7)
C1_30 C 0.12050(10) 0.94542(9) 0.60194(10)
C2_30 C 0.12962(10) 0.95836(10) 0.55526(10)
C3_30 C 0.07501(11) 0.90205(11) 0.55761(10)
H1_30 H 0.0521 0.8793 0.5473
N2_30 N 0.10013(9) 0.93032(8) 0.52813(8)
H2_30 H 0.0980 0.9308 0.4968
C4_30 C 0.14186(9) 0.95952(9) 0.64845(9)
C5_30 C 0.16281(10) 0.99260(10) 0.53135(10)
O15_30 O 0.33214(8) 0.98884(8) 0.51234(7)
O4_19 O 0.83214(8) 0.48884(8) 0.01234(7)
H2_31 H 0.9020 0.4308 0.0032
O9_31 O 0.75945(7) 0.57567(6) 0.10005(7)
O14_31 O 0.68321(7) 0.52334(7) 0.05701(7)
O1_19 O 0.82567(6) 0.49055(7) 0.85005(7)
O3_19 O 0.81679(7) 0.52334(7) 0.94299(7)
C1_31 C 0.87950(10) 0.44542(9) 0.89806(10)
C2_31 C 0.87038(10) 0.45836(10) 0.94474(10)
C3_31 C 0.92499(11) 0.40205(11) 0.94239(10)
H1_31 H 0.9479 0.3793 0.9527
N2_31 N 0.89987(9) 0.43032(8) 0.97187(8)
C4_31 C 0.85814(9) 0.45952(9) 0.85155(9)
C5_31 C 0.83719(10) 0.49260(10) 0.96865(10)
O5_19 O 0.74055(7) 0.57567(6) 0.89995(7)
O7_19 O 0.77334(7) 0.56679(7) 0.80701(7)
O8_19 O 0.73884(8) 0.58214(8) 0.73766(7)
C6_31 C 0.69542(9) 0.62950(10) 0.85194(10)
C7_31 C 0.70836(10) 0.62038(10) 0.80526(10)
C8_31 C 0.65205(11) 0.67499(11) 0.80761(10)
H3_31 H 0.6293 0.6979 0.7973
N4_31 N 0.68032(8) 0.64987(9) 0.77813(8)
H4_31 H 0.6808 0.6520 0.7468
C9_31 C 0.70952(9) 0.60814(9) 0.89845(9)
C10_31 C 0.74260(10) 0.58719(10) 0.78135(10)
O15_31 O 0.66786(8) 0.48884(8) 0.98766(7)
O1_20 O 0.32567(6) 0.00945(7) 0.14995(7)
C1_32 C 0.37950(10) 0.05458(9) 0.10194(10)
C2_32 C 0.37038(10) 0.04164(10) 0.05526(10)
C3_32 C 0.42499(11) 0.09795(11) 0.05761(10)
H1_32 H 0.4479 0.1207 0.0473
N2_32 N 0.39987(9) 0.06968(8) 0.02813(8)
C4_32 C 0.35814(9) 0.04048(9) 0.14845(9)
C5_32 C 0.33719(10) 0.00740(10) 0.03135(10)
O15_32 O 0.16786(8) 0.01116(8) 0.01234(7)
O4_20 O 0.33214(8) 0.01116(8) 0.98766(7)
H2_32 H 0.4020 0.0692 0.9968
O3_20 O 0.31679(7) 0.97666(7) 0.05701(7)
O5_20 O 0.24055(7) 0.92433(6) 0.10005(7)
O7_20 O 0.27334(7) 0.93321(7) 0.19299(7)
O8_20 O 0.23884(8) 0.91786(8) 0.26234(7)
C6_32 C 0.19542(9) 0.87050(10) 0.14806(10)
C7_32 C 0.20836(10) 0.87962(10) 0.19474(10)
C8_32 C 0.15205(11) 0.82501(11) 0.19239(10)
H3_32 H 0.1293 0.8021 0.2027
N4_32 N 0.18032(8) 0.85013(9) 0.22187(8)
H4_32 H 0.1808 0.8480 0.2532
C9_32 C 0.20952(9) 0.89186(9) 0.10155(9)
C10_32 C 0.24260(10) 0.91281(10) 0.21865(10)
O9_32 O 0.25945(7) 0.92433(6) 0.89995(7)
O14_32 O 0.18321(7) 0.97666(7) 0.94299(7)
O1_21 O 0.35005(7) 0.67433(6) 0.50945(7)
O3_21 O 0.44299(7) 0.68321(7) 0.47666(7)
O4_21 O 0.51234(7) 0.66786(8) 0.51116(8)
C1_33 C 0.39806(10) 0.62050(10) 0.55458(9)
C2_33 C 0.44474(10) 0.62962(10) 0.54164(10)
C3_33 C 0.44239(10) 0.57501(11) 0.59795(11)
H1_33 H 0.4527 0.5521 0.6207
N2_33 N 0.47187(8) 0.60013(9) 0.56968(8)
H2_33 H 0.5032 0.5980 0.5692
C4_33 C 0.35155(9) 0.64186(9) 0.54048(9)
C5_33 C 0.46865(10) 0.66281(10) 0.50740(10)
O5_21 O 0.39995(7) 0.75945(7) 0.42433(6)
O7_21 O 0.30701(7) 0.72666(7) 0.43321(7)
O8_21 O 0.23766(7) 0.76116(8) 0.41786(8)
C6_33 C 0.35194(10) 0.80458(9) 0.37050(10)
C7_33 C 0.30526(10) 0.79164(10) 0.37962(10)
C8_33 C 0.30761(10) 0.84795(11) 0.32501(11)
H3_33 H 0.2973 0.8707 0.3021
N4_33 N 0.27813(8) 0.81968(8) 0.35013(9)
H4_33 H 0.2468 0.8192 0.3480
C9_33 C 0.39845(9) 0.79048(9) 0.39186(9)
C10_33 C 0.28135(10) 0.75740(10) 0.41281(10)
O9_33 O 0.60005(7) 0.74055(7) 0.42433(6)
O14_33 O 0.55701(7) 0.81679(7) 0.47666(7)
O15_33 O 0.48766(7) 0.83214(8) 0.51116(8)
O3_22 O 0.55701(7) 0.18321(7) 0.02334(7)
O5_22 O 0.60005(7) 0.25945(7) 0.07567(6)
O7_22 O 0.69299(7) 0.22666(7) 0.06679(7)
O8_22 O 0.76234(7) 0.26116(8) 0.08214(8)
C6_34 C 0.64806(10) 0.30458(9) 0.12950(10)
C7_34 C 0.69474(10) 0.29164(10) 0.12038(10)
C8_34 C 0.69239(10) 0.34795(11) 0.17499(11)
H3_34 H 0.7027 0.3707 0.1979
N4_34 N 0.72187(8) 0.31968(8) 0.14987(9)
H4_34 H 0.7532 0.3192 0.1520
C9_34 C 0.60155(9) 0.29048(9) 0.10814(9)
C10_34 C 0.71865(10) 0.25740(10) 0.08719(10)
O9_34 O 0.39995(7) 0.24055(7) 0.07567(6)
O14_34 O 0.44299(7) 0.31679(7) 0.02334(7)
O1_22 O 0.64995(7) 0.17433(6) 0.99055(7)
O4_22 O 0.48766(7) 0.16786(8) 0.98884(8)
C1_34 C 0.60194(10) 0.12050(10) 0.94542(9)
C2_34 C 0.55526(10) 0.12962(10) 0.95836(10)
C3_34 C 0.55761(10) 0.07501(11) 0.90205(11)
H1_34 H 0.5473 0.0521 0.8793
N2_34 N 0.52813(8) 0.10013(9) 0.93032(8)
H2_34 H 0.4968 0.0980 0.9308
C4_34 C 0.64845(9) 0.14186(9) 0.95952(9)
C5_34 C 0.53135(10) 0.16281(10) 0.99260(10)
O15_34 O 0.51234(7) 0.33214(8) 0.98884(8)
O4_23 O 0.01234(7) 0.83214(8) 0.48884(8)
H2_35 H 0.0032 0.9020 0.4308
O9_35 O 0.10005(7) 0.75945(7) 0.57567(6)
O14_35 O 0.05701(7) 0.68321(7) 0.52334(7)
O1_23 O 0.85005(7) 0.82567(6) 0.49055(7)
O3_23 O 0.94299(7) 0.81679(7) 0.52334(7)
C1_35 C 0.89806(10) 0.87950(10) 0.44542(9)
C2_35 C 0.94474(10) 0.87038(10) 0.45836(10)
C3_35 C 0.94239(10) 0.92499(11) 0.40205(11)
H1_35 H 0.9527 0.9479 0.3793
N2_35 N 0.97187(8) 0.89987(9) 0.43032(8)
C4_35 C 0.85155(9) 0.85814(9) 0.45952(9)
C5_35 C 0.96865(10) 0.83719(10) 0.49260(10)
O5_23 O 0.89995(7) 0.74055(7) 0.57567(6)
O7_23 O 0.80701(7) 0.77334(7) 0.56679(7)
O8_23 O 0.73766(7) 0.73884(8) 0.58214(8)
C6_35 C 0.85194(10) 0.69542(9) 0.62950(10)
C7_35 C 0.80526(10) 0.70836(10) 0.62038(10)
C8_35 C 0.80761(10) 0.65205(11) 0.67499(11)
H3_35 H 0.7973 0.6293 0.6979
N4_35 N 0.77813(8) 0.68032(8) 0.64987(9)
H4_35 H 0.7468 0.6808 0.6520
C9_35 C 0.89845(9) 0.70952(9) 0.60814(9)
C10_35 C 0.78135(10) 0.74260(10) 0.58719(10)
O15_35 O 0.98766(7) 0.66786(8) 0.48884(8)
O1_24 O 0.14995(7) 0.32567(6) 0.00945(7)
C1_36 C 0.10194(10) 0.37950(10) 0.05458(9)
C2_36 C 0.05526(10) 0.37038(10) 0.04164(10)
C3_36 C 0.05761(10) 0.42499(11) 0.09795(11)
H1_36 H 0.0473 0.4479 0.1207
N2_36 N 0.02813(8) 0.39987(9) 0.06968(8)
C4_36 C 0.14845(9) 0.35814(9) 0.04048(9)
C5_36 C 0.03135(10) 0.33719(10) 0.00740(10)
O15_36 O 0.01234(7) 0.16786(8) 0.01116(8)
O3_24 O 0.05701(7) 0.31679(7) 0.97666(7)
O5_24 O 0.10005(7) 0.24055(7) 0.92433(6)
O7_24 O 0.19299(7) 0.27334(7) 0.93321(7)
O8_24 O 0.26234(7) 0.23884(8) 0.91786(8)
C6_36 C 0.14806(10) 0.19542(9) 0.87050(10)
C7_36 C 0.19474(10) 0.20836(10) 0.87962(10)
C8_36 C 0.19239(10) 0.15205(11) 0.82501(11)
H3_36 H 0.2027 0.1293 0.8021
N4_36 N 0.22187(8) 0.18032(8) 0.85013(9)
H4_36 H 0.2532 0.1808 0.8480
C9_36 C 0.10155(9) 0.20952(9) 0.89186(9)
C10_36 C 0.21865(10) 0.24260(10) 0.91281(10)
O4_24 O 0.98766(7) 0.33214(8) 0.01116(8)
H2_36 H 0.9968 0.4020 0.0692
O9_36 O 0.89995(7) 0.25945(7) 0.92433(6)
O14_36 O 0.94299(7) 0.18321(7) 0.97666(7)
O9_37 O 0.85005(7) 0.17433(6) 0.00945(7)
O14_37 O 0.80701(7) 0.22666(7) 0.93321(7)
O15_37 O 0.73766(7) 0.26116(8) 0.91786(8)
O9_38 O 0.64995(7) 0.82567(6) 0.50945(7)
O14_38 O 0.69299(7) 0.77334(7) 0.43321(7)
O15_38 O 0.76234(7) 0.73884(8) 0.41786(8)
O14_39 O 0.30701(7) 0.27334(7) 0.06679(7)
O15_39 O 0.23766(7) 0.23884(8) 0.08214(8)
O9_39 O 0.35005(7) 0.32567(6) 0.99055(7)
O9_40 O 0.14995(7) 0.67433(6) 0.49055(7)
O14_40 O 0.19299(7) 0.72666(7) 0.56679(7)
O15_40 O 0.26234(7) 0.76116(8) 0.58214(8)
O9_41 O 0.67433(6) 0.49055(7) 0.14995(7)
O14_41 O 0.72666(7) 0.56679(7) 0.19299(7)
O15_41 O 0.76116(8) 0.58214(8) 0.26234(7)
O14_42 O 0.27334(7) 0.06679(7) 0.30701(7)
O15_42 O 0.23884(8) 0.08214(8) 0.23766(7)
O9_42 O 0.32567(6) 0.99055(7) 0.35005(7)
O9_43 O 0.82567(6) 0.50945(7) 0.64995(7)
O14_43 O 0.77334(7) 0.43321(7) 0.69299(7)
O15_43 O 0.73884(8) 0.41786(8) 0.76234(7)
O9_44 O 0.17433(6) 0.00945(7) 0.85005(7)
O14_44 O 0.22666(7) 0.93321(7) 0.80701(7)
O15_44 O 0.26116(8) 0.91786(8) 0.73766(7)
O14_45 O 0.06679(7) 0.30701(7) 0.27334(7)
O15_45 O 0.08214(8) 0.23766(7) 0.23884(8)
O9_45 O 0.99055(7) 0.35005(7) 0.32567(6)
O9_46 O 0.49055(7) 0.14995(7) 0.67433(6)
O14_46 O 0.56679(7) 0.19299(7) 0.72666(7)
O15_46 O 0.58214(8) 0.26234(7) 0.76116(8)
O9_47 O 0.00945(7) 0.85005(7) 0.17433(6)
O14_47 O 0.93321(7) 0.80701(7) 0.22666(7)
O15_47 O 0.91786(8) 0.73766(7) 0.26116(8)
O9_48 O 0.50945(7) 0.64995(7) 0.82567(6)
O14_48 O 0.43321(7) 0.69299(7) 0.77334(7)
O15_48 O 0.41786(8) 0.76234(7) 0.73884(8)
H2_37 H 0.0692 0.0032 0.0980
C1_37 C 0.05458(9) 0.89806(10) 0.12050(10)
C2_37 C 0.04164(10) 0.94474(10) 0.12962(10)
C3_37 C 0.09795(11) 0.94239(10) 0.07501(11)
H1_37 H 0.1207 0.9527 0.0521
N2_37 N 0.06968(8) 0.97187(8) 0.10013(9)
C4_37 C 0.04048(9) 0.85155(9) 0.14186(9)
C5_37 C 0.00740(10) 0.96865(10) 0.16281(10)
C6_37 C 0.87050(10) 0.85194(10) 0.30458(9)
C7_37 C 0.87962(10) 0.80526(10) 0.29164(10)
C8_37 C 0.82501(11) 0.80761(10) 0.34795(11)
H3_37 H 0.8021 0.7973 0.3707
N4_37 N 0.85013(9) 0.77813(8) 0.31968(8)
H4_37 H 0.8480 0.7468 0.3192
C9_37 C 0.89186(9) 0.89845(9) 0.29048(9)
C10_37 C 0.91281(10) 0.78135(10) 0.25740(10)
C1_38 C 0.44542(9) 0.10194(10) 0.62050(10)
C2_38 C 0.45836(10) 0.05526(10) 0.62962(10)
C3_38 C 0.40205(11) 0.05761(10) 0.57501(11)
H1_38 H 0.3793 0.0473 0.5521
N2_38 N 0.43032(8) 0.02813(8) 0.60013(9)
C4_38 C 0.45952(9) 0.14845(9) 0.64186(9)
C5_38 C 0.49260(10) 0.03135(10) 0.66281(10)
C6_38 C 0.62950(10) 0.14806(10) 0.80458(9)
C7_38 C 0.62038(10) 0.19474(10) 0.79164(10)
C8_38 C 0.67499(11) 0.19239(10) 0.84795(11)
H3_38 H 0.6979 0.2027 0.8707
N4_38 N 0.64987(9) 0.22187(8) 0.81968(8)
H4_38 H 0.6520 0.2532 0.8192
C9_38 C 0.60814(9) 0.10155(9) 0.79048(9)
C10_38 C 0.58719(10) 0.21865(10) 0.75740(10)
H2_38 H 0.4308 0.9968 0.5980
C6_39 C 0.12950(10) 0.35194(10) 0.19542(9)
C7_39 C 0.12038(10) 0.30526(10) 0.20836(10)
C8_39 C 0.17499(11) 0.30761(10) 0.15205(11)
H3_39 H 0.1979 0.2973 0.1293
N4_39 N 0.14987(9) 0.27813(8) 0.18032(8)
H4_39 H 0.1520 0.2468 0.1808
C9_39 C 0.10814(9) 0.39845(9) 0.20952(9)
C10_39 C 0.08719(10) 0.28135(10) 0.24260(10)
C1_39 C 0.94542(9) 0.39806(10) 0.37950(10)
C2_39 C 0.95836(10) 0.44474(10) 0.37038(10)
C3_39 C 0.90205(11) 0.44239(10) 0.42499(11)
H1_39 H 0.8793 0.4527 0.4479
N2_39 N 0.93032(8) 0.47187(8) 0.39987(9)
H2_39 H 0.9308 0.5032 0.4020
C4_39 C 0.95952(9) 0.35155(9) 0.35814(9)
C5_39 C 0.99260(10) 0.46865(10) 0.33719(10)
C1_40 C 0.55458(9) 0.60194(10) 0.87950(10)
C2_40 C 0.54164(10) 0.55526(10) 0.87038(10)
C3_40 C 0.59795(11) 0.55761(10) 0.92499(11)
H1_40 H 0.6207 0.5473 0.9479
N2_40 N 0.56968(8) 0.52813(8) 0.89987(9)
H2_40 H 0.5692 0.4968 0.9020
C4_40 C 0.54048(9) 0.64845(9) 0.85814(9)
C5_40 C 0.50740(10) 0.53135(10) 0.83719(10)
C6_40 C 0.37050(10) 0.64806(10) 0.69542(9)
C7_40 C 0.37962(10) 0.69474(10) 0.70836(10)
C8_40 C 0.32501(11) 0.69239(10) 0.65205(11)
H3_40 H 0.3021 0.7027 0.6293
N4_40 N 0.35013(9) 0.72187(8) 0.68032(8)
H4_40 H 0.3480 0.7532 0.6808
C9_40 C 0.39186(9) 0.60155(9) 0.70952(9)
C10_40 C 0.41281(10) 0.71865(10) 0.74260(10)
H2_41 H 0.0980 0.0692 0.0032
C1_41 C 0.12050(10) 0.05458(9) 0.89806(10)
C2_41 C 0.12962(10) 0.04164(10) 0.94474(10)
C3_41 C 0.07501(11) 0.09795(11) 0.94239(10)
H1_41 H 0.0521 0.1207 0.9527
N2_41 N 0.10013(9) 0.06968(8) 0.97187(8)
C4_41 C 0.14186(9) 0.04048(9) 0.85155(9)
C5_41 C 0.16281(10) 0.00740(10) 0.96865(10)
C6_41 C 0.30458(9) 0.87050(10) 0.85194(10)
C7_41 C 0.29164(10) 0.87962(10) 0.80526(10)
C8_41 C 0.34795(11) 0.82501(11) 0.80761(10)
H3_41 H 0.3707 0.8021 0.7973
N4_41 N 0.31968(8) 0.85013(9) 0.77813(8)
H4_41 H 0.3192 0.8480 0.7468
C9_41 C 0.29048(9) 0.89186(9) 0.89845(9)
C10_41 C 0.25740(10) 0.91281(10) 0.78135(10)
C1_42 C 0.62050(10) 0.44542(9) 0.10194(10)
C2_42 C 0.62962(10) 0.45836(10) 0.05526(10)
C3_42 C 0.57501(11) 0.40205(11) 0.05761(10)
H1_42 H 0.5521 0.3793 0.0473
N2_42 N 0.60013(9) 0.43032(8) 0.02813(8)
C4_42 C 0.64186(9) 0.45952(9) 0.14845(9)
C5_42 C 0.66281(10) 0.49260(10) 0.03135(10)
C6_42 C 0.80458(9) 0.62950(10) 0.14806(10)
C7_42 C 0.79164(10) 0.62038(10) 0.19474(10)
C8_42 C 0.84795(11) 0.67499(11) 0.19239(10)
H3_42 H 0.8707 0.6979 0.2027
N4_42 N 0.81968(8) 0.64987(9) 0.22187(8)
H4_42 H 0.8192 0.6520 0.2532
C9_42 C 0.79048(9) 0.60814(9) 0.10155(9)
C10_42 C 0.75740(10) 0.58719(10) 0.21865(10)
H2_42 H 0.5980 0.4308 0.9968
C6_43 C 0.19542(9) 0.12950(10) 0.35194(10)
C7_43 C 0.20836(10) 0.12038(10) 0.30526(10)
C8_43 C 0.15205(11) 0.17499(11) 0.30761(10)
H3_43 H 0.1293 0.1979 0.2973
N4_43 N 0.18032(8) 0.14987(9) 0.27813(8)
H4_43 H 0.1808 0.1520 0.2468
C9_43 C 0.20952(9) 0.10814(9) 0.39845(9)
C10_43 C 0.24260(10) 0.08719(10) 0.28135(10)
C1_43 C 0.37950(10) 0.94542(9) 0.39806(10)
C2_43 C 0.37038(10) 0.95836(10) 0.44474(10)
C3_43 C 0.42499(11) 0.90205(11) 0.44239(10)
H1_43 H 0.4479 0.8793 0.4527
N2_43 N 0.39987(9) 0.93032(8) 0.47187(8)
H2_43 H 0.4020 0.9308 0.5032
C4_43 C 0.35814(9) 0.95952(9) 0.35155(9)
C5_43 C 0.33719(10) 0.99260(10) 0.46865(10)
C1_44 C 0.87950(10) 0.55458(9) 0.60194(10)
C2_44 C 0.87038(10) 0.54164(10) 0.55526(10)
C3_44 C 0.92499(11) 0.59795(11) 0.55761(10)
H1_44 H 0.9479 0.6207 0.5473
N2_44 N 0.89987(9) 0.56968(8) 0.52813(8)
H2_44 H 0.9020 0.5692 0.4968
C4_44 C 0.85814(9) 0.54048(9) 0.64845(9)
C5_44 C 0.83719(10) 0.50740(10) 0.53135(10)
C6_44 C 0.69542(9) 0.37050(10) 0.64806(10)
C7_44 C 0.70836(10) 0.37962(10) 0.69474(10)
C8_44 C 0.65205(11) 0.32501(11) 0.69239(10)
H3_44 H 0.6293 0.3021 0.7027
N4_44 N 0.68032(8) 0.35013(9) 0.72187(8)
H4_44 H 0.6808 0.3480 0.7532
C9_44 C 0.70952(9) 0.39186(9) 0.60155(9)
C10_44 C 0.74260(10) 0.41281(10) 0.71865(10)
H2_45 H 0.0032 0.0980 0.0692
C1_45 C 0.89806(10) 0.12050(10) 0.05458(9)
C2_45 C 0.94474(10) 0.12962(10) 0.04164(10)
C3_45 C 0.94239(10) 0.07501(11) 0.09795(11)
H1_45 H 0.9527 0.0521 0.1207
N2_45 N 0.97187(8) 0.10013(9) 0.06968(8)
C4_45 C 0.85155(9) 0.14186(9) 0.04048(9)
C5_45 C 0.96865(10) 0.16281(10) 0.00740(10)
C6_45 C 0.85194(10) 0.30458(9) 0.87050(10)
C7_45 C 0.80526(10) 0.29164(10) 0.87962(10)
C8_45 C 0.80761(10) 0.34795(11) 0.82501(11)
H3_45 H 0.7973 0.3707 0.8021
N4_45 N 0.77813(8) 0.31968(8) 0.85013(9)
H4_45 H 0.7468 0.3192 0.8480
C9_45 C 0.89845(9) 0.29048(9) 0.89186(9)
C10_45 C 0.78135(10) 0.25740(10) 0.91281(10)
C1_46 C 0.10194(10) 0.62050(10) 0.44542(9)
C2_46 C 0.05526(10) 0.62962(10) 0.45836(10)
C3_46 C 0.05761(10) 0.57501(11) 0.40205(11)
H1_46 H 0.0473 0.5521 0.3793
N2_46 N 0.02813(8) 0.60013(9) 0.43032(8)
C4_46 C 0.14845(9) 0.64186(9) 0.45952(9)
C5_46 C 0.03135(10) 0.66281(10) 0.49260(10)
C6_46 C 0.14806(10) 0.80458(9) 0.62950(10)
C7_46 C 0.19474(10) 0.79164(10) 0.62038(10)
C8_46 C 0.19239(10) 0.84795(11) 0.67499(11)
H3_46 H 0.2027 0.8707 0.6979
N4_46 N 0.22187(8) 0.81968(8) 0.64987(9)
H4_46 H 0.2532 0.8192 0.6520
C9_46 C 0.10155(9) 0.79048(9) 0.60814(9)
C10_46 C 0.21865(10) 0.75740(10) 0.58719(10)
H2_46 H 0.9968 0.5980 0.4308
C6_47 C 0.35194(10) 0.19542(9) 0.12950(10)
C7_47 C 0.30526(10) 0.20836(10) 0.12038(10)
C8_47 C 0.30761(10) 0.15205(11) 0.17499(11)
H3_47 H 0.2973 0.1293 0.1979
N4_47 N 0.27813(8) 0.18032(8) 0.14987(9)
H4_47 H 0.2468 0.1808 0.1520
C9_47 C 0.39845(9) 0.20952(9) 0.10814(9)
C10_47 C 0.28135(10) 0.24260(10) 0.08719(10)
C1_47 C 0.39806(10) 0.37950(10) 0.94542(9)
C2_47 C 0.44474(10) 0.37038(10) 0.95836(10)
C3_47 C 0.44239(10) 0.42499(11) 0.90205(11)
H1_47 H 0.4527 0.4479 0.8793
N2_47 N 0.47187(8) 0.39987(9) 0.93032(8)
H2_47 H 0.5032 0.4020 0.9308
C4_47 C 0.35155(9) 0.35814(9) 0.95952(9)
C5_47 C 0.46865(10) 0.33719(10) 0.99260(10)
C1_48 C 0.60194(10) 0.87950(10) 0.55458(9)
C2_48 C 0.55526(10) 0.87038(10) 0.54164(10)
C3_48 C 0.55761(10) 0.92499(11) 0.59795(11)
H1_48 H 0.5473 0.9479 0.6207
N2_48 N 0.52813(8) 0.89987(9) 0.56968(8)
H2_48 H 0.4968 0.9020 0.5692
C4_48 C 0.64845(9) 0.85814(9) 0.54048(9)
C5_48 C 0.53135(10) 0.83719(10) 0.50740(10)
C6_48 C 0.64806(10) 0.69542(9) 0.37050(10)
C7_48 C 0.69474(10) 0.70836(10) 0.37962(10)
C8_48 C 0.69239(10) 0.65205(11) 0.32501(11)
H3_48 H 0.7027 0.6293 0.3021
N4_48 N 0.72187(8) 0.68032(8) 0.35013(9)
H4_48 H 0.7532 0.6808 0.3480
C9_48 C 0.60155(9) 0.70952(9) 0.39186(9)
C10_48 C 0.71865(10) 0.74260(10) 0.41281(10)
loop_
_geom_bond_atom_site_label_1
_geom_bond_atom_site_label_2
_geom_bond_site_symmetry_1
_geom_bond_site_symmetry_2
Y1 O1 1_555 1_555
K1 O3 1_555 1_555
O1 C4 1_555 1_555
O2 C4 1_555 1_555
O3 Y1 1_555 1_555
O4 K1 1_555 1_555
C1 C2 1_555 1_555
C2 N2 1_555 1_555
N1 C1 1_555 1_555
C3 N1 1_555 1_555
H1 C3 1_555 1_555
N2 C3 1_555 1_555
H2 N2 1_555 1_555
C4 C1 1_555 1_555
C5 O3 1_555 1_555
O5 Y1 1_555 1_555
O6 K1 1_555 1_555
O7 Y1 1_555 1_555
O8 C10 1_555 1_555
C6 C7 1_555 1_555
C7 N4 1_555 1_555
N3 C6 1_555 1_555
C8 N3 1_555 1_555
H3 C8 1_555 1_555
N4 C8 1_555 1_555
H4 N4 1_555 1_555
C9 O5 1_555 1_555
C10 O7 1_555 1_555
Y2 O2 1_555 1_555
Y3 O6 1_555 1_555
K2 O1 1_555 1_555
K3 O2 1_555 1_555
K4 O6 1_555 1_555
O9 K1 1_555 1_555
O10 K1 1_555 1_555
O11 Y1 1_555 1_555
O12 K1 1_555 1_555
O13 Y1 1_555 1_555
O14 K1 1_555 1_555
O15 K1 1_555 1_555
N5 Y1 1_555 1_555
N6 Y1 1_555 1_555
K1 O5 1_555 1_555
K1 O11 1_555 1_555
O2 K2 1_555 1_555
O4 C5 1_555 1_555
C2 C5 1_555 1_555
N1 Y2 1_555 1_555
O6 C9 1_555 1_555
O7 K2 1_555 1_555
O8 K2 1_555 1_555
C6 C9 1_555 1_555
C7 C10 1_555 1_555
N3 Y3 1_555 1_555
K2 O13 1_555 1_555
K3 O13 1_555 1_555
K4 O10 1_555 1_555
K4 O11 1_555 1_555
K4 O12 1_555 1_555
O1_2 C4_2 1_555 1_555
O2_2 C4_2 1_555 1_555
C1_2 C2_2 1_555 1_555
C2_2 N2_2 1_555 1_555
N1_2 C1_2 1_555 1_555
C3_2 N1_2 1_555 1_555
H1_2 C3_2 1_555 1_555
N2_2 C3_2 1_555 1_555
H2_2 N2_2 1_555 1_555
C4_2 C1_2 1_555 1_555
Y2_2 O2_2 1_555 1_555
K2_2 O1_2 1_555 1_555
K3_2 O2_2 1_555 1_555
O2_2 K2_2 1_555 1_555
O4_2 C5_2 1_555 1_555
C2_2 C5_2 1_555 1_555
N1_2 Y2_2 1_555 1_555
K1_2 O3_2 1_555 1_555
O3_2 Y1_2 1_555 1_555
O5_2 Y1_2 1_555 1_555
O6_2 K1_2 1_555 1_555
O7_2 Y1_2 1_555 1_555
O8_2 C10_2 1_555 1_555
C6_2 C7_2 1_555 1_555
C7_2 N4_2 1_555 1_555
N3_2 C6_2 1_555 1_555
C8_2 N3_2 1_555 1_555
H3_2 C8_2 1_555 1_555
N4_2 C8_2 1_555 1_555
H4_2 N4_2 1_555 1_555
C9_2 O5_2 1_555 1_555
C10_2 O7_2 1_555 1_555
Y3_2 O6_2 1_555 1_555
K4_2 O6_2 1_555 1_555
O9_2 K1_2 1_555 1_555
O10_2 K1_2 1_555 1_555
O11_2 Y1_2 1_555 1_555
O12_2 K1_2 1_555 1_555
O13_2 Y1_2 1_555 1_555
O14_2 K1_2 1_555 1_555
N5_2 Y1_2 1_555 1_555
N6_2 Y1_2 1_555 1_555
K1_2 O5_2 1_555 1_555
K1_2 O11_2 1_555 1_555
O6_2 C9_2 1_555 1_555
O7_2 K2_3 1_555 1_555
O8_2 K2_3 1_555 1_555
C6_2 C9_2 1_555 1_555
C7_2 C10_2 1_555 1_555
N3_2 Y3_2 1_555 1_555
K2_3 O13_2 1_555 1_555
K3_3 O13_2 1_555 1_555
K4_2 O10_2 1_555 1_555
K4_2 O11_2 1_555 1_555
K4_2 O12_2 1_555 1_555
Y1_3 O1_3 1_555 1_555
K1_3 O3_3 1_555 1_555
O1_3 C4_3 1_555 1_555
O2_3 C4_3 1_555 1_555
O3_3 Y1_3 1_555 1_555
C1_3 C2_3 1_555 1_555
C2_3 N2_3 1_555 1_555
N1_3 C1_3 1_555 1_555
C3_3 N1_3 1_555 1_555
H1_3 C3_3 1_555 1_555
N2_3 C3_3 1_555 1_555
C4_3 C1_3 1_555 1_555
C5_3 O3_3 1_555 1_555
O5_3 Y1_3 1_555 1_555
O6_3 K1_3 1_555 1_555
O7_3 Y1_3 1_555 1_555
O8_3 C10_3 1_555 1_555
C6_3 C7_3 1_555 1_555
C7_3 N4_3 1_555 1_555
N3_3 C6_3 1_555 1_555
C8_3 N3_3 1_555 1_555
H3_3 C8_3 1_555 1_555
N4_3 C8_3 1_555 1_555
H4_3 N4_3 1_555 1_555
C9_3 O5_3 1_555 1_555
C10_3 O7_3 1_555 1_555
Y2_3 O2_3 1_555 1_555
Y3_3 O6_3 1_555 1_555
K2_4 O1_3 1_555 1_555
K3_4 O2_3 1_555 1_555
K4_3 O6_3 1_555 1_555
O11_3 Y1_3 1_555 1_555
O13_3 Y1_3 1_555 1_555
O15_3 K1_3 1_555 1_555
N5_3 Y1_3 1_555 1_555
N6_3 Y1_3 1_555 1_555
K1_3 O5_3 1_555 1_555
K1_3 O11_3 1_555 1_555
O2_3 K2_4 1_555 1_555
C2_3 C5_3 1_555 1_555
N1_3 Y2_3 1_555 1_555
O6_3 C9_3 1_555 1_555
O7_3 K2_4 1_555 1_555
O8_3 K2_4 1_555 1_555
C6_3 C9_3 1_555 1_555
C7_3 C10_3 1_555 1_555
N3_3 Y3_3 1_555 1_555
K2_4 O13_3 1_555 1_555
K3_4 O13_3 1_555 1_555
K4_3 O11_3 1_555 1_555
O4_3 K1_4 1_555 1_555
O9_3 K1_4 1_555 1_555
O10_3 K1_4 1_555 1_555
O12_3 K1_4 1_555 1_555
O14_3 K1_4 1_555 1_555
K4_4 O10_3 1_555 1_555
K4_4 O12_3 1_555 1_555
O9_4 K1_5 1_555 1_555
O10_4 K1_5 1_555 1_555
O12_4 K1_5 1_555 1_555
O14_4 K1_5 1_555 1_555
K4_5 O10_4 1_555 1_555
K4_5 O12_4 1_555 1_555
K1_6 O3_4 1_555 1_555
O3_4 Y1_4 1_555 1_555
O5_4 Y1_4 1_555 1_555
O6_4 K1_6 1_555 1_555
O7_4 Y1_4 1_555 1_555
O8_4 C10_4 1_555 1_555
C6_4 C7_4 1_555 1_555
C7_4 N4_4 1_555 1_555
N3_4 C6_4 1_555 1_555
C8_4 N3_4 1_555 1_555
H3_4 C8_4 1_555 1_555
N4_4 C8_4 1_555 1_555
H4_4 N4_4 1_555 1_555
C9_4 O5_4 1_555 1_555
C10_4 O7_4 1_555 1_555
Y3_4 O6_4 1_555 1_555
K4_6 O6_4 1_555 1_555
O11_4 Y1_4 1_555 1_555
O13_4 Y1_4 1_555 1_555
N5_4 Y1_4 1_555 1_555
N6_4 Y1_4 1_555 1_555
K1_6 O5_4 1_555 1_555
K1_6 O11_4 1_555 1_555
O6_4 C9_4 1_555 1_555
O7_4 K2_5 1_555 1_555
O8_4 K2_5 1_555 1_555
C6_4 C9_4 1_555 1_555
C7_4 C10_4 1_555 1_555
N3_4 Y3_4 1_555 1_555
K2_5 O13_4 1_555 1_555
K3_5 O13_4 1_555 1_555
K4_6 O11_4 1_555 1_555
O1_4 C4_4 1_555 1_555
O2_4 C4_4 1_555 1_555
C1_4 C2_4 1_555 1_555
C2_4 N2_4 1_555 1_555
N1_4 C1_4 1_555 1_555
C3_4 N1_4 1_555 1_555
H1_4 C3_4 1_555 1_555
N2_4 C3_4 1_555 1_555
C4_4 C1_4 1_555 1_555
Y2_4 O2_4 1_555 1_555
K2_6 O1_4 1_555 1_555
K3_6 O2_4 1_555 1_555
O2_4 K2_6 1_555 1_555
C2_4 C5_4 1_555 1_555
N1_4 Y2_4 1_555 1_555
Y1_5 O1_5 1_555 1_555
K1_7 O3_5 1_555 1_555
O1_5 C4_5 1_555 1_555
O2_5 C4_5 1_555 1_555
O3_5 Y1_5 1_555 1_555
O4_5 K1_7 1_555 1_555
C1_5 C2_5 1_555 1_555
C2_5 N2_5 1_555 1_555
N1_5 C1_5 1_555 1_555
C3_5 N1_5 1_555 1_555
H1_5 C3_5 1_555 1_555
N2_5 C3_5 1_555 1_555
H2_5 N2_5 1_555 1_555
C4_5 C1_5 1_555 1_555
C5_5 O3_5 1_555 1_555
O5_5 Y1_5 1_555 1_555
O6_5 K1_7 1_555 1_555
O7_5 Y1_5 1_555 1_555
O8_5 C10_5 1_555 1_555
C6_5 C7_5 1_555 1_555
C7_5 N4_5 1_555 1_555
N3_5 C6_5 1_555 1_555
C8_5 N3_5 1_555 1_555
H3_5 C8_5 1_555 1_555
N4_5 C8_5 1_555 1_555
H4_5 N4_5 1_555 1_555
C9_5 O5_5 1_555 1_555
C10_5 O7_5 1_555 1_555
Y2_5 O2_5 1_555 1_555
Y3_5 O6_5 1_555 1_555
K2_7 O1_5 1_555 1_555
K3_7 O2_5 1_555 1_555
K4_7 O6_5 1_555 1_555
O9_5 K1_7 1_555 1_555
O10_5 K1_7 1_555 1_555
O11_5 Y1_5 1_555 1_555
O12_5 K1_7 1_555 1_555
O13_5 Y1_5 1_555 1_555
O14_5 K1_7 1_555 1_555
O15_5 K1_7 1_555 1_555
N5_5 Y1_5 1_555 1_555
N6_5 Y1_5 1_555 1_555
K1_7 O5_5 1_555 1_555
K1_7 O11_5 1_555 1_555
O2_5 K2_7 1_555 1_555
O4_5 C5_5 1_555 1_555
C2_5 C5_5 1_555 1_555
N1_5 Y2_5 1_555 1_555
O6_5 C9_5 1_555 1_555
O7_5 K2_7 1_555 1_555
O8_5 K2_7 1_555 1_555
C6_5 C9_5 1_555 1_555
C7_5 C10_5 1_555 1_555
N3_5 Y3_5 1_555 1_555
K2_7 O13_5 1_555 1_555
K3_7 O13_5 1_555 1_555
K4_7 O10_5 1_555 1_555
K4_7 O11_5 1_555 1_555
K4_7 O12_5 1_555 1_555
O1_6 C4_6 1_555 1_555
O2_6 C4_6 1_555 1_555
C1_6 C2_6 1_555 1_555
C2_6 N2_6 1_555 1_555
N1_6 C1_6 1_555 1_555
C3_6 N1_6 1_555 1_555
H1_6 C3_6 1_555 1_555
N2_6 C3_6 1_555 1_555
H2_6 N2_6 1_555 1_555
C4_6 C1_6 1_555 1_555
Y2_6 O2_6 1_555 1_555
K2_8 O1_6 1_555 1_555
K3_8 O2_6 1_555 1_555
O2_6 K2_8 1_555 1_555
O4_6 C5_6 1_555 1_555
C2_6 C5_6 1_555 1_555
N1_6 Y2_6 1_555 1_555
K1_8 O3_6 1_555 1_555
O3_6 Y1_6 1_555 1_555
O5_6 Y1_6 1_555 1_555
O6_6 K1_8 1_555 1_555
O7_6 Y1_6 1_555 1_555
O8_6 C10_6 1_555 1_555
C6_6 C7_6 1_555 1_555
C7_6 N4_6 1_555 1_555
N3_6 C6_6 1_555 1_555
C8_6 N3_6 1_555 1_555
H3_6 C8_6 1_555 1_555
N4_6 C8_6 1_555 1_555
H4_6 N4_6 1_555 1_555
C9_6 O5_6 1_555 1_555
C10_6 O7_6 1_555 1_555
Y3_6 O6_6 1_555 1_555
K4_8 O6_6 1_555 1_555
O9_6 K1_8 1_555 1_555
O10_6 K1_8 1_555 1_555
O11_6 Y1_6 1_555 1_555
O12_6 K1_8 1_555 1_555
O13_6 Y1_6 1_555 1_555
O14_6 K1_8 1_555 1_555
N5_6 Y1_6 1_555 1_555
N6_6 Y1_6 1_555 1_555
K1_8 O5_6 1_555 1_555
K1_8 O11_6 1_555 1_555
O6_6 C9_6 1_555 1_555
O7_6 K2_9 1_555 1_555
O8_6 K2_9 1_555 1_555
C6_6 C9_6 1_555 1_555
C7_6 C10_6 1_555 1_555
N3_6 Y3_6 1_555 1_555
K2_9 O13_6 1_555 1_555
K3_9 O13_6 1_555 1_555
K4_8 O10_6 1_555 1_555
K4_8 O11_6 1_555 1_555
K4_8 O12_6 1_555 1_555
Y1_7 O1_7 1_555 1_555
K1_9 O3_7 1_555 1_555
O1_7 C4_7 1_555 1_555
O2_7 C4_7 1_555 1_555
O3_7 Y1_7 1_555 1_555
C1_7 C2_7 1_555 1_555
C2_7 N2_7 1_555 1_555
N1_7 C1_7 1_555 1_555
C3_7 N1_7 1_555 1_555
H1_7 C3_7 1_555 1_555
N2_7 C3_7 1_555 1_555
C4_7 C1_7 1_555 1_555
C5_7 O3_7 1_555 1_555
O5_7 Y1_7 1_555 1_555
O6_7 K1_9 1_555 1_555
O7_7 Y1_7 1_555 1_555
O8_7 C10_7 1_555 1_555
C6_7 C7_7 1_555 1_555
C7_7 N4_7 1_555 1_555
N3_7 C6_7 1_555 1_555
C8_7 N3_7 1_555 1_555
H3_7 C8_7 1_555 1_555
N4_7 C8_7 1_555 1_555
H4_7 N4_7 1_555 1_555
C9_7 O5_7 1_555 1_555
C10_7 O7_7 1_555 1_555
Y2_7 O2_7 1_555 1_555
Y3_7 O6_7 1_555 1_555
K2_10 O1_7 1_555 1_555
K3_10 O2_7 1_555 1_555
K4_9 O6_7 1_555 1_555
O11_7 Y1_7 1_555 1_555
O13_7 Y1_7 1_555 1_555
O15_7 K1_9 1_555 1_555
N5_7 Y1_7 1_555 1_555
N6_7 Y1_7 1_555 1_555
K1_9 O5_7 1_555 1_555
K1_9 O11_7 1_555 1_555
O2_7 K2_10 1_555 1_555
C2_7 C5_7 1_555 1_555
N1_7 Y2_7 1_555 1_555
O6_7 C9_7 1_555 1_555
O7_7 K2_10 1_555 1_555
O8_7 K2_10 1_555 1_555
C6_7 C9_7 1_555 1_555
C7_7 C10_7 1_555 1_555
N3_7 Y3_7 1_555 1_555
K2_10 O13_7 1_555 1_555
K3_10 O13_7 1_555 1_555
K4_9 O11_7 1_555 1_555
O4_7 K1_10 1_555 1_555
O9_7 K1_10 1_555 1_555
O10_7 K1_10 1_555 1_555
O12_7 K1_10 1_555 1_555
O14_7 K1_10 1_555 1_555
K4_10 O10_7 1_555 1_555
K4_10 O12_7 1_555 1_555
O9_8 K1_11 1_555 1_555
O10_8 K1_11 1_555 1_555
O12_8 K1_11 1_555 1_555
O14_8 K1_11 1_555 1_555
K4_11 O10_8 1_555 1_555
K4_11 O12_8 1_555 1_555
K1_12 O3_8 1_555 1_555
O3_8 Y1_8 1_555 1_555
O5_8 Y1_8 1_555 1_555
O6_8 K1_12 1_555 1_555
O7_8 Y1_8 1_555 1_555
O8_8 C10_8 1_555 1_555
C6_8 C7_8 1_555 1_555
C7_8 N4_8 1_555 1_555
N3_8 C6_8 1_555 1_555
C8_8 N3_8 1_555 1_555
H3_8 C8_8 1_555 1_555
N4_8 C8_8 1_555 1_555
H4_8 N4_8 1_555 1_555
C9_8 O5_8 1_555 1_555
C10_8 O7_8 1_555 1_555
Y3_8 O6_8 1_555 1_555
K4_12 O6_8 1_555 1_555
O11_8 Y1_8 1_555 1_555
O13_8 Y1_8 1_555 1_555
N5_8 Y1_8 1_555 1_555
N6_8 Y1_8 1_555 1_555
K1_12 O5_8 1_555 1_555
K1_12 O11_8 1_555 1_555
O6_8 C9_8 1_555 1_555
O7_8 K2_11 1_555 1_555
O8_8 K2_11 1_555 1_555
C6_8 C9_8 1_555 1_555
C7_8 C10_8 1_555 1_555
N3_8 Y3_8 1_555 1_555
K2_11 O13_8 1_555 1_555
K3_11 O13_8 1_555 1_555
K4_12 O11_8 1_555 1_555
O1_8 C4_8 1_555 1_555
O2_8 C4_8 1_555 1_555
C1_8 C2_8 1_555 1_555
C2_8 N2_8 1_555 1_555
N1_8 C1_8 1_555 1_555
C3_8 N1_8 1_555 1_555
H1_8 C3_8 1_555 1_555
N2_8 C3_8 1_555 1_555
C4_8 C1_8 1_555 1_555
Y2_8 O2_8 1_555 1_555
K2_12 O1_8 1_555 1_555
K3_12 O2_8 1_555 1_555
O2_8 K2_12 1_555 1_555
C2_8 C5_8 1_555 1_555
N1_8 Y2_8 1_555 1_555
Y1_9 O1_9 1_555 1_555
K1_13 O3_9 1_555 1_555
O1_9 C4_9 1_555 1_555
O2_9 C4_9 1_555 1_555
O3_9 Y1_9 1_555 1_555
O4_9 K1_13 1_555 1_555
C1_9 C2_9 1_555 1_555
C2_9 N2_9 1_555 1_555
N1_9 C1_9 1_555 1_555
C3_9 N1_9 1_555 1_555
H1_9 C3_9 1_555 1_555
N2_9 C3_9 1_555 1_555
H2_9 N2_9 1_555 1_555
C4_9 C1_9 1_555 1_555
C5_9 O3_9 1_555 1_555
O5_9 Y1_9 1_555 1_555
O6_9 K1_13 1_555 1_555
O7_9 Y1_9 1_555 1_555
O8_9 C10_9 1_555 1_555
C6_9 C7_9 1_555 1_555
C7_9 N4_9 1_555 1_555
N3_9 C6_9 1_555 1_555
C8_9 N3_9 1_555 1_555
H3_9 C8_9 1_555 1_555
N4_9 C8_9 1_555 1_555
H4_9 N4_9 1_555 1_555
C9_9 O5_9 1_555 1_555
C10_9 O7_9 1_555 1_555
Y2_9 O2_9 1_555 1_555
Y3_9 O6_9 1_555 1_555
K2_13 O1_9 1_555 1_555
K3_13 O2_9 1_555 1_555
K4_13 O6_9 1_555 1_555
O9_9 K1_13 1_555 1_555
O10_9 K1_13 1_555 1_555
O11_9 Y1_9 1_555 1_555
O12_9 K1_13 1_555 1_555
O13_9 Y1_9 1_555 1_555
O14_9 K1_13 1_555 1_555
O15_9 K1_13 1_555 1_555
N5_9 Y1_9 1_555 1_555
N6_9 Y1_9 1_555 1_555
K1_13 O5_9 1_555 1_555
K1_13 O11_9 1_555 1_555
O2_9 K2_13 1_555 1_555
O4_9 C5_9 1_555 1_555
C2_9 C5_9 1_555 1_555
N1_9 Y2_9 1_555 1_555
O6_9 C9_9 1_555 1_555
O7_9 K2_13 1_555 1_555
O8_9 K2_13 1_555 1_555
C6_9 C9_9 1_555 1_555
C7_9 C10_9 1_555 1_555
N3_9 Y3_9 1_555 1_555
K2_13 O13_9 1_555 1_555
K3_13 O13_9 1_555 1_555
K4_13 O10_9 1_555 1_555
K4_13 O11_9 1_555 1_555
K4_13 O12_9 1_555 1_555
O1_10 C4_10 1_555 1_555
O2_10 C4_10 1_555 1_555
C1_10 C2_10 1_555 1_555
C2_10 N2_10 1_555 1_555
N1_10 C1_10 1_555 1_555
C3_10 N1_10 1_555 1_555
H1_10 C3_10 1_555 1_555
N2_10 C3_10 1_555 1_555
H2_10 N2_10 1_555 1_555
C4_10 C1_10 1_555 1_555
Y2_10 O2_10 1_555 1_555
K2_14 O1_10 1_555 1_555
K3_14 O2_10 1_555 1_555
O2_10 K2_14 1_555 1_555
O4_10 C5_10 1_555 1_555
C2_10 C5_10 1_555 1_555
N1_10 Y2_10 1_555 1_555
K1_14 O3_10 1_555 1_555
O3_10 Y1_10 1_555 1_555
O5_10 Y1_10 1_555 1_555
O6_10 K1_14 1_555 1_555
O7_10 Y1_10 1_555 1_555
O8_10 C10_10 1_555 1_555
C6_10 C7_10 1_555 1_555
C7_10 N4_10 1_555 1_555
N3_10 C6_10 1_555 1_555
C8_10 N3_10 1_555 1_555
H3_10 C8_10 1_555 1_555
N4_10 C8_10 1_555 1_555
H4_10 N4_10 1_555 1_555
C9_10 O5_10 1_555 1_555
C10_10 O7_10 1_555 1_555
Y3_10 O6_10 1_555 1_555
K4_14 O6_10 1_555 1_555
O9_10 K1_14 1_555 1_555
O10_10 K1_14 1_555 1_555
O11_10 Y1_10 1_555 1_555
O12_10 K1_14 1_555 1_555
O13_10 Y1_10 1_555 1_555
O14_10 K1_14 1_555 1_555
N5_10 Y1_10 1_555 1_555
N6_10 Y1_10 1_555 1_555
K1_14 O5_10 1_555 1_555
K1_14 O11_10 1_555 1_555
O6_10 C9_10 1_555 1_555
O7_10 K2_15 1_555 1_555
O8_10 K2_15 1_555 1_555
C6_10 C9_10 1_555 1_555
C7_10 C10_10 1_555 1_555
N3_10 Y3_10 1_555 1_555
K2_15 O13_10 1_555 1_555
K3_15 O13_10 1_555 1_555
K4_14 O10_10 1_555 1_555
K4_14 O11_10 1_555 1_555
K4_14 O12_10 1_555 1_555
Y1_11 O1_11 1_555 1_555
K1_15 O3_11 1_555 1_555
O1_11 C4_11 1_555 1_555
O2_11 C4_11 1_555 1_555
O3_11 Y1_11 1_555 1_555
C1_11 C2_11 1_555 1_555
C2_11 N2_11 1_555 1_555
N1_11 C1_11 1_555 1_555
C3_11 N1_11 1_555 1_555
H1_11 C3_11 1_555 1_555
N2_11 C3_11 1_555 1_555
C4_11 C1_11 1_555 1_555
C5_11 O3_11 1_555 1_555
O5_11 Y1_11 1_555 1_555
O6_11 K1_15 1_555 1_555
O7_11 Y1_11 1_555 1_555
O8_11 C10_11 1_555 1_555
C6_11 C7_11 1_555 1_555
C7_11 N4_11 1_555 1_555
N3_11 C6_11 1_555 1_555
C8_11 N3_11 1_555 1_555
H3_11 C8_11 1_555 1_555
N4_11 C8_11 1_555 1_555
H4_11 N4_11 1_555 1_555
C9_11 O5_11 1_555 1_555
C10_11 O7_11 1_555 1_555
Y2_11 O2_11 1_555 1_555
Y3_11 O6_11 1_555 1_555
K2_16 O1_11 1_555 1_555
K3_16 O2_11 1_555 1_555
K4_15 O6_11 1_555 1_555
O11_11 Y1_11 1_555 1_555
O13_11 Y1_11 1_555 1_555
O15_11 K1_15 1_555 1_555
N5_11 Y1_11 1_555 1_555
N6_11 Y1_11 1_555 1_555
K1_15 O5_11 1_555 1_555
K1_15 O11_11 1_555 1_555
O2_11 K2_16 1_555 1_555
C2_11 C5_11 1_555 1_555
N1_11 Y2_11 1_555 1_555
O6_11 C9_11 1_555 1_555
O7_11 K2_16 1_555 1_555
O8_11 K2_16 1_555 1_555
C6_11 C9_11 1_555 1_555
C7_11 C10_11 1_555 1_555
N3_11 Y3_11 1_555 1_555
K2_16 O13_11 1_555 1_555
K3_16 O13_11 1_555 1_555
K4_15 O11_11 1_555 1_555
O4_11 K1_16 1_555 1_555
O9_11 K1_16 1_555 1_555
O10_11 K1_16 1_555 1_555
O12_11 K1_16 1_555 1_555
O14_11 K1_16 1_555 1_555
K4_16 O10_11 1_555 1_555
K4_16 O12_11 1_555 1_555
O9_12 K1_17 1_555 1_555
O10_12 K1_17 1_555 1_555
O12_12 K1_17 1_555 1_555
O14_12 K1_17 1_555 1_555
K4_17 O10_12 1_555 1_555
K4_17 O12_12 1_555 1_555
K1_18 O3_12 1_555 1_555
O3_12 Y1_12 1_555 1_555
O5_12 Y1_12 1_555 1_555
O6_12 K1_18 1_555 1_555
O7_12 Y1_12 1_555 1_555
O8_12 C10_12 1_555 1_555
C6_12 C7_12 1_555 1_555
C7_12 N4_12 1_555 1_555
N3_12 C6_12 1_555 1_555
C8_12 N3_12 1_555 1_555
H3_12 C8_12 1_555 1_555
N4_12 C8_12 1_555 1_555
H4_12 N4_12 1_555 1_555
C9_12 O5_12 1_555 1_555
C10_12 O7_12 1_555 1_555
Y3_12 O6_12 1_555 1_555
K4_18 O6_12 1_555 1_555
O11_12 Y1_12 1_555 1_555
O13_12 Y1_12 1_555 1_555
N5_12 Y1_12 1_555 1_555
N6_12 Y1_12 1_555 1_555
K1_18 O5_12 1_555 1_555
K1_18 O11_12 1_555 1_555
O6_12 C9_12 1_555 1_555
O7_12 K2_17 1_555 1_555
O8_12 K2_17 1_555 1_555
C6_12 C9_12 1_555 1_555
C7_12 C10_12 1_555 1_555
N3_12 Y3_12 1_555 1_555
K2_17 O13_12 1_555 1_555
K3_17 O13_12 1_555 1_555
K4_18 O11_12 1_555 1_555
O1_12 C4_12 1_555 1_555
O2_12 C4_12 1_555 1_555
C1_12 C2_12 1_555 1_555
C2_12 N2_12 1_555 1_555
N1_12 C1_12 1_555 1_555
C3_12 N1_12 1_555 1_555
H1_12 C3_12 1_555 1_555
N2_12 C3_12 1_555 1_555
C4_12 C1_12 1_555 1_555
Y2_12 O2_12 1_555 1_555
K2_18 O1_12 1_555 1_555
K3_18 O2_12 1_555 1_555
O2_12 K2_18 1_555 1_555
C2_12 C5_12 1_555 1_555
N1_12 Y2_12 1_555 1_555
O12_13 K2_14 1_555 1_555
O14_13 K2_14 1_555 1_555
O15_13 K2_14 1_555 1_555
K3_14 O12_13 1_555 1_555
O9_13 K2_15 1_555 1_555
O10_13 K2_15 1_555 1_555
K3_15 O10_13 1_555 1_555
O9_14 K2_16 1_555 1_555
O10_14 K2_16 1_555 1_555
O12_14 K2_16 1_555 1_555
O14_14 K2_16 1_555 1_555
O15_14 K2_16 1_555 1_555
K3_16 O10_14 1_555 1_555
K3_16 O12_14 1_555 1_555
O9_15 K2_17 1_555 1_555
O10_15 K2_17 1_555 1_555
K3_17 O10_15 1_555 1_555
O12_15 K2_18 1_555 1_555
O14_15 K2_18 1_555 1_555
O15_15 K2_18 1_555 1_555
K3_18 O12_15 1_555 1_555
O9_16 K2_13 1_555 1_555
O10_16 K2_13 1_555 1_555
O12_16 K2_13 1_555 1_555
O14_16 K2_13 1_555 1_555
O15_16 K2_13 1_555 1_555
K3_13 O10_16 1_555 1_555
K3_13 O12_16 1_555 1_555
O9_17 K2_7 1_555 1_555
O10_17 K2_7 1_555 1_555
O12_17 K2_7 1_555 1_555
O14_17 K2_7 1_555 1_555
O15_17 K2_7 1_555 1_555
K3_7 O10_17 1_555 1_555
K3_7 O12_17 1_555 1_555
O9_18 K2_11 1_555 1_555
O10_18 K2_11 1_555 1_555
K3_11 O10_18 1_555 1_555
O12_18 K2_12 1_555 1_555
O14_18 K2_12 1_555 1_555
O15_18 K2_12 1_555 1_555
K3_12 O12_18 1_555 1_555
O9_19 K2_10 1_555 1_555
O10_19 K2_10 1_555 1_555
O12_19 K2_10 1_555 1_555
O14_19 K2_10 1_555 1_555
O15_19 K2_10 1_555 1_555
K3_10 O10_19 1_555 1_555
K3_10 O12_19 1_555 1_555
O12_20 K2_8 1_555 1_555
O14_20 K2_8 1_555 1_555
O15_20 K2_8 1_555 1_555
K3_8 O12_20 1_555 1_555
O9_20 K2_9 1_555 1_555
O10_20 K2_9 1_555 1_555
K3_9 O10_20 1_555 1_555
O9_21 K2_5 1_555 1_555
O10_21 K2_5 1_555 1_555
K3_5 O10_21 1_555 1_555
O12_21 K2_6 1_555 1_555
O14_21 K2_6 1_555 1_555
O15_21 K2_6 1_555 1_555
K3_6 O12_21 1_555 1_555
O9_22 K2 1_555 1_555
O10_22 K2 1_555 1_555
O12_22 K2 1_555 1_555
O14_22 K2 1_555 1_555
O15_22 K2 1_555 1_555
K3 O10_22 1_555 1_555
K3 O12_22 1_555 1_555
O12_23 K2_2 1_555 1_555
O14_23 K2_2 1_555 1_555
O15_23 K2_2 1_555 1_555
K3_2 O12_23 1_555 1_555
O9_23 K2_3 1_555 1_555
O10_23 K2_3 1_555 1_555
K3_3 O10_23 1_555 1_555
O9_24 K2_4 1_555 1_555
O10_24 K2_4 1_555 1_555
O12_24 K2_4 1_555 1_555
O14_24 K2_4 1_555 1_555
O15_24 K2_4 1_555 1_555
K3_4 O10_24 1_555 1_555
K3_4 O12_24 1_555 1_555
O14_4 Y1_13 1_555 1_555
O9_4 Y1_13 1_555 1_555
O14_23 Y1_13 1_555 1_555
O15_23 C10_13 1_555 1_555
C6_13 C7_13 1_555 1_555
C7_13 N4_13 1_555 1_555
N3_13 C6_13 1_555 1_555
C8_13 N3_13 1_555 1_555
H3_13 C8_13 1_555 1_555
N4_13 C8_13 1_555 1_555
H4_13 N4_13 1_555 1_555
C9_13 O9_4 1_555 1_555
C10_13 O14_23 1_555 1_555
Y2_11 O10_4 1_555 1_555
O12_4 Y1_13 1_555 1_555
O12_23 Y1_13 1_555 1_555
N5_13 Y1_13 1_555 1_555
N6_13 Y1_13 1_555 1_555
O10_4 C9_13 1_555 1_555
C6_13 C9_13 1_555 1_555
C7_13 C10_13 1_555 1_555
N3_13 Y2_11 1_555 1_555
O9_23 C4_13 1_555 1_555
O10_23 C4_13 1_555 1_555
C1_13 C2_13 1_555 1_555
C2_13 N2_13 1_555 1_555
N1_13 C1_13 1_555 1_555
C3_13 N1_13 1_555 1_555
H1_13 C3_13 1_555 1_555
N2_13 C3_13 1_555 1_555
C4_13 C1_13 1_555 1_555
Y3_8 O10_23 1_555 1_555
C2_13 C5_13 1_555 1_555
N1_13 Y3_8 1_555 1_555
Y1_14 O9_22 1_555 1_555
O9_22 C4_14 1_555 1_555
O10_22 C4_14 1_555 1_555
O14_3 Y1_14 1_555 1_555
C1_14 C2_14 1_555 1_555
C2_14 N2_14 1_555 1_555
N1_14 C1_14 1_555 1_555
C3_14 N1_14 1_555 1_555
H1_14 C3_14 1_555 1_555
N2_14 C3_14 1_555 1_555
C4_14 C1_14 1_555 1_555
C5_14 O14_3 1_555 1_555
O9_3 Y1_14 1_555 1_555
O14_22 Y1_14 1_555 1_555
O15_22 C10_14 1_555 1_555
C6_14 C7_14 1_555 1_555
C7_14 N4_14 1_555 1_555
N3_14 C6_14 1_555 1_555
C8_14 N3_14 1_555 1_555
H3_14 C8_14 1_555 1_555
N4_14 C8_14 1_555 1_555
H4_14 N4_14 1_555 1_555
C9_14 O9_3 1_555 1_555
C10_14 O14_22 1_555 1_555
Y3_6 O10_22 1_555 1_555
Y2_10 O10_3 1_555 1_555
O12_3 Y1_14 1_555 1_555
O12_22 Y1_14 1_555 1_555
N5_14 Y1_14 1_555 1_555
N6_14 Y1_14 1_555 1_555
C2_14 C5_14 1_555 1_555
N1_14 Y3_6 1_555 1_555
O10_3 C9_14 1_555 1_555
C6_14 C9_14 1_555 1_555
C7_14 C10_14 1_555 1_555
N3_14 Y2_10 1_555 1_555
O9_21 C4_15 1_555 1_555
O10_21 C4_15 1_555 1_555
C1_15 C2_15 1_555 1_555
C2_15 N2_15 1_555 1_555
N1_15 C1_15 1_555 1_555
C3_15 N1_15 1_555 1_555
H1_15 C3_15 1_555 1_555
N2_15 C3_15 1_555 1_555
H2_15 N2_15 1_555 1_555
C4_15 C1_15 1_555 1_555
Y3_5 O10_21 1_555 1_555
O15_2 C5_15 1_555 1_555
C2_15 C5_15 1_555 1_555
N1_15 Y3_5 1_555 1_555
O14_2 Y1_15 1_555 1_555
O9_2 Y1_15 1_555 1_555
O14_21 Y1_15 1_555 1_555
O15_21 C10_15 1_555 1_555
C6_15 C7_15 1_555 1_555
C7_15 N4_15 1_555 1_555
N3_15 C6_15 1_555 1_555
C8_15 N3_15 1_555 1_555
H3_15 C8_15 1_555 1_555
N4_15 C8_15 1_555 1_555
H4_15 N4_15 1_555 1_555
C9_15 O9_2 1_555 1_555
C10_15 O14_21 1_555 1_555
Y2_12 O10_2 1_555 1_555
O12_2 Y1_15 1_555 1_555
O12_21 Y1_15 1_555 1_555
N5_15 Y1_15 1_555 1_555
N6_15 Y1_15 1_555 1_555
O10_2 C9_15 1_555 1_555
C6_15 C9_15 1_555 1_555
C7_15 C10_15 1_555 1_555
N3_15 Y2_12 1_555 1_555
Y1_16 O9_24 1_555 1_555
O9_24 C4_16 1_555 1_555
O10_24 C4_16 1_555 1_555
O14 Y1_16 1_555 1_555
C1_16 C2_16 1_555 1_555
C2_16 N2_16 1_555 1_555
N1_16 C1_16 1_555 1_555
C3_16 N1_16 1_555 1_555
H1_16 C3_16 1_555 1_555
N2_16 C3_16 1_555 1_555
H2_16 N2_16 1_555 1_555
C4_16 C1_16 1_555 1_555
C5_16 O14 1_555 1_555
O9 Y1_16 1_555 1_555
O14_24 Y1_16 1_555 1_555
O15_24 C10_16 1_555 1_555
C6_16 C7_16 1_555 1_555
C7_16 N4_16 1_555 1_555
N3_16 C6_16 1_555 1_555
C8_16 N3_16 1_555 1_555
H3_16 C8_16 1_555 1_555
N4_16 C8_16 1_555 1_555
H4_16 N4_16 1_555 1_555
C9_16 O9 1_555 1_555
C10_16 O14_24 1_555 1_555
Y3_7 O10_24 1_555 1_555
Y2_9 O10 1_555 1_555
O12 Y1_16 1_555 1_555
O12_24 Y1_16 1_555 1_555
N5_16 Y1_16 1_555 1_555
N6_16 Y1_16 1_555 1_555
O15 C5_16 1_555 1_555
C2_16 C5_16 1_555 1_555
N1_16 Y3_7 1_555 1_555
O10 C9_16 1_555 1_555
C6_16 C9_16 1_555 1_555
C7_16 C10_16 1_555 1_555
N3_16 Y2_9 1_555 1_555
O14_8 Y1_17 1_555 1_555
O9_8 Y1_17 1_555 1_555
O14_20 Y1_17 1_555 1_555
O15_20 C10_17 1_555 1_555
C6_17 C7_17 1_555 1_555
C7_17 N4_17 1_555 1_555
N3_17 C6_17 1_555 1_555
C8_17 N3_17 1_555 1_555
H3_17 C8_17 1_555 1_555
N4_17 C8_17 1_555 1_555
H4_17 N4_17 1_555 1_555
C9_17 O9_8 1_555 1_555
C10_17 O14_20 1_555 1_555
Y2_3 O10_8 1_555 1_555
O12_8 Y1_17 1_555 1_555
O12_20 Y1_17 1_555 1_555
N5_17 Y1_17 1_555 1_555
N6_17 Y1_17 1_555 1_555
O10_8 C9_17 1_555 1_555
C6_17 C9_17 1_555 1_555
C7_17 C10_17 1_555 1_555
N3_17 Y2_3 1_555 1_555
O9_20 C4_17 1_555 1_555
O10_20 C4_17 1_555 1_555
C1_17 C2_17 1_555 1_555
C2_17 N2_17 1_555 1_555
N1_17 C1_17 1_555 1_555
C3_17 N1_17 1_555 1_555
H1_17 C3_17 1_555 1_555
N2_17 C3_17 1_555 1_555
C4_17 C1_17 1_555 1_555
Y3_12 O10_20 1_555 1_555
C2_17 C5_17 1_555 1_555
N1_17 Y3_12 1_555 1_555
Y1_18 O9_17 1_555 1_555
O9_17 C4_18 1_555 1_555
O10_17 C4_18 1_555 1_555
O14_7 Y1_18 1_555 1_555
C1_18 C2_18 1_555 1_555
C2_18 N2_18 1_555 1_555
N1_18 C1_18 1_555 1_555
C3_18 N1_18 1_555 1_555
H1_18 C3_18 1_555 1_555
N2_18 C3_18 1_555 1_555
C4_18 C1_18 1_555 1_555
C5_18 O14_7 1_555 1_555
O9_7 Y1_18 1_555 1_555
O14_17 Y1_18 1_555 1_555
O15_17 C10_18 1_555 1_555
C6_18 C7_18 1_555 1_555
C7_18 N4_18 1_555 1_555
N3_18 C6_18 1_555 1_555
C8_18 N3_18 1_555 1_555
H3_18 C8_18 1_555 1_555
N4_18 C8_18 1_555 1_555
H4_18 N4_18 1_555 1_555
C9_18 O9_7 1_555 1_555
C10_18 O14_17 1_555 1_555
Y3_10 O10_17 1_555 1_555
Y2_2 O10_7 1_555 1_555
O12_7 Y1_18 1_555 1_555
O12_17 Y1_18 1_555 1_555
N5_18 Y1_18 1_555 1_555
N6_18 Y1_18 1_555 1_555
C2_18 C5_18 1_555 1_555
N1_18 Y3_10 1_555 1_555
O10_7 C9_18 1_555 1_555
C6_18 C9_18 1_555 1_555
C7_18 C10_18 1_555 1_555
N3_18 Y2_2 1_555 1_555
O9_18 C4_19 1_555 1_555
O10_18 C4_19 1_555 1_555
C1_19 C2_19 1_555 1_555
C2_19 N2_19 1_555 1_555
N1_19 C1_19 1_555 1_555
C3_19 N1_19 1_555 1_555
H1_19 C3_19 1_555 1_555
N2_19 C3_19 1_555 1_555
H2_19 N2_19 1_555 1_555
C4_19 C1_19 1_555 1_555
Y3_9 O10_18 1_555 1_555
O15_6 C5_19 1_555 1_555
C2_19 C5_19 1_555 1_555
N1_19 Y3_9 1_555 1_555
O14_6 Y1_19 1_555 1_555
O9_6 Y1_19 1_555 1_555
O14_18 Y1_19 1_555 1_555
O15_18 C10_19 1_555 1_555
C6_19 C7_19 1_555 1_555
C7_19 N4_19 1_555 1_555
N3_19 C6_19 1_555 1_555
C8_19 N3_19 1_555 1_555
H3_19 C8_19 1_555 1_555
N4_19 C8_19 1_555 1_555
H4_19 N4_19 1_555 1_555
C9_19 O9_6 1_555 1_555
C10_19 O14_18 1_555 1_555
Y2_4 O10_6 1_555 1_555
O12_6 Y1_19 1_555 1_555
O12_18 Y1_19 1_555 1_555
N5_19 Y1_19 1_555 1_555
N6_19 Y1_19 1_555 1_555
O10_6 C9_19 1_555 1_555
C6_19 C9_19 1_555 1_555
C7_19 C10_19 1_555 1_555
N3_19 Y2_4 1_555 1_555
Y1_20 O9_19 1_555 1_555
O9_19 C4_20 1_555 1_555
O10_19 C4_20 1_555 1_555
O14_5 Y1_20 1_555 1_555
C1_20 C2_20 1_555 1_555
C2_20 N2_20 1_555 1_555
N1_20 C1_20 1_555 1_555
C3_20 N1_20 1_555 1_555
H1_20 C3_20 1_555 1_555
N2_20 C3_20 1_555 1_555
H2_20 N2_20 1_555 1_555
C4_20 C1_20 1_555 1_555
C5_20 O14_5 1_555 1_555
O9_5 Y1_20 1_555 1_555
O14_19 Y1_20 1_555 1_555
O15_19 C10_20 1_555 1_555
C6_20 C7_20 1_555 1_555
C7_20 N4_20 1_555 1_555
N3_20 C6_20 1_555 1_555
C8_20 N3_20 1_555 1_555
H3_20 C8_20 1_555 1_555
N4_20 C8_20 1_555 1_555
H4_20 N4_20 1_555 1_555
C9_20 O9_5 1_555 1_555
C10_20 O14_19 1_555 1_555
Y3_11 O10_19 1_555 1_555
Y2 O10_5 1_555 1_555
O12_5 Y1_20 1_555 1_555
O12_19 Y1_20 1_555 1_555
N5_20 Y1_20 1_555 1_555
N6_20 Y1_20 1_555 1_555
O15_5 C5_20 1_555 1_555
C2_20 C5_20 1_555 1_555
N1_20 Y3_11 1_555 1_555
O10_5 C9_20 1_555 1_555
C6_20 C9_20 1_555 1_555
C7_20 C10_20 1_555 1_555
N3_20 Y2 1_555 1_555
O14_12 Y1_21 1_555 1_555
O9_12 Y1_21 1_555 1_555
O14_13 Y1_21 1_555 1_555
O15_13 C10_21 1_555 1_555
C6_21 C7_21 1_555 1_555
C7_21 N4_21 1_555 1_555
N3_21 C6_21 1_555 1_555
C8_21 N3_21 1_555 1_555
H3_21 C8_21 1_555 1_555
N4_21 C8_21 1_555 1_555
H4_21 N4_21 1_555 1_555
C9_21 O9_12 1_555 1_555
C10_21 O14_13 1_555 1_555
Y2_7 O10_12 1_555 1_555
O12_12 Y1_21 1_555 1_555
O12_13 Y1_21 1_555 1_555
N5_21 Y1_21 1_555 1_555
N6_21 Y1_21 1_555 1_555
O10_12 C9_21 1_555 1_555
C6_21 C9_21 1_555 1_555
C7_21 C10_21 1_555 1_555
N3_21 Y2_7 1_555 1_555
O9_13 C4_21 1_555 1_555
O10_13 C4_21 1_555 1_555
C1_21 C2_21 1_555 1_555
C2_21 N2_21 1_555 1_555
N1_21 C1_21 1_555 1_555
C3_21 N1_21 1_555 1_555
H1_21 C3_21 1_555 1_555
N2_21 C3_21 1_555 1_555
C4_21 C1_21 1_555 1_555
Y3_4 O10_13 1_555 1_555
C2_21 C5_21 1_555 1_555
N1_21 Y3_4 1_555 1_555
Y1_22 O9_16 1_555 1_555
O9_16 C4_22 1_555 1_555
O10_16 C4_22 1_555 1_555
O14_11 Y1_22 1_555 1_555
C1_22 C2_22 1_555 1_555
C2_22 N2_22 1_555 1_555
N1_22 C1_22 1_555 1_555
C3_22 N1_22 1_555 1_555
H1_22 C3_22 1_555 1_555
N2_22 C3_22 1_555 1_555
C4_22 C1_22 1_555 1_555
C5_22 O14_11 1_555 1_555
O9_11 Y1_22 1_555 1_555
O14_16 Y1_22 1_555 1_555
O15_16 C10_22 1_555 1_555
C6_22 C7_22 1_555 1_555
C7_22 N4_22 1_555 1_555
N3_22 C6_22 1_555 1_555
C8_22 N3_22 1_555 1_555
H3_22 C8_22 1_555 1_555
N4_22 C8_22 1_555 1_555
H4_22 N4_22 1_555 1_555
C9_22 O9_11 1_555 1_555
C10_22 O14_16 1_555 1_555
Y3_2 O10_16 1_555 1_555
Y2_6 O10_11 1_555 1_555
O12_11 Y1_22 1_555 1_555
O12_16 Y1_22 1_555 1_555
N5_22 Y1_22 1_555 1_555
N6_22 Y1_22 1_555 1_555
C2_22 C5_22 1_555 1_555
N1_22 Y3_2 1_555 1_555
O10_11 C9_22 1_555 1_555
C6_22 C9_22 1_555 1_555
C7_22 C10_22 1_555 1_555
N3_22 Y2_6 1_555 1_555
O9_15 C4_23 1_555 1_555
O10_15 C4_23 1_555 1_555
C1_23 C2_23 1_555 1_555
C2_23 N2_23 1_555 1_555
N1_23 C1_23 1_555 1_555
C3_23 N1_23 1_555 1_555
H1_23 C3_23 1_555 1_555
N2_23 C3_23 1_555 1_555
H2_23 N2_23 1_555 1_555
C4_23 C1_23 1_555 1_555
Y3 O10_15 1_555 1_555
O15_10 C5_23 1_555 1_555
C2_23 C5_23 1_555 1_555
N1_23 Y3 1_555 1_555
O14_10 Y1_23 1_555 1_555
O9_10 Y1_23 1_555 1_555
O14_15 Y1_23 1_555 1_555
O15_15 C10_23 1_555 1_555
C6_23 C7_23 1_555 1_555
C7_23 N4_23 1_555 1_555
N3_23 C6_23 1_555 1_555
C8_23 N3_23 1_555 1_555
H3_23 C8_23 1_555 1_555
N4_23 C8_23 1_555 1_555
H4_23 N4_23 1_555 1_555
C9_23 O9_10 1_555 1_555
C10_23 O14_15 1_555 1_555
Y2_8 O10_10 1_555 1_555
O12_10 Y1_23 1_555 1_555
O12_15 Y1_23 1_555 1_555
N5_23 Y1_23 1_555 1_555
N6_23 Y1_23 1_555 1_555
O10_10 C9_23 1_555 1_555
C6_23 C9_23 1_555 1_555
C7_23 C10_23 1_555 1_555
N3_23 Y2_8 1_555 1_555
Y1_24 O9_14 1_555 1_555
O9_14 C4_24 1_555 1_555
O10_14 C4_24 1_555 1_555
O14_9 Y1_24 1_555 1_555
C1_24 C2_24 1_555 1_555
C2_24 N2_24 1_555 1_555
N1_24 C1_24 1_555 1_555
C3_24 N1_24 1_555 1_555
H1_24 C3_24 1_555 1_555
N2_24 C3_24 1_555 1_555
H2_24 N2_24 1_555 1_555
C4_24 C1_24 1_555 1_555
C5_24 O14_9 1_555 1_555
O9_9 Y1_24 1_555 1_555
O14_14 Y1_24 1_555 1_555
O15_14 C10_24 1_555 1_555
C6_24 C7_24 1_555 1_555
C7_24 N4_24 1_555 1_555
N3_24 C6_24 1_555 1_555
C8_24 N3_24 1_555 1_555
H3_24 C8_24 1_555 1_555
N4_24 C8_24 1_555 1_555
H4_24 N4_24 1_555 1_555
C9_24 O9_9 1_555 1_555
C10_24 O14_14 1_555 1_555
Y3_3 O10_14 1_555 1_555
Y2_5 O10_9 1_555 1_555
O12_9 Y1_24 1_555 1_555
O12_14 Y1_24 1_555 1_555
N5_24 Y1_24 1_555 1_555
N6_24 Y1_24 1_555 1_555
O15_9 C5_24 1_555 1_555
C2_24 C5_24 1_555 1_555
N1_24 Y3_3 1_555 1_555
O10_9 C9_24 1_555 1_555
C6_24 C9_24 1_555 1_555
C7_24 C10_24 1_555 1_555
N3_24 Y2_5 1_555 1_555
Y2_5 O1_13 1_555 1_555
K3_7 O3_13 1_555 1_555
O1_13 C4_25 1_555 1_555
O11_9 C4_25 1_555 1_555
O3_13 Y2_5 1_555 1_555
O4_13 K3_7 1_555 1_555
C1_25 C2_25 1_555 1_555
C2_25 N2_25 1_555 1_555
N5_9 C1_25 1_555 1_555
C3_25 N5_9 1_555 1_555
H1_25 C3_25 1_555 1_555
N2_25 C3_25 1_555 1_555
H2_25 N2_25 1_555 1_555
C4_25 C1_25 1_555 1_555
C5_25 O3_13 1_555 1_555
O5_13 Y2_5 1_555 1_555
O7_13 Y2_5 1_555 1_555
O8_13 C10_25 1_555 1_555
C6_25 C7_25 1_555 1_555
C7_25 N4_25 1_555 1_555
N6_18 C6_25 1_555 1_555
C8_25 N6_18 1_555 1_555
H3_25 C8_25 1_555 1_555
N4_25 C8_25 1_555 1_555
H4_25 N4_25 1_555 1_555
C9_25 O5_13 1_555 1_555
C10_25 O7_13 1_555 1_555
K4_13 O1_13 1_555 1_555
O9_25 K3_7 1_555 1_555
O14_25 K3_7 1_555 1_555
O15_25 K3_7 1_555 1_555
K3_7 O5_13 1_555 1_555
O4_13 C5_25 1_555 1_555
C2_25 C5_25 1_555 1_555
O12_17 C9_25 1_555 1_555
O7_13 K4_13 1_555 1_555
O8_13 K4_13 1_555 1_555
C6_25 C9_25 1_555 1_555
C7_25 C10_25 1_555 1_555
K3_10 O3_14 1_555 1_555
O3_14 Y2_7 1_555 1_555
O5_14 Y2_7 1_555 1_555
O7_14 Y2_7 1_555 1_555
O8_14 C10_26 1_555 1_555
C6_26 C7_26 1_555 1_555
C7_26 N4_26 1_555 1_555
N6_20 C6_26 1_555 1_555
C8_26 N6_20 1_555 1_555
H3_26 C8_26 1_555 1_555
N4_26 C8_26 1_555 1_555
H4_26 N4_26 1_555 1_555
C9_26 O5_14 1_555 1_555
C10_26 O7_14 1_555 1_555
O9_26 K3_10 1_555 1_555
O14_26 K3_10 1_555 1_555
K3_10 O5_14 1_555 1_555
O12_19 C9_26 1_555 1_555
O7_14 K4_17 1_555 1_555
O8_14 K4_17 1_555 1_555
C6_26 C9_26 1_555 1_555
C7_26 C10_26 1_555 1_555
O1_14 C4_26 1_555 1_555
O11_12 C4_26 1_555 1_555
C1_26 C2_26 1_555 1_555
C2_26 N2_26 1_555 1_555
N5_12 C1_26 1_555 1_555
C3_26 N5_12 1_555 1_555
H1_26 C3_26 1_555 1_555
N2_26 C3_26 1_555 1_555
H2_26 N2_26 1_555 1_555
C4_26 C1_26 1_555 1_555
K4_18 O1_14 1_555 1_555
O4_14 C5_26 1_555 1_555
C2_26 C5_26 1_555 1_555
O4_15 K3_11 1_555 1_555
O9_27 K3_11 1_555 1_555
O14_27 K3_11 1_555 1_555
Y2_8 O1_15 1_555 1_555
K3_12 O3_15 1_555 1_555
O1_15 C4_27 1_555 1_555
O11_10 C4_27 1_555 1_555
O3_15 Y2_8 1_555 1_555
C1_27 C2_27 1_555 1_555
C2_27 N2_27 1_555 1_555
N5_10 C1_27 1_555 1_555
C3_27 N5_10 1_555 1_555
H1_27 C3_27 1_555 1_555
N2_27 C3_27 1_555 1_555
C4_27 C1_27 1_555 1_555
C5_27 O3_15 1_555 1_555
O5_15 Y2_8 1_555 1_555
O7_15 Y2_8 1_555 1_555
O8_15 C10_27 1_555 1_555
C6_27 C7_27 1_555 1_555
C7_27 N4_27 1_555 1_555
N6_19 C6_27 1_555 1_555
C8_27 N6_19 1_555 1_555
H3_27 C8_27 1_555 1_555
N4_27 C8_27 1_555 1_555
H4_27 N4_27 1_555 1_555
C9_27 O5_15 1_555 1_555
C10_27 O7_15 1_555 1_555
K4_14 O1_15 1_555 1_555
O15_27 K3_12 1_555 1_555
K3_12 O5_15 1_555 1_555
C2_27 C5_27 1_555 1_555
O12_18 C9_27 1_555 1_555
O7_15 K4_14 1_555 1_555
O8_15 K4_14 1_555 1_555
C6_27 C9_27 1_555 1_555
C7_27 C10_27 1_555 1_555
O1_16 C4_28 1_555 1_555
O11_11 C4_28 1_555 1_555
C1_28 C2_28 1_555 1_555
C2_28 N2_28 1_555 1_555
N5_11 C1_28 1_555 1_555
C3_28 N5_11 1_555 1_555
H1_28 C3_28 1_555 1_555
N2_28 C3_28 1_555 1_555
C4_28 C1_28 1_555 1_555
K4_15 O1_16 1_555 1_555
C2_28 C5_28 1_555 1_555
K3_8 O3_16 1_555 1_555
O3_16 Y2_6 1_555 1_555
O5_16 Y2_6 1_555 1_555
O7_16 Y2_6 1_555 1_555
O8_16 C10_28 1_555 1_555
C6_28 C7_28 1_555 1_555
C7_28 N4_28 1_555 1_555
N6_17 C6_28 1_555 1_555
C8_28 N6_17 1_555 1_555
H3_28 C8_28 1_555 1_555
N4_28 C8_28 1_555 1_555
H4_28 N4_28 1_555 1_555
C9_28 O5_16 1_555 1_555
C10_28 O7_16 1_555 1_555
K3_8 O5_16 1_555 1_555
O12_20 C9_28 1_555 1_555
O7_16 K4_16 1_555 1_555
O8_16 K4_16 1_555 1_555
C6_28 C9_28 1_555 1_555
C7_28 C10_28 1_555 1_555
O9_28 K3_9 1_555 1_555
O14_28 K3_9 1_555 1_555
Y2_9 O1_17 1_555 1_555
K3_13 O3_17 1_555 1_555
O1_17 C4_29 1_555 1_555
O11 C4_29 1_555 1_555
O3_17 Y2_9 1_555 1_555
O4_17 K3_13 1_555 1_555
C1_29 C2_29 1_555 1_555
C2_29 N2_29 1_555 1_555
N5 C1_29 1_555 1_555
C3_29 N5 1_555 1_555
H1_29 C3_29 1_555 1_555
N2_29 C3_29 1_555 1_555
H2_29 N2_29 1_555 1_555
C4_29 C1_29 1_555 1_555
C5_29 O3_17 1_555 1_555
O5_17 Y2_9 1_555 1_555
O7_17 Y2_9 1_555 1_555
O8_17 C10_29 1_555 1_555
C6_29 C7_29 1_555 1_555
C7_29 N4_29 1_555 1_555
N6_22 C6_29 1_555 1_555
C8_29 N6_22 1_555 1_555
H3_29 C8_29 1_555 1_555
N4_29 C8_29 1_555 1_555
H4_29 N4_29 1_555 1_555
C9_29 O5_17 1_555 1_555
C10_29 O7_17 1_555 1_555
K4 O1_17 1_555 1_555
O9_29 K3_13 1_555 1_555
O14_29 K3_13 1_555 1_555
O15_29 K3_13 1_555 1_555
K3_13 O5_17 1_555 1_555
O4_17 C5_29 1_555 1_555
C2_29 C5_29 1_555 1_555
O12_16 C9_29 1_555 1_555
O7_17 K4 1_555 1_555
O8_17 K4 1_555 1_555
C6_29 C9_29 1_555 1_555
C7_29 C10_29 1_555 1_555
K3_16 O3_18 1_555 1_555
O3_18 Y2_11 1_555 1_555
O5_18 Y2_11 1_555 1_555
O7_18 Y2_11 1_555 1_555
O8_18 C10_30 1_555 1_555
C6_30 C7_30 1_555 1_555
C7_30 N4_30 1_555 1_555
N6_24 C6_30 1_555 1_555
C8_30 N6_24 1_555 1_555
H3_30 C8_30 1_555 1_555
N4_30 C8_30 1_555 1_555
H4_30 N4_30 1_555 1_555
C9_30 O5_18 1_555 1_555
C10_30 O7_18 1_555 1_555
O9_30 K3_16 1_555 1_555
O14_30 K3_16 1_555 1_555
K3_16 O5_18 1_555 1_555
O12_14 C9_30 1_555 1_555
O7_18 K4_5 1_555 1_555
O8_18 K4_5 1_555 1_555
C6_30 C9_30 1_555 1_555
C7_30 C10_30 1_555 1_555
O1_18 C4_30 1_555 1_555
O11_4 C4_30 1_555 1_555
C1_30 C2_30 1_555 1_555
C2_30 N2_30 1_555 1_555
N5_4 C1_30 1_555 1_555
C3_30 N5_4 1_555 1_555
H1_30 C3_30 1_555 1_555
N2_30 C3_30 1_555 1_555
H2_30 N2_30 1_555 1_555
C4_30 C1_30 1_555 1_555
K4_6 O1_18 1_555 1_555
O4_18 C5_30 1_555 1_555
C2_30 C5_30 1_555 1_555
O4_19 K3_17 1_555 1_555
O9_31 K3_17 1_555 1_555
O14_31 K3_17 1_555 1_555
Y2_12 O1_19 1_555 1_555
K3_18 O3_19 1_555 1_555
O1_19 C4_31 1_555 1_555
O11_2 C4_31 1_555 1_555
O3_19 Y2_12 1_555 1_555
C1_31 C2_31 1_555 1_555
C2_31 N2_31 1_555 1_555
N5_2 C1_31 1_555 1_555
C3_31 N5_2 1_555 1_555
H1_31 C3_31 1_555 1_555
N2_31 C3_31 1_555 1_555
C4_31 C1_31 1_555 1_555
C5_31 O3_19 1_555 1_555
O5_19 Y2_12 1_555 1_555
O7_19 Y2_12 1_555 1_555
O8_19 C10_31 1_555 1_555
C6_31 C7_31 1_555 1_555
C7_31 N4_31 1_555 1_555
N6_23 C6_31 1_555 1_555
C8_31 N6_23 1_555 1_555
H3_31 C8_31 1_555 1_555
N4_31 C8_31 1_555 1_555
H4_31 N4_31 1_555 1_555
C9_31 O5_19 1_555 1_555
C10_31 O7_19 1_555 1_555
K4_2 O1_19 1_555 1_555
O15_31 K3_18 1_555 1_555
K3_18 O5_19 1_555 1_555
C2_31 C5_31 1_555 1_555
O12_15 C9_31 1_555 1_555
O7_19 K4_2 1_555 1_555
O8_19 K4_2 1_555 1_555
C6_31 C9_31 1_555 1_555
C7_31 C10_31 1_555 1_555
O1_20 C4_32 1_555 1_555
O11_3 C4_32 1_555 1_555
C1_32 C2_32 1_555 1_555
C2_32 N2_32 1_555 1_555
N5_3 C1_32 1_555 1_555
C3_32 N5_3 1_555 1_555
H1_32 C3_32 1_555 1_555
N2_32 C3_32 1_555 1_555
C4_32 C1_32 1_555 1_555
K4_3 O1_20 1_555 1_555
C2_32 C5_32 1_555 1_555
K3_14 O3_20 1_555 1_555
O3_20 Y2_10 1_555 1_555
O5_20 Y2_10 1_555 1_555
O7_20 Y2_10 1_555 1_555
O8_20 C10_32 1_555 1_555
C6_32 C7_32 1_555 1_555
C7_32 N4_32 1_555 1_555
N6_21 C6_32 1_555 1_555
C8_32 N6_21 1_555 1_555
H3_32 C8_32 1_555 1_555
N4_32 C8_32 1_555 1_555
H4_32 N4_32 1_555 1_555
C9_32 O5_20 1_555 1_555
C10_32 O7_20 1_555 1_555
K3_14 O5_20 1_555 1_555
O12_13 C9_32 1_555 1_555
O7_20 K4_4 1_555 1_555
O8_20 K4_4 1_555 1_555
C6_32 C9_32 1_555 1_555
C7_32 C10_32 1_555 1_555
O9_32 K3_15 1_555 1_555
O14_32 K3_15 1_555 1_555
Y2 O1_21 1_555 1_555
K3 O3_21 1_555 1_555
O1_21 C4_33 1_555 1_555
O11_5 C4_33 1_555 1_555
O3_21 Y2 1_555 1_555
O4_21 K3 1_555 1_555
C1_33 C2_33 1_555 1_555
C2_33 N2_33 1_555 1_555
N5_5 C1_33 1_555 1_555
C3_33 N5_5 1_555 1_555
H1_33 C3_33 1_555 1_555
N2_33 C3_33 1_555 1_555
H2_33 N2_33 1_555 1_555
C4_33 C1_33 1_555 1_555
C5_33 O3_21 1_555 1_555
O5_21 Y2 1_555 1_555
O7_21 Y2 1_555 1_555
O8_21 C10_33 1_555 1_555
C6_33 C7_33 1_555 1_555
C7_33 N4_33 1_555 1_555
N6_14 C6_33 1_555 1_555
C8_33 N6_14 1_555 1_555
H3_33 C8_33 1_555 1_555
N4_33 C8_33 1_555 1_555
H4_33 N4_33 1_555 1_555
C9_33 O5_21 1_555 1_555
C10_33 O7_21 1_555 1_555
K4_7 O1_21 1_555 1_555
O9_33 K3 1_555 1_555
O14_33 K3 1_555 1_555
O15_33 K3 1_555 1_555
K3 O5_21 1_555 1_555
O4_21 C5_33 1_555 1_555
C2_33 C5_33 1_555 1_555
O12_22 C9_33 1_555 1_555
O7_21 K4_7 1_555 1_555
O8_21 K4_7 1_555 1_555
C6_33 C9_33 1_555 1_555
C7_33 C10_33 1_555 1_555
K3_4 O3_22 1_555 1_555
O3_22 Y2_3 1_555 1_555
O5_22 Y2_3 1_555 1_555
O7_22 Y2_3 1_555 1_555
O8_22 C10_34 1_555 1_555
C6_34 C7_34 1_555 1_555
C7_34 N4_34 1_555 1_555
N6_16 C6_34 1_555 1_555
C8_34 N6_16 1_555 1_555
H3_34 C8_34 1_555 1_555
N4_34 C8_34 1_555 1_555
H4_34 N4_34 1_555 1_555
C9_34 O5_22 1_555 1_555
C10_34 O7_22 1_555 1_555
O9_34 K3_4 1_555 1_555
O14_34 K3_4 1_555 1_555
K3_4 O5_22 1_555 1_555
O12_24 C9_34 1_555 1_555
O7_22 K4_11 1_555 1_555
O8_22 K4_11 1_555 1_555
C6_34 C9_34 1_555 1_555
C7_34 C10_34 1_555 1_555
O1_22 C4_34 1_555 1_555
O11_8 C4_34 1_555 1_555
C1_34 C2_34 1_555 1_555
C2_34 N2_34 1_555 1_555
N5_8 C1_34 1_555 1_555
C3_34 N5_8 1_555 1_555
H1_34 C3_34 1_555 1_555
N2_34 C3_34 1_555 1_555
H2_34 N2_34 1_555 1_555
C4_34 C1_34 1_555 1_555
K4_12 O1_22 1_555 1_555
O4_22 C5_34 1_555 1_555
C2_34 C5_34 1_555 1_555
O4_23 K3_5 1_555 1_555
O9_35 K3_5 1_555 1_555
O14_35 K3_5 1_555 1_555
Y2_4 O1_23 1_555 1_555
K3_6 O3_23 1_555 1_555
O1_23 C4_35 1_555 1_555
O11_6 C4_35 1_555 1_555
O3_23 Y2_4 1_555 1_555
C1_35 C2_35 1_555 1_555
C2_35 N2_35 1_555 1_555
N5_6 C1_35 1_555 1_555
C3_35 N5_6 1_555 1_555
H1_35 C3_35 1_555 1_555
N2_35 C3_35 1_555 1_555
C4_35 C1_35 1_555 1_555
C5_35 O3_23 1_555 1_555
O5_23 Y2_4 1_555 1_555
O7_23 Y2_4 1_555 1_555
O8_23 C10_35 1_555 1_555
C6_35 C7_35 1_555 1_555
C7_35 N4_35 1_555 1_555
N6_15 C6_35 1_555 1_555
C8_35 N6_15 1_555 1_555
H3_35 C8_35 1_555 1_555
N4_35 C8_35 1_555 1_555
H4_35 N4_35 1_555 1_555
C9_35 O5_23 1_555 1_555
C10_35 O7_23 1_555 1_555
K4_8 O1_23 1_555 1_555
O15_35 K3_6 1_555 1_555
K3_6 O5_23 1_555 1_555
C2_35 C5_35 1_555 1_555
O12_21 C9_35 1_555 1_555
O7_23 K4_8 1_555 1_555
O8_23 K4_8 1_555 1_555
C6_35 C9_35 1_555 1_555
C7_35 C10_35 1_555 1_555
O1_24 C4_36 1_555 1_555
O11_7 C4_36 1_555 1_555
C1_36 C2_36 1_555 1_555
C2_36 N2_36 1_555 1_555
N5_7 C1_36 1_555 1_555
C3_36 N5_7 1_555 1_555
H1_36 C3_36 1_555 1_555
N2_36 C3_36 1_555 1_555
C4_36 C1_36 1_555 1_555
K4_9 O1_24 1_555 1_555
C2_36 C5_36 1_555 1_555
K3_2 O3_24 1_555 1_555
O3_24 Y2_2 1_555 1_555
O5_24 Y2_2 1_555 1_555
O7_24 Y2_2 1_555 1_555
O8_24 C10_36 1_555 1_555
C6_36 C7_36 1_555 1_555
C7_36 N4_36 1_555 1_555
N6_13 C6_36 1_555 1_555
C8_36 N6_13 1_555 1_555
H3_36 C8_36 1_555 1_555
N4_36 C8_36 1_555 1_555
H4_36 N4_36 1_555 1_555
C9_36 O5_24 1_555 1_555
C10_36 O7_24 1_555 1_555
K3_2 O5_24 1_555 1_555
O12_23 C9_36 1_555 1_555
O7_24 K4_10 1_555 1_555
O8_24 K4_10 1_555 1_555
C6_36 C9_36 1_555 1_555
C7_36 C10_36 1_555 1_555
O9_36 K3_3 1_555 1_555
O14_36 K3_3 1_555 1_555
O9_37 K4_11 1_555 1_555
O14_37 K4_12 1_555 1_555
O15_37 K4_12 1_555 1_555
O9_38 K4_8 1_555 1_555
O14_38 K4_8 1_555 1_555
O15_38 K4_8 1_555 1_555
O14_39 K4_9 1_555 1_555
O15_39 K4_9 1_555 1_555
O9_39 K4_10 1_555 1_555
O9_40 K4_7 1_555 1_555
O14_40 K4_7 1_555 1_555
O15_40 K4_7 1_555 1_555
O9_41 K4 1_555 1_555
O14_41 K4 1_555 1_555
O15_41 K4 1_555 1_555
O14_42 K4_3 1_555 1_555
O15_42 K4_3 1_555 1_555
O9_42 K4_4 1_555 1_555
O9_43 K4_2 1_555 1_555
O14_43 K4_2 1_555 1_555
O15_43 K4_2 1_555 1_555
O9_44 K4_5 1_555 1_555
O14_44 K4_6 1_555 1_555
O15_44 K4_6 1_555 1_555
O14_45 K4_15 1_555 1_555
O15_45 K4_15 1_555 1_555
O9_45 K4_16 1_555 1_555
O9_46 K4_13 1_555 1_555
O14_46 K4_13 1_555 1_555
O15_46 K4_13 1_555 1_555
O9_47 K4_17 1_555 1_555
O14_47 K4_18 1_555 1_555
O15_47 K4_18 1_555 1_555
O9_48 K4_14 1_555 1_555
O14_48 K4_14 1_555 1_555
O15_48 K4_14 1_555 1_555
O9_47 C4_37 1_555 1_555
O12_12 C4_37 1_555 1_555
C1_37 C2_37 1_555 1_555
C2_37 N2_37 1_555 1_555
N5_21 C1_37 1_555 1_555
C3_37 N5_21 1_555 1_555
H1_37 C3_37 1_555 1_555
N2_37 C3_37 1_555 1_555
C4_37 C1_37 1_555 1_555
C2_37 C5_37 1_555 1_555
O14_28 Y3_12 1_555 1_555
O9_28 Y3_12 1_555 1_555
O14_47 Y3_12 1_555 1_555
O15_47 C10_37 1_555 1_555
C6_37 C7_37 1_555 1_555
C7_37 N4_37 1_555 1_555
N6_6 C6_37 1_555 1_555
C8_37 N6_6 1_555 1_555
H3_37 C8_37 1_555 1_555
N4_37 C8_37 1_555 1_555
H4_37 N4_37 1_555 1_555
C9_37 O9_28 1_555 1_555
C10_37 O14_47 1_555 1_555
O13_6 C9_37 1_555 1_555
C6_37 C9_37 1_555 1_555
C7_37 C10_37 1_555 1_555
Y3_9 O9_46 1_555 1_555
O9_46 C4_38 1_555 1_555
O12_9 C4_38 1_555 1_555
O14_27 Y3_9 1_555 1_555
C1_38 C2_38 1_555 1_555
C2_38 N2_38 1_555 1_555
N5_24 C1_38 1_555 1_555
C3_38 N5_24 1_555 1_555
H1_38 C3_38 1_555 1_555
N2_38 C3_38 1_555 1_555
C4_38 C1_38 1_555 1_555
C5_38 O14_27 1_555 1_555
O9_27 Y3_9 1_555 1_555
O14_46 Y3_9 1_555 1_555
O15_46 C10_38 1_555 1_555
C6_38 C7_38 1_555 1_555
C7_38 N4_38 1_555 1_555
N6_8 C6_38 1_555 1_555
C8_38 N6_8 1_555 1_555
H3_38 C8_38 1_555 1_555
N4_38 C8_38 1_555 1_555
H4_38 N4_38 1_555 1_555
C9_38 O9_27 1_555 1_555
C10_38 O14_46 1_555 1_555
C2_38 C5_38 1_555 1_555
O13_8 C9_38 1_555 1_555
C6_38 C9_38 1_555 1_555
C7_38 C10_38 1_555 1_555
O14_26 Y3_11 1_555 1_555
O9_26 Y3_11 1_555 1_555
O14_45 Y3_11 1_555 1_555
O15_45 C10_39 1_555 1_555
C6_39 C7_39 1_555 1_555
C7_39 N4_39 1_555 1_555
N6_7 C6_39 1_555 1_555
C8_39 N6_7 1_555 1_555
H3_39 C8_39 1_555 1_555
N4_39 C8_39 1_555 1_555
H4_39 N4_39 1_555 1_555
C9_39 O9_26 1_555 1_555
C10_39 O14_45 1_555 1_555
O13_7 C9_39 1_555 1_555
C6_39 C9_39 1_555 1_555
C7_39 C10_39 1_555 1_555
O9_45 C4_39 1_555 1_555
O12_11 C4_39 1_555 1_555
C1_39 C2_39 1_555 1_555
C2_39 N2_39 1_555 1_555
N5_22 C1_39 1_555 1_555
C3_39 N5_22 1_555 1_555
H1_39 C3_39 1_555 1_555
N2_39 C3_39 1_555 1_555
H2_39 N2_39 1_555 1_555
C4_39 C1_39 1_555 1_555
O15_26 C5_39 1_555 1_555
C2_39 C5_39 1_555 1_555
Y3_10 O9_48 1_555 1_555
O9_48 C4_40 1_555 1_555
O12_10 C4_40 1_555 1_555
O14_25 Y3_10 1_555 1_555
C1_40 C2_40 1_555 1_555
C2_40 N2_40 1_555 1_555
N5_23 C1_40 1_555 1_555
C3_40 N5_23 1_555 1_555
H1_40 C3_40 1_555 1_555
N2_40 C3_40 1_555 1_555
H2_40 N2_40 1_555 1_555
C4_40 C1_40 1_555 1_555
C5_40 O14_25 1_555 1_555
O9_25 Y3_10 1_555 1_555
O14_48 Y3_10 1_555 1_555
O15_48 C10_40 1_555 1_555
C6_40 C7_40 1_555 1_555
C7_40 N4_40 1_555 1_555
N6_5 C6_40 1_555 1_555
C8_40 N6_5 1_555 1_555
H3_40 C8_40 1_555 1_555
N4_40 C8_40 1_555 1_555
H4_40 N4_40 1_555 1_555
C9_40 O9_25 1_555 1_555
C10_40 O14_48 1_555 1_555
O15_25 C5_40 1_555 1_555
C2_40 C5_40 1_555 1_555
O13_5 C9_40 1_555 1_555
C6_40 C9_40 1_555 1_555
C7_40 C10_40 1_555 1_555
O9_44 C4_41 1_555 1_555
O12_4 C4_41 1_555 1_555
C1_41 C2_41 1_555 1_555
C2_41 N2_41 1_555 1_555
N5_13 C1_41 1_555 1_555
C3_41 N5_13 1_555 1_555
H1_41 C3_41 1_555 1_555
N2_41 C3_41 1_555 1_555
C4_41 C1_41 1_555 1_555
C2_41 C5_41 1_555 1_555
O14_32 Y3_4 1_555 1_555
O9_32 Y3_4 1_555 1_555
O14_44 Y3_4 1_555 1_555
O15_44 C10_41 1_555 1_555
C6_41 C7_41 1_555 1_555
C7_41 N4_41 1_555 1_555
N6_10 C6_41 1_555 1_555
C8_41 N6_10 1_555 1_555
H3_41 C8_41 1_555 1_555
N4_41 C8_41 1_555 1_555
H4_41 N4_41 1_555 1_555
C9_41 O9_32 1_555 1_555
C10_41 O14_44 1_555 1_555
O13_10 C9_41 1_555 1_555
C6_41 C9_41 1_555 1_555
C7_41 C10_41 1_555 1_555
Y3 O9_41 1_555 1_555
O9_41 C4_42 1_555 1_555
O12 C4_42 1_555 1_555
O14_31 Y3 1_555 1_555
C1_42 C2_42 1_555 1_555
C2_42 N2_42 1_555 1_555
N5_16 C1_42 1_555 1_555
C3_42 N5_16 1_555 1_555
H1_42 C3_42 1_555 1_555
N2_42 C3_42 1_555 1_555
C4_42 C1_42 1_555 1_555
C5_42 O14_31 1_555 1_555
O9_31 Y3 1_555 1_555
O14_41 Y3 1_555 1_555
O15_41 C10_42 1_555 1_555
C6_42 C7_42 1_555 1_555
C7_42 N4_42 1_555 1_555
N6_12 C6_42 1_555 1_555
C8_42 N6_12 1_555 1_555
H3_42 C8_42 1_555 1_555
N4_42 C8_42 1_555 1_555
H4_42 N4_42 1_555 1_555
C9_42 O9_31 1_555 1_555
C10_42 O14_41 1_555 1_555
C2_42 C5_42 1_555 1_555
O13_12 C9_42 1_555 1_555
C6_42 C9_42 1_555 1_555
C7_42 C10_42 1_555 1_555
O14_30 Y3_3 1_555 1_555
O9_30 Y3_3 1_555 1_555
O14_42 Y3_3 1_555 1_555
O15_42 C10_43 1_555 1_555
C6_43 C7_43 1_555 1_555
C7_43 N4_43 1_555 1_555
N6_11 C6_43 1_555 1_555
C8_43 N6_11 1_555 1_555
H3_43 C8_43 1_555 1_555
N4_43 C8_43 1_555 1_555
H4_43 N4_43 1_555 1_555
C9_43 O9_30 1_555 1_555
C10_43 O14_42 1_555 1_555
O13_11 C9_43 1_555 1_555
C6_43 C9_43 1_555 1_555
C7_43 C10_43 1_555 1_555
O9_42 C4_43 1_555 1_555
O12_3 C4_43 1_555 1_555
C1_43 C2_43 1_555 1_555
C2_43 N2_43 1_555 1_555
N5_14 C1_43 1_555 1_555
C3_43 N5_14 1_555 1_555
H1_43 C3_43 1_555 1_555
N2_43 C3_43 1_555 1_555
H2_43 N2_43 1_555 1_555
C4_43 C1_43 1_555 1_555
O15_30 C5_43 1_555 1_555
C2_43 C5_43 1_555 1_555
Y3_2 O9_43 1_555 1_555
O9_43 C4_44 1_555 1_555
O12_2 C4_44 1_555 1_555
O14_29 Y3_2 1_555 1_555
C1_44 C2_44 1_555 1_555
C2_44 N2_44 1_555 1_555
N5_15 C1_44 1_555 1_555
C3_44 N5_15 1_555 1_555
H1_44 C3_44 1_555 1_555
N2_44 C3_44 1_555 1_555
H2_44 N2_44 1_555 1_555
C4_44 C1_44 1_555 1_555
C5_44 O14_29 1_555 1_555
O9_29 Y3_2 1_555 1_555
O14_43 Y3_2 1_555 1_555
O15_43 C10_44 1_555 1_555
C6_44 C7_44 1_555 1_555
C7_44 N4_44 1_555 1_555
N6_9 C6_44 1_555 1_555
C8_44 N6_9 1_555 1_555
H3_44 C8_44 1_555 1_555
N4_44 C8_44 1_555 1_555
H4_44 N4_44 1_555 1_555
C9_44 O9_29 1_555 1_555
C10_44 O14_43 1_555 1_555
O15_29 C5_44 1_555 1_555
C2_44 C5_44 1_555 1_555
O13_9 C9_44 1_555 1_555
C6_44 C9_44 1_555 1_555
C7_44 C10_44 1_555 1_555
O9_37 C4_45 1_555 1_555
O12_8 C4_45 1_555 1_555
C1_45 C2_45 1_555 1_555
C2_45 N2_45 1_555 1_555
N5_17 C1_45 1_555 1_555
C3_45 N5_17 1_555 1_555
H1_45 C3_45 1_555 1_555
N2_45 C3_45 1_555 1_555
C4_45 C1_45 1_555 1_555
C2_45 C5_45 1_555 1_555
O14_36 Y3_8 1_555 1_555
O9_36 Y3_8 1_555 1_555
O14_37 Y3_8 1_555 1_555
O15_37 C10_45 1_555 1_555
C6_45 C7_45 1_555 1_555
C7_45 N4_45 1_555 1_555
N6_2 C6_45 1_555 1_555
C8_45 N6_2 1_555 1_555
H3_45 C8_45 1_555 1_555
N4_45 C8_45 1_555 1_555
H4_45 N4_45 1_555 1_555
C9_45 O9_36 1_555 1_555
C10_45 O14_37 1_555 1_555
O13_2 C9_45 1_555 1_555
C6_45 C9_45 1_555 1_555
C7_45 C10_45 1_555 1_555
Y3_5 O9_40 1_555 1_555
O9_40 C4_46 1_555 1_555
O12_5 C4_46 1_555 1_555
O14_35 Y3_5 1_555 1_555
C1_46 C2_46 1_555 1_555
C2_46 N2_46 1_555 1_555
N5_20 C1_46 1_555 1_555
C3_46 N5_20 1_555 1_555
H1_46 C3_46 1_555 1_555
N2_46 C3_46 1_555 1_555
C4_46 C1_46 1_555 1_555
C5_46 O14_35 1_555 1_555
O9_35 Y3_5 1_555 1_555
O14_40 Y3_5 1_555 1_555
O15_40 C10_46 1_555 1_555
C6_46 C7_46 1_555 1_555
C7_46 N4_46 1_555 1_555
N6_4 C6_46 1_555 1_555
C8_46 N6_4 1_555 1_555
H3_46 C8_46 1_555 1_555
N4_46 C8_46 1_555 1_555
H4_46 N4_46 1_555 1_555
C9_46 O9_35 1_555 1_555
C10_46 O14_40 1_555 1_555
C2_46 C5_46 1_555 1_555
O13_4 C9_46 1_555 1_555
C6_46 C9_46 1_555 1_555
C7_46 C10_46 1_555 1_555
O14_34 Y3_7 1_555 1_555
O9_34 Y3_7 1_555 1_555
O14_39 Y3_7 1_555 1_555
O15_39 C10_47 1_555 1_555
C6_47 C7_47 1_555 1_555
C7_47 N4_47 1_555 1_555
N6_3 C6_47 1_555 1_555
C8_47 N6_3 1_555 1_555
H3_47 C8_47 1_555 1_555
N4_47 C8_47 1_555 1_555
H4_47 N4_47 1_555 1_555
C9_47 O9_34 1_555 1_555
C10_47 O14_39 1_555 1_555
O13_3 C9_47 1_555 1_555
C6_47 C9_47 1_555 1_555
C7_47 C10_47 1_555 1_555
O9_39 C4_47 1_555 1_555
O12_7 C4_47 1_555 1_555
C1_47 C2_47 1_555 1_555
C2_47 N2_47 1_555 1_555
N5_18 C1_47 1_555 1_555
C3_47 N5_18 1_555 1_555
H1_47 C3_47 1_555 1_555
N2_47 C3_47 1_555 1_555
H2_47 N2_47 1_555 1_555
C4_47 C1_47 1_555 1_555
O15_34 C5_47 1_555 1_555
C2_47 C5_47 1_555 1_555
Y3_6 O9_38 1_555 1_555
O9_38 C4_48 1_555 1_555
O12_6 C4_48 1_555 1_555
O14_33 Y3_6 1_555 1_555
C1_48 C2_48 1_555 1_555
C2_48 N2_48 1_555 1_555
N5_19 C1_48 1_555 1_555
C3_48 N5_19 1_555 1_555
H1_48 C3_48 1_555 1_555
N2_48 C3_48 1_555 1_555
H2_48 N2_48 1_555 1_555
C4_48 C1_48 1_555 1_555
C5_48 O14_33 1_555 1_555
O9_33 Y3_6 1_555 1_555
O14_38 Y3_6 1_555 1_555
O15_38 C10_48 1_555 1_555
C6_48 C7_48 1_555 1_555
C7_48 N4_48 1_555 1_555
N6 C6_48 1_555 1_555
C8_48 N6 1_555 1_555
H3_48 C8_48 1_555 1_555
N4_48 C8_48 1_555 1_555
H4_48 N4_48 1_555 1_555
C9_48 O9_33 1_555 1_555
C10_48 O14_38 1_555 1_555
O15_33 C5_48 1_555 1_555
C2_48 C5_48 1_555 1_555
O13 C9_48 1_555 1_555
C6_48 C9_48 1_555 1_555
C7_48 C10_48 1_555 1_555

#END
