
###############################################################################
#
# This file contains modified crystal structure data generated from the
# MOF subset of the Cambridge Structural Database (CSD) v543 
# hosted by the Cambridge Crystallographic Data Centre (CCDC).
#
# This work is licensed under the Creative Commons
# Attribution-NonCommercial-ShareAlike 4.0 International License.
# To view a copy of this license, visit
# http://creativecommons.org/licenses/by-nc-sa/4.0/
# or send a letter to
# Creative Commons, PO Box 1866, Mountain View, CA 94042, USA.
#
# CIF created using the CSD Python API on 29 September 2022
# The structure has been converted into the P1 space group
# The structure has a 3D framework
# The original CSD entry IFOSIG is in the trigonal crystal system
# The original CSD entry IFOSIG is in a Sohncke space group
# The framework has been calculated to contain at least 10.0% void space
# The void calculation uses a probe of radius 1.32A, grid spacing 0.4
# H atom positions have been added when not included in the experimental data
# Generated hydrogen atom positions removed from atoms on special positions
#
###############################################################################

data_IFOSIG
_chemical_formula_moiety         '(C24 H24 Ce6 O54 Zr5)n'
_symmetry_cell_setting           triclinic
_symmetry_space_group_name_H-M   'P 1'
_symmetry_Int_Tables_number      1
_space_group_name_Hall           'P 1'
loop_
_symmetry_equiv_pos_site_id
_symmetry_equiv_pos_as_xyz
1 x,y,z
_cell_length_a                   9.1034(4)
_cell_length_b                   9.1034(4)
_cell_length_c                   25.4708(9)
_cell_angle_alpha                90
_cell_angle_beta                 90
_cell_angle_gamma                120
_cell_volume                     1828.02
loop_
_atom_site_label
_atom_site_type_symbol
_atom_site_fract_x
_atom_site_fract_y
_atom_site_fract_z
Zr1 Zr 0.00006(17) 0.00006(17) 0.5000
Zr3 Zr -0.00000(24) -0.00006(17) 0.8333
O17 O 0.2638(11) 0.1245(12) 0.5260(3)
O18 O 0.1245(12) 0.2638(11) 0.4740(3)
Zr1_2 Zr 0.00006(17) 1.00006(17) 0.5000
Zr3_2 Zr -0.00000(24) 0.99994(17) 0.8333
O13 O 0.1459(14) 0.9856(14) 0.4319(4)
O20 O 0.0135(14) 0.8507(14) 0.5677(4)
Ce1 Ce 0.49987(11) 0.0000 0.6667
Zr1_3 Zr 1.00006(17) 0.00006(17) 0.5000
O1 O 0.8117(16) 0.1480(15) 0.6303(4)
O3 O 0.9856(14) 0.1459(14) 0.5681(4)
O7 O 0.4462(12) 0.1298(14) 0.5852(4)
C1 C 0.8456(15) 0.0866(17) 0.5916(5)
C3 C 0.3019(19) 0.0695(17) 0.5666(4)
Zr3_3 Zr 1.00000(24) -0.00006(17) 0.8333
O11 O 0.6830(21) 0.1310(15) 0.7488(4)
O14 O 0.8611(18) 0.1254(14) 0.8064(3)
O19 O 0.1628(20) 0.1493(14) 0.7656(4)
O21 O 0.8507(14) 0.0135(14) 0.4323(4)
O23 O 0.3337(22) 0.1465(14) 0.7018(4)
O24 O 0.6578(25) 0.3208(15) 0.6651(5)
C6 C 0.7645(23) 0.0689(16) 0.7671(4)
C8 C 0.2463(25) 0.0911(17) 0.7428(6)
Ce1_2 Ce 0.49987(11) 1.0000 0.6667
Zr1_4 Zr 1.00006(17) 1.00006(17) 0.5000
O2 O 0.5520(14) 0.8690(15) 0.5845(4)
O4 O 0.7357(11) 0.8746(14) 0.5269(3)
O8 O 0.1872(17) 0.8535(14) 0.6315(4)
O9 O 0.337(2) 0.6792(15) 0.6682(5)
C2 C 0.6956(17) 0.9311(16) 0.5662(4)
C4 C 0.1552(18) 0.9089(17) 0.5905(6)
Zr3_4 Zr 1.00000(24) 0.99994(17) 0.8333
O10 O 0.6637(22) 0.8520(15) 0.7030(4)
O12 O 0.8397(20) 0.8541(14) 0.7652(4)
O15 O 0.8746(14) 0.7357(11) 0.4731(3)
O16 O 0.1393(16) 0.8755(12) 0.8073(3)
O22 O 0.3164(18) 0.8702(14) 0.7481(4)
C5 C 0.7590(23) 0.9134(17) 0.7417(5)
C7 C 0.2324(25) 0.9305(17) 0.7667(4)
Zr1_5 Zr -0.00006(17) 0.00000(24) 0.1667
O13_2 O 0.0144(14) 0.1603(20) 0.0986(4)
O15_2 O 0.2643(11) 0.1389(18) 0.1398(3)
O20_2 O 0.1493(14) 0.1628(20) 0.2344(4)
Ce1_3 Ce 0.0000 0.49987(11) 0.3334
Zr1_6 Zr -0.00006(17) 1.00000(24) 0.1667
O2_2 O 0.1310(15) 0.6830(21) 0.2512(4)
O4_2 O 0.1254(14) 0.8611(18) 0.1936(3)
O8_2 O 0.1465(14) 0.3337(22) 0.2982(4)
O9_2 O 0.3208(15) 0.6578(25) 0.3349(5)
C2_2 C 0.0689(16) 0.7645(23) 0.2329(4)
C4_2 C 0.0911(17) 0.2463(25) 0.2572(6)
O10_2 O 0.1480(15) 0.8117(27) 0.3697(4)
O22_2 O 0.1298(14) 0.4462(23) 0.4148(4)
C5_2 C 0.0866(17) 0.8456(29) 0.4084(5)
C7_2 C 0.0695(17) 0.3019(30) 0.4334(4)
Zr1_7 Zr 0.99994(17) 0.00000(24) 0.1667
O17_2 O 0.8755(12) 0.1393(16) 0.1927(3)
Ce1_4 Ce 1.0000 0.49987(11) 0.3334
Zr1_8 Zr 0.99994(17) 1.00000(24) 0.1667
O1_2 O 0.8520(15) 0.6637(22) 0.2970(4)
O3_2 O 0.8541(14) 0.8397(20) 0.2348(4)
O7_2 O 0.8702(14) 0.3164(18) 0.2519(4)
C1_2 C 0.9134(17) 0.7590(23) 0.2583(5)
C3_2 C 0.9305(17) 0.2324(25) 0.2333(4)
O11_2 O 0.8690(15) 0.5520(26) 0.4155(4)
O18_2 O 0.7362(11) 0.8607(16) 0.1407(3)
O21_2 O 0.9865(14) 0.8372(20) 0.0990(4)
O23_2 O 0.8535(14) 0.1872(26) 0.3685(4)
O24_2 O 0.6792(15) 0.3370(29) 0.3318(5)
C6_2 C 0.9311(16) 0.6956(28) 0.4338(4)
C8_2 C 0.9089(17) 0.1552(30) 0.4095(6)
Ce1_5 Ce 0.50013(11) 0.50013(11) 0.0000
O9_3 O 0.3422(25) 0.663(2) 0.0015(5)
O10_3 O 0.1883(27) 0.3363(22) 0.0364(4)
O11_3 O 0.4480(26) 0.3170(21) 0.0822(4)
O22_3 O 0.5538(23) 0.6836(18) 0.0815(4)
O23_3 O 0.8128(26) 0.6663(22) 0.0352(4)
C5_3 C 0.1544(29) 0.2410(23) 0.0751(5)
C6_3 C 0.3044(28) 0.2355(23) 0.1005(4)
C7_3 C 0.6981(30) 0.7676(25) 0.1001(4)
C8_3 C 0.8448(30) 0.7537(25) 0.0762(6)
H4 H 0.77908 0.416554 0.0124304
Ce1_6 Ce 0.50013(11) 0.50013(11) 1.0000
O1_3 O 0.3363(22) 0.1883(16) 0.9636(4)
O2_3 O 0.3170(21) 0.4480(14) 0.9178(4)
O3_3 O 0.1603(20) 0.0144(14) 0.9014(4)
O4_3 O 0.1389(18) 0.2643(11) 0.8602(3)
O5 O 0.8607(16) 0.7362(11) 0.8593(3)
O6 O 0.8372(20) 0.9865(14) 0.9010(4)
O7_3 O 0.6836(18) 0.5538(12) 0.9185(4)
O8_3 O 0.6663(22) 0.8128(17) 0.9648(4)
C1_3 C 0.2410(23) 0.1544(15) 0.9249(5)
C2_3 C 0.2355(23) 0.3044(17) 0.8995(4)
C3_3 C 0.7676(25) 0.6981(19) 0.8999(4)
C4_3 C 0.7537(25) 0.8448(18) 0.9238(6)
O24_3 O 0.6630(29) 0.3422(25) 0.9985(5)
H4_2 H 0.416554 0.77908 0.98757
loop_
_geom_bond_atom_site_label_1
_geom_bond_atom_site_label_2
_geom_bond_site_symmetry_1
_geom_bond_site_symmetry_2
O17 Zr1 1_555 1_555
O18 Zr1 1_555 1_555
O13 Zr1_2 1_555 1_555
O20 Zr1_2 1_555 1_555
Ce1 O1 1_555 1_555
Zr1_3 O3 1_555 1_555
O1 C1 1_555 1_555
O3 C1 1_555 1_555
O17 C3 1_555 1_555
O7 Ce1 1_555 1_555
C3 O7 1_555 1_555
O11 Ce1 1_555 1_555
O14 Zr3_3 1_555 1_555
O19 Zr3 1_555 1_555
O21 Zr1_3 1_555 1_555
O23 Ce1 1_555 1_555
O24 Ce1 1_555 1_555
C6 O11 1_555 1_555
C8 O19 1_555 1_555
O14 C6 1_555 1_555
O23 C8 1_555 1_555
O2 Ce1_2 1_555 1_555
O4 Zr1_4 1_555 1_555
O20 C4 1_555 1_555
O8 Ce1_2 1_555 1_555
O9 Ce1_2 1_555 1_555
C2 O2 1_555 1_555
C4 O8 1_555 1_555
Zr3_4 O12 1_555 1_555
Zr3_2 O16 1_555 1_555
O10 Ce1_2 1_555 1_555
O12 C5 1_555 1_555
O15 Zr1_4 1_555 1_555
O16 C7 1_555 1_555
O22 Ce1_2 1_555 1_555
C5 O10 1_555 1_555
C7 O22 1_555 1_555
O4 C2 1_555 1_555
O13_2 Zr1_5 1_555 1_555
O15_2 Zr1_5 1_555 1_555
O20_2 Zr1_5 1_555 1_555
O2_2 Ce1_3 1_555 1_555
O4_2 Zr1_6 1_555 1_555
O20_2 C4_2 1_555 1_555
O8_2 Ce1_3 1_555 1_555
O9_2 Ce1_3 1_555 1_555
C2_2 O2_2 1_555 1_555
C4_2 O8_2 1_555 1_555
O10_2 Ce1_3 1_555 1_555
O13 C5_2 1_555 1_555
O18 C7_2 1_555 1_555
O22_2 Ce1_3 1_555 1_555
C5_2 O10_2 1_555 1_555
C7_2 O22_2 1_555 1_555
O4_2 C2_2 1_555 1_555
O17_2 Zr1_7 1_555 1_555
Ce1_4 O1_2 1_555 1_555
Zr1_8 O3_2 1_555 1_555
O1_2 C1_2 1_555 1_555
O3_2 C1_2 1_555 1_555
O17_2 C3_2 1_555 1_555
O7_2 Ce1_4 1_555 1_555
C3_2 O7_2 1_555 1_555
O11_2 Ce1_4 1_555 1_555
O18_2 Zr1_8 1_555 1_555
O21_2 Zr1_8 1_555 1_555
O23_2 Ce1_4 1_555 1_555
O24_2 Ce1_4 1_555 1_555
C6_2 O11_2 1_555 1_555
C8_2 O21 1_555 1_555
O15 C6_2 1_555 1_555
O23_2 C8_2 1_555 1_555
O9_3 Ce1_5 1_555 1_555
O10_3 Ce1_5 1_555 1_555
O11_3 Ce1_5 1_555 1_555
O13_2 C5_3 1_555 1_555
O18_2 C7_3 1_555 1_555
O22_3 Ce1_5 1_555 1_555
O23_3 Ce1_5 1_555 1_555
C5_3 O10_3 1_555 1_555
C6_3 O11_3 1_555 1_555
C7_3 O22_3 1_555 1_555
C8_3 O21_2 1_555 1_555
O15_2 C6_3 1_555 1_555
O23_3 C8_3 1_555 1_555
C5_3 C6_3 1_555 1_555
C7_3 C8_3 1_555 1_555
Ce1_6 O1_3 1_555 1_555
Zr3 O3_3 1_555 1_555
O1_3 C1_3 1_555 1_555
O2_3 Ce1_6 1_555 1_555
O3_3 C1_3 1_555 1_555
O4_3 Zr3 1_555 1_555
O5 C3_3 1_555 1_555
O6 C4_3 1_555 1_555
O7_3 Ce1_6 1_555 1_555
O8_3 Ce1_6 1_555 1_555
C1_3 C2_3 1_555 1_555
C2_3 O2_3 1_555 1_555
C3_3 O7_3 1_555 1_555
C4_3 O8_3 1_555 1_555
Zr3_4 O5 1_555 1_555
O24_3 Ce1_6 1_555 1_555
O4_3 C2_3 1_555 1_555
O6 Zr3_4 1_555 1_555
C3_3 C4_3 1_555 1_555

#END
