
###############################################################################
#
# This file contains modified crystal structure data generated from the
# MOF subset of the Cambridge Structural Database (CSD) v543 
# hosted by the Cambridge Crystallographic Data Centre (CCDC).
#
# This work is licensed under the Creative Commons
# Attribution-NonCommercial-ShareAlike 4.0 International License.
# To view a copy of this license, visit
# http://creativecommons.org/licenses/by-nc-sa/4.0/
# or send a letter to
# Creative Commons, PO Box 1866, Mountain View, CA 94042, USA.
#
# CIF created using the CSD Python API on 29 September 2022
# The structure has been converted into the P1 space group
# The structure has a 3D framework
# The original CSD entry IFOTAB is in the orthorhombic crystal system
# The framework has been calculated to contain at least 10.0% void space
# The void calculation uses a probe of radius 1.32A, grid spacing 0.4
#
###############################################################################

data_IFOTAB
_chemical_formula_moiety         '(C416 H256 N32 O112 Zn16)n'
_symmetry_cell_setting           triclinic
_symmetry_space_group_name_H-M   'P 1'
_symmetry_Int_Tables_number      1
_space_group_name_Hall           'P 1'
loop_
_symmetry_equiv_pos_site_id
_symmetry_equiv_pos_as_xyz
1 x,y,z
_cell_length_a                   12.3761(19)
_cell_length_b                   14.238(2)
_cell_length_c                   59.212(10)
_cell_angle_alpha                90
_cell_angle_beta                 90
_cell_angle_gamma                90
_cell_volume                     10433.8
loop_
_atom_site_label
_atom_site_type_symbol
_atom_site_fract_x
_atom_site_fract_y
_atom_site_fract_z
O5 O 0.0446(4) 0.1300(4) 0.85316(7)
O6 O 0.1481(4) 0.1329(4) 0.88346(8)
H1 H 0.194442 0.150632 0.874534
H6 H 0.044554 0.121605 0.917961
C20 C 0.0534(5) 0.1316(5) 0.87333(11)
Zn1 Zn 0.55952(6) 0.11018(5) 0.06663(2)
O2 O 0.5967(5) 0.1018(3) 0.03397(7)
O7 O 0.4082(4) 0.0580(4) 0.06778(8)
C21 C 0.6426(5) 0.0413(5) 0.02244(10)
C22 C 0.6019(5) 0.3060(6) 0.05397(14)
H12 H 0.664398 0.276114 0.049052
C23 C 0.5963(6) 0.4022(6) 0.05172(15)
H13 H 0.652672 0.435862 0.045240
C24 C 0.5045(5) 0.4470(5) 0.05937(10)
C25 C 0.4208(5) 0.3916(6) 0.06714(19)
H14 H 0.354854 0.418603 0.070967
C26 C 0.4355(6) 0.2975(5) 0.06915(15)
H15 H 0.380217 0.261913 0.075445
N1 N 0.5249(4) 0.2537(4) 0.06258(9)
H16 H 0.372(7) 0.075(7) 0.0745(14)
C27 C 0.3981(5) 0.6940(6) 0.05397(14)
H17 H 0.335602 0.723886 0.049052
C28 C 0.4037(6) 0.5978(6) 0.05172(15)
H18 H 0.347328 0.564138 0.045240
C29 C 0.4955(5) 0.5530(5) 0.05937(10)
C30 C 0.5792(5) 0.6084(6) 0.06714(19)
H19 H 0.645146 0.581397 0.070967
C31 C 0.5645(6) 0.7025(5) 0.06915(15)
H20 H 0.619783 0.738087 0.075445
N3 N 0.4751(4) 0.7463(4) 0.06258(9)
O8 O 0.3160(4) 0.0334(3) 0.03014(8)
Zn3 Zn 0.44048(6) 0.88982(5) 0.06663(2)
O15 O 0.5565(4) 0.1154(4) 0.10508(9)
O17 O 0.7024(3) 0.1203(3) 0.08431(7)
O3 O 0.3065(4) 0.1346(4) 0.85508(9)
O4 O 0.4524(3) 0.1297(3) 0.83431(7)
C1 C 0.6044(5) 0.1224(5) 0.91207(10)
C2 C 0.4946(5) 0.1212(5) 0.91474(10)
H2 H 0.463323 0.117189 0.928987
C3 C 0.4322(5) 0.1261(5) 0.89551(11)
H3 H 0.357424 0.128534 0.896933
C4 C 0.4780(5) 0.1276(4) 0.87382(10)
C5 C 0.5890(5) 0.1295(4) 0.87163(10)
H4 H 0.619867 0.133928 0.857349
C6 C 0.6551(5) 0.1250(4) 0.89059(10)
C7 C 0.7702(5) 0.1231(4) 0.89440(10)
C8 C 0.8595(5) 0.1265(4) 0.88008(10)
H5 H 0.850036 0.129334 0.864510
C9 C 0.9604(5) 0.1257(5) 0.88908(10)
C10 C 0.9747(5) 0.1214(5) 0.91218(11)
C11 C 0.8889(5) 0.1167(5) 0.92696(11)
H7 H 0.899034 0.114038 0.942506
C12 C 0.7874(5) 0.1160(5) 0.91748(10)
C13 C 0.6711(5) 0.0975(6) 0.95182(11)
C14 C 0.7100(8) 0.0139(6) 0.96047(12)
C16 C 0.6516(5) 0.0601(5) 0.99754(10)
C17 C 0.6145(11) 0.1421(7) 0.98863(14)
H10 H 0.580830 0.185628 0.997975
C18 C 0.6263(10) 0.1616(7) 0.96585(14)
H11 H 0.603286 0.219077 0.960167
C19 C 0.4087(5) 0.1304(4) 0.85366(10)
N2 N 0.6867(4) 0.1156(4) 0.92849(9)
H28 H 0.257389 0.030456 0.951165
C46 C 0.3010(8) 0.0016(6) 0.98338(12)
H29 H 0.274390 0.057471 0.989340
Zn5 Zn 0.30952(6) 0.13982(5) 0.81663(2)
O1 O 0.6840(4) 0.9666(3) 0.03014(8)
O9 O 0.4033(5) 0.8982(3) 0.03397(7)
O14 O 0.5918(4) 0.9420(4) 0.06778(8)
C52 C 0.3574(5) 0.9587(5) 0.02244(10)
H32 H 0.628(7) 0.925(7) 0.0745(14)
O16 O 0.4435(4) 0.8846(4) 0.10508(9)
O18 O 0.2976(3) 0.8797(3) 0.08431(7)
H8 H 0.742611 0.969544 0.951165
C15 C 0.6990(8) 0.9984(6) 0.98338(12)
H9 H 0.725610 0.942529 0.989340
O10 O 0.6935(4) 0.8654(4) 0.85508(9)
O11 O 0.5476(3) 0.8703(3) 0.83431(7)
C32 C 0.3956(5) 0.8776(5) 0.91207(10)
C33 C 0.5054(5) 0.8788(5) 0.91474(10)
H22 H 0.536677 0.882811 0.928987
C34 C 0.5678(5) 0.8739(5) 0.89551(11)
H23 H 0.642576 0.871466 0.896933
C35 C 0.5220(5) 0.8724(4) 0.87382(10)
C36 C 0.4110(5) 0.8705(4) 0.87163(10)
H24 H 0.380133 0.866072 0.857349
C37 C 0.3449(5) 0.8750(4) 0.89059(10)
C38 C 0.2298(5) 0.8769(4) 0.89440(10)
C39 C 0.1405(5) 0.8735(4) 0.88008(10)
H25 H 0.149964 0.870666 0.864510
C40 C 0.0396(5) 0.8743(5) 0.88908(10)
C41 C 0.0253(5) 0.8786(5) 0.91218(11)
C42 C 0.1111(5) 0.8833(5) 0.92696(11)
H27 H 0.100966 0.885962 0.942506
C43 C 0.2126(5) 0.8840(5) 0.91748(10)
C44 C 0.3289(5) 0.9025(6) 0.95182(11)
C45 C 0.2900(8) 0.9861(6) 0.96047(12)
C47 C 0.3484(5) 0.9399(5) 0.99754(10)
C48 C 0.3855(11) 0.8579(7) 0.98863(14)
H30 H 0.419170 0.814372 0.997975
C49 C 0.3737(10) 0.8384(7) 0.96585(14)
H31 H 0.396714 0.780923 0.960167
C50 C 0.5913(5) 0.8696(4) 0.85366(10)
N4 N 0.3133(4) 0.8844(4) 0.92849(9)
Zn4 Zn 0.69048(6) 0.86018(5) 0.81663(2)
Zn3_2 Zn 0.80952(6) 0.13982(5) 0.31663(2)
Zn1_2 Zn 0.69048(6) 0.36018(5) 0.31663(2)
O1_2 O 0.5660(4) 0.2166(3) 0.28014(8)
O2_2 O 0.6533(5) 0.3518(3) 0.28397(7)
O3_2 O 0.9435(4) 0.3846(4) 0.10508(9)
O4_2 O 0.7976(3) 0.3797(3) 0.08431(7)
O5_2 O 0.2054(4) 0.3800(4) 0.10316(7)
O6_2 O 0.1019(4) 0.3829(4) 0.13346(8)
H1_2 H 0.055558 0.400632 0.124534
O7_2 O 0.8418(4) 0.3080(4) 0.31778(8)
C1_2 C 0.6456(5) 0.3724(5) 0.16207(10)
C2_2 C 0.7554(5) 0.3712(5) 0.16474(10)
H2_2 H 0.786677 0.367189 0.178987
C3_2 C 0.8178(5) 0.3761(5) 0.14551(11)
H3_2 H 0.892576 0.378534 0.146933
C4_2 C 0.7720(5) 0.3776(4) 0.12382(10)
C5_2 C 0.6610(5) 0.3795(4) 0.12163(10)
H4_2 H 0.630133 0.383928 0.107349
C6_2 C 0.5949(5) 0.3750(4) 0.14059(10)
C7_2 C 0.4798(5) 0.3731(4) 0.14440(10)
C8_2 C 0.3905(5) 0.3765(4) 0.13008(10)
H5_2 H 0.399964 0.379334 0.114510
C9_2 C 0.2896(5) 0.3757(5) 0.13908(10)
C10_2 C 0.2753(5) 0.3714(5) 0.16218(11)
H6_2 H 0.205446 0.371605 0.167961
C11_2 C 0.3611(5) 0.3667(5) 0.17696(11)
H7_2 H 0.350966 0.364038 0.192506
C12_2 C 0.4626(5) 0.3660(5) 0.16748(10)
C13_2 C 0.5789(5) 0.3475(6) 0.20182(11)
C14_2 C 0.5400(8) 0.2639(6) 0.21047(12)
H8_2 H 0.507389 0.219544 0.201165
C15_2 C 0.5510(8) 0.2484(6) 0.23338(12)
H9_2 H 0.524390 0.192529 0.239340
C16_2 C 0.5984(5) 0.3101(5) 0.24754(10)
C17_2 C 0.6355(11) 0.3921(7) 0.23863(14)
H10_2 H 0.669170 0.435628 0.247975
C18_2 C 0.6237(10) 0.4116(7) 0.21585(14)
H11_2 H 0.646714 0.469077 0.210167
C19_2 C 0.8413(5) 0.3804(4) 0.10366(10)
C20_2 C 0.1966(5) 0.3816(5) 0.12333(11)
C21_2 C 0.6074(5) 0.2913(5) 0.27244(10)
C22_2 C 0.6481(5) 0.5560(6) 0.30397(14)
H12_2 H 0.585602 0.526114 0.299052
C23_2 C 0.6537(6) 0.6522(6) 0.30172(15)
H13_2 H 0.597328 0.685862 0.295240
C24_2 C 0.7455(5) 0.6970(5) 0.30937(10)
C25_2 C 0.8292(5) 0.6416(6) 0.31714(19)
H14_2 H 0.895146 0.668603 0.320967
C26_2 C 0.8145(6) 0.5475(5) 0.31915(15)
H15_2 H 0.869783 0.511913 0.325445
N1_2 N 0.7251(4) 0.5037(4) 0.31258(9)
N2_2 N 0.5633(4) 0.3656(4) 0.17849(9)
H16_2 H 0.878(7) 0.325(7) 0.3245(14)
C27_2 C 0.8519(5) 0.9440(6) 0.30397(14)
H17_2 H 0.914398 0.973886 0.299052
C28_2 C 0.8463(6) 0.8478(6) 0.30172(15)
H18_2 H 0.902672 0.814138 0.295240
C29_2 C 0.7545(5) 0.8030(5) 0.30937(10)
C30_2 C 0.6708(5) 0.8584(6) 0.31714(19)
H19_2 H 0.604854 0.831397 0.320967
C31_2 C 0.6855(6) 0.9525(5) 0.31915(15)
H20_2 H 0.630217 0.988087 0.325445
N3_2 N 0.7749(4) 0.9963(4) 0.31258(9)
O8_2 O 0.9340(4) 0.2834(3) 0.28014(8)
O9_2 O 0.8467(5) 0.1482(3) 0.28397(7)
O14_2 O 0.6582(4) 0.1920(4) 0.31778(8)
C32_2 C 0.8544(5) 0.1276(5) 0.16207(10)
C33_2 C 0.7446(5) 0.1288(5) 0.16474(10)
H22_2 H 0.713323 0.132811 0.178987
C34_2 C 0.6822(5) 0.1239(5) 0.14551(11)
H23_2 H 0.607424 0.121466 0.146933
C35_2 C 0.7280(5) 0.1224(4) 0.12382(10)
C36_2 C 0.8390(5) 0.1205(4) 0.12163(10)
H24_2 H 0.869867 0.116072 0.107349
C37_2 C 0.9051(5) 0.1250(4) 0.14059(10)
C44_2 C 0.9211(5) 0.1525(6) 0.20182(11)
C45_2 C 0.9600(8) 0.2361(6) 0.21047(12)
H28_2 H 0.992611 0.280456 0.201165
C46_2 C 0.9490(8) 0.2516(6) 0.23338(12)
H29_2 H 0.975610 0.307471 0.239340
C47_2 C 0.9016(5) 0.1899(5) 0.24754(10)
C48_2 C 0.8645(11) 0.1079(7) 0.23863(14)
H30_2 H 0.830830 0.064372 0.247975
C49_2 C 0.8763(10) 0.0884(7) 0.21585(14)
H31_2 H 0.853286 0.030923 0.210167
C50_2 C 0.6587(5) 0.1196(4) 0.10366(10)
C52_2 C 0.8926(5) 0.2087(5) 0.27244(10)
N4_2 N 0.9367(4) 0.1344(4) 0.17849(9)
H32_2 H 0.622(7) 0.175(7) 0.3245(14)
Zn5_2 Zn 0.94048(6) 0.38982(5) 0.06663(2)
O15_2 O 0.6935(4) 0.3654(4) 0.35508(9)
O16_2 O 0.8065(4) 0.1346(4) 0.35508(9)
O17_2 O 0.5476(3) 0.3703(3) 0.33431(7)
O18_2 O 0.9524(3) 0.1297(3) 0.33431(7)
C27_3 C 0.3981(5) 0.1940(6) 0.55397(14)
H17_3 H 0.335602 0.223886 0.549052
C28_3 C 0.4037(6) 0.0978(6) 0.55172(15)
H18_3 H 0.347328 0.064138 0.545240
C29_3 C 0.4955(5) 0.0530(5) 0.55937(10)
C30_3 C 0.5792(5) 0.1084(6) 0.56714(19)
H19_3 H 0.645146 0.081397 0.570967
C31_3 C 0.5645(6) 0.2025(5) 0.56915(15)
H20_3 H 0.619783 0.238087 0.575445
N3_3 N 0.4751(4) 0.2463(4) 0.56258(9)
Zn3_3 Zn 0.44048(6) 0.38982(5) 0.56663(2)
Zn1_3 Zn 0.55952(6) 0.61018(5) 0.56663(2)
O1_3 O 0.6840(4) 0.4666(3) 0.53014(8)
O2_3 O 0.5967(5) 0.6018(3) 0.53397(7)
O3_3 O 0.3065(4) 0.6346(4) 0.35508(9)
O4_3 O 0.4524(3) 0.6297(3) 0.33431(7)
O7_3 O 0.4082(4) 0.5580(4) 0.56778(8)
C1_3 C 0.6044(5) 0.6224(5) 0.41207(10)
C2_3 C 0.4946(5) 0.6212(5) 0.41474(10)
H2_3 H 0.463323 0.617189 0.428987
C3_3 C 0.4322(5) 0.6261(5) 0.39551(11)
H3_3 H 0.357424 0.628534 0.396933
C4_3 C 0.4780(5) 0.6276(4) 0.37382(10)
C5_3 C 0.5890(5) 0.6295(4) 0.37163(10)
H4_3 H 0.619867 0.633928 0.357349
C6_3 C 0.6551(5) 0.6250(4) 0.39059(10)
C7_3 C 0.7702(5) 0.6231(4) 0.39440(10)
C8_3 C 0.8595(5) 0.6265(4) 0.38008(10)
H5_3 H 0.850036 0.629334 0.364510
C9_3 C 0.9604(5) 0.6257(5) 0.38908(10)
C10_3 C 0.9747(5) 0.6214(5) 0.41218(11)
C11_3 C 0.8889(5) 0.6167(5) 0.42696(11)
H7_3 H 0.899034 0.614038 0.442506
C12_3 C 0.7874(5) 0.6160(5) 0.41748(10)
C13_3 C 0.6711(5) 0.5975(6) 0.45182(11)
C14_3 C 0.7100(8) 0.5139(6) 0.46047(12)
H8_3 H 0.742611 0.469544 0.451165
C15_3 C 0.6990(8) 0.4984(6) 0.48338(12)
H9_3 H 0.725610 0.442529 0.489340
C16_3 C 0.6516(5) 0.5601(5) 0.49754(10)
C17_3 C 0.6145(11) 0.6421(7) 0.48863(14)
H10_3 H 0.580830 0.685628 0.497975
C18_3 C 0.6263(10) 0.6616(7) 0.46585(14)
H11_3 H 0.603286 0.719077 0.460167
C19_3 C 0.4087(5) 0.6304(4) 0.35366(10)
C21_3 C 0.6426(5) 0.5413(5) 0.52244(10)
C22_3 C 0.6019(5) 0.8060(6) 0.55397(14)
H12_3 H 0.664398 0.776114 0.549052
C23_3 C 0.5963(6) 0.9022(6) 0.55172(15)
H13_3 H 0.652672 0.935862 0.545240
C24_3 C 0.5045(5) 0.9470(5) 0.55937(10)
C25_3 C 0.4208(5) 0.8916(6) 0.56714(19)
H14_3 H 0.354854 0.918603 0.570967
C26_3 C 0.4355(6) 0.7975(5) 0.56915(15)
H15_3 H 0.380217 0.761913 0.575445
N1_3 N 0.5249(4) 0.7537(4) 0.56258(9)
N2_3 N 0.6867(4) 0.6156(4) 0.42849(9)
H16_3 H 0.372(7) 0.575(7) 0.5745(14)
O8_3 O 0.3160(4) 0.5334(3) 0.53014(8)
O9_3 O 0.4033(5) 0.3982(3) 0.53397(7)
O14_3 O 0.5918(4) 0.4420(4) 0.56778(8)
C32_3 C 0.3956(5) 0.3776(5) 0.41207(10)
C33_3 C 0.5054(5) 0.3788(5) 0.41474(10)
H22_3 H 0.536677 0.382811 0.428987
C34_3 C 0.5678(5) 0.3739(5) 0.39551(11)
H23_3 H 0.642576 0.371466 0.396933
C35_3 C 0.5220(5) 0.3724(4) 0.37382(10)
C36_3 C 0.4110(5) 0.3705(4) 0.37163(10)
H24_3 H 0.380133 0.366072 0.357349
C37_3 C 0.3449(5) 0.3750(4) 0.39059(10)
C38_2 C 0.2298(5) 0.3769(4) 0.39440(10)
C39_2 C 0.1405(5) 0.3735(4) 0.38008(10)
H25_2 H 0.149964 0.370666 0.364510
C40_2 C 0.0396(5) 0.3743(5) 0.38908(10)
C41_2 C 0.0253(5) 0.3786(5) 0.41218(11)
C42_2 C 0.1111(5) 0.3833(5) 0.42696(11)
H27_2 H 0.100966 0.385962 0.442506
C43_2 C 0.2126(5) 0.3840(5) 0.41748(10)
C44_3 C 0.3289(5) 0.4025(6) 0.45182(11)
C45_3 C 0.2900(8) 0.4861(6) 0.46047(12)
H28_3 H 0.257389 0.530456 0.451165
C46_3 C 0.3010(8) 0.5016(6) 0.48338(12)
H29_3 H 0.274390 0.557471 0.489340
C47_3 C 0.3484(5) 0.4399(5) 0.49754(10)
C48_3 C 0.3855(11) 0.3579(7) 0.48863(14)
H30_3 H 0.419170 0.314372 0.497975
C49_3 C 0.3737(10) 0.3384(7) 0.46585(14)
H31_3 H 0.396714 0.280923 0.460167
C50_3 C 0.5913(5) 0.3696(4) 0.35366(10)
C52_3 C 0.3574(5) 0.4587(5) 0.52244(10)
N4_3 N 0.3133(4) 0.3844(4) 0.42849(9)
H32_3 H 0.628(7) 0.425(7) 0.5745(14)
Zn5_3 Zn 0.30952(6) 0.63982(5) 0.31663(2)
O15_3 O 0.5565(4) 0.6154(4) 0.60508(9)
O16_3 O 0.4435(4) 0.3846(4) 0.60508(9)
O17_3 O 0.7024(3) 0.6203(3) 0.58431(7)
O18_3 O 0.2976(3) 0.3797(3) 0.58431(7)
C22_4 C 0.6481(5) 0.0560(6) 0.80397(14)
H12_4 H 0.585602 0.026114 0.799052
C23_4 C 0.6537(6) 0.1522(6) 0.80172(15)
H13_4 H 0.597328 0.185862 0.795240
C24_4 C 0.7455(5) 0.1970(5) 0.80937(10)
C25_4 C 0.8292(5) 0.1416(6) 0.81714(19)
H14_4 H 0.895146 0.168603 0.820967
C26_4 C 0.8145(6) 0.0475(5) 0.81915(15)
H15_4 H 0.869783 0.011913 0.825445
N1_4 N 0.7251(4) 0.0037(4) 0.81258(9)
C27_4 C 0.8519(5) 0.4440(6) 0.80397(14)
H17_4 H 0.914398 0.473886 0.799052
C28_4 C 0.8463(6) 0.3478(6) 0.80172(15)
H18_4 H 0.902672 0.314138 0.795240
C29_4 C 0.7545(5) 0.3030(5) 0.80937(10)
C30_4 C 0.6708(5) 0.3584(6) 0.81714(19)
H19_4 H 0.604854 0.331397 0.820967
C31_4 C 0.6855(6) 0.4525(5) 0.81915(15)
H20_4 H 0.630217 0.488087 0.825445
N3_4 N 0.7749(4) 0.4963(4) 0.81258(9)
Zn3_4 Zn 0.80952(6) 0.63982(5) 0.81663(2)
O1_4 O 0.5660(4) 0.7166(3) 0.78014(8)
O2_4 O 0.6533(5) 0.8518(3) 0.78397(7)
O3_4 O 0.9435(4) 0.8846(4) 0.60508(9)
O4_4 O 0.7976(3) 0.8797(3) 0.58431(7)
O5_3 O 0.2054(4) 0.8800(4) 0.60316(7)
O6_3 O 0.1019(4) 0.8829(4) 0.63346(8)
H1_3 H 0.055558 0.900632 0.624534
O7_4 O 0.8418(4) 0.8080(4) 0.81778(8)
C1_4 C 0.6456(5) 0.8724(5) 0.66207(10)
C2_4 C 0.7554(5) 0.8712(5) 0.66474(10)
H2_4 H 0.786677 0.867189 0.678987
C3_4 C 0.8178(5) 0.8761(5) 0.64551(11)
H3_4 H 0.892576 0.878534 0.646933
C4_4 C 0.7720(5) 0.8776(4) 0.62382(10)
C5_4 C 0.6610(5) 0.8795(4) 0.62163(10)
H4_4 H 0.630133 0.883928 0.607349
C6_4 C 0.5949(5) 0.8750(4) 0.64059(10)
C7_4 C 0.4798(5) 0.8731(4) 0.64440(10)
C8_4 C 0.3905(5) 0.8765(4) 0.63008(10)
H5_4 H 0.399964 0.879334 0.614510
C9_4 C 0.2896(5) 0.8757(5) 0.63908(10)
C10_4 C 0.2753(5) 0.8714(5) 0.66218(11)
H6_3 H 0.205446 0.871605 0.667961
C11_4 C 0.3611(5) 0.8667(5) 0.67696(11)
H7_4 H 0.350966 0.864038 0.692506
C12_4 C 0.4626(5) 0.8660(5) 0.66748(10)
C13_4 C 0.5789(5) 0.8475(6) 0.70182(11)
C14_4 C 0.5400(8) 0.7639(6) 0.71047(12)
H8_4 H 0.507389 0.719544 0.701165
C15_4 C 0.5510(8) 0.7484(6) 0.73338(12)
H9_4 H 0.524390 0.692529 0.739340
C16_4 C 0.5984(5) 0.8101(5) 0.74754(10)
C17_4 C 0.6355(11) 0.8921(7) 0.73863(14)
H10_4 H 0.669170 0.935628 0.747975
C18_4 C 0.6237(10) 0.9116(7) 0.71585(14)
H11_4 H 0.646714 0.969077 0.710167
C19_4 C 0.8413(5) 0.8804(4) 0.60366(10)
C20_3 C 0.1966(5) 0.8816(5) 0.62333(11)
C21_4 C 0.6074(5) 0.7913(5) 0.77244(10)
N2_4 N 0.5633(4) 0.8656(4) 0.67849(9)
H16_4 H 0.878(7) 0.825(7) 0.8245(14)
O8_4 O 0.9340(4) 0.7834(3) 0.78014(8)
O9_4 O 0.8467(5) 0.6482(3) 0.78397(7)
O14_4 O 0.6582(4) 0.6920(4) 0.81778(8)
C32_4 C 0.8544(5) 0.6276(5) 0.66207(10)
C33_4 C 0.7446(5) 0.6288(5) 0.66474(10)
H22_4 H 0.713323 0.632811 0.678987
C34_4 C 0.6822(5) 0.6239(5) 0.64551(11)
H23_4 H 0.607424 0.621466 0.646933
C35_4 C 0.7280(5) 0.6224(4) 0.62382(10)
C36_4 C 0.8390(5) 0.6205(4) 0.62163(10)
H24_4 H 0.869867 0.616072 0.607349
C37_4 C 0.9051(5) 0.6250(4) 0.64059(10)
C44_4 C 0.9211(5) 0.6525(6) 0.70182(11)
C45_4 C 0.9600(8) 0.7361(6) 0.71047(12)
H28_4 H 0.992611 0.780456 0.701165
C46_4 C 0.9490(8) 0.7516(6) 0.73338(12)
H29_4 H 0.975610 0.807471 0.739340
C47_4 C 0.9016(5) 0.6899(5) 0.74754(10)
C48_4 C 0.8645(11) 0.6079(7) 0.73863(14)
H30_4 H 0.830830 0.564372 0.747975
C49_4 C 0.8763(10) 0.5884(7) 0.71585(14)
H31_4 H 0.853286 0.530923 0.710167
C50_4 C 0.6587(5) 0.6196(4) 0.60366(10)
C52_4 C 0.8926(5) 0.7087(5) 0.77244(10)
N4_4 N 0.9367(4) 0.6344(4) 0.67849(9)
H32_4 H 0.622(7) 0.675(7) 0.8245(14)
Zn5_4 Zn 0.94048(6) 0.88982(5) 0.56663(2)
O16_4 O 0.8065(4) 0.6346(4) 0.85508(9)
O18_4 O 0.9524(3) 0.6297(3) 0.83431(7)
Zn1_4 Zn 0.05952(6) 0.11018(5) 0.56663(2)
O2_5 O 0.0967(5) 0.1018(3) 0.53397(7)
O5_4 O 0.5446(4) 0.1300(4) 0.35316(7)
O6_4 O 0.6481(4) 0.1329(4) 0.38346(8)
H1_4 H 0.694442 0.150632 0.374534
C1_5 C 0.1044(5) 0.1224(5) 0.41207(10)
C5_5 C 0.0890(5) 0.1295(4) 0.37163(10)
H4_5 H 0.119867 0.133928 0.357349
C6_5 C 0.1551(5) 0.1250(4) 0.39059(10)
C7_5 C 0.2702(5) 0.1231(4) 0.39440(10)
C8_5 C 0.3595(5) 0.1265(4) 0.38008(10)
H5_5 H 0.350036 0.129334 0.364510
C9_5 C 0.4604(5) 0.1257(5) 0.38908(10)
C10_5 C 0.4747(5) 0.1214(5) 0.41218(11)
H6_4 H 0.544554 0.121605 0.417961
C11_5 C 0.3889(5) 0.1167(5) 0.42696(11)
H7_5 H 0.399034 0.114038 0.442506
C12_5 C 0.2874(5) 0.1160(5) 0.41748(10)
C13_5 C 0.1711(5) 0.0975(6) 0.45182(11)
C14_5 C 0.2100(8) 0.0139(6) 0.46047(12)
C16_5 C 0.1516(5) 0.0601(5) 0.49754(10)
C17_5 C 0.1145(11) 0.1421(7) 0.48863(14)
H10_5 H 0.080830 0.185628 0.497975
C18_5 C 0.1263(10) 0.1616(7) 0.46585(14)
H11_5 H 0.103286 0.219077 0.460167
C20_4 C 0.5534(5) 0.1316(5) 0.37333(11)
C21_5 C 0.1426(5) 0.0413(5) 0.52244(10)
C22_5 C 0.1019(5) 0.3060(6) 0.55397(14)
H12_5 H 0.164398 0.276114 0.549052
C23_5 C 0.0963(6) 0.4022(6) 0.55172(15)
H13_5 H 0.152672 0.435862 0.545240
C24_5 C 0.0045(5) 0.4470(5) 0.55937(10)
N1_5 N 0.0249(4) 0.2537(4) 0.56258(9)
N2_5 N 0.1867(4) 0.1156(4) 0.42849(9)
C30_5 C 0.0792(5) 0.6084(6) 0.56714(19)
H19_5 H 0.145146 0.581397 0.570967
C31_5 C 0.0645(6) 0.7025(5) 0.56915(15)
H20_5 H 0.119783 0.738087 0.575445
O15_4 O 0.0565(4) 0.1154(4) 0.60508(9)
O17_4 O 0.2024(3) 0.1203(3) 0.58431(7)
O1_5 O 0.1840(4) 0.9666(3) 0.53014(8)
H8_5 H 0.242611 0.969544 0.451165
C15_5 C 0.1990(8) 0.9984(6) 0.48338(12)
H9_5 H 0.225610 0.942529 0.489340
O10_2 O 0.1935(4) 0.8654(4) 0.35508(9)
O11_2 O 0.0476(3) 0.8703(3) 0.33431(7)
O14_5 O 0.0918(4) 0.9420(4) 0.56778(8)
C33_5 C 0.0054(5) 0.8788(5) 0.41474(10)
H22_5 H 0.036677 0.882811 0.428987
C34_5 C 0.0678(5) 0.8739(5) 0.39551(11)
H23_5 H 0.142576 0.871466 0.396933
C35_5 C 0.0220(5) 0.8724(4) 0.37382(10)
C50_5 C 0.0913(5) 0.8696(4) 0.35366(10)
H32_5 H 0.128(7) 0.925(7) 0.5745(14)
Zn4_2 Zn 0.19048(6) 0.86018(5) 0.31663(2)
O7_5 O 0.9082(4) 0.0580(4) 0.56778(8)
C2_5 C 0.9946(5) 0.1212(5) 0.41474(10)
H2_5 H 0.963323 0.117189 0.428987
C3_5 C 0.9322(5) 0.1261(5) 0.39551(11)
H3_5 H 0.857424 0.128534 0.396933
C4_5 C 0.9780(5) 0.1276(4) 0.37382(10)
C19_5 C 0.9087(5) 0.1304(4) 0.35366(10)
C25_5 C 0.9208(5) 0.3916(6) 0.56714(19)
H14_5 H 0.854854 0.418603 0.570967
C26_5 C 0.9355(6) 0.2975(5) 0.56915(15)
H15_5 H 0.880217 0.261913 0.575445
H16_5 H 0.872(7) 0.075(7) 0.5745(14)
C27_5 C 0.8981(5) 0.6940(6) 0.55397(14)
H17_5 H 0.835602 0.723886 0.549052
C28_5 C 0.9037(6) 0.5978(6) 0.55172(15)
H18_5 H 0.847328 0.564138 0.545240
C29_5 C 0.9955(5) 0.5530(5) 0.55937(10)
N3_5 N 0.9751(4) 0.7463(4) 0.56258(9)
O8_5 O 0.8160(4) 0.0334(3) 0.53014(8)
H28_5 H 0.757389 0.030456 0.451165
C46_5 C 0.8010(8) 0.0016(6) 0.48338(12)
H29_5 H 0.774390 0.057471 0.489340
O9_5 O 0.9033(5) 0.8982(3) 0.53397(7)
O12 O 0.4554(4) 0.8700(4) 0.35316(7)
O13 O 0.3519(4) 0.8671(4) 0.38346(8)
H21 H 0.305558 0.849368 0.374534
C32_5 C 0.8956(5) 0.8776(5) 0.41207(10)
C36_5 C 0.9110(5) 0.8705(4) 0.37163(10)
H24_5 H 0.880133 0.866072 0.357349
C37_5 C 0.8449(5) 0.8750(4) 0.39059(10)
C38_3 C 0.7298(5) 0.8769(4) 0.39440(10)
C39_3 C 0.6405(5) 0.8735(4) 0.38008(10)
H25_3 H 0.649964 0.870666 0.364510
C40_3 C 0.5396(5) 0.8743(5) 0.38908(10)
C41_3 C 0.5253(5) 0.8786(5) 0.41218(11)
H26 H 0.455446 0.878395 0.417961
C42_3 C 0.6111(5) 0.8833(5) 0.42696(11)
H27_3 H 0.600966 0.885962 0.442506
C43_3 C 0.7126(5) 0.8840(5) 0.41748(10)
C44_5 C 0.8289(5) 0.9025(6) 0.45182(11)
C45_5 C 0.7900(8) 0.9861(6) 0.46047(12)
C47_5 C 0.8484(5) 0.9399(5) 0.49754(10)
C48_5 C 0.8855(11) 0.8579(7) 0.48863(14)
H30_5 H 0.919170 0.814372 0.497975
C49_5 C 0.8737(10) 0.8384(7) 0.46585(14)
H31_5 H 0.896714 0.780923 0.460167
C51 C 0.4466(5) 0.8684(5) 0.37333(11)
C52_5 C 0.8574(5) 0.9587(5) 0.52244(10)
N4_5 N 0.8133(4) 0.8844(4) 0.42849(9)
Zn1_5 Zn 0.19048(6) 0.36018(5) 0.81663(2)
O1_6 O 0.0660(4) 0.2166(3) 0.78014(8)
O2_6 O 0.1533(5) 0.3518(3) 0.78397(7)
O7_6 O 0.3418(4) 0.3080(4) 0.81778(8)
C1_6 C 0.1456(5) 0.3724(5) 0.66207(10)
C2_6 C 0.2554(5) 0.3712(5) 0.66474(10)
H2_6 H 0.286677 0.367189 0.678987
C3_6 C 0.3178(5) 0.3761(5) 0.64551(11)
H3_6 H 0.392576 0.378534 0.646933
C4_6 C 0.2720(5) 0.3776(4) 0.62382(10)
C5_6 C 0.1610(5) 0.3795(4) 0.62163(10)
H4_6 H 0.130133 0.383928 0.607349
C6_6 C 0.0949(5) 0.3750(4) 0.64059(10)
C13_6 C 0.0789(5) 0.3475(6) 0.70182(11)
C14_6 C 0.0400(8) 0.2639(6) 0.71047(12)
H8_6 H 0.007389 0.219544 0.701165
C15_6 C 0.0510(8) 0.2484(6) 0.73338(12)
H9_6 H 0.024390 0.192529 0.739340
C16_6 C 0.0984(5) 0.3101(5) 0.74754(10)
C17_6 C 0.1355(11) 0.3921(7) 0.73863(14)
H10_6 H 0.169170 0.435628 0.747975
C18_6 C 0.1237(10) 0.4116(7) 0.71585(14)
H11_6 H 0.146714 0.469077 0.710167
C19_6 C 0.3413(5) 0.3804(4) 0.60366(10)
C21_6 C 0.1074(5) 0.2913(5) 0.77244(10)
C22_6 C 0.1481(5) 0.5560(6) 0.80397(14)
H12_6 H 0.085602 0.526114 0.799052
C23_6 C 0.1537(6) 0.6522(6) 0.80172(15)
H13_6 H 0.097328 0.685862 0.795240
C24_6 C 0.2455(5) 0.6970(5) 0.80937(10)
C25_6 C 0.3292(5) 0.6416(6) 0.81714(19)
H14_6 H 0.395146 0.668603 0.820967
C26_6 C 0.3145(6) 0.5475(5) 0.81915(15)
H15_6 H 0.369783 0.511913 0.825445
N1_6 N 0.2251(4) 0.5037(4) 0.81258(9)
N2_6 N 0.0633(4) 0.3656(4) 0.67849(9)
H16_6 H 0.378(7) 0.325(7) 0.8245(14)
C27_6 C 0.3519(5) 0.9440(6) 0.80397(14)
H17_6 H 0.414398 0.973886 0.799052
C28_6 C 0.3463(6) 0.8478(6) 0.80172(15)
H18_6 H 0.402672 0.814138 0.795240
C29_6 C 0.2545(5) 0.8030(5) 0.80937(10)
C30_6 C 0.1708(5) 0.8584(6) 0.81714(19)
H19_6 H 0.104854 0.831397 0.820967
C31_6 C 0.1855(6) 0.9525(5) 0.81915(15)
H20_6 H 0.130217 0.988087 0.825445
N3_6 N 0.2749(4) 0.9963(4) 0.81258(9)
O8_6 O 0.4340(4) 0.2834(3) 0.78014(8)
O9_6 O 0.3467(5) 0.1482(3) 0.78397(7)
O12_2 O 0.7946(4) 0.1200(4) 0.60316(7)
O13_2 O 0.8981(4) 0.1171(4) 0.63346(8)
H21_2 H 0.944442 0.099368 0.624534
O14_6 O 0.1582(4) 0.1920(4) 0.81778(8)
C32_6 C 0.3544(5) 0.1276(5) 0.66207(10)
C33_6 C 0.2446(5) 0.1288(5) 0.66474(10)
H22_6 H 0.213323 0.132811 0.678987
C34_6 C 0.1822(5) 0.1239(5) 0.64551(11)
H23_6 H 0.107424 0.121466 0.646933
C35_6 C 0.2280(5) 0.1224(4) 0.62382(10)
C36_6 C 0.3390(5) 0.1205(4) 0.62163(10)
H24_6 H 0.369867 0.116072 0.607349
C37_6 C 0.4051(5) 0.1250(4) 0.64059(10)
C38_4 C 0.5202(5) 0.1269(4) 0.64440(10)
C39_4 C 0.6095(5) 0.1235(4) 0.63008(10)
H25_4 H 0.600036 0.120666 0.614510
C40_4 C 0.7104(5) 0.1243(5) 0.63908(10)
C41_4 C 0.7247(5) 0.1286(5) 0.66218(11)
H26_2 H 0.794554 0.128395 0.667961
C42_4 C 0.6389(5) 0.1333(5) 0.67696(11)
H27_4 H 0.649034 0.135962 0.692506
C43_4 C 0.5374(5) 0.1340(5) 0.66748(10)
C44_6 C 0.4211(5) 0.1525(6) 0.70182(11)
C45_6 C 0.4600(8) 0.2361(6) 0.71047(12)
H28_6 H 0.492611 0.280456 0.701165
C46_6 C 0.4490(8) 0.2516(6) 0.73338(12)
H29_6 H 0.475610 0.307471 0.739340
C47_6 C 0.4016(5) 0.1899(5) 0.74754(10)
C48_6 C 0.3645(11) 0.1079(7) 0.73863(14)
H30_6 H 0.330830 0.064372 0.747975
C49_6 C 0.3763(10) 0.0884(7) 0.71585(14)
H31_6 H 0.353286 0.030923 0.710167
C50_6 C 0.1587(5) 0.1196(4) 0.60366(10)
C51_2 C 0.8034(5) 0.1184(5) 0.62333(11)
C52_6 C 0.3926(5) 0.2087(5) 0.77244(10)
N4_6 N 0.4367(4) 0.1344(4) 0.67849(9)
H32_6 H 0.122(7) 0.175(7) 0.8245(14)
O15_5 O 0.1935(4) 0.3654(4) 0.85508(9)
O17_5 O 0.0476(3) 0.3703(3) 0.83431(7)
C30_7 C 0.0792(5) 0.1084(6) 0.06714(19)
H19_7 H 0.145146 0.081397 0.070967
C31_7 C 0.0645(6) 0.2025(5) 0.06915(15)
H20_7 H 0.119783 0.238087 0.075445
Zn1_6 Zn 0.05952(6) 0.61018(5) 0.06663(2)
O1_7 O 0.1840(4) 0.4666(3) 0.03014(8)
O2_7 O 0.0967(5) 0.6018(3) 0.03397(7)
C21_7 C 0.1426(5) 0.5413(5) 0.02244(10)
C22_7 C 0.1019(5) 0.8060(6) 0.05397(14)
H12_7 H 0.164398 0.776114 0.049052
C23_7 C 0.0963(6) 0.9022(6) 0.05172(15)
H13_7 H 0.152672 0.935862 0.045240
C24_7 C 0.0045(5) 0.9470(5) 0.05937(10)
N1_7 N 0.0249(4) 0.7537(4) 0.06258(9)
O14_7 O 0.0918(4) 0.4420(4) 0.06778(8)
H32_7 H 0.128(7) 0.425(7) 0.0745(14)
O15_6 O 0.0565(4) 0.6154(4) 0.10508(9)
O17_6 O 0.2024(3) 0.6203(3) 0.08431(7)
O5_5 O 0.5446(4) 0.6300(4) 0.85316(7)
O6_5 O 0.6481(4) 0.6329(4) 0.88346(8)
H1_5 H 0.694442 0.650632 0.874534
C1_7 C 0.1044(5) 0.6224(5) 0.91207(10)
C5_7 C 0.0890(5) 0.6295(4) 0.87163(10)
H4_7 H 0.119867 0.633928 0.857349
C6_7 C 0.1551(5) 0.6250(4) 0.89059(10)
C7_6 C 0.2702(5) 0.6231(4) 0.89440(10)
C8_6 C 0.3595(5) 0.6265(4) 0.88008(10)
H5_6 H 0.350036 0.629334 0.864510
C9_6 C 0.4604(5) 0.6257(5) 0.88908(10)
C10_6 C 0.4747(5) 0.6214(5) 0.91218(11)
H6_5 H 0.544554 0.621605 0.917961
C11_6 C 0.3889(5) 0.6167(5) 0.92696(11)
H7_6 H 0.399034 0.614038 0.942506
C12_6 C 0.2874(5) 0.6160(5) 0.91748(10)
C13_7 C 0.1711(5) 0.5975(6) 0.95182(11)
C14_7 C 0.2100(8) 0.5139(6) 0.96047(12)
H8_7 H 0.242611 0.469544 0.951165
C15_7 C 0.1990(8) 0.4984(6) 0.98338(12)
H9_7 H 0.225610 0.442529 0.989340
C16_7 C 0.1516(5) 0.5601(5) 0.99754(10)
C17_7 C 0.1145(11) 0.6421(7) 0.98863(14)
H10_7 H 0.080830 0.685628 0.997975
C18_7 C 0.1263(10) 0.6616(7) 0.96585(14)
H11_7 H 0.103286 0.719077 0.960167
C20_5 C 0.5534(5) 0.6316(5) 0.87333(11)
N2_7 N 0.1867(4) 0.6156(4) 0.92849(9)
C33_7 C 0.0054(5) 0.3788(5) 0.91474(10)
H22_7 H 0.036677 0.382811 0.928987
C34_7 C 0.0678(5) 0.3739(5) 0.89551(11)
H23_7 H 0.142576 0.371466 0.896933
C35_7 C 0.0220(5) 0.3724(4) 0.87382(10)
C50_7 C 0.0913(5) 0.3696(4) 0.85366(10)
C27_7 C 0.8981(5) 0.1940(6) 0.05397(14)
H17_7 H 0.835602 0.223886 0.049052
C28_7 C 0.9037(6) 0.0978(6) 0.05172(15)
H18_7 H 0.847328 0.064138 0.045240
C29_7 C 0.9955(5) 0.0530(5) 0.05937(10)
N3_7 N 0.9751(4) 0.2463(4) 0.06258(9)
O7_7 O 0.9082(4) 0.5580(4) 0.06778(8)
C25_7 C 0.9208(5) 0.8916(6) 0.06714(19)
H14_7 H 0.854854 0.918603 0.070967
C26_7 C 0.9355(6) 0.7975(5) 0.06915(15)
H15_7 H 0.880217 0.761913 0.075445
H16_7 H 0.872(7) 0.575(7) 0.0745(14)
O8_7 O 0.8160(4) 0.5334(3) 0.03014(8)
O9_7 O 0.9033(5) 0.3982(3) 0.03397(7)
C52_7 C 0.8574(5) 0.4587(5) 0.02244(10)
C2_7 C 0.9946(5) 0.6212(5) 0.91474(10)
H2_7 H 0.963323 0.617189 0.928987
C3_7 C 0.9322(5) 0.6261(5) 0.89551(11)
H3_7 H 0.857424 0.628534 0.896933
C4_7 C 0.9780(5) 0.6276(4) 0.87382(10)
C19_7 C 0.9087(5) 0.6304(4) 0.85366(10)
O12_3 O 0.4554(4) 0.3700(4) 0.85316(7)
O13_3 O 0.3519(4) 0.3671(4) 0.88346(8)
H21_3 H 0.305558 0.349368 0.874534
C32_7 C 0.8956(5) 0.3776(5) 0.91207(10)
C36_7 C 0.9110(5) 0.3705(4) 0.87163(10)
H24_7 H 0.880133 0.366072 0.857349
C37_7 C 0.8449(5) 0.3750(4) 0.89059(10)
C38_5 C 0.7298(5) 0.3769(4) 0.89440(10)
C39_5 C 0.6405(5) 0.3735(4) 0.88008(10)
H25_5 H 0.649964 0.370666 0.864510
C40_5 C 0.5396(5) 0.3743(5) 0.88908(10)
C41_5 C 0.5253(5) 0.3786(5) 0.91218(11)
H26_3 H 0.455446 0.378395 0.917961
C42_5 C 0.6111(5) 0.3833(5) 0.92696(11)
H27_5 H 0.600966 0.385962 0.942506
C43_5 C 0.7126(5) 0.3840(5) 0.91748(10)
C44_7 C 0.8289(5) 0.4025(6) 0.95182(11)
C45_7 C 0.7900(8) 0.4861(6) 0.96047(12)
H28_7 H 0.757389 0.530456 0.951165
C46_7 C 0.8010(8) 0.5016(6) 0.98338(12)
H29_7 H 0.774390 0.557471 0.989340
C47_7 C 0.8484(5) 0.4399(5) 0.99754(10)
C48_7 C 0.8855(11) 0.3579(7) 0.98863(14)
H30_7 H 0.919170 0.314372 0.997975
C49_7 C 0.8737(10) 0.3384(7) 0.96585(14)
H31_7 H 0.896714 0.280923 0.960167
C51_3 C 0.4466(5) 0.3684(5) 0.87333(11)
N4_7 N 0.8133(4) 0.3844(4) 0.92849(9)
C22_8 C 0.1481(5) 0.0560(6) 0.30397(14)
H12_8 H 0.085602 0.026114 0.299052
C23_8 C 0.1537(6) 0.1522(6) 0.30172(15)
H13_8 H 0.097328 0.185862 0.295240
C24_8 C 0.2455(5) 0.1970(5) 0.30937(10)
C25_8 C 0.3292(5) 0.1416(6) 0.31714(19)
H14_8 H 0.395146 0.168603 0.320967
C26_8 C 0.3145(6) 0.0475(5) 0.31915(15)
H15_8 H 0.369783 0.011913 0.325445
N1_8 N 0.2251(4) 0.0037(4) 0.31258(9)
C27_8 C 0.3519(5) 0.4440(6) 0.30397(14)
H17_8 H 0.414398 0.473886 0.299052
C28_8 C 0.3463(6) 0.3478(6) 0.30172(15)
H18_8 H 0.402672 0.314138 0.295240
C29_8 C 0.2545(5) 0.3030(5) 0.30937(10)
C30_8 C 0.1708(5) 0.3584(6) 0.31714(19)
H19_8 H 0.104854 0.331397 0.320967
C31_8 C 0.1855(6) 0.4525(5) 0.31915(15)
H20_8 H 0.130217 0.488087 0.325445
N3_8 N 0.2749(4) 0.4963(4) 0.31258(9)
O1_8 O 0.0660(4) 0.7166(3) 0.28014(8)
O2_8 O 0.1533(5) 0.8518(3) 0.28397(7)
O7_8 O 0.3418(4) 0.8080(4) 0.31778(8)
C1_8 C 0.1456(5) 0.8724(5) 0.16207(10)
C2_8 C 0.2554(5) 0.8712(5) 0.16474(10)
H2_8 H 0.286677 0.867189 0.178987
C3_8 C 0.3178(5) 0.8761(5) 0.14551(11)
H3_8 H 0.392576 0.878534 0.146933
C4_8 C 0.2720(5) 0.8776(4) 0.12382(10)
C5_8 C 0.1610(5) 0.8795(4) 0.12163(10)
H4_8 H 0.130133 0.883928 0.107349
C6_8 C 0.0949(5) 0.8750(4) 0.14059(10)
C13_8 C 0.0789(5) 0.8475(6) 0.20182(11)
C14_8 C 0.0400(8) 0.7639(6) 0.21047(12)
H8_8 H 0.007389 0.719544 0.201165
C15_8 C 0.0510(8) 0.7484(6) 0.23338(12)
H9_8 H 0.024390 0.692529 0.239340
C16_8 C 0.0984(5) 0.8101(5) 0.24754(10)
C17_8 C 0.1355(11) 0.8921(7) 0.23863(14)
H10_8 H 0.169170 0.935628 0.247975
C18_8 C 0.1237(10) 0.9116(7) 0.21585(14)
H11_8 H 0.146714 0.969077 0.210167
C19_8 C 0.3413(5) 0.8804(4) 0.10366(10)
C21_8 C 0.1074(5) 0.7913(5) 0.27244(10)
N2_8 N 0.0633(4) 0.8656(4) 0.17849(9)
H16_8 H 0.378(7) 0.825(7) 0.3245(14)
O8_8 O 0.4340(4) 0.7834(3) 0.28014(8)
O9_8 O 0.3467(5) 0.6482(3) 0.28397(7)
O12_4 O 0.7946(4) 0.6200(4) 0.10316(7)
O13_4 O 0.8981(4) 0.6171(4) 0.13346(8)
H21_4 H 0.944442 0.599368 0.124534
O14_8 O 0.1582(4) 0.6920(4) 0.31778(8)
C32_8 C 0.3544(5) 0.6276(5) 0.16207(10)
C33_8 C 0.2446(5) 0.6288(5) 0.16474(10)
H22_8 H 0.213323 0.632811 0.178987
C34_8 C 0.1822(5) 0.6239(5) 0.14551(11)
H23_8 H 0.107424 0.621466 0.146933
C35_8 C 0.2280(5) 0.6224(4) 0.12382(10)
C36_8 C 0.3390(5) 0.6205(4) 0.12163(10)
H24_8 H 0.369867 0.616072 0.107349
C37_8 C 0.4051(5) 0.6250(4) 0.14059(10)
C38_6 C 0.5202(5) 0.6269(4) 0.14440(10)
C39_6 C 0.6095(5) 0.6235(4) 0.13008(10)
H25_6 H 0.600036 0.620666 0.114510
C40_6 C 0.7104(5) 0.6243(5) 0.13908(10)
C41_6 C 0.7247(5) 0.6286(5) 0.16218(11)
H26_4 H 0.794554 0.628395 0.167961
C42_6 C 0.6389(5) 0.6333(5) 0.17696(11)
H27_6 H 0.649034 0.635962 0.192506
C43_6 C 0.5374(5) 0.6340(5) 0.16748(10)
C44_8 C 0.4211(5) 0.6525(6) 0.20182(11)
C45_8 C 0.4600(8) 0.7361(6) 0.21047(12)
H28_8 H 0.492611 0.780456 0.201165
C46_8 C 0.4490(8) 0.7516(6) 0.23338(12)
H29_8 H 0.475610 0.807471 0.239340
C47_8 C 0.4016(5) 0.6899(5) 0.24754(10)
C48_8 C 0.3645(11) 0.6079(7) 0.23863(14)
H30_8 H 0.330830 0.564372 0.247975
C49_8 C 0.3763(10) 0.5884(7) 0.21585(14)
H31_8 H 0.353286 0.530923 0.210167
C50_8 C 0.1587(5) 0.6196(4) 0.10366(10)
C51_4 C 0.8034(5) 0.6184(5) 0.12333(11)
C52_8 C 0.3926(5) 0.7087(5) 0.27244(10)
N4_8 N 0.4367(4) 0.6344(4) 0.17849(9)
H32_8 H 0.122(7) 0.675(7) 0.3245(14)
O12_5 O 0.9554(4) 0.8700(4) 0.85316(7)
O13_5 O 0.8519(4) 0.8671(4) 0.88346(8)
H21_5 H 0.805558 0.849368 0.874534
H26_5 H 0.955446 0.878395 0.917961
C51_5 C 0.9466(5) 0.8684(5) 0.87333(11)
O12_6 O 0.2946(4) 0.1200(4) 0.10316(7)
O13_6 O 0.3981(4) 0.1171(4) 0.13346(8)
H21_6 H 0.444442 0.099368 0.124534
C38_7 C 0.0202(5) 0.1269(4) 0.14440(10)
C39_7 C 0.1095(5) 0.1235(4) 0.13008(10)
H25_7 H 0.100036 0.120666 0.114510
C40_7 C 0.2104(5) 0.1243(5) 0.13908(10)
C41_7 C 0.2247(5) 0.1286(5) 0.16218(11)
H26_6 H 0.294554 0.128395 0.167961
C42_7 C 0.1389(5) 0.1333(5) 0.17696(11)
H27_7 H 0.149034 0.135962 0.192506
C43_7 C 0.0374(5) 0.1340(5) 0.16748(10)
C51_6 C 0.3034(5) 0.1184(5) 0.12333(11)
O5_6 O 0.0446(4) 0.6300(4) 0.35316(7)
O6_6 O 0.1481(4) 0.6329(4) 0.38346(8)
H1_6 H 0.194442 0.650632 0.374534
H6_6 H 0.044554 0.621605 0.417961
C20_6 C 0.0534(5) 0.6316(5) 0.37333(11)
O12_7 O 0.9554(4) 0.3700(4) 0.35316(7)
O13_7 O 0.8519(4) 0.3671(4) 0.38346(8)
H21_7 H 0.805558 0.349368 0.374534
H26_7 H 0.955446 0.378395 0.417961
C51_7 C 0.9466(5) 0.3684(5) 0.37333(11)
O12_8 O 0.2946(4) 0.6200(4) 0.60316(7)
O13_8 O 0.3981(4) 0.6171(4) 0.63346(8)
H21_8 H 0.444442 0.599368 0.624534
C38_8 C 0.0202(5) 0.6269(4) 0.64440(10)
C39_8 C 0.1095(5) 0.6235(4) 0.63008(10)
H25_8 H 0.100036 0.620666 0.614510
C40_8 C 0.2104(5) 0.6243(5) 0.63908(10)
C41_8 C 0.2247(5) 0.6286(5) 0.66218(11)
H26_8 H 0.294554 0.628395 0.667961
C42_8 C 0.1389(5) 0.6333(5) 0.67696(11)
H27_8 H 0.149034 0.635962 0.692506
C43_8 C 0.0374(5) 0.6340(5) 0.66748(10)
C51_8 C 0.3034(5) 0.6184(5) 0.62333(11)
O5_7 O 0.7054(4) 0.3800(4) 0.60316(7)
O6_7 O 0.6019(4) 0.3829(4) 0.63346(8)
H1_7 H 0.555558 0.400632 0.624534
C7_7 C 0.9798(5) 0.3731(4) 0.64440(10)
C8_7 C 0.8905(5) 0.3765(4) 0.63008(10)
H5_7 H 0.899964 0.379334 0.614510
C9_7 C 0.7896(5) 0.3757(5) 0.63908(10)
C10_7 C 0.7753(5) 0.3714(5) 0.66218(11)
H6_7 H 0.705446 0.371605 0.667961
C11_7 C 0.8611(5) 0.3667(5) 0.67696(11)
H7_7 H 0.850966 0.364038 0.692506
C12_7 C 0.9626(5) 0.3660(5) 0.66748(10)
C20_7 C 0.6966(5) 0.3816(5) 0.62333(11)
O5_8 O 0.7054(4) 0.8800(4) 0.10316(7)
O6_8 O 0.6019(4) 0.8829(4) 0.13346(8)
H1_8 H 0.555558 0.900632 0.124534
C7_8 C 0.9798(5) 0.8731(4) 0.14440(10)
C8_8 C 0.8905(5) 0.8765(4) 0.13008(10)
H5_8 H 0.899964 0.879334 0.114510
C9_8 C 0.7896(5) 0.8757(5) 0.13908(10)
C10_8 C 0.7753(5) 0.8714(5) 0.16218(11)
H6_8 H 0.705446 0.871605 0.167961
C11_8 C 0.8611(5) 0.8667(5) 0.17696(11)
H7_8 H 0.850966 0.864038 0.192506
C12_8 C 0.9626(5) 0.8660(5) 0.16748(10)
C20_8 C 0.6966(5) 0.8816(5) 0.12333(11)
loop_
_geom_bond_atom_site_label_1
_geom_bond_atom_site_label_2
_geom_bond_site_symmetry_1
_geom_bond_site_symmetry_2
O5 C20 1_555 1_555
O6 H1 1_555 1_555
C20 O6 1_555 1_555
Zn1 O2 1_555 1_555
O2 C21 1_555 1_555
O7 Zn1 1_555 1_555
C22 H12 1_555 1_555
C23 C22 1_555 1_555
H13 C23 1_555 1_555
C24 C23 1_555 1_555
C25 C24 1_555 1_555
H14 C25 1_555 1_555
C26 C25 1_555 1_555
H15 C26 1_555 1_555
N1 Zn1 1_555 1_555
H16 O7 1_555 1_555
C27 H17 1_555 1_555
C28 C27 1_555 1_555
H18 C28 1_555 1_555
C29 C24 1_555 1_555
C30 C29 1_555 1_555
H19 C30 1_555 1_555
C31 C30 1_555 1_555
H20 C31 1_555 1_555
N3 C27 1_555 1_555
Zn3 N3 1_555 1_555
O15 Zn1 1_555 1_555
O17 Zn1 1_555 1_555
C22 N1 1_555 1_555
C26 N1 1_555 1_555
C28 C29 1_555 1_555
C31 N3 1_555 1_555
O3 C19 1_555 1_555
O4 C19 1_555 1_555
C1 C2 1_555 1_555
C2 H2 1_555 1_555
C3 C2 1_555 1_555
H3 C3 1_555 1_555
C4 C3 1_555 1_555
C5 C4 1_555 1_555
H4 C5 1_555 1_555
C6 C1 1_555 1_555
C7 C6 1_555 1_555
C8 C7 1_555 1_555
H5 C8 1_555 1_555
C9 C8 1_555 1_555
C10 C9 1_555 1_555
C11 C10 1_555 1_555
H7 C11 1_555 1_555
C12 C7 1_555 1_555
C13 C14 1_555 1_555
C17 C16 1_555 1_555
H10 C17 1_555 1_555
C18 C13 1_555 1_555
H11 C18 1_555 1_555
C19 C4 1_555 1_555
N2 C1 1_555 1_555
H29 C46 1_555 1_555
Zn5 O3 1_555 1_555
O4 Zn5 1_555 1_555
C5 C6 1_555 1_555
C11 C12 1_555 1_555
C12 N2 1_555 1_555
C13 N2 1_555 1_555
C17 C18 1_555 1_555
O9 Zn3 1_555 1_555
C52 O9 1_555 1_555
H32 O14 1_555 1_555
O16 Zn3 1_555 1_555
O18 Zn3 1_555 1_555
Zn3 O14 1_555 1_555
H9 C15 1_555 1_555
O10 C50 1_555 1_555
O11 C50 1_555 1_555
C32 C33 1_555 1_555
C33 H22 1_555 1_555
C34 C33 1_555 1_555
H23 C34 1_555 1_555
C35 C34 1_555 1_555
C36 C35 1_555 1_555
H24 C36 1_555 1_555
C37 C32 1_555 1_555
C38 C37 1_555 1_555
C39 C38 1_555 1_555
H25 C39 1_555 1_555
C40 C39 1_555 1_555
C41 C40 1_555 1_555
C42 C41 1_555 1_555
H27 C42 1_555 1_555
C43 C38 1_555 1_555
C44 C45 1_555 1_555
C48 C47 1_555 1_555
H30 C48 1_555 1_555
C49 C44 1_555 1_555
H31 C49 1_555 1_555
C50 C35 1_555 1_555
N4 C32 1_555 1_555
Zn4 O10 1_555 1_555
O11 Zn4 1_555 1_555
C36 C37 1_555 1_555
C42 C43 1_555 1_555
C43 N4 1_555 1_555
C44 N4 1_555 1_555
C48 C49 1_555 1_555
Zn1_2 O2_2 1_555 1_555
O1_2 C21_2 1_555 1_555
O2_2 C21_2 1_555 1_555
O3_2 C19_2 1_555 1_555
O4_2 C19_2 1_555 1_555
O5_2 C20_2 1_555 1_555
O6_2 H1_2 1_555 1_555
O7_2 Zn1_2 1_555 1_555
C1_2 C2_2 1_555 1_555
C2_2 H2_2 1_555 1_555
C3_2 C2_2 1_555 1_555
H3_2 C3_2 1_555 1_555
C4_2 C3_2 1_555 1_555
C5_2 C4_2 1_555 1_555
H4_2 C5_2 1_555 1_555
C6_2 C1_2 1_555 1_555
C7_2 C6_2 1_555 1_555
C8_2 C7_2 1_555 1_555
H5_2 C8_2 1_555 1_555
C9_2 C8_2 1_555 1_555
C10_2 C9_2 1_555 1_555
H6_2 C10_2 1_555 1_555
C11_2 C10_2 1_555 1_555
H7_2 C11_2 1_555 1_555
C12_2 C7_2 1_555 1_555
C13_2 C14_2 1_555 1_555
C14_2 H8_2 1_555 1_555
C15_2 C14_2 1_555 1_555
H9_2 C15_2 1_555 1_555
C16_2 C15_2 1_555 1_555
C17_2 C16_2 1_555 1_555
H10_2 C17_2 1_555 1_555
C18_2 C13_2 1_555 1_555
H11_2 C18_2 1_555 1_555
C19_2 C4_2 1_555 1_555
C20_2 O6_2 1_555 1_555
C21_2 C16_2 1_555 1_555
C22_2 H12_2 1_555 1_555
C23_2 C22_2 1_555 1_555
H13_2 C23_2 1_555 1_555
C24_2 C23_2 1_555 1_555
C25_2 C24_2 1_555 1_555
H14_2 C25_2 1_555 1_555
C26_2 C25_2 1_555 1_555
H15_2 C26_2 1_555 1_555
N1_2 Zn1_2 1_555 1_555
N2_2 C1_2 1_555 1_555
H16_2 O7_2 1_555 1_555
C27_2 H17_2 1_555 1_555
C28_2 C27_2 1_555 1_555
H18_2 C28_2 1_555 1_555
C29_2 C24_2 1_555 1_555
C30_2 C29_2 1_555 1_555
H19_2 C30_2 1_555 1_555
C31_2 C30_2 1_555 1_555
H20_2 C31_2 1_555 1_555
N3_2 C27_2 1_555 1_555
Zn3_2 O7_2 1_555 1_555
O8_2 C52_2 1_555 1_555
O9_2 Zn3_2 1_555 1_555
O15 C50_2 1_555 1_555
O17 C50_2 1_555 1_555
O14_2 Zn1_2 1_555 1_555
C32_2 C33_2 1_555 1_555
C33_2 H22_2 1_555 1_555
C34_2 C33_2 1_555 1_555
H23_2 C34_2 1_555 1_555
C35_2 C34_2 1_555 1_555
C36_2 C35_2 1_555 1_555
H24_2 C36_2 1_555 1_555
C37_2 C32_2 1_555 1_555
C44_2 C45_2 1_555 1_555
C45_2 H28_2 1_555 1_555
C46_2 C45_2 1_555 1_555
H29_2 C46_2 1_555 1_555
C47_2 C46_2 1_555 1_555
C48_2 C47_2 1_555 1_555
H30_2 C48_2 1_555 1_555
C49_2 C44_2 1_555 1_555
H31_2 C49_2 1_555 1_555
C50_2 C35_2 1_555 1_555
C52_2 O9_2 1_555 1_555
N4_2 C32_2 1_555 1_555
H32_2 O14_2 1_555 1_555
Zn5_2 O3_2 1_555 1_555
O15_2 Zn1_2 1_555 1_555
O16_2 Zn3_2 1_555 1_555
O17_2 Zn1_2 1_555 1_555
O18_2 Zn3_2 1_555 1_555
O4_2 Zn5_2 1_555 1_555
C5_2 C6_2 1_555 1_555
C9_2 C20_2 1_555 1_555
C11_2 C12_2 1_555 1_555
C12_2 N2_2 1_555 1_555
C13_2 N2_2 1_555 1_555
C17_2 C18_2 1_555 1_555
C22_2 N1_2 1_555 1_555
C26_2 N1_2 1_555 1_555
C28_2 C29_2 1_555 1_555
C31_2 N3_2 1_555 1_555
Zn3_2 O14_2 1_555 1_555
C36_2 C37_2 1_555 1_555
C44_2 N4_2 1_555 1_555
C47_2 C52_2 1_555 1_555
C48_2 C49_2 1_555 1_555
C27_3 H17_3 1_555 1_555
C28_3 C27_3 1_555 1_555
H18_3 C28_3 1_555 1_555
C30_3 C29_3 1_555 1_555
H19_3 C30_3 1_555 1_555
C31_3 C30_3 1_555 1_555
H20_3 C31_3 1_555 1_555
N3_3 C27_3 1_555 1_555
Zn3_3 N3_3 1_555 1_555
C28_3 C29_3 1_555 1_555
C31_3 N3_3 1_555 1_555
Zn1_3 O2_3 1_555 1_555
O1_3 C21_3 1_555 1_555
O2_3 C21_3 1_555 1_555
O3_3 C19_3 1_555 1_555
O4_3 C19_3 1_555 1_555
O7_3 Zn1_3 1_555 1_555
C1_3 C2_3 1_555 1_555
C2_3 H2_3 1_555 1_555
C3_3 C2_3 1_555 1_555
H3_3 C3_3 1_555 1_555
C4_3 C3_3 1_555 1_555
C5_3 C4_3 1_555 1_555
H4_3 C5_3 1_555 1_555
C6_3 C1_3 1_555 1_555
C7_3 C6_3 1_555 1_555
C8_3 C7_3 1_555 1_555
H5_3 C8_3 1_555 1_555
C9_3 C8_3 1_555 1_555
C10_3 C9_3 1_555 1_555
C11_3 C10_3 1_555 1_555
H7_3 C11_3 1_555 1_555
C12_3 C7_3 1_555 1_555
C13_3 C14_3 1_555 1_555
C14_3 H8_3 1_555 1_555
C15_3 C14_3 1_555 1_555
H9_3 C15_3 1_555 1_555
C16_3 C15_3 1_555 1_555
C17_3 C16_3 1_555 1_555
H10_3 C17_3 1_555 1_555
C18_3 C13_3 1_555 1_555
H11_3 C18_3 1_555 1_555
C19_3 C4_3 1_555 1_555
C21_3 C16_3 1_555 1_555
C22_3 H12_3 1_555 1_555
C23_3 C22_3 1_555 1_555
H13_3 C23_3 1_555 1_555
C24_3 C23_3 1_555 1_555
C25_3 C24_3 1_555 1_555
H14_3 C25_3 1_555 1_555
C26_3 C25_3 1_555 1_555
H15_3 C26_3 1_555 1_555
N1_3 Zn1_3 1_555 1_555
N2_3 C1_3 1_555 1_555
H16_3 O7_3 1_555 1_555
Zn3_3 O7_3 1_555 1_555
O8_3 C52_3 1_555 1_555
O9_3 Zn3_3 1_555 1_555
O15_2 C50_3 1_555 1_555
O17_2 C50_3 1_555 1_555
O14_3 Zn1_3 1_555 1_555
C32_3 C33_3 1_555 1_555
C33_3 H22_3 1_555 1_555
C34_3 C33_3 1_555 1_555
H23_3 C34_3 1_555 1_555
C35_3 C34_3 1_555 1_555
C36_3 C35_3 1_555 1_555
H24_3 C36_3 1_555 1_555
C37_3 C32_3 1_555 1_555
C38_2 C37_3 1_555 1_555
C39_2 C38_2 1_555 1_555
H25_2 C39_2 1_555 1_555
C40_2 C39_2 1_555 1_555
C41_2 C40_2 1_555 1_555
C42_2 C41_2 1_555 1_555
H27_2 C42_2 1_555 1_555
C43_2 C38_2 1_555 1_555
C44_3 C45_3 1_555 1_555
C45_3 H28_3 1_555 1_555
C46_3 C45_3 1_555 1_555
H29_3 C46_3 1_555 1_555
C47_3 C46_3 1_555 1_555
C48_3 C47_3 1_555 1_555
H30_3 C48_3 1_555 1_555
C49_3 C44_3 1_555 1_555
H31_3 C49_3 1_555 1_555
C50_3 C35_3 1_555 1_555
C52_3 O9_3 1_555 1_555
N4_3 C32_3 1_555 1_555
H32_3 O14_3 1_555 1_555
Zn5_3 O3_3 1_555 1_555
O15_3 Zn1_3 1_555 1_555
O16_3 Zn3_3 1_555 1_555
O17_3 Zn1_3 1_555 1_555
O18_3 Zn3_3 1_555 1_555
O4_3 Zn5_3 1_555 1_555
C5_3 C6_3 1_555 1_555
C11_3 C12_3 1_555 1_555
C12_3 N2_3 1_555 1_555
C13_3 N2_3 1_555 1_555
C17_3 C18_3 1_555 1_555
C22_3 N1_3 1_555 1_555
C26_3 N1_3 1_555 1_555
Zn3_3 O14_3 1_555 1_555
C36_3 C37_3 1_555 1_555
C42_2 C43_2 1_555 1_555
C43_2 N4_3 1_555 1_555
C44_3 N4_3 1_555 1_555
C47_3 C52_3 1_555 1_555
C48_3 C49_3 1_555 1_555
C22_4 H12_4 1_555 1_555
C23_4 C22_4 1_555 1_555
H13_4 C23_4 1_555 1_555
C24_4 C23_4 1_555 1_555
C25_4 C24_4 1_555 1_555
H14_4 C25_4 1_555 1_555
C26_4 C25_4 1_555 1_555
H15_4 C26_4 1_555 1_555
C27_4 H17_4 1_555 1_555
C28_4 C27_4 1_555 1_555
H18_4 C28_4 1_555 1_555
C29_4 C24_4 1_555 1_555
C30_4 C29_4 1_555 1_555
H19_4 C30_4 1_555 1_555
C31_4 C30_4 1_555 1_555
H20_4 C31_4 1_555 1_555
N3_4 C27_4 1_555 1_555
Zn3_4 N3_4 1_555 1_555
C22_4 N1_4 1_555 1_555
C26_4 N1_4 1_555 1_555
C28_4 C29_4 1_555 1_555
C31_4 N3_4 1_555 1_555
Zn4 O2_4 1_555 1_555
O1_4 C21_4 1_555 1_555
O2_4 C21_4 1_555 1_555
O3_4 C19_4 1_555 1_555
O4_4 C19_4 1_555 1_555
O5_3 C20_3 1_555 1_555
O6_3 H1_3 1_555 1_555
O7_4 Zn4 1_555 1_555
C1_4 C2_4 1_555 1_555
C2_4 H2_4 1_555 1_555
C3_4 C2_4 1_555 1_555
H3_4 C3_4 1_555 1_555
C4_4 C3_4 1_555 1_555
C5_4 C4_4 1_555 1_555
H4_4 C5_4 1_555 1_555
C6_4 C1_4 1_555 1_555
C7_4 C6_4 1_555 1_555
C8_4 C7_4 1_555 1_555
H5_4 C8_4 1_555 1_555
C9_4 C8_4 1_555 1_555
C10_4 C9_4 1_555 1_555
H6_3 C10_4 1_555 1_555
C11_4 C10_4 1_555 1_555
H7_4 C11_4 1_555 1_555
C12_4 C7_4 1_555 1_555
C13_4 C14_4 1_555 1_555
C14_4 H8_4 1_555 1_555
C15_4 C14_4 1_555 1_555
H9_4 C15_4 1_555 1_555
C16_4 C15_4 1_555 1_555
C17_4 C16_4 1_555 1_555
H10_4 C17_4 1_555 1_555
C18_4 C13_4 1_555 1_555
H11_4 C18_4 1_555 1_555
C19_4 C4_4 1_555 1_555
C20_3 O6_3 1_555 1_555
C21_4 C16_4 1_555 1_555
N2_4 C1_4 1_555 1_555
H16_4 O7_4 1_555 1_555
Zn3_4 O7_4 1_555 1_555
O8_4 C52_4 1_555 1_555
O9_4 Zn3_4 1_555 1_555
O15_3 C50_4 1_555 1_555
O17_3 C50_4 1_555 1_555
O14_4 Zn4 1_555 1_555
C32_4 C33_4 1_555 1_555
C33_4 H22_4 1_555 1_555
C34_4 C33_4 1_555 1_555
H23_4 C34_4 1_555 1_555
C35_4 C34_4 1_555 1_555
C36_4 C35_4 1_555 1_555
H24_4 C36_4 1_555 1_555
C37_4 C32_4 1_555 1_555
C44_4 C45_4 1_555 1_555
C45_4 H28_4 1_555 1_555
C46_4 C45_4 1_555 1_555
H29_4 C46_4 1_555 1_555
C47_4 C46_4 1_555 1_555
C48_4 C47_4 1_555 1_555
H30_4 C48_4 1_555 1_555
C49_4 C44_4 1_555 1_555
H31_4 C49_4 1_555 1_555
C50_4 C35_4 1_555 1_555
C52_4 O9_4 1_555 1_555
N4_4 C32_4 1_555 1_555
H32_4 O14_4 1_555 1_555
Zn5_4 O3_4 1_555 1_555
O16_4 Zn3_4 1_555 1_555
O18_4 Zn3_4 1_555 1_555
O4_4 Zn5_4 1_555 1_555
C5_4 C6_4 1_555 1_555
C9_4 C20_3 1_555 1_555
C11_4 C12_4 1_555 1_555
C12_4 N2_4 1_555 1_555
C13_4 N2_4 1_555 1_555
C17_4 C18_4 1_555 1_555
Zn3_4 O14_4 1_555 1_555
C36_4 C37_4 1_555 1_555
C44_4 N4_4 1_555 1_555
C47_4 C52_4 1_555 1_555
C48_4 C49_4 1_555 1_555
Zn1_4 O2_5 1_555 1_555
O2_5 C21_5 1_555 1_555
O5_4 C20_4 1_555 1_555
O6_4 H1_4 1_555 1_555
H4_5 C5_5 1_555 1_555
C6_5 C1_5 1_555 1_555
C7_5 C6_5 1_555 1_555
C8_5 C7_5 1_555 1_555
H5_5 C8_5 1_555 1_555
C9_5 C8_5 1_555 1_555
C10_5 C9_5 1_555 1_555
H6_4 C10_5 1_555 1_555
C11_5 C10_5 1_555 1_555
H7_5 C11_5 1_555 1_555
C12_5 C7_5 1_555 1_555
C13_5 C14_5 1_555 1_555
C17_5 C16_5 1_555 1_555
H10_5 C17_5 1_555 1_555
C18_5 C13_5 1_555 1_555
H11_5 C18_5 1_555 1_555
C20_4 O6_4 1_555 1_555
C21_5 C16_5 1_555 1_555
C22_5 H12_5 1_555 1_555
C23_5 C22_5 1_555 1_555
H13_5 C23_5 1_555 1_555
C24_5 C23_5 1_555 1_555
N1_5 Zn1_4 1_555 1_555
N2_5 C1_5 1_555 1_555
H19_5 C30_5 1_555 1_555
C31_5 C30_5 1_555 1_555
H20_5 C31_5 1_555 1_555
O15_4 Zn1_4 1_555 1_555
O17_4 Zn1_4 1_555 1_555
C5_5 C6_5 1_555 1_555
C9_5 C20_4 1_555 1_555
C11_5 C12_5 1_555 1_555
C12_5 N2_5 1_555 1_555
C13_5 N2_5 1_555 1_555
C17_5 C18_5 1_555 1_555
C22_5 N1_5 1_555 1_555
H9_5 C15_5 1_555 1_555
O10_2 C50_5 1_555 1_555
O11_2 C50_5 1_555 1_555
C33_5 H22_5 1_555 1_555
C34_5 C33_5 1_555 1_555
H23_5 C34_5 1_555 1_555
C35_5 C34_5 1_555 1_555
C50_5 C35_5 1_555 1_555
H32_5 O14_5 1_555 1_555
Zn4_2 O10_2 1_555 1_555
O11_2 Zn4_2 1_555 1_555
O16_2 C19_5 1_555 1_555
O18_2 C19_5 1_555 1_555
C2_5 H2_5 1_555 1_555
C3_5 C2_5 1_555 1_555
H3_5 C3_5 1_555 1_555
C4_5 C3_5 1_555 1_555
C19_5 C4_5 1_555 1_555
H14_5 C25_5 1_555 1_555
C26_5 C25_5 1_555 1_555
H15_5 C26_5 1_555 1_555
H16_5 O7_5 1_555 1_555
C27_5 H17_5 1_555 1_555
C28_5 C27_5 1_555 1_555
H18_5 C28_5 1_555 1_555
N3_5 C27_5 1_555 1_555
H29_5 C46_5 1_555 1_555
Zn5_4 N3_5 1_555 1_555
C28_5 C29_5 1_555 1_555
O9_5 Zn5_4 1_555 1_555
O12 C51 1_555 1_555
O13 H21 1_555 1_555
H24_5 C36_5 1_555 1_555
C37_5 C32_5 1_555 1_555
C38_3 C37_5 1_555 1_555
C39_3 C38_3 1_555 1_555
H25_3 C39_3 1_555 1_555
C40_3 C39_3 1_555 1_555
C41_3 C40_3 1_555 1_555
H26 C41_3 1_555 1_555
C42_3 C41_3 1_555 1_555
H27_3 C42_3 1_555 1_555
C43_3 C38_3 1_555 1_555
C44_5 C45_5 1_555 1_555
C48_5 C47_5 1_555 1_555
H30_5 C48_5 1_555 1_555
C49_5 C44_5 1_555 1_555
H31_5 C49_5 1_555 1_555
C51 O13 1_555 1_555
C52_5 O9_5 1_555 1_555
N4_5 C32_5 1_555 1_555
C36_5 C37_5 1_555 1_555
C40_3 C51 1_555 1_555
C42_3 C43_3 1_555 1_555
C43_3 N4_5 1_555 1_555
C44_5 N4_5 1_555 1_555
C47_5 C52_5 1_555 1_555
C48_5 C49_5 1_555 1_555
Zn1_5 O2_6 1_555 1_555
O1_6 C21_6 1_555 1_555
O2_6 C21_6 1_555 1_555
O16_3 C19_6 1_555 1_555
O18_3 C19_6 1_555 1_555
O7_6 Zn1_5 1_555 1_555
C1_6 C2_6 1_555 1_555
C2_6 H2_6 1_555 1_555
C3_6 C2_6 1_555 1_555
H3_6 C3_6 1_555 1_555
C4_6 C3_6 1_555 1_555
C5_6 C4_6 1_555 1_555
H4_6 C5_6 1_555 1_555
C6_6 C1_6 1_555 1_555
C13_6 C14_6 1_555 1_555
C14_6 H8_6 1_555 1_555
C15_6 C14_6 1_555 1_555
H9_6 C15_6 1_555 1_555
C16_6 C15_6 1_555 1_555
C17_6 C16_6 1_555 1_555
H10_6 C17_6 1_555 1_555
C18_6 C13_6 1_555 1_555
H11_6 C18_6 1_555 1_555
C19_6 C4_6 1_555 1_555
C21_6 C16_6 1_555 1_555
C22_6 H12_6 1_555 1_555
C23_6 C22_6 1_555 1_555
H13_6 C23_6 1_555 1_555
C24_6 C23_6 1_555 1_555
C25_6 C24_6 1_555 1_555
H14_6 C25_6 1_555 1_555
C26_6 C25_6 1_555 1_555
H15_6 C26_6 1_555 1_555
N1_6 Zn1_5 1_555 1_555
N2_6 C1_6 1_555 1_555
H16_6 O7_6 1_555 1_555
C27_6 H17_6 1_555 1_555
C28_6 C27_6 1_555 1_555
H18_6 C28_6 1_555 1_555
C29_6 C24_6 1_555 1_555
C30_6 C29_6 1_555 1_555
H19_6 C30_6 1_555 1_555
C31_6 C30_6 1_555 1_555
H20_6 C31_6 1_555 1_555
N3_6 C27_6 1_555 1_555
Zn5 O7_6 1_555 1_555
O8_6 C52_6 1_555 1_555
O9_6 Zn5 1_555 1_555
O15_4 C50_6 1_555 1_555
O17_4 C50_6 1_555 1_555
O12_2 C51_2 1_555 1_555
O13_2 H21_2 1_555 1_555
O14_6 Zn1_5 1_555 1_555
C32_6 C33_6 1_555 1_555
C33_6 H22_6 1_555 1_555
C34_6 C33_6 1_555 1_555
H23_6 C34_6 1_555 1_555
C35_6 C34_6 1_555 1_555
C36_6 C35_6 1_555 1_555
H24_6 C36_6 1_555 1_555
C37_6 C32_6 1_555 1_555
C38_4 C37_6 1_555 1_555
C39_4 C38_4 1_555 1_555
H25_4 C39_4 1_555 1_555
C40_4 C39_4 1_555 1_555
C41_4 C40_4 1_555 1_555
H26_2 C41_4 1_555 1_555
C42_4 C41_4 1_555 1_555
H27_4 C42_4 1_555 1_555
C43_4 C38_4 1_555 1_555
C44_6 C45_6 1_555 1_555
C45_6 H28_6 1_555 1_555
C46_6 C45_6 1_555 1_555
H29_6 C46_6 1_555 1_555
C47_6 C46_6 1_555 1_555
C48_6 C47_6 1_555 1_555
H30_6 C48_6 1_555 1_555
C49_6 C44_6 1_555 1_555
H31_6 C49_6 1_555 1_555
C50_6 C35_6 1_555 1_555
C51_2 O13_2 1_555 1_555
C52_6 O9_6 1_555 1_555
N4_6 C32_6 1_555 1_555
H32_6 O14_6 1_555 1_555
O15_5 Zn1_5 1_555 1_555
O17_5 Zn1_5 1_555 1_555
C5_6 C6_6 1_555 1_555
C13_6 N2_6 1_555 1_555
C17_6 C18_6 1_555 1_555
C22_6 N1_6 1_555 1_555
C26_6 N1_6 1_555 1_555
C28_6 C29_6 1_555 1_555
C31_6 N3_6 1_555 1_555
Zn5 O14_6 1_555 1_555
C36_6 C37_6 1_555 1_555
C40_4 C51_2 1_555 1_555
C42_4 C43_4 1_555 1_555
C43_4 N4_6 1_555 1_555
C44_6 N4_6 1_555 1_555
C47_6 C52_6 1_555 1_555
C48_6 C49_6 1_555 1_555
H19_7 C30_7 1_555 1_555
C31_7 C30_7 1_555 1_555
H20_7 C31_7 1_555 1_555
Zn1_6 O2_7 1_555 1_555
O1_7 C21_7 1_555 1_555
O2_7 C21_7 1_555 1_555
C22_7 H12_7 1_555 1_555
C23_7 C22_7 1_555 1_555
H13_7 C23_7 1_555 1_555
C24_7 C23_7 1_555 1_555
N1_7 Zn1_6 1_555 1_555
O14_7 Zn1_6 1_555 1_555
H32_7 O14_7 1_555 1_555
O15_6 Zn1_6 1_555 1_555
O17_6 Zn1_6 1_555 1_555
C22_7 N1_7 1_555 1_555
O5_5 C20_5 1_555 1_555
O6_5 H1_5 1_555 1_555
H4_7 C5_7 1_555 1_555
C6_7 C1_7 1_555 1_555
C7_6 C6_7 1_555 1_555
C8_6 C7_6 1_555 1_555
H5_6 C8_6 1_555 1_555
C9_6 C8_6 1_555 1_555
C10_6 C9_6 1_555 1_555
H6_5 C10_6 1_555 1_555
C11_6 C10_6 1_555 1_555
H7_6 C11_6 1_555 1_555
C12_6 C7_6 1_555 1_555
C13_7 C14_7 1_555 1_555
C14_7 H8_7 1_555 1_555
C15_7 C14_7 1_555 1_555
H9_7 C15_7 1_555 1_555
C16_7 C15_7 1_555 1_555
C17_7 C16_7 1_555 1_555
H10_7 C17_7 1_555 1_555
C18_7 C13_7 1_555 1_555
H11_7 C18_7 1_555 1_555
C20_5 O6_5 1_555 1_555
N2_7 C1_7 1_555 1_555
O15_5 C50_7 1_555 1_555
O17_5 C50_7 1_555 1_555
C33_7 H22_7 1_555 1_555
C34_7 C33_7 1_555 1_555
H23_7 C34_7 1_555 1_555
C35_7 C34_7 1_555 1_555
C50_7 C35_7 1_555 1_555
C5_7 C6_7 1_555 1_555
C9_6 C20_5 1_555 1_555
C11_6 C12_6 1_555 1_555
C12_6 N2_7 1_555 1_555
C13_7 N2_7 1_555 1_555
C17_7 C18_7 1_555 1_555
C27_7 H17_7 1_555 1_555
C28_7 C27_7 1_555 1_555
H18_7 C28_7 1_555 1_555
N3_7 C27_7 1_555 1_555
Zn5_2 N3_7 1_555 1_555
C28_7 C29_7 1_555 1_555
H14_7 C25_7 1_555 1_555
C26_7 C25_7 1_555 1_555
H15_7 C26_7 1_555 1_555
H16_7 O7_7 1_555 1_555
Zn5_2 O7_7 1_555 1_555
O8_7 C52_7 1_555 1_555
O9_7 Zn5_2 1_555 1_555
C52_7 O9_7 1_555 1_555
O16_4 C19_7 1_555 1_555
O18_4 C19_7 1_555 1_555
C2_7 H2_7 1_555 1_555
C3_7 C2_7 1_555 1_555
H3_7 C3_7 1_555 1_555
C4_7 C3_7 1_555 1_555
C19_7 C4_7 1_555 1_555
O12_3 C51_3 1_555 1_555
O13_3 H21_3 1_555 1_555
H24_7 C36_7 1_555 1_555
C37_7 C32_7 1_555 1_555
C38_5 C37_7 1_555 1_555
C39_5 C38_5 1_555 1_555
H25_5 C39_5 1_555 1_555
C40_5 C39_5 1_555 1_555
C41_5 C40_5 1_555 1_555
H26_3 C41_5 1_555 1_555
C42_5 C41_5 1_555 1_555
H27_5 C42_5 1_555 1_555
C43_5 C38_5 1_555 1_555
C44_7 C45_7 1_555 1_555
C45_7 H28_7 1_555 1_555
C46_7 C45_7 1_555 1_555
H29_7 C46_7 1_555 1_555
C47_7 C46_7 1_555 1_555
C48_7 C47_7 1_555 1_555
H30_7 C48_7 1_555 1_555
C49_7 C44_7 1_555 1_555
H31_7 C49_7 1_555 1_555
C51_3 O13_3 1_555 1_555
N4_7 C32_7 1_555 1_555
C36_7 C37_7 1_555 1_555
C40_5 C51_3 1_555 1_555
C42_5 C43_5 1_555 1_555
C43_5 N4_7 1_555 1_555
C44_7 N4_7 1_555 1_555
C48_7 C49_7 1_555 1_555
C22_8 H12_8 1_555 1_555
C23_8 C22_8 1_555 1_555
H13_8 C23_8 1_555 1_555
C24_8 C23_8 1_555 1_555
C25_8 C24_8 1_555 1_555
H14_8 C25_8 1_555 1_555
C26_8 C25_8 1_555 1_555
H15_8 C26_8 1_555 1_555
C27_8 H17_8 1_555 1_555
C28_8 C27_8 1_555 1_555
H18_8 C28_8 1_555 1_555
C29_8 C24_8 1_555 1_555
C30_8 C29_8 1_555 1_555
H19_8 C30_8 1_555 1_555
C31_8 C30_8 1_555 1_555
H20_8 C31_8 1_555 1_555
N3_8 C27_8 1_555 1_555
Zn5_3 N3_8 1_555 1_555
C22_8 N1_8 1_555 1_555
C26_8 N1_8 1_555 1_555
C28_8 C29_8 1_555 1_555
C31_8 N3_8 1_555 1_555
Zn4_2 O2_8 1_555 1_555
O1_8 C21_8 1_555 1_555
O2_8 C21_8 1_555 1_555
O16 C19_8 1_555 1_555
O18 C19_8 1_555 1_555
O7_8 Zn4_2 1_555 1_555
C1_8 C2_8 1_555 1_555
C2_8 H2_8 1_555 1_555
C3_8 C2_8 1_555 1_555
H3_8 C3_8 1_555 1_555
C4_8 C3_8 1_555 1_555
C5_8 C4_8 1_555 1_555
H4_8 C5_8 1_555 1_555
C6_8 C1_8 1_555 1_555
C13_8 C14_8 1_555 1_555
C14_8 H8_8 1_555 1_555
C15_8 C14_8 1_555 1_555
H9_8 C15_8 1_555 1_555
C16_8 C15_8 1_555 1_555
C17_8 C16_8 1_555 1_555
H10_8 C17_8 1_555 1_555
C18_8 C13_8 1_555 1_555
H11_8 C18_8 1_555 1_555
C19_8 C4_8 1_555 1_555
C21_8 C16_8 1_555 1_555
N2_8 C1_8 1_555 1_555
H16_8 O7_8 1_555 1_555
Zn5_3 O7_8 1_555 1_555
O8_8 C52_8 1_555 1_555
O9_8 Zn5_3 1_555 1_555
O15_6 C50_8 1_555 1_555
O17_6 C50_8 1_555 1_555
O12_4 C51_4 1_555 1_555
O13_4 H21_4 1_555 1_555
O14_8 Zn4_2 1_555 1_555
C32_8 C33_8 1_555 1_555
C33_8 H22_8 1_555 1_555
C34_8 C33_8 1_555 1_555
H23_8 C34_8 1_555 1_555
C35_8 C34_8 1_555 1_555
C36_8 C35_8 1_555 1_555
H24_8 C36_8 1_555 1_555
C37_8 C32_8 1_555 1_555
C38_6 C37_8 1_555 1_555
C39_6 C38_6 1_555 1_555
H25_6 C39_6 1_555 1_555
C40_6 C39_6 1_555 1_555
C41_6 C40_6 1_555 1_555
H26_4 C41_6 1_555 1_555
C42_6 C41_6 1_555 1_555
H27_6 C42_6 1_555 1_555
C43_6 C38_6 1_555 1_555
C44_8 C45_8 1_555 1_555
C45_8 H28_8 1_555 1_555
C46_8 C45_8 1_555 1_555
H29_8 C46_8 1_555 1_555
C47_8 C46_8 1_555 1_555
C48_8 C47_8 1_555 1_555
H30_8 C48_8 1_555 1_555
C49_8 C44_8 1_555 1_555
H31_8 C49_8 1_555 1_555
C50_8 C35_8 1_555 1_555
C51_4 O13_4 1_555 1_555
C52_8 O9_8 1_555 1_555
N4_8 C32_8 1_555 1_555
H32_8 O14_8 1_555 1_555
C5_8 C6_8 1_555 1_555
C13_8 N2_8 1_555 1_555
C17_8 C18_8 1_555 1_555
Zn5_3 O14_8 1_555 1_555
C36_8 C37_8 1_555 1_555
C40_6 C51_4 1_555 1_555
C42_6 C43_6 1_555 1_555
C43_6 N4_8 1_555 1_555
C44_8 N4_8 1_555 1_555
C47_8 C52_8 1_555 1_555
C48_8 C49_8 1_555 1_555
O12_5 C51_5 1_555 1_555
O13_5 H21_5 1_555 1_555
C51_5 O13_5 1_555 1_555
O12_6 C51_6 1_555 1_555
O13_6 H21_6 1_555 1_555
C39_7 C38_7 1_555 1_555
H25_7 C39_7 1_555 1_555
C40_7 C39_7 1_555 1_555
C41_7 C40_7 1_555 1_555
H26_6 C41_7 1_555 1_555
C42_7 C41_7 1_555 1_555
H27_7 C42_7 1_555 1_555
C43_7 C38_7 1_555 1_555
C51_6 O13_6 1_555 1_555
C40_7 C51_6 1_555 1_555
C42_7 C43_7 1_555 1_555
O5_6 C20_6 1_555 1_555
O6_6 H1_6 1_555 1_555
C20_6 O6_6 1_555 1_555
O12_7 C51_7 1_555 1_555
O13_7 H21_7 1_555 1_555
C51_7 O13_7 1_555 1_555
O12_8 C51_8 1_555 1_555
O13_8 H21_8 1_555 1_555
C39_8 C38_8 1_555 1_555
H25_8 C39_8 1_555 1_555
C40_8 C39_8 1_555 1_555
C41_8 C40_8 1_555 1_555
H26_8 C41_8 1_555 1_555
C42_8 C41_8 1_555 1_555
H27_8 C42_8 1_555 1_555
C43_8 C38_8 1_555 1_555
C51_8 O13_8 1_555 1_555
C40_8 C51_8 1_555 1_555
C42_8 C43_8 1_555 1_555
O5_7 C20_7 1_555 1_555
O6_7 H1_7 1_555 1_555
C8_7 C7_7 1_555 1_555
H5_7 C8_7 1_555 1_555
C9_7 C8_7 1_555 1_555
C10_7 C9_7 1_555 1_555
H6_7 C10_7 1_555 1_555
C11_7 C10_7 1_555 1_555
H7_7 C11_7 1_555 1_555
C12_7 C7_7 1_555 1_555
C20_7 O6_7 1_555 1_555
C9_7 C20_7 1_555 1_555
C11_7 C12_7 1_555 1_555
O5_8 C20_8 1_555 1_555
O6_8 H1_8 1_555 1_555
C8_8 C7_8 1_555 1_555
H5_8 C8_8 1_555 1_555
C9_8 C8_8 1_555 1_555
C10_8 C9_8 1_555 1_555
H6_8 C10_8 1_555 1_555
C11_8 C10_8 1_555 1_555
H7_8 C11_8 1_555 1_555
C12_8 C7_8 1_555 1_555
C20_8 O6_8 1_555 1_555
C9_8 C20_8 1_555 1_555
C11_8 C12_8 1_555 1_555

#END
