
###############################################################################
#
# This file contains modified crystal structure data generated from the
# MOF subset of the Cambridge Structural Database (CSD) v543 
# hosted by the Cambridge Crystallographic Data Centre (CCDC).
#
# This work is licensed under the Creative Commons
# Attribution-NonCommercial-ShareAlike 4.0 International License.
# To view a copy of this license, visit
# http://creativecommons.org/licenses/by-nc-sa/4.0/
# or send a letter to
# Creative Commons, PO Box 1866, Mountain View, CA 94042, USA.
#
# CIF created using the CSD Python API on 29 September 2022
# The structure has been converted into the P1 space group
# The structure has a 3D framework
# The original CSD entry IFUDES is in the trigonal crystal system
# The original CSD entry IFUDES is in a Sohncke space group
# The framework has been calculated to contain at least 10.0% void space
# The void calculation uses a probe of radius 1.32A, grid spacing 0.4
#
###############################################################################

data_IFUDES
_chemical_formula_moiety         '(C30 H30 Cd4 N6 O46 Zr3)n'
_symmetry_cell_setting           triclinic
_symmetry_space_group_name_H-M   'P 1'
_symmetry_Int_Tables_number      1
_space_group_name_Hall           'P 1'
loop_
_symmetry_equiv_pos_site_id
_symmetry_equiv_pos_as_xyz
1 x,y,z
_cell_length_a                   9.105(5)
_cell_length_b                   9.105(5)
_cell_length_c                   23.656(5)
_cell_angle_alpha                90
_cell_angle_beta                 90
_cell_angle_gamma                120
_cell_volume                     1698.37
loop_
_atom_site_label
_atom_site_type_symbol
_atom_site_fract_x
_atom_site_fract_y
_atom_site_fract_z
O7 O 0.0294(4) 0.1280(4) 0.27907(15)
O8 O 0.2123(4) 0.3045(4) 0.45558(13)
C3 C 0.0882(5) 0.2382(5) 0.42187(15)
O12 O 0.0390(4) 0.3193(4) 0.39316(14)
Zr2 Zr 0.29743(3) 0.14871(6) 0.5000
O16 O 0.0205(4) 0.9264(4) 0.22088(14)
O18 O 0.0922(6) 0.7877(4) 0.12225(13)
O6 O 0.0736(4) 0.9795(4) 0.44579(14)
Cd1 Cd 0.81331(2) 0.18669(2) 0.3334
Zr1 Zr 0.85128(5) 0.70257(3) 0.1667
O1 O 0.6637(4) 0.4753(4) 0.21729(13)
O2 O 0.6331(5) 0.2654(4) 0.27453(16)
C1 C 0.7173(5) 0.3987(5) 0.24809(15)
C2 C 0.9109(5) 0.4861(5) 0.25148(15)
O4 O 0.9892(4) 0.6149(4) 0.21904(12)
O5 O 0.9788(4) 0.4318(4) 0.28381(13)
C4 C 0.9996(5) 0.0453(5) 0.41722(15)
O9 O 0.6955(4) 0.7877(4) 0.21109(13)
O10 O 0.8116(6) 0.4753(4) 0.11604(13)
O11 O 0.7346(4) 0.3669(5) 0.39214(16)
O13 O 0.5682(4) 0.0212(4) 0.38286(13)
O15 O 0.6257(6) 0.6149(4) 0.11429(12)
O17 O 0.9059(6) 0.9264(4) 0.11246(14)
C5 C 0.6013(5) 0.2827(5) 0.41858(15)
C7 C 0.5139(5) 0.0891(5) 0.41519(15)
C8 C 0.9547(5) 0.0004(5) 0.24945(15)
O19 O 0.5247(4) 0.3363(4) 0.44938(13)
O21 O 0.3851(4) 0.0108(4) 0.44763(12)
O3 O 0.6807(4) 0.9610(4) 0.27351(14)
O14 O 0.8720(4) 0.9706(4) 0.38760(15)
C6 C 0.7618(5) 0.9118(5) 0.24480(15)
O6_2 O 0.0205(4) 0.0941(6) 0.77912(14)
O22 O 0.0736(4) 0.0941(6) 0.55421(14)
O3_2 O 0.0390(4) 0.7197(6) 0.60684(14)
O14_2 O 0.0294(4) 0.9014(6) 0.72093(15)
C6_2 C 0.0882(5) 0.8500(7) 0.57813(15)
O20 O 0.2123(4) 0.9078(6) 0.54442(13)
Zr2_2 Zr 0.85129(6) 0.14872(7) 0.8334
Cd1_2 Cd 0.81331(2) 0.62662(3) 0.6667
O1_2 O 0.5247(4) 0.1884(6) 0.55062(13)
O2_2 O 0.7346(4) 0.3677(6) 0.60786(16)
C1_2 C 0.6013(5) 0.3186(7) 0.58142(15)
C2_2 C 0.5139(5) 0.4248(7) 0.58481(15)
O4_2 O 0.3851(4) 0.3743(6) 0.55237(12)
O5_2 O 0.5682(4) 0.5470(6) 0.61714(13)
O7_2 O 0.8720(4) 0.9014(6) 0.61240(15)
O8_2 O 0.6955(4) 0.9078(6) 0.78891(13)
C3_2 C 0.7618(5) 0.8500(7) 0.75520(15)
C4_2 C 0.9547(5) 0.9543(7) 0.75055(15)
O11_2 O 0.6331(5) 0.3677(6) 0.72547(16)
O12_2 O 0.6807(4) 0.7197(6) 0.72649(14)
O13_2 O 0.9788(4) 0.5470(6) 0.71619(13)
C5_2 C 0.7173(5) 0.3186(7) 0.75191(15)
C7_2 C 0.9109(5) 0.4248(7) 0.74852(15)
C8_2 C 0.9996(5) 0.9543(7) 0.58278(15)
O19_2 O 0.6637(4) 0.1884(6) 0.78271(13)
O21_2 O 0.9892(4) 0.3743(6) 0.78096(12)
O9_2 O 0.0922(6) 0.3045(4) 0.87775(13)
Cd1_3 Cd 0.37338(3) 0.18669(2) 0.0001
C4_3 C 0.0457(7) 0.0004(5) 0.08389(15)
O11_3 O 0.6323(6) 0.2654(4) 0.05880(16)
O13_3 O 0.4530(6) 0.4318(4) 0.04952(13)
O14_3 O 0.0986(6) 0.1280(4) 0.05426(15)
C5_3 C 0.6814(7) 0.3987(5) 0.08524(15)
C7_3 C 0.5752(7) 0.4861(5) 0.08185(15)
O1_3 O 0.8116(6) 0.3363(4) 0.88396(13)
O2_3 O 0.6323(6) 0.3669(5) 0.94120(16)
O3_3 O 0.2803(6) 0.3193(4) 0.94018(14)
C1_3 C 0.6814(7) 0.2827(5) 0.91476(15)
C2_3 C 0.5752(7) 0.0891(5) 0.91815(15)
O4_3 O 0.6257(6) 0.0108(4) 0.88571(12)
O5_3 O 0.4530(6) 0.0212(4) 0.95048(13)
C6_3 C 0.1500(7) 0.2382(5) 0.91146(15)
C8_3 C 0.0457(7) 0.0453(5) 0.91611(15)
C3_3 C 0.1500(7) 0.9118(5) 0.08854(15)
O12_3 O 0.2803(6) 0.9610(4) 0.05982(14)
O7_3 O 0.0986(6) 0.9706(4) 0.94574(15)
O16_2 O 0.9059(6) 0.9795(4) 0.88754(14)
Cd1_4 Cd 0.37338(3) 0.18669(2) 0.9999
C9 C 0.3686(7) 0.5561(7) 0.3045(2)
H1 H 0.4431 0.5242 0.2857
H2 H 0.2602 0.4537 0.3102
N1 N 0.3430(6) 0.6731(6) 0.26690(19)
H3 H 0.4550(6) 0.7834(19) 0.2621(2)
H4 H 0.2559(19) 0.6982(7) 0.2845(3)
H5 H 0.3008(6) 0.6176(11) 0.2284(6)
C10 C 0.4439(7) 0.6314(7) 0.3622(2)
H6 H 0.4758 0.5569 0.3810
H7 H 0.5463 0.7398 0.3565
N2 N 0.3269(6) 0.6570(6) 0.39977(19)
H8 H 0.2166(19) 0.5450(6) 0.4046(2)
H9 H 0.3018(7) 0.7441(19) 0.3822(3)
H10 H 0.3824(11) 0.6992(6) 0.4383(6)
C9_2 C 0.4439(7) 0.8125(10) 0.6378(2)
H1_2 H 0.4758 0.9189 0.6190
H2_2 H 0.5463 0.8065 0.6435
N1_2 N 0.3269(6) 0.6699(8) 0.60023(19)
H3_2 H 0.2166(19) 0.6716(20) 0.5954(2)
H4_2 H 0.3018(7) 0.5577(20) 0.6178(3)
H5_2 H 0.3824(11) 0.6832(13) 0.5617(6)
C10_2 C 0.3686(7) 0.8125(10) 0.6955(2)
H6_2 H 0.4431 0.9189 0.7143
H7_2 H 0.2602 0.8065 0.6898
N2_2 N 0.3430(6) 0.6699(8) 0.73310(19)
H8_2 H 0.4550(6) 0.6716(20) 0.7379(2)
H9_2 H 0.2559(19) 0.5577(20) 0.7155(3)
H10_2 H 0.3008(6) 0.6832(13) 0.7716(6)
C10_3 C 0.1875(10) 0.5561(7) 0.0288(2)
H6_3 H 0.0811 0.5242 0.0476
H7_3 H 0.1935 0.4537 0.0231
N2_3 N 0.3301(8) 0.6731(6) 0.06643(19)
H8_3 H 0.3284(20) 0.7834(19) 0.0712(2)
H9_3 H 0.4423(20) 0.6982(7) 0.0488(3)
H10_3 H 0.3168(13) 0.6176(11) 0.1049(6)
C9_3 C 0.1875(10) 0.6314(7) 0.9712(2)
H1_3 H 0.0811 0.5569 0.9524
H2_3 H 0.1935 0.7398 0.9769
N1_3 N 0.3301(8) 0.6570(6) 0.93357(19)
H3_3 H 0.3284(20) 0.5450(6) 0.9288(2)
H4_3 H 0.4423(20) 0.7441(19) 0.9512(3)
H5_3 H 0.3168(13) 0.6992(6) 0.8951(6)
loop_
_geom_bond_atom_site_label_1
_geom_bond_atom_site_label_2
_geom_bond_site_symmetry_1
_geom_bond_site_symmetry_2
O8 C3 1_555 1_555
O8 Zr2 1_555 1_555
C3 O12 1_555 1_555
Cd1 O2 1_555 1_555
Zr1 O1 1_555 1_555
O1 C1 1_555 1_555
O2 C1 1_555 1_555
C1 C2 1_555 1_555
C2 O4 1_555 1_555
O4 Zr1 1_555 1_555
O5 Cd1 1_555 1_555
O9 Zr1 1_555 1_555
O10 Zr1 1_555 1_555
O11 Cd1 1_555 1_555
O13 Cd1 1_555 1_555
O15 Zr1 1_555 1_555
O17 Zr1 1_555 1_555
C5 O11 1_555 1_555
C7 O13 1_555 1_555
O19 C5 1_555 1_555
O21 C7 1_555 1_555
Zr2 O19 1_555 1_555
C2 O5 1_555 1_555
C5 C7 1_555 1_555
O21 Zr2 1_555 1_555
C6 O3 1_555 1_555
O9 C6 1_555 1_555
O22 Zr2 1_555 1_555
C6_2 O3_2 1_555 1_555
O20 C6_2 1_555 1_555
Cd1_2 O2_2 1_555 1_555
Zr2 O1_2 1_555 1_555
O1_2 C1_2 1_555 1_555
O2_2 C1_2 1_555 1_555
C1_2 C2_2 1_555 1_555
C2_2 O4_2 1_555 1_555
O4_2 Zr2 1_555 1_555
O5_2 Cd1_2 1_555 1_555
O7_2 Cd1_2 1_555 1_555
O8_2 C3_2 1_555 1_555
C3_2 C4_2 1_555 1_555
O11_2 Cd1_2 1_555 1_555
O12_2 Cd1_2 1_555 1_555
O13_2 Cd1_2 1_555 1_555
C5_2 O11_2 1_555 1_555
C7_2 O13_2 1_555 1_555
C8_2 O7_2 1_555 1_555
O19_2 C5_2 1_555 1_555
O21_2 C7_2 1_555 1_555
Zr2_2 O19_2 1_555 1_555
C2_2 O5_2 1_555 1_555
C3_2 O12_2 1_555 1_555
C5_2 C7_2 1_555 1_555
O21_2 Zr2_2 1_555 1_555
C4_3 O14_3 1_555 1_555
O11_3 Cd1_3 1_555 1_555
O13_3 Cd1_3 1_555 1_555
O14_3 Cd1_3 1_555 1_555
C5_3 O11_3 1_555 1_555
C7_3 O13_3 1_555 1_555
O10 C5_3 1_555 1_555
O15 C7_3 1_555 1_555
C5_3 C7_3 1_555 1_555
Zr2_2 O1_3 1_555 1_555
O1_3 C1_3 1_555 1_555
O2_3 C1_3 1_555 1_555
C1_3 C2_3 1_555 1_555
C2_3 O4_3 1_555 1_555
O4_3 Zr2_2 1_555 1_555
C6_3 O3_3 1_555 1_555
O9_2 C6_3 1_555 1_555
C2_3 O5_3 1_555 1_555
C6_3 C8_3 1_555 1_555
O18 C3_3 1_555 1_555
C3_3 O12_3 1_555 1_555
O2_3 Cd1_4 1_555 1_555
O3_3 Cd1_4 1_555 1_555
O5_3 Cd1_4 1_555 1_555
C9 H1 1_555 1_555
H2 C9 1_555 1_555
N1 C9 1_555 1_555
H3 N1 1_555 1_555
H4 N1 1_555 1_555
H5 N1 1_555 1_555
C10 C9 1_555 1_555
H6 C10 1_555 1_555
H7 C10 1_555 1_555
N2 C10 1_555 1_555
H8 N2 1_555 1_555
H9 N2 1_555 1_555
H10 N2 1_555 1_555
C9_2 H1_2 1_555 1_555
H2_2 C9_2 1_555 1_555
N1_2 C9_2 1_555 1_555
H3_2 N1_2 1_555 1_555
H4_2 N1_2 1_555 1_555
H5_2 N1_2 1_555 1_555
C10_2 C9_2 1_555 1_555
H6_2 C10_2 1_555 1_555
H7_2 C10_2 1_555 1_555
N2_2 C10_2 1_555 1_555
H8_2 N2_2 1_555 1_555
H9_2 N2_2 1_555 1_555
H10_2 N2_2 1_555 1_555
H6_3 C10_3 1_555 1_555
H7_3 C10_3 1_555 1_555
N2_3 C10_3 1_555 1_555
H8_3 N2_3 1_555 1_555
H9_3 N2_3 1_555 1_555
H10_3 N2_3 1_555 1_555
C9_3 H1_3 1_555 1_555
H2_3 C9_3 1_555 1_555
N1_3 C9_3 1_555 1_555
H3_3 N1_3 1_555 1_555
H4_3 N1_3 1_555 1_555
H5_3 N1_3 1_555 1_555

#END
