
###############################################################################
#
# This file contains modified crystal structure data generated from the
# MOF subset of the Cambridge Structural Database (CSD) v543 
# hosted by the Cambridge Crystallographic Data Centre (CCDC).
#
# This work is licensed under the Creative Commons
# Attribution-NonCommercial-ShareAlike 4.0 International License.
# To view a copy of this license, visit
# http://creativecommons.org/licenses/by-nc-sa/4.0/
# or send a letter to
# Creative Commons, PO Box 1866, Mountain View, CA 94042, USA.
#
# CIF created using the CSD Python API on 29 September 2022
# The structure has been converted into the P1 space group
# The structure has a 3D framework
# The original CSD entry IFUDAO is in the hexagonal crystal system
# The original CSD entry IFUDAO is in a Sohncke space group
# The framework has been calculated to contain at least 10.0% void space
# The void calculation uses a probe of radius 1.32A, grid spacing 0.4
#
###############################################################################

data_IFUDAO
_chemical_formula_moiety         '(C24 H24 Cd7 N28 O48 Zr3 22+)n'
_symmetry_cell_setting           triclinic
_symmetry_space_group_name_H-M   'P 1'
_symmetry_Int_Tables_number      1
_space_group_name_Hall           'P 1'
loop_
_symmetry_equiv_pos_site_id
_symmetry_equiv_pos_as_xyz
1 x,y,z
_cell_length_a                   9.061(5)
_cell_length_b                   9.061(5)
_cell_length_c                   23.394(5)
_cell_angle_alpha                90
_cell_angle_beta                 90
_cell_angle_gamma                120
_cell_volume                     1663.36
loop_
_atom_site_label
_atom_site_type_symbol
_atom_site_fract_x
_atom_site_fract_y
_atom_site_fract_z
Zr3 Zr 0.5000 -0.0000 0.5000
Cd1 Cd 0.0000 0.5000 0.3333
O9 O 0.0801(3) 0.7371(3) 0.38899(9)
O10 O 0.0801(3) 0.3430(4) 0.27768(9)
O12 O 0.2612(3) 0.5646(3) 0.39134(10)
O13 O 0.2612(3) 0.6966(4) 0.27533(10)
C3 C 0.2084(4) 0.7891(4) 0.41857(10)
C4 C 0.2084(4) 0.4193(6) 0.24810(10)
C6 C 0.3146(3) 0.6989(3) 0.41763(11)
C7 C 0.3146(3) 0.6157(4) 0.24904(11)
O17 O 0.2656(3) 0.9168(2) 0.45216(8)
O18 O 0.2656(3) 0.3488(4) 0.21451(8)
O20 O 0.4539(3) 0.7791(3) 0.44576(9)
O21 O 0.4539(3) 0.6748(4) 0.22091(9)
Zr3_2 Zr 0.5000 1.0000 0.5000
Zr4 Zr 0.5000 0.5000 0.1667
Cd1_2 Cd 1.0000 0.5000 0.3333
O1 O 0.9199(3) 0.2629(3) 0.38899(9)
O2 O 0.7344(3) 0.0832(2) 0.45216(8)
O3 O 0.5461(3) 0.2209(3) 0.44576(9)
O4 O 0.7388(3) 0.4354(3) 0.39134(10)
C1 C 0.7916(4) 0.2109(4) 0.41857(10)
C2 C 0.6854(3) 0.3011(3) 0.41763(11)
O8 O 0.3488(4) 0.0832(2) 0.54784(8)
O11 O 0.9199(3) 0.6570(4) 0.27768(9)
O14 O 0.7388(3) 0.3034(4) 0.27533(10)
O16 O 0.6748(4) 0.2209(3) 0.55424(9)
C5 C 0.7916(4) 0.5807(6) 0.24810(10)
C8 C 0.6854(3) 0.3843(4) 0.24904(11)
O19 O 0.7344(3) 0.6512(4) 0.21451(8)
O22 O 0.5461(3) 0.3252(4) 0.22091(9)
O7 O 0.6512(4) 0.9168(2) 0.54784(8)
O15 O 0.3252(4) 0.7791(3) 0.55424(9)
Zr1 Zr 0.0000 0.5000 0.8333
O5 O 0.0832(2) 0.3488(4) 0.78549(8)
O6 O 0.2209(3) 0.6748(4) 0.77909(9)
O7_2 O 0.0832(2) 0.7344(4) 0.88117(8)
O15_2 O 0.2209(3) 0.5461(5) 0.88757(9)
Cd1_3 Cd 0.5000 0.5000 0.6666
Zr1_2 Zr 1.0000 0.5000 0.8333
O1_2 O 0.7371(3) 0.6570(4) 0.72232(9)
O2_2 O 0.9168(2) 0.6512(4) 0.78549(8)
O3_2 O 0.7791(3) 0.3252(4) 0.77909(9)
O4_2 O 0.5646(3) 0.3034(4) 0.72467(10)
C1_2 C 0.7891(4) 0.5807(6) 0.75190(10)
C2_2 C 0.6989(3) 0.3843(4) 0.75096(11)
O8_2 O 0.9168(2) 0.2656(4) 0.88117(8)
O9_2 O 0.2629(3) 0.3430(4) 0.72232(9)
O10_2 O 0.6570(4) 0.7371(5) 0.61101(9)
O11_2 O 0.3430(4) 0.2629(5) 0.61101(9)
O12_2 O 0.4354(3) 0.6966(4) 0.72467(10)
O13_2 O 0.3034(4) 0.5646(5) 0.60866(10)
O14_2 O 0.6966(4) 0.4354(5) 0.60866(10)
O16_2 O 0.7791(3) 0.4539(5) 0.88757(9)
C3_2 C 0.2109(4) 0.4193(6) 0.75190(10)
C4_2 C 0.5807(6) 0.7891(7) 0.58143(10)
C5_2 C 0.4193(6) 0.2109(7) 0.58143(10)
C6_2 C 0.3011(3) 0.6157(4) 0.75096(11)
C7_2 C 0.3843(4) 0.6989(5) 0.58237(11)
C8_2 C 0.6157(4) 0.3011(5) 0.58237(11)
Cd1_4 Cd 0.5000 -0.0000 -0.0000
O1_3 O 0.3430(4) 0.0801(3) 0.05566(9)
O2_3 O 0.3488(4) 0.2656(3) 0.11883(8)
O3_3 O 0.6748(4) 0.4539(3) 0.11243(9)
O4_3 O 0.6966(4) 0.2612(3) 0.05801(10)
C1_3 C 0.4193(6) 0.2084(4) 0.08524(10)
C2_3 C 0.6157(4) 0.3146(3) 0.08430(11)
O5_2 O 0.6512(4) 0.7344(3) 0.11883(8)
O6_2 O 0.3252(4) 0.5461(3) 0.11243(9)
Cd1_5 Cd 0.5000 -0.0000 1.0000
O11_3 O 0.7371(5) 0.0801(3) 0.94434(9)
O14_3 O 0.5646(5) 0.2612(3) 0.94199(10)
C5_3 C 0.7891(7) 0.2084(4) 0.91476(10)
C8_3 C 0.6989(5) 0.3146(3) 0.91570(11)
Cd1_6 Cd 0.5000 1.0000 -0.0000
O9_3 O 0.6570(4) 0.9199(3) 0.05566(9)
O12_3 O 0.3034(4) 0.7388(3) 0.05801(10)
C3_3 C 0.5807(6) 0.7916(4) 0.08524(10)
C6_3 C 0.3843(4) 0.6854(3) 0.08430(11)
Cd1_7 Cd 0.5000 1.0000 1.0000
O10_3 O 0.2629(5) 0.9199(3) 0.94434(9)
O13_3 O 0.4354(5) 0.7388(3) 0.94199(10)
C4_3 C 0.2109(7) 0.7916(4) 0.91476(10)
C7_3 C 0.3011(5) 0.6854(3) 0.91570(11)
N1 N -0.0000 0.0000 0.5000
H2 H 0.1002(9) 0.0744(11) 0.4756(4)
N1_2 N -0.0000 1.0000 0.5000
H4 H 0.0258(14) 0.9256(11) 0.5244(4)
N1_3 N 1.0000 0.0000 0.5000
H3 H 0.9742(14) 0.0744(11) 0.5244(4)
N1_4 N 1.0000 1.0000 0.5000
H1 H 0.8998(9) 0.9256(11) 0.4756(4)
N1_5 N 0.0000 -0.0000 0.8333
H4_2 H 0.0744(11) 0.1002(18) 0.8577(4)
N1_6 N -0.0000 1.0000 0.8333
H1_2 H 0.0744(11) 0.9742(14) 0.8089(4)
N1_7 N 1.0000 -0.0000 0.8333
H2_2 H 0.9256(11) 0.0258(14) 0.8089(4)
N1_8 N 1.0000 1.0000 0.8333
H3_2 H 0.9256(11) 0.8998(18) 0.8577(4)
N1_9 N 0.0000 0.0000 0.1667
H1_3 H 0.0258(14) 0.1002(9) 0.1423(4)
H3_3 H 0.1002(18) 0.0258(14) 0.1911(4)
N1_10 N 0.0000 1.0000 0.1667
N1_11 N 1.0000 0.0000 0.1667
N1_12 N 1.0000 1.0000 0.1667
H2_3 H 0.9742(14) 0.8998(9) 0.1423(4)
H4_3 H 0.8998(18) 0.9742(14) 0.1911(4)
N2 N -0.0000 0.0000 0.3333
H5 H 0.079(3) 0.100(5) 0.3577(11)
N2_2 N -0.0000 1.0000 0.3333
H8 H 0.079(3) 0.979(6) 0.3090(11)
N2_3 N 1.0000 0.0000 0.3333
H7 H 0.921(3) 0.021(6) 0.3090(11)
N2_4 N 1.0000 1.0000 0.3333
H6 H 0.921(3) 0.900(5) 0.3577(11)
N2_5 N 0.0000 -0.0000 0.6666
H6_2 H 0.100(5) 0.021(6) 0.6910(11)
H8_2 H 0.021(6) 0.100(7) 0.6423(11)
N2_6 N -0.0000 1.0000 0.6666
N2_7 N 1.0000 -0.0000 0.6666
N2_8 N 1.0000 1.0000 0.6666
H5_2 H 0.900(5) 0.979(6) 0.6910(11)
H7_2 H 0.979(6) 0.900(7) 0.6423(11)
N2_9 N 0.0000 0.0000 -0.0000
N2_10 N 0.0000 0.0000 1.0000
H7_3 H 0.100(7) 0.079(3) 0.9756(11)
N2_11 N 0.0000 1.0000 -0.0000
H5_3 H 0.021(6) 0.921(3) 0.0244(11)
N2_12 N 0.0000 1.0000 1.0000
N2_13 N 1.0000 0.0000 -0.0000
H6_3 H 0.979(6) 0.079(3) 0.0244(11)
N2_14 N 1.0000 0.0000 1.0000
N2_15 N 1.0000 1.0000 -0.0000
N2_16 N 1.0000 1.0000 1.0000
H8_3 H 0.900(7) 0.921(3) 0.9756(11)
loop_
_geom_bond_atom_site_label_1
_geom_bond_atom_site_label_2
_geom_bond_site_symmetry_1
_geom_bond_site_symmetry_2
O9 Cd1 1_555 1_555
O10 Cd1 1_555 1_555
O12 Cd1 1_555 1_555
O13 Cd1 1_555 1_555
C3 O9 1_555 1_555
C4 O10 1_555 1_555
C6 O12 1_555 1_555
C7 O13 1_555 1_555
O17 C3 1_555 1_555
O18 C4 1_555 1_555
O20 C6 1_555 1_555
O21 C7 1_555 1_555
Zr3_2 O17 1_555 1_555
Zr4 O18 1_555 1_555
C3 C6 1_555 1_555
C4 C7 1_555 1_555
O20 Zr3_2 1_555 1_555
O21 Zr4 1_555 1_555
Cd1_2 O1 1_555 1_555
Zr3 O2 1_555 1_555
O1 C1 1_555 1_555
O2 C1 1_555 1_555
O3 Zr3 1_555 1_555
O4 Cd1_2 1_555 1_555
C1 C2 1_555 1_555
C2 O3 1_555 1_555
O8 Zr3 1_555 1_555
O11 Cd1_2 1_555 1_555
O14 Cd1_2 1_555 1_555
O16 Zr3 1_555 1_555
C5 O11 1_555 1_555
C8 O14 1_555 1_555
O19 C5 1_555 1_555
O22 C8 1_555 1_555
Zr4 O19 1_555 1_555
O4 C2 1_555 1_555
C5 C8 1_555 1_555
O22 Zr4 1_555 1_555
O7 Zr3_2 1_555 1_555
O15 Zr3_2 1_555 1_555
O5 Zr1 1_555 1_555
O6 Zr1 1_555 1_555
O7_2 Zr1 1_555 1_555
O15_2 Zr1 1_555 1_555
Cd1_3 O1_2 1_555 1_555
Zr1_2 O2_2 1_555 1_555
O1_2 C1_2 1_555 1_555
O2_2 C1_2 1_555 1_555
O3_2 Zr1_2 1_555 1_555
O4_2 Cd1_3 1_555 1_555
C1_2 C2_2 1_555 1_555
C2_2 O3_2 1_555 1_555
O8_2 Zr1_2 1_555 1_555
O9_2 Cd1_3 1_555 1_555
O10_2 Cd1_3 1_555 1_555
O11_2 Cd1_3 1_555 1_555
O12_2 Cd1_3 1_555 1_555
O13_2 Cd1_3 1_555 1_555
O14_2 Cd1_3 1_555 1_555
O16_2 Zr1_2 1_555 1_555
C3_2 O9_2 1_555 1_555
C4_2 O10_2 1_555 1_555
C5_2 O11_2 1_555 1_555
C6_2 O12_2 1_555 1_555
C7_2 O13_2 1_555 1_555
C8_2 O14_2 1_555 1_555
O5 C3_2 1_555 1_555
O7 C4_2 1_555 1_555
O8 C5_2 1_555 1_555
O6 C6_2 1_555 1_555
O15 C7_2 1_555 1_555
O16 C8_2 1_555 1_555
O4_2 C2_2 1_555 1_555
C3_2 C6_2 1_555 1_555
C4_2 C7_2 1_555 1_555
C5_2 C8_2 1_555 1_555
Cd1_4 O1_3 1_555 1_555
Zr4 O2_3 1_555 1_555
O1_3 C1_3 1_555 1_555
O2_3 C1_3 1_555 1_555
O3_3 Zr4 1_555 1_555
O4_3 Cd1_4 1_555 1_555
C1_3 C2_3 1_555 1_555
C2_3 O3_3 1_555 1_555
O5_2 Zr4 1_555 1_555
O6_2 Zr4 1_555 1_555
O4_3 C2_3 1_555 1_555
O11_3 Cd1_5 1_555 1_555
O14_3 Cd1_5 1_555 1_555
C5_3 O11_3 1_555 1_555
C8_3 O14_3 1_555 1_555
O8_2 C5_3 1_555 1_555
O16_2 C8_3 1_555 1_555
C5_3 C8_3 1_555 1_555
O9_3 Cd1_6 1_555 1_555
O12_3 Cd1_6 1_555 1_555
C3_3 O9_3 1_555 1_555
C6_3 O12_3 1_555 1_555
O5_2 C3_3 1_555 1_555
O6_2 C6_3 1_555 1_555
C3_3 C6_3 1_555 1_555
O10_3 Cd1_7 1_555 1_555
O13_3 Cd1_7 1_555 1_555
C4_3 O10_3 1_555 1_555
C7_3 O13_3 1_555 1_555
O7_2 C4_3 1_555 1_555
O15_2 C7_3 1_555 1_555
C4_3 C7_3 1_555 1_555
H2 N1 1_555 1_555
H4 N1_2 1_555 1_555
H3 N1_3 1_555 1_555
N1_4 H1 1_555 1_555
H4_2 N1_5 1_555 1_555
N1_6 H1_2 1_555 1_555
H2_2 N1_7 1_555 1_555
H3_2 N1_8 1_555 1_555
N1_9 H1_3 1_555 1_555
H3_3 N1_9 1_555 1_555
H2_3 N1_12 1_555 1_555
H4_3 N1_12 1_555 1_555
N2 H5 1_555 1_555
H8 N2_2 1_555 1_555
H7 N2_3 1_555 1_555
H6 N2_4 1_555 1_555
H6_2 N2_5 1_555 1_555
H8_2 N2_5 1_555 1_555
N2_8 H5_2 1_555 1_555
H7_2 N2_8 1_555 1_555
H7_3 N2_10 1_555 1_555
N2_11 H5_3 1_555 1_555
H6_3 N2_13 1_555 1_555
H8_3 N2_16 1_555 1_555

#END
