
###############################################################################
#
# This file contains modified crystal structure data generated from the
# MOF subset of the Cambridge Structural Database (CSD) v543 
# hosted by the Cambridge Crystallographic Data Centre (CCDC).
#
# This work is licensed under the Creative Commons
# Attribution-NonCommercial-ShareAlike 4.0 International License.
# To view a copy of this license, visit
# http://creativecommons.org/licenses/by-nc-sa/4.0/
# or send a letter to
# Creative Commons, PO Box 1866, Mountain View, CA 94042, USA.
#
# CIF created using the CSD Python API on 29 September 2022
# The structure has been converted into the P1 space group
# The structure has a 3D framework
# The original CSD entry IFUNUU is in the monoclinic crystal system
# The framework has been calculated to contain at least 10.0% void space
# The void calculation uses a probe of radius 1.32A, grid spacing 0.4
#
###############################################################################

data_IFUNUU
_chemical_formula_moiety         '(C144 H120 F8 N8 O64 Tb8)n'
_symmetry_cell_setting           triclinic
_symmetry_space_group_name_H-M   'P 1'
_symmetry_Int_Tables_number      1
_space_group_name_Hall           'P 1'
loop_
_symmetry_equiv_pos_site_id
_symmetry_equiv_pos_as_xyz
1 x,y,z
_cell_length_a                   24.605(2)
_cell_length_b                   12.9653(12)
_cell_length_c                   14.6200(14)
_cell_angle_alpha                90
_cell_angle_beta                 96.727(2)
_cell_angle_gamma                90
_cell_volume                     4631.84
loop_
_atom_site_label
_atom_site_type_symbol
_atom_site_fract_x
_atom_site_fract_y
_atom_site_fract_z
Tb1 Tb 0.327265(18) 0.79475(4) 0.53210(3)
F1 F 0.4121(5) 0.8088(9) 0.1724(12)
O1 O 0.2273(3) 0.6548(6) 0.3519(5)
O2 O 0.3057(3) 0.7427(6) 0.3790(5)
O3 O 0.2024(3) 0.4467(5) 0.0550(5)
O4 O 0.2755(3) 0.3537(5) 0.0394(5)
O5 O 0.5886(3) 0.8228(6) 0.0372(6)
O6 O 0.6043(3) 0.6634(6) 0.0058(6)
O7 O 0.3721(4) 0.7280(9) 0.6715(6)
N1 N 0.3905(4) 0.6615(9) 0.8156(8)
C1 C 0.3716(4) 0.6045(8) 0.1632(7)
C2 C 0.3483(4) 0.6507(8) 0.2353(7)
H1 H 0.3686 0.6992 0.2717
C3 C 0.2962(4) 0.6270(8) 0.2547(7)
C4 C 0.2643(4) 0.5582(8) 0.2000(7)
H2 H 0.2282 0.5465 0.2099
C5 C 0.2870(4) 0.5061(8) 0.1291(7)
C6 C 0.3410(4) 0.5277(8) 0.1130(7)
H3 H 0.3567 0.4905 0.0685
C7 C 0.4261(4) 0.6364(8) 0.1391(7)
C8 C 0.4426(5) 0.7359(9) 0.1392(10)
C9 C 0.4906(5) 0.7671(10) 0.1089(11)
H4 H 0.4994 0.8369 0.1088
C10 C 0.4626(5) 0.5638(10) 0.1129(10)
H5 H 0.4540 0.4940 0.1153
C11 C 0.2742(4) 0.6788(8) 0.3355(7)
C12 C 0.5766(4) 0.7285(8) 0.0393(8)
C13 C 0.5254(4) 0.6967(8) 0.0789(8)
C14 C 0.5127(5) 0.5945(10) 0.0824(9)
H6 H 0.5369 0.5452 0.0649
C15 C 0.2533(4) 0.4309(8) 0.0711(7)
C16 C 0.4468(5) 0.6844(10) 0.8275(9)
H7 H 0.4670 0.6256 0.8102
H8 H 0.4579 0.7010 0.8909
H9 H 0.4537 0.7422 0.7895
C17 C 0.3634(6) 0.5915(10) 0.8841(9)
H10 H 0.3244 0.5995 0.8739
H11 H 0.3764 0.6110 0.9462
H12 H 0.3727 0.5208 0.8744
C18 C 0.3579(6) 0.6938(11) 0.7392(10)
H13 H 0.330(6) 0.656(11) 0.751(9)
O8 O 0.3732(4) 0.9406(8) 0.6102(7)
H14 H 0.4036 0.9266 0.5908
H15 H 0.422(5) 0.943(9) 0.651(8)
Tb4 Tb 0.327265(18) 0.20525(4) 0.03210(3)
Tb5 Tb 0.172735(18) 0.70525(4) 0.46790(3)
O9 O 0.2727(3) 0.8452(6) 0.6481(5)
O10 O 0.2976(3) 0.9467(5) 0.4450(5)
O11 O 0.2245(3) 0.8537(5) 0.4606(5)
O12 O 0.2755(3) 0.6463(5) 0.5394(5)
O13 O 0.4114(3) 0.8228(6) 0.4628(6)
O14 O 0.3957(3) 0.6634(6) 0.4942(6)
Tb2 Tb 0.672735(18) 0.79475(4) 0.96790(3)
Tb3 Tb 0.172735(18) 0.29475(4) 0.96790(3)
F1_2 F 0.5879(5) 0.8088(9) 0.3276(12)
O1_2 O 0.7727(3) 0.6548(6) 0.1481(5)
O2_2 O 0.6943(3) 0.7427(6) 0.1210(5)
O3_2 O 0.7976(3) 0.4467(5) 0.4450(5)
O4_2 O 0.7245(3) 0.3537(5) 0.4606(5)
C1_2 C 0.6284(4) 0.6045(8) 0.3368(7)
C2_2 C 0.6517(4) 0.6507(8) 0.2647(7)
H1_2 H 0.6314 0.6992 0.2283
C3_2 C 0.7038(4) 0.6270(8) 0.2453(7)
C4_2 C 0.7357(4) 0.5582(8) 0.3000(7)
H2_2 H 0.7718 0.5465 0.2901
C5_2 C 0.7130(4) 0.5061(8) 0.3709(7)
C6_2 C 0.6590(4) 0.5277(8) 0.3870(7)
H3_2 H 0.6433 0.4905 0.4315
C7_2 C 0.5739(4) 0.6364(8) 0.3609(7)
C8_2 C 0.5574(5) 0.7359(9) 0.3608(10)
C9_2 C 0.5094(5) 0.7671(10) 0.3911(11)
H4_2 H 0.5006 0.8369 0.3912
C10_2 C 0.5374(5) 0.5638(10) 0.3871(10)
H5_2 H 0.5460 0.4940 0.3847
C11_2 C 0.7258(4) 0.6788(8) 0.1645(7)
C12_2 C 0.4234(4) 0.7285(8) 0.4607(8)
C13_2 C 0.4746(4) 0.6967(8) 0.4211(8)
C14_2 C 0.4873(5) 0.5945(10) 0.4176(9)
H6_2 H 0.4631 0.5452 0.4351
C15_2 C 0.7467(4) 0.4309(8) 0.4289(7)
Tb3_2 Tb 0.827265(18) 0.29475(4) 0.53210(3)
Tb4_2 Tb 0.672735(18) 0.20525(4) 0.46790(3)
Tb5_2 Tb 0.827265(18) 0.70525(4) 0.03210(3)
O10_2 O 0.7024(3) 0.9467(5) 0.0550(5)
O11_2 O 0.7755(3) 0.8537(5) 0.0394(5)
O7_2 O 0.6279(4) 0.7280(9) 0.8285(6)
N1_2 N 0.6095(4) 0.6615(9) 0.6844(8)
C16_2 C 0.5532(5) 0.6844(10) 0.6725(9)
H7_2 H 0.5330 0.6256 0.6898
H8_2 H 0.5421 0.7010 0.6091
H9_2 H 0.5463 0.7422 0.7105
C17_2 C 0.6366(6) 0.5915(10) 0.6159(9)
H10_2 H 0.6756 0.5995 0.6261
H11_2 H 0.6236 0.6110 0.5538
H12_2 H 0.6273 0.5208 0.6256
C18_2 C 0.6421(6) 0.6938(11) 0.7608(10)
H13_2 H 0.670(6) 0.656(11) 0.749(9)
O8_2 O 0.6268(4) 0.9406(8) 0.8898(7)
H14_2 H 0.5964 0.9266 0.9092
H15_2 H 0.578(5) 0.943(9) 0.849(8)
O9_2 O 0.7273(3) 0.8452(6) 0.8519(5)
O12_2 O 0.7245(3) 0.6463(5) 0.9606(5)
O5_2 O 0.0886(3) 0.3228(6) 0.0372(6)
O6_2 O 0.1043(3) 0.1634(6) 0.0058(6)
C12_3 C 0.0766(4) 0.2285(8) 0.0393(8)
C13_3 C 0.0254(4) 0.1967(8) 0.0789(8)
C14_3 C 0.0127(5) 0.0945(10) 0.0824(9)
H6_3 H 0.0369 0.0452 0.0649
F1_3 F 0.9121(5) 0.3088(9) 0.1724(12)
O1_3 O 0.7273(3) 0.1548(6) 0.3519(5)
O2_3 O 0.8057(3) 0.2427(6) 0.3790(5)
O7_3 O 0.8721(4) 0.2280(9) 0.6715(6)
N1_3 N 0.8905(4) 0.1615(9) 0.8156(8)
C1_3 C 0.8716(4) 0.1045(8) 0.1632(7)
C2_3 C 0.8483(4) 0.1507(8) 0.2353(7)
H1_3 H 0.8686 0.1992 0.2717
C3_3 C 0.7962(4) 0.1270(8) 0.2547(7)
C4_3 C 0.7643(4) 0.0582(8) 0.2000(7)
H2_3 H 0.7282 0.0465 0.2099
C5_3 C 0.7870(4) 0.0061(8) 0.1291(7)
C6_3 C 0.8410(4) 0.0277(8) 0.1130(7)
C7_3 C 0.9261(4) 0.1364(8) 0.1391(7)
C8_3 C 0.9426(5) 0.2359(9) 0.1392(10)
C9_3 C 0.9906(5) 0.2671(10) 0.1089(11)
H4_3 H 0.9994 0.3369 0.1088
C10_3 C 0.9626(5) 0.0638(10) 0.1129(10)
C11_3 C 0.7742(4) 0.1788(8) 0.3355(7)
C16_3 C 0.9468(5) 0.1844(10) 0.8275(9)
H7_3 H 0.9670 0.1256 0.8102
H8_3 H 0.9579 0.2010 0.8909
H9_3 H 0.9537 0.2422 0.7895
C17_3 C 0.8634(6) 0.0915(10) 0.8841(9)
H10_3 H 0.8244 0.0995 0.8739
H11_3 H 0.8764 0.1110 0.9462
H12_3 H 0.8727 0.0208 0.8744
C18_3 C 0.8579(6) 0.1938(11) 0.7392(10)
H13_3 H 0.830(6) 0.156(11) 0.751(9)
O8_3 O 0.8732(4) 0.4406(8) 0.6102(7)
H14_3 H 0.9036 0.4266 0.5908
H15_3 H 0.922(5) 0.443(9) 0.651(8)
O9_3 O 0.7727(3) 0.3452(6) 0.6481(5)
O12_3 O 0.7755(3) 0.1463(5) 0.5394(5)
O13_2 O 0.9114(3) 0.3228(6) 0.4628(6)
O14_2 O 0.8957(3) 0.1634(6) 0.4942(6)
H3_3 H 0.8567 0.9905 0.0685
H5_3 H 0.9540 0.9940 0.1153
C15_3 C 0.7533(4) 0.9309(8) 0.0711(7)
F1_4 F 0.0879(5) 0.3088(9) 0.3276(12)
O1_4 O 0.2727(3) 0.1548(6) 0.1481(5)
O2_4 O 0.1943(3) 0.2427(6) 0.1210(5)
C1_4 C 0.1284(4) 0.1045(8) 0.3368(7)
C2_4 C 0.1517(4) 0.1507(8) 0.2647(7)
H1_4 H 0.1314 0.1992 0.2283
C3_4 C 0.2038(4) 0.1270(8) 0.2453(7)
C4_4 C 0.2357(4) 0.0582(8) 0.3000(7)
H2_4 H 0.2718 0.0465 0.2901
C5_4 C 0.2130(4) 0.0061(8) 0.3709(7)
C6_4 C 0.1590(4) 0.0277(8) 0.3870(7)
C7_4 C 0.0739(4) 0.1364(8) 0.3609(7)
C8_4 C 0.0574(5) 0.2359(9) 0.3608(10)
C9_4 C 0.0094(5) 0.2671(10) 0.3911(11)
H4_4 H 0.0006 0.3369 0.3912
C10_4 C 0.0374(5) 0.0638(10) 0.3871(10)
C11_4 C 0.2258(4) 0.1788(8) 0.1645(7)
O7_4 O 0.1279(4) 0.2280(9) 0.8285(6)
N1_4 N 0.1095(4) 0.1615(9) 0.6844(8)
C16_4 C 0.0532(5) 0.1844(10) 0.6725(9)
H7_4 H 0.0330 0.1256 0.6898
H8_4 H 0.0421 0.2010 0.6091
H9_4 H 0.0463 0.2422 0.7105
C17_4 C 0.1366(6) 0.0915(10) 0.6159(9)
H10_4 H 0.1756 0.0995 0.6261
H11_4 H 0.1236 0.1110 0.5538
H12_4 H 0.1273 0.0208 0.6256
C18_4 C 0.1421(6) 0.1938(11) 0.7608(10)
H13_4 H 0.170(6) 0.156(11) 0.749(9)
O8_4 O 0.1268(4) 0.4406(8) 0.8898(7)
H14_4 H 0.0964 0.4266 0.9092
H15_4 H 0.078(5) 0.443(9) 0.849(8)
O9_4 O 0.2273(3) 0.3452(6) 0.8519(5)
O12_4 O 0.2245(3) 0.1463(5) 0.9606(5)
H3_4 H 0.1433 0.9905 0.4315
H5_4 H 0.0460 0.9940 0.3847
C15_4 C 0.2467(4) 0.9309(8) 0.4289(7)
C12_4 C 0.9234(4) 0.2285(8) 0.4607(8)
C13_4 C 0.9746(4) 0.1967(8) 0.4211(8)
C14_4 C 0.9873(5) 0.0945(10) 0.4176(9)
H6_4 H 0.9631 0.0452 0.4351
F1_5 F 0.5879(5) 0.1912(9) 0.8276(12)
O2_5 O 0.6943(3) 0.2573(6) 0.6210(5)
O3_3 O 0.7976(3) 0.5533(5) 0.9450(5)
O5_3 O 0.4114(3) 0.1772(6) 0.9628(6)
O6_3 O 0.3957(3) 0.3366(6) 0.9942(6)
O7_5 O 0.6279(4) 0.2720(9) 0.3285(6)
N1_5 N 0.6095(4) 0.3385(9) 0.1844(8)
C1_5 C 0.6284(4) 0.3955(8) 0.8368(7)
C2_5 C 0.6517(4) 0.3493(8) 0.7647(7)
H1_5 H 0.6314 0.3008 0.7283
C3_5 C 0.7038(4) 0.3730(8) 0.7453(7)
C4_5 C 0.7357(4) 0.4418(8) 0.8000(7)
H2_5 H 0.7718 0.4535 0.7901
C5_5 C 0.7130(4) 0.4939(8) 0.8709(7)
C6_5 C 0.6590(4) 0.4723(8) 0.8870(7)
H3_5 H 0.6433 0.5095 0.9315
C7_5 C 0.5739(4) 0.3636(8) 0.8609(7)
C8_5 C 0.5574(5) 0.2641(9) 0.8608(10)
C9_5 C 0.5094(5) 0.2329(10) 0.8911(11)
H4_5 H 0.5006 0.1631 0.8912
C10_5 C 0.5374(5) 0.4362(10) 0.8871(10)
H5_5 H 0.5460 0.5060 0.8847
C11_5 C 0.7258(4) 0.3212(8) 0.6645(7)
C12_5 C 0.4234(4) 0.2715(8) 0.9607(8)
C13_5 C 0.4746(4) 0.3033(8) 0.9211(8)
C14_5 C 0.4873(5) 0.4055(10) 0.9176(9)
H6_5 H 0.4631 0.4548 0.9351
C15_5 C 0.7467(4) 0.5691(8) 0.9289(7)
C16_5 C 0.5532(5) 0.3156(10) 0.1725(9)
H7_5 H 0.5330 0.3744 0.1898
H8_5 H 0.5421 0.2990 0.1091
H9_5 H 0.5463 0.2578 0.2105
C17_5 C 0.6366(6) 0.4085(10) 0.1159(9)
H10_5 H 0.6756 0.4005 0.1261
H11_5 H 0.6236 0.3890 0.0538
H12_5 H 0.6273 0.4792 0.1256
C18_5 C 0.6421(6) 0.3062(11) 0.2608(10)
H13_5 H 0.670(6) 0.344(11) 0.249(9)
O8_5 O 0.6268(4) 0.0594(8) 0.3898(7)
H14_5 H 0.5964 0.0734 0.4092
H15_5 H 0.578(5) 0.057(9) 0.349(8)
O10_3 O 0.7024(3) 0.0533(5) 0.5550(5)
O13_3 O 0.5886(3) 0.1772(6) 0.5372(6)
O14_3 O 0.6043(3) 0.3366(6) 0.5058(6)
O7_6 O 0.3721(4) 0.2720(9) 0.1715(6)
N1_6 N 0.3905(4) 0.3385(9) 0.3156(8)
C16_6 C 0.4468(5) 0.3156(10) 0.3275(9)
H7_6 H 0.4670 0.3744 0.3102
H8_6 H 0.4579 0.2990 0.3909
H9_6 H 0.4537 0.2578 0.2895
C17_6 C 0.3634(6) 0.4085(10) 0.3841(9)
H10_6 H 0.3244 0.4005 0.3739
H11_6 H 0.3764 0.3890 0.4462
H12_6 H 0.3727 0.4792 0.3744
C18_6 C 0.3579(6) 0.3062(11) 0.2392(10)
H13_6 H 0.330(6) 0.344(11) 0.251(9)
O8_6 O 0.3732(4) 0.0594(8) 0.1102(7)
H14_6 H 0.4036 0.0734 0.0908
H15_6 H 0.422(5) 0.057(9) 0.151(8)
F1_6 F 0.4121(5) 0.1912(9) 0.6724(12)
O2_6 O 0.3057(3) 0.2573(6) 0.8790(5)
O3_4 O 0.2024(3) 0.5533(5) 0.5550(5)
C1_6 C 0.3716(4) 0.3955(8) 0.6632(7)
C2_6 C 0.3483(4) 0.3493(8) 0.7353(7)
H1_6 H 0.3686 0.3008 0.7717
C3_6 C 0.2962(4) 0.3730(8) 0.7547(7)
C4_6 C 0.2643(4) 0.4418(8) 0.7000(7)
H2_6 H 0.2282 0.4535 0.7099
C5_6 C 0.2870(4) 0.4939(8) 0.6291(7)
C6_6 C 0.3410(4) 0.4723(8) 0.6130(7)
H3_6 H 0.3567 0.5095 0.5685
C7_6 C 0.4261(4) 0.3636(8) 0.6391(7)
C8_6 C 0.4426(5) 0.2641(9) 0.6392(10)
C9_6 C 0.4906(5) 0.2329(10) 0.6089(11)
H4_6 H 0.4994 0.1631 0.6088
C10_6 C 0.4626(5) 0.4362(10) 0.6129(10)
H5_6 H 0.4540 0.5060 0.6153
C11_6 C 0.2742(4) 0.3212(8) 0.8355(7)
C12_6 C 0.5766(4) 0.2715(8) 0.5393(8)
C13_6 C 0.5254(4) 0.3033(8) 0.5789(8)
C14_6 C 0.5127(5) 0.4055(10) 0.5824(9)
H6_6 H 0.5369 0.4548 0.5649
C15_6 C 0.2533(4) 0.5691(8) 0.5711(7)
O10_4 O 0.2976(3) 0.0533(5) 0.9450(5)
H3_7 H 0.1433 0.0095 0.9315
H5_7 H 0.0460 0.0060 0.8847
C15_7 C 0.2467(4) 0.0691(8) 0.9289(7)
F1_7 F 0.0879(5) 0.6912(9) 0.8276(12)
O2_7 O 0.1943(3) 0.7573(6) 0.6210(5)
O7_7 O 0.1279(4) 0.7720(9) 0.3285(6)
N1_7 N 0.1095(4) 0.8385(9) 0.1844(8)
C1_7 C 0.1284(4) 0.8955(8) 0.8368(7)
C2_7 C 0.1517(4) 0.8493(8) 0.7647(7)
H1_7 H 0.1314 0.8008 0.7283
C3_7 C 0.2038(4) 0.8730(8) 0.7453(7)
C4_7 C 0.2357(4) 0.9418(8) 0.8000(7)
H2_7 H 0.2718 0.9535 0.7901
C5_7 C 0.2130(4) 0.9939(8) 0.8709(7)
C6_7 C 0.1590(4) 0.9723(8) 0.8870(7)
C7_7 C 0.0739(4) 0.8636(8) 0.8609(7)
C8_7 C 0.0574(5) 0.7641(9) 0.8608(10)
C9_7 C 0.0094(5) 0.7329(10) 0.8911(11)
H4_7 H 0.0006 0.6631 0.8912
C10_7 C 0.0374(5) 0.9362(10) 0.8871(10)
C11_7 C 0.2258(4) 0.8212(8) 0.6645(7)
C16_7 C 0.0532(5) 0.8156(10) 0.1725(9)
H7_7 H 0.0330 0.8744 0.1898
H8_7 H 0.0421 0.7990 0.1091
H9_7 H 0.0463 0.7578 0.2105
C17_7 C 0.1366(6) 0.9085(10) 0.1159(9)
H10_7 H 0.1756 0.9005 0.1261
H11_7 H 0.1236 0.8890 0.0538
H12_7 H 0.1273 0.9792 0.1256
C18_7 C 0.1421(6) 0.8062(11) 0.2608(10)
H13_7 H 0.170(6) 0.844(11) 0.249(9)
O8_7 O 0.1268(4) 0.5594(8) 0.3898(7)
H14_7 H 0.0964 0.5734 0.4092
H15_7 H 0.078(5) 0.557(9) 0.349(8)
O13_4 O 0.0886(3) 0.6772(6) 0.5372(6)
O14_4 O 0.1043(3) 0.8366(6) 0.5058(6)
O5_4 O 0.9114(3) 0.6772(6) 0.9628(6)
O6_4 O 0.8957(3) 0.8366(6) 0.9942(6)
C12_7 C 0.9234(4) 0.7715(8) 0.9607(8)
C13_7 C 0.9746(4) 0.8033(8) 0.9211(8)
C14_7 C 0.9873(5) 0.9055(10) 0.9176(9)
H6_7 H 0.9631 0.9548 0.9351
C12_8 C 0.0766(4) 0.7715(8) 0.5393(8)
C13_8 C 0.0254(4) 0.8033(8) 0.5789(8)
C14_8 C 0.0127(5) 0.9055(10) 0.5824(9)
H6_8 H 0.0369 0.9548 0.5649
H3_8 H 0.8567 0.0095 0.5685
H5_8 H 0.9540 0.0060 0.6153
C15_8 C 0.7533(4) 0.0691(8) 0.5711(7)
O7_8 O 0.8721(4) 0.7720(9) 0.1715(6)
N1_8 N 0.8905(4) 0.8385(9) 0.3156(8)
C16_8 C 0.9468(5) 0.8156(10) 0.3275(9)
H7_8 H 0.9670 0.8744 0.3102
H8_8 H 0.9579 0.7990 0.3909
H9_8 H 0.9537 0.7578 0.2895
C17_8 C 0.8634(6) 0.9085(10) 0.3841(9)
H10_8 H 0.8244 0.9005 0.3739
H11_8 H 0.8764 0.8890 0.4462
H12_8 H 0.8727 0.9792 0.3744
C18_8 C 0.8579(6) 0.8062(11) 0.2392(10)
H13_8 H 0.830(6) 0.844(11) 0.251(9)
O8_8 O 0.8732(4) 0.5594(8) 0.1102(7)
H14_8 H 0.9036 0.5734 0.0908
H15_8 H 0.922(5) 0.557(9) 0.151(8)
F1_8 F 0.9121(5) 0.6912(9) 0.6724(12)
O2_8 O 0.8057(3) 0.7573(6) 0.8790(5)
C1_8 C 0.8716(4) 0.8955(8) 0.6632(7)
C2_8 C 0.8483(4) 0.8493(8) 0.7353(7)
H1_8 H 0.8686 0.8008 0.7717
C3_8 C 0.7962(4) 0.8730(8) 0.7547(7)
C4_8 C 0.7643(4) 0.9418(8) 0.7000(7)
H2_8 H 0.7282 0.9535 0.7099
C5_8 C 0.7870(4) 0.9939(8) 0.6291(7)
C6_8 C 0.8410(4) 0.9723(8) 0.6130(7)
C7_8 C 0.9261(4) 0.8636(8) 0.6391(7)
C8_8 C 0.9426(5) 0.7641(9) 0.6392(10)
C9_8 C 0.9906(5) 0.7329(10) 0.6089(11)
H4_8 H 0.9994 0.6631 0.6088
C10_8 C 0.9626(5) 0.9362(10) 0.6129(10)
C11_8 C 0.7742(4) 0.8212(8) 0.8355(7)
loop_
_geom_bond_atom_site_label_1
_geom_bond_atom_site_label_2
_geom_bond_site_symmetry_1
_geom_bond_site_symmetry_2
Tb1 O2 1_555 1_555
F1 C8 1_555 1_555
O1 C11 1_555 1_555
O2 C11 1_555 1_555
O3 C15 1_555 1_555
O4 C15 1_555 1_555
O5 C12 1_555 1_555
O6 C12 1_555 1_555
O7 Tb1 1_555 1_555
N1 C16 1_555 1_555
C1 C2 1_555 1_555
C2 H1 1_555 1_555
C3 C2 1_555 1_555
C4 C3 1_555 1_555
H2 C4 1_555 1_555
C5 C4 1_555 1_555
C6 C1 1_555 1_555
H3 C6 1_555 1_555
C7 C1 1_555 1_555
C8 C7 1_555 1_555
C9 C8 1_555 1_555
H4 C9 1_555 1_555
C10 C7 1_555 1_555
H5 C10 1_555 1_555
C11 C3 1_555 1_555
C12 C13 1_555 1_555
C13 C9 1_555 1_555
C14 C10 1_555 1_555
H6 C14 1_555 1_555
C15 C5 1_555 1_555
C16 H7 1_555 1_555
H8 C16 1_555 1_555
H9 C16 1_555 1_555
C17 N1 1_555 1_555
H10 C17 1_555 1_555
H11 C17 1_555 1_555
H12 C17 1_555 1_555
C18 O7 1_555 1_555
H13 C18 1_555 1_555
O8 Tb1 1_555 1_555
H14 O8 1_555 1_555
H15 O8 1_555 1_555
Tb4 O4 1_555 1_555
Tb5 O1 1_555 1_555
O9 Tb1 1_555 1_555
O10 Tb1 1_555 1_555
O11 Tb1 1_555 1_555
O12 Tb1 1_555 1_555
O13 Tb1 1_555 1_555
O14 Tb1 1_555 1_555
N1 C18 1_555 1_555
C5 C6 1_555 1_555
C13 C14 1_555 1_555
Tb5 O11 1_555 1_555
Tb5 O12 1_555 1_555
F1_2 C8_2 1_555 1_555
O1_2 C11_2 1_555 1_555
O2_2 C11_2 1_555 1_555
O3_2 C15_2 1_555 1_555
O4_2 C15_2 1_555 1_555
O13 C12_2 1_555 1_555
O14 C12_2 1_555 1_555
C1_2 C2_2 1_555 1_555
C2_2 H1_2 1_555 1_555
C3_2 C2_2 1_555 1_555
C4_2 C3_2 1_555 1_555
H2_2 C4_2 1_555 1_555
C5_2 C4_2 1_555 1_555
C6_2 C1_2 1_555 1_555
H3_2 C6_2 1_555 1_555
C7_2 C1_2 1_555 1_555
C8_2 C7_2 1_555 1_555
C9_2 C8_2 1_555 1_555
H4_2 C9_2 1_555 1_555
C10_2 C7_2 1_555 1_555
H5_2 C10_2 1_555 1_555
C11_2 C3_2 1_555 1_555
C12_2 C13_2 1_555 1_555
C13_2 C9_2 1_555 1_555
C14_2 C10_2 1_555 1_555
H6_2 C14_2 1_555 1_555
C15_2 C5_2 1_555 1_555
Tb3_2 O3_2 1_555 1_555
Tb4_2 O4_2 1_555 1_555
Tb5_2 O1_2 1_555 1_555
O4_2 Tb3_2 1_555 1_555
C5_2 C6_2 1_555 1_555
C13_2 C14_2 1_555 1_555
Tb5_2 O11_2 1_555 1_555
O7_2 Tb2 1_555 1_555
N1_2 C16_2 1_555 1_555
C16_2 H7_2 1_555 1_555
H8_2 C16_2 1_555 1_555
H9_2 C16_2 1_555 1_555
C17_2 N1_2 1_555 1_555
H10_2 C17_2 1_555 1_555
H11_2 C17_2 1_555 1_555
H12_2 C17_2 1_555 1_555
C18_2 O7_2 1_555 1_555
H13_2 C18_2 1_555 1_555
O8_2 Tb2 1_555 1_555
H14_2 O8_2 1_555 1_555
H15_2 O8_2 1_555 1_555
O9_2 Tb2 1_555 1_555
O12_2 Tb2 1_555 1_555
N1_2 C18_2 1_555 1_555
O5_2 C12_3 1_555 1_555
O6_2 C12_3 1_555 1_555
C12_3 C13_3 1_555 1_555
H6_3 C14_3 1_555 1_555
C13_3 C14_3 1_555 1_555
Tb3_2 O2_3 1_555 1_555
F1_3 C8_3 1_555 1_555
O1_3 C11_3 1_555 1_555
O2_3 C11_3 1_555 1_555
O7_3 Tb3_2 1_555 1_555
N1_3 C16_3 1_555 1_555
C1_3 C2_3 1_555 1_555
C2_3 H1_3 1_555 1_555
C3_3 C2_3 1_555 1_555
C4_3 C3_3 1_555 1_555
H2_3 C4_3 1_555 1_555
C5_3 C4_3 1_555 1_555
C6_3 C1_3 1_555 1_555
C7_3 C1_3 1_555 1_555
C8_3 C7_3 1_555 1_555
C9_3 C8_3 1_555 1_555
H4_3 C9_3 1_555 1_555
C10_3 C7_3 1_555 1_555
C11_3 C3_3 1_555 1_555
C16_3 H7_3 1_555 1_555
H8_3 C16_3 1_555 1_555
H9_3 C16_3 1_555 1_555
C17_3 N1_3 1_555 1_555
H10_3 C17_3 1_555 1_555
H11_3 C17_3 1_555 1_555
H12_3 C17_3 1_555 1_555
C18_3 O7_3 1_555 1_555
H13_3 C18_3 1_555 1_555
O8_3 Tb3_2 1_555 1_555
H14_3 O8_3 1_555 1_555
H15_3 O8_3 1_555 1_555
Tb4_2 O1_3 1_555 1_555
O9_3 Tb3_2 1_555 1_555
O12_3 Tb3_2 1_555 1_555
O13_2 Tb3_2 1_555 1_555
O14_2 Tb3_2 1_555 1_555
N1_3 C18_3 1_555 1_555
C5_3 C6_3 1_555 1_555
Tb4_2 O12_3 1_555 1_555
O10_2 C15_3 1_555 1_555
O11_2 C15_3 1_555 1_555
F1_4 C8_4 1_555 1_555
O1_4 C11_4 1_555 1_555
O2_4 C11_4 1_555 1_555
C1_4 C2_4 1_555 1_555
C2_4 H1_4 1_555 1_555
C3_4 C2_4 1_555 1_555
C4_4 C3_4 1_555 1_555
H2_4 C4_4 1_555 1_555
C5_4 C4_4 1_555 1_555
C6_4 C1_4 1_555 1_555
C7_4 C1_4 1_555 1_555
C8_4 C7_4 1_555 1_555
C9_4 C8_4 1_555 1_555
H4_4 C9_4 1_555 1_555
C10_4 C7_4 1_555 1_555
C11_4 C3_4 1_555 1_555
Tb4 O1_4 1_555 1_555
C5_4 C6_4 1_555 1_555
O7_4 Tb3 1_555 1_555
N1_4 C16_4 1_555 1_555
C16_4 H7_4 1_555 1_555
H8_4 C16_4 1_555 1_555
H9_4 C16_4 1_555 1_555
C17_4 N1_4 1_555 1_555
H10_4 C17_4 1_555 1_555
H11_4 C17_4 1_555 1_555
H12_4 C17_4 1_555 1_555
C18_4 O7_4 1_555 1_555
H13_4 C18_4 1_555 1_555
O8_4 Tb3 1_555 1_555
H14_4 O8_4 1_555 1_555
H15_4 O8_4 1_555 1_555
O9_4 Tb3 1_555 1_555
O12_4 Tb3 1_555 1_555
N1_4 C18_4 1_555 1_555
O10 C15_4 1_555 1_555
O11 C15_4 1_555 1_555
O13_2 C12_4 1_555 1_555
O14_2 C12_4 1_555 1_555
C12_4 C13_4 1_555 1_555
H6_4 C14_4 1_555 1_555
C13_4 C14_4 1_555 1_555
Tb4_2 O2_5 1_555 1_555
F1_5 C8_5 1_555 1_555
O9_3 C11_5 1_555 1_555
O2_5 C11_5 1_555 1_555
O3_3 C15_5 1_555 1_555
O12_2 C15_5 1_555 1_555
O5_3 C12_5 1_555 1_555
O6_3 C12_5 1_555 1_555
O7_5 Tb4_2 1_555 1_555
N1_5 C16_5 1_555 1_555
C1_5 C2_5 1_555 1_555
C2_5 H1_5 1_555 1_555
C3_5 C2_5 1_555 1_555
C4_5 C3_5 1_555 1_555
H2_5 C4_5 1_555 1_555
C5_5 C4_5 1_555 1_555
C6_5 C1_5 1_555 1_555
H3_5 C6_5 1_555 1_555
C7_5 C1_5 1_555 1_555
C8_5 C7_5 1_555 1_555
C9_5 C8_5 1_555 1_555
H4_5 C9_5 1_555 1_555
C10_5 C7_5 1_555 1_555
H5_5 C10_5 1_555 1_555
C11_5 C3_5 1_555 1_555
C12_5 C13_5 1_555 1_555
C13_5 C9_5 1_555 1_555
C14_5 C10_5 1_555 1_555
H6_5 C14_5 1_555 1_555
C15_5 C5_5 1_555 1_555
C16_5 H7_5 1_555 1_555
H8_5 C16_5 1_555 1_555
H9_5 C16_5 1_555 1_555
C17_5 N1_5 1_555 1_555
H10_5 C17_5 1_555 1_555
H11_5 C17_5 1_555 1_555
H12_5 C17_5 1_555 1_555
C18_5 O7_5 1_555 1_555
H13_5 C18_5 1_555 1_555
O8_5 Tb4_2 1_555 1_555
H14_5 O8_5 1_555 1_555
H15_5 O8_5 1_555 1_555
O10_3 Tb4_2 1_555 1_555
O13_3 Tb4_2 1_555 1_555
O14_3 Tb4_2 1_555 1_555
N1_5 C18_5 1_555 1_555
C5_5 C6_5 1_555 1_555
C13_5 C14_5 1_555 1_555
O7_6 Tb4 1_555 1_555
N1_6 C16_6 1_555 1_555
C16_6 H7_6 1_555 1_555
H8_6 C16_6 1_555 1_555
H9_6 C16_6 1_555 1_555
C17_6 N1_6 1_555 1_555
H10_6 C17_6 1_555 1_555
H11_6 C17_6 1_555 1_555
H12_6 C17_6 1_555 1_555
C18_6 O7_6 1_555 1_555
H13_6 C18_6 1_555 1_555
O8_6 Tb4 1_555 1_555
H14_6 O8_6 1_555 1_555
H15_6 O8_6 1_555 1_555
N1_6 C18_6 1_555 1_555
F1_6 C8_6 1_555 1_555
O9_4 C11_6 1_555 1_555
O2_6 C11_6 1_555 1_555
O3_4 C15_6 1_555 1_555
O12 C15_6 1_555 1_555
O13_3 C12_6 1_555 1_555
O14_3 C12_6 1_555 1_555
C1_6 C2_6 1_555 1_555
C2_6 H1_6 1_555 1_555
C3_6 C2_6 1_555 1_555
C4_6 C3_6 1_555 1_555
H2_6 C4_6 1_555 1_555
C5_6 C4_6 1_555 1_555
C6_6 C1_6 1_555 1_555
H3_6 C6_6 1_555 1_555
C7_6 C1_6 1_555 1_555
C8_6 C7_6 1_555 1_555
C9_6 C8_6 1_555 1_555
H4_6 C9_6 1_555 1_555
C10_6 C7_6 1_555 1_555
H5_6 C10_6 1_555 1_555
C11_6 C3_6 1_555 1_555
C12_6 C13_6 1_555 1_555
C13_6 C9_6 1_555 1_555
C14_6 C10_6 1_555 1_555
H6_6 C14_6 1_555 1_555
C15_6 C5_6 1_555 1_555
Tb5 O3_4 1_555 1_555
C5_6 C6_6 1_555 1_555
C13_6 C14_6 1_555 1_555
O10_4 C15_7 1_555 1_555
O12_4 C15_7 1_555 1_555
Tb5 O2_7 1_555 1_555
F1_7 C8_7 1_555 1_555
O9 C11_7 1_555 1_555
O2_7 C11_7 1_555 1_555
O7_7 Tb5 1_555 1_555
N1_7 C16_7 1_555 1_555
C1_7 C2_7 1_555 1_555
C2_7 H1_7 1_555 1_555
C3_7 C2_7 1_555 1_555
C4_7 C3_7 1_555 1_555
H2_7 C4_7 1_555 1_555
C5_7 C4_7 1_555 1_555
C6_7 C1_7 1_555 1_555
C7_7 C1_7 1_555 1_555
C8_7 C7_7 1_555 1_555
C9_7 C8_7 1_555 1_555
H4_7 C9_7 1_555 1_555
C10_7 C7_7 1_555 1_555
C11_7 C3_7 1_555 1_555
C16_7 H7_7 1_555 1_555
H8_7 C16_7 1_555 1_555
H9_7 C16_7 1_555 1_555
C17_7 N1_7 1_555 1_555
H10_7 C17_7 1_555 1_555
H11_7 C17_7 1_555 1_555
H12_7 C17_7 1_555 1_555
C18_7 O7_7 1_555 1_555
H13_7 C18_7 1_555 1_555
O8_7 Tb5 1_555 1_555
H14_7 O8_7 1_555 1_555
H15_7 O8_7 1_555 1_555
O13_4 Tb5 1_555 1_555
O14_4 Tb5 1_555 1_555
N1_7 C18_7 1_555 1_555
C5_7 C6_7 1_555 1_555
O5_4 C12_7 1_555 1_555
O6_4 C12_7 1_555 1_555
C12_7 C13_7 1_555 1_555
H6_7 C14_7 1_555 1_555
C13_7 C14_7 1_555 1_555
O13_4 C12_8 1_555 1_555
O14_4 C12_8 1_555 1_555
C12_8 C13_8 1_555 1_555
H6_8 C14_8 1_555 1_555
C13_8 C14_8 1_555 1_555
O10_3 C15_8 1_555 1_555
O12_3 C15_8 1_555 1_555
O7_8 Tb5_2 1_555 1_555
N1_8 C16_8 1_555 1_555
C16_8 H7_8 1_555 1_555
H8_8 C16_8 1_555 1_555
H9_8 C16_8 1_555 1_555
C17_8 N1_8 1_555 1_555
H10_8 C17_8 1_555 1_555
H11_8 C17_8 1_555 1_555
H12_8 C17_8 1_555 1_555
C18_8 O7_8 1_555 1_555
H13_8 C18_8 1_555 1_555
O8_8 Tb5_2 1_555 1_555
H14_8 O8_8 1_555 1_555
H15_8 O8_8 1_555 1_555
N1_8 C18_8 1_555 1_555
F1_8 C8_8 1_555 1_555
O9_2 C11_8 1_555 1_555
O2_8 C11_8 1_555 1_555
C1_8 C2_8 1_555 1_555
C2_8 H1_8 1_555 1_555
C3_8 C2_8 1_555 1_555
C4_8 C3_8 1_555 1_555
H2_8 C4_8 1_555 1_555
C5_8 C4_8 1_555 1_555
C6_8 C1_8 1_555 1_555
C7_8 C1_8 1_555 1_555
C8_8 C7_8 1_555 1_555
C9_8 C8_8 1_555 1_555
H4_8 C9_8 1_555 1_555
C10_8 C7_8 1_555 1_555
C11_8 C3_8 1_555 1_555
C5_8 C6_8 1_555 1_555

#END
