
###############################################################################
#
# This file contains modified crystal structure data generated from the
# MOF subset of the Cambridge Structural Database (CSD) v543 
# hosted by the Cambridge Crystallographic Data Centre (CCDC).
#
# This work is licensed under the Creative Commons
# Attribution-NonCommercial-ShareAlike 4.0 International License.
# To view a copy of this license, visit
# http://creativecommons.org/licenses/by-nc-sa/4.0/
# or send a letter to
# Creative Commons, PO Box 1866, Mountain View, CA 94042, USA.
#
# CIF created using the CSD Python API on 29 September 2022
# The structure has been converted into the P1 space group
# The structure has a 3D framework
# The original CSD entry IFUPAC is in the monoclinic crystal system
# The framework has been calculated to contain at least 10.0% void space
# The void calculation uses a probe of radius 1.32A, grid spacing 0.4
#
###############################################################################

data_IFUPAC
_chemical_formula_moiety         '(C144 H120 Eu8 F8 N8 O64)n'
_symmetry_cell_setting           triclinic
_symmetry_space_group_name_H-M   'P 1'
_symmetry_Int_Tables_number      1
_space_group_name_Hall           'P 1'
loop_
_symmetry_equiv_pos_site_id
_symmetry_equiv_pos_as_xyz
1 x,y,z
_cell_length_a                   24.6841(13)
_cell_length_b                   12.9554(7)
_cell_length_c                   14.6905(8)
_cell_angle_alpha                90
_cell_angle_beta                 96.6580(10)
_cell_angle_gamma                90
_cell_volume                     4666.23
loop_
_atom_site_label
_atom_site_type_symbol
_atom_site_fract_x
_atom_site_fract_y
_atom_site_fract_z
Eu1 Eu 0.327357(15) 0.79449(3) 0.03221(3)
O7 O 0.3737(4) 0.9410(9) 0.1112(8)
O8 O 0.3724(3) 0.7233(6) 0.1729(6)
C16 C 0.3563(5) 0.6916(9) 0.2413(8)
H7 H 0.3189 0.6949 0.2438
N1 N 0.3867(4) 0.6514(8) 0.3157(7)
C17 C 0.3617(5) 0.5983(9) 0.3850(8)
H8 H 0.3789 0.5323 0.3963
H9 H 0.3236 0.5885 0.3649
H10 H 0.3657 0.6383 0.4404
H11 H 0.387(5) 0.879(11) 0.137(9)
H12 H 0.376(6) 0.908(12) 0.081(9)
C18 C 0.4414(4) 0.6589(10) 0.3165(8)
H13 H 0.4556 0.5946 0.2970
H14 H 0.4577 0.6745 0.3775
H15 H 0.4497 0.7129 0.2756
O13 O 0.2743(2) 0.6441(4) 0.0375(4)
O14 O 0.2729(2) 0.8434(6) 0.1498(4)
F1 F 0.4127(5) 0.8082(7) 0.6731(11)
O1 O 0.2019(3) 0.4492(5) 0.5558(5)
O2 O 0.3053(3) 0.7431(5) 0.8779(4)
O3 O 0.6039(3) 0.6622(6) 0.5061(5)
O4 O 0.5876(3) 0.8218(5) 0.5366(6)
O5 O 0.2743(2) 0.3559(4) 0.5375(4)
O6 O 0.2271(2) 0.6566(6) 0.8502(4)
C1 C 0.4262(4) 0.6349(7) 0.6395(6)
C2 C 0.3708(3) 0.6042(7) 0.6627(6)
C3 C 0.3407(3) 0.5284(7) 0.6122(6)
H1 H 0.3562 0.4915 0.5675
C4 C 0.2864(3) 0.5078(7) 0.6290(6)
C5 C 0.2643(3) 0.5583(7) 0.6989(6)
H2 H 0.2283 0.5466 0.7088
C6 C 0.2966(3) 0.6270(7) 0.7543(5)
C7 C 0.3486(3) 0.6515(7) 0.7349(6)
H3 H 0.3689 0.7003 0.7705
C8 C 0.2520(4) 0.4320(7) 0.5708(6)
C9 C 0.2742(3) 0.6815(7) 0.8338(6)
C10 C 0.4622(4) 0.5643(9) 0.6126(9)
H4 H 0.4536 0.4945 0.6135
C11 C 0.5121(4) 0.5949(8) 0.5835(9)
H5 H 0.5363 0.5451 0.5670
C12 C 0.5251(4) 0.6955(7) 0.5793(6)
C13 C 0.4911(5) 0.7670(8) 0.6093(9)
H6 H 0.5001 0.8367 0.6095
C14 C 0.4428(5) 0.7349(8) 0.6396(9)
C15 C 0.5755(4) 0.7272(8) 0.5384(6)
Eu2 Eu 0.672643(15) 0.79449(3) 0.46779(3)
Eu3 Eu 0.172643(15) 0.29449(3) 0.46779(3)
Eu4 Eu 0.327357(15) 0.20551(3) 0.53221(3)
Eu5 Eu 0.172643(15) 0.70551(3) 0.96779(3)
O9 O 0.2981(3) 0.9492(5) 0.9442(5)
O10 O 0.3961(3) 0.6622(6) 0.9939(5)
O11 O 0.4124(3) 0.8218(5) 0.9634(6)
O12 O 0.2257(2) 0.8559(4) 0.9625(4)
Eu3_2 Eu 0.827357(15) 0.29449(3) 0.03221(3)
F1_2 F 0.5873(5) 0.8082(7) 0.8269(11)
O1_2 O 0.7981(3) 0.4492(5) 0.9442(5)
O2_2 O 0.6947(3) 0.7431(5) 0.6221(4)
O5_2 O 0.7257(2) 0.3559(4) 0.9625(4)
O6_2 O 0.7729(2) 0.6566(6) 0.6498(4)
O7_2 O 0.6263(4) 0.9410(9) 0.3888(8)
C1_2 C 0.5738(4) 0.6349(7) 0.8605(6)
C2_2 C 0.6292(3) 0.6042(7) 0.8373(6)
C3_2 C 0.6593(3) 0.5284(7) 0.8878(6)
H1_2 H 0.6438 0.4915 0.9325
C4_2 C 0.7136(3) 0.5078(7) 0.8710(6)
C5_2 C 0.7357(3) 0.5583(7) 0.8011(6)
H2_2 H 0.7717 0.5466 0.7912
C6_2 C 0.7034(3) 0.6270(7) 0.7457(5)
C7_2 C 0.6514(3) 0.6515(7) 0.7651(6)
H3_2 H 0.6311 0.7003 0.7295
C8_2 C 0.7480(4) 0.4320(7) 0.9292(6)
C9_2 C 0.7258(3) 0.6815(7) 0.6662(6)
C10_2 C 0.5378(4) 0.5643(9) 0.8874(9)
H4_2 H 0.5464 0.4945 0.8865
C11_2 C 0.4879(4) 0.5949(8) 0.9165(9)
H5_2 H 0.4637 0.5451 0.9330
C12_2 C 0.4749(4) 0.6955(7) 0.9207(6)
C13_2 C 0.5089(5) 0.7670(8) 0.8907(9)
H6_2 H 0.4999 0.8367 0.8905
C14_2 C 0.5572(5) 0.7349(8) 0.8604(9)
C15_2 C 0.4245(4) 0.7272(8) 0.9616(6)
O8_2 O 0.6276(3) 0.7233(6) 0.3271(6)
C16_2 C 0.6437(5) 0.6916(9) 0.2587(8)
H7_2 H 0.6811 0.6949 0.2562
N1_2 N 0.6133(4) 0.6514(8) 0.1843(7)
C17_2 C 0.6383(5) 0.5983(9) 0.1150(8)
H8_2 H 0.6211 0.5323 0.1037
H9_2 H 0.6764 0.5885 0.1351
H10_2 H 0.6343 0.6383 0.0596
H11_2 H 0.613(5) 0.879(11) 0.363(9)
H12_2 H 0.624(6) 0.908(12) 0.419(9)
C18_2 C 0.5586(4) 0.6589(10) 0.1835(8)
H13_2 H 0.5444 0.5946 0.2030
H14_2 H 0.5423 0.6745 0.1225
H15_2 H 0.5503 0.7129 0.2244
Eu4_2 Eu 0.672643(15) 0.20551(3) 0.96779(3)
Eu5_2 Eu 0.827357(15) 0.70551(3) 0.53221(3)
O9_2 O 0.7019(3) 0.9492(5) 0.5558(5)
O12_2 O 0.7743(2) 0.8559(4) 0.5375(4)
O13_2 O 0.7257(2) 0.6441(4) 0.4625(4)
O14_2 O 0.7271(2) 0.8434(6) 0.3502(4)
O3_2 O 0.1039(3) 0.1622(6) 0.5061(5)
O4_2 O 0.0876(3) 0.3218(5) 0.5366(6)
C11_3 C 0.0121(4) 0.0949(8) 0.5835(9)
H5_3 H 0.0363 0.0451 0.5670
C12_3 C 0.0251(4) 0.1955(7) 0.5793(6)
H6_3 H 0.0001 0.3367 0.6095
C15_3 C 0.0755(4) 0.2272(8) 0.5384(6)
O7_3 O 0.8737(4) 0.4410(9) 0.1112(8)
O8_3 O 0.8724(3) 0.2233(6) 0.1729(6)
C16_3 C 0.8563(5) 0.1916(9) 0.2413(8)
H7_3 H 0.8189 0.1949 0.2438
N1_3 N 0.8867(4) 0.1514(8) 0.3157(7)
C17_3 C 0.8617(5) 0.0983(9) 0.3850(8)
H8_3 H 0.8789 0.0323 0.3963
H9_3 H 0.8236 0.0885 0.3649
H10_3 H 0.8657 0.1383 0.4404
H11_3 H 0.887(5) 0.379(11) 0.137(9)
H12_3 H 0.876(6) 0.408(12) 0.081(9)
C18_3 C 0.9414(4) 0.1589(10) 0.3165(8)
H13_3 H 0.9556 0.0946 0.2970
H14_3 H 0.9577 0.1745 0.3775
H15_3 H 0.9497 0.2129 0.2756
O13_3 O 0.7743(2) 0.1441(4) 0.0375(4)
O14_3 O 0.7729(2) 0.3434(6) 0.1498(4)
F1_3 F 0.9127(5) 0.3082(7) 0.6731(11)
O2_3 O 0.8053(3) 0.2431(5) 0.8779(4)
O6_3 O 0.7271(2) 0.1566(6) 0.8502(4)
C1_3 C 0.9262(4) 0.1349(7) 0.6395(6)
C2_3 C 0.8708(3) 0.1042(7) 0.6627(6)
C3_3 C 0.8407(3) 0.0284(7) 0.6122(6)
C4_3 C 0.7864(3) 0.0078(7) 0.6290(6)
C5_3 C 0.7643(3) 0.0583(7) 0.6989(6)
H2_3 H 0.7283 0.0466 0.7088
C6_3 C 0.7966(3) 0.1270(7) 0.7543(5)
C7_3 C 0.8486(3) 0.1515(7) 0.7349(6)
H3_3 H 0.8689 0.2003 0.7705
C9_3 C 0.7742(3) 0.1815(7) 0.8338(6)
C10_3 C 0.9622(4) 0.0643(9) 0.6126(9)
C13_3 C 0.9911(5) 0.2670(8) 0.6093(9)
C14_3 C 0.9428(5) 0.2349(8) 0.6396(9)
O10_2 O 0.8961(3) 0.1622(6) 0.9939(5)
O11_2 O 0.9124(3) 0.3218(5) 0.9634(6)
H1_3 H 0.8562 0.9915 0.5675
C8_3 C 0.7520(4) 0.9320(7) 0.5708(6)
H4_3 H 0.9536 0.9945 0.6135
F1_4 F 0.0873(5) 0.3082(7) 0.8269(11)
O2_4 O 0.1947(3) 0.2431(5) 0.6221(4)
O6_4 O 0.2729(2) 0.1566(6) 0.6498(4)
O7_4 O 0.1263(4) 0.4410(9) 0.3888(8)
C1_4 C 0.0738(4) 0.1349(7) 0.8605(6)
C2_4 C 0.1292(3) 0.1042(7) 0.8373(6)
C3_4 C 0.1593(3) 0.0284(7) 0.8878(6)
C4_4 C 0.2136(3) 0.0078(7) 0.8710(6)
C5_4 C 0.2357(3) 0.0583(7) 0.8011(6)
H2_4 H 0.2717 0.0466 0.7912
C6_4 C 0.2034(3) 0.1270(7) 0.7457(5)
C7_4 C 0.1514(3) 0.1515(7) 0.7651(6)
H3_4 H 0.1311 0.2003 0.7295
C9_4 C 0.2258(3) 0.1815(7) 0.6662(6)
C10_4 C 0.0378(4) 0.0643(9) 0.8874(9)
C13_4 C 0.0089(5) 0.2670(8) 0.8907(9)
C14_4 C 0.0572(5) 0.2349(8) 0.8604(9)
O8_4 O 0.1276(3) 0.2233(6) 0.3271(6)
C16_4 C 0.1437(5) 0.1916(9) 0.2587(8)
H7_4 H 0.1811 0.1949 0.2562
N1_4 N 0.1133(4) 0.1514(8) 0.1843(7)
C17_4 C 0.1383(5) 0.0983(9) 0.1150(8)
H8_4 H 0.1211 0.0323 0.1037
H9_4 H 0.1764 0.0885 0.1351
H10_4 H 0.1343 0.1383 0.0596
H11_4 H 0.113(5) 0.379(11) 0.363(9)
H12_4 H 0.124(6) 0.408(12) 0.419(9)
C18_4 C 0.0586(4) 0.1589(10) 0.1835(8)
H13_4 H 0.0444 0.0946 0.2030
H14_4 H 0.0423 0.1745 0.1225
H15_4 H 0.0503 0.2129 0.2244
O13_4 O 0.2257(2) 0.1441(4) 0.4625(4)
O14_4 O 0.2271(2) 0.3434(6) 0.3502(4)
H1_4 H 0.1438 0.9915 0.9325
C8_4 C 0.2480(4) 0.9320(7) 0.9292(6)
H4_4 H 0.0464 0.9945 0.8865
C11_4 C 0.9879(4) 0.0949(8) 0.9165(9)
H5_4 H 0.9637 0.0451 0.9330
C12_4 C 0.9749(4) 0.1955(7) 0.9207(6)
H6_4 H 0.9999 0.3367 0.8905
C15_4 C 0.9245(4) 0.2272(8) 0.9616(6)
F1_5 F 0.5873(5) 0.1918(7) 0.3269(11)
O1_3 O 0.7981(3) 0.5508(5) 0.4442(5)
O2_5 O 0.6947(3) 0.2569(5) 0.1221(4)
O3_3 O 0.3961(3) 0.3378(6) 0.4939(5)
O4_3 O 0.4124(3) 0.1782(5) 0.4634(6)
C1_5 C 0.5738(4) 0.3651(7) 0.3605(6)
C2_5 C 0.6292(3) 0.3958(7) 0.3373(6)
C3_5 C 0.6593(3) 0.4716(7) 0.3878(6)
H1_5 H 0.6438 0.5085 0.4325
C4_5 C 0.7136(3) 0.4922(7) 0.3710(6)
C5_5 C 0.7357(3) 0.4417(7) 0.3011(6)
H2_5 H 0.7717 0.4534 0.2912
C6_5 C 0.7034(3) 0.3730(7) 0.2457(5)
C7_5 C 0.6514(3) 0.3485(7) 0.2651(6)
H3_5 H 0.6311 0.2997 0.2295
C8_5 C 0.7480(4) 0.5680(7) 0.4292(6)
C9_5 C 0.7258(3) 0.3185(7) 0.1662(6)
C10_5 C 0.5378(4) 0.4357(9) 0.3874(9)
H4_5 H 0.5464 0.5055 0.3865
C11_5 C 0.4879(4) 0.4051(8) 0.4165(9)
H5_5 H 0.4637 0.4549 0.4330
C12_5 C 0.4749(4) 0.3045(7) 0.4207(6)
C13_5 C 0.5089(5) 0.2330(8) 0.3907(9)
H6_5 H 0.4999 0.1633 0.3905
C14_5 C 0.5572(5) 0.2651(8) 0.3604(9)
C15_5 C 0.4245(4) 0.2728(8) 0.4616(6)
O9_3 O 0.7019(3) 0.0508(5) 0.0558(5)
O10_3 O 0.6039(3) 0.3378(6) 0.0061(5)
O11_3 O 0.5876(3) 0.1782(5) 0.0366(6)
O7_5 O 0.6263(4) 0.0590(9) 0.8888(8)
O8_5 O 0.6276(3) 0.2767(6) 0.8271(6)
C16_5 C 0.6437(5) 0.3084(9) 0.7587(8)
H7_5 H 0.6811 0.3051 0.7562
N1_5 N 0.6133(4) 0.3486(8) 0.6843(7)
C17_5 C 0.6383(5) 0.4017(9) 0.6150(8)
H8_5 H 0.6211 0.4677 0.6037
H9_5 H 0.6764 0.4115 0.6351
H10_5 H 0.6343 0.3617 0.5596
H11_5 H 0.613(5) 0.121(11) 0.863(9)
H12_5 H 0.624(6) 0.092(12) 0.919(9)
C18_5 C 0.5586(4) 0.3411(10) 0.6835(8)
H13_5 H 0.5444 0.4054 0.7030
H14_5 H 0.5423 0.3255 0.6225
H15_5 H 0.5503 0.2871 0.7244
F1_6 F 0.4127(5) 0.1918(7) 0.1731(11)
O1_4 O 0.2019(3) 0.5508(5) 0.0558(5)
O2_6 O 0.3053(3) 0.2569(5) 0.3779(4)
O7_6 O 0.3737(4) 0.0590(9) 0.6112(8)
C1_6 C 0.4262(4) 0.3651(7) 0.1395(6)
C2_6 C 0.3708(3) 0.3958(7) 0.1627(6)
C3_6 C 0.3407(3) 0.4716(7) 0.1122(6)
H1_6 H 0.3562 0.5085 0.0675
C4_6 C 0.2864(3) 0.4922(7) 0.1290(6)
C5_6 C 0.2643(3) 0.4417(7) 0.1989(6)
H2_6 H 0.2283 0.4534 0.2088
C6_6 C 0.2966(3) 0.3730(7) 0.2543(5)
C7_6 C 0.3486(3) 0.3485(7) 0.2349(6)
H3_6 H 0.3689 0.2997 0.2705
C8_6 C 0.2520(4) 0.5680(7) 0.0708(6)
C9_6 C 0.2742(3) 0.3185(7) 0.3338(6)
C10_6 C 0.4622(4) 0.4357(9) 0.1126(9)
H4_6 H 0.4536 0.5055 0.1135
C11_6 C 0.5121(4) 0.4051(8) 0.0835(9)
H5_6 H 0.5363 0.4549 0.0670
C12_6 C 0.5251(4) 0.3045(7) 0.0793(6)
C13_6 C 0.4911(5) 0.2330(8) 0.1093(9)
H6_6 H 0.5001 0.1633 0.1095
C14_6 C 0.4428(5) 0.2651(8) 0.1396(9)
C15_6 C 0.5755(4) 0.2728(8) 0.0384(6)
O8_6 O 0.3724(3) 0.2767(6) 0.6729(6)
C16_6 C 0.3563(5) 0.3084(9) 0.7413(8)
H7_6 H 0.3189 0.3051 0.7438
N1_6 N 0.3867(4) 0.3486(8) 0.8157(7)
C17_6 C 0.3617(5) 0.4017(9) 0.8850(8)
H8_6 H 0.3789 0.4677 0.8963
H9_6 H 0.3236 0.4115 0.8649
H10_6 H 0.3657 0.3617 0.9404
H11_6 H 0.387(5) 0.121(11) 0.637(9)
H12_6 H 0.376(6) 0.092(12) 0.581(9)
C18_6 C 0.4414(4) 0.3411(10) 0.8165(8)
H13_6 H 0.4556 0.4054 0.7970
H14_6 H 0.4577 0.3255 0.8775
H15_6 H 0.4497 0.2871 0.7756
O9_4 O 0.2981(3) 0.0508(5) 0.4442(5)
H1_7 H 0.1438 0.0085 0.4325
C8_7 C 0.2480(4) 0.0680(7) 0.4292(6)
H4_7 H 0.0464 0.0055 0.3865
F1_7 F 0.0873(5) 0.6918(7) 0.3269(11)
O2_7 O 0.1947(3) 0.7569(5) 0.1221(4)
C1_7 C 0.0738(4) 0.8651(7) 0.3605(6)
C2_7 C 0.1292(3) 0.8958(7) 0.3373(6)
C3_7 C 0.1593(3) 0.9716(7) 0.3878(6)
C4_7 C 0.2136(3) 0.9922(7) 0.3710(6)
C5_7 C 0.2357(3) 0.9417(7) 0.3011(6)
H2_7 H 0.2717 0.9534 0.2912
C6_7 C 0.2034(3) 0.8730(7) 0.2457(5)
C7_7 C 0.1514(3) 0.8485(7) 0.2651(6)
H3_7 H 0.1311 0.7997 0.2295
C9_7 C 0.2258(3) 0.8185(7) 0.1662(6)
C10_7 C 0.0378(4) 0.9357(9) 0.3874(9)
C13_7 C 0.0089(5) 0.7330(8) 0.3907(9)
C14_7 C 0.0572(5) 0.7651(8) 0.3604(9)
O10_4 O 0.1039(3) 0.8378(6) 0.0061(5)
O11_4 O 0.0876(3) 0.6782(5) 0.0366(6)
O7_7 O 0.1263(4) 0.5590(9) 0.8888(8)
O8_7 O 0.1276(3) 0.7767(6) 0.8271(6)
C16_7 C 0.1437(5) 0.8084(9) 0.7587(8)
H7_7 H 0.1811 0.8051 0.7562
N1_7 N 0.1133(4) 0.8486(8) 0.6843(7)
C17_7 C 0.1383(5) 0.9017(9) 0.6150(8)
H8_7 H 0.1211 0.9677 0.6037
H9_7 H 0.1764 0.9115 0.6351
H10_7 H 0.1343 0.8617 0.5596
H11_7 H 0.113(5) 0.621(11) 0.863(9)
H12_7 H 0.124(6) 0.592(12) 0.919(9)
C18_7 C 0.0586(4) 0.8411(10) 0.6835(8)
H13_7 H 0.0444 0.9054 0.7030
H14_7 H 0.0423 0.8255 0.6225
H15_7 H 0.0503 0.7871 0.7244
O3_4 O 0.8961(3) 0.8378(6) 0.4939(5)
O4_4 O 0.9124(3) 0.6782(5) 0.4634(6)
C11_7 C 0.9879(4) 0.9051(8) 0.4165(9)
H5_7 H 0.9637 0.9549 0.4330
C12_7 C 0.9749(4) 0.8045(7) 0.4207(6)
H6_7 H 0.9999 0.6633 0.3905
C15_7 C 0.9245(4) 0.7728(8) 0.4616(6)
C11_8 C 0.0121(4) 0.9051(8) 0.0835(9)
H5_8 H 0.0363 0.9549 0.0670
C12_8 C 0.0251(4) 0.8045(7) 0.0793(6)
H6_8 H 0.0001 0.6633 0.1095
C15_8 C 0.0755(4) 0.7728(8) 0.0384(6)
H1_8 H 0.8562 0.0085 0.0675
C8_8 C 0.7520(4) 0.0680(7) 0.0708(6)
H4_8 H 0.9536 0.0055 0.1135
F1_8 F 0.9127(5) 0.6918(7) 0.1731(11)
O2_8 O 0.8053(3) 0.7569(5) 0.3779(4)
O7_8 O 0.8737(4) 0.5590(9) 0.6112(8)
C1_8 C 0.9262(4) 0.8651(7) 0.1395(6)
C2_8 C 0.8708(3) 0.8958(7) 0.1627(6)
C3_8 C 0.8407(3) 0.9716(7) 0.1122(6)
C4_8 C 0.7864(3) 0.9922(7) 0.1290(6)
C5_8 C 0.7643(3) 0.9417(7) 0.1989(6)
H2_8 H 0.7283 0.9534 0.2088
C6_8 C 0.7966(3) 0.8730(7) 0.2543(5)
C7_8 C 0.8486(3) 0.8485(7) 0.2349(6)
H3_8 H 0.8689 0.7997 0.2705
C9_8 C 0.7742(3) 0.8185(7) 0.3338(6)
C10_8 C 0.9622(4) 0.9357(9) 0.1126(9)
C13_8 C 0.9911(5) 0.7330(8) 0.1093(9)
C14_8 C 0.9428(5) 0.7651(8) 0.1396(9)
O8_8 O 0.8724(3) 0.7767(6) 0.6729(6)
C16_8 C 0.8563(5) 0.8084(9) 0.7413(8)
H7_8 H 0.8189 0.8051 0.7438
N1_8 N 0.8867(4) 0.8486(8) 0.8157(7)
C17_8 C 0.8617(5) 0.9017(9) 0.8850(8)
H8_8 H 0.8789 0.9677 0.8963
H9_8 H 0.8236 0.9115 0.8649
H10_8 H 0.8657 0.8617 0.9404
H11_8 H 0.887(5) 0.621(11) 0.637(9)
H12_8 H 0.876(6) 0.592(12) 0.581(9)
C18_8 C 0.9414(4) 0.8411(10) 0.8165(8)
H13_8 H 0.9556 0.9054 0.7970
H14_8 H 0.9577 0.8255 0.8775
H15_8 H 0.9497 0.7871 0.7756
loop_
_geom_bond_atom_site_label_1
_geom_bond_atom_site_label_2
_geom_bond_site_symmetry_1
_geom_bond_site_symmetry_2
O7 Eu1 1_555 1_555
O8 Eu1 1_555 1_555
C16 O8 1_555 1_555
H7 C16 1_555 1_555
N1 C16 1_555 1_555
C17 N1 1_555 1_555
H8 C17 1_555 1_555
H9 C17 1_555 1_555
H10 C17 1_555 1_555
H11 O7 1_555 1_555
H12 O7 1_555 1_555
C18 N1 1_555 1_555
H13 C18 1_555 1_555
H14 C18 1_555 1_555
H15 C18 1_555 1_555
O13 Eu1 1_555 1_555
O14 Eu1 1_555 1_555
F1 C14 1_555 1_555
O1 C8 1_555 1_555
O2 C9 1_555 1_555
O3 C15 1_555 1_555
O4 C15 1_555 1_555
O5 C8 1_555 1_555
O6 C9 1_555 1_555
C1 C2 1_555 1_555
C2 C3 1_555 1_555
C3 H1 1_555 1_555
C4 C3 1_555 1_555
C5 C4 1_555 1_555
H2 C5 1_555 1_555
C6 C5 1_555 1_555
C7 C2 1_555 1_555
H3 C7 1_555 1_555
C8 C4 1_555 1_555
C9 C6 1_555 1_555
C10 C1 1_555 1_555
H4 C10 1_555 1_555
C11 C10 1_555 1_555
H5 C11 1_555 1_555
C12 C11 1_555 1_555
C13 C12 1_555 1_555
H6 C13 1_555 1_555
C14 C1 1_555 1_555
C15 C12 1_555 1_555
Eu2 O3 1_555 1_555
Eu3 O1 1_555 1_555
Eu4 O5 1_555 1_555
Eu5 O6 1_555 1_555
O4 Eu2 1_555 1_555
O5 Eu3 1_555 1_555
C6 C7 1_555 1_555
C13 C14 1_555 1_555
Eu5 O12 1_555 1_555
Eu2 O2_2 1_555 1_555
F1_2 C14_2 1_555 1_555
O1_2 C8_2 1_555 1_555
O2_2 C9_2 1_555 1_555
O10 C15_2 1_555 1_555
O11 C15_2 1_555 1_555
O5_2 C8_2 1_555 1_555
O6_2 C9_2 1_555 1_555
O7_2 Eu2 1_555 1_555
C1_2 C2_2 1_555 1_555
C2_2 C3_2 1_555 1_555
C3_2 H1_2 1_555 1_555
C4_2 C3_2 1_555 1_555
C5_2 C4_2 1_555 1_555
H2_2 C5_2 1_555 1_555
C6_2 C5_2 1_555 1_555
C7_2 C2_2 1_555 1_555
H3_2 C7_2 1_555 1_555
C8_2 C4_2 1_555 1_555
C9_2 C6_2 1_555 1_555
C10_2 C1_2 1_555 1_555
H4_2 C10_2 1_555 1_555
C11_2 C10_2 1_555 1_555
H5_2 C11_2 1_555 1_555
C12_2 C11_2 1_555 1_555
C13_2 C12_2 1_555 1_555
H6_2 C13_2 1_555 1_555
C14_2 C1_2 1_555 1_555
C15_2 C12_2 1_555 1_555
O8_2 Eu2 1_555 1_555
C16_2 O8_2 1_555 1_555
H7_2 C16_2 1_555 1_555
N1_2 C16_2 1_555 1_555
C17_2 N1_2 1_555 1_555
H8_2 C17_2 1_555 1_555
H9_2 C17_2 1_555 1_555
H10_2 C17_2 1_555 1_555
H11_2 O7_2 1_555 1_555
H12_2 O7_2 1_555 1_555
C18_2 N1_2 1_555 1_555
H13_2 C18_2 1_555 1_555
H14_2 C18_2 1_555 1_555
H15_2 C18_2 1_555 1_555
Eu4_2 O5_2 1_555 1_555
Eu5_2 O6_2 1_555 1_555
O9_2 Eu2 1_555 1_555
O12_2 Eu2 1_555 1_555
O13_2 Eu2 1_555 1_555
O14_2 Eu2 1_555 1_555
C6_2 C7_2 1_555 1_555
C13_2 C14_2 1_555 1_555
Eu5_2 O12_2 1_555 1_555
Eu5_2 O13_2 1_555 1_555
O3_2 C15_3 1_555 1_555
O4_2 C15_3 1_555 1_555
H5_3 C11_3 1_555 1_555
C12_3 C11_3 1_555 1_555
C15_3 C12_3 1_555 1_555
Eu3 O3_2 1_555 1_555
O4_2 Eu3 1_555 1_555
O7_3 Eu3_2 1_555 1_555
O8_3 Eu3_2 1_555 1_555
C16_3 O8_3 1_555 1_555
H7_3 C16_3 1_555 1_555
N1_3 C16_3 1_555 1_555
C17_3 N1_3 1_555 1_555
H8_3 C17_3 1_555 1_555
H9_3 C17_3 1_555 1_555
H10_3 C17_3 1_555 1_555
H11_3 O7_3 1_555 1_555
H12_3 O7_3 1_555 1_555
C18_3 N1_3 1_555 1_555
H13_3 C18_3 1_555 1_555
H14_3 C18_3 1_555 1_555
H15_3 C18_3 1_555 1_555
O13_3 Eu3_2 1_555 1_555
O14_3 Eu3_2 1_555 1_555
F1_3 C14_3 1_555 1_555
O2_3 C9_3 1_555 1_555
O6_3 C9_3 1_555 1_555
C1_3 C2_3 1_555 1_555
C2_3 C3_3 1_555 1_555
C4_3 C3_3 1_555 1_555
C5_3 C4_3 1_555 1_555
H2_3 C5_3 1_555 1_555
C6_3 C5_3 1_555 1_555
C7_3 C2_3 1_555 1_555
H3_3 C7_3 1_555 1_555
C9_3 C6_3 1_555 1_555
C10_3 C1_3 1_555 1_555
C14_3 C1_3 1_555 1_555
Eu4_2 O6_3 1_555 1_555
C6_3 C7_3 1_555 1_555
C13_3 C14_3 1_555 1_555
O9_2 C8_3 1_555 1_555
O12_2 C8_3 1_555 1_555
Eu3 O2_4 1_555 1_555
F1_4 C14_4 1_555 1_555
O2_4 C9_4 1_555 1_555
O6_4 C9_4 1_555 1_555
O7_4 Eu3 1_555 1_555
C1_4 C2_4 1_555 1_555
C2_4 C3_4 1_555 1_555
C4_4 C3_4 1_555 1_555
C5_4 C4_4 1_555 1_555
H2_4 C5_4 1_555 1_555
C6_4 C5_4 1_555 1_555
C7_4 C2_4 1_555 1_555
H3_4 C7_4 1_555 1_555
C9_4 C6_4 1_555 1_555
C10_4 C1_4 1_555 1_555
C14_4 C1_4 1_555 1_555
O8_4 Eu3 1_555 1_555
C16_4 O8_4 1_555 1_555
H7_4 C16_4 1_555 1_555
N1_4 C16_4 1_555 1_555
C17_4 N1_4 1_555 1_555
H8_4 C17_4 1_555 1_555
H9_4 C17_4 1_555 1_555
H10_4 C17_4 1_555 1_555
H11_4 O7_4 1_555 1_555
H12_4 O7_4 1_555 1_555
C18_4 N1_4 1_555 1_555
H13_4 C18_4 1_555 1_555
H14_4 C18_4 1_555 1_555
H15_4 C18_4 1_555 1_555
Eu4 O6_4 1_555 1_555
O13_4 Eu3 1_555 1_555
O14_4 Eu3 1_555 1_555
C6_4 C7_4 1_555 1_555
C13_4 C14_4 1_555 1_555
Eu4 O13_4 1_555 1_555
O9 C8_4 1_555 1_555
O12 C8_4 1_555 1_555
O10_2 C15_4 1_555 1_555
O11_2 C15_4 1_555 1_555
H5_4 C11_4 1_555 1_555
C12_4 C11_4 1_555 1_555
C15_4 C12_4 1_555 1_555
F1_5 C14_5 1_555 1_555
O1_3 C8_5 1_555 1_555
O2_5 C9_5 1_555 1_555
O3_3 C15_5 1_555 1_555
O4_3 C15_5 1_555 1_555
O13_2 C8_5 1_555 1_555
O14_3 C9_5 1_555 1_555
C1_5 C2_5 1_555 1_555
C2_5 C3_5 1_555 1_555
C3_5 H1_5 1_555 1_555
C4_5 C3_5 1_555 1_555
C5_5 C4_5 1_555 1_555
H2_5 C5_5 1_555 1_555
C6_5 C5_5 1_555 1_555
C7_5 C2_5 1_555 1_555
H3_5 C7_5 1_555 1_555
C8_5 C4_5 1_555 1_555
C9_5 C6_5 1_555 1_555
C10_5 C1_5 1_555 1_555
H4_5 C10_5 1_555 1_555
C11_5 C10_5 1_555 1_555
H5_5 C11_5 1_555 1_555
C12_5 C11_5 1_555 1_555
C13_5 C12_5 1_555 1_555
H6_5 C13_5 1_555 1_555
C14_5 C1_5 1_555 1_555
C15_5 C12_5 1_555 1_555
Eu4 O3_3 1_555 1_555
Eu5_2 O1_3 1_555 1_555
O4_3 Eu4 1_555 1_555
C6_5 C7_5 1_555 1_555
C13_5 C14_5 1_555 1_555
O7_5 Eu4_2 1_555 1_555
O8_5 Eu4_2 1_555 1_555
C16_5 O8_5 1_555 1_555
H7_5 C16_5 1_555 1_555
N1_5 C16_5 1_555 1_555
C17_5 N1_5 1_555 1_555
H8_5 C17_5 1_555 1_555
H9_5 C17_5 1_555 1_555
H10_5 C17_5 1_555 1_555
H11_5 O7_5 1_555 1_555
H12_5 O7_5 1_555 1_555
C18_5 N1_5 1_555 1_555
H13_5 C18_5 1_555 1_555
H14_5 C18_5 1_555 1_555
H15_5 C18_5 1_555 1_555
Eu4 O2_6 1_555 1_555
F1_6 C14_6 1_555 1_555
O1_4 C8_6 1_555 1_555
O2_6 C9_6 1_555 1_555
O10_3 C15_6 1_555 1_555
O11_3 C15_6 1_555 1_555
O13 C8_6 1_555 1_555
O14_4 C9_6 1_555 1_555
O7_6 Eu4 1_555 1_555
C1_6 C2_6 1_555 1_555
C2_6 C3_6 1_555 1_555
C3_6 H1_6 1_555 1_555
C4_6 C3_6 1_555 1_555
C5_6 C4_6 1_555 1_555
H2_6 C5_6 1_555 1_555
C6_6 C5_6 1_555 1_555
C7_6 C2_6 1_555 1_555
H3_6 C7_6 1_555 1_555
C8_6 C4_6 1_555 1_555
C9_6 C6_6 1_555 1_555
C10_6 C1_6 1_555 1_555
H4_6 C10_6 1_555 1_555
C11_6 C10_6 1_555 1_555
H5_6 C11_6 1_555 1_555
C12_6 C11_6 1_555 1_555
C13_6 C12_6 1_555 1_555
H6_6 C13_6 1_555 1_555
C14_6 C1_6 1_555 1_555
C15_6 C12_6 1_555 1_555
O8_6 Eu4 1_555 1_555
C16_6 O8_6 1_555 1_555
H7_6 C16_6 1_555 1_555
N1_6 C16_6 1_555 1_555
C17_6 N1_6 1_555 1_555
H8_6 C17_6 1_555 1_555
H9_6 C17_6 1_555 1_555
H10_6 C17_6 1_555 1_555
H11_6 O7_6 1_555 1_555
H12_6 O7_6 1_555 1_555
C18_6 N1_6 1_555 1_555
H13_6 C18_6 1_555 1_555
H14_6 C18_6 1_555 1_555
H15_6 C18_6 1_555 1_555
O9_4 Eu4 1_555 1_555
C6_6 C7_6 1_555 1_555
C13_6 C14_6 1_555 1_555
O9_4 C8_7 1_555 1_555
O13_4 C8_7 1_555 1_555
F1_7 C14_7 1_555 1_555
O2_7 C9_7 1_555 1_555
O14 C9_7 1_555 1_555
C1_7 C2_7 1_555 1_555
C2_7 C3_7 1_555 1_555
C4_7 C3_7 1_555 1_555
C5_7 C4_7 1_555 1_555
H2_7 C5_7 1_555 1_555
C6_7 C5_7 1_555 1_555
C7_7 C2_7 1_555 1_555
H3_7 C7_7 1_555 1_555
C9_7 C6_7 1_555 1_555
C10_7 C1_7 1_555 1_555
C14_7 C1_7 1_555 1_555
C6_7 C7_7 1_555 1_555
C13_7 C14_7 1_555 1_555
O7_7 Eu5 1_555 1_555
O8_7 Eu5 1_555 1_555
C16_7 O8_7 1_555 1_555
H7_7 C16_7 1_555 1_555
N1_7 C16_7 1_555 1_555
C17_7 N1_7 1_555 1_555
H8_7 C17_7 1_555 1_555
H9_7 C17_7 1_555 1_555
H10_7 C17_7 1_555 1_555
H11_7 O7_7 1_555 1_555
H12_7 O7_7 1_555 1_555
C18_7 N1_7 1_555 1_555
H13_7 C18_7 1_555 1_555
H14_7 C18_7 1_555 1_555
H15_7 C18_7 1_555 1_555
O3_4 C15_7 1_555 1_555
O4_4 C15_7 1_555 1_555
H5_7 C11_7 1_555 1_555
C12_7 C11_7 1_555 1_555
C15_7 C12_7 1_555 1_555
Eu5_2 O3_4 1_555 1_555
O4_4 Eu5_2 1_555 1_555
O10_4 C15_8 1_555 1_555
O11_4 C15_8 1_555 1_555
H5_8 C11_8 1_555 1_555
C12_8 C11_8 1_555 1_555
C15_8 C12_8 1_555 1_555
O9_3 C8_8 1_555 1_555
O13_3 C8_8 1_555 1_555
Eu5_2 O2_8 1_555 1_555
F1_8 C14_8 1_555 1_555
O2_8 C9_8 1_555 1_555
O14_2 C9_8 1_555 1_555
O7_8 Eu5_2 1_555 1_555
C1_8 C2_8 1_555 1_555
C2_8 C3_8 1_555 1_555
C4_8 C3_8 1_555 1_555
C5_8 C4_8 1_555 1_555
H2_8 C5_8 1_555 1_555
C6_8 C5_8 1_555 1_555
C7_8 C2_8 1_555 1_555
H3_8 C7_8 1_555 1_555
C9_8 C6_8 1_555 1_555
C10_8 C1_8 1_555 1_555
C14_8 C1_8 1_555 1_555
O8_8 Eu5_2 1_555 1_555
C16_8 O8_8 1_555 1_555
H7_8 C16_8 1_555 1_555
N1_8 C16_8 1_555 1_555
C17_8 N1_8 1_555 1_555
H8_8 C17_8 1_555 1_555
H9_8 C17_8 1_555 1_555
H10_8 C17_8 1_555 1_555
H11_8 O7_8 1_555 1_555
H12_8 O7_8 1_555 1_555
C18_8 N1_8 1_555 1_555
H13_8 C18_8 1_555 1_555
H14_8 C18_8 1_555 1_555
H15_8 C18_8 1_555 1_555
C6_8 C7_8 1_555 1_555
C13_8 C14_8 1_555 1_555

#END
