
###############################################################################
#
# This file contains modified crystal structure data generated from the
# MOF subset of the Cambridge Structural Database (CSD) v543 
# hosted by the Cambridge Crystallographic Data Centre (CCDC).
#
# This work is licensed under the Creative Commons
# Attribution-NonCommercial-ShareAlike 4.0 International License.
# To view a copy of this license, visit
# http://creativecommons.org/licenses/by-nc-sa/4.0/
# or send a letter to
# Creative Commons, PO Box 1866, Mountain View, CA 94042, USA.
#
# CIF created using the CSD Python API on 29 September 2022
# The structure has been converted into the P1 space group
# The structure has a 3D framework
# The original CSD entry IGAGAA is in the orthorhombic crystal system
# The framework has been calculated to contain at least 10.0% void space
# The void calculation uses a probe of radius 1.32A, grid spacing 0.4
# The framework is charged, counterions have been retained in the structure
#
###############################################################################

data_IGAGAA
_chemical_formula_moiety         '(C192 H192 Co40 N160 O138 8-)n'
_symmetry_cell_setting           triclinic
_symmetry_space_group_name_H-M   'P 1'
_symmetry_Int_Tables_number      1
_space_group_name_Hall           'P 1'
loop_
_symmetry_equiv_pos_site_id
_symmetry_equiv_pos_as_xyz
1 x,y,z
_cell_length_a                   15.6139(8)
_cell_length_b                   18.3439(11)
_cell_length_c                   34.336(3)
_cell_angle_alpha                90
_cell_angle_beta                 90
_cell_angle_gamma                90
_cell_volume                     9834.51
loop_
_atom_site_label
_atom_site_type_symbol
_atom_site_fract_x
_atom_site_fract_y
_atom_site_fract_z
O10 O 0.0093(2) 0.4017(2) 0.56220(13)
Co1 Co 0.50379(5) 0.61040(4) 0.48158(2)
Co2 Co 0.8750 0.3750 0.56079(3)
N1 N 0.6760(3) 0.5568(3) 0.50860(15)
O1 O 0.8323(3) 0.5892(2) 0.52589(14)
C1 C 0.7201(4) 0.5055(3) 0.52759(18)
C2 C 0.8093(4) 0.5272(3) 0.53810(19)
O2 O 0.7407(2) 0.3483(2) 0.56220(13)
O3 O 0.6002(3) 0.3416(2) 0.55570(13)
N2 N 0.5880(3) 0.4692(2) 0.52115(15)
O4 O 0.8543(3) 0.4873(2) 0.55976(14)
C3 C 0.6700(4) 0.3738(3) 0.55281(17)
N3 N 0.5957(3) 0.5348(2) 0.50529(15)
C4 C 0.6645(3) 0.4488(3) 0.53534(18)
N4 N 0.8750 0.3750 0.6209(2)
O5 O 0.8750 0.3750 0.5007(2)
N5 N 0.8310(3) 0.3802(3) 0.68250(15)
C5 C 0.8093(4) 0.3834(3) 0.64594(17)
H1 H 0.7531 0.3909 0.6378
H2 H 0.843(4) 0.353(4) 0.4841(16)
N6 N 0.9190(3) 0.3698(3) 0.68250(15)
C6 C 0.9407(4) 0.3666(3) 0.64594(17)
H3 H 0.9969 0.3591 0.6378
H4 H 0.907(4) 0.397(4) 0.4841(16)
Co3 Co 0.74621(5) 0.63960(4) 0.48158(2)
N7 N 0.5740(3) 0.6932(3) 0.50860(15)
O6 O 0.4177(3) 0.6608(2) 0.52589(14)
C7 C 0.5299(4) 0.7445(3) 0.52759(18)
C8 C 0.4407(4) 0.7228(3) 0.53810(19)
O7 O 0.5093(2) 0.9017(2) 0.56220(13)
O8 O 0.6498(3) 0.9084(2) 0.55570(13)
N8 N 0.6620(3) 0.7808(2) 0.52115(15)
O9 O 0.3957(3) 0.7627(2) 0.55976(14)
C9 C 0.5800(4) 0.8762(3) 0.55281(17)
N9 N 0.6543(3) 0.7152(2) 0.50529(15)
C10 C 0.5855(3) 0.8012(3) 0.53534(18)
Co4 Co 0.49621(5) 0.38960(4) 0.51842(2)
Co5 Co 0.99621(5) 0.36040(4) 0.73158(2)
Co6 Co 0.75379(5) 0.38960(4) 0.73158(2)
Co7 Co 0.75379(5) 0.86040(4) 0.51842(2)
Co8 Co 0.3750 0.8750 0.56079(3)
O11 O 0.3998(3) 0.6584(2) 0.44430(13)
O12 O 0.8502(3) 0.5916(2) 0.44430(13)
N10 N 0.4120(3) 0.5308(2) 0.47885(15)
N11 N 0.8380(3) 0.7192(2) 0.47885(15)
O13 O 0.8957(3) 0.2627(2) 0.55976(14)
N12 N 0.5810(3) 0.6198(3) 0.43250(15)
N13 N 0.6690(3) 0.6302(3) 0.43250(15)
N4_2 N 0.3750 0.8750 0.6209(2)
O5_2 O 0.3750 0.8750 0.5007(2)
N5_2 N 0.4190(3) 0.8698(3) 0.68250(15)
C5_2 C 0.4407(4) 0.8666(3) 0.64594(17)
H1_2 H 0.4969 0.8591 0.6378
H2_2 H 0.407(4) 0.897(4) 0.4841(16)
N6_2 N 0.3310(3) 0.8802(3) 0.68250(15)
C6_2 C 0.3093(4) 0.8834(3) 0.64594(17)
H3_2 H 0.2531 0.8909 0.6378
H4_2 H 0.343(4) 0.853(4) 0.4841(16)
Co5_2 Co 0.25379(5) 0.88960(4) 0.73158(2)
Co6_2 Co 0.49621(5) 0.86040(4) 0.73158(2)
O10_2 O 0.2407(2) 0.8483(2) 0.56220(13)
O13_2 O 0.3543(3) 0.9873(2) 0.55976(14)
O10_3 O 0.0093(2) 0.8483(2) 0.68780(13)
Co1_2 Co 0.50379(5) 0.63960(4) 0.76842(2)
Co2_2 Co 0.8750 0.8750 0.68921(3)
N1_2 N 0.6760(3) 0.6932(3) 0.74140(15)
O1_2 O 0.8323(3) 0.6608(2) 0.72411(14)
C1_2 C 0.7201(4) 0.7445(3) 0.72241(18)
C2_2 C 0.8093(4) 0.7228(3) 0.71190(19)
O2_2 O 0.7407(2) 0.9017(2) 0.68780(13)
O3_2 O 0.6002(3) 0.9084(2) 0.69430(13)
N2_2 N 0.5880(3) 0.7808(2) 0.72885(15)
O4_2 O 0.8543(3) 0.7627(2) 0.69024(14)
C3_2 C 0.6700(4) 0.8762(3) 0.69719(17)
N3_2 N 0.5957(3) 0.7152(2) 0.74471(15)
C4_2 C 0.6645(3) 0.8012(3) 0.71466(18)
N4_3 N 0.8750 0.8750 0.6291(2)
O5_3 O 0.8750 0.8750 0.7493(2)
N5_3 N 0.8310(3) 0.8698(3) 0.56750(15)
C5_3 C 0.8093(4) 0.8666(3) 0.60406(17)
H1_3 H 0.7531 0.8591 0.6122
H2_3 H 0.843(4) 0.897(4) 0.7659(16)
N6_3 N 0.9190(3) 0.8802(3) 0.56750(15)
C6_3 C 0.9407(4) 0.8834(3) 0.60406(17)
H3_3 H 0.9969 0.8909 0.6122
H4_3 H 0.907(4) 0.853(4) 0.7659(16)
Co3_2 Co 0.74621(5) 0.61040(4) 0.76842(2)
N7_2 N 0.5740(3) 0.5568(3) 0.74140(15)
O6_2 O 0.4177(3) 0.5892(2) 0.72411(14)
C7_2 C 0.5299(4) 0.5055(3) 0.72241(18)
C8_2 C 0.4407(4) 0.5272(3) 0.71190(19)
O7_2 O 0.5093(2) 0.3483(2) 0.68780(13)
O8_2 O 0.6498(3) 0.3416(2) 0.69430(13)
N8_2 N 0.6620(3) 0.4692(2) 0.72885(15)
O9_2 O 0.3957(3) 0.4873(2) 0.69024(14)
C9_2 C 0.5800(4) 0.3738(3) 0.69719(17)
N9_2 N 0.6543(3) 0.5348(2) 0.74471(15)
C10_2 C 0.5855(3) 0.4488(3) 0.71466(18)
Co5_3 Co 0.99621(5) 0.88960(4) 0.51842(2)
Co8_2 Co 0.3750 0.3750 0.68921(3)
O11_2 O 0.3998(3) 0.5916(2) 0.80570(13)
O12_2 O 0.8502(3) 0.6584(2) 0.80570(13)
N10_2 N 0.4120(3) 0.7192(2) 0.77115(15)
N11_2 N 0.8380(3) 0.5308(2) 0.77115(15)
O13_3 O 0.8957(3) 0.9873(2) 0.69024(14)
N12_2 N 0.5810(3) 0.6302(3) 0.81750(15)
N13_2 N 0.6690(3) 0.6198(3) 0.81750(15)
N4_4 N 0.3750 0.3750 0.6291(2)
O5_4 O 0.3750 0.3750 0.7493(2)
N5_4 N 0.4190(3) 0.3802(3) 0.56750(15)
C5_4 C 0.4407(4) 0.3834(3) 0.60406(17)
H1_4 H 0.4969 0.3909 0.6122
H2_4 H 0.407(4) 0.353(4) 0.7659(16)
N6_4 N 0.3310(3) 0.3698(3) 0.56750(15)
C6_4 C 0.3093(4) 0.3666(3) 0.60406(17)
H3_4 H 0.2531 0.3591 0.6122
H4_4 H 0.343(4) 0.397(4) 0.7659(16)
Co5_4 Co 0.25379(5) 0.36040(4) 0.51842(2)
O10_4 O 0.2407(2) 0.4017(2) 0.68780(13)
O13_4 O 0.3543(3) 0.2627(2) 0.69024(14)
O10_5 O 0.0093(2) 0.9017(2) 0.06220(13)
N1_3 N 0.6760(3) 0.0568(3) 0.00860(15)
O1_3 O 0.8323(3) 0.0892(2) 0.02589(14)
C1_3 C 0.7201(4) 0.0055(3) 0.02759(18)
C2_3 C 0.8093(4) 0.0272(3) 0.03810(19)
N3_3 N 0.5957(3) 0.0348(2) 0.00529(15)
N7_3 N 0.5740(3) 0.1932(3) 0.00860(15)
O6_3 O 0.4177(3) 0.1608(2) 0.02589(14)
C7_3 C 0.5299(4) 0.2445(3) 0.02759(18)
C8_3 C 0.4407(4) 0.2228(3) 0.03810(19)
O7_3 O 0.5093(2) 0.4017(2) 0.06220(13)
O8_3 O 0.6498(3) 0.4084(2) 0.05570(13)
N8_3 N 0.6620(3) 0.2808(2) 0.02115(15)
O9_3 O 0.3957(3) 0.2627(2) 0.05976(14)
C9_3 C 0.5800(4) 0.3762(3) 0.05281(17)
N9_3 N 0.6543(3) 0.2152(2) 0.00529(15)
C10_3 C 0.5855(3) 0.3012(3) 0.03534(18)
Co7_2 Co 0.75379(5) 0.36040(4) 0.01842(2)
Co8_3 Co 0.3750 0.3750 0.06079(3)
Co1_3 Co 0.50379(5) 0.11040(4) 0.98158(2)
Co3_3 Co 0.74621(5) 0.13960(4) 0.98158(2)
O11_3 O 0.3998(3) 0.1584(2) 0.94430(13)
O12_3 O 0.8502(3) 0.0916(2) 0.94430(13)
N10_3 N 0.4120(3) 0.0308(2) 0.97885(15)
N11_3 N 0.8380(3) 0.2192(2) 0.97885(15)
N12_3 N 0.5810(3) 0.1198(3) 0.93250(15)
N13_3 N 0.6690(3) 0.1302(3) 0.93250(15)
Co2_3 Co 0.8750 0.8750 0.06079(3)
O2_3 O 0.7407(2) 0.8483(2) 0.06220(13)
O3_3 O 0.6002(3) 0.8416(2) 0.05570(13)
N2_3 N 0.5880(3) 0.9692(2) 0.02115(15)
O4_3 O 0.8543(3) 0.9873(2) 0.05976(14)
C3_3 C 0.6700(4) 0.8738(3) 0.05281(17)
C4_3 C 0.6645(3) 0.9488(3) 0.03534(18)
N4_5 N 0.8750 0.8750 0.1209(2)
O5_5 O 0.8750 0.8750 0.0007(2)
N5_5 N 0.8310(3) 0.8802(3) 0.18250(15)
C5_5 C 0.8093(4) 0.8834(3) 0.14594(17)
H1_5 H 0.7531 0.8909 0.1378
N6_5 N 0.9190(3) 0.8698(3) 0.18250(15)
C6_5 C 0.9407(4) 0.8666(3) 0.14594(17)
H3_5 H 0.9969 0.8591 0.1378
Co4_2 Co 0.49621(5) 0.88960(4) 0.01842(2)
Co5_5 Co 0.99621(5) 0.86040(4) 0.23158(2)
Co6_3 Co 0.75379(5) 0.88960(4) 0.23158(2)
O13_5 O 0.8957(3) 0.7627(2) 0.05976(14)
H2_5 H 0.843(4) 0.853(4) 0.9841(16)
H4_5 H 0.907(4) 0.897(4) 0.9841(16)
N4_6 N 0.3750 0.3750 0.1209(2)
O5_6 O 0.3750 0.3750 0.0007(2)
N5_6 N 0.4190(3) 0.3698(3) 0.18250(15)
C5_6 C 0.4407(4) 0.3666(3) 0.14594(17)
H1_6 H 0.4969 0.3591 0.1378
N6_6 N 0.3310(3) 0.3802(3) 0.18250(15)
C6_6 C 0.3093(4) 0.3834(3) 0.14594(17)
H3_6 H 0.2531 0.3909 0.1378
Co5_6 Co 0.25379(5) 0.38960(4) 0.23158(2)
Co6_4 Co 0.49621(5) 0.36040(4) 0.23158(2)
O10_6 O 0.2407(2) 0.3483(2) 0.06220(13)
O13_6 O 0.3543(3) 0.4873(2) 0.05976(14)
H2_6 H 0.407(4) 0.397(4) 0.9841(16)
H4_6 H 0.343(4) 0.353(4) 0.9841(16)
O10_7 O 0.0093(2) 0.3483(2) 0.18780(13)
Co1_4 Co 0.50379(5) 0.13960(4) 0.26842(2)
Co2_4 Co 0.8750 0.3750 0.18921(3)
N1_4 N 0.6760(3) 0.1932(3) 0.24140(15)
O1_4 O 0.8323(3) 0.1608(2) 0.22411(14)
C1_4 C 0.7201(4) 0.2445(3) 0.22241(18)
C2_4 C 0.8093(4) 0.2228(3) 0.21190(19)
O2_4 O 0.7407(2) 0.4017(2) 0.18780(13)
O3_4 O 0.6002(3) 0.4084(2) 0.19430(13)
N2_4 N 0.5880(3) 0.2808(2) 0.22885(15)
O4_4 O 0.8543(3) 0.2627(2) 0.19024(14)
C3_4 C 0.6700(4) 0.3762(3) 0.19719(17)
N3_4 N 0.5957(3) 0.2152(2) 0.24471(15)
C4_4 C 0.6645(3) 0.3012(3) 0.21466(18)
N4_7 N 0.8750 0.3750 0.1291(2)
O5_7 O 0.8750 0.3750 0.2493(2)
N5_7 N 0.8310(3) 0.3698(3) 0.06750(15)
C5_7 C 0.8093(4) 0.3666(3) 0.10406(17)
H1_7 H 0.7531 0.3591 0.1122
H2_7 H 0.843(4) 0.397(4) 0.2659(16)
N6_7 N 0.9190(3) 0.3802(3) 0.06750(15)
C6_7 C 0.9407(4) 0.3834(3) 0.10406(17)
H3_7 H 0.9969 0.3909 0.1122
H4_7 H 0.907(4) 0.353(4) 0.2659(16)
Co3_4 Co 0.74621(5) 0.11040(4) 0.26842(2)
N7_4 N 0.5740(3) 0.0568(3) 0.24140(15)
O6_4 O 0.4177(3) 0.0892(2) 0.22411(14)
C7_4 C 0.5299(4) 0.0055(3) 0.22241(18)
C8_4 C 0.4407(4) 0.0272(3) 0.21190(19)
N9_4 N 0.6543(3) 0.0348(2) 0.24471(15)
Co5_7 Co 0.99621(5) 0.38960(4) 0.01842(2)
O11_4 O 0.3998(3) 0.0916(2) 0.30570(13)
O12_4 O 0.8502(3) 0.1584(2) 0.30570(13)
N10_4 N 0.4120(3) 0.2192(2) 0.27115(15)
N11_4 N 0.8380(3) 0.0308(2) 0.27115(15)
O13_7 O 0.8957(3) 0.4873(2) 0.19024(14)
N12_4 N 0.5810(3) 0.1302(3) 0.31750(15)
N13_4 N 0.6690(3) 0.1198(3) 0.31750(15)
O7_4 O 0.5093(2) 0.8483(2) 0.18780(13)
O8_4 O 0.6498(3) 0.8416(2) 0.19430(13)
N8_4 N 0.6620(3) 0.9692(2) 0.22885(15)
O9_4 O 0.3957(3) 0.9873(2) 0.19024(14)
C9_4 C 0.5800(4) 0.8738(3) 0.19719(17)
C10_4 C 0.5855(3) 0.9488(3) 0.21466(18)
Co8_4 Co 0.3750 0.8750 0.18921(3)
N4_8 N 0.3750 0.8750 0.1291(2)
O5_8 O 0.3750 0.8750 0.2493(2)
N5_8 N 0.4190(3) 0.8802(3) 0.06750(15)
C5_8 C 0.4407(4) 0.8834(3) 0.10406(17)
H1_8 H 0.4969 0.8909 0.1122
H2_8 H 0.407(4) 0.853(4) 0.2659(16)
N6_8 N 0.3310(3) 0.8698(3) 0.06750(15)
C6_8 C 0.3093(4) 0.8666(3) 0.10406(17)
H3_8 H 0.2531 0.8591 0.1122
H4_8 H 0.343(4) 0.897(4) 0.2659(16)
Co5_8 Co 0.25379(5) 0.86040(4) 0.01842(2)
O10_8 O 0.2407(2) 0.9017(2) 0.18780(13)
O13_8 O 0.3543(3) 0.7627(2) 0.19024(14)
N1_5 N 0.1760(3) 0.5568(3) 0.00860(15)
O1_5 O 0.3323(3) 0.5892(2) 0.02589(14)
C1_5 C 0.2201(4) 0.5055(3) 0.02759(18)
C2_5 C 0.3093(4) 0.5272(3) 0.03810(19)
O3_5 O 0.1002(3) 0.3416(2) 0.05570(13)
N2_5 N 0.0880(3) 0.4692(2) 0.02115(15)
C3_5 C 0.1700(4) 0.3738(3) 0.05281(17)
N3_5 N 0.0957(3) 0.5348(2) 0.00529(15)
C4_5 C 0.1645(3) 0.4488(3) 0.03534(18)
N7_5 N 0.0740(3) 0.6932(3) 0.00860(15)
C7_5 C 0.0299(4) 0.7445(3) 0.02759(18)
O8_5 O 0.1498(3) 0.9084(2) 0.05570(13)
N8_5 N 0.1620(3) 0.7808(2) 0.02115(15)
C9_5 C 0.0800(4) 0.8762(3) 0.05281(17)
N9_5 N 0.1543(3) 0.7152(2) 0.00529(15)
C10_5 C 0.0855(3) 0.8012(3) 0.03534(18)
Co1_5 Co 0.00379(5) 0.61040(4) 0.98158(2)
Co3_5 Co 0.24621(5) 0.63960(4) 0.98158(2)
O12_5 O 0.3502(3) 0.5916(2) 0.94430(13)
N11_5 N 0.3380(3) 0.7192(2) 0.97885(15)
N12_5 N 0.0810(3) 0.6198(3) 0.93250(15)
N13_5 N 0.1690(3) 0.6302(3) 0.93250(15)
O6_5 O 0.9177(3) 0.6608(2) 0.02589(14)
C8_5 C 0.9407(4) 0.7228(3) 0.03810(19)
O11_5 O 0.8998(3) 0.6584(2) 0.94430(13)
N10_5 N 0.9120(3) 0.5308(2) 0.97885(15)
Co1_6 Co 0.00379(5) 0.63960(4) 0.26842(2)
N1_6 N 0.1760(3) 0.6932(3) 0.24140(15)
O1_6 O 0.3323(3) 0.6608(2) 0.22411(14)
C1_6 C 0.2201(4) 0.7445(3) 0.22241(18)
C2_6 C 0.3093(4) 0.7228(3) 0.21190(19)
O3_6 O 0.1002(3) 0.9084(2) 0.19430(13)
N2_6 N 0.0880(3) 0.7808(2) 0.22885(15)
C3_6 C 0.1700(4) 0.8762(3) 0.19719(17)
N3_6 N 0.0957(3) 0.7152(2) 0.24471(15)
C4_6 C 0.1645(3) 0.8012(3) 0.21466(18)
Co3_6 Co 0.24621(5) 0.61040(4) 0.26842(2)
N7_6 N 0.0740(3) 0.5568(3) 0.24140(15)
C7_6 C 0.0299(4) 0.5055(3) 0.22241(18)
O8_6 O 0.1498(3) 0.3416(2) 0.19430(13)
N8_6 N 0.1620(3) 0.4692(2) 0.22885(15)
C9_6 C 0.0800(4) 0.3738(3) 0.19719(17)
N9_6 N 0.1543(3) 0.5348(2) 0.24471(15)
C10_6 C 0.0855(3) 0.4488(3) 0.21466(18)
O12_6 O 0.3502(3) 0.6584(2) 0.30570(13)
N11_6 N 0.3380(3) 0.5308(2) 0.27115(15)
N12_6 N 0.0810(3) 0.6302(3) 0.31750(15)
N13_6 N 0.1690(3) 0.6198(3) 0.31750(15)
O6_6 O 0.9177(3) 0.5892(2) 0.22411(14)
C8_6 C 0.9407(4) 0.5272(3) 0.21190(19)
O11_6 O 0.8998(3) 0.5916(2) 0.30570(13)
N10_6 N 0.9120(3) 0.7192(2) 0.27115(15)
Co1_7 Co 0.00379(5) 0.11040(4) 0.48158(2)
N1_7 N 0.1760(3) 0.0568(3) 0.50860(15)
O1_7 O 0.3323(3) 0.0892(2) 0.52589(14)
C1_7 C 0.2201(4) 0.0055(3) 0.52759(18)
C2_7 C 0.3093(4) 0.0272(3) 0.53810(19)
N3_7 N 0.0957(3) 0.0348(2) 0.50529(15)
Co3_7 Co 0.24621(5) 0.13960(4) 0.48158(2)
N7_7 N 0.0740(3) 0.1932(3) 0.50860(15)
C7_7 C 0.0299(4) 0.2445(3) 0.52759(18)
O8_7 O 0.1498(3) 0.4084(2) 0.55570(13)
N8_7 N 0.1620(3) 0.2808(2) 0.52115(15)
C9_7 C 0.0800(4) 0.3762(3) 0.55281(17)
N9_7 N 0.1543(3) 0.2152(2) 0.50529(15)
C10_7 C 0.0855(3) 0.3012(3) 0.53534(18)
O12_7 O 0.3502(3) 0.0916(2) 0.44430(13)
N11_7 N 0.3380(3) 0.2192(2) 0.47885(15)
N12_7 N 0.0810(3) 0.1198(3) 0.43250(15)
N13_7 N 0.1690(3) 0.1302(3) 0.43250(15)
O3_7 O 0.1002(3) 0.8416(2) 0.55570(13)
N2_7 N 0.0880(3) 0.9692(2) 0.52115(15)
C3_7 C 0.1700(4) 0.8738(3) 0.55281(17)
C4_7 C 0.1645(3) 0.9488(3) 0.53534(18)
O6_7 O 0.9177(3) 0.1608(2) 0.52589(14)
C8_7 C 0.9407(4) 0.2228(3) 0.53810(19)
O11_7 O 0.8998(3) 0.1584(2) 0.44430(13)
N10_7 N 0.9120(3) 0.0308(2) 0.47885(15)
Co1_8 Co 0.00379(5) 0.13960(4) 0.76842(2)
N1_8 N 0.1760(3) 0.1932(3) 0.74140(15)
O1_8 O 0.3323(3) 0.1608(2) 0.72411(14)
C1_8 C 0.2201(4) 0.2445(3) 0.72241(18)
C2_8 C 0.3093(4) 0.2228(3) 0.71190(19)
O3_8 O 0.1002(3) 0.4084(2) 0.69430(13)
N2_8 N 0.0880(3) 0.2808(2) 0.72885(15)
C3_8 C 0.1700(4) 0.3762(3) 0.69719(17)
N3_8 N 0.0957(3) 0.2152(2) 0.74471(15)
C4_8 C 0.1645(3) 0.3012(3) 0.71466(18)
Co3_8 Co 0.24621(5) 0.11040(4) 0.76842(2)
N7_8 N 0.0740(3) 0.0568(3) 0.74140(15)
C7_8 C 0.0299(4) 0.0055(3) 0.72241(18)
N9_8 N 0.1543(3) 0.0348(2) 0.74471(15)
O12_8 O 0.3502(3) 0.1584(2) 0.80570(13)
N11_8 N 0.3380(3) 0.0308(2) 0.77115(15)
N12_8 N 0.0810(3) 0.1302(3) 0.81750(15)
N13_8 N 0.1690(3) 0.1198(3) 0.81750(15)
O8_8 O 0.1498(3) 0.8416(2) 0.69430(13)
N8_8 N 0.1620(3) 0.9692(2) 0.72885(15)
C9_8 C 0.0800(4) 0.8738(3) 0.69719(17)
C10_8 C 0.0855(3) 0.9488(3) 0.71466(18)
O6_8 O 0.9177(3) 0.0892(2) 0.72411(14)
C8_8 C 0.9407(4) 0.0272(3) 0.71190(19)
O11_8 O 0.8998(3) 0.0916(2) 0.80570(13)
N10_8 N 0.9120(3) 0.2192(2) 0.77115(15)
Co2_5 Co 0.1250 0.6250 0.43921(3)
N1_9 N 0.3240(3) 0.4432(3) 0.49140(15)
O1_9 O 0.1677(3) 0.4108(2) 0.47411(14)
C1_9 C 0.2799(4) 0.4945(3) 0.47241(18)
C2_9 C 0.1907(4) 0.4728(3) 0.46190(19)
O2_5 O 0.2593(2) 0.6517(2) 0.43780(13)
O4_5 O 0.1457(3) 0.5127(2) 0.44024(14)
C3_9 C 0.3300(4) 0.6262(3) 0.44719(17)
N3_9 N 0.4043(3) 0.4652(2) 0.49471(15)
C4_9 C 0.3355(3) 0.5512(3) 0.46466(18)
N4_9 N 0.1250 0.6250 0.3791(2)
O5_9 O 0.1250 0.6250 0.4993(2)
C5_9 C 0.1907(4) 0.6166(3) 0.35406(17)
H1_9 H 0.2469 0.6091 0.3622
H2_9 H 0.157(4) 0.647(4) 0.5159(16)
C6_9 C 0.0593(4) 0.6334(3) 0.35406(17)
H3_9 H 0.0031 0.6409 0.3622
H4_9 H 0.093(4) 0.603(4) 0.5159(16)
N7_9 N 0.4260(3) 0.3068(3) 0.49140(15)
O6_9 O 0.5823(3) 0.3392(2) 0.47411(14)
C7_9 C 0.4701(4) 0.2555(3) 0.47241(18)
C8_9 C 0.5593(4) 0.2772(3) 0.46190(19)
O7_5 O 0.4907(2) 0.0983(2) 0.43780(13)
O9_5 O 0.6043(3) 0.2373(2) 0.44024(14)
C9_9 C 0.4200(4) 0.1238(3) 0.44719(17)
N9_9 N 0.3457(3) 0.2848(2) 0.49471(15)
C10_9 C 0.4145(3) 0.1988(3) 0.46466(18)
Co8_5 Co 0.6250 0.1250 0.43921(3)
O13_9 O 0.1043(3) 0.7373(2) 0.44024(14)
O10_9 O 0.9907(2) 0.5983(2) 0.43780(13)
N4_10 N 0.6250 0.1250 0.3791(2)
O5_10 O 0.6250 0.1250 0.4993(2)
C5_10 C 0.5593(4) 0.1334(3) 0.35406(17)
H1_10 H 0.5031 0.1409 0.3622
H2_10 H 0.593(4) 0.103(4) 0.5159(16)
C6_10 C 0.6907(4) 0.1166(3) 0.35406(17)
H3_10 H 0.7469 0.1091 0.3622
H4_10 H 0.657(4) 0.147(4) 0.5159(16)
O10_10 O 0.7593(2) 0.1517(2) 0.43780(13)
O13_10 O 0.6457(3) 0.0127(2) 0.44024(14)
Co2_6 Co 0.1250 0.1250 0.31079(3)
N1_10 N 0.3240(3) 0.3068(3) 0.25860(15)
O1_10 O 0.1677(3) 0.3392(2) 0.27589(14)
C1_10 C 0.2799(4) 0.2555(3) 0.27759(18)
C2_10 C 0.1907(4) 0.2772(3) 0.28810(19)
O2_6 O 0.2593(2) 0.0983(2) 0.31220(13)
O4_6 O 0.1457(3) 0.2373(2) 0.30976(14)
C3_10 C 0.3300(4) 0.1238(3) 0.30281(17)
N3_10 N 0.4043(3) 0.2848(2) 0.25529(15)
C4_10 C 0.3355(3) 0.1988(3) 0.28534(18)
N4_11 N 0.1250 0.1250 0.3709(2)
O5_11 O 0.1250 0.1250 0.2507(2)
C5_11 C 0.1907(4) 0.1334(3) 0.39594(17)
H1_11 H 0.2469 0.1409 0.3878
H2_11 H 0.157(4) 0.103(4) 0.2341(16)
C6_11 C 0.0593(4) 0.1166(3) 0.39594(17)
H3_11 H 0.0031 0.1091 0.3878
H4_11 H 0.093(4) 0.147(4) 0.2341(16)
N7_10 N 0.4260(3) 0.4432(3) 0.25860(15)
O6_10 O 0.5823(3) 0.4108(2) 0.27589(14)
C7_10 C 0.4701(4) 0.4945(3) 0.27759(18)
C8_10 C 0.5593(4) 0.4728(3) 0.28810(19)
O7_6 O 0.4907(2) 0.6517(2) 0.31220(13)
O9_6 O 0.6043(3) 0.5127(2) 0.30976(14)
C9_10 C 0.4200(4) 0.6262(3) 0.30281(17)
N9_10 N 0.3457(3) 0.4652(2) 0.25529(15)
C10_10 C 0.4145(3) 0.5512(3) 0.28534(18)
Co8_6 Co 0.6250 0.6250 0.31079(3)
O13_11 O 0.1043(3) 0.0127(2) 0.30976(14)
O10_11 O 0.9907(2) 0.1517(2) 0.31220(13)
N4_12 N 0.6250 0.6250 0.3709(2)
O5_12 O 0.6250 0.6250 0.2507(2)
C5_12 C 0.5593(4) 0.6166(3) 0.39594(17)
H1_12 H 0.5031 0.6091 0.3878
H2_12 H 0.593(4) 0.647(4) 0.2341(16)
C6_12 C 0.6907(4) 0.6334(3) 0.39594(17)
H3_12 H 0.7469 0.6409 0.3878
H4_12 H 0.657(4) 0.603(4) 0.2341(16)
O10_12 O 0.7593(2) 0.5983(2) 0.31220(13)
O13_12 O 0.6457(3) 0.7373(2) 0.30976(14)
H2_13 H 0.157(4) 0.147(4) 0.0159(16)
H4_13 H 0.093(4) 0.103(4) 0.0159(16)
Co2_7 Co 0.1250 0.1250 0.93921(3)
O2_7 O 0.2593(2) 0.1517(2) 0.93780(13)
O4_7 O 0.1457(3) 0.0127(2) 0.94024(14)
C3_11 C 0.3300(4) 0.1262(3) 0.94719(17)
C4_11 C 0.3355(3) 0.0512(3) 0.96466(18)
N4_13 N 0.1250 0.1250 0.8791(2)
O5_13 O 0.1250 0.1250 0.9993(2)
C5_13 C 0.1907(4) 0.1166(3) 0.85406(17)
H1_13 H 0.2469 0.1091 0.8622
C6_13 C 0.0593(4) 0.1334(3) 0.85406(17)
H3_13 H 0.0031 0.1409 0.8622
O13_13 O 0.1043(3) 0.2373(2) 0.94024(14)
N1_11 N 0.3240(3) 0.9432(3) 0.99140(15)
O1_11 O 0.1677(3) 0.9108(2) 0.97411(14)
C1_11 C 0.2799(4) 0.9945(3) 0.97241(18)
C2_11 C 0.1907(4) 0.9728(3) 0.96190(19)
N3_11 N 0.4043(3) 0.9652(2) 0.99471(15)
N7_11 N 0.4260(3) 0.8068(3) 0.99140(15)
O6_11 O 0.5823(3) 0.8392(2) 0.97411(14)
C7_11 C 0.4701(4) 0.7555(3) 0.97241(18)
C8_11 C 0.5593(4) 0.7772(3) 0.96190(19)
O7_7 O 0.4907(2) 0.5983(2) 0.93780(13)
O9_7 O 0.6043(3) 0.7373(2) 0.94024(14)
C9_11 C 0.4200(4) 0.6238(3) 0.94719(17)
N9_11 N 0.3457(3) 0.7848(2) 0.99471(15)
C10_11 C 0.4145(3) 0.6988(3) 0.96466(18)
Co8_7 Co 0.6250 0.6250 0.93921(3)
O10_13 O 0.9907(2) 0.0983(2) 0.93780(13)
H2_14 H 0.593(4) 0.603(4) 0.0159(16)
H4_14 H 0.657(4) 0.647(4) 0.0159(16)
N4_14 N 0.6250 0.6250 0.8791(2)
O5_14 O 0.6250 0.6250 0.9993(2)
C5_14 C 0.5593(4) 0.6334(3) 0.85406(17)
H1_14 H 0.5031 0.6409 0.8622
C6_14 C 0.6907(4) 0.6166(3) 0.85406(17)
H3_14 H 0.7469 0.6091 0.8622
O10_14 O 0.7593(2) 0.6517(2) 0.93780(13)
O13_14 O 0.6457(3) 0.5127(2) 0.94024(14)
O7_8 O 0.4907(2) 0.1517(2) 0.81220(13)
O9_8 O 0.6043(3) 0.0127(2) 0.80976(14)
C9_12 C 0.4200(4) 0.1262(3) 0.80281(17)
C10_12 C 0.4145(3) 0.0512(3) 0.78534(18)
Co8_8 Co 0.6250 0.1250 0.81079(3)
Co2_8 Co 0.1250 0.6250 0.81079(3)
N1_12 N 0.3240(3) 0.8068(3) 0.75860(15)
O1_12 O 0.1677(3) 0.8392(2) 0.77589(14)
C1_12 C 0.2799(4) 0.7555(3) 0.77759(18)
C2_12 C 0.1907(4) 0.7772(3) 0.78810(19)
O2_8 O 0.2593(2) 0.5983(2) 0.81220(13)
O4_8 O 0.1457(3) 0.7373(2) 0.80976(14)
C3_12 C 0.3300(4) 0.6238(3) 0.80281(17)
N3_12 N 0.4043(3) 0.7848(2) 0.75529(15)
C4_12 C 0.3355(3) 0.6988(3) 0.78534(18)
N4_15 N 0.1250 0.6250 0.8709(2)
O5_15 O 0.1250 0.6250 0.7507(2)
C5_15 C 0.1907(4) 0.6334(3) 0.89594(17)
H1_15 H 0.2469 0.6409 0.8878
H2_15 H 0.157(4) 0.603(4) 0.7341(16)
C6_15 C 0.0593(4) 0.6166(3) 0.89594(17)
H3_15 H 0.0031 0.6091 0.8878
H4_15 H 0.093(4) 0.647(4) 0.7341(16)
N7_12 N 0.4260(3) 0.9432(3) 0.75860(15)
O6_12 O 0.5823(3) 0.9108(2) 0.77589(14)
C7_12 C 0.4701(4) 0.9945(3) 0.77759(18)
C8_12 C 0.5593(4) 0.9728(3) 0.78810(19)
N9_12 N 0.3457(3) 0.9652(2) 0.75529(15)
O13_15 O 0.1043(3) 0.5127(2) 0.80976(14)
O10_15 O 0.9907(2) 0.6517(2) 0.81220(13)
N4_16 N 0.6250 0.1250 0.8709(2)
O5_16 O 0.6250 0.1250 0.7507(2)
C5_16 C 0.5593(4) 0.1166(3) 0.89594(17)
H1_16 H 0.5031 0.1091 0.8878
H2_16 H 0.593(4) 0.147(4) 0.7341(16)
C6_16 C 0.6907(4) 0.1334(3) 0.89594(17)
H3_16 H 0.7469 0.1409 0.8878
H4_16 H 0.657(4) 0.103(4) 0.7341(16)
O10_16 O 0.7593(2) 0.0983(2) 0.81220(13)
O13_16 O 0.6457(3) 0.2373(2) 0.80976(14)
O6_13 O 0.0823(3) 0.3392(2) 0.97411(14)
C8_13 C 0.0593(4) 0.2772(3) 0.96190(19)
N1_13 N 0.8240(3) 0.4432(3) 0.99140(15)
O1_13 O 0.6677(3) 0.4108(2) 0.97411(14)
C1_13 C 0.7799(4) 0.4945(3) 0.97241(18)
C2_13 C 0.6907(4) 0.4728(3) 0.96190(19)
C3_13 C 0.8300(4) 0.6262(3) 0.94719(17)
N3_13 N 0.9043(3) 0.4652(2) 0.99471(15)
C4_13 C 0.8355(3) 0.5512(3) 0.96466(18)
N7_13 N 0.9260(3) 0.3068(3) 0.99140(15)
C7_13 C 0.9701(4) 0.2555(3) 0.97241(18)
C9_13 C 0.9200(4) 0.1238(3) 0.94719(17)
N9_13 N 0.8457(3) 0.2848(2) 0.99471(15)
C10_13 C 0.9145(3) 0.1988(3) 0.96466(18)
O6_14 O 0.0823(3) 0.4108(2) 0.77589(14)
C8_14 C 0.0593(4) 0.4728(3) 0.78810(19)
N1_14 N 0.8240(3) 0.3068(3) 0.75860(15)
O1_14 O 0.6677(3) 0.3392(2) 0.77589(14)
C1_14 C 0.7799(4) 0.2555(3) 0.77759(18)
C2_14 C 0.6907(4) 0.2772(3) 0.78810(19)
C3_14 C 0.8300(4) 0.1238(3) 0.80281(17)
N3_14 N 0.9043(3) 0.2848(2) 0.75529(15)
C4_14 C 0.8355(3) 0.1988(3) 0.78534(18)
N7_14 N 0.9260(3) 0.4432(3) 0.75860(15)
C7_14 C 0.9701(4) 0.4945(3) 0.77759(18)
C9_14 C 0.9200(4) 0.6262(3) 0.80281(17)
N9_14 N 0.8457(3) 0.4652(2) 0.75529(15)
C10_14 C 0.9145(3) 0.5512(3) 0.78534(18)
O6_15 O 0.0823(3) 0.8392(2) 0.47411(14)
C8_15 C 0.0593(4) 0.7772(3) 0.46190(19)
C3_15 C 0.8300(4) 0.1262(3) 0.44719(17)
C4_15 C 0.8355(3) 0.0512(3) 0.46466(18)
N1_15 N 0.8240(3) 0.9432(3) 0.49140(15)
O1_15 O 0.6677(3) 0.9108(2) 0.47411(14)
C1_15 C 0.7799(4) 0.9945(3) 0.47241(18)
C2_15 C 0.6907(4) 0.9728(3) 0.46190(19)
N3_15 N 0.9043(3) 0.9652(2) 0.49471(15)
N7_15 N 0.9260(3) 0.8068(3) 0.49140(15)
C7_15 C 0.9701(4) 0.7555(3) 0.47241(18)
C9_15 C 0.9200(4) 0.6238(3) 0.44719(17)
N9_15 N 0.8457(3) 0.7848(2) 0.49471(15)
C10_15 C 0.9145(3) 0.6988(3) 0.46466(18)
O6_16 O 0.0823(3) 0.9108(2) 0.27589(14)
C8_16 C 0.0593(4) 0.9728(3) 0.28810(19)
C9_16 C 0.9200(4) 0.1262(3) 0.30281(17)
C10_16 C 0.9145(3) 0.0512(3) 0.28534(18)
N1_16 N 0.8240(3) 0.8068(3) 0.25860(15)
O1_16 O 0.6677(3) 0.8392(2) 0.27589(14)
C1_16 C 0.7799(4) 0.7555(3) 0.27759(18)
C2_16 C 0.6907(4) 0.7772(3) 0.28810(19)
C3_16 C 0.8300(4) 0.6238(3) 0.30281(17)
N3_16 N 0.9043(3) 0.7848(2) 0.25529(15)
C4_16 C 0.8355(3) 0.6988(3) 0.28534(18)
N7_16 N 0.9260(3) 0.9432(3) 0.25860(15)
C7_16 C 0.9701(4) 0.9945(3) 0.27759(18)
N9_16 N 0.8457(3) 0.9652(2) 0.25529(15)
N14 N 0.7380(8) 0.3750 0.3750
H5 H 0.7718 0.3533 0.3928
C11 C 0.6830(8) 0.4309(8) 0.3945(4)
H6 H 0.6566 0.4612 0.3751
H7 H 0.7176 0.4604 0.4114
H8 H 0.6395 0.4069 0.4095
H9 H 0.7718 0.3967 0.3572
C12 C 0.6830(8) 0.3191(8) 0.3555(4)
H10 H 0.6566 0.2888 0.3749
H11 H 0.7176 0.2896 0.3386
H12 H 0.6395 0.3431 0.3405
N14_2 N 0.5120(8) 0.8750 0.3750
H5_2 H 0.4782 0.8967 0.3928
C11_2 C 0.5670(8) 0.8191(8) 0.3945(4)
H6_2 H 0.5934 0.7888 0.3751
H7_2 H 0.5324 0.7896 0.4114
H8_2 H 0.6105 0.8431 0.4095
H9_2 H 0.4782 0.8533 0.3572
C12_2 C 0.5670(8) 0.9309(8) 0.3555(4)
H10_2 H 0.5934 0.9612 0.3749
H11_2 H 0.5324 0.9604 0.3386
H12_2 H 0.6105 0.9069 0.3405
N14_3 N 0.7380(8) 0.8750 0.8750
H5_3 H 0.7718 0.8967 0.8572
C11_3 C 0.6830(8) 0.8191(8) 0.8555(4)
H6_3 H 0.6566 0.7888 0.8749
H7_3 H 0.7176 0.7896 0.8386
H8_3 H 0.6395 0.8431 0.8405
H9_3 H 0.7718 0.8533 0.8928
C12_3 C 0.6830(8) 0.9309(8) 0.8945(4)
H10_3 H 0.6566 0.9612 0.8751
H11_3 H 0.7176 0.9604 0.9114
H12_3 H 0.6395 0.9069 0.9095
N14_4 N 0.5120(8) 0.3750 0.8750
H5_4 H 0.4782 0.3533 0.8572
C11_4 C 0.5670(8) 0.4309(8) 0.8555(4)
H6_4 H 0.5934 0.4612 0.8749
H7_4 H 0.5324 0.4604 0.8386
H8_4 H 0.6105 0.4069 0.8405
H9_4 H 0.4782 0.3967 0.8928
C12_4 C 0.5670(8) 0.3191(8) 0.8945(4)
H10_4 H 0.5934 0.2888 0.8751
H11_4 H 0.5324 0.2896 0.9114
H12_4 H 0.6105 0.3431 0.9095
N14_5 N 0.2380(8) 0.3750 0.8750
H5_5 H 0.2718 0.3533 0.8928
C11_5 C 0.1830(8) 0.4309(8) 0.8945(4)
H6_5 H 0.1566 0.4612 0.8751
H7_5 H 0.2176 0.4604 0.9114
H8_5 H 0.1395 0.4069 0.9095
H9_5 H 0.2718 0.3967 0.8572
C12_5 C 0.1830(8) 0.3191(8) 0.8555(4)
H10_5 H 0.1566 0.2888 0.8749
H11_5 H 0.2176 0.2896 0.8386
H12_5 H 0.1395 0.3431 0.8405
N14_6 N 0.0120(8) 0.8750 0.8750
C11_6 C 0.0670(8) 0.8191(8) 0.8945(4)
H6_6 H 0.0934 0.7888 0.8751
H7_6 H 0.0324 0.7896 0.9114
H8_6 H 0.1105 0.8431 0.9095
C12_6 C 0.0670(8) 0.9309(8) 0.8555(4)
H10_6 H 0.0934 0.9612 0.8749
H11_6 H 0.0324 0.9604 0.8386
H12_6 H 0.1105 0.9069 0.8405
H5_6 H 0.9782 0.8967 0.8928
H9_6 H 0.9782 0.8533 0.8572
N14_7 N 0.2380(8) 0.8750 0.3750
H5_7 H 0.2718 0.8967 0.3572
C11_7 C 0.1830(8) 0.8191(8) 0.3555(4)
H6_7 H 0.1566 0.7888 0.3749
H7_7 H 0.2176 0.7896 0.3386
H8_7 H 0.1395 0.8431 0.3405
H9_7 H 0.2718 0.8533 0.3928
C12_7 C 0.1830(8) 0.9309(8) 0.3945(4)
H10_7 H 0.1566 0.9612 0.3751
H11_7 H 0.2176 0.9604 0.4114
H12_7 H 0.1395 0.9069 0.4095
N14_8 N 0.0120(8) 0.3750 0.3750
C11_8 C 0.0670(8) 0.4309(8) 0.3555(4)
H6_8 H 0.0934 0.4612 0.3749
H7_8 H 0.0324 0.4604 0.3386
H8_8 H 0.1105 0.4069 0.3405
C12_8 C 0.0670(8) 0.3191(8) 0.3945(4)
H10_8 H 0.0934 0.2888 0.3751
H11_8 H 0.0324 0.2896 0.4114
H12_8 H 0.1105 0.3431 0.4095
H5_8 H 0.9782 0.3533 0.3572
H9_8 H 0.9782 0.3967 0.3928
N14_9 N 0.2620(8) 0.6250 0.6250
H5_9 H 0.2282 0.6467 0.6072
C11_9 C 0.3170(8) 0.5691(8) 0.6055(4)
H6_9 H 0.3434 0.5388 0.6249
H7_9 H 0.2824 0.5396 0.5886
H8_9 H 0.3605 0.5931 0.5905
H9_9 H 0.2282 0.6033 0.6428
C12_9 C 0.3170(8) 0.6809(8) 0.6445(4)
H10_9 H 0.3434 0.7112 0.6251
H11_9 H 0.2824 0.7104 0.6614
H12_9 H 0.3605 0.6569 0.6595
N14_10 N 0.4880(8) 0.1250 0.6250
H5_10 H 0.5218 0.1033 0.6072
C11_10 C 0.4330(8) 0.1809(8) 0.6055(4)
H6_10 H 0.4066 0.2112 0.6249
H7_10 H 0.4676 0.2104 0.5886
H8_10 H 0.3895 0.1569 0.5905
H9_10 H 0.5218 0.1467 0.6428
C12_10 C 0.4330(8) 0.0691(8) 0.6445(4)
H10_10 H 0.4066 0.0388 0.6251
H11_10 H 0.4676 0.0396 0.6614
H12_10 H 0.3895 0.0931 0.6595
N14_11 N 0.2620(8) 0.1250 0.1250
H5_11 H 0.2282 0.1033 0.1428
C11_11 C 0.3170(8) 0.1809(8) 0.1445(4)
H6_11 H 0.3434 0.2112 0.1251
H7_11 H 0.2824 0.2104 0.1614
H8_11 H 0.3605 0.1569 0.1595
H9_11 H 0.2282 0.1467 0.1072
C12_11 C 0.3170(8) 0.0691(8) 0.1055(4)
H10_11 H 0.3434 0.0388 0.1249
H11_11 H 0.2824 0.0396 0.0886
H12_11 H 0.3605 0.0931 0.0905
N14_12 N 0.4880(8) 0.6250 0.1250
H5_12 H 0.5218 0.6467 0.1428
C11_12 C 0.4330(8) 0.5691(8) 0.1445(4)
H6_12 H 0.4066 0.5388 0.1251
H7_12 H 0.4676 0.5396 0.1614
H8_12 H 0.3895 0.5931 0.1595
H9_12 H 0.5218 0.6033 0.1072
C12_12 C 0.4330(8) 0.6809(8) 0.1055(4)
H10_12 H 0.4066 0.7112 0.1249
H11_12 H 0.4676 0.7104 0.0886
H12_12 H 0.3895 0.6569 0.0905
N14_13 N 0.7620(8) 0.6250 0.1250
H5_13 H 0.7282 0.6467 0.1072
C11_13 C 0.8170(8) 0.5691(8) 0.1055(4)
H6_13 H 0.8434 0.5388 0.1249
H7_13 H 0.7824 0.5396 0.0886
H8_13 H 0.8605 0.5931 0.0905
H9_13 H 0.7282 0.6033 0.1428
C12_13 C 0.8170(8) 0.6809(8) 0.1445(4)
H10_13 H 0.8434 0.7112 0.1251
H11_13 H 0.7824 0.7104 0.1614
H12_13 H 0.8605 0.6569 0.1595
H5_14 H 0.0218 0.1033 0.1072
H9_14 H 0.0218 0.1467 0.1428
N14_14 N 0.9880(8) 0.1250 0.1250
C11_14 C 0.9330(8) 0.1809(8) 0.1055(4)
H6_14 H 0.9066 0.2112 0.1249
H7_14 H 0.9676 0.2104 0.0886
H8_14 H 0.8895 0.1569 0.0905
C12_14 C 0.9330(8) 0.0691(8) 0.1445(4)
H10_14 H 0.9066 0.0388 0.1251
H11_14 H 0.9676 0.0396 0.1614
H12_14 H 0.8895 0.0931 0.1595
N14_15 N 0.7620(8) 0.1250 0.6250
H5_15 H 0.7282 0.1033 0.6428
C11_15 C 0.8170(8) 0.1809(8) 0.6445(4)
H6_15 H 0.8434 0.2112 0.6251
H7_15 H 0.7824 0.2104 0.6614
H8_15 H 0.8605 0.1569 0.6595
H9_15 H 0.7282 0.1467 0.6072
C12_15 C 0.8170(8) 0.0691(8) 0.6055(4)
H10_15 H 0.8434 0.0388 0.6249
H11_15 H 0.7824 0.0396 0.5886
H12_15 H 0.8605 0.0931 0.5905
H5_16 H 0.0218 0.6467 0.6428
H9_16 H 0.0218 0.6033 0.6072
N14_16 N 0.9880(8) 0.6250 0.6250
C11_16 C 0.9330(8) 0.5691(8) 0.6445(4)
H6_16 H 0.9066 0.5388 0.6251
H7_16 H 0.9676 0.5396 0.6614
H8_16 H 0.8895 0.5931 0.6595
C12_16 C 0.9330(8) 0.6809(8) 0.6055(4)
H10_16 H 0.9066 0.7112 0.6249
H11_16 H 0.9676 0.7104 0.5886
H12_16 H 0.8895 0.6569 0.5905
loop_
_geom_bond_atom_site_label_1
_geom_bond_atom_site_label_2
_geom_bond_site_symmetry_1
_geom_bond_site_symmetry_2
Co1 N3 1_555 1_555
Co2 O2 1_555 1_555
N1 C1 1_555 1_555
O1 C2 1_555 1_555
C1 C2 1_555 1_555
C2 O4 1_555 1_555
O2 C3 1_555 1_555
O3 C3 1_555 1_555
N2 N3 1_555 1_555
O4 Co2 1_555 1_555
C3 C4 1_555 1_555
N3 N1 1_555 1_555
C4 C1 1_555 1_555
N4 Co2 1_555 1_555
O5 Co2 1_555 1_555
N5 C5 1_555 1_555
C5 N4 1_555 1_555
H1 C5 1_555 1_555
H2 O5 1_555 1_555
N6 N5 1_555 1_555
C6 N4 1_555 1_555
H3 C6 1_555 1_555
H4 O5 1_555 1_555
Co3 N1 1_555 1_555
N7 Co1 1_555 1_555
O6 Co1 1_555 1_555
C7 N7 1_555 1_555
C8 O6 1_555 1_555
O7 C9 1_555 1_555
O8 C9 1_555 1_555
N8 N9 1_555 1_555
O9 C8 1_555 1_555
C9 C10 1_555 1_555
N9 Co3 1_555 1_555
C10 C7 1_555 1_555
Co4 O3 1_555 1_555
Co5 N6 1_555 1_555
Co6 N5 1_555 1_555
Co7 O8 1_555 1_555
Co8 O7 1_555 1_555
O11 Co1 1_555 1_555
O12 Co3 1_555 1_555
N10 Co1 1_555 1_555
N11 Co3 1_555 1_555
O13 Co2 1_555 1_555
N12 Co1 1_555 1_555
N13 Co3 1_555 1_555
O1 Co3 1_555 1_555
N2 C4 1_555 1_555
N2 Co4 1_555 1_555
N6 C6 1_555 1_555
N7 N9 1_555 1_555
C7 C8 1_555 1_555
N8 C10 1_555 1_555
N8 Co7 1_555 1_555
O9 Co8 1_555 1_555
N12 N13 1_555 1_555
N4_2 Co8 1_555 1_555
O5_2 Co8 1_555 1_555
N5_2 C5_2 1_555 1_555
C5_2 N4_2 1_555 1_555
H1_2 C5_2 1_555 1_555
H2_2 O5_2 1_555 1_555
N6_2 N5_2 1_555 1_555
C6_2 N4_2 1_555 1_555
H3_2 C6_2 1_555 1_555
H4_2 O5_2 1_555 1_555
Co5_2 N6_2 1_555 1_555
Co6_2 N5_2 1_555 1_555
O10_2 Co8 1_555 1_555
O13_2 Co8 1_555 1_555
N6_2 C6_2 1_555 1_555
Co1_2 N3_2 1_555 1_555
Co2_2 O2_2 1_555 1_555
N1_2 C1_2 1_555 1_555
O1_2 C2_2 1_555 1_555
C1_2 C2_2 1_555 1_555
C2_2 O4_2 1_555 1_555
O2_2 C3_2 1_555 1_555
O3_2 C3_2 1_555 1_555
N2_2 N3_2 1_555 1_555
O4_2 Co2_2 1_555 1_555
C3_2 C4_2 1_555 1_555
N3_2 N1_2 1_555 1_555
C4_2 C1_2 1_555 1_555
N4_3 Co2_2 1_555 1_555
O5_3 Co2_2 1_555 1_555
N5_3 C5_3 1_555 1_555
C5_3 N4_3 1_555 1_555
H1_3 C5_3 1_555 1_555
H2_3 O5_3 1_555 1_555
N6_3 N5_3 1_555 1_555
C6_3 N4_3 1_555 1_555
H3_3 C6_3 1_555 1_555
H4_3 O5_3 1_555 1_555
Co3_2 N1_2 1_555 1_555
N7_2 Co1_2 1_555 1_555
O6_2 Co1_2 1_555 1_555
C7_2 N7_2 1_555 1_555
C8_2 O6_2 1_555 1_555
O7_2 C9_2 1_555 1_555
O8_2 C9_2 1_555 1_555
N8_2 N9_2 1_555 1_555
O9_2 C8_2 1_555 1_555
C9_2 C10_2 1_555 1_555
N9_2 Co3_2 1_555 1_555
C10_2 C7_2 1_555 1_555
Co6_2 O3_2 1_555 1_555
Co5_3 N6_3 1_555 1_555
Co7 N5_3 1_555 1_555
Co6 O8_2 1_555 1_555
Co8_2 O7_2 1_555 1_555
O11_2 Co1_2 1_555 1_555
O12_2 Co3_2 1_555 1_555
N10_2 Co1_2 1_555 1_555
N11_2 Co3_2 1_555 1_555
O13_3 Co2_2 1_555 1_555
N12_2 Co1_2 1_555 1_555
N13_2 Co3_2 1_555 1_555
O1_2 Co3_2 1_555 1_555
N2_2 C4_2 1_555 1_555
N2_2 Co6_2 1_555 1_555
N6_3 C6_3 1_555 1_555
N7_2 N9_2 1_555 1_555
C7_2 C8_2 1_555 1_555
N8_2 C10_2 1_555 1_555
N8_2 Co6 1_555 1_555
O9_2 Co8_2 1_555 1_555
N12_2 N13_2 1_555 1_555
N4_4 Co8_2 1_555 1_555
O5_4 Co8_2 1_555 1_555
N5_4 C5_4 1_555 1_555
C5_4 N4_4 1_555 1_555
H1_4 C5_4 1_555 1_555
H2_4 O5_4 1_555 1_555
N6_4 N5_4 1_555 1_555
C6_4 N4_4 1_555 1_555
H3_4 C6_4 1_555 1_555
H4_4 O5_4 1_555 1_555
Co5_4 N6_4 1_555 1_555
Co4 N5_4 1_555 1_555
O10_4 Co8_2 1_555 1_555
O13_4 Co8_2 1_555 1_555
N6_4 C6_4 1_555 1_555
N1_3 C1_3 1_555 1_555
O1_3 C2_3 1_555 1_555
C1_3 C2_3 1_555 1_555
N3_3 N1_3 1_555 1_555
C7_3 N7_3 1_555 1_555
C8_3 O6_3 1_555 1_555
O7_3 C9_3 1_555 1_555
O8_3 C9_3 1_555 1_555
N8_3 N9_3 1_555 1_555
O9_3 C8_3 1_555 1_555
C9_3 C10_3 1_555 1_555
C10_3 C7_3 1_555 1_555
Co7_2 O8_3 1_555 1_555
Co8_3 O7_3 1_555 1_555
N7_3 N9_3 1_555 1_555
C7_3 C8_3 1_555 1_555
N8_3 C10_3 1_555 1_555
N8_3 Co7_2 1_555 1_555
O9_3 Co8_3 1_555 1_555
O11_3 Co1_3 1_555 1_555
O12_3 Co3_3 1_555 1_555
N10_3 Co1_3 1_555 1_555
N11_3 Co3_3 1_555 1_555
N12_3 Co1_3 1_555 1_555
N13_3 Co3_3 1_555 1_555
N12_3 N13_3 1_555 1_555
Co2_3 O2_3 1_555 1_555
O2_3 C3_3 1_555 1_555
O3_3 C3_3 1_555 1_555
O4_3 Co2_3 1_555 1_555
C3_3 C4_3 1_555 1_555
N4_5 Co2_3 1_555 1_555
O5_5 Co2_3 1_555 1_555
N5_5 C5_5 1_555 1_555
C5_5 N4_5 1_555 1_555
H1_5 C5_5 1_555 1_555
N6_5 N5_5 1_555 1_555
C6_5 N4_5 1_555 1_555
H3_5 C6_5 1_555 1_555
Co4_2 O3_3 1_555 1_555
Co5_5 N6_5 1_555 1_555
Co6_3 N5_5 1_555 1_555
O13_5 Co2_3 1_555 1_555
N2_3 C4_3 1_555 1_555
N2_3 Co4_2 1_555 1_555
N6_5 C6_5 1_555 1_555
N4_6 Co8_3 1_555 1_555
O5_6 Co8_3 1_555 1_555
N5_6 C5_6 1_555 1_555
C5_6 N4_6 1_555 1_555
H1_6 C5_6 1_555 1_555
N6_6 N5_6 1_555 1_555
C6_6 N4_6 1_555 1_555
H3_6 C6_6 1_555 1_555
Co5_6 N6_6 1_555 1_555
Co6_4 N5_6 1_555 1_555
O10_6 Co8_3 1_555 1_555
O13_6 Co8_3 1_555 1_555
N6_6 C6_6 1_555 1_555
Co1_4 N3_4 1_555 1_555
Co2_4 O2_4 1_555 1_555
N1_4 C1_4 1_555 1_555
O1_4 C2_4 1_555 1_555
C1_4 C2_4 1_555 1_555
C2_4 O4_4 1_555 1_555
O2_4 C3_4 1_555 1_555
O3_4 C3_4 1_555 1_555
N2_4 N3_4 1_555 1_555
O4_4 Co2_4 1_555 1_555
C3_4 C4_4 1_555 1_555
N3_4 N1_4 1_555 1_555
C4_4 C1_4 1_555 1_555
N4_7 Co2_4 1_555 1_555
O5_7 Co2_4 1_555 1_555
N5_7 C5_7 1_555 1_555
C5_7 N4_7 1_555 1_555
H1_7 C5_7 1_555 1_555
H2_7 O5_7 1_555 1_555
N6_7 N5_7 1_555 1_555
C6_7 N4_7 1_555 1_555
H3_7 C6_7 1_555 1_555
H4_7 O5_7 1_555 1_555
Co3_4 N1_4 1_555 1_555
N7_4 Co1_4 1_555 1_555
O6_4 Co1_4 1_555 1_555
C7_4 N7_4 1_555 1_555
C8_4 O6_4 1_555 1_555
N9_4 Co3_4 1_555 1_555
Co6_4 O3_4 1_555 1_555
Co5_7 N6_7 1_555 1_555
Co7_2 N5_7 1_555 1_555
O11_4 Co1_4 1_555 1_555
O12_4 Co3_4 1_555 1_555
N10_4 Co1_4 1_555 1_555
N11_4 Co3_4 1_555 1_555
O13_7 Co2_4 1_555 1_555
N12_4 Co1_4 1_555 1_555
N13_4 Co3_4 1_555 1_555
O1_4 Co3_4 1_555 1_555
N2_4 C4_4 1_555 1_555
N2_4 Co6_4 1_555 1_555
N6_7 C6_7 1_555 1_555
N7_4 N9_4 1_555 1_555
C7_4 C8_4 1_555 1_555
N12_4 N13_4 1_555 1_555
O7_4 C9_4 1_555 1_555
O8_4 C9_4 1_555 1_555
C9_4 C10_4 1_555 1_555
Co6_3 O8_4 1_555 1_555
Co8_4 O7_4 1_555 1_555
N8_4 C10_4 1_555 1_555
N8_4 Co6_3 1_555 1_555
O9_4 Co8_4 1_555 1_555
N4_8 Co8_4 1_555 1_555
O5_8 Co8_4 1_555 1_555
N5_8 C5_8 1_555 1_555
C5_8 N4_8 1_555 1_555
H1_8 C5_8 1_555 1_555
H2_8 O5_8 1_555 1_555
N6_8 N5_8 1_555 1_555
C6_8 N4_8 1_555 1_555
H3_8 C6_8 1_555 1_555
H4_8 O5_8 1_555 1_555
Co5_8 N6_8 1_555 1_555
Co4_2 N5_8 1_555 1_555
O10_8 Co8_4 1_555 1_555
O13_8 Co8_4 1_555 1_555
N6_8 C6_8 1_555 1_555
N1_5 C1_5 1_555 1_555
O1_5 C2_5 1_555 1_555
C1_5 C2_5 1_555 1_555
C2_5 O13_6 1_555 1_555
O10_6 C3_5 1_555 1_555
O3_5 C3_5 1_555 1_555
N2_5 N3_5 1_555 1_555
C3_5 C4_5 1_555 1_555
N3_5 N1_5 1_555 1_555
C4_5 C1_5 1_555 1_555
C7_5 N7_5 1_555 1_555
O10_5 C9_5 1_555 1_555
O8_5 C9_5 1_555 1_555
N8_5 N9_5 1_555 1_555
C9_5 C10_5 1_555 1_555
C10_5 C7_5 1_555 1_555
Co5_8 O8_5 1_555 1_555
N2_5 C4_5 1_555 1_555
N7_5 N9_5 1_555 1_555
N8_5 C10_5 1_555 1_555
N8_5 Co5_8 1_555 1_555
O12_5 Co3_5 1_555 1_555
N11_5 Co3_5 1_555 1_555
N12_5 Co1_5 1_555 1_555
N13_5 Co3_5 1_555 1_555
N12_5 N13_5 1_555 1_555
C8_5 O6_5 1_555 1_555
O13_5 C8_5 1_555 1_555
Co1_6 N3_6 1_555 1_555
N1_6 C1_6 1_555 1_555
O1_6 C2_6 1_555 1_555
C1_6 C2_6 1_555 1_555
C2_6 O13_8 1_555 1_555
O10_8 C3_6 1_555 1_555
O3_6 C3_6 1_555 1_555
N2_6 N3_6 1_555 1_555
C3_6 C4_6 1_555 1_555
N3_6 N1_6 1_555 1_555
C4_6 C1_6 1_555 1_555
Co3_6 N1_6 1_555 1_555
N7_6 Co1_6 1_555 1_555
C7_6 N7_6 1_555 1_555
O10_7 C9_6 1_555 1_555
O8_6 C9_6 1_555 1_555
N8_6 N9_6 1_555 1_555
C9_6 C10_6 1_555 1_555
N9_6 Co3_6 1_555 1_555
C10_6 C7_6 1_555 1_555
Co5_6 O8_6 1_555 1_555
O12_6 Co3_6 1_555 1_555
N11_6 Co3_6 1_555 1_555
N12_6 Co1_6 1_555 1_555
N13_6 Co3_6 1_555 1_555
O1_6 Co3_6 1_555 1_555
N2_6 C4_6 1_555 1_555
N7_6 N9_6 1_555 1_555
N8_6 C10_6 1_555 1_555
N8_6 Co5_6 1_555 1_555
N12_6 N13_6 1_555 1_555
C8_6 O6_6 1_555 1_555
O13_7 C8_6 1_555 1_555
Co1_7 N3_7 1_555 1_555
N1_7 C1_7 1_555 1_555
O1_7 C2_7 1_555 1_555
C1_7 C2_7 1_555 1_555
N3_7 N1_7 1_555 1_555
Co3_7 N1_7 1_555 1_555
N7_7 Co1_7 1_555 1_555
C7_7 N7_7 1_555 1_555
O10 C9_7 1_555 1_555
O8_7 C9_7 1_555 1_555
N8_7 N9_7 1_555 1_555
C9_7 C10_7 1_555 1_555
N9_7 Co3_7 1_555 1_555
C10_7 C7_7 1_555 1_555
Co5_4 O8_7 1_555 1_555
O12_7 Co3_7 1_555 1_555
N11_7 Co3_7 1_555 1_555
N12_7 Co1_7 1_555 1_555
N13_7 Co3_7 1_555 1_555
O1_7 Co3_7 1_555 1_555
N7_7 N9_7 1_555 1_555
N8_7 C10_7 1_555 1_555
N8_7 Co5_4 1_555 1_555
N12_7 N13_7 1_555 1_555
O10_2 C3_7 1_555 1_555
O3_7 C3_7 1_555 1_555
C3_7 C4_7 1_555 1_555
N2_7 C4_7 1_555 1_555
C8_7 O6_7 1_555 1_555
O13 C8_7 1_555 1_555
Co1_8 N3_8 1_555 1_555
N1_8 C1_8 1_555 1_555
O1_8 C2_8 1_555 1_555
C1_8 C2_8 1_555 1_555
C2_8 O13_4 1_555 1_555
O10_4 C3_8 1_555 1_555
O3_8 C3_8 1_555 1_555
N2_8 N3_8 1_555 1_555
C3_8 C4_8 1_555 1_555
N3_8 N1_8 1_555 1_555
C4_8 C1_8 1_555 1_555
Co3_8 N1_8 1_555 1_555
N7_8 Co1_8 1_555 1_555
C7_8 N7_8 1_555 1_555
N9_8 Co3_8 1_555 1_555
O12_8 Co3_8 1_555 1_555
N11_8 Co3_8 1_555 1_555
N12_8 Co1_8 1_555 1_555
N13_8 Co3_8 1_555 1_555
O1_8 Co3_8 1_555 1_555
N2_8 C4_8 1_555 1_555
N7_8 N9_8 1_555 1_555
N12_8 N13_8 1_555 1_555
O10_3 C9_8 1_555 1_555
O8_8 C9_8 1_555 1_555
C9_8 C10_8 1_555 1_555
Co5_2 O8_8 1_555 1_555
N8_8 C10_8 1_555 1_555
N8_8 Co5_2 1_555 1_555
C8_8 O6_8 1_555 1_555
Co4 N3_9 1_555 1_555
Co2_5 O2_5 1_555 1_555
N1_9 C1_9 1_555 1_555
O1_9 C2_9 1_555 1_555
C1_9 C2_9 1_555 1_555
C2_9 O4_5 1_555 1_555
O2_5 C3_9 1_555 1_555
O11 C3_9 1_555 1_555
N10 N3_9 1_555 1_555
O4_5 Co2_5 1_555 1_555
C3_9 C4_9 1_555 1_555
N3_9 N1_9 1_555 1_555
C4_9 C1_9 1_555 1_555
N4_9 Co2_5 1_555 1_555
O5_9 Co2_5 1_555 1_555
N13_6 C5_9 1_555 1_555
C5_9 N4_9 1_555 1_555
H1_9 C5_9 1_555 1_555
H2_9 O5_9 1_555 1_555
C6_9 N4_9 1_555 1_555
H3_9 C6_9 1_555 1_555
H4_9 O5_9 1_555 1_555
Co5_4 N1_9 1_555 1_555
N7_9 Co4 1_555 1_555
O6_9 Co4 1_555 1_555
C7_9 N7_9 1_555 1_555
C8_9 O6_9 1_555 1_555
O7_5 C9_9 1_555 1_555
O12_7 C9_9 1_555 1_555
N11_7 N9_9 1_555 1_555
O9_5 C8_9 1_555 1_555
C9_9 C10_9 1_555 1_555
N9_9 Co5_4 1_555 1_555
C10_9 C7_9 1_555 1_555
Co8_5 O7_5 1_555 1_555
O13_9 Co2_5 1_555 1_555
O1_9 Co5_4 1_555 1_555
N10 C4_9 1_555 1_555
N12_6 C6_9 1_555 1_555
N7_9 N9_9 1_555 1_555
C7_9 C8_9 1_555 1_555
N11_7 C10_9 1_555 1_555
O9_5 Co8_5 1_555 1_555
N4_10 Co8_5 1_555 1_555
O5_10 Co8_5 1_555 1_555
N12_4 C5_10 1_555 1_555
C5_10 N4_10 1_555 1_555
H1_10 C5_10 1_555 1_555
H2_10 O5_10 1_555 1_555
C6_10 N4_10 1_555 1_555
H3_10 C6_10 1_555 1_555
H4_10 O5_10 1_555 1_555
O10_10 Co8_5 1_555 1_555
O13_10 Co8_5 1_555 1_555
N13_4 C6_10 1_555 1_555
Co6_4 N3_10 1_555 1_555
Co2_6 O2_6 1_555 1_555
N1_10 C1_10 1_555 1_555
O1_10 C2_10 1_555 1_555
C1_10 C2_10 1_555 1_555
C2_10 O4_6 1_555 1_555
O2_6 C3_10 1_555 1_555
O11_4 C3_10 1_555 1_555
N10_4 N3_10 1_555 1_555
O4_6 Co2_6 1_555 1_555
C3_10 C4_10 1_555 1_555
N3_10 N1_10 1_555 1_555
C4_10 C1_10 1_555 1_555
N4_11 Co2_6 1_555 1_555
O5_11 Co2_6 1_555 1_555
N13_7 C5_11 1_555 1_555
C5_11 N4_11 1_555 1_555
H1_11 C5_11 1_555 1_555
H2_11 O5_11 1_555 1_555
C6_11 N4_11 1_555 1_555
H3_11 C6_11 1_555 1_555
H4_11 O5_11 1_555 1_555
Co5_6 N1_10 1_555 1_555
N7_10 Co6_4 1_555 1_555
O6_10 Co6_4 1_555 1_555
C7_10 N7_10 1_555 1_555
C8_10 O6_10 1_555 1_555
O7_6 C9_10 1_555 1_555
O12_6 C9_10 1_555 1_555
N11_6 N9_10 1_555 1_555
O9_6 C8_10 1_555 1_555
C9_10 C10_10 1_555 1_555
N9_10 Co5_6 1_555 1_555
C10_10 C7_10 1_555 1_555
Co8_6 O7_6 1_555 1_555
O13_11 Co2_6 1_555 1_555
O1_10 Co5_6 1_555 1_555
N10_4 C4_10 1_555 1_555
N12_7 C6_11 1_555 1_555
N7_10 N9_10 1_555 1_555
C7_10 C8_10 1_555 1_555
N11_6 C10_10 1_555 1_555
O9_6 Co8_6 1_555 1_555
N4_12 Co8_6 1_555 1_555
O5_12 Co8_6 1_555 1_555
N12 C5_12 1_555 1_555
C5_12 N4_12 1_555 1_555
H1_12 C5_12 1_555 1_555
H2_12 O5_12 1_555 1_555
C6_12 N4_12 1_555 1_555
H3_12 C6_12 1_555 1_555
H4_12 O5_12 1_555 1_555
O10_12 Co8_6 1_555 1_555
O13_12 Co8_6 1_555 1_555
N13 C6_12 1_555 1_555
Co2_7 O2_7 1_555 1_555
O2_7 C3_11 1_555 1_555
O11_3 C3_11 1_555 1_555
O4_7 Co2_7 1_555 1_555
C3_11 C4_11 1_555 1_555
N4_13 Co2_7 1_555 1_555
O5_13 Co2_7 1_555 1_555
N13_8 C5_13 1_555 1_555
C5_13 N4_13 1_555 1_555
H1_13 C5_13 1_555 1_555
C6_13 N4_13 1_555 1_555
H3_13 C6_13 1_555 1_555
O13_13 Co2_7 1_555 1_555
N10_3 C4_11 1_555 1_555
N12_8 C6_13 1_555 1_555
N1_11 C1_11 1_555 1_555
O1_11 C2_11 1_555 1_555
C1_11 C2_11 1_555 1_555
N3_11 N1_11 1_555 1_555
C7_11 N7_11 1_555 1_555
C8_11 O6_11 1_555 1_555
O7_7 C9_11 1_555 1_555
O12_5 C9_11 1_555 1_555
N11_5 N9_11 1_555 1_555
O9_7 C8_11 1_555 1_555
C9_11 C10_11 1_555 1_555
C10_11 C7_11 1_555 1_555
Co8_7 O7_7 1_555 1_555
N7_11 N9_11 1_555 1_555
C7_11 C8_11 1_555 1_555
N11_5 C10_11 1_555 1_555
O9_7 Co8_7 1_555 1_555
N4_14 Co8_7 1_555 1_555
O5_14 Co8_7 1_555 1_555
N12_2 C5_14 1_555 1_555
C5_14 N4_14 1_555 1_555
H1_14 C5_14 1_555 1_555
C6_14 N4_14 1_555 1_555
H3_14 C6_14 1_555 1_555
O10_14 Co8_7 1_555 1_555
O13_14 Co8_7 1_555 1_555
N13_2 C6_14 1_555 1_555
O7_8 C9_12 1_555 1_555
O12_8 C9_12 1_555 1_555
C9_12 C10_12 1_555 1_555
Co8_8 O7_8 1_555 1_555
N11_8 C10_12 1_555 1_555
O9_8 Co8_8 1_555 1_555
Co6_2 N3_12 1_555 1_555
Co2_8 O2_8 1_555 1_555
N1_12 C1_12 1_555 1_555
O1_12 C2_12 1_555 1_555
C1_12 C2_12 1_555 1_555
C2_12 O4_8 1_555 1_555
O2_8 C3_12 1_555 1_555
O11_2 C3_12 1_555 1_555
N10_2 N3_12 1_555 1_555
O4_8 Co2_8 1_555 1_555
C3_12 C4_12 1_555 1_555
N3_12 N1_12 1_555 1_555
C4_12 C1_12 1_555 1_555
N4_15 Co2_8 1_555 1_555
O5_15 Co2_8 1_555 1_555
N13_5 C5_15 1_555 1_555
C5_15 N4_15 1_555 1_555
H1_15 C5_15 1_555 1_555
H2_15 O5_15 1_555 1_555
C6_15 N4_15 1_555 1_555
H3_15 C6_15 1_555 1_555
H4_15 O5_15 1_555 1_555
Co5_2 N1_12 1_555 1_555
N7_12 Co6_2 1_555 1_555
O6_12 Co6_2 1_555 1_555
C7_12 N7_12 1_555 1_555
C8_12 O6_12 1_555 1_555
N9_12 Co5_2 1_555 1_555
O13_15 Co2_8 1_555 1_555
O1_12 Co5_2 1_555 1_555
N10_2 C4_12 1_555 1_555
N12_5 C6_15 1_555 1_555
N7_12 N9_12 1_555 1_555
C7_12 C8_12 1_555 1_555
N4_16 Co8_8 1_555 1_555
O5_16 Co8_8 1_555 1_555
N12_3 C5_16 1_555 1_555
C5_16 N4_16 1_555 1_555
H1_16 C5_16 1_555 1_555
H2_16 O5_16 1_555 1_555
C6_16 N4_16 1_555 1_555
H3_16 C6_16 1_555 1_555
H4_16 O5_16 1_555 1_555
O10_16 Co8_8 1_555 1_555
O13_16 Co8_8 1_555 1_555
N13_3 C6_16 1_555 1_555
C8_13 O6_13 1_555 1_555
O13_13 C8_13 1_555 1_555
N1_13 C1_13 1_555 1_555
O1_13 C2_13 1_555 1_555
C1_13 C2_13 1_555 1_555
C2_13 O13_14 1_555 1_555
O10_14 C3_13 1_555 1_555
O11_5 C3_13 1_555 1_555
N10_5 N3_13 1_555 1_555
C3_13 C4_13 1_555 1_555
N3_13 N1_13 1_555 1_555
C4_13 C1_13 1_555 1_555
C7_13 N7_13 1_555 1_555
O10_13 C9_13 1_555 1_555
O12_3 C9_13 1_555 1_555
N11_3 N9_13 1_555 1_555
C9_13 C10_13 1_555 1_555
C10_13 C7_13 1_555 1_555
N10_5 C4_13 1_555 1_555
N7_13 N9_13 1_555 1_555
N11_3 C10_13 1_555 1_555
C8_14 O6_14 1_555 1_555
O13_15 C8_14 1_555 1_555
Co5 N3_14 1_555 1_555
N1_14 C1_14 1_555 1_555
O1_14 C2_14 1_555 1_555
C1_14 C2_14 1_555 1_555
C2_14 O13_16 1_555 1_555
O10_16 C3_14 1_555 1_555
O11_8 C3_14 1_555 1_555
N10_8 N3_14 1_555 1_555
C3_14 C4_14 1_555 1_555
N3_14 N1_14 1_555 1_555
C4_14 C1_14 1_555 1_555
Co6 N1_14 1_555 1_555
N7_14 Co5 1_555 1_555
C7_14 N7_14 1_555 1_555
O10_15 C9_14 1_555 1_555
O12_2 C9_14 1_555 1_555
N11_2 N9_14 1_555 1_555
C9_14 C10_14 1_555 1_555
N9_14 Co6 1_555 1_555
C10_14 C7_14 1_555 1_555
O1_14 Co6 1_555 1_555
N10_8 C4_14 1_555 1_555
N7_14 N9_14 1_555 1_555
N11_2 C10_14 1_555 1_555
C8_15 O6_15 1_555 1_555
O13_9 C8_15 1_555 1_555
O10_10 C3_15 1_555 1_555
O11_7 C3_15 1_555 1_555
C3_15 C4_15 1_555 1_555
N10_7 C4_15 1_555 1_555
Co5_3 N3_15 1_555 1_555
N1_15 C1_15 1_555 1_555
O1_15 C2_15 1_555 1_555
C1_15 C2_15 1_555 1_555
N3_15 N1_15 1_555 1_555
Co7 N1_15 1_555 1_555
N7_15 Co5_3 1_555 1_555
C7_15 N7_15 1_555 1_555
O10_9 C9_15 1_555 1_555
O12 C9_15 1_555 1_555
N11 N9_15 1_555 1_555
C9_15 C10_15 1_555 1_555
N9_15 Co7 1_555 1_555
C10_15 C7_15 1_555 1_555
O1_15 Co7 1_555 1_555
N7_15 N9_15 1_555 1_555
N11 C10_15 1_555 1_555
C8_16 O6_16 1_555 1_555
O10_11 C9_16 1_555 1_555
O12_4 C9_16 1_555 1_555
C9_16 C10_16 1_555 1_555
N11_4 C10_16 1_555 1_555
Co5_5 N3_16 1_555 1_555
N1_16 C1_16 1_555 1_555
O1_16 C2_16 1_555 1_555
C1_16 C2_16 1_555 1_555
C2_16 O13_12 1_555 1_555
O10_12 C3_16 1_555 1_555
O11_6 C3_16 1_555 1_555
N10_6 N3_16 1_555 1_555
C3_16 C4_16 1_555 1_555
N3_16 N1_16 1_555 1_555
C4_16 C1_16 1_555 1_555
Co6_3 N1_16 1_555 1_555
N7_16 Co5_5 1_555 1_555
C7_16 N7_16 1_555 1_555
N9_16 Co6_3 1_555 1_555
O1_16 Co6_3 1_555 1_555
N10_6 C4_16 1_555 1_555
N7_16 N9_16 1_555 1_555
N14 H5 1_555 1_555
C11 N14 1_555 1_555
H6 C11 1_555 1_555
H7 C11 1_555 1_555
H8 C11 1_555 1_555
H9 N14 1_555 1_555
C12 N14 1_555 1_555
H10 C12 1_555 1_555
H11 C12 1_555 1_555
H12 C12 1_555 1_555
N14_2 H5_2 1_555 1_555
C11_2 N14_2 1_555 1_555
H6_2 C11_2 1_555 1_555
H7_2 C11_2 1_555 1_555
H8_2 C11_2 1_555 1_555
H9_2 N14_2 1_555 1_555
C12_2 N14_2 1_555 1_555
H10_2 C12_2 1_555 1_555
H11_2 C12_2 1_555 1_555
H12_2 C12_2 1_555 1_555
N14_3 H5_3 1_555 1_555
C11_3 N14_3 1_555 1_555
H6_3 C11_3 1_555 1_555
H7_3 C11_3 1_555 1_555
H8_3 C11_3 1_555 1_555
H9_3 N14_3 1_555 1_555
C12_3 N14_3 1_555 1_555
H10_3 C12_3 1_555 1_555
H11_3 C12_3 1_555 1_555
H12_3 C12_3 1_555 1_555
N14_4 H5_4 1_555 1_555
C11_4 N14_4 1_555 1_555
H6_4 C11_4 1_555 1_555
H7_4 C11_4 1_555 1_555
H8_4 C11_4 1_555 1_555
H9_4 N14_4 1_555 1_555
C12_4 N14_4 1_555 1_555
H10_4 C12_4 1_555 1_555
H11_4 C12_4 1_555 1_555
H12_4 C12_4 1_555 1_555
N14_5 H5_5 1_555 1_555
C11_5 N14_5 1_555 1_555
H6_5 C11_5 1_555 1_555
H7_5 C11_5 1_555 1_555
H8_5 C11_5 1_555 1_555
H9_5 N14_5 1_555 1_555
C12_5 N14_5 1_555 1_555
H10_5 C12_5 1_555 1_555
H11_5 C12_5 1_555 1_555
H12_5 C12_5 1_555 1_555
C11_6 N14_6 1_555 1_555
H6_6 C11_6 1_555 1_555
H7_6 C11_6 1_555 1_555
H8_6 C11_6 1_555 1_555
C12_6 N14_6 1_555 1_555
H10_6 C12_6 1_555 1_555
H11_6 C12_6 1_555 1_555
H12_6 C12_6 1_555 1_555
N14_7 H5_7 1_555 1_555
C11_7 N14_7 1_555 1_555
H6_7 C11_7 1_555 1_555
H7_7 C11_7 1_555 1_555
H8_7 C11_7 1_555 1_555
H9_7 N14_7 1_555 1_555
C12_7 N14_7 1_555 1_555
H10_7 C12_7 1_555 1_555
H11_7 C12_7 1_555 1_555
H12_7 C12_7 1_555 1_555
C11_8 N14_8 1_555 1_555
H6_8 C11_8 1_555 1_555
H7_8 C11_8 1_555 1_555
H8_8 C11_8 1_555 1_555
C12_8 N14_8 1_555 1_555
H10_8 C12_8 1_555 1_555
H11_8 C12_8 1_555 1_555
H12_8 C12_8 1_555 1_555
N14_9 H5_9 1_555 1_555
C11_9 N14_9 1_555 1_555
H6_9 C11_9 1_555 1_555
H7_9 C11_9 1_555 1_555
H8_9 C11_9 1_555 1_555
H9_9 N14_9 1_555 1_555
C12_9 N14_9 1_555 1_555
H10_9 C12_9 1_555 1_555
H11_9 C12_9 1_555 1_555
H12_9 C12_9 1_555 1_555
N14_10 H5_10 1_555 1_555
C11_10 N14_10 1_555 1_555
H6_10 C11_10 1_555 1_555
H7_10 C11_10 1_555 1_555
H8_10 C11_10 1_555 1_555
H9_10 N14_10 1_555 1_555
C12_10 N14_10 1_555 1_555
H10_10 C12_10 1_555 1_555
H11_10 C12_10 1_555 1_555
H12_10 C12_10 1_555 1_555
N14_11 H5_11 1_555 1_555
C11_11 N14_11 1_555 1_555
H6_11 C11_11 1_555 1_555
H7_11 C11_11 1_555 1_555
H8_11 C11_11 1_555 1_555
H9_11 N14_11 1_555 1_555
C12_11 N14_11 1_555 1_555
H10_11 C12_11 1_555 1_555
H11_11 C12_11 1_555 1_555
H12_11 C12_11 1_555 1_555
N14_12 H5_12 1_555 1_555
C11_12 N14_12 1_555 1_555
H6_12 C11_12 1_555 1_555
H7_12 C11_12 1_555 1_555
H8_12 C11_12 1_555 1_555
H9_12 N14_12 1_555 1_555
C12_12 N14_12 1_555 1_555
H10_12 C12_12 1_555 1_555
H11_12 C12_12 1_555 1_555
H12_12 C12_12 1_555 1_555
N14_13 H5_13 1_555 1_555
C11_13 N14_13 1_555 1_555
H6_13 C11_13 1_555 1_555
H7_13 C11_13 1_555 1_555
H8_13 C11_13 1_555 1_555
H9_13 N14_13 1_555 1_555
C12_13 N14_13 1_555 1_555
H10_13 C12_13 1_555 1_555
H11_13 C12_13 1_555 1_555
H12_13 C12_13 1_555 1_555
C11_14 N14_14 1_555 1_555
H6_14 C11_14 1_555 1_555
H7_14 C11_14 1_555 1_555
H8_14 C11_14 1_555 1_555
C12_14 N14_14 1_555 1_555
H10_14 C12_14 1_555 1_555
H11_14 C12_14 1_555 1_555
H12_14 C12_14 1_555 1_555
N14_15 H5_15 1_555 1_555
C11_15 N14_15 1_555 1_555
H6_15 C11_15 1_555 1_555
H7_15 C11_15 1_555 1_555
H8_15 C11_15 1_555 1_555
H9_15 N14_15 1_555 1_555
C12_15 N14_15 1_555 1_555
H10_15 C12_15 1_555 1_555
H11_15 C12_15 1_555 1_555
H12_15 C12_15 1_555 1_555
C11_16 N14_16 1_555 1_555
H6_16 C11_16 1_555 1_555
H7_16 C11_16 1_555 1_555
H8_16 C11_16 1_555 1_555
C12_16 N14_16 1_555 1_555
H10_16 C12_16 1_555 1_555
H11_16 C12_16 1_555 1_555
H12_16 C12_16 1_555 1_555

#END
