
###############################################################################
#
# This file contains modified crystal structure data generated from the
# MOF subset of the Cambridge Structural Database (CSD) v543 
# hosted by the Cambridge Crystallographic Data Centre (CCDC).
#
# This work is licensed under the Creative Commons
# Attribution-NonCommercial-ShareAlike 4.0 International License.
# To view a copy of this license, visit
# http://creativecommons.org/licenses/by-nc-sa/4.0/
# or send a letter to
# Creative Commons, PO Box 1866, Mountain View, CA 94042, USA.
#
# CIF created using the CSD Python API on 29 September 2022
# The structure has been converted into the P1 space group
# The structure has a 3D framework
# The original CSD entry IGAHED01 is in the triclinic crystal system
# The framework has been calculated to contain at least 10.0% void space
# The void calculation uses a probe of radius 1.32A, grid spacing 0.4
#
###############################################################################

data_IGAHED01
_chemical_formula_moiety         '(C10 H10 Co4 O12)n'
_symmetry_cell_setting           triclinic
_symmetry_space_group_name_H-M   'P 1'
_symmetry_Int_Tables_number      1
_space_group_name_Hall           'P 1'
loop_
_symmetry_equiv_pos_site_id
_symmetry_equiv_pos_as_xyz
1 x,y,z
_cell_length_a                   6.9362(7)
_cell_length_b                   7.4559(6)
_cell_length_c                   8.2797(7)
_cell_angle_alpha                90.342(8)
_cell_angle_beta                 109.848(7)
_cell_angle_gamma                93.161(7)
_cell_volume                     402.002
loop_
_atom_site_label
_atom_site_type_symbol
_atom_site_fract_x
_atom_site_fract_y
_atom_site_fract_z
Co3 Co 0.0000 0.0000 0.5000
Co3_2 Co 0.0000 1.0000 0.5000
C5 C 0.4549(4) 0.1741(4) 0.0238(3)
H5 H 0.4241 0.2912 0.0399
Co3_3 Co 1.0000 0.0000 0.5000
Co6 Co 0.5000 0.5000 0.5000
O11 O 0.7355(3) 0.1283(3) 0.4622(3)
O13 O 0.4430(3) 0.2620(3) 0.3501(2)
C8 C 0.5360(4) 0.0677(4) 0.1667(3)
C9 C 0.5754(4) 0.1563(4) 0.3404(3)
O1 O 0.1694(3) 0.2325(3) 0.6119(3)
O2 O 0.4875(3) 0.3576(3) 0.7123(3)
O5 O 0.0391(4) 0.0928(4) 0.2669(3)
H1 H 0.151 0.1538 0.2826
O6 O 0.1793(3) 0.5155(3) 0.3953(3)
H3 H 0.1224 0.6092 0.404
H4 H 0.1421 0.4397 0.4559
C1 C 0.3523(4) 0.2411(4) 0.7155(3)
C2 C 0.4193(4) 0.1081(4) 0.8574(3)
O10 O 0.5125(3) 0.6424(3) 0.2877(3)
O14 O 0.5570(3) 0.7380(3) 0.6499(2)
O17 O 0.8207(3) 0.4845(3) 0.6047(3)
H8 H 0.8776 0.3908 0.596
H9 H 0.8579 0.5603 0.5441
Co3_4 Co 1.0000 1.0000 0.5000
O7 O 0.8306(3) 0.7675(3) 0.3881(3)
C6 C 0.6477(4) 0.7589(4) 0.2845(3)
C7 C 0.5807(4) 0.8919(4) 0.1426(3)
O3 O 0.2645(3) 0.8717(3) 0.5378(3)
C3 C 0.4640(4) 0.9323(4) 0.8333(3)
C4 C 0.4246(4) 0.8437(4) 0.6596(3)
H7 H 0.0337 0.9114 0.8344
C10 C 0.5451(4) 0.8259(4) 0.9762(3)
H10 H 0.5759 0.7088 0.9601
H2 H 0.9663 0.0886 0.1656
O16 O 0.9609(4) 0.9072(4) 0.7331(3)
H6 H 0.849 0.8462 0.7174
loop_
_geom_bond_atom_site_label_1
_geom_bond_atom_site_label_2
_geom_bond_site_symmetry_1
_geom_bond_site_symmetry_2
H5 C5 1_555 1_555
Co6 O13 1_555 1_555
O11 Co3_3 1_555 1_555
O13 C9 1_555 1_555
C8 C5 1_555 1_555
C9 O11 1_555 1_555
C8 C9 1_555 1_555
Co3 O1 1_555 1_555
Co6 O2 1_555 1_555
O1 C1 1_555 1_555
O2 C1 1_555 1_555
O5 Co3 1_555 1_555
H1 O5 1_555 1_555
O6 Co6 1_555 1_555
H3 O6 1_555 1_555
H4 O6 1_555 1_555
C1 C2 1_555 1_555
O10 Co6 1_555 1_555
O14 Co6 1_555 1_555
O17 Co6 1_555 1_555
H8 O17 1_555 1_555
H9 O17 1_555 1_555
Co3_4 O7 1_555 1_555
O7 C6 1_555 1_555
O10 C6 1_555 1_555
C6 C7 1_555 1_555
O3 Co3_2 1_555 1_555
O14 C4 1_555 1_555
C3 C4 1_555 1_555
C4 O3 1_555 1_555
C10 C3 1_555 1_555
H10 C10 1_555 1_555
O16 Co3_4 1_555 1_555
H6 O16 1_555 1_555

#END
