
###############################################################################
#
# This file contains modified crystal structure data generated from the
# MOF subset of the Cambridge Structural Database (CSD) v543 
# hosted by the Cambridge Crystallographic Data Centre (CCDC).
#
# This work is licensed under the Creative Commons
# Attribution-NonCommercial-ShareAlike 4.0 International License.
# To view a copy of this license, visit
# http://creativecommons.org/licenses/by-nc-sa/4.0/
# or send a letter to
# Creative Commons, PO Box 1866, Mountain View, CA 94042, USA.
#
# CIF created using the CSD Python API on 29 September 2022
# The structure has been converted into the P1 space group
# The structure has a 3D framework
# The original CSD entry IGAHED is in the triclinic crystal system
# The framework has been calculated to contain at least 10.0% void space
# The void calculation uses a probe of radius 1.32A, grid spacing 0.4
# H atom positions have been added when not included in the experimental data
# Generated hydrogen atom positions removed from atoms on special positions
#
###############################################################################

data_IGAHED
_chemical_formula_moiety         '(C20 H32 Co10 O24)n'
_symmetry_cell_setting           triclinic
_symmetry_space_group_name_H-M   'P 1'
_symmetry_Int_Tables_number      1
_space_group_name_Hall           'P 1'
loop_
_symmetry_equiv_pos_site_id
_symmetry_equiv_pos_as_xyz
1 x,y,z
_cell_length_a                   7.4383(4)
_cell_length_b                   8.8006(5)
_cell_length_c                   12.4710(8)
_cell_angle_alpha                100.605(5)
_cell_angle_beta                 91.564(5)
_cell_angle_gamma                92.844(5)
_cell_volume                     800.886
loop_
_atom_site_label
_atom_site_type_symbol
_atom_site_fract_x
_atom_site_fract_y
_atom_site_fract_z
Co2 Co 0.0000 0.0000 0.0000
O28 O 0.2322(4) 0.1397(4) 0.0295(3)
Co2_2 Co 0.0000 0.0000 1.0000
Co2_3 Co 0.0000 1.0000 0.0000
O8 O 0.0938(6) 0.9035(5) 0.1371(3)
C12 C 0.1097(6) 0.3878(5) 0.0296(4)
C15 C 0.2415(6) 0.2832(6) 0.0684(4)
O15 O 0.3578(5) 0.3504(4) 0.1377(3)
Co4 Co 0.50025(9) 0.24947(8) 0.24927(6)
O22 O 0.4856(5) 0.4626(4) 0.3577(3)
O23 O 0.5150(5) 0.0368(4) 0.1416(3)
O31 O 0.6390(5) 0.1498(4) 0.3637(3)
O32 O 0.7390(4) 0.3527(4) 0.2032(3)
O33 O 0.2595(5) 0.1471(4) 0.2958(3)
H15 H 0.579358 0.0536402 0.0756892
Co2_4 Co 0.0000 1.0000 1.0000
O5 O 0.2610(4) 0.6473(4) 0.7968(3)
O7 O 0.1274(5) 0.8499(4) 0.8863(3)
C6 C 0.0685(6) 0.6012(5) 0.9341(4)
C10 C 0.1570(7) 0.7072(6) 0.8683(4)
C11 C 0.1748(6) 0.4905(6) 0.9652(4)
H3 H 0.2952 0.4845 0.9419
Co5 Co 0.49975(9) 0.75053(8) 0.75073(6)
H16 H 0.581216 0.964418 0.178447
Co2_5 Co 1.0000 0.0000 0.0000
O27 O 0.8726(5) 0.1501(4) 0.1137(3)
Co2_6 Co 1.0000 0.0000 1.0000
C18 C 0.0672(6) 0.1008(5) 0.4348(4)
C19 C 0.1570(7) 0.2088(6) 0.3677(4)
O18 O 0.1320(5) 0.3503(4) 0.3888(3)
O21 O 0.9062(6) 0.0965(5) 0.8629(3)
Co10 Co 0.0000 0.5000 0.5000
H9 H 0.608608 0.00809079 0.880183
H10 H 0.418784 0.0355822 0.821553
Co2_7 Co 1.0000 1.0000 0.0000
C8 C 0.8252(6) 0.5095(6) 0.0348(4)
H2 H 0.7048 0.5155 0.0581
C13 C 0.9315(6) 0.3988(5) 0.0659(4)
C14 C 0.8430(7) 0.2928(6) 0.1317(4)
Co2_8 Co 1.0000 1.0000 1.0000
O1 O 0.5144(5) 0.5374(4) 0.6423(3)
O2 O 0.4850(5) 0.9632(4) 0.8584(3)
O3 O 0.6422(5) 0.6496(4) 0.8623(3)
O4 O 0.3610(5) 0.8502(4) 0.6363(3)
O9 O 0.7678(4) 0.8603(4) 0.9705(3)
O10 O 0.0908(6) 0.4027(5) 0.6380(3)
O11 O 0.2328(4) 0.6404(4) 0.5280(3)
C2 C 0.1744(6) 0.9891(6) 0.4658(4)
C3 C 0.1071(6) 0.8888(5) 0.5305(4)
C4 C 0.2404(6) 0.7844(6) 0.5685(4)
C7 C 0.8903(6) 0.6122(5) 0.9704(4)
C9 C 0.7585(6) 0.7168(6) 0.9316(4)
H1 H 0.2945 0.9818 0.4422
O26 O 0.7405(5) 0.8529(4) 0.7042(3)
C16 C 0.8256(6) 0.0109(6) 0.5342(4)
C17 C 0.8929(6) 0.1112(5) 0.4695(4)
C20 C 0.7596(6) 0.2156(6) 0.4315(4)
O20 O 0.7672(4) 0.3596(4) 0.4720(3)
H4 H 0.7055 0.0182 0.5578
Co10_2 Co 1.0000 0.5000 0.5000
O12 O 0.8680(5) 0.6497(4) 0.6112(3)
C1 C 0.9328(6) 0.8992(5) 0.5652(4)
C5 C 0.8430(7) 0.7912(6) 0.6323(4)
O24 O 0.9092(6) 0.5973(5) 0.3620(3)
H9_2 H 0.391392 0.991909 0.119817
H15_2 H 0.420642 0.94636 0.924311
loop_
_geom_bond_atom_site_label_1
_geom_bond_atom_site_label_2
_geom_bond_site_symmetry_1
_geom_bond_site_symmetry_2
O28 Co2 1_555 1_555
O8 Co2_3 1_555 1_555
C15 C12 1_555 1_555
O15 C15 1_555 1_555
O28 C15 1_555 1_555
Co4 O15 1_555 1_555
O22 Co4 1_555 1_555
O23 Co4 1_555 1_555
O31 Co4 1_555 1_555
O32 Co4 1_555 1_555
O33 Co4 1_555 1_555
O23 H15 1_555 1_555
Co2_4 O7 1_555 1_555
O5 C10 1_555 1_555
O7 C10 1_555 1_555
C10 C6 1_555 1_555
C11 C6 1_555 1_555
H3 C11 1_555 1_555
Co5 O5 1_555 1_555
O27 Co2_5 1_555 1_555
C19 C18 1_555 1_555
O33 C19 1_555 1_555
O18 C19 1_555 1_555
O21 Co2_6 1_555 1_555
Co10 O18 1_555 1_555
C8 H2 1_555 1_555
C13 C8 1_555 1_555
C14 C13 1_555 1_555
O32 C14 1_555 1_555
O27 C14 1_555 1_555
Co5 O1 1_555 1_555
Co10 O10 1_555 1_555
O2 Co5 1_555 1_555
O3 Co5 1_555 1_555
O4 Co5 1_555 1_555
O9 Co2_8 1_555 1_555
O11 Co10 1_555 1_555
C2 C3 1_555 1_555
C3 C4 1_555 1_555
C4 O4 1_555 1_555
C9 O3 1_555 1_555
H1 C2 1_555 1_555
O26 Co5 1_555 1_555
O9 C9 1_555 1_555
O11 C4 1_555 1_555
C7 C9 1_555 1_555
C17 C16 1_555 1_555
C20 C17 1_555 1_555
O31 C20 1_555 1_555
O20 C20 1_555 1_555
H4 C16 1_555 1_555
O20 Co10_2 1_555 1_555
O26 C5 1_555 1_555
O12 Co10_2 1_555 1_555
C5 O12 1_555 1_555
O24 Co10_2 1_555 1_555
C1 C5 1_555 1_555
O2 H15_2 1_555 1_555

#END
