
###############################################################################
#
# This file contains modified crystal structure data generated from the
# MOF subset of the Cambridge Structural Database (CSD) v543 
# hosted by the Cambridge Crystallographic Data Centre (CCDC).
#
# This work is licensed under the Creative Commons
# Attribution-NonCommercial-ShareAlike 4.0 International License.
# To view a copy of this license, visit
# http://creativecommons.org/licenses/by-nc-sa/4.0/
# or send a letter to
# Creative Commons, PO Box 1866, Mountain View, CA 94042, USA.
#
# CIF created using the CSD Python API on 29 September 2022
# The structure has been converted into the P1 space group
# The structure has a 3D framework
# The original CSD entry IGAHAB is in the hexagonal crystal system
# The framework has been calculated to contain at least 10.0% void space
# The void calculation uses a probe of radius 1.32A, grid spacing 0.4
# H atom positions have been added when not included in the experimental data
# Generated hydrogen atom positions removed from atoms on special positions
#
###############################################################################

data_IGAHAB
_chemical_formula_moiety         '(C84 H96 Cl24 Cr6 Cu9 N12 O31)n'
_symmetry_cell_setting           triclinic
_symmetry_space_group_name_H-M   'P 1'
_symmetry_Int_Tables_number      1
_space_group_name_Hall           'P 1'
loop_
_symmetry_equiv_pos_site_id
_symmetry_equiv_pos_as_xyz
1 x,y,z
_cell_length_a                   13.469(12)
_cell_length_b                   13.469(12)
_cell_length_c                   27.51(2)
_cell_angle_alpha                90
_cell_angle_beta                 90
_cell_angle_gamma                120
_cell_volume                     4322.07
loop_
_atom_site_label
_atom_site_type_symbol
_atom_site_fract_x
_atom_site_fract_y
_atom_site_fract_z
Cu1 Cu 0.2222(3) 0.11110(13) 0.0000
Cr1 Cr 0.5145(3) 0.3047(3) 0.2500
Cl1 Cl 0.0000 0.0000 0.0000
O1 O 0.3439(9) 0.2723(8) 0.2500
O2 O 0.4660(7) 0.1915(9) 0.1969(3)
N1 N 0.2008(9) 0.0005(10) 0.0550(4)
H1 H 0.1629 0.0132 0.0794
O3 O 0.6667 0.3333 0.2500
O4 O 0.5829(8) 0.1256(8) 0.1964(3)
C3 C 0.3009(8) 0.0015(11) 0.0766(4)
C4 C 0.3581(10) 0.0677(8) 0.1169(4)
H5 H 0.3337 0.1153 0.1312
C5 C 0.4514(9) 0.0637(8) 0.1361(3)
C7 C 0.5043(13) 0.1331(14) 0.1808(6)
H8 H 0.0717 0.2251 0.0438
C8 C 0.0729(9) 0.5033(14) 0.0747(4)
H9 H 0.1205 0.5753 0.0605
C9 C 0.0688(8) 0.4058(13) 0.0555(3)
H10 H 0.1136 0.4120 0.0283
C13 C 0.0067(10) 0.4943(12) 0.1150(4)
H12 H 0.0094 0.5601 0.1280
Cl6 Cl 0.2600(4) 0.2586(6) 0.05315(14)
Cr5 Cr 0.6953(3) 0.2098(4) 0.2500
Cr7 Cr 0.7902(4) 0.4855(3) 0.2500
O17 O 0.4660(7) 0.1915(9) 0.3031(3)
O24 O 0.5427(11) 0.4171(8) 0.1964(3)
O26 O 0.5427(11) 0.4171(8) 0.3036(3)
Cu1_2 Cu 0.2222(3) 0.11110(13) 1.0000
Cl1_2 Cl 0.0000 0.0000 1.0000
Cl2 Cl 0.2600(4) 0.0014(5) 0.94685(14)
O13 O 0.4660(7) 0.2745(11) 0.8031(3)
N5 N 0.2008(9) 0.2003(13) 0.9450(4)
H25 H 0.1629 0.1497 0.9206
H26 H 0.1534 0.2251 0.9562
O14 O 0.5829(8) 0.4573(11) 0.8036(3)
C29 C 0.4304(11) 0.5033(14) 0.9253(4)
H27 H 0.4548 0.5753 0.9395
C30 C 0.3370(10) 0.4058(13) 0.9445(3)
H28 H 0.2984 0.4120 0.9717
C31 C 0.3009(8) 0.2994(14) 0.9234(4)
C32 C 0.3581(10) 0.2904(13) 0.8831(4)
H29 H 0.3337 0.2184 0.8688
C33 C 0.4514(9) 0.3877(12) 0.8639(3)
C34 C 0.4876(7) 0.4943(12) 0.8850(4)
H30 H 0.5507 0.5601 0.8720
C35 C 0.5043(13) 0.3712(19) 0.8192(6)
Cr9 Cr 0.6953(3) 0.4855(3) 0.7500
Cr11 Cr 0.5145(3) 0.2098(4) 0.7500
Cl1_3 Cl 1.0000 0.0000 0.0000
Cu2 Cu 0.88890(13) 0.11110(33) 0.0000
O5 O 0.7277(8) 0.0716(12) 0.2500
O6 O 0.8085(9) 0.2745(11) 0.1969(3)
N2 N 0.9995(10) 0.2003(13) 0.0550(4)
H7 H 0.9868 0.1497 0.0794
O7 O 0.8744(8) 0.4573(11) 0.1964(3)
C10 C 0.9985(11) 0.2994(14) 0.0766(4)
C11 C 0.9323(8) 0.2904(13) 0.1169(4)
H11 H 0.8847 0.2184 0.1312
C12 C 0.9363(8) 0.3877(12) 0.1361(3)
C14 C 0.8669(14) 0.3712(19) 0.1808(6)
Cl7 Cl 0.7414(6) 0.0014(5) 0.05315(14)
O19 O 0.8085(9) 0.2745(11) 0.3031(3)
O25 O 0.5829(8) 0.1256(8) 0.3036(3)
Cl1_4 Cl 1.0000 0.0000 1.0000
Cu2_2 Cu 0.88890(13) 0.11110(33) 1.0000
Cl3 Cl 0.9986(5) 0.2586(6) 0.94685(14)
O15 O 0.7255(11) 0.1915(9) 0.8031(3)
N6 N 0.7997(13) 0.0005(10) 0.9450(4)
H31 H 0.8503 0.0132 0.9206
O16 O 0.5427(11) 0.1256(8) 0.8036(3)
C38 C 0.7006(14) 0.0015(11) 0.9234(4)
C39 C 0.7096(13) 0.0677(8) 0.8831(4)
H35 H 0.7816 0.1153 0.8688
C40 C 0.6123(12) 0.0637(8) 0.8639(3)
C42 C 0.6288(19) 0.1331(14) 0.8192(6)
Cr13 Cr 0.7902(4) 0.3047(3) 0.7500
Cl1_5 Cl 1.0000 1.0000 0.0000
Cu3 Cu 0.88890(33) 0.7778(3) 0.0000
O8 O 0.9284(12) 0.6561(9) 0.2500
O9 O 0.7255(11) 0.5340(7) 0.1969(3)
N3 N 0.7997(13) 0.7992(9) 0.0550(4)
H13 H 0.8503 0.8371 0.0794
H14 H 0.7749 0.8466 0.0438
C15 C 0.4967(14) 0.5696(11) 0.0747(4)
H15 H 0.4247 0.5452 0.0605
C16 C 0.5942(13) 0.6630(10) 0.0555(3)
H16 H 0.5880 0.7016 0.0283
C17 C 0.7006(14) 0.6991(8) 0.0766(4)
C18 C 0.7096(13) 0.6419(10) 0.1169(4)
H17 H 0.7816 0.6663 0.1312
C19 C 0.6123(12) 0.5486(9) 0.1361(3)
C20 C 0.5057(12) 0.5124(7) 0.1150(4)
H18 H 0.4399 0.4493 0.1280
C21 C 0.6288(19) 0.4957(13) 0.1808(6)
Cl5 Cl 0.9986(5) 0.7400(4) 0.05315(14)
O18 O 0.7255(11) 0.5340(7) 0.3031(3)
O27 O 0.8744(8) 0.4573(11) 0.3036(3)
Cl1_6 Cl 1.0000 1.0000 1.0000
Cu3_2 Cu 0.88890(33) 0.7778(3) 1.0000
Cl4 Cl 0.7414(6) 0.7400(4) 0.94685(14)
O11 O 0.8085(9) 0.5340(7) 0.8031(3)
N4 N 0.9995(10) 0.7992(9) 0.9450(4)
H19 H 0.9868 0.8371 0.9206
O12 O 0.8744(8) 0.4171(8) 0.8036(3)
C24 C 0.9985(11) 0.6991(8) 0.9234(4)
C25 C 0.9323(8) 0.6419(10) 0.8831(4)
H23 H 0.8847 0.6663 0.8688
C26 C 0.9363(8) 0.5486(9) 0.8639(3)
C28 C 0.8669(14) 0.4957(13) 0.8192(6)
H32 H 0.7749 0.9283 0.9562
C36 C 0.4967(14) 0.9271(9) 0.9253(4)
H33 H 0.4247 0.8795 0.9395
C37 C 0.5942(13) 0.9312(8) 0.9445(3)
H34 H 0.5880 0.8864 0.9717
C41 C 0.5057(12) 0.9933(10) 0.8850(4)
H36 H 0.4399 0.9906 0.8720
O8_2 O 0.3439(9) 0.0716(12) 0.7500
O18_2 O 0.4660(7) 0.2745(11) 0.6969(3)
O20 O 0.6667 0.3333 0.7500
O27_2 O 0.5427(11) 0.1256(8) 0.6964(3)
O5_2 O 0.9284(12) 0.2723(8) 0.7500
O19_2 O 0.7255(11) 0.1915(9) 0.6969(3)
O25_2 O 0.8744(8) 0.4171(8) 0.6964(3)
O1_2 O 0.7277(8) 0.6561(9) 0.7500
O17_2 O 0.8085(9) 0.5340(7) 0.6969(3)
O26_2 O 0.5829(8) 0.4573(11) 0.6964(3)
Cl1_7 Cl 0.0000 0.0000 0.5000
Cu2_3 Cu 0.22220(35) 0.11110(33) 0.5000
Cl3_2 Cl 0.2600(8) 0.2586(6) 0.44685(14)
N2_2 N 0.2008(16) 0.2003(13) 0.5550(4)
H7_2 H 0.1629 0.1497 0.5794
H8_2 H 0.1534 0.2251 0.5438
C8_2 C 0.4304(17) 0.5033(14) 0.5747(4)
H9_2 H 0.4548 0.5753 0.5605
C9_2 C 0.3370(15) 0.4058(13) 0.5555(3)
H10_2 H 0.2984 0.4120 0.5283
C10_2 C 0.3009(18) 0.2994(14) 0.5766(4)
C11_2 C 0.3581(15) 0.2904(13) 0.6169(4)
H11_2 H 0.3337 0.2184 0.6312
C12_2 C 0.4514(14) 0.3877(12) 0.6361(3)
C13_2 C 0.4876(16) 0.4943(12) 0.6150(4)
H12_2 H 0.5507 0.5601 0.6280
C14_2 C 0.5043(24) 0.3712(19) 0.6808(6)
H26_2 H 0.0717 0.2251 0.4562
C29_2 C 0.0729(18) 0.5033(14) 0.4253(4)
H27_2 H 0.1205 0.5753 0.4395
C30_2 C 0.0688(16) 0.4058(13) 0.4445(3)
H28_2 H 0.1136 0.4120 0.4717
C34_2 C 0.0067(14) 0.4943(12) 0.3850(4)
H30_2 H 0.0094 0.5601 0.3720
Cl7_2 Cl 0.2600(8) 0.0014(5) 0.55315(14)
N6_2 N 0.2008(16) 0.0005(10) 0.4450(4)
H31_2 H 0.1629 0.0132 0.4206
C38_2 C 0.3009(18) 0.0015(11) 0.4234(4)
C39_2 C 0.3581(15) 0.0677(8) 0.3831(4)
H35_2 H 0.3337 0.1153 0.3688
C40_2 C 0.4514(14) 0.0637(8) 0.3639(3)
C42_2 C 0.5043(24) 0.1331(14) 0.3192(6)
Cu1_3 Cu 0.88890(33) 0.11110(13) 0.5000
Cl1_8 Cl 1.0000 0.0000 0.5000
Cl2_2 Cl 0.7414(6) 0.0014(5) 0.44685(14)
N1_2 N 0.7997(13) 0.0005(10) 0.5550(4)
H1_2 H 0.8503 0.0132 0.5794
C3_2 C 0.7006(14) 0.0015(11) 0.5766(4)
C4_2 C 0.7096(13) 0.0677(8) 0.6169(4)
H5_2 H 0.7816 0.1153 0.6312
C5_2 C 0.6123(12) 0.0637(8) 0.6361(3)
C7_2 C 0.6288(19) 0.1331(14) 0.6808(6)
Cl6_2 Cl 0.9986(7) 0.2586(6) 0.55315(14)
N5_2 N 0.9995(16) 0.2003(13) 0.4450(4)
H25_2 H 0.9868 0.1497 0.4206
C31_2 C 0.9985(16) 0.2994(14) 0.4234(4)
C32_2 C 0.9323(16) 0.2904(13) 0.3831(4)
H29_2 H 0.8847 0.2184 0.3688
C33_2 C 0.9363(15) 0.3877(12) 0.3639(3)
C35_2 C 0.8669(23) 0.3712(19) 0.3192(6)
Cl1_9 Cl 1.0000 1.0000 0.5000
H2 H 0.7749 0.9283 0.5438
C1 C 0.4967(14) 0.9271(9) 0.5747(4)
H3 H 0.4247 0.8795 0.5605
C2 C 0.5942(13) 0.9312(8) 0.5555(3)
H4 H 0.5880 0.8864 0.5283
C6 C 0.5057(12) 0.9933(10) 0.6150(4)
H6 H 0.4399 0.9906 0.6280
Cu3_3 Cu 0.88890(45) 0.7778(3) 0.5000
Cl4_2 Cl 0.9986(7) 0.7400(4) 0.44685(14)
N3_2 N 0.9995(16) 0.7992(9) 0.5550(4)
H13_2 H 0.9868 0.8371 0.5794
C17_2 C 0.9985(16) 0.6991(8) 0.5766(4)
C18_2 C 0.9323(16) 0.6419(10) 0.6169(4)
H17_2 H 0.8847 0.6663 0.6312
C19_2 C 0.9363(15) 0.5486(9) 0.6361(3)
C21_2 C 0.8669(23) 0.4957(13) 0.6808(6)
Cl5_2 Cl 0.7414(6) 0.7400(4) 0.55315(14)
N4_2 N 0.7997(13) 0.7992(9) 0.4450(4)
H19_2 H 0.8503 0.8371 0.4206
H20 H 0.7749 0.8466 0.4562
C22 C 0.4967(14) 0.5696(11) 0.4253(4)
H21 H 0.4247 0.5452 0.4395
C23 C 0.5942(13) 0.6630(10) 0.4445(3)
H22 H 0.5880 0.7016 0.4717
C24_2 C 0.7006(14) 0.6991(8) 0.4234(4)
C25_2 C 0.7096(13) 0.6419(10) 0.3831(4)
H23_2 H 0.7816 0.6663 0.3688
C26_2 C 0.6123(12) 0.5486(9) 0.3639(3)
C27 C 0.5057(12) 0.5124(7) 0.3850(4)
H24 H 0.4399 0.4493 0.3720
C28_2 C 0.6288(19) 0.4957(13) 0.3192(6)
Cl1_10 Cl -0.0000 1.0000 0.0000
H2_2 H 0.1534 0.9283 0.0438
C1_2 C 0.4304(11) 0.9271(9) 0.0747(4)
H3_2 H 0.4548 0.8795 0.0605
C2_2 C 0.3370(10) 0.9312(8) 0.0555(3)
H4_2 H 0.2984 0.8864 0.0283
C6_2 C 0.4876(7) 0.9933(10) 0.1150(4)
H6_2 H 0.5507 0.9906 0.1280
Cl1_11 Cl -0.0000 1.0000 1.0000
H20_2 H 0.0717 0.8466 0.9562
C22_2 C 0.0729(9) 0.5696(11) 0.9253(4)
H21_2 H 0.1205 0.5452 0.9395
C23_2 C 0.0688(8) 0.6630(10) 0.9445(3)
H22_2 H 0.1136 0.7016 0.9717
C27_2 C 0.0067(10) 0.5124(7) 0.8850(4)
H24_2 H 0.0094 0.4493 0.8720
Cl1_12 Cl -0.0000 1.0000 0.5000
H14_2 H 0.0717 0.8466 0.5438
C15_2 C 0.0729(18) 0.5696(11) 0.5747(4)
H15_2 H 0.1205 0.5452 0.5605
C16_2 C 0.0688(16) 0.6630(10) 0.5555(3)
H16_2 H 0.1136 0.7016 0.5283
C20_2 C 0.0067(14) 0.5124(7) 0.6150(4)
H18_2 H 0.0094 0.4493 0.6280
H32_2 H 0.1534 0.9283 0.4562
C36_2 C 0.4304(17) 0.9271(9) 0.4253(4)
H33_2 H 0.4548 0.8795 0.4395
C37_2 C 0.3370(15) 0.9312(8) 0.4445(3)
H34_2 H 0.2984 0.8864 0.4717
C41_2 C 0.4876(16) 0.9933(10) 0.3850(4)
H36_2 H 0.5507 0.9906 0.3720
loop_
_geom_bond_atom_site_label_1
_geom_bond_atom_site_label_2
_geom_bond_site_symmetry_1
_geom_bond_site_symmetry_2
Cu1 Cl1 1_555 1_555
Cr1 O1 1_555 1_555
O2 Cr1 1_555 1_555
N1 Cu1 1_555 1_555
H1 N1 1_555 1_555
O3 Cr1 1_555 1_555
O4 C7 1_555 1_555
C3 N1 1_555 1_555
C4 C3 1_555 1_555
H5 C4 1_555 1_555
C5 C4 1_555 1_555
C7 O2 1_555 1_555
C8 H9 1_555 1_555
C9 C8 1_555 1_555
H10 C9 1_555 1_555
C13 C8 1_555 1_555
H12 C13 1_555 1_555
Cl6 Cu1 1_555 1_555
Cr5 O3 1_555 1_555
Cr7 O3 1_555 1_555
O17 Cr1 1_555 1_555
O24 Cr1 1_555 1_555
O26 Cr1 1_555 1_555
O4 Cr5 1_555 1_555
C5 C7 1_555 1_555
Cu1_2 Cl1_2 1_555 1_555
Cl2 Cu1_2 1_555 1_555
O13 C35 1_555 1_555
N5 Cu1_2 1_555 1_555
H25 N5 1_555 1_555
H26 N5 1_555 1_555
O14 C35 1_555 1_555
C29 H27 1_555 1_555
C30 C29 1_555 1_555
H28 C30 1_555 1_555
C31 N5 1_555 1_555
C32 C31 1_555 1_555
H29 C32 1_555 1_555
C33 C32 1_555 1_555
C34 C29 1_555 1_555
H30 C34 1_555 1_555
C35 C33 1_555 1_555
Cr9 O14 1_555 1_555
Cr11 O13 1_555 1_555
C30 C31 1_555 1_555
C33 C34 1_555 1_555
Cl1_3 Cu2 1_555 1_555
Cr5 O5 1_555 1_555
O6 Cr5 1_555 1_555
N2 Cu2 1_555 1_555
H7 N2 1_555 1_555
O7 C14 1_555 1_555
C10 N2 1_555 1_555
C11 C10 1_555 1_555
H11 C11 1_555 1_555
C12 C11 1_555 1_555
C14 O6 1_555 1_555
Cl7 Cu2 1_555 1_555
Cr7 O7 1_555 1_555
O19 Cr5 1_555 1_555
O25 Cr5 1_555 1_555
C12 C14 1_555 1_555
Cl1_4 Cu2_2 1_555 1_555
Cu2_2 Cl3 1_555 1_555
O15 C42 1_555 1_555
N6 Cu2_2 1_555 1_555
H31 N6 1_555 1_555
O16 C42 1_555 1_555
C38 N6 1_555 1_555
C39 C38 1_555 1_555
H35 C39 1_555 1_555
C40 C39 1_555 1_555
C42 C40 1_555 1_555
Cr11 O16 1_555 1_555
Cr13 O15 1_555 1_555
Cu3 Cl1_5 1_555 1_555
Cr7 O8 1_555 1_555
O9 Cr7 1_555 1_555
N3 Cu3 1_555 1_555
H13 N3 1_555 1_555
H14 N3 1_555 1_555
O24 C21 1_555 1_555
C15 H15 1_555 1_555
C16 C15 1_555 1_555
H16 C16 1_555 1_555
C17 N3 1_555 1_555
C18 C17 1_555 1_555
H17 C18 1_555 1_555
C19 C18 1_555 1_555
C20 C15 1_555 1_555
H18 C20 1_555 1_555
C21 O9 1_555 1_555
Cl5 Cu3 1_555 1_555
O18 Cr7 1_555 1_555
O27 Cr7 1_555 1_555
C16 C17 1_555 1_555
C19 C20 1_555 1_555
C19 C21 1_555 1_555
Cu3_2 Cl1_6 1_555 1_555
Cl4 Cu3_2 1_555 1_555
O11 C28 1_555 1_555
N4 Cu3_2 1_555 1_555
H19 N4 1_555 1_555
O12 C28 1_555 1_555
C24 N4 1_555 1_555
C25 C24 1_555 1_555
H23 C25 1_555 1_555
C26 C25 1_555 1_555
C28 C26 1_555 1_555
C36 H33 1_555 1_555
C37 C36 1_555 1_555
H34 C37 1_555 1_555
C41 C36 1_555 1_555
H36 C41 1_555 1_555
Cr9 O11 1_555 1_555
Cr13 O12 1_555 1_555
Cr11 O8_2 1_555 1_555
O18_2 Cr11 1_555 1_555
O20 Cr11 1_555 1_555
O27_2 Cr11 1_555 1_555
Cr9 O20 1_555 1_555
Cr13 O5_2 1_555 1_555
O19_2 Cr13 1_555 1_555
O20 Cr13 1_555 1_555
O25_2 Cr13 1_555 1_555
Cr9 O1_2 1_555 1_555
O17_2 Cr9 1_555 1_555
O26_2 Cr9 1_555 1_555
Cl1_7 Cu2_3 1_555 1_555
Cu2_3 Cl3_2 1_555 1_555
N2_2 Cu2_3 1_555 1_555
H7_2 N2_2 1_555 1_555
H8_2 N2_2 1_555 1_555
O26_2 C14_2 1_555 1_555
C8_2 H9_2 1_555 1_555
C9_2 C8_2 1_555 1_555
H10_2 C9_2 1_555 1_555
C10_2 N2_2 1_555 1_555
C11_2 C10_2 1_555 1_555
H11_2 C11_2 1_555 1_555
C12_2 C11_2 1_555 1_555
C13_2 C8_2 1_555 1_555
H12_2 C13_2 1_555 1_555
C14_2 O18_2 1_555 1_555
C29_2 H27_2 1_555 1_555
C30_2 C29_2 1_555 1_555
H28_2 C30_2 1_555 1_555
C34_2 C29_2 1_555 1_555
H30_2 C34_2 1_555 1_555
Cl7_2 Cu2_3 1_555 1_555
O17 C42_2 1_555 1_555
N6_2 Cu2_3 1_555 1_555
H31_2 N6_2 1_555 1_555
O25 C42_2 1_555 1_555
C38_2 N6_2 1_555 1_555
C39_2 C38_2 1_555 1_555
H35_2 C39_2 1_555 1_555
C40_2 C39_2 1_555 1_555
C42_2 C40_2 1_555 1_555
C9_2 C10_2 1_555 1_555
C12_2 C13_2 1_555 1_555
C12_2 C14_2 1_555 1_555
Cu1_3 Cl1_8 1_555 1_555
Cl2_2 Cu1_3 1_555 1_555
N1_2 Cu1_3 1_555 1_555
H1_2 N1_2 1_555 1_555
O27_2 C7_2 1_555 1_555
C3_2 N1_2 1_555 1_555
C4_2 C3_2 1_555 1_555
H5_2 C4_2 1_555 1_555
C5_2 C4_2 1_555 1_555
C7_2 O19_2 1_555 1_555
Cl6_2 Cu1_3 1_555 1_555
O19 C35_2 1_555 1_555
N5_2 Cu1_3 1_555 1_555
H25_2 N5_2 1_555 1_555
O27 C35_2 1_555 1_555
C31_2 N5_2 1_555 1_555
C32_2 C31_2 1_555 1_555
H29_2 C32_2 1_555 1_555
C33_2 C32_2 1_555 1_555
C35_2 C33_2 1_555 1_555
C5_2 C7_2 1_555 1_555
C1 H3 1_555 1_555
C2 C1 1_555 1_555
H4 C2 1_555 1_555
C6 C1 1_555 1_555
H6 C6 1_555 1_555
Cu3_3 Cl1_9 1_555 1_555
Cl4_2 Cu3_3 1_555 1_555
N3_2 Cu3_3 1_555 1_555
H13_2 N3_2 1_555 1_555
O25_2 C21_2 1_555 1_555
C17_2 N3_2 1_555 1_555
C18_2 C17_2 1_555 1_555
H17_2 C18_2 1_555 1_555
C19_2 C18_2 1_555 1_555
C21_2 O17_2 1_555 1_555
Cl5_2 Cu3_3 1_555 1_555
O18 C28_2 1_555 1_555
N4_2 Cu3_3 1_555 1_555
H19_2 N4_2 1_555 1_555
H20 N4_2 1_555 1_555
O26 C28_2 1_555 1_555
C22 H21 1_555 1_555
C23 C22 1_555 1_555
H22 C23 1_555 1_555
C24_2 N4_2 1_555 1_555
C25_2 C24_2 1_555 1_555
H23_2 C25_2 1_555 1_555
C26_2 C25_2 1_555 1_555
C27 C22 1_555 1_555
H24 C27 1_555 1_555
C28_2 C26_2 1_555 1_555
C19_2 C21_2 1_555 1_555
C23 C24_2 1_555 1_555
C26_2 C27 1_555 1_555
C1_2 H3_2 1_555 1_555
C2_2 C1_2 1_555 1_555
H4_2 C2_2 1_555 1_555
C6_2 C1_2 1_555 1_555
H6_2 C6_2 1_555 1_555
C22_2 H21_2 1_555 1_555
C23_2 C22_2 1_555 1_555
H22_2 C23_2 1_555 1_555
C27_2 C22_2 1_555 1_555
H24_2 C27_2 1_555 1_555
C15_2 H15_2 1_555 1_555
C16_2 C15_2 1_555 1_555
H16_2 C16_2 1_555 1_555
C20_2 C15_2 1_555 1_555
H18_2 C20_2 1_555 1_555
C36_2 H33_2 1_555 1_555
C37_2 C36_2 1_555 1_555
H34_2 C37_2 1_555 1_555
C41_2 C36_2 1_555 1_555
H36_2 C41_2 1_555 1_555

#END
