
###############################################################################
#
# This file contains modified crystal structure data generated from the
# MOF subset of the Cambridge Structural Database (CSD) v543 
# hosted by the Cambridge Crystallographic Data Centre (CCDC).
#
# This work is licensed under the Creative Commons
# Attribution-NonCommercial-ShareAlike 4.0 International License.
# To view a copy of this license, visit
# http://creativecommons.org/licenses/by-nc-sa/4.0/
# or send a letter to
# Creative Commons, PO Box 1866, Mountain View, CA 94042, USA.
#
# CIF created using the CSD Python API on 29 September 2022
# The structure has been converted into the P1 space group
# The structure has a 3D framework
# The original CSD entry IGAHED02 is in the triclinic crystal system
# The framework has been calculated to contain at least 10.0% void space
# The void calculation uses a probe of radius 1.32A, grid spacing 0.4
# H atom positions have been added when not included in the experimental data
# Generated hydrogen atom positions removed from atoms on special positions
#
###############################################################################

data_IGAHED02
_chemical_formula_moiety         '(C10 H18 Co6 O12)n'
_symmetry_cell_setting           triclinic
_symmetry_space_group_name_H-M   'P 1'
_symmetry_Int_Tables_number      1
_space_group_name_Hall           'P 1'
loop_
_symmetry_equiv_pos_site_id
_symmetry_equiv_pos_as_xyz
1 x,y,z
_cell_length_a                   6.9104(7)
_cell_length_b                   7.4253(9)
_cell_length_c                   8.2544(6)
_cell_angle_alpha                90.397(8)
_cell_angle_beta                 109.835(7)
_cell_angle_gamma                93.137(8)
_cell_volume                     397.677
loop_
_atom_site_label
_atom_site_type_symbol
_atom_site_fract_x
_atom_site_fract_y
_atom_site_fract_z
Co3 Co -0.0000 0.5000 -0.0000
Co3_2 Co -0.0000 0.5000 1.0000
Co6 Co 0.5000 0.0000 -0.0000
Co6_2 Co 0.5000 -0.0000 1.0000
Co3_3 Co 1.0000 0.5000 -0.0000
Co6_3 Co 0.5000 1.0000 -0.0000
O1 O 0.5559(5) 0.2381(4) 0.1497(4)
O2 O 0.2630(5) 0.3705(5) 0.0377(4)
O3 O 0.1707(5) 0.7318(5) 0.1116(4)
O4 O 0.4883(5) 0.8570(5) 0.2123(4)
C1 C 0.4644(7) 0.4319(6) 0.3335(6)
C2 C 0.4196(7) 0.6079(6) 0.3580(6)
C3 C 0.5439(7) 0.3255(7) 0.4758(6)
C4 C 0.3520(7) 0.7405(6) 0.2153(6)
C5 C 0.4255(7) 0.3430(6) 0.1604(6)
H1 H 0.558(8) 0.205(8) 0.453(7)
Co3_4 Co 1.0000 0.5000 1.0000
Co6_4 Co 0.5000 1.0000 1.0000
O7 O 0.4441(5) 0.7619(4) 0.8503(4)
O9 O 0.7370(5) 0.6295(5) 0.9623(4)
O11 O 0.8293(5) 0.2682(5) 0.8884(4)
O13 O 0.5117(5) 0.1430(5) 0.7877(4)
C6 C 0.5356(7) 0.5681(6) 0.6665(6)
C7 C 0.5804(7) 0.3921(6) 0.6420(6)
C8 C 0.4561(7) 0.6745(7) 0.5242(6)
C9 C 0.6480(7) 0.2595(6) 0.7847(6)
C10 C 0.5745(7) 0.6570(6) 0.8396(6)
H2 H 0.442(8) 0.795(8) 0.547(7)
H7 H 0.0818848 0.450927 0.334731
O5 O 0.0397(6) 0.5919(6) 0.7654(5)
O6 O 0.1789(5) 0.0144(5) 0.8960(5)
H3 H 0.0382137 0.486205 0.690532
O17 O 0.8211(5) 0.9856(5) 0.1040(5)
H6 H 0.118324 0.90879 0.817133
O16 O 0.9603(6) 0.4081(6) 0.2346(5)
H8 H 0.834107 0.456861 0.245351
H4 H 0.925696 0.668876 0.704124
H4_2 H 0.0743041 0.331124 0.295876
H8_2 H 0.165893 0.543139 0.754649
H6_2 H 0.881676 0.0912105 0.182867
H3_2 H 0.961786 0.513795 0.309468
H7_2 H 0.918115 0.549073 0.665269
loop_
_geom_bond_atom_site_label_1
_geom_bond_atom_site_label_2
_geom_bond_site_symmetry_1
_geom_bond_site_symmetry_2
Co3 O2 1_555 1_555
Co6 O1 1_555 1_555
O1 C5 1_555 1_555
O2 C5 1_555 1_555
O3 Co3 1_555 1_555
O4 C4 1_555 1_555
C1 C2 1_555 1_555
C2 C4 1_555 1_555
C3 C1 1_555 1_555
C4 O3 1_555 1_555
C5 C1 1_555 1_555
H1 C3 1_555 1_555
Co3_4 O9 1_555 1_555
Co6_3 O4 1_555 1_555
Co6_2 O13 1_555 1_555
Co6_4 O7 1_555 1_555
O7 C10 1_555 1_555
O9 C10 1_555 1_555
O11 Co3_4 1_555 1_555
O13 C9 1_555 1_555
C6 C7 1_555 1_555
C7 C3 1_555 1_555
C8 C2 1_555 1_555
C9 O11 1_555 1_555
C10 C6 1_555 1_555
H2 C8 1_555 1_555
C6 C8 1_555 1_555
C7 C9 1_555 1_555
O5 Co3_2 1_555 1_555
O6 Co6_2 1_555 1_555
O5 H3 1_555 1_555
O17 Co6_3 1_555 1_555
O16 Co3_3 1_555 1_555
O16 H8 1_555 1_555
O5 H8_2 1_555 1_555
O16 H3_2 1_555 1_555

#END
