
###############################################################################
#
# This file contains modified crystal structure data generated from the
# MOF subset of the Cambridge Structural Database (CSD) v543 
# hosted by the Cambridge Crystallographic Data Centre (CCDC).
#
# This work is licensed under the Creative Commons
# Attribution-NonCommercial-ShareAlike 4.0 International License.
# To view a copy of this license, visit
# http://creativecommons.org/licenses/by-nc-sa/4.0/
# or send a letter to
# Creative Commons, PO Box 1866, Mountain View, CA 94042, USA.
#
# CIF created using the CSD Python API on 29 September 2022
# The structure has been converted into the P1 space group
# The structure has a 3D framework
# The original CSD entry IGETUL is in the monoclinic crystal system
# The framework has been calculated to contain at least 10.0% void space
# The void calculation uses a probe of radius 1.32A, grid spacing 0.4
#
###############################################################################

data_IGETUL
_chemical_formula_moiety         '(C172 H100 Eu5 O40)n'
_symmetry_cell_setting           triclinic
_symmetry_space_group_name_H-M   'P 1'
_symmetry_Int_Tables_number      1
_space_group_name_Hall           'P 1'
loop_
_symmetry_equiv_pos_site_id
_symmetry_equiv_pos_as_xyz
1 x,y,z
_cell_length_a                   10.8511(6)
_cell_length_b                   28.8803(13)
_cell_length_c                   19.1550(8)
_cell_angle_alpha                90
_cell_angle_beta                 123.902(3)
_cell_angle_gamma                90
_cell_volume                     4982.32
loop_
_atom_site_label
_atom_site_type_symbol
_atom_site_fract_x
_atom_site_fract_y
_atom_site_fract_z
O17 O 0.6013(9) 0.2555(3) 0.0737(4)
O18 O 0.5823(8) 0.2953(2) 0.1610(3)
C73 C 0.4051(14) 0.3622(4) 0.0363(7)
H42 H 0.4456 0.3711 0.0917
C74 C 0.4466(11) 0.3221(4) 0.0208(6)
C78 C 0.5534(12) 0.2883(3) 0.0887(6)
Eu6 Eu 0.78099(5) 0.230076(18) 0.21436(3)
Eu14 Eu 0.5000 0.29132(3) 0.2500
C40 C 0.0000 0.3835(6) 0.7500
H23 H 0.0000 0.3513 0.7500
C42 C 0.1331(13) 0.5564(4) 0.7831(7)
H24 H 0.2223 0.5407 0.8053
C44 C 0.0000 0.4789(5) 0.7500
C45 C 0.0000 0.5309(5) 0.7500
C46 C 0.1324(12) 0.6023(4) 0.7829(7)
H26 H 0.2220 0.6178 0.8051
C47 C 0.0000 0.6291(5) 0.7500
C48 C 0.0000 0.6800(5) 0.7500
O19 O 0.1227(8) 0.7011(3) 0.7949(4)
C71 C 0.2420(13) 0.3800(4) 0.8876(6)
C72 C 0.3010(13) 0.3913(4) 0.9701(6)
H41 H 0.2717 0.4186 0.9827
C75 C 0.3890(12) 0.3107(4) 0.9369(6)
H43 H 0.4207 0.2836 0.9253
C76 C 0.2884(12) 0.3379(4) 0.8722(6)
H44 H 0.2496 0.3287 0.8171
C77 C 0.1180(12) 0.4066(4) 0.8173(5)
C80 C 0.1180(12) 0.4552(4) 0.8160(6)
H46 H 0.1977 0.4715 0.8599
Eu10 Eu 0.21901(5) 0.769924(18) 0.78564(3)
Eu1 Eu 0.21901(5) 0.230076(18) 0.28564(3)
O1 O 0.1057(9) 0.1691(3) 0.1824(6)
O4 O 0.3330(11) 0.1613(3) 0.3594(5)
H1 H 0.4450 0.1566 0.4066
H2 H 0.2815 0.1294 0.3514
O5 O 0.2908(9) 0.2763(3) 0.1131(5)
O6 O 0.1624(11) 0.2681(3) 0.1677(5)
O8 O 0.3987(9) 0.2555(3) 0.4263(4)
O9 O 0.4177(8) 0.2953(2) 0.3390(3)
O10 O 0.8773(8) 0.7011(3) 0.7051(4)
H4 H 0.0179 0.1046 0.0784
C20 C 0.0304(13) 0.2875(4) 0.0233(6)
C25 C 0.1690(13) 0.2772(4) 0.1048(6)
C33 C 0.7580(13) 0.3800(4) 0.6124(6)
C34 C 0.6990(13) 0.3913(4) 0.5299(6)
H19 H 0.7283 0.4186 0.5173
C35 C 0.5949(14) 0.3622(4) 0.4637(7)
H20 H 0.5544 0.3711 0.4083
C36 C 0.5534(11) 0.3221(4) 0.4792(6)
C37 C 0.6110(12) 0.3107(4) 0.5631(6)
H21 H 0.5793 0.2836 0.5747
C38 C 0.7116(12) 0.3379(4) 0.6278(6)
H22 H 0.7504 0.3287 0.6829
C39 C 0.8820(12) 0.4066(4) 0.6827(5)
C40_2 C 1.0000 0.3835(6) 0.7500
H23_2 H 1.0000 0.3513 0.7500
C41 C 0.4466(12) 0.2883(3) 0.4113(6)
C43 C 0.8820(12) 0.4552(4) 0.6840(6)
H25 H 0.8023 0.4715 0.6401
C44_2 C 1.0000 0.4789(5) 0.7500
C45_2 C 1.0000 0.5309(5) 0.7500
C47_2 C 1.0000 0.6291(5) 0.7500
C48_2 C 1.0000 0.6800(5) 0.7500
C79 C 0.8669(13) 0.5564(4) 0.7169(7)
H45 H 0.7777 0.5407 0.6947
C81 C 0.8676(12) 0.6023(4) 0.7171(7)
H47 H 0.7780 0.6178 0.6949
Eu8 Eu 0.78099(5) 0.769924(18) 0.71436(3)
O22 O 0.0799(8) 0.2118(3) 0.3382(4)
O24 O 0.4152(8) 0.2134(2) 0.2622(4)
O33 O 0.1227(8) 0.2989(3) 0.2949(4)
O2 O 0.9201(8) 0.2118(3) 0.1618(4)
C3 C 0.9210(13) 0.1144(5) 0.0399(7)
C4 C 0.8691(14) 0.1541(4) 0.0564(6)
H5 H 0.6934 0.1973 0.0091
C9 C 0.9680(12) 0.1803(4) 0.1386(6)
C21 C 0.8957(13) 0.2804(5) 0.0149(7)
H13 H 0.8920 0.2671 0.0579
O7 O 0.3759(10) 0.6353(3) 0.7058(5)
C1 C 0.6847(15) 0.1068(4) 0.9051(6)
C2 C 0.8303(14) 0.0893(4) 0.9666(7)
H3 H 0.8632 0.0617 0.9574
C5 C 0.7272(12) 0.1706(4) 0.9977(6)
C6 C 0.6369(13) 0.1477(4) 0.9233(7)
H6 H 0.5428 0.1593 0.8840
C7 C 0.5912(13) 0.0817(4) 0.8243(5)
C8 C 0.5000 0.1051(5) 0.7500
H7 H 0.5000 0.1373 0.7500
C11 C 0.5916(11) 0.0329(4) 0.8241(6)
H9 H 0.6538 0.0168 0.8740
C12 C 0.5000 0.0087(5) 0.7500
C17 C 0.7642(13) 0.3189(4) 0.8794(6)
C18 C 0.9010(15) 0.3240(5) 0.8910(7)
H11 H 0.9038 0.3380 0.8481
C22 C 0.7665(15) 0.2940(4) 0.9393(7)
H14 H 0.6759 0.2853 0.9299
C23 C 0.6259(13) 0.3418(4) 0.8096(6)
C24 C 0.5000 0.3162(6) 0.7500
H15 H 0.5000 0.2840 0.7500
C26 C 0.3654(14) 0.4908(4) 0.7139(9)
H16 H 0.2758 0.4749 0.6889
C27 C 0.6264(12) 0.3887(4) 0.8061(7)
H17 H 0.7145 0.4045 0.8426
C28 C 0.5000 0.4140(6) 0.7500
C29 C 0.5000 0.4659(6) 0.7500
C30 C 0.3667(15) 0.5381(5) 0.7157(8)
H18 H 0.2780 0.5541 0.6938
C31 C 0.5000 0.5632(6) 0.7500
C32 C 0.5000 0.6134(5) 0.7500
C49 C 0.3153(15) 0.1068(4) 0.5949(6)
C50 C 0.1697(14) 0.0893(4) 0.5334(7)
H27 H 0.1368 0.0617 0.5426
C51 C 0.0790(13) 0.1144(5) 0.4601(7)
C52 C 0.1309(14) 0.1541(4) 0.4436(6)
C53 C 0.2728(12) 0.1706(4) 0.5023(6)
H29 H 0.3066 0.1973 0.4909
C54 C 0.3631(13) 0.1477(4) 0.5767(7)
H30 H 0.4572 0.1593 0.6160
C55 C 0.4088(13) 0.0817(4) 0.6757(5)
C56 C 0.0320(12) 0.1803(4) 0.3614(6)
C58 C 0.4084(11) 0.0329(4) 0.6759(6)
H32 H 0.3462 0.0168 0.6260
O16 O 0.6241(10) 0.6353(3) 0.7942(5)
C60 C 0.2358(13) 0.3189(4) 0.6206(6)
C61 C 0.0990(15) 0.3240(5) 0.6090(7)
H34 H 0.0962 0.3380 0.6519
C64 C 0.1043(13) 0.2804(5) 0.4851(7)
H36 H 0.1080 0.2671 0.4421
C65 C 0.2335(15) 0.2940(4) 0.5607(7)
H37 H 0.3241 0.2853 0.5701
C66 C 0.3741(13) 0.3418(4) 0.6904(6)
C68 C 0.6346(14) 0.4908(4) 0.7861(9)
H38 H 0.7242 0.4749 0.8111
C69 C 0.3736(12) 0.3887(4) 0.6939(7)
H39 H 0.2855 0.4045 0.6574
C70 C 0.6333(15) 0.5381(5) 0.7843(8)
H40 H 0.7220 0.5541 0.8062
Eu11 Eu 0.5000 0.70868(3) 0.7500
O3 O 0.4152(8) 0.7866(2) 0.7622(4)
C10 C 0.6311(13) 0.9318(4) 0.7990(6)
H8 H 0.7200 0.9476 0.8336
C13 C 0.5000 0.9570(5) 0.7500
C14 C 0.6323(13) 0.8846(4) 0.7973(7)
H10 H 0.7212 0.8683 0.8276
C15 C 0.5000 0.8619(5) 0.7500
C16 C 0.5000 0.8100(6) 0.7500
O13 O 0.5848(8) 0.7866(2) 0.7378(4)
C57 C 0.3689(13) 0.9318(4) 0.7010(6)
H31 H 0.2800 0.9476 0.6664
C59 C 0.3677(13) 0.8846(4) 0.7027(7)
H33 H 0.2788 0.8683 0.6724
O25 O 0.7092(9) 0.7237(3) 0.8869(5)
O26 O 0.2908(9) 0.7237(3) 0.6131(5)
O31 O 0.5823(8) 0.7047(2) 0.6610(3)
O32 O 0.4177(8) 0.7047(2) 0.8390(3)
O11 O 0.8943(9) 0.1691(3) 0.3176(6)
H28 H 0.9821 0.1046 0.4216
O14 O 0.7092(9) 0.2763(3) 0.3869(5)
O15 O 0.8376(11) 0.2681(3) 0.3323(5)
C62 C 0.9689(15) 0.3102(5) 0.5396(7)
H35 H 0.8798 0.3159 0.5344
C63 C 0.9696(13) 0.2875(4) 0.4767(6)
C67 C 0.8310(13) 0.2772(4) 0.3952(6)
O20 O 0.6670(11) 0.1613(3) 0.1406(5)
H48 H 0.5550 0.1566 0.0934
H49 H 0.7185 0.1294 0.1486
O23 O 0.5848(8) 0.2134(2) 0.2378(4)
O34 O 0.8773(8) 0.2989(3) 0.2051(4)
O11_2 O 0.1057(9) 0.8309(3) 0.6824(6)
H28_2 H 0.0179 0.8954 0.5784
O15_2 O 0.1624(11) 0.7319(3) 0.6677(5)
C62_2 C 0.0311(15) 0.6898(5) 0.4604(7)
H35_2 H 0.1202 0.6841 0.4656
C63_2 C 0.0304(13) 0.7125(4) 0.5233(6)
C67_2 C 0.1690(13) 0.7228(4) 0.6048(6)
O20_2 O 0.3330(11) 0.8387(3) 0.8594(5)
H48_2 H 0.4450 0.8434 0.9066
H49_2 H 0.2815 0.8706 0.8514
O21 O 0.0799(8) 0.7882(3) 0.8382(4)
O29 O 0.3987(9) 0.7445(3) 0.9263(4)
C10_2 C 0.3689(13) 0.0682(4) 0.2010(6)
H8_2 H 0.2800 0.0524 0.1664
C13_2 C 0.5000 0.0430(5) 0.2500
C14_2 C 0.3677(13) 0.1154(4) 0.2027(7)
H10_2 H 0.2788 0.1317 0.1724
C15_2 C 0.5000 0.1381(5) 0.2500
C16_2 C 0.5000 0.1900(6) 0.2500
C57_2 C 0.6311(13) 0.0682(4) 0.2990(6)
H31_2 H 0.7200 0.0524 0.3336
C59_2 C 0.6323(13) 0.1154(4) 0.2973(7)
H33_2 H 0.7212 0.1317 0.3276
O27 O 0.6241(10) 0.3647(3) 0.2942(5)
O28 O 0.3759(10) 0.3647(3) 0.2058(5)
C1_2 C 0.3153(15) 0.8932(4) 0.0949(6)
C2_2 C 0.1697(14) 0.9107(4) 0.0334(7)
H3_2 H 0.1368 0.9383 0.0426
C5_2 C 0.2728(12) 0.8294(4) 0.0023(6)
C6_2 C 0.3631(13) 0.8523(4) 0.0767(7)
H6_2 H 0.4572 0.8407 0.1160
C7_2 C 0.4088(13) 0.9183(4) 0.1757(5)
C8_2 C 0.5000 0.8949(5) 0.2500
H7_2 H 0.5000 0.8627 0.2500
C11_2 C 0.4084(11) 0.9671(4) 0.1759(6)
H9_2 H 0.3462 0.9832 0.1260
C12_2 C 0.5000 0.9913(5) 0.2500
C17_2 C 0.2358(13) 0.6811(4) 0.1206(6)
C18_2 C 0.0990(15) 0.6760(5) 0.1090(7)
H11_2 H 0.0962 0.6620 0.1519
C22_2 C 0.2335(15) 0.7060(4) 0.0607(7)
H14_2 H 0.3241 0.7147 0.0701
C23_2 C 0.3741(13) 0.6582(4) 0.1904(6)
C24_2 C 0.5000 0.6838(6) 0.2500
H15_2 H 0.5000 0.7160 0.2500
C26_2 C 0.6346(14) 0.5092(4) 0.2861(9)
H16_2 H 0.7242 0.5251 0.3111
C27_2 C 0.3736(12) 0.6113(4) 0.1939(7)
H17_2 H 0.2855 0.5955 0.1574
C28_2 C 0.5000 0.5860(6) 0.2500
C29_2 C 0.5000 0.5341(6) 0.2500
C30_2 C 0.6333(15) 0.4619(5) 0.2843(8)
H18_2 H 0.7220 0.4459 0.3062
C31_2 C 0.5000 0.4368(6) 0.2500
C32_2 C 0.5000 0.3866(5) 0.2500
O12 O 0.9201(8) 0.7882(3) 0.6618(4)
C49_2 C 0.6847(15) 0.8932(4) 0.4051(6)
C50_2 C 0.8303(14) 0.9107(4) 0.4666(7)
H27_2 H 0.8632 0.9383 0.4574
C51_2 C 0.9210(13) 0.8856(5) 0.5399(7)
C52_2 C 0.8691(14) 0.8459(4) 0.5564(6)
C53_2 C 0.7272(12) 0.8294(4) 0.4977(6)
H29_2 H 0.6934 0.8027 0.5091
C54_2 C 0.6369(13) 0.8523(4) 0.4233(7)
H30_2 H 0.5428 0.8407 0.3840
C55_2 C 0.5912(13) 0.9183(4) 0.3243(5)
C56_2 C 0.9680(12) 0.8197(4) 0.6386(6)
C58_2 C 0.5916(11) 0.9671(4) 0.3241(6)
H32_2 H 0.6538 0.9832 0.3740
C60_2 C 0.7642(13) 0.6811(4) 0.3794(6)
C61_2 C 0.9010(15) 0.6760(5) 0.3910(7)
H34_2 H 0.9038 0.6620 0.3481
C64_2 C 0.8957(13) 0.7196(5) 0.5149(7)
H36_2 H 0.8920 0.7329 0.5579
C65_2 C 0.7665(15) 0.7060(4) 0.4393(7)
H37_2 H 0.6759 0.7147 0.4299
C66_2 C 0.6259(13) 0.6582(4) 0.3096(6)
C68_2 C 0.3654(14) 0.5092(4) 0.2139(9)
H38_2 H 0.2758 0.5251 0.1889
C69_2 C 0.6264(12) 0.6113(4) 0.3061(7)
H39_2 H 0.7145 0.5955 0.3426
C70_2 C 0.3667(15) 0.4619(5) 0.2157(8)
H40_2 H 0.2780 0.4459 0.1938
C3_2 C 0.0790(13) 0.8856(5) 0.9601(7)
C4_2 C 0.1309(14) 0.8459(4) 0.9436(6)
H5_2 H 0.3066 0.8027 0.9909
C9_2 C 0.0320(12) 0.8197(4) 0.8614(6)
C21_2 C 0.1043(13) 0.7196(5) 0.9851(7)
H13_2 H 0.1080 0.7329 0.9421
O1_2 O 0.8943(9) 0.8309(3) 0.8176(6)
O4_2 O 0.6670(11) 0.8387(3) 0.6406(5)
H1_2 H 0.5550 0.8434 0.5934
H2_2 H 0.7185 0.8706 0.6486
O6_2 O 0.8376(11) 0.7319(3) 0.8323(5)
O8_2 O 0.6013(9) 0.7445(3) 0.5737(4)
H4_2 H 0.9821 0.8954 0.9216
C20_2 C 0.9696(13) 0.7125(4) 0.9767(6)
C25_2 C 0.8310(13) 0.7228(4) 0.8952(6)
C33_2 C 0.2420(13) 0.6200(4) 0.3876(6)
C34_2 C 0.3010(13) 0.6087(4) 0.4701(6)
H19_2 H 0.2717 0.5814 0.4827
C35_2 C 0.4051(14) 0.6378(4) 0.5363(7)
H20_2 H 0.4456 0.6289 0.5917
C36_2 C 0.4466(11) 0.6779(4) 0.5208(6)
C37_2 C 0.3890(12) 0.6893(4) 0.4369(6)
H21_2 H 0.4207 0.7164 0.4253
C38_2 C 0.2884(12) 0.6621(4) 0.3722(6)
H22_2 H 0.2496 0.6713 0.3171
C39_2 C 0.1180(12) 0.5934(4) 0.3173(5)
C40_3 C 0.0000 0.6165(6) 0.2500
H23_3 H 0.0000 0.6487 0.2500
C41_2 C 0.5534(12) 0.7117(3) 0.5887(6)
C43_2 C 0.1180(12) 0.5448(4) 0.3160(6)
H25_2 H 0.1977 0.5285 0.3599
C44_3 C 0.0000 0.5211(5) 0.2500
C45_3 C -0.0000 0.4691(5) 0.2500
C47_3 C -0.0000 0.3709(5) 0.2500
C48_3 C -0.0000 0.3200(5) 0.2500
C79_2 C 0.1331(13) 0.4436(4) 0.2831(7)
H45_2 H 0.2223 0.4593 0.3053
C81_2 C 0.1324(12) 0.3977(4) 0.2829(7)
H47_2 H 0.2220 0.3822 0.3051
C40_4 C 1.0000 0.6165(6) 0.2500
H23_4 H 1.0000 0.6487 0.2500
C42_2 C 0.8669(13) 0.4436(4) 0.2169(7)
H24_2 H 0.7777 0.4593 0.1947
C44_4 C 1.0000 0.5211(5) 0.2500
C45_4 C 1.0000 0.4691(5) 0.2500
C46_2 C 0.8676(12) 0.3977(4) 0.2171(7)
H26_2 H 0.7780 0.3822 0.1949
C47_4 C 1.0000 0.3709(5) 0.2500
C48_4 C 1.0000 0.3200(5) 0.2500
C71_2 C 0.7580(13) 0.6200(4) 0.1124(6)
C72_2 C 0.6990(13) 0.6087(4) 0.0299(6)
H41_2 H 0.7283 0.5814 0.0173
C75_2 C 0.6110(12) 0.6893(4) 0.0631(6)
H43_2 H 0.5793 0.7164 0.0747
C76_2 C 0.7116(12) 0.6621(4) 0.1278(6)
H44_2 H 0.7504 0.6713 0.1829
C77_2 C 0.8820(12) 0.5934(4) 0.1827(5)
C80_2 C 0.8820(12) 0.5448(4) 0.1840(6)
H46_2 H 0.8023 0.5285 0.1401
C73_2 C 0.5949(14) 0.6378(4) 0.9637(7)
H42_2 H 0.5544 0.6289 0.9083
C74_2 C 0.5534(11) 0.6779(4) 0.9792(6)
C78_2 C 0.4466(12) 0.7117(3) 0.9113(6)
C19 C 0.0311(15) 0.3102(5) 0.9604(7)
H12 H 0.1202 0.3159 0.9656
C19_2 C 0.9689(15) 0.6898(5) 0.0396(7)
H12_2 H 0.8798 0.6841 0.0344
loop_
_geom_bond_atom_site_label_1
_geom_bond_atom_site_label_2
_geom_bond_site_symmetry_1
_geom_bond_site_symmetry_2
O17 C78 1_555 1_555
O18 C78 1_555 1_555
H42 C73 1_555 1_555
C74 C73 1_555 1_555
C78 C74 1_555 1_555
Eu6 O17 1_555 1_555
Eu14 O18 1_555 1_555
O18 Eu6 1_555 1_555
H23 C40 1_555 1_555
C42 H24 1_555 1_555
C45 C42 1_555 1_555
C46 C42 1_555 1_555
H26 C46 1_555 1_555
C47 C46 1_555 1_555
C48 C47 1_555 1_555
O19 C48 1_555 1_555
C71 C72 1_555 1_555
C72 H41 1_555 1_555
H43 C75 1_555 1_555
C76 C71 1_555 1_555
H44 C76 1_555 1_555
C77 C40 1_555 1_555
C80 C44 1_555 1_555
H46 C80 1_555 1_555
Eu10 O19 1_555 1_555
C44 C45 1_555 1_555
C71 C77 1_555 1_555
C75 C76 1_555 1_555
C77 C80 1_555 1_555
Eu1 O1 1_555 1_555
O4 Eu1 1_555 1_555
H1 O4 1_555 1_555
H2 O4 1_555 1_555
O5 C25 1_555 1_555
O6 Eu1 1_555 1_555
O8 Eu1 1_555 1_555
O9 Eu1 1_555 1_555
O10 C48_2 1_555 1_555
C25 O6 1_555 1_555
C33 C34 1_555 1_555
C34 H19 1_555 1_555
C35 C34 1_555 1_555
H20 C35 1_555 1_555
C36 C35 1_555 1_555
C37 C36 1_555 1_555
H21 C37 1_555 1_555
C38 C33 1_555 1_555
H22 C38 1_555 1_555
C39 C33 1_555 1_555
C40_2 C39 1_555 1_555
H23_2 C40_2 1_555 1_555
C41 O8 1_555 1_555
C43 C39 1_555 1_555
H25 C43 1_555 1_555
C44_2 C43 1_555 1_555
C48_2 C47_2 1_555 1_555
C79 C45_2 1_555 1_555
H45 C79 1_555 1_555
C81 C47_2 1_555 1_555
H47 C81 1_555 1_555
Eu8 O10 1_555 1_555
Eu14 O5 1_555 1_555
O22 Eu1 1_555 1_555
O24 Eu1 1_555 1_555
O33 Eu1 1_555 1_555
O9 C41 1_555 1_555
O9 Eu14 1_555 1_555
C20 C25 1_555 1_555
C36 C41 1_555 1_555
C37 C38 1_555 1_555
C44_2 C45_2 1_555 1_555
C79 C81 1_555 1_555
Eu14 O24 1_555 1_555
C4 C3 1_555 1_555
C9 O2 1_555 1_555
H13 C21 1_555 1_555
Eu6 O2 1_555 1_555
C4 C9 1_555 1_555
O7 C32 1_555 1_555
C1 C2 1_555 1_555
C2 H3 1_555 1_555
C6 C1 1_555 1_555
H6 C6 1_555 1_555
C7 C1 1_555 1_555
C8 C7 1_555 1_555
H7 C8 1_555 1_555
C11 C7 1_555 1_555
H9 C11 1_555 1_555
C12 C11 1_555 1_555
C17 C18 1_555 1_555
C18 H11 1_555 1_555
C22 C17 1_555 1_555
H14 C22 1_555 1_555
C23 C17 1_555 1_555
C24 C23 1_555 1_555
H15 C24 1_555 1_555
C26 H16 1_555 1_555
C27 C23 1_555 1_555
H17 C27 1_555 1_555
C28 C27 1_555 1_555
C29 C26 1_555 1_555
C30 C26 1_555 1_555
H18 C30 1_555 1_555
C31 C30 1_555 1_555
C32 C31 1_555 1_555
O22 C56 1_555 1_555
C49 C50 1_555 1_555
C50 H27 1_555 1_555
C51 C50 1_555 1_555
C52 C51 1_555 1_555
C53 C52 1_555 1_555
H29 C53 1_555 1_555
C54 C49 1_555 1_555
H30 C54 1_555 1_555
C55 C8 1_555 1_555
C56 C52 1_555 1_555
C58 C12 1_555 1_555
H32 C58 1_555 1_555
O16 C32 1_555 1_555
C60 C61 1_555 1_555
C61 H34 1_555 1_555
H36 C64 1_555 1_555
C65 C60 1_555 1_555
H37 C65 1_555 1_555
C66 C24 1_555 1_555
C68 C29 1_555 1_555
H38 C68 1_555 1_555
C69 C28 1_555 1_555
H39 C69 1_555 1_555
C70 C31 1_555 1_555
H40 C70 1_555 1_555
Eu11 O7 1_555 1_555
C5 C6 1_555 1_555
C28 C29 1_555 1_555
C49 C55 1_555 1_555
C53 C54 1_555 1_555
C55 C58 1_555 1_555
O16 Eu11 1_555 1_555
C60 C66 1_555 1_555
C64 C65 1_555 1_555
C66 C69 1_555 1_555
C68 C70 1_555 1_555
Eu11 O3 1_555 1_555
O3 C16 1_555 1_555
C10 H8 1_555 1_555
C13 C10 1_555 1_555
C14 C10 1_555 1_555
H10 C14 1_555 1_555
C15 C14 1_555 1_555
C16 C15 1_555 1_555
O13 Eu11 1_555 1_555
C57 C13 1_555 1_555
H31 C57 1_555 1_555
C59 C15 1_555 1_555
H33 C59 1_555 1_555
Eu8 O13 1_555 1_555
Eu10 O3 1_555 1_555
O25 Eu11 1_555 1_555
O26 Eu11 1_555 1_555
O31 Eu11 1_555 1_555
O32 Eu11 1_555 1_555
C16 O13 1_555 1_555
C57 C59 1_555 1_555
Eu8 O31 1_555 1_555
Eu10 O32 1_555 1_555
O14 C67 1_555 1_555
O15 C67 1_555 1_555
H35 C62 1_555 1_555
C63 C62 1_555 1_555
C67 C63 1_555 1_555
Eu6 O11 1_555 1_555
O20 Eu6 1_555 1_555
H48 O20 1_555 1_555
H49 O20 1_555 1_555
Eu14 O14 1_555 1_555
O23 Eu6 1_555 1_555
O34 Eu6 1_555 1_555
O15 Eu6 1_555 1_555
Eu14 O23 1_555 1_555
O26 C67_2 1_555 1_555
O15_2 C67_2 1_555 1_555
H35_2 C62_2 1_555 1_555
C63_2 C62_2 1_555 1_555
C67_2 C63_2 1_555 1_555
Eu10 O11_2 1_555 1_555
O20_2 Eu10 1_555 1_555
H48_2 O20_2 1_555 1_555
H49_2 O20_2 1_555 1_555
O21 Eu10 1_555 1_555
O29 Eu10 1_555 1_555
O15_2 Eu10 1_555 1_555
O23 C16_2 1_555 1_555
C10_2 H8_2 1_555 1_555
C13_2 C10_2 1_555 1_555
C14_2 C10_2 1_555 1_555
H10_2 C14_2 1_555 1_555
C15_2 C14_2 1_555 1_555
C16_2 C15_2 1_555 1_555
C57_2 C13_2 1_555 1_555
H31_2 C57_2 1_555 1_555
C59_2 C15_2 1_555 1_555
H33_2 C59_2 1_555 1_555
O27 Eu14 1_555 1_555
O28 Eu14 1_555 1_555
C16_2 O24 1_555 1_555
C57_2 C59_2 1_555 1_555
O27 C32_2 1_555 1_555
C1_2 C2_2 1_555 1_555
C2_2 H3_2 1_555 1_555
C6_2 C1_2 1_555 1_555
H6_2 C6_2 1_555 1_555
C7_2 C1_2 1_555 1_555
C8_2 C7_2 1_555 1_555
H7_2 C8_2 1_555 1_555
C11_2 C7_2 1_555 1_555
H9_2 C11_2 1_555 1_555
C12_2 C11_2 1_555 1_555
C17_2 C18_2 1_555 1_555
C18_2 H11_2 1_555 1_555
C22_2 C17_2 1_555 1_555
H14_2 C22_2 1_555 1_555
C23_2 C17_2 1_555 1_555
C24_2 C23_2 1_555 1_555
H15_2 C24_2 1_555 1_555
C26_2 H16_2 1_555 1_555
C27_2 C23_2 1_555 1_555
H17_2 C27_2 1_555 1_555
C28_2 C27_2 1_555 1_555
C29_2 C26_2 1_555 1_555
C30_2 C26_2 1_555 1_555
H18_2 C30_2 1_555 1_555
C31_2 C30_2 1_555 1_555
C32_2 C31_2 1_555 1_555
O12 C56_2 1_555 1_555
C49_2 C50_2 1_555 1_555
C50_2 H27_2 1_555 1_555
C51_2 C50_2 1_555 1_555
C52_2 C51_2 1_555 1_555
C53_2 C52_2 1_555 1_555
H29_2 C53_2 1_555 1_555
C54_2 C49_2 1_555 1_555
H30_2 C54_2 1_555 1_555
C55_2 C8_2 1_555 1_555
C56_2 C52_2 1_555 1_555
C58_2 C12_2 1_555 1_555
H32_2 C58_2 1_555 1_555
O28 C32_2 1_555 1_555
C60_2 C61_2 1_555 1_555
C61_2 H34_2 1_555 1_555
H36_2 C64_2 1_555 1_555
C65_2 C60_2 1_555 1_555
H37_2 C65_2 1_555 1_555
C66_2 C24_2 1_555 1_555
C68_2 C29_2 1_555 1_555
H38_2 C68_2 1_555 1_555
C69_2 C28_2 1_555 1_555
H39_2 C69_2 1_555 1_555
C70_2 C31_2 1_555 1_555
H40_2 C70_2 1_555 1_555
Eu8 O12 1_555 1_555
C5_2 C6_2 1_555 1_555
C28_2 C29_2 1_555 1_555
C49_2 C55_2 1_555 1_555
C53_2 C54_2 1_555 1_555
C55_2 C58_2 1_555 1_555
C60_2 C66_2 1_555 1_555
C64_2 C65_2 1_555 1_555
C66_2 C69_2 1_555 1_555
C68_2 C70_2 1_555 1_555
C4_2 C3_2 1_555 1_555
C9_2 O21 1_555 1_555
H13_2 C21_2 1_555 1_555
C4_2 C9_2 1_555 1_555
Eu8 O1_2 1_555 1_555
O4_2 Eu8 1_555 1_555
H1_2 O4_2 1_555 1_555
H2_2 O4_2 1_555 1_555
O25 C25_2 1_555 1_555
O6_2 Eu8 1_555 1_555
O8_2 Eu8 1_555 1_555
O33 C48_3 1_555 1_555
C25_2 O6_2 1_555 1_555
C33_2 C34_2 1_555 1_555
C34_2 H19_2 1_555 1_555
C35_2 C34_2 1_555 1_555
H20_2 C35_2 1_555 1_555
C36_2 C35_2 1_555 1_555
C37_2 C36_2 1_555 1_555
H21_2 C37_2 1_555 1_555
C38_2 C33_2 1_555 1_555
H22_2 C38_2 1_555 1_555
C39_2 C33_2 1_555 1_555
C40_3 C39_2 1_555 1_555
H23_3 C40_3 1_555 1_555
C41_2 O8_2 1_555 1_555
C43_2 C39_2 1_555 1_555
H25_2 C43_2 1_555 1_555
C44_3 C43_2 1_555 1_555
C48_3 C47_3 1_555 1_555
C79_2 C45_3 1_555 1_555
H45_2 C79_2 1_555 1_555
C81_2 C47_3 1_555 1_555
H47_2 C81_2 1_555 1_555
O31 C41_2 1_555 1_555
C20_2 C25_2 1_555 1_555
C36_2 C41_2 1_555 1_555
C37_2 C38_2 1_555 1_555
C44_3 C45_3 1_555 1_555
C79_2 C81_2 1_555 1_555
H23_4 C40_4 1_555 1_555
C42_2 H24_2 1_555 1_555
C45_4 C42_2 1_555 1_555
C46_2 C42_2 1_555 1_555
H26_2 C46_2 1_555 1_555
C47_4 C46_2 1_555 1_555
C48_4 C47_4 1_555 1_555
O34 C48_4 1_555 1_555
C71_2 C72_2 1_555 1_555
C72_2 H41_2 1_555 1_555
H43_2 C75_2 1_555 1_555
C76_2 C71_2 1_555 1_555
H44_2 C76_2 1_555 1_555
C77_2 C40_4 1_555 1_555
C80_2 C44_4 1_555 1_555
H46_2 C80_2 1_555 1_555
C44_4 C45_4 1_555 1_555
C71_2 C77_2 1_555 1_555
C75_2 C76_2 1_555 1_555
C77_2 C80_2 1_555 1_555
O29 C78_2 1_555 1_555
O32 C78_2 1_555 1_555
H42_2 C73_2 1_555 1_555
C74_2 C73_2 1_555 1_555
C78_2 C74_2 1_555 1_555
H12 C19 1_555 1_555
H12_2 C19_2 1_555 1_555

#END
