
###############################################################################
#
# This file contains modified crystal structure data generated from the
# MOF subset of the Cambridge Structural Database (CSD) v543 
# hosted by the Cambridge Crystallographic Data Centre (CCDC).
#
# This work is licensed under the Creative Commons
# Attribution-NonCommercial-ShareAlike 4.0 International License.
# To view a copy of this license, visit
# http://creativecommons.org/licenses/by-nc-sa/4.0/
# or send a letter to
# Creative Commons, PO Box 1866, Mountain View, CA 94042, USA.
#
# CIF created using the CSD Python API on 29 September 2022
# The structure has been converted into the P1 space group
# The structure has a 3D framework
# The original CSD entry IGIFOW is in the orthorhombic crystal system
# The framework has been calculated to contain at least 10.0% void space
# The void calculation uses a probe of radius 1.32A, grid spacing 0.4
# H atom positions have been added when not included in the experimental data
# Generated hydrogen atom positions removed from atoms on special positions
#
###############################################################################

data_IGIFOW
_chemical_formula_moiety         '(C272 H304 N16 O256 Zr40)n'
_symmetry_cell_setting           triclinic
_symmetry_space_group_name_H-M   'P 1'
_symmetry_Int_Tables_number      1
_space_group_name_Hall           'P 1'
loop_
_symmetry_equiv_pos_site_id
_symmetry_equiv_pos_as_xyz
1 x,y,z
_cell_length_a                   21.4562(18)
_cell_length_b                   25.233(2)
_cell_length_c                   33.455(3)
_cell_angle_alpha                90
_cell_angle_beta                 90
_cell_angle_gamma                90
_cell_volume                     18112.7
loop_
_atom_site_label
_atom_site_type_symbol
_atom_site_fract_x
_atom_site_fract_y
_atom_site_fract_z
Zr8 Zr 0.20290(10) 0.58616(8) 0.0000
Zr9 Zr 0.29710(10) 0.08616(8) 0.0000
Zr10 Zr 0.20911(10) 0.26570(9) 0.0000
O39 O 0.3653(7) 0.1567(6) 0.0000
O40 O 0.2982(7) 0.2374(6) 0.0000
O43 O 0.1699(8) 0.1912(7) 0.0000
O45 O 0.1927(8) 0.0966(7) 0.0000
Zr1 Zr 0.70290(10) 0.08616(8) 0.5000
Zr2 Zr 0.79089(10) 0.26570(9) 0.5000
Zr3 Zr 0.67148(8) 0.20328(6) 0.55266(5)
Zr4 Zr 0.82215(9) 0.14890(7) 0.55264(6)
O1 O 0.7614(6) 0.5255(4) 0.5389(4)
O2 O 0.6347(7) 0.1567(6) 0.5000
O3 O 0.7018(7) 0.2374(6) 0.5000
O4 O 0.7706(5) 0.2243(4) 0.5600(3)
O5 O 0.7553(6) 0.3286(5) 0.5390(4)
O6 O 0.6723(6) 0.2875(5) 0.5695(4)
O7 O 0.8301(8) 0.1912(7) 0.5000
O8 O 0.8697(6) 0.2908(6) 0.5382(4)
O9 O 0.8073(8) 0.0966(7) 0.5000
O10 O 0.7288(5) 0.1383(4) 0.5437(3)
O11 O 0.5744(7) 0.2353(6) 0.5453(5)
O12 O 0.8148(8) 0.1543(6) 0.6195(4)
N1 N 0.5953(8) 0.4295(6) 0.6685(4)
O13 O 0.6899(6) 0.5655(4) 0.5770(3)
O14 O 0.8945(7) 0.2101(6) 0.5732(5)
O15 O 0.5161(7) 0.4259(7) 0.6252(4)
C1 C 0.5187(10) 0.4296(7) 0.7331(5)
O16 O 0.6810(8) 0.4296(7) 0.7064(4)
O17 O 0.6803(9) 0.2051(6) 0.6180(4)
C2 C 0.6971(10) 0.3798(8) 0.5816(6)
C3 C 0.6535(10) 0.3796(8) 0.6162(5)
H1 H 0.6374 0.3475 0.6269
C4 C 0.4960(11) 0.4284(7) 0.6950(6)
O18 O 0.9156(9) 0.1107(7) 0.5481(7)
C5 C 0.6377(10) 0.4279(8) 0.6317(6)
C6 C 0.7059(11) 0.3266(8) 0.5620(6)
C7 C 0.7189(10) 0.4247(8) 0.5665(6)
H2 H 0.7465 0.4234 0.5443
C8 C 0.7230(11) 0.5277(8) 0.5651(6)
C9 C 0.5817(10) 0.4282(8) 0.7391(6)
C10 C 0.3930(11) 0.4284(8) 0.7227(7)
H3 H 0.3491 0.4283 0.7188
C11 C 0.6624(10) 0.4761(8) 0.6169(6)
H4 H 0.6522 0.5084 0.6299
C12 C 0.5309(11) 0.4257(8) 0.6591(7)
C13 C 0.7014(10) 0.4770(7) 0.5834(6)
C14 C 0.4342(12) 0.4289(9) 0.6898(6)
H5 H 0.4177 0.4295 0.6634
C15 C 0.6233(11) 0.4278(8) 0.7061(6)
C16 C 0.9040(13) 0.2622(12) 0.5626(9)
O19 O 0.6091(7) 0.1384(6) 0.5775(4)
O20 O 0.6261(6) 0.0612(5) 0.5386(4)
C17 C 0.6022(13) 0.0854(11) 0.5691(9)
O21 O 0.2386(6) 0.5255(4) 0.9611(4)
O22 O 0.2447(6) 0.3286(5) 0.9610(4)
O23 O 0.3277(6) 0.2875(5) 0.9305(4)
N2 N 0.4047(8) 0.4295(6) 0.8315(4)
O24 O 0.3101(6) 0.5655(4) 0.9230(3)
O25 O 0.4839(7) 0.4259(7) 0.8748(4)
C18 C 0.4813(10) 0.4296(7) 0.7669(5)
O26 O 0.3190(8) 0.4296(7) 0.7936(4)
C19 C 0.3029(10) 0.3798(8) 0.9184(6)
C20 C 0.3465(10) 0.3796(8) 0.8838(5)
H6 H 0.3626 0.3475 0.8731
C21 C 0.5040(11) 0.4284(7) 0.8050(6)
C22 C 0.3623(10) 0.4279(8) 0.8683(6)
C23 C 0.2941(11) 0.3266(8) 0.9380(6)
C24 C 0.2811(10) 0.4247(8) 0.9335(6)
H7 H 0.2535 0.4234 0.9557
C25 C 0.2770(11) 0.5277(8) 0.9349(6)
C26 C 0.4183(10) 0.4282(8) 0.7609(6)
C27 C 0.6070(11) 0.4284(8) 0.7773(7)
H8 H 0.6509 0.4283 0.7812
C28 C 0.3376(10) 0.4761(8) 0.8831(6)
H9 H 0.3478 0.5084 0.8701
C29 C 0.4691(11) 0.4257(8) 0.8409(7)
C30 C 0.2986(10) 0.4770(7) 0.9166(6)
C31 C 0.5658(12) 0.4289(9) 0.8102(6)
H10 H 0.5823 0.4295 0.8366
C32 C 0.3767(11) 0.4278(8) 0.7939(6)
Zr5 Zr 0.32852(8) 0.20328(6) 0.94734(5)
Zr6 Zr 0.17785(9) 0.14890(7) 0.94736(6)
O27 O 0.2294(5) 0.2243(4) 0.9400(3)
O28 O 0.1303(6) 0.2908(6) 0.9618(4)
O29 O 0.2712(5) 0.1383(4) 0.9563(3)
O30 O 0.4256(7) 0.2353(6) 0.9547(5)
O31 O 0.1852(8) 0.1543(6) 0.8805(4)
O32 O 0.1055(7) 0.2101(6) 0.9268(5)
O33 O 0.3197(9) 0.2051(6) 0.8820(4)
O34 O 0.0844(9) 0.1107(7) 0.9519(7)
C33 C 0.0960(13) 0.2622(12) 0.9374(9)
O35 O 0.3909(7) 0.1384(6) 0.9225(4)
O36 O 0.3739(6) 0.0612(5) 0.9614(4)
C34 C 0.3978(13) 0.0854(11) 0.9309(9)
Zr7 Zr 0.79710(10) 0.58616(8) 0.5000
Zr8_2 Zr 0.20290(10) 0.58616(8) 1.0000
Zr9_2 Zr 0.29710(10) 0.08616(8) 1.0000
Zr10_2 Zr 0.20911(10) 0.26570(9) 1.0000
Zr11 Zr 0.67148(8) 0.20328(6) 0.44734(5)
Zr12 Zr 0.82215(9) 0.14890(7) 0.44736(6)
Zr13 Zr 0.67785(9) 0.64890(7) 0.55264(6)
Zr14 Zr 0.32215(9) 0.64890(7) 0.94736(6)
O37 O 0.7386(6) 0.0255(4) 0.4611(4)
O38 O 0.7386(6) 0.0255(4) 0.5389(4)
O39_2 O 0.3653(7) 0.1567(6) 1.0000
O40_2 O 0.2982(7) 0.2374(6) 1.0000
O41 O 0.7706(5) 0.2243(4) 0.4400(3)
O42 O 0.7553(6) 0.3286(5) 0.4610(4)
O43_2 O 0.1699(8) 0.1912(7) 1.0000
O44 O 0.8697(6) 0.2908(6) 0.4618(4)
O45_2 O 0.1927(8) 0.0966(7) 1.0000
O46 O 0.7288(5) 0.1383(4) 0.4563(3)
O47 O 0.8101(6) 0.0655(4) 0.5770(3)
O48 O 0.1899(6) 0.0655(4) 0.9230(3)
O49 O 0.6261(6) 0.0612(5) 0.4614(4)
H11 H 0.770192 0.155082 0.627384
H12 H 0.835332 0.12303 0.631802
H15 H 0.94422 0.281817 0.575839
H16 H 0.574399 0.0618676 0.589755
H17 H 0.939714 0.117835 0.572856
H18 H 0.910395 0.0718585 0.544691
H23 H 0.0602857 0.117835 0.927144
H24 H 0.089605 0.0718585 0.955309
H25 H 0.05578 0.281817 0.924161
H28 H 0.229808 0.155082 0.872616
H29 H 0.164668 0.12303 0.868198
H30 H 0.425601 0.0618676 0.910245
O21_2 O 0.2614(6) 0.0255(4) 0.0389(4)
O24_2 O 0.1899(6) 0.0655(4) 0.0770(3)
C25_2 C 0.2230(11) 0.0277(8) 0.0651(6)
H9_2 H 0.1522 0.0084 0.1299
Zr14_2 Zr 0.17785(9) 0.14890(7) 0.05264(6)
C4_2 C 0.0040(11) 0.9284(7) 0.3050(6)
C10_2 C 0.1070(11) 0.9284(8) 0.2773(7)
H3_2 H 0.1509 0.9283 0.2812
C14_2 C 0.0658(12) 0.9289(9) 0.3102(6)
H5_2 H 0.0823 0.9295 0.3366
O22_2 O 0.2553(6) 0.8286(5) 0.0390(4)
O23_2 O 0.1723(6) 0.7875(5) 0.0695(4)
N2_2 N 0.0953(8) 0.9295(6) 0.1685(4)
O25_2 O 0.0161(7) 0.9259(7) 0.1252(4)
C18_2 C 0.0187(10) 0.9296(7) 0.2331(5)
O26_2 O 0.1810(8) 0.9296(7) 0.2064(4)
C19_2 C 0.1971(10) 0.8798(8) 0.0816(6)
C20_2 C 0.1535(10) 0.8796(8) 0.1162(5)
H6_2 H 0.1374 0.8475 0.1269
C22_2 C 0.1377(10) 0.9279(8) 0.1317(6)
C23_2 C 0.2059(11) 0.8266(8) 0.0620(6)
C24_2 C 0.2189(10) 0.9247(8) 0.0665(6)
H7_2 H 0.2465 0.9234 0.0443
C26_2 C 0.0817(10) 0.9282(8) 0.2391(6)
C28_2 C 0.1624(10) 0.9761(8) 0.1169(6)
C29_2 C 0.0309(11) 0.9257(8) 0.1591(7)
C30_2 C 0.2014(10) 0.9770(7) 0.0834(6)
C32_2 C 0.1233(11) 0.9278(8) 0.2061(6)
Zr5_2 Zr 0.17148(8) 0.70328(6) 0.05266(5)
Zr6_2 Zr 0.32215(9) 0.64890(7) 0.05264(6)
O27_2 O 0.2706(5) 0.7243(4) 0.0600(3)
O28_2 O 0.3697(6) 0.7908(6) 0.0382(4)
O29_2 O 0.2288(5) 0.6383(4) 0.0437(3)
O30_2 O 0.0744(7) 0.7353(6) 0.0453(5)
O31_2 O 0.3148(8) 0.6543(6) 0.1195(4)
O32_2 O 0.3945(7) 0.7101(6) 0.0732(5)
O33_2 O 0.1803(9) 0.7051(6) 0.1180(4)
O34_2 O 0.4156(9) 0.6107(7) 0.0481(7)
C33_2 C 0.4040(13) 0.7622(12) 0.0626(9)
O35_2 O 0.1091(7) 0.6384(6) 0.0775(4)
O36_2 O 0.1261(6) 0.5612(5) 0.0386(4)
C34_2 C 0.1022(13) 0.5854(11) 0.0691(9)
Zr10_3 Zr 0.29089(10) 0.76570(9) 0.0000
O39_3 O 0.1347(7) 0.6567(6) 0.0000
O40_3 O 0.2018(7) 0.7374(6) 0.0000
O43_3 O 0.3301(8) 0.6912(7) 0.0000
O45_3 O 0.3073(8) 0.5966(7) 0.0000
O48_2 O 0.3101(6) 0.5655(4) 0.0770(3)
H23_2 H 0.439714 0.617835 0.072856
H24_2 H 0.410395 0.571859 0.0446912
H25_2 H 0.44422 0.781817 0.0758395
H28_2 H 0.270192 0.655082 0.127384
H29_2 H 0.335332 0.62303 0.131802
H30_2 H 0.0743986 0.561868 0.0897551
Zr10_4 Zr 0.29089(10) 0.76570(9) 1.0000
O39_4 O 0.1347(7) 0.6567(6) 1.0000
O40_4 O 0.2018(7) 0.7374(6) 1.0000
O43_4 O 0.3301(8) 0.6912(7) 1.0000
O45_4 O 0.3073(8) 0.5966(7) 1.0000
O13_2 O 0.8101(6) 0.0655(4) 0.4230(3)
C8_2 C 0.7770(11) 0.0277(8) 0.4349(6)
H4_2 H 0.8478 0.0084 0.3701
Zr2_2 Zr 0.70911(10) 0.76570(9) 0.5000
Zr3_2 Zr 0.82852(8) 0.70328(6) 0.44734(5)
Zr4_2 Zr 0.67785(9) 0.64890(7) 0.44736(6)
O2_2 O 0.8653(7) 0.6567(6) 0.5000
O3_2 O 0.7982(7) 0.7374(6) 0.5000
O4_2 O 0.7294(5) 0.7243(4) 0.4400(3)
O5_2 O 0.7447(6) 0.8286(5) 0.4610(4)
O6_2 O 0.8277(6) 0.7875(5) 0.4305(4)
O7_2 O 0.6699(8) 0.6912(7) 0.5000
O8_2 O 0.6303(6) 0.7908(6) 0.4618(4)
O9_2 O 0.6927(8) 0.5966(7) 0.5000
O10_2 O 0.7712(5) 0.6383(4) 0.4563(3)
O11_2 O 0.9256(7) 0.7353(6) 0.4547(5)
O12_2 O 0.6852(8) 0.6543(6) 0.3805(4)
N1_2 N 0.9047(8) 0.9295(6) 0.3315(4)
O14_2 O 0.6055(7) 0.7101(6) 0.4268(5)
O15_2 O 0.9839(7) 0.9259(7) 0.3748(4)
C1_2 C 0.9813(10) 0.9296(7) 0.2669(5)
O16_2 O 0.8190(8) 0.9296(7) 0.2936(4)
O17_2 O 0.8197(9) 0.7051(6) 0.3820(4)
C2_2 C 0.8029(10) 0.8798(8) 0.4184(6)
C3_2 C 0.8465(10) 0.8796(8) 0.3838(5)
H1_2 H 0.8626 0.8475 0.3731
O18_2 O 0.5844(9) 0.6107(7) 0.4519(7)
C5_2 C 0.8623(10) 0.9279(8) 0.3683(6)
C6_2 C 0.7941(11) 0.8266(8) 0.4380(6)
C7_2 C 0.7811(10) 0.9247(8) 0.4335(6)
H2_2 H 0.7535 0.9234 0.4557
C9_2 C 0.9183(10) 0.9282(8) 0.2609(6)
C11_2 C 0.8376(10) 0.9761(8) 0.3831(6)
C12_2 C 0.9691(11) 0.9257(8) 0.3409(7)
C13_2 C 0.7986(10) 0.9770(7) 0.4166(6)
C15_2 C 0.8767(11) 0.9278(8) 0.2939(6)
C16_2 C 0.5960(13) 0.7622(12) 0.4374(9)
O19_2 O 0.8909(7) 0.6384(6) 0.4225(4)
O20_2 O 0.8739(6) 0.5612(5) 0.4614(4)
C17_2 C 0.8978(13) 0.5854(11) 0.4309(9)
C21_2 C 0.9960(11) 0.9284(7) 0.1950(6)
C27_2 C 0.8930(11) 0.9284(8) 0.2227(7)
H8_2 H 0.8491 0.9283 0.2188
C31_2 C 0.9342(12) 0.9289(9) 0.1898(6)
H10_2 H 0.9177 0.9295 0.1634
Zr11_2 Zr 0.82852(8) 0.70328(6) 0.55266(5)
O38_2 O 0.7614(6) 0.5255(4) 0.4611(4)
O41_2 O 0.7294(5) 0.7243(4) 0.5600(3)
O42_2 O 0.7447(6) 0.8286(5) 0.5390(4)
O44_2 O 0.6303(6) 0.7908(6) 0.5382(4)
O46_2 O 0.7712(5) 0.6383(4) 0.5437(3)
O47_2 O 0.6899(6) 0.5655(4) 0.4230(3)
O49_2 O 0.8739(6) 0.5612(5) 0.5386(4)
H11_2 H 0.729808 0.655082 0.372616
H12_2 H 0.664668 0.62303 0.368198
H15_2 H 0.55578 0.781817 0.424161
H16_2 H 0.925601 0.561868 0.410245
H17_2 H 0.560286 0.617835 0.427144
H18_2 H 0.589605 0.571859 0.455309
O38_3 O 0.2386(6) 0.5255(4) 0.0389(4)
Zr11_3 Zr 0.17148(8) 0.70328(6) 0.94734(5)
O41_3 O 0.2706(5) 0.7243(4) 0.9400(3)
O42_3 O 0.2553(6) 0.8286(5) 0.9610(4)
O44_3 O 0.3697(6) 0.7908(6) 0.9618(4)
O46_3 O 0.2288(5) 0.6383(4) 0.9563(3)
O49_3 O 0.1261(6) 0.5612(5) 0.9614(4)
Zr11_4 Zr 0.32852(8) 0.20328(6) 0.05266(5)
O41_4 O 0.2294(5) 0.2243(4) 0.0600(3)
O42_4 O 0.2447(6) 0.3286(5) 0.0390(4)
O44_4 O 0.1303(6) 0.2908(6) 0.0382(4)
O46_4 O 0.2712(5) 0.1383(4) 0.0437(3)
O49_4 O 0.3739(6) 0.0612(5) 0.0386(4)
O38_4 O 0.2614(6) 0.0255(4) 0.9611(4)
O6_3 O 0.6723(6) 0.2875(5) 0.4305(4)
O11_3 O 0.5744(7) 0.2353(6) 0.4547(5)
O12_3 O 0.8148(8) 0.1543(6) 0.3805(4)
N1_3 N 0.5953(8) 0.4295(6) 0.3315(4)
O14_3 O 0.8945(7) 0.2101(6) 0.4268(5)
O15_3 O 0.5161(7) 0.4259(7) 0.3748(4)
C1_3 C 0.5187(10) 0.4296(7) 0.2669(5)
O16_3 O 0.6810(8) 0.4296(7) 0.2936(4)
O17_3 O 0.6803(9) 0.2051(6) 0.3820(4)
C2_3 C 0.6971(10) 0.3798(8) 0.4184(6)
C3_3 C 0.6535(10) 0.3796(8) 0.3838(5)
H1_3 H 0.6374 0.3475 0.3731
C4_3 C 0.4960(11) 0.4284(7) 0.3050(6)
O18_3 O 0.9156(9) 0.1107(7) 0.4519(7)
C5_3 C 0.6377(10) 0.4279(8) 0.3683(6)
C6_3 C 0.7059(11) 0.3266(8) 0.4380(6)
C7_3 C 0.7189(10) 0.4247(8) 0.4335(6)
H2_3 H 0.7465 0.4234 0.4557
C8_3 C 0.7230(11) 0.5277(8) 0.4349(6)
C9_3 C 0.5817(10) 0.4282(8) 0.2609(6)
C10_3 C 0.3930(11) 0.4284(8) 0.2773(7)
H3_3 H 0.3491 0.4283 0.2812
C11_3 C 0.6624(10) 0.4761(8) 0.3831(6)
H4_3 H 0.6522 0.5084 0.3701
C12_3 C 0.5309(11) 0.4257(8) 0.3409(7)
C13_3 C 0.7014(10) 0.4770(7) 0.4166(6)
C14_3 C 0.4342(12) 0.4289(9) 0.3102(6)
H5_3 H 0.4177 0.4295 0.3366
C15_3 C 0.6233(11) 0.4278(8) 0.2939(6)
C16_3 C 0.9040(13) 0.2622(12) 0.4374(9)
O19_3 O 0.6091(7) 0.1384(6) 0.4225(4)
C17_3 C 0.6022(13) 0.0854(11) 0.4309(9)
O23_3 O 0.3277(6) 0.2875(5) 0.0695(4)
N2_3 N 0.4047(8) 0.4295(6) 0.1685(4)
O25_3 O 0.4839(7) 0.4259(7) 0.1252(4)
C18_3 C 0.4813(10) 0.4296(7) 0.2331(5)
O26_3 O 0.3190(8) 0.4296(7) 0.2064(4)
C19_3 C 0.3029(10) 0.3798(8) 0.0816(6)
C20_3 C 0.3465(10) 0.3796(8) 0.1162(5)
H6_3 H 0.3626 0.3475 0.1269
C21_3 C 0.5040(11) 0.4284(7) 0.1950(6)
C22_3 C 0.3623(10) 0.4279(8) 0.1317(6)
C23_3 C 0.2941(11) 0.3266(8) 0.0620(6)
C24_3 C 0.2811(10) 0.4247(8) 0.0665(6)
H7_3 H 0.2535 0.4234 0.0443
C25_3 C 0.2770(11) 0.5277(8) 0.0651(6)
C26_3 C 0.4183(10) 0.4282(8) 0.2391(6)
C27_3 C 0.6070(11) 0.4284(8) 0.2227(7)
H8_3 H 0.6509 0.4283 0.2188
C28_3 C 0.3376(10) 0.4761(8) 0.1169(6)
H9_3 H 0.3478 0.5084 0.1299
C29_3 C 0.4691(11) 0.4257(8) 0.1591(7)
C30_3 C 0.2986(10) 0.4770(7) 0.0834(6)
C31_3 C 0.5658(12) 0.4289(9) 0.1898(6)
H10_3 H 0.5823 0.4295 0.1634
C32_3 C 0.3767(11) 0.4278(8) 0.2061(6)
O30_3 O 0.4256(7) 0.2353(6) 0.0453(5)
O31_3 O 0.1852(8) 0.1543(6) 0.1195(4)
O32_3 O 0.1055(7) 0.2101(6) 0.0732(5)
O33_3 O 0.3197(9) 0.2051(6) 0.1180(4)
O34_3 O 0.0844(9) 0.1107(7) 0.0481(7)
C33_3 C 0.0960(13) 0.2622(12) 0.0626(9)
O35_3 O 0.3909(7) 0.1384(6) 0.0775(4)
C34_3 C 0.3978(13) 0.0854(11) 0.0691(9)
H11_3 H 0.770192 0.155082 0.372616
H12_3 H 0.835332 0.12303 0.368198
H15_3 H 0.94422 0.281817 0.424161
H16_3 H 0.574399 0.0618676 0.410245
H17_3 H 0.939714 0.117835 0.427144
H18_3 H 0.910395 0.0718585 0.455309
H23_3 H 0.0602857 0.117835 0.072856
H24_3 H 0.089605 0.0718585 0.0446912
H25_3 H 0.05578 0.281817 0.0758395
H28_3 H 0.229808 0.155082 0.127384
H29_3 H 0.164668 0.12303 0.131802
H30_3 H 0.425601 0.0618676 0.0897551
C25_4 C 0.2230(11) 0.0277(8) 0.9349(6)
H9_4 H 0.1522 0.0084 0.8701
C4_4 C 0.0040(11) 0.9284(7) 0.6950(6)
C10_4 C 0.1070(11) 0.9284(8) 0.7227(7)
H3_4 H 0.1509 0.9283 0.7188
C14_4 C 0.0658(12) 0.9289(9) 0.6898(6)
H5_4 H 0.0823 0.9295 0.6634
O23_4 O 0.1723(6) 0.7875(5) 0.9305(4)
N2_4 N 0.0953(8) 0.9295(6) 0.8315(4)
O25_4 O 0.0161(7) 0.9259(7) 0.8748(4)
C18_4 C 0.0187(10) 0.9296(7) 0.7669(5)
O26_4 O 0.1810(8) 0.9296(7) 0.7936(4)
C19_4 C 0.1971(10) 0.8798(8) 0.9184(6)
C20_4 C 0.1535(10) 0.8796(8) 0.8838(5)
H6_4 H 0.1374 0.8475 0.8731
C22_4 C 0.1377(10) 0.9279(8) 0.8683(6)
C23_4 C 0.2059(11) 0.8266(8) 0.9380(6)
C24_4 C 0.2189(10) 0.9247(8) 0.9335(6)
H7_4 H 0.2465 0.9234 0.9557
C26_4 C 0.0817(10) 0.9282(8) 0.7609(6)
C28_4 C 0.1624(10) 0.9761(8) 0.8831(6)
C29_4 C 0.0309(11) 0.9257(8) 0.8409(7)
C30_4 C 0.2014(10) 0.9770(7) 0.9166(6)
C32_4 C 0.1233(11) 0.9278(8) 0.7939(6)
O30_4 O 0.0744(7) 0.7353(6) 0.9547(5)
O31_4 O 0.3148(8) 0.6543(6) 0.8805(4)
O32_4 O 0.3945(7) 0.7101(6) 0.9268(5)
O33_4 O 0.1803(9) 0.7051(6) 0.8820(4)
O34_4 O 0.4156(9) 0.6107(7) 0.9519(7)
C33_4 C 0.4040(13) 0.7622(12) 0.9374(9)
O35_4 O 0.1091(7) 0.6384(6) 0.9225(4)
C34_4 C 0.1022(13) 0.5854(11) 0.9309(9)
H23_4 H 0.439714 0.617835 0.927144
H24_4 H 0.410395 0.571859 0.955309
H25_4 H 0.44422 0.781817 0.924161
H28_4 H 0.270192 0.655082 0.872616
H29_4 H 0.335332 0.62303 0.868198
H30_4 H 0.0743986 0.561868 0.910245
C8_4 C 0.7770(11) 0.0277(8) 0.5651(6)
H4_4 H 0.8478 0.0084 0.6299
O6_4 O 0.8277(6) 0.7875(5) 0.5695(4)
O11_4 O 0.9256(7) 0.7353(6) 0.5453(5)
O12_4 O 0.6852(8) 0.6543(6) 0.6195(4)
N1_4 N 0.9047(8) 0.9295(6) 0.6685(4)
O14_4 O 0.6055(7) 0.7101(6) 0.5732(5)
O15_4 O 0.9839(7) 0.9259(7) 0.6252(4)
C1_4 C 0.9813(10) 0.9296(7) 0.7331(5)
O16_4 O 0.8190(8) 0.9296(7) 0.7064(4)
O17_4 O 0.8197(9) 0.7051(6) 0.6180(4)
C2_4 C 0.8029(10) 0.8798(8) 0.5816(6)
C3_4 C 0.8465(10) 0.8796(8) 0.6162(5)
H1_4 H 0.8626 0.8475 0.6269
O18_4 O 0.5844(9) 0.6107(7) 0.5481(7)
C5_4 C 0.8623(10) 0.9279(8) 0.6317(6)
C6_4 C 0.7941(11) 0.8266(8) 0.5620(6)
C7_4 C 0.7811(10) 0.9247(8) 0.5665(6)
H2_4 H 0.7535 0.9234 0.5443
C9_4 C 0.9183(10) 0.9282(8) 0.7391(6)
C11_4 C 0.8376(10) 0.9761(8) 0.6169(6)
C12_4 C 0.9691(11) 0.9257(8) 0.6591(7)
C13_4 C 0.7986(10) 0.9770(7) 0.5834(6)
C15_4 C 0.8767(11) 0.9278(8) 0.7061(6)
C16_4 C 0.5960(13) 0.7622(12) 0.5626(9)
O19_4 O 0.8909(7) 0.6384(6) 0.5775(4)
C17_4 C 0.8978(13) 0.5854(11) 0.5691(9)
C21_4 C 0.9960(11) 0.9284(7) 0.8050(6)
C27_4 C 0.8930(11) 0.9284(8) 0.7773(7)
H8_4 H 0.8491 0.9283 0.7812
C31_4 C 0.9342(12) 0.9289(9) 0.8102(6)
H10_4 H 0.9177 0.9295 0.8366
H11_4 H 0.729808 0.655082 0.627384
H12_4 H 0.664668 0.62303 0.631802
H15_4 H 0.55578 0.781817 0.575839
H16_4 H 0.925601 0.561868 0.589755
H17_4 H 0.560286 0.617835 0.572856
H18_4 H 0.589605 0.571859 0.544691
Zr8_3 Zr 0.79710(10) 0.41384(8) 0.0000
Zr9_3 Zr 0.70290(10) 0.91384(8) 0.0000
Zr10_5 Zr 0.79089(10) 0.73430(9) 0.0000
O39_5 O 0.6347(7) 0.8433(6) 0.0000
O40_5 O 0.7018(7) 0.7626(6) 0.0000
O43_5 O 0.8301(8) 0.8088(7) 0.0000
O45_5 O 0.8073(8) 0.9034(7) 0.0000
Zr1_2 Zr 0.29710(10) 0.91384(8) 0.5000
Zr2_3 Zr 0.20911(10) 0.73430(9) 0.5000
Zr3_3 Zr 0.32852(8) 0.79672(6) 0.55266(5)
Zr4_3 Zr 0.17785(9) 0.85110(7) 0.55264(6)
O1_2 O 0.2386(6) 0.4745(4) 0.5389(4)
O2_3 O 0.3653(7) 0.8433(6) 0.5000
O3_3 O 0.2982(7) 0.7626(6) 0.5000
O4_3 O 0.2294(5) 0.7757(4) 0.5600(3)
O5_3 O 0.2447(6) 0.6714(5) 0.5390(4)
O6_5 O 0.3277(6) 0.7125(5) 0.5695(4)
O7_3 O 0.1699(8) 0.8088(7) 0.5000
O8_3 O 0.1303(6) 0.7092(6) 0.5382(4)
O9_3 O 0.1927(8) 0.9034(7) 0.5000
O10_3 O 0.2712(5) 0.8617(4) 0.5437(3)
O11_5 O 0.4256(7) 0.7647(6) 0.5453(5)
O12_5 O 0.1852(8) 0.8457(6) 0.6195(4)
N1_5 N 0.4047(8) 0.5705(6) 0.6685(4)
O13_3 O 0.3101(6) 0.4345(4) 0.5770(3)
O14_5 O 0.1055(7) 0.7899(6) 0.5732(5)
O15_5 O 0.4839(7) 0.5741(7) 0.6252(4)
C1_5 C 0.4813(10) 0.5704(7) 0.7331(5)
O16_5 O 0.3190(8) 0.5704(7) 0.7064(4)
O17_5 O 0.3197(9) 0.7949(6) 0.6180(4)
C2_5 C 0.3029(10) 0.6202(8) 0.5816(6)
C3_5 C 0.3465(10) 0.6204(8) 0.6162(5)
H1_5 H 0.3626 0.6525 0.6269
C4_5 C 0.5040(11) 0.5716(7) 0.6950(6)
O18_5 O 0.0844(9) 0.8893(7) 0.5481(7)
C5_5 C 0.3623(10) 0.5721(8) 0.6317(6)
C6_5 C 0.2941(11) 0.6734(8) 0.5620(6)
C7_5 C 0.2811(10) 0.5753(8) 0.5665(6)
H2_5 H 0.2535 0.5766 0.5443
C8_5 C 0.2770(11) 0.4723(8) 0.5651(6)
C9_5 C 0.4183(10) 0.5718(8) 0.7391(6)
C10_5 C 0.6070(11) 0.5716(8) 0.7227(7)
H3_5 H 0.6509 0.5717 0.7188
C11_5 C 0.3376(10) 0.5239(8) 0.6169(6)
H4_5 H 0.3478 0.4916 0.6299
C12_5 C 0.4691(11) 0.5743(8) 0.6591(7)
C13_5 C 0.2986(10) 0.5230(7) 0.5834(6)
C14_5 C 0.5658(12) 0.5711(9) 0.6898(6)
H5_5 H 0.5823 0.5705 0.6634
C15_5 C 0.3767(11) 0.5722(8) 0.7061(6)
C16_5 C 0.0960(13) 0.7378(12) 0.5626(9)
O19_5 O 0.3909(7) 0.8616(6) 0.5775(4)
O20_3 O 0.3739(6) 0.9388(5) 0.5386(4)
C17_5 C 0.3978(13) 0.9146(11) 0.5691(9)
O21_3 O 0.7614(6) 0.4745(4) 0.9611(4)
O22_3 O 0.7553(6) 0.6714(5) 0.9610(4)
O23_5 O 0.6723(6) 0.7125(5) 0.9305(4)
N2_5 N 0.5953(8) 0.5705(6) 0.8315(4)
O24_3 O 0.6899(6) 0.4345(4) 0.9230(3)
O25_5 O 0.5161(7) 0.5741(7) 0.8748(4)
C18_5 C 0.5187(10) 0.5704(7) 0.7669(5)
O26_5 O 0.6810(8) 0.5704(7) 0.7936(4)
C19_5 C 0.6971(10) 0.6202(8) 0.9184(6)
C20_5 C 0.6535(10) 0.6204(8) 0.8838(5)
H6_5 H 0.6374 0.6525 0.8731
C21_5 C 0.4960(11) 0.5716(7) 0.8050(6)
C22_5 C 0.6377(10) 0.5721(8) 0.8683(6)
C23_5 C 0.7059(11) 0.6734(8) 0.9380(6)
C24_5 C 0.7189(10) 0.5753(8) 0.9335(6)
H7_5 H 0.7465 0.5766 0.9557
C25_5 C 0.7230(11) 0.4723(8) 0.9349(6)
C26_5 C 0.5817(10) 0.5718(8) 0.7609(6)
C27_5 C 0.3930(11) 0.5716(8) 0.7773(7)
H8_5 H 0.3491 0.5717 0.7812
C28_5 C 0.6624(10) 0.5239(8) 0.8831(6)
H9_5 H 0.6522 0.4916 0.8701
C29_5 C 0.5309(11) 0.5743(8) 0.8409(7)
C30_5 C 0.7014(10) 0.5230(7) 0.9166(6)
C31_5 C 0.4342(12) 0.5711(9) 0.8102(6)
H10_5 H 0.4177 0.5705 0.8366
C32_5 C 0.6233(11) 0.5722(8) 0.7939(6)
Zr5_3 Zr 0.67148(8) 0.79672(6) 0.94734(5)
Zr6_3 Zr 0.82215(9) 0.85110(7) 0.94736(6)
O27_3 O 0.7706(5) 0.7757(4) 0.9400(3)
O28_3 O 0.8697(6) 0.7092(6) 0.9618(4)
O29_3 O 0.7288(5) 0.8617(4) 0.9563(3)
O30_5 O 0.5744(7) 0.7647(6) 0.9547(5)
O31_5 O 0.8148(8) 0.8457(6) 0.8805(4)
O32_5 O 0.8945(7) 0.7899(6) 0.9268(5)
O33_5 O 0.6803(9) 0.7949(6) 0.8820(4)
O34_5 O 0.9156(9) 0.8893(7) 0.9519(7)
C33_5 C 0.9040(13) 0.7378(12) 0.9374(9)
O35_5 O 0.6091(7) 0.8616(6) 0.9225(4)
O36_3 O 0.6261(6) 0.9388(5) 0.9614(4)
C34_5 C 0.6022(13) 0.9146(11) 0.9309(9)
Zr7_2 Zr 0.20290(10) 0.41384(8) 0.5000
Zr8_4 Zr 0.79710(10) 0.41384(8) 1.0000
Zr9_4 Zr 0.70290(10) 0.91384(8) 1.0000
Zr10_6 Zr 0.79089(10) 0.73430(9) 1.0000
Zr11_5 Zr 0.32852(8) 0.79672(6) 0.44734(5)
Zr12_2 Zr 0.17785(9) 0.85110(7) 0.44736(6)
Zr13_2 Zr 0.32215(9) 0.35110(7) 0.55264(6)
Zr14_3 Zr 0.67785(9) 0.35110(7) 0.94736(6)
O37_2 O 0.2614(6) 0.9745(4) 0.4611(4)
O38_5 O 0.2614(6) 0.9745(4) 0.5389(4)
O39_6 O 0.6347(7) 0.8433(6) 1.0000
O40_6 O 0.7018(7) 0.7626(6) 1.0000
O41_5 O 0.2294(5) 0.7757(4) 0.4400(3)
O42_5 O 0.2447(6) 0.6714(5) 0.4610(4)
O43_6 O 0.8301(8) 0.8088(7) 1.0000
O44_5 O 0.1303(6) 0.7092(6) 0.4618(4)
O45_6 O 0.8073(8) 0.9034(7) 1.0000
O46_5 O 0.2712(5) 0.8617(4) 0.4563(3)
O47_3 O 0.1899(6) 0.9345(4) 0.5770(3)
O48_3 O 0.8101(6) 0.9345(4) 0.9230(3)
O49_5 O 0.3739(6) 0.9388(5) 0.4614(4)
H11_5 H 0.229808 0.844918 0.627384
H12_5 H 0.164668 0.87697 0.631802
H15_5 H 0.05578 0.718183 0.575839
H16_5 H 0.425601 0.938132 0.589755
H17_5 H 0.0602857 0.882165 0.572856
H18_5 H 0.089605 0.928141 0.544691
H23_5 H 0.939714 0.882165 0.927144
H24_5 H 0.910395 0.928141 0.955309
H25_5 H 0.94422 0.718183 0.924161
H28_5 H 0.770192 0.844918 0.872616
H29_5 H 0.835332 0.87697 0.868198
H30_5 H 0.574399 0.938132 0.910245
Zr2_4 Zr 0.29089(10) 0.23430(9) 0.5000
Zr3_4 Zr 0.17148(8) 0.29672(6) 0.44734(5)
Zr4_4 Zr 0.32215(9) 0.35110(7) 0.44736(6)
O2_4 O 0.1347(7) 0.3433(6) 0.5000
O3_4 O 0.2018(7) 0.2626(6) 0.5000
O4_4 O 0.2706(5) 0.2757(4) 0.4400(3)
O5_4 O 0.2553(6) 0.1714(5) 0.4610(4)
O6_6 O 0.1723(6) 0.2125(5) 0.4305(4)
O7_4 O 0.3301(8) 0.3088(7) 0.5000
O8_4 O 0.3697(6) 0.2092(6) 0.4618(4)
O9_4 O 0.3073(8) 0.4034(7) 0.5000
O10_4 O 0.2288(5) 0.3617(4) 0.4563(3)
O11_6 O 0.0744(7) 0.2647(6) 0.4547(5)
O12_6 O 0.3148(8) 0.3457(6) 0.3805(4)
N1_6 N 0.0953(8) 0.0705(6) 0.3315(4)
O14_6 O 0.3945(7) 0.2899(6) 0.4268(5)
O15_6 O 0.0161(7) 0.0741(7) 0.3748(4)
C1_6 C 0.0187(10) 0.0704(7) 0.2669(5)
O16_6 O 0.1810(8) 0.0704(7) 0.2936(4)
O17_6 O 0.1803(9) 0.2949(6) 0.3820(4)
C2_6 C 0.1971(10) 0.1202(8) 0.4184(6)
C3_6 C 0.1535(10) 0.1204(8) 0.3838(5)
H1_6 H 0.1374 0.1525 0.3731
O18_6 O 0.4156(9) 0.3893(7) 0.4519(7)
C5_6 C 0.1377(10) 0.0721(8) 0.3683(6)
C6_6 C 0.2059(11) 0.1734(8) 0.4380(6)
C7_6 C 0.2189(10) 0.0753(8) 0.4335(6)
H2_6 H 0.2465 0.0766 0.4557
C9_6 C 0.0817(10) 0.0718(8) 0.2609(6)
C11_6 C 0.1624(10) 0.0239(8) 0.3831(6)
C12_6 C 0.0309(11) 0.0743(8) 0.3409(7)
C13_6 C 0.2014(10) 0.0230(7) 0.4166(6)
C15_6 C 0.1233(11) 0.0722(8) 0.2939(6)
C16_6 C 0.4040(13) 0.2378(12) 0.4374(9)
O19_6 O 0.1091(7) 0.3616(6) 0.4225(4)
O20_4 O 0.1261(6) 0.4388(5) 0.4614(4)
C17_6 C 0.1022(13) 0.4146(11) 0.4309(9)
C21_6 C 0.0040(11) 0.0716(7) 0.1950(6)
C27_6 C 0.1070(11) 0.0716(8) 0.2227(7)
H8_6 H 0.1509 0.0717 0.2188
C31_6 C 0.0658(12) 0.0711(9) 0.1898(6)
H10_6 H 0.0823 0.0705 0.1634
Zr11_6 Zr 0.17148(8) 0.29672(6) 0.55266(5)
O38_6 O 0.2386(6) 0.4745(4) 0.4611(4)
O41_6 O 0.2706(5) 0.2757(4) 0.5600(3)
O42_6 O 0.2553(6) 0.1714(5) 0.5390(4)
O44_6 O 0.3697(6) 0.2092(6) 0.5382(4)
O46_6 O 0.2288(5) 0.3617(4) 0.5437(3)
O47_4 O 0.3101(6) 0.4345(4) 0.4230(3)
O49_6 O 0.1261(6) 0.4388(5) 0.5386(4)
H11_6 H 0.270192 0.344918 0.372616
H12_6 H 0.335332 0.37697 0.368198
H15_6 H 0.44422 0.218183 0.424161
H16_6 H 0.0743986 0.438132 0.410245
H17_6 H 0.439714 0.382165 0.427144
H18_6 H 0.410395 0.428141 0.455309
O13_4 O 0.1899(6) 0.9345(4) 0.4230(3)
C8_6 C 0.2230(11) 0.9723(8) 0.4349(6)
H4_6 H 0.1522 0.9916 0.3701
C4_6 C 0.9960(11) 0.0716(7) 0.3050(6)
C10_6 C 0.8930(11) 0.0716(8) 0.2773(7)
H3_6 H 0.8491 0.0717 0.2812
C14_6 C 0.9342(12) 0.0711(9) 0.3102(6)
H5_6 H 0.9177 0.0705 0.3366
O22_4 O 0.7447(6) 0.1714(5) 0.0390(4)
O23_6 O 0.8277(6) 0.2125(5) 0.0695(4)
N2_6 N 0.9047(8) 0.0705(6) 0.1685(4)
O25_6 O 0.9839(7) 0.0741(7) 0.1252(4)
C18_6 C 0.9813(10) 0.0704(7) 0.2331(5)
O26_6 O 0.8190(8) 0.0704(7) 0.2064(4)
C19_6 C 0.8029(10) 0.1202(8) 0.0816(6)
C20_6 C 0.8465(10) 0.1204(8) 0.1162(5)
H6_6 H 0.8626 0.1525 0.1269
C22_6 C 0.8623(10) 0.0721(8) 0.1317(6)
C23_6 C 0.7941(11) 0.1734(8) 0.0620(6)
C24_6 C 0.7811(10) 0.0753(8) 0.0665(6)
H7_6 H 0.7535 0.0766 0.0443
C26_6 C 0.9183(10) 0.0718(8) 0.2391(6)
C28_6 C 0.8376(10) 0.0239(8) 0.1169(6)
C29_6 C 0.9691(11) 0.0743(8) 0.1591(7)
C30_6 C 0.7986(10) 0.0230(7) 0.0834(6)
C32_6 C 0.8767(11) 0.0722(8) 0.2061(6)
Zr5_4 Zr 0.82852(8) 0.29672(6) 0.05266(5)
Zr6_4 Zr 0.67785(9) 0.35110(7) 0.05264(6)
O27_4 O 0.7294(5) 0.2757(4) 0.0600(3)
O28_4 O 0.6303(6) 0.2092(6) 0.0382(4)
O29_4 O 0.7712(5) 0.3617(4) 0.0437(3)
O30_6 O 0.9256(7) 0.2647(6) 0.0453(5)
O31_6 O 0.6852(8) 0.3457(6) 0.1195(4)
O32_6 O 0.6055(7) 0.2899(6) 0.0732(5)
O33_6 O 0.8197(9) 0.2949(6) 0.1180(4)
O34_6 O 0.5844(9) 0.3893(7) 0.0481(7)
C33_6 C 0.5960(13) 0.2378(12) 0.0626(9)
O35_6 O 0.8909(7) 0.3616(6) 0.0775(4)
O36_4 O 0.8739(6) 0.4388(5) 0.0386(4)
C34_6 C 0.8978(13) 0.4146(11) 0.0691(9)
Zr10_7 Zr 0.70911(10) 0.23430(9) 0.0000
O39_7 O 0.8653(7) 0.3433(6) 0.0000
O40_7 O 0.7982(7) 0.2626(6) 0.0000
O43_7 O 0.6699(8) 0.3088(7) 0.0000
O45_7 O 0.6927(8) 0.4034(7) 0.0000
O48_4 O 0.6899(6) 0.4345(4) 0.0770(3)
H23_6 H 0.560286 0.382165 0.072856
H24_6 H 0.589605 0.428141 0.0446912
H25_6 H 0.55578 0.218183 0.0758395
H28_6 H 0.729808 0.344918 0.127384
H29_6 H 0.664668 0.37697 0.131802
H30_6 H 0.925601 0.438132 0.0897551
Zr10_8 Zr 0.70911(10) 0.23430(9) 1.0000
O39_8 O 0.8653(7) 0.3433(6) 1.0000
O40_8 O 0.7982(7) 0.2626(6) 1.0000
O43_8 O 0.6699(8) 0.3088(7) 1.0000
O45_8 O 0.6927(8) 0.4034(7) 1.0000
O21_4 O 0.7386(6) 0.9745(4) 0.0389(4)
O24_4 O 0.8101(6) 0.9345(4) 0.0770(3)
C25_6 C 0.7770(11) 0.9723(8) 0.0651(6)
H9_6 H 0.8478 0.9916 0.1299
Zr14_4 Zr 0.82215(9) 0.85110(7) 0.05264(6)
O38_7 O 0.7614(6) 0.4745(4) 0.0389(4)
Zr11_7 Zr 0.82852(8) 0.29672(6) 0.94734(5)
O41_7 O 0.7294(5) 0.2757(4) 0.9400(3)
O42_7 O 0.7447(6) 0.1714(5) 0.9610(4)
O44_7 O 0.6303(6) 0.2092(6) 0.9618(4)
O46_7 O 0.7712(5) 0.3617(4) 0.9563(3)
O49_7 O 0.8739(6) 0.4388(5) 0.9614(4)
Zr11_8 Zr 0.67148(8) 0.79672(6) 0.05266(5)
O41_8 O 0.7706(5) 0.7757(4) 0.0600(3)
O42_8 O 0.7553(6) 0.6714(5) 0.0390(4)
O44_8 O 0.8697(6) 0.7092(6) 0.0382(4)
O46_8 O 0.7288(5) 0.8617(4) 0.0437(3)
O49_8 O 0.6261(6) 0.9388(5) 0.0386(4)
O38_8 O 0.7386(6) 0.9745(4) 0.9611(4)
O6_7 O 0.3277(6) 0.7125(5) 0.4305(4)
O11_7 O 0.4256(7) 0.7647(6) 0.4547(5)
O12_7 O 0.1852(8) 0.8457(6) 0.3805(4)
N1_7 N 0.4047(8) 0.5705(6) 0.3315(4)
O14_7 O 0.1055(7) 0.7899(6) 0.4268(5)
O15_7 O 0.4839(7) 0.5741(7) 0.3748(4)
C1_7 C 0.4813(10) 0.5704(7) 0.2669(5)
O16_7 O 0.3190(8) 0.5704(7) 0.2936(4)
O17_7 O 0.3197(9) 0.7949(6) 0.3820(4)
C2_7 C 0.3029(10) 0.6202(8) 0.4184(6)
C3_7 C 0.3465(10) 0.6204(8) 0.3838(5)
H1_7 H 0.3626 0.6525 0.3731
C4_7 C 0.5040(11) 0.5716(7) 0.3050(6)
O18_7 O 0.0844(9) 0.8893(7) 0.4519(7)
C5_7 C 0.3623(10) 0.5721(8) 0.3683(6)
C6_7 C 0.2941(11) 0.6734(8) 0.4380(6)
C7_7 C 0.2811(10) 0.5753(8) 0.4335(6)
H2_7 H 0.2535 0.5766 0.4557
C8_7 C 0.2770(11) 0.4723(8) 0.4349(6)
C9_7 C 0.4183(10) 0.5718(8) 0.2609(6)
C10_7 C 0.6070(11) 0.5716(8) 0.2773(7)
H3_7 H 0.6509 0.5717 0.2812
C11_7 C 0.3376(10) 0.5239(8) 0.3831(6)
H4_7 H 0.3478 0.4916 0.3701
C12_7 C 0.4691(11) 0.5743(8) 0.3409(7)
C13_7 C 0.2986(10) 0.5230(7) 0.4166(6)
C14_7 C 0.5658(12) 0.5711(9) 0.3102(6)
H5_7 H 0.5823 0.5705 0.3366
C15_7 C 0.3767(11) 0.5722(8) 0.2939(6)
C16_7 C 0.0960(13) 0.7378(12) 0.4374(9)
O19_7 O 0.3909(7) 0.8616(6) 0.4225(4)
C17_7 C 0.3978(13) 0.9146(11) 0.4309(9)
O23_7 O 0.6723(6) 0.7125(5) 0.0695(4)
N2_7 N 0.5953(8) 0.5705(6) 0.1685(4)
O25_7 O 0.5161(7) 0.5741(7) 0.1252(4)
C18_7 C 0.5187(10) 0.5704(7) 0.2331(5)
O26_7 O 0.6810(8) 0.5704(7) 0.2064(4)
C19_7 C 0.6971(10) 0.6202(8) 0.0816(6)
C20_7 C 0.6535(10) 0.6204(8) 0.1162(5)
H6_7 H 0.6374 0.6525 0.1269
C21_7 C 0.4960(11) 0.5716(7) 0.1950(6)
C22_7 C 0.6377(10) 0.5721(8) 0.1317(6)
C23_7 C 0.7059(11) 0.6734(8) 0.0620(6)
C24_7 C 0.7189(10) 0.5753(8) 0.0665(6)
H7_7 H 0.7465 0.5766 0.0443
C25_7 C 0.7230(11) 0.4723(8) 0.0651(6)
C26_7 C 0.5817(10) 0.5718(8) 0.2391(6)
C27_7 C 0.3930(11) 0.5716(8) 0.2227(7)
H8_7 H 0.3491 0.5717 0.2188
C28_7 C 0.6624(10) 0.5239(8) 0.1169(6)
H9_7 H 0.6522 0.4916 0.1299
C29_7 C 0.5309(11) 0.5743(8) 0.1591(7)
C30_7 C 0.7014(10) 0.5230(7) 0.0834(6)
C31_7 C 0.4342(12) 0.5711(9) 0.1898(6)
H10_7 H 0.4177 0.5705 0.1634
C32_7 C 0.6233(11) 0.5722(8) 0.2061(6)
O30_7 O 0.5744(7) 0.7647(6) 0.0453(5)
O31_7 O 0.8148(8) 0.8457(6) 0.1195(4)
O32_7 O 0.8945(7) 0.7899(6) 0.0732(5)
O33_7 O 0.6803(9) 0.7949(6) 0.1180(4)
O34_7 O 0.9156(9) 0.8893(7) 0.0481(7)
C33_7 C 0.9040(13) 0.7378(12) 0.0626(9)
O35_7 O 0.6091(7) 0.8616(6) 0.0775(4)
C34_7 C 0.6022(13) 0.9146(11) 0.0691(9)
H11_7 H 0.229808 0.844918 0.372616
H12_7 H 0.164668 0.87697 0.368198
H15_7 H 0.05578 0.718183 0.424161
H16_7 H 0.425601 0.938132 0.410245
H17_7 H 0.0602857 0.882165 0.427144
H18_7 H 0.089605 0.928141 0.455309
H23_7 H 0.939714 0.882165 0.072856
H24_7 H 0.910395 0.928141 0.0446912
H25_7 H 0.94422 0.718183 0.0758395
H28_7 H 0.770192 0.844918 0.127384
H29_7 H 0.835332 0.87697 0.131802
H30_7 H 0.574399 0.938132 0.0897551
O6_8 O 0.1723(6) 0.2125(5) 0.5695(4)
O11_8 O 0.0744(7) 0.2647(6) 0.5453(5)
O12_8 O 0.3148(8) 0.3457(6) 0.6195(4)
N1_8 N 0.0953(8) 0.0705(6) 0.6685(4)
O14_8 O 0.3945(7) 0.2899(6) 0.5732(5)
O15_8 O 0.0161(7) 0.0741(7) 0.6252(4)
C1_8 C 0.0187(10) 0.0704(7) 0.7331(5)
O16_8 O 0.1810(8) 0.0704(7) 0.7064(4)
O17_8 O 0.1803(9) 0.2949(6) 0.6180(4)
C2_8 C 0.1971(10) 0.1202(8) 0.5816(6)
C3_8 C 0.1535(10) 0.1204(8) 0.6162(5)
H1_8 H 0.1374 0.1525 0.6269
O18_8 O 0.4156(9) 0.3893(7) 0.5481(7)
C5_8 C 0.1377(10) 0.0721(8) 0.6317(6)
C6_8 C 0.2059(11) 0.1734(8) 0.5620(6)
C7_8 C 0.2189(10) 0.0753(8) 0.5665(6)
H2_8 H 0.2465 0.0766 0.5443
C9_8 C 0.0817(10) 0.0718(8) 0.7391(6)
C11_8 C 0.1624(10) 0.0239(8) 0.6169(6)
C12_8 C 0.0309(11) 0.0743(8) 0.6591(7)
C13_8 C 0.2014(10) 0.0230(7) 0.5834(6)
C15_8 C 0.1233(11) 0.0722(8) 0.7061(6)
C16_8 C 0.4040(13) 0.2378(12) 0.5626(9)
O19_8 O 0.1091(7) 0.3616(6) 0.5775(4)
C17_8 C 0.1022(13) 0.4146(11) 0.5691(9)
C21_8 C 0.0040(11) 0.0716(7) 0.8050(6)
C27_8 C 0.1070(11) 0.0716(8) 0.7773(7)
H8_8 H 0.1509 0.0717 0.7812
C31_8 C 0.0658(12) 0.0711(9) 0.8102(6)
H10_8 H 0.0823 0.0705 0.8366
H11_8 H 0.270192 0.344918 0.627384
H12_8 H 0.335332 0.37697 0.631802
H15_8 H 0.44422 0.218183 0.575839
H16_8 H 0.0743986 0.438132 0.589755
H17_8 H 0.439714 0.382165 0.572856
H18_8 H 0.410395 0.428141 0.544691
C8_8 C 0.2230(11) 0.9723(8) 0.5651(6)
H4_8 H 0.1522 0.9916 0.6299
C4_8 C 0.9960(11) 0.0716(7) 0.6950(6)
C10_8 C 0.8930(11) 0.0716(8) 0.7227(7)
H3_8 H 0.8491 0.0717 0.7188
C14_8 C 0.9342(12) 0.0711(9) 0.6898(6)
H5_8 H 0.9177 0.0705 0.6634
O23_8 O 0.8277(6) 0.2125(5) 0.9305(4)
N2_8 N 0.9047(8) 0.0705(6) 0.8315(4)
O25_8 O 0.9839(7) 0.0741(7) 0.8748(4)
C18_8 C 0.9813(10) 0.0704(7) 0.7669(5)
O26_8 O 0.8190(8) 0.0704(7) 0.7936(4)
C19_8 C 0.8029(10) 0.1202(8) 0.9184(6)
C20_8 C 0.8465(10) 0.1204(8) 0.8838(5)
H6_8 H 0.8626 0.1525 0.8731
C22_8 C 0.8623(10) 0.0721(8) 0.8683(6)
C23_8 C 0.7941(11) 0.1734(8) 0.9380(6)
C24_8 C 0.7811(10) 0.0753(8) 0.9335(6)
H7_8 H 0.7535 0.0766 0.9557
C26_8 C 0.9183(10) 0.0718(8) 0.7609(6)
C28_8 C 0.8376(10) 0.0239(8) 0.8831(6)
C29_8 C 0.9691(11) 0.0743(8) 0.8409(7)
C30_8 C 0.7986(10) 0.0230(7) 0.9166(6)
C32_8 C 0.8767(11) 0.0722(8) 0.7939(6)
O30_8 O 0.9256(7) 0.2647(6) 0.9547(5)
O31_8 O 0.6852(8) 0.3457(6) 0.8805(4)
O32_8 O 0.6055(7) 0.2899(6) 0.9268(5)
O33_8 O 0.8197(9) 0.2949(6) 0.8820(4)
O34_8 O 0.5844(9) 0.3893(7) 0.9519(7)
C33_8 C 0.5960(13) 0.2378(12) 0.9374(9)
O35_8 O 0.8909(7) 0.3616(6) 0.9225(4)
C34_8 C 0.8978(13) 0.4146(11) 0.9309(9)
H23_8 H 0.560286 0.382165 0.927144
H24_8 H 0.589605 0.428141 0.955309
H25_8 H 0.55578 0.218183 0.924161
H28_8 H 0.729808 0.344918 0.872616
H29_8 H 0.664668 0.37697 0.868198
H30_8 H 0.925601 0.438132 0.910245
C25_8 C 0.7770(11) 0.9723(8) 0.9349(6)
H9_8 H 0.8478 0.9916 0.8701
loop_
_geom_bond_atom_site_label_1
_geom_bond_atom_site_label_2
_geom_bond_site_symmetry_1
_geom_bond_site_symmetry_2
Zr9 O39 1_555 1_555
Zr9 O45 1_555 1_555
Zr10 O40 1_555 1_555
Zr10 O43 1_555 1_555
Zr1 O2 1_555 1_555
Zr2 O3 1_555 1_555
Zr3 O2 1_555 1_555
Zr4 O4 1_555 1_555
O1 C8 1_555 1_555
O2 Zr11 1_555 1_555
O3 Zr3 1_555 1_555
O4 Zr2 1_555 1_555
O5 Zr2 1_555 1_555
O6 Zr3 1_555 1_555
O7 Zr2 1_555 1_555
O8 Zr2 1_555 1_555
O9 Zr1 1_555 1_555
O10 Zr1 1_555 1_555
O11 Zr3 1_555 1_555
O12 Zr4 1_555 1_555
N1 C5 1_555 1_555
O13 C8 1_555 1_555
O14 Zr4 1_555 1_555
O15 C12 1_555 1_555
C1 C4 1_555 1_555
O16 C15 1_555 1_555
O17 Zr3 1_555 1_555
C2 C3 1_555 1_555
C3 H1 1_555 1_555
C4 C12 1_555 1_555
O18 Zr4 1_555 1_555
C5 C3 1_555 1_555
C6 O5 1_555 1_555
C7 C2 1_555 1_555
H2 C7 1_555 1_555
C8 C13 1_555 1_555
C9 C1 1_555 1_555
C10 H3 1_555 1_555
C11 C5 1_555 1_555
H4 C11 1_555 1_555
C12 N1 1_555 1_555
C13 C7 1_555 1_555
C14 C4 1_555 1_555
H5 C14 1_555 1_555
C15 N1 1_555 1_555
C16 O8 1_555 1_555
O19 Zr3 1_555 1_555
O20 Zr1 1_555 1_555
C17 O19 1_555 1_555
O21 C25 1_555 1_555
O22 C23 1_555 1_555
O23 C23 1_555 1_555
N2 C22 1_555 1_555
O24 C25 1_555 1_555
O25 C29 1_555 1_555
C18 C1 1_555 1_555
O26 C32 1_555 1_555
C19 C20 1_555 1_555
C20 H6 1_555 1_555
C21 C18 1_555 1_555
C22 C20 1_555 1_555
C23 C19 1_555 1_555
C24 C19 1_555 1_555
H7 C24 1_555 1_555
C25 C30 1_555 1_555
C26 C10 1_555 1_555
C27 C9 1_555 1_555
H8 C27 1_555 1_555
C28 C22 1_555 1_555
H9 C28 1_555 1_555
C29 N2 1_555 1_555
C30 C24 1_555 1_555
C31 C21 1_555 1_555
H10 C31 1_555 1_555
C32 N2 1_555 1_555
Zr5 O23 1_555 1_555
Zr6 O27 1_555 1_555
O27 Zr5 1_555 1_555
O28 C33 1_555 1_555
O29 Zr5 1_555 1_555
O30 Zr5 1_555 1_555
O31 Zr6 1_555 1_555
O32 Zr6 1_555 1_555
O33 Zr5 1_555 1_555
O34 Zr6 1_555 1_555
C33 O32 1_555 1_555
O35 Zr5 1_555 1_555
O36 C34 1_555 1_555
C34 O35 1_555 1_555
Zr7 O1 1_555 1_555
Zr8_2 O21 1_555 1_555
Zr9_2 O29 1_555 1_555
Zr10_2 O22 1_555 1_555
Zr11 O3 1_555 1_555
Zr12 O7 1_555 1_555
Zr13 O13 1_555 1_555
Zr14 O24 1_555 1_555
O37 Zr1 1_555 1_555
O38 Zr1 1_555 1_555
O39_2 Zr5 1_555 1_555
O40_2 Zr5 1_555 1_555
O41 Zr2 1_555 1_555
O42 Zr2 1_555 1_555
O43_2 Zr6 1_555 1_555
O44 Zr2 1_555 1_555
O45_2 Zr6 1_555 1_555
O46 Zr1 1_555 1_555
O47 Zr4 1_555 1_555
O48 Zr6 1_555 1_555
O49 Zr1 1_555 1_555
Zr3 O4 1_555 1_555
Zr3 O10 1_555 1_555
Zr4 O7 1_555 1_555
Zr4 O9 1_555 1_555
Zr4 O10 1_555 1_555
O6 C6 1_555 1_555
O9 Zr12 1_555 1_555
O14 C16 1_555 1_555
C2 C6 1_555 1_555
C9 C15 1_555 1_555
C10 C14 1_555 1_555
C11 C13 1_555 1_555
O20 C17 1_555 1_555
C18 C26 1_555 1_555
C21 C29 1_555 1_555
C26 C32 1_555 1_555
C27 C31 1_555 1_555
C28 C30 1_555 1_555
Zr6 O29 1_555 1_555
O27 Zr10_2 1_555 1_555
O28 Zr10_2 1_555 1_555
O36 Zr9_2 1_555 1_555
Zr9_2 O39_2 1_555 1_555
Zr9_2 O45_2 1_555 1_555
Zr10_2 O40_2 1_555 1_555
Zr10_2 O43_2 1_555 1_555
Zr11 O41 1_555 1_555
Zr11 O46 1_555 1_555
Zr12 O41 1_555 1_555
Zr12 O46 1_555 1_555
O12 H11 1_555 1_555
O12 H12 1_555 1_555
C16 H15 1_555 1_555
C17 H16 1_555 1_555
O18 H17 1_555 1_555
O18 H18 1_555 1_555
O34 H23 1_555 1_555
O34 H24 1_555 1_555
C33 H25 1_555 1_555
O31 H28 1_555 1_555
O31 H29 1_555 1_555
C34 H30 1_555 1_555
O21_2 C25_2 1_555 1_555
O24_2 C25_2 1_555 1_555
Zr9 O21_2 1_555 1_555
Zr14_2 O24_2 1_555 1_555
C10_2 H3_2 1_555 1_555
C14_2 C4_2 1_555 1_555
H5_2 C14_2 1_555 1_555
O22_2 C23_2 1_555 1_555
O23_2 C23_2 1_555 1_555
N2_2 C22_2 1_555 1_555
O25_2 C29_2 1_555 1_555
O26_2 C32_2 1_555 1_555
C19_2 C20_2 1_555 1_555
C20_2 H6_2 1_555 1_555
C22_2 C20_2 1_555 1_555
C23_2 C19_2 1_555 1_555
C24_2 C19_2 1_555 1_555
H7_2 C24_2 1_555 1_555
C26_2 C10_2 1_555 1_555
C28_2 C22_2 1_555 1_555
C29_2 N2_2 1_555 1_555
C30_2 C24_2 1_555 1_555
C32_2 N2_2 1_555 1_555
Zr5_2 O23_2 1_555 1_555
Zr6_2 O27_2 1_555 1_555
O27_2 Zr5_2 1_555 1_555
O28_2 C33_2 1_555 1_555
O29_2 Zr5_2 1_555 1_555
O30_2 Zr5_2 1_555 1_555
O31_2 Zr6_2 1_555 1_555
O32_2 Zr6_2 1_555 1_555
O33_2 Zr5_2 1_555 1_555
O34_2 Zr6_2 1_555 1_555
C33_2 O32_2 1_555 1_555
O35_2 Zr5_2 1_555 1_555
O36_2 C34_2 1_555 1_555
C34_2 O35_2 1_555 1_555
Zr8 O29_2 1_555 1_555
Zr10_3 O22_2 1_555 1_555
O39_3 Zr5_2 1_555 1_555
O40_3 Zr5_2 1_555 1_555
O43_3 Zr6_2 1_555 1_555
O45_3 Zr6_2 1_555 1_555
O48_2 Zr6_2 1_555 1_555
C10_2 C14_2 1_555 1_555
C18_2 C26_2 1_555 1_555
C26_2 C32_2 1_555 1_555
C28_2 C30_2 1_555 1_555
Zr6_2 O29_2 1_555 1_555
O27_2 Zr10_3 1_555 1_555
O28_2 Zr10_3 1_555 1_555
O36_2 Zr8 1_555 1_555
Zr8 O39_3 1_555 1_555
Zr8 O45_3 1_555 1_555
Zr10_3 O40_3 1_555 1_555
Zr10_3 O43_3 1_555 1_555
O34_2 H23_2 1_555 1_555
O34_2 H24_2 1_555 1_555
C33_2 H25_2 1_555 1_555
O31_2 H28_2 1_555 1_555
O31_2 H29_2 1_555 1_555
C34_2 H30_2 1_555 1_555
Zr8_2 O39_4 1_555 1_555
Zr8_2 O45_4 1_555 1_555
Zr10_4 O40_4 1_555 1_555
Zr10_4 O43_4 1_555 1_555
O37 C8_2 1_555 1_555
O13_2 C8_2 1_555 1_555
Zr12 O13_2 1_555 1_555
Zr7 O2_2 1_555 1_555
Zr2_2 O3_2 1_555 1_555
Zr3_2 O2_2 1_555 1_555
Zr4_2 O4_2 1_555 1_555
O2_2 Zr11_2 1_555 1_555
O3_2 Zr3_2 1_555 1_555
O4_2 Zr2_2 1_555 1_555
O5_2 Zr2_2 1_555 1_555
O6_2 Zr3_2 1_555 1_555
O7_2 Zr2_2 1_555 1_555
O8_2 Zr2_2 1_555 1_555
O9_2 Zr7 1_555 1_555
O10_2 Zr7 1_555 1_555
O11_2 Zr3_2 1_555 1_555
O12_2 Zr4_2 1_555 1_555
N1_2 C5_2 1_555 1_555
O14_2 Zr4_2 1_555 1_555
O15_2 C12_2 1_555 1_555
O16_2 C15_2 1_555 1_555
O17_2 Zr3_2 1_555 1_555
C2_2 C3_2 1_555 1_555
C3_2 H1_2 1_555 1_555
O18_2 Zr4_2 1_555 1_555
C5_2 C3_2 1_555 1_555
C6_2 O5_2 1_555 1_555
C7_2 C2_2 1_555 1_555
H2_2 C7_2 1_555 1_555
C9_2 C1_2 1_555 1_555
C11_2 C5_2 1_555 1_555
C12_2 N1_2 1_555 1_555
C13_2 C7_2 1_555 1_555
C15_2 N1_2 1_555 1_555
C16_2 O8_2 1_555 1_555
O19_2 Zr3_2 1_555 1_555
O20_2 Zr7 1_555 1_555
C17_2 O19_2 1_555 1_555
C27_2 C9_2 1_555 1_555
H8_2 C27_2 1_555 1_555
C31_2 C21_2 1_555 1_555
H10_2 C31_2 1_555 1_555
Zr11_2 O3_2 1_555 1_555
Zr13 O7_2 1_555 1_555
O38_2 Zr7 1_555 1_555
O41_2 Zr2_2 1_555 1_555
O42_2 Zr2_2 1_555 1_555
O44_2 Zr2_2 1_555 1_555
O46_2 Zr7 1_555 1_555
O47_2 Zr4_2 1_555 1_555
O49_2 Zr7 1_555 1_555
Zr3_2 O4_2 1_555 1_555
Zr3_2 O10_2 1_555 1_555
Zr4_2 O7_2 1_555 1_555
Zr4_2 O9_2 1_555 1_555
Zr4_2 O10_2 1_555 1_555
O6_2 C6_2 1_555 1_555
O9_2 Zr13 1_555 1_555
O14_2 C16_2 1_555 1_555
C2_2 C6_2 1_555 1_555
C9_2 C15_2 1_555 1_555
C11_2 C13_2 1_555 1_555
O20_2 C17_2 1_555 1_555
C27_2 C31_2 1_555 1_555
Zr11_2 O41_2 1_555 1_555
Zr11_2 O46_2 1_555 1_555
Zr13 O41_2 1_555 1_555
Zr13 O46_2 1_555 1_555
O12_2 H11_2 1_555 1_555
O12_2 H12_2 1_555 1_555
C16_2 H15_2 1_555 1_555
C17_2 H16_2 1_555 1_555
O18_2 H17_2 1_555 1_555
O18_2 H18_2 1_555 1_555
O38_3 Zr8 1_555 1_555
O39_4 Zr11_3 1_555 1_555
Zr11_3 O40_4 1_555 1_555
Zr14 O43_4 1_555 1_555
O41_3 Zr10_4 1_555 1_555
O42_3 Zr10_4 1_555 1_555
O44_3 Zr10_4 1_555 1_555
O46_3 Zr8_2 1_555 1_555
O49_3 Zr8_2 1_555 1_555
O45_4 Zr14 1_555 1_555
Zr11_3 O41_3 1_555 1_555
Zr11_3 O46_3 1_555 1_555
Zr14 O41_3 1_555 1_555
Zr14 O46_3 1_555 1_555
O39 Zr11_4 1_555 1_555
Zr11_4 O40 1_555 1_555
Zr14_2 O43 1_555 1_555
O41_4 Zr10 1_555 1_555
O42_4 Zr10 1_555 1_555
O44_4 Zr10 1_555 1_555
O46_4 Zr9 1_555 1_555
O49_4 Zr9 1_555 1_555
O45 Zr14_2 1_555 1_555
Zr11_4 O41_4 1_555 1_555
Zr11_4 O46_4 1_555 1_555
Zr14_2 O41_4 1_555 1_555
Zr14_2 O46_4 1_555 1_555
O38_4 Zr9_2 1_555 1_555
O38_2 C8_3 1_555 1_555
O6_3 Zr11 1_555 1_555
O11_3 Zr11 1_555 1_555
O12_3 Zr12 1_555 1_555
N1_3 C5_3 1_555 1_555
O47_2 C8_3 1_555 1_555
O14_3 Zr12 1_555 1_555
O15_3 C12_3 1_555 1_555
C1_3 C4_3 1_555 1_555
O16_3 C15_3 1_555 1_555
O17_3 Zr11 1_555 1_555
C2_3 C3_3 1_555 1_555
C3_3 H1_3 1_555 1_555
C4_3 C12_3 1_555 1_555
O18_3 Zr12 1_555 1_555
C5_3 C3_3 1_555 1_555
C6_3 O42 1_555 1_555
C7_3 C2_3 1_555 1_555
H2_3 C7_3 1_555 1_555
C8_3 C13_3 1_555 1_555
C9_3 C1_3 1_555 1_555
C10_3 H3_3 1_555 1_555
C11_3 C5_3 1_555 1_555
H4_3 C11_3 1_555 1_555
C12_3 N1_3 1_555 1_555
C13_3 C7_3 1_555 1_555
C14_3 C4_3 1_555 1_555
H5_3 C14_3 1_555 1_555
C15_3 N1_3 1_555 1_555
C16_3 O44 1_555 1_555
O19_3 Zr11 1_555 1_555
C17_3 O19_3 1_555 1_555
O38_3 C25_3 1_555 1_555
O42_4 C23_3 1_555 1_555
O23_3 C23_3 1_555 1_555
N2_3 C22_3 1_555 1_555
O48_2 C25_3 1_555 1_555
O25_3 C29_3 1_555 1_555
C18_3 C1_3 1_555 1_555
O26_3 C32_3 1_555 1_555
C19_3 C20_3 1_555 1_555
C20_3 H6_3 1_555 1_555
C21_3 C18_3 1_555 1_555
C22_3 C20_3 1_555 1_555
C23_3 C19_3 1_555 1_555
C24_3 C19_3 1_555 1_555
H7_3 C24_3 1_555 1_555
C25_3 C30_3 1_555 1_555
C26_3 C10_3 1_555 1_555
C27_3 C9_3 1_555 1_555
H8_3 C27_3 1_555 1_555
C28_3 C22_3 1_555 1_555
H9_3 C28_3 1_555 1_555
C29_3 N2_3 1_555 1_555
C30_3 C24_3 1_555 1_555
C31_3 C21_3 1_555 1_555
H10_3 C31_3 1_555 1_555
C32_3 N2_3 1_555 1_555
Zr11_4 O23_3 1_555 1_555
O44_4 C33_3 1_555 1_555
O30_3 Zr11_4 1_555 1_555
O31_3 Zr14_2 1_555 1_555
O32_3 Zr14_2 1_555 1_555
O33_3 Zr11_4 1_555 1_555
O34_3 Zr14_2 1_555 1_555
C33_3 O32_3 1_555 1_555
O35_3 Zr11_4 1_555 1_555
O49_4 C34_3 1_555 1_555
C34_3 O35_3 1_555 1_555
O6_3 C6_3 1_555 1_555
O14_3 C16_3 1_555 1_555
C2_3 C6_3 1_555 1_555
C9_3 C15_3 1_555 1_555
C10_3 C14_3 1_555 1_555
C11_3 C13_3 1_555 1_555
O49 C17_3 1_555 1_555
C18_3 C26_3 1_555 1_555
C21_3 C29_3 1_555 1_555
C26_3 C32_3 1_555 1_555
C27_3 C31_3 1_555 1_555
C28_3 C30_3 1_555 1_555
O12_3 H11_3 1_555 1_555
O12_3 H12_3 1_555 1_555
C16_3 H15_3 1_555 1_555
C17_3 H16_3 1_555 1_555
O18_3 H17_3 1_555 1_555
O18_3 H18_3 1_555 1_555
O34_3 H23_3 1_555 1_555
O34_3 H24_3 1_555 1_555
C33_3 H25_3 1_555 1_555
O31_3 H28_3 1_555 1_555
O31_3 H29_3 1_555 1_555
C34_3 H30_3 1_555 1_555
O38_4 C25_4 1_555 1_555
O48 C25_4 1_555 1_555
C10_4 H3_4 1_555 1_555
C14_4 C4_4 1_555 1_555
H5_4 C14_4 1_555 1_555
O42_3 C23_4 1_555 1_555
O23_4 C23_4 1_555 1_555
N2_4 C22_4 1_555 1_555
O25_4 C29_4 1_555 1_555
O26_4 C32_4 1_555 1_555
C19_4 C20_4 1_555 1_555
C20_4 H6_4 1_555 1_555
C22_4 C20_4 1_555 1_555
C23_4 C19_4 1_555 1_555
C24_4 C19_4 1_555 1_555
H7_4 C24_4 1_555 1_555
C26_4 C10_4 1_555 1_555
C28_4 C22_4 1_555 1_555
C29_4 N2_4 1_555 1_555
C30_4 C24_4 1_555 1_555
C32_4 N2_4 1_555 1_555
Zr11_3 O23_4 1_555 1_555
O44_3 C33_4 1_555 1_555
O30_4 Zr11_3 1_555 1_555
O31_4 Zr14 1_555 1_555
O32_4 Zr14 1_555 1_555
O33_4 Zr11_3 1_555 1_555
O34_4 Zr14 1_555 1_555
C33_4 O32_4 1_555 1_555
O35_4 Zr11_3 1_555 1_555
O49_3 C34_4 1_555 1_555
C34_4 O35_4 1_555 1_555
C10_4 C14_4 1_555 1_555
C18_4 C26_4 1_555 1_555
C26_4 C32_4 1_555 1_555
C28_4 C30_4 1_555 1_555
O34_4 H23_4 1_555 1_555
O34_4 H24_4 1_555 1_555
C33_4 H25_4 1_555 1_555
O31_4 H28_4 1_555 1_555
O31_4 H29_4 1_555 1_555
C34_4 H30_4 1_555 1_555
O38 C8_4 1_555 1_555
O47 C8_4 1_555 1_555
O6_4 Zr11_2 1_555 1_555
O11_4 Zr11_2 1_555 1_555
O12_4 Zr13 1_555 1_555
N1_4 C5_4 1_555 1_555
O14_4 Zr13 1_555 1_555
O15_4 C12_4 1_555 1_555
O16_4 C15_4 1_555 1_555
O17_4 Zr11_2 1_555 1_555
C2_4 C3_4 1_555 1_555
C3_4 H1_4 1_555 1_555
O18_4 Zr13 1_555 1_555
C5_4 C3_4 1_555 1_555
C6_4 O42_2 1_555 1_555
C7_4 C2_4 1_555 1_555
H2_4 C7_4 1_555 1_555
C9_4 C1_4 1_555 1_555
C11_4 C5_4 1_555 1_555
C12_4 N1_4 1_555 1_555
C13_4 C7_4 1_555 1_555
C15_4 N1_4 1_555 1_555
C16_4 O44_2 1_555 1_555
O19_4 Zr11_2 1_555 1_555
C17_4 O19_4 1_555 1_555
C27_4 C9_4 1_555 1_555
H8_4 C27_4 1_555 1_555
C31_4 C21_4 1_555 1_555
H10_4 C31_4 1_555 1_555
O6_4 C6_4 1_555 1_555
O14_4 C16_4 1_555 1_555
C2_4 C6_4 1_555 1_555
C9_4 C15_4 1_555 1_555
C11_4 C13_4 1_555 1_555
O49_2 C17_4 1_555 1_555
C27_4 C31_4 1_555 1_555
O12_4 H11_4 1_555 1_555
O12_4 H12_4 1_555 1_555
C16_4 H15_4 1_555 1_555
C17_4 H16_4 1_555 1_555
O18_4 H17_4 1_555 1_555
O18_4 H18_4 1_555 1_555
Zr9_3 O39_5 1_555 1_555
Zr9_3 O45_5 1_555 1_555
Zr10_5 O40_5 1_555 1_555
Zr10_5 O43_5 1_555 1_555
Zr1_2 O2_3 1_555 1_555
Zr2_3 O3_3 1_555 1_555
Zr3_3 O2_3 1_555 1_555
Zr4_3 O4_3 1_555 1_555
O1_2 C8_5 1_555 1_555
O2_3 Zr11_5 1_555 1_555
O3_3 Zr3_3 1_555 1_555
O4_3 Zr2_3 1_555 1_555
O5_3 Zr2_3 1_555 1_555
O6_5 Zr3_3 1_555 1_555
O7_3 Zr2_3 1_555 1_555
O8_3 Zr2_3 1_555 1_555
O9_3 Zr1_2 1_555 1_555
O10_3 Zr1_2 1_555 1_555
O11_5 Zr3_3 1_555 1_555
O12_5 Zr4_3 1_555 1_555
N1_5 C5_5 1_555 1_555
O13_3 C8_5 1_555 1_555
O14_5 Zr4_3 1_555 1_555
O15_5 C12_5 1_555 1_555
C1_5 C4_5 1_555 1_555
O16_5 C15_5 1_555 1_555
O17_5 Zr3_3 1_555 1_555
C2_5 C3_5 1_555 1_555
C3_5 H1_5 1_555 1_555
C4_5 C12_5 1_555 1_555
O18_5 Zr4_3 1_555 1_555
C5_5 C3_5 1_555 1_555
C6_5 O5_3 1_555 1_555
C7_5 C2_5 1_555 1_555
H2_5 C7_5 1_555 1_555
C8_5 C13_5 1_555 1_555
C9_5 C1_5 1_555 1_555
C10_5 H3_5 1_555 1_555
C11_5 C5_5 1_555 1_555
H4_5 C11_5 1_555 1_555
C12_5 N1_5 1_555 1_555
C13_5 C7_5 1_555 1_555
C14_5 C4_5 1_555 1_555
H5_5 C14_5 1_555 1_555
C15_5 N1_5 1_555 1_555
C16_5 O8_3 1_555 1_555
O19_5 Zr3_3 1_555 1_555
O20_3 Zr1_2 1_555 1_555
C17_5 O19_5 1_555 1_555
O21_3 C25_5 1_555 1_555
O22_3 C23_5 1_555 1_555
O23_5 C23_5 1_555 1_555
N2_5 C22_5 1_555 1_555
O24_3 C25_5 1_555 1_555
O25_5 C29_5 1_555 1_555
C18_5 C1_5 1_555 1_555
O26_5 C32_5 1_555 1_555
C19_5 C20_5 1_555 1_555
C20_5 H6_5 1_555 1_555
C21_5 C18_5 1_555 1_555
C22_5 C20_5 1_555 1_555
C23_5 C19_5 1_555 1_555
C24_5 C19_5 1_555 1_555
H7_5 C24_5 1_555 1_555
C25_5 C30_5 1_555 1_555
C26_5 C10_5 1_555 1_555
C27_5 C9_5 1_555 1_555
H8_5 C27_5 1_555 1_555
C28_5 C22_5 1_555 1_555
H9_5 C28_5 1_555 1_555
C29_5 N2_5 1_555 1_555
C30_5 C24_5 1_555 1_555
C31_5 C21_5 1_555 1_555
H10_5 C31_5 1_555 1_555
C32_5 N2_5 1_555 1_555
Zr5_3 O23_5 1_555 1_555
Zr6_3 O27_3 1_555 1_555
O27_3 Zr5_3 1_555 1_555
O28_3 C33_5 1_555 1_555
O29_3 Zr5_3 1_555 1_555
O30_5 Zr5_3 1_555 1_555
O31_5 Zr6_3 1_555 1_555
O32_5 Zr6_3 1_555 1_555
O33_5 Zr5_3 1_555 1_555
O34_5 Zr6_3 1_555 1_555
C33_5 O32_5 1_555 1_555
O35_5 Zr5_3 1_555 1_555
O36_3 C34_5 1_555 1_555
C34_5 O35_5 1_555 1_555
Zr7_2 O1_2 1_555 1_555
Zr8_4 O21_3 1_555 1_555
Zr9_4 O29_3 1_555 1_555
Zr10_6 O22_3 1_555 1_555
Zr11_5 O3_3 1_555 1_555
Zr12_2 O7_3 1_555 1_555
Zr13_2 O13_3 1_555 1_555
Zr14_3 O24_3 1_555 1_555
O37_2 Zr1_2 1_555 1_555
O38_5 Zr1_2 1_555 1_555
O39_6 Zr5_3 1_555 1_555
O40_6 Zr5_3 1_555 1_555
O41_5 Zr2_3 1_555 1_555
O42_5 Zr2_3 1_555 1_555
O43_6 Zr6_3 1_555 1_555
O44_5 Zr2_3 1_555 1_555
O45_6 Zr6_3 1_555 1_555
O46_5 Zr1_2 1_555 1_555
O47_3 Zr4_3 1_555 1_555
O48_3 Zr6_3 1_555 1_555
O49_5 Zr1_2 1_555 1_555
Zr3_3 O4_3 1_555 1_555
Zr3_3 O10_3 1_555 1_555
Zr4_3 O7_3 1_555 1_555
Zr4_3 O9_3 1_555 1_555
Zr4_3 O10_3 1_555 1_555
O6_5 C6_5 1_555 1_555
O9_3 Zr12_2 1_555 1_555
O14_5 C16_5 1_555 1_555
C2_5 C6_5 1_555 1_555
C9_5 C15_5 1_555 1_555
C10_5 C14_5 1_555 1_555
C11_5 C13_5 1_555 1_555
O20_3 C17_5 1_555 1_555
C18_5 C26_5 1_555 1_555
C21_5 C29_5 1_555 1_555
C26_5 C32_5 1_555 1_555
C27_5 C31_5 1_555 1_555
C28_5 C30_5 1_555 1_555
Zr6_3 O29_3 1_555 1_555
O27_3 Zr10_6 1_555 1_555
O28_3 Zr10_6 1_555 1_555
O36_3 Zr9_4 1_555 1_555
Zr9_4 O39_6 1_555 1_555
Zr9_4 O45_6 1_555 1_555
Zr10_6 O40_6 1_555 1_555
Zr10_6 O43_6 1_555 1_555
Zr11_5 O41_5 1_555 1_555
Zr11_5 O46_5 1_555 1_555
Zr12_2 O41_5 1_555 1_555
Zr12_2 O46_5 1_555 1_555
O12_5 H11_5 1_555 1_555
O12_5 H12_5 1_555 1_555
C16_5 H15_5 1_555 1_555
C17_5 H16_5 1_555 1_555
O18_5 H17_5 1_555 1_555
O18_5 H18_5 1_555 1_555
O34_5 H23_5 1_555 1_555
O34_5 H24_5 1_555 1_555
C33_5 H25_5 1_555 1_555
O31_5 H28_5 1_555 1_555
O31_5 H29_5 1_555 1_555
C34_5 H30_5 1_555 1_555
Zr7_2 O2_4 1_555 1_555
Zr2_4 O3_4 1_555 1_555
Zr3_4 O2_4 1_555 1_555
Zr4_4 O4_4 1_555 1_555
O2_4 Zr11_6 1_555 1_555
O3_4 Zr3_4 1_555 1_555
O4_4 Zr2_4 1_555 1_555
O5_4 Zr2_4 1_555 1_555
O6_6 Zr3_4 1_555 1_555
O7_4 Zr2_4 1_555 1_555
O8_4 Zr2_4 1_555 1_555
O9_4 Zr7_2 1_555 1_555
O10_4 Zr7_2 1_555 1_555
O11_6 Zr3_4 1_555 1_555
O12_6 Zr4_4 1_555 1_555
N1_6 C5_6 1_555 1_555
O14_6 Zr4_4 1_555 1_555
O15_6 C12_6 1_555 1_555
O16_6 C15_6 1_555 1_555
O17_6 Zr3_4 1_555 1_555
C2_6 C3_6 1_555 1_555
C3_6 H1_6 1_555 1_555
O18_6 Zr4_4 1_555 1_555
C5_6 C3_6 1_555 1_555
C6_6 O5_4 1_555 1_555
C7_6 C2_6 1_555 1_555
H2_6 C7_6 1_555 1_555
C9_6 C1_6 1_555 1_555
C11_6 C5_6 1_555 1_555
C12_6 N1_6 1_555 1_555
C13_6 C7_6 1_555 1_555
C15_6 N1_6 1_555 1_555
C16_6 O8_4 1_555 1_555
O19_6 Zr3_4 1_555 1_555
O20_4 Zr7_2 1_555 1_555
C17_6 O19_6 1_555 1_555
C27_6 C9_6 1_555 1_555
H8_6 C27_6 1_555 1_555
C31_6 C21_6 1_555 1_555
H10_6 C31_6 1_555 1_555
Zr11_6 O3_4 1_555 1_555
Zr13_2 O7_4 1_555 1_555
O38_6 Zr7_2 1_555 1_555
O41_6 Zr2_4 1_555 1_555
O42_6 Zr2_4 1_555 1_555
O44_6 Zr2_4 1_555 1_555
O46_6 Zr7_2 1_555 1_555
O47_4 Zr4_4 1_555 1_555
O49_6 Zr7_2 1_555 1_555
Zr3_4 O4_4 1_555 1_555
Zr3_4 O10_4 1_555 1_555
Zr4_4 O7_4 1_555 1_555
Zr4_4 O9_4 1_555 1_555
Zr4_4 O10_4 1_555 1_555
O6_6 C6_6 1_555 1_555
O9_4 Zr13_2 1_555 1_555
O14_6 C16_6 1_555 1_555
C2_6 C6_6 1_555 1_555
C9_6 C15_6 1_555 1_555
C11_6 C13_6 1_555 1_555
O20_4 C17_6 1_555 1_555
C27_6 C31_6 1_555 1_555
Zr11_6 O41_6 1_555 1_555
Zr11_6 O46_6 1_555 1_555
Zr13_2 O41_6 1_555 1_555
Zr13_2 O46_6 1_555 1_555
O12_6 H11_6 1_555 1_555
O12_6 H12_6 1_555 1_555
C16_6 H15_6 1_555 1_555
C17_6 H16_6 1_555 1_555
O18_6 H17_6 1_555 1_555
O18_6 H18_6 1_555 1_555
O37_2 C8_6 1_555 1_555
O13_4 C8_6 1_555 1_555
Zr12_2 O13_4 1_555 1_555
C10_6 H3_6 1_555 1_555
C14_6 C4_6 1_555 1_555
H5_6 C14_6 1_555 1_555
O22_4 C23_6 1_555 1_555
O23_6 C23_6 1_555 1_555
N2_6 C22_6 1_555 1_555
O25_6 C29_6 1_555 1_555
O26_6 C32_6 1_555 1_555
C19_6 C20_6 1_555 1_555
C20_6 H6_6 1_555 1_555
C22_6 C20_6 1_555 1_555
C23_6 C19_6 1_555 1_555
C24_6 C19_6 1_555 1_555
H7_6 C24_6 1_555 1_555
C26_6 C10_6 1_555 1_555
C28_6 C22_6 1_555 1_555
C29_6 N2_6 1_555 1_555
C30_6 C24_6 1_555 1_555
C32_6 N2_6 1_555 1_555
Zr5_4 O23_6 1_555 1_555
Zr6_4 O27_4 1_555 1_555
O27_4 Zr5_4 1_555 1_555
O28_4 C33_6 1_555 1_555
O29_4 Zr5_4 1_555 1_555
O30_6 Zr5_4 1_555 1_555
O31_6 Zr6_4 1_555 1_555
O32_6 Zr6_4 1_555 1_555
O33_6 Zr5_4 1_555 1_555
O34_6 Zr6_4 1_555 1_555
C33_6 O32_6 1_555 1_555
O35_6 Zr5_4 1_555 1_555
O36_4 C34_6 1_555 1_555
C34_6 O35_6 1_555 1_555
Zr8_3 O29_4 1_555 1_555
Zr10_7 O22_4 1_555 1_555
O39_7 Zr5_4 1_555 1_555
O40_7 Zr5_4 1_555 1_555
O43_7 Zr6_4 1_555 1_555
O45_7 Zr6_4 1_555 1_555
O48_4 Zr6_4 1_555 1_555
C10_6 C14_6 1_555 1_555
C18_6 C26_6 1_555 1_555
C26_6 C32_6 1_555 1_555
C28_6 C30_6 1_555 1_555
Zr6_4 O29_4 1_555 1_555
O27_4 Zr10_7 1_555 1_555
O28_4 Zr10_7 1_555 1_555
O36_4 Zr8_3 1_555 1_555
Zr8_3 O39_7 1_555 1_555
Zr8_3 O45_7 1_555 1_555
Zr10_7 O40_7 1_555 1_555
Zr10_7 O43_7 1_555 1_555
O34_6 H23_6 1_555 1_555
O34_6 H24_6 1_555 1_555
C33_6 H25_6 1_555 1_555
O31_6 H28_6 1_555 1_555
O31_6 H29_6 1_555 1_555
C34_6 H30_6 1_555 1_555
Zr8_4 O39_8 1_555 1_555
Zr8_4 O45_8 1_555 1_555
Zr10_8 O40_8 1_555 1_555
Zr10_8 O43_8 1_555 1_555
O21_4 C25_6 1_555 1_555
O24_4 C25_6 1_555 1_555
Zr9_3 O21_4 1_555 1_555
Zr14_4 O24_4 1_555 1_555
O38_7 Zr8_3 1_555 1_555
O39_8 Zr11_7 1_555 1_555
Zr11_7 O40_8 1_555 1_555
Zr14_3 O43_8 1_555 1_555
O41_7 Zr10_8 1_555 1_555
O42_7 Zr10_8 1_555 1_555
O44_7 Zr10_8 1_555 1_555
O46_7 Zr8_4 1_555 1_555
O49_7 Zr8_4 1_555 1_555
O45_8 Zr14_3 1_555 1_555
Zr11_7 O41_7 1_555 1_555
Zr11_7 O46_7 1_555 1_555
Zr14_3 O41_7 1_555 1_555
Zr14_3 O46_7 1_555 1_555
O39_5 Zr11_8 1_555 1_555
Zr11_8 O40_5 1_555 1_555
Zr14_4 O43_5 1_555 1_555
O41_8 Zr10_5 1_555 1_555
O42_8 Zr10_5 1_555 1_555
O44_8 Zr10_5 1_555 1_555
O46_8 Zr9_3 1_555 1_555
O49_8 Zr9_3 1_555 1_555
O45_5 Zr14_4 1_555 1_555
Zr11_8 O41_8 1_555 1_555
Zr11_8 O46_8 1_555 1_555
Zr14_4 O41_8 1_555 1_555
Zr14_4 O46_8 1_555 1_555
O38_8 Zr9_4 1_555 1_555
O38_6 C8_7 1_555 1_555
O6_7 Zr11_5 1_555 1_555
O11_7 Zr11_5 1_555 1_555
O12_7 Zr12_2 1_555 1_555
N1_7 C5_7 1_555 1_555
O47_4 C8_7 1_555 1_555
O14_7 Zr12_2 1_555 1_555
O15_7 C12_7 1_555 1_555
C1_7 C4_7 1_555 1_555
O16_7 C15_7 1_555 1_555
O17_7 Zr11_5 1_555 1_555
C2_7 C3_7 1_555 1_555
C3_7 H1_7 1_555 1_555
C4_7 C12_7 1_555 1_555
O18_7 Zr12_2 1_555 1_555
C5_7 C3_7 1_555 1_555
C6_7 O42_5 1_555 1_555
C7_7 C2_7 1_555 1_555
H2_7 C7_7 1_555 1_555
C8_7 C13_7 1_555 1_555
C9_7 C1_7 1_555 1_555
C10_7 H3_7 1_555 1_555
C11_7 C5_7 1_555 1_555
H4_7 C11_7 1_555 1_555
C12_7 N1_7 1_555 1_555
C13_7 C7_7 1_555 1_555
C14_7 C4_7 1_555 1_555
H5_7 C14_7 1_555 1_555
C15_7 N1_7 1_555 1_555
C16_7 O44_5 1_555 1_555
O19_7 Zr11_5 1_555 1_555
C17_7 O19_7 1_555 1_555
O38_7 C25_7 1_555 1_555
O42_8 C23_7 1_555 1_555
O23_7 C23_7 1_555 1_555
N2_7 C22_7 1_555 1_555
O48_4 C25_7 1_555 1_555
O25_7 C29_7 1_555 1_555
C18_7 C1_7 1_555 1_555
O26_7 C32_7 1_555 1_555
C19_7 C20_7 1_555 1_555
C20_7 H6_7 1_555 1_555
C21_7 C18_7 1_555 1_555
C22_7 C20_7 1_555 1_555
C23_7 C19_7 1_555 1_555
C24_7 C19_7 1_555 1_555
H7_7 C24_7 1_555 1_555
C25_7 C30_7 1_555 1_555
C26_7 C10_7 1_555 1_555
C27_7 C9_7 1_555 1_555
H8_7 C27_7 1_555 1_555
C28_7 C22_7 1_555 1_555
H9_7 C28_7 1_555 1_555
C29_7 N2_7 1_555 1_555
C30_7 C24_7 1_555 1_555
C31_7 C21_7 1_555 1_555
H10_7 C31_7 1_555 1_555
C32_7 N2_7 1_555 1_555
Zr11_8 O23_7 1_555 1_555
O44_8 C33_7 1_555 1_555
O30_7 Zr11_8 1_555 1_555
O31_7 Zr14_4 1_555 1_555
O32_7 Zr14_4 1_555 1_555
O33_7 Zr11_8 1_555 1_555
O34_7 Zr14_4 1_555 1_555
C33_7 O32_7 1_555 1_555
O35_7 Zr11_8 1_555 1_555
O49_8 C34_7 1_555 1_555
C34_7 O35_7 1_555 1_555
O6_7 C6_7 1_555 1_555
O14_7 C16_7 1_555 1_555
C2_7 C6_7 1_555 1_555
C9_7 C15_7 1_555 1_555
C10_7 C14_7 1_555 1_555
C11_7 C13_7 1_555 1_555
O49_5 C17_7 1_555 1_555
C18_7 C26_7 1_555 1_555
C21_7 C29_7 1_555 1_555
C26_7 C32_7 1_555 1_555
C27_7 C31_7 1_555 1_555
C28_7 C30_7 1_555 1_555
O12_7 H11_7 1_555 1_555
O12_7 H12_7 1_555 1_555
C16_7 H15_7 1_555 1_555
C17_7 H16_7 1_555 1_555
O18_7 H17_7 1_555 1_555
O18_7 H18_7 1_555 1_555
O34_7 H23_7 1_555 1_555
O34_7 H24_7 1_555 1_555
C33_7 H25_7 1_555 1_555
O31_7 H28_7 1_555 1_555
O31_7 H29_7 1_555 1_555
C34_7 H30_7 1_555 1_555
O6_8 Zr11_6 1_555 1_555
O11_8 Zr11_6 1_555 1_555
O12_8 Zr13_2 1_555 1_555
N1_8 C5_8 1_555 1_555
O14_8 Zr13_2 1_555 1_555
O15_8 C12_8 1_555 1_555
O16_8 C15_8 1_555 1_555
O17_8 Zr11_6 1_555 1_555
C2_8 C3_8 1_555 1_555
C3_8 H1_8 1_555 1_555
O18_8 Zr13_2 1_555 1_555
C5_8 C3_8 1_555 1_555
C6_8 O42_6 1_555 1_555
C7_8 C2_8 1_555 1_555
H2_8 C7_8 1_555 1_555
C9_8 C1_8 1_555 1_555
C11_8 C5_8 1_555 1_555
C12_8 N1_8 1_555 1_555
C13_8 C7_8 1_555 1_555
C15_8 N1_8 1_555 1_555
C16_8 O44_6 1_555 1_555
O19_8 Zr11_6 1_555 1_555
C17_8 O19_8 1_555 1_555
C27_8 C9_8 1_555 1_555
H8_8 C27_8 1_555 1_555
C31_8 C21_8 1_555 1_555
H10_8 C31_8 1_555 1_555
O6_8 C6_8 1_555 1_555
O14_8 C16_8 1_555 1_555
C2_8 C6_8 1_555 1_555
C9_8 C15_8 1_555 1_555
C11_8 C13_8 1_555 1_555
O49_6 C17_8 1_555 1_555
C27_8 C31_8 1_555 1_555
O12_8 H11_8 1_555 1_555
O12_8 H12_8 1_555 1_555
C16_8 H15_8 1_555 1_555
C17_8 H16_8 1_555 1_555
O18_8 H17_8 1_555 1_555
O18_8 H18_8 1_555 1_555
O38_5 C8_8 1_555 1_555
O47_3 C8_8 1_555 1_555
C10_8 H3_8 1_555 1_555
C14_8 C4_8 1_555 1_555
H5_8 C14_8 1_555 1_555
O42_7 C23_8 1_555 1_555
O23_8 C23_8 1_555 1_555
N2_8 C22_8 1_555 1_555
O25_8 C29_8 1_555 1_555
O26_8 C32_8 1_555 1_555
C19_8 C20_8 1_555 1_555
C20_8 H6_8 1_555 1_555
C22_8 C20_8 1_555 1_555
C23_8 C19_8 1_555 1_555
C24_8 C19_8 1_555 1_555
H7_8 C24_8 1_555 1_555
C26_8 C10_8 1_555 1_555
C28_8 C22_8 1_555 1_555
C29_8 N2_8 1_555 1_555
C30_8 C24_8 1_555 1_555
C32_8 N2_8 1_555 1_555
Zr11_7 O23_8 1_555 1_555
O44_7 C33_8 1_555 1_555
O30_8 Zr11_7 1_555 1_555
O31_8 Zr14_3 1_555 1_555
O32_8 Zr14_3 1_555 1_555
O33_8 Zr11_7 1_555 1_555
O34_8 Zr14_3 1_555 1_555
C33_8 O32_8 1_555 1_555
O35_8 Zr11_7 1_555 1_555
O49_7 C34_8 1_555 1_555
C34_8 O35_8 1_555 1_555
C10_8 C14_8 1_555 1_555
C18_8 C26_8 1_555 1_555
C26_8 C32_8 1_555 1_555
C28_8 C30_8 1_555 1_555
O34_8 H23_8 1_555 1_555
O34_8 H24_8 1_555 1_555
C33_8 H25_8 1_555 1_555
O31_8 H28_8 1_555 1_555
O31_8 H29_8 1_555 1_555
C34_8 H30_8 1_555 1_555
O38_8 C25_8 1_555 1_555
O48_3 C25_8 1_555 1_555

#END
