
###############################################################################
#
# This file contains modified crystal structure data generated from the
# MOF subset of the Cambridge Structural Database (CSD) v543 
# hosted by the Cambridge Crystallographic Data Centre (CCDC).
#
# This work is licensed under the Creative Commons
# Attribution-NonCommercial-ShareAlike 4.0 International License.
# To view a copy of this license, visit
# http://creativecommons.org/licenses/by-nc-sa/4.0/
# or send a letter to
# Creative Commons, PO Box 1866, Mountain View, CA 94042, USA.
#
# CIF created using the CSD Python API on 29 September 2022
# The structure has been converted into the P1 space group
# The structure has a 3D framework
# The original CSD entry IGINIX is in the monoclinic crystal system
# The framework has been calculated to contain at least 10.0% void space
# The void calculation uses a probe of radius 1.32A, grid spacing 0.4
#
###############################################################################

data_IGINIX
_chemical_formula_moiety         '(C68 H52 N12 O34 Zn8)n'
_symmetry_cell_setting           triclinic
_symmetry_space_group_name_H-M   'P 1'
_symmetry_Int_Tables_number      1
_space_group_name_Hall           'P 1'
loop_
_symmetry_equiv_pos_site_id
_symmetry_equiv_pos_as_xyz
1 x,y,z
_cell_length_a                   14.0003(3)
_cell_length_b                   12.1692(2)
_cell_length_c                   14.6711(3)
_cell_angle_alpha                90
_cell_angle_beta                 105.867(2)
_cell_angle_gamma                90
_cell_volume                     2404.32
loop_
_atom_site_label
_atom_site_type_symbol
_atom_site_fract_x
_atom_site_fract_y
_atom_site_fract_z
N3 N 0.1847(2) 0.0846(2) 0.53813(19)
C16 C 0.1146(3) 0.1114(3) 0.4474(3)
H8 H 0.1500 0.1158 0.3984
H9 H 0.0832 0.1823 0.4523
H10 H 0.0636 0.0542 0.4305
C17 C 0.2460(3) 0.1734(3) 0.5901(3)
H11 H 0.2798 0.1484 0.6543
H12 H 0.2039 0.2367 0.5935
H13 H 0.2954 0.1947 0.5573
Zn1 Zn 0.35037(2) 0.52140(3) 0.65771(2)
Zn2 Zn 0.19539(2) 0.74271(2) 0.57481(2)
O1 O 0.20978(15) 0.56795(16) 0.59683(13)
O2 O 0.17537(19) 0.41115(18) 0.51503(16)
O5 O 0.32892(15) 0.40174(16) 0.75069(14)
O6 O 0.39140(15) 0.24611(16) 0.82697(13)
O7 O 0.71226(16) 0.26643(17) 0.52288(14)
O8 O 0.61254(19) 0.4068(2) 0.45719(17)
O9 O 0.15546(15) 0.90057(16) 0.52613(14)
N1 N 0.07964(17) 0.67905(19) 0.46227(15)
N2 N 0.46331(19) 0.4075(2) 0.65702(17)
C1 C 0.0804(2) 0.5691(2) 0.45302(19)
C2 C 0.0147(2) 0.5141(2) 0.3790(2)
H1 H 0.0149 0.4362 0.3756
C5 C 0.0164(2) 0.7376(2) 0.39546(19)
H3 H 0.0164 0.8153 0.4016
C6 C 0.1603(2) 0.5083(2) 0.5262(2)
C8 C 0.4622(2) 0.3166(2) 0.70909(19)
C9 C 0.5232(2) 0.2276(3) 0.7070(2)
H4 H 0.5231 0.1654 0.7460
C10 C 0.5851(2) 0.2306(3) 0.6464(2)
H5 H 0.6268 0.1699 0.6432
C11 C 0.5848(2) 0.3231(2) 0.5913(2)
C12 C 0.5251(2) 0.4110(2) 0.6018(2)
H6 H 0.5284 0.4769 0.5680
C13 C 0.3880(2) 0.3214(2) 0.76761(19)
C14 C 0.6432(2) 0.3319(2) 0.5182(2)
C15 C 0.1996(2) 0.9825(2) 0.5685(2)
H7 H 0.2478 0.9704 0.6273
Zn3 Zn 0.64963(2) 0.47860(3) 0.34229(2)
Zn5 Zn 0.30461(2) 0.24271(2) 0.92519(2)
Zn6 Zn 0.80461(2) 0.25729(2) 0.42519(2)
O10 O 0.32363(15) 0.78624(16) 0.67490(13)
O11 O 0.39639(17) 0.63636(17) 0.75475(15)
O12 O 0.10860(15) 0.74611(16) 0.67303(13)
O13 O 0.28774(16) 0.73357(17) 0.47712(14)
O14 O 0.38746(19) 0.5932(2) 0.54281(17)
O3 O 0.82363(15) 0.71376(16) 0.17490(13)
O4 O 0.89639(17) 0.86364(17) 0.25475(15)
C3 C 0.9485(2) 0.5756(2) 0.3101(2)
H2 H 0.9025 0.5401 0.2589
C4 C 0.9502(2) 0.6892(2) 0.31682(19)
C7 C 0.8835(2) 0.7610(2) 0.2426(2)
Zn4 Zn 0.85037(2) 0.97860(3) 0.15771(2)
Zn7 Zn 0.69539(2) 0.75729(2) 0.07481(2)
O3_2 O 0.67637(15) 0.21376(16) 0.32510(13)
O4_2 O 0.60361(17) 0.36364(17) 0.24525(15)
N1_2 N 0.42036(17) 0.17905(19) 0.03773(15)
C1_2 C 0.4196(2) 0.0691(2) 0.04698(19)
C2_2 C 0.4853(2) 0.0141(2) 0.1210(2)
C3_2 C 0.5515(2) 0.0756(2) 0.1899(2)
H2_2 H 0.5975 0.0401 0.2411
C4_2 C 0.5498(2) 0.1892(2) 0.18318(19)
C5_2 C 0.4836(2) 0.2376(2) 0.10454(19)
H3_2 H 0.4836 0.3153 0.0984
C7_2 C 0.6165(2) 0.2610(2) 0.2574(2)
C16_2 C 0.3854(3) 0.6114(3) 0.0526(3)
H8_2 H 0.3500 0.6158 0.1016
H9_2 H 0.4168 0.6823 0.0477
H10_2 H 0.4364 0.5542 0.0695
O13_2 O 0.21226(16) 0.23357(17) 0.02288(14)
Zn1_2 Zn 0.14963(2) 0.02140(3) 0.84229(2)
O1_2 O 0.29022(15) 0.06795(16) 0.90317(13)
O9_2 O 0.34454(15) 0.40057(16) 0.97387(14)
N3_2 N 0.3153(2) 0.5846(2) 0.96187(19)
C6_2 C 0.3397(2) 0.0083(2) 0.9738(2)
C15_2 C 0.3004(2) 0.4825(2) 0.9315(2)
H7_2 H 0.2522 0.4704 0.8727
C17_2 C 0.2540(3) 0.6734(3) 0.9099(3)
H11_2 H 0.2202 0.6484 0.8457
H12_2 H 0.2961 0.7367 0.9065
H13_2 H 0.2046 0.6947 0.9427
O10_2 O 0.17637(15) 0.28624(16) 0.82510(13)
O11_2 O 0.10361(17) 0.13636(17) 0.74525(15)
O14_2 O 0.11254(19) 0.0932(2) 0.95719(17)
O2_2 O 0.32463(19) 0.91115(18) 0.98497(16)
O5_2 O 0.17108(15) 0.90174(16) 0.74931(14)
N2_2 N 0.03669(19) 0.9075(2) 0.84298(17)
C8_2 C 0.0378(2) 0.8166(2) 0.79091(19)
C13_2 C 0.1120(2) 0.8214(2) 0.73239(19)
O8_2 O 0.88746(19) 0.9068(2) 0.04281(17)
O7_2 O 0.78774(16) 0.76643(17) 0.97712(14)
C9_2 C 0.9768(2) 0.7276(3) 0.7930(2)
H4_2 H 0.9769 0.6654 0.7540
C10_2 C 0.9149(2) 0.7306(3) 0.8536(2)
H5_2 H 0.8732 0.6699 0.8568
C11_2 C 0.9152(2) 0.8231(2) 0.9087(2)
C12_2 C 0.9749(2) 0.9110(2) 0.8982(2)
H6_2 H 0.9716 0.9769 0.9320
C14_2 C 0.8568(2) 0.8319(2) 0.9818(2)
C3_3 C 0.0515(2) 0.4244(2) 0.6899(2)
H2_3 H 0.0975 0.4599 0.7411
C4_3 C 0.0498(2) 0.3108(2) 0.68318(19)
C7_3 C 0.1165(2) 0.2390(2) 0.7574(2)
O1_3 O 0.79022(15) 0.43205(16) 0.40317(13)
O2_3 O 0.82463(19) 0.58885(18) 0.48497(16)
O5_3 O 0.67108(15) 0.59826(16) 0.24931(14)
O6_2 O 0.60860(15) 0.75389(16) 0.17303(13)
O9_3 O 0.84454(15) 0.09943(16) 0.47387(14)
N1_3 N 0.92036(17) 0.32095(19) 0.53773(15)
N2_3 N 0.53669(19) 0.5925(2) 0.34298(17)
C1_3 C 0.9196(2) 0.4309(2) 0.54698(19)
C2_3 C 0.9853(2) 0.4859(2) 0.6210(2)
H1_2 H 0.9851 0.5638 0.6244
C5_3 C 0.9836(2) 0.2624(2) 0.60454(19)
H3_3 H 0.9836 0.1847 0.5984
C6_3 C 0.8397(2) 0.4917(2) 0.4738(2)
C8_3 C 0.5378(2) 0.6834(2) 0.29091(19)
C9_3 C 0.4768(2) 0.7724(3) 0.2930(2)
H4_3 H 0.4769 0.8346 0.2540
C10_3 C 0.4149(2) 0.7694(3) 0.3536(2)
H5_3 H 0.3732 0.8301 0.3568
C11_3 C 0.4152(2) 0.6769(2) 0.4087(2)
C12_3 C 0.4749(2) 0.5890(2) 0.3982(2)
H6_3 H 0.4716 0.5231 0.4320
C13_3 C 0.6120(2) 0.6786(2) 0.23239(19)
C14_3 C 0.3568(2) 0.6681(2) 0.4818(2)
C15_3 C 0.8004(2) 0.0175(2) 0.4315(2)
H7_3 H 0.7522 0.0296 0.3727
O12_2 O 0.89140(15) 0.25389(16) 0.32697(13)
C9_4 C 0.0232(2) 0.2724(3) 0.2070(2)
H4_4 H 0.0231 0.3346 0.2460
C10_4 C 0.0851(2) 0.2694(3) 0.1464(2)
H5_4 H 0.1268 0.3301 0.1432
C11_4 C 0.0848(2) 0.1769(2) 0.0913(2)
C12_4 C 0.0251(2) 0.0890(2) 0.1018(2)
H6_4 H 0.0284 0.0231 0.0680
C14_4 C 0.1432(2) 0.1681(2) 0.0182(2)
O2_4 O 0.67537(19) 0.08885(18) 0.01503(16)
O5_4 O 0.82892(15) 0.09826(16) 0.25069(14)
N2_4 N 0.96331(19) 0.0925(2) 0.15702(17)
C8_4 C 0.9622(2) 0.1834(2) 0.20909(19)
C13_4 C 0.8880(2) 0.1786(2) 0.26761(19)
O1_4 O 0.70978(15) 0.93205(16) 0.09683(13)
O9_4 O 0.65546(15) 0.59943(16) 0.02613(14)
N3_3 N 0.6847(2) 0.4154(2) 0.03813(19)
C6_4 C 0.6603(2) 0.9917(2) 0.0262(2)
C15_4 C 0.6996(2) 0.5175(2) 0.0685(2)
H7_4 H 0.7478 0.5296 0.1273
C17_3 C 0.7460(3) 0.3266(3) 0.0901(3)
H11_3 H 0.7798 0.3516 0.1543
H12_3 H 0.7039 0.2633 0.0935
H13_3 H 0.7954 0.3053 0.0573
N1_4 N 0.57964(17) 0.82095(19) 0.96227(15)
C1_4 C 0.5804(2) 0.9309(2) 0.95302(19)
C2_4 C 0.5147(2) 0.9859(2) 0.8790(2)
C3_4 C 0.4485(2) 0.9244(2) 0.8101(2)
H2_4 H 0.4025 0.9599 0.7589
C4_4 C 0.4502(2) 0.8108(2) 0.81682(19)
C5_4 C 0.5164(2) 0.7624(2) 0.89546(19)
H3_4 H 0.5164 0.6847 0.9016
C7_4 C 0.3835(2) 0.7390(2) 0.7426(2)
C16_3 C 0.6146(3) 0.3886(3) 0.9474(3)
H8_3 H 0.6500 0.3842 0.8984
H9_3 H 0.5832 0.3177 0.9523
H10_3 H 0.5636 0.4458 0.9305
H1_3 H 0.4851 0.9362 0.1244
N3_4 N 0.8153(2) 0.9154(2) 0.46187(19)
C16_4 C 0.8854(3) 0.8886(3) 0.5526(3)
H8_4 H 0.8500 0.8842 0.6016
H9_4 H 0.9168 0.8177 0.5477
H10_4 H 0.9364 0.9458 0.5695
C17_4 C 0.7540(3) 0.8266(3) 0.4099(3)
H11_4 H 0.7202 0.8516 0.3457
H12_4 H 0.7961 0.7633 0.4065
H13_4 H 0.7046 0.8053 0.4427
H1_4 H 0.5149 0.0638 0.8756
loop_
_geom_bond_atom_site_label_1
_geom_bond_atom_site_label_2
_geom_bond_site_symmetry_1
_geom_bond_site_symmetry_2
C16 N3 1_555 1_555
H8 C16 1_555 1_555
H9 C16 1_555 1_555
H10 C16 1_555 1_555
C17 N3 1_555 1_555
H11 C17 1_555 1_555
H12 C17 1_555 1_555
H13 C17 1_555 1_555
Zn1 O1 1_555 1_555
Zn2 O1 1_555 1_555
O1 C6 1_555 1_555
O2 C6 1_555 1_555
O5 Zn1 1_555 1_555
O6 C13 1_555 1_555
O7 C14 1_555 1_555
O8 C14 1_555 1_555
O9 Zn2 1_555 1_555
N1 Zn2 1_555 1_555
N2 Zn1 1_555 1_555
C1 N1 1_555 1_555
C2 C1 1_555 1_555
H1 C2 1_555 1_555
C5 N1 1_555 1_555
H3 C5 1_555 1_555
C6 C1 1_555 1_555
C8 N2 1_555 1_555
C9 C8 1_555 1_555
H4 C9 1_555 1_555
C10 C9 1_555 1_555
H5 C10 1_555 1_555
C11 C10 1_555 1_555
C12 N2 1_555 1_555
H6 C12 1_555 1_555
C13 O5 1_555 1_555
C14 C11 1_555 1_555
C15 O9 1_555 1_555
H7 C15 1_555 1_555
Zn3 O8 1_555 1_555
Zn5 O6 1_555 1_555
Zn6 O7 1_555 1_555
O10 Zn2 1_555 1_555
O11 Zn1 1_555 1_555
O12 Zn2 1_555 1_555
O13 Zn2 1_555 1_555
O14 Zn1 1_555 1_555
C8 C13 1_555 1_555
C11 C12 1_555 1_555
O3 C7 1_555 1_555
O4 C7 1_555 1_555
H2 C3 1_555 1_555
C4 C3 1_555 1_555
C7 C4 1_555 1_555
Zn4 O4 1_555 1_555
Zn7 O3 1_555 1_555
O3_2 C7_2 1_555 1_555
O4_2 C7_2 1_555 1_555
C1_2 N1_2 1_555 1_555
C2_2 C1_2 1_555 1_555
C3_2 C2_2 1_555 1_555
H2_2 C3_2 1_555 1_555
C4_2 C3_2 1_555 1_555
C5_2 N1_2 1_555 1_555
H3_2 C5_2 1_555 1_555
C7_2 C4_2 1_555 1_555
H8_2 C16_2 1_555 1_555
H9_2 C16_2 1_555 1_555
H10_2 C16_2 1_555 1_555
Zn3 O4_2 1_555 1_555
Zn6 O3_2 1_555 1_555
C4_2 C5_2 1_555 1_555
Zn1_2 O1_2 1_555 1_555
Zn5 O1_2 1_555 1_555
O1_2 C6_2 1_555 1_555
O9_2 Zn5 1_555 1_555
N3_2 C15_2 1_555 1_555
C15_2 O9_2 1_555 1_555
H7_2 C15_2 1_555 1_555
C17_2 N3_2 1_555 1_555
H11_2 C17_2 1_555 1_555
H12_2 C17_2 1_555 1_555
H13_2 C17_2 1_555 1_555
O10_2 Zn5 1_555 1_555
O11_2 Zn1_2 1_555 1_555
O14_2 Zn1_2 1_555 1_555
O12 C13_2 1_555 1_555
C8_2 N2_2 1_555 1_555
C13_2 O5_2 1_555 1_555
C8_2 C13_2 1_555 1_555
Zn4 O8_2 1_555 1_555
O7_2 C14_2 1_555 1_555
H4_2 C9_2 1_555 1_555
C10_2 C9_2 1_555 1_555
H5_2 C10_2 1_555 1_555
C11_2 C10_2 1_555 1_555
H6_2 C12_2 1_555 1_555
C14_2 C11_2 1_555 1_555
C11_2 C12_2 1_555 1_555
O10_2 C7_3 1_555 1_555
O11_2 C7_3 1_555 1_555
H2_3 C3_3 1_555 1_555
C4_3 C3_3 1_555 1_555
C7_3 C4_3 1_555 1_555
Zn3 O1_3 1_555 1_555
Zn6 O1_3 1_555 1_555
O1_3 C6_3 1_555 1_555
O2_3 C6_3 1_555 1_555
O5_3 Zn3 1_555 1_555
O6_2 C13_3 1_555 1_555
O13 C14_3 1_555 1_555
O14 C14_3 1_555 1_555
O9_3 Zn6 1_555 1_555
N1_3 Zn6 1_555 1_555
N2_3 Zn3 1_555 1_555
C1_3 N1_3 1_555 1_555
C2_3 C1_3 1_555 1_555
H1_2 C2_3 1_555 1_555
C5_3 N1_3 1_555 1_555
H3_3 C5_3 1_555 1_555
C6_3 C1_3 1_555 1_555
C8_3 N2_3 1_555 1_555
C9_3 C8_3 1_555 1_555
H4_3 C9_3 1_555 1_555
C10_3 C9_3 1_555 1_555
H5_3 C10_3 1_555 1_555
C11_3 C10_3 1_555 1_555
C12_3 N2_3 1_555 1_555
H6_3 C12_3 1_555 1_555
C13_3 O5_3 1_555 1_555
C14_3 C11_3 1_555 1_555
C15_3 O9_3 1_555 1_555
H7_3 C15_3 1_555 1_555
Zn7 O6_2 1_555 1_555
O12_2 Zn6 1_555 1_555
C8_3 C13_3 1_555 1_555
C11_3 C12_3 1_555 1_555
O13_2 C14_4 1_555 1_555
H4_4 C9_4 1_555 1_555
C10_4 C9_4 1_555 1_555
H5_4 C10_4 1_555 1_555
C11_4 C10_4 1_555 1_555
H6_4 C12_4 1_555 1_555
C14_4 C11_4 1_555 1_555
C11_4 C12_4 1_555 1_555
O12_2 C13_4 1_555 1_555
C8_4 N2_4 1_555 1_555
C13_4 O5_4 1_555 1_555
C8_4 C13_4 1_555 1_555
Zn4 O1_4 1_555 1_555
Zn7 O1_4 1_555 1_555
O1_4 C6_4 1_555 1_555
O9_4 Zn7 1_555 1_555
N3_3 C15_4 1_555 1_555
C15_4 O9_4 1_555 1_555
H7_4 C15_4 1_555 1_555
C17_3 N3_3 1_555 1_555
H11_3 C17_3 1_555 1_555
H12_3 C17_3 1_555 1_555
H13_3 C17_3 1_555 1_555
O10 C7_4 1_555 1_555
O11 C7_4 1_555 1_555
C1_4 N1_4 1_555 1_555
C2_4 C1_4 1_555 1_555
C3_4 C2_4 1_555 1_555
H2_4 C3_4 1_555 1_555
C4_4 C3_4 1_555 1_555
C5_4 N1_4 1_555 1_555
H3_4 C5_4 1_555 1_555
C7_4 C4_4 1_555 1_555
H8_3 C16_3 1_555 1_555
H9_3 C16_3 1_555 1_555
H10_3 C16_3 1_555 1_555
C4_4 C5_4 1_555 1_555
C16_4 N3_4 1_555 1_555
H8_4 C16_4 1_555 1_555
H9_4 C16_4 1_555 1_555
H10_4 C16_4 1_555 1_555
C17_4 N3_4 1_555 1_555
H11_4 C17_4 1_555 1_555
H12_4 C17_4 1_555 1_555
H13_4 C17_4 1_555 1_555

#END
