
###############################################################################
#
# This file contains modified crystal structure data generated from the
# MOF subset of the Cambridge Structural Database (CSD) v543 
# hosted by the Cambridge Crystallographic Data Centre (CCDC).
#
# This work is licensed under the Creative Commons
# Attribution-NonCommercial-ShareAlike 4.0 International License.
# To view a copy of this license, visit
# http://creativecommons.org/licenses/by-nc-sa/4.0/
# or send a letter to
# Creative Commons, PO Box 1866, Mountain View, CA 94042, USA.
#
# CIF created using the CSD Python API on 29 September 2022
# The structure has been converted into the P1 space group
# The structure has a 3D framework
# The original CSD entry IGITOJ is in the rhombohedral crystal system
# The framework has been calculated to contain at least 10.0% void space
# The void calculation uses a probe of radius 1.32A, grid spacing 0.4
# H atom positions have been added when not included in the experimental data
#
###############################################################################

data_IGITOJ
_chemical_formula_moiety         '(C216 H468 Cu60 I39 N72)n'
_symmetry_cell_setting           triclinic
_symmetry_space_group_name_H-M   'P 1'
_symmetry_Int_Tables_number      1
_space_group_name_Hall           'P 1'
loop_
_symmetry_equiv_pos_site_id
_symmetry_equiv_pos_as_xyz
1 x,y,z
_cell_length_a                   25.9051(15)
_cell_length_b                   25.9051(15)
_cell_length_c                   20.4603(16)
_cell_angle_alpha                90
_cell_angle_beta                 90
_cell_angle_gamma                120
_cell_volume                     11890.9
loop_
_atom_site_label
_atom_site_type_symbol
_atom_site_fract_x
_atom_site_fract_y
_atom_site_fract_z
Cu1 Cu 0.01751(9) 0.39113(9) 0.41815(9)
Cu3 Cu 0.01120(8) 0.34140(9) 0.19442(9)
I1 I 0.03851(4) 0.33048(4) 0.32382(4)
Cu4 Cu 0.1667 0.3333 0.3333
C7 C 0.1070(12) 0.2127(6) 0.2878(9)
H13 H 0.0744 0.2131 0.2890
C8 C 0.0787(9) 0.1626(6) 0.2441(8)
H14 H 0.1089 0.1662 0.2143
H15 H 0.0482 0.1644 0.2191
C9 C 0.0517(16) 0.1034(8) 0.2780(13)
H16 H 0.0716 0.0869 0.2668
H17 H 0.0171 0.0826 0.2617
C10 C 0.0472(23) 0.0990(16) 0.3461(17)
H18 H 0.0587 0.0750 0.3581
H19 H 0.0101 0.0821 0.3541
C11 C 0.0746(11) 0.1522(7) 0.3868(8)
H20 H 0.1025 0.1491 0.4151
H21 H 0.0440 0.1516 0.4138
C12 C 0.1010(13) 0.2079(6) 0.3519(8)
H22 H 0.1333 0.2071 0.3505
N3 N 0.1357(7) 0.2738(5) 0.2587(5)
N4 N 0.1320(7) 0.2619(5) 0.3931(6)
Cu5 Cu 0.31582(9) 0.27554(9) 0.24852(9)
Cu6 Cu 0.37890(8) 0.40080(8) 0.25502(9)
Cu7 Cu 0.32213(8) 0.32527(9) 0.47225(9)
I5 I 0.29482(4) 0.33619(4) 0.34285(4)
I6 I 0.33351(5) 0.44224(5) 0.16860(4)
I7 I 0.42280(5) 0.32756(5) 0.48917(5)
I8 I 0.42629(4) 0.33985(5) 0.19852(5)
C13 C 0.4602(8) 0.4541(8) 0.3666(8)
H23 H 0.4736 0.4262 0.3589
H24 H 0.4232 0.4338 0.3902
C14 C 0.5056(9) 0.5028(8) 0.4075(8)
H25 H 0.4861 0.5088 0.4442
H26 H 0.5340 0.4925 0.4239
C15 C 0.4346(9) 0.5186(9) 0.3196(12)
H27 H 0.4004 0.5031 0.3477
H28 H 0.4254 0.5317 0.2796
C16 C 0.4896(10) 0.5702(9) 0.3532(11)
H29 H 0.5069 0.6040 0.3243
H30 H 0.4767 0.5814 0.3921
C17 C 0.5037(8) 0.5012(8) 0.2684(8)
H31 H 0.4982 0.5213 0.2320
H32 H 0.5128 0.4720 0.2515
C18 C 0.5546(7) 0.5456(8) 0.3098(8)
H33 H 0.5818 0.5313 0.3174
H34 H 0.5756 0.5828 0.2868
N5 N 0.4490(5) 0.4715(5) 0.3053(6)
N6 N 0.5355(5) 0.5561(5) 0.3710(5)
C19 C 0.2263(12) 0.4540(6) 0.3789(9)
H35 H 0.2589 0.4536 0.3777
C20 C 0.2546(9) 0.5041(6) 0.4226(8)
H36 H 0.2244 0.5005 0.4524
H37 H 0.2851 0.5023 0.4476
C21 C 0.2816(16) 0.5633(8) 0.3887(13)
H38 H 0.2617 0.5798 0.3999
H39 H 0.3162 0.5841 0.4050
C22 C 0.2861(23) 0.5677(16) 0.3206(17)
H40 H 0.2746 0.5917 0.3086
H41 H 0.3232 0.5846 0.3126
C23 C 0.2587(11) 0.5145(7) 0.2799(8)
H42 H 0.2308 0.5176 0.2516
H43 H 0.2893 0.5151 0.2529
C24 C 0.2323(13) 0.4588(6) 0.3148(8)
H44 H 0.2000 0.4596 0.3162
N7 N 0.1976(7) 0.3929(5) 0.4080(5)
N8 N 0.2013(7) 0.4048(5) 0.2736(6)
Cu8 Cu 0.60887(9) 0.62638(13) 0.41815(9)
Cu10 Cu 0.39113(9) 0.37362(13) 0.58185(9)
Cu12 Cu 0.06746(8) 0.35523(11) 0.07832(9)
Cu13 Cu 0.26587(8) 0.31144(11) 0.58835(9)
Cu15 Cu 0.33647(12) 0.34453(8) 0.13891(9)
I9 I 0.10890(5) 0.44206(7) 0.16474(4)
I10 I 0.22443(5) 0.22461(7) 0.50193(4)
I11 I 0.09525(7) 0.42280(5) 0.51083(5)
I12 I 0.23809(7) 0.24386(5) 0.15583(5)
I13 I 0.00651(5) 0.24689(6) 0.13482(5)
I14 I 0.32682(5) 0.41978(6) 0.53185(5)
N9 N 0.3128(7) 0.2022(5) 0.2957(5)
N10 N 0.0205(7) 0.4645(5) 0.3710(5)
H45 H 0.102647 0.2638 0.424478
H46 H 0.165067 0.261071 0.418851
H47 H 0.169948 0.280209 0.229259
H48 H 0.105332 0.278831 0.232297
H49 H 0.227988 0.387857 0.434421
H50 H 0.163351 0.386439 0.437359
H51 H 0.168234 0.405578 0.247865
H52 H 0.230681 0.402909 0.242143
Cu2 Cu 0.95443(8) 0.26587(8) 0.41165(9)
I2 I 0.99982(5) 0.22443(5) 0.49807(4)
I3 I 0.91053(5) 0.33911(5) 0.17750(5)
I4 I 0.90704(4) 0.32682(5) 0.46815(5)
C1 C 0.8731(8) 0.2126(8) 0.3001(8)
H1 H 0.8597 0.2405 0.3078
H2 H 0.9101 0.2329 0.2765
C2 C 0.8277(9) 0.1639(8) 0.2592(8)
H3 H 0.8472 0.1579 0.2225
H4 H 0.7993 0.1742 0.2428
C3 C 0.8987(9) 0.1481(9) 0.3471(12)
H5 H 0.9329 0.1636 0.3190
H6 H 0.9079 0.1350 0.3871
C4 C 0.8437(10) 0.0965(9) 0.3135(11)
H7 H 0.8264 0.0627 0.3424
H8 H 0.8566 0.0853 0.2746
C5 C 0.8296(8) 0.1655(8) 0.3983(8)
H9 H 0.8351 0.1454 0.4347
H10 H 0.8205 0.1947 0.4152
C6 C 0.7787(7) 0.1211(8) 0.3569(8)
H11 H 0.7515 0.1354 0.3493
H12 H 0.7577 0.0839 0.3799
N1 N 0.8843(5) 0.1952(5) 0.3614(6)
N2 N 0.7978(5) 0.1106(5) 0.2957(5)
Cu9 Cu 0.94220(9) 0.29305(13) 0.08482(9)
Cu11 Cu 0.72446(9) 0.04029(13) 0.24852(9)
Cu14 Cu 0.99687(12) 0.32213(8) 0.52775(9)
I7_2 I 0.67244(5) 0.09525(7) 0.48917(5)
I8_2 I 0.66015(5) 0.08645(6) 0.19852(5)
C13_2 C 0.5459(8) 0.0062(11) 0.3666(8)
H23_2 H 0.5738 0.0475 0.3589
C14_2 C 0.4972(8) 0.0029(12) 0.4075(8)
H26_2 H 0.5075 0.0416 0.4239
C17_2 C 0.4988(8) 0.0026(11) 0.2684(8)
H32_2 H 0.5280 0.0409 0.2515
C18_2 C 0.4544(8) 0.0091(11) 0.3098(8)
H33_2 H 0.4687 0.0506 0.3174
Cu10_2 Cu 0.62638(13) 0.01751(16) 0.58185(9)
Cu2_2 Cu 0.73413(8) 0.68856(11) 0.41165(9)
Cu3_2 Cu 0.65860(9) 0.66980(12) 0.19442(9)
I1_2 I 0.66952(4) 0.70803(6) 0.32382(4)
I2_2 I 0.77557(5) 0.77539(7) 0.49807(4)
I3_2 I 0.66089(5) 0.57142(7) 0.17750(5)
I4_2 I 0.67318(5) 0.58022(6) 0.46815(5)
C1_2 C 0.7874(8) 0.6605(11) 0.3001(8)
H1_2 H 0.7595 0.6192 0.3078
H2_2 H 0.7671 0.6772 0.2765
C2_2 C 0.8361(8) 0.6638(12) 0.2592(8)
H3_2 H 0.8421 0.6893 0.2225
H4_2 H 0.8258 0.6251 0.2428
C3_2 C 0.8519(9) 0.7506(13) 0.3471(12)
H5_2 H 0.8364 0.7693 0.3190
H6_2 H 0.8650 0.7729 0.3871
C4_2 C 0.9035(9) 0.7472(13) 0.3135(11)
H7_2 H 0.9373 0.7637 0.3424
H8_2 H 0.9147 0.7713 0.2746
C5_2 C 0.8345(8) 0.6641(11) 0.3983(8)
H9_2 H 0.8546 0.6897 0.4347
H10_2 H 0.8053 0.6258 0.4152
C6_2 C 0.8789(8) 0.6576(11) 0.3569(8)
H11_2 H 0.8646 0.6161 0.3493
H12_2 H 0.9161 0.6738 0.3799
N1_2 N 0.8048(5) 0.6891(7) 0.3614(6)
N2_2 N 0.8894(5) 0.6872(7) 0.2957(5)
Cu4_2 Cu 0.6667 0.8334 0.3333
C7_2 C 0.7873(6) 0.8943(13) 0.2878(9)
H13_2 H 0.7869 0.8613 0.2890
C8_2 C 0.8374(6) 0.9161(11) 0.2441(8)
H14_2 H 0.8338 0.9427 0.2143
H15_2 H 0.8356 0.8838 0.2191
C9_2 C 0.8966(8) 0.9483(18) 0.2780(13)
H16_2 H 0.9131 0.9847 0.2668
H17_2 H 0.9174 0.9345 0.2617
C10_2 C 0.9010(16) 0.9482(28) 0.3461(17)
H18_2 H 0.9250 0.9837 0.3581
H19_2 H 0.9179 0.9280 0.3541
C11_2 C 0.8478(7) 0.9224(13) 0.3868(8)
H20_2 H 0.8509 0.9534 0.4151
H21_2 H 0.8484 0.8924 0.4138
C12_2 C 0.7921(6) 0.8931(14) 0.3519(8)
H22_2 H 0.7929 0.9262 0.3505
N3_2 N 0.7262(5) 0.8619(9) 0.2587(5)
N4_2 N 0.7381(5) 0.8701(9) 0.3931(6)
Cu6_2 Cu 0.59920(8) 0.97811(11) 0.25502(9)
Cu7_2 Cu 0.67473(9) 0.99687(12) 0.47225(9)
I5_2 I 0.66381(4) 0.95864(6) 0.34285(4)
I6_2 I 0.55776(5) 0.89128(7) 0.16860(4)
H24_2 H 0.5662 0.9895 0.3902
H25_2 H 0.4912 0.9774 0.4442
C15_2 C 0.4814(9) 0.9161(13) 0.3196(12)
H27_2 H 0.4969 0.8974 0.3477
H28_2 H 0.4683 0.8938 0.2796
C16_2 C 0.4298(9) 0.9195(13) 0.3532(11)
H29_2 H 0.3960 0.9030 0.3243
H30_2 H 0.4186 0.8954 0.3921
H31_2 H 0.4787 0.9770 0.2320
H34_2 H 0.4172 0.9929 0.2868
N5_2 N 0.5285(5) 0.9776(7) 0.3053(6)
N6_2 N 0.4439(5) 0.9795(7) 0.3710(5)
C19_2 C 0.5460(6) 0.7724(13) 0.3789(9)
H35_2 H 0.5464 0.8054 0.3777
C20_2 C 0.4959(6) 0.7506(11) 0.4226(8)
H36_2 H 0.4995 0.7240 0.4524
H37_2 H 0.4977 0.7829 0.4476
C21_2 C 0.4367(8) 0.7184(18) 0.3887(13)
H38_2 H 0.4202 0.6820 0.3999
H39_2 H 0.4159 0.7322 0.4050
C22_2 C 0.4323(16) 0.7185(28) 0.3206(17)
H40_2 H 0.4083 0.6830 0.3086
H41_2 H 0.4154 0.7387 0.3126
C23_2 C 0.4855(7) 0.7443(13) 0.2799(8)
H42_2 H 0.4824 0.7133 0.2516
H43_2 H 0.4849 0.7743 0.2529
C24_2 C 0.5412(6) 0.7736(14) 0.3148(8)
H44_2 H 0.5404 0.7405 0.3162
N7_2 N 0.6071(5) 0.8048(9) 0.4080(5)
N8_2 N 0.5952(5) 0.7966(9) 0.2736(6)
Cu8_2 Cu 0.37362(13) 0.98249(16) 0.41815(9)
Cu9_2 Cu 0.70695(13) 0.64916(16) 0.08482(9)
Cu11_2 Cu 0.95971(13) 0.68418(16) 0.24852(9)
Cu12_2 Cu 0.64477(11) 0.71224(14) 0.07832(9)
Cu13_2 Cu 0.68856(11) 0.95443(14) 0.58835(9)
Cu14_2 Cu 0.67787(8) 0.67473(14) 0.52775(9)
Cu15_2 Cu 0.65547(8) 0.99193(14) 0.13891(9)
I9_2 I 0.55794(7) 0.66685(9) 0.16474(4)
I10_2 I 0.77539(7) 0.99982(9) 0.50193(4)
I11_2 I 0.57720(5) 0.67244(9) 0.51083(5)
I12_2 I 0.75614(5) 0.99422(9) 0.15583(5)
I13_2 I 0.75311(6) 0.75963(8) 0.13482(5)
I14_2 I 0.58022(6) 0.90704(8) 0.53185(5)
H45_2 H 0.7362 0.838847 0.424478
H46_2 H 0.738929 0.903996 0.418851
H47_2 H 0.719791 0.889739 0.229259
H48_2 H 0.721169 0.826501 0.232297
H49_2 H 0.612143 0.840132 0.434421
H50_2 H 0.613561 0.776911 0.437359
H51_2 H 0.594422 0.762656 0.247865
H52_2 H 0.597091 0.827771 0.242143
Cu2_3 Cu 0.31144(11) 0.04557(8) 0.41165(9)
I2_3 I 0.22461(7) 0.00018(5) 0.49807(4)
I3_3 I 0.42858(7) 0.08947(5) 0.17750(5)
I4_3 I 0.41978(6) 0.09296(4) 0.46815(5)
C1_3 C 0.3395(11) 0.1269(8) 0.3001(8)
H1_3 H 0.3808 0.1403 0.3078
H2_3 H 0.3228 0.0899 0.2765
C2_3 C 0.3362(12) 0.1723(9) 0.2592(8)
H3_3 H 0.3107 0.1528 0.2225
H4_3 H 0.3749 0.2007 0.2428
C3_3 C 0.2494(13) 0.1013(9) 0.3471(12)
H5_3 H 0.2307 0.0671 0.3190
H6_3 H 0.2271 0.0921 0.3871
C4_3 C 0.2528(13) 0.1563(10) 0.3135(11)
H7_3 H 0.2363 0.1736 0.3424
H8_3 H 0.2287 0.1434 0.2746
C5_3 C 0.3359(11) 0.1704(8) 0.3983(8)
H9_3 H 0.3103 0.1649 0.4347
H10_3 H 0.3742 0.1795 0.4152
C6_3 C 0.3424(11) 0.2213(7) 0.3569(8)
H11_3 H 0.3839 0.2485 0.3493
H12_3 H 0.3262 0.2423 0.3799
N1_3 N 0.3109(7) 0.1157(5) 0.3614(6)
Cu9_3 Cu 0.35084(16) 0.05780(9) 0.08482(9)
Cu14_3 Cu 0.32527(14) 0.00313(12) 0.52775(9)
Cu3_3 Cu 0.33020(12) 0.98880(8) 0.19442(9)
I1_3 I 0.29197(6) 0.96149(4) 0.32382(4)
Cu4_3 Cu 0.1666 0.8333 0.3333
C7_3 C 0.1057(13) 0.8930(12) 0.2878(9)
H13_3 H 0.1387 0.9256 0.2890
C8_3 C 0.0839(11) 0.9213(9) 0.2441(8)
H14_3 H 0.0573 0.8911 0.2143
H15_3 H 0.1162 0.9518 0.2191
C9_3 C 0.0517(18) 0.9483(16) 0.2780(13)
H16_3 H 0.0153 0.9284 0.2668
H17_3 H 0.0655 0.9829 0.2617
C10_3 C 0.0518(28) 0.9528(23) 0.3461(17)
H18_3 H 0.0163 0.9413 0.3581
H19_3 H 0.0720 0.9899 0.3541
C11_3 C 0.0776(13) 0.9254(11) 0.3868(8)
H20_3 H 0.0466 0.8975 0.4151
H21_3 H 0.1076 0.9560 0.4138
C12_3 C 0.1069(14) 0.8990(13) 0.3519(8)
H22_3 H 0.0738 0.8667 0.3505
N3_3 N 0.1381(9) 0.8643(7) 0.2587(5)
N4_3 N 0.1299(9) 0.8680(7) 0.3931(6)
Cu6_3 Cu 0.02189(11) 0.62110(8) 0.25502(9)
Cu7_3 Cu 0.00313(12) 0.67787(8) 0.47225(9)
I5_3 I 0.04136(6) 0.70518(4) 0.34285(4)
I6_3 I 0.10872(7) 0.66649(5) 0.16860(4)
H24_3 H 0.0105 0.5768 0.3902
H25_3 H 0.0226 0.5139 0.4442
C15_3 C 0.0839(13) 0.5654(9) 0.3196(12)
H27_3 H 0.1026 0.5996 0.3477
H28_3 H 0.1062 0.5746 0.2796
C16_3 C 0.0805(13) 0.5104(10) 0.3532(11)
H29_3 H 0.0970 0.4931 0.3243
H30_3 H 0.1046 0.5233 0.3921
H31_3 H 0.0230 0.5018 0.2320
H34_3 H 0.0071 0.4244 0.2868
N5_3 N 0.0224(7) 0.5510(5) 0.3053(6)
C19_3 C 0.2276(13) 0.7737(12) 0.3789(9)
H35_3 H 0.1946 0.7411 0.3777
C20_3 C 0.2494(11) 0.7454(9) 0.4226(8)
H36_3 H 0.2760 0.7756 0.4524
H37_3 H 0.2171 0.7149 0.4476
C21_3 C 0.2816(18) 0.7184(16) 0.3887(13)
H38_3 H 0.3180 0.7383 0.3999
H39_3 H 0.2678 0.6838 0.4050
C22_3 C 0.2815(28) 0.7139(23) 0.3206(17)
H40_3 H 0.3170 0.7254 0.3086
H41_3 H 0.2613 0.6768 0.3126
C23_3 C 0.2557(13) 0.7413(11) 0.2799(8)
H42_3 H 0.2867 0.7692 0.2516
H43_3 H 0.2257 0.7107 0.2529
C24_3 C 0.2264(14) 0.7677(13) 0.3148(8)
H44_3 H 0.2595 0.8000 0.3162
N7_3 N 0.1952(9) 0.8024(7) 0.4080(5)
N8_3 N 0.2034(9) 0.7987(7) 0.2736(6)
Cu12_3 Cu 0.28776(14) 0.93254(8) 0.07832(9)
Cu13_3 Cu 0.04557(14) 0.73413(8) 0.58835(9)
Cu15_3 Cu 0.00807(14) 0.66353(12) 0.13891(9)
I9_3 I 0.33315(9) 0.89110(5) 0.16474(4)
I10_3 I 0.00018(9) 0.77557(5) 0.50193(4)
I11_3 I 0.32756(9) 0.90475(7) 0.51083(5)
I12_3 I 0.00578(9) 0.76191(7) 0.15583(5)
I13_3 I 0.24037(8) 0.99349(5) 0.13482(5)
I14_3 I 0.09296(8) 0.67318(5) 0.53185(5)
H45_3 H 0.161153 0.897353 0.424478
H46_3 H 0.0960041 0.834933 0.418851
H47_3 H 0.110261 0.830052 0.229259
H48_3 H 0.173499 0.894668 0.232297
H49_3 H 0.159868 0.772012 0.434421
H50_3 H 0.223089 0.836649 0.437359
H51_3 H 0.237344 0.831766 0.247865
H52_3 H 0.172229 0.769319 0.242143
I7_3 I 0.90475(7) 0.57720(5) 0.48917(5)
I8_3 I 0.91355(6) 0.57371(4) 0.19852(5)
C13_3 C 0.9938(11) 0.5398(8) 0.3666(8)
H23_3 H 0.9525 0.5264 0.3589
C14_3 C 0.9971(12) 0.4944(9) 0.4075(8)
H26_3 H 0.9584 0.4660 0.4239
C17_3 C 0.9974(11) 0.4963(8) 0.2684(8)
H32_3 H 0.9591 0.4872 0.2515
C18_3 C 0.9909(11) 0.4454(7) 0.3098(8)
H33_3 H 0.9494 0.4182 0.3174
Cu10_3 Cu 0.98249(16) 0.60887(9) 0.58185(9)
I7_4 I 0.08947(5) 0.66089(5) 0.82250(5)
C13_4 C 0.1269(8) 0.7874(8) 0.6999(8)
H23_4 H 0.1403 0.7595 0.6922
H24_4 H 0.0899 0.7671 0.7235
C14_4 C 0.1723(9) 0.8361(8) 0.7408(8)
H25_4 H 0.1528 0.8421 0.7775
H26_4 H 0.2007 0.8258 0.7572
C15_4 C 0.1013(9) 0.8519(9) 0.6529(12)
H27_4 H 0.0671 0.8364 0.6810
H28_4 H 0.0921 0.8650 0.6129
C16_4 C 0.1563(10) 0.9035(9) 0.6865(11)
H29_4 H 0.1736 0.9373 0.6576
H30_4 H 0.1434 0.9147 0.7254
C17_4 C 0.1704(8) 0.8345(8) 0.6017(8)
H31_4 H 0.1649 0.8546 0.5653
H32_4 H 0.1795 0.8053 0.5848
C18_4 C 0.2213(7) 0.8789(8) 0.6431(8)
H33_4 H 0.2485 0.8646 0.6507
H34_4 H 0.2423 0.9161 0.6201
N5_4 N 0.1157(5) 0.8048(5) 0.6386(6)
N6_3 N 0.2022(5) 0.8894(5) 0.7043(5)
Cu8_3 Cu 0.27554(9) 0.95971(13) 0.75148(9)
Cu10_4 Cu 0.05780(9) 0.70695(13) 0.91518(9)
Cu1_2 Cu 0.68418(9) 0.72446(9) 0.75148(9)
Cu2_4 Cu 0.62110(8) 0.59920(8) 0.74498(9)
I1_4 I 0.70518(4) 0.66381(4) 0.65715(4)
I2_4 I 0.66649(5) 0.55776(5) 0.83140(4)
I4_4 I 0.57371(4) 0.66015(5) 0.80148(5)
C1_4 C 0.5398(8) 0.5459(8) 0.6334(8)
H1_4 H 0.5264 0.5738 0.6411
H2_4 H 0.5768 0.5662 0.6098
C2_4 C 0.4944(9) 0.4972(8) 0.5925(8)
H3_4 H 0.5139 0.4912 0.5558
H4_4 H 0.4660 0.5075 0.5761
C3_4 C 0.5654(9) 0.4814(9) 0.6804(12)
H5_4 H 0.5996 0.4969 0.6523
H6_4 H 0.5746 0.4683 0.7204
C4_4 C 0.5104(10) 0.4298(9) 0.6468(11)
H7_4 H 0.4931 0.3960 0.6757
H8_4 H 0.5233 0.4186 0.6079
C5_4 C 0.4963(8) 0.4988(8) 0.7316(8)
H9_4 H 0.5018 0.4787 0.7680
H10_4 H 0.4872 0.5280 0.7485
C6_4 C 0.4454(7) 0.4544(8) 0.6902(8)
H11_4 H 0.4182 0.4687 0.6826
H12_4 H 0.4244 0.4172 0.7132
N1_4 N 0.5510(5) 0.5285(5) 0.6947(6)
N2_3 N 0.4645(5) 0.4439(5) 0.6290(5)
Cu4_4 Cu 0.8334 0.6666 0.6666
C7_4 C 0.7737(12) 0.5460(6) 0.6211(9)
H13_4 H 0.7411 0.5464 0.6223
C8_4 C 0.7454(9) 0.4959(6) 0.5774(8)
H14_4 H 0.7756 0.4995 0.5476
H15_4 H 0.7149 0.4977 0.5524
C9_4 C 0.7184(16) 0.4367(8) 0.6113(13)
H16_4 H 0.7383 0.4202 0.6001
H17_4 H 0.6838 0.4159 0.5950
C10_4 C 0.7139(23) 0.4323(16) 0.6794(17)
H18_4 H 0.7254 0.4083 0.6914
H19_4 H 0.6768 0.4154 0.6874
C11_4 C 0.7413(11) 0.4855(7) 0.7201(8)
H20_4 H 0.7692 0.4824 0.7484
H21_4 H 0.7107 0.4849 0.7471
C12_4 C 0.7677(13) 0.5412(6) 0.6852(8)
H22_4 H 0.8000 0.5404 0.6838
N3_4 N 0.8024(7) 0.6071(5) 0.5920(5)
N4_4 N 0.7987(7) 0.5952(5) 0.7264(6)
Cu7_4 Cu 0.98880(8) 0.65860(9) 0.80558(9)
I5_4 I 0.96149(4) 0.66952(4) 0.67618(4)
C19_4 C 0.8930(12) 0.7873(6) 0.7122(9)
H35_4 H 0.9256 0.7869 0.7110
C20_4 C 0.9213(9) 0.8374(6) 0.7559(8)
H36_4 H 0.8911 0.8338 0.7857
H37_4 H 0.9518 0.8356 0.7809
C21_4 C 0.9483(16) 0.8966(8) 0.7220(13)
H38_4 H 0.9284 0.9131 0.7332
H39_4 H 0.9829 0.9174 0.7383
C22_4 C 0.9528(23) 0.9010(16) 0.6539(17)
H40_4 H 0.9413 0.9250 0.6419
H41_4 H 0.9899 0.9179 0.6459
C23_4 C 0.9254(11) 0.8478(7) 0.6132(8)
H42_4 H 0.8975 0.8509 0.5849
H43_4 H 0.9560 0.8484 0.5862
C24_4 C 0.8990(13) 0.7921(6) 0.6481(8)
H44_4 H 0.8667 0.7929 0.6495
N7_4 N 0.8643(7) 0.7262(5) 0.7413(5)
N8_4 N 0.8680(7) 0.7381(5) 0.6069(6)
Cu13_4 Cu 0.93254(8) 0.64477(11) 0.92168(9)
Cu14_4 Cu 0.66353(12) 0.65547(8) 0.86109(9)
I10_4 I 0.89110(5) 0.55794(7) 0.83526(4)
I11_4 I 0.76191(7) 0.75614(5) 0.84417(5)
I14_4 I 0.99349(5) 0.75311(6) 0.86518(5)
N9_2 N 0.9795(7) 0.5355(5) 0.6290(5)
N10_2 N 0.6872(7) 0.7978(5) 0.7043(5)
H45_4 H 0.769313 0.597133 0.757811
H46_4 H 0.831734 0.594405 0.752184
H47_4 H 0.836614 0.613542 0.562593
H48_4 H 0.771999 0.612165 0.56563
H49_4 H 0.894655 0.72119 0.767755
H50_4 H 0.830017 0.719773 0.770692
H51_4 H 0.8349 0.738911 0.581198
H52_4 H 0.897347 0.736243 0.575477
Cu2_5 Cu 0.40080(8) 0.02189(11) 0.74498(9)
I1_5 I 0.33619(4) 0.04136(6) 0.65715(4)
I2_5 I 0.44224(5) 0.10872(7) 0.83140(4)
H2_5 H 0.4338 0.0105 0.6098
H3_5 H 0.5088 0.0226 0.5558
C3_5 C 0.5186(9) 0.0839(13) 0.6804(12)
H5_5 H 0.5031 0.1026 0.6523
H6_5 H 0.5317 0.1062 0.7204
C4_5 C 0.5702(9) 0.0805(13) 0.6468(11)
H7_5 H 0.6040 0.0970 0.6757
H8_5 H 0.5814 0.1046 0.6079
H9_5 H 0.5213 0.0230 0.7680
H12_5 H 0.5828 0.0071 0.7132
N1_5 N 0.4715(5) 0.0224(7) 0.6947(6)
N2_4 N 0.5561(5) 0.0205(7) 0.6290(5)
Cu4_5 Cu 0.3334 0.1667 0.6666
C7_5 C 0.4540(6) 0.2276(13) 0.6211(9)
H13_5 H 0.4536 0.1946 0.6223
C8_5 C 0.5041(6) 0.2494(11) 0.5774(8)
H14_5 H 0.5005 0.2760 0.5476
H15_5 H 0.5023 0.2171 0.5524
C9_5 C 0.5633(8) 0.2816(18) 0.6113(13)
H16_5 H 0.5798 0.3180 0.6001
H17_5 H 0.5841 0.2678 0.5950
C10_5 C 0.5677(16) 0.2815(28) 0.6794(17)
H18_5 H 0.5917 0.3170 0.6914
H19_5 H 0.5846 0.2613 0.6874
C11_5 C 0.5145(7) 0.2557(13) 0.7201(8)
H20_5 H 0.5176 0.2867 0.7484
H21_5 H 0.5151 0.2257 0.7471
C12_5 C 0.4588(6) 0.2264(14) 0.6852(8)
H22_5 H 0.4596 0.2595 0.6838
N3_5 N 0.3929(5) 0.1952(9) 0.5920(5)
N4_5 N 0.4048(5) 0.2034(9) 0.7264(6)
Cu7_5 Cu 0.34140(9) 0.33020(12) 0.80558(9)
I5_5 I 0.33048(4) 0.29197(6) 0.67618(4)
I7_5 I 0.33911(5) 0.42858(7) 0.82250(5)
C13_5 C 0.2126(8) 0.3395(11) 0.6999(8)
H23_5 H 0.2405 0.3808 0.6922
H24_5 H 0.2329 0.3228 0.7235
C14_5 C 0.1639(8) 0.3362(12) 0.7408(8)
H25_5 H 0.1579 0.3107 0.7775
H26_5 H 0.1742 0.3749 0.7572
C15_5 C 0.1481(9) 0.2494(13) 0.6529(12)
H27_5 H 0.1636 0.2307 0.6810
H28_5 H 0.1350 0.2271 0.6129
C16_5 C 0.0965(9) 0.2528(13) 0.6865(11)
H29_5 H 0.0627 0.2363 0.6576
H30_5 H 0.0853 0.2287 0.7254
C17_5 C 0.1655(8) 0.3359(11) 0.6017(8)
H31_5 H 0.1454 0.3103 0.5653
H32_5 H 0.1947 0.3742 0.5848
C18_5 C 0.1211(8) 0.3424(11) 0.6431(8)
H33_5 H 0.1354 0.3839 0.6507
H34_5 H 0.0839 0.3262 0.6201
N5_5 N 0.1952(5) 0.3109(7) 0.6386(6)
N6_4 N 0.1106(5) 0.3128(7) 0.7043(5)
C19_5 C 0.2127(6) 0.1057(13) 0.7122(9)
H35_5 H 0.2131 0.1387 0.7110
C20_5 C 0.1626(6) 0.0839(11) 0.7559(8)
H36_5 H 0.1662 0.0573 0.7857
H37_5 H 0.1644 0.1162 0.7809
C21_5 C 0.1034(8) 0.0517(18) 0.7220(13)
H38_5 H 0.0869 0.0153 0.7332
H39_5 H 0.0826 0.0655 0.7383
C22_5 C 0.0990(16) 0.0518(28) 0.6539(17)
H40_5 H 0.0750 0.0163 0.6419
H41_5 H 0.0821 0.0720 0.6459
C23_5 C 0.1522(7) 0.0776(13) 0.6132(8)
H42_5 H 0.1491 0.0466 0.5849
H43_5 H 0.1516 0.1076 0.5862
C24_5 C 0.2079(6) 0.1069(14) 0.6481(8)
H44_5 H 0.2071 0.0738 0.6495
N7_5 N 0.2738(5) 0.1381(9) 0.7413(5)
N8_5 N 0.2619(5) 0.1299(9) 0.6069(6)
Cu8_4 Cu 0.04029(13) 0.31582(16) 0.75148(9)
Cu10_5 Cu 0.29305(13) 0.35084(16) 0.91518(9)
Cu13_5 Cu 0.35523(11) 0.28776(14) 0.92168(9)
Cu14_5 Cu 0.34453(8) 0.00807(14) 0.86109(9)
I10_5 I 0.44206(7) 0.33315(9) 0.83526(4)
I11_5 I 0.24386(5) 0.00578(9) 0.84417(5)
I14_5 I 0.24689(6) 0.24037(8) 0.86518(5)
H45_5 H 0.402867 0.17218 0.757811
H46_5 H 0.405595 0.237329 0.752184
H47_5 H 0.386458 0.223072 0.562593
H48_5 H 0.387835 0.159834 0.56563
H49_5 H 0.27881 0.173465 0.767755
H50_5 H 0.280227 0.110245 0.770692
H51_5 H 0.261089 0.0959889 0.581198
H52_5 H 0.263757 0.161105 0.575477
I4_5 I 0.33985(5) 0.91355(6) 0.80148(5)
C1_5 C 0.4541(8) 0.9938(11) 0.6334(8)
H1_5 H 0.4262 0.9525 0.6411
C2_5 C 0.5028(8) 0.9971(12) 0.5925(8)
H4_5 H 0.4925 0.9584 0.5761
C5_5 C 0.5012(8) 0.9974(11) 0.7316(8)
H10_5 H 0.4720 0.9591 0.7485
C6_5 C 0.5456(8) 0.9909(11) 0.6902(8)
H11_5 H 0.5313 0.9494 0.6826
I4_6 I 0.08645(6) 0.42629(4) 0.80148(5)
C1_6 C 0.0062(11) 0.4602(8) 0.6334(8)
H1_6 H 0.0475 0.4736 0.6411
C2_6 C 0.0029(12) 0.5056(9) 0.5925(8)
H4_6 H 0.0416 0.5340 0.5761
C5_6 C 0.0026(11) 0.5037(8) 0.7316(8)
H10_6 H 0.0409 0.5128 0.7485
C6_6 C 0.0091(11) 0.5546(7) 0.6902(8)
H11_6 H 0.0506 0.5818 0.6826
Cu2_6 Cu 0.97811(11) 0.37890(8) 0.74498(9)
I1_6 I 0.95864(6) 0.29482(4) 0.65715(4)
I2_6 I 0.89128(7) 0.33351(5) 0.83140(4)
H2_6 H 0.9895 0.4232 0.6098
H3_6 H 0.9774 0.4861 0.5558
C3_6 C 0.9161(13) 0.4346(9) 0.6804(12)
H5_6 H 0.8974 0.4004 0.6523
H6_6 H 0.8938 0.4254 0.7204
C4_6 C 0.9195(13) 0.4896(10) 0.6468(11)
H7_6 H 0.9030 0.5069 0.6757
H8_6 H 0.8954 0.4767 0.6079
H9_6 H 0.9770 0.4982 0.7680
H12_6 H 0.9929 0.5756 0.7132
N1_6 N 0.9776(7) 0.4490(5) 0.6947(6)
Cu4_6 Cu 0.8333 0.1666 0.6666
C7_6 C 0.7724(13) 0.2263(12) 0.6211(9)
H13_6 H 0.8054 0.2589 0.6223
C8_6 C 0.7506(11) 0.2546(9) 0.5774(8)
H14_6 H 0.7240 0.2244 0.5476
H15_6 H 0.7829 0.2851 0.5524
C9_6 C 0.7184(18) 0.2816(16) 0.6113(13)
H16_6 H 0.6820 0.2617 0.6001
H17_6 H 0.7322 0.3162 0.5950
C10_6 C 0.7185(28) 0.2861(23) 0.6794(17)
H18_6 H 0.6830 0.2746 0.6914
H19_6 H 0.7387 0.3232 0.6874
C11_6 C 0.7443(13) 0.2587(11) 0.7201(8)
H20_6 H 0.7133 0.2308 0.7484
H21_6 H 0.7743 0.2893 0.7471
C12_6 C 0.7736(14) 0.2323(13) 0.6852(8)
H22_6 H 0.7405 0.2000 0.6838
N3_6 N 0.8048(9) 0.1976(7) 0.5920(5)
N4_6 N 0.7966(9) 0.2013(7) 0.7264(6)
Cu7_6 Cu 0.66980(12) 0.01120(8) 0.80558(9)
I5_6 I 0.70803(6) 0.03851(4) 0.67618(4)
C19_6 C 0.8943(13) 0.1070(12) 0.7122(9)
H35_6 H 0.8613 0.0744 0.7110
C20_6 C 0.9161(11) 0.0787(9) 0.7559(8)
H36_6 H 0.9427 0.1089 0.7857
H37_6 H 0.8838 0.0482 0.7809
C21_6 C 0.9483(18) 0.0517(16) 0.7220(13)
H38_6 H 0.9847 0.0716 0.7332
H39_6 H 0.9345 0.0171 0.7383
C22_6 C 0.9482(28) 0.0472(23) 0.6539(17)
H40_6 H 0.9837 0.0587 0.6419
H41_6 H 0.9280 0.0101 0.6459
C23_6 C 0.9224(13) 0.0746(11) 0.6132(8)
H42_6 H 0.9534 0.1025 0.5849
H43_6 H 0.8924 0.0440 0.5862
C24_6 C 0.8931(14) 0.1010(13) 0.6481(8)
H44_6 H 0.9262 0.1333 0.6495
N7_6 N 0.8619(9) 0.1357(7) 0.7413(5)
N8_6 N 0.8701(9) 0.1320(7) 0.6069(6)
Cu13_6 Cu 0.71224(14) 0.06746(8) 0.92168(9)
Cu14_6 Cu 0.99193(14) 0.33647(12) 0.86109(9)
I10_6 I 0.66685(9) 0.10890(5) 0.83526(4)
I11_6 I 0.99422(9) 0.23809(7) 0.84417(5)
I14_6 I 0.75963(8) 0.00651(5) 0.86518(5)
H45_6 H 0.82782 0.230687 0.757811
H46_6 H 0.762671 0.168266 0.752184
H47_6 H 0.776928 0.163386 0.562593
H48_6 H 0.840166 0.228001 0.56563
H49_6 H 0.826535 0.105345 0.767755
H50_6 H 0.889755 0.169983 0.770692
H51_6 H 0.904011 0.1651 0.581198
H52_6 H 0.838895 0.102653 0.575477
I7_6 I 0.57142(7) 0.91053(5) 0.82250(5)
C13_6 C 0.6605(11) 0.8731(8) 0.6999(8)
H23_6 H 0.6192 0.8597 0.6922
H24_6 H 0.6772 0.9101 0.7235
C14_6 C 0.6638(12) 0.8277(9) 0.7408(8)
H25_6 H 0.6893 0.8472 0.7775
H26_6 H 0.6251 0.7993 0.7572
C15_6 C 0.7506(13) 0.8987(9) 0.6529(12)
H27_6 H 0.7693 0.9329 0.6810
H28_6 H 0.7729 0.9079 0.6129
C16_6 C 0.7472(13) 0.8437(10) 0.6865(11)
H29_6 H 0.7637 0.8264 0.6576
H30_6 H 0.7713 0.8566 0.7254
C17_6 C 0.6641(11) 0.8296(8) 0.6017(8)
H31_6 H 0.6897 0.8351 0.5653
H32_6 H 0.6258 0.8205 0.5848
C18_6 C 0.6576(11) 0.7787(7) 0.6431(8)
H33_6 H 0.6161 0.7515 0.6507
H34_6 H 0.6738 0.7577 0.6201
N5_6 N 0.6891(7) 0.8843(5) 0.6386(6)
Cu10_6 Cu 0.64916(16) 0.94220(9) 0.91518(9)
Cu4_7 Cu 0.5000 -0.0000 -0.0000
I5_7 I 0.62816(4) 0.00285(4) 0.00951(4)
C13_7 C 0.7936(8) 0.1207(8) 0.0332(8)
H23_7 H 0.8070 0.0928 0.0255
H24_7 H 0.7566 0.1004 0.0568
C14_7 C 0.8390(9) 0.1694(8) 0.0741(8)
H25_7 H 0.8195 0.1754 0.1108
H26_7 H 0.8674 0.1591 0.0905
H27_7 H 0.7338 0.1697 0.0143
C16_7 C 0.8230(10) 0.2368(9) 0.0198(11)
H30_7 H 0.8101 0.2480 0.0587
N6_5 N 0.8689(5) 0.2227(5) 0.0376(5)
C19_7 C 0.5597(12) 0.1206(6) 0.0455(9)
H35_7 H 0.5923 0.1202 0.0443
C20_7 C 0.5880(9) 0.1707(6) 0.0892(8)
H36_7 H 0.5578 0.1671 0.1190
H37_7 H 0.6185 0.1689 0.1142
C21_7 C 0.6150(16) 0.2299(8) 0.0553(13)
H38_7 H 0.5951 0.2464 0.0665
H39_7 H 0.6496 0.2507 0.0716
N7_7 N 0.5310(7) 0.0595(5) 0.0746(5)
N10_3 N 0.3539(7) 0.1311(5) 0.0376(5)
H49_7 H 0.561322 0.0545233 0.101088
H50_7 H 0.496684 0.0531061 0.104026
Cu4_8 Cu 0.5000 -0.0000 1.0000
C15_7 C 0.7680(9) 0.1852(9) 0.9862(12)
H28_7 H 0.7588 0.1983 0.9462
H29_7 H 0.8403 0.2706 0.9909
C17_7 C 0.8371(8) 0.1678(8) 0.9350(8)
H31_7 H 0.8316 0.1879 0.8986
H32_7 H 0.8462 0.1386 0.9181
C18_7 C 0.8880(7) 0.2122(8) 0.9764(8)
H33_7 H 0.9152 0.1979 0.9840
H34_7 H 0.9090 0.2494 0.9534
N5_7 N 0.7824(5) 0.1381(5) 0.9719(6)
C22_7 C 0.6195(23) 0.2343(16) 0.9872(17)
H40_7 H 0.6080 0.2583 0.9752
H41_7 H 0.6566 0.2512 0.9792
C23_7 C 0.5921(11) 0.1811(7) 0.9465(8)
H42_7 H 0.5642 0.1842 0.9182
H43_7 H 0.6227 0.1817 0.9195
C24_7 C 0.5657(13) 0.1254(6) 0.9814(8)
H44_7 H 0.5334 0.1262 0.9828
N8_7 N 0.5347(7) 0.0714(5) 0.9402(6)
H51_7 H 0.501567 0.0722446 0.914532
H52_7 H 0.564014 0.069576 0.90881
C3_7 C 0.2320(9) 0.8148(9) 0.0138(12)
H6_7 H 0.2412 0.8017 0.0538
H7_7 H 0.1597 0.7294 0.0091
C5_7 C 0.1629(8) 0.8322(8) 0.0650(8)
H9_7 H 0.1684 0.8121 0.1014
H10_7 H 0.1538 0.8614 0.0819
C6_7 C 0.1120(7) 0.7878(8) 0.0236(8)
H11_7 H 0.0848 0.8021 0.0160
H12_7 H 0.0910 0.7506 0.0466
N1_7 N 0.2176(5) 0.8619(5) 0.0281(6)
Cu4_9 Cu 0.5000 1.0000 -0.0000
C10_7 C 0.3805(23) 0.7657(16) 0.0128(17)
H18_7 H 0.3920 0.7417 0.0248
H19_7 H 0.3434 0.7488 0.0208
C11_7 C 0.4079(11) 0.8189(7) 0.0535(8)
H20_7 H 0.4358 0.8158 0.0818
H21_7 H 0.3773 0.8183 0.0805
C12_7 C 0.4343(13) 0.8746(6) 0.0186(8)
H22_7 H 0.4666 0.8738 0.0172
N4_7 N 0.4653(7) 0.9286(5) 0.0598(6)
H45_7 H 0.43598 0.930467 0.0911448
H46_7 H 0.498401 0.927738 0.0855177
I1_7 I 0.37184(4) 0.99715(4) 0.99049(4)
C1_7 C 0.2064(8) 0.8793(8) 0.9668(8)
H1_7 H 0.1930 0.9072 0.9745
H2_7 H 0.2434 0.8996 0.9432
C2_7 C 0.1610(9) 0.8306(8) 0.9259(8)
H3_7 H 0.1805 0.8246 0.8892
H4_7 H 0.1326 0.8409 0.9095
H5_7 H 0.2662 0.8303 0.9857
C4_7 C 0.1770(10) 0.7632(9) 0.9802(11)
H8_7 H 0.1899 0.7520 0.9413
N2_5 N 0.1311(5) 0.7773(5) 0.9624(5)
Cu4_10 Cu 0.5000 1.0000 1.0000
C7_7 C 0.4403(12) 0.8794(6) 0.9545(9)
H13_7 H 0.4077 0.8798 0.9557
C8_7 C 0.4120(9) 0.8293(6) 0.9108(8)
H14_7 H 0.4422 0.8329 0.8810
H15_7 H 0.3815 0.8311 0.8858
C9_7 C 0.3850(16) 0.7701(8) 0.9447(13)
H16_7 H 0.4049 0.7536 0.9335
H17_7 H 0.3504 0.7493 0.9284
N3_7 N 0.4690(7) 0.9405(5) 0.9254(5)
N9_3 N 0.6461(7) 0.8689(5) 0.9624(5)
H47_7 H 0.503281 0.946876 0.895926
H48_7 H 0.438665 0.945498 0.898964
C3_8 C 0.1852(9) 0.4173(13) 0.0138(12)
H6_8 H 0.1983 0.4396 0.0538
H7_8 H 0.2706 0.4304 0.0091
C5_8 C 0.1678(8) 0.3308(11) 0.0650(8)
H9_8 H 0.1879 0.3564 0.1014
H10_8 H 0.1386 0.2925 0.0819
C6_8 C 0.2122(8) 0.3243(11) 0.0236(8)
H11_8 H 0.1979 0.2828 0.0160
H12_8 H 0.2494 0.3405 0.0466
N1_8 N 0.1381(5) 0.3558(7) 0.0281(6)
Cu4_11 Cu 0.0000 0.5001 -0.0000
C10_8 C 0.2343(16) 0.6149(28) 0.0128(17)
H18_8 H 0.2583 0.6504 0.0248
H19_8 H 0.2512 0.5947 0.0208
C11_8 C 0.1811(7) 0.5891(13) 0.0535(8)
H20_8 H 0.1842 0.6201 0.0818
H21_8 H 0.1817 0.5591 0.0805
C12_8 C 0.1254(6) 0.5598(14) 0.0186(8)
H22_8 H 0.1262 0.5929 0.0172
N4_8 N 0.0714(5) 0.5368(9) 0.0598(6)
H45_8 H 0.0695332 0.505513 0.0911448
H46_8 H 0.0722621 0.570663 0.0855177
I1_8 I 0.00285(4) 0.37470(6) 0.99049(4)
C1_8 C 0.1207(8) 0.3272(11) 0.9668(8)
H1_8 H 0.0928 0.2859 0.9745
H2_8 H 0.1004 0.3439 0.9432
C2_8 C 0.1694(8) 0.3305(12) 0.9259(8)
H3_8 H 0.1754 0.3560 0.8892
H4_8 H 0.1591 0.2918 0.9095
H5_8 H 0.1697 0.4360 0.9857
C4_8 C 0.2368(9) 0.4139(13) 0.9802(11)
H8_8 H 0.2480 0.4380 0.9413
N2_6 N 0.2227(5) 0.3539(7) 0.9624(5)
Cu4_12 Cu 0.0000 0.5001 1.0000
C7_8 C 0.1206(6) 0.5610(13) 0.9545(9)
H13_8 H 0.1202 0.5280 0.9557
C8_8 C 0.1707(6) 0.5828(11) 0.9108(8)
H14_8 H 0.1671 0.6094 0.8810
H15_8 H 0.1689 0.5505 0.8858
C9_8 C 0.2299(8) 0.6150(18) 0.9447(13)
H16_8 H 0.2464 0.6514 0.9335
H17_8 H 0.2507 0.6012 0.9284
N3_8 N 0.0595(5) 0.5286(9) 0.9254(5)
H47_8 H 0.0531245 0.556406 0.895926
H48_8 H 0.0545018 0.493167 0.898964
Cu4_13 Cu 1.0000 0.5001 -0.0000
I5_8 I 0.99715(4) 0.62530(6) 0.00951(4)
C13_8 C 0.8793(8) 0.6728(11) 0.0332(8)
H23_8 H 0.9072 0.7141 0.0255
H24_8 H 0.8996 0.6561 0.0568
C14_8 C 0.8306(8) 0.6695(12) 0.0741(8)
H25_8 H 0.8246 0.6440 0.1108
H26_8 H 0.8409 0.7082 0.0905
H27_8 H 0.8303 0.5640 0.0143
C16_8 C 0.7632(9) 0.5861(13) 0.0198(11)
H30_8 H 0.7520 0.5620 0.0587
N6_6 N 0.7773(5) 0.6461(7) 0.0376(5)
C19_8 C 0.8794(6) 0.4390(13) 0.0455(9)
H35_8 H 0.8798 0.4720 0.0443
C20_8 C 0.8293(6) 0.4172(11) 0.0892(8)
H36_8 H 0.8329 0.3906 0.1190
H37_8 H 0.8311 0.4495 0.1142
C21_8 C 0.7701(8) 0.3850(18) 0.0553(13)
H38_8 H 0.7536 0.3486 0.0665
H39_8 H 0.7493 0.3988 0.0716
N7_8 N 0.9405(5) 0.4714(9) 0.0746(5)
H49_8 H 0.945477 0.506798 0.101088
H50_8 H 0.946894 0.443578 0.104026
Cu4_14 Cu 1.0000 0.5001 1.0000
C15_8 C 0.8148(9) 0.5827(13) 0.9862(12)
H28_8 H 0.8017 0.5604 0.9462
H29_8 H 0.7294 0.5696 0.9909
C17_8 C 0.8322(8) 0.6692(11) 0.9350(8)
H31_8 H 0.8121 0.6436 0.8986
H32_8 H 0.8614 0.7075 0.9181
C18_8 C 0.7878(8) 0.6757(11) 0.9764(8)
H33_8 H 0.8021 0.7172 0.9840
H34_8 H 0.7506 0.6595 0.9534
N5_8 N 0.8619(5) 0.6442(7) 0.9719(6)
C22_8 C 0.7657(16) 0.3851(28) 0.9872(17)
H40_8 H 0.7417 0.3496 0.9752
H41_8 H 0.7488 0.4053 0.9792
C23_8 C 0.8189(7) 0.4109(13) 0.9465(8)
H42_8 H 0.8158 0.3799 0.9182
H43_8 H 0.8183 0.4409 0.9195
C24_8 C 0.8746(6) 0.4402(14) 0.9814(8)
H44_8 H 0.8738 0.4071 0.9828
N8_8 N 0.9286(5) 0.4632(9) 0.9402(6)
H51_8 H 0.927755 0.429322 0.914532
H52_8 H 0.930424 0.494438 0.90881
C3_9 C 0.5827(13) 0.7680(9) 0.0138(12)
H6_9 H 0.5604 0.7588 0.0538
H7_9 H 0.5696 0.8403 0.0091
C5_9 C 0.6692(11) 0.8371(8) 0.0650(8)
H9_9 H 0.6436 0.8316 0.1014
H10_9 H 0.7075 0.8462 0.0819
C6_9 C 0.6757(11) 0.8880(7) 0.0236(8)
H11_9 H 0.7172 0.9152 0.0160
H12_9 H 0.6595 0.9090 0.0466
N1_9 N 0.6442(7) 0.7824(5) 0.0281(6)
Cu4_15 Cu 0.4999 0.5000 -0.0000
C10_9 C 0.3851(28) 0.6195(23) 0.0128(17)
H18_9 H 0.3496 0.6080 0.0248
H19_9 H 0.4053 0.6566 0.0208
C11_9 C 0.4109(13) 0.5921(11) 0.0535(8)
H20_9 H 0.3799 0.5642 0.0818
H21_9 H 0.4409 0.6227 0.0805
C12_9 C 0.4402(14) 0.5657(13) 0.0186(8)
H22_9 H 0.4071 0.5334 0.0172
N4_9 N 0.4632(9) 0.5347(7) 0.0598(6)
I5_9 I 0.37470(6) 0.37184(4) 0.00951(4)
C13_9 C 0.3272(11) 0.2064(8) 0.0332(8)
H23_9 H 0.2859 0.1930 0.0255
H24_9 H 0.3439 0.2434 0.0568
C14_9 C 0.3305(12) 0.1610(9) 0.0741(8)
H25_9 H 0.3560 0.1805 0.1108
H26_9 H 0.2918 0.1326 0.0905
H27_9 H 0.4360 0.2662 0.0143
C16_9 C 0.4139(13) 0.1770(10) 0.0198(11)
H30_9 H 0.4380 0.1899 0.0587
C19_9 C 0.5610(13) 0.4403(12) 0.0455(9)
H35_9 H 0.5280 0.4077 0.0443
C20_9 C 0.5828(11) 0.4120(9) 0.0892(8)
H36_9 H 0.6094 0.4422 0.1190
H37_9 H 0.5505 0.3815 0.1142
C21_9 C 0.6150(18) 0.3850(16) 0.0553(13)
H38_9 H 0.6514 0.4049 0.0665
H39_9 H 0.6012 0.3504 0.0716
N7_9 N 0.5286(9) 0.4690(7) 0.0746(5)
H45_9 H 0.494487 0.56402 0.0911448
H46_9 H 0.429337 0.501599 0.0855177
H49_9 H 0.493202 0.438678 0.101088
H50_9 H 0.556422 0.503316 0.104026
I1_9 I 0.62530(6) 0.62816(4) 0.99049(4)
C1_9 C 0.6728(11) 0.7936(8) 0.9668(8)
H1_9 H 0.7141 0.8070 0.9745
H2_9 H 0.6561 0.7566 0.9432
C2_9 C 0.6695(12) 0.8390(9) 0.9259(8)
H3_9 H 0.6440 0.8195 0.8892
H4_9 H 0.7082 0.8674 0.9095
H5_9 H 0.5640 0.7338 0.9857
C4_9 C 0.5861(13) 0.8230(10) 0.9802(11)
H8_9 H 0.5620 0.8101 0.9413
Cu4_16 Cu 0.4999 0.5000 1.0000
C7_9 C 0.4390(13) 0.5597(12) 0.9545(9)
H13_9 H 0.4720 0.5923 0.9557
C8_9 C 0.4172(11) 0.5880(9) 0.9108(8)
H14_9 H 0.3906 0.5578 0.8810
H15_9 H 0.4495 0.6185 0.8858
C9_9 C 0.3850(18) 0.6150(16) 0.9447(13)
H16_9 H 0.3486 0.5951 0.9335
H17_9 H 0.3988 0.6496 0.9284
N3_9 N 0.4714(9) 0.5310(7) 0.9254(5)
C15_9 C 0.4173(13) 0.2320(9) 0.9862(12)
H28_9 H 0.4396 0.2412 0.9462
H29_9 H 0.4304 0.1597 0.9909
C17_9 C 0.3308(11) 0.1629(8) 0.9350(8)
H31_9 H 0.3564 0.1684 0.8986
H32_9 H 0.2925 0.1538 0.9181
C18_9 C 0.3243(11) 0.1120(7) 0.9764(8)
H33_9 H 0.2828 0.0848 0.9840
H34_9 H 0.3405 0.0910 0.9534
N5_9 N 0.3558(7) 0.2176(5) 0.9719(6)
C22_9 C 0.6149(28) 0.3805(23) 0.9872(17)
H40_9 H 0.6504 0.3920 0.9752
H41_9 H 0.5947 0.3434 0.9792
C23_9 C 0.5891(13) 0.4079(11) 0.9465(8)
H42_9 H 0.6201 0.4358 0.9182
H43_9 H 0.5591 0.3773 0.9195
C24_9 C 0.5598(14) 0.4343(13) 0.9814(8)
H44_9 H 0.5929 0.4666 0.9828
N8_9 N 0.5368(9) 0.4653(7) 0.9402(6)
H47_9 H 0.443594 0.496719 0.895926
H48_9 H 0.506833 0.561335 0.898964
H51_9 H 0.570678 0.498433 0.914532
H52_9 H 0.505562 0.435986 0.90881
loop_
_geom_bond_atom_site_label_1
_geom_bond_atom_site_label_2
_geom_bond_site_symmetry_1
_geom_bond_site_symmetry_2
Cu3 I1 1_555 1_555
I1 Cu1 1_555 1_555
Cu4 I1 1_555 1_555
C7 H13 1_555 1_555
C8 C7 1_555 1_555
H14 C8 1_555 1_555
H15 C8 1_555 1_555
C9 C8 1_555 1_555
H16 C9 1_555 1_555
H17 C9 1_555 1_555
C10 C9 1_555 1_555
H18 C10 1_555 1_555
H19 C10 1_555 1_555
C11 C10 1_555 1_555
H20 C11 1_555 1_555
H21 C11 1_555 1_555
C12 C7 1_555 1_555
H22 C12 1_555 1_555
N3 Cu4 1_555 1_555
N4 Cu4 1_555 1_555
Cu5 Cu6 1_555 1_555
Cu6 I5 1_555 1_555
Cu7 I5 1_555 1_555
I5 Cu4 1_555 1_555
I6 Cu6 1_555 1_555
I7 Cu7 1_555 1_555
I8 Cu5 1_555 1_555
C13 H23 1_555 1_555
H24 C13 1_555 1_555
C14 C13 1_555 1_555
H25 C14 1_555 1_555
H26 C14 1_555 1_555
C15 H27 1_555 1_555
H28 C15 1_555 1_555
C16 C15 1_555 1_555
H29 C16 1_555 1_555
H30 C16 1_555 1_555
C17 H31 1_555 1_555
H32 C17 1_555 1_555
C18 C17 1_555 1_555
H33 C18 1_555 1_555
H34 C18 1_555 1_555
N5 Cu6 1_555 1_555
N6 C14 1_555 1_555
C19 H35 1_555 1_555
C20 C19 1_555 1_555
H36 C20 1_555 1_555
H37 C20 1_555 1_555
C21 C20 1_555 1_555
H38 C21 1_555 1_555
H39 C21 1_555 1_555
C22 C21 1_555 1_555
H40 C22 1_555 1_555
H41 C22 1_555 1_555
C23 C22 1_555 1_555
H42 C23 1_555 1_555
H43 C23 1_555 1_555
C24 C19 1_555 1_555
H44 C24 1_555 1_555
N7 Cu4 1_555 1_555
N8 Cu4 1_555 1_555
Cu8 N6 1_555 1_555
Cu10 Cu7 1_555 1_555
Cu12 Cu3 1_555 1_555
Cu13 Cu7 1_555 1_555
Cu15 Cu5 1_555 1_555
I9 Cu3 1_555 1_555
I10 Cu7 1_555 1_555
I11 Cu1 1_555 1_555
I12 Cu5 1_555 1_555
I13 Cu3 1_555 1_555
I14 Cu7 1_555 1_555
N9 Cu5 1_555 1_555
N10 Cu1 1_555 1_555
C7 N3 1_555 1_555
C11 C12 1_555 1_555
C12 N4 1_555 1_555
Cu5 I5 1_555 1_555
Cu6 I8 1_555 1_555
Cu6 Cu15 1_555 1_555
I6 Cu15 1_555 1_555
I7 Cu10 1_555 1_555
I8 Cu15 1_555 1_555
C13 N5 1_555 1_555
C15 N5 1_555 1_555
C16 N6 1_555 1_555
C17 N5 1_555 1_555
C18 N6 1_555 1_555
C19 N7 1_555 1_555
C23 C24 1_555 1_555
C24 N8 1_555 1_555
Cu10 Cu13 1_555 1_555
Cu10 I14 1_555 1_555
Cu12 I9 1_555 1_555
Cu12 I13 1_555 1_555
Cu13 I10 1_555 1_555
Cu13 I14 1_555 1_555
Cu15 I12 1_555 1_555
N4 H45 1_555 1_555
N4 H46 1_555 1_555
N3 H47 1_555 1_555
N3 H48 1_555 1_555
N7 H49 1_555 1_555
N7 H50 1_555 1_555
N8 H51 1_555 1_555
N8 H52 1_555 1_555
I2 Cu2 1_555 1_555
C1 H1 1_555 1_555
H2 C1 1_555 1_555
C2 C1 1_555 1_555
H3 C2 1_555 1_555
H4 C2 1_555 1_555
C3 H5 1_555 1_555
H6 C3 1_555 1_555
C4 C3 1_555 1_555
H7 C4 1_555 1_555
H8 C4 1_555 1_555
C5 H9 1_555 1_555
H10 C5 1_555 1_555
C6 C5 1_555 1_555
H11 C6 1_555 1_555
H12 C6 1_555 1_555
N1 Cu2 1_555 1_555
N2 C2 1_555 1_555
Cu11 N2 1_555 1_555
Cu2 I4 1_555 1_555
Cu2 Cu14 1_555 1_555
I2 Cu14 1_555 1_555
I3 Cu9 1_555 1_555
I4 Cu14 1_555 1_555
C1 N1 1_555 1_555
C3 N1 1_555 1_555
C4 N2 1_555 1_555
C5 N1 1_555 1_555
C6 N2 1_555 1_555
I8_2 Cu11 1_555 1_555
C13_2 H23_2 1_555 1_555
C14_2 C13_2 1_555 1_555
H26_2 C14_2 1_555 1_555
H32_2 C17_2 1_555 1_555
C18_2 C17_2 1_555 1_555
H33_2 C18_2 1_555 1_555
I7_2 Cu10_2 1_555 1_555
Cu8 Cu2_2 1_555 1_555
Cu2_2 I1_2 1_555 1_555
Cu3_2 I1_2 1_555 1_555
I1_2 Cu8 1_555 1_555
I2_2 Cu2_2 1_555 1_555
I3_2 Cu3_2 1_555 1_555
I4_2 Cu8 1_555 1_555
C1_2 H1_2 1_555 1_555
H2_2 C1_2 1_555 1_555
C2_2 C1_2 1_555 1_555
H3_2 C2_2 1_555 1_555
H4_2 C2_2 1_555 1_555
C3_2 H5_2 1_555 1_555
H6_2 C3_2 1_555 1_555
C4_2 C3_2 1_555 1_555
H7_2 C4_2 1_555 1_555
H8_2 C4_2 1_555 1_555
C5_2 H9_2 1_555 1_555
H10_2 C5_2 1_555 1_555
C6_2 C5_2 1_555 1_555
H11_2 C6_2 1_555 1_555
H12_2 C6_2 1_555 1_555
N1_2 Cu2_2 1_555 1_555
N2_2 C2_2 1_555 1_555
Cu4_2 I1_2 1_555 1_555
C7_2 H13_2 1_555 1_555
C8_2 C7_2 1_555 1_555
H14_2 C8_2 1_555 1_555
H15_2 C8_2 1_555 1_555
C9_2 C8_2 1_555 1_555
H16_2 C9_2 1_555 1_555
H17_2 C9_2 1_555 1_555
C10_2 C9_2 1_555 1_555
H18_2 C10_2 1_555 1_555
H19_2 C10_2 1_555 1_555
C11_2 C10_2 1_555 1_555
H20_2 C11_2 1_555 1_555
H21_2 C11_2 1_555 1_555
C12_2 C7_2 1_555 1_555
H22_2 C12_2 1_555 1_555
N3_2 Cu4_2 1_555 1_555
N4_2 Cu4_2 1_555 1_555
Cu6_2 I5_2 1_555 1_555
Cu7_2 I5_2 1_555 1_555
I5_2 Cu4_2 1_555 1_555
I6_2 Cu6_2 1_555 1_555
C15_2 H27_2 1_555 1_555
H28_2 C15_2 1_555 1_555
C16_2 C15_2 1_555 1_555
H29_2 C16_2 1_555 1_555
H30_2 C16_2 1_555 1_555
N5_2 Cu6_2 1_555 1_555
C19_2 H35_2 1_555 1_555
C20_2 C19_2 1_555 1_555
H36_2 C20_2 1_555 1_555
H37_2 C20_2 1_555 1_555
C21_2 C20_2 1_555 1_555
H38_2 C21_2 1_555 1_555
H39_2 C21_2 1_555 1_555
C22_2 C21_2 1_555 1_555
H40_2 C22_2 1_555 1_555
H41_2 C22_2 1_555 1_555
C23_2 C22_2 1_555 1_555
H42_2 C23_2 1_555 1_555
H43_2 C23_2 1_555 1_555
C24_2 C19_2 1_555 1_555
H44_2 C24_2 1_555 1_555
N7_2 Cu4_2 1_555 1_555
N8_2 Cu4_2 1_555 1_555
Cu8_2 N6_2 1_555 1_555
Cu9_2 Cu3_2 1_555 1_555
Cu11_2 N2_2 1_555 1_555
Cu12_2 Cu3_2 1_555 1_555
Cu13_2 Cu7_2 1_555 1_555
Cu14_2 Cu8 1_555 1_555
I9_2 Cu3_2 1_555 1_555
I10_2 Cu7_2 1_555 1_555
I11_2 Cu8 1_555 1_555
I13_2 Cu3_2 1_555 1_555
I14_2 Cu7_2 1_555 1_555
Cu2_2 I4_2 1_555 1_555
Cu2_2 Cu14_2 1_555 1_555
I2_2 Cu14_2 1_555 1_555
I3_2 Cu9_2 1_555 1_555
I4_2 Cu14_2 1_555 1_555
C1_2 N1_2 1_555 1_555
C3_2 N1_2 1_555 1_555
C4_2 N2_2 1_555 1_555
C5_2 N1_2 1_555 1_555
C6_2 N2_2 1_555 1_555
C7_2 N3_2 1_555 1_555
C11_2 C12_2 1_555 1_555
C12_2 N4_2 1_555 1_555
Cu6_2 Cu15_2 1_555 1_555
I6_2 Cu15_2 1_555 1_555
C15_2 N5_2 1_555 1_555
C16_2 N6_2 1_555 1_555
C19_2 N7_2 1_555 1_555
C23_2 C24_2 1_555 1_555
C24_2 N8_2 1_555 1_555
Cu9_2 Cu12_2 1_555 1_555
Cu9_2 I13_2 1_555 1_555
Cu12_2 I9_2 1_555 1_555
Cu12_2 I13_2 1_555 1_555
Cu13_2 I10_2 1_555 1_555
Cu13_2 I14_2 1_555 1_555
Cu14_2 I11_2 1_555 1_555
Cu15_2 I12_2 1_555 1_555
N4_2 H45_2 1_555 1_555
N4_2 H46_2 1_555 1_555
N3_2 H47_2 1_555 1_555
N3_2 H48_2 1_555 1_555
N7_2 H49_2 1_555 1_555
N7_2 H50_2 1_555 1_555
N8_2 H51_2 1_555 1_555
N8_2 H52_2 1_555 1_555
I2_3 Cu2_3 1_555 1_555
C1_3 H1_3 1_555 1_555
H2_3 C1_3 1_555 1_555
C2_3 C1_3 1_555 1_555
H3_3 C2_3 1_555 1_555
H4_3 C2_3 1_555 1_555
C3_3 H5_3 1_555 1_555
H6_3 C3_3 1_555 1_555
C4_3 C3_3 1_555 1_555
H7_3 C4_3 1_555 1_555
H8_3 C4_3 1_555 1_555
C5_3 H9_3 1_555 1_555
H10_3 C5_3 1_555 1_555
C6_3 C5_3 1_555 1_555
H11_3 C6_3 1_555 1_555
H12_3 C6_3 1_555 1_555
N1_3 Cu2_3 1_555 1_555
N9 C2_3 1_555 1_555
Cu2_3 I4_3 1_555 1_555
Cu2_3 Cu14_3 1_555 1_555
I2_3 Cu14_3 1_555 1_555
I3_3 Cu9_3 1_555 1_555
I4_3 Cu14_3 1_555 1_555
C1_3 N1_3 1_555 1_555
C3_3 N1_3 1_555 1_555
C4_3 N9 1_555 1_555
C5_3 N1_3 1_555 1_555
C6_3 N9 1_555 1_555
Cu3_3 I1_3 1_555 1_555
I1_3 Cu8_2 1_555 1_555
Cu4_3 I1_3 1_555 1_555
C7_3 H13_3 1_555 1_555
C8_3 C7_3 1_555 1_555
H14_3 C8_3 1_555 1_555
H15_3 C8_3 1_555 1_555
C9_3 C8_3 1_555 1_555
H16_3 C9_3 1_555 1_555
H17_3 C9_3 1_555 1_555
C10_3 C9_3 1_555 1_555
H18_3 C10_3 1_555 1_555
H19_3 C10_3 1_555 1_555
C11_3 C10_3 1_555 1_555
H20_3 C11_3 1_555 1_555
H21_3 C11_3 1_555 1_555
C12_3 C7_3 1_555 1_555
H22_3 C12_3 1_555 1_555
N3_3 Cu4_3 1_555 1_555
N4_3 Cu4_3 1_555 1_555
Cu6_3 I5_3 1_555 1_555
Cu7_3 I5_3 1_555 1_555
I5_3 Cu4_3 1_555 1_555
I6_3 Cu6_3 1_555 1_555
C15_3 H27_3 1_555 1_555
H28_3 C15_3 1_555 1_555
C16_3 C15_3 1_555 1_555
H29_3 C16_3 1_555 1_555
H30_3 C16_3 1_555 1_555
N5_3 Cu6_3 1_555 1_555
C19_3 H35_3 1_555 1_555
C20_3 C19_3 1_555 1_555
H36_3 C20_3 1_555 1_555
H37_3 C20_3 1_555 1_555
C21_3 C20_3 1_555 1_555
H38_3 C21_3 1_555 1_555
H39_3 C21_3 1_555 1_555
C22_3 C21_3 1_555 1_555
H40_3 C22_3 1_555 1_555
H41_3 C22_3 1_555 1_555
C23_3 C22_3 1_555 1_555
H42_3 C23_3 1_555 1_555
H43_3 C23_3 1_555 1_555
C24_3 C19_3 1_555 1_555
H44_3 C24_3 1_555 1_555
N7_3 Cu4_3 1_555 1_555
N8_3 Cu4_3 1_555 1_555
Cu12_3 Cu3_3 1_555 1_555
Cu13_3 Cu7_3 1_555 1_555
I9_3 Cu3_3 1_555 1_555
I10_3 Cu7_3 1_555 1_555
I11_3 Cu8_2 1_555 1_555
I13_3 Cu3_3 1_555 1_555
I14_3 Cu7_3 1_555 1_555
C7_3 N3_3 1_555 1_555
C11_3 C12_3 1_555 1_555
C12_3 N4_3 1_555 1_555
Cu6_3 Cu15_3 1_555 1_555
I6_3 Cu15_3 1_555 1_555
C15_3 N5_3 1_555 1_555
C16_3 N10 1_555 1_555
C19_3 N7_3 1_555 1_555
C23_3 C24_3 1_555 1_555
C24_3 N8_3 1_555 1_555
Cu12_3 I9_3 1_555 1_555
Cu12_3 I13_3 1_555 1_555
Cu13_3 I10_3 1_555 1_555
Cu13_3 I14_3 1_555 1_555
Cu15_3 I12_3 1_555 1_555
N4_3 H45_3 1_555 1_555
N4_3 H46_3 1_555 1_555
N3_3 H47_3 1_555 1_555
N3_3 H48_3 1_555 1_555
N7_3 H49_3 1_555 1_555
N7_3 H50_3 1_555 1_555
N8_3 H51_3 1_555 1_555
N8_3 H52_3 1_555 1_555
I8_3 Cu11_2 1_555 1_555
C13_3 H23_3 1_555 1_555
C14_3 C13_3 1_555 1_555
H26_3 C14_3 1_555 1_555
H32_3 C17_3 1_555 1_555
C18_3 C17_3 1_555 1_555
H33_3 C18_3 1_555 1_555
I7_3 Cu10_3 1_555 1_555
C13_4 H23_4 1_555 1_555
H24_4 C13_4 1_555 1_555
C14_4 C13_4 1_555 1_555
H25_4 C14_4 1_555 1_555
H26_4 C14_4 1_555 1_555
C15_4 H27_4 1_555 1_555
H28_4 C15_4 1_555 1_555
C16_4 C15_4 1_555 1_555
H29_4 C16_4 1_555 1_555
H30_4 C16_4 1_555 1_555
C17_4 H31_4 1_555 1_555
H32_4 C17_4 1_555 1_555
C18_4 C17_4 1_555 1_555
H33_4 C18_4 1_555 1_555
H34_4 C18_4 1_555 1_555
N5_4 Cu13_3 1_555 1_555
N6_3 C14_4 1_555 1_555
Cu8_3 N6_3 1_555 1_555
I7_4 Cu10_4 1_555 1_555
C13_4 N5_4 1_555 1_555
C15_4 N5_4 1_555 1_555
C16_4 N6_3 1_555 1_555
C17_4 N5_4 1_555 1_555
C18_4 N6_3 1_555 1_555
Cu1_2 Cu2_4 1_555 1_555
Cu2_4 I1_4 1_555 1_555
Cu14_2 I1_4 1_555 1_555
I1_4 Cu1_2 1_555 1_555
I2_4 Cu2_4 1_555 1_555
I4_4 Cu1_2 1_555 1_555
C1_4 H1_4 1_555 1_555
H2_4 C1_4 1_555 1_555
C2_4 C1_4 1_555 1_555
H3_4 C2_4 1_555 1_555
H4_4 C2_4 1_555 1_555
C3_4 H5_4 1_555 1_555
H6_4 C3_4 1_555 1_555
C4_4 C3_4 1_555 1_555
H7_4 C4_4 1_555 1_555
H8_4 C4_4 1_555 1_555
C5_4 H9_4 1_555 1_555
H10_4 C5_4 1_555 1_555
C6_4 C5_4 1_555 1_555
H11_4 C6_4 1_555 1_555
H12_4 C6_4 1_555 1_555
N1_4 Cu2_4 1_555 1_555
N2_3 C2_4 1_555 1_555
Cu4_4 I1_4 1_555 1_555
C7_4 H13_4 1_555 1_555
C8_4 C7_4 1_555 1_555
H14_4 C8_4 1_555 1_555
H15_4 C8_4 1_555 1_555
C9_4 C8_4 1_555 1_555
H16_4 C9_4 1_555 1_555
H17_4 C9_4 1_555 1_555
C10_4 C9_4 1_555 1_555
H18_4 C10_4 1_555 1_555
H19_4 C10_4 1_555 1_555
C11_4 C10_4 1_555 1_555
H20_4 C11_4 1_555 1_555
H21_4 C11_4 1_555 1_555
C12_4 C7_4 1_555 1_555
H22_4 C12_4 1_555 1_555
N3_4 Cu4_4 1_555 1_555
N4_4 Cu4_4 1_555 1_555
Cu7_4 I5_4 1_555 1_555
I5_4 Cu4_4 1_555 1_555
C19_4 H35_4 1_555 1_555
C20_4 C19_4 1_555 1_555
H36_4 C20_4 1_555 1_555
H37_4 C20_4 1_555 1_555
C21_4 C20_4 1_555 1_555
H38_4 C21_4 1_555 1_555
H39_4 C21_4 1_555 1_555
C22_4 C21_4 1_555 1_555
H40_4 C22_4 1_555 1_555
H41_4 C22_4 1_555 1_555
C23_4 C22_4 1_555 1_555
H42_4 C23_4 1_555 1_555
H43_4 C23_4 1_555 1_555
C24_4 C19_4 1_555 1_555
H44_4 C24_4 1_555 1_555
N7_4 Cu4_4 1_555 1_555
N8_4 Cu4_4 1_555 1_555
Cu10 N2_3 1_555 1_555
Cu13_4 Cu7_4 1_555 1_555
Cu14_4 Cu1_2 1_555 1_555
I10_4 Cu7_4 1_555 1_555
I11_4 Cu1_2 1_555 1_555
I14_4 Cu7_4 1_555 1_555
N9_2 Cu10_3 1_555 1_555
N10_2 Cu1_2 1_555 1_555
Cu2_4 I4_4 1_555 1_555
Cu2_4 Cu14_4 1_555 1_555
I2_4 Cu14_4 1_555 1_555
I4_4 Cu14_4 1_555 1_555
C1_4 N1_4 1_555 1_555
C3_4 N1_4 1_555 1_555
C4_4 N2_3 1_555 1_555
C5_4 N1_4 1_555 1_555
C6_4 N2_3 1_555 1_555
C7_4 N3_4 1_555 1_555
C11_4 C12_4 1_555 1_555
C12_4 N4_4 1_555 1_555
Cu10_3 I5_4 1_555 1_555
C19_4 N7_4 1_555 1_555
C23_4 C24_4 1_555 1_555
C24_4 N8_4 1_555 1_555
Cu13_4 I10_4 1_555 1_555
Cu13_4 I14_4 1_555 1_555
Cu14_4 I11_4 1_555 1_555
N4_4 H45_4 1_555 1_555
N4_4 H46_4 1_555 1_555
N3_4 H47_4 1_555 1_555
N3_4 H48_4 1_555 1_555
N7_4 H49_4 1_555 1_555
N7_4 H50_4 1_555 1_555
N8_4 H51_4 1_555 1_555
N8_4 H52_4 1_555 1_555
Cu2_5 I1_5 1_555 1_555
Cu14_3 I1_5 1_555 1_555
I2_5 Cu2_5 1_555 1_555
C3_5 H5_5 1_555 1_555
H6_5 C3_5 1_555 1_555
C4_5 C3_5 1_555 1_555
H7_5 C4_5 1_555 1_555
H8_5 C4_5 1_555 1_555
N1_5 Cu2_5 1_555 1_555
Cu4_5 I1_5 1_555 1_555
C7_5 H13_5 1_555 1_555
C8_5 C7_5 1_555 1_555
H14_5 C8_5 1_555 1_555
H15_5 C8_5 1_555 1_555
C9_5 C8_5 1_555 1_555
H16_5 C9_5 1_555 1_555
H17_5 C9_5 1_555 1_555
C10_5 C9_5 1_555 1_555
H18_5 C10_5 1_555 1_555
H19_5 C10_5 1_555 1_555
C11_5 C10_5 1_555 1_555
H20_5 C11_5 1_555 1_555
H21_5 C11_5 1_555 1_555
C12_5 C7_5 1_555 1_555
H22_5 C12_5 1_555 1_555
N3_5 Cu4_5 1_555 1_555
N4_5 Cu4_5 1_555 1_555
Cu13 I5_5 1_555 1_555
Cu7_5 I5_5 1_555 1_555
I5_5 Cu4_5 1_555 1_555
I7_5 Cu7_5 1_555 1_555
C13_5 H23_5 1_555 1_555
H24_5 C13_5 1_555 1_555
C14_5 C13_5 1_555 1_555
H25_5 C14_5 1_555 1_555
H26_5 C14_5 1_555 1_555
C15_5 H27_5 1_555 1_555
H28_5 C15_5 1_555 1_555
C16_5 C15_5 1_555 1_555
H29_5 C16_5 1_555 1_555
H30_5 C16_5 1_555 1_555
C17_5 H31_5 1_555 1_555
H32_5 C17_5 1_555 1_555
C18_5 C17_5 1_555 1_555
H33_5 C18_5 1_555 1_555
H34_5 C18_5 1_555 1_555
N5_5 Cu13 1_555 1_555
N6_4 C14_5 1_555 1_555
C19_5 H35_5 1_555 1_555
C20_5 C19_5 1_555 1_555
H36_5 C20_5 1_555 1_555
H37_5 C20_5 1_555 1_555
C21_5 C20_5 1_555 1_555
H38_5 C21_5 1_555 1_555
H39_5 C21_5 1_555 1_555
C22_5 C21_5 1_555 1_555
H40_5 C22_5 1_555 1_555
H41_5 C22_5 1_555 1_555
C23_5 C22_5 1_555 1_555
H42_5 C23_5 1_555 1_555
H43_5 C23_5 1_555 1_555
C24_5 C19_5 1_555 1_555
H44_5 C24_5 1_555 1_555
N7_5 Cu4_5 1_555 1_555
N8_5 Cu4_5 1_555 1_555
Cu8_4 N6_4 1_555 1_555
Cu10_5 Cu7_5 1_555 1_555
Cu10_2 N2_4 1_555 1_555
Cu13_5 Cu7_5 1_555 1_555
I10_5 Cu7_5 1_555 1_555
I14_5 Cu7_5 1_555 1_555
Cu2_5 Cu14_5 1_555 1_555
I2_5 Cu14_5 1_555 1_555
C3_5 N1_5 1_555 1_555
C4_5 N2_4 1_555 1_555
C7_5 N3_5 1_555 1_555
C11_5 C12_5 1_555 1_555
C12_5 N4_5 1_555 1_555
Cu10 I5_5 1_555 1_555
I7_5 Cu10_5 1_555 1_555
C13_5 N5_5 1_555 1_555
C15_5 N5_5 1_555 1_555
C16_5 N6_4 1_555 1_555
C17_5 N5_5 1_555 1_555
C18_5 N6_4 1_555 1_555
C19_5 N7_5 1_555 1_555
C23_5 C24_5 1_555 1_555
C24_5 N8_5 1_555 1_555
Cu10_5 Cu13_5 1_555 1_555
Cu10_5 I14_5 1_555 1_555
Cu13_5 I10_5 1_555 1_555
Cu13_5 I14_5 1_555 1_555
Cu14_5 I11_5 1_555 1_555
N4_5 H45_5 1_555 1_555
N4_5 H46_5 1_555 1_555
N3_5 H47_5 1_555 1_555
N3_5 H48_5 1_555 1_555
N7_5 H49_5 1_555 1_555
N7_5 H50_5 1_555 1_555
N8_5 H51_5 1_555 1_555
N8_5 H52_5 1_555 1_555
I4_5 Cu8_3 1_555 1_555
C1_5 H1_5 1_555 1_555
C2_5 C1_5 1_555 1_555
H4_5 C2_5 1_555 1_555
H10_5 C5_5 1_555 1_555
C6_5 C5_5 1_555 1_555
H11_5 C6_5 1_555 1_555
I4_6 Cu8_4 1_555 1_555
C1_6 H1_6 1_555 1_555
C2_6 C1_6 1_555 1_555
H4_6 C2_6 1_555 1_555
H10_6 C5_6 1_555 1_555
C6_6 C5_6 1_555 1_555
H11_6 C6_6 1_555 1_555
Cu2_6 I1_6 1_555 1_555
Cu14 I1_6 1_555 1_555
I2_6 Cu2_6 1_555 1_555
C3_6 H5_6 1_555 1_555
H6_6 C3_6 1_555 1_555
C4_6 C3_6 1_555 1_555
H7_6 C4_6 1_555 1_555
H8_6 C4_6 1_555 1_555
N1_6 Cu2_6 1_555 1_555
Cu4_6 I1_6 1_555 1_555
C7_6 H13_6 1_555 1_555
C8_6 C7_6 1_555 1_555
H14_6 C8_6 1_555 1_555
H15_6 C8_6 1_555 1_555
C9_6 C8_6 1_555 1_555
H16_6 C9_6 1_555 1_555
H17_6 C9_6 1_555 1_555
C10_6 C9_6 1_555 1_555
H18_6 C10_6 1_555 1_555
H19_6 C10_6 1_555 1_555
C11_6 C10_6 1_555 1_555
H20_6 C11_6 1_555 1_555
H21_6 C11_6 1_555 1_555
C12_6 C7_6 1_555 1_555
H22_6 C12_6 1_555 1_555
N3_6 Cu4_6 1_555 1_555
N4_6 Cu4_6 1_555 1_555
Cu7_6 I5_6 1_555 1_555
I5_6 Cu4_6 1_555 1_555
C19_6 H35_6 1_555 1_555
C20_6 C19_6 1_555 1_555
H36_6 C20_6 1_555 1_555
H37_6 C20_6 1_555 1_555
C21_6 C20_6 1_555 1_555
H38_6 C21_6 1_555 1_555
H39_6 C21_6 1_555 1_555
C22_6 C21_6 1_555 1_555
H40_6 C22_6 1_555 1_555
H41_6 C22_6 1_555 1_555
C23_6 C22_6 1_555 1_555
H42_6 C23_6 1_555 1_555
H43_6 C23_6 1_555 1_555
C24_6 C19_6 1_555 1_555
H44_6 C24_6 1_555 1_555
N7_6 Cu4_6 1_555 1_555
N8_6 Cu4_6 1_555 1_555
Cu13_6 Cu7_6 1_555 1_555
I10_6 Cu7_6 1_555 1_555
I14_6 Cu7_6 1_555 1_555
Cu2_6 Cu14_6 1_555 1_555
I2_6 Cu14_6 1_555 1_555
C3_6 N1_6 1_555 1_555
C4_6 N9_2 1_555 1_555
C7_6 N3_6 1_555 1_555
C11_6 C12_6 1_555 1_555
C12_6 N4_6 1_555 1_555
Cu10_2 I5_6 1_555 1_555
C19_6 N7_6 1_555 1_555
C23_6 C24_6 1_555 1_555
C24_6 N8_6 1_555 1_555
Cu13_6 I10_6 1_555 1_555
Cu13_6 I14_6 1_555 1_555
Cu14_6 I11_6 1_555 1_555
N4_6 H45_6 1_555 1_555
N4_6 H46_6 1_555 1_555
N3_6 H47_6 1_555 1_555
N3_6 H48_6 1_555 1_555
N7_6 H49_6 1_555 1_555
N7_6 H50_6 1_555 1_555
N8_6 H51_6 1_555 1_555
N8_6 H52_6 1_555 1_555
C13_6 H23_6 1_555 1_555
H24_6 C13_6 1_555 1_555
C14_6 C13_6 1_555 1_555
H25_6 C14_6 1_555 1_555
H26_6 C14_6 1_555 1_555
C15_6 H27_6 1_555 1_555
H28_6 C15_6 1_555 1_555
C16_6 C15_6 1_555 1_555
H29_6 C16_6 1_555 1_555
H30_6 C16_6 1_555 1_555
C17_6 H31_6 1_555 1_555
H32_6 C17_6 1_555 1_555
C18_6 C17_6 1_555 1_555
H33_6 C18_6 1_555 1_555
H34_6 C18_6 1_555 1_555
N5_6 Cu13_2 1_555 1_555
N10_2 C14_6 1_555 1_555
I7_6 Cu10_6 1_555 1_555
C13_6 N5_6 1_555 1_555
C15_6 N5_6 1_555 1_555
C16_6 N10_2 1_555 1_555
C17_6 N5_6 1_555 1_555
C18_6 N10_2 1_555 1_555
I5_7 Cu4_7 1_555 1_555
C13_7 H23_7 1_555 1_555
H24_7 C13_7 1_555 1_555
C14_7 C13_7 1_555 1_555
H25_7 C14_7 1_555 1_555
H26_7 C14_7 1_555 1_555
H30_7 C16_7 1_555 1_555
N6_5 C14_7 1_555 1_555
C19_7 H35_7 1_555 1_555
C20_7 C19_7 1_555 1_555
H36_7 C20_7 1_555 1_555
H37_7 C20_7 1_555 1_555
C21_7 C20_7 1_555 1_555
H38_7 C21_7 1_555 1_555
H39_7 C21_7 1_555 1_555
N7_7 Cu4_7 1_555 1_555
Cu9 N6_5 1_555 1_555
N10_3 Cu9_3 1_555 1_555
C16_7 N6_5 1_555 1_555
C19_7 N7_7 1_555 1_555
N7_7 H49_7 1_555 1_555
N7_7 H50_7 1_555 1_555
H28_7 C15_7 1_555 1_555
C17_7 H31_7 1_555 1_555
H32_7 C17_7 1_555 1_555
C18_7 C17_7 1_555 1_555
H33_7 C18_7 1_555 1_555
H34_7 C18_7 1_555 1_555
N5_7 Cu13_6 1_555 1_555
H40_7 C22_7 1_555 1_555
H41_7 C22_7 1_555 1_555
C23_7 C22_7 1_555 1_555
H42_7 C23_7 1_555 1_555
H43_7 C23_7 1_555 1_555
H44_7 C24_7 1_555 1_555
N8_7 Cu4_8 1_555 1_555
C15_7 N5_7 1_555 1_555
C17_7 N5_7 1_555 1_555
C23_7 C24_7 1_555 1_555
C24_7 N8_7 1_555 1_555
N8_7 H51_7 1_555 1_555
N8_7 H52_7 1_555 1_555
H6_7 C3_7 1_555 1_555
C5_7 H9_7 1_555 1_555
H10_7 C5_7 1_555 1_555
C6_7 C5_7 1_555 1_555
H11_7 C6_7 1_555 1_555
H12_7 C6_7 1_555 1_555
N1_7 Cu12_3 1_555 1_555
H18_7 C10_7 1_555 1_555
H19_7 C10_7 1_555 1_555
C11_7 C10_7 1_555 1_555
H20_7 C11_7 1_555 1_555
H21_7 C11_7 1_555 1_555
H22_7 C12_7 1_555 1_555
N4_7 Cu4_9 1_555 1_555
C3_7 N1_7 1_555 1_555
C5_7 N1_7 1_555 1_555
C11_7 C12_7 1_555 1_555
C12_7 N4_7 1_555 1_555
N4_7 H45_7 1_555 1_555
N4_7 H46_7 1_555 1_555
C1_7 H1_7 1_555 1_555
H2_7 C1_7 1_555 1_555
C2_7 C1_7 1_555 1_555
H3_7 C2_7 1_555 1_555
H4_7 C2_7 1_555 1_555
H8_7 C4_7 1_555 1_555
N2_5 C2_7 1_555 1_555
Cu4_10 I1_7 1_555 1_555
C7_7 H13_7 1_555 1_555
C8_7 C7_7 1_555 1_555
H14_7 C8_7 1_555 1_555
H15_7 C8_7 1_555 1_555
C9_7 C8_7 1_555 1_555
H16_7 C9_7 1_555 1_555
H17_7 C9_7 1_555 1_555
N3_7 Cu4_10 1_555 1_555
Cu10_4 N2_5 1_555 1_555
N9_3 Cu10_6 1_555 1_555
C4_7 N2_5 1_555 1_555
C7_7 N3_7 1_555 1_555
N3_7 H47_7 1_555 1_555
N3_7 H48_7 1_555 1_555
H6_8 C3_8 1_555 1_555
C5_8 H9_8 1_555 1_555
H10_8 C5_8 1_555 1_555
C6_8 C5_8 1_555 1_555
H11_8 C6_8 1_555 1_555
H12_8 C6_8 1_555 1_555
N1_8 Cu12 1_555 1_555
H18_8 C10_8 1_555 1_555
H19_8 C10_8 1_555 1_555
C11_8 C10_8 1_555 1_555
H20_8 C11_8 1_555 1_555
H21_8 C11_8 1_555 1_555
H22_8 C12_8 1_555 1_555
N4_8 Cu4_11 1_555 1_555
C3_8 N1_8 1_555 1_555
C5_8 N1_8 1_555 1_555
C11_8 C12_8 1_555 1_555
C12_8 N4_8 1_555 1_555
N4_8 H45_8 1_555 1_555
N4_8 H46_8 1_555 1_555
C1_8 H1_8 1_555 1_555
H2_8 C1_8 1_555 1_555
C2_8 C1_8 1_555 1_555
H3_8 C2_8 1_555 1_555
H4_8 C2_8 1_555 1_555
H8_8 C4_8 1_555 1_555
N2_6 C2_8 1_555 1_555
Cu4_12 I1_8 1_555 1_555
C7_8 H13_8 1_555 1_555
C8_8 C7_8 1_555 1_555
H14_8 C8_8 1_555 1_555
H15_8 C8_8 1_555 1_555
C9_8 C8_8 1_555 1_555
H16_8 C9_8 1_555 1_555
H17_8 C9_8 1_555 1_555
N3_8 Cu4_12 1_555 1_555
Cu10_5 N2_6 1_555 1_555
C4_8 N2_6 1_555 1_555
C7_8 N3_8 1_555 1_555
N3_8 H47_8 1_555 1_555
N3_8 H48_8 1_555 1_555
I5_8 Cu4_13 1_555 1_555
C13_8 H23_8 1_555 1_555
H24_8 C13_8 1_555 1_555
C14_8 C13_8 1_555 1_555
H25_8 C14_8 1_555 1_555
H26_8 C14_8 1_555 1_555
H30_8 C16_8 1_555 1_555
N6_6 C14_8 1_555 1_555
C19_8 H35_8 1_555 1_555
C20_8 C19_8 1_555 1_555
H36_8 C20_8 1_555 1_555
H37_8 C20_8 1_555 1_555
C21_8 C20_8 1_555 1_555
H38_8 C21_8 1_555 1_555
H39_8 C21_8 1_555 1_555
N7_8 Cu4_13 1_555 1_555
Cu9_2 N6_6 1_555 1_555
C16_8 N6_6 1_555 1_555
C19_8 N7_8 1_555 1_555
N7_8 H49_8 1_555 1_555
N7_8 H50_8 1_555 1_555
H28_8 C15_8 1_555 1_555
C17_8 H31_8 1_555 1_555
H32_8 C17_8 1_555 1_555
C18_8 C17_8 1_555 1_555
H33_8 C18_8 1_555 1_555
H34_8 C18_8 1_555 1_555
N5_8 Cu13_4 1_555 1_555
H40_8 C22_8 1_555 1_555
H41_8 C22_8 1_555 1_555
C23_8 C22_8 1_555 1_555
H42_8 C23_8 1_555 1_555
H43_8 C23_8 1_555 1_555
H44_8 C24_8 1_555 1_555
N8_8 Cu4_14 1_555 1_555
C15_8 N5_8 1_555 1_555
C17_8 N5_8 1_555 1_555
C23_8 C24_8 1_555 1_555
C24_8 N8_8 1_555 1_555
N8_8 H51_8 1_555 1_555
N8_8 H52_8 1_555 1_555
H6_9 C3_9 1_555 1_555
C5_9 H9_9 1_555 1_555
H10_9 C5_9 1_555 1_555
C6_9 C5_9 1_555 1_555
H11_9 C6_9 1_555 1_555
H12_9 C6_9 1_555 1_555
N1_9 Cu12_2 1_555 1_555
H18_9 C10_9 1_555 1_555
H19_9 C10_9 1_555 1_555
C11_9 C10_9 1_555 1_555
H20_9 C11_9 1_555 1_555
H21_9 C11_9 1_555 1_555
H22_9 C12_9 1_555 1_555
N4_9 Cu4_15 1_555 1_555
Cu15 I5_9 1_555 1_555
I5_9 Cu4_15 1_555 1_555
C13_9 H23_9 1_555 1_555
H24_9 C13_9 1_555 1_555
C14_9 C13_9 1_555 1_555
H25_9 C14_9 1_555 1_555
H26_9 C14_9 1_555 1_555
H30_9 C16_9 1_555 1_555
N10_3 C14_9 1_555 1_555
C19_9 H35_9 1_555 1_555
C20_9 C19_9 1_555 1_555
H36_9 C20_9 1_555 1_555
H37_9 C20_9 1_555 1_555
C21_9 C20_9 1_555 1_555
H38_9 C21_9 1_555 1_555
H39_9 C21_9 1_555 1_555
N7_9 Cu4_15 1_555 1_555
C3_9 N1_9 1_555 1_555
C5_9 N1_9 1_555 1_555
C11_9 C12_9 1_555 1_555
C12_9 N4_9 1_555 1_555
C16_9 N10_3 1_555 1_555
C19_9 N7_9 1_555 1_555
N4_9 H45_9 1_555 1_555
N4_9 H46_9 1_555 1_555
N7_9 H49_9 1_555 1_555
N7_9 H50_9 1_555 1_555
Cu14_4 I1_9 1_555 1_555
C1_9 H1_9 1_555 1_555
H2_9 C1_9 1_555 1_555
C2_9 C1_9 1_555 1_555
H3_9 C2_9 1_555 1_555
H4_9 C2_9 1_555 1_555
H8_9 C4_9 1_555 1_555
N9_3 C2_9 1_555 1_555
Cu4_16 I1_9 1_555 1_555
C7_9 H13_9 1_555 1_555
C8_9 C7_9 1_555 1_555
H14_9 C8_9 1_555 1_555
H15_9 C8_9 1_555 1_555
C9_9 C8_9 1_555 1_555
H16_9 C9_9 1_555 1_555
H17_9 C9_9 1_555 1_555
N3_9 Cu4_16 1_555 1_555
H28_9 C15_9 1_555 1_555
C17_9 H31_9 1_555 1_555
H32_9 C17_9 1_555 1_555
C18_9 C17_9 1_555 1_555
H33_9 C18_9 1_555 1_555
H34_9 C18_9 1_555 1_555
N5_9 Cu13_5 1_555 1_555
H40_9 C22_9 1_555 1_555
H41_9 C22_9 1_555 1_555
C23_9 C22_9 1_555 1_555
H42_9 C23_9 1_555 1_555
H43_9 C23_9 1_555 1_555
H44_9 C24_9 1_555 1_555
N8_9 Cu4_16 1_555 1_555
C4_9 N9_3 1_555 1_555
C7_9 N3_9 1_555 1_555
C15_9 N5_9 1_555 1_555
C17_9 N5_9 1_555 1_555
C23_9 C24_9 1_555 1_555
C24_9 N8_9 1_555 1_555
N3_9 H47_9 1_555 1_555
N3_9 H48_9 1_555 1_555
N8_9 H51_9 1_555 1_555
N8_9 H52_9 1_555 1_555

#END
