
###############################################################################
#
# This file contains modified crystal structure data generated from the
# MOF subset of the Cambridge Structural Database (CSD) v543 
# hosted by the Cambridge Crystallographic Data Centre (CCDC).
#
# This work is licensed under the Creative Commons
# Attribution-NonCommercial-ShareAlike 4.0 International License.
# To view a copy of this license, visit
# http://creativecommons.org/licenses/by-nc-sa/4.0/
# or send a letter to
# Creative Commons, PO Box 1866, Mountain View, CA 94042, USA.
#
# CIF created using the CSD Python API on 29 September 2022
# The structure has been converted into the P1 space group
# The structure has a 3D framework
# The original CSD entry IGIZUW is in the monoclinic crystal system
# The framework has been calculated to contain at least 10.0% void space
# The void calculation uses a probe of radius 1.32A, grid spacing 0.4
# The framework is charged, counterions have been retained in the structure
# H atom positions have been added when not included in the experimental data
#
###############################################################################

data_IGIZUW
_chemical_formula_moiety         '(C96 H88 Cu2 N16 O116 Si2 Tb4 W24)n'
_symmetry_cell_setting           triclinic
_symmetry_space_group_name_H-M   'P 1'
_symmetry_Int_Tables_number      1
_space_group_name_Hall           'P 1'
loop_
_symmetry_equiv_pos_site_id
_symmetry_equiv_pos_as_xyz
1 x,y,z
_cell_length_a                   12.540(3)
_cell_length_b                   24.508(5)
_cell_length_c                   15.255(3)
_cell_angle_alpha                90
_cell_angle_beta                 92.448(4)
_cell_angle_gamma                90
_cell_volume                     4684.05
loop_
_atom_site_label
_atom_site_type_symbol
_atom_site_fract_x
_atom_site_fract_y
_atom_site_fract_z
Cu3 Cu 0.5287(2) 0.750000 0.0296(2)
W1 W 0.57051(9) 0.750000 0.76165(7)
W2 W 0.75471(6) 0.81891(3) 0.65275(5)
W3 W 0.35598(6) 0.82536(3) 0.64174(5)
W4 W 0.34412(6) 0.82539(3) 0.42163(5)
W5 W 0.74490(6) 0.81907(3) 0.41157(5)
W6 W 0.54167(6) 0.89378(3) 0.53177(5)
W7 W 0.54756(9) 0.750000 0.30431(7)
Tb1 Tb 0.02813(7) 0.48181(3) 0.12831(5)
Si1 Si 0.5486(5) 0.750000 0.5328(4)
O2 O 0.1426(11) 0.5486(5) 0.0748(8)
O3 O 0.6812(10) 0.8038(5) 0.7586(8)
O6 O 0.4760(10) 0.6953(5) 0.5306(8)
O7 O 0.6278(14) 0.750000 0.6186(11)
O8 O 0.6206(14) 0.750000 0.4489(11)
O9 O 0.5201(14) 0.750000 0.1918(10)
O10 O 0.3071(16) 0.750000 0.4282(12)
O11 O 0.4701(10) 0.6975(5) 0.7218(8)
O12 O 0.4508(10) 0.8065(5) 0.3438(8)
O13 O 0.6584(10) 0.8050(5) 0.3079(8)
O14 O 0.3197(16) 0.750000 0.6375(13)
O15 O 0.6361(10) 0.8671(5) 0.4470(8)
O16 O 0.6422(10) 0.8663(5) 0.6173(8)
O17 O 0.1797(11) 0.5241(6) 0.2570(9)
O18 O 0.2784(11) 0.8365(6) 0.5318(9)
O19 O 0.4268(11) 0.8909(5) 0.4452(8)
O21 O 0.7845(10) 0.8142(5) 0.5328(8)
O22 O 0.2030(11) 0.4540(6) 0.1725(9)
O23 O 0.2700(11) 0.8519(5) 0.7132(9)
O24 O 0.0356(12) 0.3845(5) 0.1536(10)
O25 O 0.8359(12) 0.8641(6) 0.3724(9)
O26 O 0.8139(15) 0.750000 0.3966(12)
O27 O 0.5684(11) 0.9614(5) 0.5357(9)
O28 O 0.8494(11) 0.8623(5) 0.6927(8)
O29 O 0.8243(14) 0.750000 0.6716(11)
O30 O 0.4329(11) 0.8904(5) 0.6189(8)
O31 O 0.2495(11) 0.8515(5) 0.3513(9)
C2 C 0.1694(16) 0.5693(8) 0.0017(13)
C3 C 0.2399(18) 0.4910(9) 0.2219(14)
C5 C 0.3006(10) 0.6277(5) 0.0880(8)
H1 H 0.276313 0.611906 0.138827
C6 C 0.2597(10) 0.6114(5) 0.0079(8)
N1 N 0.4131(9) 0.6905(4) 0.0188(7)
C9 C 0.3774(10) 0.6673(5) 0.0935(7)
H4 H 0.405256 0.678427 0.148057
C10 C 0.4056(11) 0.5371(5) 0.2731(9)
H5 H 0.363248 0.566242 0.289593
C11 C 0.3601(10) 0.4921(6) 0.2386(9)
C12 C 0.4210(11) 0.4502(5) 0.2149(9)
H6 H 0.389484 0.418958 0.190922
C13 C 0.5274(10) 0.4533(5) 0.2257(9)
H7 H 0.569679 0.424192 0.209241
N2 N 0.5728(10) 0.4983(5) 0.2602(8)
H8 H 0.641138 0.500321 0.267098
C14 C 0.5119(10) 0.5402(5) 0.2839(8)
H9 H 0.543471 0.571501 0.307844
C15 C 0.2292(11) 0.3669(4) 0.0178(8)
H10 H 0.198454 0.381012 0.067347
C16 C 0.3062(12) 0.3298(4) 0.0263(8)
H11 H 0.327842 0.318608 0.082572
H14 H 0.004724 0.410017 0.553303
H15 H 0.005009 0.426803 0.405275
O33 O 0.5485(15) 0.750000 0.8733(11)
O34 O 0.4760(10) 0.8047(5) 0.5306(8)
W8 W 0.75471(6) 0.68109(3) 0.65275(5)
W9 W 0.35598(6) 0.67464(3) 0.64174(5)
W10 W 0.34412(6) 0.67461(3) 0.42163(5)
W11 W 0.74490(6) 0.68093(3) 0.41157(5)
W12 W 0.54167(6) 0.60622(3) 0.53177(5)
O44 O 0.6812(10) 0.6962(5) 0.7586(8)
O45 O 0.4508(10) 0.6935(5) 0.3438(8)
O46 O 0.6584(10) 0.6950(5) 0.3079(8)
O47 O 0.6361(10) 0.6329(5) 0.4470(8)
O48 O 0.6422(10) 0.6337(5) 0.6173(8)
O49 O 0.2784(11) 0.6635(6) 0.5318(9)
O50 O 0.4268(11) 0.6091(5) 0.4452(8)
O51 O 0.7845(10) 0.6858(5) 0.5328(8)
O52 O 0.2700(11) 0.6481(5) 0.7132(9)
O53 O 0.8359(12) 0.6359(6) 0.3724(9)
O54 O 0.5684(11) 0.5386(5) 0.5357(9)
O55 O 0.8494(11) 0.6377(5) 0.6927(8)
O56 O 0.4329(11) 0.6096(5) 0.6189(8)
O57 O 0.2495(11) 0.6485(5) 0.3513(9)
O58 O 0.4701(10) 0.8025(5) 0.7218(8)
N9 N 0.4131(9) 0.8095(4) 0.0188(7)
N10 N 0.6449(12) 0.8073(6) 0.0430(10)
N11 N 0.6449(12) 0.6927(6) 0.0430(10)
H37 H 0.0954996 0.37604 0.196106
O1 O 0.1303(11) 0.5561(5) 0.9279(8)
O4 O 0.0687(11) 0.4349(6) 0.8483(9)
O5 O 0.0736(11) 0.4516(5) 0.9891(9)
C1 C 0.1067(15) 0.4249(8) 0.9258(14)
C7 C 0.2953(10) 0.6346(5) 0.9332(7)
H2 H 0.267390 0.623481 0.878650
C8 C 0.3721(9) 0.6742(5) 0.9387(7)
H3 H 0.396376 0.689957 0.887813
N3 N 0.3551(12) 0.3073(6) 0.9570(10)
C17 C 0.3171(11) 0.3265(5) 0.8762(9)
H12 H 0.346762 0.312883 0.825816
C18 C 0.2402(11) 0.3637(4) 0.8676(7)
H13 H 0.217106 0.375533 0.812118
C19 C 0.1963(8) 0.3839(4) 0.9384(9)
O40 O 0.0458(11) 0.5286(6) 0.7359(9)
O43 O 0.2171(12) 0.5043(7) 0.7376(9)
C28 C 0.1346(19) 0.5209(9) 0.7025(14)
C44 C 0.0510(11) 0.5705(6) 0.4740(8)
C45 C 0.0509(11) 0.5605(6) 0.5621(9)
C46 C 0.1327(11) 0.5320(6) 0.6022(8)
C47 C 0.2148(11) 0.5134(6) 0.5542(9)
H34 H 0.270503 0.493865 0.581534
C48 C 0.2150(11) 0.5234(6) 0.4662(8)
H35 H 0.270870 0.510803 0.433559
N8 N 0.1331(11) 0.5520(6) 0.4261(8)
H36 H 0.133254 0.558296 0.370617
Cu5 Cu 0.4713(2) 0.250000 0.9704(2)
H39 H 0.0240213 0.626489 0.809406
O20 O 0.9542(11) 0.4714(6) 0.2641(9)
O32 O 0.7829(12) 0.4957(7) 0.2624(9)
C4 C 0.8654(19) 0.4791(9) 0.2975(14)
C20 C 0.9490(11) 0.4295(6) 0.5260(8)
C21 C 0.9491(11) 0.4395(6) 0.4379(9)
C22 C 0.8673(11) 0.4680(6) 0.3978(8)
C23 C 0.7852(11) 0.4866(6) 0.4458(9)
H16 H 0.729497 0.506135 0.418466
C24 C 0.7850(11) 0.4766(6) 0.5338(8)
H17 H 0.729130 0.489197 0.566441
N4 N 0.8669(11) 0.4480(6) 0.5739(8)
H18 H 0.866746 0.441704 0.629383
O35 O 0.8697(11) 0.4439(5) 0.0721(8)
O37 O 0.9313(11) 0.5651(6) 0.1517(9)
O38 O 0.9264(11) 0.5484(5) 0.0109(9)
C25 C 0.8933(15) 0.5751(8) 0.0742(14)
C31 C 0.7047(10) 0.3654(5) 0.0668(7)
H20 H 0.732610 0.376519 0.121350
C32 C 0.6279(9) 0.3258(5) 0.0613(7)
H21 H 0.603624 0.310043 0.112187
C41 C 0.6829(11) 0.6735(5) 0.1238(9)
H30 H 0.653238 0.687117 0.174184
C42 C 0.7598(11) 0.6363(4) 0.1324(7)
H31 H 0.782894 0.624467 0.187882
C43 C 0.8037(8) 0.6161(4) 0.0616(9)
H38 H 0.967412 0.372087 0.177726
Tb2 Tb 0.97187(7) 0.51819(3) 0.87169(5)
O36 O 0.8574(11) 0.4514(5) 0.9252(8)
O39 O 0.8203(11) 0.4759(6) 0.7430(9)
O41 O 0.7970(11) 0.5460(6) 0.8275(9)
O42 O 0.9644(12) 0.6155(5) 0.8464(10)
C26 C 0.8306(16) 0.4307(8) 0.9983(13)
C27 C 0.7601(18) 0.5090(9) 0.7781(14)
C29 C 0.6994(10) 0.3723(5) 0.9120(8)
H19 H 0.723687 0.388094 0.861173
C30 C 0.7403(10) 0.3886(5) 0.9921(8)
N5 N 0.5869(9) 0.3095(4) 0.9812(7)
C33 C 0.6226(10) 0.3327(5) 0.9065(7)
H22 H 0.594744 0.321573 0.851943
C34 C 0.5944(11) 0.4629(5) 0.7269(9)
H23 H 0.636752 0.433758 0.710407
C35 C 0.6399(10) 0.5079(6) 0.7614(9)
C36 C 0.5790(11) 0.5498(5) 0.7851(9)
H24 H 0.610516 0.581042 0.809078
C37 C 0.4726(10) 0.5467(5) 0.7743(9)
H25 H 0.430321 0.575808 0.790759
N6 N 0.4272(10) 0.5017(5) 0.7398(8)
H26 H 0.358862 0.499679 0.732902
C38 C 0.4881(10) 0.4598(5) 0.7161(8)
H27 H 0.456529 0.428499 0.692156
C39 C 0.7708(11) 0.6331(4) 0.9822(8)
H28 H 0.801546 0.618988 0.932653
C40 C 0.6938(12) 0.6702(4) 0.9737(8)
H29 H 0.672158 0.681392 0.917428
H32 H 0.995276 0.589983 0.446697
H33 H 0.994991 0.573197 0.594725
H40 H 0.895327 0.625009 0.815945
H16_2 H 0.270503 0.006135 0.581534
O37_2 O 0.0687(11) 0.0651(6) 0.8483(9)
O38_2 O 0.0736(11) 0.0484(5) 0.9891(9)
C25_2 C 0.1067(15) 0.0751(8) 0.9258(14)
N7 N 0.3551(12) 0.1927(6) 0.9570(10)
C41_2 C 0.3171(11) 0.1735(5) 0.8762(9)
H30_2 H 0.346762 0.187117 0.825816
C42_2 C 0.2402(11) 0.1363(4) 0.8676(7)
H31_2 H 0.217106 0.124467 0.812118
C43_2 C 0.1963(8) 0.1161(4) 0.9384(9)
O36_2 O 0.1426(11) 0.9514(5) 0.0748(8)
O39_2 O 0.1797(11) 0.9759(6) 0.2570(9)
C26_2 C 0.1694(16) 0.9307(8) 0.0017(13)
C29_2 C 0.3006(10) 0.8723(5) 0.0880(8)
H19_2 H 0.276313 0.888094 0.138827
C30_2 C 0.2597(10) 0.8886(5) 0.0079(8)
C33_2 C 0.3774(10) 0.8327(5) 0.0935(7)
H22_2 H 0.405256 0.821573 0.148057
C34_2 C 0.4056(11) 0.9629(5) 0.2731(9)
H23_2 H 0.363248 0.933758 0.289593
H26_2 H 0.641138 0.999679 0.267098
C38_2 C 0.5119(10) 0.9598(5) 0.2839(8)
H27_2 H 0.543471 0.928499 0.307844
O20_2 O 0.0458(11) 0.9714(6) 0.7359(9)
O32_2 O 0.2171(12) 0.9957(7) 0.7376(9)
C4_2 C 0.1346(19) 0.9791(9) 0.7025(14)
C20_2 C 0.0510(11) 0.9295(6) 0.4740(8)
C21_2 C 0.0509(11) 0.9395(6) 0.5621(9)
C22_2 C 0.1327(11) 0.9680(6) 0.6022(8)
C23_2 C 0.2148(11) 0.9866(6) 0.5542(9)
C24_2 C 0.2150(11) 0.9766(6) 0.4662(8)
H17_2 H 0.270870 0.989197 0.433559
N4_2 N 0.1331(11) 0.9480(6) 0.4261(8)
H18_2 H 0.133254 0.941704 0.370617
O35_2 O 0.1303(11) 0.9439(5) 0.9279(8)
C31_2 C 0.2953(10) 0.8654(5) 0.9332(7)
H20_2 H 0.267390 0.876519 0.878650
C32_2 C 0.3721(9) 0.8258(5) 0.9387(7)
H21_2 H 0.396376 0.810043 0.887813
H38_2 H 0.032588 0.872087 0.822274
O1_2 O 0.8697(11) 0.0561(5) 0.0721(8)
C7_2 C 0.7047(10) 0.1346(5) 0.0668(7)
H2_2 H 0.732610 0.123481 0.121350
C8_2 C 0.6279(9) 0.1742(5) 0.0613(7)
H3_2 H 0.603624 0.189957 0.112187
O40_2 O 0.9542(11) 0.0286(6) 0.2641(9)
O43_2 O 0.7829(12) 0.0043(7) 0.2624(9)
C28_2 C 0.8654(19) 0.0209(9) 0.2975(14)
C44_2 C 0.9490(11) 0.0705(6) 0.5260(8)
C45_2 C 0.9491(11) 0.0605(6) 0.4379(9)
C46_2 C 0.8673(11) 0.0320(6) 0.3978(8)
C47_2 C 0.7852(11) 0.0134(6) 0.4458(9)
C48_2 C 0.7850(11) 0.0234(6) 0.5338(8)
H35_2 H 0.729130 0.010803 0.566441
N8_2 N 0.8669(11) 0.0520(6) 0.5739(8)
H36_2 H 0.866746 0.058296 0.629383
O59 O 0.4515(15) 0.250000 0.1267(11)
H39_2 H 0.975979 0.126489 0.190594
W1_2 W 0.42949(9) 0.250000 0.23835(7)
W2_2 W 0.24529(6) 0.31891(3) 0.34725(5)
W3_2 W 0.64402(6) 0.32536(3) 0.35826(5)
W4_2 W 0.65588(6) 0.32539(3) 0.57837(5)
W5_2 W 0.25510(6) 0.31907(3) 0.58843(5)
W6_2 W 0.45833(6) 0.39378(3) 0.46823(5)
W7_2 W 0.45244(9) 0.250000 0.69569(7)
Si1_2 Si 0.4514(5) 0.250000 0.4672(4)
O2_2 O 0.8574(11) 0.0486(5) 0.9252(8)
O3_2 O 0.3188(10) 0.3038(5) 0.2414(8)
O6_2 O 0.5240(10) 0.1953(5) 0.4694(8)
O7_2 O 0.3722(14) 0.250000 0.3814(11)
O8_2 O 0.3794(14) 0.250000 0.5511(11)
O9_2 O 0.4799(14) 0.250000 0.8082(10)
O10_2 O 0.6929(16) 0.250000 0.5718(12)
O11_2 O 0.5299(10) 0.1975(5) 0.2782(8)
O12_2 O 0.5492(10) 0.3065(5) 0.6562(8)
O13_2 O 0.3416(10) 0.3050(5) 0.6921(8)
O14_2 O 0.6803(16) 0.250000 0.3625(13)
O15_2 O 0.3639(10) 0.3671(5) 0.5530(8)
O16_2 O 0.3578(10) 0.3663(5) 0.3827(8)
O17_2 O 0.8203(11) 0.0241(6) 0.7430(9)
O18_2 O 0.7216(11) 0.3365(6) 0.4682(9)
O19_2 O 0.5732(11) 0.3909(5) 0.5548(8)
O21_2 O 0.2155(10) 0.3142(5) 0.4672(8)
O23_2 O 0.7300(11) 0.3519(5) 0.2868(9)
O25_2 O 0.1641(12) 0.3641(6) 0.6276(9)
O26_2 O 0.1861(15) 0.250000 0.6034(12)
O27_2 O 0.4316(11) 0.4614(5) 0.4643(9)
O28_2 O 0.1506(11) 0.3623(5) 0.3073(8)
O29_2 O 0.1757(14) 0.250000 0.3284(11)
O30_2 O 0.5671(11) 0.3904(5) 0.3811(8)
O31_2 O 0.7505(11) 0.3515(5) 0.6487(9)
C2_2 C 0.8306(16) 0.0693(8) 0.9983(13)
C5_2 C 0.6994(10) 0.1277(5) 0.9120(8)
H1_2 H 0.723687 0.111906 0.861173
C6_2 C 0.7403(10) 0.1114(5) 0.9921(8)
N1_2 N 0.5869(9) 0.1905(4) 0.9812(7)
C9_2 C 0.6226(10) 0.1673(5) 0.9065(7)
H4_2 H 0.594744 0.178427 0.851943
C10_2 C 0.5944(11) 0.0371(5) 0.7269(9)
H5_2 H 0.636752 0.066242 0.710407
H8_2 H 0.358862 0.000321 0.732902
C14_2 C 0.4881(10) 0.0402(5) 0.7161(8)
H9_2 H 0.456529 0.071501 0.692156
O34_2 O 0.5240(10) 0.3047(5) 0.4694(8)
W8_2 W 0.24529(6) 0.18109(3) 0.34725(5)
W9_2 W 0.64402(6) 0.17464(3) 0.35826(5)
W10_2 W 0.65588(6) 0.17461(3) 0.57837(5)
W11_2 W 0.25510(6) 0.18093(3) 0.58843(5)
W12_2 W 0.45833(6) 0.10622(3) 0.46823(5)
O44_2 O 0.3188(10) 0.1962(5) 0.2414(8)
O45_2 O 0.5492(10) 0.1935(5) 0.6562(8)
O46_2 O 0.3416(10) 0.1950(5) 0.6921(8)
O47_2 O 0.3639(10) 0.1329(5) 0.5530(8)
O48_2 O 0.3578(10) 0.1337(5) 0.3827(8)
O49_2 O 0.7216(11) 0.1635(6) 0.4682(9)
O50_2 O 0.5732(11) 0.1091(5) 0.5548(8)
O51_2 O 0.2155(10) 0.1858(5) 0.4672(8)
O52_2 O 0.7300(11) 0.1481(5) 0.2868(9)
O53_2 O 0.1641(12) 0.1359(6) 0.6276(9)
O54_2 O 0.4316(11) 0.0386(5) 0.4643(9)
O55_2 O 0.1506(11) 0.1377(5) 0.3073(8)
O56_2 O 0.5671(11) 0.1096(5) 0.3811(8)
O57_2 O 0.7505(11) 0.1485(5) 0.6487(9)
O58_2 O 0.5299(10) 0.3025(5) 0.2782(8)
O4_2 O 0.9313(11) 0.9349(6) 0.1517(9)
O5_2 O 0.9264(11) 0.9516(5) 0.0109(9)
C1_2 C 0.8933(15) 0.9249(8) 0.0742(14)
C17_2 C 0.6829(11) 0.8265(5) 0.1238(9)
H12_2 H 0.653238 0.812883 0.174184
C18_2 C 0.7598(11) 0.8637(4) 0.1324(7)
H13_2 H 0.782894 0.875533 0.187882
C19_2 C 0.8037(8) 0.8839(4) 0.0616(9)
H34_2 H 0.729497 0.993865 0.418466
H40_2 H 0.104673 0.374991 0.184055
H38_3 H 0.032588 0.627913 0.822274
H39_3 H 0.975979 0.373511 0.190594
H37_2 H 0.9045 0.62396 0.803894
H39_4 H 0.0240213 0.873511 0.809406
H38_4 H 0.967412 0.127913 0.177726
Tb2_2 Tb 0.02813(7) 0.01819(3) 0.12831(5)
O41_2 O 0.2030(11) 0.0460(6) 0.1725(9)
O42_2 O 0.0356(12) 0.1155(5) 0.1536(10)
C27_2 C 0.2399(18) 0.0090(9) 0.2219(14)
C35_2 C 0.3601(10) 0.0079(6) 0.2386(9)
C36_2 C 0.4210(11) 0.0498(5) 0.2149(9)
H24_2 H 0.389484 0.081042 0.190922
C37_2 C 0.5274(10) 0.0467(5) 0.2257(9)
H25_2 H 0.569679 0.075808 0.209241
N6_2 N 0.5728(10) 0.0017(5) 0.2602(8)
C39_2 C 0.2292(11) 0.1331(4) 0.0178(8)
H28_2 H 0.198454 0.118988 0.067347
C40_2 C 0.3062(12) 0.1702(4) 0.0263(8)
H29_2 H 0.327842 0.181392 0.082572
H32_2 H 0.004724 0.089983 0.553303
H33_2 H 0.005009 0.073197 0.405275
H40_3 H 0.104673 0.125009 0.184055
H37_3 H 0.0954996 0.12396 0.196106
Tb1_2 Tb 0.97187(7) 0.98181(3) 0.87169(5)
O22_2 O 0.7970(11) 0.9540(6) 0.8275(9)
O24_2 O 0.9644(12) 0.8845(5) 0.8464(10)
C3_2 C 0.7601(18) 0.9910(9) 0.7781(14)
C11_2 C 0.6399(10) 0.9921(6) 0.7614(9)
C12_2 C 0.5790(11) 0.9502(5) 0.7851(9)
H6_2 H 0.610516 0.918958 0.809078
C13_2 C 0.4726(10) 0.9533(5) 0.7743(9)
H7_2 H 0.430321 0.924192 0.790759
N2_2 N 0.4272(10) 0.9983(5) 0.7398(8)
C15_2 C 0.7708(11) 0.8669(4) 0.9822(8)
H10_2 H 0.801546 0.881012 0.932653
C16_2 C 0.6938(12) 0.8298(4) 0.9737(8)
H11_2 H 0.672158 0.818608 0.917428
H14_2 H 0.995276 0.910017 0.446697
H15_2 H 0.994991 0.926803 0.594725
H37_4 H 0.9045 0.87604 0.803894
H40_4 H 0.895327 0.874991 0.815945
loop_
_geom_bond_atom_site_label_1
_geom_bond_atom_site_label_2
_geom_bond_site_symmetry_1
_geom_bond_site_symmetry_2
W1 O3 1_555 1_555
W2 O3 1_555 1_555
W3 O14 1_555 1_555
W4 O10 1_555 1_555
W5 O8 1_555 1_555
W6 O15 1_555 1_555
W7 O8 1_555 1_555
Tb1 O2 1_555 1_555
Cu3 O9 1_555 1_555
Si1 O6 1_555 1_555
O2 C2 1_555 1_555
O6 W9 1_555 1_555
O7 W1 1_555 1_555
O8 Si1 1_555 1_555
O9 W7 1_555 1_555
O10 W10 1_555 1_555
O11 W1 1_555 1_555
O12 W4 1_555 1_555
O13 W5 1_555 1_555
O14 W9 1_555 1_555
O15 W5 1_555 1_555
O16 W2 1_555 1_555
O17 Tb1 1_555 1_555
O18 W3 1_555 1_555
O19 W4 1_555 1_555
O21 W2 1_555 1_555
O22 Tb1 1_555 1_555
O23 W3 1_555 1_555
O24 Tb1 1_555 1_555
O25 W5 1_555 1_555
O26 W5 1_555 1_555
O27 W6 1_555 1_555
O28 W2 1_555 1_555
O29 W2 1_555 1_555
O30 W3 1_555 1_555
O31 W4 1_555 1_555
C2 C6 1_555 1_555
C3 O17 1_555 1_555
C5 H1 1_555 1_555
C6 C5 1_555 1_555
N1 Cu3 1_555 1_555
C9 C5 1_555 1_555
H4 C9 1_555 1_555
C10 H5 1_555 1_555
C11 C3 1_555 1_555
C12 C11 1_555 1_555
H6 C12 1_555 1_555
C13 C12 1_555 1_555
H7 C13 1_555 1_555
N2 C13 1_555 1_555
H8 N2 1_555 1_555
C14 C10 1_555 1_555
H9 C14 1_555 1_555
C15 H10 1_555 1_555
C16 C15 1_555 1_555
H11 C16 1_555 1_555
O33 W1 1_555 1_555
O34 W3 1_555 1_555
W8 O7 1_555 1_555
W9 O11 1_555 1_555
W10 O6 1_555 1_555
W11 O8 1_555 1_555
W12 O6 1_555 1_555
O44 W1 1_555 1_555
O45 W7 1_555 1_555
O46 W7 1_555 1_555
O47 W11 1_555 1_555
O48 W8 1_555 1_555
O49 W9 1_555 1_555
O50 W10 1_555 1_555
O51 W8 1_555 1_555
O52 W9 1_555 1_555
O53 W11 1_555 1_555
O54 W12 1_555 1_555
O55 W8 1_555 1_555
O56 W9 1_555 1_555
O57 W10 1_555 1_555
O58 W1 1_555 1_555
N9 Cu3 1_555 1_555
N10 Cu3 1_555 1_555
N11 Cu3 1_555 1_555
W2 O7 1_555 1_555
W3 O58 1_555 1_555
W4 O18 1_555 1_555
W4 O34 1_555 1_555
W5 O21 1_555 1_555
W6 O16 1_555 1_555
W6 O19 1_555 1_555
W6 O30 1_555 1_555
W6 O34 1_555 1_555
W7 O12 1_555 1_555
W7 O13 1_555 1_555
Si1 O7 1_555 1_555
Si1 O34 1_555 1_555
O22 C3 1_555 1_555
O26 W11 1_555 1_555
O29 W8 1_555 1_555
N1 C9 1_555 1_555
C10 C11 1_555 1_555
N2 C14 1_555 1_555
W8 O44 1_555 1_555
W10 O45 1_555 1_555
W10 O49 1_555 1_555
W11 O46 1_555 1_555
W11 O51 1_555 1_555
W12 O47 1_555 1_555
W12 O48 1_555 1_555
W12 O50 1_555 1_555
W12 O56 1_555 1_555
O24 H37 1_555 1_555
O4 C1 1_555 1_555
C1 O5 1_555 1_555
H2 C7 1_555 1_555
C8 C7 1_555 1_555
H3 C8 1_555 1_555
C17 N3 1_555 1_555
H12 C17 1_555 1_555
C18 C17 1_555 1_555
H13 C18 1_555 1_555
C19 C1 1_555 1_555
O43 C28 1_555 1_555
C28 O40 1_555 1_555
C45 C44 1_555 1_555
C46 C28 1_555 1_555
C47 C46 1_555 1_555
H34 C47 1_555 1_555
C48 C47 1_555 1_555
H35 C48 1_555 1_555
N8 C44 1_555 1_555
H36 N8 1_555 1_555
Cu5 N3 1_555 1_555
C18 C19 1_555 1_555
C45 C46 1_555 1_555
C48 N8 1_555 1_555
O32 C4 1_555 1_555
C4 O20 1_555 1_555
C21 C20 1_555 1_555
C22 C4 1_555 1_555
C23 C22 1_555 1_555
H16 C23 1_555 1_555
C24 C23 1_555 1_555
H17 C24 1_555 1_555
N4 C20 1_555 1_555
H18 N4 1_555 1_555
C25 O37 1_555 1_555
H20 C31 1_555 1_555
C32 C31 1_555 1_555
H21 C32 1_555 1_555
C41 N11 1_555 1_555
H30 C41 1_555 1_555
C42 C41 1_555 1_555
H31 C42 1_555 1_555
C43 C25 1_555 1_555
C21 C22 1_555 1_555
C24 N4 1_555 1_555
O38 C25 1_555 1_555
C42 C43 1_555 1_555
O36 Tb2 1_555 1_555
O39 Tb2 1_555 1_555
O41 Tb2 1_555 1_555
O42 Tb2 1_555 1_555
C27 O39 1_555 1_555
C29 H19 1_555 1_555
C30 C26 1_555 1_555
C33 C29 1_555 1_555
H22 C33 1_555 1_555
C34 H23 1_555 1_555
C35 C27 1_555 1_555
C36 C35 1_555 1_555
H24 C36 1_555 1_555
C37 C36 1_555 1_555
H25 C37 1_555 1_555
N6 C37 1_555 1_555
H26 N6 1_555 1_555
C38 C34 1_555 1_555
H27 C38 1_555 1_555
C39 H28 1_555 1_555
C40 C39 1_555 1_555
H29 C40 1_555 1_555
Cu5 N5 1_555 1_555
O36 C26 1_555 1_555
O41 C27 1_555 1_555
C29 C30 1_555 1_555
N5 C33 1_555 1_555
C34 C35 1_555 1_555
N6 C38 1_555 1_555
O42 H40 1_555 1_555
C25_2 O37_2 1_555 1_555
C41_2 N7 1_555 1_555
H30_2 C41_2 1_555 1_555
C42_2 C41_2 1_555 1_555
H31_2 C42_2 1_555 1_555
C43_2 C25_2 1_555 1_555
Cu5 N7 1_555 1_555
O38_2 C25_2 1_555 1_555
C42_2 C43_2 1_555 1_555
C29_2 H19_2 1_555 1_555
C30_2 C26_2 1_555 1_555
C33_2 C29_2 1_555 1_555
H22_2 C33_2 1_555 1_555
C34_2 H23_2 1_555 1_555
C38_2 C34_2 1_555 1_555
H27_2 C38_2 1_555 1_555
O36_2 C26_2 1_555 1_555
C29_2 C30_2 1_555 1_555
N9 C33_2 1_555 1_555
O32_2 C4_2 1_555 1_555
C4_2 O20_2 1_555 1_555
C21_2 C20_2 1_555 1_555
C22_2 C4_2 1_555 1_555
C23_2 C22_2 1_555 1_555
C24_2 C23_2 1_555 1_555
H17_2 C24_2 1_555 1_555
N4_2 C20_2 1_555 1_555
H18_2 N4_2 1_555 1_555
H20_2 C31_2 1_555 1_555
C32_2 C31_2 1_555 1_555
H21_2 C32_2 1_555 1_555
C21_2 C22_2 1_555 1_555
C24_2 N4_2 1_555 1_555
H2_2 C7_2 1_555 1_555
C8_2 C7_2 1_555 1_555
H3_2 C8_2 1_555 1_555
O43_2 C28_2 1_555 1_555
C28_2 O40_2 1_555 1_555
C45_2 C44_2 1_555 1_555
C46_2 C28_2 1_555 1_555
C47_2 C46_2 1_555 1_555
C48_2 C47_2 1_555 1_555
H35_2 C48_2 1_555 1_555
N8_2 C44_2 1_555 1_555
H36_2 N8_2 1_555 1_555
C45_2 C46_2 1_555 1_555
C48_2 N8_2 1_555 1_555
W1_2 O3_2 1_555 1_555
W2_2 O3_2 1_555 1_555
W3_2 O14_2 1_555 1_555
W4_2 O10_2 1_555 1_555
W5_2 O8_2 1_555 1_555
W6_2 O15_2 1_555 1_555
W7_2 O8_2 1_555 1_555
Cu5 O9_2 1_555 1_555
Si1_2 O6_2 1_555 1_555
O2_2 C2_2 1_555 1_555
O6_2 W9_2 1_555 1_555
O7_2 W1_2 1_555 1_555
O8_2 Si1_2 1_555 1_555
O9_2 W7_2 1_555 1_555
O10_2 W10_2 1_555 1_555
O11_2 W1_2 1_555 1_555
O12_2 W4_2 1_555 1_555
O13_2 W5_2 1_555 1_555
O14_2 W9_2 1_555 1_555
O15_2 W5_2 1_555 1_555
O16_2 W2_2 1_555 1_555
O18_2 W3_2 1_555 1_555
O19_2 W4_2 1_555 1_555
O21_2 W2_2 1_555 1_555
O23_2 W3_2 1_555 1_555
O25_2 W5_2 1_555 1_555
O26_2 W5_2 1_555 1_555
O27_2 W6_2 1_555 1_555
O28_2 W2_2 1_555 1_555
O29_2 W2_2 1_555 1_555
O30_2 W3_2 1_555 1_555
O31_2 W4_2 1_555 1_555
C2_2 C6_2 1_555 1_555
C5_2 H1_2 1_555 1_555
C6_2 C5_2 1_555 1_555
N1_2 Cu5 1_555 1_555
C9_2 C5_2 1_555 1_555
H4_2 C9_2 1_555 1_555
C10_2 H5_2 1_555 1_555
C14_2 C10_2 1_555 1_555
H9_2 C14_2 1_555 1_555
O59 W1_2 1_555 1_555
O34_2 W3_2 1_555 1_555
W8_2 O7_2 1_555 1_555
W9_2 O11_2 1_555 1_555
W10_2 O6_2 1_555 1_555
W11_2 O8_2 1_555 1_555
W12_2 O6_2 1_555 1_555
O44_2 W1_2 1_555 1_555
O45_2 W7_2 1_555 1_555
O46_2 W7_2 1_555 1_555
O47_2 W11_2 1_555 1_555
O48_2 W8_2 1_555 1_555
O49_2 W9_2 1_555 1_555
O50_2 W10_2 1_555 1_555
O51_2 W8_2 1_555 1_555
O52_2 W9_2 1_555 1_555
O53_2 W11_2 1_555 1_555
O54_2 W12_2 1_555 1_555
O55_2 W8_2 1_555 1_555
O56_2 W9_2 1_555 1_555
O57_2 W10_2 1_555 1_555
O58_2 W1_2 1_555 1_555
W2_2 O7_2 1_555 1_555
W3_2 O58_2 1_555 1_555
W4_2 O18_2 1_555 1_555
W4_2 O34_2 1_555 1_555
W5_2 O21_2 1_555 1_555
W6_2 O16_2 1_555 1_555
W6_2 O19_2 1_555 1_555
W6_2 O30_2 1_555 1_555
W6_2 O34_2 1_555 1_555
W7_2 O12_2 1_555 1_555
W7_2 O13_2 1_555 1_555
Si1_2 O7_2 1_555 1_555
Si1_2 O34_2 1_555 1_555
O26_2 W11_2 1_555 1_555
O29_2 W8_2 1_555 1_555
N1_2 C9_2 1_555 1_555
W8_2 O44_2 1_555 1_555
W10_2 O45_2 1_555 1_555
W10_2 O49_2 1_555 1_555
W11_2 O46_2 1_555 1_555
W11_2 O51_2 1_555 1_555
W12_2 O47_2 1_555 1_555
W12_2 O48_2 1_555 1_555
W12_2 O50_2 1_555 1_555
W12_2 O56_2 1_555 1_555
O4_2 C1_2 1_555 1_555
C1_2 O5_2 1_555 1_555
C17_2 N10 1_555 1_555
H12_2 C17_2 1_555 1_555
C18_2 C17_2 1_555 1_555
H13_2 C18_2 1_555 1_555
C19_2 C1_2 1_555 1_555
C18_2 C19_2 1_555 1_555
O24 H40_2 1_555 1_555
O42 H37_2 1_555 1_555
O41_2 Tb2_2 1_555 1_555
O42_2 Tb2_2 1_555 1_555
C35_2 C27_2 1_555 1_555
C36_2 C35_2 1_555 1_555
H24_2 C36_2 1_555 1_555
C37_2 C36_2 1_555 1_555
H25_2 C37_2 1_555 1_555
N6_2 C37_2 1_555 1_555
C39_2 H28_2 1_555 1_555
C40_2 C39_2 1_555 1_555
H29_2 C40_2 1_555 1_555
O41_2 C27_2 1_555 1_555
O42_2 H40_3 1_555 1_555
O42_2 H37_3 1_555 1_555
O22_2 Tb1_2 1_555 1_555
O24_2 Tb1_2 1_555 1_555
C11_2 C3_2 1_555 1_555
C12_2 C11_2 1_555 1_555
H6_2 C12_2 1_555 1_555
C13_2 C12_2 1_555 1_555
H7_2 C13_2 1_555 1_555
N2_2 C13_2 1_555 1_555
C15_2 H10_2 1_555 1_555
C16_2 C15_2 1_555 1_555
H11_2 C16_2 1_555 1_555
O22_2 C3_2 1_555 1_555
O24_2 H37_4 1_555 1_555
O24_2 H40_4 1_555 1_555

#END
