
###############################################################################
#
# This file contains modified crystal structure data generated from the
# MOF subset of the Cambridge Structural Database (CSD) v543 
# hosted by the Cambridge Crystallographic Data Centre (CCDC).
#
# This work is licensed under the Creative Commons
# Attribution-NonCommercial-ShareAlike 4.0 International License.
# To view a copy of this license, visit
# http://creativecommons.org/licenses/by-nc-sa/4.0/
# or send a letter to
# Creative Commons, PO Box 1866, Mountain View, CA 94042, USA.
#
# CIF created using the CSD Python API on 29 September 2022
# The structure has been converted into the P1 space group
# The structure has a 3D framework
# The original CSD entry IGOBEO is in the monoclinic crystal system
# The framework has been calculated to contain at least 10.0% void space
# The void calculation uses a probe of radius 1.32A, grid spacing 0.4
#
###############################################################################

data_IGOBEO
_chemical_formula_moiety         '(C194 H168 Cu4 N32 O236 Si4 Tb8 W48)n'
_symmetry_cell_setting           triclinic
_symmetry_space_group_name_H-M   'P 1'
_symmetry_Int_Tables_number      1
_space_group_name_Hall           'P 1'
loop_
_symmetry_equiv_pos_site_id
_symmetry_equiv_pos_as_xyz
1 x,y,z
_cell_length_a                   15.014(5)
_cell_length_b                   25.129(8)
_cell_length_c                   25.056(8)
_cell_angle_alpha                90
_cell_angle_beta                 95.634(7)
_cell_angle_gamma                90
_cell_volume                     9407.63
loop_
_atom_site_label
_atom_site_type_symbol
_atom_site_fract_x
_atom_site_fract_y
_atom_site_fract_z
N4 N 0.0620(12) 0.1222(9) 0.4782(8)
H19 H 0.115351 0.134756 0.478790
N6 N 0.0159(8) 0.0262(6) 0.6938(7)
H28 H 0.072833 0.026711 0.702130
H29 H 0.019996 0.045969 0.617145
C34 C 0.0011(17) 0.1515(12) 0.5000(9)
H30 H 0.012804 0.185871 0.512500
C42 C 0.0466(16) 0.0766(11) 0.4564(10)
H36 H 0.090523 0.059994 0.438656
Tb5 Tb 0.64541(6) 0.49703(4) 0.01749(4)
W2 W 0.01991(6) 0.25642(4) 0.87028(3)
W4 W 0.09188(6) 0.37980(4) 0.66860(4)
W5 W 0.09114(6) 0.18157(4) 0.64672(4)
W8 W 0.12151(6) 0.16483(4) 0.78433(4)
W9 W 0.12382(6) 0.36091(4) 0.81226(4)
W11 W 0.22076(6) 0.26944(5) 0.72408(4)
Tb1 Tb 0.64541(6) 0.00297(4) 0.51749(4)
Tb2 Tb 0.32981(7) 0.53732(5) 0.52167(4)
Cu1 Cu 0.49052(16) 0.27113(10) 0.73049(9)
O1 O 0.7128(10) 0.0197(6) 0.6021(6)
O2 O 0.4077(9) 0.0659(6) 0.5414(5)
O3 O 0.4018(10) 0.4565(6) 0.5299(6)
O4 O 0.5554(9) 0.0733(6) 0.5418(6)
N1 N 0.4896(8) 0.3280(5) 0.6730(5)
C1 C 0.5523(8) 0.3258(5) 0.6369(5)
H1 H 0.597524 0.300417 0.640798
C2 C 0.5484(9) 0.3611(6) 0.5950(5)
H2 H 0.590989 0.359572 0.570476
C3 C 0.4818(10) 0.3985(6) 0.5893(6)
C4 C 0.4192(9) 0.4007(6) 0.6254(6)
H3 H 0.373991 0.426114 0.621525
C5 C 0.4231(8) 0.3654(6) 0.6673(5)
H4 H 0.380485 0.366916 0.691845
O5 O 0.4572(9) 0.4584(7) 0.9357(6)
O6 O 0.6050(10) 0.4548(6) 0.9352(5)
O7 O 0.3334(9) 0.2748(6) 0.7229(5)
N2 N 0.4862(8) 0.2117(5) 0.6722(5)
C6 C 0.4110(8) 0.2035(6) 0.6380(5)
H5 H 0.360937 0.224935 0.640244
C7 C 0.4091(9) 0.1640(6) 0.6006(5)
H6 H 0.357822 0.158478 0.577299
C8 C 0.4826(9) 0.1327(5) 0.5973(5)
C9 C 0.5578(8) 0.1408(6) 0.6315(5)
H7 H 0.607848 0.119356 0.629278
C10 C 0.5597(8) 0.1803(6) 0.6689(5)
H8 H 0.610981 0.185860 0.692167
O9 O 0.5743(10) 0.0623(7) 0.9067(6)
O10 O 0.3155(10) 0.5122(8) 0.4280(6)
H9 H 0.275251 0.531472 0.410673
H10 H 0.294840 0.480458 0.424604
O12 O 0.7487(9) 0.0805(7) 0.5055(6)
O17 O 0.0505(10) 0.3449(7) 0.6028(7)
O18 O 0.5400(11) 0.4372(7) 0.5145(7)
O19 O 0.1071(9) 0.3114(6) 0.8680(7)
O21 O 0.1938(10) 0.4039(7) 0.8450(6)
O23 O 0.4313(12) 0.0463(8) 0.8843(7)
O25 O 0.7980(9) 0.0034(6) 0.4753(7)
O26 O 0.1672(10) 0.5412(7) 0.4830(7)
O27 O 0.0008(9) 0.1441(6) 0.7806(6)
O29 O 0.1007(10) 0.2109(8) 0.8406(7)
O30 O 0.0116(10) 0.3918(6) 0.8254(6)
C11 C 0.4825(14) 0.0860(9) 0.5567(8)
O32 O 0.2173(10) 0.4638(7) 0.5130(7)
C12 C 0.4364(8) 0.3738(6) 0.8607(6)
H13 H 0.389105 0.379227 0.881444
C13 C 0.5127(9) 0.4026(5) 0.8704(5)
C14 C 0.5817(8) 0.3947(5) 0.8401(6)
H14 H 0.633981 0.414476 0.846731
C15 C 0.5744(8) 0.3581(5) 0.8002(5)
H15 H 0.621647 0.352670 0.779476
N3 N 0.4981(8) 0.3293(5) 0.7905(5)
C16 C 0.4291(8) 0.3372(6) 0.8208(5)
H16 H 0.376784 0.317415 0.814115
O34 O 0.0041(10) 0.3014(7) 0.7860(6)
O36 O 0.1209(12) 0.1417(8) 0.7100(6)
O37 O 0.2607(10) 0.5178(8) 0.6023(6)
H17 H 0.210614 0.502646 0.594071
H18 H 0.247318 0.546967 0.616867
O38 O 0.6863(9) 0.0245(7) 0.6877(6)
O41 O 0.0801(10) 0.2368(7) 0.7236(6)
C17 C 0.4988(15) 0.0734(9) 0.8819(9)
O42 O 0.2219(11) 0.2078(7) 0.7699(6)
O43 O 0.1075(12) 0.3891(7) 0.7445(7)
C18 C 0.7359(14) 0.0213(9) 0.6511(10)
C19 C 0.8058(13) 0.0521(10) 0.4870(8)
C20 C 0.5248(15) 0.4416(9) 0.9176(9)
O44 O 0.1279(12) 0.1387(7) 0.6028(6)
O47 O 0.3071(13) 0.6278(8) 0.5006(10)
O48 O 0.2004(13) 0.3121(8) 0.7833(6)
C21 C 0.4760(17) 0.4359(9) 0.5397(9)
O49 O 0.0501(10) 0.2403(7) 0.6015(7)
O50 O 0.1778(12) 0.1142(7) 0.8148(7)
O51 O 0.2298(13) 0.6382(8) 0.5719(8)
C22 C 0.8962(12) 0.0774(9) 0.4808(8)
O52 O 0.1806(13) 0.3247(9) 0.6786(6)
O53 O 0.1955(14) 0.2220(8) 0.6644(6)
C23 C 0.2731(18) 0.6543(8) 0.5353(11)
C24 C 0.0301(10) 0.4859(6) 0.4174(6)
H20 H 0.051604 0.516234 0.401627
C25 C 0.0750(8) 0.4652(6) 0.4621(6)
C26 C 0.0438(9) 0.4210(6) 0.4850(6)
H21 H 0.074627 0.406786 0.515673
C29 C 0.8922(11) 0.0367(6) 0.6298(5)
H25 H 0.868793 0.044469 0.594927
C30 C 0.8365(9) 0.0244(6) 0.6674(5)
C31 C 0.8706(8) 0.0131(6) 0.7182(5)
H26 H 0.832375 0.004651 0.744052
C32 C 0.9602(9) 0.0139(6) 0.7314(5)
H27 H 0.983617 0.006119 0.766271
C33 C 0.9818(10) 0.0376(6) 0.6430(6)
C35 C 0.1587(18) 0.4934(12) 0.4856(9)
O57 O 0.0350(11) 0.2420(9) 0.9353(6)
O59 O 0.1515(11) 0.4284(7) 0.6442(7)
C36 C 0.9144(14) 0.1256(9) 0.5027(8)
H31 H 0.870740 0.142835 0.520158
C37 C 0.4232(9) 0.1340(6) 0.8164(6)
H32 H 0.373601 0.111807 0.816559
C38 C 0.4997(10) 0.1225(6) 0.8480(6)
C39 C 0.5723(9) 0.1550(6) 0.8477(6)
H33 H 0.624560 0.147173 0.869370
C40 C 0.5683(9) 0.1990(6) 0.8158(6)
H34 H 0.617837 0.221147 0.815614
N7 N 0.4917(9) 0.2105(5) 0.7841(5)
C41 C 0.4192(8) 0.1780(6) 0.7844(5)
H35 H 0.366896 0.185786 0.762776
C43 C 0.3069(11) 0.7366(7) 0.4850(7)
H37 H 0.322841 0.715112 0.457203
C44 C 0.3160(11) 0.7899(8) 0.4821(7)
H38 H 0.338332 0.805151 0.452284
N8 N 0.2929(12) 0.8210(6) 0.5223(9)
H39 H 0.298655 0.854987 0.520441
C45 C 0.2606(12) 0.7988(8) 0.5655(8)
H40 H 0.244639 0.820301 0.593301
C46 C 0.2515(12) 0.7455(8) 0.5685(7)
H41 H 0.229238 0.730239 0.598277
C47 C 0.2746(11) 0.7144(6) 0.5282(8)
C48 C 0.9652(16) 0.0520(11) 0.4593(10)
H42 H 0.956877 0.017500 0.446390
Tb3 Tb 0.35459(6) 0.50297(4) 0.98251(4)
Tb6 Tb 0.67019(7) 0.03732(5) 0.97833(4)
Tb7 Tb 0.67019(7) 0.46268(5) 0.47833(4)
O62 O 0.6050(10) 0.0452(6) 0.4352(5)
O63 O 0.4257(10) 0.5623(7) 0.5933(6)
O64 O 0.6477(9) 0.2742(6) 0.7380(6)
O65 O 0.4600(11) 0.5628(7) 0.4855(7)
O15 O 0.7323(10) 0.9277(6) 0.5467(7)
H11 H 0.704830 0.894127 0.538866
H12 H 0.739649 0.925142 0.584235
Tb4 Tb 0.35459(6) 0.99703(4) 0.48251(4)
O60 O 0.5923(9) 0.9341(6) 0.4586(5)
O61 O 0.5428(9) 0.9584(7) 0.5643(6)
W1 W 0.95981(6) 0.29143(4) 0.59059(3)
W3 W 0.85241(6) 0.18303(4) 0.65153(4)
W6 W 0.76033(6) 0.27039(4) 0.73552(4)
W7 W 0.89556(6) 0.36300(4) 0.81659(4)
W10 W 0.86294(6) 0.37985(4) 0.67278(4)
W12 W 0.88313(7) 0.16476(4) 0.78813(4)
Si1 Si 0.9903(4) 0.2726(2) 0.7301(2)
O8 O 0.7962(10) 0.4308(6) 0.6505(6)
O13 O 0.9257(10) 0.2106(8) 0.8451(7)
O14 O 0.7557(11) 0.2219(7) 0.6754(6)
O16 O 0.9770(10) 0.4109(6) 0.6679(7)
O20 O 0.8489(13) 0.1417(9) 0.7141(7)
O22 O 0.8766(10) 0.2400(7) 0.6064(7)
O24 O 0.9330(11) 0.3124(6) 0.8716(7)
O28 O 0.7786(14) 0.2083(8) 0.7805(6)
O31 O 0.9719(10) 0.1596(6) 0.6478(7)
O33 O 0.8833(11) 0.3917(8) 0.7478(6)
O35 O 0.8771(12) 0.3433(8) 0.6084(8)
O39 O 0.9018(11) 0.2359(7) 0.7265(6)
O40 O 0.7942(9) 0.1414(6) 0.6085(7)
O45 O 0.7809(13) 0.3265(9) 0.6880(6)
O46 O 0.8033(12) 0.3151(8) 0.7916(6)
C27 C 0.9676(9) 0.3976(5) 0.4630(6)
H22 H 0.946062 0.367240 0.478760
N5 N 0.9227(8) 0.4182(6) 0.4183(6)
H23 H 0.874343 0.403281 0.404419
C28 C 0.9539(9) 0.4624(6) 0.3955(5)
H24 H 0.923025 0.476632 0.364767
O54 O 0.9810(11) 0.3144(8) 0.6816(7)
O55 O 0.9423(11) 0.2927(8) 0.5247(6)
O56 O 0.8395(11) 0.4035(6) 0.8530(7)
O58 O 0.8396(10) 0.1142(7) 0.8189(6)
W1_2 W 0.04019(6) 0.79143(4) 0.90941(3)
W3_2 W 0.14759(6) 0.68303(4) 0.84847(4)
W6_2 W 0.23967(6) 0.77039(4) 0.76448(4)
W7_2 W 0.10444(6) 0.86300(4) 0.68341(4)
W10_2 W 0.13706(6) 0.87985(4) 0.82722(4)
W12_2 W 0.11687(7) 0.66476(4) 0.71187(4)
Si1_2 Si 0.0097(4) 0.7726(2) 0.7699(2)
O8_2 O 0.2038(10) 0.9308(6) 0.8495(6)
O11 O 0.3523(9) 0.7742(6) 0.7620(6)
O13_2 O 0.0743(10) 0.7106(8) 0.6549(7)
O14_2 O 0.2443(11) 0.7219(7) 0.8246(6)
O16_2 O 0.0230(10) 0.9109(6) 0.8321(7)
O20_2 O 0.1511(13) 0.6417(9) 0.7859(7)
O22_2 O 0.1234(10) 0.7400(7) 0.8936(7)
O24_2 O 0.0670(11) 0.8124(6) 0.6284(7)
O28_2 O 0.2214(14) 0.7083(8) 0.7195(6)
O31_2 O 0.0281(10) 0.6596(6) 0.8522(7)
O33_2 O 0.1167(11) 0.8917(8) 0.7522(6)
O35_2 O 0.1229(12) 0.8433(8) 0.8916(8)
O39_2 O 0.0982(11) 0.7359(7) 0.7735(6)
O40_2 O 0.2058(9) 0.6414(6) 0.8915(7)
O45_2 O 0.2191(13) 0.8265(9) 0.8120(6)
O46_2 O 0.1967(12) 0.8151(8) 0.7084(6)
O54_2 O 0.0190(11) 0.8144(8) 0.8184(7)
O55_2 O 0.0577(11) 0.7927(8) 0.9753(6)
O56_2 O 0.1605(11) 0.9035(6) 0.6470(7)
O58_2 O 0.1604(10) 0.6142(7) 0.6811(6)
Cu2 Cu 0.50948(16) 0.77113(10) 0.76951(9)
O10_2 O 0.6845(10) 0.0122(8) 0.0720(6)
H9_2 H 0.724749 0.031472 0.089327
O26_2 O 0.8328(10) 0.0412(7) 0.0170(7)
H20_2 H 0.948396 0.016234 0.098373
C43_2 C 0.6931(11) 0.2366(7) 0.0150(7)
H37_2 H 0.677159 0.215112 0.042797
C44_2 C 0.6840(11) 0.2899(8) 0.0179(7)
H38_2 H 0.661668 0.305151 0.047716
O65_2 O 0.5400(11) 0.0628(7) 0.0145(7)
O37_2 O 0.7393(10) 0.0178(8) 0.8977(6)
H17_2 H 0.789386 0.002646 0.905929
H18_2 H 0.752682 0.046967 0.883133
O47_2 O 0.6929(13) 0.1278(8) 0.9994(10)
O51_2 O 0.7702(13) 0.1382(8) 0.9281(8)
C23_2 C 0.7269(18) 0.1543(8) 0.9647(11)
N8_2 N 0.7071(12) 0.3210(6) 0.9777(9)
H39_2 H 0.701345 0.354987 0.979559
C45_2 C 0.7394(12) 0.2988(8) 0.9345(8)
H40_2 H 0.755361 0.320301 0.906699
C46_2 C 0.7485(12) 0.2455(8) 0.9315(7)
H41_2 H 0.770762 0.230239 0.901723
C47_2 C 0.7254(11) 0.2144(6) 0.9718(8)
H10_2 H 0.705160 0.980458 0.075396
O25_2 O 0.2020(9) 0.5034(6) 0.0247(7)
C19_2 C 0.1942(13) 0.5521(10) 0.0130(8)
C22_2 C 0.1038(12) 0.5774(9) 0.0192(8)
C24_2 C 0.9699(10) 0.9859(6) 0.0826(6)
C25_2 C 0.9250(8) 0.9652(6) 0.0379(6)
C26_2 C 0.9562(9) 0.9210(6) 0.0150(6)
C35_2 C 0.8413(18) 0.9934(12) 0.0144(9)
C48_2 C 0.0348(16) 0.5520(11) 0.0407(10)
H42_2 H 0.043123 0.517500 0.053610
Tb7_2 Tb 0.32981(7) 0.96268(5) 0.02167(4)
O60_2 O 0.4077(9) 0.4341(6) 0.0414(5)
O62_2 O 0.3950(10) 0.5452(6) 0.0648(5)
W2_2 W 0.98009(6) 0.75642(4) 0.62972(3)
W4_2 W 0.90812(6) 0.87980(4) 0.83140(4)
W5_2 W 0.90886(6) 0.68157(4) 0.85328(4)
W8_2 W 0.87849(6) 0.66483(4) 0.71567(4)
W9_2 W 0.87618(6) 0.86091(4) 0.68774(4)
W11_2 W 0.77924(6) 0.76944(5) 0.77592(4)
O1_2 O 0.2872(10) 0.5197(6) 0.8979(6)
O2_2 O 0.5923(9) 0.5659(6) 0.9586(5)
O3_2 O 0.5982(10) 0.9565(6) 0.9701(6)
O4_2 O 0.4446(9) 0.5733(6) 0.9582(6)
N1_2 N 0.5104(8) 0.8280(5) 0.8270(5)
C1_2 C 0.4477(8) 0.8258(5) 0.8631(5)
H1_2 H 0.402476 0.800417 0.859202
C2_2 C 0.4516(9) 0.8611(6) 0.9050(5)
H2_2 H 0.409011 0.859572 0.929524
C3_2 C 0.5182(10) 0.8985(6) 0.9107(6)
C4_2 C 0.5808(9) 0.9007(6) 0.8746(6)
H3_2 H 0.626009 0.926114 0.878475
C5_2 C 0.5769(8) 0.8654(6) 0.8327(5)
H4_2 H 0.619515 0.866916 0.808155
O6_2 O 0.3950(10) 0.9548(6) 0.5648(5)
O7_2 O 0.6666(9) 0.7748(6) 0.7771(5)
N2_2 N 0.5138(8) 0.7117(5) 0.8278(5)
C6_2 C 0.5890(8) 0.7035(6) 0.8620(5)
H5_2 H 0.639063 0.724935 0.859756
C7_2 C 0.5909(9) 0.6640(6) 0.8994(5)
H6_2 H 0.642178 0.658478 0.922701
C8_2 C 0.5174(9) 0.6327(5) 0.9027(5)
C9_2 C 0.4422(8) 0.6408(6) 0.8685(5)
H7_2 H 0.392152 0.619356 0.870722
C10_2 C 0.4403(8) 0.6803(6) 0.8311(5)
H8_2 H 0.389019 0.685860 0.807833
O12_2 O 0.2513(9) 0.5805(7) 0.9945(6)
O15_2 O 0.2677(10) 0.4277(6) 0.9533(7)
H11_2 H 0.295170 0.394127 0.961134
H12_2 H 0.260351 0.425142 0.915765
O17_2 O 0.9495(10) 0.8449(7) 0.8972(7)
O18_2 O 0.4600(11) 0.9372(7) 0.9855(7)
O19_2 O 0.8929(9) 0.8114(6) 0.6320(7)
O21_2 O 0.8062(10) 0.9039(7) 0.6550(6)
O23_2 O 0.5687(12) 0.5463(8) 0.6157(7)
O27_2 O 0.9992(9) 0.6441(6) 0.7194(6)
O29_2 O 0.8993(10) 0.7109(8) 0.6594(7)
O30_2 O 0.9884(10) 0.8918(6) 0.6746(6)
C11_2 C 0.5175(14) 0.5860(9) 0.9433(8)
O32_2 O 0.7827(10) 0.9638(7) 0.9870(7)
C12_2 C 0.5636(8) 0.8738(6) 0.6393(6)
H13_2 H 0.610895 0.879227 0.618556
C13_2 C 0.4873(9) 0.9026(5) 0.6296(5)
C14_2 C 0.4183(8) 0.8947(5) 0.6599(6)
H14_2 H 0.366019 0.914476 0.653269
C15_2 C 0.4256(8) 0.8581(5) 0.6998(5)
H15_2 H 0.378353 0.852670 0.720524
N3_2 N 0.5019(8) 0.8293(5) 0.7095(5)
C16_2 C 0.5709(8) 0.8372(6) 0.6792(5)
H16_2 H 0.623216 0.817415 0.685885
O34_2 O 0.9959(10) 0.8014(7) 0.7140(6)
O36_2 O 0.8791(12) 0.6417(8) 0.7900(6)
O38_2 O 0.3137(9) 0.5245(7) 0.8123(6)
O41_2 O 0.9199(10) 0.7368(7) 0.7764(6)
C17_2 C 0.5012(15) 0.5734(9) 0.6181(9)
O42_2 O 0.7781(11) 0.7078(7) 0.7301(6)
O43_2 O 0.8925(12) 0.8891(7) 0.7555(7)
C18_2 C 0.2641(14) 0.5213(9) 0.8489(10)
C20_2 C 0.4752(15) 0.9416(9) 0.5824(9)
O44_2 O 0.8721(12) 0.6387(7) 0.8972(6)
O48_2 O 0.7996(13) 0.8121(8) 0.7167(6)
C21_2 C 0.5240(17) 0.9359(9) 0.9603(9)
O49_2 O 0.9499(10) 0.7403(7) 0.8985(7)
O50_2 O 0.8222(12) 0.6142(7) 0.6852(7)
O52_2 O 0.8194(13) 0.8247(9) 0.8214(6)
O53_2 O 0.8045(14) 0.7220(8) 0.8356(6)
H21_2 H 0.925373 0.906786 0.984327
C29_2 C 0.1078(11) 0.5367(6) 0.8702(5)
H25_2 H 0.131207 0.544469 0.905073
C30_2 C 0.1635(9) 0.5244(6) 0.8326(5)
C31_2 C 0.1294(8) 0.5131(6) 0.7818(5)
H26_2 H 0.167625 0.504651 0.755948
C32_2 C 0.0398(9) 0.5139(6) 0.7686(5)
H27_2 H 0.016383 0.506119 0.733729
C33_2 C 0.0182(10) 0.5376(6) 0.8570(6)
O57_2 O 0.9650(11) 0.7420(9) 0.5647(6)
O59_2 O 0.8485(11) 0.9284(7) 0.8558(7)
C36_2 C 0.0856(14) 0.6256(9) 0.9973(8)
H31_2 H 0.129260 0.642835 0.979842
C37_2 C 0.5768(9) 0.6340(6) 0.6836(6)
H32_2 H 0.626399 0.611807 0.683441
C38_2 C 0.5003(10) 0.6225(6) 0.6520(6)
C39_2 C 0.4277(9) 0.6550(6) 0.6523(6)
H33_2 H 0.375440 0.647173 0.630630
C40_2 C 0.4317(9) 0.6990(6) 0.6842(6)
H34_2 H 0.382163 0.721147 0.684386
N7_2 N 0.5083(9) 0.7105(5) 0.7159(5)
C41_2 C 0.5808(8) 0.6780(6) 0.7156(5)
H35_2 H 0.633104 0.685786 0.737224
W1_3 W 0.04019(6) 0.70857(4) 0.40941(3)
W3_3 W 0.14759(6) 0.81697(4) 0.34847(4)
W6_3 W 0.23967(6) 0.72961(4) 0.26448(4)
W7_3 W 0.10444(6) 0.63700(4) 0.18341(4)
W10_3 W 0.13706(6) 0.62015(4) 0.32722(4)
W12_3 W 0.11687(7) 0.83524(4) 0.21187(4)
Si1_3 Si 0.0097(4) 0.7274(2) 0.2699(2)
O8_3 O 0.2038(10) 0.5692(6) 0.3495(6)
O11_2 O 0.3523(9) 0.7258(6) 0.2620(6)
O13_3 O 0.0743(10) 0.7894(8) 0.1549(7)
O14_3 O 0.2443(11) 0.7781(7) 0.3246(6)
O16_3 O 0.0230(10) 0.5891(6) 0.3321(7)
O20_3 O 0.1511(13) 0.8583(9) 0.2859(7)
O22_3 O 0.1234(10) 0.7600(7) 0.3936(7)
O24_3 O 0.0670(11) 0.6876(6) 0.1284(7)
O28_3 O 0.2214(14) 0.7917(8) 0.2195(6)
O31_3 O 0.0281(10) 0.8404(6) 0.3522(7)
O33_3 O 0.1167(11) 0.6083(8) 0.2522(6)
O35_3 O 0.1229(12) 0.6567(8) 0.3916(8)
O39_3 O 0.0982(11) 0.7641(7) 0.2735(6)
O40_3 O 0.2058(9) 0.8586(6) 0.3915(7)
O45_3 O 0.2191(13) 0.6735(9) 0.3120(6)
O46_3 O 0.1967(12) 0.6849(8) 0.2084(6)
C27_2 C 0.0324(9) 0.6024(5) 0.5370(6)
H22_2 H 0.053938 0.632760 0.521240
N5_2 N 0.0773(8) 0.5818(6) 0.5817(6)
H23_2 H 0.125657 0.596719 0.595581
C28_2 C 0.0461(9) 0.5376(6) 0.6045(5)
H24_2 H 0.076975 0.523368 0.635233
O54_3 O 0.0190(11) 0.6856(8) 0.3184(7)
O55_3 O 0.0577(11) 0.7073(8) 0.4753(6)
O56_3 O 0.1605(11) 0.5965(6) 0.1470(7)
O58_3 O 0.1604(10) 0.8858(7) 0.1811(6)
Cu2_2 Cu 0.50948(16) 0.72887(10) 0.26951(9)
O15_3 O 0.2677(10) 0.0723(6) 0.4533(7)
H11_3 H 0.295170 0.105873 0.461134
H12_3 H 0.260351 0.074858 0.415765
O61_2 O 0.4572(9) 0.0416(7) 0.4357(6)
W2_3 W 0.98009(6) 0.74358(4) 0.12972(3)
W4_3 W 0.90812(6) 0.62020(4) 0.33140(4)
W5_3 W 0.90886(6) 0.81843(4) 0.35328(4)
W8_3 W 0.87849(6) 0.83517(4) 0.21567(4)
W9_3 W 0.87618(6) 0.63909(4) 0.18774(4)
W11_3 W 0.77924(6) 0.73056(5) 0.27592(4)
O1_3 O 0.2872(10) 0.9803(6) 0.3979(6)
O3_3 O 0.5982(10) 0.5435(6) 0.4701(6)
O4_3 O 0.4446(9) 0.9267(6) 0.4582(6)
N1_3 N 0.5104(8) 0.6720(5) 0.3270(5)
C1_3 C 0.4477(8) 0.6742(5) 0.3631(5)
H1_3 H 0.402476 0.699583 0.359202
C2_3 C 0.4516(9) 0.6389(6) 0.4050(5)
H2_3 H 0.409011 0.640428 0.429524
C3_3 C 0.5182(10) 0.6015(6) 0.4107(6)
C4_3 C 0.5808(9) 0.5993(6) 0.3746(6)
H3_3 H 0.626009 0.573886 0.378475
C5_3 C 0.5769(8) 0.6346(6) 0.3327(5)
H4_3 H 0.619515 0.633084 0.308155
O5_2 O 0.5428(9) 0.5416(7) 0.0643(6)
O7_3 O 0.6666(9) 0.7252(6) 0.2771(5)
N2_3 N 0.5138(8) 0.7883(5) 0.3278(5)
C6_3 C 0.5890(8) 0.7965(6) 0.3620(5)
H5_3 H 0.639063 0.775065 0.359756
C7_3 C 0.5909(9) 0.8360(6) 0.3994(5)
H6_3 H 0.642178 0.841522 0.422701
C8_3 C 0.5174(9) 0.8673(5) 0.4027(5)
C9_3 C 0.4422(8) 0.8592(6) 0.3685(5)
H7_3 H 0.392152 0.880644 0.370722
C10_3 C 0.4403(8) 0.8197(6) 0.3311(5)
H8_3 H 0.389019 0.814140 0.307833
O9_2 O 0.4257(10) 0.9377(7) 0.0933(6)
O10_3 O 0.6845(10) 0.4878(8) 0.5720(6)
H9_3 H 0.724749 0.468528 0.589327
H10_3 H 0.705160 0.519542 0.575396
O12_3 O 0.2513(9) 0.9195(7) 0.4945(6)
O17_3 O 0.9495(10) 0.6551(7) 0.3972(7)
O19_3 O 0.8929(9) 0.6886(6) 0.1320(7)
O21_3 O 0.8062(10) 0.5961(7) 0.1550(6)
O23_3 O 0.5687(12) 0.9537(8) 0.1157(7)
O25_3 O 0.2020(9) 0.9966(6) 0.5247(7)
O26_3 O 0.8328(10) 0.4588(7) 0.5170(7)
O27_3 O 0.9992(9) 0.8559(6) 0.2194(6)
O29_3 O 0.8993(10) 0.7891(8) 0.1594(7)
O30_3 O 0.9884(10) 0.6082(6) 0.1746(6)
C11_3 C 0.5175(14) 0.9140(9) 0.4433(8)
O32_3 O 0.7827(10) 0.5362(7) 0.4870(7)
C12_3 C 0.5636(8) 0.6262(6) 0.1393(6)
H13_3 H 0.610895 0.620773 0.118556
C13_3 C 0.4873(9) 0.5974(5) 0.1296(5)
C14_3 C 0.4183(8) 0.6053(5) 0.1599(6)
H14_3 H 0.366019 0.585524 0.153269
C15_3 C 0.4256(8) 0.6419(5) 0.1998(5)
H15_3 H 0.378353 0.647330 0.220524
N3_3 N 0.5019(8) 0.6707(5) 0.2095(5)
C16_3 C 0.5709(8) 0.6628(6) 0.1792(5)
H16_3 H 0.623216 0.682585 0.185885
O34_3 O 0.9959(10) 0.6986(7) 0.2140(6)
O36_3 O 0.8791(12) 0.8583(8) 0.2900(6)
O37_3 O 0.7393(10) 0.4822(8) 0.3977(6)
H17_3 H 0.789386 0.497354 0.405929
H18_3 H 0.752682 0.453033 0.383133
O38_3 O 0.3137(9) 0.9755(7) 0.3123(6)
O41_3 O 0.9199(10) 0.7632(7) 0.2764(6)
C17_3 C 0.5012(15) 0.9266(9) 0.1181(9)
O42_3 O 0.7781(11) 0.7922(7) 0.2301(6)
O43_3 O 0.8925(12) 0.6109(7) 0.2555(7)
C18_3 C 0.2641(14) 0.9787(9) 0.3489(10)
C19_3 C 0.1942(13) 0.9479(10) 0.5130(8)
C20_3 C 0.4752(15) 0.5584(9) 0.0824(9)
O44_3 O 0.8721(12) 0.8613(7) 0.3972(6)
O47_3 O 0.6929(13) 0.3722(8) 0.4994(10)
O48_3 O 0.7996(13) 0.6879(8) 0.2167(6)
C21_3 C 0.5240(17) 0.5641(9) 0.4603(9)
O49_3 O 0.9499(10) 0.7597(7) 0.3985(7)
O50_3 O 0.8222(12) 0.8858(7) 0.1852(7)
O51_3 O 0.7702(13) 0.3618(8) 0.4281(8)
C22_3 C 0.1038(12) 0.9226(9) 0.5192(8)
O52_3 O 0.8194(13) 0.6753(9) 0.3214(6)
O53_3 O 0.8045(14) 0.7780(8) 0.3356(6)
C23_3 C 0.7269(18) 0.3457(8) 0.4647(11)
C24_3 C 0.9699(10) 0.5141(6) 0.5826(6)
H20_3 H 0.948396 0.483766 0.598373
C25_3 C 0.9250(8) 0.5348(6) 0.5379(6)
C26_3 C 0.9562(9) 0.5790(6) 0.5150(6)
H21_3 H 0.925373 0.593214 0.484327
C29_3 C 0.1078(11) 0.9633(6) 0.3702(5)
H25_3 H 0.131207 0.955531 0.405073
C30_3 C 0.1635(9) 0.9756(6) 0.3326(5)
C31_3 C 0.1294(8) 0.9869(6) 0.2818(5)
H26_3 H 0.167625 0.995349 0.255948
C32_3 C 0.0398(9) 0.9861(6) 0.2686(5)
H27_3 H 0.016383 0.993881 0.233729
C33_3 C 0.0182(10) 0.9624(6) 0.3570(6)
C35_3 C 0.8413(18) 0.5066(12) 0.5144(9)
O57_3 O 0.9650(11) 0.7580(9) 0.0647(6)
O59_3 O 0.8485(11) 0.5716(7) 0.3558(7)
C36_3 C 0.0856(14) 0.8744(9) 0.4973(8)
H31_3 H 0.129260 0.857165 0.479842
C37_3 C 0.5768(9) 0.8660(6) 0.1836(6)
H32_3 H 0.626399 0.888193 0.183441
C38_3 C 0.5003(10) 0.8775(6) 0.1520(6)
C39_3 C 0.4277(9) 0.8450(6) 0.1523(6)
H33_3 H 0.375440 0.852827 0.130630
C40_3 C 0.4317(9) 0.8010(6) 0.1842(6)
H34_3 H 0.382163 0.778853 0.184386
N7_3 N 0.5083(9) 0.7895(5) 0.2159(5)
C41_3 C 0.5808(8) 0.8220(6) 0.2156(5)
H35_3 H 0.633104 0.814214 0.237224
C43_3 C 0.6931(11) 0.2634(7) 0.5150(7)
H37_3 H 0.677159 0.284888 0.542797
C44_3 C 0.6840(11) 0.2101(8) 0.5179(7)
H38_3 H 0.661668 0.194849 0.547716
N8_3 N 0.7071(12) 0.1790(6) 0.4777(9)
H39_3 H 0.701345 0.145013 0.479559
C45_3 C 0.7394(12) 0.2012(8) 0.4345(8)
H40_3 H 0.755361 0.179699 0.406699
C46_3 C 0.7485(12) 0.2545(8) 0.4315(7)
H41_3 H 0.770762 0.269761 0.401723
C47_3 C 0.7254(11) 0.2856(6) 0.4718(8)
C48_3 C 0.0348(16) 0.9480(11) 0.5407(10)
H42_3 H 0.043123 0.982500 0.553610
O63_2 O 0.5743(10) 0.4377(7) 0.4067(6)
W2_4 W 0.01991(6) 0.24358(4) 0.37028(3)
W4_4 W 0.09188(6) 0.12020(4) 0.16860(4)
W5_4 W 0.09114(6) 0.31843(4) 0.14672(4)
W8_4 W 0.12151(6) 0.33517(4) 0.28433(4)
W9_4 W 0.12382(6) 0.13909(4) 0.31226(4)
W11_4 W 0.22076(6) 0.23056(5) 0.22408(4)
Cu1_2 Cu 0.49052(16) 0.22887(10) 0.23049(9)
O1_4 O 0.7128(10) 0.4803(6) 0.1021(6)
O3_4 O 0.4018(10) 0.0435(6) 0.0299(6)
O4_4 O 0.5554(9) 0.4267(6) 0.0418(6)
N1_4 N 0.4896(8) 0.1720(5) 0.1730(5)
C1_4 C 0.5523(8) 0.1742(5) 0.1369(5)
H1_4 H 0.597524 0.199583 0.140798
C2_4 C 0.5484(9) 0.1389(6) 0.0950(5)
H2_4 H 0.590989 0.140428 0.070476
C3_4 C 0.4818(10) 0.1015(6) 0.0893(6)
C4_4 C 0.4192(9) 0.0993(6) 0.1254(6)
H3_4 H 0.373991 0.073886 0.121525
C5_4 C 0.4231(8) 0.1346(6) 0.1673(5)
H4_4 H 0.380485 0.133084 0.191845
O7_4 O 0.3334(9) 0.2252(6) 0.2229(5)
N2_4 N 0.4862(8) 0.2883(5) 0.1722(5)
C6_4 C 0.4110(8) 0.2965(6) 0.1380(5)
H5_4 H 0.360937 0.275065 0.140244
C7_4 C 0.4091(9) 0.3360(6) 0.1006(5)
H6_4 H 0.357822 0.341522 0.077299
C8_4 C 0.4826(9) 0.3673(5) 0.0973(5)
C9_4 C 0.5578(8) 0.3592(6) 0.1315(5)
H7_4 H 0.607848 0.380644 0.129278
C10_4 C 0.5597(8) 0.3197(6) 0.1689(5)
H8_4 H 0.610981 0.314140 0.192167
O12_4 O 0.7487(9) 0.4195(7) 0.0055(6)
O15_4 O 0.7323(10) 0.5723(6) 0.0467(7)
H11_4 H 0.704830 0.605873 0.038866
H12_4 H 0.739649 0.574858 0.084235
O17_4 O 0.0505(10) 0.1551(7) 0.1028(7)
O19_4 O 0.1071(9) 0.1886(6) 0.3680(7)
O21_4 O 0.1938(10) 0.0961(7) 0.3450(6)
O23_4 O 0.4313(12) 0.4537(8) 0.3843(7)
O27_4 O 0.0008(9) 0.3559(6) 0.2806(6)
O29_4 O 0.1007(10) 0.2891(8) 0.3406(7)
O30_4 O 0.0116(10) 0.1082(6) 0.3254(6)
C11_4 C 0.4825(14) 0.4140(9) 0.0567(8)
O32_4 O 0.2173(10) 0.0362(7) 0.0130(7)
C12_4 C 0.4364(8) 0.1262(6) 0.3607(6)
H13_4 H 0.389105 0.120773 0.381444
C13_4 C 0.5127(9) 0.0974(5) 0.3704(5)
C14_4 C 0.5817(8) 0.1053(5) 0.3401(6)
H14_4 H 0.633981 0.085524 0.346731
C15_4 C 0.5744(8) 0.1419(5) 0.3002(5)
H15_4 H 0.621647 0.147330 0.279476
N3_4 N 0.4981(8) 0.1707(5) 0.2905(5)
C16_4 C 0.4291(8) 0.1628(6) 0.3208(5)
H16_4 H 0.376784 0.182585 0.314115
O34_4 O 0.0041(10) 0.1986(7) 0.2860(6)
O36_4 O 0.1209(12) 0.3583(8) 0.2100(6)
O38_4 O 0.6863(9) 0.4755(7) 0.1877(6)
O41_4 O 0.0801(10) 0.2632(7) 0.2236(6)
C17_4 C 0.4988(15) 0.4266(9) 0.3819(9)
O42_4 O 0.2219(11) 0.2922(7) 0.2699(6)
O43_4 O 0.1075(12) 0.1109(7) 0.2445(7)
C18_4 C 0.7359(14) 0.4787(9) 0.1511(10)
C20_4 C 0.5248(15) 0.0584(9) 0.4176(9)
O44_4 O 0.1279(12) 0.3613(7) 0.1028(6)
O48_4 O 0.2004(13) 0.1879(8) 0.2833(6)
C21_4 C 0.4760(17) 0.0641(9) 0.0397(9)
O49_4 O 0.0501(10) 0.2597(7) 0.1015(7)
O50_4 O 0.1778(12) 0.3858(7) 0.3148(7)
O52_4 O 0.1806(13) 0.1753(9) 0.1786(6)
O53_4 O 0.1955(14) 0.2780(8) 0.1644(6)
H21_4 H 0.074627 0.093214 0.015673
C29_4 C 0.8922(11) 0.4633(6) 0.1298(5)
H25_4 H 0.868793 0.455531 0.094927
C30_4 C 0.8365(9) 0.4756(6) 0.1674(5)
C31_4 C 0.8706(8) 0.4869(6) 0.2182(5)
H26_4 H 0.832375 0.495349 0.244052
C32_4 C 0.9602(9) 0.4861(6) 0.2314(5)
H27_4 H 0.983617 0.493881 0.266271
C33_4 C 0.9818(10) 0.4624(6) 0.1430(6)
O57_4 O 0.0350(11) 0.2580(9) 0.4353(6)
O59_4 O 0.1515(11) 0.0716(7) 0.1442(7)
C36_4 C 0.9144(14) 0.3744(9) 0.0027(8)
H31_4 H 0.870740 0.357165 0.020158
C37_4 C 0.4232(9) 0.3660(6) 0.3164(6)
H32_4 H 0.373601 0.388193 0.316559
C38_4 C 0.4997(10) 0.3775(6) 0.3480(6)
C39_4 C 0.5723(9) 0.3450(6) 0.3477(6)
H33_4 H 0.624560 0.352827 0.369370
C40_4 C 0.5683(9) 0.3010(6) 0.3158(6)
H34_4 H 0.617837 0.278853 0.315614
N7_4 N 0.4917(9) 0.2895(5) 0.2841(5)
C41_4 C 0.4192(8) 0.3220(6) 0.2844(5)
H35_4 H 0.366896 0.314214 0.262776
O64_2 O 0.6477(9) 0.2258(6) 0.2380(6)
H10_4 H 0.294840 0.019542 0.924604
O25_4 O 0.7980(9) 0.4966(6) 0.9753(7)
C19_4 C 0.8058(13) 0.4479(10) 0.9870(8)
C22_4 C 0.8962(12) 0.4226(9) 0.9808(8)
C24_4 C 0.0301(10) 0.0141(6) 0.9174(6)
C25_4 C 0.0750(8) 0.0348(6) 0.9621(6)
C26_4 C 0.0438(9) 0.0790(6) 0.9850(6)
C35_4 C 0.1587(18) 0.0066(12) 0.9856(9)
C48_4 C 0.9652(16) 0.4480(11) 0.9593(10)
H42_4 H 0.956877 0.482500 0.946390
O37_4 O 0.2607(10) 0.9822(8) 0.1023(6)
H17_4 H 0.210614 0.997354 0.094071
H18_4 H 0.247318 0.953033 0.116867
O47_4 O 0.3071(13) 0.8722(8) 0.0006(10)
O51_4 O 0.2298(13) 0.8618(8) 0.0719(8)
C23_4 C 0.2731(18) 0.8457(8) 0.0353(11)
N8_4 N 0.2929(12) 0.6790(6) 0.0223(9)
H39_4 H 0.298655 0.645013 0.020441
C45_4 C 0.2606(12) 0.7012(8) 0.0655(8)
H40_4 H 0.244639 0.679699 0.093301
C46_4 C 0.2515(12) 0.7545(8) 0.0685(7)
H41_4 H 0.229238 0.769761 0.098277
C47_4 C 0.2746(11) 0.7856(6) 0.0282(8)
O10_4 O 0.3155(10) 0.9878(8) 0.9280(6)
H9_4 H 0.275251 0.968528 0.910673
O26_4 O 0.1672(10) 0.9588(7) 0.9830(7)
H20_4 H 0.051604 0.983766 0.901627
C43_4 C 0.3069(11) 0.7634(7) 0.9850(7)
H37_4 H 0.322841 0.784888 0.957203
C44_4 C 0.3160(11) 0.7101(8) 0.9821(7)
H38_4 H 0.338332 0.694849 0.952284
W1_4 W 0.95981(6) 0.20857(4) 0.09059(3)
W3_4 W 0.85241(6) 0.31697(4) 0.15153(4)
W6_4 W 0.76033(6) 0.22961(4) 0.23552(4)
W7_4 W 0.89556(6) 0.13700(4) 0.31659(4)
W10_4 W 0.86294(6) 0.12015(4) 0.17278(4)
W12_4 W 0.88313(7) 0.33524(4) 0.28813(4)
Si1_4 Si 0.9903(4) 0.2274(2) 0.2301(2)
O8_4 O 0.7962(10) 0.0692(6) 0.1505(6)
O13_4 O 0.9257(10) 0.2894(8) 0.3451(7)
O14_4 O 0.7557(11) 0.2781(7) 0.1754(6)
O16_4 O 0.9770(10) 0.0891(6) 0.1679(7)
O20_4 O 0.8489(13) 0.3583(9) 0.2141(7)
O22_4 O 0.8766(10) 0.2600(7) 0.1064(7)
O24_4 O 0.9330(11) 0.1876(6) 0.3716(7)
O28_4 O 0.7786(14) 0.2917(8) 0.2805(6)
O31_4 O 0.9719(10) 0.3404(6) 0.1478(7)
O33_4 O 0.8833(11) 0.1083(8) 0.2478(6)
O35_4 O 0.8771(12) 0.1567(8) 0.1084(8)
O39_4 O 0.9018(11) 0.2641(7) 0.2265(6)
O40_4 O 0.7942(9) 0.3586(6) 0.1085(7)
O45_4 O 0.7809(13) 0.1735(9) 0.1880(6)
O46_4 O 0.8033(12) 0.1849(8) 0.2916(6)
O54_4 O 0.9810(11) 0.1856(8) 0.1816(7)
O55_4 O 0.9423(11) 0.2073(8) 0.0247(6)
O56_4 O 0.8395(11) 0.0965(6) 0.3530(7)
O58_4 O 0.8396(10) 0.3858(7) 0.3189(6)
C27_3 C 0.0324(9) 0.8976(5) 0.0370(6)
H22_3 H 0.053938 0.867240 0.021240
N5_3 N 0.0773(8) 0.9182(6) 0.0817(6)
H23_3 H 0.125657 0.903281 0.095581
C28_3 C 0.0461(9) 0.9624(6) 0.1045(5)
H24_3 H 0.076975 0.976632 0.135233
N4_2 N 0.9380(12) 0.6222(9) 0.0218(8)
H19_2 H 0.884649 0.634756 0.021210
C34_2 C 0.9989(17) 0.6515(12) -0.0000(9)
C42_2 C 0.9534(16) 0.5766(11) 0.0436(10)
H36_2 H 0.909477 0.559994 0.061344
N6_2 N 0.9841(8) 0.5262(6) 0.8062(7)
H28_2 H 0.927167 0.526711 0.797870
H29_2 H 0.980004 0.545969 0.882855
C34_3 C 0.9989(17) 0.6515(12) 1.0000(9)
H30_2 H 0.987196 0.685871 0.987500
N4_3 N 0.9380(12) 0.8778(9) 0.5218(8)
H19_3 H 0.884649 0.865244 0.521210
N6_3 N 0.9841(8) 0.9738(6) 0.3062(7)
H28_3 H 0.927167 0.973289 0.297870
H29_3 H 0.980004 0.954031 0.382855
C34_4 C 0.9989(17) 0.8485(12) 0.5000(9)
H30_3 H 0.987196 0.814129 0.487500
C42_3 C 0.9534(16) 0.9234(11) 0.5436(10)
H36_3 H 0.909477 0.940006 0.561344
N6_4 N 0.0159(8) 0.4738(6) 0.1938(7)
H28_4 H 0.072833 0.473289 0.202130
H29_4 H 0.019996 0.454031 0.117145
C34_5 C 0.0011(17) 0.3485(12) 0.0000(9)
H30_4 H 0.012804 0.314129 0.012500
N4_4 N 0.0620(12) 0.3778(9) 0.9782(8)
H19_4 H 0.115351 0.365244 0.978790
C34_6 C 0.0011(17) 0.3485(12) 1.0000(9)
C42_4 C 0.0466(16) 0.4234(11) 0.9564(10)
H36_4 H 0.090523 0.440006 0.938656
C27_4 C 0.9676(9) 0.1024(5) 0.9630(6)
H22_4 H 0.946062 0.132760 0.978760
N5_4 N 0.9227(8) 0.0818(6) 0.9183(6)
H23_4 H 0.874343 0.096719 0.904419
C28_4 C 0.9539(9) 0.0376(6) 0.8955(5)
H24_4 H 0.923025 0.023368 0.864767
loop_
_geom_bond_atom_site_label_1
_geom_bond_atom_site_label_2
_geom_bond_site_symmetry_1
_geom_bond_site_symmetry_2
N4 H19 1_555 1_555
H28 N6 1_555 1_555
C34 N4 1_555 1_555
H30 C34 1_555 1_555
C42 N4 1_555 1_555
H36 C42 1_555 1_555
W8 O27 1_555 1_555
W9 O19 1_555 1_555
W11 O7 1_555 1_555
Tb1 O1 1_555 1_555
Tb2 O3 1_555 1_555
Cu1 N1 1_555 1_555
O1 C18 1_555 1_555
O2 C11 1_555 1_555
O3 C21 1_555 1_555
O4 Tb1 1_555 1_555
N1 C1 1_555 1_555
C1 H1 1_555 1_555
C2 C1 1_555 1_555
H2 C2 1_555 1_555
C3 C2 1_555 1_555
C4 C3 1_555 1_555
H3 C4 1_555 1_555
C5 N1 1_555 1_555
H4 C5 1_555 1_555
O5 C20 1_555 1_555
O6 C20 1_555 1_555
O7 Cu1 1_555 1_555
N2 Cu1 1_555 1_555
C6 N2 1_555 1_555
H5 C6 1_555 1_555
C7 C6 1_555 1_555
H6 C7 1_555 1_555
C8 C7 1_555 1_555
C9 C8 1_555 1_555
H7 C9 1_555 1_555
C10 N2 1_555 1_555
H8 C10 1_555 1_555
O9 C17 1_555 1_555
O10 Tb2 1_555 1_555
H9 O10 1_555 1_555
H10 O10 1_555 1_555
O12 Tb1 1_555 1_555
O17 W4 1_555 1_555
O18 C21 1_555 1_555
O19 W2 1_555 1_555
O21 W9 1_555 1_555
O23 C17 1_555 1_555
O25 Tb1 1_555 1_555
O26 Tb2 1_555 1_555
O29 W2 1_555 1_555
C11 O4 1_555 1_555
O32 Tb2 1_555 1_555
C12 H13 1_555 1_555
C13 C12 1_555 1_555
C14 C13 1_555 1_555
H14 C14 1_555 1_555
C15 C14 1_555 1_555
H15 C15 1_555 1_555
N3 Cu1 1_555 1_555
C16 C12 1_555 1_555
H16 C16 1_555 1_555
O34 W2 1_555 1_555
O36 W5 1_555 1_555
O37 Tb2 1_555 1_555
H17 O37 1_555 1_555
H18 O37 1_555 1_555
O38 C18 1_555 1_555
O41 W5 1_555 1_555
C17 C38 1_555 1_555
O42 W8 1_555 1_555
O43 W4 1_555 1_555
C18 C30 1_555 1_555
C19 O12 1_555 1_555
C20 C13 1_555 1_555
O44 W5 1_555 1_555
O47 Tb2 1_555 1_555
O48 W9 1_555 1_555
C21 C3 1_555 1_555
O50 W8 1_555 1_555
O51 C23 1_555 1_555
C22 C19 1_555 1_555
O52 W4 1_555 1_555
O53 W5 1_555 1_555
C23 O47 1_555 1_555
C24 H20 1_555 1_555
C25 C24 1_555 1_555
C26 C25 1_555 1_555
H21 C26 1_555 1_555
C29 H25 1_555 1_555
C30 C29 1_555 1_555
C31 C30 1_555 1_555
H26 C31 1_555 1_555
C32 C31 1_555 1_555
H27 C32 1_555 1_555
C33 C29 1_555 1_555
C35 O26 1_555 1_555
O57 W2 1_555 1_555
O59 W4 1_555 1_555
C36 C22 1_555 1_555
H31 C36 1_555 1_555
C37 H32 1_555 1_555
C38 C37 1_555 1_555
C39 C38 1_555 1_555
H33 C39 1_555 1_555
C40 C39 1_555 1_555
H34 C40 1_555 1_555
N7 Cu1 1_555 1_555
C41 C37 1_555 1_555
H35 C41 1_555 1_555
C43 H37 1_555 1_555
C44 C43 1_555 1_555
H38 C44 1_555 1_555
N8 C44 1_555 1_555
H39 N8 1_555 1_555
C45 N8 1_555 1_555
H40 C45 1_555 1_555
C46 C45 1_555 1_555
H41 C46 1_555 1_555
C47 C23 1_555 1_555
C48 C22 1_555 1_555
H42 C48 1_555 1_555
Tb3 O5 1_555 1_555
Tb6 O9 1_555 1_555
Tb7 O18 1_555 1_555
O62 Tb1 1_555 1_555
O63 Tb2 1_555 1_555
O64 Cu1 1_555 1_555
O65 Tb2 1_555 1_555
W5 O49 1_555 1_555
W8 O29 1_555 1_555
W8 O36 1_555 1_555
W8 O41 1_555 1_555
W9 O30 1_555 1_555
W9 O34 1_555 1_555
W9 O43 1_555 1_555
W11 O41 1_555 1_555
W11 O42 1_555 1_555
W11 O48 1_555 1_555
W11 O52 1_555 1_555
W11 O53 1_555 1_555
C4 C5 1_555 1_555
C8 C11 1_555 1_555
C9 C10 1_555 1_555
O25 C19 1_555 1_555
O32 C35 1_555 1_555
C15 N3 1_555 1_555
N3 C16 1_555 1_555
C25 C35 1_555 1_555
C40 N7 1_555 1_555
N7 C41 1_555 1_555
C43 C47 1_555 1_555
C46 C47 1_555 1_555
H11 O15 1_555 1_555
H12 O15 1_555 1_555
W3 O14 1_555 1_555
W6 O64 1_555 1_555
W7 O24 1_555 1_555
W10 O8 1_555 1_555
W12 O13 1_555 1_555
O14 W6 1_555 1_555
O16 W10 1_555 1_555
O20 W3 1_555 1_555
O22 W1 1_555 1_555
O28 W6 1_555 1_555
O31 W3 1_555 1_555
O33 W7 1_555 1_555
O35 W1 1_555 1_555
O39 W3 1_555 1_555
O40 W3 1_555 1_555
O45 W6 1_555 1_555
O46 W6 1_555 1_555
H22 C27 1_555 1_555
N5 C27 1_555 1_555
H23 N5 1_555 1_555
H24 C28 1_555 1_555
O54 W1 1_555 1_555
O55 W1 1_555 1_555
O56 W7 1_555 1_555
O58 W12 1_555 1_555
W3 O22 1_555 1_555
W6 O39 1_555 1_555
W7 O46 1_555 1_555
W10 O33 1_555 1_555
W10 O35 1_555 1_555
W10 O45 1_555 1_555
W10 O54 1_555 1_555
W12 O20 1_555 1_555
W12 O28 1_555 1_555
W12 O39 1_555 1_555
Si1 O39 1_555 1_555
Si1 O54 1_555 1_555
N5 C28 1_555 1_555
W3_2 O14_2 1_555 1_555
W6_2 O11 1_555 1_555
W7_2 O24_2 1_555 1_555
W10_2 O8_2 1_555 1_555
W12_2 O13_2 1_555 1_555
O11 Cu2 1_555 1_555
O14_2 W6_2 1_555 1_555
O16_2 W10_2 1_555 1_555
O20_2 W3_2 1_555 1_555
O22_2 W1_2 1_555 1_555
O28_2 W6_2 1_555 1_555
O31_2 W3_2 1_555 1_555
O33_2 W7_2 1_555 1_555
O35_2 W1_2 1_555 1_555
O39_2 W3_2 1_555 1_555
O40_2 W3_2 1_555 1_555
O45_2 W6_2 1_555 1_555
O46_2 W6_2 1_555 1_555
O54_2 W1_2 1_555 1_555
O55_2 W1_2 1_555 1_555
O56_2 W7_2 1_555 1_555
O58_2 W12_2 1_555 1_555
W3_2 O22_2 1_555 1_555
W6_2 O39_2 1_555 1_555
W7_2 O46_2 1_555 1_555
W10_2 O33_2 1_555 1_555
W10_2 O35_2 1_555 1_555
W10_2 O45_2 1_555 1_555
W10_2 O54_2 1_555 1_555
W12_2 O20_2 1_555 1_555
W12_2 O28_2 1_555 1_555
W12_2 O39_2 1_555 1_555
Si1_2 O39_2 1_555 1_555
Si1_2 O54_2 1_555 1_555
H9_2 O10_2 1_555 1_555
C43_2 H37_2 1_555 1_555
C44_2 C43_2 1_555 1_555
H38_2 C44_2 1_555 1_555
O37_2 Tb6 1_555 1_555
H17_2 O37_2 1_555 1_555
H18_2 O37_2 1_555 1_555
O47_2 Tb6 1_555 1_555
O51_2 C23_2 1_555 1_555
C23_2 O47_2 1_555 1_555
H39_2 N8_2 1_555 1_555
C45_2 N8_2 1_555 1_555
H40_2 C45_2 1_555 1_555
C46_2 C45_2 1_555 1_555
H41_2 C46_2 1_555 1_555
C47_2 C23_2 1_555 1_555
C46_2 C47_2 1_555 1_555
C22_2 C19_2 1_555 1_555
C25_2 C24_2 1_555 1_555
C26_2 C25_2 1_555 1_555
C48_2 C22_2 1_555 1_555
H42_2 C48_2 1_555 1_555
O25_2 C19_2 1_555 1_555
C25_2 C35_2 1_555 1_555
W8_2 O27_2 1_555 1_555
W9_2 O19_2 1_555 1_555
W11_2 O7_2 1_555 1_555
Tb3 O1_2 1_555 1_555
Cu2 N1_2 1_555 1_555
O1_2 C18_2 1_555 1_555
O2_2 C11_2 1_555 1_555
O3_2 C21_2 1_555 1_555
O4_2 Tb3 1_555 1_555
N1_2 C1_2 1_555 1_555
C1_2 H1_2 1_555 1_555
C2_2 C1_2 1_555 1_555
H2_2 C2_2 1_555 1_555
C3_2 C2_2 1_555 1_555
C4_2 C3_2 1_555 1_555
H3_2 C4_2 1_555 1_555
C5_2 N1_2 1_555 1_555
H4_2 C5_2 1_555 1_555
O61 C20_2 1_555 1_555
O6_2 C20_2 1_555 1_555
O7_2 Cu2 1_555 1_555
N2_2 Cu2 1_555 1_555
C6_2 N2_2 1_555 1_555
H5_2 C6_2 1_555 1_555
C7_2 C6_2 1_555 1_555
H6_2 C7_2 1_555 1_555
C8_2 C7_2 1_555 1_555
C9_2 C8_2 1_555 1_555
H7_2 C9_2 1_555 1_555
C10_2 N2_2 1_555 1_555
H8_2 C10_2 1_555 1_555
O63 C17_2 1_555 1_555
O12_2 Tb3 1_555 1_555
O15_2 Tb3 1_555 1_555
H11_2 O15_2 1_555 1_555
H12_2 O15_2 1_555 1_555
O17_2 W4_2 1_555 1_555
O18_2 C21_2 1_555 1_555
O19_2 W2_2 1_555 1_555
O21_2 W9_2 1_555 1_555
O23_2 C17_2 1_555 1_555
O29_2 W2_2 1_555 1_555
C11_2 O4_2 1_555 1_555
C12_2 H13_2 1_555 1_555
C13_2 C12_2 1_555 1_555
C14_2 C13_2 1_555 1_555
H14_2 C14_2 1_555 1_555
C15_2 C14_2 1_555 1_555
H15_2 C15_2 1_555 1_555
N3_2 Cu2 1_555 1_555
C16_2 C12_2 1_555 1_555
H16_2 C16_2 1_555 1_555
O34_2 W2_2 1_555 1_555
O36_2 W5_2 1_555 1_555
O38_2 C18_2 1_555 1_555
O41_2 W5_2 1_555 1_555
C17_2 C38_2 1_555 1_555
O42_2 W8_2 1_555 1_555
O43_2 W4_2 1_555 1_555
C18_2 C30_2 1_555 1_555
C20_2 C13_2 1_555 1_555
O44_2 W5_2 1_555 1_555
O48_2 W9_2 1_555 1_555
C21_2 C3_2 1_555 1_555
O50_2 W8_2 1_555 1_555
O52_2 W4_2 1_555 1_555
O53_2 W5_2 1_555 1_555
C29_2 H25_2 1_555 1_555
C30_2 C29_2 1_555 1_555
C31_2 C30_2 1_555 1_555
H26_2 C31_2 1_555 1_555
C32_2 C31_2 1_555 1_555
H27_2 C32_2 1_555 1_555
C33_2 C29_2 1_555 1_555
O57_2 W2_2 1_555 1_555
O59_2 W4_2 1_555 1_555
H31_2 C36_2 1_555 1_555
C37_2 H32_2 1_555 1_555
C38_2 C37_2 1_555 1_555
C39_2 C38_2 1_555 1_555
H33_2 C39_2 1_555 1_555
C40_2 C39_2 1_555 1_555
H34_2 C40_2 1_555 1_555
N7_2 Cu2 1_555 1_555
C41_2 C37_2 1_555 1_555
H35_2 C41_2 1_555 1_555
Tb4 O6_2 1_555 1_555
W5_2 O49_2 1_555 1_555
W8_2 O29_2 1_555 1_555
W8_2 O36_2 1_555 1_555
W8_2 O41_2 1_555 1_555
W9_2 O30_2 1_555 1_555
W9_2 O34_2 1_555 1_555
W9_2 O43_2 1_555 1_555
W11_2 O41_2 1_555 1_555
W11_2 O42_2 1_555 1_555
W11_2 O48_2 1_555 1_555
W11_2 O52_2 1_555 1_555
W11_2 O53_2 1_555 1_555
C4_2 C5_2 1_555 1_555
C8_2 C11_2 1_555 1_555
C9_2 C10_2 1_555 1_555
C15_2 N3_2 1_555 1_555
N3_2 C16_2 1_555 1_555
C40_2 N7_2 1_555 1_555
N7_2 C41_2 1_555 1_555
W3_3 O14_3 1_555 1_555
W6_3 O11_2 1_555 1_555
W7_3 O24_3 1_555 1_555
W10_3 O8_3 1_555 1_555
W12_3 O13_3 1_555 1_555
O11_2 Cu2_2 1_555 1_555
O14_3 W6_3 1_555 1_555
O16_3 W10_3 1_555 1_555
O20_3 W3_3 1_555 1_555
O22_3 W1_3 1_555 1_555
O28_3 W6_3 1_555 1_555
O31_3 W3_3 1_555 1_555
O33_3 W7_3 1_555 1_555
O35_3 W1_3 1_555 1_555
O39_3 W3_3 1_555 1_555
O40_3 W3_3 1_555 1_555
O45_3 W6_3 1_555 1_555
O46_3 W6_3 1_555 1_555
H22_2 C27_2 1_555 1_555
N5_2 C27_2 1_555 1_555
H23_2 N5_2 1_555 1_555
H24_2 C28_2 1_555 1_555
O54_3 W1_3 1_555 1_555
O55_3 W1_3 1_555 1_555
O56_3 W7_3 1_555 1_555
O58_3 W12_3 1_555 1_555
W3_3 O22_3 1_555 1_555
W6_3 O39_3 1_555 1_555
W7_3 O46_3 1_555 1_555
W10_3 O33_3 1_555 1_555
W10_3 O35_3 1_555 1_555
W10_3 O45_3 1_555 1_555
W10_3 O54_3 1_555 1_555
W12_3 O20_3 1_555 1_555
W12_3 O28_3 1_555 1_555
W12_3 O39_3 1_555 1_555
Si1_3 O39_3 1_555 1_555
Si1_3 O54_3 1_555 1_555
N5_2 C28_2 1_555 1_555
H11_3 O15_3 1_555 1_555
H12_3 O15_3 1_555 1_555
W8_3 O27_3 1_555 1_555
W9_3 O19_3 1_555 1_555
W11_3 O7_3 1_555 1_555
Tb4 O1_3 1_555 1_555
Tb7 O3_3 1_555 1_555
Cu2_2 N1_3 1_555 1_555
O1_3 C18_3 1_555 1_555
O60 C11_3 1_555 1_555
O3_3 C21_3 1_555 1_555
O4_3 Tb4 1_555 1_555
N1_3 C1_3 1_555 1_555
C1_3 H1_3 1_555 1_555
C2_3 C1_3 1_555 1_555
H2_3 C2_3 1_555 1_555
C3_3 C2_3 1_555 1_555
C4_3 C3_3 1_555 1_555
H3_3 C4_3 1_555 1_555
C5_3 N1_3 1_555 1_555
H4_3 C5_3 1_555 1_555
O5_2 C20_3 1_555 1_555
O62_2 C20_3 1_555 1_555
O7_3 Cu2_2 1_555 1_555
N2_3 Cu2_2 1_555 1_555
C6_3 N2_3 1_555 1_555
H5_3 C6_3 1_555 1_555
C7_3 C6_3 1_555 1_555
H6_3 C7_3 1_555 1_555
C8_3 C7_3 1_555 1_555
C9_3 C8_3 1_555 1_555
H7_3 C9_3 1_555 1_555
C10_3 N2_3 1_555 1_555
H8_3 C10_3 1_555 1_555
O9_2 C17_3 1_555 1_555
O10_3 Tb7 1_555 1_555
H9_3 O10_3 1_555 1_555
H10_3 O10_3 1_555 1_555
O12_3 Tb4 1_555 1_555
O17_3 W4_3 1_555 1_555
O65 C21_3 1_555 1_555
O19_3 W2_3 1_555 1_555
O21_3 W9_3 1_555 1_555
O23_3 C17_3 1_555 1_555
O25_3 Tb4 1_555 1_555
O26_3 Tb7 1_555 1_555
O29_3 W2_3 1_555 1_555
C11_3 O4_3 1_555 1_555
O32_3 Tb7 1_555 1_555
C12_3 H13_3 1_555 1_555
C13_3 C12_3 1_555 1_555
C14_3 C13_3 1_555 1_555
H14_3 C14_3 1_555 1_555
C15_3 C14_3 1_555 1_555
H15_3 C15_3 1_555 1_555
N3_3 Cu2_2 1_555 1_555
C16_3 C12_3 1_555 1_555
H16_3 C16_3 1_555 1_555
O34_3 W2_3 1_555 1_555
O36_3 W5_3 1_555 1_555
O37_3 Tb7 1_555 1_555
H17_3 O37_3 1_555 1_555
H18_3 O37_3 1_555 1_555
O38_3 C18_3 1_555 1_555
O41_3 W5_3 1_555 1_555
C17_3 C38_3 1_555 1_555
O42_3 W8_3 1_555 1_555
O43_3 W4_3 1_555 1_555
C18_3 C30_3 1_555 1_555
C19_3 O12_3 1_555 1_555
C20_3 C13_3 1_555 1_555
O44_3 W5_3 1_555 1_555
O47_3 Tb7 1_555 1_555
O48_3 W9_3 1_555 1_555
C21_3 C3_3 1_555 1_555
O50_3 W8_3 1_555 1_555
O51_3 C23_3 1_555 1_555
C22_3 C19_3 1_555 1_555
O52_3 W4_3 1_555 1_555
O53_3 W5_3 1_555 1_555
C23_3 O47_3 1_555 1_555
C24_3 H20_3 1_555 1_555
C25_3 C24_3 1_555 1_555
C26_3 C25_3 1_555 1_555
H21_3 C26_3 1_555 1_555
C29_3 H25_3 1_555 1_555
C30_3 C29_3 1_555 1_555
C31_3 C30_3 1_555 1_555
H26_3 C31_3 1_555 1_555
C32_3 C31_3 1_555 1_555
H27_3 C32_3 1_555 1_555
C33_3 C29_3 1_555 1_555
C35_3 O26_3 1_555 1_555
O57_3 W2_3 1_555 1_555
O59_3 W4_3 1_555 1_555
C36_3 C22_3 1_555 1_555
H31_3 C36_3 1_555 1_555
C37_3 H32_3 1_555 1_555
C38_3 C37_3 1_555 1_555
C39_3 C38_3 1_555 1_555
H33_3 C39_3 1_555 1_555
C40_3 C39_3 1_555 1_555
H34_3 C40_3 1_555 1_555
N7_3 Cu2_2 1_555 1_555
C41_3 C37_3 1_555 1_555
H35_3 C41_3 1_555 1_555
C43_3 H37_3 1_555 1_555
C44_3 C43_3 1_555 1_555
H38_3 C44_3 1_555 1_555
N8_3 C44_3 1_555 1_555
H39_3 N8_3 1_555 1_555
C45_3 N8_3 1_555 1_555
H40_3 C45_3 1_555 1_555
C46_3 C45_3 1_555 1_555
H41_3 C46_3 1_555 1_555
C47_3 C23_3 1_555 1_555
C48_3 C22_3 1_555 1_555
H42_3 C48_3 1_555 1_555
Tb5 O5_2 1_555 1_555
Tb7_2 O9_2 1_555 1_555
O63_2 Tb7 1_555 1_555
W5_3 O49_3 1_555 1_555
W8_3 O29_3 1_555 1_555
W8_3 O36_3 1_555 1_555
W8_3 O41_3 1_555 1_555
W9_3 O30_3 1_555 1_555
W9_3 O34_3 1_555 1_555
W9_3 O43_3 1_555 1_555
W11_3 O41_3 1_555 1_555
W11_3 O42_3 1_555 1_555
W11_3 O48_3 1_555 1_555
W11_3 O52_3 1_555 1_555
W11_3 O53_3 1_555 1_555
C4_3 C5_3 1_555 1_555
C8_3 C11_3 1_555 1_555
C9_3 C10_3 1_555 1_555
O25_3 C19_3 1_555 1_555
O32_3 C35_3 1_555 1_555
C15_3 N3_3 1_555 1_555
N3_3 C16_3 1_555 1_555
C25_3 C35_3 1_555 1_555
C40_3 N7_3 1_555 1_555
N7_3 C41_3 1_555 1_555
C43_3 C47_3 1_555 1_555
C46_3 C47_3 1_555 1_555
W8_4 O27_4 1_555 1_555
W9_4 O19_4 1_555 1_555
W11_4 O7_4 1_555 1_555
Tb5 O1_4 1_555 1_555
Cu1_2 N1_4 1_555 1_555
O1_4 C18_4 1_555 1_555
O60_2 C11_4 1_555 1_555
O3_4 C21_4 1_555 1_555
O4_4 Tb5 1_555 1_555
N1_4 C1_4 1_555 1_555
C1_4 H1_4 1_555 1_555
C2_4 C1_4 1_555 1_555
H2_4 C2_4 1_555 1_555
C3_4 C2_4 1_555 1_555
C4_4 C3_4 1_555 1_555
H3_4 C4_4 1_555 1_555
C5_4 N1_4 1_555 1_555
H4_4 C5_4 1_555 1_555
O61_2 C20_4 1_555 1_555
O62 C20_4 1_555 1_555
O7_4 Cu1_2 1_555 1_555
N2_4 Cu1_2 1_555 1_555
C6_4 N2_4 1_555 1_555
H5_4 C6_4 1_555 1_555
C7_4 C6_4 1_555 1_555
H6_4 C7_4 1_555 1_555
C8_4 C7_4 1_555 1_555
C9_4 C8_4 1_555 1_555
H7_4 C9_4 1_555 1_555
C10_4 N2_4 1_555 1_555
H8_4 C10_4 1_555 1_555
O63_2 C17_4 1_555 1_555
O12_4 Tb5 1_555 1_555
O15_4 Tb5 1_555 1_555
H11_4 O15_4 1_555 1_555
H12_4 O15_4 1_555 1_555
O17_4 W4_4 1_555 1_555
O65_2 C21_4 1_555 1_555
O19_4 W2_4 1_555 1_555
O21_4 W9_4 1_555 1_555
O23_4 C17_4 1_555 1_555
O29_4 W2_4 1_555 1_555
C11_4 O4_4 1_555 1_555
C12_4 H13_4 1_555 1_555
C13_4 C12_4 1_555 1_555
C14_4 C13_4 1_555 1_555
H14_4 C14_4 1_555 1_555
C15_4 C14_4 1_555 1_555
H15_4 C15_4 1_555 1_555
N3_4 Cu1_2 1_555 1_555
C16_4 C12_4 1_555 1_555
H16_4 C16_4 1_555 1_555
O34_4 W2_4 1_555 1_555
O36_4 W5_4 1_555 1_555
O38_4 C18_4 1_555 1_555
O41_4 W5_4 1_555 1_555
C17_4 C38_4 1_555 1_555
O42_4 W8_4 1_555 1_555
O43_4 W4_4 1_555 1_555
C18_4 C30_4 1_555 1_555
C20_4 C13_4 1_555 1_555
O44_4 W5_4 1_555 1_555
O48_4 W9_4 1_555 1_555
C21_4 C3_4 1_555 1_555
O50_4 W8_4 1_555 1_555
O52_4 W4_4 1_555 1_555
O53_4 W5_4 1_555 1_555
C29_4 H25_4 1_555 1_555
C30_4 C29_4 1_555 1_555
C31_4 C30_4 1_555 1_555
H26_4 C31_4 1_555 1_555
C32_4 C31_4 1_555 1_555
H27_4 C32_4 1_555 1_555
C33_4 C29_4 1_555 1_555
O57_4 W2_4 1_555 1_555
O59_4 W4_4 1_555 1_555
H31_4 C36_4 1_555 1_555
C37_4 H32_4 1_555 1_555
C38_4 C37_4 1_555 1_555
C39_4 C38_4 1_555 1_555
H33_4 C39_4 1_555 1_555
C40_4 C39_4 1_555 1_555
H34_4 C40_4 1_555 1_555
N7_4 Cu1_2 1_555 1_555
C41_4 C37_4 1_555 1_555
H35_4 C41_4 1_555 1_555
O64_2 Cu1_2 1_555 1_555
W5_4 O49_4 1_555 1_555
W8_4 O29_4 1_555 1_555
W8_4 O36_4 1_555 1_555
W8_4 O41_4 1_555 1_555
W9_4 O30_4 1_555 1_555
W9_4 O34_4 1_555 1_555
W9_4 O43_4 1_555 1_555
W11_4 O41_4 1_555 1_555
W11_4 O42_4 1_555 1_555
W11_4 O48_4 1_555 1_555
W11_4 O52_4 1_555 1_555
W11_4 O53_4 1_555 1_555
C4_4 C5_4 1_555 1_555
C8_4 C11_4 1_555 1_555
C9_4 C10_4 1_555 1_555
C15_4 N3_4 1_555 1_555
N3_4 C16_4 1_555 1_555
C40_4 N7_4 1_555 1_555
N7_4 C41_4 1_555 1_555
C22_4 C19_4 1_555 1_555
C25_4 C24_4 1_555 1_555
C26_4 C25_4 1_555 1_555
C48_4 C22_4 1_555 1_555
H42_4 C48_4 1_555 1_555
O25_4 C19_4 1_555 1_555
C25_4 C35_4 1_555 1_555
O37_4 Tb7_2 1_555 1_555
H17_4 O37_4 1_555 1_555
H18_4 O37_4 1_555 1_555
O47_4 Tb7_2 1_555 1_555
O51_4 C23_4 1_555 1_555
C23_4 O47_4 1_555 1_555
H39_4 N8_4 1_555 1_555
C45_4 N8_4 1_555 1_555
H40_4 C45_4 1_555 1_555
C46_4 C45_4 1_555 1_555
H41_4 C46_4 1_555 1_555
C47_4 C23_4 1_555 1_555
C46_4 C47_4 1_555 1_555
H9_4 O10_4 1_555 1_555
C43_4 H37_4 1_555 1_555
C44_4 C43_4 1_555 1_555
H38_4 C44_4 1_555 1_555
W3_4 O14_4 1_555 1_555
W6_4 O64_2 1_555 1_555
W7_4 O24_4 1_555 1_555
W10_4 O8_4 1_555 1_555
W12_4 O13_4 1_555 1_555
O14_4 W6_4 1_555 1_555
O16_4 W10_4 1_555 1_555
O20_4 W3_4 1_555 1_555
O22_4 W1_4 1_555 1_555
O28_4 W6_4 1_555 1_555
O31_4 W3_4 1_555 1_555
O33_4 W7_4 1_555 1_555
O35_4 W1_4 1_555 1_555
O39_4 W3_4 1_555 1_555
O40_4 W3_4 1_555 1_555
O45_4 W6_4 1_555 1_555
O46_4 W6_4 1_555 1_555
O54_4 W1_4 1_555 1_555
O55_4 W1_4 1_555 1_555
O56_4 W7_4 1_555 1_555
O58_4 W12_4 1_555 1_555
W3_4 O22_4 1_555 1_555
W6_4 O39_4 1_555 1_555
W7_4 O46_4 1_555 1_555
W10_4 O33_4 1_555 1_555
W10_4 O35_4 1_555 1_555
W10_4 O45_4 1_555 1_555
W10_4 O54_4 1_555 1_555
W12_4 O20_4 1_555 1_555
W12_4 O28_4 1_555 1_555
W12_4 O39_4 1_555 1_555
Si1_4 O39_4 1_555 1_555
Si1_4 O54_4 1_555 1_555
H22_3 C27_3 1_555 1_555
N5_3 C27_3 1_555 1_555
H23_3 N5_3 1_555 1_555
H24_3 C28_3 1_555 1_555
N5_3 C28_3 1_555 1_555
N4_2 H19_2 1_555 1_555
C34_2 N4_2 1_555 1_555
C42_2 N4_2 1_555 1_555
H36_2 C42_2 1_555 1_555
H28_2 N6_2 1_555 1_555
H30_2 C34_3 1_555 1_555
N4_3 H19_3 1_555 1_555
H28_3 N6_3 1_555 1_555
C34_4 N4_3 1_555 1_555
H30_3 C34_4 1_555 1_555
C42_3 N4_3 1_555 1_555
H36_3 C42_3 1_555 1_555
H28_4 N6_4 1_555 1_555
H30_4 C34_5 1_555 1_555
N4_4 H19_4 1_555 1_555
C34_6 N4_4 1_555 1_555
C42_4 N4_4 1_555 1_555
H36_4 C42_4 1_555 1_555
H22_4 C27_4 1_555 1_555
N5_4 C27_4 1_555 1_555
H23_4 N5_4 1_555 1_555
H24_4 C28_4 1_555 1_555
N5_4 C28_4 1_555 1_555

#END
