
###############################################################################
#
# This file contains modified crystal structure data generated from the
# MOF subset of the Cambridge Structural Database (CSD) v543 
# hosted by the Cambridge Crystallographic Data Centre (CCDC).
#
# This work is licensed under the Creative Commons
# Attribution-NonCommercial-ShareAlike 4.0 International License.
# To view a copy of this license, visit
# http://creativecommons.org/licenses/by-nc-sa/4.0/
# or send a letter to
# Creative Commons, PO Box 1866, Mountain View, CA 94042, USA.
#
# CIF created using the CSD Python API on 29 September 2022
# The structure has been converted into the P1 space group
# The structure has a 3D framework
# The original CSD entry IGOCUD is in the cubic crystal system
# The framework has been calculated to contain at least 10.0% void space
# The void calculation uses a probe of radius 1.32A, grid spacing 0.4
# H atom positions have been added when not included in the experimental data
#
###############################################################################

data_IGOCUD
_chemical_formula_moiety         '(C168 H72 Cl32 N144 Zn38)n'
_symmetry_cell_setting           triclinic
_symmetry_space_group_name_H-M   'P 1'
_symmetry_Int_Tables_number      1
_space_group_name_Hall           'P 1'
loop_
_symmetry_equiv_pos_site_id
_symmetry_equiv_pos_as_xyz
1 x,y,z
_cell_length_a                   21.6265(9)
_cell_length_b                   21.6265(9)
_cell_length_c                   21.6265(9)
_cell_angle_alpha                90
_cell_angle_beta                 90
_cell_angle_gamma                90
_cell_volume                     10114.8
loop_
_atom_site_label
_atom_site_type_symbol
_atom_site_fract_x
_atom_site_fract_y
_atom_site_fract_z
_atom_site_U_iso_or_equiv
_atom_site_thermal_displace_type
Zn5 Zn 0.7500 0.7500 0.2500 0.1280 Uiso
Zn12 Zn 0.8443(2) 0.6557(2) 0.1557(2) 0.1280 Uiso
Zn13 Zn 0.6557(2) 0.8443(2) 0.1557(2) 0.1280 Uiso
N18 N 0.7881(7) 0.7119(5) 0.1184(5) 0.1600 Uiso
N19 N 0.7119(7) 0.7881(5) 0.1184(5) 0.1600 Uiso
N27 N 0.7500(9) 0.7500 0.1441 0.1600 Uiso
C6 C 0.7998 0.7002(10) 0.0000(10) 0.1400 Uiso
C7 C 0.7002 0.7998(10) 0.0000(10) 0.1400 Uiso
C17 C 0.7752(8) 0.7248(8) 0.0539(8) 0.1400 Uiso
C18 C 0.7248(8) 0.7752(8) 0.0539(8) 0.1400 Uiso
H4 H 0.664594 0.835406 0 . .
H6 H 0.835406 0.664594 0 . .
Zn1 Zn 0.7500 0.7500 0.7500 0.1280 Uiso
Zn2 Zn 0.6557(2) 0.6557(2) 0.6557(2) 0.1280 Uiso
Cl1 Cl 0.5938(4) 0.5938(4) 0.5938(4) 0.0900 Uiso
N1 N 0.7119(7) 0.6184(5) 0.7119(5) 0.1600 Uiso
N2 N 0.7500(9) 0.6441 0.7500 0.1600 Uiso
C1 C 0.7002 0.5000(10) 0.7002(10) 0.1400 Uiso
C2 C 0.7248(8) 0.5539(8) 0.7248(8) 0.1400 Uiso
Zn3 Zn 0.7500 0.2500 0.7500 0.1280 Uiso
Zn4 Zn 0.2500 0.7500 0.7500 0.1280 Uiso
Zn6 Zn 0.8443(2) 0.6557(2) 0.8443(2) 0.1280 Uiso
Zn7 Zn 0.8443(2) 0.3443(2) 0.8443(2) 0.1280 Uiso
Zn8 Zn 0.6557(2) 0.3443(2) 0.6557(2) 0.1280 Uiso
Zn9 Zn 0.6557(2) 0.8443(2) 0.8443(2) 0.1280 Uiso
Zn10 Zn 0.3443(2) 0.8443(2) 0.8443(2) 0.1280 Uiso
Zn11 Zn 0.3443(2) 0.6557(2) 0.6557(2) 0.1280 Uiso
Cl2 Cl 0.5938(4) 0.9062(4) 0.9062(4) 0.0900 Uiso
Cl3 Cl 0.4062(4) 0.9062(4) 0.9062(4) 0.0900 Uiso
Cl4 Cl 0.4062(4) 0.5938(4) 0.5938(4) 0.0900 Uiso
N3 N 0.7881(7) 0.6184(5) 0.7881(5) 0.1600 Uiso
N4 N 0.7881(5) 0.3816(5) 0.7881(7) 0.1600 Uiso
N5 N 0.7119(5) 0.3816(5) 0.7119(7) 0.1600 Uiso
N6 N 0.6184(5) 0.7119(5) 0.7119(7) 0.1600 Uiso
N7 N 0.6184(5) 0.7881(5) 0.7881(7) 0.1600 Uiso
N8 N 0.3816(5) 0.7881(7) 0.7881(5) 0.1600 Uiso
N9 N 0.3816(5) 0.7119(7) 0.7119(5) 0.1600 Uiso
N10 N 0.7119(5) 0.7119(7) 0.6184(5) 0.1600 Uiso
N11 N 0.7881(5) 0.7119(7) 0.8816(5) 0.1600 Uiso
N12 N 0.7119(7) 0.8816(5) 0.7881(5) 0.1600 Uiso
N13 N 0.7119(5) 0.7881(7) 0.8816(5) 0.1600 Uiso
N14 N 0.2881(7) 0.7881(5) 0.8816(5) 0.1600 Uiso
N15 N 0.2881(5) 0.8816(5) 0.7881(7) 0.1600 Uiso
N16 N 0.2881(7) 0.7119(5) 0.6184(5) 0.1600 Uiso
N17 N 0.2881(5) 0.6184(5) 0.7119(7) 0.1600 Uiso
N20 N 0.7500 0.3559 0.7500(9) 0.1600 Uiso
N21 N 0.6441 0.7500 0.7500(9) 0.1600 Uiso
N22 N 0.3559 0.7500(9) 0.7500 0.1600 Uiso
N23 N 0.7500 0.7500(9) 0.6441 0.1600 Uiso
N24 N 0.7500(9) 0.8559 0.7500 0.1600 Uiso
N25 N 0.7500 0.7500(9) 0.8559 0.1600 Uiso
N26 N 0.8559 0.7500 0.7500(9) 0.1600 Uiso
C3 C 0.7998 0.5000(10) 0.7998(10) 0.1400 Uiso
C4 C 0.5000(10) 0.7002 0.7002(10) 0.1400 Uiso
C5 C 0.5000(10) 0.7998 0.7998(10) 0.1400 Uiso
C6_2 C 0.7998 0.7002(10) 1.0000(10) 0.1400 Uiso
C7_2 C 0.7002 0.7998(10) 1.0000(10) 0.1400 Uiso
C8 C 0.7752(8) 0.5539(8) 0.7752(8) 0.1400 Uiso
C9 C 0.7752(8) 0.4461(8) 0.7752(8) 0.1400 Uiso
C10 C 0.7248(8) 0.4461(8) 0.7248(8) 0.1400 Uiso
C11 C 0.5539(8) 0.7248(8) 0.7248(8) 0.1400 Uiso
C12 C 0.5539(8) 0.7752(8) 0.7752(8) 0.1400 Uiso
C13 C 0.4461(8) 0.7752(8) 0.7752(8) 0.1400 Uiso
C14 C 0.4461(8) 0.7248(8) 0.7248(8) 0.1400 Uiso
C15 C 0.7752(8) 0.7248(8) 0.9461(8) 0.1400 Uiso
C16 C 0.7248(8) 0.7752(8) 0.9461(8) 0.1400 Uiso
H1 H 0.664594 0.5 0.664594 . .
H2 H 0.835406 0.5 0.835406 . .
H3 H 0.5 0.835406 0.835406 . .
H4_2 H 0.664594 0.835406 1 . .
H5 H 0.5 0.664594 0.664594 . .
H6_2 H 0.835406 0.664594 1 . .
Zn5_2 Zn 0.2500 0.7500 0.2500 0.1280 Uiso
Zn12_2 Zn 0.3443(2) 0.8443(2) 0.1557(2) 0.1280 Uiso
Zn13_2 Zn 0.1557(2) 0.6557(2) 0.1557(2) 0.1280 Uiso
N18_2 N 0.2881(5) 0.7881(7) 0.1184(5) 0.1600 Uiso
N19_2 N 0.2119(5) 0.7119(7) 0.1184(5) 0.1600 Uiso
N27_2 N 0.2500 0.7500(9) 0.1441 0.1600 Uiso
C6_3 C 0.2998(10) 0.7998 0.0000(10) 0.1400 Uiso
C7_3 C 0.2002(10) 0.7002 0.0000(10) 0.1400 Uiso
C17_2 C 0.2752(8) 0.7752(8) 0.0539(8) 0.1400 Uiso
C18_2 C 0.2248(8) 0.7248(8) 0.0539(8) 0.1400 Uiso
H4_3 H 0.164594 0.664594 0 . .
H6_3 H 0.335406 0.835406 0 . .
Zn4_2 Zn 0.2500 0.2500 0.7500 0.1280 Uiso
Zn9_2 Zn 0.1557(2) 0.6557(2) 0.8443(2) 0.1280 Uiso
Zn10_2 Zn 0.1557(2) 0.3443(2) 0.8443(2) 0.1280 Uiso
Zn11_2 Zn 0.3443(2) 0.3443(2) 0.6557(2) 0.1280 Uiso
Cl2_2 Cl 0.0938(4) 0.5938(4) 0.9062(4) 0.0900 Uiso
Cl3_2 Cl 0.0938(4) 0.4062(4) 0.9062(4) 0.0900 Uiso
Cl4_2 Cl 0.4062(4) 0.4062(4) 0.5938(4) 0.0900 Uiso
N7_2 N 0.2119(5) 0.6184(5) 0.7881(7) 0.1600 Uiso
N8_2 N 0.2119(7) 0.3816(5) 0.7881(5) 0.1600 Uiso
N9_2 N 0.2881(7) 0.3816(5) 0.7119(5) 0.1600 Uiso
N12_2 N 0.1184(5) 0.7119(7) 0.7881(5) 0.1600 Uiso
N13_2 N 0.2119(7) 0.7119(5) 0.8816(5) 0.1600 Uiso
N14_2 N 0.2119(5) 0.2881(7) 0.8816(5) 0.1600 Uiso
N15_2 N 0.1184(5) 0.2881(5) 0.7881(7) 0.1600 Uiso
N16_2 N 0.2881(5) 0.2881(7) 0.6184(5) 0.1600 Uiso
N17_2 N 0.3816(5) 0.2881(5) 0.7119(7) 0.1600 Uiso
N21_2 N 0.2500 0.6441 0.7500(9) 0.1600 Uiso
N22_2 N 0.2500(9) 0.3559 0.7500 0.1600 Uiso
N23_2 N 0.2500(9) 0.7500 0.6441 0.1600 Uiso
N24_2 N 0.1441 0.7500(9) 0.7500 0.1600 Uiso
N25_2 N 0.2500(9) 0.7500 0.8559 0.1600 Uiso
N26_2 N 0.2500 0.8559 0.7500(9) 0.1600 Uiso
C4_2 C 0.2998 0.5000(10) 0.7002(10) 0.1400 Uiso
C5_2 C 0.2002 0.5000(10) 0.7998(10) 0.1400 Uiso
C6_4 C 0.2998(10) 0.7998 1.0000(10) 0.1400 Uiso
C7_4 C 0.2002(10) 0.7002 1.0000(10) 0.1400 Uiso
C11_2 C 0.2752(8) 0.5539(8) 0.7248(8) 0.1400 Uiso
C12_2 C 0.2248(8) 0.5539(8) 0.7752(8) 0.1400 Uiso
C13_2 C 0.2248(8) 0.4461(8) 0.7752(8) 0.1400 Uiso
C14_2 C 0.2752(8) 0.4461(8) 0.7248(8) 0.1400 Uiso
C15_2 C 0.2752(8) 0.7752(8) 0.9461(8) 0.1400 Uiso
C16_2 C 0.2248(8) 0.7248(8) 0.9461(8) 0.1400 Uiso
H3_2 H 0.164594 0.5 0.835406 . .
H4_4 H 0.164594 0.664594 1 . .
H5_2 H 0.335406 0.5 0.664594 . .
H6_4 H 0.335406 0.835406 1 . .
Zn1_2 Zn 0.7500 0.2500 0.2500 0.1280 Uiso
Zn2_2 Zn 0.6557(2) 0.3443(2) 0.3443(2) 0.1280 Uiso
Cl1_2 Cl 0.5938(4) 0.4062(4) 0.4062(4) 0.0900 Uiso
N1_2 N 0.7119(7) 0.3816(5) 0.2881(5) 0.1600 Uiso
N2_2 N 0.7500(9) 0.3559 0.2500 0.1600 Uiso
C1_2 C 0.7002 0.5000(10) 0.2998(10) 0.1400 Uiso
C2_2 C 0.7248(8) 0.4461(8) 0.2752(8) 0.1400 Uiso
Zn4_3 Zn 0.2500 0.2500 0.2500 0.1280 Uiso
Zn6_2 Zn 0.8443(2) 0.3443(2) 0.1557(2) 0.1280 Uiso
Zn8_2 Zn 0.6557(2) 0.6557(2) 0.3443(2) 0.1280 Uiso
Zn9_3 Zn 0.6557(2) 0.1557(2) 0.1557(2) 0.1280 Uiso
Zn10_3 Zn 0.3443(2) 0.1557(2) 0.1557(2) 0.1280 Uiso
Zn11_3 Zn 0.3443(2) 0.3443(2) 0.3443(2) 0.1280 Uiso
Cl2_3 Cl 0.5938(4) 0.0938(4) 0.0938(4) 0.0900 Uiso
Cl3_3 Cl 0.4062(4) 0.0938(4) 0.0938(4) 0.0900 Uiso
Cl4_3 Cl 0.4062(4) 0.4062(4) 0.4062(4) 0.0900 Uiso
N3_2 N 0.7881(7) 0.3816(5) 0.2119(5) 0.1600 Uiso
N4_2 N 0.7881(5) 0.6184(5) 0.2119(7) 0.1600 Uiso
N5_2 N 0.7119(5) 0.6184(5) 0.2881(7) 0.1600 Uiso
N6_2 N 0.6184(5) 0.2881(5) 0.2881(7) 0.1600 Uiso
N7_3 N 0.6184(5) 0.2119(5) 0.2119(7) 0.1600 Uiso
N8_3 N 0.3816(5) 0.2119(7) 0.2119(5) 0.1600 Uiso
N9_3 N 0.3816(5) 0.2881(7) 0.2881(5) 0.1600 Uiso
N10_2 N 0.7119(5) 0.2881(7) 0.3816(5) 0.1600 Uiso
N11_2 N 0.7881(5) 0.2881(7) 0.1184(5) 0.1600 Uiso
N12_3 N 0.7119(7) 0.1184(5) 0.2119(5) 0.1600 Uiso
N13_3 N 0.7119(5) 0.2119(7) 0.1184(5) 0.1600 Uiso
N14_3 N 0.2881(7) 0.2119(5) 0.1184(5) 0.1600 Uiso
N15_3 N 0.2881(5) 0.1184(5) 0.2119(7) 0.1600 Uiso
N16_3 N 0.2881(7) 0.2881(5) 0.3816(5) 0.1600 Uiso
N17_3 N 0.2881(5) 0.3816(5) 0.2881(7) 0.1600 Uiso
N20_2 N 0.7500 0.6441 0.2500(9) 0.1600 Uiso
N21_3 N 0.6441 0.2500 0.2500(9) 0.1600 Uiso
N22_3 N 0.3559 0.2500(9) 0.2500 0.1600 Uiso
N23_3 N 0.7500 0.2500(9) 0.3559 0.1600 Uiso
N24_3 N 0.7500(9) 0.1441 0.2500 0.1600 Uiso
N25_3 N 0.7500 0.2500(9) 0.1441 0.1600 Uiso
N26_3 N 0.8559 0.2500 0.2500(9) 0.1600 Uiso
C3_2 C 0.7998 0.5000(10) 0.2002(10) 0.1400 Uiso
C4_3 C 0.5000(10) 0.2998 0.2998(10) 0.1400 Uiso
C5_3 C 0.5000(10) 0.2002 0.2002(10) 0.1400 Uiso
C6_5 C 0.7998 0.2998(10) 0.0000(10) 0.1400 Uiso
C7_5 C 0.7002 0.2002(10) 0.0000(10) 0.1400 Uiso
C8_2 C 0.7752(8) 0.4461(8) 0.2248(8) 0.1400 Uiso
C9_2 C 0.7752(8) 0.5539(8) 0.2248(8) 0.1400 Uiso
C10_2 C 0.7248(8) 0.5539(8) 0.2752(8) 0.1400 Uiso
C11_3 C 0.5539(8) 0.2752(8) 0.2752(8) 0.1400 Uiso
C12_3 C 0.5539(8) 0.2248(8) 0.2248(8) 0.1400 Uiso
C13_3 C 0.4461(8) 0.2248(8) 0.2248(8) 0.1400 Uiso
C14_3 C 0.4461(8) 0.2752(8) 0.2752(8) 0.1400 Uiso
C15_3 C 0.7752(8) 0.2752(8) 0.0539(8) 0.1400 Uiso
C16_3 C 0.7248(8) 0.2248(8) 0.0539(8) 0.1400 Uiso
H1_2 H 0.664594 0.5 0.335406 . .
H2_2 H 0.835406 0.5 0.164594 . .
H3_3 H 0.5 0.164594 0.164594 . .
H4_5 H 0.664594 0.164594 0 . .
H5_3 H 0.5 0.335406 0.335406 . .
H6_5 H 0.835406 0.335406 0 . .
Zn13_3 Zn 0.6557(2) 0.1557(2) 0.8443(2) 0.1280 Uiso
N18_3 N 0.7881(7) 0.2881(5) 0.8816(5) 0.1600 Uiso
N19_3 N 0.7119(7) 0.2119(5) 0.8816(5) 0.1600 Uiso
N27_3 N 0.7500(9) 0.2500 0.8559 0.1600 Uiso
C6_6 C 0.7998 0.2998(10) 1.0000(10) 0.1400 Uiso
C7_6 C 0.7002 0.2002(10) 1.0000(10) 0.1400 Uiso
C17_3 C 0.7752(8) 0.2752(8) 0.9461(8) 0.1400 Uiso
C18_3 C 0.7248(8) 0.2248(8) 0.9461(8) 0.1400 Uiso
H4_6 H 0.664594 0.164594 1 . .
H6_6 H 0.835406 0.335406 1 . .
Zn12_3 Zn 0.1557(2) 0.8443(2) 0.6557(2) 0.1280 Uiso
N18_4 N 0.1184(5) 0.7881(7) 0.7119(5) 0.1600 Uiso
C6_7 C 0.0000(10) 0.7998 0.7002(10) 0.1400 Uiso
C7_7 C -0.0000(10) 0.7002 0.7998(10) 0.1400 Uiso
C17_4 C 0.0539(8) 0.7752(8) 0.7248(8) 0.1400 Uiso
C18_4 C 0.0539(8) 0.7248(8) 0.7752(8) 0.1400 Uiso
H4_7 H -1.2326e-32 0.664594 0.835406 . .
H6_7 H 0 0.835406 0.664594 . .
C1_3 C 0.7002(10) 0.7002 0.5000(10) 0.1400 Uiso
C2_3 C 0.7248(8) 0.7248(8) 0.5539(8) 0.1400 Uiso
Zn6_3 Zn 0.8443(2) 0.8443(2) 0.6557(2) 0.1280 Uiso
Zn7_2 Zn 0.8443(2) 0.8443(2) 0.3443(2) 0.1280 Uiso
Cl2_4 Cl 0.9062(4) 0.5938(4) 0.9062(4) 0.0900 Uiso
Cl3_4 Cl 0.9062(4) 0.4062(4) 0.9062(4) 0.0900 Uiso
Cl4_4 Cl 0.5938(4) 0.4062(4) 0.5938(4) 0.0900 Uiso
N3_3 N 0.7881(5) 0.7881(7) 0.6184(5) 0.1600 Uiso
N4_3 N 0.7881(7) 0.7881(5) 0.3816(5) 0.1600 Uiso
N5_3 N 0.7119(7) 0.7119(5) 0.3816(5) 0.1600 Uiso
N11_3 N 0.8816(5) 0.7881(5) 0.7119(7) 0.1600 Uiso
N13_4 N 0.8816(5) 0.7119(5) 0.7881(7) 0.1600 Uiso
N14_4 N 0.8816(5) 0.2881(7) 0.7881(5) 0.1600 Uiso
N16_4 N 0.6184(5) 0.2881(7) 0.7119(5) 0.1600 Uiso
N17_4 N 0.7119(7) 0.2881(5) 0.6184(5) 0.1600 Uiso
N20_3 N 0.7500(9) 0.7500 0.3559 0.1600 Uiso
C3_3 C 0.7998(10) 0.7998 0.5000(10) 0.1400 Uiso
C6_8 C 1.0000(10) 0.7998 0.7002(10) 0.1400 Uiso
C7_8 C 1.0000(10) 0.7002 0.7998(10) 0.1400 Uiso
C8_3 C 0.7752(8) 0.7752(8) 0.5539(8) 0.1400 Uiso
C9_3 C 0.7752(8) 0.7752(8) 0.4461(8) 0.1400 Uiso
C10_3 C 0.7248(8) 0.7248(8) 0.4461(8) 0.1400 Uiso
C15_4 C 0.9461(8) 0.7752(8) 0.7248(8) 0.1400 Uiso
C16_4 C 0.9461(8) 0.7248(8) 0.7752(8) 0.1400 Uiso
H1_3 H 0.664594 0.664594 0.5 . .
H2_3 H 0.835406 0.835406 0.5 . .
H4_8 H 1 0.664594 0.835406 . .
H6_8 H 1 0.835406 0.664594 . .
Zn12_4 Zn 0.1557(2) 0.3443(2) 0.1557(2) 0.1280 Uiso
N18_5 N 0.2119(7) 0.2881(5) 0.1184(5) 0.1600 Uiso
N27_4 N 0.2500(9) 0.2500 0.1441 0.1600 Uiso
C6_9 C 0.2002 0.2998(10) 0.0000(10) 0.1400 Uiso
C7_9 C 0.2998 0.2002(10) 0.0000(10) 0.1400 Uiso
C17_5 C 0.2248(8) 0.2752(8) 0.0539(8) 0.1400 Uiso
C18_5 C 0.2752(8) 0.2248(8) 0.0539(8) 0.1400 Uiso
H4_9 H 0.335406 0.164594 0 . .
H6_9 H 0.164594 0.335406 0 . .
Zn9_4 Zn 0.3443(2) 0.1557(2) 0.8443(2) 0.1280 Uiso
Cl2_5 Cl 0.4062(4) 0.0938(4) 0.9062(4) 0.0900 Uiso
Cl3_5 Cl 0.5938(4) 0.0938(4) 0.9062(4) 0.0900 Uiso
N7_4 N 0.3816(5) 0.2119(5) 0.7881(7) 0.1600 Uiso
N8_4 N 0.6184(5) 0.2119(7) 0.7881(5) 0.1600 Uiso
N12_4 N 0.2881(7) 0.1184(5) 0.7881(5) 0.1600 Uiso
N13_5 N 0.2881(5) 0.2119(7) 0.8816(5) 0.1600 Uiso
N15_4 N 0.7119(5) 0.1184(5) 0.7881(7) 0.1600 Uiso
N21_4 N 0.3559 0.2500 0.7500(9) 0.1600 Uiso
N22_4 N 0.6441 0.2500(9) 0.7500 0.1600 Uiso
N23_4 N 0.2500 0.2500(9) 0.6441 0.1600 Uiso
N24_4 N 0.2500(9) 0.1441 0.7500 0.1600 Uiso
N25_4 N 0.2500 0.2500(9) 0.8559 0.1600 Uiso
N26_4 N 0.1441 0.2500 0.7500(9) 0.1600 Uiso
C4_4 C 0.5000(10) 0.2998 0.7002(10) 0.1400 Uiso
C5_4 C 0.5000(10) 0.2002 0.7998(10) 0.1400 Uiso
C6_10 C 0.2002 0.2998(10) 1.0000(10) 0.1400 Uiso
C7_10 C 0.2998 0.2002(10) 1.0000(10) 0.1400 Uiso
C11_4 C 0.4461(8) 0.2752(8) 0.7248(8) 0.1400 Uiso
C12_4 C 0.4461(8) 0.2248(8) 0.7752(8) 0.1400 Uiso
C13_4 C 0.5539(8) 0.2248(8) 0.7752(8) 0.1400 Uiso
C14_4 C 0.5539(8) 0.2752(8) 0.7248(8) 0.1400 Uiso
C15_5 C 0.2248(8) 0.2752(8) 0.9461(8) 0.1400 Uiso
C16_5 C 0.2752(8) 0.2248(8) 0.9461(8) 0.1400 Uiso
H3_4 H 0.5 0.164594 0.835406 . .
H4_10 H 0.335406 0.164594 1 . .
H5_4 H 0.5 0.335406 0.664594 . .
H6_10 H 0.164594 0.335406 1 . .
Cl1_3 Cl 0.5938(4) 0.5938(4) 0.4062(4) 0.0900 Uiso
N1_3 N 0.6184(5) 0.7119(7) 0.2881(5) 0.1600 Uiso
N2_3 N 0.6441 0.7500(9) 0.2500 0.1600 Uiso
C1_4 C 0.5000(10) 0.7002 0.2998(10) 0.1400 Uiso
C2_4 C 0.5539(8) 0.7248(8) 0.2752(8) 0.1400 Uiso
Zn8_3 Zn 0.3443(2) 0.6557(2) 0.3443(2) 0.1280 Uiso
Cl2_6 Cl 0.9062(4) 0.5938(4) 0.0938(4) 0.0900 Uiso
Cl3_6 Cl 0.9062(4) 0.4062(4) 0.0938(4) 0.0900 Uiso
N3_4 N 0.6184(5) 0.7881(7) 0.2119(5) 0.1600 Uiso
N4_4 N 0.3816(5) 0.7881(5) 0.2119(7) 0.1600 Uiso
N5_4 N 0.3816(5) 0.7119(5) 0.2881(7) 0.1600 Uiso
N12_5 N 0.8816(5) 0.7119(7) 0.2119(5) 0.1600 Uiso
N15_5 N 0.8816(5) 0.2881(5) 0.2119(7) 0.1600 Uiso
N20_4 N 0.3559 0.7500 0.2500(9) 0.1600 Uiso
N24_5 N 0.8559 0.7500(9) 0.2500 0.1600 Uiso
N26_5 N 0.7500 0.8559 0.2500(9) 0.1600 Uiso
C3_4 C 0.5000(10) 0.7998 0.2002(10) 0.1400 Uiso
C8_4 C 0.5539(8) 0.7752(8) 0.2248(8) 0.1400 Uiso
C9_4 C 0.4461(8) 0.7752(8) 0.2248(8) 0.1400 Uiso
C10_4 C 0.4461(8) 0.7248(8) 0.2752(8) 0.1400 Uiso
H1_4 H 0.5 0.664594 0.335406 . .
H2_4 H 0.5 0.835406 0.164594 . .
Zn12_5 Zn 0.1557(2) 0.1557(2) 0.6557(2) 0.1280 Uiso
N18_6 N 0.2119(7) 0.1184(5) 0.7119(5) 0.1600 Uiso
C6_11 C 0.2002 0.0000(10) 0.7002(10) 0.1400 Uiso
C7_11 C 0.2998 0.0000(10) 0.7998(10) 0.1400 Uiso
C17_6 C 0.2248(8) 0.0539(8) 0.7248(8) 0.1400 Uiso
C18_6 C 0.2752(8) 0.0539(8) 0.7752(8) 0.1400 Uiso
H4_11 H 0.335406 0 0.835406 . .
H6_11 H 0.164594 -6.16298e-33 0.664594 . .
C1_5 C 0.2998 0.7002(10) 0.5000(10) 0.1400 Uiso
C2_5 C 0.2752(8) 0.7248(8) 0.5539(8) 0.1400 Uiso
Zn7_3 Zn 0.1557(2) 0.8443(2) 0.3443(2) 0.1280 Uiso
N3_5 N 0.2119(7) 0.7881(5) 0.6184(5) 0.1600 Uiso
N4_5 N 0.2119(5) 0.7881(7) 0.3816(5) 0.1600 Uiso
N5_5 N 0.2881(5) 0.7119(7) 0.3816(5) 0.1600 Uiso
N11_4 N 0.2119(5) 0.8816(5) 0.7119(7) 0.1600 Uiso
N20_5 N 0.2500 0.7500(9) 0.3559 0.1600 Uiso
C3_5 C 0.2002 0.7998(10) 0.5000(10) 0.1400 Uiso
C6_12 C 0.2002 1.0000(10) 0.7002(10) 0.1400 Uiso
C7_12 C 0.2998 1.0000(10) 0.7998(10) 0.1400 Uiso
C8_5 C 0.2248(8) 0.7752(8) 0.5539(8) 0.1400 Uiso
C9_5 C 0.2248(8) 0.7752(8) 0.4461(8) 0.1400 Uiso
C10_5 C 0.2752(8) 0.7248(8) 0.4461(8) 0.1400 Uiso
C15_6 C 0.2248(8) 0.9461(8) 0.7248(8) 0.1400 Uiso
C16_6 C 0.2752(8) 0.9461(8) 0.7752(8) 0.1400 Uiso
H1_5 H 0.335406 0.664594 0.5 . .
H2_5 H 0.164594 0.835406 0.5 . .
H4_12 H 0.335406 1 0.835406 . .
H6_12 H 0.164594 1 0.664594 . .
N23_5 N 0.7500(9) 0.2500 0.6441 0.1600 Uiso
N24_6 N 0.8559 0.2500(9) 0.7500 0.1600 Uiso
N26_6 N 0.7500 0.1441 0.7500(9) 0.1600 Uiso
Cl1_4 Cl 0.4062(4) 0.5938(4) 0.4062(4) 0.0900 Uiso
N1_4 N 0.2881(7) 0.6184(5) 0.2881(5) 0.1600 Uiso
N2_4 N 0.2500(9) 0.6441 0.2500 0.1600 Uiso
C1_6 C 0.2998 0.5000(10) 0.2998(10) 0.1400 Uiso
C2_6 C 0.2752(8) 0.5539(8) 0.2752(8) 0.1400 Uiso
Cl2_7 Cl 0.4062(4) 0.9062(4) 0.0938(4) 0.0900 Uiso
Cl3_7 Cl 0.5938(4) 0.9062(4) 0.0938(4) 0.0900 Uiso
N3_6 N 0.2119(7) 0.6184(5) 0.2119(5) 0.1600 Uiso
N4_6 N 0.2119(5) 0.3816(5) 0.2119(7) 0.1600 Uiso
N12_6 N 0.2881(7) 0.8816(5) 0.2119(5) 0.1600 Uiso
N15_6 N 0.7119(5) 0.8816(5) 0.2119(7) 0.1600 Uiso
N20_6 N 0.2500 0.3559 0.2500(9) 0.1600 Uiso
N24_7 N 0.2500(9) 0.8559 0.2500 0.1600 Uiso
N26_7 N 0.1441 0.7500 0.2500(9) 0.1600 Uiso
C3_6 C 0.2002 0.5000(10) 0.2002(10) 0.1400 Uiso
C8_6 C 0.2248(8) 0.5539(8) 0.2248(8) 0.1400 Uiso
C9_6 C 0.2248(8) 0.4461(8) 0.2248(8) 0.1400 Uiso
C10_6 C 0.2752(8) 0.4461(8) 0.2752(8) 0.1400 Uiso
H1_6 H 0.335406 0.5 0.335406 . .
H2_6 H 0.164594 0.5 0.164594 . .
C1_7 C 0.2998(10) 0.2998 0.5000(10) 0.1400 Uiso
C2_7 C 0.2752(8) 0.2752(8) 0.5539(8) 0.1400 Uiso
Zn7_4 Zn 0.1557(2) 0.1557(2) 0.3443(2) 0.1280 Uiso
N3_7 N 0.2119(5) 0.2119(7) 0.6184(5) 0.1600 Uiso
N4_7 N 0.2119(7) 0.2119(5) 0.3816(5) 0.1600 Uiso
N11_5 N 0.1184(5) 0.2119(5) 0.7119(7) 0.1600 Uiso
N20_7 N 0.2500(9) 0.2500 0.3559 0.1600 Uiso
C3_7 C 0.2002(10) 0.2002 0.5000(10) 0.1400 Uiso
C6_13 C 0.0000(10) 0.2002 0.7002(10) 0.1400 Uiso
C7_13 C 0.0000(10) 0.2998 0.7998(10) 0.1400 Uiso
C8_7 C 0.2248(8) 0.2248(8) 0.5539(8) 0.1400 Uiso
C9_7 C 0.2248(8) 0.2248(8) 0.4461(8) 0.1400 Uiso
C10_7 C 0.2752(8) 0.2752(8) 0.4461(8) 0.1400 Uiso
C15_7 C 0.0539(8) 0.2248(8) 0.7248(8) 0.1400 Uiso
C16_7 C 0.0539(8) 0.2752(8) 0.7752(8) 0.1400 Uiso
H1_7 H 0.335406 0.335406 0.5 . .
H2_7 H 0.164594 0.164594 0.5 . .
H4_13 H -6.16298e-33 0.335406 0.835406 . .
H6_13 H 0 0.164594 0.664594 . .
Zn12_6 Zn 0.8443(2) 0.1557(2) 0.6557(2) 0.1280 Uiso
N18_7 N 0.8816(5) 0.2119(7) 0.7119(5) 0.1600 Uiso
C6_14 C 1.0000(10) 0.2002 0.7002(10) 0.1400 Uiso
C7_14 C 1.0000(10) 0.2998 0.7998(10) 0.1400 Uiso
C17_7 C 0.9461(8) 0.2248(8) 0.7248(8) 0.1400 Uiso
C18_7 C 0.9461(8) 0.2752(8) 0.7752(8) 0.1400 Uiso
H4_14 H 1 0.335406 0.835406 . .
H6_14 H 1 0.164594 0.664594 . .
Cl2_8 Cl 0.0938(4) 0.4062(4) 0.0938(4) 0.0900 Uiso
Cl3_8 Cl 0.0938(4) 0.5938(4) 0.0938(4) 0.0900 Uiso
N12_7 N 0.1184(5) 0.2881(7) 0.2119(5) 0.1600 Uiso
N15_7 N 0.1184(5) 0.7119(5) 0.2119(7) 0.1600 Uiso
N24_8 N 0.1441 0.2500(9) 0.2500 0.1600 Uiso
N26_8 N 0.2500 0.1441 0.2500(9) 0.1600 Uiso
C1_8 C 0.7002 0.2998(10) 0.5000(10) 0.1400 Uiso
C2_8 C 0.7248(8) 0.2752(8) 0.5539(8) 0.1400 Uiso
Zn7_5 Zn 0.8443(2) 0.1557(2) 0.3443(2) 0.1280 Uiso
N3_8 N 0.7881(7) 0.2119(5) 0.6184(5) 0.1600 Uiso
N4_8 N 0.7881(5) 0.2119(7) 0.3816(5) 0.1600 Uiso
N11_6 N 0.7881(5) 0.1184(5) 0.7119(7) 0.1600 Uiso
C3_8 C 0.7998 0.2002(10) 0.5000(10) 0.1400 Uiso
C6_15 C 0.7998 0.0000(10) 0.7002(10) 0.1400 Uiso
C7_15 C 0.7002 0.0000(10) 0.7998(10) 0.1400 Uiso
C8_8 C 0.7752(8) 0.2248(8) 0.5539(8) 0.1400 Uiso
C9_8 C 0.7752(8) 0.2248(8) 0.4461(8) 0.1400 Uiso
C10_8 C 0.7248(8) 0.2752(8) 0.4461(8) 0.1400 Uiso
C15_8 C 0.7752(8) 0.0539(8) 0.7248(8) 0.1400 Uiso
C16_8 C 0.7248(8) 0.0539(8) 0.7752(8) 0.1400 Uiso
H1_8 H 0.664594 0.335406 0.5 . .
H2_8 H 0.835406 0.164594 0.5 . .
H4_15 H 0.664594 0 0.835406 . .
H6_15 H 0.835406 -6.16298e-33 0.664594 . .
N18_8 N 0.7881(7) 0.8816(5) 0.7119(5) 0.1600 Uiso
C6_16 C 0.7998 1.0000(10) 0.7002(10) 0.1400 Uiso
C7_16 C 0.7002 1.0000(10) 0.7998(10) 0.1400 Uiso
C17_8 C 0.7752(8) 0.9461(8) 0.7248(8) 0.1400 Uiso
C18_8 C 0.7248(8) 0.9461(8) 0.7752(8) 0.1400 Uiso
H4_16 H 0.664594 1 0.835406 . .
H6_16 H 0.835406 1 0.664594 . .
N18_9 N 0.1184(5) 0.2119(7) 0.2881(5) 0.1600 Uiso
C6_17 C -0.0000(10) 0.2002 0.2998(10) 0.1400 Uiso
C7_17 C 0.0000(10) 0.2998 0.2002(10) 0.1400 Uiso
C17_9 C 0.0539(8) 0.2248(8) 0.2752(8) 0.1400 Uiso
C18_9 C 0.0539(8) 0.2752(8) 0.2248(8) 0.1400 Uiso
H4_17 H -3.08149e-33 0.335406 0.164594 . .
H6_17 H 3.08149e-33 0.164594 0.335406 . .
N11_7 N 0.8816(5) 0.2119(5) 0.2881(7) 0.1600 Uiso
C6_18 C 1.0000(10) 0.2002 0.2998(10) 0.1400 Uiso
C7_18 C 1.0000(10) 0.2998 0.2002(10) 0.1400 Uiso
C15_9 C 0.9461(8) 0.2248(8) 0.2752(8) 0.1400 Uiso
C16_9 C 0.9461(8) 0.2752(8) 0.2248(8) 0.1400 Uiso
H4_18 H 1 0.335406 0.164594 . .
H6_18 H 1 0.164594 0.335406 . .
N18_10 N 0.7881(7) 0.1184(5) 0.2881(5) 0.1600 Uiso
C6_19 C 0.7998 0.0000(10) 0.2998(10) 0.1400 Uiso
C7_19 C 0.7002 -0.0000(10) 0.2002(10) 0.1400 Uiso
C17_10 C 0.7752(8) 0.0539(8) 0.2752(8) 0.1400 Uiso
C18_10 C 0.7248(8) 0.0539(8) 0.2248(8) 0.1400 Uiso
H4_19 H 0.664594 0 0.164594 . .
H6_19 H 0.835406 3.08149e-33 0.335406 . .
N11_8 N 0.7881(5) 0.8816(5) 0.2881(7) 0.1600 Uiso
C6_20 C 0.7998 1.0000(10) 0.2998(10) 0.1400 Uiso
C7_20 C 0.7002 1.0000(10) 0.2002(10) 0.1400 Uiso
C15_10 C 0.7752(8) 0.9461(8) 0.2752(8) 0.1400 Uiso
C16_10 C 0.7248(8) 0.9461(8) 0.2248(8) 0.1400 Uiso
H4_20 H 0.664594 1 0.164594 . .
H6_20 H 0.835406 1 0.335406 . .
N11_9 N 0.1184(5) 0.7881(5) 0.2881(7) 0.1600 Uiso
C6_21 C -0.0000(10) 0.7998 0.2998(10) 0.1400 Uiso
C7_21 C -0.0000(10) 0.7002 0.2002(10) 0.1400 Uiso
C15_11 C 0.0539(8) 0.7752(8) 0.2752(8) 0.1400 Uiso
C16_11 C 0.0539(8) 0.7248(8) 0.2248(8) 0.1400 Uiso
H4_21 H 6.16298e-33 0.664594 0.164594 . .
H6_21 H 3.08149e-33 0.835406 0.335406 . .
N18_11 N 0.8816(5) 0.7881(7) 0.2881(5) 0.1600 Uiso
C6_22 C 1.0000(10) 0.7998 0.2998(10) 0.1400 Uiso
C7_22 C 1.0000(10) 0.7002 0.2002(10) 0.1400 Uiso
C17_11 C 0.9461(8) 0.7752(8) 0.2752(8) 0.1400 Uiso
C18_11 C 0.9461(8) 0.7248(8) 0.2248(8) 0.1400 Uiso
H4_22 H 1 0.664594 0.164594 . .
H6_22 H 1 0.835406 0.335406 . .
N11_10 N 0.2119(5) 0.1184(5) 0.2881(7) 0.1600 Uiso
C6_23 C 0.2002 0.0000(10) 0.2998(10) 0.1400 Uiso
C7_23 C 0.2998 -0.0000(10) 0.2002(10) 0.1400 Uiso
C15_12 C 0.2248(8) 0.0539(8) 0.2752(8) 0.1400 Uiso
C16_12 C 0.2752(8) 0.0539(8) 0.2248(8) 0.1400 Uiso
H4_23 H 0.335406 0 0.164594 . .
H6_23 H 0.164594 3.08149e-33 0.335406 . .
N18_12 N 0.2119(7) 0.8816(5) 0.2881(5) 0.1600 Uiso
C6_24 C 0.2002 1.0000(10) 0.2998(10) 0.1400 Uiso
C7_24 C 0.2998 1.0000(10) 0.2002(10) 0.1400 Uiso
C17_12 C 0.2248(8) 0.9461(8) 0.2752(8) 0.1400 Uiso
C18_12 C 0.2752(8) 0.9461(8) 0.2248(8) 0.1400 Uiso
H4_24 H 0.335406 1 0.164594 . .
H6_24 H 0.164594 1 0.335406 . .
Cl2_9 Cl 0.9062(4) 0.0938(4) 0.5938(4) 0.0900 Uiso
Cl3_9 Cl 0.9062(4) 0.0938(4) 0.4062(4) 0.0900 Uiso
Cl2_10 Cl 0.9062(4) 0.9062(4) 0.5938(4) 0.0900 Uiso
Cl3_10 Cl 0.9062(4) 0.9062(4) 0.4062(4) 0.0900 Uiso
Cl2_11 Cl 0.0938(4) 0.9062(4) 0.5938(4) 0.0900 Uiso
Cl3_11 Cl 0.0938(4) 0.9062(4) 0.4062(4) 0.0900 Uiso
Cl2_12 Cl 0.0938(4) 0.0938(4) 0.5938(4) 0.0900 Uiso
Cl3_12 Cl 0.0938(4) 0.0938(4) 0.4062(4) 0.0900 Uiso
loop_
_geom_bond_atom_site_label_1
_geom_bond_atom_site_label_2
_geom_bond_site_symmetry_1
_geom_bond_site_symmetry_2
Zn5 N27 1_555 1_555
Zn12 N18 1_555 1_555
Zn13 N19 1_555 1_555
N18 N27 1_555 1_555
N19 N27 1_555 1_555
C17 N18 1_555 1_555
C18 N19 1_555 1_555
C6 C17 1_555 1_555
C7 C18 1_555 1_555
C17 C18 1_555 1_555
C7 H4 1_555 1_555
C6 H6 1_555 1_555
Zn1 N2 1_555 1_555
Zn2 Cl1 1_555 1_555
N1 Zn2 1_555 1_555
N2 N1 1_555 1_555
C1 C2 1_555 1_555
C2 N1 1_555 1_555
Zn3 N20 1_555 1_555
Zn4 N22 1_555 1_555
Zn6 N3 1_555 1_555
Zn7 N4 1_555 1_555
Zn8 N5 1_555 1_555
Zn9 Cl2 1_555 1_555
Zn10 Cl3 1_555 1_555
Zn11 Cl4 1_555 1_555
N3 N2 1_555 1_555
N4 N20 1_555 1_555
N5 N20 1_555 1_555
N6 Zn2 1_555 1_555
N7 Zn9 1_555 1_555
N8 Zn10 1_555 1_555
N9 Zn11 1_555 1_555
N10 Zn2 1_555 1_555
N11 Zn6 1_555 1_555
N12 Zn9 1_555 1_555
N13 Zn9 1_555 1_555
N14 Zn10 1_555 1_555
N15 Zn10 1_555 1_555
N16 Zn11 1_555 1_555
N17 Zn11 1_555 1_555
N21 Zn1 1_555 1_555
N22 N8 1_555 1_555
N23 Zn1 1_555 1_555
N24 Zn1 1_555 1_555
N25 Zn1 1_555 1_555
N26 Zn1 1_555 1_555
C3 C8 1_555 1_555
C4 C11 1_555 1_555
C5 C12 1_555 1_555
C6_2 C15 1_555 1_555
C7_2 C16 1_555 1_555
C8 C2 1_555 1_555
C9 N4 1_555 1_555
C10 C1 1_555 1_555
C11 N6 1_555 1_555
C12 N7 1_555 1_555
C13 N8 1_555 1_555
C14 N9 1_555 1_555
C15 N11 1_555 1_555
C16 N13 1_555 1_555
N3 C8 1_555 1_555
N5 C10 1_555 1_555
N6 N21 1_555 1_555
N7 N21 1_555 1_555
N9 N22 1_555 1_555
N10 N23 1_555 1_555
N11 N25 1_555 1_555
N12 N24 1_555 1_555
N13 N25 1_555 1_555
C3 C9 1_555 1_555
C4 C14 1_555 1_555
C5 C13 1_555 1_555
C9 C10 1_555 1_555
C11 C12 1_555 1_555
C13 C14 1_555 1_555
C15 C16 1_555 1_555
C1 H1 1_555 1_555
C3 H2 1_555 1_555
C5 H3 1_555 1_555
C7_2 H4_2 1_555 1_555
C4 H5 1_555 1_555
C6_2 H6_2 1_555 1_555
Zn5_2 N27_2 1_555 1_555
Zn12_2 N18_2 1_555 1_555
Zn13_2 N19_2 1_555 1_555
N18_2 N27_2 1_555 1_555
N19_2 N27_2 1_555 1_555
C17_2 N18_2 1_555 1_555
C18_2 N19_2 1_555 1_555
C6_3 C17_2 1_555 1_555
C7_3 C18_2 1_555 1_555
C17_2 C18_2 1_555 1_555
C7_3 H4_3 1_555 1_555
C6_3 H6_3 1_555 1_555
Zn4_2 N22_2 1_555 1_555
Zn9_2 Cl2_2 1_555 1_555
Zn10_2 Cl3_2 1_555 1_555
Zn11_2 Cl4_2 1_555 1_555
N7_2 Zn9_2 1_555 1_555
N8_2 Zn10_2 1_555 1_555
N9_2 Zn11_2 1_555 1_555
N12_2 Zn9_2 1_555 1_555
N13_2 Zn9_2 1_555 1_555
N14_2 Zn10_2 1_555 1_555
N15_2 Zn10_2 1_555 1_555
N16_2 Zn11_2 1_555 1_555
N17_2 Zn11_2 1_555 1_555
N21_2 Zn4 1_555 1_555
N22_2 N8_2 1_555 1_555
N23_2 Zn4 1_555 1_555
N24_2 Zn4 1_555 1_555
N25_2 Zn4 1_555 1_555
N26_2 Zn4 1_555 1_555
C4_2 C11_2 1_555 1_555
C5_2 C12_2 1_555 1_555
C6_4 C15_2 1_555 1_555
C7_4 C16_2 1_555 1_555
C11_2 N17 1_555 1_555
C12_2 N7_2 1_555 1_555
C13_2 N8_2 1_555 1_555
C14_2 N9_2 1_555 1_555
C15_2 N14 1_555 1_555
C16_2 N13_2 1_555 1_555
N17 N21_2 1_555 1_555
N7_2 N21_2 1_555 1_555
N9_2 N22_2 1_555 1_555
N16 N23_2 1_555 1_555
N14 N25_2 1_555 1_555
N12_2 N24_2 1_555 1_555
N13_2 N25_2 1_555 1_555
C4_2 C14_2 1_555 1_555
C5_2 C13_2 1_555 1_555
C11_2 C12_2 1_555 1_555
C13_2 C14_2 1_555 1_555
C15_2 C16_2 1_555 1_555
C5_2 H3_2 1_555 1_555
C7_4 H4_4 1_555 1_555
C4_2 H5_2 1_555 1_555
C6_4 H6_4 1_555 1_555
Zn1_2 N2_2 1_555 1_555
Zn2_2 Cl1_2 1_555 1_555
N1_2 Zn2_2 1_555 1_555
N2_2 N1_2 1_555 1_555
C1_2 C2_2 1_555 1_555
C2_2 N1_2 1_555 1_555
Zn5 N20_2 1_555 1_555
Zn4_3 N22_3 1_555 1_555
Zn6_2 N3_2 1_555 1_555
Zn12 N4_2 1_555 1_555
Zn8_2 N5_2 1_555 1_555
Zn9_3 Cl2_3 1_555 1_555
Zn10_3 Cl3_3 1_555 1_555
Zn11_3 Cl4_3 1_555 1_555
N3_2 N2_2 1_555 1_555
N4_2 N20_2 1_555 1_555
N5_2 N20_2 1_555 1_555
N6_2 Zn2_2 1_555 1_555
N7_3 Zn9_3 1_555 1_555
N8_3 Zn10_3 1_555 1_555
N9_3 Zn11_3 1_555 1_555
N10_2 Zn2_2 1_555 1_555
N11_2 Zn6_2 1_555 1_555
N12_3 Zn9_3 1_555 1_555
N13_3 Zn9_3 1_555 1_555
N14_3 Zn10_3 1_555 1_555
N15_3 Zn10_3 1_555 1_555
N16_3 Zn11_3 1_555 1_555
N17_3 Zn11_3 1_555 1_555
N21_3 Zn1_2 1_555 1_555
N22_3 N8_3 1_555 1_555
N23_3 Zn1_2 1_555 1_555
N24_3 Zn1_2 1_555 1_555
N25_3 Zn1_2 1_555 1_555
N26_3 Zn1_2 1_555 1_555
C3_2 C8_2 1_555 1_555
C4_3 C11_3 1_555 1_555
C5_3 C12_3 1_555 1_555
C6_5 C15_3 1_555 1_555
C7_5 C16_3 1_555 1_555
C8_2 C2_2 1_555 1_555
C9_2 N4_2 1_555 1_555
C10_2 C1_2 1_555 1_555
C11_3 N6_2 1_555 1_555
C12_3 N7_3 1_555 1_555
C13_3 N8_3 1_555 1_555
C14_3 N9_3 1_555 1_555
C15_3 N11_2 1_555 1_555
C16_3 N13_3 1_555 1_555
N3_2 C8_2 1_555 1_555
N5_2 C10_2 1_555 1_555
N6_2 N21_3 1_555 1_555
N7_3 N21_3 1_555 1_555
N9_3 N22_3 1_555 1_555
N10_2 N23_3 1_555 1_555
N11_2 N25_3 1_555 1_555
N12_3 N24_3 1_555 1_555
N13_3 N25_3 1_555 1_555
C3_2 C9_2 1_555 1_555
C4_3 C14_3 1_555 1_555
C5_3 C13_3 1_555 1_555
C9_2 C10_2 1_555 1_555
C11_3 C12_3 1_555 1_555
C13_3 C14_3 1_555 1_555
C15_3 C16_3 1_555 1_555
C1_2 H1_2 1_555 1_555
C3_2 H2_2 1_555 1_555
C5_3 H3_3 1_555 1_555
C7_5 H4_5 1_555 1_555
C4_3 H5_3 1_555 1_555
C6_5 H6_5 1_555 1_555
Zn3 N27_3 1_555 1_555
Zn7 N18_3 1_555 1_555
Zn13_3 N19_3 1_555 1_555
N18_3 N27_3 1_555 1_555
N19_3 N27_3 1_555 1_555
C17_3 N18_3 1_555 1_555
C18_3 N19_3 1_555 1_555
C6_6 C17_3 1_555 1_555
C7_6 C18_3 1_555 1_555
C17_3 C18_3 1_555 1_555
C7_6 H4_6 1_555 1_555
C6_6 H6_6 1_555 1_555
Zn12_3 N18_4 1_555 1_555
N18_4 N24_2 1_555 1_555
C17_4 N18_4 1_555 1_555
C18_4 N12_2 1_555 1_555
C6_7 C17_4 1_555 1_555
C7_7 C18_4 1_555 1_555
C17_4 C18_4 1_555 1_555
C7_7 H4_7 1_555 1_555
C6_7 H6_7 1_555 1_555
C1_3 C2_3 1_555 1_555
C2_3 N10 1_555 1_555
Zn5 N20_3 1_555 1_555
Zn6_3 N3_3 1_555 1_555
Zn7_2 N4_3 1_555 1_555
Zn8_2 N5_3 1_555 1_555
Zn6 Cl2_4 1_555 1_555
Zn7 Cl3_4 1_555 1_555
Zn8 Cl4_4 1_555 1_555
N3_3 N23 1_555 1_555
N4_3 N20_3 1_555 1_555
N5_3 N20_3 1_555 1_555
N11_3 Zn6_3 1_555 1_555
N13_4 Zn6 1_555 1_555
N14_4 Zn7 1_555 1_555
N16_4 Zn8 1_555 1_555
N17_4 Zn8 1_555 1_555
C3_3 C8_3 1_555 1_555
C6_8 C15_4 1_555 1_555
C7_8 C16_4 1_555 1_555
C8_3 C2_3 1_555 1_555
C9_3 N4_3 1_555 1_555
C10_3 C1_3 1_555 1_555
C15_4 N11_3 1_555 1_555
C16_4 N13_4 1_555 1_555
N3_3 C8_3 1_555 1_555
N5_3 C10_3 1_555 1_555
N11_3 N26 1_555 1_555
N13_4 N26 1_555 1_555
C3_3 C9_3 1_555 1_555
C9_3 C10_3 1_555 1_555
C15_4 C16_4 1_555 1_555
C1_3 H1_3 1_555 1_555
C3_3 H2_3 1_555 1_555
C7_8 H4_8 1_555 1_555
C6_8 H6_8 1_555 1_555
Zn4_3 N27_4 1_555 1_555
Zn12_4 N18_5 1_555 1_555
N18_5 N27_4 1_555 1_555
N14_3 N27_4 1_555 1_555
C17_5 N18_5 1_555 1_555
C18_5 N14_3 1_555 1_555
C6_9 C17_5 1_555 1_555
C7_9 C18_5 1_555 1_555
C17_5 C18_5 1_555 1_555
C7_9 H4_9 1_555 1_555
C6_9 H6_9 1_555 1_555
Zn3 N22_4 1_555 1_555
Zn9_4 Cl2_5 1_555 1_555
Zn13_3 Cl3_5 1_555 1_555
N7_4 Zn9_4 1_555 1_555
N8_4 Zn13_3 1_555 1_555
N12_4 Zn9_4 1_555 1_555
N13_5 Zn9_4 1_555 1_555
N15_4 Zn13_3 1_555 1_555
N21_4 Zn4_2 1_555 1_555
N22_4 N8_4 1_555 1_555
N23_4 Zn4_2 1_555 1_555
N24_4 Zn4_2 1_555 1_555
N25_4 Zn4_2 1_555 1_555
N26_4 Zn4_2 1_555 1_555
C4_4 C11_4 1_555 1_555
C5_4 C12_4 1_555 1_555
C6_10 C15_5 1_555 1_555
C7_10 C16_5 1_555 1_555
C11_4 N17_2 1_555 1_555
C12_4 N7_4 1_555 1_555
C13_4 N8_4 1_555 1_555
C14_4 N16_4 1_555 1_555
C15_5 N14_2 1_555 1_555
C16_5 N13_5 1_555 1_555
N17_2 N21_4 1_555 1_555
N7_4 N21_4 1_555 1_555
N16_4 N22_4 1_555 1_555
N16_2 N23_4 1_555 1_555
N14_2 N25_4 1_555 1_555
N12_4 N24_4 1_555 1_555
N13_5 N25_4 1_555 1_555
C4_4 C14_4 1_555 1_555
C5_4 C13_4 1_555 1_555
C11_4 C12_4 1_555 1_555
C13_4 C14_4 1_555 1_555
C15_5 C16_5 1_555 1_555
C5_4 H3_4 1_555 1_555
C7_10 H4_10 1_555 1_555
C4_4 H5_4 1_555 1_555
C6_10 H6_10 1_555 1_555
Zn5 N2_3 1_555 1_555
Zn8_2 Cl1_3 1_555 1_555
N1_3 Zn8_2 1_555 1_555
N2_3 N1_3 1_555 1_555
C1_4 C2_4 1_555 1_555
C2_4 N1_3 1_555 1_555
Zn5_2 N20_4 1_555 1_555
Zn13 N3_4 1_555 1_555
Zn12_2 N4_4 1_555 1_555
Zn8_3 N5_4 1_555 1_555
Zn12 Cl2_6 1_555 1_555
Zn6_2 Cl3_6 1_555 1_555
N3_4 N2_3 1_555 1_555
N4_4 N20_4 1_555 1_555
N5_4 N20_4 1_555 1_555
N12_5 Zn12 1_555 1_555
N15_5 Zn6_2 1_555 1_555
N24_5 Zn5 1_555 1_555
N26_5 Zn5 1_555 1_555
C3_4 C8_4 1_555 1_555
C8_4 C2_4 1_555 1_555
C9_4 N4_4 1_555 1_555
C10_4 C1_4 1_555 1_555
N3_4 C8_4 1_555 1_555
N5_4 C10_4 1_555 1_555
N12_5 N24_5 1_555 1_555
C3_4 C9_4 1_555 1_555
C9_4 C10_4 1_555 1_555
C1_4 H1_4 1_555 1_555
C3_4 H2_4 1_555 1_555
Zn12_5 N18_6 1_555 1_555
N18_6 N24_4 1_555 1_555
C17_6 N18_6 1_555 1_555
C18_6 N12_4 1_555 1_555
C6_11 C17_6 1_555 1_555
C7_11 C18_6 1_555 1_555
C17_6 C18_6 1_555 1_555
C7_11 H4_11 1_555 1_555
C6_11 H6_11 1_555 1_555
C1_5 C2_5 1_555 1_555
C2_5 N16 1_555 1_555
Zn5_2 N20_5 1_555 1_555
Zn12_3 N3_5 1_555 1_555
Zn7_3 N4_5 1_555 1_555
Zn8_3 N5_5 1_555 1_555
N3_5 N23_2 1_555 1_555
N4_5 N20_5 1_555 1_555
N5_5 N20_5 1_555 1_555
N11_4 Zn12_3 1_555 1_555
C3_5 C8_5 1_555 1_555
C6_12 C15_6 1_555 1_555
C7_12 C16_6 1_555 1_555
C8_5 C2_5 1_555 1_555
C9_5 N4_5 1_555 1_555
C10_5 C1_5 1_555 1_555
C15_6 N11_4 1_555 1_555
C16_6 N15 1_555 1_555
N3_5 C8_5 1_555 1_555
N5_5 C10_5 1_555 1_555
N11_4 N26_2 1_555 1_555
N15 N26_2 1_555 1_555
C3_5 C9_5 1_555 1_555
C9_5 C10_5 1_555 1_555
C15_6 C16_6 1_555 1_555
C1_5 H1_5 1_555 1_555
C3_5 H2_5 1_555 1_555
C7_12 H4_12 1_555 1_555
C6_12 H6_12 1_555 1_555
N23_5 Zn3 1_555 1_555
N24_6 Zn3 1_555 1_555
N26_6 Zn3 1_555 1_555
N17_4 N23_5 1_555 1_555
N14_4 N24_6 1_555 1_555
Zn5_2 N2_4 1_555 1_555
Zn8_3 Cl1_4 1_555 1_555
N1_4 Zn8_3 1_555 1_555
N2_4 N1_4 1_555 1_555
C1_6 C2_6 1_555 1_555
C2_6 N1_4 1_555 1_555
Zn4_3 N20_6 1_555 1_555
Zn13_2 N3_6 1_555 1_555
Zn12_4 N4_6 1_555 1_555
Zn12_2 Cl2_7 1_555 1_555
Zn13 Cl3_7 1_555 1_555
N3_6 N2_4 1_555 1_555
N4_6 N20_6 1_555 1_555
N17_3 N20_6 1_555 1_555
N12_6 Zn12_2 1_555 1_555
N15_6 Zn13 1_555 1_555
N24_7 Zn5_2 1_555 1_555
N26_7 Zn5_2 1_555 1_555
C3_6 C8_6 1_555 1_555
C8_6 C2_6 1_555 1_555
C9_6 N4_6 1_555 1_555
C10_6 C1_6 1_555 1_555
N3_6 C8_6 1_555 1_555
N17_3 C10_6 1_555 1_555
N12_6 N24_7 1_555 1_555
C3_6 C9_6 1_555 1_555
C9_6 C10_6 1_555 1_555
C1_6 H1_6 1_555 1_555
C3_6 H2_6 1_555 1_555
C1_7 C2_7 1_555 1_555
C2_7 N16_2 1_555 1_555
Zn4_3 N20_7 1_555 1_555
Zn12_5 N3_7 1_555 1_555
Zn7_4 N4_7 1_555 1_555
N3_7 N23_4 1_555 1_555
N4_7 N20_7 1_555 1_555
N16_3 N20_7 1_555 1_555
N11_5 Zn12_5 1_555 1_555
C3_7 C8_7 1_555 1_555
C6_13 C15_7 1_555 1_555
C7_13 C16_7 1_555 1_555
C8_7 C2_7 1_555 1_555
C9_7 N4_7 1_555 1_555
C10_7 C1_7 1_555 1_555
C15_7 N11_5 1_555 1_555
C16_7 N15_2 1_555 1_555
N3_7 C8_7 1_555 1_555
N16_3 C10_7 1_555 1_555
N11_5 N26_4 1_555 1_555
N15_2 N26_4 1_555 1_555
C3_7 C9_7 1_555 1_555
C9_7 C10_7 1_555 1_555
C15_7 C16_7 1_555 1_555
C1_7 H1_7 1_555 1_555
C3_7 H2_7 1_555 1_555
C7_13 H4_13 1_555 1_555
C6_13 H6_13 1_555 1_555
Zn12_6 N18_7 1_555 1_555
N18_7 N24_6 1_555 1_555
C17_7 N18_7 1_555 1_555
C18_7 N14_4 1_555 1_555
C6_14 C17_7 1_555 1_555
C7_14 C18_7 1_555 1_555
C17_7 C18_7 1_555 1_555
C7_14 H4_14 1_555 1_555
C6_14 H6_14 1_555 1_555
Zn12_4 Cl2_8 1_555 1_555
Zn13_2 Cl3_8 1_555 1_555
N12_7 Zn12_4 1_555 1_555
N15_7 Zn13_2 1_555 1_555
N24_8 Zn4_3 1_555 1_555
N26_8 Zn4_3 1_555 1_555
N12_7 N24_8 1_555 1_555
C1_8 C2_8 1_555 1_555
C2_8 N17_4 1_555 1_555
Zn12_6 N3_8 1_555 1_555
Zn7_5 N4_8 1_555 1_555
N3_8 N23_5 1_555 1_555
N4_8 N23_3 1_555 1_555
N11_6 Zn12_6 1_555 1_555
C3_8 C8_8 1_555 1_555
C6_15 C15_8 1_555 1_555
C7_15 C16_8 1_555 1_555
C8_8 C2_8 1_555 1_555
C9_8 N4_8 1_555 1_555
C10_8 C1_8 1_555 1_555
C15_8 N11_6 1_555 1_555
C16_8 N15_4 1_555 1_555
N3_8 C8_8 1_555 1_555
N10_2 C10_8 1_555 1_555
N11_6 N26_6 1_555 1_555
N15_4 N26_6 1_555 1_555
C3_8 C9_8 1_555 1_555
C9_8 C10_8 1_555 1_555
C15_8 C16_8 1_555 1_555
C1_8 H1_8 1_555 1_555
C3_8 H2_8 1_555 1_555
C7_15 H4_15 1_555 1_555
C6_15 H6_15 1_555 1_555
Zn6_3 N18_8 1_555 1_555
N18_8 N24 1_555 1_555
C17_8 N18_8 1_555 1_555
C18_8 N12 1_555 1_555
C6_16 C17_8 1_555 1_555
C7_16 C18_8 1_555 1_555
C17_8 C18_8 1_555 1_555
C7_16 H4_16 1_555 1_555
C6_16 H6_16 1_555 1_555
Zn7_4 N18_9 1_555 1_555
N18_9 N24_8 1_555 1_555
C17_9 N18_9 1_555 1_555
C18_9 N12_7 1_555 1_555
C6_17 C17_9 1_555 1_555
C7_17 C18_9 1_555 1_555
C17_9 C18_9 1_555 1_555
C7_17 H4_17 1_555 1_555
C6_17 H6_17 1_555 1_555
N11_7 Zn7_5 1_555 1_555
C6_18 C15_9 1_555 1_555
C7_18 C16_9 1_555 1_555
C15_9 N11_7 1_555 1_555
C16_9 N15_5 1_555 1_555
N11_7 N26_3 1_555 1_555
N15_5 N26_3 1_555 1_555
C15_9 C16_9 1_555 1_555
C7_18 H4_18 1_555 1_555
C6_18 H6_18 1_555 1_555
Zn7_5 N18_10 1_555 1_555
N18_10 N24_3 1_555 1_555
C17_10 N18_10 1_555 1_555
C18_10 N12_3 1_555 1_555
C6_19 C17_10 1_555 1_555
C7_19 C18_10 1_555 1_555
C17_10 C18_10 1_555 1_555
C7_19 H4_19 1_555 1_555
C6_19 H6_19 1_555 1_555
N11_8 Zn7_2 1_555 1_555
C6_20 C15_10 1_555 1_555
C7_20 C16_10 1_555 1_555
C15_10 N11_8 1_555 1_555
C16_10 N15_6 1_555 1_555
N11_8 N26_5 1_555 1_555
N15_6 N26_5 1_555 1_555
C15_10 C16_10 1_555 1_555
C7_20 H4_20 1_555 1_555
C6_20 H6_20 1_555 1_555
N11_9 Zn7_3 1_555 1_555
C6_21 C15_11 1_555 1_555
C7_21 C16_11 1_555 1_555
C15_11 N11_9 1_555 1_555
C16_11 N15_7 1_555 1_555
N11_9 N26_7 1_555 1_555
N15_7 N26_7 1_555 1_555
C15_11 C16_11 1_555 1_555
C7_21 H4_21 1_555 1_555
C6_21 H6_21 1_555 1_555
Zn7_2 N18_11 1_555 1_555
N18_11 N24_5 1_555 1_555
C17_11 N18_11 1_555 1_555
C18_11 N12_5 1_555 1_555
C6_22 C17_11 1_555 1_555
C7_22 C18_11 1_555 1_555
C17_11 C18_11 1_555 1_555
C7_22 H4_22 1_555 1_555
C6_22 H6_22 1_555 1_555
N11_10 Zn7_4 1_555 1_555
C6_23 C15_12 1_555 1_555
C7_23 C16_12 1_555 1_555
C15_12 N11_10 1_555 1_555
C16_12 N15_3 1_555 1_555
N11_10 N26_8 1_555 1_555
N15_3 N26_8 1_555 1_555
C15_12 C16_12 1_555 1_555
C7_23 H4_23 1_555 1_555
C6_23 H6_23 1_555 1_555
Zn7_3 N18_12 1_555 1_555
N18_12 N24_7 1_555 1_555
C17_12 N18_12 1_555 1_555
C18_12 N12_6 1_555 1_555
C6_24 C17_12 1_555 1_555
C7_24 C18_12 1_555 1_555
C17_12 C18_12 1_555 1_555
C7_24 H4_24 1_555 1_555
C6_24 H6_24 1_555 1_555
Zn12_6 Cl2_9 1_555 1_555
Zn7_5 Cl3_9 1_555 1_555
Zn6_3 Cl2_10 1_555 1_555
Zn7_2 Cl3_10 1_555 1_555
Zn12_3 Cl2_11 1_555 1_555
Zn7_3 Cl3_11 1_555 1_555
Zn12_5 Cl2_12 1_555 1_555
Zn7_4 Cl3_12 1_555 1_555

#END
