
###############################################################################
#
# This file contains modified crystal structure data generated from the
# MOF subset of the Cambridge Structural Database (CSD) v543 
# hosted by the Cambridge Crystallographic Data Centre (CCDC).
#
# This work is licensed under the Creative Commons
# Attribution-NonCommercial-ShareAlike 4.0 International License.
# To view a copy of this license, visit
# http://creativecommons.org/licenses/by-nc-sa/4.0/
# or send a letter to
# Creative Commons, PO Box 1866, Mountain View, CA 94042, USA.
#
# CIF created using the CSD Python API on 29 September 2022
# The structure has been converted into the P1 space group
# The structure has a 3D framework
# The original CSD entry IGOGOD is in the cubic crystal system
# The framework has been calculated to contain at least 10.0% void space
# The void calculation uses a probe of radius 1.32A, grid spacing 0.4
# H atom positions have been added when not included in the experimental data
#
###############################################################################

data_IGOGOD
_chemical_formula_moiety         '(C552 H696 N192 Zn48)n'
_symmetry_cell_setting           triclinic
_symmetry_space_group_name_H-M   'P 1'
_symmetry_Int_Tables_number      1
_space_group_name_Hall           'P 1'
loop_
_symmetry_equiv_pos_site_id
_symmetry_equiv_pos_as_xyz
1 x,y,z
_cell_length_a                   29.2944(3)
_cell_length_b                   29.2944(3)
_cell_length_c                   29.2944(3)
_cell_angle_alpha                90
_cell_angle_beta                 90
_cell_angle_gamma                90
_cell_volume                     25139.3
loop_
_atom_site_label
_atom_site_type_symbol
_atom_site_fract_x
_atom_site_fract_y
_atom_site_fract_z
Zn1 Zn 0.3975(3) 0.1051(3) 0.2515(4)
N1 N 0.3955(14) 0.0383(14) 0.2340(13)
C1 C 0.3665(14) 0.0245(16) 0.2009(13)
C2 C 0.413(2) 0.000 0.254(2)
C3 C 0.4459(18) 0.000 0.291(2)
C4 C 0.426(2) 0.000 0.340(2)
N2 N 0.4617(16) 0.1176(14) 0.2732(13)
C5 C 0.4759(15) 0.1256(13) 0.3165(11)
C6 C 0.500 0.110(2) 0.247(2)
C7 C 0.500 0.1142(18) 0.197(2)
C8 C 0.500 0.074(2) 0.167(2)
N3 N 0.3556(14) 0.1253(15) 0.3014(15)
C9 C 0.3616(13) 0.1629(10) 0.3273(13)
C10 C 0.319(2) 0.103(3) 0.319(2)
C11 C 0.3004(13) 0.060(2) 0.3004(13)
C12 C 0.2642(11) 0.0595(18) 0.2642(11)
N4 N 0.3868(16) 0.1399(12) 0.1942(16)
C13 C 0.3714(12) 0.1210(12) 0.1551(11)
C14 C 0.396(3) 0.184(2) 0.184(2)
C15 C 0.414(2) 0.2173(15) 0.2173(15)
C16 C 0.3818(13) 0.2455(12) 0.2455(12)
N6 N 0.5383(16) 0.1176(14) 0.2732(13)
C18 C 0.5241(15) 0.1256(13) 0.3165(11)
N7 N 0.3014(15) 0.1253(15) 0.3556(14)
C19 C 0.3273(13) 0.1629(10) 0.3616(13)
N8 N 0.3868(16) 0.1942(16) 0.1399(12)
C20 C 0.3714(12) 0.1551(11) 0.1210(12)
Zn2 Zn 0.6025(3) 0.1051(3) 0.2515(4)
Zn3 Zn 0.2515(4) 0.1051(3) 0.3975(3)
Zn5 Zn 0.3975(3) 0.2515(4) 0.1051(3)
N9 N 0.6045(14) 0.0383(14) 0.2340(13)
N10 N 0.6444(14) 0.1253(15) 0.3014(15)
N11 N 0.6132(16) 0.1399(12) 0.1942(16)
H1 H 0.360824 0.150624 0.0856441
H2 H 0.27678 0.0769023 0.233855
H3 H 0.25568 0.0243323 0.25568
H4 H 0.233855 0.0769023 0.27678
H5 H 0.322737 0.188656 0.388015
H6 H 0.530353 0.133771 0.188191
H7 H 0.469647 0.133771 0.188191
H8 H 0.360824 0.0856441 0.150624
H9 H 0.467051 0.0303527 0.287358
H11 H 0.346755 0.0465049 0.178364
H12 H 0.435198 0.241137 0.198211
H13 H 0.435198 0.198211 0.241137
H15 H 0.45381 -4.29218e-18 0.364669
H16 H 0.405101 0.0303527 0.344887
H17 H 0.469647 0.0535882 0.173633
H18 H 0.5 0.0850309 0.1315
H19 H 0.530353 0.0535882 0.173633
H20 H 0.286423 0.0413295 0.329348
H21 H 0.329348 0.0413295 0.286423
H22 H 0.388015 0.188656 0.322737
H23 H 0.360381 0.22307 0.265996
H24 H 0.401285 0.267886 0.267886
H25 H 0.360381 0.265996 0.22307
H26 H 0.454016 0.13106 0.34605
H28 H 0.545984 0.13106 0.34605
C2_2 C 0.413(2) 1.000 0.254(2)
C3_2 C 0.4459(18) 1.000 0.291(2)
C4_2 C 0.426(2) 1.000 0.340(2)
N5 N 0.3955(14) 0.9617(14) 0.2340(13)
C17 C 0.3665(14) 0.9755(16) 0.2009(13)
Zn4 Zn 0.3975(3) 0.8949(3) 0.2515(4)
H10 H 0.467051 0.969647 0.287358
H14 H 0.405101 0.969647 0.344887
H15_2 H 0.45381 1 0.364669
H27 H 0.346755 0.953495 0.178364
C2_3 C 0.587(2) 0.000 0.254(2)
C3_3 C 0.5541(18) 0.000 0.291(2)
C4_3 C 0.574(2) 0.000 0.340(2)
C17_2 C 0.6335(14) 0.0245(16) 0.2009(13)
H10_2 H 0.532949 0.0303527 0.287358
H14_2 H 0.594899 0.0303527 0.344887
H15_3 H 0.54619 4.29218e-18 0.364669
H27_2 H 0.653245 0.0465049 0.178364
Zn1_2 Zn 0.6025(3) 0.8949(3) 0.2515(4)
N1_2 N 0.6045(14) 0.9617(14) 0.2340(13)
C1_2 C 0.6335(14) 0.9755(16) 0.2009(13)
C2_4 C 0.587(2) 1.000 0.254(2)
C3_4 C 0.5541(18) 1.000 0.291(2)
C4_4 C 0.574(2) 1.000 0.340(2)
N2_2 N 0.5383(16) 0.8824(14) 0.2732(13)
C5_2 C 0.5241(15) 0.8744(13) 0.3165(11)
C6_2 C 0.500 0.890(2) 0.247(2)
C7_2 C 0.500 0.8858(18) 0.197(2)
C8_2 C 0.500 0.926(2) 0.167(2)
N3_2 N 0.6444(14) 0.8747(15) 0.3014(15)
C9_2 C 0.6384(13) 0.8371(10) 0.3273(13)
C10_2 C 0.681(2) 0.897(3) 0.319(2)
C11_2 C 0.6996(13) 0.940(2) 0.3004(13)
C12_2 C 0.7358(11) 0.9405(18) 0.2642(11)
N4_2 N 0.6132(16) 0.8601(12) 0.1942(16)
C13_2 C 0.6286(12) 0.8790(12) 0.1551(11)
C14_2 C 0.604(3) 0.816(2) 0.184(2)
C15_2 C 0.586(2) 0.7827(15) 0.2173(15)
C16_2 C 0.6182(13) 0.7545(12) 0.2455(12)
N6_2 N 0.4617(16) 0.8824(14) 0.2732(13)
C18_2 C 0.4759(15) 0.8744(13) 0.3165(11)
N7_2 N 0.6986(15) 0.8747(15) 0.3556(14)
C19_2 C 0.6727(13) 0.8371(10) 0.3616(13)
N8_2 N 0.6132(16) 0.8058(16) 0.1399(12)
C20_2 C 0.6286(12) 0.8449(11) 0.1210(12)
Zn3_2 Zn 0.7485(4) 0.8949(3) 0.3975(3)
Zn5_2 Zn 0.6025(3) 0.7485(4) 0.1051(3)
N10_2 N 0.3556(14) 0.8747(15) 0.3014(15)
N11_2 N 0.3868(16) 0.8601(12) 0.1942(16)
H1_2 H 0.639176 0.849376 0.0856441
H2_2 H 0.72322 0.923098 0.233855
H3_2 H 0.74432 0.975668 0.25568
H4_2 H 0.766145 0.923098 0.27678
H5_2 H 0.677263 0.811344 0.388015
H6_2 H 0.469647 0.866229 0.188191
H7_2 H 0.530353 0.866229 0.188191
H8_2 H 0.639176 0.914356 0.150624
H9_2 H 0.532949 0.969647 0.287358
H11_2 H 0.653245 0.953495 0.178364
H12_2 H 0.564802 0.758863 0.198211
H13_2 H 0.564802 0.801789 0.241137
H15_4 H 0.54619 1 0.364669
H16_2 H 0.594899 0.969647 0.344887
H17_2 H 0.530353 0.946412 0.173633
H18_2 H 0.5 0.914969 0.1315
H19_2 H 0.469647 0.946412 0.173633
H20_2 H 0.713577 0.95867 0.329348
H21_2 H 0.670652 0.95867 0.286423
H22_2 H 0.611985 0.811344 0.322737
H23_2 H 0.639619 0.77693 0.265996
H24_2 H 0.598715 0.732114 0.267886
H25_2 H 0.639619 0.734004 0.22307
H26_2 H 0.545984 0.86894 0.34605
H28_2 H 0.454016 0.86894 0.34605
C2_5 C 0.587(2) 0.746(2) -0.000
C3_5 C 0.5541(18) 0.709(2) 0.000
C4_5 C 0.574(2) 0.660(2) 0.000
N5_2 N 0.6045(14) 0.7660(13) 0.0383(14)
C17_3 C 0.6335(14) 0.7991(13) 0.0245(16)
H10_3 H 0.532949 0.712642 0.0303527
H14_3 H 0.594899 0.655113 0.0303527
H15_5 H 0.54619 0.635331 4.29218e-18
H27_3 H 0.653245 0.821636 0.0465049
Zn1_3 Zn 0.6025(3) 0.7485(4) 0.8949(3)
N1_3 N 0.6045(14) 0.7660(13) 0.9617(14)
C1_3 C 0.6335(14) 0.7991(13) 0.9755(16)
C2_6 C 0.587(2) 0.746(2) 1.000
C3_6 C 0.5541(18) 0.709(2) 1.000
C4_6 C 0.574(2) 0.660(2) 1.000
N2_3 N 0.5383(16) 0.7268(13) 0.8824(14)
C5_3 C 0.5241(15) 0.6835(11) 0.8744(13)
C6_3 C 0.500 0.753(2) 0.890(2)
C7_3 C 0.500 0.803(2) 0.8858(18)
C8_3 C 0.500 0.833(2) 0.926(2)
N3_3 N 0.6444(14) 0.6986(15) 0.8747(15)
C9_3 C 0.6384(13) 0.6727(13) 0.8371(10)
C10_3 C 0.681(2) 0.681(2) 0.897(3)
C11_3 C 0.6996(13) 0.6996(13) 0.940(2)
C12_3 C 0.7358(11) 0.7358(11) 0.9405(18)
N4_3 N 0.6132(16) 0.8058(16) 0.8601(12)
C13_3 C 0.6286(12) 0.8449(11) 0.8790(12)
C14_3 C 0.604(3) 0.816(2) 0.816(2)
C15_3 C 0.586(2) 0.7827(15) 0.7827(15)
C16_3 C 0.6182(13) 0.7545(12) 0.7545(12)
N6_3 N 0.4617(16) 0.7268(13) 0.8824(14)
C18_3 C 0.4759(15) 0.6835(11) 0.8744(13)
N7_3 N 0.6986(15) 0.6444(14) 0.8747(15)
C19_3 C 0.6727(13) 0.6384(13) 0.8371(10)
N8_3 N 0.6132(16) 0.8601(12) 0.8058(16)
C20_3 C 0.6286(12) 0.8790(12) 0.8449(11)
Zn2_2 Zn 0.3975(3) 0.7485(4) 0.8949(3)
Zn3_3 Zn 0.7485(4) 0.6025(3) 0.8949(3)
Zn5_3 Zn 0.6025(3) 0.8949(3) 0.7485(4)
N9_2 N 0.3955(14) 0.7660(13) 0.9617(14)
N10_3 N 0.3556(14) 0.6986(15) 0.8747(15)
N11_3 N 0.3868(16) 0.8058(16) 0.8601(12)
H1_3 H 0.639176 0.914356 0.849376
H2_3 H 0.72322 0.766145 0.923098
H3_3 H 0.74432 0.74432 0.975668
H4_3 H 0.766145 0.72322 0.923098
H5_3 H 0.677263 0.611985 0.811344
H6_3 H 0.469647 0.811809 0.866229
H7_3 H 0.530353 0.811809 0.866229
H8_3 H 0.639176 0.849376 0.914356
H9_3 H 0.532949 0.712642 0.969647
H11_3 H 0.653245 0.821636 0.953495
H12_3 H 0.564802 0.801789 0.758863
H13_3 H 0.564802 0.758863 0.801789
H15_6 H 0.54619 0.635331 1
H16_3 H 0.594899 0.655113 0.969647
H17_3 H 0.530353 0.826367 0.946412
H18_3 H 0.5 0.8685 0.914969
H19_3 H 0.469647 0.826367 0.946412
H20_3 H 0.713577 0.670652 0.95867
H21_3 H 0.670652 0.713577 0.95867
H22_3 H 0.611985 0.677263 0.811344
H23_3 H 0.639619 0.734004 0.77693
H24_3 H 0.598715 0.732114 0.732114
H25_3 H 0.639619 0.77693 0.734004
H26_3 H 0.545984 0.65395 0.86894
H28_3 H 0.454016 0.65395 0.86894
Zn1_4 Zn 0.6025(3) 0.2515(4) 0.1051(3)
N1_4 N 0.6045(14) 0.2340(13) 0.0383(14)
C1_4 C 0.6335(14) 0.2009(13) 0.0245(16)
C2_7 C 0.587(2) 0.254(2) 0.000
C3_7 C 0.5541(18) 0.291(2) 0.000
C4_7 C 0.574(2) 0.340(2) 0.000
N2_4 N 0.5383(16) 0.2732(13) 0.1176(14)
C5_4 C 0.5241(15) 0.3165(11) 0.1256(13)
C6_4 C 0.500 0.247(2) 0.110(2)
C7_4 C 0.500 0.197(2) 0.1142(18)
C8_4 C 0.500 0.167(2) 0.074(2)
N3_4 N 0.6444(14) 0.3014(15) 0.1253(15)
C9_4 C 0.6384(13) 0.3273(13) 0.1629(10)
C10_4 C 0.681(2) 0.319(2) 0.103(3)
C11_4 C 0.6996(13) 0.3004(13) 0.060(2)
C12_4 C 0.7358(11) 0.2642(11) 0.0595(18)
N4_4 N 0.6132(16) 0.1942(16) 0.1399(12)
C13_4 C 0.6286(12) 0.1551(11) 0.1210(12)
C14_4 C 0.604(3) 0.184(2) 0.184(2)
C15_4 C 0.586(2) 0.2173(15) 0.2173(15)
C16_4 C 0.6182(13) 0.2455(12) 0.2455(12)
N6_4 N 0.4617(16) 0.2732(13) 0.1176(14)
C18_4 C 0.4759(15) 0.3165(11) 0.1256(13)
N7_4 N 0.6986(15) 0.3556(14) 0.1253(15)
C19_4 C 0.6727(13) 0.3616(13) 0.1629(10)
C20_4 C 0.6286(12) 0.1210(12) 0.1551(11)
Zn3_4 Zn 0.7485(4) 0.3975(3) 0.1051(3)
N9_3 N 0.3955(14) 0.2340(13) 0.0383(14)
N10_4 N 0.3556(14) 0.3014(15) 0.1253(15)
H1_4 H 0.639176 0.0856441 0.150624
H2_4 H 0.72322 0.233855 0.0769023
H3_4 H 0.74432 0.25568 0.0243323
H4_4 H 0.766145 0.27678 0.0769023
H5_4 H 0.677263 0.388015 0.188656
H6_4 H 0.469647 0.188191 0.133771
H7_4 H 0.530353 0.188191 0.133771
H8_4 H 0.639176 0.150624 0.0856441
H9_4 H 0.532949 0.287358 0.0303527
H11_4 H 0.653245 0.178364 0.0465049
H12_4 H 0.564802 0.198211 0.241137
H13_4 H 0.564802 0.241137 0.198211
H15_7 H 0.54619 0.364669 -4.29218e-18
H16_4 H 0.594899 0.344887 0.0303527
H17_4 H 0.530353 0.173633 0.0535882
H18_4 H 0.5 0.1315 0.0850309
H19_4 H 0.469647 0.173633 0.0535882
H20_4 H 0.713577 0.329348 0.0413295
H21_4 H 0.670652 0.286423 0.0413295
H22_4 H 0.611985 0.322737 0.188656
H23_4 H 0.639619 0.265996 0.22307
H24_4 H 0.598715 0.267886 0.267886
H25_4 H 0.639619 0.22307 0.265996
H26_4 H 0.545984 0.34605 0.13106
H28_4 H 0.454016 0.34605 0.13106
C2_8 C 0.587(2) 0.254(2) 1.000
C3_8 C 0.5541(18) 0.291(2) 1.000
C4_8 C 0.574(2) 0.340(2) 1.000
N5_3 N 0.6045(14) 0.2340(13) 0.9617(14)
C17_4 C 0.6335(14) 0.2009(13) 0.9755(16)
Zn4_2 Zn 0.6025(3) 0.2515(4) 0.8949(3)
H10_4 H 0.532949 0.287358 0.969647
H14_4 H 0.594899 0.344887 0.969647
H15_8 H 0.54619 0.364669 1
H27_4 H 0.653245 0.178364 0.953495
Zn1_5 Zn 0.6025(3) 0.1051(3) 0.7485(4)
N1_5 N 0.6045(14) 0.0383(14) 0.7660(13)
C1_5 C 0.6335(14) 0.0245(16) 0.7991(13)
C2_9 C 0.587(2) 0.000 0.746(2)
C3_9 C 0.5541(18) 0.000 0.709(2)
C4_9 C 0.574(2) 0.000 0.660(2)
N2_5 N 0.5383(16) 0.1176(14) 0.7268(13)
C5_5 C 0.5241(15) 0.1256(13) 0.6835(11)
C6_5 C 0.500 0.110(2) 0.753(2)
C7_5 C 0.500 0.1142(18) 0.803(2)
C8_5 C 0.500 0.074(2) 0.833(2)
N3_5 N 0.6444(14) 0.1253(15) 0.6986(15)
C9_5 C 0.6384(13) 0.1629(10) 0.6727(13)
C10_5 C 0.681(2) 0.103(3) 0.681(2)
C11_5 C 0.6996(13) 0.060(2) 0.6996(13)
C12_5 C 0.7358(11) 0.0595(18) 0.7358(11)
N4_5 N 0.6132(16) 0.1399(12) 0.8058(16)
C13_5 C 0.6286(12) 0.1210(12) 0.8449(11)
C14_5 C 0.604(3) 0.184(2) 0.816(2)
C15_5 C 0.586(2) 0.2173(15) 0.7827(15)
C16_5 C 0.6182(13) 0.2455(12) 0.7545(12)
N6_5 N 0.4617(16) 0.1176(14) 0.7268(13)
C18_5 C 0.4759(15) 0.1256(13) 0.6835(11)
N7_5 N 0.6986(15) 0.1253(15) 0.6444(14)
C19_5 C 0.6727(13) 0.1629(10) 0.6384(13)
N8_4 N 0.6132(16) 0.1942(16) 0.8601(12)
C20_5 C 0.6286(12) 0.1551(11) 0.8790(12)
Zn2_3 Zn 0.3975(3) 0.1051(3) 0.7485(4)
Zn3_5 Zn 0.7485(4) 0.1051(3) 0.6025(3)
N9_4 N 0.3955(14) 0.0383(14) 0.7660(13)
N10_5 N 0.3556(14) 0.1253(15) 0.6986(15)
N11_4 N 0.3868(16) 0.1399(12) 0.8058(16)
H1_5 H 0.639176 0.150624 0.914356
H2_5 H 0.72322 0.0769023 0.766145
H3_5 H 0.74432 0.0243323 0.74432
H4_5 H 0.766145 0.0769023 0.72322
H5_5 H 0.677263 0.188656 0.611985
H6_5 H 0.469647 0.133771 0.811809
H7_5 H 0.530353 0.133771 0.811809
H8_5 H 0.639176 0.0856441 0.849376
H9_5 H 0.532949 0.0303527 0.712642
H11_5 H 0.653245 0.0465049 0.821636
H12_5 H 0.564802 0.241137 0.801789
H13_5 H 0.564802 0.198211 0.758863
H15_9 H 0.54619 -4.29218e-18 0.635331
H16_5 H 0.594899 0.0303527 0.655113
H17_5 H 0.530353 0.0535882 0.826367
H18_5 H 0.5 0.0850309 0.8685
H19_5 H 0.469647 0.0535882 0.826367
H20_5 H 0.713577 0.0413295 0.670652
H21_5 H 0.670652 0.0413295 0.713577
H22_5 H 0.611985 0.188656 0.677263
H23_5 H 0.639619 0.22307 0.734004
H24_5 H 0.598715 0.267886 0.732114
H25_5 H 0.639619 0.265996 0.77693
H26_5 H 0.545984 0.13106 0.65395
H28_5 H 0.454016 0.13106 0.65395
C2_10 C 0.587(2) 1.000 0.746(2)
C3_10 C 0.5541(18) 1.000 0.709(2)
C4_10 C 0.574(2) 1.000 0.660(2)
N5_4 N 0.6045(14) 0.9617(14) 0.7660(13)
C17_5 C 0.6335(14) 0.9755(16) 0.7991(13)
H10_5 H 0.532949 0.969647 0.712642
H14_5 H 0.594899 0.969647 0.655113
H15_10 H 0.54619 1 0.635331
H27_5 H 0.653245 0.953495 0.821636
C2_11 C -0.000 0.587(2) 0.746(2)
C3_11 C -0.000 0.5541(18) 0.709(2)
C4_11 C -0.000 0.574(2) 0.660(2)
N5_5 N 0.0383(14) 0.6045(14) 0.7660(13)
C17_6 C 0.0245(16) 0.6335(14) 0.7991(13)
Zn4_3 Zn 0.1051(3) 0.6025(3) 0.7485(4)
H10_6 H 0.0303527 0.532949 0.712642
H14_6 H 0.0303527 0.594899 0.655113
H15_11 H 4.29218e-18 0.54619 0.635331
H27_6 H 0.0465049 0.653245 0.821636
Zn1_6 Zn 0.8949(3) 0.6025(3) 0.7485(4)
N1_6 N 0.9617(14) 0.6045(14) 0.7660(13)
C1_6 C 0.9755(16) 0.6335(14) 0.7991(13)
C2_12 C 1.000 0.587(2) 0.746(2)
C3_12 C 1.000 0.5541(18) 0.709(2)
C4_12 C 1.000 0.574(2) 0.660(2)
N2_6 N 0.8824(14) 0.5383(16) 0.7268(13)
C5_6 C 0.8744(13) 0.5241(15) 0.6835(11)
C6_6 C 0.890(2) 0.500 0.753(2)
C7_6 C 0.8858(18) 0.500 0.803(2)
C8_6 C 0.926(2) 0.500 0.833(2)
N3_6 N 0.8747(15) 0.6444(14) 0.6986(15)
C9_6 C 0.8371(10) 0.6384(13) 0.6727(13)
C10_6 C 0.897(3) 0.681(2) 0.681(2)
C11_6 C 0.940(2) 0.6996(13) 0.6996(13)
C12_6 C 0.9405(18) 0.7358(11) 0.7358(11)
N4_6 N 0.8601(12) 0.6132(16) 0.8058(16)
C13_6 C 0.8790(12) 0.6286(12) 0.8449(11)
C14_6 C 0.816(2) 0.604(3) 0.816(2)
C15_6 C 0.7827(15) 0.586(2) 0.7827(15)
C16_6 C 0.7545(12) 0.6182(13) 0.7545(12)
N6_6 N 0.8824(14) 0.4617(16) 0.7268(13)
C18_6 C 0.8744(13) 0.4759(15) 0.6835(11)
N7_6 N 0.8747(15) 0.6986(15) 0.6444(14)
C19_6 C 0.8371(10) 0.6727(13) 0.6384(13)
N8_5 N 0.8058(16) 0.6132(16) 0.8601(12)
C20_6 C 0.8449(11) 0.6286(12) 0.8790(12)
Zn2_4 Zn 0.8949(3) 0.3975(3) 0.7485(4)
Zn3_6 Zn 0.8949(3) 0.7485(4) 0.6025(3)
N9_5 N 0.9617(14) 0.3955(14) 0.7660(13)
N10_6 N 0.8747(15) 0.3556(14) 0.6986(15)
N11_5 N 0.8601(12) 0.3868(16) 0.8058(16)
H1_6 H 0.849376 0.639176 0.914356
H2_6 H 0.923098 0.72322 0.766145
H3_6 H 0.975668 0.74432 0.74432
H4_6 H 0.923098 0.766145 0.72322
H5_6 H 0.811344 0.677263 0.611985
H6_6 H 0.866229 0.469647 0.811809
H7_6 H 0.866229 0.530353 0.811809
H8_6 H 0.914356 0.639176 0.849376
H9_6 H 0.969647 0.532949 0.712642
H11_6 H 0.953495 0.653245 0.821636
H12_6 H 0.758863 0.564802 0.801789
H13_6 H 0.801789 0.564802 0.758863
H15_12 H 1 0.54619 0.635331
H16_6 H 0.969647 0.594899 0.655113
H17_6 H 0.946412 0.530353 0.826367
H18_6 H 0.914969 0.5 0.8685
H19_6 H 0.946412 0.469647 0.826367
H20_6 H 0.95867 0.713577 0.670652
H21_6 H 0.95867 0.670652 0.713577
H22_6 H 0.811344 0.611985 0.677263
H23_6 H 0.77693 0.639619 0.734004
H24_6 H 0.732114 0.598715 0.732114
H25_6 H 0.734004 0.639619 0.77693
H26_6 H 0.86894 0.545984 0.65395
H28_6 H 0.86894 0.454016 0.65395
C2_13 C -0.000 0.746(2) 0.413(2)
C3_13 C 0.000 0.709(2) 0.4459(18)
C4_13 C -0.000 0.660(2) 0.426(2)
N5_6 N 0.0383(14) 0.7660(13) 0.3955(14)
C17_7 C 0.0245(16) 0.7991(13) 0.3665(14)
Zn4_4 Zn 0.1051(3) 0.7485(4) 0.3975(3)
H10_7 H 0.0303527 0.712642 0.467051
H14_7 H 0.0303527 0.655113 0.405101
H15_13 H 4.29218e-18 0.635331 0.45381
H27_7 H 0.0465049 0.821636 0.346755
Zn1_7 Zn 0.8949(3) 0.7485(4) 0.3975(3)
N1_7 N 0.9617(14) 0.7660(13) 0.3955(14)
C1_7 C 0.9755(16) 0.7991(13) 0.3665(14)
C2_14 C 1.000 0.746(2) 0.413(2)
C3_14 C 1.000 0.709(2) 0.4459(18)
C4_14 C 1.000 0.660(2) 0.426(2)
N2_7 N 0.8824(14) 0.7268(13) 0.4617(16)
C5_7 C 0.8744(13) 0.6835(11) 0.4759(15)
C6_7 C 0.890(2) 0.753(2) 0.500
C7_7 C 0.8858(18) 0.803(2) 0.500
C8_7 C 0.926(2) 0.833(2) 0.500
N3_7 N 0.8747(15) 0.6986(15) 0.3556(14)
C9_7 C 0.8371(10) 0.6727(13) 0.3616(13)
C10_7 C 0.897(3) 0.681(2) 0.319(2)
C11_7 C 0.940(2) 0.6996(13) 0.3004(13)
C12_7 C 0.9405(18) 0.7358(11) 0.2642(11)
N4_7 N 0.8601(12) 0.8058(16) 0.3868(16)
C13_7 C 0.8790(12) 0.8449(11) 0.3714(12)
C14_7 C 0.816(2) 0.816(2) 0.396(3)
C15_7 C 0.7827(15) 0.7827(15) 0.414(2)
C16_7 C 0.7545(12) 0.7545(12) 0.3818(13)
N6_7 N 0.8824(14) 0.7268(13) 0.5383(16)
C18_7 C 0.8744(13) 0.6835(11) 0.5241(15)
N7_7 N 0.8747(15) 0.6444(14) 0.3014(15)
C19_7 C 0.8371(10) 0.6384(13) 0.3273(13)
N8_6 N 0.8058(16) 0.8601(12) 0.3868(16)
C20_7 C 0.8449(11) 0.8790(12) 0.3714(12)
Zn3_7 Zn 0.8949(3) 0.6025(3) 0.2515(4)
N9_6 N 0.9617(14) 0.7660(13) 0.6045(14)
N11_6 N 0.8601(12) 0.8058(16) 0.6132(16)
H1_7 H 0.849376 0.914356 0.360824
H2_7 H 0.923098 0.766145 0.27678
H3_7 H 0.975668 0.74432 0.25568
H4_7 H 0.923098 0.72322 0.233855
H5_7 H 0.811344 0.611985 0.322737
H6_7 H 0.866229 0.811809 0.530353
H7_7 H 0.866229 0.811809 0.469647
H8_7 H 0.914356 0.849376 0.360824
H9_7 H 0.969647 0.712642 0.467051
H11_7 H 0.953495 0.821636 0.346755
H12_7 H 0.758863 0.801789 0.435198
H13_7 H 0.801789 0.758863 0.435198
H15_14 H 1 0.635331 0.45381
H16_7 H 0.969647 0.655113 0.405101
H17_7 H 0.946412 0.826367 0.469647
H18_7 H 0.914969 0.8685 0.5
H19_7 H 0.946412 0.826367 0.530353
H20_7 H 0.95867 0.670652 0.286423
H21_7 H 0.95867 0.713577 0.329348
H22_7 H 0.811344 0.677263 0.388015
H23_7 H 0.77693 0.734004 0.360381
H24_7 H 0.732114 0.732114 0.401285
H25_7 H 0.734004 0.77693 0.360381
H26_7 H 0.86894 0.65395 0.454016
H28_7 H 0.86894 0.65395 0.545984
C2_15 C -0.000 0.254(2) 0.587(2)
C3_15 C 0.000 0.291(2) 0.5541(18)
C4_15 C -0.000 0.340(2) 0.574(2)
N5_7 N 0.0383(14) 0.2340(13) 0.6045(14)
C17_8 C 0.0245(16) 0.2009(13) 0.6335(14)
Zn4_5 Zn 0.1051(3) 0.2515(4) 0.6025(3)
H10_8 H 0.0303527 0.287358 0.532949
H14_8 H 0.0303527 0.344887 0.594899
H15_15 H 4.29218e-18 0.364669 0.54619
H27_8 H 0.0465049 0.178364 0.653245
Zn1_8 Zn 0.8949(3) 0.2515(4) 0.6025(3)
N1_8 N 0.9617(14) 0.2340(13) 0.6045(14)
C1_8 C 0.9755(16) 0.2009(13) 0.6335(14)
C2_16 C 1.000 0.254(2) 0.587(2)
C3_16 C 1.000 0.291(2) 0.5541(18)
C4_16 C 1.000 0.340(2) 0.574(2)
N2_8 N 0.8824(14) 0.2732(13) 0.5383(16)
C5_8 C 0.8744(13) 0.3165(11) 0.5241(15)
C6_8 C 0.890(2) 0.247(2) 0.500
C7_8 C 0.8858(18) 0.197(2) 0.500
C8_8 C 0.926(2) 0.167(2) 0.500
N3_8 N 0.8747(15) 0.3014(15) 0.6444(14)
C9_8 C 0.8371(10) 0.3273(13) 0.6384(13)
C10_8 C 0.897(3) 0.319(2) 0.681(2)
C11_8 C 0.940(2) 0.3004(13) 0.6996(13)
C12_8 C 0.9405(18) 0.2642(11) 0.7358(11)
N4_8 N 0.8601(12) 0.1942(16) 0.6132(16)
C13_8 C 0.8790(12) 0.1551(11) 0.6286(12)
C14_8 C 0.816(2) 0.184(2) 0.604(3)
C15_8 C 0.7827(15) 0.2173(15) 0.586(2)
C16_8 C 0.7545(12) 0.2455(12) 0.6182(13)
N6_8 N 0.8824(14) 0.2732(13) 0.4617(16)
C18_8 C 0.8744(13) 0.3165(11) 0.4759(15)
C19_8 C 0.8371(10) 0.3616(13) 0.6727(13)
N8_7 N 0.8058(16) 0.1399(12) 0.6132(16)
C20_8 C 0.8449(11) 0.1210(12) 0.6286(12)
Zn2_5 Zn 0.8949(3) 0.2515(4) 0.3975(3)
N9_7 N 0.9617(14) 0.2340(13) 0.3955(14)
N10_7 N 0.8747(15) 0.3014(15) 0.3556(14)
N11_7 N 0.8601(12) 0.1942(16) 0.3868(16)
H1_8 H 0.849376 0.0856441 0.639176
H2_8 H 0.923098 0.233855 0.72322
H3_8 H 0.975668 0.25568 0.74432
H4_8 H 0.923098 0.27678 0.766145
H5_8 H 0.811344 0.388015 0.677263
H6_8 H 0.866229 0.188191 0.469647
H7_8 H 0.866229 0.188191 0.530353
H8_8 H 0.914356 0.150624 0.639176
H9_8 H 0.969647 0.287358 0.532949
H11_8 H 0.953495 0.178364 0.653245
H12_8 H 0.758863 0.198211 0.564802
H13_8 H 0.801789 0.241137 0.564802
H15_16 H 1 0.364669 0.54619
H16_8 H 0.969647 0.344887 0.594899
H17_8 H 0.946412 0.173633 0.530353
H18_8 H 0.914969 0.1315 0.5
H19_8 H 0.946412 0.173633 0.469647
H20_8 H 0.95867 0.329348 0.713577
H21_8 H 0.95867 0.286423 0.670652
H22_8 H 0.811344 0.322737 0.611985
H23_8 H 0.77693 0.265996 0.639619
H24_8 H 0.732114 0.267886 0.598715
H25_8 H 0.734004 0.22307 0.639619
H26_8 H 0.86894 0.34605 0.545984
H28_8 H 0.86894 0.34605 0.454016
C2_17 C -0.000 0.413(2) 0.254(2)
C3_17 C 0.000 0.4459(18) 0.291(2)
C4_17 C -0.000 0.426(2) 0.340(2)
N5_8 N 0.0383(14) 0.3955(14) 0.2340(13)
C17_9 C 0.0245(16) 0.3665(14) 0.2009(13)
Zn4_6 Zn 0.1051(3) 0.3975(3) 0.2515(4)
H10_9 H 0.0303527 0.467051 0.287358
H14_9 H 0.0303527 0.405101 0.344887
H15_17 H 4.29218e-18 0.45381 0.364669
H27_9 H 0.0465049 0.346755 0.178364
Zn1_9 Zn 0.8949(3) 0.3975(3) 0.2515(4)
N1_9 N 0.9617(14) 0.3955(14) 0.2340(13)
C1_9 C 0.9755(16) 0.3665(14) 0.2009(13)
C2_18 C 1.000 0.413(2) 0.254(2)
C3_18 C 1.000 0.4459(18) 0.291(2)
C4_18 C 1.000 0.426(2) 0.340(2)
N2_9 N 0.8824(14) 0.4617(16) 0.2732(13)
C5_9 C 0.8744(13) 0.4759(15) 0.3165(11)
C6_9 C 0.890(2) 0.500 0.247(2)
C7_9 C 0.8858(18) 0.500 0.197(2)
C8_9 C 0.926(2) 0.500 0.167(2)
N3_9 N 0.8747(15) 0.3556(14) 0.3014(15)
C9_9 C 0.8371(10) 0.3616(13) 0.3273(13)
C10_9 C 0.897(3) 0.319(2) 0.319(2)
C11_9 C 0.940(2) 0.3004(13) 0.3004(13)
C12_9 C 0.9405(18) 0.2642(11) 0.2642(11)
N4_9 N 0.8601(12) 0.3868(16) 0.1942(16)
C13_9 C 0.8790(12) 0.3714(12) 0.1551(11)
C14_9 C 0.816(2) 0.396(3) 0.184(2)
C15_9 C 0.7827(15) 0.414(2) 0.2173(15)
C16_9 C 0.7545(12) 0.3818(13) 0.2455(12)
N6_9 N 0.8824(14) 0.5383(16) 0.2732(13)
C18_9 C 0.8744(13) 0.5241(15) 0.3165(11)
C19_9 C 0.8371(10) 0.3273(13) 0.3616(13)
N8_8 N 0.8058(16) 0.3868(16) 0.1399(12)
C20_9 C 0.8449(11) 0.3714(12) 0.1210(12)
N9_8 N 0.9617(14) 0.6045(14) 0.2340(13)
N11_8 N 0.8601(12) 0.6132(16) 0.1942(16)
H1_9 H 0.849376 0.360824 0.0856441
H2_9 H 0.923098 0.27678 0.233855
H3_9 H 0.975668 0.25568 0.25568
H4_9 H 0.923098 0.233855 0.27678
H5_9 H 0.811344 0.322737 0.388015
H6_9 H 0.866229 0.530353 0.188191
H7_9 H 0.866229 0.469647 0.188191
H8_9 H 0.914356 0.360824 0.150624
H9_9 H 0.969647 0.467051 0.287358
H11_9 H 0.953495 0.346755 0.178364
H12_9 H 0.758863 0.435198 0.198211
H13_9 H 0.801789 0.435198 0.241137
H15_18 H 1 0.45381 0.364669
H16_9 H 0.969647 0.405101 0.344887
H17_9 H 0.946412 0.469647 0.173633
H18_9 H 0.914969 0.5 0.1315
H19_9 H 0.946412 0.530353 0.173633
H20_9 H 0.95867 0.286423 0.329348
H21_9 H 0.95867 0.329348 0.286423
H22_9 H 0.811344 0.388015 0.322737
H23_9 H 0.77693 0.360381 0.265996
H24_9 H 0.732114 0.401285 0.267886
H25_9 H 0.734004 0.360381 0.22307
H26_9 H 0.86894 0.454016 0.34605
H28_9 H 0.86894 0.545984 0.34605
Zn1_10 Zn 0.7485(4) 0.6025(3) 0.1051(3)
N1_10 N 0.7660(13) 0.6045(14) 0.0383(14)
C1_10 C 0.7991(13) 0.6335(14) 0.0245(16)
C2_19 C 0.746(2) 0.587(2) 0.000
C3_19 C 0.709(2) 0.5541(18) 0.000
C4_19 C 0.660(2) 0.574(2) 0.000
N2_10 N 0.7268(13) 0.5383(16) 0.1176(14)
C5_10 C 0.6835(11) 0.5241(15) 0.1256(13)
C6_10 C 0.753(2) 0.500 0.110(2)
C7_10 C 0.803(2) 0.500 0.1142(18)
C8_10 C 0.833(2) 0.500 0.074(2)
N3_10 N 0.6986(15) 0.6444(14) 0.1253(15)
C9_10 C 0.6727(13) 0.6384(13) 0.1629(10)
C10_10 C 0.681(2) 0.681(2) 0.103(3)
C11_10 C 0.6996(13) 0.6996(13) 0.060(2)
C12_10 C 0.7358(11) 0.7358(11) 0.0595(18)
N4_10 N 0.8058(16) 0.6132(16) 0.1399(12)
C13_10 C 0.8449(11) 0.6286(12) 0.1210(12)
C14_10 C 0.816(2) 0.604(3) 0.184(2)
C15_10 C 0.7827(15) 0.586(2) 0.2173(15)
C16_10 C 0.7545(12) 0.6182(13) 0.2455(12)
N6_10 N 0.7268(13) 0.4617(16) 0.1176(14)
C18_10 C 0.6835(11) 0.4759(15) 0.1256(13)
N7_8 N 0.6444(14) 0.6986(15) 0.1253(15)
C19_10 C 0.6384(13) 0.6727(13) 0.1629(10)
C20_10 C 0.8790(12) 0.6286(12) 0.1551(11)
N9_9 N 0.7660(13) 0.3955(14) 0.0383(14)
H1_10 H 0.914356 0.639176 0.150624
H2_10 H 0.766145 0.72322 0.0769023
H3_10 H 0.74432 0.74432 0.0243323
H4_10 H 0.72322 0.766145 0.0769023
H5_10 H 0.611985 0.677263 0.188656
H6_10 H 0.811809 0.469647 0.133771
H7_10 H 0.811809 0.530353 0.133771
H8_10 H 0.849376 0.639176 0.0856441
H9_10 H 0.712642 0.532949 0.0303527
H11_10 H 0.821636 0.653245 0.0465049
H12_10 H 0.801789 0.564802 0.241137
H13_10 H 0.758863 0.564802 0.198211
H15_19 H 0.635331 0.54619 -4.29218e-18
H16_10 H 0.655113 0.594899 0.0303527
H17_10 H 0.826367 0.530353 0.0535882
H18_10 H 0.8685 0.5 0.0850309
H19_10 H 0.826367 0.469647 0.0535882
H20_10 H 0.670652 0.713577 0.0413295
H21_10 H 0.713577 0.670652 0.0413295
H22_10 H 0.677263 0.611985 0.188656
H23_10 H 0.734004 0.639619 0.22307
H24_10 H 0.732114 0.598715 0.267886
H25_10 H 0.77693 0.639619 0.265996
H26_10 H 0.65395 0.545984 0.13106
H28_10 H 0.65395 0.454016 0.13106
C2_20 C 0.746(2) 0.587(2) 1.000
C3_20 C 0.709(2) 0.5541(18) 1.000
C4_20 C 0.660(2) 0.574(2) 1.000
N5_9 N 0.7660(13) 0.6045(14) 0.9617(14)
C17_10 C 0.7991(13) 0.6335(14) 0.9755(16)
H10_10 H 0.712642 0.532949 0.969647
H14_10 H 0.655113 0.594899 0.969647
H15_20 H 0.635331 0.54619 1
H27_10 H 0.821636 0.653245 0.953495
C2_21 C 0.746(2) -0.000 0.587(2)
C3_21 C 0.709(2) 0.000 0.5541(18)
C4_21 C 0.660(2) 0.000 0.574(2)
N5_10 N 0.7660(13) 0.0383(14) 0.6045(14)
C17_11 C 0.7991(13) 0.0245(16) 0.6335(14)
H10_11 H 0.712642 0.0303527 0.532949
H14_11 H 0.655113 0.0303527 0.594899
H15_21 H 0.635331 4.29218e-18 0.54619
H27_11 H 0.821636 0.0465049 0.653245
Zn1_11 Zn 0.7485(4) 0.8949(3) 0.6025(3)
N1_11 N 0.7660(13) 0.9617(14) 0.6045(14)
C1_11 C 0.7991(13) 0.9755(16) 0.6335(14)
C2_22 C 0.746(2) 1.000 0.587(2)
C3_22 C 0.709(2) 1.000 0.5541(18)
C4_22 C 0.660(2) 1.000 0.574(2)
N2_11 N 0.7268(13) 0.8824(14) 0.5383(16)
C5_11 C 0.6835(11) 0.8744(13) 0.5241(15)
C6_11 C 0.753(2) 0.890(2) 0.500
C7_11 C 0.803(2) 0.8858(18) 0.500
C8_11 C 0.833(2) 0.926(2) 0.500
N3_11 N 0.6986(15) 0.8747(15) 0.6444(14)
C9_11 C 0.6727(13) 0.8371(10) 0.6384(13)
C10_11 C 0.681(2) 0.897(3) 0.681(2)
C11_11 C 0.6996(13) 0.940(2) 0.6996(13)
C12_11 C 0.7358(11) 0.9405(18) 0.7358(11)
N4_11 N 0.8058(16) 0.8601(12) 0.6132(16)
C13_11 C 0.8449(11) 0.8790(12) 0.6286(12)
C14_11 C 0.816(2) 0.816(2) 0.604(3)
C15_11 C 0.7827(15) 0.7827(15) 0.586(2)
C16_11 C 0.7545(12) 0.7545(12) 0.6182(13)
N6_11 N 0.7268(13) 0.8824(14) 0.4617(16)
C18_11 C 0.6835(11) 0.8744(13) 0.4759(15)
N7_9 N 0.6444(14) 0.8747(15) 0.6986(15)
C19_11 C 0.6384(13) 0.8371(10) 0.6727(13)
C20_11 C 0.8790(12) 0.8449(11) 0.6286(12)
N9_10 N 0.7660(13) 0.9617(14) 0.3955(14)
H1_11 H 0.914356 0.849376 0.639176
H2_11 H 0.766145 0.923098 0.72322
H3_11 H 0.74432 0.975668 0.74432
H4_11 H 0.72322 0.923098 0.766145
H5_11 H 0.611985 0.811344 0.677263
H6_11 H 0.811809 0.866229 0.469647
H7_11 H 0.811809 0.866229 0.530353
H8_11 H 0.849376 0.914356 0.639176
H9_11 H 0.712642 0.969647 0.532949
H11_11 H 0.821636 0.953495 0.653245
H12_11 H 0.801789 0.758863 0.564802
H13_11 H 0.758863 0.801789 0.564802
H15_22 H 0.635331 1 0.54619
H16_11 H 0.655113 0.969647 0.594899
H17_11 H 0.826367 0.946412 0.530353
H18_11 H 0.8685 0.914969 0.5
H19_11 H 0.826367 0.946412 0.469647
H20_11 H 0.670652 0.95867 0.713577
H21_11 H 0.713577 0.95867 0.670652
H22_11 H 0.677263 0.811344 0.611985
H23_11 H 0.734004 0.77693 0.639619
H24_11 H 0.732114 0.732114 0.598715
H25_11 H 0.77693 0.734004 0.639619
H26_11 H 0.65395 0.86894 0.545984
H28_11 H 0.65395 0.86894 0.454016
Zn1_12 Zn 0.7485(4) 0.1051(3) 0.3975(3)
N1_12 N 0.7660(13) 0.0383(14) 0.3955(14)
C1_12 C 0.7991(13) 0.0245(16) 0.3665(14)
C2_23 C 0.746(2) 0.000 0.413(2)
C3_23 C 0.709(2) 0.000 0.4459(18)
C4_23 C 0.660(2) 0.000 0.426(2)
N2_12 N 0.7268(13) 0.1176(14) 0.4617(16)
C5_12 C 0.6835(11) 0.1256(13) 0.4759(15)
C6_12 C 0.753(2) 0.110(2) 0.500
C7_12 C 0.803(2) 0.1142(18) 0.500
C8_12 C 0.833(2) 0.074(2) 0.500
N3_12 N 0.6986(15) 0.1253(15) 0.3556(14)
C9_12 C 0.6727(13) 0.1629(10) 0.3616(13)
C10_12 C 0.681(2) 0.103(3) 0.319(2)
C11_12 C 0.6996(13) 0.060(2) 0.3004(13)
C12_12 C 0.7358(11) 0.0595(18) 0.2642(11)
N4_12 N 0.8058(16) 0.1399(12) 0.3868(16)
C13_12 C 0.8449(11) 0.1210(12) 0.3714(12)
C14_12 C 0.816(2) 0.184(2) 0.396(3)
C15_12 C 0.7827(15) 0.2173(15) 0.414(2)
C16_12 C 0.7545(12) 0.2455(12) 0.3818(13)
N6_12 N 0.7268(13) 0.1176(14) 0.5383(16)
C18_12 C 0.6835(11) 0.1256(13) 0.5241(15)
C19_12 C 0.6384(13) 0.1629(10) 0.3273(13)
C20_12 C 0.8790(12) 0.1551(11) 0.3714(12)
H1_12 H 0.914356 0.150624 0.360824
H2_12 H 0.766145 0.0769023 0.27678
H3_12 H 0.74432 0.0243323 0.25568
H4_12 H 0.72322 0.0769023 0.233855
H5_12 H 0.611985 0.188656 0.322737
H6_12 H 0.811809 0.133771 0.530353
H7_12 H 0.811809 0.133771 0.469647
H8_12 H 0.849376 0.0856441 0.360824
H9_12 H 0.712642 0.0303527 0.467051
H11_12 H 0.821636 0.0465049 0.346755
H12_12 H 0.801789 0.241137 0.435198
H13_12 H 0.758863 0.198211 0.435198
H15_23 H 0.635331 -4.29218e-18 0.45381
H16_12 H 0.655113 0.0303527 0.405101
H17_12 H 0.826367 0.0535882 0.469647
H18_12 H 0.8685 0.0850309 0.5
H19_12 H 0.826367 0.0535882 0.530353
H20_12 H 0.670652 0.0413295 0.286423
H21_12 H 0.713577 0.0413295 0.329348
H22_12 H 0.677263 0.188656 0.388015
H23_12 H 0.734004 0.22307 0.360381
H24_12 H 0.732114 0.267886 0.401285
H25_12 H 0.77693 0.265996 0.360381
H26_12 H 0.65395 0.13106 0.454016
H28_12 H 0.65395 0.13106 0.545984
C2_24 C 0.746(2) 1.000 0.413(2)
C3_24 C 0.709(2) 1.000 0.4459(18)
C4_24 C 0.660(2) 1.000 0.426(2)
C17_12 C 0.7991(13) 0.9755(16) 0.3665(14)
H10_12 H 0.712642 0.969647 0.467051
H14_12 H 0.655113 0.969647 0.405101
H15_24 H 0.635331 1 0.45381
H27_12 H 0.821636 0.953495 0.346755
C2_25 C 0.746(2) 0.413(2) -0.000
C3_25 C 0.709(2) 0.4459(18) 0.000
C4_25 C 0.660(2) 0.426(2) 0.000
C17_13 C 0.7991(13) 0.3665(14) 0.0245(16)
H10_13 H 0.712642 0.467051 0.0303527
H14_13 H 0.655113 0.405101 0.0303527
H15_25 H 0.635331 0.45381 4.29218e-18
H27_13 H 0.821636 0.346755 0.0465049
Zn1_13 Zn 0.7485(4) 0.3975(3) 0.8949(3)
N1_13 N 0.7660(13) 0.3955(14) 0.9617(14)
C1_13 C 0.7991(13) 0.3665(14) 0.9755(16)
C2_26 C 0.746(2) 0.413(2) 1.000
C3_26 C 0.709(2) 0.4459(18) 1.000
C4_26 C 0.660(2) 0.426(2) 1.000
N2_13 N 0.7268(13) 0.4617(16) 0.8824(14)
C5_13 C 0.6835(11) 0.4759(15) 0.8744(13)
C6_13 C 0.753(2) 0.500 0.890(2)
C7_13 C 0.803(2) 0.500 0.8858(18)
C8_13 C 0.833(2) 0.500 0.926(2)
N3_13 N 0.6986(15) 0.3556(14) 0.8747(15)
C9_13 C 0.6727(13) 0.3616(13) 0.8371(10)
C10_13 C 0.681(2) 0.319(2) 0.897(3)
C11_13 C 0.6996(13) 0.3004(13) 0.940(2)
C12_13 C 0.7358(11) 0.2642(11) 0.9405(18)
N4_13 N 0.8058(16) 0.3868(16) 0.8601(12)
C13_13 C 0.8449(11) 0.3714(12) 0.8790(12)
C14_13 C 0.816(2) 0.396(3) 0.816(2)
C15_13 C 0.7827(15) 0.414(2) 0.7827(15)
C16_13 C 0.7545(12) 0.3818(13) 0.7545(12)
N6_13 N 0.7268(13) 0.5383(16) 0.8824(14)
C18_13 C 0.6835(11) 0.5241(15) 0.8744(13)
N7_10 N 0.6444(14) 0.3014(15) 0.8747(15)
C19_13 C 0.6384(13) 0.3273(13) 0.8371(10)
C20_13 C 0.8790(12) 0.3714(12) 0.8449(11)
H1_13 H 0.914356 0.360824 0.849376
H2_13 H 0.766145 0.27678 0.923098
H3_13 H 0.74432 0.25568 0.975668
H4_13 H 0.72322 0.233855 0.923098
H5_13 H 0.611985 0.322737 0.811344
H6_13 H 0.811809 0.530353 0.866229
H7_13 H 0.811809 0.469647 0.866229
H8_13 H 0.849376 0.360824 0.914356
H9_13 H 0.712642 0.467051 0.969647
H11_13 H 0.821636 0.346755 0.953495
H12_13 H 0.801789 0.435198 0.758863
H13_13 H 0.758863 0.435198 0.801789
H15_26 H 0.635331 0.45381 1
H16_13 H 0.655113 0.405101 0.969647
H17_13 H 0.826367 0.469647 0.946412
H18_13 H 0.8685 0.5 0.914969
H19_13 H 0.826367 0.530353 0.946412
H20_13 H 0.670652 0.286423 0.95867
H21_13 H 0.713577 0.329348 0.95867
H22_13 H 0.677263 0.388015 0.811344
H23_13 H 0.734004 0.360381 0.77693
H24_13 H 0.732114 0.401285 0.732114
H25_13 H 0.77693 0.360381 0.734004
H26_13 H 0.65395 0.454016 0.86894
H28_13 H 0.65395 0.545984 0.86894
C2_27 C 0.254(2) 0.587(2) -0.000
C3_27 C 0.291(2) 0.5541(18) 0.000
C4_27 C 0.340(2) 0.574(2) 0.000
N5_11 N 0.2340(13) 0.6045(14) 0.0383(14)
C17_14 C 0.2009(13) 0.6335(14) 0.0245(16)
Zn4_7 Zn 0.2515(4) 0.6025(3) 0.1051(3)
H10_14 H 0.287358 0.532949 0.0303527
H14_14 H 0.344887 0.594899 0.0303527
H15_27 H 0.364669 0.54619 4.29218e-18
H27_14 H 0.178364 0.653245 0.0465049
Zn1_14 Zn 0.2515(4) 0.6025(3) 0.8949(3)
N1_14 N 0.2340(13) 0.6045(14) 0.9617(14)
C1_14 C 0.2009(13) 0.6335(14) 0.9755(16)
C2_28 C 0.254(2) 0.587(2) 1.000
C3_28 C 0.291(2) 0.5541(18) 1.000
C4_28 C 0.340(2) 0.574(2) 1.000
N2_14 N 0.2732(13) 0.5383(16) 0.8824(14)
C5_14 C 0.3165(11) 0.5241(15) 0.8744(13)
C6_14 C 0.247(2) 0.500 0.890(2)
C7_14 C 0.197(2) 0.500 0.8858(18)
C8_14 C 0.167(2) 0.500 0.926(2)
N3_14 N 0.3014(15) 0.6444(14) 0.8747(15)
C9_14 C 0.3273(13) 0.6384(13) 0.8371(10)
C10_14 C 0.319(2) 0.681(2) 0.897(3)
C11_14 C 0.3004(13) 0.6996(13) 0.940(2)
C12_14 C 0.2642(11) 0.7358(11) 0.9405(18)
N4_14 N 0.1942(16) 0.6132(16) 0.8601(12)
C13_14 C 0.1551(11) 0.6286(12) 0.8790(12)
C14_14 C 0.184(2) 0.604(3) 0.816(2)
C15_14 C 0.2173(15) 0.586(2) 0.7827(15)
C16_14 C 0.2455(12) 0.6182(13) 0.7545(12)
N6_14 N 0.2732(13) 0.4617(16) 0.8824(14)
C18_14 C 0.3165(11) 0.4759(15) 0.8744(13)
C19_14 C 0.3616(13) 0.6727(13) 0.8371(10)
N8_9 N 0.1399(12) 0.6132(16) 0.8058(16)
C20_14 C 0.1210(12) 0.6286(12) 0.8449(11)
Zn2_6 Zn 0.2515(4) 0.3975(3) 0.8949(3)
N9_11 N 0.2340(13) 0.3955(14) 0.9617(14)
N10_8 N 0.3014(15) 0.3556(14) 0.8747(15)
N11_9 N 0.1942(16) 0.3868(16) 0.8601(12)
H1_14 H 0.0856441 0.639176 0.849376
H2_14 H 0.233855 0.72322 0.923098
H3_14 H 0.25568 0.74432 0.975668
H4_14 H 0.27678 0.766145 0.923098
H5_14 H 0.388015 0.677263 0.811344
H6_14 H 0.188191 0.469647 0.866229
H7_14 H 0.188191 0.530353 0.866229
H8_14 H 0.150624 0.639176 0.914356
H9_14 H 0.287358 0.532949 0.969647
H11_14 H 0.178364 0.653245 0.953495
H12_14 H 0.198211 0.564802 0.758863
H13_14 H 0.241137 0.564802 0.801789
H15_28 H 0.364669 0.54619 1
H16_14 H 0.344887 0.594899 0.969647
H17_14 H 0.173633 0.530353 0.946412
H18_14 H 0.1315 0.5 0.914969
H19_14 H 0.173633 0.469647 0.946412
H20_14 H 0.329348 0.713577 0.95867
H21_14 H 0.286423 0.670652 0.95867
H22_14 H 0.322737 0.611985 0.811344
H23_14 H 0.265996 0.639619 0.77693
H24_14 H 0.267886 0.598715 0.732114
H25_14 H 0.22307 0.639619 0.734004
H26_14 H 0.34605 0.545984 0.86894
H28_14 H 0.34605 0.454016 0.86894
C2_29 C 0.254(2) -0.000 0.413(2)
C3_29 C 0.291(2) 0.000 0.4459(18)
C4_29 C 0.340(2) 0.000 0.426(2)
N5_12 N 0.2340(13) 0.0383(14) 0.3955(14)
C17_15 C 0.2009(13) 0.0245(16) 0.3665(14)
H10_15 H 0.287358 0.0303527 0.467051
H14_15 H 0.344887 0.0303527 0.405101
H15_29 H 0.364669 4.29218e-18 0.45381
H27_15 H 0.178364 0.0465049 0.346755
Zn1_15 Zn 0.2515(4) 0.8949(3) 0.3975(3)
N1_15 N 0.2340(13) 0.9617(14) 0.3955(14)
C1_15 C 0.2009(13) 0.9755(16) 0.3665(14)
C2_30 C 0.254(2) 1.000 0.413(2)
C3_30 C 0.291(2) 1.000 0.4459(18)
C4_30 C 0.340(2) 1.000 0.426(2)
N2_15 N 0.2732(13) 0.8824(14) 0.4617(16)
C5_15 C 0.3165(11) 0.8744(13) 0.4759(15)
C6_15 C 0.247(2) 0.890(2) 0.500
C7_15 C 0.197(2) 0.8858(18) 0.500
C8_15 C 0.167(2) 0.926(2) 0.500
N3_15 N 0.3014(15) 0.8747(15) 0.3556(14)
C9_15 C 0.3273(13) 0.8371(10) 0.3616(13)
C10_15 C 0.319(2) 0.897(3) 0.319(2)
C11_15 C 0.3004(13) 0.940(2) 0.3004(13)
C12_15 C 0.2642(11) 0.9405(18) 0.2642(11)
N4_15 N 0.1942(16) 0.8601(12) 0.3868(16)
C13_15 C 0.1551(11) 0.8790(12) 0.3714(12)
C14_15 C 0.184(2) 0.816(2) 0.396(3)
C15_15 C 0.2173(15) 0.7827(15) 0.414(2)
C16_15 C 0.2455(12) 0.7545(12) 0.3818(13)
N6_15 N 0.2732(13) 0.8824(14) 0.5383(16)
C18_15 C 0.3165(11) 0.8744(13) 0.5241(15)
C19_15 C 0.3616(13) 0.8371(10) 0.3273(13)
N8_10 N 0.1399(12) 0.8058(16) 0.3868(16)
C20_15 C 0.1210(12) 0.8449(11) 0.3714(12)
Zn2_7 Zn 0.2515(4) 0.8949(3) 0.6025(3)
N9_12 N 0.2340(13) 0.9617(14) 0.6045(14)
N10_9 N 0.3014(15) 0.8747(15) 0.6444(14)
N11_10 N 0.1942(16) 0.8601(12) 0.6132(16)
H1_15 H 0.0856441 0.849376 0.360824
H2_15 H 0.233855 0.923098 0.27678
H3_15 H 0.25568 0.975668 0.25568
H4_15 H 0.27678 0.923098 0.233855
H5_15 H 0.388015 0.811344 0.322737
H6_15 H 0.188191 0.866229 0.530353
H7_15 H 0.188191 0.866229 0.469647
H8_15 H 0.150624 0.914356 0.360824
H9_15 H 0.287358 0.969647 0.467051
H11_15 H 0.178364 0.953495 0.346755
H12_15 H 0.198211 0.758863 0.435198
H13_15 H 0.241137 0.801789 0.435198
H15_30 H 0.364669 1 0.45381
H16_15 H 0.344887 0.969647 0.405101
H17_15 H 0.173633 0.946412 0.469647
H18_15 H 0.1315 0.914969 0.5
H19_15 H 0.173633 0.946412 0.530353
H20_15 H 0.329348 0.95867 0.286423
H21_15 H 0.286423 0.95867 0.329348
H22_15 H 0.322737 0.811344 0.388015
H23_15 H 0.265996 0.77693 0.360381
H24_15 H 0.267886 0.732114 0.401285
H25_15 H 0.22307 0.734004 0.360381
H26_15 H 0.34605 0.86894 0.454016
H28_15 H 0.34605 0.86894 0.545984
Zn1_16 Zn 0.2515(4) 0.1051(3) 0.6025(3)
N1_16 N 0.2340(13) 0.0383(14) 0.6045(14)
C1_16 C 0.2009(13) 0.0245(16) 0.6335(14)
C2_31 C 0.254(2) -0.000 0.587(2)
C3_31 C 0.291(2) 0.000 0.5541(18)
C4_31 C 0.340(2) 0.000 0.574(2)
N2_16 N 0.2732(13) 0.1176(14) 0.5383(16)
C5_16 C 0.3165(11) 0.1256(13) 0.5241(15)
C6_16 C 0.247(2) 0.110(2) 0.500
C7_16 C 0.197(2) 0.1142(18) 0.500
C8_16 C 0.167(2) 0.074(2) 0.500
N3_16 N 0.3014(15) 0.1253(15) 0.6444(14)
C9_16 C 0.3273(13) 0.1629(10) 0.6384(13)
C10_16 C 0.319(2) 0.103(3) 0.681(2)
C11_16 C 0.3004(13) 0.060(2) 0.6996(13)
C12_16 C 0.2642(11) 0.0595(18) 0.7358(11)
N4_16 N 0.1942(16) 0.1399(12) 0.6132(16)
C13_16 C 0.1551(11) 0.1210(12) 0.6286(12)
C14_16 C 0.184(2) 0.184(2) 0.604(3)
C15_16 C 0.2173(15) 0.2173(15) 0.586(2)
C16_16 C 0.2455(12) 0.2455(12) 0.6182(13)
N6_16 N 0.2732(13) 0.1176(14) 0.4617(16)
C18_16 C 0.3165(11) 0.1256(13) 0.4759(15)
C19_16 C 0.3616(13) 0.1629(10) 0.6727(13)
N8_11 N 0.1399(12) 0.1942(16) 0.6132(16)
C20_16 C 0.1210(12) 0.1551(11) 0.6286(12)
N11_11 N 0.1942(16) 0.1399(12) 0.3868(16)
H1_16 H 0.0856441 0.150624 0.639176
H2_16 H 0.233855 0.0769023 0.72322
H3_16 H 0.25568 0.0243323 0.74432
H4_16 H 0.27678 0.0769023 0.766145
H5_16 H 0.388015 0.188656 0.677263
H6_16 H 0.188191 0.133771 0.469647
H7_16 H 0.188191 0.133771 0.530353
H8_16 H 0.150624 0.0856441 0.639176
H9_16 H 0.287358 0.0303527 0.532949
H11_16 H 0.178364 0.0465049 0.653245
H12_16 H 0.198211 0.241137 0.564802
H13_16 H 0.241137 0.198211 0.564802
H15_31 H 0.364669 -4.29218e-18 0.54619
H16_16 H 0.344887 0.0303527 0.594899
H17_16 H 0.173633 0.0535882 0.530353
H18_16 H 0.1315 0.0850309 0.5
H19_16 H 0.173633 0.0535882 0.469647
H20_16 H 0.329348 0.0413295 0.713577
H21_16 H 0.286423 0.0413295 0.670652
H22_16 H 0.322737 0.188656 0.611985
H23_16 H 0.265996 0.22307 0.639619
H24_16 H 0.267886 0.267886 0.598715
H25_16 H 0.22307 0.265996 0.639619
H26_16 H 0.34605 0.13106 0.545984
H28_16 H 0.34605 0.13106 0.454016
C2_32 C 0.254(2) 1.000 0.587(2)
C3_32 C 0.291(2) 1.000 0.5541(18)
C4_32 C 0.340(2) 1.000 0.574(2)
C17_16 C 0.2009(13) 0.9755(16) 0.6335(14)
H10_16 H 0.287358 0.969647 0.532949
H14_16 H 0.344887 0.969647 0.594899
H15_32 H 0.364669 1 0.54619
H27_16 H 0.178364 0.953495 0.653245
Zn1_17 Zn 0.2515(4) 0.3975(3) 0.1051(3)
N1_17 N 0.2340(13) 0.3955(14) 0.0383(14)
C1_17 C 0.2009(13) 0.3665(14) 0.0245(16)
C2_33 C 0.254(2) 0.413(2) 0.000
C3_33 C 0.291(2) 0.4459(18) 0.000
C4_33 C 0.340(2) 0.426(2) 0.000
N2_17 N 0.2732(13) 0.4617(16) 0.1176(14)
C5_17 C 0.3165(11) 0.4759(15) 0.1256(13)
C6_17 C 0.247(2) 0.500 0.110(2)
C7_17 C 0.197(2) 0.500 0.1142(18)
C8_17 C 0.167(2) 0.500 0.074(2)
N3_17 N 0.3014(15) 0.3556(14) 0.1253(15)
C9_17 C 0.3273(13) 0.3616(13) 0.1629(10)
C10_17 C 0.319(2) 0.319(2) 0.103(3)
C11_17 C 0.3004(13) 0.3004(13) 0.060(2)
C12_17 C 0.2642(11) 0.2642(11) 0.0595(18)
N4_17 N 0.1942(16) 0.3868(16) 0.1399(12)
C13_17 C 0.1551(11) 0.3714(12) 0.1210(12)
C14_17 C 0.184(2) 0.396(3) 0.184(2)
C15_17 C 0.2173(15) 0.414(2) 0.2173(15)
C16_17 C 0.2455(12) 0.3818(13) 0.2455(12)
N6_17 N 0.2732(13) 0.5383(16) 0.1176(14)
C18_17 C 0.3165(11) 0.5241(15) 0.1256(13)
C19_17 C 0.3616(13) 0.3273(13) 0.1629(10)
N8_12 N 0.1399(12) 0.3868(16) 0.1942(16)
C20_17 C 0.1210(12) 0.3714(12) 0.1551(11)
N10_10 N 0.3014(15) 0.6444(14) 0.1253(15)
N11_12 N 0.1942(16) 0.6132(16) 0.1399(12)
H1_17 H 0.0856441 0.360824 0.150624
H2_17 H 0.233855 0.27678 0.0769023
H3_17 H 0.25568 0.25568 0.0243323
H4_17 H 0.27678 0.233855 0.0769023
H5_17 H 0.388015 0.322737 0.188656
H6_17 H 0.188191 0.530353 0.133771
H7_17 H 0.188191 0.469647 0.133771
H8_17 H 0.150624 0.360824 0.0856441
H9_17 H 0.287358 0.467051 0.0303527
H11_17 H 0.178364 0.346755 0.0465049
H12_17 H 0.198211 0.435198 0.241137
H13_17 H 0.241137 0.435198 0.198211
H15_33 H 0.364669 0.45381 -4.29218e-18
H16_17 H 0.344887 0.405101 0.0303527
H17_17 H 0.173633 0.469647 0.0535882
H18_17 H 0.1315 0.5 0.0850309
H19_17 H 0.173633 0.530353 0.0535882
H20_17 H 0.329348 0.286423 0.0413295
H21_17 H 0.286423 0.329348 0.0413295
H22_17 H 0.322737 0.388015 0.188656
H23_17 H 0.265996 0.360381 0.22307
H24_17 H 0.267886 0.401285 0.267886
H25_17 H 0.22307 0.360381 0.265996
H26_17 H 0.34605 0.454016 0.13106
H28_17 H 0.34605 0.545984 0.13106
C2_34 C 0.254(2) 0.413(2) 1.000
C3_34 C 0.291(2) 0.4459(18) 1.000
C4_34 C 0.340(2) 0.426(2) 1.000
C17_17 C 0.2009(13) 0.3665(14) 0.9755(16)
H10_17 H 0.287358 0.467051 0.969647
H14_17 H 0.344887 0.405101 0.969647
H15_34 H 0.364669 0.45381 1
H27_17 H 0.178364 0.346755 0.953495
Zn1_18 Zn 0.1051(3) 0.6025(3) 0.2515(4)
N1_18 N 0.0383(14) 0.6045(14) 0.2340(13)
C1_18 C 0.0245(16) 0.6335(14) 0.2009(13)
C2_35 C -0.000 0.587(2) 0.254(2)
C3_35 C 0.000 0.5541(18) 0.291(2)
C4_35 C -0.000 0.574(2) 0.340(2)
N2_18 N 0.1176(14) 0.5383(16) 0.2732(13)
C5_18 C 0.1256(13) 0.5241(15) 0.3165(11)
C6_18 C 0.110(2) 0.500 0.247(2)
C7_18 C 0.1142(18) 0.500 0.197(2)
C8_18 C 0.074(2) 0.500 0.167(2)
N3_18 N 0.1253(15) 0.6444(14) 0.3014(15)
C9_18 C 0.1629(10) 0.6384(13) 0.3273(13)
C10_18 C 0.103(3) 0.681(2) 0.319(2)
C11_18 C 0.060(2) 0.6996(13) 0.3004(13)
C12_18 C 0.0595(18) 0.7358(11) 0.2642(11)
N4_18 N 0.1399(12) 0.6132(16) 0.1942(16)
C13_18 C 0.1210(12) 0.6286(12) 0.1551(11)
C14_18 C 0.184(2) 0.604(3) 0.184(2)
C15_18 C 0.2173(15) 0.586(2) 0.2173(15)
C16_18 C 0.2455(12) 0.6182(13) 0.2455(12)
N6_18 N 0.1176(14) 0.4617(16) 0.2732(13)
C18_18 C 0.1256(13) 0.4759(15) 0.3165(11)
N7_11 N 0.1253(15) 0.6986(15) 0.3556(14)
C19_18 C 0.1629(10) 0.6727(13) 0.3616(13)
C20_18 C 0.1551(11) 0.6286(12) 0.1210(12)
N10_11 N 0.1253(15) 0.3556(14) 0.3014(15)
H1_18 H 0.150624 0.639176 0.0856441
H2_18 H 0.0769023 0.72322 0.233855
H3_18 H 0.0243323 0.74432 0.25568
H4_18 H 0.0769023 0.766145 0.27678
H5_18 H 0.188656 0.677263 0.388015
H6_18 H 0.133771 0.469647 0.188191
H7_18 H 0.133771 0.530353 0.188191
H8_18 H 0.0856441 0.639176 0.150624
H9_18 H 0.0303527 0.532949 0.287358
H11_18 H 0.0465049 0.653245 0.178364
H12_18 H 0.241137 0.564802 0.198211
H13_18 H 0.198211 0.564802 0.241137
H15_35 H -4.29218e-18 0.54619 0.364669
H16_18 H 0.0303527 0.594899 0.344887
H17_18 H 0.0535882 0.530353 0.173633
H18_18 H 0.0850309 0.5 0.1315
H19_18 H 0.0535882 0.469647 0.173633
H20_18 H 0.0413295 0.713577 0.329348
H21_18 H 0.0413295 0.670652 0.286423
H22_18 H 0.188656 0.611985 0.322737
H23_18 H 0.22307 0.639619 0.265996
H24_18 H 0.267886 0.598715 0.267886
H25_18 H 0.265996 0.639619 0.22307
H26_18 H 0.13106 0.545984 0.34605
H28_18 H 0.13106 0.454016 0.34605
C2_36 C 1.000 0.587(2) 0.254(2)
C3_36 C 1.000 0.5541(18) 0.291(2)
C4_36 C 1.000 0.574(2) 0.340(2)
C17_18 C 0.9755(16) 0.6335(14) 0.2009(13)
H10_18 H 0.969647 0.532949 0.287358
H14_18 H 0.969647 0.594899 0.344887
H15_36 H 1 0.54619 0.364669
H27_18 H 0.953495 0.653245 0.178364
Zn1_19 Zn 0.1051(3) 0.7485(4) 0.6025(3)
N1_19 N 0.0383(14) 0.7660(13) 0.6045(14)
C1_19 C 0.0245(16) 0.7991(13) 0.6335(14)
C2_37 C -0.000 0.746(2) 0.587(2)
C3_37 C -0.000 0.709(2) 0.5541(18)
C4_37 C -0.000 0.660(2) 0.574(2)
N2_19 N 0.1176(14) 0.7268(13) 0.5383(16)
C5_19 C 0.1256(13) 0.6835(11) 0.5241(15)
C6_19 C 0.110(2) 0.753(2) 0.500
C7_19 C 0.1142(18) 0.803(2) 0.500
C8_19 C 0.074(2) 0.833(2) 0.500
N3_19 N 0.1253(15) 0.6986(15) 0.6444(14)
C9_19 C 0.1629(10) 0.6727(13) 0.6384(13)
C10_19 C 0.103(3) 0.681(2) 0.681(2)
C11_19 C 0.060(2) 0.6996(13) 0.6996(13)
C12_19 C 0.0595(18) 0.7358(11) 0.7358(11)
N4_19 N 0.1399(12) 0.8058(16) 0.6132(16)
C13_19 C 0.1210(12) 0.8449(11) 0.6286(12)
C14_19 C 0.184(2) 0.816(2) 0.604(3)
C15_19 C 0.2173(15) 0.7827(15) 0.586(2)
C16_19 C 0.2455(12) 0.7545(12) 0.6182(13)
N6_19 N 0.1176(14) 0.7268(13) 0.4617(16)
C18_19 C 0.1256(13) 0.6835(11) 0.4759(15)
N7_12 N 0.1253(15) 0.6444(14) 0.6986(15)
C19_19 C 0.1629(10) 0.6384(13) 0.6727(13)
C20_19 C 0.1551(11) 0.8790(12) 0.6286(12)
H1_19 H 0.150624 0.914356 0.639176
H2_19 H 0.0769023 0.766145 0.72322
H3_19 H 0.0243323 0.74432 0.74432
H4_19 H 0.0769023 0.72322 0.766145
H5_19 H 0.188656 0.611985 0.677263
H6_19 H 0.133771 0.811809 0.469647
H7_19 H 0.133771 0.811809 0.530353
H8_19 H 0.0856441 0.849376 0.639176
H9_19 H 0.0303527 0.712642 0.532949
H11_19 H 0.0465049 0.821636 0.653245
H12_19 H 0.241137 0.801789 0.564802
H13_19 H 0.198211 0.758863 0.564802
H15_37 H -4.29218e-18 0.635331 0.54619
H16_19 H 0.0303527 0.655113 0.594899
H17_19 H 0.0535882 0.826367 0.530353
H18_19 H 0.0850309 0.8685 0.5
H19_19 H 0.0535882 0.826367 0.469647
H20_19 H 0.0413295 0.670652 0.713577
H21_19 H 0.0413295 0.713577 0.670652
H22_19 H 0.188656 0.677263 0.611985
H23_19 H 0.22307 0.734004 0.639619
H24_19 H 0.267886 0.732114 0.598715
H25_19 H 0.265996 0.77693 0.639619
H26_19 H 0.13106 0.65395 0.545984
H28_19 H 0.13106 0.65395 0.454016
C2_38 C 1.000 0.746(2) 0.587(2)
C3_38 C 1.000 0.709(2) 0.5541(18)
C4_38 C 1.000 0.660(2) 0.574(2)
C17_19 C 0.9755(16) 0.7991(13) 0.6335(14)
H10_19 H 0.969647 0.712642 0.532949
H14_19 H 0.969647 0.655113 0.594899
H15_38 H 1 0.635331 0.54619
H27_19 H 0.953495 0.821636 0.653245
Zn1_20 Zn 0.1051(3) 0.2515(4) 0.3975(3)
N1_20 N 0.0383(14) 0.2340(13) 0.3955(14)
C1_20 C 0.0245(16) 0.2009(13) 0.3665(14)
C2_39 C 0.000 0.254(2) 0.413(2)
C3_39 C 0.000 0.291(2) 0.4459(18)
C4_39 C -0.000 0.340(2) 0.426(2)
N2_20 N 0.1176(14) 0.2732(13) 0.4617(16)
C5_20 C 0.1256(13) 0.3165(11) 0.4759(15)
C6_20 C 0.110(2) 0.247(2) 0.500
C7_20 C 0.1142(18) 0.197(2) 0.500
C8_20 C 0.074(2) 0.167(2) 0.500
N3_20 N 0.1253(15) 0.3014(15) 0.3556(14)
C9_20 C 0.1629(10) 0.3273(13) 0.3616(13)
C10_20 C 0.103(3) 0.319(2) 0.319(2)
C11_20 C 0.060(2) 0.3004(13) 0.3004(13)
C12_20 C 0.0595(18) 0.2642(11) 0.2642(11)
N4_20 N 0.1399(12) 0.1942(16) 0.3868(16)
C13_20 C 0.1210(12) 0.1551(11) 0.3714(12)
C14_20 C 0.184(2) 0.184(2) 0.396(3)
C15_20 C 0.2173(15) 0.2173(15) 0.414(2)
C16_20 C 0.2455(12) 0.2455(12) 0.3818(13)
N6_20 N 0.1176(14) 0.2732(13) 0.5383(16)
C18_20 C 0.1256(13) 0.3165(11) 0.5241(15)
C19_20 C 0.1629(10) 0.3616(13) 0.3273(13)
C20_20 C 0.1551(11) 0.1210(12) 0.3714(12)
N10_12 N 0.1253(15) 0.3014(15) 0.6444(14)
H1_20 H 0.150624 0.0856441 0.360824
H2_20 H 0.0769023 0.233855 0.27678
H3_20 H 0.0243323 0.25568 0.25568
H4_20 H 0.0769023 0.27678 0.233855
H5_20 H 0.188656 0.388015 0.322737
H6_20 H 0.133771 0.188191 0.530353
H7_20 H 0.133771 0.188191 0.469647
H8_20 H 0.0856441 0.150624 0.360824
H9_20 H 0.0303527 0.287358 0.467051
H11_20 H 0.0465049 0.178364 0.346755
H12_20 H 0.241137 0.198211 0.435198
H13_20 H 0.198211 0.241137 0.435198
H15_39 H -4.29218e-18 0.364669 0.45381
H16_20 H 0.0303527 0.344887 0.405101
H17_20 H 0.0535882 0.173633 0.469647
H18_20 H 0.0850309 0.1315 0.5
H19_20 H 0.0535882 0.173633 0.530353
H20_20 H 0.0413295 0.329348 0.286423
H21_20 H 0.0413295 0.286423 0.329348
H22_20 H 0.188656 0.322737 0.388015
H23_20 H 0.22307 0.265996 0.360381
H24_20 H 0.267886 0.267886 0.401285
H25_20 H 0.265996 0.22307 0.360381
H26_20 H 0.13106 0.34605 0.454016
H28_20 H 0.13106 0.34605 0.545984
C2_40 C 1.000 0.254(2) 0.413(2)
C3_40 C 1.000 0.291(2) 0.4459(18)
C4_40 C 1.000 0.340(2) 0.426(2)
C17_20 C 0.9755(16) 0.2009(13) 0.3665(14)
H10_20 H 0.969647 0.287358 0.467051
H14_20 H 0.969647 0.344887 0.405101
H15_40 H 1 0.364669 0.45381
H27_20 H 0.953495 0.178364 0.346755
Zn1_21 Zn 0.1051(3) 0.3975(3) 0.7485(4)
N1_21 N 0.0383(14) 0.3955(14) 0.7660(13)
C1_21 C 0.0245(16) 0.3665(14) 0.7991(13)
C2_41 C 0.000 0.413(2) 0.746(2)
C3_41 C 0.000 0.4459(18) 0.709(2)
C4_41 C -0.000 0.426(2) 0.660(2)
N2_21 N 0.1176(14) 0.4617(16) 0.7268(13)
C5_21 C 0.1256(13) 0.4759(15) 0.6835(11)
C6_21 C 0.110(2) 0.500 0.753(2)
C7_21 C 0.1142(18) 0.500 0.803(2)
C8_21 C 0.074(2) 0.500 0.833(2)
N3_21 N 0.1253(15) 0.3556(14) 0.6986(15)
C9_21 C 0.1629(10) 0.3616(13) 0.6727(13)
C10_21 C 0.103(3) 0.319(2) 0.681(2)
C11_21 C 0.060(2) 0.3004(13) 0.6996(13)
C12_21 C 0.0595(18) 0.2642(11) 0.7358(11)
N4_21 N 0.1399(12) 0.3868(16) 0.8058(16)
C13_21 C 0.1210(12) 0.3714(12) 0.8449(11)
C14_21 C 0.184(2) 0.396(3) 0.816(2)
C15_21 C 0.2173(15) 0.414(2) 0.7827(15)
C16_21 C 0.2455(12) 0.3818(13) 0.7545(12)
N6_21 N 0.1176(14) 0.5383(16) 0.7268(13)
C18_21 C 0.1256(13) 0.5241(15) 0.6835(11)
C19_21 C 0.1629(10) 0.3273(13) 0.6384(13)
C20_21 C 0.1551(11) 0.3714(12) 0.8790(12)
H1_21 H 0.150624 0.360824 0.914356
H2_21 H 0.0769023 0.27678 0.766145
H3_21 H 0.0243323 0.25568 0.74432
H4_21 H 0.0769023 0.233855 0.72322
H5_21 H 0.188656 0.322737 0.611985
H6_21 H 0.133771 0.530353 0.811809
H7_21 H 0.133771 0.469647 0.811809
H8_21 H 0.0856441 0.360824 0.849376
H9_21 H 0.0303527 0.467051 0.712642
H11_21 H 0.0465049 0.346755 0.821636
H12_21 H 0.241137 0.435198 0.801789
H13_21 H 0.198211 0.435198 0.758863
H15_41 H -4.29218e-18 0.45381 0.635331
H16_21 H 0.0303527 0.405101 0.655113
H17_21 H 0.0535882 0.469647 0.826367
H18_21 H 0.0850309 0.5 0.8685
H19_21 H 0.0535882 0.530353 0.826367
H20_21 H 0.0413295 0.286423 0.670652
H21_21 H 0.0413295 0.329348 0.713577
H22_21 H 0.188656 0.388015 0.677263
H23_21 H 0.22307 0.360381 0.734004
H24_21 H 0.267886 0.401285 0.732114
H25_21 H 0.265996 0.360381 0.77693
H26_21 H 0.13106 0.454016 0.65395
H28_21 H 0.13106 0.545984 0.65395
C2_42 C 1.000 0.413(2) 0.746(2)
C3_42 C 1.000 0.4459(18) 0.709(2)
C4_42 C 1.000 0.426(2) 0.660(2)
C17_21 C 0.9755(16) 0.3665(14) 0.7991(13)
H10_21 H 0.969647 0.467051 0.712642
H14_21 H 0.969647 0.405101 0.655113
H15_42 H 1 0.45381 0.635331
H27_21 H 0.953495 0.346755 0.821636
C2_43 C 0.413(2) 0.000 0.746(2)
C3_43 C 0.4459(18) 0.000 0.709(2)
C4_43 C 0.426(2) 0.000 0.660(2)
C17_22 C 0.3665(14) 0.0245(16) 0.7991(13)
H10_22 H 0.467051 0.0303527 0.712642
H14_22 H 0.405101 0.0303527 0.655113
H15_43 H 0.45381 4.29218e-18 0.635331
H27_22 H 0.346755 0.0465049 0.821636
Zn1_22 Zn 0.3975(3) 0.8949(3) 0.7485(4)
N1_22 N 0.3955(14) 0.9617(14) 0.7660(13)
C1_22 C 0.3665(14) 0.9755(16) 0.7991(13)
C2_44 C 0.413(2) 1.000 0.746(2)
C3_44 C 0.4459(18) 1.000 0.709(2)
C4_44 C 0.426(2) 1.000 0.660(2)
N2_22 N 0.4617(16) 0.8824(14) 0.7268(13)
C5_22 C 0.4759(15) 0.8744(13) 0.6835(11)
C6_22 C 0.500 0.890(2) 0.753(2)
C7_22 C 0.500 0.8858(18) 0.803(2)
C8_22 C 0.500 0.926(2) 0.833(2)
N3_22 N 0.3556(14) 0.8747(15) 0.6986(15)
C9_22 C 0.3616(13) 0.8371(10) 0.6727(13)
C10_22 C 0.319(2) 0.897(3) 0.681(2)
C11_22 C 0.3004(13) 0.940(2) 0.6996(13)
C12_22 C 0.2642(11) 0.9405(18) 0.7358(11)
N4_22 N 0.3868(16) 0.8601(12) 0.8058(16)
C13_22 C 0.3714(12) 0.8790(12) 0.8449(11)
C14_22 C 0.396(3) 0.816(2) 0.816(2)
C15_22 C 0.414(2) 0.7827(15) 0.7827(15)
C16_22 C 0.3818(13) 0.7545(12) 0.7545(12)
N6_22 N 0.5383(16) 0.8824(14) 0.7268(13)
C18_22 C 0.5241(15) 0.8744(13) 0.6835(11)
C19_22 C 0.3273(13) 0.8371(10) 0.6384(13)
C20_22 C 0.3714(12) 0.8449(11) 0.8790(12)
H1_22 H 0.360824 0.849376 0.914356
H2_22 H 0.27678 0.923098 0.766145
H3_22 H 0.25568 0.975668 0.74432
H4_22 H 0.233855 0.923098 0.72322
H5_22 H 0.322737 0.811344 0.611985
H6_22 H 0.530353 0.866229 0.811809
H7_22 H 0.469647 0.866229 0.811809
H8_22 H 0.360824 0.914356 0.849376
H9_22 H 0.467051 0.969647 0.712642
H11_22 H 0.346755 0.953495 0.821636
H12_22 H 0.435198 0.758863 0.801789
H13_22 H 0.435198 0.801789 0.758863
H15_44 H 0.45381 1 0.635331
H16_22 H 0.405101 0.969647 0.655113
H17_22 H 0.469647 0.946412 0.826367
H18_22 H 0.5 0.914969 0.8685
H19_22 H 0.530353 0.946412 0.826367
H20_22 H 0.286423 0.95867 0.670652
H21_22 H 0.329348 0.95867 0.713577
H22_22 H 0.388015 0.811344 0.677263
H23_22 H 0.360381 0.77693 0.734004
H24_22 H 0.401285 0.732114 0.732114
H25_22 H 0.360381 0.734004 0.77693
H26_22 H 0.454016 0.86894 0.65395
H28_22 H 0.545984 0.86894 0.65395
Zn1_23 Zn 0.3975(3) 0.7485(4) 0.1051(3)
N1_23 N 0.3955(14) 0.7660(13) 0.0383(14)
C1_23 C 0.3665(14) 0.7991(13) 0.0245(16)
C2_45 C 0.413(2) 0.746(2) 0.000
C3_45 C 0.4459(18) 0.709(2) 0.000
C4_45 C 0.426(2) 0.660(2) 0.000
N2_23 N 0.4617(16) 0.7268(13) 0.1176(14)
C5_23 C 0.4759(15) 0.6835(11) 0.1256(13)
C6_23 C 0.500 0.753(2) 0.110(2)
C7_23 C 0.500 0.803(2) 0.1142(18)
C8_23 C 0.500 0.833(2) 0.074(2)
N3_23 N 0.3556(14) 0.6986(15) 0.1253(15)
C9_23 C 0.3616(13) 0.6727(13) 0.1629(10)
C10_23 C 0.319(2) 0.681(2) 0.103(3)
C11_23 C 0.3004(13) 0.6996(13) 0.060(2)
C12_23 C 0.2642(11) 0.7358(11) 0.0595(18)
N4_23 N 0.3868(16) 0.8058(16) 0.1399(12)
C13_23 C 0.3714(12) 0.8449(11) 0.1210(12)
C14_23 C 0.396(3) 0.816(2) 0.184(2)
C15_23 C 0.414(2) 0.7827(15) 0.2173(15)
C16_23 C 0.3818(13) 0.7545(12) 0.2455(12)
N6_23 N 0.5383(16) 0.7268(13) 0.1176(14)
C18_23 C 0.5241(15) 0.6835(11) 0.1256(13)
C19_23 C 0.3273(13) 0.6384(13) 0.1629(10)
C20_23 C 0.3714(12) 0.8790(12) 0.1551(11)
H1_23 H 0.360824 0.914356 0.150624
H2_23 H 0.27678 0.766145 0.0769023
H3_23 H 0.25568 0.74432 0.0243323
H4_23 H 0.233855 0.72322 0.0769023
H5_23 H 0.322737 0.611985 0.188656
H6_23 H 0.530353 0.811809 0.133771
H7_23 H 0.469647 0.811809 0.133771
H8_23 H 0.360824 0.849376 0.0856441
H9_23 H 0.467051 0.712642 0.0303527
H11_23 H 0.346755 0.821636 0.0465049
H12_23 H 0.435198 0.801789 0.241137
H13_23 H 0.435198 0.758863 0.198211
H15_45 H 0.45381 0.635331 -4.29218e-18
H16_23 H 0.405101 0.655113 0.0303527
H17_23 H 0.469647 0.826367 0.0535882
H18_23 H 0.5 0.8685 0.0850309
H19_23 H 0.530353 0.826367 0.0535882
H20_23 H 0.286423 0.670652 0.0413295
H21_23 H 0.329348 0.713577 0.0413295
H22_23 H 0.388015 0.677263 0.188656
H23_23 H 0.360381 0.734004 0.22307
H24_23 H 0.401285 0.732114 0.267886
H25_23 H 0.360381 0.77693 0.265996
H26_23 H 0.454016 0.65395 0.13106
H28_23 H 0.545984 0.65395 0.13106
C2_46 C 0.413(2) 0.746(2) 1.000
C3_46 C 0.4459(18) 0.709(2) 1.000
C4_46 C 0.426(2) 0.660(2) 1.000
C17_23 C 0.3665(14) 0.7991(13) 0.9755(16)
H10_23 H 0.467051 0.712642 0.969647
H14_23 H 0.405101 0.655113 0.969647
H15_46 H 0.45381 0.635331 1
H27_23 H 0.346755 0.821636 0.953495
C2_47 C 0.413(2) 0.254(2) -0.000
C3_47 C 0.4459(18) 0.291(2) 0.000
C4_47 C 0.426(2) 0.340(2) 0.000
C17_24 C 0.3665(14) 0.2009(13) 0.0245(16)
H10_24 H 0.467051 0.287358 0.0303527
H14_24 H 0.405101 0.344887 0.0303527
H15_47 H 0.45381 0.364669 4.29218e-18
H27_24 H 0.346755 0.178364 0.0465049
Zn1_24 Zn 0.3975(3) 0.2515(4) 0.8949(3)
N1_24 N 0.3955(14) 0.2340(13) 0.9617(14)
C1_24 C 0.3665(14) 0.2009(13) 0.9755(16)
C2_48 C 0.413(2) 0.254(2) 1.000
C3_48 C 0.4459(18) 0.291(2) 1.000
C4_48 C 0.426(2) 0.340(2) 1.000
N2_24 N 0.4617(16) 0.2732(13) 0.8824(14)
C5_24 C 0.4759(15) 0.3165(11) 0.8744(13)
C6_24 C 0.500 0.247(2) 0.890(2)
C7_24 C 0.500 0.197(2) 0.8858(18)
C8_24 C 0.500 0.167(2) 0.926(2)
N3_24 N 0.3556(14) 0.3014(15) 0.8747(15)
C9_24 C 0.3616(13) 0.3273(13) 0.8371(10)
C10_24 C 0.319(2) 0.319(2) 0.897(3)
C11_24 C 0.3004(13) 0.3004(13) 0.940(2)
C12_24 C 0.2642(11) 0.2642(11) 0.9405(18)
N4_24 N 0.3868(16) 0.1942(16) 0.8601(12)
C13_24 C 0.3714(12) 0.1551(11) 0.8790(12)
C14_24 C 0.396(3) 0.184(2) 0.816(2)
C15_24 C 0.414(2) 0.2173(15) 0.7827(15)
C16_24 C 0.3818(13) 0.2455(12) 0.7545(12)
N6_24 N 0.5383(16) 0.2732(13) 0.8824(14)
C18_24 C 0.5241(15) 0.3165(11) 0.8744(13)
C19_24 C 0.3273(13) 0.3616(13) 0.8371(10)
C20_24 C 0.3714(12) 0.1210(12) 0.8449(11)
H1_24 H 0.360824 0.0856441 0.849376
H2_24 H 0.27678 0.233855 0.923098
H3_24 H 0.25568 0.25568 0.975668
H4_24 H 0.233855 0.27678 0.923098
H5_24 H 0.322737 0.388015 0.811344
H6_24 H 0.530353 0.188191 0.866229
H7_24 H 0.469647 0.188191 0.866229
H8_24 H 0.360824 0.150624 0.914356
H9_24 H 0.467051 0.287358 0.969647
H11_24 H 0.346755 0.178364 0.953495
H12_24 H 0.435198 0.198211 0.758863
H13_24 H 0.435198 0.241137 0.801789
H15_48 H 0.45381 0.364669 1
H16_24 H 0.405101 0.344887 0.969647
H17_24 H 0.469647 0.173633 0.946412
H18_24 H 0.5 0.1315 0.914969
H19_24 H 0.530353 0.173633 0.946412
H20_24 H 0.286423 0.329348 0.95867
H21_24 H 0.329348 0.286423 0.95867
H22_24 H 0.388015 0.322737 0.811344
H23_24 H 0.360381 0.265996 0.77693
H24_24 H 0.401285 0.267886 0.732114
H25_24 H 0.360381 0.22307 0.734004
H26_24 H 0.454016 0.34605 0.86894
H28_24 H 0.545984 0.34605 0.86894
loop_
_geom_bond_atom_site_label_1
_geom_bond_atom_site_label_2
_geom_bond_site_symmetry_1
_geom_bond_site_symmetry_2
Zn1 N1 1_555 1_555
N1 C1 1_555 1_555
C2 N1 1_555 1_555
C3 C2 1_555 1_555
C4 C3 1_555 1_555
N2 Zn1 1_555 1_555
C5 N2 1_555 1_555
C6 N2 1_555 1_555
C7 C6 1_555 1_555
C8 C7 1_555 1_555
N3 Zn1 1_555 1_555
C9 N3 1_555 1_555
C10 N3 1_555 1_555
C11 C10 1_555 1_555
C12 C11 1_555 1_555
N4 Zn1 1_555 1_555
C13 N4 1_555 1_555
C14 N4 1_555 1_555
C15 C14 1_555 1_555
C16 C15 1_555 1_555
N6 C6 1_555 1_555
C18 C5 1_555 1_555
N7 C10 1_555 1_555
C19 C9 1_555 1_555
N8 C14 1_555 1_555
C20 C13 1_555 1_555
Zn2 N6 1_555 1_555
Zn3 N7 1_555 1_555
Zn5 N8 1_555 1_555
N9 Zn2 1_555 1_555
N10 Zn2 1_555 1_555
N11 Zn2 1_555 1_555
N6 C18 1_555 1_555
N7 C19 1_555 1_555
N8 C20 1_555 1_555
C20 H1 1_555 1_555
C12 H2 1_555 1_555
C12 H3 1_555 1_555
C12 H4 1_555 1_555
C19 H5 1_555 1_555
C7 H6 1_555 1_555
C7 H7 1_555 1_555
C13 H8 1_555 1_555
C3 H9 1_555 1_555
C1 H11 1_555 1_555
C15 H12 1_555 1_555
C15 H13 1_555 1_555
C4 H15 1_555 1_555
C4 H16 1_555 1_555
C8 H17 1_555 1_555
C8 H18 1_555 1_555
C8 H19 1_555 1_555
C11 H20 1_555 1_555
C11 H21 1_555 1_555
C9 H22 1_555 1_555
C16 H23 1_555 1_555
C16 H24 1_555 1_555
C16 H25 1_555 1_555
C5 H26 1_555 1_555
C18 H28 1_555 1_555
C3_2 C2_2 1_555 1_555
C4_2 C3_2 1_555 1_555
N5 C2_2 1_555 1_555
C17 N5 1_555 1_555
Zn4 N5 1_555 1_555
C3_2 H10 1_555 1_555
C4_2 H14 1_555 1_555
C4_2 H15_2 1_555 1_555
C17 H27 1_555 1_555
C3_3 C2_3 1_555 1_555
C4_3 C3_3 1_555 1_555
N9 C2_3 1_555 1_555
C17_2 N9 1_555 1_555
C3_3 H10_2 1_555 1_555
C4_3 H14_2 1_555 1_555
C4_3 H15_3 1_555 1_555
C17_2 H27_2 1_555 1_555
Zn1_2 N1_2 1_555 1_555
N1_2 C1_2 1_555 1_555
C2_4 N1_2 1_555 1_555
C3_4 C2_4 1_555 1_555
C4_4 C3_4 1_555 1_555
N2_2 Zn1_2 1_555 1_555
C5_2 N2_2 1_555 1_555
C6_2 N2_2 1_555 1_555
C7_2 C6_2 1_555 1_555
C8_2 C7_2 1_555 1_555
N3_2 Zn1_2 1_555 1_555
C9_2 N3_2 1_555 1_555
C10_2 N3_2 1_555 1_555
C11_2 C10_2 1_555 1_555
C12_2 C11_2 1_555 1_555
N4_2 Zn1_2 1_555 1_555
C13_2 N4_2 1_555 1_555
C14_2 N4_2 1_555 1_555
C15_2 C14_2 1_555 1_555
C16_2 C15_2 1_555 1_555
N6_2 C6_2 1_555 1_555
C18_2 C5_2 1_555 1_555
N7_2 C10_2 1_555 1_555
C19_2 C9_2 1_555 1_555
N8_2 C14_2 1_555 1_555
C20_2 C13_2 1_555 1_555
Zn4 N6_2 1_555 1_555
Zn3_2 N7_2 1_555 1_555
Zn5_2 N8_2 1_555 1_555
N10_2 Zn4 1_555 1_555
N11_2 Zn4 1_555 1_555
N6_2 C18_2 1_555 1_555
N7_2 C19_2 1_555 1_555
N8_2 C20_2 1_555 1_555
C20_2 H1_2 1_555 1_555
C12_2 H2_2 1_555 1_555
C12_2 H3_2 1_555 1_555
C12_2 H4_2 1_555 1_555
C19_2 H5_2 1_555 1_555
C7_2 H6_2 1_555 1_555
C7_2 H7_2 1_555 1_555
C13_2 H8_2 1_555 1_555
C3_4 H9_2 1_555 1_555
C1_2 H11_2 1_555 1_555
C15_2 H12_2 1_555 1_555
C15_2 H13_2 1_555 1_555
C4_4 H15_4 1_555 1_555
C4_4 H16_2 1_555 1_555
C8_2 H17_2 1_555 1_555
C8_2 H18_2 1_555 1_555
C8_2 H19_2 1_555 1_555
C11_2 H20_2 1_555 1_555
C11_2 H21_2 1_555 1_555
C9_2 H22_2 1_555 1_555
C16_2 H23_2 1_555 1_555
C16_2 H24_2 1_555 1_555
C16_2 H25_2 1_555 1_555
C5_2 H26_2 1_555 1_555
C18_2 H28_2 1_555 1_555
C3_5 C2_5 1_555 1_555
C4_5 C3_5 1_555 1_555
N5_2 C2_5 1_555 1_555
C17_3 N5_2 1_555 1_555
Zn5_2 N5_2 1_555 1_555
C3_5 H10_3 1_555 1_555
C4_5 H14_3 1_555 1_555
C4_5 H15_5 1_555 1_555
C17_3 H27_3 1_555 1_555
Zn1_3 N1_3 1_555 1_555
N1_3 C1_3 1_555 1_555
C2_6 N1_3 1_555 1_555
C3_6 C2_6 1_555 1_555
C4_6 C3_6 1_555 1_555
N2_3 Zn1_3 1_555 1_555
C5_3 N2_3 1_555 1_555
C6_3 N2_3 1_555 1_555
C7_3 C6_3 1_555 1_555
C8_3 C7_3 1_555 1_555
N3_3 Zn1_3 1_555 1_555
C9_3 N3_3 1_555 1_555
C10_3 N3_3 1_555 1_555
C11_3 C10_3 1_555 1_555
C12_3 C11_3 1_555 1_555
N4_3 Zn1_3 1_555 1_555
C13_3 N4_3 1_555 1_555
C14_3 N4_3 1_555 1_555
C15_3 C14_3 1_555 1_555
C16_3 C15_3 1_555 1_555
N6_3 C6_3 1_555 1_555
C18_3 C5_3 1_555 1_555
N7_3 C10_3 1_555 1_555
C19_3 C9_3 1_555 1_555
N8_3 C14_3 1_555 1_555
C20_3 C13_3 1_555 1_555
Zn2_2 N6_3 1_555 1_555
Zn3_3 N7_3 1_555 1_555
Zn5_3 N8_3 1_555 1_555
N9_2 Zn2_2 1_555 1_555
N10_3 Zn2_2 1_555 1_555
N11_3 Zn2_2 1_555 1_555
N6_3 C18_3 1_555 1_555
N7_3 C19_3 1_555 1_555
N8_3 C20_3 1_555 1_555
C20_3 H1_3 1_555 1_555
C12_3 H2_3 1_555 1_555
C12_3 H3_3 1_555 1_555
C12_3 H4_3 1_555 1_555
C19_3 H5_3 1_555 1_555
C7_3 H6_3 1_555 1_555
C7_3 H7_3 1_555 1_555
C13_3 H8_3 1_555 1_555
C3_6 H9_3 1_555 1_555
C1_3 H11_3 1_555 1_555
C15_3 H12_3 1_555 1_555
C15_3 H13_3 1_555 1_555
C4_6 H15_6 1_555 1_555
C4_6 H16_3 1_555 1_555
C8_3 H17_3 1_555 1_555
C8_3 H18_3 1_555 1_555
C8_3 H19_3 1_555 1_555
C11_3 H20_3 1_555 1_555
C11_3 H21_3 1_555 1_555
C9_3 H22_3 1_555 1_555
C16_3 H23_3 1_555 1_555
C16_3 H24_3 1_555 1_555
C16_3 H25_3 1_555 1_555
C5_3 H26_3 1_555 1_555
C18_3 H28_3 1_555 1_555
Zn1_4 N1_4 1_555 1_555
N1_4 C1_4 1_555 1_555
C2_7 N1_4 1_555 1_555
C3_7 C2_7 1_555 1_555
C4_7 C3_7 1_555 1_555
N2_4 Zn1_4 1_555 1_555
C5_4 N2_4 1_555 1_555
C6_4 N2_4 1_555 1_555
C7_4 C6_4 1_555 1_555
C8_4 C7_4 1_555 1_555
N3_4 Zn1_4 1_555 1_555
C9_4 N3_4 1_555 1_555
C10_4 N3_4 1_555 1_555
C11_4 C10_4 1_555 1_555
C12_4 C11_4 1_555 1_555
N4_4 Zn1_4 1_555 1_555
C13_4 N4_4 1_555 1_555
C14_4 N4_4 1_555 1_555
C15_4 C14_4 1_555 1_555
C16_4 C15_4 1_555 1_555
N6_4 C6_4 1_555 1_555
C18_4 C5_4 1_555 1_555
N7_4 C10_4 1_555 1_555
C19_4 C9_4 1_555 1_555
N11 C14_4 1_555 1_555
C20_4 C13_4 1_555 1_555
Zn5 N6_4 1_555 1_555
Zn3_4 N7_4 1_555 1_555
N9_3 Zn5 1_555 1_555
N10_4 Zn5 1_555 1_555
N6_4 C18_4 1_555 1_555
N7_4 C19_4 1_555 1_555
N11 C20_4 1_555 1_555
C20_4 H1_4 1_555 1_555
C12_4 H2_4 1_555 1_555
C12_4 H3_4 1_555 1_555
C12_4 H4_4 1_555 1_555
C19_4 H5_4 1_555 1_555
C7_4 H6_4 1_555 1_555
C7_4 H7_4 1_555 1_555
C13_4 H8_4 1_555 1_555
C3_7 H9_4 1_555 1_555
C1_4 H11_4 1_555 1_555
C15_4 H12_4 1_555 1_555
C15_4 H13_4 1_555 1_555
C4_7 H15_7 1_555 1_555
C4_7 H16_4 1_555 1_555
C8_4 H17_4 1_555 1_555
C8_4 H18_4 1_555 1_555
C8_4 H19_4 1_555 1_555
C11_4 H20_4 1_555 1_555
C11_4 H21_4 1_555 1_555
C9_4 H22_4 1_555 1_555
C16_4 H23_4 1_555 1_555
C16_4 H24_4 1_555 1_555
C16_4 H25_4 1_555 1_555
C5_4 H26_4 1_555 1_555
C18_4 H28_4 1_555 1_555
C3_8 C2_8 1_555 1_555
C4_8 C3_8 1_555 1_555
N5_3 C2_8 1_555 1_555
C17_4 N5_3 1_555 1_555
Zn4_2 N5_3 1_555 1_555
C3_8 H10_4 1_555 1_555
C4_8 H14_4 1_555 1_555
C4_8 H15_8 1_555 1_555
C17_4 H27_4 1_555 1_555
Zn1_5 N1_5 1_555 1_555
N1_5 C1_5 1_555 1_555
C2_9 N1_5 1_555 1_555
C3_9 C2_9 1_555 1_555
C4_9 C3_9 1_555 1_555
N2_5 Zn1_5 1_555 1_555
C5_5 N2_5 1_555 1_555
C6_5 N2_5 1_555 1_555
C7_5 C6_5 1_555 1_555
C8_5 C7_5 1_555 1_555
N3_5 Zn1_5 1_555 1_555
C9_5 N3_5 1_555 1_555
C10_5 N3_5 1_555 1_555
C11_5 C10_5 1_555 1_555
C12_5 C11_5 1_555 1_555
N4_5 Zn1_5 1_555 1_555
C13_5 N4_5 1_555 1_555
C14_5 N4_5 1_555 1_555
C15_5 C14_5 1_555 1_555
C16_5 C15_5 1_555 1_555
N6_5 C6_5 1_555 1_555
C18_5 C5_5 1_555 1_555
N7_5 C10_5 1_555 1_555
C19_5 C9_5 1_555 1_555
N8_4 C14_5 1_555 1_555
C20_5 C13_5 1_555 1_555
Zn2_3 N6_5 1_555 1_555
Zn3_5 N7_5 1_555 1_555
Zn4_2 N8_4 1_555 1_555
N9_4 Zn2_3 1_555 1_555
N10_5 Zn2_3 1_555 1_555
N11_4 Zn2_3 1_555 1_555
N6_5 C18_5 1_555 1_555
N7_5 C19_5 1_555 1_555
N8_4 C20_5 1_555 1_555
C20_5 H1_5 1_555 1_555
C12_5 H2_5 1_555 1_555
C12_5 H3_5 1_555 1_555
C12_5 H4_5 1_555 1_555
C19_5 H5_5 1_555 1_555
C7_5 H6_5 1_555 1_555
C7_5 H7_5 1_555 1_555
C13_5 H8_5 1_555 1_555
C3_9 H9_5 1_555 1_555
C1_5 H11_5 1_555 1_555
C15_5 H12_5 1_555 1_555
C15_5 H13_5 1_555 1_555
C4_9 H15_9 1_555 1_555
C4_9 H16_5 1_555 1_555
C8_5 H17_5 1_555 1_555
C8_5 H18_5 1_555 1_555
C8_5 H19_5 1_555 1_555
C11_5 H20_5 1_555 1_555
C11_5 H21_5 1_555 1_555
C9_5 H22_5 1_555 1_555
C16_5 H23_5 1_555 1_555
C16_5 H24_5 1_555 1_555
C16_5 H25_5 1_555 1_555
C5_5 H26_5 1_555 1_555
C18_5 H28_5 1_555 1_555
C3_10 C2_10 1_555 1_555
C4_10 C3_10 1_555 1_555
N5_4 C2_10 1_555 1_555
C17_5 N5_4 1_555 1_555
Zn5_3 N5_4 1_555 1_555
C3_10 H10_5 1_555 1_555
C4_10 H14_5 1_555 1_555
C4_10 H15_10 1_555 1_555
C17_5 H27_5 1_555 1_555
C3_11 C2_11 1_555 1_555
C4_11 C3_11 1_555 1_555
N5_5 C2_11 1_555 1_555
C17_6 N5_5 1_555 1_555
Zn4_3 N5_5 1_555 1_555
C3_11 H10_6 1_555 1_555
C4_11 H14_6 1_555 1_555
C4_11 H15_11 1_555 1_555
C17_6 H27_6 1_555 1_555
Zn1_6 N1_6 1_555 1_555
N1_6 C1_6 1_555 1_555
C2_12 N1_6 1_555 1_555
C3_12 C2_12 1_555 1_555
C4_12 C3_12 1_555 1_555
N2_6 Zn1_6 1_555 1_555
C5_6 N2_6 1_555 1_555
C6_6 N2_6 1_555 1_555
C7_6 C6_6 1_555 1_555
C8_6 C7_6 1_555 1_555
N3_6 Zn1_6 1_555 1_555
C9_6 N3_6 1_555 1_555
C10_6 N3_6 1_555 1_555
C11_6 C10_6 1_555 1_555
C12_6 C11_6 1_555 1_555
N4_6 Zn1_6 1_555 1_555
C13_6 N4_6 1_555 1_555
C14_6 N4_6 1_555 1_555
C15_6 C14_6 1_555 1_555
C16_6 C15_6 1_555 1_555
N6_6 C6_6 1_555 1_555
C18_6 C5_6 1_555 1_555
N7_6 C10_6 1_555 1_555
C19_6 C9_6 1_555 1_555
N8_5 C14_6 1_555 1_555
C20_6 C13_6 1_555 1_555
Zn2_4 N6_6 1_555 1_555
Zn3_6 N7_6 1_555 1_555
Zn3_3 N8_5 1_555 1_555
N9_5 Zn2_4 1_555 1_555
N10_6 Zn2_4 1_555 1_555
N11_5 Zn2_4 1_555 1_555
N6_6 C18_6 1_555 1_555
N7_6 C19_6 1_555 1_555
N8_5 C20_6 1_555 1_555
C20_6 H1_6 1_555 1_555
C12_6 H2_6 1_555 1_555
C12_6 H3_6 1_555 1_555
C12_6 H4_6 1_555 1_555
C19_6 H5_6 1_555 1_555
C7_6 H6_6 1_555 1_555
C7_6 H7_6 1_555 1_555
C13_6 H8_6 1_555 1_555
C3_12 H9_6 1_555 1_555
C1_6 H11_6 1_555 1_555
C15_6 H12_6 1_555 1_555
C15_6 H13_6 1_555 1_555
C4_12 H15_12 1_555 1_555
C4_12 H16_6 1_555 1_555
C8_6 H17_6 1_555 1_555
C8_6 H18_6 1_555 1_555
C8_6 H19_6 1_555 1_555
C11_6 H20_6 1_555 1_555
C11_6 H21_6 1_555 1_555
C9_6 H22_6 1_555 1_555
C16_6 H23_6 1_555 1_555
C16_6 H24_6 1_555 1_555
C16_6 H25_6 1_555 1_555
C5_6 H26_6 1_555 1_555
C18_6 H28_6 1_555 1_555
C3_13 C2_13 1_555 1_555
C4_13 C3_13 1_555 1_555
N5_6 C2_13 1_555 1_555
C17_7 N5_6 1_555 1_555
Zn4_4 N5_6 1_555 1_555
C3_13 H10_7 1_555 1_555
C4_13 H14_7 1_555 1_555
C4_13 H15_13 1_555 1_555
C17_7 H27_7 1_555 1_555
Zn1_7 N1_7 1_555 1_555
N1_7 C1_7 1_555 1_555
C2_14 N1_7 1_555 1_555
C3_14 C2_14 1_555 1_555
C4_14 C3_14 1_555 1_555
N2_7 Zn1_7 1_555 1_555
C5_7 N2_7 1_555 1_555
C6_7 N2_7 1_555 1_555
C7_7 C6_7 1_555 1_555
C8_7 C7_7 1_555 1_555
N3_7 Zn1_7 1_555 1_555
C9_7 N3_7 1_555 1_555
C10_7 N3_7 1_555 1_555
C11_7 C10_7 1_555 1_555
C12_7 C11_7 1_555 1_555
N4_7 Zn1_7 1_555 1_555
C13_7 N4_7 1_555 1_555
C14_7 N4_7 1_555 1_555
C15_7 C14_7 1_555 1_555
C16_7 C15_7 1_555 1_555
N6_7 C6_7 1_555 1_555
C18_7 C5_7 1_555 1_555
N7_7 C10_7 1_555 1_555
C19_7 C9_7 1_555 1_555
N8_6 C14_7 1_555 1_555
C20_7 C13_7 1_555 1_555
Zn3_6 N6_7 1_555 1_555
Zn3_7 N7_7 1_555 1_555
Zn3_2 N8_6 1_555 1_555
N9_6 Zn3_6 1_555 1_555
N11_6 Zn3_6 1_555 1_555
N6_7 C18_7 1_555 1_555
N7_7 C19_7 1_555 1_555
N8_6 C20_7 1_555 1_555
C20_7 H1_7 1_555 1_555
C12_7 H2_7 1_555 1_555
C12_7 H3_7 1_555 1_555
C12_7 H4_7 1_555 1_555
C19_7 H5_7 1_555 1_555
C7_7 H6_7 1_555 1_555
C7_7 H7_7 1_555 1_555
C13_7 H8_7 1_555 1_555
C3_14 H9_7 1_555 1_555
C1_7 H11_7 1_555 1_555
C15_7 H12_7 1_555 1_555
C15_7 H13_7 1_555 1_555
C4_14 H15_14 1_555 1_555
C4_14 H16_7 1_555 1_555
C8_7 H17_7 1_555 1_555
C8_7 H18_7 1_555 1_555
C8_7 H19_7 1_555 1_555
C11_7 H20_7 1_555 1_555
C11_7 H21_7 1_555 1_555
C9_7 H22_7 1_555 1_555
C16_7 H23_7 1_555 1_555
C16_7 H24_7 1_555 1_555
C16_7 H25_7 1_555 1_555
C5_7 H26_7 1_555 1_555
C18_7 H28_7 1_555 1_555
C3_15 C2_15 1_555 1_555
C4_15 C3_15 1_555 1_555
N5_7 C2_15 1_555 1_555
C17_8 N5_7 1_555 1_555
Zn4_5 N5_7 1_555 1_555
C3_15 H10_8 1_555 1_555
C4_15 H14_8 1_555 1_555
C4_15 H15_15 1_555 1_555
C17_8 H27_8 1_555 1_555
Zn1_8 N1_8 1_555 1_555
N1_8 C1_8 1_555 1_555
C2_16 N1_8 1_555 1_555
C3_16 C2_16 1_555 1_555
C4_16 C3_16 1_555 1_555
N2_8 Zn1_8 1_555 1_555
C5_8 N2_8 1_555 1_555
C6_8 N2_8 1_555 1_555
C7_8 C6_8 1_555 1_555
C8_8 C7_8 1_555 1_555
N3_8 Zn1_8 1_555 1_555
C9_8 N3_8 1_555 1_555
C10_8 N3_8 1_555 1_555
C11_8 C10_8 1_555 1_555
C12_8 C11_8 1_555 1_555
N4_8 Zn1_8 1_555 1_555
C13_8 N4_8 1_555 1_555
C14_8 N4_8 1_555 1_555
C15_8 C14_8 1_555 1_555
C16_8 C15_8 1_555 1_555
N6_8 C6_8 1_555 1_555
C18_8 C5_8 1_555 1_555
N10_6 C10_8 1_555 1_555
C19_8 C9_8 1_555 1_555
N8_7 C14_8 1_555 1_555
C20_8 C13_8 1_555 1_555
Zn2_5 N6_8 1_555 1_555
Zn3_5 N8_7 1_555 1_555
N9_7 Zn2_5 1_555 1_555
N10_7 Zn2_5 1_555 1_555
N11_7 Zn2_5 1_555 1_555
N6_8 C18_8 1_555 1_555
N10_6 C19_8 1_555 1_555
N8_7 C20_8 1_555 1_555
C20_8 H1_8 1_555 1_555
C12_8 H2_8 1_555 1_555
C12_8 H3_8 1_555 1_555
C12_8 H4_8 1_555 1_555
C19_8 H5_8 1_555 1_555
C7_8 H6_8 1_555 1_555
C7_8 H7_8 1_555 1_555
C13_8 H8_8 1_555 1_555
C3_16 H9_8 1_555 1_555
C1_8 H11_8 1_555 1_555
C15_8 H12_8 1_555 1_555
C15_8 H13_8 1_555 1_555
C4_16 H15_16 1_555 1_555
C4_16 H16_8 1_555 1_555
C8_8 H17_8 1_555 1_555
C8_8 H18_8 1_555 1_555
C8_8 H19_8 1_555 1_555
C11_8 H20_8 1_555 1_555
C11_8 H21_8 1_555 1_555
C9_8 H22_8 1_555 1_555
C16_8 H23_8 1_555 1_555
C16_8 H24_8 1_555 1_555
C16_8 H25_8 1_555 1_555
C5_8 H26_8 1_555 1_555
C18_8 H28_8 1_555 1_555
C3_17 C2_17 1_555 1_555
C4_17 C3_17 1_555 1_555
N5_8 C2_17 1_555 1_555
C17_9 N5_8 1_555 1_555
Zn4_6 N5_8 1_555 1_555
C3_17 H10_9 1_555 1_555
C4_17 H14_9 1_555 1_555
C4_17 H15_17 1_555 1_555
C17_9 H27_9 1_555 1_555
Zn1_9 N1_9 1_555 1_555
N1_9 C1_9 1_555 1_555
C2_18 N1_9 1_555 1_555
C3_18 C2_18 1_555 1_555
C4_18 C3_18 1_555 1_555
N2_9 Zn1_9 1_555 1_555
C5_9 N2_9 1_555 1_555
C6_9 N2_9 1_555 1_555
C7_9 C6_9 1_555 1_555
C8_9 C7_9 1_555 1_555
N3_9 Zn1_9 1_555 1_555
C9_9 N3_9 1_555 1_555
C10_9 N3_9 1_555 1_555
C11_9 C10_9 1_555 1_555
C12_9 C11_9 1_555 1_555
N4_9 Zn1_9 1_555 1_555
C13_9 N4_9 1_555 1_555
C14_9 N4_9 1_555 1_555
C15_9 C14_9 1_555 1_555
C16_9 C15_9 1_555 1_555
N6_9 C6_9 1_555 1_555
C18_9 C5_9 1_555 1_555
N10_7 C10_9 1_555 1_555
C19_9 C9_9 1_555 1_555
N8_8 C14_9 1_555 1_555
C20_9 C13_9 1_555 1_555
Zn3_7 N6_9 1_555 1_555
Zn3_4 N8_8 1_555 1_555
N9_8 Zn3_7 1_555 1_555
N11_8 Zn3_7 1_555 1_555
N6_9 C18_9 1_555 1_555
N10_7 C19_9 1_555 1_555
N8_8 C20_9 1_555 1_555
C20_9 H1_9 1_555 1_555
C12_9 H2_9 1_555 1_555
C12_9 H3_9 1_555 1_555
C12_9 H4_9 1_555 1_555
C19_9 H5_9 1_555 1_555
C7_9 H6_9 1_555 1_555
C7_9 H7_9 1_555 1_555
C13_9 H8_9 1_555 1_555
C3_18 H9_9 1_555 1_555
C1_9 H11_9 1_555 1_555
C15_9 H12_9 1_555 1_555
C15_9 H13_9 1_555 1_555
C4_18 H15_18 1_555 1_555
C4_18 H16_9 1_555 1_555
C8_9 H17_9 1_555 1_555
C8_9 H18_9 1_555 1_555
C8_9 H19_9 1_555 1_555
C11_9 H20_9 1_555 1_555
C11_9 H21_9 1_555 1_555
C9_9 H22_9 1_555 1_555
C16_9 H23_9 1_555 1_555
C16_9 H24_9 1_555 1_555
C16_9 H25_9 1_555 1_555
C5_9 H26_9 1_555 1_555
C18_9 H28_9 1_555 1_555
Zn1_10 N1_10 1_555 1_555
N1_10 C1_10 1_555 1_555
C2_19 N1_10 1_555 1_555
C3_19 C2_19 1_555 1_555
C4_19 C3_19 1_555 1_555
N2_10 Zn1_10 1_555 1_555
C5_10 N2_10 1_555 1_555
C6_10 N2_10 1_555 1_555
C7_10 C6_10 1_555 1_555
C8_10 C7_10 1_555 1_555
N3_10 Zn1_10 1_555 1_555
C9_10 N3_10 1_555 1_555
C10_10 N3_10 1_555 1_555
C11_10 C10_10 1_555 1_555
C12_10 C11_10 1_555 1_555
N4_10 Zn1_10 1_555 1_555
C13_10 N4_10 1_555 1_555
C14_10 N4_10 1_555 1_555
C15_10 C14_10 1_555 1_555
C16_10 C15_10 1_555 1_555
N6_10 C6_10 1_555 1_555
C18_10 C5_10 1_555 1_555
N7_8 C10_10 1_555 1_555
C19_10 C9_10 1_555 1_555
N11_8 C14_10 1_555 1_555
C20_10 C13_10 1_555 1_555
Zn3_4 N6_10 1_555 1_555
Zn5_2 N7_8 1_555 1_555
N9_9 Zn3_4 1_555 1_555
N6_10 C18_10 1_555 1_555
N7_8 C19_10 1_555 1_555
N11_8 C20_10 1_555 1_555
C20_10 H1_10 1_555 1_555
C12_10 H2_10 1_555 1_555
C12_10 H3_10 1_555 1_555
C12_10 H4_10 1_555 1_555
C19_10 H5_10 1_555 1_555
C7_10 H6_10 1_555 1_555
C7_10 H7_10 1_555 1_555
C13_10 H8_10 1_555 1_555
C3_19 H9_10 1_555 1_555
C1_10 H11_10 1_555 1_555
C15_10 H12_10 1_555 1_555
C15_10 H13_10 1_555 1_555
C4_19 H15_19 1_555 1_555
C4_19 H16_10 1_555 1_555
C8_10 H17_10 1_555 1_555
C8_10 H18_10 1_555 1_555
C8_10 H19_10 1_555 1_555
C11_10 H20_10 1_555 1_555
C11_10 H21_10 1_555 1_555
C9_10 H22_10 1_555 1_555
C16_10 H23_10 1_555 1_555
C16_10 H24_10 1_555 1_555
C16_10 H25_10 1_555 1_555
C5_10 H26_10 1_555 1_555
C18_10 H28_10 1_555 1_555
C3_20 C2_20 1_555 1_555
C4_20 C3_20 1_555 1_555
N5_9 C2_20 1_555 1_555
C17_10 N5_9 1_555 1_555
Zn3_3 N5_9 1_555 1_555
C3_20 H10_10 1_555 1_555
C4_20 H14_10 1_555 1_555
C4_20 H15_20 1_555 1_555
C17_10 H27_10 1_555 1_555
C3_21 C2_21 1_555 1_555
C4_21 C3_21 1_555 1_555
N5_10 C2_21 1_555 1_555
C17_11 N5_10 1_555 1_555
Zn3_5 N5_10 1_555 1_555
C3_21 H10_11 1_555 1_555
C4_21 H14_11 1_555 1_555
C4_21 H15_21 1_555 1_555
C17_11 H27_11 1_555 1_555
Zn1_11 N1_11 1_555 1_555
N1_11 C1_11 1_555 1_555
C2_22 N1_11 1_555 1_555
C3_22 C2_22 1_555 1_555
C4_22 C3_22 1_555 1_555
N2_11 Zn1_11 1_555 1_555
C5_11 N2_11 1_555 1_555
C6_11 N2_11 1_555 1_555
C7_11 C6_11 1_555 1_555
C8_11 C7_11 1_555 1_555
N3_11 Zn1_11 1_555 1_555
C9_11 N3_11 1_555 1_555
C10_11 N3_11 1_555 1_555
C11_11 C10_11 1_555 1_555
C12_11 C11_11 1_555 1_555
N4_11 Zn1_11 1_555 1_555
C13_11 N4_11 1_555 1_555
C14_11 N4_11 1_555 1_555
C15_11 C14_11 1_555 1_555
C16_11 C15_11 1_555 1_555
N6_11 C6_11 1_555 1_555
C18_11 C5_11 1_555 1_555
N7_9 C10_11 1_555 1_555
C19_11 C9_11 1_555 1_555
N11_6 C14_11 1_555 1_555
C20_11 C13_11 1_555 1_555
Zn3_2 N6_11 1_555 1_555
Zn5_3 N7_9 1_555 1_555
N9_10 Zn3_2 1_555 1_555
N6_11 C18_11 1_555 1_555
N7_9 C19_11 1_555 1_555
N11_6 C20_11 1_555 1_555
C20_11 H1_11 1_555 1_555
C12_11 H2_11 1_555 1_555
C12_11 H3_11 1_555 1_555
C12_11 H4_11 1_555 1_555
C19_11 H5_11 1_555 1_555
C7_11 H6_11 1_555 1_555
C7_11 H7_11 1_555 1_555
C13_11 H8_11 1_555 1_555
C3_22 H9_11 1_555 1_555
C1_11 H11_11 1_555 1_555
C15_11 H12_11 1_555 1_555
C15_11 H13_11 1_555 1_555
C4_22 H15_22 1_555 1_555
C4_22 H16_11 1_555 1_555
C8_11 H17_11 1_555 1_555
C8_11 H18_11 1_555 1_555
C8_11 H19_11 1_555 1_555
C11_11 H20_11 1_555 1_555
C11_11 H21_11 1_555 1_555
C9_11 H22_11 1_555 1_555
C16_11 H23_11 1_555 1_555
C16_11 H24_11 1_555 1_555
C16_11 H25_11 1_555 1_555
C5_11 H26_11 1_555 1_555
C18_11 H28_11 1_555 1_555
Zn1_12 N1_12 1_555 1_555
N1_12 C1_12 1_555 1_555
C2_23 N1_12 1_555 1_555
C3_23 C2_23 1_555 1_555
C4_23 C3_23 1_555 1_555
N2_12 Zn1_12 1_555 1_555
C5_12 N2_12 1_555 1_555
C6_12 N2_12 1_555 1_555
C7_12 C6_12 1_555 1_555
C8_12 C7_12 1_555 1_555
N3_12 Zn1_12 1_555 1_555
C9_12 N3_12 1_555 1_555
C10_12 N3_12 1_555 1_555
C11_12 C10_12 1_555 1_555
C12_12 C11_12 1_555 1_555
N4_12 Zn1_12 1_555 1_555
C13_12 N4_12 1_555 1_555
C14_12 N4_12 1_555 1_555
C15_12 C14_12 1_555 1_555
C16_12 C15_12 1_555 1_555
N6_12 C6_12 1_555 1_555
C18_12 C5_12 1_555 1_555
N10 C10_12 1_555 1_555
C19_12 C9_12 1_555 1_555
N11_7 C14_12 1_555 1_555
C20_12 C13_12 1_555 1_555
Zn3_5 N6_12 1_555 1_555
N6_12 C18_12 1_555 1_555
N10 C19_12 1_555 1_555
N11_7 C20_12 1_555 1_555
C20_12 H1_12 1_555 1_555
C12_12 H2_12 1_555 1_555
C12_12 H3_12 1_555 1_555
C12_12 H4_12 1_555 1_555
C19_12 H5_12 1_555 1_555
C7_12 H6_12 1_555 1_555
C7_12 H7_12 1_555 1_555
C13_12 H8_12 1_555 1_555
C3_23 H9_12 1_555 1_555
C1_12 H11_12 1_555 1_555
C15_12 H12_12 1_555 1_555
C15_12 H13_12 1_555 1_555
C4_23 H15_23 1_555 1_555
C4_23 H16_12 1_555 1_555
C8_12 H17_12 1_555 1_555
C8_12 H18_12 1_555 1_555
C8_12 H19_12 1_555 1_555
C11_12 H20_12 1_555 1_555
C11_12 H21_12 1_555 1_555
C9_12 H22_12 1_555 1_555
C16_12 H23_12 1_555 1_555
C16_12 H24_12 1_555 1_555
C16_12 H25_12 1_555 1_555
C5_12 H26_12 1_555 1_555
C18_12 H28_12 1_555 1_555
C3_24 C2_24 1_555 1_555
C4_24 C3_24 1_555 1_555
N9_10 C2_24 1_555 1_555
C17_12 N9_10 1_555 1_555
C3_24 H10_12 1_555 1_555
C4_24 H14_12 1_555 1_555
C4_24 H15_24 1_555 1_555
C17_12 H27_12 1_555 1_555
C3_25 C2_25 1_555 1_555
C4_25 C3_25 1_555 1_555
N9_9 C2_25 1_555 1_555
C17_13 N9_9 1_555 1_555
C3_25 H10_13 1_555 1_555
C4_25 H14_13 1_555 1_555
C4_25 H15_25 1_555 1_555
C17_13 H27_13 1_555 1_555
Zn1_13 N1_13 1_555 1_555
N1_13 C1_13 1_555 1_555
C2_26 N1_13 1_555 1_555
C3_26 C2_26 1_555 1_555
C4_26 C3_26 1_555 1_555
N2_13 Zn1_13 1_555 1_555
C5_13 N2_13 1_555 1_555
C6_13 N2_13 1_555 1_555
C7_13 C6_13 1_555 1_555
C8_13 C7_13 1_555 1_555
N3_13 Zn1_13 1_555 1_555
C9_13 N3_13 1_555 1_555
C10_13 N3_13 1_555 1_555
C11_13 C10_13 1_555 1_555
C12_13 C11_13 1_555 1_555
N4_13 Zn1_13 1_555 1_555
C13_13 N4_13 1_555 1_555
C14_13 N4_13 1_555 1_555
C15_13 C14_13 1_555 1_555
C16_13 C15_13 1_555 1_555
N6_13 C6_13 1_555 1_555
C18_13 C5_13 1_555 1_555
N7_10 C10_13 1_555 1_555
C19_13 C9_13 1_555 1_555
N11_5 C14_13 1_555 1_555
C20_13 C13_13 1_555 1_555
Zn3_3 N6_13 1_555 1_555
Zn4_2 N7_10 1_555 1_555
N6_13 C18_13 1_555 1_555
N7_10 C19_13 1_555 1_555
N11_5 C20_13 1_555 1_555
C20_13 H1_13 1_555 1_555
C12_13 H2_13 1_555 1_555
C12_13 H3_13 1_555 1_555
C12_13 H4_13 1_555 1_555
C19_13 H5_13 1_555 1_555
C7_13 H6_13 1_555 1_555
C7_13 H7_13 1_555 1_555
C13_13 H8_13 1_555 1_555
C3_26 H9_13 1_555 1_555
C1_13 H11_13 1_555 1_555
C15_13 H12_13 1_555 1_555
C15_13 H13_13 1_555 1_555
C4_26 H15_26 1_555 1_555
C4_26 H16_13 1_555 1_555
C8_13 H17_13 1_555 1_555
C8_13 H18_13 1_555 1_555
C8_13 H19_13 1_555 1_555
C11_13 H20_13 1_555 1_555
C11_13 H21_13 1_555 1_555
C9_13 H22_13 1_555 1_555
C16_13 H23_13 1_555 1_555
C16_13 H24_13 1_555 1_555
C16_13 H25_13 1_555 1_555
C5_13 H26_13 1_555 1_555
C18_13 H28_13 1_555 1_555
C3_27 C2_27 1_555 1_555
C4_27 C3_27 1_555 1_555
N5_11 C2_27 1_555 1_555
C17_14 N5_11 1_555 1_555
Zn4_7 N5_11 1_555 1_555
C3_27 H10_14 1_555 1_555
C4_27 H14_14 1_555 1_555
C4_27 H15_27 1_555 1_555
C17_14 H27_14 1_555 1_555
Zn1_14 N1_14 1_555 1_555
N1_14 C1_14 1_555 1_555
C2_28 N1_14 1_555 1_555
C3_28 C2_28 1_555 1_555
C4_28 C3_28 1_555 1_555
N2_14 Zn1_14 1_555 1_555
C5_14 N2_14 1_555 1_555
C6_14 N2_14 1_555 1_555
C7_14 C6_14 1_555 1_555
C8_14 C7_14 1_555 1_555
N3_14 Zn1_14 1_555 1_555
C9_14 N3_14 1_555 1_555
C10_14 N3_14 1_555 1_555
C11_14 C10_14 1_555 1_555
C12_14 C11_14 1_555 1_555
N4_14 Zn1_14 1_555 1_555
C13_14 N4_14 1_555 1_555
C14_14 N4_14 1_555 1_555
C15_14 C14_14 1_555 1_555
C16_14 C15_14 1_555 1_555
N6_14 C6_14 1_555 1_555
C18_14 C5_14 1_555 1_555
N10_3 C10_14 1_555 1_555
C19_14 C9_14 1_555 1_555
N8_9 C14_14 1_555 1_555
C20_14 C13_14 1_555 1_555
Zn2_6 N6_14 1_555 1_555
Zn4_3 N8_9 1_555 1_555
N9_11 Zn2_6 1_555 1_555
N10_8 Zn2_6 1_555 1_555
N11_9 Zn2_6 1_555 1_555
N6_14 C18_14 1_555 1_555
N10_3 C19_14 1_555 1_555
N8_9 C20_14 1_555 1_555
C20_14 H1_14 1_555 1_555
C12_14 H2_14 1_555 1_555
C12_14 H3_14 1_555 1_555
C12_14 H4_14 1_555 1_555
C19_14 H5_14 1_555 1_555
C7_14 H6_14 1_555 1_555
C7_14 H7_14 1_555 1_555
C13_14 H8_14 1_555 1_555
C3_28 H9_14 1_555 1_555
C1_14 H11_14 1_555 1_555
C15_14 H12_14 1_555 1_555
C15_14 H13_14 1_555 1_555
C4_28 H15_28 1_555 1_555
C4_28 H16_14 1_555 1_555
C8_14 H17_14 1_555 1_555
C8_14 H18_14 1_555 1_555
C8_14 H19_14 1_555 1_555
C11_14 H20_14 1_555 1_555
C11_14 H21_14 1_555 1_555
C9_14 H22_14 1_555 1_555
C16_14 H23_14 1_555 1_555
C16_14 H24_14 1_555 1_555
C16_14 H25_14 1_555 1_555
C5_14 H26_14 1_555 1_555
C18_14 H28_14 1_555 1_555
C3_29 C2_29 1_555 1_555
C4_29 C3_29 1_555 1_555
N5_12 C2_29 1_555 1_555
C17_15 N5_12 1_555 1_555
Zn3 N5_12 1_555 1_555
C3_29 H10_15 1_555 1_555
C4_29 H14_15 1_555 1_555
C4_29 H15_29 1_555 1_555
C17_15 H27_15 1_555 1_555
Zn1_15 N1_15 1_555 1_555
N1_15 C1_15 1_555 1_555
C2_30 N1_15 1_555 1_555
C3_30 C2_30 1_555 1_555
C4_30 C3_30 1_555 1_555
N2_15 Zn1_15 1_555 1_555
C5_15 N2_15 1_555 1_555
C6_15 N2_15 1_555 1_555
C7_15 C6_15 1_555 1_555
C8_15 C7_15 1_555 1_555
N3_15 Zn1_15 1_555 1_555
C9_15 N3_15 1_555 1_555
C10_15 N3_15 1_555 1_555
C11_15 C10_15 1_555 1_555
C12_15 C11_15 1_555 1_555
N4_15 Zn1_15 1_555 1_555
C13_15 N4_15 1_555 1_555
C14_15 N4_15 1_555 1_555
C15_15 C14_15 1_555 1_555
C16_15 C15_15 1_555 1_555
N6_15 C6_15 1_555 1_555
C18_15 C5_15 1_555 1_555
N10_2 C10_15 1_555 1_555
C19_15 C9_15 1_555 1_555
N8_10 C14_15 1_555 1_555
C20_15 C13_15 1_555 1_555
Zn2_7 N6_15 1_555 1_555
Zn4_4 N8_10 1_555 1_555
N9_12 Zn2_7 1_555 1_555
N10_9 Zn2_7 1_555 1_555
N11_10 Zn2_7 1_555 1_555
N6_15 C18_15 1_555 1_555
N10_2 C19_15 1_555 1_555
N8_10 C20_15 1_555 1_555
C20_15 H1_15 1_555 1_555
C12_15 H2_15 1_555 1_555
C12_15 H3_15 1_555 1_555
C12_15 H4_15 1_555 1_555
C19_15 H5_15 1_555 1_555
C7_15 H6_15 1_555 1_555
C7_15 H7_15 1_555 1_555
C13_15 H8_15 1_555 1_555
C3_30 H9_15 1_555 1_555
C1_15 H11_15 1_555 1_555
C15_15 H12_15 1_555 1_555
C15_15 H13_15 1_555 1_555
C4_30 H15_30 1_555 1_555
C4_30 H16_15 1_555 1_555
C8_15 H17_15 1_555 1_555
C8_15 H18_15 1_555 1_555
C8_15 H19_15 1_555 1_555
C11_15 H20_15 1_555 1_555
C11_15 H21_15 1_555 1_555
C9_15 H22_15 1_555 1_555
C16_15 H23_15 1_555 1_555
C16_15 H24_15 1_555 1_555
C16_15 H25_15 1_555 1_555
C5_15 H26_15 1_555 1_555
C18_15 H28_15 1_555 1_555
Zn1_16 N1_16 1_555 1_555
N1_16 C1_16 1_555 1_555
C2_31 N1_16 1_555 1_555
C3_31 C2_31 1_555 1_555
C4_31 C3_31 1_555 1_555
N2_16 Zn1_16 1_555 1_555
C5_16 N2_16 1_555 1_555
C6_16 N2_16 1_555 1_555
C7_16 C6_16 1_555 1_555
C8_16 C7_16 1_555 1_555
N3_16 Zn1_16 1_555 1_555
C9_16 N3_16 1_555 1_555
C10_16 N3_16 1_555 1_555
C11_16 C10_16 1_555 1_555
C12_16 C11_16 1_555 1_555
N4_16 Zn1_16 1_555 1_555
C13_16 N4_16 1_555 1_555
C14_16 N4_16 1_555 1_555
C15_16 C14_16 1_555 1_555
C16_16 C15_16 1_555 1_555
N6_16 C6_16 1_555 1_555
C18_16 C5_16 1_555 1_555
N10_5 C10_16 1_555 1_555
C19_16 C9_16 1_555 1_555
N8_11 C14_16 1_555 1_555
C20_16 C13_16 1_555 1_555
Zn3 N6_16 1_555 1_555
Zn4_5 N8_11 1_555 1_555
N11_11 Zn3 1_555 1_555
N6_16 C18_16 1_555 1_555
N10_5 C19_16 1_555 1_555
N8_11 C20_16 1_555 1_555
C20_16 H1_16 1_555 1_555
C12_16 H2_16 1_555 1_555
C12_16 H3_16 1_555 1_555
C12_16 H4_16 1_555 1_555
C19_16 H5_16 1_555 1_555
C7_16 H6_16 1_555 1_555
C7_16 H7_16 1_555 1_555
C13_16 H8_16 1_555 1_555
C3_31 H9_16 1_555 1_555
C1_16 H11_16 1_555 1_555
C15_16 H12_16 1_555 1_555
C15_16 H13_16 1_555 1_555
C4_31 H15_31 1_555 1_555
C4_31 H16_16 1_555 1_555
C8_16 H17_16 1_555 1_555
C8_16 H18_16 1_555 1_555
C8_16 H19_16 1_555 1_555
C11_16 H20_16 1_555 1_555
C11_16 H21_16 1_555 1_555
C9_16 H22_16 1_555 1_555
C16_16 H23_16 1_555 1_555
C16_16 H24_16 1_555 1_555
C16_16 H25_16 1_555 1_555
C5_16 H26_16 1_555 1_555
C18_16 H28_16 1_555 1_555
C3_32 C2_32 1_555 1_555
C4_32 C3_32 1_555 1_555
N9_12 C2_32 1_555 1_555
C17_16 N9_12 1_555 1_555
C3_32 H10_16 1_555 1_555
C4_32 H14_16 1_555 1_555
C4_32 H15_32 1_555 1_555
C17_16 H27_16 1_555 1_555
Zn1_17 N1_17 1_555 1_555
N1_17 C1_17 1_555 1_555
C2_33 N1_17 1_555 1_555
C3_33 C2_33 1_555 1_555
C4_33 C3_33 1_555 1_555
N2_17 Zn1_17 1_555 1_555
C5_17 N2_17 1_555 1_555
C6_17 N2_17 1_555 1_555
C7_17 C6_17 1_555 1_555
C8_17 C7_17 1_555 1_555
N3_17 Zn1_17 1_555 1_555
C9_17 N3_17 1_555 1_555
C10_17 N3_17 1_555 1_555
C11_17 C10_17 1_555 1_555
C12_17 C11_17 1_555 1_555
N4_17 Zn1_17 1_555 1_555
C13_17 N4_17 1_555 1_555
C14_17 N4_17 1_555 1_555
C15_17 C14_17 1_555 1_555
C16_17 C15_17 1_555 1_555
N6_17 C6_17 1_555 1_555
C18_17 C5_17 1_555 1_555
N10_4 C10_17 1_555 1_555
C19_17 C9_17 1_555 1_555
N8_12 C14_17 1_555 1_555
C20_17 C13_17 1_555 1_555
Zn4_7 N6_17 1_555 1_555
Zn4_6 N8_12 1_555 1_555
N10_10 Zn4_7 1_555 1_555
N11_12 Zn4_7 1_555 1_555
N6_17 C18_17 1_555 1_555
N10_4 C19_17 1_555 1_555
N8_12 C20_17 1_555 1_555
C20_17 H1_17 1_555 1_555
C12_17 H2_17 1_555 1_555
C12_17 H3_17 1_555 1_555
C12_17 H4_17 1_555 1_555
C19_17 H5_17 1_555 1_555
C7_17 H6_17 1_555 1_555
C7_17 H7_17 1_555 1_555
C13_17 H8_17 1_555 1_555
C3_33 H9_17 1_555 1_555
C1_17 H11_17 1_555 1_555
C15_17 H12_17 1_555 1_555
C15_17 H13_17 1_555 1_555
C4_33 H15_33 1_555 1_555
C4_33 H16_17 1_555 1_555
C8_17 H17_17 1_555 1_555
C8_17 H18_17 1_555 1_555
C8_17 H19_17 1_555 1_555
C11_17 H20_17 1_555 1_555
C11_17 H21_17 1_555 1_555
C9_17 H22_17 1_555 1_555
C16_17 H23_17 1_555 1_555
C16_17 H24_17 1_555 1_555
C16_17 H25_17 1_555 1_555
C5_17 H26_17 1_555 1_555
C18_17 H28_17 1_555 1_555
C3_34 C2_34 1_555 1_555
C4_34 C3_34 1_555 1_555
N9_11 C2_34 1_555 1_555
C17_17 N9_11 1_555 1_555
C3_34 H10_17 1_555 1_555
C4_34 H14_17 1_555 1_555
C4_34 H15_34 1_555 1_555
C17_17 H27_17 1_555 1_555
Zn1_18 N1_18 1_555 1_555
N1_18 C1_18 1_555 1_555
C2_35 N1_18 1_555 1_555
C3_35 C2_35 1_555 1_555
C4_35 C3_35 1_555 1_555
N2_18 Zn1_18 1_555 1_555
C5_18 N2_18 1_555 1_555
C6_18 N2_18 1_555 1_555
C7_18 C6_18 1_555 1_555
C8_18 C7_18 1_555 1_555
N3_18 Zn1_18 1_555 1_555
C9_18 N3_18 1_555 1_555
C10_18 N3_18 1_555 1_555
C11_18 C10_18 1_555 1_555
C12_18 C11_18 1_555 1_555
N4_18 Zn1_18 1_555 1_555
C13_18 N4_18 1_555 1_555
C14_18 N4_18 1_555 1_555
C15_18 C14_18 1_555 1_555
C16_18 C15_18 1_555 1_555
N6_18 C6_18 1_555 1_555
C18_18 C5_18 1_555 1_555
N7_11 C10_18 1_555 1_555
C19_18 C9_18 1_555 1_555
N11_12 C14_18 1_555 1_555
C20_18 C13_18 1_555 1_555
Zn4_6 N6_18 1_555 1_555
Zn4_4 N7_11 1_555 1_555
N10_11 Zn4_6 1_555 1_555
N6_18 C18_18 1_555 1_555
N7_11 C19_18 1_555 1_555
N11_12 C20_18 1_555 1_555
C20_18 H1_18 1_555 1_555
C12_18 H2_18 1_555 1_555
C12_18 H3_18 1_555 1_555
C12_18 H4_18 1_555 1_555
C19_18 H5_18 1_555 1_555
C7_18 H6_18 1_555 1_555
C7_18 H7_18 1_555 1_555
C13_18 H8_18 1_555 1_555
C3_35 H9_18 1_555 1_555
C1_18 H11_18 1_555 1_555
C15_18 H12_18 1_555 1_555
C15_18 H13_18 1_555 1_555
C4_35 H15_35 1_555 1_555
C4_35 H16_18 1_555 1_555
C8_18 H17_18 1_555 1_555
C8_18 H18_18 1_555 1_555
C8_18 H19_18 1_555 1_555
C11_18 H20_18 1_555 1_555
C11_18 H21_18 1_555 1_555
C9_18 H22_18 1_555 1_555
C16_18 H23_18 1_555 1_555
C16_18 H24_18 1_555 1_555
C16_18 H25_18 1_555 1_555
C5_18 H26_18 1_555 1_555
C18_18 H28_18 1_555 1_555
C3_36 C2_36 1_555 1_555
C4_36 C3_36 1_555 1_555
N9_8 C2_36 1_555 1_555
C17_18 N9_8 1_555 1_555
C3_36 H10_18 1_555 1_555
C4_36 H14_18 1_555 1_555
C4_36 H15_36 1_555 1_555
C17_18 H27_18 1_555 1_555
Zn1_19 N1_19 1_555 1_555
N1_19 C1_19 1_555 1_555
C2_37 N1_19 1_555 1_555
C3_37 C2_37 1_555 1_555
C4_37 C3_37 1_555 1_555
N2_19 Zn1_19 1_555 1_555
C5_19 N2_19 1_555 1_555
C6_19 N2_19 1_555 1_555
C7_19 C6_19 1_555 1_555
C8_19 C7_19 1_555 1_555
N3_19 Zn1_19 1_555 1_555
C9_19 N3_19 1_555 1_555
C10_19 N3_19 1_555 1_555
C11_19 C10_19 1_555 1_555
C12_19 C11_19 1_555 1_555
N4_19 Zn1_19 1_555 1_555
C13_19 N4_19 1_555 1_555
C14_19 N4_19 1_555 1_555
C15_19 C14_19 1_555 1_555
C16_19 C15_19 1_555 1_555
N6_19 C6_19 1_555 1_555
C18_19 C5_19 1_555 1_555
N7_12 C10_19 1_555 1_555
C19_19 C9_19 1_555 1_555
N11_10 C14_19 1_555 1_555
C20_19 C13_19 1_555 1_555
Zn4_4 N6_19 1_555 1_555
Zn4_3 N7_12 1_555 1_555
N6_19 C18_19 1_555 1_555
N7_12 C19_19 1_555 1_555
N11_10 C20_19 1_555 1_555
C20_19 H1_19 1_555 1_555
C12_19 H2_19 1_555 1_555
C12_19 H3_19 1_555 1_555
C12_19 H4_19 1_555 1_555
C19_19 H5_19 1_555 1_555
C7_19 H6_19 1_555 1_555
C7_19 H7_19 1_555 1_555
C13_19 H8_19 1_555 1_555
C3_37 H9_19 1_555 1_555
C1_19 H11_19 1_555 1_555
C15_19 H12_19 1_555 1_555
C15_19 H13_19 1_555 1_555
C4_37 H15_37 1_555 1_555
C4_37 H16_19 1_555 1_555
C8_19 H17_19 1_555 1_555
C8_19 H18_19 1_555 1_555
C8_19 H19_19 1_555 1_555
C11_19 H20_19 1_555 1_555
C11_19 H21_19 1_555 1_555
C9_19 H22_19 1_555 1_555
C16_19 H23_19 1_555 1_555
C16_19 H24_19 1_555 1_555
C16_19 H25_19 1_555 1_555
C5_19 H26_19 1_555 1_555
C18_19 H28_19 1_555 1_555
C3_38 C2_38 1_555 1_555
C4_38 C3_38 1_555 1_555
N9_6 C2_38 1_555 1_555
C17_19 N9_6 1_555 1_555
C3_38 H10_19 1_555 1_555
C4_38 H14_19 1_555 1_555
C4_38 H15_38 1_555 1_555
C17_19 H27_19 1_555 1_555
Zn1_20 N1_20 1_555 1_555
N1_20 C1_20 1_555 1_555
C2_39 N1_20 1_555 1_555
C3_39 C2_39 1_555 1_555
C4_39 C3_39 1_555 1_555
N2_20 Zn1_20 1_555 1_555
C5_20 N2_20 1_555 1_555
C6_20 N2_20 1_555 1_555
C7_20 C6_20 1_555 1_555
C8_20 C7_20 1_555 1_555
N3_20 Zn1_20 1_555 1_555
C9_20 N3_20 1_555 1_555
C10_20 N3_20 1_555 1_555
C11_20 C10_20 1_555 1_555
C12_20 C11_20 1_555 1_555
N4_20 Zn1_20 1_555 1_555
C13_20 N4_20 1_555 1_555
C14_20 N4_20 1_555 1_555
C15_20 C14_20 1_555 1_555
C16_20 C15_20 1_555 1_555
N6_20 C6_20 1_555 1_555
C18_20 C5_20 1_555 1_555
N10_11 C10_20 1_555 1_555
C19_20 C9_20 1_555 1_555
N11_11 C14_20 1_555 1_555
C20_20 C13_20 1_555 1_555
Zn4_5 N6_20 1_555 1_555
N10_12 Zn4_5 1_555 1_555
N6_20 C18_20 1_555 1_555
N10_11 C19_20 1_555 1_555
N11_11 C20_20 1_555 1_555
C20_20 H1_20 1_555 1_555
C12_20 H2_20 1_555 1_555
C12_20 H3_20 1_555 1_555
C12_20 H4_20 1_555 1_555
C19_20 H5_20 1_555 1_555
C7_20 H6_20 1_555 1_555
C7_20 H7_20 1_555 1_555
C13_20 H8_20 1_555 1_555
C3_39 H9_20 1_555 1_555
C1_20 H11_20 1_555 1_555
C15_20 H12_20 1_555 1_555
C15_20 H13_20 1_555 1_555
C4_39 H15_39 1_555 1_555
C4_39 H16_20 1_555 1_555
C8_20 H17_20 1_555 1_555
C8_20 H18_20 1_555 1_555
C8_20 H19_20 1_555 1_555
C11_20 H20_20 1_555 1_555
C11_20 H21_20 1_555 1_555
C9_20 H22_20 1_555 1_555
C16_20 H23_20 1_555 1_555
C16_20 H24_20 1_555 1_555
C16_20 H25_20 1_555 1_555
C5_20 H26_20 1_555 1_555
C18_20 H28_20 1_555 1_555
C3_40 C2_40 1_555 1_555
C4_40 C3_40 1_555 1_555
N9_7 C2_40 1_555 1_555
C17_20 N9_7 1_555 1_555
C3_40 H10_20 1_555 1_555
C4_40 H14_20 1_555 1_555
C4_40 H15_40 1_555 1_555
C17_20 H27_20 1_555 1_555
Zn1_21 N1_21 1_555 1_555
N1_21 C1_21 1_555 1_555
C2_41 N1_21 1_555 1_555
C3_41 C2_41 1_555 1_555
C4_41 C3_41 1_555 1_555
N2_21 Zn1_21 1_555 1_555
C5_21 N2_21 1_555 1_555
C6_21 N2_21 1_555 1_555
C7_21 C6_21 1_555 1_555
C8_21 C7_21 1_555 1_555
N3_21 Zn1_21 1_555 1_555
C9_21 N3_21 1_555 1_555
C10_21 N3_21 1_555 1_555
C11_21 C10_21 1_555 1_555
C12_21 C11_21 1_555 1_555
N4_21 Zn1_21 1_555 1_555
C13_21 N4_21 1_555 1_555
C14_21 N4_21 1_555 1_555
C15_21 C14_21 1_555 1_555
C16_21 C15_21 1_555 1_555
N6_21 C6_21 1_555 1_555
C18_21 C5_21 1_555 1_555
N10_12 C10_21 1_555 1_555
C19_21 C9_21 1_555 1_555
N11_9 C14_21 1_555 1_555
C20_21 C13_21 1_555 1_555
Zn4_3 N6_21 1_555 1_555
N6_21 C18_21 1_555 1_555
N10_12 C19_21 1_555 1_555
N11_9 C20_21 1_555 1_555
C20_21 H1_21 1_555 1_555
C12_21 H2_21 1_555 1_555
C12_21 H3_21 1_555 1_555
C12_21 H4_21 1_555 1_555
C19_21 H5_21 1_555 1_555
C7_21 H6_21 1_555 1_555
C7_21 H7_21 1_555 1_555
C13_21 H8_21 1_555 1_555
C3_41 H9_21 1_555 1_555
C1_21 H11_21 1_555 1_555
C15_21 H12_21 1_555 1_555
C15_21 H13_21 1_555 1_555
C4_41 H15_41 1_555 1_555
C4_41 H16_21 1_555 1_555
C8_21 H17_21 1_555 1_555
C8_21 H18_21 1_555 1_555
C8_21 H19_21 1_555 1_555
C11_21 H20_21 1_555 1_555
C11_21 H21_21 1_555 1_555
C9_21 H22_21 1_555 1_555
C16_21 H23_21 1_555 1_555
C16_21 H24_21 1_555 1_555
C16_21 H25_21 1_555 1_555
C5_21 H26_21 1_555 1_555
C18_21 H28_21 1_555 1_555
C3_42 C2_42 1_555 1_555
C4_42 C3_42 1_555 1_555
N9_5 C2_42 1_555 1_555
C17_21 N9_5 1_555 1_555
C3_42 H10_21 1_555 1_555
C4_42 H14_21 1_555 1_555
C4_42 H15_42 1_555 1_555
C17_21 H27_21 1_555 1_555
C3_43 C2_43 1_555 1_555
C4_43 C3_43 1_555 1_555
N9_4 C2_43 1_555 1_555
C17_22 N9_4 1_555 1_555
C3_43 H10_22 1_555 1_555
C4_43 H14_22 1_555 1_555
C4_43 H15_43 1_555 1_555
C17_22 H27_22 1_555 1_555
Zn1_22 N1_22 1_555 1_555
N1_22 C1_22 1_555 1_555
C2_44 N1_22 1_555 1_555
C3_44 C2_44 1_555 1_555
C4_44 C3_44 1_555 1_555
N2_22 Zn1_22 1_555 1_555
C5_22 N2_22 1_555 1_555
C6_22 N2_22 1_555 1_555
C7_22 C6_22 1_555 1_555
C8_22 C7_22 1_555 1_555
N3_22 Zn1_22 1_555 1_555
C9_22 N3_22 1_555 1_555
C10_22 N3_22 1_555 1_555
C11_22 C10_22 1_555 1_555
C12_22 C11_22 1_555 1_555
N4_22 Zn1_22 1_555 1_555
C13_22 N4_22 1_555 1_555
C14_22 N4_22 1_555 1_555
C15_22 C14_22 1_555 1_555
C16_22 C15_22 1_555 1_555
N6_22 C6_22 1_555 1_555
C18_22 C5_22 1_555 1_555
N10_9 C10_22 1_555 1_555
C19_22 C9_22 1_555 1_555
N11_3 C14_22 1_555 1_555
C20_22 C13_22 1_555 1_555
Zn5_3 N6_22 1_555 1_555
N6_22 C18_22 1_555 1_555
N10_9 C19_22 1_555 1_555
N11_3 C20_22 1_555 1_555
C20_22 H1_22 1_555 1_555
C12_22 H2_22 1_555 1_555
C12_22 H3_22 1_555 1_555
C12_22 H4_22 1_555 1_555
C19_22 H5_22 1_555 1_555
C7_22 H6_22 1_555 1_555
C7_22 H7_22 1_555 1_555
C13_22 H8_22 1_555 1_555
C3_44 H9_22 1_555 1_555
C1_22 H11_22 1_555 1_555
C15_22 H12_22 1_555 1_555
C15_22 H13_22 1_555 1_555
C4_44 H15_44 1_555 1_555
C4_44 H16_22 1_555 1_555
C8_22 H17_22 1_555 1_555
C8_22 H18_22 1_555 1_555
C8_22 H19_22 1_555 1_555
C11_22 H20_22 1_555 1_555
C11_22 H21_22 1_555 1_555
C9_22 H22_22 1_555 1_555
C16_22 H23_22 1_555 1_555
C16_22 H24_22 1_555 1_555
C16_22 H25_22 1_555 1_555
C5_22 H26_22 1_555 1_555
C18_22 H28_22 1_555 1_555
Zn1_23 N1_23 1_555 1_555
N1_23 C1_23 1_555 1_555
C2_45 N1_23 1_555 1_555
C3_45 C2_45 1_555 1_555
C4_45 C3_45 1_555 1_555
N2_23 Zn1_23 1_555 1_555
C5_23 N2_23 1_555 1_555
C6_23 N2_23 1_555 1_555
C7_23 C6_23 1_555 1_555
C8_23 C7_23 1_555 1_555
N3_23 Zn1_23 1_555 1_555
C9_23 N3_23 1_555 1_555
C10_23 N3_23 1_555 1_555
C11_23 C10_23 1_555 1_555
C12_23 C11_23 1_555 1_555
N4_23 Zn1_23 1_555 1_555
C13_23 N4_23 1_555 1_555
C14_23 N4_23 1_555 1_555
C15_23 C14_23 1_555 1_555
C16_23 C15_23 1_555 1_555
N6_23 C6_23 1_555 1_555
C18_23 C5_23 1_555 1_555
N10_10 C10_23 1_555 1_555
C19_23 C9_23 1_555 1_555
N11_2 C14_23 1_555 1_555
C20_23 C13_23 1_555 1_555
Zn5_2 N6_23 1_555 1_555
N6_23 C18_23 1_555 1_555
N10_10 C19_23 1_555 1_555
N11_2 C20_23 1_555 1_555
C20_23 H1_23 1_555 1_555
C12_23 H2_23 1_555 1_555
C12_23 H3_23 1_555 1_555
C12_23 H4_23 1_555 1_555
C19_23 H5_23 1_555 1_555
C7_23 H6_23 1_555 1_555
C7_23 H7_23 1_555 1_555
C13_23 H8_23 1_555 1_555
C3_45 H9_23 1_555 1_555
C1_23 H11_23 1_555 1_555
C15_23 H12_23 1_555 1_555
C15_23 H13_23 1_555 1_555
C4_45 H15_45 1_555 1_555
C4_45 H16_23 1_555 1_555
C8_23 H17_23 1_555 1_555
C8_23 H18_23 1_555 1_555
C8_23 H19_23 1_555 1_555
C11_23 H20_23 1_555 1_555
C11_23 H21_23 1_555 1_555
C9_23 H22_23 1_555 1_555
C16_23 H23_23 1_555 1_555
C16_23 H24_23 1_555 1_555
C16_23 H25_23 1_555 1_555
C5_23 H26_23 1_555 1_555
C18_23 H28_23 1_555 1_555
C3_46 C2_46 1_555 1_555
C4_46 C3_46 1_555 1_555
N9_2 C2_46 1_555 1_555
C17_23 N9_2 1_555 1_555
C3_46 H10_23 1_555 1_555
C4_46 H14_23 1_555 1_555
C4_46 H15_46 1_555 1_555
C17_23 H27_23 1_555 1_555
C3_47 C2_47 1_555 1_555
C4_47 C3_47 1_555 1_555
N9_3 C2_47 1_555 1_555
C17_24 N9_3 1_555 1_555
C3_47 H10_24 1_555 1_555
C4_47 H14_24 1_555 1_555
C4_47 H15_47 1_555 1_555
C17_24 H27_24 1_555 1_555
Zn1_24 N1_24 1_555 1_555
N1_24 C1_24 1_555 1_555
C2_48 N1_24 1_555 1_555
C3_48 C2_48 1_555 1_555
C4_48 C3_48 1_555 1_555
N2_24 Zn1_24 1_555 1_555
C5_24 N2_24 1_555 1_555
C6_24 N2_24 1_555 1_555
C7_24 C6_24 1_555 1_555
C8_24 C7_24 1_555 1_555
N3_24 Zn1_24 1_555 1_555
C9_24 N3_24 1_555 1_555
C10_24 N3_24 1_555 1_555
C11_24 C10_24 1_555 1_555
C12_24 C11_24 1_555 1_555
N4_24 Zn1_24 1_555 1_555
C13_24 N4_24 1_555 1_555
C14_24 N4_24 1_555 1_555
C15_24 C14_24 1_555 1_555
C16_24 C15_24 1_555 1_555
N6_24 C6_24 1_555 1_555
C18_24 C5_24 1_555 1_555
N10_8 C10_24 1_555 1_555
C19_24 C9_24 1_555 1_555
N11_4 C14_24 1_555 1_555
C20_24 C13_24 1_555 1_555
Zn4_2 N6_24 1_555 1_555
N6_24 C18_24 1_555 1_555
N10_8 C19_24 1_555 1_555
N11_4 C20_24 1_555 1_555
C20_24 H1_24 1_555 1_555
C12_24 H2_24 1_555 1_555
C12_24 H3_24 1_555 1_555
C12_24 H4_24 1_555 1_555
C19_24 H5_24 1_555 1_555
C7_24 H6_24 1_555 1_555
C7_24 H7_24 1_555 1_555
C13_24 H8_24 1_555 1_555
C3_48 H9_24 1_555 1_555
C1_24 H11_24 1_555 1_555
C15_24 H12_24 1_555 1_555
C15_24 H13_24 1_555 1_555
C4_48 H15_48 1_555 1_555
C4_48 H16_24 1_555 1_555
C8_24 H17_24 1_555 1_555
C8_24 H18_24 1_555 1_555
C8_24 H19_24 1_555 1_555
C11_24 H20_24 1_555 1_555
C11_24 H21_24 1_555 1_555
C9_24 H22_24 1_555 1_555
C16_24 H23_24 1_555 1_555
C16_24 H24_24 1_555 1_555
C16_24 H25_24 1_555 1_555
C5_24 H26_24 1_555 1_555
C18_24 H28_24 1_555 1_555

#END
