
###############################################################################
#
# This file contains modified crystal structure data generated from the
# MOF subset of the Cambridge Structural Database (CSD) v543 
# hosted by the Cambridge Crystallographic Data Centre (CCDC).
#
# This work is licensed under the Creative Commons
# Attribution-NonCommercial-ShareAlike 4.0 International License.
# To view a copy of this license, visit
# http://creativecommons.org/licenses/by-nc-sa/4.0/
# or send a letter to
# Creative Commons, PO Box 1866, Mountain View, CA 94042, USA.
#
# CIF created using the CSD Python API on 29 September 2022
# The structure has been converted into the P1 space group
# The structure has a 3D framework
# The original CSD entry IGONUP is in the trigonal crystal system
# The framework has been calculated to contain at least 10.0% void space
# The void calculation uses a probe of radius 1.32A, grid spacing 0.4
# The framework is charged, counterions have been retained in the structure
#
###############################################################################

data_IGONUP
_chemical_formula_moiety         '(C12 H12 Co8 O20 4-)n'
_symmetry_cell_setting           triclinic
_symmetry_space_group_name_H-M   'P 1'
_symmetry_Int_Tables_number      1
_space_group_name_Hall           'P 1'
loop_
_symmetry_equiv_pos_site_id
_symmetry_equiv_pos_as_xyz
1 x,y,z
_cell_length_a                   8.5322(2)
_cell_length_b                   8.5322(2)
_cell_length_c                   13.3228(3)
_cell_angle_alpha                90
_cell_angle_beta                 90
_cell_angle_gamma                120
_cell_volume                     839.94
loop_
_atom_site_label
_atom_site_type_symbol
_atom_site_fract_x
_atom_site_fract_y
_atom_site_fract_z
Co1 Co 0.0000 0.0000 0.5000
Co2 Co 0.3333 0.6667 0.2500
O1 O 0.21324(19) 0.20309(18) 0.41667(10)
O2 O 0.33922(19) 0.47061(19) 0.34267(10)
C1 C 0.2082(3) 0.3261(3) 0.37035(14)
H1 H 0.0941 0.3081 0.3548
O8 O 0.13139(27) 0.47061(19) 0.15733(10)
C4 C 0.1179(4) 0.3261(3) 0.12965(14)
H4 H 0.2140 0.3081 0.1452
O11 O 0.01015(26) 0.21324(19) 0.58333(10)
Co3 Co 0.0000 0.0000 0.0000
O14 O 0.52939(19) 0.86861(27) 0.34267(10)
O15 O 0.13139(27) 0.66078(19) 0.34267(10)
O16 O 0.52939(19) 0.66078(19) 0.15733(10)
O17 O 0.33922(19) 0.86861(27) 0.15733(10)
Co3_2 Co 0.0000 0.0000 1.0000
Co1_2 Co -0.0000 1.0000 0.5000
C3 C 0.1179(4) 0.7918(3) 0.37035(14)
H3 H 0.2140 0.9059 0.3548
Co3_3 Co 0.0000 1.0000 0.0000
O13 O 0.20309(18) 0.98985(26) 0.58333(10)
Co3_4 Co 0.0000 1.0000 1.0000
Co1_3 Co 1.0000 0.0000 0.5000
O3 O 0.79691(18) 0.01015(26) 0.41667(10)
O7 O 0.98985(26) 0.20309(18) 0.08333(10)
O12 O 0.86861(27) 0.33922(19) 0.65733(10)
C6 C 0.8821(4) 0.2082(3) 0.62965(14)
H6 H 0.7860 0.0941 0.6452
Co3_5 Co 1.0000 0.0000 0.0000
Co7 Co 0.6667 0.3333 0.7500
Co3_6 Co 1.0000 0.0000 1.0000
Co1_4 Co 1.0000 1.0000 0.5000
C2 C 0.6739(3) 0.8821(4) 0.37035(14)
H2 H 0.6919 0.7860 0.3548
O5 O 0.98985(26) 0.78676(19) 0.41667(10)
O9 O 0.78676(19) 0.79691(18) 0.58333(10)
O10 O 0.66078(19) 0.52939(19) 0.65733(10)
C5 C 0.7918(3) 0.6739(3) 0.62965(14)
H5 H 0.9059 0.6919 0.6452
Co3_7 Co 1.0000 1.0000 0.0000
Co3_8 Co 1.0000 1.0000 1.0000
O10_2 O 0.47061(19) 0.13139(27) 0.65733(10)
C5_2 C 0.3261(3) 0.1179(4) 0.62965(14)
H5_2 H 0.3081 0.2140 0.6452
O7_2 O 0.79691(18) 0.78676(32) 0.08333(10)
C4_2 C 0.6739(3) 0.7918(5) 0.12965(14)
H4_2 H 0.6919 0.9059 0.1452
O7_3 O 0.21324(32) 0.01015(26) 0.08333(10)
C4_3 C 0.2082(5) 0.8821(4) 0.12965(14)
H4_3 H 0.0941 0.7860 0.1452
O9_2 O 0.20309(18) 0.21324(19) 0.91667(10)
O10_3 O 0.47061(19) 0.33922(19) 0.84267(10)
C5_3 C 0.3261(3) 0.2082(3) 0.87035(14)
H5_3 H 0.3081 0.0941 0.8548
O13_2 O 0.01015(26) 0.79691(18) 0.91667(10)
O12_2 O 0.66078(19) 0.13139(27) 0.84267(10)
C6_2 C 0.7918(3) 0.1179(4) 0.87035(14)
H6_2 H 0.9059 0.2140 0.8548
O11_2 O 0.78676(19) 0.98985(26) 0.91667(10)
O10_4 O 0.86861(27) 0.52939(19) 0.84267(10)
C5_4 C 0.8821(4) 0.6739(3) 0.87035(14)
H5_4 H 0.7860 0.6919 0.8548
loop_
_geom_bond_atom_site_label_1
_geom_bond_atom_site_label_2
_geom_bond_site_symmetry_1
_geom_bond_site_symmetry_2
Co1 O1 1_555 1_555
Co2 O2 1_555 1_555
O1 C1 1_555 1_555
O2 C1 1_555 1_555
C1 H1 1_555 1_555
O8 Co2 1_555 1_555
C4 O8 1_555 1_555
H4 C4 1_555 1_555
O11 Co1 1_555 1_555
O14 Co2 1_555 1_555
O15 Co2 1_555 1_555
O16 Co2 1_555 1_555
O17 Co2 1_555 1_555
O15 C3 1_555 1_555
H3 C3 1_555 1_555
O13 Co1_2 1_555 1_555
O3 Co1_3 1_555 1_555
O12 C6 1_555 1_555
H6 C6 1_555 1_555
Co3_5 O7 1_555 1_555
Co7 O12 1_555 1_555
O14 C2 1_555 1_555
H2 C2 1_555 1_555
O5 Co1_4 1_555 1_555
O9 Co1_4 1_555 1_555
O10 C5 1_555 1_555
C5 O9 1_555 1_555
H5 C5 1_555 1_555
Co7 O10 1_555 1_555
O10_2 C5_2 1_555 1_555
H5_2 C5_2 1_555 1_555
Co7 O10_2 1_555 1_555
O7_2 C4_2 1_555 1_555
C4_2 O16 1_555 1_555
H4_2 C4_2 1_555 1_555
Co3_7 O7_2 1_555 1_555
Co3 O7_3 1_555 1_555
C4_3 O17 1_555 1_555
H4_3 C4_3 1_555 1_555
O9_2 Co3_2 1_555 1_555
O10_3 C5_3 1_555 1_555
C5_3 O9_2 1_555 1_555
H5_3 C5_3 1_555 1_555
Co7 O10_3 1_555 1_555
O13_2 Co3_4 1_555 1_555
O12_2 C6_2 1_555 1_555
H6_2 C6_2 1_555 1_555
Co7 O12_2 1_555 1_555
O11_2 Co3_8 1_555 1_555
O10_4 C5_4 1_555 1_555
H5_4 C5_4 1_555 1_555
Co7 O10_4 1_555 1_555

#END
