
###############################################################################
#
# This file contains modified crystal structure data generated from the
# MOF subset of the Cambridge Structural Database (CSD) v543 
# hosted by the Cambridge Crystallographic Data Centre (CCDC).
#
# This work is licensed under the Creative Commons
# Attribution-NonCommercial-ShareAlike 4.0 International License.
# To view a copy of this license, visit
# http://creativecommons.org/licenses/by-nc-sa/4.0/
# or send a letter to
# Creative Commons, PO Box 1866, Mountain View, CA 94042, USA.
#
# CIF created using the CSD Python API on 29 September 2022
# The structure has been converted into the P1 space group
# The structure has a 3D framework
# The original CSD entry IGOPAX is in the rhombohedral crystal system
# The framework has been calculated to contain at least 10.0% void space
# The void calculation uses a probe of radius 1.32A, grid spacing 0.4
# The framework is charged, counterions have been retained in the structure
#
###############################################################################

data_IGOPAX
_chemical_formula_moiety         '(C58 H58 Co32 O88 25-)n'
_symmetry_cell_setting           triclinic
_symmetry_space_group_name_H-M   'P 1'
_symmetry_Int_Tables_number      1
_space_group_name_Hall           'P 1'
loop_
_symmetry_equiv_pos_site_id
_symmetry_equiv_pos_as_xyz
1 x,y,z
_cell_length_a                   8.4069(2)
_cell_length_b                   8.4069(2)
_cell_length_c                   61.921(3)
_cell_angle_alpha                90
_cell_angle_beta                 90
_cell_angle_gamma                120
_cell_volume                     3790.01
loop_
_atom_site_label
_atom_site_type_symbol
_atom_site_fract_x
_atom_site_fract_y
_atom_site_fract_z
Co8 Co 0.0000 -0.0000 0.110803(10)
Co8_2 Co 0.0000 1.0000 0.110803(10)
O16 O 0.7976(3) 0.0138(3) 0.09226(3)
Co8_3 Co 1.0000 -0.0000 0.110803(10)
Co1 Co 0.0000 0.0000 0.0000
Co2 Co 0.3333 0.6667 0.055864(10)
O2 O 0.1304(3) 0.4691(3) 0.03548(3)
O3 O 0.3471(3) 0.4643(3) 0.07441(3)
C1 C 0.1167(4) 0.3236(4) 0.02925(5)
H1 H 0.2087 0.2996 0.0335
C2 C 0.2132(5) 0.3333 0.0833
H2 H 0.1026 0.3333 0.0833
O4 O 0.2161(4) 0.2024(3) 0.09226(3)
O7 O 0.2143(4) 0.0083(3) 0.01786(3)
O15 O 0.5357(3) 0.8828(4) 0.07441(3)
C8 C 0.6667 0.8799(5) 0.0833
H8 H 0.6667 0.7693 0.0833
O17 O 0.1172(4) 0.6529(3) 0.07441(3)
C9 C 0.1201(5) 0.7868(5) 0.0833
H9 H 0.2307 0.8974 0.0833
Co8_4 Co 1.0000 1.0000 0.110803(10)
O19 O 0.5309(3) 0.6613(4) 0.03548(3)
O20 O 0.3387(4) 0.8696(3) 0.03548(3)
Co1_2 Co 0.0000 -0.0000 1.0000
O11 O 0.2060(3) 0.2143(4) 0.98214(3)
O12 O 0.4691(3) 0.3387(4) 0.96452(3)
C6 C 0.3236(4) 0.2069(6) 0.97075(5)
H6 H 0.2996 0.0909 0.9665
Co10 Co 0.6667 0.3333 0.944136(10)
Co1_3 Co 0.0000 1.0000 0.0000
C4 C 0.2069(6) 0.8833(4) 0.02925(5)
H4 H 0.0909 0.7913 0.0335
Co1_4 Co -0.0000 1.0000 1.0000
O9 O 0.0083(3) 0.7940(3) 0.98214(3)
Co1_5 Co 1.0000 0.0000 0.0000
O1 O 0.9917(3) 0.2060(3) 0.01786(3)
O18 O 0.9862(3) 0.7839(4) 0.09226(3)
Co1_6 Co 1.0000 -0.0000 1.0000
O14 O 0.6613(4) 0.1304(3) 0.96452(3)
C7 C 0.7931(6) 0.1167(4) 0.97075(5)
H7 H 0.9091 0.2087 0.9665
Co1_7 Co 1.0000 1.0000 0.0000
O5 O 0.7940(3) 0.7857(4) 0.01786(3)
C3 C 0.6764(4) 0.7931(6) 0.02925(5)
H3 H 0.7004 0.9091 0.0335
Co1_8 Co 1.0000 1.0000 1.0000
O10 O 0.8696(3) 0.5309(3) 0.96452(3)
C5 C 0.8833(4) 0.6764(4) 0.97075(5)
H5 H 0.7913 0.7004 0.9665
O13 O 0.7857(4) 0.9917(3) 0.98214(3)
O23 O 0.6529(3) 0.5357(3) 0.92559(3)
O24 O 0.4643(3) 0.1172(4) 0.92559(3)
O25 O 0.8828(4) 0.3471(3) 0.92559(3)
Co8_5 Co -0.0000 0.0000 0.389197(10)
O16_2 O 0.0138(3) 0.7976(3) 0.40774(3)
Co8_6 Co -0.0000 1.0000 0.389197(10)
Co8_7 Co 1.0000 0.0000 0.389197(10)
Co1_9 Co 0.0000 -0.0000 0.5000
Co2_2 Co 0.6667 0.3333 0.444136(10)
O2_2 O 0.4691(3) 0.1304(3) 0.46452(3)
O3_2 O 0.4643(3) 0.3471(3) 0.42559(3)
C1_2 C 0.3236(4) 0.1167(4) 0.47075(5)
H1_2 H 0.2996 0.2087 0.4665
C2_2 C 0.3333 0.2132(5) 0.4167
H2_2 H 0.3333 0.1026 0.4167
O4_2 O 0.2024(3) 0.2161(4) 0.40774(3)
O7_2 O 0.0083(3) 0.2143(4) 0.48214(3)
O11_2 O 0.2143(4) 0.2060(3) 0.51786(3)
O12_2 O 0.3387(4) 0.4691(3) 0.53548(3)
C6_2 C 0.2069(6) 0.3236(4) 0.52925(5)
H6_2 H 0.0909 0.2996 0.5335
O15_2 O 0.8828(4) 0.5357(3) 0.42559(3)
C8_2 C 0.8799(5) 0.6667 0.4167
H8_2 H 0.7693 0.6667 0.4167
O17_2 O 0.6529(3) 0.1172(4) 0.42559(3)
C9_2 C 0.7868(5) 0.1201(5) 0.4167
H9_2 H 0.8974 0.2307 0.4167
Co8_8 Co 1.0000 1.0000 0.389197(10)
Co10_2 Co 0.3333 0.6667 0.555864(10)
O19_2 O 0.6613(4) 0.5309(3) 0.46452(3)
O20_2 O 0.8696(3) 0.3387(4) 0.46452(3)
Co1_10 Co -0.0000 1.0000 0.5000
O1_2 O 0.2060(3) 0.9917(3) 0.48214(3)
O14_2 O 0.1304(3) 0.6613(4) 0.53548(3)
C7_2 C 0.1167(4) 0.7931(6) 0.52925(5)
H7_2 H 0.2087 0.9091 0.5335
O18_2 O 0.7839(4) 0.9862(3) 0.40774(3)
Co1_11 Co 1.0000 -0.0000 0.5000
C4_2 C 0.8833(4) 0.2069(6) 0.47075(5)
H4_2 H 0.7913 0.0909 0.4665
O9_2 O 0.7940(3) 0.0083(3) 0.51786(3)
Co1_12 Co 1.0000 1.0000 0.5000
O5_2 O 0.7857(4) 0.7940(3) 0.48214(3)
C3_2 C 0.7931(6) 0.6764(4) 0.47075(5)
H3_2 H 0.9091 0.7004 0.4665
O10_2 O 0.5309(3) 0.8696(3) 0.53548(3)
C5_2 C 0.6764(4) 0.8833(4) 0.52925(5)
H5_2 H 0.7004 0.7913 0.5335
O13_2 O 0.9917(3) 0.7857(4) 0.51786(3)
O23_2 O 0.5357(3) 0.6529(3) 0.57441(3)
O24_2 O 0.1172(4) 0.4643(3) 0.57441(3)
O25_2 O 0.3471(3) 0.8828(4) 0.57441(3)
O20_3 O 0.0054(4) 0.2029(3) 0.36881(3)
O12_3 O 0.1358(3) 0.6720(4) 0.29785(3)
Co10_3 Co 0.3334 0.6666 0.277469(10)
O19_3 O 0.1976(3) 0.9946(4) 0.36881(3)
Co1_13 Co 0.6667 0.3333 0.3333
O1_3 O 0.6584(3) 0.5393(3) 0.35119(3)
O2_3 O 0.7971(3) 0.8024(3) 0.36881(3)
C1_3 C 0.7834(4) 0.6569(4) 0.36258(5)
H1_3 H 0.8754 0.6329 0.3668
O5_3 O 0.4607(3) 0.1190(4) 0.35119(3)
C3_3 C 0.3431(4) 0.1264(6) 0.36258(5)
H3_3 H 0.3671 0.2424 0.3668
O7_3 O 0.8810(4) 0.3416(3) 0.35119(3)
C4_3 C 0.8736(6) 0.2166(4) 0.36258(5)
H4_3 H 0.7576 0.1246 0.3668
O9_3 O 0.6750(3) 0.1273(3) 0.31547(3)
C5_3 C 0.5500(4) 0.0097(4) 0.30408(5)
H5_3 H 0.4580 0.0337 0.2998
O11_3 O 0.8727(3) 0.5476(4) 0.31547(3)
C6_3 C 0.9903(4) 0.5402(6) 0.30408(5)
H6_3 H 0.9663 0.4242 0.2998
O13_3 O 0.4524(4) 0.3250(3) 0.31547(3)
O14_3 O 0.3280(4) 0.4637(3) 0.29785(3)
C7_3 C 0.4598(6) 0.4500(4) 0.30408(5)
H7_3 H 0.5758 0.5420 0.2998
O10_3 O 0.5363(3) 0.8642(3) 0.29785(3)
O23_3 O 0.3196(3) 0.8690(3) 0.25892(3)
O24_3 O 0.1310(3) 0.4505(4) 0.25892(3)
O25_3 O 0.5495(4) 0.6804(3) 0.25892(3)
C8_3 C 0.5466(5) 0.0000 0.7500
H8_3 H 0.4360 0.0000 0.7500
O16_3 O 0.6804(3) 0.1310(3) 0.74108(3)
Co8_9 Co 0.6666 0.3334 0.722531(10)
Co10_4 Co -0.0000 0.0000 0.889197(10)
Co2_3 Co 0.3334 0.6666 0.777469(10)
O2_4 O 0.1358(3) 0.4637(3) 0.79785(3)
O3_3 O 0.1310(3) 0.6804(3) 0.75892(3)
C2_3 C -0.0000 0.5465(5) 0.7500
H2_3 H -0.0000 0.4359 0.7500
O12_4 O 0.0054(4) 0.8024(3) 0.86881(3)
O15_3 O 0.5495(4) 0.8690(3) 0.75892(3)
C8_4 C 0.5466(5) 1.0000 0.7500
H8_4 H 0.4360 1.0000 0.7500
O17_3 O 0.3196(3) 0.4505(4) 0.75892(3)
C9_3 C 0.4535(5) 0.4534(5) 0.7500
H9_3 H 0.5641 0.5640 0.7500
O18_3 O 0.4505(4) 0.3196(3) 0.74108(3)
Co10_5 Co -0.0000 1.0000 0.889197(10)
O19_4 O 0.3280(4) 0.8642(3) 0.79785(3)
O20_4 O 0.5363(3) 0.6720(4) 0.79785(3)
Co10_6 Co 1.0000 0.0000 0.889197(10)
Co1_14 Co 0.6667 0.3333 0.8333
O1_4 O 0.8727(3) 0.3250(3) 0.81547(3)
C1_4 C 0.9903(4) 0.4500(4) 0.80408(5)
H1_4 H 0.9663 0.5420 0.7998
C2_4 C 1.0000 0.5465(5) 0.7500
H2_4 H 1.0000 0.4359 0.7500
O4_3 O 0.8690(3) 0.5495(4) 0.74108(3)
O5_4 O 0.4524(4) 0.1273(3) 0.81547(3)
C3_4 C 0.4598(6) 0.0097(4) 0.80408(5)
H3_4 H 0.5758 0.0337 0.7998
O7_4 O 0.6750(3) 0.5476(4) 0.81547(3)
C4_4 C 0.5500(4) 0.5402(6) 0.80408(5)
H4_4 H 0.4580 0.4242 0.7998
O9_4 O 0.4607(3) 0.3416(3) 0.85119(3)
O10_4 O 0.1976(3) 0.2029(3) 0.86881(3)
C5_4 C 0.3431(4) 0.2166(4) 0.86258(5)
H5_4 H 0.3671 0.1246 0.8668
O11_4 O 0.8810(4) 0.5393(3) 0.85119(3)
C6_4 C 0.8736(6) 0.6569(4) 0.86258(5)
H6_4 H 0.7576 0.6329 0.8668
O13_4 O 0.6584(3) 0.1190(4) 0.85119(3)
C7_4 C 0.7834(4) 0.1264(6) 0.86258(5)
H7_4 H 0.8754 0.2424 0.8668
Co10_7 Co 1.0000 1.0000 0.889197(10)
O25_4 O 0.0138(3) 0.2161(4) 0.90774(3)
O14_4 O 0.7971(3) 0.9946(4) 0.86881(3)
O23_4 O 0.2024(3) 0.9862(3) 0.90774(3)
O24_4 O 0.7839(4) 0.7976(3) 0.90774(3)
Co10_8 Co 0.0000 -0.0000 0.610803(10)
Co10_9 Co 0.0000 1.0000 0.610803(10)
O2_5 O 0.4637(3) 0.1358(3) 0.70215(3)
O12_5 O 0.8024(3) 0.0054(4) 0.63119(3)
Co10_10 Co 1.0000 -0.0000 0.610803(10)
O19_5 O 0.8642(3) 0.3280(4) 0.70215(3)
O20_5 O 0.6720(4) 0.5363(3) 0.70215(3)
Co1_15 Co 0.3333 0.6667 0.6667
O1_5 O 0.3250(3) 0.8727(3) 0.68453(3)
C1_5 C 0.4500(4) 0.9903(4) 0.69592(5)
H1_5 H 0.5420 0.9663 0.7002
O5_5 O 0.1273(3) 0.4524(4) 0.68453(3)
C3_5 C 0.0097(4) 0.4598(6) 0.69592(5)
H3_5 H 0.0337 0.5758 0.7002
O7_5 O 0.5476(4) 0.6750(3) 0.68453(3)
C4_5 C 0.5402(6) 0.5500(4) 0.69592(5)
H4_5 H 0.4242 0.4580 0.7002
O9_5 O 0.3416(3) 0.4607(3) 0.64881(3)
O10_5 O 0.2029(3) 0.1976(3) 0.63119(3)
C5_5 C 0.2166(4) 0.3431(4) 0.63742(5)
H5_5 H 0.1246 0.3671 0.6332
O11_5 O 0.5393(3) 0.8810(4) 0.64881(3)
C6_5 C 0.6569(4) 0.8736(6) 0.63742(5)
H6_5 H 0.6329 0.7576 0.6332
O13_5 O 0.1190(4) 0.6584(3) 0.64881(3)
C7_5 C 0.1264(6) 0.7834(4) 0.63742(5)
H7_5 H 0.2424 0.8754 0.6332
Co10_11 Co 1.0000 1.0000 0.610803(10)
O25_5 O 0.2161(4) 0.0138(3) 0.59226(3)
O14_5 O 0.9946(4) 0.7971(3) 0.63119(3)
O23_5 O 0.9862(3) 0.2024(3) 0.59226(3)
O24_5 O 0.7976(3) 0.7839(4) 0.59226(3)
O20_6 O 0.2029(3) 0.0054(4) 0.13119(3)
O12_6 O 0.6720(4) 0.1358(3) 0.20215(3)
Co10_12 Co 0.6666 0.3334 0.222531(10)
O19_6 O 0.9946(4) 0.1976(3) 0.13119(3)
Co1_16 Co 0.3333 0.6667 0.1667
O1_6 O 0.5393(3) 0.6584(3) 0.14881(3)
O2_6 O 0.8024(3) 0.7971(3) 0.13119(3)
C1_6 C 0.6569(4) 0.7834(4) 0.13742(5)
H1_6 H 0.6329 0.8754 0.1332
O5_6 O 0.1190(4) 0.4607(3) 0.14881(3)
C3_6 C 0.1264(6) 0.3431(4) 0.13742(5)
H3_6 H 0.2424 0.3671 0.1332
O7_6 O 0.3416(3) 0.8810(4) 0.14881(3)
C4_6 C 0.2166(4) 0.8736(6) 0.13742(5)
H4_6 H 0.1246 0.7576 0.1332
O9_6 O 0.1273(3) 0.6750(3) 0.18453(3)
C5_6 C 0.0097(4) 0.5500(4) 0.19592(5)
H5_6 H 0.0337 0.4580 0.2002
O11_6 O 0.5476(4) 0.8727(3) 0.18453(3)
C6_6 C 0.5402(6) 0.9903(4) 0.19592(5)
H6_6 H 0.4242 0.9663 0.2002
O13_6 O 0.3250(3) 0.4524(4) 0.18453(3)
O14_6 O 0.4637(3) 0.3280(4) 0.20215(3)
C7_6 C 0.4500(4) 0.4598(6) 0.19592(5)
H7_6 H 0.5420 0.5758 0.2002
O10_6 O 0.8642(3) 0.5363(3) 0.20215(3)
O23_6 O 0.8690(3) 0.3196(3) 0.24108(3)
O24_6 O 0.4505(4) 0.1310(3) 0.24108(3)
O25_6 O 0.6804(3) 0.5495(4) 0.24108(3)
C2_5 C 0.7868(5) 0.6667 0.9167
H2_5 H 0.8974 0.6667 0.9167
C8_5 C 0.3333 0.1201(5) 0.9167
H8_5 H 0.3333 0.2307 0.9167
C9_4 C 0.8799(5) 0.2132(5) 0.9167
H9_4 H 0.7693 0.1026 0.9167
C2_6 C 0.6667 0.7868(5) 0.5833
H2_6 H 0.6667 0.8974 0.5833
C8_6 C 0.1201(5) 0.3333 0.5833
H8_6 H 0.2307 0.3333 0.5833
C9_5 C 0.2132(5) 0.8799(5) 0.5833
H9_5 H 0.1026 0.7693 0.5833
C2_7 C 0.0000 0.4535(5) 0.2500
H2_7 H 0.0000 0.5641 0.2500
C2_8 C 1.0000 0.4535(5) 0.2500
H2_8 H 1.0000 0.5641 0.2500
C8_7 C 0.4534(5) -0.0000 0.2500
H8_7 H 0.5640 -0.0000 0.2500
C9_6 C 0.5465(5) 0.5466(5) 0.2500
H9_6 H 0.4359 0.4360 0.2500
C8_8 C 0.4534(5) 1.0000 0.2500
H8_8 H 0.5640 1.0000 0.2500
loop_
_geom_bond_atom_site_label_1
_geom_bond_atom_site_label_2
_geom_bond_site_symmetry_1
_geom_bond_site_symmetry_2
Co8_3 O16 1_555 1_555
Co2 O2 1_555 1_555
O2 C1 1_555 1_555
O3 Co2 1_555 1_555
C1 H1 1_555 1_555
C2 O3 1_555 1_555
H2 C2 1_555 1_555
O4 C2 1_555 1_555
O7 Co1 1_555 1_555
O15 Co2 1_555 1_555
C8 O15 1_555 1_555
H8 C8 1_555 1_555
O17 Co2 1_555 1_555
C9 O17 1_555 1_555
H9 C9 1_555 1_555
Co8 O4 1_555 1_555
O19 Co2 1_555 1_555
O20 Co2 1_555 1_555
O11 Co1_2 1_555 1_555
O12 C6 1_555 1_555
C6 O11 1_555 1_555
H6 C6 1_555 1_555
Co10 O12 1_555 1_555
O20 C4 1_555 1_555
H4 C4 1_555 1_555
O9 Co1_4 1_555 1_555
Co1_5 O1 1_555 1_555
Co8_4 O18 1_555 1_555
O14 C7 1_555 1_555
H7 C7 1_555 1_555
Co10 O14 1_555 1_555
O5 Co1_7 1_555 1_555
O19 C3 1_555 1_555
C3 O5 1_555 1_555
H3 C3 1_555 1_555
Co10 O10 1_555 1_555
O10 C5 1_555 1_555
H5 C5 1_555 1_555
O13 Co1_8 1_555 1_555
O23 Co10 1_555 1_555
O24 Co10 1_555 1_555
O25 Co10 1_555 1_555
Co8_6 O16_2 1_555 1_555
Co2_2 O2_2 1_555 1_555
O2_2 C1_2 1_555 1_555
O3_2 Co2_2 1_555 1_555
C1_2 H1_2 1_555 1_555
C2_2 O3_2 1_555 1_555
H2_2 C2_2 1_555 1_555
O4_2 C2_2 1_555 1_555
O7_2 Co1_9 1_555 1_555
O11_2 Co1_9 1_555 1_555
O12_2 C6_2 1_555 1_555
C6_2 O11_2 1_555 1_555
H6_2 C6_2 1_555 1_555
O15_2 Co2_2 1_555 1_555
C8_2 O15_2 1_555 1_555
H8_2 C8_2 1_555 1_555
O17_2 Co2_2 1_555 1_555
C9_2 O17_2 1_555 1_555
H9_2 C9_2 1_555 1_555
Co8_5 O4_2 1_555 1_555
Co10_2 O12_2 1_555 1_555
O19_2 Co2_2 1_555 1_555
O20_2 Co2_2 1_555 1_555
Co1_10 O1_2 1_555 1_555
O14_2 C7_2 1_555 1_555
H7_2 C7_2 1_555 1_555
Co8_8 O18_2 1_555 1_555
Co10_2 O14_2 1_555 1_555
O20_2 C4_2 1_555 1_555
H4_2 C4_2 1_555 1_555
O9_2 Co1_11 1_555 1_555
O5_2 Co1_12 1_555 1_555
O19_2 C3_2 1_555 1_555
C3_2 O5_2 1_555 1_555
H3_2 C3_2 1_555 1_555
Co10_2 O10_2 1_555 1_555
O10_2 C5_2 1_555 1_555
H5_2 C5_2 1_555 1_555
O13_2 Co1_12 1_555 1_555
O23_2 Co10_2 1_555 1_555
O24_2 Co10_2 1_555 1_555
O25_2 Co10_2 1_555 1_555
O20_3 Co8_5 1_555 1_555
Co10_3 O12_3 1_555 1_555
O19_3 Co8_6 1_555 1_555
Co1_13 O1_3 1_555 1_555
Co8_8 O2_3 1_555 1_555
O1_3 C1_3 1_555 1_555
O2_3 C1_3 1_555 1_555
C1_3 H1_3 1_555 1_555
O5_3 Co1_13 1_555 1_555
C3_3 O5_3 1_555 1_555
H3_3 C3_3 1_555 1_555
O7_3 Co1_13 1_555 1_555
C4_3 O7_3 1_555 1_555
H4_3 C4_3 1_555 1_555
O9_3 Co1_13 1_555 1_555
C5_3 O9_3 1_555 1_555
H5_3 C5_3 1_555 1_555
O11_3 Co1_13 1_555 1_555
C6_3 O11_3 1_555 1_555
H6_3 C6_3 1_555 1_555
O13_3 Co1_13 1_555 1_555
O14_3 C7_3 1_555 1_555
C7_3 O13_3 1_555 1_555
H7_3 C7_3 1_555 1_555
Co10_3 O14_3 1_555 1_555
Co10_3 O10_3 1_555 1_555
O23_3 Co10_3 1_555 1_555
O24_3 Co10_3 1_555 1_555
O25_3 Co10_3 1_555 1_555
H8_3 C8_3 1_555 1_555
O16_3 C8_3 1_555 1_555
Co8_9 O16_3 1_555 1_555
Co2_3 O2_4 1_555 1_555
O3_3 Co2_3 1_555 1_555
C2_3 O3_3 1_555 1_555
H2_3 C2_3 1_555 1_555
O15_3 Co2_3 1_555 1_555
C8_4 O15_3 1_555 1_555
H8_4 C8_4 1_555 1_555
O17_3 Co2_3 1_555 1_555
C9_3 O17_3 1_555 1_555
H9_3 C9_3 1_555 1_555
O18_3 C9_3 1_555 1_555
Co8_9 O18_3 1_555 1_555
Co10_5 O12_4 1_555 1_555
O19_4 Co2_3 1_555 1_555
O20_4 Co2_3 1_555 1_555
Co1_14 O1_4 1_555 1_555
O1_4 C1_4 1_555 1_555
C1_4 H1_4 1_555 1_555
H2_4 C2_4 1_555 1_555
O4_3 C2_4 1_555 1_555
O5_4 Co1_14 1_555 1_555
C3_4 O5_4 1_555 1_555
H3_4 C3_4 1_555 1_555
O7_4 Co1_14 1_555 1_555
O20_4 C4_4 1_555 1_555
C4_4 O7_4 1_555 1_555
H4_4 C4_4 1_555 1_555
Co10_4 O10_4 1_555 1_555
O9_4 Co1_14 1_555 1_555
O10_4 C5_4 1_555 1_555
C5_4 O9_4 1_555 1_555
H5_4 C5_4 1_555 1_555
O11_4 Co1_14 1_555 1_555
C6_4 O11_4 1_555 1_555
H6_4 C6_4 1_555 1_555
O13_4 Co1_14 1_555 1_555
C7_4 O13_4 1_555 1_555
H7_4 C7_4 1_555 1_555
Co8_9 O4_3 1_555 1_555
O25_4 Co10_4 1_555 1_555
Co10_7 O14_4 1_555 1_555
O23_4 Co10_5 1_555 1_555
O24_4 Co10_7 1_555 1_555
Co8_9 O2_5 1_555 1_555
Co10_10 O12_5 1_555 1_555
O19_5 Co8_9 1_555 1_555
O20_5 Co8_9 1_555 1_555
Co1_15 O1_5 1_555 1_555
O1_5 C1_5 1_555 1_555
C1_5 H1_5 1_555 1_555
O5_5 Co1_15 1_555 1_555
C3_5 O5_5 1_555 1_555
H3_5 C3_5 1_555 1_555
O7_5 Co1_15 1_555 1_555
O20_5 C4_5 1_555 1_555
C4_5 O7_5 1_555 1_555
H4_5 C4_5 1_555 1_555
Co10_8 O10_5 1_555 1_555
O9_5 Co1_15 1_555 1_555
O10_5 C5_5 1_555 1_555
C5_5 O9_5 1_555 1_555
H5_5 C5_5 1_555 1_555
O11_5 Co1_15 1_555 1_555
C6_5 O11_5 1_555 1_555
H6_5 C6_5 1_555 1_555
O13_5 Co1_15 1_555 1_555
C7_5 O13_5 1_555 1_555
H7_5 C7_5 1_555 1_555
O25_5 Co10_8 1_555 1_555
Co10_11 O14_5 1_555 1_555
O23_5 Co10_10 1_555 1_555
O24_5 Co10_11 1_555 1_555
O20_6 Co8 1_555 1_555
Co10_12 O12_6 1_555 1_555
O19_6 Co8_3 1_555 1_555
Co1_16 O1_6 1_555 1_555
Co8_4 O2_6 1_555 1_555
O1_6 C1_6 1_555 1_555
O2_6 C1_6 1_555 1_555
C1_6 H1_6 1_555 1_555
O5_6 Co1_16 1_555 1_555
C3_6 O5_6 1_555 1_555
H3_6 C3_6 1_555 1_555
O7_6 Co1_16 1_555 1_555
C4_6 O7_6 1_555 1_555
H4_6 C4_6 1_555 1_555
O9_6 Co1_16 1_555 1_555
C5_6 O9_6 1_555 1_555
H5_6 C5_6 1_555 1_555
O11_6 Co1_16 1_555 1_555
C6_6 O11_6 1_555 1_555
H6_6 C6_6 1_555 1_555
O13_6 Co1_16 1_555 1_555
O14_6 C7_6 1_555 1_555
C7_6 O13_6 1_555 1_555
H7_6 C7_6 1_555 1_555
Co10_12 O14_6 1_555 1_555
Co10_12 O10_6 1_555 1_555
O23_6 Co10_12 1_555 1_555
O24_6 Co10_12 1_555 1_555
O25_6 Co10_12 1_555 1_555
C2_5 O23 1_555 1_555
H2_5 C2_5 1_555 1_555
O24_4 C2_5 1_555 1_555
C8_5 O24 1_555 1_555
H8_5 C8_5 1_555 1_555
C9_4 O25 1_555 1_555
H9_4 C9_4 1_555 1_555
C2_6 O23_2 1_555 1_555
H2_6 C2_6 1_555 1_555
O24_5 C2_6 1_555 1_555
C8_6 O24_2 1_555 1_555
H8_6 C8_6 1_555 1_555
C9_5 O25_2 1_555 1_555
H9_5 C9_5 1_555 1_555
H2_7 C2_7 1_555 1_555
O24_3 C2_7 1_555 1_555
C2_8 O23_6 1_555 1_555
H2_8 C2_8 1_555 1_555
C8_7 O24_6 1_555 1_555
H8_7 C8_7 1_555 1_555
C9_6 O25_6 1_555 1_555
H9_6 C9_6 1_555 1_555
O25_3 C9_6 1_555 1_555
H8_8 C8_8 1_555 1_555
O23_3 C8_8 1_555 1_555

#END
