
###############################################################################
#
# This file contains modified crystal structure data generated from the
# MOF subset of the Cambridge Structural Database (CSD) v543 
# hosted by the Cambridge Crystallographic Data Centre (CCDC).
#
# This work is licensed under the Creative Commons
# Attribution-NonCommercial-ShareAlike 4.0 International License.
# To view a copy of this license, visit
# http://creativecommons.org/licenses/by-nc-sa/4.0/
# or send a letter to
# Creative Commons, PO Box 1866, Mountain View, CA 94042, USA.
#
# CIF created using the CSD Python API on 29 September 2022
# The structure has been converted into the P1 space group
# The structure has a 3D framework
# The original CSD entry IGOPEB is in the trigonal crystal system
# The framework has been calculated to contain at least 10.0% void space
# The void calculation uses a probe of radius 1.32A, grid spacing 0.4
# The framework is charged, counterions have been retained in the structure
#
###############################################################################

data_IGOPEB
_chemical_formula_moiety         '(C24 H24 Co21 O46 8-)n'
_symmetry_cell_setting           triclinic
_symmetry_space_group_name_H-M   'P 1'
_symmetry_Int_Tables_number      1
_space_group_name_Hall           'P 1'
loop_
_symmetry_equiv_pos_site_id
_symmetry_equiv_pos_as_xyz
1 x,y,z
_cell_length_a                   8.36165(10)
_cell_length_b                   8.36165(10)
_cell_length_c                   28.3983(5)
_cell_angle_alpha                90
_cell_angle_beta                 90
_cell_angle_gamma                120
_cell_volume                     1719.52
loop_
_atom_site_label
_atom_site_type_symbol
_atom_site_fract_x
_atom_site_fract_y
_atom_site_fract_z
Co1 Co 0.0000 0.0000 0.0000
Co2 Co 0.6667 0.3333 0.126331(14)
Co3 Co 0.0000 0.0000 0.2500
O2 O 0.4682(2) 0.13280(19) 0.08083(5)
O3 O 0.4596(2) 0.3416(2) 0.16578(5)
O4 O 0.20323(19) 0.21095(19) 0.20773(5)
C1 C 0.3192(3) 0.1149(3) 0.06732(7)
H1 H 0.2857 0.1970 0.0797
C2 C 0.3378(3) 0.2135(3) 0.18925(6)
H2 H 0.3491 0.1093 0.1933
O5 O 0.00048(19) 0.21181(27) 0.03927(4)
O16 O 0.00772(27) 0.21095(19) 0.29227(5)
Co4 Co 0.6667 0.3333 0.373669(14)
O17 O 0.21133(19) 0.21181(27) 0.46073(4)
O18 O 0.4682(2) 0.33540(28) 0.41917(5)
O19 O 0.4596(2) 0.1180(3) 0.33422(5)
C9 C 0.3192(3) 0.2043(4) 0.43268(7)
H9 H 0.2857 0.0887 0.4203
C10 C 0.3378(3) 0.1243(4) 0.31075(6)
H10 H 0.3491 0.2398 0.3067
Co5 Co 0.0000 0.0000 0.5000
O26 O 0.86720(19) 0.33540(28) 0.08083(5)
O27 O 0.66460(28) 0.5318(2) 0.08083(5)
O28 O 0.86720(19) 0.5318(2) 0.41917(5)
O29 O 0.66460(28) 0.13280(19) 0.41917(5)
O30 O 0.6584(2) 0.1180(3) 0.16578(5)
O31 O 0.8820(3) 0.5404(2) 0.16578(5)
O32 O 0.6584(2) 0.5404(2) 0.33422(5)
O33 O 0.8820(3) 0.3416(2) 0.33422(5)
Co1_2 Co 0.0000 0.0000 1.0000
O25 O 0.21181(27) 0.21133(19) 0.96073(4)
Co1_3 Co 0.0000 1.0000 0.0000
Co3_2 Co 0.0000 1.0000 0.2500
O1 O 0.21133(19) 0.99952(19) 0.03927(4)
O12 O 0.00772(27) 0.79677(19) 0.20773(5)
O20 O 0.20323(19) 0.99228(27) 0.29227(5)
Co5_2 Co 0.0000 1.0000 0.5000
Co1_4 Co -0.0000 1.0000 1.0000
O24 O 0.13280(19) 0.66460(28) 0.91917(5)
C12 C 0.1149(3) 0.7957(4) 0.93268(7)
H12 H 0.1970 0.9113 0.9203
Co11 Co 0.3333 0.6667 0.873669(14)
Co1_5 Co 1.0000 0.0000 0.0000
Co3_3 Co 1.0000 0.0000 0.2500
C3 C 0.8851(3) 0.2043(4) 0.06732(7)
H3 H 0.8030 0.0887 0.0797
C4 C 0.7865(3) 0.1243(4) 0.18925(6)
H4 H 0.8907 0.2398 0.1933
C8 C 0.8757(4) 0.2135(3) 0.31075(6)
H8 H 0.7602 0.1093 0.3067
Co5_3 Co 1.0000 0.0000 0.5000
Co1_6 Co 1.0000 0.0000 1.0000
O21 O 0.78867(19) 0.00048(19) 0.96073(4)
Co1_7 Co 1.0000 1.0000 0.0000
Co3_4 Co 1.0000 1.0000 0.2500
O8 O 0.78905(19) 0.99228(27) 0.20773(5)
O9 O 0.78819(27) 0.78867(19) 0.03927(4)
C5 C 0.7957(4) 0.6808(3) 0.06732(7)
H5 H 0.9113 0.7143 0.0797
C6 C 0.8757(4) 0.6622(3) 0.18925(6)
H6 H 0.7602 0.6509 0.1933
O14 O 0.78905(19) 0.79677(19) 0.29227(5)
C7 C 0.7865(3) 0.6622(3) 0.31075(6)
H7 H 0.8907 0.6509 0.3067
Co5_4 Co 1.0000 1.0000 0.5000
Co1_8 Co 1.0000 1.0000 1.0000
O22 O 0.5318(2) 0.86720(19) 0.91917(5)
C11 C 0.6808(3) 0.8851(3) 0.93268(7)
H11 H 0.7143 0.8030 0.9203
O23 O 0.99952(19) 0.78819(27) 0.96073(4)
O24_2 O 0.33540(28) 0.46820(34) 0.91917(5)
C12_2 C 0.2043(4) 0.3192(5) 0.93268(7)
H12_2 H 0.0887 0.2857 0.9203
C9_2 C 0.7957(4) 0.1149(5) 0.43268(7)
H9_2 H 0.9113 0.1970 0.4203
O17_2 O 0.78819(27) 0.99952(33) 0.46073(4)
O17_3 O 0.00048(33) 0.78867(19) 0.46073(4)
C9_3 C 0.8851(5) 0.6808(3) 0.43268(7)
H9_3 H 0.8030 0.7143 0.4203
O22_2 O 0.13280(19) 0.4682(2) 0.58083(5)
C11_2 C 0.1149(3) 0.3192(3) 0.56732(7)
H11_2 H 0.1970 0.2857 0.5797
O23_2 O 0.21181(27) 0.00048(19) 0.53927(4)
Co10 Co 0.3333 0.6667 0.626331(14)
O24_3 O 0.33540(28) 0.86720(19) 0.58083(5)
C12_3 C 0.2043(4) 0.8851(3) 0.56732(7)
H12_3 H 0.0887 0.8030 0.5797
O21_2 O 0.99952(19) 0.21133(19) 0.53927(4)
O25_2 O 0.78867(19) 0.78819(27) 0.53927(4)
O24_4 O 0.53180(34) 0.66460(28) 0.58083(5)
C12_4 C 0.6808(5) 0.7957(4) 0.56732(7)
H12_4 H 0.7143 0.9113 0.5797
Co3_5 Co 0.0000 0.0000 0.7500
O8_2 O 0.21095(19) 0.00772(27) 0.79227(5)
O11 O 0.1180(3) 0.4596(2) 0.83422(5)
C6_2 C 0.1243(4) 0.3378(3) 0.81075(6)
H6_2 H 0.2398 0.3491 0.8067
O13 O 0.3416(2) 0.4596(2) 0.66578(5)
O14_2 O 0.21095(19) 0.20323(19) 0.70773(5)
C7_2 C 0.2135(3) 0.3378(3) 0.68925(6)
H7_2 H 0.1093 0.3491 0.6933
Co3_6 Co 0.0000 1.0000 0.7500
O7 O 0.3416(2) 0.8820(3) 0.83422(5)
C4_2 C 0.2135(3) 0.8757(4) 0.81075(6)
H4_2 H 0.1093 0.7602 0.8067
O15 O 0.1180(3) 0.6584(2) 0.66578(5)
C8_2 C 0.1243(4) 0.7865(3) 0.68925(6)
H8_2 H 0.2398 0.8907 0.6933
Co3_7 Co 1.0000 0.0000 0.7500
O12_2 O 0.99228(27) 0.20323(19) 0.79227(5)
O20_2 O 0.79677(19) 0.00772(27) 0.70773(5)
Co3_8 Co 1.0000 1.0000 0.7500
O3_2 O 0.5404(2) 0.6584(2) 0.83422(5)
O4_2 O 0.79677(19) 0.78905(19) 0.79227(5)
C2_2 C 0.6622(3) 0.7865(3) 0.81075(6)
H2_2 H 0.6509 0.8907 0.8067
O16_2 O 0.99228(27) 0.78905(19) 0.70773(5)
O19_2 O 0.5404(2) 0.8820(3) 0.66578(5)
C10_2 C 0.6622(3) 0.8757(4) 0.68925(6)
H10_2 H 0.6509 0.7602 0.6933
loop_
_geom_bond_atom_site_label_1
_geom_bond_atom_site_label_2
_geom_bond_site_symmetry_1
_geom_bond_site_symmetry_2
Co2 O2 1_555 1_555
Co3 O4 1_555 1_555
O2 C1 1_555 1_555
O3 Co2 1_555 1_555
O4 C2 1_555 1_555
C1 H1 1_555 1_555
C2 O3 1_555 1_555
H2 C2 1_555 1_555
O5 Co1 1_555 1_555
O16 Co3 1_555 1_555
Co4 O18 1_555 1_555
O17 C9 1_555 1_555
O18 C9 1_555 1_555
O19 Co4 1_555 1_555
C9 H9 1_555 1_555
C10 O19 1_555 1_555
H10 C10 1_555 1_555
Co5 O17 1_555 1_555
O26 Co2 1_555 1_555
O27 Co2 1_555 1_555
O28 Co4 1_555 1_555
O29 Co4 1_555 1_555
O30 Co2 1_555 1_555
O31 Co2 1_555 1_555
O32 Co4 1_555 1_555
O33 Co4 1_555 1_555
O25 Co1_2 1_555 1_555
Co1_3 O1 1_555 1_555
O12 Co3_2 1_555 1_555
O20 Co3_2 1_555 1_555
O24 C12 1_555 1_555
H12 C12 1_555 1_555
Co11 O24 1_555 1_555
O26 C3 1_555 1_555
O30 C4 1_555 1_555
H3 C3 1_555 1_555
H4 C4 1_555 1_555
O33 C8 1_555 1_555
H8 C8 1_555 1_555
O21 Co1_6 1_555 1_555
O8 Co3_4 1_555 1_555
O9 Co1_7 1_555 1_555
O27 C5 1_555 1_555
O31 C6 1_555 1_555
C5 O9 1_555 1_555
H5 C5 1_555 1_555
H6 C6 1_555 1_555
O32 C7 1_555 1_555
O14 Co3_4 1_555 1_555
C7 O14 1_555 1_555
H7 C7 1_555 1_555
O22 C11 1_555 1_555
H11 C11 1_555 1_555
O23 Co1_8 1_555 1_555
Co11 O22 1_555 1_555
O24_2 C12_2 1_555 1_555
C12_2 O25 1_555 1_555
H12_2 C12_2 1_555 1_555
Co11 O24_2 1_555 1_555
O29 C9_2 1_555 1_555
C9_2 H9_2 1_555 1_555
Co5_4 O17_2 1_555 1_555
Co5_2 O17_3 1_555 1_555
O28 C9_3 1_555 1_555
C9_3 H9_3 1_555 1_555
O22_2 C11_2 1_555 1_555
H11_2 C11_2 1_555 1_555
O23_2 Co5 1_555 1_555
Co10 O22_2 1_555 1_555
O24_3 C12_3 1_555 1_555
H12_3 C12_3 1_555 1_555
Co10 O24_3 1_555 1_555
O21_2 Co5_3 1_555 1_555
O25_2 Co5_4 1_555 1_555
O24_4 C12_4 1_555 1_555
C12_4 O25_2 1_555 1_555
H12_4 C12_4 1_555 1_555
Co10 O24_4 1_555 1_555
O8_2 Co3_5 1_555 1_555
O11 C6_2 1_555 1_555
H6_2 C6_2 1_555 1_555
O13 C7_2 1_555 1_555
O14_2 Co3_5 1_555 1_555
C7_2 O14_2 1_555 1_555
H7_2 C7_2 1_555 1_555
Co10 O13 1_555 1_555
O11 Co11 1_555 1_555
O7 C4_2 1_555 1_555
H4_2 C4_2 1_555 1_555
O15 C8_2 1_555 1_555
H8_2 C8_2 1_555 1_555
Co10 O15 1_555 1_555
O7 Co11 1_555 1_555
O12_2 Co3_7 1_555 1_555
O20_2 Co3_7 1_555 1_555
Co3_8 O4_2 1_555 1_555
O3_2 Co11 1_555 1_555
O4_2 C2_2 1_555 1_555
C2_2 O3_2 1_555 1_555
H2_2 C2_2 1_555 1_555
O16_2 Co3_8 1_555 1_555
O19_2 Co10 1_555 1_555
C10_2 O19_2 1_555 1_555
H10_2 C10_2 1_555 1_555

#END
