
###############################################################################
#
# This file contains modified crystal structure data generated from the
# MOF subset of the Cambridge Structural Database (CSD) v543 
# hosted by the Cambridge Crystallographic Data Centre (CCDC).
#
# This work is licensed under the Creative Commons
# Attribution-NonCommercial-ShareAlike 4.0 International License.
# To view a copy of this license, visit
# http://creativecommons.org/licenses/by-nc-sa/4.0/
# or send a letter to
# Creative Commons, PO Box 1866, Mountain View, CA 94042, USA.
#
# CIF created using the CSD Python API on 29 September 2022
# The structure has been converted into the P1 space group
# The structure has a 3D framework
# The original CSD entry IGUCIY is in the monoclinic crystal system
# The framework has been calculated to contain at least 10.0% void space
# The void calculation uses a probe of radius 1.32A, grid spacing 0.4
#
###############################################################################

data_IGUCIY
_chemical_formula_moiety         '(C132 H140 N88 Sm12)n'
_symmetry_cell_setting           triclinic
_symmetry_space_group_name_H-M   'P 1'
_symmetry_Int_Tables_number      1
_space_group_name_Hall           'P 1'
loop_
_symmetry_equiv_pos_site_id
_symmetry_equiv_pos_as_xyz
1 x,y,z
_cell_length_a                   13.014(3)
_cell_length_b                   23.695(5)
_cell_length_c                   16.214(3)
_cell_angle_alpha                90
_cell_angle_beta                 107.04(3)
_cell_angle_gamma                90
_cell_volume                     4780.37
loop_
_atom_site_label
_atom_site_type_symbol
_atom_site_fract_x
_atom_site_fract_y
_atom_site_fract_z
N6 N 0.1214(5) 0.3414(3) 0.8176(5)
C7 C 0.0348(12) 0.3280(3) 0.7522(12)
H9 H 0.0383 0.3055 0.7045
C9 C 0.0798(7) 0.3712(5) 0.8720(6)
H11 H 0.1208 0.3859 0.9261
Sm5 Sm 0.31176(2) 0.32612(3) 0.82740(2)
Sm1 Sm 0.75230(2) 0.32792(3) 0.67742(2)
Sm3 Sm 0.52649(6) 0.578739(13) 0.75290(6)
N1 N 0.6437(6) 0.3167(3) 0.7803(5)
N2 N 0.5025(6) 0.3113(3) 0.8324(5)
N3 N 0.8349(5) 0.2903(3) 0.5669(4)
N4 N 0.8493(5) 0.2427(3) 0.4496(4)
N5 N 0.9423(5) 0.3493(3) 0.7602(5)
N7 N 0.7417(8) 0.4244(4) 0.7366(7)
N8 N 0.6645(8) 0.5055(5) 0.7585(7)
N9 N 0.6731(7) 0.3906(4) 0.5486(7)
N10 N 0.5981(8) 0.4172(5) 0.4112(7)
N11 N 0.5920(6) 0.2690(3) 0.5863(5)
N12 N 0.4847(9) 0.1962(5) 0.5380(8)
H1 H 0.4550 0.1625 0.5336
N13 N 0.3175(8) 0.4259(4) 0.7829(7)
N14 N 0.3921(8) 0.5084(4) 0.7626(7)
N15 N 0.2442(8) 0.2339(4) 0.7552(7)
N16 N 0.1426(7) 0.1550(4) 0.7311(7)
N17 N 0.2878(7) 0.3367(3) 0.6609(5)
N18 N 0.2042(8) 0.3493(6) 0.5236(6)
H2 H 0.1549 0.3454 0.4735
N19 N 0.4002(7) 0.6510(4) 0.7693(7)
N20 N 0.3082(8) 0.7325(4) 0.7440(7)
N21 N 0.4444(8) 0.5805(4) 0.5979(8)
N22 N 0.3619(7) 0.6138(4) 0.4630(6)
C1 C 0.5386(9) 0.3054(3) 0.7654(8)
H3 H 0.4938 0.2940 0.7105
C2 C 0.6772(7) 0.3287(4) 0.8658(6)
H4 H 0.7488 0.3377 0.8979
C3 C 0.5923(7) 0.3258(4) 0.8984(6)
H5 H 0.5946 0.3326 0.9566
C4 C 0.8022(7) 0.2470(5) 0.5134(6)
H6 H 0.7495 0.2209 0.5196
C5 C 0.9095(7) 0.3173(4) 0.5337(6)
H7 H 0.9482 0.3506 0.5562
C6 C 0.9174(7) 0.2881(4) 0.4639(6)
H8 H 0.9632 0.2977 0.4300
C8 C 0.9725(7) 0.3771(4) 0.8388(6)
H10 H 0.9262 0.3967 0.8646
C10 C 0.6599(7) 0.4486(4) 0.7575(6)
H12 H 0.6041 0.4278 0.7704
C11 C 0.8024(8) 0.4695(4) 0.7226(7)
H13 H 0.8664 0.4669 0.7060
C12 C 0.7550(9) 0.5180(5) 0.7365(8)
H14 H 0.7809 0.5550 0.7316
C13 C 0.6696(8) 0.3848(4) 0.4653(7)
H15 H 0.7149 0.3595 0.4468
C14 C 0.5948(7) 0.4307(4) 0.5459(6)
H16 H 0.5754 0.4450 0.5940
C15 C 0.5505(7) 0.4461(4) 0.4622(6)
H17 H 0.4947 0.4730 0.4425
C16 C 0.5711(8) 0.2150(4) 0.5998(7)
H18 H 0.6121 0.1929 0.6469
C17 C 0.5153(8) 0.2842(5) 0.5135(7)
H19 H 0.5085 0.3208 0.4885
C18 C 0.4526(10) 0.2423(5) 0.4824(8)
H20 H 0.3946 0.2426 0.4306
C19 C 0.4043(8) 0.4574(4) 0.7979(6)
H21 H 0.4724 0.4443 0.8323
C20 C 0.2380(8) 0.4599(4) 0.7318(7)
H22 H 0.1644 0.4499 0.7087
C21 C 0.2825(9) 0.5099(4) 0.7201(8)
H23 H 0.2448 0.5409 0.6880
C22 C 0.1737(10) 0.2011(5) 0.7792(9)
H24 H 0.1481 0.2100 0.8268
C23 C 0.2586(9) 0.2064(5) 0.6850(8)
H25 H 0.3038 0.2187 0.6520
C24 C 0.1984(9) 0.1589(5) 0.6702(8)
H26 H 0.1947 0.1325 0.6253
C25 C 0.2022(9) 0.3262(5) 0.5985(8)
H27 H 0.1439 0.3044 0.6051
C26 C 0.3480(10) 0.3722(5) 0.6237(7)
H28 H 0.4153 0.3885 0.6536
C27 C 0.2969(10) 0.3799(6) 0.5395(7)
H29 H 0.3202 0.4020 0.4994
C28 C 0.3849(9) 0.7012(5) 0.7295(8)
H30 H 0.4264 0.7134 0.6935
C29 C 0.3241(9) 0.6504(5) 0.8130(7)
H31 H 0.3124 0.6203 0.8479
C30 C 0.2691(8) 0.6993(5) 0.7985(7)
H32 H 0.2126 0.7095 0.8219
C31 C 0.4296(8) 0.6242(4) 0.5402(7)
H33 H 0.4653 0.6595 0.5545
C32 C 0.3812(8) 0.5391(4) 0.5516(6)
H34 H 0.382(7) 0.498(4) 0.576(6)
C33 C 0.3303(7) 0.5586(4) 0.4717(6)
H35 H 0.2804 0.5376 0.4279
Sm4 Sm 0.25230(2) 0.82792(3) 0.67742(2)
Sm6 Sm 0.31176(2) 0.67388(3) 0.32740(2)
Sm7 Sm 0.81176(2) 0.17388(3) 0.32740(2)
Sm8 Sm 0.52649(6) 0.421261(13) 0.25290(6)
Sm9 Sm 0.02649(6) 0.078739(13) 0.75290(6)
N23 N 0.3493(5) 0.2573(3) 0.9496(4)
N25 N 0.5981(8) 0.5828(5) 0.9112(7)
N26 N 0.6426(7) 0.6550(4) 0.7311(7)
N27 N 0.8082(8) 0.2325(4) 0.7440(7)
N28 N 0.3619(7) 0.3862(4) 0.9630(6)
N6_2 N 0.1214(5) 0.6586(3) 0.3176(5)
C7_2 C 0.0348(12) 0.6720(3) 0.2522(12)
H9_2 H 0.0383 0.6945 0.2045
C9_2 C 0.0798(7) 0.6288(5) 0.3720(6)
H11_2 H 0.1208 0.6141 0.4261
Sm1_2 Sm 0.75230(2) 0.67208(3) 0.17742(2)
N1_2 N 0.6437(6) 0.6833(3) 0.2803(5)
N2_2 N 0.5025(6) 0.6887(3) 0.3324(5)
N3_2 N 0.8349(5) 0.7097(3) 0.0669(4)
N5_2 N 0.9423(5) 0.6507(3) 0.2602(5)
N7_2 N 0.7417(8) 0.5756(4) 0.2366(7)
N8_2 N 0.6645(8) 0.4945(5) 0.2585(7)
N9_2 N 0.6731(7) 0.6094(4) 0.0486(7)
N11_2 N 0.5920(6) 0.7310(3) 0.0863(5)
N12_2 N 0.4847(9) 0.8038(5) 0.0380(8)
H1_2 H 0.4550 0.8375 0.0336
N13_2 N 0.3175(8) 0.5741(4) 0.2829(7)
N14_2 N 0.3921(8) 0.4916(4) 0.2626(7)
N15_2 N 0.2442(8) 0.7661(4) 0.2552(7)
N16_2 N 0.1426(7) 0.8450(4) 0.2311(7)
N17_2 N 0.2878(7) 0.6633(3) 0.1609(5)
N18_2 N 0.2042(8) 0.6507(6) 0.0236(6)
N19_2 N 0.4002(7) 0.3490(4) 0.2693(7)
N20_2 N 0.3082(8) 0.2675(4) 0.2440(7)
N21_2 N 0.4444(8) 0.4195(4) 0.0979(8)
C1_2 C 0.5386(9) 0.6946(3) 0.2654(8)
H3_2 H 0.4938 0.7060 0.2105
C2_2 C 0.6772(7) 0.6713(4) 0.3658(6)
H4_2 H 0.7488 0.6623 0.3979
C3_2 C 0.5923(7) 0.6742(4) 0.3984(6)
H5_2 H 0.5946 0.6674 0.4566
C4_2 C 0.8022(7) 0.7530(5) 0.0134(6)
H6_2 H 0.7495 0.7791 0.0196
C5_2 C 0.9095(7) 0.6827(4) 0.0337(6)
H7_2 H 0.9482 0.6494 0.0562
C8_2 C 0.9725(7) 0.6229(4) 0.3388(6)
H10_2 H 0.9262 0.6033 0.3646
C10_2 C 0.6599(7) 0.5514(4) 0.2575(6)
H12_2 H 0.6041 0.5722 0.2704
C11_2 C 0.8024(8) 0.5305(4) 0.2226(7)
H13_2 H 0.8664 0.5331 0.2060
C12_2 C 0.7550(9) 0.4820(5) 0.2365(8)
H14_2 H 0.7809 0.4450 0.2316
C14_2 C 0.5948(7) 0.5693(4) 0.0459(6)
H16_2 H 0.5754 0.5550 0.0940
C16_2 C 0.5711(8) 0.7850(4) 0.0998(7)
H18_2 H 0.6121 0.8071 0.1469
C17_2 C 0.5153(8) 0.7158(5) 0.0135(7)
C19_2 C 0.4043(8) 0.5426(4) 0.2979(6)
H21_2 H 0.4724 0.5557 0.3323
C20_2 C 0.2380(8) 0.5401(4) 0.2318(7)
H22_2 H 0.1644 0.5501 0.2087
C21_2 C 0.2825(9) 0.4901(4) 0.2201(8)
H23_2 H 0.2448 0.4591 0.1880
C22_2 C 0.1737(10) 0.7989(5) 0.2792(9)
H24_2 H 0.1481 0.7900 0.3268
C23_2 C 0.2586(9) 0.7936(5) 0.1850(8)
H25_2 H 0.3038 0.7813 0.1520
C24_2 C 0.1984(9) 0.8411(5) 0.1702(8)
H26_2 H 0.1947 0.8675 0.1253
C25_2 C 0.2022(9) 0.6738(5) 0.0985(8)
H27_2 H 0.1439 0.6956 0.1051
C26_2 C 0.3480(10) 0.6278(5) 0.1237(7)
H28_2 H 0.4153 0.6115 0.1536
C27_2 C 0.2969(10) 0.6201(6) 0.0395(7)
C28_2 C 0.3849(9) 0.2988(5) 0.2295(8)
H30_2 H 0.4264 0.2866 0.1935
C29_2 C 0.3241(9) 0.3496(5) 0.3130(7)
H31_2 H 0.3124 0.3797 0.3479
C30_2 C 0.2691(8) 0.3007(5) 0.2985(7)
H32_2 H 0.2126 0.2905 0.3219
C31_2 C 0.4296(8) 0.3758(4) 0.0402(7)
H33_2 H 0.4653 0.3405 0.0545
C32_2 C 0.3812(8) 0.4609(4) 0.0516(6)
H34_2 H 0.382(7) 0.502(4) 0.076(6)
Sm4_2 Sm 0.25230(2) 0.17208(3) 0.17742(2)
Sm9_2 Sm 0.02649(6) 0.921261(13) 0.25290(6)
N23_2 N 0.3493(5) 0.7427(3) 0.4496(4)
N26_2 N 0.6426(7) 0.3450(4) 0.2311(7)
N27_2 N 0.8082(8) 0.7675(4) 0.2440(7)
N4_2 N 0.8493(5) 0.7573(3) 0.9496(4)
H2_2 H 0.1549 0.6546 0.9735
C6_2 C 0.9174(7) 0.7119(4) 0.9639(6)
H8_2 H 0.9632 0.7023 0.9300
C13_2 C 0.6696(8) 0.6152(4) 0.9653(7)
H15_2 H 0.7149 0.6405 0.9468
C15_2 C 0.5505(7) 0.5539(4) 0.9622(6)
H17_2 H 0.4947 0.5270 0.9425
H19_2 H 0.5085 0.6792 0.9885
C18_2 C 0.4526(10) 0.7577(5) 0.9824(8)
H20_2 H 0.3946 0.7574 0.9306
H29_2 H 0.3202 0.5980 0.9994
C33_2 C 0.3303(7) 0.4414(4) 0.9717(6)
H35_2 H 0.2804 0.4624 0.9279
Sm7_2 Sm 0.81176(2) 0.82612(3) 0.82740(2)
N8_3 N 0.1645(8) 0.0055(5) 0.7585(7)
C12_3 C 0.2550(9) 0.0180(5) 0.7365(8)
H14_3 H 0.2809 0.0550 0.7316
N25_2 N 0.0981(8) 0.0828(5) 0.9112(7)
N1_3 N 0.1437(6) 0.8167(3) 0.7803(5)
N2_3 N 0.0025(6) 0.8113(3) 0.8324(5)
N3_3 N 0.3349(5) 0.7903(3) 0.5669(4)
N5_3 N 0.4423(5) 0.8493(3) 0.7602(5)
N6_3 N 0.6214(5) 0.8414(3) 0.8176(5)
N7_3 N 0.2417(8) 0.9244(4) 0.7366(7)
N9_3 N 0.1731(7) 0.8906(4) 0.5486(7)
N10_2 N 0.0981(8) 0.9172(5) 0.4112(7)
N11_3 N 0.0920(6) 0.7690(3) 0.5863(5)
C1_3 C 0.0386(9) 0.8054(3) 0.7654(8)
C2_3 C 0.1772(7) 0.8287(4) 0.8658(6)
H4_3 H 0.2488 0.8377 0.8979
C3_3 C 0.0923(7) 0.8258(4) 0.8984(6)
H5_3 H 0.0946 0.8326 0.9566
C4_3 C 0.3022(7) 0.7470(5) 0.5134(6)
H6_3 H 0.2495 0.7209 0.5196
C5_3 C 0.4095(7) 0.8173(4) 0.5337(6)
H7_3 H 0.4482 0.8506 0.5562
C6_3 C 0.4174(7) 0.7881(4) 0.4639(6)
H8_3 H 0.4632 0.7977 0.4300
C7_3 C 0.5348(12) 0.8280(3) 0.7522(12)
H9_3 H 0.5383 0.8055 0.7045
C8_3 C 0.4725(7) 0.8771(4) 0.8388(6)
H10_3 H 0.4262 0.8967 0.8646
C9_3 C 0.5798(7) 0.8712(5) 0.8720(6)
H11_3 H 0.6208 0.8859 0.9261
C10_3 C 0.1599(7) 0.9486(4) 0.7575(6)
H12_3 H 0.1041 0.9278 0.7704
C11_3 C 0.3024(8) 0.9695(4) 0.7226(7)
H13_3 H 0.3664 0.9669 0.7060
C13_3 C 0.1696(8) 0.8848(4) 0.4653(7)
H15_3 H 0.2149 0.8595 0.4468
C14_3 C 0.0948(7) 0.9307(4) 0.5459(6)
H16_3 H 0.0754 0.9450 0.5940
C15_3 C 0.0505(7) 0.9461(4) 0.4622(6)
C16_3 C 0.0711(8) 0.7150(4) 0.5998(7)
H18_3 H 0.1121 0.6929 0.6469
C17_3 C 0.0153(8) 0.7842(5) 0.5135(7)
H19_3 H 0.0085 0.8208 0.4885
N14_3 N 0.8921(8) 0.0084(4) 0.7626(7)
N19_3 N 0.9002(7) 0.1510(4) 0.7693(7)
N21_3 N 0.9444(8) 0.0805(4) 0.5979(8)
N22_2 N 0.8619(7) 0.1138(4) 0.4630(6)
C21_3 C 0.7825(9) 0.0099(4) 0.7201(8)
H23_3 H 0.7448 0.0409 0.6880
C28_3 C 0.8849(9) 0.2012(5) 0.7295(8)
H30_3 H 0.9264 0.2134 0.6935
C29_3 C 0.8241(9) 0.1504(5) 0.8130(7)
H31_3 H 0.8124 0.1203 0.8479
C30_3 C 0.7691(8) 0.1993(5) 0.7985(7)
H32_3 H 0.7126 0.2095 0.8219
C31_3 C 0.9296(8) 0.1242(4) 0.5402(7)
H33_3 H 0.9653 0.1595 0.5545
C32_3 C 0.8812(8) 0.0391(4) 0.5516(6)
C33_3 C 0.8303(7) 0.0586(4) 0.4717(6)
H35_3 H 0.7804 0.0376 0.4279
N12_3 N 0.9847(9) 0.6962(5) 0.5380(8)
H1_3 H 0.9550 0.6625 0.5336
N13_3 N 0.8175(8) 0.9259(4) 0.7829(7)
N15_3 N 0.7442(8) 0.7339(4) 0.7552(7)
N17_3 N 0.7878(7) 0.8367(3) 0.6609(5)
N18_3 N 0.7042(8) 0.8493(6) 0.5236(6)
H2_3 H 0.6549 0.8454 0.4735
H3_3 H 0.9938 0.7940 0.7105
H17_3 H 0.9947 0.9730 0.4425
C18_3 C 0.9526(10) 0.7423(5) 0.4824(8)
H20_3 H 0.8946 0.7426 0.4306
C19_3 C 0.9043(8) 0.9574(4) 0.7979(6)
H21_3 H 0.9724 0.9443 0.8323
C20_3 C 0.7380(8) 0.9599(4) 0.7318(7)
H22_3 H 0.6644 0.9499 0.7087
C22_3 C 0.6737(10) 0.7011(5) 0.7792(9)
H24_3 H 0.6481 0.7100 0.8268
C23_3 C 0.7586(9) 0.7064(5) 0.6850(8)
H25_3 H 0.8038 0.7187 0.6520
C24_3 C 0.6984(9) 0.6589(5) 0.6702(8)
H26_3 H 0.6947 0.6325 0.6253
C25_3 C 0.7022(9) 0.8262(5) 0.5985(8)
H27_3 H 0.6439 0.8044 0.6051
C26_3 C 0.8480(10) 0.8722(5) 0.6237(7)
H28_3 H 0.9153 0.8885 0.6536
C27_3 C 0.7969(10) 0.8799(6) 0.5395(7)
H29_3 H 0.8202 0.9020 0.4994
H34_3 H 0.882(7) 0.998(4) 0.576(6)
N28_2 N 0.8619(7) 0.8862(4) 0.9630(6)
N1_4 N 0.1437(6) 0.1833(3) 0.2803(5)
N2_4 N 0.0025(6) 0.1887(3) 0.3324(5)
N3_4 N 0.3349(5) 0.2097(3) 0.0669(4)
N5_4 N 0.4423(5) 0.1507(3) 0.2602(5)
N6_4 N 0.6214(5) 0.1586(3) 0.3176(5)
N7_4 N 0.2417(8) 0.0756(4) 0.2366(7)
N9_4 N 0.1731(7) 0.1094(4) 0.0486(7)
N11_4 N 0.0920(6) 0.2310(3) 0.0863(5)
C1_4 C 0.0386(9) 0.1946(3) 0.2654(8)
C2_4 C 0.1772(7) 0.1713(4) 0.3658(6)
H4_4 H 0.2488 0.1623 0.3979
C3_4 C 0.0923(7) 0.1742(4) 0.3984(6)
H5_4 H 0.0946 0.1674 0.4566
C4_4 C 0.3022(7) 0.2530(5) 0.0134(6)
H6_4 H 0.2495 0.2791 0.0196
C5_4 C 0.4095(7) 0.1827(4) 0.0337(6)
H7_4 H 0.4482 0.1494 0.0562
C7_4 C 0.5348(12) 0.1720(3) 0.2522(12)
H9_4 H 0.5383 0.1945 0.2045
C8_4 C 0.4725(7) 0.1229(4) 0.3388(6)
H10_4 H 0.4262 0.1033 0.3646
C9_4 C 0.5798(7) 0.1288(5) 0.3720(6)
H11_4 H 0.6208 0.1141 0.4261
C10_4 C 0.1599(7) 0.0514(4) 0.2575(6)
H12_4 H 0.1041 0.0722 0.2704
C11_4 C 0.3024(8) 0.0305(4) 0.2226(7)
H13_4 H 0.3664 0.0331 0.2060
C14_4 C 0.0948(7) 0.0693(4) 0.0459(6)
H16_4 H 0.0754 0.0550 0.0940
C16_4 C 0.0711(8) 0.2850(4) 0.0998(7)
H18_4 H 0.1121 0.3071 0.1469
C17_4 C 0.0153(8) 0.2158(5) 0.0135(7)
C6_4 C 0.4174(7) 0.2119(4) 0.9639(6)
H8_4 H 0.4632 0.2023 0.9300
C13_4 C 0.1696(8) 0.1152(4) 0.9653(7)
H15_4 H 0.2149 0.1405 0.9468
C15_4 C 0.0505(7) 0.0539(4) 0.9622(6)
H19_4 H 0.0085 0.1792 0.9885
N8_4 N 0.1645(8) 0.9945(5) 0.2585(7)
C12_4 C 0.2550(9) 0.9820(5) 0.2365(8)
H14_4 H 0.2809 0.9450 0.2316
N12_4 N 0.9847(9) 0.3038(5) 0.0380(8)
H1_4 H 0.9550 0.3375 0.0336
N13_4 N 0.8175(8) 0.0741(4) 0.2829(7)
N15_4 N 0.7442(8) 0.2661(4) 0.2552(7)
N17_4 N 0.7878(7) 0.1633(3) 0.1609(5)
N18_4 N 0.7042(8) 0.1507(6) 0.0236(6)
H3_4 H 0.9938 0.2060 0.2105
C19_4 C 0.9043(8) 0.0426(4) 0.2979(6)
H21_4 H 0.9724 0.0557 0.3323
C20_4 C 0.7380(8) 0.0401(4) 0.2318(7)
H22_4 H 0.6644 0.0501 0.2087
C22_4 C 0.6737(10) 0.2989(5) 0.2792(9)
H24_4 H 0.6481 0.2900 0.3268
C23_4 C 0.7586(9) 0.2936(5) 0.1850(8)
H25_4 H 0.8038 0.2813 0.1520
C24_4 C 0.6984(9) 0.3411(5) 0.1702(8)
H26_4 H 0.6947 0.3675 0.1253
C25_4 C 0.7022(9) 0.1738(5) 0.0985(8)
H27_4 H 0.6439 0.1956 0.1051
C26_4 C 0.8480(10) 0.1278(5) 0.1237(7)
H28_4 H 0.9153 0.1115 0.1536
C27_4 C 0.7969(10) 0.1201(6) 0.0395(7)
H34_4 H 0.882(7) 0.002(4) 0.076(6)
N14_4 N 0.8921(8) 0.9916(4) 0.2626(7)
N19_4 N 0.9002(7) 0.8490(4) 0.2693(7)
N21_4 N 0.9444(8) 0.9195(4) 0.0979(8)
C21_4 C 0.7825(9) 0.9901(4) 0.2201(8)
H23_4 H 0.7448 0.9591 0.1880
C28_4 C 0.8849(9) 0.7988(5) 0.2295(8)
H30_4 H 0.9264 0.7866 0.1935
C29_4 C 0.8241(9) 0.8496(5) 0.3130(7)
H31_4 H 0.8124 0.8797 0.3479
C30_4 C 0.7691(8) 0.8007(5) 0.2985(7)
H32_4 H 0.7126 0.7905 0.3219
C31_4 C 0.9296(8) 0.8758(4) 0.0402(7)
H33_4 H 0.9653 0.8405 0.0545
C32_4 C 0.8812(8) 0.9609(4) 0.0516(6)
C33_4 C 0.8303(7) 0.9414(4) 0.9717(6)
H35_4 H 0.7804 0.9624 0.9279
H2_4 H 0.6549 0.1546 0.9735
H17_4 H 0.9947 0.0270 0.9425
C18_4 C 0.9526(10) 0.2577(5) 0.9824(8)
H20_4 H 0.8946 0.2574 0.9306
H29_4 H 0.8202 0.0980 0.9994
loop_
_geom_bond_atom_site_label_1
_geom_bond_atom_site_label_2
_geom_bond_site_symmetry_1
_geom_bond_site_symmetry_2
N6 C7 1_555 1_555
H9 C7 1_555 1_555
C9 N6 1_555 1_555
H11 C9 1_555 1_555
Sm5 N6 1_555 1_555
Sm1 N1 1_555 1_555
Sm5 N2 1_555 1_555
Sm3 N8 1_555 1_555
N1 C1 1_555 1_555
N2 C1 1_555 1_555
N3 Sm1 1_555 1_555
N4 C4 1_555 1_555
N5 Sm1 1_555 1_555
N7 Sm1 1_555 1_555
N8 C10 1_555 1_555
N9 Sm1 1_555 1_555
N10 C13 1_555 1_555
N11 Sm1 1_555 1_555
N12 H1 1_555 1_555
N13 Sm5 1_555 1_555
N14 Sm3 1_555 1_555
N15 Sm5 1_555 1_555
N16 C22 1_555 1_555
N17 Sm5 1_555 1_555
N18 H2 1_555 1_555
N19 Sm3 1_555 1_555
N20 C28 1_555 1_555
N21 Sm3 1_555 1_555
N22 C31 1_555 1_555
C1 H3 1_555 1_555
C2 N1 1_555 1_555
H4 C2 1_555 1_555
C3 N2 1_555 1_555
H5 C3 1_555 1_555
C4 N3 1_555 1_555
H6 C4 1_555 1_555
C5 N3 1_555 1_555
H7 C5 1_555 1_555
C6 N4 1_555 1_555
H8 C6 1_555 1_555
C8 N5 1_555 1_555
H10 C8 1_555 1_555
C10 N7 1_555 1_555
H12 C10 1_555 1_555
C11 N7 1_555 1_555
H13 C11 1_555 1_555
C12 N8 1_555 1_555
H14 C12 1_555 1_555
C13 N9 1_555 1_555
H15 C13 1_555 1_555
C14 N9 1_555 1_555
H16 C14 1_555 1_555
C15 N10 1_555 1_555
H17 C15 1_555 1_555
C16 N11 1_555 1_555
H18 C16 1_555 1_555
C17 N11 1_555 1_555
H19 C17 1_555 1_555
C18 N12 1_555 1_555
H20 C18 1_555 1_555
C19 N13 1_555 1_555
H21 C19 1_555 1_555
C20 N13 1_555 1_555
H22 C20 1_555 1_555
C21 N14 1_555 1_555
H23 C21 1_555 1_555
C22 N15 1_555 1_555
H24 C22 1_555 1_555
C23 N15 1_555 1_555
H25 C23 1_555 1_555
C24 N16 1_555 1_555
H26 C24 1_555 1_555
C25 N17 1_555 1_555
H27 C25 1_555 1_555
C26 N17 1_555 1_555
H28 C26 1_555 1_555
C27 N18 1_555 1_555
H29 C27 1_555 1_555
C28 N19 1_555 1_555
H30 C28 1_555 1_555
C29 N19 1_555 1_555
H31 C29 1_555 1_555
C30 N20 1_555 1_555
H32 C30 1_555 1_555
C31 N21 1_555 1_555
H33 C31 1_555 1_555
C32 N21 1_555 1_555
H34 C32 1_555 1_555
C33 N22 1_555 1_555
H35 C33 1_555 1_555
Sm4 N20 1_555 1_555
Sm6 N22 1_555 1_555
Sm7 N4 1_555 1_555
Sm8 N10 1_555 1_555
Sm9 N16 1_555 1_555
N23 Sm5 1_555 1_555
N25 Sm3 1_555 1_555
N26 Sm3 1_555 1_555
N27 Sm1 1_555 1_555
N28 Sm5 1_555 1_555
N12 C16 1_555 1_555
N14 C19 1_555 1_555
N18 C25 1_555 1_555
C2 C3 1_555 1_555
C5 C6 1_555 1_555
C11 C12 1_555 1_555
C14 C15 1_555 1_555
C17 C18 1_555 1_555
C20 C21 1_555 1_555
C23 C24 1_555 1_555
C26 C27 1_555 1_555
C29 C30 1_555 1_555
C32 C33 1_555 1_555
N6_2 C7_2 1_555 1_555
H9_2 C7_2 1_555 1_555
C9_2 N6_2 1_555 1_555
H11_2 C9_2 1_555 1_555
Sm6 N6_2 1_555 1_555
Sm1_2 N1_2 1_555 1_555
Sm6 N2_2 1_555 1_555
Sm8 N8_2 1_555 1_555
N1_2 C1_2 1_555 1_555
N2_2 C1_2 1_555 1_555
N3_2 Sm1_2 1_555 1_555
N5_2 Sm1_2 1_555 1_555
N7_2 Sm1_2 1_555 1_555
N8_2 C10_2 1_555 1_555
N9_2 Sm1_2 1_555 1_555
N11_2 Sm1_2 1_555 1_555
N12_2 H1_2 1_555 1_555
N13_2 Sm6 1_555 1_555
N14_2 Sm8 1_555 1_555
N15_2 Sm6 1_555 1_555
N16_2 C22_2 1_555 1_555
N17_2 Sm6 1_555 1_555
N19_2 Sm8 1_555 1_555
N20_2 C28_2 1_555 1_555
N21_2 Sm8 1_555 1_555
C1_2 H3_2 1_555 1_555
C2_2 N1_2 1_555 1_555
H4_2 C2_2 1_555 1_555
C3_2 N2_2 1_555 1_555
H5_2 C3_2 1_555 1_555
C4_2 N3_2 1_555 1_555
H6_2 C4_2 1_555 1_555
C5_2 N3_2 1_555 1_555
H7_2 C5_2 1_555 1_555
C8_2 N5_2 1_555 1_555
H10_2 C8_2 1_555 1_555
C10_2 N7_2 1_555 1_555
H12_2 C10_2 1_555 1_555
C11_2 N7_2 1_555 1_555
H13_2 C11_2 1_555 1_555
C12_2 N8_2 1_555 1_555
H14_2 C12_2 1_555 1_555
C14_2 N9_2 1_555 1_555
H16_2 C14_2 1_555 1_555
C16_2 N11_2 1_555 1_555
H18_2 C16_2 1_555 1_555
C17_2 N11_2 1_555 1_555
C19_2 N13_2 1_555 1_555
H21_2 C19_2 1_555 1_555
C20_2 N13_2 1_555 1_555
H22_2 C20_2 1_555 1_555
C21_2 N14_2 1_555 1_555
H23_2 C21_2 1_555 1_555
C22_2 N15_2 1_555 1_555
H24_2 C22_2 1_555 1_555
C23_2 N15_2 1_555 1_555
H25_2 C23_2 1_555 1_555
C24_2 N16_2 1_555 1_555
H26_2 C24_2 1_555 1_555
C25_2 N17_2 1_555 1_555
H27_2 C25_2 1_555 1_555
C26_2 N17_2 1_555 1_555
H28_2 C26_2 1_555 1_555
C27_2 N18_2 1_555 1_555
C28_2 N19_2 1_555 1_555
H30_2 C28_2 1_555 1_555
C29_2 N19_2 1_555 1_555
H31_2 C29_2 1_555 1_555
C30_2 N20_2 1_555 1_555
H32_2 C30_2 1_555 1_555
C31_2 N21_2 1_555 1_555
H33_2 C31_2 1_555 1_555
C32_2 N21_2 1_555 1_555
H34_2 C32_2 1_555 1_555
Sm4_2 N20_2 1_555 1_555
Sm9_2 N16_2 1_555 1_555
N23_2 Sm6 1_555 1_555
N26_2 Sm8 1_555 1_555
N27_2 Sm1_2 1_555 1_555
N12_2 C16_2 1_555 1_555
N14_2 C19_2 1_555 1_555
N18_2 C25_2 1_555 1_555
C2_2 C3_2 1_555 1_555
C11_2 C12_2 1_555 1_555
C20_2 C21_2 1_555 1_555
C23_2 C24_2 1_555 1_555
C26_2 C27_2 1_555 1_555
C29_2 C30_2 1_555 1_555
N25 C13_2 1_555 1_555
C6_2 N4_2 1_555 1_555
H8_2 C6_2 1_555 1_555
H15_2 C13_2 1_555 1_555
C15_2 N25 1_555 1_555
H17_2 C15_2 1_555 1_555
H20_2 C18_2 1_555 1_555
C33_2 N28 1_555 1_555
H35_2 C33_2 1_555 1_555
Sm7_2 N4_2 1_555 1_555
Sm9 N8_3 1_555 1_555
C12_3 N8_3 1_555 1_555
H14_3 C12_3 1_555 1_555
N25_2 Sm9 1_555 1_555
Sm4 N1_3 1_555 1_555
N1_3 C1_3 1_555 1_555
N2_3 C1_3 1_555 1_555
N3_3 Sm4 1_555 1_555
N23_2 C4_3 1_555 1_555
N5_3 Sm4 1_555 1_555
N6_3 C7_3 1_555 1_555
N7_3 Sm4 1_555 1_555
N9_3 Sm4 1_555 1_555
N10_2 C13_3 1_555 1_555
N11_3 Sm4 1_555 1_555
C2_3 N1_3 1_555 1_555
H4_3 C2_3 1_555 1_555
C3_3 N2_3 1_555 1_555
H5_3 C3_3 1_555 1_555
C4_3 N3_3 1_555 1_555
H6_3 C4_3 1_555 1_555
C5_3 N3_3 1_555 1_555
H7_3 C5_3 1_555 1_555
C6_3 N23_2 1_555 1_555
H8_3 C6_3 1_555 1_555
C7_3 N5_3 1_555 1_555
H9_3 C7_3 1_555 1_555
C8_3 N5_3 1_555 1_555
H10_3 C8_3 1_555 1_555
C9_3 N6_3 1_555 1_555
H11_3 C9_3 1_555 1_555
C10_3 N7_3 1_555 1_555
H12_3 C10_3 1_555 1_555
C11_3 N7_3 1_555 1_555
H13_3 C11_3 1_555 1_555
C13_3 N9_3 1_555 1_555
H15_3 C13_3 1_555 1_555
C14_3 N9_3 1_555 1_555
H16_3 C14_3 1_555 1_555
C15_3 N10_2 1_555 1_555
C16_3 N11_3 1_555 1_555
H18_3 C16_3 1_555 1_555
C17_3 N11_3 1_555 1_555
H19_3 C17_3 1_555 1_555
Sm7_2 N6_3 1_555 1_555
Sm9_2 N10_2 1_555 1_555
C2_3 C3_3 1_555 1_555
C5_3 C6_3 1_555 1_555
C8_3 C9_3 1_555 1_555
C14_3 C15_3 1_555 1_555
N27 C28_3 1_555 1_555
N22_2 C31_3 1_555 1_555
C21_3 N14_3 1_555 1_555
H23_3 C21_3 1_555 1_555
C28_3 N19_3 1_555 1_555
H30_3 C28_3 1_555 1_555
C29_3 N19_3 1_555 1_555
H31_3 C29_3 1_555 1_555
C30_3 N27 1_555 1_555
H32_3 C30_3 1_555 1_555
C31_3 N21_3 1_555 1_555
H33_3 C31_3 1_555 1_555
C32_3 N21_3 1_555 1_555
C33_3 N22_2 1_555 1_555
H35_3 C33_3 1_555 1_555
Sm7 N22_2 1_555 1_555
C29_3 C30_3 1_555 1_555
C32_3 C33_3 1_555 1_555
N12_3 H1_3 1_555 1_555
N13_3 Sm7_2 1_555 1_555
N15_3 Sm7_2 1_555 1_555
N26 C22_3 1_555 1_555
N17_3 Sm7_2 1_555 1_555
N18_3 H2_3 1_555 1_555
C18_3 N12_3 1_555 1_555
H20_3 C18_3 1_555 1_555
C19_3 N13_3 1_555 1_555
H21_3 C19_3 1_555 1_555
C20_3 N13_3 1_555 1_555
H22_3 C20_3 1_555 1_555
C22_3 N15_3 1_555 1_555
H24_3 C22_3 1_555 1_555
C23_3 N15_3 1_555 1_555
H25_3 C23_3 1_555 1_555
C24_3 N26 1_555 1_555
H26_3 C24_3 1_555 1_555
C25_3 N17_3 1_555 1_555
H27_3 C25_3 1_555 1_555
C26_3 N17_3 1_555 1_555
H28_3 C26_3 1_555 1_555
C27_3 N18_3 1_555 1_555
H29_3 C27_3 1_555 1_555
N28_2 Sm7_2 1_555 1_555
N18_3 C25_3 1_555 1_555
C23_3 C24_3 1_555 1_555
C26_3 C27_3 1_555 1_555
Sm4_2 N1_4 1_555 1_555
N1_4 C1_4 1_555 1_555
N2_4 C1_4 1_555 1_555
N3_4 Sm4_2 1_555 1_555
N5_4 Sm4_2 1_555 1_555
N6_4 C7_4 1_555 1_555
N7_4 Sm4_2 1_555 1_555
N9_4 Sm4_2 1_555 1_555
N11_4 Sm4_2 1_555 1_555
C2_4 N1_4 1_555 1_555
H4_4 C2_4 1_555 1_555
C3_4 N2_4 1_555 1_555
H5_4 C3_4 1_555 1_555
C4_4 N3_4 1_555 1_555
H6_4 C4_4 1_555 1_555
C5_4 N3_4 1_555 1_555
H7_4 C5_4 1_555 1_555
C7_4 N5_4 1_555 1_555
H9_4 C7_4 1_555 1_555
C8_4 N5_4 1_555 1_555
H10_4 C8_4 1_555 1_555
C9_4 N6_4 1_555 1_555
H11_4 C9_4 1_555 1_555
C10_4 N7_4 1_555 1_555
H12_4 C10_4 1_555 1_555
C11_4 N7_4 1_555 1_555
H13_4 C11_4 1_555 1_555
C14_4 N9_4 1_555 1_555
H16_4 C14_4 1_555 1_555
C16_4 N11_4 1_555 1_555
H18_4 C16_4 1_555 1_555
C17_4 N11_4 1_555 1_555
Sm7 N6_4 1_555 1_555
C2_4 C3_4 1_555 1_555
C8_4 C9_4 1_555 1_555
N25_2 C13_4 1_555 1_555
C6_4 N23 1_555 1_555
H8_4 C6_4 1_555 1_555
H15_4 C13_4 1_555 1_555
C15_4 N25_2 1_555 1_555
Sm9_2 N8_4 1_555 1_555
C12_4 N8_4 1_555 1_555
H14_4 C12_4 1_555 1_555
N12_4 H1_4 1_555 1_555
N13_4 Sm7 1_555 1_555
N15_4 Sm7 1_555 1_555
N26_2 C22_4 1_555 1_555
N17_4 Sm7 1_555 1_555
C19_4 N13_4 1_555 1_555
H21_4 C19_4 1_555 1_555
C20_4 N13_4 1_555 1_555
H22_4 C20_4 1_555 1_555
C22_4 N15_4 1_555 1_555
H24_4 C22_4 1_555 1_555
C23_4 N15_4 1_555 1_555
H25_4 C23_4 1_555 1_555
C24_4 N26_2 1_555 1_555
H26_4 C24_4 1_555 1_555
C25_4 N17_4 1_555 1_555
H27_4 C25_4 1_555 1_555
C26_4 N17_4 1_555 1_555
H28_4 C26_4 1_555 1_555
C27_4 N18_4 1_555 1_555
N18_4 C25_4 1_555 1_555
C23_4 C24_4 1_555 1_555
C26_4 C27_4 1_555 1_555
N27_2 C28_4 1_555 1_555
C21_4 N14_4 1_555 1_555
H23_4 C21_4 1_555 1_555
C28_4 N19_4 1_555 1_555
H30_4 C28_4 1_555 1_555
C29_4 N19_4 1_555 1_555
H31_4 C29_4 1_555 1_555
C30_4 N27_2 1_555 1_555
H32_4 C30_4 1_555 1_555
C31_4 N21_4 1_555 1_555
H33_4 C31_4 1_555 1_555
C32_4 N21_4 1_555 1_555
C29_4 C30_4 1_555 1_555
C33_4 N28_2 1_555 1_555
H35_4 C33_4 1_555 1_555
H20_4 C18_4 1_555 1_555

#END
