
###############################################################################
#
# This file contains modified crystal structure data generated from the
# MOF subset of the Cambridge Structural Database (CSD) v543 
# hosted by the Cambridge Crystallographic Data Centre (CCDC).
#
# This work is licensed under the Creative Commons
# Attribution-NonCommercial-ShareAlike 4.0 International License.
# To view a copy of this license, visit
# http://creativecommons.org/licenses/by-nc-sa/4.0/
# or send a letter to
# Creative Commons, PO Box 1866, Mountain View, CA 94042, USA.
#
# CIF created using the CSD Python API on 29 September 2022
# The structure has been converted into the P1 space group
# The structure has a 3D framework
# The original CSD entry IGUFEV is in the triclinic crystal system
# The framework has been calculated to contain at least 10.0% void space
# The void calculation uses a probe of radius 1.32A, grid spacing 0.4
#
###############################################################################

data_IGUFEV
_chemical_formula_moiety         '(C40 H32 Co1 N2 O8)n'
_symmetry_cell_setting           triclinic
_symmetry_space_group_name_H-M   'P 1'
_symmetry_Int_Tables_number      1
_space_group_name_Hall           'P 1'
loop_
_symmetry_equiv_pos_site_id
_symmetry_equiv_pos_as_xyz
1 x,y,z
_cell_length_a                   10.0719(3)
_cell_length_b                   10.23420(10)
_cell_length_c                   10.8551(3)
_cell_angle_alpha                80.34
_cell_angle_beta                 66.6430(10)
_cell_angle_gamma                75.474(2)
_cell_volume                     991.445
loop_
_atom_site_label
_atom_site_type_symbol
_atom_site_fract_x
_atom_site_fract_y
_atom_site_fract_z
_atom_site_U_iso_or_equiv
_atom_site_thermal_displace_type
C29 C 0.2306(5) 0.7036(5) 0.0330(5) 0.0447 Uani
C30 C 0.2310(5) 0.6106(5) 0.1407(5) 0.0514 Uani
H22 H 0.3107 0.5916 0.1682 0.0620 Uiso
C31 C 0.0088(5) 0.6712(4) 0.0510(5) 0.0423 Uani
C32 C 0.1138(5) 0.5451(4) 0.2086(4) 0.0403 Uani
C33 C 0.1080(6) 0.4462(5) 0.3285(5) 0.0504 Uani
H24 H 0.0057 0.4427 0.3826 0.0600 Uiso
H25 H 0.1479 0.4785 0.3830 0.0600 Uiso
C34 C 0.0025(5) 0.5761(5) 0.1578(5) 0.0503 Uani
C35 C 0.1937(5) 0.3035(4) 0.2914(4) 0.0451 Uani
H27 H 0.1561 0.2708 0.2353 0.0540 Uiso
H28 H 0.2972 0.3052 0.2405 0.0540 Uiso
C36 C 0.1783(5) 0.2093(4) 0.4173(4) 0.0381 Uani
C37 C 0.2944(5) 0.1562(5) 0.4604(5) 0.0480 Uani
H29 H 0.3870 0.1766 0.4105 0.0570 Uiso
C38 C 0.0456(5) 0.1730(5) 0.4968(5) 0.0484 Uani
C39 C 0.0327(5) 0.0886(4) 0.6121(5) 0.0419 Uani
N4 N 0.1444(3) 0.0371(3) 0.6548(3) 0.0290 Uani
C40 C 0.2729(5) 0.0732(5) 0.5772(5) 0.0472 Uani
H32 H 0.3528 0.0400 0.6041 0.0560 Uiso
O9 O 0.1832(3) 0.0172(3) 0.9094(3) 0.0315 Uani
C21 C 0.4730(4) 0.0072(5) 0.8833(4) 0.0390 Uani
H18 H 0.4556 0.0119 0.8045 0.0470 Uiso
H23 H 0.9312 0.6912 0.0205 0.0510 Uiso
H26 H 0.9231 0.5324 0.1961 0.0600 Uiso
H30 H 0.9639 0.2058 0.4724 0.0580 Uiso
H31 H 0.9414 0.0662 0.6632 0.0500 Uiso
O4 O 0.8168(3) 0.9828(3) 0.0906(3) 0.0315 Uani
C7 C 0.5270(4) 0.9928(5) 0.1167(4) 0.0390 Uani
H5 H 0.5444 0.9881 0.1955 0.0470 Uiso
N6 N 0.8556(3) 0.9629(3) 0.3452(3) 0.0290 Uani
H3 H 0.0688 0.3088 0.9795 0.0510 Uiso
H8 H 0.0769 0.4676 0.8039 0.0600 Uiso
H14 H 0.0361 0.7942 0.5276 0.0580 Uiso
H15 H 0.0586 0.9338 0.3368 0.0500 Uiso
C1 C 0.7694(5) 0.2964(5) 0.9670(5) 0.0447 Uani
C2 C 0.7690(5) 0.3894(5) 0.8593(5) 0.0514 Uani
H2 H 0.6893 0.4084 0.8318 0.0620 Uiso
C5 C 0.9912(5) 0.3288(4) 0.9490(5) 0.0423 Uani
C8 C 0.8862(5) 0.4549(4) 0.7914(4) 0.0403 Uani
C9 C 0.8920(6) 0.5538(5) 0.6715(5) 0.0504 Uani
H6 H 0.9943 0.5573 0.6174 0.0600 Uiso
H7 H 0.8521 0.5215 0.6170 0.0600 Uiso
C10 C 0.9975(5) 0.4239(5) 0.8422(5) 0.0503 Uani
C15 C 0.8063(5) 0.6965(4) 0.7086(4) 0.0451 Uani
H11 H 0.8439 0.7292 0.7647 0.0540 Uiso
H12 H 0.7028 0.6948 0.7595 0.0540 Uiso
C16 C 0.8217(5) 0.7907(4) 0.5827(4) 0.0381 Uani
C17 C 0.7056(5) 0.8438(5) 0.5396(5) 0.0480 Uani
H13 H 0.6130 0.8234 0.5895 0.0570 Uiso
C18 C 0.9544(5) 0.8270(5) 0.5032(5) 0.0484 Uani
C19 C 0.9673(5) 0.9114(4) 0.3879(5) 0.0419 Uani
C20 C 0.7271(5) 0.9268(5) 0.4228(5) 0.0472 Uani
H16 H 0.6472 0.9600 0.3959 0.0560 Uiso
N3 N 0.1198(4) 0.7364(3) 0.9887(3) 0.0325 Uani
H21 H 0.3112 0.7451 0.9894 0.0530 Uiso
Co7 Co 0.12493(5) 0.89054(5) 0.82499(5) 0.0241 Uani
O2 O 0.3499(3) 0.7793(3) 0.7219(3) 0.0343 Uani
O3 O 0.1634(3) 0.7328(3) 0.6928(3) 0.0380 Uani
C11 C 0.4026(4) 0.6023(4) 0.5822(4) 0.0329 Uani
C12 C 0.5378(5) 0.5441(5) 0.5916(5) 0.0552 Uani
H9 H 0.5647 0.5726 0.6537 0.0660 Uiso
C13 C 0.3663(5) 0.5565(5) 0.4907(5) 0.0547 Uani
H10 H 0.2751 0.5937 0.4836 0.0650 Uiso
C14 C 0.2998(4) 0.7115(4) 0.6707(4) 0.0312 Uani
C25 C 0.6337(5) 0.4435(5) 0.5093(5) 0.0547 Uani
C26 C 0.5974(4) 0.3977(4) 0.4178(4) 0.0329 Uani
C27 C 0.4622(5) 0.4559(5) 0.4084(5) 0.0552 Uani
H19 H 0.4353 0.4274 0.3463 0.0660 Uiso
C28 C 0.7002(4) 0.2885(4) 0.3293(4) 0.0312 Uani
O7 O 0.6501(3) 0.2207(3) 0.2781(3) 0.0343 Uani
O8 O 0.8366(3) 0.2672(3) 0.3072(3) 0.0380 Uani
H20 H 0.7249 0.4063 0.5164 0.0650 Uiso
Co6 Co 0.87507(5) 0.10946(5) 0.17501(5) 0.0241 Uani
C22 C 0.3551(4) 0.0167(4) 0.0071(4) 0.0263 Uani
C23 C 0.2002(4) 0.0339(4) 0.0129(4) 0.0246 Uani
O5 O 0.0972(3) 0.0672(3) 0.1239(3) 0.0320 Uani
C24 C 0.3842(4) 0.0093(5) 0.1223(4) 0.0377 Uani
H17 H 0.3063 0.0155 0.2053 0.0450 Uiso
O1 O 0.9028(3) 0.9328(3) 0.8761(3) 0.0320 Uani
C3 C 0.7998(4) 0.9661(4) 0.9871(4) 0.0246 Uani
C4 C 0.6449(4) 0.9833(4) 0.9929(4) 0.0263 Uani
C6 C 0.6158(4) 0.9907(5) 0.8777(4) 0.0377 Uani
H4 H 0.6937 0.9845 0.7947 0.0450 Uiso
N5 N 0.8802(4) 0.2636(3) 0.0113(3) 0.0325 Uani
H1 H 0.6888 0.2549 0.0106 0.0530 Uiso
loop_
_atom_site_aniso_label
_atom_site_aniso_U_11
_atom_site_aniso_U_22
_atom_site_aniso_U_33
_atom_site_aniso_U_23
_atom_site_aniso_U_13
_atom_site_aniso_U_12
C29 0.041 0.043 0.054 0.018 -0.027 -0.014
C30 0.052 0.049 0.058 0.021 -0.035 -0.011
C31 0.041 0.038 0.054 0.014 -0.028 -0.013
C32 0.047 0.03 0.039 0.0043 -0.016 -0.004
C33 0.061 0.042 0.04 0.008 -0.018 -0.005
C34 0.048 0.045 0.057 0.021 -0.021 -0.022
C35 0.057 0.039 0.037 0.009 -0.019 -0.011
C36 0.045 0.03 0.038 0.0077 -0.019 -0.006
C37 0.036 0.052 0.05 0.021 -0.016 -0.015
C38 0.043 0.055 0.052 0.024 -0.032 -0.013
C39 0.031 0.048 0.045 0.016 -0.017 -0.013
N4 0.0265 0.0284 0.0324 0.0044 -0.0143 -0.005
C40 0.03 0.054 0.054 0.021 -0.021 -0.01
O9 0.0288 0.0348 0.0348 -0.0062 -0.0151 -0.0055
C21 0.026 0.061 0.031 -0.008 -0.0128 -0.004
O4 0.0288 0.0348 0.0348 -0.0062 -0.0151 -0.0055
C7 0.026 0.061 0.031 -0.008 -0.0128 -0.004
N6 0.0265 0.0284 0.0324 0.0044 -0.0143 -0.005
C1 0.041 0.043 0.054 0.018 -0.027 -0.014
C2 0.052 0.049 0.058 0.021 -0.035 -0.011
C5 0.041 0.038 0.054 0.014 -0.028 -0.013
C8 0.047 0.03 0.039 0.0043 -0.016 -0.004
C9 0.061 0.042 0.04 0.008 -0.018 -0.005
C10 0.048 0.045 0.057 0.021 -0.021 -0.022
C15 0.057 0.039 0.037 0.009 -0.019 -0.011
C16 0.045 0.03 0.038 0.0077 -0.019 -0.006
C17 0.036 0.052 0.05 0.021 -0.016 -0.015
C18 0.043 0.055 0.052 0.024 -0.032 -0.013
C19 0.031 0.048 0.045 0.016 -0.017 -0.013
C20 0.03 0.054 0.054 0.021 -0.021 -0.01
N3 0.029 0.0295 0.035 0.0024 -0.0114 -0.0032
Co7 0.0198 0.0243 0.025 0.0002 -0.008 -0.0008
O2 0.0288 0.0327 0.0375 -0.0092 -0.0091 -0.0008
O3 0.0274 0.0389 0.0428 -0.0143 -0.0101 0.0043
C11 0.027 0.033 0.036 -0.0082 -0.0111 0.0014
C12 0.046 0.059 0.066 -0.035 -0.031 0.017
C13 0.035 0.059 0.072 -0.032 -0.027 0.017
C14 0.03 0.028 0.032 -0.002 -0.0123 0.0014
C25 0.035 0.059 0.072 -0.032 -0.027 0.017
C26 0.027 0.033 0.036 -0.0082 -0.0111 0.0014
C27 0.046 0.059 0.066 -0.035 -0.031 0.017
C28 0.03 0.028 0.032 -0.002 -0.0123 0.0014
O7 0.0288 0.0327 0.0375 -0.0092 -0.0091 -0.0008
O8 0.0274 0.0389 0.0428 -0.0143 -0.0101 0.0043
Co6 0.0198 0.0243 0.025 0.0002 -0.008 -0.0008
C22 0.0204 0.027 0.029 -0.003 -0.0077 -0.0022
C23 0.025 0.019 0.026 0 -0.0078 -0.0018
O5 0.0203 0.0415 0.0296 0.0016 -0.009 -0.0018
C24 0.02 0.06 0.027 -0.007 -0.0041 -0.003
O1 0.0203 0.0415 0.0296 0.0016 -0.009 -0.0018
C3 0.025 0.019 0.026 0 -0.0078 -0.0018
C4 0.0204 0.027 0.029 -0.003 -0.0077 -0.0022
C6 0.02 0.06 0.027 -0.007 -0.0041 -0.003
N5 0.029 0.0295 0.035 0.0024 -0.0114 -0.0032
loop_
_geom_bond_atom_site_label_1
_geom_bond_atom_site_label_2
_geom_bond_site_symmetry_1
_geom_bond_site_symmetry_2
C30 C29 1_555 1_555
H22 C30 1_555 1_555
C32 C30 1_555 1_555
C33 C32 1_555 1_555
H24 C33 1_555 1_555
H25 C33 1_555 1_555
C34 C31 1_555 1_555
C35 C33 1_555 1_555
H27 C35 1_555 1_555
H28 C35 1_555 1_555
C36 C35 1_555 1_555
C37 C36 1_555 1_555
H29 C37 1_555 1_555
C38 C36 1_555 1_555
C39 C38 1_555 1_555
C40 C37 1_555 1_555
H32 C40 1_555 1_555
C32 C34 1_555 1_555
C39 N4 1_555 1_555
N4 C40 1_555 1_555
H18 C21 1_555 1_555
H5 C7 1_555 1_555
C2 C1 1_555 1_555
H2 C2 1_555 1_555
C8 C2 1_555 1_555
C9 C8 1_555 1_555
H6 C9 1_555 1_555
H7 C9 1_555 1_555
C10 C5 1_555 1_555
C15 C9 1_555 1_555
H11 C15 1_555 1_555
H12 C15 1_555 1_555
C16 C15 1_555 1_555
C17 C16 1_555 1_555
H13 C17 1_555 1_555
C18 C16 1_555 1_555
C19 C18 1_555 1_555
N6 C19 1_555 1_555
C20 C17 1_555 1_555
H16 C20 1_555 1_555
C8 C10 1_555 1_555
N6 C20 1_555 1_555
Co7 N3 1_555 1_555
O2 Co7 1_555 1_555
O3 Co7 1_555 1_555
C11 C12 1_555 1_555
C12 H9 1_555 1_555
C13 C11 1_555 1_555
H10 C13 1_555 1_555
C14 O2 1_555 1_555
C25 C12 1_555 1_555
C26 C25 1_555 1_555
C27 C13 1_555 1_555
H19 C27 1_555 1_555
C28 C26 1_555 1_555
O7 C28 1_555 1_555
O8 C28 1_555 1_555
H20 C25 1_555 1_555
Co6 O7 1_555 1_555
O3 C14 1_555 1_555
C11 C14 1_555 1_555
C26 C27 1_555 1_555
O8 Co6 1_555 1_555
C23 C22 1_555 1_555
O5 C23 1_555 1_555
H17 C24 1_555 1_555
C22 C24 1_555 1_555
O1 C3 1_555 1_555
C3 C4 1_555 1_555
C4 C6 1_555 1_555
C6 H4 1_555 1_555
N5 Co6 1_555 1_555

#END
