
###############################################################################
#
# This file contains modified crystal structure data generated from the
# MOF subset of the Cambridge Structural Database (CSD) v543 
# hosted by the Cambridge Crystallographic Data Centre (CCDC).
#
# This work is licensed under the Creative Commons
# Attribution-NonCommercial-ShareAlike 4.0 International License.
# To view a copy of this license, visit
# http://creativecommons.org/licenses/by-nc-sa/4.0/
# or send a letter to
# Creative Commons, PO Box 1866, Mountain View, CA 94042, USA.
#
# CIF created using the CSD Python API on 29 September 2022
# The structure has been converted into the P1 space group
# The structure has a 3D framework
# The original CSD entry IGUFOH is in the cubic crystal system
# The original CSD entry IGUFOH is in a Sohncke space group
# The framework has been calculated to contain at least 10.0% void space
# The void calculation uses a probe of radius 1.32A, grid spacing 0.4
# The framework is charged, counterions have been retained in the structure
# H atom positions have been added when not included in the experimental data
# Generated hydrogen atom positions removed from atoms on special positions
#
###############################################################################

data_IGUFOH
_chemical_formula_moiety         '(C1248 H960 N32 O256 Zn64 32+)n'
_symmetry_cell_setting           triclinic
_symmetry_space_group_name_H-M   'P 1'
_symmetry_Int_Tables_number      1
_space_group_name_Hall           'P 1'
loop_
_symmetry_equiv_pos_site_id
_symmetry_equiv_pos_as_xyz
1 x,y,z
_cell_length_a                   34.7360(6)
_cell_length_b                   34.7360(6)
_cell_length_c                   34.7360(6)
_cell_angle_alpha                90
_cell_angle_beta                 90
_cell_angle_gamma                90
_cell_volume                     41912.1
loop_
_atom_site_label
_atom_site_type_symbol
_atom_site_fract_x
_atom_site_fract_y
_atom_site_fract_z
Zn1 Zn 0.143600(16) 0.356400(16) 0.143600(16)
Zn2 Zn 0.085088(15) 0.414912(15) 0.085088(15)
O1 O 0.13057(12) 0.44457(12) 0.09735(13)
O2 O 0.16760(14) 0.40593(14) 0.1319(2)
O3 O 0.17907(11) 0.32093(11) 0.17907(11)
O4 O 0.04961(9) 0.45039(9) 0.04961(9)
N1 N 0.3540(2) 0.6460(2) 0.1460(2)
C1 C 0.2220(2) 0.4613(2) 0.1420(3)
H1 H 0.2262 0.4374 0.1533
C2 C 0.2487(2) 0.49036(16) 0.1458(3)
H2 H 0.2708 0.4857 0.1602
C3 C 0.20935(16) 0.53246(16) 0.1092(2)
H3 H 0.2045 0.5565 0.0985
C4 C 0.18848(15) 0.46799(17) 0.12080(19)
C5 C 0.16008(16) 0.43619(17) 0.1161(2)
C6 C 0.18254(13) 0.50323(18) 0.10527(18)
H4 H 0.1600 0.5079 0.0917
C7 C 0.24386(16) 0.52597(16) 0.1292(2)
C8 C 0.3269(2) 0.6159(2) 0.1421(2)
C9 C 0.27156(16) 0.55784(18) 0.1340(2)
C10 C 0.2627(2) 0.59594(19) 0.1308(3)
H5 H 0.2373 0.6027 0.1256
C11 C 0.3369(2) 0.5782(2) 0.1474(3)
H6 H 0.3622 0.5719 0.1535
C12 C 0.3099(2) 0.5499(2) 0.1437(3)
H7 H 0.3172 0.5245 0.1478
C13 C 0.2887(2) 0.6242(2) 0.1347(3)
H8 H 0.2809 0.6497 0.1324
O5 O 0.55543(12) 0.59735(13) 0.36943(12)
O6 O 0.59407(14) 0.6319(2) 0.33240(14)
C14 C 0.5387(2) 0.6420(3) 0.2780(2)
H9 H 0.5626 0.6533 0.2738
C15 C 0.50964(16) 0.6458(3) 0.2513(2)
H10 H 0.5143 0.6602 0.2292
C16 C 0.46754(16) 0.6092(2) 0.29065(16)
H11 H 0.4435 0.5985 0.2955
C17 C 0.53201(17) 0.62080(19) 0.31152(15)
C18 C 0.56381(17) 0.6161(2) 0.33992(16)
C19 C 0.49677(18) 0.60527(18) 0.31746(13)
H12 H 0.4921 0.5917 0.3400
C20 C 0.47403(16) 0.6292(2) 0.25614(16)
C21 C 0.3841(2) 0.6421(2) 0.1731(2)
C22 C 0.44216(18) 0.6340(2) 0.22844(16)
C23 C 0.40406(19) 0.6308(3) 0.2373(2)
H13 H 0.3973 0.6256 0.2627
C24 C 0.4218(2) 0.6474(3) 0.1631(2)
H14 H 0.4281 0.6535 0.1378
C25 C 0.4501(2) 0.6437(3) 0.1901(2)
H15 H 0.4755 0.6478 0.1828
C26 C 0.3758(2) 0.6347(3) 0.2113(2)
H16 H 0.3503 0.6324 0.2191
C29 C 0.3908(2) 0.79065(16) 0.03246(16)
H19 H 0.4015 0.7955 0.0565
C32 C 0.39473(18) 0.81746(13) 0.00323(18)
H20 H 0.4083 0.8400 0.0079
C33 C 0.3708(2) 0.75614(16) 0.02597(16)
C34 C 0.3579(2) 0.6731(2) 0.1159(2)
C35 C 0.3660(2) 0.72844(16) 0.05784(18)
C36 C 0.3692(3) 0.7373(2) 0.09594(19)
H21 H 0.3744 0.7627 0.1027
C37 C 0.3526(3) 0.6631(2) 0.0782(2)
H22 H 0.3465 0.6378 0.0719
C38 C 0.3563(3) 0.6901(2) 0.0499(2)
H23 H 0.3522 0.6828 0.0245
C39 C 0.3653(3) 0.7113(2) 0.1242(2)
H24 H 0.3676 0.7191 0.1497
Zn4 Zn 0.643600(16) 0.643600(16) 0.356400(16)
Zn6 Zn 0.585088(15) 0.585088(15) 0.414912(15)
O9 O 0.09735(13) 0.36943(12) 0.05543(12)
O10 O 0.05543(12) 0.40265(13) 0.13057(12)
O11 O 0.1319(2) 0.33240(14) 0.09407(14)
O12 O 0.09407(14) 0.3681(2) 0.16760(14)
O7 O 0.40265(13) 0.86943(12) 0.94457(12)
O8 O 0.3681(2) 0.83240(14) 0.90593(14)
C27 C 0.3580(3) 0.7780(2) 0.9613(2)
H17 H 0.3467 0.7738 0.9374
C28 C 0.3542(3) 0.7513(2) 0.99036(16)
H18 H 0.3398 0.7292 0.9857
C30 C 0.37920(19) 0.81152(15) 0.96799(17)
C31 C 0.3839(2) 0.83992(16) 0.93619(17)
Zn3 Zn 0.356400(16) 0.856400(16) 0.856400(16)
Zn5 Zn 0.414912(15) 0.914912(15) 0.914912(15)
C27_2 C 0.0387(2) 0.3580(3) 0.2220(2)
H17_2 H 0.0626 0.3467 0.2262
C28_2 C 0.00964(16) 0.3542(3) 0.2487(2)
H18_2 H 0.0143 0.3398 0.2708
C30_2 C 0.03201(17) 0.37920(19) 0.18848(15)
C31_2 C 0.06381(17) 0.3839(2) 0.16008(16)
Zn1_2 Zn 0.856400(16) 0.143600(16) 0.643600(16)
Zn2_2 Zn 0.914912(15) 0.085088(15) 0.585088(15)
O1_2 O 0.90265(13) 0.13057(12) 0.55543(12)
O2_2 O 0.8681(2) 0.16760(14) 0.59407(14)
O3_2 O 0.82093(11) 0.17907(11) 0.67907(11)
O4_2 O 0.95039(9) 0.04961(9) 0.54961(9)
N1_2 N 0.8540(2) 0.3540(2) 0.3540(2)
C1_2 C 0.8580(3) 0.2220(2) 0.5387(2)
H1_2 H 0.8467 0.2262 0.5626
C2_2 C 0.8542(3) 0.2487(2) 0.50964(16)
H2_2 H 0.8398 0.2708 0.5143
C3_2 C 0.8908(2) 0.20935(16) 0.46754(16)
H3_2 H 0.9015 0.2045 0.4435
C4_2 C 0.87920(19) 0.18848(15) 0.53201(17)
C5_2 C 0.8839(2) 0.16008(16) 0.56381(17)
C6_2 C 0.89473(18) 0.18254(13) 0.49677(18)
H4_2 H 0.9083 0.1600 0.4921
C7_2 C 0.8708(2) 0.24386(16) 0.47403(16)
C8_2 C 0.8579(2) 0.3269(2) 0.3841(2)
C9_2 C 0.8660(2) 0.27156(16) 0.44216(18)
C10_2 C 0.8692(3) 0.2627(2) 0.40406(19)
H5_2 H 0.8744 0.2373 0.3973
C11_2 C 0.8526(3) 0.3369(2) 0.4218(2)
H6_2 H 0.8465 0.3622 0.4281
C12_2 C 0.8563(3) 0.3099(2) 0.4501(2)
H7_2 H 0.8522 0.3172 0.4755
C13_2 C 0.8653(3) 0.2887(2) 0.3758(2)
H8_2 H 0.8676 0.2809 0.3503
O5_2 O 0.63057(12) 0.55543(12) 0.40265(13)
O6_2 O 0.66760(14) 0.59407(14) 0.3681(2)
C14_2 C 0.7220(2) 0.5387(2) 0.3580(3)
H9_2 H 0.7262 0.5626 0.3467
C15_2 C 0.7487(2) 0.50964(16) 0.3542(3)
H10_2 H 0.7708 0.5143 0.3398
C16_2 C 0.70935(16) 0.46754(16) 0.3908(2)
H11_2 H 0.7045 0.4435 0.4015
C17_2 C 0.68848(15) 0.53201(17) 0.37920(19)
C18_2 C 0.66008(16) 0.56381(17) 0.3839(2)
C19_2 C 0.68254(13) 0.49677(18) 0.39473(18)
H12_2 H 0.6600 0.4921 0.4083
C20_2 C 0.74386(16) 0.47403(16) 0.3708(2)
C21_2 C 0.8269(2) 0.3841(2) 0.3579(2)
C22_2 C 0.77156(16) 0.44216(18) 0.3660(2)
C23_2 C 0.7627(2) 0.40406(19) 0.3692(3)
H13_2 H 0.7373 0.3973 0.3744
C24_2 C 0.8369(2) 0.4218(2) 0.3526(3)
H14_2 H 0.8622 0.4281 0.3465
C25_2 C 0.8099(2) 0.4501(2) 0.3563(3)
H15_2 H 0.8172 0.4755 0.3522
C26_2 C 0.7887(2) 0.3758(2) 0.3653(3)
H16_2 H 0.7809 0.3503 0.3676
C29_2 C 0.96754(16) 0.3908(2) 0.20935(16)
H19_2 H 0.9435 0.4015 0.2045
C32_2 C 0.99677(18) 0.39473(18) 0.18254(13)
H20_2 H 0.9921 0.4083 0.1600
C33_2 C 0.97403(16) 0.3708(2) 0.24386(16)
C34_2 C 0.8841(2) 0.3579(2) 0.3269(2)
C35_2 C 0.94216(18) 0.3660(2) 0.27156(16)
C36_2 C 0.90406(19) 0.3692(3) 0.2627(2)
H21_2 H 0.8973 0.3744 0.2373
C37_2 C 0.9218(2) 0.3526(3) 0.3369(2)
H22_2 H 0.9281 0.3465 0.3622
C38_2 C 0.9501(2) 0.3563(3) 0.3099(2)
H23_2 H 0.9755 0.3522 0.3172
C39_2 C 0.8758(2) 0.3653(3) 0.2887(2)
H24_2 H 0.8503 0.3676 0.2809
O9_2 O 0.94457(12) 0.09735(13) 0.63057(12)
O10_2 O 0.86943(12) 0.05543(12) 0.59735(13)
O11_2 O 0.90593(14) 0.1319(2) 0.66760(14)
O12_2 O 0.83240(14) 0.09407(14) 0.6319(2)
C27_3 C 0.7780(2) 0.0387(2) 0.6420(3)
H17_3 H 0.7738 0.0626 0.6533
C28_3 C 0.7513(2) 0.00964(16) 0.6458(3)
H18_3 H 0.7292 0.0143 0.6602
C30_3 C 0.81152(15) 0.03201(17) 0.62080(19)
C31_3 C 0.83992(16) 0.06381(17) 0.6161(2)
O1_3 O 0.44457(12) 0.90265(13) 0.86943(12)
O2_3 O 0.40593(14) 0.8681(2) 0.83240(14)
O3_3 O 0.32093(11) 0.82093(11) 0.82093(11)
O4_3 O 0.45039(9) 0.95039(9) 0.95039(9)
N1_3 N 0.6460(2) 0.8540(2) 0.6460(2)
C1_3 C 0.4613(2) 0.8580(3) 0.7780(2)
H1_3 H 0.4374 0.8467 0.7738
C2_3 C 0.49036(16) 0.8542(3) 0.7513(2)
H2_3 H 0.4857 0.8398 0.7292
C3_3 C 0.53246(16) 0.8908(2) 0.79065(16)
H3_3 H 0.5565 0.9015 0.7955
C4_3 C 0.46799(17) 0.87920(19) 0.81152(15)
C5_3 C 0.43619(17) 0.8839(2) 0.83992(16)
C6_3 C 0.50323(18) 0.89473(18) 0.81746(13)
H4_3 H 0.5079 0.9083 0.8400
C7_3 C 0.52597(16) 0.8708(2) 0.75614(16)
C8_3 C 0.6159(2) 0.8579(2) 0.6731(2)
C9_3 C 0.55784(18) 0.8660(2) 0.72844(16)
C10_3 C 0.59594(19) 0.8692(3) 0.7373(2)
H5_3 H 0.6027 0.8744 0.7627
C11_3 C 0.5782(2) 0.8526(3) 0.6631(2)
H6_3 H 0.5719 0.8465 0.6378
C12_3 C 0.5499(2) 0.8563(3) 0.6901(2)
H7_3 H 0.5245 0.8522 0.6828
C13_3 C 0.6242(2) 0.8653(3) 0.7113(2)
H8_3 H 0.6497 0.8676 0.7191
O5_3 O 0.59735(13) 0.63057(12) 0.44457(12)
O6_3 O 0.6319(2) 0.66760(14) 0.40593(14)
C14_3 C 0.6420(3) 0.7220(2) 0.4613(2)
H9_3 H 0.6533 0.7262 0.4374
C15_3 C 0.6458(3) 0.7487(2) 0.49036(16)
H10_3 H 0.6602 0.7708 0.4857
C16_3 C 0.6092(2) 0.70935(16) 0.53246(16)
H11_3 H 0.5985 0.7045 0.5565
C17_3 C 0.62080(19) 0.68848(15) 0.46799(17)
C18_3 C 0.6161(2) 0.66008(16) 0.43619(17)
C19_3 C 0.60527(18) 0.68254(13) 0.50323(18)
H12_3 H 0.5917 0.6600 0.5079
C20_3 C 0.6292(2) 0.74386(16) 0.52597(16)
C21_3 C 0.6421(2) 0.8269(2) 0.6159(2)
C22_3 C 0.6340(2) 0.77156(16) 0.55784(18)
C23_3 C 0.6308(3) 0.7627(2) 0.59594(19)
H13_3 H 0.6256 0.7373 0.6027
C24_3 C 0.6474(3) 0.8369(2) 0.5782(2)
H14_3 H 0.6535 0.8622 0.5719
C25_3 C 0.6437(3) 0.8099(2) 0.5499(2)
H15_3 H 0.6478 0.8172 0.5245
C26_3 C 0.6347(3) 0.7887(2) 0.6242(2)
H16_3 H 0.6324 0.7809 0.6497
C29_3 C 0.79065(16) 0.96754(16) 0.6092(2)
H19_3 H 0.7955 0.9435 0.5985
C32_3 C 0.81746(13) 0.99677(18) 0.60527(18)
H20_3 H 0.8400 0.9921 0.5917
C33_3 C 0.75614(16) 0.97403(16) 0.6292(2)
C34_3 C 0.6731(2) 0.8841(2) 0.6421(2)
C35_3 C 0.72844(16) 0.94216(18) 0.6340(2)
C36_3 C 0.7373(2) 0.90406(19) 0.6308(3)
H21_3 H 0.7627 0.8973 0.6256
C37_3 C 0.6631(2) 0.9218(2) 0.6474(3)
H22_3 H 0.6378 0.9281 0.6535
C38_3 C 0.6901(2) 0.9501(2) 0.6437(3)
H23_3 H 0.6828 0.9755 0.6478
C39_3 C 0.7113(2) 0.8758(2) 0.6347(3)
H24_3 H 0.7191 0.8503 0.6324
O9_3 O 0.36943(12) 0.94457(12) 0.90265(13)
O11_3 O 0.33240(14) 0.90593(14) 0.8681(2)
C1_4 C 0.1420(3) 0.2780(2) 0.0387(2)
H1_4 H 0.1533 0.2738 0.0626
C2_4 C 0.1458(3) 0.2513(2) 0.00964(16)
H2_4 H 0.1602 0.2292 0.0143
C4_4 C 0.12080(19) 0.31152(15) 0.03201(17)
C5_4 C 0.1161(2) 0.33992(16) 0.06381(17)
C14_4 C 0.2780(2) 0.9613(2) 0.8580(3)
H9_4 H 0.2738 0.9374 0.8467
C15_4 C 0.2513(2) 0.99036(16) 0.8542(3)
H10_4 H 0.2292 0.9857 0.8398
C17_4 C 0.31152(15) 0.96799(17) 0.87920(19)
C18_4 C 0.33992(16) 0.93619(17) 0.8839(2)
C27_4 C 0.9613(2) 0.1420(3) 0.7220(2)
H17_4 H 0.9374 0.1533 0.7262
C28_4 C 0.99036(16) 0.1458(3) 0.7487(2)
H18_4 H 0.9857 0.1602 0.7708
C30_4 C 0.96799(17) 0.12080(19) 0.68848(15)
C31_4 C 0.93619(17) 0.1161(2) 0.66008(16)
O3_4 O 0.67907(11) 0.67907(11) 0.32093(11)
O4_4 O 0.54961(9) 0.54961(9) 0.45039(9)
Zn1_3 Zn 0.856400(16) 0.643600(16) 0.143600(16)
Zn2_3 Zn 0.914912(15) 0.585088(15) 0.085088(15)
O1_4 O 0.86943(12) 0.55543(12) 0.09735(13)
O2_4 O 0.83240(14) 0.59407(14) 0.1319(2)
O3_5 O 0.82093(11) 0.67907(11) 0.17907(11)
O4_5 O 0.95039(9) 0.54961(9) 0.04961(9)
N1_4 N 0.6460(2) 0.3540(2) 0.1460(2)
C1_5 C 0.7780(2) 0.5387(2) 0.1420(3)
H1_5 H 0.7738 0.5626 0.1533
C2_5 C 0.7513(2) 0.50964(16) 0.1458(3)
H2_5 H 0.7292 0.5143 0.1602
C3_4 C 0.79065(16) 0.46754(16) 0.1092(2)
H3_4 H 0.7955 0.4435 0.0985
C4_5 C 0.81152(15) 0.53201(17) 0.12080(19)
C5_5 C 0.83992(16) 0.56381(17) 0.1161(2)
C6_4 C 0.81746(13) 0.49677(18) 0.10527(18)
H4_4 H 0.8400 0.4921 0.0917
C7_4 C 0.75614(16) 0.47403(16) 0.1292(2)
C8_4 C 0.6731(2) 0.3841(2) 0.1421(2)
C9_4 C 0.72844(16) 0.44216(18) 0.1340(2)
C10_4 C 0.7373(2) 0.40406(19) 0.1308(3)
H5_4 H 0.7627 0.3973 0.1256
C11_4 C 0.6631(2) 0.4218(2) 0.1474(3)
H6_4 H 0.6378 0.4281 0.1535
C12_4 C 0.6901(2) 0.4501(2) 0.1437(3)
H7_4 H 0.6828 0.4755 0.1478
C13_4 C 0.7113(2) 0.3758(2) 0.1347(3)
H8_4 H 0.7191 0.3503 0.1324
O5_4 O 0.44457(12) 0.40265(13) 0.36943(12)
O6_4 O 0.40593(14) 0.3681(2) 0.33240(14)
C14_5 C 0.4613(2) 0.3580(3) 0.2780(2)
H9_5 H 0.4374 0.3467 0.2738
C15_5 C 0.49036(16) 0.3542(3) 0.2513(2)
H10_5 H 0.4857 0.3398 0.2292
C16_4 C 0.53246(16) 0.3908(2) 0.29065(16)
H11_4 H 0.5565 0.4015 0.2955
C17_5 C 0.46799(17) 0.37920(19) 0.31152(15)
C18_5 C 0.43619(17) 0.3839(2) 0.33992(16)
C19_4 C 0.50323(18) 0.39473(18) 0.31746(13)
H12_4 H 0.5079 0.4083 0.3400
C20_4 C 0.52597(16) 0.3708(2) 0.25614(16)
C21_4 C 0.6159(2) 0.3579(2) 0.1731(2)
C22_4 C 0.55784(18) 0.3660(2) 0.22844(16)
C23_4 C 0.59594(19) 0.3692(3) 0.2373(2)
H13_4 H 0.6027 0.3744 0.2627
C24_4 C 0.5782(2) 0.3526(3) 0.1631(2)
H14_4 H 0.5719 0.3465 0.1378
C25_4 C 0.5499(2) 0.3563(3) 0.1901(2)
H15_4 H 0.5245 0.3522 0.1828
C26_4 C 0.6242(2) 0.3653(3) 0.2113(2)
H16_4 H 0.6497 0.3676 0.2191
C29_4 C 0.6092(2) 0.20935(16) 0.03246(16)
H19_4 H 0.5985 0.2045 0.0565
C32_4 C 0.60527(18) 0.18254(13) 0.00323(18)
H20_4 H 0.5917 0.1600 0.0079
C33_4 C 0.6292(2) 0.24386(16) 0.02597(16)
C34_4 C 0.6421(2) 0.3269(2) 0.1159(2)
C35_4 C 0.6340(2) 0.27156(16) 0.05784(18)
C36_4 C 0.6308(3) 0.2627(2) 0.09594(19)
H21_4 H 0.6256 0.2373 0.1027
C37_4 C 0.6474(3) 0.3369(2) 0.0782(2)
H22_4 H 0.6535 0.3622 0.0719
C38_4 C 0.6437(3) 0.3099(2) 0.0499(2)
H23_4 H 0.6478 0.3172 0.0245
C39_4 C 0.6347(3) 0.2887(2) 0.1242(2)
H24_4 H 0.6324 0.2809 0.1497
Zn4_2 Zn 0.356400(16) 0.356400(16) 0.356400(16)
Zn6_2 Zn 0.414912(15) 0.414912(15) 0.414912(15)
O9_4 O 0.90265(13) 0.63057(12) 0.05543(12)
O10_3 O 0.94457(12) 0.59735(13) 0.13057(12)
O11_4 O 0.8681(2) 0.66760(14) 0.09407(14)
O12_3 O 0.90593(14) 0.6319(2) 0.16760(14)
O7_2 O 0.59735(13) 0.13057(12) 0.94457(12)
O8_2 O 0.6319(2) 0.16760(14) 0.90593(14)
C27_5 C 0.6420(3) 0.2220(2) 0.9613(2)
H17_5 H 0.6533 0.2262 0.9374
C28_5 C 0.6458(3) 0.2487(2) 0.99036(16)
H18_5 H 0.6602 0.2708 0.9857
C30_5 C 0.62080(19) 0.18848(15) 0.96799(17)
C31_5 C 0.6161(2) 0.16008(16) 0.93619(17)
Zn3_2 Zn 0.643600(16) 0.143600(16) 0.856400(16)
Zn5_2 Zn 0.585088(15) 0.085088(15) 0.914912(15)
Zn1_4 Zn 0.143600(16) 0.856400(16) 0.643600(16)
Zn2_4 Zn 0.085088(15) 0.914912(15) 0.585088(15)
O1_5 O 0.09735(13) 0.86943(12) 0.55543(12)
O2_5 O 0.1319(2) 0.83240(14) 0.59407(14)
O3_6 O 0.17907(11) 0.82093(11) 0.67907(11)
O4_6 O 0.04961(9) 0.95039(9) 0.54961(9)
N1_5 N 0.1460(2) 0.6460(2) 0.3540(2)
C1_6 C 0.1420(3) 0.7780(2) 0.5387(2)
H1_6 H 0.1533 0.7738 0.5626
C2_6 C 0.1458(3) 0.7513(2) 0.50964(16)
H2_6 H 0.1602 0.7292 0.5143
C3_5 C 0.1092(2) 0.79065(16) 0.46754(16)
H3_5 H 0.0985 0.7955 0.4435
C4_6 C 0.12080(19) 0.81152(15) 0.53201(17)
C5_6 C 0.1161(2) 0.83992(16) 0.56381(17)
C6_5 C 0.10527(18) 0.81746(13) 0.49677(18)
H4_5 H 0.0917 0.8400 0.4921
C7_5 C 0.1292(2) 0.75614(16) 0.47403(16)
C8_5 C 0.1421(2) 0.6731(2) 0.3841(2)
C9_5 C 0.1340(2) 0.72844(16) 0.44216(18)
C10_5 C 0.1308(3) 0.7373(2) 0.40406(19)
H5_5 H 0.1256 0.7627 0.3973
C11_5 C 0.1474(3) 0.6631(2) 0.4218(2)
H6_5 H 0.1535 0.6378 0.4281
C12_5 C 0.1437(3) 0.6901(2) 0.4501(2)
H7_5 H 0.1478 0.6828 0.4755
C13_5 C 0.1347(3) 0.7113(2) 0.3758(2)
H8_5 H 0.1324 0.7191 0.3503
O5_5 O 0.36943(12) 0.44457(12) 0.40265(13)
O6_5 O 0.33240(14) 0.40593(14) 0.3681(2)
C14_6 C 0.2780(2) 0.4613(2) 0.3580(3)
H9_6 H 0.2738 0.4374 0.3467
C15_6 C 0.2513(2) 0.49036(16) 0.3542(3)
H10_6 H 0.2292 0.4857 0.3398
C16_5 C 0.29065(16) 0.53246(16) 0.3908(2)
H11_5 H 0.2955 0.5565 0.4015
C17_6 C 0.31152(15) 0.46799(17) 0.37920(19)
C18_6 C 0.33992(16) 0.43619(17) 0.3839(2)
C19_5 C 0.31746(13) 0.50323(18) 0.39473(18)
H12_5 H 0.3400 0.5079 0.4083
C20_5 C 0.25614(16) 0.52597(16) 0.3708(2)
C21_5 C 0.1731(2) 0.6159(2) 0.3579(2)
C22_5 C 0.22844(16) 0.55784(18) 0.3660(2)
C23_5 C 0.2373(2) 0.59594(19) 0.3692(3)
H13_5 H 0.2627 0.6027 0.3744
C24_5 C 0.1631(2) 0.5782(2) 0.3526(3)
H14_5 H 0.1378 0.5719 0.3465
C25_5 C 0.1901(2) 0.5499(2) 0.3563(3)
H15_5 H 0.1828 0.5245 0.3522
C26_5 C 0.2113(2) 0.6242(2) 0.3653(3)
H16_5 H 0.2191 0.6497 0.3676
C29_5 C 0.03246(16) 0.6092(2) 0.20935(16)
H19_5 H 0.0565 0.5985 0.2045
C32_5 C 0.00323(18) 0.60527(18) 0.18254(13)
H20_5 H 0.0079 0.5917 0.1600
C33_5 C 0.02597(16) 0.6292(2) 0.24386(16)
C34_5 C 0.1159(2) 0.6421(2) 0.3269(2)
C35_5 C 0.05784(18) 0.6340(2) 0.27156(16)
C36_5 C 0.09594(19) 0.6308(3) 0.2627(2)
H21_5 H 0.1027 0.6256 0.2373
C37_5 C 0.0782(2) 0.6474(3) 0.3369(2)
H22_5 H 0.0719 0.6535 0.3622
C38_5 C 0.0499(2) 0.6437(3) 0.3099(2)
H23_5 H 0.0245 0.6478 0.3172
C39_5 C 0.1242(2) 0.6347(3) 0.2887(2)
H24_5 H 0.1497 0.6324 0.2809
O9_5 O 0.05543(12) 0.90265(13) 0.63057(12)
O10_4 O 0.13057(12) 0.94457(12) 0.59735(13)
O11_5 O 0.09407(14) 0.8681(2) 0.66760(14)
O12_4 O 0.16760(14) 0.90593(14) 0.6319(2)
C27_6 C 0.9613(2) 0.6420(3) 0.2220(2)
H17_6 H 0.9374 0.6533 0.2262
C28_6 C 0.99036(16) 0.6458(3) 0.2487(2)
H18_6 H 0.9857 0.6602 0.2708
C30_6 C 0.96799(17) 0.62080(19) 0.18848(15)
C31_6 C 0.93619(17) 0.6161(2) 0.16008(16)
O1_6 O 0.55543(12) 0.09735(13) 0.86943(12)
O2_6 O 0.59407(14) 0.1319(2) 0.83240(14)
O3_7 O 0.67907(11) 0.17907(11) 0.82093(11)
O4_7 O 0.54961(9) 0.04961(9) 0.95039(9)
N1_6 N 0.3540(2) 0.1460(2) 0.6460(2)
C1_7 C 0.5387(2) 0.1420(3) 0.7780(2)
H1_7 H 0.5626 0.1533 0.7738
C2_7 C 0.50964(16) 0.1458(3) 0.7513(2)
H2_7 H 0.5143 0.1602 0.7292
C3_6 C 0.46754(16) 0.1092(2) 0.79065(16)
H3_6 H 0.4435 0.0985 0.7955
C4_7 C 0.53201(17) 0.12080(19) 0.81152(15)
C5_7 C 0.56381(17) 0.1161(2) 0.83992(16)
C6_6 C 0.49677(18) 0.10527(18) 0.81746(13)
H4_6 H 0.4921 0.0917 0.8400
C7_6 C 0.47403(16) 0.1292(2) 0.75614(16)
C8_6 C 0.3841(2) 0.1421(2) 0.6731(2)
C9_6 C 0.44216(18) 0.1340(2) 0.72844(16)
C10_6 C 0.40406(19) 0.1308(3) 0.7373(2)
H5_6 H 0.3973 0.1256 0.7627
C11_6 C 0.4218(2) 0.1474(3) 0.6631(2)
H6_6 H 0.4281 0.1535 0.6378
C12_6 C 0.4501(2) 0.1437(3) 0.6901(2)
H7_6 H 0.4755 0.1478 0.6828
C13_6 C 0.3758(2) 0.1347(3) 0.7113(2)
H8_6 H 0.3503 0.1324 0.7191
O5_6 O 0.40265(13) 0.36943(12) 0.44457(12)
O6_6 O 0.3681(2) 0.33240(14) 0.40593(14)
C14_7 C 0.3580(3) 0.2780(2) 0.4613(2)
H9_7 H 0.3467 0.2738 0.4374
C15_7 C 0.3542(3) 0.2513(2) 0.49036(16)
H10_7 H 0.3398 0.2292 0.4857
C16_6 C 0.3908(2) 0.29065(16) 0.53246(16)
H11_6 H 0.4015 0.2955 0.5565
C17_7 C 0.37920(19) 0.31152(15) 0.46799(17)
C18_7 C 0.3839(2) 0.33992(16) 0.43619(17)
C19_6 C 0.39473(18) 0.31746(13) 0.50323(18)
H12_6 H 0.4083 0.3400 0.5079
C20_6 C 0.3708(2) 0.25614(16) 0.52597(16)
C21_6 C 0.3579(2) 0.1731(2) 0.6159(2)
C22_6 C 0.3660(2) 0.22844(16) 0.55784(18)
C23_6 C 0.3692(3) 0.2373(2) 0.59594(19)
H13_6 H 0.3744 0.2627 0.6027
C24_6 C 0.3526(3) 0.1631(2) 0.5782(2)
H14_6 H 0.3465 0.1378 0.5719
C25_6 C 0.3563(3) 0.1901(2) 0.5499(2)
H15_6 H 0.3522 0.1828 0.5245
C26_6 C 0.3653(3) 0.2113(2) 0.6242(2)
H16_6 H 0.3676 0.2191 0.6497
C29_6 C 0.20935(16) 0.03246(16) 0.6092(2)
H19_6 H 0.2045 0.0565 0.5985
C32_6 C 0.18254(13) 0.00323(18) 0.60527(18)
H20_6 H 0.1600 0.0079 0.5917
C33_6 C 0.24386(16) 0.02597(16) 0.6292(2)
C34_6 C 0.3269(2) 0.1159(2) 0.6421(2)
C35_6 C 0.27156(16) 0.05784(18) 0.6340(2)
C36_6 C 0.2627(2) 0.09594(19) 0.6308(3)
H21_6 H 0.2373 0.1027 0.6256
C37_6 C 0.3369(2) 0.0782(2) 0.6474(3)
H22_6 H 0.3622 0.0719 0.6535
C38_6 C 0.3099(2) 0.0499(2) 0.6437(3)
H23_6 H 0.3172 0.0245 0.6478
C39_6 C 0.2887(2) 0.1242(2) 0.6347(3)
H24_6 H 0.2809 0.1497 0.6324
O9_6 O 0.63057(12) 0.05543(12) 0.90265(13)
O11_6 O 0.66760(14) 0.09407(14) 0.8681(2)
C27_7 C 0.2220(2) 0.9613(2) 0.6420(3)
H17_7 H 0.2262 0.9374 0.6533
C28_7 C 0.2487(2) 0.99036(16) 0.6458(3)
H18_7 H 0.2708 0.9857 0.6602
C30_7 C 0.18848(15) 0.96799(17) 0.62080(19)
C31_7 C 0.16008(16) 0.93619(17) 0.6161(2)
C27_8 C 0.0387(2) 0.8580(3) 0.7220(2)
H17_8 H 0.0626 0.8467 0.7262
C28_8 C 0.00964(16) 0.8542(3) 0.7487(2)
H18_8 H 0.0143 0.8398 0.7708
C30_8 C 0.03201(17) 0.87920(19) 0.68848(15)
C31_8 C 0.06381(17) 0.8839(2) 0.66008(16)
C14_8 C 0.7220(2) 0.0387(2) 0.8580(3)
H9_8 H 0.7262 0.0626 0.8467
C15_8 C 0.7487(2) 0.00964(16) 0.8542(3)
H10_8 H 0.7708 0.0143 0.8398
C17_8 C 0.68848(15) 0.03201(17) 0.87920(19)
C18_8 C 0.66008(16) 0.06381(17) 0.8839(2)
C1_8 C 0.8580(3) 0.7220(2) 0.0387(2)
H1_8 H 0.8467 0.7262 0.0626
C2_8 C 0.8542(3) 0.7487(2) 0.00964(16)
H2_8 H 0.8398 0.7708 0.0143
C4_8 C 0.87920(19) 0.68848(15) 0.03201(17)
C5_8 C 0.8839(2) 0.66008(16) 0.06381(17)
O3_8 O 0.32093(11) 0.32093(11) 0.32093(11)
O4_8 O 0.45039(9) 0.45039(9) 0.45039(9)
O7_3 O 0.59735(13) 0.86943(12) 0.05543(12)
O8_3 O 0.6319(2) 0.83240(14) 0.09407(14)
C27_9 C 0.6420(3) 0.7780(2) 0.0387(2)
H17_9 H 0.6533 0.7738 0.0626
C28_9 C 0.6458(3) 0.7513(2) 0.00964(16)
H18_9 H 0.6602 0.7292 0.0143
C30_9 C 0.62080(19) 0.81152(15) 0.03201(17)
C31_9 C 0.6161(2) 0.83992(16) 0.06381(17)
Zn3_3 Zn 0.643600(16) 0.856400(16) 0.143600(16)
Zn5_3 Zn 0.585088(15) 0.914912(15) 0.085088(15)
Zn1_5 Zn 0.856400(16) 0.356400(16) 0.856400(16)
Zn2_5 Zn 0.914912(15) 0.414912(15) 0.914912(15)
O1_7 O 0.86943(12) 0.44457(12) 0.90265(13)
O2_7 O 0.83240(14) 0.40593(14) 0.8681(2)
O3_9 O 0.82093(11) 0.32093(11) 0.82093(11)
O4_9 O 0.95039(9) 0.45039(9) 0.95039(9)
N1_7 N 0.6460(2) 0.6460(2) 0.8540(2)
C1_9 C 0.7780(2) 0.4613(2) 0.8580(3)
H1_9 H 0.7738 0.4374 0.8467
C2_9 C 0.7513(2) 0.49036(16) 0.8542(3)
H2_9 H 0.7292 0.4857 0.8398
C3_7 C 0.79065(16) 0.53246(16) 0.8908(2)
H3_7 H 0.7955 0.5565 0.9015
C4_9 C 0.81152(15) 0.46799(17) 0.87920(19)
C5_9 C 0.83992(16) 0.43619(17) 0.8839(2)
C6_7 C 0.81746(13) 0.50323(18) 0.89473(18)
H4_7 H 0.8400 0.5079 0.9083
C7_7 C 0.75614(16) 0.52597(16) 0.8708(2)
C8_7 C 0.6731(2) 0.6159(2) 0.8579(2)
C9_7 C 0.72844(16) 0.55784(18) 0.8660(2)
C10_7 C 0.7373(2) 0.59594(19) 0.8692(3)
H5_7 H 0.7627 0.6027 0.8744
C11_7 C 0.6631(2) 0.5782(2) 0.8526(3)
H6_7 H 0.6378 0.5719 0.8465
C12_7 C 0.6901(2) 0.5499(2) 0.8563(3)
H7_7 H 0.6828 0.5245 0.8522
C13_7 C 0.7113(2) 0.6242(2) 0.8653(3)
H8_7 H 0.7191 0.6497 0.8676
O5_7 O 0.44457(12) 0.59735(13) 0.63057(12)
O6_7 O 0.40593(14) 0.6319(2) 0.66760(14)
C14_9 C 0.4613(2) 0.6420(3) 0.7220(2)
H9_9 H 0.4374 0.6533 0.7262
C15_9 C 0.49036(16) 0.6458(3) 0.7487(2)
H10_9 H 0.4857 0.6602 0.7708
C16_7 C 0.53246(16) 0.6092(2) 0.70935(16)
H11_7 H 0.5565 0.5985 0.7045
C17_9 C 0.46799(17) 0.62080(19) 0.68848(15)
C18_9 C 0.43619(17) 0.6161(2) 0.66008(16)
C19_7 C 0.50323(18) 0.60527(18) 0.68254(13)
H12_7 H 0.5079 0.5917 0.6600
C20_7 C 0.52597(16) 0.6292(2) 0.74386(16)
C21_7 C 0.6159(2) 0.6421(2) 0.8269(2)
C22_7 C 0.55784(18) 0.6340(2) 0.77156(16)
C23_7 C 0.59594(19) 0.6308(3) 0.7627(2)
H13_7 H 0.6027 0.6256 0.7373
C24_7 C 0.5782(2) 0.6474(3) 0.8369(2)
H14_7 H 0.5719 0.6535 0.8622
C25_7 C 0.5499(2) 0.6437(3) 0.8099(2)
H15_7 H 0.5245 0.6478 0.8172
C26_7 C 0.6242(2) 0.6347(3) 0.7887(2)
H16_7 H 0.6497 0.6324 0.7809
C29_7 C 0.6092(2) 0.79065(16) 0.96754(16)
H19_7 H 0.5985 0.7955 0.9435
C32_7 C 0.60527(18) 0.81746(13) 0.99677(18)
H20_7 H 0.5917 0.8400 0.9921
C33_7 C 0.6292(2) 0.75614(16) 0.97403(16)
C34_7 C 0.6421(2) 0.6731(2) 0.8841(2)
C35_7 C 0.6340(2) 0.72844(16) 0.94216(18)
C36_7 C 0.6308(3) 0.7373(2) 0.90406(19)
H21_7 H 0.6256 0.7627 0.8973
C37_7 C 0.6474(3) 0.6631(2) 0.9218(2)
H22_7 H 0.6535 0.6378 0.9281
C38_7 C 0.6437(3) 0.6901(2) 0.9501(2)
H23_7 H 0.6478 0.6828 0.9755
C39_7 C 0.6347(3) 0.7113(2) 0.8758(2)
H24_7 H 0.6324 0.7191 0.8503
Zn4_3 Zn 0.356400(16) 0.643600(16) 0.643600(16)
Zn6_3 Zn 0.414912(15) 0.585088(15) 0.585088(15)
O9_7 O 0.90265(13) 0.36943(12) 0.94457(12)
O10_5 O 0.94457(12) 0.40265(13) 0.86943(12)
O11_7 O 0.8681(2) 0.33240(14) 0.90593(14)
O12_5 O 0.90593(14) 0.3681(2) 0.83240(14)
Zn1_6 Zn 0.143600(16) 0.143600(16) 0.356400(16)
Zn2_6 Zn 0.085088(15) 0.085088(15) 0.414912(15)
O1_8 O 0.09735(13) 0.13057(12) 0.44457(12)
O2_8 O 0.1319(2) 0.16760(14) 0.40593(14)
O3_10 O 0.17907(11) 0.17907(11) 0.32093(11)
O4_10 O 0.04961(9) 0.04961(9) 0.45039(9)
N1_8 N 0.1460(2) 0.3540(2) 0.6460(2)
C1_10 C 0.1420(3) 0.2220(2) 0.4613(2)
H1_10 H 0.1533 0.2262 0.4374
C2_10 C 0.1458(3) 0.2487(2) 0.49036(16)
H2_10 H 0.1602 0.2708 0.4857
C3_8 C 0.1092(2) 0.20935(16) 0.53246(16)
H3_8 H 0.0985 0.2045 0.5565
C4_10 C 0.12080(19) 0.18848(15) 0.46799(17)
C5_10 C 0.1161(2) 0.16008(16) 0.43619(17)
C6_8 C 0.10527(18) 0.18254(13) 0.50323(18)
H4_8 H 0.0917 0.1600 0.5079
C7_8 C 0.1292(2) 0.24386(16) 0.52597(16)
C8_8 C 0.1421(2) 0.3269(2) 0.6159(2)
C9_8 C 0.1340(2) 0.27156(16) 0.55784(18)
C10_8 C 0.1308(3) 0.2627(2) 0.59594(19)
H5_8 H 0.1256 0.2373 0.6027
C11_8 C 0.1474(3) 0.3369(2) 0.5782(2)
H6_8 H 0.1535 0.3622 0.5719
C12_8 C 0.1437(3) 0.3099(2) 0.5499(2)
H7_8 H 0.1478 0.3172 0.5245
C13_8 C 0.1347(3) 0.2887(2) 0.6242(2)
H8_8 H 0.1324 0.2809 0.6497
O5_8 O 0.36943(12) 0.55543(12) 0.59735(13)
O6_8 O 0.33240(14) 0.59407(14) 0.6319(2)
C14_10 C 0.2780(2) 0.5387(2) 0.6420(3)
H9_10 H 0.2738 0.5626 0.6533
C15_10 C 0.2513(2) 0.50964(16) 0.6458(3)
H10_10 H 0.2292 0.5143 0.6602
C16_8 C 0.29065(16) 0.46754(16) 0.6092(2)
H11_8 H 0.2955 0.4435 0.5985
C17_10 C 0.31152(15) 0.53201(17) 0.62080(19)
C18_10 C 0.33992(16) 0.56381(17) 0.6161(2)
C19_8 C 0.31746(13) 0.49677(18) 0.60527(18)
H12_8 H 0.3400 0.4921 0.5917
C20_8 C 0.25614(16) 0.47403(16) 0.6292(2)
C21_8 C 0.1731(2) 0.3841(2) 0.6421(2)
C22_8 C 0.22844(16) 0.44216(18) 0.6340(2)
C23_8 C 0.2373(2) 0.40406(19) 0.6308(3)
H13_8 H 0.2627 0.3973 0.6256
C24_8 C 0.1631(2) 0.4218(2) 0.6474(3)
H14_8 H 0.1378 0.4281 0.6535
C25_8 C 0.1901(2) 0.4501(2) 0.6437(3)
H15_8 H 0.1828 0.4755 0.6478
C26_8 C 0.2113(2) 0.3758(2) 0.6347(3)
H16_8 H 0.2191 0.3503 0.6324
C29_8 C 0.03246(16) 0.3908(2) 0.79065(16)
H19_8 H 0.0565 0.4015 0.7955
C32_8 C 0.00323(18) 0.39473(18) 0.81746(13)
H20_8 H 0.0079 0.4083 0.8400
C33_8 C 0.02597(16) 0.3708(2) 0.75614(16)
C34_8 C 0.1159(2) 0.3579(2) 0.6731(2)
C35_8 C 0.05784(18) 0.3660(2) 0.72844(16)
C36_8 C 0.09594(19) 0.3692(3) 0.7373(2)
H21_8 H 0.1027 0.3744 0.7627
C37_8 C 0.0782(2) 0.3526(3) 0.6631(2)
H22_8 H 0.0719 0.3465 0.6378
C38_8 C 0.0499(2) 0.3563(3) 0.6901(2)
H23_8 H 0.0245 0.3522 0.6828
C39_8 C 0.1242(2) 0.3653(3) 0.7113(2)
H24_8 H 0.1497 0.3676 0.7191
O9_8 O 0.05543(12) 0.09735(13) 0.36943(12)
O10_6 O 0.13057(12) 0.05543(12) 0.40265(13)
O11_8 O 0.09407(14) 0.1319(2) 0.33240(14)
O12_6 O 0.16760(14) 0.09407(14) 0.3681(2)
C27_10 C 0.9613(2) 0.3580(3) 0.7780(2)
H17_10 H 0.9374 0.3467 0.7738
C28_10 C 0.99036(16) 0.3542(3) 0.7513(2)
H18_10 H 0.9857 0.3398 0.7292
C30_10 C 0.96799(17) 0.37920(19) 0.81152(15)
C31_10 C 0.93619(17) 0.3839(2) 0.83992(16)
C27_11 C 0.2220(2) 0.0387(2) 0.3580(3)
H17_11 H 0.2262 0.0626 0.3467
C28_11 C 0.2487(2) 0.00964(16) 0.3542(3)
H18_11 H 0.2708 0.0143 0.3398
C30_11 C 0.18848(15) 0.03201(17) 0.37920(19)
C31_11 C 0.16008(16) 0.06381(17) 0.3839(2)
O1_9 O 0.55543(12) 0.90265(13) 0.13057(12)
O2_9 O 0.59407(14) 0.8681(2) 0.16760(14)
O3_11 O 0.67907(11) 0.82093(11) 0.17907(11)
O4_11 O 0.54961(9) 0.95039(9) 0.04961(9)
N1_9 N 0.3540(2) 0.8540(2) 0.3540(2)
C1_11 C 0.5387(2) 0.8580(3) 0.2220(2)
H1_11 H 0.5626 0.8467 0.2262
C2_11 C 0.50964(16) 0.8542(3) 0.2487(2)
H2_11 H 0.5143 0.8398 0.2708
C3_9 C 0.46754(16) 0.8908(2) 0.20935(16)
H3_9 H 0.4435 0.9015 0.2045
C4_11 C 0.53201(17) 0.87920(19) 0.18848(15)
C5_11 C 0.56381(17) 0.8839(2) 0.16008(16)
C6_9 C 0.49677(18) 0.89473(18) 0.18254(13)
H4_9 H 0.4921 0.9083 0.1600
C7_9 C 0.47403(16) 0.8708(2) 0.24386(16)
C8_9 C 0.3841(2) 0.8579(2) 0.3269(2)
C9_9 C 0.44216(18) 0.8660(2) 0.27156(16)
C10_9 C 0.40406(19) 0.8692(3) 0.2627(2)
H5_9 H 0.3973 0.8744 0.2373
C11_9 C 0.4218(2) 0.8526(3) 0.3369(2)
H6_9 H 0.4281 0.8465 0.3622
C12_9 C 0.4501(2) 0.8563(3) 0.3099(2)
H7_9 H 0.4755 0.8522 0.3172
C13_9 C 0.3758(2) 0.8653(3) 0.2887(2)
H8_9 H 0.3503 0.8676 0.2809
O5_9 O 0.40265(13) 0.63057(12) 0.55543(12)
O6_9 O 0.3681(2) 0.66760(14) 0.59407(14)
C14_11 C 0.3580(3) 0.7220(2) 0.5387(2)
H9_11 H 0.3467 0.7262 0.5626
C15_11 C 0.3542(3) 0.7487(2) 0.50964(16)
H10_11 H 0.3398 0.7708 0.5143
C16_9 C 0.3908(2) 0.70935(16) 0.46754(16)
H11_9 H 0.4015 0.7045 0.4435
C17_11 C 0.37920(19) 0.68848(15) 0.53201(17)
C18_11 C 0.3839(2) 0.66008(16) 0.56381(17)
C19_9 C 0.39473(18) 0.68254(13) 0.49677(18)
H12_9 H 0.4083 0.6600 0.4921
C20_9 C 0.3708(2) 0.74386(16) 0.47403(16)
C21_9 C 0.3579(2) 0.8269(2) 0.3841(2)
C22_9 C 0.3660(2) 0.77156(16) 0.44216(18)
C23_9 C 0.3692(3) 0.7627(2) 0.40406(19)
H13_9 H 0.3744 0.7373 0.3973
C24_9 C 0.3526(3) 0.8369(2) 0.4218(2)
H14_9 H 0.3465 0.8622 0.4281
C25_9 C 0.3563(3) 0.8099(2) 0.4501(2)
H15_9 H 0.3522 0.8172 0.4755
C26_9 C 0.3653(3) 0.7887(2) 0.3758(2)
H16_9 H 0.3676 0.7809 0.3503
C29_9 C 0.20935(16) 0.96754(16) 0.3908(2)
H19_9 H 0.2045 0.9435 0.4015
C32_9 C 0.18254(13) 0.99677(18) 0.39473(18)
H20_9 H 0.1600 0.9921 0.4083
C33_9 C 0.24386(16) 0.97403(16) 0.3708(2)
C34_9 C 0.3269(2) 0.8841(2) 0.3579(2)
C35_9 C 0.27156(16) 0.94216(18) 0.3660(2)
C36_9 C 0.2627(2) 0.90406(19) 0.3692(3)
H21_9 H 0.2373 0.8973 0.3744
C37_9 C 0.3369(2) 0.9218(2) 0.3526(3)
H22_9 H 0.3622 0.9281 0.3465
C38_9 C 0.3099(2) 0.9501(2) 0.3563(3)
H23_9 H 0.3172 0.9755 0.3522
C39_9 C 0.2887(2) 0.8758(2) 0.3653(3)
H24_9 H 0.2809 0.8503 0.3676
O9_9 O 0.63057(12) 0.94457(12) 0.09735(13)
O11_9 O 0.66760(14) 0.90593(14) 0.1319(2)
C27_12 C 0.0387(2) 0.1420(3) 0.2780(2)
H17_12 H 0.0626 0.1533 0.2738
C28_12 C 0.00964(16) 0.1458(3) 0.2513(2)
H18_12 H 0.0143 0.1602 0.2292
C30_12 C 0.03201(17) 0.12080(19) 0.31152(15)
C31_12 C 0.06381(17) 0.1161(2) 0.33992(16)
C1_12 C 0.8580(3) 0.2780(2) 0.9613(2)
H1_12 H 0.8467 0.2738 0.9374
C2_12 C 0.8542(3) 0.2513(2) 0.99036(16)
H2_12 H 0.8398 0.2292 0.9857
C4_12 C 0.87920(19) 0.31152(15) 0.96799(17)
C5_12 C 0.8839(2) 0.33992(16) 0.93619(17)
C14_12 C 0.7220(2) 0.9613(2) 0.1420(3)
H9_12 H 0.7262 0.9374 0.1533
C15_12 C 0.7487(2) 0.99036(16) 0.1458(3)
H10_12 H 0.7708 0.9857 0.1602
C17_12 C 0.68848(15) 0.96799(17) 0.12080(19)
C18_12 C 0.66008(16) 0.93619(17) 0.1161(2)
O3_12 O 0.32093(11) 0.67907(11) 0.67907(11)
O4_12 O 0.45039(9) 0.54961(9) 0.54961(9)
O7_4 O 0.40265(13) 0.13057(12) 0.05543(12)
O8_4 O 0.3681(2) 0.16760(14) 0.09407(14)
C27_13 C 0.3580(3) 0.2220(2) 0.0387(2)
H17_13 H 0.3467 0.2262 0.0626
C28_13 C 0.3542(3) 0.2487(2) 0.00964(16)
H18_13 H 0.3398 0.2708 0.0143
C30_13 C 0.37920(19) 0.18848(15) 0.03201(17)
C31_13 C 0.3839(2) 0.16008(16) 0.06381(17)
Zn3_4 Zn 0.356400(16) 0.143600(16) 0.143600(16)
Zn5_4 Zn 0.414912(15) 0.085088(15) 0.085088(15)
Zn1_7 Zn 0.143600(16) 0.643600(16) 0.856400(16)
Zn2_7 Zn 0.085088(15) 0.585088(15) 0.914912(15)
O1_10 O 0.13057(12) 0.55543(12) 0.90265(13)
O2_10 O 0.16760(14) 0.59407(14) 0.8681(2)
O3_13 O 0.17907(11) 0.67907(11) 0.82093(11)
O4_13 O 0.04961(9) 0.54961(9) 0.95039(9)
N1_10 N 0.3540(2) 0.3540(2) 0.8540(2)
C1_13 C 0.2220(2) 0.5387(2) 0.8580(3)
H1_13 H 0.2262 0.5626 0.8467
C2_13 C 0.2487(2) 0.50964(16) 0.8542(3)
H2_13 H 0.2708 0.5143 0.8398
C3_10 C 0.20935(16) 0.46754(16) 0.8908(2)
H3_10 H 0.2045 0.4435 0.9015
C4_13 C 0.18848(15) 0.53201(17) 0.87920(19)
C5_13 C 0.16008(16) 0.56381(17) 0.8839(2)
C6_10 C 0.18254(13) 0.49677(18) 0.89473(18)
H4_10 H 0.1600 0.4921 0.9083
C7_10 C 0.24386(16) 0.47403(16) 0.8708(2)
C8_10 C 0.3269(2) 0.3841(2) 0.8579(2)
C9_10 C 0.27156(16) 0.44216(18) 0.8660(2)
C10_10 C 0.2627(2) 0.40406(19) 0.8692(3)
H5_10 H 0.2373 0.3973 0.8744
C11_10 C 0.3369(2) 0.4218(2) 0.8526(3)
H6_10 H 0.3622 0.4281 0.8465
C12_10 C 0.3099(2) 0.4501(2) 0.8563(3)
H7_10 H 0.3172 0.4755 0.8522
C13_10 C 0.2887(2) 0.3758(2) 0.8653(3)
H8_10 H 0.2809 0.3503 0.8676
O5_10 O 0.55543(12) 0.40265(13) 0.63057(12)
O6_10 O 0.59407(14) 0.3681(2) 0.66760(14)
C14_13 C 0.5387(2) 0.3580(3) 0.7220(2)
H9_13 H 0.5626 0.3467 0.7262
C15_13 C 0.50964(16) 0.3542(3) 0.7487(2)
H10_13 H 0.5143 0.3398 0.7708
C16_10 C 0.46754(16) 0.3908(2) 0.70935(16)
H11_10 H 0.4435 0.4015 0.7045
C17_13 C 0.53201(17) 0.37920(19) 0.68848(15)
C18_13 C 0.56381(17) 0.3839(2) 0.66008(16)
C19_10 C 0.49677(18) 0.39473(18) 0.68254(13)
H12_10 H 0.4921 0.4083 0.6600
C20_10 C 0.47403(16) 0.3708(2) 0.74386(16)
C21_10 C 0.3841(2) 0.3579(2) 0.8269(2)
C22_10 C 0.44216(18) 0.3660(2) 0.77156(16)
C23_10 C 0.40406(19) 0.3692(3) 0.7627(2)
H13_10 H 0.3973 0.3744 0.7373
C24_10 C 0.4218(2) 0.3526(3) 0.8369(2)
H14_10 H 0.4281 0.3465 0.8622
C25_10 C 0.4501(2) 0.3563(3) 0.8099(2)
H15_10 H 0.4755 0.3522 0.8172
C26_10 C 0.3758(2) 0.3653(3) 0.7887(2)
H16_10 H 0.3503 0.3676 0.7809
C29_10 C 0.3908(2) 0.20935(16) 0.96754(16)
H19_10 H 0.4015 0.2045 0.9435
C32_10 C 0.39473(18) 0.18254(13) 0.99677(18)
H20_10 H 0.4083 0.1600 0.9921
C33_10 C 0.3708(2) 0.24386(16) 0.97403(16)
C34_10 C 0.3579(2) 0.3269(2) 0.8841(2)
C35_10 C 0.3660(2) 0.27156(16) 0.94216(18)
C36_10 C 0.3692(3) 0.2627(2) 0.90406(19)
H21_10 H 0.3744 0.2373 0.8973
C37_10 C 0.3526(3) 0.3369(2) 0.9218(2)
H22_10 H 0.3465 0.3622 0.9281
C38_10 C 0.3563(3) 0.3099(2) 0.9501(2)
H23_10 H 0.3522 0.3172 0.9755
C39_10 C 0.3653(3) 0.2887(2) 0.8758(2)
H24_10 H 0.3676 0.2809 0.8503
Zn4_4 Zn 0.643600(16) 0.356400(16) 0.643600(16)
Zn6_4 Zn 0.585088(15) 0.414912(15) 0.585088(15)
O9_10 O 0.09735(13) 0.63057(12) 0.94457(12)
O10_7 O 0.05543(12) 0.59735(13) 0.86943(12)
O11_10 O 0.1319(2) 0.66760(14) 0.90593(14)
O12_7 O 0.09407(14) 0.6319(2) 0.83240(14)
C27_14 C 0.0387(2) 0.6420(3) 0.7780(2)
H17_14 H 0.0626 0.6533 0.7738
C28_14 C 0.00964(16) 0.6458(3) 0.7513(2)
H18_14 H 0.0143 0.6602 0.7292
C30_14 C 0.03201(17) 0.62080(19) 0.81152(15)
C31_14 C 0.06381(17) 0.6161(2) 0.83992(16)
Zn1_8 Zn 0.856400(16) 0.856400(16) 0.356400(16)
Zn2_8 Zn 0.914912(15) 0.914912(15) 0.414912(15)
O1_11 O 0.90265(13) 0.86943(12) 0.44457(12)
O2_11 O 0.8681(2) 0.83240(14) 0.40593(14)
O3_14 O 0.82093(11) 0.82093(11) 0.32093(11)
O4_14 O 0.95039(9) 0.95039(9) 0.45039(9)
N1_11 N 0.8540(2) 0.6460(2) 0.6460(2)
C1_14 C 0.8580(3) 0.7780(2) 0.4613(2)
H1_14 H 0.8467 0.7738 0.4374
C2_14 C 0.8542(3) 0.7513(2) 0.49036(16)
H2_14 H 0.8398 0.7292 0.4857
C3_11 C 0.8908(2) 0.79065(16) 0.53246(16)
H3_11 H 0.9015 0.7955 0.5565
C4_14 C 0.87920(19) 0.81152(15) 0.46799(17)
C5_14 C 0.8839(2) 0.83992(16) 0.43619(17)
C6_11 C 0.89473(18) 0.81746(13) 0.50323(18)
H4_11 H 0.9083 0.8400 0.5079
C7_11 C 0.8708(2) 0.75614(16) 0.52597(16)
C8_11 C 0.8579(2) 0.6731(2) 0.6159(2)
C9_11 C 0.8660(2) 0.72844(16) 0.55784(18)
C10_11 C 0.8692(3) 0.7373(2) 0.59594(19)
H5_11 H 0.8744 0.7627 0.6027
C11_11 C 0.8526(3) 0.6631(2) 0.5782(2)
H6_11 H 0.8465 0.6378 0.5719
C12_11 C 0.8563(3) 0.6901(2) 0.5499(2)
H7_11 H 0.8522 0.6828 0.5245
C13_11 C 0.8653(3) 0.7113(2) 0.6242(2)
H8_11 H 0.8676 0.7191 0.6497
O5_11 O 0.63057(12) 0.44457(12) 0.59735(13)
O6_11 O 0.66760(14) 0.40593(14) 0.6319(2)
C14_14 C 0.7220(2) 0.4613(2) 0.6420(3)
H9_14 H 0.7262 0.4374 0.6533
C15_14 C 0.7487(2) 0.49036(16) 0.6458(3)
H10_14 H 0.7708 0.4857 0.6602
C16_11 C 0.70935(16) 0.53246(16) 0.6092(2)
H11_11 H 0.7045 0.5565 0.5985
C17_14 C 0.68848(15) 0.46799(17) 0.62080(19)
C18_14 C 0.66008(16) 0.43619(17) 0.6161(2)
C19_11 C 0.68254(13) 0.50323(18) 0.60527(18)
H12_11 H 0.6600 0.5079 0.5917
C20_11 C 0.74386(16) 0.52597(16) 0.6292(2)
C21_11 C 0.8269(2) 0.6159(2) 0.6421(2)
C22_11 C 0.77156(16) 0.55784(18) 0.6340(2)
C23_11 C 0.7627(2) 0.59594(19) 0.6308(3)
H13_11 H 0.7373 0.6027 0.6256
C24_11 C 0.8369(2) 0.5782(2) 0.6474(3)
H14_11 H 0.8622 0.5719 0.6535
C25_11 C 0.8099(2) 0.5499(2) 0.6437(3)
H15_11 H 0.8172 0.5245 0.6478
C26_11 C 0.7887(2) 0.6242(2) 0.6347(3)
H16_11 H 0.7809 0.6497 0.6324
C29_11 C 0.96754(16) 0.6092(2) 0.79065(16)
H19_11 H 0.9435 0.5985 0.7955
C32_11 C 0.99677(18) 0.60527(18) 0.81746(13)
H20_11 H 0.9921 0.5917 0.8400
C33_11 C 0.97403(16) 0.6292(2) 0.75614(16)
C34_11 C 0.8841(2) 0.6421(2) 0.6731(2)
C35_11 C 0.94216(18) 0.6340(2) 0.72844(16)
C36_11 C 0.90406(19) 0.6308(3) 0.7373(2)
H21_11 H 0.8973 0.6256 0.7627
C37_11 C 0.9218(2) 0.6474(3) 0.6631(2)
H22_11 H 0.9281 0.6535 0.6378
C38_11 C 0.9501(2) 0.6437(3) 0.6901(2)
H23_11 H 0.9755 0.6478 0.6828
C39_11 C 0.8758(2) 0.6347(3) 0.7113(2)
H24_11 H 0.8503 0.6324 0.7191
O9_11 O 0.94457(12) 0.90265(13) 0.36943(12)
O10_8 O 0.86943(12) 0.94457(12) 0.40265(13)
O11_11 O 0.90593(14) 0.8681(2) 0.33240(14)
O12_8 O 0.83240(14) 0.90593(14) 0.3681(2)
O1_12 O 0.44457(12) 0.09735(13) 0.13057(12)
O2_12 O 0.40593(14) 0.1319(2) 0.16760(14)
O3_15 O 0.32093(11) 0.17907(11) 0.17907(11)
O4_15 O 0.45039(9) 0.04961(9) 0.04961(9)
N1_12 N 0.6460(2) 0.1460(2) 0.3540(2)
C1_15 C 0.4613(2) 0.1420(3) 0.2220(2)
H1_15 H 0.4374 0.1533 0.2262
C2_15 C 0.49036(16) 0.1458(3) 0.2487(2)
H2_15 H 0.4857 0.1602 0.2708
C3_12 C 0.53246(16) 0.1092(2) 0.20935(16)
H3_12 H 0.5565 0.0985 0.2045
C4_15 C 0.46799(17) 0.12080(19) 0.18848(15)
C5_15 C 0.43619(17) 0.1161(2) 0.16008(16)
C6_12 C 0.50323(18) 0.10527(18) 0.18254(13)
H4_12 H 0.5079 0.0917 0.1600
C7_12 C 0.52597(16) 0.1292(2) 0.24386(16)
C8_12 C 0.6159(2) 0.1421(2) 0.3269(2)
C9_12 C 0.55784(18) 0.1340(2) 0.27156(16)
C10_12 C 0.59594(19) 0.1308(3) 0.2627(2)
H5_12 H 0.6027 0.1256 0.2373
C11_12 C 0.5782(2) 0.1474(3) 0.3369(2)
H6_12 H 0.5719 0.1535 0.3622
C12_12 C 0.5499(2) 0.1437(3) 0.3099(2)
H7_12 H 0.5245 0.1478 0.3172
C13_12 C 0.6242(2) 0.1347(3) 0.2887(2)
H8_12 H 0.6497 0.1324 0.2809
O5_12 O 0.59735(13) 0.36943(12) 0.55543(12)
O6_12 O 0.6319(2) 0.33240(14) 0.59407(14)
C14_15 C 0.6420(3) 0.2780(2) 0.5387(2)
H9_15 H 0.6533 0.2738 0.5626
C15_15 C 0.6458(3) 0.2513(2) 0.50964(16)
H10_15 H 0.6602 0.2292 0.5143
C16_12 C 0.6092(2) 0.29065(16) 0.46754(16)
H11_12 H 0.5985 0.2955 0.4435
C17_15 C 0.62080(19) 0.31152(15) 0.53201(17)
C18_15 C 0.6161(2) 0.33992(16) 0.56381(17)
C19_12 C 0.60527(18) 0.31746(13) 0.49677(18)
H12_12 H 0.5917 0.3400 0.4921
C20_12 C 0.6292(2) 0.25614(16) 0.47403(16)
C21_12 C 0.6421(2) 0.1731(2) 0.3841(2)
C22_12 C 0.6340(2) 0.22844(16) 0.44216(18)
C23_12 C 0.6308(3) 0.2373(2) 0.40406(19)
H13_12 H 0.6256 0.2627 0.3973
C24_12 C 0.6474(3) 0.1631(2) 0.4218(2)
H14_12 H 0.6535 0.1378 0.4281
C25_12 C 0.6437(3) 0.1901(2) 0.4501(2)
H15_12 H 0.6478 0.1828 0.4755
C26_12 C 0.6347(3) 0.2113(2) 0.3758(2)
H16_12 H 0.6324 0.2191 0.3503
C29_12 C 0.79065(16) 0.03246(16) 0.3908(2)
H19_12 H 0.7955 0.0565 0.4015
C32_12 C 0.81746(13) 0.00323(18) 0.39473(18)
H20_12 H 0.8400 0.0079 0.4083
C33_12 C 0.75614(16) 0.02597(16) 0.3708(2)
C34_12 C 0.6731(2) 0.1159(2) 0.3579(2)
C35_12 C 0.72844(16) 0.05784(18) 0.3660(2)
C36_12 C 0.7373(2) 0.09594(19) 0.3692(3)
H21_12 H 0.7627 0.1027 0.3744
C37_12 C 0.6631(2) 0.0782(2) 0.3526(3)
H22_12 H 0.6378 0.0719 0.3465
C38_12 C 0.6901(2) 0.0499(2) 0.3563(3)
H23_12 H 0.6828 0.0245 0.3522
C39_12 C 0.7113(2) 0.1242(2) 0.3653(3)
H24_12 H 0.7191 0.1497 0.3676
O9_12 O 0.36943(12) 0.05543(12) 0.09735(13)
O11_12 O 0.33240(14) 0.09407(14) 0.1319(2)
C27_15 C 0.7780(2) 0.9613(2) 0.3580(3)
H17_15 H 0.7738 0.9374 0.3467
C28_15 C 0.7513(2) 0.99036(16) 0.3542(3)
H18_15 H 0.7292 0.9857 0.3398
C30_15 C 0.81152(15) 0.96799(17) 0.37920(19)
C31_15 C 0.83992(16) 0.93619(17) 0.3839(2)
C14_16 C 0.2780(2) 0.0387(2) 0.1420(3)
H9_16 H 0.2738 0.0626 0.1533
C15_16 C 0.2513(2) 0.00964(16) 0.1458(3)
H10_16 H 0.2292 0.0143 0.1602
C17_16 C 0.31152(15) 0.03201(17) 0.12080(19)
C18_16 C 0.33992(16) 0.06381(17) 0.1161(2)
C1_16 C 0.1420(3) 0.7220(2) 0.9613(2)
H1_16 H 0.1533 0.7262 0.9374
C2_16 C 0.1458(3) 0.7487(2) 0.99036(16)
H2_16 H 0.1602 0.7708 0.9857
C4_16 C 0.12080(19) 0.68848(15) 0.96799(17)
C5_16 C 0.1161(2) 0.66008(16) 0.93619(17)
C27_16 C 0.9613(2) 0.8580(3) 0.2780(2)
H17_16 H 0.9374 0.8467 0.2738
C28_16 C 0.99036(16) 0.8542(3) 0.2513(2)
H18_16 H 0.9857 0.8398 0.2292
C30_16 C 0.96799(17) 0.87920(19) 0.31152(15)
C31_16 C 0.93619(17) 0.8839(2) 0.33992(16)
O3_16 O 0.67907(11) 0.32093(11) 0.67907(11)
O4_16 O 0.54961(9) 0.45039(9) 0.54961(9)
O7_5 O 0.86943(12) 0.40265(13) 0.05543(12)
O8_5 O 0.83240(14) 0.3681(2) 0.09407(14)
C27_17 C 0.7780(2) 0.3580(3) 0.0387(2)
H17_17 H 0.7738 0.3467 0.0626
C28_17 C 0.7513(2) 0.3542(3) 0.00964(16)
H18_17 H 0.7292 0.3398 0.0143
C30_17 C 0.81152(15) 0.37920(19) 0.03201(17)
C31_17 C 0.83992(16) 0.3839(2) 0.06381(17)
Zn3_5 Zn 0.856400(16) 0.356400(16) 0.143600(16)
Zn5_5 Zn 0.914912(15) 0.414912(15) 0.085088(15)
Zn1_9 Zn 0.356400(16) 0.143600(16) 0.856400(16)
Zn2_9 Zn 0.414912(15) 0.085088(15) 0.914912(15)
O1_13 O 0.44457(12) 0.13057(12) 0.90265(13)
O2_13 O 0.40593(14) 0.16760(14) 0.8681(2)
O3_17 O 0.32093(11) 0.17907(11) 0.82093(11)
O4_17 O 0.45039(9) 0.04961(9) 0.95039(9)
N1_13 N 0.6460(2) 0.3540(2) 0.8540(2)
C1_17 C 0.4613(2) 0.2220(2) 0.8580(3)
H1_17 H 0.4374 0.2262 0.8467
C2_17 C 0.49036(16) 0.2487(2) 0.8542(3)
H2_17 H 0.4857 0.2708 0.8398
C3_13 C 0.53246(16) 0.20935(16) 0.8908(2)
H3_13 H 0.5565 0.2045 0.9015
C4_17 C 0.46799(17) 0.18848(15) 0.87920(19)
C5_17 C 0.43619(17) 0.16008(16) 0.8839(2)
C6_13 C 0.50323(18) 0.18254(13) 0.89473(18)
H4_13 H 0.5079 0.1600 0.9083
C7_13 C 0.52597(16) 0.24386(16) 0.8708(2)
C8_13 C 0.6159(2) 0.3269(2) 0.8579(2)
C9_13 C 0.55784(18) 0.27156(16) 0.8660(2)
C10_13 C 0.59594(19) 0.2627(2) 0.8692(3)
H5_13 H 0.6027 0.2373 0.8744
C11_13 C 0.5782(2) 0.3369(2) 0.8526(3)
H6_13 H 0.5719 0.3622 0.8465
C12_13 C 0.5499(2) 0.3099(2) 0.8563(3)
H7_13 H 0.5245 0.3172 0.8522
C13_13 C 0.6242(2) 0.2887(2) 0.8653(3)
H8_13 H 0.6497 0.2809 0.8676
O5_13 O 0.59735(13) 0.55543(12) 0.63057(12)
O6_13 O 0.6319(2) 0.59407(14) 0.66760(14)
C14_17 C 0.6420(3) 0.5387(2) 0.7220(2)
H9_17 H 0.6533 0.5626 0.7262
C15_17 C 0.6458(3) 0.50964(16) 0.7487(2)
H10_17 H 0.6602 0.5143 0.7708
C16_13 C 0.6092(2) 0.46754(16) 0.70935(16)
H11_13 H 0.5985 0.4435 0.7045
C17_17 C 0.62080(19) 0.53201(17) 0.68848(15)
C18_17 C 0.6161(2) 0.56381(17) 0.66008(16)
C19_13 C 0.60527(18) 0.49677(18) 0.68254(13)
H12_13 H 0.5917 0.4921 0.6600
C20_13 C 0.6292(2) 0.47403(16) 0.74386(16)
C21_13 C 0.6421(2) 0.3841(2) 0.8269(2)
C22_13 C 0.6340(2) 0.44216(18) 0.77156(16)
C23_13 C 0.6308(3) 0.40406(19) 0.7627(2)
H13_13 H 0.6256 0.3973 0.7373
C24_13 C 0.6474(3) 0.4218(2) 0.8369(2)
H14_13 H 0.6535 0.4281 0.8622
C25_13 C 0.6437(3) 0.4501(2) 0.8099(2)
H15_13 H 0.6478 0.4755 0.8172
C26_13 C 0.6347(3) 0.3758(2) 0.7887(2)
H16_13 H 0.6324 0.3503 0.7809
C29_13 C 0.79065(16) 0.3908(2) 0.96754(16)
H19_13 H 0.7955 0.4015 0.9435
C32_13 C 0.81746(13) 0.39473(18) 0.99677(18)
H20_13 H 0.8400 0.4083 0.9921
C33_13 C 0.75614(16) 0.3708(2) 0.97403(16)
C34_13 C 0.6731(2) 0.3579(2) 0.8841(2)
C35_13 C 0.72844(16) 0.3660(2) 0.94216(18)
C36_13 C 0.7373(2) 0.3692(3) 0.90406(19)
H21_13 H 0.7627 0.3744 0.8973
C37_13 C 0.6631(2) 0.3526(3) 0.9218(2)
H22_13 H 0.6378 0.3465 0.9281
C38_13 C 0.6901(2) 0.3563(3) 0.9501(2)
H23_13 H 0.6828 0.3522 0.9755
C39_13 C 0.7113(2) 0.3653(3) 0.8758(2)
H24_13 H 0.7191 0.3676 0.8503
Zn4_5 Zn 0.643600(16) 0.643600(16) 0.643600(16)
Zn6_5 Zn 0.585088(15) 0.585088(15) 0.585088(15)
O9_13 O 0.36943(12) 0.09735(13) 0.94457(12)
O10_9 O 0.40265(13) 0.05543(12) 0.86943(12)
O11_13 O 0.33240(14) 0.1319(2) 0.90593(14)
O12_9 O 0.3681(2) 0.09407(14) 0.83240(14)
C27_18 C 0.3580(3) 0.0387(2) 0.7780(2)
H17_18 H 0.3467 0.0626 0.7738
C28_18 C 0.3542(3) 0.00964(16) 0.7513(2)
H18_18 H 0.3398 0.0143 0.7292
C30_18 C 0.37920(19) 0.03201(17) 0.81152(15)
C31_18 C 0.3839(2) 0.06381(17) 0.83992(16)
Zn1_10 Zn 0.143600(16) 0.856400(16) 0.356400(16)
Zn2_10 Zn 0.085088(15) 0.914912(15) 0.414912(15)
O1_14 O 0.13057(12) 0.90265(13) 0.44457(12)
O2_14 O 0.16760(14) 0.8681(2) 0.40593(14)
O3_18 O 0.17907(11) 0.82093(11) 0.32093(11)
O4_18 O 0.04961(9) 0.95039(9) 0.45039(9)
N1_14 N 0.3540(2) 0.8540(2) 0.6460(2)
C1_18 C 0.2220(2) 0.8580(3) 0.4613(2)
H1_18 H 0.2262 0.8467 0.4374
C2_18 C 0.2487(2) 0.8542(3) 0.49036(16)
H2_18 H 0.2708 0.8398 0.4857
C3_14 C 0.20935(16) 0.8908(2) 0.53246(16)
H3_14 H 0.2045 0.9015 0.5565
C4_18 C 0.18848(15) 0.87920(19) 0.46799(17)
C5_18 C 0.16008(16) 0.8839(2) 0.43619(17)
C6_14 C 0.18254(13) 0.89473(18) 0.50323(18)
H4_14 H 0.1600 0.9083 0.5079
C7_14 C 0.24386(16) 0.8708(2) 0.52597(16)
C8_14 C 0.3269(2) 0.8579(2) 0.6159(2)
C9_14 C 0.27156(16) 0.8660(2) 0.55784(18)
C10_14 C 0.2627(2) 0.8692(3) 0.59594(19)
H5_14 H 0.2373 0.8744 0.6027
C11_14 C 0.3369(2) 0.8526(3) 0.5782(2)
H6_14 H 0.3622 0.8465 0.5719
C12_14 C 0.3099(2) 0.8563(3) 0.5499(2)
H7_14 H 0.3172 0.8522 0.5245
C13_14 C 0.2887(2) 0.8653(3) 0.6242(2)
H8_14 H 0.2809 0.8676 0.6497
O5_14 O 0.55543(12) 0.63057(12) 0.59735(13)
O6_14 O 0.59407(14) 0.66760(14) 0.6319(2)
C14_18 C 0.5387(2) 0.7220(2) 0.6420(3)
H9_18 H 0.5626 0.7262 0.6533
C15_18 C 0.50964(16) 0.7487(2) 0.6458(3)
H10_18 H 0.5143 0.7708 0.6602
C16_14 C 0.46754(16) 0.70935(16) 0.6092(2)
H11_14 H 0.4435 0.7045 0.5985
C17_18 C 0.53201(17) 0.68848(15) 0.62080(19)
C18_18 C 0.56381(17) 0.66008(16) 0.6161(2)
C19_14 C 0.49677(18) 0.68254(13) 0.60527(18)
H12_14 H 0.4921 0.6600 0.5917
C20_14 C 0.47403(16) 0.74386(16) 0.6292(2)
C21_14 C 0.3841(2) 0.8269(2) 0.6421(2)
C22_14 C 0.44216(18) 0.77156(16) 0.6340(2)
C23_14 C 0.40406(19) 0.7627(2) 0.6308(3)
H13_14 H 0.3973 0.7373 0.6256
C24_14 C 0.4218(2) 0.8369(2) 0.6474(3)
H14_14 H 0.4281 0.8622 0.6535
C25_14 C 0.4501(2) 0.8099(2) 0.6437(3)
H15_14 H 0.4755 0.8172 0.6478
C26_14 C 0.3758(2) 0.7887(2) 0.6347(3)
H16_14 H 0.3503 0.7809 0.6324
C29_14 C 0.3908(2) 0.96754(16) 0.79065(16)
H19_14 H 0.4015 0.9435 0.7955
C32_14 C 0.39473(18) 0.99677(18) 0.81746(13)
H20_14 H 0.4083 0.9921 0.8400
C33_14 C 0.3708(2) 0.97403(16) 0.75614(16)
C34_14 C 0.3579(2) 0.8841(2) 0.6731(2)
C35_14 C 0.3660(2) 0.94216(18) 0.72844(16)
C36_14 C 0.3692(3) 0.90406(19) 0.7373(2)
H21_14 H 0.3744 0.8973 0.7627
C37_14 C 0.3526(3) 0.9218(2) 0.6631(2)
H22_14 H 0.3465 0.9281 0.6378
C38_14 C 0.3563(3) 0.9501(2) 0.6901(2)
H23_14 H 0.3522 0.9755 0.6828
C39_14 C 0.3653(3) 0.8758(2) 0.7113(2)
H24_14 H 0.3676 0.8503 0.7191
O9_14 O 0.09735(13) 0.94457(12) 0.36943(12)
O10_10 O 0.05543(12) 0.86943(12) 0.40265(13)
O11_14 O 0.1319(2) 0.90593(14) 0.33240(14)
O12_10 O 0.09407(14) 0.83240(14) 0.3681(2)
C27_19 C 0.0387(2) 0.7780(2) 0.3580(3)
H17_19 H 0.0626 0.7738 0.3467
C28_19 C 0.00964(16) 0.7513(2) 0.3542(3)
H18_19 H 0.0143 0.7292 0.3398
C30_19 C 0.03201(17) 0.81152(15) 0.37920(19)
C31_19 C 0.06381(17) 0.83992(16) 0.3839(2)
O1_15 O 0.90265(13) 0.44457(12) 0.13057(12)
O2_15 O 0.8681(2) 0.40593(14) 0.16760(14)
O3_19 O 0.82093(11) 0.32093(11) 0.17907(11)
O4_19 O 0.95039(9) 0.45039(9) 0.04961(9)
N1_15 N 0.8540(2) 0.6460(2) 0.3540(2)
C1_19 C 0.8580(3) 0.4613(2) 0.2220(2)
H1_19 H 0.8467 0.4374 0.2262
C2_19 C 0.8542(3) 0.49036(16) 0.2487(2)
H2_19 H 0.8398 0.4857 0.2708
C3_15 C 0.8908(2) 0.53246(16) 0.20935(16)
H3_15 H 0.9015 0.5565 0.2045
C4_19 C 0.87920(19) 0.46799(17) 0.18848(15)
C5_19 C 0.8839(2) 0.43619(17) 0.16008(16)
C6_15 C 0.89473(18) 0.50323(18) 0.18254(13)
H4_15 H 0.9083 0.5079 0.1600
C7_15 C 0.8708(2) 0.52597(16) 0.24386(16)
C8_15 C 0.8579(2) 0.6159(2) 0.3269(2)
C9_15 C 0.8660(2) 0.55784(18) 0.27156(16)
C10_15 C 0.8692(3) 0.59594(19) 0.2627(2)
H5_15 H 0.8744 0.6027 0.2373
C11_15 C 0.8526(3) 0.5782(2) 0.3369(2)
H6_15 H 0.8465 0.5719 0.3622
C12_15 C 0.8563(3) 0.5499(2) 0.3099(2)
H7_15 H 0.8522 0.5245 0.3172
C13_15 C 0.8653(3) 0.6242(2) 0.2887(2)
H8_15 H 0.8676 0.6497 0.2809
O5_15 O 0.63057(12) 0.59735(13) 0.55543(12)
O6_15 O 0.66760(14) 0.6319(2) 0.59407(14)
C14_19 C 0.7220(2) 0.6420(3) 0.5387(2)
H9_19 H 0.7262 0.6533 0.5626
C15_19 C 0.7487(2) 0.6458(3) 0.50964(16)
H10_19 H 0.7708 0.6602 0.5143
C16_15 C 0.70935(16) 0.6092(2) 0.46754(16)
H11_15 H 0.7045 0.5985 0.4435
C17_19 C 0.68848(15) 0.62080(19) 0.53201(17)
C18_19 C 0.66008(16) 0.6161(2) 0.56381(17)
C19_15 C 0.68254(13) 0.60527(18) 0.49677(18)
H12_15 H 0.6600 0.5917 0.4921
C20_15 C 0.74386(16) 0.6292(2) 0.47403(16)
C21_15 C 0.8269(2) 0.6421(2) 0.3841(2)
C22_15 C 0.77156(16) 0.6340(2) 0.44216(18)
C23_15 C 0.7627(2) 0.6308(3) 0.40406(19)
H13_15 H 0.7373 0.6256 0.3973
C24_15 C 0.8369(2) 0.6474(3) 0.4218(2)
H14_15 H 0.8622 0.6535 0.4281
C25_15 C 0.8099(2) 0.6437(3) 0.4501(2)
H15_15 H 0.8172 0.6478 0.4755
C26_15 C 0.7887(2) 0.6347(3) 0.3758(2)
H16_15 H 0.7809 0.6324 0.3503
C29_15 C 0.96754(16) 0.79065(16) 0.3908(2)
H19_15 H 0.9435 0.7955 0.4015
C32_15 C 0.99677(18) 0.81746(13) 0.39473(18)
H20_15 H 0.9921 0.8400 0.4083
C33_15 C 0.97403(16) 0.75614(16) 0.3708(2)
C34_15 C 0.8841(2) 0.6731(2) 0.3579(2)
C35_15 C 0.94216(18) 0.72844(16) 0.3660(2)
C36_15 C 0.90406(19) 0.7373(2) 0.3692(3)
H21_15 H 0.8973 0.7627 0.3744
C37_15 C 0.9218(2) 0.6631(2) 0.3526(3)
H22_15 H 0.9281 0.6378 0.3465
C38_15 C 0.9501(2) 0.6901(2) 0.3563(3)
H23_15 H 0.9755 0.6828 0.3522
C39_15 C 0.8758(2) 0.7113(2) 0.3653(3)
H24_15 H 0.8503 0.7191 0.3676
O9_15 O 0.94457(12) 0.36943(12) 0.09735(13)
O11_15 O 0.90593(14) 0.33240(14) 0.1319(2)
O3_20 O 0.67907(11) 0.67907(11) 0.67907(11)
O4_20 O 0.54961(9) 0.54961(9) 0.54961(9)
C14_20 C 0.2780(2) 0.1420(3) 0.9613(2)
H9_20 H 0.2738 0.1533 0.9374
C15_20 C 0.2513(2) 0.1458(3) 0.99036(16)
H10_20 H 0.2292 0.1602 0.9857
C17_20 C 0.31152(15) 0.12080(19) 0.96799(17)
C18_20 C 0.33992(16) 0.1161(2) 0.93619(17)
C1_20 C 0.1420(3) 0.9613(2) 0.2780(2)
H1_20 H 0.1533 0.9374 0.2738
C2_20 C 0.1458(3) 0.99036(16) 0.2513(2)
H2_20 H 0.1602 0.9857 0.2292
C4_20 C 0.12080(19) 0.96799(17) 0.31152(15)
C5_20 C 0.1161(2) 0.93619(17) 0.33992(16)
C27_20 C 0.9613(2) 0.2780(2) 0.1420(3)
H17_20 H 0.9374 0.2738 0.1533
C28_20 C 0.99036(16) 0.2513(2) 0.1458(3)
H18_20 H 0.9857 0.2292 0.1602
C30_20 C 0.96799(17) 0.31152(15) 0.12080(19)
C31_20 C 0.93619(17) 0.33992(16) 0.1161(2)
O7_6 O 0.13057(12) 0.59735(13) 0.05543(12)
O8_6 O 0.16760(14) 0.6319(2) 0.09407(14)
C27_21 C 0.2220(2) 0.6420(3) 0.0387(2)
H17_21 H 0.2262 0.6533 0.0626
C28_21 C 0.2487(2) 0.6458(3) 0.00964(16)
H18_21 H 0.2708 0.6602 0.0143
C30_21 C 0.18848(15) 0.62080(19) 0.03201(17)
C31_21 C 0.16008(16) 0.6161(2) 0.06381(17)
Zn3_6 Zn 0.143600(16) 0.643600(16) 0.143600(16)
Zn5_6 Zn 0.085088(15) 0.585088(15) 0.085088(15)
Zn1_11 Zn 0.643600(16) 0.856400(16) 0.856400(16)
Zn2_11 Zn 0.585088(15) 0.914912(15) 0.914912(15)
O1_16 O 0.55543(12) 0.86943(12) 0.90265(13)
O2_16 O 0.59407(14) 0.83240(14) 0.8681(2)
O3_21 O 0.67907(11) 0.82093(11) 0.82093(11)
O4_21 O 0.54961(9) 0.95039(9) 0.95039(9)
N1_16 N 0.3540(2) 0.6460(2) 0.8540(2)
C1_21 C 0.5387(2) 0.7780(2) 0.8580(3)
H1_21 H 0.5626 0.7738 0.8467
C2_21 C 0.50964(16) 0.7513(2) 0.8542(3)
H2_21 H 0.5143 0.7292 0.8398
C3_16 C 0.46754(16) 0.79065(16) 0.8908(2)
H3_16 H 0.4435 0.7955 0.9015
C4_21 C 0.53201(17) 0.81152(15) 0.87920(19)
C5_21 C 0.56381(17) 0.83992(16) 0.8839(2)
C6_16 C 0.49677(18) 0.81746(13) 0.89473(18)
H4_16 H 0.4921 0.8400 0.9083
C7_16 C 0.47403(16) 0.75614(16) 0.8708(2)
C8_16 C 0.3841(2) 0.6731(2) 0.8579(2)
C9_16 C 0.44216(18) 0.72844(16) 0.8660(2)
C10_16 C 0.40406(19) 0.7373(2) 0.8692(3)
H5_16 H 0.3973 0.7627 0.8744
C11_16 C 0.4218(2) 0.6631(2) 0.8526(3)
H6_16 H 0.4281 0.6378 0.8465
C12_16 C 0.4501(2) 0.6901(2) 0.8563(3)
H7_16 H 0.4755 0.6828 0.8522
C13_16 C 0.3758(2) 0.7113(2) 0.8653(3)
H8_16 H 0.3503 0.7191 0.8676
O5_16 O 0.40265(13) 0.44457(12) 0.63057(12)
O6_16 O 0.3681(2) 0.40593(14) 0.66760(14)
C14_21 C 0.3580(3) 0.4613(2) 0.7220(2)
H9_21 H 0.3467 0.4374 0.7262
C15_21 C 0.3542(3) 0.49036(16) 0.7487(2)
H10_21 H 0.3398 0.4857 0.7708
C16_16 C 0.3908(2) 0.53246(16) 0.70935(16)
H11_16 H 0.4015 0.5565 0.7045
C17_21 C 0.37920(19) 0.46799(17) 0.68848(15)
C18_21 C 0.3839(2) 0.43619(17) 0.66008(16)
C19_16 C 0.39473(18) 0.50323(18) 0.68254(13)
H12_16 H 0.4083 0.5079 0.6600
C20_16 C 0.3708(2) 0.52597(16) 0.74386(16)
C21_16 C 0.3579(2) 0.6159(2) 0.8269(2)
C22_16 C 0.3660(2) 0.55784(18) 0.77156(16)
C23_16 C 0.3692(3) 0.59594(19) 0.7627(2)
H13_16 H 0.3744 0.6027 0.7373
C24_16 C 0.3526(3) 0.5782(2) 0.8369(2)
H14_16 H 0.3465 0.5719 0.8622
C25_16 C 0.3563(3) 0.5499(2) 0.8099(2)
H15_16 H 0.3522 0.5245 0.8172
C26_16 C 0.3653(3) 0.6242(2) 0.7887(2)
H16_16 H 0.3676 0.6497 0.7809
C29_16 C 0.20935(16) 0.6092(2) 0.96754(16)
H19_16 H 0.2045 0.5985 0.9435
C32_16 C 0.18254(13) 0.60527(18) 0.99677(18)
H20_16 H 0.1600 0.5917 0.9921
C33_16 C 0.24386(16) 0.6292(2) 0.97403(16)
C34_16 C 0.3269(2) 0.6421(2) 0.8841(2)
C35_16 C 0.27156(16) 0.6340(2) 0.94216(18)
C36_16 C 0.2627(2) 0.6308(3) 0.90406(19)
H21_16 H 0.2373 0.6256 0.8973
C37_16 C 0.3369(2) 0.6474(3) 0.9218(2)
H22_16 H 0.3622 0.6535 0.9281
C38_16 C 0.3099(2) 0.6437(3) 0.9501(2)
H23_16 H 0.3172 0.6478 0.9755
C39_16 C 0.2887(2) 0.6347(3) 0.8758(2)
H24_16 H 0.2809 0.6324 0.8503
Zn4_6 Zn 0.356400(16) 0.356400(16) 0.643600(16)
Zn6_6 Zn 0.414912(15) 0.414912(15) 0.585088(15)
O9_16 O 0.63057(12) 0.90265(13) 0.94457(12)
O10_11 O 0.59735(13) 0.94457(12) 0.86943(12)
O11_16 O 0.66760(14) 0.8681(2) 0.90593(14)
O12_11 O 0.6319(2) 0.90593(14) 0.83240(14)
Zn1_12 Zn 0.856400(16) 0.143600(16) 0.356400(16)
Zn2_12 Zn 0.914912(15) 0.085088(15) 0.414912(15)
O1_17 O 0.86943(12) 0.09735(13) 0.44457(12)
O2_17 O 0.83240(14) 0.1319(2) 0.40593(14)
O3_22 O 0.82093(11) 0.17907(11) 0.32093(11)
O4_22 O 0.95039(9) 0.04961(9) 0.45039(9)
N1_17 N 0.6460(2) 0.1460(2) 0.6460(2)
C1_22 C 0.7780(2) 0.1420(3) 0.4613(2)
H1_22 H 0.7738 0.1533 0.4374
C2_22 C 0.7513(2) 0.1458(3) 0.49036(16)
H2_22 H 0.7292 0.1602 0.4857
C3_17 C 0.79065(16) 0.1092(2) 0.53246(16)
H3_17 H 0.7955 0.0985 0.5565
C4_22 C 0.81152(15) 0.12080(19) 0.46799(17)
C5_22 C 0.83992(16) 0.1161(2) 0.43619(17)
C6_17 C 0.81746(13) 0.10527(18) 0.50323(18)
H4_17 H 0.8400 0.0917 0.5079
C7_17 C 0.75614(16) 0.1292(2) 0.52597(16)
C8_17 C 0.6731(2) 0.1421(2) 0.6159(2)
C9_17 C 0.72844(16) 0.1340(2) 0.55784(18)
C10_17 C 0.7373(2) 0.1308(3) 0.59594(19)
H5_17 H 0.7627 0.1256 0.6027
C11_17 C 0.6631(2) 0.1474(3) 0.5782(2)
H6_17 H 0.6378 0.1535 0.5719
C12_17 C 0.6901(2) 0.1437(3) 0.5499(2)
H7_17 H 0.6828 0.1478 0.5245
C13_17 C 0.7113(2) 0.1347(3) 0.6242(2)
H8_17 H 0.7191 0.1324 0.6497
O5_17 O 0.44457(12) 0.36943(12) 0.59735(13)
O6_17 O 0.40593(14) 0.33240(14) 0.6319(2)
C14_22 C 0.4613(2) 0.2780(2) 0.6420(3)
H9_22 H 0.4374 0.2738 0.6533
C15_22 C 0.49036(16) 0.2513(2) 0.6458(3)
H10_22 H 0.4857 0.2292 0.6602
C16_17 C 0.53246(16) 0.29065(16) 0.6092(2)
H11_17 H 0.5565 0.2955 0.5985
C17_22 C 0.46799(17) 0.31152(15) 0.62080(19)
C18_22 C 0.43619(17) 0.33992(16) 0.6161(2)
C19_17 C 0.50323(18) 0.31746(13) 0.60527(18)
H12_17 H 0.5079 0.3400 0.5917
C20_17 C 0.52597(16) 0.25614(16) 0.6292(2)
C21_17 C 0.6159(2) 0.1731(2) 0.6421(2)
C22_17 C 0.55784(18) 0.22844(16) 0.6340(2)
C23_17 C 0.59594(19) 0.2373(2) 0.6308(3)
H13_17 H 0.6027 0.2627 0.6256
C24_17 C 0.5782(2) 0.1631(2) 0.6474(3)
H14_17 H 0.5719 0.1378 0.6535
C25_17 C 0.5499(2) 0.1901(2) 0.6437(3)
H15_17 H 0.5245 0.1828 0.6478
C26_17 C 0.6242(2) 0.2113(2) 0.6347(3)
H16_17 H 0.6497 0.2191 0.6324
C29_17 C 0.6092(2) 0.03246(16) 0.79065(16)
H19_17 H 0.5985 0.0565 0.7955
C32_17 C 0.60527(18) 0.00323(18) 0.81746(13)
H20_17 H 0.5917 0.0079 0.8400
C33_17 C 0.6292(2) 0.02597(16) 0.75614(16)
C34_17 C 0.6421(2) 0.1159(2) 0.6731(2)
C35_17 C 0.6340(2) 0.05784(18) 0.72844(16)
C36_17 C 0.6308(3) 0.09594(19) 0.7373(2)
H21_17 H 0.6256 0.1027 0.7627
C37_17 C 0.6474(3) 0.0782(2) 0.6631(2)
H22_17 H 0.6535 0.0719 0.6378
C38_17 C 0.6437(3) 0.0499(2) 0.6901(2)
H23_17 H 0.6478 0.0245 0.6828
C39_17 C 0.6347(3) 0.1242(2) 0.7113(2)
H24_17 H 0.6324 0.1497 0.7191
O9_17 O 0.90265(13) 0.05543(12) 0.36943(12)
O10_12 O 0.94457(12) 0.13057(12) 0.40265(13)
O11_17 O 0.8681(2) 0.09407(14) 0.33240(14)
O12_12 O 0.90593(14) 0.16760(14) 0.3681(2)
C27_22 C 0.6420(3) 0.9613(2) 0.7780(2)
H17_22 H 0.6533 0.9374 0.7738
C28_22 C 0.6458(3) 0.99036(16) 0.7513(2)
H18_22 H 0.6602 0.9857 0.7292
C30_22 C 0.62080(19) 0.96799(17) 0.81152(15)
C31_22 C 0.6161(2) 0.93619(17) 0.83992(16)
O1_18 O 0.09735(13) 0.55543(12) 0.13057(12)
O2_18 O 0.1319(2) 0.59407(14) 0.16760(14)
O3_23 O 0.17907(11) 0.67907(11) 0.17907(11)
O4_23 O 0.04961(9) 0.54961(9) 0.04961(9)
N1_18 N 0.1460(2) 0.3540(2) 0.3540(2)
C1_23 C 0.1420(3) 0.5387(2) 0.2220(2)
H1_23 H 0.1533 0.5626 0.2262
C2_23 C 0.1458(3) 0.50964(16) 0.2487(2)
H2_23 H 0.1602 0.5143 0.2708
C3_18 C 0.1092(2) 0.46754(16) 0.20935(16)
H3_18 H 0.0985 0.4435 0.2045
C4_23 C 0.12080(19) 0.53201(17) 0.18848(15)
C5_23 C 0.1161(2) 0.56381(17) 0.16008(16)
C6_18 C 0.10527(18) 0.49677(18) 0.18254(13)
H4_18 H 0.0917 0.4921 0.1600
C7_18 C 0.1292(2) 0.47403(16) 0.24386(16)
C8_18 C 0.1421(2) 0.3841(2) 0.3269(2)
C9_18 C 0.1340(2) 0.44216(18) 0.27156(16)
C10_18 C 0.1308(3) 0.40406(19) 0.2627(2)
H5_18 H 0.1256 0.3973 0.2373
C11_18 C 0.1474(3) 0.4218(2) 0.3369(2)
H6_18 H 0.1535 0.4281 0.3622
C12_18 C 0.1437(3) 0.4501(2) 0.3099(2)
H7_18 H 0.1478 0.4755 0.3172
C13_18 C 0.1347(3) 0.3758(2) 0.2887(2)
H8_18 H 0.1324 0.3503 0.2809
O5_18 O 0.36943(12) 0.40265(13) 0.55543(12)
O6_18 O 0.33240(14) 0.3681(2) 0.59407(14)
C14_23 C 0.2780(2) 0.3580(3) 0.5387(2)
H9_23 H 0.2738 0.3467 0.5626
C15_23 C 0.2513(2) 0.3542(3) 0.50964(16)
H10_23 H 0.2292 0.3398 0.5143
C16_18 C 0.29065(16) 0.3908(2) 0.46754(16)
H11_18 H 0.2955 0.4015 0.4435
C17_23 C 0.31152(15) 0.37920(19) 0.53201(17)
C18_23 C 0.33992(16) 0.3839(2) 0.56381(17)
C19_18 C 0.31746(13) 0.39473(18) 0.49677(18)
H12_18 H 0.3400 0.4083 0.4921
C20_18 C 0.25614(16) 0.3708(2) 0.47403(16)
C21_18 C 0.1731(2) 0.3579(2) 0.3841(2)
C22_18 C 0.22844(16) 0.3660(2) 0.44216(18)
C23_18 C 0.2373(2) 0.3692(3) 0.40406(19)
H13_18 H 0.2627 0.3744 0.3973
C24_18 C 0.1631(2) 0.3526(3) 0.4218(2)
H14_18 H 0.1378 0.3465 0.4281
C25_18 C 0.1901(2) 0.3563(3) 0.4501(2)
H15_18 H 0.1828 0.3522 0.4755
C26_18 C 0.2113(2) 0.3653(3) 0.3758(2)
H16_18 H 0.2191 0.3676 0.3503
C29_18 C 0.03246(16) 0.20935(16) 0.3908(2)
H19_18 H 0.0565 0.2045 0.4015
C32_18 C 0.00323(18) 0.18254(13) 0.39473(18)
H20_18 H 0.0079 0.1600 0.4083
C33_18 C 0.02597(16) 0.24386(16) 0.3708(2)
C34_18 C 0.1159(2) 0.3269(2) 0.3579(2)
C35_18 C 0.05784(18) 0.27156(16) 0.3660(2)
C36_18 C 0.09594(19) 0.2627(2) 0.3692(3)
H21_18 H 0.1027 0.2373 0.3744
C37_18 C 0.0782(2) 0.3369(2) 0.3526(3)
H22_18 H 0.0719 0.3622 0.3465
C38_18 C 0.0499(2) 0.3099(2) 0.3563(3)
H23_18 H 0.0245 0.3172 0.3522
C39_18 C 0.1242(2) 0.2887(2) 0.3653(3)
H24_18 H 0.1497 0.2809 0.3676
O9_18 O 0.05543(12) 0.63057(12) 0.09735(13)
O11_18 O 0.09407(14) 0.66760(14) 0.1319(2)
C27_23 C 0.9613(2) 0.2220(2) 0.3580(3)
H17_23 H 0.9374 0.2262 0.3467
C28_23 C 0.99036(16) 0.2487(2) 0.3542(3)
H18_23 H 0.9857 0.2708 0.3398
C30_23 C 0.96799(17) 0.18848(15) 0.37920(19)
C31_23 C 0.93619(17) 0.16008(16) 0.3839(2)
O3_24 O 0.32093(11) 0.32093(11) 0.67907(11)
O4_24 O 0.45039(9) 0.45039(9) 0.54961(9)
C27_24 C 0.0387(2) 0.7220(2) 0.1420(3)
H17_24 H 0.0626 0.7262 0.1533
C28_24 C 0.00964(16) 0.7487(2) 0.1458(3)
H18_24 H 0.0143 0.7708 0.1602
C30_24 C 0.03201(17) 0.68848(15) 0.12080(19)
C31_24 C 0.06381(17) 0.66008(16) 0.1161(2)
C1_24 C 0.8580(3) 0.0387(2) 0.2780(2)
H1_24 H 0.8467 0.0626 0.2738
C2_24 C 0.8542(3) 0.00964(16) 0.2513(2)
H2_24 H 0.8398 0.0143 0.2292
C4_24 C 0.87920(19) 0.03201(17) 0.31152(15)
C5_24 C 0.8839(2) 0.06381(17) 0.33992(16)
C14_24 C 0.7220(2) 0.8580(3) 0.9613(2)
H9_24 H 0.7262 0.8467 0.9374
C15_24 C 0.7487(2) 0.8542(3) 0.99036(16)
H10_24 H 0.7708 0.8398 0.9857
C17_24 C 0.68848(15) 0.87920(19) 0.96799(17)
C18_24 C 0.66008(16) 0.8839(2) 0.93619(17)
Zn1_13 Zn 0.356400(16) 0.856400(16) 0.143600(16)
Zn2_13 Zn 0.414912(15) 0.914912(15) 0.085088(15)
O1_19 O 0.44457(12) 0.86943(12) 0.09735(13)
O2_19 O 0.40593(14) 0.83240(14) 0.1319(2)
O3_25 O 0.32093(11) 0.82093(11) 0.17907(11)
O4_25 O 0.45039(9) 0.95039(9) 0.04961(9)
N1_19 N 0.6460(2) 0.6460(2) 0.1460(2)
C1_25 C 0.4613(2) 0.7780(2) 0.1420(3)
H1_25 H 0.4374 0.7738 0.1533
C2_25 C 0.49036(16) 0.7513(2) 0.1458(3)
H2_25 H 0.4857 0.7292 0.1602
C3_19 C 0.53246(16) 0.79065(16) 0.1092(2)
H3_19 H 0.5565 0.7955 0.0985
C4_25 C 0.46799(17) 0.81152(15) 0.12080(19)
C5_25 C 0.43619(17) 0.83992(16) 0.1161(2)
C6_19 C 0.50323(18) 0.81746(13) 0.10527(18)
H4_19 H 0.5079 0.8400 0.0917
C7_19 C 0.52597(16) 0.75614(16) 0.1292(2)
C8_19 C 0.6159(2) 0.6731(2) 0.1421(2)
C9_19 C 0.55784(18) 0.72844(16) 0.1340(2)
C10_19 C 0.59594(19) 0.7373(2) 0.1308(3)
H5_19 H 0.6027 0.7627 0.1256
C11_19 C 0.5782(2) 0.6631(2) 0.1474(3)
H6_19 H 0.5719 0.6378 0.1535
C12_19 C 0.5499(2) 0.6901(2) 0.1437(3)
H7_19 H 0.5245 0.6828 0.1478
C13_19 C 0.6242(2) 0.7113(2) 0.1347(3)
H8_19 H 0.6497 0.7191 0.1324
O5_19 O 0.59735(13) 0.44457(12) 0.36943(12)
O6_19 O 0.6319(2) 0.40593(14) 0.33240(14)
C14_25 C 0.6420(3) 0.4613(2) 0.2780(2)
H9_25 H 0.6533 0.4374 0.2738
C15_25 C 0.6458(3) 0.49036(16) 0.2513(2)
H10_25 H 0.6602 0.4857 0.2292
C16_19 C 0.6092(2) 0.53246(16) 0.29065(16)
H11_19 H 0.5985 0.5565 0.2955
C17_25 C 0.62080(19) 0.46799(17) 0.31152(15)
C18_25 C 0.6161(2) 0.43619(17) 0.33992(16)
C19_19 C 0.60527(18) 0.50323(18) 0.31746(13)
H12_19 H 0.5917 0.5079 0.3400
C20_19 C 0.6292(2) 0.52597(16) 0.25614(16)
C21_19 C 0.6421(2) 0.6159(2) 0.1731(2)
C22_19 C 0.6340(2) 0.55784(18) 0.22844(16)
C23_19 C 0.6308(3) 0.59594(19) 0.2373(2)
H13_19 H 0.6256 0.6027 0.2627
C24_19 C 0.6474(3) 0.5782(2) 0.1631(2)
H14_19 H 0.6535 0.5719 0.1378
C25_19 C 0.6437(3) 0.5499(2) 0.1901(2)
H15_19 H 0.6478 0.5245 0.1828
C26_19 C 0.6347(3) 0.6242(2) 0.2113(2)
H16_19 H 0.6324 0.6497 0.2191
C29_19 C 0.79065(16) 0.6092(2) 0.03246(16)
H19_19 H 0.7955 0.5985 0.0565
C32_19 C 0.81746(13) 0.60527(18) 0.00323(18)
H20_19 H 0.8400 0.5917 0.0079
C33_19 C 0.75614(16) 0.6292(2) 0.02597(16)
C34_19 C 0.6731(2) 0.6421(2) 0.1159(2)
C35_19 C 0.72844(16) 0.6340(2) 0.05784(18)
C36_19 C 0.7373(2) 0.6308(3) 0.09594(19)
H21_19 H 0.7627 0.6256 0.1027
C37_19 C 0.6631(2) 0.6474(3) 0.0782(2)
H22_19 H 0.6378 0.6535 0.0719
C38_19 C 0.6901(2) 0.6437(3) 0.0499(2)
H23_19 H 0.6828 0.6478 0.0245
C39_19 C 0.7113(2) 0.6347(3) 0.1242(2)
H24_19 H 0.7191 0.6324 0.1497
Zn4_7 Zn 0.643600(16) 0.356400(16) 0.356400(16)
Zn6_7 Zn 0.585088(15) 0.414912(15) 0.414912(15)
O9_19 O 0.36943(12) 0.90265(13) 0.05543(12)
O10_13 O 0.40265(13) 0.94457(12) 0.13057(12)
O11_19 O 0.33240(14) 0.8681(2) 0.09407(14)
O12_13 O 0.3681(2) 0.90593(14) 0.16760(14)
O7_7 O 0.86943(12) 0.59735(13) 0.94457(12)
O8_7 O 0.83240(14) 0.6319(2) 0.90593(14)
C27_25 C 0.7780(2) 0.6420(3) 0.9613(2)
H17_25 H 0.7738 0.6533 0.9374
C28_25 C 0.7513(2) 0.6458(3) 0.99036(16)
H18_25 H 0.7292 0.6602 0.9857
C30_25 C 0.81152(15) 0.62080(19) 0.96799(17)
C31_25 C 0.83992(16) 0.6161(2) 0.93619(17)
Zn3_7 Zn 0.856400(16) 0.643600(16) 0.856400(16)
Zn5_7 Zn 0.914912(15) 0.585088(15) 0.914912(15)
Zn1_14 Zn 0.143600(16) 0.143600(16) 0.643600(16)
Zn2_14 Zn 0.085088(15) 0.085088(15) 0.585088(15)
O1_20 O 0.13057(12) 0.09735(13) 0.55543(12)
O2_20 O 0.16760(14) 0.1319(2) 0.59407(14)
O3_26 O 0.17907(11) 0.17907(11) 0.67907(11)
O4_26 O 0.04961(9) 0.04961(9) 0.54961(9)
N1_20 N 0.3540(2) 0.1460(2) 0.3540(2)
C1_26 C 0.2220(2) 0.1420(3) 0.5387(2)
H1_26 H 0.2262 0.1533 0.5626
C2_26 C 0.2487(2) 0.1458(3) 0.50964(16)
H2_26 H 0.2708 0.1602 0.5143
C3_20 C 0.20935(16) 0.1092(2) 0.46754(16)
H3_20 H 0.2045 0.0985 0.4435
C4_26 C 0.18848(15) 0.12080(19) 0.53201(17)
C5_26 C 0.16008(16) 0.1161(2) 0.56381(17)
C6_20 C 0.18254(13) 0.10527(18) 0.49677(18)
H4_20 H 0.1600 0.0917 0.4921
C7_20 C 0.24386(16) 0.1292(2) 0.47403(16)
C8_20 C 0.3269(2) 0.1421(2) 0.3841(2)
C9_20 C 0.27156(16) 0.1340(2) 0.44216(18)
C10_20 C 0.2627(2) 0.1308(3) 0.40406(19)
H5_20 H 0.2373 0.1256 0.3973
C11_20 C 0.3369(2) 0.1474(3) 0.4218(2)
H6_20 H 0.3622 0.1535 0.4281
C12_20 C 0.3099(2) 0.1437(3) 0.4501(2)
H7_20 H 0.3172 0.1478 0.4755
C13_20 C 0.2887(2) 0.1347(3) 0.3758(2)
H8_20 H 0.2809 0.1324 0.3503
O5_20 O 0.55543(12) 0.36943(12) 0.40265(13)
O6_20 O 0.59407(14) 0.33240(14) 0.3681(2)
C14_26 C 0.5387(2) 0.2780(2) 0.3580(3)
H9_26 H 0.5626 0.2738 0.3467
C15_26 C 0.50964(16) 0.2513(2) 0.3542(3)
H10_26 H 0.5143 0.2292 0.3398
C16_20 C 0.46754(16) 0.29065(16) 0.3908(2)
H11_20 H 0.4435 0.2955 0.4015
C17_26 C 0.53201(17) 0.31152(15) 0.37920(19)
C18_26 C 0.56381(17) 0.33992(16) 0.3839(2)
C19_20 C 0.49677(18) 0.31746(13) 0.39473(18)
H12_20 H 0.4921 0.3400 0.4083
C20_20 C 0.47403(16) 0.25614(16) 0.3708(2)
C21_20 C 0.3841(2) 0.1731(2) 0.3579(2)
C22_20 C 0.44216(18) 0.22844(16) 0.3660(2)
C23_20 C 0.40406(19) 0.2373(2) 0.3692(3)
H13_20 H 0.3973 0.2627 0.3744
C24_20 C 0.4218(2) 0.1631(2) 0.3526(3)
H14_20 H 0.4281 0.1378 0.3465
C25_20 C 0.4501(2) 0.1901(2) 0.3563(3)
H15_20 H 0.4755 0.1828 0.3522
C26_20 C 0.3758(2) 0.2113(2) 0.3653(3)
H16_20 H 0.3503 0.2191 0.3676
C29_20 C 0.3908(2) 0.03246(16) 0.20935(16)
H19_20 H 0.4015 0.0565 0.2045
C32_20 C 0.39473(18) 0.00323(18) 0.18254(13)
H20_20 H 0.4083 0.0079 0.1600
C33_20 C 0.3708(2) 0.02597(16) 0.24386(16)
C34_20 C 0.3579(2) 0.1159(2) 0.3269(2)
C35_20 C 0.3660(2) 0.05784(18) 0.27156(16)
C36_20 C 0.3692(3) 0.09594(19) 0.2627(2)
H21_20 H 0.3744 0.1027 0.2373
C37_20 C 0.3526(3) 0.0782(2) 0.3369(2)
H22_20 H 0.3465 0.0719 0.3622
C38_20 C 0.3563(3) 0.0499(2) 0.3099(2)
H23_20 H 0.3522 0.0245 0.3172
C39_20 C 0.3653(3) 0.1242(2) 0.2887(2)
H24_20 H 0.3676 0.1497 0.2809
O9_20 O 0.09735(13) 0.05543(12) 0.63057(12)
O10_14 O 0.05543(12) 0.13057(12) 0.59735(13)
O11_20 O 0.1319(2) 0.09407(14) 0.66760(14)
O12_14 O 0.09407(14) 0.16760(14) 0.6319(2)
C27_26 C 0.3580(3) 0.9613(2) 0.2220(2)
H17_26 H 0.3467 0.9374 0.2262
C28_26 C 0.3542(3) 0.99036(16) 0.2487(2)
H18_26 H 0.3398 0.9857 0.2708
C30_26 C 0.37920(19) 0.96799(17) 0.18848(15)
C31_26 C 0.3839(2) 0.93619(17) 0.16008(16)
C27_27 C 0.0387(2) 0.2220(2) 0.6420(3)
H17_27 H 0.0626 0.2262 0.6533
C28_27 C 0.00964(16) 0.2487(2) 0.6458(3)
H18_27 H 0.0143 0.2708 0.6602
C30_27 C 0.03201(17) 0.18848(15) 0.62080(19)
C31_27 C 0.06381(17) 0.16008(16) 0.6161(2)
O1_21 O 0.90265(13) 0.55543(12) 0.86943(12)
O2_21 O 0.8681(2) 0.59407(14) 0.83240(14)
O3_27 O 0.82093(11) 0.67907(11) 0.82093(11)
O4_27 O 0.95039(9) 0.54961(9) 0.95039(9)
N1_21 N 0.8540(2) 0.3540(2) 0.6460(2)
C1_27 C 0.8580(3) 0.5387(2) 0.7780(2)
H1_27 H 0.8467 0.5626 0.7738
C2_27 C 0.8542(3) 0.50964(16) 0.7513(2)
H2_27 H 0.8398 0.5143 0.7292
C3_21 C 0.8908(2) 0.46754(16) 0.79065(16)
H3_21 H 0.9015 0.4435 0.7955
C4_27 C 0.87920(19) 0.53201(17) 0.81152(15)
C5_27 C 0.8839(2) 0.56381(17) 0.83992(16)
C6_21 C 0.89473(18) 0.49677(18) 0.81746(13)
H4_21 H 0.9083 0.4921 0.8400
C7_21 C 0.8708(2) 0.47403(16) 0.75614(16)
C8_21 C 0.8579(2) 0.3841(2) 0.6731(2)
C9_21 C 0.8660(2) 0.44216(18) 0.72844(16)
C10_21 C 0.8692(3) 0.40406(19) 0.7373(2)
H5_21 H 0.8744 0.3973 0.7627
C11_21 C 0.8526(3) 0.4218(2) 0.6631(2)
H6_21 H 0.8465 0.4281 0.6378
C12_21 C 0.8563(3) 0.4501(2) 0.6901(2)
H7_21 H 0.8522 0.4755 0.6828
C13_21 C 0.8653(3) 0.3758(2) 0.7113(2)
H8_21 H 0.8676 0.3503 0.7191
O5_21 O 0.63057(12) 0.40265(13) 0.44457(12)
O6_21 O 0.66760(14) 0.3681(2) 0.40593(14)
C14_27 C 0.7220(2) 0.3580(3) 0.4613(2)
H9_27 H 0.7262 0.3467 0.4374
C15_27 C 0.7487(2) 0.3542(3) 0.49036(16)
H10_27 H 0.7708 0.3398 0.4857
C16_21 C 0.70935(16) 0.3908(2) 0.53246(16)
H11_21 H 0.7045 0.4015 0.5565
C17_27 C 0.68848(15) 0.37920(19) 0.46799(17)
C18_27 C 0.66008(16) 0.3839(2) 0.43619(17)
C19_21 C 0.68254(13) 0.39473(18) 0.50323(18)
H12_21 H 0.6600 0.4083 0.5079
C20_21 C 0.74386(16) 0.3708(2) 0.52597(16)
C21_21 C 0.8269(2) 0.3579(2) 0.6159(2)
C22_21 C 0.77156(16) 0.3660(2) 0.55784(18)
C23_21 C 0.7627(2) 0.3692(3) 0.59594(19)
H13_21 H 0.7373 0.3744 0.6027
C24_21 C 0.8369(2) 0.3526(3) 0.5782(2)
H14_21 H 0.8622 0.3465 0.5719
C25_21 C 0.8099(2) 0.3563(3) 0.5499(2)
H15_21 H 0.8172 0.3522 0.5245
C26_21 C 0.7887(2) 0.3653(3) 0.6242(2)
H16_21 H 0.7809 0.3676 0.6497
C29_21 C 0.96754(16) 0.20935(16) 0.6092(2)
H19_21 H 0.9435 0.2045 0.5985
C32_21 C 0.99677(18) 0.18254(13) 0.60527(18)
H20_21 H 0.9921 0.1600 0.5917
C33_21 C 0.97403(16) 0.24386(16) 0.6292(2)
C34_21 C 0.8841(2) 0.3269(2) 0.6421(2)
C35_21 C 0.94216(18) 0.27156(16) 0.6340(2)
C36_21 C 0.90406(19) 0.2627(2) 0.6308(3)
H21_21 H 0.8973 0.2373 0.6256
C37_21 C 0.9218(2) 0.3369(2) 0.6474(3)
H22_21 H 0.9281 0.3622 0.6535
C38_21 C 0.9501(2) 0.3099(2) 0.6437(3)
H23_21 H 0.9755 0.3172 0.6478
C39_21 C 0.8758(2) 0.2887(2) 0.6347(3)
H24_21 H 0.8503 0.2809 0.6324
O9_21 O 0.94457(12) 0.63057(12) 0.90265(13)
O11_21 O 0.90593(14) 0.66760(14) 0.8681(2)
O3_28 O 0.67907(11) 0.32093(11) 0.32093(11)
O4_28 O 0.54961(9) 0.45039(9) 0.45039(9)
C1_28 C 0.1420(3) 0.0387(2) 0.7220(2)
H1_28 H 0.1533 0.0626 0.7262
C2_28 C 0.1458(3) 0.00964(16) 0.7487(2)
H2_28 H 0.1602 0.0143 0.7708
C4_28 C 0.12080(19) 0.03201(17) 0.68848(15)
C5_28 C 0.1161(2) 0.06381(17) 0.66008(16)
C14_28 C 0.2780(2) 0.8580(3) 0.0387(2)
H9_28 H 0.2738 0.8467 0.0626
C15_28 C 0.2513(2) 0.8542(3) 0.00964(16)
H10_28 H 0.2292 0.8398 0.0143
C17_28 C 0.31152(15) 0.87920(19) 0.03201(17)
C18_28 C 0.33992(16) 0.8839(2) 0.06381(17)
C27_28 C 0.9613(2) 0.7220(2) 0.8580(3)
H17_28 H 0.9374 0.7262 0.8467
C28_28 C 0.99036(16) 0.7487(2) 0.8542(3)
H18_28 H 0.9857 0.7708 0.8398
C30_28 C 0.96799(17) 0.68848(15) 0.87920(19)
C31_28 C 0.93619(17) 0.66008(16) 0.8839(2)
Zn1_15 Zn 0.643600(16) 0.143600(16) 0.143600(16)
Zn2_15 Zn 0.585088(15) 0.085088(15) 0.085088(15)
O1_22 O 0.55543(12) 0.13057(12) 0.09735(13)
O2_22 O 0.59407(14) 0.16760(14) 0.1319(2)
O3_29 O 0.67907(11) 0.17907(11) 0.17907(11)
O4_29 O 0.54961(9) 0.04961(9) 0.04961(9)
N1_22 N 0.3540(2) 0.3540(2) 0.1460(2)
C1_29 C 0.5387(2) 0.2220(2) 0.1420(3)
H1_29 H 0.5626 0.2262 0.1533
C2_29 C 0.50964(16) 0.2487(2) 0.1458(3)
H2_29 H 0.5143 0.2708 0.1602
C3_22 C 0.46754(16) 0.20935(16) 0.1092(2)
H3_22 H 0.4435 0.2045 0.0985
C4_29 C 0.53201(17) 0.18848(15) 0.12080(19)
C5_29 C 0.56381(17) 0.16008(16) 0.1161(2)
C6_22 C 0.49677(18) 0.18254(13) 0.10527(18)
H4_22 H 0.4921 0.1600 0.0917
C7_22 C 0.47403(16) 0.24386(16) 0.1292(2)
C8_22 C 0.3841(2) 0.3269(2) 0.1421(2)
C9_22 C 0.44216(18) 0.27156(16) 0.1340(2)
C10_22 C 0.40406(19) 0.2627(2) 0.1308(3)
H5_22 H 0.3973 0.2373 0.1256
C11_22 C 0.4218(2) 0.3369(2) 0.1474(3)
H6_22 H 0.4281 0.3622 0.1535
C12_22 C 0.4501(2) 0.3099(2) 0.1437(3)
H7_22 H 0.4755 0.3172 0.1478
C13_22 C 0.3758(2) 0.2887(2) 0.1347(3)
H8_22 H 0.3503 0.2809 0.1324
O5_22 O 0.40265(13) 0.55543(12) 0.36943(12)
O6_22 O 0.3681(2) 0.59407(14) 0.33240(14)
C14_29 C 0.3580(3) 0.5387(2) 0.2780(2)
H9_29 H 0.3467 0.5626 0.2738
C15_29 C 0.3542(3) 0.50964(16) 0.2513(2)
H10_29 H 0.3398 0.5143 0.2292
C16_22 C 0.3908(2) 0.46754(16) 0.29065(16)
H11_22 H 0.4015 0.4435 0.2955
C17_29 C 0.37920(19) 0.53201(17) 0.31152(15)
C18_29 C 0.3839(2) 0.56381(17) 0.33992(16)
C19_22 C 0.39473(18) 0.49677(18) 0.31746(13)
H12_22 H 0.4083 0.4921 0.3400
C20_22 C 0.3708(2) 0.47403(16) 0.25614(16)
C21_22 C 0.3579(2) 0.3841(2) 0.1731(2)
C22_22 C 0.3660(2) 0.44216(18) 0.22844(16)
C23_22 C 0.3692(3) 0.40406(19) 0.2373(2)
H13_22 H 0.3744 0.3973 0.2627
C24_22 C 0.3526(3) 0.4218(2) 0.1631(2)
H14_22 H 0.3465 0.4281 0.1378
C25_22 C 0.3563(3) 0.4501(2) 0.1901(2)
H15_22 H 0.3522 0.4755 0.1828
C26_22 C 0.3653(3) 0.3758(2) 0.2113(2)
H16_22 H 0.3676 0.3503 0.2191
C29_22 C 0.20935(16) 0.3908(2) 0.03246(16)
H19_22 H 0.2045 0.4015 0.0565
C32_22 C 0.18254(13) 0.39473(18) 0.00323(18)
H20_22 H 0.1600 0.4083 0.0079
C33_22 C 0.24386(16) 0.3708(2) 0.02597(16)
C34_22 C 0.3269(2) 0.3579(2) 0.1159(2)
C35_22 C 0.27156(16) 0.3660(2) 0.05784(18)
C36_22 C 0.2627(2) 0.3692(3) 0.09594(19)
H21_22 H 0.2373 0.3744 0.1027
C37_22 C 0.3369(2) 0.3526(3) 0.0782(2)
H22_22 H 0.3622 0.3465 0.0719
C38_22 C 0.3099(2) 0.3563(3) 0.0499(2)
H23_22 H 0.3172 0.3522 0.0245
C39_22 C 0.2887(2) 0.3653(3) 0.1242(2)
H24_22 H 0.2809 0.3676 0.1497
Zn4_8 Zn 0.356400(16) 0.643600(16) 0.356400(16)
Zn6_8 Zn 0.414912(15) 0.585088(15) 0.414912(15)
O9_22 O 0.63057(12) 0.09735(13) 0.05543(12)
O10_15 O 0.59735(13) 0.05543(12) 0.13057(12)
O11_22 O 0.66760(14) 0.1319(2) 0.09407(14)
O12_15 O 0.6319(2) 0.09407(14) 0.16760(14)
O7_8 O 0.13057(12) 0.40265(13) 0.94457(12)
O8_8 O 0.16760(14) 0.3681(2) 0.90593(14)
C27_29 C 0.2220(2) 0.3580(3) 0.9613(2)
H17_29 H 0.2262 0.3467 0.9374
C28_29 C 0.2487(2) 0.3542(3) 0.99036(16)
H18_29 H 0.2708 0.3398 0.9857
C30_29 C 0.18848(15) 0.37920(19) 0.96799(17)
C31_29 C 0.16008(16) 0.3839(2) 0.93619(17)
Zn3_8 Zn 0.143600(16) 0.356400(16) 0.856400(16)
Zn5_8 Zn 0.085088(15) 0.414912(15) 0.914912(15)
C27_30 C 0.6420(3) 0.0387(2) 0.2220(2)
H17_30 H 0.6533 0.0626 0.2262
C28_30 C 0.6458(3) 0.00964(16) 0.2487(2)
H18_30 H 0.6602 0.0143 0.2708
C30_30 C 0.62080(19) 0.03201(17) 0.18848(15)
C31_30 C 0.6161(2) 0.06381(17) 0.16008(16)
Zn1_16 Zn 0.856400(16) 0.856400(16) 0.643600(16)
Zn2_16 Zn 0.914912(15) 0.914912(15) 0.585088(15)
O1_23 O 0.86943(12) 0.90265(13) 0.55543(12)
O2_23 O 0.83240(14) 0.8681(2) 0.59407(14)
O3_30 O 0.82093(11) 0.82093(11) 0.67907(11)
O4_30 O 0.95039(9) 0.95039(9) 0.54961(9)
N1_23 N 0.6460(2) 0.8540(2) 0.3540(2)
C1_30 C 0.7780(2) 0.8580(3) 0.5387(2)
H1_30 H 0.7738 0.8467 0.5626
C2_30 C 0.7513(2) 0.8542(3) 0.50964(16)
H2_30 H 0.7292 0.8398 0.5143
C3_23 C 0.79065(16) 0.8908(2) 0.46754(16)
H3_23 H 0.7955 0.9015 0.4435
C4_30 C 0.81152(15) 0.87920(19) 0.53201(17)
C5_30 C 0.83992(16) 0.8839(2) 0.56381(17)
C6_23 C 0.81746(13) 0.89473(18) 0.49677(18)
H4_23 H 0.8400 0.9083 0.4921
C7_23 C 0.75614(16) 0.8708(2) 0.47403(16)
C8_23 C 0.6731(2) 0.8579(2) 0.3841(2)
C9_23 C 0.72844(16) 0.8660(2) 0.44216(18)
C10_23 C 0.7373(2) 0.8692(3) 0.40406(19)
H5_23 H 0.7627 0.8744 0.3973
C11_23 C 0.6631(2) 0.8526(3) 0.4218(2)
H6_23 H 0.6378 0.8465 0.4281
C12_23 C 0.6901(2) 0.8563(3) 0.4501(2)
H7_23 H 0.6828 0.8522 0.4755
C13_23 C 0.7113(2) 0.8653(3) 0.3758(2)
H8_23 H 0.7191 0.8676 0.3503
O5_23 O 0.44457(12) 0.63057(12) 0.40265(13)
O6_23 O 0.40593(14) 0.66760(14) 0.3681(2)
C14_30 C 0.4613(2) 0.7220(2) 0.3580(3)
H9_30 H 0.4374 0.7262 0.3467
C15_30 C 0.49036(16) 0.7487(2) 0.3542(3)
H10_30 H 0.4857 0.7708 0.3398
C16_23 C 0.53246(16) 0.70935(16) 0.3908(2)
H11_23 H 0.5565 0.7045 0.4015
C17_30 C 0.46799(17) 0.68848(15) 0.37920(19)
C18_30 C 0.43619(17) 0.66008(16) 0.3839(2)
C19_23 C 0.50323(18) 0.68254(13) 0.39473(18)
H12_23 H 0.5079 0.6600 0.4083
C20_23 C 0.52597(16) 0.74386(16) 0.3708(2)
C21_23 C 0.6159(2) 0.8269(2) 0.3579(2)
C22_23 C 0.55784(18) 0.77156(16) 0.3660(2)
C23_23 C 0.59594(19) 0.7627(2) 0.3692(3)
H13_23 H 0.6027 0.7373 0.3744
C24_23 C 0.5782(2) 0.8369(2) 0.3526(3)
H14_23 H 0.5719 0.8622 0.3465
C25_23 C 0.5499(2) 0.8099(2) 0.3563(3)
H15_23 H 0.5245 0.8172 0.3522
C26_23 C 0.6242(2) 0.7887(2) 0.3653(3)
H16_23 H 0.6497 0.7809 0.3676
C29_23 C 0.6092(2) 0.96754(16) 0.20935(16)
H19_23 H 0.5985 0.9435 0.2045
C32_23 C 0.60527(18) 0.99677(18) 0.18254(13)
H20_23 H 0.5917 0.9921 0.1600
C33_23 C 0.6292(2) 0.97403(16) 0.24386(16)
C34_23 C 0.6421(2) 0.8841(2) 0.3269(2)
C35_23 C 0.6340(2) 0.94216(18) 0.27156(16)
C36_23 C 0.6308(3) 0.90406(19) 0.2627(2)
H21_23 H 0.6256 0.8973 0.2373
C37_23 C 0.6474(3) 0.9218(2) 0.3369(2)
H22_23 H 0.6535 0.9281 0.3622
C38_23 C 0.6437(3) 0.9501(2) 0.3099(2)
H23_23 H 0.6478 0.9755 0.3172
C39_23 C 0.6347(3) 0.8758(2) 0.2887(2)
H24_23 H 0.6324 0.8503 0.2809
O9_23 O 0.90265(13) 0.94457(12) 0.63057(12)
O10_16 O 0.94457(12) 0.86943(12) 0.59735(13)
O11_23 O 0.8681(2) 0.90593(14) 0.66760(14)
O12_16 O 0.90593(14) 0.83240(14) 0.6319(2)
O1_24 O 0.09735(13) 0.44457(12) 0.86943(12)
O2_24 O 0.1319(2) 0.40593(14) 0.83240(14)
O3_31 O 0.17907(11) 0.32093(11) 0.82093(11)
O4_31 O 0.04961(9) 0.45039(9) 0.95039(9)
N1_24 N 0.1460(2) 0.6460(2) 0.6460(2)
C1_31 C 0.1420(3) 0.4613(2) 0.7780(2)
H1_31 H 0.1533 0.4374 0.7738
C2_31 C 0.1458(3) 0.49036(16) 0.7513(2)
H2_31 H 0.1602 0.4857 0.7292
C3_24 C 0.1092(2) 0.53246(16) 0.79065(16)
H3_24 H 0.0985 0.5565 0.7955
C4_31 C 0.12080(19) 0.46799(17) 0.81152(15)
C5_31 C 0.1161(2) 0.43619(17) 0.83992(16)
C6_24 C 0.10527(18) 0.50323(18) 0.81746(13)
H4_24 H 0.0917 0.5079 0.8400
C7_24 C 0.1292(2) 0.52597(16) 0.75614(16)
C8_24 C 0.1421(2) 0.6159(2) 0.6731(2)
C9_24 C 0.1340(2) 0.55784(18) 0.72844(16)
C10_24 C 0.1308(3) 0.59594(19) 0.7373(2)
H5_24 H 0.1256 0.6027 0.7627
C11_24 C 0.1474(3) 0.5782(2) 0.6631(2)
H6_24 H 0.1535 0.5719 0.6378
C12_24 C 0.1437(3) 0.5499(2) 0.6901(2)
H7_24 H 0.1478 0.5245 0.6828
C13_24 C 0.1347(3) 0.6242(2) 0.7113(2)
H8_24 H 0.1324 0.6497 0.7191
O5_24 O 0.36943(12) 0.59735(13) 0.44457(12)
O6_24 O 0.33240(14) 0.6319(2) 0.40593(14)
C14_31 C 0.2780(2) 0.6420(3) 0.4613(2)
H9_31 H 0.2738 0.6533 0.4374
C15_31 C 0.2513(2) 0.6458(3) 0.49036(16)
H10_31 H 0.2292 0.6602 0.4857
C16_24 C 0.29065(16) 0.6092(2) 0.53246(16)
H11_24 H 0.2955 0.5985 0.5565
C17_31 C 0.31152(15) 0.62080(19) 0.46799(17)
C18_31 C 0.33992(16) 0.6161(2) 0.43619(17)
C19_24 C 0.31746(13) 0.60527(18) 0.50323(18)
H12_24 H 0.3400 0.5917 0.5079
C20_24 C 0.25614(16) 0.6292(2) 0.52597(16)
C21_24 C 0.1731(2) 0.6421(2) 0.6159(2)
C22_24 C 0.22844(16) 0.6340(2) 0.55784(18)
C23_24 C 0.2373(2) 0.6308(3) 0.59594(19)
H13_24 H 0.2627 0.6256 0.6027
C24_24 C 0.1631(2) 0.6474(3) 0.5782(2)
H14_24 H 0.1378 0.6535 0.5719
C25_24 C 0.1901(2) 0.6437(3) 0.5499(2)
H15_24 H 0.1828 0.6478 0.5245
C26_24 C 0.2113(2) 0.6347(3) 0.6242(2)
H16_24 H 0.2191 0.6324 0.6497
C29_24 C 0.03246(16) 0.79065(16) 0.6092(2)
H19_24 H 0.0565 0.7955 0.5985
C32_24 C 0.00323(18) 0.81746(13) 0.60527(18)
H20_24 H 0.0079 0.8400 0.5917
C33_24 C 0.02597(16) 0.75614(16) 0.6292(2)
C34_24 C 0.1159(2) 0.6731(2) 0.6421(2)
C35_24 C 0.05784(18) 0.72844(16) 0.6340(2)
C36_24 C 0.09594(19) 0.7373(2) 0.6308(3)
H21_24 H 0.1027 0.7627 0.6256
C37_24 C 0.0782(2) 0.6631(2) 0.6474(3)
H22_24 H 0.0719 0.6378 0.6535
C38_24 C 0.0499(2) 0.6901(2) 0.6437(3)
H23_24 H 0.0245 0.6828 0.6478
C39_24 C 0.1242(2) 0.7113(2) 0.6347(3)
H24_24 H 0.1497 0.7191 0.6324
O9_24 O 0.05543(12) 0.36943(12) 0.90265(13)
O11_24 O 0.09407(14) 0.33240(14) 0.8681(2)
C27_31 C 0.9613(2) 0.7780(2) 0.6420(3)
H17_31 H 0.9374 0.7738 0.6533
C28_31 C 0.99036(16) 0.7513(2) 0.6458(3)
H18_31 H 0.9857 0.7292 0.6602
C30_31 C 0.96799(17) 0.81152(15) 0.62080(19)
C31_31 C 0.93619(17) 0.83992(16) 0.6161(2)
O3_32 O 0.32093(11) 0.67907(11) 0.32093(11)
O4_32 O 0.45039(9) 0.54961(9) 0.45039(9)
C27_32 C 0.0387(2) 0.2780(2) 0.8580(3)
H17_32 H 0.0626 0.2738 0.8467
C28_32 C 0.00964(16) 0.2513(2) 0.8542(3)
H18_32 H 0.0143 0.2292 0.8398
C30_32 C 0.03201(17) 0.31152(15) 0.87920(19)
C31_32 C 0.06381(17) 0.33992(16) 0.8839(2)
C14_32 C 0.7220(2) 0.1420(3) 0.0387(2)
H9_32 H 0.7262 0.1533 0.0626
C15_32 C 0.7487(2) 0.1458(3) 0.00964(16)
H10_32 H 0.7708 0.1602 0.0143
C17_32 C 0.68848(15) 0.12080(19) 0.03201(17)
C18_32 C 0.66008(16) 0.1161(2) 0.06381(17)
C1_32 C 0.8580(3) 0.9613(2) 0.7220(2)
H1_32 H 0.8467 0.9374 0.7262
C2_32 C 0.8542(3) 0.99036(16) 0.7487(2)
H2_32 H 0.8398 0.9857 0.7708
C4_32 C 0.87920(19) 0.96799(17) 0.68848(15)
C5_32 C 0.8839(2) 0.93619(17) 0.66008(16)
N1_25 N 0.1460(2) 0.8540(2) 0.1460(2)
C3_25 C 0.1092(2) 0.70935(16) 0.03246(16)
H3_25 H 0.0985 0.7045 0.0565
C6_25 C 0.10527(18) 0.68254(13) 0.00323(18)
H4_25 H 0.0917 0.6600 0.0079
C7_25 C 0.1292(2) 0.74386(16) 0.02597(16)
C8_25 C 0.1421(2) 0.8269(2) 0.1159(2)
C9_25 C 0.1340(2) 0.77156(16) 0.05784(18)
C10_25 C 0.1308(3) 0.7627(2) 0.09594(19)
H5_25 H 0.1256 0.7373 0.1027
C11_25 C 0.1474(3) 0.8369(2) 0.0782(2)
H6_25 H 0.1535 0.8622 0.0719
C12_25 C 0.1437(3) 0.8099(2) 0.0499(2)
H7_25 H 0.1478 0.8172 0.0245
C13_25 C 0.1347(3) 0.7887(2) 0.1242(2)
H8_25 H 0.1324 0.7809 0.1497
C16_25 C 0.29065(16) 0.96754(16) 0.1092(2)
H11_25 H 0.2955 0.9435 0.0985
C19_25 C 0.31746(13) 0.99677(18) 0.10527(18)
H12_25 H 0.3400 0.9921 0.0917
C20_25 C 0.25614(16) 0.97403(16) 0.1292(2)
C21_25 C 0.1731(2) 0.8841(2) 0.1421(2)
C22_25 C 0.22844(16) 0.94216(18) 0.1340(2)
C23_25 C 0.2373(2) 0.90406(19) 0.1308(3)
H13_25 H 0.2627 0.8973 0.1256
C24_25 C 0.1631(2) 0.9218(2) 0.1474(3)
H14_25 H 0.1378 0.9281 0.1535
C25_25 C 0.1901(2) 0.9501(2) 0.1437(3)
H15_25 H 0.1828 0.9755 0.1478
C26_25 C 0.2113(2) 0.8758(2) 0.1347(3)
H16_25 H 0.2191 0.8503 0.1324
C29_25 C 0.03246(16) 0.8908(2) 0.29065(16)
H19_25 H 0.0565 0.9015 0.2955
C32_25 C 0.00323(18) 0.89473(18) 0.31746(13)
H20_25 H 0.0079 0.9083 0.3400
C33_25 C 0.02597(16) 0.8708(2) 0.25614(16)
C34_25 C 0.1159(2) 0.8579(2) 0.1731(2)
C35_25 C 0.05784(18) 0.8660(2) 0.22844(16)
C36_25 C 0.09594(19) 0.8692(3) 0.2373(2)
H21_25 H 0.1027 0.8744 0.2627
C37_25 C 0.0782(2) 0.8526(3) 0.1631(2)
H22_25 H 0.0719 0.8465 0.1378
C38_25 C 0.0499(2) 0.8563(3) 0.1901(2)
H23_25 H 0.0245 0.8522 0.1828
C39_25 C 0.1242(2) 0.8653(3) 0.2113(2)
H24_25 H 0.1497 0.8676 0.2191
N1_26 N 0.1460(2) 0.1460(2) 0.8540(2)
C3_26 C 0.1092(2) 0.29065(16) 0.96754(16)
H3_26 H 0.0985 0.2955 0.9435
C6_26 C 0.10527(18) 0.31746(13) 0.99677(18)
H4_26 H 0.0917 0.3400 0.9921
C7_26 C 0.1292(2) 0.25614(16) 0.97403(16)
C8_26 C 0.1421(2) 0.1731(2) 0.8841(2)
C9_26 C 0.1340(2) 0.22844(16) 0.94216(18)
C10_26 C 0.1308(3) 0.2373(2) 0.90406(19)
H5_26 H 0.1256 0.2627 0.8973
C11_26 C 0.1474(3) 0.1631(2) 0.9218(2)
H6_26 H 0.1535 0.1378 0.9281
C12_26 C 0.1437(3) 0.1901(2) 0.9501(2)
H7_26 H 0.1478 0.1828 0.9755
C13_26 C 0.1347(3) 0.2113(2) 0.8758(2)
H8_26 H 0.1324 0.2191 0.8503
C16_26 C 0.29065(16) 0.03246(16) 0.8908(2)
H11_26 H 0.2955 0.0565 0.9015
C19_26 C 0.31746(13) 0.00323(18) 0.89473(18)
H12_26 H 0.3400 0.0079 0.9083
C20_26 C 0.25614(16) 0.02597(16) 0.8708(2)
C21_26 C 0.1731(2) 0.1159(2) 0.8579(2)
C22_26 C 0.22844(16) 0.05784(18) 0.8660(2)
C23_26 C 0.2373(2) 0.09594(19) 0.8692(3)
H13_26 H 0.2627 0.1027 0.8744
C24_26 C 0.1631(2) 0.0782(2) 0.8526(3)
H14_26 H 0.1378 0.0719 0.8465
C25_26 C 0.1901(2) 0.0499(2) 0.8563(3)
H15_26 H 0.1828 0.0245 0.8522
C26_26 C 0.2113(2) 0.1242(2) 0.8653(3)
H16_26 H 0.2191 0.1497 0.8676
C29_26 C 0.03246(16) 0.1092(2) 0.70935(16)
H19_26 H 0.0565 0.0985 0.7045
C32_26 C 0.00323(18) 0.10527(18) 0.68254(13)
H20_26 H 0.0079 0.0917 0.6600
C33_26 C 0.02597(16) 0.1292(2) 0.74386(16)
C34_26 C 0.1159(2) 0.1421(2) 0.8269(2)
C35_26 C 0.05784(18) 0.1340(2) 0.77156(16)
C36_26 C 0.09594(19) 0.1308(3) 0.7627(2)
H21_26 H 0.1027 0.1256 0.7373
C37_26 C 0.0782(2) 0.1474(3) 0.8369(2)
H22_26 H 0.0719 0.1535 0.8622
C38_26 C 0.0499(2) 0.1437(3) 0.8099(2)
H23_26 H 0.0245 0.1478 0.8172
C39_26 C 0.1242(2) 0.1347(3) 0.7887(2)
H24_26 H 0.1497 0.1324 0.7809
N1_27 N 0.8540(2) 0.1460(2) 0.1460(2)
C3_27 C 0.8908(2) 0.29065(16) 0.03246(16)
H3_27 H 0.9015 0.2955 0.0565
C6_27 C 0.89473(18) 0.31746(13) 0.00323(18)
H4_27 H 0.9083 0.3400 0.0079
C7_27 C 0.8708(2) 0.25614(16) 0.02597(16)
C8_27 C 0.8579(2) 0.1731(2) 0.1159(2)
C9_27 C 0.8660(2) 0.22844(16) 0.05784(18)
C10_27 C 0.8692(3) 0.2373(2) 0.09594(19)
H5_27 H 0.8744 0.2627 0.1027
C11_27 C 0.8526(3) 0.1631(2) 0.0782(2)
H6_27 H 0.8465 0.1378 0.0719
C12_27 C 0.8563(3) 0.1901(2) 0.0499(2)
H7_27 H 0.8522 0.1828 0.0245
C13_27 C 0.8653(3) 0.2113(2) 0.1242(2)
H8_27 H 0.8676 0.2191 0.1497
C16_27 C 0.70935(16) 0.03246(16) 0.1092(2)
H11_27 H 0.7045 0.0565 0.0985
C19_27 C 0.68254(13) 0.00323(18) 0.10527(18)
H12_27 H 0.6600 0.0079 0.0917
C20_27 C 0.74386(16) 0.02597(16) 0.1292(2)
C21_27 C 0.8269(2) 0.1159(2) 0.1421(2)
C22_27 C 0.77156(16) 0.05784(18) 0.1340(2)
C23_27 C 0.7627(2) 0.09594(19) 0.1308(3)
H13_27 H 0.7373 0.1027 0.1256
C24_27 C 0.8369(2) 0.0782(2) 0.1474(3)
H14_27 H 0.8622 0.0719 0.1535
C25_27 C 0.8099(2) 0.0499(2) 0.1437(3)
H15_27 H 0.8172 0.0245 0.1478
C26_27 C 0.7887(2) 0.1242(2) 0.1347(3)
H16_27 H 0.7809 0.1497 0.1324
C29_27 C 0.96754(16) 0.1092(2) 0.29065(16)
H19_27 H 0.9435 0.0985 0.2955
C32_27 C 0.99677(18) 0.10527(18) 0.31746(13)
H20_27 H 0.9921 0.0917 0.3400
C33_27 C 0.97403(16) 0.1292(2) 0.25614(16)
C34_27 C 0.8841(2) 0.1421(2) 0.1731(2)
C35_27 C 0.94216(18) 0.1340(2) 0.22844(16)
C36_27 C 0.90406(19) 0.1308(3) 0.2373(2)
H21_27 H 0.8973 0.1256 0.2627
C37_27 C 0.9218(2) 0.1474(3) 0.1631(2)
H22_27 H 0.9281 0.1535 0.1378
C38_27 C 0.9501(2) 0.1437(3) 0.1901(2)
H23_27 H 0.9755 0.1478 0.1828
C39_27 C 0.8758(2) 0.1347(3) 0.2113(2)
H24_27 H 0.8503 0.1324 0.2191
N1_28 N 0.8540(2) 0.8540(2) 0.8540(2)
C3_28 C 0.8908(2) 0.70935(16) 0.96754(16)
H3_28 H 0.9015 0.7045 0.9435
C6_28 C 0.89473(18) 0.68254(13) 0.99677(18)
H4_28 H 0.9083 0.6600 0.9921
C7_28 C 0.8708(2) 0.74386(16) 0.97403(16)
C8_28 C 0.8579(2) 0.8269(2) 0.8841(2)
C9_28 C 0.8660(2) 0.77156(16) 0.94216(18)
C10_28 C 0.8692(3) 0.7627(2) 0.90406(19)
H5_28 H 0.8744 0.7373 0.8973
C11_28 C 0.8526(3) 0.8369(2) 0.9218(2)
H6_28 H 0.8465 0.8622 0.9281
C12_28 C 0.8563(3) 0.8099(2) 0.9501(2)
H7_28 H 0.8522 0.8172 0.9755
C13_28 C 0.8653(3) 0.7887(2) 0.8758(2)
H8_28 H 0.8676 0.7809 0.8503
C16_28 C 0.70935(16) 0.96754(16) 0.8908(2)
H11_28 H 0.7045 0.9435 0.9015
C19_28 C 0.68254(13) 0.99677(18) 0.89473(18)
H12_28 H 0.6600 0.9921 0.9083
C20_28 C 0.74386(16) 0.97403(16) 0.8708(2)
C21_28 C 0.8269(2) 0.8841(2) 0.8579(2)
C22_28 C 0.77156(16) 0.94216(18) 0.8660(2)
C23_28 C 0.7627(2) 0.90406(19) 0.8692(3)
H13_28 H 0.7373 0.8973 0.8744
C24_28 C 0.8369(2) 0.9218(2) 0.8526(3)
H14_28 H 0.8622 0.9281 0.8465
C25_28 C 0.8099(2) 0.9501(2) 0.8563(3)
H15_28 H 0.8172 0.9755 0.8522
C26_28 C 0.7887(2) 0.8758(2) 0.8653(3)
H16_28 H 0.7809 0.8503 0.8676
C29_28 C 0.96754(16) 0.8908(2) 0.70935(16)
H19_28 H 0.9435 0.9015 0.7045
C32_28 C 0.99677(18) 0.89473(18) 0.68254(13)
H20_28 H 0.9921 0.9083 0.6600
C33_28 C 0.97403(16) 0.8708(2) 0.74386(16)
C34_28 C 0.8841(2) 0.8579(2) 0.8269(2)
C35_28 C 0.94216(18) 0.8660(2) 0.77156(16)
C36_28 C 0.90406(19) 0.8692(3) 0.7627(2)
H21_28 H 0.8973 0.8744 0.7373
C37_28 C 0.9218(2) 0.8526(3) 0.8369(2)
H22_28 H 0.9281 0.8465 0.8622
C38_28 C 0.9501(2) 0.8563(3) 0.8099(2)
H23_28 H 0.9755 0.8522 0.8172
C39_28 C 0.8758(2) 0.8653(3) 0.7887(2)
H24_28 H 0.8503 0.8676 0.7809
N1_29 N 0.1460(2) 0.1460(2) 0.1460(2)
C3_29 C 0.1092(2) 0.03246(16) 0.29065(16)
H3_29 H 0.0985 0.0565 0.2955
C6_29 C 0.10527(18) 0.00323(18) 0.31746(13)
H4_29 H 0.0917 0.0079 0.3400
C7_29 C 0.1292(2) 0.02597(16) 0.25614(16)
C8_29 C 0.1421(2) 0.1159(2) 0.1731(2)
C9_29 C 0.1340(2) 0.05784(18) 0.22844(16)
C10_29 C 0.1308(3) 0.09594(19) 0.2373(2)
H5_29 H 0.1256 0.1027 0.2627
C11_29 C 0.1474(3) 0.0782(2) 0.1631(2)
H6_29 H 0.1535 0.0719 0.1378
C12_29 C 0.1437(3) 0.0499(2) 0.1901(2)
H7_29 H 0.1478 0.0245 0.1828
C13_29 C 0.1347(3) 0.1242(2) 0.2113(2)
H8_29 H 0.1324 0.1497 0.2191
C16_29 C 0.29065(16) 0.1092(2) 0.03246(16)
H11_29 H 0.2955 0.0985 0.0565
C19_29 C 0.31746(13) 0.10527(18) 0.00323(18)
H12_29 H 0.3400 0.0917 0.0079
C20_29 C 0.25614(16) 0.1292(2) 0.02597(16)
C21_29 C 0.1731(2) 0.1421(2) 0.1159(2)
C22_29 C 0.22844(16) 0.1340(2) 0.05784(18)
C23_29 C 0.2373(2) 0.1308(3) 0.09594(19)
H13_29 H 0.2627 0.1256 0.1027
C24_29 C 0.1631(2) 0.1474(3) 0.0782(2)
H14_29 H 0.1378 0.1535 0.0719
C25_29 C 0.1901(2) 0.1437(3) 0.0499(2)
H15_29 H 0.1828 0.1478 0.0245
C26_29 C 0.2113(2) 0.1347(3) 0.1242(2)
H16_29 H 0.2191 0.1324 0.1497
C29_29 C 0.03246(16) 0.29065(16) 0.1092(2)
H19_29 H 0.0565 0.2955 0.0985
C32_29 C 0.00323(18) 0.31746(13) 0.10527(18)
H20_29 H 0.0079 0.3400 0.0917
C33_29 C 0.02597(16) 0.25614(16) 0.1292(2)
C34_29 C 0.1159(2) 0.1731(2) 0.1421(2)
C35_29 C 0.05784(18) 0.22844(16) 0.1340(2)
C36_29 C 0.09594(19) 0.2373(2) 0.1308(3)
H21_29 H 0.1027 0.2627 0.1256
C37_29 C 0.0782(2) 0.1631(2) 0.1474(3)
H22_29 H 0.0719 0.1378 0.1535
C38_29 C 0.0499(2) 0.1901(2) 0.1437(3)
H23_29 H 0.0245 0.1828 0.1478
C39_29 C 0.1242(2) 0.2113(2) 0.1347(3)
H24_29 H 0.1497 0.2191 0.1324
N1_30 N 0.1460(2) 0.8540(2) 0.8540(2)
C3_30 C 0.1092(2) 0.96754(16) 0.70935(16)
H3_30 H 0.0985 0.9435 0.7045
C6_30 C 0.10527(18) 0.99677(18) 0.68254(13)
H4_30 H 0.0917 0.9921 0.6600
C7_30 C 0.1292(2) 0.97403(16) 0.74386(16)
C8_30 C 0.1421(2) 0.8841(2) 0.8269(2)
C9_30 C 0.1340(2) 0.94216(18) 0.77156(16)
C10_30 C 0.1308(3) 0.90406(19) 0.7627(2)
H5_30 H 0.1256 0.8973 0.7373
C11_30 C 0.1474(3) 0.9218(2) 0.8369(2)
H6_30 H 0.1535 0.9281 0.8622
C12_30 C 0.1437(3) 0.9501(2) 0.8099(2)
H7_30 H 0.1478 0.9755 0.8172
C13_30 C 0.1347(3) 0.8758(2) 0.7887(2)
H8_30 H 0.1324 0.8503 0.7809
C16_30 C 0.29065(16) 0.8908(2) 0.96754(16)
H11_30 H 0.2955 0.9015 0.9435
C19_30 C 0.31746(13) 0.89473(18) 0.99677(18)
H12_30 H 0.3400 0.9083 0.9921
C20_30 C 0.25614(16) 0.8708(2) 0.97403(16)
C21_30 C 0.1731(2) 0.8579(2) 0.8841(2)
C22_30 C 0.22844(16) 0.8660(2) 0.94216(18)
C23_30 C 0.2373(2) 0.8692(3) 0.90406(19)
H13_30 H 0.2627 0.8744 0.8973
C24_30 C 0.1631(2) 0.8526(3) 0.9218(2)
H14_30 H 0.1378 0.8465 0.9281
C25_30 C 0.1901(2) 0.8563(3) 0.9501(2)
H15_30 H 0.1828 0.8522 0.9755
C26_30 C 0.2113(2) 0.8653(3) 0.8758(2)
H16_30 H 0.2191 0.8676 0.8503
C29_30 C 0.03246(16) 0.70935(16) 0.8908(2)
H19_30 H 0.0565 0.7045 0.9015
C32_30 C 0.00323(18) 0.68254(13) 0.89473(18)
H20_30 H 0.0079 0.6600 0.9083
C33_30 C 0.02597(16) 0.74386(16) 0.8708(2)
C34_30 C 0.1159(2) 0.8269(2) 0.8579(2)
C35_30 C 0.05784(18) 0.77156(16) 0.8660(2)
C36_30 C 0.09594(19) 0.7627(2) 0.8692(3)
H21_30 H 0.1027 0.7373 0.8744
C37_30 C 0.0782(2) 0.8369(2) 0.8526(3)
H22_30 H 0.0719 0.8622 0.8465
C38_30 C 0.0499(2) 0.8099(2) 0.8563(3)
H23_30 H 0.0245 0.8172 0.8522
C39_30 C 0.1242(2) 0.7887(2) 0.8653(3)
H24_30 H 0.1497 0.7809 0.8676
N1_31 N 0.8540(2) 0.1460(2) 0.8540(2)
C3_31 C 0.8908(2) 0.03246(16) 0.70935(16)
H3_31 H 0.9015 0.0565 0.7045
C6_31 C 0.89473(18) 0.00323(18) 0.68254(13)
H4_31 H 0.9083 0.0079 0.6600
C7_31 C 0.8708(2) 0.02597(16) 0.74386(16)
C8_31 C 0.8579(2) 0.1159(2) 0.8269(2)
C9_31 C 0.8660(2) 0.05784(18) 0.77156(16)
C10_31 C 0.8692(3) 0.09594(19) 0.7627(2)
H5_31 H 0.8744 0.1027 0.7373
C11_31 C 0.8526(3) 0.0782(2) 0.8369(2)
H6_31 H 0.8465 0.0719 0.8622
C12_31 C 0.8563(3) 0.0499(2) 0.8099(2)
H7_31 H 0.8522 0.0245 0.8172
C13_31 C 0.8653(3) 0.1242(2) 0.7887(2)
H8_31 H 0.8676 0.1497 0.7809
C16_31 C 0.70935(16) 0.1092(2) 0.96754(16)
H11_31 H 0.7045 0.0985 0.9435
C19_31 C 0.68254(13) 0.10527(18) 0.99677(18)
H12_31 H 0.6600 0.0917 0.9921
C20_31 C 0.74386(16) 0.1292(2) 0.97403(16)
C21_31 C 0.8269(2) 0.1421(2) 0.8841(2)
C22_31 C 0.77156(16) 0.1340(2) 0.94216(18)
C23_31 C 0.7627(2) 0.1308(3) 0.90406(19)
H13_31 H 0.7373 0.1256 0.8973
C24_31 C 0.8369(2) 0.1474(3) 0.9218(2)
H14_31 H 0.8622 0.1535 0.9281
C25_31 C 0.8099(2) 0.1437(3) 0.9501(2)
H15_31 H 0.8172 0.1478 0.9755
C26_31 C 0.7887(2) 0.1347(3) 0.8758(2)
H16_31 H 0.7809 0.1324 0.8503
C29_31 C 0.96754(16) 0.29065(16) 0.8908(2)
H19_31 H 0.9435 0.2955 0.9015
C32_31 C 0.99677(18) 0.31746(13) 0.89473(18)
H20_31 H 0.9921 0.3400 0.9083
C33_31 C 0.97403(16) 0.25614(16) 0.8708(2)
C34_31 C 0.8841(2) 0.1731(2) 0.8579(2)
C35_31 C 0.94216(18) 0.22844(16) 0.8660(2)
C36_31 C 0.90406(19) 0.2373(2) 0.8692(3)
H21_31 H 0.8973 0.2627 0.8744
C37_31 C 0.9218(2) 0.1631(2) 0.8526(3)
H22_31 H 0.9281 0.1378 0.8465
C38_31 C 0.9501(2) 0.1901(2) 0.8563(3)
H23_31 H 0.9755 0.1828 0.8522
C39_31 C 0.8758(2) 0.2113(2) 0.8653(3)
H24_31 H 0.8503 0.2191 0.8676
N1_32 N 0.8540(2) 0.8540(2) 0.1460(2)
C3_32 C 0.8908(2) 0.96754(16) 0.29065(16)
H3_32 H 0.9015 0.9435 0.2955
C6_32 C 0.89473(18) 0.99677(18) 0.31746(13)
H4_32 H 0.9083 0.9921 0.3400
C7_32 C 0.8708(2) 0.97403(16) 0.25614(16)
C8_32 C 0.8579(2) 0.8841(2) 0.1731(2)
C9_32 C 0.8660(2) 0.94216(18) 0.22844(16)
C10_32 C 0.8692(3) 0.90406(19) 0.2373(2)
H5_32 H 0.8744 0.8973 0.2627
C11_32 C 0.8526(3) 0.9218(2) 0.1631(2)
H6_32 H 0.8465 0.9281 0.1378
C12_32 C 0.8563(3) 0.9501(2) 0.1901(2)
H7_32 H 0.8522 0.9755 0.1828
C13_32 C 0.8653(3) 0.8758(2) 0.2113(2)
H8_32 H 0.8676 0.8503 0.2191
C16_32 C 0.70935(16) 0.8908(2) 0.03246(16)
H11_32 H 0.7045 0.9015 0.0565
C19_32 C 0.68254(13) 0.89473(18) 0.00323(18)
H12_32 H 0.6600 0.9083 0.0079
C20_32 C 0.74386(16) 0.8708(2) 0.02597(16)
C21_32 C 0.8269(2) 0.8579(2) 0.1159(2)
C22_32 C 0.77156(16) 0.8660(2) 0.05784(18)
C23_32 C 0.7627(2) 0.8692(3) 0.09594(19)
H13_32 H 0.7373 0.8744 0.1027
C24_32 C 0.8369(2) 0.8526(3) 0.0782(2)
H14_32 H 0.8622 0.8465 0.0719
C25_32 C 0.8099(2) 0.8563(3) 0.0499(2)
H15_32 H 0.8172 0.8522 0.0245
C26_32 C 0.7887(2) 0.8653(3) 0.1242(2)
H16_32 H 0.7809 0.8676 0.1497
C29_32 C 0.96754(16) 0.70935(16) 0.1092(2)
H19_32 H 0.9435 0.7045 0.0985
C32_32 C 0.99677(18) 0.68254(13) 0.10527(18)
H20_32 H 0.9921 0.6600 0.0917
C33_32 C 0.97403(16) 0.74386(16) 0.1292(2)
C34_32 C 0.8841(2) 0.8269(2) 0.1421(2)
C35_32 C 0.94216(18) 0.77156(16) 0.1340(2)
C36_32 C 0.90406(19) 0.7627(2) 0.1308(3)
H21_32 H 0.8973 0.7373 0.1256
C37_32 C 0.9218(2) 0.8369(2) 0.1474(3)
H22_32 H 0.9281 0.8622 0.1535
C38_32 C 0.9501(2) 0.8099(2) 0.1437(3)
H23_32 H 0.9755 0.8172 0.1478
C39_32 C 0.8758(2) 0.7887(2) 0.1347(3)
H24_32 H 0.8503 0.7809 0.1324
loop_
_geom_bond_atom_site_label_1
_geom_bond_atom_site_label_2
_geom_bond_site_symmetry_1
_geom_bond_site_symmetry_2
Zn1 O2 1_555 1_555
Zn2 O1 1_555 1_555
O1 C5 1_555 1_555
O2 C5 1_555 1_555
O3 Zn1 1_555 1_555
O4 Zn2 1_555 1_555
N1 C8 1_555 1_555
C1 H1 1_555 1_555
C2 C1 1_555 1_555
H2 C2 1_555 1_555
C3 H3 1_555 1_555
C4 C1 1_555 1_555
C5 C4 1_555 1_555
C6 C3 1_555 1_555
H4 C6 1_555 1_555
C7 C2 1_555 1_555
C8 C11 1_555 1_555
C9 C7 1_555 1_555
C10 C9 1_555 1_555
H5 C10 1_555 1_555
C11 H6 1_555 1_555
C12 C9 1_555 1_555
H7 C12 1_555 1_555
C13 C8 1_555 1_555
H8 C13 1_555 1_555
O5 C18 1_555 1_555
O6 C18 1_555 1_555
C14 H9 1_555 1_555
C15 C14 1_555 1_555
H10 C15 1_555 1_555
C16 H11 1_555 1_555
C17 C14 1_555 1_555
C18 C17 1_555 1_555
C19 C16 1_555 1_555
H12 C19 1_555 1_555
C20 C15 1_555 1_555
C21 N1 1_555 1_555
C22 C20 1_555 1_555
C23 C22 1_555 1_555
H13 C23 1_555 1_555
C24 C21 1_555 1_555
H14 C24 1_555 1_555
C25 C22 1_555 1_555
H15 C25 1_555 1_555
C26 C21 1_555 1_555
H16 C26 1_555 1_555
C29 H19 1_555 1_555
C32 C29 1_555 1_555
H20 C32 1_555 1_555
C34 N1 1_555 1_555
C35 C33 1_555 1_555
C36 C35 1_555 1_555
H21 C36 1_555 1_555
C37 C34 1_555 1_555
H22 C37 1_555 1_555
C38 C35 1_555 1_555
H23 C38 1_555 1_555
C39 C34 1_555 1_555
H24 C39 1_555 1_555
Zn4 O6 1_555 1_555
Zn6 O5 1_555 1_555
O9 Zn2 1_555 1_555
O10 Zn2 1_555 1_555
O11 Zn1 1_555 1_555
O12 Zn1 1_555 1_555
C3 C7 1_555 1_555
C4 C6 1_555 1_555
C10 C13 1_555 1_555
C11 C12 1_555 1_555
C16 C20 1_555 1_555
C17 C19 1_555 1_555
C23 C26 1_555 1_555
C24 C25 1_555 1_555
C29 C33 1_555 1_555
C36 C39 1_555 1_555
C37 C38 1_555 1_555
O7 C31 1_555 1_555
O8 C31 1_555 1_555
C27 H17 1_555 1_555
C28 C27 1_555 1_555
H18 C28 1_555 1_555
C30 C27 1_555 1_555
C31 C30 1_555 1_555
Zn3 O8 1_555 1_555
Zn5 O7 1_555 1_555
O10 C31_2 1_555 1_555
O12 C31_2 1_555 1_555
C27_2 H17_2 1_555 1_555
C28_2 C27_2 1_555 1_555
H18_2 C28_2 1_555 1_555
C30_2 C27_2 1_555 1_555
C31_2 C30_2 1_555 1_555
Zn1_2 O2_2 1_555 1_555
Zn2_2 O1_2 1_555 1_555
O1_2 C5_2 1_555 1_555
O2_2 C5_2 1_555 1_555
O3_2 Zn1_2 1_555 1_555
O4_2 Zn2_2 1_555 1_555
N1_2 C8_2 1_555 1_555
C1_2 H1_2 1_555 1_555
C2_2 C1_2 1_555 1_555
H2_2 C2_2 1_555 1_555
C3_2 H3_2 1_555 1_555
C4_2 C1_2 1_555 1_555
C5_2 C4_2 1_555 1_555
C6_2 C3_2 1_555 1_555
H4_2 C6_2 1_555 1_555
C7_2 C2_2 1_555 1_555
C8_2 C11_2 1_555 1_555
C9_2 C7_2 1_555 1_555
C10_2 C9_2 1_555 1_555
H5_2 C10_2 1_555 1_555
C11_2 H6_2 1_555 1_555
C12_2 C9_2 1_555 1_555
H7_2 C12_2 1_555 1_555
C13_2 C8_2 1_555 1_555
H8_2 C13_2 1_555 1_555
O5_2 C18_2 1_555 1_555
O6_2 C18_2 1_555 1_555
C14_2 H9_2 1_555 1_555
C15_2 C14_2 1_555 1_555
H10_2 C15_2 1_555 1_555
C16_2 H11_2 1_555 1_555
C17_2 C14_2 1_555 1_555
C18_2 C17_2 1_555 1_555
C19_2 C16_2 1_555 1_555
H12_2 C19_2 1_555 1_555
C20_2 C15_2 1_555 1_555
C21_2 N1_2 1_555 1_555
C22_2 C20_2 1_555 1_555
C23_2 C22_2 1_555 1_555
H13_2 C23_2 1_555 1_555
C24_2 C21_2 1_555 1_555
H14_2 C24_2 1_555 1_555
C25_2 C22_2 1_555 1_555
H15_2 C25_2 1_555 1_555
C26_2 C21_2 1_555 1_555
H16_2 C26_2 1_555 1_555
C29_2 H19_2 1_555 1_555
C32_2 C29_2 1_555 1_555
H20_2 C32_2 1_555 1_555
C34_2 N1_2 1_555 1_555
C35_2 C33_2 1_555 1_555
C36_2 C35_2 1_555 1_555
H21_2 C36_2 1_555 1_555
C37_2 C34_2 1_555 1_555
H22_2 C37_2 1_555 1_555
C38_2 C35_2 1_555 1_555
H23_2 C38_2 1_555 1_555
C39_2 C34_2 1_555 1_555
H24_2 C39_2 1_555 1_555
Zn4 O6_2 1_555 1_555
Zn6 O5_2 1_555 1_555
O9_2 Zn2_2 1_555 1_555
O10_2 Zn2_2 1_555 1_555
O11_2 Zn1_2 1_555 1_555
O12_2 Zn1_2 1_555 1_555
C3_2 C7_2 1_555 1_555
C4_2 C6_2 1_555 1_555
C10_2 C13_2 1_555 1_555
C11_2 C12_2 1_555 1_555
C16_2 C20_2 1_555 1_555
C17_2 C19_2 1_555 1_555
C23_2 C26_2 1_555 1_555
C24_2 C25_2 1_555 1_555
C29_2 C33_2 1_555 1_555
C36_2 C39_2 1_555 1_555
C37_2 C38_2 1_555 1_555
O10_2 C31_3 1_555 1_555
O12_2 C31_3 1_555 1_555
C27_3 H17_3 1_555 1_555
C28_3 C27_3 1_555 1_555
H18_3 C28_3 1_555 1_555
C30_3 C27_3 1_555 1_555
C31_3 C30_3 1_555 1_555
Zn3 O2_3 1_555 1_555
Zn5 O1_3 1_555 1_555
O1_3 C5_3 1_555 1_555
O2_3 C5_3 1_555 1_555
O3_3 Zn3 1_555 1_555
O4_3 Zn5 1_555 1_555
N1_3 C8_3 1_555 1_555
C1_3 H1_3 1_555 1_555
C2_3 C1_3 1_555 1_555
H2_3 C2_3 1_555 1_555
C3_3 H3_3 1_555 1_555
C4_3 C1_3 1_555 1_555
C5_3 C4_3 1_555 1_555
C6_3 C3_3 1_555 1_555
H4_3 C6_3 1_555 1_555
C7_3 C2_3 1_555 1_555
C8_3 C11_3 1_555 1_555
C9_3 C7_3 1_555 1_555
C10_3 C9_3 1_555 1_555
H5_3 C10_3 1_555 1_555
C11_3 H6_3 1_555 1_555
C12_3 C9_3 1_555 1_555
H7_3 C12_3 1_555 1_555
C13_3 C8_3 1_555 1_555
H8_3 C13_3 1_555 1_555
O5_3 C18_3 1_555 1_555
O6_3 C18_3 1_555 1_555
C14_3 H9_3 1_555 1_555
C15_3 C14_3 1_555 1_555
H10_3 C15_3 1_555 1_555
C16_3 H11_3 1_555 1_555
C17_3 C14_3 1_555 1_555
C18_3 C17_3 1_555 1_555
C19_3 C16_3 1_555 1_555
H12_3 C19_3 1_555 1_555
C20_3 C15_3 1_555 1_555
C21_3 N1_3 1_555 1_555
C22_3 C20_3 1_555 1_555
C23_3 C22_3 1_555 1_555
H13_3 C23_3 1_555 1_555
C24_3 C21_3 1_555 1_555
H14_3 C24_3 1_555 1_555
C25_3 C22_3 1_555 1_555
H15_3 C25_3 1_555 1_555
C26_3 C21_3 1_555 1_555
H16_3 C26_3 1_555 1_555
C29_3 H19_3 1_555 1_555
C32_3 C29_3 1_555 1_555
H20_3 C32_3 1_555 1_555
C34_3 N1_3 1_555 1_555
C35_3 C33_3 1_555 1_555
C36_3 C35_3 1_555 1_555
H21_3 C36_3 1_555 1_555
C37_3 C34_3 1_555 1_555
H22_3 C37_3 1_555 1_555
C38_3 C35_3 1_555 1_555
H23_3 C38_3 1_555 1_555
C39_3 C34_3 1_555 1_555
H24_3 C39_3 1_555 1_555
Zn4 O6_3 1_555 1_555
Zn6 O5_3 1_555 1_555
O9_3 Zn5 1_555 1_555
O11_3 Zn3 1_555 1_555
C3_3 C7_3 1_555 1_555
C4_3 C6_3 1_555 1_555
C10_3 C13_3 1_555 1_555
C11_3 C12_3 1_555 1_555
C16_3 C20_3 1_555 1_555
C17_3 C19_3 1_555 1_555
C23_3 C26_3 1_555 1_555
C24_3 C25_3 1_555 1_555
C29_3 C33_3 1_555 1_555
C36_3 C39_3 1_555 1_555
C37_3 C38_3 1_555 1_555
O9 C5_4 1_555 1_555
O11 C5_4 1_555 1_555
C1_4 H1_4 1_555 1_555
C2_4 C1_4 1_555 1_555
H2_4 C2_4 1_555 1_555
C4_4 C1_4 1_555 1_555
C5_4 C4_4 1_555 1_555
O9_3 C18_4 1_555 1_555
O11_3 C18_4 1_555 1_555
C14_4 H9_4 1_555 1_555
C15_4 C14_4 1_555 1_555
H10_4 C15_4 1_555 1_555
C17_4 C14_4 1_555 1_555
C18_4 C17_4 1_555 1_555
O9_2 C31_4 1_555 1_555
O11_2 C31_4 1_555 1_555
C27_4 H17_4 1_555 1_555
C28_4 C27_4 1_555 1_555
H18_4 C28_4 1_555 1_555
C30_4 C27_4 1_555 1_555
C31_4 C30_4 1_555 1_555
O3_4 Zn4 1_555 1_555
O4_4 Zn6 1_555 1_555
Zn1_3 O2_4 1_555 1_555
Zn2_3 O1_4 1_555 1_555
O1_4 C5_5 1_555 1_555
O2_4 C5_5 1_555 1_555
O3_5 Zn1_3 1_555 1_555
O4_5 Zn2_3 1_555 1_555
N1_4 C8_4 1_555 1_555
C1_5 H1_5 1_555 1_555
C2_5 C1_5 1_555 1_555
H2_5 C2_5 1_555 1_555
C3_4 H3_4 1_555 1_555
C4_5 C1_5 1_555 1_555
C5_5 C4_5 1_555 1_555
C6_4 C3_4 1_555 1_555
H4_4 C6_4 1_555 1_555
C7_4 C2_5 1_555 1_555
C8_4 C11_4 1_555 1_555
C9_4 C7_4 1_555 1_555
C10_4 C9_4 1_555 1_555
H5_4 C10_4 1_555 1_555
C11_4 H6_4 1_555 1_555
C12_4 C9_4 1_555 1_555
H7_4 C12_4 1_555 1_555
C13_4 C8_4 1_555 1_555
H8_4 C13_4 1_555 1_555
O5_4 C18_5 1_555 1_555
O6_4 C18_5 1_555 1_555
C14_5 H9_5 1_555 1_555
C15_5 C14_5 1_555 1_555
H10_5 C15_5 1_555 1_555
C16_4 H11_4 1_555 1_555
C17_5 C14_5 1_555 1_555
C18_5 C17_5 1_555 1_555
C19_4 C16_4 1_555 1_555
H12_4 C19_4 1_555 1_555
C20_4 C15_5 1_555 1_555
C21_4 N1_4 1_555 1_555
C22_4 C20_4 1_555 1_555
C23_4 C22_4 1_555 1_555
H13_4 C23_4 1_555 1_555
C24_4 C21_4 1_555 1_555
H14_4 C24_4 1_555 1_555
C25_4 C22_4 1_555 1_555
H15_4 C25_4 1_555 1_555
C26_4 C21_4 1_555 1_555
H16_4 C26_4 1_555 1_555
C29_4 H19_4 1_555 1_555
C32_4 C29_4 1_555 1_555
H20_4 C32_4 1_555 1_555
C34_4 N1_4 1_555 1_555
C35_4 C33_4 1_555 1_555
C36_4 C35_4 1_555 1_555
H21_4 C36_4 1_555 1_555
C37_4 C34_4 1_555 1_555
H22_4 C37_4 1_555 1_555
C38_4 C35_4 1_555 1_555
H23_4 C38_4 1_555 1_555
C39_4 C34_4 1_555 1_555
H24_4 C39_4 1_555 1_555
Zn4_2 O6_4 1_555 1_555
Zn6_2 O5_4 1_555 1_555
O9_4 Zn2_3 1_555 1_555
O10_3 Zn2_3 1_555 1_555
O11_4 Zn1_3 1_555 1_555
O12_3 Zn1_3 1_555 1_555
C3_4 C7_4 1_555 1_555
C4_5 C6_4 1_555 1_555
C10_4 C13_4 1_555 1_555
C11_4 C12_4 1_555 1_555
C16_4 C20_4 1_555 1_555
C17_5 C19_4 1_555 1_555
C23_4 C26_4 1_555 1_555
C24_4 C25_4 1_555 1_555
C29_4 C33_4 1_555 1_555
C36_4 C39_4 1_555 1_555
C37_4 C38_4 1_555 1_555
O7_2 C31_5 1_555 1_555
O8_2 C31_5 1_555 1_555
C27_5 H17_5 1_555 1_555
C28_5 C27_5 1_555 1_555
H18_5 C28_5 1_555 1_555
C30_5 C27_5 1_555 1_555
C31_5 C30_5 1_555 1_555
Zn3_2 O8_2 1_555 1_555
Zn5_2 O7_2 1_555 1_555
Zn1_4 O2_5 1_555 1_555
Zn2_4 O1_5 1_555 1_555
O1_5 C5_6 1_555 1_555
O2_5 C5_6 1_555 1_555
O3_6 Zn1_4 1_555 1_555
O4_6 Zn2_4 1_555 1_555
N1_5 C8_5 1_555 1_555
C1_6 H1_6 1_555 1_555
C2_6 C1_6 1_555 1_555
H2_6 C2_6 1_555 1_555
C3_5 H3_5 1_555 1_555
C4_6 C1_6 1_555 1_555
C5_6 C4_6 1_555 1_555
C6_5 C3_5 1_555 1_555
H4_5 C6_5 1_555 1_555
C7_5 C2_6 1_555 1_555
C8_5 C11_5 1_555 1_555
C9_5 C7_5 1_555 1_555
C10_5 C9_5 1_555 1_555
H5_5 C10_5 1_555 1_555
C11_5 H6_5 1_555 1_555
C12_5 C9_5 1_555 1_555
H7_5 C12_5 1_555 1_555
C13_5 C8_5 1_555 1_555
H8_5 C13_5 1_555 1_555
O5_5 C18_6 1_555 1_555
O6_5 C18_6 1_555 1_555
C14_6 H9_6 1_555 1_555
C15_6 C14_6 1_555 1_555
H10_6 C15_6 1_555 1_555
C16_5 H11_5 1_555 1_555
C17_6 C14_6 1_555 1_555
C18_6 C17_6 1_555 1_555
C19_5 C16_5 1_555 1_555
H12_5 C19_5 1_555 1_555
C20_5 C15_6 1_555 1_555
C21_5 N1_5 1_555 1_555
C22_5 C20_5 1_555 1_555
C23_5 C22_5 1_555 1_555
H13_5 C23_5 1_555 1_555
C24_5 C21_5 1_555 1_555
H14_5 C24_5 1_555 1_555
C25_5 C22_5 1_555 1_555
H15_5 C25_5 1_555 1_555
C26_5 C21_5 1_555 1_555
H16_5 C26_5 1_555 1_555
C29_5 H19_5 1_555 1_555
C32_5 C29_5 1_555 1_555
H20_5 C32_5 1_555 1_555
C34_5 N1_5 1_555 1_555
C35_5 C33_5 1_555 1_555
C36_5 C35_5 1_555 1_555
H21_5 C36_5 1_555 1_555
C37_5 C34_5 1_555 1_555
H22_5 C37_5 1_555 1_555
C38_5 C35_5 1_555 1_555
H23_5 C38_5 1_555 1_555
C39_5 C34_5 1_555 1_555
H24_5 C39_5 1_555 1_555
Zn4_2 O6_5 1_555 1_555
Zn6_2 O5_5 1_555 1_555
O9_5 Zn2_4 1_555 1_555
O10_4 Zn2_4 1_555 1_555
O11_5 Zn1_4 1_555 1_555
O12_4 Zn1_4 1_555 1_555
C3_5 C7_5 1_555 1_555
C4_6 C6_5 1_555 1_555
C10_5 C13_5 1_555 1_555
C11_5 C12_5 1_555 1_555
C16_5 C20_5 1_555 1_555
C17_6 C19_5 1_555 1_555
C23_5 C26_5 1_555 1_555
C24_5 C25_5 1_555 1_555
C29_5 C33_5 1_555 1_555
C36_5 C39_5 1_555 1_555
C37_5 C38_5 1_555 1_555
O10_3 C31_6 1_555 1_555
O12_3 C31_6 1_555 1_555
C27_6 H17_6 1_555 1_555
C28_6 C27_6 1_555 1_555
H18_6 C28_6 1_555 1_555
C30_6 C27_6 1_555 1_555
C31_6 C30_6 1_555 1_555
Zn3_2 O2_6 1_555 1_555
Zn5_2 O1_6 1_555 1_555
O1_6 C5_7 1_555 1_555
O2_6 C5_7 1_555 1_555
O3_7 Zn3_2 1_555 1_555
O4_7 Zn5_2 1_555 1_555
N1_6 C8_6 1_555 1_555
C1_7 H1_7 1_555 1_555
C2_7 C1_7 1_555 1_555
H2_7 C2_7 1_555 1_555
C3_6 H3_6 1_555 1_555
C4_7 C1_7 1_555 1_555
C5_7 C4_7 1_555 1_555
C6_6 C3_6 1_555 1_555
H4_6 C6_6 1_555 1_555
C7_6 C2_7 1_555 1_555
C8_6 C11_6 1_555 1_555
C9_6 C7_6 1_555 1_555
C10_6 C9_6 1_555 1_555
H5_6 C10_6 1_555 1_555
C11_6 H6_6 1_555 1_555
C12_6 C9_6 1_555 1_555
H7_6 C12_6 1_555 1_555
C13_6 C8_6 1_555 1_555
H8_6 C13_6 1_555 1_555
O5_6 C18_7 1_555 1_555
O6_6 C18_7 1_555 1_555
C14_7 H9_7 1_555 1_555
C15_7 C14_7 1_555 1_555
H10_7 C15_7 1_555 1_555
C16_6 H11_6 1_555 1_555
C17_7 C14_7 1_555 1_555
C18_7 C17_7 1_555 1_555
C19_6 C16_6 1_555 1_555
H12_6 C19_6 1_555 1_555
C20_6 C15_7 1_555 1_555
C21_6 N1_6 1_555 1_555
C22_6 C20_6 1_555 1_555
C23_6 C22_6 1_555 1_555
H13_6 C23_6 1_555 1_555
C24_6 C21_6 1_555 1_555
H14_6 C24_6 1_555 1_555
C25_6 C22_6 1_555 1_555
H15_6 C25_6 1_555 1_555
C26_6 C21_6 1_555 1_555
H16_6 C26_6 1_555 1_555
C29_6 H19_6 1_555 1_555
C32_6 C29_6 1_555 1_555
H20_6 C32_6 1_555 1_555
C34_6 N1_6 1_555 1_555
C35_6 C33_6 1_555 1_555
C36_6 C35_6 1_555 1_555
H21_6 C36_6 1_555 1_555
C37_6 C34_6 1_555 1_555
H22_6 C37_6 1_555 1_555
C38_6 C35_6 1_555 1_555
H23_6 C38_6 1_555 1_555
C39_6 C34_6 1_555 1_555
H24_6 C39_6 1_555 1_555
Zn4_2 O6_6 1_555 1_555
Zn6_2 O5_6 1_555 1_555
O9_6 Zn5_2 1_555 1_555
O11_6 Zn3_2 1_555 1_555
C3_6 C7_6 1_555 1_555
C4_7 C6_6 1_555 1_555
C10_6 C13_6 1_555 1_555
C11_6 C12_6 1_555 1_555
C16_6 C20_6 1_555 1_555
C17_7 C19_6 1_555 1_555
C23_6 C26_6 1_555 1_555
C24_6 C25_6 1_555 1_555
C29_6 C33_6 1_555 1_555
C36_6 C39_6 1_555 1_555
C37_6 C38_6 1_555 1_555
O10_4 C31_7 1_555 1_555
O12_4 C31_7 1_555 1_555
C27_7 H17_7 1_555 1_555
C28_7 C27_7 1_555 1_555
H18_7 C28_7 1_555 1_555
C30_7 C27_7 1_555 1_555
C31_7 C30_7 1_555 1_555
O9_5 C31_8 1_555 1_555
O11_5 C31_8 1_555 1_555
C27_8 H17_8 1_555 1_555
C28_8 C27_8 1_555 1_555
H18_8 C28_8 1_555 1_555
C30_8 C27_8 1_555 1_555
C31_8 C30_8 1_555 1_555
O9_6 C18_8 1_555 1_555
O11_6 C18_8 1_555 1_555
C14_8 H9_8 1_555 1_555
C15_8 C14_8 1_555 1_555
H10_8 C15_8 1_555 1_555
C17_8 C14_8 1_555 1_555
C18_8 C17_8 1_555 1_555
O9_4 C5_8 1_555 1_555
O11_4 C5_8 1_555 1_555
C1_8 H1_8 1_555 1_555
C2_8 C1_8 1_555 1_555
H2_8 C2_8 1_555 1_555
C4_8 C1_8 1_555 1_555
C5_8 C4_8 1_555 1_555
O3_8 Zn4_2 1_555 1_555
O4_8 Zn6_2 1_555 1_555
O7_3 C31_9 1_555 1_555
O8_3 C31_9 1_555 1_555
C27_9 H17_9 1_555 1_555
C28_9 C27_9 1_555 1_555
H18_9 C28_9 1_555 1_555
C30_9 C27_9 1_555 1_555
C31_9 C30_9 1_555 1_555
Zn3_3 O8_3 1_555 1_555
Zn5_3 O7_3 1_555 1_555
Zn1_5 O2_7 1_555 1_555
Zn2_5 O1_7 1_555 1_555
O1_7 C5_9 1_555 1_555
O2_7 C5_9 1_555 1_555
O3_9 Zn1_5 1_555 1_555
O4_9 Zn2_5 1_555 1_555
N1_7 C8_7 1_555 1_555
C1_9 H1_9 1_555 1_555
C2_9 C1_9 1_555 1_555
H2_9 C2_9 1_555 1_555
C3_7 H3_7 1_555 1_555
C4_9 C1_9 1_555 1_555
C5_9 C4_9 1_555 1_555
C6_7 C3_7 1_555 1_555
H4_7 C6_7 1_555 1_555
C7_7 C2_9 1_555 1_555
C8_7 C11_7 1_555 1_555
C9_7 C7_7 1_555 1_555
C10_7 C9_7 1_555 1_555
H5_7 C10_7 1_555 1_555
C11_7 H6_7 1_555 1_555
C12_7 C9_7 1_555 1_555
H7_7 C12_7 1_555 1_555
C13_7 C8_7 1_555 1_555
H8_7 C13_7 1_555 1_555
O5_7 C18_9 1_555 1_555
O6_7 C18_9 1_555 1_555
C14_9 H9_9 1_555 1_555
C15_9 C14_9 1_555 1_555
H10_9 C15_9 1_555 1_555
C16_7 H11_7 1_555 1_555
C17_9 C14_9 1_555 1_555
C18_9 C17_9 1_555 1_555
C19_7 C16_7 1_555 1_555
H12_7 C19_7 1_555 1_555
C20_7 C15_9 1_555 1_555
C21_7 N1_7 1_555 1_555
C22_7 C20_7 1_555 1_555
C23_7 C22_7 1_555 1_555
H13_7 C23_7 1_555 1_555
C24_7 C21_7 1_555 1_555
H14_7 C24_7 1_555 1_555
C25_7 C22_7 1_555 1_555
H15_7 C25_7 1_555 1_555
C26_7 C21_7 1_555 1_555
H16_7 C26_7 1_555 1_555
C29_7 H19_7 1_555 1_555
C32_7 C29_7 1_555 1_555
H20_7 C32_7 1_555 1_555
C34_7 N1_7 1_555 1_555
C35_7 C33_7 1_555 1_555
C36_7 C35_7 1_555 1_555
H21_7 C36_7 1_555 1_555
C37_7 C34_7 1_555 1_555
H22_7 C37_7 1_555 1_555
C38_7 C35_7 1_555 1_555
H23_7 C38_7 1_555 1_555
C39_7 C34_7 1_555 1_555
H24_7 C39_7 1_555 1_555
Zn4_3 O6_7 1_555 1_555
Zn6_3 O5_7 1_555 1_555
O9_7 Zn2_5 1_555 1_555
O10_5 Zn2_5 1_555 1_555
O11_7 Zn1_5 1_555 1_555
O12_5 Zn1_5 1_555 1_555
C3_7 C7_7 1_555 1_555
C4_9 C6_7 1_555 1_555
C10_7 C13_7 1_555 1_555
C11_7 C12_7 1_555 1_555
C16_7 C20_7 1_555 1_555
C17_9 C19_7 1_555 1_555
C23_7 C26_7 1_555 1_555
C24_7 C25_7 1_555 1_555
C29_7 C33_7 1_555 1_555
C36_7 C39_7 1_555 1_555
C37_7 C38_7 1_555 1_555
Zn1_6 O2_8 1_555 1_555
Zn2_6 O1_8 1_555 1_555
O1_8 C5_10 1_555 1_555
O2_8 C5_10 1_555 1_555
O3_10 Zn1_6 1_555 1_555
O4_10 Zn2_6 1_555 1_555
N1_8 C8_8 1_555 1_555
C1_10 H1_10 1_555 1_555
C2_10 C1_10 1_555 1_555
H2_10 C2_10 1_555 1_555
C3_8 H3_8 1_555 1_555
C4_10 C1_10 1_555 1_555
C5_10 C4_10 1_555 1_555
C6_8 C3_8 1_555 1_555
H4_8 C6_8 1_555 1_555
C7_8 C2_10 1_555 1_555
C8_8 C11_8 1_555 1_555
C9_8 C7_8 1_555 1_555
C10_8 C9_8 1_555 1_555
H5_8 C10_8 1_555 1_555
C11_8 H6_8 1_555 1_555
C12_8 C9_8 1_555 1_555
H7_8 C12_8 1_555 1_555
C13_8 C8_8 1_555 1_555
H8_8 C13_8 1_555 1_555
O5_8 C18_10 1_555 1_555
O6_8 C18_10 1_555 1_555
C14_10 H9_10 1_555 1_555
C15_10 C14_10 1_555 1_555
H10_10 C15_10 1_555 1_555
C16_8 H11_8 1_555 1_555
C17_10 C14_10 1_555 1_555
C18_10 C17_10 1_555 1_555
C19_8 C16_8 1_555 1_555
H12_8 C19_8 1_555 1_555
C20_8 C15_10 1_555 1_555
C21_8 N1_8 1_555 1_555
C22_8 C20_8 1_555 1_555
C23_8 C22_8 1_555 1_555
H13_8 C23_8 1_555 1_555
C24_8 C21_8 1_555 1_555
H14_8 C24_8 1_555 1_555
C25_8 C22_8 1_555 1_555
H15_8 C25_8 1_555 1_555
C26_8 C21_8 1_555 1_555
H16_8 C26_8 1_555 1_555
C29_8 H19_8 1_555 1_555
C32_8 C29_8 1_555 1_555
H20_8 C32_8 1_555 1_555
C34_8 N1_8 1_555 1_555
C35_8 C33_8 1_555 1_555
C36_8 C35_8 1_555 1_555
H21_8 C36_8 1_555 1_555
C37_8 C34_8 1_555 1_555
H22_8 C37_8 1_555 1_555
C38_8 C35_8 1_555 1_555
H23_8 C38_8 1_555 1_555
C39_8 C34_8 1_555 1_555
H24_8 C39_8 1_555 1_555
Zn4_3 O6_8 1_555 1_555
Zn6_3 O5_8 1_555 1_555
O9_8 Zn2_6 1_555 1_555
O10_6 Zn2_6 1_555 1_555
O11_8 Zn1_6 1_555 1_555
O12_6 Zn1_6 1_555 1_555
C3_8 C7_8 1_555 1_555
C4_10 C6_8 1_555 1_555
C10_8 C13_8 1_555 1_555
C11_8 C12_8 1_555 1_555
C16_8 C20_8 1_555 1_555
C17_10 C19_8 1_555 1_555
C23_8 C26_8 1_555 1_555
C24_8 C25_8 1_555 1_555
C29_8 C33_8 1_555 1_555
C36_8 C39_8 1_555 1_555
C37_8 C38_8 1_555 1_555
O10_5 C31_10 1_555 1_555
O12_5 C31_10 1_555 1_555
C27_10 H17_10 1_555 1_555
C28_10 C27_10 1_555 1_555
H18_10 C28_10 1_555 1_555
C30_10 C27_10 1_555 1_555
C31_10 C30_10 1_555 1_555
O10_6 C31_11 1_555 1_555
O12_6 C31_11 1_555 1_555
C27_11 H17_11 1_555 1_555
C28_11 C27_11 1_555 1_555
H18_11 C28_11 1_555 1_555
C30_11 C27_11 1_555 1_555
C31_11 C30_11 1_555 1_555
Zn3_3 O2_9 1_555 1_555
Zn5_3 O1_9 1_555 1_555
O1_9 C5_11 1_555 1_555
O2_9 C5_11 1_555 1_555
O3_11 Zn3_3 1_555 1_555
O4_11 Zn5_3 1_555 1_555
N1_9 C8_9 1_555 1_555
C1_11 H1_11 1_555 1_555
C2_11 C1_11 1_555 1_555
H2_11 C2_11 1_555 1_555
C3_9 H3_9 1_555 1_555
C4_11 C1_11 1_555 1_555
C5_11 C4_11 1_555 1_555
C6_9 C3_9 1_555 1_555
H4_9 C6_9 1_555 1_555
C7_9 C2_11 1_555 1_555
C8_9 C11_9 1_555 1_555
C9_9 C7_9 1_555 1_555
C10_9 C9_9 1_555 1_555
H5_9 C10_9 1_555 1_555
C11_9 H6_9 1_555 1_555
C12_9 C9_9 1_555 1_555
H7_9 C12_9 1_555 1_555
C13_9 C8_9 1_555 1_555
H8_9 C13_9 1_555 1_555
O5_9 C18_11 1_555 1_555
O6_9 C18_11 1_555 1_555
C14_11 H9_11 1_555 1_555
C15_11 C14_11 1_555 1_555
H10_11 C15_11 1_555 1_555
C16_9 H11_9 1_555 1_555
C17_11 C14_11 1_555 1_555
C18_11 C17_11 1_555 1_555
C19_9 C16_9 1_555 1_555
H12_9 C19_9 1_555 1_555
C20_9 C15_11 1_555 1_555
C21_9 N1_9 1_555 1_555
C22_9 C20_9 1_555 1_555
C23_9 C22_9 1_555 1_555
H13_9 C23_9 1_555 1_555
C24_9 C21_9 1_555 1_555
H14_9 C24_9 1_555 1_555
C25_9 C22_9 1_555 1_555
H15_9 C25_9 1_555 1_555
C26_9 C21_9 1_555 1_555
H16_9 C26_9 1_555 1_555
C29_9 H19_9 1_555 1_555
C32_9 C29_9 1_555 1_555
H20_9 C32_9 1_555 1_555
C34_9 N1_9 1_555 1_555
C35_9 C33_9 1_555 1_555
C36_9 C35_9 1_555 1_555
H21_9 C36_9 1_555 1_555
C37_9 C34_9 1_555 1_555
H22_9 C37_9 1_555 1_555
C38_9 C35_9 1_555 1_555
H23_9 C38_9 1_555 1_555
C39_9 C34_9 1_555 1_555
H24_9 C39_9 1_555 1_555
Zn4_3 O6_9 1_555 1_555
Zn6_3 O5_9 1_555 1_555
O9_9 Zn5_3 1_555 1_555
O11_9 Zn3_3 1_555 1_555
C3_9 C7_9 1_555 1_555
C4_11 C6_9 1_555 1_555
C10_9 C13_9 1_555 1_555
C11_9 C12_9 1_555 1_555
C16_9 C20_9 1_555 1_555
C17_11 C19_9 1_555 1_555
C23_9 C26_9 1_555 1_555
C24_9 C25_9 1_555 1_555
C29_9 C33_9 1_555 1_555
C36_9 C39_9 1_555 1_555
C37_9 C38_9 1_555 1_555
O9_8 C31_12 1_555 1_555
O11_8 C31_12 1_555 1_555
C27_12 H17_12 1_555 1_555
C28_12 C27_12 1_555 1_555
H18_12 C28_12 1_555 1_555
C30_12 C27_12 1_555 1_555
C31_12 C30_12 1_555 1_555
O9_7 C5_12 1_555 1_555
O11_7 C5_12 1_555 1_555
C1_12 H1_12 1_555 1_555
C2_12 C1_12 1_555 1_555
H2_12 C2_12 1_555 1_555
C4_12 C1_12 1_555 1_555
C5_12 C4_12 1_555 1_555
O9_9 C18_12 1_555 1_555
O11_9 C18_12 1_555 1_555
C14_12 H9_12 1_555 1_555
C15_12 C14_12 1_555 1_555
H10_12 C15_12 1_555 1_555
C17_12 C14_12 1_555 1_555
C18_12 C17_12 1_555 1_555
O3_12 Zn4_3 1_555 1_555
O4_12 Zn6_3 1_555 1_555
O7_4 C31_13 1_555 1_555
O8_4 C31_13 1_555 1_555
C27_13 H17_13 1_555 1_555
C28_13 C27_13 1_555 1_555
H18_13 C28_13 1_555 1_555
C30_13 C27_13 1_555 1_555
C31_13 C30_13 1_555 1_555
Zn3_4 O8_4 1_555 1_555
Zn5_4 O7_4 1_555 1_555
Zn1_7 O2_10 1_555 1_555
Zn2_7 O1_10 1_555 1_555
O1_10 C5_13 1_555 1_555
O2_10 C5_13 1_555 1_555
O3_13 Zn1_7 1_555 1_555
O4_13 Zn2_7 1_555 1_555
N1_10 C8_10 1_555 1_555
C1_13 H1_13 1_555 1_555
C2_13 C1_13 1_555 1_555
H2_13 C2_13 1_555 1_555
C3_10 H3_10 1_555 1_555
C4_13 C1_13 1_555 1_555
C5_13 C4_13 1_555 1_555
C6_10 C3_10 1_555 1_555
H4_10 C6_10 1_555 1_555
C7_10 C2_13 1_555 1_555
C8_10 C11_10 1_555 1_555
C9_10 C7_10 1_555 1_555
C10_10 C9_10 1_555 1_555
H5_10 C10_10 1_555 1_555
C11_10 H6_10 1_555 1_555
C12_10 C9_10 1_555 1_555
H7_10 C12_10 1_555 1_555
C13_10 C8_10 1_555 1_555
H8_10 C13_10 1_555 1_555
O5_10 C18_13 1_555 1_555
O6_10 C18_13 1_555 1_555
C14_13 H9_13 1_555 1_555
C15_13 C14_13 1_555 1_555
H10_13 C15_13 1_555 1_555
C16_10 H11_10 1_555 1_555
C17_13 C14_13 1_555 1_555
C18_13 C17_13 1_555 1_555
C19_10 C16_10 1_555 1_555
H12_10 C19_10 1_555 1_555
C20_10 C15_13 1_555 1_555
C21_10 N1_10 1_555 1_555
C22_10 C20_10 1_555 1_555
C23_10 C22_10 1_555 1_555
H13_10 C23_10 1_555 1_555
C24_10 C21_10 1_555 1_555
H14_10 C24_10 1_555 1_555
C25_10 C22_10 1_555 1_555
H15_10 C25_10 1_555 1_555
C26_10 C21_10 1_555 1_555
H16_10 C26_10 1_555 1_555
C29_10 H19_10 1_555 1_555
C32_10 C29_10 1_555 1_555
H20_10 C32_10 1_555 1_555
C34_10 N1_10 1_555 1_555
C35_10 C33_10 1_555 1_555
C36_10 C35_10 1_555 1_555
H21_10 C36_10 1_555 1_555
C37_10 C34_10 1_555 1_555
H22_10 C37_10 1_555 1_555
C38_10 C35_10 1_555 1_555
H23_10 C38_10 1_555 1_555
C39_10 C34_10 1_555 1_555
H24_10 C39_10 1_555 1_555
Zn4_4 O6_10 1_555 1_555
Zn6_4 O5_10 1_555 1_555
O9_10 Zn2_7 1_555 1_555
O10_7 Zn2_7 1_555 1_555
O11_10 Zn1_7 1_555 1_555
O12_7 Zn1_7 1_555 1_555
C3_10 C7_10 1_555 1_555
C4_13 C6_10 1_555 1_555
C10_10 C13_10 1_555 1_555
C11_10 C12_10 1_555 1_555
C16_10 C20_10 1_555 1_555
C17_13 C19_10 1_555 1_555
C23_10 C26_10 1_555 1_555
C24_10 C25_10 1_555 1_555
C29_10 C33_10 1_555 1_555
C36_10 C39_10 1_555 1_555
C37_10 C38_10 1_555 1_555
O10_7 C31_14 1_555 1_555
O12_7 C31_14 1_555 1_555
C27_14 H17_14 1_555 1_555
C28_14 C27_14 1_555 1_555
H18_14 C28_14 1_555 1_555
C30_14 C27_14 1_555 1_555
C31_14 C30_14 1_555 1_555
Zn1_8 O2_11 1_555 1_555
Zn2_8 O1_11 1_555 1_555
O1_11 C5_14 1_555 1_555
O2_11 C5_14 1_555 1_555
O3_14 Zn1_8 1_555 1_555
O4_14 Zn2_8 1_555 1_555
N1_11 C8_11 1_555 1_555
C1_14 H1_14 1_555 1_555
C2_14 C1_14 1_555 1_555
H2_14 C2_14 1_555 1_555
C3_11 H3_11 1_555 1_555
C4_14 C1_14 1_555 1_555
C5_14 C4_14 1_555 1_555
C6_11 C3_11 1_555 1_555
H4_11 C6_11 1_555 1_555
C7_11 C2_14 1_555 1_555
C8_11 C11_11 1_555 1_555
C9_11 C7_11 1_555 1_555
C10_11 C9_11 1_555 1_555
H5_11 C10_11 1_555 1_555
C11_11 H6_11 1_555 1_555
C12_11 C9_11 1_555 1_555
H7_11 C12_11 1_555 1_555
C13_11 C8_11 1_555 1_555
H8_11 C13_11 1_555 1_555
O5_11 C18_14 1_555 1_555
O6_11 C18_14 1_555 1_555
C14_14 H9_14 1_555 1_555
C15_14 C14_14 1_555 1_555
H10_14 C15_14 1_555 1_555
C16_11 H11_11 1_555 1_555
C17_14 C14_14 1_555 1_555
C18_14 C17_14 1_555 1_555
C19_11 C16_11 1_555 1_555
H12_11 C19_11 1_555 1_555
C20_11 C15_14 1_555 1_555
C21_11 N1_11 1_555 1_555
C22_11 C20_11 1_555 1_555
C23_11 C22_11 1_555 1_555
H13_11 C23_11 1_555 1_555
C24_11 C21_11 1_555 1_555
H14_11 C24_11 1_555 1_555
C25_11 C22_11 1_555 1_555
H15_11 C25_11 1_555 1_555
C26_11 C21_11 1_555 1_555
H16_11 C26_11 1_555 1_555
C29_11 H19_11 1_555 1_555
C32_11 C29_11 1_555 1_555
H20_11 C32_11 1_555 1_555
C34_11 N1_11 1_555 1_555
C35_11 C33_11 1_555 1_555
C36_11 C35_11 1_555 1_555
H21_11 C36_11 1_555 1_555
C37_11 C34_11 1_555 1_555
H22_11 C37_11 1_555 1_555
C38_11 C35_11 1_555 1_555
H23_11 C38_11 1_555 1_555
C39_11 C34_11 1_555 1_555
H24_11 C39_11 1_555 1_555
Zn4_4 O6_11 1_555 1_555
Zn6_4 O5_11 1_555 1_555
O9_11 Zn2_8 1_555 1_555
O10_8 Zn2_8 1_555 1_555
O11_11 Zn1_8 1_555 1_555
O12_8 Zn1_8 1_555 1_555
C3_11 C7_11 1_555 1_555
C4_14 C6_11 1_555 1_555
C10_11 C13_11 1_555 1_555
C11_11 C12_11 1_555 1_555
C16_11 C20_11 1_555 1_555
C17_14 C19_11 1_555 1_555
C23_11 C26_11 1_555 1_555
C24_11 C25_11 1_555 1_555
C29_11 C33_11 1_555 1_555
C36_11 C39_11 1_555 1_555
C37_11 C38_11 1_555 1_555
Zn3_4 O2_12 1_555 1_555
Zn5_4 O1_12 1_555 1_555
O1_12 C5_15 1_555 1_555
O2_12 C5_15 1_555 1_555
O3_15 Zn3_4 1_555 1_555
O4_15 Zn5_4 1_555 1_555
N1_12 C8_12 1_555 1_555
C1_15 H1_15 1_555 1_555
C2_15 C1_15 1_555 1_555
H2_15 C2_15 1_555 1_555
C3_12 H3_12 1_555 1_555
C4_15 C1_15 1_555 1_555
C5_15 C4_15 1_555 1_555
C6_12 C3_12 1_555 1_555
H4_12 C6_12 1_555 1_555
C7_12 C2_15 1_555 1_555
C8_12 C11_12 1_555 1_555
C9_12 C7_12 1_555 1_555
C10_12 C9_12 1_555 1_555
H5_12 C10_12 1_555 1_555
C11_12 H6_12 1_555 1_555
C12_12 C9_12 1_555 1_555
H7_12 C12_12 1_555 1_555
C13_12 C8_12 1_555 1_555
H8_12 C13_12 1_555 1_555
O5_12 C18_15 1_555 1_555
O6_12 C18_15 1_555 1_555
C14_15 H9_15 1_555 1_555
C15_15 C14_15 1_555 1_555
H10_15 C15_15 1_555 1_555
C16_12 H11_12 1_555 1_555
C17_15 C14_15 1_555 1_555
C18_15 C17_15 1_555 1_555
C19_12 C16_12 1_555 1_555
H12_12 C19_12 1_555 1_555
C20_12 C15_15 1_555 1_555
C21_12 N1_12 1_555 1_555
C22_12 C20_12 1_555 1_555
C23_12 C22_12 1_555 1_555
H13_12 C23_12 1_555 1_555
C24_12 C21_12 1_555 1_555
H14_12 C24_12 1_555 1_555
C25_12 C22_12 1_555 1_555
H15_12 C25_12 1_555 1_555
C26_12 C21_12 1_555 1_555
H16_12 C26_12 1_555 1_555
C29_12 H19_12 1_555 1_555
C32_12 C29_12 1_555 1_555
H20_12 C32_12 1_555 1_555
C34_12 N1_12 1_555 1_555
C35_12 C33_12 1_555 1_555
C36_12 C35_12 1_555 1_555
H21_12 C36_12 1_555 1_555
C37_12 C34_12 1_555 1_555
H22_12 C37_12 1_555 1_555
C38_12 C35_12 1_555 1_555
H23_12 C38_12 1_555 1_555
C39_12 C34_12 1_555 1_555
H24_12 C39_12 1_555 1_555
Zn4_4 O6_12 1_555 1_555
Zn6_4 O5_12 1_555 1_555
O9_12 Zn5_4 1_555 1_555
O11_12 Zn3_4 1_555 1_555
C3_12 C7_12 1_555 1_555
C4_15 C6_12 1_555 1_555
C10_12 C13_12 1_555 1_555
C11_12 C12_12 1_555 1_555
C16_12 C20_12 1_555 1_555
C17_15 C19_12 1_555 1_555
C23_12 C26_12 1_555 1_555
C24_12 C25_12 1_555 1_555
C29_12 C33_12 1_555 1_555
C36_12 C39_12 1_555 1_555
C37_12 C38_12 1_555 1_555
O10_8 C31_15 1_555 1_555
O12_8 C31_15 1_555 1_555
C27_15 H17_15 1_555 1_555
C28_15 C27_15 1_555 1_555
H18_15 C28_15 1_555 1_555
C30_15 C27_15 1_555 1_555
C31_15 C30_15 1_555 1_555
O9_12 C18_16 1_555 1_555
O11_12 C18_16 1_555 1_555
C14_16 H9_16 1_555 1_555
C15_16 C14_16 1_555 1_555
H10_16 C15_16 1_555 1_555
C17_16 C14_16 1_555 1_555
C18_16 C17_16 1_555 1_555
O9_10 C5_16 1_555 1_555
O11_10 C5_16 1_555 1_555
C1_16 H1_16 1_555 1_555
C2_16 C1_16 1_555 1_555
H2_16 C2_16 1_555 1_555
C4_16 C1_16 1_555 1_555
C5_16 C4_16 1_555 1_555
O9_11 C31_16 1_555 1_555
O11_11 C31_16 1_555 1_555
C27_16 H17_16 1_555 1_555
C28_16 C27_16 1_555 1_555
H18_16 C28_16 1_555 1_555
C30_16 C27_16 1_555 1_555
C31_16 C30_16 1_555 1_555
O3_16 Zn4_4 1_555 1_555
O4_16 Zn6_4 1_555 1_555
O7_5 C31_17 1_555 1_555
O8_5 C31_17 1_555 1_555
C27_17 H17_17 1_555 1_555
C28_17 C27_17 1_555 1_555
H18_17 C28_17 1_555 1_555
C30_17 C27_17 1_555 1_555
C31_17 C30_17 1_555 1_555
Zn3_5 O8_5 1_555 1_555
Zn5_5 O7_5 1_555 1_555
Zn1_9 O2_13 1_555 1_555
Zn2_9 O1_13 1_555 1_555
O1_13 C5_17 1_555 1_555
O2_13 C5_17 1_555 1_555
O3_17 Zn1_9 1_555 1_555
O4_17 Zn2_9 1_555 1_555
N1_13 C8_13 1_555 1_555
C1_17 H1_17 1_555 1_555
C2_17 C1_17 1_555 1_555
H2_17 C2_17 1_555 1_555
C3_13 H3_13 1_555 1_555
C4_17 C1_17 1_555 1_555
C5_17 C4_17 1_555 1_555
C6_13 C3_13 1_555 1_555
H4_13 C6_13 1_555 1_555
C7_13 C2_17 1_555 1_555
C8_13 C11_13 1_555 1_555
C9_13 C7_13 1_555 1_555
C10_13 C9_13 1_555 1_555
H5_13 C10_13 1_555 1_555
C11_13 H6_13 1_555 1_555
C12_13 C9_13 1_555 1_555
H7_13 C12_13 1_555 1_555
C13_13 C8_13 1_555 1_555
H8_13 C13_13 1_555 1_555
O5_13 C18_17 1_555 1_555
O6_13 C18_17 1_555 1_555
C14_17 H9_17 1_555 1_555
C15_17 C14_17 1_555 1_555
H10_17 C15_17 1_555 1_555
C16_13 H11_13 1_555 1_555
C17_17 C14_17 1_555 1_555
C18_17 C17_17 1_555 1_555
C19_13 C16_13 1_555 1_555
H12_13 C19_13 1_555 1_555
C20_13 C15_17 1_555 1_555
C21_13 N1_13 1_555 1_555
C22_13 C20_13 1_555 1_555
C23_13 C22_13 1_555 1_555
H13_13 C23_13 1_555 1_555
C24_13 C21_13 1_555 1_555
H14_13 C24_13 1_555 1_555
C25_13 C22_13 1_555 1_555
H15_13 C25_13 1_555 1_555
C26_13 C21_13 1_555 1_555
H16_13 C26_13 1_555 1_555
C29_13 H19_13 1_555 1_555
C32_13 C29_13 1_555 1_555
H20_13 C32_13 1_555 1_555
C34_13 N1_13 1_555 1_555
C35_13 C33_13 1_555 1_555
C36_13 C35_13 1_555 1_555
H21_13 C36_13 1_555 1_555
C37_13 C34_13 1_555 1_555
H22_13 C37_13 1_555 1_555
C38_13 C35_13 1_555 1_555
H23_13 C38_13 1_555 1_555
C39_13 C34_13 1_555 1_555
H24_13 C39_13 1_555 1_555
Zn4_5 O6_13 1_555 1_555
Zn6_5 O5_13 1_555 1_555
O9_13 Zn2_9 1_555 1_555
O10_9 Zn2_9 1_555 1_555
O11_13 Zn1_9 1_555 1_555
O12_9 Zn1_9 1_555 1_555
C3_13 C7_13 1_555 1_555
C4_17 C6_13 1_555 1_555
C10_13 C13_13 1_555 1_555
C11_13 C12_13 1_555 1_555
C16_13 C20_13 1_555 1_555
C17_17 C19_13 1_555 1_555
C23_13 C26_13 1_555 1_555
C24_13 C25_13 1_555 1_555
C29_13 C33_13 1_555 1_555
C36_13 C39_13 1_555 1_555
C37_13 C38_13 1_555 1_555
O10_9 C31_18 1_555 1_555
O12_9 C31_18 1_555 1_555
C27_18 H17_18 1_555 1_555
C28_18 C27_18 1_555 1_555
H18_18 C28_18 1_555 1_555
C30_18 C27_18 1_555 1_555
C31_18 C30_18 1_555 1_555
Zn1_10 O2_14 1_555 1_555
Zn2_10 O1_14 1_555 1_555
O1_14 C5_18 1_555 1_555
O2_14 C5_18 1_555 1_555
O3_18 Zn1_10 1_555 1_555
O4_18 Zn2_10 1_555 1_555
N1_14 C8_14 1_555 1_555
C1_18 H1_18 1_555 1_555
C2_18 C1_18 1_555 1_555
H2_18 C2_18 1_555 1_555
C3_14 H3_14 1_555 1_555
C4_18 C1_18 1_555 1_555
C5_18 C4_18 1_555 1_555
C6_14 C3_14 1_555 1_555
H4_14 C6_14 1_555 1_555
C7_14 C2_18 1_555 1_555
C8_14 C11_14 1_555 1_555
C9_14 C7_14 1_555 1_555
C10_14 C9_14 1_555 1_555
H5_14 C10_14 1_555 1_555
C11_14 H6_14 1_555 1_555
C12_14 C9_14 1_555 1_555
H7_14 C12_14 1_555 1_555
C13_14 C8_14 1_555 1_555
H8_14 C13_14 1_555 1_555
O5_14 C18_18 1_555 1_555
O6_14 C18_18 1_555 1_555
C14_18 H9_18 1_555 1_555
C15_18 C14_18 1_555 1_555
H10_18 C15_18 1_555 1_555
C16_14 H11_14 1_555 1_555
C17_18 C14_18 1_555 1_555
C18_18 C17_18 1_555 1_555
C19_14 C16_14 1_555 1_555
H12_14 C19_14 1_555 1_555
C20_14 C15_18 1_555 1_555
C21_14 N1_14 1_555 1_555
C22_14 C20_14 1_555 1_555
C23_14 C22_14 1_555 1_555
H13_14 C23_14 1_555 1_555
C24_14 C21_14 1_555 1_555
H14_14 C24_14 1_555 1_555
C25_14 C22_14 1_555 1_555
H15_14 C25_14 1_555 1_555
C26_14 C21_14 1_555 1_555
H16_14 C26_14 1_555 1_555
C29_14 H19_14 1_555 1_555
C32_14 C29_14 1_555 1_555
H20_14 C32_14 1_555 1_555
C34_14 N1_14 1_555 1_555
C35_14 C33_14 1_555 1_555
C36_14 C35_14 1_555 1_555
H21_14 C36_14 1_555 1_555
C37_14 C34_14 1_555 1_555
H22_14 C37_14 1_555 1_555
C38_14 C35_14 1_555 1_555
H23_14 C38_14 1_555 1_555
C39_14 C34_14 1_555 1_555
H24_14 C39_14 1_555 1_555
Zn4_5 O6_14 1_555 1_555
Zn6_5 O5_14 1_555 1_555
O9_14 Zn2_10 1_555 1_555
O10_10 Zn2_10 1_555 1_555
O11_14 Zn1_10 1_555 1_555
O12_10 Zn1_10 1_555 1_555
C3_14 C7_14 1_555 1_555
C4_18 C6_14 1_555 1_555
C10_14 C13_14 1_555 1_555
C11_14 C12_14 1_555 1_555
C16_14 C20_14 1_555 1_555
C17_18 C19_14 1_555 1_555
C23_14 C26_14 1_555 1_555
C24_14 C25_14 1_555 1_555
C29_14 C33_14 1_555 1_555
C36_14 C39_14 1_555 1_555
C37_14 C38_14 1_555 1_555
O10_10 C31_19 1_555 1_555
O12_10 C31_19 1_555 1_555
C27_19 H17_19 1_555 1_555
C28_19 C27_19 1_555 1_555
H18_19 C28_19 1_555 1_555
C30_19 C27_19 1_555 1_555
C31_19 C30_19 1_555 1_555
Zn3_5 O2_15 1_555 1_555
Zn5_5 O1_15 1_555 1_555
O1_15 C5_19 1_555 1_555
O2_15 C5_19 1_555 1_555
O3_19 Zn3_5 1_555 1_555
O4_19 Zn5_5 1_555 1_555
N1_15 C8_15 1_555 1_555
C1_19 H1_19 1_555 1_555
C2_19 C1_19 1_555 1_555
H2_19 C2_19 1_555 1_555
C3_15 H3_15 1_555 1_555
C4_19 C1_19 1_555 1_555
C5_19 C4_19 1_555 1_555
C6_15 C3_15 1_555 1_555
H4_15 C6_15 1_555 1_555
C7_15 C2_19 1_555 1_555
C8_15 C11_15 1_555 1_555
C9_15 C7_15 1_555 1_555
C10_15 C9_15 1_555 1_555
H5_15 C10_15 1_555 1_555
C11_15 H6_15 1_555 1_555
C12_15 C9_15 1_555 1_555
H7_15 C12_15 1_555 1_555
C13_15 C8_15 1_555 1_555
H8_15 C13_15 1_555 1_555
O5_15 C18_19 1_555 1_555
O6_15 C18_19 1_555 1_555
C14_19 H9_19 1_555 1_555
C15_19 C14_19 1_555 1_555
H10_19 C15_19 1_555 1_555
C16_15 H11_15 1_555 1_555
C17_19 C14_19 1_555 1_555
C18_19 C17_19 1_555 1_555
C19_15 C16_15 1_555 1_555
H12_15 C19_15 1_555 1_555
C20_15 C15_19 1_555 1_555
C21_15 N1_15 1_555 1_555
C22_15 C20_15 1_555 1_555
C23_15 C22_15 1_555 1_555
H13_15 C23_15 1_555 1_555
C24_15 C21_15 1_555 1_555
H14_15 C24_15 1_555 1_555
C25_15 C22_15 1_555 1_555
H15_15 C25_15 1_555 1_555
C26_15 C21_15 1_555 1_555
H16_15 C26_15 1_555 1_555
C29_15 H19_15 1_555 1_555
C32_15 C29_15 1_555 1_555
H20_15 C32_15 1_555 1_555
C34_15 N1_15 1_555 1_555
C35_15 C33_15 1_555 1_555
C36_15 C35_15 1_555 1_555
H21_15 C36_15 1_555 1_555
C37_15 C34_15 1_555 1_555
H22_15 C37_15 1_555 1_555
C38_15 C35_15 1_555 1_555
H23_15 C38_15 1_555 1_555
C39_15 C34_15 1_555 1_555
H24_15 C39_15 1_555 1_555
Zn4_5 O6_15 1_555 1_555
Zn6_5 O5_15 1_555 1_555
O9_15 Zn5_5 1_555 1_555
O11_15 Zn3_5 1_555 1_555
C3_15 C7_15 1_555 1_555
C4_19 C6_15 1_555 1_555
C10_15 C13_15 1_555 1_555
C11_15 C12_15 1_555 1_555
C16_15 C20_15 1_555 1_555
C17_19 C19_15 1_555 1_555
C23_15 C26_15 1_555 1_555
C24_15 C25_15 1_555 1_555
C29_15 C33_15 1_555 1_555
C36_15 C39_15 1_555 1_555
C37_15 C38_15 1_555 1_555
O3_20 Zn4_5 1_555 1_555
O4_20 Zn6_5 1_555 1_555
O9_13 C18_20 1_555 1_555
O11_13 C18_20 1_555 1_555
C14_20 H9_20 1_555 1_555
C15_20 C14_20 1_555 1_555
H10_20 C15_20 1_555 1_555
C17_20 C14_20 1_555 1_555
C18_20 C17_20 1_555 1_555
O9_14 C5_20 1_555 1_555
O11_14 C5_20 1_555 1_555
C1_20 H1_20 1_555 1_555
C2_20 C1_20 1_555 1_555
H2_20 C2_20 1_555 1_555
C4_20 C1_20 1_555 1_555
C5_20 C4_20 1_555 1_555
O9_15 C31_20 1_555 1_555
O11_15 C31_20 1_555 1_555
C27_20 H17_20 1_555 1_555
C28_20 C27_20 1_555 1_555
H18_20 C28_20 1_555 1_555
C30_20 C27_20 1_555 1_555
C31_20 C30_20 1_555 1_555
O7_6 C31_21 1_555 1_555
O8_6 C31_21 1_555 1_555
C27_21 H17_21 1_555 1_555
C28_21 C27_21 1_555 1_555
H18_21 C28_21 1_555 1_555
C30_21 C27_21 1_555 1_555
C31_21 C30_21 1_555 1_555
Zn3_6 O8_6 1_555 1_555
Zn5_6 O7_6 1_555 1_555
Zn1_11 O2_16 1_555 1_555
Zn2_11 O1_16 1_555 1_555
O1_16 C5_21 1_555 1_555
O2_16 C5_21 1_555 1_555
O3_21 Zn1_11 1_555 1_555
O4_21 Zn2_11 1_555 1_555
N1_16 C8_16 1_555 1_555
C1_21 H1_21 1_555 1_555
C2_21 C1_21 1_555 1_555
H2_21 C2_21 1_555 1_555
C3_16 H3_16 1_555 1_555
C4_21 C1_21 1_555 1_555
C5_21 C4_21 1_555 1_555
C6_16 C3_16 1_555 1_555
H4_16 C6_16 1_555 1_555
C7_16 C2_21 1_555 1_555
C8_16 C11_16 1_555 1_555
C9_16 C7_16 1_555 1_555
C10_16 C9_16 1_555 1_555
H5_16 C10_16 1_555 1_555
C11_16 H6_16 1_555 1_555
C12_16 C9_16 1_555 1_555
H7_16 C12_16 1_555 1_555
C13_16 C8_16 1_555 1_555
H8_16 C13_16 1_555 1_555
O5_16 C18_21 1_555 1_555
O6_16 C18_21 1_555 1_555
C14_21 H9_21 1_555 1_555
C15_21 C14_21 1_555 1_555
H10_21 C15_21 1_555 1_555
C16_16 H11_16 1_555 1_555
C17_21 C14_21 1_555 1_555
C18_21 C17_21 1_555 1_555
C19_16 C16_16 1_555 1_555
H12_16 C19_16 1_555 1_555
C20_16 C15_21 1_555 1_555
C21_16 N1_16 1_555 1_555
C22_16 C20_16 1_555 1_555
C23_16 C22_16 1_555 1_555
H13_16 C23_16 1_555 1_555
C24_16 C21_16 1_555 1_555
H14_16 C24_16 1_555 1_555
C25_16 C22_16 1_555 1_555
H15_16 C25_16 1_555 1_555
C26_16 C21_16 1_555 1_555
H16_16 C26_16 1_555 1_555
C29_16 H19_16 1_555 1_555
C32_16 C29_16 1_555 1_555
H20_16 C32_16 1_555 1_555
C34_16 N1_16 1_555 1_555
C35_16 C33_16 1_555 1_555
C36_16 C35_16 1_555 1_555
H21_16 C36_16 1_555 1_555
C37_16 C34_16 1_555 1_555
H22_16 C37_16 1_555 1_555
C38_16 C35_16 1_555 1_555
H23_16 C38_16 1_555 1_555
C39_16 C34_16 1_555 1_555
H24_16 C39_16 1_555 1_555
Zn4_6 O6_16 1_555 1_555
Zn6_6 O5_16 1_555 1_555
O9_16 Zn2_11 1_555 1_555
O10_11 Zn2_11 1_555 1_555
O11_16 Zn1_11 1_555 1_555
O12_11 Zn1_11 1_555 1_555
C3_16 C7_16 1_555 1_555
C4_21 C6_16 1_555 1_555
C10_16 C13_16 1_555 1_555
C11_16 C12_16 1_555 1_555
C16_16 C20_16 1_555 1_555
C17_21 C19_16 1_555 1_555
C23_16 C26_16 1_555 1_555
C24_16 C25_16 1_555 1_555
C29_16 C33_16 1_555 1_555
C36_16 C39_16 1_555 1_555
C37_16 C38_16 1_555 1_555
Zn1_12 O2_17 1_555 1_555
Zn2_12 O1_17 1_555 1_555
O1_17 C5_22 1_555 1_555
O2_17 C5_22 1_555 1_555
O3_22 Zn1_12 1_555 1_555
O4_22 Zn2_12 1_555 1_555
N1_17 C8_17 1_555 1_555
C1_22 H1_22 1_555 1_555
C2_22 C1_22 1_555 1_555
H2_22 C2_22 1_555 1_555
C3_17 H3_17 1_555 1_555
C4_22 C1_22 1_555 1_555
C5_22 C4_22 1_555 1_555
C6_17 C3_17 1_555 1_555
H4_17 C6_17 1_555 1_555
C7_17 C2_22 1_555 1_555
C8_17 C11_17 1_555 1_555
C9_17 C7_17 1_555 1_555
C10_17 C9_17 1_555 1_555
H5_17 C10_17 1_555 1_555
C11_17 H6_17 1_555 1_555
C12_17 C9_17 1_555 1_555
H7_17 C12_17 1_555 1_555
C13_17 C8_17 1_555 1_555
H8_17 C13_17 1_555 1_555
O5_17 C18_22 1_555 1_555
O6_17 C18_22 1_555 1_555
C14_22 H9_22 1_555 1_555
C15_22 C14_22 1_555 1_555
H10_22 C15_22 1_555 1_555
C16_17 H11_17 1_555 1_555
C17_22 C14_22 1_555 1_555
C18_22 C17_22 1_555 1_555
C19_17 C16_17 1_555 1_555
H12_17 C19_17 1_555 1_555
C20_17 C15_22 1_555 1_555
C21_17 N1_17 1_555 1_555
C22_17 C20_17 1_555 1_555
C23_17 C22_17 1_555 1_555
H13_17 C23_17 1_555 1_555
C24_17 C21_17 1_555 1_555
H14_17 C24_17 1_555 1_555
C25_17 C22_17 1_555 1_555
H15_17 C25_17 1_555 1_555
C26_17 C21_17 1_555 1_555
H16_17 C26_17 1_555 1_555
C29_17 H19_17 1_555 1_555
C32_17 C29_17 1_555 1_555
H20_17 C32_17 1_555 1_555
C34_17 N1_17 1_555 1_555
C35_17 C33_17 1_555 1_555
C36_17 C35_17 1_555 1_555
H21_17 C36_17 1_555 1_555
C37_17 C34_17 1_555 1_555
H22_17 C37_17 1_555 1_555
C38_17 C35_17 1_555 1_555
H23_17 C38_17 1_555 1_555
C39_17 C34_17 1_555 1_555
H24_17 C39_17 1_555 1_555
Zn4_6 O6_17 1_555 1_555
Zn6_6 O5_17 1_555 1_555
O9_17 Zn2_12 1_555 1_555
O10_12 Zn2_12 1_555 1_555
O11_17 Zn1_12 1_555 1_555
O12_12 Zn1_12 1_555 1_555
C3_17 C7_17 1_555 1_555
C4_22 C6_17 1_555 1_555
C10_17 C13_17 1_555 1_555
C11_17 C12_17 1_555 1_555
C16_17 C20_17 1_555 1_555
C17_22 C19_17 1_555 1_555
C23_17 C26_17 1_555 1_555
C24_17 C25_17 1_555 1_555
C29_17 C33_17 1_555 1_555
C36_17 C39_17 1_555 1_555
C37_17 C38_17 1_555 1_555
O10_11 C31_22 1_555 1_555
O12_11 C31_22 1_555 1_555
C27_22 H17_22 1_555 1_555
C28_22 C27_22 1_555 1_555
H18_22 C28_22 1_555 1_555
C30_22 C27_22 1_555 1_555
C31_22 C30_22 1_555 1_555
Zn3_6 O2_18 1_555 1_555
Zn5_6 O1_18 1_555 1_555
O1_18 C5_23 1_555 1_555
O2_18 C5_23 1_555 1_555
O3_23 Zn3_6 1_555 1_555
O4_23 Zn5_6 1_555 1_555
N1_18 C8_18 1_555 1_555
C1_23 H1_23 1_555 1_555
C2_23 C1_23 1_555 1_555
H2_23 C2_23 1_555 1_555
C3_18 H3_18 1_555 1_555
C4_23 C1_23 1_555 1_555
C5_23 C4_23 1_555 1_555
C6_18 C3_18 1_555 1_555
H4_18 C6_18 1_555 1_555
C7_18 C2_23 1_555 1_555
C8_18 C11_18 1_555 1_555
C9_18 C7_18 1_555 1_555
C10_18 C9_18 1_555 1_555
H5_18 C10_18 1_555 1_555
C11_18 H6_18 1_555 1_555
C12_18 C9_18 1_555 1_555
H7_18 C12_18 1_555 1_555
C13_18 C8_18 1_555 1_555
H8_18 C13_18 1_555 1_555
O5_18 C18_23 1_555 1_555
O6_18 C18_23 1_555 1_555
C14_23 H9_23 1_555 1_555
C15_23 C14_23 1_555 1_555
H10_23 C15_23 1_555 1_555
C16_18 H11_18 1_555 1_555
C17_23 C14_23 1_555 1_555
C18_23 C17_23 1_555 1_555
C19_18 C16_18 1_555 1_555
H12_18 C19_18 1_555 1_555
C20_18 C15_23 1_555 1_555
C21_18 N1_18 1_555 1_555
C22_18 C20_18 1_555 1_555
C23_18 C22_18 1_555 1_555
H13_18 C23_18 1_555 1_555
C24_18 C21_18 1_555 1_555
H14_18 C24_18 1_555 1_555
C25_18 C22_18 1_555 1_555
H15_18 C25_18 1_555 1_555
C26_18 C21_18 1_555 1_555
H16_18 C26_18 1_555 1_555
C29_18 H19_18 1_555 1_555
C32_18 C29_18 1_555 1_555
H20_18 C32_18 1_555 1_555
C34_18 N1_18 1_555 1_555
C35_18 C33_18 1_555 1_555
C36_18 C35_18 1_555 1_555
H21_18 C36_18 1_555 1_555
C37_18 C34_18 1_555 1_555
H22_18 C37_18 1_555 1_555
C38_18 C35_18 1_555 1_555
H23_18 C38_18 1_555 1_555
C39_18 C34_18 1_555 1_555
H24_18 C39_18 1_555 1_555
Zn4_6 O6_18 1_555 1_555
Zn6_6 O5_18 1_555 1_555
O9_18 Zn5_6 1_555 1_555
O11_18 Zn3_6 1_555 1_555
C3_18 C7_18 1_555 1_555
C4_23 C6_18 1_555 1_555
C10_18 C13_18 1_555 1_555
C11_18 C12_18 1_555 1_555
C16_18 C20_18 1_555 1_555
C17_23 C19_18 1_555 1_555
C23_18 C26_18 1_555 1_555
C24_18 C25_18 1_555 1_555
C29_18 C33_18 1_555 1_555
C36_18 C39_18 1_555 1_555
C37_18 C38_18 1_555 1_555
O10_12 C31_23 1_555 1_555
O12_12 C31_23 1_555 1_555
C27_23 H17_23 1_555 1_555
C28_23 C27_23 1_555 1_555
H18_23 C28_23 1_555 1_555
C30_23 C27_23 1_555 1_555
C31_23 C30_23 1_555 1_555
O3_24 Zn4_6 1_555 1_555
O4_24 Zn6_6 1_555 1_555
O9_18 C31_24 1_555 1_555
O11_18 C31_24 1_555 1_555
C27_24 H17_24 1_555 1_555
C28_24 C27_24 1_555 1_555
H18_24 C28_24 1_555 1_555
C30_24 C27_24 1_555 1_555
C31_24 C30_24 1_555 1_555
O9_17 C5_24 1_555 1_555
O11_17 C5_24 1_555 1_555
C1_24 H1_24 1_555 1_555
C2_24 C1_24 1_555 1_555
H2_24 C2_24 1_555 1_555
C4_24 C1_24 1_555 1_555
C5_24 C4_24 1_555 1_555
O9_16 C18_24 1_555 1_555
O11_16 C18_24 1_555 1_555
C14_24 H9_24 1_555 1_555
C15_24 C14_24 1_555 1_555
H10_24 C15_24 1_555 1_555
C17_24 C14_24 1_555 1_555
C18_24 C17_24 1_555 1_555
Zn1_13 O2_19 1_555 1_555
Zn2_13 O1_19 1_555 1_555
O1_19 C5_25 1_555 1_555
O2_19 C5_25 1_555 1_555
O3_25 Zn1_13 1_555 1_555
O4_25 Zn2_13 1_555 1_555
N1_19 C8_19 1_555 1_555
C1_25 H1_25 1_555 1_555
C2_25 C1_25 1_555 1_555
H2_25 C2_25 1_555 1_555
C3_19 H3_19 1_555 1_555
C4_25 C1_25 1_555 1_555
C5_25 C4_25 1_555 1_555
C6_19 C3_19 1_555 1_555
H4_19 C6_19 1_555 1_555
C7_19 C2_25 1_555 1_555
C8_19 C11_19 1_555 1_555
C9_19 C7_19 1_555 1_555
C10_19 C9_19 1_555 1_555
H5_19 C10_19 1_555 1_555
C11_19 H6_19 1_555 1_555
C12_19 C9_19 1_555 1_555
H7_19 C12_19 1_555 1_555
C13_19 C8_19 1_555 1_555
H8_19 C13_19 1_555 1_555
O5_19 C18_25 1_555 1_555
O6_19 C18_25 1_555 1_555
C14_25 H9_25 1_555 1_555
C15_25 C14_25 1_555 1_555
H10_25 C15_25 1_555 1_555
C16_19 H11_19 1_555 1_555
C17_25 C14_25 1_555 1_555
C18_25 C17_25 1_555 1_555
C19_19 C16_19 1_555 1_555
H12_19 C19_19 1_555 1_555
C20_19 C15_25 1_555 1_555
C21_19 N1_19 1_555 1_555
C22_19 C20_19 1_555 1_555
C23_19 C22_19 1_555 1_555
H13_19 C23_19 1_555 1_555
C24_19 C21_19 1_555 1_555
H14_19 C24_19 1_555 1_555
C25_19 C22_19 1_555 1_555
H15_19 C25_19 1_555 1_555
C26_19 C21_19 1_555 1_555
H16_19 C26_19 1_555 1_555
C29_19 H19_19 1_555 1_555
C32_19 C29_19 1_555 1_555
H20_19 C32_19 1_555 1_555
C34_19 N1_19 1_555 1_555
C35_19 C33_19 1_555 1_555
C36_19 C35_19 1_555 1_555
H21_19 C36_19 1_555 1_555
C37_19 C34_19 1_555 1_555
H22_19 C37_19 1_555 1_555
C38_19 C35_19 1_555 1_555
H23_19 C38_19 1_555 1_555
C39_19 C34_19 1_555 1_555
H24_19 C39_19 1_555 1_555
Zn4_7 O6_19 1_555 1_555
Zn6_7 O5_19 1_555 1_555
O9_19 Zn2_13 1_555 1_555
O10_13 Zn2_13 1_555 1_555
O11_19 Zn1_13 1_555 1_555
O12_13 Zn1_13 1_555 1_555
C3_19 C7_19 1_555 1_555
C4_25 C6_19 1_555 1_555
C10_19 C13_19 1_555 1_555
C11_19 C12_19 1_555 1_555
C16_19 C20_19 1_555 1_555
C17_25 C19_19 1_555 1_555
C23_19 C26_19 1_555 1_555
C24_19 C25_19 1_555 1_555
C29_19 C33_19 1_555 1_555
C36_19 C39_19 1_555 1_555
C37_19 C38_19 1_555 1_555
O7_7 C31_25 1_555 1_555
O8_7 C31_25 1_555 1_555
C27_25 H17_25 1_555 1_555
C28_25 C27_25 1_555 1_555
H18_25 C28_25 1_555 1_555
C30_25 C27_25 1_555 1_555
C31_25 C30_25 1_555 1_555
Zn3_7 O8_7 1_555 1_555
Zn5_7 O7_7 1_555 1_555
Zn1_14 O2_20 1_555 1_555
Zn2_14 O1_20 1_555 1_555
O1_20 C5_26 1_555 1_555
O2_20 C5_26 1_555 1_555
O3_26 Zn1_14 1_555 1_555
O4_26 Zn2_14 1_555 1_555
N1_20 C8_20 1_555 1_555
C1_26 H1_26 1_555 1_555
C2_26 C1_26 1_555 1_555
H2_26 C2_26 1_555 1_555
C3_20 H3_20 1_555 1_555
C4_26 C1_26 1_555 1_555
C5_26 C4_26 1_555 1_555
C6_20 C3_20 1_555 1_555
H4_20 C6_20 1_555 1_555
C7_20 C2_26 1_555 1_555
C8_20 C11_20 1_555 1_555
C9_20 C7_20 1_555 1_555
C10_20 C9_20 1_555 1_555
H5_20 C10_20 1_555 1_555
C11_20 H6_20 1_555 1_555
C12_20 C9_20 1_555 1_555
H7_20 C12_20 1_555 1_555
C13_20 C8_20 1_555 1_555
H8_20 C13_20 1_555 1_555
O5_20 C18_26 1_555 1_555
O6_20 C18_26 1_555 1_555
C14_26 H9_26 1_555 1_555
C15_26 C14_26 1_555 1_555
H10_26 C15_26 1_555 1_555
C16_20 H11_20 1_555 1_555
C17_26 C14_26 1_555 1_555
C18_26 C17_26 1_555 1_555
C19_20 C16_20 1_555 1_555
H12_20 C19_20 1_555 1_555
C20_20 C15_26 1_555 1_555
C21_20 N1_20 1_555 1_555
C22_20 C20_20 1_555 1_555
C23_20 C22_20 1_555 1_555
H13_20 C23_20 1_555 1_555
C24_20 C21_20 1_555 1_555
H14_20 C24_20 1_555 1_555
C25_20 C22_20 1_555 1_555
H15_20 C25_20 1_555 1_555
C26_20 C21_20 1_555 1_555
H16_20 C26_20 1_555 1_555
C29_20 H19_20 1_555 1_555
C32_20 C29_20 1_555 1_555
H20_20 C32_20 1_555 1_555
C34_20 N1_20 1_555 1_555
C35_20 C33_20 1_555 1_555
C36_20 C35_20 1_555 1_555
H21_20 C36_20 1_555 1_555
C37_20 C34_20 1_555 1_555
H22_20 C37_20 1_555 1_555
C38_20 C35_20 1_555 1_555
H23_20 C38_20 1_555 1_555
C39_20 C34_20 1_555 1_555
H24_20 C39_20 1_555 1_555
Zn4_7 O6_20 1_555 1_555
Zn6_7 O5_20 1_555 1_555
O9_20 Zn2_14 1_555 1_555
O10_14 Zn2_14 1_555 1_555
O11_20 Zn1_14 1_555 1_555
O12_14 Zn1_14 1_555 1_555
C3_20 C7_20 1_555 1_555
C4_26 C6_20 1_555 1_555
C10_20 C13_20 1_555 1_555
C11_20 C12_20 1_555 1_555
C16_20 C20_20 1_555 1_555
C17_26 C19_20 1_555 1_555
C23_20 C26_20 1_555 1_555
C24_20 C25_20 1_555 1_555
C29_20 C33_20 1_555 1_555
C36_20 C39_20 1_555 1_555
C37_20 C38_20 1_555 1_555
O10_13 C31_26 1_555 1_555
O12_13 C31_26 1_555 1_555
C27_26 H17_26 1_555 1_555
C28_26 C27_26 1_555 1_555
H18_26 C28_26 1_555 1_555
C30_26 C27_26 1_555 1_555
C31_26 C30_26 1_555 1_555
O10_14 C31_27 1_555 1_555
O12_14 C31_27 1_555 1_555
C27_27 H17_27 1_555 1_555
C28_27 C27_27 1_555 1_555
H18_27 C28_27 1_555 1_555
C30_27 C27_27 1_555 1_555
C31_27 C30_27 1_555 1_555
Zn3_7 O2_21 1_555 1_555
Zn5_7 O1_21 1_555 1_555
O1_21 C5_27 1_555 1_555
O2_21 C5_27 1_555 1_555
O3_27 Zn3_7 1_555 1_555
O4_27 Zn5_7 1_555 1_555
N1_21 C8_21 1_555 1_555
C1_27 H1_27 1_555 1_555
C2_27 C1_27 1_555 1_555
H2_27 C2_27 1_555 1_555
C3_21 H3_21 1_555 1_555
C4_27 C1_27 1_555 1_555
C5_27 C4_27 1_555 1_555
C6_21 C3_21 1_555 1_555
H4_21 C6_21 1_555 1_555
C7_21 C2_27 1_555 1_555
C8_21 C11_21 1_555 1_555
C9_21 C7_21 1_555 1_555
C10_21 C9_21 1_555 1_555
H5_21 C10_21 1_555 1_555
C11_21 H6_21 1_555 1_555
C12_21 C9_21 1_555 1_555
H7_21 C12_21 1_555 1_555
C13_21 C8_21 1_555 1_555
H8_21 C13_21 1_555 1_555
O5_21 C18_27 1_555 1_555
O6_21 C18_27 1_555 1_555
C14_27 H9_27 1_555 1_555
C15_27 C14_27 1_555 1_555
H10_27 C15_27 1_555 1_555
C16_21 H11_21 1_555 1_555
C17_27 C14_27 1_555 1_555
C18_27 C17_27 1_555 1_555
C19_21 C16_21 1_555 1_555
H12_21 C19_21 1_555 1_555
C20_21 C15_27 1_555 1_555
C21_21 N1_21 1_555 1_555
C22_21 C20_21 1_555 1_555
C23_21 C22_21 1_555 1_555
H13_21 C23_21 1_555 1_555
C24_21 C21_21 1_555 1_555
H14_21 C24_21 1_555 1_555
C25_21 C22_21 1_555 1_555
H15_21 C25_21 1_555 1_555
C26_21 C21_21 1_555 1_555
H16_21 C26_21 1_555 1_555
C29_21 H19_21 1_555 1_555
C32_21 C29_21 1_555 1_555
H20_21 C32_21 1_555 1_555
C34_21 N1_21 1_555 1_555
C35_21 C33_21 1_555 1_555
C36_21 C35_21 1_555 1_555
H21_21 C36_21 1_555 1_555
C37_21 C34_21 1_555 1_555
H22_21 C37_21 1_555 1_555
C38_21 C35_21 1_555 1_555
H23_21 C38_21 1_555 1_555
C39_21 C34_21 1_555 1_555
H24_21 C39_21 1_555 1_555
Zn4_7 O6_21 1_555 1_555
Zn6_7 O5_21 1_555 1_555
O9_21 Zn5_7 1_555 1_555
O11_21 Zn3_7 1_555 1_555
C3_21 C7_21 1_555 1_555
C4_27 C6_21 1_555 1_555
C10_21 C13_21 1_555 1_555
C11_21 C12_21 1_555 1_555
C16_21 C20_21 1_555 1_555
C17_27 C19_21 1_555 1_555
C23_21 C26_21 1_555 1_555
C24_21 C25_21 1_555 1_555
C29_21 C33_21 1_555 1_555
C36_21 C39_21 1_555 1_555
C37_21 C38_21 1_555 1_555
O3_28 Zn4_7 1_555 1_555
O4_28 Zn6_7 1_555 1_555
O9_20 C5_28 1_555 1_555
O11_20 C5_28 1_555 1_555
C1_28 H1_28 1_555 1_555
C2_28 C1_28 1_555 1_555
H2_28 C2_28 1_555 1_555
C4_28 C1_28 1_555 1_555
C5_28 C4_28 1_555 1_555
O9_19 C18_28 1_555 1_555
O11_19 C18_28 1_555 1_555
C14_28 H9_28 1_555 1_555
C15_28 C14_28 1_555 1_555
H10_28 C15_28 1_555 1_555
C17_28 C14_28 1_555 1_555
C18_28 C17_28 1_555 1_555
O9_21 C31_28 1_555 1_555
O11_21 C31_28 1_555 1_555
C27_28 H17_28 1_555 1_555
C28_28 C27_28 1_555 1_555
H18_28 C28_28 1_555 1_555
C30_28 C27_28 1_555 1_555
C31_28 C30_28 1_555 1_555
Zn1_15 O2_22 1_555 1_555
Zn2_15 O1_22 1_555 1_555
O1_22 C5_29 1_555 1_555
O2_22 C5_29 1_555 1_555
O3_29 Zn1_15 1_555 1_555
O4_29 Zn2_15 1_555 1_555
N1_22 C8_22 1_555 1_555
C1_29 H1_29 1_555 1_555
C2_29 C1_29 1_555 1_555
H2_29 C2_29 1_555 1_555
C3_22 H3_22 1_555 1_555
C4_29 C1_29 1_555 1_555
C5_29 C4_29 1_555 1_555
C6_22 C3_22 1_555 1_555
H4_22 C6_22 1_555 1_555
C7_22 C2_29 1_555 1_555
C8_22 C11_22 1_555 1_555
C9_22 C7_22 1_555 1_555
C10_22 C9_22 1_555 1_555
H5_22 C10_22 1_555 1_555
C11_22 H6_22 1_555 1_555
C12_22 C9_22 1_555 1_555
H7_22 C12_22 1_555 1_555
C13_22 C8_22 1_555 1_555
H8_22 C13_22 1_555 1_555
O5_22 C18_29 1_555 1_555
O6_22 C18_29 1_555 1_555
C14_29 H9_29 1_555 1_555
C15_29 C14_29 1_555 1_555
H10_29 C15_29 1_555 1_555
C16_22 H11_22 1_555 1_555
C17_29 C14_29 1_555 1_555
C18_29 C17_29 1_555 1_555
C19_22 C16_22 1_555 1_555
H12_22 C19_22 1_555 1_555
C20_22 C15_29 1_555 1_555
C21_22 N1_22 1_555 1_555
C22_22 C20_22 1_555 1_555
C23_22 C22_22 1_555 1_555
H13_22 C23_22 1_555 1_555
C24_22 C21_22 1_555 1_555
H14_22 C24_22 1_555 1_555
C25_22 C22_22 1_555 1_555
H15_22 C25_22 1_555 1_555
C26_22 C21_22 1_555 1_555
H16_22 C26_22 1_555 1_555
C29_22 H19_22 1_555 1_555
C32_22 C29_22 1_555 1_555
H20_22 C32_22 1_555 1_555
C34_22 N1_22 1_555 1_555
C35_22 C33_22 1_555 1_555
C36_22 C35_22 1_555 1_555
H21_22 C36_22 1_555 1_555
C37_22 C34_22 1_555 1_555
H22_22 C37_22 1_555 1_555
C38_22 C35_22 1_555 1_555
H23_22 C38_22 1_555 1_555
C39_22 C34_22 1_555 1_555
H24_22 C39_22 1_555 1_555
Zn4_8 O6_22 1_555 1_555
Zn6_8 O5_22 1_555 1_555
O9_22 Zn2_15 1_555 1_555
O10_15 Zn2_15 1_555 1_555
O11_22 Zn1_15 1_555 1_555
O12_15 Zn1_15 1_555 1_555
C3_22 C7_22 1_555 1_555
C4_29 C6_22 1_555 1_555
C10_22 C13_22 1_555 1_555
C11_22 C12_22 1_555 1_555
C16_22 C20_22 1_555 1_555
C17_29 C19_22 1_555 1_555
C23_22 C26_22 1_555 1_555
C24_22 C25_22 1_555 1_555
C29_22 C33_22 1_555 1_555
C36_22 C39_22 1_555 1_555
C37_22 C38_22 1_555 1_555
O7_8 C31_29 1_555 1_555
O8_8 C31_29 1_555 1_555
C27_29 H17_29 1_555 1_555
C28_29 C27_29 1_555 1_555
H18_29 C28_29 1_555 1_555
C30_29 C27_29 1_555 1_555
C31_29 C30_29 1_555 1_555
Zn3_8 O8_8 1_555 1_555
Zn5_8 O7_8 1_555 1_555
O10_15 C31_30 1_555 1_555
O12_15 C31_30 1_555 1_555
C27_30 H17_30 1_555 1_555
C28_30 C27_30 1_555 1_555
H18_30 C28_30 1_555 1_555
C30_30 C27_30 1_555 1_555
C31_30 C30_30 1_555 1_555
Zn1_16 O2_23 1_555 1_555
Zn2_16 O1_23 1_555 1_555
O1_23 C5_30 1_555 1_555
O2_23 C5_30 1_555 1_555
O3_30 Zn1_16 1_555 1_555
O4_30 Zn2_16 1_555 1_555
N1_23 C8_23 1_555 1_555
C1_30 H1_30 1_555 1_555
C2_30 C1_30 1_555 1_555
H2_30 C2_30 1_555 1_555
C3_23 H3_23 1_555 1_555
C4_30 C1_30 1_555 1_555
C5_30 C4_30 1_555 1_555
C6_23 C3_23 1_555 1_555
H4_23 C6_23 1_555 1_555
C7_23 C2_30 1_555 1_555
C8_23 C11_23 1_555 1_555
C9_23 C7_23 1_555 1_555
C10_23 C9_23 1_555 1_555
H5_23 C10_23 1_555 1_555
C11_23 H6_23 1_555 1_555
C12_23 C9_23 1_555 1_555
H7_23 C12_23 1_555 1_555
C13_23 C8_23 1_555 1_555
H8_23 C13_23 1_555 1_555
O5_23 C18_30 1_555 1_555
O6_23 C18_30 1_555 1_555
C14_30 H9_30 1_555 1_555
C15_30 C14_30 1_555 1_555
H10_30 C15_30 1_555 1_555
C16_23 H11_23 1_555 1_555
C17_30 C14_30 1_555 1_555
C18_30 C17_30 1_555 1_555
C19_23 C16_23 1_555 1_555
H12_23 C19_23 1_555 1_555
C20_23 C15_30 1_555 1_555
C21_23 N1_23 1_555 1_555
C22_23 C20_23 1_555 1_555
C23_23 C22_23 1_555 1_555
H13_23 C23_23 1_555 1_555
C24_23 C21_23 1_555 1_555
H14_23 C24_23 1_555 1_555
C25_23 C22_23 1_555 1_555
H15_23 C25_23 1_555 1_555
C26_23 C21_23 1_555 1_555
H16_23 C26_23 1_555 1_555
C29_23 H19_23 1_555 1_555
C32_23 C29_23 1_555 1_555
H20_23 C32_23 1_555 1_555
C34_23 N1_23 1_555 1_555
C35_23 C33_23 1_555 1_555
C36_23 C35_23 1_555 1_555
H21_23 C36_23 1_555 1_555
C37_23 C34_23 1_555 1_555
H22_23 C37_23 1_555 1_555
C38_23 C35_23 1_555 1_555
H23_23 C38_23 1_555 1_555
C39_23 C34_23 1_555 1_555
H24_23 C39_23 1_555 1_555
Zn4_8 O6_23 1_555 1_555
Zn6_8 O5_23 1_555 1_555
O9_23 Zn2_16 1_555 1_555
O10_16 Zn2_16 1_555 1_555
O11_23 Zn1_16 1_555 1_555
O12_16 Zn1_16 1_555 1_555
C3_23 C7_23 1_555 1_555
C4_30 C6_23 1_555 1_555
C10_23 C13_23 1_555 1_555
C11_23 C12_23 1_555 1_555
C16_23 C20_23 1_555 1_555
C17_30 C19_23 1_555 1_555
C23_23 C26_23 1_555 1_555
C24_23 C25_23 1_555 1_555
C29_23 C33_23 1_555 1_555
C36_23 C39_23 1_555 1_555
C37_23 C38_23 1_555 1_555
Zn3_8 O2_24 1_555 1_555
Zn5_8 O1_24 1_555 1_555
O1_24 C5_31 1_555 1_555
O2_24 C5_31 1_555 1_555
O3_31 Zn3_8 1_555 1_555
O4_31 Zn5_8 1_555 1_555
N1_24 C8_24 1_555 1_555
C1_31 H1_31 1_555 1_555
C2_31 C1_31 1_555 1_555
H2_31 C2_31 1_555 1_555
C3_24 H3_24 1_555 1_555
C4_31 C1_31 1_555 1_555
C5_31 C4_31 1_555 1_555
C6_24 C3_24 1_555 1_555
H4_24 C6_24 1_555 1_555
C7_24 C2_31 1_555 1_555
C8_24 C11_24 1_555 1_555
C9_24 C7_24 1_555 1_555
C10_24 C9_24 1_555 1_555
H5_24 C10_24 1_555 1_555
C11_24 H6_24 1_555 1_555
C12_24 C9_24 1_555 1_555
H7_24 C12_24 1_555 1_555
C13_24 C8_24 1_555 1_555
H8_24 C13_24 1_555 1_555
O5_24 C18_31 1_555 1_555
O6_24 C18_31 1_555 1_555
C14_31 H9_31 1_555 1_555
C15_31 C14_31 1_555 1_555
H10_31 C15_31 1_555 1_555
C16_24 H11_24 1_555 1_555
C17_31 C14_31 1_555 1_555
C18_31 C17_31 1_555 1_555
C19_24 C16_24 1_555 1_555
H12_24 C19_24 1_555 1_555
C20_24 C15_31 1_555 1_555
C21_24 N1_24 1_555 1_555
C22_24 C20_24 1_555 1_555
C23_24 C22_24 1_555 1_555
H13_24 C23_24 1_555 1_555
C24_24 C21_24 1_555 1_555
H14_24 C24_24 1_555 1_555
C25_24 C22_24 1_555 1_555
H15_24 C25_24 1_555 1_555
C26_24 C21_24 1_555 1_555
H16_24 C26_24 1_555 1_555
C29_24 H19_24 1_555 1_555
C32_24 C29_24 1_555 1_555
H20_24 C32_24 1_555 1_555
C34_24 N1_24 1_555 1_555
C35_24 C33_24 1_555 1_555
C36_24 C35_24 1_555 1_555
H21_24 C36_24 1_555 1_555
C37_24 C34_24 1_555 1_555
H22_24 C37_24 1_555 1_555
C38_24 C35_24 1_555 1_555
H23_24 C38_24 1_555 1_555
C39_24 C34_24 1_555 1_555
H24_24 C39_24 1_555 1_555
Zn4_8 O6_24 1_555 1_555
Zn6_8 O5_24 1_555 1_555
O9_24 Zn5_8 1_555 1_555
O11_24 Zn3_8 1_555 1_555
C3_24 C7_24 1_555 1_555
C4_31 C6_24 1_555 1_555
C10_24 C13_24 1_555 1_555
C11_24 C12_24 1_555 1_555
C16_24 C20_24 1_555 1_555
C17_31 C19_24 1_555 1_555
C23_24 C26_24 1_555 1_555
C24_24 C25_24 1_555 1_555
C29_24 C33_24 1_555 1_555
C36_24 C39_24 1_555 1_555
C37_24 C38_24 1_555 1_555
O10_16 C31_31 1_555 1_555
O12_16 C31_31 1_555 1_555
C27_31 H17_31 1_555 1_555
C28_31 C27_31 1_555 1_555
H18_31 C28_31 1_555 1_555
C30_31 C27_31 1_555 1_555
C31_31 C30_31 1_555 1_555
O3_32 Zn4_8 1_555 1_555
O4_32 Zn6_8 1_555 1_555
O9_24 C31_32 1_555 1_555
O11_24 C31_32 1_555 1_555
C27_32 H17_32 1_555 1_555
C28_32 C27_32 1_555 1_555
H18_32 C28_32 1_555 1_555
C30_32 C27_32 1_555 1_555
C31_32 C30_32 1_555 1_555
O9_22 C18_32 1_555 1_555
O11_22 C18_32 1_555 1_555
C14_32 H9_32 1_555 1_555
C15_32 C14_32 1_555 1_555
H10_32 C15_32 1_555 1_555
C17_32 C14_32 1_555 1_555
C18_32 C17_32 1_555 1_555
O9_23 C5_32 1_555 1_555
O11_23 C5_32 1_555 1_555
C1_32 H1_32 1_555 1_555
C2_32 C1_32 1_555 1_555
H2_32 C2_32 1_555 1_555
C4_32 C1_32 1_555 1_555
C5_32 C4_32 1_555 1_555
N1_25 C8_25 1_555 1_555
C3_25 H3_25 1_555 1_555
C6_25 C3_25 1_555 1_555
H4_25 C6_25 1_555 1_555
C8_25 C11_25 1_555 1_555
C9_25 C7_25 1_555 1_555
C10_25 C9_25 1_555 1_555
H5_25 C10_25 1_555 1_555
C11_25 H6_25 1_555 1_555
C12_25 C9_25 1_555 1_555
H7_25 C12_25 1_555 1_555
C13_25 C8_25 1_555 1_555
H8_25 C13_25 1_555 1_555
C16_25 H11_25 1_555 1_555
C19_25 C16_25 1_555 1_555
H12_25 C19_25 1_555 1_555
C21_25 N1_25 1_555 1_555
C22_25 C20_25 1_555 1_555
C23_25 C22_25 1_555 1_555
H13_25 C23_25 1_555 1_555
C24_25 C21_25 1_555 1_555
H14_25 C24_25 1_555 1_555
C25_25 C22_25 1_555 1_555
H15_25 C25_25 1_555 1_555
C26_25 C21_25 1_555 1_555
H16_25 C26_25 1_555 1_555
C29_25 H19_25 1_555 1_555
C32_25 C29_25 1_555 1_555
H20_25 C32_25 1_555 1_555
C34_25 N1_25 1_555 1_555
C35_25 C33_25 1_555 1_555
C36_25 C35_25 1_555 1_555
H21_25 C36_25 1_555 1_555
C37_25 C34_25 1_555 1_555
H22_25 C37_25 1_555 1_555
C38_25 C35_25 1_555 1_555
H23_25 C38_25 1_555 1_555
C39_25 C34_25 1_555 1_555
H24_25 C39_25 1_555 1_555
C3_25 C7_25 1_555 1_555
C10_25 C13_25 1_555 1_555
C11_25 C12_25 1_555 1_555
C16_25 C20_25 1_555 1_555
C23_25 C26_25 1_555 1_555
C24_25 C25_25 1_555 1_555
C29_25 C33_25 1_555 1_555
C36_25 C39_25 1_555 1_555
C37_25 C38_25 1_555 1_555
N1_26 C8_26 1_555 1_555
C3_26 H3_26 1_555 1_555
C6_26 C3_26 1_555 1_555
H4_26 C6_26 1_555 1_555
C8_26 C11_26 1_555 1_555
C9_26 C7_26 1_555 1_555
C10_26 C9_26 1_555 1_555
H5_26 C10_26 1_555 1_555
C11_26 H6_26 1_555 1_555
C12_26 C9_26 1_555 1_555
H7_26 C12_26 1_555 1_555
C13_26 C8_26 1_555 1_555
H8_26 C13_26 1_555 1_555
C16_26 H11_26 1_555 1_555
C19_26 C16_26 1_555 1_555
H12_26 C19_26 1_555 1_555
C21_26 N1_26 1_555 1_555
C22_26 C20_26 1_555 1_555
C23_26 C22_26 1_555 1_555
H13_26 C23_26 1_555 1_555
C24_26 C21_26 1_555 1_555
H14_26 C24_26 1_555 1_555
C25_26 C22_26 1_555 1_555
H15_26 C25_26 1_555 1_555
C26_26 C21_26 1_555 1_555
H16_26 C26_26 1_555 1_555
C29_26 H19_26 1_555 1_555
C32_26 C29_26 1_555 1_555
H20_26 C32_26 1_555 1_555
C34_26 N1_26 1_555 1_555
C35_26 C33_26 1_555 1_555
C36_26 C35_26 1_555 1_555
H21_26 C36_26 1_555 1_555
C37_26 C34_26 1_555 1_555
H22_26 C37_26 1_555 1_555
C38_26 C35_26 1_555 1_555
H23_26 C38_26 1_555 1_555
C39_26 C34_26 1_555 1_555
H24_26 C39_26 1_555 1_555
C3_26 C7_26 1_555 1_555
C10_26 C13_26 1_555 1_555
C11_26 C12_26 1_555 1_555
C16_26 C20_26 1_555 1_555
C23_26 C26_26 1_555 1_555
C24_26 C25_26 1_555 1_555
C29_26 C33_26 1_555 1_555
C36_26 C39_26 1_555 1_555
C37_26 C38_26 1_555 1_555
N1_27 C8_27 1_555 1_555
C3_27 H3_27 1_555 1_555
C6_27 C3_27 1_555 1_555
H4_27 C6_27 1_555 1_555
C8_27 C11_27 1_555 1_555
C9_27 C7_27 1_555 1_555
C10_27 C9_27 1_555 1_555
H5_27 C10_27 1_555 1_555
C11_27 H6_27 1_555 1_555
C12_27 C9_27 1_555 1_555
H7_27 C12_27 1_555 1_555
C13_27 C8_27 1_555 1_555
H8_27 C13_27 1_555 1_555
C16_27 H11_27 1_555 1_555
C19_27 C16_27 1_555 1_555
H12_27 C19_27 1_555 1_555
C21_27 N1_27 1_555 1_555
C22_27 C20_27 1_555 1_555
C23_27 C22_27 1_555 1_555
H13_27 C23_27 1_555 1_555
C24_27 C21_27 1_555 1_555
H14_27 C24_27 1_555 1_555
C25_27 C22_27 1_555 1_555
H15_27 C25_27 1_555 1_555
C26_27 C21_27 1_555 1_555
H16_27 C26_27 1_555 1_555
C29_27 H19_27 1_555 1_555
C32_27 C29_27 1_555 1_555
H20_27 C32_27 1_555 1_555
C34_27 N1_27 1_555 1_555
C35_27 C33_27 1_555 1_555
C36_27 C35_27 1_555 1_555
H21_27 C36_27 1_555 1_555
C37_27 C34_27 1_555 1_555
H22_27 C37_27 1_555 1_555
C38_27 C35_27 1_555 1_555
H23_27 C38_27 1_555 1_555
C39_27 C34_27 1_555 1_555
H24_27 C39_27 1_555 1_555
C3_27 C7_27 1_555 1_555
C10_27 C13_27 1_555 1_555
C11_27 C12_27 1_555 1_555
C16_27 C20_27 1_555 1_555
C23_27 C26_27 1_555 1_555
C24_27 C25_27 1_555 1_555
C29_27 C33_27 1_555 1_555
C36_27 C39_27 1_555 1_555
C37_27 C38_27 1_555 1_555
N1_28 C8_28 1_555 1_555
C3_28 H3_28 1_555 1_555
C6_28 C3_28 1_555 1_555
H4_28 C6_28 1_555 1_555
C8_28 C11_28 1_555 1_555
C9_28 C7_28 1_555 1_555
C10_28 C9_28 1_555 1_555
H5_28 C10_28 1_555 1_555
C11_28 H6_28 1_555 1_555
C12_28 C9_28 1_555 1_555
H7_28 C12_28 1_555 1_555
C13_28 C8_28 1_555 1_555
H8_28 C13_28 1_555 1_555
C16_28 H11_28 1_555 1_555
C19_28 C16_28 1_555 1_555
H12_28 C19_28 1_555 1_555
C21_28 N1_28 1_555 1_555
C22_28 C20_28 1_555 1_555
C23_28 C22_28 1_555 1_555
H13_28 C23_28 1_555 1_555
C24_28 C21_28 1_555 1_555
H14_28 C24_28 1_555 1_555
C25_28 C22_28 1_555 1_555
H15_28 C25_28 1_555 1_555
C26_28 C21_28 1_555 1_555
H16_28 C26_28 1_555 1_555
C29_28 H19_28 1_555 1_555
C32_28 C29_28 1_555 1_555
H20_28 C32_28 1_555 1_555
C34_28 N1_28 1_555 1_555
C35_28 C33_28 1_555 1_555
C36_28 C35_28 1_555 1_555
H21_28 C36_28 1_555 1_555
C37_28 C34_28 1_555 1_555
H22_28 C37_28 1_555 1_555
C38_28 C35_28 1_555 1_555
H23_28 C38_28 1_555 1_555
C39_28 C34_28 1_555 1_555
H24_28 C39_28 1_555 1_555
C3_28 C7_28 1_555 1_555
C10_28 C13_28 1_555 1_555
C11_28 C12_28 1_555 1_555
C16_28 C20_28 1_555 1_555
C23_28 C26_28 1_555 1_555
C24_28 C25_28 1_555 1_555
C29_28 C33_28 1_555 1_555
C36_28 C39_28 1_555 1_555
C37_28 C38_28 1_555 1_555
N1_29 C8_29 1_555 1_555
C3_29 H3_29 1_555 1_555
C6_29 C3_29 1_555 1_555
H4_29 C6_29 1_555 1_555
C8_29 C11_29 1_555 1_555
C9_29 C7_29 1_555 1_555
C10_29 C9_29 1_555 1_555
H5_29 C10_29 1_555 1_555
C11_29 H6_29 1_555 1_555
C12_29 C9_29 1_555 1_555
H7_29 C12_29 1_555 1_555
C13_29 C8_29 1_555 1_555
H8_29 C13_29 1_555 1_555
C16_29 H11_29 1_555 1_555
C19_29 C16_29 1_555 1_555
H12_29 C19_29 1_555 1_555
C21_29 N1_29 1_555 1_555
C22_29 C20_29 1_555 1_555
C23_29 C22_29 1_555 1_555
H13_29 C23_29 1_555 1_555
C24_29 C21_29 1_555 1_555
H14_29 C24_29 1_555 1_555
C25_29 C22_29 1_555 1_555
H15_29 C25_29 1_555 1_555
C26_29 C21_29 1_555 1_555
H16_29 C26_29 1_555 1_555
C29_29 H19_29 1_555 1_555
C32_29 C29_29 1_555 1_555
H20_29 C32_29 1_555 1_555
C34_29 N1_29 1_555 1_555
C35_29 C33_29 1_555 1_555
C36_29 C35_29 1_555 1_555
H21_29 C36_29 1_555 1_555
C37_29 C34_29 1_555 1_555
H22_29 C37_29 1_555 1_555
C38_29 C35_29 1_555 1_555
H23_29 C38_29 1_555 1_555
C39_29 C34_29 1_555 1_555
H24_29 C39_29 1_555 1_555
C3_29 C7_29 1_555 1_555
C10_29 C13_29 1_555 1_555
C11_29 C12_29 1_555 1_555
C16_29 C20_29 1_555 1_555
C23_29 C26_29 1_555 1_555
C24_29 C25_29 1_555 1_555
C29_29 C33_29 1_555 1_555
C36_29 C39_29 1_555 1_555
C37_29 C38_29 1_555 1_555
N1_30 C8_30 1_555 1_555
C3_30 H3_30 1_555 1_555
C6_30 C3_30 1_555 1_555
H4_30 C6_30 1_555 1_555
C8_30 C11_30 1_555 1_555
C9_30 C7_30 1_555 1_555
C10_30 C9_30 1_555 1_555
H5_30 C10_30 1_555 1_555
C11_30 H6_30 1_555 1_555
C12_30 C9_30 1_555 1_555
H7_30 C12_30 1_555 1_555
C13_30 C8_30 1_555 1_555
H8_30 C13_30 1_555 1_555
C16_30 H11_30 1_555 1_555
C19_30 C16_30 1_555 1_555
H12_30 C19_30 1_555 1_555
C21_30 N1_30 1_555 1_555
C22_30 C20_30 1_555 1_555
C23_30 C22_30 1_555 1_555
H13_30 C23_30 1_555 1_555
C24_30 C21_30 1_555 1_555
H14_30 C24_30 1_555 1_555
C25_30 C22_30 1_555 1_555
H15_30 C25_30 1_555 1_555
C26_30 C21_30 1_555 1_555
H16_30 C26_30 1_555 1_555
C29_30 H19_30 1_555 1_555
C32_30 C29_30 1_555 1_555
H20_30 C32_30 1_555 1_555
C34_30 N1_30 1_555 1_555
C35_30 C33_30 1_555 1_555
C36_30 C35_30 1_555 1_555
H21_30 C36_30 1_555 1_555
C37_30 C34_30 1_555 1_555
H22_30 C37_30 1_555 1_555
C38_30 C35_30 1_555 1_555
H23_30 C38_30 1_555 1_555
C39_30 C34_30 1_555 1_555
H24_30 C39_30 1_555 1_555
C3_30 C7_30 1_555 1_555
C10_30 C13_30 1_555 1_555
C11_30 C12_30 1_555 1_555
C16_30 C20_30 1_555 1_555
C23_30 C26_30 1_555 1_555
C24_30 C25_30 1_555 1_555
C29_30 C33_30 1_555 1_555
C36_30 C39_30 1_555 1_555
C37_30 C38_30 1_555 1_555
N1_31 C8_31 1_555 1_555
C3_31 H3_31 1_555 1_555
C6_31 C3_31 1_555 1_555
H4_31 C6_31 1_555 1_555
C8_31 C11_31 1_555 1_555
C9_31 C7_31 1_555 1_555
C10_31 C9_31 1_555 1_555
H5_31 C10_31 1_555 1_555
C11_31 H6_31 1_555 1_555
C12_31 C9_31 1_555 1_555
H7_31 C12_31 1_555 1_555
C13_31 C8_31 1_555 1_555
H8_31 C13_31 1_555 1_555
C16_31 H11_31 1_555 1_555
C19_31 C16_31 1_555 1_555
H12_31 C19_31 1_555 1_555
C21_31 N1_31 1_555 1_555
C22_31 C20_31 1_555 1_555
C23_31 C22_31 1_555 1_555
H13_31 C23_31 1_555 1_555
C24_31 C21_31 1_555 1_555
H14_31 C24_31 1_555 1_555
C25_31 C22_31 1_555 1_555
H15_31 C25_31 1_555 1_555
C26_31 C21_31 1_555 1_555
H16_31 C26_31 1_555 1_555
C29_31 H19_31 1_555 1_555
C32_31 C29_31 1_555 1_555
H20_31 C32_31 1_555 1_555
C34_31 N1_31 1_555 1_555
C35_31 C33_31 1_555 1_555
C36_31 C35_31 1_555 1_555
H21_31 C36_31 1_555 1_555
C37_31 C34_31 1_555 1_555
H22_31 C37_31 1_555 1_555
C38_31 C35_31 1_555 1_555
H23_31 C38_31 1_555 1_555
C39_31 C34_31 1_555 1_555
H24_31 C39_31 1_555 1_555
C3_31 C7_31 1_555 1_555
C10_31 C13_31 1_555 1_555
C11_31 C12_31 1_555 1_555
C16_31 C20_31 1_555 1_555
C23_31 C26_31 1_555 1_555
C24_31 C25_31 1_555 1_555
C29_31 C33_31 1_555 1_555
C36_31 C39_31 1_555 1_555
C37_31 C38_31 1_555 1_555
N1_32 C8_32 1_555 1_555
C3_32 H3_32 1_555 1_555
C6_32 C3_32 1_555 1_555
H4_32 C6_32 1_555 1_555
C8_32 C11_32 1_555 1_555
C9_32 C7_32 1_555 1_555
C10_32 C9_32 1_555 1_555
H5_32 C10_32 1_555 1_555
C11_32 H6_32 1_555 1_555
C12_32 C9_32 1_555 1_555
H7_32 C12_32 1_555 1_555
C13_32 C8_32 1_555 1_555
H8_32 C13_32 1_555 1_555
C16_32 H11_32 1_555 1_555
C19_32 C16_32 1_555 1_555
H12_32 C19_32 1_555 1_555
C21_32 N1_32 1_555 1_555
C22_32 C20_32 1_555 1_555
C23_32 C22_32 1_555 1_555
H13_32 C23_32 1_555 1_555
C24_32 C21_32 1_555 1_555
H14_32 C24_32 1_555 1_555
C25_32 C22_32 1_555 1_555
H15_32 C25_32 1_555 1_555
C26_32 C21_32 1_555 1_555
H16_32 C26_32 1_555 1_555
C29_32 H19_32 1_555 1_555
C32_32 C29_32 1_555 1_555
H20_32 C32_32 1_555 1_555
C34_32 N1_32 1_555 1_555
C35_32 C33_32 1_555 1_555
C36_32 C35_32 1_555 1_555
H21_32 C36_32 1_555 1_555
C37_32 C34_32 1_555 1_555
H22_32 C37_32 1_555 1_555
C38_32 C35_32 1_555 1_555
H23_32 C38_32 1_555 1_555
C39_32 C34_32 1_555 1_555
H24_32 C39_32 1_555 1_555
C3_32 C7_32 1_555 1_555
C10_32 C13_32 1_555 1_555
C11_32 C12_32 1_555 1_555
C16_32 C20_32 1_555 1_555
C23_32 C26_32 1_555 1_555
C24_32 C25_32 1_555 1_555
C29_32 C33_32 1_555 1_555
C36_32 C39_32 1_555 1_555
C37_32 C38_32 1_555 1_555

#END
