
###############################################################################
#
# This file contains modified crystal structure data generated from the
# MOF subset of the Cambridge Structural Database (CSD) v543 
# hosted by the Cambridge Crystallographic Data Centre (CCDC).
#
# This work is licensed under the Creative Commons
# Attribution-NonCommercial-ShareAlike 4.0 International License.
# To view a copy of this license, visit
# http://creativecommons.org/licenses/by-nc-sa/4.0/
# or send a letter to
# Creative Commons, PO Box 1866, Mountain View, CA 94042, USA.
#
# CIF created using the CSD Python API on 29 September 2022
# The structure has been converted into the P1 space group
# The structure has a 3D framework
# The original CSD entry IGUTUB is in the monoclinic crystal system
# The framework has been calculated to contain at least 10.0% void space
# The void calculation uses a probe of radius 1.32A, grid spacing 0.4
#
###############################################################################

data_IGUTUB
_chemical_formula_moiety         '(C96 H64 Cd4 N8 O16)n'
_symmetry_cell_setting           triclinic
_symmetry_space_group_name_H-M   'P 1'
_symmetry_Int_Tables_number      1
_space_group_name_Hall           'P 1'
loop_
_symmetry_equiv_pos_site_id
_symmetry_equiv_pos_as_xyz
1 x,y,z
_cell_length_a                   9.70550(15)
_cell_length_b                   17.8498(3)
_cell_length_c                   14.7845(3)
_cell_angle_alpha                90
_cell_angle_beta                 94.7485(15)
_cell_angle_gamma                90
_cell_volume                     2552.49
loop_
_atom_site_label
_atom_site_type_symbol
_atom_site_fract_x
_atom_site_fract_y
_atom_site_fract_z
C8 C 0.0088(5) 0.1776(3) 0.1398(3)
H5 H 0.0705 0.1475 0.1749
Cd4 Cd 0.13167(2) 0.418410(12) 0.480745(14)
O5 O 0.0656(3) 0.53612(19) 0.5969(2)
N3 N 0.0071(3) 0.66497(18) 0.4491(2)
Cd3 Cd 0.13167(2) 0.081590(12) 0.980745(14)
H13 H 0.1528 0.0095 0.7850
Cd1 Cd 0.86833(2) 0.581590(12) 0.519255(14)
O1 O 0.7619(3) 0.54214(16) 0.38438(18)
O2 O 0.6838(3) 0.66640(19) 0.53060(19)
O3 O 0.8397(3) 0.66233(17) 0.64654(19)
O4 O 0.9344(3) 0.46388(19) 0.4031(2)
N1 N 0.9929(3) 0.16497(18) 0.0509(2)
N2 N 0.2464(3) 0.99002(19) 0.9051(2)
C1 C 0.8245(4) 0.48468(19) 0.3632(2)
C2 C 0.7581(4) 0.4373(2) 0.2879(3)
C3 C 0.8296(4) 0.3800(2) 0.2491(2)
H1 H 0.9203 0.3699 0.2709
C4 C 0.7675(4) 0.3372(2) 0.1776(3)
C5 C 0.6304(5) 0.3514(3) 0.1481(4)
H2 H 0.5874 0.3233 0.1009
C6 C 0.5577(6) 0.4068(4) 0.1882(5)
H3 H 0.4651 0.4146 0.1691
C7 C 0.6211(5) 0.4511(3) 0.2566(4)
H4 H 0.5725 0.4899 0.2815
C9 C 0.9393(5) 0.2326(3) 0.1830(3)
H6 H 0.9557 0.2393 0.2454
C10 C 0.8457(4) 0.2774(2) 0.1340(3)
C11 C 0.8272(6) 0.2636(3) 0.0424(3)
H7 H 0.7642 0.2922 0.0062
C12 C 0.9009(6) 0.2080(3) 0.0035(3)
C13 C 0.7264(4) 0.6843(2) 0.6097(3)
C14 C 0.6377(4) 0.7346(2) 0.6621(3)
C15 C 0.5119(6) 0.7609(4) 0.6247(3)
H9 H 0.4785 0.7452 0.5670
C16 C 0.4353(6) 0.8101(4) 0.6718(3)
H10 H 0.3528 0.8287 0.6440
C17 C 0.4771(4) 0.8325(2) 0.7588(3)
C18 C 0.6007(4) 0.8029(3) 0.7973(3)
H11 H 0.6319 0.8164 0.8563
C19 C 0.6781(4) 0.7541(3) 0.7501(3)
H12 H 0.7591 0.7341 0.7783
C20 C 0.2214(4) 0.9805(3) 0.8155(3)
C21 C 0.2913(5) 0.9303(3) 0.7662(3)
H14 H 0.2695 0.9259 0.7040
C22 C 0.3954(4) 0.8859(2) 0.8093(2)
C23 C 0.4206(4) 0.8964(3) 0.9017(3)
H15 H 0.4884 0.8683 0.9342
C24 C 0.3466(4) 0.9479(3) 0.9456(3)
N4 N 0.7536(3) 0.49002(19) 0.5949(2)
O2_2 O 0.3162(3) 0.16640(19) 0.96940(19)
O3_2 O 0.1603(3) 0.16233(17) 0.85346(19)
C13_2 C 0.2736(4) 0.1843(2) 0.8903(3)
C14_2 C 0.3623(4) 0.2346(2) 0.8379(3)
C15_2 C 0.4881(6) 0.2609(4) 0.8753(3)
H9_2 H 0.5215 0.2452 0.9330
C16_2 C 0.5647(6) 0.3101(4) 0.8282(3)
H10_2 H 0.6472 0.3287 0.8560
C17_2 C 0.5229(4) 0.3325(2) 0.7412(3)
C18_2 C 0.3993(4) 0.3029(3) 0.7027(3)
H11_2 H 0.3681 0.3164 0.6437
C19_2 C 0.3219(4) 0.2541(3) 0.7499(3)
H12_2 H 0.2409 0.2341 0.7217
C20_2 C 0.7786(4) 0.4805(3) 0.6845(3)
H13_2 H 0.8472 0.5095 0.7150
C21_2 C 0.7087(5) 0.4303(3) 0.7338(3)
H14_2 H 0.7305 0.4259 0.7960
C22_2 C 0.6046(4) 0.3859(2) 0.6907(2)
C23_2 C 0.5794(4) 0.3964(3) 0.5983(3)
H15_2 H 0.5116 0.3683 0.5658
C24_2 C 0.6534(4) 0.4479(3) 0.5544(3)
H16 H 0.6326 0.4540 0.4923
O4_2 O 0.0656(3) 0.96388(19) 0.0969(2)
C1_2 C 0.1755(4) 0.98468(19) 0.1368(2)
C2_2 C 0.2419(4) 0.9373(2) 0.2121(3)
C3_2 C 0.1704(4) 0.8800(2) 0.2509(2)
H1_2 H 0.0797 0.8699 0.2291
C4_2 C 0.2325(4) 0.8372(2) 0.3224(3)
C5_2 C 0.3696(5) 0.8514(3) 0.3519(4)
H2_2 H 0.4126 0.8233 0.3991
C6_2 C 0.4423(6) 0.9068(4) 0.3118(5)
H3_2 H 0.5349 0.9146 0.3309
C7_2 C 0.3789(5) 0.9511(3) 0.2434(4)
H4_2 H 0.4275 0.9899 0.2185
C9_2 C 0.0607(5) 0.7326(3) 0.3170(3)
H6_2 H 0.0443 0.7393 0.2546
C10_2 C 0.1543(4) 0.7774(2) 0.3660(3)
C11_2 C 0.1728(6) 0.7636(3) 0.4576(3)
H7_2 H 0.2358 0.7922 0.4938
C12_2 C 0.0991(6) 0.7080(3) 0.4965(3)
H8 H 0.1142 0.7002 0.5587
O5_2 O 0.9344(3) 0.03612(19) 0.9031(2)
C8_2 C 0.9912(5) 0.6776(3) 0.3602(3)
H5_2 H 0.9295 0.6475 0.3251
Cd4_2 Cd 0.86833(2) 0.918410(12) 0.019255(14)
O1_2 O 0.2381(3) 0.45786(16) 0.61562(18)
O2_3 O 0.3162(3) 0.33360(19) 0.46940(19)
O3_3 O 0.1603(3) 0.33767(17) 0.35346(19)
N1_2 N 0.0071(3) 0.83503(18) 0.9491(2)
N2_2 N 0.7536(3) 0.00998(19) 0.0949(2)
C1_3 C 0.1755(4) 0.51532(19) 0.6368(2)
C2_3 C 0.2419(4) 0.5627(2) 0.7121(3)
C3_3 C 0.1704(4) 0.6200(2) 0.7509(2)
H1_3 H 0.0797 0.6301 0.7291
C4_3 C 0.2325(4) 0.6628(2) 0.8224(3)
C5_3 C 0.3696(5) 0.6486(3) 0.8519(4)
H2_3 H 0.4126 0.6767 0.8991
C6_3 C 0.4423(6) 0.5932(4) 0.8118(5)
H3_3 H 0.5349 0.5854 0.8309
C7_3 C 0.3789(5) 0.5489(3) 0.7434(4)
H4_3 H 0.4275 0.5101 0.7185
C9_3 C 0.0607(5) 0.7674(3) 0.8170(3)
H6_3 H 0.0443 0.7607 0.7546
C10_3 C 0.1543(4) 0.7226(2) 0.8660(3)
C11_3 C 0.1728(6) 0.7364(3) 0.9576(3)
H7_3 H 0.2358 0.7078 0.9938
C12_3 C 0.0991(6) 0.7920(3) 0.9965(3)
C13_3 C 0.2736(4) 0.3157(2) 0.3903(3)
C14_3 C 0.3623(4) 0.2654(2) 0.3379(3)
C15_3 C 0.4881(6) 0.2391(4) 0.3753(3)
H9_3 H 0.5215 0.2548 0.4330
C16_3 C 0.5647(6) 0.1899(4) 0.3282(3)
H10_3 H 0.6472 0.1713 0.3560
C17_3 C 0.5229(4) 0.1675(2) 0.2412(3)
C18_3 C 0.3993(4) 0.1971(3) 0.2027(3)
H11_3 H 0.3681 0.1836 0.1437
C19_3 C 0.3219(4) 0.2459(3) 0.2499(3)
H12_3 H 0.2409 0.2659 0.2217
C20_3 C 0.7786(4) 0.0195(3) 0.1845(3)
C21_3 C 0.7087(5) 0.0697(3) 0.2338(3)
H14_3 H 0.7305 0.0741 0.2960
C22_3 C 0.6046(4) 0.1141(2) 0.1907(2)
C23_3 C 0.5794(4) 0.1036(3) 0.0983(3)
H15_3 H 0.5116 0.1317 0.0658
C24_3 C 0.6534(4) 0.0521(3) 0.0544(3)
N4_2 N 0.2464(3) 0.50998(19) 0.4051(2)
H13_3 H 0.8472 0.9905 0.2150
C8_3 C 0.9912(5) 0.8224(3) 0.8602(3)
H5_3 H 0.9295 0.8525 0.8251
N3_2 N 0.9929(3) 0.33503(18) 0.5509(2)
C8_4 C 0.0088(5) 0.3224(3) 0.6398(3)
H5_4 H 0.0705 0.3525 0.6749
C1_4 C 0.8245(4) 0.01532(19) 0.8632(2)
C2_4 C 0.7581(4) 0.0627(2) 0.7879(3)
C3_4 C 0.8296(4) 0.1200(2) 0.7491(2)
H1_4 H 0.9203 0.1301 0.7709
C4_4 C 0.7675(4) 0.1628(2) 0.6776(3)
C5_4 C 0.6304(5) 0.1486(3) 0.6481(4)
H2_4 H 0.5874 0.1767 0.6009
C6_4 C 0.5577(6) 0.0932(4) 0.6882(5)
H3_4 H 0.4651 0.0854 0.6691
C7_4 C 0.6211(5) 0.0489(3) 0.7566(4)
H4_4 H 0.5725 0.0101 0.7815
C9_4 C 0.9393(5) 0.2674(3) 0.6830(3)
H6_4 H 0.9557 0.2607 0.7454
C10_4 C 0.8457(4) 0.2226(2) 0.6340(3)
C11_4 C 0.8272(6) 0.2364(3) 0.5424(3)
H7_4 H 0.7642 0.2078 0.5062
C12_4 C 0.9009(6) 0.2920(3) 0.5035(3)
H8_2 H 0.8858 0.2998 0.4413
O2_4 O 0.6838(3) 0.83360(19) 0.03060(19)
O3_4 O 0.8397(3) 0.83767(17) 0.14654(19)
C13_4 C 0.7264(4) 0.8157(2) 0.1097(3)
C14_4 C 0.6377(4) 0.7654(2) 0.1621(3)
C15_4 C 0.5119(6) 0.7391(4) 0.1247(3)
H9_4 H 0.4785 0.7548 0.0670
C16_4 C 0.4353(6) 0.6899(4) 0.1718(3)
H10_4 H 0.3528 0.6713 0.1440
C17_4 C 0.4771(4) 0.6675(2) 0.2588(3)
C18_4 C 0.6007(4) 0.6971(3) 0.2973(3)
H11_4 H 0.6319 0.6836 0.3563
C19_4 C 0.6781(4) 0.7459(3) 0.2501(3)
H12_4 H 0.7591 0.7659 0.2783
C20_4 C 0.2214(4) 0.5195(3) 0.3155(3)
H13_4 H 0.1528 0.4905 0.2850
C21_4 C 0.2913(5) 0.5697(3) 0.2662(3)
H14_4 H 0.2695 0.5741 0.2040
C22_4 C 0.3954(4) 0.6141(2) 0.3093(2)
C23_4 C 0.4206(4) 0.6036(3) 0.4017(3)
H15_4 H 0.4884 0.6317 0.4342
C24_4 C 0.3466(4) 0.5521(3) 0.4456(3)
H16_2 H 0.3674 0.5460 0.5077
H16_3 H 0.3674 0.9540 0.0077
H8_3 H 0.8858 0.2002 0.9413
O1_3 O 0.2381(3) 0.04214(16) 0.11562(18)
H8_4 H 0.1142 0.7998 0.0587
H16_4 H 0.6326 0.0460 0.9923
O1_4 O 0.7619(3) 0.95786(16) 0.88438(18)
loop_
_geom_bond_atom_site_label_1
_geom_bond_atom_site_label_2
_geom_bond_site_symmetry_1
_geom_bond_site_symmetry_2
C8 H5 1_555 1_555
Cd1 O1 1_555 1_555
O1 C1 1_555 1_555
O2 Cd1 1_555 1_555
O3 Cd1 1_555 1_555
O4 C1 1_555 1_555
N2 C20 1_555 1_555
C1 C2 1_555 1_555
C2 C3 1_555 1_555
C3 H1 1_555 1_555
C4 C3 1_555 1_555
C5 C4 1_555 1_555
H2 C5 1_555 1_555
C6 C5 1_555 1_555
H3 C6 1_555 1_555
C7 C2 1_555 1_555
H4 C7 1_555 1_555
H6 C9 1_555 1_555
C10 C4 1_555 1_555
C11 C10 1_555 1_555
H7 C11 1_555 1_555
C12 N1 1_555 1_555
C13 O2 1_555 1_555
C14 C13 1_555 1_555
C15 C14 1_555 1_555
H9 C15 1_555 1_555
C16 C15 1_555 1_555
H10 C16 1_555 1_555
C17 C16 1_555 1_555
C18 C17 1_555 1_555
H11 C18 1_555 1_555
C19 C14 1_555 1_555
H12 C19 1_555 1_555
C21 C20 1_555 1_555
H14 C21 1_555 1_555
C22 C17 1_555 1_555
C23 C22 1_555 1_555
H15 C23 1_555 1_555
C24 N2 1_555 1_555
N4 Cd1 1_555 1_555
O3 C13 1_555 1_555
C6 C7 1_555 1_555
C9 C10 1_555 1_555
C11 C12 1_555 1_555
C18 C19 1_555 1_555
C21 C22 1_555 1_555
C23 C24 1_555 1_555
O2_2 Cd3 1_555 1_555
O3_2 Cd3 1_555 1_555
N4 C20_2 1_555 1_555
C13_2 O2_2 1_555 1_555
C14_2 C13_2 1_555 1_555
C15_2 C14_2 1_555 1_555
H9_2 C15_2 1_555 1_555
C16_2 C15_2 1_555 1_555
H10_2 C16_2 1_555 1_555
C17_2 C16_2 1_555 1_555
C18_2 C17_2 1_555 1_555
H11_2 C18_2 1_555 1_555
C19_2 C14_2 1_555 1_555
H12_2 C19_2 1_555 1_555
C20_2 H13_2 1_555 1_555
C21_2 C20_2 1_555 1_555
H14_2 C21_2 1_555 1_555
C22_2 C17_2 1_555 1_555
C23_2 C22_2 1_555 1_555
H15_2 C23_2 1_555 1_555
C24_2 N4 1_555 1_555
H16 C24_2 1_555 1_555
O3_2 C13_2 1_555 1_555
C18_2 C19_2 1_555 1_555
C21_2 C22_2 1_555 1_555
C23_2 C24_2 1_555 1_555
O4_2 C1_2 1_555 1_555
C1_2 C2_2 1_555 1_555
C2_2 C3_2 1_555 1_555
C3_2 H1_2 1_555 1_555
C4_2 C3_2 1_555 1_555
C5_2 C4_2 1_555 1_555
H2_2 C5_2 1_555 1_555
C6_2 C5_2 1_555 1_555
H3_2 C6_2 1_555 1_555
C7_2 C2_2 1_555 1_555
H4_2 C7_2 1_555 1_555
H6_2 C9_2 1_555 1_555
C10_2 C4_2 1_555 1_555
C11_2 C10_2 1_555 1_555
H7_2 C11_2 1_555 1_555
C12_2 N3 1_555 1_555
H8 C12_2 1_555 1_555
C6_2 C7_2 1_555 1_555
C9_2 C10_2 1_555 1_555
C11_2 C12_2 1_555 1_555
C8_2 H5_2 1_555 1_555
Cd4 O1_2 1_555 1_555
O1_2 C1_3 1_555 1_555
O2_3 Cd4 1_555 1_555
O3_3 Cd4 1_555 1_555
O5 C1_3 1_555 1_555
N2_2 C20_3 1_555 1_555
C1_3 C2_3 1_555 1_555
C2_3 C3_3 1_555 1_555
C3_3 H1_3 1_555 1_555
C4_3 C3_3 1_555 1_555
C5_3 C4_3 1_555 1_555
H2_3 C5_3 1_555 1_555
C6_3 C5_3 1_555 1_555
H3_3 C6_3 1_555 1_555
C7_3 C2_3 1_555 1_555
H4_3 C7_3 1_555 1_555
H6_3 C9_3 1_555 1_555
C10_3 C4_3 1_555 1_555
C11_3 C10_3 1_555 1_555
H7_3 C11_3 1_555 1_555
C12_3 N1_2 1_555 1_555
C13_3 O2_3 1_555 1_555
C14_3 C13_3 1_555 1_555
C15_3 C14_3 1_555 1_555
H9_3 C15_3 1_555 1_555
C16_3 C15_3 1_555 1_555
H10_3 C16_3 1_555 1_555
C17_3 C16_3 1_555 1_555
C18_3 C17_3 1_555 1_555
H11_3 C18_3 1_555 1_555
C19_3 C14_3 1_555 1_555
H12_3 C19_3 1_555 1_555
C21_3 C20_3 1_555 1_555
H14_3 C21_3 1_555 1_555
C22_3 C17_3 1_555 1_555
C23_3 C22_3 1_555 1_555
H15_3 C23_3 1_555 1_555
C24_3 N2_2 1_555 1_555
N4_2 Cd4 1_555 1_555
O3_3 C13_3 1_555 1_555
C6_3 C7_3 1_555 1_555
C9_3 C10_3 1_555 1_555
C11_3 C12_3 1_555 1_555
C18_3 C19_3 1_555 1_555
C21_3 C22_3 1_555 1_555
C23_3 C24_3 1_555 1_555
C8_3 H5_3 1_555 1_555
C8_4 H5_4 1_555 1_555
O5_2 C1_4 1_555 1_555
C1_4 C2_4 1_555 1_555
C2_4 C3_4 1_555 1_555
C3_4 H1_4 1_555 1_555
C4_4 C3_4 1_555 1_555
C5_4 C4_4 1_555 1_555
H2_4 C5_4 1_555 1_555
C6_4 C5_4 1_555 1_555
H3_4 C6_4 1_555 1_555
C7_4 C2_4 1_555 1_555
H4_4 C7_4 1_555 1_555
H6_4 C9_4 1_555 1_555
C10_4 C4_4 1_555 1_555
C11_4 C10_4 1_555 1_555
H7_4 C11_4 1_555 1_555
C12_4 N3_2 1_555 1_555
H8_2 C12_4 1_555 1_555
C6_4 C7_4 1_555 1_555
C9_4 C10_4 1_555 1_555
C11_4 C12_4 1_555 1_555
O2_4 Cd4_2 1_555 1_555
O3_4 Cd4_2 1_555 1_555
N4_2 C20_4 1_555 1_555
C13_4 O2_4 1_555 1_555
C14_4 C13_4 1_555 1_555
C15_4 C14_4 1_555 1_555
H9_4 C15_4 1_555 1_555
C16_4 C15_4 1_555 1_555
H10_4 C16_4 1_555 1_555
C17_4 C16_4 1_555 1_555
C18_4 C17_4 1_555 1_555
H11_4 C18_4 1_555 1_555
C19_4 C14_4 1_555 1_555
H12_4 C19_4 1_555 1_555
C20_4 H13_4 1_555 1_555
C21_4 C20_4 1_555 1_555
H14_4 C21_4 1_555 1_555
C22_4 C17_4 1_555 1_555
C23_4 C22_4 1_555 1_555
H15_4 C23_4 1_555 1_555
C24_4 N4_2 1_555 1_555
H16_2 C24_4 1_555 1_555
O3_4 C13_4 1_555 1_555
C18_4 C19_4 1_555 1_555
C21_4 C22_4 1_555 1_555
C23_4 C24_4 1_555 1_555

#END
