
###############################################################################
#
# This file contains modified crystal structure data generated from the
# MOF subset of the Cambridge Structural Database (CSD) v543 
# hosted by the Cambridge Crystallographic Data Centre (CCDC).
#
# This work is licensed under the Creative Commons
# Attribution-NonCommercial-ShareAlike 4.0 International License.
# To view a copy of this license, visit
# http://creativecommons.org/licenses/by-nc-sa/4.0/
# or send a letter to
# Creative Commons, PO Box 1866, Mountain View, CA 94042, USA.
#
# CIF created using the CSD Python API on 29 September 2022
# The structure has been converted into the P1 space group
# The structure has a 3D framework
# The original CSD entry IGUVAJ01 is in the monoclinic crystal system
# The framework has been calculated to contain at least 10.0% void space
# The void calculation uses a probe of radius 1.32A, grid spacing 0.4
#
###############################################################################

data_IGUVAJ01
_chemical_formula_moiety         '(C96 H64 Cd4 N8 O16)n'
_symmetry_cell_setting           triclinic
_symmetry_space_group_name_H-M   'P 1'
_symmetry_Int_Tables_number      1
_space_group_name_Hall           'P 1'
loop_
_symmetry_equiv_pos_site_id
_symmetry_equiv_pos_as_xyz
1 x,y,z
_cell_length_a                   10.10785(19)
_cell_length_b                   17.0515(4)
_cell_length_c                   14.7514(3)
_cell_angle_alpha                90
_cell_angle_beta                 97.9248(17)
_cell_angle_gamma                90
_cell_volume                     2518.18
loop_
_atom_site_label
_atom_site_type_symbol
_atom_site_fract_x
_atom_site_fract_y
_atom_site_fract_z
N1 N 0.0062(4) 0.1697(3) 0.0375(3)
C8 C 0.0331(8) 0.1891(5) 0.1244(5)
H5 H 0.1021 0.1626 0.1600
Cd4 Cd 0.13266(3) 0.421731(18) 0.47368(2)
O5 O 0.0625(4) 0.5286(2) 0.6025(3)
Cd3 Cd 0.13266(3) 0.078269(18) 0.97368(2)
Cd1 Cd 0.86734(3) 0.578269(18) 0.52632(2)
O1 O 0.7542(4) 0.5400(2) 0.3891(2)
O2 O 0.6899(4) 0.6658(3) 0.5346(3)
O3 O 0.8367(4) 0.6566(3) 0.6581(3)
O4 O 0.9375(4) 0.4714(2) 0.3975(3)
N2 N 0.2387(4) 0.9795(3) 0.9026(3)
C1 C 0.8242(5) 0.4883(3) 0.3596(3)
C2 C 0.7654(6) 0.4440(4) 0.2758(4)
C3 C 0.8390(5) 0.3878(3) 0.2363(3)
H1 H 0.9268 0.3780 0.2619
C4 C 0.7841(6) 0.3459(4) 0.1592(4)
C5 C 0.6514(8) 0.3615(7) 0.1237(7)
H2 H 0.6121 0.3339 0.0726
C6 C 0.5777(9) 0.4165(7) 0.1625(8)
H3 H 0.4895 0.4257 0.1375
C7 C 0.6338(8) 0.4586(6) 0.2388(6)
H4 H 0.5838 0.4961 0.2648
C9 C 0.9663(8) 0.2457(5) 0.1663(5)
H6 H 0.9920 0.2571 0.2278
C10 C 0.8619(6) 0.2853(4) 0.1177(4)
C11 C 0.8297(9) 0.2593(5) 0.0296(5)
C13 C 0.7295(5) 0.6809(3) 0.6172(3)
C14 C 0.6420(5) 0.7322(4) 0.6668(4)
C15 C 0.5360(10) 0.7709(8) 0.6233(5)
H9 H 0.5163 0.7666 0.5600
C16 C 0.4555(10) 0.8169(7) 0.6698(5)
H10 H 0.3824 0.8418 0.6368
C17 C 0.4784(5) 0.8273(3) 0.7605(4)
C18 C 0.5858(7) 0.7883(5) 0.8051(4)
H11 H 0.6062 0.7941 0.8682
C19 C 0.6658(7) 0.7404(5) 0.7595(5)
H12 H 0.7365 0.7134 0.7927
C20 C 0.2036(7) 0.9613(5) 0.8156(4)
H13 H 0.1249 0.9824 0.7853
C21 C 0.2777(7) 0.9125(5) 0.7671(5)
H14 H 0.2487 0.9025 0.7056
C22 C 0.3943(5) 0.8786(3) 0.8092(4)
C23 C 0.4274(6) 0.8978(4) 0.9013(4)
H15 H 0.5041 0.8767 0.9345
C24 C 0.3500(6) 0.9465(4) 0.9428(4)
N3 N 0.9938(4) 0.6697(3) 0.4625(3)
N4 N 0.7613(4) 0.4795(3) 0.5974(3)
O1_2 O 0.2458(4) 0.0400(2) 0.1109(2)
O2_2 O 0.3101(4) 0.1658(3) 0.9654(3)
O3_2 O 0.1633(4) 0.1566(3) 0.8419(3)
C13_2 C 0.2705(5) 0.1809(3) 0.8828(3)
C14_2 C 0.3580(5) 0.2322(4) 0.8332(4)
C15_2 C 0.4640(10) 0.2709(8) 0.8767(5)
H9_2 H 0.4837 0.2666 0.9400
C16_2 C 0.5445(10) 0.3169(7) 0.8302(5)
H10_2 H 0.6176 0.3418 0.8632
C17_2 C 0.5216(5) 0.3273(3) 0.7395(4)
C18_2 C 0.4142(7) 0.2883(5) 0.6949(4)
H11_2 H 0.3938 0.2941 0.6318
C19_2 C 0.3342(7) 0.2404(5) 0.7405(5)
H12_2 H 0.2635 0.2134 0.7073
C20_2 C 0.7964(7) 0.4613(5) 0.6844(4)
H13_2 H 0.8751 0.4824 0.7147
C21_2 C 0.7223(7) 0.4125(5) 0.7329(5)
H14_2 H 0.7513 0.4025 0.7944
C22_2 C 0.6057(5) 0.3786(3) 0.6908(4)
C23_2 C 0.5726(6) 0.3978(4) 0.5987(4)
H15_2 H 0.4959 0.3767 0.5655
C24_2 C 0.6500(6) 0.4465(4) 0.5572(4)
H16 H 0.6233 0.4579 0.4957
C8_2 C 0.9669(8) 0.6891(5) 0.3756(5)
H5_2 H 0.8979 0.6626 0.3400
Cd4_2 Cd 0.86734(3) 0.921731(18) 0.02632(2)
O1_3 O 0.2458(4) 0.4600(2) 0.6109(2)
O2_3 O 0.3101(4) 0.3342(3) 0.4654(3)
O3_3 O 0.1633(4) 0.3434(3) 0.3419(3)
N2_2 N 0.7613(4) 0.0205(3) 0.0974(3)
C1_2 C 0.1758(5) 0.5117(3) 0.6404(3)
C2_2 C 0.2346(6) 0.5560(4) 0.7242(4)
C3_2 C 0.1610(5) 0.6122(3) 0.7637(3)
H1_2 H 0.0732 0.6220 0.7381
C4_2 C 0.2159(6) 0.6541(4) 0.8408(4)
C5_2 C 0.3486(8) 0.6385(7) 0.8763(7)
H2_2 H 0.3879 0.6661 0.9274
C6_2 C 0.4223(9) 0.5835(7) 0.8375(8)
H3_2 H 0.5105 0.5743 0.8625
C7_2 C 0.3662(8) 0.5414(6) 0.7612(6)
H4_2 H 0.4162 0.5039 0.7352
C9_2 C 0.0337(8) 0.7543(5) 0.8337(5)
H6_2 H 0.0080 0.7429 0.7722
C10_2 C 0.1381(6) 0.7147(4) 0.8823(4)
C11_2 C 0.1703(9) 0.7407(5) 0.9704(5)
C13_3 C 0.2705(5) 0.3191(3) 0.3828(3)
C14_3 C 0.3580(5) 0.2678(4) 0.3332(4)
C15_3 C 0.4640(10) 0.2291(8) 0.3767(5)
H9_3 H 0.4837 0.2334 0.4400
C16_3 C 0.5445(10) 0.1831(7) 0.3302(5)
H10_3 H 0.6176 0.1582 0.3632
C17_3 C 0.5216(5) 0.1727(3) 0.2395(4)
C18_3 C 0.4142(7) 0.2117(5) 0.1949(4)
H11_3 H 0.3938 0.2059 0.1318
C19_3 C 0.3342(7) 0.2596(5) 0.2405(5)
H12_3 H 0.2635 0.2866 0.2073
C20_3 C 0.7964(7) 0.0387(5) 0.1844(4)
H13_3 H 0.8751 0.0176 0.2147
C21_3 C 0.7223(7) 0.0875(5) 0.2329(5)
H14_3 H 0.7513 0.0975 0.2944
C22_3 C 0.6057(5) 0.1214(3) 0.1908(4)
C23_3 C 0.5726(6) 0.1022(4) 0.0987(4)
H15_3 H 0.4959 0.1233 0.0655
C24_3 C 0.6500(6) 0.0535(4) 0.0572(4)
N3_2 N 0.0062(4) 0.3303(3) 0.5375(3)
N4_2 N 0.2387(4) 0.5205(3) 0.4026(3)
N1_2 N 0.9938(4) 0.8303(3) 0.9625(3)
C8_3 C 0.9669(8) 0.8109(5) 0.8756(5)
H5_3 H 0.8979 0.8374 0.8400
C8_4 C 0.0331(8) 0.3109(5) 0.6244(5)
H5_4 H 0.1021 0.3374 0.6600
O2_4 O 0.6899(4) 0.8342(3) 0.0346(3)
O3_4 O 0.8367(4) 0.8434(3) 0.1581(3)
C13_4 C 0.7295(5) 0.8191(3) 0.1172(3)
C14_4 C 0.6420(5) 0.7678(4) 0.1668(4)
C15_4 C 0.5360(10) 0.7291(8) 0.1233(5)
H9_4 H 0.5163 0.7334 0.0600
C16_4 C 0.4555(10) 0.6831(7) 0.1698(5)
H10_4 H 0.3824 0.6582 0.1368
C17_4 C 0.4784(5) 0.6727(3) 0.2605(4)
C18_4 C 0.5858(7) 0.7117(5) 0.3051(4)
H11_4 H 0.6062 0.7059 0.3682
C19_4 C 0.6658(7) 0.7596(5) 0.2595(5)
H12_4 H 0.7365 0.7866 0.2927
C20_4 C 0.2036(7) 0.5387(5) 0.3156(4)
H13_4 H 0.1249 0.5176 0.2853
C21_4 C 0.2777(7) 0.5875(5) 0.2671(5)
H14_4 H 0.2487 0.5975 0.2056
C22_4 C 0.3943(5) 0.6214(3) 0.3092(4)
C23_4 C 0.4274(6) 0.6022(4) 0.4013(4)
H15_4 H 0.5041 0.6233 0.4345
C24_4 C 0.3500(6) 0.5535(4) 0.4428(4)
H16_2 H 0.3767 0.5421 0.5043
O1_4 O 0.7542(4) 0.9600(2) 0.8891(2)
H16_3 H 0.3767 0.9579 0.0043
H7 H 0.7560 0.2806 0.9933
C12 C 0.9017(10) 0.2036(5) 0.9941(5)
H8 H 0.8742 0.1884 0.9339
O4_2 O 0.0625(4) 0.9714(2) 0.1025(3)
C1_3 C 0.1758(5) 0.9883(3) 0.1404(3)
C2_3 C 0.2346(6) 0.9440(4) 0.2242(4)
C3_3 C 0.1610(5) 0.8878(3) 0.2637(3)
H1_3 H 0.0732 0.8780 0.2381
C4_3 C 0.2159(6) 0.8459(4) 0.3408(4)
C5_3 C 0.3486(8) 0.8615(7) 0.3763(7)
H2_3 H 0.3879 0.8339 0.4274
C6_3 C 0.4223(9) 0.9165(7) 0.3375(8)
H3_3 H 0.5105 0.9257 0.3625
C7_3 C 0.3662(8) 0.9586(6) 0.2612(6)
H4_3 H 0.4162 0.9961 0.2352
C9_3 C 0.0337(8) 0.7457(5) 0.3337(5)
H6_3 H 0.0080 0.7571 0.2722
C10_3 C 0.1381(6) 0.7853(4) 0.3823(4)
C11_3 C 0.1703(9) 0.7593(5) 0.4704(5)
H7_2 H 0.2440 0.7806 0.5067
C12_2 C 0.0983(10) 0.7036(5) 0.5059(5)
H8_2 H 0.1258 0.6884 0.5661
O5_2 O 0.9375(4) 0.0286(2) 0.8975(3)
C1_4 C 0.8242(5) 0.0117(3) 0.8596(3)
C2_4 C 0.7654(6) 0.0560(4) 0.7758(4)
C3_4 C 0.8390(5) 0.1122(3) 0.7363(3)
H1_4 H 0.9268 0.1220 0.7619
C4_4 C 0.7841(6) 0.1541(4) 0.6592(4)
C5_4 C 0.6514(8) 0.1385(7) 0.6237(7)
H2_4 H 0.6121 0.1661 0.5726
C6_4 C 0.5777(9) 0.0835(7) 0.6625(8)
H3_4 H 0.4895 0.0743 0.6375
C7_4 C 0.6338(8) 0.0414(6) 0.7388(6)
H4_4 H 0.5838 0.0039 0.7648
C9_4 C 0.9663(8) 0.2543(5) 0.6663(5)
H6_4 H 0.9920 0.2429 0.7278
C10_4 C 0.8619(6) 0.2147(4) 0.6177(4)
C11_4 C 0.8297(9) 0.2407(5) 0.5296(5)
H7_3 H 0.7560 0.2194 0.4933
C12_3 C 0.9017(10) 0.2964(5) 0.4941(5)
H8_3 H 0.8742 0.3116 0.4339
H7_4 H 0.2440 0.7194 0.0067
C12_4 C 0.0983(10) 0.7964(5) 0.0059(5)
H8_4 H 0.1258 0.8116 0.0661
H16_4 H 0.6233 0.0421 0.9957
loop_
_geom_bond_atom_site_label_1
_geom_bond_atom_site_label_2
_geom_bond_site_symmetry_1
_geom_bond_site_symmetry_2
N1 C8 1_555 1_555
C8 H5 1_555 1_555
Cd1 O1 1_555 1_555
O1 C1 1_555 1_555
O2 Cd1 1_555 1_555
O3 Cd1 1_555 1_555
O4 C1 1_555 1_555
N2 C20 1_555 1_555
C1 C2 1_555 1_555
C2 C3 1_555 1_555
C3 H1 1_555 1_555
C4 C3 1_555 1_555
C5 C4 1_555 1_555
H2 C5 1_555 1_555
C6 C5 1_555 1_555
H3 C6 1_555 1_555
C7 C2 1_555 1_555
H4 C7 1_555 1_555
H6 C9 1_555 1_555
C10 C4 1_555 1_555
C11 C10 1_555 1_555
C13 O2 1_555 1_555
C14 C13 1_555 1_555
C15 C14 1_555 1_555
H9 C15 1_555 1_555
C16 C15 1_555 1_555
H10 C16 1_555 1_555
C17 C16 1_555 1_555
C18 C17 1_555 1_555
H11 C18 1_555 1_555
C19 C14 1_555 1_555
H12 C19 1_555 1_555
C20 H13 1_555 1_555
C21 C20 1_555 1_555
H14 C21 1_555 1_555
C22 C17 1_555 1_555
C23 C22 1_555 1_555
H15 C23 1_555 1_555
C24 N2 1_555 1_555
N3 Cd1 1_555 1_555
N4 Cd1 1_555 1_555
O3 C13 1_555 1_555
C6 C7 1_555 1_555
C9 C10 1_555 1_555
C18 C19 1_555 1_555
C21 C22 1_555 1_555
C23 C24 1_555 1_555
O2_2 Cd3 1_555 1_555
O3_2 Cd3 1_555 1_555
N4 C20_2 1_555 1_555
C13_2 O2_2 1_555 1_555
C14_2 C13_2 1_555 1_555
C15_2 C14_2 1_555 1_555
H9_2 C15_2 1_555 1_555
C16_2 C15_2 1_555 1_555
H10_2 C16_2 1_555 1_555
C17_2 C16_2 1_555 1_555
C18_2 C17_2 1_555 1_555
H11_2 C18_2 1_555 1_555
C19_2 C14_2 1_555 1_555
H12_2 C19_2 1_555 1_555
C20_2 H13_2 1_555 1_555
C21_2 C20_2 1_555 1_555
H14_2 C21_2 1_555 1_555
C22_2 C17_2 1_555 1_555
C23_2 C22_2 1_555 1_555
H15_2 C23_2 1_555 1_555
C24_2 N4 1_555 1_555
H16 C24_2 1_555 1_555
O3_2 C13_2 1_555 1_555
C18_2 C19_2 1_555 1_555
C21_2 C22_2 1_555 1_555
C23_2 C24_2 1_555 1_555
N3 C8_2 1_555 1_555
C8_2 H5_2 1_555 1_555
Cd4 O1_3 1_555 1_555
O1_3 C1_2 1_555 1_555
O2_3 Cd4 1_555 1_555
O3_3 Cd4 1_555 1_555
O5 C1_2 1_555 1_555
N2_2 C20_3 1_555 1_555
C1_2 C2_2 1_555 1_555
C2_2 C3_2 1_555 1_555
C3_2 H1_2 1_555 1_555
C4_2 C3_2 1_555 1_555
C5_2 C4_2 1_555 1_555
H2_2 C5_2 1_555 1_555
C6_2 C5_2 1_555 1_555
H3_2 C6_2 1_555 1_555
C7_2 C2_2 1_555 1_555
H4_2 C7_2 1_555 1_555
H6_2 C9_2 1_555 1_555
C10_2 C4_2 1_555 1_555
C11_2 C10_2 1_555 1_555
C13_3 O2_3 1_555 1_555
C14_3 C13_3 1_555 1_555
C15_3 C14_3 1_555 1_555
H9_3 C15_3 1_555 1_555
C16_3 C15_3 1_555 1_555
H10_3 C16_3 1_555 1_555
C17_3 C16_3 1_555 1_555
C18_3 C17_3 1_555 1_555
H11_3 C18_3 1_555 1_555
C19_3 C14_3 1_555 1_555
H12_3 C19_3 1_555 1_555
C20_3 H13_3 1_555 1_555
C21_3 C20_3 1_555 1_555
H14_3 C21_3 1_555 1_555
C22_3 C17_3 1_555 1_555
C23_3 C22_3 1_555 1_555
H15_3 C23_3 1_555 1_555
C24_3 N2_2 1_555 1_555
N3_2 Cd4 1_555 1_555
N4_2 Cd4 1_555 1_555
O3_3 C13_3 1_555 1_555
C6_2 C7_2 1_555 1_555
C9_2 C10_2 1_555 1_555
C18_3 C19_3 1_555 1_555
C21_3 C22_3 1_555 1_555
C23_3 C24_3 1_555 1_555
N1_2 C8_3 1_555 1_555
C8_3 H5_3 1_555 1_555
N3_2 C8_4 1_555 1_555
C8_4 H5_4 1_555 1_555
O2_4 Cd4_2 1_555 1_555
O3_4 Cd4_2 1_555 1_555
N4_2 C20_4 1_555 1_555
C13_4 O2_4 1_555 1_555
C14_4 C13_4 1_555 1_555
C15_4 C14_4 1_555 1_555
H9_4 C15_4 1_555 1_555
C16_4 C15_4 1_555 1_555
H10_4 C16_4 1_555 1_555
C17_4 C16_4 1_555 1_555
C18_4 C17_4 1_555 1_555
H11_4 C18_4 1_555 1_555
C19_4 C14_4 1_555 1_555
H12_4 C19_4 1_555 1_555
C20_4 H13_4 1_555 1_555
C21_4 C20_4 1_555 1_555
H14_4 C21_4 1_555 1_555
C22_4 C17_4 1_555 1_555
C23_4 C22_4 1_555 1_555
H15_4 C23_4 1_555 1_555
C24_4 N4_2 1_555 1_555
H16_2 C24_4 1_555 1_555
O3_4 C13_4 1_555 1_555
C18_4 C19_4 1_555 1_555
C21_4 C22_4 1_555 1_555
C23_4 C24_4 1_555 1_555
H8 C12 1_555 1_555
O4_2 C1_3 1_555 1_555
C1_3 C2_3 1_555 1_555
C2_3 C3_3 1_555 1_555
C3_3 H1_3 1_555 1_555
C4_3 C3_3 1_555 1_555
C5_3 C4_3 1_555 1_555
H2_3 C5_3 1_555 1_555
C6_3 C5_3 1_555 1_555
H3_3 C6_3 1_555 1_555
C7_3 C2_3 1_555 1_555
H4_3 C7_3 1_555 1_555
H6_3 C9_3 1_555 1_555
C10_3 C4_3 1_555 1_555
C11_3 C10_3 1_555 1_555
H7_2 C11_3 1_555 1_555
H8_2 C12_2 1_555 1_555
C6_3 C7_3 1_555 1_555
C9_3 C10_3 1_555 1_555
C11_3 C12_2 1_555 1_555
O5_2 C1_4 1_555 1_555
C1_4 C2_4 1_555 1_555
C2_4 C3_4 1_555 1_555
C3_4 H1_4 1_555 1_555
C4_4 C3_4 1_555 1_555
C5_4 C4_4 1_555 1_555
H2_4 C5_4 1_555 1_555
C6_4 C5_4 1_555 1_555
H3_4 C6_4 1_555 1_555
C7_4 C2_4 1_555 1_555
H4_4 C7_4 1_555 1_555
H6_4 C9_4 1_555 1_555
C10_4 C4_4 1_555 1_555
C11_4 C10_4 1_555 1_555
H7_3 C11_4 1_555 1_555
H8_3 C12_3 1_555 1_555
C6_4 C7_4 1_555 1_555
C9_4 C10_4 1_555 1_555
C11_4 C12_3 1_555 1_555
H8_4 C12_4 1_555 1_555

#END
