
###############################################################################
#
# This file contains modified crystal structure data generated from the
# MOF subset of the Cambridge Structural Database (CSD) v543 
# hosted by the Cambridge Crystallographic Data Centre (CCDC).
#
# This work is licensed under the Creative Commons
# Attribution-NonCommercial-ShareAlike 4.0 International License.
# To view a copy of this license, visit
# http://creativecommons.org/licenses/by-nc-sa/4.0/
# or send a letter to
# Creative Commons, PO Box 1866, Mountain View, CA 94042, USA.
#
# CIF created using the CSD Python API on 29 September 2022
# The structure has been converted into the P1 space group
# The structure has a 3D framework
# The original CSD entry IGUVAJ is in the monoclinic crystal system
# The framework has been calculated to contain at least 10.0% void space
# The void calculation uses a probe of radius 1.32A, grid spacing 0.4
#
###############################################################################

data_IGUVAJ
_chemical_formula_moiety         '(C96 H64 Cd4 N8 O16)n'
_symmetry_cell_setting           triclinic
_symmetry_space_group_name_H-M   'P 1'
_symmetry_Int_Tables_number      1
_space_group_name_Hall           'P 1'
loop_
_symmetry_equiv_pos_site_id
_symmetry_equiv_pos_as_xyz
1 x,y,z
_cell_length_a                   10.3397(3)
_cell_length_b                   15.6399(5)
_cell_length_c                   14.9889(4)
_cell_angle_alpha                90
_cell_angle_beta                 100.948(3)
_cell_angle_gamma                90
_cell_volume                     2379.77
loop_
_atom_site_label
_atom_site_type_symbol
_atom_site_fract_x
_atom_site_fract_y
_atom_site_fract_z
N1 N 0.0056(4) 0.1811(3) 0.0202(3)
C8 C 0.0598(5) 0.2230(4) 0.0960(4)
H5 H 0.1478 0.2095 0.1238
H6 H 0.0377 0.3133 0.1888
Cd4 Cd 0.12890(3) 0.422743(18) 0.468483(17)
O5 O 0.0690(3) 0.5188(2) 0.60282(19)
Cd3 Cd 0.12890(3) 0.077257(18) 0.968483(17)
Cd1 Cd 0.87110(3) 0.577257(18) 0.531517(17)
O1 O 0.7437(3) 0.5519(2) 0.3892(2)
O2 O 0.7004(3) 0.6716(2) 0.5440(2)
O3 O 0.8328(3) 0.6378(2) 0.6738(2)
O4 O 0.9310(3) 0.4812(2) 0.39718(19)
N2 N 0.2290(4) 0.9623(3) 0.9131(2)
C1 C 0.8162(4) 0.5015(3) 0.3564(3)
C2 C 0.7646(4) 0.4645(3) 0.2638(3)
C3 C 0.8368(4) 0.4046(3) 0.2252(3)
H1 H 0.9200 0.3864 0.2580
C4 C 0.7892(5) 0.3707(3) 0.1393(3)
C5 C 0.6663(6) 0.3996(5) 0.0923(4)
H2 H 0.6328 0.3784 0.0330
C6 C 0.5936(4) 0.4581(3) 0.1307(3)
H3 H 0.5101 0.4760 0.0981
C7 C 0.6416(4) 0.4914(3) 0.2173(3)
H4 H 0.5923 0.5307 0.2433
C9 C 0.9941(5) 0.2847(4) 0.1356(4)
C10 C 0.8647(4) 0.3054(3) 0.0984(3)
C11 C 0.8102(5) 0.2623(3) 0.0189(3)
C13 C 0.7298(4) 0.6728(3) 0.6296(3)
C14 C 0.6371(4) 0.7172(3) 0.6804(3)
C15 C 0.5379(5) 0.7702(4) 0.6342(3)
H9 H 0.5283 0.7775 0.5703
C16 C 0.4538(5) 0.8119(3) 0.6806(3)
H10 H 0.3854 0.8466 0.6478
C17 C 0.4667(4) 0.8044(3) 0.7748(3)
C18 C 0.5641(5) 0.7496(4) 0.8203(3)
H11 H 0.5732 0.7421 0.8841
C19 C 0.6475(5) 0.7062(4) 0.7740(3)
H12 H 0.7123 0.6686 0.8060
C20 C 0.1808(5) 0.9293(3) 0.8304(3)
H13 H 0.0931 0.9433 0.8022
C21 C 0.2518(5) 0.8767(3) 0.7853(3)
H14 H 0.2127 0.8546 0.7274
C22 C 0.3820(4) 0.8549(3) 0.8236(3)
C23 C 0.4301(4) 0.8874(3) 0.9112(3)
H15 H 0.5172 0.8742 0.9414
C24 C 0.3521(4) 0.9378(3) 0.9527(3)
N3 N 0.9944(4) 0.6811(3) 0.4798(3)
N4 N 0.7710(4) 0.4623(3) 0.5869(2)
O1_2 O 0.2563(3) 0.0519(2) 0.1108(2)
C1_2 C 0.1838(4) 0.0015(3) 0.1436(3)
H4_2 H 0.4077 0.0307 0.2567
O2_2 O 0.2996(3) 0.1716(2) 0.9560(2)
O3_2 O 0.1672(3) 0.1378(2) 0.8262(2)
C13_2 C 0.2702(4) 0.1728(3) 0.8704(3)
C14_2 C 0.3629(4) 0.2172(3) 0.8196(3)
C15_2 C 0.4621(5) 0.2702(4) 0.8658(3)
H9_2 H 0.4717 0.2775 0.9297
C16_2 C 0.5462(5) 0.3119(3) 0.8194(3)
H10_2 H 0.6146 0.3466 0.8522
C17_2 C 0.5333(4) 0.3044(3) 0.7252(3)
C18_2 C 0.4359(5) 0.2496(4) 0.6797(3)
H11_2 H 0.4268 0.2421 0.6159
C19_2 C 0.3525(5) 0.2062(4) 0.7260(3)
H12_2 H 0.2877 0.1686 0.6940
C20_2 C 0.8192(5) 0.4293(3) 0.6696(3)
H13_2 H 0.9069 0.4433 0.6978
C21_2 C 0.7482(5) 0.3767(3) 0.7147(3)
H14_2 H 0.7873 0.3546 0.7726
C22_2 C 0.6180(4) 0.3549(3) 0.6764(3)
C23_2 C 0.5699(4) 0.3874(3) 0.5888(3)
H15_2 H 0.4828 0.3742 0.5586
C24_2 C 0.6479(4) 0.4378(3) 0.5473(3)
H16 H 0.6142 0.4568 0.4872
C8_2 C 0.9402(5) 0.7230(4) 0.4040(4)
H5_2 H 0.8522 0.7095 0.3762
H6_2 H 0.9623 0.8133 0.3112
Cd4_2 Cd 0.87110(3) 0.922743(18) 0.031517(17)
O1_3 O 0.2563(3) 0.4481(2) 0.6108(2)
O2_3 O 0.2996(3) 0.3284(2) 0.4560(2)
O3_3 O 0.1672(3) 0.3622(2) 0.3262(2)
N2_2 N 0.7710(4) 0.0377(3) 0.0869(2)
C1_3 C 0.1838(4) 0.4985(3) 0.6436(3)
C2_2 C 0.2354(4) 0.5355(3) 0.7362(3)
C3_2 C 0.1632(4) 0.5954(3) 0.7748(3)
H1_2 H 0.0800 0.6136 0.7420
C4_2 C 0.2108(5) 0.6293(3) 0.8607(3)
C5_2 C 0.3337(6) 0.6004(5) 0.9077(4)
H2_2 H 0.3672 0.6216 0.9670
C6_2 C 0.4064(4) 0.5419(3) 0.8693(3)
H3_2 H 0.4899 0.5240 0.9019
C7_2 C 0.3584(4) 0.5086(3) 0.7827(3)
H4_3 H 0.4077 0.4693 0.7567
C9_2 C 0.0059(5) 0.7153(4) 0.8644(4)
C10_2 C 0.1353(4) 0.6946(3) 0.9016(3)
C11_2 C 0.1898(5) 0.7377(3) 0.9811(3)
C13_3 C 0.2702(4) 0.3272(3) 0.3704(3)
C14_3 C 0.3629(4) 0.2828(3) 0.3196(3)
C15_3 C 0.4621(5) 0.2298(4) 0.3658(3)
H9_3 H 0.4717 0.2225 0.4297
C16_3 C 0.5462(5) 0.1881(3) 0.3194(3)
H10_3 H 0.6146 0.1534 0.3522
C17_3 C 0.5333(4) 0.1956(3) 0.2252(3)
C18_3 C 0.4359(5) 0.2504(4) 0.1797(3)
H11_3 H 0.4268 0.2579 0.1159
C19_3 C 0.3525(5) 0.2938(4) 0.2260(3)
H12_3 H 0.2877 0.3314 0.1940
C20_3 C 0.8192(5) 0.0707(3) 0.1696(3)
H13_3 H 0.9069 0.0567 0.1978
C21_3 C 0.7482(5) 0.1233(3) 0.2147(3)
H14_3 H 0.7873 0.1454 0.2726
C22_3 C 0.6180(4) 0.1451(3) 0.1764(3)
C23_3 C 0.5699(4) 0.1126(3) 0.0888(3)
H15_3 H 0.4828 0.1258 0.0586
C24_3 C 0.6479(4) 0.0622(3) 0.0473(3)
N3_2 N 0.0056(4) 0.3189(3) 0.5202(3)
N4_2 N 0.2290(4) 0.5377(3) 0.4131(2)
N1_2 N 0.9944(4) 0.8189(3) 0.9798(3)
C8_3 C 0.9402(5) 0.7770(4) 0.9040(4)
H5_3 H 0.8522 0.7905 0.8762
H6_3 H 0.9623 0.6867 0.8112
C8_4 C 0.0598(5) 0.2770(4) 0.5960(4)
H5_4 H 0.1478 0.2905 0.6238
H6_4 H 0.0377 0.1867 0.6888
O2_4 O 0.7004(3) 0.8284(2) 0.0440(2)
O3_4 O 0.8328(3) 0.8622(2) 0.1738(2)
C13_4 C 0.7298(4) 0.8272(3) 0.1296(3)
C14_4 C 0.6371(4) 0.7828(3) 0.1804(3)
C15_4 C 0.5379(5) 0.7298(4) 0.1342(3)
H9_4 H 0.5283 0.7225 0.0703
C16_4 C 0.4538(5) 0.6881(3) 0.1806(3)
H10_4 H 0.3854 0.6534 0.1478
C17_4 C 0.4667(4) 0.6956(3) 0.2748(3)
C18_4 C 0.5641(5) 0.7504(4) 0.3203(3)
H11_4 H 0.5732 0.7579 0.3841
C19_4 C 0.6475(5) 0.7938(4) 0.2740(3)
H12_4 H 0.7123 0.8314 0.3060
C20_4 C 0.1808(5) 0.5707(3) 0.3304(3)
H13_4 H 0.0931 0.5567 0.3022
C21_4 C 0.2518(5) 0.6233(3) 0.2853(3)
H14_4 H 0.2127 0.6454 0.2274
C22_4 C 0.3820(4) 0.6451(3) 0.3236(3)
C23_4 C 0.4301(4) 0.6126(3) 0.4112(3)
H15_4 H 0.5172 0.6258 0.4414
C24_4 C 0.3521(4) 0.5622(3) 0.4527(3)
H16_2 H 0.3858 0.5432 0.5128
O1_4 O 0.7437(3) 0.9481(2) 0.8892(2)
C1_4 C 0.8162(4) 0.9985(3) 0.8564(3)
H4_4 H 0.5923 0.9693 0.7433
H16_3 H 0.3858 0.9568 0.0128
H7 H 0.7220 0.2741 0.9901
C12 C 0.8822(5) 0.2031(3) 0.9818(3)
H8 H 0.8429 0.1764 0.9263
O4_2 O 0.0690(3) 0.9812(2) 0.10282(19)
C2_3 C 0.2354(4) 0.9645(3) 0.2362(3)
C3_3 C 0.1632(4) 0.9046(3) 0.2748(3)
H1_3 H 0.0800 0.8864 0.2420
C4_3 C 0.2108(5) 0.8707(3) 0.3607(3)
C5_3 C 0.3337(6) 0.8996(5) 0.4077(4)
H2_3 H 0.3672 0.8784 0.4670
C6_3 C 0.4064(4) 0.9581(3) 0.3693(3)
H3_3 H 0.4899 0.9760 0.4019
C7_3 C 0.3584(4) 0.9914(3) 0.2827(3)
C9_3 C 0.0059(5) 0.7847(4) 0.3644(4)
C10_3 C 0.1353(4) 0.8054(3) 0.4016(3)
C11_3 C 0.1898(5) 0.7623(3) 0.4811(3)
H7_2 H 0.2780 0.7741 0.5099
C12_2 C 0.1178(5) 0.7031(3) 0.5182(3)
H8_2 H 0.1571 0.6764 0.5737
O5_2 O 0.9310(3) 0.0188(2) 0.89718(19)
C2_4 C 0.7646(4) 0.0355(3) 0.7638(3)
C3_4 C 0.8368(4) 0.0954(3) 0.7252(3)
H1_4 H 0.9200 0.1136 0.7580
C4_4 C 0.7892(5) 0.1293(3) 0.6393(3)
C5_4 C 0.6663(6) 0.1004(5) 0.5923(4)
H2_4 H 0.6328 0.1216 0.5330
C6_4 C 0.5936(4) 0.0419(3) 0.6307(3)
H3_4 H 0.5101 0.0240 0.5981
C7_4 C 0.6416(4) 0.0086(3) 0.7173(3)
C9_4 C 0.9941(5) 0.2153(4) 0.6356(4)
C10_4 C 0.8647(4) 0.1946(3) 0.5984(3)
C11_4 C 0.8102(5) 0.2377(3) 0.5189(3)
H7_3 H 0.7220 0.2259 0.4901
C12_3 C 0.8822(5) 0.2969(3) 0.4818(3)
H8_3 H 0.8429 0.3236 0.4263
H7_4 H 0.2780 0.7259 0.0099
C12_4 C 0.1178(5) 0.7969(3) 0.0182(3)
H8_4 H 0.1571 0.8236 0.0737
H16_4 H 0.6142 0.0432 0.9872
loop_
_geom_bond_atom_site_label_1
_geom_bond_atom_site_label_2
_geom_bond_site_symmetry_1
_geom_bond_site_symmetry_2
N1 C8 1_555 1_555
C8 H5 1_555 1_555
Cd1 O1 1_555 1_555
O1 C1 1_555 1_555
O2 Cd1 1_555 1_555
O3 Cd1 1_555 1_555
O4 C1 1_555 1_555
N2 C20 1_555 1_555
C1 C2 1_555 1_555
C2 C3 1_555 1_555
C3 H1 1_555 1_555
C4 C3 1_555 1_555
C5 C4 1_555 1_555
H2 C5 1_555 1_555
C6 C5 1_555 1_555
H3 C6 1_555 1_555
C7 C2 1_555 1_555
H4 C7 1_555 1_555
C10 C4 1_555 1_555
C11 C10 1_555 1_555
C13 O2 1_555 1_555
C14 C13 1_555 1_555
C15 C14 1_555 1_555
H9 C15 1_555 1_555
C16 C15 1_555 1_555
H10 C16 1_555 1_555
C17 C16 1_555 1_555
C18 C17 1_555 1_555
H11 C18 1_555 1_555
C19 C14 1_555 1_555
H12 C19 1_555 1_555
C20 H13 1_555 1_555
C21 C20 1_555 1_555
H14 C21 1_555 1_555
C22 C17 1_555 1_555
C23 C22 1_555 1_555
H15 C23 1_555 1_555
C24 N2 1_555 1_555
N3 Cd1 1_555 1_555
N4 Cd1 1_555 1_555
O3 C13 1_555 1_555
C6 C7 1_555 1_555
C9 C10 1_555 1_555
C18 C19 1_555 1_555
C21 C22 1_555 1_555
C23 C24 1_555 1_555
O1_2 C1_2 1_555 1_555
O2_2 Cd3 1_555 1_555
O3_2 Cd3 1_555 1_555
N4 C20_2 1_555 1_555
C13_2 O2_2 1_555 1_555
C14_2 C13_2 1_555 1_555
C15_2 C14_2 1_555 1_555
H9_2 C15_2 1_555 1_555
C16_2 C15_2 1_555 1_555
H10_2 C16_2 1_555 1_555
C17_2 C16_2 1_555 1_555
C18_2 C17_2 1_555 1_555
H11_2 C18_2 1_555 1_555
C19_2 C14_2 1_555 1_555
H12_2 C19_2 1_555 1_555
C20_2 H13_2 1_555 1_555
C21_2 C20_2 1_555 1_555
H14_2 C21_2 1_555 1_555
C22_2 C17_2 1_555 1_555
C23_2 C22_2 1_555 1_555
H15_2 C23_2 1_555 1_555
C24_2 N4 1_555 1_555
H16 C24_2 1_555 1_555
O3_2 C13_2 1_555 1_555
C18_2 C19_2 1_555 1_555
C21_2 C22_2 1_555 1_555
C23_2 C24_2 1_555 1_555
N3 C8_2 1_555 1_555
C8_2 H5_2 1_555 1_555
Cd4 O1_3 1_555 1_555
O1_3 C1_3 1_555 1_555
O2_3 Cd4 1_555 1_555
O3_3 Cd4 1_555 1_555
O5 C1_3 1_555 1_555
N2_2 C20_3 1_555 1_555
C1_3 C2_2 1_555 1_555
C2_2 C3_2 1_555 1_555
C3_2 H1_2 1_555 1_555
C4_2 C3_2 1_555 1_555
C5_2 C4_2 1_555 1_555
H2_2 C5_2 1_555 1_555
C6_2 C5_2 1_555 1_555
H3_2 C6_2 1_555 1_555
C7_2 C2_2 1_555 1_555
H4_3 C7_2 1_555 1_555
C10_2 C4_2 1_555 1_555
C11_2 C10_2 1_555 1_555
C13_3 O2_3 1_555 1_555
C14_3 C13_3 1_555 1_555
C15_3 C14_3 1_555 1_555
H9_3 C15_3 1_555 1_555
C16_3 C15_3 1_555 1_555
H10_3 C16_3 1_555 1_555
C17_3 C16_3 1_555 1_555
C18_3 C17_3 1_555 1_555
H11_3 C18_3 1_555 1_555
C19_3 C14_3 1_555 1_555
H12_3 C19_3 1_555 1_555
C20_3 H13_3 1_555 1_555
C21_3 C20_3 1_555 1_555
H14_3 C21_3 1_555 1_555
C22_3 C17_3 1_555 1_555
C23_3 C22_3 1_555 1_555
H15_3 C23_3 1_555 1_555
C24_3 N2_2 1_555 1_555
N3_2 Cd4 1_555 1_555
N4_2 Cd4 1_555 1_555
O3_3 C13_3 1_555 1_555
C6_2 C7_2 1_555 1_555
C9_2 C10_2 1_555 1_555
C18_3 C19_3 1_555 1_555
C21_3 C22_3 1_555 1_555
C23_3 C24_3 1_555 1_555
N1_2 C8_3 1_555 1_555
C8_3 H5_3 1_555 1_555
N3_2 C8_4 1_555 1_555
C8_4 H5_4 1_555 1_555
O2_4 Cd4_2 1_555 1_555
O3_4 Cd4_2 1_555 1_555
N4_2 C20_4 1_555 1_555
C13_4 O2_4 1_555 1_555
C14_4 C13_4 1_555 1_555
C15_4 C14_4 1_555 1_555
H9_4 C15_4 1_555 1_555
C16_4 C15_4 1_555 1_555
H10_4 C16_4 1_555 1_555
C17_4 C16_4 1_555 1_555
C18_4 C17_4 1_555 1_555
H11_4 C18_4 1_555 1_555
C19_4 C14_4 1_555 1_555
H12_4 C19_4 1_555 1_555
C20_4 H13_4 1_555 1_555
C21_4 C20_4 1_555 1_555
H14_4 C21_4 1_555 1_555
C22_4 C17_4 1_555 1_555
C23_4 C22_4 1_555 1_555
H15_4 C23_4 1_555 1_555
C24_4 N4_2 1_555 1_555
H16_2 C24_4 1_555 1_555
O3_4 C13_4 1_555 1_555
C18_4 C19_4 1_555 1_555
C21_4 C22_4 1_555 1_555
C23_4 C24_4 1_555 1_555
O1_4 C1_4 1_555 1_555
H8 C12 1_555 1_555
C2_3 C3_3 1_555 1_555
C3_3 H1_3 1_555 1_555
C4_3 C3_3 1_555 1_555
C5_3 C4_3 1_555 1_555
H2_3 C5_3 1_555 1_555
C6_3 C5_3 1_555 1_555
H3_3 C6_3 1_555 1_555
C7_3 C2_3 1_555 1_555
C10_3 C4_3 1_555 1_555
C11_3 C10_3 1_555 1_555
H7_2 C11_3 1_555 1_555
H8_2 C12_2 1_555 1_555
C6_3 C7_3 1_555 1_555
C9_3 C10_3 1_555 1_555
C11_3 C12_2 1_555 1_555
C2_4 C3_4 1_555 1_555
C3_4 H1_4 1_555 1_555
C4_4 C3_4 1_555 1_555
C5_4 C4_4 1_555 1_555
H2_4 C5_4 1_555 1_555
C6_4 C5_4 1_555 1_555
H3_4 C6_4 1_555 1_555
C7_4 C2_4 1_555 1_555
C10_4 C4_4 1_555 1_555
C11_4 C10_4 1_555 1_555
H7_3 C11_4 1_555 1_555
H8_3 C12_3 1_555 1_555
C6_4 C7_4 1_555 1_555
C9_4 C10_4 1_555 1_555
C11_4 C12_3 1_555 1_555
H8_4 C12_4 1_555 1_555

#END
