
###############################################################################
#
# This file contains modified crystal structure data generated from the
# MOF subset of the Cambridge Structural Database (CSD) v543 
# hosted by the Cambridge Crystallographic Data Centre (CCDC).
#
# This work is licensed under the Creative Commons
# Attribution-NonCommercial-ShareAlike 4.0 International License.
# To view a copy of this license, visit
# http://creativecommons.org/licenses/by-nc-sa/4.0/
# or send a letter to
# Creative Commons, PO Box 1866, Mountain View, CA 94042, USA.
#
# CIF created using the CSD Python API on 29 September 2022
# The structure has been converted into the P1 space group
# The structure has a 3D framework
# The original CSD entry IHABAW is in the rhombohedral crystal system
# The original CSD entry IHABAW is in a Sohncke space group
# The framework has been calculated to contain at least 10.0% void space
# The void calculation uses a probe of radius 1.32A, grid spacing 0.4
#
###############################################################################

data_IHABAW
_chemical_formula_moiety         '(C432 H252 N36 O76 Zn20 8+)n'
_symmetry_cell_setting           triclinic
_symmetry_space_group_name_H-M   'P 1'
_symmetry_Int_Tables_number      1
_space_group_name_Hall           'P 1'
loop_
_symmetry_equiv_pos_site_id
_symmetry_equiv_pos_as_xyz
1 x,y,z
_cell_length_a                   33.030(4)
_cell_length_b                   33.030(4)
_cell_length_c                   28.099(4)
_cell_angle_alpha                90
_cell_angle_beta                 90
_cell_angle_gamma                120
_cell_volume                     26548.4
loop_
_atom_site_label
_atom_site_type_symbol
_atom_site_fract_x
_atom_site_fract_y
_atom_site_fract_z
O14 O 0.2947(4) 0.6046(2) 0.0552(3)
O15 O 0.0043(7) 0.0878(5) 0.2399(6)
O17 O 0.0789(7) 0.0945(4) 0.2434(6)
N7 N 0.1079(5) 0.3525(3) 0.0740(4)
H43 H 0.1124 0.3761 0.0558
N8 N 0.0747(6) 0.2820(4) 0.1047(5)
H44 H 0.0552 0.2521 0.1096
C73 C 0.2818(6) 0.5678(4) 0.0321(6)
C74 C 0.2532(4) 0.5228(2) 0.0598(4)
C75 C 0.2349(5) 0.4811(3) 0.0346(4)
H45 H 0.2399 0.4815 0.0013
C76 C 0.2091(4) 0.4387(2) 0.0582(4)
H46 H 0.1965 0.4101 0.0410
C77 C 0.2017(5) 0.4380(3) 0.1070(4)
C78 C 0.2199(6) 0.4797(4) 0.1321(3)
H47 H 0.2149 0.4793 0.1655
C79 C 0.2457(5) 0.5221(3) 0.1085(4)
H48 H 0.2583 0.5507 0.1257
C80 C 0.1752(6) 0.3902(3) 0.1302(5)
C81 C 0.1350(5) 0.3542(3) 0.1096(4)
C82 C 0.1129(6) 0.3100(3) 0.1302(5)
C83 C 0.1309(7) 0.3018(3) 0.1714(6)
C84 C 0.1711(8) 0.3378(4) 0.1921(5)
H49 H 0.1834 0.3322 0.2202
C85 C 0.1932(7) 0.3820(4) 0.1714(5)
H50 H 0.2207 0.4066 0.1855
C86 C 0.1091(6) 0.2530(3) 0.1946(7)
C87 C 0.1379(6) 0.2350(4) 0.2066(8)
H51 H 0.1709 0.2542 0.2043
C88 C 0.1183(6) 0.1889(4) 0.2218(7)
H52 H 0.1379 0.1766 0.2300
C89 C 0.0700(7) 0.1609(3) 0.2251(6)
C90 C 0.0413(7) 0.1789(4) 0.2132(6)
H53 H 0.0083 0.1597 0.2154
C91 C 0.0608(6) 0.2249(4) 0.1979(6)
H54 H 0.0412 0.2373 0.1898
C92 C 0.0517(12) 0.1099(6) 0.2422(11)
C93 C 0.0725(8) 0.3085(5) 0.0708(7)
C94 C 0.0361(7) 0.2920(5) 0.0338(6)
C95 C 0.0175(7) 0.3176(5) 0.0168(6)
H55 H 0.0290 0.3485 0.0283
C96 C 0.0146(8) 0.2450(6) 0.0174(8)
H56 H 0.0220 0.2238 0.0326
Zn11 Zn 0.3333 0.6667 0.02709(7)
Zn21 Zn 0.06301(4) 0.03553(6) 0.26681(5)
O16 O 0.2887(6) 0.5642(3) 0.9909(4)
Zn15 Zn 0.30586(5) 0.60366(4) 0.93348(5)
Zn24 Zn 0.03553(6) 0.06301(4) 0.73319(5)
O30 O 0.0878(5) 0.0043(7) 0.7601(6)
Zn8 Zn 0.02747(5) 0.96447(6) 0.73319(5)
O37 O 0.0446(6) 0.9422(5) 0.6758(4)
O42 O 0.0000 1.0000 0.7078(4)
Zn5 Zn 0.96447(6) 0.02747(5) 0.26681(5)
O12 O 0.7113(6) 0.2755(5) 0.0091(4)
Zn12 Zn 0.69414(5) 0.29780(6) 0.06652(5)
O35 O 0.9422(5) 0.0446(6) 0.3242(4)
O41 O 1.0000 0.0000 0.2922(4)
O10 O 0.7053(4) 0.3099(3) 0.9448(3)
O11 O 0.9957(7) 0.0835(5) 0.7601(6)
O13 O 0.9211(7) 0.0156(6) 0.7566(6)
N5 N 0.8921(5) 0.2446(4) 0.9260(4)
H29 H 0.8876 0.2637 0.9442
N6 N 0.9253(6) 0.2073(4) 0.8953(5)
H30 H 0.9448 0.1969 0.8904
C49 C 0.7182(6) 0.2860(5) 0.9679(6)
C50 C 0.7468(4) 0.2696(4) 0.9402(4)
C51 C 0.7651(5) 0.2462(4) 0.9654(4)
H31 H 0.7601 0.2416 0.9987
C52 C 0.7909(4) 0.2296(4) 0.9418(4)
H32 H 0.8035 0.2136 0.9590
C53 C 0.7983(5) 0.2363(4) 0.8930(4)
C54 C 0.7801(6) 0.2598(5) 0.8679(3)
H33 H 0.7851 0.2644 0.8345
C55 C 0.7543(5) 0.2764(4) 0.8915(4)
H34 H 0.7417 0.2924 0.8743
C56 C 0.8248(6) 0.2150(5) 0.8698(5)
C57 C 0.8650(5) 0.2192(4) 0.8904(4)
C58 C 0.8871(6) 0.1971(5) 0.8698(5)
C59 C 0.8691(7) 0.1709(6) 0.8286(6)
C60 C 0.8289(8) 0.1667(7) 0.8079(5)
H35 H 0.8166 0.1488 0.7798
C61 C 0.8068(7) 0.1888(6) 0.8286(5)
H36 H 0.7793 0.1859 0.8145
C62 C 0.8909(6) 0.1439(5) 0.8054(7)
C63 C 0.8621(6) 0.0971(5) 0.7934(8)
H37 H 0.8291 0.0833 0.7957
C64 C 0.8817(6) 0.0706(5) 0.7782(7)
H38 H 0.8621 0.0387 0.7700
C65 C 0.9300(7) 0.0909(6) 0.7749(6)
C66 C 0.9587(7) 0.1376(6) 0.7868(6)
H39 H 0.9917 0.1514 0.7846
C67 C 0.9392(6) 0.1641(4) 0.8021(6)
H40 H 0.9588 0.1961 0.8102
C68 C 0.9483(12) 0.0582(10) 0.7578(11)
C69 C 0.9275(8) 0.2360(6) 0.9292(7)
C70 C 0.9639(7) 0.2559(5) 0.9662(6)
C71 C 0.9825(7) 0.3001(5) 0.9832(6)
H41 H 0.9710 0.3195 0.9717
C72 C 0.9854(8) 0.2304(6) 0.9826(8)
H42 H 0.9780 0.2018 0.9674
Zn9 Zn 0.6667 0.3333 0.97291(7)
Zn2 Zn 0.60366(4) 0.30586(5) 0.06652(5)
O3 O 0.7245(5) 0.4358(3) 0.0091(4)
O5 O 0.6667 0.3333 0.0411(4)
O6 O 0.3954(2) 0.6901(3) 0.0552(3)
O7 O 0.9122(5) 0.9165(5) 0.2399(6)
O9 O 0.9055(4) 0.9844(6) 0.2434(6)
N3 N 0.6475(3) 0.7554(4) 0.0740(4)
H15 H 0.6239 0.7363 0.0558
N4 N 0.7180(4) 0.7927(4) 0.1047(5)
H16 H 0.7479 0.8031 0.1096
C25 C 0.4322(4) 0.7140(5) 0.0321(6)
C26 C 0.4772(2) 0.7304(4) 0.0598(4)
C27 C 0.5189(3) 0.7538(4) 0.0346(4)
H17 H 0.5185 0.7584 0.0013
C28 C 0.5613(2) 0.7704(4) 0.0582(4)
H18 H 0.5899 0.7864 0.0410
C29 C 0.5620(3) 0.7637(4) 0.1070(4)
C30 C 0.5203(4) 0.7402(5) 0.1321(3)
H19 H 0.5207 0.7356 0.1655
C31 C 0.4779(3) 0.7236(4) 0.1085(4)
H20 H 0.4493 0.7076 0.1257
C32 C 0.6098(3) 0.7850(5) 0.1302(5)
C33 C 0.6458(3) 0.7808(4) 0.1096(4)
C34 C 0.6900(3) 0.8029(5) 0.1302(5)
C35 C 0.6982(3) 0.8291(6) 0.1714(6)
C36 C 0.6622(4) 0.8333(7) 0.1921(5)
H21 H 0.6678 0.8512 0.2202
C37 C 0.6180(4) 0.8112(6) 0.1714(5)
H22 H 0.5934 0.8141 0.1855
C38 C 0.7470(3) 0.8561(5) 0.1946(7)
C39 C 0.7650(4) 0.9029(5) 0.2066(8)
H23 H 0.7458 0.9167 0.2043
C40 C 0.8111(4) 0.9294(5) 0.2218(7)
H24 H 0.8234 0.9613 0.2300
C41 C 0.8391(3) 0.9091(6) 0.2251(6)
C42 C 0.8211(4) 0.8624(6) 0.2132(6)
H25 H 0.8403 0.8486 0.2154
C43 C 0.7751(4) 0.8359(4) 0.1979(6)
H26 H 0.7627 0.8039 0.1898
C44 C 0.8901(6) 0.9418(10) 0.2422(11)
C45 C 0.6915(5) 0.7640(6) 0.0708(7)
C46 C 0.7080(5) 0.7441(5) 0.0338(6)
C47 C 0.6824(5) 0.6999(5) 0.0168(6)
H27 H 0.6515 0.6805 0.0283
C48 C 0.7550(6) 0.7696(6) 0.0174(8)
H28 H 0.7762 0.7982 0.0326
Zn4 Zn 0.70220(6) 0.39634(4) 0.06652(5)
Zn18 Zn 0.97253(5) 0.93699(4) 0.26681(5)
O29 O 0.3099(3) 0.7053(4) 0.0552(3)
O31 O 0.5832(5) 0.2455(5) 0.0934(6)
O32 O 0.7545(5) 0.3376(7) 0.0934(6)
O33 O 0.6624(7) 0.4168(5) 0.0934(6)
O34 O 0.5642(3) 0.2887(6) 0.0091(4)
O38 O 0.6511(6) 0.2388(4) 0.0899(6)
O39 O 0.7612(4) 0.4122(7) 0.0899(6)
O40 O 0.5878(7) 0.3489(6) 0.0899(6)
O1 O 0.6901(3) 0.3954(2) 0.9448(3)
O2 O 0.9165(5) 0.9122(5) 0.7601(6)
O4 O 0.9844(6) 0.9055(4) 0.7566(6)
N1 N 0.7554(4) 0.6475(3) 0.9260(4)
H1 H 0.7363 0.6239 0.9442
N2 N 0.7927(4) 0.7180(4) 0.8953(5)
H2 H 0.8031 0.7479 0.8904
C1 C 0.7140(5) 0.4322(4) 0.9679(6)
C2 C 0.7304(4) 0.4772(2) 0.9402(4)
C3 C 0.7538(4) 0.5189(3) 0.9654(4)
H3 H 0.7584 0.5185 0.9987
C4 C 0.7704(4) 0.5613(2) 0.9418(4)
H4 H 0.7864 0.5899 0.9590
C5 C 0.7637(4) 0.5620(3) 0.8930(4)
C6 C 0.7402(5) 0.5203(4) 0.8679(3)
H5 H 0.7356 0.5207 0.8345
C7 C 0.7236(4) 0.4779(3) 0.8915(4)
H6 H 0.7076 0.4493 0.8743
C8 C 0.7850(5) 0.6098(3) 0.8698(5)
C9 C 0.7808(4) 0.6458(3) 0.8904(4)
C10 C 0.8029(5) 0.6900(3) 0.8698(5)
C11 C 0.8291(6) 0.6982(3) 0.8286(6)
C12 C 0.8333(7) 0.6622(4) 0.8079(5)
H7 H 0.8512 0.6678 0.7798
C13 C 0.8112(6) 0.6180(4) 0.8286(5)
H8 H 0.8141 0.5934 0.8145
C14 C 0.8561(5) 0.7470(3) 0.8054(7)
C15 C 0.9029(5) 0.7650(4) 0.7934(8)
H9 H 0.9167 0.7458 0.7957
C16 C 0.9294(5) 0.8111(4) 0.7782(7)
H10 H 0.9613 0.8234 0.7700
C17 C 0.9091(6) 0.8391(3) 0.7749(6)
C18 C 0.8624(6) 0.8211(4) 0.7868(6)
H11 H 0.8486 0.8403 0.7846
C19 C 0.8359(4) 0.7751(4) 0.8021(6)
H12 H 0.8039 0.7627 0.8102
C20 C 0.9418(10) 0.8901(6) 0.7578(11)
C21 C 0.7640(6) 0.6915(5) 0.9292(7)
C22 C 0.7441(5) 0.7080(5) 0.9662(6)
C23 C 0.6999(5) 0.6824(5) 0.9832(6)
H13 H 0.6805 0.6515 0.9717
C24 C 0.7696(6) 0.7550(6) 0.9826(8)
H14 H 0.7982 0.7762 0.9674
O8 O 0.4358(3) 0.7245(5) 0.9909(4)
O26 O 0.3333 0.6667 0.9589(4)
Zn7 Zn 0.93699(4) 0.97253(5) 0.73319(5)
Zn16 Zn 0.29780(6) 0.69414(5) 0.93348(5)
Zn17 Zn 0.39634(4) 0.70220(6) 0.93348(5)
O27 O 0.6046(2) 0.2947(4) 0.9448(3)
O36 O 0.8975(3) 0.9554(6) 0.6758(4)
O4_2 O 0.0945(4) 0.0789(7) 0.7566(6)
N1_2 N 0.3525(3) 0.1079(5) 0.9260(4)
H1_2 H 0.3761 0.1124 0.9442
N2_2 N 0.2820(4) 0.0747(6) 0.8953(5)
H2_2 H 0.2521 0.0552 0.8904
C1_2 C 0.5678(4) 0.2818(6) 0.9679(6)
C2_2 C 0.5228(2) 0.2532(4) 0.9402(4)
C3_2 C 0.4811(3) 0.2349(5) 0.9654(4)
H3_2 H 0.4815 0.2399 0.9987
C4_2 C 0.4387(2) 0.2091(4) 0.9418(4)
H4_2 H 0.4101 0.1965 0.9590
C5_2 C 0.4380(3) 0.2017(5) 0.8930(4)
C6_2 C 0.4797(4) 0.2199(6) 0.8679(3)
H5_2 H 0.4793 0.2149 0.8345
C7_2 C 0.5221(3) 0.2457(5) 0.8915(4)
H6_2 H 0.5507 0.2583 0.8743
C8_2 C 0.3902(3) 0.1752(6) 0.8698(5)
C9_2 C 0.3542(3) 0.1350(5) 0.8904(4)
C10_2 C 0.3100(3) 0.1129(6) 0.8698(5)
C11_2 C 0.3018(3) 0.1309(7) 0.8286(6)
C12_2 C 0.3378(4) 0.1711(8) 0.8079(5)
H7_2 H 0.3322 0.1834 0.7798
C13_2 C 0.3820(4) 0.1932(7) 0.8286(5)
H8_2 H 0.4066 0.2207 0.8145
C14_2 C 0.2530(3) 0.1091(6) 0.8054(7)
C15_2 C 0.2350(4) 0.1379(6) 0.7934(8)
H9_2 H 0.2542 0.1709 0.7957
C16_2 C 0.1889(4) 0.1183(6) 0.7782(7)
H10_2 H 0.1766 0.1379 0.7700
C17_2 C 0.1609(3) 0.0700(7) 0.7749(6)
C18_2 C 0.1789(4) 0.0413(7) 0.7868(6)
H11_2 H 0.1597 0.0083 0.7846
C19_2 C 0.2249(4) 0.0608(6) 0.8021(6)
H12_2 H 0.2373 0.0412 0.8102
C20_2 C 0.1099(6) 0.0517(12) 0.7578(11)
C21_2 C 0.3085(5) 0.0725(8) 0.9292(7)
C22_2 C 0.2920(5) 0.0361(7) 0.9662(6)
C23_2 C 0.3176(5) 0.0175(7) 0.9832(6)
H13_2 H 0.3485 0.0290 0.9717
C24_2 C 0.2450(6) 0.0146(8) 0.9826(8)
H14_2 H 0.2238 0.0220 0.9674
O37_2 O 0.0578(5) 0.1025(8) 0.6758(4)
O42_2 O 0.0000 0.0001 0.7078(4)
O7_2 O 0.0835(5) 0.9957(7) 0.2399(6)
O9_2 O 0.0156(6) 0.9211(7) 0.2434(6)
N3_2 N 0.2446(4) 0.8921(5) 0.0740(4)
H15_2 H 0.2637 0.8876 0.0558
N4_2 N 0.2073(4) 0.9253(6) 0.1047(5)
H16_2 H 0.1969 0.9448 0.1096
C25_2 C 0.2860(5) 0.7182(6) 0.0321(6)
C26_2 C 0.2696(4) 0.7468(4) 0.0598(4)
C27_2 C 0.2462(4) 0.7651(5) 0.0346(4)
H17_2 H 0.2416 0.7601 0.0013
C28_2 C 0.2296(4) 0.7909(4) 0.0582(4)
H18_2 H 0.2136 0.8035 0.0410
C29_2 C 0.2363(4) 0.7983(5) 0.1070(4)
C30_2 C 0.2598(5) 0.7801(6) 0.1321(3)
H19_2 H 0.2644 0.7851 0.1655
C31_2 C 0.2764(4) 0.7543(5) 0.1085(4)
H20_2 H 0.2924 0.7417 0.1257
C32_2 C 0.2150(5) 0.8248(6) 0.1302(5)
C33_2 C 0.2192(4) 0.8650(5) 0.1096(4)
C34_2 C 0.1971(5) 0.8871(6) 0.1302(5)
C35_2 C 0.1709(6) 0.8691(7) 0.1714(6)
C36_2 C 0.1667(7) 0.8289(8) 0.1921(5)
H21_2 H 0.1488 0.8166 0.2202
C37_2 C 0.1888(6) 0.8068(7) 0.1714(5)
H22_2 H 0.1859 0.7793 0.1855
C38_2 C 0.1439(5) 0.8909(6) 0.1946(7)
C39_2 C 0.0971(5) 0.8621(6) 0.2066(8)
H23_2 H 0.0833 0.8291 0.2043
C40_2 C 0.0706(5) 0.8817(6) 0.2218(7)
H24_2 H 0.0387 0.8621 0.2300
C41_2 C 0.0909(6) 0.9300(7) 0.2251(6)
C42_2 C 0.1376(6) 0.9587(7) 0.2132(6)
H25_2 H 0.1514 0.9917 0.2154
C43_2 C 0.1641(4) 0.9392(6) 0.1979(6)
H26_2 H 0.1961 0.9588 0.1898
C44_2 C 0.0582(10) 0.9483(12) 0.2422(11)
C45_2 C 0.2360(6) 0.9275(8) 0.0708(7)
C46_2 C 0.2559(5) 0.9639(7) 0.0338(6)
C47_2 C 0.3001(5) 0.9825(7) 0.0168(6)
H27_2 H 0.3195 0.9710 0.0283
C48_2 C 0.2304(6) 0.9854(8) 0.0174(8)
H28_2 H 0.2018 0.9780 0.0326
O8_2 O 0.2755(5) 0.7113(6) 0.9909(4)
O35_2 O 0.9554(6) 0.8975(8) 0.3242(4)
O41_2 O 1.0000 0.9999 0.2922(4)
O35_3 O 0.1025(8) 0.0578(5) 0.3242(4)
O41_3 O 0.0001 0.0000 0.2922(4)
O42_3 O 0.9999 1.0000 0.7078(4)
O31_2 O 0.2455(5) 0.5832(5) 0.9066(6)
O32_2 O 0.3376(7) 0.7545(5) 0.9066(6)
O33_2 O 0.4168(5) 0.6624(7) 0.9066(6)
O38_2 O 0.2388(4) 0.6511(6) 0.9101(6)
O39_2 O 0.4122(7) 0.7612(4) 0.9101(6)
O40_2 O 0.3489(6) 0.5878(7) 0.9101(6)
Zn11_2 Zn 1.0000 0.0000 0.36042(7)
N2_3 N 0.4594(4) 0.0513(4) 0.2286(5)
H2_3 H 0.4698 0.0812 0.2237
C10_3 C 0.4696(5) 0.0233(3) 0.2031(5)
C11_3 C 0.4958(6) 0.0315(3) 0.1619(6)
H7_3 H 0.5179 0.0011 0.1131
C14_3 C 0.5228(5) 0.0803(3) 0.1387(7)
C15_3 C 0.5696(5) 0.0983(4) 0.1267(8)
H9_3 H 0.5834 0.0791 0.1290
C16_3 C 0.5961(5) 0.1444(4) 0.1115(7)
H10_3 H 0.6280 0.1567 0.1033
C17_3 C 0.5758(6) 0.1724(3) 0.1082(6)
C18_3 C 0.5291(6) 0.1544(4) 0.1201(6)
H11_3 H 0.5153 0.1736 0.1179
C19_3 C 0.5026(4) 0.1084(4) 0.1354(6)
H12_3 H 0.4706 0.0960 0.1435
C20_3 C 0.6085(10) 0.2234(6) 0.0911(11)
C21_3 C 0.4307(6) 0.0248(5) 0.2625(7)
C22_3 C 0.4108(5) 0.0413(5) 0.2995(6)
C23_3 C 0.3666(5) 0.0157(5) 0.3165(6)
C24_3 C 0.4363(6) 0.0883(6) 0.3159(8)
H14_3 H 0.4649 0.1095 0.3007
O6_2 O 0.0621(2) 0.0234(3) 0.3885(3)
O7_3 O 0.5789(5) 0.2498(5) 0.5732(6)
O9_3 O 0.5722(4) 0.3177(6) 0.5767(6)
N3_3 N 0.3142(3) 0.0887(4) 0.4073(4)
H15_3 H 0.2906 0.0696 0.3891
N4_3 N 0.3847(4) 0.1260(4) 0.4380(5)
H16_3 H 0.4146 0.1364 0.4429
C25_3 C 0.0989(4) 0.0473(5) 0.3654(6)
C26_3 C 0.1439(2) 0.0637(4) 0.3931(4)
C27_3 C 0.1856(3) 0.0871(4) 0.3679(4)
H17_3 H 0.1852 0.0917 0.3346
C28_3 C 0.2280(2) 0.1037(4) 0.3915(4)
H18_3 H 0.2566 0.1197 0.3743
C29_3 C 0.2287(3) 0.0970(4) 0.4403(4)
C30_3 C 0.1870(4) 0.0735(5) 0.4654(3)
H19_3 H 0.1874 0.0689 0.4988
C31_3 C 0.1446(3) 0.0569(4) 0.4418(4)
H20_3 H 0.1160 0.0409 0.4590
C32_3 C 0.2765(3) 0.1183(5) 0.4635(5)
C33_3 C 0.3125(3) 0.1141(4) 0.4429(4)
C34_3 C 0.3567(3) 0.1362(5) 0.4635(5)
C35_3 C 0.3649(3) 0.1624(6) 0.5047(6)
C36_3 C 0.3289(4) 0.1666(7) 0.5254(5)
H21_3 H 0.3345 0.1845 0.5535
C37_3 C 0.2847(4) 0.1445(6) 0.5047(5)
H22_3 H 0.2601 0.1474 0.5188
C38_3 C 0.4137(3) 0.1894(5) 0.5279(7)
C39_3 C 0.4317(4) 0.2362(5) 0.5399(8)
H23_3 H 0.4125 0.2500 0.5376
C40_3 C 0.4778(4) 0.2627(5) 0.5551(7)
H24_3 H 0.4901 0.2946 0.5633
C41_3 C 0.5058(3) 0.2424(6) 0.5584(6)
C42_3 C 0.4878(4) 0.1957(6) 0.5465(6)
H25_3 H 0.5070 0.1819 0.5487
C43_3 C 0.4418(4) 0.1692(4) 0.5312(6)
H26_3 H 0.4294 0.1372 0.5231
C44_3 C 0.5568(6) 0.2751(10) 0.5755(11)
C45_3 C 0.3582(5) 0.0973(6) 0.4041(7)
C46_3 C 0.3747(5) 0.0774(5) 0.3671(6)
C47_3 C 0.3491(5) 0.0332(5) 0.3501(6)
H27_3 H 0.3182 0.0138 0.3616
C48_3 C 0.4217(6) 0.1029(6) 0.3507(8)
H28_3 H 0.4429 0.1315 0.3659
Zn5_2 Zn 0.63113(6) 0.36081(5) 0.60015(5)
O10_2 O 0.3720(4) 0.6432(3) 0.2781(3)
O12_2 O 0.3780(6) 0.6088(5) 0.3424(4)
N5_2 N 0.5588(5) 0.5779(4) 0.2593(4)
H29_2 H 0.5543 0.5970 0.2775
N6_2 N 0.5920(6) 0.5406(4) 0.2286(5)
H30_2 H 0.6115 0.5302 0.2237
C49_2 C 0.3849(6) 0.6193(5) 0.3012(6)
C50_2 C 0.4135(4) 0.6029(4) 0.2735(4)
C51_2 C 0.4318(5) 0.5795(4) 0.2987(4)
H31_2 H 0.4268 0.5749 0.3320
C52_2 C 0.4576(4) 0.5629(4) 0.2751(4)
H32_2 H 0.4702 0.5469 0.2923
C53_2 C 0.4650(5) 0.5696(4) 0.2263(4)
C54_2 C 0.4468(6) 0.5931(5) 0.2012(3)
H33_2 H 0.4518 0.5977 0.1678
C55_2 C 0.4210(5) 0.6097(4) 0.2248(4)
H34_2 H 0.4084 0.6257 0.2076
C56_2 C 0.4915(6) 0.5483(5) 0.2031(5)
C57_2 C 0.5317(5) 0.5525(4) 0.2237(4)
C58_2 C 0.5538(6) 0.5304(5) 0.2031(5)
C59_2 C 0.5358(7) 0.5042(6) 0.1619(6)
C60_2 C 0.4956(8) 0.5000(7) 0.1412(5)
H35_2 H 0.4833 0.4821 0.1131
C61_2 C 0.4735(7) 0.5221(6) 0.1619(5)
H36_2 H 0.4460 0.5192 0.1478
C62_2 C 0.5576(6) 0.4772(5) 0.1387(7)
C63_2 C 0.5288(6) 0.4304(5) 0.1267(8)
H37_2 H 0.4958 0.4166 0.1290
C64_2 C 0.5484(6) 0.4039(5) 0.1115(7)
H38_2 H 0.5288 0.3720 0.1033
C65_2 C 0.5967(7) 0.4242(6) 0.1082(6)
C66_2 C 0.6254(7) 0.4709(6) 0.1201(6)
H39_2 H 0.6584 0.4847 0.1179
C67_2 C 0.6059(6) 0.4974(4) 0.1354(6)
H40_2 H 0.6255 0.5294 0.1435
C68_2 C 0.6150(12) 0.3915(10) 0.0911(11)
C69_2 C 0.5942(8) 0.5693(6) 0.2625(7)
C70_2 C 0.6306(7) 0.5892(5) 0.2995(6)
C71_2 C 0.6492(7) 0.6334(5) 0.3165(6)
H41_2 H 0.6377 0.6528 0.3050
C72_2 C 0.6521(8) 0.5637(6) 0.3159(8)
H42_2 H 0.6447 0.5351 0.3007
O14_2 O 0.9614(4) 0.9379(2) 0.3885(3)
O15_2 O 0.6710(7) 0.4211(5) 0.5732(6)
O17_2 O 0.7456(7) 0.4278(4) 0.5767(6)
N7_2 N 0.7746(5) 0.6858(3) 0.4073(4)
H43_2 H 0.7791 0.7094 0.3891
N8_2 N 0.7414(6) 0.6153(4) 0.4380(5)
H44_2 H 0.7219 0.5854 0.4429
C73_2 C 0.9485(6) 0.9011(4) 0.3654(6)
C74_2 C 0.9199(4) 0.8561(2) 0.3931(4)
C75_2 C 0.9016(5) 0.8144(3) 0.3679(4)
H45_2 H 0.9066 0.8148 0.3346
C76_2 C 0.8758(4) 0.7720(2) 0.3915(4)
H46_2 H 0.8632 0.7434 0.3743
C77_2 C 0.8684(5) 0.7713(3) 0.4403(4)
C78_2 C 0.8866(6) 0.8130(4) 0.4654(3)
H47_2 H 0.8816 0.8126 0.4988
C79_2 C 0.9124(5) 0.8554(3) 0.4418(4)
H48_2 H 0.9250 0.8840 0.4590
C80_2 C 0.8419(6) 0.7235(3) 0.4635(5)
C81_2 C 0.8017(5) 0.6875(3) 0.4429(4)
C82_2 C 0.7796(6) 0.6433(3) 0.4635(5)
C83_2 C 0.7976(7) 0.6351(3) 0.5047(6)
C84_2 C 0.8378(8) 0.6711(4) 0.5254(5)
H49_2 H 0.8501 0.6655 0.5535
C85_2 C 0.8599(7) 0.7153(4) 0.5047(5)
H50_2 H 0.8874 0.7399 0.5188
C86_2 C 0.7758(6) 0.5863(3) 0.5279(7)
C87_2 C 0.8046(6) 0.5683(4) 0.5399(8)
H51_2 H 0.8376 0.5875 0.5376
C88_2 C 0.7850(6) 0.5222(4) 0.5551(7)
H52_2 H 0.8046 0.5099 0.5633
C89_2 C 0.7367(7) 0.4942(3) 0.5584(6)
C90_2 C 0.7080(7) 0.5122(4) 0.5465(6)
H53_2 H 0.6750 0.4930 0.5487
C91_2 C 0.7275(6) 0.5582(4) 0.5312(6)
H54_2 H 0.7079 0.5706 0.5231
C92_2 C 0.7184(12) 0.4432(6) 0.5755(11)
C93_2 C 0.7392(8) 0.6418(5) 0.4041(7)
C94_2 C 0.7028(7) 0.6253(5) 0.3671(6)
C95_2 C 0.6842(7) 0.6509(5) 0.3501(6)
H55_2 H 0.6957 0.6818 0.3616
C96_2 C 0.6813(8) 0.5783(6) 0.3507(8)
H56_2 H 0.6887 0.5571 0.3659
Zn9_2 Zn 0.3334 0.6666 0.30624(7)
Zn12_2 Zn 0.36081(5) 0.63113(6) 0.39985(5)
Zn18_2 Zn 0.63919(5) 0.27033(4) 0.60015(5)
Zn21_2 Zn 0.72967(4) 0.36887(6) 0.60015(5)
O35_4 O 0.6088(5) 0.3780(6) 0.6576(4)
O41_4 O 0.6666 0.3334 0.6256(4)
Zn2_2 Zn 0.27033(4) 0.63919(5) 0.39985(5)
O1_2 O 0.3568(3) 0.7287(2) 0.2781(3)
O3_2 O 0.3912(5) 0.7691(3) 0.3424(4)
O5_2 O 0.3334 0.6666 0.3744(4)
N1_3 N 0.4221(4) 0.9808(3) 0.2593(4)
H1_3 H 0.4030 0.9572 0.2775
C1_3 C 0.3807(5) 0.7655(4) 0.3012(6)
C2_3 C 0.3971(4) 0.8105(2) 0.2735(4)
C3_3 C 0.4205(4) 0.8522(3) 0.2987(4)
H3_3 H 0.4251 0.8518 0.3320
C4_3 C 0.4371(4) 0.8946(2) 0.2751(4)
H4_3 H 0.4531 0.9232 0.2923
C5_3 C 0.4304(4) 0.8953(3) 0.2263(4)
C6_3 C 0.4069(5) 0.8536(4) 0.2012(3)
H5_3 H 0.4023 0.8540 0.1678
C7_3 C 0.3903(4) 0.8112(3) 0.2248(4)
H6_3 H 0.3743 0.7826 0.2076
C8_3 C 0.4517(5) 0.9431(3) 0.2031(5)
C9_3 C 0.4475(4) 0.9791(3) 0.2237(4)
C12_3 C 0.5000(7) 0.9955(4) 0.1412(5)
C13_3 C 0.4779(6) 0.9513(4) 0.1619(5)
H8_3 H 0.4808 0.9267 0.1478
H13_3 H 0.3472 0.9848 0.3050
Zn4_2 Zn 0.36887(6) 0.72967(4) 0.39985(5)
O27_2 O 0.2713(2) 0.6280(4) 0.2781(3)
O31_3 O 0.2498(5) 0.5789(5) 0.4268(6)
O32_3 O 0.4211(5) 0.6710(7) 0.4268(6)
O33_3 O 0.3290(7) 0.7502(5) 0.4268(6)
O34_2 O 0.2309(3) 0.6220(6) 0.3424(4)
O38_3 O 0.3177(6) 0.5722(4) 0.4233(6)
O39_3 O 0.4278(4) 0.7456(7) 0.4233(6)
O40_3 O 0.2544(7) 0.6823(6) 0.4233(6)
O29_2 O 0.9766(3) 0.0386(4) 0.3885(3)
N1_4 N 0.0192(3) 0.4412(5) 0.2593(4)
H1_4 H 0.0428 0.4457 0.2775
C1_4 C 0.2345(4) 0.6151(6) 0.3012(6)
C2_4 C 0.1895(2) 0.5865(4) 0.2735(4)
C3_4 C 0.1478(3) 0.5682(5) 0.2987(4)
H3_4 H 0.1482 0.5732 0.3320
C4_4 C 0.1054(2) 0.5424(4) 0.2751(4)
H4_4 H 0.0768 0.5298 0.2923
C5_4 C 0.1047(3) 0.5350(5) 0.2263(4)
C6_4 C 0.1464(4) 0.5532(6) 0.2012(3)
H5_4 H 0.1460 0.5482 0.1678
C7_4 C 0.1888(3) 0.5790(5) 0.2248(4)
H6_4 H 0.2174 0.5916 0.2076
C8_4 C 0.0569(3) 0.5085(6) 0.2031(5)
C9_4 C 0.0209(3) 0.4683(5) 0.2237(4)
C12_4 C 0.0045(4) 0.5044(8) 0.1412(5)
C13_4 C 0.0487(4) 0.5265(7) 0.1619(5)
H8_4 H 0.0733 0.5540 0.1478
H13_4 H 0.0152 0.3623 0.3050
N2_4 N 0.9487(4) 0.4080(6) 0.2286(5)
H2_4 H 0.9188 0.3885 0.2237
C10_4 C 0.9767(3) 0.4462(6) 0.2031(5)
C11_4 C 0.9685(3) 0.4642(7) 0.1619(6)
H7_4 H 0.9989 0.5167 0.1131
C14_4 C 0.9197(3) 0.4424(6) 0.1387(7)
C15_4 C 0.9017(4) 0.4712(6) 0.1267(8)
H9_4 H 0.9209 0.5042 0.1290
C16_4 C 0.8556(4) 0.4516(6) 0.1115(7)
H10_4 H 0.8433 0.4712 0.1033
C17_4 C 0.8276(3) 0.4033(7) 0.1082(6)
C18_4 C 0.8456(4) 0.3746(7) 0.1201(6)
H11_4 H 0.8264 0.3416 0.1179
C19_4 C 0.8916(4) 0.3941(6) 0.1354(6)
H12_4 H 0.9040 0.3745 0.1435
C20_4 C 0.7766(6) 0.3850(12) 0.0911(11)
C21_4 C 0.9752(5) 0.4058(8) 0.2625(7)
C22_4 C 0.9587(5) 0.3694(7) 0.2995(6)
C23_4 C 0.9843(5) 0.3508(7) 0.3165(6)
C24_4 C 0.9117(6) 0.3479(8) 0.3159(8)
H14_4 H 0.8905 0.3553 0.3007
O7_4 O 0.7502(5) 0.3290(7) 0.5732(6)
O9_4 O 0.6823(6) 0.2544(7) 0.5767(6)
N3_4 N 0.9113(4) 0.2254(5) 0.4073(4)
H15_4 H 0.9304 0.2209 0.3891
N4_4 N 0.8740(4) 0.2586(6) 0.4380(5)
H16_4 H 0.8636 0.2781 0.4429
C25_4 C 0.9527(5) 0.0515(6) 0.3654(6)
C26_4 C 0.9363(4) 0.0801(4) 0.3931(4)
C27_4 C 0.9129(4) 0.0984(5) 0.3679(4)
H17_4 H 0.9083 0.0934 0.3346
C28_4 C 0.8963(4) 0.1242(4) 0.3915(4)
H18_4 H 0.8803 0.1368 0.3743
C29_4 C 0.9030(4) 0.1316(5) 0.4403(4)
C30_4 C 0.9265(5) 0.1134(6) 0.4654(3)
H19_4 H 0.9311 0.1184 0.4988
C31_4 C 0.9431(4) 0.0876(5) 0.4418(4)
H20_4 H 0.9591 0.0750 0.4590
C32_4 C 0.8817(5) 0.1581(6) 0.4635(5)
C33_4 C 0.8859(4) 0.1983(5) 0.4429(4)
C34_4 C 0.8638(5) 0.2204(6) 0.4635(5)
C35_4 C 0.8376(6) 0.2024(7) 0.5047(6)
C36_4 C 0.8334(7) 0.1622(8) 0.5254(5)
H21_4 H 0.8155 0.1499 0.5535
C37_4 C 0.8555(6) 0.1401(7) 0.5047(5)
H22_4 H 0.8526 0.1126 0.5188
C38_4 C 0.8106(5) 0.2242(6) 0.5279(7)
C39_4 C 0.7638(5) 0.1954(6) 0.5399(8)
H23_4 H 0.7500 0.1624 0.5376
C40_4 C 0.7373(5) 0.2150(6) 0.5551(7)
H24_4 H 0.7054 0.1954 0.5633
C41_4 C 0.7576(6) 0.2633(7) 0.5584(6)
C42_4 C 0.8043(6) 0.2920(7) 0.5465(6)
H25_4 H 0.8181 0.3250 0.5487
C43_4 C 0.8308(4) 0.2725(6) 0.5312(6)
H26_4 H 0.8628 0.2921 0.5231
C44_4 C 0.7249(10) 0.2816(12) 0.5755(11)
C45_4 C 0.9027(6) 0.2608(8) 0.4041(7)
C46_4 C 0.9226(5) 0.2972(7) 0.3671(6)
C47_4 C 0.9668(5) 0.3158(7) 0.3501(6)
H27_4 H 0.9862 0.3043 0.3616
C48_4 C 0.8971(6) 0.3187(8) 0.3507(8)
H28_4 H 0.8685 0.3113 0.3659
Zn10 Zn 1.0000 0.9999 0.36042(7)
O35_5 O 0.6220(6) 0.2309(8) 0.6576(4)
Zn6 Zn 0.0001 0.0000 0.36042(7)
O35_6 O 0.7691(8) 0.3912(5) 0.6576(4)
O14_3 O 0.6280(4) 0.2713(2) 0.7219(3)
N7_3 N 0.4412(5) 0.0192(3) 0.7407(4)
H43_3 H 0.4457 0.0428 0.7225
C73_3 C 0.6151(6) 0.2345(4) 0.6988(6)
C74_3 C 0.5865(4) 0.1895(2) 0.7265(4)
C75_3 C 0.5682(5) 0.1478(3) 0.7013(4)
H45_3 H 0.5732 0.1482 0.6680
C76_3 C 0.5424(4) 0.1054(2) 0.7249(4)
H46_3 H 0.5298 0.0768 0.7077
C77_3 C 0.5350(5) 0.1047(3) 0.7737(4)
C78_3 C 0.5532(6) 0.1464(4) 0.7988(3)
H47_3 H 0.5482 0.1460 0.8322
C79_3 C 0.5790(5) 0.1888(3) 0.7752(4)
H48_3 H 0.5916 0.2174 0.7924
C80_3 C 0.5085(6) 0.0569(3) 0.7969(5)
C81_3 C 0.4683(5) 0.0209(3) 0.7763(4)
C84_3 C 0.5044(8) 0.0045(4) 0.8588(5)
C85_3 C 0.5265(7) 0.0487(4) 0.8381(5)
H50_3 H 0.5540 0.0733 0.8522
H55_3 H 0.3623 0.0152 0.6950
Zn11_3 Zn 0.6666 0.3334 0.69376(7)
O1_3 O 0.0234(3) 0.0621(2) 0.6115(3)
N1_5 N 0.0887(4) 0.3142(3) 0.5927(4)
H1_5 H 0.0696 0.2906 0.6109
N2_5 N 0.1260(4) 0.3847(4) 0.5620(5)
H2_5 H 0.1364 0.4146 0.5571
C1_5 C 0.0473(5) 0.0989(4) 0.6346(6)
C2_5 C 0.0637(4) 0.1439(2) 0.6069(4)
C3_5 C 0.0871(4) 0.1856(3) 0.6321(4)
H3_5 H 0.0917 0.1852 0.6654
C4_5 C 0.1037(4) 0.2280(2) 0.6085(4)
H4_5 H 0.1197 0.2566 0.6257
C5_5 C 0.0970(4) 0.2287(3) 0.5597(4)
C6_5 C 0.0735(5) 0.1870(4) 0.5346(3)
H5_5 H 0.0689 0.1874 0.5012
C7_5 C 0.0569(4) 0.1446(3) 0.5582(4)
H6_5 H 0.0409 0.1160 0.5410
C8_5 C 0.1183(5) 0.2765(3) 0.5365(5)
C9_5 C 0.1141(4) 0.3125(3) 0.5571(4)
C10_5 C 0.1362(5) 0.3567(3) 0.5365(5)
C11_5 C 0.1624(6) 0.3649(3) 0.4953(6)
C12_5 C 0.1666(7) 0.3289(4) 0.4746(5)
H7_5 H 0.1845 0.3345 0.4465
C13_5 C 0.1445(6) 0.2847(4) 0.4953(5)
H8_5 H 0.1474 0.2601 0.4812
C14_5 C 0.1894(5) 0.4137(3) 0.4721(7)
C15_5 C 0.2362(5) 0.4317(4) 0.4601(8)
H9_5 H 0.2500 0.4125 0.4624
C16_5 C 0.2627(5) 0.4778(4) 0.4449(7)
H10_5 H 0.2946 0.4901 0.4367
C17_5 C 0.2424(6) 0.5058(3) 0.4416(6)
C18_5 C 0.1957(6) 0.4878(4) 0.4535(6)
H11_5 H 0.1819 0.5070 0.4513
C19_5 C 0.1692(4) 0.4418(4) 0.4688(6)
H12_5 H 0.1372 0.4294 0.4769
C20_5 C 0.2751(10) 0.5568(6) 0.4245(11)
C21_5 C 0.0973(6) 0.3582(5) 0.5959(7)
C22_5 C 0.0774(5) 0.3747(5) 0.6329(6)
C23_5 C 0.0332(5) 0.3491(5) 0.6499(6)
H13_5 H 0.0138 0.3182 0.6384
C24_5 C 0.1029(6) 0.4217(6) 0.6493(8)
H14_5 H 0.1315 0.4429 0.6341
N4_5 N 0.0513(4) 0.4594(4) 0.7714(5)
H16_5 H 0.0812 0.4698 0.7763
C34_5 C 0.0233(3) 0.4696(5) 0.7969(5)
C35_5 C 0.0315(3) 0.4958(6) 0.8381(6)
H21_5 H 0.0011 0.5179 0.8869
C38_5 C 0.0803(3) 0.5228(5) 0.8613(7)
C39_5 C 0.0983(4) 0.5696(5) 0.8733(8)
H23_5 H 0.0791 0.5834 0.8710
C40_5 C 0.1444(4) 0.5961(5) 0.8885(7)
H24_5 H 0.1567 0.6280 0.8967
C41_5 C 0.1724(3) 0.5758(6) 0.8918(6)
C42_5 C 0.1544(4) 0.5291(6) 0.8799(6)
H25_5 H 0.1736 0.5153 0.8821
C43_5 C 0.1084(4) 0.5026(4) 0.8646(6)
H26_5 H 0.0960 0.4706 0.8565
C44_5 C 0.2234(6) 0.6085(10) 0.9089(11)
C45_5 C 0.0248(5) 0.4307(6) 0.7375(7)
C46_5 C 0.0413(5) 0.4108(5) 0.7005(6)
C47_5 C 0.0157(5) 0.3666(5) 0.6835(6)
C48_5 C 0.0883(6) 0.4363(6) 0.6841(8)
H28_5 H 0.1095 0.4649 0.6993
O10_3 O 0.0386(4) 0.9766(3) 0.6115(3)
N5_3 N 0.2254(5) 0.9113(4) 0.5927(4)
H29_3 H 0.2209 0.9304 0.6109
N6_3 N 0.2586(6) 0.8740(4) 0.5620(5)
H30_3 H 0.2781 0.8636 0.5571
C49_3 C 0.0515(6) 0.9527(5) 0.6346(6)
C50_3 C 0.0801(4) 0.9363(4) 0.6069(4)
C51_3 C 0.0984(5) 0.9129(4) 0.6321(4)
H31_3 H 0.0934 0.9083 0.6654
C52_3 C 0.1242(4) 0.8963(4) 0.6085(4)
H32_3 H 0.1368 0.8803 0.6257
C53_3 C 0.1316(5) 0.9030(4) 0.5597(4)
C54_3 C 0.1134(6) 0.9265(5) 0.5346(3)
H33_3 H 0.1184 0.9311 0.5012
C55_3 C 0.0876(5) 0.9431(4) 0.5582(4)
H34_3 H 0.0750 0.9591 0.5410
C56_3 C 0.1581(6) 0.8817(5) 0.5365(5)
C57_3 C 0.1983(5) 0.8859(4) 0.5571(4)
C58_3 C 0.2204(6) 0.8638(5) 0.5365(5)
C59_3 C 0.2024(7) 0.8376(6) 0.4953(6)
C60_3 C 0.1622(8) 0.8334(7) 0.4746(5)
H35_3 H 0.1499 0.8155 0.4465
C61_3 C 0.1401(7) 0.8555(6) 0.4953(5)
H36_3 H 0.1126 0.8526 0.4812
C62_3 C 0.2242(6) 0.8106(5) 0.4721(7)
C63_3 C 0.1954(6) 0.7638(5) 0.4601(8)
H37_3 H 0.1624 0.7500 0.4624
C64_3 C 0.2150(6) 0.7373(5) 0.4449(7)
H38_3 H 0.1954 0.7054 0.4367
C65_3 C 0.2633(7) 0.7576(6) 0.4416(6)
C66_3 C 0.2920(7) 0.8043(6) 0.4535(6)
H39_3 H 0.3250 0.8181 0.4513
C67_3 C 0.2725(6) 0.8308(4) 0.4688(6)
H40_3 H 0.2921 0.8628 0.4769
C68_3 C 0.2816(12) 0.7249(10) 0.4245(11)
C69_3 C 0.2608(8) 0.9027(6) 0.5959(7)
C70_3 C 0.2972(7) 0.9226(5) 0.6329(6)
C71_3 C 0.3158(7) 0.9668(5) 0.6499(6)
H41_3 H 0.3043 0.9862 0.6384
C72_3 C 0.3187(8) 0.8971(6) 0.6493(8)
H42_3 H 0.3113 0.8685 0.6341
N8_3 N 0.4080(6) 0.9487(4) 0.7714(5)
H44_3 H 0.3885 0.9188 0.7763
C82_3 C 0.4462(6) 0.9767(3) 0.7969(5)
C83_3 C 0.4642(7) 0.9685(3) 0.8381(6)
H49_3 H 0.5167 0.9989 0.8869
C86_3 C 0.4424(6) 0.9197(3) 0.8613(7)
C87_3 C 0.4712(6) 0.9017(4) 0.8733(8)
H51_3 H 0.5042 0.9209 0.8710
C88_3 C 0.4516(6) 0.8556(4) 0.8885(7)
H52_3 H 0.4712 0.8433 0.8967
C89_3 C 0.4033(7) 0.8276(3) 0.8918(6)
C90_3 C 0.3746(7) 0.8456(4) 0.8799(6)
H53_3 H 0.3416 0.8264 0.8821
C91_3 C 0.3941(6) 0.8916(4) 0.8646(6)
H54_3 H 0.3745 0.9040 0.8565
C92_3 C 0.3850(12) 0.7766(6) 0.9089(11)
C93_3 C 0.4058(8) 0.9752(5) 0.7375(7)
C94_3 C 0.3694(7) 0.9587(5) 0.7005(6)
C95_3 C 0.3508(7) 0.9843(5) 0.6835(6)
C96_3 C 0.3479(8) 0.9117(6) 0.6841(8)
H56_3 H 0.3553 0.8905 0.6993
Zn9_3 Zn 0.0000 1.0000 0.63958(7)
O6_3 O 0.7287(2) 0.3568(3) 0.7219(3)
N3_5 N 0.9808(3) 0.4221(4) 0.7407(4)
H15_5 H 0.9572 0.4030 0.7225
C25_5 C 0.7655(4) 0.3807(5) 0.6988(6)
C26_5 C 0.8105(2) 0.3971(4) 0.7265(4)
C27_5 C 0.8522(3) 0.4205(4) 0.7013(4)
H17_5 H 0.8518 0.4251 0.6680
C28_5 C 0.8946(2) 0.4371(4) 0.7249(4)
H18_5 H 0.9232 0.4531 0.7077
C29_5 C 0.8953(3) 0.4304(4) 0.7737(4)
C30_5 C 0.8536(4) 0.4069(5) 0.7988(3)
H19_5 H 0.8540 0.4023 0.8322
C31_5 C 0.8112(3) 0.3903(4) 0.7752(4)
H20_5 H 0.7826 0.3743 0.7924
C32_5 C 0.9431(3) 0.4517(5) 0.7969(5)
C33_5 C 0.9791(3) 0.4475(4) 0.7763(4)
C36_5 C 0.9955(4) 0.5000(7) 0.8588(5)
C37_5 C 0.9513(4) 0.4779(6) 0.8381(5)
H22_5 H 0.9267 0.4808 0.8522
H27_5 H 0.9848 0.3472 0.6950
O29_3 O 0.6432(3) 0.3720(4) 0.7219(3)
O27_3 O 0.9379(2) 0.9614(4) 0.6115(3)
Zn1 Zn 0.0000 0.0001 0.63958(7)
N1_6 N 0.6858(3) 0.7746(5) 0.5927(4)
H1_6 H 0.7094 0.7791 0.6109
N2_6 N 0.6153(4) 0.7414(6) 0.5620(5)
H2_6 H 0.5854 0.7219 0.5571
C1_6 C 0.9011(4) 0.9485(6) 0.6346(6)
C2_6 C 0.8561(2) 0.9199(4) 0.6069(4)
C3_6 C 0.8144(3) 0.9016(5) 0.6321(4)
H3_6 H 0.8148 0.9066 0.6654
C4_6 C 0.7720(2) 0.8758(4) 0.6085(4)
H4_6 H 0.7434 0.8632 0.6257
C5_6 C 0.7713(3) 0.8684(5) 0.5597(4)
C6_6 C 0.8130(4) 0.8866(6) 0.5346(3)
H5_6 H 0.8126 0.8816 0.5012
C7_6 C 0.8554(3) 0.9124(5) 0.5582(4)
H6_6 H 0.8840 0.9250 0.5410
C8_6 C 0.7235(3) 0.8419(6) 0.5365(5)
C9_6 C 0.6875(3) 0.8017(5) 0.5571(4)
C10_6 C 0.6433(3) 0.7796(6) 0.5365(5)
C11_6 C 0.6351(3) 0.7976(7) 0.4953(6)
C12_6 C 0.6711(4) 0.8378(8) 0.4746(5)
H7_6 H 0.6655 0.8501 0.4465
C13_6 C 0.7153(4) 0.8599(7) 0.4953(5)
H8_6 H 0.7399 0.8874 0.4812
C14_6 C 0.5863(3) 0.7758(6) 0.4721(7)
C15_6 C 0.5683(4) 0.8046(6) 0.4601(8)
H9_6 H 0.5875 0.8376 0.4624
C16_6 C 0.5222(4) 0.7850(6) 0.4449(7)
H10_6 H 0.5099 0.8046 0.4367
C17_6 C 0.4942(3) 0.7367(7) 0.4416(6)
C18_6 C 0.5122(4) 0.7080(7) 0.4535(6)
H11_6 H 0.4930 0.6750 0.4513
C19_6 C 0.5582(4) 0.7275(6) 0.4688(6)
H12_6 H 0.5706 0.7079 0.4769
C20_6 C 0.4432(6) 0.7184(12) 0.4245(11)
C21_6 C 0.6418(5) 0.7392(8) 0.5959(7)
C22_6 C 0.6253(5) 0.7028(7) 0.6329(6)
C23_6 C 0.6509(5) 0.6842(7) 0.6499(6)
H13_6 H 0.6818 0.6957 0.6384
C24_6 C 0.5783(6) 0.6813(8) 0.6493(8)
H14_6 H 0.5571 0.6887 0.6341
N3_6 N 0.5779(4) 0.5588(5) 0.7407(4)
H15_6 H 0.5970 0.5543 0.7225
N4_6 N 0.5406(4) 0.5920(6) 0.7714(5)
H16_6 H 0.5302 0.6115 0.7763
C25_6 C 0.6193(5) 0.3849(6) 0.6988(6)
C26_6 C 0.6029(4) 0.4135(4) 0.7265(4)
C27_6 C 0.5795(4) 0.4318(5) 0.7013(4)
H17_6 H 0.5749 0.4268 0.6680
C28_6 C 0.5629(4) 0.4576(4) 0.7249(4)
H18_6 H 0.5469 0.4702 0.7077
C29_6 C 0.5696(4) 0.4650(5) 0.7737(4)
C30_6 C 0.5931(5) 0.4468(6) 0.7988(3)
H19_6 H 0.5977 0.4518 0.8322
C31_6 C 0.6097(4) 0.4210(5) 0.7752(4)
H20_6 H 0.6257 0.4084 0.7924
C32_6 C 0.5483(5) 0.4915(6) 0.7969(5)
C33_6 C 0.5525(4) 0.5317(5) 0.7763(4)
C34_6 C 0.5304(5) 0.5538(6) 0.7969(5)
C35_6 C 0.5042(6) 0.5358(7) 0.8381(6)
C36_6 C 0.5000(7) 0.4956(8) 0.8588(5)
H21_6 H 0.4821 0.4833 0.8869
C37_6 C 0.5221(6) 0.4735(7) 0.8381(5)
H22_6 H 0.5192 0.4460 0.8522
C38_6 C 0.4772(5) 0.5576(6) 0.8613(7)
C39_6 C 0.4304(5) 0.5288(6) 0.8733(8)
H23_6 H 0.4166 0.4958 0.8710
C40_6 C 0.4039(5) 0.5484(6) 0.8885(7)
H24_6 H 0.3720 0.5288 0.8967
C41_6 C 0.4242(6) 0.5967(7) 0.8918(6)
C42_6 C 0.4709(6) 0.6254(7) 0.8799(6)
H25_6 H 0.4847 0.6584 0.8821
C43_6 C 0.4974(4) 0.6059(6) 0.8646(6)
H26_6 H 0.5294 0.6255 0.8565
C44_6 C 0.3915(10) 0.6150(12) 0.9089(11)
C45_6 C 0.5693(6) 0.5942(8) 0.7375(7)
C46_6 C 0.5892(5) 0.6306(7) 0.7005(6)
C47_6 C 0.6334(5) 0.6492(7) 0.6835(6)
H27_6 H 0.6528 0.6377 0.6950
C48_6 C 0.5637(6) 0.6521(8) 0.6841(8)
H28_6 H 0.5351 0.6447 0.6993
Zn9_4 Zn 0.9999 1.0000 0.63958(7)
loop_
_geom_bond_atom_site_label_1
_geom_bond_atom_site_label_2
_geom_bond_site_symmetry_1
_geom_bond_site_symmetry_2
O14 C73 1_555 1_555
O17 C92 1_555 1_555
N7 H43 1_555 1_555
N8 H44 1_555 1_555
C73 C74 1_555 1_555
C74 C75 1_555 1_555
C75 H45 1_555 1_555
C76 C75 1_555 1_555
H46 C76 1_555 1_555
C77 C76 1_555 1_555
C78 C77 1_555 1_555
H47 C78 1_555 1_555
C79 C74 1_555 1_555
H48 C79 1_555 1_555
C80 C77 1_555 1_555
C81 N7 1_555 1_555
C82 N8 1_555 1_555
C83 C82 1_555 1_555
C84 C83 1_555 1_555
H49 C84 1_555 1_555
C85 C80 1_555 1_555
H50 C85 1_555 1_555
C86 C83 1_555 1_555
C87 C86 1_555 1_555
H51 C87 1_555 1_555
C88 C87 1_555 1_555
H52 C88 1_555 1_555
C89 C88 1_555 1_555
C90 C89 1_555 1_555
H53 C90 1_555 1_555
C91 C86 1_555 1_555
H54 C91 1_555 1_555
C92 O15 1_555 1_555
C93 N7 1_555 1_555
C94 C93 1_555 1_555
H55 C95 1_555 1_555
H56 C96 1_555 1_555
Zn11 O14 1_555 1_555
Zn21 O17 1_555 1_555
N8 C93 1_555 1_555
C78 C79 1_555 1_555
C80 C81 1_555 1_555
C81 C82 1_555 1_555
C84 C85 1_555 1_555
C89 C92 1_555 1_555
C90 C91 1_555 1_555
C94 C95 1_555 1_555
C94 C96 1_555 1_555
Zn15 O16 1_555 1_555
O37 Zn8 1_555 1_555
Zn8 O42 1_555 1_555
Zn12 O12 1_555 1_555
O35 Zn5 1_555 1_555
O41 Zn5 1_555 1_555
O10 C49 1_555 1_555
O11 C68 1_555 1_555
O13 C68 1_555 1_555
N5 H29 1_555 1_555
N6 H30 1_555 1_555
C49 C50 1_555 1_555
C50 C51 1_555 1_555
C51 H31 1_555 1_555
C52 C51 1_555 1_555
H32 C52 1_555 1_555
C53 C52 1_555 1_555
C54 C53 1_555 1_555
H33 C54 1_555 1_555
C55 C50 1_555 1_555
H34 C55 1_555 1_555
C56 C53 1_555 1_555
C57 N5 1_555 1_555
C58 N6 1_555 1_555
C59 C58 1_555 1_555
C60 C59 1_555 1_555
H35 C60 1_555 1_555
C61 C56 1_555 1_555
H36 C61 1_555 1_555
C62 C59 1_555 1_555
C63 C62 1_555 1_555
H37 C63 1_555 1_555
C64 C63 1_555 1_555
H38 C64 1_555 1_555
C65 C64 1_555 1_555
C66 C65 1_555 1_555
H39 C66 1_555 1_555
C67 C62 1_555 1_555
H40 C67 1_555 1_555
C68 C65 1_555 1_555
C69 N5 1_555 1_555
C70 C69 1_555 1_555
C71 C70 1_555 1_555
H41 C71 1_555 1_555
C72 C70 1_555 1_555
H42 C72 1_555 1_555
Zn9 O10 1_555 1_555
N6 C69 1_555 1_555
C54 C55 1_555 1_555
C56 C57 1_555 1_555
C57 C58 1_555 1_555
C60 C61 1_555 1_555
C66 C67 1_555 1_555
Zn2 O5 1_555 1_555
O6 C25 1_555 1_555
O7 C44 1_555 1_555
O9 C44 1_555 1_555
N3 H15 1_555 1_555
N4 H16 1_555 1_555
C25 C26 1_555 1_555
C26 C27 1_555 1_555
C27 H17 1_555 1_555
C28 C27 1_555 1_555
H18 C28 1_555 1_555
C29 C28 1_555 1_555
C30 C29 1_555 1_555
H19 C30 1_555 1_555
C31 C26 1_555 1_555
H20 C31 1_555 1_555
C32 C29 1_555 1_555
C33 N3 1_555 1_555
C34 N4 1_555 1_555
C35 C34 1_555 1_555
C36 C35 1_555 1_555
H21 C36 1_555 1_555
C37 C32 1_555 1_555
H22 C37 1_555 1_555
C38 C35 1_555 1_555
C39 C38 1_555 1_555
H23 C39 1_555 1_555
C40 C39 1_555 1_555
H24 C40 1_555 1_555
C41 C40 1_555 1_555
C42 C41 1_555 1_555
H25 C42 1_555 1_555
C43 C38 1_555 1_555
H26 C43 1_555 1_555
C44 C41 1_555 1_555
C45 N3 1_555 1_555
C46 C45 1_555 1_555
H27 C47 1_555 1_555
H28 C48 1_555 1_555
Zn12 O5 1_555 1_555
Zn4 O3 1_555 1_555
Zn11 O6 1_555 1_555
Zn18 O7 1_555 1_555
O29 Zn11 1_555 1_555
O31 Zn2 1_555 1_555
O32 Zn12 1_555 1_555
O33 Zn4 1_555 1_555
O34 Zn2 1_555 1_555
O38 Zn12 1_555 1_555
O39 Zn4 1_555 1_555
O40 Zn2 1_555 1_555
O5 Zn4 1_555 1_555
N4 C45 1_555 1_555
C30 C31 1_555 1_555
C32 C33 1_555 1_555
C33 C34 1_555 1_555
C36 C37 1_555 1_555
C42 C43 1_555 1_555
C46 C47 1_555 1_555
C46 C48 1_555 1_555
Zn9 O1 1_555 1_555
O1 C1 1_555 1_555
O2 C20 1_555 1_555
O4 C20 1_555 1_555
N1 H1 1_555 1_555
N2 H2 1_555 1_555
C1 C2 1_555 1_555
C2 C3 1_555 1_555
C3 H3 1_555 1_555
C4 C3 1_555 1_555
H4 C4 1_555 1_555
C5 C4 1_555 1_555
C6 C5 1_555 1_555
H5 C6 1_555 1_555
C7 C2 1_555 1_555
H6 C7 1_555 1_555
C8 C5 1_555 1_555
C9 N1 1_555 1_555
C10 N2 1_555 1_555
C11 C10 1_555 1_555
C12 C11 1_555 1_555
H7 C12 1_555 1_555
C13 C8 1_555 1_555
H8 C13 1_555 1_555
C14 C11 1_555 1_555
C15 C14 1_555 1_555
H9 C15 1_555 1_555
C16 C15 1_555 1_555
H10 C16 1_555 1_555
C17 C16 1_555 1_555
C18 C17 1_555 1_555
H11 C18 1_555 1_555
C19 C14 1_555 1_555
H12 C19 1_555 1_555
C20 C17 1_555 1_555
C21 N1 1_555 1_555
C22 C21 1_555 1_555
C23 C22 1_555 1_555
H13 C23 1_555 1_555
C24 C22 1_555 1_555
H14 C24 1_555 1_555
Zn7 O2 1_555 1_555
Zn15 O26 1_555 1_555
Zn16 O26 1_555 1_555
Zn17 O8 1_555 1_555
O27 Zn9 1_555 1_555
O36 Zn7 1_555 1_555
N2 C21 1_555 1_555
C6 C7 1_555 1_555
C8 C9 1_555 1_555
C9 C10 1_555 1_555
C12 C13 1_555 1_555
C18 C19 1_555 1_555
O26 Zn17 1_555 1_555
O27 C1_2 1_555 1_555
O30 C20_2 1_555 1_555
O4_2 C20_2 1_555 1_555
N1_2 H1_2 1_555 1_555
N2_2 H2_2 1_555 1_555
C1_2 C2_2 1_555 1_555
C2_2 C3_2 1_555 1_555
C3_2 H3_2 1_555 1_555
C4_2 C3_2 1_555 1_555
H4_2 C4_2 1_555 1_555
C5_2 C4_2 1_555 1_555
C6_2 C5_2 1_555 1_555
H5_2 C6_2 1_555 1_555
C7_2 C2_2 1_555 1_555
H6_2 C7_2 1_555 1_555
C8_2 C5_2 1_555 1_555
C9_2 N1_2 1_555 1_555
C10_2 N2_2 1_555 1_555
C11_2 C10_2 1_555 1_555
C12_2 C11_2 1_555 1_555
H7_2 C12_2 1_555 1_555
C13_2 C8_2 1_555 1_555
H8_2 C13_2 1_555 1_555
C14_2 C11_2 1_555 1_555
C15_2 C14_2 1_555 1_555
H9_2 C15_2 1_555 1_555
C16_2 C15_2 1_555 1_555
H10_2 C16_2 1_555 1_555
C17_2 C16_2 1_555 1_555
C18_2 C17_2 1_555 1_555
H11_2 C18_2 1_555 1_555
C19_2 C14_2 1_555 1_555
H12_2 C19_2 1_555 1_555
C20_2 C17_2 1_555 1_555
C21_2 N1_2 1_555 1_555
C22_2 C21_2 1_555 1_555
C23_2 C22_2 1_555 1_555
H13_2 C23_2 1_555 1_555
C24_2 C22_2 1_555 1_555
H14_2 C24_2 1_555 1_555
Zn24 O4_2 1_555 1_555
O37_2 Zn24 1_555 1_555
N2_2 C21_2 1_555 1_555
C6_2 C7_2 1_555 1_555
C8_2 C9_2 1_555 1_555
C9_2 C10_2 1_555 1_555
C12_2 C13_2 1_555 1_555
C18_2 C19_2 1_555 1_555
Zn24 O42_2 1_555 1_555
O29 C25_2 1_555 1_555
O7_2 C44_2 1_555 1_555
O9_2 C44_2 1_555 1_555
N3_2 H15_2 1_555 1_555
N4_2 H16_2 1_555 1_555
C25_2 C26_2 1_555 1_555
C26_2 C27_2 1_555 1_555
C27_2 H17_2 1_555 1_555
C28_2 C27_2 1_555 1_555
H18_2 C28_2 1_555 1_555
C29_2 C28_2 1_555 1_555
C30_2 C29_2 1_555 1_555
H19_2 C30_2 1_555 1_555
C31_2 C26_2 1_555 1_555
H20_2 C31_2 1_555 1_555
C32_2 C29_2 1_555 1_555
C33_2 N3_2 1_555 1_555
C34_2 N4_2 1_555 1_555
C35_2 C34_2 1_555 1_555
C36_2 C35_2 1_555 1_555
H21_2 C36_2 1_555 1_555
C37_2 C32_2 1_555 1_555
H22_2 C37_2 1_555 1_555
C38_2 C35_2 1_555 1_555
C39_2 C38_2 1_555 1_555
H23_2 C39_2 1_555 1_555
C40_2 C39_2 1_555 1_555
H24_2 C40_2 1_555 1_555
C41_2 C40_2 1_555 1_555
C42_2 C41_2 1_555 1_555
H25_2 C42_2 1_555 1_555
C43_2 C38_2 1_555 1_555
H26_2 C43_2 1_555 1_555
C44_2 C41_2 1_555 1_555
C45_2 N3_2 1_555 1_555
C46_2 C45_2 1_555 1_555
H27_2 C47_2 1_555 1_555
H28_2 C48_2 1_555 1_555
N4_2 C45_2 1_555 1_555
C30_2 C31_2 1_555 1_555
C32_2 C33_2 1_555 1_555
C33_2 C34_2 1_555 1_555
C36_2 C37_2 1_555 1_555
C42_2 C43_2 1_555 1_555
C46_2 C47_2 1_555 1_555
C46_2 C48_2 1_555 1_555
Zn16 O8_2 1_555 1_555
O35_2 Zn18 1_555 1_555
O41_2 Zn18 1_555 1_555
O35_3 Zn21 1_555 1_555
O41_3 Zn21 1_555 1_555
Zn7 O42_3 1_555 1_555
O31_2 Zn15 1_555 1_555
O32_2 Zn16 1_555 1_555
O33_2 Zn17 1_555 1_555
O38_2 Zn16 1_555 1_555
O39_2 Zn17 1_555 1_555
O40_2 Zn15 1_555 1_555
O31 C20_3 1_555 1_555
O38 C20_3 1_555 1_555
N2_3 H2_3 1_555 1_555
C10_3 N2_3 1_555 1_555
C11_3 C10_3 1_555 1_555
C14_3 C11_3 1_555 1_555
C15_3 C14_3 1_555 1_555
H9_3 C15_3 1_555 1_555
C16_3 C15_3 1_555 1_555
H10_3 C16_3 1_555 1_555
C17_3 C16_3 1_555 1_555
C18_3 C17_3 1_555 1_555
H11_3 C18_3 1_555 1_555
C19_3 C14_3 1_555 1_555
H12_3 C19_3 1_555 1_555
C20_3 C17_3 1_555 1_555
C22_3 C21_3 1_555 1_555
C23_3 C22_3 1_555 1_555
C24_3 C22_3 1_555 1_555
H14_3 C24_3 1_555 1_555
O6_2 C25_3 1_555 1_555
O7_3 C44_3 1_555 1_555
O35_3 C25_3 1_555 1_555
O9_3 C44_3 1_555 1_555
N3_3 H15_3 1_555 1_555
N4_3 H16_3 1_555 1_555
C25_3 C26_3 1_555 1_555
C26_3 C27_3 1_555 1_555
C27_3 H17_3 1_555 1_555
C28_3 C27_3 1_555 1_555
H18_3 C28_3 1_555 1_555
C29_3 C28_3 1_555 1_555
C30_3 C29_3 1_555 1_555
H19_3 C30_3 1_555 1_555
C31_3 C26_3 1_555 1_555
H20_3 C31_3 1_555 1_555
C32_3 C29_3 1_555 1_555
C33_3 N3_3 1_555 1_555
C34_3 N4_3 1_555 1_555
C35_3 C34_3 1_555 1_555
C36_3 C35_3 1_555 1_555
H21_3 C36_3 1_555 1_555
C37_3 C32_3 1_555 1_555
H22_3 C37_3 1_555 1_555
C38_3 C35_3 1_555 1_555
C39_3 C38_3 1_555 1_555
H23_3 C39_3 1_555 1_555
C40_3 C39_3 1_555 1_555
H24_3 C40_3 1_555 1_555
C41_3 C40_3 1_555 1_555
C42_3 C41_3 1_555 1_555
H25_3 C42_3 1_555 1_555
C43_3 C38_3 1_555 1_555
H26_3 C43_3 1_555 1_555
C44_3 C41_3 1_555 1_555
C45_3 N3_3 1_555 1_555
C46_3 C45_3 1_555 1_555
C47_3 C23_3 1_555 1_555
H27_3 C47_3 1_555 1_555
C48_3 C24_3 1_555 1_555
H28_3 C48_3 1_555 1_555
Zn5_2 O9_3 1_555 1_555
O10_2 C49_2 1_555 1_555
O33 C68_2 1_555 1_555
O12_2 C49_2 1_555 1_555
O40 C68_2 1_555 1_555
N5_2 H29_2 1_555 1_555
N6_2 H30_2 1_555 1_555
C49_2 C50_2 1_555 1_555
C50_2 C51_2 1_555 1_555
C51_2 H31_2 1_555 1_555
C52_2 C51_2 1_555 1_555
H32_2 C52_2 1_555 1_555
C53_2 C52_2 1_555 1_555
C54_2 C53_2 1_555 1_555
H33_2 C54_2 1_555 1_555
C55_2 C50_2 1_555 1_555
H34_2 C55_2 1_555 1_555
C56_2 C53_2 1_555 1_555
C57_2 N5_2 1_555 1_555
C58_2 N6_2 1_555 1_555
C59_2 C58_2 1_555 1_555
C60_2 C59_2 1_555 1_555
H35_2 C60_2 1_555 1_555
C61_2 C56_2 1_555 1_555
H36_2 C61_2 1_555 1_555
C62_2 C59_2 1_555 1_555
C63_2 C62_2 1_555 1_555
H37_2 C63_2 1_555 1_555
C64_2 C63_2 1_555 1_555
H38_2 C64_2 1_555 1_555
C65_2 C64_2 1_555 1_555
C66_2 C65_2 1_555 1_555
H39_2 C66_2 1_555 1_555
C67_2 C62_2 1_555 1_555
H40_2 C67_2 1_555 1_555
C68_2 C65_2 1_555 1_555
C69_2 N5_2 1_555 1_555
C70_2 C69_2 1_555 1_555
C71_2 C70_2 1_555 1_555
H41_2 C71_2 1_555 1_555
C72_2 C70_2 1_555 1_555
H42_2 C72_2 1_555 1_555
O14_2 C73_2 1_555 1_555
O15_2 Zn5_2 1_555 1_555
O35_2 C73_2 1_555 1_555
O17_2 C92_2 1_555 1_555
N7_2 H43_2 1_555 1_555
N8_2 H44_2 1_555 1_555
C73_2 C74_2 1_555 1_555
C74_2 C75_2 1_555 1_555
C75_2 H45_2 1_555 1_555
C76_2 C75_2 1_555 1_555
H46_2 C76_2 1_555 1_555
C77_2 C76_2 1_555 1_555
C78_2 C77_2 1_555 1_555
H47_2 C78_2 1_555 1_555
C79_2 C74_2 1_555 1_555
H48_2 C79_2 1_555 1_555
C80_2 C77_2 1_555 1_555
C81_2 N7_2 1_555 1_555
C82_2 N8_2 1_555 1_555
C83_2 C82_2 1_555 1_555
C84_2 C83_2 1_555 1_555
H49_2 C84_2 1_555 1_555
C85_2 C80_2 1_555 1_555
H50_2 C85_2 1_555 1_555
C86_2 C83_2 1_555 1_555
C87_2 C86_2 1_555 1_555
H51_2 C87_2 1_555 1_555
C88_2 C87_2 1_555 1_555
H52_2 C88_2 1_555 1_555
C89_2 C88_2 1_555 1_555
C90_2 C89_2 1_555 1_555
H53_2 C90_2 1_555 1_555
C91_2 C86_2 1_555 1_555
H54_2 C91_2 1_555 1_555
C92_2 O15_2 1_555 1_555
C93_2 N7_2 1_555 1_555
C94_2 C93_2 1_555 1_555
C95_2 C71_2 1_555 1_555
H55_2 C95_2 1_555 1_555
C96_2 C72_2 1_555 1_555
H56_2 C96_2 1_555 1_555
Zn9_2 O10_2 1_555 1_555
Zn12_2 O12_2 1_555 1_555
Zn18_2 O7_3 1_555 1_555
Zn21_2 O17_2 1_555 1_555
O35_4 Zn5_2 1_555 1_555
O41_4 Zn5_2 1_555 1_555
N2_3 C21_3 1_555 1_555
C18_3 C19_3 1_555 1_555
N4_3 C45_3 1_555 1_555
C30_3 C31_3 1_555 1_555
C32_3 C33_3 1_555 1_555
C33_3 C34_3 1_555 1_555
C36_3 C37_3 1_555 1_555
C42_3 C43_3 1_555 1_555
C46_3 C47_3 1_555 1_555
C46_3 C48_3 1_555 1_555
N6_2 C69_2 1_555 1_555
C54_2 C55_2 1_555 1_555
C56_2 C57_2 1_555 1_555
C57_2 C58_2 1_555 1_555
C60_2 C61_2 1_555 1_555
C66_2 C67_2 1_555 1_555
N8_2 C93_2 1_555 1_555
C78_2 C79_2 1_555 1_555
C80_2 C81_2 1_555 1_555
C81_2 C82_2 1_555 1_555
C84_2 C85_2 1_555 1_555
C89_2 C92_2 1_555 1_555
C90_2 C91_2 1_555 1_555
C94_2 C95_2 1_555 1_555
C94_2 C96_2 1_555 1_555
Zn18_2 O41_4 1_555 1_555
Zn21_2 O41_4 1_555 1_555
Zn9_2 O1_2 1_555 1_555
Zn2_2 O5_2 1_555 1_555
O1_2 C1_3 1_555 1_555
O3_2 C1_3 1_555 1_555
O5_2 Zn9_2 1_555 1_555
N1_3 H1_3 1_555 1_555
C1_3 C2_3 1_555 1_555
C2_3 C3_3 1_555 1_555
C3_3 H3_3 1_555 1_555
C4_3 C3_3 1_555 1_555
H4_3 C4_3 1_555 1_555
C5_3 C4_3 1_555 1_555
C6_3 C5_3 1_555 1_555
H5_3 C6_3 1_555 1_555
C7_3 C2_3 1_555 1_555
H6_3 C7_3 1_555 1_555
C8_3 C5_3 1_555 1_555
C9_3 N1_3 1_555 1_555
C13_3 C8_3 1_555 1_555
H8_3 C13_3 1_555 1_555
Zn12_2 O5_2 1_555 1_555
Zn4_2 O3_2 1_555 1_555
O27_2 Zn9_2 1_555 1_555
O31_3 Zn2_2 1_555 1_555
O32_3 Zn12_2 1_555 1_555
O33_3 Zn4_2 1_555 1_555
O34_2 Zn2_2 1_555 1_555
O38_3 Zn12_2 1_555 1_555
O39_3 Zn4_2 1_555 1_555
O40_3 Zn2_2 1_555 1_555
O5_2 Zn4_2 1_555 1_555
C6_3 C7_3 1_555 1_555
C8_3 C9_3 1_555 1_555
C12_3 C13_3 1_555 1_555
O41 Zn11_2 1_555 1_555
O29_2 Zn11_2 1_555 1_555
O27_2 C1_4 1_555 1_555
O34_2 C1_4 1_555 1_555
N1_4 H1_4 1_555 1_555
C1_4 C2_4 1_555 1_555
C2_4 C3_4 1_555 1_555
C3_4 H3_4 1_555 1_555
C4_4 C3_4 1_555 1_555
H4_4 C4_4 1_555 1_555
C5_4 C4_4 1_555 1_555
C6_4 C5_4 1_555 1_555
H5_4 C6_4 1_555 1_555
C7_4 C2_4 1_555 1_555
H6_4 C7_4 1_555 1_555
C8_4 C5_4 1_555 1_555
C9_4 N1_4 1_555 1_555
C13_4 C8_4 1_555 1_555
H8_4 C13_4 1_555 1_555
C6_4 C7_4 1_555 1_555
C8_4 C9_4 1_555 1_555
C12_4 C13_4 1_555 1_555
O32 C20_4 1_555 1_555
O39 C20_4 1_555 1_555
N2_4 H2_4 1_555 1_555
C10_4 N2_4 1_555 1_555
C11_4 C10_4 1_555 1_555
C14_4 C11_4 1_555 1_555
C15_4 C14_4 1_555 1_555
H9_4 C15_4 1_555 1_555
C16_4 C15_4 1_555 1_555
H10_4 C16_4 1_555 1_555
C17_4 C16_4 1_555 1_555
C18_4 C17_4 1_555 1_555
H11_4 C18_4 1_555 1_555
C19_4 C14_4 1_555 1_555
H12_4 C19_4 1_555 1_555
C20_4 C17_4 1_555 1_555
C22_4 C21_4 1_555 1_555
C23_4 C22_4 1_555 1_555
C24_4 C22_4 1_555 1_555
H14_4 C24_4 1_555 1_555
O29_2 C25_4 1_555 1_555
O7_4 C44_4 1_555 1_555
O35 C25_4 1_555 1_555
O9_4 C44_4 1_555 1_555
N3_4 H15_4 1_555 1_555
N4_4 H16_4 1_555 1_555
C25_4 C26_4 1_555 1_555
C26_4 C27_4 1_555 1_555
C27_4 H17_4 1_555 1_555
C28_4 C27_4 1_555 1_555
H18_4 C28_4 1_555 1_555
C29_4 C28_4 1_555 1_555
C30_4 C29_4 1_555 1_555
H19_4 C30_4 1_555 1_555
C31_4 C26_4 1_555 1_555
H20_4 C31_4 1_555 1_555
C32_4 C29_4 1_555 1_555
C33_4 N3_4 1_555 1_555
C34_4 N4_4 1_555 1_555
C35_4 C34_4 1_555 1_555
C36_4 C35_4 1_555 1_555
H21_4 C36_4 1_555 1_555
C37_4 C32_4 1_555 1_555
H22_4 C37_4 1_555 1_555
C38_4 C35_4 1_555 1_555
C39_4 C38_4 1_555 1_555
H23_4 C39_4 1_555 1_555
C40_4 C39_4 1_555 1_555
H24_4 C40_4 1_555 1_555
C41_4 C40_4 1_555 1_555
C42_4 C41_4 1_555 1_555
H25_4 C42_4 1_555 1_555
C43_4 C38_4 1_555 1_555
H26_4 C43_4 1_555 1_555
C44_4 C41_4 1_555 1_555
C45_4 N3_4 1_555 1_555
C46_4 C45_4 1_555 1_555
C47_4 C23_4 1_555 1_555
H27_4 C47_4 1_555 1_555
C48_4 C24_4 1_555 1_555
H28_4 C48_4 1_555 1_555
Zn18_2 O9_4 1_555 1_555
Zn21_2 O7_4 1_555 1_555
O35_5 Zn18_2 1_555 1_555
N2_4 C21_4 1_555 1_555
C18_4 C19_4 1_555 1_555
N4_4 C45_4 1_555 1_555
C30_4 C31_4 1_555 1_555
C32_4 C33_4 1_555 1_555
C33_4 C34_4 1_555 1_555
C36_4 C37_4 1_555 1_555
C42_4 C43_4 1_555 1_555
C46_4 C47_4 1_555 1_555
C46_4 C48_4 1_555 1_555
O41_2 Zn10 1_555 1_555
O14_2 Zn10 1_555 1_555
O41_3 Zn6 1_555 1_555
O6_2 Zn6 1_555 1_555
O35_6 Zn21_2 1_555 1_555
O14_3 C73_3 1_555 1_555
O35_5 C73_3 1_555 1_555
N7_3 H43_3 1_555 1_555
C73_3 C74_3 1_555 1_555
C74_3 C75_3 1_555 1_555
C75_3 H45_3 1_555 1_555
C76_3 C75_3 1_555 1_555
H46_3 C76_3 1_555 1_555
C77_3 C76_3 1_555 1_555
C78_3 C77_3 1_555 1_555
H47_3 C78_3 1_555 1_555
C79_3 C74_3 1_555 1_555
H48_3 C79_3 1_555 1_555
C80_3 C77_3 1_555 1_555
C81_3 N7_3 1_555 1_555
C85_3 C80_3 1_555 1_555
H50_3 C85_3 1_555 1_555
Zn11_3 O14_3 1_555 1_555
C78_3 C79_3 1_555 1_555
C80_3 C81_3 1_555 1_555
C84_3 C85_3 1_555 1_555
O1_3 C1_5 1_555 1_555
O31_3 C20_5 1_555 1_555
O37_2 C1_5 1_555 1_555
O38_3 C20_5 1_555 1_555
N1_5 H1_5 1_555 1_555
N2_5 H2_5 1_555 1_555
C1_5 C2_5 1_555 1_555
C2_5 C3_5 1_555 1_555
C3_5 H3_5 1_555 1_555
C4_5 C3_5 1_555 1_555
H4_5 C4_5 1_555 1_555
C5_5 C4_5 1_555 1_555
C6_5 C5_5 1_555 1_555
H5_5 C6_5 1_555 1_555
C7_5 C2_5 1_555 1_555
H6_5 C7_5 1_555 1_555
C8_5 C5_5 1_555 1_555
C9_5 N1_5 1_555 1_555
C10_5 N2_5 1_555 1_555
C11_5 C10_5 1_555 1_555
C12_5 C11_5 1_555 1_555
H7_5 C12_5 1_555 1_555
C13_5 C8_5 1_555 1_555
H8_5 C13_5 1_555 1_555
C14_5 C11_5 1_555 1_555
C15_5 C14_5 1_555 1_555
H9_5 C15_5 1_555 1_555
C16_5 C15_5 1_555 1_555
H10_5 C16_5 1_555 1_555
C17_5 C16_5 1_555 1_555
C18_5 C17_5 1_555 1_555
H11_5 C18_5 1_555 1_555
C19_5 C14_5 1_555 1_555
H12_5 C19_5 1_555 1_555
C20_5 C17_5 1_555 1_555
C21_5 N1_5 1_555 1_555
C22_5 C21_5 1_555 1_555
C23_5 C22_5 1_555 1_555
H13_5 C23_5 1_555 1_555
C24_5 C22_5 1_555 1_555
H14_5 C24_5 1_555 1_555
O31_2 C44_5 1_555 1_555
O38_2 C44_5 1_555 1_555
N4_5 H16_5 1_555 1_555
C34_5 N4_5 1_555 1_555
C35_5 C34_5 1_555 1_555
C38_5 C35_5 1_555 1_555
C39_5 C38_5 1_555 1_555
H23_5 C39_5 1_555 1_555
C40_5 C39_5 1_555 1_555
H24_5 C40_5 1_555 1_555
C41_5 C40_5 1_555 1_555
C42_5 C41_5 1_555 1_555
H25_5 C42_5 1_555 1_555
C43_5 C38_5 1_555 1_555
H26_5 C43_5 1_555 1_555
C44_5 C41_5 1_555 1_555
C46_5 C45_5 1_555 1_555
C47_5 C23_5 1_555 1_555
C48_5 C24_5 1_555 1_555
H28_5 C48_5 1_555 1_555
O10_3 C49_3 1_555 1_555
O33_3 C68_3 1_555 1_555
O37 C49_3 1_555 1_555
O40_3 C68_3 1_555 1_555
N5_3 H29_3 1_555 1_555
N6_3 H30_3 1_555 1_555
C49_3 C50_3 1_555 1_555
C50_3 C51_3 1_555 1_555
C51_3 H31_3 1_555 1_555
C52_3 C51_3 1_555 1_555
H32_3 C52_3 1_555 1_555
C53_3 C52_3 1_555 1_555
C54_3 C53_3 1_555 1_555
H33_3 C54_3 1_555 1_555
C55_3 C50_3 1_555 1_555
H34_3 C55_3 1_555 1_555
C56_3 C53_3 1_555 1_555
C57_3 N5_3 1_555 1_555
C58_3 N6_3 1_555 1_555
C59_3 C58_3 1_555 1_555
C60_3 C59_3 1_555 1_555
H35_3 C60_3 1_555 1_555
C61_3 C56_3 1_555 1_555
H36_3 C61_3 1_555 1_555
C62_3 C59_3 1_555 1_555
C63_3 C62_3 1_555 1_555
H37_3 C63_3 1_555 1_555
C64_3 C63_3 1_555 1_555
H38_3 C64_3 1_555 1_555
C65_3 C64_3 1_555 1_555
C66_3 C65_3 1_555 1_555
H39_3 C66_3 1_555 1_555
C67_3 C62_3 1_555 1_555
H40_3 C67_3 1_555 1_555
C68_3 C65_3 1_555 1_555
C69_3 N5_3 1_555 1_555
C70_3 C69_3 1_555 1_555
C71_3 C70_3 1_555 1_555
H41_3 C71_3 1_555 1_555
C72_3 C70_3 1_555 1_555
H42_3 C72_3 1_555 1_555
O39_2 C92_3 1_555 1_555
N8_3 H44_3 1_555 1_555
C82_3 N8_3 1_555 1_555
C83_3 C82_3 1_555 1_555
C86_3 C83_3 1_555 1_555
C87_3 C86_3 1_555 1_555
H51_3 C87_3 1_555 1_555
C88_3 C87_3 1_555 1_555
H52_3 C88_3 1_555 1_555
C89_3 C88_3 1_555 1_555
C90_3 C89_3 1_555 1_555
H53_3 C90_3 1_555 1_555
C91_3 C86_3 1_555 1_555
H54_3 C91_3 1_555 1_555
C92_3 O32_2 1_555 1_555
C94_3 C93_3 1_555 1_555
C95_3 C71_3 1_555 1_555
C96_3 C72_3 1_555 1_555
H56_3 C96_3 1_555 1_555
Zn9_3 O10_3 1_555 1_555
N2_5 C21_5 1_555 1_555
C6_5 C7_5 1_555 1_555
C8_5 C9_5 1_555 1_555
C9_5 C10_5 1_555 1_555
C12_5 C13_5 1_555 1_555
C18_5 C19_5 1_555 1_555
N4_5 C45_5 1_555 1_555
C42_5 C43_5 1_555 1_555
C46_5 C47_5 1_555 1_555
C46_5 C48_5 1_555 1_555
N6_3 C69_3 1_555 1_555
C54_3 C55_3 1_555 1_555
C56_3 C57_3 1_555 1_555
C57_3 C58_3 1_555 1_555
C60_3 C61_3 1_555 1_555
C66_3 C67_3 1_555 1_555
N8_3 C93_3 1_555 1_555
C89_3 C92_3 1_555 1_555
C90_3 C91_3 1_555 1_555
C94_3 C95_3 1_555 1_555
C94_3 C96_3 1_555 1_555
O42 Zn9_3 1_555 1_555
O6_3 C25_5 1_555 1_555
O35_6 C25_5 1_555 1_555
N3_5 H15_5 1_555 1_555
C25_5 C26_5 1_555 1_555
C26_5 C27_5 1_555 1_555
C27_5 H17_5 1_555 1_555
C28_5 C27_5 1_555 1_555
H18_5 C28_5 1_555 1_555
C29_5 C28_5 1_555 1_555
C30_5 C29_5 1_555 1_555
H19_5 C30_5 1_555 1_555
C31_5 C26_5 1_555 1_555
H20_5 C31_5 1_555 1_555
C32_5 C29_5 1_555 1_555
C33_5 N3_5 1_555 1_555
C37_5 C32_5 1_555 1_555
H22_5 C37_5 1_555 1_555
Zn11_3 O6_3 1_555 1_555
O41_4 Zn11_3 1_555 1_555
O29_3 Zn11_3 1_555 1_555
C30_5 C31_5 1_555 1_555
C32_5 C33_5 1_555 1_555
C36_5 C37_5 1_555 1_555
O42_2 Zn1 1_555 1_555
O1_3 Zn1 1_555 1_555
O27_3 C1_6 1_555 1_555
O32_3 C20_6 1_555 1_555
O36 C1_6 1_555 1_555
O39_3 C20_6 1_555 1_555
N1_6 H1_6 1_555 1_555
N2_6 H2_6 1_555 1_555
C1_6 C2_6 1_555 1_555
C2_6 C3_6 1_555 1_555
C3_6 H3_6 1_555 1_555
C4_6 C3_6 1_555 1_555
H4_6 C4_6 1_555 1_555
C5_6 C4_6 1_555 1_555
C6_6 C5_6 1_555 1_555
H5_6 C6_6 1_555 1_555
C7_6 C2_6 1_555 1_555
H6_6 C7_6 1_555 1_555
C8_6 C5_6 1_555 1_555
C9_6 N1_6 1_555 1_555
C10_6 N2_6 1_555 1_555
C11_6 C10_6 1_555 1_555
C12_6 C11_6 1_555 1_555
H7_6 C12_6 1_555 1_555
C13_6 C8_6 1_555 1_555
H8_6 C13_6 1_555 1_555
C14_6 C11_6 1_555 1_555
C15_6 C14_6 1_555 1_555
H9_6 C15_6 1_555 1_555
C16_6 C15_6 1_555 1_555
H10_6 C16_6 1_555 1_555
C17_6 C16_6 1_555 1_555
C18_6 C17_6 1_555 1_555
H11_6 C18_6 1_555 1_555
C19_6 C14_6 1_555 1_555
H12_6 C19_6 1_555 1_555
C20_6 C17_6 1_555 1_555
C21_6 N1_6 1_555 1_555
C22_6 C21_6 1_555 1_555
C23_6 C22_6 1_555 1_555
H13_6 C23_6 1_555 1_555
C24_6 C22_6 1_555 1_555
H14_6 C24_6 1_555 1_555
O29_3 C25_6 1_555 1_555
O33_2 C44_6 1_555 1_555
O35_4 C25_6 1_555 1_555
O40_2 C44_6 1_555 1_555
N3_6 H15_6 1_555 1_555
N4_6 H16_6 1_555 1_555
C25_6 C26_6 1_555 1_555
C26_6 C27_6 1_555 1_555
C27_6 H17_6 1_555 1_555
C28_6 C27_6 1_555 1_555
H18_6 C28_6 1_555 1_555
C29_6 C28_6 1_555 1_555
C30_6 C29_6 1_555 1_555
H19_6 C30_6 1_555 1_555
C31_6 C26_6 1_555 1_555
H20_6 C31_6 1_555 1_555
C32_6 C29_6 1_555 1_555
C33_6 N3_6 1_555 1_555
C34_6 N4_6 1_555 1_555
C35_6 C34_6 1_555 1_555
C36_6 C35_6 1_555 1_555
H21_6 C36_6 1_555 1_555
C37_6 C32_6 1_555 1_555
H22_6 C37_6 1_555 1_555
C38_6 C35_6 1_555 1_555
C39_6 C38_6 1_555 1_555
H23_6 C39_6 1_555 1_555
C40_6 C39_6 1_555 1_555
H24_6 C40_6 1_555 1_555
C41_6 C40_6 1_555 1_555
C42_6 C41_6 1_555 1_555
H25_6 C42_6 1_555 1_555
C43_6 C38_6 1_555 1_555
H26_6 C43_6 1_555 1_555
C44_6 C41_6 1_555 1_555
C45_6 N3_6 1_555 1_555
C46_6 C45_6 1_555 1_555
C47_6 C23_6 1_555 1_555
H27_6 C47_6 1_555 1_555
C48_6 C24_6 1_555 1_555
H28_6 C48_6 1_555 1_555
N2_6 C21_6 1_555 1_555
C6_6 C7_6 1_555 1_555
C8_6 C9_6 1_555 1_555
C9_6 C10_6 1_555 1_555
C12_6 C13_6 1_555 1_555
C18_6 C19_6 1_555 1_555
N4_6 C45_6 1_555 1_555
C30_6 C31_6 1_555 1_555
C32_6 C33_6 1_555 1_555
C33_6 C34_6 1_555 1_555
C36_6 C37_6 1_555 1_555
C42_6 C43_6 1_555 1_555
C46_6 C47_6 1_555 1_555
C46_6 C48_6 1_555 1_555
Zn9_4 O27_3 1_555 1_555
O42_3 Zn9_4 1_555 1_555

#END
