
###############################################################################
#
# This file contains modified crystal structure data generated from the
# MOF subset of the Cambridge Structural Database (CSD) v543 
# hosted by the Cambridge Crystallographic Data Centre (CCDC).
#
# This work is licensed under the Creative Commons
# Attribution-NonCommercial-ShareAlike 4.0 International License.
# To view a copy of this license, visit
# http://creativecommons.org/licenses/by-nc-sa/4.0/
# or send a letter to
# Creative Commons, PO Box 1866, Mountain View, CA 94042, USA.
#
# CIF created using the CSD Python API on 29 September 2022
# The structure has been converted into the P1 space group
# The structure has a 3D framework
# The original CSD entry IHAJIN is in the rhombohedral crystal system
# The framework has been calculated to contain at least 10.0% void space
# The void calculation uses a probe of radius 1.32A, grid spacing 0.4
#
###############################################################################

data_IHAJIN
_chemical_formula_moiety         '(C288 H216 N104 O36 Zn18)n'
_symmetry_cell_setting           triclinic
_symmetry_space_group_name_H-M   'P 1'
_symmetry_Int_Tables_number      1
_space_group_name_Hall           'P 1'
loop_
_symmetry_equiv_pos_site_id
_symmetry_equiv_pos_as_xyz
1 x,y,z
_cell_length_a                   23.238(3)
_cell_length_b                   23.238(3)
_cell_length_c                   16.566(5)
_cell_angle_alpha                90
_cell_angle_beta                 90
_cell_angle_gamma                120
_cell_volume                     7747.22
loop_
_atom_site_label
_atom_site_type_symbol
_atom_site_fract_x
_atom_site_fract_y
_atom_site_fract_z
Zn1 Zn 0.60942(3) 0.69791(3) 0.62034(4)
O1 O 0.5639(2) 0.6405(2) 0.5261(2)
O2 O 0.6620(2) 0.79423(19) 0.6352(2)
N1 N 0.5281(2) 0.7146(2) 0.5274(3)
N2 N 0.6773(2) 0.6765(2) 0.3122(3)
N3 N 0.5350(2) 0.8800(3) 0.6181(3)
N4 N 0.6886(2) 0.7863(2) 0.5063(3)
N5 N 0.7083(3) 0.7709(2) 0.3741(3)
N6 N 0.4980(2) 0.7950(2) 0.5350(3)
C1 C 0.5423(3) 0.8301(3) 0.5944(4)
H1 H 0.573478 0.820114 0.615275
C2 C 0.6915(3) 0.8241(3) 0.5690(4)
C3 C 0.6718(3) 0.7041(3) 0.3786(4)
H2 H 0.646090 0.680730 0.422829
C4 C 0.4847(3) 0.8773(4) 0.5716(4)
H3 H 0.468881 0.906888 0.575213
C5 C 0.5308(3) 0.6639(3) 0.4897(4)
C6 C 0.7250(4) 0.8946(3) 0.5618(5)
H4 H 0.729328 0.921156 0.605984
C7 C 0.4944(3) 0.7391(3) 0.4926(3)
C8 C 0.7144(3) 0.8156(3) 0.4369(4)
C9 C 0.4995(3) 0.6403(3) 0.4143(4)
H5 H 0.502984 0.607112 0.387179
C10 C 0.4595(3) 0.7168(3) 0.4208(4)
H6 H 0.434560 0.734549 0.399790
C11 C 0.7196(4) 0.7280(3) 0.2626(4)
H7 H 0.732270 0.723142 0.210948
C12 C 0.4643(3) 0.6665(3) 0.3822(4)
H8 H 0.442821 0.650481 0.333115
C13 C 0.4620(3) 0.8262(4) 0.5206(4)
H9 H 0.428361 0.814046 0.482730
C14 C 0.7469(4) 0.8836(3) 0.4243(5)
H10 H 0.765141 0.902059 0.374358
C15 C 0.7397(4) 0.7856(3) 0.3000(4)
H11 H 0.769199 0.827715 0.280011
C16 C 0.7509(4) 0.9223(4) 0.4880(5)
H12 H 0.771417 0.968132 0.481582
Zn2 Zn 0.63542(3) 0.57818(4) 0.28701(4)
Zn3 Zn 0.57818(4) 0.94275(3) 0.71299(4)
N7 N 0.6659(3) 0.6560(2) 0.6455(3)
N8 N 0.5467(3) 0.6783(4) 0.7152(3)
N2_2 N 0.3235(2) 0.0008(3) 0.3122(3)
H7_2 H 0.276858 0.009128 0.210948
Zn2_2 Zn 0.42182(4) 0.05725(5) 0.28701(4)
N7_2 N 0.3440(2) 0.0098(4) 0.6455(3)
Zn1_2 Zn 0.30209(3) 0.91151(4) 0.62034(4)
O1_2 O 0.3595(2) 0.9234(3) 0.5261(2)
O2_2 O 0.20577(19) 0.86777(28) 0.6352(2)
N1_2 N 0.2854(2) 0.8135(3) 0.5274(3)
N3_2 N 0.1200(3) 0.6550(4) 0.6181(3)
N4_2 N 0.2137(2) 0.9023(3) 0.5063(3)
N5_2 N 0.2291(2) 0.9374(4) 0.3741(3)
N6_2 N 0.2050(2) 0.7030(3) 0.5350(3)
C1_2 C 0.1699(3) 0.7122(4) 0.5944(4)
H1_2 H 0.179886 0.753364 0.615275
C2_2 C 0.1759(3) 0.8674(4) 0.5690(4)
C3_2 C 0.2959(3) 0.9677(4) 0.3786(4)
H2_2 H 0.319270 0.965360 0.422829
C4_2 C 0.1227(4) 0.6074(5) 0.5716(4)
H3_2 H 0.093112 0.561993 0.575213
C5_2 C 0.3361(3) 0.8669(4) 0.4897(4)
C6_2 C 0.1054(3) 0.8304(5) 0.5618(5)
H4_2 H 0.078844 0.808172 0.605984
C7_2 C 0.2609(3) 0.7553(4) 0.4926(3)
C8_2 C 0.1844(3) 0.8988(4) 0.4369(4)
C9_2 C 0.3597(3) 0.8592(4) 0.4143(4)
H5_2 H 0.392888 0.895872 0.387179
C10_2 C 0.2832(3) 0.7427(4) 0.4208(4)
H6_2 H 0.265451 0.700011 0.399790
C11_2 C 0.2720(3) 0.9916(5) 0.2626(4)
C12_2 C 0.3335(3) 0.7978(4) 0.3822(4)
H8_2 H 0.349519 0.792340 0.333115
C13_2 C 0.1738(4) 0.6358(5) 0.5206(4)
H9_2 H 0.185954 0.614315 0.482730
C14_2 C 0.1164(3) 0.8633(5) 0.4243(5)
H10_2 H 0.097941 0.863082 0.374358
C15_2 C 0.2144(3) 0.9541(5) 0.3000(4)
H11_2 H 0.172285 0.941484 0.280011
C16_2 C 0.0777(4) 0.8286(6) 0.4880(5)
H12_2 H 0.031868 0.803285 0.481582
Zn3_2 Zn 0.05725(3) 0.63542(5) 0.71299(4)
N8_2 N 0.3217(4) 0.8683(5) 0.7152(3)
Zn1_3 Zn 0.08849(4) 0.39058(3) 0.62034(4)
O1_3 O 0.0766(3) 0.4361(2) 0.5261(2)
O2_3 O 0.13223(28) 0.3380(2) 0.6352(2)
N1_3 N 0.1865(3) 0.4719(2) 0.5274(3)
N3_3 N 0.3450(4) 0.4650(2) 0.6181(3)
N4_3 N 0.0977(3) 0.3114(2) 0.5063(3)
N5_3 N 0.0626(4) 0.2917(3) 0.3741(3)
N6_3 N 0.2970(3) 0.5020(2) 0.5350(3)
C1_3 C 0.2878(4) 0.4577(3) 0.5944(4)
H1_3 H 0.246636 0.426522 0.615275
C2_3 C 0.1326(4) 0.3085(3) 0.5690(4)
C3_3 C 0.0323(4) 0.3282(3) 0.3786(4)
H2_3 H 0.034640 0.353910 0.422829
C4_3 C 0.3926(5) 0.5153(3) 0.5716(4)
H3_3 H 0.438007 0.531119 0.575213
C5_3 C 0.1331(4) 0.4692(3) 0.4897(4)
C6_3 C 0.1696(5) 0.2750(4) 0.5618(5)
H4_3 H 0.191828 0.270672 0.605984
C7_3 C 0.2447(4) 0.5056(3) 0.4926(3)
C8_3 C 0.1012(4) 0.2856(3) 0.4369(4)
C9_3 C 0.1408(4) 0.5005(3) 0.4143(4)
H5_3 H 0.104128 0.497016 0.387179
C10_3 C 0.2573(4) 0.5405(3) 0.4208(4)
H6_3 H 0.299989 0.565440 0.399790
C11_3 C 0.0084(5) 0.2804(4) 0.2626(4)
C12_3 C 0.2022(4) 0.5357(3) 0.3822(4)
H8_3 H 0.207660 0.557179 0.333115
C13_3 C 0.3642(5) 0.5380(3) 0.5206(4)
H9_3 H 0.385685 0.571639 0.482730
C14_3 C 0.1367(5) 0.2531(4) 0.4243(5)
H10_3 H 0.136918 0.234859 0.374358
C15_3 C 0.0459(5) 0.2603(4) 0.3000(4)
H11_3 H 0.058516 0.230801 0.280011
C16_3 C 0.1714(6) 0.2491(4) 0.4880(5)
H12_3 H 0.196715 0.228583 0.481582
Zn3_3 Zn 0.36458(5) 0.42182(4) 0.71299(4)
N8_3 N 0.1317(5) 0.4533(3) 0.7152(3)
N2_3 N 0.9992(3) 0.3227(2) 0.3122(3)
H7_3 H 0.990872 0.267730 0.210948
Zn2_3 Zn 0.94275(5) 0.36458(3) 0.28701(4)
N7_3 N 0.9902(4) 0.3341(3) 0.6455(3)
Zn3_4 Zn 0.24484(4) 0.27609(3) 0.04633(4)
N8_4 N 0.2133(3) 0.0117(4) 0.0486(3)
Zn1_4 Zn 0.27609(3) 0.03124(3) 0.95367(4)
O2_4 O 0.3287(2) 0.12756(19) 0.9685(2)
N1_4 N 0.1948(2) 0.0479(2) 0.8607(3)
N3_4 N 0.2017(2) 0.2133(3) 0.9514(3)
N4_4 N 0.3553(2) 0.1196(2) 0.8396(3)
N5_4 N 0.3750(3) 0.1042(2) 0.7074(3)
N6_4 N 0.1647(2) 0.1283(2) 0.8683(3)
C1_4 C 0.2090(3) 0.1634(3) 0.9277(4)
H1_4 H 0.240145 0.153447 0.948608
C2_4 C 0.3582(3) 0.1574(3) 0.9023(4)
C3_4 C 0.3385(3) 0.0374(3) 0.7119(4)
H2_4 H 0.312757 0.014063 0.756162
C4_4 C 0.1514(3) 0.2106(4) 0.9049(4)
H3_4 H 0.135548 0.240221 0.908546
C6_4 C 0.3917(4) 0.2279(3) 0.8951(5)
H4_4 H 0.395995 0.254489 0.939317
C7_4 C 0.1611(3) 0.0724(3) 0.8259(3)
C8_4 C 0.3811(3) 0.1489(3) 0.7702(4)
C10_4 C 0.1262(3) 0.0501(3) 0.7541(4)
H6_4 H 0.101227 0.067882 0.733123
C11_4 C 0.3863(4) 0.0613(3) 0.5959(4)
H7_4 H 0.398937 0.056475 0.544281
C13_4 C 0.1287(3) 0.1595(4) 0.8539(4)
H9_4 H 0.095028 0.147379 0.816063
C14_4 C 0.4136(4) 0.2169(3) 0.7576(5)
H10_4 H 0.431808 0.235392 0.707691
C15_4 C 0.4064(4) 0.1189(3) 0.6333(4)
H11_4 H 0.435866 0.161048 0.613344
C16_4 C 0.4176(4) 0.2556(4) 0.8213(5)
H12_4 H 0.438084 0.301465 0.814915
O1_4 O 0.2306(2) 0.9738(2) 0.8594(2)
C5_4 C 0.1975(3) 0.9972(3) 0.8230(4)
C9_4 C 0.1662(3) 0.9736(3) 0.7476(4)
H5_4 H 0.169651 0.940445 0.720512
C12_4 C 0.1310(3) 0.9998(3) 0.7155(4)
H8_4 H 0.109488 0.983814 0.666448
N7_4 N 0.3325(3) 0.9894(2) 0.9789(3)
O1_5 O 0.0262(2) 0.2567(3) 0.8594(2)
C5_5 C 0.0028(3) 0.2002(4) 0.8230(4)
C9_5 C 0.0264(3) 0.1925(4) 0.7476(4)
H5_5 H 0.059555 0.229205 0.720512
C12_5 C 0.0002(3) 0.1311(4) 0.7155(4)
H8_5 H 0.016186 0.125673 0.666448
N7_5 N 0.0106(2) 0.3432(4) 0.9789(3)
Zn1_5 Zn 0.96876(3) 0.24484(4) 0.95367(4)
O2_5 O 0.87244(19) 0.20110(28) 0.9685(2)
N1_5 N 0.9521(2) 0.1468(3) 0.8607(3)
N4_5 N 0.8804(2) 0.2356(3) 0.8396(3)
N5_5 N 0.8958(2) 0.2707(4) 0.7074(3)
N6_5 N 0.8717(2) 0.0363(3) 0.8683(3)
C1_5 C 0.8366(3) 0.0455(4) 0.9277(4)
H1_5 H 0.846553 0.086697 0.948608
C2_5 C 0.8426(3) 0.2007(4) 0.9023(4)
C3_5 C 0.9626(3) 0.3010(4) 0.7119(4)
H2_5 H 0.985937 0.298693 0.756162
C6_5 C 0.7721(3) 0.1637(5) 0.8951(5)
H4_5 H 0.745511 0.141505 0.939317
C7_5 C 0.9276(3) 0.0886(4) 0.8259(3)
C8_5 C 0.8511(3) 0.2321(4) 0.7702(4)
C10_5 C 0.9499(3) 0.0760(4) 0.7541(4)
H6_5 H 0.932118 0.033344 0.733123
C11_5 C 0.9387(3) 0.3249(5) 0.5959(4)
H7_5 H 0.943525 0.342461 0.544281
C14_5 C 0.7831(3) 0.1966(5) 0.7576(5)
H10_5 H 0.764608 0.196415 0.707691
C15_5 C 0.8811(3) 0.2874(5) 0.6333(4)
H11_5 H 0.838952 0.274817 0.613344
C16_5 C 0.7444(4) 0.1619(6) 0.8213(5)
H12_5 H 0.698535 0.136618 0.814915
Zn3_5 Zn 0.72391(3) 0.96876(5) 0.04633(4)
N3_5 N 0.7867(3) 0.9883(4) 0.9514(3)
C4_5 C 0.7894(4) 0.9407(5) 0.9049(4)
H3_5 H 0.759779 0.895326 0.908546
C13_5 C 0.8405(4) 0.9691(5) 0.8539(4)
H9_5 H 0.852621 0.947648 0.816063
Zn3_6 Zn 0.03124(5) 0.75516(4) 0.04633(4)
N8_5 N 0.7983(5) 0.7867(3) 0.0486(3)
Zn1_6 Zn 0.75516(4) 0.72391(3) 0.95367(4)
O1_6 O 0.7433(3) 0.7694(2) 0.8594(2)
O2_6 O 0.79890(28) 0.6713(2) 0.9685(2)
N1_6 N 0.8532(3) 0.8052(2) 0.8607(3)
N4_6 N 0.7644(3) 0.6447(2) 0.8396(3)
N5_6 N 0.7293(4) 0.6250(3) 0.7074(3)
N6_6 N 0.9637(3) 0.8353(2) 0.8683(3)
C1_6 C 0.9545(4) 0.7910(3) 0.9277(4)
H1_6 H 0.913303 0.759855 0.948608
C2_6 C 0.7993(4) 0.6418(3) 0.9023(4)
C3_6 C 0.6990(4) 0.6615(3) 0.7119(4)
H2_6 H 0.701307 0.687243 0.756162
C5_6 C 0.7998(4) 0.8025(3) 0.8230(4)
C6_6 C 0.8363(5) 0.6083(4) 0.8951(5)
H4_6 H 0.858495 0.604005 0.939317
C7_6 C 0.9114(4) 0.8389(3) 0.8259(3)
C8_6 C 0.7679(4) 0.6189(3) 0.7702(4)
C9_6 C 0.8075(4) 0.8338(3) 0.7476(4)
H5_6 H 0.770795 0.830349 0.720512
C10_6 C 0.9240(4) 0.8738(3) 0.7541(4)
H6_6 H 0.966656 0.898773 0.733123
C11_6 C 0.6751(5) 0.6137(4) 0.5959(4)
H7_6 H 0.657539 0.601063 0.544281
C12_6 C 0.8689(4) 0.8690(3) 0.7155(4)
H8_6 H 0.874327 0.890512 0.666448
C14_6 C 0.8034(5) 0.5864(4) 0.7576(5)
H10_6 H 0.803585 0.568192 0.707691
C15_6 C 0.7126(5) 0.5936(4) 0.6333(4)
H11_6 H 0.725183 0.564134 0.613344
C16_6 C 0.8381(6) 0.5824(4) 0.8213(5)
H12_6 H 0.863382 0.561916 0.814915
N7_6 N 0.6568(4) 0.6675(3) 0.9789(3)
C11_7 C 0.0529(4) 0.3947(3) 0.9293(4)
H7_7 H 0.065603 0.389809 0.877615
C15_7 C 0.0730(4) 0.4523(3) 0.9667(4)
H11_7 H 0.102532 0.494382 0.946678
O1_7 O 0.8972(2) 0.3072(2) 0.1928(2)
O2_7 O 0.9953(2) 0.46090(19) 0.3019(2)
N1_7 N 0.8614(2) 0.3813(2) 0.1941(3)
N3_6 N 0.8683(2) 0.5467(3) 0.2848(3)
N6_7 N 0.8313(2) 0.4617(2) 0.2017(3)
C1_7 C 0.8756(3) 0.4968(3) 0.2611(4)
H1_7 H 0.906811 0.486781 0.281942
H2_7 H 0.979423 0.347397 0.089496
C4_6 C 0.8180(3) 0.5440(4) 0.2383(4)
H3_6 H 0.802214 0.573555 0.241880
C5_7 C 0.8641(3) 0.3306(3) 0.1564(4)
C7_7 C 0.8277(3) 0.4058(3) 0.1593(3)
C9_7 C 0.8328(3) 0.3070(3) 0.0810(4)
H5_7 H 0.836317 0.273779 0.053846
C10_7 C 0.7928(3) 0.3835(3) 0.0875(4)
H6_7 H 0.767893 0.401216 0.066457
C12_7 C 0.7976(3) 0.3332(3) 0.0489(4)
C13_6 C 0.7953(3) 0.4929(4) 0.1873(4)
H9_6 H 0.761694 0.480713 0.149397
Zn3_7 Zn 0.91151(4) 0.60942(3) 0.37966(4)
N8_6 N 0.8800(3) 0.3450(4) 0.3819(3)
H8_7 H 0.776154 0.317148 0.999782
O1_8 O 0.6928(2) 0.5901(3) 0.1928(2)
O2_8 O 0.53910(19) 0.53444(28) 0.3019(2)
N1_8 N 0.6187(2) 0.4802(3) 0.1941(3)
N3_7 N 0.4533(3) 0.3217(4) 0.2848(3)
N4_7 N 0.5470(2) 0.5690(3) 0.1730(3)
N5_7 N 0.5624(2) 0.6041(4) 0.0408(3)
N6_8 N 0.5383(2) 0.3697(3) 0.2017(3)
C1_8 C 0.5032(3) 0.3789(4) 0.2611(4)
H1_8 H 0.513219 0.420031 0.281942
C2_7 C 0.5092(3) 0.5341(4) 0.2357(4)
C3_7 C 0.6292(3) 0.6344(4) 0.0453(4)
H2_8 H 0.652603 0.632027 0.089496
C4_7 C 0.4560(4) 0.2741(5) 0.2383(4)
H3_7 H 0.426445 0.228660 0.241880
C5_8 C 0.6694(3) 0.5336(4) 0.1564(4)
C6_7 C 0.4387(3) 0.4971(5) 0.2285(5)
H4_7 H 0.412177 0.474839 0.272651
C7_8 C 0.5942(3) 0.4220(4) 0.1593(3)
C8_7 C 0.5177(3) 0.5655(4) 0.1036(4)
C9_8 C 0.6930(3) 0.5259(4) 0.0810(4)
H5_8 H 0.726221 0.562539 0.053846
C10_8 C 0.6165(3) 0.4094(4) 0.0875(4)
H6_8 H 0.598784 0.366678 0.066457
C12_8 C 0.6668(3) 0.4645(4) 0.0489(4)
C13_7 C 0.5071(4) 0.3025(5) 0.1873(4)
H9_7 H 0.519287 0.280982 0.149397
C14_7 C 0.4497(3) 0.5300(5) 0.0910(5)
H10_7 H 0.431274 0.529749 0.041025
C16_7 C 0.4110(4) 0.4953(6) 0.1547(5)
H12_7 H 0.365201 0.469952 0.148249
Zn3_8 Zn 0.39058(3) 0.30209(5) 0.37966(4)
N8_7 N 0.6550(4) 0.5350(5) 0.3819(3)
C11_8 C 0.6053(3) 0.6583(5) 0.9293(4)
H7_8 H 0.610191 0.675795 0.877615
H8_8 H 0.682852 0.459007 0.999782
C15_8 C 0.5477(3) 0.6208(5) 0.9667(4)
H11_8 H 0.505618 0.608151 0.946678
O1_9 O 0.4099(3) 0.1028(2) 0.1928(2)
O2_9 O 0.46556(28) 0.0047(2) 0.3019(2)
N1_9 N 0.5198(3) 0.1386(2) 0.1941(3)
N3_8 N 0.6783(4) 0.1317(2) 0.2848(3)
N6_9 N 0.6303(3) 0.1687(2) 0.2017(3)
C1_9 C 0.6211(4) 0.1244(3) 0.2611(4)
H1_9 H 0.579969 0.093189 0.281942
H2_9 H 0.367973 0.020577 0.089496
C4_8 C 0.7259(5) 0.1820(3) 0.2383(4)
H3_8 H 0.771340 0.197786 0.241880
C5_9 C 0.4664(4) 0.1359(3) 0.1564(4)
C7_9 C 0.5780(4) 0.1723(3) 0.1593(3)
C9_9 C 0.4741(4) 0.1672(3) 0.0810(4)
H5_9 H 0.437461 0.163683 0.053846
C10_9 C 0.5906(4) 0.2072(3) 0.0875(4)
H6_9 H 0.633322 0.232107 0.066457
C12_9 C 0.5355(4) 0.2024(3) 0.0489(4)
C13_8 C 0.6975(5) 0.2047(3) 0.1873(4)
H9_8 H 0.719018 0.238306 0.149397
Zn3_9 Zn 0.69791(5) 0.08849(4) 0.37966(4)
N8_8 N 0.4650(5) 0.1200(3) 0.3819(3)
H8_9 H 0.540993 0.223846 0.999782
C11_9 C 0.3417(5) 0.9471(4) 0.9293(4)
H7_9 H 0.324205 0.934397 0.877615
C15_9 C 0.3792(5) 0.9270(4) 0.9667(4)
H11_9 H 0.391849 0.897468 0.946678
O1_10 O 0.4361(2) 0.3595(2) 0.4739(2)
O2_10 O 0.3380(2) 0.20577(19) 0.3648(2)
N1_10 N 0.4719(2) 0.2854(2) 0.4726(3)
N2_4 N 0.3227(2) 0.3235(2) 0.6878(3)
N4_8 N 0.3114(2) 0.2137(2) 0.4937(3)
N5_8 N 0.2917(3) 0.2291(2) 0.6259(3)
N6_10 N 0.5020(2) 0.2050(2) 0.4650(3)
C1_10 C 0.4577(3) 0.1699(3) 0.4056(4)
H1_10 H 0.426522 0.179886 0.384725
C2_8 C 0.3085(3) 0.1759(3) 0.4310(4)
C3_8 C 0.3282(3) 0.2959(3) 0.6214(4)
H2_10 H 0.353910 0.319270 0.577171
C4_9 C 0.5153(3) 0.1227(4) 0.4284(4)
H3_9 H 0.531119 0.093112 0.424787
C5_10 C 0.4692(3) 0.3361(3) 0.5103(4)
C6_8 C 0.2750(4) 0.1054(3) 0.4382(5)
H4_8 H 0.270672 0.078844 0.394016
C7_10 C 0.5056(3) 0.2609(3) 0.5074(3)
C8_8 C 0.2856(3) 0.1844(3) 0.5631(4)
C9_10 C 0.5005(3) 0.3597(3) 0.5857(4)
H5_10 H 0.497016 0.392888 0.612821
C10_10 C 0.5405(3) 0.2832(3) 0.5792(4)
H6_10 H 0.565440 0.265451 0.600210
C11_10 C 0.2804(4) 0.2720(3) 0.7374(4)
H7_10 H 0.267730 0.276858 0.789052
C12_10 C 0.5357(3) 0.3335(3) 0.6178(4)
H8_10 H 0.557179 0.349519 0.666885
C13_9 C 0.5380(3) 0.1738(4) 0.4794(4)
H9_9 H 0.571639 0.185954 0.517270
C14_8 C 0.2531(4) 0.1164(3) 0.5757(5)
H10_8 H 0.234859 0.097941 0.625642
C15_10 C 0.2603(4) 0.2144(3) 0.7000(4)
H11_10 H 0.230801 0.172285 0.719989
C16_8 C 0.2491(4) 0.0777(4) 0.5120(5)
H12_8 H 0.228583 0.031868 0.518418
N7_7 N 0.3341(3) 0.3440(2) 0.3545(3)
O1_11 O 0.6405(2) 0.0766(3) 0.4739(2)
O2_11 O 0.79423(19) 0.13223(28) 0.3648(2)
N1_11 N 0.7146(2) 0.1865(3) 0.4726(3)
N4_9 N 0.7863(2) 0.0977(3) 0.4937(3)
N5_9 N 0.7709(2) 0.0626(4) 0.6259(3)
N6_11 N 0.7950(2) 0.2970(3) 0.4650(3)
C1_11 C 0.8301(3) 0.2878(4) 0.4056(4)
H1_11 H 0.820114 0.246636 0.384725
C2_9 C 0.8241(3) 0.1326(4) 0.4310(4)
C3_9 C 0.7041(3) 0.0323(4) 0.6214(4)
H2_11 H 0.680730 0.034640 0.577171
C4_10 C 0.8773(4) 0.3926(5) 0.4284(4)
H3_10 H 0.906888 0.438007 0.424787
C5_11 C 0.6639(3) 0.1331(4) 0.5103(4)
C6_9 C 0.8946(3) 0.1696(5) 0.4382(5)
H4_9 H 0.921156 0.191828 0.394016
C7_11 C 0.7391(3) 0.2447(4) 0.5074(3)
C8_9 C 0.8156(3) 0.1012(4) 0.5631(4)
C9_11 C 0.6403(3) 0.1408(4) 0.5857(4)
H5_11 H 0.607112 0.104128 0.612821
C10_11 C 0.7168(3) 0.2573(4) 0.5792(4)
H6_11 H 0.734549 0.299989 0.600210
C11_11 C 0.7280(3) 0.0084(5) 0.7374(4)
C12_11 C 0.6665(3) 0.2022(4) 0.6178(4)
H8_11 H 0.650481 0.207660 0.666885
C13_10 C 0.8262(4) 0.3642(5) 0.4794(4)
H9_10 H 0.814046 0.385685 0.517270
C14_9 C 0.8836(3) 0.1367(5) 0.5757(5)
H10_9 H 0.902059 0.136918 0.625642
C15_11 C 0.7856(3) 0.0459(5) 0.7000(4)
H11_11 H 0.827715 0.058516 0.719989
C16_9 C 0.9223(4) 0.1714(6) 0.5120(5)
H12_9 H 0.968132 0.196715 0.518418
N2_5 N 0.6765(2) 0.9992(3) 0.6878(3)
H7_11 H 0.723142 0.990872 0.789052
N7_8 N 0.6560(2) 0.9902(4) 0.3545(3)
N2_6 N 0.0008(3) 0.6773(2) 0.6878(3)
H7_12 H 0.009128 0.732270 0.789052
N7_9 N 0.0098(4) 0.6659(3) 0.3545(3)
O1_12 O 0.9234(3) 0.5639(2) 0.4739(2)
O2_12 O 0.86777(28) 0.6620(2) 0.3648(2)
N1_12 N 0.8135(3) 0.5281(2) 0.4726(3)
N4_10 N 0.9023(3) 0.6886(2) 0.4937(3)
N5_10 N 0.9374(4) 0.7083(3) 0.6259(3)
N6_12 N 0.7030(3) 0.4980(2) 0.4650(3)
C1_12 C 0.7122(4) 0.5423(3) 0.4056(4)
H1_12 H 0.753364 0.573478 0.384725
C2_10 C 0.8674(4) 0.6915(3) 0.4310(4)
C3_10 C 0.9677(4) 0.6718(3) 0.6214(4)
H2_12 H 0.965360 0.646090 0.577171
C4_11 C 0.6074(5) 0.4847(3) 0.4284(4)
H3_11 H 0.561993 0.468881 0.424787
C5_12 C 0.8669(4) 0.5308(3) 0.5103(4)
C6_10 C 0.8304(5) 0.7250(4) 0.4382(5)
H4_10 H 0.808172 0.729328 0.394016
C7_12 C 0.7553(4) 0.4944(3) 0.5074(3)
C8_10 C 0.8988(4) 0.7144(3) 0.5631(4)
C9_12 C 0.8592(4) 0.4995(3) 0.5857(4)
H5_12 H 0.895872 0.502984 0.612821
C10_12 C 0.7427(4) 0.4595(3) 0.5792(4)
H6_12 H 0.700011 0.434560 0.600210
C11_12 C 0.9916(5) 0.7196(4) 0.7374(4)
C12_12 C 0.7978(4) 0.4643(3) 0.6178(4)
H8_12 H 0.792340 0.442821 0.666885
C13_11 C 0.6358(5) 0.4620(3) 0.4794(4)
H9_11 H 0.614315 0.428361 0.517270
C14_10 C 0.8633(5) 0.7469(4) 0.5757(5)
H10_10 H 0.863082 0.765141 0.625642
C15_12 C 0.9541(5) 0.7397(4) 0.7000(4)
H11_12 H 0.941484 0.769199 0.719989
C16_10 C 0.8286(6) 0.7509(4) 0.5120(5)
H12_10 H 0.803285 0.771417 0.518418
O1_13 O 0.7694(2) 0.0262(2) 0.1406(2)
C5_13 C 0.8025(3) 0.0028(3) 0.1770(4)
C9_13 C 0.8338(3) 0.0264(3) 0.2524(4)
H5_13 H 0.830349 0.059555 0.279488
C12_13 C 0.8690(3) 0.0002(3) 0.2845(4)
H8_13 H 0.890512 0.016186 0.333552
N7_10 N 0.6675(3) 0.0106(2) 0.0211(3)
O2_13 O 0.6713(2) 0.87244(19) 0.0315(2)
N1_13 N 0.8052(2) 0.9521(2) 0.1393(3)
N4_11 N 0.6447(2) 0.8804(2) 0.1604(3)
N5_11 N 0.6250(3) 0.8958(2) 0.2926(3)
N6_13 N 0.8353(2) 0.8717(2) 0.1317(3)
C1_13 C 0.7910(3) 0.8366(3) 0.0723(4)
H1_13 H 0.759855 0.846553 0.051392
C2_11 C 0.6418(3) 0.8426(3) 0.0977(4)
C3_11 C 0.6615(3) 0.9626(3) 0.2881(4)
H2_13 H 0.687243 0.985937 0.243838
C4_12 C 0.8486(3) 0.7894(4) 0.0951(4)
H3_12 H 0.864452 0.759779 0.091454
C6_11 C 0.6083(4) 0.7721(3) 0.1049(5)
H4_11 H 0.604005 0.745511 0.060683
C7_13 C 0.8389(3) 0.9276(3) 0.1741(3)
C8_11 C 0.6189(3) 0.8511(3) 0.2298(4)
C10_13 C 0.8738(3) 0.9499(3) 0.2459(4)
H6_13 H 0.898773 0.932118 0.266877
C11_13 C 0.6137(4) 0.9387(3) 0.4041(4)
H7_13 H 0.601063 0.943525 0.455719
C13_12 C 0.8713(3) 0.8405(4) 0.1461(4)
H9_12 H 0.904972 0.852621 0.183937
C14_11 C 0.5864(4) 0.7831(3) 0.2424(5)
H10_11 H 0.568192 0.764608 0.292309
C15_13 C 0.5936(4) 0.8811(3) 0.3667(4)
H11_13 H 0.564134 0.838952 0.386656
C16_11 C 0.5824(4) 0.7444(4) 0.1787(5)
H12_11 H 0.561916 0.698535 0.185085
C4_13 C 0.2106(4) 0.0593(5) 0.0951(4)
H3_13 H 0.240221 0.104674 0.091454
C13_13 C 0.1595(4) 0.0309(5) 0.1461(4)
H9_13 H 0.147379 0.052352 0.183937
O2_14 O 0.12756(19) 0.79890(28) 0.0315(2)
N1_14 N 0.0479(2) 0.8532(3) 0.1393(3)
N4_12 N 0.1196(2) 0.7644(3) 0.1604(3)
N5_12 N 0.1042(2) 0.7293(4) 0.2926(3)
N6_14 N 0.1283(2) 0.9637(3) 0.1317(3)
C1_14 C 0.1634(3) 0.9545(4) 0.0723(4)
H1_14 H 0.153447 0.913303 0.051392
C2_12 C 0.1574(3) 0.7993(4) 0.0977(4)
C3_12 C 0.0374(3) 0.6990(4) 0.2881(4)
H2_14 H 0.014063 0.701307 0.243838
C6_12 C 0.2279(3) 0.8363(5) 0.1049(5)
H4_12 H 0.254489 0.858495 0.060683
C7_14 C 0.0724(3) 0.9114(4) 0.1741(3)
C8_12 C 0.1489(3) 0.7679(4) 0.2298(4)
C10_14 C 0.0501(3) 0.9240(4) 0.2459(4)
H6_14 H 0.067882 0.966656 0.266877
C11_14 C 0.0613(3) 0.6751(5) 0.4041(4)
H7_14 H 0.056475 0.657539 0.455719
C14_12 C 0.2169(3) 0.8034(5) 0.2424(5)
H10_12 H 0.235392 0.803585 0.292309
C15_14 C 0.1189(3) 0.7126(5) 0.3667(4)
H11_14 H 0.161048 0.725183 0.386656
C16_12 C 0.2556(4) 0.8381(6) 0.1787(5)
H12_12 H 0.301465 0.863382 0.185085
O1_14 O 0.9738(2) 0.7433(3) 0.1406(2)
C5_14 C 0.9972(3) 0.7998(4) 0.1770(4)
C9_14 C 0.9736(3) 0.8075(4) 0.2524(4)
H5_14 H 0.940445 0.770795 0.279488
C12_14 C 0.9998(3) 0.8689(4) 0.2845(4)
H8_14 H 0.983814 0.874327 0.333552
N7_11 N 0.9894(2) 0.6568(4) 0.0211(3)
O1_15 O 0.2567(3) 0.2306(2) 0.1406(2)
O2_15 O 0.20110(28) 0.3287(2) 0.0315(2)
N1_15 N 0.1468(3) 0.1948(2) 0.1393(3)
N4_13 N 0.2356(3) 0.3553(2) 0.1604(3)
N5_13 N 0.2707(4) 0.3750(3) 0.2926(3)
N6_15 N 0.0363(3) 0.1647(2) 0.1317(3)
C1_15 C 0.0455(4) 0.2090(3) 0.0723(4)
H1_15 H 0.086697 0.240145 0.051392
C2_13 C 0.2007(4) 0.3582(3) 0.0977(4)
C3_13 C 0.3010(4) 0.3385(3) 0.2881(4)
H2_15 H 0.298693 0.312757 0.243838
C5_15 C 0.2002(4) 0.1975(3) 0.1770(4)
C6_13 C 0.1637(5) 0.3917(4) 0.1049(5)
H4_13 H 0.141505 0.395995 0.060683
C7_15 C 0.0886(4) 0.1611(3) 0.1741(3)
C8_13 C 0.2321(4) 0.3811(3) 0.2298(4)
C9_15 C 0.1925(4) 0.1662(3) 0.2524(4)
H5_15 H 0.229205 0.169651 0.279488
C10_15 C 0.0760(4) 0.1262(3) 0.2459(4)
H6_15 H 0.033344 0.101227 0.266877
C11_15 C 0.3249(5) 0.3863(4) 0.4041(4)
H7_15 H 0.342461 0.398937 0.455719
C12_15 C 0.1311(4) 0.1310(3) 0.2845(4)
H8_15 H 0.125673 0.109488 0.333552
C14_13 C 0.1966(5) 0.4136(4) 0.2424(5)
H10_13 H 0.196415 0.431808 0.292309
C15_15 C 0.2874(5) 0.4064(4) 0.3667(4)
H11_15 H 0.274817 0.435866 0.386656
C16_13 C 0.1619(6) 0.4176(4) 0.1787(5)
H12_13 H 0.136618 0.438084 0.185085
N7_12 N 0.3432(4) 0.3325(3) 0.0211(3)
H8_16 H 0.223846 0.682852 0.000218
O1_16 O 0.1028(2) 0.6928(2) 0.8072(2)
O2_16 O 0.0047(2) 0.53910(19) 0.6981(2)
N1_16 N 0.1386(2) 0.6187(2) 0.8059(3)
N6_16 N 0.1687(2) 0.5383(2) 0.7983(3)
C1_16 C 0.1244(3) 0.5032(3) 0.7389(4)
H1_16 H 0.093189 0.513219 0.718058
H2_16 H 0.020577 0.652603 0.910504
C4_14 C 0.1820(3) 0.4560(4) 0.7617(4)
H3_14 H 0.197786 0.426445 0.758120
C5_16 C 0.1359(3) 0.6694(3) 0.8436(4)
C7_16 C 0.1723(3) 0.5942(3) 0.8407(3)
C9_16 C 0.1672(3) 0.6930(3) 0.9190(4)
H5_16 H 0.163683 0.726221 0.946154
C10_16 C 0.2072(3) 0.6165(3) 0.9125(4)
H6_16 H 0.232107 0.598784 0.933543
C12_16 C 0.2024(3) 0.6668(3) 0.9511(4)
C13_14 C 0.2047(3) 0.5071(4) 0.8127(4)
H9_14 H 0.238306 0.519287 0.850603
C11_16 C 0.9471(4) 0.6053(3) 0.0707(4)
H7_16 H 0.934397 0.610191 0.122385
C15_16 C 0.9270(4) 0.5477(3) 0.0333(4)
H11_16 H 0.897468 0.505618 0.053322
C11_17 C 0.3947(3) 0.3417(5) 0.0707(4)
H7_17 H 0.389809 0.324205 0.122385
H8_17 H 0.317148 0.540993 0.000218
C15_17 C 0.4523(3) 0.3792(5) 0.0333(4)
H11_17 H 0.494382 0.391849 0.053322
O1_17 O 0.3072(2) 0.4099(3) 0.8072(2)
O2_17 O 0.46090(19) 0.46556(28) 0.6981(2)
N1_17 N 0.3813(2) 0.5198(3) 0.8059(3)
N4_14 N 0.4530(2) 0.4310(3) 0.8270(3)
N5_14 N 0.4376(2) 0.3959(4) 0.9592(3)
N6_17 N 0.4617(2) 0.6303(3) 0.7983(3)
C1_17 C 0.4968(3) 0.6211(4) 0.7389(4)
H1_17 H 0.486781 0.579969 0.718058
C2_14 C 0.4908(3) 0.4659(4) 0.7643(4)
C3_14 C 0.3708(3) 0.3656(4) 0.9547(4)
H2_17 H 0.347397 0.367973 0.910504
C4_15 C 0.5440(4) 0.7259(5) 0.7617(4)
H3_15 H 0.573555 0.771340 0.758120
C5_17 C 0.3306(3) 0.4664(4) 0.8436(4)
C6_14 C 0.5613(3) 0.5029(5) 0.7715(5)
H4_14 H 0.587823 0.525161 0.727349
C7_17 C 0.4058(3) 0.5780(4) 0.8407(3)
C8_14 C 0.4823(3) 0.4345(4) 0.8964(4)
C9_17 C 0.3070(3) 0.4741(4) 0.9190(4)
H5_17 H 0.273779 0.437461 0.946154
C10_17 C 0.3835(3) 0.5906(4) 0.9125(4)
H6_17 H 0.401216 0.633322 0.933543
C12_17 C 0.3332(3) 0.5355(4) 0.9511(4)
C13_15 C 0.4929(4) 0.6975(5) 0.8127(4)
H9_15 H 0.480713 0.719018 0.850603
C14_14 C 0.5503(3) 0.4700(5) 0.9090(5)
H10_14 H 0.568726 0.470251 0.958975
C16_14 C 0.5890(4) 0.5047(6) 0.8453(5)
H12_14 H 0.634799 0.530048 0.851751
C11_18 C 0.6583(5) 0.0529(4) 0.0707(4)
H7_18 H 0.675795 0.065603 0.122385
C15_18 C 0.6208(5) 0.0730(4) 0.0333(4)
H11_18 H 0.608151 0.102532 0.053322
H8_18 H 0.459007 0.776154 0.000218
O1_18 O 0.5901(3) 0.8972(2) 0.8072(2)
O2_18 O 0.53444(28) 0.9953(2) 0.6981(2)
N1_18 N 0.4802(3) 0.8614(2) 0.8059(3)
N6_18 N 0.3697(3) 0.8313(2) 0.7983(3)
C1_18 C 0.3789(4) 0.8756(3) 0.7389(4)
H1_18 H 0.420031 0.906811 0.718058
H2_18 H 0.632027 0.979423 0.910504
C4_16 C 0.2741(5) 0.8180(3) 0.7617(4)
H3_16 H 0.228660 0.802214 0.758120
C5_18 C 0.5336(4) 0.8641(3) 0.8436(4)
C7_18 C 0.4220(4) 0.8277(3) 0.8407(3)
C9_18 C 0.5259(4) 0.8328(3) 0.9190(4)
H5_18 H 0.562539 0.836317 0.946154
C10_18 C 0.4094(4) 0.7928(3) 0.9125(4)
H6_18 H 0.366678 0.767893 0.933543
C12_18 C 0.4645(4) 0.7976(3) 0.9511(4)
C13_16 C 0.3025(5) 0.7953(3) 0.8127(4)
H9_16 H 0.280982 0.761694 0.850603
N8_9 N 0.9883(4) 0.2017(5) 0.0486(3)
C4_17 C 0.9407(5) 0.1514(3) 0.0951(4)
H3_17 H 0.895326 0.135548 0.091454
C13_17 C 0.9691(5) 0.1287(3) 0.1461(4)
H9_17 H 0.947648 0.095028 0.183937
N3_9 N 0.0117(4) 0.7983(2) 0.9514(3)
C4_18 C 0.0593(5) 0.8486(3) 0.9049(4)
H3_18 H 0.104674 0.864452 0.908546
C13_18 C 0.0309(5) 0.8713(3) 0.8539(4)
H9_18 H 0.052352 0.904972 0.816063
N4_15 N 0.0219(2) 0.4530(2) 0.1730(3)
N5_15 N 0.0416(3) 0.4376(2) 0.0408(3)
C2_15 C 0.0248(3) 0.4908(3) 0.2357(4)
C3_15 C 0.0051(3) 0.3708(3) 0.0453(4)
C6_15 C 0.0583(4) 0.5613(3) 0.2285(5)
H4_15 H 0.062661 0.587823 0.272651
C8_15 C 0.0477(3) 0.4823(3) 0.1036(4)
C14_15 C 0.0802(4) 0.5503(3) 0.0910(5)
H10_15 H 0.098474 0.568726 0.041025
C16_15 C 0.0842(4) 0.5890(4) 0.1547(5)
H12_15 H 0.104750 0.634799 0.148249
N4_16 N 0.4310(3) 0.9781(2) 0.1730(3)
N5_16 N 0.3959(4) 0.9584(3) 0.0408(3)
C2_16 C 0.4659(4) 0.9752(3) 0.2357(4)
C3_16 C 0.3656(4) 0.9949(3) 0.0453(4)
C6_16 C 0.5029(5) 0.9417(4) 0.2285(5)
H4_16 H 0.525161 0.937339 0.272651
C8_16 C 0.4345(4) 0.9523(3) 0.1036(4)
C14_16 C 0.4700(5) 0.9198(4) 0.0910(5)
H10_16 H 0.470251 0.901526 0.041025
C16_16 C 0.5047(6) 0.9158(4) 0.1547(5)
H12_16 H 0.530048 0.895250 0.148249
N4_17 N 0.9781(2) 0.5470(2) 0.8270(3)
N5_17 N 0.9584(3) 0.5624(2) 0.9592(3)
C2_17 C 0.9752(3) 0.5092(3) 0.7643(4)
C3_17 C 0.9949(3) 0.6292(3) 0.9547(4)
C6_17 C 0.9417(4) 0.4387(3) 0.7715(5)
H4_17 H 0.937339 0.412177 0.727349
C8_17 C 0.9523(3) 0.5177(3) 0.8964(4)
C14_17 C 0.9198(4) 0.4497(3) 0.9090(5)
H10_17 H 0.901526 0.431274 0.958975
C16_17 C 0.9158(4) 0.4110(4) 0.8453(5)
H12_17 H 0.895250 0.365201 0.851751
N4_18 N 0.5690(3) 0.0219(2) 0.8270(3)
N5_18 N 0.6041(4) 0.0416(3) 0.9592(3)
C2_18 C 0.5341(4) 0.0248(3) 0.7643(4)
C3_18 C 0.6344(4) 0.0051(3) 0.9547(4)
C6_18 C 0.4971(5) 0.0583(4) 0.7715(5)
H4_18 H 0.474839 0.062661 0.727349
C8_18 C 0.5655(4) 0.0477(3) 0.8964(4)
C14_18 C 0.5300(5) 0.0802(4) 0.9090(5)
H10_18 H 0.529749 0.098474 0.958975
C16_18 C 0.4953(6) 0.0842(4) 0.8453(5)
H12_18 H 0.469952 0.104750 0.851751
loop_
_geom_bond_atom_site_label_1
_geom_bond_atom_site_label_2
_geom_bond_site_symmetry_1
_geom_bond_site_symmetry_2
Zn1 O1 1_555 1_555
O1 C5 1_555 1_555
O2 Zn1 1_555 1_555
N1 C5 1_555 1_555
N2 C3 1_555 1_555
N3 C1 1_555 1_555
N4 C2 1_555 1_555
N5 C3 1_555 1_555
N6 C1 1_555 1_555
C1 H1 1_555 1_555
C2 O2 1_555 1_555
C3 H2 1_555 1_555
C4 N3 1_555 1_555
H3 C4 1_555 1_555
C5 C9 1_555 1_555
C6 C2 1_555 1_555
H4 C6 1_555 1_555
C7 N1 1_555 1_555
C8 N4 1_555 1_555
C9 H5 1_555 1_555
C10 C7 1_555 1_555
H6 C10 1_555 1_555
C11 N2 1_555 1_555
H7 C11 1_555 1_555
C12 C9 1_555 1_555
H8 C12 1_555 1_555
C13 N6 1_555 1_555
H9 C13 1_555 1_555
C14 C8 1_555 1_555
H10 C14 1_555 1_555
C15 N5 1_555 1_555
H11 C15 1_555 1_555
C16 C6 1_555 1_555
H12 C16 1_555 1_555
Zn2 N2 1_555 1_555
Zn3 N3 1_555 1_555
N7 Zn1 1_555 1_555
N8 Zn1 1_555 1_555
N5 C8 1_555 1_555
N6 C7 1_555 1_555
C4 C13 1_555 1_555
C10 C12 1_555 1_555
C11 C15 1_555 1_555
C14 C16 1_555 1_555
Zn2_2 N2_2 1_555 1_555
Zn1_2 O1_2 1_555 1_555
O1_2 C5_2 1_555 1_555
O2_2 Zn1_2 1_555 1_555
N1_2 C5_2 1_555 1_555
N3_2 C1_2 1_555 1_555
N4_2 C2_2 1_555 1_555
N5_2 C3_2 1_555 1_555
N6_2 C1_2 1_555 1_555
C1_2 H1_2 1_555 1_555
C2_2 O2_2 1_555 1_555
C3_2 H2_2 1_555 1_555
C4_2 N3_2 1_555 1_555
H3_2 C4_2 1_555 1_555
C5_2 C9_2 1_555 1_555
C6_2 C2_2 1_555 1_555
H4_2 C6_2 1_555 1_555
C7_2 N1_2 1_555 1_555
C8_2 N4_2 1_555 1_555
C9_2 H5_2 1_555 1_555
C10_2 C7_2 1_555 1_555
H6_2 C10_2 1_555 1_555
C12_2 C9_2 1_555 1_555
H8_2 C12_2 1_555 1_555
C13_2 N6_2 1_555 1_555
H9_2 C13_2 1_555 1_555
C14_2 C8_2 1_555 1_555
H10_2 C14_2 1_555 1_555
C15_2 N5_2 1_555 1_555
H11_2 C15_2 1_555 1_555
C16_2 C6_2 1_555 1_555
H12_2 C16_2 1_555 1_555
Zn3_2 N3_2 1_555 1_555
N8_2 Zn1_2 1_555 1_555
N5_2 C8_2 1_555 1_555
N6_2 C7_2 1_555 1_555
C4_2 C13_2 1_555 1_555
C10_2 C12_2 1_555 1_555
C11_2 C15_2 1_555 1_555
C14_2 C16_2 1_555 1_555
Zn1_3 O1_3 1_555 1_555
O1_3 C5_3 1_555 1_555
O2_3 Zn1_3 1_555 1_555
N1_3 C5_3 1_555 1_555
N3_3 C1_3 1_555 1_555
N4_3 C2_3 1_555 1_555
N5_3 C3_3 1_555 1_555
N6_3 C1_3 1_555 1_555
C1_3 H1_3 1_555 1_555
C2_3 O2_3 1_555 1_555
C3_3 H2_3 1_555 1_555
C4_3 N3_3 1_555 1_555
H3_3 C4_3 1_555 1_555
C5_3 C9_3 1_555 1_555
C6_3 C2_3 1_555 1_555
H4_3 C6_3 1_555 1_555
C7_3 N1_3 1_555 1_555
C8_3 N4_3 1_555 1_555
C9_3 H5_3 1_555 1_555
C10_3 C7_3 1_555 1_555
H6_3 C10_3 1_555 1_555
C12_3 C9_3 1_555 1_555
H8_3 C12_3 1_555 1_555
C13_3 N6_3 1_555 1_555
H9_3 C13_3 1_555 1_555
C14_3 C8_3 1_555 1_555
H10_3 C14_3 1_555 1_555
C15_3 N5_3 1_555 1_555
H11_3 C15_3 1_555 1_555
C16_3 C6_3 1_555 1_555
H12_3 C16_3 1_555 1_555
Zn3_3 N3_3 1_555 1_555
N8_3 Zn1_3 1_555 1_555
N5_3 C8_3 1_555 1_555
N6_3 C7_3 1_555 1_555
C4_3 C13_3 1_555 1_555
C10_3 C12_3 1_555 1_555
C11_3 C15_3 1_555 1_555
C14_3 C16_3 1_555 1_555
Zn2_3 N2_3 1_555 1_555
O2_4 Zn1_4 1_555 1_555
N7_2 C3_4 1_555 1_555
N3_4 C1_4 1_555 1_555
N4_4 C2_4 1_555 1_555
N5_4 C3_4 1_555 1_555
N6_4 C1_4 1_555 1_555
C1_4 H1_4 1_555 1_555
C2_4 O2_4 1_555 1_555
C3_4 H2_4 1_555 1_555
C4_4 N3_4 1_555 1_555
H3_4 C4_4 1_555 1_555
C6_4 C2_4 1_555 1_555
H4_4 C6_4 1_555 1_555
C7_4 N1_4 1_555 1_555
C8_4 N4_4 1_555 1_555
C10_4 C7_4 1_555 1_555
H6_4 C10_4 1_555 1_555
C11_4 N7_2 1_555 1_555
H7_4 C11_4 1_555 1_555
C13_4 N6_4 1_555 1_555
H9_4 C13_4 1_555 1_555
C14_4 C8_4 1_555 1_555
H10_4 C14_4 1_555 1_555
C15_4 N5_4 1_555 1_555
H11_4 C15_4 1_555 1_555
C16_4 C6_4 1_555 1_555
H12_4 C16_4 1_555 1_555
N5_4 C8_4 1_555 1_555
N6_4 C7_4 1_555 1_555
C4_4 C13_4 1_555 1_555
C11_4 C15_4 1_555 1_555
C14_4 C16_4 1_555 1_555
O1_4 C5_4 1_555 1_555
C5_4 C9_4 1_555 1_555
C9_4 H5_4 1_555 1_555
C12_4 C9_4 1_555 1_555
H8_4 C12_4 1_555 1_555
O1_5 C5_5 1_555 1_555
C5_5 C9_5 1_555 1_555
C9_5 H5_5 1_555 1_555
C12_5 C9_5 1_555 1_555
H8_5 C12_5 1_555 1_555
O2_5 Zn1_5 1_555 1_555
N7_3 C3_5 1_555 1_555
N4_5 C2_5 1_555 1_555
N5_5 C3_5 1_555 1_555
N6_5 C1_5 1_555 1_555
C1_5 H1_5 1_555 1_555
C2_5 O2_5 1_555 1_555
C3_5 H2_5 1_555 1_555
C6_5 C2_5 1_555 1_555
H4_5 C6_5 1_555 1_555
C7_5 N1_5 1_555 1_555
C8_5 N4_5 1_555 1_555
C10_5 C7_5 1_555 1_555
H6_5 C10_5 1_555 1_555
C11_5 N7_3 1_555 1_555
H7_5 C11_5 1_555 1_555
C14_5 C8_5 1_555 1_555
H10_5 C14_5 1_555 1_555
C15_5 N5_5 1_555 1_555
H11_5 C15_5 1_555 1_555
C16_5 C6_5 1_555 1_555
H12_5 C16_5 1_555 1_555
N5_5 C8_5 1_555 1_555
N6_5 C7_5 1_555 1_555
C11_5 C15_5 1_555 1_555
C14_5 C16_5 1_555 1_555
C4_5 N3_5 1_555 1_555
H3_5 C4_5 1_555 1_555
H9_5 C13_5 1_555 1_555
C4_5 C13_5 1_555 1_555
Zn1_6 O1_6 1_555 1_555
O1_6 C5_6 1_555 1_555
O2_6 Zn1_6 1_555 1_555
N1_6 C5_6 1_555 1_555
N7 C3_6 1_555 1_555
N4_6 C2_6 1_555 1_555
N5_6 C3_6 1_555 1_555
N6_6 C1_6 1_555 1_555
C1_6 H1_6 1_555 1_555
C2_6 O2_6 1_555 1_555
C3_6 H2_6 1_555 1_555
C5_6 C9_6 1_555 1_555
C6_6 C2_6 1_555 1_555
H4_6 C6_6 1_555 1_555
C7_6 N1_6 1_555 1_555
C8_6 N4_6 1_555 1_555
C9_6 H5_6 1_555 1_555
C10_6 C7_6 1_555 1_555
H6_6 C10_6 1_555 1_555
C11_6 N7 1_555 1_555
H7_6 C11_6 1_555 1_555
C12_6 C9_6 1_555 1_555
H8_6 C12_6 1_555 1_555
C14_6 C8_6 1_555 1_555
H10_6 C14_6 1_555 1_555
C15_6 N5_6 1_555 1_555
H11_6 C15_6 1_555 1_555
C16_6 C6_6 1_555 1_555
H12_6 C16_6 1_555 1_555
N7_6 Zn1_6 1_555 1_555
N5_6 C8_6 1_555 1_555
N6_6 C7_6 1_555 1_555
C10_6 C12_6 1_555 1_555
C11_6 C15_6 1_555 1_555
C14_6 C16_6 1_555 1_555
C11_7 N7_5 1_555 1_555
H7_7 C11_7 1_555 1_555
H11_7 C15_7 1_555 1_555
C11_7 C15_7 1_555 1_555
Zn2_3 O1_7 1_555 1_555
O1_7 C5_7 1_555 1_555
O2_7 Zn2_3 1_555 1_555
N1_7 C5_7 1_555 1_555
N3_6 C1_7 1_555 1_555
N6_7 C1_7 1_555 1_555
C1_7 H1_7 1_555 1_555
C4_6 N3_6 1_555 1_555
H3_6 C4_6 1_555 1_555
C5_7 C9_7 1_555 1_555
C7_7 N1_7 1_555 1_555
C9_7 H5_7 1_555 1_555
C10_7 C7_7 1_555 1_555
H6_7 C10_7 1_555 1_555
C12_7 C9_7 1_555 1_555
C13_6 N6_7 1_555 1_555
H9_6 C13_6 1_555 1_555
Zn3_7 N3_6 1_555 1_555
N8_6 Zn2_3 1_555 1_555
N6_7 C7_7 1_555 1_555
C4_6 C13_6 1_555 1_555
C10_7 C12_7 1_555 1_555
Zn2 O1_8 1_555 1_555
O1_8 C5_8 1_555 1_555
O2_8 Zn2 1_555 1_555
N1_8 C5_8 1_555 1_555
N3_7 C1_8 1_555 1_555
N4_7 C2_7 1_555 1_555
N5_7 C3_7 1_555 1_555
N6_8 C1_8 1_555 1_555
C1_8 H1_8 1_555 1_555
C2_7 O2_8 1_555 1_555
C3_7 H2_8 1_555 1_555
C4_7 N3_7 1_555 1_555
H3_7 C4_7 1_555 1_555
C5_8 C9_8 1_555 1_555
C6_7 C2_7 1_555 1_555
H4_7 C6_7 1_555 1_555
C7_8 N1_8 1_555 1_555
C8_7 N4_7 1_555 1_555
C9_8 H5_8 1_555 1_555
C10_8 C7_8 1_555 1_555
H6_8 C10_8 1_555 1_555
C12_8 C9_8 1_555 1_555
C13_7 N6_8 1_555 1_555
H9_7 C13_7 1_555 1_555
C14_7 C8_7 1_555 1_555
H10_7 C14_7 1_555 1_555
C16_7 C6_7 1_555 1_555
H12_7 C16_7 1_555 1_555
Zn3_8 N3_7 1_555 1_555
N8_7 Zn2 1_555 1_555
N5_7 C8_7 1_555 1_555
N6_8 C7_8 1_555 1_555
C4_7 C13_7 1_555 1_555
C10_8 C12_8 1_555 1_555
C14_7 C16_7 1_555 1_555
C11_8 N7_6 1_555 1_555
H7_8 C11_8 1_555 1_555
H11_8 C15_8 1_555 1_555
C11_8 C15_8 1_555 1_555
Zn2_2 O1_9 1_555 1_555
O1_9 C5_9 1_555 1_555
O2_9 Zn2_2 1_555 1_555
N1_9 C5_9 1_555 1_555
N3_8 C1_9 1_555 1_555
N6_9 C1_9 1_555 1_555
C1_9 H1_9 1_555 1_555
C4_8 N3_8 1_555 1_555
H3_8 C4_8 1_555 1_555
C5_9 C9_9 1_555 1_555
C7_9 N1_9 1_555 1_555
C9_9 H5_9 1_555 1_555
C10_9 C7_9 1_555 1_555
H6_9 C10_9 1_555 1_555
C12_9 C9_9 1_555 1_555
C13_8 N6_9 1_555 1_555
H9_8 C13_8 1_555 1_555
Zn3_9 N3_8 1_555 1_555
N8_8 Zn2_2 1_555 1_555
N6_9 C7_9 1_555 1_555
C4_8 C13_8 1_555 1_555
C10_9 C12_9 1_555 1_555
C11_9 N7_4 1_555 1_555
H7_9 C11_9 1_555 1_555
H11_9 C15_9 1_555 1_555
C11_9 C15_9 1_555 1_555
Zn3_8 O1_10 1_555 1_555
O1_10 C5_10 1_555 1_555
O2_10 Zn3_8 1_555 1_555
N1_10 C5_10 1_555 1_555
N2_4 C3_8 1_555 1_555
N8_8 C1_10 1_555 1_555
N4_8 C2_8 1_555 1_555
N5_8 C3_8 1_555 1_555
N6_10 C1_10 1_555 1_555
C1_10 H1_10 1_555 1_555
C2_8 O2_10 1_555 1_555
C3_8 H2_10 1_555 1_555
C4_9 N8_8 1_555 1_555
H3_9 C4_9 1_555 1_555
C5_10 C9_10 1_555 1_555
C6_8 C2_8 1_555 1_555
H4_8 C6_8 1_555 1_555
C7_10 N1_10 1_555 1_555
C8_8 N4_8 1_555 1_555
C9_10 H5_10 1_555 1_555
C10_10 C7_10 1_555 1_555
H6_10 C10_10 1_555 1_555
C11_10 N2_4 1_555 1_555
H7_10 C11_10 1_555 1_555
C12_10 C9_10 1_555 1_555
H8_10 C12_10 1_555 1_555
C13_9 N6_10 1_555 1_555
H9_9 C13_9 1_555 1_555
C14_8 C8_8 1_555 1_555
H10_8 C14_8 1_555 1_555
C15_10 N5_8 1_555 1_555
H11_10 C15_10 1_555 1_555
C16_8 C6_8 1_555 1_555
H12_8 C16_8 1_555 1_555
Zn3_3 N2_4 1_555 1_555
N7_7 Zn3_8 1_555 1_555
N5_8 C8_8 1_555 1_555
N6_10 C7_10 1_555 1_555
C4_9 C13_9 1_555 1_555
C10_10 C12_10 1_555 1_555
C11_10 C15_10 1_555 1_555
C14_8 C16_8 1_555 1_555
Zn3_9 O1_11 1_555 1_555
O1_11 C5_11 1_555 1_555
O2_11 Zn3_9 1_555 1_555
N1_11 C5_11 1_555 1_555
N8_6 C1_11 1_555 1_555
N4_9 C2_9 1_555 1_555
N5_9 C3_9 1_555 1_555
N6_11 C1_11 1_555 1_555
C1_11 H1_11 1_555 1_555
C2_9 O2_11 1_555 1_555
C3_9 H2_11 1_555 1_555
C4_10 N8_6 1_555 1_555
H3_10 C4_10 1_555 1_555
C5_11 C9_11 1_555 1_555
C6_9 C2_9 1_555 1_555
H4_9 C6_9 1_555 1_555
C7_11 N1_11 1_555 1_555
C8_9 N4_9 1_555 1_555
C9_11 H5_11 1_555 1_555
C10_11 C7_11 1_555 1_555
H6_11 C10_11 1_555 1_555
C12_11 C9_11 1_555 1_555
H8_11 C12_11 1_555 1_555
C13_10 N6_11 1_555 1_555
H9_10 C13_10 1_555 1_555
C14_9 C8_9 1_555 1_555
H10_9 C14_9 1_555 1_555
C15_11 N5_9 1_555 1_555
H11_11 C15_11 1_555 1_555
C16_9 C6_9 1_555 1_555
H12_9 C16_9 1_555 1_555
N5_9 C8_9 1_555 1_555
N6_11 C7_11 1_555 1_555
C4_10 C13_10 1_555 1_555
C10_11 C12_11 1_555 1_555
C11_11 C15_11 1_555 1_555
C14_9 C16_9 1_555 1_555
Zn3 N2_5 1_555 1_555
Zn3_2 N2_6 1_555 1_555
Zn3_7 O1_12 1_555 1_555
O1_12 C5_12 1_555 1_555
O2_12 Zn3_7 1_555 1_555
N1_12 C5_12 1_555 1_555
N8_7 C1_12 1_555 1_555
N4_10 C2_10 1_555 1_555
N5_10 C3_10 1_555 1_555
N6_12 C1_12 1_555 1_555
C1_12 H1_12 1_555 1_555
C2_10 O2_12 1_555 1_555
C3_10 H2_12 1_555 1_555
C4_11 N8_7 1_555 1_555
H3_11 C4_11 1_555 1_555
C5_12 C9_12 1_555 1_555
C6_10 C2_10 1_555 1_555
H4_10 C6_10 1_555 1_555
C7_12 N1_12 1_555 1_555
C8_10 N4_10 1_555 1_555
C9_12 H5_12 1_555 1_555
C10_12 C7_12 1_555 1_555
H6_12 C10_12 1_555 1_555
C12_12 C9_12 1_555 1_555
H8_12 C12_12 1_555 1_555
C13_11 N6_12 1_555 1_555
H9_11 C13_11 1_555 1_555
C14_10 C8_10 1_555 1_555
H10_10 C14_10 1_555 1_555
C15_12 N5_10 1_555 1_555
H11_12 C15_12 1_555 1_555
C16_10 C6_10 1_555 1_555
H12_10 C16_10 1_555 1_555
N5_10 C8_10 1_555 1_555
N6_12 C7_12 1_555 1_555
C4_11 C13_11 1_555 1_555
C10_12 C12_12 1_555 1_555
C11_12 C15_12 1_555 1_555
C14_10 C16_10 1_555 1_555
O1_13 C5_13 1_555 1_555
C5_13 C9_13 1_555 1_555
C9_13 H5_13 1_555 1_555
C12_13 C9_13 1_555 1_555
H8_13 C12_13 1_555 1_555
O2_13 Zn3_5 1_555 1_555
N7_8 C3_11 1_555 1_555
N8_5 C1_13 1_555 1_555
N4_11 C2_11 1_555 1_555
N5_11 C3_11 1_555 1_555
N6_13 C1_13 1_555 1_555
C1_13 H1_13 1_555 1_555
C2_11 O2_13 1_555 1_555
C3_11 H2_13 1_555 1_555
C4_12 N8_5 1_555 1_555
H3_12 C4_12 1_555 1_555
C6_11 C2_11 1_555 1_555
H4_11 C6_11 1_555 1_555
C7_13 N1_13 1_555 1_555
C8_11 N4_11 1_555 1_555
C10_13 C7_13 1_555 1_555
H6_13 C10_13 1_555 1_555
C11_13 N7_8 1_555 1_555
H7_13 C11_13 1_555 1_555
C13_12 N6_13 1_555 1_555
H9_12 C13_12 1_555 1_555
C14_11 C8_11 1_555 1_555
H10_11 C14_11 1_555 1_555
C15_13 N5_11 1_555 1_555
H11_13 C15_13 1_555 1_555
C16_11 C6_11 1_555 1_555
H12_11 C16_11 1_555 1_555
N5_11 C8_11 1_555 1_555
N6_13 C7_13 1_555 1_555
C4_12 C13_12 1_555 1_555
C11_13 C15_13 1_555 1_555
C14_11 C16_11 1_555 1_555
C4_13 N8_4 1_555 1_555
H3_13 C4_13 1_555 1_555
H9_13 C13_13 1_555 1_555
C4_13 C13_13 1_555 1_555
O2_14 Zn3_6 1_555 1_555
N7_9 C3_12 1_555 1_555
N4_12 C2_12 1_555 1_555
N5_12 C3_12 1_555 1_555
N6_14 C1_14 1_555 1_555
C1_14 H1_14 1_555 1_555
C2_12 O2_14 1_555 1_555
C3_12 H2_14 1_555 1_555
C6_12 C2_12 1_555 1_555
H4_12 C6_12 1_555 1_555
C7_14 N1_14 1_555 1_555
C8_12 N4_12 1_555 1_555
C10_14 C7_14 1_555 1_555
H6_14 C10_14 1_555 1_555
C11_14 N7_9 1_555 1_555
H7_14 C11_14 1_555 1_555
C14_12 C8_12 1_555 1_555
H10_12 C14_12 1_555 1_555
C15_14 N5_12 1_555 1_555
H11_14 C15_14 1_555 1_555
C16_12 C6_12 1_555 1_555
H12_12 C16_12 1_555 1_555
N5_12 C8_12 1_555 1_555
N6_14 C7_14 1_555 1_555
C11_14 C15_14 1_555 1_555
C14_12 C16_12 1_555 1_555
O1_14 C5_14 1_555 1_555
C5_14 C9_14 1_555 1_555
C9_14 H5_14 1_555 1_555
C12_14 C9_14 1_555 1_555
H8_14 C12_14 1_555 1_555
Zn3_4 O1_15 1_555 1_555
O1_15 C5_15 1_555 1_555
O2_15 Zn3_4 1_555 1_555
N1_15 C5_15 1_555 1_555
N7_7 C3_13 1_555 1_555
N4_13 C2_13 1_555 1_555
N5_13 C3_13 1_555 1_555
N6_15 C1_15 1_555 1_555
C1_15 H1_15 1_555 1_555
C2_13 O2_15 1_555 1_555
C3_13 H2_15 1_555 1_555
C5_15 C9_15 1_555 1_555
C6_13 C2_13 1_555 1_555
H4_13 C6_13 1_555 1_555
C7_15 N1_15 1_555 1_555
C8_13 N4_13 1_555 1_555
C9_15 H5_15 1_555 1_555
C10_15 C7_15 1_555 1_555
H6_15 C10_15 1_555 1_555
C11_15 N7_7 1_555 1_555
H7_15 C11_15 1_555 1_555
C12_15 C9_15 1_555 1_555
H8_15 C12_15 1_555 1_555
C14_13 C8_13 1_555 1_555
H10_13 C14_13 1_555 1_555
C15_15 N5_13 1_555 1_555
H11_15 C15_15 1_555 1_555
C16_13 C6_13 1_555 1_555
H12_13 C16_13 1_555 1_555
N7_12 Zn3_4 1_555 1_555
N5_13 C8_13 1_555 1_555
N6_15 C7_15 1_555 1_555
C10_15 C12_15 1_555 1_555
C11_15 C15_15 1_555 1_555
C14_13 C16_13 1_555 1_555
Zn3_2 O1_16 1_555 1_555
O1_16 C5_16 1_555 1_555
O2_16 Zn3_2 1_555 1_555
N1_16 C5_16 1_555 1_555
N8_3 C1_16 1_555 1_555
N6_16 C1_16 1_555 1_555
C1_16 H1_16 1_555 1_555
C4_14 N8_3 1_555 1_555
H3_14 C4_14 1_555 1_555
C5_16 C9_16 1_555 1_555
C7_16 N1_16 1_555 1_555
C9_16 H5_16 1_555 1_555
C10_16 C7_16 1_555 1_555
H6_16 C10_16 1_555 1_555
C12_16 C9_16 1_555 1_555
C13_14 N6_16 1_555 1_555
H9_14 C13_14 1_555 1_555
N6_16 C7_16 1_555 1_555
C4_14 C13_14 1_555 1_555
C10_16 C12_16 1_555 1_555
C11_16 N7_11 1_555 1_555
H7_16 C11_16 1_555 1_555
H11_16 C15_16 1_555 1_555
C11_16 C15_16 1_555 1_555
C11_17 N7_12 1_555 1_555
H7_17 C11_17 1_555 1_555
H11_17 C15_17 1_555 1_555
C11_17 C15_17 1_555 1_555
Zn3_3 O1_17 1_555 1_555
O1_17 C5_17 1_555 1_555
O2_17 Zn3_3 1_555 1_555
N1_17 C5_17 1_555 1_555
N8 C1_17 1_555 1_555
N4_14 C2_14 1_555 1_555
N5_14 C3_14 1_555 1_555
N6_17 C1_17 1_555 1_555
C1_17 H1_17 1_555 1_555
C2_14 O2_17 1_555 1_555
C3_14 H2_17 1_555 1_555
C4_15 N8 1_555 1_555
H3_15 C4_15 1_555 1_555
C5_17 C9_17 1_555 1_555
C6_14 C2_14 1_555 1_555
H4_14 C6_14 1_555 1_555
C7_17 N1_17 1_555 1_555
C8_14 N4_14 1_555 1_555
C9_17 H5_17 1_555 1_555
C10_17 C7_17 1_555 1_555
H6_17 C10_17 1_555 1_555
C12_17 C9_17 1_555 1_555
C13_15 N6_17 1_555 1_555
H9_15 C13_15 1_555 1_555
C14_14 C8_14 1_555 1_555
H10_14 C14_14 1_555 1_555
C16_14 C6_14 1_555 1_555
H12_14 C16_14 1_555 1_555
N5_14 C8_14 1_555 1_555
N6_17 C7_17 1_555 1_555
C4_15 C13_15 1_555 1_555
C10_17 C12_17 1_555 1_555
C14_14 C16_14 1_555 1_555
C11_18 N7_10 1_555 1_555
H7_18 C11_18 1_555 1_555
H11_18 C15_18 1_555 1_555
C11_18 C15_18 1_555 1_555
Zn3 O1_18 1_555 1_555
O1_18 C5_18 1_555 1_555
O2_18 Zn3 1_555 1_555
N1_18 C5_18 1_555 1_555
N8_2 C1_18 1_555 1_555
N6_18 C1_18 1_555 1_555
C1_18 H1_18 1_555 1_555
C4_16 N8_2 1_555 1_555
H3_16 C4_16 1_555 1_555
C5_18 C9_18 1_555 1_555
C7_18 N1_18 1_555 1_555
C9_18 H5_18 1_555 1_555
C10_18 C7_18 1_555 1_555
H6_18 C10_18 1_555 1_555
C12_18 C9_18 1_555 1_555
C13_16 N6_18 1_555 1_555
H9_16 C13_16 1_555 1_555
N6_18 C7_18 1_555 1_555
C4_16 C13_16 1_555 1_555
C10_18 C12_18 1_555 1_555
C4_17 N8_9 1_555 1_555
H3_17 C4_17 1_555 1_555
H9_17 C13_17 1_555 1_555
C4_17 C13_17 1_555 1_555
C4_18 N3_9 1_555 1_555
H3_18 C4_18 1_555 1_555
H9_18 C13_18 1_555 1_555
C4_18 C13_18 1_555 1_555
N4_15 C2_15 1_555 1_555
N5_15 C3_15 1_555 1_555
C6_15 C2_15 1_555 1_555
H4_15 C6_15 1_555 1_555
C8_15 N4_15 1_555 1_555
C14_15 C8_15 1_555 1_555
H10_15 C14_15 1_555 1_555
C16_15 C6_15 1_555 1_555
H12_15 C16_15 1_555 1_555
N5_15 C8_15 1_555 1_555
C14_15 C16_15 1_555 1_555
N4_16 C2_16 1_555 1_555
N5_16 C3_16 1_555 1_555
C6_16 C2_16 1_555 1_555
H4_16 C6_16 1_555 1_555
C8_16 N4_16 1_555 1_555
C14_16 C8_16 1_555 1_555
H10_16 C14_16 1_555 1_555
C16_16 C6_16 1_555 1_555
H12_16 C16_16 1_555 1_555
N5_16 C8_16 1_555 1_555
C14_16 C16_16 1_555 1_555
N4_17 C2_17 1_555 1_555
N5_17 C3_17 1_555 1_555
C6_17 C2_17 1_555 1_555
H4_17 C6_17 1_555 1_555
C8_17 N4_17 1_555 1_555
C14_17 C8_17 1_555 1_555
H10_17 C14_17 1_555 1_555
C16_17 C6_17 1_555 1_555
H12_17 C16_17 1_555 1_555
N5_17 C8_17 1_555 1_555
C14_17 C16_17 1_555 1_555
N4_18 C2_18 1_555 1_555
N5_18 C3_18 1_555 1_555
C6_18 C2_18 1_555 1_555
H4_18 C6_18 1_555 1_555
C8_18 N4_18 1_555 1_555
C14_18 C8_18 1_555 1_555
H10_18 C14_18 1_555 1_555
C16_18 C6_18 1_555 1_555
H12_18 C16_18 1_555 1_555
N5_18 C8_18 1_555 1_555
C14_18 C16_18 1_555 1_555

#END
