
###############################################################################
#
# This file contains modified crystal structure data generated from the
# MOF subset of the Cambridge Structural Database (CSD) v543 
# hosted by the Cambridge Crystallographic Data Centre (CCDC).
#
# This work is licensed under the Creative Commons
# Attribution-NonCommercial-ShareAlike 4.0 International License.
# To view a copy of this license, visit
# http://creativecommons.org/licenses/by-nc-sa/4.0/
# or send a letter to
# Creative Commons, PO Box 1866, Mountain View, CA 94042, USA.
#
# CIF created using the CSD Python API on 29 September 2022
# The structure has been converted into the P1 space group
# The structure has a 3D framework
# The original CSD entry IHAZOH is in the cubic crystal system
# The framework has been calculated to contain at least 10.0% void space
# The void calculation uses a probe of radius 1.32A, grid spacing 0.4
# The framework is charged, counterions have been retained in the structure
# H atom positions have been added when not included in the experimental data
# Generated hydrogen atom positions removed from atoms on special positions
#
###############################################################################

data_IHAZOH
_chemical_formula_moiety         '(C192 H192 Cl24 Fe24 O128 8-)n'
_symmetry_cell_setting           triclinic
_symmetry_space_group_name_H-M   'P 1'
_symmetry_Int_Tables_number      1
_space_group_name_Hall           'P 1'
loop_
_symmetry_equiv_pos_site_id
_symmetry_equiv_pos_as_xyz
1 x,y,z
_cell_length_a                   19.2108(5)
_cell_length_b                   19.2108(5)
_cell_length_c                   19.2108(5)
_cell_angle_alpha                90
_cell_angle_beta                 90
_cell_angle_gamma                90
_cell_volume                     7089.84
loop_
_atom_site_label
_atom_site_type_symbol
_atom_site_fract_x
_atom_site_fract_y
_atom_site_fract_z
Fe6 Fe 0.39260(3) 0.35955(3) 0.25738(3)
Fe7 Fe 0.25738(3) 0.39260(3) 0.35955(3)
C9 C 0.1731(3) 0.2681(3) 0.0569(3)
H5 H 0.1891 0.2424 0.0191
C11 C 0.1028(3) 0.2706(3) 0.0704(3)
H7 H 0.0715 0.2466 0.0423
C13 C 0.0790(2) 0.3097(3) 0.1266(2)
C15 C 0.1256(2) 0.3441(2) 0.1692(2)
H9 H 0.1095 0.3700 0.2068
C17 C 0.1967(2) 0.3399(3) 0.1559(2)
C19 C 0.2202(3) 0.3031(3) 0.0985(3)
H11 H 0.2675 0.3019 0.0881
C21 C 0.0029(2) 0.3117(2) 0.1430(2)
C23 C 0.2467(2) 0.3710(2) 0.2062(2)
O13 O 0.31067(17) 0.3670(2) 0.19174(18)
O18 O 0.22286(18) 0.39845(19) 0.26073(17)
Fe1 Fe 0.85955(3) 0.25738(3) 0.10740(3)
O1 O 0.84928(18) 0.30658(18) 0.01617(17)
O2 O 0.88563(19) 0.17178(19) 0.04673(18)
O3 O 0.77604(19) 0.39451(18) 0.03761(17)
O6 O 0.83642(16) 0.33642(16) 0.16358(16)
Fe2 Fe 0.89260(3) 0.35955(3) 0.24262(3)
Fe3 Fe 0.75738(3) 0.39260(3) 0.14045(3)
Fe8 Fe 0.74262(3) 0.89260(3) 0.14045(3)
Fe9 Fe 0.64045(3) 0.75738(3) 0.10740(3)
C10 C 0.9431(3) 0.6731(3) 0.2319(3)
H6 H 0.9809 0.6891 0.2576
C12 C 0.9296(3) 0.6028(3) 0.2294(3)
H8 H 0.9577 0.5715 0.2534
C14 C 0.8734(2) 0.5790(2) 0.1903(3)
C16 C 0.8308(2) 0.6256(2) 0.1559(2)
H10 H 0.7932 0.6095 0.1300
C18 C 0.8441(2) 0.6967(2) 0.1601(3)
C20 C 0.9015(3) 0.7202(3) 0.1969(3)
H12 H 0.9119 0.7675 0.1981
C22 C 0.8570(2) 0.5029(2) 0.1883(2)
C24 C 0.7938(2) 0.7467(2) 0.1290(2)
O7 O 0.98383(17) 0.34928(18) 0.19342(18)
O8 O 0.80658(18) 0.48383(17) 0.15072(18)
O9 O 0.95327(18) 0.38563(19) 0.32822(19)
O10 O 0.67178(19) 0.45327(18) 0.11437(19)
O11 O 0.96239(17) 0.27604(19) 0.10549(18)
O12 O 0.89451(18) 0.46239(17) 0.22396(19)
O14 O 0.8670(2) 0.19174(18) 0.18933(17)
O15 O 0.81067(17) 0.3670(2) 0.30826(18)
O16 O 0.69174(18) 0.31067(17) 0.1330(2)
O17 O 0.80826(18) 0.81067(17) 0.1330(2)
O19 O 0.89845(19) 0.26073(17) 0.27714(18)
O20 O 0.76073(17) 0.22286(18) 0.10155(19)
O21 O 0.72286(18) 0.39845(19) 0.23927(17)
O22 O 0.73927(17) 0.72286(18) 0.10155(19)
C1 C 0.7681(3) 0.4431(3) 0.8269(3)
H1 H 0.7424 0.4809 0.8109
C2 C 0.7706(3) 0.4296(3) 0.8972(3)
H2 H 0.7466 0.4577 0.9285
C3 C 0.8097(3) 0.3734(2) 0.9210(2)
C4 C 0.8441(2) 0.3308(2) 0.8744(2)
H3 H 0.8700 0.2932 0.8905
C5 C 0.8399(3) 0.3441(2) 0.8033(2)
C6 C 0.8031(3) 0.4015(3) 0.7798(3)
H4 H 0.8019 0.4119 0.7325
C7 C 0.8117(2) 0.3570(2) 0.9971(2)
C8 C 0.8710(2) 0.2938(2) 0.7533(2)
O4 O 0.8670(2) 0.30826(18) 0.68933(17)
O5 O 0.89845(19) 0.23927(17) 0.77714(18)
Fe4 Fe 0.85955(3) 0.24262(3) 0.60740(3)
Fe5 Fe 0.89260(3) 0.14045(3) 0.74262(3)
Fe1_2 Fe 0.64045(3) 0.74262(3) 0.60740(3)
C1_2 C 0.7319(3) 0.5569(3) 0.3269(3)
H1_2 H 0.7576 0.5191 0.3109
C2_2 C 0.7294(3) 0.5704(3) 0.3972(3)
H2_2 H 0.7534 0.5423 0.4285
C3_2 C 0.6903(3) 0.6266(2) 0.4210(2)
C4_2 C 0.6559(2) 0.6692(2) 0.3744(2)
H3_2 H 0.6300 0.7068 0.3905
C5_2 C 0.6601(3) 0.6559(2) 0.3033(2)
C6_2 C 0.6969(3) 0.5985(3) 0.2798(3)
H4_2 H 0.6981 0.5881 0.2325
C7_2 C 0.6883(2) 0.6430(2) 0.4971(2)
C8_2 C 0.6290(2) 0.7062(2) 0.2533(2)
O1_2 O 0.65072(18) 0.69342(18) 0.51617(17)
O2_2 O 0.61437(19) 0.82822(19) 0.54673(18)
O3_2 O 0.72396(19) 0.60549(18) 0.53761(17)
O4_2 O 0.6330(2) 0.69174(18) 0.18933(17)
O5_2 O 0.60155(19) 0.76073(17) 0.27714(18)
O6_2 O 0.66358(16) 0.66358(16) 0.66358(16)
Fe2_2 Fe 0.60740(3) 0.64045(3) 0.74262(3)
Fe3_2 Fe 0.74262(3) 0.60740(3) 0.64045(3)
Fe5_2 Fe 0.60740(3) 0.85955(3) 0.24262(3)
Fe6_2 Fe 0.10740(3) 0.64045(3) 0.75738(3)
Fe7_2 Fe 0.24262(3) 0.60740(3) 0.85955(3)
Fe8_2 Fe 0.75738(3) 0.10740(3) 0.64045(3)
C9_2 C 0.3269(3) 0.7319(3) 0.5569(3)
C10_2 C 0.5569(3) 0.3269(3) 0.7319(3)
H5_2 H 0.3109 0.7576 0.5191
H6_2 H 0.5191 0.3109 0.7576
C11_2 C 0.3972(3) 0.7294(3) 0.5704(3)
C12_2 C 0.5704(3) 0.3972(3) 0.7294(3)
H7_2 H 0.4285 0.7534 0.5423
H8_2 H 0.5423 0.4285 0.7534
C13_2 C 0.4210(2) 0.6903(3) 0.6266(2)
C14_2 C 0.6266(2) 0.4210(2) 0.6903(3)
C15_2 C 0.3744(2) 0.6559(2) 0.6692(2)
C16_2 C 0.6692(2) 0.3744(2) 0.6559(2)
H9_2 H 0.3905 0.6300 0.7068
H10_2 H 0.7068 0.3905 0.6300
C17_2 C 0.3033(2) 0.6601(3) 0.6559(2)
C18_2 C 0.6559(2) 0.3033(2) 0.6601(3)
C19_2 C 0.2798(3) 0.6969(3) 0.5985(3)
C20_2 C 0.5985(3) 0.2798(3) 0.6969(3)
H11_2 H 0.2325 0.6981 0.5881
H12_2 H 0.5881 0.2325 0.6981
C21_2 C 0.4971(2) 0.6883(2) 0.6430(2)
C22_2 C 0.6430(2) 0.4971(2) 0.6883(2)
C23_2 C 0.2533(2) 0.6290(2) 0.7062(2)
C24_2 C 0.7062(2) 0.2533(2) 0.6290(2)
O7_2 O 0.51617(17) 0.65072(18) 0.69342(18)
O8_2 O 0.69342(18) 0.51617(17) 0.65072(18)
O9_2 O 0.54673(18) 0.61437(19) 0.82822(19)
O10_2 O 0.82822(19) 0.54673(18) 0.61437(19)
O11_2 O 0.53761(17) 0.72396(19) 0.60549(18)
O12_2 O 0.60549(18) 0.53761(17) 0.72396(19)
O13_2 O 0.18933(17) 0.6330(2) 0.69174(18)
O14_2 O 0.6330(2) 0.80826(18) 0.68933(17)
O15_2 O 0.68933(17) 0.6330(2) 0.80826(18)
O16_2 O 0.80826(18) 0.68933(17) 0.6330(2)
O17_2 O 0.69174(18) 0.18933(17) 0.6330(2)
O18_2 O 0.27714(18) 0.60155(19) 0.76073(17)
O19_2 O 0.60155(19) 0.73927(17) 0.77714(18)
O20_2 O 0.73927(17) 0.77714(18) 0.60155(19)
O21_2 O 0.77714(18) 0.60155(19) 0.73927(17)
O22_2 O 0.76073(17) 0.27714(18) 0.60155(19)
Fe9_2 Fe 0.35955(3) 0.25738(3) 0.39260(3)
C10_3 C 0.0569(3) 0.1731(3) 0.2681(3)
H6_3 H 0.0191 0.1891 0.2424
C12_3 C 0.0704(3) 0.1028(3) 0.2706(3)
H8_3 H 0.0423 0.0715 0.2466
C14_3 C 0.1266(2) 0.0790(2) 0.3097(3)
C16_3 C 0.1692(2) 0.1256(2) 0.3441(2)
H10_3 H 0.2068 0.1095 0.3700
C18_3 C 0.1559(2) 0.1967(2) 0.3399(3)
C20_3 C 0.0985(3) 0.2202(3) 0.3031(3)
H12_3 H 0.0881 0.2675 0.3019
C22_3 C 0.1430(2) 0.0029(2) 0.3117(2)
C24_3 C 0.2062(2) 0.2467(2) 0.3710(2)
O17_3 O 0.19174(18) 0.31067(17) 0.3670(2)
O22_3 O 0.26073(17) 0.22286(18) 0.39845(19)
Fe1_3 Fe 0.14045(3) 0.75738(3) 0.39260(3)
C1_3 C 0.2319(3) 0.9431(3) 0.6731(3)
H1_3 H 0.2576 0.9809 0.6891
C2_3 C 0.2294(3) 0.9296(3) 0.6028(3)
H2_3 H 0.2534 0.9577 0.5715
C3_3 C 0.1903(3) 0.8734(2) 0.5790(2)
C4_3 C 0.1559(2) 0.8308(2) 0.6256(2)
H3_3 H 0.1300 0.7932 0.6095
C5_3 C 0.1601(3) 0.8441(2) 0.6967(2)
C6_3 C 0.1969(3) 0.9015(3) 0.7202(3)
H4_3 H 0.1981 0.9119 0.7675
C7_3 C 0.1883(2) 0.8570(2) 0.5029(2)
C8_3 C 0.1290(2) 0.7938(2) 0.7467(2)
O1_3 O 0.15072(18) 0.80658(18) 0.48383(17)
O2_3 O 0.11437(19) 0.67178(19) 0.45327(18)
O3_3 O 0.22396(19) 0.89451(18) 0.46239(17)
O4_3 O 0.1330(2) 0.80826(18) 0.81067(17)
O5_3 O 0.10155(19) 0.73927(17) 0.72286(18)
O6_3 O 0.16358(16) 0.83642(16) 0.33642(16)
Fe2_3 Fe 0.10740(3) 0.85955(3) 0.25738(3)
Fe3_3 Fe 0.24262(3) 0.89260(3) 0.35955(3)
Fe4_2 Fe 0.14045(3) 0.74262(3) 0.89260(3)
O7_3 O 0.01617(17) 0.84928(18) 0.30658(18)
O8_3 O 0.19342(18) 0.98383(17) 0.34928(18)
O9_3 O 0.04673(18) 0.88563(19) 0.17178(19)
O10_3 O 0.32822(19) 0.95327(18) 0.38563(19)
O11_3 O 0.03761(17) 0.77604(19) 0.39451(18)
O12_3 O 0.10549(18) 0.96239(17) 0.27604(19)
O14_3 O 0.1330(2) 0.69174(18) 0.31067(17)
O15_3 O 0.18933(17) 0.8670(2) 0.19174(18)
O16_3 O 0.30826(18) 0.81067(17) 0.3670(2)
O19_3 O 0.10155(19) 0.76073(17) 0.22286(18)
O20_3 O 0.23927(17) 0.72286(18) 0.39845(19)
O21_3 O 0.27714(18) 0.89845(19) 0.26073(17)
C9_3 C 0.8269(3) 0.7681(3) 0.4431(3)
H5_3 H 0.8109 0.7424 0.4809
C11_3 C 0.8972(3) 0.7706(3) 0.4296(3)
H7_3 H 0.9285 0.7466 0.4577
C13_3 C 0.9210(2) 0.8097(3) 0.3734(2)
C15_3 C 0.8744(2) 0.8441(2) 0.3308(2)
H9_3 H 0.8905 0.8700 0.2932
C17_3 C 0.8033(2) 0.8399(3) 0.3441(2)
C19_3 C 0.7798(3) 0.8031(3) 0.4015(3)
H11_3 H 0.7325 0.8019 0.4119
C21_3 C 0.9971(2) 0.8117(2) 0.3570(2)
C23_3 C 0.7533(2) 0.8710(2) 0.2938(2)
O13_3 O 0.68933(17) 0.8670(2) 0.30826(18)
O18_3 O 0.77714(18) 0.89845(19) 0.23927(17)
C1_4 C 0.2681(3) 0.0569(3) 0.1731(3)
H1_4 H 0.2424 0.0191 0.1891
C2_4 C 0.2706(3) 0.0704(3) 0.1028(3)
H2_4 H 0.2466 0.0423 0.0715
C3_4 C 0.3097(3) 0.1266(2) 0.0790(2)
C4_4 C 0.3441(2) 0.1692(2) 0.1256(2)
H3_4 H 0.3700 0.2068 0.1095
C5_4 C 0.3399(3) 0.1559(2) 0.1967(2)
C6_4 C 0.3031(3) 0.0985(3) 0.2202(3)
H4_4 H 0.3019 0.0881 0.2675
C7_4 C 0.3117(2) 0.1430(2) 0.0029(2)
C8_4 C 0.3710(2) 0.2062(2) 0.2467(2)
O4_4 O 0.3670(2) 0.19174(18) 0.31067(17)
O5_4 O 0.39845(19) 0.26073(17) 0.22286(18)
Fe1_4 Fe 0.35955(3) 0.24262(3) 0.89260(3)
O1_4 O 0.34928(18) 0.19342(18) 0.98383(17)
O2_4 O 0.38563(19) 0.32822(19) 0.95327(18)
O3_4 O 0.27604(19) 0.10549(18) 0.96239(17)
O6_4 O 0.33642(16) 0.16358(16) 0.83642(16)
Fe2_4 Fe 0.39260(3) 0.14045(3) 0.75738(3)
Fe3_4 Fe 0.25738(3) 0.10740(3) 0.85955(3)
C9_4 C 0.6731(3) 0.2319(3) 0.9431(3)
H5_4 H 0.6891 0.2576 0.9809
C11_4 C 0.6028(3) 0.2294(3) 0.9296(3)
H7_4 H 0.5715 0.2534 0.9577
C13_4 C 0.5790(2) 0.1903(3) 0.8734(2)
C15_4 C 0.6256(2) 0.1559(2) 0.8308(2)
H9_4 H 0.6095 0.1300 0.7932
C17_4 C 0.6967(2) 0.1601(3) 0.8441(2)
C19_4 C 0.7202(3) 0.1969(3) 0.9015(3)
H11_4 H 0.7675 0.1981 0.9119
C21_4 C 0.5029(2) 0.1883(2) 0.8570(2)
C23_4 C 0.7467(2) 0.1290(2) 0.7938(2)
O7_4 O 0.48383(17) 0.15072(18) 0.80658(18)
O8_4 O 0.30658(18) 0.01617(17) 0.84928(18)
O9_4 O 0.45327(18) 0.11437(19) 0.67178(19)
O10_4 O 0.17178(19) 0.04673(18) 0.88563(19)
O11_4 O 0.46239(17) 0.22396(19) 0.89451(18)
O12_4 O 0.39451(18) 0.03761(17) 0.77604(19)
O13_4 O 0.81067(17) 0.1330(2) 0.80826(18)
O14_4 O 0.3670(2) 0.30826(18) 0.81067(17)
O15_4 O 0.31067(17) 0.1330(2) 0.69174(18)
O16_4 O 0.19174(18) 0.18933(17) 0.8670(2)
O18_4 O 0.72286(18) 0.10155(19) 0.73927(17)
O19_4 O 0.39845(19) 0.23927(17) 0.72286(18)
O20_4 O 0.26073(17) 0.27714(18) 0.89845(19)
O21_4 O 0.22286(18) 0.10155(19) 0.76073(17)
C10_4 C 0.4431(3) 0.8269(3) 0.7681(3)
H6_4 H 0.4809 0.8109 0.7424
C12_4 C 0.4296(3) 0.8972(3) 0.7706(3)
H8_4 H 0.4577 0.9285 0.7466
C14_4 C 0.3734(2) 0.9210(2) 0.8097(3)
C16_4 C 0.3308(2) 0.8744(2) 0.8441(2)
H10_4 H 0.2932 0.8905 0.8700
C18_4 C 0.3441(2) 0.8033(2) 0.8399(3)
C20_4 C 0.4015(3) 0.7798(3) 0.8031(3)
H12_4 H 0.4119 0.7325 0.8019
C22_4 C 0.3570(2) 0.9971(2) 0.8117(2)
C24_4 C 0.2938(2) 0.7533(2) 0.8710(2)
O17_4 O 0.30826(18) 0.68933(17) 0.8670(2)
O22_4 O 0.23927(17) 0.77714(18) 0.89845(19)
C1_5 C 0.2319(3) 0.5569(3) 0.1731(3)
H1_5 H 0.2576 0.5191 0.1891
C2_5 C 0.2294(3) 0.5704(3) 0.1028(3)
H2_5 H 0.2534 0.5423 0.0715
C3_5 C 0.1903(3) 0.6266(2) 0.0790(2)
C4_5 C 0.1559(2) 0.6692(2) 0.1256(2)
H3_5 H 0.1300 0.7068 0.1095
C5_5 C 0.1601(3) 0.6559(2) 0.1967(2)
C6_5 C 0.1969(3) 0.5985(3) 0.2202(3)
H4_5 H 0.1981 0.5881 0.2675
C7_5 C 0.1883(2) 0.6430(2) 0.0029(2)
C8_5 C 0.1290(2) 0.7062(2) 0.2467(2)
O1_5 O 0.15072(18) 0.69342(18) 0.98383(17)
O2_5 O 0.11437(19) 0.82822(19) 0.95327(18)
O3_5 O 0.22396(19) 0.60549(18) 0.96239(17)
O6_5 O 0.16358(16) 0.66358(16) 0.83642(16)
C10_5 C 0.0569(3) 0.3269(3) 0.7681(3)
H6_5 H 0.0191 0.3109 0.7424
C12_5 C 0.0704(3) 0.3972(3) 0.7706(3)
H8_5 H 0.0423 0.4285 0.7466
C14_5 C 0.1266(2) 0.4210(2) 0.8097(3)
C16_5 C 0.1692(2) 0.3744(2) 0.8441(2)
H10_5 H 0.2068 0.3905 0.8700
C18_5 C 0.1559(2) 0.3033(2) 0.8399(3)
C20_5 C 0.0985(3) 0.2798(3) 0.8031(3)
H12_5 H 0.0881 0.2325 0.8019
C22_5 C 0.1430(2) 0.4971(2) 0.8117(2)
C24_5 C 0.2062(2) 0.2533(2) 0.8710(2)
O7_5 O 0.01617(17) 0.65072(18) 0.80658(18)
O8_5 O 0.19342(18) 0.51617(17) 0.84928(18)
O9_5 O 0.04673(18) 0.61437(19) 0.67178(19)
O10_5 O 0.32822(19) 0.54673(18) 0.88563(19)
O11_5 O 0.03761(17) 0.72396(19) 0.89451(18)
O12_5 O 0.10549(18) 0.53761(17) 0.77604(19)
C9_5 C 0.8269(3) 0.7319(3) 0.9431(3)
H5_5 H 0.8109 0.7576 0.9809
C11_5 C 0.8972(3) 0.7294(3) 0.9296(3)
H7_5 H 0.9285 0.7534 0.9577
C13_5 C 0.9210(2) 0.6903(3) 0.8734(2)
C15_5 C 0.8744(2) 0.6559(2) 0.8308(2)
H9_5 H 0.8905 0.6300 0.7932
C17_5 C 0.8033(2) 0.6601(3) 0.8441(2)
C19_5 C 0.7798(3) 0.6969(3) 0.9015(3)
H11_5 H 0.7325 0.6981 0.9119
C21_5 C 0.9971(2) 0.6883(2) 0.8570(2)
C23_5 C 0.7533(2) 0.6290(2) 0.7938(2)
C1_6 C 0.2681(3) 0.4431(3) 0.6731(3)
H1_6 H 0.2424 0.4809 0.6891
C2_6 C 0.2706(3) 0.4296(3) 0.6028(3)
H2_6 H 0.2466 0.4577 0.5715
C3_6 C 0.3097(3) 0.3734(2) 0.5790(2)
C4_6 C 0.3441(2) 0.3308(2) 0.6256(2)
H3_6 H 0.3700 0.2932 0.6095
C5_6 C 0.3399(3) 0.3441(2) 0.6967(2)
C6_6 C 0.3031(3) 0.4015(3) 0.7202(3)
H4_6 H 0.3019 0.4119 0.7675
C7_6 C 0.3117(2) 0.3570(2) 0.5029(2)
C8_6 C 0.3710(2) 0.2938(2) 0.7467(2)
O1_6 O 0.34928(18) 0.30658(18) 0.48383(17)
O2_6 O 0.38563(19) 0.17178(19) 0.45327(18)
O3_6 O 0.27604(19) 0.39451(18) 0.46239(17)
O6_6 O 0.33642(16) 0.33642(16) 0.33642(16)
C9_6 C 0.6731(3) 0.2681(3) 0.4431(3)
C10_6 C 0.4431(3) 0.6731(3) 0.2681(3)
H5_6 H 0.6891 0.2424 0.4809
H6_6 H 0.4809 0.6891 0.2424
C11_6 C 0.6028(3) 0.2706(3) 0.4296(3)
C12_6 C 0.4296(3) 0.6028(3) 0.2706(3)
H7_6 H 0.5715 0.2466 0.4577
H8_6 H 0.4577 0.5715 0.2466
C13_6 C 0.5790(2) 0.3097(3) 0.3734(2)
C14_6 C 0.3734(2) 0.5790(2) 0.3097(3)
C15_6 C 0.6256(2) 0.3441(2) 0.3308(2)
C16_6 C 0.3308(2) 0.6256(2) 0.3441(2)
H9_6 H 0.6095 0.3700 0.2932
H10_6 H 0.2932 0.6095 0.3700
C17_6 C 0.6967(2) 0.3399(3) 0.3441(2)
C18_6 C 0.3441(2) 0.6967(2) 0.3399(3)
C19_6 C 0.7202(3) 0.3031(3) 0.4015(3)
C20_6 C 0.4015(3) 0.7202(3) 0.3031(3)
H11_6 H 0.7675 0.3019 0.4119
H12_6 H 0.4119 0.7675 0.3019
C21_6 C 0.5029(2) 0.3117(2) 0.3570(2)
C22_6 C 0.3570(2) 0.5029(2) 0.3117(2)
C23_6 C 0.7467(2) 0.3710(2) 0.2938(2)
C24_6 C 0.2938(2) 0.7467(2) 0.3710(2)
O7_6 O 0.48383(17) 0.34928(18) 0.30658(18)
O8_6 O 0.30658(18) 0.48383(17) 0.34928(18)
O9_6 O 0.45327(18) 0.38563(19) 0.17178(19)
O10_6 O 0.17178(19) 0.45327(18) 0.38563(19)
O11_6 O 0.46239(17) 0.27604(19) 0.39451(18)
O12_6 O 0.39451(18) 0.46239(17) 0.27604(19)
C9_7 C 0.1731(3) 0.2319(3) 0.5569(3)
H5_7 H 0.1891 0.2576 0.5191
C11_7 C 0.1028(3) 0.2294(3) 0.5704(3)
H7_7 H 0.0715 0.2534 0.5423
C13_7 C 0.0790(2) 0.1903(3) 0.6266(2)
C15_7 C 0.1256(2) 0.1559(2) 0.6692(2)
H9_7 H 0.1095 0.1300 0.7068
C17_7 C 0.1967(2) 0.1601(3) 0.6559(2)
C19_7 C 0.2202(3) 0.1969(3) 0.5985(3)
H11_7 H 0.2675 0.1981 0.5881
C21_7 C 0.0029(2) 0.1883(2) 0.6430(2)
C23_7 C 0.2467(2) 0.1290(2) 0.7062(2)
C1_7 C 0.7681(3) 0.0569(3) 0.3269(3)
H1_7 H 0.7424 0.0191 0.3109
C2_7 C 0.7706(3) 0.0704(3) 0.3972(3)
H2_7 H 0.7466 0.0423 0.4285
C3_7 C 0.8097(3) 0.1266(2) 0.4210(2)
C4_7 C 0.8441(2) 0.1692(2) 0.3744(2)
H3_7 H 0.8700 0.2068 0.3905
C5_7 C 0.8399(3) 0.1559(2) 0.3033(2)
C6_7 C 0.8031(3) 0.0985(3) 0.2798(3)
H4_7 H 0.8019 0.0881 0.2325
C7_7 C 0.8117(2) 0.1430(2) 0.4971(2)
C8_7 C 0.8710(2) 0.2062(2) 0.2533(2)
O1_7 O 0.84928(18) 0.19342(18) 0.51617(17)
O2_7 O 0.88563(19) 0.32822(19) 0.54673(18)
O3_7 O 0.77604(19) 0.10549(18) 0.53761(17)
O6_7 O 0.83642(16) 0.16358(16) 0.66358(16)
O7_7 O 0.98383(17) 0.15072(18) 0.69342(18)
O8_7 O 0.80658(18) 0.01617(17) 0.65072(18)
O9_7 O 0.95327(18) 0.11437(19) 0.82822(19)
O10_7 O 0.67178(19) 0.04673(18) 0.61437(19)
O11_7 O 0.96239(17) 0.22396(19) 0.60549(18)
O12_7 O 0.89451(18) 0.03761(17) 0.72396(19)
C10_7 C 0.9431(3) 0.8269(3) 0.7319(3)
H6_7 H 0.9809 0.8109 0.7576
C12_7 C 0.9296(3) 0.8972(3) 0.7294(3)
H8_7 H 0.9577 0.9285 0.7534
C14_7 C 0.8734(2) 0.9210(2) 0.6903(3)
C16_7 C 0.8308(2) 0.8744(2) 0.6559(2)
H10_7 H 0.7932 0.8905 0.6300
C18_7 C 0.8441(2) 0.8033(2) 0.6601(3)
C20_7 C 0.9015(3) 0.7798(3) 0.6969(3)
H12_7 H 0.9119 0.7325 0.6981
C22_7 C 0.8570(2) 0.9971(2) 0.6883(2)
C24_7 C 0.7938(2) 0.7533(2) 0.6290(2)
C10_8 C 0.5569(3) 0.1731(3) 0.2319(3)
H6_8 H 0.5191 0.1891 0.2576
C12_8 C 0.5704(3) 0.1028(3) 0.2294(3)
H8_8 H 0.5423 0.0715 0.2534
C14_8 C 0.6266(2) 0.0790(2) 0.1903(3)
C16_8 C 0.6692(2) 0.1256(2) 0.1559(2)
H10_8 H 0.7068 0.1095 0.1300
C18_8 C 0.6559(2) 0.1967(2) 0.1601(3)
C20_8 C 0.5985(3) 0.2202(3) 0.1969(3)
H12_8 H 0.5881 0.2675 0.1981
C22_8 C 0.6430(2) 0.0029(2) 0.1883(2)
C24_8 C 0.7062(2) 0.2467(2) 0.1290(2)
O1_8 O 0.65072(18) 0.80658(18) 0.01617(17)
O2_8 O 0.61437(19) 0.67178(19) 0.04673(18)
O3_8 O 0.72396(19) 0.89451(18) 0.03761(17)
O6_8 O 0.66358(16) 0.83642(16) 0.16358(16)
C9_8 C 0.3269(3) 0.7681(3) 0.0569(3)
H5_8 H 0.3109 0.7424 0.0191
C11_8 C 0.3972(3) 0.7706(3) 0.0704(3)
H7_8 H 0.4285 0.7466 0.0423
C13_8 C 0.4210(2) 0.8097(3) 0.1266(2)
C15_8 C 0.3744(2) 0.8441(2) 0.1692(2)
H9_8 H 0.3905 0.8700 0.2068
C17_8 C 0.3033(2) 0.8399(3) 0.1559(2)
C19_8 C 0.2798(3) 0.8031(3) 0.0985(3)
H11_8 H 0.2325 0.8019 0.0881
C21_8 C 0.4971(2) 0.8117(2) 0.1430(2)
C23_8 C 0.2533(2) 0.8710(2) 0.2062(2)
O7_8 O 0.51617(17) 0.84928(18) 0.19342(18)
O8_8 O 0.69342(18) 0.98383(17) 0.15072(18)
O9_8 O 0.54673(18) 0.88563(19) 0.32822(19)
O10_8 O 0.82822(19) 0.95327(18) 0.11437(19)
O11_8 O 0.53761(17) 0.77604(19) 0.10549(18)
O12_8 O 0.60549(18) 0.96239(17) 0.22396(19)
C1_8 C 0.7319(3) 0.9431(3) 0.8269(3)
H1_8 H 0.7576 0.9809 0.8109
C2_8 C 0.7294(3) 0.9296(3) 0.8972(3)
H2_8 H 0.7534 0.9577 0.9285
C3_8 C 0.6903(3) 0.8734(2) 0.9210(2)
C4_8 C 0.6559(2) 0.8308(2) 0.8744(2)
H3_8 H 0.6300 0.7932 0.8905
C5_8 C 0.6601(3) 0.8441(2) 0.8033(2)
C6_8 C 0.6969(3) 0.9015(3) 0.7798(3)
H4_8 H 0.6981 0.9119 0.7325
C7_8 C 0.6883(2) 0.8570(2) 0.9971(2)
C8_8 C 0.6290(2) 0.7938(2) 0.7533(2)
Cl1 Cl 0.9686(11) 0.0823(12) 0.1178(11)
Cl1_2 Cl 0.5314(11) 0.9177(12) 0.6178(11)
Cl1_3 Cl 0.0314(11) 0.5823(12) 0.3822(11)
Cl1_4 Cl 0.4686(11) 0.4177(12) 0.8822(11)
Cl1_5 Cl 0.1178(11) 0.9686(11) 0.0823(12)
Cl1_6 Cl 0.6178(11) 0.5314(11) 0.9177(12)
Cl1_7 Cl 0.3822(11) 0.0314(11) 0.5823(12)
Cl1_8 Cl 0.8822(11) 0.4686(11) 0.4177(12)
Cl1_9 Cl 0.0823(12) 0.1178(11) 0.9686(11)
Cl1_10 Cl 0.9177(12) 0.6178(11) 0.5314(11)
Cl1_11 Cl 0.5823(12) 0.3822(11) 0.0314(11)
Cl1_12 Cl 0.4177(12) 0.8822(11) 0.4686(11)
Cl1_13 Cl 0.0314(11) 0.9177(12) 0.8822(11)
Cl1_14 Cl 0.4686(11) 0.0823(12) 0.3822(11)
Cl1_15 Cl 0.9686(11) 0.4177(12) 0.6178(11)
Cl1_16 Cl 0.5314(11) 0.5823(12) 0.1178(11)
Cl1_17 Cl 0.8822(11) 0.0314(11) 0.9177(12)
Cl1_18 Cl 0.3822(11) 0.4686(11) 0.0823(12)
Cl1_19 Cl 0.6178(11) 0.9686(11) 0.4177(12)
Cl1_20 Cl 0.1178(11) 0.5314(11) 0.5823(12)
Cl1_21 Cl 0.9177(12) 0.8822(11) 0.0314(11)
Cl1_22 Cl 0.0823(12) 0.3822(11) 0.4686(11)
Cl1_23 Cl 0.4177(12) 0.6178(11) 0.9686(11)
Cl1_24 Cl 0.5823(12) 0.1178(11) 0.5314(11)
loop_
_geom_bond_atom_site_label_1
_geom_bond_atom_site_label_2
_geom_bond_site_symmetry_1
_geom_bond_site_symmetry_2
Fe6 O13 1_555 1_555
Fe7 O18 1_555 1_555
C9 H5 1_555 1_555
C11 C9 1_555 1_555
H7 C11 1_555 1_555
C13 C11 1_555 1_555
C15 C13 1_555 1_555
H9 C15 1_555 1_555
C17 C15 1_555 1_555
C19 C9 1_555 1_555
H11 C19 1_555 1_555
C21 C13 1_555 1_555
C23 C17 1_555 1_555
O13 C23 1_555 1_555
O18 C23 1_555 1_555
C17 C19 1_555 1_555
Fe1 O1 1_555 1_555
O2 Fe1 1_555 1_555
O6 Fe1 1_555 1_555
Fe2 O6 1_555 1_555
Fe3 O3 1_555 1_555
Fe8 O17 1_555 1_555
Fe9 O22 1_555 1_555
C10 H6 1_555 1_555
C12 C10 1_555 1_555
H8 C12 1_555 1_555
C14 C12 1_555 1_555
C16 C14 1_555 1_555
H10 C16 1_555 1_555
C18 C16 1_555 1_555
C20 C10 1_555 1_555
H12 C20 1_555 1_555
C22 C14 1_555 1_555
C24 C18 1_555 1_555
O7 Fe2 1_555 1_555
O8 Fe3 1_555 1_555
O9 Fe2 1_555 1_555
O10 Fe3 1_555 1_555
O11 Fe1 1_555 1_555
O12 Fe2 1_555 1_555
O14 Fe1 1_555 1_555
O15 Fe2 1_555 1_555
O16 Fe3 1_555 1_555
O17 C24 1_555 1_555
O19 Fe2 1_555 1_555
O20 Fe1 1_555 1_555
O21 Fe3 1_555 1_555
O22 C24 1_555 1_555
O6 Fe3 1_555 1_555
C18 C20 1_555 1_555
C22 O8 1_555 1_555
C22 O12 1_555 1_555
C1 H1 1_555 1_555
C2 C1 1_555 1_555
H2 C2 1_555 1_555
C3 C2 1_555 1_555
C4 C3 1_555 1_555
H3 C4 1_555 1_555
C5 C4 1_555 1_555
C6 C1 1_555 1_555
H4 C6 1_555 1_555
C7 C3 1_555 1_555
C8 C5 1_555 1_555
O4 C8 1_555 1_555
O5 C8 1_555 1_555
Fe4 O4 1_555 1_555
Fe5 O5 1_555 1_555
C5 C6 1_555 1_555
Fe1_2 O1_2 1_555 1_555
C1_2 H1_2 1_555 1_555
C2_2 C1_2 1_555 1_555
H2_2 C2_2 1_555 1_555
C3_2 C2_2 1_555 1_555
C4_2 C3_2 1_555 1_555
H3_2 C4_2 1_555 1_555
C5_2 C4_2 1_555 1_555
C6_2 C1_2 1_555 1_555
H4_2 C6_2 1_555 1_555
C7_2 C3_2 1_555 1_555
C8_2 C5_2 1_555 1_555
O1_2 C7_2 1_555 1_555
O2_2 Fe1_2 1_555 1_555
O3_2 C7_2 1_555 1_555
O4_2 C8_2 1_555 1_555
O5_2 C8_2 1_555 1_555
O6_2 Fe1_2 1_555 1_555
Fe2_2 O6_2 1_555 1_555
Fe3_2 O3_2 1_555 1_555
Fe9 O4_2 1_555 1_555
Fe5_2 O5_2 1_555 1_555
Fe6_2 O13_2 1_555 1_555
Fe7_2 O18_2 1_555 1_555
Fe8_2 O17_2 1_555 1_555
Fe4 O22_2 1_555 1_555
C9_2 H5_2 1_555 1_555
C10_2 H6_2 1_555 1_555
C11_2 C9_2 1_555 1_555
C12_2 C10_2 1_555 1_555
H7_2 C11_2 1_555 1_555
H8_2 C12_2 1_555 1_555
C13_2 C11_2 1_555 1_555
C14_2 C12_2 1_555 1_555
C15_2 C13_2 1_555 1_555
C16_2 C14_2 1_555 1_555
H9_2 C15_2 1_555 1_555
H10_2 C16_2 1_555 1_555
C17_2 C15_2 1_555 1_555
C18_2 C16_2 1_555 1_555
C19_2 C9_2 1_555 1_555
C20_2 C10_2 1_555 1_555
H11_2 C19_2 1_555 1_555
H12_2 C20_2 1_555 1_555
C21_2 C13_2 1_555 1_555
C22_2 C14_2 1_555 1_555
C23_2 C17_2 1_555 1_555
C24_2 C18_2 1_555 1_555
O7_2 Fe2_2 1_555 1_555
O8_2 Fe3_2 1_555 1_555
O9_2 Fe2_2 1_555 1_555
O10_2 Fe3_2 1_555 1_555
O11_2 Fe1_2 1_555 1_555
O12_2 Fe2_2 1_555 1_555
O13_2 C23_2 1_555 1_555
O14_2 Fe1_2 1_555 1_555
O15_2 Fe2_2 1_555 1_555
O16_2 Fe3_2 1_555 1_555
O17_2 C24_2 1_555 1_555
O18_2 C23_2 1_555 1_555
O19_2 Fe2_2 1_555 1_555
O20_2 Fe1_2 1_555 1_555
O21_2 Fe3_2 1_555 1_555
O22_2 C24_2 1_555 1_555
C5_2 C6_2 1_555 1_555
O6_2 Fe3_2 1_555 1_555
C17_2 C19_2 1_555 1_555
C18_2 C20_2 1_555 1_555
C21_2 O7_2 1_555 1_555
C21_2 O11_2 1_555 1_555
C22_2 O8_2 1_555 1_555
C22_2 O12_2 1_555 1_555
Fe7 O17_3 1_555 1_555
Fe9_2 O22_3 1_555 1_555
C10_3 H6_3 1_555 1_555
C12_3 C10_3 1_555 1_555
H8_3 C12_3 1_555 1_555
C14_3 C12_3 1_555 1_555
C16_3 C14_3 1_555 1_555
H10_3 C16_3 1_555 1_555
C18_3 C16_3 1_555 1_555
C20_3 C10_3 1_555 1_555
H12_3 C20_3 1_555 1_555
C22_3 C14_3 1_555 1_555
C24_3 C18_3 1_555 1_555
O17_3 C24_3 1_555 1_555
O22_3 C24_3 1_555 1_555
C18_3 C20_3 1_555 1_555
Fe1_3 O1_3 1_555 1_555
C1_3 H1_3 1_555 1_555
C2_3 C1_3 1_555 1_555
H2_3 C2_3 1_555 1_555
C3_3 C2_3 1_555 1_555
C4_3 C3_3 1_555 1_555
H3_3 C4_3 1_555 1_555
C5_3 C4_3 1_555 1_555
C6_3 C1_3 1_555 1_555
H4_3 C6_3 1_555 1_555
C7_3 C3_3 1_555 1_555
C8_3 C5_3 1_555 1_555
O1_3 C7_3 1_555 1_555
O2_3 Fe1_3 1_555 1_555
O3_3 C7_3 1_555 1_555
O4_3 C8_3 1_555 1_555
O5_3 C8_3 1_555 1_555
O6_3 Fe1_3 1_555 1_555
Fe2_3 O6_3 1_555 1_555
Fe3_3 O3_3 1_555 1_555
Fe4_2 O4_3 1_555 1_555
Fe6_2 O5_3 1_555 1_555
O7_3 Fe2_3 1_555 1_555
O8_3 Fe3_3 1_555 1_555
O9_3 Fe2_3 1_555 1_555
O10_3 Fe3_3 1_555 1_555
O11_3 Fe1_3 1_555 1_555
O12_3 Fe2_3 1_555 1_555
O14_3 Fe1_3 1_555 1_555
O15_3 Fe2_3 1_555 1_555
O16_3 Fe3_3 1_555 1_555
O19_3 Fe2_3 1_555 1_555
O20_3 Fe1_3 1_555 1_555
O21_3 Fe3_3 1_555 1_555
C5_3 C6_3 1_555 1_555
O6_3 Fe3_3 1_555 1_555
Fe5_2 O13_3 1_555 1_555
Fe8 O18_3 1_555 1_555
C9_3 H5_3 1_555 1_555
C11_3 C9_3 1_555 1_555
H7_3 C11_3 1_555 1_555
C13_3 C11_3 1_555 1_555
C15_3 C13_3 1_555 1_555
H9_3 C15_3 1_555 1_555
C17_3 C15_3 1_555 1_555
C19_3 C9_3 1_555 1_555
H11_3 C19_3 1_555 1_555
C21_3 C13_3 1_555 1_555
C23_3 C17_3 1_555 1_555
O13_3 C23_3 1_555 1_555
O18_3 C23_3 1_555 1_555
C17_3 C19_3 1_555 1_555
C1_4 H1_4 1_555 1_555
C2_4 C1_4 1_555 1_555
H2_4 C2_4 1_555 1_555
C3_4 C2_4 1_555 1_555
C4_4 C3_4 1_555 1_555
H3_4 C4_4 1_555 1_555
C5_4 C4_4 1_555 1_555
C6_4 C1_4 1_555 1_555
H4_4 C6_4 1_555 1_555
C7_4 C3_4 1_555 1_555
C8_4 C5_4 1_555 1_555
O4_4 C8_4 1_555 1_555
O5_4 C8_4 1_555 1_555
Fe9_2 O4_4 1_555 1_555
Fe6 O5_4 1_555 1_555
C5_4 C6_4 1_555 1_555
Fe1_4 O1_4 1_555 1_555
O2_4 Fe1_4 1_555 1_555
O6_4 Fe1_4 1_555 1_555
Fe2_4 O6_4 1_555 1_555
Fe3_4 O3_4 1_555 1_555
Fe5 O13_4 1_555 1_555
Fe8_2 O18_4 1_555 1_555
C9_4 H5_4 1_555 1_555
C11_4 C9_4 1_555 1_555
H7_4 C11_4 1_555 1_555
C13_4 C11_4 1_555 1_555
C15_4 C13_4 1_555 1_555
H9_4 C15_4 1_555 1_555
C17_4 C15_4 1_555 1_555
C19_4 C9_4 1_555 1_555
H11_4 C19_4 1_555 1_555
C21_4 C13_4 1_555 1_555
C23_4 C17_4 1_555 1_555
O7_4 Fe2_4 1_555 1_555
O8_4 Fe3_4 1_555 1_555
O9_4 Fe2_4 1_555 1_555
O10_4 Fe3_4 1_555 1_555
O11_4 Fe1_4 1_555 1_555
O12_4 Fe2_4 1_555 1_555
O13_4 C23_4 1_555 1_555
O14_4 Fe1_4 1_555 1_555
O15_4 Fe2_4 1_555 1_555
O16_4 Fe3_4 1_555 1_555
O18_4 C23_4 1_555 1_555
O19_4 Fe2_4 1_555 1_555
O20_4 Fe1_4 1_555 1_555
O21_4 Fe3_4 1_555 1_555
O6_4 Fe3_4 1_555 1_555
C17_4 C19_4 1_555 1_555
C21_4 O7_4 1_555 1_555
C21_4 O11_4 1_555 1_555
Fe7_2 O17_4 1_555 1_555
Fe4_2 O22_4 1_555 1_555
C10_4 H6_4 1_555 1_555
C12_4 C10_4 1_555 1_555
H8_4 C12_4 1_555 1_555
C14_4 C12_4 1_555 1_555
C16_4 C14_4 1_555 1_555
H10_4 C16_4 1_555 1_555
C18_4 C16_4 1_555 1_555
C20_4 C10_4 1_555 1_555
H12_4 C20_4 1_555 1_555
C22_4 C14_4 1_555 1_555
C24_4 C18_4 1_555 1_555
O17_4 C24_4 1_555 1_555
O22_4 C24_4 1_555 1_555
C18_4 C20_4 1_555 1_555
C1_5 H1_5 1_555 1_555
C2_5 C1_5 1_555 1_555
H2_5 C2_5 1_555 1_555
C3_5 C2_5 1_555 1_555
C4_5 C3_5 1_555 1_555
H3_5 C4_5 1_555 1_555
C5_5 C4_5 1_555 1_555
C6_5 C1_5 1_555 1_555
H4_5 C6_5 1_555 1_555
C7_5 C3_5 1_555 1_555
C8_5 C5_5 1_555 1_555
O14_3 C8_5 1_555 1_555
O19_3 C8_5 1_555 1_555
C5_5 C6_5 1_555 1_555
Fe4_2 O1_5 1_555 1_555
O2_5 Fe4_2 1_555 1_555
O6_5 Fe4_2 1_555 1_555
Fe6_2 O6_5 1_555 1_555
Fe7_2 O3_5 1_555 1_555
C10_5 H6_5 1_555 1_555
C12_5 C10_5 1_555 1_555
H8_5 C12_5 1_555 1_555
C14_5 C12_5 1_555 1_555
C16_5 C14_5 1_555 1_555
H10_5 C16_5 1_555 1_555
C18_5 C16_5 1_555 1_555
C20_5 C10_5 1_555 1_555
H12_5 C20_5 1_555 1_555
C22_5 C14_5 1_555 1_555
C24_5 C18_5 1_555 1_555
O7_5 Fe6_2 1_555 1_555
O8_5 Fe7_2 1_555 1_555
O9_5 Fe6_2 1_555 1_555
O10_5 Fe7_2 1_555 1_555
O11_5 Fe4_2 1_555 1_555
O12_5 Fe6_2 1_555 1_555
O16_4 C24_5 1_555 1_555
O20_4 C24_5 1_555 1_555
O6_5 Fe7_2 1_555 1_555
C18_5 C20_5 1_555 1_555
C22_5 O8_5 1_555 1_555
C22_5 O12_5 1_555 1_555
C9_5 H5_5 1_555 1_555
C11_5 C9_5 1_555 1_555
H7_5 C11_5 1_555 1_555
C13_5 C11_5 1_555 1_555
C15_5 C13_5 1_555 1_555
H9_5 C15_5 1_555 1_555
C17_5 C15_5 1_555 1_555
C19_5 C9_5 1_555 1_555
H11_5 C19_5 1_555 1_555
C21_5 C13_5 1_555 1_555
C23_5 C17_5 1_555 1_555
O15_2 C23_5 1_555 1_555
O21_2 C23_5 1_555 1_555
C17_5 C19_5 1_555 1_555
Fe9_2 O1_6 1_555 1_555
C1_6 H1_6 1_555 1_555
C2_6 C1_6 1_555 1_555
H2_6 C2_6 1_555 1_555
C3_6 C2_6 1_555 1_555
C4_6 C3_6 1_555 1_555
H3_6 C4_6 1_555 1_555
C5_6 C4_6 1_555 1_555
C6_6 C1_6 1_555 1_555
H4_6 C6_6 1_555 1_555
C7_6 C3_6 1_555 1_555
C8_6 C5_6 1_555 1_555
O1_6 C7_6 1_555 1_555
O2_6 Fe9_2 1_555 1_555
O3_6 C7_6 1_555 1_555
O14_4 C8_6 1_555 1_555
O19_4 C8_6 1_555 1_555
O6_6 Fe9_2 1_555 1_555
Fe6 O6_6 1_555 1_555
Fe7 O3_6 1_555 1_555
C9_6 H5_6 1_555 1_555
C10_6 H6_6 1_555 1_555
C11_6 C9_6 1_555 1_555
C12_6 C10_6 1_555 1_555
H7_6 C11_6 1_555 1_555
H8_6 C12_6 1_555 1_555
C13_6 C11_6 1_555 1_555
C14_6 C12_6 1_555 1_555
C15_6 C13_6 1_555 1_555
C16_6 C14_6 1_555 1_555
H9_6 C15_6 1_555 1_555
H10_6 C16_6 1_555 1_555
C17_6 C15_6 1_555 1_555
C18_6 C16_6 1_555 1_555
C19_6 C9_6 1_555 1_555
C20_6 C10_6 1_555 1_555
H11_6 C19_6 1_555 1_555
H12_6 C20_6 1_555 1_555
C21_6 C13_6 1_555 1_555
C22_6 C14_6 1_555 1_555
C23_6 C17_6 1_555 1_555
C24_6 C18_6 1_555 1_555
O7_6 Fe6 1_555 1_555
O8_6 Fe7 1_555 1_555
O9_6 Fe6 1_555 1_555
O10_6 Fe7 1_555 1_555
O11_6 Fe9_2 1_555 1_555
O12_6 Fe6 1_555 1_555
O15 C23_6 1_555 1_555
O16_3 C24_6 1_555 1_555
O21 C23_6 1_555 1_555
O20_3 C24_6 1_555 1_555
C5_6 C6_6 1_555 1_555
O6_6 Fe7 1_555 1_555
C17_6 C19_6 1_555 1_555
C18_6 C20_6 1_555 1_555
C21_6 O7_6 1_555 1_555
C21_6 O11_6 1_555 1_555
C22_6 O8_6 1_555 1_555
C22_6 O12_6 1_555 1_555
C9_7 H5_7 1_555 1_555
C11_7 C9_7 1_555 1_555
H7_7 C11_7 1_555 1_555
C13_7 C11_7 1_555 1_555
C15_7 C13_7 1_555 1_555
H9_7 C15_7 1_555 1_555
C17_7 C15_7 1_555 1_555
C19_7 C9_7 1_555 1_555
H11_7 C19_7 1_555 1_555
C21_7 C13_7 1_555 1_555
C23_7 C17_7 1_555 1_555
O15_4 C23_7 1_555 1_555
O21_4 C23_7 1_555 1_555
C17_7 C19_7 1_555 1_555
Fe4 O1_7 1_555 1_555
C1_7 H1_7 1_555 1_555
C2_7 C1_7 1_555 1_555
H2_7 C2_7 1_555 1_555
C3_7 C2_7 1_555 1_555
C4_7 C3_7 1_555 1_555
H3_7 C4_7 1_555 1_555
C5_7 C4_7 1_555 1_555
C6_7 C1_7 1_555 1_555
H4_7 C6_7 1_555 1_555
C7_7 C3_7 1_555 1_555
C8_7 C5_7 1_555 1_555
O1_7 C7_7 1_555 1_555
O2_7 Fe4 1_555 1_555
O3_7 C7_7 1_555 1_555
O14 C8_7 1_555 1_555
O19 C8_7 1_555 1_555
O6_7 Fe4 1_555 1_555
Fe5 O6_7 1_555 1_555
Fe8_2 O3_7 1_555 1_555
O7_7 Fe5 1_555 1_555
O8_7 Fe8_2 1_555 1_555
O9_7 Fe5 1_555 1_555
O10_7 Fe8_2 1_555 1_555
O11_7 Fe4 1_555 1_555
O12_7 Fe5 1_555 1_555
C5_7 C6_7 1_555 1_555
O6_7 Fe8_2 1_555 1_555
C10_7 H6_7 1_555 1_555
C12_7 C10_7 1_555 1_555
H8_7 C12_7 1_555 1_555
C14_7 C12_7 1_555 1_555
C16_7 C14_7 1_555 1_555
H10_7 C16_7 1_555 1_555
C18_7 C16_7 1_555 1_555
C20_7 C10_7 1_555 1_555
H12_7 C20_7 1_555 1_555
C22_7 C14_7 1_555 1_555
C24_7 C18_7 1_555 1_555
O16_2 C24_7 1_555 1_555
O20_2 C24_7 1_555 1_555
C18_7 C20_7 1_555 1_555
C10_8 H6_8 1_555 1_555
C12_8 C10_8 1_555 1_555
H8_8 C12_8 1_555 1_555
C14_8 C12_8 1_555 1_555
C16_8 C14_8 1_555 1_555
H10_8 C16_8 1_555 1_555
C18_8 C16_8 1_555 1_555
C20_8 C10_8 1_555 1_555
H12_8 C20_8 1_555 1_555
C22_8 C14_8 1_555 1_555
C24_8 C18_8 1_555 1_555
O16 C24_8 1_555 1_555
O20 C24_8 1_555 1_555
C18_8 C20_8 1_555 1_555
Fe9 O1_8 1_555 1_555
O2_8 Fe9 1_555 1_555
O6_8 Fe9 1_555 1_555
Fe5_2 O6_8 1_555 1_555
Fe8 O3_8 1_555 1_555
C9_8 H5_8 1_555 1_555
C11_8 C9_8 1_555 1_555
H7_8 C11_8 1_555 1_555
C13_8 C11_8 1_555 1_555
C15_8 C13_8 1_555 1_555
H9_8 C15_8 1_555 1_555
C17_8 C15_8 1_555 1_555
C19_8 C9_8 1_555 1_555
H11_8 C19_8 1_555 1_555
C21_8 C13_8 1_555 1_555
C23_8 C17_8 1_555 1_555
O7_8 Fe5_2 1_555 1_555
O8_8 Fe8 1_555 1_555
O9_8 Fe5_2 1_555 1_555
O10_8 Fe8 1_555 1_555
O11_8 Fe9 1_555 1_555
O12_8 Fe5_2 1_555 1_555
O15_3 C23_8 1_555 1_555
O21_3 C23_8 1_555 1_555
O6_8 Fe8 1_555 1_555
C17_8 C19_8 1_555 1_555
C21_8 O7_8 1_555 1_555
C21_8 O11_8 1_555 1_555
C1_8 H1_8 1_555 1_555
C2_8 C1_8 1_555 1_555
H2_8 C2_8 1_555 1_555
C3_8 C2_8 1_555 1_555
C4_8 C3_8 1_555 1_555
H3_8 C4_8 1_555 1_555
C5_8 C4_8 1_555 1_555
C6_8 C1_8 1_555 1_555
H4_8 C6_8 1_555 1_555
C7_8 C3_8 1_555 1_555
C8_8 C5_8 1_555 1_555
O14_2 C8_8 1_555 1_555
O19_2 C8_8 1_555 1_555
C5_8 C6_8 1_555 1_555

#END
