
###############################################################################
#
# This file contains modified crystal structure data generated from the
# MOF subset of the Cambridge Structural Database (CSD) v543 
# hosted by the Cambridge Crystallographic Data Centre (CCDC).
#
# This work is licensed under the Creative Commons
# Attribution-NonCommercial-ShareAlike 4.0 International License.
# To view a copy of this license, visit
# http://creativecommons.org/licenses/by-nc-sa/4.0/
# or send a letter to
# Creative Commons, PO Box 1866, Mountain View, CA 94042, USA.
#
# CIF created using the CSD Python API on 29 September 2022
# The structure has been converted into the P1 space group
# The structure has a 3D framework
# The original CSD entry IHECAB is in the monoclinic crystal system
# The framework has been calculated to contain at least 10.0% void space
# The void calculation uses a probe of radius 1.32A, grid spacing 0.4
#
###############################################################################

data_IHECAB
_chemical_formula_moiety         '(C12 H12 N16 O8 Zn4)n'
_symmetry_cell_setting           triclinic
_symmetry_space_group_name_H-M   'P 1'
_symmetry_Int_Tables_number      1
_space_group_name_Hall           'P 1'
loop_
_symmetry_equiv_pos_site_id
_symmetry_equiv_pos_as_xyz
1 x,y,z
_cell_length_a                   8.911(8)
_cell_length_b                   8.098(7)
_cell_length_c                   10.289(10)
_cell_angle_alpha                90
_cell_angle_beta                 101.433(17)
_cell_angle_gamma                90
_cell_volume                     727.735
loop_
_atom_site_label
_atom_site_type_symbol
_atom_site_fract_x
_atom_site_fract_y
_atom_site_fract_z
Zn6 Zn 0.31382(5) 0.44122(6) 0.06136(4)
Zn1 Zn 0.31382(5) 0.05878(6) 0.56136(4)
N1 N 0.3784(4) 0.2205(5) 0.7123(4)
N2 N 0.3769(4) 0.3617(5) 0.8966(4)
N3 N 0.5198(4) 0.3815(5) 0.8653(4)
C2 C 0.2992(5) 0.2659(6) 0.8035(4)
H1 H 0.1987 0.2331 0.8015
C3 C 0.5138(5) 0.2944(6) 0.7545(4)
O2 O 0.0909(4) 0.1902(4) 0.5110(4)
N4 N 0.6344(6) 0.2829(8) 0.6902(6)
H2 H 0.7188 0.3334 0.7212
H3 H 0.6255 0.2253 0.6189
Zn4 Zn 0.68618(5) 0.55878(6) 0.93864(4)
N10 N 0.3769(4) 0.1383(5) 0.3966(4)
O3 O 0.1582(4) 0.8706(5) 0.5410(4)
C4 C 0.0184(5) 0.9084(6) 0.5077(5)
N11 N 0.4802(4) 0.8815(5) 0.6347(4)
O1 O 0.8418(4) 0.1294(5) 0.4590(4)
C1 C 0.9816(5) 0.0916(6) 0.4923(5)
N12 N 0.5198(4) 0.1185(5) 0.3653(4)
O4 O 0.9091(4) 0.8098(4) 0.4890(4)
Zn2 Zn 0.68618(5) 0.94122(6) 0.43864(4)
N5 N 0.6216(4) 0.7795(5) 0.2877(4)
N6 N 0.6231(4) 0.6383(5) 0.1034(4)
N7 N 0.4802(4) 0.6185(5) 0.1347(4)
C5 C 0.7008(5) 0.7341(6) 0.1965(4)
H4 H 0.8013 0.7669 0.1985
C6 C 0.4862(5) 0.7056(6) 0.2455(4)
N8 N 0.3656(6) 0.7171(8) 0.3098(6)
H5 H 0.2812 0.6666 0.2788
H6 H 0.3745 0.7747 0.3811
N9 N 0.6231(4) 0.8617(5) 0.6034(4)
O1_2 O 0.1582(4) 0.6294(5) 0.0410(4)
C1_2 C 0.0184(5) 0.5916(6) 0.0077(5)
O4_2 O 0.0909(4) 0.3098(4) 0.0110(4)
N5_2 N 0.3784(4) 0.2795(5) 0.2123(4)
C5_2 C 0.2992(5) 0.2341(6) 0.3035(4)
H4_2 H 0.1987 0.2669 0.3015
C6_2 C 0.5138(5) 0.2056(6) 0.2545(4)
N8_2 N 0.6344(6) 0.2171(8) 0.1902(6)
H5_2 H 0.7188 0.1666 0.2212
H6_2 H 0.6255 0.2747 0.1189
N1_2 N 0.6216(4) 0.7205(5) 0.7877(4)
C2_2 C 0.7008(5) 0.7659(6) 0.6965(4)
H1_2 H 0.8013 0.7331 0.6985
C3_2 C 0.4862(5) 0.7944(6) 0.7455(4)
O2_2 O 0.9091(4) 0.6902(4) 0.9890(4)
N4_2 N 0.3656(6) 0.7829(8) 0.8098(6)
H2_2 H 0.2812 0.8334 0.7788
H3_2 H 0.3745 0.7253 0.8811
O3_2 O 0.8418(4) 0.3706(5) 0.9590(4)
C4_2 C 0.9816(5) 0.4084(6) 0.9923(5)
loop_
_geom_bond_atom_site_label_1
_geom_bond_atom_site_label_2
_geom_bond_site_symmetry_1
_geom_bond_site_symmetry_2
Zn1 N1 1_555 1_555
N1 C2 1_555 1_555
N2 N3 1_555 1_555
N3 C3 1_555 1_555
C2 N2 1_555 1_555
H1 C2 1_555 1_555
C3 N1 1_555 1_555
O2 Zn1 1_555 1_555
N4 C3 1_555 1_555
H2 N4 1_555 1_555
H3 N4 1_555 1_555
Zn4 N3 1_555 1_555
N10 Zn1 1_555 1_555
O3 C4 1_555 1_555
O1 C1 1_555 1_555
N5 Zn2 1_555 1_555
N6 N7 1_555 1_555
N7 C6 1_555 1_555
C5 N5 1_555 1_555
H4 C5 1_555 1_555
C6 N5 1_555 1_555
N8 C6 1_555 1_555
H5 N8 1_555 1_555
H6 N8 1_555 1_555
Zn6 N7 1_555 1_555
N9 Zn2 1_555 1_555
O4 Zn2 1_555 1_555
N6 C5 1_555 1_555
O1_2 C1_2 1_555 1_555
Zn6 O1_2 1_555 1_555
N5_2 Zn6 1_555 1_555
N10 N12 1_555 1_555
N12 C6_2 1_555 1_555
C5_2 N5_2 1_555 1_555
H4_2 C5_2 1_555 1_555
C6_2 N5_2 1_555 1_555
N8_2 C6_2 1_555 1_555
H5_2 N8_2 1_555 1_555
H6_2 N8_2 1_555 1_555
O4_2 Zn6 1_555 1_555
N10 C5_2 1_555 1_555
Zn4 N1_2 1_555 1_555
N1_2 C2_2 1_555 1_555
N9 N11 1_555 1_555
N11 C3_2 1_555 1_555
C2_2 N9 1_555 1_555
H1_2 C2_2 1_555 1_555
C3_2 N1_2 1_555 1_555
O2_2 Zn4 1_555 1_555
N4_2 C3_2 1_555 1_555
H2_2 N4_2 1_555 1_555
H3_2 N4_2 1_555 1_555
O3_2 Zn4 1_555 1_555
O3_2 C4_2 1_555 1_555

#END
