
###############################################################################
#
# This file contains modified crystal structure data generated from the
# MOF subset of the Cambridge Structural Database (CSD) v543 
# hosted by the Cambridge Crystallographic Data Centre (CCDC).
#
# This work is licensed under the Creative Commons
# Attribution-NonCommercial-ShareAlike 4.0 International License.
# To view a copy of this license, visit
# http://creativecommons.org/licenses/by-nc-sa/4.0/
# or send a letter to
# Creative Commons, PO Box 1866, Mountain View, CA 94042, USA.
#
# CIF created using the CSD Python API on 29 September 2022
# The structure has been converted into the P1 space group
# The structure has a 3D framework
# The original CSD entry IHERIY is in the triclinic crystal system
# The framework has been calculated to contain at least 10.0% void space
# The void calculation uses a probe of radius 1.32A, grid spacing 0.4
#
###############################################################################

data_IHERIY
_chemical_formula_moiety         '(C68 H46 Co4 N4 O16 S2)n'
_symmetry_cell_setting           triclinic
_symmetry_space_group_name_H-M   'P 1'
_symmetry_Int_Tables_number      1
_space_group_name_Hall           'P 1'
loop_
_symmetry_equiv_pos_site_id
_symmetry_equiv_pos_as_xyz
1 x,y,z
_cell_length_a                   11.862(2)
_cell_length_b                   12.013(2)
_cell_length_c                   13.685(3)
_cell_angle_alpha                102.81(3)
_cell_angle_beta                 100.06(3)
_cell_angle_gamma                98.87(3)
_cell_volume                     1834.13
loop_
_atom_site_label
_atom_site_type_symbol
_atom_site_fract_x
_atom_site_fract_y
_atom_site_fract_z
_atom_site_U_iso_or_equiv
_atom_site_thermal_displace_type
O8 O 0.12829(14) 0.09808(14) 0.15271(12) 0.0214 Uani
C21 C 0.09078(19) 0.0228(2) 0.19680(17) 0.0196 Uani
Co10 Co 0.13028(3) 0.27979(3) 0.18220(2) 0.0184 Uani
O9 O 0.13646(15) 0.93506(15) 0.19704(14) 0.0273 Uani
H13 H 0.0538 0.9674 0.3651 0.0340 Uiso
Co6 Co 0.25342(3) 0.97299(3) 0.10743(2) 0.0190 Uani
N3 N 0.12486(18) 0.28565(18) 0.02652(15) 0.0234 Uani
H21 H 0.0068 0.3828 0.0214 0.0360 Uiso
O1 O 0.38679(15) 0.09596(15) 0.08828(13) 0.0272 Uani
O2 O 0.38818(15) 0.08860(15) 0.24694(13) 0.0286 Uani
O3 O 0.38129(19) 0.48739(18) 0.2545(2) 0.0654 Uani
O4 O 0.30757(14) 0.29832(14) 0.20359(13) 0.0257 Uani
N1 N 0.14436(18) 0.28661(18) 0.34280(15) 0.0247 Uani
O5 O 0.15040(16) 0.46737(15) 0.21733(14) 0.0303 Uani
H1 H 0.2200 0.4974 0.2295 0.0450 Uiso
H2 H 0.1321 0.5087 0.2688 0.0450 Uiso
O6 O 0.94748(15) 0.23491(16) 0.13894(14) 0.0289 Uani
O7 O 0.85099(18) 0.0661(2) 0.02981(15) 0.0476 Uani
S1 S 0.65748(6) 0.07569(6) 0.17563(6) 0.0409 Uani
C7 C 0.4266(2) 0.1367(2) 0.18378(19) 0.0222 Uani
C8 C 0.6404(2) 0.2194(2) 0.2259(2) 0.0276 Uani
C9 C 0.5274(2) 0.2402(2) 0.22051(18) 0.0230 Uani
C10 C 0.5117(2) 0.3552(2) 0.2488(2) 0.0293 Uani
C11 C 0.3913(2) 0.3836(2) 0.2357(2) 0.0293 Uani
C12 C 0.6089(3) 0.4449(3) 0.2867(3) 0.0506 Uani
H8 H 0.5990 0.5213 0.3066 0.0610 Uiso
C13 C 0.7200(3) 0.4223(3) 0.2954(3) 0.0597 Uani
H9 H 0.7844 0.4830 0.3233 0.0720 Uiso
C14 C 0.7359(2) 0.3104(3) 0.2630(3) 0.0436 Uani
H10 H 0.8110 0.2959 0.2660 0.0520 Uiso
C15 C 0.7946(2) 0.0653(2) 0.2472(2) 0.0280 Uani
C16 C 0.7974(3) 0.0306(2) 0.3377(2) 0.0372 Uani
H11 H 0.7322 0.0282 0.3669 0.0450 Uiso
C19 C 0.9903(2) 0.03410(19) 0.24878(18) 0.0201 Uani
C20 C 0.8943(2) 0.0747(2) 0.20556(18) 0.0216 Uani
C22 C 0.8981(2) 0.1298(2) 0.11670(18) 0.0241 Uani
C23 C 0.0667(2) 0.3239(2) 0.3956(2) 0.0318 Uani
H14 H 0.0056 0.3510 0.3622 0.0380 Uiso
C24 C 0.0727(3) 0.3240(3) 0.4976(2) 0.0363 Uani
H15 H 0.0161 0.3501 0.5309 0.0440 Uiso
C25 C 0.1640(2) 0.2849(2) 0.55002(19) 0.0308 Uani
C26 C 0.2440(3) 0.2472(3) 0.4954(2) 0.0358 Uani
H16 H 0.3067 0.2207 0.5272 0.0430 Uiso
C27 C 0.2316(2) 0.2484(2) 0.3937(2) 0.0321 Uani
H17 H 0.2864 0.2215 0.3585 0.0390 Uiso
C28 C 0.1778(3) 0.2801(2) 0.6582(2) 0.0340 Uani
H18 H 0.2404 0.2500 0.6853 0.0410 Uiso
C29 C 0.1091(3) 0.3147(2) 0.7195(2) 0.0330 Uani
H19 H 0.0487 0.3481 0.6933 0.0400 Uiso
C30 C 0.1194(2) 0.3053(2) 0.82569(19) 0.0288 Uani
C31 C 0.0501(2) 0.3587(2) 0.8848(2) 0.0316 Uani
H20 H 0.0004 0.4027 0.8583 0.0380 Uiso
C32 C 0.0548(2) 0.3467(2) 0.9832(2) 0.0302 Uani
C33 C 0.1924(2) 0.2334(2) 0.96974(19) 0.0280 Uani
H22 H 0.2415 0.1903 0.9984 0.0340 Uiso
C34 C 0.1922(2) 0.2409(2) 0.8704(2) 0.0320 Uani
H23 H 0.2403 0.2033 0.8335 0.0380 Uiso
N2 N 0.32615(18) 0.82512(17) 0.08310(16) 0.0247 Uani
C1 C 0.4253(2) 0.8219(2) 0.0491(2) 0.0286 Uani
H3 H 0.4668 0.8908 0.0419 0.0340 Uiso
C2 C 0.4689(2) 0.7223(2) 0.0244(2) 0.0306 Uani
H4 H 0.5383 0.7248 0.0014 0.0370 Uiso
C3 C 0.4088(2) 0.6176(2) 0.0339(2) 0.0306 Uani
C4 C 0.3043(3) 0.6205(2) 0.0660(3) 0.0419 Uani
H5 H 0.2594 0.5523 0.0713 0.0500 Uiso
C5 C 0.2671(2) 0.7239(2) 0.0899(2) 0.0365 Uani
H6 H 0.1972 0.7236 0.1119 0.0440 Uiso
C6 C 0.4504(3) 0.5078(2) 0.0123(2) 0.0379 Uani
H7 H 0.4007 0.4419 0.0165 0.0450 Uiso
C17 C 0.8964(3) 0.9999(3) 0.3843(2) 0.0362 Uani
H12 H 0.9000 0.9819 0.4473 0.0430 Uiso
C18 C 0.9904(2) 0.9958(2) 0.3373(2) 0.0285 Uani
O20 O 0.05252(15) 0.76509(16) 0.86106(14) 0.0289 Uani
Co8 Co 0.74658(3) 0.02701(3) 0.89257(2) 0.0190 Uani
N4 N 0.67385(18) 0.17488(17) 0.91690(16) 0.0247 Uani
C35 C 0.5747(2) 0.1781(2) 0.9509(2) 0.0286 Uani
H24 H 0.5332 0.1092 0.9581 0.0340 Uiso
C36 C 0.5311(2) 0.2777(2) 0.9756(2) 0.0306 Uani
H25 H 0.4617 0.2752 0.9986 0.0370 Uiso
C37 C 0.5912(2) 0.3824(2) 0.9661(2) 0.0306 Uani
C38 C 0.6957(3) 0.3795(2) 0.9340(3) 0.0419 Uani
H26 H 0.7406 0.4477 0.9287 0.0500 Uiso
C39 C 0.7329(2) 0.2761(2) 0.9101(2) 0.0365 Uani
H27 H 0.8028 0.2764 0.8881 0.0440 Uiso
C40 C 0.5496(3) 0.4922(2) 0.9877(2) 0.0379 Uani
H28 H 0.5993 0.5581 0.9835 0.0450 Uiso
C51 C 0.1036(3) 0.0001(3) 0.6157(2) 0.0362 Uani
H35 H 0.1000 0.0181 0.5527 0.0430 Uiso
C52 C 0.0096(2) 0.0042(2) 0.6627(2) 0.0285 Uani
O22 O 0.14901(18) 0.9339(2) 0.97019(15) 0.0476 Uani
O26 O 0.86354(15) 0.06494(15) 0.80296(14) 0.0273 Uani
Co4 Co 0.86972(3) 0.72021(3) 0.81780(2) 0.0184 Uani
O10 O 0.61321(15) 0.90404(15) 0.91172(13) 0.0272 Uani
O11 O 0.61182(15) 0.91140(15) 0.75306(13) 0.0286 Uani
O12 O 0.61871(19) 0.51261(18) 0.7455(2) 0.0654 Uani
O13 O 0.69243(14) 0.70168(14) 0.79641(13) 0.0257 Uani
N5 N 0.85564(18) 0.71339(18) 0.65720(15) 0.0247 Uani
O14 O 0.84960(16) 0.53263(15) 0.78267(14) 0.0303 Uani
H29 H 0.7800 0.5026 0.7705 0.0450 Uiso
H30 H 0.8679 0.4913 0.7312 0.0450 Uiso
S2 S 0.34252(6) 0.92431(6) 0.82437(6) 0.0409 Uani
C41 C 0.5734(2) 0.8633(2) 0.81622(19) 0.0222 Uani
C42 C 0.3596(2) 0.7806(2) 0.7741(2) 0.0276 Uani
C43 C 0.4726(2) 0.7598(2) 0.77949(18) 0.0230 Uani
C44 C 0.4883(2) 0.6448(2) 0.7512(2) 0.0293 Uani
C45 C 0.6087(2) 0.6164(2) 0.7643(2) 0.0293 Uani
C46 C 0.3911(3) 0.5551(3) 0.7133(3) 0.0506 Uani
H31 H 0.4010 0.4787 0.6934 0.0610 Uiso
C47 C 0.2800(3) 0.5777(3) 0.7046(3) 0.0597 Uani
H32 H 0.2156 0.5170 0.6767 0.0720 Uiso
C48 C 0.2641(2) 0.6896(3) 0.7370(3) 0.0436 Uani
H33 H 0.1890 0.7041 0.7340 0.0520 Uiso
C49 C 0.2054(2) 0.9347(2) 0.7528(2) 0.0280 Uani
C50 C 0.2026(3) 0.9694(2) 0.6623(2) 0.0372 Uani
H34 H 0.2678 0.9718 0.6331 0.0450 Uiso
C53 C 0.0097(2) 0.96590(19) 0.75122(18) 0.0201 Uani
C54 C 0.1057(2) 0.9253(2) 0.79444(18) 0.0216 Uani
C56 C 0.1019(2) 0.8702(2) 0.88330(18) 0.0241 Uani
C57 C 0.9333(2) 0.6761(2) 0.6044(2) 0.0318 Uani
H37 H 0.9944 0.6490 0.6378 0.0380 Uiso
C58 C 0.9273(3) 0.6760(3) 0.5024(2) 0.0363 Uani
H38 H 0.9839 0.6499 0.4691 0.0440 Uiso
C59 C 0.8360(2) 0.7151(2) 0.44998(19) 0.0308 Uani
C60 C 0.7560(3) 0.7528(3) 0.5046(2) 0.0358 Uani
H39 H 0.6933 0.7793 0.4728 0.0430 Uiso
C61 C 0.7684(2) 0.7516(2) 0.6063(2) 0.0321 Uani
H40 H 0.7136 0.7785 0.6415 0.0390 Uiso
C62 C 0.8222(3) 0.7199(2) 0.3418(2) 0.0340 Uani
H41 H 0.7596 0.7500 0.3147 0.0410 Uiso
C63 C 0.8909(3) 0.6853(2) 0.2805(2) 0.0330 Uani
H42 H 0.9513 0.6519 0.3067 0.0400 Uiso
C64 C 0.8806(2) 0.6947(2) 0.17431(19) 0.0288 Uani
C65 C 0.9499(2) 0.6413(2) 0.1152(2) 0.0316 Uani
H43 H 0.9996 0.5973 0.1417 0.0380 Uiso
C66 C 0.9452(2) 0.6533(2) 0.0168(2) 0.0302 Uani
C67 C 0.8076(2) 0.7666(2) 0.03026(19) 0.0280 Uani
H45 H 0.7585 0.8097 0.0016 0.0340 Uiso
C68 C 0.8078(2) 0.7591(2) 0.1296(2) 0.0320 Uani
H46 H 0.7597 0.7967 0.1665 0.0380 Uiso
O24 O 0.87171(14) 0.90192(14) 0.84729(12) 0.0214 Uani
N8 N 0.87514(18) 0.71435(18) 0.97348(15) 0.0234 Uani
H44 H 0.9932 0.6172 0.9786 0.0360 Uiso
H36 H 0.9462 0.0326 0.6349 0.0340 Uiso
C55 C 0.90922(19) 0.9772(2) 0.80320(17) 0.0196 Uani
loop_
_atom_site_aniso_label
_atom_site_aniso_U_11
_atom_site_aniso_U_22
_atom_site_aniso_U_33
_atom_site_aniso_U_23
_atom_site_aniso_U_13
_atom_site_aniso_U_12
O8 0.0214 0.0223 0.023 0.0056 0.0086 0.0078
C21 0.0167 0.0232 0.0174 0.0023 0.002 0.0057
Co10 0.02025 0.02235 0.01486 0.00577 0.00535 0.00785
O9 0.0269 0.0288 0.0339 0.0122 0.0126 0.0153
Co6 0.01636 0.01944 0.02184 0.00465 0.00459 0.00619
N3 0.0253 0.0286 0.0184 0.0084 0.0056 0.007
O1 0.0235 0.0257 0.0282 0.0014 0.0041 0.0019
O2 0.0244 0.0291 0.0316 0.0091 0.0057 0.0021
O3 0.0324 0.0248 0.133 0.0067 0.0146 0.0115
O4 0.0208 0.0249 0.0314 0.005 0.0051 0.0084
N1 0.0282 0.0283 0.0167 0.0043 0.0054 0.0048
O5 0.0322 0.0257 0.034 0.0058 0.0086 0.0097
O6 0.0239 0.0345 0.0363 0.0184 0.0099 0.0125
O7 0.0407 0.0664 0.0255 -0.0086 -0.0065 0.0259
S1 0.0163 0.0317 0.0618 -0.0112 0.002 0.0076
C7 0.0149 0.0213 0.0321 0.005 0.0064 0.0099
C8 0.0199 0.0259 0.0346 0.002 0.0059 0.0057
C9 0.0176 0.0247 0.0256 0.0046 0.005 0.0037
C10 0.0216 0.0244 0.0402 0.0056 0.0053 0.0053
C11 0.0282 0.025 0.0359 0.0062 0.0087 0.0094
C12 0.0326 0.0219 0.089 0.003 0.0056 0.0057
C13 0.0239 0.0294 0.111 0.0024 0.0047 -0.0052
C14 0.0197 0.0328 0.072 0.0033 0.0074 0.0039
C15 0.0203 0.0213 0.041 0.0009 0.0105 0.0059
C16 0.0348 0.0368 0.0472 0.0098 0.0276 0.0091
C19 0.018 0.0175 0.0245 0.0033 0.0063 0.0041
C20 0.0197 0.0173 0.025 -0.0004 0.005 0.0039
C22 0.0143 0.0357 0.0231 0.0039 0.0035 0.0134
C23 0.0327 0.0393 0.0232 0.0055 0.0074 0.0086
C24 0.0401 0.0414 0.0275 0.0019 0.0177 0.0068
C25 0.0388 0.0273 0.0221 0.0059 0.0038 -0.0021
C26 0.0403 0.0455 0.0241 0.0129 0.005 0.0125
C27 0.0359 0.0413 0.0223 0.0101 0.008 0.0124
C28 0.0409 0.0341 0.0266 0.0092 0.0071 0.0046
C29 0.0402 0.0342 0.0248 0.01 0.0068 0.0051
C30 0.0352 0.0287 0.0207 0.0085 0.0047 -0.0003
C31 0.0358 0.0381 0.0253 0.0157 0.0045 0.0118
C32 0.0315 0.0391 0.0246 0.0117 0.008 0.0138
C33 0.0343 0.0305 0.0227 0.0091 0.0083 0.011
C34 0.0408 0.0344 0.0238 0.0056 0.0152 0.0103
N2 0.0239 0.0222 0.0295 0.0057 0.0073 0.0089
C1 0.0266 0.0224 0.0396 0.009 0.0123 0.0062
C2 0.0255 0.028 0.0437 0.0098 0.0158 0.0114
C3 0.0307 0.0232 0.04 0.0067 0.0113 0.0096
C4 0.0356 0.024 0.073 0.016 0.0247 0.007
C5 0.0284 0.0308 0.0581 0.0136 0.023 0.0109
C6 0.0398 0.0224 0.0572 0.0115 0.0191 0.012
C17 0.0425 0.0382 0.0358 0.0139 0.0215 0.0107
C18 0.0297 0.0297 0.0303 0.0102 0.0101 0.0105
O20 0.0239 0.0345 0.0363 0.0184 0.0099 0.0125
Co8 0.01636 0.01944 0.02184 0.00465 0.00459 0.00619
N4 0.0239 0.0222 0.0295 0.0057 0.0073 0.0089
C35 0.0266 0.0224 0.0396 0.009 0.0123 0.0062
C36 0.0255 0.028 0.0437 0.0098 0.0158 0.0114
C37 0.0307 0.0232 0.04 0.0067 0.0113 0.0096
C38 0.0356 0.024 0.073 0.016 0.0247 0.007
C39 0.0284 0.0308 0.0581 0.0136 0.023 0.0109
C40 0.0398 0.0224 0.0572 0.0115 0.0191 0.012
C51 0.0425 0.0382 0.0358 0.0139 0.0215 0.0107
C52 0.0297 0.0297 0.0303 0.0102 0.0101 0.0105
O22 0.0407 0.0664 0.0255 -0.0086 -0.0065 0.0259
O26 0.0269 0.0288 0.0339 0.0122 0.0126 0.0153
Co4 0.02025 0.02235 0.01486 0.00577 0.00535 0.00785
O10 0.0235 0.0257 0.0282 0.0014 0.0041 0.0019
O11 0.0244 0.0291 0.0316 0.0091 0.0057 0.0021
O12 0.0324 0.0248 0.133 0.0067 0.0146 0.0115
O13 0.0208 0.0249 0.0314 0.005 0.0051 0.0084
N5 0.0282 0.0283 0.0167 0.0043 0.0054 0.0048
O14 0.0322 0.0257 0.034 0.0058 0.0086 0.0097
S2 0.0163 0.0317 0.0618 -0.0112 0.002 0.0076
C41 0.0149 0.0213 0.0321 0.005 0.0064 0.0099
C42 0.0199 0.0259 0.0346 0.002 0.0059 0.0057
C43 0.0176 0.0247 0.0256 0.0046 0.005 0.0037
C44 0.0216 0.0244 0.0402 0.0056 0.0053 0.0053
C45 0.0282 0.025 0.0359 0.0062 0.0087 0.0094
C46 0.0326 0.0219 0.089 0.003 0.0056 0.0057
C47 0.0239 0.0294 0.111 0.0024 0.0047 -0.0052
C48 0.0197 0.0328 0.072 0.0033 0.0074 0.0039
C49 0.0203 0.0213 0.041 0.0009 0.0105 0.0059
C50 0.0348 0.0368 0.0472 0.0098 0.0276 0.0091
C53 0.018 0.0175 0.0245 0.0033 0.0063 0.0041
C54 0.0197 0.0173 0.025 -0.0004 0.005 0.0039
C56 0.0143 0.0357 0.0231 0.0039 0.0035 0.0134
C57 0.0327 0.0393 0.0232 0.0055 0.0074 0.0086
C58 0.0401 0.0414 0.0275 0.0019 0.0177 0.0068
C59 0.0388 0.0273 0.0221 0.0059 0.0038 -0.0021
C60 0.0403 0.0455 0.0241 0.0129 0.005 0.0125
C61 0.0359 0.0413 0.0223 0.0101 0.008 0.0124
C62 0.0409 0.0341 0.0266 0.0092 0.0071 0.0046
C63 0.0402 0.0342 0.0248 0.01 0.0068 0.0051
C64 0.0352 0.0287 0.0207 0.0085 0.0047 -0.0003
C65 0.0358 0.0381 0.0253 0.0157 0.0045 0.0118
C66 0.0315 0.0391 0.0246 0.0117 0.008 0.0138
C67 0.0343 0.0305 0.0227 0.0091 0.0083 0.011
C68 0.0408 0.0344 0.0238 0.0056 0.0152 0.0103
O24 0.0214 0.0223 0.023 0.0056 0.0086 0.0078
N8 0.0253 0.0286 0.0184 0.0084 0.0056 0.007
C55 0.0167 0.0232 0.0174 0.0023 0.002 0.0057
loop_
_geom_bond_atom_site_label_1
_geom_bond_atom_site_label_2
_geom_bond_site_symmetry_1
_geom_bond_site_symmetry_2
O8 C21 1_555 1_555
O8 Co10 1_555 1_555
O9 Co6 1_555 1_555
Co10 N3 1_555 1_555
Co10 O4 1_555 1_555
O1 C7 1_555 1_555
O3 C11 1_555 1_555
O4 C11 1_555 1_555
N1 Co10 1_555 1_555
O5 Co10 1_555 1_555
H1 O5 1_555 1_555
H2 O5 1_555 1_555
O6 C22 1_555 1_555
O7 C22 1_555 1_555
S1 C8 1_555 1_555
C7 O2 1_555 1_555
C8 C9 1_555 1_555
C9 C7 1_555 1_555
C10 C9 1_555 1_555
C11 C10 1_555 1_555
C12 C10 1_555 1_555
H8 C12 1_555 1_555
C13 C12 1_555 1_555
H9 C13 1_555 1_555
C14 C8 1_555 1_555
H10 C14 1_555 1_555
C15 S1 1_555 1_555
C16 C15 1_555 1_555
H11 C16 1_555 1_555
C20 C15 1_555 1_555
C22 C20 1_555 1_555
C23 N1 1_555 1_555
H14 C23 1_555 1_555
C24 C23 1_555 1_555
H15 C24 1_555 1_555
C25 C24 1_555 1_555
C26 C25 1_555 1_555
H16 C26 1_555 1_555
C27 N1 1_555 1_555
H17 C27 1_555 1_555
C28 C25 1_555 1_555
H18 C28 1_555 1_555
C29 C28 1_555 1_555
H19 C29 1_555 1_555
C30 C29 1_555 1_555
C31 C30 1_555 1_555
H20 C31 1_555 1_555
C32 C31 1_555 1_555
H22 C33 1_555 1_555
C34 C30 1_555 1_555
H23 C34 1_555 1_555
C13 C14 1_555 1_555
C19 C20 1_555 1_555
C26 C27 1_555 1_555
C33 C34 1_555 1_555
N2 Co6 1_555 1_555
C1 N2 1_555 1_555
H3 C1 1_555 1_555
C2 C1 1_555 1_555
H4 C2 1_555 1_555
C3 C2 1_555 1_555
C4 C3 1_555 1_555
H5 C4 1_555 1_555
C5 N2 1_555 1_555
H6 C5 1_555 1_555
C6 C3 1_555 1_555
H7 C6 1_555 1_555
H12 C17 1_555 1_555
C18 C17 1_555 1_555
C4 C5 1_555 1_555
N4 C35 1_555 1_555
C35 H24 1_555 1_555
C36 C35 1_555 1_555
H25 C36 1_555 1_555
C37 C36 1_555 1_555
C38 C37 1_555 1_555
H26 C38 1_555 1_555
C39 N4 1_555 1_555
H27 C39 1_555 1_555
H28 C40 1_555 1_555
Co8 N4 1_555 1_555
H35 C51 1_555 1_555
C52 C51 1_555 1_555
O26 Co8 1_555 1_555
C37 C40 1_555 1_555
C38 C39 1_555 1_555
Co4 O13 1_555 1_555
O12 C45 1_555 1_555
O13 C45 1_555 1_555
N5 Co4 1_555 1_555
O14 Co4 1_555 1_555
H29 O14 1_555 1_555
H30 O14 1_555 1_555
O20 C56 1_555 1_555
O22 C56 1_555 1_555
S2 C42 1_555 1_555
C41 O10 1_555 1_555
C42 C43 1_555 1_555
C43 C41 1_555 1_555
C44 C43 1_555 1_555
C45 C44 1_555 1_555
C46 C44 1_555 1_555
H31 C46 1_555 1_555
C47 C46 1_555 1_555
H32 C47 1_555 1_555
C48 C42 1_555 1_555
H33 C48 1_555 1_555
C49 S2 1_555 1_555
C50 C49 1_555 1_555
H34 C50 1_555 1_555
C54 C49 1_555 1_555
C56 C54 1_555 1_555
C57 N5 1_555 1_555
H37 C57 1_555 1_555
C58 C57 1_555 1_555
H38 C58 1_555 1_555
C59 C58 1_555 1_555
C60 C59 1_555 1_555
H39 C60 1_555 1_555
C61 N5 1_555 1_555
H40 C61 1_555 1_555
C62 C59 1_555 1_555
H41 C62 1_555 1_555
C63 C62 1_555 1_555
H42 C63 1_555 1_555
C64 C63 1_555 1_555
C65 C64 1_555 1_555
H43 C65 1_555 1_555
C66 C65 1_555 1_555
H45 C67 1_555 1_555
C68 C64 1_555 1_555
H46 C68 1_555 1_555
N8 Co4 1_555 1_555
Co4 O24 1_555 1_555
O11 C41 1_555 1_555
C47 C48 1_555 1_555
C53 C54 1_555 1_555
C60 C61 1_555 1_555
C67 C68 1_555 1_555
O24 C55 1_555 1_555

#END
