
###############################################################################
#
# This file contains modified crystal structure data generated from the
# MOF subset of the Cambridge Structural Database (CSD) v543 
# hosted by the Cambridge Crystallographic Data Centre (CCDC).
#
# This work is licensed under the Creative Commons
# Attribution-NonCommercial-ShareAlike 4.0 International License.
# To view a copy of this license, visit
# http://creativecommons.org/licenses/by-nc-sa/4.0/
# or send a letter to
# Creative Commons, PO Box 1866, Mountain View, CA 94042, USA.
#
# CIF created using the CSD Python API on 29 September 2022
# The structure has been converted into the P1 space group
# The structure has a 3D framework
# The original CSD entry IHILUI is in the triclinic crystal system
# The framework has been calculated to contain at least 10.0% void space
# The void calculation uses a probe of radius 1.32A, grid spacing 0.4
#
###############################################################################

data_IHILUI
_chemical_formula_moiety         '(C24 H32 Gd4 O26)n'
_symmetry_cell_setting           triclinic
_symmetry_space_group_name_H-M   'P 1'
_symmetry_Int_Tables_number      1
_space_group_name_Hall           'P 1'
loop_
_symmetry_equiv_pos_site_id
_symmetry_equiv_pos_as_xyz
1 x,y,z
_cell_length_a                   7.7050(3)
_cell_length_b                   11.9893(7)
_cell_length_c                   12.1828(6)
_cell_angle_alpha                112.143(2)
_cell_angle_beta                 89.979(3)
_cell_angle_gamma                99.580(3)
_cell_volume                     1025.48
loop_
_atom_site_label
_atom_site_type_symbol
_atom_site_fract_x
_atom_site_fract_y
_atom_site_fract_z
O4 O 0.012(4) 0.066(2) 0.171(2)
O14 O 0.163(3) 0.166(3) 0.026(2)
H13 H 0.1769 0.2445 0.0854
H14 H 0.2793 0.1518 0.0120
Gd5 Gd 0.0076(2) 0.85372(16) 0.14522(15)
O16 O 0.241(3) 0.023(2) 0.791(2)
O20 O 0.278(3) 0.275(2) 0.8557(19)
O21 O 0.012(3) 0.155(2) 0.649(2)
C1 C 0.641(4) 0.137(4) 0.018(3)
C2 C 0.772(5) 0.183(3) 0.223(3)
H1 H 0.7428 0.2136 0.3056
H2 H 0.8599 0.2463 0.2135
C3 C 0.852(4) 0.074(3) 0.201(3)
C6 C 0.758(6) 0.529(4) 0.138(3)
H5 H 0.8857 0.5497 0.1503
H6 H 0.7157 0.4814 0.1848
C7 C 0.684(5) 0.642(4) 0.179(3)
C10 C 0.706(5) 0.451(4) 0.004(4)
O2 O 0.956(3) 0.352(3) 0.004(2)
O5 O 0.540(4) 0.646(3) 0.241(3)
O6 O 0.722(3) 0.725(2) 0.1443(19)
C12 C 0.606(5) 0.167(3) 0.145(3)
H15 H 0.5180 0.1017 0.1518
H16 H 0.5572 0.2416 0.1750
Gd8 Gd 0.5077(2) 0.85429(16) 0.24672(15)
Gd1 Gd 0.9924(2) 0.14628(16) 0.85478(15)
Gd2 Gd 0.4923(2) 0.14571(16) 0.75328(15)
H9 H 0.5829 0.4120 0.9955
H10 H 0.7175 0.5045 0.9607
C11 C 0.816(5) 0.356(3) 0.953(4)
O1 O 0.776(3) 0.2735(19) 0.8462(17)
O7 O 0.509(3) 0.149(2) 0.973(2)
O8 O 0.775(3) 0.099(2) 0.976(2)
O11 O 0.733(3) 0.019(2) 0.725(2)
O13 O 0.671(3) 0.168(2) 0.5984(18)
H11 H 0.7678 0.1300 0.5892
H12 H 0.7148 0.2489 0.6121
O18 O 0.460(4) 0.354(3) 0.759(3)
O22 O 0.276(3) 0.110(2) 0.601(2)
O3 O 0.759(3) 0.977(2) 0.209(2)
C4 C 0.641(5) 0.926(4) 0.646(3)
C5 C 0.719(5) 0.812(3) 0.591(3)
H3 H 0.6331 0.7484 0.5338
H4 H 0.7485 0.7836 0.6520
C8 C 0.856(4) 0.859(3) 0.419(3)
C9 C 0.898(6) 0.838(4) 0.524(3)
H7 H 0.9777 0.9084 0.5784
H8 H 0.9567 0.7676 0.5023
O9 O 0.988(3) 0.845(2) 0.351(2)
O10 O 0.724(3) 0.890(2) 0.399(2)
O12 O 0.489(4) 0.930(2) 0.621(2)
O17 O 0.988(4) 0.934(2) 0.829(2)
C4_2 C 0.359(5) 0.074(4) 0.354(3)
C5_2 C 0.281(5) 0.188(3) 0.409(3)
H3_2 H 0.3669 0.2516 0.4662
H4_2 H 0.2515 0.2164 0.3480
C8_2 C 0.144(4) 0.141(3) 0.581(3)
C9_2 C 0.102(6) 0.162(4) 0.476(3)
H7_2 H 0.0223 0.0916 0.4216
H8_2 H 0.0433 0.2324 0.4977
O12_2 O 0.511(4) 0.070(2) 0.379(2)
H9_2 H 0.4171 0.5880 0.0045
H10_2 H 0.2825 0.4955 0.0393
C11_2 C 0.184(5) 0.644(3) 0.047(4)
O1_2 O 0.224(3) 0.7265(19) 0.1538(17)
O7_2 O 0.491(3) 0.851(2) 0.027(2)
O8_2 O 0.225(3) 0.901(2) 0.024(2)
O11_2 O 0.267(3) 0.981(2) 0.275(2)
O13_2 O 0.329(3) 0.832(2) 0.4016(18)
H11_2 H 0.2322 0.8700 0.4108
H12_2 H 0.2852 0.7511 0.3879
C1_2 C 0.359(4) 0.863(4) 0.982(3)
C2_2 C 0.228(5) 0.817(3) 0.777(3)
H1_2 H 0.2572 0.7864 0.6944
H2_2 H 0.1401 0.7537 0.7865
C3_2 C 0.148(4) 0.926(3) 0.799(3)
C6_2 C 0.242(6) 0.471(4) 0.862(3)
H5_2 H 0.1143 0.4503 0.8497
H6_2 H 0.2843 0.5186 0.8152
C7_2 C 0.316(5) 0.358(4) 0.821(3)
C10_2 C 0.294(5) 0.549(4) 0.996(4)
O2_2 O 0.044(3) 0.648(3) 0.996(2)
C12_2 C 0.394(5) 0.833(3) 0.855(3)
H15_2 H 0.4820 0.8983 0.8482
H16_2 H 0.4428 0.7584 0.8250
O14_2 O 0.837(3) 0.834(3) 0.974(2)
H13_2 H 0.8231 0.7555 0.9146
H14_2 H 0.7207 0.8482 0.9880
loop_
_geom_bond_atom_site_label_1
_geom_bond_atom_site_label_2
_geom_bond_site_symmetry_1
_geom_bond_site_symmetry_2
H13 O14 1_555 1_555
H14 O14 1_555 1_555
C2 H1 1_555 1_555
H2 C2 1_555 1_555
C3 C2 1_555 1_555
C6 H5 1_555 1_555
H6 C6 1_555 1_555
C7 C6 1_555 1_555
C10 C6 1_555 1_555
O5 C7 1_555 1_555
O6 C7 1_555 1_555
C12 C1 1_555 1_555
H15 C12 1_555 1_555
H16 C12 1_555 1_555
Gd8 O5 1_555 1_555
C2 C12 1_555 1_555
O6 Gd8 1_555 1_555
Gd1 O1 1_555 1_555
Gd2 O1 1_555 1_555
O1 C11 1_555 1_555
O7 Gd2 1_555 1_555
O8 Gd1 1_555 1_555
O11 Gd1 1_555 1_555
O13 Gd2 1_555 1_555
H11 O13 1_555 1_555
H12 O13 1_555 1_555
O16 Gd2 1_555 1_555
O18 Gd2 1_555 1_555
O20 Gd2 1_555 1_555
O22 Gd2 1_555 1_555
Gd2 O11 1_555 1_555
Gd8 O3 1_555 1_555
C4 C5 1_555 1_555
C5 H3 1_555 1_555
H4 C5 1_555 1_555
C8 C9 1_555 1_555
C9 C5 1_555 1_555
H7 C9 1_555 1_555
H8 C9 1_555 1_555
O9 C8 1_555 1_555
O10 C8 1_555 1_555
Gd8 O10 1_555 1_555
C4 O12 1_555 1_555
C4_2 C5_2 1_555 1_555
C5_2 H3_2 1_555 1_555
H4_2 C5_2 1_555 1_555
C8_2 C9_2 1_555 1_555
C9_2 C5_2 1_555 1_555
H7_2 C9_2 1_555 1_555
H8_2 C9_2 1_555 1_555
O21 C8_2 1_555 1_555
O22 C8_2 1_555 1_555
C4_2 O12_2 1_555 1_555
Gd5 O1_2 1_555 1_555
Gd8 O1_2 1_555 1_555
O1_2 C11_2 1_555 1_555
O7_2 Gd8 1_555 1_555
O8_2 Gd5 1_555 1_555
O11_2 Gd5 1_555 1_555
O13_2 Gd8 1_555 1_555
H11_2 O13_2 1_555 1_555
H12_2 O13_2 1_555 1_555
Gd8 O11_2 1_555 1_555
C2_2 H1_2 1_555 1_555
H2_2 C2_2 1_555 1_555
C3_2 C2_2 1_555 1_555
C6_2 H5_2 1_555 1_555
H6_2 C6_2 1_555 1_555
C7_2 C6_2 1_555 1_555
C10_2 C6_2 1_555 1_555
O18 C7_2 1_555 1_555
O20 C7_2 1_555 1_555
C12_2 C1_2 1_555 1_555
H15_2 C12_2 1_555 1_555
H16_2 C12_2 1_555 1_555
C2_2 C12_2 1_555 1_555
H13_2 O14_2 1_555 1_555
H14_2 O14_2 1_555 1_555

#END
