
###############################################################################
#
# This file contains modified crystal structure data generated from the
# MOF subset of the Cambridge Structural Database (CSD) v543 
# hosted by the Cambridge Crystallographic Data Centre (CCDC).
#
# This work is licensed under the Creative Commons
# Attribution-NonCommercial-ShareAlike 4.0 International License.
# To view a copy of this license, visit
# http://creativecommons.org/licenses/by-nc-sa/4.0/
# or send a letter to
# Creative Commons, PO Box 1866, Mountain View, CA 94042, USA.
#
# CIF created using the CSD Python API on 29 September 2022
# The structure has been converted into the P1 space group
# The structure has a 3D framework
# The original CSD entry IHIMAP is in the triclinic crystal system
# The framework has been calculated to contain at least 10.0% void space
# The void calculation uses a probe of radius 1.32A, grid spacing 0.4
#
###############################################################################

data_IHIMAP
_chemical_formula_moiety         '(C24 H32 La4 O26)n'
_symmetry_cell_setting           triclinic
_symmetry_space_group_name_H-M   'P 1'
_symmetry_Int_Tables_number      1
_space_group_name_Hall           'P 1'
loop_
_symmetry_equiv_pos_site_id
_symmetry_equiv_pos_as_xyz
1 x,y,z
_cell_length_a                   7.976(8)
_cell_length_b                   12.006(14)
_cell_length_c                   12.284(10)
_cell_angle_alpha                112.01(2)
_cell_angle_beta                 90.05(3)
_cell_angle_gamma                100.58(5)
_cell_volume                     1068.9
loop_
_atom_site_label
_atom_site_type_symbol
_atom_site_fract_x
_atom_site_fract_y
_atom_site_fract_z
O4 O 0.0099(7) 0.0791(6) 0.1755(6)
O14 O 0.1810(8) 0.1812(6) 0.0352(6)
H15 H 0.2799 0.1550 0.0159
H16 H 0.1294 0.1416 0.0794
La5 La 0.00888(6) 0.85692(5) 0.14682(4)
O16 O 0.2335(7) 0.0128(6) 0.7913(5)
O20 O 0.2728(7) 0.2783(5) 0.8555(5)
O21 O 0.0172(7) 0.1527(6) 0.6498(5)
C1 C 0.6352(11) 0.1398(8) 0.0223(8)
C2 C 0.6153(11) 0.1731(9) 0.1520(8)
H1 H 0.5345 0.1075 0.1624
H2 H 0.5672 0.2465 0.1817
C3 C 0.7854(11) 0.1959(8) 0.2270(8)
H3 H 0.8699 0.2564 0.2117
H4 H 0.7652 0.2291 0.3098
C4 C 0.8556(10) 0.0818(8) 0.2010(7)
C7 C 0.7601(12) 0.5262(8) 0.1466(9)
H7 H 0.8829 0.5541 0.1631
H8 H 0.7203 0.4745 0.1897
C8 C 0.6729(11) 0.6329(8) 0.1817(8)
C11 C 0.7158(12) 0.4555(9) 0.0150(9)
H12 H 0.5955 0.4170 0.0026
O2 O 0.9490(8) 0.3551(6) 0.0106(5)
O5 O 0.5477(8) 0.6395(6) 0.2439(6)
O6 O 0.7272(7) 0.7217(5) 0.1445(5)
La8 La 0.50867(6) 0.85707(5) 0.24971(4)
H11 H 0.7321 0.5133 0.9762
C12 C 0.8197(11) 0.3569(8) 0.9560(9)
La1 La 0.99112(6) 0.14308(5) 0.85318(4)
La2 La 0.49133(6) 0.14293(5) 0.75029(4)
O1 O 0.7714(7) 0.2779(5) 0.8504(5)
O7 O 0.5158(7) 0.1498(6) 0.9618(5)
O8 O 0.7677(7) 0.1014(6) 0.9798(5)
O11 O 0.7352(7) 0.0138(6) 0.7162(5)
O13 O 0.6812(8) 0.1835(6) 0.5976(5)
H13 H 0.6414 0.1324 0.5190
H14 H 0.7926 0.1703 0.6057
O18 O 0.4523(8) 0.3605(6) 0.7561(6)
O22 O 0.2690(7) 0.1037(6) 0.5949(5)
O3 O 0.7665(7) 0.9872(6) 0.2087(5)
C5 C 0.6443(11) 0.9178(9) 0.6388(8)
C6 C 0.7134(11) 0.8021(9) 0.5807(8)
H5 H 0.7326 0.7683 0.6389
H6 H 0.6290 0.7421 0.5205
C9 C 0.8619(11) 0.8569(8) 0.4187(7)
C10 C 0.8774(11) 0.8244(9) 0.5258(7)
H9 H 0.9570 0.8905 0.5849
H10 H 0.9263 0.7514 0.5033
O9 O 0.9828(7) 0.8473(6) 0.3502(5)
O10 O 0.7310(7) 0.8963(6) 0.4051(5)
O12 O 0.4888(7) 0.9196(6) 0.6162(5)
O17 O 0.9901(7) 0.9209(6) 0.8245(6)
C5_2 C 0.3557(11) 0.0822(9) 0.3612(8)
C6_2 C 0.2866(11) 0.1979(9) 0.4193(8)
H5_2 H 0.2674 0.2317 0.3611
H6_2 H 0.3710 0.2579 0.4795
C9_2 C 0.1381(11) 0.1431(8) 0.5813(7)
C10_2 C 0.1226(11) 0.1756(9) 0.4742(7)
H9_2 H 0.0430 0.1095 0.4151
H10_2 H 0.0737 0.2486 0.4967
O12_2 O 0.5112(7) 0.0804(6) 0.3838(5)
H11_2 H 0.2679 0.4867 0.0238
C12_2 C 0.1803(11) 0.6431(8) 0.0440(9)
O1_2 O 0.2286(7) 0.7221(5) 0.1496(5)
O7_2 O 0.4842(7) 0.8502(6) 0.0382(5)
O8_2 O 0.2323(7) 0.8986(6) 0.0202(5)
O11_2 O 0.2648(7) 0.9862(6) 0.2838(5)
O13_2 O 0.3188(8) 0.8165(6) 0.4024(5)
H13_2 H 0.3586 0.8676 0.4810
H14_2 H 0.2074 0.8297 0.3943
C1_2 C 0.3648(11) 0.8602(8) 0.9777(8)
C2_2 C 0.3847(11) 0.8269(9) 0.8480(8)
H1_2 H 0.4655 0.8925 0.8376
H2_2 H 0.4328 0.7535 0.8183
C3_2 C 0.2146(11) 0.8041(8) 0.7730(8)
H3_2 H 0.1301 0.7436 0.7883
H4_2 H 0.2348 0.7709 0.6902
C4_2 C 0.1444(10) 0.9182(8) 0.7990(7)
C7_2 C 0.2399(12) 0.4738(8) 0.8534(9)
H7_2 H 0.1171 0.4459 0.8369
H8_2 H 0.2797 0.5255 0.8103
C8_2 C 0.3271(11) 0.3671(8) 0.8183(8)
C11_2 C 0.2842(12) 0.5445(9) 0.9850(9)
H12_2 H 0.4045 0.5830 0.9974
O2_2 O 0.0510(8) 0.6449(6) 0.9894(5)
O14_2 O 0.8190(8) 0.8188(6) 0.9648(6)
H15_2 H 0.7201 0.8450 0.9841
H16_2 H 0.8706 0.8584 0.9206
loop_
_geom_bond_atom_site_label_1
_geom_bond_atom_site_label_2
_geom_bond_site_symmetry_1
_geom_bond_site_symmetry_2
H15 O14 1_555 1_555
H16 O14 1_555 1_555
C1 C2 1_555 1_555
C2 H1 1_555 1_555
H2 C2 1_555 1_555
C3 C2 1_555 1_555
H3 C3 1_555 1_555
H4 C3 1_555 1_555
C4 C3 1_555 1_555
C7 H7 1_555 1_555
H8 C7 1_555 1_555
C8 C7 1_555 1_555
C11 C7 1_555 1_555
H12 C11 1_555 1_555
O5 C8 1_555 1_555
O6 C8 1_555 1_555
La8 O5 1_555 1_555
O6 La8 1_555 1_555
La1 O1 1_555 1_555
La2 O1 1_555 1_555
O1 C12 1_555 1_555
O13 La2 1_555 1_555
H13 O13 1_555 1_555
H14 O13 1_555 1_555
O16 La2 1_555 1_555
O18 La2 1_555 1_555
O20 La2 1_555 1_555
O22 La2 1_555 1_555
La1 O8 1_555 1_555
La1 O11 1_555 1_555
La2 O7 1_555 1_555
La2 O11 1_555 1_555
La8 O3 1_555 1_555
C5 C6 1_555 1_555
C6 H5 1_555 1_555
H6 C6 1_555 1_555
C9 C10 1_555 1_555
C10 C6 1_555 1_555
H9 C10 1_555 1_555
H10 C10 1_555 1_555
O9 C9 1_555 1_555
O10 C9 1_555 1_555
O12 C5 1_555 1_555
La8 O10 1_555 1_555
C5_2 C6_2 1_555 1_555
C6_2 H5_2 1_555 1_555
H6_2 C6_2 1_555 1_555
C9_2 C10_2 1_555 1_555
C10_2 C6_2 1_555 1_555
H9_2 C10_2 1_555 1_555
H10_2 C10_2 1_555 1_555
O21 C9_2 1_555 1_555
O22 C9_2 1_555 1_555
O12_2 C5_2 1_555 1_555
La5 O1_2 1_555 1_555
La8 O1_2 1_555 1_555
O1_2 C12_2 1_555 1_555
O13_2 La8 1_555 1_555
H13_2 O13_2 1_555 1_555
H14_2 O13_2 1_555 1_555
La5 O8_2 1_555 1_555
La5 O11_2 1_555 1_555
La8 O7_2 1_555 1_555
La8 O11_2 1_555 1_555
C1_2 C2_2 1_555 1_555
C2_2 H1_2 1_555 1_555
H2_2 C2_2 1_555 1_555
C3_2 C2_2 1_555 1_555
H3_2 C3_2 1_555 1_555
H4_2 C3_2 1_555 1_555
C4_2 C3_2 1_555 1_555
C7_2 H7_2 1_555 1_555
H8_2 C7_2 1_555 1_555
C8_2 C7_2 1_555 1_555
C11_2 C7_2 1_555 1_555
H12_2 C11_2 1_555 1_555
O18 C8_2 1_555 1_555
O20 C8_2 1_555 1_555
H15_2 O14_2 1_555 1_555
H16_2 O14_2 1_555 1_555

#END
