
###############################################################################
#
# This file contains modified crystal structure data generated from the
# MOF subset of the Cambridge Structural Database (CSD) v543 
# hosted by the Cambridge Crystallographic Data Centre (CCDC).
#
# This work is licensed under the Creative Commons
# Attribution-NonCommercial-ShareAlike 4.0 International License.
# To view a copy of this license, visit
# http://creativecommons.org/licenses/by-nc-sa/4.0/
# or send a letter to
# Creative Commons, PO Box 1866, Mountain View, CA 94042, USA.
#
# CIF created using the CSD Python API on 29 September 2022
# The structure has been converted into the P1 space group
# The structure has a 3D framework
# The original CSD entry IHIMAP01 is in the triclinic crystal system
# The framework has been calculated to contain at least 10.0% void space
# The void calculation uses a probe of radius 1.32A, grid spacing 0.4
# H atom positions have been added when not included in the experimental data
#
###############################################################################

data_IHIMAP01
_chemical_formula_moiety         '(C24 H32 La4 O28)n'
_symmetry_cell_setting           triclinic
_symmetry_space_group_name_H-M   'P 1'
_symmetry_Int_Tables_number      1
_space_group_name_Hall           'P 1'
loop_
_symmetry_equiv_pos_site_id
_symmetry_equiv_pos_as_xyz
1 x,y,z
_cell_length_a                   7.979(2)
_cell_length_b                   12.095(3)
_cell_length_c                   12.297(4)
_cell_angle_alpha                111.681(11)
_cell_angle_beta                 89.932(16)
_cell_angle_gamma                100.158(12)
_cell_volume                     1082.84
loop_
_atom_site_label
_atom_site_type_symbol
_atom_site_fract_x
_atom_site_fract_y
_atom_site_fract_z
La6 La 0.00938(5) 0.35459(4) 0.64608(4)
H5 H 0.2861 0.0271 0.3229
C11 C 0.2836(10) 0.0422(7) 0.4935(7)
H7 H 0.4041 0.0784 0.5080
C12 C 0.1809(9) 0.1410(6) 0.5471(7)
O9 O 0.2307(6) 0.2196(4) 0.6499(4)
O12 O 0.0536(6) 0.1465(4) 0.4938(4)
La9 La 0.50967(5) 0.35492(4) 0.74896(4)
C1 C 0.6461(9) 0.4243(7) 0.1435(6)
C2 C 0.7181(9) 0.3110(7) 0.0855(7)
H1 H 0.7390 0.2776 0.1437
H2 H 0.6344 0.2514 0.0262
C3 C 0.8857(9) 0.3337(7) 0.0277(6)
H3 H 0.9625 0.4025 0.0839
H4 H 0.9394 0.2636 0.0093
C5 C 0.1436(9) 0.4235(7) 0.3019(6)
C6 C 0.2160(9) 0.3079(6) 0.2755(6)
C7 C 0.3841(9) 0.3303(7) 0.3488(6)
C8 C 0.3652(9) 0.3606(7) 0.4781(7)
C9 C 0.3259(9) 0.8653(7) 0.3208(7)
C10 C 0.2449(10) 0.9741(6) 0.3641(7)
H6 H 0.1222 0.9492 0.3474
H8 H 0.2618 0.9852 0.5327
La2 La 0.49033(5) 0.64508(4) 0.25104(4)
O1 O 0.7365(6) 0.5157(4) 0.2174(4)
O2 O 0.4924(6) 0.4246(5) 0.1191(4)
O3 O 0.2334(6) 0.5154(5) 0.2938(4)
O5 O 0.2722(6) 0.7796(4) 0.3567(4)
O6 O 0.4458(7) 0.8578(5) 0.2569(5)
O10 O 0.6758(6) 0.6776(5) 0.0957(4)
H9 H 0.6240 0.6305 0.0114
H10 H 0.7950 0.6517 0.0904
O11 O 0.1780(6) 0.6776(5) 0.5343(4)
H11 H 0.2844 0.6485 0.5177
H12 H 0.1229 0.6376 0.5822
O13 O 0.4870(6) 0.3491(4) 0.5377(4)
O14 O 0.2317(6) 0.3972(5) 0.5202(4)
La3 La 0.99062(5) 0.64541(4) 0.35392(4)
O16 O 0.2682(6) 0.6065(5) 0.0968(4)
O17 O 0.0148(5) 0.6543(4) 0.1500(4)
O19 O 0.7693(6) 0.7804(4) 0.3501(4)
O21 O 0.5130(6) 0.6509(4) 0.4623(4)
H13 H 0.470996 0.405386 0.33835
H14 H 0.438823 0.248719 0.314696
H15 H 0.239915 0.272156 0.182853
H16 H 0.122248 0.241702 0.294818
C4 C 0.8631(9) 0.3581(6) 0.9172(7)
O7 O 0.7318(6) 0.3935(5) 0.9032(4)
O8 O 0.9852(5) 0.3457(4) 0.8500(4)
O4 O 0.9919(6) 0.4260(5) 0.3272(4)
O20 O 0.9464(6) 0.8535(4) 0.5062(4)
O22 O 0.7683(6) 0.6028(5) 0.4798(4)
O4_2 O 0.0081(6) 0.5740(5) 0.6728(4)
O15 O 0.2635(6) 0.4843(4) 0.7826(4)
C4_2 C 0.1369(9) 0.6419(6) 0.0828(7)
C1_2 C 0.3539(9) 0.5757(7) 0.8565(6)
C2_2 C 0.2819(9) 0.6890(7) 0.9145(7)
H1_2 H 0.2610 0.7224 0.8563
H2_2 H 0.3656 0.7486 0.9738
C3_2 C 0.1143(9) 0.6663(7) 0.9723(6)
H3_2 H 0.0375 0.5975 0.9161
H4_2 H 0.0606 0.7364 0.9907
C5_2 C 0.8564(9) 0.5765(7) 0.6981(6)
C6_2 C 0.7840(9) 0.6921(6) 0.7245(6)
C7_2 C 0.6159(9) 0.6697(7) 0.6512(6)
C8_2 C 0.6348(9) 0.6394(7) 0.5219(7)
C9_2 C 0.6741(9) 0.1347(7) 0.6792(7)
C10_2 C 0.7551(10) 0.0259(6) 0.6359(7)
H6_2 H 0.8778 0.0508 0.6526
H8_2 H 0.7382 0.0148 0.4673
O2_2 O 0.5076(6) 0.5754(5) 0.8809(4)
O3_2 O 0.7666(6) 0.4846(5) 0.7062(4)
O5_2 O 0.7278(6) 0.2204(4) 0.6433(4)
O6_2 O 0.5542(7) 0.1422(5) 0.7431(5)
O10_2 O 0.3242(6) 0.3224(5) 0.9043(4)
H9_2 H 0.3760 0.3695 0.9886
H10_2 H 0.2050 0.3483 0.9096
O11_2 O 0.8220(6) 0.3224(5) 0.4657(4)
H11_2 H 0.7156 0.3515 0.4823
H12_2 H 0.8771 0.3624 0.4178
H13_2 H 0.529004 0.594614 0.66165
H14_2 H 0.561177 0.751281 0.685304
H15_2 H 0.760085 0.727844 0.817147
H16_2 H 0.877752 0.758298 0.705182
H5_2 H 0.7139 0.9729 0.6771
C11_2 C 0.7164(10) 0.9578(7) 0.5065(7)
H7_2 H 0.5959 0.9216 0.4920
C12_2 C 0.8191(9) 0.8590(6) 0.4529(7)
loop_
_geom_bond_atom_site_label_1
_geom_bond_atom_site_label_2
_geom_bond_site_symmetry_1
_geom_bond_site_symmetry_2
H7 C11 1_555 1_555
C12 C11 1_555 1_555
O9 C12 1_555 1_555
O12 C12 1_555 1_555
La6 O9 1_555 1_555
La9 O9 1_555 1_555
O12 La6 1_555 1_555
C1 C2 1_555 1_555
C2 H1 1_555 1_555
H2 C2 1_555 1_555
C3 C2 1_555 1_555
H3 C3 1_555 1_555
H4 C3 1_555 1_555
C5 C6 1_555 1_555
C6 C7 1_555 1_555
C7 C8 1_555 1_555
C8 O13 1_555 1_555
C9 C10 1_555 1_555
H6 C10 1_555 1_555
La2 O1 1_555 1_555
O1 C1 1_555 1_555
O2 C1 1_555 1_555
O3 C5 1_555 1_555
O5 C9 1_555 1_555
O6 C9 1_555 1_555
O10 La2 1_555 1_555
H9 O10 1_555 1_555
H10 O10 1_555 1_555
H11 O11 1_555 1_555
H12 O11 1_555 1_555
O13 La9 1_555 1_555
O14 C8 1_555 1_555
La3 O1 1_555 1_555
La6 O14 1_555 1_555
O16 La2 1_555 1_555
O19 La2 1_555 1_555
O21 La2 1_555 1_555
La2 O2 1_555 1_555
La2 O3 1_555 1_555
La2 O5 1_555 1_555
La2 O6 1_555 1_555
La3 O19 1_555 1_555
C7 H13 1_555 1_555
C7 H14 1_555 1_555
C6 H15 1_555 1_555
C6 H16 1_555 1_555
O7 C4 1_555 1_555
O8 C4 1_555 1_555
La9 O7 1_555 1_555
O20 La3 1_555 1_555
O22 La3 1_555 1_555
La3 O4 1_555 1_555
O15 La6 1_555 1_555
La6 O4_2 1_555 1_555
O16 C4_2 1_555 1_555
O17 C4_2 1_555 1_555
C1_2 C2_2 1_555 1_555
C2_2 H1_2 1_555 1_555
H2_2 C2_2 1_555 1_555
C3_2 C2_2 1_555 1_555
H3_2 C3_2 1_555 1_555
H4_2 C3_2 1_555 1_555
C5_2 C6_2 1_555 1_555
C6_2 C7_2 1_555 1_555
C7_2 C8_2 1_555 1_555
C8_2 O21 1_555 1_555
C9_2 C10_2 1_555 1_555
H6_2 C10_2 1_555 1_555
La9 O15 1_555 1_555
O15 C1_2 1_555 1_555
O2_2 C1_2 1_555 1_555
O3_2 C5_2 1_555 1_555
O5_2 C9_2 1_555 1_555
O6_2 C9_2 1_555 1_555
O10_2 La9 1_555 1_555
H9_2 O10_2 1_555 1_555
H10_2 O10_2 1_555 1_555
H11_2 O11_2 1_555 1_555
H12_2 O11_2 1_555 1_555
O22 C8_2 1_555 1_555
La9 O2_2 1_555 1_555
La9 O3_2 1_555 1_555
La9 O5_2 1_555 1_555
La9 O6_2 1_555 1_555
C7_2 H13_2 1_555 1_555
C7_2 H14_2 1_555 1_555
C6_2 H15_2 1_555 1_555
C6_2 H16_2 1_555 1_555
H7_2 C11_2 1_555 1_555
C12_2 C11_2 1_555 1_555
O19 C12_2 1_555 1_555
O20 C12_2 1_555 1_555

#END
