
###############################################################################
#
# This file contains modified crystal structure data generated from the
# MOF subset of the Cambridge Structural Database (CSD) v543 
# hosted by the Cambridge Crystallographic Data Centre (CCDC).
#
# This work is licensed under the Creative Commons
# Attribution-NonCommercial-ShareAlike 4.0 International License.
# To view a copy of this license, visit
# http://creativecommons.org/licenses/by-nc-sa/4.0/
# or send a letter to
# Creative Commons, PO Box 1866, Mountain View, CA 94042, USA.
#
# CIF created using the CSD Python API on 29 September 2022
# The structure has been converted into the P1 space group
# The structure has a 3D framework
# The original CSD entry IHOSUV is in the tetragonal crystal system
# The framework has been calculated to contain at least 10.0% void space
# The void calculation uses a probe of radius 1.32A, grid spacing 0.4
#
###############################################################################

data_IHOSUV
_chemical_formula_moiety         '(C128 H201 Mg46 O135)n'
_symmetry_cell_setting           triclinic
_symmetry_space_group_name_H-M   'P 1'
_symmetry_Int_Tables_number      1
_space_group_name_Hall           'P 1'
loop_
_symmetry_equiv_pos_site_id
_symmetry_equiv_pos_as_xyz
1 x,y,z
_cell_length_a                   23.1520(10)
_cell_length_b                   23.1520(10)
_cell_length_c                   12.5491(7)
_cell_angle_alpha                90
_cell_angle_beta                 90
_cell_angle_gamma                90
_cell_volume                     6726.51
loop_
_atom_site_label
_atom_site_type_symbol
_atom_site_fract_x
_atom_site_fract_y
_atom_site_fract_z
Mg1 Mg 0.13259(2) 0.45907(2) 0.50171(4)
Mg2 Mg 0.0000 0.5000 0.5000
Mg3 Mg 0.23020(2) 0.54538(2) 0.45249(4)
O3 O 0.20409(5) 0.46188(5) 0.39914(10)
O4 O 0.26945(6) 0.44532(5) 0.27276(11)
O5 O 0.09290(6) 0.39610(5) 0.42085(11)
O6 O 0.00034(5) 0.42243(6) 0.41811(11)
O7 O 0.06180(5) 0.46904(5) 0.60969(10)
O8 O 0.11868(5) 0.48128(6) 0.75236(10)
O9 O 0.17835(5) 0.52184(5) 0.57118(9)
H1 H 0.1614(13) 0.5495(13) 0.585(2)
C3 C 0.23223(8) 0.42869(8) 0.33677(15)
C4 C 0.22061(12) 0.36480(9) 0.3432(3)
H5 H 0.2335 0.3461 0.2773
H6 H 0.1791 0.3583 0.3527
H7 H 0.2416 0.3484 0.4039
C5 C 0.04088(8) 0.38713(8) 0.40015(16)
C6 C 0.02586(10) 0.32934(10) 0.3509(2)
H8 H 0.0132 0.3351 0.2772
H10 H 0.0600 0.3043 0.3518
C7 C 0.07045(8) 0.47899(8) 0.70944(14)
C8 C 0.01829(8) 0.48724(11) 0.78014(16)
H11 H 0.0064 0.4499 0.8095
H13 H 0.0281 0.5136 0.8385
O10 O 0.15298(5) 0.57429(5) 0.35814(10)
O11 O 0.07978(5) 0.52425(5) 0.42487(10)
C9 C 0.10057(7) 0.56959(7) 0.38245(13)
C10 C 0.06123(8) 0.62036(9) 0.36207(18)
H15 H 0.0648 0.6324 0.2875
H16 H 0.0212 0.6092 0.3767
H17 H 0.0722 0.6525 0.4088
H22 H 0.0053 0.6888 0.6081
H25 H 0.0135 0.4964 0.2618
Mg6 Mg 0.20907(2) 0.61741(2) 0.25171(4)
Mg8 Mg 0.20462(2) 0.48020(2) 0.70249(4)
Mg9 Mg 0.29538(2) 0.51980(2) 0.20249(4)
O20 O 0.17571(5) 0.40298(5) 0.60814(10)
O21 O 0.30468(5) 0.51945(6) 0.52276(11)
O23 O 0.23128(6) 0.63132(5) 0.50236(10)
O25 O 0.27184(5) 0.57165(5) 0.32118(9)
Mg2_2 Mg 1.0000 0.5000 0.5000
O1 O 0.84702(5) 0.42571(5) 0.64186(10)
O2 O 0.92022(5) 0.47575(5) 0.57513(10)
C1 C 0.89943(7) 0.43041(7) 0.61755(13)
C2 C 0.93877(8) 0.37964(9) 0.63793(18)
H2 H 0.9352 0.3676 0.7125
H3 H 0.9788 0.3908 0.6233
H4 H 0.9278 0.3475 0.5912
H9 H 0.9947 0.3112 0.3919
H12 H 0.9865 0.5036 0.7382
Mg4 Mg 0.86741(2) 0.54093(2) 0.49829(4)
Mg5 Mg 0.76980(2) 0.45462(2) 0.54751(4)
O12 O 0.79591(5) 0.53812(5) 0.60086(10)
O13 O 0.73055(6) 0.55468(5) 0.72724(11)
O14 O 0.90710(6) 0.60390(5) 0.57915(11)
O15 O 0.99966(5) 0.57757(6) 0.58189(11)
O16 O 0.93820(5) 0.53096(5) 0.39031(10)
O17 O 0.88132(5) 0.51872(6) 0.24764(10)
O18 O 0.82165(5) 0.47816(5) 0.42882(9)
H14 H 0.8386(13) 0.4505(13) 0.415(2)
C11 C 0.76777(8) 0.57131(8) 0.66323(15)
C12 C 0.77939(12) 0.63520(9) 0.6568(3)
H18 H 0.7665 0.6539 0.7227
H19 H 0.8209 0.6417 0.6473
H20 H 0.7584 0.6516 0.5961
C13 C 0.95912(8) 0.61287(8) 0.59985(16)
C14 C 0.97414(10) 0.67066(10) 0.6491(2)
H21 H 0.9868 0.6649 0.7228
H23 H 0.9400 0.6957 0.6482
C15 C 0.92955(8) 0.52101(8) 0.29056(14)
C16 C 0.98171(8) 0.51276(11) 0.21986(16)
H24 H 0.9936 0.5501 0.1905
H26 H 0.9719 0.4864 0.1615
Mg7 Mg 0.79093(2) 0.38259(2) 0.74829(4)
Mg10 Mg 0.79538(2) 0.51980(2) 0.29751(4)
Mg11 Mg 0.70462(2) 0.48020(2) 0.79751(4)
O19 O 0.82429(5) 0.59702(5) 0.39186(10)
O22 O 0.69532(5) 0.48055(6) 0.47724(11)
O24 O 0.76872(6) 0.36868(5) 0.49764(10)
O26 O 0.72816(5) 0.42835(5) 0.67882(9)
Mg1_2 Mg 0.36741(2) 0.54093(2) 0.00171(4)
Mg2_3 Mg 0.5000 0.5000 0.0000
O1_2 O 0.65298(5) 0.57429(5) 0.14186(10)
O2_2 O 0.57978(5) 0.52425(5) 0.07513(10)
O7_2 O 0.43820(5) 0.53096(5) 0.10969(10)
O8_2 O 0.38132(5) 0.51872(6) 0.25236(10)
O9_2 O 0.32165(5) 0.47816(5) 0.07118(9)
H1_2 H 0.3386(13) 0.4505(13) 0.085(2)
C1_2 C 0.60057(7) 0.56959(7) 0.11755(13)
C2_2 C 0.56123(8) 0.62036(9) 0.13793(18)
H2_2 H 0.5648 0.6324 0.2125
H3_2 H 0.5212 0.6092 0.1233
H4_2 H 0.5722 0.6525 0.0912
C7_2 C 0.42955(8) 0.52101(8) 0.20944(14)
C8_2 C 0.48171(8) 0.51276(11) 0.28014(16)
H11_2 H 0.4936 0.5501 0.3095
H12_2 H 0.5135 0.4964 0.2382
H13_2 H 0.4719 0.4864 0.3385
Mg5_2 Mg 0.73020(2) 0.54538(2) 0.04751(4)
O12_2 O 0.70409(5) 0.46188(5) 0.10086(10)
O13_2 O 0.76945(6) 0.44532(5) 0.22724(11)
O14_2 O 0.59290(6) 0.39610(5) 0.07915(11)
O15_2 O 0.50034(5) 0.42243(6) 0.08189(11)
C11_2 C 0.73223(8) 0.42869(8) 0.16323(15)
C12_2 C 0.72061(12) 0.36480(9) 0.1568(3)
H18_2 H 0.7335 0.3461 0.2227
H19_2 H 0.6791 0.3583 0.1473
H20_2 H 0.7416 0.3484 0.0961
C13_2 C 0.54088(8) 0.38713(8) 0.09985(16)
C14_2 C 0.52586(10) 0.32934(10) 0.1491(2)
H21_2 H 0.5132 0.3351 0.2228
H22_2 H 0.4947 0.3112 0.1081
H23_2 H 0.5600 0.3043 0.1482
Mg7_2 Mg 0.70907(2) 0.61741(2) 0.24829(4)
O20_2 O 0.32429(5) 0.59702(5) 0.10814(10)
O21_2 O 0.19532(5) 0.48055(6) 0.02276(11)
O23_2 O 0.26872(6) 0.36868(5) 0.00236(10)
O26_2 O 0.77184(5) 0.57165(5) 0.17882(9)
Mg2_4 Mg 0.5000 0.5000 1.0000
Mg3_2 Mg 0.26980(2) 0.45462(2) 0.95249(4)
O3_2 O 0.29591(5) 0.53812(5) 0.89914(10)
O4_2 O 0.23055(6) 0.55468(5) 0.77276(11)
O5_2 O 0.40710(6) 0.60390(5) 0.92085(11)
O6_2 O 0.49966(5) 0.57757(6) 0.91811(11)
C3_2 C 0.26777(8) 0.57131(8) 0.83677(15)
C4_2 C 0.27939(12) 0.63520(9) 0.8432(3)
H5_2 H 0.2665 0.6539 0.7773
H6_2 H 0.3209 0.6417 0.8527
H7_2 H 0.2584 0.6516 0.9039
C5_2 C 0.45912(8) 0.61287(8) 0.90015(16)
C6_2 C 0.47414(10) 0.67066(10) 0.8509(2)
H8_2 H 0.4868 0.6649 0.7772
H9_2 H 0.5053 0.6888 0.8919
H10_2 H 0.4400 0.6957 0.8518
Mg4_2 Mg 0.63259(2) 0.45907(2) 0.99829(4)
O10_2 O 0.34702(5) 0.42571(5) 0.85814(10)
O11_2 O 0.42022(5) 0.47575(5) 0.92487(10)
O16_2 O 0.56180(5) 0.46904(5) 0.89031(10)
O17_2 O 0.61868(5) 0.48128(6) 0.74764(10)
O18_2 O 0.67835(5) 0.52184(5) 0.92882(9)
H14_2 H 0.6614(13) 0.5495(13) 0.915(2)
C9_2 C 0.39943(7) 0.43041(7) 0.88245(13)
C10_2 C 0.43877(8) 0.37964(9) 0.86207(18)
H15_2 H 0.4352 0.3676 0.7875
H16_2 H 0.4788 0.3908 0.8767
H17_2 H 0.4278 0.3475 0.9088
C15_2 C 0.57045(8) 0.47899(8) 0.79056(14)
C16_2 C 0.51829(8) 0.48724(11) 0.71986(16)
H24_2 H 0.5064 0.4499 0.6905
H25_2 H 0.4865 0.5036 0.7618
H26_2 H 0.5281 0.5136 0.6615
Mg6_2 Mg 0.29093(2) 0.38259(2) 0.75171(4)
O19_2 O 0.67571(5) 0.40298(5) 0.89186(10)
O22_2 O 0.80468(5) 0.51945(6) 0.97724(11)
O24_2 O 0.73128(6) 0.63132(5) 0.99764(10)
O25_2 O 0.22816(5) 0.42835(5) 0.82118(9)
C8_3 C 0.26276(11) 0.26829(8) 0.03014(16)
H11_3 H 0.3001 0.2564 0.0595
H13_3 H 0.2364 0.2781 0.0885
Mg2_5 Mg 0.2500 0.2500 0.7500
O1_3 O 0.32429(5) 0.09702(5) 0.89186(10)
O2_3 O 0.27425(5) 0.17022(5) 0.82513(10)
O3_3 O 0.28812(5) 0.45409(5) 0.64914(10)
O5_3 O 0.35390(5) 0.34290(6) 0.67085(11)
O6_3 O 0.32757(6) 0.25034(5) 0.66811(11)
O7_3 O 0.28096(5) 0.31180(5) 0.85969(10)
H1_3 H 0.2005(13) 0.4114(13) 0.835(2)
C1_3 C 0.31959(7) 0.14943(7) 0.86755(13)
C2_3 C 0.37036(9) 0.18877(8) 0.88793(18)
H2_3 H 0.3824 0.1852 0.9625
H3_3 H 0.3592 0.2288 0.8733
H4_3 H 0.4025 0.1778 0.8412
C3_3 C 0.32131(8) 0.48223(8) 0.58677(15)
C4_3 C 0.38520(9) 0.47061(12) 0.5932(3)
H5_3 H 0.4039 0.4835 0.5273
H6_3 H 0.3917 0.4291 0.6027
H7_3 H 0.4016 0.4916 0.6539
C5_3 C 0.36287(8) 0.29088(8) 0.65015(16)
C6_3 C 0.42066(10) 0.27586(10) 0.6009(2)
H8_3 H 0.4149 0.2632 0.5272
H9_3 H 0.4388 0.2447 0.6419
H10_3 H 0.4457 0.3100 0.6018
C7_3 C 0.27101(8) 0.32045(8) 0.95944(14)
H12_3 H 0.2464 0.2365 0.9882
Mg4_3 Mg 0.20907(2) 0.11741(2) 0.74829(4)
Mg5_3 Mg 0.29538(2) 0.01980(2) 0.79751(4)
O11_3 O 0.22575(5) 0.32978(5) 0.67487(10)
O12_3 O 0.21188(5) 0.04591(5) 0.85086(10)
O14_3 O 0.14610(5) 0.15710(6) 0.82915(11)
O15_3 O 0.17243(6) 0.24966(5) 0.83189(11)
O16_3 O 0.21904(5) 0.18820(5) 0.64031(10)
O17_3 O 0.23128(6) 0.13132(5) 0.49764(10)
O18_3 O 0.27184(5) 0.07165(5) 0.67882(9)
H14_3 H 0.2995(13) 0.0886(13) 0.665(2)
C9_3 C 0.18041(7) 0.35057(7) 0.63245(13)
C10_3 C 0.12964(9) 0.31123(8) 0.61207(18)
H15_3 H 0.1176 0.3148 0.5375
H16_3 H 0.1408 0.2712 0.6267
H17_3 H 0.0975 0.3222 0.6588
C11_3 C 0.17869(8) 0.01777(8) 0.91323(15)
C12_3 C 0.11480(9) 0.02939(12) 0.9068(3)
H18_3 H 0.0961 0.0165 0.9727
H19_3 H 0.1083 0.0709 0.8973
H20_3 H 0.0984 0.0084 0.8461
C13_3 C 0.13713(8) 0.20912(8) 0.84985(16)
C14_3 C 0.07934(10) 0.22414(10) 0.8991(2)
H21_3 H 0.0851 0.2368 0.9728
H22_3 H 0.0612 0.2553 0.8581
H23_3 H 0.0543 0.1900 0.8982
C15_3 C 0.22899(8) 0.17955(8) 0.54056(14)
C16_3 C 0.23724(11) 0.23171(8) 0.46986(16)
H24_3 H 0.1999 0.2436 0.4405
H25_3 H 0.2536 0.2635 0.5118
H26_3 H 0.2636 0.2219 0.4115
Mg7_3 Mg 0.36741(2) 0.04093(2) 0.99829(4)
Mg10_2 Mg 0.23020(2) 0.04538(2) 0.54751(4)
O19_3 O 0.15298(5) 0.07429(5) 0.64186(10)
O24_3 O 0.38132(5) 0.01872(6) 0.74764(10)
Mg11_2 Mg 0.26980(2) 0.95462(2) 0.04751(4)
O13_3 O 0.19532(5) 0.98055(6) 0.97724(11)
O22_3 O 0.26945(6) 0.94532(5) 0.72724(11)
O26_3 O 0.32165(5) 0.97816(5) 0.92882(9)
O13_4 O 0.30468(5) 0.01945(6) 0.47724(11)
O22_4 O 0.23055(6) 0.05468(5) 0.22724(11)
O26_4 O 0.17835(5) 0.02184(5) 0.42882(9)
Mg2_6 Mg 0.2500 0.7500 0.2500
O1_4 O 0.17571(5) 0.90298(5) 0.39186(10)
O2_4 O 0.22575(5) 0.82978(5) 0.32513(10)
O3_4 O 0.21188(5) 0.54591(5) 0.14914(10)
O5_4 O 0.14610(5) 0.65710(6) 0.17085(11)
O6_4 O 0.17243(6) 0.74966(5) 0.16811(11)
O7_4 O 0.21904(5) 0.68820(5) 0.35969(10)
H1_4 H 0.2995(13) 0.5886(13) 0.335(2)
C1_4 C 0.18041(7) 0.85057(7) 0.36755(13)
C2_4 C 0.12964(9) 0.81123(8) 0.38793(18)
H2_4 H 0.1176 0.8148 0.4625
H3_4 H 0.1408 0.7712 0.3733
H4_4 H 0.0975 0.8222 0.3412
C3_4 C 0.17869(8) 0.51777(8) 0.08677(15)
C4_4 C 0.11480(9) 0.52939(12) 0.0932(3)
H5_4 H 0.0961 0.5165 0.0273
H6_4 H 0.1083 0.5709 0.1027
H7_4 H 0.0984 0.5084 0.1539
C5_4 C 0.13713(8) 0.70912(8) 0.15015(16)
C6_4 C 0.07934(10) 0.72414(10) 0.1009(2)
H8_4 H 0.0851 0.7368 0.0272
H9_4 H 0.0612 0.7553 0.1419
H10_4 H 0.0543 0.6900 0.1018
C7_4 C 0.22899(8) 0.67955(8) 0.45944(14)
C8_4 C 0.23724(11) 0.73171(8) 0.53014(16)
H11_4 H 0.1999 0.7436 0.5595
H12_4 H 0.2536 0.7635 0.4882
H13_4 H 0.2636 0.7219 0.5885
Mg4_4 Mg 0.29093(2) 0.88259(2) 0.24829(4)
Mg5_4 Mg 0.20462(2) 0.98020(2) 0.29751(4)
O11_4 O 0.27425(5) 0.67022(5) 0.17487(10)
O12_4 O 0.28812(5) 0.95409(5) 0.35086(10)
O14_4 O 0.35390(5) 0.84290(6) 0.32915(11)
O15_4 O 0.32757(6) 0.75034(5) 0.33189(11)
O16_4 O 0.28096(5) 0.81180(5) 0.14031(10)
O18_4 O 0.22816(5) 0.92835(5) 0.17882(9)
H14_4 H 0.2005(13) 0.9114(13) 0.165(2)
C9_4 C 0.31959(7) 0.64943(7) 0.13245(13)
C10_4 C 0.37036(9) 0.68877(8) 0.11207(18)
H15_4 H 0.3824 0.6852 0.0375
H16_4 H 0.3592 0.7288 0.1267
H17_4 H 0.4025 0.6778 0.1588
C11_4 C 0.32131(8) 0.98223(8) 0.41323(15)
C12_4 C 0.38520(9) 0.97061(12) 0.4068(3)
H18_4 H 0.4039 0.9835 0.4727
H19_4 H 0.3917 0.9291 0.3973
H20_4 H 0.4016 0.9916 0.3461
C13_4 C 0.36287(8) 0.79088(8) 0.34985(16)
C14_4 C 0.42066(10) 0.77586(10) 0.3991(2)
H21_4 H 0.4149 0.7632 0.4728
H22_4 H 0.4388 0.7447 0.3581
H23_4 H 0.4457 0.8100 0.3982
C15_4 C 0.27101(8) 0.82045(8) 0.04056(14)
H25_4 H 0.2464 0.7365 0.0118
Mg7_4 Mg 0.13259(2) 0.95907(2) 0.49829(4)
O19_4 O 0.34702(5) 0.92571(5) 0.14186(10)
O24_4 O 0.11868(5) 0.98128(6) 0.24764(10)
O17_4 O 0.26872(6) 0.86868(5) 0.99764(10)
C16_4 C 0.26276(11) 0.76829(8) 0.96986(16)
H24_4 H 0.3001 0.7564 0.9405
H26_4 H 0.2364 0.7781 0.9115
Mg2_7 Mg 0.5000 0.0000 0.0000
O9_3 O 0.67835(5) 0.02184(5) 0.07118(9)
H1_5 H 0.6614(13) 0.0495(13) 0.085(2)
H12_5 H 0.4865 0.0036 0.2382
H13_5 H 0.5281 0.0136 0.3385
O12_5 O 0.29591(5) 0.03812(5) 0.10086(10)
O14_5 O 0.40710(6) 0.10390(5) 0.07915(11)
O15_5 O 0.49966(5) 0.07757(6) 0.08189(11)
C11_5 C 0.26777(8) 0.07131(8) 0.16323(15)
C12_5 C 0.27939(12) 0.13520(9) 0.1568(3)
H18_5 H 0.2665 0.1539 0.2227
H19_5 H 0.3209 0.1417 0.1473
H20_5 H 0.2584 0.1516 0.0961
C13_5 C 0.45912(8) 0.11287(8) 0.09985(16)
C14_5 C 0.47414(10) 0.17066(10) 0.1491(2)
H21_5 H 0.4868 0.1649 0.2228
H22_5 H 0.5053 0.1888 0.1081
H23_5 H 0.4400 0.1957 0.1482
O21_3 O 0.80468(5) 0.01945(6) 0.02276(11)
O23_3 O 0.73128(6) 0.13132(5) 0.00236(10)
Mg2_8 Mg 0.5000 0.0000 1.0000
Mg3_3 Mg 0.73020(2) 0.04538(2) 0.95249(4)
O10_3 O 0.65298(5) 0.07429(5) 0.85814(10)
O11_5 O 0.57978(5) 0.02425(5) 0.92487(10)
O16_5 O 0.43820(5) 0.03096(5) 0.89031(10)
C9_5 C 0.60057(7) 0.06959(7) 0.88245(13)
C10_5 C 0.56123(8) 0.12036(9) 0.86207(18)
H15_5 H 0.5648 0.1324 0.7875
H16_5 H 0.5212 0.1092 0.8767
H17_5 H 0.5722 0.1525 0.9088
C15_5 C 0.42955(8) 0.02101(8) 0.79056(14)
C16_5 C 0.48171(8) 0.01276(11) 0.71986(16)
H24_5 H 0.4936 0.0501 0.6905
Mg6_3 Mg 0.70907(2) 0.11741(2) 0.75171(4)
Mg9_2 Mg 0.79538(2) 0.01980(2) 0.70249(4)
O25_3 O 0.77184(5) 0.07165(5) 0.82118(9)
Mg1_3 Mg 0.63259(2) 0.95907(2) 0.00171(4)
Mg2_9 Mg 0.5000 1.0000 0.0000
O2_5 O 0.42022(5) 0.97575(5) 0.07513(10)
O7_5 O 0.56180(5) 0.96904(5) 0.10969(10)
O8_3 O 0.61868(5) 0.98128(6) 0.25236(10)
C1_5 C 0.39943(7) 0.93041(7) 0.11755(13)
C2_5 C 0.43877(8) 0.87964(9) 0.13793(18)
H2_5 H 0.4352 0.8676 0.2125
H3_5 H 0.4788 0.8908 0.1233
H4_5 H 0.4278 0.8475 0.0912
C7_5 C 0.57045(8) 0.97899(8) 0.20944(14)
C8_5 C 0.51829(8) 0.98724(11) 0.28014(16)
H11_5 H 0.5064 0.9499 0.3095
Mg8_2 Mg 0.70462(2) 0.98020(2) 0.20249(4)
O20_3 O 0.67571(5) 0.90298(5) 0.10814(10)
Mg2_10 Mg 0.5000 1.0000 1.0000
O3_5 O 0.70409(5) 0.96188(5) 0.89914(10)
O4_3 O 0.76945(6) 0.94532(5) 0.77276(11)
O5_5 O 0.59290(6) 0.89610(5) 0.92085(11)
O6_5 O 0.50034(5) 0.92243(6) 0.91811(11)
C3_5 C 0.73223(8) 0.92869(8) 0.83677(15)
C4_5 C 0.72061(12) 0.86480(9) 0.8432(3)
H5_5 H 0.7335 0.8461 0.7773
H6_5 H 0.6791 0.8583 0.8527
H7_5 H 0.7416 0.8484 0.9039
C5_5 C 0.54088(8) 0.88713(8) 0.90015(16)
C6_5 C 0.52586(10) 0.82934(10) 0.8509(2)
H8_5 H 0.5132 0.8351 0.7772
H9_5 H 0.4947 0.8112 0.8919
H10_5 H 0.5600 0.8043 0.8518
H14_5 H 0.3386(13) 0.9505(13) 0.915(2)
H25_5 H 0.5135 0.9964 0.7618
H26_5 H 0.4719 0.9864 0.6615
Mg2_11 Mg -0.0000 0.0000 0.5000
O2_6 O 0.07978(5) 0.02425(5) 0.57513(10)
C1_6 C 0.10057(7) 0.06959(7) 0.61755(13)
C2_6 C 0.06123(8) 0.12036(9) 0.63793(18)
H2_6 H 0.0648 0.1324 0.7125
H3_6 H 0.0212 0.1092 0.6233
H4_6 H 0.0722 0.1525 0.5912
H9_6 H 0.0053 0.1888 0.3919
H14_6 H 0.1614(13) 0.0495(13) 0.415(2)
H26_6 H 0.0281 0.0136 0.1615
Mg2_12 Mg -0.0000 1.0000 0.5000
H12_6 H 0.0135 0.9964 0.7382
O12_6 O 0.20409(5) 0.96188(5) 0.60086(10)
O14_6 O 0.09290(6) 0.89610(5) 0.57915(11)
O15_6 O 0.00034(5) 0.92243(6) 0.58189(11)
O16_6 O 0.06180(5) 0.96904(5) 0.39031(10)
C11_6 C 0.23223(8) 0.92869(8) 0.66323(15)
C12_6 C 0.22061(12) 0.86480(9) 0.6568(3)
H18_6 H 0.2335 0.8461 0.7227
H19_6 H 0.1791 0.8583 0.6473
H20_6 H 0.2416 0.8484 0.5961
C13_6 C 0.04088(8) 0.88713(8) 0.59985(16)
C14_6 C 0.02586(10) 0.82934(10) 0.6491(2)
H21_6 H 0.0132 0.8351 0.7228
H23_6 H 0.0600 0.8043 0.6482
C15_6 C 0.07045(8) 0.97899(8) 0.29056(14)
C16_6 C 0.01829(8) 0.98724(11) 0.21986(16)
H24_6 H 0.0064 0.9499 0.1905
Mg1_4 Mg 0.86741(2) 0.04093(2) 0.50171(4)
Mg2_13 Mg 1.0000 0.0000 0.5000
O3_6 O 0.79591(5) 0.03812(5) 0.39914(10)
O4_4 O 0.73055(6) 0.05468(5) 0.27276(11)
O5_6 O 0.90710(6) 0.10390(5) 0.42085(11)
O6_6 O 0.99966(5) 0.07757(6) 0.41811(11)
O7_6 O 0.93820(5) 0.03096(5) 0.60969(10)
O8_4 O 0.88132(5) 0.01872(6) 0.75236(10)
C3_6 C 0.76777(8) 0.07131(8) 0.33677(15)
C4_6 C 0.77939(12) 0.13520(9) 0.3432(3)
H5_6 H 0.7665 0.1539 0.2773
H6_6 H 0.8209 0.1417 0.3527
H7_6 H 0.7584 0.1516 0.4039
C5_6 C 0.95912(8) 0.11287(8) 0.40015(16)
C6_6 C 0.97414(10) 0.17066(10) 0.3509(2)
H8_6 H 0.9868 0.1649 0.2772
H10_6 H 0.9400 0.1957 0.3518
C7_6 C 0.92955(8) 0.02101(8) 0.70944(14)
C8_6 C 0.98171(8) 0.01276(11) 0.78014(16)
H11_6 H 0.9936 0.0501 0.8095
H25_6 H 0.9865 0.0036 0.2618
O20_4 O 0.82429(5) 0.09702(5) 0.60814(10)
Mg2_14 Mg 1.0000 1.0000 0.5000
Mg3_4 Mg 0.76980(2) 0.95462(2) 0.45249(4)
O9_4 O 0.82165(5) 0.97816(5) 0.57118(9)
H1_6 H 0.8386(13) 0.9505(13) 0.585(2)
H13_6 H 0.9719 0.9864 0.8385
O10_4 O 0.84702(5) 0.92571(5) 0.35814(10)
O11_6 O 0.92022(5) 0.97575(5) 0.42487(10)
C9_6 C 0.89943(7) 0.93041(7) 0.38245(13)
C10_6 C 0.93877(8) 0.87964(9) 0.36207(18)
H15_6 H 0.9352 0.8676 0.2875
H16_6 H 0.9788 0.8908 0.3767
H17_6 H 0.9278 0.8475 0.4088
H22_6 H 0.9947 0.8112 0.6081
Mg6_4 Mg 0.79093(2) 0.88259(2) 0.25171(4)
O21_4 O 0.69532(5) 0.98055(6) 0.52276(11)
O23_4 O 0.76872(6) 0.86868(5) 0.50236(10)
O25_4 O 0.72816(5) 0.92835(5) 0.32118(9)
Mg2_15 Mg 0.7500 0.7500 0.2500
O2_7 O 0.77425(5) 0.67022(5) 0.32513(10)
O3_7 O 0.78812(5) 0.95409(5) 0.14914(10)
O5_7 O 0.85390(5) 0.84290(6) 0.17085(11)
O6_7 O 0.82757(6) 0.75034(5) 0.16811(11)
O7_7 O 0.78096(5) 0.81180(5) 0.35969(10)
H1_7 H 0.7005(13) 0.9114(13) 0.335(2)
C1_7 C 0.81959(7) 0.64943(7) 0.36755(13)
C2_7 C 0.87036(9) 0.68877(8) 0.38793(18)
H2_7 H 0.8824 0.6852 0.4625
H3_7 H 0.8592 0.7288 0.3733
H4_7 H 0.9025 0.6778 0.3412
C3_7 C 0.82131(8) 0.98223(8) 0.08677(15)
C4_7 C 0.88520(9) 0.97061(12) 0.0932(3)
H5_7 H 0.9039 0.9835 0.0273
H6_7 H 0.8917 0.9291 0.1027
H7_7 H 0.9016 0.9916 0.1539
C5_7 C 0.86287(8) 0.79088(8) 0.15015(16)
C6_7 C 0.92066(10) 0.77586(10) 0.1009(2)
H8_7 H 0.9149 0.7632 0.0272
H9_7 H 0.9388 0.7447 0.1419
H10_7 H 0.9457 0.8100 0.1018
C7_7 C 0.77101(8) 0.82045(8) 0.45944(14)
C8_7 C 0.76276(11) 0.76829(8) 0.53014(16)
H11_7 H 0.8001 0.7564 0.5595
H12_7 H 0.7464 0.7365 0.4882
H13_7 H 0.7364 0.7781 0.5885
O11_7 O 0.72575(5) 0.82978(5) 0.17487(10)
O12_7 O 0.71188(5) 0.54591(5) 0.35086(10)
O14_7 O 0.64610(5) 0.65710(6) 0.32915(11)
O15_7 O 0.67243(6) 0.74966(5) 0.33189(11)
O16_7 O 0.71904(5) 0.68820(5) 0.14031(10)
H14_7 H 0.7995(13) 0.5886(13) 0.165(2)
C9_7 C 0.68041(7) 0.85057(7) 0.13245(13)
C10_7 C 0.62964(9) 0.81123(8) 0.11207(18)
H15_7 H 0.6176 0.8148 0.0375
H16_7 H 0.6408 0.7712 0.1267
H17_7 H 0.5975 0.8222 0.1588
C11_7 C 0.67869(8) 0.51777(8) 0.41323(15)
C12_7 C 0.61480(9) 0.52939(12) 0.4068(3)
H18_7 H 0.5961 0.5165 0.4727
H19_7 H 0.6083 0.5709 0.3973
H20_7 H 0.5984 0.5084 0.3461
C13_7 C 0.63713(8) 0.70912(8) 0.34985(16)
C14_7 C 0.57934(10) 0.72414(10) 0.3991(2)
H21_7 H 0.5851 0.7368 0.4728
H22_7 H 0.5612 0.7553 0.3581
H23_7 H 0.5543 0.6900 0.3982
C15_7 C 0.72899(8) 0.67955(8) 0.04056(14)
H25_7 H 0.7536 0.7635 0.0118
C16_7 C 0.73724(11) 0.73171(8) 0.96986(16)
H24_7 H 0.6999 0.7436 0.9405
H26_7 H 0.7636 0.7219 0.9115
C8_8 C 0.73724(11) 0.23171(8) 0.03014(16)
H11_8 H 0.6999 0.2436 0.0595
H13_8 H 0.7636 0.2219 0.0885
Mg2_16 Mg 0.7500 0.2500 0.7500
O2_8 O 0.72575(5) 0.32978(5) 0.82513(10)
O3_8 O 0.71188(5) 0.04591(5) 0.64914(10)
O5_8 O 0.64610(5) 0.15710(6) 0.67085(11)
O6_8 O 0.67243(6) 0.24966(5) 0.66811(11)
O7_8 O 0.71904(5) 0.18820(5) 0.85969(10)
H1_8 H 0.7995(13) 0.0886(13) 0.835(2)
C1_8 C 0.68041(7) 0.35057(7) 0.86755(13)
C2_8 C 0.62964(9) 0.31123(8) 0.88793(18)
H2_8 H 0.6176 0.3148 0.9625
H3_8 H 0.6408 0.2712 0.8733
H4_8 H 0.5975 0.3222 0.8412
C3_8 C 0.67869(8) 0.01777(8) 0.58677(15)
C4_8 C 0.61480(9) 0.02939(12) 0.5932(3)
H5_8 H 0.5961 0.0165 0.5273
H6_8 H 0.6083 0.0709 0.6027
H7_8 H 0.5984 0.0084 0.6539
C5_8 C 0.63713(8) 0.20912(8) 0.65015(16)
C6_8 C 0.57934(10) 0.22414(10) 0.6009(2)
H8_8 H 0.5851 0.2368 0.5272
H9_8 H 0.5612 0.2553 0.6419
H10_8 H 0.5543 0.1900 0.6018
C7_8 C 0.72899(8) 0.17955(8) 0.95944(14)
H12_8 H 0.7536 0.2635 0.9882
O11_8 O 0.77425(5) 0.17022(5) 0.67487(10)
O12_8 O 0.78812(5) 0.45409(5) 0.85086(10)
O14_8 O 0.85390(5) 0.34290(6) 0.82915(11)
O15_8 O 0.82757(6) 0.25034(5) 0.83189(11)
O16_8 O 0.78096(5) 0.31180(5) 0.64031(10)
H14_8 H 0.7005(13) 0.4114(13) 0.665(2)
C9_8 C 0.81959(7) 0.14943(7) 0.63245(13)
C10_8 C 0.87036(9) 0.18877(8) 0.61207(18)
H15_8 H 0.8824 0.1852 0.5375
H16_8 H 0.8592 0.2288 0.6267
H17_8 H 0.9025 0.1778 0.6588
C11_8 C 0.82131(8) 0.48223(8) 0.91323(15)
C12_8 C 0.88520(9) 0.47061(12) 0.9068(3)
H18_8 H 0.9039 0.4835 0.9727
H19_8 H 0.8917 0.4291 0.8973
H20_8 H 0.9016 0.4916 0.8461
C13_8 C 0.86287(8) 0.29088(8) 0.84985(16)
C14_8 C 0.92066(10) 0.27586(10) 0.8991(2)
H21_8 H 0.9149 0.2632 0.9728
H22_8 H 0.9388 0.2447 0.8581
H23_8 H 0.9457 0.3100 0.8982
C15_8 C 0.77101(8) 0.32045(8) 0.54056(14)
C16_8 C 0.76276(11) 0.26829(8) 0.46986(16)
H24_8 H 0.8001 0.2564 0.4405
H25_8 H 0.7464 0.2365 0.5118
H26_8 H 0.7364 0.2781 0.4115
loop_
_geom_bond_atom_site_label_1
_geom_bond_atom_site_label_2
_geom_bond_site_symmetry_1
_geom_bond_site_symmetry_2
Mg1 O3 1_555 1_555
Mg3 O3 1_555 1_555
O3 C3 1_555 1_555
O4 C3 1_555 1_555
O5 Mg1 1_555 1_555
O6 Mg2 1_555 1_555
O7 Mg1 1_555 1_555
O8 C7 1_555 1_555
O9 Mg1 1_555 1_555
H1 O9 1_555 1_555
C3 C4 1_555 1_555
C4 H5 1_555 1_555
H6 C4 1_555 1_555
H7 C4 1_555 1_555
C5 O5 1_555 1_555
C6 C5 1_555 1_555
H8 C6 1_555 1_555
H10 C6 1_555 1_555
C7 O7 1_555 1_555
C8 C7 1_555 1_555
H11 C8 1_555 1_555
H13 C8 1_555 1_555
O10 Mg3 1_555 1_555
O11 Mg1 1_555 1_555
C9 O10 1_555 1_555
C10 C9 1_555 1_555
H15 C10 1_555 1_555
H16 C10 1_555 1_555
H17 C10 1_555 1_555
Mg6 O10 1_555 1_555
Mg8 O8 1_555 1_555
Mg9 O4 1_555 1_555
O20 Mg1 1_555 1_555
O21 Mg3 1_555 1_555
O23 Mg3 1_555 1_555
O25 Mg3 1_555 1_555
Mg2 O7 1_555 1_555
Mg2 O11 1_555 1_555
Mg3 O9 1_555 1_555
O6 C5 1_555 1_555
O9 Mg8 1_555 1_555
O11 C9 1_555 1_555
Mg6 O25 1_555 1_555
Mg8 O20 1_555 1_555
Mg9 O25 1_555 1_555
Mg2_2 O2 1_555 1_555
O1 C1 1_555 1_555
O2 C1 1_555 1_555
C1 C2 1_555 1_555
C2 H2 1_555 1_555
H3 C2 1_555 1_555
H4 C2 1_555 1_555
Mg4 O2 1_555 1_555
Mg5 O1 1_555 1_555
O12 Mg4 1_555 1_555
O13 C11 1_555 1_555
O14 Mg4 1_555 1_555
O15 Mg2_2 1_555 1_555
O16 Mg2_2 1_555 1_555
O17 C15 1_555 1_555
O18 Mg4 1_555 1_555
H14 O18 1_555 1_555
C11 O12 1_555 1_555
C12 C11 1_555 1_555
H18 C12 1_555 1_555
H19 C12 1_555 1_555
H20 C12 1_555 1_555
C13 O14 1_555 1_555
C14 C13 1_555 1_555
H21 C14 1_555 1_555
H23 C14 1_555 1_555
C15 O16 1_555 1_555
C16 C15 1_555 1_555
H24 C16 1_555 1_555
H26 C16 1_555 1_555
Mg7 O1 1_555 1_555
Mg10 O17 1_555 1_555
Mg11 O13 1_555 1_555
O19 Mg4 1_555 1_555
O22 Mg5 1_555 1_555
O24 Mg5 1_555 1_555
O26 Mg5 1_555 1_555
Mg4 O16 1_555 1_555
Mg5 O12 1_555 1_555
Mg5 O18 1_555 1_555
O15 C13 1_555 1_555
O18 Mg10 1_555 1_555
Mg7 O26 1_555 1_555
Mg10 O19 1_555 1_555
Mg11 O26 1_555 1_555
Mg2_3 O2_2 1_555 1_555
O1_2 C1_2 1_555 1_555
O2_2 C1_2 1_555 1_555
O7_2 Mg1_2 1_555 1_555
O8_2 C7_2 1_555 1_555
O9_2 Mg1_2 1_555 1_555
H1_2 O9_2 1_555 1_555
C1_2 C2_2 1_555 1_555
C2_2 H2_2 1_555 1_555
H3_2 C2_2 1_555 1_555
H4_2 C2_2 1_555 1_555
C7_2 O7_2 1_555 1_555
C8_2 C7_2 1_555 1_555
H11_2 C8_2 1_555 1_555
H12_2 C8_2 1_555 1_555
H13_2 C8_2 1_555 1_555
Mg5_2 O1_2 1_555 1_555
O13_2 C11_2 1_555 1_555
O15_2 Mg2_3 1_555 1_555
C11_2 O12_2 1_555 1_555
C12_2 C11_2 1_555 1_555
H18_2 C12_2 1_555 1_555
H19_2 C12_2 1_555 1_555
H20_2 C12_2 1_555 1_555
C13_2 O14_2 1_555 1_555
C14_2 C13_2 1_555 1_555
H21_2 C14_2 1_555 1_555
H22_2 C14_2 1_555 1_555
H23_2 C14_2 1_555 1_555
Mg7_2 O1_2 1_555 1_555
Mg9 O8_2 1_555 1_555
Mg10 O13_2 1_555 1_555
O20_2 Mg1_2 1_555 1_555
O26_2 Mg5_2 1_555 1_555
Mg2_3 O7_2 1_555 1_555
O9_2 Mg9 1_555 1_555
Mg5_2 O12_2 1_555 1_555
O15_2 C13_2 1_555 1_555
Mg7_2 O26_2 1_555 1_555
Mg9 O20_2 1_555 1_555
Mg10 O26_2 1_555 1_555
Mg3_2 O3_2 1_555 1_555
O3_2 C3_2 1_555 1_555
O4_2 C3_2 1_555 1_555
O6_2 Mg2_4 1_555 1_555
C3_2 C4_2 1_555 1_555
C4_2 H5_2 1_555 1_555
H6_2 C4_2 1_555 1_555
H7_2 C4_2 1_555 1_555
C5_2 O5_2 1_555 1_555
C6_2 C5_2 1_555 1_555
H8_2 C6_2 1_555 1_555
H9_2 C6_2 1_555 1_555
H10_2 C6_2 1_555 1_555
O10_2 Mg3_2 1_555 1_555
O16_2 Mg2_4 1_555 1_555
O17_2 C15_2 1_555 1_555
O18_2 Mg4_2 1_555 1_555
H14_2 O18_2 1_555 1_555
C9_2 O10_2 1_555 1_555
C10_2 C9_2 1_555 1_555
H15_2 C10_2 1_555 1_555
H16_2 C10_2 1_555 1_555
H17_2 C10_2 1_555 1_555
C15_2 O16_2 1_555 1_555
C16_2 C15_2 1_555 1_555
H24_2 C16_2 1_555 1_555
H25_2 C16_2 1_555 1_555
H26_2 C16_2 1_555 1_555
Mg6_2 O10_2 1_555 1_555
Mg8 O4_2 1_555 1_555
Mg11 O17_2 1_555 1_555
O19_2 Mg4_2 1_555 1_555
O25_2 Mg3_2 1_555 1_555
Mg2_4 O11_2 1_555 1_555
O6_2 C5_2 1_555 1_555
Mg4_2 O16_2 1_555 1_555
O11_2 C9_2 1_555 1_555
O18_2 Mg11 1_555 1_555
Mg6_2 O25_2 1_555 1_555
Mg8 O25_2 1_555 1_555
Mg11 O19_2 1_555 1_555
H11_3 C8_3 1_555 1_555
H13_3 C8_3 1_555 1_555
Mg6_2 O3_3 1_555 1_555
Mg2_5 O2_3 1_555 1_555
Mg8 O3_3 1_555 1_555
O1_3 C1_3 1_555 1_555
O2_3 C1_3 1_555 1_555
O3_3 C3_3 1_555 1_555
O21 C3_3 1_555 1_555
O5_3 Mg6_2 1_555 1_555
O6_3 Mg2_5 1_555 1_555
O7_3 Mg6_2 1_555 1_555
H1_3 O25_2 1_555 1_555
C1_3 C2_3 1_555 1_555
C2_3 H2_3 1_555 1_555
H3_3 C2_3 1_555 1_555
H4_3 C2_3 1_555 1_555
C3_3 C4_3 1_555 1_555
C4_3 H5_3 1_555 1_555
H6_3 C4_3 1_555 1_555
H7_3 C4_3 1_555 1_555
C5_3 O5_3 1_555 1_555
C6_3 C5_3 1_555 1_555
H8_3 C6_3 1_555 1_555
H9_3 C6_3 1_555 1_555
H10_3 C6_3 1_555 1_555
C7_3 O7_3 1_555 1_555
Mg4_3 O2_3 1_555 1_555
Mg5_3 O1_3 1_555 1_555
O11_3 Mg6_2 1_555 1_555
O12_3 Mg4_3 1_555 1_555
O14_3 Mg4_3 1_555 1_555
O15_3 Mg2_5 1_555 1_555
O16_3 Mg2_5 1_555 1_555
O17_3 C15_3 1_555 1_555
O18_3 Mg4_3 1_555 1_555
H14_3 O18_3 1_555 1_555
C9_3 O20 1_555 1_555
C10_3 C9_3 1_555 1_555
H15_3 C10_3 1_555 1_555
H16_3 C10_3 1_555 1_555
H17_3 C10_3 1_555 1_555
C11_3 O12_3 1_555 1_555
C12_3 C11_3 1_555 1_555
H18_3 C12_3 1_555 1_555
H19_3 C12_3 1_555 1_555
H20_3 C12_3 1_555 1_555
C13_3 O14_3 1_555 1_555
C14_3 C13_3 1_555 1_555
H21_3 C14_3 1_555 1_555
H22_3 C14_3 1_555 1_555
H23_3 C14_3 1_555 1_555
C15_3 O16_3 1_555 1_555
C16_3 C15_3 1_555 1_555
H24_3 C16_3 1_555 1_555
H25_3 C16_3 1_555 1_555
H26_3 C16_3 1_555 1_555
Mg7_3 O1_3 1_555 1_555
Mg10_2 O17_3 1_555 1_555
O19_3 Mg4_3 1_555 1_555
O24_3 Mg5_3 1_555 1_555
Mg2_5 O7_3 1_555 1_555
Mg2_5 O11_3 1_555 1_555
O6_3 C5_3 1_555 1_555
Mg4_3 O16_3 1_555 1_555
Mg5_3 O12_3 1_555 1_555
Mg5_3 O18_3 1_555 1_555
O11_3 C9_3 1_555 1_555
O15_3 C13_3 1_555 1_555
O18_3 Mg10_2 1_555 1_555
Mg10_2 O19_3 1_555 1_555
Mg10_2 O13_4 1_555 1_555
Mg10_2 O26_4 1_555 1_555
Mg6 O3_4 1_555 1_555
Mg2_6 O2_4 1_555 1_555
Mg9 O3_4 1_555 1_555
O1_4 C1_4 1_555 1_555
O2_4 C1_4 1_555 1_555
O3_4 C3_4 1_555 1_555
O21_2 C3_4 1_555 1_555
O5_4 Mg6 1_555 1_555
O6_4 Mg2_6 1_555 1_555
O7_4 Mg6 1_555 1_555
O23 C7_4 1_555 1_555
H1_4 O25 1_555 1_555
C1_4 C2_4 1_555 1_555
C2_4 H2_4 1_555 1_555
H3_4 C2_4 1_555 1_555
H4_4 C2_4 1_555 1_555
C3_4 C4_4 1_555 1_555
C4_4 H5_4 1_555 1_555
H6_4 C4_4 1_555 1_555
H7_4 C4_4 1_555 1_555
C5_4 O5_4 1_555 1_555
C6_4 C5_4 1_555 1_555
H8_4 C6_4 1_555 1_555
H9_4 C6_4 1_555 1_555
H10_4 C6_4 1_555 1_555
C7_4 O7_4 1_555 1_555
C8_4 C7_4 1_555 1_555
H11_4 C8_4 1_555 1_555
H12_4 C8_4 1_555 1_555
H13_4 C8_4 1_555 1_555
Mg4_4 O2_4 1_555 1_555
Mg5_4 O1_4 1_555 1_555
O11_4 Mg6 1_555 1_555
O12_4 Mg4_4 1_555 1_555
O14_4 Mg4_4 1_555 1_555
O15_4 Mg2_6 1_555 1_555
O16_4 Mg2_6 1_555 1_555
O18_4 Mg4_4 1_555 1_555
H14_4 O18_4 1_555 1_555
C9_4 O20_2 1_555 1_555
C10_4 C9_4 1_555 1_555
H15_4 C10_4 1_555 1_555
H16_4 C10_4 1_555 1_555
H17_4 C10_4 1_555 1_555
C11_4 O12_4 1_555 1_555
C12_4 C11_4 1_555 1_555
H18_4 C12_4 1_555 1_555
H19_4 C12_4 1_555 1_555
H20_4 C12_4 1_555 1_555
C13_4 O14_4 1_555 1_555
C14_4 C13_4 1_555 1_555
H21_4 C14_4 1_555 1_555
H22_4 C14_4 1_555 1_555
H23_4 C14_4 1_555 1_555
C15_4 O16_4 1_555 1_555
Mg7_4 O1_4 1_555 1_555
O19_4 Mg4_4 1_555 1_555
O24_4 Mg5_4 1_555 1_555
Mg2_6 O7_4 1_555 1_555
Mg2_6 O11_4 1_555 1_555
O6_4 C5_4 1_555 1_555
Mg4_4 O16_4 1_555 1_555
Mg5_4 O12_4 1_555 1_555
Mg5_4 O18_4 1_555 1_555
O11_4 C9_4 1_555 1_555
O15_4 C13_4 1_555 1_555
O18_4 Mg11_2 1_555 1_555
Mg11_2 O19_4 1_555 1_555
H24_4 C16_4 1_555 1_555
H26_4 C16_4 1_555 1_555
H1_5 O9_3 1_555 1_555
O22_4 C11_5 1_555 1_555
O15_5 Mg2_7 1_555 1_555
C11_5 O12_5 1_555 1_555
C12_5 C11_5 1_555 1_555
H18_5 C12_5 1_555 1_555
H19_5 C12_5 1_555 1_555
H20_5 C12_5 1_555 1_555
C13_5 O14_5 1_555 1_555
C14_5 C13_5 1_555 1_555
H21_5 C14_5 1_555 1_555
H22_5 C14_5 1_555 1_555
H23_5 C14_5 1_555 1_555
O15_5 C13_5 1_555 1_555
O10_3 Mg3_3 1_555 1_555
O16_5 Mg2_8 1_555 1_555
O24_3 C15_5 1_555 1_555
C9_5 O10_3 1_555 1_555
C10_5 C9_5 1_555 1_555
H15_5 C10_5 1_555 1_555
H16_5 C10_5 1_555 1_555
H17_5 C10_5 1_555 1_555
C15_5 O16_5 1_555 1_555
C16_5 C15_5 1_555 1_555
H24_5 C16_5 1_555 1_555
Mg6_3 O10_3 1_555 1_555
O25_3 Mg3_3 1_555 1_555
Mg2_8 O11_5 1_555 1_555
Mg7_3 O16_5 1_555 1_555
O11_5 C9_5 1_555 1_555
Mg6_3 O25_3 1_555 1_555
Mg9_2 O25_3 1_555 1_555
Mg2_9 O2_5 1_555 1_555
O19_4 C1_5 1_555 1_555
O2_5 C1_5 1_555 1_555
O7_5 Mg1_3 1_555 1_555
O8_3 C7_5 1_555 1_555
C1_5 C2_5 1_555 1_555
C2_5 H2_5 1_555 1_555
H3_5 C2_5 1_555 1_555
H4_5 C2_5 1_555 1_555
C7_5 O7_5 1_555 1_555
C8_5 C7_5 1_555 1_555
H11_5 C8_5 1_555 1_555
Mg8_2 O8_3 1_555 1_555
O20_3 Mg1_3 1_555 1_555
Mg2_9 O7_5 1_555 1_555
Mg8_2 O20_3 1_555 1_555
O3_5 C3_5 1_555 1_555
O4_3 C3_5 1_555 1_555
O6_5 Mg2_10 1_555 1_555
C3_5 C4_5 1_555 1_555
C4_5 H5_5 1_555 1_555
H6_5 C4_5 1_555 1_555
H7_5 C4_5 1_555 1_555
C5_5 O5_5 1_555 1_555
C6_5 C5_5 1_555 1_555
H8_5 C6_5 1_555 1_555
H9_5 C6_5 1_555 1_555
H10_5 C6_5 1_555 1_555
H14_5 O26_3 1_555 1_555
O6_5 C5_5 1_555 1_555
Mg2_11 O2_6 1_555 1_555
O19_3 C1_6 1_555 1_555
O2_6 C1_6 1_555 1_555
C1_6 C2_6 1_555 1_555
C2_6 H2_6 1_555 1_555
H3_6 C2_6 1_555 1_555
H4_6 C2_6 1_555 1_555
H14_6 O26_4 1_555 1_555
O12_6 Mg7_4 1_555 1_555
O22_3 C11_6 1_555 1_555
O14_6 Mg7_4 1_555 1_555
O15_6 Mg2_12 1_555 1_555
O16_6 Mg2_12 1_555 1_555
O24_4 C15_6 1_555 1_555
C11_6 O12_6 1_555 1_555
C12_6 C11_6 1_555 1_555
H18_6 C12_6 1_555 1_555
H19_6 C12_6 1_555 1_555
H20_6 C12_6 1_555 1_555
C13_6 O14_6 1_555 1_555
C14_6 C13_6 1_555 1_555
H21_6 C14_6 1_555 1_555
H23_6 C14_6 1_555 1_555
C15_6 O16_6 1_555 1_555
C16_6 C15_6 1_555 1_555
H24_6 C16_6 1_555 1_555
Mg7_4 O16_6 1_555 1_555
O15_6 C13_6 1_555 1_555
Mg1_4 O3_6 1_555 1_555
O3_6 C3_6 1_555 1_555
O4_4 C3_6 1_555 1_555
O5_6 Mg1_4 1_555 1_555
O6_6 Mg2_13 1_555 1_555
O7_6 Mg1_4 1_555 1_555
O8_4 C7_6 1_555 1_555
C3_6 C4_6 1_555 1_555
C4_6 H5_6 1_555 1_555
H6_6 C4_6 1_555 1_555
H7_6 C4_6 1_555 1_555
C5_6 O5_6 1_555 1_555
C6_6 C5_6 1_555 1_555
H8_6 C6_6 1_555 1_555
H10_6 C6_6 1_555 1_555
C7_6 O7_6 1_555 1_555
C8_6 C7_6 1_555 1_555
H11_6 C8_6 1_555 1_555
Mg9_2 O8_4 1_555 1_555
O20_4 Mg1_4 1_555 1_555
Mg2_13 O7_6 1_555 1_555
O6_6 C5_6 1_555 1_555
Mg9_2 O20_4 1_555 1_555
H1_6 O9_4 1_555 1_555
O10_4 Mg3_4 1_555 1_555
C9_6 O10_4 1_555 1_555
C10_6 C9_6 1_555 1_555
H15_6 C10_6 1_555 1_555
H16_6 C10_6 1_555 1_555
H17_6 C10_6 1_555 1_555
Mg6_4 O10_4 1_555 1_555
O21_4 Mg3_4 1_555 1_555
O23_4 Mg3_4 1_555 1_555
O25_4 Mg3_4 1_555 1_555
Mg2_14 O11_6 1_555 1_555
Mg3_4 O9_4 1_555 1_555
O11_6 C9_6 1_555 1_555
Mg6_4 O25_4 1_555 1_555
Mg8_2 O25_4 1_555 1_555
Mg6_4 O3_7 1_555 1_555
Mg2_15 O2_7 1_555 1_555
Mg8_2 O3_7 1_555 1_555
O19 C1_7 1_555 1_555
O2_7 C1_7 1_555 1_555
O3_7 C3_7 1_555 1_555
O5_7 Mg6_4 1_555 1_555
O6_7 Mg2_15 1_555 1_555
O7_7 Mg6_4 1_555 1_555
O23_4 C7_7 1_555 1_555
H1_7 O25_4 1_555 1_555
C1_7 C2_7 1_555 1_555
C2_7 H2_7 1_555 1_555
H3_7 C2_7 1_555 1_555
H4_7 C2_7 1_555 1_555
C3_7 C4_7 1_555 1_555
C4_7 H5_7 1_555 1_555
H6_7 C4_7 1_555 1_555
H7_7 C4_7 1_555 1_555
C5_7 O5_7 1_555 1_555
C6_7 C5_7 1_555 1_555
H8_7 C6_7 1_555 1_555
H9_7 C6_7 1_555 1_555
H10_7 C6_7 1_555 1_555
C7_7 O7_7 1_555 1_555
C8_7 C7_7 1_555 1_555
H11_7 C8_7 1_555 1_555
H12_7 C8_7 1_555 1_555
H13_7 C8_7 1_555 1_555
Mg7_2 O2_7 1_555 1_555
O11_7 Mg6_4 1_555 1_555
O12_7 Mg7_2 1_555 1_555
O22 C11_7 1_555 1_555
O14_7 Mg7_2 1_555 1_555
O15_7 Mg2_15 1_555 1_555
O16_7 Mg2_15 1_555 1_555
H14_7 O26_2 1_555 1_555
C9_7 O20_3 1_555 1_555
C10_7 C9_7 1_555 1_555
H15_7 C10_7 1_555 1_555
H16_7 C10_7 1_555 1_555
H17_7 C10_7 1_555 1_555
C11_7 O12_7 1_555 1_555
C12_7 C11_7 1_555 1_555
H18_7 C12_7 1_555 1_555
H19_7 C12_7 1_555 1_555
H20_7 C12_7 1_555 1_555
C13_7 O14_7 1_555 1_555
C14_7 C13_7 1_555 1_555
H21_7 C14_7 1_555 1_555
H22_7 C14_7 1_555 1_555
H23_7 C14_7 1_555 1_555
C15_7 O16_7 1_555 1_555
Mg2_15 O7_7 1_555 1_555
Mg2_15 O11_7 1_555 1_555
O6_7 C5_7 1_555 1_555
Mg7_2 O16_7 1_555 1_555
Mg10 O12_7 1_555 1_555
O11_7 C9_7 1_555 1_555
O15_7 C13_7 1_555 1_555
H24_7 C16_7 1_555 1_555
H26_7 C16_7 1_555 1_555
H11_8 C8_8 1_555 1_555
H13_8 C8_8 1_555 1_555
Mg6_3 O3_8 1_555 1_555
Mg2_16 O2_8 1_555 1_555
Mg9_2 O3_8 1_555 1_555
O19_2 C1_8 1_555 1_555
O2_8 C1_8 1_555 1_555
O3_8 C3_8 1_555 1_555
O5_8 Mg6_3 1_555 1_555
O6_8 Mg2_16 1_555 1_555
O7_8 Mg6_3 1_555 1_555
H1_8 O25_3 1_555 1_555
C1_8 C2_8 1_555 1_555
C2_8 H2_8 1_555 1_555
H3_8 C2_8 1_555 1_555
H4_8 C2_8 1_555 1_555
C3_8 C4_8 1_555 1_555
C4_8 H5_8 1_555 1_555
H6_8 C4_8 1_555 1_555
H7_8 C4_8 1_555 1_555
C5_8 O5_8 1_555 1_555
C6_8 C5_8 1_555 1_555
H8_8 C6_8 1_555 1_555
H9_8 C6_8 1_555 1_555
H10_8 C6_8 1_555 1_555
C7_8 O7_8 1_555 1_555
Mg7 O2_8 1_555 1_555
O11_8 Mg6_3 1_555 1_555
O12_8 Mg7 1_555 1_555
O22_2 C11_8 1_555 1_555
O14_8 Mg7 1_555 1_555
O15_8 Mg2_16 1_555 1_555
O16_8 Mg2_16 1_555 1_555
O24 C15_8 1_555 1_555
H14_8 O26 1_555 1_555
C9_8 O20_4 1_555 1_555
C10_8 C9_8 1_555 1_555
H15_8 C10_8 1_555 1_555
H16_8 C10_8 1_555 1_555
H17_8 C10_8 1_555 1_555
C11_8 O12_8 1_555 1_555
C12_8 C11_8 1_555 1_555
H18_8 C12_8 1_555 1_555
H19_8 C12_8 1_555 1_555
H20_8 C12_8 1_555 1_555
C13_8 O14_8 1_555 1_555
C14_8 C13_8 1_555 1_555
H21_8 C14_8 1_555 1_555
H22_8 C14_8 1_555 1_555
H23_8 C14_8 1_555 1_555
C15_8 O16_8 1_555 1_555
C16_8 C15_8 1_555 1_555
H24_8 C16_8 1_555 1_555
H25_8 C16_8 1_555 1_555
H26_8 C16_8 1_555 1_555
Mg2_16 O7_8 1_555 1_555
Mg2_16 O11_8 1_555 1_555
O6_8 C5_8 1_555 1_555
Mg7 O16_8 1_555 1_555
Mg11 O12_8 1_555 1_555
O11_8 C9_8 1_555 1_555
O15_8 C13_8 1_555 1_555

#END
