
###############################################################################
#
# This file contains modified crystal structure data generated from the
# MOF subset of the Cambridge Structural Database (CSD) v543 
# hosted by the Cambridge Crystallographic Data Centre (CCDC).
#
# This work is licensed under the Creative Commons
# Attribution-NonCommercial-ShareAlike 4.0 International License.
# To view a copy of this license, visit
# http://creativecommons.org/licenses/by-nc-sa/4.0/
# or send a letter to
# Creative Commons, PO Box 1866, Mountain View, CA 94042, USA.
#
# CIF created using the CSD Python API on 29 September 2022
# The structure has been converted into the P1 space group
# The structure has a 3D framework
# The original CSD entry IHOTEG is in the tetragonal crystal system
# The framework has been calculated to contain at least 10.0% void space
# The void calculation uses a probe of radius 1.32A, grid spacing 0.4
#
###############################################################################

data_IHOTEG
_chemical_formula_moiety         '(C128 H207 Mg44 O141)n'
_symmetry_cell_setting           triclinic
_symmetry_space_group_name_H-M   'P 1'
_symmetry_Int_Tables_number      1
_space_group_name_Hall           'P 1'
loop_
_symmetry_equiv_pos_site_id
_symmetry_equiv_pos_as_xyz
1 x,y,z
_cell_length_a                   23.193(2)
_cell_length_b                   23.193(2)
_cell_length_c                   12.0690(10)
_cell_angle_alpha                90
_cell_angle_beta                 90
_cell_angle_gamma                90
_cell_volume                     6492.1
loop_
_atom_site_label
_atom_site_type_symbol
_atom_site_fract_x
_atom_site_fract_y
_atom_site_fract_z
Mg1 Mg 0.62983(9) 0.54234(9) 0.5001(2)
Mg2 Mg 0.5000 0.5000 0.5000
Mg3 Mg 0.72607(9) 0.45134(9) 0.4604(2)
O1 O 0.67414(18) 0.59824(17) 0.6077(4)
O2 O 0.7256(2) 0.67100(17) 0.6720(4)
O3 O 0.70407(19) 0.53576(18) 0.4006(4)
O4 O 0.7779(2) 0.5500(2) 0.2907(5)
O5 O 0.5907(2) 0.6030(2) 0.4088(5)
O6 O 0.4992(2) 0.5751(2) 0.4131(5)
O7 O 0.56059(19) 0.5330(2) 0.6153(5)
O8 O 0.6161(2) 0.5266(2) 0.7650(5)
O9 O 0.6732(2) 0.4793(2) 0.5778(5)
H1 H 0.654(4) 0.460(4) 0.582(8)
C1 C 0.6797(3) 0.6501(3) 0.6288(7)
C2 C 0.6284(4) 0.6900(3) 0.6087(9)
H2 H 0.6169 0.6878 0.5306
H3 H 0.6393 0.7297 0.6269
H4 H 0.5961 0.6780 0.6556
C3 C 0.7358(3) 0.5678(3) 0.3422(7)
C4 C 0.7266(5) 0.6303(4) 0.3411(11)
H5 H 0.7188 0.6437 0.4167
H6 H 0.6936 0.6394 0.2935
H7 H 0.7612 0.6495 0.3126
C5 C 0.5387(4) 0.6085(4) 0.3846(8)
C6 C 0.5223(5) 0.6607(5) 0.3195(12)
H8 H 0.5309 0.6542 0.2410
H9 H 0.5443 0.6940 0.3463
H10 H 0.4810 0.6681 0.3285
C7 C 0.5686(3) 0.5249(4) 0.7201(8)
C8 C 0.5174(4) 0.5143(5) 0.7898(8)
H11 H 0.5249 0.4816 0.8391
H12 H 0.4843 0.5055 0.7424
H13 H 0.5091 0.5487 0.8341
Mg4 Mg 0.37017(9) 0.45766(9) 0.4999(2)
Mg5 Mg 0.27393(9) 0.54866(9) 0.5396(2)
O10 O 0.32586(18) 0.40176(17) 0.3923(4)
O11 O 0.2744(2) 0.32900(17) 0.3280(4)
O12 O 0.29593(19) 0.46424(18) 0.5994(4)
O13 O 0.2221(2) 0.4500(2) 0.7093(5)
O14 O 0.4093(2) 0.3970(2) 0.5912(5)
O15 O 0.5008(2) 0.4249(2) 0.5869(5)
O16 O 0.43941(19) 0.4670(2) 0.3847(5)
O17 O 0.3839(2) 0.4734(2) 0.2350(5)
O18 O 0.3268(2) 0.5207(2) 0.4222(5)
H14 H 0.346(4) 0.540(4) 0.418(8)
C9 C 0.3203(3) 0.3499(3) 0.3712(7)
C10 C 0.3716(4) 0.3100(3) 0.3913(9)
H15 H 0.3831 0.3122 0.4694
H16 H 0.3607 0.2703 0.3731
H17 H 0.4039 0.3220 0.3444
C11 C 0.2642(3) 0.4322(3) 0.6578(7)
C12 C 0.2734(5) 0.3697(4) 0.6589(11)
H18 H 0.2812 0.3563 0.5833
H19 H 0.3064 0.3606 0.7065
H20 H 0.2388 0.3505 0.6874
C13 C 0.4613(4) 0.3915(4) 0.6154(8)
C14 C 0.4777(5) 0.3393(5) 0.6805(12)
H21 H 0.4691 0.3458 0.7590
H22 H 0.4557 0.3060 0.6537
H23 H 0.5190 0.3319 0.6715
C15 C 0.4314(3) 0.4751(4) 0.2799(8)
C16 C 0.4826(4) 0.4857(5) 0.2102(8)
H24 H 0.4751 0.5184 0.1609
H25 H 0.5157 0.4945 0.2576
H26 H 0.4909 0.4513 0.1659
Mg6 Mg 0.79234(9) 0.62017(9) 0.7501(2)
Mg7 Mg 0.20766(9) 0.37983(9) 0.2499(2)
Mg8 Mg 0.2500 0.2500 0.2500
Mg9 Mg 0.7500 0.7500 0.7500
Mg10 Mg 0.79866(9) 0.47607(9) 0.2104(2)
Mg11 Mg 0.70134(9) 0.52393(9) 0.7104(2)
Mg12 Mg 0.20134(9) 0.52393(9) 0.7896(2)
Mg13 Mg 0.29866(9) 0.47607(9) 0.2896(2)
O19 O 0.65176(17) 0.42414(18) 0.3577(4)
O20 O 0.34824(17) 0.57586(18) 0.6423(4)
O21 O 0.57900(17) 0.4756(2) 0.4220(4)
O22 O 0.42100(17) 0.5244(2) 0.5780(4)
O23 O 0.8000(2) 0.4721(2) 0.5407(5)
O24 O 0.2000(2) 0.5279(2) 0.4593(5)
O25 O 0.7234(2) 0.3661(2) 0.5150(5)
O26 O 0.2766(2) 0.6339(2) 0.4850(5)
O27 O 0.7707(2) 0.4232(2) 0.3278(5)
O28 O 0.2293(2) 0.5768(2) 0.6722(5)
Mg2_2 Mg 0.0000 0.5000 -0.0000
H12_2 H 0.0157 0.4945 0.2424
Mg5_2 Mg 0.22607(9) 0.45134(9) 0.0396(2)
O12_2 O 0.20407(19) 0.53576(18) 0.0994(4)
O13_2 O 0.2779(2) 0.5500(2) 0.2093(5)
O14_2 O 0.0907(2) 0.6030(2) 0.0912(5)
C11_2 C 0.2358(3) 0.5678(3) 0.1578(7)
C12_2 C 0.2266(5) 0.6303(4) 0.1589(11)
H18_2 H 0.2188 0.6437 0.0833
H19_2 H 0.1936 0.6394 0.2065
H20_2 H 0.2612 0.6495 0.1874
C13_2 C 0.0387(4) 0.6085(4) 0.1154(8)
C14_2 C 0.0223(5) 0.6607(5) 0.1805(12)
H21_2 H 0.0309 0.6542 0.2590
H22_2 H 0.0443 0.6940 0.1537
O20_2 O 0.15176(17) 0.42414(18) 0.1423(4)
O22_2 O 0.07900(17) 0.4756(2) 0.0780(4)
O28_2 O 0.2707(2) 0.4232(2) 0.1722(5)
Mg2_3 Mg 0.0000 0.5000 1.0000
O6_2 O 0.0008(2) 0.4249(2) 0.9131(5)
H10_2 H 0.0190 0.3319 0.8285
Mg4_2 Mg 0.12983(9) 0.54234(9) 0.9999(2)
O10_2 O 0.17414(18) 0.59824(17) 0.8923(4)
O11_2 O 0.2256(2) 0.67100(17) 0.8280(4)
O16_2 O 0.06059(19) 0.5330(2) 0.8847(5)
O17_2 O 0.1161(2) 0.5266(2) 0.7350(5)
O18_2 O 0.1732(2) 0.4793(2) 0.9222(5)
H14_2 H 0.154(4) 0.460(4) 0.918(8)
C9_2 C 0.1797(3) 0.6501(3) 0.8712(7)
C10_2 C 0.1284(4) 0.6900(3) 0.8913(9)
H15_2 H 0.1169 0.6878 0.9694
H16_2 H 0.1393 0.7297 0.8731
H17_2 H 0.0961 0.6780 0.8444
C15_2 C 0.0686(3) 0.5249(4) 0.7799(8)
C16_2 C 0.0174(4) 0.5143(5) 0.7102(8)
H24_2 H 0.0249 0.4816 0.6609
H26_2 H 0.0091 0.5487 0.6659
Mg7_2 Mg 0.29234(9) 0.62017(9) 0.7499(2)
Mg8_2 Mg 0.2500 0.7500 0.7500
O24_2 O 0.3000(2) 0.4721(2) 0.9593(5)
O26_2 O 0.2234(2) 0.3661(2) 0.9850(5)
Mg1_2 Mg 0.87017(9) 0.45766(9) 0.0001(2)
Mg2_4 Mg 1.0000 0.5000 -0.0000
O1_2 O 0.82586(18) 0.40176(17) 0.1077(4)
O2_2 O 0.7744(2) 0.32900(17) 0.1720(4)
O7_2 O 0.93941(19) 0.4670(2) 0.1153(5)
O8_2 O 0.8839(2) 0.4734(2) 0.2650(5)
O9_2 O 0.8268(2) 0.5207(2) 0.0778(5)
H1_2 H 0.846(4) 0.540(4) 0.082(8)
C1_2 C 0.8203(3) 0.3499(3) 0.1288(7)
C2_2 C 0.8716(4) 0.3100(3) 0.1087(9)
H2_2 H 0.8831 0.3122 0.0306
H3_2 H 0.8607 0.2703 0.1269
H4_2 H 0.9039 0.3220 0.1556
C7_2 C 0.9314(3) 0.4751(4) 0.2201(8)
C8_2 C 0.9826(4) 0.4857(5) 0.2898(8)
H11_2 H 0.9751 0.5184 0.3391
H13_2 H 0.9909 0.4513 0.3341
O15_2 O 0.9992(2) 0.5751(2) 0.0869(5)
H23_2 H 0.9810 0.6681 0.1715
Mg6_2 Mg 0.70766(9) 0.37983(9) 0.2501(2)
Mg9_2 Mg 0.7500 0.2500 0.2500
O23_2 O 0.7000(2) 0.5279(2) 0.0407(5)
O25_2 O 0.7766(2) 0.6339(2) 0.0150(5)
Mg2_5 Mg 1.0000 0.5000 1.0000
Mg3_2 Mg 0.77393(9) 0.54866(9) 0.9604(2)
O3_2 O 0.79593(19) 0.46424(18) 0.9006(4)
O4_2 O 0.7221(2) 0.4500(2) 0.7907(5)
O5_2 O 0.9093(2) 0.3970(2) 0.9088(5)
C3_2 C 0.7642(3) 0.4322(3) 0.8422(7)
C4_2 C 0.7734(5) 0.3697(4) 0.8411(11)
H5_2 H 0.7812 0.3563 0.9167
H6_2 H 0.8064 0.3606 0.7935
H7_2 H 0.7388 0.3505 0.8126
C5_2 C 0.9613(4) 0.3915(4) 0.8846(8)
C6_2 C 0.9777(5) 0.3393(5) 0.8195(12)
H8_2 H 0.9691 0.3458 0.7410
H9_2 H 0.9557 0.3060 0.8463
H25_2 H 0.9843 0.5055 0.7576
O19_2 O 0.84824(17) 0.57586(18) 0.8577(4)
O21_2 O 0.92100(17) 0.5244(2) 0.9220(4)
O27_2 O 0.7293(2) 0.5768(2) 0.8278(5)
Mg6_3 Mg 0.12983(9) 0.04234(9) 0.0001(2)
Mg9_3 Mg 0.0000 0.0000 -0.0000
O4_3 O 0.2000(2) 0.0279(2) 0.5407(5)
H7_3 H 0.1005 0.0112 0.5626
Mg9_4 Mg 0.0000 0.0000 1.0000
Mg10_2 Mg 0.27393(9) 0.04866(9) 0.4604(2)
O23_3 O 0.2779(2) 0.0500(2) 0.7907(5)
O27_3 O 0.3268(2) 0.0207(2) 0.5778(5)
O8_3 O 0.2234(2) 0.8661(2) 0.0150(5)
C8_3 C 0.2357(5) 0.7674(4) 0.0398(8)
H11_3 H 0.2684 0.7749 0.0891
H13_3 H 0.2013 0.7591 0.0841
H21_3 H 0.4042 0.7191 0.0090
Mg9_5 Mg 0.0000 1.0000 -0.0000
Mg1_3 Mg 0.20766(9) 0.87983(9) 0.7501(2)
Mg3_3 Mg 0.29866(9) 0.97607(9) 0.7104(2)
O1_3 O 0.15176(17) 0.92414(18) 0.8577(4)
O2_3 O 0.07900(17) 0.9756(2) 0.9220(4)
O3_3 O 0.21424(18) 0.95407(19) 0.6506(4)
O5_3 O 0.1470(2) 0.8407(2) 0.6588(5)
O6_3 O 0.1749(2) 0.7492(2) 0.6631(5)
O7_3 O 0.2170(2) 0.81059(19) 0.8653(5)
O9_3 O 0.2707(2) 0.9232(2) 0.8278(5)
H1_3 H 0.290(4) 0.904(4) 0.832(8)
C1_3 C 0.0999(3) 0.9297(3) 0.8788(7)
C2_3 C 0.0600(3) 0.8784(4) 0.8587(9)
H2_3 H 0.0622 0.8669 0.7806
H3_3 H 0.0203 0.8893 0.8769
H4_3 H 0.0720 0.8461 0.9056
C3_3 C 0.1822(3) 0.9858(3) 0.5922(7)
C4_3 C 0.1197(4) 0.9766(5) 0.5911(11)
H5_3 H 0.1063 0.9688 0.6667
H6_3 H 0.1106 0.9436 0.5435
C5_3 C 0.1415(4) 0.7887(4) 0.6346(8)
C6_3 C 0.0893(5) 0.7723(5) 0.5695(12)
H8_3 H 0.0958 0.7809 0.4910
H9_3 H 0.0560 0.7943 0.5963
H10_3 H 0.0819 0.7310 0.5785
C7_3 C 0.2251(4) 0.8186(3) 0.9701(8)
H12_3 H 0.2445 0.7343 0.9924
O12_3 O 0.28576(18) 0.54593(19) 0.8494(4)
O14_3 O 0.3530(2) 0.6593(2) 0.8412(5)
O15_3 O 0.3251(2) 0.7508(2) 0.8369(5)
O16_3 O 0.2830(2) 0.68941(19) 0.6347(5)
H14_3 H 0.210(4) 0.596(4) 0.668(8)
C9_3 C 0.4001(3) 0.5703(3) 0.6212(7)
C10_3 C 0.4400(3) 0.6216(4) 0.6413(9)
H15_3 H 0.4378 0.6331 0.7194
H16_3 H 0.4797 0.6107 0.6231
H17_3 H 0.4280 0.6539 0.5944
C11_3 C 0.3178(3) 0.5142(3) 0.9078(7)
C12_3 C 0.3803(4) 0.5234(5) 0.9089(11)
H18_3 H 0.3937 0.5312 0.8333
H19_3 H 0.3894 0.5564 0.9565
H20_3 H 0.3995 0.4888 0.9374
C13_3 C 0.3585(4) 0.7113(4) 0.8654(8)
C14_3 C 0.4107(5) 0.7277(5) 0.9305(12)
H22_3 H 0.4440 0.7057 0.9037
H23_3 H 0.4181 0.7690 0.9215
C15_3 C 0.2749(4) 0.6814(3) 0.5299(8)
C16_3 C 0.2643(5) 0.7326(4) 0.4602(8)
H24_3 H 0.2316 0.7251 0.4109
H25_3 H 0.2555 0.7657 0.5076
H26_3 H 0.2987 0.7409 0.4159
Mg9_6 Mg 0.0000 1.0000 1.0000
Mg11_2 Mg 0.22607(9) 0.95134(9) 0.9604(2)
O19_3 O 0.32586(18) 0.90176(17) 0.6077(4)
O21_3 O 0.2744(2) 0.82900(17) 0.6720(4)
O25_3 O 0.3839(2) 0.9734(2) 0.7650(5)
Mg9_7 Mg 1.0000 0.0000 -0.0000
Mg9_8 Mg 1.0000 0.0000 1.0000
Mg9_9 Mg 1.0000 1.0000 -0.0000
Mg9_10 Mg 1.0000 1.0000 1.0000
Mg1_4 Mg 0.29234(9) 0.12017(9) 0.2501(2)
Mg3_4 Mg 0.20134(9) 0.02393(9) 0.2104(2)
O1_4 O 0.34824(17) 0.07586(18) 0.3577(4)
O2_4 O 0.42100(17) 0.0244(2) 0.4220(4)
O3_4 O 0.28576(18) 0.04593(19) 0.1506(4)
O5_4 O 0.3530(2) 0.1593(2) 0.1588(5)
O6_4 O 0.3251(2) 0.2508(2) 0.1631(5)
O7_4 O 0.2830(2) 0.18941(19) 0.3653(5)
O8_4 O 0.2766(2) 0.1339(2) 0.5150(5)
O9_4 O 0.2293(2) 0.0768(2) 0.3278(5)
H1_4 H 0.210(4) 0.096(4) 0.332(8)
C1_4 C 0.4001(3) 0.0703(3) 0.3788(7)
C2_4 C 0.4400(3) 0.1216(4) 0.3587(9)
H2_4 H 0.4378 0.1331 0.2806
H3_4 H 0.4797 0.1107 0.3769
H4_4 H 0.4280 0.1539 0.4056
C3_4 C 0.3178(3) 0.0142(3) 0.0922(7)
C4_4 C 0.3803(4) 0.0234(5) 0.0911(11)
H5_4 H 0.3937 0.0312 0.1667
H6_4 H 0.3894 0.0564 0.0435
C5_4 C 0.3585(4) 0.2113(4) 0.1346(8)
C6_4 C 0.4107(5) 0.2277(5) 0.0695(12)
H9_4 H 0.4440 0.2057 0.0963
H10_4 H 0.4181 0.2690 0.0785
C7_4 C 0.2749(4) 0.1814(3) 0.4701(8)
C8_4 C 0.2643(5) 0.2326(4) 0.5398(8)
H11_4 H 0.2316 0.2251 0.5891
H12_4 H 0.2555 0.2657 0.4924
H13_4 H 0.2987 0.2409 0.5841
O12_4 O 0.21424(18) 0.45407(19) 0.3494(4)
O14_4 O 0.1470(2) 0.3407(2) 0.3412(5)
O15_4 O 0.1749(2) 0.2492(2) 0.3369(5)
O16_4 O 0.2170(2) 0.31059(19) 0.1347(5)
H14_4 H 0.290(4) 0.404(4) 0.168(8)
C9_4 C 0.0999(3) 0.4297(3) 0.1212(7)
C10_4 C 0.0600(3) 0.3784(4) 0.1413(9)
H15_4 H 0.0622 0.3669 0.2194
H16_4 H 0.0203 0.3893 0.1231
H17_4 H 0.0720 0.3461 0.0944
C11_4 C 0.1822(3) 0.4858(3) 0.4078(7)
C12_4 C 0.1197(4) 0.4766(5) 0.4089(11)
H18_4 H 0.1063 0.4688 0.3333
H19_4 H 0.1106 0.4436 0.4565
H20_4 H 0.1005 0.5112 0.4374
C13_4 C 0.1415(4) 0.2887(4) 0.3654(8)
C14_4 C 0.0893(5) 0.2723(5) 0.4305(12)
H21_4 H 0.0958 0.2809 0.5090
H22_4 H 0.0560 0.2943 0.4037
H23_4 H 0.0819 0.2310 0.4215
C15_4 C 0.2251(4) 0.3186(3) 0.0299(8)
H25_4 H 0.2445 0.2343 0.0076
Mg9_11 Mg 0.5000 0.0000 0.5000
O19_4 O 0.17414(18) 0.09824(17) 0.1077(4)
O21_4 O 0.2256(2) 0.17100(17) 0.1720(4)
O25_4 O 0.1161(2) 0.0266(2) 0.2650(5)
H8_4 H 0.4042 0.2191 0.9910
C16_4 C 0.2357(5) 0.2674(4) 0.9602(8)
H24_4 H 0.2684 0.2749 0.9109
H26_4 H 0.2013 0.2591 0.9159
O4_4 O 0.3000(2) 0.9721(2) 0.0407(5)
H7_4 H 0.3995 0.9888 0.0626
Mg6_4 Mg 0.37017(9) 0.95766(9) 0.5001(2)
Mg9_12 Mg 0.5000 1.0000 0.5000
O23_4 O 0.2221(2) 0.9500(2) 0.2907(5)
O27_4 O 0.1732(2) 0.9793(2) 0.0778(5)
O7_5 O 0.06059(19) 0.0330(2) 0.1153(5)
C1_5 C 0.1797(3) 0.1501(3) 0.1288(7)
C2_5 C 0.1284(4) 0.1900(3) 0.1087(9)
H2_5 H 0.1169 0.1878 0.0306
H3_5 H 0.1393 0.2297 0.1269
H4_5 H 0.0961 0.1780 0.1556
C7_5 C 0.0686(3) 0.0249(4) 0.2201(8)
C8_5 C 0.0174(4) 0.0143(5) 0.2898(8)
H13_5 H 0.0091 0.0487 0.3341
O3_5 O 0.20407(19) 0.03576(18) 0.9006(4)
O5_5 O 0.0907(2) 0.1030(2) 0.9088(5)
C3_5 C 0.2358(3) 0.0678(3) 0.8422(7)
C4_5 C 0.2266(5) 0.1303(4) 0.8411(11)
H5_5 H 0.2188 0.1437 0.9167
H6_5 H 0.1936 0.1394 0.7935
H7_5 H 0.2612 0.1495 0.8126
C5_5 C 0.0387(4) 0.1085(4) 0.8846(8)
C6_5 C 0.0223(5) 0.1607(5) 0.8195(12)
H8_5 H 0.0309 0.1542 0.7410
H9_5 H 0.0443 0.1940 0.8463
H1_5 H 0.154(4) 0.960(4) 0.082(8)
H11_5 H 0.0249 0.9816 0.3391
O15_5 O 0.0008(2) 0.9249(2) 0.0869(5)
H23_5 H 0.0190 0.8319 0.1715
H25_5 H 0.0157 0.9945 0.7576
H12_5 H 0.9843 0.0055 0.2424
Mg5_3 Mg 0.77393(9) 0.04866(9) 0.0396(2)
Mg12_2 Mg 0.70134(9) 0.02393(9) 0.2896(2)
O20_3 O 0.84824(17) 0.07586(18) 0.1423(4)
O22_3 O 0.92100(17) 0.0244(2) 0.0780(4)
O28_3 O 0.7293(2) 0.0768(2) 0.1722(5)
O6_5 O 0.9992(2) 0.0751(2) 0.9131(5)
H10_5 H 0.9810 0.1681 0.8285
O18_3 O 0.8268(2) 0.0207(2) 0.9222(5)
H14_5 H 0.846(4) 0.040(4) 0.918(8)
H24_5 H 0.9751 0.0184 0.6609
O24_3 O 0.7000(2) 0.0279(2) 0.9593(5)
O26_3 O 0.7766(2) 0.1339(2) 0.9850(5)
O12_5 O 0.79593(19) 0.96424(18) 0.0994(4)
O13_3 O 0.7221(2) 0.9500(2) 0.2093(5)
O14_5 O 0.9093(2) 0.8970(2) 0.0912(5)
C11_5 C 0.7642(3) 0.9322(3) 0.1578(7)
C12_5 C 0.7734(5) 0.8697(4) 0.1589(11)
H18_5 H 0.7812 0.8563 0.0833
H19_5 H 0.8064 0.8606 0.2065
H20_5 H 0.7388 0.8505 0.1874
C13_5 C 0.9613(4) 0.8915(4) 0.1154(8)
C14_5 C 0.9777(5) 0.8393(5) 0.1805(12)
H21_5 H 0.9691 0.8458 0.2590
H22_5 H 0.9557 0.8060 0.1537
Mg4_3 Mg 0.87017(9) 0.95766(9) 0.9999(2)
O10_3 O 0.82586(18) 0.90176(17) 0.8923(4)
O11_3 O 0.7744(2) 0.82900(17) 0.8280(4)
O16_5 O 0.93941(19) 0.9670(2) 0.8847(5)
O17_3 O 0.8839(2) 0.9734(2) 0.7350(5)
C9_5 C 0.8203(3) 0.8499(3) 0.8712(7)
C10_5 C 0.8716(4) 0.8100(3) 0.8913(9)
H15_5 H 0.8831 0.8122 0.9694
H16_5 H 0.8607 0.7703 0.8731
H17_5 H 0.9039 0.8220 0.8444
C15_5 C 0.9314(3) 0.9751(4) 0.7799(8)
C16_5 C 0.9826(4) 0.9857(5) 0.7102(8)
H26_5 H 0.9909 0.9513 0.6659
Mg7_3 Mg 0.70766(9) 0.87983(9) 0.7499(2)
Mg13_2 Mg 0.79866(9) 0.97607(9) 0.7896(2)
H1_6 H 0.346(4) 0.040(4) 0.582(8)
H11_6 H 0.4751 0.0184 0.8391
Mg4_4 Mg 0.62983(9) 0.04234(9) 0.4999(2)
O10_4 O 0.67414(18) 0.09824(17) 0.3923(4)
O11_4 O 0.7256(2) 0.17100(17) 0.3280(4)
O12_6 O 0.70407(19) 0.03576(18) 0.5994(4)
O13_4 O 0.7779(2) 0.0500(2) 0.7093(5)
O14_6 O 0.5907(2) 0.1030(2) 0.5912(5)
O15_6 O 0.4992(2) 0.0751(2) 0.5869(5)
O16_6 O 0.56059(19) 0.0330(2) 0.3847(5)
O17_4 O 0.6161(2) 0.0266(2) 0.2350(5)
C9_6 C 0.6797(3) 0.1501(3) 0.3712(7)
C10_6 C 0.6284(4) 0.1900(3) 0.3913(9)
H15_6 H 0.6169 0.1878 0.4694
H16_6 H 0.6393 0.2297 0.3731
H17_6 H 0.5961 0.1780 0.3444
C11_6 C 0.7358(3) 0.0678(3) 0.6578(7)
C12_6 C 0.7266(5) 0.1303(4) 0.6589(11)
H18_6 H 0.7188 0.1437 0.5833
H19_6 H 0.6936 0.1394 0.7065
H20_6 H 0.7612 0.1495 0.6874
C13_6 C 0.5387(4) 0.1085(4) 0.6154(8)
C14_6 C 0.5223(5) 0.1607(5) 0.6805(12)
H21_6 H 0.5309 0.1542 0.7590
H22_6 H 0.5443 0.1940 0.6537
H23_6 H 0.4810 0.1681 0.6715
C15_6 C 0.5686(3) 0.0249(4) 0.2799(8)
C16_6 C 0.5174(4) 0.0143(5) 0.2102(8)
H25_6 H 0.4843 0.0055 0.2576
H26_6 H 0.5091 0.0487 0.1659
Mg7_4 Mg 0.79234(9) 0.12017(9) 0.2499(2)
O3_6 O 0.29593(19) 0.96424(18) 0.4006(4)
O5_6 O 0.4093(2) 0.8970(2) 0.4088(5)
O6_6 O 0.5008(2) 0.9249(2) 0.4131(5)
O7_6 O 0.43941(19) 0.9670(2) 0.6153(5)
C1_6 C 0.3203(3) 0.8499(3) 0.6288(7)
C2_6 C 0.3716(4) 0.8100(3) 0.6087(9)
H2_6 H 0.3831 0.8122 0.5306
H3_6 H 0.3607 0.7703 0.6269
H4_6 H 0.4039 0.8220 0.6556
C3_6 C 0.2642(3) 0.9322(3) 0.3422(7)
C4_6 C 0.2734(5) 0.8697(4) 0.3411(11)
H5_6 H 0.2812 0.8563 0.4167
H6_6 H 0.3064 0.8606 0.2935
H7_6 H 0.2388 0.8505 0.3126
C5_6 C 0.4613(4) 0.8915(4) 0.3846(8)
C6_6 C 0.4777(5) 0.8393(5) 0.3195(12)
H8_6 H 0.4691 0.8458 0.2410
H9_6 H 0.4557 0.8060 0.3463
H10_6 H 0.5190 0.8319 0.3285
C7_6 C 0.4314(3) 0.9751(4) 0.7201(8)
C8_6 C 0.4826(4) 0.9857(5) 0.7898(8)
H12_6 H 0.5157 0.9945 0.7424
H13_6 H 0.4909 0.9513 0.8341
Mg5_4 Mg 0.72607(9) 0.95134(9) 0.5396(2)
O18_4 O 0.6732(2) 0.9793(2) 0.4222(5)
H14_6 H 0.654(4) 0.960(4) 0.418(8)
H24_6 H 0.5249 0.9816 0.1609
O20_4 O 0.65176(17) 0.92414(18) 0.6423(4)
O22_4 O 0.57900(17) 0.9756(2) 0.5780(4)
O24_4 O 0.8000(2) 0.9721(2) 0.4593(5)
O26_4 O 0.7234(2) 0.8661(2) 0.4850(5)
O28_4 O 0.7707(2) 0.9232(2) 0.6722(5)
O3_7 O 0.71424(18) 0.45407(19) 0.1506(4)
O5_7 O 0.6470(2) 0.3407(2) 0.1588(5)
O6_7 O 0.6749(2) 0.2492(2) 0.1631(5)
O7_7 O 0.7170(2) 0.31059(19) 0.3653(5)
H1_7 H 0.790(4) 0.404(4) 0.332(8)
C1_7 C 0.5999(3) 0.4297(3) 0.3788(7)
C2_7 C 0.5600(3) 0.3784(4) 0.3587(9)
H2_7 H 0.5622 0.3669 0.2806
H3_7 H 0.5203 0.3893 0.3769
H4_7 H 0.5720 0.3461 0.4056
C3_7 C 0.6822(3) 0.4858(3) 0.0922(7)
C4_7 C 0.6197(4) 0.4766(5) 0.0911(11)
H5_7 H 0.6063 0.4688 0.1667
H6_7 H 0.6106 0.4436 0.0435
H7_7 H 0.6005 0.5112 0.0626
C5_7 C 0.6415(4) 0.2887(4) 0.1346(8)
C6_7 C 0.5893(5) 0.2723(5) 0.0695(12)
H9_7 H 0.5560 0.2943 0.0963
H10_7 H 0.5819 0.2310 0.0785
C7_7 C 0.7251(4) 0.3186(3) 0.4701(8)
C8_7 C 0.7357(5) 0.2674(4) 0.5398(8)
H11_7 H 0.7684 0.2749 0.5891
H12_7 H 0.7445 0.2343 0.4924
H13_7 H 0.7013 0.2591 0.5841
O12_7 O 0.78576(18) 0.04593(19) 0.3494(4)
O14_7 O 0.8530(2) 0.1593(2) 0.3412(5)
O15_7 O 0.8251(2) 0.2508(2) 0.3369(5)
O16_7 O 0.7830(2) 0.18941(19) 0.1347(5)
H14_7 H 0.710(4) 0.096(4) 0.168(8)
C9_7 C 0.9001(3) 0.0703(3) 0.1212(7)
C10_7 C 0.9400(3) 0.1216(4) 0.1413(9)
H15_7 H 0.9378 0.1331 0.2194
H16_7 H 0.9797 0.1107 0.1231
H17_7 H 0.9280 0.1539 0.0944
C11_7 C 0.8178(3) 0.0142(3) 0.4078(7)
C12_7 C 0.8803(4) 0.0234(5) 0.4089(11)
H18_7 H 0.8937 0.0312 0.3333
H19_7 H 0.8894 0.0564 0.4565
C13_7 C 0.8585(4) 0.2113(4) 0.3654(8)
C14_7 C 0.9107(5) 0.2277(5) 0.4305(12)
H21_7 H 0.9042 0.2191 0.5090
H22_7 H 0.9440 0.2057 0.4037
H23_7 H 0.9181 0.2690 0.4215
C15_7 C 0.7749(4) 0.1814(3) 0.0299(8)
H25_7 H 0.7555 0.2657 0.0076
H8_7 H 0.5958 0.2809 0.9910
C16_7 C 0.7643(5) 0.2326(4) 0.9602(8)
H24_7 H 0.7316 0.2251 0.9109
H26_7 H 0.7987 0.2409 0.9159
H20_7 H 0.8995 0.9888 0.4374
H20_8 H 0.6005 0.0112 0.9374
C8_8 C 0.7643(5) 0.7326(4) 0.0398(8)
H11_8 H 0.7316 0.7251 0.0891
H13_8 H 0.7987 0.7409 0.0841
H21_8 H 0.5958 0.7809 0.0090
O3_8 O 0.78576(18) 0.54593(19) 0.6506(4)
O5_8 O 0.8530(2) 0.6593(2) 0.6588(5)
O6_8 O 0.8251(2) 0.7508(2) 0.6631(5)
O7_8 O 0.7830(2) 0.68941(19) 0.8653(5)
H1_8 H 0.710(4) 0.596(4) 0.832(8)
C1_8 C 0.9001(3) 0.5703(3) 0.8788(7)
C2_8 C 0.9400(3) 0.6216(4) 0.8587(9)
H2_8 H 0.9378 0.6331 0.7806
H3_8 H 0.9797 0.6107 0.8769
H4_8 H 0.9280 0.6539 0.9056
C3_8 C 0.8178(3) 0.5142(3) 0.5922(7)
C4_8 C 0.8803(4) 0.5234(5) 0.5911(11)
H5_8 H 0.8937 0.5312 0.6667
H6_8 H 0.8894 0.5564 0.5435
H7_8 H 0.8995 0.4888 0.5626
C5_8 C 0.8585(4) 0.7113(4) 0.6346(8)
C6_8 C 0.9107(5) 0.7277(5) 0.5695(12)
H8_8 H 0.9042 0.7191 0.4910
H9_8 H 0.9440 0.7057 0.5963
H10_8 H 0.9181 0.7690 0.5785
C7_8 C 0.7749(4) 0.6814(3) 0.9701(8)
H12_8 H 0.7555 0.7657 0.9924
O12_8 O 0.71424(18) 0.95407(19) 0.8494(4)
O14_8 O 0.6470(2) 0.8407(2) 0.8412(5)
O15_8 O 0.6749(2) 0.7492(2) 0.8369(5)
O16_8 O 0.7170(2) 0.81059(19) 0.6347(5)
H14_8 H 0.790(4) 0.904(4) 0.668(8)
C9_8 C 0.5999(3) 0.9297(3) 0.6212(7)
C10_8 C 0.5600(3) 0.8784(4) 0.6413(9)
H15_8 H 0.5622 0.8669 0.7194
H16_8 H 0.5203 0.8893 0.6231
H17_8 H 0.5720 0.8461 0.5944
C11_8 C 0.6822(3) 0.9858(3) 0.9078(7)
C12_8 C 0.6197(4) 0.9766(5) 0.9089(11)
H18_8 H 0.6063 0.9688 0.8333
H19_8 H 0.6106 0.9436 0.9565
C13_8 C 0.6415(4) 0.7887(4) 0.8654(8)
C14_8 C 0.5893(5) 0.7723(5) 0.9305(12)
H22_8 H 0.5560 0.7943 0.9037
H23_8 H 0.5819 0.7310 0.9215
C15_8 C 0.7251(4) 0.8186(3) 0.5299(8)
C16_8 C 0.7357(5) 0.7674(4) 0.4602(8)
H24_8 H 0.7684 0.7749 0.4109
H25_8 H 0.7445 0.7343 0.5076
H26_8 H 0.7013 0.7591 0.4159
loop_
_geom_bond_atom_site_label_1
_geom_bond_atom_site_label_2
_geom_bond_site_symmetry_1
_geom_bond_site_symmetry_2
Mg1 O1 1_555 1_555
Mg2 O6 1_555 1_555
Mg3 O3 1_555 1_555
O1 C1 1_555 1_555
O2 C1 1_555 1_555
O3 Mg1 1_555 1_555
O4 C3 1_555 1_555
O5 Mg1 1_555 1_555
O6 C5 1_555 1_555
O7 Mg1 1_555 1_555
O8 C7 1_555 1_555
O9 Mg1 1_555 1_555
H1 O9 1_555 1_555
C1 C2 1_555 1_555
C2 H2 1_555 1_555
H3 C2 1_555 1_555
H4 C2 1_555 1_555
C3 O3 1_555 1_555
C4 C3 1_555 1_555
H5 C4 1_555 1_555
H6 C4 1_555 1_555
H7 C4 1_555 1_555
C5 O5 1_555 1_555
C6 C5 1_555 1_555
H8 C6 1_555 1_555
H9 C6 1_555 1_555
H10 C6 1_555 1_555
C7 O7 1_555 1_555
C8 C7 1_555 1_555
H11 C8 1_555 1_555
H12 C8 1_555 1_555
H13 C8 1_555 1_555
Mg4 O10 1_555 1_555
Mg5 O12 1_555 1_555
O10 C9 1_555 1_555
O11 C9 1_555 1_555
O12 Mg4 1_555 1_555
O13 C11 1_555 1_555
O14 Mg4 1_555 1_555
O15 Mg2 1_555 1_555
O16 Mg2 1_555 1_555
O17 C15 1_555 1_555
O18 Mg4 1_555 1_555
H14 O18 1_555 1_555
C9 C10 1_555 1_555
C10 H15 1_555 1_555
H16 C10 1_555 1_555
H17 C10 1_555 1_555
C11 O12 1_555 1_555
C12 C11 1_555 1_555
H18 C12 1_555 1_555
H19 C12 1_555 1_555
H20 C12 1_555 1_555
C13 O14 1_555 1_555
C14 C13 1_555 1_555
H21 C14 1_555 1_555
H22 C14 1_555 1_555
H23 C14 1_555 1_555
C15 O16 1_555 1_555
C16 C15 1_555 1_555
H24 C16 1_555 1_555
H25 C16 1_555 1_555
H26 C16 1_555 1_555
Mg6 O2 1_555 1_555
Mg7 O11 1_555 1_555
Mg8 O11 1_555 1_555
Mg9 O2 1_555 1_555
Mg10 O4 1_555 1_555
Mg11 O1 1_555 1_555
Mg12 O13 1_555 1_555
Mg13 O10 1_555 1_555
O19 Mg3 1_555 1_555
O20 Mg5 1_555 1_555
O21 Mg1 1_555 1_555
O22 Mg2 1_555 1_555
O23 Mg3 1_555 1_555
O24 Mg5 1_555 1_555
O25 Mg3 1_555 1_555
O26 Mg5 1_555 1_555
O27 Mg3 1_555 1_555
O28 Mg5 1_555 1_555
Mg2 O7 1_555 1_555
Mg2 O21 1_555 1_555
Mg3 O9 1_555 1_555
O8 Mg11 1_555 1_555
O9 Mg11 1_555 1_555
Mg4 O16 1_555 1_555
Mg4 O22 1_555 1_555
Mg5 O18 1_555 1_555
O15 C13 1_555 1_555
O17 Mg13 1_555 1_555
O18 Mg13 1_555 1_555
Mg10 O27 1_555 1_555
Mg12 O28 1_555 1_555
Mg5_2 O12_2 1_555 1_555
O13_2 C11_2 1_555 1_555
C11_2 O12_2 1_555 1_555
C12_2 C11_2 1_555 1_555
H18_2 C12_2 1_555 1_555
H19_2 C12_2 1_555 1_555
H20_2 C12_2 1_555 1_555
C13_2 O14_2 1_555 1_555
C14_2 C13_2 1_555 1_555
H21_2 C14_2 1_555 1_555
H22_2 C14_2 1_555 1_555
Mg13 O13_2 1_555 1_555
O20_2 Mg5_2 1_555 1_555
O22_2 Mg2_2 1_555 1_555
O28_2 Mg5_2 1_555 1_555
Mg13 O28_2 1_555 1_555
Mg2_3 O6_2 1_555 1_555
Mg4_2 O10_2 1_555 1_555
O10_2 C9_2 1_555 1_555
O11_2 C9_2 1_555 1_555
O16_2 Mg2_3 1_555 1_555
O17_2 C15_2 1_555 1_555
O18_2 Mg4_2 1_555 1_555
H14_2 O18_2 1_555 1_555
C9_2 C10_2 1_555 1_555
C10_2 H15_2 1_555 1_555
H16_2 C10_2 1_555 1_555
H17_2 C10_2 1_555 1_555
C15_2 O16_2 1_555 1_555
C16_2 C15_2 1_555 1_555
H24_2 C16_2 1_555 1_555
H26_2 C16_2 1_555 1_555
Mg7_2 O11_2 1_555 1_555
Mg8_2 O11_2 1_555 1_555
Mg12 O10_2 1_555 1_555
Mg4_2 O16_2 1_555 1_555
O17_2 Mg12 1_555 1_555
O18_2 Mg12 1_555 1_555
Mg1_2 O1_2 1_555 1_555
O1_2 C1_2 1_555 1_555
O2_2 C1_2 1_555 1_555
O7_2 Mg1_2 1_555 1_555
O8_2 C7_2 1_555 1_555
O9_2 Mg1_2 1_555 1_555
H1_2 O9_2 1_555 1_555
C1_2 C2_2 1_555 1_555
C2_2 H2_2 1_555 1_555
H3_2 C2_2 1_555 1_555
H4_2 C2_2 1_555 1_555
C7_2 O7_2 1_555 1_555
C8_2 C7_2 1_555 1_555
H11_2 C8_2 1_555 1_555
H13_2 C8_2 1_555 1_555
O15_2 Mg2_4 1_555 1_555
Mg6_2 O2_2 1_555 1_555
Mg9_2 O2_2 1_555 1_555
Mg10 O1_2 1_555 1_555
Mg2_4 O7_2 1_555 1_555
O8_2 Mg10 1_555 1_555
O9_2 Mg10 1_555 1_555
Mg3_2 O3_2 1_555 1_555
O4_2 C3_2 1_555 1_555
C3_2 O3_2 1_555 1_555
C4_2 C3_2 1_555 1_555
H5_2 C4_2 1_555 1_555
H6_2 C4_2 1_555 1_555
H7_2 C4_2 1_555 1_555
C5_2 O5_2 1_555 1_555
C6_2 C5_2 1_555 1_555
H8_2 C6_2 1_555 1_555
H9_2 C6_2 1_555 1_555
Mg11 O4_2 1_555 1_555
O19_2 Mg3_2 1_555 1_555
O27_2 Mg3_2 1_555 1_555
Mg2_5 O21_2 1_555 1_555
Mg11 O27_2 1_555 1_555
Mg10_2 O4_3 1_555 1_555
Mg10_2 O27_3 1_555 1_555
H11_3 C8_3 1_555 1_555
H13_3 C8_3 1_555 1_555
Mg1_3 O1_3 1_555 1_555
Mg8_2 O6_3 1_555 1_555
Mg3_3 O3_3 1_555 1_555
O1_3 C1_3 1_555 1_555
O2_3 C1_3 1_555 1_555
O3_3 Mg1_3 1_555 1_555
O5_3 Mg1_3 1_555 1_555
O6_3 C5_3 1_555 1_555
O7_3 Mg1_3 1_555 1_555
O9_3 Mg1_3 1_555 1_555
H1_3 O9_3 1_555 1_555
C1_3 C2_3 1_555 1_555
C2_3 H2_3 1_555 1_555
H3_3 C2_3 1_555 1_555
H4_3 C2_3 1_555 1_555
C3_3 O3_3 1_555 1_555
C4_3 C3_3 1_555 1_555
H5_3 C4_3 1_555 1_555
H6_3 C4_3 1_555 1_555
C5_3 O5_3 1_555 1_555
C6_3 C5_3 1_555 1_555
H8_3 C6_3 1_555 1_555
H9_3 C6_3 1_555 1_555
H10_3 C6_3 1_555 1_555
C7_3 O7_3 1_555 1_555
Mg7_2 O20 1_555 1_555
Mg12 O12_3 1_555 1_555
O20 C9_3 1_555 1_555
O22 C9_3 1_555 1_555
O12_3 Mg7_2 1_555 1_555
O24_2 C11_3 1_555 1_555
O14_3 Mg7_2 1_555 1_555
O15_3 Mg8_2 1_555 1_555
O16_3 Mg8_2 1_555 1_555
O26 C15_3 1_555 1_555
O28 Mg7_2 1_555 1_555
H14_3 O28 1_555 1_555
C9_3 C10_3 1_555 1_555
C10_3 H15_3 1_555 1_555
H16_3 C10_3 1_555 1_555
H17_3 C10_3 1_555 1_555
C11_3 O12_3 1_555 1_555
C12_3 C11_3 1_555 1_555
H18_3 C12_3 1_555 1_555
H19_3 C12_3 1_555 1_555
H20_3 C12_3 1_555 1_555
C13_3 O14_3 1_555 1_555
C14_3 C13_3 1_555 1_555
H22_3 C14_3 1_555 1_555
H23_3 C14_3 1_555 1_555
C15_3 O16_3 1_555 1_555
C16_3 C15_3 1_555 1_555
H24_3 C16_3 1_555 1_555
H25_3 C16_3 1_555 1_555
H26_3 C16_3 1_555 1_555
Mg9_6 O2_3 1_555 1_555
Mg11_2 O1_3 1_555 1_555
O19_3 Mg3_3 1_555 1_555
O21_3 Mg1_3 1_555 1_555
O25_3 Mg3_3 1_555 1_555
Mg8_2 O7_3 1_555 1_555
Mg8_2 O21_3 1_555 1_555
Mg3_3 O9_3 1_555 1_555
O9_3 Mg11_2 1_555 1_555
Mg7_2 O16_3 1_555 1_555
O15_3 C13_3 1_555 1_555
Mg1_4 O1_4 1_555 1_555
Mg8 O6_4 1_555 1_555
Mg3_4 O3_4 1_555 1_555
O1_4 C1_4 1_555 1_555
O2_4 C1_4 1_555 1_555
O3_4 Mg1_4 1_555 1_555
O5_4 Mg1_4 1_555 1_555
O6_4 C5_4 1_555 1_555
O7_4 Mg1_4 1_555 1_555
O8_4 C7_4 1_555 1_555
O9_4 Mg1_4 1_555 1_555
H1_4 O9_4 1_555 1_555
C1_4 C2_4 1_555 1_555
C2_4 H2_4 1_555 1_555
H3_4 C2_4 1_555 1_555
H4_4 C2_4 1_555 1_555
C3_4 O3_4 1_555 1_555
C4_4 C3_4 1_555 1_555
H5_4 C4_4 1_555 1_555
H6_4 C4_4 1_555 1_555
C5_4 O5_4 1_555 1_555
C6_4 C5_4 1_555 1_555
H9_4 C6_4 1_555 1_555
H10_4 C6_4 1_555 1_555
C7_4 O7_4 1_555 1_555
C8_4 C7_4 1_555 1_555
H11_4 C8_4 1_555 1_555
H12_4 C8_4 1_555 1_555
H13_4 C8_4 1_555 1_555
Mg7 O20_2 1_555 1_555
Mg13 O12_4 1_555 1_555
O20_2 C9_4 1_555 1_555
O22_2 C9_4 1_555 1_555
O12_4 Mg7 1_555 1_555
O24 C11_4 1_555 1_555
O14_4 Mg7 1_555 1_555
O15_4 Mg8 1_555 1_555
O16_4 Mg8 1_555 1_555
O28_2 Mg7 1_555 1_555
H14_4 O28_2 1_555 1_555
C9_4 C10_4 1_555 1_555
C10_4 H15_4 1_555 1_555
H16_4 C10_4 1_555 1_555
H17_4 C10_4 1_555 1_555
C11_4 O12_4 1_555 1_555
C12_4 C11_4 1_555 1_555
H18_4 C12_4 1_555 1_555
H19_4 C12_4 1_555 1_555
H20_4 C12_4 1_555 1_555
C13_4 O14_4 1_555 1_555
C14_4 C13_4 1_555 1_555
H21_4 C14_4 1_555 1_555
H22_4 C14_4 1_555 1_555
H23_4 C14_4 1_555 1_555
C15_4 O16_4 1_555 1_555
Mg9_11 O2_4 1_555 1_555
Mg10_2 O1_4 1_555 1_555
O19_4 Mg3_4 1_555 1_555
O21_4 Mg1_4 1_555 1_555
O25_4 Mg3_4 1_555 1_555
Mg8 O7_4 1_555 1_555
Mg8 O21_4 1_555 1_555
Mg3_4 O9_4 1_555 1_555
O8_4 Mg10_2 1_555 1_555
O9_4 Mg10_2 1_555 1_555
Mg7 O16_4 1_555 1_555
O15_4 C13_4 1_555 1_555
H24_4 C16_4 1_555 1_555
H26_4 C16_4 1_555 1_555
Mg6_3 O19_4 1_555 1_555
O19_4 C1_5 1_555 1_555
O21_4 C1_5 1_555 1_555
O7_5 Mg6_3 1_555 1_555
O25_4 C7_5 1_555 1_555
C1_5 C2_5 1_555 1_555
C2_5 H2_5 1_555 1_555
H3_5 C2_5 1_555 1_555
H4_5 C2_5 1_555 1_555
C7_5 O7_5 1_555 1_555
C8_5 C7_5 1_555 1_555
H13_5 C8_5 1_555 1_555
Mg9_3 O7_5 1_555 1_555
O23_3 C3_5 1_555 1_555
C3_5 O3_5 1_555 1_555
C4_5 C3_5 1_555 1_555
H5_5 C4_5 1_555 1_555
H6_5 C4_5 1_555 1_555
H7_5 C4_5 1_555 1_555
C5_5 O5_5 1_555 1_555
C6_5 C5_5 1_555 1_555
H8_5 C6_5 1_555 1_555
H9_5 C6_5 1_555 1_555
H1_5 O27_4 1_555 1_555
O15_5 Mg9_5 1_555 1_555
O20_3 Mg5_3 1_555 1_555
O22_3 Mg9_7 1_555 1_555
O28_3 Mg5_3 1_555 1_555
Mg12_2 O28_3 1_555 1_555
Mg9_8 O6_5 1_555 1_555
H14_5 O18_3 1_555 1_555
O13_3 C11_5 1_555 1_555
C11_5 O12_5 1_555 1_555
C12_5 C11_5 1_555 1_555
H18_5 C12_5 1_555 1_555
H19_5 C12_5 1_555 1_555
H20_5 C12_5 1_555 1_555
C13_5 O14_5 1_555 1_555
C14_5 C13_5 1_555 1_555
H21_5 C14_5 1_555 1_555
H22_5 C14_5 1_555 1_555
Mg4_3 O10_3 1_555 1_555
O10_3 C9_5 1_555 1_555
O11_3 C9_5 1_555 1_555
O16_5 Mg9_10 1_555 1_555
O17_3 C15_5 1_555 1_555
C9_5 C10_5 1_555 1_555
C10_5 H15_5 1_555 1_555
H16_5 C10_5 1_555 1_555
H17_5 C10_5 1_555 1_555
C15_5 O16_5 1_555 1_555
C16_5 C15_5 1_555 1_555
H26_5 C16_5 1_555 1_555
Mg7_3 O11_3 1_555 1_555
Mg9 O11_3 1_555 1_555
Mg13_2 O10_3 1_555 1_555
Mg4_3 O16_5 1_555 1_555
O17_3 Mg13_2 1_555 1_555
H1_6 O27_3 1_555 1_555
Mg4_4 O10_4 1_555 1_555
O10_4 C9_6 1_555 1_555
O11_4 C9_6 1_555 1_555
O12_6 Mg4_4 1_555 1_555
O13_4 C11_6 1_555 1_555
O14_6 Mg4_4 1_555 1_555
O15_6 Mg9_11 1_555 1_555
O16_6 Mg9_11 1_555 1_555
O17_4 C15_6 1_555 1_555
C9_6 C10_6 1_555 1_555
C10_6 H15_6 1_555 1_555
H16_6 C10_6 1_555 1_555
H17_6 C10_6 1_555 1_555
C11_6 O12_6 1_555 1_555
C12_6 C11_6 1_555 1_555
H18_6 C12_6 1_555 1_555
H19_6 C12_6 1_555 1_555
H20_6 C12_6 1_555 1_555
C13_6 O14_6 1_555 1_555
C14_6 C13_6 1_555 1_555
H21_6 C14_6 1_555 1_555
H22_6 C14_6 1_555 1_555
H23_6 C14_6 1_555 1_555
C15_6 O16_6 1_555 1_555
C16_6 C15_6 1_555 1_555
H25_6 C16_6 1_555 1_555
H26_6 C16_6 1_555 1_555
Mg7_4 O11_4 1_555 1_555
Mg9_2 O11_4 1_555 1_555
Mg12_2 O10_4 1_555 1_555
Mg4_4 O16_6 1_555 1_555
O15_6 C13_6 1_555 1_555
O17_4 Mg12_2 1_555 1_555
Mg6_4 O19_3 1_555 1_555
Mg9_12 O6_6 1_555 1_555
O19_3 C1_6 1_555 1_555
O21_3 C1_6 1_555 1_555
O3_6 Mg6_4 1_555 1_555
O23_4 C3_6 1_555 1_555
O5_6 Mg6_4 1_555 1_555
O6_6 C5_6 1_555 1_555
O7_6 Mg6_4 1_555 1_555
O25_3 C7_6 1_555 1_555
C1_6 C2_6 1_555 1_555
C2_6 H2_6 1_555 1_555
H3_6 C2_6 1_555 1_555
H4_6 C2_6 1_555 1_555
C3_6 O3_6 1_555 1_555
C4_6 C3_6 1_555 1_555
H5_6 C4_6 1_555 1_555
H6_6 C4_6 1_555 1_555
H7_6 C4_6 1_555 1_555
C5_6 O5_6 1_555 1_555
C6_6 C5_6 1_555 1_555
H8_6 C6_6 1_555 1_555
H9_6 C6_6 1_555 1_555
H10_6 C6_6 1_555 1_555
C7_6 O7_6 1_555 1_555
C8_6 C7_6 1_555 1_555
H12_6 C8_6 1_555 1_555
H13_6 C8_6 1_555 1_555
H14_6 O18_4 1_555 1_555
O20_4 Mg5_4 1_555 1_555
O22_4 Mg9_12 1_555 1_555
O24_4 Mg5_4 1_555 1_555
O26_4 Mg5_4 1_555 1_555
O28_4 Mg5_4 1_555 1_555
Mg9_12 O7_6 1_555 1_555
Mg5_4 O18_4 1_555 1_555
Mg13_2 O28_4 1_555 1_555
Mg6_2 O19 1_555 1_555
Mg9_2 O6_7 1_555 1_555
Mg10 O3_7 1_555 1_555
O19 C1_7 1_555 1_555
O21 C1_7 1_555 1_555
O3_7 Mg6_2 1_555 1_555
O23_2 C3_7 1_555 1_555
O5_7 Mg6_2 1_555 1_555
O6_7 C5_7 1_555 1_555
O7_7 Mg6_2 1_555 1_555
O25 C7_7 1_555 1_555
O27 Mg6_2 1_555 1_555
H1_7 O27 1_555 1_555
C1_7 C2_7 1_555 1_555
C2_7 H2_7 1_555 1_555
H3_7 C2_7 1_555 1_555
H4_7 C2_7 1_555 1_555
C3_7 O3_7 1_555 1_555
C4_7 C3_7 1_555 1_555
H5_7 C4_7 1_555 1_555
H6_7 C4_7 1_555 1_555
H7_7 C4_7 1_555 1_555
C5_7 O5_7 1_555 1_555
C6_7 C5_7 1_555 1_555
H9_7 C6_7 1_555 1_555
H10_7 C6_7 1_555 1_555
C7_7 O7_7 1_555 1_555
C8_7 C7_7 1_555 1_555
H11_7 C8_7 1_555 1_555
H12_7 C8_7 1_555 1_555
H13_7 C8_7 1_555 1_555
Mg7_4 O20_3 1_555 1_555
Mg12_2 O12_7 1_555 1_555
O20_3 C9_7 1_555 1_555
O22_3 C9_7 1_555 1_555
O12_7 Mg7_4 1_555 1_555
O14_7 Mg7_4 1_555 1_555
O15_7 Mg9_2 1_555 1_555
O16_7 Mg9_2 1_555 1_555
O28_3 Mg7_4 1_555 1_555
H14_7 O28_3 1_555 1_555
C9_7 C10_7 1_555 1_555
C10_7 H15_7 1_555 1_555
H16_7 C10_7 1_555 1_555
H17_7 C10_7 1_555 1_555
C11_7 O12_7 1_555 1_555
C12_7 C11_7 1_555 1_555
H18_7 C12_7 1_555 1_555
H19_7 C12_7 1_555 1_555
C13_7 O14_7 1_555 1_555
C14_7 C13_7 1_555 1_555
H21_7 C14_7 1_555 1_555
H22_7 C14_7 1_555 1_555
H23_7 C14_7 1_555 1_555
C15_7 O16_7 1_555 1_555
Mg9_2 O7_7 1_555 1_555
Mg7_4 O16_7 1_555 1_555
O15_7 C13_7 1_555 1_555
H24_7 C16_7 1_555 1_555
H26_7 C16_7 1_555 1_555
H11_8 C8_8 1_555 1_555
H13_8 C8_8 1_555 1_555
Mg6 O19_2 1_555 1_555
Mg9 O6_8 1_555 1_555
Mg11 O3_8 1_555 1_555
O19_2 C1_8 1_555 1_555
O21_2 C1_8 1_555 1_555
O3_8 Mg6 1_555 1_555
O23 C3_8 1_555 1_555
O5_8 Mg6 1_555 1_555
O6_8 C5_8 1_555 1_555
O7_8 Mg6 1_555 1_555
O27_2 Mg6 1_555 1_555
H1_8 O27_2 1_555 1_555
C1_8 C2_8 1_555 1_555
C2_8 H2_8 1_555 1_555
H3_8 C2_8 1_555 1_555
H4_8 C2_8 1_555 1_555
C3_8 O3_8 1_555 1_555
C4_8 C3_8 1_555 1_555
H5_8 C4_8 1_555 1_555
H6_8 C4_8 1_555 1_555
H7_8 C4_8 1_555 1_555
C5_8 O5_8 1_555 1_555
C6_8 C5_8 1_555 1_555
H8_8 C6_8 1_555 1_555
H9_8 C6_8 1_555 1_555
H10_8 C6_8 1_555 1_555
C7_8 O7_8 1_555 1_555
Mg7_3 O20_4 1_555 1_555
Mg13_2 O12_8 1_555 1_555
O20_4 C9_8 1_555 1_555
O22_4 C9_8 1_555 1_555
O12_8 Mg7_3 1_555 1_555
O14_8 Mg7_3 1_555 1_555
O15_8 Mg9 1_555 1_555
O16_8 Mg9 1_555 1_555
O26_4 C15_8 1_555 1_555
O28_4 Mg7_3 1_555 1_555
H14_8 O28_4 1_555 1_555
C9_8 C10_8 1_555 1_555
C10_8 H15_8 1_555 1_555
H16_8 C10_8 1_555 1_555
H17_8 C10_8 1_555 1_555
C11_8 O12_8 1_555 1_555
C12_8 C11_8 1_555 1_555
H18_8 C12_8 1_555 1_555
H19_8 C12_8 1_555 1_555
C13_8 O14_8 1_555 1_555
C14_8 C13_8 1_555 1_555
H22_8 C14_8 1_555 1_555
H23_8 C14_8 1_555 1_555
C15_8 O16_8 1_555 1_555
C16_8 C15_8 1_555 1_555
H24_8 C16_8 1_555 1_555
H25_8 C16_8 1_555 1_555
H26_8 C16_8 1_555 1_555
Mg9 O7_8 1_555 1_555
Mg7_3 O16_8 1_555 1_555
O15_8 C13_8 1_555 1_555

#END
