
###############################################################################
#
# This file contains modified crystal structure data generated from the
# MOF subset of the Cambridge Structural Database (CSD) v543 
# hosted by the Cambridge Crystallographic Data Centre (CCDC).
#
# This work is licensed under the Creative Commons
# Attribution-NonCommercial-ShareAlike 4.0 International License.
# To view a copy of this license, visit
# http://creativecommons.org/licenses/by-nc-sa/4.0/
# or send a letter to
# Creative Commons, PO Box 1866, Mountain View, CA 94042, USA.
#
# CIF created using the CSD Python API on 29 September 2022
# The structure has been converted into the P1 space group
# The structure has a 3D framework
# The original CSD entry IHUTIQ is in the monoclinic crystal system
# The framework has been calculated to contain at least 10.0% void space
# The void calculation uses a probe of radius 1.32A, grid spacing 0.4
#
###############################################################################

data_IHUTIQ
_chemical_formula_moiety         '(C160 H160 Co8 N32 O32)n'
_symmetry_cell_setting           triclinic
_symmetry_space_group_name_H-M   'P 1'
_symmetry_Int_Tables_number      1
_space_group_name_Hall           'P 1'
loop_
_symmetry_equiv_pos_site_id
_symmetry_equiv_pos_as_xyz
1 x,y,z
_cell_length_a                   14.349(11)
_cell_length_b                   12.088(9)
_cell_length_c                   26.62(2)
_cell_angle_alpha                90
_cell_angle_beta                 97.255(11)
_cell_angle_gamma                90
_cell_volume                     4580.29
loop_
_atom_site_label
_atom_site_type_symbol
_atom_site_fract_x
_atom_site_fract_y
_atom_site_fract_z
Co1 Co 0.15946(5) 0.21171(7) 0.30730(3)
Co2 Co 0.64194(5) 0.83762(7) 0.78506(3)
C1 C 0.0858(4) 0.0286(5) 0.2308(2)
C5 C 0.0262(5) 0.2009(6) 0.2086(2)
H4 H 0.0178 0.2746 0.2171
C13 C 0.2462(4) 0.4006(6) 0.3768(2)
H11 H 0.2199 0.4448 0.3501
C14 C 0.2914(4) 0.4515(6) 0.4189(2)
H12 H 0.2937 0.5283 0.4208
C15 C 0.3336(4) 0.3883(6) 0.4584(2)
C16 C 0.3262(5) 0.2721(6) 0.4538(3)
H13 H 0.3532 0.2264 0.4798
C17 C 0.2785(5) 0.2274(6) 0.4105(2)
H14 H 0.2743 0.1508 0.4076
C18 C 0.3831(4) 0.4368(7) 0.5053(2)
H15 H 0.4124 0.3896 0.5300
C19 C 0.4281(5) 0.6595(7) 0.5744(2)
H16 H 0.3942 0.7092 0.5525
C20 C 0.4709(4) 0.6979(6) 0.6252(2)
C21 C 0.5232(4) 0.6247(6) 0.6575(2)
H17 H 0.5290 0.5510 0.6484
C22 C 0.5666(5) 0.6634(6) 0.7035(3)
H18 H 0.6038 0.6148 0.7244
C23 C 0.5028(5) 0.8348(6) 0.6893(3)
H19 H 0.4935 0.9065 0.7003
C24 C 0.4589(5) 0.8034(6) 0.6422(3)
H20 H 0.4215 0.8535 0.6222
C25 C 0.3023(4) 0.0166(5) 0.2958(2)
C33 C 0.2101(4) 0.3568(5) 0.2271(2)
C34 C 0.1952(4) 0.4586(5) 0.1926(2)
H31 H 0.2540 0.4728 0.1785
C35 C 0.1172(6) 0.4344(6) 0.1474(2)
H32 H 0.1333 0.3680 0.1299
H33 H 0.0579 0.4214 0.1604
C36 C 0.1066(6) 0.5308(7) 0.1105(3)
H34 H 0.0551 0.5153 0.0842
H35 H 0.1635 0.5368 0.0944
C37 C 0.0883(4) 0.6419(6) 0.1352(3)
H36 H 0.0979 0.7001 0.1108
C38 C 0.1608(5) 0.6606(6) 0.1823(3)
H37 H 0.2219 0.6745 0.1715
H38 H 0.1432 0.7258 0.2001
C39 C 0.1684(5) 0.5631(5) 0.2181(3)
H39 H 0.2151 0.5790 0.2468
H40 H 0.1085 0.5521 0.2308
N1 N 0.0798(3) 0.1354(4) 0.24202(18)
N5 N 0.2376(3) 0.2900(4) 0.37183(19)
N6 N 0.3869(4) 0.5389(5) 0.51308(19)
N7 N 0.4366(4) 0.5614(5) 0.5605(2)
N8 N 0.5574(4) 0.7677(4) 0.71934(19)
O1 O 0.2585(3) 0.0932(4) 0.31421(17)
O2 O 0.3409(3) 0.0230(4) 0.25662(16)
O5 O 0.2586(3) 0.2789(4) 0.21225(19)
O6 O 0.1699(3) 0.3538(4) 0.26677(16)
Co5 Co 0.35806(5) 0.16238(7) 0.21494(3)
N9 N 0.7238(3) 0.9177(4) 0.84792(17)
O9 O 0.6591(3) 0.9770(4) 0.74338(16)
O10 O 0.5746(3) 0.7324(5) 0.8454(2)
O11 O 0.5145(3) 0.8813(4) 0.81018(18)
O12 O 0.7414(3) 0.7211(4) 0.78775(19)
O13 O 0.0318(4) 0.2453(5) 0.3324(2)
H1 H 0.1193 0.9827 0.2546
C2 C 0.0456(4) 0.9818(6) 0.1861(2)
H2 H 0.0520 0.9067 0.1798
C26 C 0.3139(4) 0.9093(5) 0.3265(2)
H21 H 0.2585 0.9011 0.3442
C27 C 0.4012(5) 0.9191(6) 0.3670(2)
H22 H 0.4564 0.9333 0.3504
H23 H 0.3929 0.9812 0.3891
C28 C 0.4164(6) 0.8139(6) 0.3986(3)
H24 H 0.4748 0.8207 0.4212
H25 H 0.3658 0.8066 0.4193
C29 C 0.4204(5) 0.7098(6) 0.3668(3)
H26 H 0.4196 0.6462 0.3896
C30 C 0.3318(5) 0.7030(6) 0.3279(3)
H27 H 0.2770 0.6946 0.3455
H28 H 0.3358 0.6386 0.3066
C31 C 0.3213(5) 0.8074(5) 0.2950(2)
H29 H 0.3751 0.8141 0.2765
H30 H 0.2654 0.8009 0.2705
C32 C 0.5097(5) 0.6986(6) 0.3386(3)
O3 O 0.5746(3) 0.7676(5) 0.3454(2)
O4 O 0.5145(3) 0.6187(4) 0.31018(18)
Co6 Co 0.64194(5) 0.66238(7) 0.28506(3)
C3 C 0.9953(4) 0.0506(6) 0.1506(2)
C4 C 0.9838(5) 0.1630(6) 0.1630(2)
H3 H 0.9483 0.2101 0.1406
C6 C 0.9570(4) 0.0059(7) 0.1000(2)
C40 C 0.9896(4) 0.6525(6) 0.1475(2)
N2 N 0.9267(4) 0.0688(5) 0.06362(19)
N3 N 0.8929(4) 0.0037(5) 0.02061(19)
O7 O 0.9682(4) 0.7453(5) 0.1676(2)
O8 O 0.9300(4) 0.5788(5) 0.1419(2)
Co3 Co 0.84054(5) 0.71171(7) 0.19270(3)
C9 C 0.8103(4) 0.8998(6) 0.9300(2)
H7 H 0.8374 0.8533 0.9556
C10 C 0.7648(5) 0.8547(6) 0.8863(2)
H8 H 0.7621 0.7781 0.8831
C40_2 C 0.0104(4) 0.1525(6) 0.3525(2)
O8_2 O 0.0700(4) 0.0788(5) 0.3581(2)
C3_2 C 0.0047(4) 0.5506(6) 0.3494(2)
C4_2 C 0.0162(5) 0.6630(6) 0.3370(2)
H3_2 H 0.0517 0.7101 0.3594
C6_2 C 0.0430(4) 0.5059(7) 0.4000(2)
H5 H 0.0445 0.4297 0.4049
C7 C 0.1420(5) 0.5655(7) 0.5170(3)
H6 H 0.1404 0.6422 0.5143
C8 C 0.1836(4) 0.5122(6) 0.5635(2)
C9_2 C 0.1897(4) 0.3998(6) 0.5700(2)
H7_2 H 0.1626 0.3533 0.5444
C10_2 C 0.2352(5) 0.3547(6) 0.6137(2)
H8_2 H 0.2379 0.2781 0.6169
C11 C 0.2685(4) 0.5267(5) 0.6475(2)
H9 H 0.2940 0.5710 0.6743
C12 C 0.2236(4) 0.5771(6) 0.6041(2)
H10 H 0.2201 0.6538 0.6021
N2_2 N 0.0733(4) 0.5688(5) 0.43638(19)
N3_2 N 0.1071(4) 0.5037(5) 0.47939(19)
N4 N 0.2762(3) 0.4177(4) 0.65208(17)
Co4 Co 0.35806(5) 0.33762(7) 0.71494(3)
C19_2 C 0.5719(5) 0.1595(7) 0.9256(2)
H16_2 H 0.6058 0.2092 0.9475
C20_2 C 0.5291(4) 0.1979(6) 0.8748(2)
C21_2 C 0.4768(4) 0.1247(6) 0.8425(2)
H17_2 H 0.4710 0.0510 0.8516
C22_2 C 0.4334(5) 0.1634(6) 0.7965(3)
H18_2 H 0.3962 0.1148 0.7756
C23_2 C 0.4972(5) 0.3348(6) 0.8107(3)
H19_2 H 0.5065 0.4065 0.7997
C24_2 C 0.5411(5) 0.3034(6) 0.8578(3)
H20_2 H 0.5785 0.3535 0.8778
N6_2 N 0.6131(4) 0.0389(5) 0.98692(19)
N7_2 N 0.5634(4) 0.0614(5) 0.9395(2)
N8_2 N 0.4426(4) 0.2677(4) 0.78066(19)
O9_2 O 0.3409(3) 0.4770(4) 0.75662(16)
O10_2 O 0.4254(3) 0.2324(5) 0.6546(2)
O11_2 O 0.4855(3) 0.3813(4) 0.68982(18)
O12_2 O 0.2586(3) 0.2211(4) 0.71225(19)
C1_2 C 0.9142(4) 0.5286(5) 0.2692(2)
H1_2 H 0.8807 0.4827 0.2454
C2_2 C 0.9544(4) 0.4818(6) 0.3139(2)
H2_2 H 0.9480 0.4067 0.3202
C5_2 C 0.9738(5) 0.7009(6) 0.2914(2)
H4_2 H 0.9822 0.7746 0.2829
C13_2 C 0.7538(4) 0.9006(6) 0.1232(2)
H11_2 H 0.7801 0.9448 0.1499
C14_2 C 0.7086(4) 0.9515(6) 0.0811(2)
C15_2 C 0.6664(4) 0.8883(6) 0.0416(2)
C16_2 C 0.6738(5) 0.7721(6) 0.0462(3)
H13_2 H 0.6468 0.7264 0.0202
C17_2 C 0.7215(5) 0.7274(6) 0.0895(2)
H14_2 H 0.7257 0.6508 0.0924
C25_2 C 0.6977(4) 0.5166(5) 0.2042(2)
C26_2 C 0.6861(4) 0.4093(5) 0.1735(2)
H21_2 H 0.7415 0.4011 0.1558
C27_2 C 0.5988(5) 0.4191(6) 0.1330(2)
H22_2 H 0.5436 0.4333 0.1496
H23_2 H 0.6071 0.4812 0.1109
C28_2 C 0.5836(6) 0.3139(6) 0.1014(3)
H24_2 H 0.5252 0.3207 0.0788
H25_2 H 0.6342 0.3066 0.0807
C29_2 C 0.5796(5) 0.2098(6) 0.1332(3)
H26_2 H 0.5804 0.1462 0.1104
C30_2 C 0.6682(5) 0.2030(6) 0.1721(3)
H27_2 H 0.7230 0.1946 0.1545
H28_2 H 0.6642 0.1386 0.1934
C31_2 C 0.6787(5) 0.3074(5) 0.2050(2)
H29_2 H 0.6249 0.3141 0.2235
H30_2 H 0.7346 0.3009 0.2295
C32_2 C 0.4903(5) 0.1986(6) 0.1614(3)
C33_2 C 0.7899(4) 0.8568(5) 0.2729(2)
C34_2 C 0.8048(4) 0.9586(5) 0.3074(2)
H31_2 H 0.7460 0.9728 0.3215
C35_2 C 0.8828(6) 0.9344(6) 0.3526(2)
H32_2 H 0.8667 0.8680 0.3701
H33_2 H 0.9421 0.9214 0.3396
N1_2 N 0.9202(3) 0.6354(4) 0.25798(18)
N5_2 N 0.7624(3) 0.7900(4) 0.12817(19)
O1_2 O 0.7415(3) 0.5932(4) 0.18579(17)
O2_2 O 0.6591(3) 0.5230(4) 0.24338(16)
O3_2 O 0.4254(3) 0.2676(5) 0.1546(2)
O4_2 O 0.4855(3) 0.1187(4) 0.18982(18)
O5_2 O 0.7414(3) 0.7789(4) 0.28775(19)
O6_2 O 0.8301(3) 0.8538(4) 0.23323(16)
C9_3 C 0.1897(4) 0.1002(6) 0.0700(2)
H7_3 H 0.1626 0.1467 0.0444
C10_3 C 0.2352(5) 0.1453(6) 0.1137(2)
H8_3 H 0.2379 0.2219 0.1169
N4_2 N 0.2762(3) 0.0823(4) 0.15208(17)
C3_3 C 0.0047(4) 0.9494(6) 0.8494(2)
C4_3 C 0.0162(5) 0.8370(6) 0.8370(2)
H3_3 H 0.0517 0.7899 0.8594
C6_3 C 0.0430(4) 0.9941(7) 0.9000(2)
C40_3 C 0.0104(4) 0.3475(6) 0.8525(2)
N2_3 N 0.0733(4) 0.9312(5) 0.93638(19)
N3_3 N 0.1071(4) 0.9963(5) 0.97939(19)
O7_2 O 0.0318(4) 0.2547(5) 0.8324(2)
O8_3 O 0.0700(4) 0.4212(5) 0.8581(2)
Co3_2 Co 0.15946(5) 0.28829(7) 0.80730(3)
H1_3 H 0.8807 0.0173 0.7454
C2_3 C 0.9544(4) 0.0182(6) 0.8139(2)
H2_3 H 0.9480 0.0933 0.8202
C26_3 C 0.6861(4) 0.0907(5) 0.6735(2)
H21_3 H 0.7415 0.0989 0.6558
C27_3 C 0.5988(5) 0.0809(6) 0.6330(2)
H22_3 H 0.5436 0.0667 0.6496
H23_3 H 0.6071 0.0188 0.6109
C28_3 C 0.5836(6) 0.1861(6) 0.6014(3)
H24_3 H 0.5252 0.1793 0.5788
H25_3 H 0.6342 0.1934 0.5807
C29_3 C 0.5796(5) 0.2902(6) 0.6332(3)
H26_3 H 0.5804 0.3538 0.6104
C30_3 C 0.6682(5) 0.2970(6) 0.6721(3)
H27_3 H 0.7230 0.3054 0.6545
H28_3 H 0.6642 0.3614 0.6934
C31_3 C 0.6787(5) 0.1926(5) 0.7050(2)
H29_3 H 0.6249 0.1859 0.7235
H30_3 H 0.7346 0.1991 0.7295
C32_3 C 0.4903(5) 0.3014(6) 0.6614(3)
Co1_2 Co 0.84054(5) 0.78829(7) 0.69270(3)
C1_3 C 0.9142(4) 0.9714(5) 0.7692(2)
C5_3 C 0.9738(5) 0.7991(6) 0.7914(2)
H4_3 H 0.9822 0.7254 0.7829
C13_3 C 0.7538(4) 0.5994(6) 0.6232(2)
H11_3 H 0.7801 0.5552 0.6499
C14_3 C 0.7086(4) 0.5485(6) 0.5811(2)
H12_2 H 0.7063 0.4717 0.5792
C15_3 C 0.6664(4) 0.6117(6) 0.5416(2)
C16_3 C 0.6738(5) 0.7279(6) 0.5462(3)
H13_3 H 0.6468 0.7736 0.5202
C17_3 C 0.7215(5) 0.7726(6) 0.5895(2)
H14_3 H 0.7257 0.8492 0.5924
C18_2 C 0.6169(4) 0.5632(7) 0.4947(2)
H15_2 H 0.5876 0.6104 0.4700
C19_3 C 0.5719(5) 0.3405(7) 0.4256(2)
H16_3 H 0.6058 0.2908 0.4475
C20_3 C 0.5291(4) 0.3021(6) 0.3748(2)
C21_3 C 0.4768(4) 0.3753(6) 0.3425(2)
H17_3 H 0.4710 0.4490 0.3516
C22_3 C 0.4334(5) 0.3366(6) 0.2965(3)
H18_3 H 0.3962 0.3852 0.2756
C23_3 C 0.4972(5) 0.1652(6) 0.3107(3)
H19_3 H 0.5065 0.0935 0.2997
C24_3 C 0.5411(5) 0.1966(6) 0.3578(3)
H20_3 H 0.5785 0.1465 0.3778
C25_3 C 0.6977(4) 0.9834(5) 0.7042(2)
C33_3 C 0.7899(4) 0.6432(5) 0.7729(2)
C34_3 C 0.8048(4) 0.5414(5) 0.8074(2)
H31_3 H 0.7460 0.5272 0.8215
C35_3 C 0.8828(6) 0.5656(6) 0.8526(2)
H32_3 H 0.8667 0.6320 0.8701
H33_3 H 0.9421 0.5786 0.8396
C36_2 C 0.8934(6) 0.4692(7) 0.8895(3)
H34_2 H 0.9449 0.4847 0.9158
H35_2 H 0.8365 0.4632 0.9056
C37_2 C 0.9117(4) 0.3581(6) 0.8648(3)
H36_2 H 0.9021 0.2999 0.8892
C38_2 C 0.8392(5) 0.3394(6) 0.8177(3)
H37_2 H 0.7781 0.3255 0.8285
H38_2 H 0.8568 0.2742 0.7999
C39_2 C 0.8316(5) 0.4369(5) 0.7819(3)
H39_2 H 0.7849 0.4210 0.7532
H40_2 H 0.8915 0.4479 0.7692
N1_3 N 0.9202(3) 0.8646(4) 0.75798(18)
N5_3 N 0.7624(3) 0.7100(4) 0.62817(19)
N6_3 N 0.6131(4) 0.4611(5) 0.48692(19)
N7_3 N 0.5634(4) 0.4386(5) 0.4395(2)
N8_3 N 0.4426(4) 0.2323(4) 0.28066(19)
O1_3 O 0.7415(3) 0.9068(4) 0.68579(17)
O6_3 O 0.8301(3) 0.6462(4) 0.73323(16)
O13_2 O 0.9682(4) 0.7547(5) 0.6676(2)
C1_4 C 0.0858(4) 0.4714(5) 0.7308(2)
H1_4 H 0.1193 0.5173 0.7546
C2_4 C 0.0456(4) 0.5182(6) 0.6861(2)
H2_4 H 0.0520 0.5933 0.6798
C5_4 C 0.0262(5) 0.2991(6) 0.7086(2)
H4_4 H 0.0178 0.2254 0.7171
C13_4 C 0.2462(4) 0.0994(6) 0.8768(2)
H11_4 H 0.2199 0.0552 0.8501
C14_4 C 0.2914(4) 0.0485(6) 0.9189(2)
C15_4 C 0.3336(4) 0.1117(6) 0.9584(2)
C16_4 C 0.3262(5) 0.2279(6) 0.9538(3)
H13_4 H 0.3532 0.2736 0.9798
C17_4 C 0.2785(5) 0.2726(6) 0.9105(2)
H14_4 H 0.2743 0.3492 0.9076
C25_4 C 0.3023(4) 0.4834(5) 0.7958(2)
C26_4 C 0.3139(4) 0.5907(5) 0.8265(2)
H21_4 H 0.2585 0.5989 0.8442
C27_4 C 0.4012(5) 0.5809(6) 0.8670(2)
H22_4 H 0.4564 0.5667 0.8504
H23_4 H 0.3929 0.5188 0.8891
C28_4 C 0.4164(6) 0.6861(6) 0.8986(3)
H24_4 H 0.4748 0.6793 0.9212
H25_4 H 0.3658 0.6934 0.9193
C29_4 C 0.4204(5) 0.7902(6) 0.8668(3)
H26_4 H 0.4196 0.8538 0.8896
C30_4 C 0.3318(5) 0.7970(6) 0.8279(3)
H27_4 H 0.2770 0.8054 0.8455
H28_4 H 0.3358 0.8614 0.8066
C31_4 C 0.3213(5) 0.6926(5) 0.7950(2)
H29_4 H 0.3751 0.6859 0.7765
H30_4 H 0.2654 0.6991 0.7705
C32_4 C 0.5097(5) 0.8014(6) 0.8386(3)
C33_4 C 0.2101(4) 0.1432(5) 0.7271(2)
C34_4 C 0.1952(4) 0.0414(5) 0.6926(2)
H31_4 H 0.2540 0.0272 0.6785
C35_4 C 0.1172(6) 0.0656(6) 0.6474(2)
H32_4 H 0.1333 0.1320 0.6299
H33_4 H 0.0579 0.0786 0.6604
N1_4 N 0.0798(3) 0.3646(4) 0.74202(18)
N5_4 N 0.2376(3) 0.2100(4) 0.87183(19)
O1_4 O 0.2585(3) 0.4068(4) 0.81421(17)
O6_4 O 0.1699(3) 0.1462(4) 0.76677(16)
C19_4 C 0.4281(5) 0.8405(7) 0.0744(2)
H16_4 H 0.3942 0.7908 0.0525
C20_4 C 0.4709(4) 0.8021(6) 0.1252(2)
C21_4 C 0.5232(4) 0.8753(6) 0.1575(2)
H17_4 H 0.5290 0.9490 0.1484
C22_4 C 0.5666(5) 0.8366(6) 0.2035(3)
H18_4 H 0.6038 0.8852 0.2244
C23_4 C 0.5028(5) 0.6652(6) 0.1893(3)
H19_4 H 0.4935 0.5935 0.2003
C24_4 C 0.4589(5) 0.6966(6) 0.1422(3)
H20_4 H 0.4215 0.6465 0.1222
N6_4 N 0.3869(4) 0.9611(5) 0.01308(19)
N7_4 N 0.4366(4) 0.9386(5) 0.0605(2)
N8_4 N 0.5574(4) 0.7323(4) 0.21934(19)
N9_2 N 0.7238(3) 0.5823(4) 0.34792(17)
C3_4 C 0.9953(4) 0.4494(6) 0.6506(2)
C4_4 C 0.9838(5) 0.3370(6) 0.6630(2)
H3_4 H 0.9483 0.2899 0.6406
C6_4 C 0.9570(4) 0.4941(7) 0.6000(2)
H5_2 H 0.9555 0.5703 0.5951
C7_2 C 0.8580(5) 0.4345(7) 0.4830(3)
H6_2 H 0.8596 0.3578 0.4857
C8_2 C 0.8164(4) 0.4878(6) 0.4365(2)
C9_4 C 0.8103(4) 0.6002(6) 0.4300(2)
H7_4 H 0.8374 0.6467 0.4556
C10_4 C 0.7648(5) 0.6453(6) 0.3863(2)
H8_4 H 0.7621 0.7219 0.3831
C11_2 C 0.7315(4) 0.4733(5) 0.3525(2)
H9_2 H 0.7060 0.4290 0.3257
C12_2 C 0.7764(4) 0.4229(6) 0.3959(2)
H10_2 H 0.7799 0.3462 0.3979
N2_4 N 0.9267(4) 0.4312(5) 0.56362(19)
N3_4 N 0.8929(4) 0.4963(5) 0.52061(19)
C40_4 C 0.9896(4) 0.8475(6) 0.6475(2)
O8_4 O 0.9300(4) 0.9212(5) 0.6419(2)
C7_3 C 0.8580(5) 0.0655(7) 0.9830(3)
H6_3 H 0.8596 0.1422 0.9857
C8_3 C 0.8164(4) 0.0122(6) 0.9365(2)
C11_3 C 0.7315(4) 0.0267(5) 0.8525(2)
H9_3 H 0.7060 0.0710 0.8257
C12_3 C 0.7764(4) 0.0771(6) 0.8959(2)
H10_3 H 0.7799 0.1538 0.8979
H5_3 H 0.9555 0.9297 0.0951
H12_3 H 0.7063 0.0283 0.0792
C36_3 C 0.8934(6) 0.0308(7) 0.3895(3)
H34_3 H 0.9449 0.0153 0.4158
H35_3 H 0.8365 0.0368 0.4056
C37_3 C 0.9117(4) 0.1419(6) 0.3648(3)
H36_3 H 0.9021 0.2001 0.3892
C38_3 C 0.8392(5) 0.1606(6) 0.3177(3)
H37_3 H 0.7781 0.1745 0.3285
H38_3 H 0.8568 0.2258 0.2999
C39_3 C 0.8316(5) 0.0631(5) 0.2819(3)
H39_3 H 0.7849 0.0790 0.2532
H40_3 H 0.8915 0.0521 0.2692
C18_3 C 0.6169(4) 0.9368(7) 0.9947(2)
H15_3 H 0.5876 0.8896 0.9700
H5_4 H 0.0445 0.0703 0.9049
C7_4 C 0.1420(5) 0.9345(7) 0.0170(3)
H6_4 H 0.1404 0.8578 0.0143
C8_4 C 0.1836(4) 0.9878(6) 0.0635(2)
C11_4 C 0.2685(4) 0.9733(5) 0.1475(2)
H9_4 H 0.2940 0.9290 0.1743
C12_4 C 0.2236(4) 0.9229(6) 0.1041(2)
H10_4 H 0.2201 0.8462 0.1021
C18_4 C 0.3831(4) 0.0632(7) 0.0053(2)
H15_4 H 0.4124 0.1104 0.0300
H12_4 H 0.2937 0.9717 0.9208
C36_4 C 0.1066(6) 0.9692(7) 0.6105(3)
H34_4 H 0.0551 0.9847 0.5842
H35_4 H 0.1635 0.9632 0.5944
C37_4 C 0.0883(4) 0.8581(6) 0.6352(3)
H36_4 H 0.0979 0.7999 0.6108
C38_4 C 0.1608(5) 0.8394(6) 0.6823(3)
H37_4 H 0.2219 0.8255 0.6715
H38_4 H 0.1432 0.7742 0.7001
C39_4 C 0.1684(5) 0.9369(5) 0.7181(3)
H39_4 H 0.2151 0.9210 0.7468
H40_4 H 0.1085 0.9479 0.7308
loop_
_geom_bond_atom_site_label_1
_geom_bond_atom_site_label_2
_geom_bond_site_symmetry_1
_geom_bond_site_symmetry_2
Co1 N1 1_555 1_555
Co2 N8 1_555 1_555
H4 C5 1_555 1_555
C13 H11 1_555 1_555
C14 C13 1_555 1_555
H12 C14 1_555 1_555
C15 C14 1_555 1_555
C16 C15 1_555 1_555
H13 C16 1_555 1_555
C17 C16 1_555 1_555
H14 C17 1_555 1_555
C18 C15 1_555 1_555
H15 C18 1_555 1_555
C19 H16 1_555 1_555
C20 C19 1_555 1_555
C21 C20 1_555 1_555
H17 C21 1_555 1_555
C22 C21 1_555 1_555
H18 C22 1_555 1_555
C23 H19 1_555 1_555
C24 C20 1_555 1_555
H20 C24 1_555 1_555
C33 C34 1_555 1_555
C34 H31 1_555 1_555
C35 C34 1_555 1_555
H32 C35 1_555 1_555
H33 C35 1_555 1_555
C36 C35 1_555 1_555
H34 C36 1_555 1_555
H35 C36 1_555 1_555
C37 C36 1_555 1_555
H36 C37 1_555 1_555
C38 C37 1_555 1_555
H37 C38 1_555 1_555
H38 C38 1_555 1_555
C39 C34 1_555 1_555
H39 C39 1_555 1_555
H40 C39 1_555 1_555
N1 C1 1_555 1_555
N5 Co1 1_555 1_555
N6 C18 1_555 1_555
N7 C19 1_555 1_555
N8 C22 1_555 1_555
O1 Co1 1_555 1_555
O2 C25 1_555 1_555
O5 C33 1_555 1_555
O6 Co1 1_555 1_555
Co5 O2 1_555 1_555
N9 Co2 1_555 1_555
O9 Co2 1_555 1_555
O10 Co2 1_555 1_555
O11 Co2 1_555 1_555
O12 Co2 1_555 1_555
O13 Co1 1_555 1_555
C5 N1 1_555 1_555
C13 N5 1_555 1_555
C17 N5 1_555 1_555
C23 C24 1_555 1_555
C23 N8 1_555 1_555
C25 O1 1_555 1_555
C33 O6 1_555 1_555
C38 C39 1_555 1_555
N6 N7 1_555 1_555
O5 Co5 1_555 1_555
H2 C2 1_555 1_555
C26 H21 1_555 1_555
C27 C26 1_555 1_555
H22 C27 1_555 1_555
H23 C27 1_555 1_555
C28 C27 1_555 1_555
H24 C28 1_555 1_555
H25 C28 1_555 1_555
C29 C28 1_555 1_555
H26 C29 1_555 1_555
C30 C29 1_555 1_555
H27 C30 1_555 1_555
H28 C30 1_555 1_555
C31 C26 1_555 1_555
H29 C31 1_555 1_555
H30 C31 1_555 1_555
C32 C29 1_555 1_555
O3 C32 1_555 1_555
O4 C32 1_555 1_555
Co6 O3 1_555 1_555
C30 C31 1_555 1_555
O4 Co6 1_555 1_555
C4 C3 1_555 1_555
H3 C4 1_555 1_555
C6 C3 1_555 1_555
N2 C6 1_555 1_555
O7 C40 1_555 1_555
O8 C40 1_555 1_555
Co3 O7 1_555 1_555
N2 N3 1_555 1_555
H7 C9 1_555 1_555
C10 C9 1_555 1_555
H8 C10 1_555 1_555
N9 C10 1_555 1_555
O13 C40_2 1_555 1_555
O8_2 C40_2 1_555 1_555
C4_2 C3_2 1_555 1_555
H3_2 C4_2 1_555 1_555
C6_2 C3_2 1_555 1_555
H5 C6_2 1_555 1_555
C7 H6 1_555 1_555
C8 C7 1_555 1_555
C9_2 C8 1_555 1_555
H7_2 C9_2 1_555 1_555
C10_2 C9_2 1_555 1_555
H8_2 C10_2 1_555 1_555
C11 H9 1_555 1_555
C12 C8 1_555 1_555
H10 C12 1_555 1_555
N2_2 C6_2 1_555 1_555
N3_2 C7 1_555 1_555
N4 C10_2 1_555 1_555
Co4 N4 1_555 1_555
C11 C12 1_555 1_555
C11 N4 1_555 1_555
N2_2 N3_2 1_555 1_555
Co4 N8_2 1_555 1_555
C19_2 H16_2 1_555 1_555
C20_2 C19_2 1_555 1_555
C21_2 C20_2 1_555 1_555
H17_2 C21_2 1_555 1_555
C22_2 C21_2 1_555 1_555
H18_2 C22_2 1_555 1_555
C23_2 H19_2 1_555 1_555
C24_2 C20_2 1_555 1_555
H20_2 C24_2 1_555 1_555
N7_2 C19_2 1_555 1_555
N8_2 C22_2 1_555 1_555
O9_2 Co4 1_555 1_555
O10_2 Co4 1_555 1_555
O11_2 Co4 1_555 1_555
O12_2 Co4 1_555 1_555
C23_2 C24_2 1_555 1_555
C23_2 N8_2 1_555 1_555
N6_2 N7_2 1_555 1_555
Co3 N1_2 1_555 1_555
C1_2 H1_2 1_555 1_555
C2_2 C1_2 1_555 1_555
H2_2 C2_2 1_555 1_555
H4_2 C5_2 1_555 1_555
C13_2 H11_2 1_555 1_555
C14_2 C13_2 1_555 1_555
C15_2 C14_2 1_555 1_555
C16_2 C15_2 1_555 1_555
H13_2 C16_2 1_555 1_555
C17_2 C16_2 1_555 1_555
H14_2 C17_2 1_555 1_555
C25_2 C26_2 1_555 1_555
C26_2 H21_2 1_555 1_555
C27_2 C26_2 1_555 1_555
H22_2 C27_2 1_555 1_555
H23_2 C27_2 1_555 1_555
C28_2 C27_2 1_555 1_555
H24_2 C28_2 1_555 1_555
H25_2 C28_2 1_555 1_555
C29_2 C28_2 1_555 1_555
H26_2 C29_2 1_555 1_555
C30_2 C29_2 1_555 1_555
H27_2 C30_2 1_555 1_555
H28_2 C30_2 1_555 1_555
C31_2 C26_2 1_555 1_555
H29_2 C31_2 1_555 1_555
H30_2 C31_2 1_555 1_555
C32_2 C29_2 1_555 1_555
C33_2 C34_2 1_555 1_555
C34_2 H31_2 1_555 1_555
C35_2 C34_2 1_555 1_555
H32_2 C35_2 1_555 1_555
H33_2 C35_2 1_555 1_555
N1_2 C1_2 1_555 1_555
N5_2 Co3 1_555 1_555
O1_2 Co3 1_555 1_555
O2_2 C25_2 1_555 1_555
O3_2 C32_2 1_555 1_555
O4_2 C32_2 1_555 1_555
O5_2 C33_2 1_555 1_555
O6_2 Co3 1_555 1_555
Co6 O2_2 1_555 1_555
Co5 O3_2 1_555 1_555
C5_2 N1_2 1_555 1_555
C13_2 N5_2 1_555 1_555
C17_2 N5_2 1_555 1_555
C25_2 O1_2 1_555 1_555
C30_2 C31_2 1_555 1_555
C33_2 O6_2 1_555 1_555
O4_2 Co5 1_555 1_555
O5_2 Co6 1_555 1_555
H7_3 C9_3 1_555 1_555
C10_3 C9_3 1_555 1_555
H8_3 C10_3 1_555 1_555
N4_2 C10_3 1_555 1_555
Co5 N4_2 1_555 1_555
C4_3 C3_3 1_555 1_555
H3_3 C4_3 1_555 1_555
C6_3 C3_3 1_555 1_555
N2_3 C6_3 1_555 1_555
O7_2 C40_3 1_555 1_555
O8_3 C40_3 1_555 1_555
Co3_2 O7_2 1_555 1_555
N2_3 N3_3 1_555 1_555
H2_3 C2_3 1_555 1_555
C26_3 H21_3 1_555 1_555
C27_3 C26_3 1_555 1_555
H22_3 C27_3 1_555 1_555
H23_3 C27_3 1_555 1_555
C28_3 C27_3 1_555 1_555
H24_3 C28_3 1_555 1_555
H25_3 C28_3 1_555 1_555
C29_3 C28_3 1_555 1_555
H26_3 C29_3 1_555 1_555
C30_3 C29_3 1_555 1_555
H27_3 C30_3 1_555 1_555
H28_3 C30_3 1_555 1_555
C31_3 C26_3 1_555 1_555
H29_3 C31_3 1_555 1_555
H30_3 C31_3 1_555 1_555
C32_3 C29_3 1_555 1_555
O10_2 C32_3 1_555 1_555
O11_2 C32_3 1_555 1_555
C30_3 C31_3 1_555 1_555
Co1_2 N1_3 1_555 1_555
Co5 N8_3 1_555 1_555
H4_3 C5_3 1_555 1_555
C13_3 H11_3 1_555 1_555
C14_3 C13_3 1_555 1_555
H12_2 C14_3 1_555 1_555
C15_3 C14_3 1_555 1_555
C16_3 C15_3 1_555 1_555
H13_3 C16_3 1_555 1_555
C17_3 C16_3 1_555 1_555
H14_3 C17_3 1_555 1_555
C18_2 C15_3 1_555 1_555
H15_2 C18_2 1_555 1_555
C19_3 H16_3 1_555 1_555
C20_3 C19_3 1_555 1_555
C21_3 C20_3 1_555 1_555
H17_3 C21_3 1_555 1_555
C22_3 C21_3 1_555 1_555
H18_3 C22_3 1_555 1_555
C23_3 H19_3 1_555 1_555
C24_3 C20_3 1_555 1_555
H20_3 C24_3 1_555 1_555
C33_3 C34_3 1_555 1_555
C34_3 H31_3 1_555 1_555
C35_3 C34_3 1_555 1_555
H32_3 C35_3 1_555 1_555
H33_3 C35_3 1_555 1_555
C36_2 C35_3 1_555 1_555
H34_2 C36_2 1_555 1_555
H35_2 C36_2 1_555 1_555
C37_2 C36_2 1_555 1_555
H36_2 C37_2 1_555 1_555
C38_2 C37_2 1_555 1_555
H37_2 C38_2 1_555 1_555
H38_2 C38_2 1_555 1_555
C39_2 C34_3 1_555 1_555
H39_2 C39_2 1_555 1_555
H40_2 C39_2 1_555 1_555
N1_3 C1_3 1_555 1_555
N5_3 Co1_2 1_555 1_555
N6_3 C18_2 1_555 1_555
N7_3 C19_3 1_555 1_555
N8_3 C22_3 1_555 1_555
O1_3 Co1_2 1_555 1_555
O9 C25_3 1_555 1_555
O12 C33_3 1_555 1_555
O6_3 Co1_2 1_555 1_555
O13_2 Co1_2 1_555 1_555
C5_3 N1_3 1_555 1_555
C13_3 N5_3 1_555 1_555
C17_3 N5_3 1_555 1_555
C23_3 C24_3 1_555 1_555
C23_3 N8_3 1_555 1_555
C25_3 O1_3 1_555 1_555
C33_3 O6_3 1_555 1_555
C38_2 C39_2 1_555 1_555
N6_3 N7_3 1_555 1_555
Co3_2 N1_4 1_555 1_555
C1_4 H1_4 1_555 1_555
C2_4 C1_4 1_555 1_555
H2_4 C2_4 1_555 1_555
H4_4 C5_4 1_555 1_555
C13_4 H11_4 1_555 1_555
C14_4 C13_4 1_555 1_555
C15_4 C14_4 1_555 1_555
C16_4 C15_4 1_555 1_555
H13_4 C16_4 1_555 1_555
C17_4 C16_4 1_555 1_555
H14_4 C17_4 1_555 1_555
C25_4 C26_4 1_555 1_555
C26_4 H21_4 1_555 1_555
C27_4 C26_4 1_555 1_555
H22_4 C27_4 1_555 1_555
H23_4 C27_4 1_555 1_555
C28_4 C27_4 1_555 1_555
H24_4 C28_4 1_555 1_555
H25_4 C28_4 1_555 1_555
C29_4 C28_4 1_555 1_555
H26_4 C29_4 1_555 1_555
C30_4 C29_4 1_555 1_555
H27_4 C30_4 1_555 1_555
H28_4 C30_4 1_555 1_555
C31_4 C26_4 1_555 1_555
H29_4 C31_4 1_555 1_555
H30_4 C31_4 1_555 1_555
C32_4 C29_4 1_555 1_555
C33_4 C34_4 1_555 1_555
C34_4 H31_4 1_555 1_555
C35_4 C34_4 1_555 1_555
H32_4 C35_4 1_555 1_555
H33_4 C35_4 1_555 1_555
N1_4 C1_4 1_555 1_555
N5_4 Co3_2 1_555 1_555
O1_4 Co3_2 1_555 1_555
O9_2 C25_4 1_555 1_555
O10 C32_4 1_555 1_555
O11 C32_4 1_555 1_555
O12_2 C33_4 1_555 1_555
O6_4 Co3_2 1_555 1_555
C5_4 N1_4 1_555 1_555
C13_4 N5_4 1_555 1_555
C17_4 N5_4 1_555 1_555
C25_4 O1_4 1_555 1_555
C30_4 C31_4 1_555 1_555
C33_4 O6_4 1_555 1_555
Co6 N8_4 1_555 1_555
C19_4 H16_4 1_555 1_555
C20_4 C19_4 1_555 1_555
C21_4 C20_4 1_555 1_555
H17_4 C21_4 1_555 1_555
C22_4 C21_4 1_555 1_555
H18_4 C22_4 1_555 1_555
C23_4 H19_4 1_555 1_555
C24_4 C20_4 1_555 1_555
H20_4 C24_4 1_555 1_555
N7_4 C19_4 1_555 1_555
N8_4 C22_4 1_555 1_555
N9_2 Co6 1_555 1_555
C23_4 C24_4 1_555 1_555
C23_4 N8_4 1_555 1_555
N6_4 N7_4 1_555 1_555
C4_4 C3_4 1_555 1_555
H3_4 C4_4 1_555 1_555
C6_4 C3_4 1_555 1_555
H5_2 C6_4 1_555 1_555
C7_2 H6_2 1_555 1_555
C8_2 C7_2 1_555 1_555
C9_4 C8_2 1_555 1_555
H7_4 C9_4 1_555 1_555
C10_4 C9_4 1_555 1_555
H8_4 C10_4 1_555 1_555
C11_2 H9_2 1_555 1_555
C12_2 C8_2 1_555 1_555
H10_2 C12_2 1_555 1_555
N2_4 C6_4 1_555 1_555
N3_4 C7_2 1_555 1_555
N9_2 C10_4 1_555 1_555
C11_2 C12_2 1_555 1_555
C11_2 N9_2 1_555 1_555
N2_4 N3_4 1_555 1_555
O13_2 C40_4 1_555 1_555
O8_4 C40_4 1_555 1_555
C7_3 H6_3 1_555 1_555
C8_3 C7_3 1_555 1_555
C11_3 H9_3 1_555 1_555
C12_3 C8_3 1_555 1_555
H10_3 C12_3 1_555 1_555
C11_3 C12_3 1_555 1_555
H34_3 C36_3 1_555 1_555
H35_3 C36_3 1_555 1_555
C37_3 C36_3 1_555 1_555
H36_3 C37_3 1_555 1_555
C38_3 C37_3 1_555 1_555
H37_3 C38_3 1_555 1_555
H38_3 C38_3 1_555 1_555
H39_3 C39_3 1_555 1_555
H40_3 C39_3 1_555 1_555
C38_3 C39_3 1_555 1_555
H15_3 C18_3 1_555 1_555
C7_4 H6_4 1_555 1_555
C8_4 C7_4 1_555 1_555
C11_4 H9_4 1_555 1_555
C12_4 C8_4 1_555 1_555
H10_4 C12_4 1_555 1_555
C11_4 C12_4 1_555 1_555
H15_4 C18_4 1_555 1_555
H34_4 C36_4 1_555 1_555
H35_4 C36_4 1_555 1_555
C37_4 C36_4 1_555 1_555
H36_4 C37_4 1_555 1_555
C38_4 C37_4 1_555 1_555
H37_4 C38_4 1_555 1_555
H38_4 C38_4 1_555 1_555
H39_4 C39_4 1_555 1_555
H40_4 C39_4 1_555 1_555
C38_4 C39_4 1_555 1_555

#END
