
###############################################################################
#
# This file contains modified crystal structure data generated from the
# MOF subset of the Cambridge Structural Database (CSD) v543 
# hosted by the Cambridge Crystallographic Data Centre (CCDC).
#
# This work is licensed under the Creative Commons
# Attribution-NonCommercial-ShareAlike 4.0 International License.
# To view a copy of this license, visit
# http://creativecommons.org/licenses/by-nc-sa/4.0/
# or send a letter to
# Creative Commons, PO Box 1866, Mountain View, CA 94042, USA.
#
# CIF created using the CSD Python API on 29 September 2022
# The structure has been converted into the P1 space group
# The structure has a 3D framework
# The original CSD entry IJANAJ is in the triclinic crystal system
# The framework has been calculated to contain at least 10.0% void space
# The void calculation uses a probe of radius 1.32A, grid spacing 0.4
# H atom positions have been added when not included in the experimental data
# Generated hydrogen atom positions removed from atoms on special positions
#
###############################################################################

data_IJANAJ
_chemical_formula_moiety         '(C38 H30 N4 O14 Zn3)n'
_symmetry_cell_setting           triclinic
_symmetry_space_group_name_H-M   'P 1'
_symmetry_Int_Tables_number      1
_space_group_name_Hall           'P 1'
loop_
_symmetry_equiv_pos_site_id
_symmetry_equiv_pos_as_xyz
1 x,y,z
_cell_length_a                   9.349(4)
_cell_length_b                   10.441(5)
_cell_length_c                   12.177(6)
_cell_angle_alpha                109.956(5)
_cell_angle_beta                 103.388(4)
_cell_angle_gamma                90.275(4)
_cell_volume                     1082.32
loop_
_atom_site_label
_atom_site_type_symbol
_atom_site_fract_x
_atom_site_fract_y
_atom_site_fract_z
Zn3 Zn 0.260550(18) 0.073080(17) 0.486560(15)
O8 O 0.05698(13) 0.11285(13) 0.43758(12)
O9 O 0.09017(13) 0.24499(14) 0.33352(12)
O17 O 0.40121(13) 0.06933(12) 0.39190(12)
N5 N 0.31648(15) 0.17215(14) 0.66585(12)
C26 C 0.01164(17) 0.17676(16) 0.36615(14)
O13 O 0.22311(14) 0.87090(11) 0.42931(10)
N1 N 0.68352(15) 0.82785(14) 0.33415(12)
C10 C 0.7930(2) 0.8014(2) 0.27794(16)
H4 H 0.8900 0.8235 0.3240
C11 C 0.7673(2) 0.7425(2) 0.15378(16)
H5 H 0.8462 0.7256 0.1179
C12 C 0.62271(18) 0.70863(16) 0.08259(14)
C13 C 0.5105(2) 0.73465(19) 0.14217(15)
H6 H 0.4124 0.7128 0.0985
C14 C 0.54428(19) 0.79302(18) 0.26639(15)
H7 H 0.4674 0.8088 0.3047
Zn6 Zn 0.739450(18) 0.926920(17) 0.513440(15)
Zn2 Zn 0.5000 0.5000 0.5000
O3 O 0.12768(14) 0.67181(11) 0.41844(11)
O5 O 0.51383(13) 0.71201(11) 0.51267(10)
O6 O 0.59879(13) 0.93067(12) 0.60810(12)
N2 N 0.53951(16) 0.55610(14) 0.69438(12)
C1 C 0.15305(16) 0.84022(15) 0.68497(13)
C2 C 0.25160(16) 0.82679(14) 0.61192(13)
C3 C 0.40321(16) 0.85077(14) 0.66576(13)
C4 C 0.45502(18) 0.89505(17) 0.79106(14)
H1 H 0.5555 0.9173 0.8268
C5 C 0.35602(19) 0.90565(19) 0.86184(14)
H2 H 0.3908 0.9323 0.9451
C6 C 0.20595(18) 0.87703(18) 0.80994(14)
H3 H 0.1404 0.8822 0.8580
C8 C 0.19521(16) 0.78640(15) 0.47680(13)
C9 C 0.51214(16) 0.82687(15) 0.58872(13)
C15 C 0.59262(19) 0.65087(17) 0.94856(14)
C16 C 0.7051(2) 0.6514(3) 0.89037(18)
H8 H 0.8013 0.6830 0.9356
C17 C 0.6739(2) 0.6055(3) 0.76674(18)
H9 H 0.7509 0.6088 0.7310
C18 C 0.4321(2) 0.55218(19) 0.75023(15)
H10 H 0.3378 0.5161 0.7031
C19 C 0.4551(2) 0.59932(19) 0.87476(15)
H11 H 0.3763 0.5959 0.9085
O7 O 0.27349(13) 0.48152(12) 0.48995(10)
O10 O 0.87232(14) 0.32819(11) 0.58156(11)
O11 O 0.77689(14) 0.12910(11) 0.57069(10)
O14 O 0.48617(13) 0.28799(11) 0.48733(10)
N6 N 0.46049(16) 0.44390(14) 0.30562(12)
C20 C 0.84695(16) 0.15978(15) 0.31503(13)
C21 C 0.74840(16) 0.17321(14) 0.38808(13)
C22 C 0.59679(16) 0.14923(14) 0.33424(13)
C23 C 0.54498(18) 0.10495(17) 0.20894(14)
H12 H 0.4445 0.0827 0.1732
C24 C 0.64398(19) 0.09435(19) 0.13816(14)
H13 H 0.6092 0.0677 0.0549
C25 C 0.79405(18) 0.12297(18) 0.19006(14)
H14 H 0.8596 0.1178 0.1420
C27 C 0.80479(16) 0.21360(15) 0.52320(13)
C28 C 0.48786(16) 0.17313(15) 0.41128(13)
C34 C 0.40738(19) 0.34913(17) 0.05144(14)
C35 C 0.2949(2) 0.3486(3) 0.10963(18)
H19 H 0.1987 0.3170 0.0644
C36 C 0.3261(2) 0.3945(3) 0.23326(18)
H20 H 0.2491 0.3912 0.2690
C37 C 0.5679(2) 0.44782(19) 0.24977(15)
H21 H 0.6622 0.4839 0.2969
C38 C 0.5449(2) 0.40068(19) 0.12524(15)
H22 H 0.6237 0.4041 0.0915
O18 O 0.72651(13) 0.51848(12) 0.51005(10)
C29 C 0.2070(2) 0.1986(2) 0.72206(16)
H15 H 0.1100 0.1765 0.6760
C30 C 0.2327(2) 0.2575(2) 0.84622(16)
H16 H 0.1538 0.2744 0.8821
C31 C 0.37729(18) 0.29137(16) 0.91741(14)
C32 C 0.4895(2) 0.26535(19) 0.85783(15)
H17 H 0.5876 0.2872 0.9015
C33 C 0.45572(19) 0.20698(18) 0.73361(15)
H18 H 0.5326 0.1912 0.6953
O1 O 0.94302(13) 0.88715(13) 0.56242(12)
O2 O 0.90983(13) 0.75501(14) 0.66648(12)
C7 C 0.98836(17) 0.82324(16) 0.63385(14)
loop_
_geom_bond_atom_site_label_1
_geom_bond_atom_site_label_2
_geom_bond_site_symmetry_1
_geom_bond_site_symmetry_2
Zn3 O8 1_555 1_555
O8 C26 1_555 1_555
O9 C26 1_555 1_555
O17 Zn3 1_555 1_555
N5 Zn3 1_555 1_555
N1 C10 1_555 1_555
C10 H4 1_555 1_555
C11 C10 1_555 1_555
H5 C11 1_555 1_555
C12 C11 1_555 1_555
C13 C12 1_555 1_555
H6 C13 1_555 1_555
C14 N1 1_555 1_555
H7 C14 1_555 1_555
Zn6 N1 1_555 1_555
C13 C14 1_555 1_555
Zn2 O5 1_555 1_555
O3 C8 1_555 1_555
O13 C8 1_555 1_555
O5 C9 1_555 1_555
O6 C9 1_555 1_555
N2 Zn2 1_555 1_555
C1 C2 1_555 1_555
C2 C3 1_555 1_555
C3 C4 1_555 1_555
C4 H1 1_555 1_555
C5 C4 1_555 1_555
H2 C5 1_555 1_555
C6 C1 1_555 1_555
H3 C6 1_555 1_555
C8 C2 1_555 1_555
C9 C3 1_555 1_555
C16 C15 1_555 1_555
H8 C16 1_555 1_555
C17 N2 1_555 1_555
H9 C17 1_555 1_555
C18 N2 1_555 1_555
H10 C18 1_555 1_555
C19 C15 1_555 1_555
H11 C19 1_555 1_555
O7 Zn2 1_555 1_555
Zn6 O6 1_555 1_555
O10 C27 1_555 1_555
O11 C27 1_555 1_555
O14 Zn2 1_555 1_555
O17 C28 1_555 1_555
N6 Zn2 1_555 1_555
C20 C21 1_555 1_555
C21 C22 1_555 1_555
C22 C23 1_555 1_555
C23 H12 1_555 1_555
C24 C23 1_555 1_555
H13 C24 1_555 1_555
C25 C20 1_555 1_555
H14 C25 1_555 1_555
C27 C21 1_555 1_555
C28 O14 1_555 1_555
C35 C34 1_555 1_555
H19 C35 1_555 1_555
C36 N6 1_555 1_555
H20 C36 1_555 1_555
C37 N6 1_555 1_555
H21 C37 1_555 1_555
C38 C34 1_555 1_555
H22 C38 1_555 1_555
O18 Zn2 1_555 1_555
C5 C6 1_555 1_555
C16 C17 1_555 1_555
C18 C19 1_555 1_555
C22 C28 1_555 1_555
C24 C25 1_555 1_555
C35 C36 1_555 1_555
C37 C38 1_555 1_555
N5 C29 1_555 1_555
C29 H15 1_555 1_555
C30 C29 1_555 1_555
H16 C30 1_555 1_555
C31 C30 1_555 1_555
C32 C31 1_555 1_555
H17 C32 1_555 1_555
C33 N5 1_555 1_555
H18 C33 1_555 1_555
C32 C33 1_555 1_555
Zn6 O1 1_555 1_555
O1 C7 1_555 1_555
O2 C7 1_555 1_555

#END
