
###############################################################################
#
# This file contains modified crystal structure data generated from the
# MOF subset of the Cambridge Structural Database (CSD) v543 
# hosted by the Cambridge Crystallographic Data Centre (CCDC).
#
# This work is licensed under the Creative Commons
# Attribution-NonCommercial-ShareAlike 4.0 International License.
# To view a copy of this license, visit
# http://creativecommons.org/licenses/by-nc-sa/4.0/
# or send a letter to
# Creative Commons, PO Box 1866, Mountain View, CA 94042, USA.
#
# CIF created using the CSD Python API on 29 September 2022
# The structure has been converted into the P1 space group
# The structure has a 3D framework
# The original CSD entry IJASAO01 is in the triclinic crystal system
# The framework has been calculated to contain at least 10.0% void space
# The void calculation uses a probe of radius 1.32A, grid spacing 0.4
#
###############################################################################

data_IJASAO01
_chemical_formula_moiety         '(C60 H52 Er2 N4 O11)n'
_symmetry_cell_setting           triclinic
_symmetry_space_group_name_H-M   'P 1'
_symmetry_Int_Tables_number      1
_space_group_name_Hall           'P 1'
loop_
_symmetry_equiv_pos_site_id
_symmetry_equiv_pos_as_xyz
1 x,y,z
_cell_length_a                   9.493(7)
_cell_length_b                   13.225(10)
_cell_length_c                   16.232(12)
_cell_angle_alpha                111.729(13)
_cell_angle_beta                 100.554(12)
_cell_angle_gamma                91.879(12)
_cell_volume                     1849.7
loop_
_atom_site_label
_atom_site_type_symbol
_atom_site_fract_x
_atom_site_fract_y
_atom_site_fract_z
_atom_site_U_iso_or_equiv
_atom_site_thermal_displace_type
Er3 Er 0.08228(5) 0.45611(4) 0.15518(3) 0.0376 Uani
C5 C 0.4237(10) 0.5914(9) 0.0274(6) 0.0367 Uani
C6 C 0.3442(10) 0.6902(8) 0.0557(7) 0.0514 Uani
H4 H 0.3379 0.7232 0.0117 0.0770 Uiso
H5 H 0.3947 0.7419 0.1138 0.0770 Uiso
H6 H 0.2489 0.6689 0.0599 0.0770 Uiso
C7 C 0.0436(13) 0.2305(9) 0.0840(7) 0.0482 Uani
C8 C 0.0215(10) 0.1113(9) 0.0402(7) 0.0467 Uani
C9 C 0.0452(10) 0.0467(9) 0.0937(6) 0.0462 Uani
C10 C 0.0937(12) 0.1018(10) 0.1952(7) 0.0695 Uani
H7 H 0.1144 0.1792 0.2119 0.1040 Uiso
H8 H 0.1790 0.0727 0.2148 0.1040 Uiso
H9 H 0.0187 0.0885 0.2236 0.1040 Uiso
C13 C 0.0407(10) 0.4738(9) 0.3223(6) 0.0430 Uani
C14 C 0.0207(10) 0.4884(9) 0.4157(6) 0.0437 Uani
C17 C 0.0920(10) 0.5780(9) 0.4898(7) 0.0489 Uani
C18 C 0.1868(13) 0.6605(10) 0.4767(7) 0.0780 Uani
H16 H 0.2830 0.6398 0.4795 0.1170 Uiso
H17 H 0.1876 0.7311 0.5236 0.1170 Uiso
H18 H 0.1507 0.6637 0.4186 0.1170 Uiso
C19 C 0.4440(10) 0.4465(9) 0.1822(6) 0.0486 Uani
H19 H 0.4130 0.3727 0.1486 0.0580 Uiso
C20 C 0.5955(12) 0.4802(13) 0.2094(8) 0.0691 Uani
H20 H 0.6613 0.4296 0.1932 0.0830 Uiso
C21 C 0.6401(12) 0.5846(14) 0.2579(9) 0.0732 Uani
H21 H 0.7387 0.6066 0.2766 0.0880 Uiso
C22 C 0.5438(13) 0.6637(12) 0.2822(8) 0.0667 Uani
C23 C 0.5780(15) 0.7752(14) 0.3322(11) 0.0940 Uani
H22 H 0.6750 0.8023 0.3534 0.1130 Uiso
C24 C 0.4837(17) 0.8437(13) 0.3511(10) 0.0988 Uani
H23 H 0.5141 0.9183 0.3804 0.1180 Uiso
C25 C 0.3307(13) 0.8059(11) 0.3272(8) 0.0634 Uani
C26 C 0.2253(16) 0.8727(12) 0.3479(9) 0.0828 Uani
H24 H 0.2501 0.9463 0.3848 0.0990 Uiso
C27 C 0.0851(16) 0.8328(12) 0.3153(8) 0.0768 Uani
H25 H 0.0126 0.8778 0.3293 0.0920 Uiso
C28 C 0.0521(13) 0.7216(11) 0.2596(7) 0.0630 Uani
C29 C 0.2845(12) 0.6967(11) 0.2738(7) 0.0512 Uani
C30 C 0.3928(11) 0.6215(11) 0.2515(7) 0.0499 Uani
N1 N 0.3468(8) 0.5145(9) 0.2024(5) 0.0488 Uani
N2 N 0.1450(9) 0.6525(7) 0.2393(5) 0.0487 Uani
O1 O 0.1324(6) 0.4493(6) 0.0244(4) 0.0509 Uani
O3 O 0.1726(7) 0.2839(6) 0.1049(5) 0.0533 Uani
O6 O 0.1524(7) 0.4392(6) 0.2969(4) 0.0605 Uani
C31 C 0.8090(9) 0.5269(8) 0.0315(6) 0.0345 Uani
C32 C 0.6480(9) 0.5142(9) 0.0147(6) 0.0341 Uani
C33 C 0.5767(10) 0.6052(9) 0.0418(6) 0.0373 Uani
C34 C 0.6587(11) 0.7144(9) 0.0853(7) 0.0563 Uani
H27 H 0.6629 0.7449 0.0404 0.0850 Uiso
H28 H 0.6120 0.7612 0.1306 0.0850 Uiso
H29 H 0.7547 0.7085 0.1131 0.0850 Uiso
O8 O 0.8766(6) 0.5150(6) 0.0986(4) 0.0430 Uani
C45 C 0.0696(10) 0.5931(9) 0.5754(6) 0.0431 Uani
C46 C 0.1455(13) 0.6882(10) 0.6588(7) 0.0754 Uani
H39 H 0.1418 0.6726 0.7116 0.1130 Uiso
H40 H 0.2443 0.7002 0.6556 0.1130 Uiso
H41 H 0.0991 0.7527 0.6626 0.1130 Uiso
O11 O 0.0520(6) 0.4983(6) 0.7277(4) 0.0464 Uani
C1 C 0.1910(9) 0.4731(8) 0.9685(6) 0.0345 Uani
C2 C 0.3520(9) 0.4858(9) 0.9853(6) 0.0341 Uani
C3 C 0.4233(10) 0.3948(9) 0.9582(6) 0.0373 Uani
C4 C 0.3413(11) 0.2856(9) 0.9147(7) 0.0563 Uani
H1 H 0.3371 0.2551 0.9596 0.0850 Uiso
H2 H 0.3880 0.2388 0.8694 0.0850 Uiso
H3 H 0.2453 0.2915 0.8869 0.0850 Uiso
H12 H 0.0134 0.1112 0.8450 0.1020 Uiso
O2 O 0.1234(6) 0.4850(6) 0.9014(4) 0.0430 Uani
C35 C 0.5763(10) 0.4086(9) 0.9726(6) 0.0367 Uani
C36 C 0.6558(10) 0.3098(8) 0.9443(7) 0.0514 Uani
H30 H 0.6621 0.2768 0.9883 0.0770 Uiso
H31 H 0.6053 0.2581 0.8862 0.0770 Uiso
H32 H 0.7511 0.3311 0.9401 0.0770 Uiso
O7 O 0.8676(6) 0.5507(6) 0.9756(4) 0.0509 Uani
Er6 Er 0.91772(5) 0.54389(4) 0.84482(3) 0.0376 Uani
C41 C 0.0236(10) 0.9371(9) 0.0519(6) 0.0386 Uani
C42 C 0.0419(13) 0.8645(9) 0.1086(7) 0.0684 Uani
H36 H 0.0086 0.7897 0.0697 0.1020 Uiso
H37 H 0.1418 0.8701 0.1363 0.1020 Uiso
O10 O 0.0575(7) 0.7124(6) 0.8973(5) 0.0573 Uani
H52 H 0.0447 0.3044 0.7647 0.0760 Uiso
C15 C 0.9304(10) 0.4069(9) 0.4246(6) 0.0431 Uani
C16 C 0.8545(13) 0.3118(10) 0.3412(7) 0.0754 Uani
H13 H 0.8582 0.3274 0.2884 0.1130 Uiso
H14 H 0.7557 0.2998 0.3444 0.1130 Uiso
H15 H 0.9009 0.2473 0.3374 0.1130 Uiso
H26 H 0.9553 0.6956 0.2353 0.0760 Uiso
O4 O 0.9425(7) 0.2876(6) 0.1027(5) 0.0573 Uani
O5 O 0.9480(6) 0.5017(6) 0.2723(4) 0.0464 Uani
C43 C 0.9593(10) 0.5262(9) 0.6777(6) 0.0430 Uani
C44 C 0.9793(10) 0.5116(9) 0.5843(6) 0.0437 Uani
C47 C 0.9080(10) 0.4220(9) 0.5102(7) 0.0489 Uani
C48 C 0.8132(13) 0.3395(10) 0.5233(7) 0.0780 Uani
H42 H 0.7170 0.3602 0.5205 0.1170 Uiso
H43 H 0.8124 0.2689 0.4764 0.1170 Uiso
H44 H 0.8493 0.3363 0.5814 0.1170 Uiso
O12 O 0.8476(7) 0.5608(6) 0.7031(4) 0.0605 Uani
C11 C 0.9764(10) 0.0629(9) 0.9481(6) 0.0386 Uani
C12 C 0.9581(13) 0.1355(9) 0.8914(7) 0.0684 Uani
H10 H 0.9914 0.2103 0.9303 0.1020 Uiso
H11 H 0.8582 0.1299 0.8637 0.1020 Uiso
H38 H 0.9866 0.8888 0.1550 0.1020 Uiso
C37 C 0.9564(13) 0.7695(9) 0.9160(7) 0.0482 Uani
C38 C 0.9785(10) 0.8887(9) 0.9598(7) 0.0467 Uani
C39 C 0.9548(10) 0.9533(9) 0.9063(6) 0.0462 Uani
C40 C 0.9063(12) 0.8982(10) 0.8048(7) 0.0695 Uani
H33 H 0.8856 0.8208 0.7881 0.1040 Uiso
H34 H 0.8210 0.9273 0.7852 0.1040 Uiso
H35 H 0.9813 0.9115 0.7764 0.1040 Uiso
O9 O 0.8274(7) 0.7161(6) 0.8951(5) 0.0533 Uani
C49 C 0.5560(10) 0.5535(9) 0.8178(6) 0.0486 Uani
H45 H 0.5870 0.6273 0.8514 0.0580 Uiso
C50 C 0.4045(12) 0.5198(13) 0.7906(8) 0.0691 Uani
H46 H 0.3387 0.5704 0.8068 0.0830 Uiso
C51 C 0.3599(12) 0.4154(14) 0.7421(9) 0.0732 Uani
H47 H 0.2613 0.3934 0.7234 0.0880 Uiso
C52 C 0.4562(13) 0.3363(12) 0.7178(8) 0.0667 Uani
C53 C 0.4220(15) 0.2248(14) 0.6678(11) 0.0940 Uani
H48 H 0.3250 0.1977 0.6466 0.1130 Uiso
C54 C 0.5163(17) 0.1563(13) 0.6489(10) 0.0988 Uani
H49 H 0.4859 0.0817 0.6196 0.1180 Uiso
C55 C 0.6693(13) 0.1941(11) 0.6728(8) 0.0634 Uani
C56 C 0.7747(16) 0.1273(12) 0.6521(9) 0.0828 Uani
H50 H 0.7499 0.0537 0.6152 0.0990 Uiso
C57 C 0.9149(16) 0.1672(12) 0.6847(8) 0.0768 Uani
H51 H 0.9874 0.1222 0.6707 0.0920 Uiso
C58 C 0.9479(13) 0.2784(11) 0.7404(7) 0.0630 Uani
C59 C 0.7155(12) 0.3033(11) 0.7262(7) 0.0512 Uani
C60 C 0.6072(11) 0.3785(11) 0.7485(7) 0.0499 Uani
N3 N 0.6532(8) 0.4855(9) 0.7976(5) 0.0488 Uani
N4 N 0.8550(9) 0.3475(7) 0.7607(5) 0.0487 Uani
loop_
_atom_site_aniso_label
_atom_site_aniso_U_11
_atom_site_aniso_U_22
_atom_site_aniso_U_33
_atom_site_aniso_U_23
_atom_site_aniso_U_13
_atom_site_aniso_U_12
Er3 0.0264 0.0616 0.0345 0.0255 0.0144 0.006
C5 0.036 0.06 0.033 0.033 0.018 0.019
C6 0.048 0.05 0.064 0.025 0.022 0.018
C7 0.063 0.035 0.044 0.011 0.014 0.005
C8 0.042 0.054 0.043 0.016 0.011 0.008
C9 0.051 0.057 0.04 0.025 0.017 0.015
C10 0.078 0.079 0.055 0.032 0.009 0.009
C13 0.033 0.072 0.032 0.027 0.012 -0.001
C14 0.037 0.066 0.027 0.018 0.005 -0.003
C17 0.042 0.068 0.049 0.035 0.015 -0.008
C18 0.083 0.098 0.052 0.033 0.011 -0.039
C19 0.043 0.068 0.041 0.023 0.019 0.006
C20 0.035 0.109 0.066 0.031 0.022 0.011
C21 0.026 0.117 0.088 0.052 0.012 0.008
C22 0.06 0.082 0.047 0.019 0.001 -0.016
C23 0.049 0.1 0.123 0.042 0 -0.019
C24 0.079 0.085 0.109 0.016 0.013 -0.016
C25 0.062 0.061 0.069 0.028 0.012 0.005
C26 0.074 0.096 0.079 0.032 0.023 -0.004
C27 0.096 0.073 0.062 0.024 0.019 0.026
C28 0.072 0.07 0.049 0.028 0.008 -0.003
C29 0.055 0.065 0.046 0.031 0.02 0.007
C30 0.043 0.072 0.037 0.024 0.01 -0.011
N1 0.025 0.084 0.036 0.021 0.008 0
N2 0.04 0.084 0.048 0.042 0.033 0.024
O1 0.035 0.091 0.039 0.033 0.02 0.009
O3 0.042 0.053 0.058 0.011 0.017 -0.004
O6 0.035 0.117 0.048 0.042 0.027 0.033
C31 0.028 0.049 0.03 0.014 0.016 0.011
C32 0.03 0.049 0.032 0.023 0.011 0.009
C33 0.034 0.048 0.036 0.02 0.014 0.003
C34 0.053 0.063 0.045 0.011 0.011 0.011
O8 0.03 0.084 0.027 0.035 0.006 0.005
C45 0.04 0.064 0.031 0.025 0.009 -0.008
C46 0.091 0.079 0.044 0.011 0.018 -0.029
O11 0.038 0.08 0.031 0.028 0.016 0.011
C1 0.028 0.049 0.03 0.014 0.016 0.011
C2 0.03 0.049 0.032 0.023 0.011 0.009
C3 0.034 0.048 0.036 0.02 0.014 0.003
C4 0.053 0.063 0.045 0.011 0.011 0.011
O2 0.03 0.084 0.027 0.035 0.006 0.005
C35 0.036 0.06 0.033 0.033 0.018 0.019
C36 0.048 0.05 0.064 0.025 0.022 0.018
O7 0.035 0.091 0.039 0.033 0.02 0.009
Er6 0.0264 0.0616 0.0345 0.0255 0.0144 0.006
C41 0.049 0.032 0.042 0.018 0.018 0.01
C42 0.097 0.061 0.06 0.036 0.017 0.028
O10 0.041 0.051 0.082 0.027 0.014 0.011
C15 0.04 0.064 0.031 0.025 0.009 -0.008
C16 0.091 0.079 0.044 0.011 0.018 -0.029
O4 0.041 0.051 0.082 0.027 0.014 0.011
O5 0.038 0.08 0.031 0.028 0.016 0.011
C43 0.033 0.072 0.032 0.027 0.012 -0.001
C44 0.037 0.066 0.027 0.018 0.005 -0.003
C47 0.042 0.068 0.049 0.035 0.015 -0.008
C48 0.083 0.098 0.052 0.033 0.011 -0.039
O12 0.035 0.117 0.048 0.042 0.027 0.033
C11 0.049 0.032 0.042 0.018 0.018 0.01
C12 0.097 0.061 0.06 0.036 0.017 0.028
C37 0.063 0.035 0.044 0.011 0.014 0.005
C38 0.042 0.054 0.043 0.016 0.011 0.008
C39 0.051 0.057 0.04 0.025 0.017 0.015
C40 0.078 0.079 0.055 0.032 0.009 0.009
O9 0.042 0.053 0.058 0.011 0.017 -0.004
C49 0.043 0.068 0.041 0.023 0.019 0.006
C50 0.035 0.109 0.066 0.031 0.022 0.011
C51 0.026 0.117 0.088 0.052 0.012 0.008
C52 0.06 0.082 0.047 0.019 0.001 -0.016
C53 0.049 0.1 0.123 0.042 0 -0.019
C54 0.079 0.085 0.109 0.016 0.013 -0.016
C55 0.062 0.061 0.069 0.028 0.012 0.005
C56 0.074 0.096 0.079 0.032 0.023 -0.004
C57 0.096 0.073 0.062 0.024 0.019 0.026
C58 0.072 0.07 0.049 0.028 0.008 -0.003
C59 0.055 0.065 0.046 0.031 0.02 0.007
C60 0.043 0.072 0.037 0.024 0.01 -0.011
N3 0.025 0.084 0.036 0.021 0.008 0
N4 0.04 0.084 0.048 0.042 0.033 0.024
loop_
_geom_bond_atom_site_label_1
_geom_bond_atom_site_label_2
_geom_bond_site_symmetry_1
_geom_bond_site_symmetry_2
Er3 N1 1_555 1_555
C6 C5 1_555 1_555
H4 C6 1_555 1_555
H5 C6 1_555 1_555
H6 C6 1_555 1_555
C7 C8 1_555 1_555
C8 C9 1_555 1_555
C9 C10 1_555 1_555
C10 H7 1_555 1_555
H8 C10 1_555 1_555
H9 C10 1_555 1_555
C13 C14 1_555 1_555
C17 C14 1_555 1_555
C18 C17 1_555 1_555
H16 C18 1_555 1_555
H17 C18 1_555 1_555
H18 C18 1_555 1_555
C19 H19 1_555 1_555
C20 C19 1_555 1_555
H20 C20 1_555 1_555
C21 C20 1_555 1_555
H21 C21 1_555 1_555
C22 C21 1_555 1_555
C23 C22 1_555 1_555
H22 C23 1_555 1_555
C24 C23 1_555 1_555
H23 C24 1_555 1_555
C25 C24 1_555 1_555
C26 C25 1_555 1_555
H24 C26 1_555 1_555
C27 C26 1_555 1_555
H25 C27 1_555 1_555
C28 C27 1_555 1_555
C29 C25 1_555 1_555
C30 C22 1_555 1_555
N1 C19 1_555 1_555
N2 Er3 1_555 1_555
O1 Er3 1_555 1_555
O3 Er3 1_555 1_555
O6 Er3 1_555 1_555
C31 C32 1_555 1_555
C32 C33 1_555 1_555
C33 C5 1_555 1_555
C34 C33 1_555 1_555
H27 C34 1_555 1_555
H28 C34 1_555 1_555
H29 C34 1_555 1_555
O8 C31 1_555 1_555
C45 C17 1_555 1_555
C46 C45 1_555 1_555
H39 C46 1_555 1_555
H40 C46 1_555 1_555
H41 C46 1_555 1_555
C7 O3 1_555 1_555
C13 O6 1_555 1_555
C28 N2 1_555 1_555
C29 C30 1_555 1_555
C29 N2 1_555 1_555
C30 N1 1_555 1_555
C1 C2 1_555 1_555
C2 C3 1_555 1_555
C3 C4 1_555 1_555
C4 H1 1_555 1_555
H2 C4 1_555 1_555
H3 C4 1_555 1_555
O2 C1 1_555 1_555
C35 C3 1_555 1_555
C36 C35 1_555 1_555
H30 C36 1_555 1_555
H31 C36 1_555 1_555
H32 C36 1_555 1_555
Er6 O7 1_555 1_555
C42 C41 1_555 1_555
H36 C42 1_555 1_555
H37 C42 1_555 1_555
C15 C16 1_555 1_555
C16 H13 1_555 1_555
H14 C16 1_555 1_555
H15 C16 1_555 1_555
C43 C44 1_555 1_555
C47 C15 1_555 1_555
C48 C47 1_555 1_555
H42 C48 1_555 1_555
H43 C48 1_555 1_555
H44 C48 1_555 1_555
O12 C43 1_555 1_555
C44 C47 1_555 1_555
O12 Er6 1_555 1_555
C12 C11 1_555 1_555
H10 C12 1_555 1_555
H11 C12 1_555 1_555
C37 C38 1_555 1_555
C38 C39 1_555 1_555
C40 C39 1_555 1_555
H33 C40 1_555 1_555
H34 C40 1_555 1_555
H35 C40 1_555 1_555
O9 C37 1_555 1_555
Er6 O9 1_555 1_555
C49 H45 1_555 1_555
C50 C49 1_555 1_555
H46 C50 1_555 1_555
C51 C50 1_555 1_555
H47 C51 1_555 1_555
C52 C51 1_555 1_555
C53 C52 1_555 1_555
H48 C53 1_555 1_555
C54 C53 1_555 1_555
H49 C54 1_555 1_555
C55 C54 1_555 1_555
C56 C55 1_555 1_555
H50 C56 1_555 1_555
C57 C56 1_555 1_555
H51 C57 1_555 1_555
C58 C57 1_555 1_555
C59 C55 1_555 1_555
C60 C52 1_555 1_555
N3 Er6 1_555 1_555
N4 Er6 1_555 1_555
C49 N3 1_555 1_555
C58 N4 1_555 1_555
C59 C60 1_555 1_555
C59 N4 1_555 1_555
C60 N3 1_555 1_555

#END
