
###############################################################################
#
# This file contains modified crystal structure data generated from the
# MOF subset of the Cambridge Structural Database (CSD) v543 
# hosted by the Cambridge Crystallographic Data Centre (CCDC).
#
# This work is licensed under the Creative Commons
# Attribution-NonCommercial-ShareAlike 4.0 International License.
# To view a copy of this license, visit
# http://creativecommons.org/licenses/by-nc-sa/4.0/
# or send a letter to
# Creative Commons, PO Box 1866, Mountain View, CA 94042, USA.
#
# CIF created using the CSD Python API on 29 September 2022
# The structure has been converted into the P1 space group
# The structure has a 3D framework
# The original CSD entry IJASAO is in the triclinic crystal system
# The framework has been calculated to contain at least 10.0% void space
# The void calculation uses a probe of radius 1.32A, grid spacing 0.4
#
###############################################################################

data_IJASAO
_chemical_formula_moiety         '(C60 H52 Er2 N4 O11)n'
_symmetry_cell_setting           triclinic
_symmetry_space_group_name_H-M   'P 1'
_symmetry_Int_Tables_number      1
_space_group_name_Hall           'P 1'
loop_
_symmetry_equiv_pos_site_id
_symmetry_equiv_pos_as_xyz
1 x,y,z
_cell_length_a                   9.493(7)
_cell_length_b                   13.225(10)
_cell_length_c                   16.232(12)
_cell_angle_alpha                111.729(13)
_cell_angle_beta                 100.554(12)
_cell_angle_gamma                91.879(12)
_cell_volume                     1849.7
loop_
_atom_site_label
_atom_site_type_symbol
_atom_site_fract_x
_atom_site_fract_y
_atom_site_fract_z
_atom_site_U_iso_or_equiv
_atom_site_thermal_displace_type
Er3 Er 0.08229(5) 0.45609(4) 0.15517(3) 0.0378 Uani
O1 O 0.1327(6) 0.4491(6) 0.0244(4) 0.0506 Uani
O3 O 0.1727(7) 0.2842(6) 0.1051(4) 0.0537 Uani
O6 O 0.1524(7) 0.4387(6) 0.2969(4) 0.0607 Uani
N1 N 0.3464(8) 0.5149(8) 0.2024(5) 0.0502 Uani
N2 N 0.1456(8) 0.6532(7) 0.2396(5) 0.0491 Uani
C4 C 0.4240(10) 0.5924(9) 0.0277(6) 0.0355 Uani
C5 C 0.0439(13) 0.2308(9) 0.0843(7) 0.0476 Uani
C6 C 0.0223(10) 0.1117(9) 0.0410(7) 0.0469 Uani
C8 C 0.0454(10) 0.0481(9) 0.0944(6) 0.0470 Uani
C9 C 0.0399(10) 0.4733(9) 0.3224(6) 0.0438 Uani
C10 C 0.0202(10) 0.4889(9) 0.4159(6) 0.0435 Uani
C11 C 0.0919(10) 0.5780(9) 0.4897(7) 0.0475 Uani
C14 C 0.1858(13) 0.6611(10) 0.4769(7) 0.0778 Uani
H4 H 0.1901 0.6373 0.4127 0.1160 Uiso
H5 H 0.2831 0.6690 0.5133 0.1160 Uiso
H6 H 0.1461 0.7316 0.4964 0.1160 Uiso
C15 C 0.0943(12) 0.1029(9) 0.1960(7) 0.0681 Uani
H7 H 0.1021 0.1826 0.2140 0.1020 Uiso
H8 H 0.1886 0.0810 0.2149 0.1020 Uiso
H9 H 0.0241 0.0807 0.2252 0.1020 Uiso
C18 C 0.3444(10) 0.6901(8) 0.0557(7) 0.0521 Uani
H16 H 0.2407 0.6668 0.0408 0.0780 Uiso
H17 H 0.3644 0.7371 0.0236 0.0780 Uiso
H18 H 0.3755 0.7311 0.1213 0.0780 Uiso
C19 C 0.0495(13) 0.7244(10) 0.2608(7) 0.0643 Uani
C20 C 0.0839(15) 0.8338(10) 0.3162(8) 0.0762 Uani
H20 H 0.0102 0.8799 0.3312 0.0910 Uiso
C21 C 0.4813(14) 0.8450(12) 0.3511(10) 0.1009 Uani
H21 H 0.5111 0.9213 0.3810 0.1210 Uiso
C22 C 0.5798(14) 0.7739(13) 0.3317(10) 0.0978 Uani
H22 H 0.6790 0.8010 0.3533 0.1170 Uiso
C23 C 0.5426(11) 0.6622(11) 0.2813(7) 0.0668 Uani
C24 C 0.3932(10) 0.6228(10) 0.2518(6) 0.0499 Uani
C25 C 0.6416(11) 0.5868(12) 0.2591(9) 0.0711 Uani
H23 H 0.7420 0.6103 0.2787 0.0860 Uiso
C26 C 0.5949(10) 0.4803(12) 0.2097(8) 0.0681 Uani
H24 H 0.6620 0.4285 0.1934 0.0820 Uiso
C27 C 0.4445(9) 0.4463(9) 0.1822(6) 0.0481 Uani
H25 H 0.4131 0.3709 0.1477 0.0580 Uiso
C28 C 0.2861(11) 0.6961(10) 0.2736(7) 0.0500 Uani
C29 C 0.3313(12) 0.8056(10) 0.3267(8) 0.0639 Uani
C30 C 0.2249(14) 0.8742(12) 0.3486(9) 0.0852 Uani
H26 H 0.2507 0.9494 0.3864 0.1020 Uiso
O9 O 0.8765(6) 0.5149(5) 0.0986(4) 0.0426 Uani
O14 O 0.0523(6) 0.4984(6) 0.7278(4) 0.0474 Uani
C31 C 0.8097(9) 0.5267(8) 0.0312(6) 0.0352 Uani
C32 C 0.6475(9) 0.5133(9) 0.0143(6) 0.0358 Uani
C33 C 0.5760(10) 0.6053(9) 0.0418(6) 0.0392 Uani
C43 C 0.0704(10) 0.5924(9) 0.5753(6) 0.0437 Uani
C44 C 0.1458(13) 0.6879(10) 0.6587(7) 0.0751 Uani
H27 H 0.1152 0.6841 0.7120 0.1130 Uiso
H28 H 0.2503 0.6856 0.6661 0.1130 Uiso
H29 H 0.1211 0.7564 0.6522 0.1130 Uiso
C48 C 0.6587(11) 0.7162(9) 0.0858(7) 0.0560 Uani
H39 H 0.5917 0.7718 0.1013 0.0840 Uiso
H40 H 0.7258 0.7212 0.1411 0.0840 Uiso
H41 H 0.7129 0.7287 0.0439 0.0840 Uiso
O2 O 0.1235(6) 0.4851(5) 0.9014(4) 0.0426 Uani
C1 C 0.1903(9) 0.4733(8) 0.9688(6) 0.0352 Uani
C2 C 0.3525(9) 0.4867(9) 0.9857(6) 0.0358 Uani
C3 C 0.4240(10) 0.3947(9) 0.9582(6) 0.0392 Uani
H12 H 0.0269 0.1179 0.8506 0.1010 Uiso
C17 C 0.3413(11) 0.2838(9) 0.9142(7) 0.0560 Uani
H13 H 0.4083 0.2282 0.8987 0.0840 Uiso
H14 H 0.2742 0.2788 0.8589 0.0840 Uiso
H15 H 0.2871 0.2713 0.9561 0.0840 Uiso
Er6 Er 0.91771(5) 0.54391(4) 0.84483(3) 0.0378 Uani
O7 O 0.8673(6) 0.5509(6) 0.9756(4) 0.0506 Uani
C34 C 0.5760(10) 0.4076(9) 0.9723(6) 0.0355 Uani
C49 C 0.6556(10) 0.3099(8) 0.9443(7) 0.0521 Uani
H42 H 0.7593 0.3332 0.9592 0.0780 Uiso
H43 H 0.6356 0.2629 0.9764 0.0780 Uiso
H44 H 0.6245 0.2689 0.8787 0.0780 Uiso
C37 C 0.0238(10) 0.9371(9) 0.0522(6) 0.0404 Uani
C47 C 0.0421(13) 0.8655(9) 0.1093(7) 0.0675 Uani
H36 H 0.0243 0.7880 0.0689 0.1010 Uiso
H37 H 0.1404 0.8811 0.1459 0.1010 Uiso
O13 O 0.0573(7) 0.7122(6) 0.8968(5) 0.0569 Uani
H45 H 0.0496 0.3019 0.7637 0.0770 Uiso
O4 O 0.9427(7) 0.2878(6) 0.1032(5) 0.0569 Uani
O5 O 0.9477(6) 0.5016(6) 0.2722(4) 0.0474 Uani
C12 C 0.9296(10) 0.4076(9) 0.4247(6) 0.0437 Uani
C13 C 0.8542(13) 0.3121(10) 0.3413(7) 0.0751 Uani
H1 H 0.8848 0.3159 0.2880 0.1130 Uiso
H2 H 0.7497 0.3144 0.3339 0.1130 Uiso
H3 H 0.8789 0.2436 0.3478 0.1130 Uiso
H19 H 0.9504 0.6981 0.2363 0.0770 Uiso
O16 O 0.8476(7) 0.5613(6) 0.7031(4) 0.0607 Uani
C39 C 0.9601(10) 0.5267(9) 0.6776(6) 0.0438 Uani
C41 C 0.9798(10) 0.5111(9) 0.5841(6) 0.0435 Uani
C42 C 0.9081(10) 0.4220(9) 0.5103(7) 0.0475 Uani
C45 C 0.8142(13) 0.3389(10) 0.5231(7) 0.0778 Uani
H30 H 0.8099 0.3627 0.5873 0.1160 Uiso
H31 H 0.7169 0.3310 0.4867 0.1160 Uiso
H32 H 0.8539 0.2684 0.5036 0.1160 Uiso
C7 C 0.9762(10) 0.0629(9) 0.9478(6) 0.0404 Uani
C16 C 0.9579(13) 0.1345(9) 0.8907(7) 0.0675 Uani
H10 H 0.9757 0.2120 0.9311 0.1010 Uiso
H11 H 0.8596 0.1189 0.8541 0.1010 Uiso
H38 H 0.9731 0.8821 0.1494 0.1010 Uiso
O12 O 0.8273(7) 0.7158(6) 0.8949(4) 0.0537 Uani
N3 N 0.6536(8) 0.4851(8) 0.7976(5) 0.0502 Uani
N4 N 0.8544(8) 0.3468(7) 0.7604(5) 0.0491 Uani
C35 C 0.9561(13) 0.7692(9) 0.9157(7) 0.0476 Uani
C36 C 0.9777(10) 0.8883(9) 0.9590(7) 0.0469 Uani
C38 C 0.9546(10) 0.9519(9) 0.9056(6) 0.0470 Uani
C46 C 0.9057(12) 0.8971(9) 0.8040(7) 0.0681 Uani
H33 H 0.8979 0.8174 0.7860 0.1020 Uiso
H34 H 0.8114 0.9190 0.7851 0.1020 Uiso
H35 H 0.9759 0.9193 0.7748 0.1020 Uiso
C50 C 0.9505(13) 0.2756(10) 0.7392(7) 0.0643 Uani
C51 C 0.9161(15) 0.1662(10) 0.6838(8) 0.0762 Uani
H46 H 0.9898 0.1201 0.6688 0.0910 Uiso
C52 C 0.5187(14) 0.1550(12) 0.6489(10) 0.1009 Uani
H47 H 0.4889 0.0787 0.6190 0.1210 Uiso
C53 C 0.4202(14) 0.2261(13) 0.6683(10) 0.0978 Uani
H48 H 0.3210 0.1990 0.6467 0.1170 Uiso
C54 C 0.4574(11) 0.3378(11) 0.7187(7) 0.0668 Uani
C55 C 0.6068(10) 0.3772(10) 0.7482(6) 0.0499 Uani
C56 C 0.3584(11) 0.4132(12) 0.7409(9) 0.0711 Uani
H49 H 0.2580 0.3897 0.7213 0.0860 Uiso
C57 C 0.4051(10) 0.5197(12) 0.7903(8) 0.0681 Uani
H50 H 0.3380 0.5715 0.8066 0.0820 Uiso
C58 C 0.5555(9) 0.5537(9) 0.8178(6) 0.0481 Uani
H51 H 0.5869 0.6291 0.8523 0.0580 Uiso
C59 C 0.7139(11) 0.3039(10) 0.7264(7) 0.0500 Uani
C60 C 0.6687(12) 0.1944(10) 0.6733(8) 0.0639 Uani
C61 C 0.7751(14) 0.1258(12) 0.6514(9) 0.0852 Uani
H52 H 0.7493 0.0506 0.6136 0.1020 Uiso
loop_
_atom_site_aniso_label
_atom_site_aniso_U_11
_atom_site_aniso_U_22
_atom_site_aniso_U_33
_atom_site_aniso_U_23
_atom_site_aniso_U_13
_atom_site_aniso_U_12
Er3 0.0265 0.0619 0.0346 0.0256 0.01437 0.0059
O1 0.036 0.09 0.041 0.035 0.023 0.011
O3 0.042 0.054 0.059 0.012 0.018 -0.003
O6 0.037 0.117 0.048 0.043 0.028 0.034
N1 0.024 0.09 0.037 0.024 0.009 0.002
N2 0.044 0.085 0.044 0.042 0.032 0.02
C4 0.036 0.054 0.032 0.029 0.016 0.015
C5 0.063 0.032 0.044 0.009 0.014 0.004
C6 0.041 0.054 0.044 0.016 0.01 0.008
C8 0.051 0.057 0.043 0.026 0.018 0.016
C9 0.033 0.074 0.035 0.031 0.012 0
C10 0.037 0.065 0.029 0.019 0.007 -0.002
C11 0.042 0.064 0.048 0.033 0.015 -0.008
C14 0.081 0.1 0.05 0.031 0.011 -0.036
C15 0.079 0.078 0.049 0.028 0.009 0.012
C18 0.046 0.053 0.066 0.027 0.021 0.02
C19 0.072 0.075 0.052 0.032 0.011 0.009
C20 0.107 0.059 0.058 0.015 0.019 0.027
C21 0.077 0.086 0.114 0.017 0.009 -0.025
C22 0.048 0.112 0.123 0.045 -0.002 -0.021
C23 0.059 0.078 0.05 0.017 0 -0.019
C24 0.039 0.072 0.039 0.023 0.009 -0.014
C25 0.027 0.11 0.086 0.047 0.015 0.007
C26 0.034 0.11 0.066 0.033 0.025 0.013
C27 0.041 0.069 0.039 0.022 0.017 0.005
C28 0.05 0.066 0.045 0.031 0.017 0.001
C29 0.061 0.064 0.069 0.03 0.011 0
C30 0.072 0.102 0.083 0.036 0.021 -0.006
O9 0.03 0.082 0.027 0.034 0.005 0.005
O14 0.037 0.083 0.033 0.03 0.016 0.012
C31 0.028 0.051 0.031 0.015 0.017 0.011
C32 0.027 0.057 0.033 0.026 0.01 0.011
C33 0.034 0.053 0.04 0.025 0.015 0.005
C43 0.041 0.064 0.03 0.023 0.009 -0.009
C44 0.088 0.083 0.044 0.015 0.016 -0.032
C48 0.049 0.061 0.048 0.009 0.011 0.009
O2 0.03 0.082 0.027 0.034 0.005 0.005
C1 0.028 0.051 0.031 0.015 0.017 0.011
C2 0.027 0.057 0.033 0.026 0.01 0.011
C3 0.034 0.053 0.04 0.025 0.015 0.005
C17 0.049 0.061 0.048 0.009 0.011 0.009
Er6 0.0265 0.0619 0.0346 0.0256 0.01437 0.0059
O7 0.036 0.09 0.041 0.035 0.023 0.011
C34 0.036 0.054 0.032 0.029 0.016 0.015
C49 0.046 0.053 0.066 0.027 0.021 0.02
C37 0.049 0.037 0.044 0.021 0.018 0.011
C47 0.094 0.059 0.065 0.039 0.018 0.027
O13 0.042 0.052 0.079 0.026 0.015 0.012
O4 0.042 0.052 0.079 0.026 0.015 0.012
O5 0.037 0.083 0.033 0.03 0.016 0.012
C12 0.041 0.064 0.03 0.023 0.009 -0.009
C13 0.088 0.083 0.044 0.015 0.016 -0.032
O16 0.037 0.117 0.048 0.043 0.028 0.034
C39 0.033 0.074 0.035 0.031 0.012 0
C41 0.037 0.065 0.029 0.019 0.007 -0.002
C42 0.042 0.064 0.048 0.033 0.015 -0.008
C45 0.081 0.1 0.05 0.031 0.011 -0.036
C7 0.049 0.037 0.044 0.021 0.018 0.011
C16 0.094 0.059 0.065 0.039 0.018 0.027
O12 0.042 0.054 0.059 0.012 0.018 -0.003
N3 0.024 0.09 0.037 0.024 0.009 0.002
N4 0.044 0.085 0.044 0.042 0.032 0.02
C35 0.063 0.032 0.044 0.009 0.014 0.004
C36 0.041 0.054 0.044 0.016 0.01 0.008
C38 0.051 0.057 0.043 0.026 0.018 0.016
C46 0.079 0.078 0.049 0.028 0.009 0.012
C50 0.072 0.075 0.052 0.032 0.011 0.009
C51 0.107 0.059 0.058 0.015 0.019 0.027
C52 0.077 0.086 0.114 0.017 0.009 -0.025
C53 0.048 0.112 0.123 0.045 -0.002 -0.021
C54 0.059 0.078 0.05 0.017 0 -0.019
C55 0.039 0.072 0.039 0.023 0.009 -0.014
C56 0.027 0.11 0.086 0.047 0.015 0.007
C57 0.034 0.11 0.066 0.033 0.025 0.013
C58 0.041 0.069 0.039 0.022 0.017 0.005
C59 0.05 0.066 0.045 0.031 0.017 0.001
C60 0.061 0.064 0.069 0.03 0.011 0
C61 0.072 0.102 0.083 0.036 0.021 -0.006
loop_
_geom_bond_atom_site_label_1
_geom_bond_atom_site_label_2
_geom_bond_site_symmetry_1
_geom_bond_site_symmetry_2
Er3 O1 1_555 1_555
O3 Er3 1_555 1_555
O6 Er3 1_555 1_555
N1 Er3 1_555 1_555
N2 Er3 1_555 1_555
C5 O3 1_555 1_555
C6 C5 1_555 1_555
C8 C6 1_555 1_555
C10 C9 1_555 1_555
C11 C10 1_555 1_555
C14 C11 1_555 1_555
H4 C14 1_555 1_555
H5 C14 1_555 1_555
H6 C14 1_555 1_555
C15 C8 1_555 1_555
H7 C15 1_555 1_555
H8 C15 1_555 1_555
H9 C15 1_555 1_555
C18 C4 1_555 1_555
H16 C18 1_555 1_555
H17 C18 1_555 1_555
H18 C18 1_555 1_555
C19 N2 1_555 1_555
C20 C19 1_555 1_555
H20 C20 1_555 1_555
C21 H21 1_555 1_555
C22 C21 1_555 1_555
H22 C22 1_555 1_555
C23 C22 1_555 1_555
C24 N1 1_555 1_555
C25 C23 1_555 1_555
H23 C25 1_555 1_555
C26 C25 1_555 1_555
H24 C26 1_555 1_555
C27 N1 1_555 1_555
H25 C27 1_555 1_555
C28 N2 1_555 1_555
C29 C21 1_555 1_555
C30 C20 1_555 1_555
H26 C30 1_555 1_555
O9 C31 1_555 1_555
C31 C32 1_555 1_555
C32 C33 1_555 1_555
C33 C4 1_555 1_555
C43 C11 1_555 1_555
C44 C43 1_555 1_555
H27 C44 1_555 1_555
H28 C44 1_555 1_555
H29 C44 1_555 1_555
C48 C33 1_555 1_555
H39 C48 1_555 1_555
H40 C48 1_555 1_555
H41 C48 1_555 1_555
O6 C9 1_555 1_555
C23 C24 1_555 1_555
C24 C28 1_555 1_555
C26 C27 1_555 1_555
C28 C29 1_555 1_555
C29 C30 1_555 1_555
O2 C1 1_555 1_555
C1 C2 1_555 1_555
C2 C3 1_555 1_555
C3 C17 1_555 1_555
C17 H13 1_555 1_555
H14 C17 1_555 1_555
H15 C17 1_555 1_555
Er6 O7 1_555 1_555
C34 C3 1_555 1_555
C49 C34 1_555 1_555
H42 C49 1_555 1_555
H43 C49 1_555 1_555
H44 C49 1_555 1_555
C47 C37 1_555 1_555
H36 C47 1_555 1_555
H37 C47 1_555 1_555
C13 C12 1_555 1_555
H1 C13 1_555 1_555
H2 C13 1_555 1_555
H3 C13 1_555 1_555
O16 Er6 1_555 1_555
C39 O16 1_555 1_555
C41 C39 1_555 1_555
C42 C12 1_555 1_555
C45 C42 1_555 1_555
H30 C45 1_555 1_555
H31 C45 1_555 1_555
H32 C45 1_555 1_555
C41 C42 1_555 1_555
C16 C7 1_555 1_555
H10 C16 1_555 1_555
H11 C16 1_555 1_555
O12 Er6 1_555 1_555
N3 Er6 1_555 1_555
N4 Er6 1_555 1_555
C35 O12 1_555 1_555
C36 C35 1_555 1_555
C46 C38 1_555 1_555
H33 C46 1_555 1_555
H34 C46 1_555 1_555
H35 C46 1_555 1_555
C50 N4 1_555 1_555
C51 C50 1_555 1_555
H46 C51 1_555 1_555
C52 H47 1_555 1_555
C53 C52 1_555 1_555
H48 C53 1_555 1_555
C54 C53 1_555 1_555
C55 N3 1_555 1_555
C56 C54 1_555 1_555
H49 C56 1_555 1_555
C57 C56 1_555 1_555
H50 C57 1_555 1_555
C58 N3 1_555 1_555
H51 C58 1_555 1_555
C59 N4 1_555 1_555
C60 C52 1_555 1_555
C61 C51 1_555 1_555
H52 C61 1_555 1_555
C36 C38 1_555 1_555
C54 C55 1_555 1_555
C55 C59 1_555 1_555
C57 C58 1_555 1_555
C59 C60 1_555 1_555
C60 C61 1_555 1_555

#END
