
###############################################################################
#
# This file contains modified crystal structure data generated from the
# MOF subset of the Cambridge Structural Database (CSD) v543 
# hosted by the Cambridge Crystallographic Data Centre (CCDC).
#
# This work is licensed under the Creative Commons
# Attribution-NonCommercial-ShareAlike 4.0 International License.
# To view a copy of this license, visit
# http://creativecommons.org/licenses/by-nc-sa/4.0/
# or send a letter to
# Creative Commons, PO Box 1866, Mountain View, CA 94042, USA.
#
# CIF created using the CSD Python API on 29 September 2022
# The structure has been converted into the P1 space group
# The structure has a 3D framework
# The original CSD entry IJEJEP is in the tetragonal crystal system
# The framework has been calculated to contain at least 10.0% void space
# The void calculation uses a probe of radius 1.32A, grid spacing 0.4
# The framework is charged, counterions have been retained in the structure
# H atom positions have been added when not included in the experimental data
# Generated hydrogen atom positions removed from atoms on special positions
#
###############################################################################

data_IJEJEP
_chemical_formula_moiety         '(C1152 H976 K24 Mn32 N112 O344 U32 26-)n'
_symmetry_cell_setting           triclinic
_symmetry_space_group_name_H-M   'P 1'
_symmetry_Int_Tables_number      1
_space_group_name_Hall           'P 1'
loop_
_symmetry_equiv_pos_site_id
_symmetry_equiv_pos_as_xyz
1 x,y,z
_cell_length_a                   34.2254(9)
_cell_length_b                   34.2254(9)
_cell_length_c                   66.4566(18)
_cell_angle_alpha                90
_cell_angle_beta                 90
_cell_angle_gamma                90
_cell_volume                     77845.8
loop_
_atom_site_label
_atom_site_type_symbol
_atom_site_fract_x
_atom_site_fract_y
_atom_site_fract_z
N9 N 0.500000 0.0107(3) 0.70349(12)
O26 O 0.21782(16) 0.01935(15) 0.78493(8)
Mn3 Mn 0.500000 0.01539(5) 0.67349(2)
C98 C 0.3404(2) 0.0012(2) 0.75486(11)
N10 N 0.44152(14) 0.01447(17) 0.67344(7)
N11 N 0.500000 0.0177(2) 0.64329(10)
C101 C 0.3592(2) 0.0374(3) 0.75122(12)
H51 H 0.352474 0.059824 0.758914
C102 C 0.3985(2) 0.0067(2) 0.72574(11)
O30 O 0.30506(17) 0.02663(16) 0.78258(8)
C103 C 0.3874(2) 0.0399(3) 0.73645(12)
H52 H 0.399355 0.064363 0.733566
O31 O 0.27795(14) 0.02948(14) 0.57894(7)
C104 C 0.4295(2) 0.0096(2) 0.70983(10)
C105 C 0.4680(2) 0.0089(3) 0.71617(10)
C106 C 0.4808(2) 0.0051(3) 0.73637(11)
H53 H 0.464532 0.003009 0.747890
C107 C 0.41714(18) 0.0118(2) 0.68997(10)
C108 C 0.37724(19) 0.0115(2) 0.68365(11)
H54 H 0.354885 0.010618 0.692106
O33 O 0.500000 0.0809(3) 0.67561(12)
C109 C 0.41716(18) 0.0148(2) 0.65698(9)
C110 C 0.37741(19) 0.0128(2) 0.66367(11)
H55 H 0.354986 0.012383 0.655247
C111 C 0.42936(18) 0.0172(2) 0.63682(9)
C112 C 0.4799(2) 0.0230(3) 0.61022(10)
H56 H 0.463399 0.025264 0.598775
C113 C 0.46743(19) 0.0189(2) 0.63090(9)
C114 C 0.37334(19) 0.0463(2) 0.61820(10)
H57 H 0.376693 0.069766 0.625637
C115 C 0.39852(19) 0.0156(2) 0.62112(9)
C116 C 0.3427(2) 0.0432(2) 0.60427(10)
H58 H 0.324504 0.063952 0.602794
C117 C 0.3391(2) 0.0101(2) 0.59279(10)
C120 C 0.3065(2) 0.0060(2) 0.57837(11)
C122 C 0.6596(2) 0.0012(2) 0.75486(11)
N12 N 0.55848(14) 0.01447(17) 0.67344(7)
C125 C 0.6408(2) 0.0374(3) 0.75122(12)
H63 H 0.647526 0.059824 0.758914
C126 C 0.6015(2) 0.0067(2) 0.72574(11)
O37 O 0.69494(17) 0.02663(16) 0.78258(8)
C127 C 0.6126(2) 0.0399(3) 0.73645(12)
H64 H 0.600645 0.064363 0.733566
O38 O 0.72205(14) 0.02948(14) 0.57894(7)
C128 C 0.5705(2) 0.0096(2) 0.70983(10)
C129 C 0.5320(2) 0.0089(3) 0.71617(10)
C130 C 0.5192(2) 0.0051(3) 0.73637(11)
H65 H 0.535468 0.003009 0.747890
C131 C 0.58286(18) 0.0118(2) 0.68997(10)
C132 C 0.62276(19) 0.0115(2) 0.68365(11)
H66 H 0.645115 0.010618 0.692106
C133 C 0.58284(18) 0.0148(2) 0.65698(9)
C134 C 0.62259(19) 0.0128(2) 0.66367(11)
H67 H 0.645014 0.012383 0.655247
C135 C 0.57064(18) 0.0172(2) 0.63682(9)
C136 C 0.5201(2) 0.0230(3) 0.61022(10)
H68 H 0.536601 0.025264 0.598775
C137 C 0.53257(19) 0.0189(2) 0.63090(9)
C138 C 0.62666(19) 0.0463(2) 0.61820(10)
H69 H 0.623307 0.069766 0.625637
C139 C 0.60148(19) 0.0156(2) 0.62112(9)
C140 C 0.6573(2) 0.0432(2) 0.60427(10)
H70 H 0.675496 0.063952 0.602794
C141 C 0.6609(2) 0.0101(2) 0.59279(10)
C144 C 0.6935(2) 0.0060(2) 0.57837(11)
O53 O 0.27135(16) 0.05646(16) 0.81551(8)
O57 O 0.22052(14) 0.02795(14) 0.82894(7)
U1 U 0.25137(2) 0.50529(2) 0.80036(2)
K1 K 0.250000 0.58508(8) 0.750000
C1 C 0.3094(2) 0.5008(2) 0.76979(13)
N1 N 0.500000 0.4893(3) 0.70349(12)
Mn1 Mn 0.000000 0.750000 0.79902(4)
O1 O 0.21782(16) 0.48065(15) 0.78493(8)
O2 O 0.28425(15) 0.53000(17) 0.81601(8)
Mn2 Mn 0.500000 0.48461(5) 0.67349(2)
C2 C 0.3404(2) 0.4988(2) 0.75486(11)
N2 N 0.44152(14) 0.48553(17) 0.67344(7)
O3 O 0.22308(13) 0.56733(13) 0.78716(7)
C3 C 0.3810(2) 0.5286(2) 0.72995(11)
H1 H 0.389021 0.551387 0.722895
N3 N 0.000000 0.6906(2) 0.79869(13)
O4 O 0.19904(13) 0.54358(13) 0.81498(7)
C4 C 0.3522(2) 0.5312(2) 0.74431(10)
H2 H 0.340218 0.555751 0.746944
N4 N 0.500000 0.4823(2) 0.64329(10)
O5 O 0.28769(14) 0.53080(15) 0.77115(8)
C5 C 0.3592(2) 0.4626(3) 0.75122(12)
H3 H 0.352474 0.440176 0.758914
N5 N 0.0588(2) 0.750000 0.79923(14)
O6 O 0.30646(16) 0.52135(16) 0.56551(8)
C6 C 0.3985(2) 0.4933(2) 0.72574(11)
O7 O 0.30506(17) 0.47337(16) 0.78258(8)
C7 C 0.3874(2) 0.4601(3) 0.73645(12)
H4 H 0.399355 0.435637 0.733566
O8 O 0.27795(14) 0.47052(14) 0.57894(7)
C8 C 0.4295(2) 0.4904(2) 0.70983(10)
O9 O 0.000000 0.750000 0.7660(2)
C9 C 0.4680(2) 0.4911(3) 0.71617(10)
C10 C 0.4808(2) 0.4949(3) 0.73637(11)
H5 H 0.464532 0.496991 0.747890
O10 O 0.000000 0.750000 0.83337(19)
C11 C 0.41714(18) 0.4882(2) 0.68997(10)
O11 O 0.500000 0.5510(3) 0.66961(12)
C12 C 0.37724(19) 0.4885(2) 0.68365(11)
H6 H 0.354885 0.489382 0.692106
O12 O 0.500000 0.4191(3) 0.67561(12)
C13 C 0.41716(18) 0.4852(2) 0.65698(9)
C14 C 0.37741(19) 0.4872(2) 0.66367(11)
H7 H 0.354986 0.487617 0.655247
O13 O 0.3047(3) 0.6333(3) 0.76311(13)
C15 C 0.42936(18) 0.4828(2) 0.63682(9)
C16 C 0.4799(2) 0.4770(3) 0.61022(10)
H8 H 0.463399 0.474736 0.598775
C17 C 0.46743(19) 0.4811(2) 0.63090(9)
C18 C 0.37334(19) 0.4537(2) 0.61820(10)
H9 H 0.376693 0.430234 0.625637
C19 C 0.39852(19) 0.4844(2) 0.62112(9)
C20 C 0.3427(2) 0.4568(2) 0.60427(10)
H10 H 0.324504 0.436048 0.602794
C21 C 0.3391(2) 0.4899(2) 0.59279(10)
C22 C 0.3655(2) 0.5209(2) 0.59520(12)
H11 H 0.363445 0.543633 0.587083
C23 C 0.3942(2) 0.5177(3) 0.60942(12)
H12 H 0.411625 0.538996 0.611362
C24 C 0.3065(2) 0.4940(2) 0.57837(11)
C25 C 0.19703(19) 0.56864(18) 0.80072(10)
C26 C 0.16517(18) 0.59679(18) 0.80042(10)
C27 C 0.1614(2) 0.62336(18) 0.78460(10)
H13 H 0.180372 0.623796 0.774156
C28 C 0.1304(2) 0.64894(19) 0.78406(12)
H14 H 0.127931 0.666644 0.773124
C29 C 0.1375(2) 0.5965(2) 0.81577(11)
H15 H 0.140093 0.579072 0.826805
C30 C 0.1056(2) 0.6226(2) 0.81470(12)
H16 H 0.085996 0.621763 0.824803
C31 C 0.10246(18) 0.64921(19) 0.79935(12)
C32 C 0.07102(19) 0.67905(18) 0.79914(12)
C33 C 0.1220(2) 0.7303(2) 0.80369(14)
H17 H 0.144097 0.713954 0.805493
C34 C 0.08248(18) 0.71764(19) 0.80048(12)
C35 C 0.03218(19) 0.66671(18) 0.79778(12)
C36 C 0.0191(2) 0.62688(19) 0.79610(13)
H18 H 0.035430 0.604486 0.795152
C37 C 0.6906(2) 0.5008(2) 0.76979(13)
C38 C 0.6596(2) 0.4988(2) 0.75486(11)
N6 N 0.55848(14) 0.48553(17) 0.67344(7)
C39 C 0.6190(2) 0.5286(2) 0.72995(11)
H19 H 0.610979 0.551387 0.722895
C40 C 0.6478(2) 0.5312(2) 0.74431(10)
H20 H 0.659782 0.555751 0.746944
O14 O 0.71231(14) 0.53080(15) 0.77115(8)
C41 C 0.6408(2) 0.4626(3) 0.75122(12)
H21 H 0.647526 0.440176 0.758914
O15 O 0.69354(16) 0.52135(16) 0.56551(8)
C42 C 0.6015(2) 0.4933(2) 0.72574(11)
O16 O 0.69494(17) 0.47337(16) 0.78258(8)
C43 C 0.6126(2) 0.4601(3) 0.73645(12)
H22 H 0.600645 0.435637 0.733566
O17 O 0.72205(14) 0.47052(14) 0.57894(7)
C44 C 0.5705(2) 0.4904(2) 0.70983(10)
C45 C 0.5320(2) 0.4911(3) 0.71617(10)
C46 C 0.5192(2) 0.4949(3) 0.73637(11)
H23 H 0.535468 0.496991 0.747890
C47 C 0.58286(18) 0.4882(2) 0.68997(10)
C48 C 0.62276(19) 0.4885(2) 0.68365(11)
H24 H 0.645115 0.489382 0.692106
C49 C 0.58284(18) 0.4852(2) 0.65698(9)
C50 C 0.62259(19) 0.4872(2) 0.66367(11)
H25 H 0.645014 0.487617 0.655247
C51 C 0.57064(18) 0.4828(2) 0.63682(9)
C52 C 0.5201(2) 0.4770(3) 0.61022(10)
H26 H 0.536601 0.474736 0.598775
C53 C 0.53257(19) 0.4811(2) 0.63090(9)
C54 C 0.62666(19) 0.4537(2) 0.61820(10)
H27 H 0.623307 0.430234 0.625637
C55 C 0.60148(19) 0.4844(2) 0.62112(9)
C56 C 0.6573(2) 0.4568(2) 0.60427(10)
H28 H 0.675496 0.436048 0.602794
C57 C 0.6609(2) 0.4899(2) 0.59279(10)
C58 C 0.6345(2) 0.5209(2) 0.59520(12)
H29 H 0.636555 0.543633 0.587083
C59 C 0.6058(2) 0.5177(3) 0.60942(12)
H30 H 0.588375 0.538996 0.611362
C60 C 0.6935(2) 0.4940(2) 0.57837(11)
O20 O 0.22308(13) 0.93267(13) 0.78716(7)
N8 N 0.000000 0.8094(2) 0.79869(13)
O21 O 0.19904(13) 0.95642(13) 0.81498(7)
C73 C 0.19703(19) 0.93136(18) 0.80072(10)
C74 C 0.16517(18) 0.90321(18) 0.80042(10)
C75 C 0.1614(2) 0.87664(18) 0.78460(10)
H37 H 0.180372 0.876204 0.774156
C76 C 0.1304(2) 0.85106(19) 0.78406(12)
H38 H 0.127931 0.833356 0.773124
C77 C 0.1375(2) 0.9035(2) 0.81577(11)
H39 H 0.140093 0.920928 0.826805
C78 C 0.1056(2) 0.8774(2) 0.81470(12)
H40 H 0.085996 0.878237 0.824803
C79 C 0.10246(18) 0.85079(19) 0.79935(12)
C80 C 0.07102(19) 0.82095(18) 0.79914(12)
C81 C 0.1220(2) 0.7697(2) 0.80369(14)
H41 H 0.144097 0.786046 0.805493
C82 C 0.08248(18) 0.78236(19) 0.80048(12)
C83 C 0.03218(19) 0.83329(18) 0.79778(12)
C84 C 0.0191(2) 0.87312(19) 0.79610(13)
H42 H 0.035430 0.895514 0.795152
O24 O 0.1953(3) 0.6333(3) 0.73689(13)
K2 K 0.250000 0.91492(8) 0.750000
O25 O 0.1953(3) 0.8667(3) 0.73689(13)
U2 U 0.25137(2) 0.99471(2) 0.80036(2)
C97 C 0.3094(2) 0.9992(2) 0.76979(13)
O27 O 0.28425(15) 0.97000(17) 0.81601(8)
C99 C 0.3810(2) 0.9714(2) 0.72995(11)
H49 H 0.389021 0.948613 0.722895
C100 C 0.3522(2) 0.9688(2) 0.74431(10)
H50 H 0.340218 0.944249 0.746944
O28 O 0.28769(14) 0.96920(15) 0.77115(8)
O29 O 0.30646(16) 0.97865(16) 0.56551(8)
O32 O 0.500000 0.9490(3) 0.66961(12)
O34 O 0.3047(3) 0.8667(3) 0.76311(13)
C118 C 0.3655(2) 0.9791(2) 0.59520(12)
H59 H 0.363445 0.956367 0.587083
C119 C 0.3942(2) 0.9823(3) 0.60942(12)
H60 H 0.411625 0.961004 0.611362
C121 C 0.6906(2) 0.9992(2) 0.76979(13)
C123 C 0.6190(2) 0.9714(2) 0.72995(11)
H61 H 0.610979 0.948613 0.722895
C124 C 0.6478(2) 0.9688(2) 0.74431(10)
H62 H 0.659782 0.944249 0.746944
O35 O 0.71231(14) 0.96920(15) 0.77115(8)
O36 O 0.69354(16) 0.97865(16) 0.56551(8)
C142 C 0.6345(2) 0.9791(2) 0.59520(12)
H71 H 0.636555 0.956367 0.587083
C143 C 0.6058(2) 0.9823(3) 0.60942(12)
H72 H 0.588375 0.961004 0.611362
U3 U 0.24471(2) 0.50137(2) 0.55036(2)
O39 O 0.26935(15) 0.46782(16) 0.53493(8)
O40 O 0.22000(17) 0.53425(15) 0.56601(8)
U4 U 0.74863(2) 0.50529(2) 0.80036(2)
O41 O 0.78218(16) 0.48065(15) 0.78493(8)
O42 O 0.71575(15) 0.53000(17) 0.81601(8)
U5 U 0.75529(2) 0.99863(2) 0.55036(2)
U7 U 0.74863(2) 0.99471(2) 0.80036(2)
U9 U 0.24471(2) 0.99863(2) 0.55036(2)
U10 U 0.75529(2) 0.50137(2) 0.55036(2)
K4 K 0.750000 0.91492(8) 0.750000
K6 K 0.750000 0.58508(8) 0.750000
O43 O 0.27692(13) 0.56733(13) 0.71284(7)
O44 O 0.18267(13) 0.47308(13) 0.53716(7)
O45 O 0.77692(13) 0.56733(13) 0.78716(7)
O46 O 0.27692(13) 0.93267(13) 0.71284(7)
O47 O 0.20642(13) 0.44904(13) 0.56498(7)
O48 O 0.80096(13) 0.54358(13) 0.81498(7)
O49 O 0.21231(14) 0.53080(15) 0.72885(8)
O50 O 0.21920(15) 0.53769(14) 0.52115(8)
O51 O 0.21231(14) 0.96920(15) 0.72885(8)
O52 O 0.27135(16) 0.44354(16) 0.81551(8)
O54 O 0.72865(16) 0.44354(16) 0.81551(8)
O55 O 0.27663(16) 0.55506(17) 0.53258(8)
O56 O 0.22052(14) 0.47205(14) 0.82894(7)
O58 O 0.77948(14) 0.47205(14) 0.82894(7)
Mn1_2 Mn 1.000000 0.750000 0.79902(4)
N3_2 N 1.000000 0.6906(2) 0.79869(13)
O9_2 O 1.000000 0.750000 0.7660(2)
O10_2 O 1.000000 0.750000 0.83337(19)
N7 N 0.9412(2) 0.750000 0.79923(14)
C61 C 0.80297(19) 0.56864(18) 0.80072(10)
C62 C 0.83483(18) 0.59679(18) 0.80042(10)
C63 C 0.8386(2) 0.62336(18) 0.78460(10)
H31 H 0.819628 0.623796 0.774156
C64 C 0.8696(2) 0.64894(19) 0.78406(12)
H32 H 0.872069 0.666644 0.773124
C65 C 0.8625(2) 0.5965(2) 0.81577(11)
H33 H 0.859907 0.579072 0.826805
C66 C 0.8944(2) 0.6226(2) 0.81470(12)
H34 H 0.914004 0.621763 0.824803
C67 C 0.89754(18) 0.64921(19) 0.79935(12)
C68 C 0.92898(19) 0.67905(18) 0.79914(12)
C69 C 0.8780(2) 0.7303(2) 0.80369(14)
H35 H 0.855903 0.713954 0.805493
C70 C 0.91752(18) 0.71764(19) 0.80048(12)
C71 C 0.96782(19) 0.66671(18) 0.79778(12)
C72 C 0.9809(2) 0.62688(19) 0.79610(13)
H36 H 0.964570 0.604486 0.795152
N8_2 N 1.000000 0.8094(2) 0.79869(13)
O22 O 0.77692(13) 0.93267(13) 0.78716(7)
O23 O 0.80096(13) 0.95642(13) 0.81498(7)
C85 C 0.80297(19) 0.93136(18) 0.80072(10)
C86 C 0.83483(18) 0.90321(18) 0.80042(10)
C87 C 0.8386(2) 0.87664(18) 0.78460(10)
H43 H 0.819628 0.876204 0.774156
C88 C 0.8696(2) 0.85106(19) 0.78406(12)
H44 H 0.872069 0.833356 0.773124
C89 C 0.8625(2) 0.9035(2) 0.81577(11)
H45 H 0.859907 0.920928 0.826805
C90 C 0.8944(2) 0.8774(2) 0.81470(12)
H46 H 0.914004 0.878237 0.824803
C91 C 0.89754(18) 0.85079(19) 0.79935(12)
C92 C 0.92898(19) 0.82095(18) 0.79914(12)
C93 C 0.8780(2) 0.7697(2) 0.80369(14)
H47 H 0.855903 0.786046 0.805493
C94 C 0.91752(18) 0.78236(19) 0.80048(12)
C95 C 0.96782(19) 0.83329(18) 0.79778(12)
C96 C 0.9809(2) 0.87312(19) 0.79610(13)
H48 H 0.964570 0.895514 0.795152
U1_2 U 0.24863(2) 0.49471(2) 0.30036(2)
K1_2 K 0.250000 0.41492(8) 0.250000
C1_2 C 0.1906(2) 0.4992(2) 0.26979(13)
N1_2 N 0.000000 0.5107(3) 0.20349(12)
Mn1_3 Mn 0.500000 0.250000 0.29902(4)
O1_2 O 0.28218(16) 0.51935(15) 0.28493(8)
O2_2 O 0.21575(15) 0.47000(17) 0.31601(8)
Mn2_2 Mn 0.000000 0.51539(5) 0.17349(2)
C2_2 C 0.1596(2) 0.5012(2) 0.25486(11)
N2_2 N 0.05848(14) 0.51447(17) 0.17344(7)
O3_2 O 0.27692(13) 0.43267(13) 0.28716(7)
C3_2 C 0.1190(2) 0.4714(2) 0.22995(11)
H1_2 H 0.110979 0.448613 0.222895
N3_3 N 0.500000 0.3094(2) 0.29869(13)
O4_2 O 0.30096(13) 0.45642(13) 0.31498(7)
C4_2 C 0.1478(2) 0.4688(2) 0.24431(10)
H2_2 H 0.159782 0.444249 0.246944
N4_2 N 0.000000 0.5177(2) 0.14329(10)
O5_2 O 0.21231(14) 0.46920(15) 0.27115(8)
C5_2 C 0.1408(2) 0.5374(3) 0.25122(12)
H3_2 H 0.147526 0.559824 0.258914
N5_2 N 0.4412(2) 0.250000 0.29923(14)
O6_2 O 0.19354(16) 0.47865(16) 0.06551(8)
C6_2 C 0.1015(2) 0.5067(2) 0.22574(11)
O7_2 O 0.19494(17) 0.52663(16) 0.28258(8)
C7_2 C 0.1126(2) 0.5399(3) 0.23645(12)
H4_2 H 0.100645 0.564363 0.233566
O8_2 O 0.22205(14) 0.52948(14) 0.07894(7)
C8_2 C 0.0705(2) 0.5096(2) 0.20983(10)
O9_3 O 0.500000 0.250000 0.2660(2)
C9_2 C 0.0320(2) 0.5089(3) 0.21617(10)
C10_2 C 0.0192(2) 0.5051(3) 0.23637(11)
H5_2 H 0.035468 0.503009 0.247890
O10_3 O 0.500000 0.250000 0.33337(19)
C11_2 C 0.08286(18) 0.5118(2) 0.18997(10)
O11_2 O 0.000000 0.4490(3) 0.16961(12)
C12_2 C 0.12276(19) 0.5115(2) 0.18365(11)
H6_2 H 0.145115 0.510618 0.192106
O12_2 O 0.000000 0.5809(3) 0.17561(12)
C13_2 C 0.08284(18) 0.5148(2) 0.15698(9)
C14_2 C 0.12259(19) 0.5128(2) 0.16367(11)
H7_2 H 0.145014 0.512383 0.155247
O13_2 O 0.1953(3) 0.3667(3) 0.26311(13)
C15_2 C 0.07064(18) 0.5172(2) 0.13682(9)
C16_2 C 0.0201(2) 0.5230(3) 0.11022(10)
H8_2 H 0.036601 0.525264 0.098775
C17_2 C 0.03257(19) 0.5189(2) 0.13090(9)
C18_2 C 0.12666(19) 0.5463(2) 0.11820(10)
H9_2 H 0.123307 0.569766 0.125637
C19_2 C 0.10148(19) 0.5156(2) 0.12112(9)
C20_2 C 0.1573(2) 0.5432(2) 0.10427(10)
H10_2 H 0.175496 0.563952 0.102794
C21_2 C 0.1609(2) 0.5101(2) 0.09279(10)
C22_2 C 0.1345(2) 0.4791(2) 0.09520(12)
H11_2 H 0.136555 0.456367 0.087083
C23_2 C 0.1058(2) 0.4823(3) 0.10942(12)
H12_2 H 0.088375 0.461004 0.111362
C24_2 C 0.1935(2) 0.5060(2) 0.07837(11)
C25_2 C 0.30297(19) 0.43136(18) 0.30072(10)
C26_2 C 0.33483(18) 0.40321(18) 0.30042(10)
C27_2 C 0.3386(2) 0.37664(18) 0.28460(10)
H13_2 H 0.319628 0.376204 0.274156
C28_2 C 0.3696(2) 0.35106(19) 0.28406(12)
H14_2 H 0.372069 0.333356 0.273124
C29_2 C 0.3625(2) 0.4035(2) 0.31577(11)
H15_2 H 0.359907 0.420928 0.326805
C30_2 C 0.3944(2) 0.3774(2) 0.31470(12)
H16_2 H 0.414004 0.378237 0.324803
C31_2 C 0.39754(18) 0.35079(19) 0.29935(12)
C32_2 C 0.42898(19) 0.32095(18) 0.29914(12)
C33_2 C 0.3780(2) 0.2697(2) 0.30369(14)
H17_2 H 0.355903 0.286046 0.305493
C34_2 C 0.41752(18) 0.28236(19) 0.30048(12)
C35_2 C 0.46782(19) 0.33329(18) 0.29778(12)
C36_2 C 0.4809(2) 0.37312(19) 0.29610(13)
H18_2 H 0.464570 0.395514 0.295152
O18 O 0.72308(13) 0.43267(13) 0.28716(7)
O19 O 0.69904(13) 0.45642(13) 0.31498(7)
N7_2 N 0.5588(2) 0.250000 0.29923(14)
C61_2 C 0.69703(19) 0.43136(18) 0.30072(10)
C62_2 C 0.66517(18) 0.40321(18) 0.30042(10)
C63_2 C 0.6614(2) 0.37664(18) 0.28460(10)
H31_2 H 0.680372 0.376204 0.274156
C64_2 C 0.6304(2) 0.35106(19) 0.28406(12)
H32_2 H 0.627931 0.333356 0.273124
C65_2 C 0.6375(2) 0.4035(2) 0.31577(11)
H33_2 H 0.640093 0.420928 0.326805
C66_2 C 0.6056(2) 0.3774(2) 0.31470(12)
H34_2 H 0.585996 0.378237 0.324803
C67_2 C 0.60246(18) 0.35079(19) 0.29935(12)
C68_2 C 0.57102(19) 0.32095(18) 0.29914(12)
C69_2 C 0.6220(2) 0.2697(2) 0.30369(14)
H35_2 H 0.644097 0.286046 0.305493
C70_2 C 0.58248(18) 0.28236(19) 0.30048(12)
C71_2 C 0.53218(19) 0.33329(18) 0.29778(12)
C72_2 C 0.5191(2) 0.37312(19) 0.29610(13)
H36_2 H 0.535430 0.395514 0.295152
O20_2 O 0.27692(13) 0.06733(13) 0.28716(7)
N8_3 N 0.500000 0.1906(2) 0.29869(13)
O21_2 O 0.30096(13) 0.04358(13) 0.31498(7)
C73_2 C 0.30297(19) 0.06864(18) 0.30072(10)
C74_2 C 0.33483(18) 0.09679(18) 0.30042(10)
C75_2 C 0.3386(2) 0.12336(18) 0.28460(10)
H37_2 H 0.319628 0.123796 0.274156
C76_2 C 0.3696(2) 0.14894(19) 0.28406(12)
H38_2 H 0.372069 0.166644 0.273124
C77_2 C 0.3625(2) 0.0965(2) 0.31577(11)
H39_2 H 0.359907 0.079072 0.326805
C78_2 C 0.3944(2) 0.1226(2) 0.31470(12)
H40_2 H 0.414004 0.121763 0.324803
C79_2 C 0.39754(18) 0.14921(19) 0.29935(12)
C80_2 C 0.42898(19) 0.17905(18) 0.29914(12)
C81_2 C 0.3780(2) 0.2303(2) 0.30369(14)
H41_2 H 0.355903 0.213954 0.305493
C82_2 C 0.41752(18) 0.21764(19) 0.30048(12)
C83_2 C 0.46782(19) 0.16671(18) 0.29778(12)
C84_2 C 0.4809(2) 0.12688(19) 0.29610(13)
H42_2 H 0.464570 0.104486 0.295152
O22_2 O 0.72308(13) 0.06733(13) 0.28716(7)
O23_2 O 0.69904(13) 0.04358(13) 0.31498(7)
C85_2 C 0.69703(19) 0.06864(18) 0.30072(10)
C86_2 C 0.66517(18) 0.09679(18) 0.30042(10)
C87_2 C 0.6614(2) 0.12336(18) 0.28460(10)
H43_2 H 0.680372 0.123796 0.274156
C88_2 C 0.6304(2) 0.14894(19) 0.28406(12)
H44_2 H 0.627931 0.166644 0.273124
C89_2 C 0.6375(2) 0.0965(2) 0.31577(11)
H45_2 H 0.640093 0.079072 0.326805
C90_2 C 0.6056(2) 0.1226(2) 0.31470(12)
H46_2 H 0.585996 0.121763 0.324803
C91_2 C 0.60246(18) 0.14921(19) 0.29935(12)
C92_2 C 0.57102(19) 0.17905(18) 0.29914(12)
C93_2 C 0.6220(2) 0.2303(2) 0.30369(14)
H47_2 H 0.644097 0.213954 0.305493
C94_2 C 0.58248(18) 0.21764(19) 0.30048(12)
C95_2 C 0.53218(19) 0.16671(18) 0.29778(12)
C96_2 C 0.5191(2) 0.12688(19) 0.29610(13)
H48_2 H 0.535430 0.104486 0.295152
O24_2 O 0.3047(3) 0.3667(3) 0.23689(13)
K2_2 K 0.250000 0.08508(8) 0.250000
O25_2 O 0.3047(3) 0.1333(3) 0.23689(13)
U2_2 U 0.24863(2) 0.00529(2) 0.30036(2)
C97_2 C 0.1906(2) 0.0008(2) 0.26979(13)
O27_2 O 0.21575(15) 0.03000(17) 0.31601(8)
C99_2 C 0.1190(2) 0.0286(2) 0.22995(11)
H49_2 H 0.110979 0.051387 0.222895
C100_2 C 0.1478(2) 0.0312(2) 0.24431(10)
H50_2 H 0.159782 0.055751 0.246944
O28_2 O 0.21231(14) 0.03080(15) 0.27115(8)
O29_2 O 0.19354(16) 0.02135(16) 0.06551(8)
O32_2 O 0.000000 0.0510(3) 0.16961(12)
O34_2 O 0.1953(3) 0.1333(3) 0.26311(13)
C118_2 C 0.1345(2) 0.0209(2) 0.09520(12)
H59_2 H 0.136555 0.043633 0.087083
C119_2 C 0.1058(2) 0.0177(3) 0.10942(12)
H60_2 H 0.088375 0.038996 0.111362
U3_2 U 0.25529(2) 0.49863(2) 0.05036(2)
O39_2 O 0.23065(15) 0.53218(16) 0.03493(8)
O40_2 O 0.28000(17) 0.46575(15) 0.06601(8)
U6 U 0.75137(2) 0.00529(2) 0.30036(2)
U8 U 0.75137(2) 0.49471(2) 0.30036(2)
U9_2 U 0.25529(2) 0.00137(2) 0.05036(2)
K3 K 0.750000 0.08508(8) 0.250000
K5 K 0.750000 0.41492(8) 0.250000
O43_2 O 0.22308(13) 0.43267(13) 0.21284(7)
O44_2 O 0.31733(13) 0.52692(13) 0.03716(7)
O46_2 O 0.22308(13) 0.06733(13) 0.21284(7)
O47_2 O 0.29358(13) 0.55096(13) 0.06498(7)
O49_2 O 0.28769(14) 0.46920(15) 0.22885(8)
O50_2 O 0.28080(15) 0.46231(14) 0.02115(8)
O51_2 O 0.28769(14) 0.03080(15) 0.22885(8)
O52_2 O 0.22865(16) 0.55646(16) 0.31551(8)
O55_2 O 0.22337(16) 0.44494(17) 0.03258(8)
O56_2 O 0.27948(14) 0.52795(14) 0.32894(7)
H77 H 0.0236895 0.0621517 0.176047
H78 H 0 0.0575251 0.155051
H85 H 0.0236895 0.589694 0.182952
H86 H 1.2326e-32 0.592268 0.161863
H90 H 1.2326e-32 0.442475 0.155051
N9_2 N 0.000000 0.9893(3) 0.20349(12)
O26_2 O 0.28218(16) 0.98065(15) 0.28493(8)
Mn3_2 Mn 0.000000 0.98461(5) 0.17349(2)
C98_2 C 0.1596(2) 0.9988(2) 0.25486(11)
N10_2 N 0.05848(14) 0.98553(17) 0.17344(7)
N11_2 N 0.000000 0.9823(2) 0.14329(10)
C101_2 C 0.1408(2) 0.9626(3) 0.25122(12)
H51_2 H 0.147526 0.940176 0.258914
C102_2 C 0.1015(2) 0.9933(2) 0.22574(11)
O30_2 O 0.19494(17) 0.97337(16) 0.28258(8)
C103_2 C 0.1126(2) 0.9601(3) 0.23645(12)
H52_2 H 0.100645 0.935637 0.233566
O31_2 O 0.22205(14) 0.97052(14) 0.07894(7)
C104_2 C 0.0705(2) 0.9904(2) 0.20983(10)
C105_2 C 0.0320(2) 0.9911(3) 0.21617(10)
C106_2 C 0.0192(2) 0.9949(3) 0.23637(11)
H53_2 H 0.035468 0.996991 0.247890
C107_2 C 0.08286(18) 0.9882(2) 0.18997(10)
C108_2 C 0.12276(19) 0.9885(2) 0.18365(11)
H54_2 H 0.145115 0.989382 0.192106
O33_2 O 0.000000 0.9191(3) 0.17561(12)
C109_2 C 0.08284(18) 0.9852(2) 0.15698(9)
C110_2 C 0.12259(19) 0.9872(2) 0.16367(11)
H55_2 H 0.145014 0.987617 0.155247
C111_2 C 0.07064(18) 0.9828(2) 0.13682(9)
C112_2 C 0.0201(2) 0.9770(3) 0.11022(10)
H56_2 H 0.036601 0.974736 0.098775
C113_2 C 0.03257(19) 0.9811(2) 0.13090(9)
C114_2 C 0.12666(19) 0.9537(2) 0.11820(10)
H57_2 H 0.123307 0.930234 0.125637
C115_2 C 0.10148(19) 0.9844(2) 0.12112(9)
C116_2 C 0.1573(2) 0.9568(2) 0.10427(10)
H58_2 H 0.175496 0.936048 0.102794
C117_2 C 0.1609(2) 0.9899(2) 0.09279(10)
C120_2 C 0.1935(2) 0.9940(2) 0.07837(11)
O53_2 O 0.22865(16) 0.94354(16) 0.31551(8)
O57_2 O 0.27948(14) 0.97205(14) 0.32894(7)
H82 H 6.16298e-33 0.907732 0.161863
N1_3 N 1.000000 0.5107(3) 0.20349(12)
Mn2_3 Mn 1.000000 0.51539(5) 0.17349(2)
N4_3 N 1.000000 0.5177(2) 0.14329(10)
O11_3 O 1.000000 0.4490(3) 0.16961(12)
O12_3 O 1.000000 0.5809(3) 0.17561(12)
C37_2 C 0.8094(2) 0.4992(2) 0.26979(13)
C38_2 C 0.8404(2) 0.5012(2) 0.25486(11)
N6_2 N 0.94152(14) 0.51447(17) 0.17344(7)
C39_2 C 0.8810(2) 0.4714(2) 0.22995(11)
H19_2 H 0.889021 0.448613 0.222895
C40_2 C 0.8522(2) 0.4688(2) 0.24431(10)
H20_2 H 0.840218 0.444249 0.246944
O14_2 O 0.78769(14) 0.46920(15) 0.27115(8)
C41_2 C 0.8592(2) 0.5374(3) 0.25122(12)
H21_2 H 0.852474 0.559824 0.258914
O15_2 O 0.80646(16) 0.47865(16) 0.06551(8)
C42_2 C 0.8985(2) 0.5067(2) 0.22574(11)
O16_2 O 0.80506(17) 0.52663(16) 0.28258(8)
C43_2 C 0.8874(2) 0.5399(3) 0.23645(12)
H22_2 H 0.899355 0.564363 0.233566
O17_2 O 0.77795(14) 0.52948(14) 0.07894(7)
C44_2 C 0.9295(2) 0.5096(2) 0.20983(10)
C45_2 C 0.9680(2) 0.5089(3) 0.21617(10)
C46_2 C 0.9808(2) 0.5051(3) 0.23637(11)
H23_2 H 0.964532 0.503009 0.247890
C47_2 C 0.91714(18) 0.5118(2) 0.18997(10)
C48_2 C 0.87724(19) 0.5115(2) 0.18365(11)
H24_2 H 0.854885 0.510618 0.192106
C49_2 C 0.91716(18) 0.5148(2) 0.15698(9)
C50_2 C 0.87741(19) 0.5128(2) 0.16367(11)
H25_2 H 0.854986 0.512383 0.155247
C51_2 C 0.92936(18) 0.5172(2) 0.13682(9)
C52_2 C 0.9799(2) 0.5230(3) 0.11022(10)
H26_2 H 0.963399 0.525264 0.098775
C53_2 C 0.96743(19) 0.5189(2) 0.13090(9)
C54_2 C 0.87334(19) 0.5463(2) 0.11820(10)
H27_2 H 0.876693 0.569766 0.125637
C55_2 C 0.89852(19) 0.5156(2) 0.12112(9)
C56_2 C 0.8427(2) 0.5432(2) 0.10427(10)
H28_2 H 0.824504 0.563952 0.102794
C57_2 C 0.8391(2) 0.5101(2) 0.09279(10)
C58_2 C 0.8655(2) 0.4791(2) 0.09520(12)
H29_2 H 0.863445 0.456367 0.087083
C59_2 C 0.8942(2) 0.4823(3) 0.10942(12)
H30_2 H 0.911625 0.461004 0.111362
C60_2 C 0.8065(2) 0.5060(2) 0.07837(11)
O32_3 O 1.000000 0.0510(3) 0.16961(12)
C121_2 C 0.8094(2) 0.0008(2) 0.26979(13)
C123_2 C 0.8810(2) 0.0286(2) 0.22995(11)
H61_2 H 0.889021 0.051387 0.222895
C124_2 C 0.8522(2) 0.0312(2) 0.24431(10)
H62_2 H 0.840218 0.055751 0.246944
O35_2 O 0.78769(14) 0.03080(15) 0.27115(8)
O36_2 O 0.80646(16) 0.02135(16) 0.06551(8)
C142_2 C 0.8655(2) 0.0209(2) 0.09520(12)
H71_2 H 0.863445 0.043633 0.087083
C143_2 C 0.8942(2) 0.0177(3) 0.10942(12)
H72_2 H 0.911625 0.038996 0.111362
O41_2 O 0.71782(16) 0.51935(15) 0.28493(8)
O42_2 O 0.78425(15) 0.47000(17) 0.31601(8)
U5_2 U 0.74471(2) 0.00137(2) 0.05036(2)
U10_2 U 0.74471(2) 0.49863(2) 0.05036(2)
O54_2 O 0.77135(16) 0.55646(16) 0.31551(8)
O58_2 O 0.72052(14) 0.52795(14) 0.32894(7)
H78_2 H 1 0.0575251 0.155051
H86_2 H 1 0.592268 0.161863
H89 H 0.976311 0.437848 0.176047
H90_2 H 1 0.442475 0.155051
N9_3 N 1.000000 0.9893(3) 0.20349(12)
Mn3_3 Mn 1.000000 0.98461(5) 0.17349(2)
N11_3 N 1.000000 0.9823(2) 0.14329(10)
O33_3 O 1.000000 0.9191(3) 0.17561(12)
C122_2 C 0.8404(2) 0.9988(2) 0.25486(11)
N12_2 N 0.94152(14) 0.98553(17) 0.17344(7)
C125_2 C 0.8592(2) 0.9626(3) 0.25122(12)
H63_2 H 0.852474 0.940176 0.258914
C126_2 C 0.8985(2) 0.9933(2) 0.22574(11)
O37_2 O 0.80506(17) 0.97337(16) 0.28258(8)
C127_2 C 0.8874(2) 0.9601(3) 0.23645(12)
H64_2 H 0.899355 0.935637 0.233566
O38_2 O 0.77795(14) 0.97052(14) 0.07894(7)
C128_2 C 0.9295(2) 0.9904(2) 0.20983(10)
C129_2 C 0.9680(2) 0.9911(3) 0.21617(10)
C130_2 C 0.9808(2) 0.9949(3) 0.23637(11)
H65_2 H 0.964532 0.996991 0.247890
C131_2 C 0.91714(18) 0.9882(2) 0.18997(10)
C132_2 C 0.87724(19) 0.9885(2) 0.18365(11)
H66_2 H 0.854885 0.989382 0.192106
C133_2 C 0.91716(18) 0.9852(2) 0.15698(9)
C134_2 C 0.87741(19) 0.9872(2) 0.16367(11)
H67_2 H 0.854986 0.987617 0.155247
C135_2 C 0.92936(18) 0.9828(2) 0.13682(9)
C136_2 C 0.9799(2) 0.9770(3) 0.11022(10)
H68_2 H 0.963399 0.974736 0.098775
C137_2 C 0.96743(19) 0.9811(2) 0.13090(9)
C138_2 C 0.87334(19) 0.9537(2) 0.11820(10)
H69_2 H 0.876693 0.930234 0.125637
C139_2 C 0.89852(19) 0.9844(2) 0.12112(9)
C140_2 C 0.8427(2) 0.9568(2) 0.10427(10)
H70_2 H 0.824504 0.936048 0.102794
C141_2 C 0.8391(2) 0.9899(2) 0.09279(10)
C144_2 C 0.8065(2) 0.9940(2) 0.07837(11)
H81 H 0.976311 0.910306 0.182952
H82_2 H 1 0.907732 0.161863
K1_3 K 0.66492(8) -0.000000 -0.000000
C1_3 C 0.7492(2) 0.0594(2) 0.01979(13)
O2_3 O 0.72000(17) 0.03425(15) 0.06601(8)
C2_3 C 0.7512(2) 0.0904(2) 0.00486(11)
O5_3 O 0.71920(15) 0.03769(14) 0.02115(8)
C5_3 C 0.7874(3) 0.1092(2) 0.00122(12)
H3_3 H 0.809824 0.102474 0.008914
O7_3 O 0.77663(16) 0.05506(17) 0.03258(8)
O13_3 O 0.6167(3) 0.0547(3) 0.01311(13)
C37_3 C 0.7492(2) 0.4406(2) 0.01979(13)
C38_3 C 0.7512(2) 0.4096(2) 0.00486(11)
O14_3 O 0.71920(15) 0.46231(14) 0.02115(8)
C41_3 C 0.7874(3) 0.3908(2) 0.00122(12)
H21_3 H 0.809824 0.397526 0.008914
O16_3 O 0.77663(16) 0.44494(17) 0.03258(8)
K2_3 K 0.33508(8) -0.000000 -0.000000
C97_3 C 0.2508(2) 0.0594(2) 0.01979(13)
O27_3 O 0.28000(17) 0.03425(15) 0.06601(8)
C98_3 C 0.2488(2) 0.0904(2) 0.00486(11)
O28_3 O 0.28080(15) 0.03769(14) 0.02115(8)
C101_3 C 0.2126(3) 0.1092(2) 0.00122(12)
H51_3 H 0.190176 0.102474 0.008914
O30_3 O 0.22337(16) 0.05506(17) 0.03258(8)
O34_3 O 0.3833(3) 0.0547(3) 0.01311(13)
C121_3 C 0.2508(2) 0.4406(2) 0.01979(13)
C122_3 C 0.2488(2) 0.4096(2) 0.00486(11)
C125_3 C 0.2126(3) 0.3908(2) 0.00122(12)
H63_3 H 0.190176 0.397526 0.008914
O41_3 O 0.76935(15) 0.53218(16) 0.03493(8)
O42_3 O 0.72000(17) 0.46575(15) 0.06601(8)
K4_2 K 0.33508(8) 0.500000 -0.000000
K6_2 K 0.66492(8) 0.500000 -0.000000
O45_2 O 0.68267(13) 0.52692(13) 0.03716(7)
O48_2 O 0.70642(13) 0.55096(13) 0.06498(7)
K1_4 K 0.66492(8) 0.000000 1.000000
N1_4 N 0.7607(3) 0.250000 0.95349(12)
Mn2_4 Mn 0.76539(5) 0.250000 0.92349(2)
N2_3 N 0.76447(17) 0.19152(14) 0.92344(7)
C3_3 C 0.7214(2) 0.1310(2) 0.97995(11)
H1_3 H 0.698613 0.139021 0.972895
C4_3 C 0.7188(2) 0.1022(2) 0.99431(10)
H2_3 H 0.694249 0.090218 0.996944
N4_4 N 0.7677(2) 0.250000 0.89329(10)
O6_3 O 0.72865(16) 0.05646(16) 0.81551(8)
C6_3 C 0.7567(2) 0.1485(2) 0.97574(11)
C7_3 C 0.7899(3) 0.1374(2) 0.98645(12)
H4_3 H 0.814363 0.149355 0.983566
O8_3 O 0.77948(14) 0.02795(14) 0.82894(7)
C8_3 C 0.7596(2) 0.1795(2) 0.95983(10)
C9_3 C 0.7589(3) 0.2180(2) 0.96617(10)
C10_3 C 0.7551(3) 0.2308(2) 0.98637(11)
H5_3 H 0.753009 0.214532 0.997890
C11_3 C 0.7618(2) 0.16714(18) 0.93997(10)
O11_4 O 0.6990(3) 0.250000 0.91961(12)
C12_3 C 0.7615(2) 0.12724(19) 0.93365(11)
H6_3 H 0.760618 0.104885 0.942106
O12_4 O 0.8309(3) 0.250000 0.92561(12)
C13_3 C 0.7648(2) 0.16716(18) 0.90698(9)
C14_3 C 0.7628(2) 0.12741(19) 0.91367(11)
H7_3 H 0.762383 0.104986 0.905247
C15_3 C 0.7672(2) 0.17936(18) 0.88682(9)
C16_3 C 0.7730(3) 0.2299(2) 0.86022(10)
H8_3 H 0.775264 0.213399 0.848775
C17_3 C 0.7689(2) 0.21743(19) 0.88090(9)
C18_3 C 0.7963(2) 0.12334(19) 0.86820(10)
H9_3 H 0.819766 0.126693 0.875637
C19_3 C 0.7656(2) 0.14852(19) 0.87112(9)
C20_3 C 0.7932(2) 0.0927(2) 0.85427(10)
H10_3 H 0.813952 0.074504 0.852794
C21_3 C 0.7601(2) 0.0891(2) 0.84279(10)
C22_3 C 0.7291(2) 0.1155(2) 0.84520(12)
H11_3 H 0.706367 0.113445 0.837083
C23_3 C 0.7323(3) 0.1442(2) 0.85942(12)
H12_3 H 0.711004 0.161625 0.861362
C24_3 C 0.7560(2) 0.0565(2) 0.82837(11)
N6_3 N 0.76447(17) 0.30848(14) 0.92344(7)
C39_3 C 0.7214(2) 0.3690(2) 0.97995(11)
H19_3 H 0.698613 0.360979 0.972895
C40_3 C 0.7188(2) 0.3978(2) 0.99431(10)
H20_3 H 0.694249 0.409782 0.996944
C42_3 C 0.7567(2) 0.3515(2) 0.97574(11)
C43_3 C 0.7899(3) 0.3626(2) 0.98645(12)
H22_3 H 0.814363 0.350645 0.983566
C44_3 C 0.7596(2) 0.3205(2) 0.95983(10)
C45_3 C 0.7589(3) 0.2820(2) 0.96617(10)
C46_3 C 0.7551(3) 0.2692(2) 0.98637(11)
H23_3 H 0.753009 0.285468 0.997890
C47_3 C 0.7618(2) 0.33286(18) 0.93997(10)
C48_3 C 0.7615(2) 0.37276(19) 0.93365(11)
H24_3 H 0.760618 0.395115 0.942106
C49_3 C 0.7648(2) 0.33284(18) 0.90698(9)
C50_3 C 0.7628(2) 0.37259(19) 0.91367(11)
H25_3 H 0.762383 0.395014 0.905247
C51_3 C 0.7672(2) 0.32064(18) 0.88682(9)
C52_3 C 0.7730(3) 0.2701(2) 0.86022(10)
H26_3 H 0.775264 0.286601 0.848775
C53_3 C 0.7689(2) 0.28257(19) 0.88090(9)
C54_3 C 0.7963(2) 0.37666(19) 0.86820(10)
H27_3 H 0.819766 0.373307 0.875637
C55_3 C 0.7656(2) 0.35148(19) 0.87112(9)
C56_3 C 0.7932(2) 0.4073(2) 0.85427(10)
H28_3 H 0.813952 0.425496 0.852794
C57_3 C 0.7601(2) 0.4109(2) 0.84279(10)
C58_3 C 0.7291(2) 0.3845(2) 0.84520(12)
H29_3 H 0.706367 0.386555 0.837083
C59_3 C 0.7323(3) 0.3558(2) 0.85942(12)
H30_3 H 0.711004 0.338375 0.861362
C60_3 C 0.7560(2) 0.4435(2) 0.82837(11)
K2_4 K 0.33508(8) 0.000000 1.000000
N9_4 N 0.2393(3) 0.250000 0.95349(12)
Mn3_4 Mn 0.23461(5) 0.250000 0.92349(2)
N10_3 N 0.23553(17) 0.19152(14) 0.92344(7)
C99_3 C 0.2786(2) 0.1310(2) 0.97995(11)
H49_3 H 0.301387 0.139021 0.972895
C100_3 C 0.2812(2) 0.1022(2) 0.99431(10)
H50_3 H 0.305751 0.090218 0.996944
N11_4 N 0.2323(2) 0.250000 0.89329(10)
C102_3 C 0.2433(2) 0.1485(2) 0.97574(11)
C103_3 C 0.2101(3) 0.1374(2) 0.98645(12)
H52_3 H 0.185637 0.149355 0.983566
C104_3 C 0.2404(2) 0.1795(2) 0.95983(10)
C105_3 C 0.2411(3) 0.2180(2) 0.96617(10)
C106_3 C 0.2449(3) 0.2308(2) 0.98637(11)
H53_3 H 0.246991 0.214532 0.997890
C107_3 C 0.2382(2) 0.16714(18) 0.93997(10)
O32_4 O 0.3010(3) 0.250000 0.91961(12)
C108_3 C 0.2385(2) 0.12724(19) 0.93365(11)
H54_3 H 0.239382 0.104885 0.942106
O33_4 O 0.1691(3) 0.250000 0.92561(12)
C109_3 C 0.2352(2) 0.16716(18) 0.90698(9)
C110_3 C 0.2372(2) 0.12741(19) 0.91367(11)
H55_3 H 0.237617 0.104986 0.905247
C111_3 C 0.2328(2) 0.17936(18) 0.88682(9)
C112_3 C 0.2270(3) 0.2299(2) 0.86022(10)
H56_3 H 0.224736 0.213399 0.848775
C113_3 C 0.2311(2) 0.21743(19) 0.88090(9)
C114_3 C 0.2037(2) 0.12334(19) 0.86820(10)
H57_3 H 0.180234 0.126693 0.875637
C115_3 C 0.2344(2) 0.14852(19) 0.87112(9)
C116_3 C 0.2068(2) 0.0927(2) 0.85427(10)
H58_3 H 0.186048 0.074504 0.852794
C117_3 C 0.2399(2) 0.0891(2) 0.84279(10)
C118_3 C 0.2709(2) 0.1155(2) 0.84520(12)
H59_3 H 0.293633 0.113445 0.837083
C119_3 C 0.2677(3) 0.1442(2) 0.85942(12)
H60_3 H 0.288996 0.161625 0.861362
C120_3 C 0.2440(2) 0.0565(2) 0.82837(11)
N12_3 N 0.23553(17) 0.30848(14) 0.92344(7)
C123_3 C 0.2786(2) 0.3690(2) 0.97995(11)
H61_3 H 0.301387 0.360979 0.972895
C124_3 C 0.2812(2) 0.3978(2) 0.99431(10)
H62_3 H 0.305751 0.409782 0.996944
C126_3 C 0.2433(2) 0.3515(2) 0.97574(11)
C127_3 C 0.2101(3) 0.3626(2) 0.98645(12)
H64_3 H 0.185637 0.350645 0.983566
C128_3 C 0.2404(2) 0.3205(2) 0.95983(10)
C129_3 C 0.2411(3) 0.2820(2) 0.96617(10)
C130_3 C 0.2449(3) 0.2692(2) 0.98637(11)
H65_3 H 0.246991 0.285468 0.997890
C131_3 C 0.2382(2) 0.33286(18) 0.93997(10)
C132_3 C 0.2385(2) 0.37276(19) 0.93365(11)
H66_3 H 0.239382 0.395115 0.942106
C133_3 C 0.2352(2) 0.33284(18) 0.90698(9)
C134_3 C 0.2372(2) 0.37259(19) 0.91367(11)
H67_3 H 0.237617 0.395014 0.905247
C135_3 C 0.2328(2) 0.32064(18) 0.88682(9)
C136_3 C 0.2270(3) 0.2701(2) 0.86022(10)
H68_3 H 0.224736 0.286601 0.848775
C137_3 C 0.2311(2) 0.28257(19) 0.88090(9)
C138_3 C 0.2037(2) 0.37666(19) 0.86820(10)
H69_3 H 0.180234 0.373307 0.875637
C139_3 C 0.2344(2) 0.35148(19) 0.87112(9)
C140_3 C 0.2068(2) 0.4073(2) 0.85427(10)
H70_3 H 0.186048 0.425496 0.852794
C141_3 C 0.2399(2) 0.4109(2) 0.84279(10)
C142_3 C 0.2709(2) 0.3845(2) 0.84520(12)
H71_3 H 0.293633 0.386555 0.837083
C143_3 C 0.2677(3) 0.3558(2) 0.85942(12)
H72_3 H 0.288996 0.338375 0.861362
C144_3 C 0.2440(2) 0.4435(2) 0.82837(11)
O39_3 O 0.78218(16) 0.01935(15) 0.78493(8)
K4_3 K 0.33508(8) 0.500000 1.000000
K6_3 K 0.66492(8) 0.500000 1.000000
O43_3 O 0.68267(13) 0.02692(13) 0.96284(7)
O46_3 O 0.31733(13) 0.02692(13) 0.96284(7)
K1_5 K 0.66492(8) 1.000000 -0.000000
Mn1_4 Mn 0.500000 0.750000 0.04902(4)
O1_3 O 0.76935(15) 0.96782(16) 0.03493(8)
O3_3 O 0.68267(13) 0.97308(13) 0.03716(7)
N3_4 N 0.5594(2) 0.750000 0.04869(13)
O4_3 O 0.70642(13) 0.94904(13) 0.06498(7)
N5_3 N 0.500000 0.8088(2) 0.04923(14)
O9_4 O 0.500000 0.750000 0.0160(2)
O10_4 O 0.500000 0.750000 0.08337(19)
C25_3 C 0.68136(18) 0.94703(19) 0.05072(10)
C26_3 C 0.65321(18) 0.91517(18) 0.05042(10)
C27_3 C 0.62664(18) 0.9114(2) 0.03460(10)
H13_3 H 0.626204 0.930372 0.024156
C28_3 C 0.60106(19) 0.8804(2) 0.03406(12)
H14_3 H 0.583356 0.877931 0.023124
C29_3 C 0.6535(2) 0.8875(2) 0.06577(11)
H15_3 H 0.670928 0.890093 0.076805
C30_3 C 0.6274(2) 0.8556(2) 0.06470(12)
H16_3 H 0.628237 0.835996 0.074803
C31_3 C 0.60079(19) 0.85246(18) 0.04935(12)
C32_3 C 0.57095(18) 0.82102(19) 0.04914(12)
C33_3 C 0.5197(2) 0.8720(2) 0.05369(14)
H17_3 H 0.536046 0.894097 0.055493
C34_3 C 0.53236(19) 0.83248(18) 0.05048(12)
C35_3 C 0.58329(18) 0.78218(19) 0.04778(12)
C36_3 C 0.62312(19) 0.7691(2) 0.04610(13)
H18_3 H 0.645514 0.785430 0.045152
N7_3 N 0.500000 0.6912(2) 0.04923(14)
C61_3 C 0.68136(18) 0.55297(19) 0.05072(10)
C62_3 C 0.65321(18) 0.58483(18) 0.05042(10)
C63_3 C 0.62664(18) 0.5886(2) 0.03460(10)
H31_3 H 0.626204 0.569628 0.024156
C64_3 C 0.60106(19) 0.6196(2) 0.03406(12)
H32_3 H 0.583356 0.622069 0.023124
C65_3 C 0.6535(2) 0.6125(2) 0.06577(11)
H33_3 H 0.670928 0.609907 0.076805
C66_3 C 0.6274(2) 0.6444(2) 0.06470(12)
H34_3 H 0.628237 0.664004 0.074803
C67_3 C 0.60079(19) 0.64754(18) 0.04935(12)
C68_3 C 0.57095(18) 0.67898(19) 0.04914(12)
C69_3 C 0.5197(2) 0.6280(2) 0.05369(14)
H35_3 H 0.536046 0.605903 0.055493
C70_3 C 0.53236(19) 0.66752(18) 0.05048(12)
C71_3 C 0.58329(18) 0.71782(19) 0.04778(12)
C72_3 C 0.62312(19) 0.7309(2) 0.04610(13)
H36_3 H 0.645514 0.714570 0.045152
O20_3 O 0.31733(13) 0.97308(13) 0.03716(7)
N8_4 N 0.4406(2) 0.750000 0.04869(13)
O21_3 O 0.29358(13) 0.94904(13) 0.06498(7)
C73_3 C 0.31864(18) 0.94703(19) 0.05072(10)
C74_3 C 0.34679(18) 0.91517(18) 0.05042(10)
C75_3 C 0.37336(18) 0.9114(2) 0.03460(10)
H37_3 H 0.373796 0.930372 0.024156
C76_3 C 0.39894(19) 0.8804(2) 0.03406(12)
H38_3 H 0.416644 0.877931 0.023124
C77_3 C 0.3465(2) 0.8875(2) 0.06577(11)
H39_3 H 0.329072 0.890093 0.076805
C78_3 C 0.3726(2) 0.8556(2) 0.06470(12)
H40_3 H 0.371763 0.835996 0.074803
C79_3 C 0.39921(19) 0.85246(18) 0.04935(12)
C80_3 C 0.42905(18) 0.82102(19) 0.04914(12)
C81_3 C 0.4803(2) 0.8720(2) 0.05369(14)
H41_3 H 0.463954 0.894097 0.055493
C82_3 C 0.46764(19) 0.83248(18) 0.05048(12)
C83_3 C 0.41671(18) 0.78218(19) 0.04778(12)
C84_3 C 0.37688(19) 0.7691(2) 0.04610(13)
H42_3 H 0.354486 0.785430 0.045152
C85_3 C 0.31864(18) 0.55297(19) 0.05072(10)
C86_3 C 0.34679(18) 0.58483(18) 0.05042(10)
C87_3 C 0.37336(18) 0.5886(2) 0.03460(10)
H43_3 H 0.373796 0.569628 0.024156
C88_3 C 0.39894(19) 0.6196(2) 0.03406(12)
H44_3 H 0.416644 0.622069 0.023124
C89_3 C 0.3465(2) 0.6125(2) 0.06577(11)
H45_3 H 0.329072 0.609907 0.076805
C90_3 C 0.3726(2) 0.6444(2) 0.06470(12)
H46_3 H 0.371763 0.664004 0.074803
C91_3 C 0.39921(19) 0.64754(18) 0.04935(12)
C92_3 C 0.42905(18) 0.67898(19) 0.04914(12)
C93_3 C 0.4803(2) 0.6280(2) 0.05369(14)
H47_3 H 0.463954 0.605903 0.055493
C94_3 C 0.46764(19) 0.66752(18) 0.05048(12)
C95_3 C 0.41671(18) 0.71782(19) 0.04778(12)
C96_3 C 0.37688(19) 0.7309(2) 0.04610(13)
H48_3 H 0.354486 0.714570 0.045152
K2_5 K 0.33508(8) 1.000000 -0.000000
O26_3 O 0.23065(15) 0.96782(16) 0.03493(8)
K1_6 K 0.66492(8) 1.000000 1.000000
O24_3 O 0.6167(3) 0.9453(3) 0.98689(13)
K2_6 K 0.33508(8) 1.000000 1.000000
O25_3 O 0.3833(3) 0.9453(3) 0.98689(13)
O40_3 O 0.71575(15) 0.97000(17) 0.81601(8)
O49_3 O 0.71920(15) 0.96231(14) 0.97885(8)
O51_3 O 0.28080(15) 0.96231(14) 0.97885(8)
Mn1_5 Mn 0.000000 0.250000 0.54902(4)
N5_4 N 0.000000 0.1912(2) 0.54923(14)
O9_5 O 0.000000 0.250000 0.5160(2)
O10_5 O 0.000000 0.250000 0.58337(19)
N7_4 N 0.000000 0.3088(2) 0.54923(14)
O20_4 O 0.18267(13) 0.02692(13) 0.53716(7)
N8_5 N 0.0594(2) 0.250000 0.54869(13)
O21_4 O 0.20642(13) 0.05096(13) 0.56498(7)
C73_4 C 0.18136(18) 0.05297(19) 0.55072(10)
C74_4 C 0.15321(18) 0.08483(18) 0.55042(10)
C75_4 C 0.12664(18) 0.0886(2) 0.53460(10)
H37_4 H 0.126204 0.069628 0.524156
C76_4 C 0.10106(19) 0.1196(2) 0.53406(12)
H38_4 H 0.083356 0.122069 0.523124
C77_4 C 0.1535(2) 0.1125(2) 0.56577(11)
H39_4 H 0.170928 0.109907 0.576805
C78_4 C 0.1274(2) 0.1444(2) 0.56470(12)
H40_4 H 0.128237 0.164004 0.574803
C79_4 C 0.10079(19) 0.14754(18) 0.54935(12)
C80_4 C 0.07095(18) 0.17898(19) 0.54914(12)
C81_4 C 0.0197(2) 0.1280(2) 0.55369(14)
H41_4 H 0.036046 0.105903 0.555493
C82_4 C 0.03236(19) 0.16752(18) 0.55048(12)
C83_4 C 0.08329(18) 0.21782(19) 0.54778(12)
C84_4 C 0.12312(19) 0.2309(2) 0.54610(13)
H42_4 H 0.145514 0.214570 0.545152
C85_4 C 0.18136(18) 0.44703(19) 0.55072(10)
C86_4 C 0.15321(18) 0.41517(18) 0.55042(10)
C87_4 C 0.12664(18) 0.4114(2) 0.53460(10)
H43_4 H 0.126204 0.430372 0.524156
C88_4 C 0.10106(19) 0.3804(2) 0.53406(12)
H44_4 H 0.083356 0.377931 0.523124
C89_4 C 0.1535(2) 0.3875(2) 0.56577(11)
H45_4 H 0.170928 0.390093 0.576805
C90_4 C 0.1274(2) 0.3556(2) 0.56470(12)
H46_4 H 0.128237 0.335996 0.574803
C91_4 C 0.10079(19) 0.35246(18) 0.54935(12)
C92_4 C 0.07095(18) 0.32102(19) 0.54914(12)
C93_4 C 0.0197(2) 0.3720(2) 0.55369(14)
H47_4 H 0.036046 0.394097 0.555493
C94_4 C 0.03236(19) 0.33248(18) 0.55048(12)
C95_4 C 0.08329(18) 0.28218(19) 0.54778(12)
C96_4 C 0.12312(19) 0.2691(2) 0.54610(13)
H48_4 H 0.145514 0.285430 0.545152
K2_7 K 0.16492(8) 0.000000 0.500000
O25_4 O 0.1167(3) 0.0547(3) 0.48689(13)
O26_4 O 0.26935(15) 0.03218(16) 0.53493(8)
K3_2 K 0.16492(8) 0.500000 0.500000
O51_4 O 0.21920(15) 0.03769(14) 0.47885(8)
K2_8 K 0.16492(8) 1.000000 0.500000
C97_4 C 0.2492(2) 0.9406(2) 0.51979(13)
N9_5 N 0.2607(3) 0.750000 0.45349(12)
O27_4 O 0.22000(17) 0.96575(15) 0.56601(8)
Mn3_5 Mn 0.26539(5) 0.750000 0.42349(2)
C98_4 C 0.2512(2) 0.9096(2) 0.50486(11)
N10_4 N 0.26447(17) 0.80848(14) 0.42344(7)
C99_4 C 0.2214(2) 0.8690(2) 0.47995(11)
H49_4 H 0.198613 0.860979 0.472895
C100_4 C 0.2188(2) 0.8978(2) 0.49431(10)
H50_4 H 0.194249 0.909782 0.496944
N11_5 N 0.2677(2) 0.750000 0.39329(10)
O28_4 O 0.21920(15) 0.96231(14) 0.52115(8)
C101_4 C 0.2874(3) 0.8908(2) 0.50122(12)
H51_4 H 0.309824 0.897526 0.508914
C102_4 C 0.2567(2) 0.8515(2) 0.47574(11)
O30_4 O 0.27663(16) 0.94494(17) 0.53258(8)
C103_4 C 0.2899(3) 0.8626(2) 0.48645(12)
H52_4 H 0.314363 0.850645 0.483566
C104_4 C 0.2596(2) 0.8205(2) 0.45983(10)
C105_4 C 0.2589(3) 0.7820(2) 0.46617(10)
C106_4 C 0.2551(3) 0.7692(2) 0.48637(11)
H53_4 H 0.253009 0.785468 0.497890
C107_4 C 0.2618(2) 0.83286(18) 0.43997(10)
O32_5 O 0.1990(3) 0.750000 0.41961(12)
C108_4 C 0.2615(2) 0.87276(19) 0.43365(11)
H54_4 H 0.260618 0.895115 0.442106
O33_5 O 0.3309(3) 0.750000 0.42561(12)
C109_4 C 0.2648(2) 0.83284(18) 0.40698(9)
C110_4 C 0.2628(2) 0.87259(19) 0.41367(11)
H55_4 H 0.262383 0.895014 0.405247
O34_4 O 0.1167(3) 0.9453(3) 0.51311(13)
C111_4 C 0.2672(2) 0.82064(18) 0.38682(9)
C112_4 C 0.2730(3) 0.7701(2) 0.36022(10)
H56_4 H 0.275264 0.786601 0.348775
C113_4 C 0.2689(2) 0.78257(19) 0.38090(9)
C114_4 C 0.2963(2) 0.87666(19) 0.36820(10)
H57_4 H 0.319766 0.873307 0.375637
C115_4 C 0.2656(2) 0.85148(19) 0.37112(9)
C116_4 C 0.2932(2) 0.9073(2) 0.35427(10)
H58_4 H 0.313952 0.925496 0.352794
C117_4 C 0.2601(2) 0.9109(2) 0.34279(10)
C118_4 C 0.2291(2) 0.8845(2) 0.34520(12)
H59_4 H 0.206367 0.886555 0.337083
C119_4 C 0.2323(3) 0.8558(2) 0.35942(12)
H60_4 H 0.211004 0.838375 0.361362
C120_4 C 0.2560(2) 0.9435(2) 0.32837(11)
C121_4 C 0.2492(2) 0.5594(2) 0.51979(13)
C122_4 C 0.2512(2) 0.5904(2) 0.50486(11)
N12_4 N 0.26447(17) 0.69152(14) 0.42344(7)
C123_4 C 0.2214(2) 0.6310(2) 0.47995(11)
H61_4 H 0.198613 0.639021 0.472895
C124_4 C 0.2188(2) 0.6022(2) 0.49431(10)
H62_4 H 0.194249 0.590218 0.496944
C125_4 C 0.2874(3) 0.6092(2) 0.50122(12)
H63_4 H 0.309824 0.602474 0.508914
C126_4 C 0.2567(2) 0.6485(2) 0.47574(11)
C127_4 C 0.2899(3) 0.6374(2) 0.48645(12)
H64_4 H 0.314363 0.649355 0.483566
C128_4 C 0.2596(2) 0.6795(2) 0.45983(10)
C129_4 C 0.2589(3) 0.7180(2) 0.46617(10)
C130_4 C 0.2551(3) 0.7308(2) 0.48637(11)
H65_4 H 0.253009 0.714532 0.497890
C131_4 C 0.2618(2) 0.66714(18) 0.43997(10)
C132_4 C 0.2615(2) 0.62724(19) 0.43365(11)
H66_4 H 0.260618 0.604885 0.442106
C133_4 C 0.2648(2) 0.66716(18) 0.40698(9)
C134_4 C 0.2628(2) 0.62741(19) 0.41367(11)
H67_4 H 0.262383 0.604986 0.405247
C135_4 C 0.2672(2) 0.67936(18) 0.38682(9)
C136_4 C 0.2730(3) 0.7299(2) 0.36022(10)
H68_4 H 0.275264 0.713399 0.348775
C137_4 C 0.2689(2) 0.71743(19) 0.38090(9)
C138_4 C 0.2963(2) 0.62334(19) 0.36820(10)
H69_4 H 0.319766 0.626693 0.375637
C139_4 C 0.2656(2) 0.64852(19) 0.37112(9)
C140_4 C 0.2932(2) 0.5927(2) 0.35427(10)
H70_4 H 0.313952 0.574504 0.352794
C141_4 C 0.2601(2) 0.5891(2) 0.34279(10)
C142_4 C 0.2291(2) 0.6155(2) 0.34520(12)
H71_4 H 0.206367 0.613445 0.337083
C143_4 C 0.2323(3) 0.6442(2) 0.35942(12)
H72_4 H 0.211004 0.661625 0.361362
C144_4 C 0.2560(2) 0.5565(2) 0.32837(11)
O46_4 O 0.18267(13) 0.97308(13) 0.46284(7)
K1_7 K 0.83508(8) 0.000000 0.500000
Mn1_6 Mn 1.000000 0.250000 0.54902(4)
O1_4 O 0.73065(15) 0.03218(16) 0.53493(8)
O3_4 O 0.81733(13) 0.02692(13) 0.53716(7)
N3_5 N 0.9406(2) 0.250000 0.54869(13)
O4_4 O 0.79358(13) 0.05096(13) 0.56498(7)
N5_5 N 1.000000 0.1912(2) 0.54923(14)
O9_6 O 1.000000 0.250000 0.5160(2)
O10_6 O 1.000000 0.250000 0.58337(19)
C25_4 C 0.81864(18) 0.05297(19) 0.55072(10)
C26_4 C 0.84679(18) 0.08483(18) 0.55042(10)
C27_4 C 0.87336(18) 0.0886(2) 0.53460(10)
H13_4 H 0.873796 0.069628 0.524156
C28_4 C 0.89894(19) 0.1196(2) 0.53406(12)
H14_4 H 0.916644 0.122069 0.523124
C29_4 C 0.8465(2) 0.1125(2) 0.56577(11)
H15_4 H 0.829072 0.109907 0.576805
C30_4 C 0.8726(2) 0.1444(2) 0.56470(12)
H16_4 H 0.871763 0.164004 0.574803
C31_4 C 0.89921(19) 0.14754(18) 0.54935(12)
C32_4 C 0.92905(18) 0.17898(19) 0.54914(12)
C33_4 C 0.9803(2) 0.1280(2) 0.55369(14)
H17_4 H 0.963954 0.105903 0.555493
C34_4 C 0.96764(19) 0.16752(18) 0.55048(12)
C35_4 C 0.91671(18) 0.21782(19) 0.54778(12)
C36_4 C 0.87688(19) 0.2309(2) 0.54610(13)
H18_4 H 0.854486 0.214570 0.545152
O18_2 O 0.81733(13) 0.47308(13) 0.53716(7)
O19_2 O 0.79358(13) 0.44904(13) 0.56498(7)
N7_5 N 1.000000 0.3088(2) 0.54923(14)
C61_4 C 0.81864(18) 0.44703(19) 0.55072(10)
C62_4 C 0.84679(18) 0.41517(18) 0.55042(10)
C63_4 C 0.87336(18) 0.4114(2) 0.53460(10)
H31_4 H 0.873796 0.430372 0.524156
C64_4 C 0.89894(19) 0.3804(2) 0.53406(12)
H32_4 H 0.916644 0.377931 0.523124
C65_4 C 0.8465(2) 0.3875(2) 0.56577(11)
H33_4 H 0.829072 0.390093 0.576805
C66_4 C 0.8726(2) 0.3556(2) 0.56470(12)
H34_4 H 0.871763 0.335996 0.574803
C67_4 C 0.89921(19) 0.35246(18) 0.54935(12)
C68_4 C 0.92905(18) 0.32102(19) 0.54914(12)
C69_4 C 0.9803(2) 0.3720(2) 0.55369(14)
H35_4 H 0.963954 0.394097 0.555493
C70_4 C 0.96764(19) 0.33248(18) 0.55048(12)
C71_4 C 0.91671(18) 0.28218(19) 0.54778(12)
C72_4 C 0.87688(19) 0.2691(2) 0.54610(13)
H36_4 H 0.854486 0.285430 0.545152
O24_4 O 0.8833(3) 0.0547(3) 0.48689(13)
O40_4 O 0.78425(15) 0.03000(17) 0.31601(8)
K5_2 K 0.83508(8) 0.500000 0.500000
O49_4 O 0.78080(15) 0.03769(14) 0.47885(8)
K1_8 K 0.83508(8) 1.000000 0.500000
C1_4 C 0.7508(2) 0.9406(2) 0.51979(13)
N1_5 N 0.7393(3) 0.750000 0.45349(12)
O2_4 O 0.78000(17) 0.96575(15) 0.56601(8)
Mn2_5 Mn 0.73461(5) 0.750000 0.42349(2)
C2_4 C 0.7488(2) 0.9096(2) 0.50486(11)
N2_4 N 0.73553(17) 0.80848(14) 0.42344(7)
C3_4 C 0.7786(2) 0.8690(2) 0.47995(11)
H1_4 H 0.801387 0.860979 0.472895
C4_4 C 0.7812(2) 0.8978(2) 0.49431(10)
H2_4 H 0.805751 0.909782 0.496944
N4_5 N 0.7323(2) 0.750000 0.39329(10)
O5_4 O 0.78080(15) 0.96231(14) 0.52115(8)
C5_4 C 0.7126(3) 0.8908(2) 0.50122(12)
H3_4 H 0.690176 0.897526 0.508914
O6_4 O 0.77135(16) 0.94354(16) 0.31551(8)
C6_4 C 0.7433(2) 0.8515(2) 0.47574(11)
O7_4 O 0.72337(16) 0.94494(17) 0.53258(8)
C7_4 C 0.7101(3) 0.8626(2) 0.48645(12)
H4_4 H 0.685637 0.850645 0.483566
O8_4 O 0.72052(14) 0.97205(14) 0.32894(7)
C8_4 C 0.7404(2) 0.8205(2) 0.45983(10)
C9_4 C 0.7411(3) 0.7820(2) 0.46617(10)
C10_4 C 0.7449(3) 0.7692(2) 0.48637(11)
H5_4 H 0.746991 0.785468 0.497890
C11_4 C 0.7382(2) 0.83286(18) 0.43997(10)
O11_5 O 0.8010(3) 0.750000 0.41961(12)
C12_4 C 0.7385(2) 0.87276(19) 0.43365(11)
H6_4 H 0.739382 0.895115 0.442106
O12_5 O 0.6691(3) 0.750000 0.42561(12)
C13_4 C 0.7352(2) 0.83284(18) 0.40698(9)
C14_4 C 0.7372(2) 0.87259(19) 0.41367(11)
H7_4 H 0.737617 0.895014 0.405247
O13_4 O 0.8833(3) 0.9453(3) 0.51311(13)
C15_4 C 0.7328(2) 0.82064(18) 0.38682(9)
C16_4 C 0.7270(3) 0.7701(2) 0.36022(10)
H8_4 H 0.724736 0.786601 0.348775
C17_4 C 0.7311(2) 0.78257(19) 0.38090(9)
C18_4 C 0.7037(2) 0.87666(19) 0.36820(10)
H9_4 H 0.680234 0.873307 0.375637
C19_4 C 0.7344(2) 0.85148(19) 0.37112(9)
C20_4 C 0.7068(2) 0.9073(2) 0.35427(10)
H10_4 H 0.686048 0.925496 0.352794
C21_4 C 0.7399(2) 0.9109(2) 0.34279(10)
C22_4 C 0.7709(2) 0.8845(2) 0.34520(12)
H11_4 H 0.793633 0.886555 0.337083
C23_4 C 0.7677(3) 0.8558(2) 0.35942(12)
H12_4 H 0.788996 0.838375 0.361362
C24_4 C 0.7440(2) 0.9435(2) 0.32837(11)
C37_4 C 0.7508(2) 0.5594(2) 0.51979(13)
C38_4 C 0.7488(2) 0.5904(2) 0.50486(11)
N6_4 N 0.73553(17) 0.69152(14) 0.42344(7)
C39_4 C 0.7786(2) 0.6310(2) 0.47995(11)
H19_4 H 0.801387 0.639021 0.472895
C40_4 C 0.7812(2) 0.6022(2) 0.49431(10)
H20_4 H 0.805751 0.590218 0.496944
O14_4 O 0.78080(15) 0.53769(14) 0.52115(8)
C41_4 C 0.7126(3) 0.6092(2) 0.50122(12)
H21_4 H 0.690176 0.602474 0.508914
C42_4 C 0.7433(2) 0.6485(2) 0.47574(11)
O16_4 O 0.72337(16) 0.55506(17) 0.53258(8)
C43_4 C 0.7101(3) 0.6374(2) 0.48645(12)
H22_4 H 0.685637 0.649355 0.483566
C44_4 C 0.7404(2) 0.6795(2) 0.45983(10)
C45_4 C 0.7411(3) 0.7180(2) 0.46617(10)
C46_4 C 0.7449(3) 0.7308(2) 0.48637(11)
H23_4 H 0.746991 0.714532 0.497890
C47_4 C 0.7382(2) 0.66714(18) 0.43997(10)
C48_4 C 0.7385(2) 0.62724(19) 0.43365(11)
H24_4 H 0.739382 0.604885 0.442106
C49_4 C 0.7352(2) 0.66716(18) 0.40698(9)
C50_4 C 0.7372(2) 0.62741(19) 0.41367(11)
H25_4 H 0.737617 0.604986 0.405247
C51_4 C 0.7328(2) 0.67936(18) 0.38682(9)
C52_4 C 0.7270(3) 0.7299(2) 0.36022(10)
H26_4 H 0.724736 0.713399 0.348775
C53_4 C 0.7311(2) 0.71743(19) 0.38090(9)
C54_4 C 0.7037(2) 0.62334(19) 0.36820(10)
H27_4 H 0.680234 0.626693 0.375637
C55_4 C 0.7344(2) 0.64852(19) 0.37112(9)
C56_4 C 0.7068(2) 0.5927(2) 0.35427(10)
H28_4 H 0.686048 0.574504 0.352794
C57_4 C 0.7399(2) 0.5891(2) 0.34279(10)
C58_4 C 0.7709(2) 0.6155(2) 0.34520(12)
H29_4 H 0.793633 0.613445 0.337083
C59_4 C 0.7677(3) 0.6442(2) 0.35942(12)
H30_4 H 0.788996 0.661625 0.361362
C60_4 C 0.7440(2) 0.5565(2) 0.32837(11)
O39_4 O 0.71782(16) 0.98065(15) 0.28493(8)
O41_4 O 0.73065(15) 0.46782(16) 0.53493(8)
O42_4 O 0.78000(17) 0.53425(15) 0.56601(8)
O43_4 O 0.81733(13) 0.97308(13) 0.46284(7)
N9_6 N 0.000000 0.0107(3) 0.79651(12)
O26_5 O 0.28218(16) 0.01935(15) 0.71507(8)
Mn3_6 Mn -0.000000 0.01539(5) 0.82651(2)
C98_5 C 0.1596(2) 0.0012(2) 0.74514(11)
N10_5 N 0.05848(14) 0.01447(17) 0.82656(7)
N11_6 N 0.000000 0.0177(2) 0.85671(10)
C101_5 C 0.1408(2) 0.0374(3) 0.74878(12)
H51_5 H 0.147526 0.059824 0.741086
C102_5 C 0.1015(2) 0.0067(2) 0.77426(11)
O30_5 O 0.19494(17) 0.02663(16) 0.71742(8)
C103_5 C 0.1126(2) 0.0399(3) 0.76355(12)
H52_5 H 0.100645 0.064363 0.766434
O31_3 O 0.22205(14) 0.02948(14) 0.92106(7)
C104_5 C 0.0705(2) 0.0096(2) 0.79017(10)
C105_5 C 0.0320(2) 0.0089(3) 0.78383(10)
C106_5 C 0.0192(2) 0.0051(3) 0.76363(11)
H53_5 H 0.035468 0.003009 0.752110
C107_5 C 0.08286(18) 0.0118(2) 0.81003(10)
C108_5 C 0.12276(19) 0.0115(2) 0.81635(11)
H54_5 H 0.145115 0.010618 0.807894
O33_6 O 0.000000 0.0809(3) 0.82439(12)
C109_5 C 0.08284(18) 0.0148(2) 0.84302(9)
C110_5 C 0.12259(19) 0.0128(2) 0.83633(11)
H55_5 H 0.145014 0.012383 0.844753
C111_5 C 0.07064(18) 0.0172(2) 0.86318(9)
C112_5 C 0.0201(2) 0.0230(3) 0.88978(10)
H56_5 H 0.036601 0.025264 0.901225
C113_5 C 0.03257(19) 0.0189(2) 0.86910(9)
C114_5 C 0.12666(19) 0.0463(2) 0.88180(10)
H57_5 H 0.123307 0.069766 0.874363
C115_5 C 0.10148(19) 0.0156(2) 0.87888(9)
C116_5 C 0.1573(2) 0.0432(2) 0.89573(10)
H58_5 H 0.175496 0.063952 0.897206
C117_5 C 0.1609(2) 0.0101(2) 0.90721(10)
C120_5 C 0.1935(2) 0.0060(2) 0.92163(11)
O53_3 O 0.22865(16) 0.05646(16) 0.68449(8)
O57_3 O 0.27948(14) 0.02795(14) 0.67106(7)
H82_3 H 1.2326e-32 0.0922676 0.838137
U1_3 U 0.24863(2) 0.50529(2) 0.69964(2)
C1_5 C 0.1906(2) 0.5008(2) 0.73021(13)
N1_6 N 0.000000 0.4893(3) 0.79651(12)
Mn1_7 Mn 0.500000 0.750000 0.70098(4)
O1_5 O 0.28218(16) 0.48065(15) 0.71507(8)
O2_5 O 0.21575(15) 0.53000(17) 0.68399(8)
Mn2_6 Mn 0.000000 0.48461(5) 0.82651(2)
C2_5 C 0.1596(2) 0.4988(2) 0.74514(11)
N2_5 N 0.05848(14) 0.48553(17) 0.82656(7)
C3_5 C 0.1190(2) 0.5286(2) 0.77005(11)
H1_5 H 0.110979 0.551387 0.777105
N3_6 N 0.500000 0.6906(2) 0.70131(13)
O4_5 O 0.30096(13) 0.54358(13) 0.68502(7)
C4_5 C 0.1478(2) 0.5312(2) 0.75569(10)
H2_5 H 0.159782 0.555751 0.753056
N4_6 N 0.000000 0.4823(2) 0.85671(10)
C5_5 C 0.1408(2) 0.4626(3) 0.74878(12)
H3_5 H 0.147526 0.440176 0.741086
N5_6 N 0.4412(2) 0.750000 0.70077(14)
O6_5 O 0.19354(16) 0.52135(16) 0.93449(8)
C6_5 C 0.1015(2) 0.4933(2) 0.77426(11)
O7_5 O 0.19494(17) 0.47337(16) 0.71742(8)
C7_5 C 0.1126(2) 0.4601(3) 0.76355(12)
H4_5 H 0.100645 0.435637 0.766434
O8_5 O 0.22205(14) 0.47052(14) 0.92106(7)
C8_5 C 0.0705(2) 0.4904(2) 0.79017(10)
O9_7 O 0.500000 0.750000 0.7340(2)
C9_5 C 0.0320(2) 0.4911(3) 0.78383(10)
C10_5 C 0.0192(2) 0.4949(3) 0.76363(11)
H5_5 H 0.035468 0.496991 0.752110
O10_7 O 0.500000 0.750000 0.66663(19)
C11_5 C 0.08286(18) 0.4882(2) 0.81003(10)
O11_6 O 0.000000 0.5510(3) 0.83039(12)
C12_5 C 0.12276(19) 0.4885(2) 0.81635(11)
H6_5 H 0.145115 0.489382 0.807894
O12_6 O 0.000000 0.4191(3) 0.82439(12)
C13_5 C 0.08284(18) 0.4852(2) 0.84302(9)
C14_5 C 0.12259(19) 0.4872(2) 0.83633(11)
H7_5 H 0.145014 0.487617 0.844753
C15_5 C 0.07064(18) 0.4828(2) 0.86318(9)
C16_5 C 0.0201(2) 0.4770(3) 0.88978(10)
H8_5 H 0.036601 0.474736 0.901225
C17_5 C 0.03257(19) 0.4811(2) 0.86910(9)
C18_5 C 0.12666(19) 0.4537(2) 0.88180(10)
H9_5 H 0.123307 0.430234 0.874363
C19_5 C 0.10148(19) 0.4844(2) 0.87888(9)
C20_5 C 0.1573(2) 0.4568(2) 0.89573(10)
H10_5 H 0.175496 0.436048 0.897206
C21_5 C 0.1609(2) 0.4899(2) 0.90721(10)
C22_5 C 0.1345(2) 0.5209(2) 0.90480(12)
H11_5 H 0.136555 0.543633 0.912917
C23_5 C 0.1058(2) 0.5177(3) 0.89058(12)
H12_5 H 0.088375 0.538996 0.888638
C24_5 C 0.1935(2) 0.4940(2) 0.92163(11)
C25_5 C 0.30297(19) 0.56864(18) 0.69928(10)
C26_5 C 0.33483(18) 0.59679(18) 0.69958(10)
C27_5 C 0.3386(2) 0.62336(18) 0.71540(10)
H13_5 H 0.319628 0.623796 0.725844
C28_5 C 0.3696(2) 0.64894(19) 0.71594(12)
H14_5 H 0.372069 0.666644 0.726876
C29_5 C 0.3625(2) 0.5965(2) 0.68423(11)
H15_5 H 0.359907 0.579072 0.673195
C30_5 C 0.3944(2) 0.6226(2) 0.68530(12)
H16_5 H 0.414004 0.621763 0.675197
C31_5 C 0.39754(18) 0.64921(19) 0.70065(12)
C32_5 C 0.42898(19) 0.67905(18) 0.70086(12)
C33_5 C 0.3780(2) 0.7303(2) 0.69631(14)
H17_5 H 0.355903 0.713954 0.694507
C34_5 C 0.41752(18) 0.71764(19) 0.69952(12)
C35_5 C 0.46782(19) 0.66671(18) 0.70222(12)
C36_5 C 0.4809(2) 0.62688(19) 0.70390(13)
H18_5 H 0.464570 0.604486 0.704848
O18_3 O 0.72308(13) 0.56733(13) 0.71284(7)
O19_3 O 0.69904(13) 0.54358(13) 0.68502(7)
N7_6 N 0.5588(2) 0.750000 0.70077(14)
C61_5 C 0.69703(19) 0.56864(18) 0.69928(10)
C62_5 C 0.66517(18) 0.59679(18) 0.69958(10)
C63_5 C 0.6614(2) 0.62336(18) 0.71540(10)
H31_5 H 0.680372 0.623796 0.725844
C64_5 C 0.6304(2) 0.64894(19) 0.71594(12)
H32_5 H 0.627931 0.666644 0.726876
C65_5 C 0.6375(2) 0.5965(2) 0.68423(11)
H33_5 H 0.640093 0.579072 0.673195
C66_5 C 0.6056(2) 0.6226(2) 0.68530(12)
H34_5 H 0.585996 0.621763 0.675197
C67_5 C 0.60246(18) 0.64921(19) 0.70065(12)
C68_5 C 0.57102(19) 0.67905(18) 0.70086(12)
C69_5 C 0.6220(2) 0.7303(2) 0.69631(14)
H35_5 H 0.644097 0.713954 0.694507
C70_5 C 0.58248(18) 0.71764(19) 0.69952(12)
C71_5 C 0.53218(19) 0.66671(18) 0.70222(12)
C72_5 C 0.5191(2) 0.62688(19) 0.70390(13)
H36_5 H 0.535430 0.604486 0.704848
N8_6 N 0.500000 0.8094(2) 0.70131(13)
O21_5 O 0.30096(13) 0.95642(13) 0.68502(7)
C73_5 C 0.30297(19) 0.93136(18) 0.69928(10)
C74_5 C 0.33483(18) 0.90321(18) 0.69958(10)
C75_5 C 0.3386(2) 0.87664(18) 0.71540(10)
H37_5 H 0.319628 0.876204 0.725844
C76_5 C 0.3696(2) 0.85106(19) 0.71594(12)
H38_5 H 0.372069 0.833356 0.726876
C77_5 C 0.3625(2) 0.9035(2) 0.68423(11)
H39_5 H 0.359907 0.920928 0.673195
C78_5 C 0.3944(2) 0.8774(2) 0.68530(12)
H40_5 H 0.414004 0.878237 0.675197
C79_5 C 0.39754(18) 0.85079(19) 0.70065(12)
C80_5 C 0.42898(19) 0.82095(18) 0.70086(12)
C81_5 C 0.3780(2) 0.7697(2) 0.69631(14)
H41_5 H 0.355903 0.786046 0.694507
C82_5 C 0.41752(18) 0.78236(19) 0.69952(12)
C83_5 C 0.46782(19) 0.83329(18) 0.70222(12)
C84_5 C 0.4809(2) 0.87312(19) 0.70390(13)
H42_5 H 0.464570 0.895514 0.704848
O22_3 O 0.72308(13) 0.93267(13) 0.71284(7)
O23_3 O 0.69904(13) 0.95642(13) 0.68502(7)
C85_5 C 0.69703(19) 0.93136(18) 0.69928(10)
C86_5 C 0.66517(18) 0.90321(18) 0.69958(10)
C87_5 C 0.6614(2) 0.87664(18) 0.71540(10)
H43_5 H 0.680372 0.876204 0.725844
C88_5 C 0.6304(2) 0.85106(19) 0.71594(12)
H44_5 H 0.627931 0.833356 0.726876
C89_5 C 0.6375(2) 0.9035(2) 0.68423(11)
H45_5 H 0.640093 0.920928 0.673195
C90_5 C 0.6056(2) 0.8774(2) 0.68530(12)
H46_5 H 0.585996 0.878237 0.675197
C91_5 C 0.60246(18) 0.85079(19) 0.70065(12)
C92_5 C 0.57102(19) 0.82095(18) 0.70086(12)
C93_5 C 0.6220(2) 0.7697(2) 0.69631(14)
H47_5 H 0.644097 0.786046 0.694507
C94_5 C 0.58248(18) 0.78236(19) 0.69952(12)
C95_5 C 0.53218(19) 0.83329(18) 0.70222(12)
C96_5 C 0.5191(2) 0.87312(19) 0.70390(13)
H48_5 H 0.535430 0.895514 0.704848
U2_3 U 0.24863(2) 0.99471(2) 0.69964(2)
C97_5 C 0.1906(2) 0.9992(2) 0.73021(13)
O27_5 O 0.21575(15) 0.97000(17) 0.68399(8)
C99_5 C 0.1190(2) 0.9714(2) 0.77005(11)
H49_5 H 0.110979 0.948613 0.777105
C100_5 C 0.1478(2) 0.9688(2) 0.75569(10)
H50_5 H 0.159782 0.944249 0.753056
O29_3 O 0.19354(16) 0.97865(16) 0.93449(8)
O32_6 O 0.000000 0.9490(3) 0.83039(12)
C118_5 C 0.1345(2) 0.9791(2) 0.90480(12)
H59_5 H 0.136555 0.956367 0.912917
C119_5 C 0.1058(2) 0.9823(3) 0.89058(12)
H60_5 H 0.088375 0.961004 0.888638
U3_3 U 0.25529(2) 0.50137(2) 0.94964(2)
O39_5 O 0.23065(15) 0.46782(16) 0.96507(8)
O40_5 O 0.28000(17) 0.53425(15) 0.93399(8)
U6_2 U 0.75137(2) 0.99471(2) 0.69964(2)
U8_2 U 0.75137(2) 0.50529(2) 0.69964(2)
U9_3 U 0.25529(2) 0.99863(2) 0.94964(2)
O44_3 O 0.31733(13) 0.47308(13) 0.96284(7)
O47_3 O 0.29358(13) 0.44904(13) 0.93502(7)
O50_3 O 0.28080(15) 0.53769(14) 0.97885(8)
O52_3 O 0.22865(16) 0.44354(16) 0.68449(8)
O55_3 O 0.22337(16) 0.55506(17) 0.96742(8)
O56_3 O 0.27948(14) 0.47205(14) 0.67106(7)
H77_2 H 0.0236895 0.937848 0.823953
H78_3 H 2.46519e-32 0.942475 0.844949
H85_2 H 0.0236895 0.410306 0.817048
H86_3 H 1.2326e-32 0.407732 0.838137
H90_3 H 1.2326e-32 0.557525 0.844949
N9_7 N 1.000000 0.0107(3) 0.79651(12)
Mn3_7 Mn 1.000000 0.01539(5) 0.82651(2)
N11_7 N 1.000000 0.0177(2) 0.85671(10)
O33_7 O 1.000000 0.0809(3) 0.82439(12)
C122_5 C 0.8404(2) 0.0012(2) 0.74514(11)
N12_5 N 0.94152(14) 0.01447(17) 0.82656(7)
C125_5 C 0.8592(2) 0.0374(3) 0.74878(12)
H63_5 H 0.852474 0.059824 0.741086
C126_5 C 0.8985(2) 0.0067(2) 0.77426(11)
O37_3 O 0.80506(17) 0.02663(16) 0.71742(8)
C127_5 C 0.8874(2) 0.0399(3) 0.76355(12)
H64_5 H 0.899355 0.064363 0.766434
O38_3 O 0.77795(14) 0.02948(14) 0.92106(7)
C128_5 C 0.9295(2) 0.0096(2) 0.79017(10)
C129_5 C 0.9680(2) 0.0089(3) 0.78383(10)
C130_5 C 0.9808(2) 0.0051(3) 0.76363(11)
H65_5 H 0.964532 0.003009 0.752110
C131_5 C 0.91714(18) 0.0118(2) 0.81003(10)
C132_5 C 0.87724(19) 0.0115(2) 0.81635(11)
H66_5 H 0.854885 0.010618 0.807894
C133_5 C 0.91716(18) 0.0148(2) 0.84302(9)
C134_5 C 0.87741(19) 0.0128(2) 0.83633(11)
H67_5 H 0.854986 0.012383 0.844753
C135_5 C 0.92936(18) 0.0172(2) 0.86318(9)
C136_5 C 0.9799(2) 0.0230(3) 0.88978(10)
H68_5 H 0.963399 0.025264 0.901225
C137_5 C 0.96743(19) 0.0189(2) 0.86910(9)
C138_5 C 0.87334(19) 0.0463(2) 0.88180(10)
H69_5 H 0.876693 0.069766 0.874363
C139_5 C 0.89852(19) 0.0156(2) 0.87888(9)
C140_5 C 0.8427(2) 0.0432(2) 0.89573(10)
H70_5 H 0.824504 0.063952 0.897206
C141_5 C 0.8391(2) 0.0101(2) 0.90721(10)
C144_5 C 0.8065(2) 0.0060(2) 0.92163(11)
H81_2 H 0.976311 0.0896944 0.817048
H82_4 H 1 0.0922676 0.838137
N1_7 N 1.000000 0.4893(3) 0.79651(12)
Mn2_7 Mn 1.000000 0.48461(5) 0.82651(2)
N4_7 N 1.000000 0.4823(2) 0.85671(10)
O11_7 O 1.000000 0.5510(3) 0.83039(12)
O12_7 O 1.000000 0.4191(3) 0.82439(12)
C37_5 C 0.8094(2) 0.5008(2) 0.73021(13)
C38_5 C 0.8404(2) 0.4988(2) 0.74514(11)
N6_5 N 0.94152(14) 0.48553(17) 0.82656(7)
C39_5 C 0.8810(2) 0.5286(2) 0.77005(11)
H19_5 H 0.889021 0.551387 0.777105
C40_5 C 0.8522(2) 0.5312(2) 0.75569(10)
H20_5 H 0.840218 0.555751 0.753056
O14_5 O 0.78769(14) 0.53080(15) 0.72885(8)
C41_5 C 0.8592(2) 0.4626(3) 0.74878(12)
H21_5 H 0.852474 0.440176 0.741086
O15_3 O 0.80646(16) 0.52135(16) 0.93449(8)
C42_5 C 0.8985(2) 0.4933(2) 0.77426(11)
O16_5 O 0.80506(17) 0.47337(16) 0.71742(8)
C43_5 C 0.8874(2) 0.4601(3) 0.76355(12)
H22_5 H 0.899355 0.435637 0.766434
O17_3 O 0.77795(14) 0.47052(14) 0.92106(7)
C44_5 C 0.9295(2) 0.4904(2) 0.79017(10)
C45_5 C 0.9680(2) 0.4911(3) 0.78383(10)
C46_5 C 0.9808(2) 0.4949(3) 0.76363(11)
H23_5 H 0.964532 0.496991 0.752110
C47_5 C 0.91714(18) 0.4882(2) 0.81003(10)
C48_5 C 0.87724(19) 0.4885(2) 0.81635(11)
H24_5 H 0.854885 0.489382 0.807894
C49_5 C 0.91716(18) 0.4852(2) 0.84302(9)
C50_5 C 0.87741(19) 0.4872(2) 0.83633(11)
H25_5 H 0.854986 0.487617 0.844753
C51_5 C 0.92936(18) 0.4828(2) 0.86318(9)
C52_5 C 0.9799(2) 0.4770(3) 0.88978(10)
H26_5 H 0.963399 0.474736 0.901225
C53_5 C 0.96743(19) 0.4811(2) 0.86910(9)
C54_5 C 0.87334(19) 0.4537(2) 0.88180(10)
H27_5 H 0.876693 0.430234 0.874363
C55_5 C 0.89852(19) 0.4844(2) 0.87888(9)
C56_5 C 0.8427(2) 0.4568(2) 0.89573(10)
H28_5 H 0.824504 0.436048 0.897206
C57_5 C 0.8391(2) 0.4899(2) 0.90721(10)
C58_5 C 0.8655(2) 0.5209(2) 0.90480(12)
H29_5 H 0.863445 0.543633 0.912917
C59_5 C 0.8942(2) 0.5177(3) 0.89058(12)
H30_5 H 0.911625 0.538996 0.888638
C60_5 C 0.8065(2) 0.4940(2) 0.92163(11)
O32_7 O 1.000000 0.9490(3) 0.83039(12)
C121_5 C 0.8094(2) 0.9992(2) 0.73021(13)
C123_5 C 0.8810(2) 0.9714(2) 0.77005(11)
H61_5 H 0.889021 0.948613 0.777105
C124_5 C 0.8522(2) 0.9688(2) 0.75569(10)
H62_5 H 0.840218 0.944249 0.753056
O35_3 O 0.78769(14) 0.96920(15) 0.72885(8)
O36_3 O 0.80646(16) 0.97865(16) 0.93449(8)
C142_5 C 0.8655(2) 0.9791(2) 0.90480(12)
H71_5 H 0.863445 0.956367 0.912917
C143_5 C 0.8942(2) 0.9823(3) 0.89058(12)
H72_5 H 0.911625 0.961004 0.888638
O41_5 O 0.71782(16) 0.48065(15) 0.71507(8)
O42_5 O 0.78425(15) 0.53000(17) 0.68399(8)
U5_3 U 0.74471(2) 0.99863(2) 0.94964(2)
U10_3 U 0.74471(2) 0.50137(2) 0.94964(2)
O54_3 O 0.77135(16) 0.44354(16) 0.68449(8)
O58_3 O 0.72052(14) 0.47205(14) 0.67106(7)
H78_4 H 1 0.942475 0.844949
H86_4 H 1 0.407732 0.838137
H89_2 H 0.976311 0.562152 0.823953
H90_4 H 1 0.557525 0.844949
U1_4 U 0.25137(2) 0.49471(2) 0.19964(2)
C1_6 C 0.3094(2) 0.4992(2) 0.23021(13)
N1_8 N 0.500000 0.5107(3) 0.29651(12)
Mn1_8 Mn 0.000000 0.250000 0.20098(4)
O1_6 O 0.21782(16) 0.51935(15) 0.21507(8)
O2_6 O 0.28425(15) 0.47000(17) 0.18399(8)
Mn2_8 Mn 0.500000 0.51539(5) 0.32651(2)
C2_6 C 0.3404(2) 0.5012(2) 0.24514(11)
N2_6 N 0.44152(14) 0.51447(17) 0.32656(7)
C3_6 C 0.3810(2) 0.4714(2) 0.27005(11)
H1_6 H 0.389021 0.448613 0.277105
N3_7 N 0.000000 0.3094(2) 0.20131(13)
O4_6 O 0.19904(13) 0.45642(13) 0.18502(7)
C4_6 C 0.3522(2) 0.4688(2) 0.25569(10)
H2_6 H 0.340218 0.444249 0.253056
N4_8 N 0.500000 0.5177(2) 0.35671(10)
C5_6 C 0.3592(2) 0.5374(3) 0.24878(12)
H3_6 H 0.352474 0.559824 0.241086
N5_7 N 0.0588(2) 0.250000 0.20077(14)
O6_6 O 0.30646(16) 0.47865(16) 0.43449(8)
C6_6 C 0.3985(2) 0.5067(2) 0.27426(11)
O7_6 O 0.30506(17) 0.52663(16) 0.21742(8)
C7_6 C 0.3874(2) 0.5399(3) 0.26355(12)
H4_6 H 0.399355 0.564363 0.266434
O8_6 O 0.27795(14) 0.52948(14) 0.42106(7)
C8_6 C 0.4295(2) 0.5096(2) 0.29017(10)
O9_8 O 0.000000 0.250000 0.2340(2)
C9_6 C 0.4680(2) 0.5089(3) 0.28383(10)
C10_6 C 0.4808(2) 0.5051(3) 0.26363(11)
H5_6 H 0.464532 0.503009 0.252110
O10_8 O 0.000000 0.250000 0.16663(19)
C11_6 C 0.41714(18) 0.5118(2) 0.31003(10)
O11_8 O 0.500000 0.4490(3) 0.33039(12)
C12_6 C 0.37724(19) 0.5115(2) 0.31635(11)
H6_6 H 0.354885 0.510618 0.307894
O12_8 O 0.500000 0.5809(3) 0.32439(12)
C13_6 C 0.41716(18) 0.5148(2) 0.34302(9)
C14_6 C 0.37741(19) 0.5128(2) 0.33633(11)
H7_6 H 0.354986 0.512383 0.344753
C15_6 C 0.42936(18) 0.5172(2) 0.36318(9)
C16_6 C 0.4799(2) 0.5230(3) 0.38978(10)
H8_6 H 0.463399 0.525264 0.401225
C17_6 C 0.46743(19) 0.5189(2) 0.36910(9)
C18_6 C 0.37334(19) 0.5463(2) 0.38180(10)
H9_6 H 0.376693 0.569766 0.374363
C19_6 C 0.39852(19) 0.5156(2) 0.37888(9)
C20_6 C 0.3427(2) 0.5432(2) 0.39573(10)
H10_6 H 0.324504 0.563952 0.397206
C21_6 C 0.3391(2) 0.5101(2) 0.40721(10)
C22_6 C 0.3655(2) 0.4791(2) 0.40480(12)
H11_6 H 0.363445 0.456367 0.412917
C23_6 C 0.3942(2) 0.4823(3) 0.39058(12)
H12_6 H 0.411625 0.461004 0.388638
C24_6 C 0.3065(2) 0.5060(2) 0.42163(11)
C25_6 C 0.19703(19) 0.43136(18) 0.19928(10)
C26_6 C 0.16517(18) 0.40321(18) 0.19958(10)
C27_6 C 0.1614(2) 0.37664(18) 0.21540(10)
H13_6 H 0.180372 0.376204 0.225844
C28_6 C 0.1304(2) 0.35106(19) 0.21594(12)
H14_6 H 0.127931 0.333356 0.226876
C29_6 C 0.1375(2) 0.4035(2) 0.18423(11)
H15_6 H 0.140093 0.420928 0.173195
C30_6 C 0.1056(2) 0.3774(2) 0.18530(12)
H16_6 H 0.085996 0.378237 0.175197
C31_6 C 0.10246(18) 0.35079(19) 0.20065(12)
C32_6 C 0.07102(19) 0.32095(18) 0.20086(12)
C33_6 C 0.1220(2) 0.2697(2) 0.19631(14)
H17_6 H 0.144097 0.286046 0.194507
C34_6 C 0.08248(18) 0.28236(19) 0.19952(12)
C35_6 C 0.03218(19) 0.33329(18) 0.20222(12)
C36_6 C 0.0191(2) 0.37312(19) 0.20390(13)
H18_6 H 0.035430 0.395514 0.204848
C37_6 C 0.6906(2) 0.4992(2) 0.23021(13)
C38_6 C 0.6596(2) 0.5012(2) 0.24514(11)
N6_6 N 0.55848(14) 0.51447(17) 0.32656(7)
C39_6 C 0.6190(2) 0.4714(2) 0.27005(11)
H19_6 H 0.610979 0.448613 0.277105
C40_6 C 0.6478(2) 0.4688(2) 0.25569(10)
H20_6 H 0.659782 0.444249 0.253056
O14_6 O 0.71231(14) 0.46920(15) 0.22885(8)
C41_6 C 0.6408(2) 0.5374(3) 0.24878(12)
H21_6 H 0.647526 0.559824 0.241086
O15_4 O 0.69354(16) 0.47865(16) 0.43449(8)
C42_6 C 0.6015(2) 0.5067(2) 0.27426(11)
O16_6 O 0.69494(17) 0.52663(16) 0.21742(8)
C43_6 C 0.6126(2) 0.5399(3) 0.26355(12)
H22_6 H 0.600645 0.564363 0.266434
O17_4 O 0.72205(14) 0.52948(14) 0.42106(7)
C44_6 C 0.5705(2) 0.5096(2) 0.29017(10)
C45_6 C 0.5320(2) 0.5089(3) 0.28383(10)
C46_6 C 0.5192(2) 0.5051(3) 0.26363(11)
H23_6 H 0.535468 0.503009 0.252110
C47_6 C 0.58286(18) 0.5118(2) 0.31003(10)
C48_6 C 0.62276(19) 0.5115(2) 0.31635(11)
H24_6 H 0.645115 0.510618 0.307894
C49_6 C 0.58284(18) 0.5148(2) 0.34302(9)
C50_6 C 0.62259(19) 0.5128(2) 0.33633(11)
H25_6 H 0.645014 0.512383 0.344753
C51_6 C 0.57064(18) 0.5172(2) 0.36318(9)
C52_6 C 0.5201(2) 0.5230(3) 0.38978(10)
H26_6 H 0.536601 0.525264 0.401225
C53_6 C 0.53257(19) 0.5189(2) 0.36910(9)
C54_6 C 0.62666(19) 0.5463(2) 0.38180(10)
H27_6 H 0.623307 0.569766 0.374363
C55_6 C 0.60148(19) 0.5156(2) 0.37888(9)
C56_6 C 0.6573(2) 0.5432(2) 0.39573(10)
H28_6 H 0.675496 0.563952 0.397206
C57_6 C 0.6609(2) 0.5101(2) 0.40721(10)
C58_6 C 0.6345(2) 0.4791(2) 0.40480(12)
H29_6 H 0.636555 0.456367 0.412917
C59_6 C 0.6058(2) 0.4823(3) 0.39058(12)
H30_6 H 0.588375 0.461004 0.388638
C60_6 C 0.6935(2) 0.5060(2) 0.42163(11)
N8_7 N 0.000000 0.1906(2) 0.20131(13)
O21_6 O 0.19904(13) 0.04358(13) 0.18502(7)
C73_6 C 0.19703(19) 0.06864(18) 0.19928(10)
C74_6 C 0.16517(18) 0.09679(18) 0.19958(10)
C75_6 C 0.1614(2) 0.12336(18) 0.21540(10)
H37_6 H 0.180372 0.123796 0.225844
C76_6 C 0.1304(2) 0.14894(19) 0.21594(12)
H38_6 H 0.127931 0.166644 0.226876
C77_6 C 0.1375(2) 0.0965(2) 0.18423(11)
H39_6 H 0.140093 0.079072 0.173195
C78_6 C 0.1056(2) 0.1226(2) 0.18530(12)
H40_6 H 0.085996 0.121763 0.175197
C79_6 C 0.10246(18) 0.14921(19) 0.20065(12)
C80_6 C 0.07102(19) 0.17905(18) 0.20086(12)
C81_6 C 0.1220(2) 0.2303(2) 0.19631(14)
H41_6 H 0.144097 0.213954 0.194507
C82_6 C 0.08248(18) 0.21764(19) 0.19952(12)
C83_6 C 0.03218(19) 0.16671(18) 0.20222(12)
C84_6 C 0.0191(2) 0.12688(19) 0.20390(13)
H42_6 H 0.035430 0.104486 0.204848
U2_4 U 0.25137(2) 0.00529(2) 0.19964(2)
C97_6 C 0.3094(2) 0.0008(2) 0.23021(13)
O27_6 O 0.28425(15) 0.03000(17) 0.18399(8)
C99_6 C 0.3810(2) 0.0286(2) 0.27005(11)
H49_6 H 0.389021 0.051387 0.277105
C100_6 C 0.3522(2) 0.0312(2) 0.25569(10)
H50_6 H 0.340218 0.055751 0.253056
O29_4 O 0.30646(16) 0.02135(16) 0.43449(8)
O32_8 O 0.500000 0.0510(3) 0.33039(12)
C118_6 C 0.3655(2) 0.0209(2) 0.40480(12)
H59_6 H 0.363445 0.043633 0.412917
C119_6 C 0.3942(2) 0.0177(3) 0.39058(12)
H60_6 H 0.411625 0.038996 0.388638
C121_6 C 0.6906(2) 0.0008(2) 0.23021(13)
C123_6 C 0.6190(2) 0.0286(2) 0.27005(11)
H61_6 H 0.610979 0.051387 0.277105
C124_6 C 0.6478(2) 0.0312(2) 0.25569(10)
H62_6 H 0.659782 0.055751 0.253056
O35_4 O 0.71231(14) 0.03080(15) 0.22885(8)
O36_4 O 0.69354(16) 0.02135(16) 0.43449(8)
C142_6 C 0.6345(2) 0.0209(2) 0.40480(12)
H71_6 H 0.636555 0.043633 0.412917
C143_6 C 0.6058(2) 0.0177(3) 0.39058(12)
H72_6 H 0.588375 0.038996 0.388638
U3_4 U 0.24471(2) 0.49863(2) 0.44964(2)
O39_6 O 0.26935(15) 0.53218(16) 0.46507(8)
O40_6 O 0.22000(17) 0.46575(15) 0.43399(8)
U4_2 U 0.74863(2) 0.49471(2) 0.19964(2)
O41_6 O 0.78218(16) 0.51935(15) 0.21507(8)
O42_6 O 0.71575(15) 0.47000(17) 0.18399(8)
U5_4 U 0.75529(2) 0.00137(2) 0.44964(2)
U7_2 U 0.74863(2) 0.00529(2) 0.19964(2)
U9_4 U 0.24471(2) 0.00137(2) 0.44964(2)
U10_4 U 0.75529(2) 0.49863(2) 0.44964(2)
O44_4 O 0.18267(13) 0.52692(13) 0.46284(7)
O45_3 O 0.77692(13) 0.43267(13) 0.21284(7)
O47_4 O 0.20642(13) 0.55096(13) 0.43502(7)
O48_3 O 0.80096(13) 0.45642(13) 0.18502(7)
O50_4 O 0.21920(15) 0.46231(14) 0.47885(8)
O52_4 O 0.27135(16) 0.55646(16) 0.18449(8)
O54_4 O 0.72865(16) 0.55646(16) 0.18449(8)
O55_4 O 0.27663(16) 0.44494(17) 0.46742(8)
O56_4 O 0.22052(14) 0.52795(14) 0.17106(7)
O58_4 O 0.77948(14) 0.52795(14) 0.17106(7)
N9_8 N 0.500000 0.9893(3) 0.29651(12)
O26_6 O 0.21782(16) 0.98065(15) 0.21507(8)
Mn3_8 Mn 0.500000 0.98461(5) 0.32651(2)
C98_6 C 0.3404(2) 0.9988(2) 0.24514(11)
N10_6 N 0.44152(14) 0.98553(17) 0.32656(7)
N11_8 N 0.500000 0.9823(2) 0.35671(10)
C101_6 C 0.3592(2) 0.9626(3) 0.24878(12)
H51_6 H 0.352474 0.940176 0.241086
C102_6 C 0.3985(2) 0.9933(2) 0.27426(11)
O30_6 O 0.30506(17) 0.97337(16) 0.21742(8)
C103_6 C 0.3874(2) 0.9601(3) 0.26355(12)
H52_6 H 0.399355 0.935637 0.266434
O31_4 O 0.27795(14) 0.97052(14) 0.42106(7)
C104_6 C 0.4295(2) 0.9904(2) 0.29017(10)
C105_6 C 0.4680(2) 0.9911(3) 0.28383(10)
C106_6 C 0.4808(2) 0.9949(3) 0.26363(11)
H53_6 H 0.464532 0.996991 0.252110
C107_6 C 0.41714(18) 0.9882(2) 0.31003(10)
C108_6 C 0.37724(19) 0.9885(2) 0.31635(11)
H54_6 H 0.354885 0.989382 0.307894
O33_8 O 0.500000 0.9191(3) 0.32439(12)
C109_6 C 0.41716(18) 0.9852(2) 0.34302(9)
C110_6 C 0.37741(19) 0.9872(2) 0.33633(11)
H55_6 H 0.354986 0.987617 0.344753
C111_6 C 0.42936(18) 0.9828(2) 0.36318(9)
C112_6 C 0.4799(2) 0.9770(3) 0.38978(10)
H56_6 H 0.463399 0.974736 0.401225
C113_6 C 0.46743(19) 0.9811(2) 0.36910(9)
C114_6 C 0.37334(19) 0.9537(2) 0.38180(10)
H57_6 H 0.376693 0.930234 0.374363
C115_6 C 0.39852(19) 0.9844(2) 0.37888(9)
C116_6 C 0.3427(2) 0.9568(2) 0.39573(10)
H58_6 H 0.324504 0.936048 0.397206
C117_6 C 0.3391(2) 0.9899(2) 0.40721(10)
C120_6 C 0.3065(2) 0.9940(2) 0.42163(11)
C122_6 C 0.6596(2) 0.9988(2) 0.24514(11)
N12_6 N 0.55848(14) 0.98553(17) 0.32656(7)
C125_6 C 0.6408(2) 0.9626(3) 0.24878(12)
H63_6 H 0.647526 0.940176 0.241086
C126_6 C 0.6015(2) 0.9933(2) 0.27426(11)
O37_4 O 0.69494(17) 0.97337(16) 0.21742(8)
C127_6 C 0.6126(2) 0.9601(3) 0.26355(12)
H64_6 H 0.600645 0.935637 0.266434
O38_4 O 0.72205(14) 0.97052(14) 0.42106(7)
C128_6 C 0.5705(2) 0.9904(2) 0.29017(10)
C129_6 C 0.5320(2) 0.9911(3) 0.28383(10)
C130_6 C 0.5192(2) 0.9949(3) 0.26363(11)
H65_6 H 0.535468 0.996991 0.252110
C131_6 C 0.58286(18) 0.9882(2) 0.31003(10)
C132_6 C 0.62276(19) 0.9885(2) 0.31635(11)
H66_6 H 0.645115 0.989382 0.307894
C133_6 C 0.58284(18) 0.9852(2) 0.34302(9)
C134_6 C 0.62259(19) 0.9872(2) 0.33633(11)
H67_6 H 0.645014 0.987617 0.344753
C135_6 C 0.57064(18) 0.9828(2) 0.36318(9)
C136_6 C 0.5201(2) 0.9770(3) 0.38978(10)
H68_6 H 0.536601 0.974736 0.401225
C137_6 C 0.53257(19) 0.9811(2) 0.36910(9)
C138_6 C 0.62666(19) 0.9537(2) 0.38180(10)
H69_6 H 0.623307 0.930234 0.374363
C139_6 C 0.60148(19) 0.9844(2) 0.37888(9)
C140_6 C 0.6573(2) 0.9568(2) 0.39573(10)
H70_6 H 0.675496 0.936048 0.397206
C141_6 C 0.6609(2) 0.9899(2) 0.40721(10)
C144_6 C 0.6935(2) 0.9940(2) 0.42163(11)
O53_4 O 0.27135(16) 0.94354(16) 0.18449(8)
O57_4 O 0.22052(14) 0.97205(14) 0.17106(7)
Mn1_9 Mn 1.000000 0.250000 0.20098(4)
N3_8 N 1.000000 0.3094(2) 0.20131(13)
O9_9 O 1.000000 0.250000 0.2340(2)
O10_9 O 1.000000 0.250000 0.16663(19)
N7_7 N 0.9412(2) 0.250000 0.20077(14)
C61_6 C 0.80297(19) 0.43136(18) 0.19928(10)
C62_6 C 0.83483(18) 0.40321(18) 0.19958(10)
C63_6 C 0.8386(2) 0.37664(18) 0.21540(10)
H31_6 H 0.819628 0.376204 0.225844
C64_6 C 0.8696(2) 0.35106(19) 0.21594(12)
H32_6 H 0.872069 0.333356 0.226876
C65_6 C 0.8625(2) 0.4035(2) 0.18423(11)
H33_6 H 0.859907 0.420928 0.173195
C66_6 C 0.8944(2) 0.3774(2) 0.18530(12)
H34_6 H 0.914004 0.378237 0.175197
C67_6 C 0.89754(18) 0.35079(19) 0.20065(12)
C68_6 C 0.92898(19) 0.32095(18) 0.20086(12)
C69_6 C 0.8780(2) 0.2697(2) 0.19631(14)
H35_6 H 0.855903 0.286046 0.194507
C70_6 C 0.91752(18) 0.28236(19) 0.19952(12)
C71_6 C 0.96782(19) 0.33329(18) 0.20222(12)
C72_6 C 0.9809(2) 0.37312(19) 0.20390(13)
H36_6 H 0.964570 0.395514 0.204848
N8_8 N 1.000000 0.1906(2) 0.20131(13)
O22_4 O 0.77692(13) 0.06733(13) 0.21284(7)
O23_4 O 0.80096(13) 0.04358(13) 0.18502(7)
C85_6 C 0.80297(19) 0.06864(18) 0.19928(10)
C86_6 C 0.83483(18) 0.09679(18) 0.19958(10)
C87_6 C 0.8386(2) 0.12336(18) 0.21540(10)
H43_6 H 0.819628 0.123796 0.225844
C88_6 C 0.8696(2) 0.14894(19) 0.21594(12)
H44_6 H 0.872069 0.166644 0.226876
C89_6 C 0.8625(2) 0.0965(2) 0.18423(11)
H45_6 H 0.859907 0.079072 0.173195
C90_6 C 0.8944(2) 0.1226(2) 0.18530(12)
H46_6 H 0.914004 0.121763 0.175197
C91_6 C 0.89754(18) 0.14921(19) 0.20065(12)
C92_6 C 0.92898(19) 0.17905(18) 0.20086(12)
C93_6 C 0.8780(2) 0.2303(2) 0.19631(14)
H47_6 H 0.855903 0.213954 0.194507
C94_6 C 0.91752(18) 0.21764(19) 0.19952(12)
C95_6 C 0.96782(19) 0.16671(18) 0.20222(12)
C96_6 C 0.9809(2) 0.12688(19) 0.20390(13)
H48_6 H 0.964570 0.104486 0.204848
C97_7 C 0.2492(2) 0.0594(2) 0.48021(13)
N9_9 N 0.2607(3) 0.250000 0.54651(12)
O27_7 O 0.22000(17) 0.03425(15) 0.43399(8)
Mn3_9 Mn 0.26539(5) 0.250000 0.57651(2)
C98_7 C 0.2512(2) 0.0904(2) 0.49514(11)
N10_7 N 0.26447(17) 0.19152(14) 0.57656(7)
C99_7 C 0.2214(2) 0.1310(2) 0.52005(11)
H49_7 H 0.198613 0.139021 0.527105
C100_7 C 0.2188(2) 0.1022(2) 0.50569(10)
H50_7 H 0.194249 0.090218 0.503056
N11_9 N 0.2677(2) 0.250000 0.60671(10)
C101_7 C 0.2874(3) 0.1092(2) 0.49878(12)
H51_7 H 0.309824 0.102474 0.491086
C102_7 C 0.2567(2) 0.1485(2) 0.52426(11)
O30_7 O 0.27663(16) 0.05506(17) 0.46742(8)
C103_7 C 0.2899(3) 0.1374(2) 0.51355(12)
H52_7 H 0.314363 0.149355 0.516434
C104_7 C 0.2596(2) 0.1795(2) 0.54017(10)
C105_7 C 0.2589(3) 0.2180(2) 0.53383(10)
C106_7 C 0.2551(3) 0.2308(2) 0.51363(11)
H53_7 H 0.253009 0.214532 0.502110
C107_7 C 0.2618(2) 0.16714(18) 0.56003(10)
O32_9 O 0.1990(3) 0.250000 0.58039(12)
C108_7 C 0.2615(2) 0.12724(19) 0.56635(11)
H54_7 H 0.260618 0.104885 0.557894
O33_9 O 0.3309(3) 0.250000 0.57439(12)
C109_7 C 0.2648(2) 0.16716(18) 0.59302(9)
C110_7 C 0.2628(2) 0.12741(19) 0.58633(11)
H55_7 H 0.262383 0.104986 0.594753
C111_7 C 0.2672(2) 0.17936(18) 0.61318(9)
C112_7 C 0.2730(3) 0.2299(2) 0.63978(10)
H56_7 H 0.275264 0.213399 0.651225
C113_7 C 0.2689(2) 0.21743(19) 0.61910(9)
C114_7 C 0.2963(2) 0.12334(19) 0.63180(10)
H57_7 H 0.319766 0.126693 0.624363
C115_7 C 0.2656(2) 0.14852(19) 0.62888(9)
C116_7 C 0.2932(2) 0.0927(2) 0.64573(10)
H58_7 H 0.313952 0.074504 0.647206
C117_7 C 0.2601(2) 0.0891(2) 0.65721(10)
C118_7 C 0.2291(2) 0.1155(2) 0.65480(12)
H59_7 H 0.206367 0.113445 0.662917
C119_7 C 0.2323(3) 0.1442(2) 0.64058(12)
H60_7 H 0.211004 0.161625 0.638638
C120_7 C 0.2560(2) 0.0565(2) 0.67163(11)
C121_7 C 0.2492(2) 0.4406(2) 0.48021(13)
C122_7 C 0.2512(2) 0.4096(2) 0.49514(11)
N12_7 N 0.26447(17) 0.30848(14) 0.57656(7)
C123_7 C 0.2214(2) 0.3690(2) 0.52005(11)
H61_7 H 0.198613 0.360979 0.527105
C124_7 C 0.2188(2) 0.3978(2) 0.50569(10)
H62_7 H 0.194249 0.409782 0.503056
C125_7 C 0.2874(3) 0.3908(2) 0.49878(12)
H63_7 H 0.309824 0.397526 0.491086
C126_7 C 0.2567(2) 0.3515(2) 0.52426(11)
C127_7 C 0.2899(3) 0.3626(2) 0.51355(12)
H64_7 H 0.314363 0.350645 0.516434
C128_7 C 0.2596(2) 0.3205(2) 0.54017(10)
C129_7 C 0.2589(3) 0.2820(2) 0.53383(10)
C130_7 C 0.2551(3) 0.2692(2) 0.51363(11)
H65_7 H 0.253009 0.285468 0.502110
C131_7 C 0.2618(2) 0.33286(18) 0.56003(10)
C132_7 C 0.2615(2) 0.37276(19) 0.56635(11)
H66_7 H 0.260618 0.395115 0.557894
C133_7 C 0.2648(2) 0.33284(18) 0.59302(9)
C134_7 C 0.2628(2) 0.37259(19) 0.58633(11)
H67_7 H 0.262383 0.395014 0.594753
C135_7 C 0.2672(2) 0.32064(18) 0.61318(9)
C136_7 C 0.2730(3) 0.2701(2) 0.63978(10)
H68_7 H 0.275264 0.286601 0.651225
C137_7 C 0.2689(2) 0.28257(19) 0.61910(9)
C138_7 C 0.2963(2) 0.37666(19) 0.63180(10)
H69_7 H 0.319766 0.373307 0.624363
C139_7 C 0.2656(2) 0.35148(19) 0.62888(9)
C140_7 C 0.2932(2) 0.4073(2) 0.64573(10)
H70_7 H 0.313952 0.425496 0.647206
C141_7 C 0.2601(2) 0.4109(2) 0.65721(10)
C142_7 C 0.2291(2) 0.3845(2) 0.65480(12)
H71_7 H 0.206367 0.386555 0.662917
C143_7 C 0.2323(3) 0.3558(2) 0.64058(12)
H72_7 H 0.211004 0.338375 0.638638
C144_7 C 0.2560(2) 0.4435(2) 0.67163(11)
Mn1_10 Mn 0.000000 0.750000 0.45098(4)
N5_8 N 0.000000 0.8088(2) 0.45077(14)
O9_10 O 0.000000 0.750000 0.4840(2)
O10_10 O 0.000000 0.750000 0.41663(19)
N7_8 N 0.000000 0.6912(2) 0.45077(14)
N8_9 N 0.0594(2) 0.750000 0.45131(13)
O21_7 O 0.20642(13) 0.94904(13) 0.43502(7)
C73_7 C 0.18136(18) 0.94703(19) 0.44928(10)
C74_7 C 0.15321(18) 0.91517(18) 0.44958(10)
C75_7 C 0.12664(18) 0.9114(2) 0.46540(10)
H37_7 H 0.126204 0.930372 0.475844
C76_7 C 0.10106(19) 0.8804(2) 0.46594(12)
H38_7 H 0.083356 0.877931 0.476876
C77_7 C 0.1535(2) 0.8875(2) 0.43423(11)
H39_7 H 0.170928 0.890093 0.423195
C78_7 C 0.1274(2) 0.8556(2) 0.43530(12)
H40_7 H 0.128237 0.835996 0.425197
C79_7 C 0.10079(19) 0.85246(18) 0.45065(12)
C80_7 C 0.07095(18) 0.82102(19) 0.45086(12)
C81_7 C 0.0197(2) 0.8720(2) 0.44631(14)
H41_7 H 0.036046 0.894097 0.444507
C82_7 C 0.03236(19) 0.83248(18) 0.44952(12)
C83_7 C 0.08329(18) 0.78218(19) 0.45222(12)
C84_7 C 0.12312(19) 0.7691(2) 0.45390(13)
H42_7 H 0.145514 0.785430 0.454848
C85_7 C 0.18136(18) 0.55297(19) 0.44928(10)
C86_7 C 0.15321(18) 0.58483(18) 0.44958(10)
C87_7 C 0.12664(18) 0.5886(2) 0.46540(10)
H43_7 H 0.126204 0.569628 0.475844
C88_7 C 0.10106(19) 0.6196(2) 0.46594(12)
H44_7 H 0.083356 0.622069 0.476876
C89_7 C 0.1535(2) 0.6125(2) 0.43423(11)
H45_7 H 0.170928 0.609907 0.423195
C90_7 C 0.1274(2) 0.6444(2) 0.43530(12)
H46_7 H 0.128237 0.664004 0.425197
C91_7 C 0.10079(19) 0.64754(18) 0.45065(12)
C92_7 C 0.07095(18) 0.67898(19) 0.45086(12)
C93_7 C 0.0197(2) 0.6280(2) 0.44631(14)
H47_7 H 0.036046 0.605903 0.444507
C94_7 C 0.03236(19) 0.66752(18) 0.44952(12)
C95_7 C 0.08329(18) 0.71782(19) 0.45222(12)
C96_7 C 0.12312(19) 0.7309(2) 0.45390(13)
H48_7 H 0.145514 0.714570 0.454848
O26_7 O 0.26935(15) 0.96782(16) 0.46507(8)
C1_7 C 0.7508(2) 0.0594(2) 0.48021(13)
N1_9 N 0.7393(3) 0.250000 0.54651(12)
O2_7 O 0.78000(17) 0.03425(15) 0.43399(8)
Mn2_9 Mn 0.73461(5) 0.250000 0.57651(2)
C2_7 C 0.7488(2) 0.0904(2) 0.49514(11)
N2_7 N 0.73553(17) 0.19152(14) 0.57656(7)
C3_7 C 0.7786(2) 0.1310(2) 0.52005(11)
H1_7 H 0.801387 0.139021 0.527105
C4_7 C 0.7812(2) 0.1022(2) 0.50569(10)
H2_7 H 0.805751 0.090218 0.503056
N4_9 N 0.7323(2) 0.250000 0.60671(10)
C5_7 C 0.7126(3) 0.1092(2) 0.49878(12)
H3_7 H 0.690176 0.102474 0.491086
O6_7 O 0.77135(16) 0.05646(16) 0.68449(8)
C6_7 C 0.7433(2) 0.1485(2) 0.52426(11)
O7_7 O 0.72337(16) 0.05506(17) 0.46742(8)
C7_7 C 0.7101(3) 0.1374(2) 0.51355(12)
H4_7 H 0.685637 0.149355 0.516434
O8_7 O 0.72052(14) 0.02795(14) 0.67106(7)
C8_7 C 0.7404(2) 0.1795(2) 0.54017(10)
C9_7 C 0.7411(3) 0.2180(2) 0.53383(10)
C10_7 C 0.7449(3) 0.2308(2) 0.51363(11)
H5_7 H 0.746991 0.214532 0.502110
C11_7 C 0.7382(2) 0.16714(18) 0.56003(10)
O11_9 O 0.8010(3) 0.250000 0.58039(12)
C12_7 C 0.7385(2) 0.12724(19) 0.56635(11)
H6_7 H 0.739382 0.104885 0.557894
O12_9 O 0.6691(3) 0.250000 0.57439(12)
C13_7 C 0.7352(2) 0.16716(18) 0.59302(9)
C14_7 C 0.7372(2) 0.12741(19) 0.58633(11)
H7_7 H 0.737617 0.104986 0.594753
C15_7 C 0.7328(2) 0.17936(18) 0.61318(9)
C16_7 C 0.7270(3) 0.2299(2) 0.63978(10)
H8_7 H 0.724736 0.213399 0.651225
C17_7 C 0.7311(2) 0.21743(19) 0.61910(9)
C18_7 C 0.7037(2) 0.12334(19) 0.63180(10)
H9_7 H 0.680234 0.126693 0.624363
C19_7 C 0.7344(2) 0.14852(19) 0.62888(9)
C20_7 C 0.7068(2) 0.0927(2) 0.64573(10)
H10_7 H 0.686048 0.074504 0.647206
C21_7 C 0.7399(2) 0.0891(2) 0.65721(10)
C22_7 C 0.7709(2) 0.1155(2) 0.65480(12)
H11_7 H 0.793633 0.113445 0.662917
C23_7 C 0.7677(3) 0.1442(2) 0.64058(12)
H12_7 H 0.788996 0.161625 0.638638
C24_7 C 0.7440(2) 0.0565(2) 0.67163(11)
C37_7 C 0.7508(2) 0.4406(2) 0.48021(13)
C38_7 C 0.7488(2) 0.4096(2) 0.49514(11)
N6_7 N 0.73553(17) 0.30848(14) 0.57656(7)
C39_7 C 0.7786(2) 0.3690(2) 0.52005(11)
H19_7 H 0.801387 0.360979 0.527105
C40_7 C 0.7812(2) 0.3978(2) 0.50569(10)
H20_7 H 0.805751 0.409782 0.503056
O14_7 O 0.78080(15) 0.46231(14) 0.47885(8)
C41_7 C 0.7126(3) 0.3908(2) 0.49878(12)
H21_7 H 0.690176 0.397526 0.491086
C42_7 C 0.7433(2) 0.3515(2) 0.52426(11)
O16_7 O 0.72337(16) 0.44494(17) 0.46742(8)
C43_7 C 0.7101(3) 0.3626(2) 0.51355(12)
H22_7 H 0.685637 0.350645 0.516434
C44_7 C 0.7404(2) 0.3205(2) 0.54017(10)
C45_7 C 0.7411(3) 0.2820(2) 0.53383(10)
C46_7 C 0.7449(3) 0.2692(2) 0.51363(11)
H23_7 H 0.746991 0.285468 0.502110
C47_7 C 0.7382(2) 0.33286(18) 0.56003(10)
C48_7 C 0.7385(2) 0.37276(19) 0.56635(11)
H24_7 H 0.739382 0.395115 0.557894
C49_7 C 0.7352(2) 0.33284(18) 0.59302(9)
C50_7 C 0.7372(2) 0.37259(19) 0.58633(11)
H25_7 H 0.737617 0.395014 0.594753
C51_7 C 0.7328(2) 0.32064(18) 0.61318(9)
C52_7 C 0.7270(3) 0.2701(2) 0.63978(10)
H26_7 H 0.724736 0.286601 0.651225
C53_7 C 0.7311(2) 0.28257(19) 0.61910(9)
C54_7 C 0.7037(2) 0.37666(19) 0.63180(10)
H27_7 H 0.680234 0.373307 0.624363
C55_7 C 0.7344(2) 0.35148(19) 0.62888(9)
C56_7 C 0.7068(2) 0.4073(2) 0.64573(10)
H28_7 H 0.686048 0.425496 0.647206
C57_7 C 0.7399(2) 0.4109(2) 0.65721(10)
C58_7 C 0.7709(2) 0.3845(2) 0.65480(12)
H29_7 H 0.793633 0.386555 0.662917
C59_7 C 0.7677(3) 0.3558(2) 0.64058(12)
H30_7 H 0.788996 0.338375 0.638638
C60_7 C 0.7440(2) 0.4435(2) 0.67163(11)
O39_7 O 0.71782(16) 0.01935(15) 0.71507(8)
O41_7 O 0.73065(15) 0.53218(16) 0.46507(8)
O42_7 O 0.78000(17) 0.46575(15) 0.43399(8)
O45_4 O 0.81733(13) 0.52692(13) 0.46284(7)
O48_4 O 0.79358(13) 0.55096(13) 0.43502(7)
Mn1_11 Mn 1.000000 0.750000 0.45098(4)
O1_7 O 0.73065(15) 0.96782(16) 0.46507(8)
N3_9 N 0.9406(2) 0.750000 0.45131(13)
O4_7 O 0.79358(13) 0.94904(13) 0.43502(7)
N5_9 N 1.000000 0.8088(2) 0.45077(14)
O9_11 O 1.000000 0.750000 0.4840(2)
O10_11 O 1.000000 0.750000 0.41663(19)
C25_7 C 0.81864(18) 0.94703(19) 0.44928(10)
C26_7 C 0.84679(18) 0.91517(18) 0.44958(10)
C27_7 C 0.87336(18) 0.9114(2) 0.46540(10)
H13_7 H 0.873796 0.930372 0.475844
C28_7 C 0.89894(19) 0.8804(2) 0.46594(12)
H14_7 H 0.916644 0.877931 0.476876
C29_7 C 0.8465(2) 0.8875(2) 0.43423(11)
H15_7 H 0.829072 0.890093 0.423195
C30_7 C 0.8726(2) 0.8556(2) 0.43530(12)
H16_7 H 0.871763 0.835996 0.425197
C31_7 C 0.89921(19) 0.85246(18) 0.45065(12)
C32_7 C 0.92905(18) 0.82102(19) 0.45086(12)
C33_7 C 0.9803(2) 0.8720(2) 0.44631(14)
H17_7 H 0.963954 0.894097 0.444507
C34_7 C 0.96764(19) 0.83248(18) 0.44952(12)
C35_7 C 0.91671(18) 0.78218(19) 0.45222(12)
C36_7 C 0.87688(19) 0.7691(2) 0.45390(13)
H18_7 H 0.854486 0.785430 0.454848
N7_9 N 1.000000 0.6912(2) 0.45077(14)
C61_7 C 0.81864(18) 0.55297(19) 0.44928(10)
C62_7 C 0.84679(18) 0.58483(18) 0.44958(10)
C63_7 C 0.87336(18) 0.5886(2) 0.46540(10)
H31_7 H 0.873796 0.569628 0.475844
C64_7 C 0.89894(19) 0.6196(2) 0.46594(12)
H32_7 H 0.916644 0.622069 0.476876
C65_7 C 0.8465(2) 0.6125(2) 0.43423(11)
H33_7 H 0.829072 0.609907 0.423195
C66_7 C 0.8726(2) 0.6444(2) 0.43530(12)
H34_7 H 0.871763 0.664004 0.425197
C67_7 C 0.89921(19) 0.64754(18) 0.45065(12)
C68_7 C 0.92905(18) 0.67898(19) 0.45086(12)
C69_7 C 0.9803(2) 0.6280(2) 0.44631(14)
H35_7 H 0.963954 0.605903 0.444507
C70_7 C 0.96764(19) 0.66752(18) 0.44952(12)
C71_7 C 0.91671(18) 0.71782(19) 0.45222(12)
C72_7 C 0.87688(19) 0.7309(2) 0.45390(13)
H36_7 H 0.854486 0.714570 0.454848
O40_7 O 0.78425(15) 0.97000(17) 0.68399(8)
O40_8 O 0.71575(15) 0.03000(17) 0.18399(8)
Mn1_12 Mn 0.500000 0.250000 0.95098(4)
O1_8 O 0.76935(15) 0.03218(16) 0.96507(8)
N3_10 N 0.5594(2) 0.250000 0.95131(13)
O4_8 O 0.70642(13) 0.05096(13) 0.93502(7)
N5_10 N 0.500000 0.1912(2) 0.95077(14)
O9_12 O 0.500000 0.250000 0.9840(2)
O10_12 O 0.500000 0.250000 0.91663(19)
C25_8 C 0.68136(18) 0.05297(19) 0.94928(10)
C26_8 C 0.65321(18) 0.08483(18) 0.94958(10)
C27_8 C 0.62664(18) 0.0886(2) 0.96540(10)
H13_8 H 0.626204 0.069628 0.975844
C28_8 C 0.60106(19) 0.1196(2) 0.96594(12)
H14_8 H 0.583356 0.122069 0.976876
C29_8 C 0.6535(2) 0.1125(2) 0.93423(11)
H15_8 H 0.670928 0.109907 0.923195
C30_8 C 0.6274(2) 0.1444(2) 0.93530(12)
H16_8 H 0.628237 0.164004 0.925197
C31_8 C 0.60079(19) 0.14754(18) 0.95065(12)
C32_8 C 0.57095(18) 0.17898(19) 0.95086(12)
C33_8 C 0.5197(2) 0.1280(2) 0.94631(14)
H17_8 H 0.536046 0.105903 0.944507
C34_8 C 0.53236(19) 0.16752(18) 0.94952(12)
C35_8 C 0.58329(18) 0.21782(19) 0.95222(12)
C36_8 C 0.62312(19) 0.2309(2) 0.95390(13)
H18_8 H 0.645514 0.214570 0.954848
O18_4 O 0.68267(13) 0.47308(13) 0.96284(7)
O19_4 O 0.70642(13) 0.44904(13) 0.93502(7)
N7_10 N 0.500000 0.3088(2) 0.95077(14)
C61_8 C 0.68136(18) 0.44703(19) 0.94928(10)
C62_8 C 0.65321(18) 0.41517(18) 0.94958(10)
C63_8 C 0.62664(18) 0.4114(2) 0.96540(10)
H31_8 H 0.626204 0.430372 0.975844
C64_8 C 0.60106(19) 0.3804(2) 0.96594(12)
H32_8 H 0.583356 0.377931 0.976876
C65_8 C 0.6535(2) 0.3875(2) 0.93423(11)
H33_8 H 0.670928 0.390093 0.923195
C66_8 C 0.6274(2) 0.3556(2) 0.93530(12)
H34_8 H 0.628237 0.335996 0.925197
C67_8 C 0.60079(19) 0.35246(18) 0.95065(12)
C68_8 C 0.57095(18) 0.32102(19) 0.95086(12)
C69_8 C 0.5197(2) 0.3720(2) 0.94631(14)
H35_8 H 0.536046 0.394097 0.944507
C70_8 C 0.53236(19) 0.33248(18) 0.94952(12)
C71_8 C 0.58329(18) 0.28218(19) 0.95222(12)
C72_8 C 0.62312(19) 0.2691(2) 0.95390(13)
H36_8 H 0.645514 0.285430 0.954848
N8_10 N 0.4406(2) 0.250000 0.95131(13)
O21_8 O 0.29358(13) 0.05096(13) 0.93502(7)
C73_8 C 0.31864(18) 0.05297(19) 0.94928(10)
C74_8 C 0.34679(18) 0.08483(18) 0.94958(10)
C75_8 C 0.37336(18) 0.0886(2) 0.96540(10)
H37_8 H 0.373796 0.069628 0.975844
C76_8 C 0.39894(19) 0.1196(2) 0.96594(12)
H38_8 H 0.416644 0.122069 0.976876
C77_8 C 0.3465(2) 0.1125(2) 0.93423(11)
H39_8 H 0.329072 0.109907 0.923195
C78_8 C 0.3726(2) 0.1444(2) 0.93530(12)
H40_8 H 0.371763 0.164004 0.925197
C79_8 C 0.39921(19) 0.14754(18) 0.95065(12)
C80_8 C 0.42905(18) 0.17898(19) 0.95086(12)
C81_8 C 0.4803(2) 0.1280(2) 0.94631(14)
H41_8 H 0.463954 0.105903 0.944507
C82_8 C 0.46764(19) 0.16752(18) 0.94952(12)
C83_8 C 0.41671(18) 0.21782(19) 0.95222(12)
C84_8 C 0.37688(19) 0.2309(2) 0.95390(13)
H42_8 H 0.354486 0.214570 0.954848
C85_8 C 0.31864(18) 0.44703(19) 0.94928(10)
C86_8 C 0.34679(18) 0.41517(18) 0.94958(10)
C87_8 C 0.37336(18) 0.4114(2) 0.96540(10)
H43_8 H 0.373796 0.430372 0.975844
C88_8 C 0.39894(19) 0.3804(2) 0.96594(12)
H44_8 H 0.416644 0.377931 0.976876
C89_8 C 0.3465(2) 0.3875(2) 0.93423(11)
H45_8 H 0.329072 0.390093 0.923195
C90_8 C 0.3726(2) 0.3556(2) 0.93530(12)
H46_8 H 0.371763 0.335996 0.925197
C91_8 C 0.39921(19) 0.35246(18) 0.95065(12)
C92_8 C 0.42905(18) 0.32102(19) 0.95086(12)
C93_8 C 0.4803(2) 0.3720(2) 0.94631(14)
H47_8 H 0.463954 0.394097 0.944507
C94_8 C 0.46764(19) 0.33248(18) 0.94952(12)
C95_8 C 0.41671(18) 0.28218(19) 0.95222(12)
C96_8 C 0.37688(19) 0.2691(2) 0.95390(13)
H48_8 H 0.354486 0.285430 0.954848
O26_8 O 0.23065(15) 0.03218(16) 0.96507(8)
N1_10 N 0.7607(3) 0.750000 0.04651(12)
Mn2_10 Mn 0.76539(5) 0.750000 0.07651(2)
N2_8 N 0.76447(17) 0.80848(14) 0.07656(7)
C3_8 C 0.7214(2) 0.8690(2) 0.02005(11)
H1_8 H 0.698613 0.860979 0.027105
C4_8 C 0.7188(2) 0.8978(2) 0.00569(10)
H2_8 H 0.694249 0.909782 0.003056
N4_10 N 0.7677(2) 0.750000 0.10671(10)
O6_8 O 0.72865(16) 0.94354(16) 0.18449(8)
C6_8 C 0.7567(2) 0.8515(2) 0.02426(11)
C7_8 C 0.7899(3) 0.8626(2) 0.01355(12)
H4_8 H 0.814363 0.850645 0.016434
O8_8 O 0.77948(14) 0.97205(14) 0.17106(7)
C8_8 C 0.7596(2) 0.8205(2) 0.04017(10)
C9_8 C 0.7589(3) 0.7820(2) 0.03383(10)
C10_8 C 0.7551(3) 0.7692(2) 0.01363(11)
H5_8 H 0.753009 0.785468 0.002110
C11_8 C 0.7618(2) 0.83286(18) 0.06003(10)
O11_10 O 0.6990(3) 0.750000 0.08039(12)
C12_8 C 0.7615(2) 0.87276(19) 0.06635(11)
H6_8 H 0.760618 0.895115 0.057894
O12_10 O 0.8309(3) 0.750000 0.07439(12)
C13_8 C 0.7648(2) 0.83284(18) 0.09302(9)
C14_8 C 0.7628(2) 0.87259(19) 0.08633(11)
H7_8 H 0.762383 0.895014 0.094753
C15_8 C 0.7672(2) 0.82064(18) 0.11318(9)
C16_8 C 0.7730(3) 0.7701(2) 0.13978(10)
H8_8 H 0.775264 0.786601 0.151225
C17_8 C 0.7689(2) 0.78257(19) 0.11910(9)
C18_8 C 0.7963(2) 0.87666(19) 0.13180(10)
H9_8 H 0.819766 0.873307 0.124363
C19_8 C 0.7656(2) 0.85148(19) 0.12888(9)
C20_8 C 0.7932(2) 0.9073(2) 0.14573(10)
H10_8 H 0.813952 0.925496 0.147206
C21_8 C 0.7601(2) 0.9109(2) 0.15721(10)
C22_8 C 0.7291(2) 0.8845(2) 0.15480(12)
H11_8 H 0.706367 0.886555 0.162917
C23_8 C 0.7323(3) 0.8558(2) 0.14058(12)
H12_8 H 0.711004 0.838375 0.138638
C24_8 C 0.7560(2) 0.9435(2) 0.17163(11)
N6_8 N 0.76447(17) 0.69152(14) 0.07656(7)
C39_8 C 0.7214(2) 0.6310(2) 0.02005(11)
H19_8 H 0.698613 0.639021 0.027105
C40_8 C 0.7188(2) 0.6022(2) 0.00569(10)
H20_8 H 0.694249 0.590218 0.003056
C42_8 C 0.7567(2) 0.6485(2) 0.02426(11)
C43_8 C 0.7899(3) 0.6374(2) 0.01355(12)
H22_8 H 0.814363 0.649355 0.016434
C44_8 C 0.7596(2) 0.6795(2) 0.04017(10)
C45_8 C 0.7589(3) 0.7180(2) 0.03383(10)
C46_8 C 0.7551(3) 0.7308(2) 0.01363(11)
H23_8 H 0.753009 0.714532 0.002110
C47_8 C 0.7618(2) 0.66714(18) 0.06003(10)
C48_8 C 0.7615(2) 0.62724(19) 0.06635(11)
H24_8 H 0.760618 0.604885 0.057894
C49_8 C 0.7648(2) 0.66716(18) 0.09302(9)
C50_8 C 0.7628(2) 0.62741(19) 0.08633(11)
H25_8 H 0.762383 0.604986 0.094753
C51_8 C 0.7672(2) 0.67936(18) 0.11318(9)
C52_8 C 0.7730(3) 0.7299(2) 0.13978(10)
H26_8 H 0.775264 0.713399 0.151225
C53_8 C 0.7689(2) 0.71743(19) 0.11910(9)
C54_8 C 0.7963(2) 0.62334(19) 0.13180(10)
H27_8 H 0.819766 0.626693 0.124363
C55_8 C 0.7656(2) 0.64852(19) 0.12888(9)
C56_8 C 0.7932(2) 0.5927(2) 0.14573(10)
H28_8 H 0.813952 0.574504 0.147206
C57_8 C 0.7601(2) 0.5891(2) 0.15721(10)
C58_8 C 0.7291(2) 0.6155(2) 0.15480(12)
H29_8 H 0.706367 0.613445 0.162917
C59_8 C 0.7323(3) 0.6442(2) 0.14058(12)
H30_8 H 0.711004 0.661625 0.138638
C60_8 C 0.7560(2) 0.5565(2) 0.17163(11)
N9_10 N 0.2393(3) 0.750000 0.04651(12)
Mn3_10 Mn 0.23461(5) 0.750000 0.07651(2)
N10_8 N 0.23553(17) 0.80848(14) 0.07656(7)
C99_8 C 0.2786(2) 0.8690(2) 0.02005(11)
H49_8 H 0.301387 0.860979 0.027105
C100_8 C 0.2812(2) 0.8978(2) 0.00569(10)
H50_8 H 0.305751 0.909782 0.003056
N11_10 N 0.2323(2) 0.750000 0.10671(10)
C102_8 C 0.2433(2) 0.8515(2) 0.02426(11)
C103_8 C 0.2101(3) 0.8626(2) 0.01355(12)
H52_8 H 0.185637 0.850645 0.016434
C104_8 C 0.2404(2) 0.8205(2) 0.04017(10)
C105_8 C 0.2411(3) 0.7820(2) 0.03383(10)
C106_8 C 0.2449(3) 0.7692(2) 0.01363(11)
H53_8 H 0.246991 0.785468 0.002110
C107_8 C 0.2382(2) 0.83286(18) 0.06003(10)
O32_10 O 0.3010(3) 0.750000 0.08039(12)
C108_8 C 0.2385(2) 0.87276(19) 0.06635(11)
H54_8 H 0.239382 0.895115 0.057894
O33_10 O 0.1691(3) 0.750000 0.07439(12)
C109_8 C 0.2352(2) 0.83284(18) 0.09302(9)
C110_8 C 0.2372(2) 0.87259(19) 0.08633(11)
H55_8 H 0.237617 0.895014 0.094753
C111_8 C 0.2328(2) 0.82064(18) 0.11318(9)
C112_8 C 0.2270(3) 0.7701(2) 0.13978(10)
H56_8 H 0.224736 0.786601 0.151225
C113_8 C 0.2311(2) 0.78257(19) 0.11910(9)
C114_8 C 0.2037(2) 0.87666(19) 0.13180(10)
H57_8 H 0.180234 0.873307 0.124363
C115_8 C 0.2344(2) 0.85148(19) 0.12888(9)
C116_8 C 0.2068(2) 0.9073(2) 0.14573(10)
H58_8 H 0.186048 0.925496 0.147206
C117_8 C 0.2399(2) 0.9109(2) 0.15721(10)
C118_8 C 0.2709(2) 0.8845(2) 0.15480(12)
H59_8 H 0.293633 0.886555 0.162917
C119_8 C 0.2677(3) 0.8558(2) 0.14058(12)
H60_8 H 0.288996 0.838375 0.138638
C120_8 C 0.2440(2) 0.9435(2) 0.17163(11)
N12_8 N 0.23553(17) 0.69152(14) 0.07656(7)
C123_8 C 0.2786(2) 0.6310(2) 0.02005(11)
H61_8 H 0.301387 0.639021 0.027105
C124_8 C 0.2812(2) 0.6022(2) 0.00569(10)
H62_8 H 0.305751 0.590218 0.003056
C126_8 C 0.2433(2) 0.6485(2) 0.02426(11)
C127_8 C 0.2101(3) 0.6374(2) 0.01355(12)
H64_8 H 0.185637 0.649355 0.016434
C128_8 C 0.2404(2) 0.6795(2) 0.04017(10)
C129_8 C 0.2411(3) 0.7180(2) 0.03383(10)
C130_8 C 0.2449(3) 0.7308(2) 0.01363(11)
H65_8 H 0.246991 0.714532 0.002110
C131_8 C 0.2382(2) 0.66714(18) 0.06003(10)
C132_8 C 0.2385(2) 0.62724(19) 0.06635(11)
H66_8 H 0.239382 0.604885 0.057894
C133_8 C 0.2352(2) 0.66716(18) 0.09302(9)
C134_8 C 0.2372(2) 0.62741(19) 0.08633(11)
H67_8 H 0.237617 0.604986 0.094753
C135_8 C 0.2328(2) 0.67936(18) 0.11318(9)
C136_8 C 0.2270(3) 0.7299(2) 0.13978(10)
H68_8 H 0.224736 0.713399 0.151225
C137_8 C 0.2311(2) 0.71743(19) 0.11910(9)
C138_8 C 0.2037(2) 0.62334(19) 0.13180(10)
H69_8 H 0.180234 0.626693 0.124363
C139_8 C 0.2344(2) 0.64852(19) 0.12888(9)
C140_8 C 0.2068(2) 0.5927(2) 0.14573(10)
H70_8 H 0.186048 0.574504 0.147206
C141_8 C 0.2399(2) 0.5891(2) 0.15721(10)
C142_8 C 0.2709(2) 0.6155(2) 0.15480(12)
H71_8 H 0.293633 0.613445 0.162917
C143_8 C 0.2677(3) 0.6442(2) 0.14058(12)
H72_8 H 0.288996 0.661625 0.138638
C144_8 C 0.2440(2) 0.5565(2) 0.17163(11)
O39_8 O 0.78218(16) 0.98065(15) 0.21507(8)
C1_8 C 0.7492(2) 0.9406(2) 0.98021(13)
O2_8 O 0.72000(17) 0.96575(15) 0.93399(8)
C2_8 C 0.7512(2) 0.9096(2) 0.99514(11)
C5_8 C 0.7874(3) 0.8908(2) 0.99878(12)
H3_8 H 0.809824 0.897526 0.991086
O7_8 O 0.77663(16) 0.94494(17) 0.96742(8)
C37_8 C 0.7492(2) 0.5594(2) 0.98021(13)
C38_8 C 0.7512(2) 0.5904(2) 0.99514(11)
O14_8 O 0.71920(15) 0.53769(14) 0.97885(8)
C41_8 C 0.7874(3) 0.6092(2) 0.99878(12)
H21_8 H 0.809824 0.602474 0.991086
O16_8 O 0.77663(16) 0.55506(17) 0.96742(8)
C97_8 C 0.2508(2) 0.9406(2) 0.98021(13)
O27_8 O 0.28000(17) 0.96575(15) 0.93399(8)
C98_8 C 0.2488(2) 0.9096(2) 0.99514(11)
C101_8 C 0.2126(3) 0.8908(2) 0.99878(12)
H51_8 H 0.190176 0.897526 0.991086
O30_8 O 0.22337(16) 0.94494(17) 0.96742(8)
C121_8 C 0.2508(2) 0.5594(2) 0.98021(13)
C122_8 C 0.2488(2) 0.5904(2) 0.99514(11)
C125_8 C 0.2126(3) 0.6092(2) 0.99878(12)
H63_8 H 0.190176 0.602474 0.991086
O41_8 O 0.76935(15) 0.46782(16) 0.96507(8)
O42_8 O 0.72000(17) 0.53425(15) 0.93399(8)
O13_5 O 0.8047(3) 0.1333(3) 0.26311(13)
O24_5 O 0.6953(3) 0.1333(3) 0.23689(13)
O25_5 O 0.6953(3) 0.3667(3) 0.23689(13)
O34_5 O 0.8047(3) 0.3667(3) 0.26311(13)
O13_6 O 0.6953(3) 0.8667(3) 0.76311(13)
O24_6 O 0.8047(3) 0.8667(3) 0.73689(13)
O25_6 O 0.8047(3) 0.6333(3) 0.73689(13)
O34_6 O 0.6953(3) 0.6333(3) 0.76311(13)
O13_7 O 0.1167(3) 0.5547(3) 0.51311(13)
O24_7 O 0.1167(3) 0.4453(3) 0.48689(13)
O25_7 O 0.8833(3) 0.4453(3) 0.48689(13)
O34_7 O 0.8833(3) 0.5547(3) 0.51311(13)
O13_8 O 0.3833(3) 0.4453(3) 0.01311(13)
O34_8 O 0.6167(3) 0.4453(3) 0.01311(13)
O24_8 O 0.3833(3) 0.5547(3) 0.98689(13)
O25_8 O 0.6167(3) 0.5547(3) 0.98689(13)
H81_3 H 0.0236895 0.0896944 0.817048
H89_3 H 0.0236895 0.562152 0.823953
H77_3 H 0.976311 0.937848 0.823953
H85_3 H 0.976311 0.410306 0.817048
H89_4 H 0.0236895 0.437848 0.176047
H81_4 H 0.0236895 0.910306 0.182952
H77_4 H 0.976311 0.0621517 0.176047
H85_4 H 0.976311 0.589694 0.182952
loop_
_geom_bond_atom_site_label_1
_geom_bond_atom_site_label_2
_geom_bond_site_symmetry_1
_geom_bond_site_symmetry_2
N9 Mn3 1_555 1_555
Mn3 N10 1_555 1_555
N10 C107 1_555 1_555
N11 Mn3 1_555 1_555
C101 C98 1_555 1_555
H51 C101 1_555 1_555
C103 C101 1_555 1_555
H52 C103 1_555 1_555
O31 C120 1_555 1_555
C104 C102 1_555 1_555
C105 N9 1_555 1_555
C106 C105 1_555 1_555
H53 C106 1_555 1_555
C107 C104 1_555 1_555
C108 C107 1_555 1_555
H54 C108 1_555 1_555
O33 Mn3 1_555 1_555
C109 N10 1_555 1_555
C110 C108 1_555 1_555
H55 C110 1_555 1_555
C111 C109 1_555 1_555
C112 H56 1_555 1_555
C113 N11 1_555 1_555
C114 H57 1_555 1_555
C115 C111 1_555 1_555
C116 C114 1_555 1_555
H58 C116 1_555 1_555
C117 C116 1_555 1_555
C120 C117 1_555 1_555
N12 Mn3 1_555 1_555
C125 C122 1_555 1_555
H63 C125 1_555 1_555
C127 C125 1_555 1_555
H64 C127 1_555 1_555
O38 C144 1_555 1_555
C128 C126 1_555 1_555
C129 N9 1_555 1_555
C130 C106 1_555 1_555
H65 C130 1_555 1_555
C131 N12 1_555 1_555
C132 C131 1_555 1_555
H66 C132 1_555 1_555
C133 N12 1_555 1_555
C134 C132 1_555 1_555
H67 C134 1_555 1_555
C135 C133 1_555 1_555
C136 C112 1_555 1_555
H68 C136 1_555 1_555
C137 N11 1_555 1_555
C138 H69 1_555 1_555
C139 C135 1_555 1_555
C140 C138 1_555 1_555
H70 C140 1_555 1_555
C141 C140 1_555 1_555
C144 C141 1_555 1_555
C102 C103 1_555 1_555
C104 C105 1_555 1_555
C109 C110 1_555 1_555
C111 C113 1_555 1_555
C112 C113 1_555 1_555
C114 C115 1_555 1_555
C126 C127 1_555 1_555
C128 C129 1_555 1_555
C128 C131 1_555 1_555
C129 C130 1_555 1_555
C133 C134 1_555 1_555
C135 C137 1_555 1_555
C136 C137 1_555 1_555
C138 C139 1_555 1_555
U1 O1 1_555 1_555
K1 O3 1_555 1_555
C1 C2 1_555 1_555
N1 Mn2 1_555 1_555
Mn1 N3 1_555 1_555
O2 U1 1_555 1_555
Mn2 N2 1_555 1_555
C2 C4 1_555 1_555
N2 C11 1_555 1_555
O3 U1 1_555 1_555
C3 H1 1_555 1_555
N3 C35 1_555 1_555
O4 U1 1_555 1_555
C4 C3 1_555 1_555
H2 C4 1_555 1_555
N4 Mn2 1_555 1_555
O5 U1 1_555 1_555
C5 C2 1_555 1_555
H3 C5 1_555 1_555
N5 Mn1 1_555 1_555
O6 C24 1_555 1_555
C6 C3 1_555 1_555
O7 U1 1_555 1_555
C7 C5 1_555 1_555
H4 C7 1_555 1_555
O8 C24 1_555 1_555
C8 C6 1_555 1_555
O9 Mn1 1_555 1_555
C9 N1 1_555 1_555
C10 C9 1_555 1_555
H5 C10 1_555 1_555
O10 Mn1 1_555 1_555
C11 C8 1_555 1_555
O11 Mn2 1_555 1_555
C12 C11 1_555 1_555
H6 C12 1_555 1_555
O12 Mn2 1_555 1_555
C13 N2 1_555 1_555
C14 C12 1_555 1_555
H7 C14 1_555 1_555
O13 K1 1_555 1_555
C15 C13 1_555 1_555
C16 H8 1_555 1_555
C17 N4 1_555 1_555
C18 H9 1_555 1_555
C19 C15 1_555 1_555
C20 C18 1_555 1_555
H10 C20 1_555 1_555
C21 C20 1_555 1_555
C22 C21 1_555 1_555
H11 C22 1_555 1_555
C23 C19 1_555 1_555
H12 C23 1_555 1_555
C24 C21 1_555 1_555
C25 O3 1_555 1_555
C26 C25 1_555 1_555
C27 C26 1_555 1_555
H13 C27 1_555 1_555
C28 C27 1_555 1_555
H14 C28 1_555 1_555
C29 C26 1_555 1_555
H15 C29 1_555 1_555
C30 C29 1_555 1_555
H16 C30 1_555 1_555
C31 C28 1_555 1_555
C32 C31 1_555 1_555
C33 H17 1_555 1_555
C34 N5 1_555 1_555
C35 C32 1_555 1_555
C36 C35 1_555 1_555
H18 C36 1_555 1_555
C37 C38 1_555 1_555
C38 C40 1_555 1_555
N6 Mn2 1_555 1_555
C39 H19 1_555 1_555
C40 C39 1_555 1_555
H20 C40 1_555 1_555
O14 C37 1_555 1_555
C41 C38 1_555 1_555
H21 C41 1_555 1_555
O15 C60 1_555 1_555
C42 C39 1_555 1_555
O16 C37 1_555 1_555
C43 C41 1_555 1_555
H22 C43 1_555 1_555
O17 C60 1_555 1_555
C44 C42 1_555 1_555
C45 N1 1_555 1_555
C46 C10 1_555 1_555
H23 C46 1_555 1_555
C47 N6 1_555 1_555
C48 C47 1_555 1_555
H24 C48 1_555 1_555
C49 N6 1_555 1_555
C50 C48 1_555 1_555
H25 C50 1_555 1_555
C51 C49 1_555 1_555
C52 C16 1_555 1_555
H26 C52 1_555 1_555
C53 N4 1_555 1_555
C54 H27 1_555 1_555
C55 C51 1_555 1_555
C56 C54 1_555 1_555
H28 C56 1_555 1_555
C57 C56 1_555 1_555
C58 C57 1_555 1_555
H29 C58 1_555 1_555
C59 C55 1_555 1_555
H30 C59 1_555 1_555
C60 C57 1_555 1_555
O20 C73 1_555 1_555
N8 Mn1 1_555 1_555
O21 C73 1_555 1_555
C73 C74 1_555 1_555
C74 C75 1_555 1_555
C75 H37 1_555 1_555
C76 C75 1_555 1_555
H38 C76 1_555 1_555
C77 C74 1_555 1_555
H39 C77 1_555 1_555
C78 C77 1_555 1_555
H40 C78 1_555 1_555
C79 C76 1_555 1_555
C80 C79 1_555 1_555
C81 C33 1_555 1_555
H41 C81 1_555 1_555
C82 N5 1_555 1_555
C83 N8 1_555 1_555
C84 C83 1_555 1_555
H42 C84 1_555 1_555
O24 K1 1_555 1_555
K2 O20 1_555 1_555
O25 K2 1_555 1_555
U2 O20 1_555 1_555
O27 U2 1_555 1_555
C99 H49 1_555 1_555
C100 C99 1_555 1_555
H50 C100 1_555 1_555
O28 K2 1_555 1_555
O34 K2 1_555 1_555
H59 C118 1_555 1_555
H60 C119 1_555 1_555
C123 H61 1_555 1_555
C124 C123 1_555 1_555
H62 C124 1_555 1_555
O35 C121 1_555 1_555
H71 C142 1_555 1_555
H72 C143 1_555 1_555
U3 O6 1_555 1_555
O39 U3 1_555 1_555
O40 U3 1_555 1_555
U4 O14 1_555 1_555
O41 U4 1_555 1_555
O42 U4 1_555 1_555
U5 O36 1_555 1_555
U7 O35 1_555 1_555
U9 O29 1_555 1_555
U10 O15 1_555 1_555
K4 O35 1_555 1_555
K6 O14 1_555 1_555
O43 K1 1_555 1_555
O44 U3 1_555 1_555
O45 U4 1_555 1_555
O46 K2 1_555 1_555
O47 U3 1_555 1_555
O48 U4 1_555 1_555
O49 K1 1_555 1_555
O50 U3 1_555 1_555
O51 K2 1_555 1_555
O52 U1 1_555 1_555
O54 U4 1_555 1_555
O55 U3 1_555 1_555
O56 U1 1_555 1_555
O58 U4 1_555 1_555
K1 O5 1_555 1_555
C1 O5 1_555 1_555
C1 O7 1_555 1_555
O4 C25 1_555 1_555
C6 C7 1_555 1_555
O8 U3 1_555 1_555
C8 C9 1_555 1_555
C13 C14 1_555 1_555
C15 C17 1_555 1_555
C16 C17 1_555 1_555
C18 C19 1_555 1_555
C22 C23 1_555 1_555
C30 C31 1_555 1_555
C32 C34 1_555 1_555
C33 C34 1_555 1_555
C42 C43 1_555 1_555
O16 U4 1_555 1_555
O17 U10 1_555 1_555
C44 C45 1_555 1_555
C44 C47 1_555 1_555
C45 C46 1_555 1_555
C49 C50 1_555 1_555
C51 C53 1_555 1_555
C52 C53 1_555 1_555
C54 C55 1_555 1_555
C58 C59 1_555 1_555
O21 U2 1_555 1_555
C78 C79 1_555 1_555
C80 C82 1_555 1_555
C80 C83 1_555 1_555
C81 C82 1_555 1_555
U2 O28 1_555 1_555
C97 O28 1_555 1_555
C118 C119 1_555 1_555
C142 C143 1_555 1_555
K6 O45 1_555 1_555
Mn1_2 N3_2 1_555 1_555
O9_2 Mn1_2 1_555 1_555
O10_2 Mn1_2 1_555 1_555
O45 C61 1_555 1_555
O48 C61 1_555 1_555
N7 Mn1_2 1_555 1_555
C61 C62 1_555 1_555
C62 C63 1_555 1_555
C63 H31 1_555 1_555
C64 C63 1_555 1_555
H32 C64 1_555 1_555
C65 C62 1_555 1_555
H33 C65 1_555 1_555
C66 C65 1_555 1_555
H34 C66 1_555 1_555
C67 C64 1_555 1_555
C68 C67 1_555 1_555
C69 H35 1_555 1_555
C70 N7 1_555 1_555
C71 N3_2 1_555 1_555
H36 C72 1_555 1_555
N8_2 Mn1_2 1_555 1_555
O22 C85 1_555 1_555
O23 C85 1_555 1_555
C85 C86 1_555 1_555
C86 C87 1_555 1_555
C87 H43 1_555 1_555
C88 C87 1_555 1_555
H44 C88 1_555 1_555
C89 C86 1_555 1_555
H45 C89 1_555 1_555
C90 C89 1_555 1_555
H46 C90 1_555 1_555
C91 C88 1_555 1_555
C92 C91 1_555 1_555
C93 C69 1_555 1_555
H47 C93 1_555 1_555
C94 N7 1_555 1_555
C95 N8_2 1_555 1_555
H48 C96 1_555 1_555
U7 O22 1_555 1_555
K4 O22 1_555 1_555
C66 C67 1_555 1_555
C68 C70 1_555 1_555
C68 C71 1_555 1_555
C69 C70 1_555 1_555
C71 C72 1_555 1_555
O23 U7 1_555 1_555
C90 C91 1_555 1_555
C92 C94 1_555 1_555
C92 C95 1_555 1_555
C93 C94 1_555 1_555
C95 C96 1_555 1_555
U1_2 O1_2 1_555 1_555
K1_2 O3_2 1_555 1_555
C1_2 C2_2 1_555 1_555
N1_2 Mn2_2 1_555 1_555
Mn1_3 N3_3 1_555 1_555
O2_2 U1_2 1_555 1_555
Mn2_2 N2_2 1_555 1_555
C2_2 C4_2 1_555 1_555
N2_2 C11_2 1_555 1_555
O3_2 U1_2 1_555 1_555
C3_2 H1_2 1_555 1_555
N3_3 C35_2 1_555 1_555
O4_2 U1_2 1_555 1_555
C4_2 C3_2 1_555 1_555
H2_2 C4_2 1_555 1_555
N4_2 Mn2_2 1_555 1_555
O5_2 U1_2 1_555 1_555
C5_2 C2_2 1_555 1_555
H3_2 C5_2 1_555 1_555
N5_2 Mn1_3 1_555 1_555
O6_2 C24_2 1_555 1_555
C6_2 C3_2 1_555 1_555
O7_2 U1_2 1_555 1_555
C7_2 C5_2 1_555 1_555
H4_2 C7_2 1_555 1_555
O8_2 C24_2 1_555 1_555
C8_2 C6_2 1_555 1_555
O9_3 Mn1_3 1_555 1_555
C9_2 N1_2 1_555 1_555
C10_2 C9_2 1_555 1_555
H5_2 C10_2 1_555 1_555
O10_3 Mn1_3 1_555 1_555
C11_2 C8_2 1_555 1_555
O11_2 Mn2_2 1_555 1_555
C12_2 C11_2 1_555 1_555
H6_2 C12_2 1_555 1_555
O12_2 Mn2_2 1_555 1_555
C13_2 N2_2 1_555 1_555
C14_2 C12_2 1_555 1_555
H7_2 C14_2 1_555 1_555
O13_2 K1_2 1_555 1_555
C15_2 C13_2 1_555 1_555
C16_2 H8_2 1_555 1_555
C17_2 N4_2 1_555 1_555
C18_2 H9_2 1_555 1_555
C19_2 C15_2 1_555 1_555
C20_2 C18_2 1_555 1_555
H10_2 C20_2 1_555 1_555
C21_2 C20_2 1_555 1_555
C22_2 C21_2 1_555 1_555
H11_2 C22_2 1_555 1_555
C23_2 C19_2 1_555 1_555
H12_2 C23_2 1_555 1_555
C24_2 C21_2 1_555 1_555
C25_2 O3_2 1_555 1_555
C26_2 C25_2 1_555 1_555
C27_2 C26_2 1_555 1_555
H13_2 C27_2 1_555 1_555
C28_2 C27_2 1_555 1_555
H14_2 C28_2 1_555 1_555
C29_2 C26_2 1_555 1_555
H15_2 C29_2 1_555 1_555
C30_2 C29_2 1_555 1_555
H16_2 C30_2 1_555 1_555
C31_2 C28_2 1_555 1_555
C32_2 C31_2 1_555 1_555
C33_2 H17_2 1_555 1_555
C34_2 N5_2 1_555 1_555
C35_2 C32_2 1_555 1_555
C36_2 C35_2 1_555 1_555
H18_2 C36_2 1_555 1_555
O18 C61_2 1_555 1_555
O19 C61_2 1_555 1_555
N7_2 Mn1_3 1_555 1_555
C61_2 C62_2 1_555 1_555
C62_2 C63_2 1_555 1_555
C63_2 H31_2 1_555 1_555
C64_2 C63_2 1_555 1_555
H32_2 C64_2 1_555 1_555
C65_2 C62_2 1_555 1_555
H33_2 C65_2 1_555 1_555
C66_2 C65_2 1_555 1_555
H34_2 C66_2 1_555 1_555
C67_2 C64_2 1_555 1_555
C68_2 C67_2 1_555 1_555
C69_2 H35_2 1_555 1_555
C70_2 N7_2 1_555 1_555
C71_2 N3_3 1_555 1_555
C72_2 C36_2 1_555 1_555
H36_2 C72_2 1_555 1_555
O20_2 C73_2 1_555 1_555
N8_3 Mn1_3 1_555 1_555
O21_2 C73_2 1_555 1_555
C73_2 C74_2 1_555 1_555
C74_2 C75_2 1_555 1_555
C75_2 H37_2 1_555 1_555
C76_2 C75_2 1_555 1_555
H38_2 C76_2 1_555 1_555
C77_2 C74_2 1_555 1_555
H39_2 C77_2 1_555 1_555
C78_2 C77_2 1_555 1_555
H40_2 C78_2 1_555 1_555
C79_2 C76_2 1_555 1_555
C80_2 C79_2 1_555 1_555
C81_2 C33_2 1_555 1_555
H41_2 C81_2 1_555 1_555
C82_2 N5_2 1_555 1_555
C83_2 N8_3 1_555 1_555
C84_2 C83_2 1_555 1_555
H42_2 C84_2 1_555 1_555
O22_2 C85_2 1_555 1_555
O23_2 C85_2 1_555 1_555
C85_2 C86_2 1_555 1_555
C86_2 C87_2 1_555 1_555
C87_2 H43_2 1_555 1_555
C88_2 C87_2 1_555 1_555
H44_2 C88_2 1_555 1_555
C89_2 C86_2 1_555 1_555
H45_2 C89_2 1_555 1_555
C90_2 C89_2 1_555 1_555
H46_2 C90_2 1_555 1_555
C91_2 C88_2 1_555 1_555
C92_2 C91_2 1_555 1_555
C93_2 C69_2 1_555 1_555
H47_2 C93_2 1_555 1_555
C94_2 N7_2 1_555 1_555
C95_2 N8_3 1_555 1_555
C96_2 C84_2 1_555 1_555
H48_2 C96_2 1_555 1_555
O24_2 K1_2 1_555 1_555
K2_2 O20_2 1_555 1_555
O25_2 K2_2 1_555 1_555
U2_2 O20_2 1_555 1_555
O27_2 U2_2 1_555 1_555
C99_2 H49_2 1_555 1_555
C100_2 C99_2 1_555 1_555
H50_2 C100_2 1_555 1_555
O28_2 K2_2 1_555 1_555
O34_2 K2_2 1_555 1_555
H59_2 C118_2 1_555 1_555
H60_2 C119_2 1_555 1_555
U3_2 O6_2 1_555 1_555
O39_2 U3_2 1_555 1_555
O40_2 U3_2 1_555 1_555
U6 O22_2 1_555 1_555
U8 O18 1_555 1_555
U9_2 O29_2 1_555 1_555
K3 O22_2 1_555 1_555
K5 O18 1_555 1_555
O43_2 K1_2 1_555 1_555
O44_2 U3_2 1_555 1_555
O46_2 K2_2 1_555 1_555
O47_2 U3_2 1_555 1_555
O49_2 K1_2 1_555 1_555
O50_2 U3_2 1_555 1_555
O51_2 K2_2 1_555 1_555
O52_2 U1_2 1_555 1_555
O55_2 U3_2 1_555 1_555
O56_2 U1_2 1_555 1_555
K1_2 O5_2 1_555 1_555
C1_2 O5_2 1_555 1_555
C1_2 O7_2 1_555 1_555
O4_2 C25_2 1_555 1_555
C6_2 C7_2 1_555 1_555
O8_2 U3_2 1_555 1_555
C8_2 C9_2 1_555 1_555
C13_2 C14_2 1_555 1_555
C15_2 C17_2 1_555 1_555
C16_2 C17_2 1_555 1_555
C18_2 C19_2 1_555 1_555
C22_2 C23_2 1_555 1_555
C30_2 C31_2 1_555 1_555
C32_2 C34_2 1_555 1_555
C33_2 C34_2 1_555 1_555
O19 U8 1_555 1_555
C66_2 C67_2 1_555 1_555
C68_2 C70_2 1_555 1_555
C68_2 C71_2 1_555 1_555
C69_2 C70_2 1_555 1_555
C71_2 C72_2 1_555 1_555
O21_2 U2_2 1_555 1_555
C78_2 C79_2 1_555 1_555
C80_2 C82_2 1_555 1_555
C80_2 C83_2 1_555 1_555
C81_2 C82_2 1_555 1_555
O23_2 U6 1_555 1_555
C90_2 C91_2 1_555 1_555
C92_2 C94_2 1_555 1_555
C92_2 C95_2 1_555 1_555
C93_2 C94_2 1_555 1_555
C95_2 C96_2 1_555 1_555
U2_2 O28_2 1_555 1_555
C97_2 O28_2 1_555 1_555
C118_2 C119_2 1_555 1_555
O32_2 H77 1_555 1_555
O32_2 H78 1_555 1_555
O12_2 H85 1_555 1_555
O12_2 H86 1_555 1_555
O11_2 H90 1_555 1_555
N9_2 Mn3_2 1_555 1_555
Mn3_2 N10_2 1_555 1_555
N10_2 C107_2 1_555 1_555
N11_2 Mn3_2 1_555 1_555
C101_2 C98_2 1_555 1_555
H51_2 C101_2 1_555 1_555
C103_2 C101_2 1_555 1_555
H52_2 C103_2 1_555 1_555
O31_2 C120_2 1_555 1_555
C104_2 C102_2 1_555 1_555
C105_2 N9_2 1_555 1_555
C106_2 C105_2 1_555 1_555
H53_2 C106_2 1_555 1_555
C107_2 C104_2 1_555 1_555
C108_2 C107_2 1_555 1_555
H54_2 C108_2 1_555 1_555
O33_2 Mn3_2 1_555 1_555
C109_2 N10_2 1_555 1_555
C110_2 C108_2 1_555 1_555
H55_2 C110_2 1_555 1_555
C111_2 C109_2 1_555 1_555
C112_2 H56_2 1_555 1_555
C113_2 N11_2 1_555 1_555
C114_2 H57_2 1_555 1_555
C115_2 C111_2 1_555 1_555
C116_2 C114_2 1_555 1_555
H58_2 C116_2 1_555 1_555
C117_2 C116_2 1_555 1_555
C120_2 C117_2 1_555 1_555
C102_2 C103_2 1_555 1_555
C104_2 C105_2 1_555 1_555
C109_2 C110_2 1_555 1_555
C111_2 C113_2 1_555 1_555
C112_2 C113_2 1_555 1_555
C114_2 C115_2 1_555 1_555
O33_2 H82 1_555 1_555
N1_3 Mn2_3 1_555 1_555
N4_3 Mn2_3 1_555 1_555
O11_3 Mn2_3 1_555 1_555
O12_3 Mn2_3 1_555 1_555
C37_2 C38_2 1_555 1_555
C38_2 C40_2 1_555 1_555
N6_2 Mn2_3 1_555 1_555
C39_2 H19_2 1_555 1_555
C40_2 C39_2 1_555 1_555
H20_2 C40_2 1_555 1_555
O14_2 C37_2 1_555 1_555
C41_2 C38_2 1_555 1_555
H21_2 C41_2 1_555 1_555
O15_2 C60_2 1_555 1_555
C42_2 C39_2 1_555 1_555
O16_2 C37_2 1_555 1_555
C43_2 C41_2 1_555 1_555
H22_2 C43_2 1_555 1_555
O17_2 C60_2 1_555 1_555
C44_2 C42_2 1_555 1_555
C45_2 N1_3 1_555 1_555
H23_2 C46_2 1_555 1_555
C47_2 N6_2 1_555 1_555
C48_2 C47_2 1_555 1_555
H24_2 C48_2 1_555 1_555
C49_2 N6_2 1_555 1_555
C50_2 C48_2 1_555 1_555
H25_2 C50_2 1_555 1_555
C51_2 C49_2 1_555 1_555
H26_2 C52_2 1_555 1_555
C53_2 N4_3 1_555 1_555
C54_2 H27_2 1_555 1_555
C55_2 C51_2 1_555 1_555
C56_2 C54_2 1_555 1_555
H28_2 C56_2 1_555 1_555
C57_2 C56_2 1_555 1_555
C58_2 C57_2 1_555 1_555
H29_2 C58_2 1_555 1_555
C59_2 C55_2 1_555 1_555
H30_2 C59_2 1_555 1_555
C60_2 C57_2 1_555 1_555
C123_2 H61_2 1_555 1_555
C124_2 C123_2 1_555 1_555
H62_2 C124_2 1_555 1_555
O35_2 C121_2 1_555 1_555
H71_2 C142_2 1_555 1_555
H72_2 C143_2 1_555 1_555
U8 O14_2 1_555 1_555
O41_2 U8 1_555 1_555
O42_2 U8 1_555 1_555
U5_2 O36_2 1_555 1_555
U6 O35_2 1_555 1_555
U10_2 O15_2 1_555 1_555
K3 O35_2 1_555 1_555
K5 O14_2 1_555 1_555
O54_2 U8 1_555 1_555
O58_2 U8 1_555 1_555
C42_2 C43_2 1_555 1_555
O16_2 U8 1_555 1_555
O17_2 U10_2 1_555 1_555
C44_2 C45_2 1_555 1_555
C44_2 C47_2 1_555 1_555
C45_2 C46_2 1_555 1_555
C49_2 C50_2 1_555 1_555
C51_2 C53_2 1_555 1_555
C52_2 C53_2 1_555 1_555
C54_2 C55_2 1_555 1_555
C58_2 C59_2 1_555 1_555
C142_2 C143_2 1_555 1_555
O32_3 H78_2 1_555 1_555
O12_3 H86_2 1_555 1_555
O11_3 H89 1_555 1_555
O11_3 H90_2 1_555 1_555
N9_3 Mn3_3 1_555 1_555
N11_3 Mn3_3 1_555 1_555
O33_3 Mn3_3 1_555 1_555
N12_2 Mn3_3 1_555 1_555
C125_2 C122_2 1_555 1_555
H63_2 C125_2 1_555 1_555
C127_2 C125_2 1_555 1_555
H64_2 C127_2 1_555 1_555
O38_2 C144_2 1_555 1_555
C128_2 C126_2 1_555 1_555
C129_2 N9_3 1_555 1_555
H65_2 C130_2 1_555 1_555
C131_2 N12_2 1_555 1_555
C132_2 C131_2 1_555 1_555
H66_2 C132_2 1_555 1_555
C133_2 N12_2 1_555 1_555
C134_2 C132_2 1_555 1_555
H67_2 C134_2 1_555 1_555
C135_2 C133_2 1_555 1_555
H68_2 C136_2 1_555 1_555
C137_2 N11_3 1_555 1_555
C138_2 H69_2 1_555 1_555
C139_2 C135_2 1_555 1_555
C140_2 C138_2 1_555 1_555
H70_2 C140_2 1_555 1_555
C141_2 C140_2 1_555 1_555
C144_2 C141_2 1_555 1_555
C126_2 C127_2 1_555 1_555
C128_2 C129_2 1_555 1_555
C128_2 C131_2 1_555 1_555
C129_2 C130_2 1_555 1_555
C133_2 C134_2 1_555 1_555
C135_2 C137_2 1_555 1_555
C136_2 C137_2 1_555 1_555
C138_2 C139_2 1_555 1_555
O33_3 H81 1_555 1_555
O33_3 H82_2 1_555 1_555
C1_3 C2_3 1_555 1_555
O2_3 U5_2 1_555 1_555
O5_3 U5_2 1_555 1_555
C5_3 C2_3 1_555 1_555
H3_3 C5_3 1_555 1_555
O7_3 U5_2 1_555 1_555
O13_3 K1_3 1_555 1_555
C37_3 C38_3 1_555 1_555
O14_3 C37_3 1_555 1_555
C41_3 C38_3 1_555 1_555
H21_3 C41_3 1_555 1_555
O16_3 C37_3 1_555 1_555
C97_3 C98_3 1_555 1_555
O27_3 U9_2 1_555 1_555
O28_3 K2_3 1_555 1_555
C101_3 C98_3 1_555 1_555
H51_3 C101_3 1_555 1_555
O30_3 U9_2 1_555 1_555
O34_3 K2_3 1_555 1_555
C121_3 C122_3 1_555 1_555
O50_2 C121_3 1_555 1_555
C125_3 C122_3 1_555 1_555
H63_3 C125_3 1_555 1_555
O55_2 C121_3 1_555 1_555
U10_2 O14_3 1_555 1_555
O41_3 U10_2 1_555 1_555
O42_3 U10_2 1_555 1_555
K4_2 O50_2 1_555 1_555
K6_2 O14_3 1_555 1_555
O45_2 U10_2 1_555 1_555
O48_2 U10_2 1_555 1_555
K1_3 O5_3 1_555 1_555
C1_3 O5_3 1_555 1_555
C1_3 O7_3 1_555 1_555
O16_3 U10_2 1_555 1_555
U9_2 O28_3 1_555 1_555
C97_3 O28_3 1_555 1_555
C97_3 O30_3 1_555 1_555
K6_2 O45_2 1_555 1_555
N1_4 Mn2_4 1_555 1_555
Mn2_4 N2_3 1_555 1_555
N2_3 C11_3 1_555 1_555
C3_3 H1_3 1_555 1_555
C4_3 C3_3 1_555 1_555
H2_3 C4_3 1_555 1_555
N4_4 Mn2_4 1_555 1_555
O6_3 C24_3 1_555 1_555
C6_3 C3_3 1_555 1_555
H4_3 C7_3 1_555 1_555
O8_3 C24_3 1_555 1_555
C8_3 C6_3 1_555 1_555
C9_3 N1_4 1_555 1_555
C10_3 C9_3 1_555 1_555
H5_3 C10_3 1_555 1_555
C11_3 C8_3 1_555 1_555
O11_4 Mn2_4 1_555 1_555
C12_3 C11_3 1_555 1_555
H6_3 C12_3 1_555 1_555
O12_4 Mn2_4 1_555 1_555
C13_3 N2_3 1_555 1_555
C14_3 C12_3 1_555 1_555
H7_3 C14_3 1_555 1_555
C15_3 C13_3 1_555 1_555
C16_3 H8_3 1_555 1_555
C17_3 N4_4 1_555 1_555
C18_3 H9_3 1_555 1_555
C19_3 C15_3 1_555 1_555
C20_3 C18_3 1_555 1_555
H10_3 C20_3 1_555 1_555
C21_3 C20_3 1_555 1_555
C22_3 C21_3 1_555 1_555
H11_3 C22_3 1_555 1_555
C23_3 C19_3 1_555 1_555
H12_3 C23_3 1_555 1_555
C24_3 C21_3 1_555 1_555
N6_3 Mn2_4 1_555 1_555
C39_3 H19_3 1_555 1_555
C40_3 C39_3 1_555 1_555
H20_3 C40_3 1_555 1_555
O54 C60_3 1_555 1_555
C42_3 C39_3 1_555 1_555
H22_3 C43_3 1_555 1_555
O58 C60_3 1_555 1_555
C44_3 C42_3 1_555 1_555
C45_3 N1_4 1_555 1_555
C46_3 C10_3 1_555 1_555
H23_3 C46_3 1_555 1_555
C47_3 N6_3 1_555 1_555
C48_3 C47_3 1_555 1_555
H24_3 C48_3 1_555 1_555
C49_3 N6_3 1_555 1_555
C50_3 C48_3 1_555 1_555
H25_3 C50_3 1_555 1_555
C51_3 C49_3 1_555 1_555
C52_3 C16_3 1_555 1_555
H26_3 C52_3 1_555 1_555
C53_3 N4_4 1_555 1_555
C54_3 H27_3 1_555 1_555
C55_3 C51_3 1_555 1_555
C56_3 C54_3 1_555 1_555
H28_3 C56_3 1_555 1_555
C57_3 C56_3 1_555 1_555
C58_3 C57_3 1_555 1_555
H29_3 C58_3 1_555 1_555
C59_3 C55_3 1_555 1_555
H30_3 C59_3 1_555 1_555
C60_3 C57_3 1_555 1_555
N9_4 Mn3_4 1_555 1_555
Mn3_4 N10_3 1_555 1_555
N10_3 C107_3 1_555 1_555
C99_3 H49_3 1_555 1_555
C100_3 C99_3 1_555 1_555
H50_3 C100_3 1_555 1_555
N11_4 Mn3_4 1_555 1_555
O53 C120_3 1_555 1_555
C102_3 C99_3 1_555 1_555
H52_3 C103_3 1_555 1_555
O57 C120_3 1_555 1_555
C104_3 C102_3 1_555 1_555
C105_3 N9_4 1_555 1_555
C106_3 C105_3 1_555 1_555
H53_3 C106_3 1_555 1_555
C107_3 C104_3 1_555 1_555
O32_4 Mn3_4 1_555 1_555
C108_3 C107_3 1_555 1_555
H54_3 C108_3 1_555 1_555
O33_4 Mn3_4 1_555 1_555
C109_3 N10_3 1_555 1_555
C110_3 C108_3 1_555 1_555
H55_3 C110_3 1_555 1_555
C111_3 C109_3 1_555 1_555
C112_3 H56_3 1_555 1_555
C113_3 N11_4 1_555 1_555
C114_3 H57_3 1_555 1_555
C115_3 C111_3 1_555 1_555
C116_3 C114_3 1_555 1_555
H58_3 C116_3 1_555 1_555
C117_3 C116_3 1_555 1_555
C118_3 C117_3 1_555 1_555
H59_3 C118_3 1_555 1_555
C119_3 C115_3 1_555 1_555
H60_3 C119_3 1_555 1_555
C120_3 C117_3 1_555 1_555
N12_3 Mn3_4 1_555 1_555
C123_3 H61_3 1_555 1_555
C124_3 C123_3 1_555 1_555
H62_3 C124_3 1_555 1_555
O52 C144_3 1_555 1_555
C126_3 C123_3 1_555 1_555
H64_3 C127_3 1_555 1_555
O56 C144_3 1_555 1_555
C128_3 C126_3 1_555 1_555
C129_3 N9_4 1_555 1_555
C130_3 C106_3 1_555 1_555
H65_3 C130_3 1_555 1_555
C131_3 N12_3 1_555 1_555
C132_3 C131_3 1_555 1_555
H66_3 C132_3 1_555 1_555
C133_3 N12_3 1_555 1_555
C134_3 C132_3 1_555 1_555
H67_3 C134_3 1_555 1_555
C135_3 C133_3 1_555 1_555
C136_3 C112_3 1_555 1_555
H68_3 C136_3 1_555 1_555
C137_3 N11_4 1_555 1_555
C138_3 H69_3 1_555 1_555
C139_3 C135_3 1_555 1_555
C140_3 C138_3 1_555 1_555
H70_3 C140_3 1_555 1_555
C141_3 C140_3 1_555 1_555
C142_3 C141_3 1_555 1_555
H71_3 C142_3 1_555 1_555
C143_3 C139_3 1_555 1_555
H72_3 C143_3 1_555 1_555
C144_3 C141_3 1_555 1_555
O43_3 K1_4 1_555 1_555
O46_3 K2_4 1_555 1_555
C6_3 C7_3 1_555 1_555
C8_3 C9_3 1_555 1_555
C13_3 C14_3 1_555 1_555
C15_3 C17_3 1_555 1_555
C16_3 C17_3 1_555 1_555
C18_3 C19_3 1_555 1_555
C22_3 C23_3 1_555 1_555
C42_3 C43_3 1_555 1_555
C44_3 C45_3 1_555 1_555
C44_3 C47_3 1_555 1_555
C45_3 C46_3 1_555 1_555
C49_3 C50_3 1_555 1_555
C51_3 C53_3 1_555 1_555
C52_3 C53_3 1_555 1_555
C54_3 C55_3 1_555 1_555
C58_3 C59_3 1_555 1_555
C102_3 C103_3 1_555 1_555
C104_3 C105_3 1_555 1_555
C109_3 C110_3 1_555 1_555
C111_3 C113_3 1_555 1_555
C112_3 C113_3 1_555 1_555
C114_3 C115_3 1_555 1_555
C118_3 C119_3 1_555 1_555
C126_3 C127_3 1_555 1_555
C128_3 C129_3 1_555 1_555
C128_3 C131_3 1_555 1_555
C129_3 C130_3 1_555 1_555
C133_3 C134_3 1_555 1_555
C135_3 C137_3 1_555 1_555
C136_3 C137_3 1_555 1_555
C138_3 C139_3 1_555 1_555
C142_3 C143_3 1_555 1_555
K1_5 O3_3 1_555 1_555
Mn1_4 N3_4 1_555 1_555
N3_4 C35_3 1_555 1_555
N5_3 Mn1_4 1_555 1_555
O9_4 Mn1_4 1_555 1_555
O10_4 Mn1_4 1_555 1_555
C25_3 O3_3 1_555 1_555
C26_3 C25_3 1_555 1_555
C27_3 C26_3 1_555 1_555
H13_3 C27_3 1_555 1_555
C28_3 C27_3 1_555 1_555
H14_3 C28_3 1_555 1_555
C29_3 C26_3 1_555 1_555
H15_3 C29_3 1_555 1_555
C30_3 C29_3 1_555 1_555
H16_3 C30_3 1_555 1_555
C31_3 C28_3 1_555 1_555
C32_3 C31_3 1_555 1_555
C33_3 H17_3 1_555 1_555
C34_3 N5_3 1_555 1_555
C35_3 C32_3 1_555 1_555
C36_3 C35_3 1_555 1_555
H18_3 C36_3 1_555 1_555
O45_2 C61_3 1_555 1_555
O48_2 C61_3 1_555 1_555
N7_3 Mn1_4 1_555 1_555
C61_3 C62_3 1_555 1_555
C62_3 C63_3 1_555 1_555
C63_3 H31_3 1_555 1_555
C64_3 C63_3 1_555 1_555
H32_3 C64_3 1_555 1_555
C65_3 C62_3 1_555 1_555
H33_3 C65_3 1_555 1_555
C66_3 C65_3 1_555 1_555
H34_3 C66_3 1_555 1_555
C67_3 C64_3 1_555 1_555
C68_3 C67_3 1_555 1_555
C69_3 H35_3 1_555 1_555
C70_3 N7_3 1_555 1_555
C71_3 N3_4 1_555 1_555
C72_3 C36_3 1_555 1_555
H36_3 C72_3 1_555 1_555
O20_3 C73_3 1_555 1_555
N8_4 Mn1_4 1_555 1_555
O21_3 C73_3 1_555 1_555
C73_3 C74_3 1_555 1_555
C74_3 C75_3 1_555 1_555
C75_3 H37_3 1_555 1_555
C76_3 C75_3 1_555 1_555
H38_3 C76_3 1_555 1_555
C77_3 C74_3 1_555 1_555
H39_3 C77_3 1_555 1_555
C78_3 C77_3 1_555 1_555
H40_3 C78_3 1_555 1_555
C79_3 C76_3 1_555 1_555
C80_3 C79_3 1_555 1_555
C81_3 C33_3 1_555 1_555
H41_3 C81_3 1_555 1_555
C82_3 N5_3 1_555 1_555
C83_3 N8_4 1_555 1_555
C84_3 C83_3 1_555 1_555
H42_3 C84_3 1_555 1_555
O44_2 C85_3 1_555 1_555
O47_2 C85_3 1_555 1_555
C85_3 C86_3 1_555 1_555
C86_3 C87_3 1_555 1_555
C87_3 H43_3 1_555 1_555
C88_3 C87_3 1_555 1_555
H44_3 C88_3 1_555 1_555
C89_3 C86_3 1_555 1_555
H45_3 C89_3 1_555 1_555
C90_3 C89_3 1_555 1_555
H46_3 C90_3 1_555 1_555
C91_3 C88_3 1_555 1_555
C92_3 C91_3 1_555 1_555
C93_3 C69_3 1_555 1_555
H47_3 C93_3 1_555 1_555
C94_3 N7_3 1_555 1_555
C95_3 N8_4 1_555 1_555
C96_3 C84_3 1_555 1_555
H48_3 C96_3 1_555 1_555
K2_5 O20_3 1_555 1_555
K4_2 O44_2 1_555 1_555
O4_3 C25_3 1_555 1_555
C30_3 C31_3 1_555 1_555
C32_3 C34_3 1_555 1_555
C33_3 C34_3 1_555 1_555
C66_3 C67_3 1_555 1_555
C68_3 C70_3 1_555 1_555
C68_3 C71_3 1_555 1_555
C69_3 C70_3 1_555 1_555
C71_3 C72_3 1_555 1_555
C78_3 C79_3 1_555 1_555
C80_3 C82_3 1_555 1_555
C80_3 C83_3 1_555 1_555
C81_3 C82_3 1_555 1_555
C90_3 C91_3 1_555 1_555
C92_3 C94_3 1_555 1_555
C92_3 C95_3 1_555 1_555
C93_3 C94_3 1_555 1_555
C95_3 C96_3 1_555 1_555
O24_3 K1_6 1_555 1_555
O25_3 K2_6 1_555 1_555
O40_3 U7 1_555 1_555
O49_3 K1_6 1_555 1_555
O51_3 K2_6 1_555 1_555
N5_4 Mn1_5 1_555 1_555
O9_5 Mn1_5 1_555 1_555
O10_5 Mn1_5 1_555 1_555
N7_4 Mn1_5 1_555 1_555
O20_4 C73_4 1_555 1_555
N8_5 Mn1_5 1_555 1_555
O21_4 C73_4 1_555 1_555
C73_4 C74_4 1_555 1_555
C74_4 C75_4 1_555 1_555
C75_4 H37_4 1_555 1_555
C76_4 C75_4 1_555 1_555
H38_4 C76_4 1_555 1_555
C77_4 C74_4 1_555 1_555
H39_4 C77_4 1_555 1_555
C78_4 C77_4 1_555 1_555
H40_4 C78_4 1_555 1_555
C79_4 C76_4 1_555 1_555
C80_4 C79_4 1_555 1_555
H41_4 C81_4 1_555 1_555
C82_4 N5_4 1_555 1_555
C83_4 N8_5 1_555 1_555
C84_4 C83_4 1_555 1_555
H42_4 C84_4 1_555 1_555
O44 C85_4 1_555 1_555
O47 C85_4 1_555 1_555
C85_4 C86_4 1_555 1_555
C86_4 C87_4 1_555 1_555
C87_4 H43_4 1_555 1_555
C88_4 C87_4 1_555 1_555
H44_4 C88_4 1_555 1_555
C89_4 C86_4 1_555 1_555
H45_4 C89_4 1_555 1_555
C90_4 C89_4 1_555 1_555
H46_4 C90_4 1_555 1_555
C91_4 C88_4 1_555 1_555
C92_4 C91_4 1_555 1_555
H47_4 C93_4 1_555 1_555
C94_4 N7_4 1_555 1_555
C95_4 N8_5 1_555 1_555
C96_4 C84_4 1_555 1_555
H48_4 C96_4 1_555 1_555
K2_7 O20_4 1_555 1_555
O25_4 K2_7 1_555 1_555
K3_2 O44 1_555 1_555
O51_4 K2_7 1_555 1_555
C78_4 C79_4 1_555 1_555
C80_4 C82_4 1_555 1_555
C80_4 C83_4 1_555 1_555
C81_4 C82_4 1_555 1_555
C90_4 C91_4 1_555 1_555
C92_4 C94_4 1_555 1_555
C92_4 C95_4 1_555 1_555
C93_4 C94_4 1_555 1_555
C95_4 C96_4 1_555 1_555
C97_4 C98_4 1_555 1_555
N9_5 Mn3_5 1_555 1_555
O27_4 U9 1_555 1_555
Mn3_5 N10_4 1_555 1_555
C98_4 C100_4 1_555 1_555
N10_4 C107_4 1_555 1_555
C99_4 H49_4 1_555 1_555
C100_4 C99_4 1_555 1_555
H50_4 C100_4 1_555 1_555
N11_5 Mn3_5 1_555 1_555
O28_4 K2_8 1_555 1_555
C101_4 C98_4 1_555 1_555
H51_4 C101_4 1_555 1_555
O53_2 C120_4 1_555 1_555
C102_4 C99_4 1_555 1_555
O30_4 U9 1_555 1_555
C103_4 C101_4 1_555 1_555
H52_4 C103_4 1_555 1_555
O57_2 C120_4 1_555 1_555
C104_4 C102_4 1_555 1_555
C105_4 N9_5 1_555 1_555
C106_4 C105_4 1_555 1_555
H53_4 C106_4 1_555 1_555
C107_4 C104_4 1_555 1_555
O32_5 Mn3_5 1_555 1_555
C108_4 C107_4 1_555 1_555
H54_4 C108_4 1_555 1_555
O33_5 Mn3_5 1_555 1_555
C109_4 N10_4 1_555 1_555
C110_4 C108_4 1_555 1_555
H55_4 C110_4 1_555 1_555
O34_4 K2_8 1_555 1_555
C111_4 C109_4 1_555 1_555
C112_4 H56_4 1_555 1_555
C113_4 N11_5 1_555 1_555
C114_4 H57_4 1_555 1_555
C115_4 C111_4 1_555 1_555
C116_4 C114_4 1_555 1_555
H58_4 C116_4 1_555 1_555
C117_4 C116_4 1_555 1_555
C118_4 C117_4 1_555 1_555
H59_4 C118_4 1_555 1_555
C119_4 C115_4 1_555 1_555
H60_4 C119_4 1_555 1_555
C120_4 C117_4 1_555 1_555
C121_4 C122_4 1_555 1_555
C122_4 C124_4 1_555 1_555
N12_4 Mn3_5 1_555 1_555
C123_4 H61_4 1_555 1_555
C124_4 C123_4 1_555 1_555
H62_4 C124_4 1_555 1_555
O50 C121_4 1_555 1_555
C125_4 C122_4 1_555 1_555
H63_4 C125_4 1_555 1_555
O52_2 C144_4 1_555 1_555
C126_4 C123_4 1_555 1_555
O55 C121_4 1_555 1_555
C127_4 C125_4 1_555 1_555
H64_4 C127_4 1_555 1_555
O56_2 C144_4 1_555 1_555
C128_4 C126_4 1_555 1_555
C129_4 N9_5 1_555 1_555
C130_4 C106_4 1_555 1_555
H65_4 C130_4 1_555 1_555
C131_4 N12_4 1_555 1_555
C132_4 C131_4 1_555 1_555
H66_4 C132_4 1_555 1_555
C133_4 N12_4 1_555 1_555
C134_4 C132_4 1_555 1_555
H67_4 C134_4 1_555 1_555
C135_4 C133_4 1_555 1_555
C136_4 C112_4 1_555 1_555
H68_4 C136_4 1_555 1_555
C137_4 N11_5 1_555 1_555
C138_4 H69_4 1_555 1_555
C139_4 C135_4 1_555 1_555
C140_4 C138_4 1_555 1_555
H70_4 C140_4 1_555 1_555
C141_4 C140_4 1_555 1_555
C142_4 C141_4 1_555 1_555
H71_4 C142_4 1_555 1_555
C143_4 C139_4 1_555 1_555
H72_4 C143_4 1_555 1_555
C144_4 C141_4 1_555 1_555
K3_2 O50 1_555 1_555
O46_4 K2_8 1_555 1_555
U9 O28_4 1_555 1_555
C97_4 O28_4 1_555 1_555
C97_4 O30_4 1_555 1_555
C102_4 C103_4 1_555 1_555
C104_4 C105_4 1_555 1_555
C109_4 C110_4 1_555 1_555
C111_4 C113_4 1_555 1_555
C112_4 C113_4 1_555 1_555
C114_4 C115_4 1_555 1_555
C118_4 C119_4 1_555 1_555
C126_4 C127_4 1_555 1_555
C128_4 C129_4 1_555 1_555
C128_4 C131_4 1_555 1_555
C129_4 C130_4 1_555 1_555
C133_4 C134_4 1_555 1_555
C135_4 C137_4 1_555 1_555
C136_4 C137_4 1_555 1_555
C138_4 C139_4 1_555 1_555
C142_4 C143_4 1_555 1_555
K1_7 O3_4 1_555 1_555
Mn1_6 N3_5 1_555 1_555
N3_5 C35_4 1_555 1_555
N5_5 Mn1_6 1_555 1_555
O9_6 Mn1_6 1_555 1_555
O10_6 Mn1_6 1_555 1_555
C25_4 O3_4 1_555 1_555
C26_4 C25_4 1_555 1_555
C27_4 C26_4 1_555 1_555
H13_4 C27_4 1_555 1_555
C28_4 C27_4 1_555 1_555
H14_4 C28_4 1_555 1_555
C29_4 C26_4 1_555 1_555
H15_4 C29_4 1_555 1_555
C30_4 C29_4 1_555 1_555
H16_4 C30_4 1_555 1_555
C31_4 C28_4 1_555 1_555
C32_4 C31_4 1_555 1_555
C33_4 H17_4 1_555 1_555
C34_4 N5_5 1_555 1_555
C35_4 C32_4 1_555 1_555
C36_4 C35_4 1_555 1_555
H18_4 C36_4 1_555 1_555
O18_2 C61_4 1_555 1_555
O19_2 C61_4 1_555 1_555
N7_5 Mn1_6 1_555 1_555
C61_4 C62_4 1_555 1_555
C62_4 C63_4 1_555 1_555
C63_4 H31_4 1_555 1_555
C64_4 C63_4 1_555 1_555
H32_4 C64_4 1_555 1_555
C65_4 C62_4 1_555 1_555
H33_4 C65_4 1_555 1_555
C66_4 C65_4 1_555 1_555
H34_4 C66_4 1_555 1_555
C67_4 C64_4 1_555 1_555
C68_4 C67_4 1_555 1_555
C69_4 H35_4 1_555 1_555
C70_4 N7_5 1_555 1_555
C71_4 N3_5 1_555 1_555
C72_4 C36_4 1_555 1_555
H36_4 C72_4 1_555 1_555
O24_4 K1_7 1_555 1_555
O40_4 U6 1_555 1_555
U10 O18_2 1_555 1_555
K5_2 O18_2 1_555 1_555
O49_4 K1_7 1_555 1_555
O4_4 C25_4 1_555 1_555
C30_4 C31_4 1_555 1_555
C32_4 C34_4 1_555 1_555
C33_4 C34_4 1_555 1_555
O19_2 U10 1_555 1_555
C66_4 C67_4 1_555 1_555
C68_4 C70_4 1_555 1_555
C68_4 C71_4 1_555 1_555
C69_4 C70_4 1_555 1_555
C71_4 C72_4 1_555 1_555
C1_4 C2_4 1_555 1_555
N1_5 Mn2_5 1_555 1_555
O2_4 U5 1_555 1_555
Mn2_5 N2_4 1_555 1_555
C2_4 C4_4 1_555 1_555
N2_4 C11_4 1_555 1_555
C3_4 H1_4 1_555 1_555
C4_4 C3_4 1_555 1_555
H2_4 C4_4 1_555 1_555
N4_5 Mn2_5 1_555 1_555
O5_4 U5 1_555 1_555
C5_4 C2_4 1_555 1_555
H3_4 C5_4 1_555 1_555
O6_4 C24_4 1_555 1_555
C6_4 C3_4 1_555 1_555
O7_4 U5 1_555 1_555
C7_4 C5_4 1_555 1_555
H4_4 C7_4 1_555 1_555
O8_4 C24_4 1_555 1_555
C8_4 C6_4 1_555 1_555
C9_4 N1_5 1_555 1_555
C10_4 C9_4 1_555 1_555
H5_4 C10_4 1_555 1_555
C11_4 C8_4 1_555 1_555
O11_5 Mn2_5 1_555 1_555
C12_4 C11_4 1_555 1_555
H6_4 C12_4 1_555 1_555
O12_5 Mn2_5 1_555 1_555
C13_4 N2_4 1_555 1_555
C14_4 C12_4 1_555 1_555
H7_4 C14_4 1_555 1_555
O13_4 K1_8 1_555 1_555
C15_4 C13_4 1_555 1_555
C16_4 H8_4 1_555 1_555
C17_4 N4_5 1_555 1_555
C18_4 H9_4 1_555 1_555
C19_4 C15_4 1_555 1_555
C20_4 C18_4 1_555 1_555
H10_4 C20_4 1_555 1_555
C21_4 C20_4 1_555 1_555
C22_4 C21_4 1_555 1_555
H11_4 C22_4 1_555 1_555
C23_4 C19_4 1_555 1_555
H12_4 C23_4 1_555 1_555
C24_4 C21_4 1_555 1_555
C37_4 C38_4 1_555 1_555
C38_4 C40_4 1_555 1_555
N6_4 Mn2_5 1_555 1_555
C39_4 H19_4 1_555 1_555
C40_4 C39_4 1_555 1_555
H20_4 C40_4 1_555 1_555
O14_4 C37_4 1_555 1_555
C41_4 C38_4 1_555 1_555
H21_4 C41_4 1_555 1_555
O54_2 C60_4 1_555 1_555
C42_4 C39_4 1_555 1_555
O16_4 C37_4 1_555 1_555
C43_4 C41_4 1_555 1_555
H22_4 C43_4 1_555 1_555
O58_2 C60_4 1_555 1_555
C44_4 C42_4 1_555 1_555
C45_4 N1_5 1_555 1_555
C46_4 C10_4 1_555 1_555
H23_4 C46_4 1_555 1_555
C47_4 N6_4 1_555 1_555
C48_4 C47_4 1_555 1_555
H24_4 C48_4 1_555 1_555
C49_4 N6_4 1_555 1_555
C50_4 C48_4 1_555 1_555
H25_4 C50_4 1_555 1_555
C51_4 C49_4 1_555 1_555
C52_4 C16_4 1_555 1_555
H26_4 C52_4 1_555 1_555
C53_4 N4_5 1_555 1_555
C54_4 H27_4 1_555 1_555
C55_4 C51_4 1_555 1_555
C56_4 C54_4 1_555 1_555
H28_4 C56_4 1_555 1_555
C57_4 C56_4 1_555 1_555
C58_4 C57_4 1_555 1_555
H29_4 C58_4 1_555 1_555
C59_4 C55_4 1_555 1_555
H30_4 C59_4 1_555 1_555
C60_4 C57_4 1_555 1_555
U10 O14_4 1_555 1_555
O41_4 U10 1_555 1_555
O42_4 U10 1_555 1_555
K5_2 O14_4 1_555 1_555
O43_4 K1_8 1_555 1_555
K1_8 O5_4 1_555 1_555
C1_4 O5_4 1_555 1_555
C1_4 O7_4 1_555 1_555
C6_4 C7_4 1_555 1_555
C8_4 C9_4 1_555 1_555
C13_4 C14_4 1_555 1_555
C15_4 C17_4 1_555 1_555
C16_4 C17_4 1_555 1_555
C18_4 C19_4 1_555 1_555
C22_4 C23_4 1_555 1_555
C42_4 C43_4 1_555 1_555
O16_4 U10 1_555 1_555
C44_4 C45_4 1_555 1_555
C44_4 C47_4 1_555 1_555
C45_4 C46_4 1_555 1_555
C49_4 C50_4 1_555 1_555
C51_4 C53_4 1_555 1_555
C52_4 C53_4 1_555 1_555
C54_4 C55_4 1_555 1_555
C58_4 C59_4 1_555 1_555
N9_6 Mn3_6 1_555 1_555
Mn3_6 N10_5 1_555 1_555
N10_5 C107_5 1_555 1_555
N11_6 Mn3_6 1_555 1_555
C101_5 C98_5 1_555 1_555
H51_5 C101_5 1_555 1_555
C103_5 C101_5 1_555 1_555
H52_5 C103_5 1_555 1_555
O31_3 C120_5 1_555 1_555
C104_5 C102_5 1_555 1_555
C105_5 N9_6 1_555 1_555
C106_5 C105_5 1_555 1_555
H53_5 C106_5 1_555 1_555
C107_5 C104_5 1_555 1_555
C108_5 C107_5 1_555 1_555
H54_5 C108_5 1_555 1_555
O33_6 Mn3_6 1_555 1_555
C109_5 N10_5 1_555 1_555
C110_5 C108_5 1_555 1_555
H55_5 C110_5 1_555 1_555
C111_5 C109_5 1_555 1_555
C112_5 H56_5 1_555 1_555
C113_5 N11_6 1_555 1_555
C114_5 H57_5 1_555 1_555
C115_5 C111_5 1_555 1_555
C116_5 C114_5 1_555 1_555
H58_5 C116_5 1_555 1_555
C117_5 C116_5 1_555 1_555
C120_5 C117_5 1_555 1_555
C102_5 C103_5 1_555 1_555
C104_5 C105_5 1_555 1_555
C109_5 C110_5 1_555 1_555
C111_5 C113_5 1_555 1_555
C112_5 C113_5 1_555 1_555
C114_5 C115_5 1_555 1_555
O33_6 H82_3 1_555 1_555
U1_3 O1_5 1_555 1_555
C1_5 C2_5 1_555 1_555
N1_6 Mn2_6 1_555 1_555
Mn1_7 N3_6 1_555 1_555
O2_5 U1_3 1_555 1_555
Mn2_6 N2_5 1_555 1_555
C2_5 C4_5 1_555 1_555
N2_5 C11_5 1_555 1_555
O43 U1_3 1_555 1_555
C3_5 H1_5 1_555 1_555
N3_6 C35_5 1_555 1_555
O4_5 U1_3 1_555 1_555
C4_5 C3_5 1_555 1_555
H2_5 C4_5 1_555 1_555
N4_6 Mn2_6 1_555 1_555
O49 U1_3 1_555 1_555
C5_5 C2_5 1_555 1_555
H3_5 C5_5 1_555 1_555
N5_6 Mn1_7 1_555 1_555
O6_5 C24_5 1_555 1_555
C6_5 C3_5 1_555 1_555
O7_5 U1_3 1_555 1_555
C7_5 C5_5 1_555 1_555
H4_5 C7_5 1_555 1_555
O8_5 C24_5 1_555 1_555
C8_5 C6_5 1_555 1_555
O9_7 Mn1_7 1_555 1_555
C9_5 N1_6 1_555 1_555
C10_5 C9_5 1_555 1_555
H5_5 C10_5 1_555 1_555
O10_7 Mn1_7 1_555 1_555
C11_5 C8_5 1_555 1_555
O11_6 Mn2_6 1_555 1_555
C12_5 C11_5 1_555 1_555
H6_5 C12_5 1_555 1_555
O12_6 Mn2_6 1_555 1_555
C13_5 N2_5 1_555 1_555
C14_5 C12_5 1_555 1_555
H7_5 C14_5 1_555 1_555
C15_5 C13_5 1_555 1_555
C16_5 H8_5 1_555 1_555
C17_5 N4_6 1_555 1_555
C18_5 H9_5 1_555 1_555
C19_5 C15_5 1_555 1_555
C20_5 C18_5 1_555 1_555
H10_5 C20_5 1_555 1_555
C21_5 C20_5 1_555 1_555
C22_5 C21_5 1_555 1_555
H11_5 C22_5 1_555 1_555
C23_5 C19_5 1_555 1_555
H12_5 C23_5 1_555 1_555
C24_5 C21_5 1_555 1_555
C25_5 O43 1_555 1_555
C26_5 C25_5 1_555 1_555
C27_5 C26_5 1_555 1_555
H13_5 C27_5 1_555 1_555
C28_5 C27_5 1_555 1_555
H14_5 C28_5 1_555 1_555
C29_5 C26_5 1_555 1_555
H15_5 C29_5 1_555 1_555
C30_5 C29_5 1_555 1_555
H16_5 C30_5 1_555 1_555
C31_5 C28_5 1_555 1_555
C32_5 C31_5 1_555 1_555
C33_5 H17_5 1_555 1_555
C34_5 N5_6 1_555 1_555
C35_5 C32_5 1_555 1_555
C36_5 C35_5 1_555 1_555
H18_5 C36_5 1_555 1_555
O18_3 C61_5 1_555 1_555
O19_3 C61_5 1_555 1_555
N7_6 Mn1_7 1_555 1_555
C61_5 C62_5 1_555 1_555
C62_5 C63_5 1_555 1_555
C63_5 H31_5 1_555 1_555
C64_5 C63_5 1_555 1_555
H32_5 C64_5 1_555 1_555
C65_5 C62_5 1_555 1_555
H33_5 C65_5 1_555 1_555
C66_5 C65_5 1_555 1_555
H34_5 C66_5 1_555 1_555
C67_5 C64_5 1_555 1_555
C68_5 C67_5 1_555 1_555
C69_5 H35_5 1_555 1_555
C70_5 N7_6 1_555 1_555
C71_5 N3_6 1_555 1_555
C72_5 C36_5 1_555 1_555
H36_5 C72_5 1_555 1_555
O46 C73_5 1_555 1_555
N8_6 Mn1_7 1_555 1_555
O21_5 C73_5 1_555 1_555
C73_5 C74_5 1_555 1_555
C74_5 C75_5 1_555 1_555
C75_5 H37_5 1_555 1_555
C76_5 C75_5 1_555 1_555
H38_5 C76_5 1_555 1_555
C77_5 C74_5 1_555 1_555
H39_5 C77_5 1_555 1_555
C78_5 C77_5 1_555 1_555
H40_5 C78_5 1_555 1_555
C79_5 C76_5 1_555 1_555
C80_5 C79_5 1_555 1_555
C81_5 C33_5 1_555 1_555
H41_5 C81_5 1_555 1_555
C82_5 N5_6 1_555 1_555
C83_5 N8_6 1_555 1_555
C84_5 C83_5 1_555 1_555
H42_5 C84_5 1_555 1_555
O22_3 C85_5 1_555 1_555
O23_3 C85_5 1_555 1_555
C85_5 C86_5 1_555 1_555
C86_5 C87_5 1_555 1_555
C87_5 H43_5 1_555 1_555
C88_5 C87_5 1_555 1_555
H44_5 C88_5 1_555 1_555
C89_5 C86_5 1_555 1_555
H45_5 C89_5 1_555 1_555
C90_5 C89_5 1_555 1_555
H46_5 C90_5 1_555 1_555
C91_5 C88_5 1_555 1_555
C92_5 C91_5 1_555 1_555
C93_5 C69_5 1_555 1_555
H47_5 C93_5 1_555 1_555
C94_5 N7_6 1_555 1_555
C95_5 N8_6 1_555 1_555
C96_5 C84_5 1_555 1_555
H48_5 C96_5 1_555 1_555
U2_3 O46 1_555 1_555
O27_5 U2_3 1_555 1_555
C99_5 H49_5 1_555 1_555
C100_5 C99_5 1_555 1_555
H50_5 C100_5 1_555 1_555
H59_5 C118_5 1_555 1_555
H60_5 C119_5 1_555 1_555
U3_3 O6_5 1_555 1_555
O39_5 U3_3 1_555 1_555
O40_5 U3_3 1_555 1_555
U6_2 O22_3 1_555 1_555
U8_2 O18_3 1_555 1_555
U9_3 O29_3 1_555 1_555
K4 O22_3 1_555 1_555
K6 O18_3 1_555 1_555
O44_3 U3_3 1_555 1_555
O47_3 U3_3 1_555 1_555
O50_3 U3_3 1_555 1_555
O52_3 U1_3 1_555 1_555
O55_3 U3_3 1_555 1_555
O56_3 U1_3 1_555 1_555
C1_5 O49 1_555 1_555
C1_5 O7_5 1_555 1_555
O4_5 C25_5 1_555 1_555
C6_5 C7_5 1_555 1_555
O8_5 U3_3 1_555 1_555
C8_5 C9_5 1_555 1_555
C13_5 C14_5 1_555 1_555
C15_5 C17_5 1_555 1_555
C16_5 C17_5 1_555 1_555
C18_5 C19_5 1_555 1_555
C22_5 C23_5 1_555 1_555
C30_5 C31_5 1_555 1_555
C32_5 C34_5 1_555 1_555
C33_5 C34_5 1_555 1_555
O19_3 U8_2 1_555 1_555
C66_5 C67_5 1_555 1_555
C68_5 C70_5 1_555 1_555
C68_5 C71_5 1_555 1_555
C69_5 C70_5 1_555 1_555
C71_5 C72_5 1_555 1_555
O21_5 U2_3 1_555 1_555
C78_5 C79_5 1_555 1_555
C80_5 C82_5 1_555 1_555
C80_5 C83_5 1_555 1_555
C81_5 C82_5 1_555 1_555
O23_3 U6_2 1_555 1_555
C90_5 C91_5 1_555 1_555
C92_5 C94_5 1_555 1_555
C92_5 C95_5 1_555 1_555
C93_5 C94_5 1_555 1_555
C95_5 C96_5 1_555 1_555
U2_3 O51 1_555 1_555
C97_5 O51 1_555 1_555
C118_5 C119_5 1_555 1_555
O32_6 H77_2 1_555 1_555
O32_6 H78_3 1_555 1_555
O12_6 H85_2 1_555 1_555
O12_6 H86_3 1_555 1_555
O11_6 H90_3 1_555 1_555
N9_7 Mn3_7 1_555 1_555
N11_7 Mn3_7 1_555 1_555
O33_7 Mn3_7 1_555 1_555
N12_5 Mn3_7 1_555 1_555
C125_5 C122_5 1_555 1_555
H63_5 C125_5 1_555 1_555
C127_5 C125_5 1_555 1_555
H64_5 C127_5 1_555 1_555
O38_3 C144_5 1_555 1_555
C128_5 C126_5 1_555 1_555
C129_5 N9_7 1_555 1_555
H65_5 C130_5 1_555 1_555
C131_5 N12_5 1_555 1_555
C132_5 C131_5 1_555 1_555
H66_5 C132_5 1_555 1_555
C133_5 N12_5 1_555 1_555
C134_5 C132_5 1_555 1_555
H67_5 C134_5 1_555 1_555
C135_5 C133_5 1_555 1_555
H68_5 C136_5 1_555 1_555
C137_5 N11_7 1_555 1_555
C138_5 H69_5 1_555 1_555
C139_5 C135_5 1_555 1_555
C140_5 C138_5 1_555 1_555
H70_5 C140_5 1_555 1_555
C141_5 C140_5 1_555 1_555
C144_5 C141_5 1_555 1_555
C126_5 C127_5 1_555 1_555
C128_5 C129_5 1_555 1_555
C128_5 C131_5 1_555 1_555
C129_5 C130_5 1_555 1_555
C133_5 C134_5 1_555 1_555
C135_5 C137_5 1_555 1_555
C136_5 C137_5 1_555 1_555
C138_5 C139_5 1_555 1_555
O33_7 H81_2 1_555 1_555
O33_7 H82_4 1_555 1_555
N1_7 Mn2_7 1_555 1_555
N4_7 Mn2_7 1_555 1_555
O11_7 Mn2_7 1_555 1_555
O12_7 Mn2_7 1_555 1_555
C37_5 C38_5 1_555 1_555
C38_5 C40_5 1_555 1_555
N6_5 Mn2_7 1_555 1_555
C39_5 H19_5 1_555 1_555
C40_5 C39_5 1_555 1_555
H20_5 C40_5 1_555 1_555
O14_5 C37_5 1_555 1_555
C41_5 C38_5 1_555 1_555
H21_5 C41_5 1_555 1_555
O15_3 C60_5 1_555 1_555
C42_5 C39_5 1_555 1_555
O16_5 C37_5 1_555 1_555
C43_5 C41_5 1_555 1_555
H22_5 C43_5 1_555 1_555
O17_3 C60_5 1_555 1_555
C44_5 C42_5 1_555 1_555
C45_5 N1_7 1_555 1_555
H23_5 C46_5 1_555 1_555
C47_5 N6_5 1_555 1_555
C48_5 C47_5 1_555 1_555
H24_5 C48_5 1_555 1_555
C49_5 N6_5 1_555 1_555
C50_5 C48_5 1_555 1_555
H25_5 C50_5 1_555 1_555
C51_5 C49_5 1_555 1_555
H26_5 C52_5 1_555 1_555
C53_5 N4_7 1_555 1_555
C54_5 H27_5 1_555 1_555
C55_5 C51_5 1_555 1_555
C56_5 C54_5 1_555 1_555
H28_5 C56_5 1_555 1_555
C57_5 C56_5 1_555 1_555
C58_5 C57_5 1_555 1_555
H29_5 C58_5 1_555 1_555
C59_5 C55_5 1_555 1_555
H30_5 C59_5 1_555 1_555
C60_5 C57_5 1_555 1_555
C123_5 H61_5 1_555 1_555
C124_5 C123_5 1_555 1_555
H62_5 C124_5 1_555 1_555
O35_3 C121_5 1_555 1_555
H71_5 C142_5 1_555 1_555
H72_5 C143_5 1_555 1_555
U8_2 O14_5 1_555 1_555
O41_5 U8_2 1_555 1_555
O42_5 U8_2 1_555 1_555
U5_3 O36_3 1_555 1_555
U6_2 O35_3 1_555 1_555
U10_3 O15_3 1_555 1_555
K4 O35_3 1_555 1_555
K6 O14_5 1_555 1_555
O54_3 U8_2 1_555 1_555
O58_3 U8_2 1_555 1_555
C42_5 C43_5 1_555 1_555
O16_5 U8_2 1_555 1_555
O17_3 U10_3 1_555 1_555
C44_5 C45_5 1_555 1_555
C44_5 C47_5 1_555 1_555
C45_5 C46_5 1_555 1_555
C49_5 C50_5 1_555 1_555
C51_5 C53_5 1_555 1_555
C52_5 C53_5 1_555 1_555
C54_5 C55_5 1_555 1_555
C58_5 C59_5 1_555 1_555
C142_5 C143_5 1_555 1_555
O32_7 H78_4 1_555 1_555
O12_7 H86_4 1_555 1_555
O11_7 H89_2 1_555 1_555
O11_7 H90_4 1_555 1_555
U1_4 O1_6 1_555 1_555
C1_6 C2_6 1_555 1_555
N1_8 Mn2_8 1_555 1_555
Mn1_8 N3_7 1_555 1_555
O2_6 U1_4 1_555 1_555
Mn2_8 N2_6 1_555 1_555
C2_6 C4_6 1_555 1_555
N2_6 C11_6 1_555 1_555
O43_2 U1_4 1_555 1_555
C3_6 H1_6 1_555 1_555
N3_7 C35_6 1_555 1_555
O4_6 U1_4 1_555 1_555
C4_6 C3_6 1_555 1_555
H2_6 C4_6 1_555 1_555
N4_8 Mn2_8 1_555 1_555
O49_2 U1_4 1_555 1_555
C5_6 C2_6 1_555 1_555
H3_6 C5_6 1_555 1_555
N5_7 Mn1_8 1_555 1_555
O6_6 C24_6 1_555 1_555
C6_6 C3_6 1_555 1_555
O7_6 U1_4 1_555 1_555
C7_6 C5_6 1_555 1_555
H4_6 C7_6 1_555 1_555
O8_6 C24_6 1_555 1_555
C8_6 C6_6 1_555 1_555
O9_8 Mn1_8 1_555 1_555
C9_6 N1_8 1_555 1_555
C10_6 C9_6 1_555 1_555
H5_6 C10_6 1_555 1_555
O10_8 Mn1_8 1_555 1_555
C11_6 C8_6 1_555 1_555
O11_8 Mn2_8 1_555 1_555
C12_6 C11_6 1_555 1_555
H6_6 C12_6 1_555 1_555
O12_8 Mn2_8 1_555 1_555
C13_6 N2_6 1_555 1_555
C14_6 C12_6 1_555 1_555
H7_6 C14_6 1_555 1_555
C15_6 C13_6 1_555 1_555
C16_6 H8_6 1_555 1_555
C17_6 N4_8 1_555 1_555
C18_6 H9_6 1_555 1_555
C19_6 C15_6 1_555 1_555
C20_6 C18_6 1_555 1_555
H10_6 C20_6 1_555 1_555
C21_6 C20_6 1_555 1_555
C22_6 C21_6 1_555 1_555
H11_6 C22_6 1_555 1_555
C23_6 C19_6 1_555 1_555
H12_6 C23_6 1_555 1_555
C24_6 C21_6 1_555 1_555
C25_6 O43_2 1_555 1_555
C26_6 C25_6 1_555 1_555
C27_6 C26_6 1_555 1_555
H13_6 C27_6 1_555 1_555
C28_6 C27_6 1_555 1_555
H14_6 C28_6 1_555 1_555
C29_6 C26_6 1_555 1_555
H15_6 C29_6 1_555 1_555
C30_6 C29_6 1_555 1_555
H16_6 C30_6 1_555 1_555
C31_6 C28_6 1_555 1_555
C32_6 C31_6 1_555 1_555
C33_6 H17_6 1_555 1_555
C34_6 N5_7 1_555 1_555
C35_6 C32_6 1_555 1_555
C36_6 C35_6 1_555 1_555
H18_6 C36_6 1_555 1_555
C37_6 C38_6 1_555 1_555
C38_6 C40_6 1_555 1_555
N6_6 Mn2_8 1_555 1_555
C39_6 H19_6 1_555 1_555
C40_6 C39_6 1_555 1_555
H20_6 C40_6 1_555 1_555
O14_6 C37_6 1_555 1_555
C41_6 C38_6 1_555 1_555
H21_6 C41_6 1_555 1_555
O15_4 C60_6 1_555 1_555
C42_6 C39_6 1_555 1_555
O16_6 C37_6 1_555 1_555
C43_6 C41_6 1_555 1_555
H22_6 C43_6 1_555 1_555
O17_4 C60_6 1_555 1_555
C44_6 C42_6 1_555 1_555
C45_6 N1_8 1_555 1_555
C46_6 C10_6 1_555 1_555
H23_6 C46_6 1_555 1_555
C47_6 N6_6 1_555 1_555
C48_6 C47_6 1_555 1_555
H24_6 C48_6 1_555 1_555
C49_6 N6_6 1_555 1_555
C50_6 C48_6 1_555 1_555
H25_6 C50_6 1_555 1_555
C51_6 C49_6 1_555 1_555
C52_6 C16_6 1_555 1_555
H26_6 C52_6 1_555 1_555
C53_6 N4_8 1_555 1_555
C54_6 H27_6 1_555 1_555
C55_6 C51_6 1_555 1_555
C56_6 C54_6 1_555 1_555
H28_6 C56_6 1_555 1_555
C57_6 C56_6 1_555 1_555
C58_6 C57_6 1_555 1_555
H29_6 C58_6 1_555 1_555
C59_6 C55_6 1_555 1_555
H30_6 C59_6 1_555 1_555
C60_6 C57_6 1_555 1_555
O46_2 C73_6 1_555 1_555
N8_7 Mn1_8 1_555 1_555
O21_6 C73_6 1_555 1_555
C73_6 C74_6 1_555 1_555
C74_6 C75_6 1_555 1_555
C75_6 H37_6 1_555 1_555
C76_6 C75_6 1_555 1_555
H38_6 C76_6 1_555 1_555
C77_6 C74_6 1_555 1_555
H39_6 C77_6 1_555 1_555
C78_6 C77_6 1_555 1_555
H40_6 C78_6 1_555 1_555
C79_6 C76_6 1_555 1_555
C80_6 C79_6 1_555 1_555
C81_6 C33_6 1_555 1_555
H41_6 C81_6 1_555 1_555
C82_6 N5_7 1_555 1_555
C83_6 N8_7 1_555 1_555
C84_6 C83_6 1_555 1_555
H42_6 C84_6 1_555 1_555
U2_4 O46_2 1_555 1_555
O27_6 U2_4 1_555 1_555
C99_6 H49_6 1_555 1_555
C100_6 C99_6 1_555 1_555
H50_6 C100_6 1_555 1_555
H59_6 C118_6 1_555 1_555
H60_6 C119_6 1_555 1_555
C123_6 H61_6 1_555 1_555
C124_6 C123_6 1_555 1_555
H62_6 C124_6 1_555 1_555
O35_4 C121_6 1_555 1_555
H71_6 C142_6 1_555 1_555
H72_6 C143_6 1_555 1_555
U3_4 O6_6 1_555 1_555
O39_6 U3_4 1_555 1_555
O40_6 U3_4 1_555 1_555
U4_2 O14_6 1_555 1_555
O41_6 U4_2 1_555 1_555
O42_6 U4_2 1_555 1_555
U5_4 O36_4 1_555 1_555
U7_2 O35_4 1_555 1_555
U9_4 O29_4 1_555 1_555
U10_4 O15_4 1_555 1_555
K3 O35_4 1_555 1_555
K5 O14_6 1_555 1_555
O44_4 U3_4 1_555 1_555
O45_3 U4_2 1_555 1_555
O47_4 U3_4 1_555 1_555
O48_3 U4_2 1_555 1_555
O50_4 U3_4 1_555 1_555
O52_4 U1_4 1_555 1_555
O54_4 U4_2 1_555 1_555
O55_4 U3_4 1_555 1_555
O56_4 U1_4 1_555 1_555
O58_4 U4_2 1_555 1_555
C1_6 O49_2 1_555 1_555
C1_6 O7_6 1_555 1_555
O4_6 C25_6 1_555 1_555
C6_6 C7_6 1_555 1_555
O8_6 U3_4 1_555 1_555
C8_6 C9_6 1_555 1_555
C13_6 C14_6 1_555 1_555
C15_6 C17_6 1_555 1_555
C16_6 C17_6 1_555 1_555
C18_6 C19_6 1_555 1_555
C22_6 C23_6 1_555 1_555
C30_6 C31_6 1_555 1_555
C32_6 C34_6 1_555 1_555
C33_6 C34_6 1_555 1_555
C42_6 C43_6 1_555 1_555
O16_6 U4_2 1_555 1_555
O17_4 U10_4 1_555 1_555
C44_6 C45_6 1_555 1_555
C44_6 C47_6 1_555 1_555
C45_6 C46_6 1_555 1_555
C49_6 C50_6 1_555 1_555
C51_6 C53_6 1_555 1_555
C52_6 C53_6 1_555 1_555
C54_6 C55_6 1_555 1_555
C58_6 C59_6 1_555 1_555
O21_6 U2_4 1_555 1_555
C78_6 C79_6 1_555 1_555
C80_6 C82_6 1_555 1_555
C80_6 C83_6 1_555 1_555
C81_6 C82_6 1_555 1_555
U2_4 O51_2 1_555 1_555
C97_6 O51_2 1_555 1_555
C118_6 C119_6 1_555 1_555
C142_6 C143_6 1_555 1_555
K5 O45_3 1_555 1_555
N9_8 Mn3_8 1_555 1_555
Mn3_8 N10_6 1_555 1_555
N10_6 C107_6 1_555 1_555
N11_8 Mn3_8 1_555 1_555
C101_6 C98_6 1_555 1_555
H51_6 C101_6 1_555 1_555
C103_6 C101_6 1_555 1_555
H52_6 C103_6 1_555 1_555
O31_4 C120_6 1_555 1_555
C104_6 C102_6 1_555 1_555
C105_6 N9_8 1_555 1_555
C106_6 C105_6 1_555 1_555
H53_6 C106_6 1_555 1_555
C107_6 C104_6 1_555 1_555
C108_6 C107_6 1_555 1_555
H54_6 C108_6 1_555 1_555
O33_8 Mn3_8 1_555 1_555
C109_6 N10_6 1_555 1_555
C110_6 C108_6 1_555 1_555
H55_6 C110_6 1_555 1_555
C111_6 C109_6 1_555 1_555
C112_6 H56_6 1_555 1_555
C113_6 N11_8 1_555 1_555
C114_6 H57_6 1_555 1_555
C115_6 C111_6 1_555 1_555
C116_6 C114_6 1_555 1_555
H58_6 C116_6 1_555 1_555
C117_6 C116_6 1_555 1_555
C120_6 C117_6 1_555 1_555
N12_6 Mn3_8 1_555 1_555
C125_6 C122_6 1_555 1_555
H63_6 C125_6 1_555 1_555
C127_6 C125_6 1_555 1_555
H64_6 C127_6 1_555 1_555
O38_4 C144_6 1_555 1_555
C128_6 C126_6 1_555 1_555
C129_6 N9_8 1_555 1_555
C130_6 C106_6 1_555 1_555
H65_6 C130_6 1_555 1_555
C131_6 N12_6 1_555 1_555
C132_6 C131_6 1_555 1_555
H66_6 C132_6 1_555 1_555
C133_6 N12_6 1_555 1_555
C134_6 C132_6 1_555 1_555
H67_6 C134_6 1_555 1_555
C135_6 C133_6 1_555 1_555
C136_6 C112_6 1_555 1_555
H68_6 C136_6 1_555 1_555
C137_6 N11_8 1_555 1_555
C138_6 H69_6 1_555 1_555
C139_6 C135_6 1_555 1_555
C140_6 C138_6 1_555 1_555
H70_6 C140_6 1_555 1_555
C141_6 C140_6 1_555 1_555
C144_6 C141_6 1_555 1_555
C102_6 C103_6 1_555 1_555
C104_6 C105_6 1_555 1_555
C109_6 C110_6 1_555 1_555
C111_6 C113_6 1_555 1_555
C112_6 C113_6 1_555 1_555
C114_6 C115_6 1_555 1_555
C126_6 C127_6 1_555 1_555
C128_6 C129_6 1_555 1_555
C128_6 C131_6 1_555 1_555
C129_6 C130_6 1_555 1_555
C133_6 C134_6 1_555 1_555
C135_6 C137_6 1_555 1_555
C136_6 C137_6 1_555 1_555
C138_6 C139_6 1_555 1_555
Mn1_9 N3_8 1_555 1_555
O9_9 Mn1_9 1_555 1_555
O10_9 Mn1_9 1_555 1_555
O45_3 C61_6 1_555 1_555
O48_3 C61_6 1_555 1_555
N7_7 Mn1_9 1_555 1_555
C61_6 C62_6 1_555 1_555
C62_6 C63_6 1_555 1_555
C63_6 H31_6 1_555 1_555
C64_6 C63_6 1_555 1_555
H32_6 C64_6 1_555 1_555
C65_6 C62_6 1_555 1_555
H33_6 C65_6 1_555 1_555
C66_6 C65_6 1_555 1_555
H34_6 C66_6 1_555 1_555
C67_6 C64_6 1_555 1_555
C68_6 C67_6 1_555 1_555
C69_6 H35_6 1_555 1_555
C70_6 N7_7 1_555 1_555
C71_6 N3_8 1_555 1_555
H36_6 C72_6 1_555 1_555
N8_8 Mn1_9 1_555 1_555
O22_4 C85_6 1_555 1_555
O23_4 C85_6 1_555 1_555
C85_6 C86_6 1_555 1_555
C86_6 C87_6 1_555 1_555
C87_6 H43_6 1_555 1_555
C88_6 C87_6 1_555 1_555
H44_6 C88_6 1_555 1_555
C89_6 C86_6 1_555 1_555
H45_6 C89_6 1_555 1_555
C90_6 C89_6 1_555 1_555
H46_6 C90_6 1_555 1_555
C91_6 C88_6 1_555 1_555
C92_6 C91_6 1_555 1_555
C93_6 C69_6 1_555 1_555
H47_6 C93_6 1_555 1_555
C94_6 N7_7 1_555 1_555
C95_6 N8_8 1_555 1_555
H48_6 C96_6 1_555 1_555
U7_2 O22_4 1_555 1_555
K3 O22_4 1_555 1_555
C66_6 C67_6 1_555 1_555
C68_6 C70_6 1_555 1_555
C68_6 C71_6 1_555 1_555
C69_6 C70_6 1_555 1_555
C71_6 C72_6 1_555 1_555
O23_4 U7_2 1_555 1_555
C90_6 C91_6 1_555 1_555
C92_6 C94_6 1_555 1_555
C92_6 C95_6 1_555 1_555
C93_6 C94_6 1_555 1_555
C95_6 C96_6 1_555 1_555
C97_7 C98_7 1_555 1_555
N9_9 Mn3_9 1_555 1_555
O27_7 U9_4 1_555 1_555
Mn3_9 N10_7 1_555 1_555
C98_7 C100_7 1_555 1_555
N10_7 C107_7 1_555 1_555
C99_7 H49_7 1_555 1_555
C100_7 C99_7 1_555 1_555
H50_7 C100_7 1_555 1_555
N11_9 Mn3_9 1_555 1_555
C101_7 C98_7 1_555 1_555
H51_7 C101_7 1_555 1_555
O53_3 C120_7 1_555 1_555
C102_7 C99_7 1_555 1_555
O30_7 U9_4 1_555 1_555
C103_7 C101_7 1_555 1_555
H52_7 C103_7 1_555 1_555
O57_3 C120_7 1_555 1_555
C104_7 C102_7 1_555 1_555
C105_7 N9_9 1_555 1_555
C106_7 C105_7 1_555 1_555
H53_7 C106_7 1_555 1_555
C107_7 C104_7 1_555 1_555
O32_9 Mn3_9 1_555 1_555
C108_7 C107_7 1_555 1_555
H54_7 C108_7 1_555 1_555
O33_9 Mn3_9 1_555 1_555
C109_7 N10_7 1_555 1_555
C110_7 C108_7 1_555 1_555
H55_7 C110_7 1_555 1_555
C111_7 C109_7 1_555 1_555
C112_7 H56_7 1_555 1_555
C113_7 N11_9 1_555 1_555
C114_7 H57_7 1_555 1_555
C115_7 C111_7 1_555 1_555
C116_7 C114_7 1_555 1_555
H58_7 C116_7 1_555 1_555
C117_7 C116_7 1_555 1_555
C118_7 C117_7 1_555 1_555
H59_7 C118_7 1_555 1_555
C119_7 C115_7 1_555 1_555
H60_7 C119_7 1_555 1_555
C120_7 C117_7 1_555 1_555
C121_7 C122_7 1_555 1_555
C122_7 C124_7 1_555 1_555
N12_7 Mn3_9 1_555 1_555
C123_7 H61_7 1_555 1_555
C124_7 C123_7 1_555 1_555
H62_7 C124_7 1_555 1_555
O50_4 C121_7 1_555 1_555
C125_7 C122_7 1_555 1_555
H63_7 C125_7 1_555 1_555
O52_3 C144_7 1_555 1_555
C126_7 C123_7 1_555 1_555
O55_4 C121_7 1_555 1_555
C127_7 C125_7 1_555 1_555
H64_7 C127_7 1_555 1_555
O56_3 C144_7 1_555 1_555
C128_7 C126_7 1_555 1_555
C129_7 N9_9 1_555 1_555
C130_7 C106_7 1_555 1_555
H65_7 C130_7 1_555 1_555
C131_7 N12_7 1_555 1_555
C132_7 C131_7 1_555 1_555
H66_7 C132_7 1_555 1_555
C133_7 N12_7 1_555 1_555
C134_7 C132_7 1_555 1_555
H67_7 C134_7 1_555 1_555
C135_7 C133_7 1_555 1_555
C136_7 C112_7 1_555 1_555
H68_7 C136_7 1_555 1_555
C137_7 N11_9 1_555 1_555
C138_7 H69_7 1_555 1_555
C139_7 C135_7 1_555 1_555
C140_7 C138_7 1_555 1_555
H70_7 C140_7 1_555 1_555
C141_7 C140_7 1_555 1_555
C142_7 C141_7 1_555 1_555
H71_7 C142_7 1_555 1_555
C143_7 C139_7 1_555 1_555
H72_7 C143_7 1_555 1_555
C144_7 C141_7 1_555 1_555
K3_2 O50_4 1_555 1_555
U9_4 O51_4 1_555 1_555
C97_7 O51_4 1_555 1_555
C97_7 O30_7 1_555 1_555
C102_7 C103_7 1_555 1_555
C104_7 C105_7 1_555 1_555
C109_7 C110_7 1_555 1_555
C111_7 C113_7 1_555 1_555
C112_7 C113_7 1_555 1_555
C114_7 C115_7 1_555 1_555
C118_7 C119_7 1_555 1_555
C126_7 C127_7 1_555 1_555
C128_7 C129_7 1_555 1_555
C128_7 C131_7 1_555 1_555
C129_7 C130_7 1_555 1_555
C133_7 C134_7 1_555 1_555
C135_7 C137_7 1_555 1_555
C136_7 C137_7 1_555 1_555
C138_7 C139_7 1_555 1_555
C142_7 C143_7 1_555 1_555
N5_8 Mn1_10 1_555 1_555
O9_10 Mn1_10 1_555 1_555
O10_10 Mn1_10 1_555 1_555
N7_8 Mn1_10 1_555 1_555
O46_4 C73_7 1_555 1_555
N8_9 Mn1_10 1_555 1_555
O21_7 C73_7 1_555 1_555
C73_7 C74_7 1_555 1_555
C74_7 C75_7 1_555 1_555
C75_7 H37_7 1_555 1_555
C76_7 C75_7 1_555 1_555
H38_7 C76_7 1_555 1_555
C77_7 C74_7 1_555 1_555
H39_7 C77_7 1_555 1_555
C78_7 C77_7 1_555 1_555
H40_7 C78_7 1_555 1_555
C79_7 C76_7 1_555 1_555
C80_7 C79_7 1_555 1_555
H41_7 C81_7 1_555 1_555
C82_7 N5_8 1_555 1_555
C83_7 N8_9 1_555 1_555
C84_7 C83_7 1_555 1_555
H42_7 C84_7 1_555 1_555
O44_4 C85_7 1_555 1_555
O47_4 C85_7 1_555 1_555
C85_7 C86_7 1_555 1_555
C86_7 C87_7 1_555 1_555
C87_7 H43_7 1_555 1_555
C88_7 C87_7 1_555 1_555
H44_7 C88_7 1_555 1_555
C89_7 C86_7 1_555 1_555
H45_7 C89_7 1_555 1_555
C90_7 C89_7 1_555 1_555
H46_7 C90_7 1_555 1_555
C91_7 C88_7 1_555 1_555
C92_7 C91_7 1_555 1_555
H47_7 C93_7 1_555 1_555
C94_7 N7_8 1_555 1_555
C95_7 N8_9 1_555 1_555
C96_7 C84_7 1_555 1_555
H48_7 C96_7 1_555 1_555
K3_2 O44_4 1_555 1_555
C78_7 C79_7 1_555 1_555
C80_7 C82_7 1_555 1_555
C80_7 C83_7 1_555 1_555
C81_7 C82_7 1_555 1_555
C90_7 C91_7 1_555 1_555
C92_7 C94_7 1_555 1_555
C92_7 C95_7 1_555 1_555
C93_7 C94_7 1_555 1_555
C95_7 C96_7 1_555 1_555
C1_7 C2_7 1_555 1_555
N1_9 Mn2_9 1_555 1_555
O2_7 U5_4 1_555 1_555
Mn2_9 N2_7 1_555 1_555
C2_7 C4_7 1_555 1_555
N2_7 C11_7 1_555 1_555
C3_7 H1_7 1_555 1_555
C4_7 C3_7 1_555 1_555
H2_7 C4_7 1_555 1_555
N4_9 Mn2_9 1_555 1_555
O49_4 U5_4 1_555 1_555
C5_7 C2_7 1_555 1_555
H3_7 C5_7 1_555 1_555
O6_7 C24_7 1_555 1_555
C6_7 C3_7 1_555 1_555
O7_7 U5_4 1_555 1_555
C7_7 C5_7 1_555 1_555
H4_7 C7_7 1_555 1_555
O8_7 C24_7 1_555 1_555
C8_7 C6_7 1_555 1_555
C9_7 N1_9 1_555 1_555
C10_7 C9_7 1_555 1_555
H5_7 C10_7 1_555 1_555
C11_7 C8_7 1_555 1_555
O11_9 Mn2_9 1_555 1_555
C12_7 C11_7 1_555 1_555
H6_7 C12_7 1_555 1_555
O12_9 Mn2_9 1_555 1_555
C13_7 N2_7 1_555 1_555
C14_7 C12_7 1_555 1_555
H7_7 C14_7 1_555 1_555
C15_7 C13_7 1_555 1_555
C16_7 H8_7 1_555 1_555
C17_7 N4_9 1_555 1_555
C18_7 H9_7 1_555 1_555
C19_7 C15_7 1_555 1_555
C20_7 C18_7 1_555 1_555
H10_7 C20_7 1_555 1_555
C21_7 C20_7 1_555 1_555
C22_7 C21_7 1_555 1_555
H11_7 C22_7 1_555 1_555
C23_7 C19_7 1_555 1_555
H12_7 C23_7 1_555 1_555
C24_7 C21_7 1_555 1_555
C37_7 C38_7 1_555 1_555
C38_7 C40_7 1_555 1_555
N6_7 Mn2_9 1_555 1_555
C39_7 H19_7 1_555 1_555
C40_7 C39_7 1_555 1_555
H20_7 C40_7 1_555 1_555
O14_7 C37_7 1_555 1_555
C41_7 C38_7 1_555 1_555
H21_7 C41_7 1_555 1_555
O54_3 C60_7 1_555 1_555
C42_7 C39_7 1_555 1_555
O16_7 C37_7 1_555 1_555
C43_7 C41_7 1_555 1_555
H22_7 C43_7 1_555 1_555
O58_3 C60_7 1_555 1_555
C44_7 C42_7 1_555 1_555
C45_7 N1_9 1_555 1_555
C46_7 C10_7 1_555 1_555
H23_7 C46_7 1_555 1_555
C47_7 N6_7 1_555 1_555
C48_7 C47_7 1_555 1_555
H24_7 C48_7 1_555 1_555
C49_7 N6_7 1_555 1_555
C50_7 C48_7 1_555 1_555
H25_7 C50_7 1_555 1_555
C51_7 C49_7 1_555 1_555
C52_7 C16_7 1_555 1_555
H26_7 C52_7 1_555 1_555
C53_7 N4_9 1_555 1_555
C54_7 H27_7 1_555 1_555
C55_7 C51_7 1_555 1_555
C56_7 C54_7 1_555 1_555
H28_7 C56_7 1_555 1_555
C57_7 C56_7 1_555 1_555
C58_7 C57_7 1_555 1_555
H29_7 C58_7 1_555 1_555
C59_7 C55_7 1_555 1_555
H30_7 C59_7 1_555 1_555
C60_7 C57_7 1_555 1_555
U10_4 O14_7 1_555 1_555
O41_7 U10_4 1_555 1_555
O42_7 U10_4 1_555 1_555
K5_2 O14_7 1_555 1_555
O45_4 U10_4 1_555 1_555
O48_4 U10_4 1_555 1_555
C1_7 O49_4 1_555 1_555
C1_7 O7_7 1_555 1_555
C6_7 C7_7 1_555 1_555
C8_7 C9_7 1_555 1_555
C13_7 C14_7 1_555 1_555
C15_7 C17_7 1_555 1_555
C16_7 C17_7 1_555 1_555
C18_7 C19_7 1_555 1_555
C22_7 C23_7 1_555 1_555
C42_7 C43_7 1_555 1_555
O16_7 U10_4 1_555 1_555
C44_7 C45_7 1_555 1_555
C44_7 C47_7 1_555 1_555
C45_7 C46_7 1_555 1_555
C49_7 C50_7 1_555 1_555
C51_7 C53_7 1_555 1_555
C52_7 C53_7 1_555 1_555
C54_7 C55_7 1_555 1_555
C58_7 C59_7 1_555 1_555
K5_2 O45_4 1_555 1_555
Mn1_11 N3_9 1_555 1_555
N3_9 C35_7 1_555 1_555
N5_9 Mn1_11 1_555 1_555
O9_11 Mn1_11 1_555 1_555
O10_11 Mn1_11 1_555 1_555
C25_7 O43_4 1_555 1_555
C26_7 C25_7 1_555 1_555
C27_7 C26_7 1_555 1_555
H13_7 C27_7 1_555 1_555
C28_7 C27_7 1_555 1_555
H14_7 C28_7 1_555 1_555
C29_7 C26_7 1_555 1_555
H15_7 C29_7 1_555 1_555
C30_7 C29_7 1_555 1_555
H16_7 C30_7 1_555 1_555
C31_7 C28_7 1_555 1_555
C32_7 C31_7 1_555 1_555
C33_7 H17_7 1_555 1_555
C34_7 N5_9 1_555 1_555
C35_7 C32_7 1_555 1_555
C36_7 C35_7 1_555 1_555
H18_7 C36_7 1_555 1_555
O45_4 C61_7 1_555 1_555
O48_4 C61_7 1_555 1_555
N7_9 Mn1_11 1_555 1_555
C61_7 C62_7 1_555 1_555
C62_7 C63_7 1_555 1_555
C63_7 H31_7 1_555 1_555
C64_7 C63_7 1_555 1_555
H32_7 C64_7 1_555 1_555
C65_7 C62_7 1_555 1_555
H33_7 C65_7 1_555 1_555
C66_7 C65_7 1_555 1_555
H34_7 C66_7 1_555 1_555
C67_7 C64_7 1_555 1_555
C68_7 C67_7 1_555 1_555
C69_7 H35_7 1_555 1_555
C70_7 N7_9 1_555 1_555
C71_7 N3_9 1_555 1_555
C72_7 C36_7 1_555 1_555
H36_7 C72_7 1_555 1_555
O40_7 U6_2 1_555 1_555
O4_7 C25_7 1_555 1_555
C30_7 C31_7 1_555 1_555
C32_7 C34_7 1_555 1_555
C33_7 C34_7 1_555 1_555
C66_7 C67_7 1_555 1_555
C68_7 C70_7 1_555 1_555
C68_7 C71_7 1_555 1_555
C69_7 C70_7 1_555 1_555
C71_7 C72_7 1_555 1_555
O40_8 U7_2 1_555 1_555
Mn1_12 N3_10 1_555 1_555
N3_10 C35_8 1_555 1_555
N5_10 Mn1_12 1_555 1_555
O9_12 Mn1_12 1_555 1_555
O10_12 Mn1_12 1_555 1_555
C25_8 O43_3 1_555 1_555
C26_8 C25_8 1_555 1_555
C27_8 C26_8 1_555 1_555
H13_8 C27_8 1_555 1_555
C28_8 C27_8 1_555 1_555
H14_8 C28_8 1_555 1_555
C29_8 C26_8 1_555 1_555
H15_8 C29_8 1_555 1_555
C30_8 C29_8 1_555 1_555
H16_8 C30_8 1_555 1_555
C31_8 C28_8 1_555 1_555
C32_8 C31_8 1_555 1_555
C33_8 H17_8 1_555 1_555
C34_8 N5_10 1_555 1_555
C35_8 C32_8 1_555 1_555
C36_8 C35_8 1_555 1_555
H18_8 C36_8 1_555 1_555
O18_4 C61_8 1_555 1_555
O19_4 C61_8 1_555 1_555
N7_10 Mn1_12 1_555 1_555
C61_8 C62_8 1_555 1_555
C62_8 C63_8 1_555 1_555
C63_8 H31_8 1_555 1_555
C64_8 C63_8 1_555 1_555
H32_8 C64_8 1_555 1_555
C65_8 C62_8 1_555 1_555
H33_8 C65_8 1_555 1_555
C66_8 C65_8 1_555 1_555
H34_8 C66_8 1_555 1_555
C67_8 C64_8 1_555 1_555
C68_8 C67_8 1_555 1_555
C69_8 H35_8 1_555 1_555
C70_8 N7_10 1_555 1_555
C71_8 N3_10 1_555 1_555
C72_8 C36_8 1_555 1_555
H36_8 C72_8 1_555 1_555
O46_3 C73_8 1_555 1_555
N8_10 Mn1_12 1_555 1_555
O21_8 C73_8 1_555 1_555
C73_8 C74_8 1_555 1_555
C74_8 C75_8 1_555 1_555
C75_8 H37_8 1_555 1_555
C76_8 C75_8 1_555 1_555
H38_8 C76_8 1_555 1_555
C77_8 C74_8 1_555 1_555
H39_8 C77_8 1_555 1_555
C78_8 C77_8 1_555 1_555
H40_8 C78_8 1_555 1_555
C79_8 C76_8 1_555 1_555
C80_8 C79_8 1_555 1_555
C81_8 C33_8 1_555 1_555
H41_8 C81_8 1_555 1_555
C82_8 N5_10 1_555 1_555
C83_8 N8_10 1_555 1_555
C84_8 C83_8 1_555 1_555
H42_8 C84_8 1_555 1_555
O44_3 C85_8 1_555 1_555
O47_3 C85_8 1_555 1_555
C85_8 C86_8 1_555 1_555
C86_8 C87_8 1_555 1_555
C87_8 H43_8 1_555 1_555
C88_8 C87_8 1_555 1_555
H44_8 C88_8 1_555 1_555
C89_8 C86_8 1_555 1_555
H45_8 C89_8 1_555 1_555
C90_8 C89_8 1_555 1_555
H46_8 C90_8 1_555 1_555
C91_8 C88_8 1_555 1_555
C92_8 C91_8 1_555 1_555
C93_8 C69_8 1_555 1_555
H47_8 C93_8 1_555 1_555
C94_8 N7_10 1_555 1_555
C95_8 N8_10 1_555 1_555
C96_8 C84_8 1_555 1_555
H48_8 C96_8 1_555 1_555
U10_3 O18_4 1_555 1_555
K4_3 O44_3 1_555 1_555
K6_3 O18_4 1_555 1_555
O4_8 C25_8 1_555 1_555
C30_8 C31_8 1_555 1_555
C32_8 C34_8 1_555 1_555
C33_8 C34_8 1_555 1_555
O19_4 U10_3 1_555 1_555
C66_8 C67_8 1_555 1_555
C68_8 C70_8 1_555 1_555
C68_8 C71_8 1_555 1_555
C69_8 C70_8 1_555 1_555
C71_8 C72_8 1_555 1_555
C78_8 C79_8 1_555 1_555
C80_8 C82_8 1_555 1_555
C80_8 C83_8 1_555 1_555
C81_8 C82_8 1_555 1_555
C90_8 C91_8 1_555 1_555
C92_8 C94_8 1_555 1_555
C92_8 C95_8 1_555 1_555
C93_8 C94_8 1_555 1_555
C95_8 C96_8 1_555 1_555
N1_10 Mn2_10 1_555 1_555
Mn2_10 N2_8 1_555 1_555
N2_8 C11_8 1_555 1_555
C3_8 H1_8 1_555 1_555
C4_8 C3_8 1_555 1_555
H2_8 C4_8 1_555 1_555
N4_10 Mn2_10 1_555 1_555
O6_8 C24_8 1_555 1_555
C6_8 C3_8 1_555 1_555
H4_8 C7_8 1_555 1_555
O8_8 C24_8 1_555 1_555
C8_8 C6_8 1_555 1_555
C9_8 N1_10 1_555 1_555
C10_8 C9_8 1_555 1_555
H5_8 C10_8 1_555 1_555
C11_8 C8_8 1_555 1_555
O11_10 Mn2_10 1_555 1_555
C12_8 C11_8 1_555 1_555
H6_8 C12_8 1_555 1_555
O12_10 Mn2_10 1_555 1_555
C13_8 N2_8 1_555 1_555
C14_8 C12_8 1_555 1_555
H7_8 C14_8 1_555 1_555
C15_8 C13_8 1_555 1_555
C16_8 H8_8 1_555 1_555
C17_8 N4_10 1_555 1_555
C18_8 H9_8 1_555 1_555
C19_8 C15_8 1_555 1_555
C20_8 C18_8 1_555 1_555
H10_8 C20_8 1_555 1_555
C21_8 C20_8 1_555 1_555
C22_8 C21_8 1_555 1_555
H11_8 C22_8 1_555 1_555
C23_8 C19_8 1_555 1_555
H12_8 C23_8 1_555 1_555
C24_8 C21_8 1_555 1_555
N6_8 Mn2_10 1_555 1_555
C39_8 H19_8 1_555 1_555
C40_8 C39_8 1_555 1_555
H20_8 C40_8 1_555 1_555
O54_4 C60_8 1_555 1_555
C42_8 C39_8 1_555 1_555
H22_8 C43_8 1_555 1_555
O58_4 C60_8 1_555 1_555
C44_8 C42_8 1_555 1_555
C45_8 N1_10 1_555 1_555
C46_8 C10_8 1_555 1_555
H23_8 C46_8 1_555 1_555
C47_8 N6_8 1_555 1_555
C48_8 C47_8 1_555 1_555
H24_8 C48_8 1_555 1_555
C49_8 N6_8 1_555 1_555
C50_8 C48_8 1_555 1_555
H25_8 C50_8 1_555 1_555
C51_8 C49_8 1_555 1_555
C52_8 C16_8 1_555 1_555
H26_8 C52_8 1_555 1_555
C53_8 N4_10 1_555 1_555
C54_8 H27_8 1_555 1_555
C55_8 C51_8 1_555 1_555
C56_8 C54_8 1_555 1_555
H28_8 C56_8 1_555 1_555
C57_8 C56_8 1_555 1_555
C58_8 C57_8 1_555 1_555
H29_8 C58_8 1_555 1_555
C59_8 C55_8 1_555 1_555
H30_8 C59_8 1_555 1_555
C60_8 C57_8 1_555 1_555
N9_10 Mn3_10 1_555 1_555
Mn3_10 N10_8 1_555 1_555
N10_8 C107_8 1_555 1_555
C99_8 H49_8 1_555 1_555
C100_8 C99_8 1_555 1_555
H50_8 C100_8 1_555 1_555
N11_10 Mn3_10 1_555 1_555
O53_4 C120_8 1_555 1_555
C102_8 C99_8 1_555 1_555
H52_8 C103_8 1_555 1_555
O57_4 C120_8 1_555 1_555
C104_8 C102_8 1_555 1_555
C105_8 N9_10 1_555 1_555
C106_8 C105_8 1_555 1_555
H53_8 C106_8 1_555 1_555
C107_8 C104_8 1_555 1_555
O32_10 Mn3_10 1_555 1_555
C108_8 C107_8 1_555 1_555
H54_8 C108_8 1_555 1_555
O33_10 Mn3_10 1_555 1_555
C109_8 N10_8 1_555 1_555
C110_8 C108_8 1_555 1_555
H55_8 C110_8 1_555 1_555
C111_8 C109_8 1_555 1_555
C112_8 H56_8 1_555 1_555
C113_8 N11_10 1_555 1_555
C114_8 H57_8 1_555 1_555
C115_8 C111_8 1_555 1_555
C116_8 C114_8 1_555 1_555
H58_8 C116_8 1_555 1_555
C117_8 C116_8 1_555 1_555
C118_8 C117_8 1_555 1_555
H59_8 C118_8 1_555 1_555
C119_8 C115_8 1_555 1_555
H60_8 C119_8 1_555 1_555
C120_8 C117_8 1_555 1_555
N12_8 Mn3_10 1_555 1_555
C123_8 H61_8 1_555 1_555
C124_8 C123_8 1_555 1_555
H62_8 C124_8 1_555 1_555
O52_4 C144_8 1_555 1_555
C126_8 C123_8 1_555 1_555
H64_8 C127_8 1_555 1_555
O56_4 C144_8 1_555 1_555
C128_8 C126_8 1_555 1_555
C129_8 N9_10 1_555 1_555
C130_8 C106_8 1_555 1_555
H65_8 C130_8 1_555 1_555
C131_8 N12_8 1_555 1_555
C132_8 C131_8 1_555 1_555
H66_8 C132_8 1_555 1_555
C133_8 N12_8 1_555 1_555
C134_8 C132_8 1_555 1_555
H67_8 C134_8 1_555 1_555
C135_8 C133_8 1_555 1_555
C136_8 C112_8 1_555 1_555
H68_8 C136_8 1_555 1_555
C137_8 N11_10 1_555 1_555
C138_8 H69_8 1_555 1_555
C139_8 C135_8 1_555 1_555
C140_8 C138_8 1_555 1_555
H70_8 C140_8 1_555 1_555
C141_8 C140_8 1_555 1_555
C142_8 C141_8 1_555 1_555
H71_8 C142_8 1_555 1_555
C143_8 C139_8 1_555 1_555
H72_8 C143_8 1_555 1_555
C144_8 C141_8 1_555 1_555
C6_8 C7_8 1_555 1_555
C8_8 C9_8 1_555 1_555
C13_8 C14_8 1_555 1_555
C15_8 C17_8 1_555 1_555
C16_8 C17_8 1_555 1_555
C18_8 C19_8 1_555 1_555
C22_8 C23_8 1_555 1_555
C42_8 C43_8 1_555 1_555
C44_8 C45_8 1_555 1_555
C44_8 C47_8 1_555 1_555
C45_8 C46_8 1_555 1_555
C49_8 C50_8 1_555 1_555
C51_8 C53_8 1_555 1_555
C52_8 C53_8 1_555 1_555
C54_8 C55_8 1_555 1_555
C58_8 C59_8 1_555 1_555
C102_8 C103_8 1_555 1_555
C104_8 C105_8 1_555 1_555
C109_8 C110_8 1_555 1_555
C111_8 C113_8 1_555 1_555
C112_8 C113_8 1_555 1_555
C114_8 C115_8 1_555 1_555
C118_8 C119_8 1_555 1_555
C126_8 C127_8 1_555 1_555
C128_8 C129_8 1_555 1_555
C128_8 C131_8 1_555 1_555
C129_8 C130_8 1_555 1_555
C133_8 C134_8 1_555 1_555
C135_8 C137_8 1_555 1_555
C136_8 C137_8 1_555 1_555
C138_8 C139_8 1_555 1_555
C142_8 C143_8 1_555 1_555
C1_8 C2_8 1_555 1_555
O2_8 U5_3 1_555 1_555
O49_3 U5_3 1_555 1_555
C5_8 C2_8 1_555 1_555
H3_8 C5_8 1_555 1_555
O7_8 U5_3 1_555 1_555
C37_8 C38_8 1_555 1_555
O14_8 C37_8 1_555 1_555
C41_8 C38_8 1_555 1_555
H21_8 C41_8 1_555 1_555
O16_8 C37_8 1_555 1_555
C97_8 C98_8 1_555 1_555
O27_8 U9_3 1_555 1_555
C101_8 C98_8 1_555 1_555
H51_8 C101_8 1_555 1_555
O30_8 U9_3 1_555 1_555
C121_8 C122_8 1_555 1_555
O50_3 C121_8 1_555 1_555
C125_8 C122_8 1_555 1_555
H63_8 C125_8 1_555 1_555
O55_3 C121_8 1_555 1_555
U10_3 O14_8 1_555 1_555
O41_8 U10_3 1_555 1_555
O42_8 U10_3 1_555 1_555
K4_3 O50_3 1_555 1_555
K6_3 O14_8 1_555 1_555
C1_8 O49_3 1_555 1_555
C1_8 O7_8 1_555 1_555
O16_8 U10_3 1_555 1_555
U9_3 O51_3 1_555 1_555
C97_8 O51_3 1_555 1_555
C97_8 O30_8 1_555 1_555
O13_5 K3 1_555 1_555
O24_5 K3 1_555 1_555
O25_5 K5 1_555 1_555
O34_5 K5 1_555 1_555
O13_6 K4 1_555 1_555
O24_6 K4 1_555 1_555
O25_6 K6 1_555 1_555
O34_6 K6 1_555 1_555
O13_7 K3_2 1_555 1_555
O24_7 K3_2 1_555 1_555
O25_7 K5_2 1_555 1_555
O34_7 K5_2 1_555 1_555
O13_8 K4_2 1_555 1_555
O34_8 K6_2 1_555 1_555
O24_8 K4_3 1_555 1_555
O25_8 K6_3 1_555 1_555
O33_6 H81_3 1_555 1_555
O11_6 H89_3 1_555 1_555
O32_7 H77_3 1_555 1_555
O12_7 H85_3 1_555 1_555
O11_2 H89_4 1_555 1_555
O33_2 H81_4 1_555 1_555
O32_3 H77_4 1_555 1_555
O12_3 H85_4 1_555 1_555

#END
