
###############################################################################
#
# This file contains modified crystal structure data generated from the
# MOF subset of the Cambridge Structural Database (CSD) v543 
# hosted by the Cambridge Crystallographic Data Centre (CCDC).
#
# This work is licensed under the Creative Commons
# Attribution-NonCommercial-ShareAlike 4.0 International License.
# To view a copy of this license, visit
# http://creativecommons.org/licenses/by-nc-sa/4.0/
# or send a letter to
# Creative Commons, PO Box 1866, Mountain View, CA 94042, USA.
#
# CIF created using the CSD Python API on 29 September 2022
# The structure has been converted into the P1 space group
# The structure has a 3D framework
# The original CSD entry IJEVEA is in the orthorhombic crystal system
# The framework has been calculated to contain at least 10.0% void space
# The void calculation uses a probe of radius 1.32A, grid spacing 0.4
# H atom positions have been added when not included in the experimental data
# Generated hydrogen atom positions removed from atoms on special positions
#
###############################################################################

data_IJEVEA
_chemical_formula_moiety         '(C232 H176 Cd24 N8 O116)n'
_symmetry_cell_setting           triclinic
_symmetry_space_group_name_H-M   'P 1'
_symmetry_Int_Tables_number      1
_space_group_name_Hall           'P 1'
loop_
_symmetry_equiv_pos_site_id
_symmetry_equiv_pos_as_xyz
1 x,y,z
_cell_length_a                   18.845(6)
_cell_length_b                   29.996(8)
_cell_length_c                   12.410(4)
_cell_angle_alpha                90
_cell_angle_beta                 90
_cell_angle_gamma                90
_cell_volume                     7015.06
loop_
_atom_site_label
_atom_site_type_symbol
_atom_site_fract_x
_atom_site_fract_y
_atom_site_fract_z
Cd1 Cd 0.09219(2) 0.653325(16) 0.56054(3)
Cd2 Cd 0.17650(2) 0.610201(14) 0.81729(3)
Cd3 Cd 0.36493(2) 0.614014(15) 0.82189(3)
O1 O 0.2046(2) 0.67765(14) 0.4891(3)
O2 O 0.1279(2) 0.64475(17) 0.3822(4)
O5 O 0.6209(2) 0.66794(13) 0.2663(3)
O6 O 0.6477(2) 0.71807(17) 0.1428(4)
O7 O 0.2666(2) 0.61000(14) 0.6945(3)
O8 O 0.1685(2) 0.58856(14) 0.6122(3)
O9 O 0.4732(2) 0.64765(15) 0.4749(4)
O10 O 0.5072(2) 0.59885(17) 0.3544(4)
O13 O 0.0724(3) 0.72837(17) 0.5045(4)
O14 O 0.0711(3) 0.5752(3) 0.8284(5)
O15 O 0.3835(3) 0.68029(18) 0.7426(5)
O16 O 0.4663(4) 0.6336(3) 0.9201(7)
N1 N 0.4287(3) 0.56541(17) 0.7151(4)
C1 C 0.1868(3) 0.6649(2) 0.3970(5)
C2 C 0.2339(3) 0.6721(2) 0.3019(4)
C3 C 0.2980(3) 0.69582(19) 0.3130(4)
H1 H 0.3105 0.7076 0.3797
C4 C 0.3428(3) 0.70177(18) 0.2250(4)
C5 C 0.3233(3) 0.68490(19) 0.1246(5)
H2 H 0.3533 0.6886 0.0658
C6 C 0.2592(3) 0.66256(18) 0.1119(4)
C7 C 0.2152(3) 0.65610(19) 0.2006(5)
H3 H 0.1726 0.6408 0.1921
C8 C 0.2373(3) 0.64633(18) 0.0023(5)
C9 C 0.4113(3) 0.72742(18) 0.2375(4)
C10 C 0.4756(3) 0.70513(18) 0.2240(4)
H4 H 0.4755 0.6750 0.2060
C11 C 0.5397(3) 0.72714(17) 0.2371(4)
C12 C 0.6086(3) 0.70348(19) 0.2130(5)
C13 C 0.2347(3) 0.59500(17) 0.6120(4)
C14 C 0.2783(3) 0.58442(18) 0.5154(4)
C15 C 0.3445(3) 0.60446(18) 0.5053(4)
H5 H 0.3597 0.6248 0.5569
C16 C 0.3879(3) 0.59430(19) 0.4186(4)
C17 C 0.4602(3) 0.6155(2) 0.4142(5)
C18 C 0.3645(3) 0.56414(19) 0.3411(4)
H6 H 0.3949 0.5561 0.2853
C19 C 0.2963(3) 0.54565(17) 0.3448(4)
C20 C 0.2532(3) 0.55580(18) 0.4340(4)
H7 H 0.2080 0.5436 0.4392
C21 C 0.2704(3) 0.51983(18) 0.2492(4)
C22 C 0.2883(3) 0.53883(19) 0.1487(5)
H8 H 0.3140 0.5653 0.1480
C23 C 0.2692(3) 0.5199(2) 0.0512(4)
C25 C 0.4913(3) 0.5754(2) 0.6692(5)
H9 H 0.5156 0.6005 0.6934
C26 C 0.5216(3) 0.5503(2) 0.5876(5)
H10 H 0.5656 0.5584 0.5600
C27 C 0.4864(3) 0.51289(19) 0.5465(5)
C28 C 0.4230(3) 0.50151(19) 0.5972(5)
H11 H 0.3981 0.4763 0.5753
C29 C 0.3970(3) 0.5278(2) 0.6807(5)
H12 H 0.3553 0.5189 0.7146
O17 O 0.2046(2) 0.82235(14) 0.0109(3)
O18 O 0.1279(2) 0.85525(17) 0.1178(4)
O19 O 0.1772(2) 0.87219(16) 0.5066(3)
O20 O 0.2780(2) 0.84823(15) 0.5767(3)
O21 O 0.6209(2) 0.83206(13) 0.2337(3)
O22 O 0.6477(2) 0.78193(17) 0.3572(4)
C30 C 0.1868(3) 0.8351(2) 0.1030(5)
C31 C 0.2339(3) 0.8279(2) 0.1981(4)
C32 C 0.2980(3) 0.80418(19) 0.1870(4)
H13 H 0.3105 0.7924 0.1203
C33 C 0.3428(3) 0.79823(18) 0.2750(4)
C34 C 0.3233(3) 0.81510(19) 0.3754(5)
H14 H 0.3533 0.8114 0.4342
C35 C 0.2592(3) 0.83744(18) 0.3881(4)
C36 C 0.2152(3) 0.84390(19) 0.2994(5)
H15 H 0.1726 0.8592 0.3079
C37 C 0.2373(3) 0.85367(18) 0.4977(5)
C38 C 0.4113(3) 0.77258(18) 0.2625(4)
C39 C 0.4756(3) 0.79487(18) 0.2760(4)
H16 H 0.4755 0.8250 0.2940
C40 C 0.5397(3) 0.77286(17) 0.2629(4)
C41 C 0.6086(3) 0.79652(19) 0.2870(5)
O23 O 0.2334(2) 0.39000(14) 0.6945(3)
O24 O 0.3315(2) 0.41144(14) 0.6122(3)
O25 O 0.0268(2) 0.35235(15) 0.4749(4)
C42 C 0.2653(3) 0.40500(17) 0.6120(4)
C43 C 0.2217(3) 0.41558(18) 0.5154(4)
C44 C 0.1555(3) 0.39554(18) 0.5053(4)
H17 H 0.1403 0.3752 0.5569
C45 C 0.1121(3) 0.40570(19) 0.4186(4)
C46 C 0.0398(3) 0.3845(2) 0.4142(5)
C47 C 0.1355(3) 0.43586(19) 0.3411(4)
H18 H 0.1051 0.4439 0.2853
C48 C 0.2037(3) 0.45435(17) 0.3448(4)
C49 C 0.2468(3) 0.44420(18) 0.4340(4)
H19 H 0.2920 0.4564 0.4392
C50 C 0.2296(3) 0.48017(18) 0.2492(4)
C51 C 0.2117(3) 0.46117(19) 0.1487(5)
H20 H 0.1860 0.4347 0.1480
C52 C 0.2308(3) 0.4801(2) 0.0512(4)
N2 N 0.5713(3) 0.43459(17) 0.2849(4)
C54 C 0.5087(3) 0.4246(2) 0.3308(5)
H21 H 0.4844 0.3995 0.3066
C55 C 0.4784(3) 0.4497(2) 0.4124(5)
H22 H 0.4344 0.4416 0.4400
C56 C 0.5136(3) 0.48711(19) 0.4535(5)
C57 C 0.5770(3) 0.49849(19) 0.4028(5)
H23 H 0.6019 0.5237 0.4247
C58 C 0.6030(3) 0.4722(2) 0.3193(5)
H24 H 0.6447 0.4811 0.2854
Cd4 Cd 0.40781(2) 0.346675(16) 0.56054(3)
Cd5 Cd 0.32350(2) 0.389799(14) 0.81729(3)
Cd6 Cd 0.13507(2) 0.385986(15) 0.82189(3)
O29 O 0.4276(3) 0.27163(17) 0.5045(4)
O30 O 0.4289(3) 0.4248(3) 0.8284(5)
O31 O 0.1165(3) 0.31971(18) 0.7426(5)
O32 O 0.0337(4) 0.3664(3) 0.9201(7)
Cd9 Cd 0.59219(2) 0.653325(16) 0.43946(3)
Cd10 Cd 0.59219(2) 0.846675(16) 0.06054(3)
Cd13 Cd 0.17650(2) 0.889799(14) 0.68271(3)
Cd14 Cd 0.67650(2) 0.610201(14) 0.18271(3)
Cd15 Cd 0.67650(2) 0.889799(14) 0.31729(3)
Cd18 Cd 0.36493(2) 0.885986(15) 0.67811(3)
Cd19 Cd 0.63507(2) 0.385986(15) 0.17811(3)
O33 O 0.2954(2) 0.32235(14) 0.4891(3)
O34 O 0.3721(2) 0.35525(17) 0.3822(4)
O35 O 0.1772(2) 0.62781(16) 0.9934(3)
O36 O 0.3228(2) 0.37219(16) 0.9934(3)
O37 O 0.2780(2) 0.65177(15) 0.9233(3)
O38 O 0.2220(2) 0.34823(15) 0.9233(3)
O39 O 0.3791(2) 0.33206(13) 0.7337(3)
O40 O 0.1209(2) 0.66794(13) 0.7337(3)
O41 O 0.5268(2) 0.35235(15) 0.5251(4)
O43 O 0.4928(2) 0.40115(17) 0.6456(4)
O44 O 0.0072(2) 0.59885(17) 0.6456(4)
O45 O 0.3467(3) 0.5613(2) 0.9441(4)
O46 O 0.1533(3) 0.4387(2) 0.9441(4)
O47 O 0.2384(4) 0.54759(17) 0.8789(4)
O48 O 0.2616(4) 0.45241(17) 0.8789(4)
N3 N 0.0713(3) 0.43459(17) 0.7151(4)
H27 H 0.040355 0.33636 0.952168
H28 H 0.0258419 0.388527 0.978407
H29 H 0.421223 0.45755 0.828984
H30 H 0.453377 0.415705 0.895762
H31 H 0.159068 0.300597 0.752078
H32 H 0.0747802 0.304994 0.776123
H33 H 0.459645 0.66364 0.952168
H34 H 0.474158 0.611473 0.978407
H37 H 0.340932 0.699403 0.752078
H38 H 0.42522 0.695006 0.776123
H39 H 0.0787766 0.54245 0.828984
H40 H 0.0466225 0.584295 0.895762
C24 C 0.2861(5) 0.5441(2) 0.9489(5)
C53 C 0.2139(5) 0.4559(2) 0.9489(5)
Cd7 Cd 0.09219(2) 0.846675(16) 0.93946(3)
O26 O 0.9928(2) 0.40115(17) 0.3544(4)
Cd8 Cd 0.90781(2) 0.346675(16) 0.43946(3)
O42 O 0.9732(2) 0.64765(15) 0.5251(4)
C1_2 C 0.3132(3) 0.3351(2) 0.3970(5)
C2_2 C 0.2661(3) 0.3279(2) 0.3019(4)
C3_2 C 0.2020(3) 0.30418(19) 0.3130(4)
H1_2 H 0.1895 0.2924 0.3797
C4_2 C 0.1572(3) 0.29823(18) 0.2250(4)
C5_2 C 0.1767(3) 0.31510(19) 0.1246(5)
H2_2 H 0.1467 0.3114 0.0658
C6_2 C 0.2408(3) 0.33744(18) 0.1119(4)
C7_2 C 0.2848(3) 0.34390(19) 0.2006(5)
H3_2 H 0.3274 0.3592 0.1921
C8_2 C 0.2627(3) 0.35367(18) 0.0023(5)
C9_2 C 0.0887(3) 0.27258(18) 0.2375(4)
C10_2 C 0.0244(3) 0.29487(18) 0.2240(4)
H4_2 H 0.0245 0.3250 0.2060
C25_2 C 0.0087(3) 0.4246(2) 0.6692(5)
C27_2 C 0.0136(3) 0.48711(19) 0.5465(5)
C28_2 C 0.0770(3) 0.49849(19) 0.5972(5)
H11_2 H 0.1019 0.5237 0.5753
C29_2 C 0.1030(3) 0.4722(2) 0.6807(5)
H12_2 H 0.1447 0.4811 0.7146
O17_2 O 0.2954(2) 0.17765(14) 0.0109(3)
O18_2 O 0.3721(2) 0.14475(17) 0.1178(4)
O19_2 O 0.3228(2) 0.12781(16) 0.5066(3)
O20_2 O 0.2220(2) 0.15177(15) 0.5767(3)
C30_2 C 0.3132(3) 0.1649(2) 0.1030(5)
C31_2 C 0.2661(3) 0.1721(2) 0.1981(4)
C32_2 C 0.2020(3) 0.19582(19) 0.1870(4)
H13_2 H 0.1895 0.2076 0.1203
C33_2 C 0.1572(3) 0.20177(18) 0.2750(4)
C34_2 C 0.1767(3) 0.18490(19) 0.3754(5)
H14_2 H 0.1467 0.1886 0.4342
C35_2 C 0.2408(3) 0.16256(18) 0.3881(4)
C36_2 C 0.2848(3) 0.15610(19) 0.2994(5)
H15_2 H 0.3274 0.1408 0.3079
C37_2 C 0.2627(3) 0.14633(18) 0.4977(5)
C38_2 C 0.0887(3) 0.22742(18) 0.2625(4)
C39_2 C 0.0244(3) 0.20513(18) 0.2760(4)
H16_2 H 0.0245 0.1750 0.2940
H21_2 H 0.0156 0.6005 0.3066
C55_2 C 0.0216(3) 0.5503(2) 0.4124(5)
H22_2 H 0.0656 0.5584 0.4400
Cd13_2 Cd 0.32350(2) 0.110201(14) 0.68271(3)
Cd18_2 Cd 0.13507(2) 0.114014(15) 0.67811(3)
Cd7_2 Cd 0.40781(2) 0.153325(16) 0.93946(3)
O5_2 O 0.8791(2) 0.33206(13) 0.2663(3)
O6_2 O 0.8523(2) 0.28193(17) 0.1428(4)
C11_2 C 0.9603(3) 0.27286(17) 0.2371(4)
C12_2 C 0.8914(3) 0.29652(19) 0.2130(5)
H9_2 H 0.9844 0.3995 0.6934
C26_2 C 0.9784(3) 0.4497(2) 0.5876(5)
H10_2 H 0.9344 0.4416 0.5600
O21_2 O 0.8791(2) 0.16794(13) 0.2337(3)
O22_2 O 0.8523(2) 0.21807(17) 0.3572(4)
C40_2 C 0.9603(3) 0.22714(17) 0.2629(4)
C41_2 C 0.8914(3) 0.20348(19) 0.2870(5)
N2_2 N 0.9287(3) 0.56541(17) 0.2849(4)
C54_2 C 0.9913(3) 0.5754(2) 0.3308(5)
C56_2 C 0.9864(3) 0.51289(19) 0.4535(5)
C57_2 C 0.9230(3) 0.50151(19) 0.4028(5)
H23_2 H 0.8981 0.4763 0.4247
C58_2 C 0.8970(3) 0.5278(2) 0.3193(5)
H24_2 H 0.8553 0.5189 0.2854
Cd10_2 Cd 0.90781(2) 0.153325(16) 0.06054(3)
Cd14_2 Cd 0.82350(2) 0.389799(14) 0.18271(3)
Cd15_2 Cd 0.82350(2) 0.110201(14) 0.31729(3)
Cd19_2 Cd 0.86493(2) 0.614014(15) 0.17811(3)
O25_2 O 0.0268(2) 0.14765(15) 0.0251(4)
O27 O 0.1533(3) 0.0613(2) 0.5559(4)
O28 O 0.2616(4) 0.04759(17) 0.6211(4)
C45_2 C 0.1121(3) 0.09430(19) 0.0814(4)
C46_2 C 0.0398(3) 0.1155(2) 0.0858(5)
C47_2 C 0.1355(3) 0.06414(19) 0.1589(4)
H18_2 H 0.1051 0.0561 0.2147
C48_2 C 0.2037(3) 0.04565(17) 0.1552(4)
C49_2 C 0.2468(3) 0.05580(18) 0.0660(4)
H19_2 H 0.2920 0.0436 0.0608
C50_2 C 0.2296(3) 0.01983(18) 0.2508(4)
C51_2 C 0.2117(3) 0.03883(19) 0.3513(5)
H20_2 H 0.1860 0.0653 0.3520
C52_2 C 0.2308(3) 0.0199(2) 0.4488(4)
C53_2 C 0.2139(5) 0.0441(2) 0.5511(5)
N2_3 N 0.5713(3) 0.06541(17) 0.2151(4)
C54_3 C 0.5087(3) 0.0754(2) 0.1692(5)
H21_3 H 0.4844 0.1005 0.1934
C55_3 C 0.4784(3) 0.0503(2) 0.0876(5)
H22_3 H 0.4344 0.0584 0.0600
C56_3 C 0.5136(3) 0.01289(19) 0.0465(5)
C57_3 C 0.5770(3) 0.00151(19) 0.0972(5)
C58_3 C 0.6030(3) 0.0278(2) 0.1807(5)
H24_3 H 0.6447 0.0189 0.2146
Cd19_3 Cd 0.63507(2) 0.114014(15) 0.32189(3)
H25 H 0.404319 0.233446 0.0662262
H26 H 0.479384 0.233797 0.00235516
H11_3 H 0.3981 0.0237 0.9247
O23_2 O 0.2334(2) 0.11000(14) 0.8055(3)
O24_2 O 0.3315(2) 0.08856(14) 0.8878(3)
C42_2 C 0.2653(3) 0.09500(17) 0.8880(4)
C43_2 C 0.2217(3) 0.08442(18) 0.9846(4)
C44_2 C 0.1555(3) 0.10446(18) 0.9947(4)
H17_2 H 0.1403 0.1248 0.9431
O29_2 O 0.4276(3) 0.22837(17) 0.9955(4)
O30_2 O 0.4289(3) 0.0752(3) 0.6716(5)
O31_2 O 0.1165(3) 0.18029(18) 0.7574(5)
O32_2 O 0.0337(4) 0.1336(3) 0.5799(7)
O39_2 O 0.3791(2) 0.16794(13) 0.7663(3)
O41_2 O 0.5268(2) 0.14765(15) 0.9749(4)
O43_2 O 0.4928(2) 0.09885(17) 0.8544(4)
N3_2 N 0.0713(3) 0.06541(17) 0.7849(4)
H27_2 H 0.040355 0.16364 0.547832
H28_2 H 0.0258419 0.111473 0.521593
H29_2 H 0.421223 0.0424497 0.671016
H30_2 H 0.453377 0.0842953 0.604238
H31_2 H 0.159068 0.199403 0.747922
H32_2 H 0.0747802 0.195006 0.723877
O9_2 O 0.4732(2) 0.85235(15) 0.0251(4)
O10_2 O 0.5072(2) 0.90115(17) 0.1456(4)
O11 O 0.3467(3) 0.9387(2) 0.5559(4)
O12 O 0.2384(4) 0.95241(17) 0.6211(4)
C16_2 C 0.3879(3) 0.90570(19) 0.0814(4)
C17_2 C 0.4602(3) 0.8845(2) 0.0858(5)
C18_2 C 0.3645(3) 0.93586(19) 0.1589(4)
H6_2 H 0.3949 0.9439 0.2147
C19_2 C 0.2963(3) 0.95435(17) 0.1552(4)
C20_2 C 0.2532(3) 0.94420(18) 0.0660(4)
H7_2 H 0.2080 0.9564 0.0608
C21_2 C 0.2704(3) 0.98017(18) 0.2508(4)
C22_2 C 0.2883(3) 0.96117(19) 0.3513(5)
H8_2 H 0.3140 0.9347 0.3520
C23_2 C 0.2692(3) 0.9801(2) 0.4488(4)
C24_2 C 0.2861(5) 0.9559(2) 0.5511(5)
H23_3 H 0.6019 0.9763 0.0753
H35 H 0.0817458 0.768996 0.0739898
O7_2 O 0.2666(2) 0.89000(14) 0.8055(3)
O8_2 O 0.1685(2) 0.91144(14) 0.8878(3)
O13_2 O 0.0724(3) 0.77163(17) 0.9955(4)
O14_2 O 0.0711(3) 0.9248(3) 0.6716(5)
O15_2 O 0.3835(3) 0.81971(18) 0.7574(5)
O16_2 O 0.4663(4) 0.8664(3) 0.5799(7)
N1_2 N 0.4287(3) 0.93459(17) 0.7849(4)
C13_2 C 0.2347(3) 0.90500(17) 0.8880(4)
C14_2 C 0.2783(3) 0.91558(18) 0.9846(4)
C15_2 C 0.3445(3) 0.89554(18) 0.9947(4)
H5_2 H 0.3597 0.8752 0.9431
C25_3 C 0.4913(3) 0.9246(2) 0.8308(5)
H9_3 H 0.5156 0.8995 0.8066
C26_3 C 0.5216(3) 0.9497(2) 0.9124(5)
H10_3 H 0.5656 0.9416 0.9400
C27_3 C 0.4864(3) 0.98711(19) 0.9535(5)
C28_3 C 0.4230(3) 0.99849(19) 0.9028(5)
C29_3 C 0.3970(3) 0.9722(2) 0.8193(5)
H12_3 H 0.3553 0.9811 0.7854
O40_2 O 0.1209(2) 0.83206(13) 0.7663(3)
O44_2 O 0.0072(2) 0.90115(17) 0.8544(4)
H33_2 H 0.459645 0.83636 0.547832
H34_2 H 0.474158 0.888527 0.521593
H36 H 0.0224239 0.763206 0.98038
H37_2 H 0.340932 0.800597 0.747922
H38_2 H 0.42522 0.804994 0.723877
H39_2 H 0.0787766 0.95755 0.671016
H40_2 H 0.0466225 0.915705 0.604238
O26_2 O 0.9928(2) 0.09885(17) 0.1456(4)
O42_2 O 0.9732(2) 0.85235(15) 0.9749(4)
H35_2 H 0.418254 0.231004 0.0739898
C25_4 C 0.0087(3) 0.0754(2) 0.8308(5)
C27_4 C 0.0136(3) 0.01289(19) 0.9535(5)
C28_4 C 0.0770(3) 0.00151(19) 0.9028(5)
C29_4 C 0.1030(3) 0.0278(2) 0.8193(5)
H12_4 H 0.1447 0.0189 0.7854
H36_2 H 0.477576 0.236794 0.98038
H21_4 H 0.0156 0.8995 0.1934
C55_4 C 0.0216(3) 0.9497(2) 0.0876(5)
H22_4 H 0.0656 0.9416 0.0600
H25_2 H 0.0956809 0.766554 0.0662262
H26_2 H 0.0206163 0.766203 0.00235516
H11_4 H 0.1019 0.9763 0.9247
H23_4 H 0.8981 0.0237 0.0753
H9_4 H 0.9844 0.1005 0.8066
C26_4 C 0.9784(3) 0.0503(2) 0.9124(5)
H10_4 H 0.9344 0.0584 0.9400
N2_4 N 0.9287(3) 0.93459(17) 0.2151(4)
C54_4 C 0.9913(3) 0.9246(2) 0.1692(5)
C56_4 C 0.9864(3) 0.98711(19) 0.0465(5)
C57_4 C 0.9230(3) 0.99849(19) 0.0972(5)
C58_4 C 0.8970(3) 0.9722(2) 0.1807(5)
H24_4 H 0.8553 0.9811 0.2146
Cd19_4 Cd 0.86493(2) 0.885986(15) 0.32189(3)
O3 O 0.8228(2) 0.37219(16) 0.0066(3)
O4 O 0.7220(2) 0.34823(15) 0.0767(3)
O11_2 O 0.6533(3) 0.4387(2) 0.0559(4)
O12_2 O 0.7616(4) 0.45241(17) 0.1211(4)
C24_3 C 0.7139(5) 0.4559(2) 0.0511(5)
O27_2 O 0.8467(3) 0.5613(2) 0.0559(4)
O28_2 O 0.7384(4) 0.54759(17) 0.1211(4)
C53_3 C 0.7861(5) 0.5441(2) 0.0511(5)
O1_2 O 0.7954(2) 0.32235(14) 0.5109(3)
O2_2 O 0.8721(2) 0.35525(17) 0.6178(4)
O6_3 O 0.3523(2) 0.28193(17) 0.8572(4)
O7_3 O 0.7334(2) 0.39000(14) 0.3055(3)
O8_3 O 0.8315(2) 0.41144(14) 0.3878(3)
O13_3 O 0.9276(3) 0.27163(17) 0.4955(4)
O14_3 O 0.9289(3) 0.4248(3) 0.1716(5)
O15_3 O 0.6165(3) 0.31971(18) 0.2574(5)
O16_3 O 0.5337(4) 0.3664(3) 0.0799(7)
C1_3 C 0.8132(3) 0.3351(2) 0.6030(5)
C2_3 C 0.7661(3) 0.3279(2) 0.6981(4)
C3_3 C 0.7020(3) 0.30418(19) 0.6870(4)
H1_3 H 0.6895 0.2924 0.6203
C4_3 C 0.6572(3) 0.29823(18) 0.7750(4)
C5_3 C 0.6767(3) 0.31510(19) 0.8754(5)
H2_3 H 0.6467 0.3114 0.9342
C6_3 C 0.7408(3) 0.33744(18) 0.8881(4)
C7_3 C 0.7848(3) 0.34390(19) 0.7994(5)
H3_3 H 0.8274 0.3592 0.8079
C8_3 C 0.7627(3) 0.35367(18) 0.9977(5)
C9_3 C 0.5887(3) 0.27258(18) 0.7625(4)
C10_3 C 0.5244(3) 0.29487(18) 0.7760(4)
H4_3 H 0.5245 0.3250 0.7940
C11_3 C 0.4603(3) 0.27286(17) 0.7629(4)
C12_3 C 0.3914(3) 0.29652(19) 0.7870(5)
C13_3 C 0.7653(3) 0.40500(17) 0.3880(4)
C14_3 C 0.7217(3) 0.41558(18) 0.4846(4)
C15_3 C 0.6555(3) 0.39554(18) 0.4947(4)
H5_3 H 0.6403 0.3752 0.4431
C16_3 C 0.6121(3) 0.40570(19) 0.5814(4)
C17_3 C 0.5398(3) 0.3845(2) 0.5858(5)
C18_3 C 0.6355(3) 0.43586(19) 0.6589(4)
H6_3 H 0.6051 0.4439 0.7147
C19_3 C 0.7037(3) 0.45435(17) 0.6552(4)
C20_3 C 0.7468(3) 0.44420(18) 0.5660(4)
H7_3 H 0.7920 0.4564 0.5608
C21_3 C 0.7296(3) 0.48017(18) 0.7508(4)
C22_3 C 0.7117(3) 0.46117(19) 0.8513(5)
H8_3 H 0.6860 0.4347 0.8520
C23_3 C 0.7308(3) 0.4801(2) 0.9488(4)
O17_3 O 0.7954(2) 0.17765(14) 0.9891(3)
O18_3 O 0.8721(2) 0.14475(17) 0.8822(4)
O19_3 O 0.8228(2) 0.12781(16) 0.4934(3)
O20_3 O 0.7220(2) 0.15177(15) 0.4233(3)
O22_3 O 0.3523(2) 0.21807(17) 0.6428(4)
C30_3 C 0.8132(3) 0.1649(2) 0.8970(5)
C31_3 C 0.7661(3) 0.1721(2) 0.8019(4)
C32_3 C 0.7020(3) 0.19582(19) 0.8130(4)
H13_3 H 0.6895 0.2076 0.8797
C33_3 C 0.6572(3) 0.20177(18) 0.7250(4)
C34_3 C 0.6767(3) 0.18490(19) 0.6246(5)
H14_3 H 0.6467 0.1886 0.5658
C35_3 C 0.7408(3) 0.16256(18) 0.6119(4)
C36_3 C 0.7848(3) 0.15610(19) 0.7006(5)
H15_3 H 0.8274 0.1408 0.6921
C37_3 C 0.7627(3) 0.14633(18) 0.5023(5)
C38_3 C 0.5887(3) 0.22742(18) 0.7375(4)
C39_3 C 0.5244(3) 0.20513(18) 0.7240(4)
H16_3 H 0.5245 0.1750 0.7060
C40_3 C 0.4603(3) 0.22714(17) 0.7371(4)
C41_3 C 0.3914(3) 0.20348(19) 0.7130(5)
O23_3 O 0.7666(2) 0.61000(14) 0.3055(3)
O24_3 O 0.6685(2) 0.58856(14) 0.3878(3)
C42_3 C 0.7347(3) 0.59500(17) 0.3880(4)
C43_3 C 0.7783(3) 0.58442(18) 0.4846(4)
C44_3 C 0.8445(3) 0.60446(18) 0.4947(4)
H17_3 H 0.8597 0.6248 0.4431
C45_3 C 0.8879(3) 0.59430(19) 0.5814(4)
C46_3 C 0.9602(3) 0.6155(2) 0.5858(5)
C47_3 C 0.8645(3) 0.56414(19) 0.6589(4)
H18_3 H 0.8949 0.5561 0.7147
C48_3 C 0.7963(3) 0.54565(17) 0.6552(4)
C49_3 C 0.7532(3) 0.55580(18) 0.5660(4)
H19_3 H 0.7080 0.5436 0.5608
C50_3 C 0.7704(3) 0.51983(18) 0.7508(4)
C51_3 C 0.7883(3) 0.53883(19) 0.8513(5)
H20_3 H 0.8140 0.5653 0.8520
C52_3 C 0.7692(3) 0.5199(2) 0.9488(4)
O29_3 O 0.5724(3) 0.72837(17) 0.4955(4)
O30_3 O 0.5711(3) 0.5752(3) 0.1716(5)
O31_3 O 0.8835(3) 0.68029(18) 0.2574(5)
O32_3 O 0.9663(4) 0.6336(3) 0.0799(7)
O33_2 O 0.7046(2) 0.67765(14) 0.5109(3)
O34_2 O 0.6279(2) 0.64475(17) 0.6178(4)
O36_2 O 0.6772(2) 0.62781(16) 0.0066(3)
O38_2 O 0.7780(2) 0.65177(15) 0.0767(3)
H27_3 H 0.959645 0.66364 0.0478316
H28_3 H 0.974158 0.611473 0.0215933
H29_3 H 0.578777 0.54245 0.171016
H30_3 H 0.546623 0.584295 0.104238
H31_3 H 0.840932 0.699403 0.247922
H32_3 H 0.92522 0.695006 0.223877
H33_3 H 0.540355 0.33636 0.0478316
H34_3 H 0.525842 0.388527 0.0215933
H37_3 H 0.659068 0.300597 0.247922
H38_3 H 0.57478 0.304994 0.223877
H39_3 H 0.921223 0.45755 0.171016
H40_3 H 0.953377 0.415705 0.104238
O6_4 O 0.1477(2) 0.71807(17) 0.8572(4)
C11_4 C 0.0397(3) 0.72714(17) 0.7629(4)
C12_4 C 0.1086(3) 0.70348(19) 0.7870(5)
O22_4 O 0.1477(2) 0.78193(17) 0.6428(4)
C40_4 C 0.0397(3) 0.77286(17) 0.7371(4)
C41_4 C 0.1086(3) 0.79652(19) 0.7130(5)
C1_4 C 0.6868(3) 0.6649(2) 0.6030(5)
C2_4 C 0.7339(3) 0.6721(2) 0.6981(4)
C3_4 C 0.7980(3) 0.69582(19) 0.6870(4)
H1_4 H 0.8105 0.7076 0.6203
C4_4 C 0.8428(3) 0.70177(18) 0.7750(4)
C5_4 C 0.8233(3) 0.68490(19) 0.8754(5)
H2_4 H 0.8533 0.6886 0.9342
C6_4 C 0.7592(3) 0.66256(18) 0.8881(4)
C7_4 C 0.7152(3) 0.65610(19) 0.7994(5)
H3_4 H 0.6726 0.6408 0.8079
C8_4 C 0.7373(3) 0.64633(18) 0.9977(5)
C9_4 C 0.9113(3) 0.72742(18) 0.7625(4)
C10_4 C 0.9756(3) 0.70513(18) 0.7760(4)
H4_4 H 0.9755 0.6750 0.7940
O17_4 O 0.7046(2) 0.82235(14) 0.9891(3)
O18_4 O 0.6279(2) 0.85525(17) 0.8822(4)
O19_4 O 0.6772(2) 0.87219(16) 0.4934(3)
O20_4 O 0.7780(2) 0.84823(15) 0.4233(3)
C30_4 C 0.6868(3) 0.8351(2) 0.8970(5)
C31_4 C 0.7339(3) 0.8279(2) 0.8019(4)
C32_4 C 0.7980(3) 0.80418(19) 0.8130(4)
H13_4 H 0.8105 0.7924 0.8797
C33_4 C 0.8428(3) 0.79823(18) 0.7250(4)
C34_4 C 0.8233(3) 0.81510(19) 0.6246(5)
H14_4 H 0.8533 0.8114 0.5658
C35_4 C 0.7592(3) 0.83744(18) 0.6119(4)
C36_4 C 0.7152(3) 0.84390(19) 0.7006(5)
H15_4 H 0.6726 0.8592 0.6921
C37_4 C 0.7373(3) 0.85367(18) 0.5023(5)
C38_4 C 0.9113(3) 0.77258(18) 0.7375(4)
C39_4 C 0.9756(3) 0.79487(18) 0.7240(4)
H16_4 H 0.9755 0.8250 0.7060
O7_4 O 0.7334(2) 0.11000(14) 0.1945(3)
O8_4 O 0.8315(2) 0.08856(14) 0.1122(3)
O13_4 O 0.9276(3) 0.22837(17) 0.0045(4)
O14_4 O 0.9289(3) 0.0752(3) 0.3284(5)
O15_4 O 0.6165(3) 0.18029(18) 0.2426(5)
O16_4 O 0.5337(4) 0.1336(3) 0.4201(7)
C13_4 C 0.7653(3) 0.09500(17) 0.1120(4)
C14_4 C 0.7217(3) 0.08442(18) 0.0154(4)
C15_4 C 0.6555(3) 0.10446(18) 0.0053(4)
H5_4 H 0.6403 0.1248 0.0569
O45_2 O 0.6533(3) 0.0613(2) 0.4441(4)
O47_2 O 0.7616(4) 0.04759(17) 0.3789(4)
H33_4 H 0.540355 0.16364 0.452168
H34_4 H 0.525842 0.111473 0.478407
H36_3 H 0.977576 0.236794 0.0196202
H37_4 H 0.659068 0.199403 0.252078
H38_4 H 0.57478 0.195006 0.276123
H39_4 H 0.921223 0.0424497 0.328984
H40_4 H 0.953377 0.0842953 0.395762
C16_4 C 0.6121(3) 0.09430(19) 0.9186(4)
C17_4 C 0.5398(3) 0.1155(2) 0.9142(5)
C18_4 C 0.6355(3) 0.06414(19) 0.8411(4)
H6_4 H 0.6051 0.0561 0.7853
C19_4 C 0.7037(3) 0.04565(17) 0.8448(4)
C20_4 C 0.7468(3) 0.05580(18) 0.9340(4)
H7_4 H 0.7920 0.0436 0.9392
C21_4 C 0.7296(3) 0.01983(18) 0.7492(4)
C22_4 C 0.7117(3) 0.03883(19) 0.6487(5)
H8_4 H 0.6860 0.0653 0.6480
C23_4 C 0.7308(3) 0.0199(2) 0.5512(4)
C24_4 C 0.7139(5) 0.0441(2) 0.4489(5)
H35_3 H 0.918254 0.231004 0.92601
O23_4 O 0.7666(2) 0.89000(14) 0.1945(3)
O24_4 O 0.6685(2) 0.91144(14) 0.1122(3)
C42_4 C 0.7347(3) 0.90500(17) 0.1120(4)
C43_4 C 0.7783(3) 0.91558(18) 0.0154(4)
C44_4 C 0.8445(3) 0.89554(18) 0.0053(4)
H17_4 H 0.8597 0.8752 0.0569
O29_4 O 0.5724(3) 0.77163(17) 0.0045(4)
O30_4 O 0.5711(3) 0.9248(3) 0.3284(5)
O31_4 O 0.8835(3) 0.81971(18) 0.2426(5)
O32_4 O 0.9663(4) 0.8664(3) 0.4201(7)
O46_2 O 0.8467(3) 0.9387(2) 0.4441(4)
O48_2 O 0.7384(4) 0.95241(17) 0.3789(4)
H27_4 H 0.959645 0.83636 0.452168
H28_4 H 0.974158 0.888527 0.478407
H29_4 H 0.578777 0.95755 0.328984
H30_4 H 0.546623 0.915705 0.395762
H31_4 H 0.840932 0.800597 0.252078
H32_4 H 0.92522 0.804994 0.276123
C45_4 C 0.8879(3) 0.90570(19) 0.9186(4)
C46_4 C 0.9602(3) 0.8845(2) 0.9142(5)
C47_4 C 0.8645(3) 0.93586(19) 0.8411(4)
H18_4 H 0.8949 0.9439 0.7853
C48_4 C 0.7963(3) 0.95435(17) 0.8448(4)
C49_4 C 0.7532(3) 0.94420(18) 0.9340(4)
H19_4 H 0.7080 0.9564 0.9392
C50_4 C 0.7704(3) 0.98017(18) 0.7492(4)
C51_4 C 0.7883(3) 0.96117(19) 0.6487(5)
H20_4 H 0.8140 0.9347 0.6480
C52_4 C 0.7692(3) 0.9801(2) 0.5512(4)
C53_4 C 0.7861(5) 0.9559(2) 0.4489(5)
H25_3 H 0.595681 0.766554 0.933774
H26_3 H 0.520616 0.766203 0.997645
H25_4 H 0.904319 0.233446 0.933774
H26_4 H 0.979384 0.233797 0.997645
H36_4 H 0.522424 0.763206 0.0196202
H35_4 H 0.581746 0.768996 0.92601
loop_
_geom_bond_atom_site_label_1
_geom_bond_atom_site_label_2
_geom_bond_site_symmetry_1
_geom_bond_site_symmetry_2
Cd1 O1 1_555 1_555
Cd2 O7 1_555 1_555
Cd3 O7 1_555 1_555
O1 C1 1_555 1_555
O2 Cd1 1_555 1_555
O5 C12 1_555 1_555
O6 C12 1_555 1_555
O7 C13 1_555 1_555
O8 Cd1 1_555 1_555
O9 C17 1_555 1_555
O10 C17 1_555 1_555
O13 Cd1 1_555 1_555
O14 Cd2 1_555 1_555
O15 Cd3 1_555 1_555
O16 Cd3 1_555 1_555
N1 Cd3 1_555 1_555
C1 O2 1_555 1_555
C2 C1 1_555 1_555
C3 C2 1_555 1_555
H1 C3 1_555 1_555
C4 C3 1_555 1_555
C5 C4 1_555 1_555
H2 C5 1_555 1_555
C6 C5 1_555 1_555
C7 C2 1_555 1_555
H3 C7 1_555 1_555
C8 C6 1_555 1_555
C9 C4 1_555 1_555
C10 C9 1_555 1_555
H4 C10 1_555 1_555
C11 C10 1_555 1_555
C12 C11 1_555 1_555
C13 O8 1_555 1_555
C14 C13 1_555 1_555
C15 C14 1_555 1_555
H5 C15 1_555 1_555
C16 C15 1_555 1_555
C17 C16 1_555 1_555
C18 C16 1_555 1_555
H6 C18 1_555 1_555
C19 C18 1_555 1_555
C20 C14 1_555 1_555
H7 C20 1_555 1_555
C21 C19 1_555 1_555
C22 C21 1_555 1_555
H8 C22 1_555 1_555
C23 C22 1_555 1_555
C25 N1 1_555 1_555
H9 C25 1_555 1_555
C26 C25 1_555 1_555
H10 C26 1_555 1_555
C27 C26 1_555 1_555
C28 C27 1_555 1_555
H11 C28 1_555 1_555
C29 N1 1_555 1_555
H12 C29 1_555 1_555
O17 C30 1_555 1_555
O18 C30 1_555 1_555
O19 C37 1_555 1_555
O20 C37 1_555 1_555
O21 C41 1_555 1_555
O22 C41 1_555 1_555
C30 C31 1_555 1_555
C31 C32 1_555 1_555
C32 H13 1_555 1_555
C33 C32 1_555 1_555
C34 C33 1_555 1_555
H14 C34 1_555 1_555
C35 C34 1_555 1_555
C36 C31 1_555 1_555
H15 C36 1_555 1_555
C37 C35 1_555 1_555
C38 C9 1_555 1_555
C39 C38 1_555 1_555
H16 C39 1_555 1_555
C40 C11 1_555 1_555
C41 C40 1_555 1_555
O23 C42 1_555 1_555
O24 C42 1_555 1_555
O25 C46 1_555 1_555
C42 C43 1_555 1_555
C43 C44 1_555 1_555
C44 H17 1_555 1_555
C45 C44 1_555 1_555
C46 C45 1_555 1_555
C47 C45 1_555 1_555
H18 C47 1_555 1_555
C48 C47 1_555 1_555
C49 C43 1_555 1_555
H19 C49 1_555 1_555
C50 C21 1_555 1_555
C51 C50 1_555 1_555
H20 C51 1_555 1_555
C52 C23 1_555 1_555
N2 C54 1_555 1_555
C54 H21 1_555 1_555
C55 C54 1_555 1_555
H22 C55 1_555 1_555
C56 C27 1_555 1_555
C57 C56 1_555 1_555
H23 C57 1_555 1_555
C58 N2 1_555 1_555
H24 C58 1_555 1_555
Cd4 O24 1_555 1_555
Cd5 O23 1_555 1_555
Cd6 O23 1_555 1_555
O29 Cd4 1_555 1_555
O30 Cd5 1_555 1_555
O31 Cd6 1_555 1_555
O32 Cd6 1_555 1_555
Cd9 O5 1_555 1_555
Cd10 O21 1_555 1_555
Cd13 O19 1_555 1_555
Cd14 O5 1_555 1_555
Cd15 O21 1_555 1_555
Cd18 O20 1_555 1_555
Cd19 N2 1_555 1_555
O33 Cd4 1_555 1_555
O34 Cd4 1_555 1_555
O35 Cd2 1_555 1_555
O36 Cd5 1_555 1_555
O37 Cd2 1_555 1_555
O38 Cd5 1_555 1_555
O39 Cd4 1_555 1_555
O40 Cd1 1_555 1_555
O41 Cd4 1_555 1_555
O43 Cd4 1_555 1_555
O44 Cd1 1_555 1_555
O45 Cd3 1_555 1_555
O46 Cd6 1_555 1_555
O47 Cd2 1_555 1_555
O48 Cd5 1_555 1_555
N3 Cd6 1_555 1_555
Cd2 O8 1_555 1_555
Cd2 O40 1_555 1_555
Cd3 O37 1_555 1_555
O9 Cd9 1_555 1_555
O10 Cd9 1_555 1_555
C6 C7 1_555 1_555
C19 C20 1_555 1_555
C28 C29 1_555 1_555
O20 Cd13 1_555 1_555
C33 C38 1_555 1_555
C35 C36 1_555 1_555
C39 C40 1_555 1_555
O24 Cd5 1_555 1_555
C48 C49 1_555 1_555
C48 C50 1_555 1_555
C51 C52 1_555 1_555
C55 C56 1_555 1_555
C57 C58 1_555 1_555
Cd5 O39 1_555 1_555
Cd6 O38 1_555 1_555
O32 H27 1_555 1_555
O32 H28 1_555 1_555
O30 H29 1_555 1_555
O30 H30 1_555 1_555
O31 H31 1_555 1_555
O31 H32 1_555 1_555
O16 H33 1_555 1_555
O16 H34 1_555 1_555
O15 H37 1_555 1_555
O15 H38 1_555 1_555
O14 H39 1_555 1_555
O14 H40 1_555 1_555
O45 C24 1_555 1_555
O47 C24 1_555 1_555
O46 C53 1_555 1_555
O48 C53 1_555 1_555
O26 Cd8 1_555 1_555
O33 C1_2 1_555 1_555
C1_2 O34 1_555 1_555
C2_2 C1_2 1_555 1_555
C3_2 C2_2 1_555 1_555
H1_2 C3_2 1_555 1_555
C4_2 C3_2 1_555 1_555
C5_2 C4_2 1_555 1_555
H2_2 C5_2 1_555 1_555
C6_2 C5_2 1_555 1_555
C7_2 C2_2 1_555 1_555
H3_2 C7_2 1_555 1_555
C8_2 C6_2 1_555 1_555
C9_2 C4_2 1_555 1_555
C10_2 C9_2 1_555 1_555
H4_2 C10_2 1_555 1_555
C25_2 N3 1_555 1_555
C28_2 C27_2 1_555 1_555
H11_2 C28_2 1_555 1_555
C29_2 N3 1_555 1_555
H12_2 C29_2 1_555 1_555
O17_2 C30_2 1_555 1_555
O18_2 C30_2 1_555 1_555
O19_2 C37_2 1_555 1_555
O20_2 C37_2 1_555 1_555
C30_2 C31_2 1_555 1_555
C31_2 C32_2 1_555 1_555
C32_2 H13_2 1_555 1_555
C33_2 C32_2 1_555 1_555
C34_2 C33_2 1_555 1_555
H14_2 C34_2 1_555 1_555
C35_2 C34_2 1_555 1_555
C36_2 C31_2 1_555 1_555
H15_2 C36_2 1_555 1_555
C37_2 C35_2 1_555 1_555
C38_2 C9_2 1_555 1_555
C39_2 C38_2 1_555 1_555
H16_2 C39_2 1_555 1_555
H22_2 C55_2 1_555 1_555
Cd13_2 O19_2 1_555 1_555
Cd18_2 O20_2 1_555 1_555
C6_2 C7_2 1_555 1_555
C28_2 C29_2 1_555 1_555
O20_2 Cd13_2 1_555 1_555
C33_2 C38_2 1_555 1_555
C35_2 C36_2 1_555 1_555
O5_2 C12_2 1_555 1_555
O6_2 C12_2 1_555 1_555
C12_2 C11_2 1_555 1_555
H10_2 C26_2 1_555 1_555
O21_2 C41_2 1_555 1_555
O22_2 C41_2 1_555 1_555
C40_2 C11_2 1_555 1_555
C41_2 C40_2 1_555 1_555
N2_2 C54_2 1_555 1_555
C57_2 C56_2 1_555 1_555
H23_2 C57_2 1_555 1_555
C58_2 N2_2 1_555 1_555
H24_2 C58_2 1_555 1_555
Cd8 O5_2 1_555 1_555
Cd10_2 O21_2 1_555 1_555
Cd14_2 O5_2 1_555 1_555
Cd15_2 O21_2 1_555 1_555
Cd19_2 N2_2 1_555 1_555
C57_2 C58_2 1_555 1_555
O25_2 C46_2 1_555 1_555
O27 C53_2 1_555 1_555
O28 C53_2 1_555 1_555
C46_2 C45_2 1_555 1_555
C47_2 C45_2 1_555 1_555
H18_2 C47_2 1_555 1_555
C48_2 C47_2 1_555 1_555
H19_2 C49_2 1_555 1_555
C51_2 C50_2 1_555 1_555
H20_2 C51_2 1_555 1_555
C53_2 C52_2 1_555 1_555
N2_3 C54_3 1_555 1_555
C54_3 H21_3 1_555 1_555
C55_3 C54_3 1_555 1_555
H22_3 C55_3 1_555 1_555
C57_3 C56_3 1_555 1_555
C58_3 N2_3 1_555 1_555
H24_3 C58_3 1_555 1_555
Cd13_2 O28 1_555 1_555
Cd18_2 O27 1_555 1_555
Cd19_3 N2_3 1_555 1_555
C48_2 C49_2 1_555 1_555
C48_2 C50_2 1_555 1_555
C51_2 C52_2 1_555 1_555
C55_3 C56_3 1_555 1_555
C57_3 C58_3 1_555 1_555
O23_2 C42_2 1_555 1_555
O24_2 C42_2 1_555 1_555
C42_2 C43_2 1_555 1_555
C43_2 C44_2 1_555 1_555
C44_2 H17_2 1_555 1_555
Cd7_2 O24_2 1_555 1_555
Cd13_2 O23_2 1_555 1_555
Cd18_2 O23_2 1_555 1_555
O29_2 Cd7_2 1_555 1_555
O30_2 Cd13_2 1_555 1_555
O31_2 Cd18_2 1_555 1_555
O32_2 Cd18_2 1_555 1_555
O39_2 Cd7_2 1_555 1_555
O41_2 Cd7_2 1_555 1_555
O43_2 Cd7_2 1_555 1_555
N3_2 Cd18_2 1_555 1_555
O24_2 Cd13_2 1_555 1_555
Cd13_2 O39_2 1_555 1_555
O32_2 H27_2 1_555 1_555
O32_2 H28_2 1_555 1_555
O30_2 H29_2 1_555 1_555
O30_2 H30_2 1_555 1_555
O31_2 H31_2 1_555 1_555
O31_2 H32_2 1_555 1_555
O9_2 C17_2 1_555 1_555
O10_2 C17_2 1_555 1_555
O11 C24_2 1_555 1_555
O12 C24_2 1_555 1_555
C17_2 C16_2 1_555 1_555
C18_2 C16_2 1_555 1_555
H6_2 C18_2 1_555 1_555
C19_2 C18_2 1_555 1_555
H7_2 C20_2 1_555 1_555
C21_2 C19_2 1_555 1_555
C22_2 C21_2 1_555 1_555
H8_2 C22_2 1_555 1_555
C23_2 C22_2 1_555 1_555
C24_2 C23_2 1_555 1_555
O9_2 Cd10 1_555 1_555
O10_2 Cd10 1_555 1_555
O11 Cd18 1_555 1_555
O12 Cd13 1_555 1_555
C19_2 C20_2 1_555 1_555
Cd13 O7_2 1_555 1_555
Cd18 O7_2 1_555 1_555
O7_2 C13_2 1_555 1_555
O8_2 Cd7 1_555 1_555
O13_2 Cd7 1_555 1_555
O14_2 Cd13 1_555 1_555
O15_2 Cd18 1_555 1_555
O16_2 Cd18 1_555 1_555
N1_2 Cd18 1_555 1_555
C13_2 O8_2 1_555 1_555
C14_2 C13_2 1_555 1_555
C15_2 C14_2 1_555 1_555
H5_2 C15_2 1_555 1_555
C25_3 N1_2 1_555 1_555
H9_3 C25_3 1_555 1_555
C26_3 C25_3 1_555 1_555
H10_3 C26_3 1_555 1_555
C27_3 C26_3 1_555 1_555
C28_3 C27_3 1_555 1_555
C29_3 N1_2 1_555 1_555
H12_3 C29_3 1_555 1_555
O40_2 Cd7 1_555 1_555
O44_2 Cd7 1_555 1_555
Cd13 O8_2 1_555 1_555
Cd13 O40_2 1_555 1_555
C28_3 C29_3 1_555 1_555
O16_2 H33_2 1_555 1_555
O16_2 H34_2 1_555 1_555
O13_2 H36 1_555 1_555
O15_2 H37_2 1_555 1_555
O15_2 H38_2 1_555 1_555
O14_2 H39_2 1_555 1_555
O14_2 H40_2 1_555 1_555
O26_2 Cd10_2 1_555 1_555
C25_4 N3_2 1_555 1_555
C28_4 C27_4 1_555 1_555
C29_4 N3_2 1_555 1_555
H12_4 C29_4 1_555 1_555
C28_4 C29_4 1_555 1_555
O29_2 H36_2 1_555 1_555
H22_4 C55_4 1_555 1_555
H10_4 C26_4 1_555 1_555
N2_4 C54_4 1_555 1_555
C57_4 C56_4 1_555 1_555
C58_4 N2_4 1_555 1_555
H24_4 C58_4 1_555 1_555
Cd19_4 N2_4 1_555 1_555
C57_4 C58_4 1_555 1_555
O11_2 C24_3 1_555 1_555
O12_2 C24_3 1_555 1_555
O27_2 C53_3 1_555 1_555
O28_2 C53_3 1_555 1_555
Cd14_2 O3 1_555 1_555
Cd14 O28_2 1_555 1_555
Cd19 O4 1_555 1_555
Cd19_2 O27_2 1_555 1_555
O4 Cd14_2 1_555 1_555
O11_2 Cd19 1_555 1_555
O12_2 Cd14_2 1_555 1_555
Cd8 O1_2 1_555 1_555
Cd14_2 O7_3 1_555 1_555
Cd19 O7_3 1_555 1_555
O1_2 C1_3 1_555 1_555
O2_2 Cd8 1_555 1_555
O39 C12_3 1_555 1_555
O6_3 C12_3 1_555 1_555
O7_3 C13_3 1_555 1_555
O8_3 Cd8 1_555 1_555
O41 C17_3 1_555 1_555
O43 C17_3 1_555 1_555
O13_3 Cd8 1_555 1_555
O14_3 Cd14_2 1_555 1_555
O15_3 Cd19 1_555 1_555
O16_3 Cd19 1_555 1_555
C1_3 O2_2 1_555 1_555
C2_3 C1_3 1_555 1_555
C3_3 C2_3 1_555 1_555
H1_3 C3_3 1_555 1_555
C4_3 C3_3 1_555 1_555
C5_3 C4_3 1_555 1_555
H2_3 C5_3 1_555 1_555
C6_3 C5_3 1_555 1_555
C7_3 C2_3 1_555 1_555
H3_3 C7_3 1_555 1_555
C8_3 C6_3 1_555 1_555
C9_3 C4_3 1_555 1_555
C10_3 C9_3 1_555 1_555
H4_3 C10_3 1_555 1_555
C11_3 C10_3 1_555 1_555
C12_3 C11_3 1_555 1_555
C13_3 O8_3 1_555 1_555
C14_3 C13_3 1_555 1_555
C15_3 C14_3 1_555 1_555
H5_3 C15_3 1_555 1_555
C16_3 C15_3 1_555 1_555
C17_3 C16_3 1_555 1_555
C18_3 C16_3 1_555 1_555
H6_3 C18_3 1_555 1_555
C19_3 C18_3 1_555 1_555
C20_3 C14_3 1_555 1_555
H7_3 C20_3 1_555 1_555
C21_3 C19_3 1_555 1_555
C22_3 C21_3 1_555 1_555
H8_3 C22_3 1_555 1_555
C23_3 C22_3 1_555 1_555
O17_3 C30_3 1_555 1_555
O18_3 C30_3 1_555 1_555
O19_3 C37_3 1_555 1_555
O20_3 C37_3 1_555 1_555
O39_2 C41_3 1_555 1_555
O22_3 C41_3 1_555 1_555
C30_3 C31_3 1_555 1_555
C31_3 C32_3 1_555 1_555
C32_3 H13_3 1_555 1_555
C33_3 C32_3 1_555 1_555
C34_3 C33_3 1_555 1_555
H14_3 C34_3 1_555 1_555
C35_3 C34_3 1_555 1_555
C36_3 C31_3 1_555 1_555
H15_3 C36_3 1_555 1_555
C37_3 C35_3 1_555 1_555
C38_3 C9_3 1_555 1_555
C39_3 C38_3 1_555 1_555
H16_3 C39_3 1_555 1_555
C40_3 C11_3 1_555 1_555
C41_3 C40_3 1_555 1_555
O23_3 C42_3 1_555 1_555
O24_3 C42_3 1_555 1_555
O42 C46_3 1_555 1_555
C42_3 C43_3 1_555 1_555
C43_3 C44_3 1_555 1_555
C44_3 H17_3 1_555 1_555
C45_3 C44_3 1_555 1_555
C46_3 C45_3 1_555 1_555
C47_3 C45_3 1_555 1_555
H18_3 C47_3 1_555 1_555
C48_3 C47_3 1_555 1_555
C49_3 C43_3 1_555 1_555
H19_3 C49_3 1_555 1_555
C50_3 C21_3 1_555 1_555
C51_3 C50_3 1_555 1_555
H20_3 C51_3 1_555 1_555
C52_3 C23_3 1_555 1_555
Cd9 O24_3 1_555 1_555
Cd14 O23_3 1_555 1_555
Cd19_2 O23_3 1_555 1_555
O29_3 Cd9 1_555 1_555
O30_3 Cd14 1_555 1_555
O31_3 Cd19_2 1_555 1_555
O32_3 Cd19_2 1_555 1_555
Cd15_2 O19_3 1_555 1_555
Cd19_3 O20_3 1_555 1_555
O33_2 Cd9 1_555 1_555
O34_2 Cd9 1_555 1_555
O36_2 Cd14 1_555 1_555
O38_2 Cd14 1_555 1_555
Cd14_2 O8_3 1_555 1_555
C6_3 C7_3 1_555 1_555
C19_3 C20_3 1_555 1_555
O20_3 Cd15_2 1_555 1_555
C33_3 C38_3 1_555 1_555
C35_3 C36_3 1_555 1_555
C39_3 C40_3 1_555 1_555
O24_3 Cd14 1_555 1_555
C48_3 C49_3 1_555 1_555
C48_3 C50_3 1_555 1_555
C51_3 C52_3 1_555 1_555
Cd19_2 O38_2 1_555 1_555
O32_3 H27_3 1_555 1_555
O32_3 H28_3 1_555 1_555
O30_3 H29_3 1_555 1_555
O30_3 H30_3 1_555 1_555
O31_3 H31_3 1_555 1_555
O31_3 H32_3 1_555 1_555
O16_3 H33_3 1_555 1_555
O16_3 H34_3 1_555 1_555
O15_3 H37_3 1_555 1_555
O15_3 H38_3 1_555 1_555
O14_3 H39_3 1_555 1_555
O14_3 H40_3 1_555 1_555
O40 C12_4 1_555 1_555
O6_4 C12_4 1_555 1_555
C12_4 C11_4 1_555 1_555
O40_2 C41_4 1_555 1_555
O22_4 C41_4 1_555 1_555
C40_4 C11_4 1_555 1_555
C41_4 C40_4 1_555 1_555
O33_2 C1_4 1_555 1_555
C1_4 O34_2 1_555 1_555
C2_4 C1_4 1_555 1_555
C3_4 C2_4 1_555 1_555
H1_4 C3_4 1_555 1_555
C4_4 C3_4 1_555 1_555
C5_4 C4_4 1_555 1_555
H2_4 C5_4 1_555 1_555
C6_4 C5_4 1_555 1_555
C7_4 C2_4 1_555 1_555
H3_4 C7_4 1_555 1_555
C8_4 C6_4 1_555 1_555
C9_4 C4_4 1_555 1_555
C10_4 C9_4 1_555 1_555
H4_4 C10_4 1_555 1_555
O17_4 C30_4 1_555 1_555
O18_4 C30_4 1_555 1_555
O19_4 C37_4 1_555 1_555
O20_4 C37_4 1_555 1_555
C30_4 C31_4 1_555 1_555
C31_4 C32_4 1_555 1_555
C32_4 H13_4 1_555 1_555
C33_4 C32_4 1_555 1_555
C34_4 C33_4 1_555 1_555
H14_4 C34_4 1_555 1_555
C35_4 C34_4 1_555 1_555
C36_4 C31_4 1_555 1_555
H15_4 C36_4 1_555 1_555
C37_4 C35_4 1_555 1_555
C38_4 C9_4 1_555 1_555
C39_4 C38_4 1_555 1_555
H16_4 C39_4 1_555 1_555
Cd15 O19_4 1_555 1_555
Cd19_4 O20_4 1_555 1_555
C6_4 C7_4 1_555 1_555
O20_4 Cd15 1_555 1_555
C33_4 C38_4 1_555 1_555
C35_4 C36_4 1_555 1_555
Cd15_2 O7_4 1_555 1_555
Cd19_3 O7_4 1_555 1_555
O7_4 C13_4 1_555 1_555
O8_4 Cd10_2 1_555 1_555
O13_4 Cd10_2 1_555 1_555
O14_4 Cd15_2 1_555 1_555
O15_4 Cd19_3 1_555 1_555
O16_4 Cd19_3 1_555 1_555
C13_4 O8_4 1_555 1_555
C14_4 C13_4 1_555 1_555
C15_4 C14_4 1_555 1_555
H5_4 C15_4 1_555 1_555
O45_2 Cd19_3 1_555 1_555
O47_2 Cd15_2 1_555 1_555
Cd15_2 O8_4 1_555 1_555
O16_4 H33_4 1_555 1_555
O16_4 H34_4 1_555 1_555
O13_4 H36_3 1_555 1_555
O15_4 H37_4 1_555 1_555
O15_4 H38_4 1_555 1_555
O14_4 H39_4 1_555 1_555
O14_4 H40_4 1_555 1_555
O41_2 C17_4 1_555 1_555
O43_2 C17_4 1_555 1_555
O45_2 C24_4 1_555 1_555
O47_2 C24_4 1_555 1_555
C17_4 C16_4 1_555 1_555
C18_4 C16_4 1_555 1_555
H6_4 C18_4 1_555 1_555
C19_4 C18_4 1_555 1_555
H7_4 C20_4 1_555 1_555
C21_4 C19_4 1_555 1_555
C22_4 C21_4 1_555 1_555
H8_4 C22_4 1_555 1_555
C23_4 C22_4 1_555 1_555
C24_4 C23_4 1_555 1_555
C19_4 C20_4 1_555 1_555
O23_4 C42_4 1_555 1_555
O24_4 C42_4 1_555 1_555
C42_4 C43_4 1_555 1_555
C43_4 C44_4 1_555 1_555
C44_4 H17_4 1_555 1_555
Cd10 O24_4 1_555 1_555
Cd15 O23_4 1_555 1_555
Cd19_4 O23_4 1_555 1_555
O29_4 Cd10 1_555 1_555
O30_4 Cd15 1_555 1_555
O31_4 Cd19_4 1_555 1_555
O32_4 Cd19_4 1_555 1_555
O46_2 Cd19_4 1_555 1_555
O48_2 Cd15 1_555 1_555
O24_4 Cd15 1_555 1_555
O32_4 H27_4 1_555 1_555
O32_4 H28_4 1_555 1_555
O30_4 H29_4 1_555 1_555
O30_4 H30_4 1_555 1_555
O31_4 H31_4 1_555 1_555
O31_4 H32_4 1_555 1_555
O42_2 C46_4 1_555 1_555
O46_2 C53_4 1_555 1_555
O48_2 C53_4 1_555 1_555
C46_4 C45_4 1_555 1_555
C47_4 C45_4 1_555 1_555
H18_4 C47_4 1_555 1_555
C48_4 C47_4 1_555 1_555
H19_4 C49_4 1_555 1_555
C51_4 C50_4 1_555 1_555
H20_4 C51_4 1_555 1_555
C53_4 C52_4 1_555 1_555
C48_4 C49_4 1_555 1_555
C48_4 C50_4 1_555 1_555
C51_4 C52_4 1_555 1_555
O29_4 H36_4 1_555 1_555

#END
