
###############################################################################
#
# This file contains modified crystal structure data generated from the
# MOF subset of the Cambridge Structural Database (CSD) v543 
# hosted by the Cambridge Crystallographic Data Centre (CCDC).
#
# This work is licensed under the Creative Commons
# Attribution-NonCommercial-ShareAlike 4.0 International License.
# To view a copy of this license, visit
# http://creativecommons.org/licenses/by-nc-sa/4.0/
# or send a letter to
# Creative Commons, PO Box 1866, Mountain View, CA 94042, USA.
#
# CIF created using the CSD Python API on 29 September 2022
# The structure has been converted into the P1 space group
# The structure has a 3D framework
# The original CSD entry IJEVIE is in the triclinic crystal system
# The framework has been calculated to contain at least 10.0% void space
# The void calculation uses a probe of radius 1.32A, grid spacing 0.4
# The framework is charged, counterions have been retained in the structure
# H atom positions have been added when not included in the experimental data
# Generated hydrogen atom positions removed from atoms on special positions
#
###############################################################################

data_IJEVIE
_chemical_formula_moiety         '(C108 H90 Cd12 N4 O56 3-)n'
_symmetry_cell_setting           triclinic
_symmetry_space_group_name_H-M   'P 1'
_symmetry_Int_Tables_number      1
_space_group_name_Hall           'P 1'
loop_
_symmetry_equiv_pos_site_id
_symmetry_equiv_pos_as_xyz
1 x,y,z
_cell_length_a                   10.143(3)
_cell_length_b                   16.127(5)
_cell_length_c                   22.937(7)
_cell_angle_alpha                79.015(7)
_cell_angle_beta                 84.963(9)
_cell_angle_gamma                77.484(9)
_cell_volume                     3591.43
loop_
_atom_site_label
_atom_site_type_symbol
_atom_site_fract_x
_atom_site_fract_y
_atom_site_fract_z
Cd3 Cd 0.42404(8) 0.03628(5) 0.30690(3)
Cd6 Cd 0.5000 0.0000 0.5000
C52 C 0.5339(15) 0.2039(8) 0.2527(7)
H24 H 0.5948 0.1938 0.2209
C53 C 0.6952(18) 0.2760(11) 0.2831(8)
H25 H 0.6773 0.3372 0.2821
H26 H 0.7417 0.2632 0.2466
H27 H 0.7504 0.2472 0.3158
C54 C 0.468(2) 0.2764(15) 0.3362(10)
H28 H 0.4146 0.2339 0.3512
H29 H 0.4104 0.3295 0.3195
H30 H 0.5155 0.2857 0.3680
N2 N 0.5657(13) 0.2459(7) 0.2903(6)
O2 O 0.0335(8) 0.0625(6) 0.1595(4)
O8 O 0.0338(9) 0.4029(7) 0.1162(4)
O26 O 0.5067(13) 0.1194(8) 0.5392(5)
O29 O 0.4268(11) 0.1757(6) 0.2561(5)
O60 O 0.2841(11) 0.0642(9) 0.4788(5)
Cd17 Cd 0.13597(8) 0.44438(6) 0.19551(4)
O63 O 0.3409(10) 0.0482(9) 0.1357(5)
O80 O 0.5472(8) 0.0507(6) 0.3972(4)
O82 O 0.6560(9) 0.0216(7) 0.3140(4)
O84 O 0.1499(9) 0.0750(5) 0.2779(4)
O86 O 0.2379(9) 0.0855(7) 0.3609(4)
Cd1 Cd 0.20449(8) 0.97191(5) 0.21140(3)
Cd4 Cd 0.49880(9) 0.68616(6) 0.23099(4)
Cd5 Cd 0.32378(8) 0.52314(5) 0.28797(3)
Cd6_2 Cd 0.5000 1.0000 0.5000
C25 C 0.2839(11) 0.8691(7) 0.3443(4)
C26 C 0.2443(11) 0.8121(7) 0.4005(4)
C27 C 0.2443(10) 0.7261(7) 0.4031(4)
C28 C 0.2084(12) 0.6776(7) 0.4562(4)
H9 H 0.2070 0.6198 0.4575
C29 C 0.1736(10) 0.7133(7) 0.5086(5)
C30 C 0.1691(10) 0.8010(7) 0.5043(4)
C31 C 0.2021(11) 0.8489(7) 0.4506(4)
H10 H 0.1958 0.9079 0.4479
C32 C 0.2941(11) 0.6798(7) 0.3502(5)
C33 C 0.1434(10) 0.8454(7) 0.5567(4)
C34 C 0.0195(10) 0.8544(7) 0.5905(5)
C35 C 0.0020(11) 0.8989(7) 0.6377(5)
C36 C 0.1057(11) 0.9320(7) 0.6541(5)
H12 H 0.0935 0.9597 0.6868
C37 C 0.2307(11) 0.9232(7) 0.6205(5)
C38 C 0.2488(11) 0.8819(7) 0.5734(5)
H13 H 0.3308 0.8771 0.5514
C39 C 0.3507(12) 0.9524(8) 0.6371(5)
C41 C 0.1579(10) 0.6523(7) 0.5658(4)
C42 C 0.0333(11) 0.6363(7) 0.5894(4)
C43 C 0.0210(11) 0.5769(7) 0.6414(4)
C44 C 0.1353(12) 0.5340(8) 0.6703(5)
H15 H 0.1276 0.4961 0.7059
C45 C 0.2619(11) 0.5460(8) 0.6477(5)
C46 C 0.2725(12) 0.6069(8) 0.5953(4)
H16 H 0.3571 0.6166 0.5803
C47 C 0.3873(12) 0.4969(8) 0.6789(5)
C49 C 0.7278(18) 0.6433(10) 0.1286(7)
H17 H 0.7915 0.6421 0.1557
C50 C 0.670(3) 0.6287(18) 0.0305(9)
H18 H 0.6056 0.5956 0.0503
H20 H 0.6231 0.6858 0.0144
C51 C 0.911(2) 0.6255(15) 0.0551(10)
H21 H 0.9612 0.6299 0.0875
H22 H 0.9208 0.6707 0.0222
H23 H 0.9434 0.5705 0.0432
N1 N 0.7682(14) 0.6339(9) 0.0742(6)
O13 O 0.2117(9) 0.8826(5) 0.3007(3)
O14 O 0.3806(10) 0.9038(6) 0.3472(4)
O15 O 0.3883(10) 0.7053(6) 0.3184(4)
O16 O 0.2341(10) 0.6217(6) 0.3447(4)
O17 O 0.4528(8) 0.9493(6) 0.6028(4)
O18 O 0.3440(9) 0.9784(7) 0.6860(4)
O21 O 0.4955(8) 0.5197(7) 0.6596(4)
O22 O 0.3765(10) 0.4377(7) 0.7224(4)
O25 O 0.6082(13) 0.6537(8) 0.1448(5)
O28 O 0.7159(11) 0.9358(9) 0.5212(5)
O30 O 0.6135(13) 0.7949(9) 0.2538(7)
O59 O 0.4933(13) 0.8806(8) 0.4608(5)
Cd23 Cd 0.57596(8) 0.96372(5) 0.69310(3)
Cd27 Cd 0.50120(9) 0.31384(6) 0.76901(4)
Cd33 Cd 0.67622(8) 0.47686(5) 0.71203(3)
O61 O 0.4365(8) 0.9882(5) 0.2200(3)
O65 O 0.4299(10) 0.4342(7) 0.2242(4)
O68 O 0.0886(9) 0.5357(7) 0.8136(4)
O74 O 0.3187(9) 0.6311(5) 0.2061(3)
O76 O 0.3828(13) 0.8117(7) 0.1823(5)
O78 O 0.1827(12) 0.8718(9) 0.1566(6)
O88 O 0.5045(8) 0.4803(7) 0.3404(4)
O90 O 0.6235(10) 0.5623(7) 0.2776(4)
O92 O 0.1202(8) 0.4887(5) 0.2851(3)
O94 O 0.2112(8) 0.4203(6) 0.3689(4)
C1 C 0.9342(11) 0.0290(7) 0.1791(5)
C2 C 0.8023(10) 0.0644(7) 0.1504(4)
C3 C 0.7948(12) 0.1262(7) 0.0990(5)
H1 H 0.8704 0.1493 0.0851
C4 C 0.6773(11) 0.1544(7) 0.0678(5)
C5 C 0.5648(11) 0.1235(7) 0.0904(5)
H2 H 0.4859 0.1419 0.0697
C6 C 0.5652(10) 0.0647(7) 0.1440(5)
C7 C 0.6851(11) 0.0341(7) 0.1730(5)
C8 C 0.4405(12) 0.0320(8) 0.1672(5)
C9 C 0.4321(13) 0.4164(9) 0.1738(6)
C10 C 0.5623(11) 0.3980(7) 0.1385(5)
C11 C 0.5733(11) 0.3561(7) 0.0904(4)
H4 H 0.4984 0.3379 0.0806
C12 C 0.6941(11) 0.3406(7) 0.0564(4)
C13 C 0.8079(11) 0.3663(8) 0.0729(5)
H5 H 0.8897 0.3553 0.0512
C14 C 0.7983(11) 0.4083(7) 0.1220(5)
C15 C 0.6745(12) 0.4261(8) 0.1541(5)
H6 H 0.6664 0.4562 0.1854
C16 C 0.9201(12) 0.4276(8) 0.1425(5)
C17 C 0.7019(11) 0.2986(7) 0.0037(4)
C22 C 0.6836(11) 0.2140(7) 0.0089(4)
O5 O 0.3315(10) 0.4067(10) 0.1494(6)
O7 O 0.9114(9) 0.4643(7) 0.1864(4)
O27 O 0.1570(12) 0.3010(7) 0.2497(5)
H33 H 0.3121 0.0068 0.7923
H41 H 0.0499 0.1695 0.4188
C94 C 0.1348(11) 0.0866(7) 0.3307(5)
H44 H 0.0443 0.3340 0.4301
C102 C 0.1147(11) 0.4422(7) 0.3365(5)
O31 O 0.0546(9) 0.0328(6) 0.7779(4)
O33 O 0.5635(8) 0.0118(5) 0.7800(3)
Cd15 Cd 0.79551(8) 0.02809(5) 0.78860(3)
O72 O 0.1676(11) 0.5869(7) 0.1640(4)
C18 C 0.7225(11) 0.3456(7) 0.9467(5)
H7 H 0.7363 0.4015 0.9435
C19 C 0.7234(11) 0.3135(6) 0.8955(4)
C20 C 0.7025(11) 0.2269(7) 0.9005(4)
C21 C 0.6857(12) 0.1798(7) 0.9584(5)
H8 H 0.6756 0.1230 0.9623
C23 C 0.7465(13) 0.3690(8) 0.8376(5)
C24 C 0.7134(12) 0.1786(7) 0.8491(5)
O9 O 0.8324(11) 0.4131(7) 0.8360(4)
O10 O 0.6813(9) 0.3689(5) 0.7939(3)
O11 O 0.6172(13) 0.1883(7) 0.8177(5)
O12 O 0.8173(12) 0.1282(9) 0.8434(6)
Cd19 Cd 0.86403(8) 0.55562(6) 0.80449(4)
C72 C 0.2775(11) 0.6544(7) 0.0533(5)
H37 H 0.2637 0.5985 0.0565
C73 C 0.2766(11) 0.6865(6) 0.1045(4)
C74 C 0.2975(11) 0.7731(7) 0.0995(4)
C75 C 0.3143(12) 0.8202(7) 0.0416(5)
H38 H 0.3244 0.8770 0.0377
C77 C 0.2535(13) 0.6310(8) 0.1624(5)
C78 C 0.2866(12) 0.8214(7) 0.1509(5)
H3 H 0.6879 0.9932 0.2077
H11 H 0.9501 0.8305 0.5812
C40 C 0.8652(11) 0.9134(7) 0.6693(5)
H14 H 0.9557 0.6660 0.5699
C48 C 0.8853(11) 0.5578(7) 0.6635(5)
O1 O 0.9454(9) 0.9672(6) 0.2221(4)
O19 O 0.8501(9) 0.9250(5) 0.7221(4)
O20 O 0.7621(9) 0.9145(7) 0.6391(4)
O23 O 0.8798(8) 0.5113(5) 0.7149(3)
O24 O 0.7888(8) 0.5797(6) 0.6311(4)
C55 C 0.0658(11) 0.9710(7) 0.8209(5)
C56 C 0.1977(10) 0.9356(7) 0.8496(4)
C57 C 0.2052(12) 0.8738(7) 0.9010(5)
H31 H 0.1296 0.8507 0.9149
C58 C 0.3227(11) 0.8456(7) 0.9322(5)
C59 C 0.4352(11) 0.8765(7) 0.9096(5)
H32 H 0.5141 0.8581 0.9303
C60 C 0.4348(10) 0.9353(7) 0.8560(5)
C61 C 0.3149(11) 0.9659(7) 0.8270(5)
C62 C 0.5595(12) 0.9680(8) 0.8328(5)
C63 C 0.5679(13) 0.5836(9) 0.8262(6)
C64 C 0.4377(11) 0.6020(7) 0.8615(5)
C65 C 0.4267(11) 0.6439(7) 0.9096(4)
H34 H 0.5016 0.6621 0.9194
C66 C 0.3059(11) 0.6594(7) 0.9436(4)
C67 C 0.1921(11) 0.6337(8) 0.9271(5)
H35 H 0.1103 0.6447 0.9488
C68 C 0.2017(11) 0.5917(7) 0.8780(5)
C69 C 0.3255(12) 0.5739(8) 0.8459(5)
H36 H 0.3336 0.5438 0.8146
C70 C 0.0799(12) 0.5724(8) 0.8575(5)
C71 C 0.2981(11) 0.7014(7) 0.9963(4)
C76 C 0.3164(11) 0.7860(7) 0.9911(4)
O34 O 0.6591(10) 0.9518(9) 0.8643(5)
O35 O 0.6685(10) 0.5933(10) 0.8506(6)
O36 O 0.5701(10) 0.5658(7) 0.7758(4)
O56 O 0.8430(12) 0.6990(7) 0.7503(5)
O70 O 0.9662(9) 0.5971(7) 0.8838(4)
C79 C 0.7161(11) 0.1309(7) 0.6557(4)
C80 C 0.7557(11) 0.1879(7) 0.5995(4)
C81 C 0.7557(10) 0.2739(7) 0.5969(4)
C82 C 0.7916(12) 0.3224(7) 0.5438(4)
H39 H 0.7930 0.3802 0.5425
C83 C 0.8264(10) 0.2867(7) 0.4914(5)
C84 C 0.8309(10) 0.1990(7) 0.4957(4)
C85 C 0.7979(11) 0.1511(7) 0.5494(4)
H40 H 0.8042 0.0921 0.5521
C86 C 0.7059(11) 0.3202(7) 0.6498(5)
C87 C 0.8566(10) 0.1546(7) 0.4433(4)
C88 C 0.9805(10) 0.1456(7) 0.4095(5)
C89 C 0.9980(11) 0.1011(7) 0.3623(5)
C90 C 0.8943(11) 0.0680(7) 0.3459(5)
H42 H 0.9065 0.0403 0.3132
C91 C 0.7693(11) 0.0768(7) 0.3795(5)
C92 C 0.7512(11) 0.1181(7) 0.4266(5)
H43 H 0.6692 0.1229 0.4486
C93 C 0.6493(12) 0.0476(8) 0.3629(5)
C95 C 0.8421(10) 0.3477(7) 0.4342(4)
C96 C 0.9667(11) 0.3637(7) 0.4106(4)
C97 C 0.9790(11) 0.4231(7) 0.3586(4)
C98 C 0.8647(12) 0.4660(8) 0.3297(5)
H45 H 0.8724 0.5039 0.2941
C99 C 0.7381(11) 0.4540(8) 0.3523(5)
C100 C 0.7275(12) 0.3931(8) 0.4047(4)
H46 H 0.6429 0.3834 0.4197
C101 C 0.6127(12) 0.5031(8) 0.3211(5)
C103 C 0.2722(18) 0.3567(10) 0.8714(7)
H47 H 0.2085 0.3579 0.8443
C104 C 0.330(3) 0.3713(18) 0.9695(9)
H48 H 0.3944 0.4044 0.9497
H50 H 0.3769 0.3142 0.9856
C105 C 0.089(2) 0.3745(15) 0.9449(10)
H51 H 0.0388 0.3701 0.9125
H52 H 0.0792 0.3293 0.9778
H53 H 0.0566 0.4295 0.9568
N3 N 0.2318(14) 0.3661(9) 0.9258(6)
O43 O 0.7883(9) 0.1174(5) 0.6993(3)
O44 O 0.6194(10) 0.0962(6) 0.6528(4)
O45 O 0.6117(10) 0.2947(6) 0.6816(4)
O46 O 0.7659(10) 0.3783(6) 0.6553(4)
O55 O 0.3918(13) 0.3463(8) 0.8552(5)
O58 O 0.3865(13) 0.2051(9) 0.7462(7)
C106 C 0.4661(15) 0.7961(8) 0.7473(7)
H54 H 0.4052 0.8062 0.7791
C107 C 0.3048(18) 0.7240(11) 0.7169(8)
H55 H 0.3227 0.6628 0.7179
H56 H 0.2583 0.7368 0.7534
H57 H 0.2496 0.7528 0.6842
C108 C 0.532(2) 0.7236(15) 0.6638(10)
H58 H 0.5854 0.7661 0.6488
H59 H 0.5896 0.6705 0.6805
H60 H 0.4845 0.7143 0.6320
N4 N 0.4343(13) 0.7541(7) 0.7097(6)
O32 O 0.9665(8) 0.9375(6) 0.8405(4)
O57 O 0.5732(11) 0.8243(6) 0.7439(5)
H19 H 0.7176 0.6014 0.9990
H49 H 0.2824 0.3986 0.0010
loop_
_geom_bond_atom_site_label_1
_geom_bond_atom_site_label_2
_geom_bond_site_symmetry_1
_geom_bond_site_symmetry_2
C52 H24 1_555 1_555
C53 H25 1_555 1_555
H26 C53 1_555 1_555
H27 C53 1_555 1_555
C54 H28 1_555 1_555
H29 C54 1_555 1_555
H30 C54 1_555 1_555
N2 C52 1_555 1_555
O26 Cd6 1_555 1_555
O29 Cd3 1_555 1_555
O60 Cd6 1_555 1_555
O80 Cd3 1_555 1_555
O82 Cd3 1_555 1_555
O86 Cd3 1_555 1_555
Cd6 O80 1_555 1_555
C52 O29 1_555 1_555
C53 N2 1_555 1_555
C54 N2 1_555 1_555
O8 Cd17 1_555 1_555
Cd4 O15 1_555 1_555
Cd5 O16 1_555 1_555
Cd6_2 O17 1_555 1_555
C25 C26 1_555 1_555
C26 C27 1_555 1_555
C27 C28 1_555 1_555
C28 H9 1_555 1_555
C29 C28 1_555 1_555
C30 C29 1_555 1_555
C31 C26 1_555 1_555
H10 C31 1_555 1_555
C32 C27 1_555 1_555
C33 C30 1_555 1_555
C34 C33 1_555 1_555
C35 C34 1_555 1_555
C36 C35 1_555 1_555
H12 C36 1_555 1_555
C37 C36 1_555 1_555
C38 C33 1_555 1_555
H13 C38 1_555 1_555
C39 C37 1_555 1_555
C41 C29 1_555 1_555
C42 C41 1_555 1_555
C43 C42 1_555 1_555
C44 C43 1_555 1_555
H15 C44 1_555 1_555
C45 C44 1_555 1_555
C46 C41 1_555 1_555
H16 C46 1_555 1_555
C47 C45 1_555 1_555
C49 H17 1_555 1_555
C50 H18 1_555 1_555
H20 C50 1_555 1_555
C51 H21 1_555 1_555
H22 C51 1_555 1_555
H23 C51 1_555 1_555
N1 C49 1_555 1_555
O13 Cd1 1_555 1_555
O14 C25 1_555 1_555
O15 C32 1_555 1_555
O16 C32 1_555 1_555
O17 C39 1_555 1_555
O18 C39 1_555 1_555
O21 C47 1_555 1_555
O22 C47 1_555 1_555
O25 Cd4 1_555 1_555
O28 Cd6_2 1_555 1_555
O30 Cd4 1_555 1_555
O59 Cd6_2 1_555 1_555
Cd23 O17 1_555 1_555
Cd27 O22 1_555 1_555
Cd33 O21 1_555 1_555
O61 Cd1 1_555 1_555
O65 Cd5 1_555 1_555
O74 Cd4 1_555 1_555
O76 Cd4 1_555 1_555
O78 Cd1 1_555 1_555
O88 Cd5 1_555 1_555
O90 Cd4 1_555 1_555
O92 Cd5 1_555 1_555
O94 Cd5 1_555 1_555
Cd5 O74 1_555 1_555
C25 O13 1_555 1_555
C30 C31 1_555 1_555
C37 C38 1_555 1_555
C45 C46 1_555 1_555
C49 O25 1_555 1_555
C50 N1 1_555 1_555
C51 N1 1_555 1_555
O18 Cd23 1_555 1_555
Cd17 O5 1_555 1_555
C1 C2 1_555 1_555
C2 C3 1_555 1_555
C3 H1 1_555 1_555
C4 C3 1_555 1_555
C5 C4 1_555 1_555
H2 C5 1_555 1_555
C6 C5 1_555 1_555
C7 C2 1_555 1_555
C8 C6 1_555 1_555
C9 C10 1_555 1_555
C10 C11 1_555 1_555
C11 H4 1_555 1_555
C12 C11 1_555 1_555
C13 C12 1_555 1_555
H5 C13 1_555 1_555
C14 C13 1_555 1_555
C15 C10 1_555 1_555
H6 C15 1_555 1_555
C16 C14 1_555 1_555
C17 C12 1_555 1_555
C22 C4 1_555 1_555
O63 C8 1_555 1_555
O5 C9 1_555 1_555
O65 C9 1_555 1_555
O7 C16 1_555 1_555
O27 Cd17 1_555 1_555
O84 C94 1_555 1_555
O86 C94 1_555 1_555
O92 Cd17 1_555 1_555
O94 C102 1_555 1_555
O72 Cd17 1_555 1_555
C6 C7 1_555 1_555
C14 C15 1_555 1_555
C17 C22 1_555 1_555
C102 O92 1_555 1_555
O33 Cd15 1_555 1_555
H7 C18 1_555 1_555
C19 C18 1_555 1_555
C20 C19 1_555 1_555
C21 C20 1_555 1_555
H8 C21 1_555 1_555
C23 C19 1_555 1_555
C24 C20 1_555 1_555
O9 C23 1_555 1_555
O10 C23 1_555 1_555
O11 C24 1_555 1_555
O12 C24 1_555 1_555
Cd15 O12 1_555 1_555
Cd19 O9 1_555 1_555
Cd27 O10 1_555 1_555
Cd33 O10 1_555 1_555
O11 Cd27 1_555 1_555
H37 C72 1_555 1_555
C73 C72 1_555 1_555
C74 C73 1_555 1_555
C75 C74 1_555 1_555
H38 C75 1_555 1_555
C77 C73 1_555 1_555
C78 C74 1_555 1_555
O72 C77 1_555 1_555
O74 C77 1_555 1_555
O76 C78 1_555 1_555
O78 C78 1_555 1_555
O19 C40 1_555 1_555
O20 C40 1_555 1_555
O23 C48 1_555 1_555
O24 C48 1_555 1_555
Cd19 O23 1_555 1_555
C55 C56 1_555 1_555
C56 C57 1_555 1_555
C57 H31 1_555 1_555
C58 C57 1_555 1_555
C59 C58 1_555 1_555
H32 C59 1_555 1_555
C60 C59 1_555 1_555
C61 C56 1_555 1_555
C62 C60 1_555 1_555
C63 C64 1_555 1_555
C64 C65 1_555 1_555
C65 H34 1_555 1_555
C66 C65 1_555 1_555
C67 C66 1_555 1_555
H35 C67 1_555 1_555
C68 C67 1_555 1_555
C69 C64 1_555 1_555
H36 C69 1_555 1_555
C70 C68 1_555 1_555
C71 C66 1_555 1_555
C76 C58 1_555 1_555
O34 C62 1_555 1_555
O35 Cd19 1_555 1_555
O36 C63 1_555 1_555
O68 C70 1_555 1_555
O56 Cd19 1_555 1_555
Cd23 O20 1_555 1_555
Cd33 O23 1_555 1_555
O70 Cd19 1_555 1_555
O24 Cd33 1_555 1_555
C60 C61 1_555 1_555
C63 O35 1_555 1_555
C68 C69 1_555 1_555
C71 C76 1_555 1_555
O36 Cd33 1_555 1_555
Cd27 O45 1_555 1_555
Cd33 O46 1_555 1_555
C79 C80 1_555 1_555
C80 C81 1_555 1_555
C81 C82 1_555 1_555
C82 H39 1_555 1_555
C83 C82 1_555 1_555
C84 C83 1_555 1_555
C85 C80 1_555 1_555
H40 C85 1_555 1_555
C86 C81 1_555 1_555
C87 C84 1_555 1_555
C88 C87 1_555 1_555
C89 C88 1_555 1_555
C90 C89 1_555 1_555
H42 C90 1_555 1_555
C91 C90 1_555 1_555
C92 C87 1_555 1_555
H43 C92 1_555 1_555
C93 C91 1_555 1_555
C95 C83 1_555 1_555
C96 C95 1_555 1_555
C97 C96 1_555 1_555
C98 C97 1_555 1_555
H45 C98 1_555 1_555
C99 C98 1_555 1_555
C100 C95 1_555 1_555
H46 C100 1_555 1_555
C101 C99 1_555 1_555
C103 H47 1_555 1_555
C104 H48 1_555 1_555
H50 C104 1_555 1_555
C105 H51 1_555 1_555
H52 C105 1_555 1_555
H53 C105 1_555 1_555
N3 C103 1_555 1_555
O43 Cd15 1_555 1_555
O44 C79 1_555 1_555
O45 C86 1_555 1_555
O46 C86 1_555 1_555
O80 C93 1_555 1_555
O82 C93 1_555 1_555
O88 C101 1_555 1_555
O90 C101 1_555 1_555
O55 Cd27 1_555 1_555
O58 Cd27 1_555 1_555
C79 O43 1_555 1_555
C84 C85 1_555 1_555
C91 C92 1_555 1_555
C99 C100 1_555 1_555
C103 O55 1_555 1_555
C104 N3 1_555 1_555
C105 N3 1_555 1_555
C106 H54 1_555 1_555
C107 H55 1_555 1_555
H56 C107 1_555 1_555
H57 C107 1_555 1_555
C108 H58 1_555 1_555
H59 C108 1_555 1_555
H60 C108 1_555 1_555
N4 C106 1_555 1_555
O57 Cd23 1_555 1_555
C106 O57 1_555 1_555
C107 N4 1_555 1_555
C108 N4 1_555 1_555

#END
