
###############################################################################
#
# This file contains modified crystal structure data generated from the
# MOF subset of the Cambridge Structural Database (CSD) v543 
# hosted by the Cambridge Crystallographic Data Centre (CCDC).
#
# This work is licensed under the Creative Commons
# Attribution-NonCommercial-ShareAlike 4.0 International License.
# To view a copy of this license, visit
# http://creativecommons.org/licenses/by-nc-sa/4.0/
# or send a letter to
# Creative Commons, PO Box 1866, Mountain View, CA 94042, USA.
#
# CIF created using the CSD Python API on 29 September 2022
# The structure has been converted into the P1 space group
# The structure has a 3D framework
# The original CSD entry IJEXUS is in the tetragonal crystal system
# The framework has been calculated to contain at least 10.0% void space
# The void calculation uses a probe of radius 1.32A, grid spacing 0.4
# The framework is charged, counterions have been retained in the structure
# H atom positions have been added when not included in the experimental data
# Generated hydrogen atom positions removed from atoms on special positions
#
###############################################################################

data_IJEXUS
_chemical_formula_moiety         '(C336 H448 Cu32 Mn16 N48 Na24 O184 16+)n'
_symmetry_cell_setting           triclinic
_symmetry_space_group_name_H-M   'P 1'
_symmetry_Int_Tables_number      1
_space_group_name_Hall           'P 1'
loop_
_symmetry_equiv_pos_site_id
_symmetry_equiv_pos_as_xyz
1 x,y,z
_cell_length_a                   36.6089(19)
_cell_length_b                   36.6089(19)
_cell_length_c                   15.3988(8)
_cell_angle_alpha                90
_cell_angle_beta                 90
_cell_angle_gamma                90
_cell_volume                     20637.6
loop_
_atom_site_label
_atom_site_type_symbol
_atom_site_fract_x
_atom_site_fract_y
_atom_site_fract_z
Na1 Na 0.3632(4) 0.1577(5) 0.5000
Na1_2 Na 0.6368(4) 0.8423(5) 0.5000
Na1_3 Na 0.8423(5) 0.3632(4) 0.5000
Na1_4 Na 0.1577(5) 0.6368(4) 0.5000
Na1_5 Na 0.6368(4) 0.1577(5) 0.5000
Na1_6 Na 0.3632(4) 0.8423(5) 0.5000
Na1_7 Na 0.1577(5) 0.3632(4) 0.5000
Na1_8 Na 0.8423(5) 0.6368(4) 0.5000
Na2 Na 0.2692(3) 0.2692(3) 0.4315(6)
Na2_2 Na 0.7308(3) 0.7308(3) 0.4315(6)
Na2_3 Na 0.7308(3) 0.2692(3) 0.4315(6)
Na2_4 Na 0.2692(3) 0.7308(3) 0.4315(6)
Na2_5 Na 0.7308(3) 0.2692(3) 0.5685(6)
Na2_6 Na 0.2692(3) 0.7308(3) 0.5685(6)
Na2_7 Na 0.2692(3) 0.2692(3) 0.5685(6)
Na2_8 Na 0.7308(3) 0.7308(3) 0.5685(6)
Na3 Na 0.5000 0.7512(2) 0.0000
Na3_2 Na 0.5000 0.7512(2) 1.0000
Na3_3 Na 0.5000 0.2488(2) 0.0000
Na3_4 Na 0.5000 0.2488(2) 1.0000
Na3_5 Na 0.2488(2) 0.5000 0.0000
Na3_6 Na 0.2488(2) 0.5000 1.0000
Na3_7 Na 0.7512(2) 0.5000 0.0000
Na3_8 Na 0.7512(2) 0.5000 1.0000
Cu1 Cu 0.24093(3) 0.24093(3) 0.23031(8)
Cu2 Cu 0.33201(4) -0.0000 0.27477(9)
Cu3 Cu 0.5000 0.15086(7) 0.26973(13)
Mn1 Mn 0.35204(3) 0.14686(5) 0.24885(8)
N1 N 0.26164(18) 0.19985(19) 0.1596(4)
N2 N 0.4564(2) 0.1359(3) 0.3395(5)
N3 N 0.31636(17) 0.0442(2) 0.3425(4)
O1 O 0.31188(16) 0.16210(18) 0.1624(3)
O2 O 0.33235(18) 0.1950(2) 0.3120(3)
O3 O 0.28404(19) 0.2314(2) 0.3055(4)
O4 O 0.39453(17) 0.1394(2) 0.3355(5)
O5 O 0.39976(18) 0.1719(3) 0.1799(5)
O6 O 0.46203(17) 0.1714(2) 0.1914(5)
O7 O 0.36296(18) 0.0971(2) 0.1855(4)
O8 O 0.31789(18) 0.1072(2) 0.3244(4)
O9 O 0.3581(2) 0.0347(3) 0.2017(4)
C1 C 0.2913(2) 0.1877(2) 0.1929(4)
C2 C 0.3024(3) 0.2052(3) 0.2777(5)
C3 C 0.2493(2) 0.1848(2) 0.0770(4)
C4 C 0.2257(4) 0.1552(3) 0.0784(6)
C5 C 0.2140(6) 0.1424(5) 0.0000
H1 H 0.1965 0.1233 0.0000
C6 C 0.2626(3) 0.1975(3) 0.0000
C7 C 0.2939(4) 0.2261(5) 0.0000
C8 C 0.2127(5) 0.1385(4) 0.1635(7)
H2 H 0.2322 0.1403 0.2070
H3 H 0.2065 0.1127 0.1542
H4 H 0.1911 0.1517 0.1841
C9 C 0.4258(3) 0.1452(3) 0.3043(7)
C10 C 0.4289(3) 0.1626(4) 0.2155(7)
C11 C 0.4549(2) 0.1147(3) 0.4216(5)
C12 C 0.4524(2) 0.0776(3) 0.4212(5)
C13 C 0.4517(3) 0.0609(4) 0.5000
H5 H 0.4506 0.0349 0.5000
C14 C 0.4544(4) 0.1342(5) 0.5000
C15 C 0.4540(5) 0.1766(4) 0.5000
C16 C 0.4499(3) 0.0576(3) 0.3342(7)
H6 H 0.4266 0.0633 0.3061
H7 H 0.4515 0.0312 0.3441
H8 H 0.4701 0.0653 0.2967
C17 C 0.3528(3) 0.0675(5) 0.2228(6)
C18 C 0.3257(2) 0.0742(4) 0.3039(5)
C19 C 0.2960(2) 0.0463(2) 0.4221(4)
C20 C 0.2581(2) 0.0477(3) 0.4205(5)
C21 C 0.2399(3) 0.0483(4) 0.5000
H9 H 0.2139 0.0490 0.5000
C22 C 0.3156(3) 0.0458(4) 0.5000
C23 C 0.3575(3) 0.0478(5) 0.5000
C24 C 0.2372(2) 0.0497(4) 0.3336(6)
H10 H 0.2426 0.0729 0.3047
H11 H 0.2109 0.0480 0.3447
H12 H 0.2448 0.0294 0.2962
O10 O 0.2067(2) 0.2067(2) 0.3421(6)
O11 O 0.2862(3) -0.0000 0.1572(7)
O12 O 0.5000 0.0987(4) 0.1522(7)
O13 O 0.5000 0.2251(5) 0.3077(12)
N5 N 0.4564(2) 0.1359(3) 0.6605(5)
O17 O 0.39453(17) 0.1394(2) 0.6645(5)
O18 O 0.39976(18) 0.1719(3) 0.8201(5)
O19 O 0.46203(17) 0.1714(2) 0.8086(5)
C30 C 0.4258(3) 0.1452(3) 0.6957(7)
C31 C 0.4289(3) 0.1626(4) 0.7845(7)
C32 C 0.4549(2) 0.1147(3) 0.5784(5)
C33 C 0.4524(2) 0.0776(3) 0.5788(5)
C34 C 0.4499(3) 0.0576(3) 0.6658(7)
H16 H 0.4266 0.0633 0.6939
H17 H 0.4515 0.0312 0.6559
H18 H 0.4701 0.0653 0.7033
N6 N 0.31636(17) 0.0442(2) 0.6575(4)
O20 O 0.36296(18) 0.0971(2) 0.8145(4)
O21 O 0.31789(18) 0.1072(2) 0.6756(4)
O22 O 0.3581(2) 0.0347(3) 0.7983(4)
C35 C 0.3528(3) 0.0675(5) 0.7772(6)
C36 C 0.3257(2) 0.0742(4) 0.6961(5)
C37 C 0.2960(2) 0.0463(2) 0.5779(4)
C38 C 0.2581(2) 0.0477(3) 0.5795(5)
C39 C 0.2372(2) 0.0497(4) 0.6664(6)
H19 H 0.2426 0.0729 0.6953
H20 H 0.2109 0.0480 0.6553
H21 H 0.2448 0.0294 0.7038
Cu5 Cu 0.33201(4) 0.0000 0.72523(9)
Cu6 Cu 0.5000 0.15086(7) 0.73027(13)
Mn3 Mn 0.35204(3) 0.14686(5) 0.75115(8)
N7 N 0.19985(19) 0.26164(18) 0.1596(4)
N8 N 0.5436(2) 0.1359(3) 0.3395(5)
O23 O 0.2314(2) 0.28404(19) 0.3055(4)
O26 O 0.53797(17) 0.1714(2) 0.1914(5)
H22 H 0.429755 0.186287 0.466111
H23 H 0.453638 0.186513 0.566672
H24 H 0.478327 0.186746 0.467217
H25 H 0.366218 0.0731225 0.469219
H26 H 0.367463 0.047048 0.566612
H27 H 0.368532 0.0246477 0.46417
H28 H 0.31772 0.214731 0.0326148
H30 H 0.284956 0.250588 0.0340553
H37 H 0.288012 0.0231595 0.123909
C5_2 C 0.2140(6) 0.1424(5) 1.0000
H1_2 H 0.1965 0.1233 1.0000
C6_2 C 0.2626(3) 0.1975(3) 1.0000
C7_2 C 0.2939(4) 0.2261(5) 1.0000
N4 N 0.26164(18) 0.19985(19) 0.8404(4)
O14 O 0.31188(16) 0.16210(18) 0.8376(3)
O15 O 0.33235(18) 0.1950(2) 0.6880(3)
O16 O 0.28404(19) 0.2314(2) 0.6945(4)
C25 C 0.2913(2) 0.1877(2) 0.8071(4)
C26 C 0.3024(3) 0.2052(3) 0.7223(5)
C27 C 0.2493(2) 0.1848(2) 0.9230(4)
C28 C 0.2257(4) 0.1552(3) 0.9216(6)
C29 C 0.2127(5) 0.1385(4) 0.8365(7)
H13 H 0.2322 0.1403 0.7930
H14 H 0.2065 0.1127 0.8458
H15 H 0.1911 0.1517 0.8159
Cu4 Cu 0.24093(3) 0.24093(3) 0.76969(8)
H29 H 0.300984 0.233047 0.93333
Cu2_2 Cu 0.33201(4) 1.0000 0.27477(9)
O11_2 O 0.2862(3) 1.0000 0.1572(7)
Cu5_2 Cu 0.33201(4) 1.0000 0.72523(9)
N9 N 0.31636(17) 0.9558(2) 0.3425(4)
O29 O 0.3581(2) 0.9653(3) 0.2017(4)
H38 H 0.290791 0.979028 0.117788
Cu2_3 Cu 0.66799(4) -0.0000 0.27477(9)
O11_3 O 0.7138(3) -0.0000 0.1572(7)
Cu5_3 Cu 0.66799(4) 0.0000 0.72523(9)
N9_2 N 0.68364(17) 0.0442(2) 0.3425(4)
O29_2 O 0.6419(2) 0.0347(3) 0.2017(4)
H38_2 H 0.709209 0.0209724 0.117788
Cu1_2 Cu 0.75907(3) 0.75907(3) 0.23031(8)
Cu2_4 Cu 0.66799(4) 1.0000 0.27477(9)
Cu3_2 Cu 0.5000 0.84914(7) 0.26973(13)
Mn1_2 Mn 0.64796(3) 0.85314(5) 0.24885(8)
N1_2 N 0.73836(18) 0.80015(19) 0.1596(4)
N2_2 N 0.5436(2) 0.8641(3) 0.3395(5)
N3_2 N 0.68364(17) 0.9558(2) 0.3425(4)
O1_2 O 0.68812(16) 0.83790(18) 0.1624(3)
O2_2 O 0.66765(18) 0.8050(2) 0.3120(3)
O3_2 O 0.71596(19) 0.7686(2) 0.3055(4)
O4_2 O 0.60547(17) 0.8606(2) 0.3355(5)
O5_2 O 0.60024(18) 0.8281(3) 0.1799(5)
O6_2 O 0.53797(17) 0.8286(2) 0.1914(5)
O7_2 O 0.63704(18) 0.9029(2) 0.1855(4)
O8_2 O 0.68211(18) 0.8928(2) 0.3244(4)
O9_2 O 0.6419(2) 0.9653(3) 0.2017(4)
C1_2 C 0.7087(2) 0.8123(2) 0.1929(4)
C2_2 C 0.6976(3) 0.7948(3) 0.2777(5)
C3_2 C 0.7507(2) 0.8152(2) 0.0770(4)
C4_2 C 0.7743(4) 0.8448(3) 0.0784(6)
C5_3 C 0.7860(6) 0.8576(5) 0.0000
H1_3 H 0.8035 0.8767 0.0000
C6_3 C 0.7374(3) 0.8025(3) 0.0000
C7_3 C 0.7061(4) 0.7739(5) 0.0000
C8_2 C 0.7873(5) 0.8615(4) 0.1635(7)
H2_2 H 0.7678 0.8597 0.2070
H3_2 H 0.7935 0.8873 0.1542
H4_2 H 0.8089 0.8483 0.1841
C9_2 C 0.5742(3) 0.8548(3) 0.3043(7)
C10_2 C 0.5711(3) 0.8374(4) 0.2155(7)
C11_2 C 0.5451(2) 0.8853(3) 0.4216(5)
C12_2 C 0.5476(2) 0.9224(3) 0.4212(5)
C13_2 C 0.5483(3) 0.9391(4) 0.5000
H5_2 H 0.5494 0.9651 0.5000
C14_2 C 0.5456(4) 0.8658(5) 0.5000
C15_2 C 0.5460(5) 0.8234(4) 0.5000
C16_2 C 0.5501(3) 0.9424(3) 0.3342(7)
H6_2 H 0.5734 0.9367 0.3061
H7_2 H 0.5485 0.9688 0.3441
H8_2 H 0.5299 0.9347 0.2967
C17_2 C 0.6472(3) 0.9325(5) 0.2228(6)
C18_2 C 0.6743(2) 0.9258(4) 0.3039(5)
C19_2 C 0.7040(2) 0.9537(2) 0.4221(4)
C20_2 C 0.7419(2) 0.9523(3) 0.4205(5)
C21_2 C 0.7601(3) 0.9517(4) 0.5000
H9_2 H 0.7861 0.9510 0.5000
C22_2 C 0.6844(3) 0.9542(4) 0.5000
C23_2 C 0.6425(3) 0.9522(5) 0.5000
C24_2 C 0.7628(2) 0.9503(4) 0.3336(6)
H10_2 H 0.7574 0.9271 0.3047
H11_2 H 0.7891 0.9520 0.3447
H12_2 H 0.7552 0.9706 0.2962
O10_2 O 0.7933(2) 0.7933(2) 0.3421(6)
O11_4 O 0.7138(3) 1.0000 0.1572(7)
O12_2 O 0.5000 0.9013(4) 0.1522(7)
O13_2 O 0.5000 0.7749(5) 0.3077(12)
N5_2 N 0.5436(2) 0.8641(3) 0.6605(5)
O17_2 O 0.60547(17) 0.8606(2) 0.6645(5)
O18_2 O 0.60024(18) 0.8281(3) 0.8201(5)
O19_2 O 0.53797(17) 0.8286(2) 0.8086(5)
C30_2 C 0.5742(3) 0.8548(3) 0.6957(7)
C31_2 C 0.5711(3) 0.8374(4) 0.7845(7)
C32_2 C 0.5451(2) 0.8853(3) 0.5784(5)
C33_2 C 0.5476(2) 0.9224(3) 0.5788(5)
C34_2 C 0.5501(3) 0.9424(3) 0.6658(7)
H16_2 H 0.5734 0.9367 0.6939
H17_2 H 0.5485 0.9688 0.6559
H18_2 H 0.5299 0.9347 0.7033
N6_2 N 0.68364(17) 0.9558(2) 0.6575(4)
O20_2 O 0.63704(18) 0.9029(2) 0.8145(4)
O21_2 O 0.68211(18) 0.8928(2) 0.6756(4)
O22_2 O 0.6419(2) 0.9653(3) 0.7983(4)
C35_2 C 0.6472(3) 0.9325(5) 0.7772(6)
C36_2 C 0.6743(2) 0.9258(4) 0.6961(5)
C37_2 C 0.7040(2) 0.9537(2) 0.5779(4)
C38_2 C 0.7419(2) 0.9523(3) 0.5795(5)
C39_2 C 0.7628(2) 0.9503(4) 0.6664(6)
H19_2 H 0.7574 0.9271 0.6953
H20_2 H 0.7891 0.9520 0.6553
H21_2 H 0.7552 0.9706 0.7038
Cu5_4 Cu 0.66799(4) 1.0000 0.72523(9)
Cu6_2 Cu 0.5000 0.84914(7) 0.73027(13)
Mn3_2 Mn 0.64796(3) 0.85314(5) 0.75115(8)
N7_2 N 0.80015(19) 0.73836(18) 0.1596(4)
N8_2 N 0.4564(2) 0.8641(3) 0.3395(5)
O23_2 O 0.7686(2) 0.71596(19) 0.3055(4)
O26_2 O 0.46203(17) 0.8286(2) 0.1914(5)
H22_2 H 0.570245 0.813713 0.466111
H23_2 H 0.546362 0.813487 0.566672
H24_2 H 0.521673 0.813254 0.467217
H25_2 H 0.633782 0.926877 0.469219
H26_2 H 0.632537 0.952952 0.566612
H27_2 H 0.631468 0.975352 0.46417
H28_2 H 0.68228 0.785269 0.0326148
H30_2 H 0.715044 0.749412 0.0340553
H37_2 H 0.711988 0.97684 0.123909
C5_4 C 0.7860(6) 0.8576(5) 1.0000
H1_4 H 0.8035 0.8767 1.0000
C6_4 C 0.7374(3) 0.8025(3) 1.0000
C7_4 C 0.7061(4) 0.7739(5) 1.0000
N4_2 N 0.73836(18) 0.80015(19) 0.8404(4)
O14_2 O 0.68812(16) 0.83790(18) 0.8376(3)
O15_2 O 0.66765(18) 0.8050(2) 0.6880(3)
O16_2 O 0.71596(19) 0.7686(2) 0.6945(4)
C25_2 C 0.7087(2) 0.8123(2) 0.8071(4)
C26_2 C 0.6976(3) 0.7948(3) 0.7223(5)
C27_2 C 0.7507(2) 0.8152(2) 0.9230(4)
C28_2 C 0.7743(4) 0.8448(3) 0.9216(6)
C29_2 C 0.7873(5) 0.8615(4) 0.8365(7)
H13_2 H 0.7678 0.8597 0.7930
H14_2 H 0.7935 0.8873 0.8458
H15_2 H 0.8089 0.8483 0.8159
Cu4_2 Cu 0.75907(3) 0.75907(3) 0.76969(8)
H29_2 H 0.699016 0.766953 0.93333
Cu2_5 Cu -0.0000 0.33201(4) 0.27477(9)
O11_5 O 0.0000 0.2862(3) 0.1572(7)
Cu5_5 Cu 0.0000 0.33201(4) 0.72523(9)
N9_3 N 0.0442(2) 0.31636(17) 0.3425(4)
O29_3 O 0.0347(3) 0.3581(2) 0.2017(4)
H38_3 H 0.0209724 0.290791 0.117788
Cu1_3 Cu 0.75907(3) 0.24093(3) 0.23031(8)
Cu2_6 Cu 1.0000 0.33201(4) 0.27477(9)
Cu3_3 Cu 0.84914(7) 0.5000 0.26973(13)
Mn1_3 Mn 0.85314(5) 0.35204(3) 0.24885(8)
N1_3 N 0.80015(19) 0.26164(18) 0.1596(4)
N2_3 N 0.8641(3) 0.4564(2) 0.3395(5)
N3_3 N 0.9558(2) 0.31636(17) 0.3425(4)
O1_3 O 0.83790(18) 0.31188(16) 0.1624(3)
O2_3 O 0.8050(2) 0.33235(18) 0.3120(3)
O3_3 O 0.7686(2) 0.28404(19) 0.3055(4)
O4_3 O 0.8606(2) 0.39453(17) 0.3355(5)
O5_3 O 0.8281(3) 0.39976(18) 0.1799(5)
O6_3 O 0.8286(2) 0.46203(17) 0.1914(5)
O7_3 O 0.9029(2) 0.36296(18) 0.1855(4)
O8_3 O 0.8928(2) 0.31789(18) 0.3244(4)
O9_3 O 0.9653(3) 0.3581(2) 0.2017(4)
C1_3 C 0.8123(2) 0.2913(2) 0.1929(4)
C2_3 C 0.7948(3) 0.3024(3) 0.2777(5)
C3_3 C 0.8152(2) 0.2493(2) 0.0770(4)
C4_3 C 0.8448(3) 0.2257(4) 0.0784(6)
C5_5 C 0.8576(5) 0.2140(6) 0.0000
H1_5 H 0.8767 0.1965 0.0000
C6_5 C 0.8025(3) 0.2626(3) 0.0000
C7_5 C 0.7739(5) 0.2939(4) 0.0000
C8_3 C 0.8615(4) 0.2127(5) 0.1635(7)
H2_3 H 0.8597 0.2322 0.2070
H3_3 H 0.8873 0.2065 0.1542
H4_3 H 0.8483 0.1911 0.1841
C9_3 C 0.8548(3) 0.4258(3) 0.3043(7)
C10_3 C 0.8374(4) 0.4289(3) 0.2155(7)
C11_3 C 0.8853(3) 0.4549(2) 0.4216(5)
C12_3 C 0.9224(3) 0.4524(2) 0.4212(5)
C13_3 C 0.9391(4) 0.4517(3) 0.5000
H5_3 H 0.9651 0.4506 0.5000
C14_3 C 0.8658(5) 0.4544(4) 0.5000
C15_3 C 0.8234(4) 0.4540(5) 0.5000
C16_3 C 0.9424(3) 0.4499(3) 0.3342(7)
H6_3 H 0.9367 0.4266 0.3061
H7_3 H 0.9688 0.4515 0.3441
H8_3 H 0.9347 0.4701 0.2967
C17_3 C 0.9325(5) 0.3528(3) 0.2228(6)
C18_3 C 0.9258(4) 0.3257(2) 0.3039(5)
C19_3 C 0.9537(2) 0.2960(2) 0.4221(4)
C20_3 C 0.9523(3) 0.2581(2) 0.4205(5)
C21_3 C 0.9517(4) 0.2399(3) 0.5000
H9_3 H 0.9510 0.2139 0.5000
C22_3 C 0.9542(4) 0.3156(3) 0.5000
C23_3 C 0.9522(5) 0.3575(3) 0.5000
C24_3 C 0.9503(4) 0.2372(2) 0.3336(6)
H10_3 H 0.9271 0.2426 0.3047
H11_3 H 0.9520 0.2109 0.3447
H12_3 H 0.9706 0.2448 0.2962
O10_3 O 0.7933(2) 0.2067(2) 0.3421(6)
O11_6 O 1.0000 0.2862(3) 0.1572(7)
O12_3 O 0.9013(4) 0.5000 0.1522(7)
O13_3 O 0.7749(5) 0.5000 0.3077(12)
N5_3 N 0.8641(3) 0.4564(2) 0.6605(5)
O17_3 O 0.8606(2) 0.39453(17) 0.6645(5)
O18_3 O 0.8281(3) 0.39976(18) 0.8201(5)
O19_3 O 0.8286(2) 0.46203(17) 0.8086(5)
C30_3 C 0.8548(3) 0.4258(3) 0.6957(7)
C31_3 C 0.8374(4) 0.4289(3) 0.7845(7)
C32_3 C 0.8853(3) 0.4549(2) 0.5784(5)
C33_3 C 0.9224(3) 0.4524(2) 0.5788(5)
C34_3 C 0.9424(3) 0.4499(3) 0.6658(7)
H16_3 H 0.9367 0.4266 0.6939
H17_3 H 0.9688 0.4515 0.6559
H18_3 H 0.9347 0.4701 0.7033
N6_3 N 0.9558(2) 0.31636(17) 0.6575(4)
O20_3 O 0.9029(2) 0.36296(18) 0.8145(4)
O21_3 O 0.8928(2) 0.31789(18) 0.6756(4)
O22_3 O 0.9653(3) 0.3581(2) 0.7983(4)
C35_3 C 0.9325(5) 0.3528(3) 0.7772(6)
C36_3 C 0.9258(4) 0.3257(2) 0.6961(5)
C37_3 C 0.9537(2) 0.2960(2) 0.5779(4)
C38_3 C 0.9523(3) 0.2581(2) 0.5795(5)
C39_3 C 0.9503(4) 0.2372(2) 0.6664(6)
H19_3 H 0.9271 0.2426 0.6953
H20_3 H 0.9520 0.2109 0.6553
H21_3 H 0.9706 0.2448 0.7038
Cu5_6 Cu 1.0000 0.33201(4) 0.72523(9)
Cu6_3 Cu 0.84914(7) 0.5000 0.73027(13)
Mn3_3 Mn 0.85314(5) 0.35204(3) 0.75115(8)
N7_3 N 0.73836(18) 0.19985(19) 0.1596(4)
N8_3 N 0.8641(3) 0.5436(2) 0.3395(5)
O23_3 O 0.71596(19) 0.2314(2) 0.3055(4)
O26_3 O 0.8286(2) 0.53797(17) 0.1914(5)
H22_3 H 0.813713 0.429755 0.466111
H23_3 H 0.813487 0.453638 0.566672
H24_3 H 0.813254 0.478327 0.467217
H25_3 H 0.926877 0.366218 0.469219
H26_3 H 0.952952 0.367463 0.566612
H27_3 H 0.975352 0.368532 0.46417
H28_3 H 0.785269 0.31772 0.0326148
H30_3 H 0.749412 0.284956 0.0340553
H37_3 H 0.97684 0.288012 0.123909
C5_6 C 0.8576(5) 0.2140(6) 1.0000
H1_6 H 0.8767 0.1965 1.0000
C6_6 C 0.8025(3) 0.2626(3) 1.0000
C7_6 C 0.7739(5) 0.2939(4) 1.0000
N4_3 N 0.80015(19) 0.26164(18) 0.8404(4)
O14_3 O 0.83790(18) 0.31188(16) 0.8376(3)
O15_3 O 0.8050(2) 0.33235(18) 0.6880(3)
O16_3 O 0.7686(2) 0.28404(19) 0.6945(4)
C25_3 C 0.8123(2) 0.2913(2) 0.8071(4)
C26_3 C 0.7948(3) 0.3024(3) 0.7223(5)
C27_3 C 0.8152(2) 0.2493(2) 0.9230(4)
C28_3 C 0.8448(3) 0.2257(4) 0.9216(6)
C29_3 C 0.8615(4) 0.2127(5) 0.8365(7)
H13_3 H 0.8597 0.2322 0.7930
H14_3 H 0.8873 0.2065 0.8458
H15_3 H 0.8483 0.1911 0.8159
Cu4_3 Cu 0.75907(3) 0.24093(3) 0.76969(8)
H29_3 H 0.766953 0.300984 0.93333
Cu1_4 Cu 0.24093(3) 0.75907(3) 0.23031(8)
Cu2_7 Cu -0.0000 0.66799(4) 0.27477(9)
Cu3_4 Cu 0.15086(7) 0.5000 0.26973(13)
Mn1_4 Mn 0.14686(5) 0.64796(3) 0.24885(8)
N1_4 N 0.19985(19) 0.73836(18) 0.1596(4)
N2_4 N 0.1359(3) 0.5436(2) 0.3395(5)
N3_4 N 0.0442(2) 0.68364(17) 0.3425(4)
O1_4 O 0.16210(18) 0.68812(16) 0.1624(3)
O2_4 O 0.1950(2) 0.66765(18) 0.3120(3)
O3_4 O 0.2314(2) 0.71596(19) 0.3055(4)
O4_4 O 0.1394(2) 0.60547(17) 0.3355(5)
O5_4 O 0.1719(3) 0.60024(18) 0.1799(5)
O6_4 O 0.1714(2) 0.53797(17) 0.1914(5)
O7_4 O 0.0971(2) 0.63704(18) 0.1855(4)
O8_4 O 0.1072(2) 0.68211(18) 0.3244(4)
O9_4 O 0.0347(3) 0.6419(2) 0.2017(4)
C1_4 C 0.1877(2) 0.7087(2) 0.1929(4)
C2_4 C 0.2052(3) 0.6976(3) 0.2777(5)
C3_4 C 0.1848(2) 0.7507(2) 0.0770(4)
C4_4 C 0.1552(3) 0.7743(4) 0.0784(6)
C5_7 C 0.1424(5) 0.7860(6) 0.0000
H1_7 H 0.1233 0.8035 0.0000
C6_7 C 0.1975(3) 0.7374(3) 0.0000
C7_7 C 0.2261(5) 0.7061(4) 0.0000
C8_4 C 0.1385(4) 0.7873(5) 0.1635(7)
H2_4 H 0.1403 0.7678 0.2070
H3_4 H 0.1127 0.7935 0.1542
H4_4 H 0.1517 0.8089 0.1841
C9_4 C 0.1452(3) 0.5742(3) 0.3043(7)
C10_4 C 0.1626(4) 0.5711(3) 0.2155(7)
C11_4 C 0.1147(3) 0.5451(2) 0.4216(5)
C12_4 C 0.0776(3) 0.5476(2) 0.4212(5)
C13_4 C 0.0609(4) 0.5483(3) 0.5000
H5_4 H 0.0349 0.5494 0.5000
C14_4 C 0.1342(5) 0.5456(4) 0.5000
C15_4 C 0.1766(4) 0.5460(5) 0.5000
C16_4 C 0.0576(3) 0.5501(3) 0.3342(7)
H6_4 H 0.0633 0.5734 0.3061
H7_4 H 0.0312 0.5485 0.3441
H8_4 H 0.0653 0.5299 0.2967
C17_4 C 0.0675(5) 0.6472(3) 0.2228(6)
C18_4 C 0.0742(4) 0.6743(2) 0.3039(5)
C19_4 C 0.0463(2) 0.7040(2) 0.4221(4)
C20_4 C 0.0477(3) 0.7419(2) 0.4205(5)
C21_4 C 0.0483(4) 0.7601(3) 0.5000
H9_4 H 0.0490 0.7861 0.5000
C22_4 C 0.0458(4) 0.6844(3) 0.5000
C23_4 C 0.0478(5) 0.6425(3) 0.5000
C24_4 C 0.0497(4) 0.7628(2) 0.3336(6)
H10_4 H 0.0729 0.7574 0.3047
H11_4 H 0.0480 0.7891 0.3447
H12_4 H 0.0294 0.7552 0.2962
O10_4 O 0.2067(2) 0.7933(2) 0.3421(6)
O11_7 O 0.0000 0.7138(3) 0.1572(7)
O12_4 O 0.0987(4) 0.5000 0.1522(7)
O13_4 O 0.2251(5) 0.5000 0.3077(12)
N5_4 N 0.1359(3) 0.5436(2) 0.6605(5)
O17_4 O 0.1394(2) 0.60547(17) 0.6645(5)
O18_4 O 0.1719(3) 0.60024(18) 0.8201(5)
O19_4 O 0.1714(2) 0.53797(17) 0.8086(5)
C30_4 C 0.1452(3) 0.5742(3) 0.6957(7)
C31_4 C 0.1626(4) 0.5711(3) 0.7845(7)
C32_4 C 0.1147(3) 0.5451(2) 0.5784(5)
C33_4 C 0.0776(3) 0.5476(2) 0.5788(5)
C34_4 C 0.0576(3) 0.5501(3) 0.6658(7)
H16_4 H 0.0633 0.5734 0.6939
H17_4 H 0.0312 0.5485 0.6559
H18_4 H 0.0653 0.5299 0.7033
N6_4 N 0.0442(2) 0.68364(17) 0.6575(4)
O20_4 O 0.0971(2) 0.63704(18) 0.8145(4)
O21_4 O 0.1072(2) 0.68211(18) 0.6756(4)
O22_4 O 0.0347(3) 0.6419(2) 0.7983(4)
C35_4 C 0.0675(5) 0.6472(3) 0.7772(6)
C36_4 C 0.0742(4) 0.6743(2) 0.6961(5)
C37_4 C 0.0463(2) 0.7040(2) 0.5779(4)
C38_4 C 0.0477(3) 0.7419(2) 0.5795(5)
C39_4 C 0.0497(4) 0.7628(2) 0.6664(6)
H19_4 H 0.0729 0.7574 0.6953
H20_4 H 0.0480 0.7891 0.6553
H21_4 H 0.0294 0.7552 0.7038
Cu5_7 Cu 0.0000 0.66799(4) 0.72523(9)
Cu6_4 Cu 0.15086(7) 0.5000 0.73027(13)
Mn3_4 Mn 0.14686(5) 0.64796(3) 0.75115(8)
N7_4 N 0.26164(18) 0.80015(19) 0.1596(4)
N8_4 N 0.1359(3) 0.4564(2) 0.3395(5)
O23_4 O 0.28404(19) 0.7686(2) 0.3055(4)
O26_4 O 0.1714(2) 0.46203(17) 0.1914(5)
H22_4 H 0.186287 0.570245 0.466111
H23_4 H 0.186513 0.546362 0.566672
H24_4 H 0.186746 0.521673 0.467217
H25_4 H 0.0731225 0.633782 0.469219
H26_4 H 0.047048 0.632537 0.566612
H27_4 H 0.0246477 0.631468 0.46417
H28_4 H 0.214731 0.68228 0.0326148
H30_4 H 0.250588 0.715044 0.0340553
H37_4 H 0.0231595 0.711988 0.123909
C5_8 C 0.1424(5) 0.7860(6) 1.0000
H1_8 H 0.1233 0.8035 1.0000
C6_8 C 0.1975(3) 0.7374(3) 1.0000
C7_8 C 0.2261(5) 0.7061(4) 1.0000
N4_4 N 0.19985(19) 0.73836(18) 0.8404(4)
O14_4 O 0.16210(18) 0.68812(16) 0.8376(3)
O15_4 O 0.1950(2) 0.66765(18) 0.6880(3)
O16_4 O 0.2314(2) 0.71596(19) 0.6945(4)
C25_4 C 0.1877(2) 0.7087(2) 0.8071(4)
C26_4 C 0.2052(3) 0.6976(3) 0.7223(5)
C27_4 C 0.1848(2) 0.7507(2) 0.9230(4)
C28_4 C 0.1552(3) 0.7743(4) 0.9216(6)
C29_4 C 0.1385(4) 0.7873(5) 0.8365(7)
H13_4 H 0.1403 0.7678 0.7930
H14_4 H 0.1127 0.7935 0.8458
H15_4 H 0.1517 0.8089 0.8159
Cu4_4 Cu 0.24093(3) 0.75907(3) 0.76969(8)
H29_4 H 0.233047 0.699016 0.93333
Cu2_8 Cu 1.0000 0.66799(4) 0.27477(9)
O11_8 O 1.0000 0.7138(3) 0.1572(7)
Cu5_8 Cu 1.0000 0.66799(4) 0.72523(9)
N9_4 N 0.9558(2) 0.68364(17) 0.3425(4)
O29_4 O 0.9653(3) 0.6419(2) 0.2017(4)
H38_4 H 0.979028 0.709209 0.117788
C5_9 C 0.7860(6) 0.1424(5) 0.0000
H1_9 H 0.8035 0.1233 0.0000
C6_9 C 0.7374(3) 0.1975(3) 0.0000
C7_9 C 0.7061(4) 0.2261(5) 0.0000
O14_5 O 0.68812(16) 0.16210(18) 0.1624(3)
O15_5 O 0.66765(18) 0.1950(2) 0.3120(3)
C25_5 C 0.7087(2) 0.1877(2) 0.1929(4)
C26_5 C 0.6976(3) 0.2052(3) 0.2777(5)
C27_5 C 0.7507(2) 0.1848(2) 0.0770(4)
C28_5 C 0.7743(4) 0.1552(3) 0.0784(6)
C29_5 C 0.7873(5) 0.1385(4) 0.1635(7)
H13_5 H 0.7678 0.1403 0.2070
H14_5 H 0.7935 0.1127 0.1542
H15_5 H 0.8089 0.1517 0.1841
Mn2 Mn 0.64796(3) 0.14686(5) 0.24885(8)
O24 O 0.60547(17) 0.1394(2) 0.3355(5)
O25 O 0.60024(18) 0.1719(3) 0.1799(5)
O27 O 0.63704(18) 0.0971(2) 0.1855(4)
O28 O 0.68211(18) 0.1072(2) 0.3244(4)
H29_5 H 0.699016 0.233047 0.0666701
Mn1_5 Mn 0.64796(3) 0.14686(5) 0.75115(8)
N1_5 N 0.73836(18) 0.19985(19) 0.8404(4)
N2_5 N 0.5436(2) 0.1359(3) 0.6605(5)
N3_5 N 0.68364(17) 0.0442(2) 0.6575(4)
O1_5 O 0.68812(16) 0.16210(18) 0.8376(3)
O2_5 O 0.66765(18) 0.1950(2) 0.6880(3)
O3_5 O 0.71596(19) 0.2314(2) 0.6945(4)
O4_5 O 0.60547(17) 0.1394(2) 0.6645(5)
O5_5 O 0.60024(18) 0.1719(3) 0.8201(5)
O6_5 O 0.53797(17) 0.1714(2) 0.8086(5)
O7_5 O 0.63704(18) 0.0971(2) 0.8145(4)
O8_5 O 0.68211(18) 0.1072(2) 0.6756(4)
O9_5 O 0.6419(2) 0.0347(3) 0.7983(4)
C1_5 C 0.7087(2) 0.1877(2) 0.8071(4)
C2_5 C 0.6976(3) 0.2052(3) 0.7223(5)
C3_5 C 0.7507(2) 0.1848(2) 0.9230(4)
C4_5 C 0.7743(4) 0.1552(3) 0.9216(6)
C5_10 C 0.7860(6) 0.1424(5) 1.0000
H1_10 H 0.8035 0.1233 1.0000
C6_10 C 0.7374(3) 0.1975(3) 1.0000
C7_10 C 0.7061(4) 0.2261(5) 1.0000
C8_5 C 0.7873(5) 0.1385(4) 0.8365(7)
H2_5 H 0.7678 0.1403 0.7930
H3_5 H 0.7935 0.1127 0.8458
H4_5 H 0.8089 0.1517 0.8159
C9_5 C 0.5742(3) 0.1452(3) 0.6957(7)
C10_5 C 0.5711(3) 0.1626(4) 0.7845(7)
C11_5 C 0.5451(2) 0.1147(3) 0.5784(5)
C12_5 C 0.5476(2) 0.0776(3) 0.5788(5)
C13_5 C 0.5483(3) 0.0609(4) 0.5000
H5_5 H 0.5494 0.0349 0.5000
C14_5 C 0.5456(4) 0.1342(5) 0.5000
C15_5 C 0.5460(5) 0.1766(4) 0.5000
C16_5 C 0.5501(3) 0.0576(3) 0.6658(7)
H6_5 H 0.5734 0.0633 0.6939
H7_5 H 0.5485 0.0312 0.6559
H8_5 H 0.5299 0.0653 0.7033
C17_5 C 0.6472(3) 0.0675(5) 0.7772(6)
C18_5 C 0.6743(2) 0.0742(4) 0.6961(5)
C19_5 C 0.7040(2) 0.0463(2) 0.5779(4)
C20_5 C 0.7419(2) 0.0477(3) 0.5795(5)
C21_5 C 0.7601(3) 0.0483(4) 0.5000
H9_5 H 0.7861 0.0490 0.5000
C22_5 C 0.6844(3) 0.0458(4) 0.5000
C23_5 C 0.6425(3) 0.0478(5) 0.5000
C24_5 C 0.7628(2) 0.0497(4) 0.6664(6)
H10_5 H 0.7574 0.0729 0.6953
H11_5 H 0.7891 0.0480 0.6553
H12_5 H 0.7552 0.0294 0.7038
O10_5 O 0.7933(2) 0.2067(2) 0.6579(6)
O11_9 O 0.7138(3) 0.0000 0.8428(7)
O12_5 O 0.5000 0.0987(4) 0.8478(7)
O13_5 O 0.5000 0.2251(5) 0.6923(12)
C30_5 C 0.5742(3) 0.1452(3) 0.3043(7)
C31_5 C 0.5711(3) 0.1626(4) 0.2155(7)
C32_5 C 0.5451(2) 0.1147(3) 0.4216(5)
C33_5 C 0.5476(2) 0.0776(3) 0.4212(5)
C34_5 C 0.5501(3) 0.0576(3) 0.3342(7)
H16_5 H 0.5734 0.0633 0.3061
H17_5 H 0.5485 0.0312 0.3441
H18_5 H 0.5299 0.0653 0.2967
C35_5 C 0.6472(3) 0.0675(5) 0.2228(6)
C36_5 C 0.6743(2) 0.0742(4) 0.3039(5)
C37_5 C 0.7040(2) 0.0463(2) 0.4221(4)
C38_5 C 0.7419(2) 0.0477(3) 0.4205(5)
C39_5 C 0.7628(2) 0.0497(4) 0.3336(6)
H19_5 H 0.7574 0.0729 0.3047
H20_5 H 0.7891 0.0480 0.3447
H21_5 H 0.7552 0.0294 0.2962
H22_5 H 0.570245 0.186287 0.533889
H23_5 H 0.546362 0.186513 0.433328
H24_5 H 0.521673 0.186746 0.532783
H25_5 H 0.633782 0.0731225 0.530781
H26_5 H 0.632537 0.047048 0.433388
H27_5 H 0.631468 0.0246477 0.53583
H28_5 H 0.68228 0.214731 0.967385
H30_5 H 0.715044 0.250588 0.965945
H37_5 H 0.711988 0.0231595 0.876091
O11_10 O 0.7138(3) 1.0000 0.8428(7)
H38_5 H 0.709209 0.979028 0.882212
O11_11 O 0.2862(3) 0.0000 0.8428(7)
H38_6 H 0.290791 0.0209724 0.882212
C5_11 C 0.2140(6) 0.8576(5) 0.0000
H1_11 H 0.1965 0.8767 0.0000
C6_11 C 0.2626(3) 0.8025(3) 0.0000
C7_11 C 0.2939(4) 0.7739(5) 0.0000
O14_6 O 0.31188(16) 0.83790(18) 0.1624(3)
O15_6 O 0.33235(18) 0.8050(2) 0.3120(3)
C25_6 C 0.2913(2) 0.8123(2) 0.1929(4)
C26_6 C 0.3024(3) 0.7948(3) 0.2777(5)
C27_6 C 0.2493(2) 0.8152(2) 0.0770(4)
C28_6 C 0.2257(4) 0.8448(3) 0.0784(6)
C29_6 C 0.2127(5) 0.8615(4) 0.1635(7)
H13_6 H 0.2322 0.8597 0.2070
H14_6 H 0.2065 0.8873 0.1542
H15_6 H 0.1911 0.8483 0.1841
Mn2_2 Mn 0.35204(3) 0.85314(5) 0.24885(8)
O24_2 O 0.39453(17) 0.8606(2) 0.3355(5)
O25_2 O 0.39976(18) 0.8281(3) 0.1799(5)
O27_2 O 0.36296(18) 0.9029(2) 0.1855(4)
O28_2 O 0.31789(18) 0.8928(2) 0.3244(4)
H29_6 H 0.300984 0.766953 0.0666701
Mn1_6 Mn 0.35204(3) 0.85314(5) 0.75115(8)
N1_6 N 0.26164(18) 0.80015(19) 0.8404(4)
N2_6 N 0.4564(2) 0.8641(3) 0.6605(5)
N3_6 N 0.31636(17) 0.9558(2) 0.6575(4)
O1_6 O 0.31188(16) 0.83790(18) 0.8376(3)
O2_6 O 0.33235(18) 0.8050(2) 0.6880(3)
O3_6 O 0.28404(19) 0.7686(2) 0.6945(4)
O4_6 O 0.39453(17) 0.8606(2) 0.6645(5)
O5_6 O 0.39976(18) 0.8281(3) 0.8201(5)
O6_6 O 0.46203(17) 0.8286(2) 0.8086(5)
O7_6 O 0.36296(18) 0.9029(2) 0.8145(4)
O8_6 O 0.31789(18) 0.8928(2) 0.6756(4)
O9_6 O 0.3581(2) 0.9653(3) 0.7983(4)
C1_6 C 0.2913(2) 0.8123(2) 0.8071(4)
C2_6 C 0.3024(3) 0.7948(3) 0.7223(5)
C3_6 C 0.2493(2) 0.8152(2) 0.9230(4)
C4_6 C 0.2257(4) 0.8448(3) 0.9216(6)
C5_12 C 0.2140(6) 0.8576(5) 1.0000
H1_12 H 0.1965 0.8767 1.0000
C6_12 C 0.2626(3) 0.8025(3) 1.0000
C7_12 C 0.2939(4) 0.7739(5) 1.0000
C8_6 C 0.2127(5) 0.8615(4) 0.8365(7)
H2_6 H 0.2322 0.8597 0.7930
H3_6 H 0.2065 0.8873 0.8458
H4_6 H 0.1911 0.8483 0.8159
C9_6 C 0.4258(3) 0.8548(3) 0.6957(7)
C10_6 C 0.4289(3) 0.8374(4) 0.7845(7)
C11_6 C 0.4549(2) 0.8853(3) 0.5784(5)
C12_6 C 0.4524(2) 0.9224(3) 0.5788(5)
C13_6 C 0.4517(3) 0.9391(4) 0.5000
H5_6 H 0.4506 0.9651 0.5000
C14_6 C 0.4544(4) 0.8658(5) 0.5000
C15_6 C 0.4540(5) 0.8234(4) 0.5000
C16_6 C 0.4499(3) 0.9424(3) 0.6658(7)
H6_6 H 0.4266 0.9367 0.6939
H7_6 H 0.4515 0.9688 0.6559
H8_6 H 0.4701 0.9347 0.7033
C17_6 C 0.3528(3) 0.9325(5) 0.7772(6)
C18_6 C 0.3257(2) 0.9258(4) 0.6961(5)
C19_6 C 0.2960(2) 0.9537(2) 0.5779(4)
C20_6 C 0.2581(2) 0.9523(3) 0.5795(5)
C21_6 C 0.2399(3) 0.9517(4) 0.5000
H9_6 H 0.2139 0.9510 0.5000
C22_6 C 0.3156(3) 0.9542(4) 0.5000
C23_6 C 0.3575(3) 0.9522(5) 0.5000
C24_6 C 0.2372(2) 0.9503(4) 0.6664(6)
H10_6 H 0.2426 0.9271 0.6953
H11_6 H 0.2109 0.9520 0.6553
H12_6 H 0.2448 0.9706 0.7038
O10_6 O 0.2067(2) 0.7933(2) 0.6579(6)
O11_12 O 0.2862(3) 1.0000 0.8428(7)
O12_6 O 0.5000 0.9013(4) 0.8478(7)
O13_6 O 0.5000 0.7749(5) 0.6923(12)
C30_6 C 0.4258(3) 0.8548(3) 0.3043(7)
C31_6 C 0.4289(3) 0.8374(4) 0.2155(7)
C32_6 C 0.4549(2) 0.8853(3) 0.4216(5)
C33_6 C 0.4524(2) 0.9224(3) 0.4212(5)
C34_6 C 0.4499(3) 0.9424(3) 0.3342(7)
H16_6 H 0.4266 0.9367 0.3061
H17_6 H 0.4515 0.9688 0.3441
H18_6 H 0.4701 0.9347 0.2967
C35_6 C 0.3528(3) 0.9325(5) 0.2228(6)
C36_6 C 0.3257(2) 0.9258(4) 0.3039(5)
C37_6 C 0.2960(2) 0.9537(2) 0.4221(4)
C38_6 C 0.2581(2) 0.9523(3) 0.4205(5)
C39_6 C 0.2372(2) 0.9503(4) 0.3336(6)
H19_6 H 0.2426 0.9271 0.3047
H20_6 H 0.2109 0.9520 0.3447
H21_6 H 0.2448 0.9706 0.2962
H22_6 H 0.429755 0.813713 0.533889
H23_6 H 0.453638 0.813487 0.433328
H24_6 H 0.478327 0.813254 0.532783
H25_6 H 0.366218 0.926877 0.530781
H26_6 H 0.367463 0.952952 0.433388
H27_6 H 0.368532 0.975352 0.53583
H28_6 H 0.31772 0.785269 0.967385
H30_6 H 0.284956 0.749412 0.965945
H37_6 H 0.288012 0.97684 0.876091
C5_13 C 0.1424(5) 0.2140(6) 0.0000
H1_13 H 0.1233 0.1965 0.0000
C6_13 C 0.1975(3) 0.2626(3) 0.0000
C7_13 C 0.2261(5) 0.2939(4) 0.0000
O14_7 O 0.16210(18) 0.31188(16) 0.1624(3)
O15_7 O 0.1950(2) 0.33235(18) 0.3120(3)
C25_7 C 0.1877(2) 0.2913(2) 0.1929(4)
C26_7 C 0.2052(3) 0.3024(3) 0.2777(5)
C27_7 C 0.1848(2) 0.2493(2) 0.0770(4)
C28_7 C 0.1552(3) 0.2257(4) 0.0784(6)
C29_7 C 0.1385(4) 0.2127(5) 0.1635(7)
H13_7 H 0.1403 0.2322 0.2070
H14_7 H 0.1127 0.2065 0.1542
H15_7 H 0.1517 0.1911 0.1841
Mn2_3 Mn 0.14686(5) 0.35204(3) 0.24885(8)
O24_3 O 0.1394(2) 0.39453(17) 0.3355(5)
O25_3 O 0.1719(3) 0.39976(18) 0.1799(5)
O27_3 O 0.0971(2) 0.36296(18) 0.1855(4)
O28_3 O 0.1072(2) 0.31789(18) 0.3244(4)
H29_7 H 0.233047 0.300984 0.0666701
Mn1_7 Mn 0.14686(5) 0.35204(3) 0.75115(8)
N1_7 N 0.19985(19) 0.26164(18) 0.8404(4)
N2_7 N 0.1359(3) 0.4564(2) 0.6605(5)
N3_7 N 0.0442(2) 0.31636(17) 0.6575(4)
O1_7 O 0.16210(18) 0.31188(16) 0.8376(3)
O2_7 O 0.1950(2) 0.33235(18) 0.6880(3)
O3_7 O 0.2314(2) 0.28404(19) 0.6945(4)
O4_7 O 0.1394(2) 0.39453(17) 0.6645(5)
O5_7 O 0.1719(3) 0.39976(18) 0.8201(5)
O6_7 O 0.1714(2) 0.46203(17) 0.8086(5)
O7_7 O 0.0971(2) 0.36296(18) 0.8145(4)
O8_7 O 0.1072(2) 0.31789(18) 0.6756(4)
O9_7 O 0.0347(3) 0.3581(2) 0.7983(4)
C1_7 C 0.1877(2) 0.2913(2) 0.8071(4)
C2_7 C 0.2052(3) 0.3024(3) 0.7223(5)
C3_7 C 0.1848(2) 0.2493(2) 0.9230(4)
C4_7 C 0.1552(3) 0.2257(4) 0.9216(6)
C5_14 C 0.1424(5) 0.2140(6) 1.0000
H1_14 H 0.1233 0.1965 1.0000
C6_14 C 0.1975(3) 0.2626(3) 1.0000
C7_14 C 0.2261(5) 0.2939(4) 1.0000
C8_7 C 0.1385(4) 0.2127(5) 0.8365(7)
H2_7 H 0.1403 0.2322 0.7930
H3_7 H 0.1127 0.2065 0.8458
H4_7 H 0.1517 0.1911 0.8159
C9_7 C 0.1452(3) 0.4258(3) 0.6957(7)
C10_7 C 0.1626(4) 0.4289(3) 0.7845(7)
C11_7 C 0.1147(3) 0.4549(2) 0.5784(5)
C12_7 C 0.0776(3) 0.4524(2) 0.5788(5)
C13_7 C 0.0609(4) 0.4517(3) 0.5000
H5_7 H 0.0349 0.4506 0.5000
C14_7 C 0.1342(5) 0.4544(4) 0.5000
C15_7 C 0.1766(4) 0.4540(5) 0.5000
C16_7 C 0.0576(3) 0.4499(3) 0.6658(7)
H6_7 H 0.0633 0.4266 0.6939
H7_7 H 0.0312 0.4515 0.6559
H8_7 H 0.0653 0.4701 0.7033
C17_7 C 0.0675(5) 0.3528(3) 0.7772(6)
C18_7 C 0.0742(4) 0.3257(2) 0.6961(5)
C19_7 C 0.0463(2) 0.2960(2) 0.5779(4)
C20_7 C 0.0477(3) 0.2581(2) 0.5795(5)
C21_7 C 0.0483(4) 0.2399(3) 0.5000
H9_7 H 0.0490 0.2139 0.5000
C22_7 C 0.0458(4) 0.3156(3) 0.5000
C23_7 C 0.0478(5) 0.3575(3) 0.5000
C24_7 C 0.0497(4) 0.2372(2) 0.6664(6)
H10_7 H 0.0729 0.2426 0.6953
H11_7 H 0.0480 0.2109 0.6553
H12_7 H 0.0294 0.2448 0.7038
O10_7 O 0.2067(2) 0.2067(2) 0.6579(6)
O11_13 O -0.0000 0.2862(3) 0.8428(7)
O12_7 O 0.0987(4) 0.5000 0.8478(7)
O13_7 O 0.2251(5) 0.5000 0.6923(12)
C30_7 C 0.1452(3) 0.4258(3) 0.3043(7)
C31_7 C 0.1626(4) 0.4289(3) 0.2155(7)
C32_7 C 0.1147(3) 0.4549(2) 0.4216(5)
C33_7 C 0.0776(3) 0.4524(2) 0.4212(5)
C34_7 C 0.0576(3) 0.4499(3) 0.3342(7)
H16_7 H 0.0633 0.4266 0.3061
H17_7 H 0.0312 0.4515 0.3441
H18_7 H 0.0653 0.4701 0.2967
C35_7 C 0.0675(5) 0.3528(3) 0.2228(6)
C36_7 C 0.0742(4) 0.3257(2) 0.3039(5)
C37_7 C 0.0463(2) 0.2960(2) 0.4221(4)
C38_7 C 0.0477(3) 0.2581(2) 0.4205(5)
C39_7 C 0.0497(4) 0.2372(2) 0.3336(6)
H19_7 H 0.0729 0.2426 0.3047
H20_7 H 0.0480 0.2109 0.3447
H21_7 H 0.0294 0.2448 0.2962
H22_7 H 0.186287 0.429755 0.533889
H23_7 H 0.186513 0.453638 0.433328
H24_7 H 0.186746 0.478327 0.532783
H25_7 H 0.0731225 0.366218 0.530781
H26_7 H 0.047048 0.367463 0.433388
H27_7 H 0.0246477 0.368532 0.53583
H28_7 H 0.214731 0.31772 0.967385
H30_7 H 0.250588 0.284956 0.965945
H37_7 H 0.0231595 0.288012 0.876091
O11_14 O 1.0000 0.2862(3) 0.8428(7)
H38_7 H 0.979028 0.290791 0.882212
O11_15 O 0.0000 0.7138(3) 0.8428(7)
H38_8 H 0.0209724 0.709209 0.882212
C5_15 C 0.8576(5) 0.7860(6) 0.0000
H1_15 H 0.8767 0.8035 0.0000
C6_15 C 0.8025(3) 0.7374(3) 0.0000
C7_15 C 0.7739(5) 0.7061(4) 0.0000
O14_8 O 0.83790(18) 0.68812(16) 0.1624(3)
O15_8 O 0.8050(2) 0.66765(18) 0.3120(3)
C25_8 C 0.8123(2) 0.7087(2) 0.1929(4)
C26_8 C 0.7948(3) 0.6976(3) 0.2777(5)
C27_8 C 0.8152(2) 0.7507(2) 0.0770(4)
C28_8 C 0.8448(3) 0.7743(4) 0.0784(6)
C29_8 C 0.8615(4) 0.7873(5) 0.1635(7)
H13_8 H 0.8597 0.7678 0.2070
H14_8 H 0.8873 0.7935 0.1542
H15_8 H 0.8483 0.8089 0.1841
Mn2_4 Mn 0.85314(5) 0.64796(3) 0.24885(8)
O24_4 O 0.8606(2) 0.60547(17) 0.3355(5)
O25_4 O 0.8281(3) 0.60024(18) 0.1799(5)
O27_4 O 0.9029(2) 0.63704(18) 0.1855(4)
O28_4 O 0.8928(2) 0.68211(18) 0.3244(4)
H29_8 H 0.766953 0.699016 0.0666701
Mn1_8 Mn 0.85314(5) 0.64796(3) 0.75115(8)
N1_8 N 0.80015(19) 0.73836(18) 0.8404(4)
N2_8 N 0.8641(3) 0.5436(2) 0.6605(5)
N3_8 N 0.9558(2) 0.68364(17) 0.6575(4)
O1_8 O 0.83790(18) 0.68812(16) 0.8376(3)
O2_8 O 0.8050(2) 0.66765(18) 0.6880(3)
O3_8 O 0.7686(2) 0.71596(19) 0.6945(4)
O4_8 O 0.8606(2) 0.60547(17) 0.6645(5)
O5_8 O 0.8281(3) 0.60024(18) 0.8201(5)
O6_8 O 0.8286(2) 0.53797(17) 0.8086(5)
O7_8 O 0.9029(2) 0.63704(18) 0.8145(4)
O8_8 O 0.8928(2) 0.68211(18) 0.6756(4)
O9_8 O 0.9653(3) 0.6419(2) 0.7983(4)
C1_8 C 0.8123(2) 0.7087(2) 0.8071(4)
C2_8 C 0.7948(3) 0.6976(3) 0.7223(5)
C3_8 C 0.8152(2) 0.7507(2) 0.9230(4)
C4_8 C 0.8448(3) 0.7743(4) 0.9216(6)
C5_16 C 0.8576(5) 0.7860(6) 1.0000
H1_16 H 0.8767 0.8035 1.0000
C6_16 C 0.8025(3) 0.7374(3) 1.0000
C7_16 C 0.7739(5) 0.7061(4) 1.0000
C8_8 C 0.8615(4) 0.7873(5) 0.8365(7)
H2_8 H 0.8597 0.7678 0.7930
H3_8 H 0.8873 0.7935 0.8458
H4_8 H 0.8483 0.8089 0.8159
C9_8 C 0.8548(3) 0.5742(3) 0.6957(7)
C10_8 C 0.8374(4) 0.5711(3) 0.7845(7)
C11_8 C 0.8853(3) 0.5451(2) 0.5784(5)
C12_8 C 0.9224(3) 0.5476(2) 0.5788(5)
C13_8 C 0.9391(4) 0.5483(3) 0.5000
H5_8 H 0.9651 0.5494 0.5000
C14_8 C 0.8658(5) 0.5456(4) 0.5000
C15_8 C 0.8234(4) 0.5460(5) 0.5000
C16_8 C 0.9424(3) 0.5501(3) 0.6658(7)
H6_8 H 0.9367 0.5734 0.6939
H7_8 H 0.9688 0.5485 0.6559
H8_8 H 0.9347 0.5299 0.7033
C17_8 C 0.9325(5) 0.6472(3) 0.7772(6)
C18_8 C 0.9258(4) 0.6743(2) 0.6961(5)
C19_8 C 0.9537(2) 0.7040(2) 0.5779(4)
C20_8 C 0.9523(3) 0.7419(2) 0.5795(5)
C21_8 C 0.9517(4) 0.7601(3) 0.5000
H9_8 H 0.9510 0.7861 0.5000
C22_8 C 0.9542(4) 0.6844(3) 0.5000
C23_8 C 0.9522(5) 0.6425(3) 0.5000
C24_8 C 0.9503(4) 0.7628(2) 0.6664(6)
H10_8 H 0.9271 0.7574 0.6953
H11_8 H 0.9520 0.7891 0.6553
H12_8 H 0.9706 0.7552 0.7038
O10_8 O 0.7933(2) 0.7933(2) 0.6579(6)
O11_16 O 1.0000 0.7138(3) 0.8428(7)
O12_8 O 0.9013(4) 0.5000 0.8478(7)
O13_8 O 0.7749(5) 0.5000 0.6923(12)
C30_8 C 0.8548(3) 0.5742(3) 0.3043(7)
C31_8 C 0.8374(4) 0.5711(3) 0.2155(7)
C32_8 C 0.8853(3) 0.5451(2) 0.4216(5)
C33_8 C 0.9224(3) 0.5476(2) 0.4212(5)
C34_8 C 0.9424(3) 0.5501(3) 0.3342(7)
H16_8 H 0.9367 0.5734 0.3061
H17_8 H 0.9688 0.5485 0.3441
H18_8 H 0.9347 0.5299 0.2967
C35_8 C 0.9325(5) 0.6472(3) 0.2228(6)
C36_8 C 0.9258(4) 0.6743(2) 0.3039(5)
C37_8 C 0.9537(2) 0.7040(2) 0.4221(4)
C38_8 C 0.9523(3) 0.7419(2) 0.4205(5)
C39_8 C 0.9503(4) 0.7628(2) 0.3336(6)
H19_8 H 0.9271 0.7574 0.3047
H20_8 H 0.9520 0.7891 0.3447
H21_8 H 0.9706 0.7552 0.2962
H22_8 H 0.813713 0.570245 0.533889
H23_8 H 0.813487 0.546362 0.433328
H24_8 H 0.813254 0.521673 0.532783
H25_8 H 0.926877 0.633782 0.530781
H26_8 H 0.952952 0.632537 0.433388
H27_8 H 0.975352 0.631468 0.53583
H28_8 H 0.785269 0.68228 0.967385
H30_8 H 0.749412 0.715044 0.965945
H37_8 H 0.97684 0.711988 0.876091
H38_9 H 0.709209 0.0209724 0.882212
H29_9 H 0.699016 0.766953 0.0666701
H22_9 H 0.570245 0.813713 0.533889
H23_9 H 0.546362 0.813487 0.433328
H24_9 H 0.521673 0.813254 0.532783
H25_9 H 0.633782 0.926877 0.530781
H26_9 H 0.632537 0.952952 0.433388
H27_9 H 0.631468 0.975352 0.53583
H28_9 H 0.68228 0.785269 0.967385
H30_9 H 0.715044 0.749412 0.965945
H37_9 H 0.711988 0.97684 0.876091
H29_10 H 0.300984 0.233047 0.0666701
H22_10 H 0.429755 0.186287 0.533889
H23_10 H 0.453638 0.186513 0.433328
H24_10 H 0.478327 0.186746 0.532783
H25_10 H 0.366218 0.0731225 0.530781
H26_10 H 0.367463 0.047048 0.433388
H27_10 H 0.368532 0.0246477 0.53583
H28_10 H 0.31772 0.214731 0.967385
H30_10 H 0.284956 0.250588 0.965945
H37_10 H 0.288012 0.0231595 0.876091
H38_10 H 0.290791 0.979028 0.882212
H29_11 H 0.233047 0.699016 0.0666701
H22_11 H 0.186287 0.570245 0.533889
H23_11 H 0.186513 0.546362 0.433328
H24_11 H 0.186746 0.521673 0.532783
H25_11 H 0.0731225 0.633782 0.530781
H26_11 H 0.047048 0.632537 0.433388
H27_11 H 0.0246477 0.631468 0.53583
H28_11 H 0.214731 0.68228 0.967385
H30_11 H 0.250588 0.715044 0.965945
H37_11 H 0.0231595 0.711988 0.876091
H38_11 H 0.979028 0.709209 0.882212
H38_12 H 0.0209724 0.290791 0.882212
H29_12 H 0.766953 0.300984 0.0666701
H22_12 H 0.813713 0.429755 0.533889
H23_12 H 0.813487 0.453638 0.433328
H24_12 H 0.813254 0.478327 0.532783
H25_12 H 0.926877 0.366218 0.530781
H26_12 H 0.952952 0.367463 0.433388
H27_12 H 0.975352 0.368532 0.53583
H28_12 H 0.785269 0.31772 0.967385
H30_12 H 0.749412 0.284956 0.965945
H37_12 H 0.97684 0.288012 0.876091
H38_13 H 0.290791 0.0209724 0.117788
H22_13 H 0.429755 0.813713 0.466111
H23_13 H 0.453638 0.813487 0.566672
H24_13 H 0.478327 0.813254 0.467217
H25_13 H 0.366218 0.926877 0.469219
H26_13 H 0.367463 0.952952 0.566612
H27_13 H 0.368532 0.975352 0.46417
H28_13 H 0.31772 0.785269 0.0326148
H30_13 H 0.284956 0.749412 0.0340553
H37_13 H 0.288012 0.97684 0.123909
H29_13 H 0.300984 0.766953 0.93333
H22_14 H 0.570245 0.186287 0.466111
H23_14 H 0.546362 0.186513 0.566672
H24_14 H 0.521673 0.186746 0.467217
H25_14 H 0.633782 0.0731225 0.469219
H26_14 H 0.632537 0.047048 0.566612
H27_14 H 0.631468 0.0246477 0.46417
H28_14 H 0.68228 0.214731 0.0326148
H30_14 H 0.715044 0.250588 0.0340553
H37_14 H 0.711988 0.0231595 0.123909
H29_14 H 0.699016 0.233047 0.93333
H38_14 H 0.709209 0.979028 0.117788
H38_15 H 0.0209724 0.709209 0.117788
H22_15 H 0.813713 0.570245 0.466111
H23_15 H 0.813487 0.546362 0.566672
H24_15 H 0.813254 0.521673 0.467217
H25_15 H 0.926877 0.633782 0.469219
H26_15 H 0.952952 0.632537 0.566612
H27_15 H 0.975352 0.631468 0.46417
H28_15 H 0.785269 0.68228 0.0326148
H30_15 H 0.749412 0.715044 0.0340553
H37_15 H 0.97684 0.711988 0.123909
H29_15 H 0.766953 0.699016 0.93333
H22_16 H 0.186287 0.429755 0.466111
H23_16 H 0.186513 0.453638 0.566672
H24_16 H 0.186746 0.478327 0.467217
H25_16 H 0.0731225 0.366218 0.469219
H26_16 H 0.047048 0.367463 0.566612
H27_16 H 0.0246477 0.368532 0.46417
H28_16 H 0.214731 0.31772 0.0326148
H30_16 H 0.250588 0.284956 0.0340553
H37_16 H 0.0231595 0.288012 0.123909
H29_16 H 0.233047 0.300984 0.93333
H38_16 H 0.979028 0.290791 0.117788
loop_
_geom_bond_atom_site_label_1
_geom_bond_atom_site_label_2
_geom_bond_site_symmetry_1
_geom_bond_site_symmetry_2
Cu1 N1 1_555 1_555
Cu2 N3 1_555 1_555
Cu3 N2 1_555 1_555
Mn1 O1 1_555 1_555
N1 C1 1_555 1_555
N2 C9 1_555 1_555
N3 C18 1_555 1_555
O1 C1 1_555 1_555
O2 Mn1 1_555 1_555
O3 Cu1 1_555 1_555
O4 Mn1 1_555 1_555
O5 Mn1 1_555 1_555
O6 Cu3 1_555 1_555
O7 Mn1 1_555 1_555
O8 Mn1 1_555 1_555
O9 Cu2 1_555 1_555
C1 C2 1_555 1_555
C2 O2 1_555 1_555
C3 N1 1_555 1_555
C4 C3 1_555 1_555
C5 C4 1_555 1_555
H1 C5 1_555 1_555
C6 C3 1_555 1_555
C7 C6 1_555 1_555
C8 C4 1_555 1_555
H2 C8 1_555 1_555
H3 C8 1_555 1_555
H4 C8 1_555 1_555
C9 O4 1_555 1_555
C10 O5 1_555 1_555
C11 N2 1_555 1_555
C12 C11 1_555 1_555
C13 C12 1_555 1_555
H5 C13 1_555 1_555
C14 C11 1_555 1_555
C15 C14 1_555 1_555
C16 C12 1_555 1_555
H6 C16 1_555 1_555
H7 C16 1_555 1_555
H8 C16 1_555 1_555
C17 O7 1_555 1_555
C18 O8 1_555 1_555
C19 N3 1_555 1_555
C20 C19 1_555 1_555
C21 C20 1_555 1_555
H9 C21 1_555 1_555
C22 C19 1_555 1_555
C23 C22 1_555 1_555
C24 C20 1_555 1_555
H10 C24 1_555 1_555
H11 C24 1_555 1_555
H12 C24 1_555 1_555
O10 Cu1 1_555 1_555
O11 Cu2 1_555 1_555
O12 Cu3 1_555 1_555
O13 Cu3 1_555 1_555
N5 C30 1_555 1_555
O17 C30 1_555 1_555
O18 C31 1_555 1_555
O19 C31 1_555 1_555
C30 C31 1_555 1_555
C32 C14 1_555 1_555
C33 C13 1_555 1_555
C34 C33 1_555 1_555
H16 C34 1_555 1_555
H17 C34 1_555 1_555
H18 C34 1_555 1_555
N6 C36 1_555 1_555
O20 C35 1_555 1_555
O21 C36 1_555 1_555
O22 C35 1_555 1_555
C35 C36 1_555 1_555
C37 C22 1_555 1_555
C38 C21 1_555 1_555
C39 C38 1_555 1_555
H19 C39 1_555 1_555
H20 C39 1_555 1_555
H21 C39 1_555 1_555
Cu5 N6 1_555 1_555
Cu6 N5 1_555 1_555
Mn3 O17 1_555 1_555
N7 Cu1 1_555 1_555
N8 Cu3 1_555 1_555
O23 Cu1 1_555 1_555
O26 Cu3 1_555 1_555
O3 C2 1_555 1_555
O6 C10 1_555 1_555
O9 C17 1_555 1_555
C9 C10 1_555 1_555
C17 C18 1_555 1_555
N5 C32 1_555 1_555
O18 Mn3 1_555 1_555
O19 Cu6 1_555 1_555
C32 C33 1_555 1_555
N6 C37 1_555 1_555
O20 Mn3 1_555 1_555
O21 Mn3 1_555 1_555
O22 Cu5 1_555 1_555
C37 C38 1_555 1_555
C15 H22 1_555 1_555
C15 H23 1_555 1_555
C15 H24 1_555 1_555
C23 H25 1_555 1_555
C23 H26 1_555 1_555
C23 H27 1_555 1_555
C7 H28 1_555 1_555
C7 H30 1_555 1_555
O11 H37 1_555 1_555
H1_2 C5_2 1_555 1_555
C7_2 C6_2 1_555 1_555
N4 C25 1_555 1_555
O14 C25 1_555 1_555
O15 C26 1_555 1_555
O16 C26 1_555 1_555
C25 C26 1_555 1_555
C27 C6_2 1_555 1_555
C28 C5_2 1_555 1_555
C29 C28 1_555 1_555
H13 C29 1_555 1_555
H14 C29 1_555 1_555
H15 C29 1_555 1_555
Mn3 O14 1_555 1_555
Cu4 N4 1_555 1_555
N4 C27 1_555 1_555
O15 Mn3 1_555 1_555
O16 Cu4 1_555 1_555
C27 C28 1_555 1_555
C7_2 H29 1_555 1_555
O11_2 Cu2_2 1_555 1_555
N9 Cu2_2 1_555 1_555
O29 Cu2_2 1_555 1_555
O11_2 H38 1_555 1_555
O11_3 Cu2_3 1_555 1_555
N9_2 Cu2_3 1_555 1_555
O29_2 Cu2_3 1_555 1_555
O11_3 H38_2 1_555 1_555
Cu1_2 N1_2 1_555 1_555
Cu2_4 N3_2 1_555 1_555
Cu3_2 N2_2 1_555 1_555
Mn1_2 O1_2 1_555 1_555
N1_2 C1_2 1_555 1_555
N2_2 C9_2 1_555 1_555
N3_2 C18_2 1_555 1_555
O1_2 C1_2 1_555 1_555
O2_2 Mn1_2 1_555 1_555
O3_2 Cu1_2 1_555 1_555
O4_2 Mn1_2 1_555 1_555
O5_2 Mn1_2 1_555 1_555
O6_2 Cu3_2 1_555 1_555
O7_2 Mn1_2 1_555 1_555
O8_2 Mn1_2 1_555 1_555
O9_2 Cu2_4 1_555 1_555
C1_2 C2_2 1_555 1_555
C2_2 O2_2 1_555 1_555
C3_2 N1_2 1_555 1_555
C4_2 C3_2 1_555 1_555
C5_3 C4_2 1_555 1_555
H1_3 C5_3 1_555 1_555
C6_3 C3_2 1_555 1_555
C7_3 C6_3 1_555 1_555
C8_2 C4_2 1_555 1_555
H2_2 C8_2 1_555 1_555
H3_2 C8_2 1_555 1_555
H4_2 C8_2 1_555 1_555
C9_2 O4_2 1_555 1_555
C10_2 O5_2 1_555 1_555
C11_2 N2_2 1_555 1_555
C12_2 C11_2 1_555 1_555
C13_2 C12_2 1_555 1_555
H5_2 C13_2 1_555 1_555
C14_2 C11_2 1_555 1_555
C15_2 C14_2 1_555 1_555
C16_2 C12_2 1_555 1_555
H6_2 C16_2 1_555 1_555
H7_2 C16_2 1_555 1_555
H8_2 C16_2 1_555 1_555
C17_2 O7_2 1_555 1_555
C18_2 O8_2 1_555 1_555
C19_2 N3_2 1_555 1_555
C20_2 C19_2 1_555 1_555
C21_2 C20_2 1_555 1_555
H9_2 C21_2 1_555 1_555
C22_2 C19_2 1_555 1_555
C23_2 C22_2 1_555 1_555
C24_2 C20_2 1_555 1_555
H10_2 C24_2 1_555 1_555
H11_2 C24_2 1_555 1_555
H12_2 C24_2 1_555 1_555
O10_2 Cu1_2 1_555 1_555
O11_4 Cu2_4 1_555 1_555
O12_2 Cu3_2 1_555 1_555
O13_2 Cu3_2 1_555 1_555
N5_2 C30_2 1_555 1_555
O17_2 C30_2 1_555 1_555
O18_2 C31_2 1_555 1_555
O19_2 C31_2 1_555 1_555
C30_2 C31_2 1_555 1_555
C32_2 C14_2 1_555 1_555
C33_2 C13_2 1_555 1_555
C34_2 C33_2 1_555 1_555
H16_2 C34_2 1_555 1_555
H17_2 C34_2 1_555 1_555
H18_2 C34_2 1_555 1_555
N6_2 C36_2 1_555 1_555
O20_2 C35_2 1_555 1_555
O21_2 C36_2 1_555 1_555
O22_2 C35_2 1_555 1_555
C35_2 C36_2 1_555 1_555
C37_2 C22_2 1_555 1_555
C38_2 C21_2 1_555 1_555
C39_2 C38_2 1_555 1_555
H19_2 C39_2 1_555 1_555
H20_2 C39_2 1_555 1_555
H21_2 C39_2 1_555 1_555
Cu5_4 N6_2 1_555 1_555
Cu6_2 N5_2 1_555 1_555
Mn3_2 O17_2 1_555 1_555
N7_2 Cu1_2 1_555 1_555
N8_2 Cu3_2 1_555 1_555
O23_2 Cu1_2 1_555 1_555
O26_2 Cu3_2 1_555 1_555
O3_2 C2_2 1_555 1_555
O6_2 C10_2 1_555 1_555
O9_2 C17_2 1_555 1_555
C9_2 C10_2 1_555 1_555
C17_2 C18_2 1_555 1_555
N5_2 C32_2 1_555 1_555
O18_2 Mn3_2 1_555 1_555
O19_2 Cu6_2 1_555 1_555
C32_2 C33_2 1_555 1_555
N6_2 C37_2 1_555 1_555
O20_2 Mn3_2 1_555 1_555
O21_2 Mn3_2 1_555 1_555
O22_2 Cu5_4 1_555 1_555
C37_2 C38_2 1_555 1_555
C15_2 H22_2 1_555 1_555
C15_2 H23_2 1_555 1_555
C15_2 H24_2 1_555 1_555
C23_2 H25_2 1_555 1_555
C23_2 H26_2 1_555 1_555
C23_2 H27_2 1_555 1_555
C7_3 H28_2 1_555 1_555
C7_3 H30_2 1_555 1_555
O11_4 H37_2 1_555 1_555
H1_4 C5_4 1_555 1_555
C7_4 C6_4 1_555 1_555
N4_2 C25_2 1_555 1_555
O14_2 C25_2 1_555 1_555
O15_2 C26_2 1_555 1_555
O16_2 C26_2 1_555 1_555
C25_2 C26_2 1_555 1_555
C27_2 C6_4 1_555 1_555
C28_2 C5_4 1_555 1_555
C29_2 C28_2 1_555 1_555
H13_2 C29_2 1_555 1_555
H14_2 C29_2 1_555 1_555
H15_2 C29_2 1_555 1_555
Mn3_2 O14_2 1_555 1_555
Cu4_2 N4_2 1_555 1_555
N4_2 C27_2 1_555 1_555
O15_2 Mn3_2 1_555 1_555
O16_2 Cu4_2 1_555 1_555
C27_2 C28_2 1_555 1_555
C7_4 H29_2 1_555 1_555
O11_5 Cu2_5 1_555 1_555
N9_3 Cu2_5 1_555 1_555
O29_3 Cu2_5 1_555 1_555
O11_5 H38_3 1_555 1_555
Cu1_3 N1_3 1_555 1_555
Cu2_6 N3_3 1_555 1_555
Cu3_3 N2_3 1_555 1_555
Mn1_3 O1_3 1_555 1_555
N1_3 C1_3 1_555 1_555
N2_3 C9_3 1_555 1_555
N3_3 C18_3 1_555 1_555
O1_3 C1_3 1_555 1_555
O2_3 Mn1_3 1_555 1_555
O3_3 Cu1_3 1_555 1_555
O4_3 Mn1_3 1_555 1_555
O5_3 Mn1_3 1_555 1_555
O6_3 Cu3_3 1_555 1_555
O7_3 Mn1_3 1_555 1_555
O8_3 Mn1_3 1_555 1_555
O9_3 Cu2_6 1_555 1_555
C1_3 C2_3 1_555 1_555
C2_3 O2_3 1_555 1_555
C3_3 N1_3 1_555 1_555
C4_3 C3_3 1_555 1_555
C5_5 C4_3 1_555 1_555
H1_5 C5_5 1_555 1_555
C6_5 C3_3 1_555 1_555
C7_5 C6_5 1_555 1_555
C8_3 C4_3 1_555 1_555
H2_3 C8_3 1_555 1_555
H3_3 C8_3 1_555 1_555
H4_3 C8_3 1_555 1_555
C9_3 O4_3 1_555 1_555
C10_3 O5_3 1_555 1_555
C11_3 N2_3 1_555 1_555
C12_3 C11_3 1_555 1_555
C13_3 C12_3 1_555 1_555
H5_3 C13_3 1_555 1_555
C14_3 C11_3 1_555 1_555
C15_3 C14_3 1_555 1_555
C16_3 C12_3 1_555 1_555
H6_3 C16_3 1_555 1_555
H7_3 C16_3 1_555 1_555
H8_3 C16_3 1_555 1_555
C17_3 O7_3 1_555 1_555
C18_3 O8_3 1_555 1_555
C19_3 N3_3 1_555 1_555
C20_3 C19_3 1_555 1_555
C21_3 C20_3 1_555 1_555
H9_3 C21_3 1_555 1_555
C22_3 C19_3 1_555 1_555
C23_3 C22_3 1_555 1_555
C24_3 C20_3 1_555 1_555
H10_3 C24_3 1_555 1_555
H11_3 C24_3 1_555 1_555
H12_3 C24_3 1_555 1_555
O10_3 Cu1_3 1_555 1_555
O11_6 Cu2_6 1_555 1_555
O12_3 Cu3_3 1_555 1_555
O13_3 Cu3_3 1_555 1_555
N5_3 C30_3 1_555 1_555
O17_3 C30_3 1_555 1_555
O18_3 C31_3 1_555 1_555
O19_3 C31_3 1_555 1_555
C30_3 C31_3 1_555 1_555
C32_3 C14_3 1_555 1_555
C33_3 C13_3 1_555 1_555
C34_3 C33_3 1_555 1_555
H16_3 C34_3 1_555 1_555
H17_3 C34_3 1_555 1_555
H18_3 C34_3 1_555 1_555
N6_3 C36_3 1_555 1_555
O20_3 C35_3 1_555 1_555
O21_3 C36_3 1_555 1_555
O22_3 C35_3 1_555 1_555
C35_3 C36_3 1_555 1_555
C37_3 C22_3 1_555 1_555
C38_3 C21_3 1_555 1_555
C39_3 C38_3 1_555 1_555
H19_3 C39_3 1_555 1_555
H20_3 C39_3 1_555 1_555
H21_3 C39_3 1_555 1_555
Cu5_6 N6_3 1_555 1_555
Cu6_3 N5_3 1_555 1_555
Mn3_3 O17_3 1_555 1_555
N7_3 Cu1_3 1_555 1_555
N8_3 Cu3_3 1_555 1_555
O23_3 Cu1_3 1_555 1_555
O26_3 Cu3_3 1_555 1_555
O3_3 C2_3 1_555 1_555
O6_3 C10_3 1_555 1_555
O9_3 C17_3 1_555 1_555
C9_3 C10_3 1_555 1_555
C17_3 C18_3 1_555 1_555
N5_3 C32_3 1_555 1_555
O18_3 Mn3_3 1_555 1_555
O19_3 Cu6_3 1_555 1_555
C32_3 C33_3 1_555 1_555
N6_3 C37_3 1_555 1_555
O20_3 Mn3_3 1_555 1_555
O21_3 Mn3_3 1_555 1_555
O22_3 Cu5_6 1_555 1_555
C37_3 C38_3 1_555 1_555
C15_3 H22_3 1_555 1_555
C15_3 H23_3 1_555 1_555
C15_3 H24_3 1_555 1_555
C23_3 H25_3 1_555 1_555
C23_3 H26_3 1_555 1_555
C23_3 H27_3 1_555 1_555
C7_5 H28_3 1_555 1_555
C7_5 H30_3 1_555 1_555
O11_6 H37_3 1_555 1_555
H1_6 C5_6 1_555 1_555
C7_6 C6_6 1_555 1_555
N4_3 C25_3 1_555 1_555
O14_3 C25_3 1_555 1_555
O15_3 C26_3 1_555 1_555
O16_3 C26_3 1_555 1_555
C25_3 C26_3 1_555 1_555
C27_3 C6_6 1_555 1_555
C28_3 C5_6 1_555 1_555
C29_3 C28_3 1_555 1_555
H13_3 C29_3 1_555 1_555
H14_3 C29_3 1_555 1_555
H15_3 C29_3 1_555 1_555
Mn3_3 O14_3 1_555 1_555
Cu4_3 N4_3 1_555 1_555
N4_3 C27_3 1_555 1_555
O15_3 Mn3_3 1_555 1_555
O16_3 Cu4_3 1_555 1_555
C27_3 C28_3 1_555 1_555
C7_6 H29_3 1_555 1_555
Cu1_4 N1_4 1_555 1_555
Cu2_7 N3_4 1_555 1_555
Cu3_4 N2_4 1_555 1_555
Mn1_4 O1_4 1_555 1_555
N1_4 C1_4 1_555 1_555
N2_4 C9_4 1_555 1_555
N3_4 C18_4 1_555 1_555
O1_4 C1_4 1_555 1_555
O2_4 Mn1_4 1_555 1_555
O3_4 Cu1_4 1_555 1_555
O4_4 Mn1_4 1_555 1_555
O5_4 Mn1_4 1_555 1_555
O6_4 Cu3_4 1_555 1_555
O7_4 Mn1_4 1_555 1_555
O8_4 Mn1_4 1_555 1_555
O9_4 Cu2_7 1_555 1_555
C1_4 C2_4 1_555 1_555
C2_4 O2_4 1_555 1_555
C3_4 N1_4 1_555 1_555
C4_4 C3_4 1_555 1_555
C5_7 C4_4 1_555 1_555
H1_7 C5_7 1_555 1_555
C6_7 C3_4 1_555 1_555
C7_7 C6_7 1_555 1_555
C8_4 C4_4 1_555 1_555
H2_4 C8_4 1_555 1_555
H3_4 C8_4 1_555 1_555
H4_4 C8_4 1_555 1_555
C9_4 O4_4 1_555 1_555
C10_4 O5_4 1_555 1_555
C11_4 N2_4 1_555 1_555
C12_4 C11_4 1_555 1_555
C13_4 C12_4 1_555 1_555
H5_4 C13_4 1_555 1_555
C14_4 C11_4 1_555 1_555
C15_4 C14_4 1_555 1_555
C16_4 C12_4 1_555 1_555
H6_4 C16_4 1_555 1_555
H7_4 C16_4 1_555 1_555
H8_4 C16_4 1_555 1_555
C17_4 O7_4 1_555 1_555
C18_4 O8_4 1_555 1_555
C19_4 N3_4 1_555 1_555
C20_4 C19_4 1_555 1_555
C21_4 C20_4 1_555 1_555
H9_4 C21_4 1_555 1_555
C22_4 C19_4 1_555 1_555
C23_4 C22_4 1_555 1_555
C24_4 C20_4 1_555 1_555
H10_4 C24_4 1_555 1_555
H11_4 C24_4 1_555 1_555
H12_4 C24_4 1_555 1_555
O10_4 Cu1_4 1_555 1_555
O11_7 Cu2_7 1_555 1_555
O12_4 Cu3_4 1_555 1_555
O13_4 Cu3_4 1_555 1_555
N5_4 C30_4 1_555 1_555
O17_4 C30_4 1_555 1_555
O18_4 C31_4 1_555 1_555
O19_4 C31_4 1_555 1_555
C30_4 C31_4 1_555 1_555
C32_4 C14_4 1_555 1_555
C33_4 C13_4 1_555 1_555
C34_4 C33_4 1_555 1_555
H16_4 C34_4 1_555 1_555
H17_4 C34_4 1_555 1_555
H18_4 C34_4 1_555 1_555
N6_4 C36_4 1_555 1_555
O20_4 C35_4 1_555 1_555
O21_4 C36_4 1_555 1_555
O22_4 C35_4 1_555 1_555
C35_4 C36_4 1_555 1_555
C37_4 C22_4 1_555 1_555
C38_4 C21_4 1_555 1_555
C39_4 C38_4 1_555 1_555
H19_4 C39_4 1_555 1_555
H20_4 C39_4 1_555 1_555
H21_4 C39_4 1_555 1_555
Cu5_7 N6_4 1_555 1_555
Cu6_4 N5_4 1_555 1_555
Mn3_4 O17_4 1_555 1_555
N7_4 Cu1_4 1_555 1_555
N8_4 Cu3_4 1_555 1_555
O23_4 Cu1_4 1_555 1_555
O26_4 Cu3_4 1_555 1_555
O3_4 C2_4 1_555 1_555
O6_4 C10_4 1_555 1_555
O9_4 C17_4 1_555 1_555
C9_4 C10_4 1_555 1_555
C17_4 C18_4 1_555 1_555
N5_4 C32_4 1_555 1_555
O18_4 Mn3_4 1_555 1_555
O19_4 Cu6_4 1_555 1_555
C32_4 C33_4 1_555 1_555
N6_4 C37_4 1_555 1_555
O20_4 Mn3_4 1_555 1_555
O21_4 Mn3_4 1_555 1_555
O22_4 Cu5_7 1_555 1_555
C37_4 C38_4 1_555 1_555
C15_4 H22_4 1_555 1_555
C15_4 H23_4 1_555 1_555
C15_4 H24_4 1_555 1_555
C23_4 H25_4 1_555 1_555
C23_4 H26_4 1_555 1_555
C23_4 H27_4 1_555 1_555
C7_7 H28_4 1_555 1_555
C7_7 H30_4 1_555 1_555
O11_7 H37_4 1_555 1_555
H1_8 C5_8 1_555 1_555
C7_8 C6_8 1_555 1_555
N4_4 C25_4 1_555 1_555
O14_4 C25_4 1_555 1_555
O15_4 C26_4 1_555 1_555
O16_4 C26_4 1_555 1_555
C25_4 C26_4 1_555 1_555
C27_4 C6_8 1_555 1_555
C28_4 C5_8 1_555 1_555
C29_4 C28_4 1_555 1_555
H13_4 C29_4 1_555 1_555
H14_4 C29_4 1_555 1_555
H15_4 C29_4 1_555 1_555
Mn3_4 O14_4 1_555 1_555
Cu4_4 N4_4 1_555 1_555
N4_4 C27_4 1_555 1_555
O15_4 Mn3_4 1_555 1_555
O16_4 Cu4_4 1_555 1_555
C27_4 C28_4 1_555 1_555
C7_8 H29_4 1_555 1_555
O11_8 Cu2_8 1_555 1_555
N9_4 Cu2_8 1_555 1_555
O29_4 Cu2_8 1_555 1_555
O11_8 H38_4 1_555 1_555
H1_9 C5_9 1_555 1_555
C7_9 C6_9 1_555 1_555
N7_3 C25_5 1_555 1_555
O14_5 C25_5 1_555 1_555
O15_5 C26_5 1_555 1_555
O23_3 C26_5 1_555 1_555
C25_5 C26_5 1_555 1_555
C27_5 C6_9 1_555 1_555
C28_5 C5_9 1_555 1_555
C29_5 C28_5 1_555 1_555
H13_5 C29_5 1_555 1_555
H14_5 C29_5 1_555 1_555
H15_5 C29_5 1_555 1_555
Mn2 O14_5 1_555 1_555
O24 Mn2 1_555 1_555
O25 Mn2 1_555 1_555
O27 Mn2 1_555 1_555
O28 Mn2 1_555 1_555
N7_3 C27_5 1_555 1_555
O15_5 Mn2 1_555 1_555
C27_5 C28_5 1_555 1_555
C7_9 H29_5 1_555 1_555
Cu4_3 N1_5 1_555 1_555
Cu5_3 N3_5 1_555 1_555
Cu6 N2_5 1_555 1_555
Mn1_5 O1_5 1_555 1_555
N1_5 C1_5 1_555 1_555
N2_5 C9_5 1_555 1_555
N3_5 C18_5 1_555 1_555
O1_5 C1_5 1_555 1_555
O2_5 Mn1_5 1_555 1_555
O3_5 Cu4_3 1_555 1_555
O4_5 Mn1_5 1_555 1_555
O5_5 Mn1_5 1_555 1_555
O6_5 Cu6 1_555 1_555
O7_5 Mn1_5 1_555 1_555
O8_5 Mn1_5 1_555 1_555
O9_5 Cu5_3 1_555 1_555
C1_5 C2_5 1_555 1_555
C2_5 O2_5 1_555 1_555
C3_5 N1_5 1_555 1_555
C4_5 C3_5 1_555 1_555
C5_10 C4_5 1_555 1_555
H1_10 C5_10 1_555 1_555
C6_10 C3_5 1_555 1_555
C7_10 C6_10 1_555 1_555
C8_5 C4_5 1_555 1_555
H2_5 C8_5 1_555 1_555
H3_5 C8_5 1_555 1_555
H4_5 C8_5 1_555 1_555
C9_5 O4_5 1_555 1_555
C10_5 O5_5 1_555 1_555
C11_5 N2_5 1_555 1_555
C12_5 C11_5 1_555 1_555
C13_5 C12_5 1_555 1_555
H5_5 C13_5 1_555 1_555
C14_5 C11_5 1_555 1_555
C15_5 C14_5 1_555 1_555
C16_5 C12_5 1_555 1_555
H6_5 C16_5 1_555 1_555
H7_5 C16_5 1_555 1_555
H8_5 C16_5 1_555 1_555
C17_5 O7_5 1_555 1_555
C18_5 O8_5 1_555 1_555
C19_5 N3_5 1_555 1_555
C20_5 C19_5 1_555 1_555
C21_5 C20_5 1_555 1_555
H9_5 C21_5 1_555 1_555
C22_5 C19_5 1_555 1_555
C23_5 C22_5 1_555 1_555
C24_5 C20_5 1_555 1_555
H10_5 C24_5 1_555 1_555
H11_5 C24_5 1_555 1_555
H12_5 C24_5 1_555 1_555
O10_5 Cu4_3 1_555 1_555
O11_9 Cu5_3 1_555 1_555
O12_5 Cu6 1_555 1_555
O13_5 Cu6 1_555 1_555
N8 C30_5 1_555 1_555
O24 C30_5 1_555 1_555
O25 C31_5 1_555 1_555
O26 C31_5 1_555 1_555
C30_5 C31_5 1_555 1_555
C32_5 C14_5 1_555 1_555
C33_5 C13_5 1_555 1_555
C34_5 C33_5 1_555 1_555
H16_5 C34_5 1_555 1_555
H17_5 C34_5 1_555 1_555
H18_5 C34_5 1_555 1_555
N9_2 C36_5 1_555 1_555
O27 C35_5 1_555 1_555
O28 C36_5 1_555 1_555
O29_2 C35_5 1_555 1_555
C35_5 C36_5 1_555 1_555
C37_5 C22_5 1_555 1_555
C38_5 C21_5 1_555 1_555
C39_5 C38_5 1_555 1_555
H19_5 C39_5 1_555 1_555
H20_5 C39_5 1_555 1_555
H21_5 C39_5 1_555 1_555
O3_5 C2_5 1_555 1_555
O6_5 C10_5 1_555 1_555
O9_5 C17_5 1_555 1_555
C9_5 C10_5 1_555 1_555
C17_5 C18_5 1_555 1_555
N8 C32_5 1_555 1_555
C32_5 C33_5 1_555 1_555
N9_2 C37_5 1_555 1_555
C37_5 C38_5 1_555 1_555
C15_5 H22_5 1_555 1_555
C15_5 H23_5 1_555 1_555
C15_5 H24_5 1_555 1_555
C23_5 H25_5 1_555 1_555
C23_5 H26_5 1_555 1_555
C23_5 H27_5 1_555 1_555
C7_10 H28_5 1_555 1_555
C7_10 H30_5 1_555 1_555
O11_9 H37_5 1_555 1_555
O11_10 Cu5_4 1_555 1_555
O11_10 H38_5 1_555 1_555
O11_11 Cu5 1_555 1_555
O11_11 H38_6 1_555 1_555
H1_11 C5_11 1_555 1_555
C7_11 C6_11 1_555 1_555
N7_4 C25_6 1_555 1_555
O14_6 C25_6 1_555 1_555
O15_6 C26_6 1_555 1_555
O23_4 C26_6 1_555 1_555
C25_6 C26_6 1_555 1_555
C27_6 C6_11 1_555 1_555
C28_6 C5_11 1_555 1_555
C29_6 C28_6 1_555 1_555
H13_6 C29_6 1_555 1_555
H14_6 C29_6 1_555 1_555
H15_6 C29_6 1_555 1_555
Mn2_2 O14_6 1_555 1_555
O24_2 Mn2_2 1_555 1_555
O25_2 Mn2_2 1_555 1_555
O27_2 Mn2_2 1_555 1_555
O28_2 Mn2_2 1_555 1_555
N7_4 C27_6 1_555 1_555
O15_6 Mn2_2 1_555 1_555
C27_6 C28_6 1_555 1_555
C7_11 H29_6 1_555 1_555
Cu4_4 N1_6 1_555 1_555
Cu5_2 N3_6 1_555 1_555
Cu6_2 N2_6 1_555 1_555
Mn1_6 O1_6 1_555 1_555
N1_6 C1_6 1_555 1_555
N2_6 C9_6 1_555 1_555
N3_6 C18_6 1_555 1_555
O1_6 C1_6 1_555 1_555
O2_6 Mn1_6 1_555 1_555
O3_6 Cu4_4 1_555 1_555
O4_6 Mn1_6 1_555 1_555
O5_6 Mn1_6 1_555 1_555
O6_6 Cu6_2 1_555 1_555
O7_6 Mn1_6 1_555 1_555
O8_6 Mn1_6 1_555 1_555
O9_6 Cu5_2 1_555 1_555
C1_6 C2_6 1_555 1_555
C2_6 O2_6 1_555 1_555
C3_6 N1_6 1_555 1_555
C4_6 C3_6 1_555 1_555
C5_12 C4_6 1_555 1_555
H1_12 C5_12 1_555 1_555
C6_12 C3_6 1_555 1_555
C7_12 C6_12 1_555 1_555
C8_6 C4_6 1_555 1_555
H2_6 C8_6 1_555 1_555
H3_6 C8_6 1_555 1_555
H4_6 C8_6 1_555 1_555
C9_6 O4_6 1_555 1_555
C10_6 O5_6 1_555 1_555
C11_6 N2_6 1_555 1_555
C12_6 C11_6 1_555 1_555
C13_6 C12_6 1_555 1_555
H5_6 C13_6 1_555 1_555
C14_6 C11_6 1_555 1_555
C15_6 C14_6 1_555 1_555
C16_6 C12_6 1_555 1_555
H6_6 C16_6 1_555 1_555
H7_6 C16_6 1_555 1_555
H8_6 C16_6 1_555 1_555
C17_6 O7_6 1_555 1_555
C18_6 O8_6 1_555 1_555
C19_6 N3_6 1_555 1_555
C20_6 C19_6 1_555 1_555
C21_6 C20_6 1_555 1_555
H9_6 C21_6 1_555 1_555
C22_6 C19_6 1_555 1_555
C23_6 C22_6 1_555 1_555
C24_6 C20_6 1_555 1_555
H10_6 C24_6 1_555 1_555
H11_6 C24_6 1_555 1_555
H12_6 C24_6 1_555 1_555
O10_6 Cu4_4 1_555 1_555
O11_12 Cu5_2 1_555 1_555
O12_6 Cu6_2 1_555 1_555
O13_6 Cu6_2 1_555 1_555
N8_2 C30_6 1_555 1_555
O24_2 C30_6 1_555 1_555
O25_2 C31_6 1_555 1_555
O26_2 C31_6 1_555 1_555
C30_6 C31_6 1_555 1_555
C32_6 C14_6 1_555 1_555
C33_6 C13_6 1_555 1_555
C34_6 C33_6 1_555 1_555
H16_6 C34_6 1_555 1_555
H17_6 C34_6 1_555 1_555
H18_6 C34_6 1_555 1_555
N9 C36_6 1_555 1_555
O27_2 C35_6 1_555 1_555
O28_2 C36_6 1_555 1_555
O29 C35_6 1_555 1_555
C35_6 C36_6 1_555 1_555
C37_6 C22_6 1_555 1_555
C38_6 C21_6 1_555 1_555
C39_6 C38_6 1_555 1_555
H19_6 C39_6 1_555 1_555
H20_6 C39_6 1_555 1_555
H21_6 C39_6 1_555 1_555
O3_6 C2_6 1_555 1_555
O6_6 C10_6 1_555 1_555
O9_6 C17_6 1_555 1_555
C9_6 C10_6 1_555 1_555
C17_6 C18_6 1_555 1_555
N8_2 C32_6 1_555 1_555
C32_6 C33_6 1_555 1_555
N9 C37_6 1_555 1_555
C37_6 C38_6 1_555 1_555
C15_6 H22_6 1_555 1_555
C15_6 H23_6 1_555 1_555
C15_6 H24_6 1_555 1_555
C23_6 H25_6 1_555 1_555
C23_6 H26_6 1_555 1_555
C23_6 H27_6 1_555 1_555
C7_12 H28_6 1_555 1_555
C7_12 H30_6 1_555 1_555
O11_12 H37_6 1_555 1_555
H1_13 C5_13 1_555 1_555
C7_13 C6_13 1_555 1_555
N7 C25_7 1_555 1_555
O14_7 C25_7 1_555 1_555
O15_7 C26_7 1_555 1_555
O23 C26_7 1_555 1_555
C25_7 C26_7 1_555 1_555
C27_7 C6_13 1_555 1_555
C28_7 C5_13 1_555 1_555
C29_7 C28_7 1_555 1_555
H13_7 C29_7 1_555 1_555
H14_7 C29_7 1_555 1_555
H15_7 C29_7 1_555 1_555
Mn2_3 O14_7 1_555 1_555
O24_3 Mn2_3 1_555 1_555
O25_3 Mn2_3 1_555 1_555
O27_3 Mn2_3 1_555 1_555
O28_3 Mn2_3 1_555 1_555
N7 C27_7 1_555 1_555
O15_7 Mn2_3 1_555 1_555
C27_7 C28_7 1_555 1_555
C7_13 H29_7 1_555 1_555
Cu4 N1_7 1_555 1_555
Cu5_5 N3_7 1_555 1_555
Cu6_4 N2_7 1_555 1_555
Mn1_7 O1_7 1_555 1_555
N1_7 C1_7 1_555 1_555
N2_7 C9_7 1_555 1_555
N3_7 C18_7 1_555 1_555
O1_7 C1_7 1_555 1_555
O2_7 Mn1_7 1_555 1_555
O3_7 Cu4 1_555 1_555
O4_7 Mn1_7 1_555 1_555
O5_7 Mn1_7 1_555 1_555
O6_7 Cu6_4 1_555 1_555
O7_7 Mn1_7 1_555 1_555
O8_7 Mn1_7 1_555 1_555
O9_7 Cu5_5 1_555 1_555
C1_7 C2_7 1_555 1_555
C2_7 O2_7 1_555 1_555
C3_7 N1_7 1_555 1_555
C4_7 C3_7 1_555 1_555
C5_14 C4_7 1_555 1_555
H1_14 C5_14 1_555 1_555
C6_14 C3_7 1_555 1_555
C7_14 C6_14 1_555 1_555
C8_7 C4_7 1_555 1_555
H2_7 C8_7 1_555 1_555
H3_7 C8_7 1_555 1_555
H4_7 C8_7 1_555 1_555
C9_7 O4_7 1_555 1_555
C10_7 O5_7 1_555 1_555
C11_7 N2_7 1_555 1_555
C12_7 C11_7 1_555 1_555
C13_7 C12_7 1_555 1_555
H5_7 C13_7 1_555 1_555
C14_7 C11_7 1_555 1_555
C15_7 C14_7 1_555 1_555
C16_7 C12_7 1_555 1_555
H6_7 C16_7 1_555 1_555
H7_7 C16_7 1_555 1_555
H8_7 C16_7 1_555 1_555
C17_7 O7_7 1_555 1_555
C18_7 O8_7 1_555 1_555
C19_7 N3_7 1_555 1_555
C20_7 C19_7 1_555 1_555
C21_7 C20_7 1_555 1_555
H9_7 C21_7 1_555 1_555
C22_7 C19_7 1_555 1_555
C23_7 C22_7 1_555 1_555
C24_7 C20_7 1_555 1_555
H10_7 C24_7 1_555 1_555
H11_7 C24_7 1_555 1_555
H12_7 C24_7 1_555 1_555
O10_7 Cu4 1_555 1_555
O11_13 Cu5_5 1_555 1_555
O12_7 Cu6_4 1_555 1_555
O13_7 Cu6_4 1_555 1_555
N8_4 C30_7 1_555 1_555
O24_3 C30_7 1_555 1_555
O25_3 C31_7 1_555 1_555
O26_4 C31_7 1_555 1_555
C30_7 C31_7 1_555 1_555
C32_7 C14_7 1_555 1_555
C33_7 C13_7 1_555 1_555
C34_7 C33_7 1_555 1_555
H16_7 C34_7 1_555 1_555
H17_7 C34_7 1_555 1_555
H18_7 C34_7 1_555 1_555
N9_3 C36_7 1_555 1_555
O27_3 C35_7 1_555 1_555
O28_3 C36_7 1_555 1_555
O29_3 C35_7 1_555 1_555
C35_7 C36_7 1_555 1_555
C37_7 C22_7 1_555 1_555
C38_7 C21_7 1_555 1_555
C39_7 C38_7 1_555 1_555
H19_7 C39_7 1_555 1_555
H20_7 C39_7 1_555 1_555
H21_7 C39_7 1_555 1_555
O3_7 C2_7 1_555 1_555
O6_7 C10_7 1_555 1_555
O9_7 C17_7 1_555 1_555
C9_7 C10_7 1_555 1_555
C17_7 C18_7 1_555 1_555
N8_4 C32_7 1_555 1_555
C32_7 C33_7 1_555 1_555
N9_3 C37_7 1_555 1_555
C37_7 C38_7 1_555 1_555
C15_7 H22_7 1_555 1_555
C15_7 H23_7 1_555 1_555
C15_7 H24_7 1_555 1_555
C23_7 H25_7 1_555 1_555
C23_7 H26_7 1_555 1_555
C23_7 H27_7 1_555 1_555
C7_14 H28_7 1_555 1_555
C7_14 H30_7 1_555 1_555
O11_13 H37_7 1_555 1_555
O11_14 Cu5_6 1_555 1_555
O11_14 H38_7 1_555 1_555
O11_15 Cu5_7 1_555 1_555
O11_15 H38_8 1_555 1_555
H1_15 C5_15 1_555 1_555
C7_15 C6_15 1_555 1_555
N7_2 C25_8 1_555 1_555
O14_8 C25_8 1_555 1_555
O15_8 C26_8 1_555 1_555
O23_2 C26_8 1_555 1_555
C25_8 C26_8 1_555 1_555
C27_8 C6_15 1_555 1_555
C28_8 C5_15 1_555 1_555
C29_8 C28_8 1_555 1_555
H13_8 C29_8 1_555 1_555
H14_8 C29_8 1_555 1_555
H15_8 C29_8 1_555 1_555
Mn2_4 O14_8 1_555 1_555
O24_4 Mn2_4 1_555 1_555
O25_4 Mn2_4 1_555 1_555
O27_4 Mn2_4 1_555 1_555
O28_4 Mn2_4 1_555 1_555
N7_2 C27_8 1_555 1_555
O15_8 Mn2_4 1_555 1_555
C27_8 C28_8 1_555 1_555
C7_15 H29_8 1_555 1_555
Cu4_2 N1_8 1_555 1_555
Cu5_8 N3_8 1_555 1_555
Cu6_3 N2_8 1_555 1_555
Mn1_8 O1_8 1_555 1_555
N1_8 C1_8 1_555 1_555
N2_8 C9_8 1_555 1_555
N3_8 C18_8 1_555 1_555
O1_8 C1_8 1_555 1_555
O2_8 Mn1_8 1_555 1_555
O3_8 Cu4_2 1_555 1_555
O4_8 Mn1_8 1_555 1_555
O5_8 Mn1_8 1_555 1_555
O6_8 Cu6_3 1_555 1_555
O7_8 Mn1_8 1_555 1_555
O8_8 Mn1_8 1_555 1_555
O9_8 Cu5_8 1_555 1_555
C1_8 C2_8 1_555 1_555
C2_8 O2_8 1_555 1_555
C3_8 N1_8 1_555 1_555
C4_8 C3_8 1_555 1_555
C5_16 C4_8 1_555 1_555
H1_16 C5_16 1_555 1_555
C6_16 C3_8 1_555 1_555
C7_16 C6_16 1_555 1_555
C8_8 C4_8 1_555 1_555
H2_8 C8_8 1_555 1_555
H3_8 C8_8 1_555 1_555
H4_8 C8_8 1_555 1_555
C9_8 O4_8 1_555 1_555
C10_8 O5_8 1_555 1_555
C11_8 N2_8 1_555 1_555
C12_8 C11_8 1_555 1_555
C13_8 C12_8 1_555 1_555
H5_8 C13_8 1_555 1_555
C14_8 C11_8 1_555 1_555
C15_8 C14_8 1_555 1_555
C16_8 C12_8 1_555 1_555
H6_8 C16_8 1_555 1_555
H7_8 C16_8 1_555 1_555
H8_8 C16_8 1_555 1_555
C17_8 O7_8 1_555 1_555
C18_8 O8_8 1_555 1_555
C19_8 N3_8 1_555 1_555
C20_8 C19_8 1_555 1_555
C21_8 C20_8 1_555 1_555
H9_8 C21_8 1_555 1_555
C22_8 C19_8 1_555 1_555
C23_8 C22_8 1_555 1_555
C24_8 C20_8 1_555 1_555
H10_8 C24_8 1_555 1_555
H11_8 C24_8 1_555 1_555
H12_8 C24_8 1_555 1_555
O10_8 Cu4_2 1_555 1_555
O11_16 Cu5_8 1_555 1_555
O12_8 Cu6_3 1_555 1_555
O13_8 Cu6_3 1_555 1_555
N8_3 C30_8 1_555 1_555
O24_4 C30_8 1_555 1_555
O25_4 C31_8 1_555 1_555
O26_3 C31_8 1_555 1_555
C30_8 C31_8 1_555 1_555
C32_8 C14_8 1_555 1_555
C33_8 C13_8 1_555 1_555
C34_8 C33_8 1_555 1_555
H16_8 C34_8 1_555 1_555
H17_8 C34_8 1_555 1_555
H18_8 C34_8 1_555 1_555
N9_4 C36_8 1_555 1_555
O27_4 C35_8 1_555 1_555
O28_4 C36_8 1_555 1_555
O29_4 C35_8 1_555 1_555
C35_8 C36_8 1_555 1_555
C37_8 C22_8 1_555 1_555
C38_8 C21_8 1_555 1_555
C39_8 C38_8 1_555 1_555
H19_8 C39_8 1_555 1_555
H20_8 C39_8 1_555 1_555
H21_8 C39_8 1_555 1_555
O3_8 C2_8 1_555 1_555
O6_8 C10_8 1_555 1_555
O9_8 C17_8 1_555 1_555
C9_8 C10_8 1_555 1_555
C17_8 C18_8 1_555 1_555
N8_3 C32_8 1_555 1_555
C32_8 C33_8 1_555 1_555
N9_4 C37_8 1_555 1_555
C37_8 C38_8 1_555 1_555
C15_8 H22_8 1_555 1_555
C15_8 H23_8 1_555 1_555
C15_8 H24_8 1_555 1_555
C23_8 H25_8 1_555 1_555
C23_8 H26_8 1_555 1_555
C23_8 H27_8 1_555 1_555
C7_16 H28_8 1_555 1_555
C7_16 H30_8 1_555 1_555
O11_16 H37_8 1_555 1_555
O11_9 H38_9 1_555 1_555
C7_3 H29_9 1_555 1_555
C15_2 H22_9 1_555 1_555
C15_2 H23_9 1_555 1_555
C15_2 H24_9 1_555 1_555
C23_2 H25_9 1_555 1_555
C23_2 H26_9 1_555 1_555
C23_2 H27_9 1_555 1_555
C7_4 H28_9 1_555 1_555
C7_4 H30_9 1_555 1_555
O11_10 H37_9 1_555 1_555
C7 H29_10 1_555 1_555
C15 H22_10 1_555 1_555
C15 H23_10 1_555 1_555
C15 H24_10 1_555 1_555
C23 H25_10 1_555 1_555
C23 H26_10 1_555 1_555
C23 H27_10 1_555 1_555
C7_2 H28_10 1_555 1_555
C7_2 H30_10 1_555 1_555
O11_11 H37_10 1_555 1_555
O11_12 H38_10 1_555 1_555
C7_7 H29_11 1_555 1_555
C15_4 H22_11 1_555 1_555
C15_4 H23_11 1_555 1_555
C15_4 H24_11 1_555 1_555
C23_4 H25_11 1_555 1_555
C23_4 H26_11 1_555 1_555
C23_4 H27_11 1_555 1_555
C7_8 H28_11 1_555 1_555
C7_8 H30_11 1_555 1_555
O11_15 H37_11 1_555 1_555
O11_16 H38_11 1_555 1_555
O11_13 H38_12 1_555 1_555
C7_5 H29_12 1_555 1_555
C15_3 H22_12 1_555 1_555
C15_3 H23_12 1_555 1_555
C15_3 H24_12 1_555 1_555
C23_3 H25_12 1_555 1_555
C23_3 H26_12 1_555 1_555
C23_3 H27_12 1_555 1_555
C7_6 H28_12 1_555 1_555
C7_6 H30_12 1_555 1_555
O11_14 H37_12 1_555 1_555
O11 H38_13 1_555 1_555
C15_6 H22_13 1_555 1_555
C15_6 H23_13 1_555 1_555
C15_6 H24_13 1_555 1_555
C23_6 H25_13 1_555 1_555
C23_6 H26_13 1_555 1_555
C23_6 H27_13 1_555 1_555
C7_11 H28_13 1_555 1_555
C7_11 H30_13 1_555 1_555
O11_2 H37_13 1_555 1_555
C7_12 H29_13 1_555 1_555
C15_5 H22_14 1_555 1_555
C15_5 H23_14 1_555 1_555
C15_5 H24_14 1_555 1_555
C23_5 H25_14 1_555 1_555
C23_5 H26_14 1_555 1_555
C23_5 H27_14 1_555 1_555
C7_9 H28_14 1_555 1_555
C7_9 H30_14 1_555 1_555
O11_3 H37_14 1_555 1_555
C7_10 H29_14 1_555 1_555
O11_4 H38_14 1_555 1_555
O11_7 H38_15 1_555 1_555
C15_8 H22_15 1_555 1_555
C15_8 H23_15 1_555 1_555
C15_8 H24_15 1_555 1_555
C23_8 H25_15 1_555 1_555
C23_8 H26_15 1_555 1_555
C23_8 H27_15 1_555 1_555
C7_15 H28_15 1_555 1_555
C7_15 H30_15 1_555 1_555
O11_8 H37_15 1_555 1_555
C7_16 H29_15 1_555 1_555
C15_7 H22_16 1_555 1_555
C15_7 H23_16 1_555 1_555
C15_7 H24_16 1_555 1_555
C23_7 H25_16 1_555 1_555
C23_7 H26_16 1_555 1_555
C23_7 H27_16 1_555 1_555
C7_13 H28_16 1_555 1_555
C7_13 H30_16 1_555 1_555
O11_5 H37_16 1_555 1_555
C7_14 H29_16 1_555 1_555
O11_6 H38_16 1_555 1_555

#END
