
###############################################################################
#
# This file contains modified crystal structure data generated from the
# MOF subset of the Cambridge Structural Database (CSD) v543 
# hosted by the Cambridge Crystallographic Data Centre (CCDC).
#
# This work is licensed under the Creative Commons
# Attribution-NonCommercial-ShareAlike 4.0 International License.
# To view a copy of this license, visit
# http://creativecommons.org/licenses/by-nc-sa/4.0/
# or send a letter to
# Creative Commons, PO Box 1866, Mountain View, CA 94042, USA.
#
# CIF created using the CSD Python API on 29 September 2022
# The structure has been converted into the P1 space group
# The structure has a 3D framework
# The original CSD entry IJEXUR is in the triclinic crystal system
# The framework has been calculated to contain at least 10.0% void space
# The void calculation uses a probe of radius 1.32A, grid spacing 0.4
# The framework is charged, counterions have been retained in the structure
# H atom positions have been added when not included in the experimental data
#
###############################################################################

data_IJEXUR
_chemical_formula_moiety         '(C46 H38 N12 O18 S2 Zn6 2+)n'
_symmetry_cell_setting           triclinic
_symmetry_space_group_name_H-M   'P 1'
_symmetry_Int_Tables_number      1
_space_group_name_Hall           'P 1'
loop_
_symmetry_equiv_pos_site_id
_symmetry_equiv_pos_as_xyz
1 x,y,z
_cell_length_a                   10.7882(13)
_cell_length_b                   12.3072(12)
_cell_length_c                   14.2893(14)
_cell_angle_alpha                83.183(7)
_cell_angle_beta                 69.590(7)
_cell_angle_gamma                65.174(8)
_cell_volume                     1612.94
loop_
_atom_site_label
_atom_site_type_symbol
_atom_site_fract_x
_atom_site_fract_y
_atom_site_fract_z
S1 S 0.3961(4) 0.0143(3) 0.7766(3)
O1 O 0.4212(10) 0.0896(8) 0.8255(7)
O2 O 0.4277(10) 0.0459(9) 0.6795(7)
C7 C 0.1027(9) 0.1702(7) 0.8724(7)
H9 H 0.1395 0.2262 0.8726
C11 C 0.1982(9) 0.0565(7) 0.8306(7)
O3 O 0.4644(10) 0.8981(8) 0.8068(7)
O10 O 0.0217(9) 0.8124(6) 0.8563(8)
C18 C 0.1453(10) 0.9764(7) 0.8320(7)
H15 H 0.2076 0.8995 0.8056
Zn10 Zn 0.21081(11) 0.20392(8) 0.09321(7)
N11 N 0.1523(9) 0.2806(7) 0.2283(5)
C35 C 0.0607(11) 0.3947(10) 0.4069(7)
C37 C 0.1173(15) 0.2720(11) 0.3995(8)
H34 H 0.1255 0.2264 0.4555
C39 C 0.0509(11) 0.4594(9) 0.3227(7)
H35 H 0.0128 0.5426 0.3258
C42 C 0.1602(14) 0.2195(11) 0.3113(8)
H37 H 0.1976 0.1363 0.3070
N15 N 0.0166(10) 0.4456(8) 0.5002(6)
C46 C 0.0978(11) 0.3995(9) 0.2348(7)
H40 H 0.0917 0.4429 0.1775
O19 O 0.1555(3) 0.3373(3) 0.0099(2)
H23 H 0.0740 0.3552 0.0031
O20 O 0.4367(3) 0.1356(3) 0.0410(2)
H24 H 0.4764 0.1176 0.0858
O21 O 0.1997(8) 0.0494(6) 0.0957(6)
C38 C 0.0621(11) 0.0822(9) 0.1230(7)
H25 H 0.5025 0.1057 0.9856
H42 H 0.23063 0.317771 0.942655
Zn1 Zn 0.75157(9) 0.55432(7) 0.03820(6)
Zn3 Zn 0.5000 0.5000 0.0000
Zn6 Zn 0.24843(9) 0.44568(7) 0.96180(6)
O14 O 0.1025(6) 0.6043(5) 0.0311(4)
O15 O 0.2912(3) 0.6495(3) 0.0041(2)
O16 O 0.5755(3) 0.6148(3) 0.0100(2)
H20 H 0.5019 0.6814 0.0223
N7 N 0.4182(7) 0.4868(6) 0.1641(5)
C24 C 0.1575(8) 0.6742(6) 0.0361(5)
N8 N 0.2791(7) 0.4674(6) 0.8134(5)
N9 N 0.7209(7) 0.5326(6) 0.1866(5)
C25 C 0.4290(10) 0.3614(9) 0.3046(6)
H26 H 0.4540 0.2847 0.3297
C26 C 0.4514(9) 0.3805(7) 0.2045(6)
H27 H 0.4931 0.3136 0.1620
C27 C 0.0478(9) 0.7964(7) 0.0855(6)
C28 C 0.3549(10) 0.5825(8) 0.2258(6)
H28 H 0.3282 0.6586 0.1997
C29 C 0.3477(10) 0.3808(9) 0.6569(6)
H29 H 0.3809 0.3131 0.6173
C31 C 0.1030(8) 0.8774(7) 0.0850(6)
H31 H 0.2020 0.8575 0.0582
C32 C 0.0049(9) 0.9929(7) 0.1266(6)
C33 C 0.2543(9) 0.5735(7) 0.7715(6)
H32 H 0.2242 0.6398 0.8120
C36 C 0.3287(10) 0.5714(9) 0.3261(7)
H33 H 0.2840 0.6392 0.3679
N13 N 0.3325(10) 0.5184(8) 0.5116(6)
C40 C 0.3172(10) 0.4936(9) 0.6156(6)
N14 N 0.3520(10) 0.4357(8) 0.4693(6)
C43 C 0.3279(10) 0.3718(8) 0.7567(7)
H38 H 0.3492 0.2969 0.7850
C44 C 0.3686(9) 0.4597(8) 0.3646(6)
C45 C 0.2703(10) 0.5908(8) 0.6736(6)
H39 H 0.2498 0.6668 0.6473
H41 H 0.141351 0.328802 0.0824425
Zn3_2 Zn 0.5000 0.5000 1.0000
O4 O 0.8975(6) 0.3957(5) 0.9689(4)
O5 O 0.7088(3) 0.3505(3) 0.9959(2)
O6 O 0.4245(3) 0.3852(3) 0.9900(2)
H1 H 0.4981 0.3186 0.9777
O7 O 0.8445(3) 0.6627(3) 0.9901(2)
H2 H 0.9260 0.6448 0.9969
N1 N 0.5818(7) 0.5132(6) 0.8359(5)
C1 C 0.8425(8) 0.3258(6) 0.9639(5)
C2 C 0.5710(10) 0.6386(9) 0.6954(6)
H5 H 0.5460 0.7153 0.6703
C3 C 0.5486(9) 0.6195(7) 0.7955(6)
H6 H 0.5069 0.6864 0.8380
C4 C 0.9522(9) 0.2036(7) 0.9145(6)
C5 C 0.6451(10) 0.4175(8) 0.7742(6)
H7 H 0.6718 0.3414 0.8003
C6 C 0.6523(10) 0.6192(9) 0.3431(6)
H8 H 0.6191 0.6869 0.3827
C8 C 0.8970(8) 0.1226(7) 0.9150(6)
H10 H 0.7980 0.1425 0.9418
C9 C 0.9951(9) 0.0071(7) 0.8734(6)
C10 C 0.7457(9) 0.4265(7) 0.2285(6)
H11 H 0.7758 0.3602 0.1880
C13 C 0.6713(10) 0.4286(9) 0.6739(7)
H12 H 0.7160 0.3608 0.6321
N4 N 0.6675(10) 0.4816(8) 0.4884(6)
C17 C 0.6828(10) 0.5064(9) 0.3844(6)
N5 N 0.6480(10) 0.5643(8) 0.5307(6)
C20 C 0.6721(10) 0.6282(8) 0.2433(7)
H17 H 0.6508 0.7031 0.2150
C21 C 0.6314(9) 0.5403(8) 0.6354(6)
C22 C 0.7297(10) 0.4092(8) 0.3264(6)
H18 H 0.7502 0.3332 0.3527
Zn9 Zn 0.78919(11) 0.79608(8) 0.90679(7)
H4 H 0.4975 0.8943 0.0144
O8 O 0.5633(3) 0.8644(3) 0.9590(2)
H3 H 0.5236 0.8824 0.9142
O9 O 0.8003(8) 0.9506(6) 0.9043(6)
N3 N 0.8477(9) 0.7194(7) 0.7717(5)
C12 C 0.9393(11) 0.6053(10) 0.5931(7)
C14 C 0.8827(15) 0.7280(11) 0.6005(8)
H13 H 0.8745 0.7736 0.5445
C15 C 0.9379(11) 0.9178(9) 0.8770(7)
C16 C 0.9491(11) 0.5406(9) 0.6773(7)
H14 H 0.9872 0.4574 0.6742
C19 C 0.8398(14) 0.7805(11) 0.6887(8)
H16 H 0.8024 0.8637 0.6930
N6 N 0.9834(10) 0.5544(8) 0.4998(6)
C23 C 0.9022(11) 0.6005(9) 0.7652(7)
H19 H 0.9083 0.5571 0.8225
O13 O 0.5356(10) 0.1019(8) 0.1932(7)
O22 O 0.9783(9) 0.1876(6) 0.1437(8)
C41 C 0.8547(10) 0.0236(7) 0.1680(7)
H36 H 0.7924 0.1005 0.1944
H41_2 H 0.858649 0.671198 0.917557
H42_2 H 0.76937 0.682229 0.0573452
S2 S 0.6039(4) 0.9857(3) 0.2234(3)
O11 O 0.5788(10) 0.9104(8) 0.1745(7)
O12 O 0.5723(10) 0.9541(9) 0.3205(7)
C30 C 0.8973(9) 0.8298(7) 0.1276(7)
H30 H 0.8605 0.7738 0.1274
C34 C 0.8018(9) 0.9435(7) 0.1694(7)
loop_
_geom_bond_atom_site_label_1
_geom_bond_atom_site_label_2
_geom_bond_site_symmetry_1
_geom_bond_site_symmetry_2
S1 O1 1_555 1_555
O2 S1 1_555 1_555
C7 H9 1_555 1_555
C11 S1 1_555 1_555
C7 C11 1_555 1_555
H15 C18 1_555 1_555
Zn10 N11 1_555 1_555
N11 C42 1_555 1_555
C35 C37 1_555 1_555
C37 H34 1_555 1_555
C39 C35 1_555 1_555
H35 C39 1_555 1_555
C42 C37 1_555 1_555
H37 C42 1_555 1_555
C46 N11 1_555 1_555
H40 C46 1_555 1_555
C35 N15 1_555 1_555
C39 C46 1_555 1_555
Zn10 O19 1_555 1_555
O19 H23 1_555 1_555
O20 Zn10 1_555 1_555
H24 O20 1_555 1_555
O21 Zn10 1_555 1_555
C38 O21 1_555 1_555
Zn6 N8 1_555 1_555
O15 Zn3 1_555 1_555
O16 Zn1 1_555 1_555
H20 O16 1_555 1_555
N7 Zn3 1_555 1_555
C24 O14 1_555 1_555
N8 C33 1_555 1_555
N9 Zn1 1_555 1_555
C25 H26 1_555 1_555
C26 N7 1_555 1_555
H27 C26 1_555 1_555
C27 C24 1_555 1_555
C28 N7 1_555 1_555
H28 C28 1_555 1_555
C29 H29 1_555 1_555
C31 C27 1_555 1_555
H31 C31 1_555 1_555
C32 C31 1_555 1_555
C33 H32 1_555 1_555
C36 C28 1_555 1_555
H33 C36 1_555 1_555
N13 C40 1_555 1_555
C40 C29 1_555 1_555
N14 N13 1_555 1_555
C43 N8 1_555 1_555
H38 C43 1_555 1_555
C44 C25 1_555 1_555
C45 C33 1_555 1_555
H39 C45 1_555 1_555
Zn3 O16 1_555 1_555
O15 C24 1_555 1_555
C25 C26 1_555 1_555
C29 C43 1_555 1_555
C36 C44 1_555 1_555
C40 C45 1_555 1_555
N14 C44 1_555 1_555
O19 H41 1_555 1_555
Zn3_2 O5 1_555 1_555
O4 C1 1_555 1_555
O5 C1 1_555 1_555
O6 Zn3_2 1_555 1_555
H1 O6 1_555 1_555
H2 O7 1_555 1_555
N1 Zn3_2 1_555 1_555
C1 C4 1_555 1_555
N9 C10 1_555 1_555
C2 H5 1_555 1_555
C3 N1 1_555 1_555
H6 C3 1_555 1_555
C5 N1 1_555 1_555
H7 C5 1_555 1_555
C6 H8 1_555 1_555
C8 C4 1_555 1_555
H10 C8 1_555 1_555
C9 C8 1_555 1_555
C10 H11 1_555 1_555
C13 C5 1_555 1_555
H12 C13 1_555 1_555
N4 C17 1_555 1_555
C17 C6 1_555 1_555
N5 N4 1_555 1_555
C20 N9 1_555 1_555
H17 C20 1_555 1_555
C21 C2 1_555 1_555
C22 C10 1_555 1_555
H18 C22 1_555 1_555
Zn6 O6 1_555 1_555
Zn9 O7 1_555 1_555
C2 C3 1_555 1_555
C6 C20 1_555 1_555
C13 C21 1_555 1_555
C17 C22 1_555 1_555
N5 C21 1_555 1_555
Zn9 O8 1_555 1_555
O8 H3 1_555 1_555
O9 Zn9 1_555 1_555
N3 Zn9 1_555 1_555
C12 C14 1_555 1_555
C14 H13 1_555 1_555
C15 O9 1_555 1_555
C16 C12 1_555 1_555
H14 C16 1_555 1_555
C19 N3 1_555 1_555
H16 C19 1_555 1_555
N6 C12 1_555 1_555
C23 N3 1_555 1_555
H19 C23 1_555 1_555
C14 C19 1_555 1_555
C16 C23 1_555 1_555
H36 C41 1_555 1_555
O7 H41_2 1_555 1_555
S2 O11 1_555 1_555
O12 S2 1_555 1_555
H30 C30 1_555 1_555
C34 S2 1_555 1_555
C30 C34 1_555 1_555

#END
