
###############################################################################
#
# This file contains modified crystal structure data generated from the
# MOF subset of the Cambridge Structural Database (CSD) v543 
# hosted by the Cambridge Crystallographic Data Centre (CCDC).
#
# This work is licensed under the Creative Commons
# Attribution-NonCommercial-ShareAlike 4.0 International License.
# To view a copy of this license, visit
# http://creativecommons.org/licenses/by-nc-sa/4.0/
# or send a letter to
# Creative Commons, PO Box 1866, Mountain View, CA 94042, USA.
#
# CIF created using the CSD Python API on 29 September 2022
# The structure has been converted into the P1 space group
# The structure has a 3D framework
# The original CSD entry IJEXEB is in the orthorhombic crystal system
# The framework has been calculated to contain at least 10.0% void space
# The void calculation uses a probe of radius 1.32A, grid spacing 0.4
# H atom positions have been added when not included in the experimental data
#
###############################################################################

data_IJEXEB
_chemical_formula_moiety         '(C176 H128 N24 O80 Zn16)n'
_symmetry_cell_setting           triclinic
_symmetry_space_group_name_H-M   'P 1'
_symmetry_Int_Tables_number      1
_space_group_name_Hall           'P 1'
loop_
_symmetry_equiv_pos_site_id
_symmetry_equiv_pos_as_xyz
1 x,y,z
_cell_length_a                   14.8390(6)
_cell_length_b                   15.7170(6)
_cell_length_c                   22.0810(9)
_cell_angle_alpha                90
_cell_angle_beta                 90
_cell_angle_gamma                90
_cell_volume                     5149.83
loop_
_atom_site_label
_atom_site_type_symbol
_atom_site_fract_x
_atom_site_fract_y
_atom_site_fract_z
Zn1 Zn 0.59226(3) 0.13091(2) 0.850651(14)
Zn2 Zn 0.59929(2) 0.21639(2) 0.722878(14)
O1 O 0.62078(16) 0.02870(13) 0.80169(9)
C1 C 0.6061(2) 0.02350(18) 0.74495(13)
O3 O 0.59023(16) 0.08533(13) 0.71130(9)
N1 N 0.65061(19) 0.22366(15) 0.62946(11)
O7 O 0.53389(13) 0.22344(12) 0.80687(8)
O10 O 0.7413(2) 0.45194(16) 0.47229(11)
N2 N 0.7220(2) 0.48816(18) 0.52844(13)
C6 C 0.6944(2) 0.3360(2) 0.55976(14)
C7 C 0.7006(2) 0.4299(2) 0.56679(14)
C8 C 0.6634(2) 0.1684(2) 0.58391(15)
H1 H 0.6534 0.1108 0.5911
C9 C 0.6659(3) 0.5232(2) 0.66415(16)
H2 H 0.6801 0.5764 0.6484
C10 C 0.6741(2) 0.4499(2) 0.62999(14)
N3 N 0.6231(2) 0.36191(17) 0.71403(11)
C11 C 0.6527(2) 0.37317(19) 0.65766(13)
C12 C 0.6151(3) 0.4339(2) 0.74606(16)
H3 H 0.5947 0.4302 0.7858
C17 C 0.6910(3) 0.1936(2) 0.52660(16)
H9 H 0.6986 0.1528 0.4965
C19 C 0.6655(2) 0.30424(19) 0.61519(13)
C21 C 0.6354(3) 0.5134(2) 0.72330(16)
H12 H 0.6286 0.5611 0.7478
C22 C 0.7075(3) 0.2786(2) 0.51338(15)
H13 H 0.7264 0.2959 0.4752
H14 H 0.5493 0.2684 0.8249
H15 H 0.7536 0.4925 0.4475
Zn6 Zn 0.40071(2) 0.21639(2) 0.777122(14)
O11 O 0.71599(16) 0.17713(15) 0.86186(9)
O12 O 0.54928(16) 0.08828(14) 0.92749(9)
O13 O 0.72495(15) 0.20725(15) 0.76272(9)
O14 O 0.46611(13) 0.22344(12) 0.69313(8)
H16 H 0.4507 0.2684 0.6751
H17 H 0.724469 0.551362 0.537737
O2 O 0.59746(15) 0.71172(13) 0.76511(10)
C2 C 0.7428(2) 0.69786(19) 0.81412(13)
O4 O 0.78401(16) 0.67713(15) 0.86186(9)
C3 C 0.6009(2) 0.78459(18) 0.73142(13)
O5 O 0.54928(16) 0.91172(14) 0.42749(9)
O6 O 0.77505(15) 0.70725(15) 0.76272(9)
O8 O 0.5537(2) 0.82593(14) 0.57474(9)
O9 O 0.5653(2) 0.77941(15) 0.46207(10)
C4 C 0.6038(2) 0.93607(18) 0.71790(12)
C5 C 0.5537(2) 0.8559(2) 0.46947(13)
C13 C 0.6427(2) 0.7097(2) 0.82175(13)
H4 H 0.6188 0.6634 0.8460
H5 H 0.6315 0.7624 0.8432
C14 C 0.5463(3) 0.8928(2) 0.53243(13)
H6 H 0.5939 0.9341 0.5390
H7 H 0.4888 0.9214 0.5372
C15 C 0.5744(2) 0.8453(2) 0.63360(13)
C16 C 0.6130(2) 0.86595(18) 0.75512(13)
H8 H 0.6273 0.8730 0.7958
C18 C 0.5828(2) 0.7748(2) 0.67054(14)
H10 H 0.5763 0.7205 0.6543
C20 C 0.5831(2) 0.9265(2) 0.65650(12)
H11 H 0.5754 0.9737 0.6317
Zn3 Zn 0.90774(3) 0.63091(2) 0.850651(14)
Zn4 Zn 0.59226(3) 0.86909(2) 0.350651(14)
Zn5 Zn 0.90071(2) 0.71639(2) 0.722878(14)
H7_2 H 0.0112 0.5786 0.0372
Zn6_2 Zn 0.09929(2) 0.28361(2) 0.277122(14)
O14_2 O 0.03389(13) 0.27656(12) 0.19313(8)
H16_2 H 0.0493 0.2316 0.1751
Zn1_2 Zn 0.90774(3) 0.36909(2) 0.350651(14)
Zn2_2 Zn 0.90071(2) 0.28361(2) 0.222878(14)
O1_2 O 0.87922(16) 0.47130(13) 0.30169(9)
C1_2 C 0.8939(2) 0.47650(18) 0.24495(13)
O2_2 O 0.90254(15) 0.78828(13) 0.26511(10)
C2_2 C 0.7572(2) 0.80214(19) 0.31412(13)
O3_2 O 0.90977(16) 0.41467(13) 0.21130(9)
O4_2 O 0.71599(16) 0.82287(15) 0.36186(9)
C3_2 C 0.8991(2) 0.71541(18) 0.23142(13)
N1_2 N 0.84939(19) 0.27634(15) 0.12946(11)
O6_2 O 0.72495(15) 0.79275(15) 0.26272(9)
O7_2 O 0.96611(13) 0.27656(12) 0.30687(8)
O8_2 O 0.9463(2) 0.67407(14) 0.07474(9)
C4_2 C 0.8962(2) 0.56393(18) 0.21790(12)
N2_2 N 0.7780(2) 0.01184(18) 0.02844(13)
C6_2 C 0.8056(2) 0.1640(2) 0.05976(14)
C7_2 C 0.7994(2) 0.0701(2) 0.06679(14)
C8_2 C 0.8366(2) 0.3316(2) 0.08391(15)
H1_2 H 0.8466 0.3892 0.0911
C10_2 C 0.8259(2) 0.0501(2) 0.12999(14)
N3_2 N 0.8769(2) 0.13809(17) 0.21403(11)
C11_2 C 0.8473(2) 0.12683(19) 0.15766(13)
C12_2 C 0.8849(3) 0.0661(2) 0.24606(16)
H3_2 H 0.9053 0.0698 0.2858
C13_2 C 0.8573(2) 0.7903(2) 0.32175(13)
H4_2 H 0.8812 0.8366 0.3460
H5_2 H 0.8685 0.7376 0.3432
C14_2 C 0.9537(3) 0.6072(2) 0.03243(13)
H6_2 H 0.9061 0.5659 0.0390
C15_2 C 0.9256(2) 0.6547(2) 0.13360(13)
C16_2 C 0.8870(2) 0.63405(18) 0.25512(13)
H8_2 H 0.8727 0.6270 0.2958
C17_2 C 0.8090(3) 0.3064(2) 0.02660(16)
C18_2 C 0.9172(2) 0.7252(2) 0.17054(14)
H10_2 H 0.9237 0.7795 0.1543
C19_2 C 0.8345(2) 0.19576(19) 0.11519(13)
C20_2 C 0.9169(2) 0.5735(2) 0.15650(12)
H11_2 H 0.9246 0.5263 0.1317
C22_2 C 0.7925(3) 0.2214(2) 0.01338(15)
H14_2 H 0.9507 0.2316 0.3249
Zn5_2 Zn 0.59929(2) 0.78361(2) 0.222878(14)
O11_2 O 0.78401(16) 0.32287(15) 0.36186(9)
O12_2 O 0.95072(16) 0.41172(14) 0.42749(9)
O13_2 O 0.77505(15) 0.29275(15) 0.26272(9)
O5_2 O 0.95072(16) 0.58828(14) 0.92749(9)
O9_2 O 0.9347(2) 0.72059(15) 0.96207(10)
O10_2 O 0.7587(2) 0.04806(16) 0.97229(11)
C5_2 C 0.9463(2) 0.6441(2) 0.96947(13)
H9_2 H 0.8014 0.3472 0.9965
H13_2 H 0.7736 0.2041 0.9752
H15_2 H 0.7464 0.0075 0.9475
Zn1_3 Zn 0.09226(3) 0.36909(2) 0.149349(14)
O1_3 O 0.12078(16) 0.47130(13) 0.19831(9)
C1_3 C 0.1061(2) 0.47650(18) 0.25505(13)
O2_3 O 0.09746(15) 0.78828(13) 0.23489(10)
C2_3 C 0.2428(2) 0.80214(19) 0.18588(13)
O3_3 O 0.09023(16) 0.41467(13) 0.28870(9)
O4_3 O 0.28401(16) 0.82287(15) 0.13814(9)
C3_3 C 0.1009(2) 0.71541(18) 0.26858(13)
N1_3 N 0.15061(19) 0.27634(15) 0.37054(11)
O5_3 O 0.04928(16) 0.58828(14) 0.57251(9)
O6_3 O 0.27505(15) 0.79275(15) 0.23728(9)
O8_3 O 0.0537(2) 0.67407(14) 0.42526(9)
O9_3 O 0.0653(2) 0.72059(15) 0.53793(10)
C4_3 C 0.1038(2) 0.56393(18) 0.28210(12)
O10_3 O 0.2413(2) 0.04806(16) 0.52771(11)
C5_3 C 0.0537(2) 0.6441(2) 0.53053(13)
N2_3 N 0.2220(2) 0.01184(18) 0.47156(13)
C6_3 C 0.1944(2) 0.1640(2) 0.44024(14)
C7_3 C 0.2006(2) 0.0701(2) 0.43321(14)
C8_3 C 0.1634(2) 0.3316(2) 0.41609(15)
H1_3 H 0.1534 0.3892 0.4089
C10_3 C 0.1741(2) 0.0501(2) 0.37001(14)
N3_3 N 0.1231(2) 0.13809(17) 0.28597(11)
C11_3 C 0.1527(2) 0.12683(19) 0.34234(13)
C12_3 C 0.1151(3) 0.0661(2) 0.25394(16)
H3_3 H 0.0947 0.0698 0.2142
C13_3 C 0.1427(2) 0.7903(2) 0.17825(13)
H4_3 H 0.1188 0.8366 0.1540
H5_3 H 0.1315 0.7376 0.1568
C14_3 C 0.0463(3) 0.6072(2) 0.46757(13)
H6_3 H 0.0939 0.5659 0.4610
C15_3 C 0.0744(2) 0.6547(2) 0.36640(13)
C16_3 C 0.1130(2) 0.63405(18) 0.24488(13)
H8_3 H 0.1273 0.6270 0.2042
C17_3 C 0.1910(3) 0.3064(2) 0.47340(16)
H9_3 H 0.1986 0.3472 0.5035
C18_3 C 0.0828(2) 0.7252(2) 0.32946(14)
H10_3 H 0.0763 0.7795 0.3457
C19_3 C 0.1655(2) 0.19576(19) 0.38481(13)
C20_3 C 0.0831(2) 0.5735(2) 0.34350(12)
H11_3 H 0.0754 0.5263 0.3683
C22_3 C 0.2075(3) 0.2214(2) 0.48662(15)
H13_3 H 0.2264 0.2041 0.5248
H15_3 H 0.2536 0.0075 0.5525
Zn3_2 Zn 0.40774(3) 0.86909(2) 0.149349(14)
Zn4_2 Zn 0.09226(3) 0.63091(2) 0.649349(14)
Zn5_3 Zn 0.40071(2) 0.78361(2) 0.277122(14)
O11_3 O 0.21599(16) 0.32287(15) 0.13814(9)
O12_3 O 0.04928(16) 0.41172(14) 0.07251(9)
O13_3 O 0.22495(15) 0.29275(15) 0.23728(9)
H7_3 H 0.9888 0.5786 0.4628
Zn1_4 Zn 0.40774(3) 0.13091(2) 0.649349(14)
O1_4 O 0.37922(16) 0.02870(13) 0.69831(9)
C1_4 C 0.3939(2) 0.02350(18) 0.75505(13)
O3_4 O 0.40977(16) 0.08533(13) 0.78870(9)
N1_4 N 0.34939(19) 0.22366(15) 0.87054(11)
N2_4 N 0.2780(2) 0.48816(18) 0.97156(13)
C6_4 C 0.3056(2) 0.3360(2) 0.94024(14)
C7_4 C 0.2994(2) 0.4299(2) 0.93321(14)
C8_4 C 0.3366(2) 0.1684(2) 0.91609(15)
H1_4 H 0.3466 0.1108 0.9089
C9_2 C 0.3341(3) 0.5232(2) 0.83585(16)
H2_2 H 0.3199 0.5764 0.8516
C10_4 C 0.3259(2) 0.4499(2) 0.87001(14)
N3_4 N 0.3769(2) 0.36191(17) 0.78597(11)
C11_4 C 0.3473(2) 0.37317(19) 0.84234(13)
C12_4 C 0.3849(3) 0.4339(2) 0.75394(16)
H3_4 H 0.4053 0.4302 0.7142
C17_4 C 0.3090(3) 0.1936(2) 0.97340(16)
C19_4 C 0.3345(2) 0.30424(19) 0.88481(13)
C21_2 C 0.3646(3) 0.5134(2) 0.77670(16)
H12_2 H 0.3714 0.5611 0.7522
C22_4 C 0.2925(3) 0.2786(2) 0.98662(15)
O11_4 O 0.28401(16) 0.17713(15) 0.63814(9)
O12_4 O 0.45072(16) 0.08828(14) 0.57251(9)
O13_4 O 0.27505(15) 0.20725(15) 0.73728(9)
H17_2 H 0.275531 0.551362 0.962263
O5_4 O 0.45072(16) 0.91172(14) 0.07251(9)
O9_4 O 0.4347(2) 0.77941(15) 0.03793(10)
C5_4 C 0.4463(2) 0.8559(2) 0.03053(13)
O2_4 O 0.40254(15) 0.71172(13) 0.73489(10)
C2_4 C 0.2572(2) 0.69786(19) 0.68588(13)
O4_4 O 0.21599(16) 0.67713(15) 0.63814(9)
C3_4 C 0.3991(2) 0.78459(18) 0.76858(13)
O6_4 O 0.22495(15) 0.70725(15) 0.73728(9)
O8_4 O 0.4463(2) 0.82593(14) 0.92526(9)
C4_4 C 0.3962(2) 0.93607(18) 0.78210(12)
C13_4 C 0.3573(2) 0.7097(2) 0.67825(13)
H4_4 H 0.3812 0.6634 0.6540
H5_4 H 0.3685 0.7624 0.6568
C14_4 C 0.4537(3) 0.8928(2) 0.96757(13)
H6_4 H 0.4061 0.9341 0.9610
H7_4 H 0.5112 0.9214 0.9628
C15_4 C 0.4256(2) 0.8453(2) 0.86640(13)
C16_4 C 0.3870(2) 0.86595(18) 0.74488(13)
H8_4 H 0.3727 0.8730 0.7042
C18_4 C 0.4172(2) 0.7748(2) 0.82946(14)
H10_4 H 0.4237 0.7205 0.8457
C20_4 C 0.4169(2) 0.9265(2) 0.84350(12)
H11_4 H 0.4246 0.9737 0.8683
Zn5_4 Zn 0.09929(2) 0.71639(2) 0.777122(14)
O2_5 O 0.40254(15) 0.28828(13) 0.23489(10)
C2_5 C 0.2572(2) 0.30214(19) 0.18588(13)
C3_5 C 0.3991(2) 0.21541(18) 0.26858(13)
O8_5 O 0.4463(2) 0.17407(14) 0.42526(9)
O9_5 O 0.4347(2) 0.22059(15) 0.53793(10)
C4_5 C 0.3962(2) 0.06393(18) 0.28210(12)
C5_5 C 0.4463(2) 0.1441(2) 0.53053(13)
C13_5 C 0.3573(2) 0.2903(2) 0.17825(13)
H4_5 H 0.3812 0.3366 0.1540
H5_5 H 0.3685 0.2376 0.1568
C14_5 C 0.4537(3) 0.1072(2) 0.46757(13)
H6_5 H 0.4061 0.0659 0.4610
H7_5 H 0.5112 0.0786 0.4628
C15_5 C 0.4256(2) 0.1547(2) 0.36640(13)
C16_5 C 0.3870(2) 0.13405(18) 0.24488(13)
H8_5 H 0.3727 0.1270 0.2042
C18_5 C 0.4172(2) 0.2252(2) 0.32946(14)
H10_5 H 0.4237 0.2795 0.3457
C20_5 C 0.4169(2) 0.0735(2) 0.34350(12)
H11_5 H 0.4246 0.0263 0.3683
O1_5 O 0.37922(16) 0.97130(13) 0.19831(9)
C1_5 C 0.3939(2) 0.97650(18) 0.25505(13)
O3_5 O 0.40977(16) 0.91467(13) 0.28870(9)
N1_5 N 0.34939(19) 0.77634(15) 0.37054(11)
O7_3 O 0.46611(13) 0.77656(12) 0.19313(8)
O10_4 O 0.2587(2) 0.54806(16) 0.52771(11)
N2_5 N 0.2780(2) 0.51184(18) 0.47156(13)
C6_5 C 0.3056(2) 0.6640(2) 0.44024(14)
C7_5 C 0.2994(2) 0.5701(2) 0.43321(14)
C8_5 C 0.3366(2) 0.8316(2) 0.41609(15)
H1_5 H 0.3466 0.8892 0.4089
C9_3 C 0.3341(3) 0.4768(2) 0.33585(16)
H2_3 H 0.3199 0.4236 0.3516
C10_5 C 0.3259(2) 0.5501(2) 0.37001(14)
N3_5 N 0.3769(2) 0.63809(17) 0.28597(11)
C11_5 C 0.3473(2) 0.62683(19) 0.34234(13)
C12_5 C 0.3849(3) 0.5661(2) 0.25394(16)
H3_5 H 0.4053 0.5698 0.2142
C17_5 C 0.3090(3) 0.8064(2) 0.47340(16)
H9_4 H 0.3014 0.8472 0.5035
C19_5 C 0.3345(2) 0.69576(19) 0.38481(13)
C21_3 C 0.3646(3) 0.4866(2) 0.27670(16)
H12_3 H 0.3714 0.4389 0.2522
C22_5 C 0.2925(3) 0.7214(2) 0.48662(15)
H13_4 H 0.2736 0.7041 0.5248
H14_3 H 0.4507 0.7316 0.1751
H15_4 H 0.2464 0.5075 0.5525
O14_3 O 0.53389(13) 0.77656(12) 0.30687(8)
H16_3 H 0.5493 0.7316 0.3249
H17_3 H 0.275531 0.448638 0.462263
O9_6 O 0.0653(2) 0.27941(15) 0.03793(10)
O10_5 O 0.2413(2) 0.95194(16) 0.02771(11)
C5_6 C 0.0537(2) 0.3559(2) 0.03053(13)
H9_5 H 0.1986 0.6528 0.0035
H13_5 H 0.2264 0.7959 0.0248
H15_5 H 0.2536 0.9925 0.0525
O1_6 O 0.12078(16) 0.52870(13) 0.69831(9)
C1_6 C 0.1061(2) 0.52350(18) 0.75505(13)
O2_6 O 0.09746(15) 0.21172(13) 0.73489(10)
C2_6 C 0.2428(2) 0.19786(19) 0.68588(13)
O3_6 O 0.09023(16) 0.58533(13) 0.78870(9)
C3_6 C 0.1009(2) 0.28459(18) 0.76858(13)
N1_6 N 0.15061(19) 0.72366(15) 0.87054(11)
O7_4 O 0.03389(13) 0.72344(12) 0.69313(8)
O8_6 O 0.0537(2) 0.32593(14) 0.92526(9)
C4_6 C 0.1038(2) 0.43607(18) 0.78210(12)
N2_6 N 0.2220(2) 0.98816(18) 0.97156(13)
C6_6 C 0.1944(2) 0.8360(2) 0.94024(14)
C7_6 C 0.2006(2) 0.9299(2) 0.93321(14)
C8_6 C 0.1634(2) 0.6684(2) 0.91609(15)
H1_6 H 0.1534 0.6108 0.9089
C10_6 C 0.1741(2) 0.9499(2) 0.87001(14)
N3_6 N 0.1231(2) 0.86191(17) 0.78597(11)
C11_6 C 0.1527(2) 0.87317(19) 0.84234(13)
C12_6 C 0.1151(3) 0.9339(2) 0.75394(16)
H3_6 H 0.0947 0.9302 0.7142
C13_6 C 0.1427(2) 0.2097(2) 0.67825(13)
H4_6 H 0.1188 0.1634 0.6540
H5_6 H 0.1315 0.2624 0.6568
C14_6 C 0.0463(3) 0.3928(2) 0.96757(13)
H6_6 H 0.0939 0.4341 0.9610
C15_6 C 0.0744(2) 0.3453(2) 0.86640(13)
C16_6 C 0.1130(2) 0.36595(18) 0.74488(13)
H8_6 H 0.1273 0.3730 0.7042
C17_6 C 0.1910(3) 0.6936(2) 0.97340(16)
C18_6 C 0.0828(2) 0.2748(2) 0.82946(14)
H10_6 H 0.0763 0.2205 0.8457
C19_6 C 0.1655(2) 0.80424(19) 0.88481(13)
C20_6 C 0.0831(2) 0.4265(2) 0.84350(12)
H11_6 H 0.0754 0.4737 0.8683
C22_6 C 0.2075(3) 0.7786(2) 0.98662(15)
H14_4 H 0.0493 0.7684 0.6751
H7_6 H 0.9888 0.4214 0.9628
O14_4 O 0.96611(13) 0.72344(12) 0.80687(8)
H16_4 H 0.9507 0.7684 0.8249
H7_7 H 0.0112 0.4214 0.5372
O1_7 O 0.87922(16) 0.52870(13) 0.80169(9)
C1_7 C 0.8939(2) 0.52350(18) 0.74495(13)
O2_7 O 0.90254(15) 0.21172(13) 0.76511(10)
C2_7 C 0.7572(2) 0.19786(19) 0.81412(13)
O3_7 O 0.90977(16) 0.58533(13) 0.71130(9)
C3_7 C 0.8991(2) 0.28459(18) 0.73142(13)
N1_7 N 0.84939(19) 0.72366(15) 0.62946(11)
O8_7 O 0.9463(2) 0.32593(14) 0.57474(9)
O9_7 O 0.9347(2) 0.27941(15) 0.46207(10)
C4_7 C 0.8962(2) 0.43607(18) 0.71790(12)
O10_6 O 0.7587(2) 0.95194(16) 0.47229(11)
C5_7 C 0.9463(2) 0.3559(2) 0.46947(13)
N2_7 N 0.7780(2) 0.98816(18) 0.52844(13)
C6_7 C 0.8056(2) 0.8360(2) 0.55976(14)
C7_7 C 0.7994(2) 0.9299(2) 0.56679(14)
C8_7 C 0.8366(2) 0.6684(2) 0.58391(15)
H1_7 H 0.8466 0.6108 0.5911
C10_7 C 0.8259(2) 0.9499(2) 0.62999(14)
N3_7 N 0.8769(2) 0.86191(17) 0.71403(11)
C11_7 C 0.8473(2) 0.87317(19) 0.65766(13)
C12_7 C 0.8849(3) 0.9339(2) 0.74606(16)
H3_7 H 0.9053 0.9302 0.7858
C13_7 C 0.8573(2) 0.2097(2) 0.82175(13)
H4_7 H 0.8812 0.1634 0.8460
H5_7 H 0.8685 0.2624 0.8432
C14_7 C 0.9537(3) 0.3928(2) 0.53243(13)
H6_7 H 0.9061 0.4341 0.5390
C15_7 C 0.9256(2) 0.3453(2) 0.63360(13)
C16_7 C 0.8870(2) 0.36595(18) 0.75512(13)
H8_7 H 0.8727 0.3730 0.7958
C17_7 C 0.8090(3) 0.6936(2) 0.52660(16)
H9_6 H 0.8014 0.6528 0.4965
C18_7 C 0.9172(2) 0.2748(2) 0.67054(14)
H10_7 H 0.9237 0.2205 0.6543
C19_7 C 0.8345(2) 0.80424(19) 0.61519(13)
C20_7 C 0.9169(2) 0.4265(2) 0.65650(12)
H11_7 H 0.9246 0.4737 0.6317
C22_7 C 0.7925(3) 0.7786(2) 0.51338(15)
H13_6 H 0.7736 0.7959 0.4752
H15_6 H 0.7464 0.9925 0.4475
O2_8 O 0.59746(15) 0.28828(13) 0.26511(10)
C2_8 C 0.7428(2) 0.30214(19) 0.31412(13)
C3_8 C 0.6009(2) 0.21541(18) 0.23142(13)
O8_8 O 0.5537(2) 0.17407(14) 0.07474(9)
C4_8 C 0.6038(2) 0.06393(18) 0.21790(12)
C13_8 C 0.6427(2) 0.2903(2) 0.32175(13)
H4_8 H 0.6188 0.3366 0.3460
H5_8 H 0.6315 0.2376 0.3432
C14_8 C 0.5463(3) 0.1072(2) 0.03243(13)
H6_8 H 0.5939 0.0659 0.0390
H7_8 H 0.4888 0.0786 0.0372
C15_8 C 0.5744(2) 0.1547(2) 0.13360(13)
C16_8 C 0.6130(2) 0.13405(18) 0.25512(13)
H8_8 H 0.6273 0.1270 0.2958
C18_8 C 0.5828(2) 0.2252(2) 0.17054(14)
H10_8 H 0.5763 0.2795 0.1543
C20_8 C 0.5831(2) 0.0735(2) 0.15650(12)
H11_8 H 0.5754 0.0263 0.1317
O9_8 O 0.5653(2) 0.22059(15) 0.96207(10)
C5_8 C 0.5537(2) 0.1441(2) 0.96947(13)
O1_8 O 0.62078(16) 0.97130(13) 0.30169(9)
C1_8 C 0.6061(2) 0.97650(18) 0.24495(13)
O3_8 O 0.59023(16) 0.91467(13) 0.21130(9)
N1_8 N 0.65061(19) 0.77634(15) 0.12946(11)
N2_8 N 0.7220(2) 0.51184(18) 0.02844(13)
C6_8 C 0.6944(2) 0.6640(2) 0.05976(14)
C7_8 C 0.7006(2) 0.5701(2) 0.06679(14)
C8_8 C 0.6634(2) 0.8316(2) 0.08391(15)
H1_8 H 0.6534 0.8892 0.0911
C9_4 C 0.6659(3) 0.4768(2) 0.16415(16)
H2_4 H 0.6801 0.4236 0.1484
C10_8 C 0.6741(2) 0.5501(2) 0.12999(14)
N3_8 N 0.6231(2) 0.63809(17) 0.21403(11)
C11_8 C 0.6527(2) 0.62683(19) 0.15766(13)
C12_8 C 0.6151(3) 0.5661(2) 0.24606(16)
H3_8 H 0.5947 0.5698 0.2858
C17_8 C 0.6910(3) 0.8064(2) 0.02660(16)
C19_8 C 0.6655(2) 0.69576(19) 0.11519(13)
C21_4 C 0.6354(3) 0.4866(2) 0.22330(16)
H12_4 H 0.6286 0.4389 0.2478
C22_8 C 0.7075(3) 0.7214(2) 0.01338(15)
H17_4 H 0.724469 0.448638 0.0377372
C9_5 C 0.8341(3) 0.9768(2) 0.16415(16)
H2_5 H 0.8199 0.9236 0.1484
C21_5 C 0.8646(3) 0.9866(2) 0.22330(16)
H12_5 H 0.8714 0.9389 0.2478
H17_5 H 0.775531 0.948638 0.0377372
C9_6 C 0.1659(3) 0.9768(2) 0.33585(16)
H2_6 H 0.1801 0.9236 0.3516
C21_6 C 0.1354(3) 0.9866(2) 0.27670(16)
H12_6 H 0.1286 0.9389 0.2522
H17_6 H 0.224469 0.948638 0.462263
O10_7 O 0.2587(2) 0.45194(16) 0.02771(11)
H9_7 H 0.3014 0.1528 0.0035
H13_7 H 0.2736 0.2959 0.0248
H15_7 H 0.2464 0.4925 0.0525
C9_7 C 0.1659(3) 0.0232(2) 0.83585(16)
H2_7 H 0.1801 0.0764 0.8516
C21_7 C 0.1354(3) 0.0134(2) 0.77670(16)
H12_7 H 0.1286 0.0611 0.7522
H17_7 H 0.224469 0.0513621 0.962263
C9_8 C 0.8341(3) 0.0232(2) 0.66415(16)
H2_8 H 0.8199 0.0764 0.6484
C21_8 C 0.8646(3) 0.0134(2) 0.72330(16)
H12_8 H 0.8714 0.0611 0.7478
H17_8 H 0.775531 0.0513621 0.537737
O10_8 O 0.7413(2) 0.54806(16) 0.97229(11)
H9_8 H 0.6986 0.8472 0.9965
H13_8 H 0.7264 0.7041 0.9752
H15_8 H 0.7536 0.5075 0.9475
loop_
_geom_bond_atom_site_label_1
_geom_bond_atom_site_label_2
_geom_bond_site_symmetry_1
_geom_bond_site_symmetry_2
Zn1 O1 1_555 1_555
Zn2 O3 1_555 1_555
O1 C1 1_555 1_555
C1 O3 1_555 1_555
N1 Zn2 1_555 1_555
O7 Zn1 1_555 1_555
O10 N2 1_555 1_555
N2 C7 1_555 1_555
C6 C7 1_555 1_555
C7 C10 1_555 1_555
C8 N1 1_555 1_555
H1 C8 1_555 1_555
C9 H2 1_555 1_555
C10 C9 1_555 1_555
N3 Zn2 1_555 1_555
C11 C10 1_555 1_555
C12 N3 1_555 1_555
H3 C12 1_555 1_555
C17 C8 1_555 1_555
H9 C17 1_555 1_555
C19 N1 1_555 1_555
C21 C9 1_555 1_555
H12 C21 1_555 1_555
C22 C6 1_555 1_555
H13 C22 1_555 1_555
H14 O7 1_555 1_555
H15 O10 1_555 1_555
Zn6 O7 1_555 1_555
O11 Zn1 1_555 1_555
O12 Zn1 1_555 1_555
O13 Zn2 1_555 1_555
O14 Zn2 1_555 1_555
H16 O14 1_555 1_555
Zn2 O7 1_555 1_555
C6 C19 1_555 1_555
N3 C11 1_555 1_555
C11 C19 1_555 1_555
C12 C21 1_555 1_555
C17 C22 1_555 1_555
Zn6 O14 1_555 1_555
N2 H17 1_555 1_555
O2 C3 1_555 1_555
C2 O4 1_555 1_555
O4 Zn3 1_555 1_555
C3 C16 1_555 1_555
O5 C5 1_555 1_555
O6 C2 1_555 1_555
O8 C14 1_555 1_555
O9 C5 1_555 1_555
C5 C14 1_555 1_555
C13 O2 1_555 1_555
H4 C13 1_555 1_555
H5 C13 1_555 1_555
C14 H6 1_555 1_555
H7 C14 1_555 1_555
C15 O8 1_555 1_555
C16 C4 1_555 1_555
H8 C16 1_555 1_555
C18 C3 1_555 1_555
H10 C18 1_555 1_555
C20 C4 1_555 1_555
H11 C20 1_555 1_555
Zn4 O5 1_555 1_555
Zn5 O6 1_555 1_555
C2 C13 1_555 1_555
C15 C18 1_555 1_555
C15 C20 1_555 1_555
H16_2 O14_2 1_555 1_555
Zn6_2 O14_2 1_555 1_555
Zn1_2 O1_2 1_555 1_555
Zn2_2 O3_2 1_555 1_555
O1_2 C1_2 1_555 1_555
C1_2 O3_2 1_555 1_555
O2_2 C3_2 1_555 1_555
C2_2 O4_2 1_555 1_555
O4_2 Zn4 1_555 1_555
C3_2 C16_2 1_555 1_555
N1_2 Zn2_2 1_555 1_555
O6_2 C2_2 1_555 1_555
O7_2 Zn1_2 1_555 1_555
O8_2 C14_2 1_555 1_555
C4_2 C1_2 1_555 1_555
N2_2 C7_2 1_555 1_555
C6_2 C7_2 1_555 1_555
C7_2 C10_2 1_555 1_555
C8_2 N1_2 1_555 1_555
H1_2 C8_2 1_555 1_555
N3_2 Zn2_2 1_555 1_555
C11_2 C10_2 1_555 1_555
C12_2 N3_2 1_555 1_555
H3_2 C12_2 1_555 1_555
C13_2 O2_2 1_555 1_555
H4_2 C13_2 1_555 1_555
H5_2 C13_2 1_555 1_555
C14_2 H6_2 1_555 1_555
C15_2 O8_2 1_555 1_555
C16_2 C4_2 1_555 1_555
H8_2 C16_2 1_555 1_555
C17_2 C8_2 1_555 1_555
C18_2 C3_2 1_555 1_555
H10_2 C18_2 1_555 1_555
C19_2 N1_2 1_555 1_555
C20_2 C4_2 1_555 1_555
H11_2 C20_2 1_555 1_555
C22_2 C6_2 1_555 1_555
H14_2 O7_2 1_555 1_555
Zn5_2 O6_2 1_555 1_555
O11_2 Zn1_2 1_555 1_555
O12_2 Zn1_2 1_555 1_555
O13_2 Zn2_2 1_555 1_555
Zn2_2 O7_2 1_555 1_555
C2_2 C13_2 1_555 1_555
C6_2 C19_2 1_555 1_555
N3_2 C11_2 1_555 1_555
C11_2 C19_2 1_555 1_555
C15_2 C18_2 1_555 1_555
C15_2 C20_2 1_555 1_555
C17_2 C22_2 1_555 1_555
O5_2 C5_2 1_555 1_555
O9_2 C5_2 1_555 1_555
H15_2 O10_2 1_555 1_555
Zn3 O5_2 1_555 1_555
Zn1_3 O1_3 1_555 1_555
Zn6_2 O3_3 1_555 1_555
O1_3 C1_3 1_555 1_555
C1_3 O3_3 1_555 1_555
O2_3 C3_3 1_555 1_555
C2_3 O4_3 1_555 1_555
O4_3 Zn3_2 1_555 1_555
C3_3 C16_3 1_555 1_555
N1_3 Zn6_2 1_555 1_555
O5_3 C5_3 1_555 1_555
O6_3 C2_3 1_555 1_555
O14_2 Zn1_3 1_555 1_555
O8_3 C14_3 1_555 1_555
O9_3 C5_3 1_555 1_555
C4_3 C1_3 1_555 1_555
O10_3 N2_3 1_555 1_555
C5_3 C14_3 1_555 1_555
N2_3 C7_3 1_555 1_555
C6_3 C7_3 1_555 1_555
C7_3 C10_3 1_555 1_555
C8_3 N1_3 1_555 1_555
H1_3 C8_3 1_555 1_555
N3_3 Zn6_2 1_555 1_555
C11_3 C10_3 1_555 1_555
C12_3 N3_3 1_555 1_555
H3_3 C12_3 1_555 1_555
C13_3 O2_3 1_555 1_555
H4_3 C13_3 1_555 1_555
H5_3 C13_3 1_555 1_555
C14_3 H6_3 1_555 1_555
C15_3 O8_3 1_555 1_555
C16_3 C4_3 1_555 1_555
H8_3 C16_3 1_555 1_555
C17_3 C8_3 1_555 1_555
H9_3 C17_3 1_555 1_555
C18_3 C3_3 1_555 1_555
H10_3 C18_3 1_555 1_555
C19_3 N1_3 1_555 1_555
C20_3 C4_3 1_555 1_555
H11_3 C20_3 1_555 1_555
C22_3 C6_3 1_555 1_555
H13_3 C22_3 1_555 1_555
H15_3 O10_3 1_555 1_555
Zn4_2 O5_3 1_555 1_555
Zn5_3 O6_3 1_555 1_555
O11_3 Zn1_3 1_555 1_555
O12_3 Zn1_3 1_555 1_555
O13_3 Zn6_2 1_555 1_555
C2_3 C13_3 1_555 1_555
C6_3 C19_3 1_555 1_555
N3_3 C11_3 1_555 1_555
C11_3 C19_3 1_555 1_555
C15_3 C18_3 1_555 1_555
C15_3 C20_3 1_555 1_555
C17_3 C22_3 1_555 1_555
Zn1_4 O1_4 1_555 1_555
Zn6 O3_4 1_555 1_555
O1_4 C1_4 1_555 1_555
C1_4 O3_4 1_555 1_555
N1_4 Zn6 1_555 1_555
O14 Zn1_4 1_555 1_555
N2_4 C7_4 1_555 1_555
C6_4 C7_4 1_555 1_555
C7_4 C10_4 1_555 1_555
C8_4 N1_4 1_555 1_555
H1_4 C8_4 1_555 1_555
C9_2 H2_2 1_555 1_555
C10_4 C9_2 1_555 1_555
N3_4 Zn6 1_555 1_555
C11_4 C10_4 1_555 1_555
C12_4 N3_4 1_555 1_555
H3_4 C12_4 1_555 1_555
C17_4 C8_4 1_555 1_555
C19_4 N1_4 1_555 1_555
C21_2 C9_2 1_555 1_555
H12_2 C21_2 1_555 1_555
C22_4 C6_4 1_555 1_555
O11_4 Zn1_4 1_555 1_555
O12_4 Zn1_4 1_555 1_555
O13_4 Zn6 1_555 1_555
C6_4 C19_4 1_555 1_555
N3_4 C11_4 1_555 1_555
C11_4 C19_4 1_555 1_555
C12_4 C21_2 1_555 1_555
C17_4 C22_4 1_555 1_555
N2_4 H17_2 1_555 1_555
O5_4 C5_4 1_555 1_555
O9_4 C5_4 1_555 1_555
Zn3_2 O5_4 1_555 1_555
O2_4 C3_4 1_555 1_555
C2_4 O4_4 1_555 1_555
O4_4 Zn4_2 1_555 1_555
C3_4 C16_4 1_555 1_555
O6_4 C2_4 1_555 1_555
O8_4 C14_4 1_555 1_555
C13_4 O2_4 1_555 1_555
H4_4 C13_4 1_555 1_555
H5_4 C13_4 1_555 1_555
C14_4 H6_4 1_555 1_555
H7_4 C14_4 1_555 1_555
C15_4 O8_4 1_555 1_555
C16_4 C4_4 1_555 1_555
H8_4 C16_4 1_555 1_555
C18_4 C3_4 1_555 1_555
H10_4 C18_4 1_555 1_555
C20_4 C4_4 1_555 1_555
H11_4 C20_4 1_555 1_555
Zn5_4 O6_4 1_555 1_555
C2_4 C13_4 1_555 1_555
C15_4 C18_4 1_555 1_555
C15_4 C20_4 1_555 1_555
O2_5 C3_5 1_555 1_555
C2_5 O11_3 1_555 1_555
C3_5 C16_5 1_555 1_555
O12_4 C5_5 1_555 1_555
O13_3 C2_5 1_555 1_555
O8_5 C14_5 1_555 1_555
O9_5 C5_5 1_555 1_555
C5_5 C14_5 1_555 1_555
C13_5 O2_5 1_555 1_555
H4_5 C13_5 1_555 1_555
H5_5 C13_5 1_555 1_555
C14_5 H6_5 1_555 1_555
H7_5 C14_5 1_555 1_555
C15_5 O8_5 1_555 1_555
C16_5 C4_5 1_555 1_555
H8_5 C16_5 1_555 1_555
C18_5 C3_5 1_555 1_555
H10_5 C18_5 1_555 1_555
C20_5 C4_5 1_555 1_555
H11_5 C20_5 1_555 1_555
C2_5 C13_5 1_555 1_555
C15_5 C18_5 1_555 1_555
C15_5 C20_5 1_555 1_555
Zn3_2 O1_5 1_555 1_555
Zn5_3 O3_5 1_555 1_555
O1_5 C1_5 1_555 1_555
C1_5 O3_5 1_555 1_555
N1_5 Zn5_3 1_555 1_555
O7_3 Zn3_2 1_555 1_555
O10_4 N2_5 1_555 1_555
N2_5 C7_5 1_555 1_555
C6_5 C7_5 1_555 1_555
C7_5 C10_5 1_555 1_555
C8_5 N1_5 1_555 1_555
H1_5 C8_5 1_555 1_555
C9_3 H2_3 1_555 1_555
C10_5 C9_3 1_555 1_555
N3_5 Zn5_3 1_555 1_555
C11_5 C10_5 1_555 1_555
C12_5 N3_5 1_555 1_555
H3_5 C12_5 1_555 1_555
C17_5 C8_5 1_555 1_555
H9_4 C17_5 1_555 1_555
C19_5 N1_5 1_555 1_555
C21_3 C9_3 1_555 1_555
H12_3 C21_3 1_555 1_555
C22_5 C6_5 1_555 1_555
H13_4 C22_5 1_555 1_555
H14_3 O7_3 1_555 1_555
H15_4 O10_4 1_555 1_555
Zn5_2 O7_3 1_555 1_555
O14_3 Zn5_3 1_555 1_555
H16_3 O14_3 1_555 1_555
Zn5_3 O7_3 1_555 1_555
C6_5 C19_5 1_555 1_555
N3_5 C11_5 1_555 1_555
C11_5 C19_5 1_555 1_555
C12_5 C21_3 1_555 1_555
C17_5 C22_5 1_555 1_555
Zn5_2 O14_3 1_555 1_555
N2_5 H17_3 1_555 1_555
O12_3 C5_6 1_555 1_555
O9_6 C5_6 1_555 1_555
H15_5 O10_5 1_555 1_555
Zn4_2 O1_6 1_555 1_555
Zn5_4 O3_6 1_555 1_555
O1_6 C1_6 1_555 1_555
C1_6 O3_6 1_555 1_555
O2_6 C3_6 1_555 1_555
C2_6 O11_4 1_555 1_555
C3_6 C16_6 1_555 1_555
N1_6 Zn5_4 1_555 1_555
O13_4 C2_6 1_555 1_555
O7_4 Zn4_2 1_555 1_555
O8_6 C14_6 1_555 1_555
C4_6 C1_6 1_555 1_555
N2_6 C7_6 1_555 1_555
C6_6 C7_6 1_555 1_555
C7_6 C10_6 1_555 1_555
C8_6 N1_6 1_555 1_555
H1_6 C8_6 1_555 1_555
N3_6 Zn5_4 1_555 1_555
C11_6 C10_6 1_555 1_555
C12_6 N3_6 1_555 1_555
H3_6 C12_6 1_555 1_555
C13_6 O2_6 1_555 1_555
H4_6 C13_6 1_555 1_555
H5_6 C13_6 1_555 1_555
C14_6 H6_6 1_555 1_555
C15_6 O8_6 1_555 1_555
C16_6 C4_6 1_555 1_555
H8_6 C16_6 1_555 1_555
C17_6 C8_6 1_555 1_555
C18_6 C3_6 1_555 1_555
H10_6 C18_6 1_555 1_555
C19_6 N1_6 1_555 1_555
C20_6 C4_6 1_555 1_555
H11_6 C20_6 1_555 1_555
C22_6 C6_6 1_555 1_555
H14_4 O7_4 1_555 1_555
Zn5_4 O7_4 1_555 1_555
C2_6 C13_6 1_555 1_555
C6_6 C19_6 1_555 1_555
N3_6 C11_6 1_555 1_555
C11_6 C19_6 1_555 1_555
C15_6 C18_6 1_555 1_555
C15_6 C20_6 1_555 1_555
C17_6 C22_6 1_555 1_555
H16_4 O14_4 1_555 1_555
Zn5 O14_4 1_555 1_555
Zn3 O1_7 1_555 1_555
Zn5 O3_7 1_555 1_555
O1_7 C1_7 1_555 1_555
C1_7 O3_7 1_555 1_555
O2_7 C3_7 1_555 1_555
C2_7 O11 1_555 1_555
C3_7 C16_7 1_555 1_555
N1_7 Zn5 1_555 1_555
O12_2 C5_7 1_555 1_555
O13 C2_7 1_555 1_555
O14_4 Zn3 1_555 1_555
O8_7 C14_7 1_555 1_555
O9_7 C5_7 1_555 1_555
C4_7 C1_7 1_555 1_555
O10_6 N2_7 1_555 1_555
C5_7 C14_7 1_555 1_555
N2_7 C7_7 1_555 1_555
C6_7 C7_7 1_555 1_555
C7_7 C10_7 1_555 1_555
C8_7 N1_7 1_555 1_555
H1_7 C8_7 1_555 1_555
N3_7 Zn5 1_555 1_555
C11_7 C10_7 1_555 1_555
C12_7 N3_7 1_555 1_555
H3_7 C12_7 1_555 1_555
C13_7 O2_7 1_555 1_555
H4_7 C13_7 1_555 1_555
H5_7 C13_7 1_555 1_555
C14_7 H6_7 1_555 1_555
C15_7 O8_7 1_555 1_555
C16_7 C4_7 1_555 1_555
H8_7 C16_7 1_555 1_555
C17_7 C8_7 1_555 1_555
H9_6 C17_7 1_555 1_555
C18_7 C3_7 1_555 1_555
H10_7 C18_7 1_555 1_555
C19_7 N1_7 1_555 1_555
C20_7 C4_7 1_555 1_555
H11_7 C20_7 1_555 1_555
C22_7 C6_7 1_555 1_555
H13_6 C22_7 1_555 1_555
H15_6 O10_6 1_555 1_555
C2_7 C13_7 1_555 1_555
C6_7 C19_7 1_555 1_555
N3_7 C11_7 1_555 1_555
C11_7 C19_7 1_555 1_555
C15_7 C18_7 1_555 1_555
C15_7 C20_7 1_555 1_555
C17_7 C22_7 1_555 1_555
O2_8 C3_8 1_555 1_555
C2_8 O11_2 1_555 1_555
C3_8 C16_8 1_555 1_555
O13_2 C2_8 1_555 1_555
O8_8 C14_8 1_555 1_555
C13_8 O2_8 1_555 1_555
H4_8 C13_8 1_555 1_555
H5_8 C13_8 1_555 1_555
C14_8 H6_8 1_555 1_555
H7_8 C14_8 1_555 1_555
C15_8 O8_8 1_555 1_555
C16_8 C4_8 1_555 1_555
H8_8 C16_8 1_555 1_555
C18_8 C3_8 1_555 1_555
H10_8 C18_8 1_555 1_555
C20_8 C4_8 1_555 1_555
H11_8 C20_8 1_555 1_555
C2_8 C13_8 1_555 1_555
C15_8 C18_8 1_555 1_555
C15_8 C20_8 1_555 1_555
O12 C5_8 1_555 1_555
O9_8 C5_8 1_555 1_555
Zn4 O1_8 1_555 1_555
Zn5_2 O3_8 1_555 1_555
O1_8 C1_8 1_555 1_555
C1_8 O3_8 1_555 1_555
N1_8 Zn5_2 1_555 1_555
O14_3 Zn4 1_555 1_555
N2_8 C7_8 1_555 1_555
C6_8 C7_8 1_555 1_555
C7_8 C10_8 1_555 1_555
C8_8 N1_8 1_555 1_555
H1_8 C8_8 1_555 1_555
C9_4 H2_4 1_555 1_555
C10_8 C9_4 1_555 1_555
N3_8 Zn5_2 1_555 1_555
C11_8 C10_8 1_555 1_555
C12_8 N3_8 1_555 1_555
H3_8 C12_8 1_555 1_555
C17_8 C8_8 1_555 1_555
C19_8 N1_8 1_555 1_555
C21_4 C9_4 1_555 1_555
H12_4 C21_4 1_555 1_555
C22_8 C6_8 1_555 1_555
C6_8 C19_8 1_555 1_555
N3_8 C11_8 1_555 1_555
C11_8 C19_8 1_555 1_555
C12_8 C21_4 1_555 1_555
C17_8 C22_8 1_555 1_555
N2_8 H17_4 1_555 1_555
C9_5 H2_5 1_555 1_555
C21_5 C9_5 1_555 1_555
H12_5 C21_5 1_555 1_555
C9_6 H2_6 1_555 1_555
C21_6 C9_6 1_555 1_555
H12_6 C21_6 1_555 1_555
H15_7 O10_7 1_555 1_555
C9_7 H2_7 1_555 1_555
C21_7 C9_7 1_555 1_555
H12_7 C21_7 1_555 1_555
C9_8 H2_8 1_555 1_555
C21_8 C9_8 1_555 1_555
H12_8 C21_8 1_555 1_555
H15_8 O10_8 1_555 1_555

#END
