
###############################################################################
#
# This file contains modified crystal structure data generated from the
# MOF subset of the Cambridge Structural Database (CSD) v543 
# hosted by the Cambridge Crystallographic Data Centre (CCDC).
#
# This work is licensed under the Creative Commons
# Attribution-NonCommercial-ShareAlike 4.0 International License.
# To view a copy of this license, visit
# http://creativecommons.org/licenses/by-nc-sa/4.0/
# or send a letter to
# Creative Commons, PO Box 1866, Mountain View, CA 94042, USA.
#
# CIF created using the CSD Python API on 29 September 2022
# The structure has been converted into the P1 space group
# The structure has a 3D framework
# The original CSD entry IJEYIG is in the monoclinic crystal system
# The framework has been calculated to contain at least 10.0% void space
# The void calculation uses a probe of radius 1.32A, grid spacing 0.4
# H atom positions have been added when not included in the experimental data
# Generated hydrogen atom positions removed from atoms on special positions
#
###############################################################################

data_IJEYIG
_chemical_formula_moiety         '(C92 H88 N24 O36 S4 Zn16)n'
_symmetry_cell_setting           triclinic
_symmetry_space_group_name_H-M   'P 1'
_symmetry_Int_Tables_number      1
_space_group_name_Hall           'P 1'
loop_
_symmetry_equiv_pos_site_id
_symmetry_equiv_pos_as_xyz
1 x,y,z
_cell_length_a                   17.181(3)
_cell_length_b                   9.5978(11)
_cell_length_c                   24.677(3)
_cell_angle_alpha                90
_cell_angle_beta                 130.288(9)
_cell_angle_gamma                90
_cell_volume                     3104.03
loop_
_atom_site_label
_atom_site_type_symbol
_atom_site_fract_x
_atom_site_fract_y
_atom_site_fract_z
Zn2 Zn 0.0000 0.0000 0.0000
C18 C 0.3691(6) 0.0848(8) 0.2301(4)
O4 O 0.4417(4) 0.1130(5) 0.2953(3)
O5 O 0.3070(4) 0.1713(5) 0.1846(3)
Zn5 Zn 0.45750(6) 0.30619(9) 0.32971(4)
C24 C 0.0962(5) 0.0090(9) 0.1521(4)
H16 H 0.0799 0.1029 0.1415
H17 H 0.1816 0.0326 0.2586
H23 H 0.3862 0.0046 0.4639
O22 O 0.1144(4) 0.1599(6) 0.0534(3)
Zn2_2 Zn 0.0000 1.0000 0.0000
C11 C 0.4182(5) 0.5699(8) 0.2824(4)
C12 C 0.3777(5) 0.6903(8) 0.2311(4)
C13 C 0.3096(5) 0.6620(8) 0.1582(4)
H9 H 0.2934 0.5708 0.1416
C14 C 0.2668(5) 0.7729(7) 0.1114(4)
C15 C 0.2899(6) 0.9082(8) 0.1350(4)
H10 H 0.2619 0.9812 0.1026
C16 C 0.3556(5) 0.9358(8) 0.2076(4)
C17 C 0.3992(5) 0.8266(8) 0.2555(4)
H11 H 0.4429 0.8446 0.3041
O2 O 0.4061(4) 0.4485(5) 0.2568(3)
O3 O 0.4587(4) 0.5903(6) 0.3454(3)
O6 O 0.1271(5) 0.6081(6) 0.0107(3)
S1 S 0.16933(15) 0.7449(2) 0.01807(10)
Zn3 Zn 0.54250(6) 0.69381(9) 0.67029(4)
C25 C 0.1565(6) 0.9683(8) 0.2225(4)
C26 C 0.1778(5) 0.8274(8) 0.2367(3)
C27 C 0.1362(5) 0.7344(9) 0.1821(4)
H18 H 0.1472 0.6391 0.1909
C28 C 0.0771(6) 0.7860(8) 0.1129(4)
H19 H 0.0484 0.7238 0.0754
C29 C 0.3550(5) 0.8084(9) 0.4242(4)
C30 C 0.3723(5) 0.6697(8) 0.4433(4)
H20 H 0.3481 0.5996 0.4098
C31 C 0.4273(6) 0.6391(8) 0.5144(4)
H21 H 0.4393 0.5460 0.5282
C32 C 0.4485(6) 0.8681(9) 0.5454(4)
H22 H 0.4747 0.9356 0.5804
C33 C 0.3950(6) 0.9106(9) 0.4757(4)
N7 N 0.4637(5) 0.7358(7) 0.5640(3)
N8 N 0.2974(5) 0.8595(7) 0.3528(3)
N9 N 0.2389(5) 0.7703(7) 0.3071(3)
N10 N 0.0606(4) 0.9220(7) 0.0990(3)
N12 N 0.6859(5) 0.6845(7) 0.6859(3)
O13 O 0.5939(4) 0.5515(5) 0.7432(3)
O17 O 0.5583(4) 0.8870(5) 0.7047(3)
O21 O 0.3929(4) 0.6597(5) 0.6386(3)
Zn2_3 Zn 1.0000 0.0000 1.0000
C2 C 0.8435(6) 0.0317(8) 0.7775(4)
C3 C 0.8222(5) 0.1726(8) 0.7633(3)
C4 C 0.8638(5) 0.2656(9) 0.8179(4)
H3 H 0.8528 0.3609 0.8091
C5 C 0.9229(6) 0.2140(8) 0.8871(4)
H4 H 0.9516 0.2762 0.9246
C6 C 0.6450(5) 0.1916(9) 0.5758(4)
C7 C 0.6277(5) 0.3303(8) 0.5567(4)
H5 H 0.6519 0.4004 0.5902
C8 C 0.5727(6) 0.3609(8) 0.4856(4)
H6 H 0.5607 0.4540 0.4718
C9 C 0.5515(6) 0.1319(9) 0.4546(4)
H7 H 0.5253 0.0644 0.4196
C10 C 0.6050(6) 0.0894(9) 0.5243(4)
C19 C 0.3077(6) 0.2906(8) 0.3658(4)
H12 H 0.3677 0.2707 0.4114
C20 C 0.2181(7) 0.2932(10) 0.3543(5)
H13 H 0.2178 0.2767 0.3913
C21 C 0.1292(7) 0.3206(9) 0.2870(5)
C22 C 0.1311(6) 0.3470(8) 0.2330(4)
H14 H 0.0714 0.3669 0.1873
C23 C 0.2259(6) 0.3429(9) 0.2488(4)
H15 H 0.2275 0.3600 0.2125
N1 N 0.5363(5) 0.2642(7) 0.4360(3)
N2 N 0.7026(5) 0.1405(7) 0.6472(3)
N3 N 0.7611(5) 0.2297(7) 0.6929(3)
N4 N 0.9394(4) 0.0780(7) 0.9010(3)
N5 N 0.3141(5) 0.3155(7) 0.3141(3)
N6 N 0.0366(6) 0.3200(8) 0.2800(3)
O8 O 0.6071(4) 0.3403(5) 0.3614(3)
C34 C 0.5818(5) 0.4301(8) 0.7176(4)
C35 C 0.6223(5) 0.3097(8) 0.7689(4)
C36 C 0.6904(5) 0.3380(8) 0.8418(4)
H24 H 0.7066 0.4292 0.8584
C37 C 0.7332(5) 0.2271(7) 0.8886(4)
C38 C 0.7101(6) 0.0918(8) 0.8650(4)
H25 H 0.7381 0.0188 0.8974
C39 C 0.6444(5) 0.0642(8) 0.7924(4)
C40 C 0.6008(5) 0.1734(8) 0.7445(4)
H26 H 0.5571 0.1554 0.6959
O14 O 0.5413(4) 0.4097(6) 0.6546(3)
O19 O 0.8729(5) 0.3919(6) 0.9893(3)
S2 S 0.83067(15) 0.2551(2) 0.98193(10)
Zn2_4 Zn 1.0000 1.0000 1.0000
C1 C 0.9038(5) 0.9910(9) 0.8479(4)
H1 H 0.9201 0.8971 0.8585
H2 H 0.8184 0.9674 0.7414
H8 H 0.6138 0.9954 0.5361
O9 O 0.8856(4) 0.8401(6) 0.9466(3)
C41 C 0.6309(6) 0.9152(8) 0.7699(4)
O18 O 0.6930(4) 0.8287(5) 0.8154(3)
C19_2 C 0.6923(6) 0.7094(8) 0.6342(4)
H12_2 H 0.6323 0.7293 0.5886
C20_2 C 0.7819(7) 0.7068(10) 0.6457(5)
H13_2 H 0.7822 0.7233 0.6087
C21_2 C 0.8708(7) 0.6794(9) 0.7130(5)
C22_2 C 0.8689(6) 0.6530(8) 0.7670(4)
H14_2 H 0.9286 0.6331 0.8127
C23_2 C 0.7741(6) 0.6571(9) 0.7512(4)
H15_2 H 0.7725 0.6400 0.7875
N6_2 N 0.9634(6) 0.6800(8) 0.7200(3)
Zn2_5 Zn -0.0000 0.0000 1.0000
O1 O 0.0956(4) 0.8555(6) 0.9942(2)
Zn2_6 Zn -0.0000 1.0000 1.0000
O7 O 0.2168(4) 0.7533(7) 0.9872(3)
Zn2_7 Zn 1.0000 0.0000 0.0000
O10 O 0.9044(4) 0.1445(6) 0.0058(2)
O20 O 0.7832(4) 0.2467(7) 0.0128(3)
Zn2_8 Zn 1.0000 1.0000 0.0000
Zn6 Zn 0.54250(6) 0.30619(9) 0.17029(4)
C42 C 0.6923(6) 0.2906(8) 0.1342(4)
H27 H 0.6323 0.2707 0.0886
C43 C 0.7819(7) 0.2932(10) 0.1457(5)
H28 H 0.7822 0.2767 0.1087
C44 C 0.8708(7) 0.3206(9) 0.2130(5)
C45 C 0.8689(6) 0.3470(8) 0.2670(4)
H29 H 0.9286 0.3669 0.3127
C46 C 0.7741(6) 0.3429(9) 0.2512(4)
H30 H 0.7725 0.3600 0.2875
N11 N 0.6859(5) 0.3155(7) 0.1859(3)
N13 N 0.9634(6) 0.3200(8) 0.2200(3)
C8_2 C 0.4273(6) 0.3609(8) 0.0144(4)
H6_2 H 0.4393 0.4540 0.0282
C9_2 C 0.4485(6) 0.1319(9) 0.0454(4)
H7_2 H 0.4747 0.0644 0.0804
N1_2 N 0.4637(5) 0.2642(7) 0.0640(3)
O8_2 O 0.3929(4) 0.3403(5) 0.1386(3)
O12 O 0.5939(4) 0.4485(5) 0.2432(3)
O16 O 0.5583(4) 0.1130(5) 0.2047(3)
Zn2_9 Zn 1.0000 0.0000 0.5000
C18_2 C 0.6309(6) 0.0848(8) 0.2699(4)
O5_2 O 0.6930(4) 0.1713(5) 0.3154(3)
C24_2 C 0.9038(5) 0.0090(9) 0.3479(4)
H16_2 H 0.9201 0.1029 0.3585
H17_2 H 0.8184 0.0326 0.2414
H23_2 H 0.6138 0.0046 0.0361
O22_2 O 0.8856(4) 0.1599(6) 0.4466(3)
O1_2 O 0.9044(4) 0.8555(6) 0.5058(2)
Zn2_10 Zn 1.0000 1.0000 0.5000
C11_2 C 0.5818(5) 0.5699(8) 0.2176(4)
C12_2 C 0.6223(5) 0.6903(8) 0.2689(4)
C13_2 C 0.6904(5) 0.6620(8) 0.3418(4)
H9_2 H 0.7066 0.5708 0.3584
C14_2 C 0.7332(5) 0.7729(7) 0.3886(4)
C15_2 C 0.7101(6) 0.9082(8) 0.3650(4)
H10_2 H 0.7381 0.9812 0.3974
C16_2 C 0.6444(5) 0.9358(8) 0.2924(4)
C17_2 C 0.6008(5) 0.8266(8) 0.2445(4)
H11_2 H 0.5571 0.8446 0.1959
O3_2 O 0.5413(4) 0.5903(6) 0.1546(3)
O6_2 O 0.8729(5) 0.6081(6) 0.4893(3)
O7_2 O 0.7832(4) 0.7533(7) 0.5128(3)
S1_2 S 0.83067(15) 0.7449(2) 0.48193(10)
C25_2 C 0.8435(6) 0.9683(8) 0.2775(4)
C26_2 C 0.8222(5) 0.8274(8) 0.2633(3)
C27_2 C 0.8638(5) 0.7344(9) 0.3179(4)
H18_2 H 0.8528 0.6391 0.3091
C28_2 C 0.9229(6) 0.7860(8) 0.3871(4)
H19_2 H 0.9516 0.7238 0.4246
C29_2 C 0.6450(5) 0.8084(9) 0.0758(4)
C30_2 C 0.6277(5) 0.6697(8) 0.0567(4)
H20_2 H 0.6519 0.5996 0.0902
C33_2 C 0.6050(6) 0.9106(9) 0.0243(4)
N8_2 N 0.7026(5) 0.8595(7) 0.1472(3)
N9_2 N 0.7611(5) 0.7703(7) 0.1929(3)
N10_2 N 0.9394(4) 0.9220(7) 0.4010(3)
Zn2_11 Zn -0.0000 0.0000 0.5000
C2_2 C 0.1565(6) 0.0317(8) 0.7225(4)
C3_2 C 0.1778(5) 0.1726(8) 0.7367(3)
C4_2 C 0.1362(5) 0.2656(9) 0.6821(4)
H3_2 H 0.1472 0.3609 0.6909
C5_2 C 0.0771(6) 0.2140(8) 0.6129(4)
H4_2 H 0.0484 0.2762 0.5754
C6_2 C 0.3550(5) 0.1916(9) 0.9242(4)
C7_2 C 0.3723(5) 0.3303(8) 0.9433(4)
H5_2 H 0.3481 0.4004 0.9098
C10_2 C 0.3950(6) 0.0894(9) 0.9757(4)
N2_2 N 0.2974(5) 0.1405(7) 0.8528(3)
N3_2 N 0.2389(5) 0.2297(7) 0.8071(3)
N4_2 N 0.0606(4) 0.0780(7) 0.5990(3)
O10_2 O 0.0956(4) 0.1445(6) 0.4942(2)
Zn7 Zn 0.45750(6) 0.69381(9) 0.82971(4)
C34_2 C 0.4182(5) 0.4301(8) 0.7824(4)
C35_2 C 0.3777(5) 0.3097(8) 0.7311(4)
C36_2 C 0.3096(5) 0.3380(8) 0.6582(4)
H24_2 H 0.2934 0.4292 0.6416
C37_2 C 0.2668(5) 0.2271(7) 0.6114(4)
C38_2 C 0.2899(6) 0.0918(8) 0.6350(4)
H25_2 H 0.2619 0.0188 0.6026
C39_2 C 0.3556(5) 0.0642(8) 0.7076(4)
C40_2 C 0.3992(5) 0.1734(8) 0.7555(4)
H26_2 H 0.4429 0.1554 0.8041
O11 O 0.4061(4) 0.5515(5) 0.7568(3)
O14_2 O 0.4587(4) 0.4097(6) 0.8454(3)
O19_2 O 0.1271(5) 0.3919(6) 0.5107(3)
O20_2 O 0.2168(4) 0.2467(7) 0.4872(3)
S2_2 S 0.16933(15) 0.2551(2) 0.51807(10)
Zn2_12 Zn -0.0000 1.0000 0.5000
C1_2 C 0.0962(5) 0.9910(9) 0.6521(4)
H1_2 H 0.0799 0.8971 0.6415
H2_2 H 0.1816 0.9674 0.7586
H8_2 H 0.3862 0.9954 0.9639
O9_2 O 0.1144(4) 0.8401(6) 0.5534(3)
C41_2 C 0.3691(6) 0.9152(8) 0.7301(4)
O15 O 0.4417(4) 0.8870(5) 0.7953(3)
O18_2 O 0.3070(4) 0.8287(5) 0.6846(3)
C31_2 C 0.5727(6) 0.6391(8) 0.9856(4)
H21_2 H 0.5607 0.5460 0.9718
C32_2 C 0.5515(6) 0.8681(9) 0.9546(4)
H22_2 H 0.5253 0.9356 0.9196
N7_2 N 0.5363(5) 0.7358(7) 0.9360(3)
N12_2 N 0.3141(5) 0.6845(7) 0.8141(3)
O21_2 O 0.6071(4) 0.6597(5) 0.8614(3)
C42_2 C 0.3077(6) 0.7094(8) 0.8658(4)
H27_2 H 0.3677 0.7293 0.9114
C43_2 C 0.2181(7) 0.7068(10) 0.8543(5)
H28_2 H 0.2178 0.7233 0.8913
C44_2 C 0.1292(7) 0.6794(9) 0.7870(5)
C45_2 C 0.1311(6) 0.6530(8) 0.7330(4)
H29_2 H 0.0714 0.6331 0.6873
C46_2 C 0.2259(6) 0.6571(9) 0.7488(4)
H30_2 H 0.2275 0.6400 0.7125
N13_2 N 0.0366(6) 0.6800(8) 0.7800(3)
loop_
_geom_bond_atom_site_label_1
_geom_bond_atom_site_label_2
_geom_bond_site_symmetry_1
_geom_bond_site_symmetry_2
O4 C18 1_555 1_555
O5 C18 1_555 1_555
Zn5 O4 1_555 1_555
C24 H16 1_555 1_555
O22 Zn2 1_555 1_555
C11 C12 1_555 1_555
C12 C13 1_555 1_555
C13 H9 1_555 1_555
C14 C13 1_555 1_555
C15 C14 1_555 1_555
H10 C15 1_555 1_555
C16 C15 1_555 1_555
C17 C12 1_555 1_555
H11 C17 1_555 1_555
O2 C11 1_555 1_555
O3 C11 1_555 1_555
O6 S1 1_555 1_555
Zn3 N7 1_555 1_555
Zn5 O2 1_555 1_555
C26 C25 1_555 1_555
C27 C26 1_555 1_555
H18 C27 1_555 1_555
C28 C27 1_555 1_555
H19 C28 1_555 1_555
C29 C30 1_555 1_555
C30 H20 1_555 1_555
C31 C30 1_555 1_555
H21 C31 1_555 1_555
C32 H22 1_555 1_555
C33 C29 1_555 1_555
N7 C31 1_555 1_555
N8 C29 1_555 1_555
N9 C26 1_555 1_555
N10 Zn2_2 1_555 1_555
N12 Zn3 1_555 1_555
O13 Zn3 1_555 1_555
O17 Zn3 1_555 1_555
O21 Zn3 1_555 1_555
C14 S1 1_555 1_555
C16 C17 1_555 1_555
C28 N10 1_555 1_555
C32 C33 1_555 1_555
C32 N7 1_555 1_555
N8 N9 1_555 1_555
Zn5 N1 1_555 1_555
Zn2_3 N4 1_555 1_555
C3 C2 1_555 1_555
C4 C3 1_555 1_555
H3 C4 1_555 1_555
C5 C4 1_555 1_555
H4 C5 1_555 1_555
C6 C7 1_555 1_555
C7 H5 1_555 1_555
C8 C7 1_555 1_555
H6 C8 1_555 1_555
C9 H7 1_555 1_555
C10 C6 1_555 1_555
C19 H12 1_555 1_555
C20 C19 1_555 1_555
H13 C20 1_555 1_555
C21 C20 1_555 1_555
C22 C21 1_555 1_555
H14 C22 1_555 1_555
C23 C22 1_555 1_555
H15 C23 1_555 1_555
N1 C8 1_555 1_555
N2 C6 1_555 1_555
N3 C3 1_555 1_555
N5 Zn5 1_555 1_555
N6 C21 1_555 1_555
O8 Zn5 1_555 1_555
C34 C35 1_555 1_555
C35 C36 1_555 1_555
C36 H24 1_555 1_555
C37 C36 1_555 1_555
C38 C37 1_555 1_555
H25 C38 1_555 1_555
C39 C38 1_555 1_555
C40 C35 1_555 1_555
H26 C40 1_555 1_555
O13 C34 1_555 1_555
O14 C34 1_555 1_555
O19 S2 1_555 1_555
C5 N4 1_555 1_555
C9 C10 1_555 1_555
C9 N1 1_555 1_555
C19 N5 1_555 1_555
C23 N5 1_555 1_555
N2 N3 1_555 1_555
C37 S2 1_555 1_555
C39 C40 1_555 1_555
C1 H1 1_555 1_555
O9 Zn2_4 1_555 1_555
O17 C41 1_555 1_555
O18 C41 1_555 1_555
C19_2 H12_2 1_555 1_555
C20_2 C19_2 1_555 1_555
H13_2 C20_2 1_555 1_555
C21_2 C20_2 1_555 1_555
C22_2 C21_2 1_555 1_555
H14_2 C22_2 1_555 1_555
C23_2 C22_2 1_555 1_555
H15_2 C23_2 1_555 1_555
N6_2 C21_2 1_555 1_555
C19_2 N12 1_555 1_555
C23_2 N12 1_555 1_555
O1 Zn2_6 1_555 1_555
O10 Zn2_7 1_555 1_555
Zn6 N11 1_555 1_555
C42 H27 1_555 1_555
C43 C42 1_555 1_555
H28 C43 1_555 1_555
C44 C43 1_555 1_555
C45 C44 1_555 1_555
H29 C45 1_555 1_555
C46 C45 1_555 1_555
H30 C46 1_555 1_555
N11 C42 1_555 1_555
C44 N13 1_555 1_555
C46 N11 1_555 1_555
Zn6 N1_2 1_555 1_555
H6_2 C8_2 1_555 1_555
C9_2 H7_2 1_555 1_555
N1_2 C8_2 1_555 1_555
O8_2 Zn6 1_555 1_555
O12 Zn6 1_555 1_555
O16 Zn6 1_555 1_555
C9_2 N1_2 1_555 1_555
O16 C18_2 1_555 1_555
O5_2 C18_2 1_555 1_555
C24_2 H16_2 1_555 1_555
O22_2 Zn2_9 1_555 1_555
O1_2 Zn2_10 1_555 1_555
C11_2 C12_2 1_555 1_555
C12_2 C13_2 1_555 1_555
C13_2 H9_2 1_555 1_555
C14_2 C13_2 1_555 1_555
C15_2 C14_2 1_555 1_555
H10_2 C15_2 1_555 1_555
C16_2 C15_2 1_555 1_555
C17_2 C12_2 1_555 1_555
H11_2 C17_2 1_555 1_555
O12 C11_2 1_555 1_555
O3_2 C11_2 1_555 1_555
O6_2 S1_2 1_555 1_555
O7_2 S1_2 1_555 1_555
S1_2 O1_2 1_555 1_555
C26_2 C25_2 1_555 1_555
C27_2 C26_2 1_555 1_555
H18_2 C27_2 1_555 1_555
C28_2 C27_2 1_555 1_555
H19_2 C28_2 1_555 1_555
C29_2 C30_2 1_555 1_555
C30_2 H20_2 1_555 1_555
C33_2 C29_2 1_555 1_555
N8_2 C29_2 1_555 1_555
N9_2 C26_2 1_555 1_555
N10_2 Zn2_10 1_555 1_555
C14_2 S1_2 1_555 1_555
C16_2 C17_2 1_555 1_555
C28_2 N10_2 1_555 1_555
N8_2 N9_2 1_555 1_555
Zn2_11 N4_2 1_555 1_555
C3_2 C2_2 1_555 1_555
C4_2 C3_2 1_555 1_555
H3_2 C4_2 1_555 1_555
C5_2 C4_2 1_555 1_555
H4_2 C5_2 1_555 1_555
C6_2 C7_2 1_555 1_555
C7_2 H5_2 1_555 1_555
C10_2 C6_2 1_555 1_555
N2_2 C6_2 1_555 1_555
N3_2 C3_2 1_555 1_555
O10_2 Zn2_11 1_555 1_555
Zn7 O11 1_555 1_555
C34_2 C35_2 1_555 1_555
C35_2 C36_2 1_555 1_555
C36_2 H24_2 1_555 1_555
C37_2 C36_2 1_555 1_555
C38_2 C37_2 1_555 1_555
H25_2 C38_2 1_555 1_555
C39_2 C38_2 1_555 1_555
C40_2 C35_2 1_555 1_555
H26_2 C40_2 1_555 1_555
O11 C34_2 1_555 1_555
O14_2 C34_2 1_555 1_555
O19_2 S2_2 1_555 1_555
O20_2 S2_2 1_555 1_555
S2_2 O10_2 1_555 1_555
C5_2 N4_2 1_555 1_555
N2_2 N3_2 1_555 1_555
C37_2 S2_2 1_555 1_555
C39_2 C40_2 1_555 1_555
C1_2 H1_2 1_555 1_555
O9_2 Zn2_12 1_555 1_555
Zn7 O15 1_555 1_555
O15 C41_2 1_555 1_555
O18_2 C41_2 1_555 1_555
Zn7 N7_2 1_555 1_555
H21_2 C31_2 1_555 1_555
C32_2 H22_2 1_555 1_555
N7_2 C31_2 1_555 1_555
N12_2 Zn7 1_555 1_555
O21_2 Zn7 1_555 1_555
C32_2 N7_2 1_555 1_555
C42_2 H27_2 1_555 1_555
C43_2 C42_2 1_555 1_555
H28_2 C43_2 1_555 1_555
C44_2 C43_2 1_555 1_555
C45_2 C44_2 1_555 1_555
H29_2 C45_2 1_555 1_555
C46_2 C45_2 1_555 1_555
H30_2 C46_2 1_555 1_555
N12_2 C42_2 1_555 1_555
C44_2 N13_2 1_555 1_555
C46_2 N12_2 1_555 1_555

#END
