
###############################################################################
#
# This file contains modified crystal structure data generated from the
# MOF subset of the Cambridge Structural Database (CSD) v543 
# hosted by the Cambridge Crystallographic Data Centre (CCDC).
#
# This work is licensed under the Creative Commons
# Attribution-NonCommercial-ShareAlike 4.0 International License.
# To view a copy of this license, visit
# http://creativecommons.org/licenses/by-nc-sa/4.0/
# or send a letter to
# Creative Commons, PO Box 1866, Mountain View, CA 94042, USA.
#
# CIF created using the CSD Python API on 29 September 2022
# The structure has been converted into the P1 space group
# The structure has a 3D framework
# The original CSD entry IJICAI is in the tetragonal crystal system
# The framework has been calculated to contain at least 10.0% void space
# The void calculation uses a probe of radius 1.32A, grid spacing 0.4
# H atom positions have been added when not included in the experimental data
# Generated hydrogen atom positions removed from atoms on special positions
#
###############################################################################

data_IJICAI
_chemical_formula_moiety         '(C236 H144 Cd22 O92)n'
_symmetry_cell_setting           triclinic
_symmetry_space_group_name_H-M   'P 1'
_symmetry_Int_Tables_number      1
_space_group_name_Hall           'P 1'
loop_
_symmetry_equiv_pos_site_id
_symmetry_equiv_pos_as_xyz
1 x,y,z
_cell_length_a                   11.5806(12)
_cell_length_b                   11.5806(12)
_cell_length_c                   40.445(9)
_cell_angle_alpha                90
_cell_angle_beta                 90
_cell_angle_gamma                90
_cell_volume                     5424.09
loop_
_atom_site_label
_atom_site_type_symbol
_atom_site_fract_x
_atom_site_fract_y
_atom_site_fract_z
Cd2 Cd 0.000000 0.000000 0.36412(4)
O5 O 0.000000 0.000000 0.4229(6)
O6 O 0.000000 0.000000 0.2594(3)
Cd6 Cd 0.12163(8) 0.15721(8) 0.27147(2)
Cd22 Cd 0.000000 0.000000 0.63588(4)
O22 O 0.1901(7) 0.0343(9) 0.3659(2)
O25 O 0.1926(9) 0.0313(8) 0.3117(2)
O29 O 0.2574(10) 0.0270(11) 0.2427(2)
Cd2_2 Cd 0.000000 1.000000 0.36412(4)
O1 O 0.0343(9) 0.8099(7) 0.3659(2)
O2 O 0.0313(8) 0.8074(9) 0.3117(2)
O3 O 0.2426(10) 0.4730(11) 0.2573(2)
O4 O 0.2327(12) 0.3033(10) 0.2847(3)
O5_2 O 0.000000 1.000000 0.4229(6)
O6_2 O 0.000000 1.000000 0.2594(3)
O7 O 0.2787(18) 0.1589(13) 0.500000
C1 C 0.2247(10) 0.4152(11) 0.2822(3)
C2 C 0.1829(9) 0.4759(9) 0.3136(2)
C3 C 0.1353(9) 0.5840(8) 0.3121(3)
H1 H 0.123790 0.618878 0.291643
C4 C 0.1035(8) 0.6432(8) 0.3413(2)
C5 C 0.1221(9) 0.5893(9) 0.3711(2)
H2 H 0.100438 0.627648 0.390353
C6 C 0.1716(9) 0.4807(9) 0.3740(2)
C7 C 0.2012(9) 0.4233(8) 0.3449(2)
H3 H 0.233283 0.349758 0.345959
C8 C 0.0562(11) 0.7607(8) 0.3403(3)
C9 C 0.1852(10) 0.4221(9) 0.4068(2)
C10 C 0.1832(18) 0.3061(17) 0.4083(4)
H4 H 0.171365 0.262156 0.389346
C11 C 0.1996(18) 0.2520(17) 0.4397(4)
H5 H 0.196541 0.171935 0.441273
C12 C 0.2200(11) 0.3170(11) 0.4680(2)
C13 C 0.231(2) 0.429(2) 0.4642(6)
C14 C 0.2169(19) 0.482(2) 0.4328(5)
H6 H 0.230883 0.560339 0.430518
C15 C 0.2389(19) 0.2555(19) 0.500000
O8 O 0.0343(9) 0.8099(7) 0.6341(2)
O9 O 0.0313(8) 0.8074(9) 0.6883(2)
O10 O 0.2426(10) 0.4730(11) 0.7427(2)
O11 O 0.2327(12) 0.3033(10) 0.7153(3)
C16 C 0.2247(10) 0.4152(11) 0.7178(3)
C17 C 0.1829(9) 0.4759(9) 0.6864(2)
C18 C 0.1353(9) 0.5840(8) 0.6879(3)
H7 H 0.123790 0.618878 0.708357
C19 C 0.1035(8) 0.6432(8) 0.6587(2)
C20 C 0.1221(9) 0.5893(9) 0.6289(2)
H8 H 0.100438 0.627648 0.609647
C21 C 0.1716(9) 0.4807(9) 0.6260(2)
C22 C 0.2012(9) 0.4233(8) 0.6551(2)
H9 H 0.233283 0.349758 0.654041
C23 C 0.0562(11) 0.7607(8) 0.6597(3)
C24 C 0.1852(10) 0.4221(9) 0.5932(2)
C25 C 0.1832(18) 0.3061(17) 0.5917(4)
H10 H 0.171365 0.262156 0.610654
C26 C 0.1996(18) 0.2520(17) 0.5603(4)
H11 H 0.196541 0.171935 0.558727
C27 C 0.2200(11) 0.3170(11) 0.5320(2)
C28 C 0.231(2) 0.429(2) 0.5358(6)
C29 C 0.2169(19) 0.482(2) 0.5672(5)
H12 H 0.230883 0.560339 0.569482
Cd5 Cd 0.15721(8) 0.87837(8) 0.27147(2)
Cd8 Cd 0.37837(8) 0.34279(8) 0.77147(2)
Cd11 Cd 0.34279(8) 0.62163(8) 0.77147(2)
Cd12 Cd 0.12163(8) 0.15721(8) 0.72853(2)
Cd15 Cd 0.15721(8) 0.87837(8) 0.72853(2)
Cd17 Cd 0.37837(8) 0.34279(8) 0.22853(2)
Cd18 Cd 0.34279(8) 0.62163(8) 0.22853(2)
Cd22_2 Cd 0.000000 1.000000 0.63588(4)
O33 O 0.0270(11) 0.7426(10) 0.2427(2)
O35 O 0.3033(10) 0.7673(12) 0.2847(3)
H27 H 0.0760769 0.972652 0.431084
H29 H 0.25137 0.482418 0.514422
H30 H 0.25137 0.482418 0.485578
Cd2_3 Cd 1.000000 0.000000 0.36412(4)
O5_3 O 1.000000 0.000000 0.4229(6)
O6_3 O 1.000000 0.000000 0.2594(3)
Cd7 Cd 0.84279(8) 0.12163(8) 0.27147(2)
Cd22_3 Cd 1.000000 0.000000 0.63588(4)
O21 O 0.9657(9) 0.1901(7) 0.3659(2)
H28 H 0.985645 0.0795583 0.431084
Cd1 Cd 0.87837(8) 0.84279(8) 0.27147(2)
Cd2_4 Cd 1.000000 1.000000 0.36412(4)
O5_4 O 1.000000 1.000000 0.4229(6)
O6_4 O 1.000000 1.000000 0.2594(3)
O13 O 0.9687(8) 0.1926(9) 0.3117(2)
O14 O 0.7574(10) 0.5270(11) 0.2573(2)
O15 O 0.7673(12) 0.6967(10) 0.2847(3)
O16 O 0.7213(18) 0.8411(13) 0.500000
C30 C 0.7753(10) 0.5848(11) 0.2822(3)
C31 C 0.8171(9) 0.5241(9) 0.3136(2)
C32 C 0.8647(9) 0.4160(8) 0.3121(3)
H13 H 0.876210 0.381122 0.291643
C33 C 0.8965(8) 0.3568(8) 0.3413(2)
C34 C 0.8779(9) 0.4107(9) 0.3711(2)
H14 H 0.899562 0.372352 0.390353
C35 C 0.8284(9) 0.5193(9) 0.3740(2)
C36 C 0.7988(9) 0.5767(8) 0.3449(2)
H15 H 0.766717 0.650242 0.345959
C37 C 0.9438(11) 0.2393(8) 0.3403(3)
C38 C 0.8148(10) 0.5779(9) 0.4068(2)
C39 C 0.8168(18) 0.6939(17) 0.4083(4)
H16 H 0.828635 0.737844 0.389346
C40 C 0.8004(18) 0.7480(17) 0.4397(4)
H17 H 0.803459 0.828065 0.441273
C41 C 0.7800(11) 0.6830(11) 0.4680(2)
C42 C 0.769(2) 0.571(2) 0.4642(6)
C43 C 0.7831(19) 0.518(2) 0.4328(5)
H18 H 0.769117 0.439661 0.430518
C44 C 0.7611(19) 0.7445(19) 0.500000
O17 O 0.9657(9) 0.1901(7) 0.6341(2)
O18 O 0.9687(8) 0.1926(9) 0.6883(2)
O19 O 0.7574(10) 0.5270(11) 0.7427(2)
O20 O 0.7673(12) 0.6967(10) 0.7153(3)
C45 C 0.7753(10) 0.5848(11) 0.7178(3)
C46 C 0.8171(9) 0.5241(9) 0.6864(2)
C47 C 0.8647(9) 0.4160(8) 0.6879(3)
H19 H 0.876210 0.381122 0.708357
C48 C 0.8965(8) 0.3568(8) 0.6587(2)
C49 C 0.8779(9) 0.4107(9) 0.6289(2)
H20 H 0.899562 0.372352 0.609647
C50 C 0.8284(9) 0.5193(9) 0.6260(2)
C51 C 0.7988(9) 0.5767(8) 0.6551(2)
H21 H 0.766717 0.650242 0.654041
C52 C 0.9438(11) 0.2393(8) 0.6597(3)
C53 C 0.8148(10) 0.5779(9) 0.5932(2)
C54 C 0.8168(18) 0.6939(17) 0.5917(4)
H22 H 0.828635 0.737844 0.610654
C55 C 0.8004(18) 0.7480(17) 0.5603(4)
H23 H 0.803459 0.828065 0.558727
C56 C 0.7800(11) 0.6830(11) 0.5320(2)
C57 C 0.769(2) 0.571(2) 0.5358(6)
C58 C 0.7831(19) 0.518(2) 0.5672(5)
H24 H 0.769117 0.439661 0.569482
Cd9 Cd 0.62163(8) 0.65721(8) 0.77147(2)
Cd10 Cd 0.65721(8) 0.37837(8) 0.77147(2)
Cd13 Cd 0.87837(8) 0.84279(8) 0.72853(2)
Cd14 Cd 0.84279(8) 0.12163(8) 0.72853(2)
Cd16 Cd 0.62163(8) 0.65721(8) 0.22853(2)
Cd19 Cd 0.65721(8) 0.37837(8) 0.22853(2)
Cd22_4 Cd 1.000000 1.000000 0.63588(4)
O23 O 0.8099(7) 0.9657(9) 0.3659(2)
O27 O 0.8074(9) 0.9687(8) 0.3117(2)
O31 O 0.7426(10) 0.9730(11) 0.2427(2)
O32 O 0.9730(11) 0.2574(10) 0.2427(2)
O34 O 0.6967(10) 0.2327(12) 0.2847(3)
H25 H 0.74863 0.517582 0.485578
H26 H 0.74863 0.517582 0.514422
H28_2 H 0.0143548 0.920442 0.431084
H27_2 H 0.923923 0.0273475 0.431084
O3_2 O 0.5270(11) 0.2426(10) 0.2573(2)
O7_2 O 0.8411(13) 0.2787(18) 0.500000
C1_2 C 0.5848(11) 0.2247(10) 0.2822(3)
C2_2 C 0.5241(9) 0.1829(9) 0.3136(2)
C3_2 C 0.4160(8) 0.1353(9) 0.3121(3)
H1_2 H 0.381122 0.123790 0.291643
C4_2 C 0.3568(8) 0.1035(8) 0.3413(2)
C5_2 C 0.4107(9) 0.1221(9) 0.3711(2)
H2_2 H 0.372352 0.100438 0.390353
C6_2 C 0.5193(9) 0.1716(9) 0.3740(2)
C7_2 C 0.5767(8) 0.2012(9) 0.3449(2)
H3_2 H 0.650242 0.233283 0.345959
C8_2 C 0.2393(8) 0.0562(11) 0.3403(3)
C9_2 C 0.5779(9) 0.1852(10) 0.4068(2)
C10_2 C 0.6939(17) 0.1832(18) 0.4083(4)
H4_2 H 0.737844 0.171365 0.389346
C11_2 C 0.7480(17) 0.1996(18) 0.4397(4)
H5_2 H 0.828065 0.196541 0.441273
C12_2 C 0.6830(11) 0.2200(11) 0.4680(2)
C13_2 C 0.571(2) 0.231(2) 0.4642(6)
C14_2 C 0.518(2) 0.2169(19) 0.4328(5)
H6_2 H 0.439661 0.230883 0.430518
C15_2 C 0.7445(19) 0.2389(19) 0.500000
O8_2 O 0.1901(7) 0.0343(9) 0.6341(2)
O9_2 O 0.1926(9) 0.0313(8) 0.6883(2)
O10_2 O 0.5270(11) 0.2426(10) 0.7427(2)
O11_2 O 0.6967(10) 0.2327(12) 0.7153(3)
C16_2 C 0.5848(11) 0.2247(10) 0.7178(3)
C17_2 C 0.5241(9) 0.1829(9) 0.6864(2)
C18_2 C 0.4160(8) 0.1353(9) 0.6879(3)
H7_2 H 0.381122 0.123790 0.708357
C19_2 C 0.3568(8) 0.1035(8) 0.6587(2)
C20_2 C 0.4107(9) 0.1221(9) 0.6289(2)
H8_2 H 0.372352 0.100438 0.609647
C21_2 C 0.5193(9) 0.1716(9) 0.6260(2)
C22_2 C 0.5767(8) 0.2012(9) 0.6551(2)
H9_2 H 0.650242 0.233283 0.654041
C23_2 C 0.2393(8) 0.0562(11) 0.6597(3)
C24_2 C 0.5779(9) 0.1852(10) 0.5932(2)
C25_2 C 0.6939(17) 0.1832(18) 0.5917(4)
H10_2 H 0.737844 0.171365 0.610654
C26_2 C 0.7480(17) 0.1996(18) 0.5603(4)
H11_2 H 0.828065 0.196541 0.558727
C27_2 C 0.6830(11) 0.2200(11) 0.5320(2)
C28_2 C 0.571(2) 0.231(2) 0.5358(6)
C29_2 C 0.518(2) 0.2169(19) 0.5672(5)
H12_2 H 0.439661 0.230883 0.569482
H27_3 H 0.0273475 0.0760769 0.431084
H29_2 H 0.517582 0.25137 0.514422
H30_2 H 0.517582 0.25137 0.485578
O14_2 O 0.4730(11) 0.7574(10) 0.2573(2)
O16_2 O 0.1589(13) 0.7213(18) 0.500000
C30_2 C 0.4152(11) 0.7753(10) 0.2822(3)
C31_2 C 0.4759(9) 0.8171(9) 0.3136(2)
C32_2 C 0.5840(8) 0.8647(9) 0.3121(3)
H13_2 H 0.618878 0.876210 0.291643
C33_2 C 0.6432(8) 0.8965(8) 0.3413(2)
C34_2 C 0.5893(9) 0.8779(9) 0.3711(2)
H14_2 H 0.627648 0.899562 0.390353
C35_2 C 0.4807(9) 0.8284(9) 0.3740(2)
C36_2 C 0.4233(8) 0.7988(9) 0.3449(2)
H15_2 H 0.349758 0.766717 0.345959
C37_2 C 0.7607(8) 0.9438(11) 0.3403(3)
C38_2 C 0.4221(9) 0.8148(10) 0.4068(2)
C39_2 C 0.3061(17) 0.8168(18) 0.4083(4)
H16_2 H 0.262156 0.828635 0.389346
C40_2 C 0.2520(17) 0.8004(18) 0.4397(4)
H17_2 H 0.171935 0.803459 0.441273
C41_2 C 0.3170(11) 0.7800(11) 0.4680(2)
C42_2 C 0.429(2) 0.769(2) 0.4642(6)
C43_2 C 0.482(2) 0.7831(19) 0.4328(5)
H18_2 H 0.560339 0.769117 0.430518
C44_2 C 0.2555(19) 0.7611(19) 0.500000
O17_2 O 0.8099(7) 0.9657(9) 0.6341(2)
O18_2 O 0.8074(9) 0.9687(8) 0.6883(2)
O19_2 O 0.4730(11) 0.7574(10) 0.7427(2)
O20_2 O 0.3033(10) 0.7673(12) 0.7153(3)
C45_2 C 0.4152(11) 0.7753(10) 0.7178(3)
C46_2 C 0.4759(9) 0.8171(9) 0.6864(2)
C47_2 C 0.5840(8) 0.8647(9) 0.6879(3)
H19_2 H 0.618878 0.876210 0.708357
C48_2 C 0.6432(8) 0.8965(8) 0.6587(2)
C49_2 C 0.5893(9) 0.8779(9) 0.6289(2)
H20_2 H 0.627648 0.899562 0.609647
C50_2 C 0.4807(9) 0.8284(9) 0.6260(2)
C51_2 C 0.4233(8) 0.7988(9) 0.6551(2)
H21_2 H 0.349758 0.766717 0.654041
C52_2 C 0.7607(8) 0.9438(11) 0.6597(3)
C53_2 C 0.4221(9) 0.8148(10) 0.5932(2)
C54_2 C 0.3061(17) 0.8168(18) 0.5917(4)
H22_2 H 0.262156 0.828635 0.610654
C55_2 C 0.2520(17) 0.8004(18) 0.5603(4)
H23_2 H 0.171935 0.803459 0.558727
C56_2 C 0.3170(11) 0.7800(11) 0.5320(2)
C57_2 C 0.429(2) 0.769(2) 0.5358(6)
C58_2 C 0.482(2) 0.7831(19) 0.5672(5)
H24_2 H 0.560339 0.769117 0.569482
H25_2 H 0.482418 0.74863 0.485578
H26_2 H 0.482418 0.74863 0.514422
H28_3 H 0.920442 0.985645 0.431084
H28_4 H 0.0795583 0.0143548 0.431084
H27_4 H 0.972652 0.923923 0.431084
O8_3 O 0.5343(9) 0.3099(7) 0.1341(2)
O9_3 O 0.5313(8) 0.3074(9) 0.1883(2)
C18_3 C 0.6353(9) 0.0840(8) 0.1879(3)
H7_3 H 0.623790 0.118878 0.208357
C19_3 C 0.6035(8) 0.1432(8) 0.1587(2)
C20_3 C 0.6221(9) 0.0893(9) 0.1289(2)
H8_3 H 0.600438 0.127648 0.109647
C23_3 C 0.5562(11) 0.2607(8) 0.1597(3)
H12_3 H 0.730883 0.060339 0.069482
O16_3 O 0.2213(18) 0.3411(13) -0.000000
C44_3 C 0.2611(19) 0.2445(19) -0.000000
O20_3 O 0.2673(12) 0.1967(10) 0.2153(3)
C45_3 C 0.2753(10) 0.0848(11) 0.2178(3)
C46_3 C 0.3171(9) 0.0241(9) 0.1864(2)
C50_3 C 0.3284(9) 0.0193(9) 0.1260(2)
C51_3 C 0.2988(9) 0.0767(8) 0.1551(2)
H21_3 H 0.266717 0.150242 0.154041
C53_3 C 0.3148(10) 0.0779(9) 0.0932(2)
C54_3 C 0.3168(18) 0.1939(17) 0.0917(4)
H22_3 H 0.328635 0.237844 0.110654
C55_3 C 0.3004(18) 0.2480(17) 0.0603(4)
H23_3 H 0.303459 0.328065 0.058727
C56_3 C 0.2800(11) 0.1830(11) 0.0320(2)
C57_3 C 0.269(2) 0.071(2) 0.0358(6)
C58_3 C 0.2831(19) 0.018(2) 0.0672(5)
Cd22_5 Cd 0.500000 0.500000 0.13588(4)
H26_3 H 0.24863 0.0175821 0.014422
Cd2_5 Cd 0.500000 0.500000 0.86412(4)
O1_2 O 0.5343(9) 0.3099(7) 0.8659(2)
O2_2 O 0.5313(8) 0.3074(9) 0.8117(2)
O5_5 O 0.500000 0.500000 0.9229(6)
O6_5 O 0.500000 0.500000 0.7594(3)
C3_3 C 0.6353(9) 0.0840(8) 0.8121(3)
H1_3 H 0.623790 0.118878 0.791643
C4_3 C 0.6035(8) 0.1432(8) 0.8413(2)
C5_3 C 0.6221(9) 0.0893(9) 0.8711(2)
H2_3 H 0.600438 0.127648 0.890353
C8_3 C 0.5562(11) 0.2607(8) 0.8403(3)
H6_3 H 0.730883 0.060339 0.930518
O14_3 O 0.2574(10) 0.0270(11) 0.7573(2)
O15_2 O 0.2673(12) 0.1967(10) 0.7847(3)
O16_4 O 0.2213(18) 0.3411(13) 1.000000
C30_3 C 0.2753(10) 0.0848(11) 0.7822(3)
C31_3 C 0.3171(9) 0.0241(9) 0.8136(2)
C35_3 C 0.3284(9) 0.0193(9) 0.8740(2)
C36_3 C 0.2988(9) 0.0767(8) 0.8449(2)
H15_3 H 0.266717 0.150242 0.845959
C38_3 C 0.3148(10) 0.0779(9) 0.9068(2)
C39_3 C 0.3168(18) 0.1939(17) 0.9083(4)
H16_3 H 0.328635 0.237844 0.889346
C40_3 C 0.3004(18) 0.2480(17) 0.9397(4)
H17_3 H 0.303459 0.328065 0.941273
C41_3 C 0.2800(11) 0.1830(11) 0.9680(2)
C42_3 C 0.269(2) 0.071(2) 0.9642(6)
C43_3 C 0.2831(19) 0.018(2) 0.9328(5)
C44_4 C 0.2611(19) 0.2445(19) 1.000000
O21_2 O 0.4657(9) 0.6901(7) 0.8659(2)
O22_2 O 0.6901(7) 0.5343(9) 0.8659(2)
O23_2 O 0.3099(7) 0.4657(9) 0.8659(2)
O25_2 O 0.6926(9) 0.5313(8) 0.8117(2)
O27_2 O 0.3074(9) 0.4687(8) 0.8117(2)
O35_2 O 0.8033(10) 0.2673(12) 0.7847(3)
H25_3 H 0.24863 0.0175821 0.985578
O7_3 O 0.7787(18) 0.6589(13) -0.000000
C15_3 C 0.7389(19) 0.7555(19) -0.000000
O11_3 O 0.7327(12) 0.8033(10) 0.2153(3)
C16_3 C 0.7247(10) 0.9152(11) 0.2178(3)
C17_3 C 0.6829(9) 0.9759(9) 0.1864(2)
C21_3 C 0.6716(9) 0.9807(9) 0.1260(2)
C22_3 C 0.7012(9) 0.9233(8) 0.1551(2)
H9_3 H 0.733283 0.849758 0.154041
C24_3 C 0.6852(10) 0.9221(9) 0.0932(2)
C25_3 C 0.6832(18) 0.8061(17) 0.0917(4)
H10_3 H 0.671365 0.762156 0.110654
C26_3 C 0.6996(18) 0.7520(17) 0.0603(4)
H11_3 H 0.696541 0.671935 0.058727
C27_3 C 0.7200(11) 0.8170(11) 0.0320(2)
C28_3 C 0.731(2) 0.929(2) 0.0358(6)
C29_3 C 0.7169(19) 0.982(2) 0.0672(5)
O17_3 O 0.4657(9) 0.6901(7) 0.1341(2)
O18_3 O 0.4687(8) 0.6926(9) 0.1883(2)
C47_3 C 0.3647(9) 0.9160(8) 0.1879(3)
H19_3 H 0.376210 0.881122 0.208357
C48_3 C 0.3965(8) 0.8568(8) 0.1587(2)
C49_3 C 0.3779(9) 0.9107(9) 0.1289(2)
H20_3 H 0.399562 0.872352 0.109647
C52_3 C 0.4438(11) 0.7393(8) 0.1597(3)
H24_3 H 0.269117 0.939661 0.069482
H29_3 H 0.75137 0.982418 0.014422
O3_3 O 0.7426(10) 0.9730(11) 0.7573(2)
O4_2 O 0.7327(12) 0.8033(10) 0.7847(3)
O7_4 O 0.7787(18) 0.6589(13) 1.000000
C1_3 C 0.7247(10) 0.9152(11) 0.7822(3)
C2_3 C 0.6829(9) 0.9759(9) 0.8136(2)
C6_3 C 0.6716(9) 0.9807(9) 0.8740(2)
C7_3 C 0.7012(9) 0.9233(8) 0.8449(2)
H3_3 H 0.733283 0.849758 0.845959
C9_3 C 0.6852(10) 0.9221(9) 0.9068(2)
C10_3 C 0.6832(18) 0.8061(17) 0.9083(4)
H4_3 H 0.671365 0.762156 0.889346
C11_3 C 0.6996(18) 0.7520(17) 0.9397(4)
H5_3 H 0.696541 0.671935 0.941273
C12_3 C 0.7200(11) 0.8170(11) 0.9680(2)
C13_3 C 0.731(2) 0.929(2) 0.9642(6)
C14_3 C 0.7169(19) 0.982(2) 0.9328(5)
C15_4 C 0.7389(19) 0.7555(19) 1.000000
O13_2 O 0.4687(8) 0.6926(9) 0.8117(2)
C32_3 C 0.3647(9) 0.9160(8) 0.8121(3)
H13_3 H 0.376210 0.881122 0.791643
C33_3 C 0.3965(8) 0.8568(8) 0.8413(2)
C34_3 C 0.3779(9) 0.9107(9) 0.8711(2)
H14_3 H 0.399562 0.872352 0.890353
C37_3 C 0.4438(11) 0.7393(8) 0.8403(3)
H18_3 H 0.269117 0.939661 0.930518
O34_2 O 0.1967(10) 0.7327(12) 0.7847(3)
H30_3 H 0.75137 0.982418 0.985578
O7_5 O 0.3411(13) 0.7787(18) -0.000000
C15_5 C 0.2445(19) 0.7389(19) -0.000000
O11_4 O 0.1967(10) 0.7327(12) 0.2153(3)
C16_4 C 0.0848(11) 0.7247(10) 0.2178(3)
C17_4 C 0.0241(9) 0.6829(9) 0.1864(2)
C21_4 C 0.0193(9) 0.6716(9) 0.1260(2)
C22_4 C 0.0767(8) 0.7012(9) 0.1551(2)
H9_4 H 0.150242 0.733283 0.154041
C24_4 C 0.0779(9) 0.6852(10) 0.0932(2)
C25_4 C 0.1939(17) 0.6832(18) 0.0917(4)
H10_4 H 0.237844 0.671365 0.110654
C26_4 C 0.2480(17) 0.6996(18) 0.0603(4)
H11_4 H 0.328065 0.696541 0.058727
C27_4 C 0.1830(11) 0.7200(11) 0.0320(2)
C28_4 C 0.071(2) 0.731(2) 0.0358(6)
C29_4 C 0.018(2) 0.7169(19) 0.0672(5)
O17_4 O 0.3099(7) 0.4657(9) 0.1341(2)
O18_4 O 0.3074(9) 0.4687(8) 0.1883(2)
C47_4 C 0.0840(8) 0.3647(9) 0.1879(3)
H19_4 H 0.118878 0.376210 0.208357
C48_4 C 0.1432(8) 0.3965(8) 0.1587(2)
C49_4 C 0.0893(9) 0.3779(9) 0.1289(2)
H20_4 H 0.127648 0.399562 0.109647
C52_4 C 0.2607(8) 0.4438(11) 0.1597(3)
H24_4 H 0.060339 0.269117 0.069482
H29_4 H 0.0175821 0.75137 0.014422
O3_4 O 0.0270(11) 0.7426(10) 0.7573(2)
O7_6 O 0.3411(13) 0.7787(18) 1.000000
C1_4 C 0.0848(11) 0.7247(10) 0.7822(3)
C2_4 C 0.0241(9) 0.6829(9) 0.8136(2)
C6_4 C 0.0193(9) 0.6716(9) 0.8740(2)
C7_4 C 0.0767(8) 0.7012(9) 0.8449(2)
H3_4 H 0.150242 0.733283 0.845959
C9_4 C 0.0779(9) 0.6852(10) 0.9068(2)
C10_4 C 0.1939(17) 0.6832(18) 0.9083(4)
H4_4 H 0.237844 0.671365 0.889346
C11_4 C 0.2480(17) 0.6996(18) 0.9397(4)
H5_4 H 0.328065 0.696541 0.941273
C12_4 C 0.1830(11) 0.7200(11) 0.9680(2)
C13_4 C 0.071(2) 0.731(2) 0.9642(6)
C14_4 C 0.018(2) 0.7169(19) 0.9328(5)
C15_6 C 0.2445(19) 0.7389(19) 1.000000
C32_4 C 0.0840(8) 0.3647(9) 0.8121(3)
H13_4 H 0.118878 0.376210 0.791643
C33_4 C 0.1432(8) 0.3965(8) 0.8413(2)
C34_4 C 0.0893(9) 0.3779(9) 0.8711(2)
H14_4 H 0.127648 0.399562 0.890353
C37_4 C 0.2607(8) 0.4438(11) 0.8403(3)
H18_4 H 0.060339 0.269117 0.930518
H30_4 H 0.0175821 0.75137 0.985578
O8_4 O 0.6901(7) 0.5343(9) 0.1341(2)
O9_4 O 0.6926(9) 0.5313(8) 0.1883(2)
C18_4 C 0.9160(8) 0.6353(9) 0.1879(3)
H7_4 H 0.881122 0.623790 0.208357
C19_4 C 0.8568(8) 0.6035(8) 0.1587(2)
C20_4 C 0.9107(9) 0.6221(9) 0.1289(2)
H8_4 H 0.872352 0.600438 0.109647
C23_4 C 0.7393(8) 0.5562(11) 0.1597(3)
H12_4 H 0.939661 0.730883 0.069482
O16_5 O 0.6589(13) 0.2213(18) -0.000000
C44_5 C 0.7555(19) 0.2611(19) -0.000000
O20_4 O 0.8033(10) 0.2673(12) 0.2153(3)
C45_4 C 0.9152(11) 0.2753(10) 0.2178(3)
C46_4 C 0.9759(9) 0.3171(9) 0.1864(2)
C50_4 C 0.9807(9) 0.3284(9) 0.1260(2)
C51_4 C 0.9233(8) 0.2988(9) 0.1551(2)
H21_4 H 0.849758 0.266717 0.154041
C53_4 C 0.9221(9) 0.3148(10) 0.0932(2)
C54_4 C 0.8061(17) 0.3168(18) 0.0917(4)
H22_4 H 0.762156 0.328635 0.110654
C55_4 C 0.7520(17) 0.3004(18) 0.0603(4)
H23_4 H 0.671935 0.303459 0.058727
C56_4 C 0.8170(11) 0.2800(11) 0.0320(2)
C57_4 C 0.929(2) 0.269(2) 0.0358(6)
C58_4 C 0.982(2) 0.2831(19) 0.0672(5)
H26_4 H 0.982418 0.24863 0.014422
C3_4 C 0.9160(8) 0.6353(9) 0.8121(3)
H1_4 H 0.881122 0.623790 0.791643
C4_4 C 0.8568(8) 0.6035(8) 0.8413(2)
C5_4 C 0.9107(9) 0.6221(9) 0.8711(2)
H2_4 H 0.872352 0.600438 0.890353
C8_4 C 0.7393(8) 0.5562(11) 0.8403(3)
H6_4 H 0.939661 0.730883 0.930518
O14_4 O 0.9730(11) 0.2574(10) 0.7573(2)
O16_6 O 0.6589(13) 0.2213(18) 1.000000
C30_4 C 0.9152(11) 0.2753(10) 0.7822(3)
C31_4 C 0.9759(9) 0.3171(9) 0.8136(2)
C35_4 C 0.9807(9) 0.3284(9) 0.8740(2)
C36_4 C 0.9233(8) 0.2988(9) 0.8449(2)
H15_4 H 0.849758 0.266717 0.845959
C38_4 C 0.9221(9) 0.3148(10) 0.9068(2)
C39_4 C 0.8061(17) 0.3168(18) 0.9083(4)
H16_4 H 0.762156 0.328635 0.889346
C40_4 C 0.7520(17) 0.3004(18) 0.9397(4)
H17_4 H 0.671935 0.303459 0.941273
C41_4 C 0.8170(11) 0.2800(11) 0.9680(2)
C42_4 C 0.929(2) 0.269(2) 0.9642(6)
C43_4 C 0.982(2) 0.2831(19) 0.9328(5)
C44_6 C 0.7555(19) 0.2611(19) 1.000000
H25_4 H 0.982418 0.24863 0.985578
O36 O 0.000000 0.000000 0.7406(3)
O5_6 O 0.000000 -0.000000 0.5771(6)
O36_2 O 0.000000 1.000000 0.7406(3)
O5_7 O 0.000000 1.000000 0.5771(6)
H28_5 H 0.0143548 0.920442 0.568916
O36_3 O 1.000000 0.000000 0.7406(3)
O5_8 O 1.000000 -0.000000 0.5771(6)
O36_4 O 1.000000 1.000000 0.7406(3)
H27_5 H 0.923923 0.0273475 0.568916
O5_9 O 1.000000 1.000000 0.5771(6)
H27_6 H 0.0760769 0.972652 0.568916
H28_6 H 0.985645 0.0795583 0.568916
H28_7 H 0.0795583 0.0143548 0.568916
H27_7 H 0.972652 0.923923 0.568916
H27_8 H 0.0273475 0.0760769 0.568916
H28_8 H 0.920442 0.985645 0.568916
O36_5 O 0.500000 0.500000 0.2406(3)
O5_10 O 0.500000 0.500000 0.0771(6)
loop_
_geom_bond_atom_site_label_1
_geom_bond_atom_site_label_2
_geom_bond_site_symmetry_1
_geom_bond_site_symmetry_2
O5 Cd2 1_555 1_555
Cd6 O6 1_555 1_555
O22 Cd2 1_555 1_555
Cd6 O25 1_555 1_555
Cd6 O29 1_555 1_555
Cd2_2 O1 1_555 1_555
O1 C8 1_555 1_555
O2 C8 1_555 1_555
O3 C1 1_555 1_555
O4 C1 1_555 1_555
O5_2 Cd2_2 1_555 1_555
O7 C15 1_555 1_555
C1 C2 1_555 1_555
C2 C3 1_555 1_555
C3 H1 1_555 1_555
C4 C3 1_555 1_555
C5 C4 1_555 1_555
H2 C5 1_555 1_555
C6 C5 1_555 1_555
C7 C2 1_555 1_555
H3 C7 1_555 1_555
C8 C4 1_555 1_555
C9 C6 1_555 1_555
C10 C9 1_555 1_555
H4 C10 1_555 1_555
C11 C10 1_555 1_555
H5 C11 1_555 1_555
C12 C11 1_555 1_555
C13 C12 1_555 1_555
C14 C9 1_555 1_555
H6 C14 1_555 1_555
C15 C12 1_555 1_555
O8 C23 1_555 1_555
O9 C23 1_555 1_555
O10 C16 1_555 1_555
O11 C16 1_555 1_555
C16 C17 1_555 1_555
C17 C18 1_555 1_555
C18 H7 1_555 1_555
C19 C18 1_555 1_555
C20 C19 1_555 1_555
H8 C20 1_555 1_555
C21 C20 1_555 1_555
C22 C17 1_555 1_555
H9 C22 1_555 1_555
C23 C19 1_555 1_555
C24 C21 1_555 1_555
C25 C24 1_555 1_555
H10 C25 1_555 1_555
C26 C25 1_555 1_555
H11 C26 1_555 1_555
C27 C15 1_555 1_555
C28 C27 1_555 1_555
C29 C24 1_555 1_555
H12 C29 1_555 1_555
Cd6 O4 1_555 1_555
Cd5 O2 1_555 1_555
Cd8 O10 1_555 1_555
Cd11 O10 1_555 1_555
Cd12 O11 1_555 1_555
Cd15 O9 1_555 1_555
Cd17 O3 1_555 1_555
Cd18 O3 1_555 1_555
Cd22_2 O8 1_555 1_555
O35 Cd5 1_555 1_555
O6_2 Cd5 1_555 1_555
C6 C7 1_555 1_555
C13 C14 1_555 1_555
C21 C22 1_555 1_555
C26 C27 1_555 1_555
C28 C29 1_555 1_555
Cd5 O33 1_555 1_555
O5_2 H27 1_555 1_555
C28 H29 1_555 1_555
C13 H30 1_555 1_555
O5_3 Cd2_3 1_555 1_555
Cd7 O6_3 1_555 1_555
O21 Cd2_3 1_555 1_555
O5_3 H28 1_555 1_555
O5_4 Cd2_4 1_555 1_555
O6_4 Cd1 1_555 1_555
O21 C37 1_555 1_555
O14 C30 1_555 1_555
O15 Cd1 1_555 1_555
O16 C44 1_555 1_555
C30 O15 1_555 1_555
C31 C30 1_555 1_555
C32 C31 1_555 1_555
H13 C32 1_555 1_555
C33 C32 1_555 1_555
C34 C33 1_555 1_555
H14 C34 1_555 1_555
C35 C34 1_555 1_555
C36 C31 1_555 1_555
H15 C36 1_555 1_555
C37 O13 1_555 1_555
C38 C35 1_555 1_555
C39 C38 1_555 1_555
H16 C39 1_555 1_555
C40 C39 1_555 1_555
H17 C40 1_555 1_555
C41 C40 1_555 1_555
C42 C41 1_555 1_555
C43 C38 1_555 1_555
H18 C43 1_555 1_555
C44 C41 1_555 1_555
O17 C52 1_555 1_555
O18 C52 1_555 1_555
O19 C45 1_555 1_555
O20 C45 1_555 1_555
C45 C46 1_555 1_555
C46 C47 1_555 1_555
C47 H19 1_555 1_555
C48 C47 1_555 1_555
C49 C48 1_555 1_555
H20 C49 1_555 1_555
C50 C49 1_555 1_555
C51 C46 1_555 1_555
H21 C51 1_555 1_555
C52 C48 1_555 1_555
C53 C50 1_555 1_555
C54 C53 1_555 1_555
H22 C54 1_555 1_555
C55 C54 1_555 1_555
H23 C55 1_555 1_555
C56 C44 1_555 1_555
C57 C56 1_555 1_555
C58 C53 1_555 1_555
H24 C58 1_555 1_555
Cd7 O13 1_555 1_555
Cd9 O19 1_555 1_555
Cd10 O19 1_555 1_555
Cd14 O18 1_555 1_555
Cd16 O14 1_555 1_555
Cd19 O14 1_555 1_555
Cd22_3 O17 1_555 1_555
O23 Cd2_4 1_555 1_555
O27 Cd1 1_555 1_555
O31 Cd1 1_555 1_555
O34 Cd7 1_555 1_555
C33 C37 1_555 1_555
C35 C36 1_555 1_555
C42 C43 1_555 1_555
O20 Cd13 1_555 1_555
C50 C51 1_555 1_555
C55 C56 1_555 1_555
C57 C58 1_555 1_555
Cd7 O32 1_555 1_555
C42 H25 1_555 1_555
C57 H26 1_555 1_555
O5_2 H28_2 1_555 1_555
O5_3 H27_2 1_555 1_555
O22 C8_2 1_555 1_555
O25 C8_2 1_555 1_555
O3_2 C1_2 1_555 1_555
O34 C1_2 1_555 1_555
O7_2 C15_2 1_555 1_555
C1_2 C2_2 1_555 1_555
C2_2 C3_2 1_555 1_555
C3_2 H1_2 1_555 1_555
C4_2 C3_2 1_555 1_555
C5_2 C4_2 1_555 1_555
H2_2 C5_2 1_555 1_555
C6_2 C5_2 1_555 1_555
C7_2 C2_2 1_555 1_555
H3_2 C7_2 1_555 1_555
C8_2 C4_2 1_555 1_555
C9_2 C6_2 1_555 1_555
C10_2 C9_2 1_555 1_555
H4_2 C10_2 1_555 1_555
C11_2 C10_2 1_555 1_555
H5_2 C11_2 1_555 1_555
C12_2 C11_2 1_555 1_555
C13_2 C12_2 1_555 1_555
C14_2 C9_2 1_555 1_555
H6_2 C14_2 1_555 1_555
C15_2 C12_2 1_555 1_555
O8_2 C23_2 1_555 1_555
O9_2 C23_2 1_555 1_555
O10_2 C16_2 1_555 1_555
O11_2 C16_2 1_555 1_555
C16_2 C17_2 1_555 1_555
C17_2 C18_2 1_555 1_555
C18_2 H7_2 1_555 1_555
C19_2 C18_2 1_555 1_555
C20_2 C19_2 1_555 1_555
H8_2 C20_2 1_555 1_555
C21_2 C20_2 1_555 1_555
C22_2 C17_2 1_555 1_555
H9_2 C22_2 1_555 1_555
C23_2 C19_2 1_555 1_555
C24_2 C21_2 1_555 1_555
C25_2 C24_2 1_555 1_555
H10_2 C25_2 1_555 1_555
C26_2 C25_2 1_555 1_555
H11_2 C26_2 1_555 1_555
C27_2 C15_2 1_555 1_555
C28_2 C27_2 1_555 1_555
C29_2 C24_2 1_555 1_555
H12_2 C29_2 1_555 1_555
Cd10 O10_2 1_555 1_555
Cd8 O10_2 1_555 1_555
Cd14 O11_2 1_555 1_555
Cd12 O9_2 1_555 1_555
Cd19 O3_2 1_555 1_555
Cd17 O3_2 1_555 1_555
Cd22 O8_2 1_555 1_555
C6_2 C7_2 1_555 1_555
C13_2 C14_2 1_555 1_555
C21_2 C22_2 1_555 1_555
C26_2 C27_2 1_555 1_555
C28_2 C29_2 1_555 1_555
O5 H27_3 1_555 1_555
C28_2 H29_2 1_555 1_555
C13_2 H30_2 1_555 1_555
O23 C37_2 1_555 1_555
O14_2 C30_2 1_555 1_555
O16_2 C44_2 1_555 1_555
C30_2 O35 1_555 1_555
C31_2 C30_2 1_555 1_555
C32_2 C31_2 1_555 1_555
H13_2 C32_2 1_555 1_555
C33_2 C32_2 1_555 1_555
C34_2 C33_2 1_555 1_555
H14_2 C34_2 1_555 1_555
C35_2 C34_2 1_555 1_555
C36_2 C31_2 1_555 1_555
H15_2 C36_2 1_555 1_555
C37_2 O27 1_555 1_555
C38_2 C35_2 1_555 1_555
C39_2 C38_2 1_555 1_555
H16_2 C39_2 1_555 1_555
C40_2 C39_2 1_555 1_555
H17_2 C40_2 1_555 1_555
C41_2 C40_2 1_555 1_555
C42_2 C41_2 1_555 1_555
C43_2 C38_2 1_555 1_555
H18_2 C43_2 1_555 1_555
C44_2 C41_2 1_555 1_555
O17_2 C52_2 1_555 1_555
O18_2 C52_2 1_555 1_555
O19_2 C45_2 1_555 1_555
O20_2 C45_2 1_555 1_555
C45_2 C46_2 1_555 1_555
C46_2 C47_2 1_555 1_555
C47_2 H19_2 1_555 1_555
C48_2 C47_2 1_555 1_555
C49_2 C48_2 1_555 1_555
H20_2 C49_2 1_555 1_555
C50_2 C49_2 1_555 1_555
C51_2 C46_2 1_555 1_555
H21_2 C51_2 1_555 1_555
C52_2 C48_2 1_555 1_555
C53_2 C50_2 1_555 1_555
C54_2 C53_2 1_555 1_555
H22_2 C54_2 1_555 1_555
C55_2 C54_2 1_555 1_555
H23_2 C55_2 1_555 1_555
C56_2 C44_2 1_555 1_555
C57_2 C56_2 1_555 1_555
C58_2 C53_2 1_555 1_555
H24_2 C58_2 1_555 1_555
Cd11 O19_2 1_555 1_555
Cd9 O19_2 1_555 1_555
Cd13 O18_2 1_555 1_555
Cd18 O14_2 1_555 1_555
Cd16 O14_2 1_555 1_555
Cd22_4 O17_2 1_555 1_555
C33_2 C37_2 1_555 1_555
C35_2 C36_2 1_555 1_555
C42_2 C43_2 1_555 1_555
O20_2 Cd15 1_555 1_555
C50_2 C51_2 1_555 1_555
C55_2 C56_2 1_555 1_555
C57_2 C58_2 1_555 1_555
C42_2 H25_2 1_555 1_555
C57_2 H26_2 1_555 1_555
O5_4 H28_3 1_555 1_555
O5 H28_4 1_555 1_555
O5_4 H27_4 1_555 1_555
O8_3 C23_3 1_555 1_555
O9_3 C23_3 1_555 1_555
C18_3 H7_3 1_555 1_555
C19_3 C18_3 1_555 1_555
C20_3 C19_3 1_555 1_555
H8_3 C20_3 1_555 1_555
C23_3 C19_3 1_555 1_555
O16_3 C44_3 1_555 1_555
O29 C45_3 1_555 1_555
O20_3 C45_3 1_555 1_555
C45_3 C46_3 1_555 1_555
C51_3 C46_3 1_555 1_555
H21_3 C51_3 1_555 1_555
C53_3 C50_3 1_555 1_555
C54_3 C53_3 1_555 1_555
H22_3 C54_3 1_555 1_555
C55_3 C54_3 1_555 1_555
H23_3 C55_3 1_555 1_555
C56_3 C44_3 1_555 1_555
C57_3 C56_3 1_555 1_555
C58_3 C53_3 1_555 1_555
Cd17 O9_3 1_555 1_555
Cd19 O9_3 1_555 1_555
Cd22_5 O8_3 1_555 1_555
O20_3 Cd17 1_555 1_555
C50_3 C51_3 1_555 1_555
C55_3 C56_3 1_555 1_555
C57_3 C58_3 1_555 1_555
C57_3 H26_3 1_555 1_555
Cd8 O2_2 1_555 1_555
Cd2_5 O1_2 1_555 1_555
O1_2 C8_3 1_555 1_555
O2_2 C8_3 1_555 1_555
O5_5 Cd2_5 1_555 1_555
O6_5 Cd8 1_555 1_555
C3_3 H1_3 1_555 1_555
C4_3 C3_3 1_555 1_555
C5_3 C4_3 1_555 1_555
H2_3 C5_3 1_555 1_555
C8_3 C4_3 1_555 1_555
O14_3 C30_3 1_555 1_555
O15_2 Cd8 1_555 1_555
O16_4 C44_4 1_555 1_555
C30_3 O15_2 1_555 1_555
C31_3 C30_3 1_555 1_555
C36_3 C31_3 1_555 1_555
H15_3 C36_3 1_555 1_555
C38_3 C35_3 1_555 1_555
C39_3 C38_3 1_555 1_555
H16_3 C39_3 1_555 1_555
C40_3 C39_3 1_555 1_555
H17_3 C40_3 1_555 1_555
C41_3 C40_3 1_555 1_555
C42_3 C41_3 1_555 1_555
C43_3 C38_3 1_555 1_555
C44_4 C41_3 1_555 1_555
Cd10 O2_2 1_555 1_555
Cd9 O6_5 1_555 1_555
Cd11 O6_5 1_555 1_555
Cd12 O14_3 1_555 1_555
O21_2 Cd2_5 1_555 1_555
O22_2 Cd2_5 1_555 1_555
O23_2 Cd2_5 1_555 1_555
O25_2 Cd10 1_555 1_555
O27_2 Cd8 1_555 1_555
O35_2 Cd10 1_555 1_555
O6_5 Cd10 1_555 1_555
C35_3 C36_3 1_555 1_555
C42_3 C43_3 1_555 1_555
Cd9 O25_2 1_555 1_555
Cd11 O27_2 1_555 1_555
C42_3 H25_3 1_555 1_555
O7_3 C15_3 1_555 1_555
O31 C16_3 1_555 1_555
O11_3 C16_3 1_555 1_555
C16_3 C17_3 1_555 1_555
C22_3 C17_3 1_555 1_555
H9_3 C22_3 1_555 1_555
C24_3 C21_3 1_555 1_555
C25_3 C24_3 1_555 1_555
H10_3 C25_3 1_555 1_555
C26_3 C25_3 1_555 1_555
H11_3 C26_3 1_555 1_555
C27_3 C15_3 1_555 1_555
C28_3 C27_3 1_555 1_555
C29_3 C24_3 1_555 1_555
O17_3 C52_3 1_555 1_555
O18_3 C52_3 1_555 1_555
C47_3 H19_3 1_555 1_555
C48_3 C47_3 1_555 1_555
C49_3 C48_3 1_555 1_555
H20_3 C49_3 1_555 1_555
C52_3 C48_3 1_555 1_555
Cd16 O11_3 1_555 1_555
Cd18 O18_3 1_555 1_555
Cd22_5 O17_3 1_555 1_555
C21_3 C22_3 1_555 1_555
C26_3 C27_3 1_555 1_555
C28_3 C29_3 1_555 1_555
O18_3 Cd16 1_555 1_555
C28_3 H29_3 1_555 1_555
O3_3 C1_3 1_555 1_555
O4_2 C1_3 1_555 1_555
O7_4 C15_4 1_555 1_555
C1_3 C2_3 1_555 1_555
C7_3 C2_3 1_555 1_555
H3_3 C7_3 1_555 1_555
C9_3 C6_3 1_555 1_555
C10_3 C9_3 1_555 1_555
H4_3 C10_3 1_555 1_555
C11_3 C10_3 1_555 1_555
H5_3 C11_3 1_555 1_555
C12_3 C11_3 1_555 1_555
C13_3 C12_3 1_555 1_555
C14_3 C9_3 1_555 1_555
C15_4 C12_3 1_555 1_555
Cd9 O4_2 1_555 1_555
O21_2 C37_3 1_555 1_555
O13_2 Cd9 1_555 1_555
H13_3 C32_3 1_555 1_555
C33_3 C32_3 1_555 1_555
C34_3 C33_3 1_555 1_555
H14_3 C34_3 1_555 1_555
C37_3 O13_2 1_555 1_555
Cd11 O13_2 1_555 1_555
Cd13 O3_3 1_555 1_555
O34_2 Cd11 1_555 1_555
C6_3 C7_3 1_555 1_555
C13_3 C14_3 1_555 1_555
C33_3 C37_3 1_555 1_555
C13_3 H30_3 1_555 1_555
O7_5 C15_5 1_555 1_555
O33 C16_4 1_555 1_555
O11_4 C16_4 1_555 1_555
C16_4 C17_4 1_555 1_555
C22_4 C17_4 1_555 1_555
H9_4 C22_4 1_555 1_555
C24_4 C21_4 1_555 1_555
C25_4 C24_4 1_555 1_555
H10_4 C25_4 1_555 1_555
C26_4 C25_4 1_555 1_555
H11_4 C26_4 1_555 1_555
C27_4 C15_5 1_555 1_555
C28_4 C27_4 1_555 1_555
C29_4 C24_4 1_555 1_555
O17_4 C52_4 1_555 1_555
O18_4 C52_4 1_555 1_555
C47_4 H19_4 1_555 1_555
C48_4 C47_4 1_555 1_555
C49_4 C48_4 1_555 1_555
H20_4 C49_4 1_555 1_555
C52_4 C48_4 1_555 1_555
Cd18 O11_4 1_555 1_555
Cd17 O18_4 1_555 1_555
Cd22_5 O17_4 1_555 1_555
C21_4 C22_4 1_555 1_555
C26_4 C27_4 1_555 1_555
C28_4 C29_4 1_555 1_555
O18_4 Cd18 1_555 1_555
C28_4 H29_4 1_555 1_555
O3_4 C1_4 1_555 1_555
O34_2 C1_4 1_555 1_555
O7_6 C15_6 1_555 1_555
C1_4 C2_4 1_555 1_555
C7_4 C2_4 1_555 1_555
H3_4 C7_4 1_555 1_555
C9_4 C6_4 1_555 1_555
C10_4 C9_4 1_555 1_555
H4_4 C10_4 1_555 1_555
C11_4 C10_4 1_555 1_555
H5_4 C11_4 1_555 1_555
C12_4 C11_4 1_555 1_555
C13_4 C12_4 1_555 1_555
C14_4 C9_4 1_555 1_555
C15_6 C12_4 1_555 1_555
O23_2 C37_4 1_555 1_555
H13_4 C32_4 1_555 1_555
C33_4 C32_4 1_555 1_555
C34_4 C33_4 1_555 1_555
H14_4 C34_4 1_555 1_555
C37_4 O27_2 1_555 1_555
Cd15 O3_4 1_555 1_555
C6_4 C7_4 1_555 1_555
C13_4 C14_4 1_555 1_555
C33_4 C37_4 1_555 1_555
C13_4 H30_4 1_555 1_555
O8_4 C23_4 1_555 1_555
O9_4 C23_4 1_555 1_555
C18_4 H7_4 1_555 1_555
C19_4 C18_4 1_555 1_555
C20_4 C19_4 1_555 1_555
H8_4 C20_4 1_555 1_555
C23_4 C19_4 1_555 1_555
O16_5 C44_5 1_555 1_555
O32 C45_4 1_555 1_555
O20_4 C45_4 1_555 1_555
C45_4 C46_4 1_555 1_555
C51_4 C46_4 1_555 1_555
H21_4 C51_4 1_555 1_555
C53_4 C50_4 1_555 1_555
C54_4 C53_4 1_555 1_555
H22_4 C54_4 1_555 1_555
C55_4 C54_4 1_555 1_555
H23_4 C55_4 1_555 1_555
C56_4 C44_5 1_555 1_555
C57_4 C56_4 1_555 1_555
C58_4 C53_4 1_555 1_555
Cd19 O9_4 1_555 1_555
Cd16 O9_4 1_555 1_555
Cd22_5 O8_4 1_555 1_555
O20_4 Cd19 1_555 1_555
C50_4 C51_4 1_555 1_555
C55_4 C56_4 1_555 1_555
C57_4 C58_4 1_555 1_555
C57_4 H26_4 1_555 1_555
O22_2 C8_4 1_555 1_555
O25_2 C8_4 1_555 1_555
C3_4 H1_4 1_555 1_555
C4_4 C3_4 1_555 1_555
C5_4 C4_4 1_555 1_555
H2_4 C5_4 1_555 1_555
C8_4 C4_4 1_555 1_555
O14_4 C30_4 1_555 1_555
O16_6 C44_6 1_555 1_555
C30_4 O35_2 1_555 1_555
C31_4 C30_4 1_555 1_555
C36_4 C31_4 1_555 1_555
H15_4 C36_4 1_555 1_555
C38_4 C35_4 1_555 1_555
C39_4 C38_4 1_555 1_555
H16_4 C39_4 1_555 1_555
C40_4 C39_4 1_555 1_555
H17_4 C40_4 1_555 1_555
C41_4 C40_4 1_555 1_555
C42_4 C41_4 1_555 1_555
C43_4 C38_4 1_555 1_555
C44_6 C41_4 1_555 1_555
Cd14 O14_4 1_555 1_555
C35_4 C36_4 1_555 1_555
C42_4 C43_4 1_555 1_555
C42_4 H25_4 1_555 1_555
O5_6 Cd22 1_555 1_555
O36 Cd12 1_555 1_555
Cd15 O36_2 1_555 1_555
O5_7 Cd22_2 1_555 1_555
O5_7 H28_5 1_555 1_555
O5_8 Cd22_3 1_555 1_555
O36_4 Cd13 1_555 1_555
O36_3 Cd14 1_555 1_555
O5_8 H27_5 1_555 1_555
O5_9 Cd22_4 1_555 1_555
O5_7 H27_6 1_555 1_555
O5_8 H28_6 1_555 1_555
O5_6 H28_7 1_555 1_555
O5_9 H27_7 1_555 1_555
O5_6 H27_8 1_555 1_555
O5_9 H28_8 1_555 1_555
O36_5 Cd17 1_555 1_555
Cd19 O36_5 1_555 1_555
O5_10 Cd22_5 1_555 1_555
O36_5 Cd16 1_555 1_555
O36_5 Cd18 1_555 1_555

#END
