
###############################################################################
#
# This file contains modified crystal structure data generated from the
# MOF subset of the Cambridge Structural Database (CSD) v543 
# hosted by the Cambridge Crystallographic Data Centre (CCDC).
#
# This work is licensed under the Creative Commons
# Attribution-NonCommercial-ShareAlike 4.0 International License.
# To view a copy of this license, visit
# http://creativecommons.org/licenses/by-nc-sa/4.0/
# or send a letter to
# Creative Commons, PO Box 1866, Mountain View, CA 94042, USA.
#
# CIF created using the CSD Python API on 29 September 2022
# The structure has been converted into the P1 space group
# The structure has a 3D framework
# The original CSD entry IJICIQ is in the monoclinic crystal system
# The framework has been calculated to contain at least 10.0% void space
# The void calculation uses a probe of radius 1.32A, grid spacing 0.4
# The framework is charged, counterions have been retained in the structure
# H atom positions have been added when not included in the experimental data
# Generated hydrogen atom positions removed from atoms on special positions
#
###############################################################################

data_IJICIQ
_chemical_formula_moiety         '(C224 H144 N8 O96 Tm14 4-)n'
_symmetry_cell_setting           triclinic
_symmetry_space_group_name_H-M   'P 1'
_symmetry_Int_Tables_number      1
_space_group_name_Hall           'P 1'
loop_
_symmetry_equiv_pos_site_id
_symmetry_equiv_pos_as_xyz
1 x,y,z
_cell_length_a                   29.602(10)
_cell_length_b                   9.169(3)
_cell_length_c                   28.381(8)
_cell_angle_alpha                90
_cell_angle_beta                 103.528(10)
_cell_angle_gamma                90
_cell_volume                     7489.47
loop_
_atom_site_label
_atom_site_type_symbol
_atom_site_fract_x
_atom_site_fract_y
_atom_site_fract_z
C1 C 0.4705(3) 0.1281(9) 0.3540(3)
C2 C 0.4273(2) 0.1830(9) 0.3661(2)
C3 C 0.3921(2) 0.2401(6) 0.32976(19)
H1 H 0.396090 0.243894 0.298234
C4 C 0.35144(17) 0.2915(5) 0.33923(16)
C5 C 0.34456(17) 0.2818(6) 0.38668(16)
C6 C 0.3796(2) 0.2230(8) 0.42270(19)
H2 H 0.375659 0.216100 0.454173
C7 C 0.4202(2) 0.1748(10) 0.4125(2)
H3 H 0.443407 0.135893 0.437190
C8 C 0.31593(17) 0.3614(5) 0.29887(17)
C9 C 0.19049(16) 0.3066(5) 0.27708(15)
C10 C 0.16694(17) 0.2068(5) 0.30618(16)
C11 C 0.13204(18) 0.1154(5) 0.28297(18)
H4 H 0.124282 0.111740 0.249291
C12 C 0.10784(18) 0.0272(6) 0.30935(19)
C13 C 0.1199(2) 0.0330(7) 0.3593(2)
C14 C 0.1554(2) 0.1224(6) 0.38287(19)
H6 H 0.163115 0.124943 0.416561
C15 C 0.17973(17) 0.2084(5) 0.35741(16)
C17 C 0.22105(16) 0.2875(5) 0.38502(15)
C18 C 0.21898(18) 0.3708(5) 0.42574(16)
H7 H 0.190550 0.387134 0.433441
C19 C 0.25918(16) 0.4288(5) 0.45457(15)
C20 C 0.30003(18) 0.4023(5) 0.44045(16)
H8 H 0.327837 0.439550 0.458796
C21 C 0.30017(17) 0.3208(5) 0.39929(16)
C22 C 0.25876(16) 0.5123(5) 0.49943(15)
C23 C 0.22451(18) 0.4858(5) 0.52471(16)
H9 H 0.201429 0.417258 0.513097
C24 C 0.22470(19) 0.5615(5) 0.56729(16)
H10 H 0.201364 0.544226 0.583570
C25 C 0.25906(18) 0.6617(5) 0.58563(15)
C26 C 0.29290(18) 0.6896(6) 0.56035(16)
H11 H 0.315827 0.758596 0.572022
C27 C 0.29281(18) 0.6153(5) 0.51769(16)
H12 H 0.315799 0.634706 0.501137
C28 C 0.25992(19) 0.7375(5) 0.63221(16)
N1 N 0.26119(13) 0.2640(4) 0.37163(12)
O1 O 0.4958(3) 0.0419(10) 0.3841(3)
O2 O 0.48011(17) 0.1618(6) 0.31678(19)
O3 O 0.29644(12) 0.4729(4) 0.30878(12)
O4 O 0.30871(12) 0.3024(4) 0.25763(11)
O5 O 0.19308(12) 0.4389(4) 0.28815(11)
O6 O 0.20475(13) 0.2549(4) 0.24293(12)
O9 O 0.22772(13) 0.7137(4) 0.65414(11)
O10 O 0.29187(14) 0.8236(4) 0.65070(13)
O11 O 0.22788(13) 0.5550(3) 0.20037(11)
Tm1 Tm 0.23903(2) 0.62935(2) 0.28079(2)
O28 O 0.19129(12) 0.8024(4) 0.24237(11)
O30 O 0.29525(13) 0.7549(4) 0.25707(12)
O31 O 0.27228(13) 0.7863(4) 0.34586(11)
O33 O 0.20813(14) 0.6764(4) 0.34930(13)
Tm5 Tm 0.26097(2) 0.12935(2) 0.21921(2)
Tm6 Tm 0.26097(2) 0.87065(2) 0.71921(2)
Tm9 Tm 0.500000 0.22502(4) 0.250000
H29 H 0.219506 0.449954 0.197729
H30 H 0.202415 0.613001 0.179797
H5 H 0.103957 0.976100 0.377156
C16 C 0.0699(2) 0.9267(7) 0.2849(2)
O7 O 0.0573(2) 0.8287(7) 0.3096(2)
O8 O 0.05056(15) 0.9369(5) 0.24231(15)
O12 O 0.0537(3) 0.5357(9) 0.2714(3)
Tm2 Tm 0.000000 0.72502(4) 0.250000
O26 O 0.01989(17) 0.6618(6) 0.18322(19)
C29 C 0.5295(3) 0.1281(9) 0.1460(3)
C30 C 0.5727(2) 0.1830(9) 0.1339(2)
C31 C 0.6079(2) 0.2401(6) 0.17024(19)
H13 H 0.603910 0.243894 0.201766
C32 C 0.64856(17) 0.2915(5) 0.16077(16)
C33 C 0.65544(17) 0.2818(6) 0.11332(16)
C34 C 0.6204(2) 0.2230(8) 0.07730(19)
H14 H 0.624341 0.216100 0.045827
C35 C 0.5798(2) 0.1748(10) 0.0875(2)
H15 H 0.556593 0.135893 0.062810
C36 C 0.68407(17) 0.3614(5) 0.20113(17)
C37 C 0.80951(16) 0.3066(5) 0.22292(15)
C38 C 0.83306(17) 0.2068(5) 0.19382(16)
C39 C 0.86796(18) 0.1154(5) 0.21703(18)
H16 H 0.875718 0.111740 0.250709
C40 C 0.89216(18) 0.0272(6) 0.19065(19)
C41 C 0.8801(2) 0.0330(7) 0.1407(2)
C42 C 0.8446(2) 0.1224(6) 0.11713(19)
H18 H 0.836885 0.124943 0.083439
C43 C 0.82027(17) 0.2084(5) 0.14259(16)
C45 C 0.77895(16) 0.2875(5) 0.11498(15)
C46 C 0.78102(18) 0.3708(5) 0.07426(16)
H19 H 0.809450 0.387134 0.066559
C47 C 0.74082(16) 0.4288(5) 0.04543(15)
C48 C 0.69997(18) 0.4023(5) 0.05955(16)
H20 H 0.672163 0.439550 0.041204
C49 C 0.69983(17) 0.3208(5) 0.10071(16)
C50 C 0.74124(16) 0.5123(5) 0.00057(15)
N2 N 0.73881(13) 0.2640(4) 0.12837(12)
O13 O 0.5042(3) 0.0419(10) 0.1159(3)
O14 O 0.51989(17) 0.1618(6) 0.18322(19)
O15 O 0.70356(12) 0.4729(4) 0.19122(12)
O16 O 0.69129(12) 0.3024(4) 0.24237(11)
O17 O 0.80692(12) 0.4389(4) 0.21185(11)
O18 O 0.79525(13) 0.2549(4) 0.25707(12)
O23 O 0.77212(13) 0.5550(3) 0.29963(11)
Tm3 Tm 0.76097(2) 0.62935(2) 0.21921(2)
O27 O 0.80871(12) 0.8024(4) 0.25763(11)
O29 O 0.70475(13) 0.7549(4) 0.24293(12)
O32 O 0.72772(13) 0.7863(4) 0.15414(11)
O34 O 0.79187(14) 0.6764(4) 0.15070(13)
Tm4 Tm 0.73903(2) 0.12935(2) 0.28079(2)
H25 H 0.780494 0.449954 0.302271
H26 H 0.797585 0.613001 0.320203
C51 C 0.77549(18) 0.4858(5) 0.97529(16)
H21 H 0.798571 0.417258 0.986903
C52 C 0.77530(19) 0.5615(5) 0.93271(16)
H22 H 0.798636 0.544226 0.916430
C53 C 0.74094(18) 0.6617(5) 0.91437(15)
C54 C 0.70710(18) 0.6896(6) 0.93965(16)
H23 H 0.684173 0.758596 0.927978
C55 C 0.70719(18) 0.6153(5) 0.98231(16)
H24 H 0.684201 0.634706 0.998863
C56 C 0.74008(19) 0.7375(5) 0.86779(16)
O21 O 0.77228(13) 0.7137(4) 0.84586(11)
O22 O 0.70813(14) 0.8236(4) 0.84930(13)
Tm7 Tm 0.73903(2) 0.87065(2) 0.78079(2)
Tm2_2 Tm 1.000000 0.72502(4) 0.250000
H17 H 0.896043 0.976100 0.122844
C44 C 0.9301(2) 0.9267(7) 0.2151(2)
O19 O 0.9427(2) 0.8287(7) 0.1904(2)
O20 O 0.94944(15) 0.9369(5) 0.25769(15)
O24 O 0.9463(3) 0.5357(9) 0.2286(3)
O25 O 0.98011(17) 0.6618(6) 0.31678(19)
C22_2 C 0.75876(16) 0.0123(5) 0.49943(15)
C24_2 C 0.72470(19) 0.0615(5) 0.56729(16)
H10_2 H 0.701364 0.044226 0.583570
C25_2 C 0.75906(18) 0.1617(5) 0.58563(15)
C26_2 C 0.79290(18) 0.1896(6) 0.56035(16)
H11_2 H 0.815827 0.258596 0.572022
C27_2 C 0.79281(18) 0.1153(5) 0.51769(16)
H12_2 H 0.815799 0.134706 0.501137
C28_2 C 0.75992(19) 0.2375(5) 0.63221(16)
O9_2 O 0.72772(13) 0.2137(4) 0.65414(11)
O10_2 O 0.79187(14) 0.3236(4) 0.65070(13)
O11_2 O 0.72788(13) 0.0550(3) 0.20037(11)
C50_2 C 0.24124(16) 0.0123(5) 0.00057(15)
O23_2 O 0.27212(13) 0.0550(3) 0.29963(11)
O31_2 O 0.77228(13) 0.2863(4) 0.34586(11)
O32_2 O 0.22772(13) 0.2863(4) 0.15414(11)
O33_2 O 0.70813(14) 0.1764(4) 0.34930(13)
O34_2 O 0.29187(14) 0.1764(4) 0.15070(13)
Tm6_2 Tm 0.76097(2) 0.37065(2) 0.71921(2)
H26_2 H 0.297585 0.113001 0.320203
H30_2 H 0.702415 0.113001 0.179797
C52_2 C 0.27530(19) 0.0615(5) 0.93271(16)
H22_2 H 0.298636 0.044226 0.916430
C53_2 C 0.24094(18) 0.1617(5) 0.91437(15)
C54_2 C 0.20710(18) 0.1896(6) 0.93965(16)
H23_2 H 0.184173 0.258596 0.927978
C55_2 C 0.20719(18) 0.1153(5) 0.98231(16)
H24_2 H 0.184201 0.134706 0.998863
C56_2 C 0.24008(19) 0.2375(5) 0.86779(16)
O21_2 O 0.27228(13) 0.2137(4) 0.84586(11)
O22_2 O 0.20813(14) 0.3236(4) 0.84930(13)
Tm7_2 Tm 0.23903(2) 0.37065(2) 0.78079(2)
C1_2 C 0.9705(3) 0.6281(9) 0.3540(3)
C2_2 C 0.9273(2) 0.6830(9) 0.3661(2)
C3_2 C 0.8921(2) 0.7401(6) 0.32976(19)
H1_2 H 0.896090 0.743894 0.298234
C4_2 C 0.85144(17) 0.7915(5) 0.33923(16)
C5_2 C 0.84456(17) 0.7818(6) 0.38668(16)
C6_2 C 0.8796(2) 0.7230(8) 0.42270(19)
H2_2 H 0.875659 0.716100 0.454173
C7_2 C 0.9202(2) 0.6748(10) 0.4125(2)
H3_2 H 0.943407 0.635893 0.437190
C8_2 C 0.81593(17) 0.8614(5) 0.29887(17)
C9_2 C 0.69049(16) 0.8066(5) 0.27708(15)
C10_2 C 0.66694(17) 0.7068(5) 0.30618(16)
C11_2 C 0.63204(18) 0.6154(5) 0.28297(18)
H4_2 H 0.624282 0.611740 0.249291
C12_2 C 0.60784(18) 0.5272(6) 0.30935(19)
C13_2 C 0.6199(2) 0.5330(7) 0.3593(2)
H5_2 H 0.603957 0.476100 0.377156
C14_2 C 0.6554(2) 0.6224(6) 0.38287(19)
H6_2 H 0.663115 0.624943 0.416561
C15_2 C 0.67973(17) 0.7084(5) 0.35741(16)
C16_2 C 0.5699(2) 0.4267(7) 0.2849(2)
C17_2 C 0.72105(16) 0.7875(5) 0.38502(15)
C18_2 C 0.71898(18) 0.8708(5) 0.42574(16)
H7_2 H 0.690550 0.887134 0.433441
C19_2 C 0.75918(16) 0.9288(5) 0.45457(15)
C20_2 C 0.80003(18) 0.9023(5) 0.44045(16)
H8_2 H 0.827837 0.939550 0.458796
C21_2 C 0.80017(17) 0.8208(5) 0.39929(16)
C23_2 C 0.72451(18) 0.9858(5) 0.52471(16)
H9_2 H 0.701429 0.917258 0.513097
N1_2 N 0.76119(13) 0.7640(4) 0.37163(12)
O1_2 O 0.9958(3) 0.5419(10) 0.3841(3)
O3_2 O 0.79644(12) 0.9729(4) 0.30878(12)
O5_2 O 0.69308(12) 0.9389(4) 0.28815(11)
O7_2 O 0.5573(2) 0.3287(7) 0.3096(2)
O8_2 O 0.55056(15) 0.4369(5) 0.24231(15)
O12_2 O 0.5537(3) 0.0357(9) 0.2714(3)
C29_2 C 0.0295(3) 0.6281(9) 0.1460(3)
C30_2 C 0.0727(2) 0.6830(9) 0.1339(2)
C31_2 C 0.1079(2) 0.7401(6) 0.17024(19)
H13_2 H 0.103910 0.743894 0.201766
C32_2 C 0.14856(17) 0.7915(5) 0.16077(16)
C33_2 C 0.15544(17) 0.7818(6) 0.11332(16)
C34_2 C 0.1204(2) 0.7230(8) 0.07730(19)
H14_2 H 0.124341 0.716100 0.045827
C35_2 C 0.0798(2) 0.6748(10) 0.0875(2)
H15_2 H 0.056593 0.635893 0.062810
C36_2 C 0.18407(17) 0.8614(5) 0.20113(17)
C37_2 C 0.30951(16) 0.8066(5) 0.22292(15)
C38_2 C 0.33306(17) 0.7068(5) 0.19382(16)
C39_2 C 0.36796(18) 0.6154(5) 0.21703(18)
H16_2 H 0.375718 0.611740 0.250709
C40_2 C 0.39216(18) 0.5272(6) 0.19065(19)
C41_2 C 0.3801(2) 0.5330(7) 0.1407(2)
H17_2 H 0.396043 0.476100 0.122844
C42_2 C 0.3446(2) 0.6224(6) 0.11713(19)
H18_2 H 0.336885 0.624943 0.083439
C43_2 C 0.32027(17) 0.7084(5) 0.14259(16)
C44_2 C 0.4301(2) 0.4267(7) 0.2151(2)
C45_2 C 0.27895(16) 0.7875(5) 0.11498(15)
C46_2 C 0.28102(18) 0.8708(5) 0.07426(16)
H19_2 H 0.309450 0.887134 0.066559
C47_2 C 0.24082(16) 0.9288(5) 0.04543(15)
C48_2 C 0.19997(18) 0.9023(5) 0.05955(16)
H20_2 H 0.172163 0.939550 0.041204
C49_2 C 0.19983(17) 0.8208(5) 0.10071(16)
N2_2 N 0.23881(13) 0.7640(4) 0.12837(12)
O13_2 O 0.0042(3) 0.5419(10) 0.1159(3)
O15_2 O 0.20356(12) 0.9729(4) 0.19122(12)
O17_2 O 0.30692(12) 0.9389(4) 0.21185(11)
O19_2 O 0.4427(2) 0.3287(7) 0.1904(2)
O20_2 O 0.44944(15) 0.4369(5) 0.25769(15)
O24_2 O 0.4463(3) 0.0357(9) 0.2286(3)
H25_2 H 0.280494 0.949954 0.302271
H29_2 H 0.719506 0.949954 0.197729
Tm2_3 Tm -0.000000 0.27498(4) 0.750000
H17_3 H 0.103957 0.023900 0.877156
C44_3 C 0.0699(2) 0.0733(7) 0.7849(2)
O19_3 O 0.0573(2) 0.1713(7) 0.8096(2)
O20_3 O 0.05056(15) 0.0631(5) 0.74231(15)
O24_3 O 0.0537(3) 0.4643(9) 0.7714(3)
O25_2 O 0.01989(17) 0.3382(6) 0.68322(19)
C51_2 C 0.22451(18) 0.5142(5) 0.02471(16)
H21_2 H 0.201429 0.582742 0.013097
C52_3 C 0.22470(19) 0.4385(5) 0.06729(16)
H22_3 H 0.201364 0.455774 0.083570
C53_3 C 0.25906(18) 0.3383(5) 0.08563(15)
C54_3 C 0.29290(18) 0.3104(6) 0.06035(16)
H23_3 H 0.315827 0.241404 0.072022
C55_3 C 0.29281(18) 0.3847(5) 0.01769(16)
H24_3 H 0.315799 0.365294 0.001137
C56_3 C 0.25992(19) 0.2625(5) 0.13221(16)
C29_3 C 0.4705(3) 0.8719(9) 0.8540(3)
C30_3 C 0.4273(2) 0.8170(9) 0.8661(2)
C31_3 C 0.3921(2) 0.7599(6) 0.82976(19)
H13_3 H 0.396090 0.756106 0.798234
C32_3 C 0.35144(17) 0.7085(5) 0.83923(16)
C33_3 C 0.34456(17) 0.7182(6) 0.88668(16)
C34_3 C 0.3796(2) 0.7770(8) 0.92270(19)
H14_3 H 0.375659 0.783900 0.954173
C35_3 C 0.4202(2) 0.8252(10) 0.9125(2)
H15_3 H 0.443407 0.864107 0.937190
C36_3 C 0.31593(17) 0.6386(5) 0.79887(17)
C37_3 C 0.19049(16) 0.6934(5) 0.77708(15)
C38_3 C 0.16694(17) 0.7932(5) 0.80618(16)
C39_3 C 0.13204(18) 0.8846(5) 0.78297(18)
H16_3 H 0.124282 0.888260 0.749291
C40_3 C 0.10784(18) 0.9728(6) 0.80935(19)
C41_3 C 0.1199(2) 0.9670(7) 0.8593(2)
C42_3 C 0.1554(2) 0.8776(6) 0.88287(19)
H18_3 H 0.163115 0.875057 0.916561
C43_3 C 0.17973(17) 0.7916(5) 0.85741(16)
C45_3 C 0.22105(16) 0.7125(5) 0.88502(15)
C46_3 C 0.21898(18) 0.6292(5) 0.92574(16)
H19_3 H 0.190550 0.612866 0.933441
C47_3 C 0.25918(16) 0.5712(5) 0.95457(15)
C48_3 C 0.30003(18) 0.5977(5) 0.94045(16)
H20_3 H 0.327837 0.560450 0.958796
C49_3 C 0.30017(17) 0.6792(5) 0.89929(16)
C50_3 C 0.25876(16) 0.4877(5) 0.99943(15)
N2_3 N 0.26119(13) 0.7360(4) 0.87163(12)
O13_3 O 0.4958(3) 0.9581(10) 0.8841(3)
O14_2 O 0.48011(17) 0.8382(6) 0.81678(19)
O15_3 O 0.29644(12) 0.5271(4) 0.80878(12)
O16_2 O 0.30871(12) 0.6976(4) 0.75763(11)
O17_3 O 0.19308(12) 0.5611(4) 0.78815(11)
O18_2 O 0.20475(13) 0.7451(4) 0.74293(12)
O23_3 O 0.22788(13) 0.4450(3) 0.70037(11)
O27_2 O 0.19129(12) 0.1976(4) 0.74237(11)
O29_2 O 0.29525(13) 0.2451(4) 0.75707(12)
Tm8 Tm 0.500000 0.77498(4) 0.750000
H25_3 H 0.219506 0.550046 0.697729
H26_3 H 0.202415 0.386999 0.679797
H5_3 H 0.896043 0.023900 0.622844
C16_3 C 0.9301(2) 0.0733(7) 0.7151(2)
O7_3 O 0.9427(2) 0.1713(7) 0.6904(2)
O8_3 O 0.94944(15) 0.0631(5) 0.75769(15)
O12_3 O 0.9463(3) 0.4643(9) 0.7286(3)
Tm2_4 Tm 1.000000 0.27498(4) 0.750000
O26_2 O 0.98011(17) 0.3382(6) 0.81678(19)
C1_3 C 0.5295(3) 0.8719(9) 0.6460(3)
C2_3 C 0.5727(2) 0.8170(9) 0.6339(2)
C3_3 C 0.6079(2) 0.7599(6) 0.67024(19)
H1_3 H 0.603910 0.756106 0.701766
C4_3 C 0.64856(17) 0.7085(5) 0.66077(16)
C5_3 C 0.65544(17) 0.7182(6) 0.61332(16)
C6_3 C 0.6204(2) 0.7770(8) 0.57730(19)
H2_3 H 0.624341 0.783900 0.545827
C7_3 C 0.5798(2) 0.8252(10) 0.5875(2)
H3_3 H 0.556593 0.864107 0.562810
C8_3 C 0.68407(17) 0.6386(5) 0.70113(17)
C9_3 C 0.80951(16) 0.6934(5) 0.72292(15)
C10_3 C 0.83306(17) 0.7932(5) 0.69382(16)
C11_3 C 0.86796(18) 0.8846(5) 0.71703(18)
H4_3 H 0.875718 0.888260 0.750709
C12_3 C 0.89216(18) 0.9728(6) 0.69065(19)
C13_3 C 0.8801(2) 0.9670(7) 0.6407(2)
C14_3 C 0.8446(2) 0.8776(6) 0.61713(19)
H6_3 H 0.836885 0.875057 0.583439
C15_3 C 0.82027(17) 0.7916(5) 0.64259(16)
C17_3 C 0.77895(16) 0.7125(5) 0.61498(15)
C18_3 C 0.78102(18) 0.6292(5) 0.57426(16)
H7_3 H 0.809450 0.612866 0.566559
C19_3 C 0.74082(16) 0.5712(5) 0.54543(15)
C20_3 C 0.69997(18) 0.5977(5) 0.55955(16)
H8_3 H 0.672163 0.560450 0.541204
C21_3 C 0.69983(17) 0.6792(5) 0.60071(16)
C22_3 C 0.74124(16) 0.4877(5) 0.50057(15)
C23_3 C 0.77549(18) 0.5142(5) 0.47529(16)
H9_3 H 0.798571 0.582742 0.486903
C24_3 C 0.77530(19) 0.4385(5) 0.43271(16)
H10_3 H 0.798636 0.455774 0.416430
C25_3 C 0.74094(18) 0.3383(5) 0.41437(15)
C26_3 C 0.70710(18) 0.3104(6) 0.43965(16)
H11_3 H 0.684173 0.241404 0.427978
C27_3 C 0.70719(18) 0.3847(5) 0.48231(16)
H12_3 H 0.684201 0.365294 0.498863
C28_3 C 0.74008(19) 0.2625(5) 0.36779(16)
N1_3 N 0.73881(13) 0.7360(4) 0.62837(12)
O1_3 O 0.5042(3) 0.9581(10) 0.6159(3)
O2_2 O 0.51989(17) 0.8382(6) 0.68322(19)
O3_3 O 0.70356(12) 0.5271(4) 0.69122(12)
O4_2 O 0.69129(12) 0.6976(4) 0.74237(11)
O5_3 O 0.80692(12) 0.5611(4) 0.71185(11)
O6_2 O 0.79525(13) 0.7451(4) 0.75707(12)
O11_3 O 0.77212(13) 0.4450(3) 0.79963(11)
O28_2 O 0.80871(12) 0.1976(4) 0.75763(11)
O30_2 O 0.70475(13) 0.2451(4) 0.74293(12)
H29_3 H 0.780494 0.550046 0.802271
H30_3 H 0.797585 0.386999 0.820203
C1_4 C 0.0295(3) 0.3719(9) 0.6460(3)
C2_4 C 0.0727(2) 0.3170(9) 0.6339(2)
C3_4 C 0.1079(2) 0.2599(6) 0.67024(19)
H1_4 H 0.103910 0.256106 0.701766
C4_4 C 0.14856(17) 0.2085(5) 0.66077(16)
C5_4 C 0.15544(17) 0.2182(6) 0.61332(16)
C6_4 C 0.1204(2) 0.2770(8) 0.57730(19)
H2_4 H 0.124341 0.283900 0.545827
C7_4 C 0.0798(2) 0.3252(10) 0.5875(2)
H3_4 H 0.056593 0.364107 0.562810
C8_4 C 0.18407(17) 0.1386(5) 0.70113(17)
C9_4 C 0.30951(16) 0.1934(5) 0.72292(15)
C10_4 C 0.33306(17) 0.2932(5) 0.69382(16)
C11_4 C 0.36796(18) 0.3846(5) 0.71703(18)
H4_4 H 0.375718 0.388260 0.750709
C12_4 C 0.39216(18) 0.4728(6) 0.69065(19)
C13_4 C 0.3801(2) 0.4670(7) 0.6407(2)
H5_4 H 0.396043 0.523900 0.622844
C14_4 C 0.3446(2) 0.3776(6) 0.61713(19)
H6_4 H 0.336885 0.375057 0.583439
C15_4 C 0.32027(17) 0.2916(5) 0.64259(16)
C16_4 C 0.4301(2) 0.5733(7) 0.7151(2)
C17_4 C 0.27895(16) 0.2125(5) 0.61498(15)
C18_4 C 0.28102(18) 0.1292(5) 0.57426(16)
H7_4 H 0.309450 0.112866 0.566559
C19_4 C 0.24082(16) 0.0712(5) 0.54543(15)
C20_4 C 0.19997(18) 0.0977(5) 0.55955(16)
H8_4 H 0.172163 0.060450 0.541204
C21_4 C 0.19983(17) 0.1792(5) 0.60071(16)
C23_4 C 0.27549(18) 0.0142(5) 0.47529(16)
H9_4 H 0.298571 0.082742 0.486903
N1_4 N 0.23881(13) 0.2360(4) 0.62837(12)
O1_4 O 0.0042(3) 0.4581(10) 0.6159(3)
O3_4 O 0.20356(12) 0.0271(4) 0.69122(12)
O5_4 O 0.30692(12) 0.0611(4) 0.71185(11)
O7_4 O 0.4427(2) 0.6713(7) 0.6904(2)
O8_4 O 0.44944(15) 0.5631(5) 0.75769(15)
O12_4 O 0.4463(3) 0.9643(9) 0.7286(3)
C29_4 C 0.9705(3) 0.3719(9) 0.8540(3)
C30_4 C 0.9273(2) 0.3170(9) 0.8661(2)
C31_4 C 0.8921(2) 0.2599(6) 0.82976(19)
H13_4 H 0.896090 0.256106 0.798234
C32_4 C 0.85144(17) 0.2085(5) 0.83923(16)
C33_4 C 0.84456(17) 0.2182(6) 0.88668(16)
C34_4 C 0.8796(2) 0.2770(8) 0.92270(19)
H14_4 H 0.875659 0.283900 0.954173
C35_4 C 0.9202(2) 0.3252(10) 0.9125(2)
H15_4 H 0.943407 0.364107 0.937190
C36_4 C 0.81593(17) 0.1386(5) 0.79887(17)
C37_4 C 0.69049(16) 0.1934(5) 0.77708(15)
C38_4 C 0.66694(17) 0.2932(5) 0.80618(16)
C39_4 C 0.63204(18) 0.3846(5) 0.78297(18)
H16_4 H 0.624282 0.388260 0.749291
C40_4 C 0.60784(18) 0.4728(6) 0.80935(19)
C41_4 C 0.6199(2) 0.4670(7) 0.8593(2)
H17_4 H 0.603957 0.523900 0.877156
C42_4 C 0.6554(2) 0.3776(6) 0.88287(19)
H18_4 H 0.663115 0.375057 0.916561
C43_4 C 0.67973(17) 0.2916(5) 0.85741(16)
C44_4 C 0.5699(2) 0.5733(7) 0.7849(2)
C45_4 C 0.72105(16) 0.2125(5) 0.88502(15)
C46_4 C 0.71898(18) 0.1292(5) 0.92574(16)
H19_4 H 0.690550 0.112866 0.933441
C47_4 C 0.75918(16) 0.0712(5) 0.95457(15)
C48_4 C 0.80003(18) 0.0977(5) 0.94045(16)
H20_4 H 0.827837 0.060450 0.958796
C49_4 C 0.80017(17) 0.1792(5) 0.89929(16)
N2_4 N 0.76119(13) 0.2360(4) 0.87163(12)
O13_4 O 0.9958(3) 0.4581(10) 0.8841(3)
O15_4 O 0.79644(12) 0.0271(4) 0.80878(12)
O17_4 O 0.69308(12) 0.0611(4) 0.78815(11)
O19_4 O 0.5573(2) 0.6713(7) 0.8096(2)
O20_4 O 0.55056(15) 0.5631(5) 0.74231(15)
O24_4 O 0.5537(3) 0.9643(9) 0.7714(3)
H25_4 H 0.719506 0.0500455 0.697729
H29_4 H 0.280494 0.0500455 0.802271
C52_4 C 0.72470(19) 0.9385(5) 0.06729(16)
H22_4 H 0.701364 0.955774 0.083570
C53_4 C 0.75906(18) 0.8383(5) 0.08563(15)
C54_4 C 0.79290(18) 0.8104(6) 0.06035(16)
H23_4 H 0.815827 0.741404 0.072022
C55_4 C 0.79281(18) 0.8847(5) 0.01769(16)
H24_4 H 0.815799 0.865294 0.001137
C56_4 C 0.75992(19) 0.7625(5) 0.13221(16)
C22_4 C 0.24124(16) 0.9877(5) 0.50057(15)
C24_4 C 0.27530(19) 0.9385(5) 0.43271(16)
H10_4 H 0.298636 0.955774 0.416430
C25_4 C 0.24094(18) 0.8383(5) 0.41437(15)
C26_4 C 0.20710(18) 0.8104(6) 0.43965(16)
H11_4 H 0.184173 0.741404 0.427978
C27_4 C 0.20719(18) 0.8847(5) 0.48231(16)
H12_4 H 0.184201 0.865294 0.498863
C28_4 C 0.24008(19) 0.7625(5) 0.36779(16)
O11_4 O 0.27212(13) 0.9450(3) 0.79963(11)
C50_4 C 0.75876(16) 0.9877(5) 0.99943(15)
O23_4 O 0.72788(13) 0.9450(3) 0.70037(11)
H26_4 H 0.702415 0.886999 0.679797
H30_4 H 0.297585 0.886999 0.820203
C51_3 C 0.27549(18) 0.9858(5) 0.97529(16)
H21_3 H 0.298571 0.917258 0.986903
H32 H 0.542341 0.948194 0.251533
H32_2 H 0.457659 0.948194 0.248467
H32_3 H 0.457659 0.0518064 0.748467
C51_4 C 0.72451(18) 0.0142(5) 0.02471(16)
H21_4 H 0.701429 0.082742 0.013097
H32_4 H 0.542341 0.0518064 0.751533
loop_
_geom_bond_atom_site_label_1
_geom_bond_atom_site_label_2
_geom_bond_site_symmetry_1
_geom_bond_site_symmetry_2
C1 C2 1_555 1_555
C2 C3 1_555 1_555
C3 H1 1_555 1_555
C4 C3 1_555 1_555
C5 C4 1_555 1_555
C6 C5 1_555 1_555
H2 C6 1_555 1_555
C7 C2 1_555 1_555
H3 C7 1_555 1_555
C8 C4 1_555 1_555
C9 C10 1_555 1_555
C10 C11 1_555 1_555
C11 H4 1_555 1_555
C12 C11 1_555 1_555
C13 C12 1_555 1_555
C14 C13 1_555 1_555
H6 C14 1_555 1_555
C15 C10 1_555 1_555
C17 C15 1_555 1_555
C18 C17 1_555 1_555
H7 C18 1_555 1_555
C19 C18 1_555 1_555
C20 C19 1_555 1_555
H8 C20 1_555 1_555
C21 C5 1_555 1_555
C22 C19 1_555 1_555
C23 C22 1_555 1_555
H9 C23 1_555 1_555
C24 C23 1_555 1_555
H10 C24 1_555 1_555
C25 C24 1_555 1_555
C26 C25 1_555 1_555
H11 C26 1_555 1_555
C27 C22 1_555 1_555
H12 C27 1_555 1_555
C28 C25 1_555 1_555
N1 C17 1_555 1_555
O1 C1 1_555 1_555
O2 C1 1_555 1_555
O3 C8 1_555 1_555
O4 C8 1_555 1_555
O5 C9 1_555 1_555
O6 C9 1_555 1_555
O9 C28 1_555 1_555
O10 C28 1_555 1_555
O11 Tm1 1_555 1_555
Tm1 O3 1_555 1_555
O28 Tm1 1_555 1_555
O30 Tm1 1_555 1_555
O31 Tm1 1_555 1_555
O33 Tm1 1_555 1_555
Tm5 O4 1_555 1_555
Tm6 O9 1_555 1_555
Tm9 O2 1_555 1_555
C6 C7 1_555 1_555
C14 C15 1_555 1_555
C20 C21 1_555 1_555
C21 N1 1_555 1_555
C26 C27 1_555 1_555
O5 Tm1 1_555 1_555
O6 Tm5 1_555 1_555
O10 Tm6 1_555 1_555
O11 H29 1_555 1_555
O11 H30 1_555 1_555
O7 C16 1_555 1_555
O8 C16 1_555 1_555
O12 Tm2 1_555 1_555
Tm2 O7 1_555 1_555
O26 Tm2 1_555 1_555
O8 Tm2 1_555 1_555
C29 C30 1_555 1_555
C30 C31 1_555 1_555
C31 H13 1_555 1_555
C32 C31 1_555 1_555
C33 C32 1_555 1_555
C34 C33 1_555 1_555
H14 C34 1_555 1_555
C35 C30 1_555 1_555
H15 C35 1_555 1_555
C36 C32 1_555 1_555
C37 C38 1_555 1_555
C38 C39 1_555 1_555
C39 H16 1_555 1_555
C40 C39 1_555 1_555
C41 C40 1_555 1_555
C42 C41 1_555 1_555
H18 C42 1_555 1_555
C43 C38 1_555 1_555
C45 C43 1_555 1_555
C46 C45 1_555 1_555
H19 C46 1_555 1_555
C47 C46 1_555 1_555
C48 C47 1_555 1_555
H20 C48 1_555 1_555
C49 C33 1_555 1_555
C50 C47 1_555 1_555
N2 C45 1_555 1_555
O13 C29 1_555 1_555
O14 C29 1_555 1_555
O15 C36 1_555 1_555
O16 C36 1_555 1_555
O17 C37 1_555 1_555
O18 C37 1_555 1_555
O23 Tm3 1_555 1_555
Tm3 O15 1_555 1_555
O27 Tm3 1_555 1_555
O29 Tm3 1_555 1_555
O32 Tm3 1_555 1_555
O34 Tm3 1_555 1_555
Tm4 O16 1_555 1_555
Tm9 O14 1_555 1_555
C34 C35 1_555 1_555
C42 C43 1_555 1_555
C48 C49 1_555 1_555
C49 N2 1_555 1_555
O17 Tm3 1_555 1_555
O18 Tm4 1_555 1_555
O23 H25 1_555 1_555
O23 H26 1_555 1_555
H21 C51 1_555 1_555
C52 C51 1_555 1_555
H22 C52 1_555 1_555
C53 C52 1_555 1_555
C54 C53 1_555 1_555
H23 C54 1_555 1_555
H24 C55 1_555 1_555
C56 C53 1_555 1_555
O21 C56 1_555 1_555
O22 C56 1_555 1_555
Tm7 O21 1_555 1_555
C54 C55 1_555 1_555
O22 Tm7 1_555 1_555
O19 Tm2_2 1_555 1_555
O20 Tm2_2 1_555 1_555
O24 Tm2_2 1_555 1_555
O25 Tm2_2 1_555 1_555
C44 O19 1_555 1_555
C44 O20 1_555 1_555
H10_2 C24_2 1_555 1_555
C25_2 C24_2 1_555 1_555
C26_2 C25_2 1_555 1_555
H11_2 C26_2 1_555 1_555
C27_2 C22_2 1_555 1_555
H12_2 C27_2 1_555 1_555
C28_2 C25_2 1_555 1_555
O9_2 C28_2 1_555 1_555
O10_2 C28_2 1_555 1_555
O11_2 Tm4 1_555 1_555
O23_2 Tm5 1_555 1_555
O31_2 Tm4 1_555 1_555
O32_2 Tm5 1_555 1_555
O33_2 Tm4 1_555 1_555
O34_2 Tm5 1_555 1_555
Tm6_2 O9_2 1_555 1_555
C26_2 C27_2 1_555 1_555
O10_2 Tm6_2 1_555 1_555
O23_2 H26_2 1_555 1_555
O11_2 H30_2 1_555 1_555
H22_2 C52_2 1_555 1_555
C53_2 C52_2 1_555 1_555
C54_2 C53_2 1_555 1_555
H23_2 C54_2 1_555 1_555
H24_2 C55_2 1_555 1_555
C56_2 C53_2 1_555 1_555
O21_2 C56_2 1_555 1_555
O22_2 C56_2 1_555 1_555
Tm7_2 O21_2 1_555 1_555
C54_2 C55_2 1_555 1_555
O22_2 Tm7_2 1_555 1_555
C1_2 C2_2 1_555 1_555
C2_2 C3_2 1_555 1_555
C3_2 H1_2 1_555 1_555
C4_2 C3_2 1_555 1_555
C5_2 C4_2 1_555 1_555
C6_2 C5_2 1_555 1_555
H2_2 C6_2 1_555 1_555
C7_2 C2_2 1_555 1_555
H3_2 C7_2 1_555 1_555
C8_2 C4_2 1_555 1_555
C9_2 C10_2 1_555 1_555
C10_2 C11_2 1_555 1_555
C11_2 H4_2 1_555 1_555
C12_2 C11_2 1_555 1_555
C13_2 C12_2 1_555 1_555
H5_2 C13_2 1_555 1_555
C14_2 C13_2 1_555 1_555
H6_2 C14_2 1_555 1_555
C15_2 C10_2 1_555 1_555
C16_2 C12_2 1_555 1_555
C17_2 C15_2 1_555 1_555
C18_2 C17_2 1_555 1_555
H7_2 C18_2 1_555 1_555
C19_2 C18_2 1_555 1_555
C20_2 C19_2 1_555 1_555
H8_2 C20_2 1_555 1_555
C21_2 C5_2 1_555 1_555
H9_2 C23_2 1_555 1_555
N1_2 C17_2 1_555 1_555
O1_2 C1_2 1_555 1_555
O25 C1_2 1_555 1_555
O3_2 C8_2 1_555 1_555
O27 C8_2 1_555 1_555
O5_2 C9_2 1_555 1_555
O29 C9_2 1_555 1_555
O7_2 C16_2 1_555 1_555
O8_2 C16_2 1_555 1_555
O12_2 Tm9 1_555 1_555
Tm9 O7_2 1_555 1_555
C29_2 C30_2 1_555 1_555
C30_2 C31_2 1_555 1_555
C31_2 H13_2 1_555 1_555
C32_2 C31_2 1_555 1_555
C33_2 C32_2 1_555 1_555
C34_2 C33_2 1_555 1_555
H14_2 C34_2 1_555 1_555
C35_2 C30_2 1_555 1_555
H15_2 C35_2 1_555 1_555
C36_2 C32_2 1_555 1_555
C37_2 C38_2 1_555 1_555
C38_2 C39_2 1_555 1_555
C39_2 H16_2 1_555 1_555
C40_2 C39_2 1_555 1_555
C41_2 C40_2 1_555 1_555
H17_2 C41_2 1_555 1_555
C42_2 C41_2 1_555 1_555
H18_2 C42_2 1_555 1_555
C43_2 C38_2 1_555 1_555
C44_2 C40_2 1_555 1_555
C45_2 C43_2 1_555 1_555
C46_2 C45_2 1_555 1_555
H19_2 C46_2 1_555 1_555
C47_2 C46_2 1_555 1_555
C48_2 C47_2 1_555 1_555
H20_2 C48_2 1_555 1_555
C49_2 C33_2 1_555 1_555
N2_2 C45_2 1_555 1_555
O13_2 C29_2 1_555 1_555
O26 C29_2 1_555 1_555
O15_2 C36_2 1_555 1_555
O28 C36_2 1_555 1_555
O17_2 C37_2 1_555 1_555
O30 C37_2 1_555 1_555
O19_2 Tm9 1_555 1_555
O20_2 Tm9 1_555 1_555
O24_2 Tm9 1_555 1_555
C6_2 C7_2 1_555 1_555
C14_2 C15_2 1_555 1_555
C20_2 C21_2 1_555 1_555
C21_2 N1_2 1_555 1_555
O8_2 Tm9 1_555 1_555
C34_2 C35_2 1_555 1_555
C42_2 C43_2 1_555 1_555
C44_2 O19_2 1_555 1_555
C44_2 O20_2 1_555 1_555
C48_2 C49_2 1_555 1_555
C49_2 N2_2 1_555 1_555
O19_3 Tm2_3 1_555 1_555
O20_3 Tm2_3 1_555 1_555
O24_3 Tm2_3 1_555 1_555
O25_2 Tm2_3 1_555 1_555
C44_3 O19_3 1_555 1_555
C44_3 O20_3 1_555 1_555
H21_2 C51_2 1_555 1_555
C52_3 C51_2 1_555 1_555
H22_3 C52_3 1_555 1_555
C53_3 C52_3 1_555 1_555
C54_3 C53_3 1_555 1_555
H23_3 C54_3 1_555 1_555
H24_3 C55_3 1_555 1_555
C56_3 C53_3 1_555 1_555
O32_2 C56_3 1_555 1_555
O34_2 C56_3 1_555 1_555
C54_3 C55_3 1_555 1_555
C29_3 C30_3 1_555 1_555
C30_3 C31_3 1_555 1_555
C31_3 H13_3 1_555 1_555
C32_3 C31_3 1_555 1_555
C33_3 C32_3 1_555 1_555
C34_3 C33_3 1_555 1_555
H14_3 C34_3 1_555 1_555
C35_3 C30_3 1_555 1_555
H15_3 C35_3 1_555 1_555
C36_3 C32_3 1_555 1_555
C37_3 C38_3 1_555 1_555
C38_3 C39_3 1_555 1_555
C39_3 H16_3 1_555 1_555
C40_3 C39_3 1_555 1_555
C41_3 C40_3 1_555 1_555
C42_3 C41_3 1_555 1_555
H18_3 C42_3 1_555 1_555
C43_3 C38_3 1_555 1_555
C45_3 C43_3 1_555 1_555
C46_3 C45_3 1_555 1_555
H19_3 C46_3 1_555 1_555
C47_3 C46_3 1_555 1_555
C48_3 C47_3 1_555 1_555
H20_3 C48_3 1_555 1_555
C49_3 C33_3 1_555 1_555
C50_3 C47_3 1_555 1_555
N2_3 C45_3 1_555 1_555
O13_3 C29_3 1_555 1_555
O14_2 C29_3 1_555 1_555
O15_3 C36_3 1_555 1_555
O16_2 C36_3 1_555 1_555
O17_3 C37_3 1_555 1_555
O18_2 C37_3 1_555 1_555
O23_3 Tm7_2 1_555 1_555
Tm7_2 O15_3 1_555 1_555
O27_2 Tm7_2 1_555 1_555
O29_2 Tm7_2 1_555 1_555
Tm6 O16_2 1_555 1_555
Tm8 O14_2 1_555 1_555
C34_3 C35_3 1_555 1_555
C42_3 C43_3 1_555 1_555
C48_3 C49_3 1_555 1_555
C49_3 N2_3 1_555 1_555
O17_3 Tm7_2 1_555 1_555
O18_2 Tm6 1_555 1_555
O23_3 H25_3 1_555 1_555
O23_3 H26_3 1_555 1_555
O7_3 C16_3 1_555 1_555
O8_3 C16_3 1_555 1_555
O12_3 Tm2_4 1_555 1_555
Tm2_4 O7_3 1_555 1_555
O26_2 Tm2_4 1_555 1_555
O8_3 Tm2_4 1_555 1_555
C1_3 C2_3 1_555 1_555
C2_3 C3_3 1_555 1_555
C3_3 H1_3 1_555 1_555
C4_3 C3_3 1_555 1_555
C5_3 C4_3 1_555 1_555
C6_3 C5_3 1_555 1_555
H2_3 C6_3 1_555 1_555
C7_3 C2_3 1_555 1_555
H3_3 C7_3 1_555 1_555
C8_3 C4_3 1_555 1_555
C9_3 C10_3 1_555 1_555
C10_3 C11_3 1_555 1_555
C11_3 H4_3 1_555 1_555
C12_3 C11_3 1_555 1_555
C13_3 C12_3 1_555 1_555
C14_3 C13_3 1_555 1_555
H6_3 C14_3 1_555 1_555
C15_3 C10_3 1_555 1_555
C17_3 C15_3 1_555 1_555
C18_3 C17_3 1_555 1_555
H7_3 C18_3 1_555 1_555
C19_3 C18_3 1_555 1_555
C20_3 C19_3 1_555 1_555
H8_3 C20_3 1_555 1_555
C21_3 C5_3 1_555 1_555
C22_3 C19_3 1_555 1_555
C23_3 C22_3 1_555 1_555
H9_3 C23_3 1_555 1_555
C24_3 C23_3 1_555 1_555
H10_3 C24_3 1_555 1_555
C25_3 C24_3 1_555 1_555
C26_3 C25_3 1_555 1_555
H11_3 C26_3 1_555 1_555
C27_3 C22_3 1_555 1_555
H12_3 C27_3 1_555 1_555
C28_3 C25_3 1_555 1_555
N1_3 C17_3 1_555 1_555
O1_3 C1_3 1_555 1_555
O2_2 C1_3 1_555 1_555
O3_3 C8_3 1_555 1_555
O4_2 C8_3 1_555 1_555
O5_3 C9_3 1_555 1_555
O6_2 C9_3 1_555 1_555
O31_2 C28_3 1_555 1_555
O33_2 C28_3 1_555 1_555
O11_3 Tm6_2 1_555 1_555
Tm6_2 O3_3 1_555 1_555
O28_2 Tm6_2 1_555 1_555
O30_2 Tm6_2 1_555 1_555
Tm7 O4_2 1_555 1_555
Tm8 O2_2 1_555 1_555
C6_3 C7_3 1_555 1_555
C14_3 C15_3 1_555 1_555
C20_3 C21_3 1_555 1_555
C21_3 N1_3 1_555 1_555
C26_3 C27_3 1_555 1_555
O5_3 Tm6_2 1_555 1_555
O6_2 Tm7 1_555 1_555
O11_3 H29_3 1_555 1_555
O11_3 H30_3 1_555 1_555
C1_4 C2_4 1_555 1_555
C2_4 C3_4 1_555 1_555
C3_4 H1_4 1_555 1_555
C4_4 C3_4 1_555 1_555
C5_4 C4_4 1_555 1_555
C6_4 C5_4 1_555 1_555
H2_4 C6_4 1_555 1_555
C7_4 C2_4 1_555 1_555
H3_4 C7_4 1_555 1_555
C8_4 C4_4 1_555 1_555
C9_4 C10_4 1_555 1_555
C10_4 C11_4 1_555 1_555
C11_4 H4_4 1_555 1_555
C12_4 C11_4 1_555 1_555
C13_4 C12_4 1_555 1_555
H5_4 C13_4 1_555 1_555
C14_4 C13_4 1_555 1_555
H6_4 C14_4 1_555 1_555
C15_4 C10_4 1_555 1_555
C16_4 C12_4 1_555 1_555
C17_4 C15_4 1_555 1_555
C18_4 C17_4 1_555 1_555
H7_4 C18_4 1_555 1_555
C19_4 C18_4 1_555 1_555
C20_4 C19_4 1_555 1_555
H8_4 C20_4 1_555 1_555
C21_4 C5_4 1_555 1_555
H9_4 C23_4 1_555 1_555
N1_4 C17_4 1_555 1_555
O1_4 C1_4 1_555 1_555
O25_2 C1_4 1_555 1_555
O3_4 C8_4 1_555 1_555
O27_2 C8_4 1_555 1_555
O5_4 C9_4 1_555 1_555
O29_2 C9_4 1_555 1_555
O7_4 C16_4 1_555 1_555
O8_4 C16_4 1_555 1_555
O12_4 Tm8 1_555 1_555
Tm8 O7_4 1_555 1_555
C29_4 C30_4 1_555 1_555
C30_4 C31_4 1_555 1_555
C31_4 H13_4 1_555 1_555
C32_4 C31_4 1_555 1_555
C33_4 C32_4 1_555 1_555
C34_4 C33_4 1_555 1_555
H14_4 C34_4 1_555 1_555
C35_4 C30_4 1_555 1_555
H15_4 C35_4 1_555 1_555
C36_4 C32_4 1_555 1_555
C37_4 C38_4 1_555 1_555
C38_4 C39_4 1_555 1_555
C39_4 H16_4 1_555 1_555
C40_4 C39_4 1_555 1_555
C41_4 C40_4 1_555 1_555
H17_4 C41_4 1_555 1_555
C42_4 C41_4 1_555 1_555
H18_4 C42_4 1_555 1_555
C43_4 C38_4 1_555 1_555
C44_4 C40_4 1_555 1_555
C45_4 C43_4 1_555 1_555
C46_4 C45_4 1_555 1_555
H19_4 C46_4 1_555 1_555
C47_4 C46_4 1_555 1_555
C48_4 C47_4 1_555 1_555
H20_4 C48_4 1_555 1_555
C49_4 C33_4 1_555 1_555
N2_4 C45_4 1_555 1_555
O13_4 C29_4 1_555 1_555
O26_2 C29_4 1_555 1_555
O15_4 C36_4 1_555 1_555
O28_2 C36_4 1_555 1_555
O17_4 C37_4 1_555 1_555
O30_2 C37_4 1_555 1_555
O19_4 Tm8 1_555 1_555
O20_4 Tm8 1_555 1_555
O24_4 Tm8 1_555 1_555
C6_4 C7_4 1_555 1_555
C14_4 C15_4 1_555 1_555
C20_4 C21_4 1_555 1_555
C21_4 N1_4 1_555 1_555
O8_4 Tm8 1_555 1_555
C34_4 C35_4 1_555 1_555
C42_4 C43_4 1_555 1_555
C44_4 O19_4 1_555 1_555
C44_4 O20_4 1_555 1_555
C48_4 C49_4 1_555 1_555
C49_4 N2_4 1_555 1_555
H22_4 C52_4 1_555 1_555
C53_4 C52_4 1_555 1_555
C54_4 C53_4 1_555 1_555
H23_4 C54_4 1_555 1_555
H24_4 C55_4 1_555 1_555
C56_4 C53_4 1_555 1_555
O32 C56_4 1_555 1_555
O34 C56_4 1_555 1_555
C54_4 C55_4 1_555 1_555
H10_4 C24_4 1_555 1_555
C25_4 C24_4 1_555 1_555
C26_4 C25_4 1_555 1_555
H11_4 C26_4 1_555 1_555
C27_4 C22_4 1_555 1_555
H12_4 C27_4 1_555 1_555
C28_4 C25_4 1_555 1_555
O31 C28_4 1_555 1_555
O33 C28_4 1_555 1_555
O11_4 Tm6 1_555 1_555
O23_4 Tm7 1_555 1_555
C26_4 C27_4 1_555 1_555
O23_4 H26_4 1_555 1_555
O11_4 H30_4 1_555 1_555
H21_3 C51_3 1_555 1_555
H21_4 C51_4 1_555 1_555

#END
