
###############################################################################
#
# This file contains modified crystal structure data generated from the
# MOF subset of the Cambridge Structural Database (CSD) v543 
# hosted by the Cambridge Crystallographic Data Centre (CCDC).
#
# This work is licensed under the Creative Commons
# Attribution-NonCommercial-ShareAlike 4.0 International License.
# To view a copy of this license, visit
# http://creativecommons.org/licenses/by-nc-sa/4.0/
# or send a letter to
# Creative Commons, PO Box 1866, Mountain View, CA 94042, USA.
#
# CIF created using the CSD Python API on 29 September 2022
# The structure has been converted into the P1 space group
# The structure has a 3D framework
# The original CSD entry IJISOK is in the orthorhombic crystal system
# The framework has been calculated to contain at least 10.0% void space
# The void calculation uses a probe of radius 1.32A, grid spacing 0.4
# The framework is charged, counterions have been retained in the structure
#
###############################################################################

data_IJISOK
_chemical_formula_moiety         '(C96 H84 Ag2 Cl4 N12 O28 2-)n'
_symmetry_cell_setting           triclinic
_symmetry_space_group_name_H-M   'P 1'
_symmetry_Int_Tables_number      1
_space_group_name_Hall           'P 1'
loop_
_symmetry_equiv_pos_site_id
_symmetry_equiv_pos_as_xyz
1 x,y,z
_cell_length_a                   22.258(15)
_cell_length_b                   11.154(9)
_cell_length_c                   10.409(9)
_cell_angle_alpha                90
_cell_angle_beta                 90
_cell_angle_gamma                90
_cell_volume                     2584.2
loop_
_atom_site_label
_atom_site_type_symbol
_atom_site_fract_x
_atom_site_fract_y
_atom_site_fract_z
N3 N 0.11283(17) 0.3355(4) 0.7156(4)
C20 C 0.0635(2) 0.3975(5) 0.7450(5)
H18 H 0.0626 0.4366 0.8260
C21 C 0.01307(19) 0.4094(4) 0.6658(5)
C22 C 0.0167(2) 0.3530(5) 0.5468(5)
C23 C 0.0674(2) 0.2899(6) 0.5141(6)
H20 H 0.0702 0.2519 0.4327
C24 C 0.1141(2) 0.2822(5) 0.6005(6)
H21 H 0.1487 0.2372 0.5774
Ag3 Ag 0.197080(15) 0.30858(4) 0.84603(4)
H9 H 0.0807 0.2332 0.9988
N4 N 0.27916(17) 0.3310(4) 0.7297(4)
O2 O 0.24988(12) 0.4305(3) 0.3670(4)
O3 O 0.08097(13) 0.5192(3) 0.1029(3)
C1 C 0.2391(2) 0.5419(4) 0.0356(5)
C2 C 0.2662(2) 0.5047(5) 0.1526(5)
H1 H 0.3087 0.5032 0.1615
C3 C 0.2301(2) 0.4713(4) 0.2511(5)
C4 C 0.1666(2) 0.4751(5) 0.2413(5)
H2 H 0.1415 0.4521 0.3109
C5 C 0.1428(2) 0.5138(5) 0.1256(5)
C6 C 0.17723(19) 0.5448(4) 0.0228(5)
C13 C 0.31347(17) 0.4290(4) 0.3905(4)
H10 H 0.3304 0.5107 0.3815
H11 H 0.3339 0.3754 0.3287
C14 C 0.2742(2) 0.3718(5) 0.6088(5)
H12 H 0.2353 0.3936 0.5790
C15 C 0.3218(2) 0.3841(4) 0.5252(5)
C16 C 0.3775(2) 0.3535(5) 0.5708(6)
H13 H 0.4115 0.3613 0.5163
C17 C 0.3851(2) 0.3115(5) 0.6947(6)
H14 H 0.4236 0.2897 0.7261
C18 C 0.3344(2) 0.3026(5) 0.7713(5)
H15 H 0.3390 0.2751 0.8571
C19 C 0.04064(18) 0.5207(5) 0.2073(5)
H16 H 0.0596 0.5590 0.2830
H17 H 0.0289 0.4380 0.2308
N2 N 0.72084(17) 0.6690(4) 0.2297(4)
C14_2 C 0.7258(2) 0.6282(5) 0.1088(5)
H12_2 H 0.7647 0.6064 0.0790
C15_2 C 0.6782(2) 0.6159(4) 0.0252(5)
C16_2 C 0.6225(2) 0.6465(5) 0.0708(6)
H13_2 H 0.5885 0.6387 0.0163
C17_2 C 0.6149(2) 0.6885(5) 0.1947(6)
H14_2 H 0.5764 0.7103 0.2261
C18_2 C 0.6656(2) 0.6974(5) 0.2713(5)
H15_2 H 0.6610 0.7249 0.3571
Ag2 Ag 0.802920(15) 0.69142(4) 0.34603(4)
O1 O 0.77848(14) 0.9238(3) 0.9416(3)
N1 N 0.83129(17) 0.7723(4) 0.5289(4)
H3 H 0.6592 0.9319 0.9439
C7 C 0.75380(19) 0.8828(4) 0.8246(5)
H4 H 0.7293 0.8100 0.8399
H5 H 0.7275 0.9453 0.7873
C8 C 0.78983(18) 0.8044(4) 0.6151(4)
H6 H 0.7487 0.7923 0.5947
C9 C 0.8043(2) 0.8546(4) 0.7335(4)
C10 C 0.8644(2) 0.8753(4) 0.7608(5)
H7 H 0.8759 0.9136 0.8386
C11 C 0.9073(2) 0.8392(5) 0.6731(5)
H8 H 0.9488 0.8486 0.6918
C12 C 0.8894(2) 0.7898(5) 0.5591(5)
H9_2 H 0.9193 0.7668 0.4988
H19 H 0.5159 0.8581 0.9882
H20_2 H 0.4298 0.7519 0.9327
N5 N 0.88717(17) 0.6645(4) 0.2156(4)
C20_2 C 0.9365(2) 0.6025(5) 0.2450(5)
H18_2 H 0.9374 0.5634 0.3260
C21_2 C 0.98693(19) 0.5906(4) 0.1658(5)
C22_2 C 0.9833(2) 0.6470(5) 0.0468(5)
C23_2 C 0.9326(2) 0.7101(6) 0.0141(6)
C24_2 C 0.8859(2) 0.7178(5) 0.1005(6)
H21_2 H 0.8513 0.7628 0.0774
O1_2 O 0.72152(14) 0.4238(3) 0.4416(3)
O2_2 O 0.75012(12) 0.5695(3) 0.8670(4)
O3_2 O 0.91903(13) 0.4808(3) 0.6029(3)
N1_2 N 0.66871(17) 0.2723(4) 0.0289(4)
C1_2 C 0.7609(2) 0.4581(4) 0.5356(5)
C2_2 C 0.7338(2) 0.4953(5) 0.6526(5)
H1_2 H 0.6913 0.4968 0.6615
C3_2 C 0.7699(2) 0.5287(4) 0.7511(5)
C4_2 C 0.8334(2) 0.5249(5) 0.7413(5)
H2_2 H 0.8585 0.5479 0.8109
C5_2 C 0.8572(2) 0.4862(5) 0.6256(5)
C6_2 C 0.82277(19) 0.4552(4) 0.5228(5)
H3_2 H 0.8408 0.4319 0.4439
C7_2 C 0.74620(19) 0.3828(4) 0.3246(5)
H4_2 H 0.7707 0.3100 0.3399
H5_2 H 0.7725 0.4453 0.2873
C8_2 C 0.71017(18) 0.3044(4) 0.1151(4)
H6_2 H 0.7513 0.2923 0.0947
C9_2 C 0.6957(2) 0.3546(4) 0.2335(4)
C10_2 C 0.6356(2) 0.3753(4) 0.2608(5)
H7_2 H 0.6241 0.4136 0.3386
C11_2 C 0.5927(2) 0.3392(5) 0.1731(5)
H8_2 H 0.5512 0.3486 0.1918
C12_2 C 0.6106(2) 0.2898(5) 0.0591(5)
C13_2 C 0.68653(17) 0.5710(4) 0.8905(4)
H10_2 H 0.6696 0.4893 0.8815
H11_2 H 0.6661 0.6246 0.8287
C19_2 C 0.95936(18) 0.4793(5) 0.7073(5)
H16_2 H 0.9404 0.4410 0.7830
H17_2 H 0.9711 0.5620 0.7308
H19_2 H 0.9841 0.3581 0.4882
Ag1 Ag 0.697080(15) 0.19142(4) 0.84603(4)
H9_3 H 0.5807 0.2668 0.9988
N4_2 N 0.77916(17) 0.1690(4) 0.7297(4)
N5_2 N 0.61283(17) 0.1645(4) 0.7156(4)
O2_3 O 0.74988(12) 0.0695(3) 0.3670(4)
C3_3 C 0.7301(2) 0.0287(4) 0.2511(5)
C4_3 C 0.6666(2) 0.0249(5) 0.2413(5)
H2_3 H 0.6415 0.0479 0.3109
C13_3 C 0.81347(17) 0.0710(4) 0.3905(4)
H11_3 H 0.8339 0.1246 0.3287
C14_3 C 0.7742(2) 0.1282(5) 0.6088(5)
H12_3 H 0.7353 0.1064 0.5790
C15_3 C 0.8218(2) 0.1159(4) 0.5252(5)
C16_3 C 0.8775(2) 0.1465(5) 0.5708(6)
H13_3 H 0.9115 0.1387 0.5163
C17_3 C 0.8851(2) 0.1885(5) 0.6947(6)
H14_3 H 0.9236 0.2103 0.7261
C18_3 C 0.8344(2) 0.1974(5) 0.7713(5)
H15_3 H 0.8390 0.2249 0.8571
H17_3 H 0.5289 0.0620 0.2308
O1_3 O 0.22152(14) 0.0762(3) 0.4416(3)
O3_3 O 0.41903(13) 0.0192(3) 0.6029(3)
N1_3 N 0.16871(17) 0.2277(4) 0.0289(4)
C1_3 C 0.2609(2) 0.0419(4) 0.5356(5)
C2_3 C 0.2338(2) 0.0047(5) 0.6526(5)
H1_3 H 0.1913 0.0032 0.6615
C5_3 C 0.3572(2) 0.0138(5) 0.6256(5)
C6_3 C 0.32277(19) 0.0448(4) 0.5228(5)
H3_3 H 0.3408 0.0681 0.4439
C7_3 C 0.24620(19) 0.1172(4) 0.3246(5)
H4_3 H 0.2707 0.1900 0.3399
H5_3 H 0.2725 0.0547 0.2873
C8_3 C 0.21017(18) 0.1956(4) 0.1151(4)
H6_3 H 0.2513 0.2077 0.0947
C9_3 C 0.1957(2) 0.1454(4) 0.2335(4)
C10_3 C 0.1356(2) 0.1247(4) 0.2608(5)
H7_3 H 0.1241 0.0864 0.3386
C11_3 C 0.0927(2) 0.1608(5) 0.1731(5)
H8_3 H 0.0512 0.1514 0.1918
C12_3 C 0.1106(2) 0.2102(5) 0.0591(5)
H10_3 H 0.1696 0.0107 0.8815
C19_3 C 0.45936(18) 0.0207(5) 0.7073(5)
H16_3 H 0.4404 0.0590 0.7830
C20_3 C 0.5635(2) 0.1025(5) 0.7450(5)
H18_3 H 0.5626 0.0634 0.8260
C21_3 C 0.51307(19) 0.0906(4) 0.6658(5)
C22_3 C 0.5167(2) 0.1470(5) 0.5468(5)
H19_3 H 0.4841 0.1419 0.4882
C23_3 C 0.5674(2) 0.2101(6) 0.5141(6)
H20_3 H 0.5702 0.2481 0.4327
C24_3 C 0.6141(2) 0.2178(5) 0.6005(6)
H21_3 H 0.6487 0.2628 0.5774
O3_4 O 0.58097(13) 0.9808(3) 0.1029(3)
N3_2 N 0.38717(17) 0.8355(4) 0.2156(4)
C1_4 C 0.7391(2) 0.9581(4) 0.0356(5)
C2_4 C 0.7662(2) 0.9953(5) 0.1526(5)
H1_4 H 0.8087 0.9968 0.1615
C5_4 C 0.6428(2) 0.9862(5) 0.1256(5)
C6_4 C 0.67723(19) 0.9552(4) 0.0228(5)
H10_4 H 0.8304 0.9893 0.3815
C19_4 C 0.54064(18) 0.9793(5) 0.2073(5)
H16_4 H 0.5596 0.9410 0.2830
C20_4 C 0.4365(2) 0.8975(5) 0.2450(5)
H18_4 H 0.4374 0.9366 0.3260
C21_4 C 0.48693(19) 0.9094(4) 0.1658(5)
C22_4 C 0.4833(2) 0.8530(5) 0.0468(5)
C23_4 C 0.4326(2) 0.7899(6) 0.0141(6)
C24_4 C 0.3859(2) 0.7822(5) 0.1005(6)
H21_4 H 0.3513 0.7372 0.0774
Ag3_2 Ag 0.302920(15) 0.80858(4) 0.34603(4)
N2_2 N 0.22084(17) 0.8310(4) 0.2297(4)
C14_4 C 0.2258(2) 0.8718(5) 0.1088(5)
H12_4 H 0.2647 0.8936 0.0790
C15_4 C 0.1782(2) 0.8841(4) 0.0252(5)
C16_4 C 0.1225(2) 0.8535(5) 0.0708(6)
H13_4 H 0.0885 0.8613 0.0163
C17_4 C 0.1149(2) 0.8115(5) 0.1947(6)
H14_4 H 0.0764 0.7897 0.2261
C18_4 C 0.1656(2) 0.8026(5) 0.2713(5)
H15_4 H 0.1610 0.7751 0.3571
O1_4 O 0.27848(14) 0.5762(3) 0.9416(3)
N1_4 N 0.33129(17) 0.7277(4) 0.5289(4)
H3_4 H 0.1592 0.5681 0.9439
C7_4 C 0.25380(19) 0.6172(4) 0.8246(5)
H4_4 H 0.2293 0.6900 0.8399
H5_4 H 0.2275 0.5547 0.7873
C8_4 C 0.28983(18) 0.6956(4) 0.6151(4)
H6_4 H 0.2487 0.7077 0.5947
C9_4 C 0.3043(2) 0.6454(4) 0.7335(4)
C10_4 C 0.3644(2) 0.6247(4) 0.7608(5)
H7_4 H 0.3759 0.5864 0.8386
C11_4 C 0.4073(2) 0.6608(5) 0.6731(5)
H8_4 H 0.4488 0.6514 0.6918
C12_4 C 0.3894(2) 0.7102(5) 0.5591(5)
H9_4 H 0.4193 0.7332 0.4988
H19_4 H 0.0159 0.6419 0.9882
O2_4 O 0.25012(12) 0.9305(3) 0.8670(4)
C3_4 C 0.2699(2) 0.9713(4) 0.7511(5)
C4_4 C 0.3334(2) 0.9751(5) 0.7413(5)
H2_4 H 0.3585 0.9521 0.8109
C13_4 C 0.18653(17) 0.9290(4) 0.8905(4)
H11_4 H 0.1661 0.8754 0.8287
H17_4 H 0.4711 0.9380 0.7308
H20_4 H 0.9298 0.7481 0.9327
Cl1 Cl 0.59080(9) 0.7844(2) 0.61274(18)
O4 O 0.6113(4) 0.6676(8) 0.5901(8)
O5 O 0.6369(2) 0.8665(9) 0.5855(8)
O6 O 0.5711(3) 0.7969(6) 0.7409(5)
O7 O 0.5443(2) 0.8098(5) 0.5302(5)
Cl1_2 Cl 0.90920(9) 0.2844(2) 0.11274(18)
O4_2 O 0.8887(4) 0.1676(8) 0.0901(8)
O5_2 O 0.8631(2) 0.3665(9) 0.0855(8)
O6_2 O 0.9289(3) 0.2969(6) 0.2409(5)
O7_2 O 0.9557(2) 0.3098(5) 0.0302(5)
Cl1_3 Cl 0.09080(9) 0.7156(2) 0.61274(18)
O4_3 O 0.1113(4) 0.8324(8) 0.5901(8)
O5_3 O 0.1369(2) 0.6335(9) 0.5855(8)
O6_3 O 0.0711(3) 0.7031(6) 0.7409(5)
O7_3 O 0.0443(2) 0.6902(5) 0.5302(5)
Cl1_4 Cl 0.40920(9) 0.2156(2) 0.11274(18)
O4_4 O 0.3887(4) 0.3324(8) 0.0901(8)
O5_4 O 0.3631(2) 0.1335(9) 0.0855(8)
O6_4 O 0.4289(3) 0.2031(6) 0.2409(5)
O7_4 O 0.4557(2) 0.1902(5) 0.0302(5)
loop_
_geom_bond_atom_site_label_1
_geom_bond_atom_site_label_2
_geom_bond_site_symmetry_1
_geom_bond_site_symmetry_2
N3 C20 1_555 1_555
C20 H18 1_555 1_555
C22 C21 1_555 1_555
C23 C22 1_555 1_555
H20 C23 1_555 1_555
C24 N3 1_555 1_555
H21 C24 1_555 1_555
Ag3 N3 1_555 1_555
C20 C21 1_555 1_555
C23 C24 1_555 1_555
N4 Ag3 1_555 1_555
O2 C3 1_555 1_555
O3 C5 1_555 1_555
N4 C14 1_555 1_555
C1 C2 1_555 1_555
C2 H1 1_555 1_555
C3 C2 1_555 1_555
C4 C3 1_555 1_555
H2 C4 1_555 1_555
C5 C4 1_555 1_555
C6 C1 1_555 1_555
C13 O2 1_555 1_555
H10 C13 1_555 1_555
H11 C13 1_555 1_555
C14 H12 1_555 1_555
C15 C13 1_555 1_555
C16 C15 1_555 1_555
H13 C16 1_555 1_555
C17 C16 1_555 1_555
H14 C17 1_555 1_555
C18 N4 1_555 1_555
H15 C18 1_555 1_555
C19 O3 1_555 1_555
H16 C19 1_555 1_555
H17 C19 1_555 1_555
C5 C6 1_555 1_555
C14 C15 1_555 1_555
C17 C18 1_555 1_555
N2 C14_2 1_555 1_555
C14_2 H12_2 1_555 1_555
C16_2 C15_2 1_555 1_555
H13_2 C16_2 1_555 1_555
C17_2 C16_2 1_555 1_555
H14_2 C17_2 1_555 1_555
C18_2 N2 1_555 1_555
H15_2 C18_2 1_555 1_555
Ag2 N2 1_555 1_555
C14_2 C15_2 1_555 1_555
C17_2 C18_2 1_555 1_555
Ag2 N1 1_555 1_555
N1 C8 1_555 1_555
C7 O1 1_555 1_555
H4 C7 1_555 1_555
H5 C7 1_555 1_555
C8 H6 1_555 1_555
C9 C7 1_555 1_555
C10 C9 1_555 1_555
H7 C10 1_555 1_555
C11 C10 1_555 1_555
H8 C11 1_555 1_555
C12 N1 1_555 1_555
H9_2 C12 1_555 1_555
N5 Ag2 1_555 1_555
C8 C9 1_555 1_555
C11 C12 1_555 1_555
N5 C20_2 1_555 1_555
C20_2 H18_2 1_555 1_555
C22_2 C21_2 1_555 1_555
C23_2 C22_2 1_555 1_555
C24_2 N5 1_555 1_555
H21_2 C24_2 1_555 1_555
C20_2 C21_2 1_555 1_555
C23_2 C24_2 1_555 1_555
O1_2 C1_2 1_555 1_555
O2_2 C3_2 1_555 1_555
O3_2 C5_2 1_555 1_555
N1_2 C8_2 1_555 1_555
C1_2 C2_2 1_555 1_555
C2_2 H1_2 1_555 1_555
C3_2 C2_2 1_555 1_555
C4_2 C3_2 1_555 1_555
H2_2 C4_2 1_555 1_555
C5_2 C4_2 1_555 1_555
C6_2 C1_2 1_555 1_555
H3_2 C6_2 1_555 1_555
C7_2 O1_2 1_555 1_555
H4_2 C7_2 1_555 1_555
H5_2 C7_2 1_555 1_555
C8_2 H6_2 1_555 1_555
C9_2 C7_2 1_555 1_555
C10_2 C9_2 1_555 1_555
H7_2 C10_2 1_555 1_555
C11_2 C10_2 1_555 1_555
H8_2 C11_2 1_555 1_555
C12_2 N1_2 1_555 1_555
C13_2 O2_2 1_555 1_555
H10_2 C13_2 1_555 1_555
H11_2 C13_2 1_555 1_555
C19_2 O3_2 1_555 1_555
H16_2 C19_2 1_555 1_555
H17_2 C19_2 1_555 1_555
C5_2 C6_2 1_555 1_555
C8_2 C9_2 1_555 1_555
C11_2 C12_2 1_555 1_555
N4_2 Ag1 1_555 1_555
N5_2 Ag1 1_555 1_555
O2_3 C3_3 1_555 1_555
N4_2 C14_3 1_555 1_555
C4_3 C3_3 1_555 1_555
H2_3 C4_3 1_555 1_555
C13_3 O2_3 1_555 1_555
H11_3 C13_3 1_555 1_555
C14_3 H12_3 1_555 1_555
C15_3 C13_3 1_555 1_555
C16_3 C15_3 1_555 1_555
H13_3 C16_3 1_555 1_555
C17_3 C16_3 1_555 1_555
H14_3 C17_3 1_555 1_555
C18_3 N4_2 1_555 1_555
H15_3 C18_3 1_555 1_555
C14_3 C15_3 1_555 1_555
C17_3 C18_3 1_555 1_555
O1_3 C1_3 1_555 1_555
O3_3 C5_3 1_555 1_555
N1_3 C8_3 1_555 1_555
N5_2 C20_3 1_555 1_555
C1_3 C2_3 1_555 1_555
C2_3 H1_3 1_555 1_555
C6_3 C1_3 1_555 1_555
H3_3 C6_3 1_555 1_555
C7_3 O1_3 1_555 1_555
H4_3 C7_3 1_555 1_555
H5_3 C7_3 1_555 1_555
C8_3 H6_3 1_555 1_555
C9_3 C7_3 1_555 1_555
C10_3 C9_3 1_555 1_555
H7_3 C10_3 1_555 1_555
C11_3 C10_3 1_555 1_555
H8_3 C11_3 1_555 1_555
C12_3 N1_3 1_555 1_555
C19_3 O3_3 1_555 1_555
H16_3 C19_3 1_555 1_555
C20_3 H18_3 1_555 1_555
C21_3 C19_3 1_555 1_555
C22_3 C21_3 1_555 1_555
H19_3 C22_3 1_555 1_555
C23_3 C22_3 1_555 1_555
H20_3 C23_3 1_555 1_555
C24_3 N5_2 1_555 1_555
H21_3 C24_3 1_555 1_555
C5_3 C6_3 1_555 1_555
C8_3 C9_3 1_555 1_555
C11_3 C12_3 1_555 1_555
C20_3 C21_3 1_555 1_555
C23_3 C24_3 1_555 1_555
O3_4 C5_4 1_555 1_555
N3_2 C20_4 1_555 1_555
C1_4 C2_4 1_555 1_555
C2_4 H1_4 1_555 1_555
C6_4 C1_4 1_555 1_555
C19_4 O3_4 1_555 1_555
H16_4 C19_4 1_555 1_555
C20_4 H18_4 1_555 1_555
C21_4 C19_4 1_555 1_555
C22_4 C21_4 1_555 1_555
C23_4 C22_4 1_555 1_555
C24_4 N3_2 1_555 1_555
H21_4 C24_4 1_555 1_555
Ag3_2 N3_2 1_555 1_555
C5_4 C6_4 1_555 1_555
C20_4 C21_4 1_555 1_555
C23_4 C24_4 1_555 1_555
N2_2 C14_4 1_555 1_555
C14_4 H12_4 1_555 1_555
C16_4 C15_4 1_555 1_555
H13_4 C16_4 1_555 1_555
C17_4 C16_4 1_555 1_555
H14_4 C17_4 1_555 1_555
C18_4 N2_2 1_555 1_555
H15_4 C18_4 1_555 1_555
Ag3_2 N2_2 1_555 1_555
C14_4 C15_4 1_555 1_555
C17_4 C18_4 1_555 1_555
Ag3_2 N1_4 1_555 1_555
N1_4 C8_4 1_555 1_555
C7_4 O1_4 1_555 1_555
H4_4 C7_4 1_555 1_555
H5_4 C7_4 1_555 1_555
C8_4 H6_4 1_555 1_555
C9_4 C7_4 1_555 1_555
C10_4 C9_4 1_555 1_555
H7_4 C10_4 1_555 1_555
C11_4 C10_4 1_555 1_555
H8_4 C11_4 1_555 1_555
C12_4 N1_4 1_555 1_555
H9_4 C12_4 1_555 1_555
C8_4 C9_4 1_555 1_555
C11_4 C12_4 1_555 1_555
O2_4 C3_4 1_555 1_555
C4_4 C3_4 1_555 1_555
H2_4 C4_4 1_555 1_555
C13_4 O2_4 1_555 1_555
H11_4 C13_4 1_555 1_555
Cl1 O4 1_555 1_555
O5 Cl1 1_555 1_555
O6 Cl1 1_555 1_555
O7 Cl1 1_555 1_555
Cl1_2 O4_2 1_555 1_555
O5_2 Cl1_2 1_555 1_555
O6_2 Cl1_2 1_555 1_555
O7_2 Cl1_2 1_555 1_555
Cl1_3 O4_3 1_555 1_555
O5_3 Cl1_3 1_555 1_555
O6_3 Cl1_3 1_555 1_555
O7_3 Cl1_3 1_555 1_555
Cl1_4 O4_4 1_555 1_555
O5_4 Cl1_4 1_555 1_555
O6_4 Cl1_4 1_555 1_555
O7_4 Cl1_4 1_555 1_555

#END
