
###############################################################################
#
# This file contains modified crystal structure data generated from the
# MOF subset of the Cambridge Structural Database (CSD) v543 
# hosted by the Cambridge Crystallographic Data Centre (CCDC).
#
# This work is licensed under the Creative Commons
# Attribution-NonCommercial-ShareAlike 4.0 International License.
# To view a copy of this license, visit
# http://creativecommons.org/licenses/by-nc-sa/4.0/
# or send a letter to
# Creative Commons, PO Box 1866, Mountain View, CA 94042, USA.
#
# CIF created using the CSD Python API on 29 September 2022
# The structure has been converted into the P1 space group
# The structure has a 3D framework
# The original CSD entry IJITEC is in the monoclinic crystal system
# The framework has been calculated to contain at least 10.0% void space
# The void calculation uses a probe of radius 1.32A, grid spacing 0.4
#
###############################################################################

data_IJITEC
_chemical_formula_moiety         '(C304 H208 Co6 N32 O30)n'
_symmetry_cell_setting           triclinic
_symmetry_space_group_name_H-M   'P 1'
_symmetry_Int_Tables_number      1
_space_group_name_Hall           'P 1'
loop_
_symmetry_equiv_pos_site_id
_symmetry_equiv_pos_as_xyz
1 x,y,z
_cell_length_a                   32.836(3)
_cell_length_b                   14.4409(13)
_cell_length_c                   14.2280(12)
_cell_angle_alpha                90
_cell_angle_beta                 101.308(2)
_cell_angle_gamma                90
_cell_volume                     6615.68
loop_
_atom_site_label
_atom_site_type_symbol
_atom_site_fract_x
_atom_site_fract_y
_atom_site_fract_z
N9 N 0.00085(14) 0.6896(4) 0.3506(4)
O13 O 0.00865(12) 0.4868(3) 0.3606(3)
Co1 Co 0.46468(2) 0.04203(6) 0.35346(7)
Co2 Co 0.96093(2) 0.57400(7) 0.36576(6)
N1 N 0.56334(13) 0.2186(3) 0.3091(3)
N2 N 0.50594(14) 0.1426(4) 0.3190(4)
N3 N 0.86319(14) 0.3759(4) 0.3731(3)
N4 N 0.91940(14) 0.4603(4) 0.3733(4)
O5 O 0.40980(13) 0.1129(3) 0.2697(4)
O6 O 0.44417(12) 0.0074(3) 0.2010(3)
C21 C 0.4130(2) 0.0618(6) 0.1997(6)
C22 C 0.37895(18) 0.0595(4) 0.1128(5)
C23 C 0.3412(2) 0.0952(5) 0.1163(5)
H13 H 0.3375 0.1261 0.1714
C24 C 0.30767(19) 0.0870(5) 0.0400(6)
H14 H 0.2822 0.1128 0.0448
C27 C 0.38372(18) 0.0163(6) 0.0297(6)
H17 H 0.1098 0.1224 0.0078
C41 C 0.54681(18) 0.1361(5) 0.3290(5)
H25 H 0.5621 0.0826 0.3472
C42 C 0.49619(19) 0.2319(5) 0.2895(5)
H26 H 0.4695 0.2564 0.2751
C43 C 0.53125(18) 0.2784(5) 0.2847(5)
H27 H 0.5331 0.3402 0.2677
C44 C 0.87849(18) 0.4602(5) 0.3583(5)
H28 H 0.8621 0.5121 0.3397
C45 C 0.93016(18) 0.3705(6) 0.3982(5)
H29 H 0.9573 0.3484 0.4125
C46 C 0.8960(2) 0.3184(5) 0.3989(5)
H30 H 0.8952 0.2558 0.4140
C47 C 0.60716(17) 0.2372(5) 0.3185(4)
C48 C 0.6351(2) 0.1681(5) 0.3133(6)
H31 H 0.6261 0.1073 0.3016
C49 C 0.67718(18) 0.1897(5) 0.3257(6)
H32 H 0.6962 0.1422 0.3245
C50 C 0.69142(17) 0.2793(4) 0.3398(4)
C51 C 0.66206(17) 0.3447(5) 0.3450(5)
H33 H 0.6703 0.4059 0.3562
C52 C 0.62052(18) 0.3232(5) 0.3344(5)
H34 H 0.6015 0.3701 0.3384
C53 C 0.81987(17) 0.3523(5) 0.3652(4)
C54 C 0.80815(18) 0.2627(5) 0.3604(5)
H35 H 0.8280 0.2164 0.3623
C55 C 0.76640(18) 0.2390(5) 0.3525(5)
H36 H 0.7589 0.1768 0.3481
C56 C 0.73626(17) 0.3042(5) 0.3511(4)
C57 C 0.7493(2) 0.3962(5) 0.3550(6)
H37 H 0.7298 0.4435 0.3517
C58 C 0.79065(19) 0.4176(5) 0.3639(6)
H38 H 0.7987 0.4794 0.3693
H39 H 0.3658 0.0094 0.3604
Co5 Co 0.03907(2) 0.07400(7) 0.13424(6)
O9 O 0.47154(12) 0.1027(3) 0.4841(4)
O10 O 0.93864(13) 0.5741(3) 0.2078(3)
O11 O 0.90724(12) 0.6523(3) 0.3061(4)
O12 O 0.96832(12) 0.5978(3) 0.5085(3)
N5 N 0.36245(14) 0.8795(4) 0.4119(4)
N6 N 0.42120(15) 0.9462(4) 0.3916(4)
N7 N 0.05888(14) 0.7705(4) 0.3515(4)
O1 O 0.51198(12) 0.9504(3) 0.3666(4)
O2 O 0.52846(12) 0.8973(3) 0.5159(4)
O3 O 0.93864(13) 0.9259(3) 0.7078(3)
O4 O 0.90724(12) 0.8477(3) 0.8061(4)
C1 C 0.53534(18) 0.9131(5) 0.4349(6)
C2 C 0.57741(17) 0.8823(5) 0.4149(5)
C3 C 0.60757(18) 0.8415(4) 0.4850(5)
H1 H 0.6017 0.8294 0.5451
C4 C 0.64519(17) 0.8194(4) 0.4673(5)
H2 H 0.6651 0.7949 0.5165
C5 C 0.65504(18) 0.8321(5) 0.3773(5)
C6 C 0.62466(19) 0.8713(5) 0.3057(5)
H3 H 0.6303 0.8819 0.2450
C7 C 0.58686(19) 0.8939(5) 0.3248(5)
H4 H 0.5667 0.9179 0.2758
C8 C 0.9094(2) 0.8759(6) 0.7225(6)
C9 C 0.87441(18) 0.8500(5) 0.6413(5)
C10 C 0.8393(2) 0.8150(6) 0.6600(6)
H5 H 0.8374 0.8027 0.7232
C11 C 0.8050(2) 0.7963(6) 0.5857(6)
H6 H 0.7805 0.7741 0.6007
C12 C 0.80738(18) 0.8103(4) 0.4924(5)
C13 C 0.84528(19) 0.8417(5) 0.4725(5)
H7 H 0.8486 0.8480 0.4094
C14 C 0.87763(18) 0.8631(5) 0.5471(6)
H8 H 0.9021 0.8869 0.5335
C15 C 0.69586(19) 0.8057(5) 0.3583(5)
C16 C 0.73187(18) 0.8191(4) 0.4289(5)
H9 H 0.7294 0.8472 0.4863
C17 C 0.77112(19) 0.7920(5) 0.4162(5)
C18 C 0.7750(2) 0.7485(6) 0.3336(6)
H10 H 0.8007 0.7276 0.3247
C19 C 0.7396(3) 0.7359(7) 0.2623(6)
H11 H 0.7422 0.7070 0.2053
C20 C 0.7009(2) 0.7650(6) 0.2737(6)
H12 H 0.6780 0.7571 0.2241
H16 H 0.4095 0.9922 0.0250
C59 C 0.38036(17) 0.9561(4) 0.3832(5)
C60 C 0.42862(17) 0.8595(5) 0.4276(5)
H40 H 0.4549 0.8329 0.4419
C61 C 0.39406(18) 0.8163(5) 0.4404(5)
H41 H 0.3918 0.7566 0.4634
C62 C 0.04115(18) 0.6878(5) 0.3681(5)
H42 H 0.0566 0.6353 0.3898
C64 C 0.02644(18) 0.8279(5) 0.3187(5)
H44 H 0.0278 0.8895 0.3002
C65 C 0.31887(16) 0.8650(5) 0.4118(4)
C66 C 0.30274(18) 0.7788(5) 0.4050(5)
H45 H 0.3200 0.7282 0.4027
C67 C 0.26127(19) 0.7652(5) 0.4014(5)
H46 H 0.2513 0.7048 0.3991
C68 C 0.23343(17) 0.8369(5) 0.4010(4)
C69 C 0.25092(19) 0.9231(5) 0.4080(6)
H47 H 0.2336 0.9740 0.4087
C70 C 0.29326(19) 0.9392(5) 0.4141(6)
H48 H 0.3038 0.9991 0.4196
C71 C 0.10200(17) 0.7880(5) 0.3641(4)
C72 C 0.1301(2) 0.7179(5) 0.3644(6)
H49 H 0.1206 0.6573 0.3557
C73 C 0.17139(19) 0.7346(5) 0.3770(6)
H50 H 0.1893 0.6848 0.3764
C74 C 0.18785(17) 0.8217(5) 0.3905(4)
C75 C 0.15994(18) 0.8915(5) 0.3914(5)
H51 H 0.1699 0.9517 0.4013
C76 C 0.11716(17) 0.8770(5) 0.3781(5)
H52 H 0.0992 0.9267 0.3787
Co3 Co 0.53532(2) 0.95797(6) 0.64654(7)
Co7 Co 0.96093(2) 0.92600(7) 0.86576(6)
C63 C 0.99108(18) 0.7764(6) 0.3183(5)
H43 H 0.9641 0.7984 0.2984
C63_2 C 0.00892(18) 0.2764(6) 0.1817(5)
H43_2 H 0.0359 0.2984 0.2016
Co6 Co 0.03907(2) 0.42600(7) 0.63424(6)
H28_2 H 0.1379 0.0121 0.1603
O10_2 O 0.06136(13) 0.0741(3) 0.2922(3)
O11_2 O 0.09276(12) 0.1523(3) 0.1939(4)
Co1_2 Co 0.53532(2) 0.54203(6) 0.14654(7)
N1_2 N 0.43666(13) 0.7186(3) 0.1909(3)
N2_2 N 0.49406(14) 0.6426(4) 0.1810(4)
N3_2 N 0.13681(14) 0.8759(4) 0.1269(3)
N4_2 N 0.08060(14) 0.9603(4) 0.1267(4)
N5_2 N 0.63755(14) 0.3795(4) 0.0881(4)
N6_2 N 0.57880(15) 0.4462(4) 0.1084(4)
N7_2 N 0.94112(14) 0.2705(4) 0.1485(4)
N8 N 0.99915(14) 0.1896(4) 0.1494(4)
O1_2 O 0.48802(12) 0.4504(3) 0.1334(4)
O5_2 O 0.59020(13) 0.6129(3) 0.2303(4)
O6_2 O 0.55583(12) 0.5074(3) 0.2990(3)
O8 O 0.99135(12) 0.5132(3) 0.6394(3)
C1_2 C 0.46466(18) 0.4131(5) 0.0651(6)
C2_2 C 0.42259(17) 0.3823(5) 0.0851(5)
C3_2 C 0.39243(18) 0.3415(4) 0.0150(5)
C4_2 C 0.35481(17) 0.3194(4) 0.0327(5)
C5_2 C 0.34496(18) 0.3321(5) 0.1227(5)
C6_2 C 0.37534(19) 0.3713(5) 0.1943(5)
H3_2 H 0.3697 0.3819 0.2550
C7_2 C 0.41314(19) 0.3939(5) 0.1752(5)
H4_2 H 0.4333 0.4179 0.2242
C12_2 C 0.19262(18) 0.3103(4) 0.0076(5)
C13_2 C 0.15472(19) 0.3417(5) 0.0275(5)
H7_2 H 0.1514 0.3480 0.0906
C15_2 C 0.30414(19) 0.3057(5) 0.1417(5)
C16_2 C 0.26813(18) 0.3191(4) 0.0711(5)
H9_2 H 0.2706 0.3472 0.0137
C17_2 C 0.22888(19) 0.2920(5) 0.0838(5)
C18_2 C 0.2250(2) 0.2485(6) 0.1664(6)
H10_2 H 0.1993 0.2276 0.1753
C19_2 C 0.2604(3) 0.2359(7) 0.2377(6)
H11_2 H 0.2578 0.2070 0.2947
C20_2 C 0.2991(2) 0.2650(6) 0.2263(6)
H12_2 H 0.3220 0.2571 0.2759
C21_2 C 0.5870(2) 0.5618(6) 0.3003(6)
C22_2 C 0.62105(18) 0.5595(4) 0.3872(5)
C23_2 C 0.6588(2) 0.5952(5) 0.3837(5)
H13_2 H 0.6625 0.6261 0.3286
C24_2 C 0.69233(19) 0.5870(5) 0.4600(6)
H14_2 H 0.7178 0.6128 0.4552
C25 C 0.68829(17) 0.5410(4) 0.5430(5)
C26 C 0.64896(18) 0.5080(5) 0.5467(5)
H15 H 0.6446 0.4795 0.6025
C27_2 C 0.61628(18) 0.5163(6) 0.4703(6)
H16_2 H 0.5905 0.4922 0.4750
C28 C 0.96328(18) 0.5608(5) 0.5838(5)
C29 C 0.92204(17) 0.5617(4) 0.6119(5)
C30 C 0.88740(18) 0.5943(4) 0.5494(5)
H17_2 H 0.8902 0.6224 0.4922
C31 C 0.84851(17) 0.5849(5) 0.5725(5)
H18 H 0.8255 0.6059 0.5288
C32 C 0.84227(16) 0.5462(4) 0.6565(5)
C33 C 0.87750(18) 0.5160(5) 0.7202(5)
H19 H 0.8749 0.4886 0.7779
C34 C 0.91668(16) 0.5265(4) 0.6979(5)
H20 H 0.9399 0.5091 0.7429
C35 C 0.72524(17) 0.5296(4) 0.6222(5)
C36 C 0.76509(17) 0.5378(4) 0.6058(4)
H21 H 0.7686 0.5478 0.5434
C37 C 0.80038(17) 0.5317(4) 0.6784(5)
C38 C 0.79441(18) 0.5136(4) 0.7706(5)
H22 H 0.8172 0.5073 0.8205
C39 C 0.75441(19) 0.5048(5) 0.7887(5)
H23 H 0.7507 0.4929 0.8507
C40 C 0.72060(18) 0.5135(5) 0.7162(5)
H24 H 0.6941 0.5086 0.7297
C41_2 C 0.45319(18) 0.6361(5) 0.1710(5)
H25_2 H 0.4379 0.5826 0.1528
C42_2 C 0.50381(19) 0.7319(5) 0.2105(5)
H26_2 H 0.5305 0.7564 0.2249
C43_2 C 0.46875(18) 0.7784(5) 0.2153(5)
H27_2 H 0.4669 0.8402 0.2323
C44_2 C 0.12151(18) 0.9602(5) 0.1417(5)
C45_2 C 0.06984(18) 0.8705(6) 0.1018(5)
H29_2 H 0.0427 0.8484 0.0875
C46_2 C 0.1040(2) 0.8184(5) 0.1011(5)
H30_2 H 0.1048 0.7558 0.0860
C47_2 C 0.39284(17) 0.7372(5) 0.1815(4)
C48_2 C 0.3649(2) 0.6681(5) 0.1867(6)
H31_2 H 0.3739 0.6073 0.1984
C49_2 C 0.32282(18) 0.6897(5) 0.1743(6)
H32_2 H 0.3038 0.6422 0.1755
C50_2 C 0.30858(17) 0.7793(4) 0.1602(4)
C51_2 C 0.33794(17) 0.8447(5) 0.1550(5)
H33_2 H 0.3297 0.9059 0.1438
C52_2 C 0.37948(18) 0.8232(5) 0.1656(5)
H34_2 H 0.3985 0.8701 0.1616
C53_2 C 0.18013(17) 0.8523(5) 0.1348(4)
C54_2 C 0.19185(18) 0.7627(5) 0.1396(5)
H35_2 H 0.1720 0.7164 0.1377
C55_2 C 0.23360(18) 0.7390(5) 0.1475(5)
H36_2 H 0.2411 0.6768 0.1519
C56_2 C 0.26374(17) 0.8042(5) 0.1489(4)
C57_2 C 0.2507(2) 0.8962(5) 0.1450(6)
H37_2 H 0.2702 0.9435 0.1483
C58_2 C 0.20935(19) 0.9176(5) 0.1361(6)
H38_2 H 0.2013 0.9794 0.1307
C59_2 C 0.61964(17) 0.4561(4) 0.1168(5)
H39_2 H 0.6342 0.5094 0.1396
C60_2 C 0.57138(17) 0.3595(5) 0.0724(5)
H40_2 H 0.5451 0.3329 0.0581
C61_2 C 0.60594(18) 0.3163(5) 0.0596(5)
H41_2 H 0.6082 0.2566 0.0366
C62_2 C 0.95885(18) 0.1878(5) 0.1319(5)
H42_2 H 0.9434 0.1353 0.1102
C64_2 C 0.97356(18) 0.3279(5) 0.1813(5)
H44_2 H 0.9722 0.3895 0.1998
C65_2 C 0.68113(16) 0.3650(5) 0.0882(4)
C66_2 C 0.69726(18) 0.2788(5) 0.0950(5)
H45_2 H 0.6800 0.2282 0.0973
C67_2 C 0.73873(19) 0.2652(5) 0.0986(5)
H46_2 H 0.7487 0.2048 0.1009
C68_2 C 0.76657(17) 0.3369(5) 0.0990(4)
C69_2 C 0.74908(19) 0.4231(5) 0.0920(6)
H47_2 H 0.7664 0.4740 0.0913
C70_2 C 0.70674(19) 0.4392(5) 0.0859(6)
H48_2 H 0.6962 0.4991 0.0804
C71_2 C 0.89800(17) 0.2880(5) 0.1359(4)
C72_2 C 0.8699(2) 0.2179(5) 0.1356(6)
H49_2 H 0.8794 0.1573 0.1443
C73_2 C 0.82861(19) 0.2346(5) 0.1230(6)
H50_2 H 0.8107 0.1848 0.1236
C74_2 C 0.81215(17) 0.3217(5) 0.1095(4)
C75_2 C 0.84006(18) 0.3915(5) 0.1086(5)
H51_2 H 0.8301 0.4517 0.0987
C76_2 C 0.88284(17) 0.3770(5) 0.1219(5)
H52_2 H 0.9008 0.4267 0.1213
O9_2 O 0.52846(12) 0.6027(3) 0.0159(4)
O2_2 O 0.47154(12) 0.3973(3) 0.9841(4)
O3_2 O 0.06136(13) 0.4259(3) 0.7922(3)
O4_2 O 0.09276(12) 0.3477(3) 0.6939(4)
H1_2 H 0.3983 0.3294 0.9549
H2_2 H 0.3349 0.2949 0.9835
C8_2 C 0.0906(2) 0.3759(6) 0.7775(6)
C9_2 C 0.12559(18) 0.3500(5) 0.8587(5)
C10_2 C 0.1607(2) 0.3150(6) 0.8400(6)
H5_2 H 0.1626 0.3027 0.7768
C11_2 C 0.1950(2) 0.2963(6) 0.9143(6)
H6_2 H 0.2195 0.2741 0.8993
C14_2 C 0.12237(18) 0.3631(5) 0.9529(6)
H8_2 H 0.0979 0.3869 0.9665
Co3_2 Co 0.46468(2) 0.45797(6) 0.85346(7)
C63_3 C 0.00892(18) 0.2236(6) 0.6817(5)
H43_3 H 0.0359 0.2016 0.7016
N5_3 N 0.63755(14) 0.1205(4) 0.5881(4)
N6_3 N 0.57880(15) 0.0538(4) 0.6084(4)
N7_3 N 0.94112(14) 0.2295(4) 0.6485(4)
N8_2 N 0.99915(14) 0.3104(4) 0.6494(4)
O1_3 O 0.48802(12) 0.0496(3) 0.6334(4)
C1_3 C 0.46466(18) 0.0869(5) 0.5651(6)
C2_3 C 0.42259(17) 0.1177(5) 0.5851(5)
C3_3 C 0.39243(18) 0.1585(4) 0.5150(5)
H1_3 H 0.3983 0.1706 0.4549
C4_3 C 0.35481(17) 0.1806(4) 0.5327(5)
H2_3 H 0.3349 0.2051 0.4835
C5_3 C 0.34496(18) 0.1679(5) 0.6227(5)
C6_3 C 0.37534(19) 0.1287(5) 0.6943(5)
H3_3 H 0.3697 0.1181 0.7550
C7_3 C 0.41314(19) 0.1061(5) 0.6752(5)
H4_3 H 0.4333 0.0821 0.7242
C8_3 C 0.0906(2) 0.1241(6) 0.2775(6)
C9_3 C 0.12559(18) 0.1500(5) 0.3587(5)
C10_3 C 0.1607(2) 0.1850(6) 0.3400(6)
H5_3 H 0.1626 0.1973 0.2768
C11_3 C 0.1950(2) 0.2037(6) 0.4143(6)
H6_3 H 0.2195 0.2259 0.3993
C12_3 C 0.19262(18) 0.1897(4) 0.5076(5)
C13_3 C 0.15472(19) 0.1583(5) 0.5275(5)
H7_3 H 0.1514 0.1520 0.5906
C14_3 C 0.12237(18) 0.1369(5) 0.4529(6)
H8_3 H 0.0979 0.1131 0.4665
C15_3 C 0.30414(19) 0.1943(5) 0.6417(5)
C16_3 C 0.26813(18) 0.1809(4) 0.5711(5)
H9_3 H 0.2706 0.1528 0.5137
C17_3 C 0.22888(19) 0.2080(5) 0.5838(5)
C18_3 C 0.2250(2) 0.2515(6) 0.6664(6)
H10_3 H 0.1993 0.2724 0.6753
C19_3 C 0.2604(3) 0.2641(7) 0.7377(6)
H11_3 H 0.2578 0.2930 0.7947
C20_3 C 0.2991(2) 0.2350(6) 0.7263(6)
H12_3 H 0.3220 0.2429 0.7759
H16_3 H 0.5905 0.0078 0.9750
C59_3 C 0.61964(17) 0.0439(4) 0.6168(5)
C60_3 C 0.57138(17) 0.1405(5) 0.5724(5)
H40_3 H 0.5451 0.1671 0.5581
C61_3 C 0.60594(18) 0.1837(5) 0.5596(5)
H41_3 H 0.6082 0.2434 0.5366
C62_3 C 0.95885(18) 0.3122(5) 0.6319(5)
H42_3 H 0.9434 0.3647 0.6102
C64_3 C 0.97356(18) 0.1721(5) 0.6813(5)
H44_3 H 0.9722 0.1105 0.6998
C65_3 C 0.68113(16) 0.1350(5) 0.5882(4)
C66_3 C 0.69726(18) 0.2212(5) 0.5950(5)
H45_3 H 0.6800 0.2718 0.5973
C67_3 C 0.73873(19) 0.2348(5) 0.5986(5)
H46_3 H 0.7487 0.2952 0.6009
C68_3 C 0.76657(17) 0.1631(5) 0.5990(4)
C69_3 C 0.74908(19) 0.0769(5) 0.5920(6)
H47_3 H 0.7664 0.0260 0.5913
C70_3 C 0.70674(19) 0.0608(5) 0.5859(6)
H48_3 H 0.6962 0.0009 0.5804
C71_3 C 0.89800(17) 0.2120(5) 0.6359(4)
C72_3 C 0.8699(2) 0.2821(5) 0.6356(6)
H49_3 H 0.8794 0.3427 0.6443
C73_3 C 0.82861(19) 0.2654(5) 0.6230(6)
H50_3 H 0.8107 0.3152 0.6236
C74_3 C 0.81215(17) 0.1783(5) 0.6095(4)
C75_3 C 0.84006(18) 0.1085(5) 0.6086(5)
H51_3 H 0.8301 0.0483 0.5987
C76_3 C 0.88284(17) 0.1230(5) 0.6219(5)
H52_3 H 0.9008 0.0733 0.6213
N1_3 N 0.43666(13) 0.7814(3) 0.6909(3)
N2_3 N 0.49406(14) 0.8574(4) 0.6810(4)
N3_3 N 0.13681(14) 0.6241(4) 0.6269(3)
N4_3 N 0.08060(14) 0.5397(4) 0.6267(4)
O5_3 O 0.59020(13) 0.8871(3) 0.7303(4)
O6_3 O 0.55583(12) 0.9926(3) 0.7990(3)
C21_3 C 0.5870(2) 0.9382(6) 0.8003(6)
C22_3 C 0.62105(18) 0.9405(4) 0.8872(5)
C23_3 C 0.6588(2) 0.9048(5) 0.8837(5)
H13_3 H 0.6625 0.8739 0.8286
C24_3 C 0.69233(19) 0.9130(5) 0.9600(6)
H14_3 H 0.7178 0.8872 0.9552
C27_3 C 0.61628(18) 0.9837(6) 0.9703(6)
H17_3 H 0.8902 0.8776 0.9922
C41_3 C 0.45319(18) 0.8639(5) 0.6710(5)
H25_3 H 0.4379 0.9174 0.6528
C42_3 C 0.50381(19) 0.7681(5) 0.7105(5)
H26_3 H 0.5305 0.7436 0.7249
C43_3 C 0.46875(18) 0.7216(5) 0.7153(5)
H27_3 H 0.4669 0.6598 0.7323
C44_3 C 0.12151(18) 0.5398(5) 0.6417(5)
H28_3 H 0.1379 0.4879 0.6603
C45_3 C 0.06984(18) 0.6295(6) 0.6018(5)
H29_3 H 0.0427 0.6516 0.5875
C46_3 C 0.1040(2) 0.6816(5) 0.6011(5)
H30_3 H 0.1048 0.7442 0.5860
C47_3 C 0.39284(17) 0.7628(5) 0.6815(4)
C48_3 C 0.3649(2) 0.8319(5) 0.6867(6)
H31_3 H 0.3739 0.8927 0.6984
C49_3 C 0.32282(18) 0.8103(5) 0.6743(6)
H32_3 H 0.3038 0.8578 0.6755
C50_3 C 0.30858(17) 0.7207(4) 0.6602(4)
C51_3 C 0.33794(17) 0.6553(5) 0.6550(5)
H33_3 H 0.3297 0.5941 0.6438
C52_3 C 0.37948(18) 0.6768(5) 0.6656(5)
H34_3 H 0.3985 0.6299 0.6616
C53_3 C 0.18013(17) 0.6477(5) 0.6348(4)
C54_3 C 0.19185(18) 0.7373(5) 0.6396(5)
H35_3 H 0.1720 0.7836 0.6377
C55_3 C 0.23360(18) 0.7610(5) 0.6475(5)
H36_3 H 0.2411 0.8232 0.6519
C56_3 C 0.26374(17) 0.6958(5) 0.6489(4)
C57_3 C 0.2507(2) 0.6038(5) 0.6450(6)
H37_3 H 0.2702 0.5565 0.6483
C58_3 C 0.20935(19) 0.5824(5) 0.6361(6)
H38_3 H 0.2013 0.5206 0.6307
H39_3 H 0.6342 0.9906 0.6396
O12_2 O 0.03168(12) 0.4022(3) 0.4915(3)
N9_2 N 0.00085(14) 0.8104(4) 0.8506(4)
H1_4 H 0.6017 0.6706 0.0451
H2_4 H 0.6651 0.7051 0.0165
C8_4 C 0.9094(2) 0.6241(6) 0.2225(6)
C9_4 C 0.87441(18) 0.6500(5) 0.1413(5)
C10_4 C 0.8393(2) 0.6850(6) 0.1600(6)
H5_4 H 0.8374 0.6973 0.2232
C11_4 C 0.8050(2) 0.7037(6) 0.0857(6)
H6_4 H 0.7805 0.7259 0.1007
C14_4 C 0.87763(18) 0.6369(5) 0.0471(6)
H8_4 H 0.9021 0.6131 0.0335
N1_4 N 0.56334(13) 0.2814(3) 0.8091(3)
N2_4 N 0.50594(14) 0.3574(4) 0.8190(4)
N3_4 N 0.86319(14) 0.1241(4) 0.8731(3)
N4_4 N 0.91940(14) 0.0397(4) 0.8733(4)
N5_4 N 0.36245(14) 0.6205(4) 0.9119(4)
N6_4 N 0.42120(15) 0.5538(4) 0.8916(4)
N7_4 N 0.05888(14) 0.7295(4) 0.8515(4)
O1_4 O 0.51198(12) 0.5496(3) 0.8666(4)
O5_4 O 0.40980(13) 0.3871(3) 0.7697(4)
O6_4 O 0.44417(12) 0.4926(3) 0.7010(3)
C1_4 C 0.53534(18) 0.5869(5) 0.9349(6)
C2_4 C 0.57741(17) 0.6177(5) 0.9149(5)
C3_4 C 0.60757(18) 0.6585(4) 0.9850(5)
C4_4 C 0.64519(17) 0.6806(4) 0.9673(5)
C5_4 C 0.65504(18) 0.6679(5) 0.8773(5)
C6_4 C 0.62466(19) 0.6287(5) 0.8057(5)
H3_4 H 0.6303 0.6181 0.7450
C7_4 C 0.58686(19) 0.6061(5) 0.8248(5)
H4_4 H 0.5667 0.5821 0.7758
C12_4 C 0.80738(18) 0.6897(4) 0.9924(5)
C13_4 C 0.84528(19) 0.6583(5) 0.9725(5)
H7_4 H 0.8486 0.6520 0.9094
C15_4 C 0.69586(19) 0.6943(5) 0.8583(5)
C16_4 C 0.73187(18) 0.6809(4) 0.9289(5)
H9_4 H 0.7294 0.6528 0.9863
C17_4 C 0.77112(19) 0.7080(5) 0.9162(5)
C18_4 C 0.7750(2) 0.7515(6) 0.8336(6)
H10_4 H 0.8007 0.7724 0.8247
C19_4 C 0.7396(3) 0.7641(7) 0.7623(6)
H11_4 H 0.7422 0.7930 0.7053
C20_4 C 0.7009(2) 0.7350(6) 0.7737(6)
H12_4 H 0.6780 0.7429 0.7241
C21_4 C 0.4130(2) 0.4382(6) 0.6997(6)
C22_4 C 0.37895(18) 0.4405(4) 0.6128(5)
C23_4 C 0.3412(2) 0.4048(5) 0.6163(5)
H13_4 H 0.3375 0.3739 0.6714
C24_4 C 0.30767(19) 0.4130(5) 0.5400(6)
H14_4 H 0.2822 0.3872 0.5448
C25_2 C 0.31171(17) 0.4590(4) 0.4570(5)
C26_2 C 0.35104(18) 0.4920(5) 0.4533(5)
H15_2 H 0.3554 0.5205 0.3975
C27_4 C 0.38372(18) 0.4837(6) 0.5297(6)
H16_4 H 0.4095 0.5078 0.5250
C28_2 C 0.03672(18) 0.4392(5) 0.4162(5)
C29_2 C 0.07796(17) 0.4383(4) 0.3881(5)
C30_2 C 0.11260(18) 0.4057(4) 0.4506(5)
H17_4 H 0.1098 0.3776 0.5078
C31_2 C 0.15149(17) 0.4151(5) 0.4275(5)
H18_2 H 0.1745 0.3941 0.4712
C32_2 C 0.15773(16) 0.4538(4) 0.3435(5)
C33_2 C 0.12250(18) 0.4840(5) 0.2798(5)
H19_2 H 0.1251 0.5114 0.2221
C34_2 C 0.08332(16) 0.4735(4) 0.3021(5)
H20_2 H 0.0601 0.4909 0.2571
C35_2 C 0.27476(17) 0.4704(4) 0.3778(5)
C36_2 C 0.23491(17) 0.4622(4) 0.3942(4)
H21_2 H 0.2314 0.4522 0.4566
C37_2 C 0.19962(17) 0.4683(4) 0.3216(5)
C38_2 C 0.20559(18) 0.4864(4) 0.2294(5)
H22_2 H 0.1828 0.4927 0.1795
C39_2 C 0.24559(19) 0.4952(5) 0.2113(5)
H23_2 H 0.2493 0.5071 0.1493
C40_2 C 0.27940(18) 0.4865(5) 0.2838(5)
H24_2 H 0.3059 0.4914 0.2703
C41_4 C 0.54681(18) 0.3639(5) 0.8290(5)
H25_4 H 0.5621 0.4174 0.8472
C42_4 C 0.49619(19) 0.2681(5) 0.7895(5)
H26_4 H 0.4695 0.2436 0.7751
C43_4 C 0.53125(18) 0.2216(5) 0.7847(5)
H27_4 H 0.5331 0.1598 0.7677
C44_4 C 0.87849(18) 0.0398(5) 0.8583(5)
C45_4 C 0.93016(18) 0.1295(6) 0.8982(5)
H29_4 H 0.9573 0.1516 0.9125
C46_4 C 0.8960(2) 0.1816(5) 0.8989(5)
H30_4 H 0.8952 0.2442 0.9140
C47_4 C 0.60716(17) 0.2628(5) 0.8185(4)
C48_4 C 0.6351(2) 0.3319(5) 0.8133(6)
H31_4 H 0.6261 0.3927 0.8016
C49_4 C 0.67718(18) 0.3103(5) 0.8257(6)
H32_4 H 0.6962 0.3578 0.8245
C50_4 C 0.69142(17) 0.2207(4) 0.8398(4)
C51_4 C 0.66206(17) 0.1553(5) 0.8450(5)
H33_4 H 0.6703 0.0941 0.8562
C52_4 C 0.62052(18) 0.1768(5) 0.8344(5)
H34_4 H 0.6015 0.1299 0.8384
C53_4 C 0.81987(17) 0.1477(5) 0.8652(4)
C54_4 C 0.80815(18) 0.2373(5) 0.8604(5)
H35_4 H 0.8280 0.2836 0.8623
C55_4 C 0.76640(18) 0.2610(5) 0.8525(5)
H36_4 H 0.7589 0.3232 0.8481
C56_4 C 0.73626(17) 0.1958(5) 0.8511(4)
C57_4 C 0.7493(2) 0.1038(5) 0.8550(6)
H37_4 H 0.7298 0.0565 0.8517
C58_4 C 0.79065(19) 0.0824(5) 0.8639(6)
H38_4 H 0.7987 0.0206 0.8693
C59_4 C 0.38036(17) 0.5439(4) 0.8832(5)
H39_4 H 0.3658 0.4906 0.8604
C60_4 C 0.42862(17) 0.6405(5) 0.9276(5)
H40_4 H 0.4549 0.6671 0.9419
C61_4 C 0.39406(18) 0.6837(5) 0.9404(5)
H41_4 H 0.3918 0.7434 0.9634
C62_4 C 0.04115(18) 0.8122(5) 0.8681(5)
H42_4 H 0.0566 0.8647 0.8898
C64_4 C 0.02644(18) 0.6721(5) 0.8187(5)
H44_4 H 0.0278 0.6105 0.8002
C65_4 C 0.31887(16) 0.6350(5) 0.9118(4)
C66_4 C 0.30274(18) 0.7212(5) 0.9050(5)
H45_4 H 0.3200 0.7718 0.9027
C67_4 C 0.26127(19) 0.7348(5) 0.9014(5)
H46_4 H 0.2513 0.7952 0.8991
C68_4 C 0.23343(17) 0.6631(5) 0.9010(4)
C69_4 C 0.25092(19) 0.5769(5) 0.9080(6)
H47_4 H 0.2336 0.5260 0.9087
C70_4 C 0.29326(19) 0.5608(5) 0.9141(6)
H48_4 H 0.3038 0.5009 0.9196
C71_4 C 0.10200(17) 0.7120(5) 0.8641(4)
C72_4 C 0.1301(2) 0.7821(5) 0.8644(6)
H49_4 H 0.1206 0.8427 0.8557
C73_4 C 0.17139(19) 0.7654(5) 0.8770(6)
H50_4 H 0.1893 0.8152 0.8764
C74_4 C 0.18785(17) 0.6783(5) 0.8905(4)
C75_4 C 0.15994(18) 0.6085(5) 0.8914(5)
H51_4 H 0.1699 0.5483 0.9013
C76_4 C 0.11716(17) 0.6230(5) 0.8781(5)
H52_4 H 0.0992 0.5733 0.8787
H28_4 H 0.8621 0.9879 0.8397
C63_4 C 0.99108(18) 0.7236(6) 0.8183(5)
H43_4 H 0.9641 0.7016 0.7984
O7 O 0.03168(12) 0.0978(3) 0.9915(3)
O8_2 O 0.00865(12) 0.0132(3) 0.8606(3)
C25_3 C 0.31171(17) 0.0410(4) 0.9570(5)
C26_3 C 0.35104(18) 0.0080(5) 0.9533(5)
C28_3 C 0.03672(18) 0.0608(5) 0.9162(5)
C29_3 C 0.07796(17) 0.0617(4) 0.8881(5)
C30_3 C 0.11260(18) 0.0943(4) 0.9506(5)
C31_3 C 0.15149(17) 0.0849(5) 0.9275(5)
H18_3 H 0.1745 0.1059 0.9712
C32_3 C 0.15773(16) 0.0462(4) 0.8435(5)
C33_3 C 0.12250(18) 0.0160(5) 0.7798(5)
C34_3 C 0.08332(16) 0.0265(4) 0.8021(5)
H20_3 H 0.0601 0.0091 0.7571
C35_3 C 0.27476(17) 0.0296(4) 0.8778(5)
C36_3 C 0.23491(17) 0.0378(4) 0.8942(4)
H21_3 H 0.2314 0.0478 0.9566
C37_3 C 0.19962(17) 0.0317(4) 0.8216(5)
C38_3 C 0.20559(18) 0.0136(4) 0.7294(5)
H22_3 H 0.1828 0.0073 0.6795
C39_3 C 0.24559(19) 0.0048(5) 0.7113(5)
C40_3 C 0.27940(18) 0.0135(5) 0.7838(5)
H24_3 H 0.3059 0.0086 0.7703
H15_3 H 0.3554 0.9795 0.8975
H19_3 H 0.1251 0.9886 0.7221
H23_3 H 0.2493 0.9929 0.6493
O13_2 O 0.99135(12) 0.9868(3) 0.1394(3)
O7_2 O 0.96832(12) 0.9022(3) 0.0085(3)
C25_4 C 0.68829(17) 0.9590(4) 0.0430(5)
C26_4 C 0.64896(18) 0.9920(5) 0.0467(5)
C28_4 C 0.96328(18) 0.9392(5) 0.0838(5)
C29_4 C 0.92204(17) 0.9383(4) 0.1119(5)
C30_4 C 0.88740(18) 0.9057(4) 0.0494(5)
C31_4 C 0.84851(17) 0.9151(5) 0.0725(5)
H18_4 H 0.8255 0.8941 0.0288
C32_4 C 0.84227(16) 0.9538(4) 0.1565(5)
C33_4 C 0.87750(18) 0.9840(5) 0.2202(5)
C34_4 C 0.91668(16) 0.9735(4) 0.1979(5)
H20_4 H 0.9399 0.9909 0.2429
C35_4 C 0.72524(17) 0.9704(4) 0.1222(5)
C36_4 C 0.76509(17) 0.9622(4) 0.1058(4)
H21_4 H 0.7686 0.9522 0.0434
C37_4 C 0.80038(17) 0.9683(4) 0.1784(5)
C38_4 C 0.79441(18) 0.9864(4) 0.2706(5)
H22_4 H 0.8172 0.9927 0.3205
C39_4 C 0.75441(19) 0.9952(5) 0.2887(5)
C40_4 C 0.72060(18) 0.9865(5) 0.2162(5)
H24_4 H 0.6941 0.9914 0.2297
H15_4 H 0.6446 0.0205 0.1025
H19_4 H 0.8749 0.0114 0.2779
H23_4 H 0.7507 0.0071 0.3507
loop_
_geom_bond_atom_site_label_1
_geom_bond_atom_site_label_2
_geom_bond_site_symmetry_1
_geom_bond_site_symmetry_2
Co1 N2 1_555 1_555
Co2 N4 1_555 1_555
N1 C41 1_555 1_555
N2 C41 1_555 1_555
N3 C44 1_555 1_555
N4 C44 1_555 1_555
O5 Co1 1_555 1_555
O6 Co1 1_555 1_555
C21 O5 1_555 1_555
C22 C21 1_555 1_555
C23 C22 1_555 1_555
H13 C23 1_555 1_555
C24 C23 1_555 1_555
H14 C24 1_555 1_555
C27 C22 1_555 1_555
C41 H25 1_555 1_555
C42 N2 1_555 1_555
H26 C42 1_555 1_555
C43 N1 1_555 1_555
H27 C43 1_555 1_555
C44 H28 1_555 1_555
C45 N4 1_555 1_555
H29 C45 1_555 1_555
C46 N3 1_555 1_555
H30 C46 1_555 1_555
C47 N1 1_555 1_555
C48 C47 1_555 1_555
H31 C48 1_555 1_555
C49 C48 1_555 1_555
H32 C49 1_555 1_555
C50 C49 1_555 1_555
C51 C50 1_555 1_555
H33 C51 1_555 1_555
C52 C47 1_555 1_555
H34 C52 1_555 1_555
C53 N3 1_555 1_555
C54 C53 1_555 1_555
H35 C54 1_555 1_555
C55 C54 1_555 1_555
H36 C55 1_555 1_555
C56 C50 1_555 1_555
C57 C56 1_555 1_555
H37 C57 1_555 1_555
C58 C53 1_555 1_555
H38 C58 1_555 1_555
O9 Co1 1_555 1_555
O10 Co2 1_555 1_555
O11 Co2 1_555 1_555
O12 Co2 1_555 1_555
O6 C21 1_555 1_555
C42 C43 1_555 1_555
C45 C46 1_555 1_555
C51 C52 1_555 1_555
C55 C56 1_555 1_555
C57 C58 1_555 1_555
N5 C59 1_555 1_555
N7 C62 1_555 1_555
N9 C62 1_555 1_555
O2 C1 1_555 1_555
O3 C8 1_555 1_555
O4 C8 1_555 1_555
C1 O1 1_555 1_555
C2 C1 1_555 1_555
C3 C2 1_555 1_555
H1 C3 1_555 1_555
C4 C3 1_555 1_555
H2 C4 1_555 1_555
C5 C4 1_555 1_555
C6 C5 1_555 1_555
H3 C6 1_555 1_555
C7 C2 1_555 1_555
H4 C7 1_555 1_555
C8 C9 1_555 1_555
C9 C10 1_555 1_555
C10 H5 1_555 1_555
C11 C10 1_555 1_555
H6 C11 1_555 1_555
C12 C11 1_555 1_555
C13 C12 1_555 1_555
H7 C13 1_555 1_555
C14 C9 1_555 1_555
H8 C14 1_555 1_555
C15 C5 1_555 1_555
C16 C15 1_555 1_555
H9 C16 1_555 1_555
C17 C12 1_555 1_555
C18 C17 1_555 1_555
H10 C18 1_555 1_555
C19 C18 1_555 1_555
H11 C19 1_555 1_555
C20 C15 1_555 1_555
H12 C20 1_555 1_555
C59 N6 1_555 1_555
C60 N6 1_555 1_555
H40 C60 1_555 1_555
C61 N5 1_555 1_555
H41 C61 1_555 1_555
C62 H42 1_555 1_555
C64 N7 1_555 1_555
H44 C64 1_555 1_555
C65 N5 1_555 1_555
C66 C65 1_555 1_555
H45 C66 1_555 1_555
C67 C66 1_555 1_555
H46 C67 1_555 1_555
C68 C67 1_555 1_555
C69 C68 1_555 1_555
H47 C69 1_555 1_555
C70 C65 1_555 1_555
H48 C70 1_555 1_555
C71 N7 1_555 1_555
C72 C71 1_555 1_555
H49 C72 1_555 1_555
C73 C72 1_555 1_555
H50 C73 1_555 1_555
C74 C68 1_555 1_555
C75 C74 1_555 1_555
H51 C75 1_555 1_555
C76 C71 1_555 1_555
H52 C76 1_555 1_555
Co3 O2 1_555 1_555
Co7 O3 1_555 1_555
O4 Co7 1_555 1_555
C6 C7 1_555 1_555
C13 C14 1_555 1_555
C16 C17 1_555 1_555
C19 C20 1_555 1_555
C60 C61 1_555 1_555
C69 C70 1_555 1_555
C73 C74 1_555 1_555
C75 C76 1_555 1_555
H43 C63 1_555 1_555
H43_2 C63_2 1_555 1_555
O10_2 Co5 1_555 1_555
O11_2 Co5 1_555 1_555
Co1_2 N2_2 1_555 1_555
N1_2 C41_2 1_555 1_555
N2_2 C41_2 1_555 1_555
N3_2 C44_2 1_555 1_555
N4_2 C44_2 1_555 1_555
N5_2 C59_2 1_555 1_555
N6_2 Co1_2 1_555 1_555
N7_2 C62_2 1_555 1_555
N8 C62_2 1_555 1_555
O1_2 Co1_2 1_555 1_555
O5_2 Co1_2 1_555 1_555
O6_2 Co1_2 1_555 1_555
O12 C28 1_555 1_555
O8 C28 1_555 1_555
C1_2 O1_2 1_555 1_555
C2_2 C1_2 1_555 1_555
C3_2 C2_2 1_555 1_555
C4_2 C3_2 1_555 1_555
C5_2 C4_2 1_555 1_555
C6_2 C5_2 1_555 1_555
H3_2 C6_2 1_555 1_555
C7_2 C2_2 1_555 1_555
H4_2 C7_2 1_555 1_555
C13_2 C12_2 1_555 1_555
H7_2 C13_2 1_555 1_555
C15_2 C5_2 1_555 1_555
C16_2 C15_2 1_555 1_555
H9_2 C16_2 1_555 1_555
C17_2 C12_2 1_555 1_555
C18_2 C17_2 1_555 1_555
H10_2 C18_2 1_555 1_555
C19_2 C18_2 1_555 1_555
H11_2 C19_2 1_555 1_555
C20_2 C15_2 1_555 1_555
H12_2 C20_2 1_555 1_555
C21_2 O5_2 1_555 1_555
C22_2 C21_2 1_555 1_555
C23_2 C22_2 1_555 1_555
H13_2 C23_2 1_555 1_555
C24_2 C23_2 1_555 1_555
H14_2 C24_2 1_555 1_555
C25 C24_2 1_555 1_555
C26 C25 1_555 1_555
H15 C26 1_555 1_555
C27_2 C22_2 1_555 1_555
H16_2 C27_2 1_555 1_555
C28 C29 1_555 1_555
C29 C30 1_555 1_555
C30 H17_2 1_555 1_555
C31 C30 1_555 1_555
H18 C31 1_555 1_555
C32 C31 1_555 1_555
C33 C32 1_555 1_555
H19 C33 1_555 1_555
C34 C29 1_555 1_555
H20 C34 1_555 1_555
C35 C25 1_555 1_555
C36 C35 1_555 1_555
H21 C36 1_555 1_555
C37 C32 1_555 1_555
C38 C37 1_555 1_555
H22 C38 1_555 1_555
C39 C38 1_555 1_555
H23 C39 1_555 1_555
C40 C35 1_555 1_555
H24 C40 1_555 1_555
C41_2 H25_2 1_555 1_555
C42_2 N2_2 1_555 1_555
H26_2 C42_2 1_555 1_555
C43_2 N1_2 1_555 1_555
H27_2 C43_2 1_555 1_555
C45_2 N4_2 1_555 1_555
H29_2 C45_2 1_555 1_555
C46_2 N3_2 1_555 1_555
H30_2 C46_2 1_555 1_555
C47_2 N1_2 1_555 1_555
C48_2 C47_2 1_555 1_555
H31_2 C48_2 1_555 1_555
C49_2 C48_2 1_555 1_555
H32_2 C49_2 1_555 1_555
C50_2 C49_2 1_555 1_555
C51_2 C50_2 1_555 1_555
H33_2 C51_2 1_555 1_555
C52_2 C47_2 1_555 1_555
H34_2 C52_2 1_555 1_555
C53_2 N3_2 1_555 1_555
C54_2 C53_2 1_555 1_555
H35_2 C54_2 1_555 1_555
C55_2 C54_2 1_555 1_555
H36_2 C55_2 1_555 1_555
C56_2 C50_2 1_555 1_555
C57_2 C56_2 1_555 1_555
H37_2 C57_2 1_555 1_555
C58_2 C53_2 1_555 1_555
H38_2 C58_2 1_555 1_555
C59_2 N6_2 1_555 1_555
H39_2 C59_2 1_555 1_555
C60_2 N6_2 1_555 1_555
H40_2 C60_2 1_555 1_555
C61_2 N5_2 1_555 1_555
H41_2 C61_2 1_555 1_555
C62_2 H42_2 1_555 1_555
C64_2 N7_2 1_555 1_555
H44_2 C64_2 1_555 1_555
C65_2 N5_2 1_555 1_555
C66_2 C65_2 1_555 1_555
H45_2 C66_2 1_555 1_555
C67_2 C66_2 1_555 1_555
H46_2 C67_2 1_555 1_555
C68_2 C67_2 1_555 1_555
C69_2 C68_2 1_555 1_555
H47_2 C69_2 1_555 1_555
C70_2 C65_2 1_555 1_555
H48_2 C70_2 1_555 1_555
C71_2 N7_2 1_555 1_555
C72_2 C71_2 1_555 1_555
H49_2 C72_2 1_555 1_555
C73_2 C72_2 1_555 1_555
H50_2 C73_2 1_555 1_555
C74_2 C68_2 1_555 1_555
C75_2 C74_2 1_555 1_555
H51_2 C75_2 1_555 1_555
C76_2 C71_2 1_555 1_555
H52_2 C76_2 1_555 1_555
O9_2 Co1_2 1_555 1_555
O6_2 C21_2 1_555 1_555
C6_2 C7_2 1_555 1_555
C16_2 C17_2 1_555 1_555
C19_2 C20_2 1_555 1_555
C26 C27_2 1_555 1_555
C33 C34 1_555 1_555
C36 C37 1_555 1_555
C39 C40 1_555 1_555
C42_2 C43_2 1_555 1_555
C45_2 C46_2 1_555 1_555
C51_2 C52_2 1_555 1_555
C55_2 C56_2 1_555 1_555
C57_2 C58_2 1_555 1_555
C60_2 C61_2 1_555 1_555
C69_2 C70_2 1_555 1_555
C73_2 C74_2 1_555 1_555
C75_2 C76_2 1_555 1_555
O3_2 C8_2 1_555 1_555
O4_2 C8_2 1_555 1_555
C8_2 C9_2 1_555 1_555
C9_2 C10_2 1_555 1_555
C10_2 H5_2 1_555 1_555
C11_2 C10_2 1_555 1_555
H6_2 C11_2 1_555 1_555
C14_2 C9_2 1_555 1_555
H8_2 C14_2 1_555 1_555
Co3_2 O2_2 1_555 1_555
Co6 O3_2 1_555 1_555
O4_2 Co6 1_555 1_555
H43_3 C63_3 1_555 1_555
N5_3 C59_3 1_555 1_555
N7_3 C62_3 1_555 1_555
N8_2 C62_3 1_555 1_555
O9 C1_3 1_555 1_555
O10_2 C8_3 1_555 1_555
O11_2 C8_3 1_555 1_555
C1_3 O1_3 1_555 1_555
C2_3 C1_3 1_555 1_555
C3_3 C2_3 1_555 1_555
H1_3 C3_3 1_555 1_555
C4_3 C3_3 1_555 1_555
H2_3 C4_3 1_555 1_555
C5_3 C4_3 1_555 1_555
C6_3 C5_3 1_555 1_555
H3_3 C6_3 1_555 1_555
C7_3 C2_3 1_555 1_555
H4_3 C7_3 1_555 1_555
C8_3 C9_3 1_555 1_555
C9_3 C10_3 1_555 1_555
C10_3 H5_3 1_555 1_555
C11_3 C10_3 1_555 1_555
H6_3 C11_3 1_555 1_555
C12_3 C11_3 1_555 1_555
C13_3 C12_3 1_555 1_555
H7_3 C13_3 1_555 1_555
C14_3 C9_3 1_555 1_555
H8_3 C14_3 1_555 1_555
C15_3 C5_3 1_555 1_555
C16_3 C15_3 1_555 1_555
H9_3 C16_3 1_555 1_555
C17_3 C12_3 1_555 1_555
C18_3 C17_3 1_555 1_555
H10_3 C18_3 1_555 1_555
C19_3 C18_3 1_555 1_555
H11_3 C19_3 1_555 1_555
C20_3 C15_3 1_555 1_555
H12_3 C20_3 1_555 1_555
C59_3 N6_3 1_555 1_555
C60_3 N6_3 1_555 1_555
H40_3 C60_3 1_555 1_555
C61_3 N5_3 1_555 1_555
H41_3 C61_3 1_555 1_555
C62_3 H42_3 1_555 1_555
C64_3 N7_3 1_555 1_555
H44_3 C64_3 1_555 1_555
C65_3 N5_3 1_555 1_555
C66_3 C65_3 1_555 1_555
H45_3 C66_3 1_555 1_555
C67_3 C66_3 1_555 1_555
H46_3 C67_3 1_555 1_555
C68_3 C67_3 1_555 1_555
C69_3 C68_3 1_555 1_555
H47_3 C69_3 1_555 1_555
C70_3 C65_3 1_555 1_555
H48_3 C70_3 1_555 1_555
C71_3 N7_3 1_555 1_555
C72_3 C71_3 1_555 1_555
H49_3 C72_3 1_555 1_555
C73_3 C72_3 1_555 1_555
H50_3 C73_3 1_555 1_555
C74_3 C68_3 1_555 1_555
C75_3 C74_3 1_555 1_555
H51_3 C75_3 1_555 1_555
C76_3 C71_3 1_555 1_555
H52_3 C76_3 1_555 1_555
C6_3 C7_3 1_555 1_555
C13_3 C14_3 1_555 1_555
C16_3 C17_3 1_555 1_555
C19_3 C20_3 1_555 1_555
C60_3 C61_3 1_555 1_555
C69_3 C70_3 1_555 1_555
C73_3 C74_3 1_555 1_555
C75_3 C76_3 1_555 1_555
Co3 N2_3 1_555 1_555
Co6 N4_3 1_555 1_555
N1_3 C41_3 1_555 1_555
N2_3 C41_3 1_555 1_555
N3_3 C44_3 1_555 1_555
N4_3 C44_3 1_555 1_555
O5_3 Co3 1_555 1_555
O6_3 Co3 1_555 1_555
C21_3 O5_3 1_555 1_555
C22_3 C21_3 1_555 1_555
C23_3 C22_3 1_555 1_555
H13_3 C23_3 1_555 1_555
C24_3 C23_3 1_555 1_555
H14_3 C24_3 1_555 1_555
C27_3 C22_3 1_555 1_555
C41_3 H25_3 1_555 1_555
C42_3 N2_3 1_555 1_555
H26_3 C42_3 1_555 1_555
C43_3 N1_3 1_555 1_555
H27_3 C43_3 1_555 1_555
C44_3 H28_3 1_555 1_555
C45_3 N4_3 1_555 1_555
H29_3 C45_3 1_555 1_555
C46_3 N3_3 1_555 1_555
H30_3 C46_3 1_555 1_555
C47_3 N1_3 1_555 1_555
C48_3 C47_3 1_555 1_555
H31_3 C48_3 1_555 1_555
C49_3 C48_3 1_555 1_555
H32_3 C49_3 1_555 1_555
C50_3 C49_3 1_555 1_555
C51_3 C50_3 1_555 1_555
H33_3 C51_3 1_555 1_555
C52_3 C47_3 1_555 1_555
H34_3 C52_3 1_555 1_555
C53_3 N3_3 1_555 1_555
C54_3 C53_3 1_555 1_555
H35_3 C54_3 1_555 1_555
C55_3 C54_3 1_555 1_555
H36_3 C55_3 1_555 1_555
C56_3 C50_3 1_555 1_555
C57_3 C56_3 1_555 1_555
H37_3 C57_3 1_555 1_555
C58_3 C53_3 1_555 1_555
H38_3 C58_3 1_555 1_555
O12_2 Co6 1_555 1_555
O6_3 C21_3 1_555 1_555
C42_3 C43_3 1_555 1_555
C45_3 C46_3 1_555 1_555
C51_3 C52_3 1_555 1_555
C55_3 C56_3 1_555 1_555
C57_3 C58_3 1_555 1_555
O10 C8_4 1_555 1_555
O11 C8_4 1_555 1_555
C8_4 C9_4 1_555 1_555
C9_4 C10_4 1_555 1_555
C10_4 H5_4 1_555 1_555
C11_4 C10_4 1_555 1_555
H6_4 C11_4 1_555 1_555
C14_4 C9_4 1_555 1_555
H8_4 C14_4 1_555 1_555
Co3_2 N2_4 1_555 1_555
N1_4 C41_4 1_555 1_555
N2_4 C41_4 1_555 1_555
N3_4 C44_4 1_555 1_555
N4_4 C44_4 1_555 1_555
N5_4 C59_4 1_555 1_555
N6_4 Co3_2 1_555 1_555
N7_4 C62_4 1_555 1_555
N9_2 C62_4 1_555 1_555
O1_4 Co3_2 1_555 1_555
O5_4 Co3_2 1_555 1_555
O6_4 Co3_2 1_555 1_555
O12_2 C28_2 1_555 1_555
O13 C28_2 1_555 1_555
C1_4 O1_4 1_555 1_555
C2_4 C1_4 1_555 1_555
C3_4 C2_4 1_555 1_555
C4_4 C3_4 1_555 1_555
C5_4 C4_4 1_555 1_555
C6_4 C5_4 1_555 1_555
H3_4 C6_4 1_555 1_555
C7_4 C2_4 1_555 1_555
H4_4 C7_4 1_555 1_555
C13_4 C12_4 1_555 1_555
H7_4 C13_4 1_555 1_555
C15_4 C5_4 1_555 1_555
C16_4 C15_4 1_555 1_555
H9_4 C16_4 1_555 1_555
C17_4 C12_4 1_555 1_555
C18_4 C17_4 1_555 1_555
H10_4 C18_4 1_555 1_555
C19_4 C18_4 1_555 1_555
H11_4 C19_4 1_555 1_555
C20_4 C15_4 1_555 1_555
H12_4 C20_4 1_555 1_555
C21_4 O5_4 1_555 1_555
C22_4 C21_4 1_555 1_555
C23_4 C22_4 1_555 1_555
H13_4 C23_4 1_555 1_555
C24_4 C23_4 1_555 1_555
H14_4 C24_4 1_555 1_555
C25_2 C24_4 1_555 1_555
C26_2 C25_2 1_555 1_555
H15_2 C26_2 1_555 1_555
C27_4 C22_4 1_555 1_555
H16_4 C27_4 1_555 1_555
C28_2 C29_2 1_555 1_555
C29_2 C30_2 1_555 1_555
C30_2 H17_4 1_555 1_555
C31_2 C30_2 1_555 1_555
H18_2 C31_2 1_555 1_555
C32_2 C31_2 1_555 1_555
C33_2 C32_2 1_555 1_555
H19_2 C33_2 1_555 1_555
C34_2 C29_2 1_555 1_555
H20_2 C34_2 1_555 1_555
C35_2 C25_2 1_555 1_555
C36_2 C35_2 1_555 1_555
H21_2 C36_2 1_555 1_555
C37_2 C32_2 1_555 1_555
C38_2 C37_2 1_555 1_555
H22_2 C38_2 1_555 1_555
C39_2 C38_2 1_555 1_555
H23_2 C39_2 1_555 1_555
C40_2 C35_2 1_555 1_555
H24_2 C40_2 1_555 1_555
C41_4 H25_4 1_555 1_555
C42_4 N2_4 1_555 1_555
H26_4 C42_4 1_555 1_555
C43_4 N1_4 1_555 1_555
H27_4 C43_4 1_555 1_555
C45_4 N4_4 1_555 1_555
H29_4 C45_4 1_555 1_555
C46_4 N3_4 1_555 1_555
H30_4 C46_4 1_555 1_555
C47_4 N1_4 1_555 1_555
C48_4 C47_4 1_555 1_555
H31_4 C48_4 1_555 1_555
C49_4 C48_4 1_555 1_555
H32_4 C49_4 1_555 1_555
C50_4 C49_4 1_555 1_555
C51_4 C50_4 1_555 1_555
H33_4 C51_4 1_555 1_555
C52_4 C47_4 1_555 1_555
H34_4 C52_4 1_555 1_555
C53_4 N3_4 1_555 1_555
C54_4 C53_4 1_555 1_555
H35_4 C54_4 1_555 1_555
C55_4 C54_4 1_555 1_555
H36_4 C55_4 1_555 1_555
C56_4 C50_4 1_555 1_555
C57_4 C56_4 1_555 1_555
H37_4 C57_4 1_555 1_555
C58_4 C53_4 1_555 1_555
H38_4 C58_4 1_555 1_555
C59_4 N6_4 1_555 1_555
H39_4 C59_4 1_555 1_555
C60_4 N6_4 1_555 1_555
H40_4 C60_4 1_555 1_555
C61_4 N5_4 1_555 1_555
H41_4 C61_4 1_555 1_555
C62_4 H42_4 1_555 1_555
C64_4 N7_4 1_555 1_555
H44_4 C64_4 1_555 1_555
C65_4 N5_4 1_555 1_555
C66_4 C65_4 1_555 1_555
H45_4 C66_4 1_555 1_555
C67_4 C66_4 1_555 1_555
H46_4 C67_4 1_555 1_555
C68_4 C67_4 1_555 1_555
C69_4 C68_4 1_555 1_555
H47_4 C69_4 1_555 1_555
C70_4 C65_4 1_555 1_555
H48_4 C70_4 1_555 1_555
C71_4 N7_4 1_555 1_555
C72_4 C71_4 1_555 1_555
H49_4 C72_4 1_555 1_555
C73_4 C72_4 1_555 1_555
H50_4 C73_4 1_555 1_555
C74_4 C68_4 1_555 1_555
C75_4 C74_4 1_555 1_555
H51_4 C75_4 1_555 1_555
C76_4 C71_4 1_555 1_555
H52_4 C76_4 1_555 1_555
O6_4 C21_4 1_555 1_555
C6_4 C7_4 1_555 1_555
C16_4 C17_4 1_555 1_555
C19_4 C20_4 1_555 1_555
C26_2 C27_4 1_555 1_555
C33_2 C34_2 1_555 1_555
C36_2 C37_2 1_555 1_555
C39_2 C40_2 1_555 1_555
C42_4 C43_4 1_555 1_555
C45_4 C46_4 1_555 1_555
C51_4 C52_4 1_555 1_555
C55_4 C56_4 1_555 1_555
C57_4 C58_4 1_555 1_555
C60_4 C61_4 1_555 1_555
C69_4 C70_4 1_555 1_555
C73_4 C74_4 1_555 1_555
C75_4 C76_4 1_555 1_555
H43_4 C63_4 1_555 1_555
O7 C28_3 1_555 1_555
O8_2 C28_3 1_555 1_555
C26_3 C25_3 1_555 1_555
C28_3 C29_3 1_555 1_555
C29_3 C30_3 1_555 1_555
C31_3 C30_3 1_555 1_555
H18_3 C31_3 1_555 1_555
C32_3 C31_3 1_555 1_555
C33_3 C32_3 1_555 1_555
C34_3 C29_3 1_555 1_555
H20_3 C34_3 1_555 1_555
C35_3 C25_3 1_555 1_555
C36_3 C35_3 1_555 1_555
H21_3 C36_3 1_555 1_555
C37_3 C32_3 1_555 1_555
C38_3 C37_3 1_555 1_555
H22_3 C38_3 1_555 1_555
C39_3 C38_3 1_555 1_555
C40_3 C35_3 1_555 1_555
H24_3 C40_3 1_555 1_555
C33_3 C34_3 1_555 1_555
C36_3 C37_3 1_555 1_555
C39_3 C40_3 1_555 1_555
O7_2 C28_4 1_555 1_555
O13_2 C28_4 1_555 1_555
C26_4 C25_4 1_555 1_555
C28_4 C29_4 1_555 1_555
C29_4 C30_4 1_555 1_555
C31_4 C30_4 1_555 1_555
H18_4 C31_4 1_555 1_555
C32_4 C31_4 1_555 1_555
C33_4 C32_4 1_555 1_555
C34_4 C29_4 1_555 1_555
H20_4 C34_4 1_555 1_555
C35_4 C25_4 1_555 1_555
C36_4 C35_4 1_555 1_555
H21_4 C36_4 1_555 1_555
C37_4 C32_4 1_555 1_555
C38_4 C37_4 1_555 1_555
H22_4 C38_4 1_555 1_555
C39_4 C38_4 1_555 1_555
C40_4 C35_4 1_555 1_555
H24_4 C40_4 1_555 1_555
C33_4 C34_4 1_555 1_555
C36_4 C37_4 1_555 1_555
C39_4 C40_4 1_555 1_555

#END
