
###############################################################################
#
# This file contains modified crystal structure data generated from the
# MOF subset of the Cambridge Structural Database (CSD) v543 
# hosted by the Cambridge Crystallographic Data Centre (CCDC).
#
# This work is licensed under the Creative Commons
# Attribution-NonCommercial-ShareAlike 4.0 International License.
# To view a copy of this license, visit
# http://creativecommons.org/licenses/by-nc-sa/4.0/
# or send a letter to
# Creative Commons, PO Box 1866, Mountain View, CA 94042, USA.
#
# CIF created using the CSD Python API on 29 September 2022
# The structure has been converted into the P1 space group
# The structure has a 3D framework
# The original CSD entry IJODES is in the monoclinic crystal system
# The framework has been calculated to contain at least 10.0% void space
# The void calculation uses a probe of radius 1.32A, grid spacing 0.4
#
###############################################################################

data_IJODES
_chemical_formula_moiety         '(C70 H66 N22 O36 Zn6)n'
_symmetry_cell_setting           triclinic
_symmetry_space_group_name_H-M   'P 1'
_symmetry_Int_Tables_number      1
_space_group_name_Hall           'P 1'
loop_
_symmetry_equiv_pos_site_id
_symmetry_equiv_pos_as_xyz
1 x,y,z
_cell_length_a                   13.0360(5)
_cell_length_b                   12.2948(5)
_cell_length_c                   18.7055(9)
_cell_angle_alpha                90
_cell_angle_beta                 123.019(3)
_cell_angle_gamma                90
_cell_volume                     2513.81
loop_
_atom_site_label
_atom_site_type_symbol
_atom_site_fract_x
_atom_site_fract_y
_atom_site_fract_z
C8 C 0.0085(6) 0.2916(5) 0.3467(4)
C9 C 0.0189(6) 0.0936(5) 0.3516(4)
C13 C 0.2050(6) 0.1984(6) 0.4328(4)
H10 H 0.2344 0.2618 0.4182
H11 H 0.2391 0.1346 0.4227
C14 C 0.2526(7) 0.2035(7) 0.5276(4)
H12 H 0.2192 0.2662 0.5396
H13 H 0.2300 0.1383 0.5451
C15 C 0.3898(7) 0.2125(6) 0.5738(4)
O3 O 0.4482(5) 0.1447(5) 0.5636(4)
O4 O 0.4414(4) 0.3018(4) 0.6186(3)
O8 O 0.0580(5) 0.3784(4) 0.3719(4)
O9 O 0.0773(5) 0.0111(4) 0.3815(3)
N5 N 0.0721(5) 0.1943(4) 0.3762(3)
Zn7 Zn 0.59993(7) 0.30748(6) 0.62625(4)
Zn12 Zn 0.5000 0.31303(9) 0.7500
C31 C 0.7474(7) 0.2035(7) 0.9724(4)
H28 H 0.7808 0.2662 0.9604
H29 H 0.7700 0.1383 0.9549
C32 C 0.6102(7) 0.2125(6) 0.9262(4)
O12 O 0.5518(5) 0.1447(5) 0.9364(4)
O13 O 0.5586(4) 0.3018(4) 0.8814(3)
Zn6 Zn 0.40007(7) 0.30748(6) 0.87375(4)
C33 C 0.8349(7) 0.0133(5) 0.7568(4)
H30 H 0.8918 0.0639 0.7567
H31 H 0.7672 0.0032 0.6983
C34 C 0.7866(6) 0.0626(5) 0.8075(4)
H32 H 0.8547 0.0849 0.8632
H33 H 0.7399 0.0084 0.8158
C35 C 0.7062(6) 0.1599(5) 0.7613(4)
O14 O 0.6297(4) 0.1899(3) 0.7792(3)
O15 O 0.7209(5) 0.2054(4) 0.7069(3)
C16 C 0.1651(7) 0.0133(5) 0.7432(4)
H14 H 0.1082 0.0639 0.7433
H15 H 0.2328 0.0032 0.8017
C17 C 0.2134(6) 0.0626(5) 0.6925(4)
H16 H 0.1453 0.0849 0.6368
H17 H 0.2601 0.0084 0.6842
C18 C 0.2938(6) 0.1599(5) 0.7387(4)
O5 O 0.3703(4) 0.1899(3) 0.7208(3)
O6 O 0.2791(5) 0.2054(4) 0.7931(3)
C1 C 0.3887(7) 0.4124(6) 0.0170(4)
C2 C 0.4073(7) 0.3876(5) 0.0933(4)
H2 H 0.3982 0.4339 0.1288
C3 C 0.4474(7) 0.2433(5) 0.0420(4)
H3 H 0.4706 0.1734 0.0375
C4 C 0.4707(6) 0.2159(5) 0.1818(4)
C5 C 0.4664(6) 0.1048(6) 0.1770(4)
H4 H 0.4416 0.0692 0.1262
C6 C 0.5000 0.0472(8) 0.2500
N2 N 0.4425(5) 0.2794(4) 0.1084(3)
N3 N 0.5000 0.2713(6) 0.2500
C19 C 0.6113(7) 0.4124(6) 0.4830(4)
H18 H 0.6374 0.4795 0.5102
C20 C 0.5927(7) 0.3876(5) 0.4067(4)
H19 H 0.6018 0.4339 0.3712
C21 C 0.5526(7) 0.2433(5) 0.4580(4)
H20 H 0.5294 0.1734 0.4625
C22 C 0.5293(6) 0.2159(5) 0.3182(4)
C23 C 0.5336(6) 0.1048(6) 0.3230(4)
H21 H 0.5584 0.0692 0.3738
N7 N 0.5848(5) 0.3200(4) 0.5150(3)
N8 N 0.5575(5) 0.2794(4) 0.3916(3)
C24 C 0.8231(6) 0.8143(5) 0.7567(4)
C27 C 0.8163(7) 0.6179(5) 0.7458(5)
H22 H 0.7545 0.6316 0.6862
H23 H 0.8705 0.5619 0.7482
C28 C 0.7550(6) 0.5771(5) 0.7892(4)
H24 H 0.8170 0.5594 0.8480
H25 H 0.7041 0.6344 0.7895
C29 C 0.6773(6) 0.4780(5) 0.7461(4)
O10 O 0.6262(4) 0.4328(3) 0.7783(3)
O11 O 0.6705(5) 0.4479(4) 0.6793(3)
O16 O 0.7150(5) 0.8192(4) 0.7062(3)
N9 N 0.8866(5) 0.7172(4) 0.7841(3)
N11 N 0.8962(5) 0.9093(4) 0.7908(3)
H1 H 0.3626 0.4795 0.9898
C7 C 0.1769(6) 0.8143(5) 0.7433(4)
C10 C 0.1837(7) 0.6179(5) 0.7542(5)
H6 H 0.2455 0.6316 0.8138
H7 H 0.1295 0.5619 0.7518
C11 C 0.2450(6) 0.5771(5) 0.7108(4)
H8 H 0.1830 0.5594 0.6520
H9 H 0.2959 0.6344 0.7105
C12 C 0.3227(6) 0.4780(5) 0.7539(4)
O1 O 0.3738(4) 0.4328(3) 0.7217(3)
O2 O 0.3295(5) 0.4479(4) 0.8207(3)
O7 O 0.2850(5) 0.8192(4) 0.7938(3)
N1 N 0.4152(5) 0.3200(4) 0.9850(3)
N4 N 0.1134(5) 0.7172(4) 0.7159(3)
N6 N 0.1038(5) 0.9093(4) 0.7092(3)
H5 H 0.5000 0.0285 0.7500
Zn1 Zn 0.59993(7) 0.69252(6) 0.12625(4)
Zn2 Zn 0.5000 0.68697(9) 0.2500
H1_2 H 0.6374 0.5205 0.0102
C7_2 C 0.8231(6) 0.1857(5) 0.2567(4)
C10_2 C 0.8163(7) 0.3821(5) 0.2458(5)
H6_2 H 0.7545 0.3684 0.1862
H7_2 H 0.8705 0.4381 0.2482
C11_2 C 0.7550(6) 0.4229(5) 0.2892(4)
H8_2 H 0.8170 0.4406 0.3480
H9_2 H 0.7041 0.3656 0.2895
C12_2 C 0.6773(6) 0.5220(5) 0.2461(4)
O1_2 O 0.6262(4) 0.5672(3) 0.2783(3)
O2_2 O 0.6705(5) 0.5521(4) 0.1793(3)
O7_2 O 0.7150(5) 0.1808(4) 0.2062(3)
N1_2 N 0.5848(5) 0.6800(4) 0.0150(3)
N4_2 N 0.8866(5) 0.2828(4) 0.2841(3)
N6_2 N 0.8962(5) 0.0907(4) 0.2908(3)
O19 O 0.3738(4) 0.5672(3) 0.2217(3)
O21 O 0.5586(4) 0.6982(4) 0.3814(3)
O22 O 0.4414(4) 0.6982(4) 0.1186(3)
O23 O 0.6297(4) 0.8101(3) 0.2792(3)
O24 O 0.3703(4) 0.8101(3) 0.2208(3)
O25 O 0.7209(5) 0.7946(4) 0.2069(3)
C1_2 C 0.6113(7) 0.5876(6) 0.9830(4)
C2_2 C 0.5927(7) 0.6124(5) 0.9067(4)
H2_2 H 0.6018 0.5661 0.8712
C3_2 C 0.5526(7) 0.7567(5) 0.9580(4)
H3_2 H 0.5294 0.8266 0.9625
C4_2 C 0.5293(6) 0.7841(5) 0.8182(4)
C5_2 C 0.5336(6) 0.8952(6) 0.8230(4)
H4_2 H 0.5584 0.9308 0.8738
C6_2 C 0.5000 0.9528(8) 0.7500
N2_2 N 0.5575(5) 0.7206(4) 0.8916(3)
N3_2 N 0.5000 0.7287(6) 0.7500
C19_2 C 0.3887(7) 0.5876(6) 0.5170(4)
H18_2 H 0.3626 0.5205 0.4898
C20_2 C 0.4073(7) 0.6124(5) 0.5933(4)
H19_2 H 0.3982 0.5661 0.6288
C21_2 C 0.4474(7) 0.7567(5) 0.5420(4)
H20_2 H 0.4706 0.8266 0.5375
C22_2 C 0.4707(6) 0.7841(5) 0.6818(4)
C23_2 C 0.4664(6) 0.8952(6) 0.6770(4)
H21_2 H 0.4416 0.9308 0.6262
N7_2 N 0.4152(5) 0.6800(4) 0.4850(3)
N8_2 N 0.4425(5) 0.7206(4) 0.6084(3)
Zn3 Zn 0.40007(7) 0.69252(6) 0.37375(4)
C24_2 C 0.1769(6) 0.1857(5) 0.2433(4)
C27_2 C 0.1837(7) 0.3821(5) 0.2542(5)
H22_2 H 0.2455 0.3684 0.3138
H23_2 H 0.1295 0.4381 0.2518
C28_2 C 0.2450(6) 0.4229(5) 0.2108(4)
H24_2 H 0.1830 0.4406 0.1520
H25_2 H 0.2959 0.3656 0.2105
C29_2 C 0.3227(6) 0.5220(5) 0.2539(4)
O11_2 O 0.3295(5) 0.5521(4) 0.3207(3)
O16_2 O 0.2850(5) 0.1808(4) 0.2938(3)
N9_2 N 0.1134(5) 0.2828(4) 0.2159(3)
N11_2 N 0.1038(5) 0.0907(4) 0.2092(3)
O26 O 0.2791(5) 0.7946(4) 0.2931(3)
C16_2 C 0.8349(7) 0.9867(5) 0.2568(4)
H14_2 H 0.8918 0.9361 0.2567
H15_2 H 0.7672 0.9968 0.1983
C17_2 C 0.7866(6) 0.9374(5) 0.3075(4)
H16_2 H 0.8547 0.9151 0.3632
H17_2 H 0.7399 0.9916 0.3158
C18_2 C 0.7062(6) 0.8401(5) 0.2613(4)
C33_2 C 0.1651(7) 0.9867(5) 0.2432(4)
H30_2 H 0.1082 0.9361 0.2433
H31_2 H 0.2328 0.9968 0.3017
C34_2 C 0.2134(6) 0.9374(5) 0.1925(4)
H32_2 H 0.1453 0.9151 0.1368
H33_2 H 0.2601 0.9916 0.1842
C35_2 C 0.2938(6) 0.8401(5) 0.2387(4)
C31_2 C 0.2526(7) 0.7965(7) 0.0276(4)
H28_2 H 0.2192 0.7338 0.0396
H29_2 H 0.2300 0.8617 0.0451
C32_2 C 0.3898(7) 0.7875(6) 0.0738(4)
O12_2 O 0.4482(5) 0.8553(5) 0.0636(4)
C8_2 C 0.9915(6) 0.7084(5) 0.6533(4)
C9_2 C 0.9811(6) 0.9064(5) 0.6484(4)
C13_2 C 0.7950(6) 0.8016(6) 0.5672(4)
H10_2 H 0.7656 0.7382 0.5818
H11_2 H 0.7609 0.8654 0.5773
C14_2 C 0.7474(7) 0.7965(7) 0.4724(4)
H12_2 H 0.7808 0.7338 0.4604
H13_2 H 0.7700 0.8617 0.4549
C15_2 C 0.6102(7) 0.7875(6) 0.4262(4)
O3_2 O 0.5518(5) 0.8553(5) 0.4364(4)
O8_2 O 0.9420(5) 0.6216(4) 0.6281(4)
O9_2 O 0.9227(5) 0.9889(4) 0.6185(3)
N5_2 N 0.9279(5) 0.8057(4) 0.6238(3)
C25 C 0.9915(6) 0.2916(5) 0.1533(4)
C26 C 0.9811(6) 0.0936(5) 0.1484(4)
C30 C 0.7950(6) 0.1984(6) 0.0672(4)
H26 H 0.7656 0.2618 0.0818
H27 H 0.7609 0.1346 0.0773
O17 O 0.9420(5) 0.3784(4) 0.1281(4)
O18 O 0.9227(5) 0.0111(4) 0.1185(3)
N10 N 0.9279(5) 0.1943(4) 0.1238(3)
C25_2 C 0.0085(6) 0.7084(5) 0.8467(4)
C26_2 C 0.0189(6) 0.9064(5) 0.8516(4)
C30_2 C 0.2050(6) 0.8016(6) 0.9328(4)
H26_2 H 0.2344 0.7382 0.9182
H27_2 H 0.2391 0.8654 0.9227
O17_2 O 0.0580(5) 0.6216(4) 0.8719(4)
O18_2 O 0.0773(5) 0.9889(4) 0.8815(3)
N10_2 N 0.0721(5) 0.8057(4) 0.8762(3)
H5_2 H 0.5000 0.9715 0.2500
loop_
_geom_bond_atom_site_label_1
_geom_bond_atom_site_label_2
_geom_bond_site_symmetry_1
_geom_bond_site_symmetry_2
C8 O8 1_555 1_555
C9 O9 1_555 1_555
C13 H10 1_555 1_555
H11 C13 1_555 1_555
C14 C13 1_555 1_555
H12 C14 1_555 1_555
H13 C14 1_555 1_555
C15 C14 1_555 1_555
O3 C15 1_555 1_555
O4 C15 1_555 1_555
N5 C8 1_555 1_555
Zn7 O4 1_555 1_555
Zn12 O4 1_555 1_555
C9 N5 1_555 1_555
C13 N5 1_555 1_555
H28 C31 1_555 1_555
H29 C31 1_555 1_555
C32 C31 1_555 1_555
O12 C32 1_555 1_555
O13 C32 1_555 1_555
Zn6 O13 1_555 1_555
Zn12 O13 1_555 1_555
C33 H30 1_555 1_555
H31 C33 1_555 1_555
C34 C33 1_555 1_555
H32 C34 1_555 1_555
H33 C34 1_555 1_555
C35 C34 1_555 1_555
O14 C35 1_555 1_555
O15 C35 1_555 1_555
Zn7 O15 1_555 1_555
Zn12 O14 1_555 1_555
C16 H14 1_555 1_555
H15 C16 1_555 1_555
C17 C16 1_555 1_555
H16 C17 1_555 1_555
H17 C17 1_555 1_555
C18 C17 1_555 1_555
O5 C18 1_555 1_555
O6 C18 1_555 1_555
Zn6 O6 1_555 1_555
Zn12 O5 1_555 1_555
C2 C1 1_555 1_555
H2 C2 1_555 1_555
C3 H3 1_555 1_555
C4 C5 1_555 1_555
C5 H4 1_555 1_555
C6 C5 1_555 1_555
N2 C2 1_555 1_555
N3 C4 1_555 1_555
C19 H18 1_555 1_555
C20 C19 1_555 1_555
H19 C20 1_555 1_555
C21 H20 1_555 1_555
C22 N3 1_555 1_555
C23 C6 1_555 1_555
H21 C23 1_555 1_555
N7 C19 1_555 1_555
N8 C20 1_555 1_555
Zn7 N7 1_555 1_555
C24 O16 1_555 1_555
C27 H22 1_555 1_555
H23 C27 1_555 1_555
C28 C27 1_555 1_555
H24 C28 1_555 1_555
H25 C28 1_555 1_555
C29 C28 1_555 1_555
O10 C29 1_555 1_555
O11 Zn7 1_555 1_555
N9 C24 1_555 1_555
N11 C24 1_555 1_555
Zn12 O10 1_555 1_555
C3 N2 1_555 1_555
C4 N2 1_555 1_555
C21 N7 1_555 1_555
C21 N8 1_555 1_555
C22 C23 1_555 1_555
C22 N8 1_555 1_555
C27 N9 1_555 1_555
C29 O11 1_555 1_555
Zn6 O2 1_555 1_555
Zn12 O1 1_555 1_555
C7 O7 1_555 1_555
C10 H6 1_555 1_555
H7 C10 1_555 1_555
C11 C10 1_555 1_555
H8 C11 1_555 1_555
H9 C11 1_555 1_555
C12 C11 1_555 1_555
O1 C12 1_555 1_555
O2 C12 1_555 1_555
N1 Zn6 1_555 1_555
N4 C7 1_555 1_555
N6 C7 1_555 1_555
C10 N4 1_555 1_555
Zn1 O2_2 1_555 1_555
Zn2 O1_2 1_555 1_555
C7_2 O7_2 1_555 1_555
C10_2 H6_2 1_555 1_555
H7_2 C10_2 1_555 1_555
C11_2 C10_2 1_555 1_555
H8_2 C11_2 1_555 1_555
H9_2 C11_2 1_555 1_555
C12_2 C11_2 1_555 1_555
O1_2 C12_2 1_555 1_555
O2_2 C12_2 1_555 1_555
N1_2 Zn1 1_555 1_555
N4_2 C7_2 1_555 1_555
N6_2 C7_2 1_555 1_555
O19 Zn2 1_555 1_555
O21 Zn2 1_555 1_555
O22 Zn1 1_555 1_555
O23 Zn2 1_555 1_555
O24 Zn2 1_555 1_555
O25 Zn1 1_555 1_555
Zn2 O22 1_555 1_555
C10_2 N4_2 1_555 1_555
C2_2 C1_2 1_555 1_555
H2_2 C2_2 1_555 1_555
C3_2 H3_2 1_555 1_555
C4_2 C5_2 1_555 1_555
C5_2 H4_2 1_555 1_555
C6_2 C5_2 1_555 1_555
N2_2 C2_2 1_555 1_555
N3_2 C4_2 1_555 1_555
C19_2 H18_2 1_555 1_555
C20_2 C19_2 1_555 1_555
H19_2 C20_2 1_555 1_555
C21_2 H20_2 1_555 1_555
C22_2 N3_2 1_555 1_555
C23_2 C6_2 1_555 1_555
H21_2 C23_2 1_555 1_555
N7_2 C19_2 1_555 1_555
N8_2 C20_2 1_555 1_555
Zn3 N7_2 1_555 1_555
C24_2 O16_2 1_555 1_555
C27_2 H22_2 1_555 1_555
H23_2 C27_2 1_555 1_555
C28_2 C27_2 1_555 1_555
H24_2 C28_2 1_555 1_555
H25_2 C28_2 1_555 1_555
C29_2 C28_2 1_555 1_555
O19 C29_2 1_555 1_555
O11_2 Zn3 1_555 1_555
N9_2 C24_2 1_555 1_555
N11_2 C24_2 1_555 1_555
O21 Zn3 1_555 1_555
O26 Zn3 1_555 1_555
C3_2 N2_2 1_555 1_555
C4_2 N2_2 1_555 1_555
C21_2 N7_2 1_555 1_555
C21_2 N8_2 1_555 1_555
C22_2 C23_2 1_555 1_555
C22_2 N8_2 1_555 1_555
C27_2 N9_2 1_555 1_555
C29_2 O11_2 1_555 1_555
C16_2 H14_2 1_555 1_555
H15_2 C16_2 1_555 1_555
C17_2 C16_2 1_555 1_555
H16_2 C17_2 1_555 1_555
H17_2 C17_2 1_555 1_555
C18_2 C17_2 1_555 1_555
O23 C18_2 1_555 1_555
O25 C18_2 1_555 1_555
C33_2 H30_2 1_555 1_555
H31_2 C33_2 1_555 1_555
C34_2 C33_2 1_555 1_555
H32_2 C34_2 1_555 1_555
H33_2 C34_2 1_555 1_555
C35_2 C34_2 1_555 1_555
O24 C35_2 1_555 1_555
O26 C35_2 1_555 1_555
H28_2 C31_2 1_555 1_555
H29_2 C31_2 1_555 1_555
C32_2 C31_2 1_555 1_555
O12_2 C32_2 1_555 1_555
O22 C32_2 1_555 1_555
C8_2 O8_2 1_555 1_555
C9_2 O9_2 1_555 1_555
C13_2 H10_2 1_555 1_555
H11_2 C13_2 1_555 1_555
C14_2 C13_2 1_555 1_555
H12_2 C14_2 1_555 1_555
H13_2 C14_2 1_555 1_555
C15_2 C14_2 1_555 1_555
O3_2 C15_2 1_555 1_555
O21 C15_2 1_555 1_555
N5_2 C8_2 1_555 1_555
C9_2 N5_2 1_555 1_555
C13_2 N5_2 1_555 1_555
C25 O17 1_555 1_555
C26 O18 1_555 1_555
C30 H26 1_555 1_555
H27 C30 1_555 1_555
N10 C25 1_555 1_555
C26 N10 1_555 1_555
C30 N10 1_555 1_555
C25_2 O17_2 1_555 1_555
C26_2 O18_2 1_555 1_555
C30_2 H26_2 1_555 1_555
H27_2 C30_2 1_555 1_555
N10_2 C25_2 1_555 1_555
C26_2 N10_2 1_555 1_555
C30_2 N10_2 1_555 1_555

#END
