
###############################################################################
#
# This file contains modified crystal structure data generated from the
# MOF subset of the Cambridge Structural Database (CSD) v543 
# hosted by the Cambridge Crystallographic Data Centre (CCDC).
#
# This work is licensed under the Creative Commons
# Attribution-NonCommercial-ShareAlike 4.0 International License.
# To view a copy of this license, visit
# http://creativecommons.org/licenses/by-nc-sa/4.0/
# or send a letter to
# Creative Commons, PO Box 1866, Mountain View, CA 94042, USA.
#
# CIF created using the CSD Python API on 29 September 2022
# The structure has been converted into the P1 space group
# The structure has a 3D framework
# The original CSD entry IJOMOJ04 is in the monoclinic crystal system
# The framework has been calculated to contain at least 10.0% void space
# The void calculation uses a probe of radius 1.32A, grid spacing 0.4
#
###############################################################################

data_IJOMOJ04
_chemical_formula_moiety         '(C24 H24 Mn21 O48)n'
_symmetry_cell_setting           triclinic
_symmetry_space_group_name_H-M   'P 1'
_symmetry_Int_Tables_number      1
_space_group_name_Hall           'P 1'
loop_
_symmetry_equiv_pos_site_id
_symmetry_equiv_pos_as_xyz
1 x,y,z
_cell_length_a                   11.7293(13)
_cell_length_b                   10.1923(11)
_cell_length_c                   18.7417(18)
_cell_angle_alpha                90
_cell_angle_beta                 127.178(3)
_cell_angle_gamma                90
_cell_volume                     1785.18
loop_
_atom_site_label
_atom_site_type_symbol
_atom_site_fract_x
_atom_site_fract_y
_atom_site_fract_z
Mn13 Mn 0.0000 0.0000 0.0000
Mn13_2 Mn 0.0000 0.0000 1.0000
Mn13_3 Mn 0.0000 1.0000 0.0000
Mn14 Mn 0.0000 0.5000 0.5000
Mn13_4 Mn 0.0000 1.0000 1.0000
Mn1 Mn 0.37402(3) 0.07946(3) 0.13103(2)
Mn3 Mn 0.5000 0.0000 0.0000
O1 O 0.44272(14) 0.20093(14) 0.24796(10)
O2 O 0.54968(16) 0.06624(15) 0.36606(11)
O4 O 0.67779(16) 0.00309(17) 0.14110(11)
O5 O 0.45256(15) 0.25796(14) 0.10686(10)
O6 O 0.48107(18) 0.21084(16) 0.00195(12)
O11 O 0.16067(14) 0.15884(14) 0.06136(10)
O12 O 0.20088(15) 0.37288(15) 0.09375(11)
C1 C 0.5001(2) 0.1737(2) 0.32922(16)
C3 C 0.4704(3) 0.2874(2) 0.04858(17)
C6 C 0.1213(2) 0.2772(2) 0.05467(17)
H1 H 0.501(2) 0.245(2) 0.3648(18)
H3 H 0.477(2) 0.376(2) 0.0413(16)
H6 H 0.014(2) 0.297(2) 0.0106(17)
Mn9 Mn 0.42651(3) 0.39331(3) 0.18675(2)
Mn13_5 Mn 1.0000 0.0000 0.0000
O28 O 0.88178(16) 0.10612(16) 0.03521(12)
C11 C 0.7748(2) 0.1005(2) 0.03206(17)
H11 H 0.774(2) 0.156(2) 0.0739(17)
Mn3_2 Mn 0.5000 0.0000 1.0000
Mn8 Mn 0.42651(3) 0.10669(3) 0.68675(2)
Mn13_6 Mn 1.0000 0.0000 1.0000
O15 O 0.44272(14) 0.29907(14) 0.74796(10)
O18 O 0.40991(14) 0.00669(14) 0.78197(10)
O22 O 0.45256(15) 0.24204(14) 0.60686(10)
O25 O 0.65462(14) 0.08110(14) 0.80369(10)
O27 O 0.66475(14) 0.02887(15) 0.97950(10)
O34 O 0.20088(15) 0.12712(15) 0.59375(11)
C8 C 0.3107(2) 0.0128(2) 0.79008(17)
H8 H 0.221(2) 0.034(2) 0.7363(17)
Mn2 Mn 0.57349(3) 0.89331(3) 0.31325(2)
Mn3_3 Mn 0.5000 1.0000 0.0000
O3 O 0.59009(14) 0.99331(14) 0.21803(10)
O7 O 0.34538(14) 0.91890(14) 0.19631(10)
O8 O 0.11038(15) 0.89023(17) 0.12284(12)
O9 O 0.33525(14) 0.97113(15) 0.02050(10)
C2 C 0.6893(2) 0.9872(2) 0.20992(17)
C4 C 0.2365(2) 0.8671(3) 0.18452(18)
H2 H 0.779(2) 0.966(2) 0.2637(17)
H4 H 0.259(2) 0.800(3) 0.2280(18)
Mn6 Mn 0.62598(3) 0.57946(3) 0.36897(2)
Mn13_7 Mn 1.0000 1.0000 0.0000
Mn14_2 Mn 1.0000 0.5000 0.5000
O13 O 0.55728(14) 0.70093(14) 0.25204(10)
O16 O 0.45032(16) 0.56624(15) 0.13394(11)
O21 O 0.54744(15) 0.75796(14) 0.39314(10)
O30 O 0.83933(14) 0.65884(14) 0.43864(10)
O33 O 0.79912(15) 0.87288(15) 0.40625(11)
C7 C 0.4999(2) 0.6737(2) 0.17078(16)
C12 C 0.8787(2) 0.7772(2) 0.44533(17)
H7 H 0.499(2) 0.745(2) 0.1352(18)
H12 H 0.986(2) 0.797(2) 0.4894(17)
Mn3_4 Mn 0.5000 1.0000 1.0000
O10 O 0.11822(16) 0.89388(16) 0.96479(12)
C5 C 0.2252(2) 0.8995(2) 0.96794(17)
H5 H 0.226(2) 0.844(2) 0.9261(17)
Mn5 Mn 0.62598(3) 0.92054(3) 0.86897(2)
Mn10 Mn 0.57349(3) 0.60669(3) 0.81325(2)
Mn13_8 Mn 1.0000 1.0000 1.0000
O14 O 0.55728(14) 0.79907(14) 0.75204(10)
O17 O 0.45032(16) 0.93376(15) 0.63394(11)
O19 O 0.32221(16) 0.99691(17) 0.85890(11)
O20 O 0.54744(15) 0.74204(14) 0.89314(10)
O23 O 0.51893(18) 0.78916(16) 0.99805(12)
O32 O 0.83933(14) 0.84116(14) 0.93864(10)
C9 C 0.5296(3) 0.7126(2) 0.95142(17)
H9 H 0.523(2) 0.624(2) 0.9587(16)
O26 O 0.88962(15) 0.10977(17) 0.87716(12)
C10 C 0.7635(2) 0.1329(3) 0.81548(18)
H10 H 0.741(2) 0.200(3) 0.7720(18)
Mn7 Mn 0.37402(3) 0.42054(3) 0.63103(2)
O24 O 0.34538(14) 0.58110(14) 0.69631(10)
O26_2 O 0.11038(15) 0.60977(17) 0.62284(12)
O29 O 0.11822(16) 0.60612(16) 0.46479(12)
O31 O 0.16067(14) 0.34116(14) 0.56136(10)
C10_2 C 0.2365(2) 0.6329(3) 0.68452(18)
H10_2 H 0.259(2) 0.700(3) 0.7280(18)
Mn3_5 Mn 0.5000 0.5000 0.5000
O3_2 O 0.40991(14) 0.49331(14) 0.28197(10)
O4_2 O 0.32221(16) 0.50309(17) 0.35890(11)
O6_2 O 0.51893(18) 0.71084(16) 0.49805(12)
O7_2 O 0.65462(14) 0.41890(14) 0.30369(10)
O8_2 O 0.88962(15) 0.39023(17) 0.37716(12)
O9_2 O 0.66475(14) 0.47113(15) 0.47950(10)
O10_2 O 0.88178(16) 0.39388(16) 0.53521(12)
C2_2 C 0.3107(2) 0.4872(2) 0.29008(17)
C3_2 C 0.5296(3) 0.7874(2) 0.45142(17)
C4_2 C 0.7635(2) 0.3671(3) 0.31548(18)
C5_2 C 0.7748(2) 0.3995(2) 0.53206(17)
H2_2 H 0.221(2) 0.466(2) 0.2363(17)
H3_2 H 0.523(2) 0.876(2) 0.4587(16)
H4_2 H 0.741(2) 0.300(3) 0.2720(18)
H5_2 H 0.774(2) 0.344(2) 0.5739(17)
O17_2 O 0.54968(16) 0.43376(15) 0.86606(11)
O18_2 O 0.59009(14) 0.50669(14) 0.71803(10)
O19_2 O 0.67779(16) 0.49691(17) 0.64110(11)
O23_2 O 0.48107(18) 0.28916(16) 0.50195(12)
O27_2 O 0.33525(14) 0.52887(15) 0.52050(10)
O34_2 O 0.79912(15) 0.62712(15) 0.90625(11)
C8_2 C 0.6893(2) 0.5128(2) 0.70992(17)
C9_2 C 0.4704(3) 0.2126(2) 0.54858(17)
C11_2 C 0.2252(2) 0.6005(2) 0.46794(17)
H8_2 H 0.779(2) 0.534(2) 0.7637(17)
H9_2 H 0.477(2) 0.124(2) 0.5413(16)
H11_2 H 0.226(2) 0.656(2) 0.4261(17)
C7_2 C 0.5001(2) 0.3263(2) 0.82922(16)
C12_2 C 0.1213(2) 0.2228(2) 0.55467(17)
H7_2 H 0.501(2) 0.255(2) 0.8648(18)
H12_2 H 0.014(2) 0.203(2) 0.5106(17)
C1_2 C 0.4999(2) 0.8263(2) 0.67078(16)
C6_2 C 0.8787(2) 0.7228(2) 0.94533(17)
H1_2 H 0.499(2) 0.755(2) 0.6352(18)
H6_2 H 0.986(2) 0.703(2) 0.9894(17)
loop_
_geom_bond_atom_site_label_1
_geom_bond_atom_site_label_2
_geom_bond_site_symmetry_1
_geom_bond_site_symmetry_2
Mn1 O1 1_555 1_555
Mn3 O4 1_555 1_555
O1 C1 1_555 1_555
O2 C1 1_555 1_555
O5 Mn1 1_555 1_555
O6 Mn3 1_555 1_555
O11 Mn1 1_555 1_555
O12 C6 1_555 1_555
C1 H1 1_555 1_555
C3 O5 1_555 1_555
C6 O11 1_555 1_555
H3 C3 1_555 1_555
H6 C6 1_555 1_555
Mn9 O1 1_555 1_555
Mn13_5 O28 1_555 1_555
O28 C11 1_555 1_555
H11 C11 1_555 1_555
Mn13 O11 1_555 1_555
O5 Mn9 1_555 1_555
O6 C3 1_555 1_555
O12 Mn9 1_555 1_555
Mn8 O15 1_555 1_555
O22 Mn8 1_555 1_555
O27 Mn3_2 1_555 1_555
O34 Mn8 1_555 1_555
C8 O18 1_555 1_555
H8 C8 1_555 1_555
Mn8 O18 1_555 1_555
Mn8 O25 1_555 1_555
Mn13_3 O8 1_555 1_555
O8 C4 1_555 1_555
C2 O3 1_555 1_555
C4 O7 1_555 1_555
H2 C2 1_555 1_555
H4 C4 1_555 1_555
Mn6 O13 1_555 1_555
Mn9 O16 1_555 1_555
Mn14_2 O30 1_555 1_555
O13 Mn2 1_555 1_555
O16 C7 1_555 1_555
O21 Mn2 1_555 1_555
O30 Mn6 1_555 1_555
O33 Mn2 1_555 1_555
C7 O13 1_555 1_555
C12 O30 1_555 1_555
H7 C7 1_555 1_555
H12 C12 1_555 1_555
Mn2 O3 1_555 1_555
Mn2 O7 1_555 1_555
Mn3_3 O9 1_555 1_555
Mn6 O21 1_555 1_555
O33 C12 1_555 1_555
O10 Mn13_4 1_555 1_555
H5 C5 1_555 1_555
Mn5 O14 1_555 1_555
Mn10 O14 1_555 1_555
O19 Mn3_4 1_555 1_555
O20 Mn5 1_555 1_555
O23 Mn3_4 1_555 1_555
O32 Mn5 1_555 1_555
C9 O20 1_555 1_555
H9 C9 1_555 1_555
O10 C5 1_555 1_555
Mn10 O20 1_555 1_555
Mn13_8 O32 1_555 1_555
O23 C9 1_555 1_555
O25 C10 1_555 1_555
O26 Mn13_6 1_555 1_555
C10 O26 1_555 1_555
H10 C10 1_555 1_555
Mn7 O24 1_555 1_555
Mn10 O24 1_555 1_555
O24 C10_2 1_555 1_555
O26_2 Mn14 1_555 1_555
O29 Mn14 1_555 1_555
O31 Mn14 1_555 1_555
C10_2 O26_2 1_555 1_555
H10_2 C10_2 1_555 1_555
Mn7 O31 1_555 1_555
Mn3_5 O4_2 1_555 1_555
Mn14_2 O8_2 1_555 1_555
O3_2 Mn6 1_555 1_555
O4_2 C2_2 1_555 1_555
O6_2 Mn3_5 1_555 1_555
O7_2 Mn6 1_555 1_555
O8_2 C4_2 1_555 1_555
O9_2 Mn6 1_555 1_555
O10_2 Mn14_2 1_555 1_555
C2_2 O3_2 1_555 1_555
C3_2 O21 1_555 1_555
C4_2 O7_2 1_555 1_555
C5_2 O9_2 1_555 1_555
H2_2 C2_2 1_555 1_555
H3_2 C3_2 1_555 1_555
H4_2 C4_2 1_555 1_555
H5_2 C5_2 1_555 1_555
Mn7 O15 1_555 1_555
O17_2 Mn10 1_555 1_555
O18_2 Mn7 1_555 1_555
O19_2 Mn3_5 1_555 1_555
O22 Mn7 1_555 1_555
O23_2 Mn3_5 1_555 1_555
O27_2 Mn3_5 1_555 1_555
O29 C11_2 1_555 1_555
O34_2 Mn10 1_555 1_555
C8_2 O18_2 1_555 1_555
C9_2 O22 1_555 1_555
C11_2 O27_2 1_555 1_555
H8_2 C8_2 1_555 1_555
H9_2 C9_2 1_555 1_555
H11_2 C11_2 1_555 1_555
Mn9 O3_2 1_555 1_555
Mn9 O7_2 1_555 1_555
Mn3_5 O9_2 1_555 1_555
O6_2 C3_2 1_555 1_555
O10_2 C5_2 1_555 1_555
Mn7 O27_2 1_555 1_555
Mn10 O18_2 1_555 1_555
O19_2 C8_2 1_555 1_555
O23_2 C9_2 1_555 1_555
O17_2 C7_2 1_555 1_555
C7_2 O15 1_555 1_555
C12_2 O31 1_555 1_555
H7_2 C7_2 1_555 1_555
H12_2 C12_2 1_555 1_555
O34 C12_2 1_555 1_555
O14 C1_2 1_555 1_555
O17 C1_2 1_555 1_555
O34_2 C6_2 1_555 1_555
C1_2 H1_2 1_555 1_555
C6_2 O32 1_555 1_555
H6_2 C6_2 1_555 1_555

#END
