
###############################################################################
#
# This file contains modified crystal structure data generated from the
# MOF subset of the Cambridge Structural Database (CSD) v543 
# hosted by the Cambridge Crystallographic Data Centre (CCDC).
#
# This work is licensed under the Creative Commons
# Attribution-NonCommercial-ShareAlike 4.0 International License.
# To view a copy of this license, visit
# http://creativecommons.org/licenses/by-nc-sa/4.0/
# or send a letter to
# Creative Commons, PO Box 1866, Mountain View, CA 94042, USA.
#
# CIF created using the CSD Python API on 29 September 2022
# The structure has been converted into the P1 space group
# The structure has a 3D framework
# The original CSD entry IJOMOJ07 is in the monoclinic crystal system
# The framework has been calculated to contain at least 10.0% void space
# The void calculation uses a probe of radius 1.32A, grid spacing 0.4
#
###############################################################################

data_IJOMOJ07
_chemical_formula_moiety         '(C24 H24 Mn23 O48)n'
_symmetry_cell_setting           triclinic
_symmetry_space_group_name_H-M   'P 1'
_symmetry_Int_Tables_number      1
_space_group_name_Hall           'P 1'
loop_
_symmetry_equiv_pos_site_id
_symmetry_equiv_pos_as_xyz
1 x,y,z
_cell_length_a                   11.7320(10)
_cell_length_b                   10.2000(10)
_cell_length_c                   14.9470(10)
_cell_angle_alpha                90
_cell_angle_beta                 91.5380(10)
_cell_angle_gamma                90
_cell_volume                     1788.01
loop_
_atom_site_label
_atom_site_type_symbol
_atom_site_fract_x
_atom_site_fract_y
_atom_site_fract_z
Mn1 Mn 0.25706(4) 0.07916(5) 0.13103(3)
Mn2 Mn 0.0000 0.0000 0.0000
Mn4 Mn 0.5000 0.0000 0.0000
O2 O 0.1540(2) 0.2578(2) 0.10741(15)
O3 O 0.3051(2) 0.2006(2) 0.24794(15)
O4 O 0.4009(2) 0.1586(2) 0.06168(18)
O8 O 0.0212(3) 0.2107(3) 0.00238(19)
O9 O 0.3924(2) 0.3726(3) 0.09408(19)
O12 O 0.3159(3) 0.0657(3) 0.36633(18)
C2 C 0.0773(4) 0.2869(4) 0.0487(3)
H2 H 0.0622 0.3776 0.0401
C3 C 0.3286(3) 0.1736(3) 0.3293(2)
H3 H 0.3587 0.2427 0.3654
C4 C 0.4332(3) 0.2770(4) 0.0552(3)
H4 H 0.4947 0.2938 0.0168
Mn9 Mn 0.26015(5) 0.39283(5) 0.18681(4)
O32 O 0.6531(2) 0.1056(3) 0.0354(2)
Mn2_2 Mn 0.0000 0.0000 1.0000
Mn4_2 Mn 0.5000 0.0000 1.0000
Mn12 Mn 0.76015(5) 0.10717(5) 0.68681(4)
O23 O 0.6489(2) 0.0807(2) 0.80404(18)
O30 O 0.4877(3) 0.1102(3) 0.8771(2)
H7 H 0.0204 0.0327 0.7372
C11 C 0.5523(4) 0.1328(4) 0.8154(3)
H11 H 0.5273 0.1954 0.7721
Mn2_3 Mn -0.0000 1.0000 0.0000
Mn3 Mn 0.23985(5) 0.89283(5) 0.31319(4)
Mn4_3 Mn 0.5000 1.0000 0.0000
O1 O 0.1287(2) 0.9930(2) 0.21776(19)
O5 O 0.3511(2) 0.9193(2) 0.19596(18)
O6 O 0.1856(2) 0.9706(3) 0.02033(18)
O10 O 0.5123(3) 0.8898(3) 0.1229(2)
C1 C 0.0200(3) 0.9866(4) 0.2102(3)
C5 C 0.4477(4) 0.8672(4) 0.1846(3)
H5 H 0.4727 0.8046 0.2279
Mn6 Mn 0.24294(4) 0.57916(5) 0.36897(3)
Mn14 Mn 0.0000 0.5000 0.5000
O15 O 0.3460(2) 0.7578(2) 0.39259(15)
O17 O 0.1949(2) 0.7006(2) 0.25206(15)
O20 O 0.0991(2) 0.6586(2) 0.43832(18)
O28 O 0.1076(2) 0.8726(3) 0.40592(19)
O33 O 0.1841(3) 0.5657(3) 0.13367(18)
C9 C 0.1714(3) 0.6736(3) 0.1707(2)
H9 H 0.1413 0.7427 0.1346
C10 C 0.0668(3) 0.7770(4) 0.4448(3)
H10 H 0.0053 0.7938 0.4832
Mn2_4 Mn 0.0000 1.0000 1.0000
Mn4_4 Mn 0.5000 1.0000 1.0000
O11 O 0.3469(2) 0.8944(3) 0.9646(2)
C6 C 0.2420(4) 0.9005(4) 0.9675(3)
H6 H 0.1997 0.8476 0.9262
Mn7 Mn 0.74294(4) 0.92084(5) 0.86897(3)
O21 O 0.5991(2) 0.8414(2) 0.93832(18)
O26 O 0.0366(2) 0.9969(3) 0.8589(2)
Mn2_5 Mn 1.0000 0.0000 0.0000
O7 O 0.9634(2) 0.0031(3) 0.1411(2)
C12 C 0.7580(4) 0.0995(4) 0.0325(3)
H12 H 0.8003 0.1524 0.0738
Mn2_6 Mn 1.0000 0.0000 1.0000
O13 O 0.8713(2) 0.0070(2) 0.78224(19)
O16 O 0.6540(2) 0.2422(2) 0.60741(15)
O19 O 0.8051(2) 0.2994(2) 0.74794(15)
O25 O 0.8144(2) 0.0294(3) 0.97967(18)
O29 O 0.8924(2) 0.1274(3) 0.59408(19)
C7 C 0.9800(3) 0.0134(4) 0.7898(3)
Mn2_7 Mn 1.0000 1.0000 0.0000
H1 H 0.9796 0.9673 0.2628
Mn14_2 Mn 1.0000 0.5000 0.5000
Mn2_8 Mn 1.0000 1.0000 1.0000
Mn10 Mn 0.73985(5) 0.60717(5) 0.81319(4)
O14 O 0.8460(2) 0.7422(2) 0.89259(15)
O18 O 0.6949(2) 0.7994(2) 0.75206(15)
O27 O 0.9788(3) 0.7893(3) 0.99762(19)
O34 O 0.6841(3) 0.9343(3) 0.63367(18)
C8 C 0.9227(4) 0.7131(4) 0.9513(3)
H8 H 0.9378 0.6224 0.9599
Mn2_9 Mn 0.5000 0.5000 0.5000
O1_2 O 0.3713(2) 0.4930(2) 0.28224(19)
O5_2 O 0.1489(2) 0.4193(2) 0.30404(18)
O6_2 O 0.3144(2) 0.4706(3) 0.47967(18)
O7_2 O 0.5366(2) 0.5031(3) 0.3589(2)
O8_2 O 0.4788(3) 0.7107(3) 0.49762(19)
O11_2 O 0.1531(2) 0.3944(3) 0.5354(2)
C1_2 C 0.4800(3) 0.4866(4) 0.2898(3)
H1_2 H 0.5204 0.4673 0.2372
C2_2 C 0.4227(4) 0.7869(4) 0.4513(3)
H2_2 H 0.4378 0.8776 0.4599
C5_2 C 0.0523(4) 0.3672(4) 0.3154(3)
H5_2 H 0.0273 0.3046 0.2721
C6_2 C 0.2580(4) 0.4005(4) 0.5325(3)
H6_2 H 0.3003 0.3476 0.5738
Mn5 Mn 0.75706(4) 0.42084(5) 0.63103(3)
O13_2 O 0.6287(2) 0.5070(2) 0.71776(19)
O22 O 0.9009(2) 0.3414(2) 0.56168(18)
O24 O 0.8511(2) 0.5807(2) 0.69596(18)
O25_2 O 0.6856(2) 0.5294(3) 0.52033(18)
O26_2 O 0.4634(2) 0.4969(3) 0.6411(2)
O27_2 O 0.5212(3) 0.2893(3) 0.50238(19)
O29_2 O 0.6076(2) 0.6274(3) 0.90592(19)
O30_2 O 0.0123(3) 0.6102(3) 0.6229(2)
O31 O 0.8469(2) 0.6056(3) 0.4646(2)
O34_2 O 0.8159(3) 0.4343(3) 0.86633(18)
C7_2 C 0.5200(3) 0.5134(4) 0.7102(3)
H7_2 H 0.4796 0.5327 0.7628
C8_2 C 0.5773(4) 0.2131(4) 0.5487(3)
H8_2 H 0.5622 0.1224 0.5401
C12_2 C 0.7420(4) 0.5995(4) 0.4675(3)
H12_2 H 0.6997 0.6524 0.4262
O10_2 O 0.9877(3) 0.3898(3) 0.3771(2)
C11_2 C 0.9477(4) 0.6328(4) 0.6846(3)
H11_2 H 0.9727 0.6954 0.7279
C9_2 C 0.8286(3) 0.3264(3) 0.8293(2)
H9_2 H 0.8587 0.2573 0.8654
C10_2 C 0.9332(3) 0.2230(4) 0.5552(3)
H10_2 H 0.9947 0.2062 0.5168
C3_2 C 0.6714(3) 0.8264(3) 0.6707(2)
H3_2 H 0.6413 0.7573 0.6346
C4_2 C 0.5668(3) 0.7230(4) 0.9448(3)
H4_2 H 0.5053 0.7062 0.9832
loop_
_geom_bond_atom_site_label_1
_geom_bond_atom_site_label_2
_geom_bond_site_symmetry_1
_geom_bond_site_symmetry_2
Mn4 O4 1_555 1_555
O2 Mn1 1_555 1_555
O3 Mn1 1_555 1_555
O4 Mn1 1_555 1_555
O8 Mn2 1_555 1_555
O9 C4 1_555 1_555
C2 O2 1_555 1_555
H2 C2 1_555 1_555
C3 O3 1_555 1_555
H3 C3 1_555 1_555
C4 O4 1_555 1_555
H4 C4 1_555 1_555
Mn9 O2 1_555 1_555
O32 Mn4 1_555 1_555
O3 Mn9 1_555 1_555
O8 C2 1_555 1_555
O9 Mn9 1_555 1_555
O12 C3 1_555 1_555
Mn12 O23 1_555 1_555
O30 Mn4_2 1_555 1_555
C11 O23 1_555 1_555
H11 C11 1_555 1_555
O30 C11 1_555 1_555
Mn2_3 O6 1_555 1_555
Mn3 O1 1_555 1_555
O1 C1 1_555 1_555
O10 Mn4_3 1_555 1_555
C5 O5 1_555 1_555
H5 C5 1_555 1_555
Mn6 O15 1_555 1_555
Mn9 O33 1_555 1_555
Mn14 O20 1_555 1_555
O15 Mn3 1_555 1_555
O17 Mn3 1_555 1_555
O20 Mn6 1_555 1_555
O28 Mn3 1_555 1_555
O33 C9 1_555 1_555
C9 O17 1_555 1_555
H9 C9 1_555 1_555
C10 O20 1_555 1_555
H10 C10 1_555 1_555
Mn3 O5 1_555 1_555
O10 C5 1_555 1_555
Mn6 O17 1_555 1_555
O28 C10 1_555 1_555
O11 Mn4_4 1_555 1_555
H6 C6 1_555 1_555
Mn7 O21 1_555 1_555
O21 Mn4_4 1_555 1_555
O26 Mn2_4 1_555 1_555
O11 C6 1_555 1_555
O7 Mn2_5 1_555 1_555
H12 C12 1_555 1_555
O32 C12 1_555 1_555
Mn12 O13 1_555 1_555
O13 C7 1_555 1_555
O16 Mn12 1_555 1_555
O19 Mn12 1_555 1_555
O25 Mn2_6 1_555 1_555
O29 Mn12 1_555 1_555
Mn10 O14 1_555 1_555
O14 Mn7 1_555 1_555
O18 Mn7 1_555 1_555
O27 Mn2_8 1_555 1_555
C8 O14 1_555 1_555
H8 C8 1_555 1_555
Mn10 O18 1_555 1_555
O27 C8 1_555 1_555
Mn6 O1_2 1_555 1_555
Mn2_9 O6_2 1_555 1_555
Mn9 O1_2 1_555 1_555
O1_2 C1_2 1_555 1_555
O5_2 Mn6 1_555 1_555
O6_2 Mn6 1_555 1_555
O7_2 Mn2_9 1_555 1_555
O8_2 Mn2_9 1_555 1_555
O11_2 Mn14 1_555 1_555
C1_2 O7_2 1_555 1_555
H1_2 C1_2 1_555 1_555
C2_2 O15 1_555 1_555
H2_2 C2_2 1_555 1_555
C5_2 O5_2 1_555 1_555
H5_2 C5_2 1_555 1_555
C6_2 O6_2 1_555 1_555
H6_2 C6_2 1_555 1_555
Mn5 O13_2 1_555 1_555
Mn10 O13_2 1_555 1_555
Mn14_2 O22 1_555 1_555
O13_2 C7_2 1_555 1_555
O16 Mn5 1_555 1_555
O19 Mn5 1_555 1_555
O22 Mn5 1_555 1_555
O24 Mn5 1_555 1_555
O25_2 Mn2_9 1_555 1_555
O26_2 Mn2_9 1_555 1_555
O27_2 Mn2_9 1_555 1_555
O29_2 Mn10 1_555 1_555
O30_2 Mn14 1_555 1_555
O31 Mn14_2 1_555 1_555
O34_2 Mn10 1_555 1_555
C7_2 O26_2 1_555 1_555
H7_2 C7_2 1_555 1_555
C8_2 O16 1_555 1_555
H8_2 C8_2 1_555 1_555
C12_2 O25_2 1_555 1_555
H12_2 C12_2 1_555 1_555
Mn9 O5_2 1_555 1_555
O8_2 C2_2 1_555 1_555
O11_2 C6_2 1_555 1_555
Mn5 O25_2 1_555 1_555
Mn10 O24 1_555 1_555
O27_2 C8_2 1_555 1_555
O31 C12_2 1_555 1_555
O10_2 Mn14_2 1_555 1_555
C11_2 O24 1_555 1_555
H11_2 C11_2 1_555 1_555
O34_2 C9_2 1_555 1_555
C9_2 O19 1_555 1_555
H9_2 C9_2 1_555 1_555
C10_2 O22 1_555 1_555
H10_2 C10_2 1_555 1_555
O29 C10_2 1_555 1_555
O29_2 C4_2 1_555 1_555
C3_2 O18 1_555 1_555
H3_2 C3_2 1_555 1_555
C4_2 O21 1_555 1_555
H4_2 C4_2 1_555 1_555
O34 C3_2 1_555 1_555

#END
