
###############################################################################
#
# This file contains modified crystal structure data generated from the
# MOF subset of the Cambridge Structural Database (CSD) v543 
# hosted by the Cambridge Crystallographic Data Centre (CCDC).
#
# This work is licensed under the Creative Commons
# Attribution-NonCommercial-ShareAlike 4.0 International License.
# To view a copy of this license, visit
# http://creativecommons.org/licenses/by-nc-sa/4.0/
# or send a letter to
# Creative Commons, PO Box 1866, Mountain View, CA 94042, USA.
#
# CIF created using the CSD Python API on 29 September 2022
# The structure has been converted into the P1 space group
# The structure has a 3D framework
# The original CSD entry IJOMOJ06 is in the monoclinic crystal system
# The framework has been calculated to contain at least 10.0% void space
# The void calculation uses a probe of radius 1.32A, grid spacing 0.4
#
###############################################################################

data_IJOMOJ06
_chemical_formula_moiety         '(C24 H24 Mn21 O48)n'
_symmetry_cell_setting           triclinic
_symmetry_space_group_name_H-M   'P 1'
_symmetry_Int_Tables_number      1
_space_group_name_Hall           'P 1'
loop_
_symmetry_equiv_pos_site_id
_symmetry_equiv_pos_as_xyz
1 x,y,z
_cell_length_a                   11.7261(13)
_cell_length_b                   10.1761(11)
_cell_length_c                   18.724(3)
_cell_angle_alpha                90
_cell_angle_beta                 127.190(3)
_cell_angle_gamma                90
_cell_volume                     1779.89
loop_
_atom_site_label
_atom_site_type_symbol
_atom_site_fract_x
_atom_site_fract_y
_atom_site_fract_z
Mn13 Mn 0.0000 0.0000 0.0000
Mn13_2 Mn -0.0000 0.0000 1.0000
Mn13_3 Mn 0.0000 1.0000 0.0000
Mn14 Mn -0.0000 0.5000 0.5000
Mn13_4 Mn -0.0000 1.0000 1.0000
Mn1 Mn 0.37386(3) 0.08001(3) 0.13100(2)
Mn3 Mn 0.5000 0.0000 0.0000
O1 O 0.44193(14) 0.20171(14) 0.24749(10)
O2 O 0.54951(16) 0.06758(15) 0.36659(11)
O4 O 0.67831(16) 0.00495(16) 0.14126(11)
O5 O 0.45238(15) 0.25867(14) 0.10655(10)
O6 O 0.47985(16) 0.21138(16) 0.00071(11)
O11 O 0.16004(14) 0.15922(15) 0.06090(10)
O12 O 0.19999(15) 0.37428(15) 0.09299(11)
C1 C 0.4990(2) 0.1752(2) 0.32888(16)
C3 C 0.4695(2) 0.2885(2) 0.04740(17)
C6 C 0.1209(2) 0.2783(2) 0.05464(16)
H1 H 0.504(2) 0.243(2) 0.3634(16)
H3 H 0.474(3) 0.380(3) 0.0391(18)
H6 H 0.024(2) 0.297(2) 0.0174(16)
Mn9 Mn 0.42618(3) 0.39427(3) 0.18635(2)
Mn13_5 Mn 1.0000 0.0000 0.0000
O28 O 0.88227(15) 0.10715(16) 0.03522(12)
C11 C 0.7743(2) 0.1014(2) 0.03208(17)
H11 H 0.769(2) 0.156(2) 0.0712(18)
Mn3_2 Mn 0.5000 0.0000 1.0000
Mn8 Mn 0.42618(3) 0.10573(3) 0.68635(2)
Mn13_6 Mn 1.0000 0.0000 1.0000
O15 O 0.44193(14) 0.29829(14) 0.74749(10)
O18 O 0.40961(14) 0.00538(14) 0.78153(11)
O22 O 0.45238(15) 0.24133(14) 0.60655(10)
O25 O 0.65432(14) 0.08064(14) 0.80359(11)
O27 O 0.66443(14) 0.02942(15) 0.97924(10)
O34 O 0.19999(15) 0.12572(15) 0.59299(11)
C8 C 0.3094(2) 0.0115(2) 0.78943(17)
H8 H 0.215(3) 0.035(3) 0.7350(18)
Mn2 Mn 0.57382(3) 0.89427(3) 0.31365(2)
Mn3_3 Mn 0.5000 1.0000 0.0000
O3 O 0.59039(14) 0.99462(14) 0.21847(11)
O7 O 0.34568(14) 0.91936(14) 0.19641(11)
O8 O 0.11031(15) 0.88943(16) 0.12359(12)
O9 O 0.33557(14) 0.97058(15) 0.02076(10)
C2 C 0.6906(2) 0.9885(2) 0.21057(17)
C4 C 0.2367(2) 0.8670(2) 0.18513(17)
H2 H 0.785(3) 0.965(3) 0.2650(18)
H4 H 0.261(2) 0.800(2) 0.2319(17)
Mn6 Mn 0.62614(3) 0.58001(3) 0.36900(2)
Mn13_7 Mn 1.0000 1.0000 0.0000
Mn14_2 Mn 1.0000 0.5000 0.5000
O13 O 0.55807(14) 0.70171(14) 0.25251(10)
O16 O 0.45049(16) 0.56758(15) 0.13341(11)
O21 O 0.54762(15) 0.75867(14) 0.39345(10)
O30 O 0.83996(14) 0.65922(15) 0.43910(10)
O33 O 0.80001(15) 0.87428(15) 0.40701(11)
C7 C 0.5010(2) 0.6752(2) 0.17112(16)
C12 C 0.8791(2) 0.7783(2) 0.44536(16)
H7 H 0.496(2) 0.743(2) 0.1366(16)
H12 H 0.976(2) 0.797(2) 0.4826(16)
Mn3_4 Mn 0.5000 1.0000 1.0000
O10 O 0.11773(15) 0.89285(16) 0.96478(12)
C5 C 0.2257(2) 0.8986(2) 0.96792(17)
H5 H 0.231(2) 0.844(2) 0.9288(18)
Mn5 Mn 0.62614(3) 0.91999(3) 0.86900(2)
Mn10 Mn 0.57382(3) 0.60573(3) 0.81365(2)
Mn13_8 Mn 1.0000 1.0000 1.0000
O14 O 0.55807(14) 0.79829(14) 0.75251(10)
O17 O 0.45049(16) 0.93242(15) 0.63341(11)
O19 O 0.32169(16) 0.99505(16) 0.85874(11)
O20 O 0.54762(15) 0.74133(14) 0.89345(10)
O23 O 0.52015(16) 0.78862(16) 0.99929(11)
O32 O 0.83996(14) 0.84078(15) 0.93910(10)
C9 C 0.5305(2) 0.7115(2) 0.95260(17)
H9 H 0.526(3) 0.620(3) 0.9609(18)
O26 O 0.88969(15) 0.11057(16) 0.87641(12)
C10 C 0.7633(2) 0.1330(2) 0.81487(17)
H10 H 0.739(2) 0.200(2) 0.7681(17)
Mn7 Mn 0.37386(3) 0.41999(3) 0.63100(2)
O24 O 0.34568(14) 0.58064(14) 0.69641(11)
O26_2 O 0.11031(15) 0.61057(16) 0.62359(12)
O29 O 0.11773(15) 0.60715(16) 0.46478(12)
O31 O 0.16004(14) 0.34078(15) 0.56090(10)
C10_2 C 0.2367(2) 0.6330(2) 0.68513(17)
H10_2 H 0.261(2) 0.700(2) 0.7319(17)
Mn3_5 Mn 0.5000 0.5000 0.5000
O3_2 O 0.40961(14) 0.49462(14) 0.28153(11)
O4_2 O 0.32169(16) 0.50495(16) 0.35874(11)
O6_2 O 0.52015(16) 0.71138(16) 0.49929(11)
O7_2 O 0.65432(14) 0.41936(14) 0.30359(11)
O8_2 O 0.88969(15) 0.38943(16) 0.37641(12)
O9_2 O 0.66443(14) 0.47058(15) 0.47924(10)
O10_2 O 0.88227(15) 0.39285(16) 0.53522(12)
C2_2 C 0.3094(2) 0.4885(2) 0.28943(17)
C3_2 C 0.5305(2) 0.7885(2) 0.45260(17)
C4_2 C 0.7633(2) 0.3670(2) 0.31487(17)
C5_2 C 0.7743(2) 0.3986(2) 0.53208(17)
H2_2 H 0.215(3) 0.465(3) 0.2350(18)
H3_2 H 0.526(3) 0.880(3) 0.4609(18)
H4_2 H 0.739(2) 0.300(2) 0.2681(17)
H5_2 H 0.769(2) 0.344(2) 0.5712(18)
O17_2 O 0.54951(16) 0.43242(15) 0.86659(11)
O18_2 O 0.59039(14) 0.50538(14) 0.71847(11)
O19_2 O 0.67831(16) 0.49505(16) 0.64126(11)
O23_2 O 0.47985(16) 0.28862(16) 0.50071(11)
O27_2 O 0.33557(14) 0.52942(15) 0.52076(10)
O34_2 O 0.80001(15) 0.62572(15) 0.90701(11)
C8_2 C 0.6906(2) 0.5115(2) 0.71057(17)
C9_2 C 0.4695(2) 0.2115(2) 0.54740(17)
C11_2 C 0.2257(2) 0.6014(2) 0.46792(17)
H8_2 H 0.785(3) 0.535(3) 0.7650(18)
H9_2 H 0.474(3) 0.120(3) 0.5391(18)
H11_2 H 0.231(2) 0.656(2) 0.4288(18)
C7_2 C 0.4990(2) 0.3248(2) 0.82888(16)
C12_2 C 0.1209(2) 0.2217(2) 0.55464(16)
H7_2 H 0.504(2) 0.257(2) 0.8634(16)
H12_2 H 0.024(2) 0.203(2) 0.5174(16)
C1_2 C 0.5010(2) 0.8248(2) 0.67112(16)
C6_2 C 0.8791(2) 0.7217(2) 0.94536(16)
H1_2 H 0.496(2) 0.757(2) 0.6366(16)
H6_2 H 0.976(2) 0.703(2) 0.9826(16)
loop_
_geom_bond_atom_site_label_1
_geom_bond_atom_site_label_2
_geom_bond_site_symmetry_1
_geom_bond_site_symmetry_2
Mn1 O1 1_555 1_555
Mn3 O4 1_555 1_555
O1 C1 1_555 1_555
O2 C1 1_555 1_555
O5 Mn1 1_555 1_555
O6 Mn3 1_555 1_555
O11 Mn1 1_555 1_555
O12 C6 1_555 1_555
C1 H1 1_555 1_555
C3 O5 1_555 1_555
C6 O11 1_555 1_555
H3 C3 1_555 1_555
H6 C6 1_555 1_555
Mn9 O1 1_555 1_555
Mn13_5 O28 1_555 1_555
O28 C11 1_555 1_555
H11 C11 1_555 1_555
Mn13 O11 1_555 1_555
O5 Mn9 1_555 1_555
O6 C3 1_555 1_555
O12 Mn9 1_555 1_555
Mn8 O15 1_555 1_555
O22 Mn8 1_555 1_555
O27 Mn3_2 1_555 1_555
O34 Mn8 1_555 1_555
C8 O18 1_555 1_555
H8 C8 1_555 1_555
Mn8 O18 1_555 1_555
Mn8 O25 1_555 1_555
Mn13_3 O8 1_555 1_555
O8 C4 1_555 1_555
C2 O3 1_555 1_555
C4 O7 1_555 1_555
H2 C2 1_555 1_555
H4 C4 1_555 1_555
Mn6 O13 1_555 1_555
Mn9 O16 1_555 1_555
Mn14_2 O30 1_555 1_555
O13 Mn2 1_555 1_555
O16 C7 1_555 1_555
O21 Mn2 1_555 1_555
O30 Mn6 1_555 1_555
O33 Mn2 1_555 1_555
C7 O13 1_555 1_555
C12 O30 1_555 1_555
H7 C7 1_555 1_555
H12 C12 1_555 1_555
Mn2 O3 1_555 1_555
Mn2 O7 1_555 1_555
Mn3_3 O9 1_555 1_555
Mn6 O21 1_555 1_555
O33 C12 1_555 1_555
O10 Mn13_4 1_555 1_555
H5 C5 1_555 1_555
Mn5 O14 1_555 1_555
Mn10 O14 1_555 1_555
O19 Mn3_4 1_555 1_555
O20 Mn5 1_555 1_555
O23 Mn3_4 1_555 1_555
O32 Mn5 1_555 1_555
C9 O20 1_555 1_555
H9 C9 1_555 1_555
O10 C5 1_555 1_555
Mn10 O20 1_555 1_555
Mn13_8 O32 1_555 1_555
O23 C9 1_555 1_555
O25 C10 1_555 1_555
O26 Mn13_6 1_555 1_555
C10 O26 1_555 1_555
H10 C10 1_555 1_555
Mn7 O24 1_555 1_555
Mn10 O24 1_555 1_555
O24 C10_2 1_555 1_555
O26_2 Mn14 1_555 1_555
O29 Mn14 1_555 1_555
O31 Mn14 1_555 1_555
C10_2 O26_2 1_555 1_555
H10_2 C10_2 1_555 1_555
Mn7 O31 1_555 1_555
Mn3_5 O4_2 1_555 1_555
Mn14_2 O8_2 1_555 1_555
O3_2 Mn6 1_555 1_555
O4_2 C2_2 1_555 1_555
O6_2 Mn3_5 1_555 1_555
O7_2 Mn6 1_555 1_555
O8_2 C4_2 1_555 1_555
O9_2 Mn6 1_555 1_555
O10_2 Mn14_2 1_555 1_555
C2_2 O3_2 1_555 1_555
C3_2 O21 1_555 1_555
C4_2 O7_2 1_555 1_555
C5_2 O9_2 1_555 1_555
H2_2 C2_2 1_555 1_555
H3_2 C3_2 1_555 1_555
H4_2 C4_2 1_555 1_555
H5_2 C5_2 1_555 1_555
Mn7 O15 1_555 1_555
O17_2 Mn10 1_555 1_555
O18_2 Mn7 1_555 1_555
O19_2 Mn3_5 1_555 1_555
O22 Mn7 1_555 1_555
O23_2 Mn3_5 1_555 1_555
O27_2 Mn3_5 1_555 1_555
O29 C11_2 1_555 1_555
O34_2 Mn10 1_555 1_555
C8_2 O18_2 1_555 1_555
C9_2 O22 1_555 1_555
C11_2 O27_2 1_555 1_555
H8_2 C8_2 1_555 1_555
H9_2 C9_2 1_555 1_555
H11_2 C11_2 1_555 1_555
Mn9 O3_2 1_555 1_555
Mn9 O7_2 1_555 1_555
Mn3_5 O9_2 1_555 1_555
O6_2 C3_2 1_555 1_555
O10_2 C5_2 1_555 1_555
Mn7 O27_2 1_555 1_555
Mn10 O18_2 1_555 1_555
O19_2 C8_2 1_555 1_555
O23_2 C9_2 1_555 1_555
O17_2 C7_2 1_555 1_555
C7_2 O15 1_555 1_555
C12_2 O31 1_555 1_555
H7_2 C7_2 1_555 1_555
H12_2 C12_2 1_555 1_555
O34 C12_2 1_555 1_555
O14 C1_2 1_555 1_555
O17 C1_2 1_555 1_555
O34_2 C6_2 1_555 1_555
C1_2 H1_2 1_555 1_555
C6_2 O32 1_555 1_555
H6_2 C6_2 1_555 1_555

#END
