
###############################################################################
#
# This file contains modified crystal structure data generated from the
# MOF subset of the Cambridge Structural Database (CSD) v543 
# hosted by the Cambridge Crystallographic Data Centre (CCDC).
#
# This work is licensed under the Creative Commons
# Attribution-NonCommercial-ShareAlike 4.0 International License.
# To view a copy of this license, visit
# http://creativecommons.org/licenses/by-nc-sa/4.0/
# or send a letter to
# Creative Commons, PO Box 1866, Mountain View, CA 94042, USA.
#
# CIF created using the CSD Python API on 29 September 2022
# The structure has been converted into the P1 space group
# The structure has a 3D framework
# The original CSD entry IJUJEE is in the monoclinic crystal system
# The framework has been calculated to contain at least 10.0% void space
# The void calculation uses a probe of radius 1.32A, grid spacing 0.4
#
###############################################################################

data_IJUJEE
_chemical_formula_moiety         '(C96 H88 Co8 Er8 N32 O80)n'
_symmetry_cell_setting           triclinic
_symmetry_space_group_name_H-M   'P 1'
_symmetry_Int_Tables_number      1
_space_group_name_Hall           'P 1'
loop_
_symmetry_equiv_pos_site_id
_symmetry_equiv_pos_as_xyz
1 x,y,z
_cell_length_a                   24.0431(12)
_cell_length_b                   9.0516(5)
_cell_length_c                   18.7594(9)
_cell_angle_alpha                90
_cell_angle_beta                 114.5062(6)
_cell_angle_gamma                90
_cell_volume                     3714.81
loop_
_atom_site_label
_atom_site_type_symbol
_atom_site_fract_x
_atom_site_fract_y
_atom_site_fract_z
H10 H 0.7154 0.0043 0.4281
Co3 Co 0.21177(4) 0.00929(11) 0.33781(6)
Er1 Er 0.457146(12) 0.69334(3) 0.504152(17)
Co1 Co 0.28823(4) 0.50929(11) 0.16219(6)
O1 O 0.4215(2) 0.6274(7) 0.3768(3)
O2 O 0.3768(2) 0.5388(6) 0.2580(3)
O3 O 0.3912(2) 0.8743(6) 0.4450(3)
O4 O 0.3029(2) 0.9793(6) 0.4256(3)
O5 O 0.5396(2) 0.8044(6) 0.4816(4)
O6 O 0.5468(2) 0.5677(6) 0.4961(3)
O7 O 0.6164(3) 0.3535(6) 0.4592(4)
O8 O 0.6683(3) 0.3681(6) 0.3873(4)
O9 O 0.4807(3) 0.9058(7) 0.5818(4)
H1 H 0.5101 0.9498 0.5780
H2 H 0.4501 0.9619 0.5665
O10 O 0.5177(3) 0.6292(8) 0.6317(4)
H3 H 0.5546 0.6351 0.6395
H4 H 0.5097 0.5421 0.6399
N1 N 0.2698(3) 0.6622(8) 0.2305(4)
N2 N 0.2415(3) 0.8345(8) 0.2937(4)
N3 N 0.6412(3) 0.8230(7) 0.4485(5)
H5 H 0.6324 0.9081 0.4613
N4 N 0.6840(3) 0.6547(8) 0.4045(4)
C1 C 0.3759(3) 0.6189(8) 0.3113(4)
C2 C 0.3189(3) 0.6982(7) 0.2966(4)
C3 C 0.3017(3) 0.8017(8) 0.3364(5)
C4 C 0.3339(3) 0.8906(7) 0.4065(4)
C5 C 0.2248(3) 0.7470(10) 0.2311(4)
C6 C 0.1619(4) 0.7467(12) 0.1684(6)
H6 H 0.1453 0.6486 0.1622
H7 H 0.1628 0.7783 0.1201
H8 H 0.1368 0.8129 0.1823
C7 C 0.5655(3) 0.6862(8) 0.4798(4)
C8 C 0.6170(3) 0.6907(9) 0.4568(5)
C9 C 0.6446(3) 0.5880(8) 0.4300(4)
C10 C 0.6419(3) 0.4257(9) 0.4245(4)
C11 C 0.6810(4) 0.7971(8) 0.4172(5)
C12 C 0.7166(4) 0.9164(10) 0.4002(6)
H9 H 0.7583 0.8851 0.4166
H11 H 0.6991 0.9363 0.3450
Er2 Er 0.542854(12) 0.30666(3) 0.495848(17)
Co2 Co 0.71177(4) 0.50929(11) 0.33781(6)
O11 O 0.1971(2) 0.4793(6) 0.0744(3)
O12 O 0.4532(2) 0.4323(6) 0.5039(3)
O13 O 0.3836(3) 0.6465(6) 0.5408(4)
O14 O 0.3317(3) 0.3681(6) 0.1127(4)
N5 N 0.2585(3) 0.3345(8) 0.2063(4)
N6 N 0.3160(3) 0.6547(8) 0.0955(4)
O5_2 O 0.0396(2) 0.3044(6) 0.4816(4)
O6_2 O 0.0468(2) 0.0677(6) 0.4961(3)
H1_2 H 0.0101 0.4498 0.5780
O10_2 O 0.0177(3) 0.1292(8) 0.6317(4)
H3_2 H 0.0546 0.1351 0.6395
H4_2 H 0.0097 0.0421 0.6399
N3_2 N 0.1412(3) 0.3230(7) 0.4485(5)
H5_2 H 0.1324 0.4081 0.4613
N4_2 N 0.1840(3) 0.1547(8) 0.4045(4)
C7_2 C 0.0655(3) 0.1862(8) 0.4798(4)
C8_2 C 0.1170(3) 0.1907(9) 0.4568(5)
C9_2 C 0.1446(3) 0.0880(8) 0.4300(4)
C11_2 C 0.1810(4) 0.2971(8) 0.4172(5)
C12_2 C 0.2166(4) 0.4164(10) 0.4002(6)
H9_2 H 0.2583 0.3851 0.4166
H10_2 H 0.2154 0.5043 0.4281
H11_2 H 0.1991 0.4363 0.3450
O7_2 O 0.1164(3) 0.8535(6) 0.4592(4)
O8_2 O 0.1683(3) 0.8681(6) 0.3873(4)
C10_2 C 0.1419(3) 0.9257(9) 0.4245(4)
Er2_2 Er 0.042854(12) 0.80666(3) 0.495848(17)
Er1_2 Er 0.957146(12) 0.19334(3) 0.504152(17)
Co1_2 Co 0.78823(4) 0.00929(11) 0.16219(6)
O1_2 O 0.9215(2) 0.1274(7) 0.3768(3)
O2_2 O 0.8768(2) 0.0388(6) 0.2580(3)
O3_2 O 0.8912(2) 0.3743(6) 0.4450(3)
O4_2 O 0.8029(2) 0.4793(6) 0.4256(3)
O9_2 O 0.9807(3) 0.4058(7) 0.5818(4)
H2_2 H 0.9501 0.4619 0.5665
N1_2 N 0.7698(3) 0.1622(8) 0.2305(4)
N2_2 N 0.7415(3) 0.3345(8) 0.2937(4)
C1_2 C 0.8759(3) 0.1189(8) 0.3113(4)
C2_2 C 0.8189(3) 0.1982(7) 0.2966(4)
C3_2 C 0.8017(3) 0.3017(8) 0.3364(5)
C4_2 C 0.8339(3) 0.3906(7) 0.4065(4)
C5_2 C 0.7248(3) 0.2470(10) 0.2311(4)
C6_2 C 0.6619(4) 0.2467(12) 0.1684(6)
H6_2 H 0.6453 0.1486 0.1622
H7_2 H 0.6628 0.2783 0.1201
H8_2 H 0.6368 0.3129 0.1823
O13_2 O 0.8836(3) 0.1465(6) 0.5408(4)
N6_2 N 0.8160(3) 0.1547(8) 0.0955(4)
O11_2 O 0.6971(2) 0.9793(6) 0.0744(3)
O12_2 O 0.9532(2) 0.9323(6) 0.5039(3)
O14_2 O 0.8317(3) 0.8681(6) 0.1127(4)
N5_2 N 0.7585(3) 0.8345(8) 0.2063(4)
H10_3 H 0.2846 0.0043 0.0719
O1_3 O 0.5785(2) 0.6274(7) 0.1232(3)
O2_3 O 0.6232(2) 0.5388(6) 0.2420(3)
O3_3 O 0.6088(2) 0.8743(6) 0.0550(3)
O5_3 O 0.4604(2) 0.8044(6) 0.0184(4)
O6_3 O 0.4532(2) 0.5677(6) 0.0039(3)
O7_3 O 0.3836(3) 0.3535(6) 0.0408(4)
N1_3 N 0.7302(3) 0.6622(8) 0.2695(4)
N3_3 N 0.3588(3) 0.8230(7) 0.0515(5)
H5_3 H 0.3676 0.9081 0.0387
C1_3 C 0.6241(3) 0.6189(8) 0.1887(4)
C2_3 C 0.6811(3) 0.6982(7) 0.2034(4)
C3_3 C 0.6983(3) 0.8017(8) 0.1636(5)
C4_3 C 0.6661(3) 0.8906(7) 0.0935(4)
C5_3 C 0.7752(3) 0.7470(10) 0.2689(4)
C6_3 C 0.8381(4) 0.7467(12) 0.3316(6)
H6_3 H 0.8547 0.6486 0.3378
H7_3 H 0.8372 0.7783 0.3799
H8_3 H 0.8632 0.8129 0.3177
C7_3 C 0.4345(3) 0.6862(8) 0.0202(4)
C8_3 C 0.3830(3) 0.6907(9) 0.0432(5)
C9_3 C 0.3554(3) 0.5880(8) 0.0700(4)
C10_3 C 0.3581(3) 0.4257(9) 0.0755(4)
C11_3 C 0.3190(4) 0.7971(8) 0.0828(5)
C12_3 C 0.2834(4) 0.9164(10) 0.0998(6)
H9_3 H 0.2417 0.8851 0.0834
H11_3 H 0.3009 0.9363 0.1550
Er2_3 Er 0.457146(12) 0.30666(3) 0.004152(17)
Er1_3 Er 0.542854(12) 0.69334(3) 0.995848(17)
O9_3 O 0.5193(3) 0.9058(7) 0.9182(4)
H1_3 H 0.4899 0.9498 0.9220
H2_3 H 0.5499 0.9619 0.9335
O10_3 O 0.4823(3) 0.6292(8) 0.8683(4)
H3_3 H 0.4454 0.6351 0.8605
H4_3 H 0.4903 0.5421 0.8601
O12_3 O 0.5468(2) 0.4323(6) 0.9961(3)
O13_3 O 0.6164(3) 0.6465(6) 0.9592(4)
O1_4 O 0.0785(2) 0.1274(7) 0.1232(3)
O2_4 O 0.1232(2) 0.0388(6) 0.2420(3)
O3_4 O 0.1088(2) 0.3743(6) 0.0550(3)
N1_4 N 0.2302(3) 0.1622(8) 0.2695(4)
C1_4 C 0.1241(3) 0.1189(8) 0.1887(4)
C2_4 C 0.1811(3) 0.1982(7) 0.2034(4)
C3_4 C 0.1983(3) 0.3017(8) 0.1636(5)
C4_4 C 0.1661(3) 0.3906(7) 0.0935(4)
C5_4 C 0.2752(3) 0.2470(10) 0.2689(4)
C6_4 C 0.3381(4) 0.2467(12) 0.3316(6)
H6_4 H 0.3547 0.1486 0.3378
H7_4 H 0.3372 0.2783 0.3799
H8_4 H 0.3632 0.3129 0.3177
Er1_4 Er 0.042854(12) 0.19334(3) 0.995848(17)
O9_4 O 0.0193(3) 0.4058(7) 0.9182(4)
H2_4 H 0.0499 0.4619 0.9335
O13_4 O 0.1164(3) 0.1465(6) 0.9592(4)
O12_4 O 0.0468(2) 0.9323(6) 0.9961(3)
O5_4 O 0.9604(2) 0.3044(6) 0.0184(4)
O6_4 O 0.9532(2) 0.0677(6) 0.0039(3)
N3_4 N 0.8588(3) 0.3230(7) 0.0515(5)
H5_4 H 0.8676 0.4081 0.0387
C7_4 C 0.9345(3) 0.1862(8) 0.0202(4)
C8_4 C 0.8830(3) 0.1907(9) 0.0432(5)
C9_4 C 0.8554(3) 0.0880(8) 0.0700(4)
C11_4 C 0.8190(4) 0.2971(8) 0.0828(5)
C12_4 C 0.7834(4) 0.4164(10) 0.0998(6)
H9_4 H 0.7417 0.3851 0.0834
H10_4 H 0.7846 0.5043 0.0719
H11_4 H 0.8009 0.4363 0.1550
O7_4 O 0.8836(3) 0.8535(6) 0.0408(4)
C10_4 C 0.8581(3) 0.9257(9) 0.0755(4)
Er2_4 Er 0.957146(12) 0.80666(3) 0.004152(17)
Co1_3 Co 0.71177(4) 0.49071(11) 0.83781(6)
O1_5 O 0.5785(2) 0.3726(7) 0.6232(3)
O2_5 O 0.6232(2) 0.4612(6) 0.7420(3)
O3_5 O 0.6088(2) 0.1257(6) 0.5550(3)
O4_3 O 0.6971(2) 0.0207(6) 0.5744(3)
O5_5 O 0.4604(2) 0.1956(6) 0.5184(4)
O8_3 O 0.3317(3) 0.6319(6) 0.6127(4)
O9_5 O 0.5193(3) 0.0942(7) 0.4182(4)
H1_4 H 0.4899 0.0502 0.4220
H2_5 H 0.5499 0.0381 0.4335
O10_4 O 0.4823(3) 0.3708(8) 0.3683(4)
H3_4 H 0.4454 0.3649 0.3605
H4_4 H 0.4903 0.4579 0.3601
N1_5 N 0.7302(3) 0.3378(8) 0.7695(4)
N2_3 N 0.7585(3) 0.1655(8) 0.7063(4)
N3_5 N 0.3588(3) 0.1770(7) 0.5515(5)
H5_5 H 0.3676 0.0919 0.5387
N4_3 N 0.3160(3) 0.3453(8) 0.5955(4)
C1_5 C 0.6241(3) 0.3811(8) 0.6887(4)
C2_5 C 0.6811(3) 0.3018(7) 0.7034(4)
C3_5 C 0.6983(3) 0.1983(8) 0.6636(5)
C4_5 C 0.6661(3) 0.1094(7) 0.5935(4)
C5_5 C 0.7752(3) 0.2530(10) 0.7689(4)
C6_5 C 0.8381(4) 0.2533(12) 0.8316(6)
H6_5 H 0.8547 0.3514 0.8378
H7_5 H 0.8372 0.2217 0.8799
H8_5 H 0.8632 0.1871 0.8177
C7_5 C 0.4345(3) 0.3138(8) 0.5202(4)
C8_5 C 0.3830(3) 0.3093(9) 0.5432(5)
C9_5 C 0.3554(3) 0.4120(8) 0.5700(4)
C10_5 C 0.3581(3) 0.5743(9) 0.5755(4)
C11_5 C 0.3190(4) 0.2029(8) 0.5828(5)
C12_5 C 0.2834(4) 0.0836(10) 0.5998(6)
H9_5 H 0.2417 0.1149 0.5834
H11_5 H 0.3009 0.0637 0.6550
Co2_2 Co 0.28823(4) 0.49071(11) 0.66219(6)
O11_3 O 0.8029(2) 0.5207(6) 0.9256(3)
O14_3 O 0.6683(3) 0.6319(6) 0.8873(4)
N5_3 N 0.7415(3) 0.6655(8) 0.7937(4)
N6_3 N 0.6840(3) 0.3453(8) 0.9045(4)
H10_5 H 0.2846 0.9957 0.5719
Co3_2 Co 0.78823(4) 0.99071(11) 0.66219(6)
O11_4 O 0.3029(2) 0.0207(6) 0.9256(3)
O14_4 O 0.1683(3) 0.1319(6) 0.8873(4)
N5_4 N 0.2415(3) 0.1655(8) 0.7937(4)
Co1_4 Co 0.21177(4) 0.99071(11) 0.83781(6)
O1_6 O 0.0785(2) 0.8726(7) 0.6232(3)
O2_6 O 0.1232(2) 0.9612(6) 0.7420(3)
O3_6 O 0.1088(2) 0.6257(6) 0.5550(3)
O4_4 O 0.1971(2) 0.5207(6) 0.5744(3)
O9_6 O 0.0193(3) 0.5942(7) 0.4182(4)
H2_6 H 0.0499 0.5381 0.4335
N1_6 N 0.2302(3) 0.8378(8) 0.7695(4)
N2_4 N 0.2585(3) 0.6655(8) 0.7063(4)
C1_6 C 0.1241(3) 0.8811(8) 0.6887(4)
C2_6 C 0.1811(3) 0.8018(7) 0.7034(4)
C3_6 C 0.1983(3) 0.6983(8) 0.6636(5)
C4_6 C 0.1661(3) 0.6094(7) 0.5935(4)
C5_6 C 0.2752(3) 0.7530(10) 0.7689(4)
C6_6 C 0.3381(4) 0.7533(12) 0.8316(6)
H6_6 H 0.3547 0.8514 0.8378
H7_6 H 0.3372 0.7217 0.8799
H8_6 H 0.3632 0.6871 0.8177
N6_4 N 0.1840(3) 0.8453(8) 0.9045(4)
O8_4 O 0.8317(3) 0.1319(6) 0.6127(4)
C10_6 C 0.8581(3) 0.0743(9) 0.5755(4)
O5_6 O 0.9604(2) 0.6956(6) 0.5184(4)
H1_5 H 0.9899 0.5502 0.4220
O10_5 O 0.9823(3) 0.8708(8) 0.3683(4)
H3_5 H 0.9454 0.8649 0.3605
H4_5 H 0.9903 0.9579 0.3601
N3_6 N 0.8588(3) 0.6770(7) 0.5515(5)
H5_6 H 0.8676 0.5919 0.5387
N4_4 N 0.8160(3) 0.8453(8) 0.5955(4)
C7_6 C 0.9345(3) 0.8138(8) 0.5202(4)
C8_6 C 0.8830(3) 0.8093(9) 0.5432(5)
C9_6 C 0.8554(3) 0.9120(8) 0.5700(4)
C11_6 C 0.8190(4) 0.7029(8) 0.5828(5)
C12_6 C 0.7834(4) 0.5836(10) 0.5998(6)
H9_6 H 0.7417 0.6149 0.5834
H10_6 H 0.7846 0.4957 0.5719
H11_6 H 0.8009 0.5637 0.6550
O9_7 O 0.4807(3) 0.0942(7) 0.0818(4)
H1_6 H 0.5101 0.0502 0.0780
H2_7 H 0.4501 0.0381 0.0665
O10_6 O 0.5177(3) 0.3708(8) 0.1317(4)
H3_6 H 0.5546 0.3649 0.1395
H4_6 H 0.5097 0.4579 0.1399
O1_7 O 0.4215(2) 0.3726(7) 0.8768(3)
O2_7 O 0.3768(2) 0.4612(6) 0.7580(3)
O3_7 O 0.3912(2) 0.1257(6) 0.9450(3)
O5_7 O 0.5396(2) 0.1956(6) 0.9816(4)
N1_7 N 0.2698(3) 0.3378(8) 0.7305(4)
N3_7 N 0.6412(3) 0.1770(7) 0.9485(5)
H5_7 H 0.6324 0.0919 0.9613
C1_7 C 0.3759(3) 0.3811(8) 0.8113(4)
C2_7 C 0.3189(3) 0.3018(7) 0.7966(4)
C3_7 C 0.3017(3) 0.1983(8) 0.8364(5)
C4_7 C 0.3339(3) 0.1094(7) 0.9065(4)
C5_7 C 0.2248(3) 0.2530(10) 0.7311(4)
C6_7 C 0.1619(4) 0.2533(12) 0.6684(6)
H6_7 H 0.1453 0.3514 0.6622
H7_7 H 0.1628 0.2217 0.6201
H8_7 H 0.1368 0.1871 0.6823
C7_7 C 0.5655(3) 0.3138(8) 0.9798(4)
C8_7 C 0.6170(3) 0.3093(9) 0.9568(5)
C9_7 C 0.6446(3) 0.4120(8) 0.9300(4)
C10_7 C 0.6419(3) 0.5743(9) 0.9245(4)
C11_7 C 0.6810(4) 0.2029(8) 0.9172(5)
C12_7 C 0.7166(4) 0.0836(10) 0.9002(6)
H9_7 H 0.7583 0.1149 0.9166
H11_7 H 0.6991 0.0637 0.8450
H10_7 H 0.7154 0.9957 0.9281
C10_8 C 0.1419(3) 0.0743(9) 0.9245(4)
O5_8 O 0.0396(2) 0.6956(6) 0.9816(4)
N3_8 N 0.1412(3) 0.6770(7) 0.9485(5)
H5_8 H 0.1324 0.5919 0.9613
C7_8 C 0.0655(3) 0.8138(8) 0.9798(4)
C8_8 C 0.1170(3) 0.8093(9) 0.9568(5)
C9_8 C 0.1446(3) 0.9120(8) 0.9300(4)
C11_8 C 0.1810(4) 0.7029(8) 0.9172(5)
C12_8 C 0.2166(4) 0.5836(10) 0.9002(6)
H9_8 H 0.2583 0.6149 0.9166
H10_8 H 0.2154 0.4957 0.9281
H11_8 H 0.1991 0.5637 0.8450
O9_8 O 0.9807(3) 0.5942(7) 0.0818(4)
H2_8 H 0.9501 0.5381 0.0665
O1_8 O 0.9215(2) 0.8726(7) 0.8768(3)
O2_8 O 0.8768(2) 0.9612(6) 0.7580(3)
O3_8 O 0.8912(2) 0.6257(6) 0.9450(3)
N1_8 N 0.7698(3) 0.8378(8) 0.7305(4)
C1_8 C 0.8759(3) 0.8811(8) 0.8113(4)
C2_8 C 0.8189(3) 0.8018(7) 0.7966(4)
C3_8 C 0.8017(3) 0.6983(8) 0.8364(5)
C4_8 C 0.8339(3) 0.6094(7) 0.9065(4)
C5_8 C 0.7248(3) 0.7530(10) 0.7311(4)
C6_8 C 0.6619(4) 0.7533(12) 0.6684(6)
H6_8 H 0.6453 0.8514 0.6622
H7_8 H 0.6628 0.7217 0.6201
H8_8 H 0.6368 0.6871 0.6823
H1_7 H 0.9899 0.4498 0.9220
O10_7 O 0.9823(3) 0.1292(8) 0.8683(4)
H3_7 H 0.9454 0.1351 0.8605
H4_7 H 0.9903 0.0421 0.8601
H1_8 H 0.0101 0.5502 0.0780
O10_8 O 0.0177(3) 0.8708(8) 0.1317(4)
H3_8 H 0.0546 0.8649 0.1395
H4_8 H 0.0097 0.9579 0.1399
loop_
_geom_bond_atom_site_label_1
_geom_bond_atom_site_label_2
_geom_bond_site_symmetry_1
_geom_bond_site_symmetry_2
Er1 O1 1_555 1_555
Co1 O2 1_555 1_555
O1 C1 1_555 1_555
O2 C1 1_555 1_555
O3 Er1 1_555 1_555
O4 C4 1_555 1_555
O5 Er1 1_555 1_555
O6 Er1 1_555 1_555
O7 C10 1_555 1_555
O8 C10 1_555 1_555
O9 Er1 1_555 1_555
H1 O9 1_555 1_555
H2 O9 1_555 1_555
O10 Er1 1_555 1_555
H3 O10 1_555 1_555
H4 O10 1_555 1_555
N1 Co1 1_555 1_555
N2 C3 1_555 1_555
N3 H5 1_555 1_555
N4 C9 1_555 1_555
C1 C2 1_555 1_555
C2 N1 1_555 1_555
C3 C2 1_555 1_555
C4 O3 1_555 1_555
C5 N1 1_555 1_555
C6 C5 1_555 1_555
H6 C6 1_555 1_555
H7 C6 1_555 1_555
H8 C6 1_555 1_555
C7 O5 1_555 1_555
C8 N3 1_555 1_555
C9 C8 1_555 1_555
C10 C9 1_555 1_555
C11 N3 1_555 1_555
C12 C11 1_555 1_555
H9 C12 1_555 1_555
H11 C12 1_555 1_555
Er2 O6 1_555 1_555
Co2 O8 1_555 1_555
O11 Co1 1_555 1_555
O12 Er1 1_555 1_555
O13 Er1 1_555 1_555
O14 Co1 1_555 1_555
N5 Co1 1_555 1_555
N6 Co1 1_555 1_555
O6 C7 1_555 1_555
O7 Er2 1_555 1_555
N2 C5 1_555 1_555
N4 C11 1_555 1_555
N4 Co2 1_555 1_555
C3 C4 1_555 1_555
C7 C8 1_555 1_555
Er2 O12 1_555 1_555
H3_2 O10_2 1_555 1_555
H4_2 O10_2 1_555 1_555
N3_2 H5_2 1_555 1_555
N4_2 C9_2 1_555 1_555
C7_2 O5_2 1_555 1_555
C8_2 N3_2 1_555 1_555
C9_2 C8_2 1_555 1_555
C11_2 N3_2 1_555 1_555
C12_2 C11_2 1_555 1_555
H9_2 C12_2 1_555 1_555
H10_2 C12_2 1_555 1_555
H11_2 C12_2 1_555 1_555
O6_2 C7_2 1_555 1_555
N4_2 C11_2 1_555 1_555
N4_2 Co3 1_555 1_555
C7_2 C8_2 1_555 1_555
O7_2 C10_2 1_555 1_555
O8_2 C10_2 1_555 1_555
O7_2 Er2_2 1_555 1_555
Er1_2 O1_2 1_555 1_555
Co1_2 O2_2 1_555 1_555
O1_2 C1_2 1_555 1_555
O2_2 C1_2 1_555 1_555
O3_2 Er1_2 1_555 1_555
O4_2 C4_2 1_555 1_555
O9_2 Er1_2 1_555 1_555
H2_2 O9_2 1_555 1_555
N1_2 Co1_2 1_555 1_555
N2_2 C3_2 1_555 1_555
C1_2 C2_2 1_555 1_555
C2_2 N1_2 1_555 1_555
C3_2 C2_2 1_555 1_555
C4_2 O3_2 1_555 1_555
C5_2 N1_2 1_555 1_555
C6_2 C5_2 1_555 1_555
H6_2 C6_2 1_555 1_555
H7_2 C6_2 1_555 1_555
H8_2 C6_2 1_555 1_555
Co2 O4_2 1_555 1_555
O13_2 Er1_2 1_555 1_555
N6_2 Co1_2 1_555 1_555
N2_2 C5_2 1_555 1_555
N2_2 Co2 1_555 1_555
C3_2 C4_2 1_555 1_555
Co2 O2_3 1_555 1_555
O1_3 C1_3 1_555 1_555
O2_3 C1_3 1_555 1_555
O11_2 C4_3 1_555 1_555
O7_3 C10_3 1_555 1_555
O14 C10_3 1_555 1_555
N1_3 Co2 1_555 1_555
N5_2 C3_3 1_555 1_555
N3_3 H5_3 1_555 1_555
N6 C9_3 1_555 1_555
C1_3 C2_3 1_555 1_555
C2_3 N1_3 1_555 1_555
C3_3 C2_3 1_555 1_555
C4_3 O3_3 1_555 1_555
C5_3 N1_3 1_555 1_555
C6_3 C5_3 1_555 1_555
H6_3 C6_3 1_555 1_555
H7_3 C6_3 1_555 1_555
H8_3 C6_3 1_555 1_555
C7_3 O5_3 1_555 1_555
C8_3 N3_3 1_555 1_555
C9_3 C8_3 1_555 1_555
C10_3 C9_3 1_555 1_555
C11_3 N3_3 1_555 1_555
C12_3 C11_3 1_555 1_555
H9_3 C12_3 1_555 1_555
H11_3 C12_3 1_555 1_555
Er2_3 O6_3 1_555 1_555
O6_3 C7_3 1_555 1_555
O7_3 Er2_3 1_555 1_555
N5_2 C5_3 1_555 1_555
N6 C11_3 1_555 1_555
C3_3 C4_3 1_555 1_555
C7_3 C8_3 1_555 1_555
O9_3 Er1_3 1_555 1_555
H1_3 O9_3 1_555 1_555
H2_3 O9_3 1_555 1_555
O10_3 Er1_3 1_555 1_555
H3_3 O10_3 1_555 1_555
H4_3 O10_3 1_555 1_555
O12_3 Er1_3 1_555 1_555
O13_3 Er1_3 1_555 1_555
Co3 O2_4 1_555 1_555
O1_4 C1_4 1_555 1_555
O2_4 C1_4 1_555 1_555
O11 C4_4 1_555 1_555
N1_4 Co3 1_555 1_555
N5 C3_4 1_555 1_555
C1_4 C2_4 1_555 1_555
C2_4 N1_4 1_555 1_555
C3_4 C2_4 1_555 1_555
C4_4 O3_4 1_555 1_555
C5_4 N1_4 1_555 1_555
C6_4 C5_4 1_555 1_555
H6_4 C6_4 1_555 1_555
H7_4 C6_4 1_555 1_555
H8_4 C6_4 1_555 1_555
N5 C5_4 1_555 1_555
C3_4 C4_4 1_555 1_555
O9_4 Er1_4 1_555 1_555
H2_4 O9_4 1_555 1_555
O13_4 Er1_4 1_555 1_555
N3_4 H5_4 1_555 1_555
N6_2 C9_4 1_555 1_555
C7_4 O5_4 1_555 1_555
C8_4 N3_4 1_555 1_555
C9_4 C8_4 1_555 1_555
C11_4 N3_4 1_555 1_555
C12_4 C11_4 1_555 1_555
H9_4 C12_4 1_555 1_555
H10_4 C12_4 1_555 1_555
H11_4 C12_4 1_555 1_555
O6_4 C7_4 1_555 1_555
N6_2 C11_4 1_555 1_555
C7_4 C8_4 1_555 1_555
O7_4 C10_4 1_555 1_555
O14_2 C10_4 1_555 1_555
O7_4 Er2_4 1_555 1_555
Er2 O1_5 1_555 1_555
Co1_3 O2_5 1_555 1_555
O1_5 C1_5 1_555 1_555
O2_5 C1_5 1_555 1_555
O3_5 Er2 1_555 1_555
O4_3 C4_5 1_555 1_555
O5_5 Er2 1_555 1_555
O13 C10_5 1_555 1_555
O8_3 C10_5 1_555 1_555
O9_5 Er2 1_555 1_555
H1_4 O9_5 1_555 1_555
H2_5 O9_5 1_555 1_555
O10_4 Er2 1_555 1_555
H3_4 O10_4 1_555 1_555
H4_4 O10_4 1_555 1_555
N1_5 Co1_3 1_555 1_555
N2_3 C3_5 1_555 1_555
N3_5 H5_5 1_555 1_555
N4_3 C9_5 1_555 1_555
C1_5 C2_5 1_555 1_555
C2_5 N1_5 1_555 1_555
C3_5 C2_5 1_555 1_555
C4_5 O3_5 1_555 1_555
C5_5 N1_5 1_555 1_555
C6_5 C5_5 1_555 1_555
H6_5 C6_5 1_555 1_555
H7_5 C6_5 1_555 1_555
H8_5 C6_5 1_555 1_555
C7_5 O5_5 1_555 1_555
C8_5 N3_5 1_555 1_555
C9_5 C8_5 1_555 1_555
C10_5 C9_5 1_555 1_555
C11_5 N3_5 1_555 1_555
C12_5 C11_5 1_555 1_555
H9_5 C12_5 1_555 1_555
H11_5 C12_5 1_555 1_555
Co2_2 O8_3 1_555 1_555
O11_3 Co1_3 1_555 1_555
O14_3 Co1_3 1_555 1_555
N5_3 Co1_3 1_555 1_555
N6_3 Co1_3 1_555 1_555
O12 C7_5 1_555 1_555
N2_3 C5_5 1_555 1_555
N4_3 C11_5 1_555 1_555
N4_3 Co2_2 1_555 1_555
C3_5 C4_5 1_555 1_555
C7_5 C8_5 1_555 1_555
Er2_2 O1_6 1_555 1_555
Co1_4 O2_6 1_555 1_555
O1_6 C1_6 1_555 1_555
O2_6 C1_6 1_555 1_555
O3_6 Er2_2 1_555 1_555
O4_4 C4_6 1_555 1_555
O9_6 Er2_2 1_555 1_555
H2_6 O9_6 1_555 1_555
N1_6 Co1_4 1_555 1_555
N2_4 C3_6 1_555 1_555
C1_6 C2_6 1_555 1_555
C2_6 N1_6 1_555 1_555
C3_6 C2_6 1_555 1_555
C4_6 O3_6 1_555 1_555
C5_6 N1_6 1_555 1_555
C6_6 C5_6 1_555 1_555
H6_6 C6_6 1_555 1_555
H7_6 C6_6 1_555 1_555
H8_6 C6_6 1_555 1_555
Co2_2 O4_4 1_555 1_555
N6_4 Co1_4 1_555 1_555
N2_4 C5_6 1_555 1_555
N2_4 Co2_2 1_555 1_555
C3_6 C4_6 1_555 1_555
O13_2 C10_6 1_555 1_555
O8_4 C10_6 1_555 1_555
H3_5 O10_5 1_555 1_555
H4_5 O10_5 1_555 1_555
N3_6 H5_6 1_555 1_555
N4_4 C9_6 1_555 1_555
C7_6 O5_6 1_555 1_555
C8_6 N3_6 1_555 1_555
C9_6 C8_6 1_555 1_555
C11_6 N3_6 1_555 1_555
C12_6 C11_6 1_555 1_555
H9_6 C12_6 1_555 1_555
H10_6 C12_6 1_555 1_555
H11_6 C12_6 1_555 1_555
O12_2 C7_6 1_555 1_555
N4_4 C11_6 1_555 1_555
N4_4 Co3_2 1_555 1_555
C7_6 C8_6 1_555 1_555
O9_7 Er2_3 1_555 1_555
H1_6 O9_7 1_555 1_555
H2_7 O9_7 1_555 1_555
O10_6 Er2_3 1_555 1_555
H3_6 O10_6 1_555 1_555
H4_6 O10_6 1_555 1_555
Co2_2 O2_7 1_555 1_555
O1_7 C1_7 1_555 1_555
O2_7 C1_7 1_555 1_555
O11_4 C4_7 1_555 1_555
O13_3 C10_7 1_555 1_555
O14_3 C10_7 1_555 1_555
N1_7 Co2_2 1_555 1_555
N5_4 C3_7 1_555 1_555
N3_7 H5_7 1_555 1_555
N6_3 C9_7 1_555 1_555
C1_7 C2_7 1_555 1_555
C2_7 N1_7 1_555 1_555
C3_7 C2_7 1_555 1_555
C4_7 O3_7 1_555 1_555
C5_7 N1_7 1_555 1_555
C6_7 C5_7 1_555 1_555
H6_7 C6_7 1_555 1_555
H7_7 C6_7 1_555 1_555
H8_7 C6_7 1_555 1_555
C7_7 O5_7 1_555 1_555
C8_7 N3_7 1_555 1_555
C9_7 C8_7 1_555 1_555
C10_7 C9_7 1_555 1_555
C11_7 N3_7 1_555 1_555
C12_7 C11_7 1_555 1_555
H9_7 C12_7 1_555 1_555
H11_7 C12_7 1_555 1_555
O12_3 C7_7 1_555 1_555
N5_4 C5_7 1_555 1_555
N6_3 C11_7 1_555 1_555
C3_7 C4_7 1_555 1_555
C7_7 C8_7 1_555 1_555
O13_4 C10_8 1_555 1_555
O14_4 C10_8 1_555 1_555
N3_8 H5_8 1_555 1_555
N6_4 C9_8 1_555 1_555
C7_8 O5_8 1_555 1_555
C8_8 N3_8 1_555 1_555
C9_8 C8_8 1_555 1_555
C11_8 N3_8 1_555 1_555
C12_8 C11_8 1_555 1_555
H9_8 C12_8 1_555 1_555
H10_8 C12_8 1_555 1_555
H11_8 C12_8 1_555 1_555
O12_4 C7_8 1_555 1_555
N6_4 C11_8 1_555 1_555
C7_8 C8_8 1_555 1_555
O9_8 Er2_4 1_555 1_555
H2_8 O9_8 1_555 1_555
Co3_2 O2_8 1_555 1_555
O1_8 C1_8 1_555 1_555
O2_8 C1_8 1_555 1_555
O11_3 C4_8 1_555 1_555
N1_8 Co3_2 1_555 1_555
N5_3 C3_8 1_555 1_555
C1_8 C2_8 1_555 1_555
C2_8 N1_8 1_555 1_555
C3_8 C2_8 1_555 1_555
C4_8 O3_8 1_555 1_555
C5_8 N1_8 1_555 1_555
C6_8 C5_8 1_555 1_555
H6_8 C6_8 1_555 1_555
H7_8 C6_8 1_555 1_555
H8_8 C6_8 1_555 1_555
N5_3 C5_8 1_555 1_555
C3_8 C4_8 1_555 1_555
H3_7 O10_7 1_555 1_555
H4_7 O10_7 1_555 1_555
H3_8 O10_8 1_555 1_555
H4_8 O10_8 1_555 1_555

#END
