
###############################################################################
#
# This file contains modified crystal structure data generated from the
# MOF subset of the Cambridge Structural Database (CSD) v543 
# hosted by the Cambridge Crystallographic Data Centre (CCDC).
#
# This work is licensed under the Creative Commons
# Attribution-NonCommercial-ShareAlike 4.0 International License.
# To view a copy of this license, visit
# http://creativecommons.org/licenses/by-nc-sa/4.0/
# or send a letter to
# Creative Commons, PO Box 1866, Mountain View, CA 94042, USA.
#
# CIF created using the CSD Python API on 29 September 2022
# The structure has been converted into the P1 space group
# The structure has a 3D framework
# The original CSD entry IKATIZ is in the monoclinic crystal system
# The framework has been calculated to contain at least 10.0% void space
# The void calculation uses a probe of radius 1.32A, grid spacing 0.4
#
###############################################################################

data_IKATIZ
_chemical_formula_moiety         '(C328 H256 Cd16 N32 O96)n'
_symmetry_cell_setting           triclinic
_symmetry_space_group_name_H-M   'P 1'
_symmetry_Int_Tables_number      1
_space_group_name_Hall           'P 1'
loop_
_symmetry_equiv_pos_site_id
_symmetry_equiv_pos_as_xyz
1 x,y,z
_cell_length_a                   34.747(17)
_cell_length_b                   20.899(10)
_cell_length_c                   14.292(10)
_cell_angle_alpha                90
_cell_angle_beta                 111.642(5)
_cell_angle_gamma                90
_cell_volume                     9646.91
loop_
_atom_site_label
_atom_site_type_symbol
_atom_site_fract_x
_atom_site_fract_y
_atom_site_fract_z
C1 C 0.80239(16) 0.3545(3) 0.2546(4)
H1 H 0.8154 0.3869 0.2997
C2 C 0.75989(15) 0.3549(3) 0.2059(4)
H2 H 0.7443 0.3878 0.2182
C3 C 0.74011(16) 0.3059(2) 0.1381(4)
C4 C 0.76331(17) 0.2568(2) 0.1198(4)
H3 H 0.7503 0.2244 0.0746
C5 C 0.80616(16) 0.2563(2) 0.1693(4)
H4 H 0.8217 0.2230 0.1578
C6 C 0.67209(17) 0.3204(2) 0.1350(4)
H5 H 0.6531 0.3550 0.1039
H6 H 0.6885 0.3317 0.2041
C7 C 0.64828(14) 0.2546(2) 0.1286(4)
C8 C 0.67632(16) 0.2030(2) 0.1905(4)
H7 H 0.6602 0.1680 0.2016
H8 H 0.6937 0.1864 0.1564
C9 C 0.74071(15) 0.2212(2) 0.3363(4)
C10 C 0.76575(15) 0.2666(2) 0.4129(4)
H9 H 0.7546 0.3047 0.4252
C11 C 0.80452(17) 0.2512(2) 0.4633(4)
H10 H 0.8200 0.2783 0.5152
C12 C 0.80104(15) 0.1568(3) 0.3735(4)
H11 H 0.8136 0.1207 0.3594
C13 C 0.76047(16) 0.1663(2) 0.3220(4)
H12 H 0.7453 0.1357 0.2759
C14 C 0.62077(15) 0.2793(3) 0.1792(4)
H13 H 0.6059 0.2441 0.1947
H14 H 0.6372 0.3003 0.2417
C15 C 0.55116(15) 0.3188(2) 0.0996(4)
C16 C 0.52605(14) 0.3605(2) 0.0325(4)
H15 H 0.5373 0.3917 0.0038
C17 C 0.48074(14) 0.3565(2) 0.0046(4)
C18 C 0.49363(15) 0.2809(2) 0.1289(4)
H17 H 0.4815 0.2534 0.1612
C19 C 0.53205(15) 0.2803(3) 0.1583(4)
H18 H 0.5481 0.2567 0.2144
C20 C 0.62761(17) 0.2194(3) 0.0323(4)
H20 H 0.6476 0.1937 0.0163
C25 C 0.52980(16) 0.1425(3) 0.0225(4)
H24 H 0.5413 0.1159 0.0781
C26 C 0.39941(16) 0.1767(2) 0.0664(4)
C27 C 0.39563(15) 0.1130(2) 0.0972(4)
C28 C 0.39638(16) 0.1054(2) 0.1964(4)
H25 H 0.3981 0.1411 0.2366
C29 C 0.39453(15) 0.0463(2) 0.2325(4)
H26 H 0.3949 0.0413 0.2975
C32 C 0.39408(15) 0.0577(2) 0.0364(4)
Cd1 Cd 0.396064(10) 0.311911(17) 0.01530(3)
N1 N 0.82586(13) 0.3050(2) 0.2356(3)
N2 N 0.82401(13) 0.1975(2) 0.4448(3)
N3 N 0.46787(12) 0.31774(18) 0.0548(3)
O1 O 0.69535(11) 0.30683(17) 0.0844(3)
O2 O 0.70048(10) 0.23087(16) 0.2818(3)
O3 O 0.59218(10) 0.32360(17) 0.1142(3)
O4 O 0.59668(11) 0.17928(16) 0.0465(3)
O6 O 0.40171(10) 0.22508(16) 0.1198(2)
Cd4 Cd 0.896064(10) 0.188089(17) 0.51530(3)
Cd6 Cd 0.897806(12) 0.311676(18) 0.30792(3)
O15 O 0.38994(10) 0.42349(17) 0.0081(3)
O16 O 0.39153(10) 0.37907(17) 0.1511(3)
H16 H 0.4626 0.3812 0.9530
H19 H 0.6149 0.2493 0.9776
C21 C 0.55433(16) 0.1799(2) 0.9892(3)
C22 C 0.53551(16) 0.2163(2) 0.9048(4)
H21 H 0.5516 0.2392 0.8770
C23 C 0.49263(15) 0.2194(2) 0.8603(4)
H22 H 0.4806 0.2480 0.8077
C24 C 0.48418(16) 0.1454(2) 0.9674(4)
H23 H 0.4667 0.1202 0.9879
H28 H 0.3940 0.0621 0.9715
C34 C 0.39734(16) 0.3194(2) 0.7655(4)
C35 C 0.39575(16) 0.3867(2) 0.7250(4)
C36 C 0.39944(16) 0.3937(2) 0.6304(4)
H29 H 0.4040 0.3584 0.5961
C37 C 0.39607(14) 0.4544(2) 0.5905(4)
H30 H 0.3977 0.4595 0.5274
C38 C 0.39040(14) 0.5076(2) 0.6395(4)
C39 C 0.38775(16) 0.5022(2) 0.7336(4)
H31 H 0.3859 0.5386 0.7690
C40 C 0.38785(17) 0.4391(2) 0.7761(4)
H32 H 0.3828 0.4338 0.8352
C41 C 0.39015(13) 0.5739(2) 0.5984(4)
Cd2 Cd 0.397806(12) 0.188324(18) 0.80792(3)
N4 N 0.46897(13) 0.18346(18) 0.8901(3)
O5 O 0.39465(10) 0.18503(15) 0.9562(3)
O9 O 0.40453(10) 0.27544(17) 0.7170(3)
O10 O 0.39457(11) 0.31433(14) 0.8655(3)
O11 O 0.38994(10) 0.57651(17) 0.5081(3)
O12 O 0.39153(10) 0.62093(17) 0.6511(3)
Cd3 Cd 0.396064(10) 0.688089(17) 0.51530(3)
N5 N 0.32586(13) 0.1950(2) 0.7356(3)
N6 N 0.32401(13) 0.3025(2) 0.9448(3)
O13 O 0.39430(11) 0.12119(17) 0.6682(3)
O14 O 0.39308(10) 0.07664(17) 0.8026(3)
C30 C 0.39194(18) 0.9913(3) 0.1709(4)
C31 C 0.39273(15) 0.9988(2) 0.0753(4)
H27 H 0.3923 0.9627 0.0369
C33 C 0.39223(16) 0.9269(2) 0.2154(4)
O7 O 0.39430(11) 0.87881(17) 0.1682(3)
O8 O 0.39308(10) 0.92336(17) 0.3026(3)
Cd5 Cd 0.397806(12) 0.811676(18) 0.30792(3)
C1_2 C 0.30239(16) 0.8545(3) 0.2546(4)
H1_2 H 0.3154 0.8869 0.2997
C2_2 C 0.25989(15) 0.8549(3) 0.2059(4)
H2_2 H 0.2443 0.8878 0.2182
C3_2 C 0.24011(16) 0.8059(2) 0.1381(4)
C4_2 C 0.26331(17) 0.7568(2) 0.1198(4)
H3_2 H 0.2503 0.7244 0.0746
C5_2 C 0.30616(16) 0.7563(2) 0.1693(4)
H4_2 H 0.3217 0.7230 0.1578
C6_2 C 0.17209(17) 0.8204(2) 0.1350(4)
H5_2 H 0.1531 0.8550 0.1039
H6_2 H 0.1885 0.8317 0.2041
C7_2 C 0.14828(14) 0.7546(2) 0.1286(4)
C8_2 C 0.17632(16) 0.7030(2) 0.1905(4)
H7_2 H 0.1602 0.6680 0.2016
H8_2 H 0.1937 0.6864 0.1564
C9_2 C 0.24071(15) 0.7212(2) 0.3363(4)
C10_2 C 0.26575(15) 0.7666(2) 0.4129(4)
H9_2 H 0.2546 0.8047 0.4252
C11_2 C 0.30452(17) 0.7512(2) 0.4633(4)
H10_2 H 0.3200 0.7783 0.5152
C12_2 C 0.30104(15) 0.6568(3) 0.3735(4)
H11_2 H 0.3136 0.6207 0.3594
C13_2 C 0.26047(16) 0.6663(2) 0.3220(4)
H12_2 H 0.2453 0.6357 0.2759
C14_2 C 0.12077(15) 0.7793(3) 0.1792(4)
H13_2 H 0.1059 0.7441 0.1947
H14_2 H 0.1372 0.8003 0.2417
C15_2 C 0.05116(15) 0.8188(2) 0.0996(4)
C16_2 C 0.02605(14) 0.8605(2) 0.0325(4)
H15_2 H 0.0373 0.8917 0.0038
C19_2 C 0.03205(15) 0.7803(3) 0.1583(4)
H18_2 H 0.0481 0.7567 0.2144
C20_2 C 0.12761(17) 0.7194(3) 0.0323(4)
H20_2 H 0.1476 0.6937 0.0163
C25_2 C 0.02980(16) 0.6425(3) 0.0225(4)
H24_2 H 0.0413 0.6159 0.0781
N1_2 N 0.32586(13) 0.8050(2) 0.2356(3)
N2_2 N 0.32401(13) 0.6975(2) 0.4448(3)
O1_2 O 0.19535(11) 0.80683(17) 0.0844(3)
O2_2 O 0.20048(10) 0.73087(16) 0.2818(3)
O3_2 O 0.09218(10) 0.82360(17) 0.1142(3)
O4_2 O 0.09668(11) 0.67928(16) 0.0465(3)
C38_2 C 0.89040(14) 0.0076(2) 0.6395(4)
C39_2 C 0.88775(16) 0.0022(2) 0.7336(4)
H31_2 H 0.8859 0.0386 0.7690
C41_2 C 0.89015(13) 0.0739(2) 0.5984(4)
O11_2 O 0.88994(10) 0.07651(17) 0.5081(3)
O12_2 O 0.89153(10) 0.12093(17) 0.6511(3)
C17_2 C 0.98074(14) 0.8565(2) 0.0046(4)
C18_2 C 0.99363(15) 0.7809(2) 0.1289(4)
H17_2 H 0.9815 0.7534 0.1612
C26_2 C 0.89941(16) 0.6767(2) 0.0664(4)
C27_2 C 0.89563(15) 0.6130(2) 0.0972(4)
C28_2 C 0.89638(16) 0.6054(2) 0.1964(4)
H25_2 H 0.8981 0.6411 0.2366
C29_2 C 0.89453(15) 0.5463(2) 0.2325(4)
H26_2 H 0.8949 0.5413 0.2975
C30_2 C 0.89194(18) 0.4913(3) 0.1709(4)
C31_2 C 0.89273(15) 0.4988(2) 0.0753(4)
H27_2 H 0.8923 0.4627 0.0369
C32_2 C 0.89408(15) 0.5577(2) 0.0364(4)
C33_2 C 0.89223(16) 0.4269(2) 0.2154(4)
Cd1_2 Cd 0.896064(10) 0.811911(17) 0.01530(3)
N3_2 N 0.96787(12) 0.81774(18) 0.0548(3)
O6_2 O 0.90171(10) 0.72508(16) 0.1198(2)
O7_2 O 0.89430(11) 0.37881(17) 0.1682(3)
O8_2 O 0.89308(10) 0.42336(17) 0.3026(3)
O15_2 O 0.88994(10) 0.92349(17) 0.0081(3)
O16_2 O 0.89153(10) 0.87907(17) 0.1511(3)
H16_2 H 0.9626 0.8812 0.9530
C23_2 C 0.99263(15) 0.7194(2) 0.8603(4)
H22_2 H 0.9806 0.7480 0.8077
C24_2 C 0.98418(16) 0.6454(2) 0.9674(4)
H23_2 H 0.9667 0.6202 0.9879
H28_2 H 0.8940 0.5621 0.9715
C34_2 C 0.89734(16) 0.8194(2) 0.7655(4)
C35_2 C 0.89575(16) 0.8867(2) 0.7250(4)
C36_2 C 0.89944(16) 0.8937(2) 0.6304(4)
H29_2 H 0.9040 0.8584 0.5961
C37_2 C 0.89607(14) 0.9544(2) 0.5905(4)
H30_2 H 0.8977 0.9595 0.5274
C40_2 C 0.88785(17) 0.9391(2) 0.7761(4)
H32_2 H 0.8828 0.9338 0.8352
Cd2_2 Cd 0.897806(12) 0.688324(18) 0.80792(3)
N4_2 N 0.96897(13) 0.68346(18) 0.8901(3)
O5_2 O 0.89465(10) 0.68503(15) 0.9562(3)
O9_2 O 0.90453(10) 0.77544(17) 0.7170(3)
O10_2 O 0.89457(11) 0.81433(14) 0.8655(3)
N5_2 N 0.82586(13) 0.6950(2) 0.7356(3)
N6_2 N 0.82401(13) 0.8025(2) 0.9448(3)
O13_2 O 0.89430(11) 0.62119(17) 0.6682(3)
O14_2 O 0.89308(10) 0.57664(17) 0.8026(3)
C30_3 C 0.39194(18) 0.0087(3) 0.6709(4)
C31_3 C 0.39273(15) 0.0012(2) 0.5753(4)
H27_3 H 0.3923 0.0373 0.5369
C33_3 C 0.39223(16) 0.0731(2) 0.7154(4)
H10_3 H 0.8200 0.7217 0.0152
C1_3 C 0.80239(16) 0.6455(3) 0.7546(4)
H1_3 H 0.8154 0.6131 0.7997
C2_3 C 0.75989(15) 0.6451(3) 0.7059(4)
H2_3 H 0.7443 0.6122 0.7182
C3_3 C 0.74011(16) 0.6941(2) 0.6381(4)
C4_3 C 0.76331(17) 0.7432(2) 0.6198(4)
H3_3 H 0.7503 0.7756 0.5746
C5_3 C 0.80616(16) 0.7437(2) 0.6693(4)
H4_3 H 0.8217 0.7770 0.6578
C6_3 C 0.67209(17) 0.6796(2) 0.6350(4)
H5_3 H 0.6531 0.6450 0.6039
H6_3 H 0.6885 0.6683 0.7041
C7_3 C 0.64828(14) 0.7454(2) 0.6286(4)
C8_3 C 0.67632(16) 0.7970(2) 0.6905(4)
H7_3 H 0.6602 0.8320 0.7016
H8_3 H 0.6937 0.8136 0.6564
C9_3 C 0.74071(15) 0.7788(2) 0.8363(4)
C10_3 C 0.76575(15) 0.7334(2) 0.9129(4)
H9_3 H 0.7546 0.6953 0.9252
C11_3 C 0.80452(17) 0.7488(2) 0.9633(4)
C12_3 C 0.80104(15) 0.8432(3) 0.8735(4)
H11_3 H 0.8136 0.8793 0.8594
C13_3 C 0.76047(16) 0.8337(2) 0.8220(4)
H12_3 H 0.7453 0.8643 0.7759
C14_3 C 0.62077(15) 0.7207(3) 0.6792(4)
H13_3 H 0.6059 0.7559 0.6947
H14_3 H 0.6372 0.6997 0.7417
C15_3 C 0.55116(15) 0.6812(2) 0.5996(4)
C16_3 C 0.52605(14) 0.6395(2) 0.5325(4)
H15_3 H 0.5373 0.6083 0.5038
C17_3 C 0.48074(14) 0.6435(2) 0.5046(4)
H16_3 H 0.4626 0.6188 0.4530
C18_3 C 0.49363(15) 0.7191(2) 0.6289(4)
H17_3 H 0.4815 0.7466 0.6612
C19_3 C 0.53205(15) 0.7197(3) 0.6583(4)
H18_3 H 0.5481 0.7433 0.7144
C20_3 C 0.62761(17) 0.7806(3) 0.5323(4)
H19_2 H 0.6149 0.7507 0.4776
H20_3 H 0.6476 0.8063 0.5163
C21_2 C 0.55433(16) 0.8201(2) 0.4892(3)
C22_2 C 0.53551(16) 0.7837(2) 0.4048(4)
H21_2 H 0.5516 0.7608 0.3770
C23_3 C 0.49263(15) 0.7806(2) 0.3603(4)
H22_3 H 0.4806 0.7520 0.3077
C24_3 C 0.48418(16) 0.8546(2) 0.4674(4)
H23_3 H 0.4667 0.8798 0.4879
C25_3 C 0.52980(16) 0.8575(3) 0.5225(4)
H24_3 H 0.5413 0.8841 0.5781
C26_3 C 0.39941(16) 0.8233(2) 0.5664(4)
C27_3 C 0.39563(15) 0.8870(2) 0.5972(4)
C28_3 C 0.39638(16) 0.8946(2) 0.6964(4)
H25_3 H 0.3981 0.8589 0.7366
C29_3 C 0.39453(15) 0.9537(2) 0.7325(4)
H26_3 H 0.3949 0.9587 0.7975
C32_3 C 0.39408(15) 0.9423(2) 0.5364(4)
H28_3 H 0.3940 0.9379 0.4715
C34_3 C 0.39734(16) 0.6806(2) 0.2655(4)
C35_3 C 0.39575(16) 0.6133(2) 0.2250(4)
C36_3 C 0.39944(16) 0.6063(2) 0.1304(4)
H29_3 H 0.4040 0.6416 0.0961
C37_3 C 0.39607(14) 0.5456(2) 0.0905(4)
H30_3 H 0.3977 0.5405 0.0274
C38_3 C 0.39040(14) 0.4924(2) 0.1395(4)
C39_3 C 0.38775(16) 0.4978(2) 0.2336(4)
H31_3 H 0.3859 0.4614 0.2690
C40_3 C 0.38785(17) 0.5609(2) 0.2761(4)
H32_3 H 0.3828 0.5662 0.3352
C41_3 C 0.39015(13) 0.4261(2) 0.0984(4)
N3_3 N 0.46787(12) 0.68226(18) 0.5548(3)
N4_3 N 0.46897(13) 0.81654(18) 0.3901(3)
O1_3 O 0.69535(11) 0.69317(17) 0.5844(3)
O2_3 O 0.70048(10) 0.76913(16) 0.7818(3)
O3_3 O 0.59218(10) 0.67640(17) 0.6142(3)
O4_3 O 0.59668(11) 0.82072(16) 0.5465(3)
O5_3 O 0.39465(10) 0.81497(15) 0.4562(3)
O6_3 O 0.40171(10) 0.77492(16) 0.6198(2)
O9_3 O 0.40453(10) 0.72456(17) 0.2170(3)
O10_3 O 0.39457(11) 0.68567(14) 0.3655(3)
H10_4 H 0.3200 0.2217 0.0152
C1_4 C 0.30239(16) 0.1455(3) 0.7546(4)
H1_4 H 0.3154 0.1131 0.7997
C2_4 C 0.25989(15) 0.1451(3) 0.7059(4)
H2_4 H 0.2443 0.1122 0.7182
C3_4 C 0.24011(16) 0.1941(2) 0.6381(4)
C4_4 C 0.26331(17) 0.2432(2) 0.6198(4)
H3_4 H 0.2503 0.2756 0.5746
C5_4 C 0.30616(16) 0.2437(2) 0.6693(4)
H4_4 H 0.3217 0.2770 0.6578
C6_4 C 0.17209(17) 0.1796(2) 0.6350(4)
H5_4 H 0.1531 0.1450 0.6039
H6_4 H 0.1885 0.1683 0.7041
C7_4 C 0.14828(14) 0.2454(2) 0.6286(4)
C8_4 C 0.17632(16) 0.2970(2) 0.6905(4)
H7_4 H 0.1602 0.3320 0.7016
H8_4 H 0.1937 0.3136 0.6564
C9_4 C 0.24071(15) 0.2788(2) 0.8363(4)
C10_4 C 0.26575(15) 0.2334(2) 0.9129(4)
H9_4 H 0.2546 0.1953 0.9252
C11_4 C 0.30452(17) 0.2488(2) 0.9633(4)
C12_4 C 0.30104(15) 0.3432(3) 0.8735(4)
H11_4 H 0.3136 0.3793 0.8594
C13_4 C 0.26047(16) 0.3337(2) 0.8220(4)
H12_4 H 0.2453 0.3643 0.7759
C14_4 C 0.12077(15) 0.2207(3) 0.6792(4)
H13_4 H 0.1059 0.2559 0.6947
H14_4 H 0.1372 0.1997 0.7417
C15_4 C 0.05116(15) 0.1812(2) 0.5996(4)
C16_4 C 0.02605(14) 0.1395(2) 0.5325(4)
H15_4 H 0.0373 0.1083 0.5038
C19_4 C 0.03205(15) 0.2197(3) 0.6583(4)
H18_4 H 0.0481 0.2433 0.7144
C20_4 C 0.12761(17) 0.2806(3) 0.5323(4)
H19_3 H 0.1149 0.2507 0.4776
H20_4 H 0.1476 0.3063 0.5163
C21_3 C 0.05433(16) 0.3201(2) 0.4892(3)
C22_3 C 0.03551(16) 0.2837(2) 0.4048(4)
H21_3 H 0.0516 0.2608 0.3770
C25_4 C 0.02980(16) 0.3575(3) 0.5225(4)
H24_4 H 0.0413 0.3841 0.5781
O1_4 O 0.19535(11) 0.19317(17) 0.5844(3)
O2_4 O 0.20048(10) 0.26913(16) 0.7818(3)
O3_4 O 0.09218(10) 0.17640(17) 0.6142(3)
O4_4 O 0.09668(11) 0.32072(16) 0.5465(3)
C17_4 C 0.98074(14) 0.1435(2) 0.5046(4)
H16_4 H 0.9626 0.1188 0.4530
C18_4 C 0.99363(15) 0.2191(2) 0.6289(4)
H17_4 H 0.9815 0.2466 0.6612
C23_4 C 0.99263(15) 0.2806(2) 0.3603(4)
H22_4 H 0.9806 0.2520 0.3077
C24_4 C 0.98418(16) 0.3546(2) 0.4674(4)
H23_4 H 0.9667 0.3798 0.4879
C26_4 C 0.89941(16) 0.3233(2) 0.5664(4)
C27_4 C 0.89563(15) 0.3870(2) 0.5972(4)
C28_4 C 0.89638(16) 0.3946(2) 0.6964(4)
H25_4 H 0.8981 0.3589 0.7366
C29_4 C 0.89453(15) 0.4537(2) 0.7325(4)
H26_4 H 0.8949 0.4587 0.7975
C30_4 C 0.89194(18) 0.5087(3) 0.6709(4)
C31_4 C 0.89273(15) 0.5012(2) 0.5753(4)
H27_4 H 0.8923 0.5373 0.5369
C32_4 C 0.89408(15) 0.4423(2) 0.5364(4)
H28_4 H 0.8940 0.4379 0.4715
C33_4 C 0.89223(16) 0.5731(2) 0.7154(4)
C34_4 C 0.89734(16) 0.1806(2) 0.2655(4)
C35_4 C 0.89575(16) 0.1133(2) 0.2250(4)
C36_4 C 0.89944(16) 0.1063(2) 0.1304(4)
H29_4 H 0.9040 0.1416 0.0961
C37_4 C 0.89607(14) 0.0456(2) 0.0905(4)
H30_4 H 0.8977 0.0405 0.0274
C40_4 C 0.88785(17) 0.0609(2) 0.2761(4)
H32_4 H 0.8828 0.0662 0.3352
N3_4 N 0.96787(12) 0.18226(18) 0.5548(3)
N4_4 N 0.96897(13) 0.31654(18) 0.3901(3)
O5_4 O 0.89465(10) 0.31497(15) 0.4562(3)
O6_4 O 0.90171(10) 0.27492(16) 0.6198(2)
O9_4 O 0.90453(10) 0.22456(17) 0.2170(3)
O10_4 O 0.89457(11) 0.18567(14) 0.3655(3)
C38_4 C 0.89040(14) 0.9924(2) 0.1395(4)
C39_4 C 0.88775(16) 0.9978(2) 0.2336(4)
H31_4 H 0.8859 0.9614 0.2690
C41_4 C 0.89015(13) 0.9261(2) 0.0984(4)
C1_5 C 0.19761(16) 0.3545(3) 0.2454(4)
H1_5 H 0.1846 0.3869 0.2003
C2_5 C 0.24011(15) 0.3549(3) 0.2941(4)
H2_5 H 0.2557 0.3878 0.2818
C3_5 C 0.25989(16) 0.3059(2) 0.3619(4)
C4_5 C 0.23669(17) 0.2568(2) 0.3802(4)
H3_5 H 0.2497 0.2244 0.4254
C5_5 C 0.19384(16) 0.2563(2) 0.3307(4)
H4_5 H 0.1783 0.2230 0.3422
C6_5 C 0.32791(17) 0.3204(2) 0.3650(4)
H5_5 H 0.3469 0.3550 0.3961
H6_5 H 0.3115 0.3317 0.2959
C7_5 C 0.35172(14) 0.2546(2) 0.3714(4)
C8_5 C 0.32368(16) 0.2030(2) 0.3095(4)
H7_5 H 0.3398 0.1680 0.2984
H8_5 H 0.3063 0.1864 0.3436
C9_5 C 0.25929(15) 0.2212(2) 0.1637(4)
C10_5 C 0.23425(15) 0.2666(2) 0.0871(4)
H9_5 H 0.2454 0.3047 0.0748
C11_5 C 0.19548(17) 0.2512(2) 0.0367(4)
C12_5 C 0.19896(15) 0.1568(3) 0.1265(4)
H11_5 H 0.1864 0.1207 0.1406
C13_5 C 0.23953(16) 0.1663(2) 0.1780(4)
H12_5 H 0.2547 0.1357 0.2241
C14_5 C 0.37923(15) 0.2793(3) 0.3208(4)
H13_5 H 0.3941 0.2441 0.3053
H14_5 H 0.3628 0.3003 0.2583
C15_5 C 0.44884(15) 0.3188(2) 0.4004(4)
C16_5 C 0.47395(14) 0.3605(2) 0.4675(4)
H15_5 H 0.4627 0.3917 0.4962
C17_5 C 0.51926(14) 0.3565(2) 0.4954(4)
H16_5 H 0.5374 0.3812 0.5470
C18_5 C 0.50637(15) 0.2809(2) 0.3711(4)
H17_5 H 0.5185 0.2534 0.3388
C19_5 C 0.46795(15) 0.2803(3) 0.3417(4)
H18_5 H 0.4519 0.2567 0.2856
C20_5 C 0.37239(17) 0.2194(3) 0.4677(4)
H19_4 H 0.3851 0.2493 0.5224
H20_5 H 0.3524 0.1937 0.4837
C21_4 C 0.44567(16) 0.1799(2) 0.5108(3)
C22_4 C 0.46449(16) 0.2163(2) 0.5952(4)
H21_4 H 0.4484 0.2392 0.6230
C23_5 C 0.50737(15) 0.2194(2) 0.6397(4)
H22_5 H 0.5194 0.2480 0.6923
C24_5 C 0.51582(16) 0.1454(2) 0.5326(4)
H23_5 H 0.5333 0.1202 0.5121
C25_5 C 0.47020(16) 0.1425(3) 0.4775(4)
H24_5 H 0.4587 0.1159 0.4219
C26_5 C 0.60059(16) 0.1767(2) 0.4336(4)
C27_5 C 0.60437(15) 0.1130(2) 0.4028(4)
C28_5 C 0.60362(16) 0.1054(2) 0.3036(4)
H25_5 H 0.6019 0.1411 0.2634
C29_5 C 0.60547(15) 0.0463(2) 0.2675(4)
H26_5 H 0.6051 0.0413 0.2025
C32_5 C 0.60592(15) 0.0577(2) 0.4636(4)
H28_5 H 0.6060 0.0621 0.5285
C34_5 C 0.60266(16) 0.3194(2) 0.7345(4)
C35_5 C 0.60425(16) 0.3867(2) 0.7750(4)
C36_5 C 0.60056(16) 0.3937(2) 0.8696(4)
H29_5 H 0.5960 0.3584 0.9039
C37_5 C 0.60393(14) 0.4544(2) 0.9095(4)
H30_5 H 0.6023 0.4595 0.9726
C38_5 C 0.60960(14) 0.5076(2) 0.8605(4)
C39_5 C 0.61225(16) 0.5022(2) 0.7664(4)
H31_5 H 0.6141 0.5386 0.7310
C40_5 C 0.61215(17) 0.4391(2) 0.7239(4)
H32_5 H 0.6172 0.4338 0.6648
C41_5 C 0.60985(13) 0.5739(2) 0.9016(4)
Cd1_3 Cd 0.603936(10) 0.311911(17) 0.48470(3)
Cd2_3 Cd 0.602194(12) 0.188324(18) 0.69208(3)
N1_3 N 0.17414(13) 0.3050(2) 0.2644(3)
N2_3 N 0.17599(13) 0.1975(2) 0.0552(3)
N3_5 N 0.53213(12) 0.31774(18) 0.4452(3)
N4_5 N 0.53103(13) 0.18346(18) 0.6099(3)
O1_5 O 0.30465(11) 0.30683(17) 0.4156(3)
O2_5 O 0.29952(10) 0.23087(16) 0.2182(3)
O3_5 O 0.40782(10) 0.32360(17) 0.3858(3)
O4_5 O 0.40332(11) 0.17928(16) 0.4535(3)
O5_5 O 0.60535(10) 0.18503(15) 0.5438(3)
O6_5 O 0.59829(10) 0.22508(16) 0.3802(2)
O9_5 O 0.59547(10) 0.27544(17) 0.7830(3)
O10_5 O 0.60543(11) 0.31433(14) 0.6345(3)
O11_3 O 0.61006(10) 0.57651(17) 0.9919(3)
O12_3 O 0.60847(10) 0.62093(17) 0.8489(3)
Cd3_2 Cd 0.603936(10) 0.688089(17) 0.98470(3)
Cd6_2 Cd 0.102194(12) 0.311676(18) 0.19208(3)
N5_3 N 0.67414(13) 0.1950(2) 0.7644(3)
N6_3 N 0.67599(13) 0.3025(2) 0.5552(3)
O13_3 O 0.60570(11) 0.12119(17) 0.8318(3)
O14_3 O 0.60692(10) 0.07664(17) 0.6974(3)
O15_3 O 0.61006(10) 0.42349(17) 0.4919(3)
O16_3 O 0.60847(10) 0.37907(17) 0.3489(3)
H10_5 H 0.1800 0.2783 0.9848
Cd4_2 Cd 0.103936(10) 0.188089(17) 0.98470(3)
C30_5 C 0.60806(18) 0.9913(3) 0.3291(4)
C31_5 C 0.60727(15) 0.9988(2) 0.4247(4)
H27_5 H 0.6077 0.9627 0.4631
C33_5 C 0.60777(16) 0.9269(2) 0.2846(4)
O7_3 O 0.60570(11) 0.87881(17) 0.3318(3)
O8_3 O 0.60692(10) 0.92336(17) 0.1974(3)
Cd5_2 Cd 0.602194(12) 0.811676(18) 0.19208(3)
C38_6 C 0.10960(14) 0.0076(2) 0.8605(4)
C39_6 C 0.11225(16) 0.0022(2) 0.7664(4)
H31_6 H 0.1141 0.0386 0.7310
C41_6 C 0.10985(13) 0.0739(2) 0.9016(4)
O11_4 O 0.11006(10) 0.07651(17) 0.9919(3)
O12_4 O 0.10847(10) 0.12093(17) 0.8489(3)
C17_6 C 0.01926(14) 0.8565(2) 0.4954(4)
H16_6 H 0.0374 0.8812 0.5470
C18_6 C 0.00637(15) 0.7809(2) 0.3711(4)
H17_6 H 0.0185 0.7534 0.3388
C23_6 C 0.00737(15) 0.7194(2) 0.6397(4)
H22_6 H 0.0194 0.7480 0.6923
C24_6 C 0.01582(16) 0.6454(2) 0.5326(4)
H23_6 H 0.0333 0.6202 0.5121
C26_6 C 0.10059(16) 0.6767(2) 0.4336(4)
C27_6 C 0.10437(15) 0.6130(2) 0.4028(4)
C28_6 C 0.10362(16) 0.6054(2) 0.3036(4)
H25_6 H 0.1019 0.6411 0.2634
C29_6 C 0.10547(15) 0.5463(2) 0.2675(4)
H26_6 H 0.1051 0.5413 0.2025
C30_6 C 0.10806(18) 0.4913(3) 0.3291(4)
C31_6 C 0.10727(15) 0.4988(2) 0.4247(4)
H27_6 H 0.1077 0.4627 0.4631
C32_6 C 0.10592(15) 0.5577(2) 0.4636(4)
H28_6 H 0.1060 0.5621 0.5285
C33_6 C 0.10777(16) 0.4269(2) 0.2846(4)
C34_6 C 0.10266(16) 0.8194(2) 0.7345(4)
C35_6 C 0.10425(16) 0.8867(2) 0.7750(4)
C36_6 C 0.10056(16) 0.8937(2) 0.8696(4)
H29_6 H 0.0960 0.8584 0.9039
C37_6 C 0.10393(14) 0.9544(2) 0.9095(4)
H30_6 H 0.1023 0.9595 0.9726
C40_6 C 0.11215(17) 0.9391(2) 0.7239(4)
H32_6 H 0.1172 0.9338 0.6648
Cd1_4 Cd 0.103936(10) 0.811911(17) 0.48470(3)
Cd2_4 Cd 0.102194(12) 0.688324(18) 0.69208(3)
N3_6 N 0.03213(12) 0.81774(18) 0.4452(3)
N4_6 N 0.03103(13) 0.68346(18) 0.6099(3)
O5_6 O 0.10535(10) 0.68503(15) 0.5438(3)
O6_6 O 0.09829(10) 0.72508(16) 0.3802(2)
O7_4 O 0.10570(11) 0.37881(17) 0.3318(3)
O8_4 O 0.10692(10) 0.42336(17) 0.1974(3)
O9_6 O 0.09547(10) 0.77544(17) 0.7830(3)
O10_6 O 0.10543(11) 0.81433(14) 0.6345(3)
N5_4 N 0.17414(13) 0.6950(2) 0.7644(3)
N6_4 N 0.17599(13) 0.8025(2) 0.5552(3)
O13_4 O 0.10570(11) 0.62119(17) 0.8318(3)
O14_4 O 0.10692(10) 0.57664(17) 0.6974(3)
O15_4 O 0.11006(10) 0.92349(17) 0.4919(3)
O16_4 O 0.10847(10) 0.87907(17) 0.3489(3)
C1_6 C 0.69761(16) 0.8545(3) 0.2454(4)
H1_6 H 0.6846 0.8869 0.2003
C2_6 C 0.74011(15) 0.8549(3) 0.2941(4)
H2_6 H 0.7557 0.8878 0.2818
C3_6 C 0.75989(16) 0.8059(2) 0.3619(4)
C4_6 C 0.73669(17) 0.7568(2) 0.3802(4)
H3_6 H 0.7497 0.7244 0.4254
C5_6 C 0.69384(16) 0.7563(2) 0.3307(4)
H4_6 H 0.6783 0.7230 0.3422
C6_6 C 0.82791(17) 0.8204(2) 0.3650(4)
H5_6 H 0.8469 0.8550 0.3961
H6_6 H 0.8115 0.8317 0.2959
C7_6 C 0.85172(14) 0.7546(2) 0.3714(4)
C8_6 C 0.82368(16) 0.7030(2) 0.3095(4)
H7_6 H 0.8398 0.6680 0.2984
H8_6 H 0.8063 0.6864 0.3436
C9_6 C 0.75929(15) 0.7212(2) 0.1637(4)
C10_6 C 0.73425(15) 0.7666(2) 0.0871(4)
H9_6 H 0.7454 0.8047 0.0748
C11_6 C 0.69548(17) 0.7512(2) 0.0367(4)
C12_6 C 0.69896(15) 0.6568(3) 0.1265(4)
H11_6 H 0.6864 0.6207 0.1406
C13_6 C 0.73953(16) 0.6663(2) 0.1780(4)
H12_6 H 0.7547 0.6357 0.2241
C14_6 C 0.87923(15) 0.7793(3) 0.3208(4)
H13_6 H 0.8941 0.7441 0.3053
H14_6 H 0.8628 0.8003 0.2583
C15_6 C 0.94884(15) 0.8188(2) 0.4004(4)
C16_6 C 0.97395(14) 0.8605(2) 0.4675(4)
H15_6 H 0.9627 0.8917 0.4962
C19_6 C 0.96795(15) 0.7803(3) 0.3417(4)
H18_6 H 0.9519 0.7567 0.2856
C20_6 C 0.87239(17) 0.7194(3) 0.4677(4)
H19_5 H 0.8851 0.7493 0.5224
H20_6 H 0.8524 0.6937 0.4837
C21_5 C 0.94567(16) 0.6799(2) 0.5108(3)
C22_5 C 0.96449(16) 0.7163(2) 0.5952(4)
H21_5 H 0.9484 0.7392 0.6230
C25_6 C 0.97020(16) 0.6425(3) 0.4775(4)
H24_6 H 0.9587 0.6159 0.4219
N1_4 N 0.67414(13) 0.8050(2) 0.2644(3)
N2_4 N 0.67599(13) 0.6975(2) 0.0552(3)
O1_6 O 0.80465(11) 0.80683(17) 0.4156(3)
O2_6 O 0.79952(10) 0.73087(16) 0.2182(3)
O3_6 O 0.90782(10) 0.82360(17) 0.3858(3)
O4_6 O 0.90332(11) 0.67928(16) 0.4535(3)
H10_6 H 0.6800 0.7783 0.9848
C30_7 C 0.60806(18) 0.0087(3) 0.8291(4)
C31_7 C 0.60727(15) 0.0012(2) 0.9247(4)
H27_7 H 0.6077 0.0373 0.9631
C33_7 C 0.60777(16) 0.0731(2) 0.7846(4)
H16_7 H 0.5374 0.6188 0.0470
H19_6 H 0.3851 0.7507 0.0224
C21_6 C 0.44567(16) 0.8201(2) 0.0108(3)
C22_6 C 0.46449(16) 0.7837(2) 0.0952(4)
H21_6 H 0.4484 0.7608 0.1230
C23_7 C 0.50737(15) 0.7806(2) 0.1397(4)
H22_7 H 0.5194 0.7520 0.1923
C24_7 C 0.51582(16) 0.8546(2) 0.0326(4)
H23_7 H 0.5333 0.8798 0.0121
H28_7 H 0.6060 0.9379 0.0285
C34_7 C 0.60266(16) 0.6806(2) 0.2345(4)
C35_7 C 0.60425(16) 0.6133(2) 0.2750(4)
C36_7 C 0.60056(16) 0.6063(2) 0.3696(4)
H29_7 H 0.5960 0.6416 0.4039
C37_7 C 0.60393(14) 0.5456(2) 0.4095(4)
H30_7 H 0.6023 0.5405 0.4726
C38_7 C 0.60960(14) 0.4924(2) 0.3605(4)
C39_7 C 0.61225(16) 0.4978(2) 0.2664(4)
H31_7 H 0.6141 0.4614 0.2310
C40_7 C 0.61215(17) 0.5609(2) 0.2239(4)
H32_7 H 0.6172 0.5662 0.1648
C41_7 C 0.60985(13) 0.4261(2) 0.4016(4)
N4_7 N 0.53103(13) 0.81654(18) 0.1099(3)
O5_7 O 0.60535(10) 0.81497(15) 0.0438(3)
O9_7 O 0.59547(10) 0.72456(17) 0.2830(3)
O10_7 O 0.60543(11) 0.68567(14) 0.1345(3)
C1_7 C 0.19761(16) 0.6455(3) 0.7454(4)
H1_7 H 0.1846 0.6131 0.7003
C2_7 C 0.24011(15) 0.6451(3) 0.7941(4)
H2_7 H 0.2557 0.6122 0.7818
C3_7 C 0.25989(16) 0.6941(2) 0.8619(4)
C4_7 C 0.23669(17) 0.7432(2) 0.8802(4)
H3_7 H 0.2497 0.7756 0.9254
C5_7 C 0.19384(16) 0.7437(2) 0.8307(4)
H4_7 H 0.1783 0.7770 0.8422
C6_7 C 0.32791(17) 0.6796(2) 0.8650(4)
H5_7 H 0.3469 0.6450 0.8961
H6_7 H 0.3115 0.6683 0.7959
C7_7 C 0.35172(14) 0.7454(2) 0.8714(4)
C8_7 C 0.32368(16) 0.7970(2) 0.8095(4)
H7_7 H 0.3398 0.8320 0.7984
H8_7 H 0.3063 0.8136 0.8436
C9_7 C 0.25929(15) 0.7788(2) 0.6637(4)
C10_7 C 0.23425(15) 0.7334(2) 0.5871(4)
H9_7 H 0.2454 0.6953 0.5748
C11_7 C 0.19548(17) 0.7488(2) 0.5367(4)
H10_7 H 0.1800 0.7217 0.4848
C12_7 C 0.19896(15) 0.8432(3) 0.6265(4)
H11_7 H 0.1864 0.8793 0.6406
C13_7 C 0.23953(16) 0.8337(2) 0.6780(4)
H12_7 H 0.2547 0.8643 0.7241
C14_7 C 0.37923(15) 0.7207(3) 0.8208(4)
H13_7 H 0.3941 0.7559 0.8053
H14_7 H 0.3628 0.6997 0.7583
C15_7 C 0.44884(15) 0.6812(2) 0.9004(4)
C16_7 C 0.47395(14) 0.6395(2) 0.9675(4)
H15_7 H 0.4627 0.6083 0.9962
C17_7 C 0.51926(14) 0.6435(2) 0.9954(4)
C18_7 C 0.50637(15) 0.7191(2) 0.8711(4)
H17_7 H 0.5185 0.7466 0.8388
C19_7 C 0.46795(15) 0.7197(3) 0.8417(4)
H18_7 H 0.4519 0.7433 0.7856
C20_7 C 0.37239(17) 0.7806(3) 0.9677(4)
H20_7 H 0.3524 0.8063 0.9837
C25_7 C 0.47020(16) 0.8575(3) 0.9775(4)
H24_7 H 0.4587 0.8841 0.9219
C26_7 C 0.60059(16) 0.8233(2) 0.9336(4)
C27_7 C 0.60437(15) 0.8870(2) 0.9028(4)
C28_7 C 0.60362(16) 0.8946(2) 0.8036(4)
H25_7 H 0.6019 0.8589 0.7634
C29_7 C 0.60547(15) 0.9537(2) 0.7675(4)
H26_7 H 0.6051 0.9587 0.7025
C32_7 C 0.60592(15) 0.9423(2) 0.9636(4)
N3_7 N 0.53213(12) 0.68226(18) 0.9452(3)
O1_7 O 0.30465(11) 0.69317(17) 0.9156(3)
O2_7 O 0.29952(10) 0.76913(16) 0.7182(3)
O3_7 O 0.40782(10) 0.67640(17) 0.8858(3)
O4_7 O 0.40332(11) 0.82072(16) 0.9535(3)
O6_7 O 0.59829(10) 0.77492(16) 0.8802(2)
H16_8 H 0.0374 0.1188 0.0470
C23_8 C 0.00737(15) 0.2806(2) 0.1397(4)
H22_8 H 0.0194 0.2520 0.1923
C24_8 C 0.01582(16) 0.3546(2) 0.0326(4)
H23_8 H 0.0333 0.3798 0.0121
H28_8 H 0.1060 0.4379 0.0285
C34_8 C 0.10266(16) 0.1806(2) 0.2345(4)
C35_8 C 0.10425(16) 0.1133(2) 0.2750(4)
C36_8 C 0.10056(16) 0.1063(2) 0.3696(4)
H29_8 H 0.0960 0.1416 0.4039
C37_8 C 0.10393(14) 0.0456(2) 0.4095(4)
H30_8 H 0.1023 0.0405 0.4726
C40_8 C 0.11215(17) 0.0609(2) 0.2239(4)
H32_8 H 0.1172 0.0662 0.1648
N4_8 N 0.03103(13) 0.31654(18) 0.1099(3)
O5_8 O 0.10535(10) 0.31497(15) 0.0438(3)
O9_8 O 0.09547(10) 0.22456(17) 0.2830(3)
O10_8 O 0.10543(11) 0.18567(14) 0.1345(3)
C17_8 C 0.01926(14) 0.1435(2) 0.9954(4)
C18_8 C 0.00637(15) 0.2191(2) 0.8711(4)
H17_8 H 0.0185 0.2466 0.8388
C26_8 C 0.10059(16) 0.3233(2) 0.9336(4)
C27_8 C 0.10437(15) 0.3870(2) 0.9028(4)
C28_8 C 0.10362(16) 0.3946(2) 0.8036(4)
H25_8 H 0.1019 0.3589 0.7634
C29_8 C 0.10547(15) 0.4537(2) 0.7675(4)
H26_8 H 0.1051 0.4587 0.7025
C30_8 C 0.10806(18) 0.5087(3) 0.8291(4)
C31_8 C 0.10727(15) 0.5012(2) 0.9247(4)
H27_8 H 0.1077 0.5373 0.9631
C32_8 C 0.10592(15) 0.4423(2) 0.9636(4)
C33_8 C 0.10777(16) 0.5731(2) 0.7846(4)
N3_8 N 0.03213(12) 0.18226(18) 0.9452(3)
O6_8 O 0.09829(10) 0.27492(16) 0.8802(2)
C38_8 C 0.10960(14) 0.9924(2) 0.3605(4)
C39_8 C 0.11225(16) 0.9978(2) 0.2664(4)
H31_8 H 0.1141 0.9614 0.2310
C41_8 C 0.10985(13) 0.9261(2) 0.4016(4)
C1_8 C 0.69761(16) 0.1455(3) 0.7454(4)
H1_8 H 0.6846 0.1131 0.7003
C2_8 C 0.74011(15) 0.1451(3) 0.7941(4)
H2_8 H 0.7557 0.1122 0.7818
C3_8 C 0.75989(16) 0.1941(2) 0.8619(4)
C4_8 C 0.73669(17) 0.2432(2) 0.8802(4)
H3_8 H 0.7497 0.2756 0.9254
C5_8 C 0.69384(16) 0.2437(2) 0.8307(4)
H4_8 H 0.6783 0.2770 0.8422
C6_8 C 0.82791(17) 0.1796(2) 0.8650(4)
H5_8 H 0.8469 0.1450 0.8961
H6_8 H 0.8115 0.1683 0.7959
C7_8 C 0.85172(14) 0.2454(2) 0.8714(4)
C8_8 C 0.82368(16) 0.2970(2) 0.8095(4)
H7_8 H 0.8398 0.3320 0.7984
H8_8 H 0.8063 0.3136 0.8436
C9_8 C 0.75929(15) 0.2788(2) 0.6637(4)
C10_8 C 0.73425(15) 0.2334(2) 0.5871(4)
H9_8 H 0.7454 0.1953 0.5748
C11_8 C 0.69548(17) 0.2488(2) 0.5367(4)
H10_8 H 0.6800 0.2217 0.4848
C12_8 C 0.69896(15) 0.3432(3) 0.6265(4)
H11_8 H 0.6864 0.3793 0.6406
C13_8 C 0.73953(16) 0.3337(2) 0.6780(4)
H12_8 H 0.7547 0.3643 0.7241
C14_8 C 0.87923(15) 0.2207(3) 0.8208(4)
H13_8 H 0.8941 0.2559 0.8053
H14_8 H 0.8628 0.1997 0.7583
C15_8 C 0.94884(15) 0.1812(2) 0.9004(4)
C16_8 C 0.97395(14) 0.1395(2) 0.9675(4)
H15_8 H 0.9627 0.1083 0.9962
C19_8 C 0.96795(15) 0.2197(3) 0.8417(4)
H18_8 H 0.9519 0.2433 0.7856
C20_8 C 0.87239(17) 0.2806(3) 0.9677(4)
H20_8 H 0.8524 0.3063 0.9837
C25_8 C 0.97020(16) 0.3575(3) 0.9775(4)
H24_8 H 0.9587 0.3841 0.9219
O1_8 O 0.80465(11) 0.19317(17) 0.9156(3)
O2_8 O 0.79952(10) 0.26913(16) 0.7182(3)
O3_8 O 0.90782(10) 0.17640(17) 0.8858(3)
O4_8 O 0.90332(11) 0.32072(16) 0.9535(3)
H19_7 H 0.1149 0.7493 0.9776
C21_7 C 0.05433(16) 0.6799(2) 0.9892(3)
C22_7 C 0.03551(16) 0.7163(2) 0.9048(4)
H21_7 H 0.0516 0.7392 0.8770
H19_8 H 0.8851 0.2507 0.0224
C21_8 C 0.94567(16) 0.3201(2) 0.0108(3)
C22_8 C 0.96449(16) 0.2837(2) 0.0952(4)
H21_8 H 0.9484 0.2608 0.1230
loop_
_geom_bond_atom_site_label_1
_geom_bond_atom_site_label_2
_geom_bond_site_symmetry_1
_geom_bond_site_symmetry_2
C1 H1 1_555 1_555
C2 C1 1_555 1_555
H2 C2 1_555 1_555
C3 C2 1_555 1_555
C4 C3 1_555 1_555
H3 C4 1_555 1_555
C5 C4 1_555 1_555
H4 C5 1_555 1_555
C6 H5 1_555 1_555
H6 C6 1_555 1_555
C7 C6 1_555 1_555
C8 C7 1_555 1_555
H7 C8 1_555 1_555
H8 C8 1_555 1_555
C9 C10 1_555 1_555
C10 H9 1_555 1_555
C11 C10 1_555 1_555
H10 C11 1_555 1_555
C12 H11 1_555 1_555
C13 C9 1_555 1_555
H12 C13 1_555 1_555
C14 C7 1_555 1_555
H13 C14 1_555 1_555
H14 C14 1_555 1_555
C15 C16 1_555 1_555
C16 H15 1_555 1_555
C17 C16 1_555 1_555
C18 H17 1_555 1_555
C19 C15 1_555 1_555
H18 C19 1_555 1_555
C20 C7 1_555 1_555
H20 C20 1_555 1_555
H24 C25 1_555 1_555
C26 C27 1_555 1_555
C27 C28 1_555 1_555
C28 H25 1_555 1_555
C29 C28 1_555 1_555
H26 C29 1_555 1_555
C32 C27 1_555 1_555
Cd1 N3 1_555 1_555
N1 C1 1_555 1_555
N2 C11 1_555 1_555
N3 C17 1_555 1_555
O1 C3 1_555 1_555
O2 C8 1_555 1_555
O3 C14 1_555 1_555
O4 C20 1_555 1_555
O6 C26 1_555 1_555
Cd4 N2 1_555 1_555
Cd6 N1 1_555 1_555
O15 Cd1 1_555 1_555
O16 Cd1 1_555 1_555
C5 N1 1_555 1_555
C6 O1 1_555 1_555
C9 O2 1_555 1_555
C12 C13 1_555 1_555
C12 N2 1_555 1_555
C15 O3 1_555 1_555
C18 C19 1_555 1_555
C18 N3 1_555 1_555
Cd1 O6 1_555 1_555
C21 C22 1_555 1_555
C22 H21 1_555 1_555
C23 C22 1_555 1_555
H22 C23 1_555 1_555
C24 H23 1_555 1_555
C34 C35 1_555 1_555
C35 C36 1_555 1_555
C36 H29 1_555 1_555
C37 C36 1_555 1_555
H30 C37 1_555 1_555
C38 C37 1_555 1_555
C39 C38 1_555 1_555
H31 C39 1_555 1_555
C40 C35 1_555 1_555
H32 C40 1_555 1_555
C41 C38 1_555 1_555
Cd2 N4 1_555 1_555
N4 C23 1_555 1_555
O9 C34 1_555 1_555
O10 C34 1_555 1_555
O11 C41 1_555 1_555
O12 C41 1_555 1_555
Cd3 O11 1_555 1_555
N5 Cd2 1_555 1_555
O13 Cd2 1_555 1_555
O14 Cd2 1_555 1_555
C24 N4 1_555 1_555
C39 C40 1_555 1_555
Cd2 O5 1_555 1_555
Cd2 O9 1_555 1_555
Cd2 O10 1_555 1_555
O12 Cd3 1_555 1_555
C31 C30 1_555 1_555
H27 C31 1_555 1_555
C33 C30 1_555 1_555
O7 C33 1_555 1_555
O8 C33 1_555 1_555
Cd5 O7 1_555 1_555
O8 Cd5 1_555 1_555
C1_2 H1_2 1_555 1_555
C2_2 C1_2 1_555 1_555
H2_2 C2_2 1_555 1_555
C3_2 C2_2 1_555 1_555
C4_2 C3_2 1_555 1_555
H3_2 C4_2 1_555 1_555
C5_2 C4_2 1_555 1_555
H4_2 C5_2 1_555 1_555
C6_2 H5_2 1_555 1_555
H6_2 C6_2 1_555 1_555
C7_2 C6_2 1_555 1_555
C8_2 C7_2 1_555 1_555
H7_2 C8_2 1_555 1_555
H8_2 C8_2 1_555 1_555
C9_2 C10_2 1_555 1_555
C10_2 H9_2 1_555 1_555
C11_2 C10_2 1_555 1_555
H10_2 C11_2 1_555 1_555
C12_2 H11_2 1_555 1_555
C13_2 C9_2 1_555 1_555
H12_2 C13_2 1_555 1_555
C14_2 C7_2 1_555 1_555
H13_2 C14_2 1_555 1_555
H14_2 C14_2 1_555 1_555
C15_2 C16_2 1_555 1_555
C16_2 H15_2 1_555 1_555
C19_2 C15_2 1_555 1_555
H18_2 C19_2 1_555 1_555
C20_2 C7_2 1_555 1_555
H20_2 C20_2 1_555 1_555
H24_2 C25_2 1_555 1_555
N1_2 C1_2 1_555 1_555
N2_2 C11_2 1_555 1_555
O1_2 C3_2 1_555 1_555
O2_2 C8_2 1_555 1_555
O3_2 C14_2 1_555 1_555
O4_2 C20_2 1_555 1_555
Cd3 N2_2 1_555 1_555
Cd5 N1_2 1_555 1_555
C5_2 N1_2 1_555 1_555
C6_2 O1_2 1_555 1_555
C9_2 O2_2 1_555 1_555
C12_2 C13_2 1_555 1_555
C12_2 N2_2 1_555 1_555
C15_2 O3_2 1_555 1_555
C39_2 C38_2 1_555 1_555
H31_2 C39_2 1_555 1_555
C41_2 C38_2 1_555 1_555
O11_2 C41_2 1_555 1_555
O12_2 C41_2 1_555 1_555
Cd4 O11_2 1_555 1_555
O12_2 Cd4 1_555 1_555
C18_2 H17_2 1_555 1_555
C26_2 C27_2 1_555 1_555
C27_2 C28_2 1_555 1_555
C28_2 H25_2 1_555 1_555
C29_2 C28_2 1_555 1_555
H26_2 C29_2 1_555 1_555
C30_2 C29_2 1_555 1_555
C31_2 C30_2 1_555 1_555
H27_2 C31_2 1_555 1_555
C32_2 C27_2 1_555 1_555
C33_2 C30_2 1_555 1_555
Cd1_2 N3_2 1_555 1_555
N3_2 C17_2 1_555 1_555
O6_2 C26_2 1_555 1_555
O7_2 C33_2 1_555 1_555
O8_2 C33_2 1_555 1_555
Cd6 O7_2 1_555 1_555
O15_2 Cd1_2 1_555 1_555
O16_2 Cd1_2 1_555 1_555
C18_2 N3_2 1_555 1_555
C31_2 C32_2 1_555 1_555
Cd1_2 O6_2 1_555 1_555
O8_2 Cd6 1_555 1_555
H22_2 C23_2 1_555 1_555
C24_2 H23_2 1_555 1_555
C34_2 C35_2 1_555 1_555
C35_2 C36_2 1_555 1_555
C36_2 H29_2 1_555 1_555
C37_2 C36_2 1_555 1_555
H30_2 C37_2 1_555 1_555
C40_2 C35_2 1_555 1_555
H32_2 C40_2 1_555 1_555
Cd2_2 N4_2 1_555 1_555
N4_2 C23_2 1_555 1_555
O9_2 C34_2 1_555 1_555
O10_2 C34_2 1_555 1_555
N5_2 Cd2_2 1_555 1_555
O13_2 Cd2_2 1_555 1_555
O14_2 Cd2_2 1_555 1_555
C24_2 N4_2 1_555 1_555
Cd2_2 O5_2 1_555 1_555
Cd2_2 O9_2 1_555 1_555
Cd2_2 O10_2 1_555 1_555
C31_3 C30_3 1_555 1_555
H27_3 C31_3 1_555 1_555
C33_3 C30_3 1_555 1_555
O13 C33_3 1_555 1_555
O14 C33_3 1_555 1_555
C1_3 H1_3 1_555 1_555
C2_3 C1_3 1_555 1_555
H2_3 C2_3 1_555 1_555
C3_3 C2_3 1_555 1_555
C4_3 C3_3 1_555 1_555
H3_3 C4_3 1_555 1_555
C5_3 C4_3 1_555 1_555
H4_3 C5_3 1_555 1_555
C6_3 H5_3 1_555 1_555
H6_3 C6_3 1_555 1_555
C7_3 C6_3 1_555 1_555
C8_3 C7_3 1_555 1_555
H7_3 C8_3 1_555 1_555
H8_3 C8_3 1_555 1_555
C9_3 C10_3 1_555 1_555
C10_3 H9_3 1_555 1_555
C11_3 C10_3 1_555 1_555
C12_3 H11_3 1_555 1_555
C13_3 C9_3 1_555 1_555
H12_3 C13_3 1_555 1_555
C14_3 C7_3 1_555 1_555
H13_3 C14_3 1_555 1_555
H14_3 C14_3 1_555 1_555
C15_3 C16_3 1_555 1_555
C16_3 H15_3 1_555 1_555
C17_3 C16_3 1_555 1_555
H16_3 C17_3 1_555 1_555
C18_3 H17_3 1_555 1_555
C19_3 C15_3 1_555 1_555
H18_3 C19_3 1_555 1_555
C20_3 C7_3 1_555 1_555
H19_2 C20_3 1_555 1_555
H20_3 C20_3 1_555 1_555
C21_2 C22_2 1_555 1_555
C22_2 H21_2 1_555 1_555
C23_3 C22_2 1_555 1_555
H22_3 C23_3 1_555 1_555
C24_3 H23_3 1_555 1_555
C25_3 C21_2 1_555 1_555
H24_3 C25_3 1_555 1_555
C26_3 C27_3 1_555 1_555
C27_3 C28_3 1_555 1_555
C28_3 H25_3 1_555 1_555
C29_3 C28_3 1_555 1_555
H26_3 C29_3 1_555 1_555
C32_3 C27_3 1_555 1_555
H28_3 C32_3 1_555 1_555
C34_3 C35_3 1_555 1_555
C35_3 C36_3 1_555 1_555
C36_3 H29_3 1_555 1_555
C37_3 C36_3 1_555 1_555
H30_3 C37_3 1_555 1_555
C38_3 C37_3 1_555 1_555
C39_3 C38_3 1_555 1_555
H31_3 C39_3 1_555 1_555
C40_3 C35_3 1_555 1_555
H32_3 C40_3 1_555 1_555
C41_3 C38_3 1_555 1_555
Cd3 N3_3 1_555 1_555
Cd5 N4_3 1_555 1_555
N5_2 C1_3 1_555 1_555
N6_2 C11_3 1_555 1_555
N3_3 C17_3 1_555 1_555
N4_3 C23_3 1_555 1_555
O1_3 C3_3 1_555 1_555
O2_3 C8_3 1_555 1_555
O3_3 C14_3 1_555 1_555
O4_3 C20_3 1_555 1_555
O5_3 C26_3 1_555 1_555
O6_3 C26_3 1_555 1_555
O9_3 C34_3 1_555 1_555
O10_3 C34_3 1_555 1_555
O15 C41_3 1_555 1_555
O16 C41_3 1_555 1_555
C5_3 N5_2 1_555 1_555
C6_3 O1_3 1_555 1_555
C9_3 O2_3 1_555 1_555
C12_3 C13_3 1_555 1_555
C12_3 N6_2 1_555 1_555
C15_3 O3_3 1_555 1_555
C18_3 C19_3 1_555 1_555
C18_3 N3_3 1_555 1_555
C21_2 O4_3 1_555 1_555
C24_3 C25_3 1_555 1_555
C24_3 N4_3 1_555 1_555
C39_3 C40_3 1_555 1_555
Cd3 O5_3 1_555 1_555
Cd3 O6_3 1_555 1_555
Cd3 O10_3 1_555 1_555
Cd5 O5_3 1_555 1_555
Cd5 O9_3 1_555 1_555
Cd5 O10_3 1_555 1_555
C1_4 H1_4 1_555 1_555
C2_4 C1_4 1_555 1_555
H2_4 C2_4 1_555 1_555
C3_4 C2_4 1_555 1_555
C4_4 C3_4 1_555 1_555
H3_4 C4_4 1_555 1_555
C5_4 C4_4 1_555 1_555
H4_4 C5_4 1_555 1_555
C6_4 H5_4 1_555 1_555
H6_4 C6_4 1_555 1_555
C7_4 C6_4 1_555 1_555
C8_4 C7_4 1_555 1_555
H7_4 C8_4 1_555 1_555
H8_4 C8_4 1_555 1_555
C9_4 C10_4 1_555 1_555
C10_4 H9_4 1_555 1_555
C11_4 C10_4 1_555 1_555
C12_4 H11_4 1_555 1_555
C13_4 C9_4 1_555 1_555
H12_4 C13_4 1_555 1_555
C14_4 C7_4 1_555 1_555
H13_4 C14_4 1_555 1_555
H14_4 C14_4 1_555 1_555
C15_4 C16_4 1_555 1_555
C16_4 H15_4 1_555 1_555
C19_4 C15_4 1_555 1_555
H18_4 C19_4 1_555 1_555
C20_4 C7_4 1_555 1_555
H19_3 C20_4 1_555 1_555
H20_4 C20_4 1_555 1_555
C21_3 C22_3 1_555 1_555
C22_3 H21_3 1_555 1_555
C25_4 C21_3 1_555 1_555
H24_4 C25_4 1_555 1_555
N5 C1_4 1_555 1_555
N6 C11_4 1_555 1_555
O1_4 C3_4 1_555 1_555
O2_4 C8_4 1_555 1_555
O3_4 C14_4 1_555 1_555
O4_4 C20_4 1_555 1_555
C5_4 N5 1_555 1_555
C6_4 O1_4 1_555 1_555
C9_4 O2_4 1_555 1_555
C12_4 C13_4 1_555 1_555
C12_4 N6 1_555 1_555
C15_4 O3_4 1_555 1_555
C21_3 O4_4 1_555 1_555
H16_4 C17_4 1_555 1_555
C18_4 H17_4 1_555 1_555
H22_4 C23_4 1_555 1_555
C24_4 H23_4 1_555 1_555
C26_4 C27_4 1_555 1_555
C27_4 C28_4 1_555 1_555
C28_4 H25_4 1_555 1_555
C29_4 C28_4 1_555 1_555
H26_4 C29_4 1_555 1_555
C30_4 C29_4 1_555 1_555
C31_4 C30_4 1_555 1_555
H27_4 C31_4 1_555 1_555
C32_4 C27_4 1_555 1_555
H28_4 C32_4 1_555 1_555
C33_4 C30_4 1_555 1_555
C34_4 C35_4 1_555 1_555
C35_4 C36_4 1_555 1_555
C36_4 H29_4 1_555 1_555
C37_4 C36_4 1_555 1_555
H30_4 C37_4 1_555 1_555
C40_4 C35_4 1_555 1_555
H32_4 C40_4 1_555 1_555
Cd4 N3_4 1_555 1_555
Cd6 N4_4 1_555 1_555
N3_4 C17_4 1_555 1_555
N4_4 C23_4 1_555 1_555
O5_4 C26_4 1_555 1_555
O6_4 C26_4 1_555 1_555
O13_2 C33_4 1_555 1_555
O14_2 C33_4 1_555 1_555
O9_4 C34_4 1_555 1_555
O10_4 C34_4 1_555 1_555
C18_4 N3_4 1_555 1_555
C24_4 N4_4 1_555 1_555
C31_4 C32_4 1_555 1_555
Cd4 O5_4 1_555 1_555
Cd4 O6_4 1_555 1_555
Cd4 O10_4 1_555 1_555
Cd6 O5_4 1_555 1_555
Cd6 O9_4 1_555 1_555
Cd6 O10_4 1_555 1_555
C39_4 C38_4 1_555 1_555
H31_4 C39_4 1_555 1_555
C41_4 C38_4 1_555 1_555
O15_2 C41_4 1_555 1_555
O16_2 C41_4 1_555 1_555
C1_5 H1_5 1_555 1_555
C2_5 C1_5 1_555 1_555
H2_5 C2_5 1_555 1_555
C3_5 C2_5 1_555 1_555
C4_5 C3_5 1_555 1_555
H3_5 C4_5 1_555 1_555
C5_5 C4_5 1_555 1_555
H4_5 C5_5 1_555 1_555
C6_5 H5_5 1_555 1_555
H6_5 C6_5 1_555 1_555
C7_5 C6_5 1_555 1_555
C8_5 C7_5 1_555 1_555
H7_5 C8_5 1_555 1_555
H8_5 C8_5 1_555 1_555
C9_5 C10_5 1_555 1_555
C10_5 H9_5 1_555 1_555
C11_5 C10_5 1_555 1_555
C12_5 H11_5 1_555 1_555
C13_5 C9_5 1_555 1_555
H12_5 C13_5 1_555 1_555
C14_5 C7_5 1_555 1_555
H13_5 C14_5 1_555 1_555
H14_5 C14_5 1_555 1_555
C15_5 C16_5 1_555 1_555
C16_5 H15_5 1_555 1_555
C17_5 C16_5 1_555 1_555
H16_5 C17_5 1_555 1_555
C18_5 H17_5 1_555 1_555
C19_5 C15_5 1_555 1_555
H18_5 C19_5 1_555 1_555
C20_5 C7_5 1_555 1_555
H19_4 C20_5 1_555 1_555
H20_5 C20_5 1_555 1_555
C21_4 C22_4 1_555 1_555
C22_4 H21_4 1_555 1_555
C23_5 C22_4 1_555 1_555
H22_5 C23_5 1_555 1_555
C24_5 H23_5 1_555 1_555
C25_5 C21_4 1_555 1_555
H24_5 C25_5 1_555 1_555
C26_5 C27_5 1_555 1_555
C27_5 C28_5 1_555 1_555
C28_5 H25_5 1_555 1_555
C29_5 C28_5 1_555 1_555
H26_5 C29_5 1_555 1_555
C32_5 C27_5 1_555 1_555
H28_5 C32_5 1_555 1_555
C34_5 C35_5 1_555 1_555
C35_5 C36_5 1_555 1_555
C36_5 H29_5 1_555 1_555
C37_5 C36_5 1_555 1_555
H30_5 C37_5 1_555 1_555
C38_5 C37_5 1_555 1_555
C39_5 C38_5 1_555 1_555
H31_5 C39_5 1_555 1_555
C40_5 C35_5 1_555 1_555
H32_5 C40_5 1_555 1_555
C41_5 C38_5 1_555 1_555
Cd1_3 N3_5 1_555 1_555
Cd2_3 N4_5 1_555 1_555
N1_3 C1_5 1_555 1_555
N2_3 C11_5 1_555 1_555
N3_5 C17_5 1_555 1_555
N4_5 C23_5 1_555 1_555
O1_5 C3_5 1_555 1_555
O2_5 C8_5 1_555 1_555
O3_5 C14_5 1_555 1_555
O4_5 C20_5 1_555 1_555
O5_5 C26_5 1_555 1_555
O6_5 C26_5 1_555 1_555
O9_5 C34_5 1_555 1_555
O10_5 C34_5 1_555 1_555
O11_3 C41_5 1_555 1_555
O12_3 C41_5 1_555 1_555
Cd3_2 O11_3 1_555 1_555
Cd6_2 N1_3 1_555 1_555
N5_3 Cd2_3 1_555 1_555
N6_3 Cd1_3 1_555 1_555
O13_3 Cd2_3 1_555 1_555
O14_3 Cd2_3 1_555 1_555
O15_3 Cd1_3 1_555 1_555
O16_3 Cd1_3 1_555 1_555
C5_5 N1_3 1_555 1_555
C6_5 O1_5 1_555 1_555
C9_5 O2_5 1_555 1_555
C12_5 C13_5 1_555 1_555
C12_5 N2_3 1_555 1_555
C15_5 O3_5 1_555 1_555
C18_5 C19_5 1_555 1_555
C18_5 N3_5 1_555 1_555
C21_4 O4_5 1_555 1_555
C24_5 C25_5 1_555 1_555
C24_5 N4_5 1_555 1_555
C39_5 C40_5 1_555 1_555
Cd1_3 O5_5 1_555 1_555
Cd1_3 O6_5 1_555 1_555
Cd1_3 O10_5 1_555 1_555
Cd2_3 O5_5 1_555 1_555
Cd2_3 O9_5 1_555 1_555
Cd2_3 O10_5 1_555 1_555
O12_3 Cd3_2 1_555 1_555
C31_5 C30_5 1_555 1_555
H27_5 C31_5 1_555 1_555
C33_5 C30_5 1_555 1_555
O7_3 C33_5 1_555 1_555
O8_3 C33_5 1_555 1_555
Cd5_2 O7_3 1_555 1_555
O8_3 Cd5_2 1_555 1_555
C39_6 C38_6 1_555 1_555
H31_6 C39_6 1_555 1_555
C41_6 C38_6 1_555 1_555
O11_4 C41_6 1_555 1_555
O12_4 C41_6 1_555 1_555
Cd4_2 O11_4 1_555 1_555
O12_4 Cd4_2 1_555 1_555
H16_6 C17_6 1_555 1_555
C18_6 H17_6 1_555 1_555
H22_6 C23_6 1_555 1_555
C24_6 H23_6 1_555 1_555
C26_6 C27_6 1_555 1_555
C27_6 C28_6 1_555 1_555
C28_6 H25_6 1_555 1_555
C29_6 C28_6 1_555 1_555
H26_6 C29_6 1_555 1_555
C30_6 C29_6 1_555 1_555
C31_6 C30_6 1_555 1_555
H27_6 C31_6 1_555 1_555
C32_6 C27_6 1_555 1_555
H28_6 C32_6 1_555 1_555
C33_6 C30_6 1_555 1_555
C34_6 C35_6 1_555 1_555
C35_6 C36_6 1_555 1_555
C36_6 H29_6 1_555 1_555
C37_6 C36_6 1_555 1_555
H30_6 C37_6 1_555 1_555
C40_6 C35_6 1_555 1_555
H32_6 C40_6 1_555 1_555
Cd1_4 N3_6 1_555 1_555
Cd2_4 N4_6 1_555 1_555
N3_6 C17_6 1_555 1_555
N4_6 C23_6 1_555 1_555
O5_6 C26_6 1_555 1_555
O6_6 C26_6 1_555 1_555
O7_4 C33_6 1_555 1_555
O8_4 C33_6 1_555 1_555
O9_6 C34_6 1_555 1_555
O10_6 C34_6 1_555 1_555
Cd6_2 O7_4 1_555 1_555
N5_4 Cd2_4 1_555 1_555
N6_4 Cd1_4 1_555 1_555
O13_4 Cd2_4 1_555 1_555
O14_4 Cd2_4 1_555 1_555
O15_4 Cd1_4 1_555 1_555
O16_4 Cd1_4 1_555 1_555
C18_6 N3_6 1_555 1_555
C24_6 N4_6 1_555 1_555
C31_6 C32_6 1_555 1_555
Cd1_4 O5_6 1_555 1_555
Cd1_4 O6_6 1_555 1_555
Cd1_4 O10_6 1_555 1_555
Cd2_4 O5_6 1_555 1_555
Cd2_4 O9_6 1_555 1_555
Cd2_4 O10_6 1_555 1_555
O8_4 Cd6_2 1_555 1_555
C1_6 H1_6 1_555 1_555
C2_6 C1_6 1_555 1_555
H2_6 C2_6 1_555 1_555
C3_6 C2_6 1_555 1_555
C4_6 C3_6 1_555 1_555
H3_6 C4_6 1_555 1_555
C5_6 C4_6 1_555 1_555
H4_6 C5_6 1_555 1_555
C6_6 H5_6 1_555 1_555
H6_6 C6_6 1_555 1_555
C7_6 C6_6 1_555 1_555
C8_6 C7_6 1_555 1_555
H7_6 C8_6 1_555 1_555
H8_6 C8_6 1_555 1_555
C9_6 C10_6 1_555 1_555
C10_6 H9_6 1_555 1_555
C11_6 C10_6 1_555 1_555
C12_6 H11_6 1_555 1_555
C13_6 C9_6 1_555 1_555
H12_6 C13_6 1_555 1_555
C14_6 C7_6 1_555 1_555
H13_6 C14_6 1_555 1_555
H14_6 C14_6 1_555 1_555
C15_6 C16_6 1_555 1_555
C16_6 H15_6 1_555 1_555
C19_6 C15_6 1_555 1_555
H18_6 C19_6 1_555 1_555
C20_6 C7_6 1_555 1_555
H19_5 C20_6 1_555 1_555
H20_6 C20_6 1_555 1_555
C21_5 C22_5 1_555 1_555
C22_5 H21_5 1_555 1_555
C25_6 C21_5 1_555 1_555
H24_6 C25_6 1_555 1_555
N1_4 C1_6 1_555 1_555
N2_4 C11_6 1_555 1_555
O1_6 C3_6 1_555 1_555
O2_6 C8_6 1_555 1_555
O3_6 C14_6 1_555 1_555
O4_6 C20_6 1_555 1_555
Cd5_2 N1_4 1_555 1_555
C5_6 N1_4 1_555 1_555
C6_6 O1_6 1_555 1_555
C9_6 O2_6 1_555 1_555
C12_6 C13_6 1_555 1_555
C12_6 N2_4 1_555 1_555
C15_6 O3_6 1_555 1_555
C21_5 O4_6 1_555 1_555
C31_7 C30_7 1_555 1_555
H27_7 C31_7 1_555 1_555
C33_7 C30_7 1_555 1_555
O13_3 C33_7 1_555 1_555
O14_3 C33_7 1_555 1_555
C21_6 C22_6 1_555 1_555
C22_6 H21_6 1_555 1_555
C23_7 C22_6 1_555 1_555
H22_7 C23_7 1_555 1_555
C24_7 H23_7 1_555 1_555
C34_7 C35_7 1_555 1_555
C35_7 C36_7 1_555 1_555
C36_7 H29_7 1_555 1_555
C37_7 C36_7 1_555 1_555
H30_7 C37_7 1_555 1_555
C38_7 C37_7 1_555 1_555
C39_7 C38_7 1_555 1_555
H31_7 C39_7 1_555 1_555
C40_7 C35_7 1_555 1_555
H32_7 C40_7 1_555 1_555
C41_7 C38_7 1_555 1_555
Cd5_2 N4_7 1_555 1_555
N4_7 C23_7 1_555 1_555
O9_7 C34_7 1_555 1_555
O10_7 C34_7 1_555 1_555
O15_3 C41_7 1_555 1_555
O16_3 C41_7 1_555 1_555
C24_7 N4_7 1_555 1_555
C39_7 C40_7 1_555 1_555
Cd5_2 O5_7 1_555 1_555
Cd5_2 O9_7 1_555 1_555
Cd5_2 O10_7 1_555 1_555
C1_7 H1_7 1_555 1_555
C2_7 C1_7 1_555 1_555
H2_7 C2_7 1_555 1_555
C3_7 C2_7 1_555 1_555
C4_7 C3_7 1_555 1_555
H3_7 C4_7 1_555 1_555
C5_7 C4_7 1_555 1_555
H4_7 C5_7 1_555 1_555
C6_7 H5_7 1_555 1_555
H6_7 C6_7 1_555 1_555
C7_7 C6_7 1_555 1_555
C8_7 C7_7 1_555 1_555
H7_7 C8_7 1_555 1_555
H8_7 C8_7 1_555 1_555
C9_7 C10_7 1_555 1_555
C10_7 H9_7 1_555 1_555
C11_7 C10_7 1_555 1_555
H10_7 C11_7 1_555 1_555
C12_7 H11_7 1_555 1_555
C13_7 C9_7 1_555 1_555
H12_7 C13_7 1_555 1_555
C14_7 C7_7 1_555 1_555
H13_7 C14_7 1_555 1_555
H14_7 C14_7 1_555 1_555
C15_7 C16_7 1_555 1_555
C16_7 H15_7 1_555 1_555
C17_7 C16_7 1_555 1_555
C18_7 H17_7 1_555 1_555
C19_7 C15_7 1_555 1_555
H18_7 C19_7 1_555 1_555
C20_7 C7_7 1_555 1_555
H20_7 C20_7 1_555 1_555
H24_7 C25_7 1_555 1_555
C26_7 C27_7 1_555 1_555
C27_7 C28_7 1_555 1_555
C28_7 H25_7 1_555 1_555
C29_7 C28_7 1_555 1_555
H26_7 C29_7 1_555 1_555
C32_7 C27_7 1_555 1_555
Cd3_2 N3_7 1_555 1_555
N5_4 C1_7 1_555 1_555
N6_4 C11_7 1_555 1_555
N3_7 C17_7 1_555 1_555
O1_7 C3_7 1_555 1_555
O2_7 C8_7 1_555 1_555
O3_7 C14_7 1_555 1_555
O4_7 C20_7 1_555 1_555
O6_7 C26_7 1_555 1_555
C5_7 N5_4 1_555 1_555
C6_7 O1_7 1_555 1_555
C9_7 O2_7 1_555 1_555
C12_7 C13_7 1_555 1_555
C12_7 N6_4 1_555 1_555
C15_7 O3_7 1_555 1_555
C18_7 C19_7 1_555 1_555
C18_7 N3_7 1_555 1_555
Cd3_2 O6_7 1_555 1_555
H22_8 C23_8 1_555 1_555
C24_8 H23_8 1_555 1_555
C34_8 C35_8 1_555 1_555
C35_8 C36_8 1_555 1_555
C36_8 H29_8 1_555 1_555
C37_8 C36_8 1_555 1_555
H30_8 C37_8 1_555 1_555
C40_8 C35_8 1_555 1_555
H32_8 C40_8 1_555 1_555
Cd6_2 N4_8 1_555 1_555
N4_8 C23_8 1_555 1_555
O9_8 C34_8 1_555 1_555
O10_8 C34_8 1_555 1_555
C24_8 N4_8 1_555 1_555
Cd6_2 O5_8 1_555 1_555
Cd6_2 O9_8 1_555 1_555
Cd6_2 O10_8 1_555 1_555
C18_8 H17_8 1_555 1_555
C26_8 C27_8 1_555 1_555
C27_8 C28_8 1_555 1_555
C28_8 H25_8 1_555 1_555
C29_8 C28_8 1_555 1_555
H26_8 C29_8 1_555 1_555
C30_8 C29_8 1_555 1_555
C31_8 C30_8 1_555 1_555
H27_8 C31_8 1_555 1_555
C32_8 C27_8 1_555 1_555
C33_8 C30_8 1_555 1_555
Cd4_2 N3_8 1_555 1_555
N3_8 C17_8 1_555 1_555
O6_8 C26_8 1_555 1_555
O13_4 C33_8 1_555 1_555
O14_4 C33_8 1_555 1_555
C18_8 N3_8 1_555 1_555
C31_8 C32_8 1_555 1_555
Cd4_2 O6_8 1_555 1_555
C39_8 C38_8 1_555 1_555
H31_8 C39_8 1_555 1_555
C41_8 C38_8 1_555 1_555
O15_4 C41_8 1_555 1_555
O16_4 C41_8 1_555 1_555
C1_8 H1_8 1_555 1_555
C2_8 C1_8 1_555 1_555
H2_8 C2_8 1_555 1_555
C3_8 C2_8 1_555 1_555
C4_8 C3_8 1_555 1_555
H3_8 C4_8 1_555 1_555
C5_8 C4_8 1_555 1_555
H4_8 C5_8 1_555 1_555
C6_8 H5_8 1_555 1_555
H6_8 C6_8 1_555 1_555
C7_8 C6_8 1_555 1_555
C8_8 C7_8 1_555 1_555
H7_8 C8_8 1_555 1_555
H8_8 C8_8 1_555 1_555
C9_8 C10_8 1_555 1_555
C10_8 H9_8 1_555 1_555
C11_8 C10_8 1_555 1_555
H10_8 C11_8 1_555 1_555
C12_8 H11_8 1_555 1_555
C13_8 C9_8 1_555 1_555
H12_8 C13_8 1_555 1_555
C14_8 C7_8 1_555 1_555
H13_8 C14_8 1_555 1_555
H14_8 C14_8 1_555 1_555
C15_8 C16_8 1_555 1_555
C16_8 H15_8 1_555 1_555
C19_8 C15_8 1_555 1_555
H18_8 C19_8 1_555 1_555
C20_8 C7_8 1_555 1_555
H20_8 C20_8 1_555 1_555
H24_8 C25_8 1_555 1_555
N5_3 C1_8 1_555 1_555
N6_3 C11_8 1_555 1_555
O1_8 C3_8 1_555 1_555
O2_8 C8_8 1_555 1_555
O3_8 C14_8 1_555 1_555
O4_8 C20_8 1_555 1_555
C5_8 N5_3 1_555 1_555
C6_8 O1_8 1_555 1_555
C9_8 O2_8 1_555 1_555
C12_8 C13_8 1_555 1_555
C12_8 N6_3 1_555 1_555
C15_8 O3_8 1_555 1_555
C21_7 C22_7 1_555 1_555
C22_7 H21_7 1_555 1_555
C21_8 C22_8 1_555 1_555
C22_8 H21_8 1_555 1_555

#END
