
###############################################################################
#
# This file contains modified crystal structure data generated from the
# MOF subset of the Cambridge Structural Database (CSD) v543 
# hosted by the Cambridge Crystallographic Data Centre (CCDC).
#
# This work is licensed under the Creative Commons
# Attribution-NonCommercial-ShareAlike 4.0 International License.
# To view a copy of this license, visit
# http://creativecommons.org/licenses/by-nc-sa/4.0/
# or send a letter to
# Creative Commons, PO Box 1866, Mountain View, CA 94042, USA.
#
# CIF created using the CSD Python API on 29 September 2022
# The structure has been converted into the P1 space group
# The structure has a 3D framework
# The original CSD entry IKAVIZ is in the cubic crystal system
# The original CSD entry IKAVIZ is in a Sohncke space group
# The framework has been calculated to contain at least 10.0% void space
# The void calculation uses a probe of radius 1.32A, grid spacing 0.4
#
###############################################################################

data_IKAVIZ
_chemical_formula_moiety         '(C216 H120 Cu16 N24 O24)n'
_symmetry_cell_setting           triclinic
_symmetry_space_group_name_H-M   'P 1'
_symmetry_Int_Tables_number      1
_space_group_name_Hall           'P 1'
loop_
_symmetry_equiv_pos_site_id
_symmetry_equiv_pos_as_xyz
1 x,y,z
_cell_length_a                   16.3198(11)
_cell_length_b                   16.3198(11)
_cell_length_c                   16.3198(11)
_cell_angle_alpha                90
_cell_angle_beta                 90
_cell_angle_gamma                90
_cell_volume                     4346.55
loop_
_atom_site_label
_atom_site_type_symbol
_atom_site_fract_x
_atom_site_fract_y
_atom_site_fract_z
Cu6 Cu -0.0000 0.5000 0.0000
Cu6_2 Cu -0.0000 0.5000 1.0000
Cu7 Cu 0.5000 -0.0000 0.0000
Cu7_2 Cu 0.5000 -0.0000 1.0000
C18 C -0.0000 0.5000 0.1986(4)
C23 C 0.0083(11) 0.7995(5) 0.2118(6)
H14 H 0.0386 0.8447 0.1949
C24 C 0.0203(6) 0.7230(4) 0.1774(4)
H15 H 0.0584 0.7176 0.1354
C25 C -0.0000 0.5000 0.2865(5)
N2 N -0.0000 0.5000 0.3571(4)
C26 C 0.0082(5) 0.4236(3) 0.1587(3)
O4 O 0.0030(6) 0.4153(2) 0.08241(18)
C27 C 0.0215(3) 0.3448(4) 0.2028(4)
C28 C 0.0789(5) 0.3355(5) 0.2638(4)
H16 H 0.1079 0.3808 0.2826
C29 C 0.0937(7) 0.2587(6) 0.2973(5)
H17 H 0.1338 0.2528 0.3373
C30 C 0.0512(8) 0.1935(7) 0.2730(7)
H18 H 0.0612 0.1428 0.2970
O5 O 0.41759(18) 0.5030(6) 0.0847(2)
C33 C 0.3413(3) 0.5082(5) 0.0764(3)
C34 C 0.3014(4) 0.5000 0.0000
C35 C 0.2972(4) 0.5215(3) 0.1552(4)
C36 C 0.2362(4) 0.5789(5) 0.1645(5)
H21 H 0.2174 0.6079 0.1192
C37 C 0.2027(5) 0.5937(7) 0.2413(6)
H22 H 0.1627 0.6338 0.2472
C38 C 0.2270(7) 0.5512(8) 0.3065(7)
H23 H 0.2030 0.5612 0.3572
C39 C 0.2882(6) 0.4917(11) 0.2995(5)
H24 H 0.3051 0.4614 0.3447
C40 C 0.3226(4) 0.4797(6) 0.2230(4)
H25 H 0.3646 0.4416 0.2176
C41 C 0.2135(5) 0.5000 0.0000
N3 N 0.1429(4) 0.5000 0.0000
Cu2 Cu 0.5000 0.5000 0.0000
O9 O 0.58241(18) 0.4970(6) 0.0847(2)
C65 C 0.6587(3) 0.4918(5) 0.0764(3)
C66 C 0.6986(4) 0.5000 0.0000
C67 C 0.7028(4) 0.4785(3) 0.1552(4)
C68 C 0.7638(4) 0.4211(5) 0.1645(5)
H41 H 0.7826 0.3921 0.1192
C69 C 0.7973(5) 0.4063(7) 0.2413(6)
H42 H 0.8373 0.3662 0.2472
C70 C 0.7730(7) 0.4488(8) 0.3065(7)
H43 H 0.7970 0.4388 0.3572
C71 C 0.7118(6) 0.5083(11) 0.2995(5)
H44 H 0.6949 0.5386 0.3447
C72 C 0.6774(4) 0.5203(6) 0.2230(4)
H45 H 0.6354 0.5584 0.2176
C73 C 0.7865(5) 0.5000 0.0000
N5 N 0.8571(4) 0.5000 0.0000
O11 O 0.5847(2) 0.91759(18) 0.0030(6)
C81 C 0.5764(3) 0.8413(3) 0.0082(5)
C82 C 0.5000 0.8014(4) 0.0000
C83 C 0.6552(4) 0.7972(4) 0.0215(3)
C84 C 0.6645(5) 0.7362(4) 0.0789(5)
H51 H 0.6192 0.7174 0.1079
C85 C 0.7413(6) 0.7027(5) 0.0937(7)
H52 H 0.7472 0.6627 0.1338
C86 C 0.8065(7) 0.7270(7) 0.0512(8)
H53 H 0.8572 0.7030 0.0612
C89 C 0.5000 0.7135(5) 0.0000
N6 N 0.5000 0.6429(4) 0.0000
C95 C 0.2005(5) 0.7882(6) 0.0083(11)
H59 H 0.1553 0.8051 0.0386
C96 C 0.2770(4) 0.8226(4) 0.0203(6)
H60 H 0.2824 0.8646 0.0584
Cu5 Cu -0.0000 0.5000 0.5000
N7 N 0.5000 0.3571(4) 0.0000
Cu6_3 Cu 1.0000 0.5000 0.0000
Cu7_3 Cu 0.5000 1.0000 0.0000
O1 O 0.0030(6) 0.5847(2) 0.91759(18)
C1 C 0.0082(5) 0.5764(3) 0.8413(3)
C2 C -0.0000 0.5000 0.8014(4)
C3 C 0.0215(3) 0.6552(4) 0.7972(4)
C4 C 0.0789(5) 0.6645(5) 0.7362(4)
H1 H 0.1079 0.6192 0.7174
C5 C 0.0937(7) 0.7413(6) 0.7027(5)
H2 H 0.1338 0.7472 0.6627
C6 C 0.0512(8) 0.8065(7) 0.7270(7)
H3 H 0.0612 0.8572 0.7030
C9 C -0.0000 0.5000 0.7135(5)
N1 N -0.0000 0.5000 0.6429(4)
C15 C 0.0083(11) 0.2005(5) 0.7882(6)
H9 H 0.0386 0.1553 0.8051
C16 C 0.0203(6) 0.2770(4) 0.8226(4)
H10 H 0.0584 0.2824 0.8646
C34_2 C 0.3014(4) 0.5000 1.0000
C41_2 C 0.2135(5) 0.5000 1.0000
N3_2 N 0.1429(4) 0.5000 1.0000
C42 C 0.3413(3) 0.4918(5) 0.9236(3)
O6 O 0.41759(18) 0.4970(6) 0.9153(2)
C43 C 0.2972(4) 0.4785(3) 0.8448(4)
C44 C 0.2362(4) 0.4211(5) 0.8355(5)
H26 H 0.2174 0.3921 0.8808
C45 C 0.2027(5) 0.4063(7) 0.7587(6)
H27 H 0.1627 0.3662 0.7528
C46 C 0.2270(7) 0.4488(8) 0.6935(7)
H28 H 0.2030 0.4388 0.6428
C47 C 0.2882(6) 0.5083(11) 0.7005(5)
H29 H 0.3051 0.5386 0.6553
C48 C 0.3226(4) 0.5203(6) 0.7770(4)
H30 H 0.3646 0.5584 0.7824
Cu2_2 Cu 0.5000 0.5000 1.0000
C66_2 C 0.6986(4) 0.5000 1.0000
C73_2 C 0.7865(5) 0.5000 1.0000
N5_2 N 0.8571(4) 0.5000 1.0000
C74 C 0.6587(3) 0.5082(5) 0.9236(3)
O10 O 0.58241(18) 0.5030(6) 0.9153(2)
C75 C 0.7028(4) 0.5215(3) 0.8448(4)
C76 C 0.7638(4) 0.5789(5) 0.8355(5)
H46 H 0.7826 0.6079 0.8808
C77 C 0.7973(5) 0.5937(7) 0.7587(6)
H47 H 0.8373 0.6338 0.7528
C78 C 0.7730(7) 0.5512(8) 0.6935(7)
H48 H 0.7970 0.5612 0.6428
C79 C 0.7118(6) 0.4917(11) 0.7005(5)
H49 H 0.6949 0.4614 0.6553
C80 C 0.6774(4) 0.4797(6) 0.7770(4)
H50 H 0.6354 0.4416 0.7824
C82_2 C 0.5000 0.8014(4) 1.0000
C87 C 0.7995(5) 0.7882(6) 0.9917(11)
H54 H 0.8447 0.8051 0.9614
C88 C 0.7230(4) 0.8226(4) 0.9797(6)
H55 H 0.7176 0.8646 0.9416
C89_2 C 0.5000 0.7135(5) 1.0000
N6_2 N 0.5000 0.6429(4) 1.0000
C90 C 0.4236(3) 0.8413(3) 0.9918(5)
O12 O 0.4153(2) 0.91759(18) 0.9970(6)
C91 C 0.3448(4) 0.7972(4) 0.9785(3)
C92 C 0.3355(5) 0.7362(4) 0.9211(5)
H56 H 0.3808 0.7174 0.8921
C93 C 0.2587(6) 0.7027(5) 0.9063(7)
H57 H 0.2528 0.6627 0.8662
C94 C 0.1935(7) 0.7270(7) 0.9488(8)
H58 H 0.1428 0.7030 0.9388
N7_2 N 0.5000 0.3571(4) 1.0000
Cu6_4 Cu 1.0000 0.5000 1.0000
Cu7_4 Cu 0.5000 1.0000 1.0000
O3 O 0.9970(6) 0.5847(2) 0.08241(18)
C17 C 0.9918(5) 0.5764(3) 0.1587(3)
C18_2 C 1.0000 0.5000 0.1986(4)
C19 C 0.9785(3) 0.6552(4) 0.2028(4)
C20 C 0.9211(5) 0.6645(5) 0.2638(4)
H11 H 0.8921 0.6192 0.2826
C21 C 0.9063(7) 0.7413(6) 0.2973(5)
H12 H 0.8662 0.7472 0.3373
C22 C 0.9488(8) 0.8065(7) 0.2730(7)
H13 H 0.9388 0.8572 0.2970
C25_2 C 1.0000 0.5000 0.2865(5)
N2_2 N 1.0000 0.5000 0.3571(4)
C31 C 0.9917(11) 0.2005(5) 0.2118(6)
H19 H 0.9614 0.1553 0.1949
C32 C 0.9797(6) 0.2770(4) 0.1774(4)
H20 H 0.9416 0.2824 0.1354
Cu5_2 Cu 1.0000 0.5000 0.5000
C2_2 C 1.0000 0.5000 0.8014(4)
C7 C 0.9917(11) 0.7995(5) 0.7882(6)
H4 H 0.9614 0.8447 0.8051
C8 C 0.9797(6) 0.7230(4) 0.8226(4)
H5 H 0.9416 0.7176 0.8646
C9_2 C 1.0000 0.5000 0.7135(5)
N1_2 N 1.0000 0.5000 0.6429(4)
C10 C 0.9918(5) 0.4236(3) 0.8413(3)
O2 O 0.9970(6) 0.4153(2) 0.91759(18)
C11 C 0.9785(3) 0.3448(4) 0.7972(4)
C12 C 0.9211(5) 0.3355(5) 0.7362(4)
H6 H 0.8921 0.3808 0.7174
C13 C 0.9063(7) 0.2587(6) 0.7027(5)
H7 H 0.8662 0.2528 0.6627
C14 C 0.9488(8) 0.1935(7) 0.7270(7)
H8 H 0.9388 0.1428 0.7030
O11_2 O 0.4153(2) 0.08241(18) 0.0030(6)
C81_2 C 0.4236(3) 0.1587(3) 0.0082(5)
C82_3 C 0.5000 0.1986(4) 0.0000
C83_2 C 0.3448(4) 0.2028(4) 0.0215(3)
C84_2 C 0.3355(5) 0.2638(4) 0.0789(5)
H51_2 H 0.3808 0.2826 0.1079
C85_2 C 0.2587(6) 0.2973(5) 0.0937(7)
H52_2 H 0.2528 0.3373 0.1338
C86_2 C 0.1935(7) 0.2730(7) 0.0512(8)
H53_2 H 0.1428 0.2970 0.0612
C89_3 C 0.5000 0.2865(5) 0.0000
C95_2 C 0.7995(5) 0.2118(6) 0.0083(11)
H59_2 H 0.8447 0.1949 0.0386
C96_2 C 0.7230(4) 0.1774(4) 0.0203(6)
H60_2 H 0.7176 0.1354 0.0584
C82_4 C 0.5000 0.1986(4) 1.0000
C87_2 C 0.2005(5) 0.2118(6) 0.9917(11)
H54_2 H 0.1553 0.1949 0.9614
C88_2 C 0.2770(4) 0.1774(4) 0.9797(6)
H55_2 H 0.2824 0.1354 0.9416
C89_4 C 0.5000 0.2865(5) 1.0000
C90_2 C 0.5764(3) 0.1587(3) 0.9918(5)
O12_2 O 0.5847(2) 0.08241(18) 0.9970(6)
C91_2 C 0.6552(4) 0.2028(4) 0.9785(3)
C92_2 C 0.6645(5) 0.2638(4) 0.9211(5)
H56_2 H 0.6192 0.2826 0.8921
C93_2 C 0.7413(6) 0.2973(5) 0.9063(7)
H57_2 H 0.7472 0.3373 0.8662
C94_2 C 0.8065(7) 0.2730(7) 0.9488(8)
H58_2 H 0.8572 0.2970 0.9388
Cu6_5 Cu 0.0000 -0.0000 0.5000
C18_3 C 0.1986(4) -0.0000 0.5000
C23_2 C 0.2118(6) 0.0083(11) 0.7995(5)
H14_2 H 0.1949 0.0386 0.8447
C24_2 C 0.1774(4) 0.0203(6) 0.7230(4)
H15_2 H 0.1354 0.0584 0.7176
C25_3 C 0.2865(5) -0.0000 0.5000
N2_3 N 0.3571(4) -0.0000 0.5000
C26_2 C 0.1587(3) 0.0082(5) 0.4236(3)
O4_2 O 0.08241(18) 0.0030(6) 0.4153(2)
C27_2 C 0.2028(4) 0.0215(3) 0.3448(4)
C28_2 C 0.2638(4) 0.0789(5) 0.3355(5)
H16_2 H 0.2826 0.1079 0.3808
C29_2 C 0.2973(5) 0.0937(7) 0.2587(6)
H17_2 H 0.3373 0.1338 0.2528
C30_2 C 0.2730(7) 0.0512(8) 0.1935(7)
H18_2 H 0.2970 0.0612 0.1428
O5_2 O 0.0847(2) 0.41759(18) 0.5030(6)
C33_2 C 0.0764(3) 0.3413(3) 0.5082(5)
C34_3 C -0.0000 0.3014(4) 0.5000
C35_2 C 0.1552(4) 0.2972(4) 0.5215(3)
C36_2 C 0.1645(5) 0.2362(4) 0.5789(5)
H21_2 H 0.1192 0.2174 0.6079
C37_2 C 0.2413(6) 0.2027(5) 0.5937(7)
H22_2 H 0.2472 0.1627 0.6338
C38_2 C 0.3065(7) 0.2270(7) 0.5512(8)
H23_2 H 0.3572 0.2030 0.5612
C39_2 C 0.2995(5) 0.2882(6) 0.4917(11)
H24_2 H 0.3447 0.3051 0.4614
C40_2 C 0.2230(4) 0.3226(4) 0.4797(6)
H25_2 H 0.2176 0.3646 0.4416
C41_3 C -0.0000 0.2135(5) 0.5000
N3_3 N -0.0000 0.1429(4) 0.5000
O9_2 O 0.0847(2) 0.58241(18) 0.4970(6)
C65_2 C 0.0764(3) 0.6587(3) 0.4918(5)
C66_3 C 0.0000 0.6986(4) 0.5000
C67_2 C 0.1552(4) 0.7028(4) 0.4785(3)
C68_2 C 0.1645(5) 0.7638(4) 0.4211(5)
H41_2 H 0.1192 0.7826 0.3921
C69_2 C 0.2413(6) 0.7973(5) 0.4063(7)
H42_2 H 0.2472 0.8373 0.3662
C70_2 C 0.3065(7) 0.7730(7) 0.4488(8)
H43_2 H 0.3572 0.7970 0.4388
C71_2 C 0.2995(5) 0.7118(6) 0.5083(11)
H44_2 H 0.3447 0.6949 0.5386
C72_2 C 0.2230(4) 0.6774(4) 0.5203(6)
H45_2 H 0.2176 0.6354 0.5584
C73_3 C -0.0000 0.7865(5) 0.5000
N5_3 N -0.0000 0.8571(4) 0.5000
Cu5_3 Cu 0.5000 -0.0000 0.5000
Cu6_6 Cu -0.0000 1.0000 0.5000
O3_2 O 0.08241(18) 0.9970(6) 0.5847(2)
C17_2 C 0.1587(3) 0.9918(5) 0.5764(3)
C18_4 C 0.1986(4) 1.0000 0.5000
C19_2 C 0.2028(4) 0.9785(3) 0.6552(4)
C20_2 C 0.2638(4) 0.9211(5) 0.6645(5)
H11_2 H 0.2826 0.8921 0.6192
C21_2 C 0.2973(5) 0.9063(7) 0.7413(6)
H12_2 H 0.3373 0.8662 0.7472
C22_2 C 0.2730(7) 0.9488(8) 0.8065(7)
H13_2 H 0.2970 0.9388 0.8572
C25_4 C 0.2865(5) 1.0000 0.5000
N2_4 N 0.3571(4) 1.0000 0.5000
C31_2 C 0.2118(6) 0.9917(11) 0.2005(5)
H19_2 H 0.1949 0.9614 0.1553
C32_2 C 0.1774(4) 0.9797(6) 0.2770(4)
H20_2 H 0.1354 0.9416 0.2824
Cu5_4 Cu 0.5000 1.0000 0.5000
Cu6_7 Cu 1.0000 -0.0000 0.5000
O1_2 O 0.91759(18) 0.0030(6) 0.5847(2)
C1_2 C 0.8413(3) 0.0082(5) 0.5764(3)
C2_3 C 0.8014(4) 0.0000 0.5000
C3_2 C 0.7972(4) 0.0215(3) 0.6552(4)
C4_2 C 0.7362(4) 0.0789(5) 0.6645(5)
H1_2 H 0.7174 0.1079 0.6192
C5_2 C 0.7027(5) 0.0937(7) 0.7413(6)
H2_2 H 0.6627 0.1338 0.7472
C6_2 C 0.7270(7) 0.0512(8) 0.8065(7)
H3_2 H 0.7030 0.0612 0.8572
C9_3 C 0.7135(5) 0.0000 0.5000
N1_3 N 0.6429(4) 0.0000 0.5000
C15_2 C 0.7882(6) 0.0083(11) 0.2005(5)
H9_2 H 0.8051 0.0386 0.1553
C16_2 C 0.8226(4) 0.0203(6) 0.2770(4)
H10_2 H 0.8646 0.0584 0.2824
C34_4 C 1.0000 0.3014(4) 0.5000
C41_4 C 1.0000 0.2135(5) 0.5000
N3_4 N 1.0000 0.1429(4) 0.5000
C42_2 C 0.9236(3) 0.3413(3) 0.4918(5)
O6_2 O 0.9153(2) 0.41759(18) 0.4970(6)
C43_2 C 0.8448(4) 0.2972(4) 0.4785(3)
C44_2 C 0.8355(5) 0.2362(4) 0.4211(5)
H26_2 H 0.8808 0.2174 0.3921
C45_2 C 0.7587(6) 0.2027(5) 0.4063(7)
H27_2 H 0.7528 0.1627 0.3662
C46_2 C 0.6935(7) 0.2270(7) 0.4488(8)
H28_2 H 0.6428 0.2030 0.4388
C47_2 C 0.7005(5) 0.2882(6) 0.5083(11)
H29_2 H 0.6553 0.3051 0.5386
C48_2 C 0.7770(4) 0.3226(4) 0.5203(6)
H30_2 H 0.7824 0.3646 0.5584
C66_4 C 1.0000 0.6986(4) 0.5000
C73_4 C 1.0000 0.7865(5) 0.5000
N5_4 N 1.0000 0.8571(4) 0.5000
C74_2 C 0.9236(3) 0.6587(3) 0.5082(5)
O10_2 O 0.9153(2) 0.58241(18) 0.5030(6)
C75_2 C 0.8448(4) 0.7028(4) 0.5215(3)
C76_2 C 0.8355(5) 0.7638(4) 0.5789(5)
H46_2 H 0.8808 0.7826 0.6079
C77_2 C 0.7587(6) 0.7973(5) 0.5937(7)
H47_2 H 0.7528 0.8373 0.6338
C78_2 C 0.6935(7) 0.7730(7) 0.5512(8)
H48_2 H 0.6428 0.7970 0.5612
C79_2 C 0.7005(5) 0.7118(6) 0.4917(11)
H49_2 H 0.6553 0.6949 0.4614
C80_2 C 0.7770(4) 0.6774(4) 0.4797(6)
H50_2 H 0.7824 0.6354 0.4416
Cu6_8 Cu 1.0000 1.0000 0.5000
C2_4 C 0.8014(4) 1.0000 0.5000
C7_2 C 0.7882(6) 0.9917(11) 0.7995(5)
H4_2 H 0.8051 0.9614 0.8447
C8_2 C 0.8226(4) 0.9797(6) 0.7230(4)
H5_2 H 0.8646 0.9416 0.7176
C9_4 C 0.7135(5) 1.0000 0.5000
N1_4 N 0.6429(4) 1.0000 0.5000
C10_2 C 0.8413(3) 0.9918(5) 0.4236(3)
O2_2 O 0.91759(18) 0.9970(6) 0.4153(2)
C11_2 C 0.7972(4) 0.9785(3) 0.3448(4)
C12_2 C 0.7362(4) 0.9211(5) 0.3355(5)
H6_2 H 0.7174 0.8921 0.3808
C13_2 C 0.7027(5) 0.9063(7) 0.2587(6)
H7_2 H 0.6627 0.8662 0.2528
C14_2 C 0.7270(7) 0.9488(8) 0.1935(7)
H8_2 H 0.7030 0.9388 0.1428
O5_3 O 0.5030(6) 0.0847(2) 0.41759(18)
C33_3 C 0.5082(5) 0.0764(3) 0.3413(3)
C34_5 C 0.5000 -0.0000 0.3014(4)
C35_3 C 0.5215(3) 0.1552(4) 0.2972(4)
C36_3 C 0.5789(5) 0.1645(5) 0.2362(4)
H21_3 H 0.6079 0.1192 0.2174
C37_3 C 0.5937(7) 0.2413(6) 0.2027(5)
H22_3 H 0.6338 0.2472 0.1627
C38_3 C 0.5512(8) 0.3065(7) 0.2270(7)
H23_3 H 0.5612 0.3572 0.2030
C39_3 C 0.4917(11) 0.2995(5) 0.2882(6)
H24_3 H 0.4614 0.3447 0.3051
C40_3 C 0.4797(6) 0.2230(4) 0.3226(4)
H25_3 H 0.4416 0.2176 0.3646
C41_5 C 0.5000 -0.0000 0.2135(5)
N3_5 N 0.5000 0.0000 0.1429(4)
O9_3 O 0.4970(6) 0.0847(2) 0.58241(18)
C65_3 C 0.4918(5) 0.0764(3) 0.6587(3)
C66_5 C 0.5000 0.0000 0.6986(4)
C67_3 C 0.4785(3) 0.1552(4) 0.7028(4)
C68_3 C 0.4211(5) 0.1645(5) 0.7638(4)
H41_3 H 0.3921 0.1192 0.7826
C69_3 C 0.4063(7) 0.2413(6) 0.7973(5)
H42_3 H 0.3662 0.2472 0.8373
C70_3 C 0.4488(8) 0.3065(7) 0.7730(7)
H43_3 H 0.4388 0.3572 0.7970
C71_3 C 0.5083(11) 0.2995(5) 0.7118(6)
H44_3 H 0.5386 0.3447 0.6949
C72_3 C 0.5203(6) 0.2230(4) 0.6774(4)
H45_3 H 0.5584 0.2176 0.6354
C73_5 C 0.5000 -0.0000 0.7865(5)
N5_5 N 0.5000 -0.0000 0.8571(4)
C34_6 C 0.5000 1.0000 0.3014(4)
C41_6 C 0.5000 1.0000 0.2135(5)
N3_6 N 0.5000 1.0000 0.1429(4)
C42_3 C 0.4918(5) 0.9236(3) 0.3413(3)
O6_3 O 0.4970(6) 0.9153(2) 0.41759(18)
C43_3 C 0.4785(3) 0.8448(4) 0.2972(4)
C44_3 C 0.4211(5) 0.8355(5) 0.2362(4)
H26_3 H 0.3921 0.8808 0.2174
C45_3 C 0.4063(7) 0.7587(6) 0.2027(5)
H27_3 H 0.3662 0.7528 0.1627
C46_3 C 0.4488(8) 0.6935(7) 0.2270(7)
H28_3 H 0.4388 0.6428 0.2030
C47_3 C 0.5083(11) 0.7005(5) 0.2882(6)
H29_3 H 0.5386 0.6553 0.3051
C48_3 C 0.5203(6) 0.7770(4) 0.3226(4)
H30_3 H 0.5584 0.7824 0.3646
C66_6 C 0.5000 1.0000 0.6986(4)
C73_6 C 0.5000 1.0000 0.7865(5)
N5_6 N 0.5000 1.0000 0.8571(4)
C74_3 C 0.5082(5) 0.9236(3) 0.6587(3)
O10_3 O 0.5030(6) 0.9153(2) 0.58241(18)
C75_3 C 0.5215(3) 0.8448(4) 0.7028(4)
C76_3 C 0.5789(5) 0.8355(5) 0.7638(4)
H46_3 H 0.6079 0.8808 0.7826
C77_3 C 0.5937(7) 0.7587(6) 0.7973(5)
H47_3 H 0.6338 0.7528 0.8373
C78_3 C 0.5512(8) 0.6935(7) 0.7730(7)
H48_3 H 0.5612 0.6428 0.7970
C79_3 C 0.4917(11) 0.7005(5) 0.7118(6)
H49_3 H 0.4614 0.6553 0.6949
C80_3 C 0.4797(6) 0.7770(4) 0.6774(4)
H50_3 H 0.4416 0.7824 0.6354
loop_
_geom_bond_atom_site_label_1
_geom_bond_atom_site_label_2
_geom_bond_site_symmetry_1
_geom_bond_site_symmetry_2
H14 C23 1_555 1_555
H15 C24 1_555 1_555
C25 C18 1_555 1_555
N2 C25 1_555 1_555
C26 C18 1_555 1_555
O4 Cu6 1_555 1_555
C27 C26 1_555 1_555
C28 C27 1_555 1_555
H16 C28 1_555 1_555
C29 C28 1_555 1_555
H17 C29 1_555 1_555
C30 C29 1_555 1_555
H18 C30 1_555 1_555
O5 C33 1_555 1_555
C33 C34 1_555 1_555
C34 C41 1_555 1_555
C35 C33 1_555 1_555
C36 C35 1_555 1_555
H21 C36 1_555 1_555
C37 C36 1_555 1_555
H22 C37 1_555 1_555
C38 C37 1_555 1_555
H23 C38 1_555 1_555
C39 C38 1_555 1_555
H24 C39 1_555 1_555
C40 C35 1_555 1_555
H25 C40 1_555 1_555
C41 N3 1_555 1_555
N3 Cu6 1_555 1_555
Cu2 O5 1_555 1_555
O9 Cu2 1_555 1_555
C65 O9 1_555 1_555
C66 C65 1_555 1_555
C67 C65 1_555 1_555
C68 C67 1_555 1_555
H41 C68 1_555 1_555
C69 C68 1_555 1_555
H42 C69 1_555 1_555
C70 C69 1_555 1_555
H43 C70 1_555 1_555
C71 C70 1_555 1_555
H44 C71 1_555 1_555
C72 C67 1_555 1_555
H45 C72 1_555 1_555
C73 C66 1_555 1_555
N5 C73 1_555 1_555
O11 C81 1_555 1_555
C81 C82 1_555 1_555
C82 C89 1_555 1_555
C83 C81 1_555 1_555
C84 C83 1_555 1_555
H51 C84 1_555 1_555
C85 C84 1_555 1_555
H52 C85 1_555 1_555
C86 C85 1_555 1_555
H53 C86 1_555 1_555
C89 N6 1_555 1_555
N6 Cu2 1_555 1_555
H59 C95 1_555 1_555
H60 C96 1_555 1_555
Cu5 N2 1_555 1_555
N7 Cu2 1_555 1_555
Cu6_3 N5 1_555 1_555
Cu7_3 O11 1_555 1_555
C23 C24 1_555 1_555
C26 O4 1_555 1_555
C39 C40 1_555 1_555
C71 C72 1_555 1_555
C95 C96 1_555 1_555
Cu6_2 O1 1_555 1_555
O1 C1 1_555 1_555
C1 C2 1_555 1_555
C2 C9 1_555 1_555
C3 C1 1_555 1_555
C4 C3 1_555 1_555
H1 C4 1_555 1_555
C5 C4 1_555 1_555
H2 C5 1_555 1_555
C6 C5 1_555 1_555
H3 C6 1_555 1_555
C9 N1 1_555 1_555
N1 Cu5 1_555 1_555
H9 C15 1_555 1_555
H10 C16 1_555 1_555
C34_2 C41_2 1_555 1_555
C41_2 N3_2 1_555 1_555
N3_2 Cu6_2 1_555 1_555
C42 C34_2 1_555 1_555
O6 C42 1_555 1_555
C43 C42 1_555 1_555
C44 C43 1_555 1_555
H26 C44 1_555 1_555
C45 C44 1_555 1_555
H27 C45 1_555 1_555
C46 C45 1_555 1_555
H28 C46 1_555 1_555
C47 C46 1_555 1_555
H29 C47 1_555 1_555
C48 C43 1_555 1_555
H30 C48 1_555 1_555
C73_2 C66_2 1_555 1_555
N5_2 C73_2 1_555 1_555
C74 C66_2 1_555 1_555
O10 Cu2_2 1_555 1_555
C75 C74 1_555 1_555
C76 C75 1_555 1_555
H46 C76 1_555 1_555
C77 C76 1_555 1_555
H47 C77 1_555 1_555
C78 C77 1_555 1_555
H48 C78 1_555 1_555
C79 C78 1_555 1_555
H49 C79 1_555 1_555
C80 C75 1_555 1_555
H50 C80 1_555 1_555
C82_2 C89_2 1_555 1_555
H54 C87 1_555 1_555
H55 C88 1_555 1_555
C89_2 N6_2 1_555 1_555
N6_2 Cu2_2 1_555 1_555
C90 C82_2 1_555 1_555
O12 C90 1_555 1_555
C91 C90 1_555 1_555
C92 C91 1_555 1_555
H56 C92 1_555 1_555
C93 C92 1_555 1_555
H57 C93 1_555 1_555
C94 C93 1_555 1_555
H58 C94 1_555 1_555
N7_2 Cu2_2 1_555 1_555
Cu6_4 N5_2 1_555 1_555
C15 C16 1_555 1_555
O6 Cu2_2 1_555 1_555
C47 C48 1_555 1_555
C74 O10 1_555 1_555
C79 C80 1_555 1_555
C87 C88 1_555 1_555
O12 Cu7_4 1_555 1_555
O3 Cu6_3 1_555 1_555
C17 O3 1_555 1_555
C18_2 C17 1_555 1_555
C19 C17 1_555 1_555
C20 C19 1_555 1_555
H11 C20 1_555 1_555
C21 C20 1_555 1_555
H12 C21 1_555 1_555
C22 C21 1_555 1_555
H13 C22 1_555 1_555
C25_2 C18_2 1_555 1_555
N2_2 C25_2 1_555 1_555
H19 C31 1_555 1_555
H20 C32 1_555 1_555
Cu5_2 N2_2 1_555 1_555
C31 C32 1_555 1_555
C2_2 C9_2 1_555 1_555
H4 C7 1_555 1_555
H5 C8 1_555 1_555
C9_2 N1_2 1_555 1_555
N1_2 Cu5_2 1_555 1_555
C10 C2_2 1_555 1_555
O2 Cu6_4 1_555 1_555
C11 C10 1_555 1_555
C12 C11 1_555 1_555
H6 C12 1_555 1_555
C13 C12 1_555 1_555
H7 C13 1_555 1_555
C14 C13 1_555 1_555
H8 C14 1_555 1_555
C7 C8 1_555 1_555
C10 O2 1_555 1_555
O11_2 C81_2 1_555 1_555
C81_2 C82_3 1_555 1_555
C82_3 C89_3 1_555 1_555
C83_2 C81_2 1_555 1_555
C84_2 C83_2 1_555 1_555
H51_2 C84_2 1_555 1_555
C85_2 C84_2 1_555 1_555
H52_2 C85_2 1_555 1_555
C86_2 C85_2 1_555 1_555
H53_2 C86_2 1_555 1_555
C89_3 N7 1_555 1_555
H59_2 C95_2 1_555 1_555
H60_2 C96_2 1_555 1_555
Cu7 O11_2 1_555 1_555
C95_2 C96_2 1_555 1_555
C82_4 C89_4 1_555 1_555
H54_2 C87_2 1_555 1_555
H55_2 C88_2 1_555 1_555
C89_4 N7_2 1_555 1_555
C90_2 C82_4 1_555 1_555
O12_2 C90_2 1_555 1_555
C91_2 C90_2 1_555 1_555
C92_2 C91_2 1_555 1_555
H56_2 C92_2 1_555 1_555
C93_2 C92_2 1_555 1_555
H57_2 C93_2 1_555 1_555
C94_2 C93_2 1_555 1_555
H58_2 C94_2 1_555 1_555
C87_2 C88_2 1_555 1_555
O12_2 Cu7_2 1_555 1_555
H14_2 C23_2 1_555 1_555
H15_2 C24_2 1_555 1_555
C25_3 C18_3 1_555 1_555
N2_3 C25_3 1_555 1_555
C26_2 C18_3 1_555 1_555
O4_2 Cu6_5 1_555 1_555
C27_2 C26_2 1_555 1_555
C28_2 C27_2 1_555 1_555
H16_2 C28_2 1_555 1_555
C29_2 C28_2 1_555 1_555
H17_2 C29_2 1_555 1_555
C30_2 C29_2 1_555 1_555
H18_2 C30_2 1_555 1_555
O5_2 C33_2 1_555 1_555
C33_2 C34_3 1_555 1_555
C34_3 C41_3 1_555 1_555
C35_2 C33_2 1_555 1_555
C36_2 C35_2 1_555 1_555
H21_2 C36_2 1_555 1_555
C37_2 C36_2 1_555 1_555
H22_2 C37_2 1_555 1_555
C38_2 C37_2 1_555 1_555
H23_2 C38_2 1_555 1_555
C39_2 C38_2 1_555 1_555
H24_2 C39_2 1_555 1_555
C40_2 C35_2 1_555 1_555
H25_2 C40_2 1_555 1_555
C41_3 N3_3 1_555 1_555
N3_3 Cu6_5 1_555 1_555
Cu5 O5_2 1_555 1_555
O9_2 Cu5 1_555 1_555
C65_2 O9_2 1_555 1_555
C66_3 C65_2 1_555 1_555
C67_2 C65_2 1_555 1_555
C68_2 C67_2 1_555 1_555
H41_2 C68_2 1_555 1_555
C69_2 C68_2 1_555 1_555
H42_2 C69_2 1_555 1_555
C70_2 C69_2 1_555 1_555
H43_2 C70_2 1_555 1_555
C71_2 C70_2 1_555 1_555
H44_2 C71_2 1_555 1_555
C72_2 C67_2 1_555 1_555
H45_2 C72_2 1_555 1_555
C73_3 C66_3 1_555 1_555
N5_3 C73_3 1_555 1_555
Cu5_3 N2_3 1_555 1_555
Cu6_6 N5_3 1_555 1_555
C23_2 C24_2 1_555 1_555
C26_2 O4_2 1_555 1_555
C39_2 C40_2 1_555 1_555
C71_2 C72_2 1_555 1_555
O3_2 Cu6_6 1_555 1_555
C17_2 O3_2 1_555 1_555
C18_4 C17_2 1_555 1_555
C19_2 C17_2 1_555 1_555
C20_2 C19_2 1_555 1_555
H11_2 C20_2 1_555 1_555
C21_2 C20_2 1_555 1_555
H12_2 C21_2 1_555 1_555
C22_2 C21_2 1_555 1_555
H13_2 C22_2 1_555 1_555
C25_4 C18_4 1_555 1_555
N2_4 C25_4 1_555 1_555
H19_2 C31_2 1_555 1_555
H20_2 C32_2 1_555 1_555
Cu5_4 N2_4 1_555 1_555
C31_2 C32_2 1_555 1_555
Cu6_7 O1_2 1_555 1_555
O1_2 C1_2 1_555 1_555
C1_2 C2_3 1_555 1_555
C2_3 C9_3 1_555 1_555
C3_2 C1_2 1_555 1_555
C4_2 C3_2 1_555 1_555
H1_2 C4_2 1_555 1_555
C5_2 C4_2 1_555 1_555
H2_2 C5_2 1_555 1_555
C6_2 C5_2 1_555 1_555
H3_2 C6_2 1_555 1_555
C9_3 N1_3 1_555 1_555
N1_3 Cu5_3 1_555 1_555
H9_2 C15_2 1_555 1_555
H10_2 C16_2 1_555 1_555
C34_4 C41_4 1_555 1_555
C41_4 N3_4 1_555 1_555
N3_4 Cu6_7 1_555 1_555
C42_2 C34_4 1_555 1_555
O6_2 C42_2 1_555 1_555
C43_2 C42_2 1_555 1_555
C44_2 C43_2 1_555 1_555
H26_2 C44_2 1_555 1_555
C45_2 C44_2 1_555 1_555
H27_2 C45_2 1_555 1_555
C46_2 C45_2 1_555 1_555
H28_2 C46_2 1_555 1_555
C47_2 C46_2 1_555 1_555
H29_2 C47_2 1_555 1_555
C48_2 C43_2 1_555 1_555
H30_2 C48_2 1_555 1_555
C73_4 C66_4 1_555 1_555
N5_4 C73_4 1_555 1_555
C74_2 C66_4 1_555 1_555
O10_2 Cu5_2 1_555 1_555
C75_2 C74_2 1_555 1_555
C76_2 C75_2 1_555 1_555
H46_2 C76_2 1_555 1_555
C77_2 C76_2 1_555 1_555
H47_2 C77_2 1_555 1_555
C78_2 C77_2 1_555 1_555
H48_2 C78_2 1_555 1_555
C79_2 C78_2 1_555 1_555
H49_2 C79_2 1_555 1_555
C80_2 C75_2 1_555 1_555
H50_2 C80_2 1_555 1_555
Cu6_8 N5_4 1_555 1_555
C15_2 C16_2 1_555 1_555
O6_2 Cu5_2 1_555 1_555
C47_2 C48_2 1_555 1_555
C74_2 O10_2 1_555 1_555
C79_2 C80_2 1_555 1_555
C2_4 C9_4 1_555 1_555
H4_2 C7_2 1_555 1_555
H5_2 C8_2 1_555 1_555
C9_4 N1_4 1_555 1_555
N1_4 Cu5_4 1_555 1_555
C10_2 C2_4 1_555 1_555
O2_2 Cu6_8 1_555 1_555
C11_2 C10_2 1_555 1_555
C12_2 C11_2 1_555 1_555
H6_2 C12_2 1_555 1_555
C13_2 C12_2 1_555 1_555
H7_2 C13_2 1_555 1_555
C14_2 C13_2 1_555 1_555
H8_2 C14_2 1_555 1_555
C7_2 C8_2 1_555 1_555
C10_2 O2_2 1_555 1_555
O5_3 C33_3 1_555 1_555
C33_3 C34_5 1_555 1_555
C34_5 C41_5 1_555 1_555
C35_3 C33_3 1_555 1_555
C36_3 C35_3 1_555 1_555
H21_3 C36_3 1_555 1_555
C37_3 C36_3 1_555 1_555
H22_3 C37_3 1_555 1_555
C38_3 C37_3 1_555 1_555
H23_3 C38_3 1_555 1_555
C39_3 C38_3 1_555 1_555
H24_3 C39_3 1_555 1_555
C40_3 C35_3 1_555 1_555
H25_3 C40_3 1_555 1_555
C41_5 N3_5 1_555 1_555
N3_5 Cu7 1_555 1_555
Cu5_3 O5_3 1_555 1_555
O9_3 Cu5_3 1_555 1_555
C65_3 O9_3 1_555 1_555
C66_5 C65_3 1_555 1_555
C67_3 C65_3 1_555 1_555
C68_3 C67_3 1_555 1_555
H41_3 C68_3 1_555 1_555
C69_3 C68_3 1_555 1_555
H42_3 C69_3 1_555 1_555
C70_3 C69_3 1_555 1_555
H43_3 C70_3 1_555 1_555
C71_3 C70_3 1_555 1_555
H44_3 C71_3 1_555 1_555
C72_3 C67_3 1_555 1_555
H45_3 C72_3 1_555 1_555
C73_5 C66_5 1_555 1_555
N5_5 C73_5 1_555 1_555
Cu7_2 N5_5 1_555 1_555
C39_3 C40_3 1_555 1_555
C71_3 C72_3 1_555 1_555
C34_6 C41_6 1_555 1_555
C41_6 N3_6 1_555 1_555
N3_6 Cu7_3 1_555 1_555
C42_3 C34_6 1_555 1_555
O6_3 C42_3 1_555 1_555
C43_3 C42_3 1_555 1_555
C44_3 C43_3 1_555 1_555
H26_3 C44_3 1_555 1_555
C45_3 C44_3 1_555 1_555
H27_3 C45_3 1_555 1_555
C46_3 C45_3 1_555 1_555
H28_3 C46_3 1_555 1_555
C47_3 C46_3 1_555 1_555
H29_3 C47_3 1_555 1_555
C48_3 C43_3 1_555 1_555
H30_3 C48_3 1_555 1_555
C73_6 C66_6 1_555 1_555
N5_6 C73_6 1_555 1_555
C74_3 C66_6 1_555 1_555
O10_3 Cu5_4 1_555 1_555
C75_3 C74_3 1_555 1_555
C76_3 C75_3 1_555 1_555
H46_3 C76_3 1_555 1_555
C77_3 C76_3 1_555 1_555
H47_3 C77_3 1_555 1_555
C78_3 C77_3 1_555 1_555
H48_3 C78_3 1_555 1_555
C79_3 C78_3 1_555 1_555
H49_3 C79_3 1_555 1_555
C80_3 C75_3 1_555 1_555
H50_3 C80_3 1_555 1_555
Cu7_4 N5_6 1_555 1_555
O6_3 Cu5_4 1_555 1_555
C47_3 C48_3 1_555 1_555
C74_3 O10_3 1_555 1_555
C79_3 C80_3 1_555 1_555

#END
