
###############################################################################
#
# This file contains modified crystal structure data generated from the
# MOF subset of the Cambridge Structural Database (CSD) v543 
# hosted by the Cambridge Crystallographic Data Centre (CCDC).
#
# This work is licensed under the Creative Commons
# Attribution-NonCommercial-ShareAlike 4.0 International License.
# To view a copy of this license, visit
# http://creativecommons.org/licenses/by-nc-sa/4.0/
# or send a letter to
# Creative Commons, PO Box 1866, Mountain View, CA 94042, USA.
#
# CIF created using the CSD Python API on 29 September 2022
# The structure has been converted into the P1 space group
# The structure has a 3D framework
# The original CSD entry IKAYAU is in the monoclinic crystal system
# The framework has been calculated to contain at least 10.0% void space
# The void calculation uses a probe of radius 1.32A, grid spacing 0.4
# H atom positions have been added when not included in the experimental data
#
###############################################################################

data_IKAYAU
_chemical_formula_moiety         '(C192 H128 Eu8 N16 O52)n'
_symmetry_cell_setting           triclinic
_symmetry_space_group_name_H-M   'P 1'
_symmetry_Int_Tables_number      1
_space_group_name_Hall           'P 1'
loop_
_symmetry_equiv_pos_site_id
_symmetry_equiv_pos_as_xyz
1 x,y,z
_cell_length_a                   20.979(4)
_cell_length_b                   11.5989(19)
_cell_length_c                   20.810(3)
_cell_angle_alpha                90
_cell_angle_beta                 110.391(3)
_cell_angle_gamma                90
_cell_volume                     4746.45
loop_
_atom_site_label
_atom_site_type_symbol
_atom_site_fract_x
_atom_site_fract_y
_atom_site_fract_z
O1 O 0.40354(15) 0.0069(2) 0.51050(15)
O2 O 0.49778(15) 0.1134(2) 0.54650(15)
O3 O 0.46577(18) 0.5416(3) 0.56201(17)
O4 O 0.39073(18) 0.6187(3) 0.46924(16)
C1 C 0.4344(2) 0.1028(4) 0.5178(2)
C2 C 0.3931(2) 0.2095(3) 0.4905(2)
C3 C 0.3273(2) 0.2020(4) 0.4435(2)
H1 H 0.3076 0.1300 0.4300
C4 C 0.2909(2) 0.3007(4) 0.4165(3)
H2 H 0.2469 0.2951 0.3850
C5 C 0.3199(3) 0.4075(4) 0.4365(2)
H3 H 0.2954 0.4737 0.4177
C6 C 0.3852(2) 0.4174(4) 0.4843(2)
C7 C 0.4215(2) 0.3178(4) 0.5108(2)
H4 H 0.4654 0.3235 0.5425
C8 C 0.4165(3) 0.5337(4) 0.5075(2)
C37 C 0.3971(3) 0.0398(4) 0.3468(2)
H21 H 0.4437 0.0344 0.3702
C38 C 0.3743(3) 0.1267(5) 0.2986(3)
H22 H 0.4047 0.1777 0.2903
C39 C 0.3065(3) 0.1358(5) 0.2637(3)
H23 H 0.2897 0.1949 0.2320
C40 C 0.2617(3) 0.0556(4) 0.2757(2)
C41 C 0.1898(3) 0.0583(5) 0.2408(3)
H24 H 0.1711 0.1151 0.2081
Eu3 Eu 0.599085(11) 0.179257(18) 0.536008(11)
Eu4 Eu 0.400915(11) 0.820743(18) 0.463992(11)
Eu1 Eu 0.053766(11) 0.421736(18) 0.445831(10)
O5 O 0.12096(15) 0.4274(3) 0.37054(14)
O6 O 0.01892(15) 0.3512(3) 0.32456(14)
O8 O 0.04450(16) 0.1212(3) 0.05392(15)
O9 O 0.33508(15) 0.7910(3) 0.53822(15)
O10 O 0.40252(16) 0.8180(3) 0.64663(15)
O11 O 0.11353(15) 0.5817(2) 0.51130(14)
O12 O 0.40576(18) 0.7267(3) 0.35989(17)
O13 O 0.48481(15) 0.7718(3) 0.57639(14)
N1 N 0.17499(19) 0.3413(3) 0.51605(18)
N2 N 0.0700(2) 0.2022(3) 0.44310(19)
N3 N 0.27426(19) 0.8060(3) 0.38939(18)
N4 N 0.35792(18) 0.9648(3) 0.36182(18)
C9 C 0.0755(2) 0.3789(4) 0.3212(2)
C10 C 0.0898(2) 0.3535(4) 0.2564(2)
C11 C 0.1388(3) 0.4153(4) 0.2405(2)
H5 H 0.1637 0.4720 0.2703
C12 C 0.1512(3) 0.3930(4) 0.1804(2)
H6 H 0.1841 0.4347 0.1698
C13 C 0.1141(2) 0.3083(4) 0.1363(2)
H7 H 0.1215 0.2946 0.0954
C14 C 0.0666(2) 0.2442(3) 0.15225(19)
C15 C 0.0535(2) 0.2679(4) 0.21171(19)
H8 H 0.0202 0.2264 0.2218
C16 C 0.0312(2) 0.1444(4) 0.1068(2)
C17 C 0.3462(2) 0.7965(4) 0.6021(2)
C18 C 0.2857(2) 0.7762(4) 0.6247(2)
C19 C 0.2873(2) 0.8196(4) 0.6879(2)
H9 H 0.3263 0.8560 0.7168
C20 C 0.2318(2) 0.8088(4) 0.7076(2)
H10 H 0.2331 0.8395 0.7494
C21 C 0.1738(2) 0.7529(4) 0.6662(2)
H11 H 0.1362 0.7472 0.6799
C22 C 0.1715(2) 0.7051(3) 0.6043(2)
C23 C 0.2280(2) 0.7190(4) 0.5839(2)
H12 H 0.2266 0.6891 0.5420
C24 C 0.1102(2) 0.6374(3) 0.5624(2)
C25 C 0.2261(2) 0.4064(4) 0.5534(2)
H13 H 0.2191 0.4855 0.5542
C26 C 0.2903(3) 0.3627(5) 0.5918(3)
H14 H 0.3247 0.4121 0.6174
C27 C 0.3019(3) 0.2481(5) 0.5913(3)
H15 H 0.3440 0.2178 0.6174
C28 C 0.2503(3) 0.1761(4) 0.5515(2)
C29 C 0.2593(3) 0.0539(5) 0.5454(3)
H16 H 0.3015 0.0208 0.5688
C31 C 0.1422(3) 0.0332(4) 0.4722(3)
C33 C 0.0250(3) 0.0156(5) 0.4035(3)
C34 C 0.0187(3) 0.1345(4) 0.4084(3)
C35 C 0.1320(2) 0.1531(4) 0.4754(2)
C36 C 0.1866(2) 0.2260(4) 0.5142(2)
C42 C 0.1488(3) 0.9809(5) 0.2541(3)
H25 H 0.1022 0.9850 0.2306
C43 C 0.1753(3) 0.8920(4) 0.3039(2)
C44 C 0.1352(3) 0.8047(5) 0.3167(3)
H26 H 0.0886 0.8037 0.2927
C45 C 0.1638(3) 0.7215(5) 0.3637(3)
H27 H 0.1375 0.6629 0.3720
C46 C 0.2336(2) 0.7261(4) 0.3993(2)
H28 H 0.2528 0.6695 0.4319
C47 C 0.2459(2) 0.8877(4) 0.3409(2)
C48 C 0.2900(2) 0.9701(4) 0.3263(2)
O14 O 0.05966(15) 0.6392(3) 0.58137(14)
O15 O 0.00944(17) 0.5853(3) 0.37402(15)
O16 O 0.04450(16) 0.3788(3) 0.55392(15)
O18 O 0.50222(15) 0.8866(2) 0.45350(15)
H29 H 0.464783 0.785191 0.612519
H30 H 0.497836 0.689438 0.576716
H31 H 0.449385 0.746324 0.353814
H32 H 0.402601 0.641836 0.364321
Eu6 Eu 0.053766(11) 0.078264(18) 0.945831(10)
O7 O 0.99056(17) 0.0853(3) 0.12598(15)
H20 H 0.9764 0.1680 0.3864
O17 O 0.94034(15) 0.3608(3) 0.41863(14)
Eu7 Eu 0.946234(11) 0.578264(18) 0.554169(10)
H19 H 0.9876 0.9709 0.3791
Eu5 Eu 0.946234(11) 0.921736(18) 0.054169(10)
H19_2 H 0.0124 0.4709 0.1209
H20_2 H 0.0236 0.6680 0.1136
O17_2 O 0.05966(15) 0.8608(3) 0.08137(14)
O4_2 O 0.60927(18) 0.1187(3) 0.03076(16)
Eu4_2 Eu 0.599085(11) 0.320743(18) 0.036008(11)
O12_2 O 0.59424(18) 0.2267(3) 0.14011(17)
N3_2 N 0.72574(19) 0.3060(3) 0.11061(18)
N4_2 N 0.64208(18) 0.4648(3) 0.13818(18)
C2_2 C 0.6069(2) 0.7095(3) 0.0095(2)
C3_2 C 0.6727(2) 0.7020(4) 0.0565(2)
H1_2 H 0.6924 0.6300 0.0700
C4_2 C 0.7091(2) 0.8007(4) 0.0835(3)
H2_2 H 0.7531 0.7951 0.1150
C5_2 C 0.6801(3) 0.9075(4) 0.0635(2)
H3_2 H 0.7046 0.9737 0.0823
C6_2 C 0.6148(2) 0.9174(4) 0.0157(2)
C37_2 C 0.6029(3) 0.5398(4) 0.1532(2)
H21_2 H 0.5563 0.5344 0.1298
C38_2 C 0.6257(3) 0.6267(5) 0.2014(3)
H22_2 H 0.5953 0.6777 0.2097
C39_2 C 0.6935(3) 0.6358(5) 0.2363(3)
H23_2 H 0.7103 0.6949 0.2680
C40_2 C 0.7383(3) 0.5556(4) 0.2243(2)
C41_2 C 0.8102(3) 0.5583(5) 0.2592(3)
H24_2 H 0.8289 0.6151 0.2919
C42_2 C 0.8512(3) 0.4809(5) 0.2459(3)
H25_2 H 0.8978 0.4850 0.2694
C43_2 C 0.8247(3) 0.3920(4) 0.1961(2)
C44_2 C 0.8648(3) 0.3047(5) 0.1833(3)
H26_2 H 0.9114 0.3037 0.2073
C45_2 C 0.8362(3) 0.2215(5) 0.1363(3)
H27_2 H 0.8625 0.1629 0.1280
C46_2 C 0.7664(2) 0.2261(4) 0.1007(2)
H28_2 H 0.7472 0.1695 0.0681
C47_2 C 0.7541(2) 0.3877(4) 0.1591(2)
C48_2 C 0.7100(2) 0.4701(4) 0.1737(2)
O18_2 O 0.49778(15) 0.3866(2) 0.04650(15)
H31_2 H 0.550615 0.246324 0.146186
H32_2 H 0.597399 0.141836 0.135679
O1_2 O 0.59646(15) 0.5069(2) 0.98950(15)
O2_2 O 0.50222(15) 0.6134(2) 0.95350(15)
O9_2 O 0.66492(15) 0.2910(3) 0.96178(15)
O10_2 O 0.59748(16) 0.3180(3) 0.85337(15)
O11_2 O 0.88647(15) 0.0817(2) 0.98870(14)
O13_2 O 0.51519(15) 0.2718(3) 0.92361(14)
C1_2 C 0.5656(2) 0.6028(4) 0.9822(2)
C7_2 C 0.5785(2) 0.8178(4) 0.9892(2)
H4_2 H 0.5346 0.8235 0.9575
C17_2 C 0.6538(2) 0.2965(4) 0.8979(2)
C18_2 C 0.7143(2) 0.2762(4) 0.8753(2)
C19_2 C 0.7127(2) 0.3196(4) 0.8121(2)
H9_2 H 0.6737 0.3560 0.7832
C20_2 C 0.7682(2) 0.3088(4) 0.7924(2)
H10_2 H 0.7669 0.3395 0.7506
C21_2 C 0.8262(2) 0.2529(4) 0.8338(2)
H11_2 H 0.8638 0.2472 0.8201
C22_2 C 0.8285(2) 0.2051(3) 0.8957(2)
C23_2 C 0.7720(2) 0.2190(4) 0.9161(2)
H12_2 H 0.7734 0.1891 0.9580
C24_2 C 0.8898(2) 0.1374(3) 0.9376(2)
O14_2 O 0.94034(15) 0.1392(3) 0.91863(14)
Eu3_2 Eu 0.400915(11) 0.679257(18) 0.963992(11)
H29_2 H 0.535217 0.285191 0.887481
H30_2 H 0.502164 0.189438 0.923284
O5_2 O 0.87904(15) 0.9274(3) 0.12946(14)
O6_2 O 0.98108(15) 0.8512(3) 0.17544(14)
O8_2 O 0.95550(16) 0.6212(3) 0.44608(15)
N2_2 N 0.9300(2) 0.7022(3) 0.05690(19)
C9_2 C 0.9245(2) 0.8789(4) 0.1788(2)
C10_2 C 0.9102(2) 0.8535(4) 0.2436(2)
C11_2 C 0.8612(3) 0.9153(4) 0.2595(2)
H5_2 H 0.8363 0.9720 0.2297
C12_2 C 0.8488(3) 0.8930(4) 0.3196(2)
H6_2 H 0.8159 0.9347 0.3302
C13_2 C 0.8859(2) 0.8083(4) 0.3637(2)
H7_2 H 0.8785 0.7946 0.4046
C14_2 C 0.9334(2) 0.7442(3) 0.34775(19)
C15_2 C 0.9465(2) 0.7679(4) 0.28829(19)
H8_2 H 0.9798 0.7264 0.2782
C16_2 C 0.9688(2) 0.6444(4) 0.3932(2)
C31_2 C 0.8578(3) 0.5332(4) 0.0278(3)
C32 C 0.9131(3) 0.4657(5) 0.0651(3)
H18 H 0.9079 0.3866 0.0685
C33_2 C 0.9750(3) 0.5156(5) 0.0965(3)
C34_2 C 0.9813(3) 0.6345(4) 0.0916(3)
C35_2 C 0.8680(2) 0.6531(4) 0.0246(2)
N1_2 N 0.82501(19) 0.8413(3) 0.98395(18)
C25_2 C 0.7739(2) 0.9064(4) 0.9466(2)
H13_2 H 0.7809 0.9855 0.9458
C26_2 C 0.7097(3) 0.8627(5) 0.9082(3)
H14_2 H 0.6753 0.9121 0.8826
C27_2 C 0.6981(3) 0.7481(5) 0.9087(3)
H15_2 H 0.6560 0.7178 0.8826
C28_2 C 0.7497(3) 0.6761(4) 0.9485(2)
C29_2 C 0.7407(3) 0.5539(5) 0.9546(3)
H16_2 H 0.6985 0.5208 0.9312
C30 C 0.7915(3) 0.4875(5) 0.9930(3)
H17 H 0.7836 0.4094 0.9973
C36_2 C 0.8134(2) 0.7260(4) 0.9858(2)
O16_2 O 0.95550(16) 0.8788(3) 0.94608(15)
H19_3 H 0.0124 0.0291 0.6209
O7_2 O 0.00944(17) 0.9147(3) 0.87402(15)
H20_3 H 0.0236 0.8320 0.6136
O5_3 O 0.87904(15) 0.5726(3) 0.62946(14)
O6_3 O 0.98108(15) 0.6488(3) 0.67544(14)
O9_3 O 0.66492(15) 0.2090(3) 0.46178(15)
O10_3 O 0.59748(16) 0.1820(3) 0.35337(15)
O11_3 O 0.88647(15) 0.4183(2) 0.48870(14)
O12_3 O 0.59424(18) 0.2733(3) 0.64011(17)
O13_3 O 0.51519(15) 0.2282(3) 0.42361(14)
N1_3 N 0.82501(19) 0.6587(3) 0.48395(18)
N2_3 N 0.9300(2) 0.7978(3) 0.55690(19)
N3_3 N 0.72574(19) 0.1940(3) 0.61061(18)
N4_3 N 0.64208(18) 0.0352(3) 0.63818(18)
C9_3 C 0.9245(2) 0.6211(4) 0.6788(2)
C10_3 C 0.9102(2) 0.6465(4) 0.7436(2)
C11_3 C 0.8612(3) 0.5847(4) 0.7595(2)
H5_3 H 0.8363 0.5280 0.7297
C12_3 C 0.8488(3) 0.6070(4) 0.8196(2)
H6_3 H 0.8159 0.5653 0.8302
C13_3 C 0.8859(2) 0.6917(4) 0.8637(2)
H7_3 H 0.8785 0.7054 0.9046
C14_3 C 0.9334(2) 0.7558(3) 0.84775(19)
C15_3 C 0.9465(2) 0.7321(4) 0.78829(19)
H8_3 H 0.9798 0.7736 0.7782
C16_3 C 0.9688(2) 0.8556(4) 0.8932(2)
C17_3 C 0.6538(2) 0.2035(4) 0.3979(2)
C18_3 C 0.7143(2) 0.2238(4) 0.3753(2)
C19_3 C 0.7127(2) 0.1804(4) 0.3121(2)
H9_3 H 0.6737 0.1440 0.2832
C20_3 C 0.7682(2) 0.1912(4) 0.2924(2)
H10_3 H 0.7669 0.1605 0.2506
C21_3 C 0.8262(2) 0.2471(4) 0.3338(2)
H11_3 H 0.8638 0.2528 0.3201
C22_3 C 0.8285(2) 0.2949(3) 0.3957(2)
C23_3 C 0.7720(2) 0.2810(4) 0.4161(2)
H12_3 H 0.7734 0.3109 0.4580
C24_3 C 0.8898(2) 0.3626(3) 0.4376(2)
C25_3 C 0.7739(2) 0.5936(4) 0.4466(2)
H13_3 H 0.7809 0.5145 0.4458
C26_3 C 0.7097(3) 0.6373(5) 0.4082(3)
H14_3 H 0.6753 0.5879 0.3826
C27_3 C 0.6981(3) 0.7519(5) 0.4087(3)
H15_3 H 0.6560 0.7822 0.3826
C28_3 C 0.7497(3) 0.8239(4) 0.4485(2)
C29_3 C 0.7407(3) 0.9461(5) 0.4546(3)
H16_3 H 0.6985 0.9792 0.4312
C31_3 C 0.8578(3) 0.9668(4) 0.5278(3)
C33_3 C 0.9750(3) 0.9844(5) 0.5965(3)
C34_3 C 0.9813(3) 0.8655(4) 0.5916(3)
C35_3 C 0.8680(2) 0.8469(4) 0.5246(2)
C36_3 C 0.8134(2) 0.7740(4) 0.4858(2)
C42_3 C 0.8512(3) 0.0191(5) 0.7459(3)
H25_3 H 0.8978 0.0150 0.7694
C43_3 C 0.8247(3) 0.1080(4) 0.6961(2)
C44_3 C 0.8648(3) 0.1953(5) 0.6833(3)
H26_3 H 0.9114 0.1963 0.7073
C45_3 C 0.8362(3) 0.2785(5) 0.6363(3)
H27_3 H 0.8625 0.3371 0.6280
C46_3 C 0.7664(2) 0.2739(4) 0.6007(2)
H28_3 H 0.7472 0.3305 0.5681
C47_3 C 0.7541(2) 0.1123(4) 0.6591(2)
C48_3 C 0.7100(2) 0.0299(4) 0.6737(2)
O15_2 O 0.99056(17) 0.4147(3) 0.62598(15)
O19 O 0.60927(18) 0.3813(3) 0.53076(16)
H29_3 H 0.535217 0.214809 0.387481
H30_3 H 0.502164 0.310562 0.423284
H31_3 H 0.550615 0.253676 0.646186
H32_3 H 0.597399 0.358164 0.635679
O1_3 O 0.59646(15) 0.9931(2) 0.48950(15)
O3_2 O 0.53423(18) 0.4584(3) 0.43799(17)
C1_3 C 0.5656(2) 0.8972(4) 0.4822(2)
C2_3 C 0.6069(2) 0.7905(3) 0.5095(2)
C3_3 C 0.6727(2) 0.7980(4) 0.5565(2)
H1_3 H 0.6924 0.8700 0.5700
C4_3 C 0.7091(2) 0.6993(4) 0.5835(3)
H2_3 H 0.7531 0.7049 0.6150
C5_3 C 0.6801(3) 0.5925(4) 0.5635(2)
H3_3 H 0.7046 0.5263 0.5823
C6_3 C 0.6148(2) 0.5826(4) 0.5157(2)
C7_3 C 0.5785(2) 0.6822(4) 0.4892(2)
H4_3 H 0.5346 0.6765 0.4575
C8_2 C 0.5835(3) 0.4663(4) 0.4925(2)
C37_3 C 0.6029(3) 0.9602(4) 0.6532(2)
H21_3 H 0.5563 0.9656 0.6298
C38_3 C 0.6257(3) 0.8733(5) 0.7014(3)
H22_3 H 0.5953 0.8223 0.7097
C39_3 C 0.6935(3) 0.8642(5) 0.7363(3)
H23_3 H 0.7103 0.8051 0.7680
C40_3 C 0.7383(3) 0.9444(4) 0.7243(2)
C41_3 C 0.8102(3) 0.9417(5) 0.7592(3)
H24_3 H 0.8289 0.8849 0.7919
N1_4 N 0.17499(19) 0.1587(3) 0.01605(18)
C25_4 C 0.2261(2) 0.0936(4) 0.0534(2)
H13_4 H 0.2191 0.0145 0.0542
C26_4 C 0.2903(3) 0.1373(5) 0.0918(3)
H14_4 H 0.3247 0.0879 0.1174
C27_4 C 0.3019(3) 0.2519(5) 0.0913(3)
H15_4 H 0.3440 0.2822 0.1174
C28_4 C 0.2503(3) 0.3239(4) 0.0515(2)
C29_4 C 0.2593(3) 0.4461(5) 0.0454(3)
H16_4 H 0.3015 0.4792 0.0688
C30_2 C 0.2085(3) 0.5125(5) 0.0070(3)
H17_2 H 0.2164 0.5906 0.0027
C36_4 C 0.1866(2) 0.2740(4) 0.0142(2)
O5_4 O 0.12096(15) 0.0726(3) 0.87054(14)
O6_4 O 0.01892(15) 0.1488(3) 0.82456(14)
N2_4 N 0.0700(2) 0.2978(3) 0.94310(19)
C9_4 C 0.0755(2) 0.1211(4) 0.8212(2)
C10_4 C 0.0898(2) 0.1465(4) 0.7564(2)
C11_4 C 0.1388(3) 0.0847(4) 0.7405(2)
H5_4 H 0.1637 0.0280 0.7703
C12_4 C 0.1512(3) 0.1070(4) 0.6804(2)
H6_4 H 0.1841 0.0653 0.6698
C13_4 C 0.1141(2) 0.1917(4) 0.6363(2)
H7_4 H 0.1215 0.2054 0.5954
C14_4 C 0.0666(2) 0.2558(3) 0.65225(19)
C15_4 C 0.0535(2) 0.2321(4) 0.71171(19)
H8_4 H 0.0202 0.2736 0.7218
C16_4 C 0.0312(2) 0.3556(4) 0.6068(2)
C31_4 C 0.1422(3) 0.4668(4) 0.9722(3)
C32_2 C 0.0869(3) 0.5343(5) 0.9349(3)
H18_2 H 0.0921 0.6134 0.9315
C33_4 C 0.0250(3) 0.4844(5) 0.9035(3)
C34_4 C 0.0187(3) 0.3655(4) 0.9084(3)
C35_4 C 0.1320(2) 0.3469(4) 0.9754(2)
O1_4 O 0.40354(15) 0.4931(2) 0.01050(15)
O9_4 O 0.33508(15) 0.7090(3) 0.03822(15)
O10_4 O 0.40252(16) 0.6820(3) 0.14663(15)
O11_4 O 0.11353(15) 0.9183(2) 0.01130(14)
O13_4 O 0.48481(15) 0.7282(3) 0.07639(14)
C1_4 C 0.4344(2) 0.3972(4) 0.0178(2)
C7_4 C 0.4215(2) 0.1822(4) 0.0108(2)
H4_4 H 0.4654 0.1765 0.0425
C17_4 C 0.3462(2) 0.7035(4) 0.1021(2)
C18_4 C 0.2857(2) 0.7238(4) 0.1247(2)
C19_4 C 0.2873(2) 0.6804(4) 0.1879(2)
H9_4 H 0.3263 0.6440 0.2168
C20_4 C 0.2318(2) 0.6912(4) 0.2076(2)
H10_4 H 0.2331 0.6605 0.2494
C21_4 C 0.1738(2) 0.7471(4) 0.1662(2)
H11_4 H 0.1362 0.7528 0.1799
C22_4 C 0.1715(2) 0.7949(3) 0.1043(2)
C23_4 C 0.2280(2) 0.7810(4) 0.0839(2)
H12_4 H 0.2266 0.8109 0.0420
C24_4 C 0.1102(2) 0.8626(3) 0.0624(2)
H29_4 H 0.464783 0.714809 0.112519
H30_4 H 0.497836 0.810562 0.076716
O12_4 O 0.40576(18) 0.7733(3) 0.85989(17)
N3_4 N 0.27426(19) 0.6940(3) 0.88939(18)
N4_4 N 0.35792(18) 0.5352(3) 0.86182(18)
C2_4 C 0.3931(2) 0.2905(3) 0.9905(2)
C3_4 C 0.3273(2) 0.2980(4) 0.9435(2)
H1_4 H 0.3076 0.3700 0.9300
C4_4 C 0.2909(2) 0.1993(4) 0.9165(3)
H2_4 H 0.2469 0.2049 0.8850
C5_4 C 0.3199(3) 0.0925(4) 0.9365(2)
H3_4 H 0.2954 0.0263 0.9177
C6_4 C 0.3852(2) 0.0826(4) 0.9843(2)
C37_4 C 0.3971(3) 0.4602(4) 0.8468(2)
H21_4 H 0.4437 0.4656 0.8702
C38_4 C 0.3743(3) 0.3733(5) 0.7986(3)
H22_4 H 0.4047 0.3223 0.7903
C39_4 C 0.3065(3) 0.3642(5) 0.7637(3)
H23_4 H 0.2897 0.3051 0.7320
C40_4 C 0.2617(3) 0.4444(4) 0.7757(2)
C41_4 C 0.1898(3) 0.4417(5) 0.7408(3)
H24_4 H 0.1711 0.3849 0.7081
C42_4 C 0.1488(3) 0.5191(5) 0.7541(3)
H25_4 H 0.1022 0.5150 0.7306
C43_4 C 0.1753(3) 0.6080(4) 0.8039(2)
C44_4 C 0.1352(3) 0.6953(5) 0.8167(3)
H26_4 H 0.0886 0.6963 0.7927
C45_4 C 0.1638(3) 0.7785(5) 0.8637(3)
H27_4 H 0.1375 0.8371 0.8720
C46_4 C 0.2336(2) 0.7739(4) 0.8993(2)
H28_4 H 0.2528 0.8305 0.9319
C47_4 C 0.2459(2) 0.6123(4) 0.8409(2)
C48_4 C 0.2900(2) 0.5299(4) 0.8263(2)
O19_2 O 0.39073(18) 0.8813(3) 0.96924(16)
H31_4 H 0.449385 0.753676 0.853814
H32_4 H 0.402601 0.858164 0.864321
H19_4 H 0.9876 0.5291 0.8791
H20_4 H 0.9764 0.3320 0.8864
C30_3 C 0.2085(3) 0.9875(5) 0.5070(3)
H17_3 H 0.2164 0.9094 0.5027
C32_3 C 0.0869(3) 0.9657(5) 0.4349(3)
H18_3 H 0.0921 0.8866 0.4315
O3_3 O 0.53423(18) 0.0416(3) 0.93799(17)
C8_3 C 0.5835(3) 0.0337(4) 0.9925(2)
C30_4 C 0.7915(3) 0.0125(5) 0.4930(3)
H17_4 H 0.7836 0.0906 0.4973
C32_4 C 0.9131(3) 0.0343(5) 0.5651(3)
H18_4 H 0.9079 0.1134 0.5685
O3_4 O 0.46577(18) 0.9584(3) 0.06201(17)
C8_4 C 0.4165(3) 0.9663(4) 0.0075(2)
loop_
_geom_bond_atom_site_label_1
_geom_bond_atom_site_label_2
_geom_bond_site_symmetry_1
_geom_bond_site_symmetry_2
O1 C1 1_555 1_555
O2 C1 1_555 1_555
O3 C8 1_555 1_555
O4 C8 1_555 1_555
C1 C2 1_555 1_555
C2 C3 1_555 1_555
C3 H1 1_555 1_555
C4 C3 1_555 1_555
H2 C4 1_555 1_555
C5 C4 1_555 1_555
H3 C5 1_555 1_555
C6 C5 1_555 1_555
C7 C2 1_555 1_555
H4 C7 1_555 1_555
C8 C6 1_555 1_555
H21 C37 1_555 1_555
C38 C37 1_555 1_555
H22 C38 1_555 1_555
C39 C38 1_555 1_555
H23 C39 1_555 1_555
C40 C39 1_555 1_555
C41 C40 1_555 1_555
H24 C41 1_555 1_555
Eu3 O2 1_555 1_555
Eu4 O4 1_555 1_555
C6 C7 1_555 1_555
Eu1 O5 1_555 1_555
O5 C9 1_555 1_555
O6 Eu1 1_555 1_555
O8 C16 1_555 1_555
O9 Eu4 1_555 1_555
O10 C17 1_555 1_555
O11 Eu1 1_555 1_555
O12 Eu4 1_555 1_555
O13 Eu4 1_555 1_555
N1 Eu1 1_555 1_555
N2 Eu1 1_555 1_555
N3 Eu4 1_555 1_555
N4 Eu4 1_555 1_555
C9 O6 1_555 1_555
C10 C9 1_555 1_555
C11 C10 1_555 1_555
H5 C11 1_555 1_555
C12 C11 1_555 1_555
H6 C12 1_555 1_555
C13 C12 1_555 1_555
H7 C13 1_555 1_555
C14 C13 1_555 1_555
C15 C10 1_555 1_555
H8 C15 1_555 1_555
C16 C14 1_555 1_555
C17 O9 1_555 1_555
C18 C17 1_555 1_555
C19 C18 1_555 1_555
H9 C19 1_555 1_555
C20 C19 1_555 1_555
H10 C20 1_555 1_555
C21 C20 1_555 1_555
H11 C21 1_555 1_555
C22 C21 1_555 1_555
C23 C18 1_555 1_555
H12 C23 1_555 1_555
C24 O11 1_555 1_555
C25 N1 1_555 1_555
H13 C25 1_555 1_555
C26 C25 1_555 1_555
H14 C26 1_555 1_555
C27 C26 1_555 1_555
H15 C27 1_555 1_555
C28 C27 1_555 1_555
C29 C28 1_555 1_555
H16 C29 1_555 1_555
C34 N2 1_555 1_555
C35 N2 1_555 1_555
C36 N1 1_555 1_555
H25 C42 1_555 1_555
C43 C42 1_555 1_555
C44 C43 1_555 1_555
H26 C44 1_555 1_555
C45 C44 1_555 1_555
H27 C45 1_555 1_555
C46 N3 1_555 1_555
H28 C46 1_555 1_555
C47 N3 1_555 1_555
C48 N4 1_555 1_555
O14 C24 1_555 1_555
O15 Eu1 1_555 1_555
O16 Eu1 1_555 1_555
O18 Eu4 1_555 1_555
C14 C15 1_555 1_555
C22 C23 1_555 1_555
C22 C24 1_555 1_555
C28 C36 1_555 1_555
C31 C35 1_555 1_555
C33 C34 1_555 1_555
C35 C36 1_555 1_555
C43 C47 1_555 1_555
C45 C46 1_555 1_555
C47 C48 1_555 1_555
O13 H29 1_555 1_555
O13 H30 1_555 1_555
O12 H31 1_555 1_555
O12 H32 1_555 1_555
Eu4_2 O4_2 1_555 1_555
O12_2 Eu4_2 1_555 1_555
N3_2 Eu4_2 1_555 1_555
N4_2 Eu4_2 1_555 1_555
C2_2 C3_2 1_555 1_555
C3_2 H1_2 1_555 1_555
C4_2 C3_2 1_555 1_555
H2_2 C4_2 1_555 1_555
C5_2 C4_2 1_555 1_555
H3_2 C5_2 1_555 1_555
C6_2 C5_2 1_555 1_555
C37_2 N4_2 1_555 1_555
H21_2 C37_2 1_555 1_555
C38_2 C37_2 1_555 1_555
H22_2 C38_2 1_555 1_555
C39_2 C38_2 1_555 1_555
H23_2 C39_2 1_555 1_555
C40_2 C39_2 1_555 1_555
C41_2 C40_2 1_555 1_555
H24_2 C41_2 1_555 1_555
C42_2 C41_2 1_555 1_555
H25_2 C42_2 1_555 1_555
C43_2 C42_2 1_555 1_555
C44_2 C43_2 1_555 1_555
H26_2 C44_2 1_555 1_555
C45_2 C44_2 1_555 1_555
H27_2 C45_2 1_555 1_555
C46_2 N3_2 1_555 1_555
H28_2 C46_2 1_555 1_555
C47_2 N3_2 1_555 1_555
C48_2 N4_2 1_555 1_555
O18_2 Eu4_2 1_555 1_555
C40_2 C48_2 1_555 1_555
C43_2 C47_2 1_555 1_555
C45_2 C46_2 1_555 1_555
C47_2 C48_2 1_555 1_555
O12_2 H31_2 1_555 1_555
O12_2 H32_2 1_555 1_555
O1_2 C1_2 1_555 1_555
O2_2 C1_2 1_555 1_555
O10_2 C17_2 1_555 1_555
H4_2 C7_2 1_555 1_555
C17_2 O9_2 1_555 1_555
C18_2 C17_2 1_555 1_555
C19_2 C18_2 1_555 1_555
H9_2 C19_2 1_555 1_555
C20_2 C19_2 1_555 1_555
H10_2 C20_2 1_555 1_555
C21_2 C20_2 1_555 1_555
H11_2 C21_2 1_555 1_555
C22_2 C21_2 1_555 1_555
C23_2 C18_2 1_555 1_555
H12_2 C23_2 1_555 1_555
C24_2 O11_2 1_555 1_555
O14_2 C24_2 1_555 1_555
Eu3_2 O2_2 1_555 1_555
C22_2 C23_2 1_555 1_555
C22_2 C24_2 1_555 1_555
O13_2 H29_2 1_555 1_555
O13_2 H30_2 1_555 1_555
Eu5 O5_2 1_555 1_555
O5_2 C9_2 1_555 1_555
O6_2 Eu5 1_555 1_555
O8_2 C16_2 1_555 1_555
N2_2 Eu5 1_555 1_555
C9_2 O6_2 1_555 1_555
C10_2 C9_2 1_555 1_555
C11_2 C10_2 1_555 1_555
H5_2 C11_2 1_555 1_555
C12_2 C11_2 1_555 1_555
H6_2 C12_2 1_555 1_555
C13_2 C12_2 1_555 1_555
H7_2 C13_2 1_555 1_555
C14_2 C13_2 1_555 1_555
C15_2 C10_2 1_555 1_555
H8_2 C15_2 1_555 1_555
C16_2 C14_2 1_555 1_555
C32 C31_2 1_555 1_555
H18 C32 1_555 1_555
C33_2 C32 1_555 1_555
C34_2 N2_2 1_555 1_555
C35_2 N2_2 1_555 1_555
Eu7 O8_2 1_555 1_555
C14_2 C15_2 1_555 1_555
C31_2 C35_2 1_555 1_555
C33_2 C34_2 1_555 1_555
C25_2 N1_2 1_555 1_555
H13_2 C25_2 1_555 1_555
C26_2 C25_2 1_555 1_555
H14_2 C26_2 1_555 1_555
C27_2 C26_2 1_555 1_555
H15_2 C27_2 1_555 1_555
C28_2 C27_2 1_555 1_555
C29_2 C28_2 1_555 1_555
H16_2 C29_2 1_555 1_555
C30 C29_2 1_555 1_555
H17 C30 1_555 1_555
C36_2 N1_2 1_555 1_555
C28_2 C36_2 1_555 1_555
Eu7 O5_3 1_555 1_555
O5_3 C9_3 1_555 1_555
O6_3 Eu7 1_555 1_555
O16_2 C16_3 1_555 1_555
O9_3 Eu3 1_555 1_555
O10_3 C17_3 1_555 1_555
O11_3 Eu7 1_555 1_555
O12_3 Eu3 1_555 1_555
O13_3 Eu3 1_555 1_555
N1_3 Eu7 1_555 1_555
N2_3 Eu7 1_555 1_555
N3_3 Eu3 1_555 1_555
N4_3 Eu3 1_555 1_555
C9_3 O6_3 1_555 1_555
C10_3 C9_3 1_555 1_555
C11_3 C10_3 1_555 1_555
H5_3 C11_3 1_555 1_555
C12_3 C11_3 1_555 1_555
H6_3 C12_3 1_555 1_555
C13_3 C12_3 1_555 1_555
H7_3 C13_3 1_555 1_555
C14_3 C13_3 1_555 1_555
C15_3 C10_3 1_555 1_555
H8_3 C15_3 1_555 1_555
C16_3 C14_3 1_555 1_555
C17_3 O9_3 1_555 1_555
C18_3 C17_3 1_555 1_555
C19_3 C18_3 1_555 1_555
H9_3 C19_3 1_555 1_555
C20_3 C19_3 1_555 1_555
H10_3 C20_3 1_555 1_555
C21_3 C20_3 1_555 1_555
H11_3 C21_3 1_555 1_555
C22_3 C21_3 1_555 1_555
C23_3 C18_3 1_555 1_555
H12_3 C23_3 1_555 1_555
C24_3 O11_3 1_555 1_555
C25_3 N1_3 1_555 1_555
H13_3 C25_3 1_555 1_555
C26_3 C25_3 1_555 1_555
H14_3 C26_3 1_555 1_555
C27_3 C26_3 1_555 1_555
H15_3 C27_3 1_555 1_555
C28_3 C27_3 1_555 1_555
C29_3 C28_3 1_555 1_555
H16_3 C29_3 1_555 1_555
C34_3 N2_3 1_555 1_555
C35_3 N2_3 1_555 1_555
C36_3 N1_3 1_555 1_555
H25_3 C42_3 1_555 1_555
C43_3 C42_3 1_555 1_555
C44_3 C43_3 1_555 1_555
H26_3 C44_3 1_555 1_555
C45_3 C44_3 1_555 1_555
H27_3 C45_3 1_555 1_555
C46_3 N3_3 1_555 1_555
H28_3 C46_3 1_555 1_555
C47_3 N3_3 1_555 1_555
C48_3 N4_3 1_555 1_555
O17 C24_3 1_555 1_555
O15_2 Eu7 1_555 1_555
O19 Eu3 1_555 1_555
C14_3 C15_3 1_555 1_555
C22_3 C23_3 1_555 1_555
C22_3 C24_3 1_555 1_555
C28_3 C36_3 1_555 1_555
C31_3 C35_3 1_555 1_555
C33_3 C34_3 1_555 1_555
C35_3 C36_3 1_555 1_555
C43_3 C47_3 1_555 1_555
C45_3 C46_3 1_555 1_555
C47_3 C48_3 1_555 1_555
O13_3 H29_3 1_555 1_555
O13_3 H30_3 1_555 1_555
O12_3 H31_3 1_555 1_555
O12_3 H32_3 1_555 1_555
O1_3 C1_3 1_555 1_555
O18 C1_3 1_555 1_555
O3_2 C8_2 1_555 1_555
O19 C8_2 1_555 1_555
C1_3 C2_3 1_555 1_555
C2_3 C3_3 1_555 1_555
C3_3 H1_3 1_555 1_555
C4_3 C3_3 1_555 1_555
H2_3 C4_3 1_555 1_555
C5_3 C4_3 1_555 1_555
H3_3 C5_3 1_555 1_555
C6_3 C5_3 1_555 1_555
C7_3 C2_3 1_555 1_555
H4_3 C7_3 1_555 1_555
C8_2 C6_3 1_555 1_555
H21_3 C37_3 1_555 1_555
C38_3 C37_3 1_555 1_555
H22_3 C38_3 1_555 1_555
C39_3 C38_3 1_555 1_555
H23_3 C39_3 1_555 1_555
C40_3 C39_3 1_555 1_555
C41_3 C40_3 1_555 1_555
H24_3 C41_3 1_555 1_555
C6_3 C7_3 1_555 1_555
C25_4 N1_4 1_555 1_555
H13_4 C25_4 1_555 1_555
C26_4 C25_4 1_555 1_555
H14_4 C26_4 1_555 1_555
C27_4 C26_4 1_555 1_555
H15_4 C27_4 1_555 1_555
C28_4 C27_4 1_555 1_555
C29_4 C28_4 1_555 1_555
H16_4 C29_4 1_555 1_555
C30_2 C29_4 1_555 1_555
H17_2 C30_2 1_555 1_555
C36_4 N1_4 1_555 1_555
C28_4 C36_4 1_555 1_555
Eu6 O5_4 1_555 1_555
O5_4 C9_4 1_555 1_555
O6_4 Eu6 1_555 1_555
O16 C16_4 1_555 1_555
N2_4 Eu6 1_555 1_555
C9_4 O6_4 1_555 1_555
C10_4 C9_4 1_555 1_555
C11_4 C10_4 1_555 1_555
H5_4 C11_4 1_555 1_555
C12_4 C11_4 1_555 1_555
H6_4 C12_4 1_555 1_555
C13_4 C12_4 1_555 1_555
H7_4 C13_4 1_555 1_555
C14_4 C13_4 1_555 1_555
C15_4 C10_4 1_555 1_555
H8_4 C15_4 1_555 1_555
C16_4 C14_4 1_555 1_555
C32_2 C31_4 1_555 1_555
H18_2 C32_2 1_555 1_555
C33_4 C32_2 1_555 1_555
C34_4 N2_4 1_555 1_555
C35_4 N2_4 1_555 1_555
C14_4 C15_4 1_555 1_555
C31_4 C35_4 1_555 1_555
C33_4 C34_4 1_555 1_555
O1_4 C1_4 1_555 1_555
O18_2 C1_4 1_555 1_555
O10_4 C17_4 1_555 1_555
H4_4 C7_4 1_555 1_555
C17_4 O9_4 1_555 1_555
C18_4 C17_4 1_555 1_555
C19_4 C18_4 1_555 1_555
H9_4 C19_4 1_555 1_555
C20_4 C19_4 1_555 1_555
H10_4 C20_4 1_555 1_555
C21_4 C20_4 1_555 1_555
H11_4 C21_4 1_555 1_555
C22_4 C21_4 1_555 1_555
C23_4 C18_4 1_555 1_555
H12_4 C23_4 1_555 1_555
C24_4 O11_4 1_555 1_555
O17_2 C24_4 1_555 1_555
C22_4 C23_4 1_555 1_555
C22_4 C24_4 1_555 1_555
O13_4 H29_4 1_555 1_555
O13_4 H30_4 1_555 1_555
O12_4 Eu3_2 1_555 1_555
N3_4 Eu3_2 1_555 1_555
N4_4 Eu3_2 1_555 1_555
C2_4 C3_4 1_555 1_555
C3_4 H1_4 1_555 1_555
C4_4 C3_4 1_555 1_555
H2_4 C4_4 1_555 1_555
C5_4 C4_4 1_555 1_555
H3_4 C5_4 1_555 1_555
C6_4 C5_4 1_555 1_555
C37_4 N4_4 1_555 1_555
H21_4 C37_4 1_555 1_555
C38_4 C37_4 1_555 1_555
H22_4 C38_4 1_555 1_555
C39_4 C38_4 1_555 1_555
H23_4 C39_4 1_555 1_555
C40_4 C39_4 1_555 1_555
C41_4 C40_4 1_555 1_555
H24_4 C41_4 1_555 1_555
C42_4 C41_4 1_555 1_555
H25_4 C42_4 1_555 1_555
C43_4 C42_4 1_555 1_555
C44_4 C43_4 1_555 1_555
H26_4 C44_4 1_555 1_555
C45_4 C44_4 1_555 1_555
H27_4 C45_4 1_555 1_555
C46_4 N3_4 1_555 1_555
H28_4 C46_4 1_555 1_555
C47_4 N3_4 1_555 1_555
C48_4 N4_4 1_555 1_555
O19_2 Eu3_2 1_555 1_555
C40_4 C48_4 1_555 1_555
C43_4 C47_4 1_555 1_555
C45_4 C46_4 1_555 1_555
C47_4 C48_4 1_555 1_555
O12_4 H31_4 1_555 1_555
O12_4 H32_4 1_555 1_555
H17_3 C30_3 1_555 1_555
H18_3 C32_3 1_555 1_555
O3_3 C8_3 1_555 1_555
H17_4 C30_4 1_555 1_555
H18_4 C32_4 1_555 1_555
O3_4 C8_4 1_555 1_555

#END
