
###############################################################################
#
# This file contains modified crystal structure data generated from the
# MOF subset of the Cambridge Structural Database (CSD) v543 
# hosted by the Cambridge Crystallographic Data Centre (CCDC).
#
# This work is licensed under the Creative Commons
# Attribution-NonCommercial-ShareAlike 4.0 International License.
# To view a copy of this license, visit
# http://creativecommons.org/licenses/by-nc-sa/4.0/
# or send a letter to
# Creative Commons, PO Box 1866, Mountain View, CA 94042, USA.
#
# CIF created using the CSD Python API on 29 September 2022
# The structure has been converted into the P1 space group
# The structure has a 3D framework
# The original CSD entry IKETOI01 is in the triclinic crystal system
# The framework has been calculated to contain at least 10.0% void space
# The void calculation uses a probe of radius 1.32A, grid spacing 0.4
#
###############################################################################

data_IKETOI01
_chemical_formula_moiety         '(C14 H12 Gd2 N4 O16)n'
_symmetry_cell_setting           triclinic
_symmetry_space_group_name_H-M   'P 1'
_symmetry_Int_Tables_number      1
_space_group_name_Hall           'P 1'
loop_
_symmetry_equiv_pos_site_id
_symmetry_equiv_pos_as_xyz
1 x,y,z
_cell_length_a                   6.0922(5)
_cell_length_b                   9.9633(9)
_cell_length_c                   13.3598(12)
_cell_angle_alpha                68.8530(10)
_cell_angle_beta                 81.1040(10)
_cell_angle_gamma                76.8480(10)
_cell_volume                     734.118
loop_
_atom_site_label
_atom_site_type_symbol
_atom_site_fract_x
_atom_site_fract_y
_atom_site_fract_z
Gd3 Gd 0.33215(2) 0.114292(16) 0.695720(12)
C4 C 0.7888(5) 0.2659(4) 0.6409(3)
C5 C 0.6339(5) 0.3937(4) 0.5684(3)
C6 C 0.3080(6) 0.4705(4) 0.4848(3)
H2 H 0.1731 0.4533 0.4718
C7 C 0.4112(6) 0.0600(4) 0.4655(3)
N1 N 0.0933(5) 0.0464(3) 0.8935(2)
N2 N 0.4402(5) 0.3637(3) 0.5542(2)
O3 O 0.7143(4) 0.1493(3) 0.6837(2)
O4 O 0.9802(4) 0.2834(3) 0.6513(2)
O5 O 0.2770(4) 0.1388(3) 0.5128(2)
O6 O 0.4153(5) 0.0705(3) 0.3697(2)
O7 O 0.3283(5) 0.2891(3) 0.7834(2)
H3 H 0.2227 0.3629 0.7807
H4 H 0.3579 0.2631 0.8488
C11 C 0.2112(5) 0.7341(4) 0.3591(3)
C12 C 0.3661(5) 0.6063(4) 0.4316(3)
C13 C 0.6920(6) 0.5295(4) 0.5152(3)
H8 H 0.8269 0.5467 0.5282
N4 N 0.5598(5) 0.6363(3) 0.4458(2)
O11 O 0.2857(4) 0.8507(3) 0.3163(2)
O12 O 0.0198(4) 0.7166(3) 0.3487(2)
Gd6 Gd 0.66785(2) 0.885708(16) 0.304280(12)
O2 O 0.5691(5) 0.7905(4) 0.0101(2)
C10 C 0.1175(6) 0.8974(4) 0.0776(3)
H7 H 0.2043 0.8248 0.1298
C1 C 0.4505(6) 0.8826(4) 0.9394(3)
C2 C 0.2104(6) 0.9438(4) 0.9726(3)
O1 O 0.5142(4) 0.9315(3) 0.8420(2)
O8 O 0.0941(4) 0.9360(3) 0.7204(2)
H6 H 0.0876 0.8872 0.6797
C14 C 0.5888(6) 0.9400(4) 0.5345(3)
O13 O 0.7230(4) 0.8612(3) 0.4872(2)
O14 O 0.5847(5) 0.9295(3) 0.6303(2)
C8 C 0.5495(6) 0.1174(4) 0.0606(3)
C9 C 0.7896(6) 0.0562(4) 0.0274(3)
O9 O 0.4858(4) 0.0685(3) 0.1580(2)
O16 O 0.9059(4) 0.0640(3) 0.2796(2)
H12 H 0.9124 0.1128 0.3203
C3 C 0.8825(6) 0.1026(4) 0.9224(3)
H1 H 0.7957 0.1752 0.8702
O10 O 0.4309(5) 0.2095(4) 0.9899(2)
N3 N 0.9067(5) 0.9536(3) 0.1065(2)
O15 O 0.6717(5) 0.7109(3) 0.2166(2)
H9 H 0.7773 0.6371 0.2193
H10 H 0.6421 0.7369 0.1512
H11 H 0.0444 0.0199 0.2794
H5 H 0.9556 0.9801 0.7206
loop_
_geom_bond_atom_site_label_1
_geom_bond_atom_site_label_2
_geom_bond_site_symmetry_1
_geom_bond_site_symmetry_2
C4 C5 1_555 1_555
C5 N2 1_555 1_555
C6 H2 1_555 1_555
C7 O5 1_555 1_555
Gd3 N1 1_555 1_555
N2 C6 1_555 1_555
O3 C4 1_555 1_555
O4 C4 1_555 1_555
O5 Gd3 1_555 1_555
O6 C7 1_555 1_555
O7 Gd3 1_555 1_555
H3 O7 1_555 1_555
H4 O7 1_555 1_555
C11 C12 1_555 1_555
C12 C6 1_555 1_555
C13 C5 1_555 1_555
H8 C13 1_555 1_555
N4 C12 1_555 1_555
O11 C11 1_555 1_555
O12 C11 1_555 1_555
Gd6 N4 1_555 1_555
Gd3 N2 1_555 1_555
Gd3 O3 1_555 1_555
C13 N4 1_555 1_555
O11 Gd6 1_555 1_555
H7 C10 1_555 1_555
C1 C2 1_555 1_555
O1 C1 1_555 1_555
H6 O8 1_555 1_555
O13 C14 1_555 1_555
C14 O14 1_555 1_555
O13 Gd6 1_555 1_555
C8 C9 1_555 1_555
O9 C8 1_555 1_555
H12 O16 1_555 1_555
C3 H1 1_555 1_555
Gd6 N3 1_555 1_555
O15 Gd6 1_555 1_555
H9 O15 1_555 1_555
H10 O15 1_555 1_555

#END
