
###############################################################################
#
# This file contains modified crystal structure data generated from the
# MOF subset of the Cambridge Structural Database (CSD) v543 
# hosted by the Cambridge Crystallographic Data Centre (CCDC).
#
# This work is licensed under the Creative Commons
# Attribution-NonCommercial-ShareAlike 4.0 International License.
# To view a copy of this license, visit
# http://creativecommons.org/licenses/by-nc-sa/4.0/
# or send a letter to
# Creative Commons, PO Box 1866, Mountain View, CA 94042, USA.
#
# CIF created using the CSD Python API on 29 September 2022
# The structure has been converted into the P1 space group
# The structure has a 3D framework
# The original CSD entry IKETUO is in the triclinic crystal system
# The framework has been calculated to contain at least 10.0% void space
# The void calculation uses a probe of radius 1.32A, grid spacing 0.4
#
###############################################################################

data_IKETUO
_chemical_formula_moiety         '(C14 H12 N4 O15 Tb2)n'
_symmetry_cell_setting           triclinic
_symmetry_space_group_name_H-M   'P 1'
_symmetry_Int_Tables_number      1
_space_group_name_Hall           'P 1'
loop_
_symmetry_equiv_pos_site_id
_symmetry_equiv_pos_as_xyz
1 x,y,z
_cell_length_a                   6.078(3)
_cell_length_b                   9.950(5)
_cell_length_c                   13.337(7)
_cell_angle_alpha                68.823(6)
_cell_angle_beta                 81.142(7)
_cell_angle_gamma                76.813(7)
_cell_volume                     729.99
loop_
_atom_site_label
_atom_site_type_symbol
_atom_site_fract_x
_atom_site_fract_y
_atom_site_fract_z
_atom_site_U_iso_or_equiv
_atom_site_thermal_displace_type
O13 O 0.0156(15) 0.4321(10) 0.3410(6) 0.0362 Uani
O15 O 0.0702(17) 0.2882(11) 0.5105(7) 0.0475 Uani
C10 C 0.189(2) 0.0296(13) 0.0150(9) 0.0305 Uani
H7 H 0.3251 0.0463 0.0279 0.0360 Uiso
C14 C 0.089(2) 0.4405(13) 0.0333(10) 0.0310 Uani
O16 O 0.0828(16) 0.4302(10) 0.1301(7) 0.0358 Uani
Tb1 Tb 0.16637(10) 0.38607(6) 0.80454(4) 0.0238 Uani
C4 C 0.050(2) 0.6160(14) 0.5605(10) 0.0329 Uani
C5 C 0.287(2) 0.5574(13) 0.5265(10) 0.0265 Uani
C6 C 0.379(2) 0.6032(14) 0.4230(9) 0.0275 Uani
H2 H 0.2913 0.6749 0.3706 0.0330 Uiso
N1 N 0.0622(17) 0.1376(11) 0.9459(8) 0.0240 Uani
N2 N 0.4046(18) 0.4519(11) 0.6068(8) 0.0292 Uani
O7 O 0.1690(17) 0.2122(10) 0.7174(7) 0.0373 Uani
H3 H 0.1280 0.2221 0.6566 0.0560 Uiso
H4 H 0.2867 0.1453 0.7201 0.0560 Uiso
O8 O 0.4010(16) 0.5636(10) 0.7806(7) 0.0383 Uani
H5 H 0.5362 0.5144 0.7887 0.0580 Uiso
H6 H 0.4265 0.6364 0.7292 0.0580 Uiso
Tb6 Tb 0.83363(10) 0.61393(6) 0.19546(4) 0.0238 Uani
C11 C 0.950(2) 0.3840(14) 0.4395(10) 0.0329 Uani
C12 C 0.713(2) 0.4426(13) 0.4735(10) 0.0265 Uani
C13 C 0.621(2) 0.3968(14) 0.5770(9) 0.0275 Uani
H8 H 0.7087 0.3251 0.6294 0.0330 Uiso
N4 N 0.5954(18) 0.5481(11) 0.3932(8) 0.0292 Uani
O11 O 0.5203(14) 0.2179(9) 0.8473(7) 0.0293 Uani
O18 O 0.2237(14) 0.3620(9) 0.9873(7) 0.0293 Uani
C8 C 0.289(2) 0.7649(14) 0.1408(9) 0.0242 Uani
C9 C 0.1348(18) 0.8928(13) 0.0697(8) 0.0200 Uani
O9 O 0.2152(15) 0.6475(9) 0.1835(8) 0.0353 Uani
O10 O 0.4797(14) 0.7821(9) 0.1527(7) 0.0293 Uani
O6 O 0.7763(14) 0.6380(9) 0.0127(7) 0.0293 Uani
C1 C 0.711(2) 0.2351(14) 0.8592(9) 0.0242 Uani
C2 C 0.8652(18) 0.1072(13) 0.9303(8) 0.0200 Uani
C7 C 0.911(2) 0.5595(13) 0.9667(10) 0.0310 Uani
O1 O 0.7848(15) 0.3525(9) 0.8165(8) 0.0353 Uani
O3 O 0.9844(15) 0.5679(10) 0.6590(6) 0.0362 Uani
O4 O 0.9298(17) 0.7118(11) 0.4895(7) 0.0475 Uani
O5 O 0.9172(16) 0.5698(10) 0.8699(7) 0.0358 Uani
N3 N 0.9378(17) 0.8624(11) 0.0541(8) 0.0240 Uani
O20 O 0.8310(17) 0.7878(10) 0.2826(7) 0.0373 Uani
H9 H 0.8720 0.7779 0.3434 0.0560 Uiso
H10 H 0.7133 0.8547 0.2799 0.0560 Uiso
O21 O 0.5990(16) 0.4364(10) 0.2194(7) 0.0383 Uani
H11 H 0.4638 0.4856 0.2113 0.0580 Uiso
H12 H 0.5735 0.3636 0.2708 0.0580 Uiso
C3 C 0.811(2) 0.9704(13) 0.9850(9) 0.0305 Uani
H1 H 0.6749 0.9537 0.9721 0.0360 Uiso
loop_
_atom_site_aniso_label
_atom_site_aniso_U_11
_atom_site_aniso_U_22
_atom_site_aniso_U_33
_atom_site_aniso_U_23
_atom_site_aniso_U_13
_atom_site_aniso_U_12
O13 0.028 0.05 0.017 0.001 -0.002 -0.001
O15 0.04 0.057 0.031 -0.006 -0.014 0.012
C10 0.034 0.027 0.019 0.002 -0.003 0.001
C14 0.035 0.029 0.025 -0.001 -0.002 -0.012
O16 0.04 0.041 0.026 -0.013 -0.004 -0.003
Tb1 0.0194 0.0286 0.0225 -0.0053 -0.0053 -0.0057
C4 0.033 0.032 0.027 -0.001 -0.007 -0.005
C5 0.029 0.023 0.029 -0.008 -0.01 -0.004
C6 0.02 0.035 0.022 -0.008 -0.003 0.004
N1 0.02 0.029 0.025 -0.011 -0.005 -0.003
N2 0.028 0.034 0.029 -0.01 -0.003 -0.013
O7 0.043 0.039 0.035 -0.015 -0.011 -0.008
O8 0.035 0.038 0.039 -0.005 -0.005 -0.013
Tb6 0.0194 0.0286 0.0225 -0.0053 -0.0053 -0.0057
C11 0.033 0.032 0.027 -0.001 -0.007 -0.005
C12 0.029 0.023 0.029 -0.008 -0.01 -0.004
C13 0.02 0.035 0.022 -0.008 -0.003 0.004
N4 0.028 0.034 0.029 -0.01 -0.003 -0.013
O11 0.02 0.035 0.032 -0.006 -0.007 -0.009
O18 0.023 0.037 0.032 -0.015 -0.007 -0.005
C8 0.019 0.037 0.015 -0.004 -0.003 -0.009
C9 0.014 0.035 0.01 -0.004 -0.005 -0.006
O9 0.018 0.026 0.05 0.005 -0.017 -0.001
O10 0.02 0.035 0.032 -0.006 -0.007 -0.009
O6 0.023 0.037 0.032 -0.015 -0.007 -0.005
C1 0.019 0.037 0.015 -0.004 -0.003 -0.009
C2 0.014 0.035 0.01 -0.004 -0.005 -0.006
C7 0.035 0.029 0.025 -0.001 -0.002 -0.012
O1 0.018 0.026 0.05 0.005 -0.017 -0.001
O3 0.028 0.05 0.017 0.001 -0.002 -0.001
O4 0.04 0.057 0.031 -0.006 -0.014 0.012
O5 0.04 0.041 0.026 -0.013 -0.004 -0.003
N3 0.02 0.029 0.025 -0.011 -0.005 -0.003
O20 0.043 0.039 0.035 -0.015 -0.011 -0.008
O21 0.035 0.038 0.039 -0.005 -0.005 -0.013
C3 0.034 0.027 0.019 0.002 -0.003 0.001
loop_
_geom_bond_atom_site_label_1
_geom_bond_atom_site_label_2
_geom_bond_site_symmetry_1
_geom_bond_site_symmetry_2
H7 C10 1_555 1_555
C14 O16 1_555 1_555
Tb1 N1 1_555 1_555
C4 C5 1_555 1_555
C5 C6 1_555 1_555
C6 H2 1_555 1_555
N2 Tb1 1_555 1_555
O7 Tb1 1_555 1_555
H3 O7 1_555 1_555
H4 O7 1_555 1_555
O8 Tb1 1_555 1_555
H5 O8 1_555 1_555
H6 O8 1_555 1_555
Tb6 N4 1_555 1_555
C11 C12 1_555 1_555
C12 C13 1_555 1_555
C13 N2 1_555 1_555
H8 C13 1_555 1_555
N4 C6 1_555 1_555
O11 Tb1 1_555 1_555
O18 Tb1 1_555 1_555
C5 N2 1_555 1_555
C12 N4 1_555 1_555
Tb6 O10 1_555 1_555
C8 C9 1_555 1_555
O10 C8 1_555 1_555
C8 O9 1_555 1_555
Tb6 O6 1_555 1_555
C1 C2 1_555 1_555
C7 O5 1_555 1_555
O11 C1 1_555 1_555
C1 O1 1_555 1_555
Tb6 N3 1_555 1_555
O20 Tb6 1_555 1_555
H9 O20 1_555 1_555
H10 O20 1_555 1_555
O21 Tb6 1_555 1_555
H11 O21 1_555 1_555
H12 O21 1_555 1_555
C3 H1 1_555 1_555

#END
