
###############################################################################
#
# This file contains modified crystal structure data generated from the
# MOF subset of the Cambridge Structural Database (CSD) v543 
# hosted by the Cambridge Crystallographic Data Centre (CCDC).
#
# This work is licensed under the Creative Commons
# Attribution-NonCommercial-ShareAlike 4.0 International License.
# To view a copy of this license, visit
# http://creativecommons.org/licenses/by-nc-sa/4.0/
# or send a letter to
# Creative Commons, PO Box 1866, Mountain View, CA 94042, USA.
#
# CIF created using the CSD Python API on 29 September 2022
# The structure has been converted into the P1 space group
# The structure has a 3D framework
# The original CSD entry IKETOH is in the cubic crystal system
# The framework has been calculated to contain at least 10.0% void space
# The void calculation uses a probe of radius 1.32A, grid spacing 0.4
# The framework is charged, counterions have been retained in the structure
# H atom positions have been added when not included in the experimental data
# Generated hydrogen atom positions removed from atoms on special positions
#
###############################################################################

data_IKETOH
_chemical_formula_moiety         '(C416 H1152 Cu72 N32 O264 32+)n'
_symmetry_cell_setting           triclinic
_symmetry_space_group_name_H-M   'P 1'
_symmetry_Int_Tables_number      1
_space_group_name_Hall           'P 1'
loop_
_symmetry_equiv_pos_site_id
_symmetry_equiv_pos_as_xyz
1 x,y,z
_cell_length_a                   26.338(1)
_cell_length_b                   26.338(1)
_cell_length_c                   26.338(1)
_cell_angle_alpha                90
_cell_angle_beta                 90
_cell_angle_gamma                90
_cell_volume                     18270.4
loop_
_atom_site_label
_atom_site_type_symbol
_atom_site_fract_x
_atom_site_fract_y
_atom_site_fract_z
Cu1 Cu 0.28511(3) -0.0000 0.2149
O1 O 0.2434(1) 0.0524(1) 0.1830(1)
O2 O 0.3444(2) 0.0000 0.1556
C1 C 0.2031(2) 0.0689(3) 0.2031
C2 C 0.1773(2) 0.1124(3) 0.1773
C3 C 0.1995(3) 0.1334(2) 0.1334
O3 O 0.1830(1) 0.0524(1) 0.2434(1)
C4 C 0.1773 0.1773(2) 0.1124(3)
C5 C 0.2031 0.2031(2) 0.0689(3)
O4 O 0.1830(1) 0.2434(1) 0.0524(1)
O5 O 0.2434(1) 0.1830(1) 0.0524(1)
C6 C 0.1334 0.1995(3) 0.1334(2)
C7 C 0.1124(3) 0.1773 0.1773(2)
C8 C 0.0689(3) 0.2031 0.2031(2)
O6 O 0.0524(1) 0.1830(1) 0.2434(1)
O7 O 0.0524(1) 0.2434(1) 0.1830(1)
C9 C 0.1334(2) 0.1334 0.1995(3)
O16 O 0.3170(1) 0.0524(1) 0.2566(1)
O17 O 0.2566(1) 0.0524(1) 0.3170(1)
Cu2 Cu 0.2149 0.0000 0.28511(3)
Cu3 Cu 0.2149 0.28511(3) 0.0000
Cu4 Cu 0.28511(3) 0.2149 0.0000
Cu5 Cu 0.0000 0.2149 0.28511(3)
Cu6 Cu 0.0000 0.28511(3) 0.2149
O18 O 0.1556 0.0000 0.3444(2)
H3 H 0.232905 0.116171 0.116171
H6 H 0.116171 0.116171 0.232905
H7 H 0.116171 0.232905 0.116171
Cu3_2 Cu 0.2149 0.28511(3) 1.0000
Cu4_2 Cu 0.28511(3) 0.2149 1.0000
Cu1_2 Cu 0.28511(3) 1.0000 0.2149
O2_2 O 0.3444(2) 1.0000 0.1556
O8 O 0.2434(1) 0.9476(1) 0.1830(1)
C10 C 0.2031(2) 0.9311(3) 0.2031
C11 C 0.1773(2) 0.8876(3) 0.1773
C12 C 0.1995(3) 0.8666(2) 0.1334
O9 O 0.1830(1) 0.9476(1) 0.2434(1)
C13 C 0.1773 0.8227(2) 0.1124(3)
C14 C 0.2031 0.7969(2) 0.0689(3)
O10 O 0.1830(1) 0.7566(1) 0.0524(1)
O11 O 0.2434(1) 0.8170(1) 0.0524(1)
C15 C 0.1334 0.8005(3) 0.1334(2)
C16 C 0.1124(3) 0.8227 0.1773(2)
C17 C 0.0689(3) 0.7969 0.2031(2)
O12 O 0.0524(1) 0.8170(1) 0.2434(1)
O13 O 0.0524(1) 0.7566(1) 0.1830(1)
C18 C 0.1334(2) 0.8666 0.1995(3)
O14 O 0.3170(1) 0.9476(1) 0.2566(1)
O15 O 0.2566(1) 0.9476(1) 0.3170(1)
Cu2_2 Cu 0.2149 1.0000 0.28511(3)
Cu7 Cu 0.2149 0.71489(3) 0.0000
Cu8 Cu 0.28511(3) 0.7851 0.0000
Cu9 Cu -0.0000 0.7851 0.28511(3)
Cu10 Cu -0.0000 0.71489(3) 0.2149
O18_2 O 0.1556 1.0000 0.3444(2)
O19 O -0.0000 0.8444 0.3444(2)
O20 O 0.0524(1) 0.7434(1) 0.3170(1)
H4 H 0.116171 0.767095 0.116171
H5 H 0.116171 0.883829 0.232905
H8 H 0.232905 0.883829 0.116171
Cu7_2 Cu 0.2149 0.71489(3) 1.0000
Cu8_2 Cu 0.28511(3) 0.7851 1.0000
Cu5_2 Cu 1.0000 0.2149 0.28511(3)
Cu6_2 Cu 1.0000 0.28511(3) 0.2149
Cu9_2 Cu 1.0000 0.7851 0.28511(3)
Cu10_2 Cu 1.0000 0.71489(3) 0.2149
O19_2 O 1.0000 0.8444 0.3444(2)
O21 O 0.9476(1) 0.8170(1) 0.2434(1)
O22 O 0.9476(1) 0.7434(1) 0.3170(1)
O2_3 O 0.1556 0.3444(2) 0.0000
O16_2 O 0.2566(1) 0.3170(1) 0.0524(1)
O17_2 O 0.3170(1) 0.2566(1) 0.0524(1)
O18_3 O 0.3444(2) 0.1556 0.0000
O2_4 O 0.1556 0.3444(2) 1.0000
O8_2 O 0.1830(1) 0.2434(1) 0.9476(1)
C10_2 C 0.2031 0.2031(2) 0.9311(3)
C11_2 C 0.1773 0.1773(2) 0.8876(3)
C12_2 C 0.1334 0.1995(3) 0.8666(2)
O9_2 O 0.2434(1) 0.1830(1) 0.9476(1)
C13_2 C 0.1124(3) 0.1773 0.8227(2)
C14_2 C 0.0689(3) 0.2031 0.7969(2)
O10_2 O 0.0524(1) 0.1830(1) 0.7566(1)
O11_2 O 0.0524(1) 0.2434(1) 0.8170(1)
C15_2 C 0.1334(2) 0.1334 0.8005(3)
C16_2 C 0.1773(2) 0.1124(3) 0.8227
C17_2 C 0.2031(2) 0.0689(3) 0.7969
O12_2 O 0.2434(1) 0.0524(1) 0.8170(1)
O13_2 O 0.1830(1) 0.0524(1) 0.7566(1)
C18_2 C 0.1995(3) 0.1334(2) 0.8666
O14_2 O 0.2566(1) 0.3170(1) 0.9476(1)
O15_2 O 0.3170(1) 0.2566(1) 0.9476(1)
Cu7_3 Cu -0.0000 0.2149 0.71489(3)
Cu8_3 Cu 0.0000 0.28511(3) 0.7851
Cu9_3 Cu 0.28511(3) 0.0000 0.7851
Cu10_3 Cu 0.2149 -0.0000 0.71489(3)
O18_4 O 0.3444(2) 0.1556 1.0000
O19_3 O 0.3444(2) 0.0000 0.8444
O20_2 O 0.3170(1) 0.0524(1) 0.7434(1)
H4_2 H 0.116171 0.116171 0.767095
H5_2 H 0.232905 0.116171 0.883829
H8_2 H 0.116171 0.232905 0.883829
Cu9_4 Cu 0.28511(3) 1.0000 0.7851
Cu10_4 Cu 0.2149 1.0000 0.71489(3)
O19_4 O 0.3444(2) 1.0000 0.8444
O21_2 O 0.2434(1) 0.9476(1) 0.8170(1)
O22_2 O 0.3170(1) 0.9476(1) 0.7434(1)
Cu7_4 Cu 1.0000 0.2149 0.71489(3)
Cu8_4 Cu 1.0000 0.28511(3) 0.7851
O2_5 O -0.0000 0.1556 0.3444(2)
O16_3 O 0.0524(1) 0.2566(1) 0.3170(1)
O17_3 O 0.0524(1) 0.3170(1) 0.2566(1)
O18_5 O 0.0000 0.3444(2) 0.1556
O2_6 O 1.0000 0.1556 0.3444(2)
O8_3 O 0.9476(1) 0.1830(1) 0.2434(1)
C10_3 C 0.9311(3) 0.2031 0.2031(2)
C11_3 C 0.8876(3) 0.1773 0.1773(2)
C12_3 C 0.8666(2) 0.1334 0.1995(3)
O9_3 O 0.9476(1) 0.2434(1) 0.1830(1)
C13_3 C 0.8227(2) 0.1124(3) 0.1773
C14_3 C 0.7969(2) 0.0689(3) 0.2031
O10_3 O 0.7566(1) 0.0524(1) 0.1830(1)
O11_3 O 0.8170(1) 0.0524(1) 0.2434(1)
C15_3 C 0.8005(3) 0.1334(2) 0.1334
C16_3 C 0.8227 0.1773(2) 0.1124(3)
C17_3 C 0.7969 0.2031(2) 0.0689(3)
O12_3 O 0.8170(1) 0.2434(1) 0.0524(1)
O13_3 O 0.7566(1) 0.1830(1) 0.0524(1)
C18_3 C 0.8666 0.1995(3) 0.1334(2)
O14_3 O 0.9476(1) 0.2566(1) 0.3170(1)
O15_3 O 0.9476(1) 0.3170(1) 0.2566(1)
Cu7_5 Cu 0.71489(3) 0.0000 0.2149
Cu8_5 Cu 0.7851 0.0000 0.28511(3)
Cu9_5 Cu 0.7851 0.28511(3) -0.0000
Cu10_5 Cu 0.71489(3) 0.2149 0.0000
O18_6 O 1.0000 0.3444(2) 0.1556
O19_5 O 0.8444 0.3444(2) -0.0000
O20_3 O 0.7434(1) 0.3170(1) 0.0524(1)
H4_3 H 0.767095 0.116171 0.116171
H5_3 H 0.883829 0.232905 0.116171
H8_3 H 0.883829 0.116171 0.232905
Cu9_6 Cu 0.7851 0.28511(3) 1.0000
Cu10_6 Cu 0.71489(3) 0.2149 1.0000
O19_6 O 0.8444 0.3444(2) 1.0000
O21_3 O 0.8170(1) 0.2434(1) 0.9476(1)
O22_3 O 0.7434(1) 0.3170(1) 0.9476(1)
Cu7_6 Cu 0.71489(3) 1.0000 0.2149
Cu8_6 Cu 0.7851 1.0000 0.28511(3)
O19_7 O -0.0000 0.3444(2) 0.8444
O20_4 O 0.0524(1) 0.3170(1) 0.7434(1)
O19_8 O 1.0000 0.3444(2) 0.8444
O21_4 O 0.9476(1) 0.2434(1) 0.8170(1)
O22_4 O 0.9476(1) 0.3170(1) 0.7434(1)
O19_9 O 0.8444 -0.0000 0.3444(2)
O20_5 O 0.7434(1) 0.0524(1) 0.3170(1)
O19_10 O 0.8444 1.0000 0.3444(2)
O21_5 O 0.8170(1) 0.9476(1) 0.2434(1)
O22_5 O 0.7434(1) 0.9476(1) 0.3170(1)
O19_11 O 0.3444(2) 0.8444 -0.0000
O20_6 O 0.3170(1) 0.7434(1) 0.0524(1)
O19_12 O 0.3444(2) 0.8444 1.0000
O21_6 O 0.2434(1) 0.8170(1) 0.9476(1)
O22_6 O 0.3170(1) 0.7434(1) 0.9476(1)
O2_7 O 0.6556(2) 0.0000 0.1556
O16_4 O 0.6830(1) 0.0524(1) 0.2566(1)
O2_8 O 0.6556(2) 1.0000 0.1556
O8_4 O 0.7566(1) 0.9476(1) 0.1830(1)
C10_4 C 0.7969(2) 0.9311(3) 0.2031
C11_4 C 0.8227(2) 0.8876(3) 0.1773
C12_4 C 0.8005(3) 0.8666(2) 0.1334
C13_4 C 0.8227 0.8227(2) 0.1124(3)
C14_4 C 0.7969 0.7969(2) 0.0689(3)
O10_4 O 0.8170(1) 0.7566(1) 0.0524(1)
O11_4 O 0.7566(1) 0.8170(1) 0.0524(1)
C15_4 C 0.8666 0.8005(3) 0.1334(2)
C16_4 C 0.8876(3) 0.8227 0.1773(2)
C17_4 C 0.9311(3) 0.7969 0.2031(2)
O13_4 O 0.9476(1) 0.7566(1) 0.1830(1)
C18_4 C 0.8666(2) 0.8666 0.1995(3)
O14_4 O 0.6830(1) 0.9476(1) 0.2566(1)
Cu7_7 Cu 0.7851 0.71489(3) 0.0000
Cu8_7 Cu 0.71489(3) 0.7851 0.0000
H4_4 H 0.883829 0.767095 0.116171
H5_4 H 0.883829 0.883829 0.232905
H8_4 H 0.767095 0.883829 0.116171
Cu7_8 Cu 0.7851 0.71489(3) 1.0000
Cu8_8 Cu 0.71489(3) 0.7851 1.0000
O17_4 O 0.6830(1) 0.2566(1) 0.0524(1)
O18_7 O 0.6556(2) 0.1556 0.0000
C10_5 C 0.7969 0.2031(2) 0.9311(3)
C11_5 C 0.8227 0.1773(2) 0.8876(3)
C12_5 C 0.8666 0.1995(3) 0.8666(2)
O9_4 O 0.7566(1) 0.1830(1) 0.9476(1)
C13_5 C 0.8876(3) 0.1773 0.8227(2)
C14_5 C 0.9311(3) 0.2031 0.7969(2)
O10_5 O 0.9476(1) 0.1830(1) 0.7566(1)
C15_5 C 0.8666(2) 0.1334 0.8005(3)
C16_5 C 0.8227(2) 0.1124(3) 0.8227
C17_5 C 0.7969(2) 0.0689(3) 0.7969
O12_4 O 0.7566(1) 0.0524(1) 0.8170(1)
O13_5 O 0.8170(1) 0.0524(1) 0.7566(1)
C18_5 C 0.8005(3) 0.1334(2) 0.8666
O15_4 O 0.6830(1) 0.2566(1) 0.9476(1)
Cu9_7 Cu 0.71489(3) 0.0000 0.7851
Cu10_7 Cu 0.7851 -0.0000 0.71489(3)
O18_8 O 0.6556(2) 0.1556 1.0000
O19_13 O 0.6556(2) 0.0000 0.8444
O20_7 O 0.6830(1) 0.0524(1) 0.7434(1)
H4_5 H 0.883829 0.116171 0.767095
H5_5 H 0.767095 0.116171 0.883829
H8_5 H 0.883829 0.232905 0.883829
Cu9_8 Cu 0.71489(3) 1.0000 0.7851
Cu10_8 Cu 0.7851 1.0000 0.71489(3)
O19_14 O 0.6556(2) 1.0000 0.8444
O21_7 O 0.7566(1) 0.9476(1) 0.8170(1)
O22_7 O 0.6830(1) 0.9476(1) 0.7434(1)
O19_15 O 0.6556(2) 0.8444 -0.0000
O20_8 O 0.6830(1) 0.7434(1) 0.0524(1)
O19_16 O 0.6556(2) 0.8444 1.0000
O21_8 O 0.7566(1) 0.8170(1) 0.9476(1)
O22_8 O 0.6830(1) 0.7434(1) 0.9476(1)
O2_9 O 0.1556 0.6556(2) 0.0000
O16_5 O 0.2566(1) 0.6830(1) 0.0524(1)
O2_10 O 0.1556 0.6556(2) 1.0000
O8_5 O 0.1830(1) 0.7566(1) 0.9476(1)
C10_6 C 0.2031 0.7969(2) 0.9311(3)
C11_6 C 0.1773 0.8227(2) 0.8876(3)
C12_6 C 0.1334 0.8005(3) 0.8666(2)
C13_6 C 0.1124(3) 0.8227 0.8227(2)
C14_6 C 0.0689(3) 0.7969 0.7969(2)
O10_6 O 0.0524(1) 0.8170(1) 0.7566(1)
O11_5 O 0.0524(1) 0.7566(1) 0.8170(1)
C15_6 C 0.1334(2) 0.8666 0.8005(3)
C16_6 C 0.1773(2) 0.8876(3) 0.8227
C17_6 C 0.2031(2) 0.9311(3) 0.7969
O13_6 O 0.1830(1) 0.9476(1) 0.7566(1)
C18_6 C 0.1995(3) 0.8666(2) 0.8666
O14_5 O 0.2566(1) 0.6830(1) 0.9476(1)
Cu7_9 Cu -0.0000 0.7851 0.71489(3)
Cu8_9 Cu -0.0000 0.71489(3) 0.7851
H4_6 H 0.116171 0.883829 0.767095
H5_6 H 0.232905 0.883829 0.883829
H8_6 H 0.116171 0.767095 0.883829
Cu7_10 Cu 1.0000 0.7851 0.71489(3)
Cu8_10 Cu 1.0000 0.71489(3) 0.7851
O17_5 O 0.0524(1) 0.6830(1) 0.2566(1)
O18_9 O -0.0000 0.6556(2) 0.1556
O15_5 O 0.9476(1) 0.6830(1) 0.2566(1)
O18_10 O 1.0000 0.6556(2) 0.1556
O19_17 O 0.8444 0.6556(2) -0.0000
O20_9 O 0.7434(1) 0.6830(1) 0.0524(1)
O19_18 O 0.8444 0.6556(2) 1.0000
O21_9 O 0.8170(1) 0.7566(1) 0.9476(1)
O22_9 O 0.7434(1) 0.6830(1) 0.9476(1)
O19_19 O 0.0000 0.6556(2) 0.8444
O20_10 O 0.0524(1) 0.6830(1) 0.7434(1)
O19_20 O 1.0000 0.6556(2) 0.8444
O21_10 O 0.9476(1) 0.7566(1) 0.8170(1)
O22_10 O 0.9476(1) 0.6830(1) 0.7434(1)
O17_6 O 0.2566(1) 0.0524(1) 0.6830(1)
O18_11 O 0.1556 -0.0000 0.6556(2)
O15_6 O 0.2566(1) 0.9476(1) 0.6830(1)
O18_12 O 0.1556 1.0000 0.6556(2)
O19_21 O 0.0000 0.8444 0.6556(2)
O20_11 O 0.0524(1) 0.7434(1) 0.6830(1)
O19_22 O 1.0000 0.8444 0.6556(2)
O21_11 O 0.9476(1) 0.8170(1) 0.7566(1)
O22_11 O 0.9476(1) 0.7434(1) 0.6830(1)
O2_11 O -0.0000 0.1556 0.6556(2)
O16_6 O 0.0524(1) 0.2566(1) 0.6830(1)
O2_12 O 1.0000 0.1556 0.6556(2)
O14_6 O 0.9476(1) 0.2566(1) 0.6830(1)
O19_23 O 0.8444 -0.0000 0.6556(2)
O20_12 O 0.7434(1) 0.0524(1) 0.6830(1)
O19_24 O 0.8444 1.0000 0.6556(2)
O21_12 O 0.8170(1) 0.9476(1) 0.7566(1)
O22_12 O 0.7434(1) 0.9476(1) 0.6830(1)
Cu1_3 Cu 0.28511(3) 0.5000 0.7149
O1_2 O 0.2434(1) 0.5524(1) 0.6830(1)
O2_13 O 0.3444(2) 0.5000 0.6556
C1_2 C 0.2031(2) 0.5689(3) 0.7031
C2_2 C 0.1773(2) 0.6124(3) 0.6773
C3_2 C 0.1995(3) 0.6334(2) 0.6334
O3_2 O 0.1830(1) 0.5524(1) 0.7434(1)
C4_2 C 0.1773 0.6773(2) 0.6124(3)
C5_2 C 0.2031 0.7031(2) 0.5689(3)
O4_2 O 0.1830(1) 0.7434(1) 0.5524(1)
O5_2 O 0.2434(1) 0.6830(1) 0.5524(1)
C6_2 C 0.1334 0.6995(3) 0.6334(2)
C7_2 C 0.1124(3) 0.6773 0.6773(2)
C8_2 C 0.0689(3) 0.7031 0.7031(2)
C9_2 C 0.1334(2) 0.6334 0.6995(3)
O8_6 O 0.2434(1) 0.4476(1) 0.6830(1)
C10_7 C 0.2031(2) 0.4311(3) 0.7031
C11_7 C 0.1773(2) 0.3876(3) 0.6773
C12_7 C 0.1995(3) 0.3666(2) 0.6334
O9_5 O 0.1830(1) 0.4476(1) 0.7434(1)
C13_7 C 0.1773 0.3227(2) 0.6124(3)
C14_7 C 0.2031 0.2969(2) 0.5689(3)
O10_7 O 0.1830(1) 0.2566(1) 0.5524(1)
O11_6 O 0.2434(1) 0.3170(1) 0.5524(1)
C15_7 C 0.1334 0.3005(3) 0.6334(2)
C16_7 C 0.1124(3) 0.3227 0.6773(2)
C17_7 C 0.0689(3) 0.2969 0.7031(2)
C18_7 C 0.1334(2) 0.3666 0.6995(3)
O14_7 O 0.3170(1) 0.4476(1) 0.7566(1)
O15_7 O 0.2566(1) 0.4476(1) 0.8170(1)
O16_7 O 0.3170(1) 0.5524(1) 0.7566(1)
O17_7 O 0.2566(1) 0.5524(1) 0.8170(1)
Cu2_3 Cu 0.2149 0.5000 0.78511(3)
Cu3_3 Cu 0.2149 0.78511(3) 0.5000
Cu4_3 Cu 0.28511(3) 0.7149 0.5000
Cu7_11 Cu 0.2149 0.21489(3) 0.5000
Cu8_11 Cu 0.28511(3) 0.2851 0.5000
O18_13 O 0.1556 0.5000 0.8444(2)
H3_2 H 0.232905 0.616171 0.616171
H4_7 H 0.116171 0.267095 0.616171
H5_7 H 0.116171 0.383829 0.732905
H6_2 H 0.116171 0.616171 0.732905
H7_2 H 0.116171 0.732905 0.616171
H8_7 H 0.232905 0.383829 0.616171
O2_14 O 0.1556 0.8444(2) 0.5000
O8_7 O 0.1830(1) 0.7434(1) 0.4476(1)
C10_8 C 0.2031 0.7031(2) 0.4311(3)
C11_8 C 0.1773 0.6773(2) 0.3876(3)
C12_8 C 0.1334 0.6995(3) 0.3666(2)
O9_6 O 0.2434(1) 0.6830(1) 0.4476(1)
C13_8 C 0.1124(3) 0.6773 0.3227(2)
C14_8 C 0.0689(3) 0.7031 0.2969(2)
C15_8 C 0.1334(2) 0.6334 0.3005(3)
C16_8 C 0.1773(2) 0.6124(3) 0.3227
C17_8 C 0.2031(2) 0.5689(3) 0.2969
O12_5 O 0.2434(1) 0.5524(1) 0.3170(1)
O13_7 O 0.1830(1) 0.5524(1) 0.2566(1)
C18_8 C 0.1995(3) 0.6334(2) 0.3666
O14_8 O 0.2566(1) 0.8170(1) 0.4476(1)
O15_8 O 0.3170(1) 0.7566(1) 0.4476(1)
O16_8 O 0.2566(1) 0.8170(1) 0.5524(1)
O17_8 O 0.3170(1) 0.7566(1) 0.5524(1)
Cu9_9 Cu 0.28511(3) 0.5000 0.2851
Cu10_9 Cu 0.2149 0.5000 0.21489(3)
O18_14 O 0.3444(2) 0.6556 0.5000
O19_25 O 0.3444(2) 0.5000 0.3444
O20_13 O 0.3170(1) 0.5524(1) 0.2434(1)
O21_13 O 0.2434(1) 0.4476(1) 0.3170(1)
O22_13 O 0.3170(1) 0.4476(1) 0.2434(1)
H4_8 H 0.116171 0.616171 0.267095
H5_8 H 0.232905 0.616171 0.383829
H8_8 H 0.116171 0.732905 0.383829
C10_9 C 0.9311(3) 0.7031 0.7031(2)
C11_9 C 0.8876(3) 0.6773 0.6773(2)
C12_9 C 0.8666(2) 0.6334 0.6995(3)
C13_9 C 0.8227(2) 0.6124(3) 0.6773
C14_9 C 0.7969(2) 0.5689(3) 0.7031
O10_8 O 0.7566(1) 0.5524(1) 0.6830(1)
O11_7 O 0.8170(1) 0.5524(1) 0.7434(1)
C15_9 C 0.8005(3) 0.6334(2) 0.6334
C16_9 C 0.8227 0.6773(2) 0.6124(3)
C17_9 C 0.7969 0.7031(2) 0.5689(3)
O12_6 O 0.8170(1) 0.7434(1) 0.5524(1)
O13_8 O 0.7566(1) 0.6830(1) 0.5524(1)
C18_9 C 0.8666 0.6995(3) 0.6334(2)
Cu7_12 Cu 0.71489(3) 0.5000 0.7149
Cu8_12 Cu 0.7851 0.5000 0.78511(3)
Cu9_10 Cu 0.7851 0.78511(3) 0.5000
Cu10_10 Cu 0.71489(3) 0.7149 0.5000
O19_26 O 0.8444 0.8444(2) 0.5000
O20_14 O 0.7434(1) 0.8170(1) 0.5524(1)
O21_14 O 0.8170(1) 0.7434(1) 0.4476(1)
O22_14 O 0.7434(1) 0.8170(1) 0.4476(1)
H4_9 H 0.767095 0.616171 0.616171
H5_9 H 0.883829 0.732905 0.616171
H8_9 H 0.883829 0.616171 0.732905
O19_27 O 0.8444 0.5000 0.8444(2)
O20_15 O 0.7434(1) 0.5524(1) 0.8170(1)
O21_15 O 0.8170(1) 0.4476(1) 0.7434(1)
O22_15 O 0.7434(1) 0.4476(1) 0.8170(1)
O19_28 O 0.3444(2) 0.3444 0.5000
O20_16 O 0.3170(1) 0.2434(1) 0.5524(1)
O21_16 O 0.2434(1) 0.3170(1) 0.4476(1)
O22_16 O 0.3170(1) 0.2434(1) 0.4476(1)
O2_15 O 0.6556(2) 0.5000 0.6556
O8_8 O 0.7566(1) 0.4476(1) 0.6830(1)
C10_10 C 0.7969(2) 0.4311(3) 0.7031
C11_10 C 0.8227(2) 0.3876(3) 0.6773
C12_10 C 0.8005(3) 0.3666(2) 0.6334
C13_10 C 0.8227 0.3227(2) 0.6124(3)
C14_10 C 0.7969 0.2969(2) 0.5689(3)
O10_9 O 0.8170(1) 0.2566(1) 0.5524(1)
O11_8 O 0.7566(1) 0.3170(1) 0.5524(1)
C15_10 C 0.8666 0.3005(3) 0.6334(2)
C16_10 C 0.8876(3) 0.3227 0.6773(2)
C17_10 C 0.9311(3) 0.2969 0.7031(2)
C18_10 C 0.8666(2) 0.3666 0.6995(3)
O14_9 O 0.6830(1) 0.4476(1) 0.7566(1)
O16_9 O 0.6830(1) 0.5524(1) 0.7566(1)
Cu7_13 Cu 0.7851 0.21489(3) 0.5000
Cu8_13 Cu 0.71489(3) 0.2851 0.5000
H4_10 H 0.883829 0.267095 0.616171
H5_10 H 0.883829 0.383829 0.732905
H8_10 H 0.767095 0.383829 0.616171
C10_11 C 0.7969 0.7031(2) 0.4311(3)
C11_11 C 0.8227 0.6773(2) 0.3876(3)
C12_11 C 0.8666 0.6995(3) 0.3666(2)
O9_7 O 0.7566(1) 0.6830(1) 0.4476(1)
C13_11 C 0.8876(3) 0.6773 0.3227(2)
C14_11 C 0.9311(3) 0.7031 0.2969(2)
C15_11 C 0.8666(2) 0.6334 0.3005(3)
C16_11 C 0.8227(2) 0.6124(3) 0.3227
C17_11 C 0.7969(2) 0.5689(3) 0.2969
O12_7 O 0.7566(1) 0.5524(1) 0.3170(1)
O13_9 O 0.8170(1) 0.5524(1) 0.2566(1)
C18_11 C 0.8005(3) 0.6334(2) 0.3666
O15_9 O 0.6830(1) 0.7566(1) 0.4476(1)
O17_9 O 0.6830(1) 0.7566(1) 0.5524(1)
Cu9_11 Cu 0.71489(3) 0.5000 0.2851
Cu10_11 Cu 0.7851 0.5000 0.21489(3)
O18_15 O 0.6556(2) 0.6556 0.5000
O19_29 O 0.6556(2) 0.5000 0.3444
O20_17 O 0.6830(1) 0.5524(1) 0.2434(1)
O21_17 O 0.7566(1) 0.4476(1) 0.3170(1)
O22_17 O 0.6830(1) 0.4476(1) 0.2434(1)
H4_11 H 0.883829 0.616171 0.267095
H5_11 H 0.767095 0.616171 0.383829
H8_11 H 0.883829 0.732905 0.383829
O19_30 O 0.6556(2) 0.3444 0.5000
O20_18 O 0.6830(1) 0.2434(1) 0.5524(1)
O21_18 O 0.7566(1) 0.3170(1) 0.4476(1)
O22_18 O 0.6830(1) 0.2434(1) 0.4476(1)
O2_16 O 0.1556 0.1556(2) 0.5000
O8_9 O 0.1830(1) 0.2566(1) 0.4476(1)
C10_12 C 0.2031 0.2969(2) 0.4311(3)
C11_12 C 0.1773 0.3227(2) 0.3876(3)
C12_12 C 0.1334 0.3005(3) 0.3666(2)
C13_12 C 0.1124(3) 0.3227 0.3227(2)
C14_12 C 0.0689(3) 0.2969 0.2969(2)
C15_12 C 0.1334(2) 0.3666 0.3005(3)
C16_12 C 0.1773(2) 0.3876(3) 0.3227
C17_12 C 0.2031(2) 0.4311(3) 0.2969
O13_10 O 0.1830(1) 0.4476(1) 0.2566(1)
C18_12 C 0.1995(3) 0.3666(2) 0.3666
O14_10 O 0.2566(1) 0.1830(1) 0.4476(1)
O16_10 O 0.2566(1) 0.1830(1) 0.5524(1)
H4_12 H 0.116171 0.383829 0.267095
H5_12 H 0.232905 0.383829 0.383829
H8_12 H 0.116171 0.267095 0.383829
O19_31 O 0.8444 0.1556(2) 0.5000
O20_19 O 0.7434(1) 0.1830(1) 0.5524(1)
O21_19 O 0.8170(1) 0.2566(1) 0.4476(1)
O22_19 O 0.7434(1) 0.1830(1) 0.4476(1)
O15_10 O 0.2566(1) 0.4476(1) 0.1830(1)
O17_10 O 0.2566(1) 0.5524(1) 0.1830(1)
O18_16 O 0.1556 0.5000 0.1556(2)
O19_32 O 0.8444 0.5000 0.1556(2)
O20_20 O 0.7434(1) 0.5524(1) 0.1830(1)
O21_20 O 0.8170(1) 0.4476(1) 0.2566(1)
O22_20 O 0.7434(1) 0.4476(1) 0.1830(1)
C1_3 C 0.7031(2) 0.0689(3) 0.7031
C2_3 C 0.6773(2) 0.1124(3) 0.6773
C3_3 C 0.6995(3) 0.1334(2) 0.6334
C4_3 C 0.6773 0.1773(2) 0.6124(3)
C5_3 C 0.7031 0.2031(2) 0.5689(3)
C6_3 C 0.6334 0.1995(3) 0.6334(2)
C7_3 C 0.6124(3) 0.1773 0.6773(2)
C8_3 C 0.5689(3) 0.2031 0.7031(2)
O6_2 O 0.5524(1) 0.1830(1) 0.7434(1)
O7_2 O 0.5524(1) 0.2434(1) 0.6830(1)
C9_3 C 0.6334(2) 0.1334 0.6995(3)
Cu5_3 Cu 0.5000 0.2149 0.78511(3)
Cu6_3 Cu 0.5000 0.28511(3) 0.7149
H3_3 H 0.732905 0.116171 0.616171
H6_3 H 0.616171 0.116171 0.732905
H7_3 H 0.616171 0.232905 0.616171
C10_13 C 0.7031(2) 0.9311(3) 0.7031
C11_13 C 0.6773(2) 0.8876(3) 0.6773
C12_13 C 0.6995(3) 0.8666(2) 0.6334
C13_13 C 0.6773 0.8227(2) 0.6124(3)
C14_13 C 0.7031 0.7969(2) 0.5689(3)
C15_13 C 0.6334 0.8005(3) 0.6334(2)
C16_13 C 0.6124(3) 0.8227 0.6773(2)
C17_13 C 0.5689(3) 0.7969 0.7031(2)
O12_8 O 0.5524(1) 0.8170(1) 0.7434(1)
O13_11 O 0.5524(1) 0.7566(1) 0.6830(1)
C18_13 C 0.6334(2) 0.8666 0.6995(3)
Cu9_12 Cu 0.5000 0.7851 0.78511(3)
Cu10_12 Cu 0.5000 0.71489(3) 0.7149
O19_33 O 0.5000 0.8444 0.8444(2)
O20_21 O 0.5524(1) 0.7434(1) 0.8170(1)
O21_21 O 0.4476(1) 0.8170(1) 0.7434(1)
O22_21 O 0.4476(1) 0.7434(1) 0.8170(1)
H4_13 H 0.616171 0.767095 0.616171
H5_13 H 0.616171 0.883829 0.732905
H8_13 H 0.732905 0.883829 0.616171
C10_14 C 0.7031 0.2031(2) 0.4311(3)
C11_14 C 0.6773 0.1773(2) 0.3876(3)
C12_14 C 0.6334 0.1995(3) 0.3666(2)
C13_14 C 0.6124(3) 0.1773 0.3227(2)
C14_14 C 0.5689(3) 0.2031 0.2969(2)
O10_10 O 0.5524(1) 0.1830(1) 0.2566(1)
O11_9 O 0.5524(1) 0.2434(1) 0.3170(1)
C15_14 C 0.6334(2) 0.1334 0.3005(3)
C16_14 C 0.6773(2) 0.1124(3) 0.3227
C17_14 C 0.7031(2) 0.0689(3) 0.2969
C18_14 C 0.6995(3) 0.1334(2) 0.3666
Cu7_14 Cu 0.5000 0.2149 0.21489(3)
Cu8_14 Cu 0.5000 0.28511(3) 0.2851
H4_14 H 0.616171 0.116171 0.267095
H5_14 H 0.732905 0.116171 0.383829
H8_14 H 0.616171 0.232905 0.383829
O2_17 O 0.5000 0.1556 0.8444(2)
O8_10 O 0.4476(1) 0.1830(1) 0.7434(1)
C10_15 C 0.4311(3) 0.2031 0.7031(2)
C11_15 C 0.3876(3) 0.1773 0.6773(2)
C12_15 C 0.3666(2) 0.1334 0.6995(3)
O9_8 O 0.4476(1) 0.2434(1) 0.6830(1)
C13_15 C 0.3227(2) 0.1124(3) 0.6773
C14_15 C 0.2969(2) 0.0689(3) 0.7031
C15_15 C 0.3005(3) 0.1334(2) 0.6334
C16_15 C 0.3227 0.1773(2) 0.6124(3)
C17_15 C 0.2969 0.2031(2) 0.5689(3)
C18_15 C 0.3666 0.1995(3) 0.6334(2)
O14_11 O 0.4476(1) 0.2566(1) 0.8170(1)
O15_11 O 0.4476(1) 0.3170(1) 0.7566(1)
O16_11 O 0.5524(1) 0.2566(1) 0.8170(1)
O17_11 O 0.5524(1) 0.3170(1) 0.7566(1)
O18_17 O 0.5000 0.3444(2) 0.6556
H4_15 H 0.267095 0.116171 0.616171
H5_15 H 0.383829 0.232905 0.616171
H8_15 H 0.383829 0.116171 0.732905
O19_34 O 0.5000 0.3444(2) 0.3444
O20_22 O 0.5524(1) 0.3170(1) 0.2434(1)
O21_22 O 0.4476(1) 0.2434(1) 0.3170(1)
O22_22 O 0.4476(1) 0.3170(1) 0.2434(1)
C10_16 C 0.2969(2) 0.9311(3) 0.7031
C11_16 C 0.3227(2) 0.8876(3) 0.6773
C12_16 C 0.3005(3) 0.8666(2) 0.6334
C13_16 C 0.3227 0.8227(2) 0.6124(3)
C14_16 C 0.2969 0.7969(2) 0.5689(3)
C15_16 C 0.3666 0.8005(3) 0.6334(2)
C16_16 C 0.3876(3) 0.8227 0.6773(2)
C17_16 C 0.4311(3) 0.7969 0.7031(2)
O13_12 O 0.4476(1) 0.7566(1) 0.6830(1)
C18_16 C 0.3666(2) 0.8666 0.6995(3)
H4_16 H 0.383829 0.767095 0.616171
H5_16 H 0.383829 0.883829 0.732905
H8_16 H 0.267095 0.883829 0.616171
C10_17 C 0.2969 0.2031(2) 0.4311(3)
C11_17 C 0.3227 0.1773(2) 0.3876(3)
C12_17 C 0.3666 0.1995(3) 0.3666(2)
C13_17 C 0.3876(3) 0.1773 0.3227(2)
C14_17 C 0.4311(3) 0.2031 0.2969(2)
O10_11 O 0.4476(1) 0.1830(1) 0.2566(1)
C15_17 C 0.3666(2) 0.1334 0.3005(3)
C16_17 C 0.3227(2) 0.1124(3) 0.3227
C17_17 C 0.2969(2) 0.0689(3) 0.2969
C18_17 C 0.3005(3) 0.1334(2) 0.3666
H4_17 H 0.383829 0.116171 0.267095
H5_17 H 0.267095 0.116171 0.383829
H8_17 H 0.383829 0.232905 0.383829
C10_18 C 0.7031 0.7969(2) 0.4311(3)
C11_18 C 0.6773 0.8227(2) 0.3876(3)
C12_18 C 0.6334 0.8005(3) 0.3666(2)
C13_18 C 0.6124(3) 0.8227 0.3227(2)
C14_18 C 0.5689(3) 0.7969 0.2969(2)
O10_12 O 0.5524(1) 0.8170(1) 0.2566(1)
O11_10 O 0.5524(1) 0.7566(1) 0.3170(1)
C15_18 C 0.6334(2) 0.8666 0.3005(3)
C16_18 C 0.6773(2) 0.8876(3) 0.3227
C17_18 C 0.7031(2) 0.9311(3) 0.2969
C18_18 C 0.6995(3) 0.8666(2) 0.3666
Cu7_15 Cu 0.5000 0.7851 0.21489(3)
Cu8_15 Cu 0.5000 0.71489(3) 0.2851
H4_18 H 0.616171 0.883829 0.267095
H5_18 H 0.732905 0.883829 0.383829
H8_18 H 0.616171 0.767095 0.383829
O15_12 O 0.4476(1) 0.6830(1) 0.7566(1)
O17_12 O 0.5524(1) 0.6830(1) 0.7566(1)
O18_18 O 0.5000 0.6556(2) 0.6556
O19_35 O 0.5000 0.6556(2) 0.3444
O20_23 O 0.5524(1) 0.6830(1) 0.2434(1)
O21_23 O 0.4476(1) 0.7566(1) 0.3170(1)
O22_23 O 0.4476(1) 0.6830(1) 0.2434(1)
O19_36 O 0.5000 0.8444 0.1556(2)
O20_24 O 0.5524(1) 0.7434(1) 0.1830(1)
O21_24 O 0.4476(1) 0.8170(1) 0.2566(1)
O22_24 O 0.4476(1) 0.7434(1) 0.1830(1)
O2_18 O 0.5000 0.1556 0.1556(2)
O14_12 O 0.4476(1) 0.2566(1) 0.1830(1)
O16_12 O 0.5524(1) 0.2566(1) 0.1830(1)
C1_4 C 0.7031(2) 0.5689(3) 0.2031
C2_4 C 0.6773(2) 0.6124(3) 0.1773
C3_4 C 0.6995(3) 0.6334(2) 0.1334
C4_4 C 0.6773 0.6773(2) 0.1124(3)
C5_4 C 0.7031 0.7031(2) 0.0689(3)
C6_4 C 0.6334 0.6995(3) 0.1334(2)
C7_4 C 0.6124(3) 0.6773 0.1773(2)
C8_4 C 0.5689(3) 0.7031 0.2031(2)
C9_4 C 0.6334(2) 0.6334 0.1995(3)
C10_19 C 0.7031(2) 0.4311(3) 0.2031
C11_19 C 0.6773(2) 0.3876(3) 0.1773
C12_19 C 0.6995(3) 0.3666(2) 0.1334
C13_19 C 0.6773 0.3227(2) 0.1124(3)
C14_19 C 0.7031 0.2969(2) 0.0689(3)
C15_19 C 0.6334 0.3005(3) 0.1334(2)
C16_19 C 0.6124(3) 0.3227 0.1773(2)
C17_19 C 0.5689(3) 0.2969 0.2031(2)
C18_19 C 0.6334(2) 0.3666 0.1995(3)
H3_4 H 0.732905 0.616171 0.116171
H4_19 H 0.616171 0.267095 0.116171
H5_19 H 0.616171 0.383829 0.232905
H6_4 H 0.616171 0.616171 0.232905
H7_4 H 0.616171 0.732905 0.116171
H8_19 H 0.732905 0.383829 0.116171
C10_20 C 0.7031 0.7031(2) 0.9311(3)
C11_20 C 0.6773 0.6773(2) 0.8876(3)
C12_20 C 0.6334 0.6995(3) 0.8666(2)
C13_20 C 0.6124(3) 0.6773 0.8227(2)
C14_20 C 0.5689(3) 0.7031 0.7969(2)
C15_20 C 0.6334(2) 0.6334 0.8005(3)
C16_20 C 0.6773(2) 0.6124(3) 0.8227
C17_20 C 0.7031(2) 0.5689(3) 0.7969
C18_20 C 0.6995(3) 0.6334(2) 0.8666
H4_20 H 0.616171 0.616171 0.767095
H5_20 H 0.732905 0.616171 0.883829
H8_20 H 0.616171 0.732905 0.883829
C10_21 C 0.4311(3) 0.7031 0.2031(2)
C11_21 C 0.3876(3) 0.6773 0.1773(2)
C12_21 C 0.3666(2) 0.6334 0.1995(3)
C13_21 C 0.3227(2) 0.6124(3) 0.1773
C14_21 C 0.2969(2) 0.5689(3) 0.2031
C15_21 C 0.3005(3) 0.6334(2) 0.1334
C16_21 C 0.3227 0.6773(2) 0.1124(3)
C17_21 C 0.2969 0.7031(2) 0.0689(3)
C18_21 C 0.3666 0.6995(3) 0.1334(2)
H4_21 H 0.267095 0.616171 0.116171
H5_21 H 0.383829 0.732905 0.116171
H8_21 H 0.383829 0.616171 0.232905
C10_22 C 0.2969(2) 0.4311(3) 0.2031
C11_22 C 0.3227(2) 0.3876(3) 0.1773
C12_22 C 0.3005(3) 0.3666(2) 0.1334
C13_22 C 0.3227 0.3227(2) 0.1124(3)
C14_22 C 0.2969 0.2969(2) 0.0689(3)
C15_22 C 0.3666 0.3005(3) 0.1334(2)
C16_22 C 0.3876(3) 0.3227 0.1773(2)
C17_22 C 0.4311(3) 0.2969 0.2031(2)
C18_22 C 0.3666(2) 0.3666 0.1995(3)
H4_22 H 0.383829 0.267095 0.116171
H5_22 H 0.383829 0.383829 0.232905
H8_22 H 0.267095 0.383829 0.116171
C10_23 C 0.2969 0.7031(2) 0.9311(3)
C11_23 C 0.3227 0.6773(2) 0.8876(3)
C12_23 C 0.3666 0.6995(3) 0.8666(2)
C13_23 C 0.3876(3) 0.6773 0.8227(2)
C14_23 C 0.4311(3) 0.7031 0.7969(2)
C15_23 C 0.3666(2) 0.6334 0.8005(3)
C16_23 C 0.3227(2) 0.6124(3) 0.8227
C17_23 C 0.2969(2) 0.5689(3) 0.7969
C18_23 C 0.3005(3) 0.6334(2) 0.8666
H4_23 H 0.383829 0.616171 0.767095
H5_23 H 0.267095 0.616171 0.883829
H8_23 H 0.383829 0.732905 0.883829
C10_24 C 0.7031 0.2969(2) 0.9311(3)
C11_24 C 0.6773 0.3227(2) 0.8876(3)
C12_24 C 0.6334 0.3005(3) 0.8666(2)
C13_24 C 0.6124(3) 0.3227 0.8227(2)
C14_24 C 0.5689(3) 0.2969 0.7969(2)
C15_24 C 0.6334(2) 0.3666 0.8005(3)
C16_24 C 0.6773(2) 0.3876(3) 0.8227
C17_24 C 0.7031(2) 0.4311(3) 0.7969
C18_24 C 0.6995(3) 0.3666(2) 0.8666
H4_24 H 0.616171 0.383829 0.767095
H5_24 H 0.732905 0.383829 0.883829
H8_24 H 0.616171 0.267095 0.883829
C1_5 C 0.7969(2) 0.9311(3) 0.7969
C2_5 C 0.8227(2) 0.8876(3) 0.8227
C3_5 C 0.8005(3) 0.8666(2) 0.8666
C4_5 C 0.8227 0.8227(2) 0.8876(3)
C5_5 C 0.7969 0.7969(2) 0.9311(3)
C6_5 C 0.8666 0.8005(3) 0.8666(2)
C7_5 C 0.8876(3) 0.8227 0.8227(2)
C8_5 C 0.9311(3) 0.7969 0.7969(2)
C9_5 C 0.8666(2) 0.8666 0.8005(3)
H3_5 H 0.767095 0.883829 0.883829
H6_5 H 0.883829 0.883829 0.767095
H7_5 H 0.883829 0.767095 0.883829
C1_6 C 0.7969(2) 0.4311(3) 0.2969
C2_6 C 0.8227(2) 0.3876(3) 0.3227
C3_6 C 0.8005(3) 0.3666(2) 0.3666
C4_6 C 0.8227 0.3227(2) 0.3876(3)
C5_6 C 0.7969 0.2969(2) 0.4311(3)
C6_6 C 0.8666 0.3005(3) 0.3666(2)
C7_6 C 0.8876(3) 0.3227 0.3227(2)
C8_6 C 0.9311(3) 0.2969 0.2969(2)
C9_6 C 0.8666(2) 0.3666 0.3005(3)
H3_6 H 0.767095 0.383829 0.383829
H6_6 H 0.883829 0.383829 0.267095
H7_6 H 0.883829 0.267095 0.383829
C1_7 C 0.2969(2) 0.9311(3) 0.2969
C2_7 C 0.3227(2) 0.8876(3) 0.3227
C3_7 C 0.3005(3) 0.8666(2) 0.3666
C4_7 C 0.3227 0.8227(2) 0.3876(3)
C5_7 C 0.2969 0.7969(2) 0.4311(3)
C6_7 C 0.3666 0.8005(3) 0.3666(2)
C7_7 C 0.3876(3) 0.8227 0.3227(2)
C8_7 C 0.4311(3) 0.7969 0.2969(2)
C9_7 C 0.3666(2) 0.8666 0.3005(3)
H3_7 H 0.267095 0.883829 0.383829
H6_7 H 0.383829 0.883829 0.267095
H7_7 H 0.383829 0.767095 0.383829
C1_8 C 0.2969(2) 0.4311(3) 0.7969
C2_8 C 0.3227(2) 0.3876(3) 0.8227
C3_8 C 0.3005(3) 0.3666(2) 0.8666
C4_8 C 0.3227 0.3227(2) 0.8876(3)
C5_8 C 0.2969 0.2969(2) 0.9311(3)
C6_8 C 0.3666 0.3005(3) 0.8666(2)
C7_8 C 0.3876(3) 0.3227 0.8227(2)
C8_8 C 0.4311(3) 0.2969 0.7969(2)
C9_8 C 0.3666(2) 0.3666 0.8005(3)
H3_8 H 0.267095 0.383829 0.883829
H6_8 H 0.383829 0.383829 0.767095
H7_8 H 0.383829 0.267095 0.883829
N1 N 0.340(2) 0.1597 0.1597
C19 C 0.309(2) 0.1909 0.1909
C20 C 0.325(3) 0.121(2) 0.1208
C21 C 0.379(2) 0.1208 0.175(3)
C22 C 0.3792 0.175(3) 0.121(2)
H9 H 0.408859 0.197138 0.139434
H10 H 0.395797 0.14113 0.10406
H11 H 0.361295 0.197797 0.0915164
H12 H 0.285039 0.16708 0.214734
H13 H 0.332974 0.214631 0.214809
H14 H 0.285218 0.214912 0.167079
H17 H 0.360903 0.0912991 0.197622
H18 H 0.395658 0.103924 0.141129
H19 H 0.408645 0.139043 0.197315
H20 H 0.302654 0.139202 0.0911538
H21 H 0.358968 0.104298 0.104163
H22 H 0.302475 0.0913704 0.138808
H9_2 H 0.360566 0.197138 0.091141
H11_2 H 0.408484 0.197797 0.138705
H9_3 H 0.302862 0.091141 0.139434
N1_2 N 0.1597 0.340(2) 0.1597
C19_2 C 0.1909 0.309(2) 0.1909
C20_2 C 0.1208 0.325(3) 0.121(2)
C21_2 C 0.175(3) 0.379(2) 0.1208
C22_2 C 0.121(2) 0.3792 0.175(3)
H9_4 H 0.139434 0.408859 0.197138
H10_2 H 0.10406 0.395797 0.14113
H11_3 H 0.0915164 0.361295 0.197797
H12_2 H 0.214734 0.285039 0.16708
H13_2 H 0.214809 0.332974 0.214631
H14_2 H 0.167079 0.285218 0.214912
H17_2 H 0.197622 0.360903 0.0912991
H18_2 H 0.141129 0.395658 0.103924
H19_2 H 0.197315 0.408645 0.139043
H20_2 H 0.0911538 0.302654 0.139202
H21_2 H 0.104163 0.358968 0.104298
H22_2 H 0.138808 0.302475 0.0913704
H9_5 H 0.139434 0.302862 0.091141
H22_3 H 0.138808 0.40863 0.197525
H9_6 H 0.091141 0.360566 0.197138
N1_3 N 0.1597 0.1597 0.340(2)
C19_3 C 0.1909 0.1909 0.309(2)
C20_3 C 0.121(2) 0.1208 0.325(3)
C21_3 C 0.1208 0.175(3) 0.379(2)
C22_3 C 0.175(3) 0.121(2) 0.3792
H9_7 H 0.197138 0.139434 0.408859
H10_3 H 0.14113 0.10406 0.395797
H11_4 H 0.197797 0.0915164 0.361295
H12_3 H 0.16708 0.214734 0.285039
H13_3 H 0.214631 0.214809 0.332974
H14_3 H 0.214912 0.167079 0.285218
H17_3 H 0.0912991 0.197622 0.360903
H18_3 H 0.103924 0.141129 0.395658
H19_3 H 0.139043 0.197315 0.408645
H20_3 H 0.139202 0.0911538 0.302654
H21_3 H 0.104298 0.104163 0.358968
H22_4 H 0.0913704 0.138808 0.302475
H9_8 H 0.197138 0.091141 0.360566
H11_5 H 0.197797 0.138705 0.408484
H9_9 H 0.091141 0.139434 0.302862
N1_4 N 0.660(2) 0.1597 0.1597
C19_4 C 0.691(2) 0.1909 0.1909
C20_4 C 0.675(3) 0.121(2) 0.1208
C21_4 C 0.621(2) 0.1208 0.175(3)
C22_4 C 0.6208 0.175(3) 0.121(2)
H9_10 H 0.591141 0.197138 0.139434
H10_4 H 0.604203 0.14113 0.10406
H11_6 H 0.638705 0.197797 0.0915164
H12_4 H 0.714961 0.16708 0.214734
H13_4 H 0.667026 0.214631 0.214809
H14_4 H 0.714782 0.214912 0.167079
H17_4 H 0.639097 0.0912991 0.197622
H18_4 H 0.604342 0.103924 0.141129
H19_4 H 0.591355 0.139043 0.197315
H20_4 H 0.697346 0.139202 0.0911538
H21_4 H 0.641032 0.104298 0.104163
H22_5 H 0.697525 0.0913704 0.138808
H9_11 H 0.639434 0.197138 0.091141
H11_7 H 0.591516 0.197797 0.138705
H9_12 H 0.697138 0.091141 0.139434
N1_5 N 0.8403 0.340(2) 0.1597
C19_5 C 0.8091 0.309(2) 0.1909
C20_5 C 0.8792 0.325(3) 0.121(2)
C21_5 C 0.825(3) 0.379(2) 0.1208
C22_5 C 0.879(2) 0.3792 0.175(3)
H9_13 H 0.860566 0.408859 0.197138
H10_5 H 0.89594 0.395797 0.14113
H11_8 H 0.908484 0.361295 0.197797
H12_5 H 0.785266 0.285039 0.16708
H13_5 H 0.785191 0.332974 0.214631
H14_5 H 0.832921 0.285218 0.214912
H17_5 H 0.802378 0.360903 0.0912991
H18_5 H 0.858871 0.395658 0.103924
H19_5 H 0.802685 0.408645 0.139043
H20_5 H 0.908846 0.302654 0.139202
H21_5 H 0.895837 0.358968 0.104298
H22_6 H 0.861192 0.302475 0.0913704
H9_14 H 0.908859 0.360566 0.197138
H11_9 H 0.861295 0.408484 0.197797
H9_15 H 0.860566 0.302862 0.091141
N1_6 N 0.8403 0.1597 0.340(2)
C19_6 C 0.8091 0.1909 0.309(2)
C20_6 C 0.879(2) 0.1208 0.325(3)
C21_6 C 0.8792 0.175(3) 0.379(2)
C22_6 C 0.825(3) 0.121(2) 0.3792
H9_16 H 0.802862 0.139434 0.408859
H10_6 H 0.85887 0.10406 0.395797
H11_10 H 0.802203 0.0915164 0.361295
H12_6 H 0.83292 0.214734 0.285039
H13_6 H 0.785369 0.214809 0.332974
H14_6 H 0.785088 0.167079 0.285218
H17_6 H 0.908701 0.197622 0.360903
H18_6 H 0.896076 0.141129 0.395658
H19_6 H 0.860957 0.197315 0.408645
H20_6 H 0.860798 0.0911538 0.302654
H21_6 H 0.895702 0.104163 0.358968
H22_7 H 0.90863 0.138808 0.302475
H9_17 H 0.908859 0.139434 0.302862
H22_8 H 0.802475 0.138808 0.40863
H9_18 H 0.802862 0.091141 0.360566
N1_7 N 0.340(2) 0.8403 0.1597
C19_7 C 0.309(2) 0.8091 0.1909
C20_7 C 0.325(3) 0.879(2) 0.1208
C21_7 C 0.379(2) 0.8792 0.175(3)
C22_7 C 0.3792 0.825(3) 0.121(2)
H9_19 H 0.408859 0.802862 0.139434
H10_7 H 0.395797 0.85887 0.10406
H11_11 H 0.361295 0.802203 0.0915164
H12_7 H 0.285039 0.83292 0.214734
H13_7 H 0.332974 0.785369 0.214809
H14_7 H 0.285218 0.785088 0.167079
H17_7 H 0.360903 0.908701 0.197622
H18_7 H 0.395658 0.896076 0.141129
H19_7 H 0.408645 0.860957 0.197315
H20_7 H 0.302654 0.860798 0.0911538
H21_7 H 0.358968 0.895702 0.104163
H22_9 H 0.302475 0.90863 0.138808
H9_20 H 0.302862 0.908859 0.139434
H22_10 H 0.40863 0.802475 0.138808
H9_21 H 0.360566 0.802862 0.091141
N1_8 N 0.1597 0.660(2) 0.1597
C19_8 C 0.1909 0.691(2) 0.1909
C20_8 C 0.1208 0.675(3) 0.121(2)
C21_8 C 0.175(3) 0.621(2) 0.1208
C22_8 C 0.121(2) 0.6208 0.175(3)
H9_22 H 0.139434 0.591141 0.197138
H10_8 H 0.10406 0.604203 0.14113
H11_12 H 0.0915164 0.638705 0.197797
H12_8 H 0.214734 0.714961 0.16708
H13_8 H 0.214809 0.667026 0.214631
H14_8 H 0.167079 0.714782 0.214912
H17_8 H 0.197622 0.639097 0.0912991
H18_8 H 0.141129 0.604342 0.103924
H19_8 H 0.197315 0.591355 0.139043
H20_8 H 0.0911538 0.697346 0.139202
H21_8 H 0.104163 0.641032 0.104298
H22_11 H 0.138808 0.697525 0.0913704
H9_23 H 0.139434 0.697138 0.091141
H22_12 H 0.138808 0.59137 0.197525
H9_24 H 0.091141 0.639434 0.197138
N1_9 N 0.1597 0.8403 0.340(2)
C19_9 C 0.1909 0.8091 0.309(2)
C20_9 C 0.121(2) 0.8792 0.325(3)
C21_9 C 0.1208 0.825(3) 0.379(2)
C22_9 C 0.175(3) 0.879(2) 0.3792
H9_25 H 0.197138 0.860566 0.408859
H10_9 H 0.14113 0.89594 0.395797
H11_13 H 0.197797 0.908484 0.361295
H12_9 H 0.16708 0.785266 0.285039
H13_9 H 0.214631 0.785191 0.332974
H14_9 H 0.214912 0.832921 0.285218
H17_9 H 0.0912991 0.802378 0.360903
H18_9 H 0.103924 0.858871 0.395658
H19_9 H 0.139043 0.802685 0.408645
H20_9 H 0.139202 0.908846 0.302654
H21_9 H 0.104298 0.895837 0.358968
H22_13 H 0.0913704 0.861192 0.302475
H9_26 H 0.197138 0.908859 0.360566
H11_14 H 0.197797 0.861295 0.408484
H9_27 H 0.091141 0.860566 0.302862
N1_10 N 0.340(2) 0.1597 0.8403
C19_10 C 0.309(2) 0.1909 0.8091
C20_10 C 0.325(3) 0.121(2) 0.8792
C21_10 C 0.379(2) 0.1208 0.825(3)
C22_10 C 0.3792 0.175(3) 0.879(2)
H9_28 H 0.408859 0.197138 0.860566
H10_10 H 0.395797 0.14113 0.89594
H11_15 H 0.361295 0.197797 0.908484
H12_10 H 0.285039 0.16708 0.785266
H13_10 H 0.332974 0.214631 0.785191
H14_10 H 0.285218 0.214912 0.832921
H17_10 H 0.360903 0.0912991 0.802378
H18_10 H 0.395658 0.103924 0.858871
H19_10 H 0.408645 0.139043 0.802685
H20_10 H 0.302654 0.139202 0.908846
H21_10 H 0.358968 0.104298 0.895837
H22_14 H 0.302475 0.0913704 0.861192
H9_29 H 0.360566 0.197138 0.908859
H11_16 H 0.408484 0.197797 0.861295
H9_30 H 0.302862 0.091141 0.860566
N1_11 N 0.1597 0.340(2) 0.8403
C19_11 C 0.1909 0.309(2) 0.8091
C20_11 C 0.1208 0.325(3) 0.879(2)
C21_11 C 0.175(3) 0.379(2) 0.8792
C22_11 C 0.121(2) 0.3792 0.825(3)
H9_31 H 0.139434 0.408859 0.802862
H10_11 H 0.10406 0.395797 0.85887
H11_17 H 0.0915164 0.361295 0.802203
H12_11 H 0.214734 0.285039 0.83292
H13_11 H 0.214809 0.332974 0.785369
H14_11 H 0.167079 0.285218 0.785088
H17_11 H 0.197622 0.360903 0.908701
H18_11 H 0.141129 0.395658 0.896076
H19_11 H 0.197315 0.408645 0.860957
H20_11 H 0.0911538 0.302654 0.860798
H21_11 H 0.104163 0.358968 0.895702
H22_15 H 0.138808 0.302475 0.90863
H9_32 H 0.139434 0.302862 0.908859
H22_16 H 0.138808 0.40863 0.802475
H9_33 H 0.091141 0.360566 0.802862
N1_12 N 0.1597 0.1597 0.660(2)
C19_12 C 0.1909 0.1909 0.691(2)
C20_12 C 0.121(2) 0.1208 0.675(3)
C21_12 C 0.1208 0.175(3) 0.621(2)
C22_12 C 0.175(3) 0.121(2) 0.6208
H9_34 H 0.197138 0.139434 0.591141
H10_12 H 0.14113 0.10406 0.604203
H11_18 H 0.197797 0.0915164 0.638705
H12_12 H 0.16708 0.214734 0.714961
H13_12 H 0.214631 0.214809 0.667026
H14_12 H 0.214912 0.167079 0.714782
H17_12 H 0.0912991 0.197622 0.639097
H18_12 H 0.103924 0.141129 0.604342
H19_12 H 0.139043 0.197315 0.591355
H20_12 H 0.139202 0.0911538 0.697346
H21_12 H 0.104298 0.104163 0.641032
H22_17 H 0.0913704 0.138808 0.697525
H9_35 H 0.197138 0.091141 0.639434
H11_19 H 0.197797 0.138705 0.591516
H9_36 H 0.091141 0.139434 0.697138
N1_13 N 0.340(2) 0.6597 0.6597
C19_13 C 0.309(2) 0.6909 0.6909
C20_13 C 0.325(3) 0.621(2) 0.6208
C21_13 C 0.379(2) 0.6208 0.675(3)
C22_13 C 0.3792 0.675(3) 0.621(2)
H9_37 H 0.408859 0.697138 0.639434
H10_13 H 0.395797 0.64113 0.60406
H11_20 H 0.361295 0.697797 0.591516
H12_13 H 0.285039 0.66708 0.714734
H13_13 H 0.332974 0.714631 0.714809
H14_13 H 0.285218 0.714912 0.667079
H17_13 H 0.360903 0.591299 0.697622
H18_13 H 0.395658 0.603924 0.641129
H19_13 H 0.408645 0.639043 0.697315
H20_13 H 0.302654 0.639202 0.591154
H21_13 H 0.358968 0.604298 0.604163
H22_18 H 0.302475 0.59137 0.638808
H9_38 H 0.302862 0.591141 0.639434
H22_19 H 0.40863 0.697525 0.638808
H9_39 H 0.360566 0.697138 0.591141
N1_14 N 0.1597 0.840(2) 0.6597
C19_14 C 0.1909 0.809(2) 0.6909
C20_14 C 0.1208 0.825(3) 0.621(2)
C21_14 C 0.175(3) 0.879(2) 0.6208
C22_14 C 0.121(2) 0.8792 0.675(3)
H9_40 H 0.139434 0.908859 0.697138
H10_14 H 0.10406 0.895797 0.64113
H11_21 H 0.0915164 0.861295 0.697797
H12_14 H 0.214734 0.785039 0.66708
H13_14 H 0.214809 0.832974 0.714631
H14_14 H 0.167079 0.785218 0.714912
H17_14 H 0.197622 0.860903 0.591299
H18_14 H 0.141129 0.895658 0.603924
H19_14 H 0.197315 0.908645 0.639043
H20_14 H 0.0911538 0.802654 0.639202
H21_14 H 0.104163 0.858968 0.604298
H22_20 H 0.138808 0.802475 0.59137
H9_41 H 0.139434 0.802862 0.591141
H22_21 H 0.138808 0.90863 0.697525
H9_42 H 0.091141 0.860566 0.697138
N1_15 N 0.1597 0.6597 0.840(2)
C19_15 C 0.1909 0.6909 0.809(2)
C20_15 C 0.121(2) 0.6208 0.825(3)
C21_15 C 0.1208 0.675(3) 0.879(2)
C22_15 C 0.175(3) 0.621(2) 0.8792
H9_43 H 0.197138 0.639434 0.908859
H10_15 H 0.14113 0.60406 0.895797
H11_22 H 0.197797 0.591516 0.861295
H12_15 H 0.16708 0.714734 0.785039
H13_15 H 0.214631 0.714809 0.832974
H14_15 H 0.214912 0.667079 0.785218
H17_15 H 0.0912991 0.697622 0.860903
H18_15 H 0.103924 0.641129 0.895658
H19_15 H 0.139043 0.697315 0.908645
H20_15 H 0.139202 0.591154 0.802654
H21_15 H 0.104298 0.604163 0.858968
H22_22 H 0.0913704 0.638808 0.802475
H9_44 H 0.197138 0.591141 0.860566
H11_23 H 0.197797 0.638705 0.908484
H9_45 H 0.091141 0.639434 0.802862
N1_16 N 0.660(2) 0.6597 0.6597
C19_16 C 0.691(2) 0.6909 0.6909
C20_16 C 0.675(3) 0.621(2) 0.6208
C21_16 C 0.621(2) 0.6208 0.675(3)
C22_16 C 0.6208 0.675(3) 0.621(2)
H9_46 H 0.591141 0.697138 0.639434
H10_16 H 0.604203 0.64113 0.60406
H11_24 H 0.638705 0.697797 0.591516
H12_16 H 0.714961 0.66708 0.714734
H13_16 H 0.667026 0.714631 0.714809
H14_16 H 0.714782 0.714912 0.667079
H17_16 H 0.639097 0.591299 0.697622
H18_16 H 0.604342 0.603924 0.641129
H19_16 H 0.591355 0.639043 0.697315
H20_16 H 0.697346 0.639202 0.591154
H21_16 H 0.641032 0.604298 0.604163
H22_23 H 0.697525 0.59137 0.638808
H9_47 H 0.697138 0.591141 0.639434
H22_24 H 0.59137 0.697525 0.638808
H9_48 H 0.639434 0.697138 0.591141
N1_17 N 0.8403 0.840(2) 0.6597
C19_17 C 0.8091 0.809(2) 0.6909
C20_17 C 0.8792 0.825(3) 0.621(2)
C21_17 C 0.825(3) 0.879(2) 0.6208
C22_17 C 0.879(2) 0.8792 0.675(3)
H9_49 H 0.860566 0.908859 0.697138
H10_17 H 0.89594 0.895797 0.64113
H11_25 H 0.908484 0.861295 0.697797
H12_17 H 0.785266 0.785039 0.66708
H13_17 H 0.785191 0.832974 0.714631
H14_17 H 0.832921 0.785218 0.714912
H17_17 H 0.802378 0.860903 0.591299
H18_17 H 0.858871 0.895658 0.603924
H19_17 H 0.802685 0.908645 0.639043
H20_17 H 0.908846 0.802654 0.639202
H21_17 H 0.895837 0.858968 0.604298
H22_25 H 0.861192 0.802475 0.59137
H9_50 H 0.908859 0.860566 0.697138
H11_26 H 0.861295 0.908484 0.697797
H9_51 H 0.860566 0.802862 0.591141
N1_18 N 0.8403 0.6597 0.840(2)
C19_18 C 0.8091 0.6909 0.809(2)
C20_18 C 0.879(2) 0.6208 0.825(3)
C21_18 C 0.8792 0.675(3) 0.879(2)
C22_18 C 0.825(3) 0.621(2) 0.8792
H9_52 H 0.802862 0.639434 0.908859
H10_18 H 0.85887 0.60406 0.895797
H11_27 H 0.802203 0.591516 0.861295
H12_18 H 0.83292 0.714734 0.785039
H13_18 H 0.785369 0.714809 0.832974
H14_18 H 0.785088 0.667079 0.785218
H17_18 H 0.908701 0.697622 0.860903
H18_18 H 0.896076 0.641129 0.895658
H19_18 H 0.860957 0.697315 0.908645
H20_18 H 0.860798 0.591154 0.802654
H21_18 H 0.895702 0.604163 0.858968
H22_26 H 0.90863 0.638808 0.802475
H9_53 H 0.908859 0.639434 0.802862
H22_27 H 0.802475 0.638808 0.90863
H9_54 H 0.802862 0.591141 0.860566
N1_19 N 0.340(2) 0.3403 0.6597
C19_19 C 0.309(2) 0.3091 0.6909
C20_19 C 0.325(3) 0.379(2) 0.6208
C21_19 C 0.379(2) 0.3792 0.675(3)
C22_19 C 0.3792 0.325(3) 0.621(2)
H9_55 H 0.408859 0.302862 0.639434
H10_19 H 0.395797 0.35887 0.60406
H11_28 H 0.361295 0.302203 0.591516
H12_19 H 0.285039 0.33292 0.714734
H13_19 H 0.332974 0.285369 0.714809
H14_19 H 0.285218 0.285088 0.667079
H17_19 H 0.360903 0.408701 0.697622
H18_19 H 0.395658 0.396076 0.641129
H19_19 H 0.408645 0.360957 0.697315
H20_19 H 0.302654 0.360798 0.591154
H21_19 H 0.358968 0.395702 0.604163
H22_28 H 0.302475 0.40863 0.638808
H9_56 H 0.302862 0.408859 0.639434
H22_29 H 0.40863 0.302475 0.638808
H9_57 H 0.360566 0.302862 0.591141
N1_20 N 0.340(2) 0.6597 0.3403
C19_20 C 0.309(2) 0.6909 0.3091
C20_20 C 0.325(3) 0.621(2) 0.3792
C21_20 C 0.379(2) 0.6208 0.325(3)
C22_20 C 0.3792 0.675(3) 0.379(2)
H9_58 H 0.408859 0.697138 0.360566
H10_20 H 0.395797 0.64113 0.39594
H11_29 H 0.361295 0.697797 0.408484
H12_20 H 0.285039 0.66708 0.285266
H13_20 H 0.332974 0.714631 0.285191
H14_20 H 0.285218 0.714912 0.332921
H17_20 H 0.360903 0.591299 0.302378
H18_20 H 0.395658 0.603924 0.358871
H19_20 H 0.408645 0.639043 0.302685
H20_20 H 0.302654 0.639202 0.408846
H21_20 H 0.358968 0.604298 0.395837
H22_30 H 0.302475 0.59137 0.361192
H9_59 H 0.360566 0.697138 0.408859
H11_30 H 0.408484 0.697797 0.361295
H9_60 H 0.302862 0.591141 0.360566
N1_21 N 0.840(2) 0.1597 0.6597
C19_21 C 0.809(2) 0.1909 0.6909
C20_21 C 0.825(3) 0.121(2) 0.6208
C21_21 C 0.879(2) 0.1208 0.675(3)
C22_21 C 0.8792 0.175(3) 0.621(2)
H9_61 H 0.908859 0.197138 0.639434
H10_21 H 0.895797 0.14113 0.60406
H11_31 H 0.861295 0.197797 0.591516
H12_21 H 0.785039 0.16708 0.714734
H13_21 H 0.832974 0.214631 0.714809
H14_21 H 0.785218 0.214912 0.667079
H17_21 H 0.860903 0.0912991 0.697622
H18_21 H 0.895658 0.103924 0.641129
H19_21 H 0.908645 0.139043 0.697315
H20_21 H 0.802654 0.139202 0.591154
H21_21 H 0.858968 0.104298 0.604163
H22_31 H 0.802475 0.0913704 0.638808
H9_62 H 0.860566 0.197138 0.591141
H11_32 H 0.908484 0.197797 0.638705
H9_63 H 0.802862 0.091141 0.639434
N1_22 N 0.6597 0.340(2) 0.6597
C19_22 C 0.6909 0.309(2) 0.6909
C20_22 C 0.6208 0.325(3) 0.621(2)
C21_22 C 0.675(3) 0.379(2) 0.6208
C22_22 C 0.621(2) 0.3792 0.675(3)
H9_64 H 0.639434 0.408859 0.697138
H10_22 H 0.60406 0.395797 0.64113
H11_33 H 0.591516 0.361295 0.697797
H12_22 H 0.714734 0.285039 0.66708
H13_22 H 0.714809 0.332974 0.714631
H14_22 H 0.667079 0.285218 0.714912
H17_22 H 0.697622 0.360903 0.591299
H18_22 H 0.641129 0.395658 0.603924
H19_22 H 0.697315 0.408645 0.639043
H20_22 H 0.591154 0.302654 0.639202
H21_22 H 0.604163 0.358968 0.604298
H22_32 H 0.638808 0.302475 0.59137
H9_65 H 0.591141 0.360566 0.697138
H11_34 H 0.638705 0.408484 0.697797
H9_66 H 0.639434 0.302862 0.591141
N1_23 N 0.6597 0.1597 0.840(2)
C19_23 C 0.6909 0.1909 0.809(2)
C20_23 C 0.621(2) 0.1208 0.825(3)
C21_23 C 0.6208 0.175(3) 0.879(2)
C22_23 C 0.675(3) 0.121(2) 0.8792
H9_67 H 0.697138 0.139434 0.908859
H10_23 H 0.64113 0.10406 0.895797
H11_35 H 0.697797 0.0915164 0.861295
H12_23 H 0.66708 0.214734 0.785039
H13_23 H 0.714631 0.214809 0.832974
H14_23 H 0.714912 0.167079 0.785218
H17_23 H 0.591299 0.197622 0.860903
H18_23 H 0.603924 0.141129 0.895658
H19_23 H 0.639043 0.197315 0.908645
H20_23 H 0.639202 0.0911538 0.802654
H21_23 H 0.604298 0.104163 0.858968
H22_33 H 0.59137 0.138808 0.802475
H9_68 H 0.591141 0.139434 0.802862
H22_34 H 0.697525 0.138808 0.90863
H9_69 H 0.697138 0.091141 0.860566
N1_24 N 0.6597 0.8403 0.840(2)
C19_24 C 0.6909 0.8091 0.809(2)
C20_24 C 0.621(2) 0.8792 0.825(3)
C21_24 C 0.6208 0.825(3) 0.879(2)
C22_24 C 0.675(3) 0.879(2) 0.8792
H9_70 H 0.697138 0.860566 0.908859
H10_24 H 0.64113 0.89594 0.895797
H11_36 H 0.697797 0.908484 0.861295
H12_24 H 0.66708 0.785266 0.785039
H13_24 H 0.714631 0.785191 0.832974
H14_24 H 0.714912 0.832921 0.785218
H17_24 H 0.591299 0.802378 0.860903
H18_24 H 0.603924 0.858871 0.895658
H19_24 H 0.639043 0.802685 0.908645
H20_24 H 0.639202 0.908846 0.802654
H21_24 H 0.604298 0.895837 0.858968
H22_35 H 0.59137 0.861192 0.802475
H9_71 H 0.697138 0.908859 0.860566
H11_37 H 0.697797 0.861295 0.908484
H9_72 H 0.591141 0.860566 0.802862
N1_25 N 0.6597 0.340(2) 0.3403
C19_25 C 0.6909 0.309(2) 0.3091
C20_25 C 0.6208 0.325(3) 0.379(2)
C21_25 C 0.675(3) 0.379(2) 0.3792
C22_25 C 0.621(2) 0.3792 0.325(3)
H9_73 H 0.639434 0.408859 0.302862
H10_25 H 0.60406 0.395797 0.35887
H11_38 H 0.591516 0.361295 0.302203
H12_25 H 0.714734 0.285039 0.33292
H13_25 H 0.714809 0.332974 0.285369
H14_25 H 0.667079 0.285218 0.285088
H17_25 H 0.697622 0.360903 0.408701
H18_25 H 0.641129 0.395658 0.396076
H19_25 H 0.697315 0.408645 0.360957
H20_25 H 0.591154 0.302654 0.360798
H21_25 H 0.604163 0.358968 0.395702
H22_36 H 0.638808 0.302475 0.40863
H9_74 H 0.639434 0.302862 0.408859
H22_37 H 0.638808 0.40863 0.302475
H9_75 H 0.591141 0.360566 0.302862
N1_26 N 0.840(2) 0.6597 0.1597
C19_26 C 0.809(2) 0.6909 0.1909
C20_26 C 0.825(3) 0.621(2) 0.1208
C21_26 C 0.879(2) 0.6208 0.175(3)
C22_26 C 0.8792 0.675(3) 0.121(2)
H9_76 H 0.908859 0.697138 0.139434
H10_26 H 0.895797 0.64113 0.10406
H11_39 H 0.861295 0.697797 0.0915164
H12_26 H 0.785039 0.66708 0.214734
H13_26 H 0.832974 0.714631 0.214809
H14_26 H 0.785218 0.714912 0.167079
H17_26 H 0.860903 0.591299 0.197622
H18_26 H 0.895658 0.603924 0.141129
H19_26 H 0.908645 0.639043 0.197315
H20_26 H 0.802654 0.639202 0.0911538
H21_26 H 0.858968 0.604298 0.104163
H22_38 H 0.802475 0.59137 0.138808
H9_77 H 0.802862 0.591141 0.139434
H22_39 H 0.90863 0.697525 0.138808
H9_78 H 0.860566 0.697138 0.091141
N1_27 N 0.6597 0.840(2) 0.1597
C19_27 C 0.6909 0.809(2) 0.1909
C20_27 C 0.6208 0.825(3) 0.121(2)
C21_27 C 0.675(3) 0.879(2) 0.1208
C22_27 C 0.621(2) 0.8792 0.175(3)
H9_79 H 0.639434 0.908859 0.197138
H10_27 H 0.60406 0.895797 0.14113
H11_40 H 0.591516 0.861295 0.197797
H12_27 H 0.714734 0.785039 0.16708
H13_27 H 0.714809 0.832974 0.214631
H14_27 H 0.667079 0.785218 0.214912
H17_27 H 0.697622 0.860903 0.0912991
H18_27 H 0.641129 0.895658 0.103924
H19_27 H 0.697315 0.908645 0.139043
H20_27 H 0.591154 0.802654 0.139202
H21_27 H 0.604163 0.858968 0.104298
H22_40 H 0.638808 0.802475 0.0913704
H9_80 H 0.591141 0.860566 0.197138
H11_41 H 0.638705 0.908484 0.197797
H9_81 H 0.639434 0.802862 0.091141
N1_28 N 0.6597 0.6597 0.340(2)
C19_28 C 0.6909 0.6909 0.309(2)
C20_28 C 0.621(2) 0.6208 0.325(3)
C21_28 C 0.6208 0.675(3) 0.379(2)
C22_28 C 0.675(3) 0.621(2) 0.3792
H9_82 H 0.697138 0.639434 0.408859
H10_28 H 0.64113 0.60406 0.395797
H11_42 H 0.697797 0.591516 0.361295
H12_28 H 0.66708 0.714734 0.285039
H13_28 H 0.714631 0.714809 0.332974
H14_28 H 0.714912 0.667079 0.285218
H17_28 H 0.591299 0.697622 0.360903
H18_28 H 0.603924 0.641129 0.395658
H19_28 H 0.639043 0.697315 0.408645
H20_28 H 0.639202 0.591154 0.302654
H21_28 H 0.604298 0.604163 0.358968
H22_41 H 0.59137 0.638808 0.302475
H9_83 H 0.591141 0.639434 0.302862
H22_42 H 0.697525 0.638808 0.40863
H9_84 H 0.697138 0.591141 0.360566
N1_29 N 0.340(2) 0.8403 0.8403
C19_29 C 0.309(2) 0.8091 0.8091
C20_29 C 0.325(3) 0.879(2) 0.8792
C21_29 C 0.379(2) 0.8792 0.825(3)
C22_29 C 0.3792 0.825(3) 0.879(2)
H9_85 H 0.408859 0.802862 0.860566
H10_29 H 0.395797 0.85887 0.89594
H11_43 H 0.361295 0.802203 0.908484
H12_29 H 0.285039 0.83292 0.785266
H13_29 H 0.332974 0.785369 0.785191
H14_29 H 0.285218 0.785088 0.832921
H17_29 H 0.360903 0.908701 0.802378
H18_29 H 0.395658 0.896076 0.858871
H19_29 H 0.408645 0.860957 0.802685
H20_29 H 0.302654 0.860798 0.908846
H21_29 H 0.358968 0.895702 0.895837
H22_43 H 0.302475 0.90863 0.861192
H9_86 H 0.360566 0.802862 0.908859
H11_44 H 0.408484 0.802203 0.861295
H9_87 H 0.302862 0.908859 0.860566
N1_30 N 0.8403 0.340(2) 0.8403
C19_30 C 0.8091 0.309(2) 0.8091
C20_30 C 0.8792 0.325(3) 0.879(2)
C21_30 C 0.825(3) 0.379(2) 0.8792
C22_30 C 0.879(2) 0.3792 0.825(3)
H9_88 H 0.860566 0.408859 0.802862
H10_30 H 0.89594 0.395797 0.85887
H11_45 H 0.908484 0.361295 0.802203
H12_30 H 0.785266 0.285039 0.83292
H13_30 H 0.785191 0.332974 0.785369
H14_30 H 0.832921 0.285218 0.785088
H17_30 H 0.802378 0.360903 0.908701
H18_30 H 0.858871 0.395658 0.896076
H19_30 H 0.802685 0.408645 0.860957
H20_30 H 0.908846 0.302654 0.860798
H21_30 H 0.895837 0.358968 0.895702
H22_44 H 0.861192 0.302475 0.90863
H9_89 H 0.860566 0.302862 0.908859
H22_45 H 0.861192 0.40863 0.802475
H9_90 H 0.908859 0.360566 0.802862
N1_31 N 0.8403 0.8403 0.340(2)
C19_31 C 0.8091 0.8091 0.309(2)
C20_31 C 0.879(2) 0.8792 0.325(3)
C21_31 C 0.8792 0.825(3) 0.379(2)
C22_31 C 0.825(3) 0.879(2) 0.3792
H9_91 H 0.802862 0.860566 0.408859
H10_31 H 0.85887 0.89594 0.395797
H11_46 H 0.802203 0.908484 0.361295
H12_31 H 0.83292 0.785266 0.285039
H13_31 H 0.785369 0.785191 0.332974
H14_31 H 0.785088 0.832921 0.285218
H17_31 H 0.908701 0.802378 0.360903
H18_31 H 0.896076 0.858871 0.395658
H19_31 H 0.860957 0.802685 0.408645
H20_31 H 0.860798 0.908846 0.302654
H21_31 H 0.895702 0.895837 0.358968
H22_46 H 0.90863 0.861192 0.302475
H9_92 H 0.802862 0.908859 0.360566
H11_47 H 0.802203 0.861295 0.408484
H9_93 H 0.908859 0.860566 0.302862
N1_32 N 0.340(2) 0.3403 0.3403
C19_32 C 0.309(2) 0.3091 0.3091
C20_32 C 0.325(3) 0.379(2) 0.3792
C21_32 C 0.379(2) 0.3792 0.325(3)
C22_32 C 0.3792 0.325(3) 0.379(2)
H9_94 H 0.408859 0.302862 0.360566
H10_32 H 0.395797 0.35887 0.39594
H11_48 H 0.361295 0.302203 0.408484
H12_32 H 0.285039 0.33292 0.285266
H13_32 H 0.332974 0.285369 0.285191
H14_32 H 0.285218 0.285088 0.332921
H17_32 H 0.360903 0.408701 0.302378
H18_32 H 0.395658 0.396076 0.358871
H19_32 H 0.408645 0.360957 0.302685
H20_32 H 0.302654 0.360798 0.408846
H21_32 H 0.358968 0.395702 0.395837
H22_47 H 0.302475 0.40863 0.361192
H9_95 H 0.302862 0.408859 0.360566
H22_48 H 0.40863 0.302475 0.361192
H9_96 H 0.360566 0.302862 0.408859
loop_
_geom_bond_atom_site_label_1
_geom_bond_atom_site_label_2
_geom_bond_site_symmetry_1
_geom_bond_site_symmetry_2
Cu1 O1 1_555 1_555
O1 C1 1_555 1_555
O2 Cu1 1_555 1_555
C1 C2 1_555 1_555
C2 C3 1_555 1_555
C3 C4 1_555 1_555
O3 C1 1_555 1_555
C4 C5 1_555 1_555
C5 O4 1_555 1_555
O4 Cu3 1_555 1_555
O5 C5 1_555 1_555
C6 C4 1_555 1_555
C7 C6 1_555 1_555
C8 C7 1_555 1_555
O6 C8 1_555 1_555
O7 C8 1_555 1_555
C9 C2 1_555 1_555
O16 Cu1 1_555 1_555
O17 Cu2 1_555 1_555
Cu2 Cu1 1_555 1_555
Cu3 Cu4 1_555 1_555
Cu4 O5 1_555 1_555
Cu5 O6 1_555 1_555
Cu6 O7 1_555 1_555
O18 Cu2 1_555 1_555
O3 Cu2 1_555 1_555
C7 C9 1_555 1_555
Cu5 Cu6 1_555 1_555
C3 H3 1_555 1_555
C9 H6 1_555 1_555
C6 H7 1_555 1_555
Cu3_2 Cu4_2 1_555 1_555
O2_2 Cu1_2 1_555 1_555
O8 Cu1_2 1_555 1_555
C10 O8 1_555 1_555
C11 C10 1_555 1_555
C12 C11 1_555 1_555
O9 C10 1_555 1_555
C13 C12 1_555 1_555
C14 C13 1_555 1_555
O10 C14 1_555 1_555
O11 C14 1_555 1_555
C15 C13 1_555 1_555
C16 C15 1_555 1_555
C17 C16 1_555 1_555
O12 C17 1_555 1_555
O13 C17 1_555 1_555
C18 C11 1_555 1_555
O14 Cu1_2 1_555 1_555
O15 Cu2_2 1_555 1_555
Cu2_2 Cu1_2 1_555 1_555
Cu7 O10 1_555 1_555
Cu8 O11 1_555 1_555
Cu9 O12 1_555 1_555
Cu10 O13 1_555 1_555
O18_2 Cu2_2 1_555 1_555
O19 Cu9 1_555 1_555
O20 Cu9 1_555 1_555
O9 Cu2_2 1_555 1_555
C16 C18 1_555 1_555
Cu7 Cu8 1_555 1_555
Cu9 Cu10 1_555 1_555
C15 H4 1_555 1_555
C18 H5 1_555 1_555
C12 H8 1_555 1_555
Cu7_2 Cu8_2 1_555 1_555
Cu5_2 Cu6_2 1_555 1_555
O19_2 Cu9_2 1_555 1_555
O21 Cu9_2 1_555 1_555
O22 Cu9_2 1_555 1_555
Cu9_2 Cu10_2 1_555 1_555
O2_3 Cu3 1_555 1_555
O16_2 Cu3 1_555 1_555
O17_2 Cu4 1_555 1_555
O18_3 Cu4 1_555 1_555
O2_4 Cu3_2 1_555 1_555
O8_2 Cu3_2 1_555 1_555
C10_2 O8_2 1_555 1_555
C11_2 C10_2 1_555 1_555
C12_2 C11_2 1_555 1_555
O9_2 C10_2 1_555 1_555
C13_2 C12_2 1_555 1_555
C14_2 C13_2 1_555 1_555
O10_2 C14_2 1_555 1_555
O11_2 C14_2 1_555 1_555
C15_2 C13_2 1_555 1_555
C16_2 C15_2 1_555 1_555
C17_2 C16_2 1_555 1_555
O12_2 C17_2 1_555 1_555
O13_2 C17_2 1_555 1_555
C18_2 C11_2 1_555 1_555
O14_2 Cu3_2 1_555 1_555
O15_2 Cu4_2 1_555 1_555
Cu7_3 O10_2 1_555 1_555
Cu8_3 O11_2 1_555 1_555
Cu9_3 O12_2 1_555 1_555
Cu10_3 O13_2 1_555 1_555
O18_4 Cu4_2 1_555 1_555
O19_3 Cu9_3 1_555 1_555
O20_2 Cu9_3 1_555 1_555
O9_2 Cu4_2 1_555 1_555
C16_2 C18_2 1_555 1_555
Cu7_3 Cu8_3 1_555 1_555
Cu9_3 Cu10_3 1_555 1_555
C15_2 H4_2 1_555 1_555
C18_2 H5_2 1_555 1_555
C12_2 H8_2 1_555 1_555
O19_4 Cu9_4 1_555 1_555
O21_2 Cu9_4 1_555 1_555
O22_2 Cu9_4 1_555 1_555
Cu9_4 Cu10_4 1_555 1_555
Cu7_4 Cu8_4 1_555 1_555
O2_5 Cu5 1_555 1_555
O16_3 Cu5 1_555 1_555
O17_3 Cu6 1_555 1_555
O18_5 Cu6 1_555 1_555
O2_6 Cu5_2 1_555 1_555
O8_3 Cu5_2 1_555 1_555
C10_3 O8_3 1_555 1_555
C11_3 C10_3 1_555 1_555
C12_3 C11_3 1_555 1_555
O9_3 C10_3 1_555 1_555
C13_3 C12_3 1_555 1_555
C14_3 C13_3 1_555 1_555
O10_3 C14_3 1_555 1_555
O11_3 C14_3 1_555 1_555
C15_3 C13_3 1_555 1_555
C16_3 C15_3 1_555 1_555
C17_3 C16_3 1_555 1_555
O12_3 C17_3 1_555 1_555
O13_3 C17_3 1_555 1_555
C18_3 C11_3 1_555 1_555
O14_3 Cu5_2 1_555 1_555
O15_3 Cu6_2 1_555 1_555
Cu7_5 O10_3 1_555 1_555
Cu8_5 O11_3 1_555 1_555
Cu9_5 O12_3 1_555 1_555
Cu10_5 O13_3 1_555 1_555
O18_6 Cu6_2 1_555 1_555
O19_5 Cu9_5 1_555 1_555
O20_3 Cu9_5 1_555 1_555
O9_3 Cu6_2 1_555 1_555
C16_3 C18_3 1_555 1_555
Cu7_5 Cu8_5 1_555 1_555
Cu9_5 Cu10_5 1_555 1_555
C15_3 H4_3 1_555 1_555
C18_3 H5_3 1_555 1_555
C12_3 H8_3 1_555 1_555
O19_6 Cu9_6 1_555 1_555
O21_3 Cu9_6 1_555 1_555
O22_3 Cu9_6 1_555 1_555
Cu9_6 Cu10_6 1_555 1_555
Cu7_6 Cu8_6 1_555 1_555
O19_7 Cu8_3 1_555 1_555
O20_4 Cu8_3 1_555 1_555
O19_8 Cu8_4 1_555 1_555
O21_4 Cu8_4 1_555 1_555
O22_4 Cu8_4 1_555 1_555
O19_9 Cu8_5 1_555 1_555
O20_5 Cu8_5 1_555 1_555
O19_10 Cu8_6 1_555 1_555
O21_5 Cu8_6 1_555 1_555
O22_5 Cu8_6 1_555 1_555
O19_11 Cu8 1_555 1_555
O20_6 Cu8 1_555 1_555
O19_12 Cu8_2 1_555 1_555
O21_6 Cu8_2 1_555 1_555
O22_6 Cu8_2 1_555 1_555
O2_7 Cu7_5 1_555 1_555
O16_4 Cu7_5 1_555 1_555
O2_8 Cu7_6 1_555 1_555
O8_4 Cu7_6 1_555 1_555
C10_4 O8_4 1_555 1_555
C11_4 C10_4 1_555 1_555
C12_4 C11_4 1_555 1_555
O21_5 C10_4 1_555 1_555
C13_4 C12_4 1_555 1_555
C14_4 C13_4 1_555 1_555
O10_4 C14_4 1_555 1_555
O11_4 C14_4 1_555 1_555
C15_4 C13_4 1_555 1_555
C16_4 C15_4 1_555 1_555
C17_4 C16_4 1_555 1_555
O21 C17_4 1_555 1_555
O13_4 C17_4 1_555 1_555
C18_4 C11_4 1_555 1_555
O14_4 Cu7_6 1_555 1_555
Cu7_7 O10_4 1_555 1_555
Cu8_7 O11_4 1_555 1_555
Cu10_2 O13_4 1_555 1_555
C16_4 C18_4 1_555 1_555
Cu7_7 Cu8_7 1_555 1_555
C15_4 H4_4 1_555 1_555
C18_4 H5_4 1_555 1_555
C12_4 H8_4 1_555 1_555
Cu7_8 Cu8_8 1_555 1_555
O17_4 Cu10_5 1_555 1_555
O18_7 Cu10_5 1_555 1_555
C10_5 O21_3 1_555 1_555
C11_5 C10_5 1_555 1_555
C12_5 C11_5 1_555 1_555
O9_4 C10_5 1_555 1_555
C13_5 C12_5 1_555 1_555
C14_5 C13_5 1_555 1_555
O10_5 C14_5 1_555 1_555
O21_4 C14_5 1_555 1_555
C15_5 C13_5 1_555 1_555
C16_5 C15_5 1_555 1_555
C17_5 C16_5 1_555 1_555
O12_4 C17_5 1_555 1_555
O13_5 C17_5 1_555 1_555
C18_5 C11_5 1_555 1_555
O15_4 Cu10_6 1_555 1_555
Cu7_4 O10_5 1_555 1_555
Cu9_7 O12_4 1_555 1_555
Cu10_7 O13_5 1_555 1_555
O18_8 Cu10_6 1_555 1_555
O19_13 Cu9_7 1_555 1_555
O20_7 Cu9_7 1_555 1_555
O9_4 Cu10_6 1_555 1_555
C16_5 C18_5 1_555 1_555
Cu9_7 Cu10_7 1_555 1_555
C15_5 H4_5 1_555 1_555
C18_5 H5_5 1_555 1_555
C12_5 H8_5 1_555 1_555
O19_14 Cu9_8 1_555 1_555
O21_7 Cu9_8 1_555 1_555
O22_7 Cu9_8 1_555 1_555
Cu9_8 Cu10_8 1_555 1_555
O19_15 Cu8_7 1_555 1_555
O20_8 Cu8_7 1_555 1_555
O19_16 Cu8_8 1_555 1_555
O21_8 Cu8_8 1_555 1_555
O22_8 Cu8_8 1_555 1_555
O2_9 Cu7 1_555 1_555
O16_5 Cu7 1_555 1_555
O2_10 Cu7_2 1_555 1_555
O8_5 Cu7_2 1_555 1_555
C10_6 O8_5 1_555 1_555
C11_6 C10_6 1_555 1_555
C12_6 C11_6 1_555 1_555
O21_6 C10_6 1_555 1_555
C13_6 C12_6 1_555 1_555
C14_6 C13_6 1_555 1_555
O10_6 C14_6 1_555 1_555
O11_5 C14_6 1_555 1_555
C15_6 C13_6 1_555 1_555
C16_6 C15_6 1_555 1_555
C17_6 C16_6 1_555 1_555
O21_2 C17_6 1_555 1_555
O13_6 C17_6 1_555 1_555
C18_6 C11_6 1_555 1_555
O14_5 Cu7_2 1_555 1_555
Cu7_9 O10_6 1_555 1_555
Cu8_9 O11_5 1_555 1_555
Cu10_4 O13_6 1_555 1_555
C16_6 C18_6 1_555 1_555
Cu7_9 Cu8_9 1_555 1_555
C15_6 H4_6 1_555 1_555
C18_6 H5_6 1_555 1_555
C12_6 H8_6 1_555 1_555
Cu7_10 Cu8_10 1_555 1_555
O17_5 Cu10 1_555 1_555
O18_9 Cu10 1_555 1_555
O15_5 Cu10_2 1_555 1_555
O18_10 Cu10_2 1_555 1_555
O19_17 Cu7_7 1_555 1_555
O20_9 Cu7_7 1_555 1_555
O19_18 Cu7_8 1_555 1_555
O21_9 Cu7_8 1_555 1_555
O22_9 Cu7_8 1_555 1_555
O19_19 Cu8_9 1_555 1_555
O20_10 Cu8_9 1_555 1_555
O19_20 Cu8_10 1_555 1_555
O21_10 Cu8_10 1_555 1_555
O22_10 Cu8_10 1_555 1_555
O17_6 Cu10_3 1_555 1_555
O18_11 Cu10_3 1_555 1_555
O15_6 Cu10_4 1_555 1_555
O18_12 Cu10_4 1_555 1_555
O19_21 Cu7_9 1_555 1_555
O20_11 Cu7_9 1_555 1_555
O19_22 Cu7_10 1_555 1_555
O21_11 Cu7_10 1_555 1_555
O22_11 Cu7_10 1_555 1_555
O2_11 Cu7_3 1_555 1_555
O16_6 Cu7_3 1_555 1_555
O2_12 Cu7_4 1_555 1_555
O14_6 Cu7_4 1_555 1_555
O19_23 Cu10_7 1_555 1_555
O20_12 Cu10_7 1_555 1_555
O19_24 Cu10_8 1_555 1_555
O21_12 Cu10_8 1_555 1_555
O22_12 Cu10_8 1_555 1_555
Cu1_3 O1_2 1_555 1_555
O1_2 C1_2 1_555 1_555
O2_13 Cu1_3 1_555 1_555
C1_2 C2_2 1_555 1_555
C2_2 C3_2 1_555 1_555
C3_2 C4_2 1_555 1_555
O3_2 C1_2 1_555 1_555
C4_2 C5_2 1_555 1_555
C5_2 O4_2 1_555 1_555
O4_2 Cu3_3 1_555 1_555
O5_2 C5_2 1_555 1_555
C6_2 C4_2 1_555 1_555
C7_2 C6_2 1_555 1_555
C8_2 C7_2 1_555 1_555
O20_10 C8_2 1_555 1_555
O20_11 C8_2 1_555 1_555
C9_2 C2_2 1_555 1_555
O8_6 Cu1_3 1_555 1_555
C10_7 O8_6 1_555 1_555
C11_7 C10_7 1_555 1_555
C12_7 C11_7 1_555 1_555
O9_5 C10_7 1_555 1_555
C13_7 C12_7 1_555 1_555
C14_7 C13_7 1_555 1_555
O10_7 C14_7 1_555 1_555
O11_6 C14_7 1_555 1_555
C15_7 C13_7 1_555 1_555
C16_7 C15_7 1_555 1_555
C17_7 C16_7 1_555 1_555
O20_4 C17_7 1_555 1_555
O16_6 C17_7 1_555 1_555
C18_7 C11_7 1_555 1_555
O14_7 Cu1_3 1_555 1_555
O15_7 Cu2_3 1_555 1_555
O16_7 Cu1_3 1_555 1_555
O17_7 Cu2_3 1_555 1_555
Cu2_3 Cu1_3 1_555 1_555
Cu3_3 Cu4_3 1_555 1_555
Cu4_3 O5_2 1_555 1_555
Cu7_11 O10_7 1_555 1_555
Cu8_11 O11_6 1_555 1_555
O18_13 Cu2_3 1_555 1_555
O3_2 Cu2_3 1_555 1_555
C7_2 C9_2 1_555 1_555
O9_5 Cu2_3 1_555 1_555
C16_7 C18_7 1_555 1_555
Cu7_11 Cu8_11 1_555 1_555
C3_2 H3_2 1_555 1_555
C15_7 H4_7 1_555 1_555
C18_7 H5_7 1_555 1_555
C9_2 H6_2 1_555 1_555
C6_2 H7_2 1_555 1_555
C12_7 H8_7 1_555 1_555
O2_14 Cu3_3 1_555 1_555
O8_7 Cu3_3 1_555 1_555
C10_8 O8_7 1_555 1_555
C11_8 C10_8 1_555 1_555
C12_8 C11_8 1_555 1_555
O9_6 C10_8 1_555 1_555
C13_8 C12_8 1_555 1_555
C14_8 C13_8 1_555 1_555
O17_5 C14_8 1_555 1_555
O20 C14_8 1_555 1_555
C15_8 C13_8 1_555 1_555
C16_8 C15_8 1_555 1_555
C17_8 C16_8 1_555 1_555
O12_5 C17_8 1_555 1_555
O13_7 C17_8 1_555 1_555
C18_8 C11_8 1_555 1_555
O14_8 Cu3_3 1_555 1_555
O15_8 Cu4_3 1_555 1_555
O16_8 Cu3_3 1_555 1_555
O17_8 Cu4_3 1_555 1_555
Cu9_9 O12_5 1_555 1_555
Cu10_9 O13_7 1_555 1_555
O18_14 Cu4_3 1_555 1_555
O19_25 Cu9_9 1_555 1_555
O20_13 Cu9_9 1_555 1_555
O21_13 Cu9_9 1_555 1_555
O22_13 Cu9_9 1_555 1_555
O9_6 Cu4_3 1_555 1_555
C16_8 C18_8 1_555 1_555
Cu9_9 Cu10_9 1_555 1_555
C15_8 H4_8 1_555 1_555
C18_8 H5_8 1_555 1_555
C12_8 H8_8 1_555 1_555
C10_9 O22_10 1_555 1_555
C11_9 C10_9 1_555 1_555
C12_9 C11_9 1_555 1_555
O22_11 C10_9 1_555 1_555
C13_9 C12_9 1_555 1_555
C14_9 C13_9 1_555 1_555
O10_8 C14_9 1_555 1_555
O11_7 C14_9 1_555 1_555
C15_9 C13_9 1_555 1_555
C16_9 C15_9 1_555 1_555
C17_9 C16_9 1_555 1_555
O12_6 C17_9 1_555 1_555
O13_8 C17_9 1_555 1_555
C18_9 C11_9 1_555 1_555
Cu7_12 O10_8 1_555 1_555
Cu8_12 O11_7 1_555 1_555
Cu9_10 O12_6 1_555 1_555
Cu10_10 O13_8 1_555 1_555
O19_26 Cu9_10 1_555 1_555
O20_14 Cu9_10 1_555 1_555
O21_14 Cu9_10 1_555 1_555
O22_14 Cu9_10 1_555 1_555
C16_9 C18_9 1_555 1_555
Cu7_12 Cu8_12 1_555 1_555
Cu9_10 Cu10_10 1_555 1_555
C15_9 H4_9 1_555 1_555
C18_9 H5_9 1_555 1_555
C12_9 H8_9 1_555 1_555
O19_27 Cu8_12 1_555 1_555
O20_15 Cu8_12 1_555 1_555
O21_15 Cu8_12 1_555 1_555
O22_15 Cu8_12 1_555 1_555
O19_28 Cu8_11 1_555 1_555
O20_16 Cu8_11 1_555 1_555
O21_16 Cu8_11 1_555 1_555
O22_16 Cu8_11 1_555 1_555
O2_15 Cu7_12 1_555 1_555
O8_8 Cu7_12 1_555 1_555
C10_10 O8_8 1_555 1_555
C11_10 C10_10 1_555 1_555
C12_10 C11_10 1_555 1_555
O21_15 C10_10 1_555 1_555
C13_10 C12_10 1_555 1_555
C14_10 C13_10 1_555 1_555
O10_9 C14_10 1_555 1_555
O11_8 C14_10 1_555 1_555
C15_10 C13_10 1_555 1_555
C16_10 C15_10 1_555 1_555
C17_10 C16_10 1_555 1_555
O22_4 C17_10 1_555 1_555
O14_6 C17_10 1_555 1_555
C18_10 C11_10 1_555 1_555
O14_9 Cu7_12 1_555 1_555
O16_9 Cu7_12 1_555 1_555
Cu7_13 O10_9 1_555 1_555
Cu8_13 O11_8 1_555 1_555
C16_10 C18_10 1_555 1_555
Cu7_13 Cu8_13 1_555 1_555
C15_10 H4_10 1_555 1_555
C18_10 H5_10 1_555 1_555
C12_10 H8_10 1_555 1_555
C10_11 O21_14 1_555 1_555
C11_11 C10_11 1_555 1_555
C12_11 C11_11 1_555 1_555
O9_7 C10_11 1_555 1_555
C13_11 C12_11 1_555 1_555
C14_11 C13_11 1_555 1_555
O15_5 C14_11 1_555 1_555
O22 C14_11 1_555 1_555
C15_11 C13_11 1_555 1_555
C16_11 C15_11 1_555 1_555
C17_11 C16_11 1_555 1_555
O12_7 C17_11 1_555 1_555
O13_9 C17_11 1_555 1_555
C18_11 C11_11 1_555 1_555
O15_9 Cu10_10 1_555 1_555
O17_9 Cu10_10 1_555 1_555
Cu9_11 O12_7 1_555 1_555
Cu10_11 O13_9 1_555 1_555
O18_15 Cu10_10 1_555 1_555
O19_29 Cu9_11 1_555 1_555
O20_17 Cu9_11 1_555 1_555
O21_17 Cu9_11 1_555 1_555
O22_17 Cu9_11 1_555 1_555
O9_7 Cu10_10 1_555 1_555
C16_11 C18_11 1_555 1_555
Cu9_11 Cu10_11 1_555 1_555
C15_11 H4_11 1_555 1_555
C18_11 H5_11 1_555 1_555
C12_11 H8_11 1_555 1_555
O19_30 Cu8_13 1_555 1_555
O20_18 Cu8_13 1_555 1_555
O21_18 Cu8_13 1_555 1_555
O22_18 Cu8_13 1_555 1_555
O2_16 Cu7_11 1_555 1_555
O8_9 Cu7_11 1_555 1_555
C10_12 O8_9 1_555 1_555
C11_12 C10_12 1_555 1_555
C12_12 C11_12 1_555 1_555
O21_16 C10_12 1_555 1_555
C13_12 C12_12 1_555 1_555
C14_12 C13_12 1_555 1_555
O17_3 C14_12 1_555 1_555
O16_3 C14_12 1_555 1_555
C15_12 C13_12 1_555 1_555
C16_12 C15_12 1_555 1_555
C17_12 C16_12 1_555 1_555
O21_13 C17_12 1_555 1_555
O13_10 C17_12 1_555 1_555
C18_12 C11_12 1_555 1_555
O14_10 Cu7_11 1_555 1_555
O16_10 Cu7_11 1_555 1_555
Cu10_9 O13_10 1_555 1_555
C16_12 C18_12 1_555 1_555
C15_12 H4_12 1_555 1_555
C18_12 H5_12 1_555 1_555
C12_12 H8_12 1_555 1_555
O19_31 Cu7_13 1_555 1_555
O20_19 Cu7_13 1_555 1_555
O21_19 Cu7_13 1_555 1_555
O22_19 Cu7_13 1_555 1_555
O15_10 Cu10_9 1_555 1_555
O17_10 Cu10_9 1_555 1_555
O18_16 Cu10_9 1_555 1_555
O19_32 Cu10_11 1_555 1_555
O20_20 Cu10_11 1_555 1_555
O21_20 Cu10_11 1_555 1_555
O22_20 Cu10_11 1_555 1_555
O20_12 C1_3 1_555 1_555
C1_3 C2_3 1_555 1_555
C2_3 C3_3 1_555 1_555
C3_3 C4_3 1_555 1_555
O20_7 C1_3 1_555 1_555
C4_3 C5_3 1_555 1_555
C5_3 O20_18 1_555 1_555
O20_19 C5_3 1_555 1_555
C6_3 C4_3 1_555 1_555
C7_3 C6_3 1_555 1_555
C8_3 C7_3 1_555 1_555
O6_2 C8_3 1_555 1_555
O7_2 C8_3 1_555 1_555
C9_3 C2_3 1_555 1_555
Cu5_3 O6_2 1_555 1_555
Cu6_3 O7_2 1_555 1_555
C7_3 C9_3 1_555 1_555
Cu5_3 Cu6_3 1_555 1_555
C3_3 H3_3 1_555 1_555
C9_3 H6_3 1_555 1_555
C6_3 H7_3 1_555 1_555
C10_13 O22_12 1_555 1_555
C11_13 C10_13 1_555 1_555
C12_13 C11_13 1_555 1_555
O22_7 C10_13 1_555 1_555
C13_13 C12_13 1_555 1_555
C14_13 C13_13 1_555 1_555
O17_9 C14_13 1_555 1_555
O20_14 C14_13 1_555 1_555
C15_13 C13_13 1_555 1_555
C16_13 C15_13 1_555 1_555
C17_13 C16_13 1_555 1_555
O12_8 C17_13 1_555 1_555
O13_11 C17_13 1_555 1_555
C18_13 C11_13 1_555 1_555
Cu9_12 O12_8 1_555 1_555
Cu10_12 O13_11 1_555 1_555
O19_33 Cu9_12 1_555 1_555
O20_21 Cu9_12 1_555 1_555
O21_21 Cu9_12 1_555 1_555
O22_21 Cu9_12 1_555 1_555
C16_13 C18_13 1_555 1_555
Cu9_12 Cu10_12 1_555 1_555
C15_13 H4_13 1_555 1_555
C18_13 H5_13 1_555 1_555
C12_13 H8_13 1_555 1_555
C10_14 O22_18 1_555 1_555
C11_14 C10_14 1_555 1_555
C12_14 C11_14 1_555 1_555
O22_19 C10_14 1_555 1_555
C13_14 C12_14 1_555 1_555
C14_14 C13_14 1_555 1_555
O10_10 C14_14 1_555 1_555
O11_9 C14_14 1_555 1_555
C15_14 C13_14 1_555 1_555
C16_14 C15_14 1_555 1_555
C17_14 C16_14 1_555 1_555
O20_5 C17_14 1_555 1_555
O16_4 C17_14 1_555 1_555
C18_14 C11_14 1_555 1_555
Cu7_14 O10_10 1_555 1_555
Cu8_14 O11_9 1_555 1_555
C16_14 C18_14 1_555 1_555
Cu7_14 Cu8_14 1_555 1_555
C15_14 H4_14 1_555 1_555
C18_14 H5_14 1_555 1_555
C12_14 H8_14 1_555 1_555
O2_17 Cu5_3 1_555 1_555
O8_10 Cu5_3 1_555 1_555
C10_15 O8_10 1_555 1_555
C11_15 C10_15 1_555 1_555
C12_15 C11_15 1_555 1_555
O9_8 C10_15 1_555 1_555
C13_15 C12_15 1_555 1_555
C14_15 C13_15 1_555 1_555
O17_6 C14_15 1_555 1_555
O20_2 C14_15 1_555 1_555
C15_15 C13_15 1_555 1_555
C16_15 C15_15 1_555 1_555
C17_15 C16_15 1_555 1_555
O20_16 C17_15 1_555 1_555
O16_10 C17_15 1_555 1_555
C18_15 C11_15 1_555 1_555
O14_11 Cu5_3 1_555 1_555
O15_11 Cu6_3 1_555 1_555
O16_11 Cu5_3 1_555 1_555
O17_11 Cu6_3 1_555 1_555
O18_17 Cu6_3 1_555 1_555
O9_8 Cu6_3 1_555 1_555
C16_15 C18_15 1_555 1_555
C15_15 H4_15 1_555 1_555
C18_15 H5_15 1_555 1_555
C12_15 H8_15 1_555 1_555
O19_34 Cu8_14 1_555 1_555
O20_22 Cu8_14 1_555 1_555
O21_22 Cu8_14 1_555 1_555
O22_22 Cu8_14 1_555 1_555
C10_16 O15_6 1_555 1_555
C11_16 C10_16 1_555 1_555
C12_16 C11_16 1_555 1_555
O22_2 C10_16 1_555 1_555
C13_16 C12_16 1_555 1_555
C14_16 C13_16 1_555 1_555
O17_8 C14_16 1_555 1_555
O16_8 C14_16 1_555 1_555
C15_16 C13_16 1_555 1_555
C16_16 C15_16 1_555 1_555
C17_16 C16_16 1_555 1_555
O21_21 C17_16 1_555 1_555
O13_12 C17_16 1_555 1_555
C18_16 C11_16 1_555 1_555
Cu10_12 O13_12 1_555 1_555
C16_16 C18_16 1_555 1_555
C15_16 H4_16 1_555 1_555
C18_16 H5_16 1_555 1_555
C12_16 H8_16 1_555 1_555
C10_17 O22_16 1_555 1_555
C11_17 C10_17 1_555 1_555
C12_17 C11_17 1_555 1_555
O14_10 C10_17 1_555 1_555
C13_17 C12_17 1_555 1_555
C14_17 C13_17 1_555 1_555
O10_11 C14_17 1_555 1_555
O21_22 C14_17 1_555 1_555
C15_17 C13_17 1_555 1_555
C16_17 C15_17 1_555 1_555
C17_17 C16_17 1_555 1_555
O17 C17_17 1_555 1_555
O16 C17_17 1_555 1_555
C18_17 C11_17 1_555 1_555
Cu7_14 O10_11 1_555 1_555
C16_17 C18_17 1_555 1_555
C15_17 H4_17 1_555 1_555
C18_17 H5_17 1_555 1_555
C12_17 H8_17 1_555 1_555
C10_18 O15_9 1_555 1_555
C11_18 C10_18 1_555 1_555
C12_18 C11_18 1_555 1_555
O22_14 C10_18 1_555 1_555
C13_18 C12_18 1_555 1_555
C14_18 C13_18 1_555 1_555
O10_12 C14_18 1_555 1_555
O11_10 C14_18 1_555 1_555
C15_18 C13_18 1_555 1_555
C16_18 C15_18 1_555 1_555
C17_18 C16_18 1_555 1_555
O22_5 C17_18 1_555 1_555
O14_4 C17_18 1_555 1_555
C18_18 C11_18 1_555 1_555
Cu7_15 O10_12 1_555 1_555
Cu8_15 O11_10 1_555 1_555
C16_18 C18_18 1_555 1_555
Cu7_15 Cu8_15 1_555 1_555
C15_18 H4_18 1_555 1_555
C18_18 H5_18 1_555 1_555
C12_18 H8_18 1_555 1_555
O15_12 Cu10_12 1_555 1_555
O17_12 Cu10_12 1_555 1_555
O18_18 Cu10_12 1_555 1_555
O19_35 Cu8_15 1_555 1_555
O20_23 Cu8_15 1_555 1_555
O21_23 Cu8_15 1_555 1_555
O22_23 Cu8_15 1_555 1_555
O19_36 Cu7_15 1_555 1_555
O20_24 Cu7_15 1_555 1_555
O21_24 Cu7_15 1_555 1_555
O22_24 Cu7_15 1_555 1_555
O2_18 Cu7_14 1_555 1_555
O14_12 Cu7_14 1_555 1_555
O16_12 Cu7_14 1_555 1_555
O20_20 C1_4 1_555 1_555
C1_4 C2_4 1_555 1_555
C2_4 C3_4 1_555 1_555
C3_4 C4_4 1_555 1_555
O20_17 C1_4 1_555 1_555
C4_4 C5_4 1_555 1_555
C5_4 O20_8 1_555 1_555
O20_9 C5_4 1_555 1_555
C6_4 C4_4 1_555 1_555
C7_4 C6_4 1_555 1_555
C8_4 C7_4 1_555 1_555
O20_23 C8_4 1_555 1_555
O20_24 C8_4 1_555 1_555
C9_4 C2_4 1_555 1_555
C10_19 O22_20 1_555 1_555
C11_19 C10_19 1_555 1_555
C12_19 C11_19 1_555 1_555
O22_17 C10_19 1_555 1_555
C13_19 C12_19 1_555 1_555
C14_19 C13_19 1_555 1_555
O17_4 C14_19 1_555 1_555
O20_3 C14_19 1_555 1_555
C15_19 C13_19 1_555 1_555
C16_19 C15_19 1_555 1_555
C17_19 C16_19 1_555 1_555
O20_22 C17_19 1_555 1_555
O16_12 C17_19 1_555 1_555
C18_19 C11_19 1_555 1_555
C7_4 C9_4 1_555 1_555
C16_19 C18_19 1_555 1_555
C3_4 H3_4 1_555 1_555
C15_19 H4_19 1_555 1_555
C18_19 H5_19 1_555 1_555
C9_4 H6_4 1_555 1_555
C6_4 H7_4 1_555 1_555
C12_19 H8_19 1_555 1_555
C10_20 O22_8 1_555 1_555
C11_20 C10_20 1_555 1_555
C12_20 C11_20 1_555 1_555
O22_9 C10_20 1_555 1_555
C13_20 C12_20 1_555 1_555
C14_20 C13_20 1_555 1_555
O17_12 C14_20 1_555 1_555
O20_21 C14_20 1_555 1_555
C15_20 C13_20 1_555 1_555
C16_20 C15_20 1_555 1_555
C17_20 C16_20 1_555 1_555
O20_15 C17_20 1_555 1_555
O16_9 C17_20 1_555 1_555
C18_20 C11_20 1_555 1_555
C16_20 C18_20 1_555 1_555
C15_20 H4_20 1_555 1_555
C18_20 H5_20 1_555 1_555
C12_20 H8_20 1_555 1_555
C10_21 O22_23 1_555 1_555
C11_21 C10_21 1_555 1_555
C12_21 C11_21 1_555 1_555
O22_24 C10_21 1_555 1_555
C13_21 C12_21 1_555 1_555
C14_21 C13_21 1_555 1_555
O17_10 C14_21 1_555 1_555
O20_13 C14_21 1_555 1_555
C15_21 C13_21 1_555 1_555
C16_21 C15_21 1_555 1_555
C17_21 C16_21 1_555 1_555
O20_6 C17_21 1_555 1_555
O16_5 C17_21 1_555 1_555
C18_21 C11_21 1_555 1_555
C16_21 C18_21 1_555 1_555
C15_21 H4_21 1_555 1_555
C18_21 H5_21 1_555 1_555
C12_21 H8_21 1_555 1_555
C10_22 O15_10 1_555 1_555
C11_22 C10_22 1_555 1_555
C12_22 C11_22 1_555 1_555
O22_13 C10_22 1_555 1_555
C13_22 C12_22 1_555 1_555
C14_22 C13_22 1_555 1_555
O17_2 C14_22 1_555 1_555
O16_2 C14_22 1_555 1_555
C15_22 C13_22 1_555 1_555
C16_22 C15_22 1_555 1_555
C17_22 C16_22 1_555 1_555
O22_22 C17_22 1_555 1_555
O14_12 C17_22 1_555 1_555
C18_22 C11_22 1_555 1_555
C16_22 C18_22 1_555 1_555
C15_22 H4_22 1_555 1_555
C18_22 H5_22 1_555 1_555
C12_22 H8_22 1_555 1_555
C10_23 O22_6 1_555 1_555
C11_23 C10_23 1_555 1_555
C12_23 C11_23 1_555 1_555
O14_5 C10_23 1_555 1_555
C13_23 C12_23 1_555 1_555
C14_23 C13_23 1_555 1_555
O15_12 C14_23 1_555 1_555
O22_21 C14_23 1_555 1_555
C15_23 C13_23 1_555 1_555
C16_23 C15_23 1_555 1_555
C17_23 C16_23 1_555 1_555
O17_7 C17_23 1_555 1_555
O16_7 C17_23 1_555 1_555
C18_23 C11_23 1_555 1_555
C16_23 C18_23 1_555 1_555
C15_23 H4_23 1_555 1_555
C18_23 H5_23 1_555 1_555
C12_23 H8_23 1_555 1_555
C10_24 O15_4 1_555 1_555
C11_24 C10_24 1_555 1_555
C12_24 C11_24 1_555 1_555
O22_3 C10_24 1_555 1_555
C13_24 C12_24 1_555 1_555
C14_24 C13_24 1_555 1_555
O17_11 C14_24 1_555 1_555
O16_11 C14_24 1_555 1_555
C15_24 C13_24 1_555 1_555
C16_24 C15_24 1_555 1_555
C17_24 C16_24 1_555 1_555
O22_15 C17_24 1_555 1_555
O14_9 C17_24 1_555 1_555
C18_24 C11_24 1_555 1_555
C16_24 C18_24 1_555 1_555
C15_24 H4_24 1_555 1_555
C18_24 H5_24 1_555 1_555
C12_24 H8_24 1_555 1_555
O21_7 C1_5 1_555 1_555
C1_5 C2_5 1_555 1_555
C2_5 C3_5 1_555 1_555
C3_5 C4_5 1_555 1_555
O21_12 C1_5 1_555 1_555
C4_5 C5_5 1_555 1_555
C5_5 O21_9 1_555 1_555
O21_8 C5_5 1_555 1_555
C6_5 C4_5 1_555 1_555
C7_5 C6_5 1_555 1_555
C8_5 C7_5 1_555 1_555
O21_11 C8_5 1_555 1_555
O21_10 C8_5 1_555 1_555
C9_5 C2_5 1_555 1_555
C7_5 C9_5 1_555 1_555
C3_5 H3_5 1_555 1_555
C9_5 H6_5 1_555 1_555
C6_5 H7_5 1_555 1_555
O21_17 C1_6 1_555 1_555
C1_6 C2_6 1_555 1_555
C2_6 C3_6 1_555 1_555
C3_6 C4_6 1_555 1_555
O21_20 C1_6 1_555 1_555
C4_6 C5_6 1_555 1_555
C5_6 O21_19 1_555 1_555
O21_18 C5_6 1_555 1_555
C6_6 C4_6 1_555 1_555
C7_6 C6_6 1_555 1_555
C8_6 C7_6 1_555 1_555
O15_3 C8_6 1_555 1_555
O14_3 C8_6 1_555 1_555
C9_6 C2_6 1_555 1_555
C7_6 C9_6 1_555 1_555
C3_6 H3_6 1_555 1_555
C9_6 H6_6 1_555 1_555
C6_6 H7_6 1_555 1_555
O15 C1_7 1_555 1_555
C1_7 C2_7 1_555 1_555
C2_7 C3_7 1_555 1_555
C3_7 C4_7 1_555 1_555
O14 C1_7 1_555 1_555
C4_7 C5_7 1_555 1_555
C5_7 O15_8 1_555 1_555
O14_8 C5_7 1_555 1_555
C6_7 C4_7 1_555 1_555
C7_7 C6_7 1_555 1_555
C8_7 C7_7 1_555 1_555
O21_24 C8_7 1_555 1_555
O21_23 C8_7 1_555 1_555
C9_7 C2_7 1_555 1_555
C7_7 C9_7 1_555 1_555
C3_7 H3_7 1_555 1_555
C9_7 H6_7 1_555 1_555
C6_7 H7_7 1_555 1_555
O15_7 C1_8 1_555 1_555
C1_8 C2_8 1_555 1_555
C2_8 C3_8 1_555 1_555
C3_8 C4_8 1_555 1_555
O14_7 C1_8 1_555 1_555
C4_8 C5_8 1_555 1_555
C5_8 O15_2 1_555 1_555
O14_2 C5_8 1_555 1_555
C6_8 C4_8 1_555 1_555
C7_8 C6_8 1_555 1_555
C8_8 C7_8 1_555 1_555
O15_11 C8_8 1_555 1_555
O14_11 C8_8 1_555 1_555
C9_8 C2_8 1_555 1_555
C7_8 C9_8 1_555 1_555
C3_8 H3_8 1_555 1_555
C9_8 H6_8 1_555 1_555
C6_8 H7_8 1_555 1_555
N1 C19 1_555 1_555
C20 N1 1_555 1_555
C21 N1 1_555 1_555
C22 N1 1_555 1_555
C22 H9 1_555 1_555
C22 H10 1_555 1_555
C22 H11 1_555 1_555
C19 H12 1_555 1_555
C19 H13 1_555 1_555
C19 H14 1_555 1_555
C21 H17 1_555 1_555
C21 H18 1_555 1_555
C21 H19 1_555 1_555
C20 H20 1_555 1_555
C20 H21 1_555 1_555
C20 H22 1_555 1_555
C22 H9_2 1_555 1_555
C22 H11_2 1_555 1_555
C20 H9_3 1_555 1_555
N1_2 C19_2 1_555 1_555
C20_2 N1_2 1_555 1_555
C21_2 N1_2 1_555 1_555
C22_2 N1_2 1_555 1_555
C22_2 H9_4 1_555 1_555
C22_2 H10_2 1_555 1_555
C22_2 H11_3 1_555 1_555
C19_2 H12_2 1_555 1_555
C19_2 H13_2 1_555 1_555
C19_2 H14_2 1_555 1_555
C21_2 H17_2 1_555 1_555
C21_2 H18_2 1_555 1_555
C21_2 H19_2 1_555 1_555
C20_2 H20_2 1_555 1_555
C20_2 H21_2 1_555 1_555
C20_2 H22_2 1_555 1_555
C20_2 H9_5 1_555 1_555
C22_2 H22_3 1_555 1_555
C22_2 H9_6 1_555 1_555
N1_3 C19_3 1_555 1_555
C20_3 N1_3 1_555 1_555
C21_3 N1_3 1_555 1_555
C22_3 N1_3 1_555 1_555
C22_3 H9_7 1_555 1_555
C22_3 H10_3 1_555 1_555
C22_3 H11_4 1_555 1_555
C19_3 H12_3 1_555 1_555
C19_3 H13_3 1_555 1_555
C19_3 H14_3 1_555 1_555
C21_3 H17_3 1_555 1_555
C21_3 H18_3 1_555 1_555
C21_3 H19_3 1_555 1_555
C20_3 H20_3 1_555 1_555
C20_3 H21_3 1_555 1_555
C20_3 H22_4 1_555 1_555
C22_3 H9_8 1_555 1_555
C22_3 H11_5 1_555 1_555
C20_3 H9_9 1_555 1_555
N1_4 C19_4 1_555 1_555
C20_4 N1_4 1_555 1_555
C21_4 N1_4 1_555 1_555
C22_4 N1_4 1_555 1_555
C22_4 H9_10 1_555 1_555
C22_4 H10_4 1_555 1_555
C22_4 H11_6 1_555 1_555
C19_4 H12_4 1_555 1_555
C19_4 H13_4 1_555 1_555
C19_4 H14_4 1_555 1_555
C21_4 H17_4 1_555 1_555
C21_4 H18_4 1_555 1_555
C21_4 H19_4 1_555 1_555
C20_4 H20_4 1_555 1_555
C20_4 H21_4 1_555 1_555
C20_4 H22_5 1_555 1_555
C22_4 H9_11 1_555 1_555
C22_4 H11_7 1_555 1_555
C20_4 H9_12 1_555 1_555
N1_5 C19_5 1_555 1_555
C20_5 N1_5 1_555 1_555
C21_5 N1_5 1_555 1_555
C22_5 N1_5 1_555 1_555
C22_5 H9_13 1_555 1_555
C22_5 H10_5 1_555 1_555
C22_5 H11_8 1_555 1_555
C19_5 H12_5 1_555 1_555
C19_5 H13_5 1_555 1_555
C19_5 H14_5 1_555 1_555
C21_5 H17_5 1_555 1_555
C21_5 H18_5 1_555 1_555
C21_5 H19_5 1_555 1_555
C20_5 H20_5 1_555 1_555
C20_5 H21_5 1_555 1_555
C20_5 H22_6 1_555 1_555
C22_5 H9_14 1_555 1_555
C22_5 H11_9 1_555 1_555
C20_5 H9_15 1_555 1_555
N1_6 C19_6 1_555 1_555
C20_6 N1_6 1_555 1_555
C21_6 N1_6 1_555 1_555
C22_6 N1_6 1_555 1_555
C22_6 H9_16 1_555 1_555
C22_6 H10_6 1_555 1_555
C22_6 H11_10 1_555 1_555
C19_6 H12_6 1_555 1_555
C19_6 H13_6 1_555 1_555
C19_6 H14_6 1_555 1_555
C21_6 H17_6 1_555 1_555
C21_6 H18_6 1_555 1_555
C21_6 H19_6 1_555 1_555
C20_6 H20_6 1_555 1_555
C20_6 H21_6 1_555 1_555
C20_6 H22_7 1_555 1_555
C20_6 H9_17 1_555 1_555
C22_6 H22_8 1_555 1_555
C22_6 H9_18 1_555 1_555
N1_7 C19_7 1_555 1_555
C20_7 N1_7 1_555 1_555
C21_7 N1_7 1_555 1_555
C22_7 N1_7 1_555 1_555
C22_7 H9_19 1_555 1_555
C22_7 H10_7 1_555 1_555
C22_7 H11_11 1_555 1_555
C19_7 H12_7 1_555 1_555
C19_7 H13_7 1_555 1_555
C19_7 H14_7 1_555 1_555
C21_7 H17_7 1_555 1_555
C21_7 H18_7 1_555 1_555
C21_7 H19_7 1_555 1_555
C20_7 H20_7 1_555 1_555
C20_7 H21_7 1_555 1_555
C20_7 H22_9 1_555 1_555
C20_7 H9_20 1_555 1_555
C22_7 H22_10 1_555 1_555
C22_7 H9_21 1_555 1_555
N1_8 C19_8 1_555 1_555
C20_8 N1_8 1_555 1_555
C21_8 N1_8 1_555 1_555
C22_8 N1_8 1_555 1_555
C22_8 H9_22 1_555 1_555
C22_8 H10_8 1_555 1_555
C22_8 H11_12 1_555 1_555
C19_8 H12_8 1_555 1_555
C19_8 H13_8 1_555 1_555
C19_8 H14_8 1_555 1_555
C21_8 H17_8 1_555 1_555
C21_8 H18_8 1_555 1_555
C21_8 H19_8 1_555 1_555
C20_8 H20_8 1_555 1_555
C20_8 H21_8 1_555 1_555
C20_8 H22_11 1_555 1_555
C20_8 H9_23 1_555 1_555
C22_8 H22_12 1_555 1_555
C22_8 H9_24 1_555 1_555
N1_9 C19_9 1_555 1_555
C20_9 N1_9 1_555 1_555
C21_9 N1_9 1_555 1_555
C22_9 N1_9 1_555 1_555
C22_9 H9_25 1_555 1_555
C22_9 H10_9 1_555 1_555
C22_9 H11_13 1_555 1_555
C19_9 H12_9 1_555 1_555
C19_9 H13_9 1_555 1_555
C19_9 H14_9 1_555 1_555
C21_9 H17_9 1_555 1_555
C21_9 H18_9 1_555 1_555
C21_9 H19_9 1_555 1_555
C20_9 H20_9 1_555 1_555
C20_9 H21_9 1_555 1_555
C20_9 H22_13 1_555 1_555
C22_9 H9_26 1_555 1_555
C22_9 H11_14 1_555 1_555
C20_9 H9_27 1_555 1_555
N1_10 C19_10 1_555 1_555
C20_10 N1_10 1_555 1_555
C21_10 N1_10 1_555 1_555
C22_10 N1_10 1_555 1_555
C22_10 H9_28 1_555 1_555
C22_10 H10_10 1_555 1_555
C22_10 H11_15 1_555 1_555
C19_10 H12_10 1_555 1_555
C19_10 H13_10 1_555 1_555
C19_10 H14_10 1_555 1_555
C21_10 H17_10 1_555 1_555
C21_10 H18_10 1_555 1_555
C21_10 H19_10 1_555 1_555
C20_10 H20_10 1_555 1_555
C20_10 H21_10 1_555 1_555
C20_10 H22_14 1_555 1_555
C22_10 H9_29 1_555 1_555
C22_10 H11_16 1_555 1_555
C20_10 H9_30 1_555 1_555
N1_11 C19_11 1_555 1_555
C20_11 N1_11 1_555 1_555
C21_11 N1_11 1_555 1_555
C22_11 N1_11 1_555 1_555
C22_11 H9_31 1_555 1_555
C22_11 H10_11 1_555 1_555
C22_11 H11_17 1_555 1_555
C19_11 H12_11 1_555 1_555
C19_11 H13_11 1_555 1_555
C19_11 H14_11 1_555 1_555
C21_11 H17_11 1_555 1_555
C21_11 H18_11 1_555 1_555
C21_11 H19_11 1_555 1_555
C20_11 H20_11 1_555 1_555
C20_11 H21_11 1_555 1_555
C20_11 H22_15 1_555 1_555
C20_11 H9_32 1_555 1_555
C22_11 H22_16 1_555 1_555
C22_11 H9_33 1_555 1_555
N1_12 C19_12 1_555 1_555
C20_12 N1_12 1_555 1_555
C21_12 N1_12 1_555 1_555
C22_12 N1_12 1_555 1_555
C22_12 H9_34 1_555 1_555
C22_12 H10_12 1_555 1_555
C22_12 H11_18 1_555 1_555
C19_12 H12_12 1_555 1_555
C19_12 H13_12 1_555 1_555
C19_12 H14_12 1_555 1_555
C21_12 H17_12 1_555 1_555
C21_12 H18_12 1_555 1_555
C21_12 H19_12 1_555 1_555
C20_12 H20_12 1_555 1_555
C20_12 H21_12 1_555 1_555
C20_12 H22_17 1_555 1_555
C22_12 H9_35 1_555 1_555
C22_12 H11_19 1_555 1_555
C20_12 H9_36 1_555 1_555
N1_13 C19_13 1_555 1_555
C20_13 N1_13 1_555 1_555
C21_13 N1_13 1_555 1_555
C22_13 N1_13 1_555 1_555
C22_13 H9_37 1_555 1_555
C22_13 H10_13 1_555 1_555
C22_13 H11_20 1_555 1_555
C19_13 H12_13 1_555 1_555
C19_13 H13_13 1_555 1_555
C19_13 H14_13 1_555 1_555
C21_13 H17_13 1_555 1_555
C21_13 H18_13 1_555 1_555
C21_13 H19_13 1_555 1_555
C20_13 H20_13 1_555 1_555
C20_13 H21_13 1_555 1_555
C20_13 H22_18 1_555 1_555
C20_13 H9_38 1_555 1_555
C22_13 H22_19 1_555 1_555
C22_13 H9_39 1_555 1_555
N1_14 C19_14 1_555 1_555
C20_14 N1_14 1_555 1_555
C21_14 N1_14 1_555 1_555
C22_14 N1_14 1_555 1_555
C22_14 H9_40 1_555 1_555
C22_14 H10_14 1_555 1_555
C22_14 H11_21 1_555 1_555
C19_14 H12_14 1_555 1_555
C19_14 H13_14 1_555 1_555
C19_14 H14_14 1_555 1_555
C21_14 H17_14 1_555 1_555
C21_14 H18_14 1_555 1_555
C21_14 H19_14 1_555 1_555
C20_14 H20_14 1_555 1_555
C20_14 H21_14 1_555 1_555
C20_14 H22_20 1_555 1_555
C20_14 H9_41 1_555 1_555
C22_14 H22_21 1_555 1_555
C22_14 H9_42 1_555 1_555
N1_15 C19_15 1_555 1_555
C20_15 N1_15 1_555 1_555
C21_15 N1_15 1_555 1_555
C22_15 N1_15 1_555 1_555
C22_15 H9_43 1_555 1_555
C22_15 H10_15 1_555 1_555
C22_15 H11_22 1_555 1_555
C19_15 H12_15 1_555 1_555
C19_15 H13_15 1_555 1_555
C19_15 H14_15 1_555 1_555
C21_15 H17_15 1_555 1_555
C21_15 H18_15 1_555 1_555
C21_15 H19_15 1_555 1_555
C20_15 H20_15 1_555 1_555
C20_15 H21_15 1_555 1_555
C20_15 H22_22 1_555 1_555
C22_15 H9_44 1_555 1_555
C22_15 H11_23 1_555 1_555
C20_15 H9_45 1_555 1_555
N1_16 C19_16 1_555 1_555
C20_16 N1_16 1_555 1_555
C21_16 N1_16 1_555 1_555
C22_16 N1_16 1_555 1_555
C22_16 H9_46 1_555 1_555
C22_16 H10_16 1_555 1_555
C22_16 H11_24 1_555 1_555
C19_16 H12_16 1_555 1_555
C19_16 H13_16 1_555 1_555
C19_16 H14_16 1_555 1_555
C21_16 H17_16 1_555 1_555
C21_16 H18_16 1_555 1_555
C21_16 H19_16 1_555 1_555
C20_16 H20_16 1_555 1_555
C20_16 H21_16 1_555 1_555
C20_16 H22_23 1_555 1_555
C20_16 H9_47 1_555 1_555
C22_16 H22_24 1_555 1_555
C22_16 H9_48 1_555 1_555
N1_17 C19_17 1_555 1_555
C20_17 N1_17 1_555 1_555
C21_17 N1_17 1_555 1_555
C22_17 N1_17 1_555 1_555
C22_17 H9_49 1_555 1_555
C22_17 H10_17 1_555 1_555
C22_17 H11_25 1_555 1_555
C19_17 H12_17 1_555 1_555
C19_17 H13_17 1_555 1_555
C19_17 H14_17 1_555 1_555
C21_17 H17_17 1_555 1_555
C21_17 H18_17 1_555 1_555
C21_17 H19_17 1_555 1_555
C20_17 H20_17 1_555 1_555
C20_17 H21_17 1_555 1_555
C20_17 H22_25 1_555 1_555
C22_17 H9_50 1_555 1_555
C22_17 H11_26 1_555 1_555
C20_17 H9_51 1_555 1_555
N1_18 C19_18 1_555 1_555
C20_18 N1_18 1_555 1_555
C21_18 N1_18 1_555 1_555
C22_18 N1_18 1_555 1_555
C22_18 H9_52 1_555 1_555
C22_18 H10_18 1_555 1_555
C22_18 H11_27 1_555 1_555
C19_18 H12_18 1_555 1_555
C19_18 H13_18 1_555 1_555
C19_18 H14_18 1_555 1_555
C21_18 H17_18 1_555 1_555
C21_18 H18_18 1_555 1_555
C21_18 H19_18 1_555 1_555
C20_18 H20_18 1_555 1_555
C20_18 H21_18 1_555 1_555
C20_18 H22_26 1_555 1_555
C20_18 H9_53 1_555 1_555
C22_18 H22_27 1_555 1_555
C22_18 H9_54 1_555 1_555
N1_19 C19_19 1_555 1_555
C20_19 N1_19 1_555 1_555
C21_19 N1_19 1_555 1_555
C22_19 N1_19 1_555 1_555
C22_19 H9_55 1_555 1_555
C22_19 H10_19 1_555 1_555
C22_19 H11_28 1_555 1_555
C19_19 H12_19 1_555 1_555
C19_19 H13_19 1_555 1_555
C19_19 H14_19 1_555 1_555
C21_19 H17_19 1_555 1_555
C21_19 H18_19 1_555 1_555
C21_19 H19_19 1_555 1_555
C20_19 H20_19 1_555 1_555
C20_19 H21_19 1_555 1_555
C20_19 H22_28 1_555 1_555
C20_19 H9_56 1_555 1_555
C22_19 H22_29 1_555 1_555
C22_19 H9_57 1_555 1_555
N1_20 C19_20 1_555 1_555
C20_20 N1_20 1_555 1_555
C21_20 N1_20 1_555 1_555
C22_20 N1_20 1_555 1_555
C22_20 H9_58 1_555 1_555
C22_20 H10_20 1_555 1_555
C22_20 H11_29 1_555 1_555
C19_20 H12_20 1_555 1_555
C19_20 H13_20 1_555 1_555
C19_20 H14_20 1_555 1_555
C21_20 H17_20 1_555 1_555
C21_20 H18_20 1_555 1_555
C21_20 H19_20 1_555 1_555
C20_20 H20_20 1_555 1_555
C20_20 H21_20 1_555 1_555
C20_20 H22_30 1_555 1_555
C22_20 H9_59 1_555 1_555
C22_20 H11_30 1_555 1_555
C20_20 H9_60 1_555 1_555
N1_21 C19_21 1_555 1_555
C20_21 N1_21 1_555 1_555
C21_21 N1_21 1_555 1_555
C22_21 N1_21 1_555 1_555
C22_21 H9_61 1_555 1_555
C22_21 H10_21 1_555 1_555
C22_21 H11_31 1_555 1_555
C19_21 H12_21 1_555 1_555
C19_21 H13_21 1_555 1_555
C19_21 H14_21 1_555 1_555
C21_21 H17_21 1_555 1_555
C21_21 H18_21 1_555 1_555
C21_21 H19_21 1_555 1_555
C20_21 H20_21 1_555 1_555
C20_21 H21_21 1_555 1_555
C20_21 H22_31 1_555 1_555
C22_21 H9_62 1_555 1_555
C22_21 H11_32 1_555 1_555
C20_21 H9_63 1_555 1_555
N1_22 C19_22 1_555 1_555
C20_22 N1_22 1_555 1_555
C21_22 N1_22 1_555 1_555
C22_22 N1_22 1_555 1_555
C22_22 H9_64 1_555 1_555
C22_22 H10_22 1_555 1_555
C22_22 H11_33 1_555 1_555
C19_22 H12_22 1_555 1_555
C19_22 H13_22 1_555 1_555
C19_22 H14_22 1_555 1_555
C21_22 H17_22 1_555 1_555
C21_22 H18_22 1_555 1_555
C21_22 H19_22 1_555 1_555
C20_22 H20_22 1_555 1_555
C20_22 H21_22 1_555 1_555
C20_22 H22_32 1_555 1_555
C22_22 H9_65 1_555 1_555
C22_22 H11_34 1_555 1_555
C20_22 H9_66 1_555 1_555
N1_23 C19_23 1_555 1_555
C20_23 N1_23 1_555 1_555
C21_23 N1_23 1_555 1_555
C22_23 N1_23 1_555 1_555
C22_23 H9_67 1_555 1_555
C22_23 H10_23 1_555 1_555
C22_23 H11_35 1_555 1_555
C19_23 H12_23 1_555 1_555
C19_23 H13_23 1_555 1_555
C19_23 H14_23 1_555 1_555
C21_23 H17_23 1_555 1_555
C21_23 H18_23 1_555 1_555
C21_23 H19_23 1_555 1_555
C20_23 H20_23 1_555 1_555
C20_23 H21_23 1_555 1_555
C20_23 H22_33 1_555 1_555
C20_23 H9_68 1_555 1_555
C22_23 H22_34 1_555 1_555
C22_23 H9_69 1_555 1_555
N1_24 C19_24 1_555 1_555
C20_24 N1_24 1_555 1_555
C21_24 N1_24 1_555 1_555
C22_24 N1_24 1_555 1_555
C22_24 H9_70 1_555 1_555
C22_24 H10_24 1_555 1_555
C22_24 H11_36 1_555 1_555
C19_24 H12_24 1_555 1_555
C19_24 H13_24 1_555 1_555
C19_24 H14_24 1_555 1_555
C21_24 H17_24 1_555 1_555
C21_24 H18_24 1_555 1_555
C21_24 H19_24 1_555 1_555
C20_24 H20_24 1_555 1_555
C20_24 H21_24 1_555 1_555
C20_24 H22_35 1_555 1_555
C22_24 H9_71 1_555 1_555
C22_24 H11_37 1_555 1_555
C20_24 H9_72 1_555 1_555
N1_25 C19_25 1_555 1_555
C20_25 N1_25 1_555 1_555
C21_25 N1_25 1_555 1_555
C22_25 N1_25 1_555 1_555
C22_25 H9_73 1_555 1_555
C22_25 H10_25 1_555 1_555
C22_25 H11_38 1_555 1_555
C19_25 H12_25 1_555 1_555
C19_25 H13_25 1_555 1_555
C19_25 H14_25 1_555 1_555
C21_25 H17_25 1_555 1_555
C21_25 H18_25 1_555 1_555
C21_25 H19_25 1_555 1_555
C20_25 H20_25 1_555 1_555
C20_25 H21_25 1_555 1_555
C20_25 H22_36 1_555 1_555
C20_25 H9_74 1_555 1_555
C22_25 H22_37 1_555 1_555
C22_25 H9_75 1_555 1_555
N1_26 C19_26 1_555 1_555
C20_26 N1_26 1_555 1_555
C21_26 N1_26 1_555 1_555
C22_26 N1_26 1_555 1_555
C22_26 H9_76 1_555 1_555
C22_26 H10_26 1_555 1_555
C22_26 H11_39 1_555 1_555
C19_26 H12_26 1_555 1_555
C19_26 H13_26 1_555 1_555
C19_26 H14_26 1_555 1_555
C21_26 H17_26 1_555 1_555
C21_26 H18_26 1_555 1_555
C21_26 H19_26 1_555 1_555
C20_26 H20_26 1_555 1_555
C20_26 H21_26 1_555 1_555
C20_26 H22_38 1_555 1_555
C20_26 H9_77 1_555 1_555
C22_26 H22_39 1_555 1_555
C22_26 H9_78 1_555 1_555
N1_27 C19_27 1_555 1_555
C20_27 N1_27 1_555 1_555
C21_27 N1_27 1_555 1_555
C22_27 N1_27 1_555 1_555
C22_27 H9_79 1_555 1_555
C22_27 H10_27 1_555 1_555
C22_27 H11_40 1_555 1_555
C19_27 H12_27 1_555 1_555
C19_27 H13_27 1_555 1_555
C19_27 H14_27 1_555 1_555
C21_27 H17_27 1_555 1_555
C21_27 H18_27 1_555 1_555
C21_27 H19_27 1_555 1_555
C20_27 H20_27 1_555 1_555
C20_27 H21_27 1_555 1_555
C20_27 H22_40 1_555 1_555
C22_27 H9_80 1_555 1_555
C22_27 H11_41 1_555 1_555
C20_27 H9_81 1_555 1_555
N1_28 C19_28 1_555 1_555
C20_28 N1_28 1_555 1_555
C21_28 N1_28 1_555 1_555
C22_28 N1_28 1_555 1_555
C22_28 H9_82 1_555 1_555
C22_28 H10_28 1_555 1_555
C22_28 H11_42 1_555 1_555
C19_28 H12_28 1_555 1_555
C19_28 H13_28 1_555 1_555
C19_28 H14_28 1_555 1_555
C21_28 H17_28 1_555 1_555
C21_28 H18_28 1_555 1_555
C21_28 H19_28 1_555 1_555
C20_28 H20_28 1_555 1_555
C20_28 H21_28 1_555 1_555
C20_28 H22_41 1_555 1_555
C20_28 H9_83 1_555 1_555
C22_28 H22_42 1_555 1_555
C22_28 H9_84 1_555 1_555
N1_29 C19_29 1_555 1_555
C20_29 N1_29 1_555 1_555
C21_29 N1_29 1_555 1_555
C22_29 N1_29 1_555 1_555
C22_29 H9_85 1_555 1_555
C22_29 H10_29 1_555 1_555
C22_29 H11_43 1_555 1_555
C19_29 H12_29 1_555 1_555
C19_29 H13_29 1_555 1_555
C19_29 H14_29 1_555 1_555
C21_29 H17_29 1_555 1_555
C21_29 H18_29 1_555 1_555
C21_29 H19_29 1_555 1_555
C20_29 H20_29 1_555 1_555
C20_29 H21_29 1_555 1_555
C20_29 H22_43 1_555 1_555
C22_29 H9_86 1_555 1_555
C22_29 H11_44 1_555 1_555
C20_29 H9_87 1_555 1_555
N1_30 C19_30 1_555 1_555
C20_30 N1_30 1_555 1_555
C21_30 N1_30 1_555 1_555
C22_30 N1_30 1_555 1_555
C22_30 H9_88 1_555 1_555
C22_30 H10_30 1_555 1_555
C22_30 H11_45 1_555 1_555
C19_30 H12_30 1_555 1_555
C19_30 H13_30 1_555 1_555
C19_30 H14_30 1_555 1_555
C21_30 H17_30 1_555 1_555
C21_30 H18_30 1_555 1_555
C21_30 H19_30 1_555 1_555
C20_30 H20_30 1_555 1_555
C20_30 H21_30 1_555 1_555
C20_30 H22_44 1_555 1_555
C20_30 H9_89 1_555 1_555
C22_30 H22_45 1_555 1_555
C22_30 H9_90 1_555 1_555
N1_31 C19_31 1_555 1_555
C20_31 N1_31 1_555 1_555
C21_31 N1_31 1_555 1_555
C22_31 N1_31 1_555 1_555
C22_31 H9_91 1_555 1_555
C22_31 H10_31 1_555 1_555
C22_31 H11_46 1_555 1_555
C19_31 H12_31 1_555 1_555
C19_31 H13_31 1_555 1_555
C19_31 H14_31 1_555 1_555
C21_31 H17_31 1_555 1_555
C21_31 H18_31 1_555 1_555
C21_31 H19_31 1_555 1_555
C20_31 H20_31 1_555 1_555
C20_31 H21_31 1_555 1_555
C20_31 H22_46 1_555 1_555
C22_31 H9_92 1_555 1_555
C22_31 H11_47 1_555 1_555
C20_31 H9_93 1_555 1_555
N1_32 C19_32 1_555 1_555
C20_32 N1_32 1_555 1_555
C21_32 N1_32 1_555 1_555
C22_32 N1_32 1_555 1_555
C22_32 H9_94 1_555 1_555
C22_32 H10_32 1_555 1_555
C22_32 H11_48 1_555 1_555
C19_32 H12_32 1_555 1_555
C19_32 H13_32 1_555 1_555
C19_32 H14_32 1_555 1_555
C21_32 H17_32 1_555 1_555
C21_32 H18_32 1_555 1_555
C21_32 H19_32 1_555 1_555
C20_32 H20_32 1_555 1_555
C20_32 H21_32 1_555 1_555
C20_32 H22_47 1_555 1_555
C20_32 H9_95 1_555 1_555
C22_32 H22_48 1_555 1_555
C22_32 H9_96 1_555 1_555

#END
