
###############################################################################
#
# This file contains modified crystal structure data generated from the
# MOF subset of the Cambridge Structural Database (CSD) v543 
# hosted by the Cambridge Crystallographic Data Centre (CCDC).
#
# This work is licensed under the Creative Commons
# Attribution-NonCommercial-ShareAlike 4.0 International License.
# To view a copy of this license, visit
# http://creativecommons.org/licenses/by-nc-sa/4.0/
# or send a letter to
# Creative Commons, PO Box 1866, Mountain View, CA 94042, USA.
#
# CIF created using the CSD Python API on 29 September 2022
# The structure has been converted into the P1 space group
# The structure has a 3D framework
# The original CSD entry IKETUN is in the cubic crystal system
# The framework has been calculated to contain at least 10.0% void space
# The void calculation uses a probe of radius 1.32A, grid spacing 0.4
# H atom positions have been added when not included in the experimental data
# Generated hydrogen atom positions removed from atoms on special positions
#
###############################################################################

data_IKETUN
_chemical_formula_moiety         '(C288 H672 Cu72 O264)n'
_symmetry_cell_setting           triclinic
_symmetry_space_group_name_H-M   'P 1'
_symmetry_Int_Tables_number      1
_space_group_name_Hall           'P 1'
loop_
_symmetry_equiv_pos_site_id
_symmetry_equiv_pos_as_xyz
1 x,y,z
_cell_length_a                   26.353(1)
_cell_length_b                   26.353(1)
_cell_length_c                   26.353(1)
_cell_angle_alpha                90
_cell_angle_beta                 90
_cell_angle_gamma                90
_cell_volume                     18301.6
loop_
_atom_site_label
_atom_site_type_symbol
_atom_site_fract_x
_atom_site_fract_y
_atom_site_fract_z
Cu1 Cu 0.28499(5) 0.0000 0.2150
O1 O 0.2435(2) 0.0513(2) 0.1834(2)
O2 O 0.3446(4) 0.0000 0.1554
C1 C 0.2027(3) 0.0677(4) 0.2027
C2 C 0.1759(3) 0.1119(4) 0.1759
C3 C 0.1988(5) 0.1329(3) 0.1329
O3 O 0.1834(2) 0.0513(2) 0.2435(2)
C4 C 0.1759 0.1759(3) 0.1119(4)
C5 C 0.2027 0.2027(3) 0.0677(4)
O4 O 0.1834(2) 0.2435(2) 0.0513(2)
O5 O 0.2435(2) 0.1834(2) 0.0513(2)
C6 C 0.1329 0.1988(5) 0.1329(3)
C7 C 0.1119(4) 0.1759 0.1759(3)
C8 C 0.0677(4) 0.2027 0.2027(3)
O6 O 0.0513(2) 0.1834(2) 0.2435(2)
O7 O 0.0513(2) 0.2435(2) 0.1834(2)
C9 C 0.1329(3) 0.1329 0.1988(5)
O16 O 0.3166(2) 0.0513(2) 0.2565(2)
O17 O 0.2565(2) 0.0513(2) 0.3166(2)
Cu2 Cu 0.2150 0.0000 0.28499(5)
Cu3 Cu 0.2150 0.28499(5) 0.0000
Cu4 Cu 0.28499(5) 0.2150 0.0000
Cu5 Cu 0.0000 0.2150 0.28499(5)
Cu6 Cu 0.0000 0.28499(5) 0.2150
O18 O 0.1554 0.0000 0.3446(4)
H1 H 0.116481 0.232982 0.116481
H4 H 0.232982 0.116481 0.116481
H8 H 0.116481 0.116481 0.232982
Cu3_2 Cu 0.2150 0.28499(5) 1.0000
Cu4_2 Cu 0.28499(5) 0.2150 1.0000
Cu1_2 Cu 0.28499(5) 1.0000 0.2150
O2_2 O 0.3446(4) 1.0000 0.1554
O8 O 0.2435(2) 0.9487(2) 0.1834(2)
C10 C 0.2027(3) 0.9323(4) 0.2027
C11 C 0.1759(3) 0.8881(4) 0.1759
C12 C 0.1988(5) 0.8671(3) 0.1329
O9 O 0.1834(2) 0.9487(2) 0.2435(2)
C13 C 0.1759 0.8241(3) 0.1119(4)
C14 C 0.2027 0.7973(3) 0.0677(4)
O10 O 0.1834(2) 0.7565(2) 0.0513(2)
O11 O 0.2435(2) 0.8166(2) 0.0513(2)
C15 C 0.1329 0.8012(5) 0.1329(3)
C16 C 0.1119(4) 0.8241 0.1759(3)
C17 C 0.0677(4) 0.7973 0.2027(3)
O12 O 0.0513(2) 0.8166(2) 0.2435(2)
O13 O 0.0513(2) 0.7565(2) 0.1834(2)
C18 C 0.1329(3) 0.8671 0.1988(5)
O14 O 0.3166(2) 0.9487(2) 0.2565(2)
O15 O 0.2565(2) 0.9487(2) 0.3166(2)
Cu2_2 Cu 0.2150 1.0000 0.28499(5)
Cu7 Cu 0.2150 0.71501(5) 0.0000
Cu8 Cu 0.28499(5) 0.7850 0.0000
Cu9 Cu 0.0000 0.7850 0.28499(5)
Cu10 Cu 0.0000 0.71501(5) 0.2150
O18_2 O 0.1554 1.0000 0.3446(4)
O19 O 0.0000 0.8446 0.3446(4)
O20 O 0.0513(2) 0.7435(2) 0.3166(2)
H5 H 0.116481 0.883519 0.232982
H9 H 0.232982 0.883519 0.116481
H10 H 0.116481 0.767018 0.116481
Cu7_2 Cu 0.2150 0.71501(5) 1.0000
Cu8_2 Cu 0.28499(5) 0.7850 1.0000
Cu5_2 Cu 1.0000 0.2150 0.28499(5)
Cu6_2 Cu 1.0000 0.28499(5) 0.2150
Cu9_2 Cu 1.0000 0.7850 0.28499(5)
Cu10_2 Cu 1.0000 0.71501(5) 0.2150
O19_2 O 1.0000 0.8446 0.3446(4)
O21 O 0.9487(2) 0.8166(2) 0.2435(2)
O22 O 0.9487(2) 0.7435(2) 0.3166(2)
O2_3 O 0.1554 0.3446(4) 0.0000
O16_2 O 0.2565(2) 0.3166(2) 0.0513(2)
O17_2 O 0.3166(2) 0.2565(2) 0.0513(2)
O18_3 O 0.3446(4) 0.1554 0.0000
O2_4 O 0.1554 0.3446(4) 1.0000
O8_2 O 0.1834(2) 0.2435(2) 0.9487(2)
C10_2 C 0.2027 0.2027(3) 0.9323(4)
C11_2 C 0.1759 0.1759(3) 0.8881(4)
C12_2 C 0.1329 0.1988(5) 0.8671(3)
O9_2 O 0.2435(2) 0.1834(2) 0.9487(2)
C13_2 C 0.1119(4) 0.1759 0.8241(3)
C14_2 C 0.0677(4) 0.2027 0.7973(3)
O10_2 O 0.0513(2) 0.1834(2) 0.7565(2)
O11_2 O 0.0513(2) 0.2435(2) 0.8166(2)
C15_2 C 0.1329(3) 0.1329 0.8012(5)
C16_2 C 0.1759(3) 0.1119(4) 0.8241
C17_2 C 0.2027(3) 0.0677(4) 0.7973
O12_2 O 0.2435(2) 0.0513(2) 0.8166(2)
O13_2 O 0.1834(2) 0.0513(2) 0.7565(2)
C18_2 C 0.1988(5) 0.1329(3) 0.8671
O14_2 O 0.2565(2) 0.3166(2) 0.9487(2)
O15_2 O 0.3166(2) 0.2565(2) 0.9487(2)
Cu7_3 Cu 0.0000 0.2150 0.71501(5)
Cu8_3 Cu -0.0000 0.28499(5) 0.7850
Cu9_3 Cu 0.28499(5) 0.0000 0.7850
Cu10_3 Cu 0.2150 0.0000 0.71501(5)
O18_4 O 0.3446(4) 0.1554 1.0000
O19_3 O 0.3446(4) 0.0000 0.8446
O20_2 O 0.3166(2) 0.0513(2) 0.7435(2)
H5_2 H 0.232982 0.116481 0.883519
H9_2 H 0.116481 0.232982 0.883519
H10_2 H 0.116481 0.116481 0.767018
Cu9_4 Cu 0.28499(5) 1.0000 0.7850
Cu10_4 Cu 0.2150 1.0000 0.71501(5)
O19_4 O 0.3446(4) 1.0000 0.8446
O21_2 O 0.2435(2) 0.9487(2) 0.8166(2)
O22_2 O 0.3166(2) 0.9487(2) 0.7435(2)
Cu7_4 Cu 1.0000 0.2150 0.71501(5)
Cu8_4 Cu 1.0000 0.28499(5) 0.7850
O2_5 O -0.0000 0.1554 0.3446(4)
O16_3 O 0.0513(2) 0.2565(2) 0.3166(2)
O17_3 O 0.0513(2) 0.3166(2) 0.2565(2)
O18_5 O -0.0000 0.3446(4) 0.1554
O2_6 O 1.0000 0.1554 0.3446(4)
O8_3 O 0.9487(2) 0.1834(2) 0.2435(2)
C10_3 C 0.9323(4) 0.2027 0.2027(3)
C11_3 C 0.8881(4) 0.1759 0.1759(3)
C12_3 C 0.8671(3) 0.1329 0.1988(5)
O9_3 O 0.9487(2) 0.2435(2) 0.1834(2)
C13_3 C 0.8241(3) 0.1119(4) 0.1759
C14_3 C 0.7973(3) 0.0677(4) 0.2027
O10_3 O 0.7565(2) 0.0513(2) 0.1834(2)
O11_3 O 0.8166(2) 0.0513(2) 0.2435(2)
C15_3 C 0.8012(5) 0.1329(3) 0.1329
C16_3 C 0.8241 0.1759(3) 0.1119(4)
C17_3 C 0.7973 0.2027(3) 0.0677(4)
O12_3 O 0.8166(2) 0.2435(2) 0.0513(2)
O13_3 O 0.7565(2) 0.1834(2) 0.0513(2)
C18_3 C 0.8671 0.1988(5) 0.1329(3)
O14_3 O 0.9487(2) 0.2565(2) 0.3166(2)
O15_3 O 0.9487(2) 0.3166(2) 0.2565(2)
Cu7_5 Cu 0.71501(5) 0.0000 0.2150
Cu8_5 Cu 0.7850 0.0000 0.28499(5)
Cu9_5 Cu 0.7850 0.28499(5) -0.0000
Cu10_5 Cu 0.71501(5) 0.2150 0.0000
O18_6 O 1.0000 0.3446(4) 0.1554
O19_5 O 0.8446 0.3446(4) -0.0000
O20_3 O 0.7435(2) 0.3166(2) 0.0513(2)
H5_3 H 0.883519 0.232982 0.116481
H9_3 H 0.883519 0.116481 0.232982
H10_3 H 0.767018 0.116481 0.116481
Cu9_6 Cu 0.7850 0.28499(5) 1.0000
Cu10_6 Cu 0.71501(5) 0.2150 1.0000
O19_6 O 0.8446 0.3446(4) 1.0000
O21_3 O 0.8166(2) 0.2435(2) 0.9487(2)
O22_3 O 0.7435(2) 0.3166(2) 0.9487(2)
Cu7_6 Cu 0.71501(5) 1.0000 0.2150
Cu8_6 Cu 0.7850 1.0000 0.28499(5)
O19_7 O -0.0000 0.3446(4) 0.8446
O20_4 O 0.0513(2) 0.3166(2) 0.7435(2)
O19_8 O 1.0000 0.3446(4) 0.8446
O21_4 O 0.9487(2) 0.2435(2) 0.8166(2)
O22_4 O 0.9487(2) 0.3166(2) 0.7435(2)
O19_9 O 0.8446 -0.0000 0.3446(4)
O20_5 O 0.7435(2) 0.0513(2) 0.3166(2)
O19_10 O 0.8446 1.0000 0.3446(4)
O21_5 O 0.8166(2) 0.9487(2) 0.2435(2)
O22_5 O 0.7435(2) 0.9487(2) 0.3166(2)
O19_11 O 0.3446(4) 0.8446 -0.0000
O20_6 O 0.3166(2) 0.7435(2) 0.0513(2)
O19_12 O 0.3446(4) 0.8446 1.0000
O21_6 O 0.2435(2) 0.8166(2) 0.9487(2)
O22_6 O 0.3166(2) 0.7435(2) 0.9487(2)
O2_7 O 0.6554(4) 0.0000 0.1554
O16_4 O 0.6834(2) 0.0513(2) 0.2565(2)
O2_8 O 0.6554(4) 1.0000 0.1554
O8_4 O 0.7565(2) 0.9487(2) 0.1834(2)
C10_4 C 0.7973(3) 0.9323(4) 0.2027
C11_4 C 0.8241(3) 0.8881(4) 0.1759
C12_4 C 0.8012(5) 0.8671(3) 0.1329
C13_4 C 0.8241 0.8241(3) 0.1119(4)
C14_4 C 0.7973 0.7973(3) 0.0677(4)
O10_4 O 0.8166(2) 0.7565(2) 0.0513(2)
O11_4 O 0.7565(2) 0.8166(2) 0.0513(2)
C15_4 C 0.8671 0.8012(5) 0.1329(3)
C16_4 C 0.8881(4) 0.8241 0.1759(3)
C17_4 C 0.9323(4) 0.7973 0.2027(3)
O13_4 O 0.9487(2) 0.7565(2) 0.1834(2)
C18_4 C 0.8671(3) 0.8671 0.1988(5)
O14_4 O 0.6834(2) 0.9487(2) 0.2565(2)
Cu7_7 Cu 0.7850 0.71501(5) 0.0000
Cu8_7 Cu 0.71501(5) 0.7850 0.0000
H5_4 H 0.883519 0.883519 0.232982
H9_4 H 0.767018 0.883519 0.116481
H10_4 H 0.883519 0.767018 0.116481
Cu7_8 Cu 0.7850 0.71501(5) 1.0000
Cu8_8 Cu 0.71501(5) 0.7850 1.0000
O17_4 O 0.6834(2) 0.2565(2) 0.0513(2)
O18_7 O 0.6554(4) 0.1554 0.0000
C10_5 C 0.7973 0.2027(3) 0.9323(4)
C11_5 C 0.8241 0.1759(3) 0.8881(4)
C12_5 C 0.8671 0.1988(5) 0.8671(3)
O9_4 O 0.7565(2) 0.1834(2) 0.9487(2)
C13_5 C 0.8881(4) 0.1759 0.8241(3)
C14_5 C 0.9323(4) 0.2027 0.7973(3)
O10_5 O 0.9487(2) 0.1834(2) 0.7565(2)
C15_5 C 0.8671(3) 0.1329 0.8012(5)
C16_5 C 0.8241(3) 0.1119(4) 0.8241
C17_5 C 0.7973(3) 0.0677(4) 0.7973
O12_4 O 0.7565(2) 0.0513(2) 0.8166(2)
O13_5 O 0.8166(2) 0.0513(2) 0.7565(2)
C18_5 C 0.8012(5) 0.1329(3) 0.8671
O15_4 O 0.6834(2) 0.2565(2) 0.9487(2)
Cu9_7 Cu 0.71501(5) 0.0000 0.7850
Cu10_7 Cu 0.7850 0.0000 0.71501(5)
O18_8 O 0.6554(4) 0.1554 1.0000
O19_13 O 0.6554(4) 0.0000 0.8446
O20_7 O 0.6834(2) 0.0513(2) 0.7435(2)
H5_5 H 0.767018 0.116481 0.883519
H9_5 H 0.883519 0.232982 0.883519
H10_5 H 0.883519 0.116481 0.767018
Cu9_8 Cu 0.71501(5) 1.0000 0.7850
Cu10_8 Cu 0.7850 1.0000 0.71501(5)
O19_14 O 0.6554(4) 1.0000 0.8446
O21_7 O 0.7565(2) 0.9487(2) 0.8166(2)
O22_7 O 0.6834(2) 0.9487(2) 0.7435(2)
O19_15 O 0.6554(4) 0.8446 -0.0000
O20_8 O 0.6834(2) 0.7435(2) 0.0513(2)
O19_16 O 0.6554(4) 0.8446 1.0000
O21_8 O 0.7565(2) 0.8166(2) 0.9487(2)
O22_8 O 0.6834(2) 0.7435(2) 0.9487(2)
O2_9 O 0.1554 0.6554(4) 0.0000
O16_5 O 0.2565(2) 0.6834(2) 0.0513(2)
O2_10 O 0.1554 0.6554(4) 1.0000
O8_5 O 0.1834(2) 0.7565(2) 0.9487(2)
C10_6 C 0.2027 0.7973(3) 0.9323(4)
C11_6 C 0.1759 0.8241(3) 0.8881(4)
C12_6 C 0.1329 0.8012(5) 0.8671(3)
C13_6 C 0.1119(4) 0.8241 0.8241(3)
C14_6 C 0.0677(4) 0.7973 0.7973(3)
O10_6 O 0.0513(2) 0.8166(2) 0.7565(2)
O11_5 O 0.0513(2) 0.7565(2) 0.8166(2)
C15_6 C 0.1329(3) 0.8671 0.8012(5)
C16_6 C 0.1759(3) 0.8881(4) 0.8241
C17_6 C 0.2027(3) 0.9323(4) 0.7973
O13_6 O 0.1834(2) 0.9487(2) 0.7565(2)
C18_6 C 0.1988(5) 0.8671(3) 0.8671
O14_5 O 0.2565(2) 0.6834(2) 0.9487(2)
Cu7_9 Cu 0.0000 0.7850 0.71501(5)
Cu8_9 Cu 0.0000 0.71501(5) 0.7850
H5_6 H 0.232982 0.883519 0.883519
H9_6 H 0.116481 0.767018 0.883519
H10_6 H 0.116481 0.883519 0.767018
Cu7_10 Cu 1.0000 0.7850 0.71501(5)
Cu8_10 Cu 1.0000 0.71501(5) 0.7850
O17_5 O 0.0513(2) 0.6834(2) 0.2565(2)
O18_9 O -0.0000 0.6554(4) 0.1554
O15_5 O 0.9487(2) 0.6834(2) 0.2565(2)
O18_10 O 1.0000 0.6554(4) 0.1554
O19_17 O 0.8446 0.6554(4) -0.0000
O20_9 O 0.7435(2) 0.6834(2) 0.0513(2)
O19_18 O 0.8446 0.6554(4) 1.0000
O21_9 O 0.8166(2) 0.7565(2) 0.9487(2)
O22_9 O 0.7435(2) 0.6834(2) 0.9487(2)
O19_19 O -0.0000 0.6554(4) 0.8446
O20_10 O 0.0513(2) 0.6834(2) 0.7435(2)
O19_20 O 1.0000 0.6554(4) 0.8446
O21_10 O 0.9487(2) 0.7565(2) 0.8166(2)
O22_10 O 0.9487(2) 0.6834(2) 0.7435(2)
O17_6 O 0.2565(2) 0.0513(2) 0.6834(2)
O18_11 O 0.1554 0.0000 0.6554(4)
O15_6 O 0.2565(2) 0.9487(2) 0.6834(2)
O18_12 O 0.1554 1.0000 0.6554(4)
O19_21 O -0.0000 0.8446 0.6554(4)
O20_11 O 0.0513(2) 0.7435(2) 0.6834(2)
O19_22 O 1.0000 0.8446 0.6554(4)
O21_11 O 0.9487(2) 0.8166(2) 0.7565(2)
O22_11 O 0.9487(2) 0.7435(2) 0.6834(2)
O2_11 O -0.0000 0.1554 0.6554(4)
O16_6 O 0.0513(2) 0.2565(2) 0.6834(2)
O2_12 O 1.0000 0.1554 0.6554(4)
O14_6 O 0.9487(2) 0.2565(2) 0.6834(2)
O19_23 O 0.8446 0.0000 0.6554(4)
O20_12 O 0.7435(2) 0.0513(2) 0.6834(2)
O19_24 O 0.8446 1.0000 0.6554(4)
O21_12 O 0.8166(2) 0.9487(2) 0.7565(2)
O22_12 O 0.7435(2) 0.9487(2) 0.6834(2)
Cu1_3 Cu 0.28499(5) 0.5000 0.7150
O1_2 O 0.2435(2) 0.5513(2) 0.6834(2)
O2_13 O 0.3446(4) 0.5000 0.6554
C1_2 C 0.2027(3) 0.5677(4) 0.7027
C2_2 C 0.1759(3) 0.6119(4) 0.6759
C3_2 C 0.1988(5) 0.6329(3) 0.6329
O3_2 O 0.1834(2) 0.5513(2) 0.7435(2)
C4_2 C 0.1759 0.6759(3) 0.6119(4)
C5_2 C 0.2027 0.7027(3) 0.5677(4)
O4_2 O 0.1834(2) 0.7435(2) 0.5513(2)
O5_2 O 0.2435(2) 0.6834(2) 0.5513(2)
C6_2 C 0.1329 0.6988(5) 0.6329(3)
C7_2 C 0.1119(4) 0.6759 0.6759(3)
C8_2 C 0.0677(4) 0.7027 0.7027(3)
C9_2 C 0.1329(3) 0.6329 0.6988(5)
O8_6 O 0.2435(2) 0.4487(2) 0.6834(2)
C10_7 C 0.2027(3) 0.4323(4) 0.7027
C11_7 C 0.1759(3) 0.3881(4) 0.6759
C12_7 C 0.1988(5) 0.3671(3) 0.6329
O9_5 O 0.1834(2) 0.4487(2) 0.7435(2)
C13_7 C 0.1759 0.3241(3) 0.6119(4)
C14_7 C 0.2027 0.2973(3) 0.5677(4)
O10_7 O 0.1834(2) 0.2565(2) 0.5513(2)
O11_6 O 0.2435(2) 0.3166(2) 0.5513(2)
C15_7 C 0.1329 0.3012(5) 0.6329(3)
C16_7 C 0.1119(4) 0.3241 0.6759(3)
C17_7 C 0.0677(4) 0.2973 0.7027(3)
C18_7 C 0.1329(3) 0.3671 0.6988(5)
O14_7 O 0.3166(2) 0.4487(2) 0.7565(2)
O15_7 O 0.2565(2) 0.4487(2) 0.8166(2)
O16_7 O 0.3166(2) 0.5513(2) 0.7565(2)
O17_7 O 0.2565(2) 0.5513(2) 0.8166(2)
Cu2_3 Cu 0.2150 0.5000 0.78499(5)
Cu3_3 Cu 0.2150 0.78499(5) 0.5000
Cu4_3 Cu 0.28499(5) 0.7150 0.5000
Cu7_11 Cu 0.2150 0.21501(5) 0.5000
Cu8_11 Cu 0.28499(5) 0.2850 0.5000
O18_13 O 0.1554 0.5000 0.8446(4)
H1_2 H 0.116481 0.732982 0.616481
H4_2 H 0.232982 0.616481 0.616481
H5_7 H 0.116481 0.383519 0.732982
H8_2 H 0.116481 0.616481 0.732982
H9_7 H 0.232982 0.383519 0.616481
H10_7 H 0.116481 0.267018 0.616481
O2_14 O 0.1554 0.8446(4) 0.5000
O8_7 O 0.1834(2) 0.7435(2) 0.4487(2)
C10_8 C 0.2027 0.7027(3) 0.4323(4)
C11_8 C 0.1759 0.6759(3) 0.3881(4)
C12_8 C 0.1329 0.6988(5) 0.3671(3)
O9_6 O 0.2435(2) 0.6834(2) 0.4487(2)
C13_8 C 0.1119(4) 0.6759 0.3241(3)
C14_8 C 0.0677(4) 0.7027 0.2973(3)
C15_8 C 0.1329(3) 0.6329 0.3012(5)
C16_8 C 0.1759(3) 0.6119(4) 0.3241
C17_8 C 0.2027(3) 0.5677(4) 0.2973
O12_5 O 0.2435(2) 0.5513(2) 0.3166(2)
O13_7 O 0.1834(2) 0.5513(2) 0.2565(2)
C18_8 C 0.1988(5) 0.6329(3) 0.3671
O14_8 O 0.2565(2) 0.8166(2) 0.4487(2)
O15_8 O 0.3166(2) 0.7565(2) 0.4487(2)
O16_8 O 0.2565(2) 0.8166(2) 0.5513(2)
O17_8 O 0.3166(2) 0.7565(2) 0.5513(2)
Cu9_9 Cu 0.28499(5) 0.5000 0.2850
Cu10_9 Cu 0.2150 0.5000 0.21501(5)
O18_14 O 0.3446(4) 0.6554 0.5000
O19_25 O 0.3446(4) 0.5000 0.3446
O20_13 O 0.3166(2) 0.5513(2) 0.2435(2)
O21_13 O 0.2435(2) 0.4487(2) 0.3166(2)
O22_13 O 0.3166(2) 0.4487(2) 0.2435(2)
H5_8 H 0.232982 0.616481 0.383519
H9_8 H 0.116481 0.732982 0.383519
H10_8 H 0.116481 0.616481 0.267018
C10_9 C 0.9323(4) 0.7027 0.7027(3)
C11_9 C 0.8881(4) 0.6759 0.6759(3)
C12_9 C 0.8671(3) 0.6329 0.6988(5)
C13_9 C 0.8241(3) 0.6119(4) 0.6759
C14_9 C 0.7973(3) 0.5677(4) 0.7027
O10_8 O 0.7565(2) 0.5513(2) 0.6834(2)
O11_7 O 0.8166(2) 0.5513(2) 0.7435(2)
C15_9 C 0.8012(5) 0.6329(3) 0.6329
C16_9 C 0.8241 0.6759(3) 0.6119(4)
C17_9 C 0.7973 0.7027(3) 0.5677(4)
O12_6 O 0.8166(2) 0.7435(2) 0.5513(2)
O13_8 O 0.7565(2) 0.6834(2) 0.5513(2)
C18_9 C 0.8671 0.6988(5) 0.6329(3)
Cu7_12 Cu 0.71501(5) 0.5000 0.7150
Cu8_12 Cu 0.7850 0.5000 0.78499(5)
Cu9_10 Cu 0.7850 0.78499(5) 0.5000
Cu10_10 Cu 0.71501(5) 0.7150 0.5000
O19_26 O 0.8446 0.8446(4) 0.5000
O20_14 O 0.7435(2) 0.8166(2) 0.5513(2)
O21_14 O 0.8166(2) 0.7435(2) 0.4487(2)
O22_14 O 0.7435(2) 0.8166(2) 0.4487(2)
H5_9 H 0.883519 0.732982 0.616481
H9_9 H 0.883519 0.616481 0.732982
H10_9 H 0.767018 0.616481 0.616481
O19_27 O 0.8446 0.5000 0.8446(4)
O20_15 O 0.7435(2) 0.5513(2) 0.8166(2)
O21_15 O 0.8166(2) 0.4487(2) 0.7435(2)
O22_15 O 0.7435(2) 0.4487(2) 0.8166(2)
O19_28 O 0.3446(4) 0.3446 0.5000
O20_16 O 0.3166(2) 0.2435(2) 0.5513(2)
O21_16 O 0.2435(2) 0.3166(2) 0.4487(2)
O22_16 O 0.3166(2) 0.2435(2) 0.4487(2)
O2_15 O 0.6554(4) 0.5000 0.6554
O8_8 O 0.7565(2) 0.4487(2) 0.6834(2)
C10_10 C 0.7973(3) 0.4323(4) 0.7027
C11_10 C 0.8241(3) 0.3881(4) 0.6759
C12_10 C 0.8012(5) 0.3671(3) 0.6329
C13_10 C 0.8241 0.3241(3) 0.6119(4)
C14_10 C 0.7973 0.2973(3) 0.5677(4)
O10_9 O 0.8166(2) 0.2565(2) 0.5513(2)
O11_8 O 0.7565(2) 0.3166(2) 0.5513(2)
C15_10 C 0.8671 0.3012(5) 0.6329(3)
C16_10 C 0.8881(4) 0.3241 0.6759(3)
C17_10 C 0.9323(4) 0.2973 0.7027(3)
C18_10 C 0.8671(3) 0.3671 0.6988(5)
O14_9 O 0.6834(2) 0.4487(2) 0.7565(2)
O16_9 O 0.6834(2) 0.5513(2) 0.7565(2)
Cu7_13 Cu 0.7850 0.21501(5) 0.5000
Cu8_13 Cu 0.71501(5) 0.2850 0.5000
H5_10 H 0.883519 0.383519 0.732982
H9_10 H 0.767018 0.383519 0.616481
H10_10 H 0.883519 0.267018 0.616481
C10_11 C 0.7973 0.7027(3) 0.4323(4)
C11_11 C 0.8241 0.6759(3) 0.3881(4)
C12_11 C 0.8671 0.6988(5) 0.3671(3)
O9_7 O 0.7565(2) 0.6834(2) 0.4487(2)
C13_11 C 0.8881(4) 0.6759 0.3241(3)
C14_11 C 0.9323(4) 0.7027 0.2973(3)
C15_11 C 0.8671(3) 0.6329 0.3012(5)
C16_11 C 0.8241(3) 0.6119(4) 0.3241
C17_11 C 0.7973(3) 0.5677(4) 0.2973
O12_7 O 0.7565(2) 0.5513(2) 0.3166(2)
O13_9 O 0.8166(2) 0.5513(2) 0.2565(2)
C18_11 C 0.8012(5) 0.6329(3) 0.3671
O15_9 O 0.6834(2) 0.7565(2) 0.4487(2)
O17_9 O 0.6834(2) 0.7565(2) 0.5513(2)
Cu9_11 Cu 0.71501(5) 0.5000 0.2850
Cu10_11 Cu 0.7850 0.5000 0.21501(5)
O18_15 O 0.6554(4) 0.6554 0.5000
O19_29 O 0.6554(4) 0.5000 0.3446
O20_17 O 0.6834(2) 0.5513(2) 0.2435(2)
O21_17 O 0.7565(2) 0.4487(2) 0.3166(2)
O22_17 O 0.6834(2) 0.4487(2) 0.2435(2)
H5_11 H 0.767018 0.616481 0.383519
H9_11 H 0.883519 0.732982 0.383519
H10_11 H 0.883519 0.616481 0.267018
O19_30 O 0.6554(4) 0.3446 0.5000
O20_18 O 0.6834(2) 0.2435(2) 0.5513(2)
O21_18 O 0.7565(2) 0.3166(2) 0.4487(2)
O22_18 O 0.6834(2) 0.2435(2) 0.4487(2)
O2_16 O 0.1554 0.1554(4) 0.5000
O8_9 O 0.1834(2) 0.2565(2) 0.4487(2)
C10_12 C 0.2027 0.2973(3) 0.4323(4)
C11_12 C 0.1759 0.3241(3) 0.3881(4)
C12_12 C 0.1329 0.3012(5) 0.3671(3)
C13_12 C 0.1119(4) 0.3241 0.3241(3)
C14_12 C 0.0677(4) 0.2973 0.2973(3)
C15_12 C 0.1329(3) 0.3671 0.3012(5)
C16_12 C 0.1759(3) 0.3881(4) 0.3241
C17_12 C 0.2027(3) 0.4323(4) 0.2973
O13_10 O 0.1834(2) 0.4487(2) 0.2565(2)
C18_12 C 0.1988(5) 0.3671(3) 0.3671
O14_10 O 0.2565(2) 0.1834(2) 0.4487(2)
O16_10 O 0.2565(2) 0.1834(2) 0.5513(2)
H5_12 H 0.232982 0.383519 0.383519
H9_12 H 0.116481 0.267018 0.383519
H10_12 H 0.116481 0.383519 0.267018
O19_31 O 0.8446 0.1554(4) 0.5000
O20_19 O 0.7435(2) 0.1834(2) 0.5513(2)
O21_19 O 0.8166(2) 0.2565(2) 0.4487(2)
O22_19 O 0.7435(2) 0.1834(2) 0.4487(2)
O15_10 O 0.2565(2) 0.4487(2) 0.1834(2)
O17_10 O 0.2565(2) 0.5513(2) 0.1834(2)
O18_16 O 0.1554 0.5000 0.1554(4)
O19_32 O 0.8446 0.5000 0.1554(4)
O20_20 O 0.7435(2) 0.5513(2) 0.1834(2)
O21_20 O 0.8166(2) 0.4487(2) 0.2565(2)
O22_20 O 0.7435(2) 0.4487(2) 0.1834(2)
C1_3 C 0.7027(3) 0.0677(4) 0.7027
C2_3 C 0.6759(3) 0.1119(4) 0.6759
C3_3 C 0.6988(5) 0.1329(3) 0.6329
C4_3 C 0.6759 0.1759(3) 0.6119(4)
C5_3 C 0.7027 0.2027(3) 0.5677(4)
C6_3 C 0.6329 0.1988(5) 0.6329(3)
C7_3 C 0.6119(4) 0.1759 0.6759(3)
C8_3 C 0.5677(4) 0.2027 0.7027(3)
O6_2 O 0.5513(2) 0.1834(2) 0.7435(2)
O7_2 O 0.5513(2) 0.2435(2) 0.6834(2)
C9_3 C 0.6329(3) 0.1329 0.6988(5)
Cu5_3 Cu 0.5000 0.2150 0.78499(5)
Cu6_3 Cu 0.5000 0.28499(5) 0.7150
H1_3 H 0.616481 0.232982 0.616481
H4_3 H 0.732982 0.116481 0.616481
H8_3 H 0.616481 0.116481 0.732982
C10_13 C 0.7027(3) 0.9323(4) 0.7027
C11_13 C 0.6759(3) 0.8881(4) 0.6759
C12_13 C 0.6988(5) 0.8671(3) 0.6329
C13_13 C 0.6759 0.8241(3) 0.6119(4)
C14_13 C 0.7027 0.7973(3) 0.5677(4)
C15_13 C 0.6329 0.8012(5) 0.6329(3)
C16_13 C 0.6119(4) 0.8241 0.6759(3)
C17_13 C 0.5677(4) 0.7973 0.7027(3)
O12_8 O 0.5513(2) 0.8166(2) 0.7435(2)
O13_11 O 0.5513(2) 0.7565(2) 0.6834(2)
C18_13 C 0.6329(3) 0.8671 0.6988(5)
Cu9_12 Cu 0.5000 0.7850 0.78499(5)
Cu10_12 Cu 0.5000 0.71501(5) 0.7150
O19_33 O 0.5000 0.8446 0.8446(4)
O20_21 O 0.5513(2) 0.7435(2) 0.8166(2)
O21_21 O 0.4487(2) 0.8166(2) 0.7435(2)
O22_21 O 0.4487(2) 0.7435(2) 0.8166(2)
H5_13 H 0.616481 0.883519 0.732982
H9_13 H 0.732982 0.883519 0.616481
H10_13 H 0.616481 0.767018 0.616481
C10_14 C 0.7027 0.2027(3) 0.4323(4)
C11_14 C 0.6759 0.1759(3) 0.3881(4)
C12_14 C 0.6329 0.1988(5) 0.3671(3)
C13_14 C 0.6119(4) 0.1759 0.3241(3)
C14_14 C 0.5677(4) 0.2027 0.2973(3)
O10_10 O 0.5513(2) 0.1834(2) 0.2565(2)
O11_9 O 0.5513(2) 0.2435(2) 0.3166(2)
C15_14 C 0.6329(3) 0.1329 0.3012(5)
C16_14 C 0.6759(3) 0.1119(4) 0.3241
C17_14 C 0.7027(3) 0.0677(4) 0.2973
C18_14 C 0.6988(5) 0.1329(3) 0.3671
Cu7_14 Cu 0.5000 0.2150 0.21501(5)
Cu8_14 Cu 0.5000 0.28499(5) 0.2850
H5_14 H 0.732982 0.116481 0.383519
H9_14 H 0.616481 0.232982 0.383519
H10_14 H 0.616481 0.116481 0.267018
O2_17 O 0.5000 0.1554 0.8446(4)
O8_10 O 0.4487(2) 0.1834(2) 0.7435(2)
C10_15 C 0.4323(4) 0.2027 0.7027(3)
C11_15 C 0.3881(4) 0.1759 0.6759(3)
C12_15 C 0.3671(3) 0.1329 0.6988(5)
O9_8 O 0.4487(2) 0.2435(2) 0.6834(2)
C13_15 C 0.3241(3) 0.1119(4) 0.6759
C14_15 C 0.2973(3) 0.0677(4) 0.7027
C15_15 C 0.3012(5) 0.1329(3) 0.6329
C16_15 C 0.3241 0.1759(3) 0.6119(4)
C17_15 C 0.2973 0.2027(3) 0.5677(4)
C18_15 C 0.3671 0.1988(5) 0.6329(3)
O14_11 O 0.4487(2) 0.2565(2) 0.8166(2)
O15_11 O 0.4487(2) 0.3166(2) 0.7565(2)
O16_11 O 0.5513(2) 0.2565(2) 0.8166(2)
O17_11 O 0.5513(2) 0.3166(2) 0.7565(2)
O18_17 O 0.5000 0.3446(4) 0.6554
H5_15 H 0.383519 0.232982 0.616481
H9_15 H 0.383519 0.116481 0.732982
H10_15 H 0.267018 0.116481 0.616481
O19_34 O 0.5000 0.3446(4) 0.3446
O20_22 O 0.5513(2) 0.3166(2) 0.2435(2)
O21_22 O 0.4487(2) 0.2435(2) 0.3166(2)
O22_22 O 0.4487(2) 0.3166(2) 0.2435(2)
C10_16 C 0.2973(3) 0.9323(4) 0.7027
C11_16 C 0.3241(3) 0.8881(4) 0.6759
C12_16 C 0.3012(5) 0.8671(3) 0.6329
C13_16 C 0.3241 0.8241(3) 0.6119(4)
C14_16 C 0.2973 0.7973(3) 0.5677(4)
C15_16 C 0.3671 0.8012(5) 0.6329(3)
C16_16 C 0.3881(4) 0.8241 0.6759(3)
C17_16 C 0.4323(4) 0.7973 0.7027(3)
O13_12 O 0.4487(2) 0.7565(2) 0.6834(2)
C18_16 C 0.3671(3) 0.8671 0.6988(5)
H5_16 H 0.383519 0.883519 0.732982
H9_16 H 0.267018 0.883519 0.616481
H10_16 H 0.383519 0.767018 0.616481
C10_17 C 0.2973 0.2027(3) 0.4323(4)
C11_17 C 0.3241 0.1759(3) 0.3881(4)
C12_17 C 0.3671 0.1988(5) 0.3671(3)
C13_17 C 0.3881(4) 0.1759 0.3241(3)
C14_17 C 0.4323(4) 0.2027 0.2973(3)
O10_11 O 0.4487(2) 0.1834(2) 0.2565(2)
C15_17 C 0.3671(3) 0.1329 0.3012(5)
C16_17 C 0.3241(3) 0.1119(4) 0.3241
C17_17 C 0.2973(3) 0.0677(4) 0.2973
C18_17 C 0.3012(5) 0.1329(3) 0.3671
H5_17 H 0.267018 0.116481 0.383519
H9_17 H 0.383519 0.232982 0.383519
H10_17 H 0.383519 0.116481 0.267018
C10_18 C 0.7027 0.7973(3) 0.4323(4)
C11_18 C 0.6759 0.8241(3) 0.3881(4)
C12_18 C 0.6329 0.8012(5) 0.3671(3)
C13_18 C 0.6119(4) 0.8241 0.3241(3)
C14_18 C 0.5677(4) 0.7973 0.2973(3)
O10_12 O 0.5513(2) 0.8166(2) 0.2565(2)
O11_10 O 0.5513(2) 0.7565(2) 0.3166(2)
C15_18 C 0.6329(3) 0.8671 0.3012(5)
C16_18 C 0.6759(3) 0.8881(4) 0.3241
C17_18 C 0.7027(3) 0.9323(4) 0.2973
C18_18 C 0.6988(5) 0.8671(3) 0.3671
Cu7_15 Cu 0.5000 0.7850 0.21501(5)
Cu8_15 Cu 0.5000 0.71501(5) 0.2850
H5_18 H 0.732982 0.883519 0.383519
H9_18 H 0.616481 0.767018 0.383519
H10_18 H 0.616481 0.883519 0.267018
O15_12 O 0.4487(2) 0.6834(2) 0.7565(2)
O17_12 O 0.5513(2) 0.6834(2) 0.7565(2)
O18_18 O 0.5000 0.6554(4) 0.6554
O19_35 O 0.5000 0.6554(4) 0.3446
O20_23 O 0.5513(2) 0.6834(2) 0.2435(2)
O21_23 O 0.4487(2) 0.7565(2) 0.3166(2)
O22_23 O 0.4487(2) 0.6834(2) 0.2435(2)
O19_36 O 0.5000 0.8446 0.1554(4)
O20_24 O 0.5513(2) 0.7435(2) 0.1834(2)
O21_24 O 0.4487(2) 0.8166(2) 0.2565(2)
O22_24 O 0.4487(2) 0.7435(2) 0.1834(2)
O2_18 O 0.5000 0.1554 0.1554(4)
O14_12 O 0.4487(2) 0.2565(2) 0.1834(2)
O16_12 O 0.5513(2) 0.2565(2) 0.1834(2)
C1_4 C 0.7027(3) 0.5677(4) 0.2027
C2_4 C 0.6759(3) 0.6119(4) 0.1759
C3_4 C 0.6988(5) 0.6329(3) 0.1329
C4_4 C 0.6759 0.6759(3) 0.1119(4)
C5_4 C 0.7027 0.7027(3) 0.0677(4)
C6_4 C 0.6329 0.6988(5) 0.1329(3)
C7_4 C 0.6119(4) 0.6759 0.1759(3)
C8_4 C 0.5677(4) 0.7027 0.2027(3)
C9_4 C 0.6329(3) 0.6329 0.1988(5)
C10_19 C 0.7027(3) 0.4323(4) 0.2027
C11_19 C 0.6759(3) 0.3881(4) 0.1759
C12_19 C 0.6988(5) 0.3671(3) 0.1329
C13_19 C 0.6759 0.3241(3) 0.1119(4)
C14_19 C 0.7027 0.2973(3) 0.0677(4)
C15_19 C 0.6329 0.3012(5) 0.1329(3)
C16_19 C 0.6119(4) 0.3241 0.1759(3)
C17_19 C 0.5677(4) 0.2973 0.2027(3)
C18_19 C 0.6329(3) 0.3671 0.1988(5)
H1_4 H 0.616481 0.732982 0.116481
H4_4 H 0.732982 0.616481 0.116481
H5_19 H 0.616481 0.383519 0.232982
H8_4 H 0.616481 0.616481 0.232982
H9_19 H 0.732982 0.383519 0.116481
H10_19 H 0.616481 0.267018 0.116481
C10_20 C 0.7027 0.7027(3) 0.9323(4)
C11_20 C 0.6759 0.6759(3) 0.8881(4)
C12_20 C 0.6329 0.6988(5) 0.8671(3)
C13_20 C 0.6119(4) 0.6759 0.8241(3)
C14_20 C 0.5677(4) 0.7027 0.7973(3)
C15_20 C 0.6329(3) 0.6329 0.8012(5)
C16_20 C 0.6759(3) 0.6119(4) 0.8241
C17_20 C 0.7027(3) 0.5677(4) 0.7973
C18_20 C 0.6988(5) 0.6329(3) 0.8671
H5_20 H 0.732982 0.616481 0.883519
H9_20 H 0.616481 0.732982 0.883519
H10_20 H 0.616481 0.616481 0.767018
C10_21 C 0.4323(4) 0.7027 0.2027(3)
C11_21 C 0.3881(4) 0.6759 0.1759(3)
C12_21 C 0.3671(3) 0.6329 0.1988(5)
C13_21 C 0.3241(3) 0.6119(4) 0.1759
C14_21 C 0.2973(3) 0.5677(4) 0.2027
C15_21 C 0.3012(5) 0.6329(3) 0.1329
C16_21 C 0.3241 0.6759(3) 0.1119(4)
C17_21 C 0.2973 0.7027(3) 0.0677(4)
C18_21 C 0.3671 0.6988(5) 0.1329(3)
H5_21 H 0.383519 0.732982 0.116481
H9_21 H 0.383519 0.616481 0.232982
H10_21 H 0.267018 0.616481 0.116481
C10_22 C 0.2973(3) 0.4323(4) 0.2027
C11_22 C 0.3241(3) 0.3881(4) 0.1759
C12_22 C 0.3012(5) 0.3671(3) 0.1329
C13_22 C 0.3241 0.3241(3) 0.1119(4)
C14_22 C 0.2973 0.2973(3) 0.0677(4)
C15_22 C 0.3671 0.3012(5) 0.1329(3)
C16_22 C 0.3881(4) 0.3241 0.1759(3)
C17_22 C 0.4323(4) 0.2973 0.2027(3)
C18_22 C 0.3671(3) 0.3671 0.1988(5)
H5_22 H 0.383519 0.383519 0.232982
H9_22 H 0.267018 0.383519 0.116481
H10_22 H 0.383519 0.267018 0.116481
C10_23 C 0.2973 0.7027(3) 0.9323(4)
C11_23 C 0.3241 0.6759(3) 0.8881(4)
C12_23 C 0.3671 0.6988(5) 0.8671(3)
C13_23 C 0.3881(4) 0.6759 0.8241(3)
C14_23 C 0.4323(4) 0.7027 0.7973(3)
C15_23 C 0.3671(3) 0.6329 0.8012(5)
C16_23 C 0.3241(3) 0.6119(4) 0.8241
C17_23 C 0.2973(3) 0.5677(4) 0.7973
C18_23 C 0.3012(5) 0.6329(3) 0.8671
H5_23 H 0.267018 0.616481 0.883519
H9_23 H 0.383519 0.732982 0.883519
H10_23 H 0.383519 0.616481 0.767018
C10_24 C 0.7027 0.2973(3) 0.9323(4)
C11_24 C 0.6759 0.3241(3) 0.8881(4)
C12_24 C 0.6329 0.3012(5) 0.8671(3)
C13_24 C 0.6119(4) 0.3241 0.8241(3)
C14_24 C 0.5677(4) 0.2973 0.7973(3)
C15_24 C 0.6329(3) 0.3671 0.8012(5)
C16_24 C 0.6759(3) 0.3881(4) 0.8241
C17_24 C 0.7027(3) 0.4323(4) 0.7973
C18_24 C 0.6988(5) 0.3671(3) 0.8671
H5_24 H 0.732982 0.383519 0.883519
H9_24 H 0.616481 0.267018 0.883519
H10_24 H 0.616481 0.383519 0.767018
C1_5 C 0.7973(3) 0.9323(4) 0.7973
C2_5 C 0.8241(3) 0.8881(4) 0.8241
C3_5 C 0.8012(5) 0.8671(3) 0.8671
C4_5 C 0.8241 0.8241(3) 0.8881(4)
C5_5 C 0.7973 0.7973(3) 0.9323(4)
C6_5 C 0.8671 0.8012(5) 0.8671(3)
C7_5 C 0.8881(4) 0.8241 0.8241(3)
C8_5 C 0.9323(4) 0.7973 0.7973(3)
C9_5 C 0.8671(3) 0.8671 0.8012(5)
H1_5 H 0.883519 0.767018 0.883519
H4_5 H 0.767018 0.883519 0.883519
H8_5 H 0.883519 0.883519 0.767018
C1_6 C 0.7973(3) 0.4323(4) 0.2973
C2_6 C 0.8241(3) 0.3881(4) 0.3241
C3_6 C 0.8012(5) 0.3671(3) 0.3671
C4_6 C 0.8241 0.3241(3) 0.3881(4)
C5_6 C 0.7973 0.2973(3) 0.4323(4)
C6_6 C 0.8671 0.3012(5) 0.3671(3)
C7_6 C 0.8881(4) 0.3241 0.3241(3)
C8_6 C 0.9323(4) 0.2973 0.2973(3)
C9_6 C 0.8671(3) 0.3671 0.3012(5)
H1_6 H 0.883519 0.267018 0.383519
H4_6 H 0.767018 0.383519 0.383519
H8_6 H 0.883519 0.383519 0.267018
C1_7 C 0.2973(3) 0.9323(4) 0.2973
C2_7 C 0.3241(3) 0.8881(4) 0.3241
C3_7 C 0.3012(5) 0.8671(3) 0.3671
C4_7 C 0.3241 0.8241(3) 0.3881(4)
C5_7 C 0.2973 0.7973(3) 0.4323(4)
C6_7 C 0.3671 0.8012(5) 0.3671(3)
C7_7 C 0.3881(4) 0.8241 0.3241(3)
C8_7 C 0.4323(4) 0.7973 0.2973(3)
C9_7 C 0.3671(3) 0.8671 0.3012(5)
H1_7 H 0.383519 0.767018 0.383519
H4_7 H 0.267018 0.883519 0.383519
H8_7 H 0.383519 0.883519 0.267018
C1_8 C 0.2973(3) 0.4323(4) 0.7973
C2_8 C 0.3241(3) 0.3881(4) 0.8241
C3_8 C 0.3012(5) 0.3671(3) 0.8671
C4_8 C 0.3241 0.3241(3) 0.8881(4)
C5_8 C 0.2973 0.2973(3) 0.9323(4)
C6_8 C 0.3671 0.3012(5) 0.8671(3)
C7_8 C 0.3881(4) 0.3241 0.8241(3)
C8_8 C 0.4323(4) 0.2973 0.7973(3)
C9_8 C 0.3671(3) 0.3671 0.8012(5)
H1_8 H 0.383519 0.267018 0.883519
H4_8 H 0.267018 0.383519 0.883519
H8_8 H 0.383519 0.383519 0.767018
loop_
_geom_bond_atom_site_label_1
_geom_bond_atom_site_label_2
_geom_bond_site_symmetry_1
_geom_bond_site_symmetry_2
Cu1 O1 1_555 1_555
O1 C1 1_555 1_555
O2 Cu1 1_555 1_555
C1 C2 1_555 1_555
C2 C3 1_555 1_555
C3 C4 1_555 1_555
O3 C1 1_555 1_555
C4 C5 1_555 1_555
C5 O4 1_555 1_555
O4 Cu3 1_555 1_555
O5 C5 1_555 1_555
C6 C4 1_555 1_555
C7 C6 1_555 1_555
C8 C7 1_555 1_555
O6 C8 1_555 1_555
O7 C8 1_555 1_555
C9 C2 1_555 1_555
O16 Cu1 1_555 1_555
O17 Cu2 1_555 1_555
Cu2 Cu1 1_555 1_555
Cu3 Cu4 1_555 1_555
Cu4 O5 1_555 1_555
Cu5 O6 1_555 1_555
Cu6 O7 1_555 1_555
O18 Cu2 1_555 1_555
O3 Cu2 1_555 1_555
C7 C9 1_555 1_555
Cu5 Cu6 1_555 1_555
C6 H1 1_555 1_555
C3 H4 1_555 1_555
C9 H8 1_555 1_555
Cu3_2 Cu4_2 1_555 1_555
O2_2 Cu1_2 1_555 1_555
O8 Cu1_2 1_555 1_555
C10 O8 1_555 1_555
C11 C10 1_555 1_555
C12 C11 1_555 1_555
O9 C10 1_555 1_555
C13 C12 1_555 1_555
C14 C13 1_555 1_555
O10 C14 1_555 1_555
O11 C14 1_555 1_555
C15 C13 1_555 1_555
C16 C15 1_555 1_555
C17 C16 1_555 1_555
O12 C17 1_555 1_555
O13 C17 1_555 1_555
C18 C11 1_555 1_555
O14 Cu1_2 1_555 1_555
O15 Cu2_2 1_555 1_555
Cu2_2 Cu1_2 1_555 1_555
Cu7 O10 1_555 1_555
Cu8 O11 1_555 1_555
Cu9 O12 1_555 1_555
Cu10 O13 1_555 1_555
O18_2 Cu2_2 1_555 1_555
O19 Cu9 1_555 1_555
O20 Cu9 1_555 1_555
O9 Cu2_2 1_555 1_555
C16 C18 1_555 1_555
Cu7 Cu8 1_555 1_555
Cu9 Cu10 1_555 1_555
C18 H5 1_555 1_555
C12 H9 1_555 1_555
C15 H10 1_555 1_555
Cu7_2 Cu8_2 1_555 1_555
Cu5_2 Cu6_2 1_555 1_555
O19_2 Cu9_2 1_555 1_555
O21 Cu9_2 1_555 1_555
O22 Cu9_2 1_555 1_555
Cu9_2 Cu10_2 1_555 1_555
O2_3 Cu3 1_555 1_555
O16_2 Cu3 1_555 1_555
O17_2 Cu4 1_555 1_555
O18_3 Cu4 1_555 1_555
O2_4 Cu3_2 1_555 1_555
O8_2 Cu3_2 1_555 1_555
C10_2 O8_2 1_555 1_555
C11_2 C10_2 1_555 1_555
C12_2 C11_2 1_555 1_555
O9_2 C10_2 1_555 1_555
C13_2 C12_2 1_555 1_555
C14_2 C13_2 1_555 1_555
O10_2 C14_2 1_555 1_555
O11_2 C14_2 1_555 1_555
C15_2 C13_2 1_555 1_555
C16_2 C15_2 1_555 1_555
C17_2 C16_2 1_555 1_555
O12_2 C17_2 1_555 1_555
O13_2 C17_2 1_555 1_555
C18_2 C11_2 1_555 1_555
O14_2 Cu3_2 1_555 1_555
O15_2 Cu4_2 1_555 1_555
Cu7_3 O10_2 1_555 1_555
Cu8_3 O11_2 1_555 1_555
Cu9_3 O12_2 1_555 1_555
Cu10_3 O13_2 1_555 1_555
O18_4 Cu4_2 1_555 1_555
O19_3 Cu9_3 1_555 1_555
O20_2 Cu9_3 1_555 1_555
O9_2 Cu4_2 1_555 1_555
C16_2 C18_2 1_555 1_555
Cu7_3 Cu8_3 1_555 1_555
Cu9_3 Cu10_3 1_555 1_555
C18_2 H5_2 1_555 1_555
C12_2 H9_2 1_555 1_555
C15_2 H10_2 1_555 1_555
O19_4 Cu9_4 1_555 1_555
O21_2 Cu9_4 1_555 1_555
O22_2 Cu9_4 1_555 1_555
Cu9_4 Cu10_4 1_555 1_555
Cu7_4 Cu8_4 1_555 1_555
O2_5 Cu5 1_555 1_555
O16_3 Cu5 1_555 1_555
O17_3 Cu6 1_555 1_555
O18_5 Cu6 1_555 1_555
O2_6 Cu5_2 1_555 1_555
O8_3 Cu5_2 1_555 1_555
C10_3 O8_3 1_555 1_555
C11_3 C10_3 1_555 1_555
C12_3 C11_3 1_555 1_555
O9_3 C10_3 1_555 1_555
C13_3 C12_3 1_555 1_555
C14_3 C13_3 1_555 1_555
O10_3 C14_3 1_555 1_555
O11_3 C14_3 1_555 1_555
C15_3 C13_3 1_555 1_555
C16_3 C15_3 1_555 1_555
C17_3 C16_3 1_555 1_555
O12_3 C17_3 1_555 1_555
O13_3 C17_3 1_555 1_555
C18_3 C11_3 1_555 1_555
O14_3 Cu5_2 1_555 1_555
O15_3 Cu6_2 1_555 1_555
Cu7_5 O10_3 1_555 1_555
Cu8_5 O11_3 1_555 1_555
Cu9_5 O12_3 1_555 1_555
Cu10_5 O13_3 1_555 1_555
O18_6 Cu6_2 1_555 1_555
O19_5 Cu9_5 1_555 1_555
O20_3 Cu9_5 1_555 1_555
O9_3 Cu6_2 1_555 1_555
C16_3 C18_3 1_555 1_555
Cu7_5 Cu8_5 1_555 1_555
Cu9_5 Cu10_5 1_555 1_555
C18_3 H5_3 1_555 1_555
C12_3 H9_3 1_555 1_555
C15_3 H10_3 1_555 1_555
O19_6 Cu9_6 1_555 1_555
O21_3 Cu9_6 1_555 1_555
O22_3 Cu9_6 1_555 1_555
Cu9_6 Cu10_6 1_555 1_555
Cu7_6 Cu8_6 1_555 1_555
O19_7 Cu8_3 1_555 1_555
O20_4 Cu8_3 1_555 1_555
O19_8 Cu8_4 1_555 1_555
O21_4 Cu8_4 1_555 1_555
O22_4 Cu8_4 1_555 1_555
O19_9 Cu8_5 1_555 1_555
O20_5 Cu8_5 1_555 1_555
O19_10 Cu8_6 1_555 1_555
O21_5 Cu8_6 1_555 1_555
O22_5 Cu8_6 1_555 1_555
O19_11 Cu8 1_555 1_555
O20_6 Cu8 1_555 1_555
O19_12 Cu8_2 1_555 1_555
O21_6 Cu8_2 1_555 1_555
O22_6 Cu8_2 1_555 1_555
O2_7 Cu7_5 1_555 1_555
O16_4 Cu7_5 1_555 1_555
O2_8 Cu7_6 1_555 1_555
O8_4 Cu7_6 1_555 1_555
C10_4 O8_4 1_555 1_555
C11_4 C10_4 1_555 1_555
C12_4 C11_4 1_555 1_555
O21_5 C10_4 1_555 1_555
C13_4 C12_4 1_555 1_555
C14_4 C13_4 1_555 1_555
O10_4 C14_4 1_555 1_555
O11_4 C14_4 1_555 1_555
C15_4 C13_4 1_555 1_555
C16_4 C15_4 1_555 1_555
C17_4 C16_4 1_555 1_555
O21 C17_4 1_555 1_555
O13_4 C17_4 1_555 1_555
C18_4 C11_4 1_555 1_555
O14_4 Cu7_6 1_555 1_555
Cu7_7 O10_4 1_555 1_555
Cu8_7 O11_4 1_555 1_555
Cu10_2 O13_4 1_555 1_555
C16_4 C18_4 1_555 1_555
Cu7_7 Cu8_7 1_555 1_555
C18_4 H5_4 1_555 1_555
C12_4 H9_4 1_555 1_555
C15_4 H10_4 1_555 1_555
Cu7_8 Cu8_8 1_555 1_555
O17_4 Cu10_5 1_555 1_555
O18_7 Cu10_5 1_555 1_555
C10_5 O21_3 1_555 1_555
C11_5 C10_5 1_555 1_555
C12_5 C11_5 1_555 1_555
O9_4 C10_5 1_555 1_555
C13_5 C12_5 1_555 1_555
C14_5 C13_5 1_555 1_555
O10_5 C14_5 1_555 1_555
O21_4 C14_5 1_555 1_555
C15_5 C13_5 1_555 1_555
C16_5 C15_5 1_555 1_555
C17_5 C16_5 1_555 1_555
O12_4 C17_5 1_555 1_555
O13_5 C17_5 1_555 1_555
C18_5 C11_5 1_555 1_555
O15_4 Cu10_6 1_555 1_555
Cu7_4 O10_5 1_555 1_555
Cu9_7 O12_4 1_555 1_555
Cu10_7 O13_5 1_555 1_555
O18_8 Cu10_6 1_555 1_555
O19_13 Cu9_7 1_555 1_555
O20_7 Cu9_7 1_555 1_555
O9_4 Cu10_6 1_555 1_555
C16_5 C18_5 1_555 1_555
Cu9_7 Cu10_7 1_555 1_555
C18_5 H5_5 1_555 1_555
C12_5 H9_5 1_555 1_555
C15_5 H10_5 1_555 1_555
O19_14 Cu9_8 1_555 1_555
O21_7 Cu9_8 1_555 1_555
O22_7 Cu9_8 1_555 1_555
Cu9_8 Cu10_8 1_555 1_555
O19_15 Cu8_7 1_555 1_555
O20_8 Cu8_7 1_555 1_555
O19_16 Cu8_8 1_555 1_555
O21_8 Cu8_8 1_555 1_555
O22_8 Cu8_8 1_555 1_555
O2_9 Cu7 1_555 1_555
O16_5 Cu7 1_555 1_555
O2_10 Cu7_2 1_555 1_555
O8_5 Cu7_2 1_555 1_555
C10_6 O8_5 1_555 1_555
C11_6 C10_6 1_555 1_555
C12_6 C11_6 1_555 1_555
O21_6 C10_6 1_555 1_555
C13_6 C12_6 1_555 1_555
C14_6 C13_6 1_555 1_555
O10_6 C14_6 1_555 1_555
O11_5 C14_6 1_555 1_555
C15_6 C13_6 1_555 1_555
C16_6 C15_6 1_555 1_555
C17_6 C16_6 1_555 1_555
O21_2 C17_6 1_555 1_555
O13_6 C17_6 1_555 1_555
C18_6 C11_6 1_555 1_555
O14_5 Cu7_2 1_555 1_555
Cu7_9 O10_6 1_555 1_555
Cu8_9 O11_5 1_555 1_555
Cu10_4 O13_6 1_555 1_555
C16_6 C18_6 1_555 1_555
Cu7_9 Cu8_9 1_555 1_555
C18_6 H5_6 1_555 1_555
C12_6 H9_6 1_555 1_555
C15_6 H10_6 1_555 1_555
Cu7_10 Cu8_10 1_555 1_555
O17_5 Cu10 1_555 1_555
O18_9 Cu10 1_555 1_555
O15_5 Cu10_2 1_555 1_555
O18_10 Cu10_2 1_555 1_555
O19_17 Cu7_7 1_555 1_555
O20_9 Cu7_7 1_555 1_555
O19_18 Cu7_8 1_555 1_555
O21_9 Cu7_8 1_555 1_555
O22_9 Cu7_8 1_555 1_555
O19_19 Cu8_9 1_555 1_555
O20_10 Cu8_9 1_555 1_555
O19_20 Cu8_10 1_555 1_555
O21_10 Cu8_10 1_555 1_555
O22_10 Cu8_10 1_555 1_555
O17_6 Cu10_3 1_555 1_555
O18_11 Cu10_3 1_555 1_555
O15_6 Cu10_4 1_555 1_555
O18_12 Cu10_4 1_555 1_555
O19_21 Cu7_9 1_555 1_555
O20_11 Cu7_9 1_555 1_555
O19_22 Cu7_10 1_555 1_555
O21_11 Cu7_10 1_555 1_555
O22_11 Cu7_10 1_555 1_555
O2_11 Cu7_3 1_555 1_555
O16_6 Cu7_3 1_555 1_555
O2_12 Cu7_4 1_555 1_555
O14_6 Cu7_4 1_555 1_555
O19_23 Cu10_7 1_555 1_555
O20_12 Cu10_7 1_555 1_555
O19_24 Cu10_8 1_555 1_555
O21_12 Cu10_8 1_555 1_555
O22_12 Cu10_8 1_555 1_555
Cu1_3 O1_2 1_555 1_555
O1_2 C1_2 1_555 1_555
O2_13 Cu1_3 1_555 1_555
C1_2 C2_2 1_555 1_555
C2_2 C3_2 1_555 1_555
C3_2 C4_2 1_555 1_555
O3_2 C1_2 1_555 1_555
C4_2 C5_2 1_555 1_555
C5_2 O4_2 1_555 1_555
O4_2 Cu3_3 1_555 1_555
O5_2 C5_2 1_555 1_555
C6_2 C4_2 1_555 1_555
C7_2 C6_2 1_555 1_555
C8_2 C7_2 1_555 1_555
O20_10 C8_2 1_555 1_555
O20_11 C8_2 1_555 1_555
C9_2 C2_2 1_555 1_555
O8_6 Cu1_3 1_555 1_555
C10_7 O8_6 1_555 1_555
C11_7 C10_7 1_555 1_555
C12_7 C11_7 1_555 1_555
O9_5 C10_7 1_555 1_555
C13_7 C12_7 1_555 1_555
C14_7 C13_7 1_555 1_555
O10_7 C14_7 1_555 1_555
O11_6 C14_7 1_555 1_555
C15_7 C13_7 1_555 1_555
C16_7 C15_7 1_555 1_555
C17_7 C16_7 1_555 1_555
O20_4 C17_7 1_555 1_555
O16_6 C17_7 1_555 1_555
C18_7 C11_7 1_555 1_555
O14_7 Cu1_3 1_555 1_555
O15_7 Cu2_3 1_555 1_555
O16_7 Cu1_3 1_555 1_555
O17_7 Cu2_3 1_555 1_555
Cu2_3 Cu1_3 1_555 1_555
Cu3_3 Cu4_3 1_555 1_555
Cu4_3 O5_2 1_555 1_555
Cu7_11 O10_7 1_555 1_555
Cu8_11 O11_6 1_555 1_555
O18_13 Cu2_3 1_555 1_555
O3_2 Cu2_3 1_555 1_555
C7_2 C9_2 1_555 1_555
O9_5 Cu2_3 1_555 1_555
C16_7 C18_7 1_555 1_555
Cu7_11 Cu8_11 1_555 1_555
C6_2 H1_2 1_555 1_555
C3_2 H4_2 1_555 1_555
C18_7 H5_7 1_555 1_555
C9_2 H8_2 1_555 1_555
C12_7 H9_7 1_555 1_555
C15_7 H10_7 1_555 1_555
O2_14 Cu3_3 1_555 1_555
O8_7 Cu3_3 1_555 1_555
C10_8 O8_7 1_555 1_555
C11_8 C10_8 1_555 1_555
C12_8 C11_8 1_555 1_555
O9_6 C10_8 1_555 1_555
C13_8 C12_8 1_555 1_555
C14_8 C13_8 1_555 1_555
O17_5 C14_8 1_555 1_555
O20 C14_8 1_555 1_555
C15_8 C13_8 1_555 1_555
C16_8 C15_8 1_555 1_555
C17_8 C16_8 1_555 1_555
O12_5 C17_8 1_555 1_555
O13_7 C17_8 1_555 1_555
C18_8 C11_8 1_555 1_555
O14_8 Cu3_3 1_555 1_555
O15_8 Cu4_3 1_555 1_555
O16_8 Cu3_3 1_555 1_555
O17_8 Cu4_3 1_555 1_555
Cu9_9 O12_5 1_555 1_555
Cu10_9 O13_7 1_555 1_555
O18_14 Cu4_3 1_555 1_555
O19_25 Cu9_9 1_555 1_555
O20_13 Cu9_9 1_555 1_555
O21_13 Cu9_9 1_555 1_555
O22_13 Cu9_9 1_555 1_555
O9_6 Cu4_3 1_555 1_555
C16_8 C18_8 1_555 1_555
Cu9_9 Cu10_9 1_555 1_555
C18_8 H5_8 1_555 1_555
C12_8 H9_8 1_555 1_555
C15_8 H10_8 1_555 1_555
C10_9 O22_10 1_555 1_555
C11_9 C10_9 1_555 1_555
C12_9 C11_9 1_555 1_555
O22_11 C10_9 1_555 1_555
C13_9 C12_9 1_555 1_555
C14_9 C13_9 1_555 1_555
O10_8 C14_9 1_555 1_555
O11_7 C14_9 1_555 1_555
C15_9 C13_9 1_555 1_555
C16_9 C15_9 1_555 1_555
C17_9 C16_9 1_555 1_555
O12_6 C17_9 1_555 1_555
O13_8 C17_9 1_555 1_555
C18_9 C11_9 1_555 1_555
Cu7_12 O10_8 1_555 1_555
Cu8_12 O11_7 1_555 1_555
Cu9_10 O12_6 1_555 1_555
Cu10_10 O13_8 1_555 1_555
O19_26 Cu9_10 1_555 1_555
O20_14 Cu9_10 1_555 1_555
O21_14 Cu9_10 1_555 1_555
O22_14 Cu9_10 1_555 1_555
C16_9 C18_9 1_555 1_555
Cu7_12 Cu8_12 1_555 1_555
Cu9_10 Cu10_10 1_555 1_555
C18_9 H5_9 1_555 1_555
C12_9 H9_9 1_555 1_555
C15_9 H10_9 1_555 1_555
O19_27 Cu8_12 1_555 1_555
O20_15 Cu8_12 1_555 1_555
O21_15 Cu8_12 1_555 1_555
O22_15 Cu8_12 1_555 1_555
O19_28 Cu8_11 1_555 1_555
O20_16 Cu8_11 1_555 1_555
O21_16 Cu8_11 1_555 1_555
O22_16 Cu8_11 1_555 1_555
O2_15 Cu7_12 1_555 1_555
O8_8 Cu7_12 1_555 1_555
C10_10 O8_8 1_555 1_555
C11_10 C10_10 1_555 1_555
C12_10 C11_10 1_555 1_555
O21_15 C10_10 1_555 1_555
C13_10 C12_10 1_555 1_555
C14_10 C13_10 1_555 1_555
O10_9 C14_10 1_555 1_555
O11_8 C14_10 1_555 1_555
C15_10 C13_10 1_555 1_555
C16_10 C15_10 1_555 1_555
C17_10 C16_10 1_555 1_555
O22_4 C17_10 1_555 1_555
O14_6 C17_10 1_555 1_555
C18_10 C11_10 1_555 1_555
O14_9 Cu7_12 1_555 1_555
O16_9 Cu7_12 1_555 1_555
Cu7_13 O10_9 1_555 1_555
Cu8_13 O11_8 1_555 1_555
C16_10 C18_10 1_555 1_555
Cu7_13 Cu8_13 1_555 1_555
C18_10 H5_10 1_555 1_555
C12_10 H9_10 1_555 1_555
C15_10 H10_10 1_555 1_555
C10_11 O21_14 1_555 1_555
C11_11 C10_11 1_555 1_555
C12_11 C11_11 1_555 1_555
O9_7 C10_11 1_555 1_555
C13_11 C12_11 1_555 1_555
C14_11 C13_11 1_555 1_555
O15_5 C14_11 1_555 1_555
O22 C14_11 1_555 1_555
C15_11 C13_11 1_555 1_555
C16_11 C15_11 1_555 1_555
C17_11 C16_11 1_555 1_555
O12_7 C17_11 1_555 1_555
O13_9 C17_11 1_555 1_555
C18_11 C11_11 1_555 1_555
O15_9 Cu10_10 1_555 1_555
O17_9 Cu10_10 1_555 1_555
Cu9_11 O12_7 1_555 1_555
Cu10_11 O13_9 1_555 1_555
O18_15 Cu10_10 1_555 1_555
O19_29 Cu9_11 1_555 1_555
O20_17 Cu9_11 1_555 1_555
O21_17 Cu9_11 1_555 1_555
O22_17 Cu9_11 1_555 1_555
O9_7 Cu10_10 1_555 1_555
C16_11 C18_11 1_555 1_555
Cu9_11 Cu10_11 1_555 1_555
C18_11 H5_11 1_555 1_555
C12_11 H9_11 1_555 1_555
C15_11 H10_11 1_555 1_555
O19_30 Cu8_13 1_555 1_555
O20_18 Cu8_13 1_555 1_555
O21_18 Cu8_13 1_555 1_555
O22_18 Cu8_13 1_555 1_555
O2_16 Cu7_11 1_555 1_555
O8_9 Cu7_11 1_555 1_555
C10_12 O8_9 1_555 1_555
C11_12 C10_12 1_555 1_555
C12_12 C11_12 1_555 1_555
O21_16 C10_12 1_555 1_555
C13_12 C12_12 1_555 1_555
C14_12 C13_12 1_555 1_555
O17_3 C14_12 1_555 1_555
O16_3 C14_12 1_555 1_555
C15_12 C13_12 1_555 1_555
C16_12 C15_12 1_555 1_555
C17_12 C16_12 1_555 1_555
O21_13 C17_12 1_555 1_555
O13_10 C17_12 1_555 1_555
C18_12 C11_12 1_555 1_555
O14_10 Cu7_11 1_555 1_555
O16_10 Cu7_11 1_555 1_555
Cu10_9 O13_10 1_555 1_555
C16_12 C18_12 1_555 1_555
C18_12 H5_12 1_555 1_555
C12_12 H9_12 1_555 1_555
C15_12 H10_12 1_555 1_555
O19_31 Cu7_13 1_555 1_555
O20_19 Cu7_13 1_555 1_555
O21_19 Cu7_13 1_555 1_555
O22_19 Cu7_13 1_555 1_555
O15_10 Cu10_9 1_555 1_555
O17_10 Cu10_9 1_555 1_555
O18_16 Cu10_9 1_555 1_555
O19_32 Cu10_11 1_555 1_555
O20_20 Cu10_11 1_555 1_555
O21_20 Cu10_11 1_555 1_555
O22_20 Cu10_11 1_555 1_555
O20_12 C1_3 1_555 1_555
C1_3 C2_3 1_555 1_555
C2_3 C3_3 1_555 1_555
C3_3 C4_3 1_555 1_555
O20_7 C1_3 1_555 1_555
C4_3 C5_3 1_555 1_555
C5_3 O20_18 1_555 1_555
O20_19 C5_3 1_555 1_555
C6_3 C4_3 1_555 1_555
C7_3 C6_3 1_555 1_555
C8_3 C7_3 1_555 1_555
O6_2 C8_3 1_555 1_555
O7_2 C8_3 1_555 1_555
C9_3 C2_3 1_555 1_555
Cu5_3 O6_2 1_555 1_555
Cu6_3 O7_2 1_555 1_555
C7_3 C9_3 1_555 1_555
Cu5_3 Cu6_3 1_555 1_555
C6_3 H1_3 1_555 1_555
C3_3 H4_3 1_555 1_555
C9_3 H8_3 1_555 1_555
C10_13 O22_12 1_555 1_555
C11_13 C10_13 1_555 1_555
C12_13 C11_13 1_555 1_555
O22_7 C10_13 1_555 1_555
C13_13 C12_13 1_555 1_555
C14_13 C13_13 1_555 1_555
O17_9 C14_13 1_555 1_555
O20_14 C14_13 1_555 1_555
C15_13 C13_13 1_555 1_555
C16_13 C15_13 1_555 1_555
C17_13 C16_13 1_555 1_555
O12_8 C17_13 1_555 1_555
O13_11 C17_13 1_555 1_555
C18_13 C11_13 1_555 1_555
Cu9_12 O12_8 1_555 1_555
Cu10_12 O13_11 1_555 1_555
O19_33 Cu9_12 1_555 1_555
O20_21 Cu9_12 1_555 1_555
O21_21 Cu9_12 1_555 1_555
O22_21 Cu9_12 1_555 1_555
C16_13 C18_13 1_555 1_555
Cu9_12 Cu10_12 1_555 1_555
C18_13 H5_13 1_555 1_555
C12_13 H9_13 1_555 1_555
C15_13 H10_13 1_555 1_555
C10_14 O22_18 1_555 1_555
C11_14 C10_14 1_555 1_555
C12_14 C11_14 1_555 1_555
O22_19 C10_14 1_555 1_555
C13_14 C12_14 1_555 1_555
C14_14 C13_14 1_555 1_555
O10_10 C14_14 1_555 1_555
O11_9 C14_14 1_555 1_555
C15_14 C13_14 1_555 1_555
C16_14 C15_14 1_555 1_555
C17_14 C16_14 1_555 1_555
O20_5 C17_14 1_555 1_555
O16_4 C17_14 1_555 1_555
C18_14 C11_14 1_555 1_555
Cu7_14 O10_10 1_555 1_555
Cu8_14 O11_9 1_555 1_555
C16_14 C18_14 1_555 1_555
Cu7_14 Cu8_14 1_555 1_555
C18_14 H5_14 1_555 1_555
C12_14 H9_14 1_555 1_555
C15_14 H10_14 1_555 1_555
O2_17 Cu5_3 1_555 1_555
O8_10 Cu5_3 1_555 1_555
C10_15 O8_10 1_555 1_555
C11_15 C10_15 1_555 1_555
C12_15 C11_15 1_555 1_555
O9_8 C10_15 1_555 1_555
C13_15 C12_15 1_555 1_555
C14_15 C13_15 1_555 1_555
O17_6 C14_15 1_555 1_555
O20_2 C14_15 1_555 1_555
C15_15 C13_15 1_555 1_555
C16_15 C15_15 1_555 1_555
C17_15 C16_15 1_555 1_555
O20_16 C17_15 1_555 1_555
O16_10 C17_15 1_555 1_555
C18_15 C11_15 1_555 1_555
O14_11 Cu5_3 1_555 1_555
O15_11 Cu6_3 1_555 1_555
O16_11 Cu5_3 1_555 1_555
O17_11 Cu6_3 1_555 1_555
O18_17 Cu6_3 1_555 1_555
O9_8 Cu6_3 1_555 1_555
C16_15 C18_15 1_555 1_555
C18_15 H5_15 1_555 1_555
C12_15 H9_15 1_555 1_555
C15_15 H10_15 1_555 1_555
O19_34 Cu8_14 1_555 1_555
O20_22 Cu8_14 1_555 1_555
O21_22 Cu8_14 1_555 1_555
O22_22 Cu8_14 1_555 1_555
C10_16 O15_6 1_555 1_555
C11_16 C10_16 1_555 1_555
C12_16 C11_16 1_555 1_555
O22_2 C10_16 1_555 1_555
C13_16 C12_16 1_555 1_555
C14_16 C13_16 1_555 1_555
O17_8 C14_16 1_555 1_555
O16_8 C14_16 1_555 1_555
C15_16 C13_16 1_555 1_555
C16_16 C15_16 1_555 1_555
C17_16 C16_16 1_555 1_555
O21_21 C17_16 1_555 1_555
O13_12 C17_16 1_555 1_555
C18_16 C11_16 1_555 1_555
Cu10_12 O13_12 1_555 1_555
C16_16 C18_16 1_555 1_555
C18_16 H5_16 1_555 1_555
C12_16 H9_16 1_555 1_555
C15_16 H10_16 1_555 1_555
C10_17 O22_16 1_555 1_555
C11_17 C10_17 1_555 1_555
C12_17 C11_17 1_555 1_555
O14_10 C10_17 1_555 1_555
C13_17 C12_17 1_555 1_555
C14_17 C13_17 1_555 1_555
O10_11 C14_17 1_555 1_555
O21_22 C14_17 1_555 1_555
C15_17 C13_17 1_555 1_555
C16_17 C15_17 1_555 1_555
C17_17 C16_17 1_555 1_555
O17 C17_17 1_555 1_555
O16 C17_17 1_555 1_555
C18_17 C11_17 1_555 1_555
Cu7_14 O10_11 1_555 1_555
C16_17 C18_17 1_555 1_555
C18_17 H5_17 1_555 1_555
C12_17 H9_17 1_555 1_555
C15_17 H10_17 1_555 1_555
C10_18 O15_9 1_555 1_555
C11_18 C10_18 1_555 1_555
C12_18 C11_18 1_555 1_555
O22_14 C10_18 1_555 1_555
C13_18 C12_18 1_555 1_555
C14_18 C13_18 1_555 1_555
O10_12 C14_18 1_555 1_555
O11_10 C14_18 1_555 1_555
C15_18 C13_18 1_555 1_555
C16_18 C15_18 1_555 1_555
C17_18 C16_18 1_555 1_555
O22_5 C17_18 1_555 1_555
O14_4 C17_18 1_555 1_555
C18_18 C11_18 1_555 1_555
Cu7_15 O10_12 1_555 1_555
Cu8_15 O11_10 1_555 1_555
C16_18 C18_18 1_555 1_555
Cu7_15 Cu8_15 1_555 1_555
C18_18 H5_18 1_555 1_555
C12_18 H9_18 1_555 1_555
C15_18 H10_18 1_555 1_555
O15_12 Cu10_12 1_555 1_555
O17_12 Cu10_12 1_555 1_555
O18_18 Cu10_12 1_555 1_555
O19_35 Cu8_15 1_555 1_555
O20_23 Cu8_15 1_555 1_555
O21_23 Cu8_15 1_555 1_555
O22_23 Cu8_15 1_555 1_555
O19_36 Cu7_15 1_555 1_555
O20_24 Cu7_15 1_555 1_555
O21_24 Cu7_15 1_555 1_555
O22_24 Cu7_15 1_555 1_555
O2_18 Cu7_14 1_555 1_555
O14_12 Cu7_14 1_555 1_555
O16_12 Cu7_14 1_555 1_555
O20_20 C1_4 1_555 1_555
C1_4 C2_4 1_555 1_555
C2_4 C3_4 1_555 1_555
C3_4 C4_4 1_555 1_555
O20_17 C1_4 1_555 1_555
C4_4 C5_4 1_555 1_555
C5_4 O20_8 1_555 1_555
O20_9 C5_4 1_555 1_555
C6_4 C4_4 1_555 1_555
C7_4 C6_4 1_555 1_555
C8_4 C7_4 1_555 1_555
O20_23 C8_4 1_555 1_555
O20_24 C8_4 1_555 1_555
C9_4 C2_4 1_555 1_555
C10_19 O22_20 1_555 1_555
C11_19 C10_19 1_555 1_555
C12_19 C11_19 1_555 1_555
O22_17 C10_19 1_555 1_555
C13_19 C12_19 1_555 1_555
C14_19 C13_19 1_555 1_555
O17_4 C14_19 1_555 1_555
O20_3 C14_19 1_555 1_555
C15_19 C13_19 1_555 1_555
C16_19 C15_19 1_555 1_555
C17_19 C16_19 1_555 1_555
O20_22 C17_19 1_555 1_555
O16_12 C17_19 1_555 1_555
C18_19 C11_19 1_555 1_555
C7_4 C9_4 1_555 1_555
C16_19 C18_19 1_555 1_555
C6_4 H1_4 1_555 1_555
C3_4 H4_4 1_555 1_555
C18_19 H5_19 1_555 1_555
C9_4 H8_4 1_555 1_555
C12_19 H9_19 1_555 1_555
C15_19 H10_19 1_555 1_555
C10_20 O22_8 1_555 1_555
C11_20 C10_20 1_555 1_555
C12_20 C11_20 1_555 1_555
O22_9 C10_20 1_555 1_555
C13_20 C12_20 1_555 1_555
C14_20 C13_20 1_555 1_555
O17_12 C14_20 1_555 1_555
O20_21 C14_20 1_555 1_555
C15_20 C13_20 1_555 1_555
C16_20 C15_20 1_555 1_555
C17_20 C16_20 1_555 1_555
O20_15 C17_20 1_555 1_555
O16_9 C17_20 1_555 1_555
C18_20 C11_20 1_555 1_555
C16_20 C18_20 1_555 1_555
C18_20 H5_20 1_555 1_555
C12_20 H9_20 1_555 1_555
C15_20 H10_20 1_555 1_555
C10_21 O22_23 1_555 1_555
C11_21 C10_21 1_555 1_555
C12_21 C11_21 1_555 1_555
O22_24 C10_21 1_555 1_555
C13_21 C12_21 1_555 1_555
C14_21 C13_21 1_555 1_555
O17_10 C14_21 1_555 1_555
O20_13 C14_21 1_555 1_555
C15_21 C13_21 1_555 1_555
C16_21 C15_21 1_555 1_555
C17_21 C16_21 1_555 1_555
O20_6 C17_21 1_555 1_555
O16_5 C17_21 1_555 1_555
C18_21 C11_21 1_555 1_555
C16_21 C18_21 1_555 1_555
C18_21 H5_21 1_555 1_555
C12_21 H9_21 1_555 1_555
C15_21 H10_21 1_555 1_555
C10_22 O15_10 1_555 1_555
C11_22 C10_22 1_555 1_555
C12_22 C11_22 1_555 1_555
O22_13 C10_22 1_555 1_555
C13_22 C12_22 1_555 1_555
C14_22 C13_22 1_555 1_555
O17_2 C14_22 1_555 1_555
O16_2 C14_22 1_555 1_555
C15_22 C13_22 1_555 1_555
C16_22 C15_22 1_555 1_555
C17_22 C16_22 1_555 1_555
O22_22 C17_22 1_555 1_555
O14_12 C17_22 1_555 1_555
C18_22 C11_22 1_555 1_555
C16_22 C18_22 1_555 1_555
C18_22 H5_22 1_555 1_555
C12_22 H9_22 1_555 1_555
C15_22 H10_22 1_555 1_555
C10_23 O22_6 1_555 1_555
C11_23 C10_23 1_555 1_555
C12_23 C11_23 1_555 1_555
O14_5 C10_23 1_555 1_555
C13_23 C12_23 1_555 1_555
C14_23 C13_23 1_555 1_555
O15_12 C14_23 1_555 1_555
O22_21 C14_23 1_555 1_555
C15_23 C13_23 1_555 1_555
C16_23 C15_23 1_555 1_555
C17_23 C16_23 1_555 1_555
O17_7 C17_23 1_555 1_555
O16_7 C17_23 1_555 1_555
C18_23 C11_23 1_555 1_555
C16_23 C18_23 1_555 1_555
C18_23 H5_23 1_555 1_555
C12_23 H9_23 1_555 1_555
C15_23 H10_23 1_555 1_555
C10_24 O15_4 1_555 1_555
C11_24 C10_24 1_555 1_555
C12_24 C11_24 1_555 1_555
O22_3 C10_24 1_555 1_555
C13_24 C12_24 1_555 1_555
C14_24 C13_24 1_555 1_555
O17_11 C14_24 1_555 1_555
O16_11 C14_24 1_555 1_555
C15_24 C13_24 1_555 1_555
C16_24 C15_24 1_555 1_555
C17_24 C16_24 1_555 1_555
O22_15 C17_24 1_555 1_555
O14_9 C17_24 1_555 1_555
C18_24 C11_24 1_555 1_555
C16_24 C18_24 1_555 1_555
C18_24 H5_24 1_555 1_555
C12_24 H9_24 1_555 1_555
C15_24 H10_24 1_555 1_555
O21_7 C1_5 1_555 1_555
C1_5 C2_5 1_555 1_555
C2_5 C3_5 1_555 1_555
C3_5 C4_5 1_555 1_555
O21_12 C1_5 1_555 1_555
C4_5 C5_5 1_555 1_555
C5_5 O21_9 1_555 1_555
O21_8 C5_5 1_555 1_555
C6_5 C4_5 1_555 1_555
C7_5 C6_5 1_555 1_555
C8_5 C7_5 1_555 1_555
O21_11 C8_5 1_555 1_555
O21_10 C8_5 1_555 1_555
C9_5 C2_5 1_555 1_555
C7_5 C9_5 1_555 1_555
C6_5 H1_5 1_555 1_555
C3_5 H4_5 1_555 1_555
C9_5 H8_5 1_555 1_555
O21_17 C1_6 1_555 1_555
C1_6 C2_6 1_555 1_555
C2_6 C3_6 1_555 1_555
C3_6 C4_6 1_555 1_555
O21_20 C1_6 1_555 1_555
C4_6 C5_6 1_555 1_555
C5_6 O21_19 1_555 1_555
O21_18 C5_6 1_555 1_555
C6_6 C4_6 1_555 1_555
C7_6 C6_6 1_555 1_555
C8_6 C7_6 1_555 1_555
O15_3 C8_6 1_555 1_555
O14_3 C8_6 1_555 1_555
C9_6 C2_6 1_555 1_555
C7_6 C9_6 1_555 1_555
C6_6 H1_6 1_555 1_555
C3_6 H4_6 1_555 1_555
C9_6 H8_6 1_555 1_555
O15 C1_7 1_555 1_555
C1_7 C2_7 1_555 1_555
C2_7 C3_7 1_555 1_555
C3_7 C4_7 1_555 1_555
O14 C1_7 1_555 1_555
C4_7 C5_7 1_555 1_555
C5_7 O15_8 1_555 1_555
O14_8 C5_7 1_555 1_555
C6_7 C4_7 1_555 1_555
C7_7 C6_7 1_555 1_555
C8_7 C7_7 1_555 1_555
O21_24 C8_7 1_555 1_555
O21_23 C8_7 1_555 1_555
C9_7 C2_7 1_555 1_555
C7_7 C9_7 1_555 1_555
C6_7 H1_7 1_555 1_555
C3_7 H4_7 1_555 1_555
C9_7 H8_7 1_555 1_555
O15_7 C1_8 1_555 1_555
C1_8 C2_8 1_555 1_555
C2_8 C3_8 1_555 1_555
C3_8 C4_8 1_555 1_555
O14_7 C1_8 1_555 1_555
C4_8 C5_8 1_555 1_555
C5_8 O15_2 1_555 1_555
O14_2 C5_8 1_555 1_555
C6_8 C4_8 1_555 1_555
C7_8 C6_8 1_555 1_555
C8_8 C7_8 1_555 1_555
O15_11 C8_8 1_555 1_555
O14_11 C8_8 1_555 1_555
C9_8 C2_8 1_555 1_555
C7_8 C9_8 1_555 1_555
C6_8 H1_8 1_555 1_555
C3_8 H4_8 1_555 1_555
C9_8 H8_8 1_555 1_555

#END
