
###############################################################################
#
# This file contains modified crystal structure data generated from the
# MOF subset of the Cambridge Structural Database (CSD) v543 
# hosted by the Cambridge Crystallographic Data Centre (CCDC).
#
# This work is licensed under the Creative Commons
# Attribution-NonCommercial-ShareAlike 4.0 International License.
# To view a copy of this license, visit
# http://creativecommons.org/licenses/by-nc-sa/4.0/
# or send a letter to
# Creative Commons, PO Box 1866, Mountain View, CA 94042, USA.
#
# CIF created using the CSD Python API on 29 September 2022
# The structure has been converted into the P1 space group
# The structure has a 3D framework
# The original CSD entry IKEVIG is in the monoclinic crystal system
# The framework has been calculated to contain at least 10.0% void space
# The void calculation uses a probe of radius 1.32A, grid spacing 0.4
# The framework is charged, counterions have been retained in the structure
#
###############################################################################

data_IKEVIG
_chemical_formula_moiety         '(C160 H80 Li2 O50 Zn4 2-)n'
_symmetry_cell_setting           triclinic
_symmetry_space_group_name_H-M   'P 1'
_symmetry_Int_Tables_number      1
_space_group_name_Hall           'P 1'
loop_
_symmetry_equiv_pos_site_id
_symmetry_equiv_pos_as_xyz
1 x,y,z
_cell_length_a                   15.6794(4)
_cell_length_b                   13.2596(4)
_cell_length_c                   19.9294(6)
_cell_angle_alpha                90
_cell_angle_beta                 104.551(3)
_cell_angle_gamma                90
_cell_volume                     4010.47
loop_
_atom_site_label
_atom_site_type_symbol
_atom_site_fract_x
_atom_site_fract_y
_atom_site_fract_z
H12 H 0.005780 0.464789 0.584212
Zn4 Zn 0.01627(2) 0.07327(2) 0.42854(2)
Li3 Li 0.000000 0.0174(6) 0.250000
Zn1 Zn 0.51627(2) 0.57327(2) 0.42854(2)
Li1 Li 0.500000 0.5174(6) 0.250000
O1 O 0.40436(15) 0.5158(2) 0.38241(13)
O2 O 0.43831(19) 0.4291(2) 0.29693(14)
O3 O 0.08144(15) 0.18504(17) 0.40439(13)
O4 O 0.08336(17) 0.1034(2) 0.30754(13)
C1 C 0.3913(2) 0.4466(3) 0.33681(17)
C2 C 0.1083(2) 0.1720(2) 0.34961(17)
C3 C 0.1774(2) 0.2456(3) 0.34055(17)
C4 C 0.2394(3) 0.2715(4) 0.3987(2)
H1 H 0.236641 0.243379 0.441951
C5 C 0.3081(3) 0.3394(4) 0.3962(2)
H2 H 0.350502 0.356705 0.437711
C6 C 0.3137(3) 0.3798(3) 0.33519(18)
C7 C 0.2506(2) 0.3551(3) 0.27278(16)
C8 C 0.2514(3) 0.4012(3) 0.20820(19)
H3 H 0.296679 0.447791 0.206107
C9 C 0.1876(3) 0.3791(4) 0.1491(2)
H4 H 0.188494 0.411250 0.106742
C10 C 0.1208(3) 0.3091(4) 0.1509(2)
H5 H 0.077628 0.293209 0.109547
C11 C 0.1178(3) 0.2635(3) 0.21217(18)
H6 H 0.072388 0.216250 0.212654
C12 C 0.1816(2) 0.2861(3) 0.27496(16)
O5 O 0.61042(15) 0.47355(18) 0.45870(12)
O6 O 0.53317(15) 0.35838(17) 0.50005(12)
C13 C 0.6013(2) 0.3880(3) 0.48307(17)
C14 C 0.6778(3) 0.3152(3) 0.4915(2)
C15 C 0.6585(3) 0.2093(3) 0.4740(2)
C16 C 0.5659(4) 0.1653(5) 0.4467(4)
H7 H 0.516333 0.208785 0.439391
C17 C 0.5526(4) 0.0603(5) 0.4318(5)
H8 H 0.494220 0.035211 0.415788
C19 C 0.7111(4) 0.0313(5) 0.4613(5)
C20 C 0.7319(3) 0.1413(4) 0.4819(2)
O7 O 0.88958(15) 0.02645(18) 0.54130(12)
O8 O 0.96683(15) 0.14162(17) 0.49995(12)
C21 C 0.8987(2) 0.1120(3) 0.51693(17)
C22 C 0.8222(3) 0.1848(3) 0.5085(2)
C23 C 0.8415(3) 0.2907(3) 0.5260(2)
C24 C 0.9341(4) 0.3347(5) 0.5533(4)
H11 H 0.983667 0.291215 0.560609
C25 C 0.9474(4) 0.4397(5) 0.5682(5)
C26 C 0.8780(5) 0.5049(5) 0.5600(5)
H13 H 0.888830 0.574892 0.568323
C27 C 0.7889(4) 0.4687(5) 0.5387(5)
H14 H 0.741787 0.514219 0.537484
C28 C 0.7681(3) 0.3587(4) 0.5181(2)
Zn2 Zn 0.48373(2) 0.57327(2) 0.07146(2)
O9 O 0.59564(15) 0.5158(2) 0.11759(13)
O10 O 0.56169(19) 0.4291(2) 0.20307(14)
O11 O 0.91856(15) 0.18504(17) 0.09561(13)
O12 O 0.91664(17) 0.1034(2) 0.19246(13)
C29 C 0.6087(2) 0.4466(3) 0.16319(17)
C30 C 0.8917(2) 0.1720(2) 0.15039(17)
C31 C 0.8226(2) 0.2456(3) 0.15945(17)
C32 C 0.7606(3) 0.2715(4) 0.1013(2)
H15 H 0.763359 0.243379 0.058049
C33 C 0.6919(3) 0.3394(4) 0.1038(2)
H16 H 0.649498 0.356705 0.062289
C34 C 0.6863(3) 0.3798(3) 0.16481(18)
C35 C 0.7494(2) 0.3551(3) 0.22722(16)
C36 C 0.7486(3) 0.4012(3) 0.29180(19)
H17 H 0.703321 0.447791 0.293893
C37 C 0.8124(3) 0.3791(4) 0.3509(2)
H18 H 0.811506 0.411250 0.393258
C38 C 0.8792(3) 0.3091(4) 0.3491(2)
H19 H 0.922372 0.293209 0.390453
C39 C 0.8822(3) 0.2635(3) 0.28783(18)
H20 H 0.927612 0.216250 0.287346
C40 C 0.8184(2) 0.2861(3) 0.22504(16)
Zn5 Zn 0.98373(2) 0.07327(2) 0.07146(2)
Zn6 Zn 0.48373(2) 0.42673(2) 0.57146(2)
Li3_2 Li 1.000000 0.0174(6) 0.250000
O13 O 0.58144(15) 0.68504(17) 0.40439(13)
O14 O 0.41856(15) 0.68504(17) 0.09561(13)
O15 O 0.58336(17) 0.6034(2) 0.30754(13)
O16 O 0.41664(17) 0.6034(2) 0.19246(13)
O17 O 0.38958(15) 0.47355(18) 0.04130(12)
O18 O 0.46683(15) 0.64162(17) 0.49995(12)
O19 O 0.53317(15) 0.64162(17) 0.00005(12)
O19_2 O 0.53317(15) 0.64162(17) 1.00005(12)
C18 C 0.6220(5) 0.9951(5) 0.4400(5)
H9 H 0.611170 0.925108 0.431677
H10 H 0.758213 0.985781 0.462516
Zn7 Zn 0.98373(2) 0.92673(2) 0.57146(2)
O6_2 O 0.46683(15) 0.35838(17) -0.00005(12)
C13_2 C 0.3987(2) 0.3880(3) 0.01693(17)
C14_2 C 0.3222(3) 0.3152(3) 0.0085(2)
C15_2 C 0.3415(3) 0.2093(3) 0.0260(2)
C16_2 C 0.4341(4) 0.1653(5) 0.0533(4)
H7_2 H 0.483667 0.208785 0.060609
C17_2 C 0.4474(4) 0.0603(5) 0.0682(5)
H8_2 H 0.505780 0.035211 0.084212
C19_2 C 0.2889(4) 0.0313(5) 0.0387(5)
C20_2 C 0.2681(3) 0.1413(4) 0.0181(2)
O8_2 O 0.03317(15) 0.14162(17) 0.00005(12)
O6_3 O 0.46683(15) 0.35838(17) 0.99995(12)
O7_2 O 0.11042(15) 0.02645(18) 0.95870(12)
O8_3 O 0.03317(15) 0.14162(17) 1.00005(12)
C21_2 C 0.1013(2) 0.1120(3) 0.98307(17)
C22_2 C 0.1778(3) 0.1848(3) 0.9915(2)
C23_2 C 0.1585(3) 0.2907(3) 0.9740(2)
C24_2 C 0.0659(4) 0.3347(5) 0.9467(4)
H11_2 H 0.016333 0.291215 0.939391
C25_2 C 0.0526(4) 0.4397(5) 0.9318(5)
C26_2 C 0.1220(5) 0.5049(5) 0.9400(5)
H13_2 H 0.111170 0.574892 0.931677
C27_2 C 0.2111(4) 0.4687(5) 0.9613(5)
H14_2 H 0.258213 0.514219 0.962516
C28_2 C 0.2319(3) 0.3587(4) 0.9819(2)
Zn6_2 Zn 0.51627(2) 0.42673(2) 0.92854(2)
Zn7_2 Zn 0.01627(2) 0.92673(2) 0.92854(2)
H12_2 H 0.994220 0.464789 0.915788
C26_3 C 0.3780(5) 0.0049(5) 0.5600(5)
H13_3 H 0.388830 0.074892 0.568323
H14_3 H 0.241787 0.014219 0.537484
O9_2 O 0.09564(15) 0.0158(2) 0.11759(13)
O5_2 O 0.11042(15) 0.97355(18) 0.45870(12)
O6_4 O 0.03317(15) 0.85838(17) 0.50005(12)
C13_3 C 0.1013(2) 0.8880(3) 0.48307(17)
C14_3 C 0.1778(3) 0.8152(3) 0.4915(2)
C15_3 C 0.1585(3) 0.7093(3) 0.4740(2)
C16_3 C 0.0659(4) 0.6653(5) 0.4467(4)
H7_3 H 0.016333 0.708785 0.439391
C17_3 C 0.0526(4) 0.5603(5) 0.4318(5)
C18_2 C 0.1220(5) 0.4951(5) 0.4400(5)
H9_2 H 0.111170 0.425108 0.431677
C19_3 C 0.2111(4) 0.5313(5) 0.4613(5)
H10_2 H 0.258213 0.485781 0.462516
C20_3 C 0.2319(3) 0.6413(4) 0.4819(2)
O7_3 O 0.38958(15) 0.52645(18) 0.54130(12)
C21_3 C 0.3987(2) 0.6120(3) 0.51693(17)
C22_3 C 0.3222(3) 0.6848(3) 0.5085(2)
C23_3 C 0.3415(3) 0.7907(3) 0.5260(2)
C24_3 C 0.4341(4) 0.8347(5) 0.5533(4)
H11_3 H 0.483667 0.791215 0.560609
C25_3 C 0.4474(4) 0.9397(5) 0.5682(5)
H12_3 H 0.505780 0.964789 0.584212
C27_3 C 0.2889(4) 0.9687(5) 0.5387(5)
C28_3 C 0.2681(3) 0.8587(4) 0.5181(2)
O10_2 O 0.06169(19) 0.9291(2) 0.20307(14)
C29_2 C 0.1087(2) 0.9466(3) 0.16319(17)
C30_2 C 0.3917(2) 0.6720(2) 0.15039(17)
C31_2 C 0.3226(2) 0.7456(3) 0.15945(17)
C32_2 C 0.2606(3) 0.7715(4) 0.1013(2)
H15_2 H 0.263359 0.743379 0.058049
C33_2 C 0.1919(3) 0.8394(4) 0.1038(2)
H16_2 H 0.149498 0.856705 0.062289
C34_2 C 0.1863(3) 0.8798(3) 0.16481(18)
C35_2 C 0.2494(2) 0.8551(3) 0.22722(16)
C36_2 C 0.2486(3) 0.9012(3) 0.29180(19)
H17_2 H 0.203321 0.947791 0.293893
C37_2 C 0.3124(3) 0.8791(4) 0.3509(2)
H18_2 H 0.311506 0.911250 0.393258
C38_2 C 0.3792(3) 0.8091(4) 0.3491(2)
H19_2 H 0.422372 0.793209 0.390453
C39_2 C 0.3822(3) 0.7635(3) 0.28783(18)
H20_2 H 0.427612 0.716250 0.287346
C40_2 C 0.3184(2) 0.7861(3) 0.22504(16)
O1_2 O 0.90436(15) 0.0158(2) 0.38241(13)
O2_2 O 0.93831(19) 0.9291(2) 0.29693(14)
C1_2 C 0.8913(2) 0.9466(3) 0.33681(17)
C2_2 C 0.6083(2) 0.6720(2) 0.34961(17)
C3_2 C 0.6774(2) 0.7456(3) 0.34055(17)
C4_2 C 0.7394(3) 0.7715(4) 0.3987(2)
H1_2 H 0.736641 0.743379 0.441951
C5_2 C 0.8081(3) 0.8394(4) 0.3962(2)
H2_2 H 0.850502 0.856705 0.437711
C6_2 C 0.8137(3) 0.8798(3) 0.33519(18)
C7_2 C 0.7506(2) 0.8551(3) 0.27278(16)
C8_2 C 0.7514(3) 0.9012(3) 0.20820(19)
H3_2 H 0.796679 0.947791 0.206107
C9_2 C 0.6876(3) 0.8791(4) 0.1491(2)
H4_2 H 0.688494 0.911250 0.106742
C10_2 C 0.6208(3) 0.8091(4) 0.1509(2)
H5_2 H 0.577628 0.793209 0.109547
C11_2 C 0.6178(3) 0.7635(3) 0.21217(18)
H6_2 H 0.572388 0.716250 0.212654
C12_2 C 0.6816(2) 0.7861(3) 0.27496(16)
H8_3 H 0.994220 0.535211 0.415788
O17_2 O 0.88958(15) 0.97355(18) 0.04130(12)
H8_4 H 0.005780 0.535211 0.084212
O6_5 O 0.96683(15) 0.85838(17) -0.00005(12)
C13_4 C 0.8987(2) 0.8880(3) 0.01693(17)
C14_4 C 0.8222(3) 0.8152(3) 0.0085(2)
C15_4 C 0.8415(3) 0.7093(3) 0.0260(2)
C16_4 C 0.9341(4) 0.6653(5) 0.0533(4)
H7_4 H 0.983667 0.708785 0.060609
C17_4 C 0.9474(4) 0.5603(5) 0.0682(5)
C18_3 C 0.8780(5) 0.4951(5) 0.0600(5)
H9_3 H 0.888830 0.425108 0.068323
C19_4 C 0.7889(4) 0.5313(5) 0.0387(5)
H10_3 H 0.741787 0.485781 0.037484
C20_4 C 0.7681(3) 0.6413(4) 0.0181(2)
O6_6 O 0.96683(15) 0.85838(17) 0.99995(12)
O7_4 O 0.61042(15) 0.52645(18) 0.95870(12)
C21_4 C 0.6013(2) 0.6120(3) 0.98307(17)
C22_4 C 0.6778(3) 0.6848(3) 0.9915(2)
C23_4 C 0.6585(3) 0.7907(3) 0.9740(2)
C24_4 C 0.5659(4) 0.8347(5) 0.9467(4)
H11_4 H 0.516333 0.791215 0.939391
C25_4 C 0.5526(4) 0.9397(5) 0.9318(5)
H12_4 H 0.494220 0.964789 0.915788
C27_4 C 0.7111(4) 0.9687(5) 0.9613(5)
C28_4 C 0.7319(3) 0.8587(4) 0.9819(2)
Li2 Li 0.000000 0.9826(6) 0.750000
Li1_2 Li 0.500000 0.4826(6) 0.750000
O1_3 O 0.59564(15) 0.4842(2) 0.61759(13)
O2_3 O 0.56169(19) 0.5709(2) 0.70307(14)
O3_2 O 0.91856(15) 0.81496(17) 0.59561(13)
O4_2 O 0.91664(17) 0.8966(2) 0.69246(13)
C1_3 C 0.6087(2) 0.5534(3) 0.66319(17)
C2_3 C 0.8917(2) 0.8280(2) 0.65039(17)
C3_3 C 0.8226(2) 0.7544(3) 0.65945(17)
C4_3 C 0.7606(3) 0.7285(4) 0.6013(2)
H1_3 H 0.763359 0.756621 0.558049
C5_3 C 0.6919(3) 0.6606(4) 0.6038(2)
H2_3 H 0.649498 0.643295 0.562289
C6_3 C 0.6863(3) 0.6202(3) 0.66481(18)
C7_3 C 0.7494(2) 0.6449(3) 0.72722(16)
C8_3 C 0.7486(3) 0.5988(3) 0.79180(19)
H3_3 H 0.703321 0.552209 0.793893
C9_3 C 0.8124(3) 0.6209(4) 0.8509(2)
H4_3 H 0.811506 0.588750 0.893258
C10_3 C 0.8792(3) 0.6909(4) 0.8491(2)
H5_3 H 0.922372 0.706791 0.890453
C11_3 C 0.8822(3) 0.7365(3) 0.78783(18)
H6_3 H 0.927612 0.783750 0.787346
C12_3 C 0.8184(2) 0.7139(3) 0.72504(16)
O9_3 O 0.40436(15) 0.4842(2) 0.88241(13)
O10_3 O 0.43831(19) 0.5709(2) 0.79693(14)
O11_2 O 0.08144(15) 0.81496(17) 0.90439(13)
O12_2 O 0.08336(17) 0.8966(2) 0.80754(13)
C29_3 C 0.3913(2) 0.5534(3) 0.83681(17)
C30_3 C 0.1083(2) 0.8280(2) 0.84961(17)
C31_3 C 0.1774(2) 0.7544(3) 0.84055(17)
C32_3 C 0.2394(3) 0.7285(4) 0.8987(2)
H15_3 H 0.236641 0.756621 0.941951
C33_3 C 0.3081(3) 0.6606(4) 0.8962(2)
H16_3 H 0.350502 0.643295 0.937711
C34_3 C 0.3137(3) 0.6202(3) 0.83519(18)
C35_3 C 0.2506(2) 0.6449(3) 0.77278(16)
C36_3 C 0.2514(3) 0.5988(3) 0.70820(19)
H17_3 H 0.296679 0.552209 0.706107
C37_3 C 0.1876(3) 0.6209(4) 0.6491(2)
H18_3 H 0.188494 0.588750 0.606742
C38_3 C 0.1208(3) 0.6909(4) 0.6509(2)
H19_3 H 0.077628 0.706791 0.609547
C39_3 C 0.1178(3) 0.7365(3) 0.71217(18)
H20_3 H 0.072388 0.783750 0.712654
C40_3 C 0.1816(2) 0.7139(3) 0.77496(16)
Li2_2 Li 1.000000 0.9826(6) 0.750000
O13_2 O 0.41856(15) 0.31496(17) 0.59561(13)
O14_2 O 0.58144(15) 0.31496(17) 0.90439(13)
O15_2 O 0.41664(17) 0.3966(2) 0.69246(13)
O16_2 O 0.58336(17) 0.3966(2) 0.80754(13)
O2_4 O 0.06169(19) 0.0709(2) 0.70307(14)
C1_4 C 0.1087(2) 0.0534(3) 0.66319(17)
C2_4 C 0.3917(2) 0.3280(2) 0.65039(17)
C3_4 C 0.3226(2) 0.2544(3) 0.65945(17)
C4_4 C 0.2606(3) 0.2285(4) 0.6013(2)
H1_4 H 0.263359 0.256621 0.558049
C5_4 C 0.1919(3) 0.1606(4) 0.6038(2)
H2_4 H 0.149498 0.143295 0.562289
C6_4 C 0.1863(3) 0.1202(3) 0.66481(18)
C7_4 C 0.2494(2) 0.1449(3) 0.72722(16)
C8_4 C 0.2486(3) 0.0988(3) 0.79180(19)
H3_4 H 0.203321 0.052209 0.793893
C9_4 C 0.3124(3) 0.1209(4) 0.8509(2)
H4_4 H 0.311506 0.088750 0.893258
C10_4 C 0.3792(3) 0.1909(4) 0.8491(2)
H5_4 H 0.422372 0.206791 0.890453
C11_4 C 0.3822(3) 0.2365(3) 0.78783(18)
H6_4 H 0.427612 0.283750 0.787346
C12_4 C 0.3184(2) 0.2139(3) 0.72504(16)
O1_4 O 0.09564(15) 0.9842(2) 0.61759(13)
O10_4 O 0.93831(19) 0.0709(2) 0.79693(14)
C29_4 C 0.8913(2) 0.0534(3) 0.83681(17)
C30_4 C 0.6083(2) 0.3280(2) 0.84961(17)
C31_4 C 0.6774(2) 0.2544(3) 0.84055(17)
C32_4 C 0.7394(3) 0.2285(4) 0.8987(2)
H15_4 H 0.736641 0.256621 0.941951
C33_4 C 0.8081(3) 0.1606(4) 0.8962(2)
H16_4 H 0.850502 0.143295 0.937711
C34_4 C 0.8137(3) 0.1202(3) 0.83519(18)
C35_4 C 0.7506(2) 0.1449(3) 0.77278(16)
C36_4 C 0.7514(3) 0.0988(3) 0.70820(19)
H17_4 H 0.796679 0.052209 0.706107
C37_4 C 0.6876(3) 0.1209(4) 0.6491(2)
H18_4 H 0.688494 0.088750 0.606742
C38_4 C 0.6208(3) 0.1909(4) 0.6509(2)
H19_4 H 0.577628 0.206791 0.609547
C39_4 C 0.6178(3) 0.2365(3) 0.71217(18)
H20_4 H 0.572388 0.283750 0.712654
C40_4 C 0.6816(2) 0.2139(3) 0.77496(16)
O9_4 O 0.90436(15) 0.9842(2) 0.88241(13)
C18_4 C 0.3780(5) 0.9951(5) 0.0600(5)
H9_4 H 0.388830 0.925108 0.068323
H10_4 H 0.241787 0.985781 0.037484
C26_4 C 0.6220(5) 0.0049(5) 0.9400(5)
H13_4 H 0.611170 0.074892 0.931677
H14_4 H 0.758213 0.014219 0.962516
loop_
_geom_bond_atom_site_label_1
_geom_bond_atom_site_label_2
_geom_bond_site_symmetry_1
_geom_bond_site_symmetry_2
Zn1 O1 1_555 1_555
Li1 O2 1_555 1_555
O1 C1 1_555 1_555
O2 C1 1_555 1_555
O3 C2 1_555 1_555
O4 C2 1_555 1_555
C1 C6 1_555 1_555
C2 C3 1_555 1_555
C3 C4 1_555 1_555
C4 H1 1_555 1_555
C5 C4 1_555 1_555
H2 C5 1_555 1_555
C6 C5 1_555 1_555
C7 C6 1_555 1_555
C8 C7 1_555 1_555
H3 C8 1_555 1_555
C9 C8 1_555 1_555
H4 C9 1_555 1_555
C10 C9 1_555 1_555
H5 C10 1_555 1_555
C11 C10 1_555 1_555
H6 C11 1_555 1_555
C12 C3 1_555 1_555
O5 Zn1 1_555 1_555
O6 C13 1_555 1_555
C13 O5 1_555 1_555
C14 C13 1_555 1_555
C15 C14 1_555 1_555
C16 C15 1_555 1_555
H7 C16 1_555 1_555
C17 C16 1_555 1_555
H8 C17 1_555 1_555
C20 C15 1_555 1_555
O7 C21 1_555 1_555
O8 C21 1_555 1_555
C21 C22 1_555 1_555
C22 C20 1_555 1_555
C23 C22 1_555 1_555
C24 C23 1_555 1_555
H11 C24 1_555 1_555
C25 C24 1_555 1_555
C26 C25 1_555 1_555
H13 C26 1_555 1_555
C27 C26 1_555 1_555
H14 C27 1_555 1_555
C28 C14 1_555 1_555
Zn2 O9 1_555 1_555
O9 C29 1_555 1_555
O10 Li1 1_555 1_555
O11 C30 1_555 1_555
O12 C30 1_555 1_555
C29 O10 1_555 1_555
C30 C31 1_555 1_555
C31 C32 1_555 1_555
C32 H15 1_555 1_555
C33 C32 1_555 1_555
H16 C33 1_555 1_555
C34 C29 1_555 1_555
C35 C34 1_555 1_555
C36 C35 1_555 1_555
H17 C36 1_555 1_555
C37 C36 1_555 1_555
H18 C37 1_555 1_555
C38 C37 1_555 1_555
H19 C38 1_555 1_555
C39 C38 1_555 1_555
H20 C39 1_555 1_555
C40 C31 1_555 1_555
Zn4 O3 1_555 1_555
Zn5 O11 1_555 1_555
Zn6 O6 1_555 1_555
Li3 O4 1_555 1_555
Li3_2 O12 1_555 1_555
O13 Zn1 1_555 1_555
O14 Zn2 1_555 1_555
O15 Li1 1_555 1_555
O16 Li1 1_555 1_555
O17 Zn2 1_555 1_555
O18 Zn1 1_555 1_555
O19 Zn2 1_555 1_555
C7 C12 1_555 1_555
C11 C12 1_555 1_555
C19 C20 1_555 1_555
C23 C28 1_555 1_555
C27 C28 1_555 1_555
C33 C34 1_555 1_555
C35 C40 1_555 1_555
C39 C40 1_555 1_555
H9 C18 1_555 1_555
O6_2 C13_2 1_555 1_555
C13_2 O17 1_555 1_555
C14_2 C13_2 1_555 1_555
C15_2 C14_2 1_555 1_555
C16_2 C15_2 1_555 1_555
H7_2 C16_2 1_555 1_555
C17_2 C16_2 1_555 1_555
H8_2 C17_2 1_555 1_555
C20_2 C15_2 1_555 1_555
C19_2 C20_2 1_555 1_555
O7_2 C21_2 1_555 1_555
O8_3 C21_2 1_555 1_555
C21_2 C22_2 1_555 1_555
C23_2 C22_2 1_555 1_555
C24_2 C23_2 1_555 1_555
H11_2 C24_2 1_555 1_555
C25_2 C24_2 1_555 1_555
C26_2 C25_2 1_555 1_555
H13_2 C26_2 1_555 1_555
C27_2 C26_2 1_555 1_555
H14_2 C27_2 1_555 1_555
Zn6_2 O6_3 1_555 1_555
C23_2 C28_2 1_555 1_555
C27_2 C28_2 1_555 1_555
H13_3 C26_3 1_555 1_555
O6_4 C13_3 1_555 1_555
C13_3 O5_2 1_555 1_555
C14_3 C13_3 1_555 1_555
C15_3 C14_3 1_555 1_555
C16_3 C15_3 1_555 1_555
H7_3 C16_3 1_555 1_555
C17_3 C16_3 1_555 1_555
C18_2 C17_3 1_555 1_555
H9_2 C18_2 1_555 1_555
C19_3 C18_2 1_555 1_555
H10_2 C19_3 1_555 1_555
C20_3 C15_3 1_555 1_555
O7_3 C21_3 1_555 1_555
O18 C21_3 1_555 1_555
C21_3 C22_3 1_555 1_555
C22_3 C20_3 1_555 1_555
C23_3 C22_3 1_555 1_555
C24_3 C23_3 1_555 1_555
H11_3 C24_3 1_555 1_555
C25_3 C24_3 1_555 1_555
H12_3 C25_3 1_555 1_555
C28_3 C14_3 1_555 1_555
O14 C30_2 1_555 1_555
O16 C30_2 1_555 1_555
C29_2 O10_2 1_555 1_555
C30_2 C31_2 1_555 1_555
C31_2 C32_2 1_555 1_555
C32_2 H15_2 1_555 1_555
C33_2 C32_2 1_555 1_555
H16_2 C33_2 1_555 1_555
C34_2 C29_2 1_555 1_555
C35_2 C34_2 1_555 1_555
C36_2 C35_2 1_555 1_555
H17_2 C36_2 1_555 1_555
C37_2 C36_2 1_555 1_555
H18_2 C37_2 1_555 1_555
C38_2 C37_2 1_555 1_555
H19_2 C38_2 1_555 1_555
C39_2 C38_2 1_555 1_555
H20_2 C39_2 1_555 1_555
C40_2 C31_2 1_555 1_555
Zn6 O7_3 1_555 1_555
C19_3 C20_3 1_555 1_555
C23_3 C28_3 1_555 1_555
C27_3 C28_3 1_555 1_555
C33_2 C34_2 1_555 1_555
C35_2 C40_2 1_555 1_555
C39_2 C40_2 1_555 1_555
O2_2 C1_2 1_555 1_555
O13 C2_2 1_555 1_555
O15 C2_2 1_555 1_555
C1_2 C6_2 1_555 1_555
C2_2 C3_2 1_555 1_555
C3_2 C4_2 1_555 1_555
C4_2 H1_2 1_555 1_555
C5_2 C4_2 1_555 1_555
H2_2 C5_2 1_555 1_555
C6_2 C5_2 1_555 1_555
C7_2 C6_2 1_555 1_555
C8_2 C7_2 1_555 1_555
H3_2 C8_2 1_555 1_555
C9_2 C8_2 1_555 1_555
H4_2 C9_2 1_555 1_555
C10_2 C9_2 1_555 1_555
H5_2 C10_2 1_555 1_555
C11_2 C10_2 1_555 1_555
H6_2 C11_2 1_555 1_555
C12_2 C3_2 1_555 1_555
C7_2 C12_2 1_555 1_555
C11_2 C12_2 1_555 1_555
O6_5 C13_4 1_555 1_555
C13_4 O17_2 1_555 1_555
C14_4 C13_4 1_555 1_555
C15_4 C14_4 1_555 1_555
C16_4 C15_4 1_555 1_555
H7_4 C16_4 1_555 1_555
C17_4 C16_4 1_555 1_555
C18_3 C17_4 1_555 1_555
H9_3 C18_3 1_555 1_555
C19_4 C18_3 1_555 1_555
H10_3 C19_4 1_555 1_555
C20_4 C15_4 1_555 1_555
C19_4 C20_4 1_555 1_555
O7_4 C21_4 1_555 1_555
O19_2 C21_4 1_555 1_555
C21_4 C22_4 1_555 1_555
C23_4 C22_4 1_555 1_555
C24_4 C23_4 1_555 1_555
H11_4 C24_4 1_555 1_555
C25_4 C24_4 1_555 1_555
H12_4 C25_4 1_555 1_555
Zn6_2 O7_4 1_555 1_555
C23_4 C28_4 1_555 1_555
C27_4 C28_4 1_555 1_555
Zn6 O1_3 1_555 1_555
Li1_2 O2_3 1_555 1_555
O1_3 C1_3 1_555 1_555
O2_3 C1_3 1_555 1_555
O3_2 C2_3 1_555 1_555
O4_2 C2_3 1_555 1_555
C1_3 C6_3 1_555 1_555
C2_3 C3_3 1_555 1_555
C3_3 C4_3 1_555 1_555
C4_3 H1_3 1_555 1_555
C5_3 C4_3 1_555 1_555
H2_3 C5_3 1_555 1_555
C6_3 C5_3 1_555 1_555
C7_3 C6_3 1_555 1_555
C8_3 C7_3 1_555 1_555
H3_3 C8_3 1_555 1_555
C9_3 C8_3 1_555 1_555
H4_3 C9_3 1_555 1_555
C10_3 C9_3 1_555 1_555
H5_3 C10_3 1_555 1_555
C11_3 C10_3 1_555 1_555
H6_3 C11_3 1_555 1_555
C12_3 C3_3 1_555 1_555
Zn6_2 O9_3 1_555 1_555
O9_3 C29_3 1_555 1_555
O10_3 Li1_2 1_555 1_555
O11_2 C30_3 1_555 1_555
O12_2 C30_3 1_555 1_555
C29_3 O10_3 1_555 1_555
C30_3 C31_3 1_555 1_555
C31_3 C32_3 1_555 1_555
C32_3 H15_3 1_555 1_555
C33_3 C32_3 1_555 1_555
H16_3 C33_3 1_555 1_555
C34_3 C29_3 1_555 1_555
C35_3 C34_3 1_555 1_555
C36_3 C35_3 1_555 1_555
H17_3 C36_3 1_555 1_555
C37_3 C36_3 1_555 1_555
H18_3 C37_3 1_555 1_555
C38_3 C37_3 1_555 1_555
H19_3 C38_3 1_555 1_555
C39_3 C38_3 1_555 1_555
H20_3 C39_3 1_555 1_555
C40_3 C31_3 1_555 1_555
Zn7 O3_2 1_555 1_555
Zn7_2 O11_2 1_555 1_555
Li2_2 O4_2 1_555 1_555
Li2 O12_2 1_555 1_555
O13_2 Zn6 1_555 1_555
O14_2 Zn6_2 1_555 1_555
O15_2 Li1_2 1_555 1_555
O16_2 Li1_2 1_555 1_555
C7_3 C12_3 1_555 1_555
C11_3 C12_3 1_555 1_555
C33_3 C34_3 1_555 1_555
C35_3 C40_3 1_555 1_555
C39_3 C40_3 1_555 1_555
O2_4 C1_4 1_555 1_555
O13_2 C2_4 1_555 1_555
O15_2 C2_4 1_555 1_555
C1_4 C6_4 1_555 1_555
C2_4 C3_4 1_555 1_555
C3_4 C4_4 1_555 1_555
C4_4 H1_4 1_555 1_555
C5_4 C4_4 1_555 1_555
H2_4 C5_4 1_555 1_555
C6_4 C5_4 1_555 1_555
C7_4 C6_4 1_555 1_555
C8_4 C7_4 1_555 1_555
H3_4 C8_4 1_555 1_555
C9_4 C8_4 1_555 1_555
H4_4 C9_4 1_555 1_555
C10_4 C9_4 1_555 1_555
H5_4 C10_4 1_555 1_555
C11_4 C10_4 1_555 1_555
H6_4 C11_4 1_555 1_555
C12_4 C3_4 1_555 1_555
C7_4 C12_4 1_555 1_555
C11_4 C12_4 1_555 1_555
O14_2 C30_4 1_555 1_555
O16_2 C30_4 1_555 1_555
C29_4 O10_4 1_555 1_555
C30_4 C31_4 1_555 1_555
C31_4 C32_4 1_555 1_555
C32_4 H15_4 1_555 1_555
C33_4 C32_4 1_555 1_555
H16_4 C33_4 1_555 1_555
C34_4 C29_4 1_555 1_555
C35_4 C34_4 1_555 1_555
C36_4 C35_4 1_555 1_555
H17_4 C36_4 1_555 1_555
C37_4 C36_4 1_555 1_555
H18_4 C37_4 1_555 1_555
C38_4 C37_4 1_555 1_555
H19_4 C38_4 1_555 1_555
C39_4 C38_4 1_555 1_555
H20_4 C39_4 1_555 1_555
C40_4 C31_4 1_555 1_555
C33_4 C34_4 1_555 1_555
C35_4 C40_4 1_555 1_555
C39_4 C40_4 1_555 1_555
H9_4 C18_4 1_555 1_555
H13_4 C26_4 1_555 1_555

#END
