
###############################################################################
#
# This file contains modified crystal structure data generated from the
# MOF subset of the Cambridge Structural Database (CSD) v543 
# hosted by the Cambridge Crystallographic Data Centre (CCDC).
#
# This work is licensed under the Creative Commons
# Attribution-NonCommercial-ShareAlike 4.0 International License.
# To view a copy of this license, visit
# http://creativecommons.org/licenses/by-nc-sa/4.0/
# or send a letter to
# Creative Commons, PO Box 1866, Mountain View, CA 94042, USA.
#
# CIF created using the CSD Python API on 29 September 2022
# The structure has been converted into the P1 space group
# The structure has a 3D framework
# The original CSD entry IKEVAW is in the triclinic crystal system
# The framework has been calculated to contain at least 10.0% void space
# The void calculation uses a probe of radius 1.32A, grid spacing 0.4
#
###############################################################################

data_IKEVAW
_chemical_formula_moiety         '(C14 H12 Dy2 N4 O15)n'
_symmetry_cell_setting           triclinic
_symmetry_space_group_name_H-M   'P 1'
_symmetry_Int_Tables_number      1
_space_group_name_Hall           'P 1'
loop_
_symmetry_equiv_pos_site_id
_symmetry_equiv_pos_as_xyz
1 x,y,z
_cell_length_a                   6.0535(6)
_cell_length_b                   9.9159(9)
_cell_length_c                   13.2903(12)
_cell_angle_alpha                68.8320(10)
_cell_angle_beta                 81.2730(10)
_cell_angle_gamma                76.8750(10)
_cell_volume                     722.361
loop_
_atom_site_label
_atom_site_type_symbol
_atom_site_fract_x
_atom_site_fract_y
_atom_site_fract_z
_atom_site_U_iso_or_equiv
_atom_site_thermal_displace_type
O13 O 0.0156(8) 0.4325(5) 0.3406(4) 0.0296 Uani
O15 O 0.0718(8) 0.2894(5) 0.5093(4) 0.0377 Uani
C10 C 0.1916(10) 0.0296(6) 0.0158(5) 0.0185 Uani
H7 H 0.3266 0.0476 0.0292 0.0220 Uiso
C14 C 0.0892(10) 0.4390(7) 0.0343(5) 0.0195 Uani
O16 O 0.0843(7) 0.4293(5) 0.1308(4) 0.0284 Uani
Dy1 Dy 0.16536(5) 0.38618(3) 0.80489(2) 0.0161 Uani
C4 C 0.0492(11) 0.6183(7) 0.5613(5) 0.0227 Uani
C5 C 0.2892(10) 0.5552(7) 0.5281(5) 0.0213 Uani
C6 C 0.3818(11) 0.6040(7) 0.4231(5) 0.0227 Uani
H2 H 0.2945 0.6786 0.3714 0.0280 Uiso
N1 N 0.0611(8) 0.1361(5) 0.9461(4) 0.0174 Uani
N2 N 0.4070(9) 0.4521(5) 0.6070(4) 0.0227 Uani
O7 O 0.1668(8) 0.2134(5) 0.7175(4) 0.0292 Uani
H3 H 0.1258 0.2233 0.6567 0.0440 Uiso
H4 H 0.2845 0.1465 0.7202 0.0440 Uiso
O8 O 0.4010(7) 0.5632(5) 0.7808(4) 0.0258 Uani
H5 H 0.5328 0.5143 0.7888 0.0390 Uiso
H6 H 0.4230 0.6364 0.7292 0.0390 Uiso
Dy6 Dy 0.83464(5) 0.61382(3) 0.19511(2) 0.0161 Uani
C11 C 0.9508(11) 0.3817(7) 0.4387(5) 0.0227 Uani
C12 C 0.7108(10) 0.4448(7) 0.4719(5) 0.0213 Uani
C13 C 0.6182(11) 0.3960(7) 0.5769(5) 0.0227 Uani
H8 H 0.7055 0.3214 0.6286 0.0280 Uiso
N4 N 0.5930(9) 0.5479(5) 0.3930(4) 0.0227 Uani
O11 O 0.5166(7) 0.2189(5) 0.8475(3) 0.0209 Uani
O18 O 0.2257(7) 0.3612(5) 0.9868(4) 0.0254 Uani
C8 C 0.2894(10) 0.7647(7) 0.1417(5) 0.0170 Uani
C9 C 0.1366(10) 0.8929(7) 0.0696(5) 0.0169 Uani
O9 O 0.2162(7) 0.6469(5) 0.1840(4) 0.0277 Uani
O10 O 0.4834(7) 0.7811(5) 0.1525(3) 0.0209 Uani
O6 O 0.7743(7) 0.6388(5) 0.0132(4) 0.0254 Uani
C1 C 0.7106(10) 0.2353(7) 0.8583(5) 0.0170 Uani
C2 C 0.8634(10) 0.1071(7) 0.9304(5) 0.0169 Uani
C7 C 0.9108(10) 0.5610(7) 0.9657(5) 0.0195 Uani
O1 O 0.7838(7) 0.3531(5) 0.8160(4) 0.0277 Uani
O3 O 0.9844(8) 0.5675(5) 0.6594(4) 0.0296 Uani
O4 O 0.9282(8) 0.7106(5) 0.4907(4) 0.0377 Uani
O5 O 0.9157(7) 0.5707(5) 0.8692(4) 0.0284 Uani
N3 N 0.9389(8) 0.8639(5) 0.0539(4) 0.0174 Uani
O20 O 0.8332(8) 0.7866(5) 0.2825(4) 0.0292 Uani
H9 H 0.8742 0.7767 0.3433 0.0440 Uiso
H10 H 0.7155 0.8535 0.2798 0.0440 Uiso
O21 O 0.5990(7) 0.4368(5) 0.2192(4) 0.0258 Uani
H11 H 0.4672 0.4857 0.2112 0.0390 Uiso
H12 H 0.5770 0.3636 0.2708 0.0390 Uiso
C3 C 0.8084(10) 0.9704(6) 0.9842(5) 0.0185 Uani
H1 H 0.6734 0.9524 0.9708 0.0220 Uiso
loop_
_atom_site_aniso_label
_atom_site_aniso_U_11
_atom_site_aniso_U_22
_atom_site_aniso_U_33
_atom_site_aniso_U_23
_atom_site_aniso_U_13
_atom_site_aniso_U_12
O13 0.025 0.035 0.02 -0.001 -0.002 -0.002
O15 0.034 0.047 0.018 -0.002 -0.011 0.011
C10 0.012 0.019 0.021 -0.001 -0.007 -0.002
C14 0.017 0.021 0.02 -0.007 -0.001 -0.003
O16 0.028 0.033 0.022 -0.012 -0.005 0.005
Dy1 0.01193 0.01797 0.01578 -0.00252 -0.00236 -0.00228
C4 0.019 0.026 0.024 -0.009 0 -0.006
C5 0.019 0.024 0.022 -0.008 -0.001 -0.006
C6 0.022 0.023 0.017 0.002 -0.007 -0.003
N1 0.013 0.021 0.015 -0.002 -0.002 -0.003
N2 0.024 0.019 0.019 0.001 -0.002 -0.004
O7 0.034 0.029 0.024 -0.007 -0.01 -0.003
O8 0.02 0.018 0.036 -0.003 -0.003 -0.0064
Dy6 0.01193 0.01797 0.01578 -0.00252 -0.00236 -0.00228
C11 0.019 0.026 0.024 -0.009 0 -0.006
C12 0.019 0.024 0.022 -0.008 -0.001 -0.006
C13 0.022 0.023 0.017 0.002 -0.007 -0.003
N4 0.024 0.019 0.019 0.001 -0.002 -0.004
O11 0.014 0.023 0.024 -0.004 -0.0059 -0.0036
O18 0.024 0.03 0.022 -0.012 -0.005 0.003
C8 0.012 0.024 0.014 -0.007 0.001 -0.002
C9 0.011 0.025 0.015 -0.006 -0.001 -0.005
O9 0.02 0.022 0.031 0.006 -0.008 -0.005
O10 0.014 0.023 0.024 -0.004 -0.0059 -0.0036
O6 0.024 0.03 0.022 -0.012 -0.005 0.003
C1 0.012 0.024 0.014 -0.007 0.001 -0.002
C2 0.011 0.025 0.015 -0.006 -0.001 -0.005
C7 0.017 0.021 0.02 -0.007 -0.001 -0.003
O1 0.02 0.022 0.031 0.006 -0.008 -0.005
O3 0.025 0.035 0.02 -0.001 -0.002 -0.002
O4 0.034 0.047 0.018 -0.002 -0.011 0.011
O5 0.028 0.033 0.022 -0.012 -0.005 0.005
N3 0.013 0.021 0.015 -0.002 -0.002 -0.003
O20 0.034 0.029 0.024 -0.007 -0.01 -0.003
O21 0.02 0.018 0.036 -0.003 -0.003 -0.0064
C3 0.012 0.019 0.021 -0.001 -0.007 -0.002
loop_
_geom_bond_atom_site_label_1
_geom_bond_atom_site_label_2
_geom_bond_site_symmetry_1
_geom_bond_site_symmetry_2
H7 C10 1_555 1_555
C14 O16 1_555 1_555
Dy1 N1 1_555 1_555
C4 C5 1_555 1_555
C5 C6 1_555 1_555
C6 H2 1_555 1_555
N2 Dy1 1_555 1_555
O7 Dy1 1_555 1_555
H3 O7 1_555 1_555
H4 O7 1_555 1_555
O8 Dy1 1_555 1_555
H5 O8 1_555 1_555
H6 O8 1_555 1_555
Dy6 N4 1_555 1_555
C11 C12 1_555 1_555
C12 C13 1_555 1_555
C13 N2 1_555 1_555
H8 C13 1_555 1_555
N4 C6 1_555 1_555
O11 Dy1 1_555 1_555
O18 Dy1 1_555 1_555
C5 N2 1_555 1_555
C12 N4 1_555 1_555
Dy6 O10 1_555 1_555
C8 C9 1_555 1_555
O10 C8 1_555 1_555
C8 O9 1_555 1_555
Dy6 O6 1_555 1_555
C1 C2 1_555 1_555
C7 O5 1_555 1_555
O11 C1 1_555 1_555
C1 O1 1_555 1_555
Dy6 N3 1_555 1_555
O20 Dy6 1_555 1_555
H9 O20 1_555 1_555
H10 O20 1_555 1_555
O21 Dy6 1_555 1_555
H11 O21 1_555 1_555
H12 O21 1_555 1_555
C3 H1 1_555 1_555

#END
