
###############################################################################
#
# This file contains modified crystal structure data generated from the
# MOF subset of the Cambridge Structural Database (CSD) v543 
# hosted by the Cambridge Crystallographic Data Centre (CCDC).
#
# This work is licensed under the Creative Commons
# Attribution-NonCommercial-ShareAlike 4.0 International License.
# To view a copy of this license, visit
# http://creativecommons.org/licenses/by-nc-sa/4.0/
# or send a letter to
# Creative Commons, PO Box 1866, Mountain View, CA 94042, USA.
#
# CIF created using the CSD Python API on 29 September 2022
# The structure has been converted into the P1 space group
# The structure has a 3D framework
# The original CSD entry IKEZED is in the monoclinic crystal system
# The framework has been calculated to contain at least 10.0% void space
# The void calculation uses a probe of radius 1.32A, grid spacing 0.4
# The framework is charged, counterions have been retained in the structure
# H atom positions have been added when not included in the experimental data
# Generated hydrogen atom positions removed from atoms on special positions
#
###############################################################################

data_IKEZED
_chemical_formula_moiety         '(C44 H30 Na6 O40 Zn8 4+)n'
_symmetry_cell_setting           triclinic
_symmetry_space_group_name_H-M   'P 1'
_symmetry_Int_Tables_number      1
_space_group_name_Hall           'P 1'
loop_
_symmetry_equiv_pos_site_id
_symmetry_equiv_pos_as_xyz
1 x,y,z
_cell_length_a                   10.4073(5)
_cell_length_b                   17.8174(8)
_cell_length_c                   7.5278(4)
_cell_angle_alpha                90
_cell_angle_beta                 108.4740(10)
_cell_angle_gamma                90
_cell_volume                     1323.95
loop_
_atom_site_label
_atom_site_type_symbol
_atom_site_fract_x
_atom_site_fract_y
_atom_site_fract_z
C11 C 0.3293(3) -0.0000 0.1793(5)
C14 C 0.2956(3) -0.0000 0.5262(4)
H4 H 0.339(3) -0.0000 0.061(2)
H5 H 0.284(4) -0.0000 0.644(3)
C17 C 0.3180(2) 0.06790(10) 0.2629(3)
C18 C 0.3013(2) 0.06780(10) 0.4399(3)
C19 C 0.2767(2) 0.13670(10) 0.5403(3)
O14 O 0.1603(2) 0.15320(10) 0.5297(3)
O15 O 0.3824(2) 0.16970(10) 0.6467(2)
C20 C 0.3108(2) 0.13910(10) 0.1562(3)
O17 O 0.3018(2) 0.20000(10) 0.2381(2)
Zn10 Zn 0.34035(3) 0.222690(10) 0.84967(4)
Zn11 Zn 0.15965(3) 0.277310(10) 0.15033(4)
O26 O 0.5000 0.27030(10) 0.0000
O16 O 0.3100(2) 0.13450(10) 0.9899(2)
O24 O 0.1982(2) 0.30000(10) 0.7619(2)
O26_2 O 0.5000 0.27030(10) 1.0000
Zn1 Zn 0.15965(3) 0.722690(10) 0.15033(4)
O1 O 0.1900(2) 0.63450(10) 0.0101(2)
O5 O 0.0000 0.77030(10) 0.0000
H1 H 0.0000 0.8176(6) 0.0000
O8 O 0.1900(2) 0.36550(10) 0.0101(2)
O11 O 0.3018(2) 0.80000(10) 0.2381(2)
O12 O 0.1603(2) 0.84680(10) 0.5297(3)
O13 O 0.3824(2) 0.83030(10) 0.6467(2)
C11_2 C 0.3293(3) 1.0000 0.1793(5)
C12 C 0.3180(2) 0.93210(10) 0.2629(3)
C13 C 0.3013(2) 0.93220(10) 0.4399(3)
C14_2 C 0.2956(3) 1.0000 0.5262(4)
C15 C 0.3108(2) 0.86090(10) 0.1562(3)
C16 C 0.2767(2) 0.86330(10) 0.5403(3)
H4_2 H 0.339(3) 1.0000 0.061(2)
H5_2 H 0.284(4) 1.0000 0.644(3)
O18 O 0.0000 0.22970(10) 0.0000
H6 H 0.0000 0.1824(6) 0.0000
O19 O 0.1176(2) 0.66970(10) 0.3533(2)
Zn9 Zn 0.34035(3) 0.777310(10) 0.84967(4)
O21 O 0.1176(2) 0.33030(10) 0.3533(2)
O23 O 0.5000 0.72970(10) 0.0000
O2 O 0.1982(2) 0.70000(10) 0.7619(2)
O3 O 0.3397(2) 0.65320(10) 0.4703(3)
O5_2 O -0.0000 0.77030(10) 1.0000
C1 C 0.1707(3) 0.5000 0.8207(5)
C2 C 0.1820(2) 0.56790(10) 0.7371(3)
C3 C 0.1987(2) 0.56780(10) 0.5601(3)
C4 C 0.2044(3) 0.5000 0.4738(4)
C5 C 0.1892(2) 0.63910(10) 0.8438(3)
C6 C 0.2233(2) 0.63670(10) 0.4597(3)
H1_2 H -0.0000 0.8176(6) 1.0000
H2 H 0.161(3) 0.5000 0.939(2)
H3 H 0.216(4) 0.5000 0.356(3)
C7 C 0.1820(2) 0.43210(10) 0.7371(3)
C8 C 0.1987(2) 0.43220(10) 0.5601(3)
C9 C 0.2233(2) 0.36330(10) 0.4597(3)
O6 O 0.3397(2) 0.34680(10) 0.4703(3)
C10 C 0.1892(2) 0.36090(10) 0.8438(3)
O10 O 0.3100(2) 0.86550(10) 0.9899(2)
O18_2 O -0.0000 0.22970(10) 1.0000
H6_2 H -0.0000 0.1824(6) 1.0000
O23_2 O 0.5000 0.72970(10) 1.0000
O5_3 O 1.0000 0.77030(10) 0.0000
H1_3 H 1.0000 0.8176(6) 0.0000
O18_3 O 1.0000 0.22970(10) 0.0000
H6_3 H 1.0000 0.1824(6) 0.0000
O5_4 O 1.0000 0.77030(10) 1.0000
H1_4 H 1.0000 0.8176(6) 1.0000
O18_4 O 1.0000 0.22970(10) 1.0000
H6_4 H 1.0000 0.1824(6) 1.0000
Zn6 Zn 0.84035(3) 0.722690(10) 0.84967(4)
Zn12 Zn 0.84035(3) 0.277310(10) 0.84967(4)
H9 H 0.0167056 0.246589 0.131104
H10 H 0.075596 0.753411 0.95581
Zn1_2 Zn 0.65965(3) 0.222690(10) 0.15033(4)
O1_2 O 0.6900(2) 0.13450(10) 0.0101(2)
O11_2 O 0.8018(2) 0.30000(10) 0.2381(2)
O12_2 O 0.6603(2) 0.34680(10) 0.5297(3)
O13_2 O 0.8824(2) 0.33030(10) 0.6467(2)
C11_3 C 0.8293(3) 0.5000 0.1793(5)
C12_2 C 0.8180(2) 0.43210(10) 0.2629(3)
C13_2 C 0.8013(2) 0.43220(10) 0.4399(3)
C14_3 C 0.7956(3) 0.5000 0.5262(4)
C15_2 C 0.8108(2) 0.36090(10) 0.1562(3)
C16_2 C 0.7767(2) 0.36330(10) 0.5403(3)
H4_3 H 0.839(3) 0.5000 0.061(2)
H5_3 H 0.784(4) 0.5000 0.644(3)
C17_2 C 0.8180(2) 0.56790(10) 0.2629(3)
C18_2 C 0.8013(2) 0.56780(10) 0.4399(3)
C19_2 C 0.7767(2) 0.63670(10) 0.5403(3)
O14_2 O 0.6603(2) 0.65320(10) 0.5297(3)
O15_2 O 0.8824(2) 0.66970(10) 0.6467(2)
C20_2 C 0.8108(2) 0.63910(10) 0.1562(3)
O17_2 O 0.8018(2) 0.70000(10) 0.2381(2)
O19_2 O 0.6176(2) 0.16970(10) 0.3533(2)
Zn11_2 Zn 0.65965(3) 0.777310(10) 0.15033(4)
O2_2 O 0.6982(2) 0.20000(10) 0.7619(2)
O3_2 O 0.8397(2) 0.15320(10) 0.4703(3)
C1_2 C 0.6707(3) -0.0000 0.8207(5)
C2_2 C 0.6820(2) 0.06790(10) 0.7371(3)
C3_2 C 0.6987(2) 0.06780(10) 0.5601(3)
C4_2 C 0.7044(3) -0.0000 0.4738(4)
C5_2 C 0.6892(2) 0.13910(10) 0.8438(3)
C6_2 C 0.7233(2) 0.13670(10) 0.4597(3)
H2_2 H 0.661(3) -0.0000 0.939(2)
H3_2 H 0.716(4) -0.0000 0.356(3)
O10_2 O 0.8100(2) 0.36550(10) 0.9899(2)
O16_2 O 0.8100(2) 0.63450(10) 0.9899(2)
O24_2 O 0.6982(2) 0.80000(10) 0.7619(2)
O8_2 O 0.6900(2) 0.86550(10) 0.0101(2)
O21_2 O 0.6176(2) 0.83030(10) 0.3533(2)
C1_3 C 0.6707(3) 1.0000 0.8207(5)
C4_3 C 0.7044(3) 1.0000 0.4738(4)
H2_3 H 0.661(3) 1.0000 0.939(2)
H3_3 H 0.716(4) 1.0000 0.356(3)
C7_2 C 0.6820(2) 0.93210(10) 0.7371(3)
C8_2 C 0.6987(2) 0.93220(10) 0.5601(3)
C9_2 C 0.7233(2) 0.86330(10) 0.4597(3)
O6_2 O 0.8397(2) 0.84680(10) 0.4703(3)
C10_2 C 0.6892(2) 0.86090(10) 0.8438(3)
H9_2 H 0.0167056 0.753411 0.131104
H10_2 H 0.075596 0.246589 0.95581
H10_3 H 0.924404 0.246589 0.0441903
H9_3 H 0.983294 0.753411 0.868896
H10_4 H 0.924404 0.753411 0.0441903
H9_4 H 0.983294 0.246589 0.868896
Na1 Na -0.0000 0.75322(8) 0.5000
Na1_2 Na 1.0000 0.75322(8) 0.5000
Na1_3 Na 0.5000 0.25322(8) 0.5000
Na1_4 Na -0.0000 0.24678(8) 0.5000
Na1_5 Na 1.0000 0.24678(8) 0.5000
Na1_6 Na 0.5000 0.74678(8) 0.5000
loop_
_geom_bond_atom_site_label_1
_geom_bond_atom_site_label_2
_geom_bond_site_symmetry_1
_geom_bond_site_symmetry_2
C14 H5 1_555 1_555
H4 C11 1_555 1_555
C17 C11 1_555 1_555
C18 C14 1_555 1_555
C19 C18 1_555 1_555
O14 C19 1_555 1_555
O15 C19 1_555 1_555
C20 C17 1_555 1_555
O17 C20 1_555 1_555
Zn10 O15 1_555 1_555
Zn11 O17 1_555 1_555
C17 C18 1_555 1_555
Zn10 O16 1_555 1_555
O24 Zn10 1_555 1_555
O26_2 Zn10 1_555 1_555
Zn1 O1 1_555 1_555
O5 Zn1 1_555 1_555
H1 O5 1_555 1_555
O11 Zn1 1_555 1_555
O12 C16 1_555 1_555
O13 C16 1_555 1_555
C11_2 C12 1_555 1_555
C12 C13 1_555 1_555
C13 C14_2 1_555 1_555
C14_2 H5_2 1_555 1_555
C15 O11 1_555 1_555
C16 C13 1_555 1_555
H4_2 C11_2 1_555 1_555
Zn11 O8 1_555 1_555
O18 Zn11 1_555 1_555
H6 O18 1_555 1_555
O19 Zn1 1_555 1_555
Zn9 O13 1_555 1_555
O21 Zn11 1_555 1_555
C12 C15 1_555 1_555
O2 C5 1_555 1_555
O3 C6 1_555 1_555
O19 C6 1_555 1_555
C1 C2 1_555 1_555
C2 C3 1_555 1_555
C3 C4 1_555 1_555
C4 H3 1_555 1_555
C5 C2 1_555 1_555
C6 C3 1_555 1_555
H1_2 O5_2 1_555 1_555
H2 C1 1_555 1_555
C7 C1 1_555 1_555
C8 C4 1_555 1_555
C9 C8 1_555 1_555
O6 C9 1_555 1_555
O21 C9 1_555 1_555
C10 C7 1_555 1_555
O24 C10 1_555 1_555
Zn9 O2 1_555 1_555
H6_2 O18_2 1_555 1_555
O23_2 Zn9 1_555 1_555
C7 C8 1_555 1_555
O10 Zn9 1_555 1_555
H1_3 O5_3 1_555 1_555
H6_3 O18_3 1_555 1_555
H1_4 O5_4 1_555 1_555
H6_4 O18_4 1_555 1_555
Zn6 O5_4 1_555 1_555
Zn12 O18_4 1_555 1_555
O18 H9 1_555 1_555
O5_2 H10 1_555 1_555
Zn1_2 O1_2 1_555 1_555
O26 Zn1_2 1_555 1_555
O11_2 Zn1_2 1_555 1_555
O12_2 C16_2 1_555 1_555
O13_2 C16_2 1_555 1_555
C11_3 C12_2 1_555 1_555
C12_2 C13_2 1_555 1_555
C13_2 C14_3 1_555 1_555
C14_3 H5_3 1_555 1_555
C15_2 O11_2 1_555 1_555
C16_2 C13_2 1_555 1_555
H4_3 C11_3 1_555 1_555
C17_2 C11_3 1_555 1_555
C18_2 C14_3 1_555 1_555
C19_2 C18_2 1_555 1_555
O14_2 C19_2 1_555 1_555
O15_2 C19_2 1_555 1_555
C20_2 C17_2 1_555 1_555
O17_2 C20_2 1_555 1_555
O19_2 Zn1_2 1_555 1_555
Zn12 O13_2 1_555 1_555
Zn6 O15_2 1_555 1_555
Zn11_2 O17_2 1_555 1_555
C12_2 C15_2 1_555 1_555
C17_2 C18_2 1_555 1_555
O2_2 C5_2 1_555 1_555
O3_2 C6_2 1_555 1_555
O19_2 C6_2 1_555 1_555
C1_2 C2_2 1_555 1_555
C2_2 C3_2 1_555 1_555
C3_2 C4_2 1_555 1_555
C4_2 H3_2 1_555 1_555
C5_2 C2_2 1_555 1_555
C6_2 C3_2 1_555 1_555
H2_2 C1_2 1_555 1_555
Zn12 O2_2 1_555 1_555
Zn6 O16_2 1_555 1_555
O24_2 Zn6 1_555 1_555
O10_2 Zn12 1_555 1_555
Zn11_2 O8_2 1_555 1_555
O23 Zn11_2 1_555 1_555
O21_2 Zn11_2 1_555 1_555
C4_3 H3_3 1_555 1_555
H2_3 C1_3 1_555 1_555
C7_2 C1_3 1_555 1_555
C8_2 C4_3 1_555 1_555
C9_2 C8_2 1_555 1_555
O6_2 C9_2 1_555 1_555
O21_2 C9_2 1_555 1_555
C10_2 C7_2 1_555 1_555
O24_2 C10_2 1_555 1_555
C7_2 C8_2 1_555 1_555
O5 H9_2 1_555 1_555
O18_2 H10_2 1_555 1_555
O18_3 H10_3 1_555 1_555
O5_4 H9_3 1_555 1_555
O5_3 H10_4 1_555 1_555
O18_4 H9_4 1_555 1_555

#END
