
###############################################################################
#
# This file contains modified crystal structure data generated from the
# MOF subset of the Cambridge Structural Database (CSD) v543 
# hosted by the Cambridge Crystallographic Data Centre (CCDC).
#
# This work is licensed under the Creative Commons
# Attribution-NonCommercial-ShareAlike 4.0 International License.
# To view a copy of this license, visit
# http://creativecommons.org/licenses/by-nc-sa/4.0/
# or send a letter to
# Creative Commons, PO Box 1866, Mountain View, CA 94042, USA.
#
# CIF created using the CSD Python API on 29 September 2022
# The structure has been converted into the P1 space group
# The structure has a 3D framework
# The original CSD entry IKOPEF is in the triclinic crystal system
# The framework has been calculated to contain at least 10.0% void space
# The void calculation uses a probe of radius 1.32A, grid spacing 0.4
# The framework is charged, counterions have been retained in the structure
#
###############################################################################

data_IKOPEF
_chemical_formula_moiety         '(C64 H34 Cu8 O38 2-)n'
_symmetry_cell_setting           triclinic
_symmetry_space_group_name_H-M   'P 1'
_symmetry_Int_Tables_number      1
_space_group_name_Hall           'P 1'
loop_
_symmetry_equiv_pos_site_id
_symmetry_equiv_pos_as_xyz
1 x,y,z
_cell_length_a                   12.429(3)
_cell_length_b                   12.712(3)
_cell_length_c                   15.821(3)
_cell_angle_alpha                98.159(3)
_cell_angle_beta                 92.873(3)
_cell_angle_gamma                93.267(3)
_cell_volume                     2466.07
loop_
_atom_site_label
_atom_site_type_symbol
_atom_site_fract_x
_atom_site_fract_y
_atom_site_fract_z
Cu3 Cu 0.06662(7) 0.50910(7) 0.07950(6)
O1 O 0.0165(5) 0.1238(5) 0.4208(4)
O2 O 0.1477(5) 0.0074(5) 0.4118(4)
O4 O 0.1146(5) 0.4015(5) 0.1440(4)
O5 O 0.7426(5) 0.2873(5) 0.1360(4)
O6 O 0.6117(5) 0.3910(5) 0.1071(4)
O7 O 0.4371(7) 0.3579(7) 0.3089(5)
O8 O 0.4225(5) 0.4182(5) 0.1832(4)
C1 C 0.0988(7) 0.0855(6) 0.3878(5)
C2 C 0.1431(7) 0.1327(7) 0.3170(5)
C3 C 0.2454(7) 0.1122(7) 0.2891(6)
H6 H 0.2848 0.0622 0.3126
C4 C 0.2907(6) 0.1664(7) 0.2253(6)
C5 C 0.2277(7) 0.2338(7) 0.1876(6)
H7 H 0.2557 0.2689 0.1450
C6 C 0.1213(6) 0.2517(6) 0.2116(5)
C7 C 0.0808(6) 0.2056(6) 0.2791(5)
H8 H 0.0139 0.2224 0.2991
C8 C 0.0576(7) 0.3285(7) 0.1666(5)
C9 C 0.3973(7) 0.1450(7) 0.1918(5)
C10 C 0.4692(7) 0.2324(7) 0.1844(5)
C11 C 0.5672(7) 0.2171(7) 0.1458(6)
C12 C 0.5903(7) 0.1125(8) 0.1133(6)
H9 H 0.6525 0.0992 0.0842
C13 C 0.5177(9) 0.0291(8) 0.1259(8)
C14 C 0.4216(8) 0.0461(8) 0.1643(7)
C15 C 0.4427(7) 0.3422(7) 0.2288(5)
C16 C 0.6417(7) 0.3028(7) 0.1260(5)
Cu7 Cu 0.07377(7) 0.92752(7) 0.49371(5)
Cu8 Cu 0.84902(7) 0.35586(7) 0.07176(6)
Cu12 Cu 0.46409(7) 0.41177(7) 0.06711(6)
O24 O 0.0333(5) 0.1330(5) 0.5982(4)
O26 O 0.1951(5) 0.5996(5) 0.1325(4)
H1 H 0.0033 0.3395 0.9826
O30 O 0.0353(4) 0.5992(4) 0.9932(3)
H10 H 0.5346 0.9594 0.1077
H11 H 0.3744 0.9888 0.1708
Cu5 Cu 0.92623(7) 0.07248(7) 0.50629(5)
O3 O 0.9602(5) 0.3144(5) 0.1582(4)
O9 O 0.8056(5) 0.5237(5) 0.0946(4)
O10 O 0.9568(5) 0.5807(5) 0.1736(4)
O11 O 0.9667(5) 0.8670(5) 0.4018(4)
O12 O 0.8372(5) 0.9860(5) 0.4128(4)
O14 O 0.2517(5) 0.6956(5) 0.0321(4)
O15 O 0.4879(4) 0.5951(4) 0.0508(3)
O16 O 0.5275(5) 0.7658(5) 0.0423(4)
O17 O 0.9647(4) 0.4008(4) 0.0068(3)
O18 O 0.8385(9) 0.2134(8) 0.5263(7)
H2 H 0.8738 0.2682 0.4997
H3 H 0.8367 0.2369 0.5866
O19 O 0.3095(5) 0.4126(5) 0.0332(4)
H4 H 0.2710 0.3528 0.0513
C17 C 0.8575(7) 0.5843(7) 0.1536(5)
C18 C 0.8017(6) 0.6748(7) 0.2025(5)
C19 C 0.6888(6) 0.6795(7) 0.1948(5)
H12 H 0.6473 0.6264 0.1590
C20 C 0.6387(6) 0.7629(7) 0.2403(5)
C21 C 0.7000(7) 0.8376(7) 0.2961(6)
H13 H 0.6667 0.8946 0.3251
C22 C 0.8122(6) 0.8310(7) 0.3109(6)
C23 C 0.8601(7) 0.7491(8) 0.2624(6)
H14 H 0.9341 0.7438 0.2703
C24 C 0.8769(6) 0.9033(7) 0.3806(5)
C25 C 0.5177(6) 0.7681(7) 0.2386(5)
C26 C 0.4472(6) 0.7271(6) 0.1668(5)
C27 C 0.3335(6) 0.7250(6) 0.1777(5)
C28 C 0.2922(7) 0.7712(8) 0.2496(6)
H15 H 0.2179 0.7741 0.2528
C29 C 0.3600(8) 0.8137(9) 0.3177(7)
H16 H 0.3316 0.8426 0.3685
C30 C 0.4710(8) 0.8141(8) 0.3121(6)
H17 H 0.5157 0.8460 0.3588
C31 C 0.2524(6) 0.6671(6) 0.1077(5)
C32 C 0.4908(6) 0.6952(6) 0.0810(5)
H5 H 0.3007 0.4077 0.9721
Cu9 Cu 0.15098(7) 0.64414(7) 0.92824(6)
Cu11 Cu 0.93338(7) 0.49090(7) 0.92050(6)
Cu13 Cu 0.53591(7) 0.58823(7) 0.93289(6)
O27 O 0.7483(5) 0.3044(5) 0.9679(4)
O28 O 0.5121(4) 0.4049(4) 0.9492(3)
O29 O 0.4725(5) 0.2342(5) 0.9577(4)
O20 O 0.8523(5) 0.9926(5) 0.5882(4)
O25 O 0.1628(5) 0.0140(5) 0.5872(4)
H5_2 H 0.6993 0.5923 0.0279
O3_2 O 0.0398(5) 0.6856(5) 0.8418(4)
O9_2 O 0.1944(5) 0.4763(5) 0.9054(4)
O10_2 O 0.0432(5) 0.4193(5) 0.8264(4)
O13 O 0.8049(5) 0.4004(5) 0.8675(4)
O18_2 O 0.1615(9) 0.7866(8) 0.4737(7)
H2_2 H 0.1262 0.7318 0.5003
H3_2 H 0.1633 0.7631 0.4134
O19_2 O 0.6905(5) 0.5874(5) 0.9668(4)
H4_2 H 0.7290 0.6472 0.9487
C17_2 C 0.1425(7) 0.4157(7) 0.8464(5)
C18_2 C 0.1983(6) 0.3252(7) 0.7975(5)
C19_2 C 0.3112(6) 0.3205(7) 0.8052(5)
H12_2 H 0.3527 0.3736 0.8410
C20_2 C 0.3613(6) 0.2371(7) 0.7597(5)
C21_2 C 0.3000(7) 0.1624(7) 0.7039(6)
H13_2 H 0.3333 0.1054 0.6749
C22_2 C 0.1878(6) 0.1690(7) 0.6891(6)
C23_2 C 0.1399(7) 0.2509(8) 0.7376(6)
H14_2 H 0.0659 0.2562 0.7297
C24_2 C 0.1231(6) 0.0967(7) 0.6194(5)
C25_2 C 0.4823(6) 0.2319(7) 0.7614(5)
C26_2 C 0.5528(6) 0.2729(6) 0.8332(5)
C27_2 C 0.6665(6) 0.2750(6) 0.8223(5)
C28_2 C 0.7078(7) 0.2288(8) 0.7504(6)
H15_2 H 0.7821 0.2259 0.7472
C29_2 C 0.6400(8) 0.1863(9) 0.6823(7)
H16_2 H 0.6684 0.1574 0.6315
C30_2 C 0.5290(8) 0.1859(8) 0.6879(6)
H17_2 H 0.4843 0.1540 0.6412
C31_2 C 0.7476(6) 0.3329(6) 0.8923(5)
C32_2 C 0.5092(6) 0.3048(6) 0.9190(5)
O21 O 0.2574(5) 0.7127(5) 0.8640(4)
O22 O 0.3883(5) 0.6090(5) 0.8929(4)
O23 O 0.5775(5) 0.5818(5) 0.8168(4)
H10_2 H 0.4654 0.0406 0.8923
H11_2 H 0.6256 0.0112 0.8292
H1_2 H 0.9967 0.6605 0.0174
O1_2 O 0.9835(5) 0.8762(5) 0.5792(4)
O4_2 O 0.8854(5) 0.5985(5) 0.8560(4)
O7_2 O 0.5629(7) 0.6421(7) 0.6911(5)
C1_2 C 0.9012(7) 0.9145(6) 0.6122(5)
C2_2 C 0.8569(7) 0.8673(7) 0.6830(5)
C3_2 C 0.7546(7) 0.8878(7) 0.7109(6)
H6_2 H 0.7152 0.9378 0.6874
C4_2 C 0.7093(6) 0.8336(7) 0.7747(6)
C5_2 C 0.7723(7) 0.7662(7) 0.8124(6)
H7_2 H 0.7443 0.7311 0.8550
C6_2 C 0.8787(6) 0.7483(6) 0.7884(5)
C7_2 C 0.9192(6) 0.7944(6) 0.7209(5)
H8_2 H 0.9861 0.7776 0.7009
C8_2 C 0.9424(7) 0.6715(7) 0.8334(5)
C9_2 C 0.6027(7) 0.8550(7) 0.8082(5)
C10_2 C 0.5308(7) 0.7676(7) 0.8156(5)
C11_2 C 0.4328(7) 0.7829(7) 0.8542(6)
C12_2 C 0.4097(7) 0.8875(8) 0.8867(6)
H9_2 H 0.3475 0.9008 0.9158
C13_2 C 0.4823(9) 0.9709(8) 0.8741(8)
C14_2 C 0.5784(8) 0.9539(8) 0.8357(7)
C15_2 C 0.5573(7) 0.6578(7) 0.7712(5)
C16_2 C 0.3583(7) 0.6972(7) 0.8740(5)
loop_
_geom_bond_atom_site_label_1
_geom_bond_atom_site_label_2
_geom_bond_site_symmetry_1
_geom_bond_site_symmetry_2
Cu3 O4 1_555 1_555
O1 C1 1_555 1_555
O2 C1 1_555 1_555
O4 C8 1_555 1_555
O5 C16 1_555 1_555
O6 C16 1_555 1_555
O7 C15 1_555 1_555
O8 C15 1_555 1_555
C1 C2 1_555 1_555
C2 C3 1_555 1_555
C3 H6 1_555 1_555
C4 C3 1_555 1_555
C5 C4 1_555 1_555
H7 C5 1_555 1_555
C6 C5 1_555 1_555
C7 C2 1_555 1_555
H8 C7 1_555 1_555
C8 C6 1_555 1_555
C9 C4 1_555 1_555
C10 C9 1_555 1_555
C11 C10 1_555 1_555
C12 C11 1_555 1_555
H9 C12 1_555 1_555
C13 C12 1_555 1_555
C14 C9 1_555 1_555
C15 C10 1_555 1_555
C16 C11 1_555 1_555
Cu8 O5 1_555 1_555
Cu12 O6 1_555 1_555
O26 Cu3 1_555 1_555
O8 Cu12 1_555 1_555
C6 C7 1_555 1_555
C13 C14 1_555 1_555
Cu8 O3 1_555 1_555
Cu12 O15 1_555 1_555
O9 Cu8 1_555 1_555
O11 C24 1_555 1_555
O12 C24 1_555 1_555
O26 C31 1_555 1_555
O14 C31 1_555 1_555
O15 C32 1_555 1_555
O16 C32 1_555 1_555
O17 Cu8 1_555 1_555
O18 Cu5 1_555 1_555
H2 O18 1_555 1_555
H3 O18 1_555 1_555
O19 Cu12 1_555 1_555
H4 O19 1_555 1_555
C17 O9 1_555 1_555
C18 C17 1_555 1_555
C19 C18 1_555 1_555
H12 C19 1_555 1_555
C20 C19 1_555 1_555
C21 C20 1_555 1_555
H13 C21 1_555 1_555
C22 C21 1_555 1_555
C23 C18 1_555 1_555
H14 C23 1_555 1_555
C24 C22 1_555 1_555
C25 C20 1_555 1_555
C26 C25 1_555 1_555
C27 C26 1_555 1_555
C28 C27 1_555 1_555
H15 C28 1_555 1_555
C29 C28 1_555 1_555
H16 C29 1_555 1_555
C30 C25 1_555 1_555
H17 C30 1_555 1_555
C31 C27 1_555 1_555
C32 C26 1_555 1_555
O10 C17 1_555 1_555
C22 C23 1_555 1_555
C29 C30 1_555 1_555
Cu13 O28 1_555 1_555
Cu9 O3_2 1_555 1_555
O9_2 Cu9 1_555 1_555
O24 C24_2 1_555 1_555
O25 C24_2 1_555 1_555
O13 C31_2 1_555 1_555
O27 C31_2 1_555 1_555
O28 C32_2 1_555 1_555
O29 C32_2 1_555 1_555
O30 Cu9 1_555 1_555
O18_2 Cu7 1_555 1_555
H2_2 O18_2 1_555 1_555
H3_2 O18_2 1_555 1_555
O19_2 Cu13 1_555 1_555
H4_2 O19_2 1_555 1_555
C17_2 O9_2 1_555 1_555
C18_2 C17_2 1_555 1_555
C19_2 C18_2 1_555 1_555
H12_2 C19_2 1_555 1_555
C20_2 C19_2 1_555 1_555
C21_2 C20_2 1_555 1_555
H13_2 C21_2 1_555 1_555
C22_2 C21_2 1_555 1_555
C23_2 C18_2 1_555 1_555
H14_2 C23_2 1_555 1_555
C24_2 C22_2 1_555 1_555
C25_2 C20_2 1_555 1_555
C26_2 C25_2 1_555 1_555
C27_2 C26_2 1_555 1_555
C28_2 C27_2 1_555 1_555
H15_2 C28_2 1_555 1_555
C29_2 C28_2 1_555 1_555
H16_2 C29_2 1_555 1_555
C30_2 C25_2 1_555 1_555
H17_2 C30_2 1_555 1_555
C31_2 C27_2 1_555 1_555
C32_2 C26_2 1_555 1_555
Cu11 O13 1_555 1_555
O21 Cu9 1_555 1_555
O22 Cu13 1_555 1_555
O23 Cu13 1_555 1_555
O10_2 C17_2 1_555 1_555
C22_2 C23_2 1_555 1_555
C29_2 C30_2 1_555 1_555
Cu11 O4_2 1_555 1_555
O1_2 C1_2 1_555 1_555
O20 C1_2 1_555 1_555
O4_2 C8_2 1_555 1_555
O21 C16_2 1_555 1_555
O22 C16_2 1_555 1_555
O7_2 C15_2 1_555 1_555
O23 C15_2 1_555 1_555
C1_2 C2_2 1_555 1_555
C2_2 C3_2 1_555 1_555
C3_2 H6_2 1_555 1_555
C4_2 C3_2 1_555 1_555
C5_2 C4_2 1_555 1_555
H7_2 C5_2 1_555 1_555
C6_2 C5_2 1_555 1_555
C7_2 C2_2 1_555 1_555
H8_2 C7_2 1_555 1_555
C8_2 C6_2 1_555 1_555
C9_2 C4_2 1_555 1_555
C10_2 C9_2 1_555 1_555
C11_2 C10_2 1_555 1_555
C12_2 C11_2 1_555 1_555
H9_2 C12_2 1_555 1_555
C13_2 C12_2 1_555 1_555
C14_2 C9_2 1_555 1_555
C15_2 C10_2 1_555 1_555
C16_2 C11_2 1_555 1_555
C6_2 C7_2 1_555 1_555
C13_2 C14_2 1_555 1_555

#END
