
###############################################################################
#
# This file contains modified crystal structure data generated from the
# MOF subset of the Cambridge Structural Database (CSD) v543 
# hosted by the Cambridge Crystallographic Data Centre (CCDC).
#
# This work is licensed under the Creative Commons
# Attribution-NonCommercial-ShareAlike 4.0 International License.
# To view a copy of this license, visit
# http://creativecommons.org/licenses/by-nc-sa/4.0/
# or send a letter to
# Creative Commons, PO Box 1866, Mountain View, CA 94042, USA.
#
# CIF created using the CSD Python API on 29 September 2022
# The structure has been converted into the P1 space group
# The structure has a 3D framework
# The original CSD entry IKOQII is in the cubic crystal system
# The original CSD entry IKOQII is in a Sohncke space group
# The framework has been calculated to contain at least 10.0% void space
# The void calculation uses a probe of radius 1.32A, grid spacing 0.4
# The framework is charged, counterions have been retained in the structure
# H atom positions have been added when not included in the experimental data
#
###############################################################################

data_IKOQII
_chemical_formula_moiety         '(C96 H288 Ag12 F84 N48 P18 6-)n'
_symmetry_cell_setting           triclinic
_symmetry_space_group_name_H-M   'P 1'
_symmetry_Int_Tables_number      1
_space_group_name_Hall           'P 1'
loop_
_symmetry_equiv_pos_site_id
_symmetry_equiv_pos_as_xyz
1 x,y,z
_cell_length_a                   16.8048(7)
_cell_length_b                   16.8048(7)
_cell_length_c                   16.8048(7)
_cell_angle_alpha                90
_cell_angle_beta                 90
_cell_angle_gamma                90
_cell_volume                     4745.7
loop_
_atom_site_label
_atom_site_type_symbol
_atom_site_fract_x
_atom_site_fract_y
_atom_site_fract_z
N6 N 0.0633(4) 0.1006(4) 0.6715(4)
Ag4 Ag 0.1249 -0.0000 0.75000(5)
Ag6 Ag 0.3751 -0.0000 0.25000(5)
N16 N 0.1861(4) 0.0790(4) 0.8480(4)
H44 H 0.0311 0.1320 0.7059
H45 H 0.1050 0.1339 0.6506
H57 H 0.1467 0.1002 0.8815
H58 H 0.2203 0.0445 0.8795
H74 H 0.0304166 0.0763902 0.626995
H76 H 0.218326 0.123261 0.822495
Ag1 Ag 0.25000(5) 0.6249 0.5000
N1 N 0.3994(4) 0.3285(4) 0.5633(4)
N2 N 0.1861(4) 0.9210(4) 0.6520(4)
C1 C 0.4277(5) 0.3936(5) 0.5131(4)
C2 C 0.3615(4) 0.4457(4) 0.4800(4)
C3 C 0.2352(4) 0.8558(4) 0.6797(4)
C4 C 0.2693(4) 0.8027(4) 0.6124(4)
H4 H 0.0856 0.4494 0.6713
H5 H 0.0311 0.5237 0.6668
H6 H 0.1002 0.8815 0.1467
H7 H 0.0445 0.8795 0.2203
H8 H 0.2134 0.7043 0.3239
H9 H 0.1971 0.8350 0.4229
H10 H 0.2726 0.7820 0.4196
Ag2 Ag 0.5000 0.25000(5) 0.6249
C5 C 0.3936(5) 0.5131(4) 0.4277(5)
N3 N 0.3285(4) 0.5633(4) 0.3994(4)
N4 N 0.1715(4) 0.5633(4) 0.6006(4)
C6 C 0.1064(5) 0.5131(4) 0.5723(5)
C7 C 0.0543(4) 0.4800(4) 0.6385(4)
Ag4_2 Ag 0.1249 1.0000 0.75000(5)
N7 N 0.0633(4) 0.8994(4) 0.8285(4)
H11 H 0.0311 0.8680 0.7941
H12 H 0.1050 0.8661 0.8494
C9 C 0.3203(4) 0.7352(4) 0.6442(4)
N8 N 0.3480(4) 0.6861(4) 0.5790(4)
N9 N 0.1520(4) 0.6861(4) 0.4210(4)
C10 C 0.1797(4) 0.7352(4) 0.3558(4)
C11 C 0.1124(4) 0.7693(4) 0.3027(4)
C12 C 0.1442(4) 0.8203(4) 0.2352(4)
N10 N 0.0790(4) 0.8480(4) 0.1861(4)
Ag5 Ag 0.0000 0.75000(5) 0.1249
C13 C 0.1973(4) 0.8876(4) 0.2693(4)
C14 C 0.2648(4) 0.8558(4) 0.3203(4)
N11 N 0.3139(4) 0.9210(4) 0.3480(4)
Ag6_2 Ag 0.3751 1.0000 0.25000(5)
H13 H 0.3533 0.8998 0.3815
H14 H 0.2797 0.9555 0.3795
C15 C 0.2307(4) 0.8027(4) 0.3876(4)
H15 H 0.2957 0.8239 0.2866
H16 H 0.1650 0.9229 0.3029
H17 H 0.2180 0.9196 0.2274
H18 H 0.1761 0.7866 0.2043
H19 H 0.0771 0.8029 0.3350
H20 H 0.0804 0.7274 0.2820
H21 H 0.1185 0.6467 0.3998
H22 H 0.1205 0.7203 0.4555
H23 H 0.3815 0.6467 0.6002
H24 H 0.3795 0.7203 0.5445
C16 C 0.3876(4) 0.7693(4) 0.6973(4)
C17 C 0.3558(4) 0.8203(4) 0.7648(4)
N12 N 0.4210(4) 0.8480(4) 0.8139(4)
Ag7 Ag 0.5000 0.75000(5) 0.8751
N13 N 0.6006(4) 0.8285(4) 0.9367(4)
H25 H 0.6320 0.7941 0.9689
H26 H 0.6339 0.8494 0.8950
N14 N 0.3994(4) 0.6715(4) 0.9367(4)
H27 H 0.3680 0.7059 0.9689
H28 H 0.3661 0.6506 0.8950
N15 N 0.5790(4) 0.6520(4) 0.8139(4)
H29 H 0.6002 0.6185 0.8533
H30 H 0.5445 0.6205 0.7797
H31 H 0.3998 0.8815 0.8533
H32 H 0.4555 0.8795 0.7797
C18 C 0.3027(4) 0.8876(4) 0.7307(4)
H33 H 0.2043 0.8239 0.7134
H34 H 0.3350 0.9229 0.6971
H35 H 0.2820 0.9196 0.7726
H36 H 0.3239 0.7866 0.7957
H37 H 0.4229 0.8029 0.6650
H38 H 0.4196 0.7274 0.7180
H39 H 0.2866 0.7043 0.6761
H40 H 0.3029 0.8350 0.5771
H41 H 0.2274 0.7820 0.5804
H42 H 0.1467 0.8998 0.6185
H43 H 0.2203 0.9555 0.6205
C19 C 0.0200(4) 0.3615(4) 0.5543(4)
C20 C 0.1385(4) 0.4457(4) 0.5200(4)
H46 H 0.0721 0.5466 0.5386
H47 H 0.2059 0.5311 0.6320
H48 H 0.1506 0.6050 0.6339
H49 H 0.2941 0.5311 0.3680
H50 H 0.3494 0.6050 0.3661
C21 C 0.4457(4) 0.4800(4) 0.3615(4)
H51 H 0.4279 0.5466 0.4614
H52 H 0.3287 0.4144 0.4494
H53 H 0.3332 0.4689 0.5237
C22 C 0.4800(4) 0.3615(4) 0.4457(4)
H54 H 0.4614 0.4279 0.5466
H55 H 0.3680 0.2941 0.5311
H56 H 0.3661 0.3494 0.6050
C23 C 0.0723(5) 0.3936(5) 0.4869(4)
H59 H 0.0506 0.3287 0.5856
H61 H 0.1713 0.4144 0.5506
H62 H 0.1668 0.4689 0.4763
C24 C 0.5131(4) 0.4277(5) 0.3936(5)
H63 H 0.4144 0.4494 0.3287
H64 H 0.4689 0.5237 0.3332
H65 H 0.4494 0.3287 0.4144
H66 H 0.5237 0.3332 0.4689
N17 N 0.1006(4) 0.3285(4) 0.4367(4)
H67 H 0.0386 0.4279 0.4534
N18 N 0.5633(4) 0.3994(4) 0.3285(4)
H68 H 0.5466 0.4614 0.4279
Ag8 Ag 0.0000 0.25000(5) 0.3751
H69 H 0.1320 0.2941 0.4689
H70 H 0.1339 0.3494 0.3950
Ag9 Ag 0.6249 0.5000 0.25000(5)
H71 H 0.5311 0.3680 0.2941
H72 H 0.6050 0.3661 0.3494
H73 H 0.57639 0.873005 0.969583
H75 H 0.0304166 0.92361 0.873005
H77 H 0.42361 0.626995 0.969583
H78 H 0.623261 0.677505 0.781674
H1 H 0.9689 0.3680 0.7059
H2 H 0.8950 0.3661 0.6506
H3 H 0.9534 0.4614 0.5721
C8 C 0.9869(4) 0.4277(5) 0.6064(5)
N5 N 0.9367(4) 0.3994(4) 0.6715(4)
Ag3 Ag 0.8751 0.5000 0.75000(5)
Ag5_2 Ag 1.0000 0.75000(5) 0.1249
H60 H 0.9763 0.3332 0.5311
Ag8_2 Ag 1.0000 0.25000(5) 0.3751
N6_2 N 0.6715(4) 0.0633(4) 0.1006(4)
Ag4_3 Ag 0.75000(5) 0.1249 -0.0000
Ag6_3 Ag 0.25000(5) 0.3751 -0.0000
N16_2 N 0.8480(4) 0.1861(4) 0.0790(4)
H44_2 H 0.7059 0.0311 0.1320
H45_2 H 0.6506 0.1050 0.1339
H57_2 H 0.8815 0.1467 0.1002
H58_2 H 0.8795 0.2203 0.0445
H74_2 H 0.626995 0.0304166 0.0763902
H76_2 H 0.822495 0.218326 0.123261
N2_2 N 0.6520(4) 0.1861(4) 0.9210(4)
C3_2 C 0.6797(4) 0.2352(4) 0.8558(4)
C4_2 C 0.6124(4) 0.2693(4) 0.8027(4)
H4_2 H 0.6713 0.0856 0.4494
H5_2 H 0.6668 0.0311 0.5237
H8_2 H 0.3239 0.2134 0.7043
H9_2 H 0.4229 0.1971 0.8350
H10_2 H 0.4196 0.2726 0.7820
N4_2 N 0.6006(4) 0.1715(4) 0.5633(4)
C6_2 C 0.5723(5) 0.1064(5) 0.5131(4)
C7_2 C 0.6385(4) 0.0543(4) 0.4800(4)
Ag4_4 Ag 0.75000(5) 0.1249 1.0000
N7_2 N 0.8285(4) 0.0633(4) 0.8994(4)
H11_2 H 0.7941 0.0311 0.8680
H12_2 H 0.8494 0.1050 0.8661
C9_2 C 0.6442(4) 0.3203(4) 0.7352(4)
N8_2 N 0.5790(4) 0.3480(4) 0.6861(4)
N9_2 N 0.4210(4) 0.1520(4) 0.6861(4)
C10_2 C 0.3558(4) 0.1797(4) 0.7352(4)
C11_2 C 0.3027(4) 0.1124(4) 0.7693(4)
C12_2 C 0.2352(4) 0.1442(4) 0.8203(4)
C13_2 C 0.2693(4) 0.1973(4) 0.8876(4)
C14_2 C 0.3203(4) 0.2648(4) 0.8558(4)
N11_2 N 0.3480(4) 0.3139(4) 0.9210(4)
Ag6_4 Ag 0.25000(5) 0.3751 1.0000
H13_2 H 0.3815 0.3533 0.8998
H14_2 H 0.3795 0.2797 0.9555
C15_2 C 0.3876(4) 0.2307(4) 0.8027(4)
H15_2 H 0.2866 0.2957 0.8239
H16_2 H 0.3029 0.1650 0.9229
H17_2 H 0.2274 0.2180 0.9196
H18_2 H 0.2043 0.1761 0.7866
H19_2 H 0.3350 0.0771 0.8029
H20_2 H 0.2820 0.0804 0.7274
H21_2 H 0.3998 0.1185 0.6467
H22_2 H 0.4555 0.1205 0.7203
H23_2 H 0.6002 0.3815 0.6467
H24_2 H 0.5445 0.3795 0.7203
C16_2 C 0.6973(4) 0.3876(4) 0.7693(4)
C17_2 C 0.7648(4) 0.3558(4) 0.8203(4)
N12_2 N 0.8139(4) 0.4210(4) 0.8480(4)
N13_2 N 0.9367(4) 0.6006(4) 0.8285(4)
H25_2 H 0.9689 0.6320 0.7941
H26_2 H 0.8950 0.6339 0.8494
N15_2 N 0.8139(4) 0.5790(4) 0.6520(4)
H29_2 H 0.8533 0.6002 0.6185
H30_2 H 0.7797 0.5445 0.6205
H31_2 H 0.8533 0.3998 0.8815
H32_2 H 0.7797 0.4555 0.8795
C18_2 C 0.7307(4) 0.3027(4) 0.8876(4)
H33_2 H 0.7134 0.2043 0.8239
H34_2 H 0.6971 0.3350 0.9229
H35_2 H 0.7726 0.2820 0.9196
H36_2 H 0.7957 0.3239 0.7866
H37_2 H 0.6650 0.4229 0.8029
H38_2 H 0.7180 0.4196 0.7274
H39_2 H 0.6761 0.2866 0.7043
H40_2 H 0.5771 0.3029 0.8350
H41_2 H 0.5804 0.2274 0.7820
H42_2 H 0.6185 0.1467 0.8998
H43_2 H 0.6205 0.2203 0.9555
C19_2 C 0.5543(4) 0.0200(4) 0.3615(4)
C20_2 C 0.5200(4) 0.1385(4) 0.4457(4)
H46_2 H 0.5386 0.0721 0.5466
H47_2 H 0.6320 0.2059 0.5311
H48_2 H 0.6339 0.1506 0.6050
C23_2 C 0.4869(4) 0.0723(5) 0.3936(5)
H59_2 H 0.5856 0.0506 0.3287
H61_2 H 0.5506 0.1713 0.4144
H62_2 H 0.4763 0.1668 0.4689
N17_2 N 0.4367(4) 0.1006(4) 0.3285(4)
H67_2 H 0.4534 0.0386 0.4279
H69_2 H 0.4689 0.1320 0.2941
H70_2 H 0.3950 0.1339 0.3494
H73_2 H 0.969583 0.57639 0.873005
H75_2 H 0.873005 0.0304166 0.92361
H77_2 H 0.969583 0.42361 0.626995
H78_2 H 0.781674 0.623261 0.677505
H1_2 H 0.7059 0.9689 0.3680
H2_2 H 0.6506 0.8950 0.3661
H3_2 H 0.5721 0.9534 0.4614
C8_2 C 0.6064(5) 0.9869(4) 0.4277(5)
N5_2 N 0.6715(4) 0.9367(4) 0.3994(4)
Ag3_2 Ag 0.75000(5) 0.8751 0.5000
H60_2 H 0.5311 0.9763 0.3332
N6_3 N 0.1006(4) 0.6715(4) 0.0633(4)
H44_3 H 0.1320 0.7059 0.0311
H45_3 H 0.1339 0.6506 0.1050
H74_3 H 0.0763902 0.626995 0.0304166
H76_3 H 0.123261 0.822495 0.218326
N2_3 N 0.9210(4) 0.6520(4) 0.1861(4)
C3_3 C 0.8558(4) 0.6797(4) 0.2352(4)
C4_3 C 0.8027(4) 0.6124(4) 0.2693(4)
H4_3 H 0.4494 0.6713 0.0856
H5_3 H 0.5237 0.6668 0.0311
H8_3 H 0.7043 0.3239 0.2134
H9_3 H 0.8350 0.4229 0.1971
H10_3 H 0.7820 0.4196 0.2726
N4_3 N 0.5633(4) 0.6006(4) 0.1715(4)
C6_3 C 0.5131(4) 0.5723(5) 0.1064(5)
C7_3 C 0.4800(4) 0.6385(4) 0.0543(4)
N7_3 N 0.8994(4) 0.8285(4) 0.0633(4)
H11_3 H 0.8680 0.7941 0.0311
H12_3 H 0.8661 0.8494 0.1050
C9_3 C 0.7352(4) 0.6442(4) 0.3203(4)
N8_3 N 0.6861(4) 0.5790(4) 0.3480(4)
N9_3 N 0.6861(4) 0.4210(4) 0.1520(4)
C10_3 C 0.7352(4) 0.3558(4) 0.1797(4)
C11_3 C 0.7693(4) 0.3027(4) 0.1124(4)
C12_3 C 0.8203(4) 0.2352(4) 0.1442(4)
C13_3 C 0.8876(4) 0.2693(4) 0.1973(4)
C14_3 C 0.8558(4) 0.3203(4) 0.2648(4)
N11_3 N 0.9210(4) 0.3480(4) 0.3139(4)
H13_3 H 0.8998 0.3815 0.3533
H14_3 H 0.9555 0.3795 0.2797
C15_3 C 0.8027(4) 0.3876(4) 0.2307(4)
H15_3 H 0.8239 0.2866 0.2957
H16_3 H 0.9229 0.3029 0.1650
H17_3 H 0.9196 0.2274 0.2180
H18_3 H 0.7866 0.2043 0.1761
H19_3 H 0.8029 0.3350 0.0771
H20_3 H 0.7274 0.2820 0.0804
H21_3 H 0.6467 0.3998 0.1185
H22_3 H 0.7203 0.4555 0.1205
H23_3 H 0.6467 0.6002 0.3815
H24_3 H 0.7203 0.5445 0.3795
C16_3 C 0.7693(4) 0.6973(4) 0.3876(4)
C17_3 C 0.8203(4) 0.7648(4) 0.3558(4)
N12_3 N 0.8480(4) 0.8139(4) 0.4210(4)
N13_3 N 0.8285(4) 0.9367(4) 0.6006(4)
H25_3 H 0.7941 0.9689 0.6320
H26_3 H 0.8494 0.8950 0.6339
N15_3 N 0.6520(4) 0.8139(4) 0.5790(4)
H29_3 H 0.6185 0.8533 0.6002
H30_3 H 0.6205 0.7797 0.5445
H31_3 H 0.8815 0.8533 0.3998
H32_3 H 0.8795 0.7797 0.4555
C18_3 C 0.8876(4) 0.7307(4) 0.3027(4)
H33_3 H 0.8239 0.7134 0.2043
H34_3 H 0.9229 0.6971 0.3350
H35_3 H 0.9196 0.7726 0.2820
H36_3 H 0.7866 0.7957 0.3239
H37_3 H 0.8029 0.6650 0.4229
H38_3 H 0.7274 0.7180 0.4196
H39_3 H 0.7043 0.6761 0.2866
H40_3 H 0.8350 0.5771 0.3029
H41_3 H 0.7820 0.5804 0.2274
H42_3 H 0.8998 0.6185 0.1467
H43_3 H 0.9555 0.6205 0.2203
C19_3 C 0.3615(4) 0.5543(4) 0.0200(4)
C20_3 C 0.4457(4) 0.5200(4) 0.1385(4)
H46_3 H 0.5466 0.5386 0.0721
H47_3 H 0.5311 0.6320 0.2059
H48_3 H 0.6050 0.6339 0.1506
C23_3 C 0.3936(5) 0.4869(4) 0.0723(5)
H59_3 H 0.3287 0.5856 0.0506
H61_3 H 0.4144 0.5506 0.1713
H62_3 H 0.4689 0.4763 0.1668
N17_3 N 0.3285(4) 0.4367(4) 0.1006(4)
H67_3 H 0.4279 0.4534 0.0386
H69_3 H 0.2941 0.4689 0.1320
H70_3 H 0.3494 0.3950 0.1339
H73_3 H 0.873005 0.969583 0.57639
H75_3 H 0.92361 0.873005 0.0304166
H77_3 H 0.626995 0.969583 0.42361
H78_3 H 0.677505 0.781674 0.623261
H3_3 H 0.4614 0.5721 0.9534
C8_3 C 0.4277(5) 0.6064(5) 0.9869(4)
H60_3 H 0.3332 0.5311 0.9763
C24_2 C 0.0131(4) 0.0723(5) 0.6064(5)
H66_2 H 0.0237 0.1668 0.5311
H68_2 H 0.0466 0.0386 0.5721
N1_2 N 0.8994(4) 0.1715(4) 0.4367(4)
C1_2 C 0.9277(5) 0.1064(5) 0.4869(4)
C2_2 C 0.8615(4) 0.0543(4) 0.5200(4)
C21_2 C 0.9457(4) 0.0200(4) 0.6385(4)
H52_2 H 0.8287 0.0856 0.5506
H53_2 H 0.8332 0.0311 0.4763
C22_2 C 0.9800(4) 0.1385(4) 0.5543(4)
H54_2 H 0.9614 0.0721 0.4534
H55_2 H 0.8680 0.2059 0.4689
H56_2 H 0.8661 0.1506 0.3950
H63_2 H 0.9144 0.0506 0.6713
H65_2 H 0.9494 0.1713 0.5856
H8_4 H 0.7134 0.7957 0.6761
H9_4 H 0.6971 0.6650 0.5771
H10_4 H 0.7726 0.7180 0.5804
C5_2 C 0.8936(5) 0.9869(4) 0.5723(5)
C10_4 C 0.6797(4) 0.7648(4) 0.6442(4)
C11_4 C 0.6124(4) 0.7307(4) 0.6973(4)
C12_4 C 0.6442(4) 0.6797(4) 0.7648(4)
C13_4 C 0.6973(4) 0.6124(4) 0.7307(4)
C14_4 C 0.7648(4) 0.6442(4) 0.6797(4)
C15_4 C 0.7307(4) 0.6973(4) 0.6124(4)
H15_4 H 0.7957 0.6761 0.7134
H16_4 H 0.6650 0.5771 0.6971
H17_4 H 0.7180 0.5804 0.7726
H18_4 H 0.6761 0.7134 0.7957
H19_4 H 0.5771 0.6971 0.6650
H20_4 H 0.5804 0.7726 0.7180
H51_2 H 0.9279 0.9534 0.5386
H64_2 H 0.9689 0.9763 0.6668
H74_4 H 0.530417 0.42361 0.373005
H75_4 H 0.530417 0.57639 0.126995
H76_4 H 0.718326 0.376739 0.177505
N2_4 N 0.1520(4) 0.3139(4) 0.0790(4)
C3_4 C 0.1797(4) 0.2648(4) 0.1442(4)
C4_4 C 0.1124(4) 0.2307(4) 0.1973(4)
C9_4 C 0.1442(4) 0.1797(4) 0.2648(4)
N8_4 N 0.0790(4) 0.1520(4) 0.3139(4)
H23_4 H 0.1002 0.1185 0.3533
H24_4 H 0.0445 0.1205 0.2797
C16_4 C 0.1973(4) 0.1124(4) 0.2307(4)
C17_4 C 0.2648(4) 0.1442(4) 0.1797(4)
N12_4 N 0.3139(4) 0.0790(4) 0.1520(4)
H31_4 H 0.3533 0.1002 0.1185
H32_4 H 0.2797 0.0445 0.1205
C18_4 C 0.2307(4) 0.1973(4) 0.1124(4)
H33_4 H 0.2134 0.2957 0.1761
H34_4 H 0.1971 0.1650 0.0771
H35_4 H 0.2726 0.2180 0.0804
H36_4 H 0.2957 0.1761 0.2134
H37_4 H 0.1650 0.0771 0.1971
H38_4 H 0.2180 0.0804 0.2726
H39_4 H 0.1761 0.2134 0.2957
H40_4 H 0.0771 0.1971 0.1650
H41_4 H 0.0804 0.2726 0.2180
H42_4 H 0.1185 0.3533 0.1002
H43_4 H 0.1205 0.2797 0.0445
H75_5 H 0.373005 0.469583 0.0763902
H77_4 H 0.469583 0.0763902 0.373005
N6_4 N 0.1715(4) 0.4367(4) 0.8994(4)
H44_4 H 0.2059 0.4689 0.8680
H45_4 H 0.1506 0.3950 0.8661
H74_5 H 0.126995 0.469583 0.92361
H76_5 H 0.322495 0.281674 0.876739
N13_4 N 0.4367(4) 0.8994(4) 0.1715(4)
H25_4 H 0.4689 0.8680 0.2059
H26_4 H 0.3950 0.8661 0.1506
H73_4 H 0.469583 0.92361 0.126995
H78_4 H 0.281674 0.876739 0.322495
H5_4 H 0.0237 0.8332 0.9689
C6_4 C 0.0131(4) 0.9277(5) 0.8936(5)
H46_4 H 0.0466 0.9614 0.9279
H73_5 H 0.373005 0.530417 0.42361
H77_5 H 0.126995 0.530417 0.57639
H78_5 H 0.177505 0.718326 0.376739
C23_4 C 0.8936(5) 0.0131(4) 0.9277(5)
H62_4 H 0.9689 0.0237 0.8332
H67_4 H 0.9279 0.0466 0.9614
H3_4 H 0.9614 0.9279 0.0466
C8_4 C 0.9277(5) 0.8936(5) 0.0131(4)
H60_4 H 0.8332 0.9689 0.0237
H4_4 H 0.9494 0.8287 0.9144
C7_4 C 0.9800(4) 0.8615(4) 0.9457(4)
C19_4 C 0.8615(4) 0.9457(4) 0.9800(4)
C20_4 C 0.9457(4) 0.9800(4) 0.8615(4)
H59_4 H 0.8287 0.9144 0.9494
H61_4 H 0.9144 0.9494 0.8287
C5_3 C 0.6064(5) 0.0131(4) 0.0723(5)
H51_3 H 0.5721 0.0466 0.0386
H64_3 H 0.5311 0.0237 0.1668
H73_6 H 0.42361 0.373005 0.530417
H77_6 H 0.57639 0.126995 0.530417
H78_6 H 0.376739 0.177505 0.718326
C2_3 C 0.6385(4) 0.9457(4) 0.0200(4)
C21_3 C 0.5543(4) 0.9800(4) 0.1385(4)
H52_3 H 0.6713 0.9144 0.0506
C22_3 C 0.5200(4) 0.8615(4) 0.0543(4)
C24_3 C 0.4869(4) 0.9277(5) 0.1064(5)
H63_3 H 0.5856 0.9494 0.1713
H65_3 H 0.5506 0.8287 0.0856
H66_3 H 0.4763 0.8332 0.0311
H68_3 H 0.4534 0.9614 0.0721
C1_3 C 0.5723(5) 0.8936(5) 0.9869(4)
H53_3 H 0.6668 0.9689 0.9763
H54_3 H 0.5386 0.9279 0.9534
H75_6 H 0.0763902 0.373005 0.469583
H74_6 H 0.92361 0.126995 0.469583
H76_6 H 0.876739 0.322495 0.281674
C1_4 C 0.0723(5) 0.6064(5) 0.0131(4)
H53_4 H 0.1668 0.5311 0.0237
H54_4 H 0.0386 0.5721 0.0466
C2_4 C 0.1385(4) 0.5543(4) 0.9800(4)
C5_4 C 0.1064(5) 0.4869(4) 0.9277(5)
C21_4 C 0.0543(4) 0.5200(4) 0.8615(4)
H51_4 H 0.0721 0.4534 0.9614
H52_4 H 0.1713 0.5856 0.9494
C22_4 C 0.0200(4) 0.6385(4) 0.9457(4)
H63_4 H 0.0856 0.5506 0.8287
H64_4 H 0.0311 0.4763 0.8332
H65_4 H 0.0506 0.6713 0.9144
C24_4 C 0.9869(4) 0.5723(5) 0.8936(5)
H66_4 H 0.9763 0.6668 0.9689
H68_4 H 0.9534 0.5386 0.9279
H78_7 H 0.123261 0.177505 0.281674
H76_7 H 0.718326 0.623261 0.322495
H78_8 H 0.281674 0.123261 0.177505
H76_8 H 0.322495 0.718326 0.623261
H78_9 H 0.177505 0.281674 0.123261
H76_9 H 0.623261 0.322495 0.718326
H76_10 H 0.218326 0.876739 0.677505
H76_11 H 0.822495 0.781674 0.376739
H78_10 H 0.781674 0.376739 0.822495
H78_11 H 0.677505 0.218326 0.876739
H78_12 H 0.876739 0.677505 0.218326
H76_12 H 0.376739 0.822495 0.781674
P1 P 0.2500 0.1244(2) 0.5000
F1 F 0.3349(6) 0.142(1) 0.5264(7)
F2 F 0.2761(7) 0.123(2) 0.4150(7)
F3 F 0.2500 0.2203(10) 0.5000
F4 F 0.2500 0.051(1) 0.5000
F5 F 0.1651(6) 0.142(1) 0.4736(7)
F6 F 0.2239(7) 0.123(2) 0.5850(7)
P1_2 P 0.5000 0.2500 0.1244(2)
F1_2 F 0.5264(7) 0.3349(6) 0.142(1)
F2_2 F 0.4150(7) 0.2761(7) 0.123(2)
F3_2 F 0.5000 0.2500 0.2203(10)
F4_2 F 0.5000 0.2500 0.051(1)
F5_2 F 0.4736(7) 0.1651(6) 0.142(1)
F6_2 F 0.5850(7) 0.2239(7) 0.123(2)
P1_3 P 0.1244(2) 0.5000 0.2500
F1_3 F 0.142(1) 0.5264(7) 0.3349(6)
F2_3 F 0.123(2) 0.4150(7) 0.2761(7)
F3_3 F 0.2203(10) 0.5000 0.2500
F4_3 F 0.051(1) 0.5000 0.2500
F5_3 F 0.142(1) 0.4736(7) 0.1651(6)
F6_3 F 0.123(2) 0.5850(7) 0.2239(7)
P1_4 P 0.7500 0.3756(2) 0.5000
F1_4 F 0.8349(6) 0.358(1) 0.4736(7)
F2_4 F 0.7761(7) 0.377(2) 0.5850(7)
F3_4 F 0.7500 0.2797(10) 0.5000
F4_4 F 0.7500 0.449(1) 0.5000
F5_4 F 0.6651(6) 0.358(1) 0.5264(7)
F6_4 F 0.7239(7) 0.377(2) 0.4150(7)
P1_5 P 0.0000 0.2500 0.8756(2)
F1_5 F 0.0264(7) 0.1651(6) 0.858(1)
F3_5 F 0.0000 0.2500 0.7797(10)
F4_5 F 0.0000 0.2500 0.949(1)
F6_5 F 0.0850(7) 0.2761(7) 0.877(2)
P1_6 P 1.0000 0.2500 0.8756(2)
F2_5 F 0.9150(7) 0.2239(7) 0.877(2)
F3_6 F 1.0000 0.2500 0.7797(10)
F4_6 F 1.0000 0.2500 0.949(1)
F5_5 F 0.9736(7) 0.3349(6) 0.858(1)
P1_7 P 0.6244(2) -0.0000 0.7500
F2_6 F 0.623(2) 0.0850(7) 0.7239(7)
F3_7 F 0.7203(10) -0.0000 0.7500
F4_7 F 0.551(1) -0.0000 0.7500
F5_6 F 0.642(1) 0.0264(7) 0.8349(6)
P1_8 P 0.6244(2) 1.0000 0.7500
F1_6 F 0.642(1) 0.9736(7) 0.6651(6)
F3_8 F 0.7203(10) 1.0000 0.7500
F4_8 F 0.551(1) 1.0000 0.7500
F6_6 F 0.623(2) 0.9150(7) 0.7761(7)
P1_9 P 0.7500 0.6244(2) -0.0000
F2_7 F 0.7239(7) 0.623(2) 0.0850(7)
F3_9 F 0.7500 0.7203(10) -0.0000
F4_9 F 0.7500 0.551(1) -0.0000
F5_7 F 0.8349(6) 0.642(1) 0.0264(7)
P1_10 P 0.7500 0.6244(2) 1.0000
F1_7 F 0.6651(6) 0.642(1) 0.9736(7)
F3_10 F 0.7500 0.7203(10) 1.0000
F4_10 F 0.7500 0.551(1) 1.0000
F6_7 F 0.7761(7) 0.623(2) 0.9150(7)
P1_11 P 0.5000 0.7500 0.3756(2)
F1_8 F 0.4736(7) 0.8349(6) 0.358(1)
F2_8 F 0.5850(7) 0.7761(7) 0.377(2)
F3_11 F 0.5000 0.7500 0.2797(10)
F4_11 F 0.5000 0.7500 0.449(1)
F5_8 F 0.5264(7) 0.6651(6) 0.358(1)
F6_8 F 0.4150(7) 0.7239(7) 0.377(2)
P1_12 P 0.8756(2) 0.0000 0.2500
F1_9 F 0.858(1) 0.0264(7) 0.1651(6)
F3_12 F 0.7797(10) 0.0000 0.2500
F4_12 F 0.949(1) 0.0000 0.2500
F6_9 F 0.877(2) 0.0850(7) 0.2761(7)
P1_13 P 0.8756(2) 1.0000 0.2500
F2_9 F 0.877(2) 0.9150(7) 0.2239(7)
F3_13 F 0.7797(10) 1.0000 0.2500
F4_13 F 0.949(1) 1.0000 0.2500
F5_9 F 0.858(1) 0.9736(7) 0.3349(6)
P1_14 P 0.2500 0.8756(2) 0.0000
F1_10 F 0.1651(6) 0.858(1) 0.0264(7)
F3_14 F 0.2500 0.7797(10) 0.0000
F4_14 F 0.2500 0.949(1) 0.0000
F6_10 F 0.2761(7) 0.877(2) 0.0850(7)
P1_15 P 0.2500 0.8756(2) 1.0000
F2_10 F 0.2239(7) 0.877(2) 0.9150(7)
F3_15 F 0.2500 0.7797(10) 1.0000
F4_15 F 0.2500 0.949(1) 1.0000
F5_10 F 0.3349(6) 0.858(1) 0.9736(7)
P1_16 P -0.0000 0.7500 0.6244(2)
F2_11 F 0.0850(7) 0.7239(7) 0.623(2)
F3_16 F -0.0000 0.7500 0.7203(10)
F4_16 F -0.0000 0.7500 0.551(1)
F5_11 F 0.0264(7) 0.8349(6) 0.642(1)
P1_17 P 1.0000 0.7500 0.6244(2)
F1_11 F 0.9736(7) 0.6651(6) 0.642(1)
F3_17 F 1.0000 0.7500 0.7203(10)
F4_17 F 1.0000 0.7500 0.551(1)
F6_11 F 0.9150(7) 0.7761(7) 0.623(2)
P1_18 P 0.3756(2) 0.5000 0.7500
F1_12 F 0.358(1) 0.4736(7) 0.8349(6)
F2_12 F 0.377(2) 0.5850(7) 0.7761(7)
F3_18 F 0.2797(10) 0.5000 0.7500
F4_18 F 0.449(1) 0.5000 0.7500
F5_12 F 0.358(1) 0.5264(7) 0.6651(6)
F6_12 F 0.377(2) 0.4150(7) 0.7239(7)
loop_
_geom_bond_atom_site_label_1
_geom_bond_atom_site_label_2
_geom_bond_site_symmetry_1
_geom_bond_site_symmetry_2
N6 Ag4 1_555 1_555
N16 Ag4 1_555 1_555
H44 N6 1_555 1_555
H45 N6 1_555 1_555
H57 N16 1_555 1_555
H58 N16 1_555 1_555
N6 H74 1_555 1_555
N16 H76 1_555 1_555
Ag1 N3 1_555 1_555
N1 C1 1_555 1_555
N2 C3 1_555 1_555
C1 C2 1_555 1_555
C2 C5 1_555 1_555
C3 C4 1_555 1_555
C4 C9 1_555 1_555
H4 C7 1_555 1_555
H5 C7 1_555 1_555
H6 N10 1_555 1_555
H7 N10 1_555 1_555
H8 C10 1_555 1_555
H9 C15 1_555 1_555
H10 C15 1_555 1_555
Ag2 N1 1_555 1_555
C5 N3 1_555 1_555
N3 H49 1_555 1_555
N4 Ag1 1_555 1_555
C6 N4 1_555 1_555
C7 C6 1_555 1_555
Ag4_2 N2 1_555 1_555
N7 Ag4_2 1_555 1_555
H11 N7 1_555 1_555
H12 N7 1_555 1_555
C9 N8 1_555 1_555
N8 Ag1 1_555 1_555
N9 Ag1 1_555 1_555
C10 N9 1_555 1_555
C11 C10 1_555 1_555
C12 C11 1_555 1_555
N10 C12 1_555 1_555
Ag5 N10 1_555 1_555
C13 C12 1_555 1_555
C14 C13 1_555 1_555
N11 C14 1_555 1_555
Ag6_2 N11 1_555 1_555
H13 N11 1_555 1_555
H14 N11 1_555 1_555
C15 C10 1_555 1_555
H15 C14 1_555 1_555
H16 C13 1_555 1_555
H17 C13 1_555 1_555
H18 C12 1_555 1_555
H19 C11 1_555 1_555
H20 C11 1_555 1_555
H21 N9 1_555 1_555
H22 N9 1_555 1_555
H23 N8 1_555 1_555
H24 N8 1_555 1_555
C16 C9 1_555 1_555
C17 C16 1_555 1_555
N12 C17 1_555 1_555
Ag7 N12 1_555 1_555
N13 Ag7 1_555 1_555
H25 N13 1_555 1_555
H26 N13 1_555 1_555
N14 Ag7 1_555 1_555
H27 N14 1_555 1_555
H28 N14 1_555 1_555
N15 Ag7 1_555 1_555
H29 N15 1_555 1_555
H30 N15 1_555 1_555
H31 N12 1_555 1_555
H32 N12 1_555 1_555
C18 C3 1_555 1_555
H33 C3 1_555 1_555
H34 C18 1_555 1_555
H35 C18 1_555 1_555
H36 C17 1_555 1_555
H37 C16 1_555 1_555
H38 C16 1_555 1_555
H39 C9 1_555 1_555
H40 C4 1_555 1_555
H41 C4 1_555 1_555
H42 N2 1_555 1_555
H43 N2 1_555 1_555
C20 C6 1_555 1_555
H46 C6 1_555 1_555
H47 N4 1_555 1_555
H48 N4 1_555 1_555
H50 N3 1_555 1_555
C21 C5 1_555 1_555
H51 C5 1_555 1_555
H52 C2 1_555 1_555
H53 C2 1_555 1_555
C22 C1 1_555 1_555
H54 C1 1_555 1_555
H55 N1 1_555 1_555
H56 N1 1_555 1_555
C23 C19 1_555 1_555
H59 C19 1_555 1_555
H61 C20 1_555 1_555
H62 C20 1_555 1_555
C24 C21 1_555 1_555
H63 C21 1_555 1_555
H64 C21 1_555 1_555
H65 C22 1_555 1_555
H66 C22 1_555 1_555
N17 C23 1_555 1_555
H67 C23 1_555 1_555
N18 C24 1_555 1_555
H68 C24 1_555 1_555
Ag8 N17 1_555 1_555
H69 N17 1_555 1_555
H70 N17 1_555 1_555
Ag9 N18 1_555 1_555
H71 N18 1_555 1_555
H72 N18 1_555 1_555
C14 C15 1_555 1_555
C17 C18 1_555 1_555
C20 C23 1_555 1_555
C22 C24 1_555 1_555
N13 H73 1_555 1_555
N7 H75 1_555 1_555
N14 H77 1_555 1_555
N15 H78 1_555 1_555
H1 N5 1_555 1_555
H2 N5 1_555 1_555
H3 C8 1_555 1_555
N5 C8 1_555 1_555
Ag3 N5 1_555 1_555
N6_2 Ag4_3 1_555 1_555
N16_2 Ag4_3 1_555 1_555
H44_2 N6_2 1_555 1_555
H45_2 N6_2 1_555 1_555
H57_2 N16_2 1_555 1_555
H58_2 N16_2 1_555 1_555
N6_2 H74_2 1_555 1_555
N16_2 H76_2 1_555 1_555
N2_2 C3_2 1_555 1_555
C3_2 C4_2 1_555 1_555
C4_2 C9_2 1_555 1_555
H4_2 C7_2 1_555 1_555
H5_2 C7_2 1_555 1_555
H8_2 C10_2 1_555 1_555
H9_2 C15_2 1_555 1_555
H10_2 C15_2 1_555 1_555
N4_2 Ag2 1_555 1_555
C6_2 N4_2 1_555 1_555
C7_2 C6_2 1_555 1_555
Ag4_4 N2_2 1_555 1_555
N7_2 Ag4_4 1_555 1_555
H11_2 N7_2 1_555 1_555
H12_2 N7_2 1_555 1_555
C9_2 N8_2 1_555 1_555
N8_2 Ag2 1_555 1_555
N9_2 Ag2 1_555 1_555
C10_2 N9_2 1_555 1_555
C11_2 C10_2 1_555 1_555
C12_2 C11_2 1_555 1_555
N16 C12_2 1_555 1_555
C13_2 C12_2 1_555 1_555
C14_2 C13_2 1_555 1_555
N11_2 C14_2 1_555 1_555
Ag6_4 N11_2 1_555 1_555
H13_2 N11_2 1_555 1_555
H14_2 N11_2 1_555 1_555
C15_2 C10_2 1_555 1_555
H15_2 C14_2 1_555 1_555
H16_2 C13_2 1_555 1_555
H17_2 C13_2 1_555 1_555
H18_2 C12_2 1_555 1_555
H19_2 C11_2 1_555 1_555
H20_2 C11_2 1_555 1_555
H21_2 N9_2 1_555 1_555
H22_2 N9_2 1_555 1_555
H23_2 N8_2 1_555 1_555
H24_2 N8_2 1_555 1_555
C16_2 C9_2 1_555 1_555
C17_2 C16_2 1_555 1_555
N12_2 C17_2 1_555 1_555
Ag3 N12_2 1_555 1_555
N13_2 Ag3 1_555 1_555
H25_2 N13_2 1_555 1_555
H26_2 N13_2 1_555 1_555
N15_2 Ag3 1_555 1_555
H29_2 N15_2 1_555 1_555
H30_2 N15_2 1_555 1_555
H31_2 N12_2 1_555 1_555
H32_2 N12_2 1_555 1_555
C18_2 C3_2 1_555 1_555
H33_2 C3_2 1_555 1_555
H34_2 C18_2 1_555 1_555
H35_2 C18_2 1_555 1_555
H36_2 C17_2 1_555 1_555
H37_2 C16_2 1_555 1_555
H38_2 C16_2 1_555 1_555
H39_2 C9_2 1_555 1_555
H40_2 C4_2 1_555 1_555
H41_2 C4_2 1_555 1_555
H42_2 N2_2 1_555 1_555
H43_2 N2_2 1_555 1_555
C20_2 C6_2 1_555 1_555
H46_2 C6_2 1_555 1_555
H47_2 N4_2 1_555 1_555
H48_2 N4_2 1_555 1_555
C23_2 C19_2 1_555 1_555
H59_2 C19_2 1_555 1_555
H61_2 C20_2 1_555 1_555
H62_2 C20_2 1_555 1_555
N17_2 C23_2 1_555 1_555
H67_2 C23_2 1_555 1_555
Ag6 N17_2 1_555 1_555
H69_2 N17_2 1_555 1_555
H70_2 N17_2 1_555 1_555
C14_2 C15_2 1_555 1_555
C17_2 C18_2 1_555 1_555
C20_2 C23_2 1_555 1_555
N13_2 H73_2 1_555 1_555
N7_2 H75_2 1_555 1_555
N5 H77_2 1_555 1_555
N15_2 H78_2 1_555 1_555
H1_2 N5_2 1_555 1_555
H2_2 N5_2 1_555 1_555
H3_2 C8_2 1_555 1_555
N5_2 C8_2 1_555 1_555
Ag3_2 N5_2 1_555 1_555
N6_3 Ag5 1_555 1_555
H44_3 N6_3 1_555 1_555
H45_3 N6_3 1_555 1_555
N6_3 H74_3 1_555 1_555
N10 H76_3 1_555 1_555
N2_3 C3_3 1_555 1_555
C3_3 C4_3 1_555 1_555
C4_3 C9_3 1_555 1_555
H4_3 C7_3 1_555 1_555
H5_3 C7_3 1_555 1_555
H8_3 C10_3 1_555 1_555
H9_3 C15_3 1_555 1_555
H10_3 C15_3 1_555 1_555
N4_3 Ag9 1_555 1_555
C6_3 N4_3 1_555 1_555
C7_3 C6_3 1_555 1_555
Ag5_2 N2_3 1_555 1_555
N7_3 Ag5_2 1_555 1_555
H11_3 N7_3 1_555 1_555
H12_3 N7_3 1_555 1_555
C9_3 N8_3 1_555 1_555
N8_3 Ag9 1_555 1_555
N9_3 Ag9 1_555 1_555
C10_3 N9_3 1_555 1_555
C11_3 C10_3 1_555 1_555
C12_3 C11_3 1_555 1_555
N16_2 C12_3 1_555 1_555
C13_3 C12_3 1_555 1_555
C14_3 C13_3 1_555 1_555
N11_3 C14_3 1_555 1_555
Ag8_2 N11_3 1_555 1_555
H13_3 N11_3 1_555 1_555
H14_3 N11_3 1_555 1_555
C15_3 C10_3 1_555 1_555
H15_3 C14_3 1_555 1_555
H16_3 C13_3 1_555 1_555
H17_3 C13_3 1_555 1_555
H18_3 C12_3 1_555 1_555
H19_3 C11_3 1_555 1_555
H20_3 C11_3 1_555 1_555
H21_3 N9_3 1_555 1_555
H22_3 N9_3 1_555 1_555
H23_3 N8_3 1_555 1_555
H24_3 N8_3 1_555 1_555
C16_3 C9_3 1_555 1_555
C17_3 C16_3 1_555 1_555
N12_3 C17_3 1_555 1_555
Ag3_2 N12_3 1_555 1_555
N13_3 Ag3_2 1_555 1_555
H25_3 N13_3 1_555 1_555
H26_3 N13_3 1_555 1_555
N15_3 Ag3_2 1_555 1_555
H29_3 N15_3 1_555 1_555
H30_3 N15_3 1_555 1_555
H31_3 N12_3 1_555 1_555
H32_3 N12_3 1_555 1_555
C18_3 C3_3 1_555 1_555
H33_3 C3_3 1_555 1_555
H34_3 C18_3 1_555 1_555
H35_3 C18_3 1_555 1_555
H36_3 C17_3 1_555 1_555
H37_3 C16_3 1_555 1_555
H38_3 C16_3 1_555 1_555
H39_3 C9_3 1_555 1_555
H40_3 C4_3 1_555 1_555
H41_3 C4_3 1_555 1_555
H42_3 N2_3 1_555 1_555
H43_3 N2_3 1_555 1_555
C20_3 C6_3 1_555 1_555
H46_3 C6_3 1_555 1_555
H47_3 N4_3 1_555 1_555
H48_3 N4_3 1_555 1_555
C23_3 C19_3 1_555 1_555
H59_3 C19_3 1_555 1_555
H61_3 C20_3 1_555 1_555
H62_3 C20_3 1_555 1_555
N17_3 C23_3 1_555 1_555
H67_3 C23_3 1_555 1_555
Ag6_3 N17_3 1_555 1_555
H69_3 N17_3 1_555 1_555
H70_3 N17_3 1_555 1_555
C14_3 C15_3 1_555 1_555
C17_3 C18_3 1_555 1_555
C20_3 C23_3 1_555 1_555
N13_3 H73_3 1_555 1_555
N7_3 H75_3 1_555 1_555
N5_2 H77_3 1_555 1_555
N15_3 H78_3 1_555 1_555
H3_3 C8_3 1_555 1_555
N14 C8_3 1_555 1_555
N6 C24_2 1_555 1_555
H68_2 C24_2 1_555 1_555
N1_2 C1_2 1_555 1_555
C1_2 C2_2 1_555 1_555
Ag8_2 N1_2 1_555 1_555
H52_2 C2_2 1_555 1_555
H53_2 C2_2 1_555 1_555
C22_2 C1_2 1_555 1_555
H54_2 C1_2 1_555 1_555
H55_2 N1_2 1_555 1_555
H56_2 N1_2 1_555 1_555
H63_2 C21_2 1_555 1_555
H65_2 C22_2 1_555 1_555
H8_4 C10_4 1_555 1_555
H9_4 C15_4 1_555 1_555
H10_4 C15_4 1_555 1_555
C5_2 N13_3 1_555 1_555
C10_4 N15_3 1_555 1_555
C11_4 C10_4 1_555 1_555
C12_4 C11_4 1_555 1_555
N15 C12_4 1_555 1_555
C13_4 C12_4 1_555 1_555
C14_4 C13_4 1_555 1_555
N15_2 C14_4 1_555 1_555
C15_4 C10_4 1_555 1_555
H15_4 C14_4 1_555 1_555
H16_4 C13_4 1_555 1_555
H17_4 C13_4 1_555 1_555
H18_4 C12_4 1_555 1_555
H19_4 C11_4 1_555 1_555
H20_4 C11_4 1_555 1_555
H51_2 C5_2 1_555 1_555
C14_4 C15_4 1_555 1_555
N18 H74_4 1_555 1_555
N4_3 H75_4 1_555 1_555
N9_3 H76_4 1_555 1_555
N2_4 C3_4 1_555 1_555
C3_4 C4_4 1_555 1_555
C4_4 C9_4 1_555 1_555
Ag6_3 N2_4 1_555 1_555
C9_4 N8_4 1_555 1_555
N8_4 Ag8 1_555 1_555
H23_4 N8_4 1_555 1_555
H24_4 N8_4 1_555 1_555
C16_4 C9_4 1_555 1_555
C17_4 C16_4 1_555 1_555
N12_4 C17_4 1_555 1_555
Ag6 N12_4 1_555 1_555
H31_4 N12_4 1_555 1_555
H32_4 N12_4 1_555 1_555
C18_4 C3_4 1_555 1_555
H33_4 C3_4 1_555 1_555
H34_4 C18_4 1_555 1_555
H35_4 C18_4 1_555 1_555
H36_4 C17_4 1_555 1_555
H37_4 C16_4 1_555 1_555
H38_4 C16_4 1_555 1_555
H39_4 C9_4 1_555 1_555
H40_4 C4_4 1_555 1_555
H41_4 C4_4 1_555 1_555
H42_4 N2_4 1_555 1_555
H43_4 N2_4 1_555 1_555
C17_4 C18_4 1_555 1_555
N17_3 H75_5 1_555 1_555
N17_2 H77_4 1_555 1_555
N6_4 Ag6_4 1_555 1_555
H44_4 N6_4 1_555 1_555
H45_4 N6_4 1_555 1_555
N6_4 H74_5 1_555 1_555
N11_2 H76_5 1_555 1_555
N13_4 Ag6_2 1_555 1_555
H25_4 N13_4 1_555 1_555
H26_4 N13_4 1_555 1_555
N13_4 H73_4 1_555 1_555
N11 H78_4 1_555 1_555
C6_4 N7 1_555 1_555
H46_4 C6_4 1_555 1_555
N3 H73_5 1_555 1_555
N4 H77_5 1_555 1_555
N9 H78_5 1_555 1_555
N7_2 C23_4 1_555 1_555
H67_4 C23_4 1_555 1_555
H3_4 C8_4 1_555 1_555
N7_3 C8_4 1_555 1_555
H4_4 C7_4 1_555 1_555
H59_4 C19_4 1_555 1_555
H61_4 C20_4 1_555 1_555
C5_3 N6_2 1_555 1_555
H51_3 C5_3 1_555 1_555
N1 H73_6 1_555 1_555
N4_2 H77_6 1_555 1_555
N9_2 H78_6 1_555 1_555
H52_3 C2_3 1_555 1_555
C24_3 C21_3 1_555 1_555
H63_3 C21_3 1_555 1_555
H65_3 C22_3 1_555 1_555
H66_3 C22_3 1_555 1_555
N13_4 C24_3 1_555 1_555
H68_3 C24_3 1_555 1_555
C22_3 C24_3 1_555 1_555
N13 C1_3 1_555 1_555
H54_3 C1_3 1_555 1_555
N17 H75_6 1_555 1_555
N1_2 H74_6 1_555 1_555
N11_3 H76_6 1_555 1_555
N6_3 C1_4 1_555 1_555
H54_4 C1_4 1_555 1_555
C2_4 C5_4 1_555 1_555
C5_4 N6_4 1_555 1_555
C21_4 C5_4 1_555 1_555
H51_4 C5_4 1_555 1_555
H52_4 C2_4 1_555 1_555
H63_4 C21_4 1_555 1_555
H64_4 C21_4 1_555 1_555
H65_4 C22_4 1_555 1_555
N13_2 C24_4 1_555 1_555
H68_4 C24_4 1_555 1_555
N8_4 H78_7 1_555 1_555
N8_3 H76_7 1_555 1_555
N12_4 H78_8 1_555 1_555
N8 H76_8 1_555 1_555
N2_4 H78_9 1_555 1_555
N8_2 H76_9 1_555 1_555
N2 H76_10 1_555 1_555
N12_3 H76_11 1_555 1_555
N12_2 H78_10 1_555 1_555
N2_2 H78_11 1_555 1_555
N2_3 H78_12 1_555 1_555
N12 H76_12 1_555 1_555
P1 F1 1_555 1_555
F2 P1 1_555 1_555
F3 P1 1_555 1_555
F4 P1 1_555 1_555
F5 P1 1_555 1_555
F6 P1 1_555 1_555
P1_2 F1_2 1_555 1_555
F2_2 P1_2 1_555 1_555
F3_2 P1_2 1_555 1_555
F4_2 P1_2 1_555 1_555
F5_2 P1_2 1_555 1_555
F6_2 P1_2 1_555 1_555
P1_3 F1_3 1_555 1_555
F2_3 P1_3 1_555 1_555
F3_3 P1_3 1_555 1_555
F4_3 P1_3 1_555 1_555
F5_3 P1_3 1_555 1_555
F6_3 P1_3 1_555 1_555
P1_4 F1_4 1_555 1_555
F2_4 P1_4 1_555 1_555
F3_4 P1_4 1_555 1_555
F4_4 P1_4 1_555 1_555
F5_4 P1_4 1_555 1_555
F6_4 P1_4 1_555 1_555
P1_5 F1_5 1_555 1_555
F3_5 P1_5 1_555 1_555
F4_5 P1_5 1_555 1_555
F6_5 P1_5 1_555 1_555
F2_5 P1_6 1_555 1_555
F3_6 P1_6 1_555 1_555
F4_6 P1_6 1_555 1_555
F5_5 P1_6 1_555 1_555
F2_6 P1_7 1_555 1_555
F3_7 P1_7 1_555 1_555
F4_7 P1_7 1_555 1_555
F5_6 P1_7 1_555 1_555
P1_8 F1_6 1_555 1_555
F3_8 P1_8 1_555 1_555
F4_8 P1_8 1_555 1_555
F6_6 P1_8 1_555 1_555
F2_7 P1_9 1_555 1_555
F3_9 P1_9 1_555 1_555
F4_9 P1_9 1_555 1_555
F5_7 P1_9 1_555 1_555
P1_10 F1_7 1_555 1_555
F3_10 P1_10 1_555 1_555
F4_10 P1_10 1_555 1_555
F6_7 P1_10 1_555 1_555
P1_11 F1_8 1_555 1_555
F2_8 P1_11 1_555 1_555
F3_11 P1_11 1_555 1_555
F4_11 P1_11 1_555 1_555
F5_8 P1_11 1_555 1_555
F6_8 P1_11 1_555 1_555
P1_12 F1_9 1_555 1_555
F3_12 P1_12 1_555 1_555
F4_12 P1_12 1_555 1_555
F6_9 P1_12 1_555 1_555
F2_9 P1_13 1_555 1_555
F3_13 P1_13 1_555 1_555
F4_13 P1_13 1_555 1_555
F5_9 P1_13 1_555 1_555
P1_14 F1_10 1_555 1_555
F3_14 P1_14 1_555 1_555
F4_14 P1_14 1_555 1_555
F6_10 P1_14 1_555 1_555
F2_10 P1_15 1_555 1_555
F3_15 P1_15 1_555 1_555
F4_15 P1_15 1_555 1_555
F5_10 P1_15 1_555 1_555
F2_11 P1_16 1_555 1_555
F3_16 P1_16 1_555 1_555
F4_16 P1_16 1_555 1_555
F5_11 P1_16 1_555 1_555
P1_17 F1_11 1_555 1_555
F3_17 P1_17 1_555 1_555
F4_17 P1_17 1_555 1_555
F6_11 P1_17 1_555 1_555
P1_18 F1_12 1_555 1_555
F2_12 P1_18 1_555 1_555
F3_18 P1_18 1_555 1_555
F4_18 P1_18 1_555 1_555
F5_12 P1_18 1_555 1_555
F6_12 P1_18 1_555 1_555

#END
