
###############################################################################
#
# This file contains modified crystal structure data generated from the
# MOF subset of the Cambridge Structural Database (CSD) v543 
# hosted by the Cambridge Crystallographic Data Centre (CCDC).
#
# This work is licensed under the Creative Commons
# Attribution-NonCommercial-ShareAlike 4.0 International License.
# To view a copy of this license, visit
# http://creativecommons.org/licenses/by-nc-sa/4.0/
# or send a letter to
# Creative Commons, PO Box 1866, Mountain View, CA 94042, USA.
#
# CIF created using the CSD Python API on 29 September 2022
# The structure has been converted into the P1 space group
# The structure has a 3D framework
# The original CSD entry IKOTUZ is in the rhombohedral crystal system
# The framework has been calculated to contain at least 10.0% void space
# The void calculation uses a probe of radius 1.32A, grid spacing 0.4
# H atom positions have been added when not included in the experimental data
#
###############################################################################

data_IKOTUZ
_chemical_formula_moiety         '(C252 H144 K15 O186 S36 Sm18)n'
_symmetry_cell_setting           triclinic
_symmetry_space_group_name_H-M   'P 1'
_symmetry_Int_Tables_number      1
_space_group_name_Hall           'P 1'
loop_
_symmetry_equiv_pos_site_id
_symmetry_equiv_pos_as_xyz
1 x,y,z
_cell_length_a                   48.832(2)
_cell_length_b                   48.832(2)
_cell_length_c                   8.4834(6)
_cell_angle_alpha                90
_cell_angle_beta                 90
_cell_angle_gamma                120
_cell_volume                     17519
loop_
_atom_site_label
_atom_site_type_symbol
_atom_site_fract_x
_atom_site_fract_y
_atom_site_fract_z
O11 O 0.50005(14) 0.04471(14) 0.6213(8)
O17 O 0.54554(11) 0.02602(16) 0.5490(6)
O18 O 0.48248(11) 0.00943(15) 0.2869(5)
O19 O 0.52694(10) 0.00943(15) 0.7869(5)
H7 H 0.515597 0.0520258 0.708982
H8 H 0.509513 0.0589349 0.52916
K1 K 0.40824(6) 0.91404(6) 0.2374(2)
O2 O 0.44750(9) 0.95655(10) 0.0485(5)
H3 H 0.3945 0.9565 0.0164
Sm2 Sm 0.50562(3) 0.99175(2) 0.04866(5)
O14 O 0.44462(9) 0.93776(10) 0.5069(5)
O15 O 0.40400(11) 0.88309(11) 0.5063(6)
O16 O 0.46163(18) 0.90400(13) 0.2207(7)
O20 O 0.41011(12) 0.97134(16) 0.3038(6)
Sm1 Sm 0.48613(2) 0.99175(2) 0.54866(5)
S1 S 0.42463(3) 0.90999(3) 0.60525(18)
S2 S 0.24365(3) 0.91847(3) 0.76822(17)
O1 O 0.46616(10) 0.97207(11) 0.8103(5)
O5 O 0.44237(12) 0.90400(13) 0.7207(7)
O6 O 0.21221(11) 0.85286(11) 0.3823(6)
O7 O 0.19361(10) 0.85085(11) 0.6202(5)
O8 O 0.22789(11) 0.92322(12) 0.6371(6)
O9 O 0.22163(10) 0.89550(10) 0.8829(6)
O10 O 0.26755(10) 0.94725(10) 0.8441(6)
C1 C 0.40965(13) 0.93963(15) 0.8427(6)
C2 C 0.39915(13) 0.91960(15) 0.7133(7)
C3 C 0.36812(13) 0.90654(16) 0.6633(8)
H1 H 0.3616 0.8941 0.5730
C4 C 0.34626(16) 0.91187(19) 0.7471(8)
C5 C 0.35665(15) 0.92992(18) 0.8794(8)
H2 H 0.3425 0.9329 0.9396
C6 C 0.38797(16) 0.94392(19) 0.9264(8)
C7 C 0.44287(12) 0.95660(13) 0.9051(7)
C8 C 0.31322(15) 0.89841(19) 0.6887(8)
C9 C 0.29868(14) 0.87241(18) 0.5918(9)
H4 H 0.3097 0.8622 0.5622
C10 C 0.26836(15) 0.86107(18) 0.5374(9)
H5 H 0.2600 0.8446 0.4646
C11 C 0.25019(14) 0.87352(15) 0.5885(8)
C12 C 0.26358(13) 0.89911(15) 0.6891(7)
C13 C 0.29555(14) 0.91227(15) 0.7346(8)
H6 H 0.3049 0.9305 0.7961
C14 C 0.21660(14) 0.85863(14) 0.5277(7)
K3 K 0.50580(8) 0.91404(6) 0.7374(2)
K4 K 0.17247(8) 0.92509(6) 0.5707(2)
Sm3 Sm 0.17229(3) 0.84720(2) 0.88199(5)
Sm4 Sm 0.15280(2) 0.82771(3) 0.38199(5)
O12 O 0.50591(15) 0.97207(11) 0.3103(5)
O13 O 0.50905(13) 0.95655(10) 0.5485(5)
O21 O 0.43783(10) 0.99280(14) 0.5496(6)
K1_2 K 0.08596(6) 0.49420(8) 0.2374(2)
O2_2 O 0.04345(10) 0.49095(13) 0.0485(5)
H3_2 H 0.0435 0.4380 0.0164
Sm2_2 Sm 0.00825(2) 0.51387(4) 0.04866(5)
O14_2 O 0.06224(10) 0.50686(13) 0.5069(5)
O15_2 O 0.11691(11) 0.52091(16) 0.5063(6)
O16_2 O 0.09600(13) 0.55763(22) 0.2207(7)
O20_2 O 0.02866(16) 0.43878(20) 0.3038(6)
Sm1_2 Sm 0.00825(2) 0.49438(3) 0.54866(5)
S1_2 S 0.09001(3) 0.51464(4) 0.60525(18)
S2_2 S 0.08153(3) 0.32518(4) 0.76822(17)
O1_2 O 0.02793(11) 0.49409(15) 0.8103(5)
O5_2 O 0.09600(13) 0.53837(18) 0.7207(7)
O6_2 O 0.14714(11) 0.35935(16) 0.3823(6)
O7_2 O 0.14915(11) 0.34276(15) 0.6202(5)
O8_2 O 0.07678(12) 0.30467(16) 0.6371(6)
O9_2 O 0.10450(10) 0.32613(14) 0.8829(6)
O10_2 O 0.05275(10) 0.32030(14) 0.8441(6)
C1_2 C 0.06037(15) 0.47002(20) 0.8427(6)
C2_2 C 0.08040(15) 0.47955(20) 0.7133(7)
C3_2 C 0.09346(16) 0.46158(21) 0.6633(8)
H1_2 H 0.1059 0.4675 0.5730
C4_2 C 0.08813(19) 0.43439(25) 0.7471(8)
C5_2 C 0.07008(18) 0.42673(23) 0.8794(8)
H2_2 H 0.0671 0.4096 0.9396
C6_2 C 0.05608(19) 0.44405(25) 0.9264(8)
C7_2 C 0.04340(13) 0.48627(18) 0.9051(7)
C8_2 C 0.10159(19) 0.41481(24) 0.6887(8)
C9_2 C 0.12759(18) 0.42627(23) 0.5918(9)
H4_2 H 0.1378 0.4475 0.5622
C10_2 C 0.13893(18) 0.40729(23) 0.5374(9)
H5_2 H 0.1554 0.4154 0.4646
C11_2 C 0.12648(15) 0.37667(21) 0.5885(8)
C12_2 C 0.10089(15) 0.36447(20) 0.6891(7)
C13_2 C 0.08773(15) 0.38328(21) 0.7346(8)
H6_2 H 0.0695 0.3744 0.7961
C14_2 C 0.14137(14) 0.35797(20) 0.5277(7)
K3_2 K 0.08596(6) 0.59176(10) 0.7374(2)
K4_2 K 0.07491(6) 0.24737(10) 0.5707(2)
Sm3_2 Sm 0.15280(2) 0.32508(4) 0.88199(5)
Sm4_2 Sm 0.17229(3) 0.32508(4) 0.38199(5)
O12_2 O 0.02793(11) 0.53384(19) 0.3103(5)
O13_2 O 0.04345(10) 0.55250(16) 0.5485(5)
O21_2 O 0.00720(14) 0.44504(17) 0.5496(6)
O11_2 O 0.95529(14) 0.45534(20) 0.6213(8)
O17_2 O 0.97398(16) 0.51953(19) 0.5490(6)
O18_2 O 0.99057(15) 0.47306(19) 0.2869(5)
O19_2 O 0.99057(15) 0.51752(18) 0.7869(5)
H7_2 H 0.947974 0.463571 0.708982
H8_2 H 0.941065 0.450578 0.52916
K1_3 K 0.50580(8) 0.59176(6) 0.2374(2)
O2_3 O 0.50905(13) 0.55250(9) 0.0485(5)
H3_3 H 0.5620 0.6055 0.0164
Sm2_3 Sm 0.48613(4) 0.49438(3) 0.04866(5)
O14_3 O 0.49314(13) 0.55538(9) 0.5069(5)
O15_3 O 0.47909(16) 0.59600(11) 0.5063(6)
O16_3 O 0.44237(22) 0.53837(18) 0.2207(7)
O20_3 O 0.56122(20) 0.58989(12) 0.3038(6)
Sm1_3 Sm 0.50562(3) 0.51387(2) 0.54866(5)
S1_3 S 0.48536(4) 0.57537(3) 0.60525(18)
S2_3 S 0.67482(4) 0.75635(3) 0.76822(17)
O1_3 O 0.50591(15) 0.53384(10) 0.8103(5)
O5_3 O 0.46163(18) 0.55763(12) 0.7207(7)
O6_3 O 0.64065(16) 0.78779(11) 0.3823(6)
O7_3 O 0.65724(15) 0.80639(10) 0.6202(5)
O8_3 O 0.69533(16) 0.77211(11) 0.6371(6)
O9_3 O 0.67387(14) 0.77837(10) 0.8829(6)
O10_3 O 0.67970(14) 0.73245(10) 0.8441(6)
C1_3 C 0.52998(20) 0.59035(13) 0.8427(6)
C2_3 C 0.52045(20) 0.60085(13) 0.7133(7)
C3_3 C 0.53842(21) 0.63188(13) 0.6633(8)
H1_3 H 0.5325 0.6384 0.5730
C4_3 C 0.56561(25) 0.65374(16) 0.7471(8)
C5_3 C 0.57327(23) 0.64335(15) 0.8794(8)
H2_3 H 0.5904 0.6575 0.9396
C6_3 C 0.55595(25) 0.61203(16) 0.9264(8)
C7_3 C 0.51373(18) 0.55713(12) 0.9051(7)
C8_3 C 0.58519(24) 0.68678(15) 0.6887(8)
C9_3 C 0.57373(23) 0.70132(14) 0.5918(9)
H4_3 H 0.5525 0.6903 0.5622
C10_3 C 0.59271(23) 0.73164(15) 0.5374(9)
H5_3 H 0.5846 0.7400 0.4646
C11_3 C 0.62333(21) 0.74981(14) 0.5885(8)
C12_3 C 0.63553(20) 0.73642(13) 0.6891(7)
C13_3 C 0.61672(21) 0.70445(14) 0.7346(8)
H6_3 H 0.6256 0.6951 0.7961
C14_3 C 0.64203(20) 0.78340(14) 0.5277(7)
O11_3 O 0.54466(20) 0.49995(14) 0.6213(8)
K3_3 K 0.40824(10) 0.49420(8) 0.7374(2)
K4_3 K 0.75263(10) 0.82753(8) 0.5707(2)
Sm3_3 Sm 0.67492(4) 0.82771(3) 0.88199(5)
Sm4_3 Sm 0.67492(4) 0.84720(2) 0.38199(5)
O12_3 O 0.46616(19) 0.49409(15) 0.3103(5)
O13_3 O 0.44750(16) 0.49095(13) 0.5485(5)
O17_3 O 0.48047(19) 0.45446(11) 0.5490(6)
O18_3 O 0.52694(19) 0.51752(11) 0.2869(5)
O19_3 O 0.48248(18) 0.47306(10) 0.7869(5)
O21_3 O 0.55496(17) 0.56217(10) 0.5496(6)
H7_3 H 0.536429 0.484403 0.708982
H8_3 H 0.549422 0.490487 0.52916
O14_4 O 0.06224(10) 0.55538(9) 0.0069(5)
O15_4 O 0.11691(11) 0.59600(11) 0.0063(6)
S1_4 S 0.09001(3) 0.57537(3) 0.10525(18)
S2_4 S 0.08153(3) 0.75635(3) 0.26822(17)
O7_4 O 0.14915(11) 0.80639(10) 0.1202(5)
O8_4 O 0.07678(12) 0.77211(11) 0.1371(6)
O9_4 O 0.10450(10) 0.77837(10) 0.3829(6)
O10_4 O 0.05275(10) 0.73245(10) 0.3441(6)
C1_4 C 0.06037(15) 0.59035(13) 0.3427(6)
C2_4 C 0.08040(15) 0.60085(13) 0.2133(7)
C3_4 C 0.09346(16) 0.63188(13) 0.1633(8)
H1_4 H 0.1059 0.6384 0.0730
C4_4 C 0.08813(19) 0.65374(16) 0.2471(8)
C5_4 C 0.07008(18) 0.64335(15) 0.3794(8)
H2_4 H 0.0671 0.6575 0.4396
C6_4 C 0.05608(19) 0.61203(16) 0.4264(8)
H3_4 H 0.0435 0.6055 0.5164
C7_4 C 0.04340(13) 0.55713(12) 0.4051(7)
C8_4 C 0.10159(19) 0.68678(15) 0.1887(8)
C9_4 C 0.12759(18) 0.70132(14) 0.0918(9)
H4_4 H 0.1378 0.6903 0.0622
C10_4 C 0.13893(18) 0.73164(15) 0.0374(9)
C11_4 C 0.12648(15) 0.74981(14) 0.0885(8)
C12_4 C 0.10089(15) 0.73642(13) 0.1891(7)
C13_4 C 0.08773(15) 0.70445(14) 0.2346(8)
H6_4 H 0.0695 0.6951 0.2961
C14_4 C 0.14137(14) 0.78340(14) 0.0277(7)
K4_4 K 0.07491(6) 0.82753(8) 0.0707(2)
O20_4 O 0.02866(16) 0.58989(12) 0.8038(6)
O21_4 O 0.00720(14) 0.56217(10) 0.0496(6)
O6_4 O 0.14714(11) 0.78779(11) 0.8823(6)
H5_4 H 0.1554 0.7400 0.9646
O11_4 O 0.95529(14) 0.49995(14) 0.1213(8)
O17_4 O 0.97398(16) 0.45446(11) 0.0490(6)
H7_4 H 0.947974 0.484403 0.208982
H8_4 H 0.941065 0.490487 0.02916
O11_5 O 0.54466(20) 0.04471(14) 0.1213(8)
O17_5 O 0.48047(19) 0.02602(16) 0.0490(6)
H7_5 H 0.536429 0.0520258 0.208982
H8_5 H 0.549422 0.0589349 0.02916
O14_5 O 0.49314(13) 0.93776(10) 0.0069(5)
O15_5 O 0.47909(16) 0.88309(11) 0.0063(6)
S1_5 S 0.48536(4) 0.90999(3) 0.10525(18)
S2_5 S 0.67482(4) 0.91847(3) 0.26822(17)
O7_5 O 0.65724(15) 0.85085(11) 0.1202(5)
O8_5 O 0.69533(16) 0.92322(12) 0.1371(6)
O9_5 O 0.67387(14) 0.89550(10) 0.3829(6)
O10_5 O 0.67970(14) 0.94725(10) 0.3441(6)
C1_5 C 0.52998(20) 0.93963(15) 0.3427(6)
C2_5 C 0.52045(20) 0.91960(15) 0.2133(7)
C3_5 C 0.53842(21) 0.90654(16) 0.1633(8)
H1_5 H 0.5325 0.8941 0.0730
C4_5 C 0.56561(25) 0.91187(19) 0.2471(8)
C5_5 C 0.57327(23) 0.92992(18) 0.3794(8)
H2_5 H 0.5904 0.9329 0.4396
C6_5 C 0.55595(25) 0.94392(19) 0.4264(8)
H3_5 H 0.5620 0.9565 0.5164
C7_5 C 0.51373(18) 0.95660(13) 0.4051(7)
C8_5 C 0.58519(24) 0.89841(19) 0.1887(8)
C9_5 C 0.57373(23) 0.87241(18) 0.0918(9)
H4_5 H 0.5525 0.8622 0.0622
C10_5 C 0.59271(23) 0.86107(18) 0.0374(9)
C11_5 C 0.62333(21) 0.87352(15) 0.0885(8)
C12_5 C 0.63553(20) 0.89911(15) 0.1891(7)
C13_5 C 0.61672(21) 0.91227(15) 0.2346(8)
H6_5 H 0.6256 0.9305 0.2961
C14_5 C 0.64203(20) 0.85863(14) 0.0277(7)
K4_5 K 0.75263(10) 0.92509(6) 0.0707(2)
O20_5 O 0.56122(20) 0.97134(16) 0.8038(6)
O21_5 O 0.55496(17) 0.99280(14) 0.0496(6)
O6_5 O 0.64065(16) 0.85286(11) 0.8823(6)
H5_5 H 0.5846 0.8446 0.9646
O14_6 O 0.44462(9) 0.50686(13) 0.0069(5)
O15_6 O 0.40400(11) 0.52091(16) 0.0063(6)
S1_6 S 0.42463(3) 0.51464(4) 0.10525(18)
S2_6 S 0.24365(3) 0.32518(4) 0.26822(17)
O7_6 O 0.19361(10) 0.34276(15) 0.1202(5)
O8_6 O 0.22789(11) 0.30467(16) 0.1371(6)
O9_6 O 0.22163(10) 0.32613(14) 0.3829(6)
O10_6 O 0.26755(10) 0.32030(14) 0.3441(6)
C1_6 C 0.40965(13) 0.47002(20) 0.3427(6)
C2_6 C 0.39915(13) 0.47955(20) 0.2133(7)
C3_6 C 0.36812(13) 0.46158(21) 0.1633(8)
H1_6 H 0.3616 0.4675 0.0730
C4_6 C 0.34626(16) 0.43439(25) 0.2471(8)
C5_6 C 0.35665(15) 0.42673(23) 0.3794(8)
H2_6 H 0.3425 0.4096 0.4396
C6_6 C 0.38797(16) 0.44405(25) 0.4264(8)
H3_6 H 0.3945 0.4380 0.5164
C7_6 C 0.44287(12) 0.48627(18) 0.4051(7)
C8_6 C 0.31322(15) 0.41481(24) 0.1887(8)
C9_6 C 0.29868(14) 0.42627(23) 0.0918(9)
H4_6 H 0.3097 0.4475 0.0622
C10_6 C 0.26836(15) 0.40729(23) 0.0374(9)
C11_6 C 0.25019(14) 0.37667(21) 0.0885(8)
C12_6 C 0.26358(13) 0.36447(20) 0.1891(7)
C13_6 C 0.29555(14) 0.38328(21) 0.2346(8)
H6_6 H 0.3049 0.3744 0.2961
C14_6 C 0.21660(14) 0.35797(20) 0.0277(7)
O11_6 O 0.50005(14) 0.45534(20) 0.1213(8)
K4_6 K 0.17247(8) 0.24737(10) 0.0707(2)
O17_6 O 0.54554(11) 0.51953(19) 0.0490(6)
O20_6 O 0.41011(12) 0.43878(20) 0.8038(6)
O21_6 O 0.43783(10) 0.44504(17) 0.0496(6)
H7_6 H 0.515597 0.463571 0.208982
H8_6 H 0.509513 0.450578 0.02916
O6_6 O 0.21221(11) 0.35935(16) 0.8823(6)
H5_6 H 0.2600 0.4154 0.9646
O1_4 O 0.13283(10) 0.30540(11) 0.1436(5)
O2_4 O 0.11417(9) 0.28988(10) 0.3818(5)
O5_4 O 0.10904(12) 0.23733(13) 0.0540(7)
C1_7 C 0.07632(13) 0.27296(15) 0.1760(6)
C2_7 C 0.06582(13) 0.25293(15) 0.0466(7)
C4_7 C 0.01293(16) 0.24520(19) 0.0804(8)
C5_7 C 0.02332(15) 0.26325(18) 0.2127(8)
H2_7 H 0.0092 0.2662 0.2729
C6_7 C 0.05464(16) 0.27725(19) 0.2597(8)
H3_7 H 0.0612 0.2898 0.3497
C7_7 C 0.10954(12) 0.28993(13) 0.2384(7)
O14_7 O 0.11129(9) 0.27109(10) 0.8402(5)
O15_7 O 0.07067(11) 0.21642(11) 0.8396(6)
O16_4 O 0.12830(18) 0.23733(13) 0.5540(7)
H7_7 H 0.182263 0.385359 0.0423151
S1_7 S 0.09130(3) 0.24332(3) 0.93858(18)
C3_7 C 0.03479(13) 0.23987(16) 0.9966(8)
H1_7 H 0.0283 0.2274 0.9063
O11_7 O 0.16672(14) 0.37804(14) 0.9546(8)
O12_4 O 0.17258(15) 0.30540(11) 0.6436(5)
O13_4 O 0.17572(13) 0.28988(10) 0.8818(5)
H8_7 H 0.17618 0.392268 0.862493
S2_7 S 0.91032(3) 0.25180(3) 0.10155(17)
O9_7 O 0.88830(10) 0.22883(10) 0.2162(6)
O10_7 O 0.93422(10) 0.28058(10) 0.1774(6)
C8_7 C 0.97989(15) 0.23174(19) 0.0220(8)
C12_7 C 0.93025(13) 0.23244(15) 0.0224(7)
C13_7 C 0.96222(14) 0.24560(15) 0.0679(8)
H6_7 H 0.9716 0.2638 0.1294
Sm3_4 Sm 0.83895(3) 0.18054(2) 0.21533(5)
O6_7 O 0.87888(11) 0.18619(11) 0.7156(6)
O7_7 O 0.86028(10) 0.18418(11) 0.9535(5)
O8_7 O 0.89456(11) 0.25655(12) 0.9704(6)
C9_7 C 0.96535(14) 0.20574(18) 0.9251(9)
H4_7 H 0.9764 0.1955 0.8955
C10_7 C 0.93503(15) 0.19440(18) 0.8707(9)
H5_7 H 0.9267 0.1779 0.7979
C11_7 C 0.91686(14) 0.20685(15) 0.9218(8)
C14_7 C 0.88327(14) 0.19196(14) 0.8610(7)
K4_7 K 0.83913(8) 0.25843(6) 0.9041(2)
Sm4_4 Sm 0.81946(2) 0.16105(3) 0.71533(5)
S2_8 S 0.74820(3) 0.65851(4) 0.10155(17)
O1_5 O 0.69460(11) 0.82742(15) 0.1436(5)
O2_5 O 0.71012(10) 0.82428(13) 0.3818(5)
O5_5 O 0.76267(13) 0.87170(18) 0.0540(7)
O9_8 O 0.77117(10) 0.65946(14) 0.2162(6)
O10_8 O 0.71942(10) 0.65363(14) 0.1774(6)
C1_8 C 0.72704(15) 0.80335(20) 0.1760(6)
C2_8 C 0.74707(15) 0.81288(20) 0.0466(7)
C4_8 C 0.75480(19) 0.76772(25) 0.0804(8)
C5_8 C 0.73675(18) 0.76006(23) 0.2127(8)
H2_8 H 0.7338 0.7429 0.2729
C6_8 C 0.72275(19) 0.77738(25) 0.2597(8)
H3_8 H 0.7102 0.7713 0.3497
C7_8 C 0.71007(13) 0.81960(18) 0.2384(7)
C8_8 C 0.76826(19) 0.74814(24) 0.0220(8)
C12_8 C 0.76756(15) 0.69780(20) 0.0224(7)
C13_8 C 0.75440(15) 0.71661(21) 0.0679(8)
H6_8 H 0.7362 0.7077 0.1294
Sm3_5 Sm 0.81946(2) 0.65842(4) 0.21533(5)
O14_8 O 0.72891(10) 0.84019(13) 0.8402(5)
O15_8 O 0.78358(11) 0.85424(16) 0.8396(6)
O16_5 O 0.76267(13) 0.89096(22) 0.5540(7)
H7_8 H 0.614641 0.796904 0.0423151
S1_8 S 0.75668(3) 0.84797(4) 0.93858(18)
O6_8 O 0.81381(11) 0.69268(16) 0.7156(6)
O7_8 O 0.81582(11) 0.67609(15) 0.9535(5)
O8_8 O 0.74345(12) 0.63800(16) 0.9704(6)
C3_8 C 0.76013(16) 0.79491(21) 0.9966(8)
H1_8 H 0.7726 0.8008 0.9063
C9_8 C 0.79426(18) 0.75960(23) 0.9251(9)
H4_8 H 0.8045 0.7808 0.8955
C10_8 C 0.80560(18) 0.74062(23) 0.8707(9)
H5_8 H 0.8221 0.7487 0.7979
C11_8 C 0.79315(15) 0.71000(21) 0.9218(8)
C14_8 C 0.80804(14) 0.69130(20) 0.8610(7)
O11_8 O 0.62196(14) 0.78867(20) 0.9546(8)
K4_8 K 0.74157(6) 0.58071(10) 0.9041(2)
Sm4_5 Sm 0.83895(3) 0.65842(4) 0.71533(5)
O12_5 O 0.69460(11) 0.86717(19) 0.6436(5)
O13_5 O 0.71012(10) 0.88583(16) 0.8818(5)
H8_8 H 0.607732 0.783911 0.862493
S2_9 S 0.34149(4) 0.08968(3) 0.10155(17)
O9_9 O 0.34054(14) 0.11170(10) 0.2162(6)
O10_9 O 0.34637(14) 0.06578(10) 0.1774(6)
C8_9 C 0.25186(24) 0.02011(15) 0.0220(8)
C12_9 C 0.30220(20) 0.06975(13) 0.0224(7)
C13_9 C 0.28339(21) 0.03778(14) 0.0679(8)
H6_9 H 0.2923 0.0284 0.1294
Sm3_6 Sm 0.34158(4) 0.16105(3) 0.21533(5)
O6_9 O 0.30732(16) 0.12112(11) 0.7156(6)
O7_9 O 0.32391(15) 0.13972(10) 0.9535(5)
O8_9 O 0.36200(16) 0.10544(11) 0.9704(6)
C9_9 C 0.24040(23) 0.03465(14) 0.9251(9)
H4_9 H 0.2192 0.0236 0.8955
C10_9 C 0.25938(23) 0.06497(15) 0.8707(9)
H5_9 H 0.2513 0.0733 0.7979
C11_9 C 0.29000(21) 0.08314(14) 0.9218(8)
C14_9 C 0.30870(20) 0.11673(14) 0.8610(7)
K4_9 K 0.41929(10) 0.16087(8) 0.9041(2)
Sm4_6 Sm 0.34158(4) 0.18054(2) 0.71533(5)
O1_6 O 0.17258(15) 0.86717(10) 0.1436(5)
O2_6 O 0.17572(13) 0.88583(9) 0.3818(5)
O5_6 O 0.12830(18) 0.89096(12) 0.0540(7)
C1_9 C 0.19665(20) 0.92368(13) 0.1760(6)
C2_9 C 0.18712(20) 0.93418(13) 0.0466(7)
C4_9 C 0.23228(25) 0.98707(16) 0.0804(8)
C5_9 C 0.23994(23) 0.97668(15) 0.2127(8)
H2_9 H 0.2571 0.9908 0.2729
C6_9 C 0.22262(25) 0.94536(16) 0.2597(8)
H3_9 H 0.2287 0.9388 0.3497
C7_9 C 0.18040(18) 0.89046(12) 0.2384(7)
O14_9 O 0.15981(13) 0.88871(9) 0.8402(5)
O15_9 O 0.14576(16) 0.92933(11) 0.8396(6)
O16_6 O 0.10904(22) 0.87170(18) 0.5540(7)
H7_9 H 0.203096 0.817737 0.0423151
S1_9 S 0.15203(4) 0.90870(3) 0.93858(18)
C3_9 C 0.20509(21) 0.96521(13) 0.9966(8)
H1_9 H 0.1992 0.9717 0.9063
O11_9 O 0.21133(20) 0.83328(14) 0.9546(8)
O12_6 O 0.13283(19) 0.82742(15) 0.6436(5)
O13_6 O 0.11417(16) 0.82428(13) 0.8818(5)
H8_9 H 0.216089 0.82382 0.862493
S2_10 S 0.74820(3) 0.08968(3) 0.60155(17)
O6_10 O 0.81381(11) 0.12112(11) 0.2156(6)
O7_10 O 0.81582(11) 0.13972(10) 0.4535(5)
O8_10 O 0.74345(12) 0.10544(11) 0.4704(6)
O9_10 O 0.77117(10) 0.11170(10) 0.7162(6)
O10_10 O 0.71942(10) 0.06578(10) 0.6774(6)
C8_10 C 0.76826(19) 0.02011(15) 0.5220(8)
C9_10 C 0.79426(18) 0.03465(14) 0.4251(9)
H4_10 H 0.8045 0.0236 0.3955
C10_10 C 0.80560(18) 0.06497(15) 0.3707(9)
H5_10 H 0.8221 0.0733 0.2979
C11_10 C 0.79315(15) 0.08314(14) 0.4218(8)
C12_10 C 0.76756(15) 0.06975(13) 0.5224(7)
C13_10 C 0.75440(15) 0.03778(14) 0.5679(8)
H6_10 H 0.7362 0.0284 0.6294
C14_10 C 0.80804(14) 0.11673(14) 0.3610(7)
K4_10 K 0.74157(6) 0.16087(8) 0.4041(2)
O14_10 O 0.72891(10) 0.88871(9) 0.3402(5)
O15_10 O 0.78358(11) 0.92933(11) 0.3396(6)
S1_10 S 0.75668(3) 0.90870(3) 0.43858(18)
C1_10 C 0.72704(15) 0.92368(13) 0.6760(6)
C2_10 C 0.74707(15) 0.93418(13) 0.5466(7)
C3_10 C 0.76013(16) 0.96521(13) 0.4966(8)
H1_10 H 0.7726 0.9717 0.4063
C4_10 C 0.75480(19) 0.98707(16) 0.5804(8)
C5_10 C 0.73675(18) 0.97668(15) 0.7127(8)
H2_10 H 0.7338 0.9908 0.7729
C6_10 C 0.72275(19) 0.94536(16) 0.7597(8)
H3_10 H 0.7102 0.9388 0.8497
C7_10 C 0.71007(13) 0.89046(12) 0.7384(7)
O11_10 O 0.62196(14) 0.83328(14) 0.4546(8)
H7_10 H 0.614641 0.817737 0.542315
H8_10 H 0.607732 0.82382 0.362493
O14_11 O 0.15981(13) 0.27109(10) 0.3402(5)
O15_11 O 0.14576(16) 0.21642(11) 0.3396(6)
S1_11 S 0.15203(4) 0.24332(3) 0.43858(18)
S2_11 S 0.34149(4) 0.25180(3) 0.60155(17)
O6_11 O 0.30732(16) 0.18619(11) 0.2156(6)
O7_11 O 0.32391(15) 0.18418(11) 0.4535(5)
O8_11 O 0.36200(16) 0.25655(12) 0.4704(6)
O9_11 O 0.34054(14) 0.22883(10) 0.7162(6)
O10_11 O 0.34637(14) 0.28058(10) 0.6774(6)
C1_11 C 0.19665(20) 0.27296(15) 0.6760(6)
C2_11 C 0.18712(20) 0.25293(15) 0.5466(7)
C3_11 C 0.20509(21) 0.23987(16) 0.4966(8)
H1_11 H 0.1992 0.2274 0.4063
C4_11 C 0.23228(25) 0.24520(19) 0.5804(8)
C5_11 C 0.23994(23) 0.26325(18) 0.7127(8)
H2_11 H 0.2571 0.2662 0.7729
C6_11 C 0.22262(25) 0.27725(19) 0.7597(8)
H3_11 H 0.2287 0.2898 0.8497
C7_11 C 0.18040(18) 0.28993(13) 0.7384(7)
C8_11 C 0.25186(24) 0.23174(19) 0.5220(8)
C9_11 C 0.24040(23) 0.20574(18) 0.4251(9)
H4_11 H 0.2192 0.1955 0.3955
C10_11 C 0.25938(23) 0.19440(18) 0.3707(9)
H5_11 H 0.2513 0.1779 0.2979
C11_11 C 0.29000(21) 0.20685(15) 0.4218(8)
C12_11 C 0.30220(20) 0.23244(15) 0.5224(7)
C13_11 C 0.28339(21) 0.24560(15) 0.5679(8)
H6_11 H 0.2923 0.2638 0.6294
C14_11 C 0.30870(20) 0.19196(14) 0.3610(7)
O11_11 O 0.21133(20) 0.37804(14) 0.4546(8)
K4_11 K 0.41929(10) 0.25843(6) 0.4041(2)
H7_11 H 0.203096 0.385359 0.542315
H8_11 H 0.216089 0.392268 0.362493
O14_12 O 0.11129(9) 0.84019(13) 0.3402(5)
O15_12 O 0.07067(11) 0.85424(16) 0.3396(6)
S1_12 S 0.09130(3) 0.84797(4) 0.43858(18)
C1_12 C 0.07632(13) 0.80335(20) 0.6760(6)
C2_12 C 0.06582(13) 0.81288(20) 0.5466(7)
C3_12 C 0.03479(13) 0.79491(21) 0.4966(8)
H1_12 H 0.0283 0.8008 0.4063
C4_12 C 0.01293(16) 0.76772(25) 0.5804(8)
C5_12 C 0.02332(15) 0.76006(23) 0.7127(8)
H2_12 H 0.0092 0.7429 0.7729
C6_12 C 0.05464(16) 0.77738(25) 0.7597(8)
H3_12 H 0.0612 0.7713 0.8497
C7_12 C 0.10954(12) 0.81960(18) 0.7384(7)
O11_12 O 0.16672(14) 0.78867(20) 0.4546(8)
H7_12 H 0.182263 0.796904 0.542315
H8_12 H 0.17618 0.783911 0.362493
S2_12 S 0.91032(3) 0.65851(4) 0.60155(17)
O6_12 O 0.87888(11) 0.69268(16) 0.2156(6)
O7_12 O 0.86028(10) 0.67609(15) 0.4535(5)
O8_12 O 0.89456(11) 0.63800(16) 0.4704(6)
O9_12 O 0.88830(10) 0.65946(14) 0.7162(6)
O10_12 O 0.93422(10) 0.65363(14) 0.6774(6)
C8_12 C 0.97989(15) 0.74814(24) 0.5220(8)
C9_12 C 0.96535(14) 0.75960(23) 0.4251(9)
H4_12 H 0.9764 0.7808 0.3955
C10_12 C 0.93503(15) 0.74062(23) 0.3707(9)
H5_12 H 0.9267 0.7487 0.2979
C11_12 C 0.91686(14) 0.71000(21) 0.4218(8)
C12_12 C 0.93025(13) 0.69780(20) 0.5224(7)
C13_12 C 0.96222(14) 0.71661(21) 0.5679(8)
H6_12 H 0.9716 0.7077 0.6294
C14_12 C 0.88327(14) 0.69130(20) 0.3610(7)
K4_12 K 0.83913(8) 0.58071(10) 0.4041(2)
O14_13 O 0.77795(9) 0.60443(10) 0.1736(5)
O15_13 O 0.73733(11) 0.54976(11) 0.1730(6)
S1_13 S 0.75796(3) 0.57666(3) 0.27192(18)
S2_13 S 0.57698(3) 0.58514(3) 0.43489(17)
O1_7 O 0.79949(10) 0.63874(11) 0.4770(5)
O2_7 O 0.78083(9) 0.62322(10) 0.7152(5)
O5_7 O 0.77570(12) 0.57067(13) 0.3874(7)
O10_13 O 0.60088(10) 0.61392(10) 0.5108(6)
C1_13 C 0.74298(13) 0.60630(15) 0.5094(6)
C2_13 C 0.73248(13) 0.58627(15) 0.3800(7)
C3_13 C 0.70145(13) 0.57321(16) 0.3300(8)
H1_13 H 0.6949 0.5608 0.2397
C4_13 C 0.67959(16) 0.57854(19) 0.4138(8)
C5_13 C 0.68998(15) 0.59659(18) 0.5461(8)
H2_13 H 0.6758 0.5996 0.6063
C6_13 C 0.72130(16) 0.61059(19) 0.5931(8)
H3_13 H 0.7278 0.6232 0.6831
C7_13 C 0.77620(12) 0.62327(13) 0.5718(7)
C8_13 C 0.64655(15) 0.56508(19) 0.3554(8)
C9_13 C 0.63201(14) 0.53908(18) 0.2585(9)
H4_13 H 0.6430 0.5289 0.2289
C10_13 C 0.60169(15) 0.52774(18) 0.2041(9)
H5_13 H 0.5933 0.5113 0.1313
C11_13 C 0.58352(14) 0.54019(15) 0.2552(8)
C12_13 C 0.59691(13) 0.56578(15) 0.3558(7)
C13_13 C 0.62888(14) 0.57894(15) 0.4013(8)
H6_13 H 0.6382 0.5972 0.4628
C14_13 C 0.54993(14) 0.52530(14) 0.1944(7)
O11_13 O 0.83338(14) 0.71138(14) 0.2880(8)
O13_7 O 0.84238(13) 0.62322(10) 0.2152(5)
O16_7 O 0.79496(18) 0.57067(13) 0.8874(7)
H7_13 H 0.84893 0.718692 0.375648
H8_13 H 0.842846 0.725602 0.195827
O12_7 O 0.83924(15) 0.63874(11) 0.9770(5)
O14_14 O 0.39557(10) 0.17353(13) 0.1736(5)
O15_14 O 0.45024(11) 0.18758(16) 0.1730(6)
S1_14 S 0.42334(3) 0.18131(4) 0.27192(18)
O1_8 O 0.36126(11) 0.16076(15) 0.4770(5)
O2_8 O 0.37678(10) 0.15762(13) 0.7152(5)
O5_8 O 0.42933(13) 0.20504(18) 0.3874(7)
C1_14 C 0.39370(15) 0.13669(20) 0.5094(6)
C2_14 C 0.41373(15) 0.14622(20) 0.3800(7)
C3_14 C 0.42679(16) 0.12825(21) 0.3300(8)
H1_14 H 0.4392 0.1342 0.2397
C4_14 C 0.42146(19) 0.10106(25) 0.4138(8)
C5_14 C 0.40341(18) 0.09340(23) 0.5461(8)
H2_14 H 0.4004 0.0763 0.6063
C6_14 C 0.38941(19) 0.11072(25) 0.5931(8)
H3_14 H 0.3768 0.1047 0.6831
C7_14 C 0.37673(13) 0.15294(18) 0.5718(7)
C8_14 C 0.43492(19) 0.08148(24) 0.3554(8)
C9_14 C 0.46092(18) 0.09294(23) 0.2585(9)
H4_14 H 0.4711 0.1142 0.2289
C10_14 C 0.47226(18) 0.07396(23) 0.2041(9)
H5_14 H 0.4887 0.0821 0.1313
C11_14 C 0.45981(15) 0.04334(21) 0.2552(8)
C12_14 C 0.43422(15) 0.03114(20) 0.3558(7)
C13_14 C 0.42106(15) 0.04995(21) 0.4013(8)
H6_14 H 0.4028 0.0411 0.4628
C14_14 C 0.47470(14) 0.02464(20) 0.1944(7)
O11_14 O 0.28862(14) 0.12201(20) 0.2880(8)
O13_8 O 0.37678(10) 0.21917(16) 0.2152(5)
O16_8 O 0.42933(13) 0.22430(22) 0.8874(7)
H7_14 H 0.281308 0.130237 0.375648
H8_14 H 0.274398 0.117245 0.195827
O12_8 O 0.36126(11) 0.20051(19) 0.9770(5)
S2_14 S 0.41486(3) 0.99185(4) 0.43489(17)
O10_14 O 0.38608(10) 0.98697(14) 0.5108(6)
S2_15 S 0.00815(4) 0.42302(3) 0.43489(17)
O10_15 O 0.01303(14) 0.39912(10) 0.5108(6)
O14_15 O 0.82647(13) 0.22205(9) 0.1736(5)
O15_15 O 0.81242(16) 0.26267(11) 0.1730(6)
S1_15 S 0.81869(4) 0.24204(3) 0.27192(18)
O1_9 O 0.83924(15) 0.20051(10) 0.4770(5)
O2_9 O 0.84238(13) 0.21917(9) 0.7152(5)
O5_9 O 0.79496(18) 0.22430(12) 0.3874(7)
C1_15 C 0.86331(20) 0.25702(13) 0.5094(6)
C2_15 C 0.85378(20) 0.26752(13) 0.3800(7)
C3_15 C 0.87175(21) 0.29855(13) 0.3300(8)
H1_15 H 0.8658 0.3051 0.2397
C4_15 C 0.89894(25) 0.32041(16) 0.4138(8)
C5_15 C 0.90660(23) 0.31002(15) 0.5461(8)
H2_15 H 0.9237 0.3242 0.6063
C6_15 C 0.88928(25) 0.27870(16) 0.5931(8)
H3_15 H 0.8953 0.2722 0.6831
C7_15 C 0.84706(18) 0.22380(12) 0.5718(7)
C8_15 C 0.91852(24) 0.35345(15) 0.3554(8)
C9_15 C 0.90706(23) 0.36799(14) 0.2585(9)
H4_15 H 0.8858 0.3570 0.2289
C10_15 C 0.92604(23) 0.39831(15) 0.2041(9)
H5_15 H 0.9179 0.4067 0.1313
C11_15 C 0.95666(21) 0.41648(14) 0.2552(8)
C12_15 C 0.96886(20) 0.40309(13) 0.3558(7)
C13_15 C 0.95005(21) 0.37112(14) 0.4013(8)
H6_15 H 0.9589 0.3618 0.4628
C14_15 C 0.97536(20) 0.45007(14) 0.1944(7)
O11_15 O 0.87799(20) 0.16662(14) 0.2880(8)
O13_9 O 0.78083(16) 0.15762(13) 0.2152(5)
O16_9 O 0.77570(22) 0.20504(18) 0.8874(7)
H7_15 H 0.869763 0.15107 0.375648
H8_15 H 0.882755 0.157154 0.195827
O12_9 O 0.79949(19) 0.16076(15) 0.9770(5)
O10_16 O 0.38608(10) 0.39912(10) 0.0108(6)
C1_16 C 0.39370(15) 0.25702(13) 0.0094(6)
C5_16 C 0.40341(18) 0.31002(15) 0.0461(8)
H2_16 H 0.4004 0.3242 0.1063
C6_16 C 0.38941(19) 0.27870(16) 0.0931(8)
H3_16 H 0.3768 0.2722 0.1831
C7_16 C 0.37673(13) 0.22380(12) 0.0718(7)
O14_16 O 0.39557(10) 0.22205(9) 0.6736(5)
O15_16 O 0.45024(11) 0.26267(11) 0.6730(6)
S1_16 S 0.42334(3) 0.24204(3) 0.77192(18)
S2_16 S 0.41486(3) 0.42302(3) 0.93489(17)
C2_16 C 0.41373(15) 0.26752(13) 0.8800(7)
C3_16 C 0.42679(16) 0.29855(13) 0.8300(8)
H1_16 H 0.4392 0.3051 0.7397
C4_16 C 0.42146(19) 0.32041(16) 0.9138(8)
C8_16 C 0.43492(19) 0.35345(15) 0.8554(8)
C9_16 C 0.46092(18) 0.36799(14) 0.7585(9)
H4_16 H 0.4711 0.3570 0.7289
C10_16 C 0.47226(18) 0.39831(15) 0.7041(9)
H5_16 H 0.4887 0.4067 0.6313
C11_16 C 0.45981(15) 0.41648(14) 0.7552(8)
C12_16 C 0.43422(15) 0.40309(13) 0.8558(7)
C13_16 C 0.42106(15) 0.37112(14) 0.9013(8)
H6_16 H 0.4028 0.3618 0.9628
C14_16 C 0.47470(14) 0.45007(14) 0.6944(7)
O11_16 O 0.28862(14) 0.16662(14) 0.7880(8)
H7_16 H 0.281308 0.15107 0.875648
H8_16 H 0.274398 0.157154 0.695827
O10_17 O 0.01303(14) 0.61392(10) 0.0108(6)
S2_17 S 0.00815(4) 0.58514(3) 0.93489(17)
C1_17 C 0.86331(20) 0.60630(15) 0.0094(6)
C5_17 C 0.90660(23) 0.59659(18) 0.0461(8)
H2_17 H 0.9237 0.5996 0.1063
C6_17 C 0.88928(25) 0.61059(19) 0.0931(8)
H3_17 H 0.8953 0.6232 0.1831
C7_17 C 0.84706(18) 0.62327(13) 0.0718(7)
O14_17 O 0.82647(13) 0.60443(10) 0.6736(5)
O15_17 O 0.81242(16) 0.54976(11) 0.6730(6)
S1_17 S 0.81869(4) 0.57666(3) 0.77192(18)
C2_17 C 0.85378(20) 0.58627(15) 0.8800(7)
C3_17 C 0.87175(21) 0.57321(16) 0.8300(8)
H1_17 H 0.8658 0.5608 0.7397
C4_17 C 0.89894(25) 0.57854(19) 0.9138(8)
C8_17 C 0.91852(24) 0.56508(19) 0.8554(8)
C9_17 C 0.90706(23) 0.53908(18) 0.7585(9)
H4_17 H 0.8858 0.5289 0.7289
C10_17 C 0.92604(23) 0.52774(18) 0.7041(9)
H5_17 H 0.9179 0.5113 0.6313
C11_17 C 0.95666(21) 0.54019(15) 0.7552(8)
C12_17 C 0.96886(20) 0.56578(15) 0.8558(7)
C13_17 C 0.95005(21) 0.57894(15) 0.9013(8)
H6_17 H 0.9589 0.5972 0.9628
C14_17 C 0.97536(20) 0.52530(14) 0.6944(7)
O11_17 O 0.87799(20) 0.71138(14) 0.7880(8)
H7_17 H 0.869763 0.718692 0.875648
H8_17 H 0.882755 0.725602 0.695827
C1_18 C 0.74298(13) 0.13669(20) 0.0094(6)
C5_18 C 0.68998(15) 0.09340(23) 0.0461(8)
H2_18 H 0.6758 0.0763 0.1063
C6_18 C 0.72130(16) 0.11072(25) 0.0931(8)
H3_18 H 0.7278 0.1047 0.1831
C7_18 C 0.77620(12) 0.15294(18) 0.0718(7)
O14_18 O 0.77795(9) 0.17353(13) 0.6736(5)
O15_18 O 0.73733(11) 0.18758(16) 0.6730(6)
S1_18 S 0.75796(3) 0.18131(4) 0.77192(18)
C2_18 C 0.73248(13) 0.14622(20) 0.8800(7)
C3_18 C 0.70145(13) 0.12825(21) 0.8300(8)
H1_18 H 0.6949 0.1342 0.7397
C4_18 C 0.67959(16) 0.10106(25) 0.9138(8)
C8_18 C 0.64655(15) 0.08148(24) 0.8554(8)
C9_18 C 0.63201(14) 0.09294(23) 0.7585(9)
H4_18 H 0.6430 0.1142 0.7289
C10_18 C 0.60169(15) 0.07396(23) 0.7041(9)
H5_18 H 0.5933 0.0821 0.6313
C11_18 C 0.58352(14) 0.04334(21) 0.7552(8)
C12_18 C 0.59691(13) 0.03114(20) 0.8558(7)
C13_18 C 0.62888(14) 0.04995(21) 0.9013(8)
H6_18 H 0.6382 0.0411 0.9628
C14_18 C 0.54993(14) 0.02464(20) 0.6944(7)
O11_18 O 0.83338(14) 0.12201(20) 0.7880(8)
H7_18 H 0.84893 0.130237 0.875648
H8_18 H 0.842846 0.117245 0.695827
O10_18 O 0.60088(10) 0.98697(14) 0.0108(6)
S2_18 S 0.57698(3) 0.99185(4) 0.93489(17)
loop_
_geom_bond_atom_site_label_1
_geom_bond_atom_site_label_2
_geom_bond_site_symmetry_1
_geom_bond_site_symmetry_2
O11 H7 1_555 1_555
O11 H8 1_555 1_555
K1 O2 1_555 1_555
O14 K1 1_555 1_555
O15 K1 1_555 1_555
O16 K1 1_555 1_555
O20 K1 1_555 1_555
O2 Sm2 1_555 1_555
Sm1 O1 1_555 1_555
S1 O14 1_555 1_555
S2 O8 1_555 1_555
O1 C7 1_555 1_555
O14 Sm1 1_555 1_555
O15 S1 1_555 1_555
O5 S1 1_555 1_555
O6 C14 1_555 1_555
O7 C14 1_555 1_555
O8 K4 1_555 1_555
O9 S2 1_555 1_555
O10 S2 1_555 1_555
C1 C2 1_555 1_555
C2 S1 1_555 1_555
C3 C2 1_555 1_555
H1 C3 1_555 1_555
C4 C3 1_555 1_555
C5 C4 1_555 1_555
H2 C5 1_555 1_555
C7 C1 1_555 1_555
C8 C4 1_555 1_555
C9 C8 1_555 1_555
H4 C9 1_555 1_555
C10 C9 1_555 1_555
H5 C10 1_555 1_555
C11 C10 1_555 1_555
C12 S2 1_555 1_555
C13 C8 1_555 1_555
H6 C13 1_555 1_555
C14 C11 1_555 1_555
K3 O5 1_555 1_555
Sm3 O7 1_555 1_555
Sm4 O6 1_555 1_555
O12 Sm1 1_555 1_555
O13 Sm1 1_555 1_555
O21 Sm1 1_555 1_555
O7 Sm4 1_555 1_555
O9 Sm3 1_555 1_555
C1 C6 1_555 1_555
C5 C6 1_555 1_555
C11 C12 1_555 1_555
C12 C13 1_555 1_555
K3 O13 1_555 1_555
K1_2 O2_2 1_555 1_555
O14_2 K1_2 1_555 1_555
O15_2 K1_2 1_555 1_555
O16_2 K1_2 1_555 1_555
O20_2 K1_2 1_555 1_555
O2_2 Sm2_2 1_555 1_555
Sm1_2 O1_2 1_555 1_555
S1_2 O14_2 1_555 1_555
S2_2 O8_2 1_555 1_555
O1_2 C7_2 1_555 1_555
O14_2 Sm1_2 1_555 1_555
O15_2 S1_2 1_555 1_555
O5_2 S1_2 1_555 1_555
O6_2 C14_2 1_555 1_555
O7_2 C14_2 1_555 1_555
O8_2 K4_2 1_555 1_555
O9_2 S2_2 1_555 1_555
O10_2 S2_2 1_555 1_555
C1_2 C2_2 1_555 1_555
C2_2 S1_2 1_555 1_555
C3_2 C2_2 1_555 1_555
H1_2 C3_2 1_555 1_555
C4_2 C3_2 1_555 1_555
C5_2 C4_2 1_555 1_555
H2_2 C5_2 1_555 1_555
C7_2 C1_2 1_555 1_555
C8_2 C4_2 1_555 1_555
C9_2 C8_2 1_555 1_555
H4_2 C9_2 1_555 1_555
C10_2 C9_2 1_555 1_555
H5_2 C10_2 1_555 1_555
C11_2 C10_2 1_555 1_555
C12_2 S2_2 1_555 1_555
C13_2 C8_2 1_555 1_555
H6_2 C13_2 1_555 1_555
C14_2 C11_2 1_555 1_555
K3_2 O5_2 1_555 1_555
Sm3_2 O7_2 1_555 1_555
Sm4_2 O6_2 1_555 1_555
O12_2 Sm1_2 1_555 1_555
O13_2 Sm1_2 1_555 1_555
O21_2 Sm1_2 1_555 1_555
O7_2 Sm4_2 1_555 1_555
O9_2 Sm3_2 1_555 1_555
C1_2 C6_2 1_555 1_555
C5_2 C6_2 1_555 1_555
C11_2 C12_2 1_555 1_555
C12_2 C13_2 1_555 1_555
K3_2 O13_2 1_555 1_555
O11_2 H7_2 1_555 1_555
O11_2 H8_2 1_555 1_555
K1_3 O2_3 1_555 1_555
O14_3 K1_3 1_555 1_555
O15_3 K1_3 1_555 1_555
O16_3 K1_3 1_555 1_555
O20_3 K1_3 1_555 1_555
O2_3 Sm2_3 1_555 1_555
Sm1_3 O1_3 1_555 1_555
S1_3 O14_3 1_555 1_555
S2_3 O8_3 1_555 1_555
O1_3 C7_3 1_555 1_555
O14_3 Sm1_3 1_555 1_555
O15_3 S1_3 1_555 1_555
O5_3 S1_3 1_555 1_555
O6_3 C14_3 1_555 1_555
O7_3 C14_3 1_555 1_555
O8_3 K4_3 1_555 1_555
O9_3 S2_3 1_555 1_555
O10_3 S2_3 1_555 1_555
C1_3 C2_3 1_555 1_555
C2_3 S1_3 1_555 1_555
C3_3 C2_3 1_555 1_555
H1_3 C3_3 1_555 1_555
C4_3 C3_3 1_555 1_555
C5_3 C4_3 1_555 1_555
H2_3 C5_3 1_555 1_555
C7_3 C1_3 1_555 1_555
C8_3 C4_3 1_555 1_555
C9_3 C8_3 1_555 1_555
H4_3 C9_3 1_555 1_555
C10_3 C9_3 1_555 1_555
H5_3 C10_3 1_555 1_555
C11_3 C10_3 1_555 1_555
C12_3 S2_3 1_555 1_555
C13_3 C8_3 1_555 1_555
H6_3 C13_3 1_555 1_555
C14_3 C11_3 1_555 1_555
O11_3 Sm1_3 1_555 1_555
K3_3 O5_3 1_555 1_555
Sm3_3 O7_3 1_555 1_555
Sm4_3 O6_3 1_555 1_555
O12_3 Sm1_3 1_555 1_555
O13_3 Sm1_3 1_555 1_555
O17_3 Sm1_3 1_555 1_555
O18_3 Sm1_3 1_555 1_555
O19_3 Sm1_3 1_555 1_555
O21_3 Sm1_3 1_555 1_555
O7_3 Sm4_3 1_555 1_555
O9_3 Sm3_3 1_555 1_555
C1_3 C6_3 1_555 1_555
C5_3 C6_3 1_555 1_555
C11_3 C12_3 1_555 1_555
C12_3 C13_3 1_555 1_555
K3_3 O13_3 1_555 1_555
O11_3 H7_3 1_555 1_555
O11_3 H8_3 1_555 1_555
Sm2_2 O12_2 1_555 1_555
S1_4 O14_4 1_555 1_555
S2_4 O8_4 1_555 1_555
O12_2 C7_4 1_555 1_555
O13_2 C7_4 1_555 1_555
O14_4 Sm2_2 1_555 1_555
O15_4 S1_4 1_555 1_555
O16_2 S1_4 1_555 1_555
O7_4 C14_4 1_555 1_555
O8_4 K4_4 1_555 1_555
O9_4 S2_4 1_555 1_555
O10_4 S2_4 1_555 1_555
C1_4 C2_4 1_555 1_555
C2_4 S1_4 1_555 1_555
C3_4 C2_4 1_555 1_555
H1_4 C3_4 1_555 1_555
C4_4 C3_4 1_555 1_555
C5_4 C4_4 1_555 1_555
H2_4 C5_4 1_555 1_555
C6_4 K3_2 1_555 1_555
H3_4 C6_4 1_555 1_555
C7_4 C1_4 1_555 1_555
C8_4 C4_4 1_555 1_555
C9_4 C8_4 1_555 1_555
H4_4 C9_4 1_555 1_555
C10_4 C9_4 1_555 1_555
C11_4 C10_4 1_555 1_555
C12_4 S2_4 1_555 1_555
C13_4 C8_4 1_555 1_555
H6_4 C13_4 1_555 1_555
C14_4 C11_4 1_555 1_555
Sm4 O7_4 1_555 1_555
O20_4 K3_2 1_555 1_555
O21_4 Sm2_2 1_555 1_555
O9_4 Sm4 1_555 1_555
C1_4 C6_4 1_555 1_555
C5_4 C6_4 1_555 1_555
C11_4 C12_4 1_555 1_555
C12_4 C13_4 1_555 1_555
Sm3 O6_4 1_555 1_555
O11_4 H7_4 1_555 1_555
O11_4 H8_4 1_555 1_555
O11_5 H7_5 1_555 1_555
O11_5 H8_5 1_555 1_555
Sm2 O12 1_555 1_555
S1_5 O14_5 1_555 1_555
S2_5 O8_5 1_555 1_555
O12 C7_5 1_555 1_555
O13 C7_5 1_555 1_555
O14_5 Sm2 1_555 1_555
O15_5 S1_5 1_555 1_555
O16 S1_5 1_555 1_555
O7_5 C14_5 1_555 1_555
O8_5 K4_5 1_555 1_555
O9_5 S2_5 1_555 1_555
O10_5 S2_5 1_555 1_555
C1_5 C2_5 1_555 1_555
C2_5 S1_5 1_555 1_555
C3_5 C2_5 1_555 1_555
H1_5 C3_5 1_555 1_555
C4_5 C3_5 1_555 1_555
C5_5 C4_5 1_555 1_555
H2_5 C5_5 1_555 1_555
C6_5 K3 1_555 1_555
H3_5 C6_5 1_555 1_555
C7_5 C1_5 1_555 1_555
C8_5 C4_5 1_555 1_555
C9_5 C8_5 1_555 1_555
H4_5 C9_5 1_555 1_555
C10_5 C9_5 1_555 1_555
C11_5 C10_5 1_555 1_555
C12_5 S2_5 1_555 1_555
C13_5 C8_5 1_555 1_555
H6_5 C13_5 1_555 1_555
C14_5 C11_5 1_555 1_555
Sm4_3 O7_5 1_555 1_555
O20_5 K3 1_555 1_555
O21_5 Sm2 1_555 1_555
O9_5 Sm4_3 1_555 1_555
C1_5 C6_5 1_555 1_555
C5_5 C6_5 1_555 1_555
C11_5 C12_5 1_555 1_555
C12_5 C13_5 1_555 1_555
Sm3_3 O6_5 1_555 1_555
Sm2_3 O12_3 1_555 1_555
S1_6 O14_6 1_555 1_555
S2_6 O8_6 1_555 1_555
O12_3 C7_6 1_555 1_555
O13_3 C7_6 1_555 1_555
O14_6 Sm2_3 1_555 1_555
O15_6 S1_6 1_555 1_555
O16_3 S1_6 1_555 1_555
O7_6 C14_6 1_555 1_555
O8_6 K4_6 1_555 1_555
O9_6 S2_6 1_555 1_555
O10_6 S2_6 1_555 1_555
C1_6 C2_6 1_555 1_555
C2_6 S1_6 1_555 1_555
C3_6 C2_6 1_555 1_555
H1_6 C3_6 1_555 1_555
C4_6 C3_6 1_555 1_555
C5_6 C4_6 1_555 1_555
H2_6 C5_6 1_555 1_555
C6_6 K3_3 1_555 1_555
H3_6 C6_6 1_555 1_555
C7_6 C1_6 1_555 1_555
C8_6 C4_6 1_555 1_555
C9_6 C8_6 1_555 1_555
H4_6 C9_6 1_555 1_555
C10_6 C9_6 1_555 1_555
C11_6 C10_6 1_555 1_555
C12_6 S2_6 1_555 1_555
C13_6 C8_6 1_555 1_555
H6_6 C13_6 1_555 1_555
C14_6 C11_6 1_555 1_555
O11_6 Sm2_3 1_555 1_555
Sm4_2 O7_6 1_555 1_555
O17_6 Sm2_3 1_555 1_555
O18_3 Sm2_3 1_555 1_555
O20_6 K3_3 1_555 1_555
O21_6 Sm2_3 1_555 1_555
O9_6 Sm4_2 1_555 1_555
C1_6 C6_6 1_555 1_555
C5_6 C6_6 1_555 1_555
C11_6 C12_6 1_555 1_555
C12_6 C13_6 1_555 1_555
O11_6 H7_6 1_555 1_555
O11_6 H8_6 1_555 1_555
Sm3_2 O6_6 1_555 1_555
K4_2 O2_4 1_555 1_555
O1_4 C7_7 1_555 1_555
O2_4 C7_7 1_555 1_555
C1_7 C2_7 1_555 1_555
C5_7 C4_7 1_555 1_555
H2_7 C5_7 1_555 1_555
C6_7 K4_2 1_555 1_555
H3_7 C6_7 1_555 1_555
C7_7 C1_7 1_555 1_555
K4_6 O5_4 1_555 1_555
Sm4_2 O1_4 1_555 1_555
O14_7 K4_2 1_555 1_555
O15_7 K4_2 1_555 1_555
O16_4 K4_2 1_555 1_555
O2_4 Sm4_2 1_555 1_555
C1_7 C6_7 1_555 1_555
C5_7 C6_7 1_555 1_555
S1_7 O14_7 1_555 1_555
O14_7 Sm3_2 1_555 1_555
O15_7 S1_7 1_555 1_555
H1_7 C3_7 1_555 1_555
O11_7 Sm3_2 1_555 1_555
O12_4 Sm3_2 1_555 1_555
O13_4 Sm3_2 1_555 1_555
O11_7 H8_7 1_555 1_555
O9_7 S2_7 1_555 1_555
O10_7 S2_7 1_555 1_555
C12_7 S2_7 1_555 1_555
C13_7 C8_7 1_555 1_555
H6_7 C13_7 1_555 1_555
O9_7 Sm3_4 1_555 1_555
C12_7 C13_7 1_555 1_555
O6_7 C14_7 1_555 1_555
O7_7 C14_7 1_555 1_555
O8_7 K4_7 1_555 1_555
H4_7 C9_7 1_555 1_555
C10_7 C9_7 1_555 1_555
H5_7 C10_7 1_555 1_555
C11_7 C10_7 1_555 1_555
C14_7 C11_7 1_555 1_555
Sm4_4 O6_7 1_555 1_555
O7_7 Sm4_4 1_555 1_555
K4_3 O2_5 1_555 1_555
O1_5 C7_8 1_555 1_555
O2_5 C7_8 1_555 1_555
O9_8 S2_8 1_555 1_555
O10_8 S2_8 1_555 1_555
C1_8 C2_8 1_555 1_555
C5_8 C4_8 1_555 1_555
H2_8 C5_8 1_555 1_555
C6_8 K4_3 1_555 1_555
H3_8 C6_8 1_555 1_555
C7_8 C1_8 1_555 1_555
C8_8 C4_8 1_555 1_555
C12_8 S2_8 1_555 1_555
C13_8 C8_8 1_555 1_555
H6_8 C13_8 1_555 1_555
K4_5 O5_5 1_555 1_555
Sm4_3 O1_5 1_555 1_555
O14_8 K4_3 1_555 1_555
O15_8 K4_3 1_555 1_555
O16_5 K4_3 1_555 1_555
O2_5 Sm4_3 1_555 1_555
O9_8 Sm3_5 1_555 1_555
C1_8 C6_8 1_555 1_555
C5_8 C6_8 1_555 1_555
C12_8 C13_8 1_555 1_555
S1_8 O14_8 1_555 1_555
O14_8 Sm3_3 1_555 1_555
O15_8 S1_8 1_555 1_555
O6_8 C14_8 1_555 1_555
O7_8 C14_8 1_555 1_555
O8_8 K4_8 1_555 1_555
H1_8 C3_8 1_555 1_555
H4_8 C9_8 1_555 1_555
C10_8 C9_8 1_555 1_555
H5_8 C10_8 1_555 1_555
C11_8 C10_8 1_555 1_555
C14_8 C11_8 1_555 1_555
O11_8 Sm3_3 1_555 1_555
Sm4_5 O6_8 1_555 1_555
O12_5 Sm3_3 1_555 1_555
O13_5 Sm3_3 1_555 1_555
O7_8 Sm4_5 1_555 1_555
O11_8 H8_8 1_555 1_555
O9_9 S2_9 1_555 1_555
O10_9 S2_9 1_555 1_555
C12_9 S2_9 1_555 1_555
C13_9 C8_9 1_555 1_555
H6_9 C13_9 1_555 1_555
O9_9 Sm3_6 1_555 1_555
C12_9 C13_9 1_555 1_555
O6_9 C14_9 1_555 1_555
O7_9 C14_9 1_555 1_555
O8_9 K4_9 1_555 1_555
H4_9 C9_9 1_555 1_555
C10_9 C9_9 1_555 1_555
H5_9 C10_9 1_555 1_555
C11_9 C10_9 1_555 1_555
C14_9 C11_9 1_555 1_555
Sm4_6 O6_9 1_555 1_555
O7_9 Sm4_6 1_555 1_555
K4 O2_6 1_555 1_555
O1_6 C7_9 1_555 1_555
O2_6 C7_9 1_555 1_555
C1_9 C2_9 1_555 1_555
C5_9 C4_9 1_555 1_555
H2_9 C5_9 1_555 1_555
C6_9 K4 1_555 1_555
H3_9 C6_9 1_555 1_555
C7_9 C1_9 1_555 1_555
K4_4 O5_6 1_555 1_555
Sm4 O1_6 1_555 1_555
O14_9 K4 1_555 1_555
O15_9 K4 1_555 1_555
O16_6 K4 1_555 1_555
O2_6 Sm4 1_555 1_555
C1_9 C6_9 1_555 1_555
C5_9 C6_9 1_555 1_555
S1_9 O14_9 1_555 1_555
O14_9 Sm3 1_555 1_555
O15_9 S1_9 1_555 1_555
H1_9 C3_9 1_555 1_555
O11_9 Sm3 1_555 1_555
O12_6 Sm3 1_555 1_555
O13_6 Sm3 1_555 1_555
O11_9 H8_9 1_555 1_555
S2_10 O8_10 1_555 1_555
O6_10 C14_10 1_555 1_555
O7_10 C14_10 1_555 1_555
O8_10 K4_10 1_555 1_555
O9_10 S2_10 1_555 1_555
O10_10 S2_10 1_555 1_555
C9_10 C8_10 1_555 1_555
H4_10 C9_10 1_555 1_555
C10_10 C9_10 1_555 1_555
H5_10 C10_10 1_555 1_555
C11_10 C10_10 1_555 1_555
C12_10 S2_10 1_555 1_555
C13_10 C8_10 1_555 1_555
H6_10 C13_10 1_555 1_555
C14_10 C11_10 1_555 1_555
Sm4_4 O7_10 1_555 1_555
Sm3_4 O6_10 1_555 1_555
O7_10 Sm3_4 1_555 1_555
O9_10 Sm4_4 1_555 1_555
C11_10 C12_10 1_555 1_555
C12_10 C13_10 1_555 1_555
O14_10 K4_5 1_555 1_555
O15_10 K4_5 1_555 1_555
Sm4_3 O12_5 1_555 1_555
S1_10 O14_10 1_555 1_555
O12_5 C7_10 1_555 1_555
O13_5 C7_10 1_555 1_555
O14_10 Sm4_3 1_555 1_555
O15_10 S1_10 1_555 1_555
O16_5 S1_10 1_555 1_555
C1_10 C2_10 1_555 1_555
C2_10 S1_10 1_555 1_555
C3_10 C2_10 1_555 1_555
H1_10 C3_10 1_555 1_555
C4_10 C3_10 1_555 1_555
C5_10 C4_10 1_555 1_555
H2_10 C5_10 1_555 1_555
H3_10 C6_10 1_555 1_555
C7_10 C1_10 1_555 1_555
O11_10 Sm4_3 1_555 1_555
C1_10 C6_10 1_555 1_555
C5_10 C6_10 1_555 1_555
O11_10 H7_10 1_555 1_555
O11_10 H8_10 1_555 1_555
O14_11 K4_6 1_555 1_555
O15_11 K4_6 1_555 1_555
Sm4_2 O12_4 1_555 1_555
S1_11 O14_11 1_555 1_555
S2_11 O8_11 1_555 1_555
O12_4 C7_11 1_555 1_555
O13_4 C7_11 1_555 1_555
O14_11 Sm4_2 1_555 1_555
O15_11 S1_11 1_555 1_555
O16_4 S1_11 1_555 1_555
O6_11 C14_11 1_555 1_555
O7_11 C14_11 1_555 1_555
O8_11 K4_11 1_555 1_555
O9_11 S2_11 1_555 1_555
O10_11 S2_11 1_555 1_555
C1_11 C2_11 1_555 1_555
C2_11 S1_11 1_555 1_555
C3_11 C2_11 1_555 1_555
H1_11 C3_11 1_555 1_555
C4_11 C3_11 1_555 1_555
C5_11 C4_11 1_555 1_555
H2_11 C5_11 1_555 1_555
H3_11 C6_11 1_555 1_555
C7_11 C1_11 1_555 1_555
C8_11 C4_11 1_555 1_555
C9_11 C8_11 1_555 1_555
H4_11 C9_11 1_555 1_555
C10_11 C9_11 1_555 1_555
H5_11 C10_11 1_555 1_555
C11_11 C10_11 1_555 1_555
C12_11 S2_11 1_555 1_555
C13_11 C8_11 1_555 1_555
H6_11 C13_11 1_555 1_555
C14_11 C11_11 1_555 1_555
O11_11 Sm4_2 1_555 1_555
Sm4_6 O7_11 1_555 1_555
Sm3_6 O6_11 1_555 1_555
O7_11 Sm3_6 1_555 1_555
O9_11 Sm4_6 1_555 1_555
C1_11 C6_11 1_555 1_555
C5_11 C6_11 1_555 1_555
C11_11 C12_11 1_555 1_555
C12_11 C13_11 1_555 1_555
O11_11 H7_11 1_555 1_555
O11_11 H8_11 1_555 1_555
O14_12 K4_4 1_555 1_555
O15_12 K4_4 1_555 1_555
Sm4 O12_6 1_555 1_555
S1_12 O14_12 1_555 1_555
O12_6 C7_12 1_555 1_555
O13_6 C7_12 1_555 1_555
O14_12 Sm4 1_555 1_555
O15_12 S1_12 1_555 1_555
O16_6 S1_12 1_555 1_555
C1_12 C2_12 1_555 1_555
C2_12 S1_12 1_555 1_555
C3_12 C2_12 1_555 1_555
H1_12 C3_12 1_555 1_555
C4_12 C3_12 1_555 1_555
C5_12 C4_12 1_555 1_555
H2_12 C5_12 1_555 1_555
H3_12 C6_12 1_555 1_555
C7_12 C1_12 1_555 1_555
O11_12 Sm4 1_555 1_555
C1_12 C6_12 1_555 1_555
C5_12 C6_12 1_555 1_555
O11_12 H7_12 1_555 1_555
O11_12 H8_12 1_555 1_555
S2_12 O8_12 1_555 1_555
O6_12 C14_12 1_555 1_555
O7_12 C14_12 1_555 1_555
O8_12 K4_12 1_555 1_555
O9_12 S2_12 1_555 1_555
O10_12 S2_12 1_555 1_555
C9_12 C8_12 1_555 1_555
H4_12 C9_12 1_555 1_555
C10_12 C9_12 1_555 1_555
H5_12 C10_12 1_555 1_555
C11_12 C10_12 1_555 1_555
C12_12 S2_12 1_555 1_555
C13_12 C8_12 1_555 1_555
H6_12 C13_12 1_555 1_555
C14_12 C11_12 1_555 1_555
Sm4_5 O7_12 1_555 1_555
Sm3_5 O6_12 1_555 1_555
O7_12 Sm3_5 1_555 1_555
O9_12 Sm4_5 1_555 1_555
C11_12 C12_12 1_555 1_555
C12_12 C13_12 1_555 1_555
K4_8 O2_7 1_555 1_555
Sm3_5 O1_7 1_555 1_555
S1_13 O14_13 1_555 1_555
S2_13 O20_3 1_555 1_555
O1_7 C7_13 1_555 1_555
O2_7 C7_13 1_555 1_555
O14_13 Sm3_5 1_555 1_555
O15_13 S1_13 1_555 1_555
O5_7 S1_13 1_555 1_555
O17_6 C14_13 1_555 1_555
O18_3 C14_13 1_555 1_555
O21_3 S2_13 1_555 1_555
O10_13 S2_13 1_555 1_555
C1_13 C2_13 1_555 1_555
C2_13 S1_13 1_555 1_555
C3_13 C2_13 1_555 1_555
H1_13 C3_13 1_555 1_555
C4_13 C3_13 1_555 1_555
C5_13 C4_13 1_555 1_555
H2_13 C5_13 1_555 1_555
C6_13 K4_8 1_555 1_555
H3_13 C6_13 1_555 1_555
C7_13 C1_13 1_555 1_555
C8_13 C4_13 1_555 1_555
C9_13 C8_13 1_555 1_555
H4_13 C9_13 1_555 1_555
C10_13 C9_13 1_555 1_555
H5_13 C10_13 1_555 1_555
C11_13 C10_13 1_555 1_555
C12_13 S2_13 1_555 1_555
C13_13 C8_13 1_555 1_555
H6_13 C13_13 1_555 1_555
C14_13 C11_13 1_555 1_555
O11_13 Sm3_5 1_555 1_555
K4_12 O5_7 1_555 1_555
Sm4_5 O1_7 1_555 1_555
O13_7 Sm3_5 1_555 1_555
O16_7 K4_8 1_555 1_555
O2_7 Sm4_5 1_555 1_555
C1_13 C6_13 1_555 1_555
C5_13 C6_13 1_555 1_555
C11_13 C12_13 1_555 1_555
C12_13 C13_13 1_555 1_555
K4_12 O13_7 1_555 1_555
O11_13 H7_13 1_555 1_555
O11_13 H8_13 1_555 1_555
K4_9 O2_8 1_555 1_555
Sm3_6 O1_8 1_555 1_555
S1_14 O14_14 1_555 1_555
O1_8 C7_14 1_555 1_555
O2_8 C7_14 1_555 1_555
O14_14 Sm3_6 1_555 1_555
O15_14 S1_14 1_555 1_555
O5_8 S1_14 1_555 1_555
O17_5 C14_14 1_555 1_555
O18 C14_14 1_555 1_555
C1_14 C2_14 1_555 1_555
C2_14 S1_14 1_555 1_555
C3_14 C2_14 1_555 1_555
H1_14 C3_14 1_555 1_555
C4_14 C3_14 1_555 1_555
C5_14 C4_14 1_555 1_555
H2_14 C5_14 1_555 1_555
C6_14 K4_9 1_555 1_555
H3_14 C6_14 1_555 1_555
C7_14 C1_14 1_555 1_555
C8_14 C4_14 1_555 1_555
C9_14 C8_14 1_555 1_555
H4_14 C9_14 1_555 1_555
C10_14 C9_14 1_555 1_555
H5_14 C10_14 1_555 1_555
C11_14 C10_14 1_555 1_555
C13_14 C8_14 1_555 1_555
H6_14 C13_14 1_555 1_555
C14_14 C11_14 1_555 1_555
O11_14 Sm3_6 1_555 1_555
K4_11 O5_8 1_555 1_555
Sm4_6 O1_8 1_555 1_555
O13_8 Sm3_6 1_555 1_555
O16_8 K4_9 1_555 1_555
O2_8 Sm4_6 1_555 1_555
C1_14 C6_14 1_555 1_555
C5_14 C6_14 1_555 1_555
C11_14 C12_14 1_555 1_555
C12_14 C13_14 1_555 1_555
K4_11 O13_8 1_555 1_555
O11_14 H7_14 1_555 1_555
O11_14 H8_14 1_555 1_555
S2_14 O20 1_555 1_555
O21 S2_14 1_555 1_555
O10_14 S2_14 1_555 1_555
S2_15 O20_2 1_555 1_555
O21_2 S2_15 1_555 1_555
O10_15 S2_15 1_555 1_555
K4_7 O2_9 1_555 1_555
Sm3_4 O1_9 1_555 1_555
S1_15 O14_15 1_555 1_555
O1_9 C7_15 1_555 1_555
O2_9 C7_15 1_555 1_555
O14_15 Sm3_4 1_555 1_555
O15_15 S1_15 1_555 1_555
O5_9 S1_15 1_555 1_555
O17_4 C14_15 1_555 1_555
O18_2 C14_15 1_555 1_555
C1_15 C2_15 1_555 1_555
C2_15 S1_15 1_555 1_555
C3_15 C2_15 1_555 1_555
H1_15 C3_15 1_555 1_555
C4_15 C3_15 1_555 1_555
C5_15 C4_15 1_555 1_555
H2_15 C5_15 1_555 1_555
C6_15 K4_7 1_555 1_555
H3_15 C6_15 1_555 1_555
C7_15 C1_15 1_555 1_555
C8_15 C4_15 1_555 1_555
C9_15 C8_15 1_555 1_555
H4_15 C9_15 1_555 1_555
C10_15 C9_15 1_555 1_555
H5_15 C10_15 1_555 1_555
C11_15 C10_15 1_555 1_555
C13_15 C8_15 1_555 1_555
H6_15 C13_15 1_555 1_555
C14_15 C11_15 1_555 1_555
O11_15 Sm3_4 1_555 1_555
K4_10 O5_9 1_555 1_555
Sm4_4 O1_9 1_555 1_555
O13_9 Sm3_4 1_555 1_555
O16_9 K4_7 1_555 1_555
O2_9 Sm4_4 1_555 1_555
C1_15 C6_15 1_555 1_555
C5_15 C6_15 1_555 1_555
C11_15 C12_15 1_555 1_555
C12_15 C13_15 1_555 1_555
K4_10 O13_9 1_555 1_555
O11_15 H7_15 1_555 1_555
O11_15 H8_15 1_555 1_555
O13_8 C7_16 1_555 1_555
H2_16 C5_16 1_555 1_555
C6_16 K4_11 1_555 1_555
H3_16 C6_16 1_555 1_555
C7_16 C1_16 1_555 1_555
O14_16 K4_11 1_555 1_555
O15_16 K4_11 1_555 1_555
C1_16 C6_16 1_555 1_555
C5_16 C6_16 1_555 1_555
Sm4_6 O12_8 1_555 1_555
S1_16 O14_16 1_555 1_555
S2_16 O20_6 1_555 1_555
O14_16 Sm4_6 1_555 1_555
O15_16 S1_16 1_555 1_555
O16_8 S1_16 1_555 1_555
O17_3 C14_16 1_555 1_555
O19_3 C14_16 1_555 1_555
C2_16 S1_16 1_555 1_555
C3_16 C2_16 1_555 1_555
H1_16 C3_16 1_555 1_555
C4_16 C3_16 1_555 1_555
C8_16 C4_16 1_555 1_555
C9_16 C8_16 1_555 1_555
H4_16 C9_16 1_555 1_555
C10_16 C9_16 1_555 1_555
H5_16 C10_16 1_555 1_555
C11_16 C10_16 1_555 1_555
C12_16 S2_16 1_555 1_555
C13_16 C8_16 1_555 1_555
H6_16 C13_16 1_555 1_555
C14_16 C11_16 1_555 1_555
O11_16 Sm4_6 1_555 1_555
C11_16 C12_16 1_555 1_555
C12_16 C13_16 1_555 1_555
O11_16 H7_16 1_555 1_555
O11_16 H8_16 1_555 1_555
S2_17 O20_4 1_555 1_555
O13_7 C7_17 1_555 1_555
H2_17 C5_17 1_555 1_555
C6_17 K4_12 1_555 1_555
H3_17 C6_17 1_555 1_555
C7_17 C1_17 1_555 1_555
O14_17 K4_12 1_555 1_555
O15_17 K4_12 1_555 1_555
C1_17 C6_17 1_555 1_555
C5_17 C6_17 1_555 1_555
Sm4_5 O12_7 1_555 1_555
S1_17 O14_17 1_555 1_555
O14_17 Sm4_5 1_555 1_555
O15_17 S1_17 1_555 1_555
O16_7 S1_17 1_555 1_555
O17_2 C14_17 1_555 1_555
O19_2 C14_17 1_555 1_555
C2_17 S1_17 1_555 1_555
C3_17 C2_17 1_555 1_555
H1_17 C3_17 1_555 1_555
C4_17 C3_17 1_555 1_555
C8_17 C4_17 1_555 1_555
C9_17 C8_17 1_555 1_555
H4_17 C9_17 1_555 1_555
C10_17 C9_17 1_555 1_555
H5_17 C10_17 1_555 1_555
C11_17 C10_17 1_555 1_555
C13_17 C8_17 1_555 1_555
H6_17 C13_17 1_555 1_555
C14_17 C11_17 1_555 1_555
O11_17 Sm4_5 1_555 1_555
C11_17 C12_17 1_555 1_555
C12_17 C13_17 1_555 1_555
O11_17 H7_17 1_555 1_555
O11_17 H8_17 1_555 1_555
O13_9 C7_18 1_555 1_555
H2_18 C5_18 1_555 1_555
C6_18 K4_10 1_555 1_555
H3_18 C6_18 1_555 1_555
C7_18 C1_18 1_555 1_555
O14_18 K4_10 1_555 1_555
O15_18 K4_10 1_555 1_555
C1_18 C6_18 1_555 1_555
C5_18 C6_18 1_555 1_555
Sm4_4 O12_9 1_555 1_555
S1_18 O14_18 1_555 1_555
O14_18 Sm4_4 1_555 1_555
O15_18 S1_18 1_555 1_555
O16_9 S1_18 1_555 1_555
O17 C14_18 1_555 1_555
O19 C14_18 1_555 1_555
C2_18 S1_18 1_555 1_555
C3_18 C2_18 1_555 1_555
H1_18 C3_18 1_555 1_555
C4_18 C3_18 1_555 1_555
C8_18 C4_18 1_555 1_555
C9_18 C8_18 1_555 1_555
H4_18 C9_18 1_555 1_555
C10_18 C9_18 1_555 1_555
H5_18 C10_18 1_555 1_555
C11_18 C10_18 1_555 1_555
C13_18 C8_18 1_555 1_555
H6_18 C13_18 1_555 1_555
C14_18 C11_18 1_555 1_555
O11_18 Sm4_4 1_555 1_555
C11_18 C12_18 1_555 1_555
C12_18 C13_18 1_555 1_555
O11_18 H7_18 1_555 1_555
O11_18 H8_18 1_555 1_555
S2_18 O20_5 1_555 1_555

#END
