
###############################################################################
#
# This file contains modified crystal structure data generated from the
# MOF subset of the Cambridge Structural Database (CSD) v543 
# hosted by the Cambridge Crystallographic Data Centre (CCDC).
#
# This work is licensed under the Creative Commons
# Attribution-NonCommercial-ShareAlike 4.0 International License.
# To view a copy of this license, visit
# http://creativecommons.org/licenses/by-nc-sa/4.0/
# or send a letter to
# Creative Commons, PO Box 1866, Mountain View, CA 94042, USA.
#
# CIF created using the CSD Python API on 29 September 2022
# The structure has been converted into the P1 space group
# The structure has a 3D framework
# The original CSD entry IKOVAH is in the rhombohedral crystal system
# The framework has been calculated to contain at least 10.0% void space
# The void calculation uses a probe of radius 1.32A, grid spacing 0.4
# H atom positions have been added when not included in the experimental data
#
###############################################################################

data_IKOVAH
_chemical_formula_moiety         '(C252 H144 Eu18 K15 O186 S36)n'
_symmetry_cell_setting           triclinic
_symmetry_space_group_name_H-M   'P 1'
_symmetry_Int_Tables_number      1
_space_group_name_Hall           'P 1'
loop_
_symmetry_equiv_pos_site_id
_symmetry_equiv_pos_as_xyz
1 x,y,z
_cell_length_a                   48.7999(3)
_cell_length_b                   48.7999(3)
_cell_length_c                   8.45290(10)
_cell_angle_alpha                90
_cell_angle_beta                 90
_cell_angle_gamma                120
_cell_volume                     17433.1
loop_
_atom_site_label
_atom_site_type_symbol
_atom_site_fract_x
_atom_site_fract_y
_atom_site_fract_z
Eu1 Eu 0.82765(2) 0.15298(2) 0.11809(4)
S1 S 0.84792(3) 0.09178(3) 0.06418(15)
O3 O 0.84006(9) 0.11159(9) 0.1630(5)
O4 O 0.85410(11) 0.07122(10) 0.1647(5)
O11 O 0.78907(12) 0.16720(13) 0.0500(7)
C3 C 0.79487(14) 0.03490(12) 0.0052(7)
H1 H 0.8013 0.0283 0.0938
K2 K 0.82706(5) 0.07445(5) 0.43158(19)
O12 O 0.86680(9) 0.17272(9) 0.3596(4)
O13 O 0.88556(8) 0.17614(9) 0.1218(4)
O17 O 0.85242(14) 0.21210(10) 0.1193(5)
O18 O 0.80609(9) 0.14938(13) 0.3817(5)
O21 O 0.77827(9) 0.10486(13) 0.1175(5)
H7 H 0.769302 0.148039 0.015884
H8 H 0.784601 0.176674 0.143443
O1 O 0.82728(9) 0.13320(9) 0.8596(4)
O2 O 0.82386(9) 0.11444(8) 0.6218(4)
O5 O 0.87188(10) 0.10960(10) 0.9496(6)
C1 C 0.80321(13) 0.07694(12) 0.8267(6)
C2 C 0.81253(13) 0.06626(11) 0.9569(6)
C4 C 0.76818(16) 0.01347(14) 0.9251(7)
C5 C 0.76037(15) 0.02343(14) 0.7914(7)
H2 H 0.7434 0.0088 0.7311
C6 C 0.77718(14) 0.05511(14) 0.7416(7)
H3 H 0.7708 0.0614 0.6515
C7 C 0.81949(11) 0.11027(12) 0.7648(6)
K3 K 0.92555(5) 0.17294(5) 0.93158(19)
Eu2 Eu 0.84702(2) 0.17235(2) 0.61809(4)
O16 O 0.89040(10) 0.12812(10) 0.4496(6)
O19 O 0.85062(13) 0.19391(9) 0.8817(5)
O20 O 0.77215(10) 0.07717(15) 0.3645(5)
O6 O 0.69302(10) 0.87877(10) 0.2860(5)
O7 O 0.67663(10) 0.86058(9) 0.0484(5)
O8 O 0.63836(11) 0.89452(10) 0.0312(5)
C9 C 0.76054(16) 0.96567(14) 0.0773(8)
H4 H 0.7818 0.9765 0.1054
C10 C 0.74136(16) 0.93546(13) 0.1309(8)
H5 H 0.7493 0.9270 0.2039
C11 C 0.71039(14) 0.91721(13) 0.0791(6)
C14 C 0.69184(13) 0.88328(13) 0.1400(6)
K4 K 0.58072(7) 0.83961(5) 0.09825(19)
Eu4 Eu 0.65866(3) 0.81965(2) 0.28476(4)
S2 S 0.65891(3) 0.91032(3) 0.89880(15)
O9 O 0.65993(10) 0.88840(9) 0.7842(5)
O10 O 0.65419(11) 0.93422(9) 0.8219(5)
C8 C 0.74842(15) 0.98050(13) 0.9804(6)
C12 C 0.69822(14) 0.93020(12) 0.9795(6)
C13 C 0.71706(14) 0.96225(12) 0.9339(7)
H6 H 0.7081 0.9714 0.8709
Eu3 Eu 0.65866(3) 0.83902(2) 0.78476(4)
O6_2 O 0.12123(10) 0.81425(14) 0.2860(5)
O7_2 O 0.13942(9) 0.81605(13) 0.0484(5)
O8_2 O 0.10548(10) 0.74384(15) 0.0312(5)
C9_2 C 0.03433(14) 0.79487(21) 0.0773(8)
H4_2 H 0.0235 0.8053 0.1054
C10_2 C 0.06454(13) 0.80590(21) 0.1309(8)
H5_2 H 0.0730 0.8223 0.2039
C11_2 C 0.08279(13) 0.79318(19) 0.0791(6)
C14_2 C 0.11672(13) 0.80856(18) 0.1400(6)
K4_2 K 0.16039(5) 0.74112(9) 0.09825(19)
Eu4_2 Eu 0.18035(2) 0.83902(4) 0.28476(4)
S2_2 S 0.08968(3) 0.74859(4) 0.89880(15)
O9_2 O 0.11160(9) 0.77153(13) 0.7842(5)
O10_2 O 0.06578(9) 0.71997(14) 0.8219(5)
C8_2 C 0.01950(13) 0.76792(20) 0.9804(6)
C12_2 C 0.06980(12) 0.76802(18) 0.9795(6)
C13_2 C 0.03775(12) 0.75481(18) 0.9339(7)
H6_2 H 0.0286 0.7367 0.8709
Eu3_2 Eu 0.16098(2) 0.81965(4) 0.78476(4)
Eu1_2 Eu 0.84702(2) 0.67467(3) 0.11809(4)
S1_2 S 0.90822(3) 0.75614(4) 0.06418(15)
O3_2 O 0.88841(9) 0.72847(13) 0.1630(5)
O4_2 O 0.92878(10) 0.78288(15) 0.1647(5)
O11_2 O 0.83280(13) 0.62187(18) 0.0500(7)
C3_2 C 0.96510(12) 0.75997(18) 0.0052(7)
H1_2 H 0.9717 0.7730 0.0938
K2_2 K 0.92555(5) 0.75261(7) 0.43158(19)
O12_2 O 0.82728(9) 0.69408(13) 0.3596(4)
O13_2 O 0.82386(9) 0.70942(12) 0.1218(4)
O17_2 O 0.78790(10) 0.64031(17) 0.1193(5)
O18_2 O 0.85062(13) 0.65670(16) 0.3817(5)
O21_2 O 0.89514(13) 0.67340(16) 0.1175(5)
H7_2 H 0.851961 0.621264 0.015884
H8_2 H 0.823326 0.607926 0.143443
O1_2 O 0.86680(9) 0.69408(13) 0.8596(4)
O2_2 O 0.88556(8) 0.70942(12) 0.6218(4)
O5_2 O 0.89040(10) 0.76228(14) 0.9496(6)
C1_2 C 0.92306(12) 0.72627(18) 0.8267(6)
C2_2 C 0.93374(11) 0.74627(17) 0.9569(6)
C4_2 C 0.98653(14) 0.75471(21) 0.9251(7)
C5_2 C 0.97657(14) 0.73694(21) 0.7914(7)
H2_2 H 0.9912 0.7346 0.7311
C6_2 C 0.94489(14) 0.72207(20) 0.7416(7)
H3_2 H 0.9386 0.7094 0.6515
C7_2 C 0.88973(12) 0.70922(16) 0.7648(6)
K3_2 K 0.82706(5) 0.75261(7) 0.93158(19)
Eu2_2 Eu 0.82765(2) 0.67467(3) 0.61809(4)
O16_2 O 0.87188(10) 0.76228(14) 0.4496(6)
O19_2 O 0.80609(9) 0.65670(16) 0.8817(5)
O20_2 O 0.92283(15) 0.69497(18) 0.3645(5)
Eu1_3 Eu 0.32533(3) 0.17235(2) 0.11809(4)
S1_3 S 0.24386(4) 0.15208(3) 0.06418(15)
O3_3 O 0.27153(13) 0.15994(9) 0.1630(5)
O4_3 O 0.21712(15) 0.14590(11) 0.1647(5)
O6_3 O 0.18575(14) 0.30698(10) 0.2860(5)
O7_3 O 0.18395(13) 0.32337(10) 0.0484(5)
O8_3 O 0.25616(15) 0.36164(11) 0.0312(5)
O11_3 O 0.37813(18) 0.21093(12) 0.0500(7)
C3_3 C 0.24003(18) 0.20513(14) 0.0052(7)
H1_3 H 0.2270 0.1987 0.0938
C9_3 C 0.20513(21) 0.23946(16) 0.0773(8)
H4_3 H 0.1947 0.2182 0.1054
C10_3 C 0.19410(21) 0.25864(16) 0.1309(8)
H5_3 H 0.1777 0.2507 0.2039
C11_3 C 0.20682(19) 0.28961(14) 0.0791(6)
C14_3 C 0.19144(18) 0.30816(13) 0.1400(6)
K2_3 K 0.24739(7) 0.17294(5) 0.43158(19)
K4_3 K 0.25888(9) 0.41928(7) 0.09825(19)
Eu4_3 Eu 0.16098(4) 0.34134(3) 0.28476(4)
O12_3 O 0.30592(13) 0.13320(9) 0.3596(4)
O13_3 O 0.29058(12) 0.11444(8) 0.1218(4)
O17_3 O 0.35969(17) 0.14758(14) 0.1193(5)
O18_3 O 0.34330(16) 0.19391(9) 0.3817(5)
O21_3 O 0.32660(16) 0.22173(9) 0.1175(5)
H7_3 H 0.378736 0.230698 0.015884
H8_3 H 0.392074 0.215399 0.143443
S2_3 S 0.25141(4) 0.34109(3) 0.89880(15)
O1_3 O 0.30592(13) 0.17272(9) 0.8596(4)
O2_3 O 0.29058(12) 0.17614(9) 0.6218(4)
O5_3 O 0.23772(14) 0.12812(10) 0.9496(6)
O9_3 O 0.22847(13) 0.34007(10) 0.7842(5)
O10_3 O 0.28003(14) 0.34581(11) 0.8219(5)
C1_3 C 0.27373(18) 0.19679(13) 0.8267(6)
C2_3 C 0.25373(17) 0.18747(13) 0.9569(6)
C4_3 C 0.24529(21) 0.23182(16) 0.9251(7)
C5_3 C 0.26306(21) 0.23963(15) 0.7914(7)
H2_3 H 0.2654 0.2566 0.7311
C6_3 C 0.27793(20) 0.22282(14) 0.7416(7)
H3_3 H 0.2906 0.2292 0.6515
C7_3 C 0.29078(16) 0.18051(11) 0.7648(6)
C8_3 C 0.23208(20) 0.25158(15) 0.9804(6)
C12_3 C 0.23198(18) 0.30178(14) 0.9795(6)
C13_3 C 0.24519(18) 0.28294(14) 0.9339(7)
H6_3 H 0.2633 0.2919 0.8709
K3_3 K 0.24739(7) 0.07445(5) 0.93158(19)
Eu2_3 Eu 0.32533(3) 0.15298(2) 0.61809(4)
Eu3_3 Eu 0.18035(4) 0.34134(3) 0.78476(4)
O16_3 O 0.23772(14) 0.10960(10) 0.4496(6)
O19_3 O 0.34330(16) 0.14938(13) 0.8817(5)
O20_3 O 0.30503(18) 0.22785(10) 0.3645(5)
S2_4 S 0.08968(3) 0.34109(3) 0.39880(15)
O6_4 O 0.12123(10) 0.30698(10) 0.7860(5)
O7_4 O 0.13942(9) 0.32337(10) 0.5484(5)
O8_4 O 0.10548(10) 0.36164(11) 0.5312(5)
O9_4 O 0.11160(9) 0.34007(10) 0.2842(5)
O10_4 O 0.06578(9) 0.34581(11) 0.3219(5)
C8_4 C 0.01950(13) 0.25158(15) 0.4804(6)
C9_4 C 0.03433(14) 0.23946(16) 0.5773(8)
H4_4 H 0.0235 0.2182 0.6054
C10_4 C 0.06454(13) 0.25864(16) 0.6309(8)
H5_4 H 0.0730 0.2507 0.7039
C11_4 C 0.08279(13) 0.28961(14) 0.5791(6)
C12_4 C 0.06980(12) 0.30178(14) 0.4795(6)
C13_4 C 0.03775(12) 0.28294(14) 0.4339(7)
H6_4 H 0.0286 0.2919 0.3709
C14_4 C 0.11672(13) 0.30816(13) 0.6400(6)
K4_4 K 0.16039(5) 0.41928(7) 0.59825(19)
S1_4 S 0.90822(3) 0.15208(3) 0.56418(15)
O3_4 O 0.88841(9) 0.15994(9) 0.6630(5)
O4_4 O 0.92878(10) 0.14590(11) 0.6647(5)
O11_4 O 0.83280(13) 0.21093(12) 0.5500(7)
C1_4 C 0.92306(12) 0.19679(13) 0.3267(6)
C2_4 C 0.93374(11) 0.18747(13) 0.4569(6)
C3_4 C 0.96510(12) 0.20513(14) 0.5052(7)
H1_4 H 0.9717 0.1987 0.5938
C4_4 C 0.98653(14) 0.23182(16) 0.4251(7)
C5_4 C 0.97657(14) 0.23963(15) 0.2914(7)
H2_4 H 0.9912 0.2566 0.2311
C6_4 C 0.94489(14) 0.22282(14) 0.2416(7)
H3_4 H 0.9386 0.2292 0.1515
C7_4 C 0.88973(12) 0.18051(11) 0.2648(6)
O17_4 O 0.78790(10) 0.14758(14) 0.6193(5)
O21_4 O 0.89514(13) 0.22173(9) 0.6175(5)
H7_4 H 0.851961 0.230698 0.515884
H8_4 H 0.823326 0.215399 0.643443
O20_4 O 0.92283(15) 0.22785(10) 0.8645(5)
S1_5 S 0.24386(4) 0.09178(3) 0.56418(15)
O3_5 O 0.27153(13) 0.11159(9) 0.6630(5)
O4_5 O 0.21712(15) 0.07122(10) 0.6647(5)
O11_5 O 0.37813(18) 0.16720(13) 0.5500(7)
C1_5 C 0.27373(18) 0.07694(12) 0.3267(6)
C2_5 C 0.25373(17) 0.06626(11) 0.4569(6)
C3_5 C 0.24003(18) 0.03490(12) 0.5052(7)
H1_5 H 0.2270 0.0283 0.5938
C4_5 C 0.24529(21) 0.01347(14) 0.4251(7)
C5_5 C 0.26306(21) 0.02343(14) 0.2914(7)
H2_5 H 0.2654 0.0088 0.2311
C6_5 C 0.27793(20) 0.05511(14) 0.2416(7)
H3_5 H 0.2906 0.0614 0.1515
C7_5 C 0.29078(16) 0.11027(12) 0.2648(6)
O17_5 O 0.35969(17) 0.21210(10) 0.6193(5)
O21_5 O 0.32660(16) 0.10486(13) 0.6175(5)
H7_5 H 0.378736 0.148039 0.515884
H8_5 H 0.392074 0.176674 0.643443
O20_5 O 0.30503(18) 0.07717(15) 0.8645(5)
S2_5 S 0.25141(4) 0.91032(3) 0.39880(15)
O6_5 O 0.18575(14) 0.87877(10) 0.7860(5)
O7_5 O 0.18395(13) 0.86058(9) 0.5484(5)
O8_5 O 0.25616(15) 0.89452(10) 0.5312(5)
O9_5 O 0.22847(13) 0.88840(9) 0.2842(5)
O10_5 O 0.28003(14) 0.93422(9) 0.3219(5)
C8_5 C 0.23208(20) 0.98050(13) 0.4804(6)
C9_5 C 0.20513(21) 0.96567(14) 0.5773(8)
H4_5 H 0.1947 0.9765 0.6054
C10_5 C 0.19410(21) 0.93546(13) 0.6309(8)
H5_5 H 0.1777 0.9270 0.7039
C11_5 C 0.20682(19) 0.91721(13) 0.5791(6)
C12_5 C 0.23198(18) 0.93020(12) 0.4795(6)
C13_5 C 0.24519(18) 0.96225(12) 0.4339(7)
H6_5 H 0.2633 0.9714 0.3709
C14_5 C 0.19144(18) 0.88328(13) 0.6400(6)
K4_5 K 0.25888(9) 0.83961(5) 0.59825(19)
S1_6 S 0.84792(3) 0.75614(4) 0.56418(15)
S2_6 S 0.65891(3) 0.74859(4) 0.39880(15)
O3_6 O 0.84006(9) 0.72847(13) 0.6630(5)
O4_6 O 0.85410(11) 0.78288(15) 0.6647(5)
O6_6 O 0.69302(10) 0.81425(14) 0.7860(5)
O7_6 O 0.67663(10) 0.81605(13) 0.5484(5)
O8_6 O 0.63836(11) 0.74384(15) 0.5312(5)
O9_6 O 0.65993(10) 0.77153(13) 0.2842(5)
O10_6 O 0.65419(11) 0.71997(14) 0.3219(5)
O11_6 O 0.78907(12) 0.62187(18) 0.5500(7)
C1_6 C 0.80321(13) 0.72627(18) 0.3267(6)
C2_6 C 0.81253(13) 0.74627(17) 0.4569(6)
C3_6 C 0.79487(14) 0.75997(18) 0.5052(7)
H1_6 H 0.8013 0.7730 0.5938
C4_6 C 0.76818(16) 0.75471(21) 0.4251(7)
C5_6 C 0.76037(15) 0.73694(21) 0.2914(7)
H2_6 H 0.7434 0.7346 0.2311
C6_6 C 0.77718(14) 0.72207(20) 0.2416(7)
H3_6 H 0.7708 0.7094 0.1515
C7_6 C 0.81949(11) 0.70922(16) 0.2648(6)
C8_6 C 0.74842(15) 0.76792(20) 0.4804(6)
C9_6 C 0.76054(16) 0.79487(21) 0.5773(8)
H4_6 H 0.7818 0.8053 0.6054
C10_6 C 0.74136(16) 0.80590(21) 0.6309(8)
H5_6 H 0.7493 0.8223 0.7039
C11_6 C 0.71039(14) 0.79318(19) 0.5791(6)
C12_6 C 0.69822(14) 0.76802(18) 0.4795(6)
C13_6 C 0.71706(14) 0.75481(18) 0.4339(7)
H6_6 H 0.7081 0.7367 0.3709
C14_6 C 0.69184(13) 0.80856(18) 0.6400(6)
K4_6 K 0.58072(7) 0.74112(9) 0.59825(19)
O17_6 O 0.85242(14) 0.64031(17) 0.6193(5)
O21_6 O 0.77827(9) 0.67340(16) 0.6175(5)
H7_6 H 0.769302 0.621264 0.515884
H8_6 H 0.784601 0.607926 0.643443
O20_6 O 0.77215(10) 0.69497(18) 0.8645(5)
Eu1_4 Eu 0.49432(2) 0.48631(2) 0.45142(4)
S1_7 S 0.51459(3) 0.42511(3) 0.39751(15)
S2_7 S 0.32558(3) 0.24365(3) 0.23213(15)
O1_4 O 0.49395(9) 0.46653(9) 0.1929(4)
O3_7 O 0.50673(9) 0.44492(9) 0.4963(5)
O4_7 O 0.52077(11) 0.40455(10) 0.4980(5)
O5_4 O 0.53855(10) 0.44293(10) 0.2829(6)
O10_7 O 0.32086(11) 0.26755(9) 0.1552(5)
O11_7 O 0.45574(12) 0.50053(13) 0.3833(7)
C1_7 C 0.46988(13) 0.41027(12) 0.1600(6)
C2_7 C 0.47920(13) 0.39959(11) 0.2902(6)
C3_7 C 0.46154(14) 0.36823(12) 0.3385(7)
H1_7 H 0.4680 0.3616 0.4271
C4_7 C 0.43485(16) 0.34680(14) 0.2584(7)
C5_7 C 0.42704(15) 0.35676(14) 0.1247(7)
H2_7 H 0.4101 0.3421 0.0644
C6_7 C 0.44385(14) 0.38844(14) 0.0749(7)
C7_7 C 0.48616(11) 0.44360(12) 0.0981(6)
C8_7 C 0.41509(15) 0.31383(13) 0.3137(6)
C9_7 C 0.42721(16) 0.29900(14) 0.4106(8)
H4_7 H 0.4485 0.3098 0.4387
C10_7 C 0.40803(16) 0.26879(13) 0.4642(8)
H5_7 H 0.4160 0.2603 0.5372
C11_7 C 0.37706(14) 0.25054(13) 0.4124(6)
C12_7 C 0.36489(14) 0.26353(12) 0.3128(6)
C13_7 C 0.38373(14) 0.29558(12) 0.2672(7)
H6_7 H 0.3748 0.3047 0.2042
C14_7 C 0.35851(13) 0.21661(13) 0.4733(6)
K2_4 K 0.49373(5) 0.40778(5) 0.76491(19)
K3_4 K 0.59222(5) 0.50627(5) 0.26491(19)
O12_4 O 0.53347(9) 0.50605(9) 0.6929(4)
O13_4 O 0.55223(8) 0.50947(9) 0.4551(4)
O17_7 O 0.51908(14) 0.54544(10) 0.4527(5)
O18_4 O 0.47275(9) 0.48272(13) 0.7151(5)
O19_4 O 0.51728(13) 0.52725(9) 0.2151(5)
O21_7 O 0.44493(9) 0.43820(13) 0.4509(5)
H7_7 H 0.435969 0.481372 0.349217
H8_7 H 0.451268 0.510008 0.476776
O2_4 O 0.49053(9) 0.44777(8) 0.9551(4)
H3_7 H 0.4375 0.3947 0.9848
Eu2_4 Eu 0.51369(2) 0.50568(2) 0.95142(4)
O16_4 O 0.55707(10) 0.46145(10) 0.7829(6)
O20_7 O 0.43881(10) 0.41051(15) 0.6979(5)
Eu1_5 Eu 0.51369(2) 0.00800(3) 0.45142(4)
S1_8 S 0.57489(3) 0.08947(4) 0.39751(15)
S2_8 S 0.75635(3) 0.08192(4) 0.23213(15)
O1_5 O 0.53347(9) 0.02741(13) 0.1929(4)
O3_8 O 0.55508(9) 0.06180(13) 0.4963(5)
O4_8 O 0.59545(10) 0.11621(15) 0.4980(5)
O5_5 O 0.55707(10) 0.09561(14) 0.2829(6)
O10_8 O 0.73245(9) 0.05330(14) 0.1552(5)
C1_8 C 0.58973(12) 0.05960(18) 0.1600(6)
C2_8 C 0.60041(11) 0.07960(17) 0.2902(6)
C3_8 C 0.63177(12) 0.09330(18) 0.3385(7)
H1_8 H 0.6384 0.1063 0.4271
C4_8 C 0.65320(14) 0.08804(21) 0.2584(7)
C5_8 C 0.64324(14) 0.07027(21) 0.1247(7)
H2_8 H 0.6579 0.0679 0.0644
C6_8 C 0.61156(14) 0.05540(20) 0.0749(7)
C7_8 C 0.55640(12) 0.04255(16) 0.0981(6)
C8_8 C 0.68617(13) 0.10125(20) 0.3137(6)
C9_8 C 0.70100(14) 0.12820(21) 0.4106(8)
H4_8 H 0.6902 0.1386 0.4387
C10_8 C 0.73121(13) 0.13923(21) 0.4642(8)
H5_8 H 0.7397 0.1556 0.5372
C11_8 C 0.74946(13) 0.12651(19) 0.4124(6)
C12_8 C 0.73647(12) 0.10135(18) 0.3128(6)
C13_8 C 0.70442(12) 0.08814(18) 0.2672(7)
H6_8 H 0.6953 0.0700 0.2042
C14_8 C 0.78339(13) 0.14189(18) 0.4733(6)
K2_5 K 0.59222(5) 0.08594(7) 0.76491(19)
K3_5 K 0.49373(5) 0.08594(7) 0.26491(19)
O12_5 O 0.49395(9) 0.02741(13) 0.6929(4)
O13_5 O 0.49053(9) 0.04275(12) 0.4551(4)
O21_8 O 0.56180(13) 0.00674(16) 0.4509(5)
O2_5 O 0.55223(8) 0.04275(12) 0.9551(4)
H3_8 H 0.6053 0.0427 0.9848
Eu2_5 Eu 0.49432(2) 0.00800(3) 0.95142(4)
O16_5 O 0.53855(10) 0.09561(14) 0.7829(6)
O20_8 O 0.58949(15) 0.02831(18) 0.6979(5)
O11_8 O 0.49947(13) 0.95520(18) 0.3833(7)
O17_8 O 0.45456(10) 0.97365(17) 0.4527(5)
O18_5 O 0.51728(13) 0.99004(16) 0.7151(5)
O19_5 O 0.47275(9) 0.99004(16) 0.2151(5)
H7_8 H 0.518628 0.954597 0.349217
H8_8 H 0.489992 0.94126 0.476776
O11_9 O 0.04480(18) 0.54426(12) 0.3833(7)
O17_9 O 0.02635(17) 0.48092(14) 0.4527(5)
O18_6 O 0.00996(16) 0.52725(9) 0.7151(5)
O19_6 O 0.00996(16) 0.48272(13) 0.2151(5)
H7_9 H 0.045403 0.564031 0.349217
H8_9 H 0.0587402 0.548732 0.476776
Eu1_6 Eu 0.99200(3) 0.50568(2) 0.45142(4)
S1_9 S 0.91053(4) 0.48541(3) 0.39751(15)
S2_9 S 0.91808(4) 0.67442(3) 0.23213(15)
O1_6 O 0.97259(13) 0.50605(9) 0.1929(4)
O3_9 O 0.93820(13) 0.49327(9) 0.4963(5)
O4_9 O 0.88379(15) 0.47923(11) 0.4980(5)
O5_6 O 0.90439(14) 0.46145(10) 0.2829(6)
O10_9 O 0.94670(14) 0.67914(11) 0.1552(5)
C1_9 C 0.94040(18) 0.53012(13) 0.1600(6)
C2_9 C 0.92040(17) 0.52080(13) 0.2902(6)
C3_9 C 0.90670(18) 0.53846(14) 0.3385(7)
H1_9 H 0.8937 0.5320 0.4271
C4_9 C 0.91196(21) 0.56515(16) 0.2584(7)
C5_9 C 0.92973(21) 0.57296(15) 0.1247(7)
H2_9 H 0.9321 0.5899 0.0644
C6_9 C 0.94460(20) 0.55615(14) 0.0749(7)
C7_9 C 0.95745(16) 0.51384(11) 0.0981(6)
C8_9 C 0.89875(20) 0.58491(15) 0.3137(6)
C9_9 C 0.87180(21) 0.57279(16) 0.4106(8)
H4_9 H 0.8614 0.5515 0.4387
C10_9 C 0.86077(21) 0.59197(16) 0.4642(8)
H5_9 H 0.8444 0.5840 0.5372
C11_9 C 0.87349(19) 0.62294(14) 0.4124(6)
C12_9 C 0.89865(18) 0.63511(14) 0.3128(6)
C13_9 C 0.91186(18) 0.61627(14) 0.2672(7)
H6_9 H 0.9300 0.6252 0.2042
C14_9 C 0.85811(18) 0.64149(13) 0.4733(6)
K2_6 K 0.91406(7) 0.50627(5) 0.76491(19)
K3_6 K 0.91406(7) 0.40778(5) 0.26491(19)
O12_6 O 0.97259(13) 0.46653(9) 0.6929(4)
O13_6 O 0.95725(12) 0.44777(8) 0.4551(4)
O21_9 O 0.99326(16) 0.55507(9) 0.4509(5)
O2_6 O 0.95725(12) 0.50947(9) 0.9551(4)
H3_9 H 0.9573 0.5625 0.9848
Eu2_6 Eu 0.99200(3) 0.48631(2) 0.95142(4)
O16_6 O 0.90439(14) 0.44293(10) 0.7829(6)
O20_9 O 0.97169(18) 0.56119(10) 0.6979(5)
H5_10 H 0.7397 0.5840 0.0372
S1_10 S 0.57489(3) 0.48541(3) 0.89751(15)
S2_10 S 0.75635(3) 0.67442(3) 0.73213(15)
O3_10 O 0.55508(9) 0.49327(9) 0.9963(5)
O4_10 O 0.59545(10) 0.47923(11) 0.9980(5)
O10_10 O 0.73245(9) 0.67914(11) 0.6552(5)
O11_10 O 0.49947(13) 0.54426(12) 0.8833(7)
C1_10 C 0.58973(12) 0.53012(13) 0.6600(6)
C2_10 C 0.60041(11) 0.52080(13) 0.7902(6)
C3_10 C 0.63177(12) 0.53846(14) 0.8385(7)
H1_10 H 0.6384 0.5320 0.9271
C4_10 C 0.65320(14) 0.56515(16) 0.7584(7)
C5_10 C 0.64324(14) 0.57296(15) 0.6247(7)
H2_10 H 0.6579 0.5899 0.5644
C6_10 C 0.61156(14) 0.55615(14) 0.5749(7)
H3_10 H 0.6053 0.5625 0.4848
C7_10 C 0.55640(12) 0.51384(11) 0.5981(6)
C8_10 C 0.68617(13) 0.58491(15) 0.8137(6)
C9_10 C 0.70100(14) 0.57279(16) 0.9106(8)
H4_10 H 0.6902 0.5515 0.9387
C10_10 C 0.73121(13) 0.59197(16) 0.9642(8)
C11_10 C 0.74946(13) 0.62294(14) 0.9124(6)
C12_10 C 0.73647(12) 0.63511(14) 0.8128(6)
C13_10 C 0.70442(12) 0.61627(14) 0.7672(7)
H6_10 H 0.6953 0.6252 0.7042
C14_10 C 0.78339(13) 0.64149(13) 0.9733(6)
O17_10 O 0.45456(10) 0.48092(14) 0.9527(5)
O20_10 O 0.58949(15) 0.56119(10) 0.1979(5)
O21_10 O 0.56180(13) 0.55507(9) 0.9509(5)
H7_10 H 0.518628 0.564031 0.849217
H8_10 H 0.489992 0.548732 0.976776
O11_11 O 0.04480(18) 0.50053(13) 0.8833(7)
O17_11 O 0.02635(17) 0.54544(10) 0.9527(5)
H7_11 H 0.045403 0.481372 0.849217
H8_11 H 0.0587402 0.510008 0.976776
H5_11 H 0.8444 0.2603 0.0372
S1_11 S 0.91053(4) 0.42511(3) 0.89751(15)
S2_11 S 0.91808(4) 0.24365(3) 0.73213(15)
O3_11 O 0.93820(13) 0.44492(9) 0.9963(5)
O4_11 O 0.88379(15) 0.40455(10) 0.9980(5)
O10_11 O 0.94670(14) 0.26755(9) 0.6552(5)
C1_11 C 0.94040(18) 0.41027(12) 0.6600(6)
C2_11 C 0.92040(17) 0.39959(11) 0.7902(6)
C3_11 C 0.90670(18) 0.36823(12) 0.8385(7)
H1_11 H 0.8937 0.3616 0.9271
C4_11 C 0.91196(21) 0.34680(14) 0.7584(7)
C5_11 C 0.92973(21) 0.35676(14) 0.6247(7)
H2_11 H 0.9321 0.3421 0.5644
C6_11 C 0.94460(20) 0.38844(14) 0.5749(7)
H3_11 H 0.9573 0.3947 0.4848
C7_11 C 0.95745(16) 0.44360(12) 0.5981(6)
C8_11 C 0.89875(20) 0.31383(13) 0.8137(6)
C9_11 C 0.87180(21) 0.29900(14) 0.9106(8)
H4_11 H 0.8614 0.3098 0.9387
C10_11 C 0.86077(21) 0.26879(13) 0.9642(8)
C11_11 C 0.87349(19) 0.25054(13) 0.9124(6)
C12_11 C 0.89865(18) 0.26353(12) 0.8128(6)
C13_11 C 0.91186(18) 0.29558(12) 0.7672(7)
H6_11 H 0.9300 0.3047 0.7042
C14_11 C 0.85811(18) 0.21661(13) 0.9733(6)
O20_11 O 0.97169(18) 0.41051(15) 0.1979(5)
O21_11 O 0.99326(16) 0.43820(13) 0.9509(5)
H5_12 H 0.4160 0.1556 0.0372
S1_12 S 0.51459(3) 0.08947(4) 0.89751(15)
S2_12 S 0.32558(3) 0.08192(4) 0.73213(15)
O3_12 O 0.50673(9) 0.06180(13) 0.9963(5)
O4_12 O 0.52077(11) 0.11621(15) 0.9980(5)
O10_12 O 0.32086(11) 0.05330(14) 0.6552(5)
C1_12 C 0.46988(13) 0.05960(18) 0.6600(6)
C2_12 C 0.47920(13) 0.07960(17) 0.7902(6)
C3_12 C 0.46154(14) 0.09330(18) 0.8385(7)
H1_12 H 0.4680 0.1063 0.9271
C4_12 C 0.43485(16) 0.08804(21) 0.7584(7)
C5_12 C 0.42704(15) 0.07027(21) 0.6247(7)
H2_12 H 0.4101 0.0679 0.5644
C6_12 C 0.44385(14) 0.05540(20) 0.5749(7)
H3_12 H 0.4375 0.0427 0.4848
C7_12 C 0.48616(11) 0.04255(16) 0.5981(6)
C8_12 C 0.41509(15) 0.10125(20) 0.8137(6)
C9_12 C 0.42721(16) 0.12820(21) 0.9106(8)
H4_12 H 0.4485 0.1386 0.9387
C10_12 C 0.40803(16) 0.13923(21) 0.9642(8)
C11_12 C 0.37706(14) 0.12651(19) 0.9124(6)
C12_12 C 0.36489(14) 0.10135(18) 0.8128(6)
C13_12 C 0.38373(14) 0.08814(18) 0.7672(7)
H6_12 H 0.3748 0.0700 0.7042
C14_12 C 0.35851(13) 0.14189(18) 0.9733(6)
O20_12 O 0.43881(10) 0.02831(18) 0.1979(5)
O21_12 O 0.44493(9) 0.00674(16) 0.9509(5)
O11_12 O 0.45574(12) 0.95520(18) 0.8833(7)
O17_12 O 0.51908(14) 0.97365(17) 0.9527(5)
H7_12 H 0.435969 0.954597 0.849217
H8_12 H 0.451268 0.94126 0.976776
O12_7 O 0.20013(9) 0.83939(9) 0.0263(4)
S1_13 S 0.18125(3) 0.75845(3) 0.73085(15)
O1_7 O 0.16061(9) 0.79987(9) 0.5263(4)
O2_7 O 0.15719(9) 0.78111(8) 0.2885(4)
O3_13 O 0.17339(9) 0.77826(9) 0.8297(5)
O4_13 O 0.18743(11) 0.73789(10) 0.8314(5)
O5_7 O 0.20521(10) 0.77627(10) 0.6163(6)
O11_13 O 0.12240(12) 0.83387(13) 0.7167(7)
C1_13 C 0.13654(13) 0.74361(12) 0.4934(6)
C2_13 C 0.14586(13) 0.73293(11) 0.6236(6)
C3_13 C 0.12820(14) 0.70157(12) 0.6719(7)
H1_13 H 0.1346 0.6950 0.7605
C4_13 C 0.10151(16) 0.68014(14) 0.5918(7)
C5_13 C 0.09370(15) 0.69010(14) 0.4581(7)
H2_13 H 0.0767 0.6755 0.3978
C6_13 C 0.11051(14) 0.72178(14) 0.4083(7)
H3_13 H 0.1041 0.7281 0.3182
C7_13 C 0.15282(11) 0.77694(12) 0.4315(6)
C8_13 C 0.08175(15) 0.64717(13) 0.6471(6)
C9_13 C 0.09387(16) 0.63234(14) 0.7440(8)
H4_13 H 0.1151 0.6432 0.7721
C10_13 C 0.07469(16) 0.60213(13) 0.7976(8)
H5_13 H 0.0826 0.5937 0.8706
C11_13 C 0.04372(14) 0.58388(13) 0.7458(6)
C12_13 C 0.03155(14) 0.59687(12) 0.6462(6)
C13_13 C 0.05039(14) 0.62892(12) 0.6006(7)
H6_13 H 0.0414 0.6381 0.5376
C14_13 C 0.02517(13) 0.54995(13) 0.8067(6)
O13_7 O 0.21889(8) 0.84281(9) 0.7885(4)
O16_7 O 0.22373(10) 0.79479(10) 0.1163(6)
H7_13 H 0.102636 0.814706 0.682551
H8_13 H 0.117934 0.843341 0.810109
S2_13 S 0.99224(3) 0.57699(3) 0.56547(15)
O10_13 O 0.98752(11) 0.60089(9) 0.4886(5)
O12_8 O 0.16061(9) 0.36075(13) 0.0263(4)
S1_14 S 0.24155(3) 0.42281(4) 0.73085(15)
S2_14 S 0.42301(3) 0.41526(4) 0.56547(15)
O1_8 O 0.20013(9) 0.36075(13) 0.5263(4)
O2_8 O 0.21889(8) 0.37609(12) 0.2885(4)
O3_14 O 0.22174(9) 0.39514(13) 0.8297(5)
O4_14 O 0.26211(10) 0.44955(15) 0.8314(5)
O5_8 O 0.22373(10) 0.42895(14) 0.6163(6)
O10_14 O 0.39911(9) 0.38664(14) 0.4886(5)
O11_14 O 0.16613(13) 0.28854(18) 0.7167(7)
C1_14 C 0.25639(12) 0.39294(18) 0.4934(6)
C2_14 C 0.26707(11) 0.41294(17) 0.6236(6)
C3_14 C 0.29843(12) 0.42664(18) 0.6719(7)
H1_14 H 0.3050 0.4397 0.7605
C4_14 C 0.31986(14) 0.42138(21) 0.5918(7)
C5_14 C 0.30990(14) 0.40361(21) 0.4581(7)
H2_14 H 0.3245 0.4013 0.3978
C6_14 C 0.27822(14) 0.38874(20) 0.4083(7)
H3_14 H 0.2719 0.3761 0.3182
C7_14 C 0.22306(12) 0.37589(16) 0.4315(6)
C8_14 C 0.35283(13) 0.43459(20) 0.6471(6)
C9_14 C 0.36766(14) 0.46154(21) 0.7440(8)
H4_14 H 0.3568 0.4720 0.7721
C10_14 C 0.39787(13) 0.47257(21) 0.7976(8)
H5_14 H 0.4063 0.4890 0.8706
C11_14 C 0.41612(13) 0.45985(19) 0.7458(6)
C12_14 C 0.40313(12) 0.43469(18) 0.6462(6)
C13_14 C 0.37108(12) 0.42148(18) 0.6006(7)
H6_14 H 0.3619 0.4034 0.5376
C14_14 C 0.45005(13) 0.47523(18) 0.8067(6)
O13_8 O 0.15719(9) 0.37609(12) 0.7885(4)
O16_8 O 0.20521(10) 0.42895(14) 0.1163(6)
H7_14 H 0.185294 0.28793 0.682551
H8_14 H 0.156659 0.274593 0.810109
S2_15 S 0.58474(4) 0.00776(3) 0.56547(15)
O10_15 O 0.61336(14) 0.01248(11) 0.4886(5)
O12_9 O 0.63925(13) 0.79987(9) 0.0263(4)
S1_15 S 0.57719(4) 0.81875(3) 0.73085(15)
O1_9 O 0.63925(13) 0.83939(9) 0.5263(4)
O2_9 O 0.62391(12) 0.84281(9) 0.2885(4)
O3_15 O 0.60486(13) 0.82661(9) 0.8297(5)
O4_15 O 0.55045(15) 0.81257(11) 0.8314(5)
O5_9 O 0.57105(14) 0.79479(10) 0.6163(6)
O11_15 O 0.71146(18) 0.87760(12) 0.7167(7)
C1_15 C 0.60706(18) 0.86346(13) 0.4934(6)
C2_15 C 0.58706(17) 0.85414(13) 0.6236(6)
C3_15 C 0.57336(18) 0.87180(14) 0.6719(7)
H1_15 H 0.5603 0.8654 0.7605
C4_15 C 0.57862(21) 0.89849(16) 0.5918(7)
C5_15 C 0.59639(21) 0.90630(15) 0.4581(7)
H2_15 H 0.5987 0.9233 0.3978
C6_15 C 0.61126(20) 0.88949(14) 0.4083(7)
H3_15 H 0.6239 0.8959 0.3182
C7_15 C 0.62411(16) 0.84718(11) 0.4315(6)
C8_15 C 0.56541(20) 0.91825(15) 0.6471(6)
C9_15 C 0.53846(21) 0.90613(16) 0.7440(8)
H4_15 H 0.5280 0.8849 0.7721
C10_15 C 0.52743(21) 0.92531(16) 0.7976(8)
H5_15 H 0.5110 0.9174 0.8706
C11_15 C 0.54015(19) 0.95628(14) 0.7458(6)
C12_15 C 0.56531(18) 0.96845(14) 0.6462(6)
C13_15 C 0.57852(18) 0.94961(14) 0.6006(7)
H6_15 H 0.5966 0.9586 0.5376
C14_15 C 0.52477(18) 0.97483(13) 0.8067(6)
O13_9 O 0.62391(12) 0.78111(8) 0.7885(4)
O16_9 O 0.57105(14) 0.77627(10) 0.1163(6)
H7_15 H 0.71207 0.897364 0.682551
H8_15 H 0.725407 0.882066 0.810109
S2_16 S 0.42301(3) 0.00776(3) 0.06547(15)
O10_16 O 0.39911(9) 0.01248(11) 0.9886(5)
S1_16 S 0.24155(3) 0.81875(3) 0.23085(15)
O3_16 O 0.22174(9) 0.82661(9) 0.3297(5)
O4_16 O 0.26211(10) 0.81257(11) 0.3314(5)
O11_16 O 0.16613(13) 0.87760(12) 0.2167(7)
C2_16 C 0.26707(11) 0.85414(13) 0.1236(6)
C3_16 C 0.29843(12) 0.87180(14) 0.1719(7)
H1_16 H 0.3050 0.8654 0.2605
C4_16 C 0.31986(14) 0.89849(16) 0.0918(7)
C8_16 C 0.35283(13) 0.91825(15) 0.1471(6)
C9_16 C 0.36766(14) 0.90613(16) 0.2440(8)
H4_16 H 0.3568 0.8849 0.2721
C10_16 C 0.39787(13) 0.92531(16) 0.2976(8)
H5_16 H 0.4063 0.9174 0.3706
C11_16 C 0.41612(13) 0.95628(14) 0.2458(6)
C12_16 C 0.40313(12) 0.96845(14) 0.1462(6)
C13_16 C 0.37108(12) 0.94961(14) 0.1006(7)
H6_16 H 0.3619 0.9586 0.0376
C14_16 C 0.45005(13) 0.97483(13) 0.3067(6)
H7_16 H 0.185294 0.897364 0.182551
H8_16 H 0.156659 0.882066 0.310109
C1_16 C 0.25639(12) 0.86346(13) 0.9934(6)
C5_16 C 0.30990(14) 0.90630(15) 0.9581(7)
H2_16 H 0.3245 0.9233 0.8978
C6_16 C 0.27822(14) 0.88949(14) 0.9083(7)
H3_16 H 0.2719 0.8959 0.8182
C7_16 C 0.22306(12) 0.84718(11) 0.9315(6)
S1_17 S 0.57719(4) 0.75845(3) 0.23085(15)
S2_17 S 0.58474(4) 0.57699(3) 0.06547(15)
O3_17 O 0.60486(13) 0.77826(9) 0.3297(5)
O4_17 O 0.55045(15) 0.73789(10) 0.3314(5)
O11_17 O 0.71146(18) 0.83387(13) 0.2167(7)
C2_17 C 0.58706(17) 0.73293(11) 0.1236(6)
C3_17 C 0.57336(18) 0.70157(12) 0.1719(7)
H1_17 H 0.5603 0.6950 0.2605
C4_17 C 0.57862(21) 0.68014(14) 0.0918(7)
C8_17 C 0.56541(20) 0.64717(13) 0.1471(6)
C9_17 C 0.53846(21) 0.63234(14) 0.2440(8)
H4_17 H 0.5280 0.6432 0.2721
C10_17 C 0.52743(21) 0.60213(13) 0.2976(8)
H5_17 H 0.5110 0.5937 0.3706
C11_17 C 0.54015(19) 0.58388(13) 0.2458(6)
C12_17 C 0.56531(18) 0.59687(12) 0.1462(6)
C13_17 C 0.57852(18) 0.62892(12) 0.1006(7)
H6_17 H 0.5966 0.6381 0.0376
C14_17 C 0.52477(18) 0.54995(13) 0.3067(6)
H7_17 H 0.71207 0.814706 0.182551
H8_17 H 0.725407 0.843341 0.310109
O10_17 O 0.61336(14) 0.60089(9) 0.9886(5)
C1_17 C 0.60706(18) 0.74361(12) 0.9934(6)
C5_17 C 0.59639(21) 0.69010(14) 0.9581(7)
H2_17 H 0.5987 0.6755 0.8978
C6_17 C 0.61126(20) 0.72178(14) 0.9083(7)
H3_17 H 0.6239 0.7281 0.8182
C7_17 C 0.62411(16) 0.77694(12) 0.9315(6)
S1_18 S 0.18125(3) 0.42281(4) 0.23085(15)
O3_18 O 0.17339(9) 0.39514(13) 0.3297(5)
O4_18 O 0.18743(11) 0.44955(15) 0.3314(5)
O11_18 O 0.12240(12) 0.28854(18) 0.2167(7)
C2_18 C 0.14586(13) 0.41294(17) 0.1236(6)
C3_18 C 0.12820(14) 0.42664(18) 0.1719(7)
H1_18 H 0.1346 0.4397 0.2605
C4_18 C 0.10151(16) 0.42138(21) 0.0918(7)
C8_18 C 0.08175(15) 0.43459(20) 0.1471(6)
C9_18 C 0.09387(16) 0.46154(21) 0.2440(8)
H4_18 H 0.1151 0.4720 0.2721
C10_18 C 0.07469(16) 0.47257(21) 0.2976(8)
H5_18 H 0.0826 0.4890 0.3706
C11_18 C 0.04372(14) 0.45985(19) 0.2458(6)
C12_18 C 0.03155(14) 0.43469(18) 0.1462(6)
C13_18 C 0.05039(14) 0.42148(18) 0.1006(7)
H6_18 H 0.0414 0.4034 0.0376
C14_18 C 0.02517(13) 0.47523(18) 0.3067(6)
H7_18 H 0.102636 0.28793 0.182551
H8_18 H 0.117934 0.274593 0.310109
C1_18 C 0.13654(13) 0.39294(18) 0.9934(6)
C5_18 C 0.09370(15) 0.40361(21) 0.9581(7)
H2_18 H 0.0767 0.4013 0.8978
C6_18 C 0.11051(14) 0.38874(20) 0.9083(7)
H3_18 H 0.1041 0.3761 0.8182
C7_18 C 0.15282(11) 0.37589(16) 0.9315(6)
S2_18 S 0.99224(3) 0.41526(4) 0.06547(15)
O10_18 O 0.98752(11) 0.38664(14) 0.9886(5)
loop_
_geom_bond_atom_site_label_1
_geom_bond_atom_site_label_2
_geom_bond_site_symmetry_1
_geom_bond_site_symmetry_2
S1 O3 1_555 1_555
O3 Eu1 1_555 1_555
O4 S1 1_555 1_555
O11 Eu1 1_555 1_555
H1 C3 1_555 1_555
K2 O3 1_555 1_555
O12 Eu1 1_555 1_555
O13 Eu1 1_555 1_555
O17 Eu1 1_555 1_555
O18 Eu1 1_555 1_555
O21 Eu1 1_555 1_555
O4 K2 1_555 1_555
O11 H7 1_555 1_555
O11 H8 1_555 1_555
K2 O2 1_555 1_555
O1 C7 1_555 1_555
O2 C7 1_555 1_555
C1 C2 1_555 1_555
C5 C4 1_555 1_555
H2 C5 1_555 1_555
C6 K2 1_555 1_555
H3 C6 1_555 1_555
C7 C1 1_555 1_555
K3 O5 1_555 1_555
Eu2 O1 1_555 1_555
O16 K2 1_555 1_555
O20 K2 1_555 1_555
O2 Eu2 1_555 1_555
C1 C6 1_555 1_555
C5 C6 1_555 1_555
Eu2 O19 1_555 1_555
O6 C14 1_555 1_555
O7 C14 1_555 1_555
O8 K4 1_555 1_555
H4 C9 1_555 1_555
C10 C9 1_555 1_555
H5 C10 1_555 1_555
C11 C10 1_555 1_555
C14 C11 1_555 1_555
Eu4 O6 1_555 1_555
O7 Eu4 1_555 1_555
O9 S2 1_555 1_555
O10 S2 1_555 1_555
C12 S2 1_555 1_555
C13 C8 1_555 1_555
H6 C13 1_555 1_555
O9 Eu3 1_555 1_555
C12 C13 1_555 1_555
O6_2 C14_2 1_555 1_555
O7_2 C14_2 1_555 1_555
O8_2 K4_2 1_555 1_555
H4_2 C9_2 1_555 1_555
C10_2 C9_2 1_555 1_555
H5_2 C10_2 1_555 1_555
C11_2 C10_2 1_555 1_555
C14_2 C11_2 1_555 1_555
Eu4_2 O6_2 1_555 1_555
O7_2 Eu4_2 1_555 1_555
O9_2 S2_2 1_555 1_555
O10_2 S2_2 1_555 1_555
C12_2 S2_2 1_555 1_555
C13_2 C8_2 1_555 1_555
H6_2 C13_2 1_555 1_555
O9_2 Eu3_2 1_555 1_555
C12_2 C13_2 1_555 1_555
S1_2 O3_2 1_555 1_555
O3_2 Eu1_2 1_555 1_555
O4_2 S1_2 1_555 1_555
O11_2 Eu1_2 1_555 1_555
H1_2 C3_2 1_555 1_555
K2_2 O3_2 1_555 1_555
O12_2 Eu1_2 1_555 1_555
O13_2 Eu1_2 1_555 1_555
O17_2 Eu1_2 1_555 1_555
O18_2 Eu1_2 1_555 1_555
O21_2 Eu1_2 1_555 1_555
O4_2 K2_2 1_555 1_555
O11_2 H7_2 1_555 1_555
O11_2 H8_2 1_555 1_555
K2_2 O2_2 1_555 1_555
O1_2 C7_2 1_555 1_555
O2_2 C7_2 1_555 1_555
C1_2 C2_2 1_555 1_555
C5_2 C4_2 1_555 1_555
H2_2 C5_2 1_555 1_555
C6_2 K2_2 1_555 1_555
H3_2 C6_2 1_555 1_555
C7_2 C1_2 1_555 1_555
K3_2 O5_2 1_555 1_555
Eu2_2 O1_2 1_555 1_555
O16_2 K2_2 1_555 1_555
O20_2 K2_2 1_555 1_555
O2_2 Eu2_2 1_555 1_555
C1_2 C6_2 1_555 1_555
C5_2 C6_2 1_555 1_555
Eu2_2 O19_2 1_555 1_555
S1_3 O3_3 1_555 1_555
O3_3 Eu1_3 1_555 1_555
O4_3 S1_3 1_555 1_555
O6_3 C14_3 1_555 1_555
O7_3 C14_3 1_555 1_555
O8_3 K4_3 1_555 1_555
O11_3 Eu1_3 1_555 1_555
H1_3 C3_3 1_555 1_555
H4_3 C9_3 1_555 1_555
C10_3 C9_3 1_555 1_555
H5_3 C10_3 1_555 1_555
C11_3 C10_3 1_555 1_555
C14_3 C11_3 1_555 1_555
K2_3 O3_3 1_555 1_555
Eu4_3 O6_3 1_555 1_555
O12_3 Eu1_3 1_555 1_555
O13_3 Eu1_3 1_555 1_555
O17_3 Eu1_3 1_555 1_555
O18_3 Eu1_3 1_555 1_555
O21_3 Eu1_3 1_555 1_555
O4_3 K2_3 1_555 1_555
O7_3 Eu4_3 1_555 1_555
O11_3 H7_3 1_555 1_555
O11_3 H8_3 1_555 1_555
K2_3 O2_3 1_555 1_555
O1_3 C7_3 1_555 1_555
O2_3 C7_3 1_555 1_555
O9_3 S2_3 1_555 1_555
O10_3 S2_3 1_555 1_555
C1_3 C2_3 1_555 1_555
C5_3 C4_3 1_555 1_555
H2_3 C5_3 1_555 1_555
C6_3 K2_3 1_555 1_555
H3_3 C6_3 1_555 1_555
C7_3 C1_3 1_555 1_555
C8_3 C4_3 1_555 1_555
C12_3 S2_3 1_555 1_555
C13_3 C8_3 1_555 1_555
H6_3 C13_3 1_555 1_555
K3_3 O5_3 1_555 1_555
Eu2_3 O1_3 1_555 1_555
O16_3 K2_3 1_555 1_555
O20_3 K2_3 1_555 1_555
O2_3 Eu2_3 1_555 1_555
O9_3 Eu3_3 1_555 1_555
C1_3 C6_3 1_555 1_555
C5_3 C6_3 1_555 1_555
C12_3 C13_3 1_555 1_555
Eu2_3 O19_3 1_555 1_555
S2_4 O8_4 1_555 1_555
O6_4 C14_4 1_555 1_555
O7_4 C14_4 1_555 1_555
O8_4 K4_4 1_555 1_555
O9_4 S2_4 1_555 1_555
O10_4 S2_4 1_555 1_555
C9_4 C8_4 1_555 1_555
H4_4 C9_4 1_555 1_555
C10_4 C9_4 1_555 1_555
H5_4 C10_4 1_555 1_555
C11_4 C10_4 1_555 1_555
C12_4 S2_4 1_555 1_555
C13_4 C8_4 1_555 1_555
H6_4 C13_4 1_555 1_555
C14_4 C11_4 1_555 1_555
Eu4_3 O7_4 1_555 1_555
Eu3_3 O6_4 1_555 1_555
O7_4 Eu3_3 1_555 1_555
O9_4 Eu4_3 1_555 1_555
C11_4 C12_4 1_555 1_555
C12_4 C13_4 1_555 1_555
Eu2 O12 1_555 1_555
S1_4 O3_4 1_555 1_555
O12 C7_4 1_555 1_555
O13 C7_4 1_555 1_555
O3_4 Eu2 1_555 1_555
O4_4 S1_4 1_555 1_555
O16 S1_4 1_555 1_555
O11_4 Eu2 1_555 1_555
C1_4 C2_4 1_555 1_555
C2_4 S1_4 1_555 1_555
C3_4 C2_4 1_555 1_555
H1_4 C3_4 1_555 1_555
C4_4 C3_4 1_555 1_555
C5_4 C4_4 1_555 1_555
H2_4 C5_4 1_555 1_555
H3_4 C6_4 1_555 1_555
C7_4 C1_4 1_555 1_555
K3 O3_4 1_555 1_555
O17_4 Eu2 1_555 1_555
O18 Eu2 1_555 1_555
O21_4 Eu2 1_555 1_555
O4_4 K3 1_555 1_555
C1_4 C6_4 1_555 1_555
C5_4 C6_4 1_555 1_555
O11_4 H7_4 1_555 1_555
O11_4 H8_4 1_555 1_555
O20_4 K3 1_555 1_555
Eu2_3 O12_3 1_555 1_555
S1_5 O3_5 1_555 1_555
O12_3 C7_5 1_555 1_555
O13_3 C7_5 1_555 1_555
O3_5 Eu2_3 1_555 1_555
O4_5 S1_5 1_555 1_555
O16_3 S1_5 1_555 1_555
O11_5 Eu2_3 1_555 1_555
C1_5 C2_5 1_555 1_555
C2_5 S1_5 1_555 1_555
C3_5 C2_5 1_555 1_555
H1_5 C3_5 1_555 1_555
C4_5 C3_5 1_555 1_555
C5_5 C4_5 1_555 1_555
H2_5 C5_5 1_555 1_555
H3_5 C6_5 1_555 1_555
C7_5 C1_5 1_555 1_555
K3_3 O3_5 1_555 1_555
O17_5 Eu2_3 1_555 1_555
O18_3 Eu2_3 1_555 1_555
O21_5 Eu2_3 1_555 1_555
O4_5 K3_3 1_555 1_555
C1_5 C6_5 1_555 1_555
C5_5 C6_5 1_555 1_555
O11_5 H7_5 1_555 1_555
O11_5 H8_5 1_555 1_555
O20_5 K3_3 1_555 1_555
S2_5 O8_5 1_555 1_555
O6_5 C14_5 1_555 1_555
O7_5 C14_5 1_555 1_555
O8_5 K4_5 1_555 1_555
O9_5 S2_5 1_555 1_555
O10_5 S2_5 1_555 1_555
C9_5 C8_5 1_555 1_555
H4_5 C9_5 1_555 1_555
C10_5 C9_5 1_555 1_555
H5_5 C10_5 1_555 1_555
C11_5 C10_5 1_555 1_555
C12_5 S2_5 1_555 1_555
C13_5 C8_5 1_555 1_555
H6_5 C13_5 1_555 1_555
C14_5 C11_5 1_555 1_555
Eu4_2 O7_5 1_555 1_555
Eu3_2 O6_5 1_555 1_555
O7_5 Eu3_2 1_555 1_555
O9_5 Eu4_2 1_555 1_555
C11_5 C12_5 1_555 1_555
C12_5 C13_5 1_555 1_555
Eu2_2 O12_2 1_555 1_555
S1_6 O3_6 1_555 1_555
S2_6 O8_6 1_555 1_555
O12_2 C7_6 1_555 1_555
O13_2 C7_6 1_555 1_555
O3_6 Eu2_2 1_555 1_555
O4_6 S1_6 1_555 1_555
O16_2 S1_6 1_555 1_555
O6_6 C14_6 1_555 1_555
O7_6 C14_6 1_555 1_555
O8_6 K4_6 1_555 1_555
O9_6 S2_6 1_555 1_555
O10_6 S2_6 1_555 1_555
O11_6 Eu2_2 1_555 1_555
C1_6 C2_6 1_555 1_555
C2_6 S1_6 1_555 1_555
C3_6 C2_6 1_555 1_555
H1_6 C3_6 1_555 1_555
C4_6 C3_6 1_555 1_555
C5_6 C4_6 1_555 1_555
H2_6 C5_6 1_555 1_555
H3_6 C6_6 1_555 1_555
C7_6 C1_6 1_555 1_555
C8_6 C4_6 1_555 1_555
C9_6 C8_6 1_555 1_555
H4_6 C9_6 1_555 1_555
C10_6 C9_6 1_555 1_555
H5_6 C10_6 1_555 1_555
C11_6 C10_6 1_555 1_555
C12_6 S2_6 1_555 1_555
C13_6 C8_6 1_555 1_555
H6_6 C13_6 1_555 1_555
C14_6 C11_6 1_555 1_555
K3_2 O3_6 1_555 1_555
Eu4 O7_6 1_555 1_555
Eu3 O6_6 1_555 1_555
O17_6 Eu2_2 1_555 1_555
O18_2 Eu2_2 1_555 1_555
O21_6 Eu2_2 1_555 1_555
O4_6 K3_2 1_555 1_555
O7_6 Eu3 1_555 1_555
O9_6 Eu4 1_555 1_555
C1_6 C6_6 1_555 1_555
C5_6 C6_6 1_555 1_555
C11_6 C12_6 1_555 1_555
C12_6 C13_6 1_555 1_555
O11_6 H7_6 1_555 1_555
O11_6 H8_6 1_555 1_555
O20_6 K3_2 1_555 1_555
Eu1_4 O1_4 1_555 1_555
S1_7 O3_7 1_555 1_555
S2_7 O20_3 1_555 1_555
O1_4 C7_7 1_555 1_555
O3_7 Eu1_4 1_555 1_555
O4_7 S1_7 1_555 1_555
O5_4 S1_7 1_555 1_555
O17_5 C14_7 1_555 1_555
O18_3 C14_7 1_555 1_555
O21_3 S2_7 1_555 1_555
O10_7 S2_7 1_555 1_555
O11_7 Eu1_4 1_555 1_555
C1_7 C2_7 1_555 1_555
C2_7 S1_7 1_555 1_555
C3_7 C2_7 1_555 1_555
H1_7 C3_7 1_555 1_555
C4_7 C3_7 1_555 1_555
C5_7 C4_7 1_555 1_555
H2_7 C5_7 1_555 1_555
C7_7 C1_7 1_555 1_555
C8_7 C4_7 1_555 1_555
C9_7 C8_7 1_555 1_555
H4_7 C9_7 1_555 1_555
C10_7 C9_7 1_555 1_555
H5_7 C10_7 1_555 1_555
C11_7 C10_7 1_555 1_555
C12_7 S2_7 1_555 1_555
C13_7 C8_7 1_555 1_555
H6_7 C13_7 1_555 1_555
C14_7 C11_7 1_555 1_555
K2_4 O3_7 1_555 1_555
K3_4 O5_4 1_555 1_555
O12_4 Eu1_4 1_555 1_555
O13_4 Eu1_4 1_555 1_555
O17_7 Eu1_4 1_555 1_555
O18_4 Eu1_4 1_555 1_555
O19_4 Eu1_4 1_555 1_555
O21_7 Eu1_4 1_555 1_555
O4_7 K2_4 1_555 1_555
C1_7 C6_7 1_555 1_555
C5_7 C6_7 1_555 1_555
C11_7 C12_7 1_555 1_555
C12_7 C13_7 1_555 1_555
K3_4 O13_4 1_555 1_555
O11_7 H7_7 1_555 1_555
O11_7 H8_7 1_555 1_555
K2_4 O2_4 1_555 1_555
O16_4 K2_4 1_555 1_555
O20_7 K2_4 1_555 1_555
O2_4 Eu2_4 1_555 1_555
Eu1_5 O1_5 1_555 1_555
S1_8 O3_8 1_555 1_555
S2_8 O20 1_555 1_555
O1_5 C7_8 1_555 1_555
O3_8 Eu1_5 1_555 1_555
O4_8 S1_8 1_555 1_555
O5_5 S1_8 1_555 1_555
O17_4 C14_8 1_555 1_555
O18 C14_8 1_555 1_555
O21 S2_8 1_555 1_555
O10_8 S2_8 1_555 1_555
C1_8 C2_8 1_555 1_555
C2_8 S1_8 1_555 1_555
C3_8 C2_8 1_555 1_555
H1_8 C3_8 1_555 1_555
C4_8 C3_8 1_555 1_555
C5_8 C4_8 1_555 1_555
H2_8 C5_8 1_555 1_555
C7_8 C1_8 1_555 1_555
C8_8 C4_8 1_555 1_555
C9_8 C8_8 1_555 1_555
H4_8 C9_8 1_555 1_555
C10_8 C9_8 1_555 1_555
H5_8 C10_8 1_555 1_555
C11_8 C10_8 1_555 1_555
C12_8 S2_8 1_555 1_555
C13_8 C8_8 1_555 1_555
H6_8 C13_8 1_555 1_555
C14_8 C11_8 1_555 1_555
K2_5 O3_8 1_555 1_555
K3_5 O5_5 1_555 1_555
O12_5 Eu1_5 1_555 1_555
O13_5 Eu1_5 1_555 1_555
O21_8 Eu1_5 1_555 1_555
O4_8 K2_5 1_555 1_555
C1_8 C6_8 1_555 1_555
C5_8 C6_8 1_555 1_555
C11_8 C12_8 1_555 1_555
C12_8 C13_8 1_555 1_555
K3_5 O13_5 1_555 1_555
K2_5 O2_5 1_555 1_555
O16_5 K2_5 1_555 1_555
O20_8 K2_5 1_555 1_555
O2_5 Eu2_5 1_555 1_555
O11_8 H7_8 1_555 1_555
O11_8 H8_8 1_555 1_555
O11_9 H7_9 1_555 1_555
O11_9 H8_9 1_555 1_555
Eu1_6 O1_6 1_555 1_555
S1_9 O3_9 1_555 1_555
S2_9 O20_2 1_555 1_555
O1_6 C7_9 1_555 1_555
O3_9 Eu1_6 1_555 1_555
O4_9 S1_9 1_555 1_555
O5_6 S1_9 1_555 1_555
O17_6 C14_9 1_555 1_555
O18_2 C14_9 1_555 1_555
O21_2 S2_9 1_555 1_555
O10_9 S2_9 1_555 1_555
C1_9 C2_9 1_555 1_555
C2_9 S1_9 1_555 1_555
C3_9 C2_9 1_555 1_555
H1_9 C3_9 1_555 1_555
C4_9 C3_9 1_555 1_555
C5_9 C4_9 1_555 1_555
H2_9 C5_9 1_555 1_555
C7_9 C1_9 1_555 1_555
C8_9 C4_9 1_555 1_555
C9_9 C8_9 1_555 1_555
H4_9 C9_9 1_555 1_555
C10_9 C9_9 1_555 1_555
H5_9 C10_9 1_555 1_555
C11_9 C10_9 1_555 1_555
C12_9 S2_9 1_555 1_555
C13_9 C8_9 1_555 1_555
H6_9 C13_9 1_555 1_555
C14_9 C11_9 1_555 1_555
K2_6 O3_9 1_555 1_555
K3_6 O5_6 1_555 1_555
O12_6 Eu1_6 1_555 1_555
O13_6 Eu1_6 1_555 1_555
O21_9 Eu1_6 1_555 1_555
O4_9 K2_6 1_555 1_555
C1_9 C6_9 1_555 1_555
C5_9 C6_9 1_555 1_555
C11_9 C12_9 1_555 1_555
C12_9 C13_9 1_555 1_555
K3_6 O13_6 1_555 1_555
K2_6 O2_6 1_555 1_555
O16_6 K2_6 1_555 1_555
O20_9 K2_6 1_555 1_555
O2_6 Eu2_6 1_555 1_555
Eu2_4 O12_4 1_555 1_555
S1_10 O3_10 1_555 1_555
S2_10 O20_6 1_555 1_555
O12_4 C7_10 1_555 1_555
O13_4 C7_10 1_555 1_555
O3_10 Eu2_4 1_555 1_555
O4_10 S1_10 1_555 1_555
O16_4 S1_10 1_555 1_555
O19_2 C14_10 1_555 1_555
O21_6 S2_10 1_555 1_555
O10_10 S2_10 1_555 1_555
O11_10 Eu2_4 1_555 1_555
C1_10 C2_10 1_555 1_555
C2_10 S1_10 1_555 1_555
C3_10 C2_10 1_555 1_555
H1_10 C3_10 1_555 1_555
C4_10 C3_10 1_555 1_555
C5_10 C4_10 1_555 1_555
H2_10 C5_10 1_555 1_555
C6_10 K3_4 1_555 1_555
H3_10 C6_10 1_555 1_555
C7_10 C1_10 1_555 1_555
C8_10 C4_10 1_555 1_555
C9_10 C8_10 1_555 1_555
H4_10 C9_10 1_555 1_555
C10_10 C9_10 1_555 1_555
C11_10 C10_10 1_555 1_555
C12_10 S2_10 1_555 1_555
C13_10 C8_10 1_555 1_555
H6_10 C13_10 1_555 1_555
C14_10 C11_10 1_555 1_555
O17_10 Eu2_4 1_555 1_555
O18_4 Eu2_4 1_555 1_555
O20_10 K3_4 1_555 1_555
O21_10 Eu2_4 1_555 1_555
C1_10 C6_10 1_555 1_555
C5_10 C6_10 1_555 1_555
C11_10 C12_10 1_555 1_555
C12_10 C13_10 1_555 1_555
O11_10 H7_10 1_555 1_555
O11_10 H8_10 1_555 1_555
O11_11 H7_11 1_555 1_555
O11_11 H8_11 1_555 1_555
Eu2_6 O12_6 1_555 1_555
S1_11 O3_11 1_555 1_555
S2_11 O20_4 1_555 1_555
O12_6 C7_11 1_555 1_555
O13_6 C7_11 1_555 1_555
O3_11 Eu2_6 1_555 1_555
O4_11 S1_11 1_555 1_555
O16_6 S1_11 1_555 1_555
O19 C14_11 1_555 1_555
O21_4 S2_11 1_555 1_555
O10_11 S2_11 1_555 1_555
C1_11 C2_11 1_555 1_555
C2_11 S1_11 1_555 1_555
C3_11 C2_11 1_555 1_555
H1_11 C3_11 1_555 1_555
C4_11 C3_11 1_555 1_555
C5_11 C4_11 1_555 1_555
H2_11 C5_11 1_555 1_555
C6_11 K3_6 1_555 1_555
H3_11 C6_11 1_555 1_555
C7_11 C1_11 1_555 1_555
C8_11 C4_11 1_555 1_555
C9_11 C8_11 1_555 1_555
H4_11 C9_11 1_555 1_555
C10_11 C9_11 1_555 1_555
C11_11 C10_11 1_555 1_555
C12_11 S2_11 1_555 1_555
C13_11 C8_11 1_555 1_555
H6_11 C13_11 1_555 1_555
C14_11 C11_11 1_555 1_555
O20_11 K3_6 1_555 1_555
O21_11 Eu2_6 1_555 1_555
C1_11 C6_11 1_555 1_555
C5_11 C6_11 1_555 1_555
C11_11 C12_11 1_555 1_555
C12_11 C13_11 1_555 1_555
Eu2_5 O12_5 1_555 1_555
S1_12 O3_12 1_555 1_555
S2_12 O20_5 1_555 1_555
O12_5 C7_12 1_555 1_555
O13_5 C7_12 1_555 1_555
O3_12 Eu2_5 1_555 1_555
O4_12 S1_12 1_555 1_555
O16_5 S1_12 1_555 1_555
O19_3 C14_12 1_555 1_555
O21_5 S2_12 1_555 1_555
O10_12 S2_12 1_555 1_555
C1_12 C2_12 1_555 1_555
C2_12 S1_12 1_555 1_555
C3_12 C2_12 1_555 1_555
H1_12 C3_12 1_555 1_555
C4_12 C3_12 1_555 1_555
C5_12 C4_12 1_555 1_555
H2_12 C5_12 1_555 1_555
C6_12 K3_5 1_555 1_555
H3_12 C6_12 1_555 1_555
C7_12 C1_12 1_555 1_555
C8_12 C4_12 1_555 1_555
C9_12 C8_12 1_555 1_555
H4_12 C9_12 1_555 1_555
C10_12 C9_12 1_555 1_555
C11_12 C10_12 1_555 1_555
C12_12 S2_12 1_555 1_555
C13_12 C8_12 1_555 1_555
H6_12 C13_12 1_555 1_555
C14_12 C11_12 1_555 1_555
O20_12 K3_5 1_555 1_555
O21_12 Eu2_5 1_555 1_555
C1_12 C6_12 1_555 1_555
C5_12 C6_12 1_555 1_555
C11_12 C12_12 1_555 1_555
C12_12 C13_12 1_555 1_555
O11_12 H7_12 1_555 1_555
O11_12 H8_12 1_555 1_555
K4_2 O2_7 1_555 1_555
Eu3_2 O1_7 1_555 1_555
S1_13 O3_13 1_555 1_555
O1_7 C7_13 1_555 1_555
O2_7 C7_13 1_555 1_555
O3_13 Eu3_2 1_555 1_555
O4_13 S1_13 1_555 1_555
O5_7 S1_13 1_555 1_555
O17_11 C14_13 1_555 1_555
O18_6 C14_13 1_555 1_555
O11_13 Eu3_2 1_555 1_555
C1_13 C2_13 1_555 1_555
C2_13 S1_13 1_555 1_555
C3_13 C2_13 1_555 1_555
H1_13 C3_13 1_555 1_555
C4_13 C3_13 1_555 1_555
C5_13 C4_13 1_555 1_555
H2_13 C5_13 1_555 1_555
C6_13 K4_2 1_555 1_555
H3_13 C6_13 1_555 1_555
C7_13 C1_13 1_555 1_555
C8_13 C4_13 1_555 1_555
C9_13 C8_13 1_555 1_555
H4_13 C9_13 1_555 1_555
C10_13 C9_13 1_555 1_555
H5_13 C10_13 1_555 1_555
C11_13 C10_13 1_555 1_555
C13_13 C8_13 1_555 1_555
H6_13 C13_13 1_555 1_555
C14_13 C11_13 1_555 1_555
K4_5 O5_7 1_555 1_555
Eu4_2 O1_7 1_555 1_555
O13_7 Eu3_2 1_555 1_555
O16_7 K4_2 1_555 1_555
O2_7 Eu4_2 1_555 1_555
C1_13 C6_13 1_555 1_555
C5_13 C6_13 1_555 1_555
C11_13 C12_13 1_555 1_555
C12_13 C13_13 1_555 1_555
K4_5 O13_7 1_555 1_555
O11_13 H7_13 1_555 1_555
O11_13 H8_13 1_555 1_555
S2_13 O20_9 1_555 1_555
O21_9 S2_13 1_555 1_555
O10_13 S2_13 1_555 1_555
K4_3 O2_8 1_555 1_555
Eu3_3 O1_8 1_555 1_555
S1_14 O3_14 1_555 1_555
S2_14 O20_7 1_555 1_555
O1_8 C7_14 1_555 1_555
O2_8 C7_14 1_555 1_555
O3_14 Eu3_3 1_555 1_555
O4_14 S1_14 1_555 1_555
O5_8 S1_14 1_555 1_555
O17_10 C14_14 1_555 1_555
O18_4 C14_14 1_555 1_555
O21_7 S2_14 1_555 1_555
O10_14 S2_14 1_555 1_555
O11_14 Eu3_3 1_555 1_555
C1_14 C2_14 1_555 1_555
C2_14 S1_14 1_555 1_555
C3_14 C2_14 1_555 1_555
H1_14 C3_14 1_555 1_555
C4_14 C3_14 1_555 1_555
C5_14 C4_14 1_555 1_555
H2_14 C5_14 1_555 1_555
C6_14 K4_3 1_555 1_555
H3_14 C6_14 1_555 1_555
C7_14 C1_14 1_555 1_555
C8_14 C4_14 1_555 1_555
C9_14 C8_14 1_555 1_555
H4_14 C9_14 1_555 1_555
C10_14 C9_14 1_555 1_555
H5_14 C10_14 1_555 1_555
C11_14 C10_14 1_555 1_555
C12_14 S2_14 1_555 1_555
C13_14 C8_14 1_555 1_555
H6_14 C13_14 1_555 1_555
C14_14 C11_14 1_555 1_555
K4_4 O5_8 1_555 1_555
Eu4_3 O1_8 1_555 1_555
O13_8 Eu3_3 1_555 1_555
O16_8 K4_3 1_555 1_555
O2_8 Eu4_3 1_555 1_555
C1_14 C6_14 1_555 1_555
C5_14 C6_14 1_555 1_555
C11_14 C12_14 1_555 1_555
C12_14 C13_14 1_555 1_555
K4_4 O13_8 1_555 1_555
O11_14 H7_14 1_555 1_555
O11_14 H8_14 1_555 1_555
S2_15 O20_8 1_555 1_555
O21_8 S2_15 1_555 1_555
O10_15 S2_15 1_555 1_555
K4 O2_9 1_555 1_555
Eu3 O1_9 1_555 1_555
S1_15 O3_15 1_555 1_555
O1_9 C7_15 1_555 1_555
O2_9 C7_15 1_555 1_555
O3_15 Eu3 1_555 1_555
O4_15 S1_15 1_555 1_555
O5_9 S1_15 1_555 1_555
O17_12 C14_15 1_555 1_555
O18_5 C14_15 1_555 1_555
O11_15 Eu3 1_555 1_555
C1_15 C2_15 1_555 1_555
C2_15 S1_15 1_555 1_555
C3_15 C2_15 1_555 1_555
H1_15 C3_15 1_555 1_555
C4_15 C3_15 1_555 1_555
C5_15 C4_15 1_555 1_555
H2_15 C5_15 1_555 1_555
C6_15 K4 1_555 1_555
H3_15 C6_15 1_555 1_555
C7_15 C1_15 1_555 1_555
C8_15 C4_15 1_555 1_555
C9_15 C8_15 1_555 1_555
H4_15 C9_15 1_555 1_555
C10_15 C9_15 1_555 1_555
H5_15 C10_15 1_555 1_555
C11_15 C10_15 1_555 1_555
C13_15 C8_15 1_555 1_555
H6_15 C13_15 1_555 1_555
C14_15 C11_15 1_555 1_555
K4_6 O5_9 1_555 1_555
Eu4 O1_9 1_555 1_555
O13_9 Eu3 1_555 1_555
O16_9 K4 1_555 1_555
O2_9 Eu4 1_555 1_555
C1_15 C6_15 1_555 1_555
C5_15 C6_15 1_555 1_555
C11_15 C12_15 1_555 1_555
C12_15 C13_15 1_555 1_555
K4_6 O13_9 1_555 1_555
O11_15 H7_15 1_555 1_555
O11_15 H8_15 1_555 1_555
S2_16 O20_12 1_555 1_555
Eu4_2 O12_7 1_555 1_555
S1_16 O3_16 1_555 1_555
O3_16 Eu4_2 1_555 1_555
O4_16 S1_16 1_555 1_555
O16_7 S1_16 1_555 1_555
O17_8 C14_16 1_555 1_555
O19_5 C14_16 1_555 1_555
O11_16 Eu4_2 1_555 1_555
C2_16 S1_16 1_555 1_555
C3_16 C2_16 1_555 1_555
H1_16 C3_16 1_555 1_555
C4_16 C3_16 1_555 1_555
C8_16 C4_16 1_555 1_555
C9_16 C8_16 1_555 1_555
H4_16 C9_16 1_555 1_555
C10_16 C9_16 1_555 1_555
H5_16 C10_16 1_555 1_555
C11_16 C10_16 1_555 1_555
C13_16 C8_16 1_555 1_555
H6_16 C13_16 1_555 1_555
C14_16 C11_16 1_555 1_555
K4_5 O3_16 1_555 1_555
O4_16 K4_5 1_555 1_555
C11_16 C12_16 1_555 1_555
C12_16 C13_16 1_555 1_555
O11_16 H7_16 1_555 1_555
O11_16 H8_16 1_555 1_555
O13_7 C7_16 1_555 1_555
H2_16 C5_16 1_555 1_555
C6_16 K4_5 1_555 1_555
H3_16 C6_16 1_555 1_555
C7_16 C1_16 1_555 1_555
C1_16 C6_16 1_555 1_555
C5_16 C6_16 1_555 1_555
Eu4 O12_9 1_555 1_555
S1_17 O3_17 1_555 1_555
S2_17 O20_10 1_555 1_555
O3_17 Eu4 1_555 1_555
O4_17 S1_17 1_555 1_555
O16_9 S1_17 1_555 1_555
O17_7 C14_17 1_555 1_555
O19_4 C14_17 1_555 1_555
O11_17 Eu4 1_555 1_555
C2_17 S1_17 1_555 1_555
C3_17 C2_17 1_555 1_555
H1_17 C3_17 1_555 1_555
C4_17 C3_17 1_555 1_555
C8_17 C4_17 1_555 1_555
C9_17 C8_17 1_555 1_555
H4_17 C9_17 1_555 1_555
C10_17 C9_17 1_555 1_555
H5_17 C10_17 1_555 1_555
C11_17 C10_17 1_555 1_555
C12_17 S2_17 1_555 1_555
C13_17 C8_17 1_555 1_555
H6_17 C13_17 1_555 1_555
C14_17 C11_17 1_555 1_555
K4_6 O3_17 1_555 1_555
O4_17 K4_6 1_555 1_555
C11_17 C12_17 1_555 1_555
C12_17 C13_17 1_555 1_555
O11_17 H7_17 1_555 1_555
O11_17 H8_17 1_555 1_555
O13_9 C7_17 1_555 1_555
H2_17 C5_17 1_555 1_555
C6_17 K4_6 1_555 1_555
H3_17 C6_17 1_555 1_555
C7_17 C1_17 1_555 1_555
C1_17 C6_17 1_555 1_555
C5_17 C6_17 1_555 1_555
Eu4_3 O12_8 1_555 1_555
S1_18 O3_18 1_555 1_555
O3_18 Eu4_3 1_555 1_555
O4_18 S1_18 1_555 1_555
O16_8 S1_18 1_555 1_555
O17_9 C14_18 1_555 1_555
O19_6 C14_18 1_555 1_555
O11_18 Eu4_3 1_555 1_555
C2_18 S1_18 1_555 1_555
C3_18 C2_18 1_555 1_555
H1_18 C3_18 1_555 1_555
C4_18 C3_18 1_555 1_555
C8_18 C4_18 1_555 1_555
C9_18 C8_18 1_555 1_555
H4_18 C9_18 1_555 1_555
C10_18 C9_18 1_555 1_555
H5_18 C10_18 1_555 1_555
C11_18 C10_18 1_555 1_555
C13_18 C8_18 1_555 1_555
H6_18 C13_18 1_555 1_555
C14_18 C11_18 1_555 1_555
K4_4 O3_18 1_555 1_555
O4_18 K4_4 1_555 1_555
C11_18 C12_18 1_555 1_555
C12_18 C13_18 1_555 1_555
O11_18 H7_18 1_555 1_555
O11_18 H8_18 1_555 1_555
O13_8 C7_18 1_555 1_555
H2_18 C5_18 1_555 1_555
C6_18 K4_4 1_555 1_555
H3_18 C6_18 1_555 1_555
C7_18 C1_18 1_555 1_555
C1_18 C6_18 1_555 1_555
C5_18 C6_18 1_555 1_555
S2_18 O20_11 1_555 1_555

#END
