
###############################################################################
#
# This file contains modified crystal structure data generated from the
# MOF subset of the Cambridge Structural Database (CSD) v543 
# hosted by the Cambridge Crystallographic Data Centre (CCDC).
#
# This work is licensed under the Creative Commons
# Attribution-NonCommercial-ShareAlike 4.0 International License.
# To view a copy of this license, visit
# http://creativecommons.org/licenses/by-nc-sa/4.0/
# or send a letter to
# Creative Commons, PO Box 1866, Mountain View, CA 94042, USA.
#
# CIF created using the CSD Python API on 29 September 2022
# The structure has been converted into the P1 space group
# The structure has a 3D framework
# The original CSD entry IKOVEL is in the rhombohedral crystal system
# The framework has been calculated to contain at least 10.0% void space
# The void calculation uses a probe of radius 1.32A, grid spacing 0.4
# H atom positions have been added when not included in the experimental data
#
###############################################################################

data_IKOVEL
_chemical_formula_moiety         '(C306 H270 K18 N18 O207 Pr18 S36)n'
_symmetry_cell_setting           triclinic
_symmetry_space_group_name_H-M   'P 1'
_symmetry_Int_Tables_number      1
_space_group_name_Hall           'P 1'
loop_
_symmetry_equiv_pos_site_id
_symmetry_equiv_pos_as_xyz
1 x,y,z
_cell_length_a                   48.884(2)
_cell_length_b                   48.884(2)
_cell_length_c                   8.5632(6)
_cell_angle_alpha                90
_cell_angle_beta                 90
_cell_angle_gamma                120
_cell_volume                     17721.5
loop_
_atom_site_label
_atom_site_type_symbol
_atom_site_fract_x
_atom_site_fract_y
_atom_site_fract_z
Pr1 Pr 0.51478(2) 0.00956(2) 0.45095(4)
S1 S 0.57690(3) 0.09194(4) 0.39234(18)
S2 S 0.75601(3) 0.08047(3) 0.23701(17)
O1 O 0.53509(10) 0.02976(11) 0.1906(5)
O3 O 0.55723(10) 0.06459(10) 0.4926(5)
O4 O 0.59792(11) 0.11928(12) 0.4916(6)
O5 O 0.55890(12) 0.09765(13) 0.2785(7)
O6 O 0.78779(10) 0.14602(11) 0.6210(5)
O7 O 0.80636(10) 0.14848(11) 0.3838(5)
O8 O 0.77202(12) 0.07590(13) 0.3681(6)
O9 O 0.77761(9) 0.10265(10) 0.1221(5)
O10 O 0.73248(11) 0.05192(11) 0.1667(6)
C1 C 0.59147(14) 0.06200(15) 0.1574(7)
C2 C 0.60164(12) 0.08104(15) 0.2898(7)
C3 C 0.63274(14) 0.09456(17) 0.3385(7)
H1 H 0.6392 0.1074 0.4265
C4 C 0.65483(15) 0.08929(19) 0.2575(8)
C5 C 0.64461(16) 0.0714(2) 0.1228(8)
H2 H 0.6589 0.0683 0.0647
C6 C 0.61331(15) 0.05798(19) 0.0715(8)
C7 C 0.55809(13) 0.04502(14) 0.0993(6)
C8 C 0.68770(15) 0.10228(18) 0.3125(8)
C9 C 0.70185(16) 0.1281(2) 0.4125(9)
H4 H 0.6908 0.1380 0.4450
C10 C 0.73259(15) 0.13914(19) 0.4639(9)
H5 H 0.7415 0.1560 0.5333
C11 C 0.75007(15) 0.12618(16) 0.4164(7)
C12 C 0.73595(14) 0.09983(15) 0.3126(7)
C13 C 0.70517(14) 0.08814(17) 0.2673(8)
H6 H 0.6956 0.0702 0.2044
C14 C 0.78321(14) 0.14083(14) 0.4782(7)
K2 K 0.59219(5) 0.08755(5) 0.7590(2)
K3 K 0.49536(7) 0.08755(5) 0.2590(2)
K4 K 0.82869(7) 0.07448(5) 0.4257(2)
Pr3 Pr 0.82811(3) 0.15189(2) 0.11762(4)
Pr4 Pr 0.84811(2) 0.17189(3) 0.61762(4)
O13 O 0.49467(15) 0.02976(11) 0.6906(5)
O14 O 0.49164(13) 0.04554(10) 0.4542(5)
O22 O 0.56402(10) 0.00829(13) 0.4554(5)
O2 O 0.55390(9) 0.04554(10) 0.9542(5)
H3 H 0.6071 0.0463 0.9795
O12 O 0.6540(8) 0.1331(8) 0.766(4)
Pr2 Pr 0.49478(3) 0.00956(2) 0.95095(4)
O17 O 0.53875(18) 0.09765(13) 0.7785(7)
O21 O 0.59077(13) 0.02945(18) 0.7014(6)
H13 H 0.667225 0.123246 0.784332
H14 H 0.659908 0.144504 0.664674
O11 O 0.50010(15) 0.95599(15) 0.3831(7)
C15 C 0.5030(6) 0.9397(6) 0.308(3)
N1 N 0.4876(4) 0.9063(4) 0.3143(19)
C16 C 0.4688(6) 0.8959(7) 0.452(3)
C17 C 0.5007(10) 0.8868(10) 0.266(5)
O18 O 0.45446(10) 0.97510(15) 0.4543(5)
O19 O 0.51819(11) 0.99121(15) 0.7171(5)
O20 O 0.47303(10) 0.99121(15) 0.2171(5)
H7 H 0.451355 0.90354 0.448834
H8 H 0.456796 0.870228 0.458462
H9 H 0.483866 0.905976 0.55405
H10 H 0.521792 0.892961 0.334358
H11 H 0.483302 0.862023 0.284729
H12 H 0.506849 0.890763 0.142619
H15 H 0.52022 0.950622 0.214453
O11_2 O 0.04401(15) 0.54411(21) 0.3831(7)
C15_2 C 0.0603(6) 0.5633(8) 0.308(3)
N1_2 N 0.0937(4) 0.5813(6) 0.3143(19)
C16_2 C 0.1041(7) 0.5729(9) 0.452(3)
C17_2 C 0.1132(10) 0.6139(14) 0.266(5)
O18_2 O 0.02490(15) 0.47935(18) 0.4543(5)
O19_2 O 0.00879(15) 0.52697(19) 0.7171(5)
O20_2 O 0.00879(15) 0.48181(18) 0.2171(5)
H7_2 H 0.09646 0.547815 0.448834
H8_2 H 0.129772 0.586568 0.458462
H9_2 H 0.094024 0.57789 0.55405
H10_2 H 0.107039 0.628831 0.334358
H11_2 H 0.137977 0.621279 0.284729
H12_2 H 0.109237 0.616086 0.142619
H15_2 H 0.0493783 0.569598 0.214453
Pr1_2 Pr 0.99044(2) 0.50522(3) 0.45095(4)
S1_2 S 0.90806(4) 0.48496(5) 0.39234(18)
S2_2 S 0.91953(3) 0.67554(4) 0.23701(17)
O1_2 O 0.97024(11) 0.50533(15) 0.1906(5)
O3_2 O 0.93541(10) 0.49264(14) 0.4926(5)
O4_2 O 0.88072(12) 0.47864(16) 0.4916(6)
O5_2 O 0.90235(13) 0.46125(18) 0.2785(7)
O6_2 O 0.85398(11) 0.64177(15) 0.6210(5)
O7_2 O 0.85152(11) 0.65788(15) 0.3838(5)
O8_2 O 0.92410(13) 0.69612(18) 0.3681(6)
O9_2 O 0.89735(10) 0.67496(13) 0.1221(5)
O10_2 O 0.94808(11) 0.68056(16) 0.1667(6)
C1_2 C 0.93800(15) 0.52947(21) 0.1574(7)
C2_2 C 0.91896(15) 0.52060(19) 0.2898(7)
C3_2 C 0.90544(17) 0.53818(22) 0.3385(7)
H1_2 H 0.8926 0.5318 0.4265
C4_2 C 0.91071(19) 0.56554(24) 0.2575(8)
C5_2 C 0.9286(2) 0.57321(26) 0.1228(8)
H2_2 H 0.9317 0.5906 0.0647
C6_2 C 0.94202(19) 0.55533(24) 0.0715(8)
C7_2 C 0.95498(14) 0.51307(19) 0.0993(6)
C8_2 C 0.89772(18) 0.58542(23) 0.3125(8)
C9_2 C 0.8719(2) 0.57375(26) 0.4125(9)
H4_2 H 0.8620 0.5528 0.4450
C10_2 C 0.86086(19) 0.59345(24) 0.4639(9)
H5_2 H 0.8440 0.5855 0.5333
C11_2 C 0.87382(16) 0.62389(22) 0.4164(7)
C12_2 C 0.90017(15) 0.63612(21) 0.3126(7)
C13_2 C 0.91186(17) 0.61703(22) 0.2673(8)
H6_2 H 0.9298 0.6254 0.2044
C14_2 C 0.85917(14) 0.64238(20) 0.4782(7)
K2_2 K 0.91245(5) 0.50464(7) 0.7590(2)
K3_2 K 0.91245(5) 0.40781(9) 0.2590(2)
K4_2 K 0.92552(5) 0.75422(9) 0.4257(2)
Pr3_2 Pr 0.84811(2) 0.67623(4) 0.11762(4)
Pr4_2 Pr 0.82811(3) 0.67623(4) 0.61762(4)
O13_2 O 0.97024(11) 0.46491(19) 0.6906(5)
O14_2 O 0.95446(10) 0.44610(16) 0.4542(5)
O22_2 O 0.99171(13) 0.55572(16) 0.4554(5)
O2_2 O 0.95446(10) 0.50836(13) 0.9542(5)
H3_2 H 0.9537 0.5608 0.9795
O12_2 O 0.8669(8) 0.5209(11) 0.766(4)
Pr2_2 Pr 0.99044(2) 0.48522(4) 0.95095(4)
O17_2 O 0.90235(13) 0.44110(22) 0.7785(7)
O21_2 O 0.97055(18) 0.56131(22) 0.7014(6)
H13_2 H 0.876754 0.543979 0.784332
H14_2 H 0.855496 0.515404 0.664674
Pr1_3 Pr 0.49478(3) 0.48522(2) 0.45095(4)
S1_3 S 0.51504(5) 0.42310(3) 0.39234(18)
S2_3 S 0.32446(4) 0.24399(3) 0.23701(17)
O1_3 O 0.49467(15) 0.46491(10) 0.1906(5)
O3_3 O 0.50736(14) 0.44277(10) 0.4926(5)
O4_3 O 0.52136(16) 0.40208(11) 0.4916(6)
O5_3 O 0.53875(18) 0.44110(12) 0.2785(7)
O6_3 O 0.35823(15) 0.21221(10) 0.6210(5)
O7_3 O 0.34212(15) 0.19364(10) 0.3838(5)
O8_3 O 0.30388(18) 0.22798(12) 0.3681(6)
O9_3 O 0.32504(13) 0.22239(9) 0.1221(5)
O10_3 O 0.31944(16) 0.26752(11) 0.1667(6)
C1_3 C 0.47053(21) 0.40853(14) 0.1574(7)
C2_3 C 0.47940(19) 0.39836(12) 0.2898(7)
C3_3 C 0.46182(22) 0.36726(14) 0.3385(7)
H1_3 H 0.4682 0.3608 0.4265
C4_3 C 0.43446(24) 0.34517(15) 0.2575(8)
C5_3 C 0.42679(26) 0.35539(16) 0.1228(8)
H2_3 H 0.4094 0.3411 0.0647
C6_3 C 0.44467(24) 0.38669(15) 0.0715(8)
C7_3 C 0.48693(19) 0.44191(13) 0.0993(6)
C8_3 C 0.41458(23) 0.31230(15) 0.3125(8)
C9_3 C 0.42625(26) 0.29815(16) 0.4125(9)
H4_3 H 0.4472 0.3092 0.4450
C10_3 C 0.40655(24) 0.26741(15) 0.4639(9)
H5_3 H 0.4145 0.2585 0.5333
C11_3 C 0.37611(22) 0.24993(15) 0.4164(7)
C12_3 C 0.36388(21) 0.26405(14) 0.3126(7)
C13_3 C 0.38297(22) 0.29483(14) 0.2673(8)
H6_3 H 0.3746 0.3044 0.2044
C14_3 C 0.35762(20) 0.21679(14) 0.4782(7)
O11_3 O 0.45589(21) 0.49990(15) 0.3831(7)
C15_3 C 0.4367(8) 0.4970(6) 0.308(3)
N1_3 N 0.4187(6) 0.5124(4) 0.3143(19)
C16_3 C 0.4271(9) 0.5312(6) 0.452(3)
C17_3 C 0.3861(14) 0.4993(10) 0.266(5)
K2_3 K 0.49536(7) 0.40781(5) 0.7590(2)
K3_3 K 0.59219(9) 0.50464(7) 0.2590(2)
K4_3 K 0.24578(9) 0.17131(7) 0.4257(2)
Pr3_3 Pr 0.32377(4) 0.17189(3) 0.11762(4)
Pr4_3 Pr 0.32377(4) 0.15189(2) 0.61762(4)
O13_3 O 0.53509(19) 0.50533(15) 0.6906(5)
O14_3 O 0.55390(16) 0.50836(13) 0.4542(5)
O18_3 O 0.52065(18) 0.54554(10) 0.4543(5)
O19_3 O 0.47303(19) 0.48181(11) 0.7171(5)
O20_3 O 0.51819(18) 0.52697(10) 0.2171(5)
O22_3 O 0.44428(16) 0.43598(10) 0.4554(5)
H7_3 H 0.452185 0.548645 0.448834
H8_3 H 0.413432 0.543204 0.458462
H9_3 H 0.42211 0.516134 0.55405
H10_3 H 0.371169 0.478208 0.334358
H11_3 H 0.378721 0.516698 0.284729
H12_3 H 0.383914 0.493151 0.142619
H15_3 H 0.430402 0.47978 0.214453
O2_3 O 0.49164(13) 0.44610(9) 0.9542(5)
H3_3 H 0.4392 0.3929 0.9795
O12_3 O 0.4791(11) 0.3460(8) 0.766(4)
Pr2_3 Pr 0.51478(4) 0.50522(3) 0.95095(4)
O17_3 O 0.55890(22) 0.46125(18) 0.7785(7)
O21_3 O 0.43869(22) 0.40923(13) 0.7014(6)
H13_3 H 0.456021 0.332775 0.784332
H14_3 H 0.484596 0.340092 0.664674
H9_4 H 0.094024 0.516134 0.0540498
O11_4 O 0.04401(15) 0.49990(15) 0.8831(7)
C15_4 C 0.0603(6) 0.4970(6) 0.808(3)
N1_4 N 0.0937(4) 0.5124(4) 0.8143(19)
C16_4 C 0.1041(7) 0.5312(6) 0.952(3)
C17_4 C 0.1132(10) 0.4993(10) 0.766(5)
O18_4 O 0.02490(15) 0.54554(10) 0.9543(5)
H7_4 H 0.09646 0.548645 0.948834
H8_4 H 0.129772 0.543204 0.958462
H10_4 H 0.107039 0.478208 0.834358
H11_4 H 0.137977 0.516698 0.784729
H12_4 H 0.109237 0.493151 0.642619
H15_4 H 0.0493783 0.47978 0.714453
O6_4 O 0.85398(11) 0.21221(10) 0.1210(5)
H5_4 H 0.8440 0.2585 0.0333
S1_4 S 0.90806(4) 0.42310(3) 0.89234(18)
S2_4 S 0.91953(3) 0.24399(3) 0.73701(17)
O3_4 O 0.93541(10) 0.44277(10) 0.9926(5)
O4_4 O 0.88072(12) 0.40208(11) 0.9916(6)
O7_4 O 0.85152(11) 0.19364(10) 0.8838(5)
O8_4 O 0.92410(13) 0.22798(12) 0.8681(6)
O9_4 O 0.89735(10) 0.22239(9) 0.6221(5)
O10_4 O 0.94808(11) 0.26752(11) 0.6667(6)
C1_4 C 0.93800(15) 0.40853(14) 0.6574(7)
C2_4 C 0.91896(15) 0.39836(12) 0.7898(7)
C3_4 C 0.90544(17) 0.36726(14) 0.8385(7)
H1_4 H 0.8926 0.3608 0.9265
C4_4 C 0.91071(19) 0.34517(15) 0.7575(8)
C5_4 C 0.9286(2) 0.35539(16) 0.6228(8)
H2_4 H 0.9317 0.3411 0.5647
C6_4 C 0.94202(19) 0.38669(15) 0.5715(8)
H3_4 H 0.9537 0.3929 0.4795
C7_4 C 0.95498(14) 0.44191(13) 0.5993(6)
C8_4 C 0.89772(18) 0.31230(15) 0.8125(8)
C9_4 C 0.8719(2) 0.29815(16) 0.9125(9)
H4_4 H 0.8620 0.3092 0.9450
C10_4 C 0.86086(19) 0.26741(15) 0.9639(9)
C11_4 C 0.87382(16) 0.24993(15) 0.9164(7)
C12_4 C 0.90017(15) 0.26405(14) 0.8126(7)
C13_4 C 0.91186(17) 0.29483(14) 0.7673(8)
H6_4 H 0.9298 0.3044 0.7044
C14_4 C 0.85917(14) 0.21679(14) 0.9782(7)
O12_4 O 0.8669(8) 0.3460(8) 0.266(4)
K4_4 K 0.92552(5) 0.17131(7) 0.9257(2)
O21_4 O 0.97055(18) 0.40923(13) 0.2014(6)
O22_4 O 0.99171(13) 0.43598(10) 0.9554(5)
H13_4 H 0.876754 0.332775 0.284332
H14_4 H 0.855496 0.340092 0.164674
O6_5 O 0.35823(15) 0.14602(11) 0.1210(5)
H5_5 H 0.4145 0.1560 0.0333
S1_5 S 0.51504(5) 0.09194(4) 0.89234(18)
S2_5 S 0.32446(4) 0.08047(3) 0.73701(17)
O3_5 O 0.50736(14) 0.06459(10) 0.9926(5)
O4_5 O 0.52136(16) 0.11928(12) 0.9916(6)
O7_5 O 0.34212(15) 0.14848(11) 0.8838(5)
O8_5 O 0.30388(18) 0.07590(13) 0.8681(6)
O9_5 O 0.32504(13) 0.10265(10) 0.6221(5)
O10_5 O 0.31944(16) 0.05192(11) 0.6667(6)
C1_5 C 0.47053(21) 0.06200(15) 0.6574(7)
C2_5 C 0.47940(19) 0.08104(15) 0.7898(7)
C3_5 C 0.46182(22) 0.09456(17) 0.8385(7)
H1_5 H 0.4682 0.1074 0.9265
C4_5 C 0.43446(24) 0.08929(19) 0.7575(8)
C5_5 C 0.42679(26) 0.0714(2) 0.6228(8)
H2_5 H 0.4094 0.0683 0.5647
C6_5 C 0.44467(24) 0.05798(19) 0.5715(8)
H3_5 H 0.4392 0.0463 0.4795
C7_5 C 0.48693(19) 0.04502(14) 0.5993(6)
C8_5 C 0.41458(23) 0.10228(18) 0.8125(8)
C9_5 C 0.42625(26) 0.1281(2) 0.9125(9)
H4_5 H 0.4472 0.1380 0.9450
C10_5 C 0.40655(24) 0.13914(19) 0.9639(9)
C11_5 C 0.37611(22) 0.12618(16) 0.9164(7)
C12_5 C 0.36388(21) 0.09983(15) 0.8126(7)
C13_5 C 0.38297(22) 0.08814(17) 0.7673(8)
H6_5 H 0.3746 0.0702 0.7044
C14_5 C 0.35762(20) 0.14083(14) 0.9782(7)
O12_5 O 0.4791(11) 0.1331(8) 0.266(4)
K4_5 K 0.24578(9) 0.07448(5) 0.9257(2)
O21_5 O 0.43869(22) 0.02945(18) 0.2014(6)
O22_5 O 0.44428(16) 0.00829(13) 0.9554(5)
H13_5 H 0.456021 0.123246 0.284332
H14_5 H 0.484596 0.144504 0.164674
H9_5 H 0.42211 0.905976 0.0540498
O11_5 O 0.45589(21) 0.95599(15) 0.8831(7)
C15_5 C 0.4367(8) 0.9397(6) 0.808(3)
N1_5 N 0.4187(6) 0.9063(4) 0.8143(19)
C16_5 C 0.4271(9) 0.8959(7) 0.952(3)
C17_5 C 0.3861(14) 0.8868(10) 0.766(5)
O18_5 O 0.52065(18) 0.97510(15) 0.9543(5)
H7_5 H 0.452185 0.90354 0.948834
H8_5 H 0.413432 0.870228 0.958462
H10_5 H 0.371169 0.892961 0.834358
H11_5 H 0.378721 0.862023 0.784729
H12_5 H 0.383914 0.890763 0.642619
H15_5 H 0.430402 0.950622 0.714453
O6_6 O 0.78779(10) 0.64177(15) 0.1210(5)
H5_6 H 0.7415 0.5855 0.0333
H9_6 H 0.483866 0.57789 0.0540498
S1_6 S 0.57690(3) 0.48496(5) 0.89234(18)
S2_6 S 0.75601(3) 0.67554(4) 0.73701(17)
O3_6 O 0.55723(10) 0.49264(14) 0.9926(5)
O4_6 O 0.59792(11) 0.47864(16) 0.9916(6)
O7_6 O 0.80636(10) 0.65788(15) 0.8838(5)
O8_6 O 0.77202(12) 0.69612(18) 0.8681(6)
O9_6 O 0.77761(9) 0.67496(13) 0.6221(5)
O10_6 O 0.73248(11) 0.68056(16) 0.6667(6)
C1_6 C 0.59147(14) 0.52947(21) 0.6574(7)
C2_6 C 0.60164(12) 0.52060(19) 0.7898(7)
C3_6 C 0.63274(14) 0.53818(22) 0.8385(7)
H1_6 H 0.6392 0.5318 0.9265
C4_6 C 0.65483(15) 0.56554(24) 0.7575(8)
C5_6 C 0.64461(16) 0.57321(26) 0.6228(8)
H2_6 H 0.6589 0.5906 0.5647
C6_6 C 0.61331(15) 0.55533(24) 0.5715(8)
H3_6 H 0.6071 0.5608 0.4795
C7_6 C 0.55809(13) 0.51307(19) 0.5993(6)
C8_6 C 0.68770(15) 0.58542(23) 0.8125(8)
C9_6 C 0.70185(16) 0.57375(26) 0.9125(9)
H4_6 H 0.6908 0.5528 0.9450
C10_6 C 0.73259(15) 0.59345(24) 0.9639(9)
C11_6 C 0.75007(15) 0.62389(22) 0.9164(7)
C12_6 C 0.73595(14) 0.63612(21) 0.8126(7)
C13_6 C 0.70517(14) 0.61703(22) 0.7673(8)
H6_6 H 0.6956 0.6254 0.7044
C14_6 C 0.78321(14) 0.64238(20) 0.9782(7)
O11_6 O 0.50010(15) 0.54411(21) 0.8831(7)
C15_6 C 0.5030(6) 0.5633(8) 0.808(3)
N1_6 N 0.4876(4) 0.5813(6) 0.8143(19)
C16_6 C 0.4688(6) 0.5729(9) 0.952(3)
C17_6 C 0.5007(10) 0.6139(14) 0.766(5)
O12_6 O 0.6540(8) 0.5209(11) 0.266(4)
K4_6 K 0.82869(7) 0.75422(9) 0.9257(2)
O18_6 O 0.45446(10) 0.47935(18) 0.9543(5)
O21_6 O 0.59077(13) 0.56131(22) 0.2014(6)
O22_6 O 0.56402(10) 0.55572(16) 0.9554(5)
H7_6 H 0.451355 0.547815 0.948834
H8_6 H 0.456796 0.586568 0.958462
H10_6 H 0.521792 0.628831 0.834358
H11_6 H 0.483302 0.621279 0.784729
H12_6 H 0.506849 0.616086 0.642619
H13_6 H 0.667225 0.543979 0.284332
H14_6 H 0.659908 0.515404 0.164674
H15_6 H 0.52022 0.569598 0.714453
K2_4 K 0.25886(5) 0.42088(5) 0.0923(2)
O13_4 O 0.16134(15) 0.36309(11) 0.0239(5)
O19_4 O 0.18485(11) 0.32455(15) 0.0505(5)
Pr1_4 Pr 0.18145(2) 0.34289(2) 0.78428(4)
S1_7 S 0.24357(3) 0.42527(4) 0.72567(18)
S2_7 S 0.42268(3) 0.41380(3) 0.57034(17)
O1_4 O 0.20176(10) 0.36309(11) 0.5239(5)
O2_4 O 0.22057(9) 0.37887(10) 0.2875(5)
O3_7 O 0.22390(10) 0.39792(10) 0.8259(5)
O4_7 O 0.26459(11) 0.45261(12) 0.8249(6)
O5_4 O 0.22557(12) 0.43098(13) 0.6118(7)
O10_7 O 0.39915(11) 0.38525(11) 0.5000(6)
C1_7 C 0.25814(14) 0.39533(15) 0.4907(7)
C2_7 C 0.26831(12) 0.41437(15) 0.6231(7)
C3_7 C 0.29941(14) 0.42789(17) 0.6718(7)
H1_7 H 0.3059 0.4407 0.7598
C4_7 C 0.32150(15) 0.42262(19) 0.5908(8)
C5_7 C 0.31128(16) 0.4047(2) 0.4561(8)
H2_7 H 0.3256 0.4016 0.3980
C6_7 C 0.27998(15) 0.39131(19) 0.4048(8)
H3_7 H 0.2738 0.3796 0.3128
C7_7 C 0.22476(13) 0.37835(14) 0.4326(6)
C8_7 C 0.35437(15) 0.43561(18) 0.6458(8)
C9_7 C 0.36852(16) 0.4614(2) 0.7458(9)
H4_7 H 0.3575 0.4713 0.7783
C10_7 C 0.39926(15) 0.47247(19) 0.7972(9)
H5_7 H 0.4082 0.4893 0.8666
C11_7 C 0.41674(15) 0.45951(16) 0.7497(7)
C12_7 C 0.40262(14) 0.43316(15) 0.6459(7)
C13_7 C 0.37184(14) 0.42147(17) 0.6006(8)
H6_7 H 0.3623 0.4035 0.5377
C14_7 C 0.44988(14) 0.47416(14) 0.8115(7)
O11_7 O 0.16677(15) 0.28932(15) 0.7164(7)
C15_7 C 0.1697(6) 0.2730(6) 0.641(3)
N1_7 N 0.1543(4) 0.2396(4) 0.6476(19)
C16_7 C 0.1355(6) 0.2292(7) 0.785(3)
C17_7 C 0.1674(10) 0.2201(10) 0.599(5)
O12_7 O 0.3207(8) 0.4664(8) 0.099(4)
K3_4 K 0.16203(7) 0.42088(5) 0.5923(2)
Pr2_4 Pr 0.16145(3) 0.34289(2) 0.28428(4)
O14_4 O 0.15831(13) 0.37887(10) 0.7875(5)
O17_4 O 0.20542(18) 0.43098(13) 0.1118(7)
O18_7 O 0.12112(10) 0.30844(15) 0.7877(5)
O20_4 O 0.13969(10) 0.32455(15) 0.5505(5)
O21_7 O 0.25743(13) 0.36279(18) 0.0348(6)
O22_7 O 0.23068(10) 0.34163(13) 0.7888(5)
H7_7 H 0.118022 0.236873 0.782167
H8_7 H 0.123463 0.203561 0.791795
H9_7 H 0.150533 0.239309 0.887383
H10_7 H 0.188459 0.226294 0.667691
H11_7 H 0.149969 0.195356 0.618062
H12_7 H 0.173516 0.224096 0.475953
H13_7 H 0.333892 0.456579 0.117666
H15_7 H 0.186887 0.283955 0.547786
H14_7 H 0.326575 0.477837 0.998007
S2_8 S 0.58620(3) 0.00887(4) 0.57034(17)
O10_8 O 0.61475(11) 0.01389(16) 0.5000(6)
K2_5 K 0.57912(5) 0.83797(7) 0.0923(2)
O13_5 O 0.63691(11) 0.79824(19) 0.0239(5)
O19_5 O 0.67545(15) 0.86031(19) 0.0505(5)
Pr1_5 Pr 0.65711(2) 0.83855(3) 0.78428(4)
S1_8 S 0.57473(4) 0.81829(5) 0.72567(18)
O1_5 O 0.63691(11) 0.83866(15) 0.5239(5)
O2_5 O 0.62113(10) 0.84169(13) 0.2875(5)
O3_8 O 0.60208(10) 0.82597(14) 0.8259(5)
O4_8 O 0.54739(12) 0.81197(16) 0.8249(6)
O5_5 O 0.56902(13) 0.79458(18) 0.6118(7)
C1_8 C 0.60467(15) 0.86280(21) 0.4907(7)
C2_8 C 0.58563(15) 0.85393(19) 0.6231(7)
C3_8 C 0.57211(17) 0.87151(22) 0.6718(7)
H1_8 H 0.5593 0.8651 0.7598
C4_8 C 0.57738(19) 0.89887(24) 0.5908(8)
C5_8 C 0.5953(2) 0.90654(26) 0.4561(8)
H2_8 H 0.5984 0.9239 0.3980
C6_8 C 0.60869(19) 0.88866(24) 0.4048(8)
H3_8 H 0.6204 0.8941 0.3128
C7_8 C 0.62165(14) 0.84640(19) 0.4326(6)
C8_8 C 0.56439(18) 0.91875(23) 0.6458(8)
C9_8 C 0.5386(2) 0.90708(26) 0.7458(9)
H4_8 H 0.5287 0.8861 0.7783
C10_8 C 0.52753(19) 0.92678(24) 0.7972(9)
H5_8 H 0.5107 0.9188 0.8666
C11_8 C 0.54049(16) 0.95722(22) 0.7497(7)
C12_8 C 0.56684(15) 0.96945(21) 0.6459(7)
C13_8 C 0.57853(17) 0.95036(22) 0.6006(8)
H6_8 H 0.5965 0.9587 0.5377
C14_8 C 0.52584(14) 0.97571(20) 0.8115(7)
O11_8 O 0.71068(15) 0.87744(21) 0.7164(7)
C15_8 C 0.7270(6) 0.8966(8) 0.641(3)
N1_8 N 0.7604(4) 0.9146(6) 0.6476(19)
C16_8 C 0.7708(7) 0.9062(9) 0.785(3)
C17_8 C 0.7799(10) 0.9472(14) 0.599(5)
O12_8 O 0.5336(8) 0.8542(11) 0.099(4)
K3_5 K 0.57912(5) 0.74114(9) 0.5923(2)
Pr2_5 Pr 0.65711(2) 0.81855(4) 0.28428(4)
O14_5 O 0.62113(10) 0.77943(16) 0.7875(5)
O17_5 O 0.56902(13) 0.77443(22) 0.1118(7)
O18_8 O 0.69156(15) 0.81269(18) 0.7877(5)
O20_5 O 0.67545(15) 0.81515(18) 0.5505(5)
O21_8 O 0.63721(18) 0.89465(22) 0.0348(6)
O22_8 O 0.65837(13) 0.88906(16) 0.7888(5)
H7_8 H 0.763127 0.881149 0.782167
H8_8 H 0.796439 0.919902 0.791795
H9_8 H 0.760691 0.911223 0.887383
H10_8 H 0.773706 0.962164 0.667691
H11_8 H 0.804644 0.954613 0.618062
H12_8 H 0.775904 0.94942 0.475953
H13_8 H 0.543421 0.877312 0.117666
H15_8 H 0.716045 0.902932 0.547786
H14_8 H 0.522163 0.848737 0.998007
K2_6 K 0.16203(7) 0.74114(5) 0.0923(2)
O13_6 O 0.20176(19) 0.83866(15) 0.0239(5)
O19_6 O 0.13969(19) 0.81515(11) 0.0505(5)
Pr1_6 Pr 0.16145(3) 0.81855(2) 0.78428(4)
S1_9 S 0.18171(5) 0.75643(3) 0.72567(18)
O1_6 O 0.16134(15) 0.79824(10) 0.5239(5)
O2_6 O 0.15831(13) 0.77943(9) 0.2875(5)
O3_9 O 0.17403(14) 0.77610(10) 0.8259(5)
O4_9 O 0.18803(16) 0.73541(11) 0.8249(6)
O5_6 O 0.20542(18) 0.77443(12) 0.6118(7)
C1_9 C 0.13720(21) 0.74186(14) 0.4907(7)
C2_9 C 0.14607(19) 0.73169(12) 0.6231(7)
C3_9 C 0.12849(22) 0.70059(14) 0.6718(7)
H1_9 H 0.1349 0.6941 0.7598
C4_9 C 0.10113(24) 0.67850(15) 0.5908(8)
C5_9 C 0.09346(26) 0.68872(16) 0.4561(8)
H2_9 H 0.0761 0.6744 0.3980
C6_9 C 0.11134(24) 0.72002(15) 0.4048(8)
H3_9 H 0.1059 0.7262 0.3128
C7_9 C 0.15360(19) 0.77524(13) 0.4326(6)
C8_9 C 0.08125(23) 0.64563(15) 0.6458(8)
C9_9 C 0.09292(26) 0.63148(16) 0.7458(9)
H4_9 H 0.1139 0.6425 0.7783
C10_9 C 0.07322(24) 0.60074(15) 0.7972(9)
H5_9 H 0.0812 0.5918 0.8666
C11_9 C 0.04278(22) 0.58326(15) 0.7497(7)
C12_9 C 0.03055(21) 0.59738(14) 0.6459(7)
C13_9 C 0.04964(22) 0.62816(14) 0.6006(8)
H6_9 H 0.0413 0.6377 0.5377
C14_9 C 0.02429(20) 0.55012(14) 0.8115(7)
O11_9 O 0.12256(21) 0.83323(15) 0.7164(7)
C15_9 C 0.1034(8) 0.8303(6) 0.641(3)
N1_9 N 0.0854(6) 0.8457(4) 0.6476(19)
C16_9 C 0.0938(9) 0.8645(6) 0.785(3)
C17_9 C 0.0528(14) 0.8326(10) 0.599(5)
O12_9 O 0.1458(11) 0.6793(8) 0.099(4)
K3_6 K 0.25886(9) 0.83797(7) 0.5923(2)
Pr2_6 Pr 0.18145(4) 0.83855(3) 0.28428(4)
O14_6 O 0.22057(16) 0.84169(13) 0.7875(5)
O17_6 O 0.22557(22) 0.79458(18) 0.1118(7)
O18_9 O 0.18731(18) 0.87888(10) 0.7877(5)
O20_6 O 0.18485(18) 0.86031(10) 0.5505(5)
O21_9 O 0.10535(22) 0.74257(13) 0.0348(6)
O22_9 O 0.11094(16) 0.76932(10) 0.7888(5)
H7_9 H 0.118851 0.881978 0.782167
H8_9 H 0.0800984 0.876537 0.791795
H9_9 H 0.0887765 0.849467 0.887383
H10_9 H 0.0378356 0.811541 0.667691
H11_9 H 0.0453874 0.850031 0.618062
H12_9 H 0.0505802 0.826484 0.475953
H13_9 H 0.122688 0.666108 0.117666
H15_9 H 0.0970684 0.813113 0.547786
H14_9 H 0.151263 0.673425 0.998007
S2_9 S 0.99113(4) 0.57732(3) 0.57034(17)
O10_9 O 0.98611(16) 0.60085(11) 0.5000(6)
S1_10 S 0.57473(4) 0.75643(3) 0.22567(18)
S2_10 S 0.58620(3) 0.57732(3) 0.07034(17)
O3_10 O 0.60208(10) 0.77610(10) 0.3259(5)
O4_10 O 0.54739(12) 0.73541(11) 0.3249(6)
O10_10 O 0.61475(11) 0.60085(11) 0.0000(6)
C2_10 C 0.58563(15) 0.73169(12) 0.1231(7)
C3_10 C 0.57211(17) 0.70059(14) 0.1718(7)
H1_10 H 0.5593 0.6941 0.2598
C4_10 C 0.57738(19) 0.67850(15) 0.0908(8)
C8_10 C 0.56439(18) 0.64563(15) 0.1458(8)
C9_10 C 0.5386(2) 0.63148(16) 0.2458(9)
H4_10 H 0.5287 0.6425 0.2783
C10_10 C 0.52753(19) 0.60074(15) 0.2972(9)
H5_10 H 0.5107 0.5918 0.3666
C11_10 C 0.54049(16) 0.58326(15) 0.2497(7)
C12_10 C 0.56684(15) 0.59738(14) 0.1459(7)
C13_10 C 0.57853(17) 0.62816(14) 0.1006(8)
H6_10 H 0.5965 0.6377 0.0377
C14_10 C 0.52584(14) 0.55012(14) 0.3115(7)
O11_10 O 0.71068(15) 0.83323(15) 0.2164(7)
C15_10 C 0.7270(6) 0.8303(6) 0.141(3)
N1_10 N 0.7604(4) 0.8457(4) 0.1476(19)
C16_10 C 0.7708(7) 0.8645(6) 0.285(3)
C17_10 C 0.7799(10) 0.8326(10) 0.099(5)
O18_10 O 0.69156(15) 0.87888(10) 0.2877(5)
O22_10 O 0.65837(13) 0.76932(10) 0.2888(5)
H7_10 H 0.763127 0.881978 0.282167
H8_10 H 0.796439 0.876537 0.291795
H9_10 H 0.760691 0.849467 0.387383
H10_10 H 0.773706 0.811541 0.167691
H11_10 H 0.804644 0.850031 0.118062
H15_10 H 0.716045 0.813113 0.0477859
O10_11 O 0.61475(11) 0.60085(11) 1.0000(6)
C1_10 C 0.60467(15) 0.74186(14) 0.9907(7)
C5_10 C 0.5953(2) 0.68872(16) 0.9561(8)
H2_10 H 0.5984 0.6744 0.8980
C6_10 C 0.60869(19) 0.72002(15) 0.9048(8)
H3_10 H 0.6204 0.7262 0.8128
C7_10 C 0.62165(14) 0.77524(13) 0.9326(6)
O12_10 O 0.5336(8) 0.6793(8) 0.599(4)
O21_10 O 0.63721(18) 0.74257(13) 0.5348(6)
H12_10 H 0.775904 0.826484 0.975953
H13_10 H 0.543421 0.666108 0.617666
H14_10 H 0.522163 0.673425 0.498007
S1_11 S 0.18171(5) 0.42527(4) 0.22567(18)
O3_11 O 0.17403(14) 0.39792(10) 0.3259(5)
O4_11 O 0.18803(16) 0.45261(12) 0.3249(6)
C2_11 C 0.14607(19) 0.41437(15) 0.1231(7)
C3_11 C 0.12849(22) 0.42789(17) 0.1718(7)
H1_11 H 0.1349 0.4407 0.2598
C4_11 C 0.10113(24) 0.42262(19) 0.0908(8)
C8_11 C 0.08125(23) 0.43561(18) 0.1458(8)
C9_11 C 0.09292(26) 0.4614(2) 0.2458(9)
H4_11 H 0.1139 0.4713 0.2783
C10_11 C 0.07322(24) 0.47247(19) 0.2972(9)
H5_11 H 0.0812 0.4893 0.3666
C11_11 C 0.04278(22) 0.45951(16) 0.2497(7)
C12_11 C 0.03055(21) 0.43316(15) 0.1459(7)
C13_11 C 0.04964(22) 0.42147(17) 0.1006(8)
H6_11 H 0.0413 0.4035 0.0377
C14_11 C 0.02429(20) 0.47416(14) 0.3115(7)
O11_11 O 0.12256(21) 0.28932(15) 0.2164(7)
C15_11 C 0.1034(8) 0.2730(6) 0.141(3)
N1_11 N 0.0854(6) 0.2396(4) 0.1476(19)
C16_11 C 0.0938(9) 0.2292(7) 0.285(3)
C17_11 C 0.0528(14) 0.2201(10) 0.099(5)
O18_11 O 0.18731(18) 0.30844(15) 0.2877(5)
O22_11 O 0.11094(16) 0.34163(13) 0.2888(5)
H7_11 H 0.118851 0.236873 0.282167
H8_11 H 0.0800984 0.203561 0.291795
H9_11 H 0.0887765 0.239309 0.387383
H10_11 H 0.0378356 0.226294 0.167691
H11_11 H 0.0453874 0.195356 0.118062
H15_11 H 0.0970684 0.283955 0.0477859
C1_11 C 0.13720(21) 0.39533(15) 0.9907(7)
C5_11 C 0.09346(26) 0.4047(2) 0.9561(8)
H2_11 H 0.0761 0.4016 0.8980
C6_11 C 0.11134(24) 0.39131(19) 0.9048(8)
H3_11 H 0.1059 0.3796 0.8128
C7_11 C 0.15360(19) 0.37835(14) 0.9326(6)
O12_11 O 0.1458(11) 0.4664(8) 0.599(4)
O21_11 O 0.10535(22) 0.36279(18) 0.5348(6)
H12_11 H 0.0505802 0.224096 0.975953
H13_11 H 0.122688 0.456579 0.617666
H14_11 H 0.151263 0.477837 0.498007
S2_11 S 0.99113(4) 0.41380(3) 0.07034(17)
O10_12 O 0.98611(16) 0.38525(11) 0.0000(6)
O10_13 O 0.98611(16) 0.38525(11) 1.0000(6)
S2_12 S 0.42268(3) 0.00887(4) 0.07034(17)
O10_14 O 0.39915(11) 0.01389(16) 0.0000(6)
O10_15 O 0.39915(11) 0.01389(16) 1.0000(6)
S1_12 S 0.24357(3) 0.81829(5) 0.22567(18)
O3_12 O 0.22390(10) 0.82597(14) 0.3259(5)
O4_12 O 0.26459(11) 0.81197(16) 0.3249(6)
C2_12 C 0.26831(12) 0.85393(19) 0.1231(7)
C3_12 C 0.29941(14) 0.87151(22) 0.1718(7)
H1_12 H 0.3059 0.8651 0.2598
C4_12 C 0.32150(15) 0.89887(24) 0.0908(8)
C8_12 C 0.35437(15) 0.91875(23) 0.1458(8)
C9_12 C 0.36852(16) 0.90708(26) 0.2458(9)
H4_12 H 0.3575 0.8861 0.2783
C10_12 C 0.39926(15) 0.92678(24) 0.2972(9)
H5_12 H 0.4082 0.9188 0.3666
C11_12 C 0.41674(15) 0.95722(22) 0.2497(7)
C12_12 C 0.40262(14) 0.96945(21) 0.1459(7)
C13_12 C 0.37184(14) 0.95036(22) 0.1006(8)
H6_12 H 0.3623 0.9587 0.0377
C14_12 C 0.44988(14) 0.97571(20) 0.3115(7)
O11_12 O 0.16677(15) 0.87744(21) 0.2164(7)
C15_12 C 0.1697(6) 0.8966(8) 0.141(3)
N1_12 N 0.1543(4) 0.9146(6) 0.1476(19)
C16_12 C 0.1355(6) 0.9062(9) 0.285(3)
C17_12 C 0.1674(10) 0.9472(14) 0.099(5)
O18_12 O 0.12112(10) 0.81269(18) 0.2877(5)
O22_12 O 0.23068(10) 0.88906(16) 0.2888(5)
H7_12 H 0.118022 0.881149 0.282167
H8_12 H 0.123463 0.919902 0.291795
H9_12 H 0.150533 0.911223 0.387383
H10_12 H 0.188459 0.962164 0.167691
H11_12 H 0.149969 0.954613 0.118062
H15_12 H 0.186887 0.902932 0.0477859
C1_12 C 0.25814(14) 0.86280(21) 0.9907(7)
C5_12 C 0.31128(16) 0.90654(26) 0.9561(8)
H2_12 H 0.3256 0.9239 0.8980
C6_12 C 0.27998(15) 0.88866(24) 0.9048(8)
H3_12 H 0.2738 0.8941 0.8128
C7_12 C 0.22476(13) 0.84640(19) 0.9326(6)
O12_12 O 0.3207(8) 0.8542(11) 0.599(4)
O21_12 O 0.25743(13) 0.89465(22) 0.5348(6)
H12_12 H 0.173516 0.94942 0.975953
H13_12 H 0.333892 0.877312 0.617666
H14_12 H 0.326575 0.848737 0.498007
C9_13 C 0.03518(16) 0.7948(2) 0.0792(9)
H4_13 H 0.0241 0.8047 0.1117
C10_13 C 0.06592(15) 0.80581(19) 0.1306(9)
H5_13 H 0.0748 0.8227 0.2000
C11_13 C 0.08340(15) 0.79285(16) 0.0831(7)
C14_13 C 0.11654(14) 0.80750(14) 0.1449(7)
S2_13 S 0.08934(3) 0.74714(3) 0.90368(17)
O10_16 O 0.06581(11) 0.71859(11) 0.8334(6)
C8_13 C 0.02103(15) 0.76895(18) 0.9792(8)
C12_13 C 0.06928(14) 0.76650(15) 0.9793(7)
C13_13 C 0.03850(14) 0.75481(17) 0.9340(8)
H6_13 H 0.0289 0.7369 0.8711
H13_13 H 0.00055834 0.789913 0.450999
S1_13 S 0.91023(3) 0.75861(4) 0.05901(18)
O3_13 O 0.89056(10) 0.73126(10) 0.1593(5)
O4_13 O 0.93125(11) 0.78595(12) 0.1583(6)
C3_13 C 0.96607(14) 0.76123(17) 0.0052(7)
H1_13 H 0.9725 0.7741 0.0932
O11_13 O 0.83343(15) 0.62266(15) 0.0498(7)
C16_13 C 0.8021(6) 0.5626(7) 0.119(3)
O13_7 O 0.82800(15) 0.69643(11) 0.3573(5)
O14_7 O 0.82497(13) 0.71221(10) 0.1209(5)
H7_13 H 0.784689 0.570207 0.115501
H8_13 H 0.790129 0.536894 0.125128
H9_13 H 0.817199 0.572643 0.220716
H10_13 H 0.855125 0.559628 0.0010245
O1_7 O 0.86842(10) 0.69643(11) 0.8573(5)
O2_7 O 0.88723(9) 0.71221(10) 0.6209(5)
O5_7 O 0.89223(12) 0.76432(13) 0.9452(7)
C1_13 C 0.92480(14) 0.72867(15) 0.8241(7)
C2_13 C 0.93497(12) 0.74771(15) 0.9565(7)
C4_13 C 0.98816(15) 0.75596(19) 0.9242(8)
C5_13 C 0.97794(16) 0.7381(2) 0.7895(8)
H2_13 H 0.9922 0.7350 0.7314
C6_13 C 0.94664(15) 0.72465(19) 0.7382(8)
H3_13 H 0.9404 0.7130 0.6462
C7_13 C 0.89142(13) 0.71169(14) 0.7660(6)
C15_13 C 0.8363(6) 0.6064(6) 0.975(3)
N1_13 N 0.8209(4) 0.5730(4) 0.9810(19)
C17_13 C 0.8340(10) 0.5535(10) 0.933(5)
O12_13 O 0.9873(8) 0.7998(8) 0.433(4)
O17_7 O 0.87208(18) 0.76432(13) 0.4452(7)
H11_13 H 0.816636 0.52869 0.951395
H12_13 H 0.840183 0.55743 0.809286
H14_13 H 0.993241 0.811171 0.33134
H15_13 H 0.853553 0.617288 0.881119
S1_14 S 0.24139(4) 0.15163(5) 0.05901(18)
O3_14 O 0.26874(10) 0.15931(14) 0.1593(5)
O4_14 O 0.21405(12) 0.14531(16) 0.1583(6)
C3_14 C 0.23877(17) 0.20485(22) 0.0052(7)
H1_14 H 0.2259 0.1985 0.0932
C9_14 C 0.2052(2) 0.24042(26) 0.0792(9)
H4_14 H 0.1953 0.2195 0.1117
C10_14 C 0.19419(19) 0.26012(24) 0.1306(9)
H5_14 H 0.1773 0.2522 0.2000
C11_14 C 0.20715(16) 0.29056(22) 0.0831(7)
C14_14 C 0.19250(14) 0.30905(20) 0.1449(7)
O11_14 O 0.37734(15) 0.21078(21) 0.0498(7)
C16_14 C 0.4374(7) 0.2396(9) 0.119(3)
O13_8 O 0.30357(11) 0.13158(19) 0.3573(5)
O14_8 O 0.28779(10) 0.11277(16) 0.1209(5)
H7_14 H 0.429793 0.214482 0.115501
H8_14 H 0.463106 0.253235 0.125128
H9_14 H 0.427357 0.244557 0.220716
H10_14 H 0.440372 0.295498 0.0010245
S2_14 S 0.25286(3) 0.34221(4) 0.90368(17)
O1_8 O 0.30357(11) 0.17200(15) 0.8573(5)
O2_8 O 0.28779(10) 0.17503(13) 0.6209(5)
O5_8 O 0.23568(13) 0.12792(18) 0.9452(7)
O10_17 O 0.28141(11) 0.34723(16) 0.8334(6)
C1_14 C 0.27133(15) 0.19614(21) 0.8241(7)
C2_14 C 0.25229(15) 0.18727(19) 0.9565(7)
C4_14 C 0.24404(19) 0.23221(24) 0.9242(8)
C5_14 C 0.2619(2) 0.23988(26) 0.7895(8)
H2_14 H 0.2650 0.2573 0.7314
C6_14 C 0.27535(19) 0.22200(24) 0.7382(8)
H3_14 H 0.2870 0.2275 0.6462
C7_14 C 0.28831(14) 0.17974(19) 0.7660(6)
C8_14 C 0.23105(18) 0.25209(23) 0.9792(8)
C12_14 C 0.23350(15) 0.30279(21) 0.9793(7)
C13_14 C 0.24519(17) 0.28370(22) 0.9340(8)
H6_14 H 0.2631 0.2921 0.8711
C15_14 C 0.3936(6) 0.2300(8) 0.975(3)
N1_14 N 0.4270(4) 0.2480(6) 0.9810(19)
C17_14 C 0.4465(10) 0.2806(14) 0.933(5)
O12_14 O 0.2002(8) 0.1876(11) 0.433(4)
O17_8 O 0.23568(13) 0.10777(22) 0.4452(7)
H11_14 H 0.47131 0.287946 0.951395
H12_14 H 0.44257 0.282753 0.809286
H13_14 H 0.210087 0.210646 0.450999
H14_14 H 0.188829 0.182071 0.33134
H15_14 H 0.382712 0.236265 0.881119
S1_15 S 0.84837(5) 0.08977(3) 0.05901(18)
O3_15 O 0.84069(14) 0.10944(10) 0.1593(5)
O4_15 O 0.85469(16) 0.06875(11) 0.1583(6)
C3_15 C 0.79515(22) 0.03393(14) 0.0052(7)
H1_15 H 0.8015 0.0275 0.0932
O11_15 O 0.78922(21) 0.16657(15) 0.0498(7)
C16_15 C 0.7604(9) 0.1979(6) 0.119(3)
O13_9 O 0.86842(19) 0.17200(15) 0.3573(5)
O14_9 O 0.88723(16) 0.17503(13) 0.1209(5)
H7_15 H 0.785518 0.215311 0.115501
H8_15 H 0.746765 0.209871 0.125128
H9_15 H 0.755443 0.182801 0.220716
H10_15 H 0.704502 0.144875 0.0010245
O1_9 O 0.82800(15) 0.13158(10) 0.8573(5)
O2_9 O 0.82497(13) 0.11277(9) 0.6209(5)
O5_9 O 0.87208(18) 0.10777(12) 0.9452(7)
C1_15 C 0.80386(21) 0.07520(14) 0.8241(7)
C2_15 C 0.81273(19) 0.06503(12) 0.9565(7)
C4_15 C 0.76779(24) 0.01184(15) 0.9242(8)
C5_15 C 0.76012(26) 0.02206(16) 0.7895(8)
H2_15 H 0.7427 0.0078 0.7314
C6_15 C 0.77800(24) 0.05336(15) 0.7382(8)
H3_15 H 0.7725 0.0596 0.6462
C7_15 C 0.82026(19) 0.10858(13) 0.7660(6)
C15_15 C 0.7700(8) 0.1637(6) 0.975(3)
N1_15 N 0.7520(6) 0.1791(4) 0.9810(19)
C17_15 C 0.7194(14) 0.1660(10) 0.933(5)
O12_15 O 0.8124(11) 0.0127(8) 0.433(4)
O17_9 O 0.89223(22) 0.12792(18) 0.4452(7)
H11_15 H 0.712054 0.183364 0.951395
H12_15 H 0.717247 0.159817 0.809286
H14_15 H 0.817929 0.00675873 0.33134
H15_15 H 0.763735 0.146447 0.881119
C9_15 C 0.75958(26) 0.96482(16) 0.0792(9)
H4_15 H 0.7805 0.9759 0.1117
C10_15 C 0.73988(24) 0.93408(15) 0.1306(9)
H5_15 H 0.7478 0.9252 0.2000
C11_15 C 0.70944(22) 0.91660(15) 0.0831(7)
C14_15 C 0.69095(20) 0.88346(14) 0.1449(7)
S2_15 S 0.65779(4) 0.91066(3) 0.90368(17)
O10_18 O 0.65277(16) 0.93419(11) 0.8334(6)
C8_15 C 0.74791(23) 0.97897(15) 0.9792(8)
C12_15 C 0.69721(21) 0.93072(14) 0.9793(7)
C13_15 C 0.71630(22) 0.96150(14) 0.9340(8)
H6_15 H 0.7079 0.9711 0.8711
H13_15 H 0.789354 0.999442 0.450999
S1_16 S 0.24139(4) 0.08977(3) 0.55901(18)
O3_16 O 0.26874(10) 0.10944(10) 0.6593(5)
O4_16 O 0.21405(12) 0.06875(11) 0.6583(6)
C1_16 C 0.27133(15) 0.07520(14) 0.3241(7)
C2_16 C 0.25229(15) 0.06503(12) 0.4565(7)
C3_16 C 0.23877(17) 0.03393(14) 0.5052(7)
H1_16 H 0.2259 0.0275 0.5932
C4_16 C 0.24404(19) 0.01184(15) 0.4242(8)
C5_16 C 0.2619(2) 0.02206(16) 0.2895(8)
H2_16 H 0.2650 0.0078 0.2314
C6_16 C 0.27535(19) 0.05336(15) 0.2382(8)
H3_16 H 0.2870 0.0596 0.1462
C7_16 C 0.28831(14) 0.10858(13) 0.2660(6)
O11_16 O 0.37734(15) 0.16657(15) 0.5498(7)
C15_16 C 0.3936(6) 0.1637(6) 0.475(3)
N1_16 N 0.4270(4) 0.1791(4) 0.4810(19)
C16_16 C 0.4374(7) 0.1979(6) 0.619(3)
C17_16 C 0.4465(10) 0.1660(10) 0.433(5)
H7_16 H 0.429793 0.215311 0.615501
H8_16 H 0.463106 0.209871 0.625128
H9_16 H 0.427357 0.182801 0.720716
H10_16 H 0.440372 0.144875 0.501024
H11_16 H 0.47131 0.183364 0.451395
H12_16 H 0.44257 0.159817 0.309286
H15_16 H 0.382712 0.146447 0.381119
O12_16 O 0.2002(8) 0.0127(8) 0.933(4)
H14_16 H 0.188829 0.00675873 0.83134
S2_16 S 0.25286(3) 0.91066(3) 0.40368(17)
O10_19 O 0.28141(11) 0.93419(11) 0.3334(6)
C8_16 C 0.23105(18) 0.97897(15) 0.4792(8)
C9_16 C 0.2052(2) 0.96482(16) 0.5792(9)
H4_16 H 0.1953 0.9759 0.6117
C10_16 C 0.19419(19) 0.93408(15) 0.6306(9)
H5_16 H 0.1773 0.9252 0.7000
C11_16 C 0.20715(16) 0.91660(15) 0.5831(7)
C12_16 C 0.23350(15) 0.93072(14) 0.4793(7)
C13_16 C 0.24519(17) 0.96150(14) 0.4340(8)
H6_16 H 0.2631 0.9711 0.3711
C14_16 C 0.19250(14) 0.88346(14) 0.6449(7)
S1_17 S 0.84837(5) 0.75861(4) 0.55901(18)
S2_17 S 0.65779(4) 0.74714(3) 0.40368(17)
O3_17 O 0.84069(14) 0.73126(10) 0.6593(5)
O4_17 O 0.85469(16) 0.78595(12) 0.6583(6)
O10_20 O 0.65277(16) 0.71859(11) 0.3334(6)
C1_17 C 0.80386(21) 0.72867(15) 0.3241(7)
C2_17 C 0.81273(19) 0.74771(15) 0.4565(7)
C3_17 C 0.79515(22) 0.76123(17) 0.5052(7)
H1_17 H 0.8015 0.7741 0.5932
C4_17 C 0.76779(24) 0.75596(19) 0.4242(8)
C5_17 C 0.76012(26) 0.7381(2) 0.2895(8)
H2_17 H 0.7427 0.7350 0.2314
C6_17 C 0.77800(24) 0.72465(19) 0.2382(8)
H3_17 H 0.7725 0.7130 0.1462
C7_17 C 0.82026(19) 0.71169(14) 0.2660(6)
C8_17 C 0.74791(23) 0.76895(18) 0.4792(8)
C9_17 C 0.75958(26) 0.7948(2) 0.5792(9)
H4_17 H 0.7805 0.8047 0.6117
C10_17 C 0.73988(24) 0.80581(19) 0.6306(9)
H5_17 H 0.7478 0.8227 0.7000
C11_17 C 0.70944(22) 0.79285(16) 0.5831(7)
C12_17 C 0.69721(21) 0.76650(15) 0.4793(7)
C13_17 C 0.71630(22) 0.75481(17) 0.4340(8)
H6_17 H 0.7079 0.7369 0.3711
C14_17 C 0.69095(20) 0.80750(14) 0.6449(7)
O11_17 O 0.78922(21) 0.62266(15) 0.5498(7)
C15_17 C 0.7700(8) 0.6064(6) 0.475(3)
N1_17 N 0.7520(6) 0.5730(4) 0.4810(19)
C16_17 C 0.7604(9) 0.5626(7) 0.619(3)
C17_17 C 0.7194(14) 0.5535(10) 0.433(5)
H7_17 H 0.785518 0.570207 0.615501
H8_17 H 0.746765 0.536894 0.625128
H9_17 H 0.755443 0.572643 0.720716
H10_17 H 0.704502 0.559628 0.501024
H11_17 H 0.712054 0.52869 0.451395
H12_17 H 0.717247 0.55743 0.309286
H15_17 H 0.763735 0.617288 0.381119
O12_17 O 0.8124(11) 0.7998(8) 0.933(4)
H13_16 H 0.789354 0.789913 0.950999
H14_17 H 0.817929 0.811171 0.83134
S2_18 S 0.08934(3) 0.34221(4) 0.40368(17)
O10_21 O 0.06581(11) 0.34723(16) 0.3334(6)
C8_18 C 0.02103(15) 0.25209(23) 0.4792(8)
C9_18 C 0.03518(16) 0.24042(26) 0.5792(9)
H4_18 H 0.0241 0.2195 0.6117
C10_18 C 0.06592(15) 0.26012(24) 0.6306(9)
H5_18 H 0.0748 0.2522 0.7000
C11_18 C 0.08340(15) 0.29056(22) 0.5831(7)
C12_18 C 0.06928(14) 0.30279(21) 0.4793(7)
C13_18 C 0.03850(14) 0.28370(22) 0.4340(8)
H6_18 H 0.0289 0.2921 0.3711
C14_18 C 0.11654(14) 0.30905(20) 0.6449(7)
S1_18 S 0.91023(3) 0.15163(5) 0.55901(18)
O3_18 O 0.89056(10) 0.15931(14) 0.6593(5)
O4_18 O 0.93125(11) 0.14531(16) 0.6583(6)
C1_18 C 0.92480(14) 0.19614(21) 0.3241(7)
C2_18 C 0.93497(12) 0.18727(19) 0.4565(7)
C3_18 C 0.96607(14) 0.20485(22) 0.5052(7)
H1_18 H 0.9725 0.1985 0.5932
C4_18 C 0.98816(15) 0.23221(24) 0.4242(8)
C5_18 C 0.97794(16) 0.23988(26) 0.2895(8)
H2_18 H 0.9922 0.2573 0.2314
C6_18 C 0.94664(15) 0.22200(24) 0.2382(8)
H3_18 H 0.9404 0.2275 0.1462
C7_18 C 0.89142(13) 0.17974(19) 0.2660(6)
O11_18 O 0.83343(15) 0.21078(21) 0.5498(7)
C15_18 C 0.8363(6) 0.2300(8) 0.475(3)
N1_18 N 0.8209(4) 0.2480(6) 0.4810(19)
C16_18 C 0.8021(6) 0.2396(9) 0.619(3)
C17_18 C 0.8340(10) 0.2806(14) 0.433(5)
H7_18 H 0.784689 0.214482 0.615501
H8_18 H 0.790129 0.253235 0.625128
H9_18 H 0.817199 0.244557 0.720716
H10_18 H 0.855125 0.295498 0.501024
H11_18 H 0.816636 0.287946 0.451395
H12_18 H 0.840183 0.282753 0.309286
H15_18 H 0.853553 0.236265 0.381119
O12_18 O 0.9873(8) 0.1876(11) 0.933(4)
H14_18 H 0.993241 0.182071 0.83134
H13_17 H 0.210087 0.999442 0.950999
H13_18 H 0.00055834 0.210646 0.950999
loop_
_geom_bond_atom_site_label_1
_geom_bond_atom_site_label_2
_geom_bond_site_symmetry_1
_geom_bond_site_symmetry_2
Pr1 O1 1_555 1_555
S1 O3 1_555 1_555
S2 O8 1_555 1_555
O1 C7 1_555 1_555
O3 Pr1 1_555 1_555
O4 S1 1_555 1_555
O5 S1 1_555 1_555
O6 C14 1_555 1_555
O7 C14 1_555 1_555
O8 K4 1_555 1_555
O9 S2 1_555 1_555
O10 S2 1_555 1_555
C1 C2 1_555 1_555
C2 S1 1_555 1_555
C3 C2 1_555 1_555
H1 C3 1_555 1_555
C4 C3 1_555 1_555
C5 C4 1_555 1_555
H2 C5 1_555 1_555
C6 C1 1_555 1_555
C7 C1 1_555 1_555
C8 C4 1_555 1_555
C9 C8 1_555 1_555
H4 C9 1_555 1_555
C10 C9 1_555 1_555
H5 C10 1_555 1_555
C11 C10 1_555 1_555
C12 S2 1_555 1_555
C13 C8 1_555 1_555
H6 C13 1_555 1_555
C14 C11 1_555 1_555
K2 O3 1_555 1_555
K3 O5 1_555 1_555
Pr3 O7 1_555 1_555
Pr4 O6 1_555 1_555
O13 Pr1 1_555 1_555
O14 Pr1 1_555 1_555
O22 Pr1 1_555 1_555
O4 K2 1_555 1_555
O7 Pr4 1_555 1_555
O9 Pr3 1_555 1_555
C5 C6 1_555 1_555
C11 C12 1_555 1_555
C12 C13 1_555 1_555
K3 O14 1_555 1_555
K2 O2 1_555 1_555
O12 K2 1_555 1_555
O17 K2 1_555 1_555
O21 K2 1_555 1_555
O2 Pr2 1_555 1_555
O12 H13 1_555 1_555
O12 H14 1_555 1_555
C15 O11 1_555 1_555
N1 C15 1_555 1_555
C16 N1 1_555 1_555
C17 N1 1_555 1_555
C16 H7 1_555 1_555
C16 H8 1_555 1_555
C16 H9 1_555 1_555
C17 H10 1_555 1_555
C17 H11 1_555 1_555
C17 H12 1_555 1_555
C15 H15 1_555 1_555
C15_2 O11_2 1_555 1_555
N1_2 C15_2 1_555 1_555
C16_2 N1_2 1_555 1_555
C17_2 N1_2 1_555 1_555
C16_2 H7_2 1_555 1_555
C16_2 H8_2 1_555 1_555
C16_2 H9_2 1_555 1_555
C17_2 H10_2 1_555 1_555
C17_2 H11_2 1_555 1_555
C17_2 H12_2 1_555 1_555
C15_2 H15_2 1_555 1_555
Pr1_2 O1_2 1_555 1_555
S1_2 O3_2 1_555 1_555
S2_2 O8_2 1_555 1_555
O1_2 C7_2 1_555 1_555
O3_2 Pr1_2 1_555 1_555
O4_2 S1_2 1_555 1_555
O5_2 S1_2 1_555 1_555
O6_2 C14_2 1_555 1_555
O7_2 C14_2 1_555 1_555
O8_2 K4_2 1_555 1_555
O9_2 S2_2 1_555 1_555
O10_2 S2_2 1_555 1_555
C1_2 C2_2 1_555 1_555
C2_2 S1_2 1_555 1_555
C3_2 C2_2 1_555 1_555
H1_2 C3_2 1_555 1_555
C4_2 C3_2 1_555 1_555
C5_2 C4_2 1_555 1_555
H2_2 C5_2 1_555 1_555
C6_2 C1_2 1_555 1_555
C7_2 C1_2 1_555 1_555
C8_2 C4_2 1_555 1_555
C9_2 C8_2 1_555 1_555
H4_2 C9_2 1_555 1_555
C10_2 C9_2 1_555 1_555
H5_2 C10_2 1_555 1_555
C11_2 C10_2 1_555 1_555
C12_2 S2_2 1_555 1_555
C13_2 C8_2 1_555 1_555
H6_2 C13_2 1_555 1_555
C14_2 C11_2 1_555 1_555
K2_2 O3_2 1_555 1_555
K3_2 O5_2 1_555 1_555
Pr3_2 O7_2 1_555 1_555
Pr4_2 O6_2 1_555 1_555
O13_2 Pr1_2 1_555 1_555
O14_2 Pr1_2 1_555 1_555
O22_2 Pr1_2 1_555 1_555
O4_2 K2_2 1_555 1_555
O7_2 Pr4_2 1_555 1_555
O9_2 Pr3_2 1_555 1_555
C5_2 C6_2 1_555 1_555
C11_2 C12_2 1_555 1_555
C12_2 C13_2 1_555 1_555
K3_2 O14_2 1_555 1_555
K2_2 O2_2 1_555 1_555
O12_2 K2_2 1_555 1_555
O17_2 K2_2 1_555 1_555
O21_2 K2_2 1_555 1_555
O2_2 Pr2_2 1_555 1_555
O12_2 H13_2 1_555 1_555
O12_2 H14_2 1_555 1_555
Pr1_3 O1_3 1_555 1_555
S1_3 O3_3 1_555 1_555
S2_3 O8_3 1_555 1_555
O1_3 C7_3 1_555 1_555
O3_3 Pr1_3 1_555 1_555
O4_3 S1_3 1_555 1_555
O5_3 S1_3 1_555 1_555
O6_3 C14_3 1_555 1_555
O7_3 C14_3 1_555 1_555
O8_3 K4_3 1_555 1_555
O9_3 S2_3 1_555 1_555
O10_3 S2_3 1_555 1_555
C1_3 C2_3 1_555 1_555
C2_3 S1_3 1_555 1_555
C3_3 C2_3 1_555 1_555
H1_3 C3_3 1_555 1_555
C4_3 C3_3 1_555 1_555
C5_3 C4_3 1_555 1_555
H2_3 C5_3 1_555 1_555
C6_3 C1_3 1_555 1_555
C7_3 C1_3 1_555 1_555
C8_3 C4_3 1_555 1_555
C9_3 C8_3 1_555 1_555
H4_3 C9_3 1_555 1_555
C10_3 C9_3 1_555 1_555
H5_3 C10_3 1_555 1_555
C11_3 C10_3 1_555 1_555
C12_3 S2_3 1_555 1_555
C13_3 C8_3 1_555 1_555
H6_3 C13_3 1_555 1_555
C14_3 C11_3 1_555 1_555
O11_3 Pr1_3 1_555 1_555
C15_3 O11_3 1_555 1_555
N1_3 C15_3 1_555 1_555
C16_3 N1_3 1_555 1_555
C17_3 N1_3 1_555 1_555
K2_3 O3_3 1_555 1_555
K3_3 O5_3 1_555 1_555
Pr3_3 O7_3 1_555 1_555
Pr4_3 O6_3 1_555 1_555
O13_3 Pr1_3 1_555 1_555
O14_3 Pr1_3 1_555 1_555
O18_3 Pr1_3 1_555 1_555
O19_3 Pr1_3 1_555 1_555
O20_3 Pr1_3 1_555 1_555
O22_3 Pr1_3 1_555 1_555
O4_3 K2_3 1_555 1_555
O7_3 Pr4_3 1_555 1_555
O9_3 Pr3_3 1_555 1_555
C5_3 C6_3 1_555 1_555
C11_3 C12_3 1_555 1_555
C12_3 C13_3 1_555 1_555
K3_3 O14_3 1_555 1_555
C16_3 H7_3 1_555 1_555
C16_3 H8_3 1_555 1_555
C16_3 H9_3 1_555 1_555
C17_3 H10_3 1_555 1_555
C17_3 H11_3 1_555 1_555
C17_3 H12_3 1_555 1_555
C15_3 H15_3 1_555 1_555
K2_3 O2_3 1_555 1_555
O12_3 K2_3 1_555 1_555
O17_3 K2_3 1_555 1_555
O21_3 K2_3 1_555 1_555
O2_3 Pr2_3 1_555 1_555
O12_3 H13_3 1_555 1_555
O12_3 H14_3 1_555 1_555
C15_4 O11_4 1_555 1_555
N1_4 C15_4 1_555 1_555
C16_4 N1_4 1_555 1_555
C17_4 N1_4 1_555 1_555
C16_4 H7_4 1_555 1_555
C16_4 H8_4 1_555 1_555
C17_4 H10_4 1_555 1_555
C17_4 H11_4 1_555 1_555
C17_4 H12_4 1_555 1_555
C15_4 H15_4 1_555 1_555
Pr3 O6_4 1_555 1_555
Pr2_2 O13_2 1_555 1_555
S1_4 O3_4 1_555 1_555
S2_4 O8_4 1_555 1_555
O13_2 C7_4 1_555 1_555
O14_2 C7_4 1_555 1_555
O3_4 Pr2_2 1_555 1_555
O4_4 S1_4 1_555 1_555
O17_2 S1_4 1_555 1_555
O7_4 C14_4 1_555 1_555
O8_4 K4_4 1_555 1_555
O9_4 S2_4 1_555 1_555
O10_4 S2_4 1_555 1_555
C1_4 C2_4 1_555 1_555
C2_4 S1_4 1_555 1_555
C3_4 C2_4 1_555 1_555
H1_4 C3_4 1_555 1_555
C4_4 C3_4 1_555 1_555
C5_4 C4_4 1_555 1_555
H2_4 C5_4 1_555 1_555
C6_4 C1_4 1_555 1_555
H3_4 C6_4 1_555 1_555
C7_4 C1_4 1_555 1_555
C8_4 C4_4 1_555 1_555
C9_4 C8_4 1_555 1_555
H4_4 C9_4 1_555 1_555
C10_4 C9_4 1_555 1_555
C11_4 C10_4 1_555 1_555
C12_4 S2_4 1_555 1_555
C13_4 C8_4 1_555 1_555
H6_4 C13_4 1_555 1_555
C14_4 C11_4 1_555 1_555
O12_4 K3_2 1_555 1_555
Pr4 O7_4 1_555 1_555
O21_4 K3_2 1_555 1_555
O22_4 Pr2_2 1_555 1_555
O9_4 Pr4 1_555 1_555
C5_4 C6_4 1_555 1_555
C11_4 C12_4 1_555 1_555
C12_4 C13_4 1_555 1_555
O12_4 H13_4 1_555 1_555
O12_4 H14_4 1_555 1_555
Pr3_3 O6_5 1_555 1_555
Pr2 O13 1_555 1_555
S1_5 O3_5 1_555 1_555
S2_5 O8_5 1_555 1_555
O13 C7_5 1_555 1_555
O14 C7_5 1_555 1_555
O3_5 Pr2 1_555 1_555
O4_5 S1_5 1_555 1_555
O17 S1_5 1_555 1_555
O7_5 C14_5 1_555 1_555
O8_5 K4_5 1_555 1_555
O9_5 S2_5 1_555 1_555
O10_5 S2_5 1_555 1_555
C1_5 C2_5 1_555 1_555
C2_5 S1_5 1_555 1_555
C3_5 C2_5 1_555 1_555
H1_5 C3_5 1_555 1_555
C4_5 C3_5 1_555 1_555
C5_5 C4_5 1_555 1_555
H2_5 C5_5 1_555 1_555
C6_5 C1_5 1_555 1_555
H3_5 C6_5 1_555 1_555
C7_5 C1_5 1_555 1_555
C8_5 C4_5 1_555 1_555
C9_5 C8_5 1_555 1_555
H4_5 C9_5 1_555 1_555
C10_5 C9_5 1_555 1_555
C11_5 C10_5 1_555 1_555
C12_5 S2_5 1_555 1_555
C13_5 C8_5 1_555 1_555
H6_5 C13_5 1_555 1_555
C14_5 C11_5 1_555 1_555
O12_5 K3 1_555 1_555
Pr4_3 O7_5 1_555 1_555
O21_5 K3 1_555 1_555
O22_5 Pr2 1_555 1_555
O9_5 Pr4_3 1_555 1_555
C5_5 C6_5 1_555 1_555
C11_5 C12_5 1_555 1_555
C12_5 C13_5 1_555 1_555
O12_5 H13_5 1_555 1_555
O12_5 H14_5 1_555 1_555
C15_5 O11_5 1_555 1_555
N1_5 C15_5 1_555 1_555
C16_5 N1_5 1_555 1_555
C17_5 N1_5 1_555 1_555
C16_5 H7_5 1_555 1_555
C16_5 H8_5 1_555 1_555
C17_5 H10_5 1_555 1_555
C17_5 H11_5 1_555 1_555
C17_5 H12_5 1_555 1_555
C15_5 H15_5 1_555 1_555
Pr3_2 O6_6 1_555 1_555
Pr2_3 O13_3 1_555 1_555
S1_6 O3_6 1_555 1_555
S2_6 O8_6 1_555 1_555
O13_3 C7_6 1_555 1_555
O14_3 C7_6 1_555 1_555
O3_6 Pr2_3 1_555 1_555
O4_6 S1_6 1_555 1_555
O17_3 S1_6 1_555 1_555
O7_6 C14_6 1_555 1_555
O8_6 K4_6 1_555 1_555
O9_6 S2_6 1_555 1_555
O10_6 S2_6 1_555 1_555
C1_6 C2_6 1_555 1_555
C2_6 S1_6 1_555 1_555
C3_6 C2_6 1_555 1_555
H1_6 C3_6 1_555 1_555
C4_6 C3_6 1_555 1_555
C5_6 C4_6 1_555 1_555
H2_6 C5_6 1_555 1_555
C6_6 C1_6 1_555 1_555
H3_6 C6_6 1_555 1_555
C7_6 C1_6 1_555 1_555
C8_6 C4_6 1_555 1_555
C9_6 C8_6 1_555 1_555
H4_6 C9_6 1_555 1_555
C10_6 C9_6 1_555 1_555
C11_6 C10_6 1_555 1_555
C12_6 S2_6 1_555 1_555
C13_6 C8_6 1_555 1_555
H6_6 C13_6 1_555 1_555
C14_6 C11_6 1_555 1_555
O11_6 Pr2_3 1_555 1_555
C15_6 O11_6 1_555 1_555
N1_6 C15_6 1_555 1_555
C16_6 N1_6 1_555 1_555
C17_6 N1_6 1_555 1_555
O12_6 K3_3 1_555 1_555
Pr4_2 O7_6 1_555 1_555
O18_6 Pr2_3 1_555 1_555
O19_3 Pr2_3 1_555 1_555
O21_6 K3_3 1_555 1_555
O22_6 Pr2_3 1_555 1_555
O9_6 Pr4_2 1_555 1_555
C5_6 C6_6 1_555 1_555
C11_6 C12_6 1_555 1_555
C12_6 C13_6 1_555 1_555
C16_6 H7_6 1_555 1_555
C16_6 H8_6 1_555 1_555
C17_6 H10_6 1_555 1_555
C17_6 H11_6 1_555 1_555
C17_6 H12_6 1_555 1_555
O12_6 H13_6 1_555 1_555
O12_6 H14_6 1_555 1_555
C15_6 H15_6 1_555 1_555
K2_4 O2_4 1_555 1_555
Pr1_4 O1_4 1_555 1_555
S1_7 O3_7 1_555 1_555
S2_7 O21_3 1_555 1_555
O1_4 C7_7 1_555 1_555
O2_4 C7_7 1_555 1_555
O3_7 Pr1_4 1_555 1_555
O4_7 S1_7 1_555 1_555
O5_4 S1_7 1_555 1_555
O18_6 C14_7 1_555 1_555
O19_3 C14_7 1_555 1_555
O22_3 S2_7 1_555 1_555
O10_7 S2_7 1_555 1_555
C1_7 C2_7 1_555 1_555
C2_7 S1_7 1_555 1_555
C3_7 C2_7 1_555 1_555
H1_7 C3_7 1_555 1_555
C4_7 C3_7 1_555 1_555
C5_7 C4_7 1_555 1_555
H2_7 C5_7 1_555 1_555
C6_7 C1_7 1_555 1_555
H3_7 C6_7 1_555 1_555
C7_7 C1_7 1_555 1_555
C8_7 C4_7 1_555 1_555
C9_7 C8_7 1_555 1_555
H4_7 C9_7 1_555 1_555
C10_7 C9_7 1_555 1_555
H5_7 C10_7 1_555 1_555
C11_7 C10_7 1_555 1_555
C12_7 S2_7 1_555 1_555
C13_7 C8_7 1_555 1_555
H6_7 C13_7 1_555 1_555
C14_7 C11_7 1_555 1_555
O11_7 Pr1_4 1_555 1_555
C15_7 O11_7 1_555 1_555
N1_7 C15_7 1_555 1_555
C16_7 N1_7 1_555 1_555
C17_7 N1_7 1_555 1_555
O12_7 K2_4 1_555 1_555
K3_4 O5_4 1_555 1_555
Pr2_4 O1_4 1_555 1_555
O14_4 Pr1_4 1_555 1_555
O17_4 K2_4 1_555 1_555
O18_7 Pr1_4 1_555 1_555
O20_4 Pr1_4 1_555 1_555
O21_7 K2_4 1_555 1_555
O22_7 Pr1_4 1_555 1_555
O2_4 Pr2_4 1_555 1_555
C5_7 C6_7 1_555 1_555
C11_7 C12_7 1_555 1_555
C12_7 C13_7 1_555 1_555
K3_4 O14_4 1_555 1_555
Pr2_4 O20_4 1_555 1_555
C16_7 H7_7 1_555 1_555
C16_7 H8_7 1_555 1_555
C16_7 H9_7 1_555 1_555
C17_7 H10_7 1_555 1_555
C17_7 H11_7 1_555 1_555
C17_7 H12_7 1_555 1_555
O12_7 H13_7 1_555 1_555
C15_7 H15_7 1_555 1_555
S2_8 O21 1_555 1_555
O22 S2_8 1_555 1_555
O10_8 S2_8 1_555 1_555
K2_5 O2_5 1_555 1_555
Pr1_5 O1_5 1_555 1_555
S1_8 O3_8 1_555 1_555
O1_5 C7_8 1_555 1_555
O2_5 C7_8 1_555 1_555
O3_8 Pr1_5 1_555 1_555
O4_8 S1_8 1_555 1_555
O5_5 S1_8 1_555 1_555
O18_5 C14_8 1_555 1_555
O19 C14_8 1_555 1_555
C1_8 C2_8 1_555 1_555
C2_8 S1_8 1_555 1_555
C3_8 C2_8 1_555 1_555
H1_8 C3_8 1_555 1_555
C4_8 C3_8 1_555 1_555
C5_8 C4_8 1_555 1_555
H2_8 C5_8 1_555 1_555
C6_8 C1_8 1_555 1_555
H3_8 C6_8 1_555 1_555
C7_8 C1_8 1_555 1_555
C8_8 C4_8 1_555 1_555
C9_8 C8_8 1_555 1_555
H4_8 C9_8 1_555 1_555
C10_8 C9_8 1_555 1_555
H5_8 C10_8 1_555 1_555
C11_8 C10_8 1_555 1_555
C13_8 C8_8 1_555 1_555
H6_8 C13_8 1_555 1_555
C14_8 C11_8 1_555 1_555
O11_8 Pr1_5 1_555 1_555
C15_8 O11_8 1_555 1_555
N1_8 C15_8 1_555 1_555
C16_8 N1_8 1_555 1_555
C17_8 N1_8 1_555 1_555
O12_8 K2_5 1_555 1_555
K3_5 O5_5 1_555 1_555
Pr2_5 O1_5 1_555 1_555
O14_5 Pr1_5 1_555 1_555
O17_5 K2_5 1_555 1_555
O18_8 Pr1_5 1_555 1_555
O20_5 Pr1_5 1_555 1_555
O21_8 K2_5 1_555 1_555
O22_8 Pr1_5 1_555 1_555
O2_5 Pr2_5 1_555 1_555
C5_8 C6_8 1_555 1_555
C11_8 C12_8 1_555 1_555
C12_8 C13_8 1_555 1_555
K3_5 O14_5 1_555 1_555
Pr2_5 O20_5 1_555 1_555
C16_8 H7_8 1_555 1_555
C16_8 H8_8 1_555 1_555
C16_8 H9_8 1_555 1_555
C17_8 H10_8 1_555 1_555
C17_8 H11_8 1_555 1_555
C17_8 H12_8 1_555 1_555
O12_8 H13_8 1_555 1_555
C15_8 H15_8 1_555 1_555
K2_6 O2_6 1_555 1_555
Pr1_6 O1_6 1_555 1_555
S1_9 O3_9 1_555 1_555
O1_6 C7_9 1_555 1_555
O2_6 C7_9 1_555 1_555
O3_9 Pr1_6 1_555 1_555
O4_9 S1_9 1_555 1_555
O5_6 S1_9 1_555 1_555
O18_4 C14_9 1_555 1_555
O19_2 C14_9 1_555 1_555
C1_9 C2_9 1_555 1_555
C2_9 S1_9 1_555 1_555
C3_9 C2_9 1_555 1_555
H1_9 C3_9 1_555 1_555
C4_9 C3_9 1_555 1_555
C5_9 C4_9 1_555 1_555
H2_9 C5_9 1_555 1_555
C6_9 C1_9 1_555 1_555
H3_9 C6_9 1_555 1_555
C7_9 C1_9 1_555 1_555
C8_9 C4_9 1_555 1_555
C9_9 C8_9 1_555 1_555
H4_9 C9_9 1_555 1_555
C10_9 C9_9 1_555 1_555
H5_9 C10_9 1_555 1_555
C11_9 C10_9 1_555 1_555
C13_9 C8_9 1_555 1_555
H6_9 C13_9 1_555 1_555
C14_9 C11_9 1_555 1_555
O11_9 Pr1_6 1_555 1_555
C15_9 O11_9 1_555 1_555
N1_9 C15_9 1_555 1_555
C16_9 N1_9 1_555 1_555
C17_9 N1_9 1_555 1_555
O12_9 K2_6 1_555 1_555
K3_6 O5_6 1_555 1_555
Pr2_6 O1_6 1_555 1_555
O14_6 Pr1_6 1_555 1_555
O17_6 K2_6 1_555 1_555
O18_9 Pr1_6 1_555 1_555
O20_6 Pr1_6 1_555 1_555
O21_9 K2_6 1_555 1_555
O22_9 Pr1_6 1_555 1_555
O2_6 Pr2_6 1_555 1_555
C5_9 C6_9 1_555 1_555
C11_9 C12_9 1_555 1_555
C12_9 C13_9 1_555 1_555
K3_6 O14_6 1_555 1_555
Pr2_6 O20_6 1_555 1_555
C16_9 H7_9 1_555 1_555
C16_9 H8_9 1_555 1_555
C16_9 H9_9 1_555 1_555
C17_9 H10_9 1_555 1_555
C17_9 H11_9 1_555 1_555
C17_9 H12_9 1_555 1_555
O12_9 H13_9 1_555 1_555
C15_9 H15_9 1_555 1_555
S2_9 O21_2 1_555 1_555
O22_2 S2_9 1_555 1_555
O10_9 S2_9 1_555 1_555
Pr2_5 O13_5 1_555 1_555
S1_10 O3_10 1_555 1_555
S2_10 O21_6 1_555 1_555
O3_10 Pr2_5 1_555 1_555
O4_10 S1_10 1_555 1_555
O17_5 S1_10 1_555 1_555
O18_3 C14_10 1_555 1_555
O20_3 C14_10 1_555 1_555
O10_10 S2_10 1_555 1_555
C2_10 S1_10 1_555 1_555
C3_10 C2_10 1_555 1_555
H1_10 C3_10 1_555 1_555
C4_10 C3_10 1_555 1_555
C8_10 C4_10 1_555 1_555
C9_10 C8_10 1_555 1_555
H4_10 C9_10 1_555 1_555
C10_10 C9_10 1_555 1_555
H5_10 C10_10 1_555 1_555
C11_10 C10_10 1_555 1_555
C12_10 S2_10 1_555 1_555
C13_10 C8_10 1_555 1_555
H6_10 C13_10 1_555 1_555
C14_10 C11_10 1_555 1_555
O11_10 Pr2_5 1_555 1_555
C15_10 O11_10 1_555 1_555
N1_10 C15_10 1_555 1_555
C16_10 N1_10 1_555 1_555
C17_10 N1_10 1_555 1_555
K3_5 O3_10 1_555 1_555
O18_10 Pr2_5 1_555 1_555
O19_5 Pr2_5 1_555 1_555
O22_10 Pr2_5 1_555 1_555
O4_10 K3_5 1_555 1_555
C11_10 C12_10 1_555 1_555
C12_10 C13_10 1_555 1_555
C16_10 H7_10 1_555 1_555
C16_10 H8_10 1_555 1_555
C16_10 H9_10 1_555 1_555
C17_10 H10_10 1_555 1_555
C17_10 H11_10 1_555 1_555
C15_10 H15_10 1_555 1_555
O14_5 C7_10 1_555 1_555
H2_10 C5_10 1_555 1_555
C6_10 C1_10 1_555 1_555
H3_10 C6_10 1_555 1_555
C7_10 C1_10 1_555 1_555
O12_10 K3_5 1_555 1_555
O21_10 K3_5 1_555 1_555
C5_10 C6_10 1_555 1_555
O12_10 H13_10 1_555 1_555
O12_10 H14_10 1_555 1_555
Pr2_4 O13_4 1_555 1_555
S1_11 O3_11 1_555 1_555
O3_11 Pr2_4 1_555 1_555
O4_11 S1_11 1_555 1_555
O17_4 S1_11 1_555 1_555
O18_2 C14_11 1_555 1_555
O20_2 C14_11 1_555 1_555
C2_11 S1_11 1_555 1_555
C3_11 C2_11 1_555 1_555
H1_11 C3_11 1_555 1_555
C4_11 C3_11 1_555 1_555
C8_11 C4_11 1_555 1_555
C9_11 C8_11 1_555 1_555
H4_11 C9_11 1_555 1_555
C10_11 C9_11 1_555 1_555
H5_11 C10_11 1_555 1_555
C11_11 C10_11 1_555 1_555
C13_11 C8_11 1_555 1_555
H6_11 C13_11 1_555 1_555
C14_11 C11_11 1_555 1_555
O11_11 Pr2_4 1_555 1_555
C15_11 O11_11 1_555 1_555
N1_11 C15_11 1_555 1_555
C16_11 N1_11 1_555 1_555
C17_11 N1_11 1_555 1_555
K3_4 O3_11 1_555 1_555
O18_11 Pr2_4 1_555 1_555
O19_4 Pr2_4 1_555 1_555
O22_11 Pr2_4 1_555 1_555
O4_11 K3_4 1_555 1_555
C11_11 C12_11 1_555 1_555
C12_11 C13_11 1_555 1_555
C16_11 H7_11 1_555 1_555
C16_11 H8_11 1_555 1_555
C16_11 H9_11 1_555 1_555
C17_11 H10_11 1_555 1_555
C17_11 H11_11 1_555 1_555
C15_11 H15_11 1_555 1_555
O14_4 C7_11 1_555 1_555
H2_11 C5_11 1_555 1_555
C6_11 C1_11 1_555 1_555
H3_11 C6_11 1_555 1_555
C7_11 C1_11 1_555 1_555
O12_11 K3_4 1_555 1_555
O21_11 K3_4 1_555 1_555
C5_11 C6_11 1_555 1_555
O12_11 H13_11 1_555 1_555
O12_11 H14_11 1_555 1_555
S2_11 O21_4 1_555 1_555
O10_12 S2_11 1_555 1_555
S2_12 O21_5 1_555 1_555
O10_14 S2_12 1_555 1_555
Pr2_6 O13_6 1_555 1_555
S1_12 O3_12 1_555 1_555
O3_12 Pr2_6 1_555 1_555
O4_12 S1_12 1_555 1_555
O17_6 S1_12 1_555 1_555
O18 C14_12 1_555 1_555
O20 C14_12 1_555 1_555
C2_12 S1_12 1_555 1_555
C3_12 C2_12 1_555 1_555
H1_12 C3_12 1_555 1_555
C4_12 C3_12 1_555 1_555
C8_12 C4_12 1_555 1_555
C9_12 C8_12 1_555 1_555
H4_12 C9_12 1_555 1_555
C10_12 C9_12 1_555 1_555
H5_12 C10_12 1_555 1_555
C11_12 C10_12 1_555 1_555
C13_12 C8_12 1_555 1_555
H6_12 C13_12 1_555 1_555
C14_12 C11_12 1_555 1_555
O11_12 Pr2_6 1_555 1_555
C15_12 O11_12 1_555 1_555
N1_12 C15_12 1_555 1_555
C16_12 N1_12 1_555 1_555
C17_12 N1_12 1_555 1_555
K3_6 O3_12 1_555 1_555
O18_12 Pr2_6 1_555 1_555
O19_6 Pr2_6 1_555 1_555
O22_12 Pr2_6 1_555 1_555
O4_12 K3_6 1_555 1_555
C11_12 C12_12 1_555 1_555
C12_12 C13_12 1_555 1_555
C16_12 H7_12 1_555 1_555
C16_12 H8_12 1_555 1_555
C16_12 H9_12 1_555 1_555
C17_12 H10_12 1_555 1_555
C17_12 H11_12 1_555 1_555
C15_12 H15_12 1_555 1_555
O14_6 C7_12 1_555 1_555
H2_12 C5_12 1_555 1_555
C6_12 C1_12 1_555 1_555
H3_12 C6_12 1_555 1_555
C7_12 C1_12 1_555 1_555
O12_12 K3_6 1_555 1_555
O21_12 K3_6 1_555 1_555
C5_12 C6_12 1_555 1_555
O12_12 H13_12 1_555 1_555
O12_12 H14_12 1_555 1_555
O18_12 C14_13 1_555 1_555
O19_6 C14_13 1_555 1_555
H4_13 C9_13 1_555 1_555
C10_13 C9_13 1_555 1_555
H5_13 C10_13 1_555 1_555
C11_13 C10_13 1_555 1_555
C14_13 C11_13 1_555 1_555
O22_9 S2_13 1_555 1_555
O10_16 S2_13 1_555 1_555
C12_13 S2_13 1_555 1_555
C13_13 C8_13 1_555 1_555
H6_13 C13_13 1_555 1_555
C12_13 C13_13 1_555 1_555
S1_13 O3_13 1_555 1_555
O3_13 Pr3_2 1_555 1_555
O4_13 S1_13 1_555 1_555
H1_13 C3_13 1_555 1_555
O11_13 Pr3_2 1_555 1_555
K4_2 O3_13 1_555 1_555
O13_7 Pr3_2 1_555 1_555
O14_7 Pr3_2 1_555 1_555
O4_13 K4_2 1_555 1_555
C16_13 H7_13 1_555 1_555
C16_13 H8_13 1_555 1_555
C16_13 H9_13 1_555 1_555
K4_2 O2_7 1_555 1_555
O1_7 C7_13 1_555 1_555
O2_7 C7_13 1_555 1_555
C1_13 C2_13 1_555 1_555
C5_13 C4_13 1_555 1_555
H2_13 C5_13 1_555 1_555
C6_13 C1_13 1_555 1_555
H3_13 C6_13 1_555 1_555
C7_13 C1_13 1_555 1_555
N1_13 C15_13 1_555 1_555
C17_13 N1_13 1_555 1_555
O12_13 K4_2 1_555 1_555
K4_6 O5_7 1_555 1_555
Pr4_2 O1_7 1_555 1_555
O17_7 K4_2 1_555 1_555
O2_7 Pr4_2 1_555 1_555
C5_13 C6_13 1_555 1_555
C17_13 H11_13 1_555 1_555
C17_13 H12_13 1_555 1_555
O12_13 H14_13 1_555 1_555
C15_13 H15_13 1_555 1_555
S1_14 O3_14 1_555 1_555
O3_14 Pr3_3 1_555 1_555
O4_14 S1_14 1_555 1_555
O18_11 C14_14 1_555 1_555
O19_4 C14_14 1_555 1_555
H1_14 C3_14 1_555 1_555
H4_14 C9_14 1_555 1_555
C10_14 C9_14 1_555 1_555
H5_14 C10_14 1_555 1_555
C11_14 C10_14 1_555 1_555
C14_14 C11_14 1_555 1_555
O11_14 Pr3_3 1_555 1_555
K4_3 O3_14 1_555 1_555
O13_8 Pr3_3 1_555 1_555
O14_8 Pr3_3 1_555 1_555
O4_14 K4_3 1_555 1_555
C16_14 H7_14 1_555 1_555
C16_14 H8_14 1_555 1_555
C16_14 H9_14 1_555 1_555
K4_3 O2_8 1_555 1_555
O1_8 C7_14 1_555 1_555
O2_8 C7_14 1_555 1_555
O22_7 S2_14 1_555 1_555
O10_17 S2_14 1_555 1_555
C1_14 C2_14 1_555 1_555
C5_14 C4_14 1_555 1_555
H2_14 C5_14 1_555 1_555
C6_14 C1_14 1_555 1_555
H3_14 C6_14 1_555 1_555
C7_14 C1_14 1_555 1_555
C8_14 C4_14 1_555 1_555
C12_14 S2_14 1_555 1_555
C13_14 C8_14 1_555 1_555
H6_14 C13_14 1_555 1_555
N1_14 C15_14 1_555 1_555
C17_14 N1_14 1_555 1_555
O12_14 K4_3 1_555 1_555
K4_5 O5_8 1_555 1_555
Pr4_3 O1_8 1_555 1_555
O17_8 K4_3 1_555 1_555
O2_8 Pr4_3 1_555 1_555
C5_14 C6_14 1_555 1_555
C12_14 C13_14 1_555 1_555
C17_14 H11_14 1_555 1_555
C17_14 H12_14 1_555 1_555
O12_14 H13_14 1_555 1_555
O12_14 H14_14 1_555 1_555
C15_14 H15_14 1_555 1_555
S1_15 O3_15 1_555 1_555
O3_15 Pr3 1_555 1_555
O4_15 S1_15 1_555 1_555
H1_15 C3_15 1_555 1_555
O11_15 Pr3 1_555 1_555
K4 O3_15 1_555 1_555
O13_9 Pr3 1_555 1_555
O14_9 Pr3 1_555 1_555
O4_15 K4 1_555 1_555
C16_15 H7_15 1_555 1_555
C16_15 H8_15 1_555 1_555
C16_15 H9_15 1_555 1_555
K4 O2_9 1_555 1_555
O1_9 C7_15 1_555 1_555
O2_9 C7_15 1_555 1_555
C1_15 C2_15 1_555 1_555
C5_15 C4_15 1_555 1_555
H2_15 C5_15 1_555 1_555
C6_15 C1_15 1_555 1_555
H3_15 C6_15 1_555 1_555
C7_15 C1_15 1_555 1_555
N1_15 C15_15 1_555 1_555
C17_15 N1_15 1_555 1_555
O12_15 K4 1_555 1_555
K4_4 O5_9 1_555 1_555
Pr4 O1_9 1_555 1_555
O17_9 K4 1_555 1_555
O2_9 Pr4 1_555 1_555
C5_15 C6_15 1_555 1_555
C17_15 H11_15 1_555 1_555
C17_15 H12_15 1_555 1_555
O12_15 H14_15 1_555 1_555
C15_15 H15_15 1_555 1_555
O18_10 C14_15 1_555 1_555
O19_5 C14_15 1_555 1_555
H4_15 C9_15 1_555 1_555
C10_15 C9_15 1_555 1_555
H5_15 C10_15 1_555 1_555
C11_15 C10_15 1_555 1_555
C14_15 C11_15 1_555 1_555
O22_8 S2_15 1_555 1_555
O10_18 S2_15 1_555 1_555
C12_15 S2_15 1_555 1_555
C13_15 C8_15 1_555 1_555
H6_15 C13_15 1_555 1_555
C12_15 C13_15 1_555 1_555
Pr4_3 O13_8 1_555 1_555
S1_16 O3_16 1_555 1_555
O13_8 C7_16 1_555 1_555
O14_8 C7_16 1_555 1_555
O3_16 Pr4_3 1_555 1_555
O4_16 S1_16 1_555 1_555
O17_8 S1_16 1_555 1_555
C1_16 C2_16 1_555 1_555
C2_16 S1_16 1_555 1_555
C3_16 C2_16 1_555 1_555
H1_16 C3_16 1_555 1_555
C4_16 C3_16 1_555 1_555
C5_16 C4_16 1_555 1_555
H2_16 C5_16 1_555 1_555
C6_16 C1_16 1_555 1_555
H3_16 C6_16 1_555 1_555
C7_16 C1_16 1_555 1_555
O11_16 Pr4_3 1_555 1_555
C15_16 O11_16 1_555 1_555
N1_16 C15_16 1_555 1_555
C16_16 N1_16 1_555 1_555
C17_16 N1_16 1_555 1_555
K4_5 O3_16 1_555 1_555
O4_16 K4_5 1_555 1_555
C5_16 C6_16 1_555 1_555
C16_16 H7_16 1_555 1_555
C16_16 H8_16 1_555 1_555
C16_16 H9_16 1_555 1_555
C17_16 H10_16 1_555 1_555
C17_16 H11_16 1_555 1_555
C17_16 H12_16 1_555 1_555
C15_16 H15_16 1_555 1_555
O12_16 K4_5 1_555 1_555
O12_16 H14_16 1_555 1_555
S2_16 O21_12 1_555 1_555
O18_9 C14_16 1_555 1_555
O20_6 C14_16 1_555 1_555
O22_12 S2_16 1_555 1_555
O10_19 S2_16 1_555 1_555
C9_16 C8_16 1_555 1_555
H4_16 C9_16 1_555 1_555
C10_16 C9_16 1_555 1_555
H5_16 C10_16 1_555 1_555
C11_16 C10_16 1_555 1_555
C12_16 S2_16 1_555 1_555
C13_16 C8_16 1_555 1_555
H6_16 C13_16 1_555 1_555
C14_16 C11_16 1_555 1_555
C11_16 C12_16 1_555 1_555
C12_16 C13_16 1_555 1_555
Pr4_2 O13_7 1_555 1_555
S1_17 O3_17 1_555 1_555
S2_17 O21_10 1_555 1_555
O13_7 C7_17 1_555 1_555
O14_7 C7_17 1_555 1_555
O3_17 Pr4_2 1_555 1_555
O4_17 S1_17 1_555 1_555
O17_7 S1_17 1_555 1_555
O18_8 C14_17 1_555 1_555
O20_5 C14_17 1_555 1_555
O22_10 S2_17 1_555 1_555
O10_20 S2_17 1_555 1_555
C1_17 C2_17 1_555 1_555
C2_17 S1_17 1_555 1_555
C3_17 C2_17 1_555 1_555
H1_17 C3_17 1_555 1_555
C4_17 C3_17 1_555 1_555
C5_17 C4_17 1_555 1_555
H2_17 C5_17 1_555 1_555
C6_17 C1_17 1_555 1_555
H3_17 C6_17 1_555 1_555
C7_17 C1_17 1_555 1_555
C8_17 C4_17 1_555 1_555
C9_17 C8_17 1_555 1_555
H4_17 C9_17 1_555 1_555
C10_17 C9_17 1_555 1_555
H5_17 C10_17 1_555 1_555
C11_17 C10_17 1_555 1_555
C12_17 S2_17 1_555 1_555
C13_17 C8_17 1_555 1_555
H6_17 C13_17 1_555 1_555
C14_17 C11_17 1_555 1_555
O11_17 Pr4_2 1_555 1_555
C15_17 O11_17 1_555 1_555
N1_17 C15_17 1_555 1_555
C16_17 N1_17 1_555 1_555
C17_17 N1_17 1_555 1_555
K4_6 O3_17 1_555 1_555
O4_17 K4_6 1_555 1_555
C5_17 C6_17 1_555 1_555
C11_17 C12_17 1_555 1_555
C12_17 C13_17 1_555 1_555
C16_17 H7_17 1_555 1_555
C16_17 H8_17 1_555 1_555
C16_17 H9_17 1_555 1_555
C17_17 H10_17 1_555 1_555
C17_17 H11_17 1_555 1_555
C17_17 H12_17 1_555 1_555
C15_17 H15_17 1_555 1_555
O12_17 K4_6 1_555 1_555
O12_17 H13_16 1_555 1_555
O12_17 H14_17 1_555 1_555
S2_18 O21_11 1_555 1_555
O18_7 C14_18 1_555 1_555
O20_4 C14_18 1_555 1_555
O22_11 S2_18 1_555 1_555
O10_21 S2_18 1_555 1_555
C9_18 C8_18 1_555 1_555
H4_18 C9_18 1_555 1_555
C10_18 C9_18 1_555 1_555
H5_18 C10_18 1_555 1_555
C11_18 C10_18 1_555 1_555
C12_18 S2_18 1_555 1_555
C13_18 C8_18 1_555 1_555
H6_18 C13_18 1_555 1_555
C14_18 C11_18 1_555 1_555
C11_18 C12_18 1_555 1_555
C12_18 C13_18 1_555 1_555
Pr4 O13_9 1_555 1_555
S1_18 O3_18 1_555 1_555
O13_9 C7_18 1_555 1_555
O14_9 C7_18 1_555 1_555
O3_18 Pr4 1_555 1_555
O4_18 S1_18 1_555 1_555
O17_9 S1_18 1_555 1_555
C1_18 C2_18 1_555 1_555
C2_18 S1_18 1_555 1_555
C3_18 C2_18 1_555 1_555
H1_18 C3_18 1_555 1_555
C4_18 C3_18 1_555 1_555
C5_18 C4_18 1_555 1_555
H2_18 C5_18 1_555 1_555
C6_18 C1_18 1_555 1_555
H3_18 C6_18 1_555 1_555
C7_18 C1_18 1_555 1_555
O11_18 Pr4 1_555 1_555
C15_18 O11_18 1_555 1_555
N1_18 C15_18 1_555 1_555
C16_18 N1_18 1_555 1_555
C17_18 N1_18 1_555 1_555
K4_4 O3_18 1_555 1_555
O4_18 K4_4 1_555 1_555
C5_18 C6_18 1_555 1_555
C16_18 H7_18 1_555 1_555
C16_18 H8_18 1_555 1_555
C16_18 H9_18 1_555 1_555
C17_18 H10_18 1_555 1_555
C17_18 H11_18 1_555 1_555
C17_18 H12_18 1_555 1_555
C15_18 H15_18 1_555 1_555
O12_18 K4_4 1_555 1_555
O12_18 H14_18 1_555 1_555

#END
