
###############################################################################
#
# This file contains modified crystal structure data generated from the
# MOF subset of the Cambridge Structural Database (CSD) v543 
# hosted by the Cambridge Crystallographic Data Centre (CCDC).
#
# This work is licensed under the Creative Commons
# Attribution-NonCommercial-ShareAlike 4.0 International License.
# To view a copy of this license, visit
# http://creativecommons.org/licenses/by-nc-sa/4.0/
# or send a letter to
# Creative Commons, PO Box 1866, Mountain View, CA 94042, USA.
#
# CIF created using the CSD Python API on 29 September 2022
# The structure has been converted into the P1 space group
# The structure has a 3D framework
# The original CSD entry IKOXAK is in the tetragonal crystal system
# The original CSD entry IKOXAK is in a Sohncke space group
# The framework has been calculated to contain at least 10.0% void space
# The void calculation uses a probe of radius 1.32A, grid spacing 0.4
#
###############################################################################

data_IKOXAK
_chemical_formula_moiety         '(C272 H288 N32 Ni8 O32)n'
_symmetry_cell_setting           triclinic
_symmetry_space_group_name_H-M   'P 1'
_symmetry_Int_Tables_number      1
_space_group_name_Hall           'P 1'
loop_
_symmetry_equiv_pos_site_id
_symmetry_equiv_pos_as_xyz
1 x,y,z
_cell_length_a                   21.0168(13)
_cell_length_b                   21.0168(13)
_cell_length_c                   20.7903(19)
_cell_angle_alpha                90
_cell_angle_beta                 90
_cell_angle_gamma                90
_cell_volume                     9183.2
loop_
_atom_site_label
_atom_site_type_symbol
_atom_site_fract_x
_atom_site_fract_y
_atom_site_fract_z
N7 N 0.2025(3) 0.7907(3) 0.5374(3)
H32 H 0.0260 0.7152 0.6686
C38 C 0.0119(4) 0.7896(4) 0.6092(4)
C45 C 0.0773(4) 0.7915(4) 0.5844(4)
C46 C 0.1089(4) 0.8486(4) 0.5682(4)
H43 H 0.0881 0.8884 0.5729
C47 C 0.1695(4) 0.8456(4) 0.5457(4)
H44 H 0.1902 0.8844 0.5352
C48 C 0.1717(4) 0.7374(4) 0.5542(4)
H45 H 0.1934 0.6980 0.5498
C49 C 0.1115(4) 0.7366(4) 0.5771(4)
H46 H 0.0925 0.6971 0.5884
Ni5 Ni 0.28625(5) 0.78211(5) 0.48252(5)
N8 N 0.7134(4) 0.8769(4) 0.1334(4)
H68 H 0.7493 0.9786 0.4211
C64 C 0.7361(4) 0.9889(4) 0.2039(4)
C65 C 0.7749(5) 0.9702(4) 0.1546(5)
H69 H 0.8102 0.9960 0.1432
C66 C 0.7635(5) 0.9137(5) 0.1205(5)
H70 H 0.7922 0.9013 0.0875
C67 C 0.6725(5) 0.8983(5) 0.1772(5)
H71 H 0.6349 0.8744 0.1847
C68 C 0.6815(5) 0.9528(5) 0.2119(6)
H72 H 0.6500 0.9661 0.2418
Ni4 Ni 0.71002(6) 0.78057(5) 0.09941(5)
N8_2 N 0.2866(4) 0.1231(4) 0.6334(4)
H68_2 H 0.2507 0.0214 0.9211
C64_2 C 0.2639(4) 0.0111(4) 0.7039(4)
C65_2 C 0.2251(5) 0.0298(4) 0.6546(5)
H69_2 H 0.1898 0.0040 0.6432
C66_2 C 0.2365(5) 0.0863(5) 0.6205(5)
H70_2 H 0.2078 0.0987 0.5875
C67_2 C 0.3275(5) 0.1017(5) 0.6772(5)
H71_2 H 0.3651 0.1256 0.6847
C68_2 C 0.3185(5) 0.0472(5) 0.7119(6)
H72_2 H 0.3500 0.0339 0.7418
Ni4_2 Ni 0.28998(6) 0.21943(5) 0.59941(5)
N7_2 N 0.7975(3) 0.2093(3) 0.0374(3)
H32_2 H 0.9740 0.2848 0.1686
C38_2 C 0.9881(4) 0.2104(4) 0.1092(4)
C45_2 C 0.9227(4) 0.2085(4) 0.0844(4)
C46_2 C 0.8911(4) 0.1514(4) 0.0682(4)
H43_2 H 0.9119 0.1116 0.0729
C47_2 C 0.8305(4) 0.1544(4) 0.0457(4)
H44_2 H 0.8098 0.1156 0.0352
C48_2 C 0.8283(4) 0.2626(4) 0.0542(4)
H45_2 H 0.8066 0.3020 0.0498
C49_2 C 0.8885(4) 0.2634(4) 0.0771(4)
H46_2 H 0.9075 0.3029 0.0884
Ni5_2 Ni 0.71375(5) 0.21789(5) 0.98252(5)
O1 O 0.8028(3) 0.7771(3) 0.1167(3)
O3 O 0.5882(3) 0.7637(3) 0.0244(3)
O4 O 0.6945(3) 0.7524(3) 0.1914(3)
O5 O 0.2352(3) 0.8232(3) 0.4128(3)
O6 O 0.3803(3) 0.8778(3) 0.5398(3)
O7 O 0.3656(3) 0.7625(3) 0.6058(3)
O8 O 0.2577(3) 0.6971(3) 0.4479(3)
C1 C 0.8458(4) 0.7828(4) 0.0116(5)
N1 N 0.7342(4) 0.8116(3) 0.0080(3)
N2 N 0.6131(3) 0.7752(3) 0.0880(3)
N3 N 0.3669(3) 0.7727(4) 0.4251(3)
N4 N 0.3218(3) 0.8715(3) 0.5053(3)
N5 N 0.3277(3) 0.7321(3) 0.5571(3)
N6 N 0.2884(3) 0.3151(3) 0.5689(3)
C2 C 0.8521(4) 0.7687(4) 0.0795(4)
H3 H 0.6461 0.8792 0.0327
H4 H 0.5432 0.8455 0.0087
C6 C 0.5708(5) 0.7585(4) 0.1298(4)
H6 H 0.5296 0.7473 0.1149
C7 C 0.5829(4) 0.7561(4) 0.1981(4)
C8 C 0.6453(4) 0.7541(5) 0.2258(5)
C9 C 0.6488(5) 0.7510(6) 0.2947(5)
C10 C 0.5930(5) 0.7515(5) 0.3292(5)
H7 H 0.5967 0.7504 0.3747
C11 C 0.5309(5) 0.7534(5) 0.3039(5)
C12 C 0.5267(4) 0.7551(4) 0.2370(5)
H8 H 0.4861 0.7555 0.2170
C13 C 0.4756(4) 0.7582(4) 0.3455(5)
C14 C 0.4787(4) 0.7519(5) 0.4114(5)
H9 H 0.5183 0.7426 0.4313
C15 C 0.4250(4) 0.7590(5) 0.4487(5)
H10 H 0.4292 0.7538 0.4939
C16 C 0.2245(4) 0.8833(4) 0.3988(4)
C17 C 0.2631(4) 0.9318(4) 0.4253(4)
C18 C 0.3123(4) 0.9217(4) 0.4721(4)
H11 H 0.3409 0.9560 0.4791
C19 C 0.3671(4) 0.8764(4) 0.6088(4)
H12 H 0.3399 0.9132 0.6200
H13 H 0.4077 0.8809 0.6326
C20 C 0.3349(4) 0.8169(4) 0.6301(4)
H14 H 0.3346 0.8152 0.6777
H15 H 0.2902 0.8174 0.6152
C21 C 0.3295(4) 0.6714(4) 0.5647(4)
H16 H 0.3536 0.6561 0.6001
C22 C 0.2990(4) 0.6244(4) 0.5254(4)
C23 C 0.2661(4) 0.6396(4) 0.4664(4)
C24 C 0.2402(5) 0.5872(4) 0.4299(4)
C25 C 0.2509(4) 0.5267(4) 0.4524(4)
H17 H 0.2362 0.4925 0.4266
C26 C 0.2811(5) 0.5111(4) 0.5095(5)
C27 C 0.3053(4) 0.5608(4) 0.5454(4)
H18 H 0.3266 0.5518 0.5846
C28 C 0.2860(4) 0.4441(4) 0.5318(4)
C29 C 0.2977(4) 0.3964(4) 0.4886(4)
H19 H 0.3049 0.4065 0.4447
C30 C 0.2992(4) 0.3344(4) 0.5084(4)
H20 H 0.3084 0.3028 0.4772
C31 C 0.2790(5) 0.3612(4) 0.6111(5)
H21 H 0.2740 0.3494 0.6550
C32 C 0.2759(5) 0.4250(5) 0.5961(5)
H22 H 0.2671 0.4556 0.6285
C33 C 0.2021(6) 0.6005(5) 0.3677(5)
C34 C 0.1442(5) 0.6401(5) 0.3822(5)
H23 H 0.1170 0.6174 0.4129
H24 H 0.1204 0.6477 0.3424
H25 H 0.1574 0.6808 0.4008
C35 C 0.2458(6) 0.6350(5) 0.3192(5)
H26 H 0.2489 0.6801 0.3308
H27 H 0.2280 0.6311 0.2758
H28 H 0.2883 0.6157 0.3203
C36 C 0.1780(7) 0.5405(5) 0.3365(6)
H29 H 0.2119 0.5086 0.3359
H30 H 0.1646 0.5498 0.2924
H31 H 0.1416 0.5242 0.3610
C37 C 0.2564(4) 0.9944(4) 0.4029(5)
C39 C 0.1679(4) 0.9633(4) 0.3377(4)
H33 H 0.1337 0.9748 0.3101
C40 C 0.1743(4) 0.9012(4) 0.3552(4)
C41 C 0.1280(4) 0.8487(4) 0.3286(5)
C42 C 0.1629(5) 0.8013(4) 0.2889(5)
H34 H 0.1836 0.8230 0.2528
H35 H 0.1329 0.7696 0.2724
H36 H 0.1952 0.7802 0.3154
C43 C 0.0924(5) 0.8178(5) 0.3851(5)
H37 H 0.1226 0.7941 0.4118
H38 H 0.0599 0.7887 0.3685
H39 H 0.0720 0.8510 0.4111
C44 C 0.0755(5) 0.8806(5) 0.2875(6)
H40 H 0.0618 0.9201 0.3083
H41 H 0.0392 0.8517 0.2835
H42 H 0.0924 0.8902 0.2446
C50 C 0.3637(5) 0.7769(5) 0.3609(4)
H47 H 0.3230 0.7839 0.3423
C51 C 0.4138(5) 0.7718(5) 0.3204(5)
H48 H 0.4080 0.7773 0.2754
C52 C 0.7155(6) 0.7443(7) 0.3279(6)
C53 C 0.7436(6) 0.6798(7) 0.3117(6)
H49 H 0.7166 0.6463 0.3299
H50 H 0.7865 0.6766 0.3299
H51 H 0.7457 0.6748 0.2649
C54 C 0.7546(7) 0.8018(8) 0.3114(7)
H52 H 0.7623 0.8028 0.2650
H53 H 0.7954 0.7998 0.3342
H54 H 0.7317 0.8403 0.3244
C55 C 0.7073(6) 0.7446(8) 0.4037(6)
H55 H 0.6983 0.7880 0.4183
H56 H 0.7466 0.7293 0.4239
H57 H 0.6719 0.7166 0.4157
C58 C 0.9595(5) 0.7363(5) 0.0620(5)
H59 H 0.9976 0.7180 0.0782
C59 C 0.9119(4) 0.7492(4) 0.1047(5)
C60 C 0.9212(5) 0.7433(6) 0.1764(5)
C61 C 0.8754(5) 0.6893(6) 0.2038(6)
H60 H 0.8310 0.7025 0.1983
H61 H 0.8842 0.6827 0.2496
H62 H 0.8827 0.6496 0.1803
C62 C 0.9097(5) 0.8067(6) 0.2098(5)
H63 H 0.9423 0.8373 0.1964
H64 H 0.9118 0.8009 0.2565
H65 H 0.8675 0.8229 0.1980
C63 C 0.9909(5) 0.7214(7) 0.1929(5)
H66 H 0.9972 0.6775 0.1783
H67 H 0.9976 0.7238 0.2395
N9 N 0.7116(3) 0.6849(3) 0.0689(3)
O6_2 O 0.6197(3) 0.1222(3) 0.0398(3)
O7_2 O 0.6344(3) 0.2375(3) 0.1058(3)
N4_2 N 0.6782(3) 0.1285(3) 0.0053(3)
N5_2 N 0.6723(3) 0.2679(3) 0.0571(3)
C19_2 C 0.6329(4) 0.1236(4) 0.1088(4)
H12_2 H 0.6601 0.0868 0.1200
H13_2 H 0.5923 0.1191 0.1326
C20_2 C 0.6651(4) 0.1831(4) 0.1301(4)
H14_2 H 0.6654 0.1848 0.1777
H15_2 H 0.7098 0.1826 0.1152
C21_2 C 0.6705(4) 0.3286(4) 0.0647(4)
H16_2 H 0.6464 0.3439 0.1001
C22_2 C 0.7010(4) 0.3756(4) 0.0254(4)
C26_2 C 0.7189(5) 0.4889(4) 0.0095(5)
C27_2 C 0.6947(4) 0.4392(4) 0.0454(4)
H18_2 H 0.6734 0.4482 0.0846
C28_2 C 0.7140(4) 0.5559(4) 0.0318(4)
C30_2 C 0.7008(4) 0.6656(4) 0.0084(4)
C31_2 C 0.7210(5) 0.6388(4) 0.1111(5)
H21_2 H 0.7260 0.6506 0.1550
C32_2 C 0.7241(5) 0.5750(5) 0.0961(5)
H22_2 H 0.7329 0.5444 0.1285
O1_2 O 0.1972(3) 0.2229(3) 0.6167(3)
O2 O 0.3102(3) 0.1646(3) 0.4608(3)
O3_2 O 0.4118(3) 0.2363(3) 0.5244(3)
O4_2 O 0.3055(3) 0.2476(3) 0.6914(3)
O5_2 O 0.7648(3) 0.1768(3) 0.9128(3)
O8_2 O 0.7423(3) 0.3029(3) 0.9479(3)
C1_2 C 0.1542(4) 0.2172(4) 0.5116(5)
N1_2 N 0.2658(4) 0.1884(3) 0.5080(3)
N2_2 N 0.3869(3) 0.2248(3) 0.5880(3)
N3_2 N 0.6331(3) 0.2273(4) 0.9251(3)
C2_2 C 0.1479(4) 0.2313(4) 0.5795(4)
C3 C 0.2105(4) 0.1948(4) 0.4816(5)
H1 H 0.2072 0.1832 0.4375
C4 C 0.3641(4) 0.1344(5) 0.4882(5)
H2 H 0.3746 0.0959 0.4630
H3_2 H 0.3539 0.1208 0.5327
C5 C 0.4205(5) 0.1777(5) 0.4895(5)
H4_2 H 0.4568 0.1545 0.5087
H5 H 0.4322 0.1882 0.4446
C6_2 C 0.4292(5) 0.2415(4) 0.6298(4)
H6_2 H 0.4704 0.2527 0.6149
C7_2 C 0.4171(4) 0.2439(4) 0.6981(4)
C8_2 C 0.3547(4) 0.2459(5) 0.7258(5)
C9_2 C 0.3512(5) 0.2490(6) 0.7947(5)
C10_2 C 0.4070(5) 0.2485(5) 0.8292(5)
H7_2 H 0.4033 0.2496 0.8747
C11_2 C 0.4691(5) 0.2466(5) 0.8039(5)
C12_2 C 0.4733(4) 0.2449(4) 0.7370(5)
H8_2 H 0.5139 0.2445 0.7170
C13_2 C 0.5244(4) 0.2418(4) 0.8455(5)
C14_2 C 0.5213(4) 0.2481(5) 0.9114(5)
H9_2 H 0.4817 0.2574 0.9313
C15_2 C 0.5750(4) 0.2410(5) 0.9487(5)
H10_2 H 0.5708 0.2462 0.9939
C16_2 C 0.7755(4) 0.1167(4) 0.8988(4)
C17_2 C 0.7369(4) 0.0682(4) 0.9253(4)
C18_2 C 0.6877(4) 0.0783(4) 0.9721(4)
H11_2 H 0.6591 0.0440 0.9791
C23_2 C 0.7339(4) 0.3604(4) 0.9664(4)
C24_2 C 0.7598(5) 0.4128(4) 0.9299(4)
C25_2 C 0.7491(4) 0.4733(4) 0.9524(4)
H17_2 H 0.7638 0.5075 0.9266
C29_2 C 0.7023(4) 0.6036(4) 0.9886(4)
H19_2 H 0.6951 0.5935 0.9447
H20_2 H 0.6916 0.6972 0.9772
C33_2 C 0.7979(6) 0.3995(5) 0.8677(5)
C34_2 C 0.8558(5) 0.3599(5) 0.8822(5)
H23_2 H 0.8830 0.3826 0.9129
H24_2 H 0.8796 0.3523 0.8424
H25_2 H 0.8426 0.3192 0.9008
C35_2 C 0.7542(6) 0.3650(5) 0.8192(5)
H26_2 H 0.7511 0.3199 0.8308
H27_2 H 0.7720 0.3689 0.7758
H28_2 H 0.7117 0.3843 0.8203
C36_2 C 0.8220(7) 0.4595(5) 0.8365(6)
H29_2 H 0.7881 0.4914 0.8359
H30_2 H 0.8354 0.4502 0.7924
H31_2 H 0.8584 0.4758 0.8610
C37_2 C 0.7436(4) 0.0056(4) 0.9029(5)
C39_2 C 0.8321(4) 0.0367(4) 0.8377(4)
H33_2 H 0.8663 0.0252 0.8101
C40_2 C 0.8257(4) 0.0988(4) 0.8552(4)
C41_2 C 0.8720(4) 0.1513(4) 0.8286(5)
C42_2 C 0.8371(5) 0.1987(4) 0.7889(5)
H34_2 H 0.8164 0.1770 0.7528
H35_2 H 0.8671 0.2304 0.7724
H36_2 H 0.8048 0.2198 0.8154
C43_2 C 0.9076(5) 0.1822(5) 0.8851(5)
H37_2 H 0.8774 0.2059 0.9118
H38_2 H 0.9401 0.2113 0.8685
H39_2 H 0.9280 0.1490 0.9111
C44_2 C 0.9245(5) 0.1194(5) 0.7875(6)
H40_2 H 0.9382 0.0799 0.8083
H41_2 H 0.9608 0.1483 0.7835
H42_2 H 0.9076 0.1098 0.7446
C50_2 C 0.6363(5) 0.2231(5) 0.8609(4)
H47_2 H 0.6770 0.2161 0.8423
C51_2 C 0.5862(5) 0.2282(5) 0.8204(5)
H48_2 H 0.5920 0.2227 0.7754
C52_2 C 0.2845(6) 0.2557(7) 0.8279(6)
C53_2 C 0.2564(6) 0.3202(7) 0.8117(6)
H49_2 H 0.2834 0.3537 0.8299
H50_2 H 0.2135 0.3234 0.8299
H51_2 H 0.2543 0.3252 0.7649
C54_2 C 0.2454(7) 0.1982(8) 0.8114(7)
H52_2 H 0.2377 0.1972 0.7650
H53_2 H 0.2046 0.2002 0.8342
H54_2 H 0.2683 0.1597 0.8244
C55_2 C 0.2927(6) 0.2554(8) 0.9037(6)
H55_2 H 0.3017 0.2120 0.9183
H56_2 H 0.2534 0.2707 0.9239
H57_2 H 0.3281 0.2834 0.9157
C56 C 0.0995(4) 0.2261(4) 0.4713(5)
H58 H 0.1023 0.2140 0.4274
C57 C 0.0444(5) 0.2509(4) 0.4929(5)
C58_2 C 0.0405(5) 0.2637(5) 0.5620(5)
H59_2 H 0.0024 0.2820 0.5782
C59_2 C 0.0881(4) 0.2508(4) 0.6047(5)
C60_2 C 0.0788(5) 0.2567(6) 0.6764(5)
C61_2 C 0.1246(5) 0.3107(6) 0.7038(6)
H60_2 H 0.1690 0.2975 0.6983
H61_2 H 0.1158 0.3173 0.7496
H62_2 H 0.1173 0.3504 0.6803
C62_2 C 0.0903(5) 0.1933(6) 0.7098(5)
H63_2 H 0.0577 0.1627 0.6964
H64_2 H 0.0882 0.1991 0.7565
H65_2 H 0.1325 0.1771 0.6980
C63_2 C 0.0091(5) 0.2786(7) 0.6929(5)
H66_2 H 0.0028 0.3225 0.6783
H67_2 H 0.0024 0.2762 0.7395
Ni1 Ni 0.78057(5) 0.28998(6) 0.34941(5)
Ni2 Ni 0.78211(5) 0.71375(5) 0.73252(5)
O1_3 O 0.7771(3) 0.1972(3) 0.3667(3)
O2_2 O 0.8354(3) 0.3102(3) 0.2108(3)
O3_3 O 0.7637(3) 0.4118(3) 0.2744(3)
O4_3 O 0.7524(3) 0.3055(3) 0.4414(3)
O5_3 O 0.8232(3) 0.7648(3) 0.6628(3)
O6_3 O 0.8778(3) 0.6197(3) 0.7898(3)
O7_3 O 0.7625(3) 0.6344(3) 0.8558(3)
O8_3 O 0.6971(3) 0.7423(3) 0.6979(3)
C1_3 C 0.7828(4) 0.1542(4) 0.2616(5)
N1_3 N 0.8116(3) 0.2658(4) 0.2580(3)
N2_3 N 0.7752(3) 0.3869(3) 0.3380(3)
N3_3 N 0.7727(4) 0.6331(3) 0.6751(3)
N4_3 N 0.8715(3) 0.6782(3) 0.7553(3)
N5_3 N 0.7321(3) 0.6723(3) 0.8071(3)
N6_2 N 0.3151(3) 0.7116(3) 0.8189(3)
C2_3 C 0.7687(4) 0.1479(4) 0.3295(4)
C3_2 C 0.8052(4) 0.2105(4) 0.2316(5)
H1_2 H 0.8168 0.2072 0.1875
C4_2 C 0.8656(5) 0.3641(4) 0.2382(5)
H2_2 H 0.9041 0.3746 0.2130
H3_3 H 0.8792 0.3539 0.2827
C5_2 C 0.8223(5) 0.4205(5) 0.2395(5)
H4_3 H 0.8455 0.4568 0.2587
H5_2 H 0.8118 0.4322 0.1946
C6_3 C 0.7585(4) 0.4292(5) 0.3798(4)
H6_3 H 0.7473 0.4704 0.3649
C7_3 C 0.7561(4) 0.4171(4) 0.4481(4)
C8_3 C 0.7541(5) 0.3547(4) 0.4758(5)
C9_3 C 0.7510(6) 0.3512(5) 0.5447(5)
C10_3 C 0.7515(5) 0.4070(5) 0.5792(5)
H7_3 H 0.7504 0.4033 0.6247
C11_3 C 0.7534(5) 0.4691(5) 0.5539(5)
C12_3 C 0.7551(4) 0.4733(4) 0.4870(5)
H8_3 H 0.7555 0.5139 0.4670
C13_3 C 0.7582(4) 0.5244(4) 0.5955(5)
C14_3 C 0.7519(5) 0.5213(4) 0.6614(5)
H9_3 H 0.7426 0.4817 0.6813
C15_3 C 0.7590(5) 0.5750(4) 0.6987(5)
H10_3 H 0.7538 0.5708 0.7439
C16_3 C 0.8833(4) 0.7755(4) 0.6488(4)
C17_3 C 0.9318(4) 0.7369(4) 0.6753(4)
C18_3 C 0.9217(4) 0.6877(4) 0.7221(4)
H11_3 H 0.9560 0.6591 0.7291
C19_3 C 0.8764(4) 0.6329(4) 0.8588(4)
H12_3 H 0.9132 0.6601 0.8700
H13_3 H 0.8809 0.5923 0.8826
C20_3 C 0.8169(4) 0.6651(4) 0.8801(4)
H14_3 H 0.8152 0.6654 0.9277
H15_3 H 0.8174 0.7098 0.8652
C21_3 C 0.6714(4) 0.6705(4) 0.8147(4)
H16_3 H 0.6561 0.6464 0.8501
C22_3 C 0.6244(4) 0.7010(4) 0.7754(4)
C23_3 C 0.6396(4) 0.7339(4) 0.7164(4)
C24_3 C 0.5872(4) 0.7598(5) 0.6799(4)
C25_3 C 0.5267(4) 0.7491(4) 0.7024(4)
H17_3 H 0.4925 0.7638 0.6766
C26_3 C 0.5111(4) 0.7189(5) 0.7595(5)
C27_3 C 0.5608(4) 0.6947(4) 0.7954(4)
H18_3 H 0.5518 0.6734 0.8346
C28_3 C 0.4441(4) 0.7140(4) 0.7818(4)
C29_3 C 0.3964(4) 0.7023(4) 0.7386(4)
H19_3 H 0.4065 0.6951 0.6947
C30_3 C 0.3344(4) 0.7008(4) 0.7584(4)
H20_3 H 0.3028 0.6916 0.7272
C31_3 C 0.3612(4) 0.7210(5) 0.8611(5)
H21_3 H 0.3494 0.7260 0.9050
C32_3 C 0.4250(5) 0.7241(5) 0.8461(5)
H22_3 H 0.4556 0.7329 0.8785
C33_3 C 0.6005(5) 0.7979(6) 0.6177(5)
C34_3 C 0.6401(5) 0.8558(5) 0.6322(5)
H23_3 H 0.6174 0.8830 0.6629
H24_3 H 0.6477 0.8796 0.5924
H25_3 H 0.6808 0.8426 0.6508
C35_3 C 0.6350(5) 0.7542(6) 0.5692(5)
H26_3 H 0.6801 0.7511 0.5808
H27_3 H 0.6311 0.7720 0.5258
H28_3 H 0.6157 0.7117 0.5703
C36_3 C 0.5405(5) 0.8220(7) 0.5865(6)
H29_3 H 0.5086 0.7881 0.5859
H30_3 H 0.5498 0.8354 0.5424
H31_3 H 0.5242 0.8584 0.6110
C37_3 C 0.9944(4) 0.7436(4) 0.6529(5)
C39_3 C 0.9633(4) 0.8321(4) 0.5877(4)
H33_3 H 0.9748 0.8663 0.5601
C40_3 C 0.9012(4) 0.8257(4) 0.6052(4)
C41_3 C 0.8487(4) 0.8720(4) 0.5786(5)
C42_3 C 0.8013(4) 0.8371(5) 0.5389(5)
H34_3 H 0.8230 0.8164 0.5028
H35_3 H 0.7696 0.8671 0.5224
H36_3 H 0.7802 0.8048 0.5654
C43_3 C 0.8178(5) 0.9076(5) 0.6351(5)
H37_3 H 0.7941 0.8774 0.6618
H38_3 H 0.7887 0.9401 0.6185
H39_3 H 0.8510 0.9280 0.6611
C44_3 C 0.8806(5) 0.9245(5) 0.5375(6)
H40_3 H 0.9201 0.9382 0.5583
H41_3 H 0.8517 0.9608 0.5335
H42_3 H 0.8902 0.9076 0.4946
C50_3 C 0.7769(5) 0.6363(5) 0.6109(4)
H47_3 H 0.7839 0.6770 0.5923
C51_3 C 0.7718(5) 0.5862(5) 0.5704(5)
H48_3 H 0.7773 0.5920 0.5254
C52_3 C 0.7443(7) 0.2845(6) 0.5779(6)
C53_3 C 0.6798(7) 0.2564(6) 0.5617(6)
H49_3 H 0.6463 0.2834 0.5799
H50_3 H 0.6766 0.2135 0.5799
H51_3 H 0.6748 0.2543 0.5149
C54_3 C 0.8018(8) 0.2454(7) 0.5614(7)
H52_3 H 0.8028 0.2377 0.5150
H53_3 H 0.7998 0.2046 0.5842
H54_3 H 0.8403 0.2683 0.5744
C55_3 C 0.7446(8) 0.2927(6) 0.6537(6)
H55_3 H 0.7880 0.3017 0.6683
H56_3 H 0.7293 0.2534 0.6739
H57_3 H 0.7166 0.3281 0.6657
C56_2 C 0.7739(4) 0.0995(4) 0.2213(5)
H58_2 H 0.7860 0.1023 0.1774
C57_2 C 0.7491(4) 0.0444(5) 0.2429(5)
C58_3 C 0.7363(5) 0.0405(5) 0.3120(5)
H59_3 H 0.7180 0.0024 0.3282
C59_3 C 0.7492(4) 0.0881(4) 0.3547(5)
C60_3 C 0.7433(6) 0.0788(5) 0.4264(5)
C61_3 C 0.6893(6) 0.1246(5) 0.4538(6)
H60_3 H 0.7025 0.1690 0.4483
H61_3 H 0.6827 0.1158 0.4996
H62_3 H 0.6496 0.1173 0.4303
C62_3 C 0.8067(6) 0.0903(5) 0.4598(5)
H63_3 H 0.8373 0.0577 0.4464
H64_3 H 0.8009 0.0882 0.5065
H65_3 H 0.8229 0.1325 0.4480
C63_3 C 0.7214(7) 0.0091(5) 0.4429(5)
H66_3 H 0.6775 0.0028 0.4283
H67_3 H 0.7238 0.0024 0.4895
Ni3 Ni 0.21943(5) 0.71002(6) 0.84941(5)
N9_2 N 0.6849(3) 0.2884(3) 0.3189(3)
N10 N 0.7907(3) 0.7975(3) 0.7874(3)
N11 N 0.8769(4) 0.2866(4) 0.3834(4)
Ni2_2 Ni 0.21789(5) 0.28625(5) 0.23252(5)
O5_4 O 0.1768(3) 0.2352(3) 0.1628(3)
O6_4 O 0.1222(3) 0.3803(3) 0.2898(3)
O7_4 O 0.2375(3) 0.3656(3) 0.3558(3)
O8_4 O 0.3029(3) 0.2577(3) 0.1979(3)
N3_4 N 0.2273(4) 0.3669(3) 0.1751(3)
N4_4 N 0.1285(3) 0.3218(3) 0.2553(3)
N5_4 N 0.2679(3) 0.3277(3) 0.3071(3)
C9_4 C 0.2490(6) 0.6488(5) 0.0447(5)
C10_4 C 0.2485(5) 0.5930(5) 0.0792(5)
H7_4 H 0.2496 0.5967 0.1247
C11_4 C 0.2466(5) 0.5309(5) 0.0539(5)
C13_4 C 0.2418(4) 0.4756(4) 0.0955(5)
C14_4 C 0.2481(5) 0.4787(4) 0.1614(5)
H9_4 H 0.2574 0.5183 0.1813
C15_4 C 0.2410(5) 0.4250(4) 0.1987(5)
H10_4 H 0.2462 0.4292 0.2439
C16_4 C 0.1167(4) 0.2245(4) 0.1488(4)
C17_4 C 0.0682(4) 0.2631(4) 0.1753(4)
C18_4 C 0.0783(4) 0.3123(4) 0.2221(4)
H11_4 H 0.0440 0.3409 0.2291
C19_4 C 0.1236(4) 0.3671(4) 0.3588(4)
H12_4 H 0.0868 0.3399 0.3700
H13_4 H 0.1191 0.4077 0.3826
C20_4 C 0.1831(4) 0.3349(4) 0.3801(4)
H14_4 H 0.1848 0.3346 0.4277
H15_4 H 0.1826 0.2902 0.3652
C21_4 C 0.3286(4) 0.3295(4) 0.3147(4)
H16_4 H 0.3439 0.3536 0.3501
C22_4 C 0.3756(4) 0.2990(4) 0.2754(4)
C23_4 C 0.3604(4) 0.2661(4) 0.2164(4)
C24_4 C 0.4128(4) 0.2402(5) 0.1799(4)
C25_4 C 0.4733(4) 0.2509(4) 0.2024(4)
H17_4 H 0.5075 0.2362 0.1766
C26_4 C 0.4889(4) 0.2811(5) 0.2595(5)
C27_4 C 0.4392(4) 0.3053(4) 0.2954(4)
H18_4 H 0.4482 0.3266 0.3346
C28_4 C 0.5559(4) 0.2860(4) 0.2818(4)
C29_4 C 0.6036(4) 0.2977(4) 0.2386(4)
H19_4 H 0.5935 0.3049 0.1947
C30_4 C 0.6656(4) 0.2992(4) 0.2584(4)
H20_4 H 0.6972 0.3084 0.2272
C31_4 C 0.6388(4) 0.2790(5) 0.3611(5)
H21_4 H 0.6506 0.2740 0.4050
C32_4 C 0.5750(5) 0.2759(5) 0.3461(5)
H22_4 H 0.5444 0.2671 0.3785
C33_4 C 0.3995(5) 0.2021(6) 0.1177(5)
C34_4 C 0.3599(5) 0.1442(5) 0.1322(5)
H23_4 H 0.3826 0.1170 0.1629
H24_4 H 0.3523 0.1204 0.0924
H25_4 H 0.3192 0.1574 0.1508
C35_4 C 0.3650(5) 0.2458(6) 0.0692(5)
H26_4 H 0.3199 0.2489 0.0808
H27_4 H 0.3689 0.2280 0.0258
H28_4 H 0.3843 0.2883 0.0703
C36_4 C 0.4595(5) 0.1780(7) 0.0865(6)
H29_4 H 0.4914 0.2119 0.0859
H30_4 H 0.4502 0.1646 0.0424
H31_4 H 0.4758 0.1416 0.1110
C37_4 C 0.0056(4) 0.2564(4) 0.1529(5)
C39_4 C 0.0367(4) 0.1679(4) 0.0877(4)
H33_4 H 0.0252 0.1337 0.0601
C40_4 C 0.0988(4) 0.1743(4) 0.1052(4)
C41_4 C 0.1513(4) 0.1280(4) 0.0786(5)
C42_4 C 0.1987(4) 0.1629(5) 0.0389(5)
H34_4 H 0.1770 0.1836 0.0028
H35_4 H 0.2304 0.1329 0.0224
H36_4 H 0.2198 0.1952 0.0654
C43_4 C 0.1822(5) 0.0924(5) 0.1351(5)
H37_4 H 0.2059 0.1226 0.1618
H38_4 H 0.2113 0.0599 0.1185
H39_4 H 0.1490 0.0720 0.1611
C44_4 C 0.1194(5) 0.0755(5) 0.0375(6)
H40_4 H 0.0799 0.0618 0.0583
H41_4 H 0.1483 0.0392 0.0335
C50_4 C 0.2231(5) 0.3637(5) 0.1109(4)
H47_4 H 0.2161 0.3230 0.0923
C51_4 C 0.2282(5) 0.4138(5) 0.0704(5)
H48_4 H 0.2227 0.4080 0.0254
C52_4 C 0.2557(7) 0.7155(6) 0.0779(6)
C53_4 C 0.3202(7) 0.7436(6) 0.0617(6)
H49_4 H 0.3537 0.7166 0.0799
H50_4 H 0.3234 0.7865 0.0799
H51_4 H 0.3252 0.7457 0.0149
C54_4 C 0.1982(8) 0.7546(7) 0.0614(7)
H52_4 H 0.1972 0.7623 0.0150
H53_4 H 0.2002 0.7954 0.0842
H54_4 H 0.1597 0.7317 0.0744
C55_4 C 0.2554(8) 0.7073(6) 0.1537(6)
H55_4 H 0.2120 0.6983 0.1683
H56_4 H 0.2707 0.7466 0.1739
H57_4 H 0.2834 0.6719 0.1657
H64_4 H 0.1991 0.9118 0.0065
N10_2 N 0.2093(3) 0.2025(3) 0.2874(3)
O1_4 O 0.2229(3) 0.8028(3) 0.8667(3)
O2_3 O 0.1646(3) 0.6898(3) 0.7108(3)
O3_4 O 0.2363(3) 0.5882(3) 0.7744(3)
O4_4 O 0.2476(3) 0.6945(3) 0.9414(3)
C1_4 C 0.2172(4) 0.8458(4) 0.7616(5)
N1_4 N 0.1884(3) 0.7342(4) 0.7580(3)
N2_4 N 0.2248(3) 0.6131(3) 0.8380(3)
C2_4 C 0.2313(4) 0.8521(4) 0.8295(4)
C3_3 C 0.1948(4) 0.7895(4) 0.7316(5)
H1_3 H 0.1832 0.7928 0.6875
C4_3 C 0.1344(5) 0.6359(4) 0.7382(5)
H2_3 H 0.0959 0.6254 0.7130
H3_4 H 0.1208 0.6461 0.7827
C5_3 C 0.1777(5) 0.5795(5) 0.7395(5)
H4_4 H 0.1545 0.5432 0.7587
H5_3 H 0.1882 0.5678 0.6946
C6_4 C 0.2415(4) 0.5708(5) 0.8798(4)
H6_4 H 0.2527 0.5296 0.8649
C7_4 C 0.2439(4) 0.5829(4) 0.9481(4)
C8_4 C 0.2459(5) 0.6453(4) 0.9758(5)
C12_4 C 0.2449(4) 0.5267(4) 0.9870(5)
H8_4 H 0.2445 0.4861 0.9670
H42_4 H 0.1098 0.0924 0.9946
C56_3 C 0.2261(4) 0.9005(4) 0.7213(5)
H58_3 H 0.2140 0.8977 0.6774
C57_3 C 0.2509(4) 0.9556(5) 0.7429(5)
C58_4 C 0.2637(5) 0.9595(5) 0.8120(5)
H59_4 H 0.2820 0.9976 0.8282
C59_4 C 0.2508(4) 0.9119(4) 0.8547(5)
C60_4 C 0.2567(6) 0.9212(5) 0.9264(5)
C61_4 C 0.3107(6) 0.8754(5) 0.9538(6)
H60_4 H 0.2975 0.8310 0.9483
H61_4 H 0.3173 0.8842 0.9996
H62_4 H 0.3504 0.8827 0.9303
C62_4 C 0.1933(6) 0.9097(5) 0.9598(5)
H63_4 H 0.1627 0.9423 0.9464
H65_4 H 0.1771 0.8675 0.9480
C63_4 C 0.2786(7) 0.9909(5) 0.9429(5)
H66_4 H 0.3225 0.9972 0.9283
H67_4 H 0.2762 0.9976 0.9895
N11_2 N 0.1231(4) 0.7134(4) 0.8834(4)
C64_3 C 0.0111(4) 0.7361(4) 0.9539(4)
C65_3 C 0.0298(4) 0.7749(5) 0.9046(5)
H69_3 H 0.0040 0.8102 0.8932
C66_3 C 0.0863(5) 0.7635(5) 0.8705(5)
H70_3 H 0.0987 0.7922 0.8375
C67_3 C 0.1017(5) 0.6725(5) 0.9272(5)
H71_3 H 0.1256 0.6349 0.9347
C68_3 C 0.0472(5) 0.6815(5) 0.9619(6)
H72_3 H 0.0339 0.6500 0.9918
H32_3 H 0.2848 0.0260 0.4186
C38_3 C 0.2104(4) 0.0119(4) 0.3592(4)
C45_3 C 0.2085(4) 0.0773(4) 0.3344(4)
C46_3 C 0.1514(4) 0.1089(4) 0.3182(4)
H43_3 H 0.1116 0.0881 0.3229
C47_3 C 0.1544(4) 0.1695(4) 0.2957(4)
H44_3 H 0.1156 0.1902 0.2852
C48_3 C 0.2626(4) 0.1717(4) 0.3042(4)
H45_3 H 0.3020 0.1934 0.2998
C49_3 C 0.2634(4) 0.1115(4) 0.3271(4)
H46_3 H 0.3029 0.0925 0.3384
H32_4 H 0.7152 0.9740 0.9186
C38_4 C 0.7896(4) 0.9881(4) 0.8592(4)
C45_4 C 0.7915(4) 0.9227(4) 0.8344(4)
C46_4 C 0.8486(4) 0.8911(4) 0.8182(4)
H43_4 H 0.8884 0.9119 0.8229
C47_4 C 0.8456(4) 0.8305(4) 0.7957(4)
H44_4 H 0.8844 0.8098 0.7852
C48_4 C 0.7374(4) 0.8283(4) 0.8042(4)
H45_4 H 0.6980 0.8066 0.7998
C49_4 C 0.7366(4) 0.8885(4) 0.8271(4)
H46_4 H 0.6971 0.9075 0.8384
H68_3 H 0.9786 0.2507 0.6711
C64_4 C 0.9889(4) 0.2639(4) 0.4539(4)
C65_4 C 0.9702(4) 0.2251(5) 0.4046(5)
H69_4 H 0.9960 0.1898 0.3932
C66_4 C 0.9137(5) 0.2365(5) 0.3705(5)
H70_4 H 0.9013 0.2078 0.3375
C67_4 C 0.8983(5) 0.3275(5) 0.4272(5)
H71_4 H 0.8744 0.3651 0.4347
C68_4 C 0.9528(5) 0.3185(5) 0.4619(6)
H72_4 H 0.9661 0.3500 0.4918
H68_4 H 0.0214 0.7493 0.1711
O2_4 O 0.6898(3) 0.8354(3) 0.9608(3)
C3_4 C 0.7895(4) 0.8052(4) 0.9816(5)
H1_4 H 0.7928 0.8168 0.9375
C4_4 C 0.6359(4) 0.8656(5) 0.9882(5)
H2_4 H 0.6254 0.9041 0.9630
C5_4 C 0.5795(5) 0.8223(5) 0.9895(5)
H5_4 H 0.5678 0.8118 0.9446
C56_4 C 0.9005(4) 0.7739(4) 0.9713(5)
H58_4 H 0.8977 0.7860 0.9274
C57_4 C 0.9556(5) 0.7491(4) 0.9929(5)
loop_
_geom_bond_atom_site_label_1
_geom_bond_atom_site_label_2
_geom_bond_site_symmetry_1
_geom_bond_site_symmetry_2
N7 C47 1_555 1_555
C45 C38 1_555 1_555
C46 C45 1_555 1_555
H43 C46 1_555 1_555
C47 C46 1_555 1_555
H44 C47 1_555 1_555
C48 N7 1_555 1_555
H45 C48 1_555 1_555
C49 C45 1_555 1_555
H46 C49 1_555 1_555
Ni5 N7 1_555 1_555
C48 C49 1_555 1_555
N8 C66 1_555 1_555
C65 C64 1_555 1_555
H69 C65 1_555 1_555
C66 C65 1_555 1_555
H70 C66 1_555 1_555
C67 N8 1_555 1_555
H71 C67 1_555 1_555
C68 C64 1_555 1_555
H72 C68 1_555 1_555
Ni4 N8 1_555 1_555
C67 C68 1_555 1_555
N8_2 C66_2 1_555 1_555
C65_2 C64_2 1_555 1_555
H69_2 C65_2 1_555 1_555
C66_2 C65_2 1_555 1_555
H70_2 C66_2 1_555 1_555
C67_2 N8_2 1_555 1_555
H71_2 C67_2 1_555 1_555
C68_2 C64_2 1_555 1_555
H72_2 C68_2 1_555 1_555
Ni4_2 N8_2 1_555 1_555
C67_2 C68_2 1_555 1_555
N7_2 C47_2 1_555 1_555
C45_2 C38_2 1_555 1_555
C46_2 C45_2 1_555 1_555
H43_2 C46_2 1_555 1_555
C47_2 C46_2 1_555 1_555
H44_2 C47_2 1_555 1_555
C48_2 N7_2 1_555 1_555
H45_2 C48_2 1_555 1_555
C49_2 C45_2 1_555 1_555
H46_2 C49_2 1_555 1_555
C48_2 C49_2 1_555 1_555
Ni4 O1 1_555 1_555
Ni5 O5 1_555 1_555
O1 C2 1_555 1_555
O3 N2 1_555 1_555
O4 Ni4 1_555 1_555
O5 C16 1_555 1_555
O6 N4 1_555 1_555
O7 N5 1_555 1_555
O8 Ni5 1_555 1_555
C1 C2 1_555 1_555
N1 Ni4 1_555 1_555
N2 Ni4 1_555 1_555
N3 Ni5 1_555 1_555
N4 Ni5 1_555 1_555
N5 Ni5 1_555 1_555
N6 C30 1_555 1_555
C2 C59 1_555 1_555
C6 N2 1_555 1_555
H6 C6 1_555 1_555
C7 C6 1_555 1_555
C8 O4 1_555 1_555
C9 C8 1_555 1_555
C10 C9 1_555 1_555
H7 C10 1_555 1_555
C11 C10 1_555 1_555
C12 C7 1_555 1_555
H8 C12 1_555 1_555
C13 C11 1_555 1_555
C14 C13 1_555 1_555
H9 C14 1_555 1_555
C15 N3 1_555 1_555
H10 C15 1_555 1_555
C16 C17 1_555 1_555
C17 C18 1_555 1_555
C18 N4 1_555 1_555
H11 C18 1_555 1_555
C19 O6 1_555 1_555
H12 C19 1_555 1_555
H13 C19 1_555 1_555
C20 O7 1_555 1_555
H14 C20 1_555 1_555
H15 C20 1_555 1_555
C21 N5 1_555 1_555
H16 C21 1_555 1_555
C22 C21 1_555 1_555
C23 O8 1_555 1_555
C24 C23 1_555 1_555
C25 C24 1_555 1_555
H17 C25 1_555 1_555
C26 C25 1_555 1_555
C27 C22 1_555 1_555
H18 C27 1_555 1_555
C28 C26 1_555 1_555
C29 C28 1_555 1_555
H19 C29 1_555 1_555
C30 C29 1_555 1_555
H20 C30 1_555 1_555
C31 N6 1_555 1_555
H21 C31 1_555 1_555
C32 C28 1_555 1_555
H22 C32 1_555 1_555
C33 C24 1_555 1_555
C34 C33 1_555 1_555
H23 C34 1_555 1_555
H24 C34 1_555 1_555
H25 C34 1_555 1_555
C35 C33 1_555 1_555
H26 C35 1_555 1_555
H27 C35 1_555 1_555
H28 C35 1_555 1_555
C36 C33 1_555 1_555
H29 C36 1_555 1_555
H30 C36 1_555 1_555
H31 C36 1_555 1_555
C37 C17 1_555 1_555
H33 C39 1_555 1_555
C40 C16 1_555 1_555
C41 C40 1_555 1_555
C42 C41 1_555 1_555
H34 C42 1_555 1_555
H35 C42 1_555 1_555
H36 C42 1_555 1_555
C43 C41 1_555 1_555
H37 C43 1_555 1_555
H38 C43 1_555 1_555
H39 C43 1_555 1_555
C44 C41 1_555 1_555
H40 C44 1_555 1_555
H41 C44 1_555 1_555
H42 C44 1_555 1_555
C50 N3 1_555 1_555
H47 C50 1_555 1_555
C51 C13 1_555 1_555
H48 C51 1_555 1_555
C52 C9 1_555 1_555
C53 C52 1_555 1_555
H49 C53 1_555 1_555
H50 C53 1_555 1_555
H51 C53 1_555 1_555
C54 C52 1_555 1_555
H52 C54 1_555 1_555
H53 C54 1_555 1_555
H54 C54 1_555 1_555
C55 C52 1_555 1_555
H55 C55 1_555 1_555
H56 C55 1_555 1_555
H57 C55 1_555 1_555
H59 C58 1_555 1_555
C59 C58 1_555 1_555
C60 C59 1_555 1_555
C61 C60 1_555 1_555
H60 C61 1_555 1_555
H61 C61 1_555 1_555
H62 C61 1_555 1_555
C62 C60 1_555 1_555
H63 C62 1_555 1_555
H64 C62 1_555 1_555
H65 C62 1_555 1_555
C63 C60 1_555 1_555
H66 C63 1_555 1_555
H67 C63 1_555 1_555
Ni4_2 N6 1_555 1_555
N9 Ni4 1_555 1_555
C7 C8 1_555 1_555
C11 C12 1_555 1_555
C14 C15 1_555 1_555
C19 C20 1_555 1_555
C22 C23 1_555 1_555
C26 C27 1_555 1_555
C31 C32 1_555 1_555
C39 C40 1_555 1_555
C50 C51 1_555 1_555
O6_2 N4_2 1_555 1_555
O7_2 N5_2 1_555 1_555
N9 C30_2 1_555 1_555
C19_2 O6_2 1_555 1_555
H12_2 C19_2 1_555 1_555
H13_2 C19_2 1_555 1_555
C20_2 O7_2 1_555 1_555
H14_2 C20_2 1_555 1_555
H15_2 C20_2 1_555 1_555
C21_2 N5_2 1_555 1_555
H16_2 C21_2 1_555 1_555
C22_2 C21_2 1_555 1_555
C27_2 C22_2 1_555 1_555
H18_2 C27_2 1_555 1_555
C28_2 C26_2 1_555 1_555
C31_2 N9 1_555 1_555
H21_2 C31_2 1_555 1_555
C32_2 C28_2 1_555 1_555
H22_2 C32_2 1_555 1_555
C19_2 C20_2 1_555 1_555
C26_2 C27_2 1_555 1_555
C31_2 C32_2 1_555 1_555
Ni4_2 O1_2 1_555 1_555
Ni5_2 O5_2 1_555 1_555
O1_2 C2_2 1_555 1_555
O2 N1_2 1_555 1_555
O3_2 N2_2 1_555 1_555
O4_2 Ni4_2 1_555 1_555
O5_2 C16_2 1_555 1_555
O8_2 Ni5_2 1_555 1_555
C1_2 C2_2 1_555 1_555
N1_2 Ni4_2 1_555 1_555
N2_2 Ni4_2 1_555 1_555
N3_2 Ni5_2 1_555 1_555
C2_2 C59_2 1_555 1_555
C3 C1_2 1_555 1_555
H1 C3 1_555 1_555
C4 O2 1_555 1_555
H2 C4 1_555 1_555
H3_2 C4 1_555 1_555
C5 O3_2 1_555 1_555
H4_2 C5 1_555 1_555
H5 C5 1_555 1_555
C6_2 N2_2 1_555 1_555
H6_2 C6_2 1_555 1_555
C7_2 C6_2 1_555 1_555
C8_2 O4_2 1_555 1_555
C9_2 C8_2 1_555 1_555
C10_2 C9_2 1_555 1_555
H7_2 C10_2 1_555 1_555
C11_2 C10_2 1_555 1_555
C12_2 C7_2 1_555 1_555
H8_2 C12_2 1_555 1_555
C13_2 C11_2 1_555 1_555
C14_2 C13_2 1_555 1_555
H9_2 C14_2 1_555 1_555
C15_2 N3_2 1_555 1_555
H10_2 C15_2 1_555 1_555
C16_2 C17_2 1_555 1_555
C17_2 C18_2 1_555 1_555
H11_2 C18_2 1_555 1_555
C23_2 O8_2 1_555 1_555
C24_2 C23_2 1_555 1_555
C25_2 C24_2 1_555 1_555
H17_2 C25_2 1_555 1_555
H19_2 C29_2 1_555 1_555
C33_2 C24_2 1_555 1_555
C34_2 C33_2 1_555 1_555
H23_2 C34_2 1_555 1_555
H24_2 C34_2 1_555 1_555
H25_2 C34_2 1_555 1_555
C35_2 C33_2 1_555 1_555
H26_2 C35_2 1_555 1_555
H27_2 C35_2 1_555 1_555
H28_2 C35_2 1_555 1_555
C36_2 C33_2 1_555 1_555
H29_2 C36_2 1_555 1_555
H30_2 C36_2 1_555 1_555
H31_2 C36_2 1_555 1_555
C37_2 C17_2 1_555 1_555
H33_2 C39_2 1_555 1_555
C40_2 C16_2 1_555 1_555
C41_2 C40_2 1_555 1_555
C42_2 C41_2 1_555 1_555
H34_2 C42_2 1_555 1_555
H35_2 C42_2 1_555 1_555
H36_2 C42_2 1_555 1_555
C43_2 C41_2 1_555 1_555
H37_2 C43_2 1_555 1_555
H38_2 C43_2 1_555 1_555
H39_2 C43_2 1_555 1_555
C44_2 C41_2 1_555 1_555
H40_2 C44_2 1_555 1_555
H41_2 C44_2 1_555 1_555
H42_2 C44_2 1_555 1_555
C50_2 N3_2 1_555 1_555
H47_2 C50_2 1_555 1_555
C51_2 C13_2 1_555 1_555
H48_2 C51_2 1_555 1_555
C52_2 C9_2 1_555 1_555
C53_2 C52_2 1_555 1_555
H49_2 C53_2 1_555 1_555
H50_2 C53_2 1_555 1_555
H51_2 C53_2 1_555 1_555
C54_2 C52_2 1_555 1_555
H52_2 C54_2 1_555 1_555
H53_2 C54_2 1_555 1_555
H54_2 C54_2 1_555 1_555
C55_2 C52_2 1_555 1_555
H55_2 C55_2 1_555 1_555
H56_2 C55_2 1_555 1_555
H57_2 C55_2 1_555 1_555
C56 C1_2 1_555 1_555
H58 C56 1_555 1_555
C57 C56 1_555 1_555
C58_2 C57 1_555 1_555
H59_2 C58_2 1_555 1_555
C59_2 C58_2 1_555 1_555
C60_2 C59_2 1_555 1_555
C61_2 C60_2 1_555 1_555
H60_2 C61_2 1_555 1_555
H61_2 C61_2 1_555 1_555
H62_2 C61_2 1_555 1_555
C62_2 C60_2 1_555 1_555
H63_2 C62_2 1_555 1_555
H64_2 C62_2 1_555 1_555
H65_2 C62_2 1_555 1_555
C63_2 C60_2 1_555 1_555
H66_2 C63_2 1_555 1_555
H67_2 C63_2 1_555 1_555
N1_2 C3 1_555 1_555
C4 C5 1_555 1_555
C7_2 C8_2 1_555 1_555
C11_2 C12_2 1_555 1_555
C14_2 C15_2 1_555 1_555
C39_2 C40_2 1_555 1_555
C50_2 C51_2 1_555 1_555
Ni1 O1_3 1_555 1_555
Ni2 O5_3 1_555 1_555
O1_3 C2_3 1_555 1_555
O2_2 N1_3 1_555 1_555
O3_3 N2_3 1_555 1_555
O4_3 Ni1 1_555 1_555
O5_3 C16_3 1_555 1_555
O6_3 N4_3 1_555 1_555
O7_3 N5_3 1_555 1_555
O8_3 Ni2 1_555 1_555
C1_3 C2_3 1_555 1_555
N1_3 Ni1 1_555 1_555
N2_3 Ni1 1_555 1_555
N3_3 Ni2 1_555 1_555
N4_3 Ni2 1_555 1_555
N5_3 Ni2 1_555 1_555
N6_2 C30_3 1_555 1_555
C2_3 C59_3 1_555 1_555
C3_2 C1_3 1_555 1_555
H1_2 C3_2 1_555 1_555
C4_2 O2_2 1_555 1_555
H2_2 C4_2 1_555 1_555
H3_3 C4_2 1_555 1_555
C5_2 O3_3 1_555 1_555
H4_3 C5_2 1_555 1_555
H5_2 C5_2 1_555 1_555
C6_3 N2_3 1_555 1_555
H6_3 C6_3 1_555 1_555
C7_3 C6_3 1_555 1_555
C8_3 O4_3 1_555 1_555
C9_3 C8_3 1_555 1_555
C10_3 C9_3 1_555 1_555
H7_3 C10_3 1_555 1_555
C11_3 C10_3 1_555 1_555
C12_3 C7_3 1_555 1_555
H8_3 C12_3 1_555 1_555
C13_3 C11_3 1_555 1_555
C14_3 C13_3 1_555 1_555
H9_3 C14_3 1_555 1_555
C15_3 N3_3 1_555 1_555
H10_3 C15_3 1_555 1_555
C16_3 C17_3 1_555 1_555
C17_3 C18_3 1_555 1_555
C18_3 N4_3 1_555 1_555
H11_3 C18_3 1_555 1_555
C19_3 O6_3 1_555 1_555
H12_3 C19_3 1_555 1_555
H13_3 C19_3 1_555 1_555
C20_3 O7_3 1_555 1_555
H14_3 C20_3 1_555 1_555
H15_3 C20_3 1_555 1_555
C21_3 N5_3 1_555 1_555
H16_3 C21_3 1_555 1_555
C22_3 C21_3 1_555 1_555
C23_3 O8_3 1_555 1_555
C24_3 C23_3 1_555 1_555
C25_3 C24_3 1_555 1_555
H17_3 C25_3 1_555 1_555
C26_3 C25_3 1_555 1_555
C27_3 C22_3 1_555 1_555
H18_3 C27_3 1_555 1_555
C28_3 C26_3 1_555 1_555
C29_3 C28_3 1_555 1_555
H19_3 C29_3 1_555 1_555
C30_3 C29_3 1_555 1_555
H20_3 C30_3 1_555 1_555
C31_3 N6_2 1_555 1_555
H21_3 C31_3 1_555 1_555
C32_3 C28_3 1_555 1_555
H22_3 C32_3 1_555 1_555
C33_3 C24_3 1_555 1_555
C34_3 C33_3 1_555 1_555
H23_3 C34_3 1_555 1_555
H24_3 C34_3 1_555 1_555
H25_3 C34_3 1_555 1_555
C35_3 C33_3 1_555 1_555
H26_3 C35_3 1_555 1_555
H27_3 C35_3 1_555 1_555
H28_3 C35_3 1_555 1_555
C36_3 C33_3 1_555 1_555
H29_3 C36_3 1_555 1_555
H30_3 C36_3 1_555 1_555
H31_3 C36_3 1_555 1_555
C37_3 C17_3 1_555 1_555
H33_3 C39_3 1_555 1_555
C40_3 C16_3 1_555 1_555
C41_3 C40_3 1_555 1_555
C42_3 C41_3 1_555 1_555
H34_3 C42_3 1_555 1_555
H35_3 C42_3 1_555 1_555
H36_3 C42_3 1_555 1_555
C43_3 C41_3 1_555 1_555
H37_3 C43_3 1_555 1_555
H38_3 C43_3 1_555 1_555
H39_3 C43_3 1_555 1_555
C44_3 C41_3 1_555 1_555
H40_3 C44_3 1_555 1_555
H41_3 C44_3 1_555 1_555
H42_3 C44_3 1_555 1_555
C50_3 N3_3 1_555 1_555
H47_3 C50_3 1_555 1_555
C51_3 C13_3 1_555 1_555
H48_3 C51_3 1_555 1_555
C52_3 C9_3 1_555 1_555
C53_3 C52_3 1_555 1_555
H49_3 C53_3 1_555 1_555
H50_3 C53_3 1_555 1_555
H51_3 C53_3 1_555 1_555
C54_3 C52_3 1_555 1_555
H52_3 C54_3 1_555 1_555
H53_3 C54_3 1_555 1_555
H54_3 C54_3 1_555 1_555
C55_3 C52_3 1_555 1_555
H55_3 C55_3 1_555 1_555
H56_3 C55_3 1_555 1_555
H57_3 C55_3 1_555 1_555
C56_2 C1_3 1_555 1_555
H58_2 C56_2 1_555 1_555
C57_2 C56_2 1_555 1_555
C58_3 C57_2 1_555 1_555
H59_3 C58_3 1_555 1_555
C59_3 C58_3 1_555 1_555
C60_3 C59_3 1_555 1_555
C61_3 C60_3 1_555 1_555
H60_3 C61_3 1_555 1_555
H61_3 C61_3 1_555 1_555
H62_3 C61_3 1_555 1_555
C62_3 C60_3 1_555 1_555
H63_3 C62_3 1_555 1_555
H64_3 C62_3 1_555 1_555
H65_3 C62_3 1_555 1_555
C63_3 C60_3 1_555 1_555
H66_3 C63_3 1_555 1_555
H67_3 C63_3 1_555 1_555
Ni3 N6_2 1_555 1_555
N9_2 Ni1 1_555 1_555
N10 Ni2 1_555 1_555
N11 Ni1 1_555 1_555
N1_3 C3_2 1_555 1_555
C4_2 C5_2 1_555 1_555
C7_3 C8_3 1_555 1_555
C11_3 C12_3 1_555 1_555
C14_3 C15_3 1_555 1_555
C19_3 C20_3 1_555 1_555
C22_3 C23_3 1_555 1_555
C26_3 C27_3 1_555 1_555
C31_3 C32_3 1_555 1_555
C39_3 C40_3 1_555 1_555
C50_3 C51_3 1_555 1_555
Ni2_2 O5_4 1_555 1_555
O5_4 C16_4 1_555 1_555
O6_4 N4_4 1_555 1_555
O7_4 N5_4 1_555 1_555
O8_4 Ni2_2 1_555 1_555
N3_4 Ni2_2 1_555 1_555
N4_4 Ni2_2 1_555 1_555
N5_4 Ni2_2 1_555 1_555
N9_2 C30_4 1_555 1_555
C10_4 C9_4 1_555 1_555
H7_4 C10_4 1_555 1_555
C11_4 C10_4 1_555 1_555
C13_4 C11_4 1_555 1_555
C14_4 C13_4 1_555 1_555
H9_4 C14_4 1_555 1_555
C15_4 N3_4 1_555 1_555
H10_4 C15_4 1_555 1_555
C16_4 C17_4 1_555 1_555
C17_4 C18_4 1_555 1_555
C18_4 N4_4 1_555 1_555
H11_4 C18_4 1_555 1_555
C19_4 O6_4 1_555 1_555
H12_4 C19_4 1_555 1_555
H13_4 C19_4 1_555 1_555
C20_4 O7_4 1_555 1_555
H14_4 C20_4 1_555 1_555
H15_4 C20_4 1_555 1_555
C21_4 N5_4 1_555 1_555
H16_4 C21_4 1_555 1_555
C22_4 C21_4 1_555 1_555
C23_4 O8_4 1_555 1_555
C24_4 C23_4 1_555 1_555
C25_4 C24_4 1_555 1_555
H17_4 C25_4 1_555 1_555
C26_4 C25_4 1_555 1_555
C27_4 C22_4 1_555 1_555
H18_4 C27_4 1_555 1_555
C28_4 C26_4 1_555 1_555
C29_4 C28_4 1_555 1_555
H19_4 C29_4 1_555 1_555
C30_4 C29_4 1_555 1_555
H20_4 C30_4 1_555 1_555
C31_4 N9_2 1_555 1_555
H21_4 C31_4 1_555 1_555
C32_4 C28_4 1_555 1_555
H22_4 C32_4 1_555 1_555
C33_4 C24_4 1_555 1_555
C34_4 C33_4 1_555 1_555
H23_4 C34_4 1_555 1_555
H24_4 C34_4 1_555 1_555
H25_4 C34_4 1_555 1_555
C35_4 C33_4 1_555 1_555
H26_4 C35_4 1_555 1_555
H27_4 C35_4 1_555 1_555
H28_4 C35_4 1_555 1_555
C36_4 C33_4 1_555 1_555
H29_4 C36_4 1_555 1_555
H30_4 C36_4 1_555 1_555
H31_4 C36_4 1_555 1_555
C37_4 C17_4 1_555 1_555
H33_4 C39_4 1_555 1_555
C40_4 C16_4 1_555 1_555
C41_4 C40_4 1_555 1_555
C42_4 C41_4 1_555 1_555
H34_4 C42_4 1_555 1_555
H35_4 C42_4 1_555 1_555
H36_4 C42_4 1_555 1_555
C43_4 C41_4 1_555 1_555
H37_4 C43_4 1_555 1_555
H38_4 C43_4 1_555 1_555
H39_4 C43_4 1_555 1_555
C44_4 C41_4 1_555 1_555
H40_4 C44_4 1_555 1_555
H41_4 C44_4 1_555 1_555
C50_4 N3_4 1_555 1_555
H47_4 C50_4 1_555 1_555
C51_4 C13_4 1_555 1_555
H48_4 C51_4 1_555 1_555
C52_4 C9_4 1_555 1_555
C53_4 C52_4 1_555 1_555
H49_4 C53_4 1_555 1_555
H50_4 C53_4 1_555 1_555
H51_4 C53_4 1_555 1_555
C54_4 C52_4 1_555 1_555
H52_4 C54_4 1_555 1_555
H53_4 C54_4 1_555 1_555
H54_4 C54_4 1_555 1_555
C55_4 C52_4 1_555 1_555
H55_4 C55_4 1_555 1_555
H56_4 C55_4 1_555 1_555
H57_4 C55_4 1_555 1_555
N10_2 Ni2_2 1_555 1_555
C14_4 C15_4 1_555 1_555
C19_4 C20_4 1_555 1_555
C22_4 C23_4 1_555 1_555
C26_4 C27_4 1_555 1_555
C31_4 C32_4 1_555 1_555
C39_4 C40_4 1_555 1_555
C50_4 C51_4 1_555 1_555
Ni3 O1_4 1_555 1_555
O1_4 C2_4 1_555 1_555
O2_3 N1_4 1_555 1_555
O3_4 N2_4 1_555 1_555
O4_4 Ni3 1_555 1_555
C1_4 C2_4 1_555 1_555
N1_4 Ni3 1_555 1_555
N2_4 Ni3 1_555 1_555
C2_4 C59_4 1_555 1_555
C3_3 C1_4 1_555 1_555
H1_3 C3_3 1_555 1_555
C4_3 O2_3 1_555 1_555
H2_3 C4_3 1_555 1_555
H3_4 C4_3 1_555 1_555
C5_3 O3_4 1_555 1_555
H4_4 C5_3 1_555 1_555
H5_3 C5_3 1_555 1_555
C6_4 N2_4 1_555 1_555
H6_4 C6_4 1_555 1_555
C7_4 C6_4 1_555 1_555
C8_4 O4_4 1_555 1_555
C12_4 C7_4 1_555 1_555
H8_4 C12_4 1_555 1_555
C56_3 C1_4 1_555 1_555
H58_3 C56_3 1_555 1_555
C57_3 C56_3 1_555 1_555
C58_4 C57_3 1_555 1_555
H59_4 C58_4 1_555 1_555
C59_4 C58_4 1_555 1_555
C60_4 C59_4 1_555 1_555
C61_4 C60_4 1_555 1_555
H60_4 C61_4 1_555 1_555
H61_4 C61_4 1_555 1_555
H62_4 C61_4 1_555 1_555
C62_4 C60_4 1_555 1_555
H63_4 C62_4 1_555 1_555
H65_4 C62_4 1_555 1_555
C63_4 C60_4 1_555 1_555
H66_4 C63_4 1_555 1_555
H67_4 C63_4 1_555 1_555
N11_2 Ni3 1_555 1_555
N1_4 C3_3 1_555 1_555
C4_3 C5_3 1_555 1_555
C7_4 C8_4 1_555 1_555
N11_2 C66_3 1_555 1_555
C65_3 C64_3 1_555 1_555
H69_3 C65_3 1_555 1_555
C66_3 C65_3 1_555 1_555
H70_3 C66_3 1_555 1_555
C67_3 N11_2 1_555 1_555
H71_3 C67_3 1_555 1_555
C68_3 C64_3 1_555 1_555
H72_3 C68_3 1_555 1_555
C67_3 C68_3 1_555 1_555
N10_2 C47_3 1_555 1_555
C45_3 C38_3 1_555 1_555
C46_3 C45_3 1_555 1_555
H43_3 C46_3 1_555 1_555
C47_3 C46_3 1_555 1_555
H44_3 C47_3 1_555 1_555
C48_3 N10_2 1_555 1_555
H45_3 C48_3 1_555 1_555
C49_3 C45_3 1_555 1_555
H46_3 C49_3 1_555 1_555
C48_3 C49_3 1_555 1_555
N10 C47_4 1_555 1_555
C45_4 C38_4 1_555 1_555
C46_4 C45_4 1_555 1_555
H43_4 C46_4 1_555 1_555
C47_4 C46_4 1_555 1_555
H44_4 C47_4 1_555 1_555
C48_4 N10 1_555 1_555
H45_4 C48_4 1_555 1_555
C49_4 C45_4 1_555 1_555
H46_4 C49_4 1_555 1_555
C48_4 C49_4 1_555 1_555
N11 C66_4 1_555 1_555
C65_4 C64_4 1_555 1_555
H69_4 C65_4 1_555 1_555
C66_4 C65_4 1_555 1_555
H70_4 C66_4 1_555 1_555
C67_4 N11 1_555 1_555
H71_4 C67_4 1_555 1_555
C68_4 C64_4 1_555 1_555
H72_4 C68_4 1_555 1_555
C67_4 C68_4 1_555 1_555
H1_4 C3_4 1_555 1_555
C4_4 O2_4 1_555 1_555
H2_4 C4_4 1_555 1_555
H5_4 C5_4 1_555 1_555
H58_4 C56_4 1_555 1_555
C57_4 C56_4 1_555 1_555
C4_4 C5_4 1_555 1_555

#END
