
###############################################################################
#
# This file contains modified crystal structure data generated from the
# MOF subset of the Cambridge Structural Database (CSD) v543 
# hosted by the Cambridge Crystallographic Data Centre (CCDC).
#
# This work is licensed under the Creative Commons
# Attribution-NonCommercial-ShareAlike 4.0 International License.
# To view a copy of this license, visit
# http://creativecommons.org/licenses/by-nc-sa/4.0/
# or send a letter to
# Creative Commons, PO Box 1866, Mountain View, CA 94042, USA.
#
# CIF created using the CSD Python API on 29 September 2022
# The structure has been converted into the P1 space group
# The structure has a 3D framework
# The original CSD entry IKUTUF is in the monoclinic crystal system
# The framework has been calculated to contain at least 10.0% void space
# The void calculation uses a probe of radius 1.32A, grid spacing 0.4
#
###############################################################################

data_IKUTUF
_chemical_formula_moiety         '(C312 H296 Dy16 N56 O128)n'
_symmetry_cell_setting           triclinic
_symmetry_space_group_name_H-M   'P 1'
_symmetry_Int_Tables_number      1
_space_group_name_Hall           'P 1'
loop_
_symmetry_equiv_pos_site_id
_symmetry_equiv_pos_as_xyz
1 x,y,z
_cell_length_a                   24.5907(8)
_cell_length_b                   17.8811(8)
_cell_length_c                   25.0765(9)
_cell_angle_alpha                90
_cell_angle_beta                 104.335(2)
_cell_angle_gamma                90
_cell_volume                     10683
loop_
_atom_site_label
_atom_site_type_symbol
_atom_site_fract_x
_atom_site_fract_y
_atom_site_fract_z
C18 C 0.72234(13) 0.03261(17) 0.18717(11)
H15 H 0.6943 0.0324 0.2078
H16 H 0.7467 0.0748 0.1979
C25 C 0.6678(2) 0.1078(2) 0.10980(16)
H26 H 0.6518 0.1053 0.0708
H27 H 0.6948 0.1477 0.1177
H28 H 0.6387 0.1170 0.1283
N2 N 0.69536(11) 0.03754(14) 0.12877(10)
Dy2 Dy 0.71556(2) 0.80903(2) 0.05628(2)
C3 C 0.74955(11) 0.56417(14) 0.08744(10)
C6 C 0.71212(11) 0.57898(15) 0.11952(10)
H3 H 0.6941 0.6251 0.1170
C8 C 0.69779(13) 0.98167(17) 0.09454(12)
H5 H 0.6799 0.9881 0.0576
C9 C 0.80056(14) 0.81024(17) 0.18289(12)
H6 H 0.8090 0.8588 0.1743
C13 C 0.70165(11) 0.52458(15) 0.15549(10)
C16 C 0.72757(12) 0.45543(16) 0.15861(11)
H10 H 0.7208 0.4193 0.1829
H14 H 0.7439 0.9873 0.1943
C19 C 0.8165(3) 0.7052(3) 0.2441(3)
H17 H 0.7905 0.7103 0.2668
H18 H 0.8497 0.6801 0.2644
H19 H 0.7995 0.6766 0.2119
C23 C 0.76373(12) 0.44014(15) 0.12532(11)
C26 C 0.8779(3) 0.8201(3) 0.2637(2)
H29 H 0.8806 0.8695 0.2495
H30 H 0.9123 0.7935 0.2657
H31 H 0.8713 0.8236 0.2997
C30 C 0.77504(11) 0.49489(15) 0.08993(10)
H37 H 0.7997 0.4848 0.0680
C33 C 0.76127(11) 0.62203(14) 0.04791(10)
C36 C 0.66035(11) 0.53976(15) 0.18969(10)
C39 C 0.78817(14) 0.36642(17) 0.12612(12)
N3 N 0.83164(18) 0.78032(19) 0.22735(15)
N7 N 0.80734(15) 0.30793(16) 0.12586(13)
O2 O 0.72231(8) 0.92150(10) 0.10843(7)
O3 O 0.76055(9) 0.77879(12) 0.15123(8)
O7 O 0.74535(8) 0.68832(10) 0.05169(8)
O10 O 0.78588(8) 0.60037(10) 0.01216(7)
O13 O 0.62665(9) 0.59302(11) 0.17561(8)
O16 O 0.66177(8) 0.49957(11) 0.23152(7)
Dy4 Dy 0.59162(2) 0.57644(2) 0.25821(2)
O20 O 0.81270(8) 0.83220(10) 0.06776(7)
O21 O 0.64588(8) 0.76127(11) 0.09644(8)
O23 O 0.61647(8) 0.86178(10) 0.04564(8)
Dy1 Dy 0.40838(2) 0.42356(2) 0.74179(2)
C1 C 0.52257(11) 0.59365(14) 0.86347(10)
C2 C 0.51004(11) 0.26961(15) 0.86917(10)
C4 C 0.57725(11) 0.61812(14) 0.88431(10)
H1 H 0.6062 0.5959 0.8721
C5 C 0.45774(11) 0.26022(15) 0.88029(10)
H2 H 0.4282 0.2918 0.8642
C7 C 0.32548(12) 0.38998(18) 0.62162(11)
H4 H 0.3237 0.3408 0.6332
C10 C 0.34158(16) 0.25944(19) 0.76027(13)
H7 H 0.3134 0.2648 0.7788
C11 C 0.58990(11) 0.67590(14) 0.92358(10)
C12 C 0.44973(11) 0.20332(15) 0.91568(10)
C14 C 0.54562(12) 0.70859(16) 0.94094(11)
H8 H 0.5529 0.7469 0.9668
C15 C 0.49347(12) 0.15587(16) 0.93972(11)
H9 H 0.4878 0.1172 0.9626
C17 C 0.31662(19) 0.4770(2) 0.54708(14)
H11 H 0.2820 0.4896 0.5213
H12 H 0.3467 0.4786 0.5289
H13 H 0.3239 0.5123 0.5769
C20 C 0.41396(19) 0.1814(2) 0.73890(17)
H20 H 0.4210 0.2264 0.7208
H21 H 0.4045 0.1417 0.7124
H22 H 0.4470 0.1680 0.7667
C21 C 0.49068(12) 0.68427(17) 0.91972(11)
C22 C 0.54585(12) 0.16654(17) 0.92935(11)
C24 C 0.2960(2) 0.3431(2) 0.52807(15)
H23 H 0.2942 0.2966 0.5467
H24 H 0.3229 0.3392 0.5063
H25 H 0.2597 0.3543 0.5046
C27 C 0.3501(2) 0.1308(2) 0.79260(16)
H32 H 0.3213 0.1467 0.8098
H33 H 0.3816 0.1122 0.8201
H34 H 0.3358 0.0918 0.7666
C28 C 0.47884(11) 0.62580(16) 0.88176(11)
H35 H 0.4423 0.6085 0.8688
C29 C 0.55441(11) 0.22456(16) 0.89444(10)
H36 H 0.5898 0.2325 0.8884
C31 C 0.50964(11) 0.53066(15) 0.82195(10)
C32 C 0.51672(11) 0.32673(15) 0.82717(10)
C34 C 0.64897(11) 0.70109(15) 0.94730(10)
C35 C 0.39206(11) 0.19212(15) 0.92528(10)
C37 C 0.44473(13) 0.7196(2) 0.93709(14)
C38 C 0.59190(13) 0.11786(18) 0.95337(12)
N1 N 0.31263(12) 0.40260(15) 0.56845(10)
N4 N 0.36780(14) 0.19375(15) 0.76421(11)
N5 N 0.40804(13) 0.7458(2) 0.94993(14)
N6 N 0.62860(13) 0.07839(18) 0.97152(12)
O1 O 0.33981(8) 0.43843(11) 0.65748(8)
O4 O 0.35181(10) 0.31363(12) 0.73396(9)
O5 O 0.46009(8) 0.50797(12) 0.80864(8)
O6 O 0.47219(8) 0.34834(12) 0.79458(8)
O8 O 0.54977(8) 0.50711(11) 0.80409(8)
O9 O 0.56502(8) 0.34629(11) 0.82569(8)
O11 O 0.68730(8) 0.66780(10) 0.93224(7)
O12 O 0.35412(8) 0.23873(11) 0.90356(8)
O14 O 0.65447(8) 0.75451(10) 0.98026(7)
O15 O 0.38353(8) 0.13822(10) 0.95436(8)
Dy3 Dy 0.59162(2) 0.42356(2) 0.75821(2)
Dy5 Dy 0.28444(2) 0.19097(2) 0.94372(2)
Dy6 Dy 0.78444(2) 0.69097(2) 0.94372(2)
O17 O 0.45023(8) 0.50711(11) 0.69591(8)
O18 O 0.43498(8) 0.34629(11) 0.67431(8)
O19 O 0.71412(8) 0.89963(10) 0.98784(7)
O22 O 0.37335(9) 0.40698(11) 0.82439(8)
O24 O 0.33823(8) 0.50043(11) 0.76848(7)
Dy2_2 Dy 0.28444(2) 0.80903(2) 0.44372(2)
C1_2 C 0.47743(11) 0.59365(14) 0.63653(10)
C2_2 C 0.48996(11) 0.26961(15) 0.63083(10)
C3_2 C 0.25045(11) 0.56417(14) 0.41256(10)
C4_2 C 0.42275(11) 0.61812(14) 0.61569(10)
H1_2 H 0.3938 0.5959 0.6279
C5_2 C 0.54226(11) 0.26022(15) 0.61971(10)
H2_2 H 0.5718 0.2918 0.6358
C6_2 C 0.28788(11) 0.57898(15) 0.38048(10)
H3_2 H 0.3059 0.6251 0.3830
C7_2 C 0.67452(12) 0.38998(18) 0.87838(11)
H4_2 H 0.6763 0.3408 0.8668
C8_2 C 0.30221(13) 0.98167(17) 0.40546(12)
H5_2 H 0.3201 0.9881 0.4424
C9_2 C 0.19944(14) 0.81024(17) 0.31711(12)
H6_2 H 0.1910 0.8588 0.3257
C10_2 C 0.65842(16) 0.25944(19) 0.73973(13)
H7_2 H 0.6866 0.2648 0.7212
C11_2 C 0.41010(11) 0.67590(14) 0.57642(10)
C12_2 C 0.55027(11) 0.20332(15) 0.58432(10)
C13_2 C 0.29835(11) 0.52458(15) 0.34451(10)
C14_2 C 0.45438(12) 0.70859(16) 0.55906(11)
H8_2 H 0.4471 0.7469 0.5332
C15_2 C 0.50653(12) 0.15587(16) 0.56028(11)
H9_2 H 0.5122 0.1172 0.5374
C16_2 C 0.27243(12) 0.45543(16) 0.34139(11)
H10_2 H 0.2792 0.4193 0.3171
C17_2 C 0.68338(19) 0.4770(2) 0.95292(14)
H11_2 H 0.7180 0.4896 0.9787
H12_2 H 0.6533 0.4786 0.9711
H13_2 H 0.6761 0.5123 0.9231
H14_2 H 0.2561 0.9873 0.3057
C19_2 C 0.1835(3) 0.7052(3) 0.2559(3)
H17_2 H 0.2095 0.7103 0.2332
H18_2 H 0.1503 0.6801 0.2356
H19_2 H 0.2005 0.6766 0.2881
C20_2 C 0.58604(19) 0.1814(2) 0.76110(17)
H20_2 H 0.5790 0.2264 0.7792
H21_2 H 0.5955 0.1417 0.7876
H22_2 H 0.5530 0.1680 0.7333
C21_2 C 0.50932(12) 0.68427(17) 0.58028(11)
C22_2 C 0.45415(12) 0.16654(17) 0.57065(11)
C23_2 C 0.23627(12) 0.44014(15) 0.37468(11)
C24_2 C 0.7040(2) 0.3431(2) 0.97193(15)
H23_2 H 0.7058 0.2966 0.9533
H24_2 H 0.6771 0.3392 0.9937
H25_2 H 0.7403 0.3543 0.9954
C26_2 C 0.1221(3) 0.8201(3) 0.2363(2)
H29_2 H 0.1194 0.8695 0.2505
H30_2 H 0.0877 0.7935 0.2343
H31_2 H 0.1287 0.8236 0.2003
C27_2 C 0.6499(2) 0.1308(2) 0.70740(16)
H32_2 H 0.6787 0.1467 0.6902
H33_2 H 0.6184 0.1122 0.6799
H34_2 H 0.6642 0.0918 0.7334
C28_2 C 0.52116(11) 0.62580(16) 0.61824(11)
H35_2 H 0.5577 0.6085 0.6312
C29_2 C 0.44559(11) 0.22456(16) 0.60556(10)
H36_2 H 0.4102 0.2325 0.6116
C30_2 C 0.22496(11) 0.49489(15) 0.41007(10)
H37_2 H 0.2003 0.4848 0.4320
C31_2 C 0.49036(11) 0.53066(15) 0.67805(10)
C32_2 C 0.48328(11) 0.32673(15) 0.67283(10)
C33_2 C 0.23873(11) 0.62203(14) 0.45209(10)
C34_2 C 0.35103(11) 0.70109(15) 0.55270(10)
C35_2 C 0.60794(11) 0.19212(15) 0.57472(10)
C36_2 C 0.33965(11) 0.53976(15) 0.31031(10)
C37_2 C 0.55527(13) 0.7196(2) 0.56291(14)
C38_2 C 0.40810(13) 0.11786(18) 0.54663(12)
C39_2 C 0.21183(14) 0.36642(17) 0.37388(12)
N1_2 N 0.68737(12) 0.40260(15) 0.93155(10)
N3_2 N 0.16836(18) 0.78032(19) 0.27265(15)
N4_2 N 0.63220(14) 0.19375(15) 0.73579(11)
N5_2 N 0.59196(13) 0.7458(2) 0.55007(14)
N6_2 N 0.37140(13) 0.07839(18) 0.52848(12)
N7_2 N 0.19266(15) 0.30793(16) 0.37414(13)
O1_2 O 0.66019(8) 0.43843(11) 0.84252(8)
O2_2 O 0.27769(8) 0.92150(10) 0.39157(7)
O3_2 O 0.23945(9) 0.77879(12) 0.34877(8)
O4_2 O 0.64819(10) 0.31363(12) 0.76604(9)
O5_2 O 0.53991(8) 0.50797(12) 0.69136(8)
O6_2 O 0.52781(8) 0.34834(12) 0.70542(8)
O7_2 O 0.25465(8) 0.68832(10) 0.44831(8)
O10_2 O 0.21412(8) 0.60037(10) 0.48784(7)
O11_2 O 0.31270(8) 0.66780(10) 0.56776(7)
O12_2 O 0.64588(8) 0.23873(11) 0.59644(8)
O13_2 O 0.37335(9) 0.59302(11) 0.32439(8)
O14_2 O 0.34553(8) 0.75451(10) 0.51974(7)
O15_2 O 0.61647(8) 0.13822(10) 0.54564(8)
O16_2 O 0.33823(8) 0.49957(11) 0.26848(7)
Dy4_2 Dy 0.40838(2) 0.57644(2) 0.24179(2)
Dy5_2 Dy 0.71556(2) 0.19097(2) 0.55628(2)
Dy6_2 Dy 0.21556(2) 0.69097(2) 0.55628(2)
O19_2 O 0.28588(8) 0.89963(10) 0.51216(7)
O20_2 O 0.18730(8) 0.83220(10) 0.43224(7)
O21_2 O 0.35412(8) 0.76127(11) 0.40356(8)
O22_2 O 0.62665(9) 0.40698(11) 0.67561(8)
O23_2 O 0.38353(8) 0.86178(10) 0.45436(8)
O24_2 O 0.66177(8) 0.50043(11) 0.73152(7)
Dy2_3 Dy 0.21556(2) 0.30903(2) 0.05628(2)
C3_3 C 0.24955(11) 0.06417(14) 0.08744(10)
C6_3 C 0.21212(11) 0.07898(15) 0.11952(10)
H3_3 H 0.1941 0.1251 0.1170
C8_3 C 0.19779(13) 0.48167(17) 0.09454(12)
H5_3 H 0.1799 0.4881 0.0576
C9_3 C 0.30056(14) 0.31024(17) 0.18289(12)
H6_3 H 0.3090 0.3588 0.1743
C13_3 C 0.20165(11) 0.02458(15) 0.15549(10)
C18_2 C 0.22234(13) 0.53261(17) 0.18717(11)
H14_3 H 0.2439 0.4873 0.1943
H15_2 H 0.1943 0.5324 0.2078
H16_2 H 0.2467 0.5748 0.1979
C19_3 C 0.3165(3) 0.2052(3) 0.2441(3)
H17_3 H 0.2905 0.2103 0.2668
H18_3 H 0.3497 0.1801 0.2644
H19_3 H 0.2995 0.1766 0.2119
C25_2 C 0.1678(2) 0.6078(2) 0.10980(16)
H26_2 H 0.1518 0.6053 0.0708
H27_2 H 0.1948 0.6477 0.1177
H28_2 H 0.1387 0.6170 0.1283
C26_3 C 0.3779(3) 0.3201(3) 0.2637(2)
H29_3 H 0.3806 0.3695 0.2495
H30_3 H 0.4123 0.2935 0.2657
H31_3 H 0.3713 0.3236 0.2997
C33_3 C 0.26127(11) 0.12203(14) 0.04791(10)
C36_3 C 0.16035(11) 0.03976(15) 0.18969(10)
N2_2 N 0.19536(11) 0.53754(14) 0.12877(10)
N3_3 N 0.33164(18) 0.28032(19) 0.22735(15)
O2_3 O 0.22231(8) 0.42150(10) 0.10843(7)
O3_3 O 0.26055(9) 0.27879(12) 0.15123(8)
O7_3 O 0.24535(8) 0.18832(10) 0.05169(8)
O10_3 O 0.28588(8) 0.10037(10) 0.01216(7)
O13_3 O 0.12665(9) 0.09302(11) 0.17561(8)
Dy4_3 Dy 0.09162(2) 0.07644(2) 0.25821(2)
O20_3 O 0.31270(8) 0.33220(10) 0.06776(7)
O21_3 O 0.14588(8) 0.26127(11) 0.09644(8)
O23_3 O 0.11647(8) 0.36178(10) 0.04564(8)
C1_3 C 0.02257(11) 0.09365(14) 0.86347(10)
C4_3 C 0.07725(11) 0.11812(14) 0.88431(10)
H1_3 H 0.1062 0.0959 0.8721
C11_3 C 0.08990(11) 0.17590(14) 0.92358(10)
C14_3 C 0.04562(12) 0.20859(16) 0.94094(11)
H8_3 H 0.0529 0.2469 0.9668
C31_3 C 0.00964(11) 0.03066(15) 0.82195(10)
C34_3 C 0.14897(11) 0.20109(15) 0.94730(10)
O8_2 O 0.04977(8) 0.00711(11) 0.80409(8)
O11_3 O 0.18730(8) 0.16780(10) 0.93224(7)
O14_3 O 0.15447(8) 0.25451(10) 0.98026(7)
O19_3 O 0.21412(8) 0.39963(10) 0.98784(7)
C16_3 C 0.22757(12) 0.95543(16) 0.15861(11)
H10_3 H 0.2208 0.9193 0.1829
C23_3 C 0.26373(12) 0.94014(15) 0.12532(11)
C30_3 C 0.27504(11) 0.99489(15) 0.08993(10)
H37_3 H 0.2997 0.9848 0.0680
C39_3 C 0.28817(14) 0.86642(17) 0.12612(12)
N7_3 N 0.30734(15) 0.80793(16) 0.12586(13)
O16_3 O 0.16177(8) 0.99957(11) 0.23152(7)
C2_3 C 0.01004(11) 0.76961(15) 0.86917(10)
C22_3 C 0.04585(12) 0.66654(17) 0.92935(11)
C29_3 C 0.05441(11) 0.72456(16) 0.89444(10)
H36_3 H 0.0898 0.7325 0.8884
C32_3 C 0.01672(11) 0.82673(15) 0.82717(10)
C38_3 C 0.09190(13) 0.61786(18) 0.95337(12)
N6_3 N 0.12860(13) 0.57839(18) 0.97152(12)
O9_2 O 0.06502(8) 0.84629(11) 0.82569(8)
Dy3_2 Dy 0.09162(2) 0.92356(2) 0.75821(2)
H13_3 H 0.8239 0.0123 0.5769
C21_3 C 0.99068(12) 0.18427(17) 0.91972(11)
C28_3 C 0.97884(11) 0.12580(16) 0.88176(11)
H35_3 H 0.9423 0.1085 0.8688
C37_3 C 0.94473(13) 0.2196(2) 0.93709(14)
N5_3 N 0.90804(13) 0.2458(2) 0.94993(14)
O5_3 O 0.96009(8) 0.00797(12) 0.80864(8)
O17_2 O 0.95023(8) 0.00711(11) 0.69591(8)
O24_3 O 0.83823(8) 0.00043(11) 0.76848(7)
Dy1_2 Dy 0.90838(2) 0.92356(2) 0.74179(2)
C5_3 C 0.95774(11) 0.76022(15) 0.88029(10)
H2_3 H 0.9282 0.7918 0.8642
C7_3 C 0.82548(12) 0.88998(18) 0.62162(11)
H4_3 H 0.8237 0.8408 0.6332
C10_3 C 0.84158(16) 0.75944(19) 0.76027(13)
H7_3 H 0.8134 0.7648 0.7788
C12_3 C 0.94973(11) 0.70332(15) 0.91568(10)
C15_3 C 0.99347(12) 0.65587(16) 0.93972(11)
H9_3 H 0.9878 0.6172 0.9626
C17_3 C 0.81662(19) 0.9770(2) 0.54708(14)
H11_3 H 0.7820 0.9896 0.5213
H12_3 H 0.8467 0.9786 0.5289
C20_3 C 0.91396(19) 0.6814(2) 0.73890(17)
H20_3 H 0.9210 0.7264 0.7208
H21_3 H 0.9045 0.6417 0.7124
H22_3 H 0.9470 0.6680 0.7667
C24_3 C 0.7960(2) 0.8431(2) 0.52807(15)
H23_3 H 0.7942 0.7966 0.5467
H24_3 H 0.8229 0.8392 0.5063
H25_3 H 0.7597 0.8543 0.5046
C27_3 C 0.8501(2) 0.6308(2) 0.79260(16)
H32_3 H 0.8213 0.6467 0.8098
H33_3 H 0.8816 0.6122 0.8201
H34_3 H 0.8358 0.5918 0.7666
C35_3 C 0.89206(11) 0.69212(15) 0.92528(10)
N1_3 N 0.81263(12) 0.90260(15) 0.56845(10)
N4_3 N 0.86780(14) 0.69375(15) 0.76421(11)
O1_3 O 0.83981(8) 0.93843(11) 0.65748(8)
O4_3 O 0.85181(10) 0.81363(12) 0.73396(9)
O6_3 O 0.97219(8) 0.84834(12) 0.79458(8)
O12_3 O 0.85412(8) 0.73873(11) 0.90356(8)
O15_3 O 0.88353(8) 0.63822(10) 0.95436(8)
O18_2 O 0.93498(8) 0.84629(11) 0.67431(8)
O22_3 O 0.87335(9) 0.90698(11) 0.82439(8)
H13_4 H 0.1761 0.0123 0.9231
C21_4 C 0.00932(12) 0.18427(17) 0.58028(11)
C28_4 C 0.02116(11) 0.12580(16) 0.61824(11)
H35_4 H 0.0577 0.1085 0.6312
C37_4 C 0.05527(13) 0.2196(2) 0.56291(14)
N5_4 N 0.09196(13) 0.2458(2) 0.55007(14)
O5_4 O 0.03991(8) 0.00797(12) 0.69136(8)
O24_4 O 0.16177(8) 0.00043(11) 0.73152(7)
C5_4 C 0.04226(11) 0.76022(15) 0.61971(10)
H2_4 H 0.0718 0.7918 0.6358
C7_4 C 0.17452(12) 0.88998(18) 0.87838(11)
H4_4 H 0.1763 0.8408 0.8668
C10_4 C 0.15842(16) 0.75944(19) 0.73973(13)
H7_4 H 0.1866 0.7648 0.7212
C12_4 C 0.05027(11) 0.70332(15) 0.58432(10)
C15_4 C 0.00653(12) 0.65587(16) 0.56028(11)
H9_4 H 0.0122 0.6172 0.5374
C17_4 C 0.18338(19) 0.9770(2) 0.95292(14)
H11_4 H 0.2180 0.9896 0.9787
H12_4 H 0.1533 0.9786 0.9711
C20_4 C 0.08604(19) 0.6814(2) 0.76110(17)
H20_4 H 0.0790 0.7264 0.7792
H21_4 H 0.0955 0.6417 0.7876
H22_4 H 0.0530 0.6680 0.7333
C24_4 C 0.2040(2) 0.8431(2) 0.97193(15)
H23_4 H 0.2058 0.7966 0.9533
H24_4 H 0.1771 0.8392 0.9937
H25_4 H 0.2403 0.8543 0.9954
C27_4 C 0.1499(2) 0.6308(2) 0.70740(16)
H32_4 H 0.1787 0.6467 0.6902
H33_4 H 0.1184 0.6122 0.6799
H34_4 H 0.1642 0.5918 0.7334
C35_4 C 0.10794(11) 0.69212(15) 0.57472(10)
N1_4 N 0.18737(12) 0.90260(15) 0.93155(10)
N4_4 N 0.13220(14) 0.69375(15) 0.73579(11)
O1_4 O 0.16019(8) 0.93843(11) 0.84252(8)
O4_4 O 0.14819(10) 0.81363(12) 0.76604(9)
O6_4 O 0.02781(8) 0.84834(12) 0.70542(8)
O12_4 O 0.14588(8) 0.73873(11) 0.59644(8)
O15_4 O 0.11647(8) 0.63822(10) 0.54564(8)
O22_4 O 0.12665(9) 0.90698(11) 0.67561(8)
Dy2_4 Dy 0.78444(2) 0.30903(2) 0.44372(2)
C1_4 C 0.97743(11) 0.09365(14) 0.63653(10)
C3_4 C 0.75045(11) 0.06417(14) 0.41256(10)
C4_4 C 0.92275(11) 0.11812(14) 0.61569(10)
H1_4 H 0.8938 0.0959 0.6279
C6_4 C 0.78788(11) 0.07898(15) 0.38048(10)
H3_4 H 0.8059 0.1251 0.3830
C8_4 C 0.80221(13) 0.48167(17) 0.40546(12)
H5_4 H 0.8201 0.4881 0.4424
C9_4 C 0.69944(14) 0.31024(17) 0.31711(12)
H6_4 H 0.6910 0.3588 0.3257
C11_4 C 0.91010(11) 0.17590(14) 0.57642(10)
C13_4 C 0.79835(11) 0.02458(15) 0.34451(10)
C14_4 C 0.95438(12) 0.20859(16) 0.55906(11)
H8_4 H 0.9471 0.2469 0.5332
C18_3 C 0.77766(13) 0.53261(17) 0.31283(11)
H14_4 H 0.7561 0.4873 0.3057
H15_3 H 0.8057 0.5324 0.2922
H16_3 H 0.7533 0.5748 0.3021
C19_4 C 0.6835(3) 0.2052(3) 0.2559(3)
H17_4 H 0.7095 0.2103 0.2332
H18_4 H 0.6503 0.1801 0.2356
H19_4 H 0.7005 0.1766 0.2881
C25_3 C 0.8322(2) 0.6078(2) 0.39020(16)
H26_3 H 0.8482 0.6053 0.4292
H27_3 H 0.8052 0.6477 0.3823
H28_3 H 0.8613 0.6170 0.3717
C26_4 C 0.6221(3) 0.3201(3) 0.2363(2)
H29_4 H 0.6194 0.3695 0.2505
H30_4 H 0.5877 0.2935 0.2343
H31_4 H 0.6287 0.3236 0.2003
C31_4 C 0.99036(11) 0.03066(15) 0.67805(10)
C33_4 C 0.73873(11) 0.12203(14) 0.45209(10)
C34_4 C 0.85103(11) 0.20109(15) 0.55270(10)
C36_4 C 0.83965(11) 0.03976(15) 0.31031(10)
N2_3 N 0.80464(11) 0.53754(14) 0.37123(10)
N3_4 N 0.66836(18) 0.28032(19) 0.27265(15)
O2_4 O 0.77769(8) 0.42150(10) 0.39157(7)
O3_4 O 0.73945(9) 0.27879(12) 0.34877(8)
O7_4 O 0.75465(8) 0.18832(10) 0.44831(8)
O10_4 O 0.71412(8) 0.10037(10) 0.48784(7)
O11_4 O 0.81270(8) 0.16780(10) 0.56776(7)
O13_4 O 0.87335(9) 0.09302(11) 0.32439(8)
O14_4 O 0.84553(8) 0.25451(10) 0.51974(7)
Dy4_4 Dy 0.90838(2) 0.07644(2) 0.24179(2)
O19_4 O 0.78588(8) 0.39963(10) 0.51216(7)
O20_4 O 0.68730(8) 0.33220(10) 0.43224(7)
O21_4 O 0.85412(8) 0.26127(11) 0.40356(8)
O23_4 O 0.88353(8) 0.36178(10) 0.45436(8)
C2_4 C 0.98996(11) 0.76961(15) 0.63083(10)
C16_4 C 0.77243(12) 0.95543(16) 0.34139(11)
H10_4 H 0.7792 0.9193 0.3171
C22_4 C 0.95415(12) 0.66654(17) 0.57065(11)
C23_4 C 0.73627(12) 0.94014(15) 0.37468(11)
C29_4 C 0.94559(11) 0.72456(16) 0.60556(10)
H36_4 H 0.9102 0.7325 0.6116
C30_4 C 0.72496(11) 0.99489(15) 0.41007(10)
H37_4 H 0.7003 0.9848 0.4320
C32_4 C 0.98328(11) 0.82673(15) 0.67283(10)
C38_4 C 0.90810(13) 0.61786(18) 0.54663(12)
C39_4 C 0.71183(14) 0.86642(17) 0.37388(12)
N6_4 N 0.87140(13) 0.57839(18) 0.52848(12)
N7_4 N 0.69266(15) 0.80793(16) 0.37414(13)
O16_4 O 0.83823(8) 0.99957(11) 0.26848(7)
C1_5 C 0.47743(11) 0.40635(14) 0.13653(10)
C2_5 C 0.48996(11) 0.73039(15) 0.13083(10)
C4_5 C 0.42275(11) 0.38188(14) 0.11569(10)
H1_5 H 0.3938 0.4041 0.1279
C5_5 C 0.54226(11) 0.73978(15) 0.11971(10)
H2_5 H 0.5718 0.7082 0.1358
C7_5 C 0.67452(12) 0.61002(18) 0.37838(11)
H4_5 H 0.6763 0.6592 0.3668
C10_5 C 0.65842(16) 0.74056(19) 0.23973(13)
H7_5 H 0.6866 0.7352 0.2212
C11_5 C 0.41010(11) 0.32410(14) 0.07642(10)
C12_5 C 0.55027(11) 0.79668(15) 0.08432(10)
C14_5 C 0.45438(12) 0.29141(16) 0.05906(11)
H8_5 H 0.4471 0.2531 0.0332
C15_5 C 0.50653(12) 0.84413(16) 0.06028(11)
H9_5 H 0.5122 0.8828 0.0374
C17_5 C 0.68338(19) 0.5230(2) 0.45292(14)
H11_5 H 0.7180 0.5104 0.4787
H12_5 H 0.6533 0.5214 0.4711
H13_5 H 0.6761 0.4877 0.4231
C20_5 C 0.58604(19) 0.8186(2) 0.26110(17)
H20_5 H 0.5790 0.7736 0.2792
H21_5 H 0.5955 0.8583 0.2876
H22_5 H 0.5530 0.8320 0.2333
C21_5 C 0.50932(12) 0.31573(17) 0.08028(11)
C22_5 C 0.45415(12) 0.83346(17) 0.07065(11)
C24_5 C 0.7040(2) 0.6569(2) 0.47193(15)
H23_5 H 0.7058 0.7034 0.4533
H24_5 H 0.6771 0.6608 0.4937
H25_5 H 0.7403 0.6457 0.4954
C27_5 C 0.6499(2) 0.8692(2) 0.20740(16)
H32_5 H 0.6787 0.8533 0.1902
H33_5 H 0.6184 0.8878 0.1799
H34_5 H 0.6642 0.9082 0.2334
C28_5 C 0.52116(11) 0.37420(16) 0.11824(11)
H35_5 H 0.5577 0.3915 0.1312
C29_5 C 0.44559(11) 0.77544(16) 0.10556(10)
H36_5 H 0.4102 0.7675 0.1116
C31_5 C 0.49036(11) 0.46934(15) 0.17805(10)
C32_5 C 0.48328(11) 0.67327(15) 0.17283(10)
C34_5 C 0.35103(11) 0.29891(15) 0.05270(10)
C35_5 C 0.60794(11) 0.80788(15) 0.07472(10)
C37_5 C 0.55527(13) 0.2804(2) 0.06291(14)
C38_5 C 0.40810(13) 0.88214(18) 0.04663(12)
N1_5 N 0.68737(12) 0.59740(15) 0.43155(10)
N4_5 N 0.63220(14) 0.80625(15) 0.23579(11)
N5_5 N 0.59196(13) 0.2542(2) 0.05007(14)
N6_5 N 0.37140(13) 0.92161(18) 0.02848(12)
O1_5 O 0.66019(8) 0.56157(11) 0.34252(8)
O4_5 O 0.64819(10) 0.68637(12) 0.26604(9)
O5_5 O 0.53991(8) 0.49203(12) 0.19136(8)
O6_5 O 0.52781(8) 0.65166(12) 0.20542(8)
O8_3 O 0.45023(8) 0.49289(11) 0.19591(8)
O9_3 O 0.43498(8) 0.65371(11) 0.17431(8)
O14_5 O 0.34553(8) 0.24549(10) 0.01974(7)
O17_3 O 0.54977(8) 0.49289(11) 0.30409(8)
O18_3 O 0.56502(8) 0.65371(11) 0.32569(8)
C3_5 C 0.25045(11) 0.43583(14) 0.91256(10)
C6_5 C 0.28788(11) 0.42102(15) 0.88048(10)
H3_5 H 0.3059 0.3749 0.8830
C8_5 C 0.30221(13) 0.01833(17) 0.90546(12)
H5_5 H 0.3201 0.0119 0.9424
C9_5 C 0.19944(14) 0.18976(17) 0.81711(12)
H6_5 H 0.1910 0.1412 0.8257
C13_5 C 0.29835(11) 0.47542(15) 0.84451(10)
C16_5 C 0.27243(12) 0.54457(16) 0.84139(11)
H10_5 H 0.2792 0.5807 0.8171
H14_5 H 0.2561 0.0127 0.8057
C19_5 C 0.1835(3) 0.2948(3) 0.7559(3)
H17_5 H 0.2095 0.2897 0.7332
H18_5 H 0.1503 0.3199 0.7356
H19_5 H 0.2005 0.3234 0.7881
C23_5 C 0.23627(12) 0.55986(15) 0.87468(11)
C26_5 C 0.1221(3) 0.1799(3) 0.7363(2)
H29_5 H 0.1194 0.1305 0.7505
H30_5 H 0.0877 0.2065 0.7343
H31_5 H 0.1287 0.1764 0.7003
C30_5 C 0.22496(11) 0.50511(15) 0.91007(10)
H37_5 H 0.2003 0.5152 0.9320
C33_5 C 0.23873(11) 0.37797(14) 0.95209(10)
C36_5 C 0.33965(11) 0.46024(15) 0.81031(10)
C39_5 C 0.21183(14) 0.63358(17) 0.87388(12)
N3_5 N 0.16836(18) 0.21968(19) 0.77265(15)
N7_5 N 0.19266(15) 0.69207(16) 0.87414(13)
O2_5 O 0.27769(8) 0.07850(10) 0.89157(7)
O3_5 O 0.23945(9) 0.22121(12) 0.84877(8)
O7_5 O 0.25465(8) 0.31168(10) 0.94831(8)
C1_6 C 0.52257(11) 0.40635(14) 0.36347(10)
C2_6 C 0.51004(11) 0.73039(15) 0.36917(10)
C3_6 C 0.74955(11) 0.43583(14) 0.58744(10)
C4_6 C 0.57725(11) 0.38188(14) 0.38431(10)
H1_6 H 0.6062 0.4041 0.3721
C5_6 C 0.45774(11) 0.73978(15) 0.38029(10)
H2_6 H 0.4282 0.7082 0.3642
C6_6 C 0.71212(11) 0.42102(15) 0.61952(10)
H3_6 H 0.6941 0.3749 0.6170
C7_6 C 0.32548(12) 0.61002(18) 0.12162(11)
H4_6 H 0.3237 0.6592 0.1332
C8_6 C 0.69779(13) 0.01833(17) 0.59454(12)
H5_6 H 0.6799 0.0119 0.5576
C9_6 C 0.80056(14) 0.18976(17) 0.68289(12)
H6_6 H 0.8090 0.1412 0.6743
C10_6 C 0.34158(16) 0.74056(19) 0.26027(13)
H7_6 H 0.3134 0.7352 0.2788
C11_6 C 0.58990(11) 0.32410(14) 0.42358(10)
C12_6 C 0.44973(11) 0.79668(15) 0.41568(10)
C13_6 C 0.70165(11) 0.47542(15) 0.65549(10)
C14_6 C 0.54562(12) 0.29141(16) 0.44094(11)
H8_6 H 0.5529 0.2531 0.4668
C15_6 C 0.49347(12) 0.84413(16) 0.43972(11)
H9_6 H 0.4878 0.8828 0.4626
C16_6 C 0.72757(12) 0.54457(16) 0.65861(11)
H10_6 H 0.7208 0.5807 0.6829
C17_6 C 0.31662(19) 0.5230(2) 0.04708(14)
H11_6 H 0.2820 0.5104 0.0213
H12_6 H 0.3467 0.5214 0.0289
H13_6 H 0.3239 0.4877 0.0769
H14_6 H 0.7439 0.0127 0.6943
C19_6 C 0.8165(3) 0.2948(3) 0.7441(3)
H17_6 H 0.7905 0.2897 0.7668
H18_6 H 0.8497 0.3199 0.7644
H19_6 H 0.7995 0.3234 0.7119
C20_6 C 0.41396(19) 0.8186(2) 0.23890(17)
H20_6 H 0.4210 0.7736 0.2208
H21_6 H 0.4045 0.8583 0.2124
H22_6 H 0.4470 0.8320 0.2667
C21_6 C 0.49068(12) 0.31573(17) 0.41972(11)
C22_6 C 0.54585(12) 0.83346(17) 0.42935(11)
C23_6 C 0.76373(12) 0.55986(15) 0.62532(11)
C24_6 C 0.2960(2) 0.6569(2) 0.02807(15)
H23_6 H 0.2942 0.7034 0.0467
H24_6 H 0.3229 0.6608 0.0063
H25_6 H 0.2597 0.6457 0.0046
C26_6 C 0.8779(3) 0.1799(3) 0.7637(2)
H29_6 H 0.8806 0.1305 0.7495
H30_6 H 0.9123 0.2065 0.7657
H31_6 H 0.8713 0.1764 0.7997
C27_6 C 0.3501(2) 0.8692(2) 0.29260(16)
H32_6 H 0.3213 0.8533 0.3098
H33_6 H 0.3816 0.8878 0.3201
H34_6 H 0.3358 0.9082 0.2666
C28_6 C 0.47884(11) 0.37420(16) 0.38176(11)
H35_6 H 0.4423 0.3915 0.3688
C29_6 C 0.55441(11) 0.77544(16) 0.39444(10)
H36_6 H 0.5898 0.7675 0.3884
C30_6 C 0.77504(11) 0.50511(15) 0.58993(10)
H37_6 H 0.7997 0.5152 0.5680
C31_6 C 0.50964(11) 0.46934(15) 0.32195(10)
C32_6 C 0.51672(11) 0.67327(15) 0.32717(10)
C33_6 C 0.76127(11) 0.37797(14) 0.54791(10)
C34_6 C 0.64897(11) 0.29891(15) 0.44730(10)
C35_6 C 0.39206(11) 0.80788(15) 0.42528(10)
C36_6 C 0.66035(11) 0.46024(15) 0.68969(10)
C37_6 C 0.44473(13) 0.2804(2) 0.43709(14)
C38_6 C 0.59190(13) 0.88214(18) 0.45337(12)
C39_6 C 0.78817(14) 0.63358(17) 0.62612(12)
N1_6 N 0.31263(12) 0.59740(15) 0.06845(10)
N3_6 N 0.83164(18) 0.21968(19) 0.72735(15)
N4_6 N 0.36780(14) 0.80625(15) 0.26421(11)
N5_6 N 0.40804(13) 0.2542(2) 0.44993(14)
N6_6 N 0.62860(13) 0.92161(18) 0.47152(12)
N7_6 N 0.80734(15) 0.69207(16) 0.62586(13)
O1_6 O 0.33981(8) 0.56157(11) 0.15748(8)
O2_6 O 0.72231(8) 0.07850(10) 0.60843(7)
O3_6 O 0.76055(9) 0.22121(12) 0.65123(8)
O4_6 O 0.35181(10) 0.68637(12) 0.23396(9)
O5_6 O 0.46009(8) 0.49203(12) 0.30864(8)
O6_6 O 0.47219(8) 0.65166(12) 0.29458(8)
O7_6 O 0.74535(8) 0.31168(10) 0.55169(8)
O14_6 O 0.65447(8) 0.24549(10) 0.48026(7)
C5_7 C 0.04226(11) 0.23978(15) 0.11971(10)
H2_7 H 0.0718 0.2082 0.1358
C7_7 C 0.17452(12) 0.11002(18) 0.37838(11)
H4_7 H 0.1763 0.1592 0.3668
C10_7 C 0.15842(16) 0.24056(19) 0.23973(13)
H7_7 H 0.1866 0.2352 0.2212
C12_7 C 0.05027(11) 0.29668(15) 0.08432(10)
C15_7 C 0.00653(12) 0.34413(16) 0.06028(11)
H9_7 H 0.0122 0.3828 0.0374
C17_7 C 0.18338(19) 0.0230(2) 0.45292(14)
H11_7 H 0.2180 0.0104 0.4787
H12_7 H 0.1533 0.0214 0.4711
C20_7 C 0.08604(19) 0.3186(2) 0.26110(17)
H20_7 H 0.0790 0.2736 0.2792
H21_7 H 0.0955 0.3583 0.2876
H22_7 H 0.0530 0.3320 0.2333
C24_7 C 0.2040(2) 0.1569(2) 0.47193(15)
H23_7 H 0.2058 0.2034 0.4533
H24_7 H 0.1771 0.1608 0.4937
H25_7 H 0.2403 0.1457 0.4954
C27_7 C 0.1499(2) 0.3692(2) 0.20740(16)
H32_7 H 0.1787 0.3533 0.1902
H33_7 H 0.1184 0.3878 0.1799
H34_7 H 0.1642 0.4082 0.2334
C35_7 C 0.10794(11) 0.30788(15) 0.07472(10)
N1_7 N 0.18737(12) 0.09740(15) 0.43155(10)
N4_7 N 0.13220(14) 0.30625(15) 0.23579(11)
O1_7 O 0.16019(8) 0.06157(11) 0.34252(8)
O4_7 O 0.14819(10) 0.18637(12) 0.26604(9)
O6_7 O 0.02781(8) 0.15166(12) 0.20542(8)
O18_4 O 0.06502(8) 0.15371(11) 0.32569(8)
H13_7 H 0.1761 0.9877 0.4231
C21_7 C 0.00932(12) 0.81573(17) 0.08028(11)
C28_7 C 0.02116(11) 0.87420(16) 0.11824(11)
H35_7 H 0.0577 0.8915 0.1312
C37_7 C 0.05527(13) 0.7804(2) 0.06291(14)
N5_7 N 0.09196(13) 0.7542(2) 0.05007(14)
O5_7 O 0.03991(8) 0.99203(12) 0.19136(8)
O17_4 O 0.04977(8) 0.99289(11) 0.30409(8)
C2_7 C 0.98996(11) 0.23039(15) 0.13083(10)
C22_7 C 0.95415(12) 0.33346(17) 0.07065(11)
C29_7 C 0.94559(11) 0.27544(16) 0.10556(10)
H36_7 H 0.9102 0.2675 0.1116
C32_7 C 0.98328(11) 0.17327(15) 0.17283(10)
C38_7 C 0.90810(13) 0.38214(18) 0.04663(12)
N6_7 N 0.87140(13) 0.42161(18) 0.02848(12)
O9_4 O 0.93498(8) 0.15371(11) 0.17431(8)
C16_7 C 0.77243(12) 0.04457(16) 0.84139(11)
H10_7 H 0.7792 0.0807 0.8171
C23_7 C 0.73627(12) 0.05986(15) 0.87468(11)
C30_7 C 0.72496(11) 0.00511(15) 0.91007(10)
H37_7 H 0.7003 0.0152 0.9320
C39_7 C 0.71183(14) 0.13358(17) 0.87388(12)
N7_7 N 0.69266(15) 0.19207(16) 0.87414(13)
C1_7 C 0.97743(11) 0.90635(14) 0.13653(10)
C4_7 C 0.92275(11) 0.88188(14) 0.11569(10)
H1_7 H 0.8938 0.9041 0.1279
C11_7 C 0.91010(11) 0.82410(14) 0.07642(10)
C14_7 C 0.95438(12) 0.79141(16) 0.05906(11)
H8_7 H 0.9471 0.7531 0.0332
C31_7 C 0.99036(11) 0.96934(15) 0.17805(10)
C34_7 C 0.85103(11) 0.79891(15) 0.05270(10)
O8_4 O 0.95023(8) 0.99289(11) 0.19591(8)
O14_7 O 0.84553(8) 0.74549(10) 0.01974(7)
C3_7 C 0.75045(11) 0.93583(14) 0.91256(10)
C6_7 C 0.78788(11) 0.92102(15) 0.88048(10)
H3_7 H 0.8059 0.8749 0.8830
C8_7 C 0.80221(13) 0.51833(17) 0.90546(12)
H5_7 H 0.8201 0.5119 0.9424
C9_7 C 0.69944(14) 0.68976(17) 0.81711(12)
H6_7 H 0.6910 0.6412 0.8257
C13_7 C 0.79835(11) 0.97542(15) 0.84451(10)
C18_4 C 0.77766(13) 0.46739(17) 0.81283(11)
H14_7 H 0.7561 0.5127 0.8057
H15_4 H 0.8057 0.4676 0.7922
H16_4 H 0.7533 0.4252 0.8021
C19_7 C 0.6835(3) 0.7948(3) 0.7559(3)
H17_7 H 0.7095 0.7897 0.7332
H18_7 H 0.6503 0.8199 0.7356
H19_7 H 0.7005 0.8234 0.7881
C25_4 C 0.8322(2) 0.3922(2) 0.89020(16)
H26_4 H 0.8482 0.3947 0.9292
H27_4 H 0.8052 0.3523 0.8823
H28_4 H 0.8613 0.3830 0.8717
C26_7 C 0.6221(3) 0.6799(3) 0.7363(2)
H29_7 H 0.6194 0.6305 0.7505
H30_7 H 0.5877 0.7065 0.7343
H31_7 H 0.6287 0.6764 0.7003
C33_7 C 0.73873(11) 0.87797(14) 0.95209(10)
C36_7 C 0.83965(11) 0.96024(15) 0.81031(10)
N2_4 N 0.80464(11) 0.46246(14) 0.87123(10)
N3_7 N 0.66836(18) 0.71968(19) 0.77265(15)
O2_7 O 0.77769(8) 0.57850(10) 0.89157(7)
O3_7 O 0.73945(9) 0.72121(12) 0.84877(8)
O7_7 O 0.75465(8) 0.81168(10) 0.94831(8)
C2_8 C 0.01004(11) 0.23039(15) 0.36917(10)
C16_8 C 0.22757(12) 0.04457(16) 0.65861(11)
H10_8 H 0.2208 0.0807 0.6829
C22_8 C 0.04585(12) 0.33346(17) 0.42935(11)
C23_8 C 0.26373(12) 0.05986(15) 0.62532(11)
C29_8 C 0.05441(11) 0.27544(16) 0.39444(10)
H36_8 H 0.0898 0.2675 0.3884
C30_8 C 0.27504(11) 0.00511(15) 0.58993(10)
H37_8 H 0.2997 0.0152 0.5680
C32_8 C 0.01672(11) 0.17327(15) 0.32717(10)
C38_8 C 0.09190(13) 0.38214(18) 0.45337(12)
C39_8 C 0.28817(14) 0.13358(17) 0.62612(12)
N6_8 N 0.12860(13) 0.42161(18) 0.47152(12)
N7_8 N 0.30734(15) 0.19207(16) 0.62586(13)
C1_8 C 0.02257(11) 0.90635(14) 0.36347(10)
C3_8 C 0.24955(11) 0.93583(14) 0.58744(10)
C4_8 C 0.07725(11) 0.88188(14) 0.38431(10)
H1_8 H 0.1062 0.9041 0.3721
C6_8 C 0.21212(11) 0.92102(15) 0.61952(10)
H3_8 H 0.1941 0.8749 0.6170
C8_8 C 0.19779(13) 0.51833(17) 0.59454(12)
H5_8 H 0.1799 0.5119 0.5576
C9_8 C 0.30056(14) 0.68976(17) 0.68289(12)
H6_8 H 0.3090 0.6412 0.6743
C11_8 C 0.08990(11) 0.82410(14) 0.42358(10)
C13_8 C 0.20165(11) 0.97542(15) 0.65549(10)
C14_8 C 0.04562(12) 0.79141(16) 0.44094(11)
H8_8 H 0.0529 0.7531 0.4668
C18_5 C 0.22234(13) 0.46739(17) 0.68717(11)
H14_8 H 0.2439 0.5127 0.6943
H15_5 H 0.1943 0.4676 0.7078
H16_5 H 0.2467 0.4252 0.6979
C19_8 C 0.3165(3) 0.7948(3) 0.7441(3)
H17_8 H 0.2905 0.7897 0.7668
H18_8 H 0.3497 0.8199 0.7644
H19_8 H 0.2995 0.8234 0.7119
C25_5 C 0.1678(2) 0.3922(2) 0.60980(16)
H26_5 H 0.1518 0.3947 0.5708
H27_5 H 0.1948 0.3523 0.6177
H28_5 H 0.1387 0.3830 0.6283
C26_8 C 0.3779(3) 0.6799(3) 0.7637(2)
H29_8 H 0.3806 0.6305 0.7495
H30_8 H 0.4123 0.7065 0.7657
H31_8 H 0.3713 0.6764 0.7997
C31_8 C 0.00964(11) 0.96934(15) 0.32195(10)
C33_8 C 0.26127(11) 0.87797(14) 0.54791(10)
C34_8 C 0.14897(11) 0.79891(15) 0.44730(10)
C36_8 C 0.16035(11) 0.96024(15) 0.68969(10)
N2_5 N 0.19536(11) 0.46246(14) 0.62877(10)
N3_8 N 0.33164(18) 0.71968(19) 0.72735(15)
O2_8 O 0.22231(8) 0.57850(10) 0.60843(7)
O3_8 O 0.26055(9) 0.72121(12) 0.65123(8)
O7_8 O 0.24535(8) 0.81168(10) 0.55169(8)
O14_8 O 0.15447(8) 0.74549(10) 0.48026(7)
C5_8 C 0.95774(11) 0.23978(15) 0.38029(10)
H2_8 H 0.9282 0.2082 0.3642
C7_8 C 0.82548(12) 0.11002(18) 0.12162(11)
H4_8 H 0.8237 0.1592 0.1332
C10_8 C 0.84158(16) 0.24056(19) 0.26027(13)
H7_8 H 0.8134 0.2352 0.2788
C12_8 C 0.94973(11) 0.29668(15) 0.41568(10)
C15_8 C 0.99347(12) 0.34413(16) 0.43972(11)
H9_8 H 0.9878 0.3828 0.4626
C17_8 C 0.81662(19) 0.0230(2) 0.04708(14)
H11_8 H 0.7820 0.0104 0.0213
H12_8 H 0.8467 0.0214 0.0289
C20_8 C 0.91396(19) 0.3186(2) 0.23890(17)
H20_8 H 0.9210 0.2736 0.2208
H21_8 H 0.9045 0.3583 0.2124
H22_8 H 0.9470 0.3320 0.2667
C24_8 C 0.7960(2) 0.1569(2) 0.02807(15)
H23_8 H 0.7942 0.2034 0.0467
H24_8 H 0.8229 0.1608 0.0063
H25_8 H 0.7597 0.1457 0.0046
C27_8 C 0.8501(2) 0.3692(2) 0.29260(16)
H32_8 H 0.8213 0.3533 0.3098
H33_8 H 0.8816 0.3878 0.3201
H34_8 H 0.8358 0.4082 0.2666
C35_8 C 0.89206(11) 0.30788(15) 0.42528(10)
N1_8 N 0.81263(12) 0.09740(15) 0.06845(10)
N4_8 N 0.86780(14) 0.30625(15) 0.26421(11)
O1_8 O 0.83981(8) 0.06157(11) 0.15748(8)
O4_8 O 0.85181(10) 0.18637(12) 0.23396(9)
O6_8 O 0.97219(8) 0.15166(12) 0.29458(8)
H13_8 H 0.8239 0.9877 0.0769
C21_8 C 0.99068(12) 0.81573(17) 0.41972(11)
C28_8 C 0.97884(11) 0.87420(16) 0.38176(11)
H35_8 H 0.9423 0.8915 0.3688
C37_8 C 0.94473(13) 0.7804(2) 0.43709(14)
N5_8 N 0.90804(13) 0.7542(2) 0.44993(14)
O5_8 O 0.96009(8) 0.99203(12) 0.30864(8)
C18_6 C 0.27766(13) 0.03261(17) 0.31283(11)
H15_6 H 0.3057 0.0324 0.2922
H16_6 H 0.2533 0.0748 0.3021
C25_6 C 0.3322(2) 0.1078(2) 0.39020(16)
H26_6 H 0.3482 0.1053 0.4292
H27_6 H 0.3052 0.1477 0.3823
H28_6 H 0.3613 0.1170 0.3717
N2_6 N 0.30464(11) 0.03754(14) 0.37123(10)
C18_7 C 0.27766(13) 0.96739(17) 0.81283(11)
H15_7 H 0.3057 0.9676 0.7922
H16_7 H 0.2533 0.9252 0.8021
C25_7 C 0.3322(2) 0.8922(2) 0.89020(16)
H26_7 H 0.3482 0.8947 0.9292
H27_7 H 0.3052 0.8523 0.8823
H28_7 H 0.3613 0.8830 0.8717
N2_7 N 0.30464(11) 0.96246(14) 0.87123(10)
C18_8 C 0.72234(13) 0.96739(17) 0.68717(11)
H15_8 H 0.6943 0.9676 0.7078
H16_8 H 0.7467 0.9252 0.6979
C25_8 C 0.6678(2) 0.8922(2) 0.60980(16)
H26_8 H 0.6518 0.8947 0.5708
H27_8 H 0.6948 0.8523 0.6177
H28_8 H 0.6387 0.8830 0.6283
N2_8 N 0.69536(11) 0.96246(14) 0.62877(10)
loop_
_geom_bond_atom_site_label_1
_geom_bond_atom_site_label_2
_geom_bond_site_symmetry_1
_geom_bond_site_symmetry_2
H15 C18 1_555 1_555
H16 C18 1_555 1_555
C25 H26 1_555 1_555
H27 C25 1_555 1_555
H28 C25 1_555 1_555
C18 N2 1_555 1_555
C25 N2 1_555 1_555
Dy2 O2 1_555 1_555
C3 C6 1_555 1_555
C6 H3 1_555 1_555
C8 H5 1_555 1_555
C9 H6 1_555 1_555
C13 C6 1_555 1_555
C16 C13 1_555 1_555
H10 C16 1_555 1_555
C19 H17 1_555 1_555
H18 C19 1_555 1_555
H19 C19 1_555 1_555
C23 C16 1_555 1_555
C26 H29 1_555 1_555
H30 C26 1_555 1_555
H31 C26 1_555 1_555
C30 C3 1_555 1_555
H37 C30 1_555 1_555
C33 C3 1_555 1_555
C36 C13 1_555 1_555
C39 C23 1_555 1_555
N3 C9 1_555 1_555
N7 C39 1_555 1_555
O2 C8 1_555 1_555
O3 Dy2 1_555 1_555
O7 Dy2 1_555 1_555
O10 C33 1_555 1_555
O13 C36 1_555 1_555
O16 C36 1_555 1_555
Dy4 O13 1_555 1_555
O20 Dy2 1_555 1_555
O21 Dy2 1_555 1_555
O23 Dy2 1_555 1_555
C9 O3 1_555 1_555
C19 N3 1_555 1_555
C23 C30 1_555 1_555
C26 N3 1_555 1_555
C33 O7 1_555 1_555
O16 Dy4 1_555 1_555
Dy1 O1 1_555 1_555
C1 C4 1_555 1_555
C2 C5 1_555 1_555
C4 H1 1_555 1_555
C5 H2 1_555 1_555
C7 H4 1_555 1_555
C10 H7 1_555 1_555
C11 C4 1_555 1_555
C12 C5 1_555 1_555
C14 C11 1_555 1_555
H8 C14 1_555 1_555
C15 C12 1_555 1_555
H9 C15 1_555 1_555
C17 H11 1_555 1_555
H12 C17 1_555 1_555
H13 C17 1_555 1_555
C20 H20 1_555 1_555
H21 C20 1_555 1_555
H22 C20 1_555 1_555
C21 C14 1_555 1_555
C22 C15 1_555 1_555
C24 H23 1_555 1_555
H24 C24 1_555 1_555
H25 C24 1_555 1_555
C27 H32 1_555 1_555
H33 C27 1_555 1_555
H34 C27 1_555 1_555
C28 C1 1_555 1_555
H35 C28 1_555 1_555
C29 C2 1_555 1_555
H36 C29 1_555 1_555
C31 C1 1_555 1_555
C32 C2 1_555 1_555
C34 C11 1_555 1_555
C35 C12 1_555 1_555
C37 C21 1_555 1_555
C38 C22 1_555 1_555
N1 C7 1_555 1_555
N4 C10 1_555 1_555
N5 C37 1_555 1_555
N6 C38 1_555 1_555
O1 C7 1_555 1_555
O4 Dy1 1_555 1_555
O5 Dy1 1_555 1_555
O6 Dy1 1_555 1_555
O8 C31 1_555 1_555
O9 C32 1_555 1_555
O11 C34 1_555 1_555
O12 C35 1_555 1_555
O15 C35 1_555 1_555
Dy3 O8 1_555 1_555
Dy5 O12 1_555 1_555
O17 Dy1 1_555 1_555
O18 Dy1 1_555 1_555
O22 Dy1 1_555 1_555
O24 Dy1 1_555 1_555
C10 O4 1_555 1_555
C17 N1 1_555 1_555
C20 N4 1_555 1_555
C21 C28 1_555 1_555
C22 C29 1_555 1_555
C24 N1 1_555 1_555
C27 N4 1_555 1_555
C31 O5 1_555 1_555
C32 O6 1_555 1_555
C34 O14 1_555 1_555
O9 Dy3 1_555 1_555
O11 Dy6 1_555 1_555
O15 Dy5 1_555 1_555
Dy3 O1_2 1_555 1_555
Dy2_2 O2_2 1_555 1_555
C1_2 C4_2 1_555 1_555
C2_2 C5_2 1_555 1_555
C3_2 C6_2 1_555 1_555
C4_2 H1_2 1_555 1_555
C5_2 H2_2 1_555 1_555
C6_2 H3_2 1_555 1_555
C7_2 H4_2 1_555 1_555
C8_2 H5_2 1_555 1_555
C9_2 H6_2 1_555 1_555
C10_2 H7_2 1_555 1_555
C11_2 C4_2 1_555 1_555
C12_2 C5_2 1_555 1_555
C13_2 C6_2 1_555 1_555
C14_2 C11_2 1_555 1_555
H8_2 C14_2 1_555 1_555
C15_2 C12_2 1_555 1_555
H9_2 C15_2 1_555 1_555
C16_2 C13_2 1_555 1_555
H10_2 C16_2 1_555 1_555
C17_2 H11_2 1_555 1_555
H12_2 C17_2 1_555 1_555
H13_2 C17_2 1_555 1_555
C19_2 H17_2 1_555 1_555
H18_2 C19_2 1_555 1_555
H19_2 C19_2 1_555 1_555
C20_2 H20_2 1_555 1_555
H21_2 C20_2 1_555 1_555
H22_2 C20_2 1_555 1_555
C21_2 C14_2 1_555 1_555
C22_2 C15_2 1_555 1_555
C23_2 C16_2 1_555 1_555
C24_2 H23_2 1_555 1_555
H24_2 C24_2 1_555 1_555
H25_2 C24_2 1_555 1_555
C26_2 H29_2 1_555 1_555
H30_2 C26_2 1_555 1_555
H31_2 C26_2 1_555 1_555
C27_2 H32_2 1_555 1_555
H33_2 C27_2 1_555 1_555
H34_2 C27_2 1_555 1_555
C28_2 C1_2 1_555 1_555
H35_2 C28_2 1_555 1_555
C29_2 C2_2 1_555 1_555
H36_2 C29_2 1_555 1_555
C30_2 C3_2 1_555 1_555
H37_2 C30_2 1_555 1_555
C31_2 C1_2 1_555 1_555
C32_2 C2_2 1_555 1_555
C33_2 C3_2 1_555 1_555
C34_2 C11_2 1_555 1_555
C35_2 C12_2 1_555 1_555
C36_2 C13_2 1_555 1_555
C37_2 C21_2 1_555 1_555
C38_2 C22_2 1_555 1_555
C39_2 C23_2 1_555 1_555
N1_2 C7_2 1_555 1_555
N3_2 C9_2 1_555 1_555
N4_2 C10_2 1_555 1_555
N5_2 C37_2 1_555 1_555
N6_2 C38_2 1_555 1_555
N7_2 C39_2 1_555 1_555
O1_2 C7_2 1_555 1_555
O2_2 C8_2 1_555 1_555
O3_2 Dy2_2 1_555 1_555
O4_2 Dy3 1_555 1_555
O5_2 Dy3 1_555 1_555
O6_2 Dy3 1_555 1_555
O7_2 Dy2_2 1_555 1_555
O17 C31_2 1_555 1_555
O18 C32_2 1_555 1_555
O10_2 C33_2 1_555 1_555
O11_2 C34_2 1_555 1_555
O12_2 C35_2 1_555 1_555
O13_2 C36_2 1_555 1_555
O14_2 Dy2_2 1_555 1_555
O15_2 C35_2 1_555 1_555
O16_2 C36_2 1_555 1_555
Dy4_2 O13_2 1_555 1_555
Dy5_2 O12_2 1_555 1_555
Dy6_2 O10_2 1_555 1_555
O19_2 Dy2_2 1_555 1_555
O20_2 Dy2_2 1_555 1_555
O21_2 Dy2_2 1_555 1_555
O22_2 Dy3 1_555 1_555
O23_2 Dy2_2 1_555 1_555
O24_2 Dy3 1_555 1_555
C9_2 O3_2 1_555 1_555
C10_2 O4_2 1_555 1_555
C17_2 N1_2 1_555 1_555
C19_2 N3_2 1_555 1_555
C20_2 N4_2 1_555 1_555
C21_2 C28_2 1_555 1_555
C22_2 C29_2 1_555 1_555
C23_2 C30_2 1_555 1_555
C24_2 N1_2 1_555 1_555
C26_2 N3_2 1_555 1_555
C27_2 N4_2 1_555 1_555
C31_2 O5_2 1_555 1_555
C32_2 O6_2 1_555 1_555
C33_2 O7_2 1_555 1_555
C34_2 O14_2 1_555 1_555
O11_2 Dy6_2 1_555 1_555
O15_2 Dy5_2 1_555 1_555
O16_2 Dy4_2 1_555 1_555
Dy2_3 O2_3 1_555 1_555
C3_3 C6_3 1_555 1_555
C6_3 H3_3 1_555 1_555
C8_3 H5_3 1_555 1_555
C9_3 H6_3 1_555 1_555
C13_3 C6_3 1_555 1_555
C18_2 H14_3 1_555 1_555
H15_2 C18_2 1_555 1_555
H16_2 C18_2 1_555 1_555
C19_3 H17_3 1_555 1_555
H18_3 C19_3 1_555 1_555
H19_3 C19_3 1_555 1_555
C25_2 H26_2 1_555 1_555
H27_2 C25_2 1_555 1_555
H28_2 C25_2 1_555 1_555
C26_3 H29_3 1_555 1_555
H30_3 C26_3 1_555 1_555
H31_3 C26_3 1_555 1_555
C33_3 C3_3 1_555 1_555
C36_3 C13_3 1_555 1_555
N2_2 C8_3 1_555 1_555
N3_3 C9_3 1_555 1_555
O2_3 C8_3 1_555 1_555
O3_3 Dy2_3 1_555 1_555
O7_3 Dy2_3 1_555 1_555
O10_3 C33_3 1_555 1_555
O13_3 C36_3 1_555 1_555
Dy4_3 O13_3 1_555 1_555
O20_3 Dy2_3 1_555 1_555
O21_3 Dy2_3 1_555 1_555
O23_3 Dy2_3 1_555 1_555
C9_3 O3_3 1_555 1_555
C18_2 N2_2 1_555 1_555
C19_3 N3_3 1_555 1_555
C25_2 N2_2 1_555 1_555
C26_3 N3_3 1_555 1_555
C33_3 O7_3 1_555 1_555
C1_3 C4_3 1_555 1_555
C4_3 H1_3 1_555 1_555
C11_3 C4_3 1_555 1_555
C14_3 C11_3 1_555 1_555
H8_3 C14_3 1_555 1_555
C31_3 C1_3 1_555 1_555
C34_3 C11_3 1_555 1_555
O8_2 C31_3 1_555 1_555
O11_3 C34_3 1_555 1_555
C34_3 O14_3 1_555 1_555
O11_3 Dy5 1_555 1_555
H10_3 C16_3 1_555 1_555
C23_3 C16_3 1_555 1_555
H37_3 C30_3 1_555 1_555
C39_3 C23_3 1_555 1_555
N7_3 C39_3 1_555 1_555
C23_3 C30_3 1_555 1_555
C29_3 C2_3 1_555 1_555
H36_3 C29_3 1_555 1_555
C32_3 C2_3 1_555 1_555
C38_3 C22_3 1_555 1_555
N6_3 C38_3 1_555 1_555
O9_2 C32_3 1_555 1_555
C22_3 C29_3 1_555 1_555
O9_2 Dy3_2 1_555 1_555
H35_3 C28_3 1_555 1_555
C37_3 C21_3 1_555 1_555
N5_3 C37_3 1_555 1_555
C21_3 C28_3 1_555 1_555
Dy1_2 O1_3 1_555 1_555
C5_3 H2_3 1_555 1_555
C7_3 H4_3 1_555 1_555
C10_3 H7_3 1_555 1_555
C12_3 C5_3 1_555 1_555
C15_3 C12_3 1_555 1_555
H9_3 C15_3 1_555 1_555
C17_3 H11_3 1_555 1_555
H12_3 C17_3 1_555 1_555
C20_3 H20_3 1_555 1_555
H21_3 C20_3 1_555 1_555
H22_3 C20_3 1_555 1_555
C24_3 H23_3 1_555 1_555
H24_3 C24_3 1_555 1_555
H25_3 C24_3 1_555 1_555
C27_3 H32_3 1_555 1_555
H33_3 C27_3 1_555 1_555
H34_3 C27_3 1_555 1_555
C35_3 C12_3 1_555 1_555
N1_3 C7_3 1_555 1_555
N4_3 C10_3 1_555 1_555
O1_3 C7_3 1_555 1_555
O4_3 Dy1_2 1_555 1_555
O6_3 Dy1_2 1_555 1_555
O12_3 C35_3 1_555 1_555
O15_3 C35_3 1_555 1_555
Dy6 O12_3 1_555 1_555
O18_2 Dy1_2 1_555 1_555
O22_3 Dy1_2 1_555 1_555
C10_3 O4_3 1_555 1_555
C17_3 N1_3 1_555 1_555
C20_3 N4_3 1_555 1_555
C24_3 N1_3 1_555 1_555
C27_3 N4_3 1_555 1_555
O15_3 Dy6 1_555 1_555
H35_4 C28_4 1_555 1_555
C37_4 C21_4 1_555 1_555
N5_4 C37_4 1_555 1_555
C21_4 C28_4 1_555 1_555
Dy3_2 O1_4 1_555 1_555
C5_4 H2_4 1_555 1_555
C7_4 H4_4 1_555 1_555
C10_4 H7_4 1_555 1_555
C12_4 C5_4 1_555 1_555
C15_4 C12_4 1_555 1_555
H9_4 C15_4 1_555 1_555
C17_4 H11_4 1_555 1_555
H12_4 C17_4 1_555 1_555
C20_4 H20_4 1_555 1_555
H21_4 C20_4 1_555 1_555
H22_4 C20_4 1_555 1_555
C24_4 H23_4 1_555 1_555
H24_4 C24_4 1_555 1_555
H25_4 C24_4 1_555 1_555
C27_4 H32_4 1_555 1_555
H33_4 C27_4 1_555 1_555
H34_4 C27_4 1_555 1_555
C35_4 C12_4 1_555 1_555
N1_4 C7_4 1_555 1_555
N4_4 C10_4 1_555 1_555
O1_4 C7_4 1_555 1_555
O4_4 Dy3_2 1_555 1_555
O6_4 Dy3_2 1_555 1_555
O12_4 C35_4 1_555 1_555
O15_4 C35_4 1_555 1_555
Dy6_2 O12_4 1_555 1_555
O22_4 Dy3_2 1_555 1_555
C10_4 O4_4 1_555 1_555
C17_4 N1_4 1_555 1_555
C20_4 N4_4 1_555 1_555
C24_4 N1_4 1_555 1_555
C27_4 N4_4 1_555 1_555
O15_4 Dy6_2 1_555 1_555
Dy2_4 O2_4 1_555 1_555
C1_4 C4_4 1_555 1_555
C3_4 C6_4 1_555 1_555
C4_4 H1_4 1_555 1_555
C6_4 H3_4 1_555 1_555
C8_4 H5_4 1_555 1_555
C9_4 H6_4 1_555 1_555
C11_4 C4_4 1_555 1_555
C13_4 C6_4 1_555 1_555
C14_4 C11_4 1_555 1_555
H8_4 C14_4 1_555 1_555
C18_3 H14_4 1_555 1_555
H15_3 C18_3 1_555 1_555
H16_3 C18_3 1_555 1_555
C19_4 H17_4 1_555 1_555
H18_4 C19_4 1_555 1_555
H19_4 C19_4 1_555 1_555
C25_3 H26_3 1_555 1_555
H27_3 C25_3 1_555 1_555
H28_3 C25_3 1_555 1_555
C26_4 H29_4 1_555 1_555
H30_4 C26_4 1_555 1_555
H31_4 C26_4 1_555 1_555
C31_4 C1_4 1_555 1_555
C33_4 C3_4 1_555 1_555
C34_4 C11_4 1_555 1_555
C36_4 C13_4 1_555 1_555
N2_3 C8_4 1_555 1_555
N3_4 C9_4 1_555 1_555
O2_4 C8_4 1_555 1_555
O3_4 Dy2_4 1_555 1_555
O7_4 Dy2_4 1_555 1_555
O17_2 C31_4 1_555 1_555
O10_4 C33_4 1_555 1_555
O11_4 C34_4 1_555 1_555
O13_4 C36_4 1_555 1_555
O14_4 Dy2_4 1_555 1_555
Dy4_4 O13_4 1_555 1_555
Dy5_2 O10_4 1_555 1_555
O19_4 Dy2_4 1_555 1_555
O20_4 Dy2_4 1_555 1_555
O21_4 Dy2_4 1_555 1_555
O23_4 Dy2_4 1_555 1_555
C9_4 O3_4 1_555 1_555
C18_3 N2_3 1_555 1_555
C19_4 N3_4 1_555 1_555
C25_3 N2_3 1_555 1_555
C26_4 N3_4 1_555 1_555
C33_4 O7_4 1_555 1_555
C34_4 O14_4 1_555 1_555
O11_4 Dy5_2 1_555 1_555
H10_4 C16_4 1_555 1_555
C23_4 C16_4 1_555 1_555
C29_4 C2_4 1_555 1_555
H36_4 C29_4 1_555 1_555
H37_4 C30_4 1_555 1_555
C32_4 C2_4 1_555 1_555
C38_4 C22_4 1_555 1_555
C39_4 C23_4 1_555 1_555
N6_4 C38_4 1_555 1_555
N7_4 C39_4 1_555 1_555
O18_2 C32_4 1_555 1_555
C22_4 C29_4 1_555 1_555
C23_4 C30_4 1_555 1_555
Dy4 O1_5 1_555 1_555
C1_5 C4_5 1_555 1_555
C2_5 C5_5 1_555 1_555
C4_5 H1_5 1_555 1_555
C5_5 H2_5 1_555 1_555
C7_5 H4_5 1_555 1_555
C10_5 H7_5 1_555 1_555
C11_5 C4_5 1_555 1_555
C12_5 C5_5 1_555 1_555
C14_5 C11_5 1_555 1_555
H8_5 C14_5 1_555 1_555
C15_5 C12_5 1_555 1_555
H9_5 C15_5 1_555 1_555
C17_5 H11_5 1_555 1_555
H12_5 C17_5 1_555 1_555
H13_5 C17_5 1_555 1_555
C20_5 H20_5 1_555 1_555
H21_5 C20_5 1_555 1_555
H22_5 C20_5 1_555 1_555
C21_5 C14_5 1_555 1_555
C22_5 C15_5 1_555 1_555
C24_5 H23_5 1_555 1_555
H24_5 C24_5 1_555 1_555
H25_5 C24_5 1_555 1_555
C27_5 H32_5 1_555 1_555
H33_5 C27_5 1_555 1_555
H34_5 C27_5 1_555 1_555
C28_5 C1_5 1_555 1_555
H35_5 C28_5 1_555 1_555
C29_5 C2_5 1_555 1_555
H36_5 C29_5 1_555 1_555
C31_5 C1_5 1_555 1_555
C32_5 C2_5 1_555 1_555
C34_5 C11_5 1_555 1_555
C35_5 C12_5 1_555 1_555
C37_5 C21_5 1_555 1_555
C38_5 C22_5 1_555 1_555
N1_5 C7_5 1_555 1_555
N4_5 C10_5 1_555 1_555
N5_5 C37_5 1_555 1_555
N6_5 C38_5 1_555 1_555
O1_5 C7_5 1_555 1_555
O4_5 Dy4 1_555 1_555
O5_5 Dy4 1_555 1_555
O6_5 Dy4 1_555 1_555
O8_3 C31_5 1_555 1_555
O9_3 C32_5 1_555 1_555
O20_3 C34_5 1_555 1_555
O21 C35_5 1_555 1_555
O23 C35_5 1_555 1_555
Dy4_2 O8_3 1_555 1_555
O17_3 Dy4 1_555 1_555
O18_3 Dy4 1_555 1_555
C10_5 O4_5 1_555 1_555
C17_5 N1_5 1_555 1_555
C20_5 N4_5 1_555 1_555
C21_5 C28_5 1_555 1_555
C22_5 C29_5 1_555 1_555
C24_5 N1_5 1_555 1_555
C27_5 N4_5 1_555 1_555
C31_5 O5_5 1_555 1_555
C32_5 O6_5 1_555 1_555
C34_5 O14_5 1_555 1_555
O9_3 Dy4_2 1_555 1_555
Dy5 O2_5 1_555 1_555
C3_5 C6_5 1_555 1_555
C6_5 H3_5 1_555 1_555
C8_5 H5_5 1_555 1_555
C9_5 H6_5 1_555 1_555
C13_5 C6_5 1_555 1_555
C16_5 C13_5 1_555 1_555
H10_5 C16_5 1_555 1_555
C19_5 H17_5 1_555 1_555
H18_5 C19_5 1_555 1_555
H19_5 C19_5 1_555 1_555
C23_5 C16_5 1_555 1_555
C26_5 H29_5 1_555 1_555
H30_5 C26_5 1_555 1_555
H31_5 C26_5 1_555 1_555
C30_5 C3_5 1_555 1_555
H37_5 C30_5 1_555 1_555
C33_5 C3_5 1_555 1_555
C36_5 C13_5 1_555 1_555
C39_5 C23_5 1_555 1_555
N3_5 C9_5 1_555 1_555
N7_5 C39_5 1_555 1_555
O2_5 C8_5 1_555 1_555
O3_5 Dy5 1_555 1_555
O7_5 Dy5 1_555 1_555
O19_3 C33_5 1_555 1_555
O22 C36_5 1_555 1_555
O24 C36_5 1_555 1_555
C9_5 O3_5 1_555 1_555
C19_5 N3_5 1_555 1_555
C23_5 C30_5 1_555 1_555
C26_5 N3_5 1_555 1_555
C33_5 O7_5 1_555 1_555
Dy4_2 O1_6 1_555 1_555
Dy5_2 O2_6 1_555 1_555
C1_6 C4_6 1_555 1_555
C2_6 C5_6 1_555 1_555
C3_6 C6_6 1_555 1_555
C4_6 H1_6 1_555 1_555
C5_6 H2_6 1_555 1_555
C6_6 H3_6 1_555 1_555
C7_6 H4_6 1_555 1_555
C8_6 H5_6 1_555 1_555
C9_6 H6_6 1_555 1_555
C10_6 H7_6 1_555 1_555
C11_6 C4_6 1_555 1_555
C12_6 C5_6 1_555 1_555
C13_6 C6_6 1_555 1_555
C14_6 C11_6 1_555 1_555
H8_6 C14_6 1_555 1_555
C15_6 C12_6 1_555 1_555
H9_6 C15_6 1_555 1_555
C16_6 C13_6 1_555 1_555
H10_6 C16_6 1_555 1_555
C17_6 H11_6 1_555 1_555
H12_6 C17_6 1_555 1_555
H13_6 C17_6 1_555 1_555
C19_6 H17_6 1_555 1_555
H18_6 C19_6 1_555 1_555
H19_6 C19_6 1_555 1_555
C20_6 H20_6 1_555 1_555
H21_6 C20_6 1_555 1_555
H22_6 C20_6 1_555 1_555
C21_6 C14_6 1_555 1_555
C22_6 C15_6 1_555 1_555
C23_6 C16_6 1_555 1_555
C24_6 H23_6 1_555 1_555
H24_6 C24_6 1_555 1_555
H25_6 C24_6 1_555 1_555
C26_6 H29_6 1_555 1_555
H30_6 C26_6 1_555 1_555
H31_6 C26_6 1_555 1_555
C27_6 H32_6 1_555 1_555
H33_6 C27_6 1_555 1_555
H34_6 C27_6 1_555 1_555
C28_6 C1_6 1_555 1_555
H35_6 C28_6 1_555 1_555
C29_6 C2_6 1_555 1_555
H36_6 C29_6 1_555 1_555
C30_6 C3_6 1_555 1_555
H37_6 C30_6 1_555 1_555
C31_6 C1_6 1_555 1_555
C32_6 C2_6 1_555 1_555
C33_6 C3_6 1_555 1_555
C34_6 C11_6 1_555 1_555
C35_6 C12_6 1_555 1_555
C36_6 C13_6 1_555 1_555
C37_6 C21_6 1_555 1_555
C38_6 C22_6 1_555 1_555
C39_6 C23_6 1_555 1_555
N1_6 C7_6 1_555 1_555
N3_6 C9_6 1_555 1_555
N4_6 C10_6 1_555 1_555
N5_6 C37_6 1_555 1_555
N6_6 C38_6 1_555 1_555
N7_6 C39_6 1_555 1_555
O1_6 C7_6 1_555 1_555
O2_6 C8_6 1_555 1_555
O3_6 Dy5_2 1_555 1_555
O4_6 Dy4_2 1_555 1_555
O5_6 Dy4_2 1_555 1_555
O6_6 Dy4_2 1_555 1_555
O7_6 Dy5_2 1_555 1_555
O17_3 C31_6 1_555 1_555
O18_3 C32_6 1_555 1_555
O19_4 C33_6 1_555 1_555
O20_4 C34_6 1_555 1_555
O21_2 C35_6 1_555 1_555
O22_2 C36_6 1_555 1_555
O14_6 Dy5_2 1_555 1_555
O23_2 C35_6 1_555 1_555
O24_2 C36_6 1_555 1_555
C9_6 O3_6 1_555 1_555
C10_6 O4_6 1_555 1_555
C17_6 N1_6 1_555 1_555
C19_6 N3_6 1_555 1_555
C20_6 N4_6 1_555 1_555
C21_6 C28_6 1_555 1_555
C22_6 C29_6 1_555 1_555
C23_6 C30_6 1_555 1_555
C24_6 N1_6 1_555 1_555
C26_6 N3_6 1_555 1_555
C27_6 N4_6 1_555 1_555
C31_6 O5_6 1_555 1_555
C32_6 O6_6 1_555 1_555
C33_6 O7_6 1_555 1_555
C34_6 O14_6 1_555 1_555
Dy4_3 O1_7 1_555 1_555
C5_7 H2_7 1_555 1_555
C7_7 H4_7 1_555 1_555
C10_7 H7_7 1_555 1_555
C12_7 C5_7 1_555 1_555
C15_7 C12_7 1_555 1_555
H9_7 C15_7 1_555 1_555
C17_7 H11_7 1_555 1_555
H12_7 C17_7 1_555 1_555
C20_7 H20_7 1_555 1_555
H21_7 C20_7 1_555 1_555
H22_7 C20_7 1_555 1_555
C24_7 H23_7 1_555 1_555
H24_7 C24_7 1_555 1_555
H25_7 C24_7 1_555 1_555
C27_7 H32_7 1_555 1_555
H33_7 C27_7 1_555 1_555
H34_7 C27_7 1_555 1_555
C35_7 C12_7 1_555 1_555
N1_7 C7_7 1_555 1_555
N4_7 C10_7 1_555 1_555
O1_7 C7_7 1_555 1_555
O4_7 Dy4_3 1_555 1_555
O6_7 Dy4_3 1_555 1_555
O21_3 C35_7 1_555 1_555
O23_3 C35_7 1_555 1_555
O18_4 Dy4_3 1_555 1_555
C10_7 O4_7 1_555 1_555
C17_7 N1_7 1_555 1_555
C20_7 N4_7 1_555 1_555
C24_7 N1_7 1_555 1_555
C27_7 N4_7 1_555 1_555
H35_7 C28_7 1_555 1_555
C37_7 C21_7 1_555 1_555
N5_7 C37_7 1_555 1_555
C21_7 C28_7 1_555 1_555
C29_7 C2_7 1_555 1_555
H36_7 C29_7 1_555 1_555
C32_7 C2_7 1_555 1_555
C38_7 C22_7 1_555 1_555
N6_7 C38_7 1_555 1_555
O9_4 C32_7 1_555 1_555
C22_7 C29_7 1_555 1_555
O9_4 Dy4_4 1_555 1_555
H10_7 C16_7 1_555 1_555
C23_7 C16_7 1_555 1_555
H37_7 C30_7 1_555 1_555
C39_7 C23_7 1_555 1_555
N7_7 C39_7 1_555 1_555
C23_7 C30_7 1_555 1_555
C1_7 C4_7 1_555 1_555
C4_7 H1_7 1_555 1_555
C11_7 C4_7 1_555 1_555
C14_7 C11_7 1_555 1_555
H8_7 C14_7 1_555 1_555
C31_7 C1_7 1_555 1_555
C34_7 C11_7 1_555 1_555
O8_4 C31_7 1_555 1_555
O20 C34_7 1_555 1_555
C34_7 O14_7 1_555 1_555
Dy6 O2_7 1_555 1_555
C3_7 C6_7 1_555 1_555
C6_7 H3_7 1_555 1_555
C8_7 H5_7 1_555 1_555
C9_7 H6_7 1_555 1_555
C13_7 C6_7 1_555 1_555
C18_4 H14_7 1_555 1_555
H15_4 C18_4 1_555 1_555
H16_4 C18_4 1_555 1_555
C19_7 H17_7 1_555 1_555
H18_7 C19_7 1_555 1_555
H19_7 C19_7 1_555 1_555
C25_4 H26_4 1_555 1_555
H27_4 C25_4 1_555 1_555
H28_4 C25_4 1_555 1_555
C26_7 H29_7 1_555 1_555
H30_7 C26_7 1_555 1_555
H31_7 C26_7 1_555 1_555
C33_7 C3_7 1_555 1_555
C36_7 C13_7 1_555 1_555
N2_4 C8_7 1_555 1_555
N3_7 C9_7 1_555 1_555
O2_7 C8_7 1_555 1_555
O3_7 Dy6 1_555 1_555
O7_7 Dy6 1_555 1_555
O19 C33_7 1_555 1_555
O22_3 C36_7 1_555 1_555
C9_7 O3_7 1_555 1_555
C18_4 N2_4 1_555 1_555
C19_7 N3_7 1_555 1_555
C25_4 N2_4 1_555 1_555
C26_7 N3_7 1_555 1_555
C33_7 O7_7 1_555 1_555
H10_8 C16_8 1_555 1_555
C23_8 C16_8 1_555 1_555
C29_8 C2_8 1_555 1_555
H36_8 C29_8 1_555 1_555
H37_8 C30_8 1_555 1_555
C32_8 C2_8 1_555 1_555
C38_8 C22_8 1_555 1_555
C39_8 C23_8 1_555 1_555
N6_8 C38_8 1_555 1_555
N7_8 C39_8 1_555 1_555
O18_4 C32_8 1_555 1_555
C22_8 C29_8 1_555 1_555
C23_8 C30_8 1_555 1_555
Dy6_2 O2_8 1_555 1_555
C1_8 C4_8 1_555 1_555
C3_8 C6_8 1_555 1_555
C4_8 H1_8 1_555 1_555
C6_8 H3_8 1_555 1_555
C8_8 H5_8 1_555 1_555
C9_8 H6_8 1_555 1_555
C11_8 C4_8 1_555 1_555
C13_8 C6_8 1_555 1_555
C14_8 C11_8 1_555 1_555
H8_8 C14_8 1_555 1_555
C18_5 H14_8 1_555 1_555
H15_5 C18_5 1_555 1_555
H16_5 C18_5 1_555 1_555
C19_8 H17_8 1_555 1_555
H18_8 C19_8 1_555 1_555
H19_8 C19_8 1_555 1_555
C25_5 H26_5 1_555 1_555
H27_5 C25_5 1_555 1_555
H28_5 C25_5 1_555 1_555
C26_8 H29_8 1_555 1_555
H30_8 C26_8 1_555 1_555
H31_8 C26_8 1_555 1_555
C31_8 C1_8 1_555 1_555
C33_8 C3_8 1_555 1_555
C34_8 C11_8 1_555 1_555
C36_8 C13_8 1_555 1_555
N2_5 C8_8 1_555 1_555
N3_8 C9_8 1_555 1_555
O2_8 C8_8 1_555 1_555
O3_8 Dy6_2 1_555 1_555
O7_8 Dy6_2 1_555 1_555
O17_4 C31_8 1_555 1_555
O19_2 C33_8 1_555 1_555
O20_2 C34_8 1_555 1_555
O22_4 C36_8 1_555 1_555
O14_8 Dy6_2 1_555 1_555
C9_8 O3_8 1_555 1_555
C18_5 N2_5 1_555 1_555
C19_8 N3_8 1_555 1_555
C25_5 N2_5 1_555 1_555
C26_8 N3_8 1_555 1_555
C33_8 O7_8 1_555 1_555
C34_8 O14_8 1_555 1_555
Dy4_4 O1_8 1_555 1_555
C5_8 H2_8 1_555 1_555
C7_8 H4_8 1_555 1_555
C10_8 H7_8 1_555 1_555
C12_8 C5_8 1_555 1_555
C15_8 C12_8 1_555 1_555
H9_8 C15_8 1_555 1_555
C17_8 H11_8 1_555 1_555
H12_8 C17_8 1_555 1_555
C20_8 H20_8 1_555 1_555
H21_8 C20_8 1_555 1_555
H22_8 C20_8 1_555 1_555
C24_8 H23_8 1_555 1_555
H24_8 C24_8 1_555 1_555
H25_8 C24_8 1_555 1_555
C27_8 H32_8 1_555 1_555
H33_8 C27_8 1_555 1_555
H34_8 C27_8 1_555 1_555
C35_8 C12_8 1_555 1_555
N1_8 C7_8 1_555 1_555
N4_8 C10_8 1_555 1_555
O1_8 C7_8 1_555 1_555
O4_8 Dy4_4 1_555 1_555
O6_8 Dy4_4 1_555 1_555
O21_4 C35_8 1_555 1_555
O23_4 C35_8 1_555 1_555
C10_8 O4_8 1_555 1_555
C17_8 N1_8 1_555 1_555
C20_8 N4_8 1_555 1_555
C24_8 N1_8 1_555 1_555
C27_8 N4_8 1_555 1_555
H35_8 C28_8 1_555 1_555
C37_8 C21_8 1_555 1_555
N5_8 C37_8 1_555 1_555
C21_8 C28_8 1_555 1_555
H15_6 C18_6 1_555 1_555
H16_6 C18_6 1_555 1_555
C25_6 H26_6 1_555 1_555
H27_6 C25_6 1_555 1_555
H28_6 C25_6 1_555 1_555
C18_6 N2_6 1_555 1_555
C25_6 N2_6 1_555 1_555
H15_7 C18_7 1_555 1_555
H16_7 C18_7 1_555 1_555
C25_7 H26_7 1_555 1_555
H27_7 C25_7 1_555 1_555
H28_7 C25_7 1_555 1_555
C18_7 N2_7 1_555 1_555
C25_7 N2_7 1_555 1_555
H15_8 C18_8 1_555 1_555
H16_8 C18_8 1_555 1_555
C25_8 H26_8 1_555 1_555
H27_8 C25_8 1_555 1_555
H28_8 C25_8 1_555 1_555
C18_8 N2_8 1_555 1_555
C25_8 N2_8 1_555 1_555

#END
