
###############################################################################
#
# This file contains modified crystal structure data generated from the
# MOF subset of the Cambridge Structural Database (CSD) v543 
# hosted by the Cambridge Crystallographic Data Centre (CCDC).
#
# This work is licensed under the Creative Commons
# Attribution-NonCommercial-ShareAlike 4.0 International License.
# To view a copy of this license, visit
# http://creativecommons.org/licenses/by-nc-sa/4.0/
# or send a letter to
# Creative Commons, PO Box 1866, Mountain View, CA 94042, USA.
#
# CIF created using the CSD Python API on 29 September 2022
# The structure has been converted into the P1 space group
# The structure has a 3D framework
# The original CSD entry IKUTOZ is in the triclinic crystal system
# The framework has been calculated to contain at least 10.0% void space
# The void calculation uses a probe of radius 1.32A, grid spacing 0.4
#
###############################################################################

data_IKUTOZ
_chemical_formula_moiety         '(C52 H50 Dy2 N6 O13)n'
_symmetry_cell_setting           triclinic
_symmetry_space_group_name_H-M   'P 1'
_symmetry_Int_Tables_number      1
_space_group_name_Hall           'P 1'
loop_
_symmetry_equiv_pos_site_id
_symmetry_equiv_pos_as_xyz
1 x,y,z
_cell_length_a                   10.7673(9)
_cell_length_b                   11.0209(10)
_cell_length_c                   13.0918(11)
_cell_angle_alpha                105.064(2)
_cell_angle_beta                 94.854(3)
_cell_angle_gamma                93.847(3)
_cell_volume                     1488.36
loop_
_atom_site_label
_atom_site_type_symbol
_atom_site_fract_x
_atom_site_fract_y
_atom_site_fract_z
_atom_site_U_iso_or_equiv
_atom_site_thermal_displace_type
Dy4 Dy 0.03020(5) 0.55128(3) 0.17541(3) 0.0189 Uani
C10 C 0.0509(12) 0.0007(9) 0.4052(8) 0.0517 Uani
C13 C 0.0992(13) 0.0076(9) 0.3054(8) 0.0632 Uani
C18 C 0.1447(14) 0.1220(10) 0.2931(9) 0.0764 Uani
H13 H 0.1759 0.1254 0.2297 0.0920 Uiso
C22 C 0.1449(14) 0.2345(10) 0.3750(9) 0.0717 Uani
H21 H 0.1784 0.3108 0.3663 0.0860 Uiso
C24 C 0.0952(12) 0.2307(9) 0.4675(8) 0.0534 Uani
H23 H 0.0918 0.3057 0.5196 0.0640 Uiso
O10 O 0.0225(6) 0.3413(5) 0.0780(5) 0.0388 Uani
C42 C 0.0486(12) 0.1145(8) 0.4859(8) 0.0506 Uani
O11 O 0.0886(7) 0.2928(5) 0.7121(5) 0.0382 Uani
C21 C 0.3251(12) 0.0588(10) 0.9414(10) 0.0625 Uani
H20 H 0.3978 0.0991 0.9273 0.0750 Uiso
C23 C 0.2198(10) 0.1183(8) 0.9515(8) 0.0418 Uani
H22 H 0.2203 0.1988 0.9413 0.0500 Uiso
C27 C 0.0046(9) 0.2612(7) 0.9908(7) 0.0226 Uani
C28 C 0.0017(9) 0.1250(7) 0.9929(6) 0.0201 Uani
C34 C 0.1073(9) 0.0620(7) 0.9773(7) 0.0255 Uani
C2 C 0.0118(12) 0.7671(8) 0.3352(7) 0.0316 Uani
C5 C 0.0042(10) 0.8876(7) 0.4202(7) 0.0308 Uani
C7 C 0.2827(14) 0.4067(12) 0.2193(9) 0.0657 Uani
H1 H 0.2570 0.3567 0.1508 0.0790 Uiso
H4 H 0.0992 0.9347 0.2503 0.0760 Uiso
C14 C 0.4476(10) 0.5740(10) 0.0812(9) 0.0553 Uani
H5 H 0.4116 0.6253 0.1370 0.0660 Uiso
C15 C 0.4472(17) 0.4633(17) 0.3601(12) 0.1462 Uani
H6 H 0.3917 0.5244 0.3910 0.2190 Uiso
H7 H 0.5252 0.5063 0.3524 0.2190 Uiso
H8 H 0.4627 0.4098 0.4064 0.2190 Uiso
C19 C 0.4638(15) 0.2923(15) 0.2028(12) 0.1123 Uani
H14 H 0.4255 0.2599 0.1310 0.1680 Uiso
H15 H 0.4651 0.2253 0.2372 0.1680 Uiso
H16 H 0.5480 0.3268 0.2023 0.1680 Uiso
N2 N 0.3926(10) 0.3906(11) 0.2602(8) 0.0762 Uani
O1 O 0.0092(8) 0.7173(5) 0.0965(5) 0.0587 Uani
O3 O 0.1887(7) 0.5581(8) 0.0721(7) 0.0677 Uani
O4 O 0.2088(7) 0.4802(6) 0.2605(5) 0.0438 Uani
O7 O 0.1162(7) 0.7288(6) 0.3172(5) 0.0369 Uani
C43 C 0.7672(11) 0.4808(8) 0.0143(9) 0.0394 Uani
C44 C 0.6285(8) 0.4900(8) 0.0089(7) 0.0273 Uani
C45 C 0.5746(11) 0.5654(10) 0.0927(8) 0.0541 Uani
N4 N 0.649(2) 0.640(3) 0.1862(17) 0.1236 Uani
H35 H 0.6146 0.6900 0.2353 0.1490 Uiso
H36 H 0.7286 0.6346 0.1934 0.1490 Uiso
O14 O 0.8276(7) 0.5075(8) 0.1016(7) 0.0754 Uani
C3 C 0.2328(11) 0.5192(8) 0.9857(9) 0.0394 Uani
C6 C 0.3715(8) 0.5100(8) 0.9911(7) 0.0273 Uani
C9 C 0.1080(10) 0.9349(7) 0.9852(7) 0.0311 Uani
C11 C 0.4254(11) 0.4346(10) 0.9073(8) 0.0541 Uani
C12 C 0.2211(10) 0.8770(9) 0.9750(9) 0.0451 Uani
H3 H 0.2241 0.7963 0.9841 0.0540 Uiso
C17 C 0.3243(12) 0.9356(9) 0.9525(11) 0.0662 Uani
H12 H 0.3966 0.8939 0.9442 0.0800 Uiso
N1 N 0.351(2) 0.360(3) 0.8138(17) 0.1236 Uani
H24 H 0.3854 0.3100 0.7647 0.1490 Uiso
H25 H 0.2714 0.3654 0.8066 0.1490 Uiso
O8 O 0.1724(7) 0.4925(8) 0.8984(7) 0.0754 Uani
C46 C 0.5524(10) 0.4260(10) 0.9188(9) 0.0553 Uani
H34 H 0.5884 0.3747 0.8630 0.0660 Uiso
O13 O 0.8113(7) 0.4419(8) 0.9279(7) 0.0677 Uani
C48 C 0.1015(11) 0.6526(11) 0.7133(8) 0.0523 Uani
H38 H 0.0884 0.7136 0.7745 0.0630 Uiso
C50 C 0.1898(15) 0.6025(12) 0.5494(10) 0.0854 Uani
H42 H 0.1114 0.5735 0.5044 0.1280 Uiso
H43 H 0.2459 0.6407 0.5102 0.1280 Uiso
H44 H 0.2263 0.5308 0.5650 0.1280 Uiso
C52 C 0.2185(14) 0.8233(11) 0.6654(11) 0.0845 Uani
H48 H 0.3078 0.8286 0.6652 0.1260 Uiso
H49 H 0.1820 0.8573 0.6106 0.1260 Uiso
H50 H 0.1976 0.8707 0.7333 0.1260 Uiso
N6 N 0.1693(9) 0.6898(8) 0.6456(7) 0.0529 Uani
O16 O 0.0546(7) 0.5459(6) 0.7030(5) 0.0445 Uani
Dy7 Dy 0.96980(5) 0.44872(3) 0.82459(3) 0.0189 Uani
C29 C 0.8920(10) 0.0651(7) 0.0148(7) 0.0311 Uani
C30 C 0.7789(10) 0.1230(9) 0.0250(9) 0.0451 Uani
H26 H 0.7759 0.2037 0.0159 0.0540 Uiso
C31 C 0.6757(12) 0.0644(9) 0.0475(11) 0.0662 Uani
H27 H 0.6034 0.1061 0.0558 0.0800 Uiso
C35 C 0.9882(12) 0.2329(8) 0.6648(7) 0.0316 Uani
C36 C 0.9958(10) 0.1124(7) 0.5798(7) 0.0308 Uani
H30 H 0.9008 0.0653 0.7497 0.0760 Uiso
O12 O 0.8838(7) 0.2712(6) 0.6828(5) 0.0369 Uani
O9 O 0.9908(8) 0.2827(5) 0.9035(5) 0.0587 Uani
C1 C 0.9954(9) 0.7388(7) 0.0092(7) 0.0226 Uani
C4 C 0.9983(9) 0.8750(7) 0.0071(6) 0.0201 Uani
C8 C 0.8985(11) 0.3474(11) 0.2867(8) 0.0523 Uani
H2 H 0.9116 0.2864 0.2255 0.0630 Uiso
C16 C 0.8102(15) 0.3975(12) 0.4506(10) 0.0854 Uani
H9 H 0.8886 0.4265 0.4956 0.1280 Uiso
H10 H 0.7541 0.3593 0.4898 0.1280 Uiso
H11 H 0.7737 0.4692 0.4350 0.1280 Uiso
C20 C 0.7815(14) 0.1767(11) 0.3346(11) 0.0845 Uani
H17 H 0.6922 0.1714 0.3348 0.1260 Uiso
H18 H 0.8180 0.1427 0.3894 0.1260 Uiso
H19 H 0.8024 0.1293 0.2667 0.1260 Uiso
C25 C 0.8927(9) 0.9380(7) 0.0227(7) 0.0255 Uani
C26 C 0.9514(12) 0.8855(8) 0.5141(8) 0.0506 Uani
N3 N 0.8307(9) 0.3102(8) 0.3544(7) 0.0529 Uani
O2 O 0.9114(7) 0.7072(5) 0.2879(5) 0.0382 Uani
O5 O 0.9454(7) 0.4541(6) 0.2970(5) 0.0445 Uani
C32 C 0.6749(12) 0.9412(10) 0.0586(10) 0.0625 Uani
H28 H 0.6022 0.9009 0.0727 0.0750 Uiso
C33 C 0.7802(10) 0.8817(8) 0.0485(8) 0.0418 Uani
H29 H 0.7797 0.8012 0.0587 0.0500 Uiso
C37 C 0.9491(12) 0.9993(9) 0.5948(8) 0.0517 Uani
C38 C 0.9008(13) 0.9924(9) 0.6946(8) 0.0632 Uani
C39 C 0.8553(14) 0.8780(10) 0.7069(9) 0.0764 Uani
H31 H 0.8241 0.8746 0.7703 0.0920 Uiso
C40 C 0.8551(14) 0.7655(10) 0.6250(9) 0.0717 Uani
H32 H 0.8216 0.6892 0.6337 0.0860 Uiso
C41 C 0.9048(12) 0.7693(9) 0.5325(8) 0.0534 Uani
H33 H 0.9082 0.6943 0.4804 0.0640 Uiso
O6 O 0.9775(6) 0.6587(5) 0.9220(5) 0.0388 Uani
C47 C 0.7173(14) 0.5933(12) 0.7807(9) 0.0657 Uani
H37 H 0.7430 0.6433 0.8492 0.0790 Uiso
C49 C 0.5528(17) 0.5367(17) 0.6399(12) 0.1462 Uani
H39 H 0.6083 0.4756 0.6090 0.2190 Uiso
H40 H 0.4748 0.4937 0.6476 0.2190 Uiso
H41 H 0.5373 0.5902 0.5936 0.2190 Uiso
C51 C 0.5362(15) 0.7077(15) 0.7972(12) 0.1123 Uani
H45 H 0.5745 0.7401 0.8690 0.1680 Uiso
H46 H 0.5349 0.7747 0.7628 0.1680 Uiso
H47 H 0.4520 0.6732 0.7977 0.1680 Uiso
N5 N 0.6074(10) 0.6094(11) 0.7398(8) 0.0762 Uani
O15 O 0.7912(7) 0.5198(6) 0.7395(5) 0.0438 Uani
loop_
_atom_site_aniso_label
_atom_site_aniso_U_11
_atom_site_aniso_U_22
_atom_site_aniso_U_33
_atom_site_aniso_U_23
_atom_site_aniso_U_13
_atom_site_aniso_U_12
Dy4 0.0334 0.0065 0.0187 0.00549 0.00456 0.00557
C10 0.075 0.029 0.046 -0.003 0.02 0.003
C13 0.124 0.025 0.041 0.001 0.028 0.016
C18 0.145 0.04 0.042 -0.001 0.039 0.005
C22 0.126 0.031 0.06 0.01 0.035 -0.002
C24 0.088 0.026 0.044 0.005 0.01 0.004
O10 0.062 0.012 0.035 -0.003 -0.012 0.009
C42 0.085 0.022 0.039 0 0.002 0.002
O11 0.049 0.023 0.035 -0.008 0.011 0.003
C21 0.043 0.049 0.092 0.004 0.031 0.009
C23 0.047 0.021 0.053 0.004 0.007 -0.007
C27 0.037 0.018 0.02 0.015 0.008 0.008
C28 0.025 0.014 0.021 0 0.009 0.01
C34 0.028 0.016 0.032 0.007 -0.003 0.003
C2 0.057 0.023 0.014 0.003 0.001 0.009
C5 0.059 0.01 0.023 0.003 0.002 0.008
C7 0.092 0.063 0.036 0.008 -0.01 0.005
C14 0.022 0.076 0.05 -0.018 0.014 0.004
C15 0.148 0.178 0.087 -0.02 -0.026 0.104
C19 0.093 0.134 0.102 0.002 0.007 0.077
N2 0.05 0.136 0.05 0.034 -0.007 0.04
O1 0.125 0.023 0.041 0.019 0.03 0.03
O3 0.044 0.113 0.065 0.051 0.018 0.017
O4 0.055 0.033 0.044 0.004 0.01 0.028
O7 0.038 0.031 0.032 -0.008 -0.008 0.014
C43 0.052 0.009 0.051 -0.005 0.01 0.005
C44 0.013 0.029 0.042 0.013 0.004 0.001
C45 0.038 0.067 0.043 -0.012 0.013 -0.002
N4 0.023 0.23 0.064 -0.056 0.017 -0.005
O14 0.035 0.084 0.07 -0.043 -0.017 0.024
C3 0.052 0.009 0.051 -0.005 0.01 0.005
C6 0.013 0.029 0.042 0.013 0.004 0.001
C9 0.046 0.008 0.039 0.006 -0.002 0.009
C11 0.038 0.067 0.043 -0.012 0.013 -0.002
C12 0.039 0.028 0.074 0.02 0.012 0.011
C17 0.045 0.029 0.121 0.011 0.009 0.013
N1 0.023 0.23 0.064 -0.056 0.017 -0.005
O8 0.035 0.084 0.07 -0.043 -0.017 0.024
C46 0.022 0.076 0.05 -0.018 0.014 0.004
O13 0.044 0.113 0.065 0.051 0.018 0.017
C48 0.075 0.055 0.036 0.028 0.013 -0.001
C50 0.147 0.071 0.068 0.052 0.055 0.034
C52 0.101 0.065 0.096 0.049 -0.003 -0.025
N6 0.055 0.06 0.057 0.039 0.011 -0.001
O16 0.081 0.024 0.033 0.015 0.02 -0.011
Dy7 0.0334 0.0065 0.0187 0.00549 0.00456 0.00557
C29 0.046 0.008 0.039 0.006 -0.002 0.009
C30 0.039 0.028 0.074 0.02 0.012 0.011
C31 0.045 0.029 0.121 0.011 0.009 0.013
C35 0.057 0.023 0.014 0.003 0.001 0.009
C36 0.059 0.01 0.023 0.003 0.002 0.008
O12 0.038 0.031 0.032 -0.008 -0.008 0.014
O9 0.125 0.023 0.041 0.019 0.03 0.03
C1 0.037 0.018 0.02 0.015 0.008 0.008
C4 0.025 0.014 0.021 0 0.009 0.01
C8 0.075 0.055 0.036 0.028 0.013 -0.001
C16 0.147 0.071 0.068 0.052 0.055 0.034
C20 0.101 0.065 0.096 0.049 -0.003 -0.025
C25 0.028 0.016 0.032 0.007 -0.003 0.003
C26 0.085 0.022 0.039 0 0.002 0.002
N3 0.055 0.06 0.057 0.039 0.011 -0.001
O2 0.049 0.023 0.035 -0.008 0.011 0.003
O5 0.081 0.024 0.033 0.015 0.02 -0.011
C32 0.043 0.049 0.092 0.004 0.031 0.009
C33 0.047 0.021 0.053 0.004 0.007 -0.007
C37 0.075 0.029 0.046 -0.003 0.02 0.003
C38 0.124 0.025 0.041 0.001 0.028 0.016
C39 0.145 0.04 0.042 -0.001 0.039 0.005
C40 0.126 0.031 0.06 0.01 0.035 -0.002
C41 0.088 0.026 0.044 0.005 0.01 0.004
O6 0.062 0.012 0.035 -0.003 -0.012 0.009
C47 0.092 0.063 0.036 0.008 -0.01 0.005
C49 0.148 0.178 0.087 -0.02 -0.026 0.104
C51 0.093 0.134 0.102 0.002 0.007 0.077
N5 0.05 0.136 0.05 0.034 -0.007 0.04
O15 0.055 0.033 0.044 0.004 0.01 0.028
loop_
_geom_bond_atom_site_label_1
_geom_bond_atom_site_label_2
_geom_bond_site_symmetry_1
_geom_bond_site_symmetry_2
C10 C13 1_555 1_555
C18 C13 1_555 1_555
H13 C18 1_555 1_555
C22 C18 1_555 1_555
H21 C22 1_555 1_555
C24 C22 1_555 1_555
H23 C24 1_555 1_555
C42 C10 1_555 1_555
Dy4 O10 1_555 1_555
C24 C42 1_555 1_555
H20 C21 1_555 1_555
C23 C21 1_555 1_555
H22 C23 1_555 1_555
C27 C28 1_555 1_555
C23 C34 1_555 1_555
C28 C34 1_555 1_555
Dy4 O1 1_555 1_555
C2 C5 1_555 1_555
C7 H1 1_555 1_555
H5 C14 1_555 1_555
C15 H6 1_555 1_555
H7 C15 1_555 1_555
H8 C15 1_555 1_555
C19 H14 1_555 1_555
H15 C19 1_555 1_555
H16 C19 1_555 1_555
N2 C7 1_555 1_555
O3 Dy4 1_555 1_555
O4 Dy4 1_555 1_555
O7 Dy4 1_555 1_555
C43 C44 1_555 1_555
C44 C45 1_555 1_555
C45 C14 1_555 1_555
N4 C45 1_555 1_555
H35 N4 1_555 1_555
H36 N4 1_555 1_555
O14 C43 1_555 1_555
C2 O7 1_555 1_555
C7 O4 1_555 1_555
C15 N2 1_555 1_555
C19 N2 1_555 1_555
C3 C6 1_555 1_555
C6 C11 1_555 1_555
C9 C12 1_555 1_555
C11 N1 1_555 1_555
C12 H3 1_555 1_555
C17 C12 1_555 1_555
H12 C17 1_555 1_555
N1 H24 1_555 1_555
H25 N1 1_555 1_555
O8 C3 1_555 1_555
C46 C11 1_555 1_555
H34 C46 1_555 1_555
C48 H38 1_555 1_555
C50 H42 1_555 1_555
H43 C50 1_555 1_555
H44 C50 1_555 1_555
C52 H48 1_555 1_555
H49 C52 1_555 1_555
H50 C52 1_555 1_555
N6 C48 1_555 1_555
Dy7 O13 1_555 1_555
C48 O16 1_555 1_555
C50 N6 1_555 1_555
C52 N6 1_555 1_555
C30 C29 1_555 1_555
H26 C30 1_555 1_555
C31 C30 1_555 1_555
H27 C31 1_555 1_555
C35 C36 1_555 1_555
O12 C35 1_555 1_555
O12 Dy7 1_555 1_555
Dy7 O9 1_555 1_555
C1 C4 1_555 1_555
C8 H2 1_555 1_555
C16 H9 1_555 1_555
H10 C16 1_555 1_555
H11 C16 1_555 1_555
C20 H17 1_555 1_555
H18 C20 1_555 1_555
H19 C20 1_555 1_555
C25 C4 1_555 1_555
N3 C8 1_555 1_555
H28 C32 1_555 1_555
C33 C25 1_555 1_555
H29 C33 1_555 1_555
C37 C26 1_555 1_555
C38 C37 1_555 1_555
C39 C38 1_555 1_555
H31 C39 1_555 1_555
C40 C39 1_555 1_555
H32 C40 1_555 1_555
C41 C26 1_555 1_555
H33 C41 1_555 1_555
C8 O5 1_555 1_555
C16 N3 1_555 1_555
C20 N3 1_555 1_555
C32 C33 1_555 1_555
C40 C41 1_555 1_555
Dy7 O6 1_555 1_555
C47 H37 1_555 1_555
C49 H39 1_555 1_555
H40 C49 1_555 1_555
H41 C49 1_555 1_555
C51 H45 1_555 1_555
H46 C51 1_555 1_555
H47 C51 1_555 1_555
N5 C47 1_555 1_555
O15 Dy7 1_555 1_555
C47 O15 1_555 1_555
C49 N5 1_555 1_555
C51 N5 1_555 1_555

#END
