
###############################################################################
#
# This file contains modified crystal structure data generated from the
# MOF subset of the Cambridge Structural Database (CSD) v543 
# hosted by the Cambridge Crystallographic Data Centre (CCDC).
#
# This work is licensed under the Creative Commons
# Attribution-NonCommercial-ShareAlike 4.0 International License.
# To view a copy of this license, visit
# http://creativecommons.org/licenses/by-nc-sa/4.0/
# or send a letter to
# Creative Commons, PO Box 1866, Mountain View, CA 94042, USA.
#
# CIF created using the CSD Python API on 29 September 2022
# The structure has been converted into the P1 space group
# The structure has a 3D framework
# The original CSD entry ILAGUY is in the orthorhombic crystal system
# The framework has been calculated to contain at least 10.0% void space
# The void calculation uses a probe of radius 1.32A, grid spacing 0.4
#
###############################################################################

data_ILAGUY
_chemical_formula_moiety         '(C352 H316 Cd12 Cl4 N32 O90)n'
_symmetry_cell_setting           triclinic
_symmetry_space_group_name_H-M   'P 1'
_symmetry_Int_Tables_number      1
_space_group_name_Hall           'P 1'
loop_
_symmetry_equiv_pos_site_id
_symmetry_equiv_pos_as_xyz
1 x,y,z
_cell_length_a                   21.4448(14)
_cell_length_b                   18.3196(12)
_cell_length_c                   22.3854(15)
_cell_angle_alpha                90
_cell_angle_beta                 90
_cell_angle_gamma                90
_cell_volume                     8794.33
loop_
_atom_site_label
_atom_site_type_symbol
_atom_site_fract_x
_atom_site_fract_y
_atom_site_fract_z
Cd4 Cd 0.242381(12) 0.094459(15) 0.097278(14)
Cd1 Cd 0.227495(12) 0.655554(14) 0.432329(15)
Cd2 Cd 0.257619(12) 0.594459(15) 0.597278(14)
Cd3 Cd 0.244590(13) 0.548303(15) 0.767843(15)
O1 O 0.19205(12) 0.57704(17) 0.67899(13)
O2 O 0.14716(13) 0.49095(15) 0.73192(14)
O3 O 0.18323(12) 0.63375(16) 0.52788(12)
O4 O 0.13927(13) 0.72372(15) 0.47807(13)
O5 O 0.18704(16) 0.56112(16) 0.85704(15)
O6 O 0.19849(15) 0.65899(15) 0.80080(13)
O7 O 0.15557(13) 0.64850(14) 0.34819(13)
O8 O 0.16921(12) 0.55464(13) 0.40875(13)
O9 O 0.30571(13) 0.59655(15) 0.50002(13)
O10 O 0.29982(14) 0.62798(16) 0.35691(15)
H1 H 0.3282(17) 0.602(2) 0.3742(19)
H2 H 0.285(2) 0.605(2) 0.3256(14)
O11 O 0.35386(15) 0.53154(18) 0.42959(17)
O12 O 0.32173(13) 0.57890(18) 0.68525(14)
O13 O 0.40115(16) 0.6170(2) 0.74157(16)
O14 O 0.23586(14) 0.74306(16) 0.94717(15)
O15 O 0.31453(15) 0.67229(15) 0.92057(15)
O16 O 0.26174(14) 0.54061(17) 0.26327(18)
O17 O 0.18267(14) 0.46374(16) 0.25179(14)
O18 O 0.33064(15) 0.57220(17) 0.83038(15)
H3 H 0.326(2) 0.603(2) 0.8588(15)
H4 H 0.3589(18) 0.585(2) 0.8038(16)
N1 N 0.72026(15) 0.57093(16) 0.26603(17)
N2 N 0.53681(17) 0.64986(19) 0.33278(17)
H5 H 0.543(2) 0.6032(12) 0.340(2)
N3 N 0.46020(15) 0.76760(17) 0.38034(16)
N4 N 0.27289(14) 0.76993(16) 0.43031(19)
N5 N 0.26164(15) 0.71448(18) 0.61947(16)
N6 N 0.24858(17) 0.85761(19) 0.79079(16)
H6 H 0.2635(19) 0.8982(16) 0.774(2)
N7 N 0.30302(16) 0.84765(17) 0.90863(15)
H7 H 0.2783(17) 0.8089(16) 0.9164(19)
C1 C 0.10474(18) 0.7833(2) 0.5930(2)
H8 H 0.1182 0.8184 0.5645
C2 C 0.0796(2) 0.8063(3) 0.6466(2)
H9 H 0.0762 0.8569 0.6549
C3 C 0.0597(2) 0.7565(3) 0.6876(2)
H10 H 0.0437 0.7722 0.7250
C4 C 0.0630(2) 0.6819(3) 0.6741(2)
H11 H 0.0483 0.6475 0.7024
C5 C 0.08721(18) 0.6574(2) 0.62078(19)
C6 C 0.11052(17) 0.7088(2) 0.58013(18)
C7 C 0.07884(17) 0.5783(2) 0.60397(19)
C8 C 0.10146(18) 0.5203(2) 0.63780(19)
C9 C 0.14878(18) 0.5303(2) 0.68665(19)
C10 C 0.0837(2) 0.4489(2) 0.6248(2)
H12 H 0.0978 0.4099 0.6493
C11 C 0.0454(2) 0.4344(3) 0.5759(2)
H13 H 0.0331 0.3858 0.5671
C12 C 0.0256(2) 0.4920(3) 0.5402(2)
H14 H 0.0010 0.4825 0.5058
C13 C 0.0415(2) 0.5625(3) 0.5546(2)
H15 H 0.0266 0.6014 0.5304
C14 C 0.14486(18) 0.6875(2) 0.52490(19)
C15 C 0.65914(17) 0.5848(2) 0.26717(19)
H16 H 0.6311 0.5448 0.2651
C16 C 0.63438(18) 0.6546(2) 0.27115(19)
C17 C 0.67580(19) 0.7126(2) 0.2729(2)
H17 H 0.6608 0.7613 0.2752
C18 C 0.56489(19) 0.6646(2) 0.2725(2)
H18 H 0.5457 0.6314 0.2428
H19 H 0.5549 0.7153 0.2605
C19 C 0.7385(2) 0.6992(2) 0.2712(2)
H20 H 0.7674 0.7385 0.2725
C20 C 0.75962(18) 0.6278(2) 0.2676(2)
H21 H 0.8032 0.6189 0.2661
C21 C 0.4670(2) 0.6500(2) 0.3303(2)
H22 H 0.4504 0.6251 0.3662
H23 H 0.4532 0.6221 0.2947
C22 C 0.55868(19) 0.7003(2) 0.3815(2)
H24 H 0.6045 0.7063 0.3785
H25 H 0.5493 0.6781 0.4208
C23 C 0.44056(19) 0.7264(2) 0.3272(2)
H26 H 0.4557 0.7512 0.2907
H27 H 0.3945 0.7242 0.3254
C24 C 0.52776(18) 0.7750(2) 0.3778(2)
H28 H 0.5422 0.8058 0.4114
H29 H 0.5398 0.7992 0.3400
C25 C 0.43120(19) 0.8401(2) 0.3834(2)
H30 H 0.4348 0.8639 0.3439
H31 H 0.4544 0.8703 0.4126
C26 C 0.36360(18) 0.8381(2) 0.40136(18)
C27 C 0.33319(17) 0.7732(2) 0.41774(18)
H32 H 0.3570 0.7295 0.4199
C28 C 0.32886(19) 0.9015(2) 0.4022(2)
H33 H 0.3475 0.9468 0.3917
C29 C 0.2667(2) 0.8985(2) 0.4187(2)
H34 H 0.2428 0.9421 0.4209
C30 C 0.23981(16) 0.8329(2) 0.4316(2)
H35 H 0.1968 0.8313 0.4418
C31 C 0.23779(18) 0.7378(2) 0.6721(2)
H36 H 0.2237 0.7026 0.7002
C32 C 0.2807(2) 0.7638(2) 0.58060(19)
H37 H 0.2969 0.7475 0.5435
C33 C 0.2333(2) 0.8109(2) 0.6863(2)
C34 C 0.2781(2) 0.8370(3) 0.5911(2)
H38 H 0.2926 0.8708 0.5621
C35 C 0.2539(2) 0.8612(3) 0.6450(2)
H39 H 0.2515 0.9119 0.6534
C36 C 0.2033(2) 0.8321(2) 0.74465(19)
H40 H 0.1727 0.8715 0.7371
H41 H 0.1802 0.7896 0.7606
C37 C 0.2961(2) 0.8016(2) 0.8058(2)
H42 H 0.3208 0.7899 0.7697
H43 H 0.2750 0.7564 0.8191
C38 C 0.21327(19) 0.8797(2) 0.84523(19)
H44 H 0.1890 0.8376 0.8603
H45 H 0.1836 0.9192 0.8350
C39 C 0.33927(19) 0.8279(2) 0.85444(19)
H46 H 0.3696 0.7890 0.8644
H47 H 0.3628 0.8710 0.8402
C40 C 0.25735(19) 0.9057(2) 0.8930(2)
H48 H 0.2799 0.9495 0.8786
H49 H 0.2334 0.9196 0.9290
C41 C 0.34533(19) 0.8688(2) 0.95889(18)
H50 H 0.3750 0.8285 0.9665
H51 H 0.3698 0.9123 0.9469
C47 C 0.1284(2) 0.6664(2) 0.8825(2)
C48 C 0.1234(2) 0.6573(2) 0.9451(2)
C49 C 0.1747(2) 0.6264(2) 0.8449(2)
C50 C 0.1673(2) 0.6126(2) 0.9809(2)
C51 C 0.14112(18) 0.5856(2) 0.36561(18)
C52 C 0.0867(2) 0.7119(3) 0.8533(2)
H56 H 0.0907 0.7189 0.8114
C55 C 0.2632(2) 0.6819(2) 0.9453(2)
C56 C 0.2316(2) 0.6207(2) 0.9786(2)
C57 C 0.34494(19) 0.5478(2) 0.4829(2)
C58 C 0.37925(19) 0.5041(3) 0.5287(2)
C59 C 0.4091(2) 0.5355(3) 0.5782(2)
C60 C 0.41443(19) 0.6161(3) 0.5847(2)
C61 C 0.4018(2) 0.6514(3) 0.6397(2)
C62 C 0.4369(2) 0.6583(3) 0.5383(2)
H59 H 0.4462 0.6354 0.5013
C63 C 0.4129(2) 0.7256(3) 0.6453(2)
H60 H 0.4059 0.7488 0.6827
C64 C 0.4463(2) 0.7315(3) 0.5435(2)
H61 H 0.4612 0.7588 0.5104
C65 C 0.4340(2) 0.7663(3) 0.5977(3)
H62 H 0.4401 0.8174 0.6017
C66 C 0.3737(2) 0.6126(3) 0.6923(2)
C68 C 0.08711(18) 0.5455(2) 0.33896(19)
C69 C 0.05092(19) 0.5049(2) 0.3783(2)
H64 H 0.0635 0.5016 0.4189
C70 C 0.06924(19) 0.5500(2) 0.2786(2)
C72 C 0.0147(2) 0.5134(2) 0.2619(2)
H66 H 0.0013 0.5162 0.2215
C73 C 0.1034(2) 0.5929(2) 0.23288(19)
C75 C 0.0689(3) 0.6444(2) 0.1996(2)
H68 H 0.0256 0.6500 0.2073
C76 C 0.1677(2) 0.5860(2) 0.22045(19)
C77 C 0.0968(3) 0.6876(2) 0.1557(2)
H69 H 0.0728 0.7217 0.1335
C78 C 0.1952(3) 0.6298(2) 0.1777(2)
H70 H 0.2387 0.6260 0.1705
C79 C 0.2075(2) 0.5269(2) 0.24775(19)
C80 C 0.0393(3) 0.7474(3) 0.8839(3)
H71 H 0.0115 0.7790 0.8634
C81 C 0.0328(3) 0.7360(3) 0.9457(3)
C82 C 0.0742(3) 0.6928(3) 0.9738(3)
C84 C 0.1597(3) 0.6797(3) 0.1449(2)
H75 H 0.1792 0.7085 0.1149
C85 C 0.3821(2) 0.4273(3) 0.5203(2)
H76 H 0.3634 0.4056 0.4862
C86 C 0.4123(3) 0.3841(3) 0.5620(3)
H77 H 0.4128 0.3326 0.5572
C87 C 0.4414(3) 0.4150(3) 0.6099(3)
H78 H 0.4628 0.3849 0.6378
C88 C 0.4400(2) 0.4897(3) 0.6185(2)
H79 H 0.4604 0.5103 0.6522
Cd5 Cd 0.755410(13) 0.451697(15) 0.267843(15)
N9 N 0.27974(15) 0.42907(16) 0.76603(17)
N10 N 0.23894(15) 0.47532(19) 0.57699(15)
Cd2_2 Cd 0.742381(12) 0.405541(15) 0.097278(14)
O1_2 O 0.80795(12) 0.42296(17) 0.17899(13)
O2_2 O 0.85284(13) 0.50905(15) 0.23192(14)
O3_2 O 0.81677(12) 0.36625(16) 0.02788(12)
O5_2 O 0.81296(16) 0.43888(16) 0.35704(15)
O6_2 O 0.80151(15) 0.34101(15) 0.30080(13)
O9_2 O 0.69429(13) 0.40345(15) 0.00002(13)
O12_2 O 0.67827(13) 0.42110(18) 0.18525(14)
O13_2 O 0.59885(16) 0.3830(2) 0.24157(16)
O14_2 O 0.76414(14) 0.25694(16) 0.44717(15)
O15_2 O 0.68547(15) 0.32771(15) 0.42057(15)
O18_2 O 0.66936(15) 0.42780(17) 0.33038(15)
H3_2 H 0.674(2) 0.397(2) 0.3588(15)
H4_2 H 0.6411(18) 0.415(2) 0.3038(16)
N5_2 N 0.73836(15) 0.28552(18) 0.11947(16)
N6_2 N 0.75142(17) 0.14239(19) 0.29079(16)
H6_2 H 0.7365(19) 0.1018(16) 0.274(2)
N7_2 N 0.69698(16) 0.15235(17) 0.40863(15)
H7_2 H 0.7217(17) 0.1911(16) 0.4164(19)
N8 N 0.73894(15) 0.02468(19) 0.57699(15)
C1_2 C 0.89526(18) 0.2167(2) 0.0930(2)
H8_2 H 0.8818 0.1816 0.0645
C2_2 C 0.9204(2) 0.1937(3) 0.1466(2)
H9_2 H 0.9238 0.1431 0.1549
C3_2 C 0.9403(2) 0.2435(3) 0.1876(2)
H10_2 H 0.9563 0.2278 0.2250
C4_2 C 0.9370(2) 0.3181(3) 0.1741(2)
H11_2 H 0.9517 0.3525 0.2024
C5_2 C 0.91279(18) 0.3426(2) 0.12078(19)
C6_2 C 0.88948(17) 0.2912(2) 0.08013(18)
C7_2 C 0.92116(17) 0.4217(2) 0.10397(19)
C8_2 C 0.89854(18) 0.4797(2) 0.13780(19)
C9_2 C 0.85122(18) 0.4697(2) 0.18665(19)
C10_2 C 0.9163(2) 0.5511(2) 0.1248(2)
H12_2 H 0.9022 0.5901 0.1493
C11_2 C 0.9546(2) 0.5656(3) 0.0759(2)
H13_2 H 0.9669 0.6142 0.0671
C12_2 C 0.9744(2) 0.5080(3) 0.0402(2)
H14_2 H 0.9990 0.5175 0.0058
C13_2 C 0.9585(2) 0.4375(3) 0.0546(2)
H15_2 H 0.9734 0.3986 0.0304
C14_2 C 0.85514(18) 0.3125(2) 0.02490(19)
C31_2 C 0.76221(18) 0.2622(2) 0.1721(2)
H36_2 H 0.7763 0.2974 0.2002
C32_2 C 0.7193(2) 0.2362(2) 0.08060(19)
H37_2 H 0.7031 0.2525 0.0435
C33_2 C 0.7667(2) 0.1891(2) 0.1863(2)
C34_2 C 0.7219(2) 0.1630(3) 0.0911(2)
H38_2 H 0.7074 0.1292 0.0621
C35_2 C 0.7461(2) 0.1388(3) 0.1450(2)
H39_2 H 0.7485 0.0881 0.1534
C36_2 C 0.7967(2) 0.1679(2) 0.24465(19)
H40_2 H 0.8273 0.1285 0.2371
H41_2 H 0.8198 0.2104 0.2606
C37_2 C 0.7039(2) 0.1984(2) 0.3058(2)
H42_2 H 0.6792 0.2101 0.2697
H43_2 H 0.7250 0.2436 0.3191
C38_2 C 0.78673(19) 0.1203(2) 0.34523(19)
H44_2 H 0.8110 0.1624 0.3603
H45_2 H 0.8164 0.0808 0.3350
C39_2 C 0.66073(19) 0.1721(2) 0.35444(19)
H46_2 H 0.6304 0.2110 0.3644
H47_2 H 0.6372 0.1290 0.3402
C40_2 C 0.74265(19) 0.0943(2) 0.3930(2)
H48_2 H 0.7201 0.0505 0.3786
H49_2 H 0.7666 0.0804 0.4290
C41_2 C 0.65467(19) 0.1312(2) 0.45889(18)
H50_2 H 0.6250 0.1715 0.4665
H51_2 H 0.6302 0.0877 0.4469
C42 C 0.6893(2) 0.1145(2) 0.51517(18)
C43 C 0.70614(19) 0.0427(2) 0.52877(18)
H52 H 0.6936 0.0049 0.5023
C44 C 0.7069(2) 0.1681(2) 0.5554(2)
H53 H 0.6966 0.2178 0.5480
C45 C 0.7392(2) 0.1493(2) 0.6059(2)
H54 H 0.7499 0.1853 0.6347
C46 C 0.7561(2) 0.0778(3) 0.6146(2)
H55 H 0.7807 0.0656 0.6484
C47_2 C 0.8716(2) 0.3336(2) 0.3825(2)
C48_2 C 0.8766(2) 0.3427(2) 0.4451(2)
C49_2 C 0.8253(2) 0.3736(2) 0.3449(2)
C50_2 C 0.8327(2) 0.3874(2) 0.4809(2)
C52_2 C 0.9133(2) 0.2881(3) 0.3533(2)
H56_2 H 0.9093 0.2811 0.3114
C53 C 0.8575(3) 0.4405(2) 0.5205(2)
H57 H 0.9014 0.4469 0.5230
C54 C 0.8189(3) 0.4826(3) 0.5551(2)
H58 H 0.8365 0.5167 0.5822
C55_2 C 0.7368(2) 0.3181(2) 0.4453(2)
C56_2 C 0.7684(2) 0.3793(2) 0.4786(2)
C58_2 C 0.62075(19) 0.4959(3) 0.0287(2)
C59_2 C 0.5909(2) 0.4645(3) 0.0782(2)
C60_2 C 0.58557(19) 0.3839(3) 0.0847(2)
C61_2 C 0.5982(2) 0.3486(3) 0.1397(2)
C62_2 C 0.5631(2) 0.3417(3) 0.0383(2)
H59_2 H 0.5538 0.3646 0.0013
C63_2 C 0.5871(2) 0.2744(3) 0.1453(2)
H60_2 H 0.5941 0.2512 0.1827
C64_2 C 0.5537(2) 0.2685(3) 0.0435(2)
H61_2 H 0.5388 0.2412 0.0104
C65_2 C 0.5660(2) 0.2337(3) 0.0977(3)
H62_2 H 0.5599 0.1826 0.1017
C66_2 C 0.6263(2) 0.3874(3) 0.1923(2)
C67 C 0.7302(3) 0.4247(2) 0.5130(2)
H63 H 0.6862 0.4204 0.5102
C80_2 C 0.9607(3) 0.2526(3) 0.3839(3)
H71_2 H 0.9885 0.2210 0.3634
C81_2 C 0.9672(3) 0.2640(3) 0.4457(3)
C82_2 C 0.9258(3) 0.3072(3) 0.4738(3)
H73 H 0.9303 0.3139 0.5156
C83 C 0.7564(3) 0.4765(3) 0.5514(2)
H74 H 0.7303 0.5072 0.5748
C85_2 C 0.6179(2) 0.5727(3) 0.0203(2)
C86_2 C 0.5877(3) 0.6159(3) 0.0620(3)
H77_2 H 0.5872 0.6674 0.0572
C87_2 C 0.5586(3) 0.5850(3) 0.1099(3)
H78_2 H 0.5372 0.6151 0.1378
C88_2 C 0.5600(2) 0.5103(3) 0.1185(2)
H79_2 H 0.5396 0.4897 0.1522
N10_2 N 0.76106(15) 0.52468(19) 0.07699(15)
Cd1_2 Cd 0.772505(12) 0.344446(14) 0.932329(15)
O4_2 O 0.86073(13) 0.27628(15) 0.97807(13)
O7_2 O 0.84443(13) 0.35150(14) 0.84819(13)
O8_2 O 0.83079(12) 0.44536(13) 0.90875(13)
O9_3 O 0.69429(13) 0.40345(15) 1.00002(13)
O10_2 O 0.70018(14) 0.37202(16) 0.85691(15)
H1_2 H 0.6718(17) 0.398(2) 0.8742(19)
H2_2 H 0.715(2) 0.395(2) 0.8256(14)
O11_2 O 0.64614(15) 0.46846(18) 0.92959(17)
O16_2 O 0.73826(14) 0.45939(17) 0.76327(18)
O17_2 O 0.81733(14) 0.53626(16) 0.75179(14)
N2_2 N 0.46319(17) 0.35014(19) 0.83278(17)
H5_2 H 0.457(2) 0.3968(12) 0.840(2)
N3_2 N 0.53980(15) 0.23240(17) 0.88034(16)
N4_2 N 0.72711(14) 0.23007(16) 0.93031(19)
C15_2 C 0.34086(17) 0.4152(2) 0.76717(19)
H16_2 H 0.3689 0.4552 0.7651
C16_2 C 0.36562(18) 0.3454(2) 0.77115(19)
C17_2 C 0.32420(19) 0.2874(2) 0.7729(2)
H17_2 H 0.3392 0.2387 0.7752
C18_2 C 0.43511(19) 0.3354(2) 0.7725(2)
H18_2 H 0.4543 0.3686 0.7428
H19_2 H 0.4451 0.2847 0.7605
C19_2 C 0.2615(2) 0.3008(2) 0.7712(2)
H20_2 H 0.2326 0.2615 0.7725
C20_2 C 0.24038(18) 0.3722(2) 0.7676(2)
H21_2 H 0.1968 0.3811 0.7661
C21_2 C 0.5330(2) 0.3500(2) 0.8303(2)
H22_2 H 0.5496 0.3749 0.8662
H23_2 H 0.5468 0.3779 0.7947
C22_2 C 0.44132(19) 0.2997(2) 0.8815(2)
H24_2 H 0.3955 0.2937 0.8785
H25_2 H 0.4507 0.3219 0.9208
C23_2 C 0.55944(19) 0.2736(2) 0.8272(2)
H26_2 H 0.5443 0.2488 0.7907
H27_2 H 0.6055 0.2758 0.8254
C24_2 C 0.47224(18) 0.2250(2) 0.8778(2)
H28_2 H 0.4578 0.1942 0.9114
H29_2 H 0.4602 0.2008 0.8400
C25_2 C 0.56880(19) 0.1599(2) 0.8834(2)
H30_2 H 0.5652 0.1361 0.8439
H31_2 H 0.5456 0.1297 0.9126
C26_2 C 0.63640(18) 0.1619(2) 0.90136(18)
C27_2 C 0.66681(17) 0.2268(2) 0.91774(18)
H32_2 H 0.6430 0.2705 0.9199
C28_2 C 0.67114(19) 0.0985(2) 0.9022(2)
H33_2 H 0.6525 0.0532 0.8917
C29_2 C 0.7333(2) 0.1015(2) 0.9187(2)
H34_2 H 0.7572 0.0579 0.9209
C30_2 C 0.76019(16) 0.1671(2) 0.9316(2)
H35_2 H 0.8032 0.1687 0.9418
C51_2 C 0.85888(18) 0.4144(2) 0.86561(18)
C57_2 C 0.65506(19) 0.4522(2) 0.9829(2)
C68_2 C 0.91289(18) 0.4545(2) 0.83896(19)
C69_2 C 0.94908(19) 0.4951(2) 0.8783(2)
H64_2 H 0.9365 0.4984 0.9189
C70_2 C 0.93076(19) 0.4500(2) 0.7786(2)
C72_2 C 0.9853(2) 0.4866(2) 0.7619(2)
H66_2 H 0.9987 0.4838 0.7215
C73_2 C 0.8966(2) 0.4071(2) 0.73288(19)
C75_2 C 0.9311(3) 0.3556(2) 0.6996(2)
H68_2 H 0.9744 0.3500 0.7073
C76_2 C 0.8323(2) 0.4140(2) 0.72045(19)
C77_2 C 0.9032(3) 0.3124(2) 0.6557(2)
H69_2 H 0.9272 0.2783 0.6335
C78_2 C 0.8048(3) 0.3702(2) 0.6777(2)
H70_2 H 0.7613 0.3740 0.6705
C79_2 C 0.7925(2) 0.4731(2) 0.74775(19)
C84_2 C 0.8403(3) 0.3203(3) 0.6449(2)
H75_2 H 0.8208 0.2915 0.6149
H76_2 H 0.6366 0.5944 0.9862
Cd5_2 Cd 0.255410(13) 0.048303(15) 0.267843(15)
O2_3 O 0.64716(13) 0.00905(15) 0.73192(14)
O17_3 O 0.68267(14) 0.03626(16) 0.25179(14)
C10_3 C 0.5837(2) 0.0511(2) 0.6248(2)
H12_3 H 0.5978 0.0901 0.6493
C11_3 C 0.5454(2) 0.0656(3) 0.5759(2)
H13_3 H 0.5331 0.1142 0.5671
C12_3 C 0.5256(2) 0.0080(3) 0.5402(2)
H14_3 H 0.5010 0.0175 0.5058
C71 C 0.4974(2) 0.0308(2) 0.3605(2)
H65 H 0.4733 0.0579 0.3884
C74 C 0.4797(2) 0.0265(3) 0.3018(2)
H67 H 0.4431 0.0510 0.2886
C85_3 C 0.8821(2) 0.0727(3) 0.5203(2)
H76_3 H 0.8634 0.0944 0.4862
C86_3 C 0.9123(3) 0.1159(3) 0.5620(3)
H77_3 H 0.9128 0.1674 0.5572
C87_3 C 0.9414(3) 0.0850(3) 0.6099(3)
H78_3 H 0.9628 0.1151 0.6378
C88_3 C 0.9400(2) 0.0103(3) 0.6185(2)
N9_2 N 0.77974(15) 0.07093(16) 0.76603(17)
C42_2 C 0.8107(2) 0.6145(2) 0.01517(18)
C43_2 C 0.79386(19) 0.5427(2) 0.02877(18)
H52_2 H 0.8064 0.5049 0.0023
C44_2 C 0.7931(2) 0.6681(2) 0.0554(2)
H53_2 H 0.8034 0.7178 0.0480
C45_2 C 0.7608(2) 0.6493(2) 0.1059(2)
H54_2 H 0.7501 0.6853 0.1347
C46_2 C 0.7439(2) 0.5778(3) 0.1146(2)
H55_2 H 0.7193 0.5656 0.1484
C53_2 C 0.6425(3) 0.9405(2) 0.0205(2)
H57_2 H 0.5986 0.9469 0.0230
C54_2 C 0.6811(3) 0.9826(3) 0.0551(2)
C67_2 C 0.7698(3) 0.9247(2) 0.0130(2)
H63_2 H 0.8138 0.9204 0.0102
H73_2 H 0.5697 0.8139 0.0156
C83_2 C 0.7436(3) 0.9765(3) 0.0514(2)
O1_3 O 0.30795(12) 0.07704(17) 0.17899(13)
O3_3 O 0.31677(12) 0.13375(16) 0.02788(12)
O5_3 O 0.31296(16) 0.06112(16) 0.35704(15)
O6_3 O 0.30151(15) 0.15899(15) 0.30080(13)
O9_4 O 0.19429(13) 0.09655(15) 0.00002(13)
O12_3 O 0.17827(13) 0.07890(18) 0.18525(14)
O13_3 O 0.09885(16) 0.1170(2) 0.24157(16)
O14_3 O 0.26414(14) 0.24306(16) 0.44717(15)
O15_3 O 0.18547(15) 0.17229(15) 0.42057(15)
O18_3 O 0.16936(15) 0.07220(17) 0.33038(15)
H3_3 H 0.174(2) 0.103(2) 0.3588(15)
H4_3 H 0.1411(18) 0.085(2) 0.3038(16)
N5_3 N 0.23836(15) 0.21448(18) 0.11947(16)
N6_3 N 0.25142(17) 0.35761(19) 0.29079(16)
H6_3 H 0.2365(19) 0.3982(16) 0.274(2)
N7_3 N 0.19698(16) 0.34765(17) 0.40863(15)
H7_3 H 0.2217(17) 0.3089(16) 0.4164(19)
C1_3 C 0.39526(18) 0.2833(2) 0.0930(2)
H8_3 H 0.3818 0.3184 0.0645
C2_3 C 0.4204(2) 0.3063(3) 0.1466(2)
H9_3 H 0.4238 0.3569 0.1549
C3_3 C 0.4403(2) 0.2565(3) 0.1876(2)
H10_3 H 0.4563 0.2722 0.2250
C4_3 C 0.4370(2) 0.1819(3) 0.1741(2)
H11_3 H 0.4517 0.1475 0.2024
C5_3 C 0.41279(18) 0.1574(2) 0.12078(19)
C6_3 C 0.38948(17) 0.2088(2) 0.08013(18)
C7_3 C 0.42116(17) 0.0783(2) 0.10397(19)
C8_3 C 0.39854(18) 0.0203(2) 0.13780(19)
C9_3 C 0.35122(18) 0.0303(2) 0.18665(19)
C13_3 C 0.4585(2) 0.0625(3) 0.0546(2)
H15_3 H 0.4734 0.1014 0.0304
C14_3 C 0.35514(18) 0.1875(2) 0.02490(19)
C31_3 C 0.26221(18) 0.2378(2) 0.1721(2)
H36_3 H 0.2763 0.2026 0.2002
C32_3 C 0.2193(2) 0.2638(2) 0.08060(19)
H37_3 H 0.2031 0.2475 0.0435
C33_3 C 0.2667(2) 0.3109(2) 0.1863(2)
C34_3 C 0.2219(2) 0.3370(3) 0.0911(2)
H38_3 H 0.2074 0.3708 0.0621
C35_3 C 0.2461(2) 0.3612(3) 0.1450(2)
H39_3 H 0.2485 0.4119 0.1534
C36_3 C 0.2967(2) 0.3321(2) 0.24465(19)
H40_3 H 0.3273 0.3715 0.2371
H41_3 H 0.3198 0.2896 0.2606
C37_3 C 0.2039(2) 0.3016(2) 0.3058(2)
H42_3 H 0.1792 0.2899 0.2697
H43_3 H 0.2250 0.2564 0.3191
C38_3 C 0.28673(19) 0.3797(2) 0.34523(19)
H44_3 H 0.3110 0.3376 0.3603
H45_3 H 0.3164 0.4192 0.3350
C39_3 C 0.16073(19) 0.3279(2) 0.35444(19)
H46_3 H 0.1304 0.2890 0.3644
H47_3 H 0.1372 0.3710 0.3402
C40_3 C 0.24265(19) 0.4057(2) 0.3930(2)
H48_3 H 0.2201 0.4495 0.3786
H49_3 H 0.2666 0.4196 0.4290
C41_3 C 0.15467(19) 0.3688(2) 0.45889(18)
H50_3 H 0.1250 0.3285 0.4665
H51_3 H 0.1302 0.4123 0.4469
C42_3 C 0.1893(2) 0.3855(2) 0.51517(18)
C43_3 C 0.20614(19) 0.4573(2) 0.52877(18)
H52_3 H 0.1936 0.4951 0.5023
C44_3 C 0.2069(2) 0.3319(2) 0.5554(2)
H53_3 H 0.1966 0.2822 0.5480
C45_3 C 0.2392(2) 0.3507(2) 0.6059(2)
H54_3 H 0.2499 0.3147 0.6347
C46_3 C 0.2561(2) 0.4222(3) 0.6146(2)
H55_3 H 0.2807 0.4344 0.6484
C47_3 C 0.3716(2) 0.1664(2) 0.3825(2)
C48_3 C 0.3766(2) 0.1573(2) 0.4451(2)
C49_3 C 0.3253(2) 0.1264(2) 0.3449(2)
C50_3 C 0.3327(2) 0.1126(2) 0.4809(2)
C52_3 C 0.4133(2) 0.2119(3) 0.3533(2)
H56_3 H 0.4093 0.2189 0.3114
C53_3 C 0.3575(3) 0.0595(2) 0.5205(2)
H57_3 H 0.4014 0.0531 0.5230
C54_3 C 0.3189(3) 0.0174(3) 0.5551(2)
C55_3 C 0.2368(2) 0.1819(2) 0.4453(2)
C56_3 C 0.2684(2) 0.1207(2) 0.4786(2)
C58_3 C 0.12075(19) 0.0041(3) 0.0287(2)
C59_3 C 0.0909(2) 0.0355(3) 0.0782(2)
C60_3 C 0.08557(19) 0.1161(3) 0.0847(2)
C61_3 C 0.0982(2) 0.1514(3) 0.1397(2)
C62_3 C 0.0631(2) 0.1583(3) 0.0383(2)
H59_3 H 0.0538 0.1354 0.0013
C63_3 C 0.0871(2) 0.2256(3) 0.1453(2)
H60_3 H 0.0941 0.2488 0.1827
C64_3 C 0.0537(2) 0.2315(3) 0.0435(2)
H61_3 H 0.0388 0.2588 0.0104
C65_3 C 0.0660(2) 0.2663(3) 0.0977(3)
H62_3 H 0.0599 0.3174 0.1017
C66_3 C 0.1263(2) 0.1126(3) 0.1923(2)
C67_3 C 0.2302(3) 0.0753(2) 0.5130(2)
H63_3 H 0.1862 0.0796 0.5102
C80_3 C 0.4607(3) 0.2474(3) 0.3839(3)
H71_3 H 0.4885 0.2790 0.3634
C81_3 C 0.4672(3) 0.2360(3) 0.4457(3)
H72 H 0.5002 0.2584 0.4673
C82_3 C 0.4258(3) 0.1928(3) 0.4738(3)
H73_3 H 0.4303 0.1861 0.5156
C83_3 C 0.2564(3) 0.0235(3) 0.5514(2)
H79_3 H 0.0396 0.0103 0.1522
N2_3 N 0.96319(17) 0.14986(19) 0.83278(17)
H5_3 H 0.957(2) 0.1032(12) 0.840(2)
C15_3 C 0.84086(17) 0.0848(2) 0.76717(19)
H16_3 H 0.8689 0.0448 0.7651
C16_3 C 0.86562(18) 0.1546(2) 0.77115(19)
C17_3 C 0.82420(19) 0.2126(2) 0.7729(2)
H17_3 H 0.8392 0.2613 0.7752
C18_3 C 0.93511(19) 0.1646(2) 0.7725(2)
H18_3 H 0.9543 0.1314 0.7428
H19_3 H 0.9451 0.2153 0.7605
C19_3 C 0.7615(2) 0.1992(2) 0.7712(2)
H20_3 H 0.7326 0.2385 0.7725
C20_3 C 0.74038(18) 0.1278(2) 0.7676(2)
H21_3 H 0.6968 0.1189 0.7661
C22_3 C 0.94132(19) 0.2003(2) 0.8815(2)
H24_3 H 0.8955 0.2063 0.8785
H25_3 H 0.9507 0.1781 0.9208
C24_3 C 0.97224(18) 0.2750(2) 0.8778(2)
H28_3 H 0.9578 0.3058 0.9114
H29_3 H 0.9602 0.2992 0.8400
N8_2 N 0.26106(15) 0.97532(19) 0.07699(15)
C42_4 C 0.3107(2) 0.8855(2) 0.01517(18)
C43_4 C 0.29386(19) 0.9573(2) 0.02877(18)
H52_4 H 0.3064 0.9951 0.0023
C44_4 C 0.2931(2) 0.8319(2) 0.0554(2)
H53_4 H 0.3034 0.7822 0.0480
C45_4 C 0.2608(2) 0.8507(2) 0.1059(2)
H54_4 H 0.2501 0.8147 0.1347
C46_4 C 0.2439(2) 0.9222(3) 0.1146(2)
H55_4 H 0.2193 0.9344 0.1484
C53_4 C 0.1425(3) 0.5595(2) 0.0205(2)
H57_4 H 0.0986 0.5531 0.0230
C54_4 C 0.1811(3) 0.5174(3) 0.0551(2)
H58_2 H 0.1635 0.4833 0.0822
C67_4 C 0.2698(3) 0.5753(2) 0.0130(2)
H63_4 H 0.3138 0.5796 0.0102
H73_4 H 0.0697 0.6861 0.0156
C83_4 C 0.2436(3) 0.5235(3) 0.0514(2)
H74_2 H 0.2697 0.4928 0.0748
N1_2 N 0.22026(15) 0.92907(16) 0.26603(17)
N2_4 N 0.03681(17) 0.85014(19) 0.33278(17)
H5_4 H 0.043(2) 0.8968(12) 0.340(2)
C15_4 C 0.15914(17) 0.9152(2) 0.26717(19)
H16_4 H 0.1311 0.9552 0.2651
C16_4 C 0.13438(18) 0.8454(2) 0.27115(19)
C17_4 C 0.17580(19) 0.7874(2) 0.2729(2)
H17_4 H 0.1608 0.7387 0.2752
C18_4 C 0.06489(19) 0.8354(2) 0.2725(2)
H18_4 H 0.0457 0.8686 0.2428
H19_4 H 0.0549 0.7847 0.2605
C19_4 C 0.2385(2) 0.8008(2) 0.2712(2)
H20_4 H 0.2674 0.7615 0.2725
C20_4 C 0.25962(18) 0.8722(2) 0.2676(2)
H21_4 H 0.3032 0.8811 0.2661
C22_4 C 0.05868(19) 0.7997(2) 0.3815(2)
H24_4 H 0.1045 0.7937 0.3785
H25_4 H 0.0493 0.8219 0.4208
C24_4 C 0.02776(18) 0.7250(2) 0.3778(2)
H28_4 H 0.0422 0.6942 0.4114
H29_4 H 0.0398 0.7008 0.3400
O2_4 O 0.35284(13) 0.99095(15) 0.23192(14)
C10_4 C 0.4163(2) 0.9489(2) 0.1248(2)
H12_4 H 0.4022 0.9099 0.1493
C11_4 C 0.4546(2) 0.9344(3) 0.0759(2)
H13_4 H 0.4669 0.8858 0.0671
C12_4 C 0.4744(2) 0.9920(3) 0.0402(2)
H14_4 H 0.4990 0.9825 0.0058
H58_3 H 0.3365 0.9833 0.5822
H74_3 H 0.2303 0.9928 0.5748
C85_4 C 0.1179(2) 0.9273(3) 0.0203(2)
C86_4 C 0.0877(3) 0.8841(3) 0.0620(3)
H77_4 H 0.0872 0.8326 0.0572
C87_4 C 0.0586(3) 0.9150(3) 0.1099(3)
H78_4 H 0.0372 0.8849 0.1378
C88_4 C 0.0600(2) 0.9897(3) 0.1185(2)
C71_2 C 0.9974(2) 0.4692(2) 0.3605(2)
H65_2 H 0.9733 0.4421 0.3884
C74_2 C 0.9797(2) 0.4735(3) 0.3018(2)
H67_2 H 0.9431 0.4490 0.2886
H72_2 H 0.9998 0.7584 0.9673
H72_3 H 0.0002 0.2416 0.4673
C71_3 C 0.0026(2) 0.5308(2) 0.8605(2)
H65_3 H 0.0267 0.5579 0.8884
C74_3 C 0.0203(2) 0.5265(3) 0.8018(2)
H67_3 H 0.0569 0.5510 0.7886
Cd4_2 Cd 0.757619(12) 0.905541(15) 0.597278(14)
Cd1_3 Cd 0.727495(12) 0.844446(14) 0.432329(15)
Cd3_2 Cd 0.744590(13) 0.951697(15) 0.767843(15)
O1_4 O 0.69205(12) 0.92296(17) 0.67899(13)
O3_4 O 0.68323(12) 0.86625(16) 0.52788(12)
O4_3 O 0.63927(13) 0.77628(15) 0.47807(13)
O5_4 O 0.68704(16) 0.93888(16) 0.85704(15)
O6_4 O 0.69849(15) 0.84101(15) 0.80080(13)
O7_3 O 0.65557(13) 0.85150(14) 0.34819(13)
O8_3 O 0.66921(12) 0.94536(13) 0.40875(13)
O9_5 O 0.80571(13) 0.90345(15) 0.50002(13)
O10_3 O 0.79982(14) 0.87202(16) 0.35691(15)
H1_3 H 0.8282(17) 0.898(2) 0.3742(19)
H2_3 H 0.785(2) 0.895(2) 0.3256(14)
O11_3 O 0.85386(15) 0.96846(18) 0.42959(17)
O12_4 O 0.82173(13) 0.92110(18) 0.68525(14)
O13_4 O 0.90115(16) 0.8830(2) 0.74157(16)
O14_4 O 0.73586(14) 0.75694(16) 0.94717(15)
O15_4 O 0.81453(15) 0.82771(15) 0.92057(15)
O16_3 O 0.76174(14) 0.95939(17) 0.26327(18)
O18_4 O 0.83064(15) 0.92780(17) 0.83038(15)
H3_4 H 0.826(2) 0.897(2) 0.8588(15)
H4_4 H 0.8589(18) 0.915(2) 0.8038(16)
N3_3 N 0.96020(15) 0.73240(17) 0.38034(16)
N4_3 N 0.77289(14) 0.73007(16) 0.43031(19)
N5_4 N 0.76164(15) 0.78552(18) 0.61947(16)
N6_4 N 0.74858(17) 0.64239(19) 0.79079(16)
H6_4 H 0.7635(19) 0.6018(16) 0.774(2)
N7_4 N 0.80302(16) 0.65235(17) 0.90863(15)
H7_4 H 0.7783(17) 0.6911(16) 0.9164(19)
C1_4 C 0.60474(18) 0.7167(2) 0.5930(2)
H8_4 H 0.6182 0.6816 0.5645
C2_4 C 0.5796(2) 0.6937(3) 0.6466(2)
H9_4 H 0.5762 0.6431 0.6549
C3_4 C 0.5597(2) 0.7435(3) 0.6876(2)
H10_4 H 0.5437 0.7278 0.7250
C4_4 C 0.5630(2) 0.8181(3) 0.6741(2)
H11_4 H 0.5483 0.8525 0.7024
C5_4 C 0.58721(18) 0.8426(2) 0.62078(19)
C6_4 C 0.61052(17) 0.7912(2) 0.58013(18)
C7_4 C 0.57884(17) 0.9217(2) 0.60397(19)
C8_4 C 0.60146(18) 0.9797(2) 0.63780(19)
C9_4 C 0.64878(18) 0.9697(2) 0.68665(19)
C13_4 C 0.5415(2) 0.9375(3) 0.5546(2)
H15_4 H 0.5266 0.8986 0.5304
C14_4 C 0.64486(18) 0.8125(2) 0.52490(19)
C21_3 C 0.9670(2) 0.8500(2) 0.3303(2)
H22_3 H 0.9504 0.8749 0.3662
H23_3 H 0.9532 0.8779 0.2947
C23_3 C 0.94056(19) 0.7736(2) 0.3272(2)
H26_3 H 0.9557 0.7488 0.2907
H27_3 H 0.8945 0.7758 0.3254
C25_3 C 0.93120(19) 0.6599(2) 0.3834(2)
H30_3 H 0.9348 0.6361 0.3439
H31_3 H 0.9544 0.6297 0.4126
C26_3 C 0.86360(18) 0.6619(2) 0.40136(18)
C27_3 C 0.83319(17) 0.7268(2) 0.41774(18)
H32_3 H 0.8570 0.7705 0.4199
C28_3 C 0.82886(19) 0.5985(2) 0.4022(2)
H33_3 H 0.8475 0.5532 0.3917
C29_3 C 0.7667(2) 0.6015(2) 0.4187(2)
H34_3 H 0.7428 0.5579 0.4209
C30_3 C 0.73981(16) 0.6671(2) 0.4316(2)
H35_3 H 0.6968 0.6687 0.4418
C31_4 C 0.73779(18) 0.7622(2) 0.6721(2)
H36_4 H 0.7237 0.7974 0.7002
C32_4 C 0.7807(2) 0.7362(2) 0.58060(19)
H37_4 H 0.7969 0.7525 0.5435
C33_4 C 0.7333(2) 0.6891(2) 0.6863(2)
C34_4 C 0.7781(2) 0.6630(3) 0.5911(2)
H38_4 H 0.7926 0.6292 0.5621
C35_4 C 0.7539(2) 0.6388(3) 0.6450(2)
H39_4 H 0.7515 0.5881 0.6534
C36_4 C 0.7033(2) 0.6679(2) 0.74465(19)
H40_4 H 0.6727 0.6285 0.7371
H41_4 H 0.6802 0.7104 0.7606
C37_4 C 0.7961(2) 0.6984(2) 0.8058(2)
H42_4 H 0.8208 0.7101 0.7697
H43_4 H 0.7750 0.7436 0.8191
C38_4 C 0.71327(19) 0.6203(2) 0.84523(19)
H44_4 H 0.6890 0.6624 0.8603
H45_4 H 0.6836 0.5808 0.8350
C39_4 C 0.83927(19) 0.6721(2) 0.85444(19)
H46_4 H 0.8696 0.7110 0.8644
H47_4 H 0.8628 0.6290 0.8402
C40_4 C 0.75735(19) 0.5943(2) 0.8930(2)
H48_4 H 0.7799 0.5505 0.8786
H49_4 H 0.7334 0.5804 0.9290
C41_4 C 0.84533(19) 0.6312(2) 0.95889(18)
H50_4 H 0.8750 0.6715 0.9665
H51_4 H 0.8698 0.5877 0.9469
C47_4 C 0.6284(2) 0.8336(2) 0.8825(2)
C48_4 C 0.6234(2) 0.8427(2) 0.9451(2)
C49_4 C 0.6747(2) 0.8736(2) 0.8449(2)
C50_4 C 0.6673(2) 0.8874(2) 0.9809(2)
C51_3 C 0.64112(18) 0.9144(2) 0.36561(18)
C52_4 C 0.5867(2) 0.7881(3) 0.8533(2)
H56_4 H 0.5907 0.7811 0.8114
C55_4 C 0.7632(2) 0.8181(2) 0.9453(2)
C56_4 C 0.7316(2) 0.8793(2) 0.9786(2)
C57_3 C 0.84494(19) 0.9522(2) 0.4829(2)
C58_4 C 0.87925(19) 0.9959(3) 0.5287(2)
C59_4 C 0.9091(2) 0.9645(3) 0.5782(2)
C60_4 C 0.91443(19) 0.8839(3) 0.5847(2)
C61_4 C 0.9018(2) 0.8486(3) 0.6397(2)
C62_4 C 0.9369(2) 0.8417(3) 0.5383(2)
H59_4 H 0.9462 0.8646 0.5013
C63_4 C 0.9129(2) 0.7744(3) 0.6453(2)
H60_4 H 0.9059 0.7512 0.6827
C64_4 C 0.9463(2) 0.7685(3) 0.5435(2)
H61_4 H 0.9612 0.7412 0.5104
C65_4 C 0.9340(2) 0.7337(3) 0.5977(3)
H62_4 H 0.9401 0.6826 0.6017
C66_4 C 0.8737(2) 0.8874(3) 0.6923(2)
C68_3 C 0.58711(18) 0.9545(2) 0.33896(19)
C69_3 C 0.55092(19) 0.9951(2) 0.3783(2)
H64_3 H 0.5635 0.9984 0.4189
C70_3 C 0.56924(19) 0.9500(2) 0.2786(2)
C72_3 C 0.5147(2) 0.9866(2) 0.2619(2)
H66_3 H 0.5013 0.9838 0.2215
C73_3 C 0.6034(2) 0.9071(2) 0.23288(19)
C75_3 C 0.5689(3) 0.8556(2) 0.1996(2)
H68_3 H 0.5256 0.8500 0.2073
C76_3 C 0.6677(2) 0.9140(2) 0.22045(19)
C77_3 C 0.5968(3) 0.8124(2) 0.1557(2)
H69_3 H 0.5728 0.7783 0.1335
C78_3 C 0.6952(3) 0.8702(2) 0.1777(2)
H70_3 H 0.7387 0.8740 0.1705
C79_3 C 0.7075(2) 0.9731(2) 0.24775(19)
C80_4 C 0.5393(3) 0.7526(3) 0.8839(3)
H71_4 H 0.5115 0.7210 0.8634
C81_4 C 0.5328(3) 0.7640(3) 0.9457(3)
H72_4 H 0.4998 0.7416 0.9673
C82_4 C 0.5742(3) 0.8072(3) 0.9738(3)
C84_3 C 0.6597(3) 0.8203(3) 0.1449(2)
H75_3 H 0.6792 0.7915 0.1149
H79_4 H 0.9604 0.9897 0.6522
H58_4 H 0.6635 0.0167 0.0822
H74_4 H 0.7697 0.0072 0.0748
Cd1_4 Cd 0.272505(12) 0.155554(14) 0.932329(15)
O4_4 O 0.36073(13) 0.22372(15) 0.97807(13)
O7_4 O 0.34443(13) 0.14850(14) 0.84819(13)
O8_4 O 0.33079(12) 0.05464(13) 0.90875(13)
O9_6 O 0.19429(13) 0.09655(15) 1.00002(13)
O10_4 O 0.20018(14) 0.12798(16) 0.85691(15)
H1_4 H 0.1718(17) 0.102(2) 0.8742(19)
H2_4 H 0.215(2) 0.105(2) 0.8256(14)
O11_4 O 0.14614(15) 0.03154(18) 0.92959(17)
O16_4 O 0.23826(14) 0.04061(17) 0.76327(18)
N3_4 N 0.03980(15) 0.26760(17) 0.88034(16)
N4_4 N 0.22711(14) 0.26993(16) 0.93031(19)
C21_4 C 0.0330(2) 0.1500(2) 0.8303(2)
H22_4 H 0.0496 0.1251 0.8662
H23_4 H 0.0468 0.1221 0.7947
C23_4 C 0.05944(19) 0.2264(2) 0.8272(2)
H26_4 H 0.0443 0.2512 0.7907
H27_4 H 0.1055 0.2242 0.8254
C25_4 C 0.06880(19) 0.3401(2) 0.8834(2)
H30_4 H 0.0652 0.3639 0.8439
H31_4 H 0.0456 0.3703 0.9126
C26_4 C 0.13640(18) 0.3381(2) 0.90136(18)
C27_4 C 0.16681(17) 0.2732(2) 0.91774(18)
H32_4 H 0.1430 0.2295 0.9199
C28_4 C 0.17114(19) 0.4015(2) 0.9022(2)
H33_4 H 0.1525 0.4468 0.8917
C29_4 C 0.2333(2) 0.3985(2) 0.9187(2)
H34_4 H 0.2572 0.4421 0.9209
C30_4 C 0.26019(16) 0.3329(2) 0.9316(2)
H35_4 H 0.3032 0.3313 0.9418
C51_4 C 0.35888(18) 0.0856(2) 0.86561(18)
C57_4 C 0.15506(19) 0.0478(2) 0.9829(2)
C68_4 C 0.41289(18) 0.0455(2) 0.83896(19)
C69_4 C 0.44908(19) 0.0049(2) 0.8783(2)
H64_4 H 0.4365 0.0016 0.9189
C70_4 C 0.43076(19) 0.0500(2) 0.7786(2)
C72_4 C 0.4853(2) 0.0134(2) 0.7619(2)
H66_4 H 0.4987 0.0162 0.7215
C73_4 C 0.3966(2) 0.0929(2) 0.73288(19)
C75_4 C 0.4311(3) 0.1444(2) 0.6996(2)
H68_4 H 0.4744 0.1500 0.7073
C76_4 C 0.3323(2) 0.0860(2) 0.72045(19)
C77_4 C 0.4032(3) 0.1876(2) 0.6557(2)
H69_4 H 0.4272 0.2217 0.6335
C78_4 C 0.3048(3) 0.1298(2) 0.6777(2)
H70_4 H 0.2613 0.1260 0.6705
C79_4 C 0.2925(2) 0.0269(2) 0.74775(19)
C84_4 C 0.3403(3) 0.1797(3) 0.6449(2)
H75_4 H 0.3208 0.2085 0.6149
O17_4 O 0.31733(14) 0.96374(16) 0.75179(14)
C71_4 C 0.5026(2) 0.9692(2) 0.8605(2)
H65_4 H 0.5267 0.9421 0.8884
C74_4 C 0.5203(2) 0.9735(3) 0.8018(2)
H67_4 H 0.5569 0.9490 0.7886
H76_4 H 0.1366 0.9056 0.9862
Cl1 Cl 0.40455(8) 0.71596(9) 0.15019(9)
O19 O 0.3595(3) 0.6791(3) 0.1205(3)
O20 O 0.4395(3) 0.6709(4) 0.1858(3)
O21 O 0.3743(3) 0.7727(3) 0.1852(3)
O22 O 0.4434(4) 0.7484(4) 0.1096(5)
Cl1_2 Cl 0.59545(8) 0.28404(9) 0.65019(9)
O19_2 O 0.6405(3) 0.3209(3) 0.6205(3)
O20_2 O 0.5605(3) 0.3291(4) 0.6858(3)
O21_2 O 0.6257(3) 0.2273(3) 0.6852(3)
O22_2 O 0.5566(4) 0.2516(4) 0.6096(5)
Cl1_3 Cl 0.90455(8) 0.78404(9) 0.15019(9)
O19_3 O 0.8595(3) 0.8209(3) 0.1205(3)
O20_3 O 0.9395(3) 0.8291(4) 0.1858(3)
O21_3 O 0.8743(3) 0.7273(3) 0.1852(3)
O22_3 O 0.9434(4) 0.7516(4) 0.1096(5)
Cl1_4 Cl 0.09545(8) 0.21596(9) 0.65019(9)
O19_4 O 0.1405(3) 0.1791(3) 0.6205(3)
O20_4 O 0.0605(3) 0.1709(4) 0.6858(3)
O21_4 O 0.1257(3) 0.2727(3) 0.6852(3)
O22_4 O 0.0566(4) 0.2484(4) 0.6096(5)
loop_
_geom_bond_atom_site_label_1
_geom_bond_atom_site_label_2
_geom_bond_site_symmetry_1
_geom_bond_site_symmetry_2
Cd1 O3 1_555 1_555
Cd2 O1 1_555 1_555
Cd3 O1 1_555 1_555
O1 C9 1_555 1_555
O2 Cd3 1_555 1_555
O3 Cd2 1_555 1_555
O4 Cd1 1_555 1_555
O5 Cd3 1_555 1_555
O6 Cd3 1_555 1_555
O7 Cd1 1_555 1_555
O8 Cd1 1_555 1_555
O9 Cd1 1_555 1_555
O10 Cd1 1_555 1_555
H1 O10 1_555 1_555
H2 O10 1_555 1_555
O11 C57 1_555 1_555
O12 Cd2 1_555 1_555
O13 C66 1_555 1_555
O14 C55 1_555 1_555
O15 C55 1_555 1_555
O16 C79 1_555 1_555
O17 C79 1_555 1_555
O18 Cd3 1_555 1_555
H3 O18 1_555 1_555
H4 O18 1_555 1_555
N1 C15 1_555 1_555
N2 H5 1_555 1_555
N3 C23 1_555 1_555
N4 Cd1 1_555 1_555
N5 Cd2 1_555 1_555
N6 H6 1_555 1_555
N7 H7 1_555 1_555
C1 H8 1_555 1_555
C2 C1 1_555 1_555
H9 C2 1_555 1_555
C3 C2 1_555 1_555
H10 C3 1_555 1_555
C4 C3 1_555 1_555
H11 C4 1_555 1_555
C5 C4 1_555 1_555
C6 C1 1_555 1_555
C7 C5 1_555 1_555
C8 C7 1_555 1_555
C9 O2 1_555 1_555
C10 C8 1_555 1_555
H12 C10 1_555 1_555
C11 C10 1_555 1_555
H13 C11 1_555 1_555
C12 C11 1_555 1_555
H14 C12 1_555 1_555
C13 C7 1_555 1_555
H15 C13 1_555 1_555
C14 O3 1_555 1_555
C15 H16 1_555 1_555
C16 C15 1_555 1_555
C17 C16 1_555 1_555
H17 C17 1_555 1_555
C18 N2 1_555 1_555
H18 C18 1_555 1_555
H19 C18 1_555 1_555
C19 C17 1_555 1_555
H20 C19 1_555 1_555
C20 N1 1_555 1_555
H21 C20 1_555 1_555
C21 N2 1_555 1_555
H22 C21 1_555 1_555
H23 C21 1_555 1_555
C22 N2 1_555 1_555
H24 C22 1_555 1_555
H25 C22 1_555 1_555
C23 C21 1_555 1_555
H26 C23 1_555 1_555
H27 C23 1_555 1_555
C24 N3 1_555 1_555
H28 C24 1_555 1_555
H29 C24 1_555 1_555
C25 N3 1_555 1_555
H30 C25 1_555 1_555
H31 C25 1_555 1_555
C26 C25 1_555 1_555
C27 N4 1_555 1_555
H32 C27 1_555 1_555
C28 C26 1_555 1_555
H33 C28 1_555 1_555
C29 C28 1_555 1_555
H34 C29 1_555 1_555
C30 N4 1_555 1_555
H35 C30 1_555 1_555
C31 N5 1_555 1_555
H36 C31 1_555 1_555
C32 N5 1_555 1_555
H37 C32 1_555 1_555
C33 C31 1_555 1_555
C34 C32 1_555 1_555
H38 C34 1_555 1_555
C35 C33 1_555 1_555
H39 C35 1_555 1_555
C36 N6 1_555 1_555
H40 C36 1_555 1_555
H41 C36 1_555 1_555
C37 N6 1_555 1_555
H42 C37 1_555 1_555
H43 C37 1_555 1_555
C38 N6 1_555 1_555
H44 C38 1_555 1_555
H45 C38 1_555 1_555
C39 N7 1_555 1_555
H46 C39 1_555 1_555
H47 C39 1_555 1_555
C40 N7 1_555 1_555
H48 C40 1_555 1_555
H49 C40 1_555 1_555
C41 N7 1_555 1_555
H50 C41 1_555 1_555
H51 C41 1_555 1_555
C47 C48 1_555 1_555
C48 C50 1_555 1_555
C49 O5 1_555 1_555
C51 O7 1_555 1_555
C52 C47 1_555 1_555
H56 C52 1_555 1_555
C55 C56 1_555 1_555
C56 C50 1_555 1_555
C57 O9 1_555 1_555
C58 C57 1_555 1_555
C59 C58 1_555 1_555
C60 C59 1_555 1_555
C61 C60 1_555 1_555
C62 C60 1_555 1_555
H59 C62 1_555 1_555
C63 C61 1_555 1_555
H60 C63 1_555 1_555
C64 C62 1_555 1_555
H61 C64 1_555 1_555
C65 C63 1_555 1_555
H62 C65 1_555 1_555
C66 O12 1_555 1_555
C68 C51 1_555 1_555
C69 C68 1_555 1_555
H64 C69 1_555 1_555
C70 C68 1_555 1_555
C72 C70 1_555 1_555
H66 C72 1_555 1_555
C73 C70 1_555 1_555
C75 C73 1_555 1_555
H68 C75 1_555 1_555
C76 C73 1_555 1_555
C77 C75 1_555 1_555
H69 C77 1_555 1_555
C78 C76 1_555 1_555
H70 C78 1_555 1_555
C79 C76 1_555 1_555
C80 C52 1_555 1_555
H71 C80 1_555 1_555
C81 C80 1_555 1_555
C82 C48 1_555 1_555
C84 C77 1_555 1_555
H75 C84 1_555 1_555
C85 C58 1_555 1_555
H76 C85 1_555 1_555
C86 C85 1_555 1_555
H77 C86 1_555 1_555
C87 C86 1_555 1_555
H78 C87 1_555 1_555
C88 C59 1_555 1_555
H79 C88 1_555 1_555
Cd5 N1 1_555 1_555
N9 Cd3 1_555 1_555
N10 Cd2 1_555 1_555
Cd2 O9 1_555 1_555
Cd3 O12 1_555 1_555
O4 C14 1_555 1_555
O6 C49 1_555 1_555
O8 C51 1_555 1_555
C5 C6 1_555 1_555
C6 C14 1_555 1_555
C8 C9 1_555 1_555
C12 C13 1_555 1_555
C16 C18 1_555 1_555
C19 C20 1_555 1_555
C22 C24 1_555 1_555
C26 C27 1_555 1_555
C29 C30 1_555 1_555
C33 C36 1_555 1_555
C34 C35 1_555 1_555
C37 C39 1_555 1_555
C38 C40 1_555 1_555
C47 C49 1_555 1_555
C61 C66 1_555 1_555
C64 C65 1_555 1_555
C78 C84 1_555 1_555
C81 C82 1_555 1_555
C87 C88 1_555 1_555
Cd2_2 O1_2 1_555 1_555
Cd5 O1_2 1_555 1_555
O1_2 C9_2 1_555 1_555
O2_2 Cd5 1_555 1_555
O3_2 Cd2_2 1_555 1_555
O5_2 Cd5 1_555 1_555
O6_2 Cd5 1_555 1_555
O12_2 Cd2_2 1_555 1_555
O13_2 C66_2 1_555 1_555
O14_2 C55_2 1_555 1_555
O15_2 C55_2 1_555 1_555
O18_2 Cd5 1_555 1_555
H3_2 O18_2 1_555 1_555
H4_2 O18_2 1_555 1_555
N5_2 Cd2_2 1_555 1_555
N6_2 H6_2 1_555 1_555
N7_2 H7_2 1_555 1_555
N8 C43 1_555 1_555
C1_2 H8_2 1_555 1_555
C2_2 C1_2 1_555 1_555
H9_2 C2_2 1_555 1_555
C3_2 C2_2 1_555 1_555
H10_2 C3_2 1_555 1_555
C4_2 C3_2 1_555 1_555
H11_2 C4_2 1_555 1_555
C5_2 C4_2 1_555 1_555
C6_2 C1_2 1_555 1_555
C7_2 C5_2 1_555 1_555
C8_2 C7_2 1_555 1_555
C9_2 O2_2 1_555 1_555
C10_2 C8_2 1_555 1_555
H12_2 C10_2 1_555 1_555
C11_2 C10_2 1_555 1_555
H13_2 C11_2 1_555 1_555
C12_2 C11_2 1_555 1_555
H14_2 C12_2 1_555 1_555
C13_2 C7_2 1_555 1_555
H15_2 C13_2 1_555 1_555
C14_2 O3_2 1_555 1_555
C31_2 N5_2 1_555 1_555
H36_2 C31_2 1_555 1_555
C32_2 N5_2 1_555 1_555
H37_2 C32_2 1_555 1_555
C33_2 C31_2 1_555 1_555
C34_2 C32_2 1_555 1_555
H38_2 C34_2 1_555 1_555
C35_2 C33_2 1_555 1_555
H39_2 C35_2 1_555 1_555
C36_2 N6_2 1_555 1_555
H40_2 C36_2 1_555 1_555
H41_2 C36_2 1_555 1_555
C37_2 N6_2 1_555 1_555
H42_2 C37_2 1_555 1_555
H43_2 C37_2 1_555 1_555
C38_2 N6_2 1_555 1_555
H44_2 C38_2 1_555 1_555
H45_2 C38_2 1_555 1_555
C39_2 N7_2 1_555 1_555
H46_2 C39_2 1_555 1_555
H47_2 C39_2 1_555 1_555
C40_2 N7_2 1_555 1_555
H48_2 C40_2 1_555 1_555
H49_2 C40_2 1_555 1_555
C41_2 N7_2 1_555 1_555
H50_2 C41_2 1_555 1_555
H51_2 C41_2 1_555 1_555
C42 C41_2 1_555 1_555
C43 C42 1_555 1_555
H52 C43 1_555 1_555
C44 C42 1_555 1_555
H53 C44 1_555 1_555
C45 C44 1_555 1_555
H54 C45 1_555 1_555
C46 N8 1_555 1_555
H55 C46 1_555 1_555
C47_2 C48_2 1_555 1_555
C48_2 C50_2 1_555 1_555
C49_2 O5_2 1_555 1_555
C50_2 C53 1_555 1_555
C52_2 C47_2 1_555 1_555
H56_2 C52_2 1_555 1_555
C53 H57 1_555 1_555
C54 C53 1_555 1_555
H58 C54 1_555 1_555
C55_2 C56_2 1_555 1_555
C56_2 C50_2 1_555 1_555
C59_2 C58_2 1_555 1_555
C60_2 C59_2 1_555 1_555
C61_2 C60_2 1_555 1_555
C62_2 C60_2 1_555 1_555
H59_2 C62_2 1_555 1_555
C63_2 C61_2 1_555 1_555
H60_2 C63_2 1_555 1_555
C64_2 C62_2 1_555 1_555
H61_2 C64_2 1_555 1_555
C65_2 C63_2 1_555 1_555
H62_2 C65_2 1_555 1_555
C66_2 O12_2 1_555 1_555
C67 C56_2 1_555 1_555
H63 C67 1_555 1_555
C80_2 C52_2 1_555 1_555
H71_2 C80_2 1_555 1_555
C81_2 C80_2 1_555 1_555
C82_2 C48_2 1_555 1_555
H73 C82_2 1_555 1_555
C83 C54 1_555 1_555
H74 C83 1_555 1_555
C85_2 C58_2 1_555 1_555
C86_2 C85_2 1_555 1_555
H77_2 C86_2 1_555 1_555
C87_2 C86_2 1_555 1_555
H78_2 C87_2 1_555 1_555
C88_2 C59_2 1_555 1_555
H79_2 C88_2 1_555 1_555
N10_2 Cd2_2 1_555 1_555
Cd2_2 O9_2 1_555 1_555
Cd5 O12_2 1_555 1_555
O6_2 C49_2 1_555 1_555
C5_2 C6_2 1_555 1_555
C6_2 C14_2 1_555 1_555
C8_2 C9_2 1_555 1_555
C12_2 C13_2 1_555 1_555
C33_2 C36_2 1_555 1_555
C34_2 C35_2 1_555 1_555
C37_2 C39_2 1_555 1_555
C38_2 C40_2 1_555 1_555
C45 C46 1_555 1_555
C47_2 C49_2 1_555 1_555
C61_2 C66_2 1_555 1_555
C64_2 C65_2 1_555 1_555
C67 C83 1_555 1_555
C81_2 C82_2 1_555 1_555
C87_2 C88_2 1_555 1_555
O4_2 Cd1_2 1_555 1_555
O7_2 Cd1_2 1_555 1_555
O8_2 Cd1_2 1_555 1_555
O9_3 Cd1_2 1_555 1_555
O10_2 Cd1_2 1_555 1_555
H1_2 O10_2 1_555 1_555
H2_2 O10_2 1_555 1_555
O11_2 C57_2 1_555 1_555
O16_2 C79_2 1_555 1_555
O17_2 C79_2 1_555 1_555
N9 C15_2 1_555 1_555
N2_2 H5_2 1_555 1_555
N3_2 C23_2 1_555 1_555
N4_2 Cd1_2 1_555 1_555
C15_2 H16_2 1_555 1_555
C16_2 C15_2 1_555 1_555
C17_2 C16_2 1_555 1_555
H17_2 C17_2 1_555 1_555
C18_2 N2_2 1_555 1_555
H18_2 C18_2 1_555 1_555
H19_2 C18_2 1_555 1_555
C19_2 C17_2 1_555 1_555
H20_2 C19_2 1_555 1_555
C20_2 N9 1_555 1_555
H21_2 C20_2 1_555 1_555
C21_2 N2_2 1_555 1_555
H22_2 C21_2 1_555 1_555
H23_2 C21_2 1_555 1_555
C22_2 N2_2 1_555 1_555
H24_2 C22_2 1_555 1_555
H25_2 C22_2 1_555 1_555
C23_2 C21_2 1_555 1_555
H26_2 C23_2 1_555 1_555
H27_2 C23_2 1_555 1_555
C24_2 N3_2 1_555 1_555
H28_2 C24_2 1_555 1_555
H29_2 C24_2 1_555 1_555
C25_2 N3_2 1_555 1_555
H30_2 C25_2 1_555 1_555
H31_2 C25_2 1_555 1_555
C26_2 C25_2 1_555 1_555
C27_2 N4_2 1_555 1_555
H32_2 C27_2 1_555 1_555
C28_2 C26_2 1_555 1_555
H33_2 C28_2 1_555 1_555
C29_2 C28_2 1_555 1_555
H34_2 C29_2 1_555 1_555
C30_2 N4_2 1_555 1_555
H35_2 C30_2 1_555 1_555
C51_2 O7_2 1_555 1_555
C57_2 O9_3 1_555 1_555
C68_2 C51_2 1_555 1_555
C69_2 C68_2 1_555 1_555
H64_2 C69_2 1_555 1_555
C70_2 C68_2 1_555 1_555
C72_2 C70_2 1_555 1_555
H66_2 C72_2 1_555 1_555
C73_2 C70_2 1_555 1_555
C75_2 C73_2 1_555 1_555
H68_2 C75_2 1_555 1_555
C76_2 C73_2 1_555 1_555
C77_2 C75_2 1_555 1_555
H69_2 C77_2 1_555 1_555
C78_2 C76_2 1_555 1_555
H70_2 C78_2 1_555 1_555
C79_2 C76_2 1_555 1_555
C84_2 C77_2 1_555 1_555
H75_2 C84_2 1_555 1_555
O8_2 C51_2 1_555 1_555
C16_2 C18_2 1_555 1_555
C19_2 C20_2 1_555 1_555
C22_2 C24_2 1_555 1_555
C26_2 C27_2 1_555 1_555
C29_2 C30_2 1_555 1_555
C78_2 C84_2 1_555 1_555
H12_3 C10_3 1_555 1_555
C11_3 C10_3 1_555 1_555
H13_3 C11_3 1_555 1_555
C12_3 C11_3 1_555 1_555
H14_3 C12_3 1_555 1_555
H65 C71 1_555 1_555
C74 C71 1_555 1_555
H67 C74 1_555 1_555
H76_3 C85_3 1_555 1_555
C86_3 C85_3 1_555 1_555
H77_3 C86_3 1_555 1_555
C87_3 C86_3 1_555 1_555
H78_3 C87_3 1_555 1_555
C87_3 C88_3 1_555 1_555
N10_2 C43_2 1_555 1_555
C43_2 C42_2 1_555 1_555
H52_2 C43_2 1_555 1_555
C44_2 C42_2 1_555 1_555
H53_2 C44_2 1_555 1_555
C45_2 C44_2 1_555 1_555
H54_2 C45_2 1_555 1_555
C46_2 N10_2 1_555 1_555
H55_2 C46_2 1_555 1_555
C53_2 H57_2 1_555 1_555
C54_2 C53_2 1_555 1_555
H63_2 C67_2 1_555 1_555
C83_2 C54_2 1_555 1_555
C45_2 C46_2 1_555 1_555
C67_2 C83_2 1_555 1_555
Cd4 O1_3 1_555 1_555
Cd5_2 O1_3 1_555 1_555
O1_3 C9_3 1_555 1_555
O3_3 Cd4 1_555 1_555
O5_3 Cd5_2 1_555 1_555
O6_3 Cd5_2 1_555 1_555
O12_3 Cd4 1_555 1_555
O13_3 C66_3 1_555 1_555
O14_3 C55_3 1_555 1_555
O15_3 C55_3 1_555 1_555
O18_3 Cd5_2 1_555 1_555
H3_3 O18_3 1_555 1_555
H4_3 O18_3 1_555 1_555
N5_3 Cd4 1_555 1_555
N6_3 H6_3 1_555 1_555
N7_3 H7_3 1_555 1_555
N10 C43_3 1_555 1_555
C1_3 H8_3 1_555 1_555
C2_3 C1_3 1_555 1_555
H9_3 C2_3 1_555 1_555
C3_3 C2_3 1_555 1_555
H10_3 C3_3 1_555 1_555
C4_3 C3_3 1_555 1_555
H11_3 C4_3 1_555 1_555
C5_3 C4_3 1_555 1_555
C6_3 C1_3 1_555 1_555
C7_3 C5_3 1_555 1_555
C8_3 C7_3 1_555 1_555
C13_3 C7_3 1_555 1_555
H15_3 C13_3 1_555 1_555
C14_3 O3_3 1_555 1_555
C31_3 N5_3 1_555 1_555
H36_3 C31_3 1_555 1_555
C32_3 N5_3 1_555 1_555
H37_3 C32_3 1_555 1_555
C33_3 C31_3 1_555 1_555
C34_3 C32_3 1_555 1_555
H38_3 C34_3 1_555 1_555
C35_3 C33_3 1_555 1_555
H39_3 C35_3 1_555 1_555
C36_3 N6_3 1_555 1_555
H40_3 C36_3 1_555 1_555
H41_3 C36_3 1_555 1_555
C37_3 N6_3 1_555 1_555
H42_3 C37_3 1_555 1_555
H43_3 C37_3 1_555 1_555
C38_3 N6_3 1_555 1_555
H44_3 C38_3 1_555 1_555
H45_3 C38_3 1_555 1_555
C39_3 N7_3 1_555 1_555
H46_3 C39_3 1_555 1_555
H47_3 C39_3 1_555 1_555
C40_3 N7_3 1_555 1_555
H48_3 C40_3 1_555 1_555
H49_3 C40_3 1_555 1_555
C41_3 N7_3 1_555 1_555
H50_3 C41_3 1_555 1_555
H51_3 C41_3 1_555 1_555
C42_3 C41_3 1_555 1_555
C43_3 C42_3 1_555 1_555
H52_3 C43_3 1_555 1_555
C44_3 C42_3 1_555 1_555
H53_3 C44_3 1_555 1_555
C45_3 C44_3 1_555 1_555
H54_3 C45_3 1_555 1_555
C46_3 N10 1_555 1_555
H55_3 C46_3 1_555 1_555
C47_3 C48_3 1_555 1_555
C48_3 C50_3 1_555 1_555
C49_3 O5_3 1_555 1_555
C50_3 C53_3 1_555 1_555
C52_3 C47_3 1_555 1_555
H56_3 C52_3 1_555 1_555
C53_3 H57_3 1_555 1_555
C54_3 C53_3 1_555 1_555
C55_3 C56_3 1_555 1_555
C56_3 C50_3 1_555 1_555
C59_3 C58_3 1_555 1_555
C60_3 C59_3 1_555 1_555
C61_3 C60_3 1_555 1_555
C62_3 C60_3 1_555 1_555
H59_3 C62_3 1_555 1_555
C63_3 C61_3 1_555 1_555
H60_3 C63_3 1_555 1_555
C64_3 C62_3 1_555 1_555
H61_3 C64_3 1_555 1_555
C65_3 C63_3 1_555 1_555
H62_3 C65_3 1_555 1_555
C66_3 O12_3 1_555 1_555
C67_3 C56_3 1_555 1_555
H63_3 C67_3 1_555 1_555
C80_3 C52_3 1_555 1_555
H71_3 C80_3 1_555 1_555
C81_3 C80_3 1_555 1_555
H72 C81_3 1_555 1_555
C82_3 C48_3 1_555 1_555
H73_3 C82_3 1_555 1_555
C83_3 C54_3 1_555 1_555
Cd4 O9_4 1_555 1_555
Cd5_2 O12_3 1_555 1_555
O6_3 C49_3 1_555 1_555
C5_3 C6_3 1_555 1_555
C6_3 C14_3 1_555 1_555
C8_3 C9_3 1_555 1_555
C33_3 C36_3 1_555 1_555
C34_3 C35_3 1_555 1_555
C37_3 C39_3 1_555 1_555
C38_3 C40_3 1_555 1_555
C45_3 C46_3 1_555 1_555
C47_3 C49_3 1_555 1_555
C61_3 C66_3 1_555 1_555
C64_3 C65_3 1_555 1_555
C67_3 C83_3 1_555 1_555
C81_3 C82_3 1_555 1_555
N9_2 C15_3 1_555 1_555
N2_3 H5_3 1_555 1_555
C15_3 H16_3 1_555 1_555
C16_3 C15_3 1_555 1_555
C17_3 C16_3 1_555 1_555
H17_3 C17_3 1_555 1_555
C18_3 N2_3 1_555 1_555
H18_3 C18_3 1_555 1_555
H19_3 C18_3 1_555 1_555
C19_3 C17_3 1_555 1_555
H20_3 C19_3 1_555 1_555
C20_3 N9_2 1_555 1_555
H21_3 C20_3 1_555 1_555
C22_3 N2_3 1_555 1_555
H24_3 C22_3 1_555 1_555
H25_3 C22_3 1_555 1_555
H28_3 C24_3 1_555 1_555
H29_3 C24_3 1_555 1_555
C16_3 C18_3 1_555 1_555
C19_3 C20_3 1_555 1_555
C22_3 C24_3 1_555 1_555
N8_2 C43_4 1_555 1_555
C43_4 C42_4 1_555 1_555
H52_4 C43_4 1_555 1_555
C44_4 C42_4 1_555 1_555
H53_4 C44_4 1_555 1_555
C45_4 C44_4 1_555 1_555
H54_4 C45_4 1_555 1_555
C46_4 N8_2 1_555 1_555
H55_4 C46_4 1_555 1_555
C53_4 H57_4 1_555 1_555
C54_4 C53_4 1_555 1_555
H58_2 C54_4 1_555 1_555
H63_4 C67_4 1_555 1_555
C83_4 C54_4 1_555 1_555
H74_2 C83_4 1_555 1_555
C45_4 C46_4 1_555 1_555
C67_4 C83_4 1_555 1_555
N1_2 C15_4 1_555 1_555
N2_4 H5_4 1_555 1_555
C15_4 H16_4 1_555 1_555
C16_4 C15_4 1_555 1_555
C17_4 C16_4 1_555 1_555
H17_4 C17_4 1_555 1_555
C18_4 N2_4 1_555 1_555
H18_4 C18_4 1_555 1_555
H19_4 C18_4 1_555 1_555
C19_4 C17_4 1_555 1_555
H20_4 C19_4 1_555 1_555
C20_4 N1_2 1_555 1_555
H21_4 C20_4 1_555 1_555
C22_4 N2_4 1_555 1_555
H24_4 C22_4 1_555 1_555
H25_4 C22_4 1_555 1_555
H28_4 C24_4 1_555 1_555
H29_4 C24_4 1_555 1_555
C16_4 C18_4 1_555 1_555
C19_4 C20_4 1_555 1_555
C22_4 C24_4 1_555 1_555
H12_4 C10_4 1_555 1_555
C11_4 C10_4 1_555 1_555
H13_4 C11_4 1_555 1_555
C12_4 C11_4 1_555 1_555
H14_4 C12_4 1_555 1_555
C86_4 C85_4 1_555 1_555
H77_4 C86_4 1_555 1_555
C87_4 C86_4 1_555 1_555
H78_4 C87_4 1_555 1_555
C87_4 C88_4 1_555 1_555
H65_2 C71_2 1_555 1_555
C74_2 C71_2 1_555 1_555
H67_2 C74_2 1_555 1_555
H65_3 C71_3 1_555 1_555
C74_3 C71_3 1_555 1_555
H67_3 C74_3 1_555 1_555
Cd1_3 O3_4 1_555 1_555
Cd4_2 O1_4 1_555 1_555
Cd3_2 O1_4 1_555 1_555
O1_4 C9_4 1_555 1_555
O3_4 Cd4_2 1_555 1_555
O4_3 Cd1_3 1_555 1_555
O5_4 Cd3_2 1_555 1_555
O6_4 Cd3_2 1_555 1_555
O7_3 Cd1_3 1_555 1_555
O8_3 Cd1_3 1_555 1_555
O9_5 Cd1_3 1_555 1_555
O10_3 Cd1_3 1_555 1_555
H1_3 O10_3 1_555 1_555
H2_3 O10_3 1_555 1_555
O11_3 C57_3 1_555 1_555
O12_4 Cd4_2 1_555 1_555
O13_4 C66_4 1_555 1_555
O14_4 C55_4 1_555 1_555
O15_4 C55_4 1_555 1_555
O16_3 C79_3 1_555 1_555
O18_4 Cd3_2 1_555 1_555
H3_4 O18_4 1_555 1_555
H4_4 O18_4 1_555 1_555
N3_3 C23_3 1_555 1_555
N4_3 Cd1_3 1_555 1_555
N5_4 Cd4_2 1_555 1_555
N6_4 H6_4 1_555 1_555
N7_4 H7_4 1_555 1_555
C1_4 H8_4 1_555 1_555
C2_4 C1_4 1_555 1_555
H9_4 C2_4 1_555 1_555
C3_4 C2_4 1_555 1_555
H10_4 C3_4 1_555 1_555
C4_4 C3_4 1_555 1_555
H11_4 C4_4 1_555 1_555
C5_4 C4_4 1_555 1_555
C6_4 C1_4 1_555 1_555
C7_4 C5_4 1_555 1_555
C8_4 C7_4 1_555 1_555
C13_4 C7_4 1_555 1_555
H15_4 C13_4 1_555 1_555
C14_4 O3_4 1_555 1_555
H22_3 C21_3 1_555 1_555
H23_3 C21_3 1_555 1_555
C23_3 C21_3 1_555 1_555
H26_3 C23_3 1_555 1_555
H27_3 C23_3 1_555 1_555
C25_3 N3_3 1_555 1_555
H30_3 C25_3 1_555 1_555
H31_3 C25_3 1_555 1_555
C26_3 C25_3 1_555 1_555
C27_3 N4_3 1_555 1_555
H32_3 C27_3 1_555 1_555
C28_3 C26_3 1_555 1_555
H33_3 C28_3 1_555 1_555
C29_3 C28_3 1_555 1_555
H34_3 C29_3 1_555 1_555
C30_3 N4_3 1_555 1_555
H35_3 C30_3 1_555 1_555
C31_4 N5_4 1_555 1_555
H36_4 C31_4 1_555 1_555
C32_4 N5_4 1_555 1_555
H37_4 C32_4 1_555 1_555
C33_4 C31_4 1_555 1_555
C34_4 C32_4 1_555 1_555
H38_4 C34_4 1_555 1_555
C35_4 C33_4 1_555 1_555
H39_4 C35_4 1_555 1_555
C36_4 N6_4 1_555 1_555
H40_4 C36_4 1_555 1_555
H41_4 C36_4 1_555 1_555
C37_4 N6_4 1_555 1_555
H42_4 C37_4 1_555 1_555
H43_4 C37_4 1_555 1_555
C38_4 N6_4 1_555 1_555
H44_4 C38_4 1_555 1_555
H45_4 C38_4 1_555 1_555
C39_4 N7_4 1_555 1_555
H46_4 C39_4 1_555 1_555
H47_4 C39_4 1_555 1_555
C40_4 N7_4 1_555 1_555
H48_4 C40_4 1_555 1_555
H49_4 C40_4 1_555 1_555
C41_4 N7_4 1_555 1_555
H50_4 C41_4 1_555 1_555
H51_4 C41_4 1_555 1_555
C47_4 C48_4 1_555 1_555
C48_4 C50_4 1_555 1_555
C49_4 O5_4 1_555 1_555
C51_3 O7_3 1_555 1_555
C52_4 C47_4 1_555 1_555
H56_4 C52_4 1_555 1_555
C55_4 C56_4 1_555 1_555
C56_4 C50_4 1_555 1_555
C57_3 O9_5 1_555 1_555
C58_4 C57_3 1_555 1_555
C59_4 C58_4 1_555 1_555
C60_4 C59_4 1_555 1_555
C61_4 C60_4 1_555 1_555
C62_4 C60_4 1_555 1_555
H59_4 C62_4 1_555 1_555
C63_4 C61_4 1_555 1_555
H60_4 C63_4 1_555 1_555
C64_4 C62_4 1_555 1_555
H61_4 C64_4 1_555 1_555
C65_4 C63_4 1_555 1_555
H62_4 C65_4 1_555 1_555
C66_4 O12_4 1_555 1_555
C68_3 C51_3 1_555 1_555
C69_3 C68_3 1_555 1_555
H64_3 C69_3 1_555 1_555
C70_3 C68_3 1_555 1_555
C72_3 C70_3 1_555 1_555
H66_3 C72_3 1_555 1_555
C73_3 C70_3 1_555 1_555
C75_3 C73_3 1_555 1_555
H68_3 C75_3 1_555 1_555
C76_3 C73_3 1_555 1_555
C77_3 C75_3 1_555 1_555
H69_3 C77_3 1_555 1_555
C78_3 C76_3 1_555 1_555
H70_3 C78_3 1_555 1_555
C79_3 C76_3 1_555 1_555
C80_4 C52_4 1_555 1_555
H71_4 C80_4 1_555 1_555
C81_4 C80_4 1_555 1_555
H72_4 C81_4 1_555 1_555
C82_4 C48_4 1_555 1_555
C84_3 C77_3 1_555 1_555
H75_3 C84_3 1_555 1_555
Cd4_2 O9_5 1_555 1_555
Cd3_2 O12_4 1_555 1_555
O4_3 C14_4 1_555 1_555
O6_4 C49_4 1_555 1_555
O8_3 C51_3 1_555 1_555
C5_4 C6_4 1_555 1_555
C6_4 C14_4 1_555 1_555
C8_4 C9_4 1_555 1_555
C26_3 C27_3 1_555 1_555
C29_3 C30_3 1_555 1_555
C33_4 C36_4 1_555 1_555
C34_4 C35_4 1_555 1_555
C37_4 C39_4 1_555 1_555
C38_4 C40_4 1_555 1_555
C47_4 C49_4 1_555 1_555
C61_4 C66_4 1_555 1_555
C64_4 C65_4 1_555 1_555
C78_3 C84_3 1_555 1_555
C81_4 C82_4 1_555 1_555
O4_4 Cd1_4 1_555 1_555
O7_4 Cd1_4 1_555 1_555
O8_4 Cd1_4 1_555 1_555
O9_6 Cd1_4 1_555 1_555
O10_4 Cd1_4 1_555 1_555
H1_4 O10_4 1_555 1_555
H2_4 O10_4 1_555 1_555
O11_4 C57_4 1_555 1_555
O16_4 C79_4 1_555 1_555
N3_4 C23_4 1_555 1_555
N4_4 Cd1_4 1_555 1_555
H22_4 C21_4 1_555 1_555
H23_4 C21_4 1_555 1_555
C23_4 C21_4 1_555 1_555
H26_4 C23_4 1_555 1_555
H27_4 C23_4 1_555 1_555
C25_4 N3_4 1_555 1_555
H30_4 C25_4 1_555 1_555
H31_4 C25_4 1_555 1_555
C26_4 C25_4 1_555 1_555
C27_4 N4_4 1_555 1_555
H32_4 C27_4 1_555 1_555
C28_4 C26_4 1_555 1_555
H33_4 C28_4 1_555 1_555
C29_4 C28_4 1_555 1_555
H34_4 C29_4 1_555 1_555
C30_4 N4_4 1_555 1_555
H35_4 C30_4 1_555 1_555
C51_4 O7_4 1_555 1_555
C57_4 O9_6 1_555 1_555
C68_4 C51_4 1_555 1_555
C69_4 C68_4 1_555 1_555
H64_4 C69_4 1_555 1_555
C70_4 C68_4 1_555 1_555
C72_4 C70_4 1_555 1_555
H66_4 C72_4 1_555 1_555
C73_4 C70_4 1_555 1_555
C75_4 C73_4 1_555 1_555
H68_4 C75_4 1_555 1_555
C76_4 C73_4 1_555 1_555
C77_4 C75_4 1_555 1_555
H69_4 C77_4 1_555 1_555
C78_4 C76_4 1_555 1_555
H70_4 C78_4 1_555 1_555
C79_4 C76_4 1_555 1_555
C84_4 C77_4 1_555 1_555
H75_4 C84_4 1_555 1_555
O8_4 C51_4 1_555 1_555
C26_4 C27_4 1_555 1_555
C29_4 C30_4 1_555 1_555
C78_4 C84_4 1_555 1_555
H65_4 C71_4 1_555 1_555
C74_4 C71_4 1_555 1_555
H67_4 C74_4 1_555 1_555
Cl1 O19 1_555 1_555
O20 Cl1 1_555 1_555
O21 Cl1 1_555 1_555
O22 Cl1 1_555 1_555
Cl1_2 O19_2 1_555 1_555
O20_2 Cl1_2 1_555 1_555
O21_2 Cl1_2 1_555 1_555
O22_2 Cl1_2 1_555 1_555
Cl1_3 O19_3 1_555 1_555
O20_3 Cl1_3 1_555 1_555
O21_3 Cl1_3 1_555 1_555
O22_3 Cl1_3 1_555 1_555
Cl1_4 O19_4 1_555 1_555
O20_4 Cl1_4 1_555 1_555
O21_4 Cl1_4 1_555 1_555
O22_4 Cl1_4 1_555 1_555

#END
