
###############################################################################
#
# This file contains modified crystal structure data generated from the
# MOF subset of the Cambridge Structural Database (CSD) v543 
# hosted by the Cambridge Crystallographic Data Centre (CCDC).
#
# This work is licensed under the Creative Commons
# Attribution-NonCommercial-ShareAlike 4.0 International License.
# To view a copy of this license, visit
# http://creativecommons.org/licenses/by-nc-sa/4.0/
# or send a letter to
# Creative Commons, PO Box 1866, Mountain View, CA 94042, USA.
#
# CIF created using the CSD Python API on 29 September 2022
# The structure has been converted into the P1 space group
# The structure has a 3D framework
# The original CSD entry ILAXEA is in the tetragonal crystal system
# The framework has been calculated to contain at least 10.0% void space
# The void calculation uses a probe of radius 1.32A, grid spacing 0.4
# The framework is charged, counterions have been retained in the structure
#
###############################################################################

data_ILAXEA
_chemical_formula_moiety         '(C288 H224 Cu12 N112 O64 8+)n'
_symmetry_cell_setting           triclinic
_symmetry_space_group_name_H-M   'P 1'
_symmetry_Int_Tables_number      1
_space_group_name_Hall           'P 1'
loop_
_symmetry_equiv_pos_site_id
_symmetry_equiv_pos_as_xyz
1 x,y,z
_cell_length_a                   14.08450(19)
_cell_length_b                   14.08450(19)
_cell_length_c                   44.2036(10)
_cell_angle_alpha                90
_cell_angle_beta                 90
_cell_angle_gamma                90
_cell_volume                     8768.81
loop_
_atom_site_label
_atom_site_type_symbol
_atom_site_fract_x
_atom_site_fract_y
_atom_site_fract_z
Cu1 Cu 0.5000 0.2500 0.17191(2)
O1 O 0.36811(11) 0.35713(11) 0.16996(3)
H1 H 0.3610 0.3808 0.1516
H2 H 0.3764 0.4049 0.1826
N1 N 0.61789(12) 0.40450(12) 0.24249(4)
N2 N 0.69881(13) 0.37295(15) 0.22902(4)
N3 N 0.57102(12) 0.32172(12) 0.20410(3)
N4 N 0.63184(11) 0.61952(12) 0.34950(4)
N5 N 0.71271(12) 0.64707(14) 0.36414(4)
N6 N 0.58262(11) 0.69003(12) 0.39003(3)
C1 C 0.66684(15) 0.32415(17) 0.20596(5)
H3 H 0.7064 0.2939 0.1921
C2 C 0.54273(14) 0.37301(15) 0.22747(4)
H4 H 0.4798 0.3851 0.2326
C3 C 0.62215(13) 0.46067(14) 0.26965(4)
C4 C 0.62450(14) 0.55967(15) 0.26704(4)
C5 C 0.62099(16) 0.60843(16) 0.23881(5)
H5 H 0.6178 0.5740 0.2209
C6 C 0.6223(2) 0.70483(18) 0.23790(5)
H6 H 0.6198 0.7358 0.2193
C7 C 0.6273(2) 0.75895(17) 0.26501(6)
H7 H 0.6280 0.8249 0.2640
C8 C 0.63100(16) 0.71560(16) 0.29235(5)
H8 H 0.6345 0.7519 0.3099
C9 C 0.62961(14) 0.61448(14) 0.29437(4)
C10 C 0.63318(13) 0.56576(14) 0.32178(4)
C11 C 0.63318(13) 0.46694(15) 0.32431(4)
C12 C 0.63944(14) 0.41883(15) 0.35256(4)
H9 H 0.6462 0.4537 0.3703
C13 C 0.63560(15) 0.32250(16) 0.35385(5)
H10 H 0.6404 0.2920 0.3724
C14 C 0.62430(15) 0.26821(15) 0.32715(5)
H11 H 0.6194 0.2025 0.3285
C15 C 0.62053(14) 0.31100(15) 0.29966(5)
H12 H 0.6145 0.2742 0.2823
C16 C 0.62579(13) 0.41206(14) 0.29717(4)
C17 C 0.67945(14) 0.68918(16) 0.38835(5)
H13 H 0.7183 0.7161 0.4031
C18 C 0.55556(14) 0.64521(14) 0.36512(4)
H14 H 0.4930 0.6336 0.3595
O2 O 0.63189(11) 0.14287(11) 0.16996(3)
H15 H 0.6390 0.1192 0.1516
H16 H 0.6236 0.0951 0.1826
N7 N 0.38211(12) 0.09550(12) 0.24249(4)
N8 N 0.30119(13) 0.12705(15) 0.22902(4)
N9 N 0.42898(12) 0.17828(12) 0.20410(3)
C19 C 0.33316(15) 0.17585(17) 0.20596(5)
H17 H 0.2936 0.2061 0.1921
C20 C 0.45727(14) 0.12699(15) 0.22747(4)
H18 H 0.5202 0.1149 0.2326
C21 C 0.37785(13) 0.03933(14) 0.26965(4)
C29 C 0.36682(13) 0.03306(15) 0.32431(4)
C30 C 0.36056(14) 0.08117(15) 0.35256(4)
H23 H 0.3538 0.0463 0.3703
C31 C 0.36440(15) 0.17750(16) 0.35385(5)
H24 H 0.3596 0.2080 0.3724
C32 C 0.37570(15) 0.23179(15) 0.32715(5)
H25 H 0.3806 0.2975 0.3285
C33 C 0.37947(14) 0.18900(15) 0.29966(5)
H26 H 0.3855 0.2258 0.2823
C34 C 0.37421(13) 0.08794(14) 0.29717(4)
Cu3 Cu 0.5000 0.7500 0.42191(2)
N13 N 0.44003(12) 0.16738(11) 0.14003(3)
N14 N 0.55997(12) 0.33262(11) 0.14003(3)
N10 N 0.36816(11) 0.88048(12) 0.34950(4)
N11 N 0.28729(12) 0.85293(14) 0.36414(4)
N12 N 0.41738(11) 0.80997(12) 0.39003(3)
C22 C 0.37550(14) 0.94033(15) 0.26704(4)
C23 C 0.37901(16) 0.89157(16) 0.23881(5)
H19 H 0.3822 0.9260 0.2209
C24 C 0.3777(2) 0.79517(18) 0.23790(5)
H20 H 0.3802 0.7642 0.2193
C25 C 0.3727(2) 0.74105(17) 0.26501(6)
H21 H 0.3720 0.6751 0.2640
C26 C 0.36900(16) 0.78440(16) 0.29235(5)
H22 H 0.3655 0.7481 0.3099
C27 C 0.37039(14) 0.88552(14) 0.29437(4)
C28 C 0.36682(13) 0.93424(14) 0.32178(4)
C35 C 0.32055(14) 0.81082(16) 0.38835(5)
H27 H 0.2817 0.7839 0.4031
C36 C 0.44444(14) 0.85479(14) 0.36512(4)
H28 H 0.5070 0.8664 0.3595
N10_2 N 0.13184(11) 0.11952(12) 0.84950(4)
N11_2 N 0.21271(12) 0.14707(14) 0.86414(4)
N12_2 N 0.08262(11) 0.19003(12) 0.89003(3)
C22_2 C 0.12450(14) 0.05967(15) 0.76704(4)
C23_2 C 0.12099(16) 0.10843(16) 0.73881(5)
H19_2 H 0.1178 0.0740 0.7209
C24_2 C 0.1223(2) 0.20483(18) 0.73790(5)
H20_2 H 0.1198 0.2358 0.7193
C25_2 C 0.1273(2) 0.25895(17) 0.76501(6)
H21_2 H 0.1280 0.3249 0.7640
C26_2 C 0.13100(16) 0.21560(16) 0.79235(5)
H22_2 H 0.1345 0.2519 0.8099
C27_2 C 0.12961(14) 0.11448(14) 0.79437(4)
C28_2 C 0.13318(13) 0.06576(14) 0.82178(4)
C35_2 C 0.17945(14) 0.18918(16) 0.88835(5)
H27_2 H 0.2183 0.2161 0.9031
C36_2 C 0.05556(14) 0.14521(14) 0.86512(4)
Cu2 Cu 0.0000 0.2500 0.92191(2)
Cu1_2 Cu 0.0000 0.7500 0.67191(2)
O1_2 O 0.13189(11) 0.64287(11) 0.66996(3)
H1_2 H 0.1390 0.6192 0.6516
H2_2 H 0.1236 0.5951 0.6826
H4_2 H 0.0202 0.6149 0.7326
H14_2 H 0.0070 0.3664 0.8595
N7_2 N 0.11789(12) 0.90450(12) 0.74249(4)
N8_2 N 0.19881(13) 0.87295(15) 0.72902(4)
N9_2 N 0.07102(12) 0.82172(12) 0.70410(3)
C19_2 C 0.16684(15) 0.82415(17) 0.70596(5)
H17_2 H 0.2064 0.7939 0.6921
C20_2 C 0.04273(14) 0.87301(15) 0.72747(4)
C21_2 C 0.12215(13) 0.96067(14) 0.76965(4)
C29_2 C 0.13318(13) 0.96694(15) 0.82431(4)
C30_2 C 0.13944(14) 0.91883(15) 0.85256(4)
H23_2 H 0.1462 0.9537 0.8703
C31_2 C 0.13560(15) 0.82250(16) 0.85385(5)
H24_2 H 0.1404 0.7920 0.8724
C32_2 C 0.12430(15) 0.76821(15) 0.82715(5)
H25_2 H 0.1194 0.7025 0.8285
C33_2 C 0.12053(14) 0.81100(15) 0.79966(5)
H26_2 H 0.1145 0.7742 0.7823
C34_2 C 0.12579(13) 0.91206(14) 0.79717(4)
N13_2 N 0.05997(12) 0.83262(11) 0.64003(3)
H28_2 H 0.9930 0.1336 0.8595
Cu2_2 Cu 1.0000 0.2500 0.92191(2)
Cu1_3 Cu 1.0000 0.7500 0.67191(2)
N1_2 N 0.88211(12) 0.59550(12) 0.74249(4)
N2_2 N 0.80119(13) 0.62705(15) 0.72902(4)
N3_2 N 0.92898(12) 0.67828(12) 0.70410(3)
N4_2 N 0.86816(11) 0.38048(12) 0.84950(4)
N5_2 N 0.78729(12) 0.35293(14) 0.86414(4)
N6_2 N 0.91738(11) 0.30997(12) 0.89003(3)
C1_2 C 0.83316(15) 0.67585(17) 0.70596(5)
H3_2 H 0.7936 0.7061 0.6921
C2_2 C 0.95727(14) 0.62699(15) 0.72747(4)
C3_2 C 0.87785(13) 0.53933(14) 0.76965(4)
C4_2 C 0.87550(14) 0.44033(15) 0.76704(4)
C5_2 C 0.87901(16) 0.39157(16) 0.73881(5)
H5_2 H 0.8822 0.4260 0.7209
C6_2 C 0.8777(2) 0.29517(18) 0.73790(5)
H6_2 H 0.8802 0.2642 0.7193
C7_2 C 0.8727(2) 0.24105(17) 0.76501(6)
H7_2 H 0.8720 0.1751 0.7640
C8_2 C 0.86900(16) 0.28440(16) 0.79235(5)
H8_2 H 0.8655 0.2481 0.8099
C9_2 C 0.87039(14) 0.38552(14) 0.79437(4)
C10_2 C 0.86682(13) 0.43424(14) 0.82178(4)
C11_2 C 0.86682(13) 0.53306(15) 0.82431(4)
C12_2 C 0.86056(14) 0.58117(15) 0.85256(4)
H9_2 H 0.8538 0.5463 0.8703
C13_2 C 0.86440(15) 0.67750(16) 0.85385(5)
H10_2 H 0.8596 0.7080 0.8724
C14_2 C 0.87570(15) 0.73179(15) 0.82715(5)
H11_2 H 0.8806 0.7975 0.8285
C15_2 C 0.87947(14) 0.68900(15) 0.79966(5)
H12_2 H 0.8855 0.7258 0.7823
C16_2 C 0.87421(13) 0.58794(14) 0.79717(4)
C17_2 C 0.82055(14) 0.31082(16) 0.88835(5)
H13_2 H 0.7817 0.2839 0.9031
C18_2 C 0.94444(14) 0.35479(14) 0.86512(4)
O2_2 O 0.86811(11) 0.85713(11) 0.66996(3)
H15_2 H 0.8610 0.8808 0.6516
H16_2 H 0.8764 0.9049 0.6826
H18_2 H 0.9798 0.8851 0.7326
N14_2 N 0.94003(12) 0.66738(11) 0.64003(3)
C25_3 C 0.00895(17) 0.6227(2) 0.51501(6)
H21_3 H 0.0749 0.6220 0.5140
H22_3 H 0.0019 0.6155 0.5599
O1_3 O 0.39287(11) 0.61811(11) 0.41996(3)
H1_3 H 0.3692 0.6110 0.4016
H2_3 H 0.3451 0.6264 0.4326
N1_3 N 0.34550(12) 0.86789(12) 0.49249(4)
N2_3 N 0.37705(15) 0.94881(13) 0.47902(4)
N3_3 N 0.42828(12) 0.82102(12) 0.45410(3)
N4_3 N 0.13048(12) 0.88184(11) 0.59950(4)
N5_3 N 0.10293(14) 0.96271(12) 0.61414(4)
C1_3 C 0.42585(17) 0.91684(15) 0.45596(5)
H3_3 H 0.4561 0.9564 0.4421
C2_3 C 0.37699(15) 0.79273(14) 0.47747(4)
H4_3 H 0.3649 0.7298 0.4826
C3_3 C 0.28933(14) 0.87215(13) 0.51965(4)
C4_3 C 0.19033(15) 0.87450(14) 0.51704(4)
C5_3 C 0.14157(16) 0.87099(16) 0.48881(5)
H5_3 H 0.1760 0.8678 0.4709
C6_3 C 0.04517(18) 0.8723(2) 0.48790(5)
H6_3 H 0.0142 0.8698 0.4693
C8_3 C 0.03440(16) 0.88100(16) 0.54235(5)
C9_3 C 0.13552(14) 0.87961(14) 0.54437(4)
C10_3 C 0.18424(14) 0.88318(13) 0.57178(4)
C11_3 C 0.28306(15) 0.88318(13) 0.57431(4)
C12_3 C 0.33117(15) 0.88944(14) 0.60256(4)
H9_3 H 0.2963 0.8962 0.6203
C13_3 C 0.42750(16) 0.88560(15) 0.60385(5)
H10_3 H 0.4580 0.8904 0.6224
C14_3 C 0.48179(15) 0.87430(15) 0.57715(5)
H11_3 H 0.5475 0.8694 0.5785
C15_3 C 0.43900(15) 0.87053(14) 0.54966(5)
H12_3 H 0.4758 0.8645 0.5323
C16_3 C 0.33794(14) 0.87579(13) 0.54717(4)
C17_3 C 0.06082(16) 0.92945(14) 0.63835(5)
H13_3 H 0.0339 0.9683 0.6531
C18_3 C 0.10479(14) 0.80556(14) 0.61512(4)
H14_3 H 0.1164 0.7430 0.6095
O2_3 O 0.60713(11) 0.88189(11) 0.41996(3)
H15_3 H 0.6308 0.8890 0.4016
H16_3 H 0.6549 0.8736 0.4326
N7_3 N 0.65450(12) 0.63211(12) 0.49249(4)
N8_3 N 0.62295(15) 0.55119(13) 0.47902(4)
N9_3 N 0.57172(12) 0.67898(12) 0.45410(3)
N10_3 N 0.86952(12) 0.61816(11) 0.59950(4)
N11_3 N 0.89707(14) 0.53729(12) 0.61414(4)
C19_3 C 0.57415(17) 0.58316(15) 0.45596(5)
H17_3 H 0.5439 0.5436 0.4421
C20_3 C 0.62301(15) 0.70727(14) 0.47747(4)
H18_3 H 0.6351 0.7702 0.4826
C21_3 C 0.71067(14) 0.62785(13) 0.51965(4)
C22_3 C 0.80967(15) 0.62550(14) 0.51704(4)
C23_3 C 0.85843(16) 0.62901(16) 0.48881(5)
H19_3 H 0.8240 0.6322 0.4709
C24_3 C 0.95483(18) 0.6277(2) 0.48790(5)
H20_3 H 0.9858 0.6302 0.4693
C26_3 C 0.96560(16) 0.61900(16) 0.54235(5)
C27_3 C 0.86448(14) 0.62039(14) 0.54437(4)
C28_3 C 0.81576(14) 0.61682(13) 0.57178(4)
C29_3 C 0.71694(15) 0.61682(13) 0.57431(4)
C30_3 C 0.66883(15) 0.61056(14) 0.60256(4)
H23_3 H 0.7037 0.6038 0.6203
C31_3 C 0.57250(16) 0.61440(15) 0.60385(5)
H24_3 H 0.5420 0.6096 0.6224
C32_3 C 0.51821(15) 0.62570(15) 0.57715(5)
H25_3 H 0.4525 0.6306 0.5785
C33_3 C 0.56100(15) 0.62947(14) 0.54966(5)
H26_3 H 0.5242 0.6355 0.5323
C34_3 C 0.66206(14) 0.62421(13) 0.54717(4)
C35_3 C 0.93918(16) 0.57055(14) 0.63835(5)
H27_3 H 0.9661 0.5317 0.6531
C36_3 C 0.89521(14) 0.69444(14) 0.61512(4)
H28_3 H 0.8836 0.7570 0.6095
C7_3 C 0.99105(17) 0.8773(2) 0.51501(6)
H7_3 H 0.9251 0.8780 0.5140
H8_3 H 0.9981 0.8845 0.5599
N4_4 N 0.36952(12) 0.11816(11) 0.09950(4)
N5_4 N 0.39707(14) 0.03729(12) 0.11414(4)
C3_4 C 0.21067(14) 0.12785(13) 0.01965(4)
C4_4 C 0.30967(15) 0.12550(14) 0.01704(4)
C7_4 C 0.50895(17) 0.1227(2) 0.01501(6)
H7_4 H 0.5749 0.1220 0.0140
C8_4 C 0.46560(16) 0.11900(16) 0.04235(5)
H8_4 H 0.5019 0.1155 0.0599
C9_4 C 0.36448(14) 0.12039(14) 0.04437(4)
C10_4 C 0.31576(14) 0.11682(13) 0.07178(4)
C11_4 C 0.21694(15) 0.11682(13) 0.07431(4)
C12_4 C 0.16883(15) 0.11056(14) 0.10256(4)
H9_4 H 0.2037 0.1038 0.1203
C13_4 C 0.07250(16) 0.11440(15) 0.10385(5)
H10_4 H 0.0420 0.1096 0.1224
C14_4 C 0.01821(15) 0.12570(15) 0.07715(5)
C15_4 C 0.06100(15) 0.12947(14) 0.04966(5)
H12_4 H 0.0242 0.1355 0.0323
C16_4 C 0.16206(14) 0.12421(13) 0.04717(4)
C17_4 C 0.43918(16) 0.07055(14) 0.13835(5)
H13_4 H 0.4661 0.0317 0.1531
C18_4 C 0.39521(14) 0.19444(14) 0.11512(4)
H14_4 H 0.3836 0.2570 0.1095
H25_4 H 0.0475 0.3694 0.0785
O1_4 O 0.10713(11) 0.38189(11) 0.91996(3)
H1_4 H 0.1308 0.3890 0.9016
H2_4 H 0.1549 0.3736 0.9326
N1_4 N 0.15450(12) 0.13211(12) 0.99249(4)
N2_4 N 0.12295(15) 0.05119(13) 0.97902(4)
N3_4 N 0.07172(12) 0.17898(12) 0.95410(3)
C1_4 C 0.07415(17) 0.08316(15) 0.95596(5)
H3_4 H 0.0439 0.0436 0.9421
C2_4 C 0.12301(15) 0.20727(14) 0.97747(4)
H4_4 H 0.1351 0.2702 0.9826
C5_4 C 0.35843(16) 0.12901(16) 0.98881(5)
H5_4 H 0.3240 0.1322 0.9709
C6_4 C 0.45483(18) 0.1277(2) 0.98790(5)
H6_4 H 0.4858 0.1302 0.9693
H11_4 H 0.9525 0.1306 0.0785
N10_4 N 0.63048(12) 0.38184(11) 0.09950(4)
N11_4 N 0.60293(14) 0.46271(12) 0.11414(4)
C21_4 C 0.78933(14) 0.37215(13) 0.01965(4)
C22_4 C 0.69033(15) 0.37450(14) 0.01704(4)
C25_4 C 0.49105(17) 0.3773(2) 0.01501(6)
H21_4 H 0.4251 0.3780 0.0140
C26_4 C 0.53440(16) 0.38100(16) 0.04235(5)
H22_4 H 0.4981 0.3845 0.0599
C27_4 C 0.63552(14) 0.37961(14) 0.04437(4)
C28_4 C 0.68424(14) 0.38318(13) 0.07178(4)
C29_4 C 0.78306(15) 0.38318(13) 0.07431(4)
C30_4 C 0.83117(15) 0.38944(14) 0.10256(4)
H23_4 H 0.7963 0.3962 0.1203
C31_4 C 0.92750(16) 0.38560(15) 0.10385(5)
H24_4 H 0.9580 0.3904 0.1224
C32_4 C 0.98179(15) 0.37430(15) 0.07715(5)
C33_4 C 0.93900(15) 0.37053(14) 0.04966(5)
H26_4 H 0.9758 0.3645 0.0323
C34_4 C 0.83794(14) 0.37579(13) 0.04717(4)
C35_4 C 0.56082(16) 0.42945(14) 0.13835(5)
H27_4 H 0.5339 0.4683 0.1531
C36_4 C 0.60479(14) 0.30556(14) 0.11512(4)
H28_4 H 0.6164 0.2430 0.1095
O2_4 O 0.89287(11) 0.11811(11) 0.91996(3)
H15_4 H 0.8692 0.1110 0.9016
H16_4 H 0.8451 0.1264 0.9326
N7_4 N 0.84550(12) 0.36789(12) 0.99249(4)
N8_4 N 0.87705(15) 0.44881(13) 0.97902(4)
N9_4 N 0.92828(12) 0.32102(12) 0.95410(3)
C19_4 C 0.92585(17) 0.41684(15) 0.95596(5)
H17_4 H 0.9561 0.4564 0.9421
C20_4 C 0.87699(15) 0.29273(14) 0.97747(4)
H18_4 H 0.8649 0.2298 0.9826
C23_4 C 0.64157(16) 0.37099(16) 0.98881(5)
H19_4 H 0.6760 0.3678 0.9709
C24_4 C 0.54517(18) 0.3723(2) 0.98790(5)
H20_4 H 0.5142 0.3698 0.9693
N10_5 N 0.63184(11) 0.11952(12) 0.65050(4)
N11_5 N 0.71271(12) 0.14707(14) 0.63586(4)
N12_3 N 0.58262(11) 0.19003(12) 0.60997(3)
C22_5 C 0.62450(14) 0.05967(15) 0.73296(4)
C23_5 C 0.62099(16) 0.10843(16) 0.76119(5)
H19_5 H 0.6178 0.0740 0.7791
C24_5 C 0.6223(2) 0.20483(18) 0.76210(5)
H20_5 H 0.6198 0.2358 0.7807
C25_5 C 0.6273(2) 0.25895(17) 0.73499(6)
H21_5 H 0.6280 0.3249 0.7360
C26_5 C 0.63100(16) 0.21560(16) 0.70765(5)
H22_5 H 0.6345 0.2519 0.6901
C27_5 C 0.62961(14) 0.11448(14) 0.70563(4)
C28_5 C 0.63318(13) 0.06576(14) 0.67822(4)
C35_5 C 0.67945(14) 0.18918(16) 0.61165(5)
H27_5 H 0.7183 0.2161 0.5969
C36_5 C 0.55556(14) 0.14521(14) 0.63488(4)
H28_5 H 0.4930 0.1336 0.6405
Cu2_3 Cu 0.5000 0.2500 0.57809(2)
Cu1_4 Cu 0.5000 0.7500 0.82809(2)
O1_5 O 0.63189(11) 0.64287(11) 0.83004(3)
H1_5 H 0.6390 0.6192 0.8484
H2_5 H 0.6236 0.5951 0.8174
N1_5 N 0.38211(12) 0.59550(12) 0.75751(4)
N2_5 N 0.30119(13) 0.62705(15) 0.77098(4)
N3_5 N 0.42898(12) 0.67828(12) 0.79590(3)
N4_5 N 0.36816(11) 0.38048(12) 0.65050(4)
N5_5 N 0.28729(12) 0.35293(14) 0.63586(4)
N6_3 N 0.41738(11) 0.30997(12) 0.60997(3)
C1_5 C 0.33316(15) 0.67585(17) 0.79404(5)
H3_5 H 0.2936 0.7061 0.8079
C2_5 C 0.45727(14) 0.62699(15) 0.77253(4)
H4_5 H 0.5202 0.6149 0.7674
C3_5 C 0.37785(13) 0.53933(14) 0.73035(4)
C4_5 C 0.37550(14) 0.44033(15) 0.73296(4)
C5_5 C 0.37901(16) 0.39157(16) 0.76119(5)
H5_5 H 0.3822 0.4260 0.7791
C6_5 C 0.3777(2) 0.29517(18) 0.76210(5)
H6_5 H 0.3802 0.2642 0.7807
C7_5 C 0.3727(2) 0.24105(17) 0.73499(6)
H7_5 H 0.3720 0.1751 0.7360
C8_5 C 0.36900(16) 0.28440(16) 0.70765(5)
H8_5 H 0.3655 0.2481 0.6901
C9_5 C 0.37039(14) 0.38552(14) 0.70563(4)
C10_5 C 0.36682(13) 0.43424(14) 0.67822(4)
C11_5 C 0.36682(13) 0.53306(15) 0.67569(4)
C12_5 C 0.36056(14) 0.58117(15) 0.64744(4)
H9_5 H 0.3538 0.5463 0.6297
C13_5 C 0.36440(15) 0.67750(16) 0.64615(5)
H10_5 H 0.3596 0.7080 0.6276
C14_5 C 0.37570(15) 0.73179(15) 0.67285(5)
H11_5 H 0.3806 0.7975 0.6715
C15_5 C 0.37947(14) 0.68900(15) 0.70034(5)
H12_5 H 0.3855 0.7258 0.7177
C16_5 C 0.37421(13) 0.58794(14) 0.70283(4)
C17_5 C 0.32055(14) 0.31082(16) 0.61165(5)
H13_5 H 0.2817 0.2839 0.5969
C18_5 C 0.44444(14) 0.35479(14) 0.63488(4)
H14_5 H 0.5070 0.3664 0.6405
O2_5 O 0.36811(11) 0.85713(11) 0.83004(3)
H15_5 H 0.3610 0.8808 0.8484
H16_5 H 0.3764 0.9049 0.8174
N7_5 N 0.61789(12) 0.90450(12) 0.75751(4)
N8_5 N 0.69881(13) 0.87295(15) 0.77098(4)
N9_5 N 0.57102(12) 0.82172(12) 0.79590(3)
C19_5 C 0.66684(15) 0.82415(17) 0.79404(5)
H17_5 H 0.7064 0.7939 0.8079
C20_5 C 0.54273(14) 0.87301(15) 0.77253(4)
H18_5 H 0.4798 0.8851 0.7674
C21_5 C 0.62215(13) 0.96067(14) 0.73035(4)
C29_5 C 0.63318(13) 0.96694(15) 0.67569(4)
C30_5 C 0.63944(14) 0.91883(15) 0.64744(4)
H23_5 H 0.6462 0.9537 0.6297
C31_5 C 0.63560(15) 0.82250(16) 0.64615(5)
H24_5 H 0.6404 0.7920 0.6276
C32_5 C 0.62430(15) 0.76821(15) 0.67285(5)
H25_5 H 0.6194 0.7025 0.6715
C33_5 C 0.62053(14) 0.81100(15) 0.70034(5)
H26_5 H 0.6145 0.7742 0.7177
C34_5 C 0.62579(13) 0.91206(14) 0.70283(4)
N13_3 N 0.55997(12) 0.83262(11) 0.85997(3)
N14_3 N 0.44003(12) 0.66738(11) 0.85997(3)
Cu1_5 Cu -0.0000 0.2500 0.32809(2)
N1_6 N 0.11789(12) 0.40450(12) 0.25751(4)
N2_6 N 0.19881(13) 0.37295(15) 0.27098(4)
N3_6 N 0.07102(12) 0.32172(12) 0.29590(3)
N4_6 N 0.13184(11) 0.61952(12) 0.15050(4)
N5_6 N 0.21271(12) 0.64707(14) 0.13586(4)
N6_4 N 0.08262(11) 0.69003(12) 0.10997(3)
C1_6 C 0.16684(15) 0.32415(17) 0.29404(5)
H3_6 H 0.2064 0.2939 0.3079
C2_6 C 0.04273(14) 0.37301(15) 0.27253(4)
C3_6 C 0.12215(13) 0.46067(14) 0.23035(4)
C4_6 C 0.12450(14) 0.55967(15) 0.23296(4)
C5_6 C 0.12099(16) 0.60843(16) 0.26119(5)
H5_6 H 0.1178 0.5740 0.2791
C6_6 C 0.1223(2) 0.70483(18) 0.26210(5)
H6_6 H 0.1198 0.7358 0.2807
C7_6 C 0.1273(2) 0.75895(17) 0.23499(6)
H7_6 H 0.1280 0.8249 0.2360
C8_6 C 0.13100(16) 0.71560(16) 0.20765(5)
H8_6 H 0.1345 0.7519 0.1901
C9_6 C 0.12961(14) 0.61448(14) 0.20563(4)
C10_6 C 0.13318(13) 0.56576(14) 0.17822(4)
C11_6 C 0.13318(13) 0.46694(15) 0.17569(4)
C12_6 C 0.13944(14) 0.41883(15) 0.14744(4)
H9_6 H 0.1462 0.4537 0.1297
C13_6 C 0.13560(15) 0.32250(16) 0.14615(5)
H10_6 H 0.1404 0.2920 0.1276
C14_6 C 0.12430(15) 0.26821(15) 0.17285(5)
H11_6 H 0.1194 0.2025 0.1715
C15_6 C 0.12053(14) 0.31100(15) 0.20034(5)
H12_6 H 0.1145 0.2742 0.2177
C16_6 C 0.12579(13) 0.41206(14) 0.20283(4)
C17_6 C 0.17945(14) 0.68918(16) 0.11165(5)
H13_6 H 0.2183 0.7161 0.0969
C18_6 C 0.05556(14) 0.64521(14) 0.13488(4)
O2_6 O 0.13189(11) 0.14287(11) 0.33004(3)
H15_6 H 0.1390 0.1192 0.3484
H16_6 H 0.1236 0.0951 0.3174
H18_6 H 0.0202 0.1149 0.2674
Cu3_2 Cu 0.0000 0.7500 0.07809(2)
N14_4 N 0.05997(12) 0.33262(11) 0.35997(3)
H28_6 H 0.0070 0.8664 0.1405
Cu1_6 Cu 1.0000 0.2500 0.32809(2)
O1_6 O 0.86811(11) 0.35713(11) 0.33004(3)
H1_6 H 0.8610 0.3808 0.3484
H2_6 H 0.8764 0.4049 0.3174
H4_6 H 0.9798 0.3851 0.2674
H14_6 H 0.9930 0.6336 0.1405
N7_6 N 0.88211(12) 0.09550(12) 0.25751(4)
N8_6 N 0.80119(13) 0.12705(15) 0.27098(4)
N9_6 N 0.92898(12) 0.17828(12) 0.29590(3)
C19_6 C 0.83316(15) 0.17585(17) 0.29404(5)
H17_6 H 0.7936 0.2061 0.3079
C20_6 C 0.95727(14) 0.12699(15) 0.27253(4)
C21_6 C 0.87785(13) 0.03933(14) 0.23035(4)
C29_6 C 0.86682(13) 0.03306(15) 0.17569(4)
C30_6 C 0.86056(14) 0.08117(15) 0.14744(4)
H23_6 H 0.8538 0.0463 0.1297
C31_6 C 0.86440(15) 0.17750(16) 0.14615(5)
H24_6 H 0.8596 0.2080 0.1276
C32_6 C 0.87570(15) 0.23179(15) 0.17285(5)
H25_6 H 0.8806 0.2975 0.1715
C33_6 C 0.87947(14) 0.18900(15) 0.20034(5)
H26_6 H 0.8855 0.2258 0.2177
C34_6 C 0.87421(13) 0.08794(14) 0.20283(4)
Cu3_3 Cu 1.0000 0.7500 0.07809(2)
N13_4 N 0.94003(12) 0.16738(11) 0.35997(3)
N10_6 N 0.86816(11) 0.88048(12) 0.15050(4)
N11_6 N 0.78729(12) 0.85293(14) 0.13586(4)
N12_4 N 0.91738(11) 0.80997(12) 0.10997(3)
C22_6 C 0.87550(14) 0.94033(15) 0.23296(4)
C23_6 C 0.87901(16) 0.89157(16) 0.26119(5)
H19_6 H 0.8822 0.9260 0.2791
C24_6 C 0.8777(2) 0.79517(18) 0.26210(5)
H20_6 H 0.8802 0.7642 0.2807
C25_6 C 0.8727(2) 0.74105(17) 0.23499(6)
H21_6 H 0.8720 0.6751 0.2360
C26_6 C 0.86900(16) 0.78440(16) 0.20765(5)
H22_6 H 0.8655 0.7481 0.1901
C27_6 C 0.87039(14) 0.88552(14) 0.20563(4)
C28_6 C 0.86682(13) 0.93424(14) 0.17822(4)
C35_6 C 0.82055(14) 0.81082(16) 0.11165(5)
H27_6 H 0.7817 0.7839 0.0969
C36_6 C 0.94444(14) 0.85479(14) 0.13488(4)
C7_7 C 0.00895(17) 0.1227(2) 0.48499(6)
H7_7 H 0.0749 0.1220 0.4860
H8_7 H 0.0019 0.1155 0.4401
O1_7 O 0.60713(11) 0.38189(11) 0.58004(3)
H1_7 H 0.6308 0.3890 0.5984
H2_7 H 0.6549 0.3736 0.5674
N1_7 N 0.65450(12) 0.13211(12) 0.50751(4)
N2_7 N 0.62295(15) 0.05119(13) 0.52098(4)
N3_7 N 0.57172(12) 0.17898(12) 0.54590(3)
N4_7 N 0.86952(12) 0.11816(11) 0.40050(4)
N5_7 N 0.89707(14) 0.03729(12) 0.38586(4)
C1_7 C 0.57415(17) 0.08316(15) 0.54404(5)
H3_7 H 0.5439 0.0436 0.5579
C2_7 C 0.62301(15) 0.20727(14) 0.52253(4)
H4_7 H 0.6351 0.2702 0.5174
C3_7 C 0.71067(14) 0.12785(13) 0.48035(4)
C4_7 C 0.80967(15) 0.12550(14) 0.48296(4)
C5_7 C 0.85843(16) 0.12901(16) 0.51119(5)
H5_7 H 0.8240 0.1322 0.5291
C6_7 C 0.95483(18) 0.1277(2) 0.51210(5)
H6_7 H 0.9858 0.1302 0.5307
C8_7 C 0.96560(16) 0.11900(16) 0.45765(5)
C9_7 C 0.86448(14) 0.12039(14) 0.45563(4)
C10_7 C 0.81576(14) 0.11682(13) 0.42822(4)
C11_7 C 0.71694(15) 0.11682(13) 0.42569(4)
C12_7 C 0.66883(15) 0.11056(14) 0.39744(4)
H9_7 H 0.7037 0.1038 0.3797
C13_7 C 0.57250(16) 0.11440(15) 0.39615(5)
H10_7 H 0.5420 0.1096 0.3776
C14_7 C 0.51821(15) 0.12570(15) 0.42285(5)
H11_7 H 0.4525 0.1306 0.4215
C15_7 C 0.56100(15) 0.12947(14) 0.45034(5)
H12_7 H 0.5242 0.1355 0.4677
C16_7 C 0.66206(14) 0.12421(13) 0.45283(4)
C17_7 C 0.93918(16) 0.07055(14) 0.36165(5)
H13_7 H 0.9661 0.0317 0.3469
C18_7 C 0.89521(14) 0.19444(14) 0.38488(4)
H14_7 H 0.8836 0.2570 0.3905
O2_7 O 0.39287(11) 0.11811(11) 0.58004(3)
H15_7 H 0.3692 0.1110 0.5984
H16_7 H 0.3451 0.1264 0.5674
N7_7 N 0.34550(12) 0.36789(12) 0.50751(4)
N8_7 N 0.37705(15) 0.44881(13) 0.52098(4)
N9_7 N 0.42828(12) 0.32102(12) 0.54590(3)
N10_7 N 0.13048(12) 0.38184(11) 0.40050(4)
N11_7 N 0.10293(14) 0.46271(12) 0.38586(4)
C19_7 C 0.42585(17) 0.41684(15) 0.54404(5)
H17_7 H 0.4561 0.4564 0.5579
C20_7 C 0.37699(15) 0.29273(14) 0.52253(4)
H18_7 H 0.3649 0.2298 0.5174
C21_7 C 0.28933(14) 0.37215(13) 0.48035(4)
C22_7 C 0.19033(15) 0.37450(14) 0.48296(4)
C23_7 C 0.14157(16) 0.37099(16) 0.51119(5)
H19_7 H 0.1760 0.3678 0.5291
C24_7 C 0.04517(18) 0.3723(2) 0.51210(5)
H20_7 H 0.0142 0.3698 0.5307
C26_7 C 0.03440(16) 0.38100(16) 0.45765(5)
C27_7 C 0.13552(14) 0.37961(14) 0.45563(4)
C28_7 C 0.18424(14) 0.38318(13) 0.42822(4)
C29_7 C 0.28306(15) 0.38318(13) 0.42569(4)
C30_7 C 0.33117(15) 0.38944(14) 0.39744(4)
H23_7 H 0.2963 0.3962 0.3797
C31_7 C 0.42750(16) 0.38560(15) 0.39615(5)
H24_7 H 0.4580 0.3904 0.3776
C32_7 C 0.48179(15) 0.37430(15) 0.42285(5)
H25_7 H 0.5475 0.3694 0.4215
C33_7 C 0.43900(15) 0.37053(14) 0.45034(5)
H26_7 H 0.4758 0.3645 0.4677
C34_7 C 0.33794(14) 0.37579(13) 0.45283(4)
C35_7 C 0.06082(16) 0.42945(14) 0.36165(5)
H27_7 H 0.0339 0.4683 0.3469
C36_7 C 0.10479(14) 0.30556(14) 0.38488(4)
H28_7 H 0.1164 0.2430 0.3905
C25_7 C 0.99105(17) 0.3773(2) 0.48499(6)
H21_7 H 0.9251 0.3780 0.4860
H22_7 H 0.9981 0.3845 0.4401
O2_8 O 0.10713(11) 0.88189(11) 0.08004(3)
H15_8 H 0.1308 0.8890 0.0984
H16_8 H 0.1549 0.8736 0.0674
N7_8 N 0.15450(12) 0.63211(12) 0.00751(4)
N8_8 N 0.12295(15) 0.55119(13) 0.02098(4)
N9_8 N 0.07172(12) 0.67898(12) 0.04590(3)
C19_8 C 0.07415(17) 0.58316(15) 0.04404(5)
H17_8 H 0.0439 0.5436 0.0579
C20_8 C 0.12301(15) 0.70727(14) 0.02253(4)
H18_8 H 0.1351 0.7702 0.0174
C23_8 C 0.35843(16) 0.62901(16) 0.01119(5)
H19_8 H 0.3240 0.6322 0.0291
C24_8 C 0.45483(18) 0.6277(2) 0.01210(5)
H20_8 H 0.4858 0.6302 0.0307
H11_8 H 0.0475 0.8694 0.9215
N10_8 N 0.36952(12) 0.61816(11) 0.90050(4)
N11_8 N 0.39707(14) 0.53729(12) 0.88586(4)
C21_8 C 0.21067(14) 0.62785(13) 0.98035(4)
C22_8 C 0.30967(15) 0.62550(14) 0.98296(4)
C25_8 C 0.50895(17) 0.6227(2) 0.98499(6)
H21_8 H 0.5749 0.6220 0.9860
C26_8 C 0.46560(16) 0.61900(16) 0.95765(5)
H22_8 H 0.5019 0.6155 0.9401
C27_8 C 0.36448(14) 0.62039(14) 0.95563(4)
C28_8 C 0.31576(14) 0.61682(13) 0.92822(4)
C29_8 C 0.21694(15) 0.61682(13) 0.92569(4)
C30_8 C 0.16883(15) 0.61056(14) 0.89744(4)
H23_8 H 0.2037 0.6038 0.8797
C31_8 C 0.07250(16) 0.61440(15) 0.89615(5)
H24_8 H 0.0420 0.6096 0.8776
C32_8 C 0.01821(15) 0.62570(15) 0.92285(5)
C33_8 C 0.06100(15) 0.62947(14) 0.95034(5)
H26_8 H 0.0242 0.6355 0.9677
C34_8 C 0.16206(14) 0.62421(13) 0.95283(4)
C35_8 C 0.43918(16) 0.57055(14) 0.86165(5)
H27_8 H 0.4661 0.5317 0.8469
C36_8 C 0.39521(14) 0.69444(14) 0.88488(4)
H28_8 H 0.3836 0.7570 0.8905
O1_8 O 0.89287(11) 0.61811(11) 0.08004(3)
H1_8 H 0.8692 0.6110 0.0984
H2_8 H 0.8451 0.6264 0.0674
N1_8 N 0.84550(12) 0.86789(12) 0.00751(4)
N2_8 N 0.87705(15) 0.94881(13) 0.02098(4)
N3_8 N 0.92828(12) 0.82102(12) 0.04590(3)
C1_8 C 0.92585(17) 0.91684(15) 0.04404(5)
H3_8 H 0.9561 0.9564 0.0579
C2_8 C 0.87699(15) 0.79273(14) 0.02253(4)
H4_8 H 0.8649 0.7298 0.0174
C5_8 C 0.64157(16) 0.87099(16) 0.01119(5)
H5_8 H 0.6760 0.8678 0.0291
C6_8 C 0.54517(18) 0.8723(2) 0.01210(5)
H6_8 H 0.5142 0.8698 0.0307
N4_8 N 0.63048(12) 0.88184(11) 0.90050(4)
N5_8 N 0.60293(14) 0.96271(12) 0.88586(4)
C3_8 C 0.78933(14) 0.87215(13) 0.98035(4)
C4_8 C 0.69033(15) 0.87450(14) 0.98296(4)
C7_8 C 0.49105(17) 0.8773(2) 0.98499(6)
H7_8 H 0.4251 0.8780 0.9860
C8_8 C 0.53440(16) 0.88100(16) 0.95765(5)
H8_8 H 0.4981 0.8845 0.9401
C9_8 C 0.63552(14) 0.87961(14) 0.95563(4)
C10_8 C 0.68424(14) 0.88318(13) 0.92822(4)
C11_8 C 0.78306(15) 0.88318(13) 0.92569(4)
C12_8 C 0.83117(15) 0.88944(14) 0.89744(4)
H9_8 H 0.7963 0.8962 0.8797
C13_8 C 0.92750(16) 0.88560(15) 0.89615(5)
H10_8 H 0.9580 0.8904 0.8776
C14_8 C 0.98179(15) 0.87430(15) 0.92285(5)
C15_8 C 0.93900(15) 0.87053(14) 0.95034(5)
H12_8 H 0.9758 0.8645 0.9677
C16_8 C 0.83794(14) 0.87579(13) 0.95283(4)
C17_8 C 0.56082(16) 0.92945(14) 0.86165(5)
H13_8 H 0.5339 0.9683 0.8469
C18_8 C 0.60479(14) 0.80556(14) 0.88488(4)
H14_8 H 0.6164 0.7430 0.8905
H25_8 H 0.9525 0.6306 0.9215
O3 O 0.40681(14) 0.52145(19) 0.32783(5)
O4 O 0.32575(14) 0.61164(14) 0.35703(4)
O5 O 0.25507(15) 0.5155(2) 0.32703(5)
N15 N 0.32931(15) 0.54949(17) 0.33704(5)
O3_2 O 0.09319(14) 0.47855(19) 0.82783(5)
O4_2 O 0.17425(14) 0.38836(14) 0.85703(4)
O5_2 O 0.24493(15) 0.4845(2) 0.82703(5)
N15_2 N 0.17069(15) 0.45051(17) 0.83704(5)
O3_3 O 0.22855(19) 0.65681(14) 0.57783(5)
O4_3 O 0.13836(14) 0.57575(14) 0.60703(4)
O5_3 O 0.2345(2) 0.50507(15) 0.57703(5)
N15_3 N 0.20051(17) 0.57931(15) 0.58704(5)
O3_4 O 0.27145(19) 0.34319(14) 0.07783(5)
O4_4 O 0.36164(14) 0.42425(14) 0.10703(4)
O5_4 O 0.2655(2) 0.49493(15) 0.07703(5)
N15_4 N 0.29949(17) 0.42069(15) 0.08704(5)
O3_5 O 0.90681(14) 0.02145(19) 0.82783(5)
O4_5 O 0.82575(14) 0.11164(14) 0.85703(4)
O5_5 O 0.75507(15) 0.0155(2) 0.82703(5)
N15_5 N 0.82931(15) 0.04949(17) 0.83704(5)
O3_6 O 0.59319(14) 0.97855(19) 0.32783(5)
O4_6 O 0.67425(14) 0.88836(14) 0.35703(4)
O5_6 O 0.74493(15) 0.9845(2) 0.32703(5)
N15_6 N 0.67069(15) 0.95051(17) 0.33704(5)
O3_7 O 0.72855(19) 0.15681(14) 0.07783(5)
O4_7 O 0.63836(14) 0.07575(14) 0.10703(4)
O5_7 O 0.7345(2) 0.00507(15) 0.07703(5)
N15_7 N 0.70051(17) 0.07931(15) 0.08704(5)
O3_8 O 0.77145(19) 0.84319(14) 0.57783(5)
O4_8 O 0.86164(14) 0.92425(14) 0.60703(4)
O5_8 O 0.7655(2) 0.99493(15) 0.57703(5)
N15_8 N 0.79949(17) 0.92069(15) 0.58704(5)
O3_9 O 0.59319(14) 0.47855(19) 0.67217(5)
O4_9 O 0.67425(14) 0.38836(14) 0.64297(4)
O5_9 O 0.74493(15) 0.4845(2) 0.67297(5)
N15_9 N 0.67069(15) 0.45051(17) 0.66296(5)
O3_10 O 0.90681(14) 0.52145(19) 0.17217(5)
O4_10 O 0.82575(14) 0.61164(14) 0.14297(4)
O5_10 O 0.75507(15) 0.5155(2) 0.17297(5)
N15_10 N 0.82931(15) 0.54949(17) 0.16296(5)
O3_11 O 0.77145(19) 0.34319(14) 0.42217(5)
O4_11 O 0.86164(14) 0.42425(14) 0.39297(4)
O5_11 O 0.7655(2) 0.49493(15) 0.42297(5)
N15_11 N 0.79949(17) 0.42069(15) 0.41296(5)
O3_12 O 0.72855(19) 0.65681(14) 0.92217(5)
O4_12 O 0.63836(14) 0.57575(14) 0.89297(4)
O5_12 O 0.7345(2) 0.50507(15) 0.92297(5)
N15_12 N 0.70051(17) 0.57931(15) 0.91296(5)
O3_13 O 0.09319(14) 0.97855(19) 0.17217(5)
O4_13 O 0.17425(14) 0.88836(14) 0.14297(4)
O5_13 O 0.24493(15) 0.9845(2) 0.17297(5)
N15_13 N 0.17069(15) 0.95051(17) 0.16296(5)
O3_14 O 0.40681(14) 0.02145(19) 0.67217(5)
O4_14 O 0.32575(14) 0.11164(14) 0.64297(4)
O5_14 O 0.25507(15) 0.0155(2) 0.67297(5)
N15_14 N 0.32931(15) 0.04949(17) 0.66296(5)
O3_15 O 0.27145(19) 0.84319(14) 0.92217(5)
O4_15 O 0.36164(14) 0.92425(14) 0.89297(4)
O5_15 O 0.2655(2) 0.99493(15) 0.92297(5)
N15_15 N 0.29949(17) 0.92069(15) 0.91296(5)
O3_16 O 0.22855(19) 0.15681(14) 0.42217(5)
O4_16 O 0.13836(14) 0.07575(14) 0.39297(4)
O5_16 O 0.2345(2) 0.00507(15) 0.42297(5)
N15_16 N 0.20051(17) 0.07931(15) 0.41296(5)
loop_
_geom_bond_atom_site_label_1
_geom_bond_atom_site_label_2
_geom_bond_site_symmetry_1
_geom_bond_site_symmetry_2
Cu1 O1 1_555 1_555
O1 H1 1_555 1_555
H2 O1 1_555 1_555
N1 N2 1_555 1_555
N2 C1 1_555 1_555
N3 Cu1 1_555 1_555
N4 N5 1_555 1_555
N5 C17 1_555 1_555
N6 C17 1_555 1_555
C1 N3 1_555 1_555
H3 C1 1_555 1_555
C2 N1 1_555 1_555
H4 C2 1_555 1_555
C3 N1 1_555 1_555
C4 C3 1_555 1_555
C5 C4 1_555 1_555
H5 C5 1_555 1_555
C6 C5 1_555 1_555
H6 C6 1_555 1_555
C7 C6 1_555 1_555
H7 C7 1_555 1_555
C8 C7 1_555 1_555
H8 C8 1_555 1_555
C9 C4 1_555 1_555
C10 N4 1_555 1_555
C11 C10 1_555 1_555
C12 C11 1_555 1_555
H9 C12 1_555 1_555
C13 C12 1_555 1_555
H10 C13 1_555 1_555
C14 C13 1_555 1_555
H11 C14 1_555 1_555
C15 C14 1_555 1_555
H12 C15 1_555 1_555
C16 C3 1_555 1_555
C17 H13 1_555 1_555
C18 N4 1_555 1_555
H14 C18 1_555 1_555
O2 Cu1 1_555 1_555
H15 O2 1_555 1_555
H16 O2 1_555 1_555
N7 N8 1_555 1_555
N8 C19 1_555 1_555
N9 Cu1 1_555 1_555
C19 N9 1_555 1_555
H17 C19 1_555 1_555
C20 N7 1_555 1_555
H18 C20 1_555 1_555
C21 N7 1_555 1_555
C30 C29 1_555 1_555
H23 C30 1_555 1_555
C31 C30 1_555 1_555
H24 C31 1_555 1_555
C32 C31 1_555 1_555
H25 C32 1_555 1_555
C33 C32 1_555 1_555
H26 C33 1_555 1_555
C34 C21 1_555 1_555
Cu3 N6 1_555 1_555
N13 Cu1 1_555 1_555
N14 Cu1 1_555 1_555
N3 C2 1_555 1_555
N6 C18 1_555 1_555
C8 C9 1_555 1_555
C9 C10 1_555 1_555
C11 C16 1_555 1_555
C15 C16 1_555 1_555
N9 C20 1_555 1_555
C29 C34 1_555 1_555
C33 C34 1_555 1_555
N10 N11 1_555 1_555
N11 C35 1_555 1_555
N12 C35 1_555 1_555
C23 C22 1_555 1_555
H19 C23 1_555 1_555
C24 C23 1_555 1_555
H20 C24 1_555 1_555
C25 C24 1_555 1_555
H21 C25 1_555 1_555
C26 C25 1_555 1_555
H22 C26 1_555 1_555
C27 C22 1_555 1_555
C28 N10 1_555 1_555
C35 H27 1_555 1_555
C36 N10 1_555 1_555
H28 C36 1_555 1_555
Cu3 N12 1_555 1_555
N12 C36 1_555 1_555
C26 C27 1_555 1_555
C27 C28 1_555 1_555
N10_2 N11_2 1_555 1_555
N11_2 C35_2 1_555 1_555
N12_2 C35_2 1_555 1_555
C23_2 C22_2 1_555 1_555
H19_2 C23_2 1_555 1_555
C24_2 C23_2 1_555 1_555
H20_2 C24_2 1_555 1_555
C25_2 C24_2 1_555 1_555
H21_2 C25_2 1_555 1_555
C26_2 C25_2 1_555 1_555
H22_2 C26_2 1_555 1_555
C27_2 C22_2 1_555 1_555
C28_2 N10_2 1_555 1_555
C35_2 H27_2 1_555 1_555
C36_2 N10_2 1_555 1_555
Cu2 N12_2 1_555 1_555
N12_2 C36_2 1_555 1_555
C26_2 C27_2 1_555 1_555
C27_2 C28_2 1_555 1_555
Cu1_2 O1_2 1_555 1_555
O1_2 H1_2 1_555 1_555
H2_2 O1_2 1_555 1_555
N7_2 N8_2 1_555 1_555
N8_2 C19_2 1_555 1_555
N9_2 Cu1_2 1_555 1_555
C19_2 N9_2 1_555 1_555
H17_2 C19_2 1_555 1_555
C20_2 N7_2 1_555 1_555
C21_2 N7_2 1_555 1_555
C30_2 C29_2 1_555 1_555
H23_2 C30_2 1_555 1_555
C31_2 C30_2 1_555 1_555
H24_2 C31_2 1_555 1_555
C32_2 C31_2 1_555 1_555
H25_2 C32_2 1_555 1_555
C33_2 C32_2 1_555 1_555
H26_2 C33_2 1_555 1_555
C34_2 C21_2 1_555 1_555
N13_2 Cu1_2 1_555 1_555
N9_2 C20_2 1_555 1_555
C29_2 C34_2 1_555 1_555
C33_2 C34_2 1_555 1_555
N1_2 N2_2 1_555 1_555
N2_2 C1_2 1_555 1_555
N3_2 Cu1_3 1_555 1_555
N4_2 N5_2 1_555 1_555
N5_2 C17_2 1_555 1_555
N6_2 C17_2 1_555 1_555
C1_2 N3_2 1_555 1_555
H3_2 C1_2 1_555 1_555
C2_2 N1_2 1_555 1_555
C3_2 N1_2 1_555 1_555
C4_2 C3_2 1_555 1_555
C5_2 C4_2 1_555 1_555
H5_2 C5_2 1_555 1_555
C6_2 C5_2 1_555 1_555
H6_2 C6_2 1_555 1_555
C7_2 C6_2 1_555 1_555
H7_2 C7_2 1_555 1_555
C8_2 C7_2 1_555 1_555
H8_2 C8_2 1_555 1_555
C9_2 C4_2 1_555 1_555
C10_2 N4_2 1_555 1_555
C11_2 C10_2 1_555 1_555
C12_2 C11_2 1_555 1_555
H9_2 C12_2 1_555 1_555
C13_2 C12_2 1_555 1_555
H10_2 C13_2 1_555 1_555
C14_2 C13_2 1_555 1_555
H11_2 C14_2 1_555 1_555
C15_2 C14_2 1_555 1_555
H12_2 C15_2 1_555 1_555
C16_2 C3_2 1_555 1_555
C17_2 H13_2 1_555 1_555
C18_2 N4_2 1_555 1_555
O2_2 Cu1_3 1_555 1_555
H15_2 O2_2 1_555 1_555
H16_2 O2_2 1_555 1_555
Cu2_2 N6_2 1_555 1_555
N14_2 Cu1_3 1_555 1_555
N3_2 C2_2 1_555 1_555
N6_2 C18_2 1_555 1_555
C8_2 C9_2 1_555 1_555
C9_2 C10_2 1_555 1_555
C11_2 C16_2 1_555 1_555
C15_2 C16_2 1_555 1_555
H21_3 C25_3 1_555 1_555
Cu3 O1_3 1_555 1_555
O1_3 H1_3 1_555 1_555
H2_3 O1_3 1_555 1_555
N1_3 N2_3 1_555 1_555
N2_3 C1_3 1_555 1_555
N3_3 Cu3 1_555 1_555
N4_3 N5_3 1_555 1_555
N5_3 C17_3 1_555 1_555
N13_2 C17_3 1_555 1_555
C1_3 N3_3 1_555 1_555
H3_3 C1_3 1_555 1_555
C2_3 N1_3 1_555 1_555
H4_3 C2_3 1_555 1_555
C3_3 N1_3 1_555 1_555
C4_3 C3_3 1_555 1_555
C5_3 C4_3 1_555 1_555
H5_3 C5_3 1_555 1_555
C6_3 C5_3 1_555 1_555
H6_3 C6_3 1_555 1_555
C9_3 C4_3 1_555 1_555
C10_3 N4_3 1_555 1_555
C11_3 C10_3 1_555 1_555
C12_3 C11_3 1_555 1_555
H9_3 C12_3 1_555 1_555
C13_3 C12_3 1_555 1_555
H10_3 C13_3 1_555 1_555
C14_3 C13_3 1_555 1_555
H11_3 C14_3 1_555 1_555
C15_3 C14_3 1_555 1_555
H12_3 C15_3 1_555 1_555
C16_3 C3_3 1_555 1_555
C17_3 H13_3 1_555 1_555
C18_3 N4_3 1_555 1_555
H14_3 C18_3 1_555 1_555
O2_3 Cu3 1_555 1_555
H15_3 O2_3 1_555 1_555
H16_3 O2_3 1_555 1_555
N7_3 N8_3 1_555 1_555
N8_3 C19_3 1_555 1_555
N9_3 Cu3 1_555 1_555
N10_3 N11_3 1_555 1_555
N11_3 C35_3 1_555 1_555
N14_2 C35_3 1_555 1_555
C19_3 N9_3 1_555 1_555
H17_3 C19_3 1_555 1_555
C20_3 N7_3 1_555 1_555
H18_3 C20_3 1_555 1_555
C21_3 N7_3 1_555 1_555
C22_3 C21_3 1_555 1_555
C23_3 C22_3 1_555 1_555
H19_3 C23_3 1_555 1_555
C24_3 C23_3 1_555 1_555
H20_3 C24_3 1_555 1_555
C27_3 C22_3 1_555 1_555
C28_3 N10_3 1_555 1_555
C29_3 C28_3 1_555 1_555
C30_3 C29_3 1_555 1_555
H23_3 C30_3 1_555 1_555
C31_3 C30_3 1_555 1_555
H24_3 C31_3 1_555 1_555
C32_3 C31_3 1_555 1_555
H25_3 C32_3 1_555 1_555
C33_3 C32_3 1_555 1_555
H26_3 C33_3 1_555 1_555
C34_3 C21_3 1_555 1_555
C35_3 H27_3 1_555 1_555
C36_3 N10_3 1_555 1_555
H28_3 C36_3 1_555 1_555
N3_3 C2_3 1_555 1_555
N13_2 C18_3 1_555 1_555
C8_3 C9_3 1_555 1_555
C9_3 C10_3 1_555 1_555
C11_3 C16_3 1_555 1_555
C15_3 C16_3 1_555 1_555
N9_3 C20_3 1_555 1_555
N14_2 C36_3 1_555 1_555
C26_3 C27_3 1_555 1_555
C27_3 C28_3 1_555 1_555
C29_3 C34_3 1_555 1_555
C33_3 C34_3 1_555 1_555
H7_3 C7_3 1_555 1_555
N4_4 N5_4 1_555 1_555
N5_4 C17_4 1_555 1_555
N13 C17_4 1_555 1_555
C4_4 C3_4 1_555 1_555
H7_4 C7_4 1_555 1_555
C8_4 C7_4 1_555 1_555
H8_4 C8_4 1_555 1_555
C9_4 C4_4 1_555 1_555
C10_4 N4_4 1_555 1_555
C11_4 C10_4 1_555 1_555
C12_4 C11_4 1_555 1_555
H9_4 C12_4 1_555 1_555
C13_4 C12_4 1_555 1_555
H10_4 C13_4 1_555 1_555
C14_4 C13_4 1_555 1_555
C15_4 C14_4 1_555 1_555
H12_4 C15_4 1_555 1_555
C16_4 C3_4 1_555 1_555
C17_4 H13_4 1_555 1_555
C18_4 N4_4 1_555 1_555
H14_4 C18_4 1_555 1_555
N13 C18_4 1_555 1_555
C8_4 C9_4 1_555 1_555
C9_4 C10_4 1_555 1_555
C11_4 C16_4 1_555 1_555
C15_4 C16_4 1_555 1_555
Cu2 O1_4 1_555 1_555
O1_4 H1_4 1_555 1_555
H2_4 O1_4 1_555 1_555
N1_4 N2_4 1_555 1_555
N2_4 C1_4 1_555 1_555
N3_4 Cu2 1_555 1_555
C1_4 N3_4 1_555 1_555
H3_4 C1_4 1_555 1_555
C2_4 N1_4 1_555 1_555
H4_4 C2_4 1_555 1_555
H5_4 C5_4 1_555 1_555
C6_4 C5_4 1_555 1_555
H6_4 C6_4 1_555 1_555
N3_4 C2_4 1_555 1_555
N10_4 N11_4 1_555 1_555
N11_4 C35_4 1_555 1_555
N14 C35_4 1_555 1_555
C22_4 C21_4 1_555 1_555
H21_4 C25_4 1_555 1_555
C26_4 C25_4 1_555 1_555
H22_4 C26_4 1_555 1_555
C27_4 C22_4 1_555 1_555
C28_4 N10_4 1_555 1_555
C29_4 C28_4 1_555 1_555
C30_4 C29_4 1_555 1_555
H23_4 C30_4 1_555 1_555
C31_4 C30_4 1_555 1_555
H24_4 C31_4 1_555 1_555
C32_4 C31_4 1_555 1_555
C33_4 C32_4 1_555 1_555
H26_4 C33_4 1_555 1_555
C34_4 C21_4 1_555 1_555
C35_4 H27_4 1_555 1_555
C36_4 N10_4 1_555 1_555
H28_4 C36_4 1_555 1_555
N14 C36_4 1_555 1_555
C26_4 C27_4 1_555 1_555
C27_4 C28_4 1_555 1_555
C29_4 C34_4 1_555 1_555
C33_4 C34_4 1_555 1_555
O2_4 Cu2_2 1_555 1_555
H15_4 O2_4 1_555 1_555
H16_4 O2_4 1_555 1_555
N7_4 N8_4 1_555 1_555
N8_4 C19_4 1_555 1_555
N9_4 Cu2_2 1_555 1_555
C19_4 N9_4 1_555 1_555
H17_4 C19_4 1_555 1_555
C20_4 N7_4 1_555 1_555
H18_4 C20_4 1_555 1_555
H19_4 C23_4 1_555 1_555
C24_4 C23_4 1_555 1_555
H20_4 C24_4 1_555 1_555
N9_4 C20_4 1_555 1_555
N10_5 N11_5 1_555 1_555
N11_5 C35_5 1_555 1_555
N12_3 C35_5 1_555 1_555
C23_5 C22_5 1_555 1_555
H19_5 C23_5 1_555 1_555
C24_5 C23_5 1_555 1_555
H20_5 C24_5 1_555 1_555
C25_5 C24_5 1_555 1_555
H21_5 C25_5 1_555 1_555
C26_5 C25_5 1_555 1_555
H22_5 C26_5 1_555 1_555
C27_5 C22_5 1_555 1_555
C28_5 N10_5 1_555 1_555
C35_5 H27_5 1_555 1_555
C36_5 N10_5 1_555 1_555
H28_5 C36_5 1_555 1_555
Cu2_3 N12_3 1_555 1_555
N12_3 C36_5 1_555 1_555
C26_5 C27_5 1_555 1_555
C27_5 C28_5 1_555 1_555
Cu1_4 O1_5 1_555 1_555
O1_5 H1_5 1_555 1_555
H2_5 O1_5 1_555 1_555
N1_5 N2_5 1_555 1_555
N2_5 C1_5 1_555 1_555
N3_5 Cu1_4 1_555 1_555
N4_5 N5_5 1_555 1_555
N5_5 C17_5 1_555 1_555
N6_3 C17_5 1_555 1_555
C1_5 N3_5 1_555 1_555
H3_5 C1_5 1_555 1_555
C2_5 N1_5 1_555 1_555
H4_5 C2_5 1_555 1_555
C3_5 N1_5 1_555 1_555
C4_5 C3_5 1_555 1_555
C5_5 C4_5 1_555 1_555
H5_5 C5_5 1_555 1_555
C6_5 C5_5 1_555 1_555
H6_5 C6_5 1_555 1_555
C7_5 C6_5 1_555 1_555
H7_5 C7_5 1_555 1_555
C8_5 C7_5 1_555 1_555
H8_5 C8_5 1_555 1_555
C9_5 C4_5 1_555 1_555
C10_5 N4_5 1_555 1_555
C11_5 C10_5 1_555 1_555
C12_5 C11_5 1_555 1_555
H9_5 C12_5 1_555 1_555
C13_5 C12_5 1_555 1_555
H10_5 C13_5 1_555 1_555
C14_5 C13_5 1_555 1_555
H11_5 C14_5 1_555 1_555
C15_5 C14_5 1_555 1_555
H12_5 C15_5 1_555 1_555
C16_5 C3_5 1_555 1_555
C17_5 H13_5 1_555 1_555
C18_5 N4_5 1_555 1_555
H14_5 C18_5 1_555 1_555
O2_5 Cu1_4 1_555 1_555
H15_5 O2_5 1_555 1_555
H16_5 O2_5 1_555 1_555
N7_5 N8_5 1_555 1_555
N8_5 C19_5 1_555 1_555
N9_5 Cu1_4 1_555 1_555
C19_5 N9_5 1_555 1_555
H17_5 C19_5 1_555 1_555
C20_5 N7_5 1_555 1_555
H18_5 C20_5 1_555 1_555
C21_5 N7_5 1_555 1_555
C30_5 C29_5 1_555 1_555
H23_5 C30_5 1_555 1_555
C31_5 C30_5 1_555 1_555
H24_5 C31_5 1_555 1_555
C32_5 C31_5 1_555 1_555
H25_5 C32_5 1_555 1_555
C33_5 C32_5 1_555 1_555
H26_5 C33_5 1_555 1_555
C34_5 C21_5 1_555 1_555
Cu2_3 N6_3 1_555 1_555
N13_3 Cu1_4 1_555 1_555
N14_3 Cu1_4 1_555 1_555
N3_5 C2_5 1_555 1_555
N6_3 C18_5 1_555 1_555
C8_5 C9_5 1_555 1_555
C9_5 C10_5 1_555 1_555
C11_5 C16_5 1_555 1_555
C15_5 C16_5 1_555 1_555
N9_5 C20_5 1_555 1_555
C29_5 C34_5 1_555 1_555
C33_5 C34_5 1_555 1_555
N1_6 N2_6 1_555 1_555
N2_6 C1_6 1_555 1_555
N3_6 Cu1_5 1_555 1_555
N4_6 N5_6 1_555 1_555
N5_6 C17_6 1_555 1_555
N6_4 C17_6 1_555 1_555
C1_6 N3_6 1_555 1_555
H3_6 C1_6 1_555 1_555
C2_6 N1_6 1_555 1_555
C3_6 N1_6 1_555 1_555
C4_6 C3_6 1_555 1_555
C5_6 C4_6 1_555 1_555
H5_6 C5_6 1_555 1_555
C6_6 C5_6 1_555 1_555
H6_6 C6_6 1_555 1_555
C7_6 C6_6 1_555 1_555
H7_6 C7_6 1_555 1_555
C8_6 C7_6 1_555 1_555
H8_6 C8_6 1_555 1_555
C9_6 C4_6 1_555 1_555
C10_6 N4_6 1_555 1_555
C11_6 C10_6 1_555 1_555
C12_6 C11_6 1_555 1_555
H9_6 C12_6 1_555 1_555
C13_6 C12_6 1_555 1_555
H10_6 C13_6 1_555 1_555
C14_6 C13_6 1_555 1_555
H11_6 C14_6 1_555 1_555
C15_6 C14_6 1_555 1_555
H12_6 C15_6 1_555 1_555
C16_6 C3_6 1_555 1_555
C17_6 H13_6 1_555 1_555
C18_6 N4_6 1_555 1_555
O2_6 Cu1_5 1_555 1_555
H15_6 O2_6 1_555 1_555
H16_6 O2_6 1_555 1_555
Cu3_2 N6_4 1_555 1_555
N14_4 Cu1_5 1_555 1_555
N3_6 C2_6 1_555 1_555
N6_4 C18_6 1_555 1_555
C8_6 C9_6 1_555 1_555
C9_6 C10_6 1_555 1_555
C11_6 C16_6 1_555 1_555
C15_6 C16_6 1_555 1_555
Cu1_6 O1_6 1_555 1_555
O1_6 H1_6 1_555 1_555
H2_6 O1_6 1_555 1_555
N7_6 N8_6 1_555 1_555
N8_6 C19_6 1_555 1_555
N9_6 Cu1_6 1_555 1_555
C19_6 N9_6 1_555 1_555
H17_6 C19_6 1_555 1_555
C20_6 N7_6 1_555 1_555
C21_6 N7_6 1_555 1_555
C30_6 C29_6 1_555 1_555
H23_6 C30_6 1_555 1_555
C31_6 C30_6 1_555 1_555
H24_6 C31_6 1_555 1_555
C32_6 C31_6 1_555 1_555
H25_6 C32_6 1_555 1_555
C33_6 C32_6 1_555 1_555
H26_6 C33_6 1_555 1_555
C34_6 C21_6 1_555 1_555
N13_4 Cu1_6 1_555 1_555
N9_6 C20_6 1_555 1_555
C29_6 C34_6 1_555 1_555
C33_6 C34_6 1_555 1_555
N10_6 N11_6 1_555 1_555
N11_6 C35_6 1_555 1_555
N12_4 C35_6 1_555 1_555
C23_6 C22_6 1_555 1_555
H19_6 C23_6 1_555 1_555
C24_6 C23_6 1_555 1_555
H20_6 C24_6 1_555 1_555
C25_6 C24_6 1_555 1_555
H21_6 C25_6 1_555 1_555
C26_6 C25_6 1_555 1_555
H22_6 C26_6 1_555 1_555
C27_6 C22_6 1_555 1_555
C28_6 N10_6 1_555 1_555
C35_6 H27_6 1_555 1_555
C36_6 N10_6 1_555 1_555
Cu3_3 N12_4 1_555 1_555
N12_4 C36_6 1_555 1_555
C26_6 C27_6 1_555 1_555
C27_6 C28_6 1_555 1_555
H7_7 C7_7 1_555 1_555
Cu2_3 O1_7 1_555 1_555
O1_7 H1_7 1_555 1_555
H2_7 O1_7 1_555 1_555
N1_7 N2_7 1_555 1_555
N2_7 C1_7 1_555 1_555
N3_7 Cu2_3 1_555 1_555
N4_7 N5_7 1_555 1_555
N5_7 C17_7 1_555 1_555
N13_4 C17_7 1_555 1_555
C1_7 N3_7 1_555 1_555
H3_7 C1_7 1_555 1_555
C2_7 N1_7 1_555 1_555
H4_7 C2_7 1_555 1_555
C3_7 N1_7 1_555 1_555
C4_7 C3_7 1_555 1_555
C5_7 C4_7 1_555 1_555
H5_7 C5_7 1_555 1_555
C6_7 C5_7 1_555 1_555
H6_7 C6_7 1_555 1_555
C9_7 C4_7 1_555 1_555
C10_7 N4_7 1_555 1_555
C11_7 C10_7 1_555 1_555
C12_7 C11_7 1_555 1_555
H9_7 C12_7 1_555 1_555
C13_7 C12_7 1_555 1_555
H10_7 C13_7 1_555 1_555
C14_7 C13_7 1_555 1_555
H11_7 C14_7 1_555 1_555
C15_7 C14_7 1_555 1_555
H12_7 C15_7 1_555 1_555
C16_7 C3_7 1_555 1_555
C17_7 H13_7 1_555 1_555
C18_7 N4_7 1_555 1_555
H14_7 C18_7 1_555 1_555
O2_7 Cu2_3 1_555 1_555
H15_7 O2_7 1_555 1_555
H16_7 O2_7 1_555 1_555
N7_7 N8_7 1_555 1_555
N8_7 C19_7 1_555 1_555
N9_7 Cu2_3 1_555 1_555
N10_7 N11_7 1_555 1_555
N11_7 C35_7 1_555 1_555
N14_4 C35_7 1_555 1_555
C19_7 N9_7 1_555 1_555
H17_7 C19_7 1_555 1_555
C20_7 N7_7 1_555 1_555
H18_7 C20_7 1_555 1_555
C21_7 N7_7 1_555 1_555
C22_7 C21_7 1_555 1_555
C23_7 C22_7 1_555 1_555
H19_7 C23_7 1_555 1_555
C24_7 C23_7 1_555 1_555
H20_7 C24_7 1_555 1_555
C27_7 C22_7 1_555 1_555
C28_7 N10_7 1_555 1_555
C29_7 C28_7 1_555 1_555
C30_7 C29_7 1_555 1_555
H23_7 C30_7 1_555 1_555
C31_7 C30_7 1_555 1_555
H24_7 C31_7 1_555 1_555
C32_7 C31_7 1_555 1_555
H25_7 C32_7 1_555 1_555
C33_7 C32_7 1_555 1_555
H26_7 C33_7 1_555 1_555
C34_7 C21_7 1_555 1_555
C35_7 H27_7 1_555 1_555
C36_7 N10_7 1_555 1_555
H28_7 C36_7 1_555 1_555
N3_7 C2_7 1_555 1_555
N13_4 C18_7 1_555 1_555
C8_7 C9_7 1_555 1_555
C9_7 C10_7 1_555 1_555
C11_7 C16_7 1_555 1_555
C15_7 C16_7 1_555 1_555
N9_7 C20_7 1_555 1_555
N14_4 C36_7 1_555 1_555
C26_7 C27_7 1_555 1_555
C27_7 C28_7 1_555 1_555
C29_7 C34_7 1_555 1_555
C33_7 C34_7 1_555 1_555
H21_7 C25_7 1_555 1_555
O2_8 Cu3_2 1_555 1_555
H15_8 O2_8 1_555 1_555
H16_8 O2_8 1_555 1_555
N7_8 N8_8 1_555 1_555
N8_8 C19_8 1_555 1_555
N9_8 Cu3_2 1_555 1_555
C19_8 N9_8 1_555 1_555
H17_8 C19_8 1_555 1_555
C20_8 N7_8 1_555 1_555
H18_8 C20_8 1_555 1_555
H19_8 C23_8 1_555 1_555
C24_8 C23_8 1_555 1_555
H20_8 C24_8 1_555 1_555
N9_8 C20_8 1_555 1_555
N10_8 N11_8 1_555 1_555
N11_8 C35_8 1_555 1_555
N14_3 C35_8 1_555 1_555
C22_8 C21_8 1_555 1_555
H21_8 C25_8 1_555 1_555
C26_8 C25_8 1_555 1_555
H22_8 C26_8 1_555 1_555
C27_8 C22_8 1_555 1_555
C28_8 N10_8 1_555 1_555
C29_8 C28_8 1_555 1_555
C30_8 C29_8 1_555 1_555
H23_8 C30_8 1_555 1_555
C31_8 C30_8 1_555 1_555
H24_8 C31_8 1_555 1_555
C32_8 C31_8 1_555 1_555
C33_8 C32_8 1_555 1_555
H26_8 C33_8 1_555 1_555
C34_8 C21_8 1_555 1_555
C35_8 H27_8 1_555 1_555
C36_8 N10_8 1_555 1_555
H28_8 C36_8 1_555 1_555
N14_3 C36_8 1_555 1_555
C26_8 C27_8 1_555 1_555
C27_8 C28_8 1_555 1_555
C29_8 C34_8 1_555 1_555
C33_8 C34_8 1_555 1_555
Cu3_3 O1_8 1_555 1_555
O1_8 H1_8 1_555 1_555
H2_8 O1_8 1_555 1_555
N1_8 N2_8 1_555 1_555
N2_8 C1_8 1_555 1_555
N3_8 Cu3_3 1_555 1_555
C1_8 N3_8 1_555 1_555
H3_8 C1_8 1_555 1_555
C2_8 N1_8 1_555 1_555
H4_8 C2_8 1_555 1_555
H5_8 C5_8 1_555 1_555
C6_8 C5_8 1_555 1_555
H6_8 C6_8 1_555 1_555
N3_8 C2_8 1_555 1_555
N4_8 N5_8 1_555 1_555
N5_8 C17_8 1_555 1_555
N13_3 C17_8 1_555 1_555
C4_8 C3_8 1_555 1_555
H7_8 C7_8 1_555 1_555
C8_8 C7_8 1_555 1_555
H8_8 C8_8 1_555 1_555
C9_8 C4_8 1_555 1_555
C10_8 N4_8 1_555 1_555
C11_8 C10_8 1_555 1_555
C12_8 C11_8 1_555 1_555
H9_8 C12_8 1_555 1_555
C13_8 C12_8 1_555 1_555
H10_8 C13_8 1_555 1_555
C14_8 C13_8 1_555 1_555
C15_8 C14_8 1_555 1_555
H12_8 C15_8 1_555 1_555
C16_8 C3_8 1_555 1_555
C17_8 H13_8 1_555 1_555
C18_8 N4_8 1_555 1_555
H14_8 C18_8 1_555 1_555
N13_3 C18_8 1_555 1_555
C8_8 C9_8 1_555 1_555
C9_8 C10_8 1_555 1_555
C11_8 C16_8 1_555 1_555
C15_8 C16_8 1_555 1_555
O3 N15 1_555 1_555
O4 N15 1_555 1_555
O5 N15 1_555 1_555
O3_2 N15_2 1_555 1_555
O4_2 N15_2 1_555 1_555
O5_2 N15_2 1_555 1_555
O3_3 N15_3 1_555 1_555
O4_3 N15_3 1_555 1_555
O5_3 N15_3 1_555 1_555
O3_4 N15_4 1_555 1_555
O4_4 N15_4 1_555 1_555
O5_4 N15_4 1_555 1_555
O3_5 N15_5 1_555 1_555
O4_5 N15_5 1_555 1_555
O5_5 N15_5 1_555 1_555
O3_6 N15_6 1_555 1_555
O4_6 N15_6 1_555 1_555
O5_6 N15_6 1_555 1_555
O3_7 N15_7 1_555 1_555
O4_7 N15_7 1_555 1_555
O5_7 N15_7 1_555 1_555
O3_8 N15_8 1_555 1_555
O4_8 N15_8 1_555 1_555
O5_8 N15_8 1_555 1_555
O3_9 N15_9 1_555 1_555
O4_9 N15_9 1_555 1_555
O5_9 N15_9 1_555 1_555
O3_10 N15_10 1_555 1_555
O4_10 N15_10 1_555 1_555
O5_10 N15_10 1_555 1_555
O3_11 N15_11 1_555 1_555
O4_11 N15_11 1_555 1_555
O5_11 N15_11 1_555 1_555
O3_12 N15_12 1_555 1_555
O4_12 N15_12 1_555 1_555
O5_12 N15_12 1_555 1_555
O3_13 N15_13 1_555 1_555
O4_13 N15_13 1_555 1_555
O5_13 N15_13 1_555 1_555
O3_14 N15_14 1_555 1_555
O4_14 N15_14 1_555 1_555
O5_14 N15_14 1_555 1_555
O3_15 N15_15 1_555 1_555
O4_15 N15_15 1_555 1_555
O5_15 N15_15 1_555 1_555
O3_16 N15_16 1_555 1_555
O4_16 N15_16 1_555 1_555
O5_16 N15_16 1_555 1_555

#END
