
###############################################################################
#
# This file contains modified crystal structure data generated from the
# MOF subset of the Cambridge Structural Database (CSD) v543 
# hosted by the Cambridge Crystallographic Data Centre (CCDC).
#
# This work is licensed under the Creative Commons
# Attribution-NonCommercial-ShareAlike 4.0 International License.
# To view a copy of this license, visit
# http://creativecommons.org/licenses/by-nc-sa/4.0/
# or send a letter to
# Creative Commons, PO Box 1866, Mountain View, CA 94042, USA.
#
# CIF created using the CSD Python API on 29 September 2022
# The structure has been converted into the P1 space group
# The structure has a 3D framework
# The original CSD entry ILELOD is in the orthorhombic crystal system
# The framework has been calculated to contain at least 10.0% void space
# The void calculation uses a probe of radius 1.32A, grid spacing 0.4
#
###############################################################################

data_ILELOD
_chemical_formula_moiety         '(C1098 H634 O99 Zn30)n'
_symmetry_cell_setting           triclinic
_symmetry_space_group_name_H-M   'P 1'
_symmetry_Int_Tables_number      1
_space_group_name_Hall           'P 1'
loop_
_symmetry_equiv_pos_site_id
_symmetry_equiv_pos_as_xyz
1 x,y,z
_cell_length_a                   13.488(3)
_cell_length_b                   40.043(8)
_cell_length_c                   77.416(15)
_cell_angle_alpha                90
_cell_angle_beta                 90
_cell_angle_gamma                90
_cell_volume                     41812.4
loop_
_atom_site_label
_atom_site_type_symbol
_atom_site_fract_x
_atom_site_fract_y
_atom_site_fract_z
Zn1 Zn 0.63324(3) 0.25655(2) 0.51487(2)
Zn2 Zn 0.73067(3) 0.21020(2) 0.48696(2)
O1 O 0.750000 0.250000 0.50073(5)
C1 C 0.4444(4) 0.39368(11) 0.48150(7)
H1 H 0.462017 0.415048 0.477929
C2 C 0.5179(4) 0.37149(10) 0.48608(9)
H2 H 0.584177 0.377721 0.485330
C3 C 0.4924(3) 0.33961(9) 0.49187(6)
C4 C 0.5722(3) 0.31583(9) 0.49639(6)
O2 O 0.6564(2) 0.32079(7) 0.49071(6)
O3 O 0.5468(3) 0.29131(8) 0.50628(5)
C5 C 0.3933(4) 0.33064(11) 0.49267(7)
H3 H 0.375694 0.309485 0.496568
C6 C 0.3201(3) 0.35306(10) 0.48769(6)
H4 H 0.253844 0.346649 0.488132
C7 C 0.3446(3) 0.38496(9) 0.48207(5)
C8 C 0.2670(3) 0.40907(10) 0.47649(5)
C9 C 0.1873(4) 0.39756(10) 0.46700(6)
H5 H 0.179336 0.374761 0.465184
C10 C 0.1187(4) 0.41994(12) 0.46014(6)
H6 H 0.064897 0.412202 0.453784
C11 C 0.2761(4) 0.44296(11) 0.47935(6)
H7 H 0.329000 0.450682 0.485934
C12 C 0.2101(4) 0.46555(11) 0.47285(6)
H8 H 0.217269 0.488263 0.475020
C13 C 0.1316(4) 0.45367(12) 0.46287(5)
C14 C 0.0602(4) 0.47789(11) 0.45327(5)
C15 C 0.0651(5) 0.47902(14) 0.43494(6)
C16 C 0.1286(6) 0.45559(19) 0.42566(6)
C17 C 0.2302(11) 0.4601(5) 0.42659(15)
H9 H 0.257308 0.478042 0.432612
C18 C 0.2915(18) 0.4366(7) 0.4181(3)
H10 H 0.359870 0.438188 0.419447
C19 C 0.2556(19) 0.4127(6) 0.4083(2)
H11 H 0.297794 0.398727 0.402117
C20 C 0.1588(19) 0.4089(5) 0.40735(19)
H12 H 0.134106 0.391206 0.400872
C21 C 0.0919(13) 0.4297(3) 0.41545(11)
H13 H 0.024022 0.426571 0.414140
C22 C -0.000000 0.500000 0.46264(7)
C23 C -0.000000 0.500000 0.48142(7)
C24 C 0.000000 0.500000 0.51779(14)
H14 H -0.000001 0.499998 0.529801
C25 C 0.0459(11) 0.5246(3) 0.50869(11)
H15 H 0.078082 0.541655 0.514619
C26 C 0.0457(7) 0.5249(2) 0.49062(8)
H16 H 0.077022 0.542186 0.484766
C27 C 0.000000 0.500000 0.42560(7)
C28 C 0.000000 0.500000 0.40548(10)
C29 C 0.0859(8) 0.5115(3) 0.39681(7)
H17 H 0.140320 0.519051 0.403079
C30 C 0.0882(9) 0.5115(3) 0.37881(10)
H18 H 0.144037 0.518517 0.372782
C31 C 0.000000 0.500000 0.36984(10)
C32 C 0.000000 0.500000 0.35090(11)
C33 C 0.000000 0.500000 0.31450(12)
C34 C 0.000000 0.500000 0.29531(9)
O4 O 0.0743(8) 0.51372(17) 0.28795(6)
C35 C 0.0748(15) 0.5152(4) 0.32352(9)
H19 H 0.126749 0.524924 0.317448
C36 C 0.0756(16) 0.5164(4) 0.34173(10)
H20 H 0.125161 0.527975 0.347567
C37 C 0.4149(3) 0.10864(10) 0.50795(5)
H21 H 0.418968 0.087343 0.503212
C38 C 0.4834(3) 0.13263(10) 0.50336(6)
H22 H 0.532601 0.127337 0.495400
C39 C 0.4804(3) 0.16401(10) 0.51025(6)
C40 C 0.5550(3) 0.18927(9) 0.50567(6)
O5 O 0.6211(2) 0.18279(8) 0.49471(5)
O6 O 0.5480(3) 0.21733(7) 0.51395(5)
C41 C 0.4059(4) 0.17193(11) 0.52211(8)
H23 H 0.403220 0.193167 0.526958
C42 C 0.3360(4) 0.14811(12) 0.52666(7)
H24 H 0.286097 0.153552 0.534464
C43 C 0.3398(3) 0.11618(10) 0.51966(5)
C44 C 0.2663(3) 0.09068(10) 0.52507(5)
C45 C 0.1687(4) 0.09924(14) 0.52803(8)
H25 H 0.146679 0.120519 0.525108
C46 C 0.1027(4) 0.07667(16) 0.53530(7)
H26 H 0.037920 0.082970 0.537775
C47 C 0.2955(5) 0.05813(12) 0.52790(8)
H27 H 0.360214 0.051855 0.525306
C48 C 0.2308(5) 0.03465(13) 0.53450(10)
H28 H 0.250852 0.012625 0.536019
C49 C 0.1355(4) 0.04443(11) 0.53880(5)
C50 C 0.0637(4) 0.02066(12) 0.54837(5)
C51 C 0.0681(5) 0.01996(15) 0.56664(5)
C52 C 0.1338(7) 0.0428(2) 0.57580(7)
C53 C 0.2238(13) 0.0295(5) 0.58171(19)
H29 H 0.235339 0.006917 0.579905
C54 C 0.2958(16) 0.0475(6) 0.5899(2)
H30 H 0.356362 0.038224 0.593054
C55 C 0.2731(16) 0.0799(5) 0.5932(3)
H31 H 0.319183 0.093068 0.599020
C56 C 0.1800(18) 0.0949(5) 0.5881(2)
H32 H 0.165858 0.117178 0.590308
C57 C 0.1137(12) 0.0746(3) 0.57983(16)
H33 H 0.052012 0.083217 0.576874
C58 C 0.000000 0.000000 0.53909(7)
C59 C 0.000000 -0.000000 0.52020(9)
C60 C 0.000000 -0.000000 0.48452(19)
H34 H -0.000004 0.000000 0.472507
C63 C -0.000000 -0.000000 0.57602(8)
C64 C -0.000000 -0.000000 0.59596(10)
C67 C -0.000000 -0.000000 0.63144(9)
C68 C 0.000000 0.000000 0.65068(11)
C69 C 0.000000 0.000000 0.68674(10)
C70 C 0.000000 -0.000000 0.70621(10)
Zn7 Zn 0.11676(3) 0.50655(2) 0.26487(2)
Zn8 Zn 0.86676(3) 0.24345(2) 0.51487(2)
Zn11 Zn 0.76933(3) 0.28980(2) 0.48696(2)
O16 O 0.8436(2) 0.17921(7) 0.49071(6)
O19 O 0.6757(8) 0.26372(17) 0.53795(6)
O21 O 0.7277(6) 0.2232(2) 0.46375(5)
C58_2 C 0.000000 1.000000 0.53909(7)
C59_2 C -0.000000 1.000000 0.52020(9)
C60_2 C 0.000000 1.000000 0.48452(19)
H34_2 H -0.000004 1.000000 0.472507
C61 C 0.0683(14) 0.9826(4) 0.49294(12)
H35 H 0.116229 0.970916 0.486783
C62 C 0.0689(9) 0.9817(3) 0.51080(9)
H36 H 0.115768 0.968843 0.516554
C63_2 C 0.000000 1.000000 0.57602(8)
C64_2 C 0.000000 1.000000 0.59596(10)
C65 C 0.0661(11) 0.9775(3) 0.60468(7)
H37 H 0.111866 0.964574 0.598654
C66 C 0.0582(11) 0.9758(4) 0.62276(9)
H38 H 0.090722 0.959164 0.628916
C67_2 C -0.000000 1.000000 0.63144(9)
C68_2 C 0.000000 1.000000 0.65068(11)
C69_2 C 0.000000 1.000000 0.68674(10)
C70_2 C 0.000000 1.000000 0.70621(10)
O7 O 0.0223(6) 0.9732(2) 0.71375(5)
C71 C 0.0389(10) 0.9733(3) 0.67789(9)
H39 H 0.069916 0.956054 0.683866
C72 C 0.0319(12) 0.9721(3) 0.65997(8)
H40 H 0.048576 0.952568 0.654133
Zn12 Zn 0.01933(3) 0.96020(2) 0.73696(2)
O1_2 O 0.000000 -0.000000 0.75073(5)
Zn8_2 Zn 0.11676(3) 0.00655(2) 0.76487(2)
O16_2 O 0.0936(2) 0.07079(7) 0.74071(6)
O1_3 O 0.000000 1.000000 0.75073(5)
C24_2 C 0.000000 -0.000000 0.01779(14)
H14_2 H -0.000001 -0.000002 0.029801
C25_2 C 0.0459(11) 0.0246(3) 0.00869(11)
H15_2 H 0.078082 0.041655 0.014619
C22_2 C 0.000000 0.000000 0.96264(7)
C23_2 C 0.000000 -0.000000 0.98142(7)
C26_2 C 0.0457(7) 0.0249(2) 0.99062(8)
H16_2 H 0.077022 0.042186 0.984766
C27_2 C 0.000000 0.000000 0.92560(7)
C28_2 C -0.000000 0.000000 0.90548(10)
C29_2 C 0.0859(8) 0.0115(3) 0.89681(7)
H17_2 H 0.140320 0.019051 0.903079
C30_2 C 0.0882(9) 0.0115(3) 0.87881(10)
H18_2 H 0.144037 0.018517 0.872782
C31_2 C 0.000000 -0.000000 0.86984(10)
C32_2 C 0.000000 -0.000000 0.85090(11)
C33_2 C -0.000000 -0.000000 0.81450(12)
C34_2 C 0.000000 -0.000000 0.79531(9)
O4_2 O 0.0743(8) 0.01372(17) 0.78795(6)
C35_2 C 0.0748(15) 0.0152(4) 0.82352(9)
H19_2 H 0.126749 0.024924 0.817448
C36_2 C 0.0756(16) 0.0164(4) 0.84173(10)
H20_2 H 0.125161 0.027975 0.847567
Zn1_2 Zn 0.63324(3) 0.75655(2) 0.01487(2)
O1_4 O 0.750000 0.750000 0.00073(5)
O3_2 O 0.5468(3) 0.79131(8) 0.00628(5)
C24_3 C 0.000000 1.000000 0.01779(14)
H14_3 H -0.000001 0.999998 0.029801
C37_2 C 0.4149(3) 0.60864(10) 0.00795(5)
H21_2 H 0.418968 0.587343 0.003212
C38_2 C 0.4834(3) 0.63263(10) 0.00336(6)
C39_2 C 0.4804(3) 0.66401(10) 0.01025(6)
C40_2 C 0.5550(3) 0.68927(9) 0.00567(6)
O6_2 O 0.5480(3) 0.71733(7) 0.01395(5)
C41_2 C 0.4059(4) 0.67193(11) 0.02211(8)
H23_2 H 0.403220 0.693167 0.026958
C42_2 C 0.3360(4) 0.64811(12) 0.02666(7)
H24_2 H 0.286097 0.653552 0.034464
C43_2 C 0.3398(3) 0.61618(10) 0.01966(5)
C44_2 C 0.2663(3) 0.59068(10) 0.02507(5)
C45_2 C 0.1687(4) 0.59924(14) 0.02803(8)
H25_2 H 0.146679 0.620519 0.025108
C46_2 C 0.1027(4) 0.57667(16) 0.03530(7)
H26_2 H 0.037920 0.582970 0.037775
C47_2 C 0.2955(5) 0.55813(12) 0.02790(8)
H27_2 H 0.360214 0.551855 0.025306
C48_2 C 0.2308(5) 0.53465(13) 0.03450(10)
H28_2 H 0.250852 0.512625 0.036019
C49_2 C 0.1355(4) 0.54443(11) 0.03880(5)
C50_2 C 0.0637(4) 0.52066(12) 0.04837(5)
C51_2 C 0.0681(5) 0.51996(15) 0.06664(5)
C52_2 C 0.1338(7) 0.5428(2) 0.07580(7)
C53_2 C 0.2238(13) 0.5295(5) 0.08171(19)
H29_2 H 0.235339 0.506917 0.079905
C54_2 C 0.2958(16) 0.5475(6) 0.0899(2)
H30_2 H 0.356362 0.538224 0.093054
C55_2 C 0.2731(16) 0.5799(5) 0.0932(3)
H31_2 H 0.319183 0.593068 0.099020
C56_2 C 0.1800(18) 0.5949(5) 0.0881(2)
H32_2 H 0.165858 0.617178 0.090308
C57_2 C 0.1137(12) 0.5746(3) 0.07983(16)
H33_2 H 0.052012 0.583217 0.076874
C58_3 C 0.000000 0.500000 0.03909(7)
C59_3 C 0.000000 0.500000 0.02020(9)
C62_2 C 0.0689(9) 0.4817(3) 0.01080(9)
H36_2 H 0.115768 0.468843 0.016554
C63_3 C -0.000000 0.500000 0.07602(8)
C64_3 C -0.000000 0.500000 0.09596(10)
C65_2 C 0.0661(11) 0.4775(3) 0.10468(7)
H37_2 H 0.111866 0.464574 0.098654
C66_2 C 0.0582(11) 0.4758(4) 0.12276(9)
H38_2 H 0.090722 0.459164 0.128916
C67_3 C -0.000000 0.500000 0.13144(9)
C68_3 C 0.000000 0.500000 0.15068(11)
C69_3 C 0.000000 0.500000 0.18674(10)
C70_3 C 0.000000 0.500000 0.20621(10)
O7_2 O 0.0223(6) 0.4732(2) 0.21375(5)
C71_2 C 0.0389(10) 0.4733(3) 0.17789(9)
H39_2 H 0.069916 0.456054 0.183866
C72_2 C 0.0319(12) 0.4721(3) 0.15997(8)
H40_2 H 0.048576 0.452568 0.154133
Zn8_3 Zn 0.86676(3) 0.74345(2) 0.01487(2)
Zn12_2 Zn 0.01933(3) 0.46020(2) 0.23696(2)
O19_2 O 0.6757(8) 0.76372(17) 0.03795(6)
Zn2_2 Zn 0.73067(3) 0.71020(2) 0.98696(2)
C1_2 C 0.4444(4) 0.89368(11) 0.98150(7)
H1_2 H 0.462017 0.915048 0.977929
C2_2 C 0.5179(4) 0.87149(10) 0.98608(9)
H2_2 H 0.584177 0.877721 0.985330
C3_2 C 0.4924(3) 0.83961(9) 0.99187(6)
C4_2 C 0.5722(3) 0.81583(9) 0.99639(6)
O2_2 O 0.6564(2) 0.82079(7) 0.99071(6)
C5_2 C 0.3933(4) 0.83064(11) 0.99267(7)
H3_2 H 0.375694 0.809485 0.996568
C6_2 C 0.3201(3) 0.85306(10) 0.98769(6)
H4_2 H 0.253844 0.846649 0.988132
C7_2 C 0.3446(3) 0.88496(9) 0.98207(5)
C8_2 C 0.2670(3) 0.90907(10) 0.97649(5)
C9_2 C 0.1873(4) 0.89756(10) 0.96700(6)
H5_2 H 0.179336 0.874761 0.965184
C10_2 C 0.1187(4) 0.91994(12) 0.96014(6)
H6_2 H 0.064897 0.912202 0.953784
C11_2 C 0.2761(4) 0.94296(11) 0.97935(6)
H7_2 H 0.329000 0.950682 0.985934
C12_2 C 0.2101(4) 0.96555(11) 0.97285(6)
H8_2 H 0.217269 0.988263 0.975020
C13_2 C 0.1316(4) 0.95367(12) 0.96287(5)
C14_2 C 0.0602(4) 0.97789(11) 0.95327(5)
C15_2 C 0.0651(5) 0.97902(14) 0.93494(6)
C16_2 C 0.1286(6) 0.95559(19) 0.92566(6)
C17_2 C 0.2302(11) 0.9601(5) 0.92659(15)
H9_2 H 0.257308 0.978042 0.932612
C18_2 C 0.2915(18) 0.9366(7) 0.9181(3)
H10_2 H 0.359870 0.938188 0.919447
C19_2 C 0.2556(19) 0.9127(6) 0.9083(2)
H11_2 H 0.297794 0.898727 0.902117
C20_2 C 0.1588(19) 0.9089(5) 0.90735(19)
H12_2 H 0.134106 0.891206 0.900872
C21_2 C 0.0919(13) 0.9297(3) 0.91545(11)
H13_2 H 0.024022 0.926571 0.914140
C22_3 C 0.000000 1.000000 0.96264(7)
C23_3 C 0.000000 1.000000 0.98142(7)
C27_3 C 0.000000 1.000000 0.92560(7)
C28_3 C -0.000000 1.000000 0.90548(10)
C31_3 C -0.000000 1.000000 0.86984(10)
C32_3 C 0.000000 1.000000 0.85090(11)
C33_3 C 0.000000 1.000000 0.81450(12)
C34_3 C -0.000000 1.000000 0.79531(9)
H22_2 H 0.532601 0.627337 0.995400
O5_2 O 0.6211(2) 0.68279(8) 0.99471(5)
C60_3 C 0.000000 0.500000 0.98452(19)
H34_3 H -0.000004 0.500000 0.972507
C61_2 C 0.0683(14) 0.4826(4) 0.99294(12)
H35_2 H 0.116229 0.470916 0.986783
Zn11_2 Zn 0.76933(3) 0.78980(2) 0.98696(2)
O16_3 O 0.8436(2) 0.67921(7) 0.99071(6)
O21_2 O 0.7277(6) 0.7232(2) 0.96375(5)
O1_5 O 0.000000 0.500000 0.25073(5)
O16_4 O 0.0936(2) 0.57079(7) 0.24071(6)
O9 O 0.9532(3) 0.70869(8) 0.00628(5)
C74 C 0.9821(4) 0.62851(10) 0.98608(9)
H42 H 0.915823 0.622279 0.985330
C76 C 0.9278(3) 0.68417(9) 0.99639(6)
C103 C 0.9450(3) 0.81073(9) 0.00567(6)
O12 O 0.9520(3) 0.78267(7) 0.01395(5)
O18 O 0.8243(8) 0.73628(17) 0.03795(6)
H61 H 0.967399 0.872663 0.995400
O11 O 0.8789(2) 0.81721(8) 0.99471(5)
O20 O 0.7723(6) 0.7768(2) 0.96375(5)
C45_3 C 0.9187(4) 0.15076(14) 0.27803(8)
H25_3 H 0.896679 0.129481 0.275108
C46_3 C 0.8527(4) 0.17333(16) 0.28530(7)
H26_3 H 0.787920 0.167030 0.287775
C48_3 C 0.9808(5) 0.21535(13) 0.28450(10)
C49_3 C 0.8855(4) 0.20557(11) 0.28880(5)
C50_3 C 0.8137(4) 0.22934(12) 0.29837(5)
C51_3 C 0.8181(5) 0.23004(15) 0.31664(5)
C52_3 C 0.8838(7) 0.2072(2) 0.32580(7)
C53_3 C 0.9738(13) 0.2205(5) 0.33171(19)
H29_3 H 0.985339 0.243083 0.329905
C56_3 C 0.9300(18) 0.1551(5) 0.3381(2)
H32_3 H 0.915858 0.132822 0.340308
C57_3 C 0.8637(12) 0.1754(3) 0.32983(16)
H33_3 H 0.802012 0.166783 0.326874
C58_4 C 0.750000 0.250000 0.28909(7)
C59_4 C 0.750000 0.250000 0.27020(9)
C60_4 C 0.750000 0.250000 0.23452(19)
H34_4 H 0.749996 0.250000 0.222507
C61_3 C 0.8183(14) 0.2674(4) 0.24294(12)
H35_3 H 0.866229 0.279084 0.236783
C62_3 C 0.8189(9) 0.2683(3) 0.26080(9)
H36_3 H 0.865768 0.281157 0.266554
C63_4 C 0.750000 0.250000 0.32602(8)
C64_4 C 0.750000 0.250000 0.34596(10)
C65_3 C 0.8161(11) 0.2725(3) 0.35468(7)
H37_3 H 0.861866 0.285426 0.348654
C66_3 C 0.8082(11) 0.2742(4) 0.37276(9)
H38_3 H 0.840722 0.290836 0.378916
C67_4 C 0.750000 0.250000 0.38144(9)
C68_4 C 0.750000 0.250000 0.40068(11)
C69_4 C 0.750000 0.250000 0.43674(10)
C70_4 C 0.750000 0.250000 0.45621(10)
O7_3 O 0.7723(6) 0.2768(2) 0.46375(5)
C71_3 C 0.7889(10) 0.2767(3) 0.42789(9)
H39_3 H 0.819916 0.293946 0.433866
C72_3 C 0.7819(12) 0.2779(3) 0.40997(8)
H40_3 H 0.798576 0.297432 0.404133
C100 C 0.3351(3) 0.35864(10) 0.25795(5)
H60 H 0.331032 0.337343 0.253212
C101 C 0.2666(3) 0.38263(10) 0.25336(6)
H61_2 H 0.217399 0.377337 0.245400
C102 C 0.2696(3) 0.41401(10) 0.26025(6)
C103_2 C 0.1950(3) 0.43927(9) 0.25567(6)
O11_2 O 0.1289(2) 0.43279(8) 0.24471(5)
O12_2 O 0.2020(3) 0.46733(7) 0.26395(5)
C104 C 0.3441(4) 0.42193(11) 0.27211(8)
H62 H 0.346780 0.443167 0.276958
C105 C 0.4140(4) 0.39811(12) 0.27666(7)
H63 H 0.463903 0.403552 0.284464
C106 C 0.4102(3) 0.36618(10) 0.26966(5)
C107 C 0.4837(3) 0.34068(10) 0.27507(5)
C108 C 0.5813(4) 0.34924(14) 0.27803(8)
H64 H 0.603321 0.370519 0.275108
C109 C 0.6473(4) 0.32667(16) 0.28530(7)
H65 H 0.712080 0.332970 0.287775
C110 C 0.4545(5) 0.30813(12) 0.27790(8)
H66 H 0.389786 0.301855 0.275306
C111 C 0.5192(5) 0.28465(13) 0.28450(10)
H67 H 0.499148 0.262625 0.286019
C112 C 0.6145(4) 0.29443(11) 0.28880(5)
C113 C 0.6863(4) 0.27066(12) 0.29837(5)
C114 C 0.6819(5) 0.26996(15) 0.31664(5)
C115 C 0.6162(7) 0.2928(2) 0.32580(7)
C116 C 0.5262(13) 0.2795(5) 0.33171(19)
H68 H 0.514661 0.256917 0.329905
C117 C 0.4542(16) 0.2975(6) 0.3399(2)
H69 H 0.393638 0.288224 0.343054
C118 C 0.4769(16) 0.3299(5) 0.3432(3)
H70 H 0.430817 0.343068 0.349020
C119 C 0.5700(18) 0.3449(5) 0.3381(2)
H71 H 0.584142 0.367178 0.340308
C120 C 0.6363(12) 0.3246(3) 0.32983(16)
H72 H 0.697988 0.333217 0.326874
C121 C 0.6817(14) 0.2326(4) 0.24294(12)
H73 H 0.633771 0.220916 0.236783
C122 C 0.6811(9) 0.2317(3) 0.26080(9)
H74 H 0.634232 0.218843 0.266554
C123 C 0.6839(11) 0.2275(3) 0.35468(7)
H75 H 0.638134 0.214574 0.348654
C124 C 0.6918(11) 0.2258(4) 0.37276(9)
H76 H 0.659278 0.209164 0.378916
C125 C 0.7111(10) 0.2233(3) 0.42789(9)
H77 H 0.680084 0.206054 0.433866
C126 C 0.7181(12) 0.2221(3) 0.40997(8)
H78 H 0.701424 0.202568 0.404133
O17 O 0.2032(3) 0.54131(8) 0.25628(5)
C9_3 C 0.9373(4) 0.85244(10) 0.21700(6)
H5_3 H 0.929336 0.875239 0.215184
C10_3 C 0.8687(4) 0.83006(12) 0.21014(6)
H6_3 H 0.814897 0.837798 0.203784
C12_3 C 0.9601(4) 0.78445(11) 0.22285(6)
H8_3 H 0.967269 0.761737 0.225020
C13_3 C 0.8816(4) 0.79633(12) 0.21287(5)
C14_3 C 0.8102(4) 0.77211(11) 0.20327(5)
C15_3 C 0.8151(5) 0.77098(14) 0.18494(6)
C16_3 C 0.8786(6) 0.79441(19) 0.17566(6)
C17_3 C 0.9802(11) 0.7899(5) 0.17659(15)
C20_3 C 0.9088(19) 0.8411(5) 0.15735(19)
H12_3 H 0.884106 0.858794 0.150872
C21_3 C 0.8419(13) 0.8203(3) 0.16545(11)
H13_3 H 0.774022 0.823429 0.164140
C22_4 C 0.750000 0.750000 0.21264(7)
C23_4 C 0.750000 0.750000 0.23142(7)
C24_4 C 0.750000 0.750000 0.26779(14)
H14_4 H 0.749999 0.750002 0.279801
C25_3 C 0.7959(11) 0.7254(3) 0.25869(11)
H15_3 H 0.828082 0.708345 0.264619
C26_3 C 0.7957(7) 0.7251(2) 0.24062(8)
H16_3 H 0.827022 0.707814 0.234766
C27_4 C 0.750000 0.750000 0.17560(7)
C28_4 C 0.750000 0.750000 0.15548(10)
C29_3 C 0.8359(8) 0.7385(3) 0.14681(7)
H17_3 H 0.890320 0.730949 0.153079
C30_3 C 0.8382(9) 0.7385(3) 0.12881(10)
H18_3 H 0.894037 0.731483 0.122782
C31_4 C 0.750000 0.750000 0.11984(10)
C32_4 C 0.750000 0.750000 0.10090(11)
C33_4 C 0.750000 0.750000 0.06450(12)
C34_4 C 0.750000 0.750000 0.04531(9)
C35_3 C 0.8248(15) 0.7348(4) 0.07352(9)
H19_3 H 0.876749 0.725076 0.067448
C36_3 C 0.8256(16) 0.7336(4) 0.09173(10)
H20_3 H 0.875161 0.722025 0.097567
C73 C 0.3056(4) 0.64368(11) 0.23150(7)
H41 H 0.287983 0.665048 0.227929
C74_2 C 0.2321(4) 0.62149(10) 0.23608(9)
H42_2 H 0.165823 0.627721 0.235330
C75 C 0.2576(3) 0.58961(9) 0.24187(6)
C76_2 C 0.1778(3) 0.56583(9) 0.24639(6)
C77 C 0.3567(4) 0.58064(11) 0.24267(7)
H43 H 0.374306 0.559485 0.246568
C78 C 0.4299(3) 0.60306(10) 0.23769(6)
H44 H 0.496156 0.596649 0.238132
C79 C 0.4054(3) 0.63496(9) 0.23207(5)
C80 C 0.4830(3) 0.65907(10) 0.22649(5)
C81 C 0.5627(4) 0.64756(10) 0.21700(6)
H45 H 0.570664 0.624761 0.215184
C82 C 0.6313(4) 0.66994(12) 0.21014(6)
H46 H 0.685103 0.662202 0.203784
C83 C 0.4739(4) 0.69296(11) 0.22935(6)
H47 H 0.421000 0.700682 0.235934
C84 C 0.5399(4) 0.71555(11) 0.22285(6)
H48 H 0.532731 0.738263 0.225020
C85 C 0.6184(4) 0.70367(12) 0.21287(5)
C86 C 0.6898(4) 0.72789(11) 0.20327(5)
C87 C 0.6849(5) 0.72902(14) 0.18494(6)
C88 C 0.6214(6) 0.70559(19) 0.17566(6)
C89 C 0.5198(11) 0.7101(5) 0.17659(15)
H49 H 0.492692 0.728042 0.182612
C90 C 0.4585(18) 0.6866(7) 0.1681(3)
H50 H 0.390130 0.688188 0.169447
C91 C 0.4944(19) 0.6627(6) 0.1583(2)
H51 H 0.452206 0.648727 0.152117
C92 C 0.5912(19) 0.6589(5) 0.15735(19)
H52 H 0.615894 0.641206 0.150872
C93 C 0.6581(13) 0.6797(3) 0.16545(11)
H53 H 0.725978 0.676571 0.164140
C94 C 0.7041(11) 0.7746(3) 0.25869(11)
H54 H 0.671918 0.791655 0.264619
C95 C 0.7043(7) 0.7749(2) 0.24062(8)
H55 H 0.672978 0.792186 0.234766
C96 C 0.6641(8) 0.7615(3) 0.14681(7)
H56 H 0.609680 0.769051 0.153079
C97 C 0.6618(9) 0.7615(3) 0.12881(10)
H57 H 0.605963 0.768517 0.122782
C98 C 0.6752(15) 0.7652(4) 0.07352(9)
H58 H 0.623251 0.774924 0.067448
C99 C 0.6744(16) 0.7664(4) 0.09173(10)
H59 H 0.624839 0.777975 0.097567
C74_3 C 0.9821(4) 0.12851(10) 0.48608(9)
H42_3 H 0.915823 0.122279 0.485330
C76_3 C 0.9278(3) 0.18417(9) 0.49639(6)
O9_2 O 0.9532(3) 0.20869(8) 0.50628(5)
H61_3 H 0.967399 0.372663 0.495400
C103_3 C 0.9450(3) 0.31073(9) 0.50567(6)
O11_3 O 0.8789(2) 0.31721(8) 0.49471(5)
O12_3 O 0.9520(3) 0.28267(7) 0.51395(5)
O18_2 O 0.8243(8) 0.23628(17) 0.53795(6)
O17_2 O 0.2032(3) 0.04131(8) 0.75628(5)
C9_4 C 0.9373(4) 0.35244(10) 0.71700(6)
H5_4 H 0.929336 0.375239 0.715184
C10_4 C 0.8687(4) 0.33006(12) 0.71014(6)
H6_4 H 0.814897 0.337798 0.703784
C12_4 C 0.9601(4) 0.28445(11) 0.72285(6)
H8_4 H 0.967269 0.261737 0.725020
C13_4 C 0.8816(4) 0.29633(12) 0.71287(5)
C14_4 C 0.8102(4) 0.27211(11) 0.70327(5)
C15_4 C 0.8151(5) 0.27098(14) 0.68494(6)
C16_4 C 0.8786(6) 0.29441(19) 0.67566(6)
C17_4 C 0.9802(11) 0.2899(5) 0.67659(15)
C20_4 C 0.9088(19) 0.3411(5) 0.65735(19)
H12_4 H 0.884106 0.358794 0.650872
C21_4 C 0.8419(13) 0.3203(3) 0.66545(11)
H13_4 H 0.774022 0.323429 0.664140
C22_5 C 0.750000 0.250000 0.71264(7)
C23_5 C 0.750000 0.250000 0.73142(7)
C24_5 C 0.750000 0.250000 0.76779(14)
H14_5 H 0.749999 0.250002 0.779801
C25_4 C 0.7959(11) 0.2254(3) 0.75869(11)
H15_4 H 0.828082 0.208345 0.764619
C26_4 C 0.7957(7) 0.2251(2) 0.74062(8)
H16_4 H 0.827022 0.207814 0.734766
C27_5 C 0.750000 0.250000 0.67560(7)
C28_5 C 0.750000 0.250000 0.65548(10)
C29_4 C 0.8359(8) 0.2385(3) 0.64681(7)
H17_4 H 0.890320 0.230949 0.653079
C30_4 C 0.8382(9) 0.2385(3) 0.62881(10)
H18_4 H 0.894037 0.231483 0.622782
C31_5 C 0.750000 0.250000 0.61984(10)
C32_5 C 0.750000 0.250000 0.60090(11)
C33_5 C 0.750000 0.250000 0.56450(12)
C34_5 C 0.750000 0.250000 0.54531(9)
C35_4 C 0.8248(15) 0.2348(4) 0.57352(9)
H19_4 H 0.876749 0.225076 0.567448
C36_4 C 0.8256(16) 0.2336(4) 0.59173(10)
H20_4 H 0.875161 0.222025 0.597567
C45_4 C 0.9187(4) 0.65076(14) 0.77803(8)
H25_4 H 0.896679 0.629481 0.775108
C46_4 C 0.8527(4) 0.67333(16) 0.78530(7)
H26_4 H 0.787920 0.667030 0.787775
C48_4 C 0.9808(5) 0.71535(13) 0.78450(10)
C49_4 C 0.8855(4) 0.70557(11) 0.78880(5)
C50_4 C 0.8137(4) 0.72934(12) 0.79837(5)
C51_4 C 0.8181(5) 0.73004(15) 0.81664(5)
C52_4 C 0.8838(7) 0.7072(2) 0.82580(7)
C53_4 C 0.9738(13) 0.7205(5) 0.83171(19)
H29_4 H 0.985339 0.743083 0.829905
C56_4 C 0.9300(18) 0.6551(5) 0.8381(2)
H32_4 H 0.915858 0.632822 0.840308
C57_4 C 0.8637(12) 0.6754(3) 0.82983(16)
H33_4 H 0.802012 0.666783 0.826874
C58_5 C 0.750000 0.750000 0.78909(7)
C59_5 C 0.750000 0.750000 0.77020(9)
C60_5 C 0.750000 0.750000 0.73452(19)
H34_5 H 0.749996 0.750000 0.722507
C61_4 C 0.8183(14) 0.7674(4) 0.74294(12)
H35_4 H 0.866229 0.779084 0.736783
C62_4 C 0.8189(9) 0.7683(3) 0.76080(9)
H36_4 H 0.865768 0.781157 0.766554
C63_5 C 0.750000 0.750000 0.82602(8)
C64_5 C 0.750000 0.750000 0.84596(10)
C65_4 C 0.8161(11) 0.7725(3) 0.85468(7)
H37_4 H 0.861866 0.785426 0.848654
C66_4 C 0.8082(11) 0.7742(4) 0.87276(9)
H38_4 H 0.840722 0.790836 0.878916
C67_5 C 0.750000 0.750000 0.88144(9)
C68_5 C 0.750000 0.750000 0.90068(11)
C69_5 C 0.750000 0.750000 0.93674(10)
C70_5 C 0.750000 0.750000 0.95621(10)
C71_4 C 0.7889(10) 0.7767(3) 0.92789(9)
H39_4 H 0.819916 0.793946 0.933866
C72_4 C 0.7819(12) 0.7779(3) 0.90997(8)
H40_4 H 0.798576 0.797432 0.904133
C73_2 C 0.3056(4) 0.14368(11) 0.73150(7)
H41_2 H 0.287983 0.165048 0.727929
C74_4 C 0.2321(4) 0.12149(10) 0.73608(9)
H42_4 H 0.165823 0.127721 0.735330
C75_2 C 0.2576(3) 0.08961(9) 0.74187(6)
C76_4 C 0.1778(3) 0.06583(9) 0.74639(6)
C77_2 C 0.3567(4) 0.08064(11) 0.74267(7)
H43_2 H 0.374306 0.059485 0.746568
C78_2 C 0.4299(3) 0.10306(10) 0.73769(6)
H44_2 H 0.496156 0.096649 0.738132
C79_2 C 0.4054(3) 0.13496(9) 0.73207(5)
C80_2 C 0.4830(3) 0.15907(10) 0.72649(5)
C81_2 C 0.5627(4) 0.14756(10) 0.71700(6)
H45_2 H 0.570664 0.124761 0.715184
C82_2 C 0.6313(4) 0.16994(12) 0.71014(6)
H46_2 H 0.685103 0.162202 0.703784
C83_2 C 0.4739(4) 0.19296(11) 0.72935(6)
H47_2 H 0.421000 0.200682 0.735934
C84_2 C 0.5399(4) 0.21555(11) 0.72285(6)
H48_2 H 0.532731 0.238263 0.725020
C85_2 C 0.6184(4) 0.20367(12) 0.71287(5)
C86_2 C 0.6898(4) 0.22789(11) 0.70327(5)
C87_2 C 0.6849(5) 0.22902(14) 0.68494(6)
C88_2 C 0.6214(6) 0.20559(19) 0.67566(6)
C89_2 C 0.5198(11) 0.2101(5) 0.67659(15)
H49_2 H 0.492692 0.228042 0.682612
C90_2 C 0.4585(18) 0.1866(7) 0.6681(3)
H50_2 H 0.390130 0.188188 0.669447
C91_2 C 0.4944(19) 0.1627(6) 0.6583(2)
H51_2 H 0.452206 0.148727 0.652117
C92_2 C 0.5912(19) 0.1589(5) 0.65735(19)
H52_2 H 0.615894 0.141206 0.650872
C93_2 C 0.6581(13) 0.1797(3) 0.66545(11)
H53_2 H 0.725978 0.176571 0.664140
C94_2 C 0.7041(11) 0.2746(3) 0.75869(11)
H54_2 H 0.671918 0.291655 0.764619
C95_2 C 0.7043(7) 0.2749(2) 0.74062(8)
H55_2 H 0.672978 0.292186 0.734766
C96_2 C 0.6641(8) 0.2615(3) 0.64681(7)
H56_2 H 0.609680 0.269051 0.653079
C97_2 C 0.6618(9) 0.2615(3) 0.62881(10)
H57_2 H 0.605963 0.268517 0.622782
C98_2 C 0.6752(15) 0.2652(4) 0.57352(9)
H58_2 H 0.623251 0.274924 0.567448
C99_2 C 0.6744(16) 0.2664(4) 0.59173(10)
H59_2 H 0.624839 0.277975 0.597567
C100_2 C 0.3351(3) 0.85864(10) 0.75795(5)
H60_2 H 0.331032 0.837343 0.753212
C101_2 C 0.2666(3) 0.88263(10) 0.75336(6)
H61_4 H 0.217399 0.877337 0.745400
C102_2 C 0.2696(3) 0.91401(10) 0.76025(6)
C103_4 C 0.1950(3) 0.93927(9) 0.75567(6)
O11_4 O 0.1289(2) 0.93279(8) 0.74471(5)
O12_4 O 0.2020(3) 0.96733(7) 0.76395(5)
C104_2 C 0.3441(4) 0.92193(11) 0.77211(8)
H62_2 H 0.346780 0.943167 0.776958
C105_2 C 0.4140(4) 0.89811(12) 0.77666(7)
H63_2 H 0.463903 0.903552 0.784464
C106_2 C 0.4102(3) 0.86618(10) 0.76966(5)
C107_2 C 0.4837(3) 0.84068(10) 0.77507(5)
C108_2 C 0.5813(4) 0.84924(14) 0.77803(8)
H64_2 H 0.603321 0.870519 0.775108
C109_2 C 0.6473(4) 0.82667(16) 0.78530(7)
H65_2 H 0.712080 0.832970 0.787775
C110_2 C 0.4545(5) 0.80813(12) 0.77790(8)
H66_2 H 0.389786 0.801855 0.775306
C111_2 C 0.5192(5) 0.78465(13) 0.78450(10)
H67_2 H 0.499148 0.762625 0.786019
C112_2 C 0.6145(4) 0.79443(11) 0.78880(5)
C113_2 C 0.6863(4) 0.77066(12) 0.79837(5)
C114_2 C 0.6819(5) 0.76996(15) 0.81664(5)
C115_2 C 0.6162(7) 0.7928(2) 0.82580(7)
C116_2 C 0.5262(13) 0.7795(5) 0.83171(19)
H68_2 H 0.514661 0.756917 0.829905
C117_2 C 0.4542(16) 0.7975(6) 0.8399(2)
H69_2 H 0.393638 0.788224 0.843054
C118_2 C 0.4769(16) 0.8299(5) 0.8432(3)
H70_2 H 0.430817 0.843068 0.849020
C119_2 C 0.5700(18) 0.8449(5) 0.8381(2)
H71_2 H 0.584142 0.867178 0.840308
C120_2 C 0.6363(12) 0.8246(3) 0.82983(16)
H72_2 H 0.697988 0.833217 0.826874
C121_2 C 0.6817(14) 0.7326(4) 0.74294(12)
H73_2 H 0.633771 0.720916 0.736783
C122_2 C 0.6811(9) 0.7317(3) 0.76080(9)
H74_2 H 0.634232 0.718843 0.766554
C123_2 C 0.6839(11) 0.7275(3) 0.85468(7)
H75_2 H 0.638134 0.714574 0.848654
C124_2 C 0.6918(11) 0.7258(4) 0.87276(9)
H76_2 H 0.659278 0.709164 0.878916
C125_2 C 0.7111(10) 0.7233(3) 0.92789(9)
H77_2 H 0.680084 0.706054 0.933866
C126_2 C 0.7181(12) 0.7221(3) 0.90997(8)
H78_2 H 0.701424 0.702568 0.904133
C22_6 C 1.000000 0.500000 0.46264(7)
C23_6 C 1.000000 0.500000 0.48142(7)
C24_6 C 1.000000 0.500000 0.51779(14)
H14_6 H 0.999999 0.499998 0.529801
C27_6 C 1.000000 0.500000 0.42560(7)
C28_6 C 1.000000 0.500000 0.40548(10)
C31_6 C 1.000000 0.500000 0.36984(10)
C32_6 C 1.000000 0.500000 0.35090(11)
C33_6 C 1.000000 0.500000 0.31450(12)
C34_6 C 1.000000 0.500000 0.29531(9)
C58_6 C 1.000000 0.000000 0.53909(7)
C59_6 C 1.000000 -0.000000 0.52020(9)
C60_6 C 1.000000 -0.000000 0.48452(19)
H34_6 H 0.999996 0.000000 0.472507
C63_6 C 1.000000 -0.000000 0.57602(8)
C64_6 C 1.000000 -0.000000 0.59596(10)
C67_6 C 1.000000 -0.000000 0.63144(9)
C68_6 C 1.000000 0.000000 0.65068(11)
C69_6 C 1.000000 0.000000 0.68674(10)
C70_6 C 1.000000 -0.000000 0.70621(10)
C73_3 C 0.5556(4) 0.60632(11) 0.48150(7)
H41_3 H 0.537983 0.584952 0.477929
C74_5 C 0.4821(4) 0.62851(10) 0.48608(9)
H42_5 H 0.415823 0.622279 0.485330
C75_3 C 0.5076(3) 0.66039(9) 0.49187(6)
C76_5 C 0.4278(3) 0.68417(9) 0.49639(6)
O8 O 0.3436(2) 0.67921(7) 0.49071(6)
O9_3 O 0.4532(3) 0.70869(8) 0.50628(5)
C77_3 C 0.6067(4) 0.66936(11) 0.49267(7)
H43_3 H 0.624306 0.690515 0.496568
C78_3 C 0.6799(3) 0.64694(10) 0.48769(6)
H44_3 H 0.746156 0.653351 0.488132
C79_3 C 0.6554(3) 0.61504(9) 0.48207(5)
C80_3 C 0.7330(3) 0.59093(10) 0.47649(5)
C81_3 C 0.8127(4) 0.60244(10) 0.46700(6)
H45_3 H 0.820664 0.625239 0.465184
C82_3 C 0.8813(4) 0.58006(12) 0.46014(6)
H46_3 H 0.935103 0.587798 0.453784
C83_3 C 0.7239(4) 0.55704(11) 0.47935(6)
H47_3 H 0.671000 0.549318 0.485934
C84_3 C 0.7899(4) 0.53445(11) 0.47285(6)
H48_3 H 0.782731 0.511737 0.475020
C85_3 C 0.8684(4) 0.54633(12) 0.46287(5)
C86_3 C 0.9398(4) 0.52211(11) 0.45327(5)
C87_3 C 0.9349(5) 0.52098(14) 0.43494(6)
C88_3 C 0.8714(6) 0.54441(19) 0.42566(6)
C89_3 C 0.7698(11) 0.5399(5) 0.42659(15)
H49_3 H 0.742692 0.521958 0.432612
C90_3 C 0.7085(18) 0.5634(7) 0.4181(3)
H50_3 H 0.640130 0.561812 0.419447
C91_3 C 0.7444(19) 0.5873(6) 0.4083(2)
H51_3 H 0.702206 0.601273 0.402117
C92_3 C 0.8412(19) 0.5911(5) 0.40735(19)
H52_3 H 0.865894 0.608794 0.400872
C93_3 C 0.9081(13) 0.5703(3) 0.41545(11)
H53_3 H 0.975978 0.573429 0.414140
C94_3 C 0.9541(11) 0.4754(3) 0.50869(11)
H54_3 H 0.921918 0.458345 0.514619
C95_3 C 0.9543(7) 0.4751(2) 0.49062(8)
H55_3 H 0.922978 0.457814 0.484766
C96_3 C 0.9141(8) 0.4885(3) 0.39681(7)
H56_3 H 0.859680 0.480949 0.403079
C97_3 C 0.9118(9) 0.4885(3) 0.37881(10)
H57_3 H 0.855963 0.481483 0.372782
O10 O 0.9257(8) 0.48628(17) 0.28795(6)
C98_3 C 0.9252(15) 0.4848(4) 0.32352(9)
H58_3 H 0.873251 0.475076 0.317448
C99_3 C 0.9244(16) 0.4836(4) 0.34173(10)
H59_3 H 0.874839 0.472025 0.347567
C121_3 C 0.9317(14) 0.0174(4) 0.49294(12)
H73_3 H 0.883771 0.029084 0.486783
C122_3 C 0.9311(9) 0.0183(3) 0.51080(9)
H74_3 H 0.884232 0.031157 0.516554
C123_3 C 0.9339(11) 0.0225(3) 0.60468(7)
H75_3 H 0.888134 0.035426 0.598654
C124_3 C 0.9418(11) 0.0242(4) 0.62276(9)
H76_3 H 0.909278 0.040836 0.628916
O13 O 0.9777(6) 0.0268(2) 0.71375(5)
C125_3 C 0.9611(10) 0.0267(3) 0.67789(9)
H77_3 H 0.930084 0.043946 0.683866
C126_3 C 0.9681(12) 0.0279(3) 0.65997(8)
H78_3 H 0.951424 0.047432 0.654133
Zn5 Zn 0.36676(3) 0.74345(2) 0.51487(2)
Zn6 Zn 0.88324(3) 0.49345(2) 0.26487(2)
Zn9 Zn 0.98067(3) 0.03980(2) 0.73696(2)
Zn10 Zn 0.23067(3) 0.71020(2) 0.48696(2)
C58_7 C 1.000000 1.000000 0.53909(7)
C59_7 C 1.000000 1.000000 0.52020(9)
C60_7 C 1.000000 1.000000 0.48452(19)
H34_7 H 0.999996 1.000000 0.472507
C63_7 C 1.000000 1.000000 0.57602(8)
C64_7 C 1.000000 1.000000 0.59596(10)
C67_7 C 1.000000 1.000000 0.63144(9)
C68_7 C 1.000000 1.000000 0.65068(11)
C69_7 C 1.000000 1.000000 0.68674(10)
C70_7 C 1.000000 1.000000 0.70621(10)
C100_3 C 0.5851(3) 0.89136(10) 0.50795(5)
H60_3 H 0.581032 0.912657 0.503212
C101_3 C 0.5166(3) 0.86737(10) 0.50336(6)
H61_5 H 0.467399 0.872663 0.495400
C102_3 C 0.5196(3) 0.83599(10) 0.51025(6)
C103_5 C 0.4450(3) 0.81073(9) 0.50567(6)
O11_5 O 0.3789(2) 0.81721(8) 0.49471(5)
O12_5 O 0.4520(3) 0.78267(7) 0.51395(5)
C104_3 C 0.5941(4) 0.82807(11) 0.52211(8)
H62_3 H 0.596780 0.806833 0.526958
C105_3 C 0.6640(4) 0.85189(12) 0.52666(7)
H63_3 H 0.713903 0.846448 0.534464
C106_3 C 0.6602(3) 0.88382(10) 0.51966(5)
C107_3 C 0.7337(3) 0.90932(10) 0.52507(5)
C108_3 C 0.8313(4) 0.90076(14) 0.52803(8)
H64_3 H 0.853321 0.879481 0.525108
C109_3 C 0.8973(4) 0.92333(16) 0.53530(7)
H65_3 H 0.962080 0.917030 0.537775
C110_3 C 0.7045(5) 0.94187(12) 0.52790(8)
H66_3 H 0.639786 0.948145 0.525306
C111_3 C 0.7692(5) 0.96535(13) 0.53450(10)
H67_3 H 0.749148 0.987375 0.536019
C112_3 C 0.8645(4) 0.95557(11) 0.53880(5)
C113_3 C 0.9363(4) 0.97934(12) 0.54837(5)
C114_3 C 0.9319(5) 0.98004(15) 0.56664(5)
C115_3 C 0.8662(7) 0.9572(2) 0.57580(7)
C116_3 C 0.7762(13) 0.9705(5) 0.58171(19)
H68_3 H 0.764661 0.993083 0.579905
C117_3 C 0.7042(16) 0.9525(6) 0.5899(2)
H69_3 H 0.643638 0.961776 0.593054
C118_3 C 0.7269(16) 0.9201(5) 0.5932(3)
H70_3 H 0.680817 0.906932 0.599020
C119_3 C 0.8200(18) 0.9051(5) 0.5881(2)
H71_3 H 0.834142 0.882822 0.590308
C120_3 C 0.8863(12) 0.9254(3) 0.57983(16)
H72_3 H 0.947988 0.916783 0.576874
Zn4 Zn 0.26933(3) 0.78980(2) 0.48696(2)
O14 O 0.250000 0.750000 0.50073(5)
O15 O 0.1564(2) 0.82079(7) 0.49071(6)
O18_3 O 0.3243(8) 0.73628(17) 0.53795(6)
O20_2 O 0.2723(6) 0.7768(2) 0.46375(5)
Zn8_4 Zn 0.13324(3) 0.75655(2) 0.51487(2)
O1_6 O 1.000000 -0.000000 0.75073(5)
C37_3 C 0.6649(3) 0.14136(10) 0.75795(5)
H21_3 H 0.668968 0.162657 0.753212
C38_3 C 0.7334(3) 0.11737(10) 0.75336(6)
H22_3 H 0.782601 0.122663 0.745400
C39_3 C 0.7304(3) 0.08599(10) 0.76025(6)
C40_3 C 0.8050(3) 0.06073(9) 0.75567(6)
O5_3 O 0.8711(2) 0.06721(8) 0.74471(5)
O6_3 O 0.7980(3) 0.03267(7) 0.76395(5)
C41_3 C 0.6559(4) 0.07807(11) 0.77211(8)
H23_3 H 0.653220 0.056833 0.776958
C42_3 C 0.5860(4) 0.10189(12) 0.77666(7)
H24_3 H 0.536097 0.096448 0.784464
C43_3 C 0.5898(3) 0.13382(10) 0.76966(5)
C44_3 C 0.5163(3) 0.15932(10) 0.77507(5)
C45_5 C 0.4187(4) 0.15076(14) 0.77803(8)
H25_5 H 0.396679 0.129481 0.775108
C46_5 C 0.3527(4) 0.17333(16) 0.78530(7)
H26_5 H 0.287920 0.167030 0.787775
C47_3 C 0.5455(5) 0.19187(12) 0.77790(8)
H27_3 H 0.610214 0.198145 0.775306
C48_5 C 0.4808(5) 0.21535(13) 0.78450(10)
H28_3 H 0.500852 0.237375 0.786019
C49_5 C 0.3855(4) 0.20557(11) 0.78880(5)
C50_5 C 0.3137(4) 0.22934(12) 0.79837(5)
C51_5 C 0.3181(5) 0.23004(15) 0.81664(5)
C52_5 C 0.3838(7) 0.2072(2) 0.82580(7)
C53_5 C 0.4738(13) 0.2205(5) 0.83171(19)
H29_5 H 0.485339 0.243083 0.829905
C54_3 C 0.5458(16) 0.2025(6) 0.8399(2)
H30_3 H 0.606362 0.211776 0.843054
C55_3 C 0.5231(16) 0.1701(5) 0.8432(3)
H31_3 H 0.569183 0.156932 0.849020
C56_5 C 0.4300(18) 0.1551(5) 0.8381(2)
H32_5 H 0.415858 0.132822 0.840308
C57_5 C 0.3637(12) 0.1754(3) 0.82983(16)
H33_5 H 0.302012 0.166783 0.826874
C58_8 C 0.250000 0.250000 0.78909(7)
C59_8 C 0.250000 0.250000 0.77020(9)
C60_8 C 0.250000 0.250000 0.73452(19)
H34_8 H 0.249996 0.250000 0.722507
C61_5 C 0.3183(14) 0.2674(4) 0.74294(12)
H35_5 H 0.366229 0.279084 0.736783
C62_5 C 0.3189(9) 0.2683(3) 0.76080(9)
H36_5 H 0.365768 0.281157 0.766554
C63_8 C 0.250000 0.250000 0.82602(8)
C64_8 C 0.250000 0.250000 0.84596(10)
C65_5 C 0.3161(11) 0.2725(3) 0.85468(7)
H37_5 H 0.361866 0.285426 0.848654
C66_5 C 0.3082(11) 0.2742(4) 0.87276(9)
H38_5 H 0.340722 0.290836 0.878916
C67_8 C 0.250000 0.250000 0.88144(9)
C68_8 C 0.250000 0.250000 0.90068(11)
C69_8 C 0.250000 0.250000 0.93674(10)
C70_8 C 0.250000 0.250000 0.95621(10)
O7_4 O 0.2723(6) 0.2768(2) 0.96375(5)
C71_5 C 0.2889(10) 0.2767(3) 0.92789(9)
H39_5 H 0.319916 0.293946 0.933866
C72_5 C 0.2819(12) 0.2779(3) 0.90997(8)
H40_5 H 0.298576 0.297432 0.904133
C108_4 C 0.0813(4) 0.34924(14) 0.77803(8)
H64_4 H 0.103321 0.370519 0.775108
C109_4 C 0.1473(4) 0.32667(16) 0.78530(7)
H65_4 H 0.212080 0.332970 0.787775
C111_4 C 0.0192(5) 0.28465(13) 0.78450(10)
C112_4 C 0.1145(4) 0.29443(11) 0.78880(5)
C113_4 C 0.1863(4) 0.27066(12) 0.79837(5)
C114_4 C 0.1819(5) 0.26996(15) 0.81664(5)
C115_4 C 0.1162(7) 0.2928(2) 0.82580(7)
C116_4 C 0.0262(13) 0.2795(5) 0.83171(19)
H68_4 H 0.014661 0.256917 0.829905
C119_4 C 0.0700(18) 0.3449(5) 0.8381(2)
H71_4 H 0.084142 0.367178 0.840308
C120_4 C 0.1363(12) 0.3246(3) 0.82983(16)
H72_4 H 0.197988 0.333217 0.826874
C121_4 C 0.1817(14) 0.2326(4) 0.74294(12)
H73_4 H 0.133771 0.220916 0.736783
C122_4 C 0.1811(9) 0.2317(3) 0.76080(9)
H74_4 H 0.134232 0.218843 0.766554
C123_4 C 0.1839(11) 0.2275(3) 0.85468(7)
H75_4 H 0.138134 0.214574 0.848654
C124_4 C 0.1918(11) 0.2258(4) 0.87276(9)
H76_4 H 0.159278 0.209164 0.878916
O13_2 O 0.2277(6) 0.2232(2) 0.96375(5)
C125_4 C 0.2111(10) 0.2233(3) 0.92789(9)
H77_4 H 0.180084 0.206054 0.933866
C126_4 C 0.2181(12) 0.2221(3) 0.90997(8)
H78_4 H 0.201424 0.202568 0.904133
Zn9_2 Zn 0.23067(3) 0.21020(2) 0.98696(2)
Zn12_3 Zn 0.26933(3) 0.28980(2) 0.98696(2)
Zn1_3 Zn 0.88324(3) 0.99345(2) 0.76487(2)
O1_7 O 1.000000 1.000000 0.75073(5)
C1_3 C 0.6944(4) 0.85632(11) 0.73150(7)
H1_3 H 0.712017 0.834952 0.727929
C2_3 C 0.7679(4) 0.87851(10) 0.73608(9)
H2_3 H 0.834177 0.872279 0.735330
C3_3 C 0.7424(3) 0.91039(9) 0.74187(6)
C4_3 C 0.8222(3) 0.93417(9) 0.74639(6)
O2_3 O 0.9064(2) 0.92921(7) 0.74071(6)
O3_3 O 0.7968(3) 0.95869(8) 0.75628(5)
C5_3 C 0.6433(4) 0.91936(11) 0.74267(7)
H3_3 H 0.625694 0.940515 0.746568
C6_3 C 0.5701(3) 0.89694(10) 0.73769(6)
H4_3 H 0.503844 0.903351 0.738132
C7_3 C 0.5946(3) 0.86504(9) 0.73207(5)
C8_3 C 0.5170(3) 0.84093(10) 0.72649(5)
C9_5 C 0.4373(4) 0.85244(10) 0.71700(6)
H5_5 H 0.429336 0.875239 0.715184
C10_5 C 0.3687(4) 0.83006(12) 0.71014(6)
H6_5 H 0.314897 0.837798 0.703784
C11_3 C 0.5261(4) 0.80704(11) 0.72935(6)
H7_3 H 0.579000 0.799318 0.735934
C12_5 C 0.4601(4) 0.78445(11) 0.72285(6)
H8_5 H 0.467269 0.761737 0.725020
C13_5 C 0.3816(4) 0.79633(12) 0.71287(5)
C14_5 C 0.3102(4) 0.77211(11) 0.70327(5)
C15_5 C 0.3151(5) 0.77098(14) 0.68494(6)
C16_5 C 0.3786(6) 0.79441(19) 0.67566(6)
C17_5 C 0.4802(11) 0.7899(5) 0.67659(15)
H9_3 H 0.507308 0.771958 0.682612
C18_3 C 0.5415(18) 0.8134(7) 0.6681(3)
H10_3 H 0.609870 0.811812 0.669447
C19_3 C 0.5056(19) 0.8373(6) 0.6583(2)
H11_3 H 0.547794 0.851273 0.652117
C20_5 C 0.4088(19) 0.8411(5) 0.65735(19)
H12_5 H 0.384106 0.858794 0.650872
C21_5 C 0.3419(13) 0.8203(3) 0.66545(11)
H13_5 H 0.274022 0.823429 0.664140
C22_7 C 0.250000 0.750000 0.71264(7)
C23_7 C 0.250000 0.750000 0.73142(7)
C24_7 C 0.250000 0.750000 0.76779(14)
H14_7 H 0.249999 0.750002 0.779801
C25_5 C 0.2959(11) 0.7254(3) 0.75869(11)
H15_5 H 0.328082 0.708345 0.764619
C26_5 C 0.2957(7) 0.7251(2) 0.74062(8)
H16_5 H 0.327022 0.707814 0.734766
C27_7 C 0.250000 0.750000 0.67560(7)
C28_7 C 0.250000 0.750000 0.65548(10)
C29_5 C 0.3359(8) 0.7385(3) 0.64681(7)
H17_5 H 0.390320 0.730949 0.653079
C30_5 C 0.3382(9) 0.7385(3) 0.62881(10)
H18_5 H 0.394037 0.731483 0.622782
C31_7 C 0.250000 0.750000 0.61984(10)
C32_7 C 0.250000 0.750000 0.60090(11)
C33_7 C 0.250000 0.750000 0.56450(12)
C34_7 C 0.250000 0.750000 0.54531(9)
C35_5 C 0.3248(15) 0.7348(4) 0.57352(9)
H19_5 H 0.376749 0.725076 0.567448
C36_5 C 0.3256(16) 0.7336(4) 0.59173(10)
H20_5 H 0.375161 0.722025 0.597567
C81_4 C 0.0627(4) 0.64756(10) 0.71700(6)
H45_4 H 0.070664 0.624761 0.715184
C82_4 C 0.1313(4) 0.66994(12) 0.71014(6)
H46_4 H 0.185103 0.662202 0.703784
C84_4 C 0.0399(4) 0.71555(11) 0.72285(6)
H48_4 H 0.032731 0.738263 0.725020
C85_4 C 0.1184(4) 0.70367(12) 0.71287(5)
C86_4 C 0.1898(4) 0.72789(11) 0.70327(5)
C87_4 C 0.1849(5) 0.72902(14) 0.68494(6)
C88_4 C 0.1214(6) 0.70559(19) 0.67566(6)
C89_4 C 0.0198(11) 0.7101(5) 0.67659(15)
C92_4 C 0.0912(19) 0.6589(5) 0.65735(19)
H52_4 H 0.115894 0.641206 0.650872
C93_4 C 0.1581(13) 0.6797(3) 0.66545(11)
H53_4 H 0.225978 0.676571 0.664140
C94_4 C 0.2041(11) 0.7746(3) 0.75869(11)
H54_4 H 0.171918 0.791655 0.764619
C95_4 C 0.2043(7) 0.7749(2) 0.74062(8)
H55_4 H 0.172978 0.792186 0.734766
C96_4 C 0.1641(8) 0.7615(3) 0.64681(7)
H56_4 H 0.109680 0.769051 0.653079
C97_4 C 0.1618(9) 0.7615(3) 0.62881(10)
H57_4 H 0.105963 0.768517 0.622782
O10_2 O 0.1757(8) 0.76372(17) 0.53795(6)
C98_4 C 0.1752(15) 0.7652(4) 0.57352(9)
H58_4 H 0.123251 0.774924 0.567448
C99_4 C 0.1744(16) 0.7664(4) 0.59173(10)
H59_4 H 0.124839 0.777975 0.597567
O19_3 O 0.9257(8) 0.98628(17) 0.78795(6)
C24_8 C 1.000000 -0.000000 0.01779(14)
H14_8 H 0.999999 -0.000002 0.029801
O9_4 O 0.4532(3) 0.20869(8) 0.00628(5)
Zn5_2 Zn 0.36676(3) 0.24345(2) 0.01487(2)
C22_8 C 1.000000 0.000000 0.96264(7)
C23_8 C 1.000000 -0.000000 0.98142(7)
C27_8 C 1.000000 0.000000 0.92560(7)
C28_8 C 1.000000 0.000000 0.90548(10)
C31_8 C 1.000000 -0.000000 0.86984(10)
C32_8 C 1.000000 -0.000000 0.85090(11)
C33_8 C 1.000000 -0.000000 0.81450(12)
C34_8 C 1.000000 -0.000000 0.79531(9)
C73_4 C 0.5556(4) 0.10632(11) 0.98150(7)
H41_4 H 0.537983 0.084952 0.977929
C74_6 C 0.4821(4) 0.12851(10) 0.98608(9)
H42_6 H 0.415823 0.122279 0.985330
C75_4 C 0.5076(3) 0.16039(9) 0.99187(6)
C76_6 C 0.4278(3) 0.18417(9) 0.99639(6)
O8_2 O 0.3436(2) 0.17921(7) 0.99071(6)
C77_4 C 0.6067(4) 0.16936(11) 0.99267(7)
H43_4 H 0.624306 0.190515 0.996568
C78_4 C 0.6799(3) 0.14694(10) 0.98769(6)
H44_4 H 0.746156 0.153351 0.988132
C79_4 C 0.6554(3) 0.11504(9) 0.98207(5)
C80_4 C 0.7330(3) 0.09093(10) 0.97649(5)
C81_5 C 0.8127(4) 0.10244(10) 0.96700(6)
H45_5 H 0.820664 0.125239 0.965184
C82_5 C 0.8813(4) 0.08006(12) 0.96014(6)
H46_5 H 0.935103 0.087798 0.953784
C83_4 C 0.7239(4) 0.05704(11) 0.97935(6)
H47_4 H 0.671000 0.049318 0.985934
C84_5 C 0.7899(4) 0.03445(11) 0.97285(6)
H48_5 H 0.782731 0.011737 0.975020
C85_5 C 0.8684(4) 0.04633(12) 0.96287(5)
C86_5 C 0.9398(4) 0.02211(11) 0.95327(5)
C87_5 C 0.9349(5) 0.02098(14) 0.93494(6)
C88_5 C 0.8714(6) 0.04441(19) 0.92566(6)
C89_5 C 0.7698(11) 0.0399(5) 0.92659(15)
H49_4 H 0.742692 0.021958 0.932612
C90_4 C 0.7085(18) 0.0634(7) 0.9181(3)
H50_4 H 0.640130 0.061812 0.919447
C91_4 C 0.7444(19) 0.0873(6) 0.9083(2)
H51_4 H 0.702206 0.101273 0.902117
C92_5 C 0.8412(19) 0.0911(5) 0.90735(19)
H52_5 H 0.865894 0.108794 0.900872
C93_5 C 0.9081(13) 0.0703(3) 0.91545(11)
H53_5 H 0.975978 0.073429 0.914140
C24_9 C 1.000000 1.000000 0.01779(14)
H14_9 H 0.999999 0.999998 0.029801
C58_9 C 1.000000 0.500000 0.03909(7)
C59_9 C 1.000000 0.500000 0.02020(9)
C63_9 C 1.000000 0.500000 0.07602(8)
C64_9 C 1.000000 0.500000 0.09596(10)
C67_9 C 1.000000 0.500000 0.13144(9)
C68_9 C 1.000000 0.500000 0.15068(11)
C69_9 C 1.000000 0.500000 0.18674(10)
C70_9 C 1.000000 0.500000 0.20621(10)
C94_5 C 0.9541(11) 0.9754(3) 0.00869(11)
H54_5 H 0.921918 0.958345 0.014619
C100_4 C 0.5851(3) 0.39136(10) 0.00795(5)
H60_4 H 0.581032 0.412657 0.003212
C101_4 C 0.5166(3) 0.36737(10) 0.00336(6)
C102_4 C 0.5196(3) 0.33599(10) 0.01025(6)
C103_6 C 0.4450(3) 0.31073(9) 0.00567(6)
O12_6 O 0.4520(3) 0.28267(7) 0.01395(5)
C104_4 C 0.5941(4) 0.32807(11) 0.02211(8)
H62_4 H 0.596780 0.306833 0.026958
C105_4 C 0.6640(4) 0.35189(12) 0.02666(7)
H63_4 H 0.713903 0.346448 0.034464
C106_4 C 0.6602(3) 0.38382(10) 0.01966(5)
C107_4 C 0.7337(3) 0.40932(10) 0.02507(5)
C108_5 C 0.8313(4) 0.40076(14) 0.02803(8)
H64_5 H 0.853321 0.379481 0.025108
C109_5 C 0.8973(4) 0.42333(16) 0.03530(7)
H65_5 H 0.962080 0.417030 0.037775
C110_4 C 0.7045(5) 0.44187(12) 0.02790(8)
H66_4 H 0.639786 0.448145 0.025306
C111_5 C 0.7692(5) 0.46535(13) 0.03450(10)
H67_4 H 0.749148 0.487375 0.036019
C112_5 C 0.8645(4) 0.45557(11) 0.03880(5)
C113_5 C 0.9363(4) 0.47934(12) 0.04837(5)
C114_5 C 0.9319(5) 0.48004(15) 0.06664(5)
C115_5 C 0.8662(7) 0.4572(2) 0.07580(7)
C116_5 C 0.7762(13) 0.4705(5) 0.08171(19)
H68_5 H 0.764661 0.493083 0.079905
C117_4 C 0.7042(16) 0.4525(6) 0.0899(2)
H69_4 H 0.643638 0.461776 0.093054
C118_4 C 0.7269(16) 0.4201(5) 0.0932(3)
H70_4 H 0.680817 0.406932 0.099020
C119_5 C 0.8200(18) 0.4051(5) 0.0881(2)
H71_5 H 0.834142 0.382822 0.090308
C120_5 C 0.8863(12) 0.4254(3) 0.07983(16)
H72_5 H 0.947988 0.416783 0.076874
C122_5 C 0.9311(9) 0.5183(3) 0.01080(9)
H74_5 H 0.884232 0.531157 0.016554
C123_5 C 0.9339(11) 0.5225(3) 0.10468(7)
H75_5 H 0.888134 0.535426 0.098654
C124_5 C 0.9418(11) 0.5242(4) 0.12276(9)
H76_5 H 0.909278 0.540836 0.128916
O13_3 O 0.9777(6) 0.5268(2) 0.21375(5)
C125_5 C 0.9611(10) 0.5267(3) 0.17789(9)
H77_5 H 0.930084 0.543946 0.183866
C126_5 C 0.9681(12) 0.5279(3) 0.15997(8)
H78_5 H 0.951424 0.547432 0.154133
Zn9_3 Zn 0.98067(3) 0.53980(2) 0.23696(2)
O14_2 O 0.250000 0.250000 0.00073(5)
O18_4 O 0.3243(8) 0.23628(17) 0.03795(6)
C22_9 C 1.000000 1.000000 0.96264(7)
C23_9 C 1.000000 1.000000 0.98142(7)
C27_9 C 1.000000 1.000000 0.92560(7)
C28_9 C 1.000000 1.000000 0.90548(10)
C31_9 C 1.000000 1.000000 0.86984(10)
C32_9 C 1.000000 1.000000 0.85090(11)
C33_9 C 1.000000 1.000000 0.81450(12)
C34_9 C 1.000000 1.000000 0.79531(9)
C60_9 C 1.000000 0.500000 0.98452(19)
H34_9 H 0.999996 0.500000 0.972507
C95_5 C 0.9543(7) 0.9751(2) 0.99062(8)
H55_5 H 0.922978 0.957814 0.984766
C96_5 C 0.9141(8) 0.9885(3) 0.89681(7)
H56_5 H 0.859680 0.980949 0.903079
C97_5 C 0.9118(9) 0.9885(3) 0.87881(10)
H57_5 H 0.855963 0.981483 0.872782
C98_5 C 0.9252(15) 0.9848(4) 0.82352(9)
H58_5 H 0.873251 0.975076 0.817448
C99_5 C 0.9244(16) 0.9836(4) 0.84173(10)
H59_5 H 0.874839 0.972025 0.847567
H61_6 H 0.467399 0.372663 0.995400
O11_6 O 0.3789(2) 0.31721(8) 0.99471(5)
C121_5 C 0.9317(14) 0.5174(4) 0.99294(12)
H73_5 H 0.883771 0.529084 0.986783
O15_2 O 0.1564(2) 0.32079(7) 0.99071(6)
Zn8_5 Zn 0.13324(3) 0.25655(2) 0.01487(2)
O1_8 O 1.000000 0.500000 0.25073(5)
C1_4 C 0.6944(4) 0.35632(11) 0.23150(7)
H1_4 H 0.712017 0.334952 0.227929
C2_4 C 0.7679(4) 0.37851(10) 0.23608(9)
H2_4 H 0.834177 0.372279 0.235330
C3_4 C 0.7424(3) 0.41039(9) 0.24187(6)
C4_4 C 0.8222(3) 0.43417(9) 0.24639(6)
O2_4 O 0.9064(2) 0.42921(7) 0.24071(6)
O3_4 O 0.7968(3) 0.45869(8) 0.25628(5)
C5_4 C 0.6433(4) 0.41936(11) 0.24267(7)
H3_4 H 0.625694 0.440515 0.246568
C6_4 C 0.5701(3) 0.39694(10) 0.23769(6)
H4_4 H 0.503844 0.403351 0.238132
C7_4 C 0.5946(3) 0.36504(9) 0.23207(5)
C8_4 C 0.5170(3) 0.34093(10) 0.22649(5)
C9_6 C 0.4373(4) 0.35244(10) 0.21700(6)
H5_6 H 0.429336 0.375239 0.215184
C10_6 C 0.3687(4) 0.33006(12) 0.21014(6)
H6_6 H 0.314897 0.337798 0.203784
C11_4 C 0.5261(4) 0.30704(11) 0.22935(6)
H7_4 H 0.579000 0.299318 0.235934
C12_6 C 0.4601(4) 0.28445(11) 0.22285(6)
H8_6 H 0.467269 0.261737 0.225020
C13_6 C 0.3816(4) 0.29633(12) 0.21287(5)
C14_6 C 0.3102(4) 0.27211(11) 0.20327(5)
C15_6 C 0.3151(5) 0.27098(14) 0.18494(6)
C16_6 C 0.3786(6) 0.29441(19) 0.17566(6)
C17_6 C 0.4802(11) 0.2899(5) 0.17659(15)
H9_4 H 0.507308 0.271958 0.182612
C18_4 C 0.5415(18) 0.3134(7) 0.1681(3)
H10_4 H 0.609870 0.311812 0.169447
C19_4 C 0.5056(19) 0.3373(6) 0.1583(2)
H11_4 H 0.547794 0.351273 0.152117
C20_6 C 0.4088(19) 0.3411(5) 0.15735(19)
H12_6 H 0.384106 0.358794 0.150872
C21_6 C 0.3419(13) 0.3203(3) 0.16545(11)
H13_6 H 0.274022 0.323429 0.164140
C22_10 C 0.250000 0.250000 0.21264(7)
C23_10 C 0.250000 0.250000 0.23142(7)
C24_10 C 0.250000 0.250000 0.26779(14)
H14_10 H 0.249999 0.250002 0.279801
C25_6 C 0.2959(11) 0.2254(3) 0.25869(11)
H15_6 H 0.328082 0.208345 0.264619
C26_6 C 0.2957(7) 0.2251(2) 0.24062(8)
H16_6 H 0.327022 0.207814 0.234766
C27_10 C 0.250000 0.250000 0.17560(7)
C28_10 C 0.250000 0.250000 0.15548(10)
C29_6 C 0.3359(8) 0.2385(3) 0.14681(7)
H17_6 H 0.390320 0.230949 0.153079
C30_6 C 0.3382(9) 0.2385(3) 0.12881(10)
H18_6 H 0.394037 0.231483 0.122782
C31_10 C 0.250000 0.250000 0.11984(10)
C32_10 C 0.250000 0.250000 0.10090(11)
C33_10 C 0.250000 0.250000 0.06450(12)
C34_10 C 0.250000 0.250000 0.04531(9)
C35_6 C 0.3248(15) 0.2348(4) 0.07352(9)
H19_6 H 0.376749 0.225076 0.067448
C36_6 C 0.3256(16) 0.2336(4) 0.09173(10)
H20_6 H 0.375161 0.222025 0.097567
C37_4 C 0.6649(3) 0.64136(10) 0.25795(5)
H21_4 H 0.668968 0.662657 0.253212
C38_4 C 0.7334(3) 0.61737(10) 0.25336(6)
H22_4 H 0.782601 0.622663 0.245400
C39_4 C 0.7304(3) 0.58599(10) 0.26025(6)
C40_4 C 0.8050(3) 0.56073(9) 0.25567(6)
O5_4 O 0.8711(2) 0.56721(8) 0.24471(5)
O6_4 O 0.7980(3) 0.53267(7) 0.26395(5)
C41_4 C 0.6559(4) 0.57807(11) 0.27211(8)
H23_4 H 0.653220 0.556833 0.276958
C42_4 C 0.5860(4) 0.60189(12) 0.27666(7)
H24_4 H 0.536097 0.596448 0.284464
C43_4 C 0.5898(3) 0.63382(10) 0.26966(5)
C44_4 C 0.5163(3) 0.65932(10) 0.27507(5)
C45_6 C 0.4187(4) 0.65076(14) 0.27803(8)
H25_6 H 0.396679 0.629481 0.275108
C46_6 C 0.3527(4) 0.67333(16) 0.28530(7)
H26_6 H 0.287920 0.667030 0.287775
C47_4 C 0.5455(5) 0.69187(12) 0.27790(8)
H27_4 H 0.610214 0.698145 0.275306
C48_6 C 0.4808(5) 0.71535(13) 0.28450(10)
H28_4 H 0.500852 0.737375 0.286019
C49_6 C 0.3855(4) 0.70557(11) 0.28880(5)
C50_6 C 0.3137(4) 0.72934(12) 0.29837(5)
C51_6 C 0.3181(5) 0.73004(15) 0.31664(5)
C52_6 C 0.3838(7) 0.7072(2) 0.32580(7)
C53_6 C 0.4738(13) 0.7205(5) 0.33171(19)
H29_6 H 0.485339 0.743083 0.329905
C54_4 C 0.5458(16) 0.7025(6) 0.3399(2)
H30_4 H 0.606362 0.711776 0.343054
C55_4 C 0.5231(16) 0.6701(5) 0.3432(3)
H31_4 H 0.569183 0.656932 0.349020
C56_6 C 0.4300(18) 0.6551(5) 0.3381(2)
H32_6 H 0.415858 0.632822 0.340308
C57_6 C 0.3637(12) 0.6754(3) 0.32983(16)
H33_6 H 0.302012 0.666783 0.326874
C58_10 C 0.250000 0.750000 0.28909(7)
C59_10 C 0.250000 0.750000 0.27020(9)
C60_10 C 0.250000 0.750000 0.23452(19)
H34_10 H 0.249996 0.750000 0.222507
C61_6 C 0.3183(14) 0.7674(4) 0.24294(12)
H35_6 H 0.366229 0.779084 0.236783
C62_6 C 0.3189(9) 0.7683(3) 0.26080(9)
H36_6 H 0.365768 0.781157 0.266554
C63_10 C 0.250000 0.750000 0.32602(8)
C64_10 C 0.250000 0.750000 0.34596(10)
C65_6 C 0.3161(11) 0.7725(3) 0.35468(7)
H37_6 H 0.361866 0.785426 0.348654
C66_6 C 0.3082(11) 0.7742(4) 0.37276(9)
H38_6 H 0.340722 0.790836 0.378916
C67_10 C 0.250000 0.750000 0.38144(9)
C68_10 C 0.250000 0.750000 0.40068(11)
C69_10 C 0.250000 0.750000 0.43674(10)
C70_10 C 0.250000 0.750000 0.45621(10)
C71_6 C 0.2889(10) 0.7767(3) 0.42789(9)
H39_6 H 0.319916 0.793946 0.433866
C72_6 C 0.2819(12) 0.7779(3) 0.40997(8)
H40_6 H 0.298576 0.797432 0.404133
C81_6 C 0.0627(4) 0.14756(10) 0.21700(6)
H45_6 H 0.070664 0.124761 0.215184
C82_6 C 0.1313(4) 0.16994(12) 0.21014(6)
H46_6 H 0.185103 0.162202 0.203784
C84_6 C 0.0399(4) 0.21555(11) 0.22285(6)
H48_6 H 0.032731 0.238263 0.225020
C85_6 C 0.1184(4) 0.20367(12) 0.21287(5)
C86_6 C 0.1898(4) 0.22789(11) 0.20327(5)
C87_6 C 0.1849(5) 0.22902(14) 0.18494(6)
C88_6 C 0.1214(6) 0.20559(19) 0.17566(6)
C89_6 C 0.0198(11) 0.2101(5) 0.17659(15)
C92_6 C 0.0912(19) 0.1589(5) 0.15735(19)
H52_6 H 0.115894 0.141206 0.150872
C93_6 C 0.1581(13) 0.1797(3) 0.16545(11)
H53_6 H 0.225978 0.176571 0.164140
C94_6 C 0.2041(11) 0.2746(3) 0.25869(11)
H54_6 H 0.171918 0.291655 0.264619
C95_6 C 0.2043(7) 0.2749(2) 0.24062(8)
H55_6 H 0.172978 0.292186 0.234766
C96_6 C 0.1641(8) 0.2615(3) 0.14681(7)
H56_6 H 0.109680 0.269051 0.153079
C97_6 C 0.1618(9) 0.2615(3) 0.12881(10)
H57_6 H 0.105963 0.268517 0.122782
O10_3 O 0.1757(8) 0.26372(17) 0.03795(6)
C98_6 C 0.1752(15) 0.2652(4) 0.07352(9)
H58_6 H 0.123251 0.274924 0.067448
C99_6 C 0.1744(16) 0.2664(4) 0.09173(10)
H59_6 H 0.124839 0.277975 0.097567
C108_6 C 0.0813(4) 0.84924(14) 0.27803(8)
H64_6 H 0.103321 0.870519 0.275108
C109_6 C 0.1473(4) 0.82667(16) 0.28530(7)
H65_6 H 0.212080 0.832970 0.287775
C111_6 C 0.0192(5) 0.78465(13) 0.28450(10)
C112_6 C 0.1145(4) 0.79443(11) 0.28880(5)
C113_6 C 0.1863(4) 0.77066(12) 0.29837(5)
C114_6 C 0.1819(5) 0.76996(15) 0.31664(5)
C115_6 C 0.1162(7) 0.7928(2) 0.32580(7)
C116_6 C 0.0262(13) 0.7795(5) 0.33171(19)
H68_6 H 0.014661 0.756917 0.329905
C119_6 C 0.0700(18) 0.8449(5) 0.3381(2)
H71_6 H 0.084142 0.867178 0.340308
C120_6 C 0.1363(12) 0.8246(3) 0.32983(16)
H72_6 H 0.197988 0.833217 0.326874
C121_6 C 0.1817(14) 0.7326(4) 0.24294(12)
H73_6 H 0.133771 0.720916 0.236783
C122_6 C 0.1811(9) 0.7317(3) 0.26080(9)
H74_6 H 0.134232 0.718843 0.266554
C123_6 C 0.1839(11) 0.7275(3) 0.35468(7)
H75_6 H 0.138134 0.714574 0.348654
C124_6 C 0.1918(11) 0.7258(4) 0.37276(9)
H76_6 H 0.159278 0.709164 0.378916
O13_4 O 0.2277(6) 0.7232(2) 0.46375(5)
C125_6 C 0.2111(10) 0.7233(3) 0.42789(9)
H77_6 H 0.180084 0.706054 0.433866
C126_6 C 0.2181(12) 0.7221(3) 0.40997(8)
H78_6 H 0.201424 0.702568 0.404133
O3_5 O 0.0468(3) 0.29131(8) 0.00628(5)
C40_5 C 0.0550(3) 0.18927(9) 0.00567(6)
O6_5 O 0.0480(3) 0.21733(7) 0.01395(5)
C2_5 C 0.0179(4) 0.37149(10) 0.98608(9)
H2_5 H 0.084177 0.377721 0.985330
C4_5 C 0.0722(3) 0.31583(9) 0.99639(6)
H22_5 H 0.032601 0.127337 0.995400
O5_5 O 0.1211(2) 0.18279(8) 0.99471(5)
C2_6 C 0.0179(4) 0.87149(10) 0.48608(9)
H2_6 H 0.084177 0.877721 0.485330
C4_6 C 0.0722(3) 0.81583(9) 0.49639(6)
O3_6 O 0.0468(3) 0.79131(8) 0.50628(5)
H22_6 H 0.032601 0.627337 0.495400
C40_6 C 0.0550(3) 0.68927(9) 0.50567(6)
O5_6 O 0.1211(2) 0.68279(8) 0.49471(5)
O6_6 O 0.0480(3) 0.71733(7) 0.51395(5)
C100_5 C 0.8351(3) 0.35864(10) 0.75795(5)
H60_5 H 0.831032 0.337343 0.753212
C101_5 C 0.7666(3) 0.38263(10) 0.75336(6)
H61_7 H 0.717399 0.377337 0.745400
C102_5 C 0.7696(3) 0.41401(10) 0.76025(6)
C103_7 C 0.6950(3) 0.43927(9) 0.75567(6)
O11_7 O 0.6289(2) 0.43279(8) 0.74471(5)
O12_7 O 0.7020(3) 0.46733(7) 0.76395(5)
C104_5 C 0.8441(4) 0.42193(11) 0.77211(8)
H62_5 H 0.846780 0.443167 0.776958
C105_5 C 0.9140(4) 0.39811(12) 0.77666(7)
H63_5 H 0.963903 0.403552 0.784464
C106_5 C 0.9102(3) 0.36618(10) 0.76966(5)
C107_5 C 0.9837(3) 0.34068(10) 0.77507(5)
C110_5 C 0.9545(5) 0.30813(12) 0.77790(8)
H66_5 H 0.889786 0.301855 0.775306
H67_5 H 0.999148 0.262625 0.786019
C117_5 C 0.9542(16) 0.2975(6) 0.8399(2)
H69_5 H 0.893638 0.288224 0.843054
C118_5 C 0.9769(16) 0.3299(5) 0.8432(3)
H70_5 H 0.930817 0.343068 0.849020
Zn3 Zn 0.61676(3) 0.50655(2) 0.76487(2)
Zn4_2 Zn 0.51933(3) 0.46020(2) 0.73696(2)
O14_3 O 0.500000 0.500000 0.75073(5)
O15_3 O 0.4064(2) 0.42921(7) 0.74071(6)
O17_3 O 0.7032(3) 0.54131(8) 0.75628(5)
O18_5 O 0.5743(8) 0.51372(17) 0.78795(6)
O20_3 O 0.5223(6) 0.4732(2) 0.71375(5)
C73_5 C 0.8056(4) 0.64368(11) 0.73150(7)
H41_5 H 0.787983 0.665048 0.727929
C74_7 C 0.7321(4) 0.62149(10) 0.73608(9)
H42_7 H 0.665823 0.627721 0.735330
C75_5 C 0.7576(3) 0.58961(9) 0.74187(6)
C76_7 C 0.6778(3) 0.56583(9) 0.74639(6)
O8_3 O 0.5936(2) 0.57079(7) 0.74071(6)
C77_5 C 0.8567(4) 0.58064(11) 0.74267(7)
H43_5 H 0.874306 0.559485 0.746568
C78_5 C 0.9299(3) 0.60306(10) 0.73769(6)
H44_5 H 0.996156 0.596649 0.738132
C79_5 C 0.9054(3) 0.63496(9) 0.73207(5)
C80_5 C 0.9830(3) 0.65907(10) 0.72649(5)
C83_5 C 0.9739(4) 0.69296(11) 0.72935(6)
H47_5 H 0.921000 0.700682 0.735934
H49_5 H 0.992692 0.728042 0.682612
C90_5 C 0.9585(18) 0.6866(7) 0.6681(3)
H50_5 H 0.890130 0.688188 0.669447
C91_5 C 0.9944(19) 0.6627(6) 0.6583(2)
H51_5 H 0.952206 0.648727 0.652117
Zn10_2 Zn 0.48067(3) 0.53980(2) 0.73696(2)
Zn8_6 Zn 0.38324(3) 0.49345(2) 0.76487(2)
Zn3_2 Zn 0.61676(3) 0.00655(2) 0.26487(2)
O14_4 O 0.500000 0.000000 0.25073(5)
O17_4 O 0.7032(3) 0.04131(8) 0.25628(5)
O18_6 O 0.5743(8) 0.01372(17) 0.28795(6)
C73_6 C 0.8056(4) 0.14368(11) 0.23150(7)
H41_6 H 0.787983 0.165048 0.227929
C74_8 C 0.7321(4) 0.12149(10) 0.23608(9)
H42_8 H 0.665823 0.127721 0.235330
C75_6 C 0.7576(3) 0.08961(9) 0.24187(6)
C76_8 C 0.6778(3) 0.06583(9) 0.24639(6)
O8_4 O 0.5936(2) 0.07079(7) 0.24071(6)
C77_6 C 0.8567(4) 0.08064(11) 0.24267(7)
H43_6 H 0.874306 0.059485 0.246568
C78_6 C 0.9299(3) 0.10306(10) 0.23769(6)
H44_6 H 0.996156 0.096649 0.238132
C79_6 C 0.9054(3) 0.13496(9) 0.23207(5)
C80_6 C 0.9830(3) 0.15907(10) 0.22649(5)
C83_6 C 0.9739(4) 0.19296(11) 0.22935(6)
H47_6 H 0.921000 0.200682 0.235934
H49_6 H 0.992692 0.228042 0.182612
C90_6 C 0.9585(18) 0.1866(7) 0.1681(3)
H50_6 H 0.890130 0.188188 0.169447
C91_6 C 0.9944(19) 0.1627(6) 0.1583(2)
H51_6 H 0.952206 0.148727 0.152117
C100_6 C 0.8351(3) 0.85864(10) 0.25795(5)
H60_6 H 0.831032 0.837343 0.253212
C101_6 C 0.7666(3) 0.88263(10) 0.25336(6)
H61_8 H 0.717399 0.877337 0.245400
C102_6 C 0.7696(3) 0.91401(10) 0.26025(6)
C103_8 C 0.6950(3) 0.93927(9) 0.25567(6)
O11_8 O 0.6289(2) 0.93279(8) 0.24471(5)
O12_8 O 0.7020(3) 0.96733(7) 0.26395(5)
C104_6 C 0.8441(4) 0.92193(11) 0.27211(8)
H62_6 H 0.846780 0.943167 0.276958
C105_6 C 0.9140(4) 0.89811(12) 0.27666(7)
H63_6 H 0.963903 0.903552 0.284464
C106_6 C 0.9102(3) 0.86618(10) 0.26966(5)
C107_6 C 0.9837(3) 0.84068(10) 0.27507(5)
C110_6 C 0.9545(5) 0.80813(12) 0.27790(8)
H66_6 H 0.889786 0.801855 0.275306
H67_6 H 0.999148 0.762625 0.286019
C117_6 C 0.9542(16) 0.7975(6) 0.3399(2)
H69_6 H 0.893638 0.788224 0.343054
C118_6 C 0.9769(16) 0.8299(5) 0.3432(3)
H70_6 H 0.930817 0.843068 0.349020
Zn4_3 Zn 0.51933(3) 0.96020(2) 0.23696(2)
Zn10_3 Zn 0.48067(3) 0.03980(2) 0.23696(2)
O14_5 O 0.500000 1.000000 0.25073(5)
O15_4 O 0.4064(2) 0.92921(7) 0.24071(6)
O20_4 O 0.5223(6) 0.9732(2) 0.21375(5)
Zn8_7 Zn 0.38324(3) 0.99345(2) 0.26487(2)
C24_11 C 0.500000 0.500000 0.01779(14)
H14_11 H 0.499999 0.499998 0.029801
C25_7 C 0.5459(11) 0.5246(3) 0.00869(11)
H15_7 H 0.578082 0.541655 0.014619
C37_5 C 0.9149(3) 0.10864(10) 0.00795(5)
H21_5 H 0.918968 0.087343 0.003212
C38_5 C 0.9834(3) 0.13263(10) 0.00336(6)
C39_5 C 0.9804(3) 0.16401(10) 0.01025(6)
C41_5 C 0.9059(4) 0.17193(11) 0.02211(8)
H23_5 H 0.903220 0.193167 0.026958
C42_5 C 0.8360(4) 0.14811(12) 0.02666(7)
H24_5 H 0.786097 0.153552 0.034464
C43_5 C 0.8398(3) 0.11618(10) 0.01966(5)
C44_5 C 0.7663(3) 0.09068(10) 0.02507(5)
C45_7 C 0.6687(4) 0.09924(14) 0.02803(8)
H25_7 H 0.646679 0.120519 0.025108
C46_7 C 0.6027(4) 0.07667(16) 0.03530(7)
H26_7 H 0.537920 0.082970 0.037775
C47_5 C 0.7955(5) 0.05813(12) 0.02790(8)
H27_5 H 0.860214 0.051855 0.025306
C48_7 C 0.7308(5) 0.03465(13) 0.03450(10)
H28_5 H 0.750852 0.012625 0.036019
C49_7 C 0.6355(4) 0.04443(11) 0.03880(5)
C50_7 C 0.5637(4) 0.02066(12) 0.04837(5)
C51_7 C 0.5681(5) 0.01996(15) 0.06664(5)
C52_7 C 0.6338(7) 0.0428(2) 0.07580(7)
C53_7 C 0.7238(13) 0.0295(5) 0.08171(19)
H29_7 H 0.735339 0.006917 0.079905
C54_5 C 0.7958(16) 0.0475(6) 0.0899(2)
H30_5 H 0.856362 0.038224 0.093054
C55_5 C 0.7731(16) 0.0799(5) 0.0932(3)
H31_5 H 0.819183 0.093068 0.099020
C56_7 C 0.6800(18) 0.0949(5) 0.0881(2)
H32_7 H 0.665858 0.117178 0.090308
C57_7 C 0.6137(12) 0.0746(3) 0.07983(16)
H33_7 H 0.552012 0.083217 0.076874
C58_11 C 0.500000 -0.000000 0.03909(7)
C59_11 C 0.500000 -0.000000 0.02020(9)
C63_11 C 0.500000 -0.000000 0.07602(8)
C64_11 C 0.500000 -0.000000 0.09596(10)
C67_11 C 0.500000 -0.000000 0.13144(9)
C68_11 C 0.500000 0.000000 0.15068(11)
C69_11 C 0.500000 -0.000000 0.18674(10)
C70_11 C 0.500000 -0.000000 0.20621(10)
C94_7 C 0.4541(11) 0.4754(3) 0.00869(11)
H54_7 H 0.421918 0.458345 0.014619
C122_7 C 0.4311(9) 0.0183(3) 0.01080(9)
H74_7 H 0.384232 0.031157 0.016554
C123_7 C 0.4339(11) 0.0225(3) 0.10468(7)
H75_7 H 0.388134 0.035426 0.098654
C124_7 C 0.4418(11) 0.0242(4) 0.12276(9)
H76_7 H 0.409278 0.040836 0.128916
O13_5 O 0.4777(6) 0.0268(2) 0.21375(5)
C125_7 C 0.4611(10) 0.0267(3) 0.17789(9)
H77_7 H 0.430084 0.043946 0.183866
C126_7 C 0.4681(12) 0.0279(3) 0.15997(8)
H78_7 H 0.451424 0.047432 0.154133
C1_5 C 0.9444(4) 0.39368(11) 0.98150(7)
H1_5 H 0.962017 0.415048 0.977929
C3_5 C 0.9924(3) 0.33961(9) 0.99187(6)
C5_5 C 0.8933(4) 0.33064(11) 0.99267(7)
H3_5 H 0.875694 0.309485 0.996568
C6_5 C 0.8201(3) 0.35306(10) 0.98769(6)
H4_5 H 0.753844 0.346649 0.988132
C7_5 C 0.8446(3) 0.38496(9) 0.98207(5)
C8_5 C 0.7670(3) 0.40907(10) 0.97649(5)
C9_7 C 0.6873(4) 0.39756(10) 0.96700(6)
H5_7 H 0.679336 0.374761 0.965184
C10_7 C 0.6187(4) 0.41994(12) 0.96014(6)
H6_7 H 0.564897 0.412202 0.953784
C11_5 C 0.7761(4) 0.44296(11) 0.97935(6)
H7_5 H 0.829000 0.450682 0.985934
C12_7 C 0.7101(4) 0.46555(11) 0.97285(6)
H8_7 H 0.717269 0.488263 0.975020
C13_7 C 0.6316(4) 0.45367(12) 0.96287(5)
C14_7 C 0.5602(4) 0.47789(11) 0.95327(5)
C15_7 C 0.5651(5) 0.47902(14) 0.93494(6)
C16_7 C 0.6286(6) 0.45559(19) 0.92566(6)
C17_7 C 0.7302(11) 0.4601(5) 0.92659(15)
H9_5 H 0.757308 0.478042 0.932612
C18_5 C 0.7915(18) 0.4366(7) 0.9181(3)
H10_5 H 0.859870 0.438188 0.919447
C19_5 C 0.7556(19) 0.4127(6) 0.9083(2)
H11_5 H 0.797794 0.398727 0.902117
C20_7 C 0.6588(19) 0.4089(5) 0.90735(19)
H12_7 H 0.634106 0.391206 0.900872
C21_7 C 0.5919(13) 0.4297(3) 0.91545(11)
H13_7 H 0.524022 0.426571 0.914140
C22_11 C 0.500000 0.500000 0.96264(7)
C23_11 C 0.500000 0.500000 0.98142(7)
C26_7 C 0.5457(7) 0.5249(2) 0.99062(8)
H16_7 H 0.577022 0.542186 0.984766
C27_11 C 0.500000 0.500000 0.92560(7)
C28_11 C 0.500000 0.500000 0.90548(10)
C29_7 C 0.5859(8) 0.5115(3) 0.89681(7)
H17_7 H 0.640320 0.519051 0.903079
C30_7 C 0.5882(9) 0.5115(3) 0.87881(10)
H18_7 H 0.644037 0.518517 0.872782
C31_11 C 0.500000 0.500000 0.86984(10)
C32_11 C 0.500000 0.500000 0.85090(11)
C33_11 C 0.500000 0.500000 0.81450(12)
C34_11 C 0.500000 0.500000 0.79531(9)
C35_7 C 0.5748(15) 0.5152(4) 0.82352(9)
H19_7 H 0.626749 0.524924 0.817448
C36_7 C 0.5756(16) 0.5164(4) 0.84173(10)
H20_7 H 0.625161 0.527975 0.847567
C60_11 C 0.500000 -0.000000 0.98452(19)
H34_11 H 0.499996 -0.000000 0.972507
C73_7 C 0.0556(4) 0.60632(11) 0.98150(7)
H41_7 H 0.037983 0.584952 0.977929
C75_7 C 0.0076(3) 0.66039(9) 0.99187(6)
C77_7 C 0.1067(4) 0.66936(11) 0.99267(7)
H43_7 H 0.124306 0.690515 0.996568
C78_7 C 0.1799(3) 0.64694(10) 0.98769(6)
H44_7 H 0.246156 0.653351 0.988132
C79_7 C 0.1554(3) 0.61504(9) 0.98207(5)
C80_7 C 0.2330(3) 0.59093(10) 0.97649(5)
C81_7 C 0.3127(4) 0.60244(10) 0.96700(6)
H45_7 H 0.320664 0.625239 0.965184
C82_7 C 0.3813(4) 0.58006(12) 0.96014(6)
H46_7 H 0.435103 0.587798 0.953784
C83_7 C 0.2239(4) 0.55704(11) 0.97935(6)
H47_7 H 0.171000 0.549318 0.985934
C84_7 C 0.2899(4) 0.53445(11) 0.97285(6)
H48_7 H 0.282731 0.511737 0.975020
C85_7 C 0.3684(4) 0.54633(12) 0.96287(5)
C86_7 C 0.4398(4) 0.52211(11) 0.95327(5)
C87_7 C 0.4349(5) 0.52098(14) 0.93494(6)
C88_7 C 0.3714(6) 0.54441(19) 0.92566(6)
C89_7 C 0.2698(11) 0.5399(5) 0.92659(15)
H49_7 H 0.242692 0.521958 0.932612
C90_7 C 0.2085(18) 0.5634(7) 0.9181(3)
H50_7 H 0.140130 0.561812 0.919447
C91_7 C 0.2444(19) 0.5873(6) 0.9083(2)
H51_7 H 0.202206 0.601273 0.902117
C92_7 C 0.3412(19) 0.5911(5) 0.90735(19)
H52_7 H 0.365894 0.608794 0.900872
C93_7 C 0.4081(13) 0.5703(3) 0.91545(11)
H53_7 H 0.475978 0.573429 0.914140
C95_7 C 0.4543(7) 0.4751(2) 0.99062(8)
H55_7 H 0.422978 0.457814 0.984766
C96_7 C 0.4141(8) 0.4885(3) 0.89681(7)
H56_7 H 0.359680 0.480949 0.903079
C97_7 C 0.4118(9) 0.4885(3) 0.87881(10)
H57_7 H 0.355963 0.481483 0.872782
O10_4 O 0.4257(8) 0.48628(17) 0.78795(6)
C98_7 C 0.4252(15) 0.4848(4) 0.82352(9)
H58_7 H 0.373251 0.475076 0.817448
C99_7 C 0.4244(16) 0.4836(4) 0.84173(10)
H59_7 H 0.374839 0.472025 0.847567
C121_7 C 0.4317(14) 0.0174(4) 0.99294(12)
H73_7 H 0.383771 0.029084 0.986783
C58_12 C 0.500000 1.000000 0.03909(7)
C59_12 C 0.500000 1.000000 0.02020(9)
C62_7 C 0.5689(9) 0.9817(3) 0.01080(9)
H36_7 H 0.615768 0.968843 0.016554
C63_12 C 0.500000 1.000000 0.07602(8)
C64_12 C 0.500000 1.000000 0.09596(10)
C65_7 C 0.5661(11) 0.9775(3) 0.10468(7)
H37_7 H 0.611866 0.964574 0.098654
C66_7 C 0.5582(11) 0.9758(4) 0.12276(9)
H38_7 H 0.590722 0.959164 0.128916
C67_12 C 0.500000 1.000000 0.13144(9)
C68_12 C 0.500000 1.000000 0.15068(11)
C69_12 C 0.500000 1.000000 0.18674(10)
C70_12 C 0.500000 1.000000 0.20621(10)
C71_7 C 0.5389(10) 0.9733(3) 0.17789(9)
H39_7 H 0.569916 0.956054 0.183866
C72_7 C 0.5319(12) 0.9721(3) 0.15997(8)
H40_7 H 0.548576 0.952568 0.154133
C100_7 C 0.0851(3) 0.89136(10) 0.00795(5)
H60_7 H 0.081032 0.912657 0.003212
C101_7 C 0.0166(3) 0.86737(10) 0.00336(6)
C102_7 C 0.0196(3) 0.83599(10) 0.01025(6)
C104_7 C 0.0941(4) 0.82807(11) 0.02211(8)
H62_7 H 0.096780 0.806833 0.026958
C105_7 C 0.1640(4) 0.85189(12) 0.02666(7)
H63_7 H 0.213903 0.846448 0.034464
C106_7 C 0.1602(3) 0.88382(10) 0.01966(5)
C107_7 C 0.2337(3) 0.90932(10) 0.02507(5)
C108_7 C 0.3313(4) 0.90076(14) 0.02803(8)
H64_7 H 0.353321 0.879481 0.025108
C109_7 C 0.3973(4) 0.92333(16) 0.03530(7)
H65_7 H 0.462080 0.917030 0.037775
C110_7 C 0.2045(5) 0.94187(12) 0.02790(8)
H66_7 H 0.139786 0.948145 0.025306
C111_7 C 0.2692(5) 0.96535(13) 0.03450(10)
H67_7 H 0.249148 0.987375 0.036019
C112_7 C 0.3645(4) 0.95557(11) 0.03880(5)
C113_7 C 0.4363(4) 0.97934(12) 0.04837(5)
C114_7 C 0.4319(5) 0.98004(15) 0.06664(5)
C115_7 C 0.3662(7) 0.9572(2) 0.07580(7)
C116_7 C 0.2762(13) 0.9705(5) 0.08171(19)
H68_7 H 0.264661 0.993083 0.079905
C117_7 C 0.2042(16) 0.9525(6) 0.0899(2)
H69_7 H 0.143638 0.961776 0.093054
C118_7 C 0.2269(16) 0.9201(5) 0.0932(3)
H70_7 H 0.180817 0.906932 0.099020
C119_7 C 0.3200(18) 0.9051(5) 0.0881(2)
H71_7 H 0.334142 0.882822 0.090308
C120_7 C 0.3863(12) 0.9254(3) 0.07983(16)
H72_7 H 0.447988 0.916783 0.076874
C60_12 C 0.500000 1.000000 0.98452(19)
H34_12 H 0.499996 1.000000 0.972507
C61_7 C 0.5683(14) 0.9826(4) 0.99294(12)
H35_7 H 0.616229 0.970916 0.986783
C37_6 C 0.1649(3) 0.14136(10) 0.25795(5)
H21_6 H 0.168968 0.162657 0.253212
C38_6 C 0.2334(3) 0.11737(10) 0.25336(6)
H22_7 H 0.282601 0.122663 0.245400
C39_6 C 0.2304(3) 0.08599(10) 0.26025(6)
C40_7 C 0.3050(3) 0.06073(9) 0.25567(6)
O5_7 O 0.3711(2) 0.06721(8) 0.24471(5)
O6_7 O 0.2980(3) 0.03267(7) 0.26395(5)
C41_6 C 0.1559(4) 0.07807(11) 0.27211(8)
H23_6 H 0.153220 0.056833 0.276958
C42_6 C 0.0860(4) 0.10189(12) 0.27666(7)
H24_6 H 0.036097 0.096448 0.284464
C43_6 C 0.0898(3) 0.13382(10) 0.26966(5)
C44_6 C 0.0163(3) 0.15932(10) 0.27507(5)
C47_6 C 0.0455(5) 0.19187(12) 0.27790(8)
H27_6 H 0.110214 0.198145 0.275306
H28_6 H 0.000852 0.237375 0.286019
C54_6 C 0.0458(16) 0.2025(6) 0.3399(2)
H30_6 H 0.106362 0.211776 0.343054
C55_6 C 0.0231(16) 0.1701(5) 0.3432(3)
H31_6 H 0.069183 0.156932 0.349020
C1_6 C 0.1944(4) 0.85632(11) 0.23150(7)
H1_6 H 0.212017 0.834952 0.227929
C2_7 C 0.2679(4) 0.87851(10) 0.23608(9)
H2_7 H 0.334177 0.872279 0.235330
C3_6 C 0.2424(3) 0.91039(9) 0.24187(6)
C4_7 C 0.3222(3) 0.93417(9) 0.24639(6)
O3_7 O 0.2968(3) 0.95869(8) 0.25628(5)
C5_6 C 0.1433(4) 0.91936(11) 0.24267(7)
H3_6 H 0.125694 0.940515 0.246568
C6_6 C 0.0701(3) 0.89694(10) 0.23769(6)
H4_6 H 0.003844 0.903351 0.238132
C7_6 C 0.0946(3) 0.86504(9) 0.23207(5)
C8_6 C 0.0170(3) 0.84093(10) 0.22649(5)
C11_6 C 0.0261(4) 0.80704(11) 0.22935(6)
H7_6 H 0.079000 0.799318 0.235934
H9_6 H 0.007308 0.771958 0.182612
C18_6 C 0.0415(18) 0.8134(7) 0.1681(3)
H10_6 H 0.109870 0.811812 0.169447
C19_6 C 0.0056(19) 0.8373(6) 0.1583(2)
H11_6 H 0.047794 0.851273 0.152117
O19_4 O 0.4257(8) 0.98628(17) 0.28795(6)
C22_12 C 0.500000 0.000000 0.46264(7)
C23_12 C 0.500000 -0.000000 0.48142(7)
C24_12 C 0.500000 0.000000 0.51779(14)
H14_12 H 0.499999 -0.000002 0.529801
C25_8 C 0.5459(11) 0.0246(3) 0.50869(11)
H15_8 H 0.578082 0.041655 0.514619
C26_8 C 0.5457(7) 0.0249(2) 0.49062(8)
H16_8 H 0.577022 0.042186 0.484766
C27_12 C 0.500000 0.000000 0.42560(7)
C28_12 C 0.500000 0.000000 0.40548(10)
C29_8 C 0.5859(8) 0.0115(3) 0.39681(7)
H17_8 H 0.640320 0.019051 0.403079
C30_8 C 0.5882(9) 0.0115(3) 0.37881(10)
H18_8 H 0.644037 0.018517 0.372782
C31_12 C 0.500000 -0.000000 0.36984(10)
C32_12 C 0.500000 -0.000000 0.35090(11)
C33_12 C 0.500000 -0.000000 0.31450(12)
C34_12 C 0.500000 -0.000000 0.29531(9)
C35_8 C 0.5748(15) 0.0152(4) 0.32352(9)
H19_8 H 0.626749 0.024924 0.317448
C36_8 C 0.5756(16) 0.0164(4) 0.34173(10)
H20_8 H 0.625161 0.027975 0.347567
C73_8 C 0.0556(4) 0.10632(11) 0.48150(7)
H41_8 H 0.037983 0.084952 0.477929
C75_8 C 0.0076(3) 0.16039(9) 0.49187(6)
C77_8 C 0.1067(4) 0.16936(11) 0.49267(7)
H43_8 H 0.124306 0.190515 0.496568
C78_8 C 0.1799(3) 0.14694(10) 0.48769(6)
H44_8 H 0.246156 0.153351 0.488132
C79_8 C 0.1554(3) 0.11504(9) 0.48207(5)
C80_8 C 0.2330(3) 0.09093(10) 0.47649(5)
C81_8 C 0.3127(4) 0.10244(10) 0.46700(6)
H45_8 H 0.320664 0.125239 0.465184
C82_8 C 0.3813(4) 0.08006(12) 0.46014(6)
H46_8 H 0.435103 0.087798 0.453784
C83_8 C 0.2239(4) 0.05704(11) 0.47935(6)
H47_8 H 0.171000 0.049318 0.485934
C84_8 C 0.2899(4) 0.03445(11) 0.47285(6)
H48_8 H 0.282731 0.011737 0.475020
C85_8 C 0.3684(4) 0.04633(12) 0.46287(5)
C86_8 C 0.4398(4) 0.02211(11) 0.45327(5)
C87_8 C 0.4349(5) 0.02098(14) 0.43494(6)
C88_8 C 0.3714(6) 0.04441(19) 0.42566(6)
C89_8 C 0.2698(11) 0.0399(5) 0.42659(15)
H49_8 H 0.242692 0.021958 0.432612
C90_8 C 0.2085(18) 0.0634(7) 0.4181(3)
H50_8 H 0.140130 0.061812 0.419447
C91_8 C 0.2444(19) 0.0873(6) 0.4083(2)
H51_8 H 0.202206 0.101273 0.402117
C92_8 C 0.3412(19) 0.0911(5) 0.40735(19)
H52_8 H 0.365894 0.108794 0.400872
C93_8 C 0.4081(13) 0.0703(3) 0.41545(11)
H53_8 H 0.475978 0.073429 0.414140
C1_7 C 0.9444(4) 0.89368(11) 0.48150(7)
H1_7 H 0.962017 0.915048 0.477929
C3_7 C 0.9924(3) 0.83961(9) 0.49187(6)
C5_7 C 0.8933(4) 0.83064(11) 0.49267(7)
H3_7 H 0.875694 0.809485 0.496568
C6_7 C 0.8201(3) 0.85306(10) 0.48769(6)
H4_7 H 0.753844 0.846649 0.488132
C7_7 C 0.8446(3) 0.88496(9) 0.48207(5)
C8_7 C 0.7670(3) 0.90907(10) 0.47649(5)
C9_8 C 0.6873(4) 0.89756(10) 0.46700(6)
H5_8 H 0.679336 0.874761 0.465184
C10_8 C 0.6187(4) 0.91994(12) 0.46014(6)
H6_8 H 0.564897 0.912202 0.453784
C11_7 C 0.7761(4) 0.94296(11) 0.47935(6)
H7_7 H 0.829000 0.950682 0.485934
C12_8 C 0.7101(4) 0.96555(11) 0.47285(6)
H8_8 H 0.717269 0.988263 0.475020
C13_8 C 0.6316(4) 0.95367(12) 0.46287(5)
C14_8 C 0.5602(4) 0.97789(11) 0.45327(5)
C15_8 C 0.5651(5) 0.97902(14) 0.43494(6)
C16_8 C 0.6286(6) 0.95559(19) 0.42566(6)
C17_8 C 0.7302(11) 0.9601(5) 0.42659(15)
H9_7 H 0.757308 0.978042 0.432612
C18_7 C 0.7915(18) 0.9366(7) 0.4181(3)
H10_7 H 0.859870 0.938188 0.419447
C19_7 C 0.7556(19) 0.9127(6) 0.4083(2)
H11_7 H 0.797794 0.898727 0.402117
C20_8 C 0.6588(19) 0.9089(5) 0.40735(19)
H12_8 H 0.634106 0.891206 0.400872
C21_8 C 0.5919(13) 0.9297(3) 0.41545(11)
H13_8 H 0.524022 0.926571 0.414140
C22_13 C 0.500000 1.000000 0.46264(7)
C23_13 C 0.500000 1.000000 0.48142(7)
C24_13 C 0.500000 1.000000 0.51779(14)
H14_13 H 0.499999 0.999998 0.529801
C27_13 C 0.500000 1.000000 0.42560(7)
C28_13 C 0.500000 1.000000 0.40548(10)
C31_13 C 0.500000 1.000000 0.36984(10)
C32_13 C 0.500000 1.000000 0.35090(11)
C33_13 C 0.500000 1.000000 0.31450(12)
C34_13 C 0.500000 1.000000 0.29531(9)
C37_7 C 0.9149(3) 0.60864(10) 0.50795(5)
H21_7 H 0.918968 0.587343 0.503212
C38_7 C 0.9834(3) 0.63263(10) 0.50336(6)
C39_7 C 0.9804(3) 0.66401(10) 0.51025(6)
C41_7 C 0.9059(4) 0.67193(11) 0.52211(8)
H23_7 H 0.903220 0.693167 0.526958
C42_7 C 0.8360(4) 0.64811(12) 0.52666(7)
H24_7 H 0.786097 0.653552 0.534464
C43_7 C 0.8398(3) 0.61618(10) 0.51966(5)
C44_7 C 0.7663(3) 0.59068(10) 0.52507(5)
C45_8 C 0.6687(4) 0.59924(14) 0.52803(8)
H25_8 H 0.646679 0.620519 0.525108
C46_8 C 0.6027(4) 0.57667(16) 0.53530(7)
H26_8 H 0.537920 0.582970 0.537775
C47_7 C 0.7955(5) 0.55813(12) 0.52790(8)
H27_7 H 0.860214 0.551855 0.525306
C48_8 C 0.7308(5) 0.53465(13) 0.53450(10)
H28_7 H 0.750852 0.512625 0.536019
C49_8 C 0.6355(4) 0.54443(11) 0.53880(5)
C50_8 C 0.5637(4) 0.52066(12) 0.54837(5)
C51_8 C 0.5681(5) 0.51996(15) 0.56664(5)
C52_8 C 0.6338(7) 0.5428(2) 0.57580(7)
C53_8 C 0.7238(13) 0.5295(5) 0.58171(19)
H29_8 H 0.735339 0.506917 0.579905
C54_7 C 0.7958(16) 0.5475(6) 0.5899(2)
H30_7 H 0.856362 0.538224 0.593054
C55_7 C 0.7731(16) 0.5799(5) 0.5932(3)
H31_7 H 0.819183 0.593068 0.599020
C56_8 C 0.6800(18) 0.5949(5) 0.5881(2)
H32_8 H 0.665858 0.617178 0.590308
C57_8 C 0.6137(12) 0.5746(3) 0.57983(16)
H33_8 H 0.552012 0.583217 0.576874
C58_13 C 0.500000 0.500000 0.53909(7)
C59_13 C 0.500000 0.500000 0.52020(9)
C60_13 C 0.500000 0.500000 0.48452(19)
H34_13 H 0.499996 0.500000 0.472507
C61_8 C 0.5683(14) 0.4826(4) 0.49294(12)
H35_8 H 0.616229 0.470916 0.486783
C62_8 C 0.5689(9) 0.4817(3) 0.51080(9)
H36_8 H 0.615768 0.468843 0.516554
C63_13 C 0.500000 0.500000 0.57602(8)
C64_13 C 0.500000 0.500000 0.59596(10)
C65_8 C 0.5661(11) 0.4775(3) 0.60468(7)
H37_8 H 0.611866 0.464574 0.598654
C66_8 C 0.5582(11) 0.4758(4) 0.62276(9)
H38_8 H 0.590722 0.459164 0.628916
C67_13 C 0.500000 0.500000 0.63144(9)
C68_13 C 0.500000 0.500000 0.65068(11)
C69_13 C 0.500000 0.500000 0.68674(10)
C70_13 C 0.500000 0.500000 0.70621(10)
C71_8 C 0.5389(10) 0.4733(3) 0.67789(9)
H39_8 H 0.569916 0.456054 0.683866
C72_8 C 0.5319(12) 0.4721(3) 0.65997(8)
H40_8 H 0.548576 0.452568 0.654133
C94_8 C 0.4541(11) 0.9754(3) 0.50869(11)
H54_8 H 0.421918 0.958345 0.514619
C95_8 C 0.4543(7) 0.9751(2) 0.49062(8)
H55_8 H 0.422978 0.957814 0.484766
C96_8 C 0.4141(8) 0.9885(3) 0.39681(7)
H56_8 H 0.359680 0.980949 0.403079
C97_8 C 0.4118(9) 0.9885(3) 0.37881(10)
H57_8 H 0.355963 0.981483 0.372782
C98_8 C 0.4252(15) 0.9848(4) 0.32352(9)
H58_8 H 0.373251 0.975076 0.317448
C99_8 C 0.4244(16) 0.9836(4) 0.34173(10)
H59_8 H 0.374839 0.972025 0.347567
C100_8 C 0.0851(3) 0.39136(10) 0.50795(5)
H60_8 H 0.081032 0.412657 0.503212
C101_8 C 0.0166(3) 0.36737(10) 0.50336(6)
C102_8 C 0.0196(3) 0.33599(10) 0.51025(6)
C104_8 C 0.0941(4) 0.32807(11) 0.52211(8)
H62_8 H 0.096780 0.306833 0.526958
C105_8 C 0.1640(4) 0.35189(12) 0.52666(7)
H63_8 H 0.213903 0.346448 0.534464
C106_8 C 0.1602(3) 0.38382(10) 0.51966(5)
C107_8 C 0.2337(3) 0.40932(10) 0.52507(5)
C108_8 C 0.3313(4) 0.40076(14) 0.52803(8)
H64_8 H 0.353321 0.379481 0.525108
C109_8 C 0.3973(4) 0.42333(16) 0.53530(7)
H65_8 H 0.462080 0.417030 0.537775
C110_8 C 0.2045(5) 0.44187(12) 0.52790(8)
H66_8 H 0.139786 0.448145 0.525306
C111_8 C 0.2692(5) 0.46535(13) 0.53450(10)
H67_8 H 0.249148 0.487375 0.536019
C112_8 C 0.3645(4) 0.45557(11) 0.53880(5)
C113_8 C 0.4363(4) 0.47934(12) 0.54837(5)
C114_8 C 0.4319(5) 0.48004(15) 0.56664(5)
C115_8 C 0.3662(7) 0.4572(2) 0.57580(7)
C116_8 C 0.2762(13) 0.4705(5) 0.58171(19)
H68_8 H 0.264661 0.493083 0.579905
C117_8 C 0.2042(16) 0.4525(6) 0.5899(2)
H69_8 H 0.143638 0.461776 0.593054
C118_8 C 0.2269(16) 0.4201(5) 0.5932(3)
H70_8 H 0.180817 0.406932 0.599020
C119_8 C 0.3200(18) 0.4051(5) 0.5881(2)
H71_8 H 0.334142 0.382822 0.590308
C120_8 C 0.3863(12) 0.4254(3) 0.57983(16)
H72_8 H 0.447988 0.416783 0.576874
C121_8 C 0.4317(14) 0.5174(4) 0.49294(12)
H73_8 H 0.383771 0.529084 0.486783
C122_8 C 0.4311(9) 0.5183(3) 0.51080(9)
H74_8 H 0.384232 0.531157 0.516554
C123_8 C 0.4339(11) 0.5225(3) 0.60468(7)
H75_8 H 0.388134 0.535426 0.598654
C124_8 C 0.4418(11) 0.5242(4) 0.62276(9)
H76_8 H 0.409278 0.540836 0.628916
O13_6 O 0.4777(6) 0.5268(2) 0.71375(5)
C125_8 C 0.4611(10) 0.5267(3) 0.67789(9)
H77_8 H 0.430084 0.543946 0.683866
C126_8 C 0.4681(12) 0.5279(3) 0.65997(8)
H78_8 H 0.451424 0.547432 0.654133
C1_8 C 0.1944(4) 0.35632(11) 0.73150(7)
H1_8 H 0.212017 0.334952 0.727929
C2_8 C 0.2679(4) 0.37851(10) 0.73608(9)
H2_8 H 0.334177 0.372279 0.735330
C3_8 C 0.2424(3) 0.41039(9) 0.74187(6)
C4_8 C 0.3222(3) 0.43417(9) 0.74639(6)
O3_8 O 0.2968(3) 0.45869(8) 0.75628(5)
C5_8 C 0.1433(4) 0.41936(11) 0.74267(7)
H3_8 H 0.125694 0.440515 0.746568
C6_8 C 0.0701(3) 0.39694(10) 0.73769(6)
H4_8 H 0.003844 0.403351 0.738132
C7_8 C 0.0946(3) 0.36504(9) 0.73207(5)
C8_8 C 0.0170(3) 0.34093(10) 0.72649(5)
C11_8 C 0.0261(4) 0.30704(11) 0.72935(6)
H7_8 H 0.079000 0.299318 0.735934
H9_8 H 0.007308 0.271958 0.682612
C18_8 C 0.0415(18) 0.3134(7) 0.6681(3)
H10_8 H 0.109870 0.311812 0.669447
C19_8 C 0.0056(19) 0.3373(6) 0.6583(2)
H11_8 H 0.047794 0.351273 0.652117
C37_8 C 0.1649(3) 0.64136(10) 0.75795(5)
H21_8 H 0.168968 0.662657 0.753212
C38_8 C 0.2334(3) 0.61737(10) 0.75336(6)
H22_8 H 0.282601 0.622663 0.745400
C39_8 C 0.2304(3) 0.58599(10) 0.76025(6)
C40_8 C 0.3050(3) 0.56073(9) 0.75567(6)
O5_8 O 0.3711(2) 0.56721(8) 0.74471(5)
O6_8 O 0.2980(3) 0.53267(7) 0.76395(5)
C41_8 C 0.1559(4) 0.57807(11) 0.77211(8)
H23_8 H 0.153220 0.556833 0.776958
C42_8 C 0.0860(4) 0.60189(12) 0.77666(7)
H24_8 H 0.036097 0.596448 0.784464
C43_8 C 0.0898(3) 0.63382(10) 0.76966(5)
C44_8 C 0.0163(3) 0.65932(10) 0.77507(5)
C47_8 C 0.0455(5) 0.69187(12) 0.77790(8)
H27_8 H 0.110214 0.698145 0.775306
H28_8 H 0.000852 0.737375 0.786019
C54_8 C 0.0458(16) 0.7025(6) 0.8399(2)
H30_8 H 0.106362 0.711776 0.843054
C55_8 C 0.0231(16) 0.6701(5) 0.8432(3)
H31_8 H 0.069183 0.656932 0.849020
loop_
_geom_bond_atom_site_label_1
_geom_bond_atom_site_label_2
_geom_bond_site_symmetry_1
_geom_bond_site_symmetry_2
Zn1 O1 1_555 1_555
Zn2 O1 1_555 1_555
O1 Zn8 1_555 1_555
C1 H1 1_555 1_555
C2 C1 1_555 1_555
H2 C2 1_555 1_555
C3 C2 1_555 1_555
C4 C3 1_555 1_555
O2 C4 1_555 1_555
O3 Zn1 1_555 1_555
C5 C3 1_555 1_555
H3 C5 1_555 1_555
C6 C5 1_555 1_555
H4 C6 1_555 1_555
C7 C1 1_555 1_555
C8 C7 1_555 1_555
C9 C8 1_555 1_555
H5 C9 1_555 1_555
C10 C9 1_555 1_555
H6 C10 1_555 1_555
C11 C8 1_555 1_555
H7 C11 1_555 1_555
C12 C11 1_555 1_555
H8 C12 1_555 1_555
C13 C10 1_555 1_555
C14 C13 1_555 1_555
C15 C14 1_555 1_555
C16 C15 1_555 1_555
C17 C16 1_555 1_555
H9 C17 1_555 1_555
C18 C17 1_555 1_555
H10 C18 1_555 1_555
C19 C18 1_555 1_555
H11 C19 1_555 1_555
C20 C19 1_555 1_555
H12 C20 1_555 1_555
C21 C16 1_555 1_555
H13 C21 1_555 1_555
C22 C14 1_555 1_555
C23 C22 1_555 1_555
C24 H14 1_555 1_555
C25 C24 1_555 1_555
H15 C25 1_555 1_555
C26 C23 1_555 1_555
H16 C26 1_555 1_555
C27 C15 1_555 1_555
C28 C27 1_555 1_555
C29 C28 1_555 1_555
H17 C29 1_555 1_555
C30 C29 1_555 1_555
H18 C30 1_555 1_555
C31 C30 1_555 1_555
C32 C31 1_555 1_555
C33 C34 1_555 1_555
C34 O4 1_555 1_555
O4 Zn7 1_555 1_555
C35 C33 1_555 1_555
H19 C35 1_555 1_555
C36 C32 1_555 1_555
H20 C36 1_555 1_555
C37 H21 1_555 1_555
C38 C37 1_555 1_555
H22 C38 1_555 1_555
C39 C38 1_555 1_555
C40 C39 1_555 1_555
O5 Zn2 1_555 1_555
O6 Zn1 1_555 1_555
C41 C39 1_555 1_555
H23 C41 1_555 1_555
C42 C41 1_555 1_555
H24 C42 1_555 1_555
C43 C37 1_555 1_555
C44 C43 1_555 1_555
C45 C44 1_555 1_555
H25 C45 1_555 1_555
C46 C45 1_555 1_555
H26 C46 1_555 1_555
C47 C44 1_555 1_555
H27 C47 1_555 1_555
C48 C47 1_555 1_555
H28 C48 1_555 1_555
C49 C46 1_555 1_555
C50 C49 1_555 1_555
C51 C50 1_555 1_555
C52 C51 1_555 1_555
C53 C52 1_555 1_555
H29 C53 1_555 1_555
C54 C53 1_555 1_555
H30 C54 1_555 1_555
C55 C54 1_555 1_555
H31 C55 1_555 1_555
C56 C55 1_555 1_555
H32 C56 1_555 1_555
C57 C52 1_555 1_555
H33 C57 1_555 1_555
C58 C50 1_555 1_555
C59 C58 1_555 1_555
C60 H34 1_555 1_555
C63 C51 1_555 1_555
C64 C63 1_555 1_555
C68 C67 1_555 1_555
C69 C70 1_555 1_555
Zn11 O1 1_555 1_555
O16 Zn2 1_555 1_555
O19 Zn1 1_555 1_555
O21 Zn2 1_555 1_555
C4 O3 1_555 1_555
O2 Zn11 1_555 1_555
C6 C7 1_555 1_555
C12 C13 1_555 1_555
C20 C21 1_555 1_555
C25 C26 1_555 1_555
C35 C36 1_555 1_555
C40 O5 1_555 1_555
C40 O6 1_555 1_555
C42 C43 1_555 1_555
C48 C49 1_555 1_555
C56 C57 1_555 1_555
C59_2 C58_2 1_555 1_555
C60_2 H34_2 1_555 1_555
C61 C60_2 1_555 1_555
H35 C61 1_555 1_555
C62 C59_2 1_555 1_555
H36 C62 1_555 1_555
C64_2 C63_2 1_555 1_555
C65 C64_2 1_555 1_555
H37 C65 1_555 1_555
C66 C65 1_555 1_555
H38 C66 1_555 1_555
C67_2 C66 1_555 1_555
C68_2 C67_2 1_555 1_555
C69_2 C70_2 1_555 1_555
C70_2 O7 1_555 1_555
O7 Zn12 1_555 1_555
C71 C69_2 1_555 1_555
H39 C71 1_555 1_555
C72 C68_2 1_555 1_555
H40 C72 1_555 1_555
C61 C62 1_555 1_555
C71 C72 1_555 1_555
O1_2 Zn8_2 1_555 1_555
Zn12 O1_3 1_555 1_555
C24_2 H14_2 1_555 1_555
C25_2 C24_2 1_555 1_555
H15_2 C25_2 1_555 1_555
C23_2 C22_2 1_555 1_555
C26_2 C23_2 1_555 1_555
H16_2 C26_2 1_555 1_555
C28_2 C27_2 1_555 1_555
C29_2 C28_2 1_555 1_555
H17_2 C29_2 1_555 1_555
C30_2 C29_2 1_555 1_555
H18_2 C30_2 1_555 1_555
C31_2 C30_2 1_555 1_555
C32_2 C31_2 1_555 1_555
C33_2 C34_2 1_555 1_555
C34_2 O4_2 1_555 1_555
O4_2 Zn8_2 1_555 1_555
C35_2 C33_2 1_555 1_555
H19_2 C35_2 1_555 1_555
C36_2 C32_2 1_555 1_555
H20_2 C36_2 1_555 1_555
C35_2 C36_2 1_555 1_555
Zn1_2 O1_4 1_555 1_555
O1_4 Zn8_3 1_555 1_555
O3_2 Zn1_2 1_555 1_555
C24_3 H14_3 1_555 1_555
C37_2 H21_2 1_555 1_555
C38_2 C37_2 1_555 1_555
C39_2 C38_2 1_555 1_555
C40_2 C39_2 1_555 1_555
O6_2 Zn1_2 1_555 1_555
C41_2 C39_2 1_555 1_555
H23_2 C41_2 1_555 1_555
C42_2 C41_2 1_555 1_555
H24_2 C42_2 1_555 1_555
C43_2 C37_2 1_555 1_555
C44_2 C43_2 1_555 1_555
C45_2 C44_2 1_555 1_555
H25_2 C45_2 1_555 1_555
C46_2 C45_2 1_555 1_555
H26_2 C46_2 1_555 1_555
C47_2 C44_2 1_555 1_555
H27_2 C47_2 1_555 1_555
C48_2 C47_2 1_555 1_555
H28_2 C48_2 1_555 1_555
C49_2 C46_2 1_555 1_555
C50_2 C49_2 1_555 1_555
C51_2 C50_2 1_555 1_555
C52_2 C51_2 1_555 1_555
C53_2 C52_2 1_555 1_555
H29_2 C53_2 1_555 1_555
C54_2 C53_2 1_555 1_555
H30_2 C54_2 1_555 1_555
C55_2 C54_2 1_555 1_555
H31_2 C55_2 1_555 1_555
C56_2 C55_2 1_555 1_555
H32_2 C56_2 1_555 1_555
C57_2 C52_2 1_555 1_555
H33_2 C57_2 1_555 1_555
C58_3 C50_2 1_555 1_555
C59_3 C58_3 1_555 1_555
C62_2 C59_3 1_555 1_555
H36_2 C62_2 1_555 1_555
C63_3 C51_2 1_555 1_555
C64_3 C63_3 1_555 1_555
C65_2 C64_3 1_555 1_555
H37_2 C65_2 1_555 1_555
C66_2 C65_2 1_555 1_555
H38_2 C66_2 1_555 1_555
C67_3 C66_2 1_555 1_555
C68_3 C67_3 1_555 1_555
C69_3 C70_3 1_555 1_555
C70_3 O7_2 1_555 1_555
O7_2 Zn12_2 1_555 1_555
C71_2 C69_3 1_555 1_555
H39_2 C71_2 1_555 1_555
C72_2 C68_3 1_555 1_555
H40_2 C72_2 1_555 1_555
O19_2 Zn1_2 1_555 1_555
C40_2 O6_2 1_555 1_555
C42_2 C43_2 1_555 1_555
C48_2 C49_2 1_555 1_555
C56_2 C57_2 1_555 1_555
C71_2 C72_2 1_555 1_555
C1_2 H1_2 1_555 1_555
C2_2 C1_2 1_555 1_555
H2_2 C2_2 1_555 1_555
C3_2 C2_2 1_555 1_555
C4_2 C3_2 1_555 1_555
O2_2 C4_2 1_555 1_555
C5_2 C3_2 1_555 1_555
H3_2 C5_2 1_555 1_555
C6_2 C5_2 1_555 1_555
H4_2 C6_2 1_555 1_555
C7_2 C1_2 1_555 1_555
C8_2 C7_2 1_555 1_555
C9_2 C8_2 1_555 1_555
H5_2 C9_2 1_555 1_555
C10_2 C9_2 1_555 1_555
H6_2 C10_2 1_555 1_555
C11_2 C8_2 1_555 1_555
H7_2 C11_2 1_555 1_555
C12_2 C11_2 1_555 1_555
H8_2 C12_2 1_555 1_555
C13_2 C10_2 1_555 1_555
C14_2 C13_2 1_555 1_555
C15_2 C14_2 1_555 1_555
C16_2 C15_2 1_555 1_555
C17_2 C16_2 1_555 1_555
H9_2 C17_2 1_555 1_555
C18_2 C17_2 1_555 1_555
H10_2 C18_2 1_555 1_555
C19_2 C18_2 1_555 1_555
H11_2 C19_2 1_555 1_555
C20_2 C19_2 1_555 1_555
H12_2 C20_2 1_555 1_555
C21_2 C16_2 1_555 1_555
H13_2 C21_2 1_555 1_555
C22_3 C14_2 1_555 1_555
C23_3 C22_3 1_555 1_555
C27_3 C15_2 1_555 1_555
C28_3 C27_3 1_555 1_555
C32_3 C31_3 1_555 1_555
C33_3 C34_3 1_555 1_555
O5_2 Zn2_2 1_555 1_555
C60_3 H34_3 1_555 1_555
C61_2 C60_3 1_555 1_555
H35_2 C61_2 1_555 1_555
O16_3 Zn2_2 1_555 1_555
O21_2 Zn2_2 1_555 1_555
O2_2 Zn11_2 1_555 1_555
C6_2 C7_2 1_555 1_555
C12_2 C13_2 1_555 1_555
C20_2 C21_2 1_555 1_555
O1_5 Zn7 1_555 1_555
Zn12_2 O1_5 1_555 1_555
Zn8_3 O9 1_555 1_555
H42 C74 1_555 1_555
O16_3 C76 1_555 1_555
O12 C103 1_555 1_555
Zn8_3 O12 1_555 1_555
O18 Zn8_3 1_555 1_555
Zn11_2 O11 1_555 1_555
O20 Zn11_2 1_555 1_555
H25_3 C45_3 1_555 1_555
C46_3 C45_3 1_555 1_555
H26_3 C46_3 1_555 1_555
C49_3 C46_3 1_555 1_555
C50_3 C49_3 1_555 1_555
C51_3 C50_3 1_555 1_555
C52_3 C51_3 1_555 1_555
C53_3 C52_3 1_555 1_555
H29_3 C53_3 1_555 1_555
H32_3 C56_3 1_555 1_555
C57_3 C52_3 1_555 1_555
H33_3 C57_3 1_555 1_555
C58_4 C50_3 1_555 1_555
C59_4 C58_4 1_555 1_555
C60_4 H34_4 1_555 1_555
C61_3 C60_4 1_555 1_555
H35_3 C61_3 1_555 1_555
C62_3 C59_4 1_555 1_555
H36_3 C62_3 1_555 1_555
C63_4 C51_3 1_555 1_555
C64_4 C63_4 1_555 1_555
C65_3 C64_4 1_555 1_555
H37_3 C65_3 1_555 1_555
C66_3 C65_3 1_555 1_555
H38_3 C66_3 1_555 1_555
C67_4 C66_3 1_555 1_555
C68_4 C67_4 1_555 1_555
C69_4 C70_4 1_555 1_555
C70_4 O7_3 1_555 1_555
O7_3 Zn11 1_555 1_555
C71_3 C69_4 1_555 1_555
H39_3 C71_3 1_555 1_555
C72_3 C68_4 1_555 1_555
H40_3 C72_3 1_555 1_555
C100 H60 1_555 1_555
C101 C100 1_555 1_555
H61_2 C101 1_555 1_555
C102 C101 1_555 1_555
C103_2 C102 1_555 1_555
O11_2 C103_2 1_555 1_555
O12_2 C103_2 1_555 1_555
C104 C102 1_555 1_555
H62 C104 1_555 1_555
C105 C104 1_555 1_555
H63 C105 1_555 1_555
C106 C100 1_555 1_555
C107 C106 1_555 1_555
C108 C107 1_555 1_555
H64 C108 1_555 1_555
C109 C108 1_555 1_555
H65 C109 1_555 1_555
C110 C107 1_555 1_555
H66 C110 1_555 1_555
C111 C110 1_555 1_555
H67 C111 1_555 1_555
C112 C109 1_555 1_555
C113 C58_4 1_555 1_555
C114 C63_4 1_555 1_555
C115 C114 1_555 1_555
C116 C115 1_555 1_555
H68 C116 1_555 1_555
C117 C116 1_555 1_555
H69 C117 1_555 1_555
C118 C117 1_555 1_555
H70 C118 1_555 1_555
C119 C118 1_555 1_555
H71 C119 1_555 1_555
C120 C115 1_555 1_555
H72 C120 1_555 1_555
C121 C60_4 1_555 1_555
H73 C121 1_555 1_555
C122 C59_4 1_555 1_555
H74 C122 1_555 1_555
C123 C64_4 1_555 1_555
H75 C123 1_555 1_555
C124 C67_4 1_555 1_555
H76 C124 1_555 1_555
O21 C70_4 1_555 1_555
C125 C69_4 1_555 1_555
H77 C125 1_555 1_555
C126 C68_4 1_555 1_555
H78 C126 1_555 1_555
Zn7 O12_2 1_555 1_555
Zn12_2 O11_2 1_555 1_555
O17 Zn7 1_555 1_555
C48_3 C49_3 1_555 1_555
C56_3 C57_3 1_555 1_555
C61_3 C62_3 1_555 1_555
C71_3 C72_3 1_555 1_555
C105 C106 1_555 1_555
C111 C112 1_555 1_555
C112 C113 1_555 1_555
C113 C114 1_555 1_555
C119 C120 1_555 1_555
C121 C122 1_555 1_555
C123 C124 1_555 1_555
C125 C126 1_555 1_555
H5_3 C9_3 1_555 1_555
C10_3 C9_3 1_555 1_555
H6_3 C10_3 1_555 1_555
H8_3 C12_3 1_555 1_555
C13_3 C10_3 1_555 1_555
C14_3 C13_3 1_555 1_555
C15_3 C14_3 1_555 1_555
C16_3 C15_3 1_555 1_555
C17_3 C16_3 1_555 1_555
H12_3 C20_3 1_555 1_555
C21_3 C16_3 1_555 1_555
H13_3 C21_3 1_555 1_555
C22_4 C14_3 1_555 1_555
C23_4 C22_4 1_555 1_555
C24_4 H14_4 1_555 1_555
C25_3 C24_4 1_555 1_555
H15_3 C25_3 1_555 1_555
C26_3 C23_4 1_555 1_555
H16_3 C26_3 1_555 1_555
C27_4 C15_3 1_555 1_555
C28_4 C27_4 1_555 1_555
C29_3 C28_4 1_555 1_555
H17_3 C29_3 1_555 1_555
C30_3 C29_3 1_555 1_555
H18_3 C30_3 1_555 1_555
C31_4 C30_3 1_555 1_555
C32_4 C31_4 1_555 1_555
C33_4 C34_4 1_555 1_555
C34_4 O18 1_555 1_555
C35_3 C33_4 1_555 1_555
H19_3 C35_3 1_555 1_555
C36_3 C32_4 1_555 1_555
H20_3 C36_3 1_555 1_555
C73 H41 1_555 1_555
C74_2 C73 1_555 1_555
H42_2 C74_2 1_555 1_555
C75 C74_2 1_555 1_555
C76_2 C75 1_555 1_555
O16_4 C76_2 1_555 1_555
O17 C76_2 1_555 1_555
C77 C75 1_555 1_555
H43 C77 1_555 1_555
C78 C77 1_555 1_555
H44 C78 1_555 1_555
C79 C73 1_555 1_555
C80 C79 1_555 1_555
C81 C80 1_555 1_555
H45 C81 1_555 1_555
C82 C81 1_555 1_555
H46 C82 1_555 1_555
C83 C80 1_555 1_555
H47 C83 1_555 1_555
C84 C83 1_555 1_555
H48 C84 1_555 1_555
C85 C82 1_555 1_555
C86 C22_4 1_555 1_555
C87 C27_4 1_555 1_555
C88 C87 1_555 1_555
C89 C88 1_555 1_555
H49 C89 1_555 1_555
C90 C89 1_555 1_555
H50 C90 1_555 1_555
C91 C90 1_555 1_555
H51 C91 1_555 1_555
C92 C91 1_555 1_555
H52 C92 1_555 1_555
C93 C88 1_555 1_555
H53 C93 1_555 1_555
C94 C24_4 1_555 1_555
H54 C94 1_555 1_555
C95 C23_4 1_555 1_555
H55 C95 1_555 1_555
C96 C28_4 1_555 1_555
H56 C96 1_555 1_555
C97 C31_4 1_555 1_555
H57 C97 1_555 1_555
O19_2 C34_4 1_555 1_555
C98 C33_4 1_555 1_555
H58 C98 1_555 1_555
C99 C32_4 1_555 1_555
H59 C99 1_555 1_555
C12_3 C13_3 1_555 1_555
C20_3 C21_3 1_555 1_555
C25_3 C26_3 1_555 1_555
C35_3 C36_3 1_555 1_555
C78 C79 1_555 1_555
C84 C85 1_555 1_555
C85 C86 1_555 1_555
C86 C87 1_555 1_555
C92 C93 1_555 1_555
C94 C95 1_555 1_555
C96 C97 1_555 1_555
C98 C99 1_555 1_555
H42_3 C74_3 1_555 1_555
O16 C76_3 1_555 1_555
O9_2 C76_3 1_555 1_555
Zn8 O9_2 1_555 1_555
O11_3 C103_3 1_555 1_555
O12_3 C103_3 1_555 1_555
Zn8 O12_3 1_555 1_555
Zn11 O11_3 1_555 1_555
O18_2 Zn8 1_555 1_555
O17_2 Zn8_2 1_555 1_555
H5_4 C9_4 1_555 1_555
C10_4 C9_4 1_555 1_555
H6_4 C10_4 1_555 1_555
H8_4 C12_4 1_555 1_555
C13_4 C10_4 1_555 1_555
C14_4 C13_4 1_555 1_555
C15_4 C14_4 1_555 1_555
C16_4 C15_4 1_555 1_555
C17_4 C16_4 1_555 1_555
H12_4 C20_4 1_555 1_555
C21_4 C16_4 1_555 1_555
H13_4 C21_4 1_555 1_555
C22_5 C14_4 1_555 1_555
C23_5 C22_5 1_555 1_555
C24_5 H14_5 1_555 1_555
C25_4 C24_5 1_555 1_555
H15_4 C25_4 1_555 1_555
C26_4 C23_5 1_555 1_555
H16_4 C26_4 1_555 1_555
C27_5 C15_4 1_555 1_555
C28_5 C27_5 1_555 1_555
C29_4 C28_5 1_555 1_555
H17_4 C29_4 1_555 1_555
C30_4 C29_4 1_555 1_555
H18_4 C30_4 1_555 1_555
C31_5 C30_4 1_555 1_555
C32_5 C31_5 1_555 1_555
C33_5 C34_5 1_555 1_555
C34_5 O18_2 1_555 1_555
C35_4 C33_5 1_555 1_555
H19_4 C35_4 1_555 1_555
C36_4 C32_5 1_555 1_555
H20_4 C36_4 1_555 1_555
H25_4 C45_4 1_555 1_555
C46_4 C45_4 1_555 1_555
H26_4 C46_4 1_555 1_555
C49_4 C46_4 1_555 1_555
C50_4 C49_4 1_555 1_555
C51_4 C50_4 1_555 1_555
C52_4 C51_4 1_555 1_555
C53_4 C52_4 1_555 1_555
H29_4 C53_4 1_555 1_555
H32_4 C56_4 1_555 1_555
C57_4 C52_4 1_555 1_555
H33_4 C57_4 1_555 1_555
C58_5 C50_4 1_555 1_555
C59_5 C58_5 1_555 1_555
C60_5 H34_5 1_555 1_555
C61_4 C60_5 1_555 1_555
H35_4 C61_4 1_555 1_555
C62_4 C59_5 1_555 1_555
H36_4 C62_4 1_555 1_555
C63_5 C51_4 1_555 1_555
C64_5 C63_5 1_555 1_555
C65_4 C64_5 1_555 1_555
H37_4 C65_4 1_555 1_555
C66_4 C65_4 1_555 1_555
H38_4 C66_4 1_555 1_555
C67_5 C66_4 1_555 1_555
C68_5 C67_5 1_555 1_555
C69_5 C70_5 1_555 1_555
C70_5 O20 1_555 1_555
C71_4 C69_5 1_555 1_555
H39_4 C71_4 1_555 1_555
C72_4 C68_5 1_555 1_555
H40_4 C72_4 1_555 1_555
C73_2 H41_2 1_555 1_555
C74_4 C73_2 1_555 1_555
H42_4 C74_4 1_555 1_555
C75_2 C74_4 1_555 1_555
C76_4 C75_2 1_555 1_555
O16_2 C76_4 1_555 1_555
O17_2 C76_4 1_555 1_555
C77_2 C75_2 1_555 1_555
H43_2 C77_2 1_555 1_555
C78_2 C77_2 1_555 1_555
H44_2 C78_2 1_555 1_555
C79_2 C73_2 1_555 1_555
C80_2 C79_2 1_555 1_555
C81_2 C80_2 1_555 1_555
H45_2 C81_2 1_555 1_555
C82_2 C81_2 1_555 1_555
H46_2 C82_2 1_555 1_555
C83_2 C80_2 1_555 1_555
H47_2 C83_2 1_555 1_555
C84_2 C83_2 1_555 1_555
H48_2 C84_2 1_555 1_555
C85_2 C82_2 1_555 1_555
C86_2 C22_5 1_555 1_555
C87_2 C27_5 1_555 1_555
C88_2 C87_2 1_555 1_555
C89_2 C88_2 1_555 1_555
H49_2 C89_2 1_555 1_555
C90_2 C89_2 1_555 1_555
H50_2 C90_2 1_555 1_555
C91_2 C90_2 1_555 1_555
H51_2 C91_2 1_555 1_555
C92_2 C91_2 1_555 1_555
H52_2 C92_2 1_555 1_555
C93_2 C88_2 1_555 1_555
H53_2 C93_2 1_555 1_555
C94_2 C24_5 1_555 1_555
H54_2 C94_2 1_555 1_555
C95_2 C23_5 1_555 1_555
H55_2 C95_2 1_555 1_555
C96_2 C28_5 1_555 1_555
H56_2 C96_2 1_555 1_555
C97_2 C31_5 1_555 1_555
H57_2 C97_2 1_555 1_555
O19 C34_5 1_555 1_555
C98_2 C33_5 1_555 1_555
H58_2 C98_2 1_555 1_555
C99_2 C32_5 1_555 1_555
H59_2 C99_2 1_555 1_555
C100_2 H60_2 1_555 1_555
C101_2 C100_2 1_555 1_555
H61_4 C101_2 1_555 1_555
C102_2 C101_2 1_555 1_555
C103_4 C102_2 1_555 1_555
O11_4 C103_4 1_555 1_555
O12_4 C103_4 1_555 1_555
C104_2 C102_2 1_555 1_555
H62_2 C104_2 1_555 1_555
C105_2 C104_2 1_555 1_555
H63_2 C105_2 1_555 1_555
C106_2 C100_2 1_555 1_555
C107_2 C106_2 1_555 1_555
C108_2 C107_2 1_555 1_555
H64_2 C108_2 1_555 1_555
C109_2 C108_2 1_555 1_555
H65_2 C109_2 1_555 1_555
C110_2 C107_2 1_555 1_555
H66_2 C110_2 1_555 1_555
C111_2 C110_2 1_555 1_555
H67_2 C111_2 1_555 1_555
C112_2 C109_2 1_555 1_555
C113_2 C58_5 1_555 1_555
C114_2 C63_5 1_555 1_555
C115_2 C114_2 1_555 1_555
C116_2 C115_2 1_555 1_555
H68_2 C116_2 1_555 1_555
C117_2 C116_2 1_555 1_555
H69_2 C117_2 1_555 1_555
C118_2 C117_2 1_555 1_555
H70_2 C118_2 1_555 1_555
C119_2 C118_2 1_555 1_555
H71_2 C119_2 1_555 1_555
C120_2 C115_2 1_555 1_555
H72_2 C120_2 1_555 1_555
C121_2 C60_5 1_555 1_555
H73_2 C121_2 1_555 1_555
C122_2 C59_5 1_555 1_555
H74_2 C122_2 1_555 1_555
C123_2 C64_5 1_555 1_555
H75_2 C123_2 1_555 1_555
C124_2 C67_5 1_555 1_555
H76_2 C124_2 1_555 1_555
O21_2 C70_5 1_555 1_555
C125_2 C69_5 1_555 1_555
H77_2 C125_2 1_555 1_555
C126_2 C68_5 1_555 1_555
H78_2 C126_2 1_555 1_555
Zn12 O11_4 1_555 1_555
C12_4 C13_4 1_555 1_555
C20_4 C21_4 1_555 1_555
C25_4 C26_4 1_555 1_555
C35_4 C36_4 1_555 1_555
C48_4 C49_4 1_555 1_555
C56_4 C57_4 1_555 1_555
C61_4 C62_4 1_555 1_555
C71_4 C72_4 1_555 1_555
C78_2 C79_2 1_555 1_555
C84_2 C85_2 1_555 1_555
C85_2 C86_2 1_555 1_555
C86_2 C87_2 1_555 1_555
C92_2 C93_2 1_555 1_555
C94_2 C95_2 1_555 1_555
C96_2 C97_2 1_555 1_555
C98_2 C99_2 1_555 1_555
C105_2 C106_2 1_555 1_555
C111_2 C112_2 1_555 1_555
C112_2 C113_2 1_555 1_555
C113_2 C114_2 1_555 1_555
C119_2 C120_2 1_555 1_555
C121_2 C122_2 1_555 1_555
C123_2 C124_2 1_555 1_555
C125_2 C126_2 1_555 1_555
C23_6 C22_6 1_555 1_555
C24_6 H14_6 1_555 1_555
C28_6 C27_6 1_555 1_555
C32_6 C31_6 1_555 1_555
C33_6 C34_6 1_555 1_555
C59_6 C58_6 1_555 1_555
C60_6 H34_6 1_555 1_555
C64_6 C63_6 1_555 1_555
C68_6 C67_6 1_555 1_555
C69_6 C70_6 1_555 1_555
C73_3 H41_3 1_555 1_555
C74_5 C73_3 1_555 1_555
H42_5 C74_5 1_555 1_555
C75_3 C74_5 1_555 1_555
C76_5 C75_3 1_555 1_555
O8 C76_5 1_555 1_555
O9_3 C76_5 1_555 1_555
C77_3 C75_3 1_555 1_555
H43_3 C77_3 1_555 1_555
C78_3 C77_3 1_555 1_555
H44_3 C78_3 1_555 1_555
C79_3 C73_3 1_555 1_555
C80_3 C79_3 1_555 1_555
C81_3 C80_3 1_555 1_555
H45_3 C81_3 1_555 1_555
C82_3 C81_3 1_555 1_555
H46_3 C82_3 1_555 1_555
C83_3 C80_3 1_555 1_555
H47_3 C83_3 1_555 1_555
C84_3 C83_3 1_555 1_555
H48_3 C84_3 1_555 1_555
C85_3 C82_3 1_555 1_555
C86_3 C22_6 1_555 1_555
C87_3 C27_6 1_555 1_555
C88_3 C87_3 1_555 1_555
C89_3 C88_3 1_555 1_555
H49_3 C89_3 1_555 1_555
C90_3 C89_3 1_555 1_555
H50_3 C90_3 1_555 1_555
C91_3 C90_3 1_555 1_555
H51_3 C91_3 1_555 1_555
C92_3 C91_3 1_555 1_555
H52_3 C92_3 1_555 1_555
C93_3 C88_3 1_555 1_555
H53_3 C93_3 1_555 1_555
C94_3 C24_6 1_555 1_555
H54_3 C94_3 1_555 1_555
C95_3 C23_6 1_555 1_555
H55_3 C95_3 1_555 1_555
C96_3 C28_6 1_555 1_555
H56_3 C96_3 1_555 1_555
C97_3 C31_6 1_555 1_555
H57_3 C97_3 1_555 1_555
O10 C34_6 1_555 1_555
C98_3 C33_6 1_555 1_555
H58_3 C98_3 1_555 1_555
C99_3 C32_6 1_555 1_555
H59_3 C99_3 1_555 1_555
C121_3 C60_6 1_555 1_555
H73_3 C121_3 1_555 1_555
C122_3 C59_6 1_555 1_555
H74_3 C122_3 1_555 1_555
C123_3 C64_6 1_555 1_555
H75_3 C123_3 1_555 1_555
C124_3 C67_6 1_555 1_555
H76_3 C124_3 1_555 1_555
O13 C70_6 1_555 1_555
C125_3 C69_6 1_555 1_555
H77_3 C125_3 1_555 1_555
C126_3 C68_6 1_555 1_555
H78_3 C126_3 1_555 1_555
Zn5 O9_3 1_555 1_555
Zn6 O10 1_555 1_555
Zn9 O13 1_555 1_555
Zn10 O8 1_555 1_555
C78_3 C79_3 1_555 1_555
C84_3 C85_3 1_555 1_555
C85_3 C86_3 1_555 1_555
C86_3 C87_3 1_555 1_555
C92_3 C93_3 1_555 1_555
C94_3 C95_3 1_555 1_555
C96_3 C97_3 1_555 1_555
C98_3 C99_3 1_555 1_555
C121_3 C122_3 1_555 1_555
C123_3 C124_3 1_555 1_555
C125_3 C126_3 1_555 1_555
C59_7 C58_7 1_555 1_555
C60_7 H34_7 1_555 1_555
C64_7 C63_7 1_555 1_555
C68_7 C67_7 1_555 1_555
C69_7 C70_7 1_555 1_555
C100_3 H60_3 1_555 1_555
C101_3 C100_3 1_555 1_555
H61_5 C101_3 1_555 1_555
C102_3 C101_3 1_555 1_555
C103_5 C102_3 1_555 1_555
O11_5 C103_5 1_555 1_555
O12_5 C103_5 1_555 1_555
C104_3 C102_3 1_555 1_555
H62_3 C104_3 1_555 1_555
C105_3 C104_3 1_555 1_555
H63_3 C105_3 1_555 1_555
C106_3 C100_3 1_555 1_555
C107_3 C106_3 1_555 1_555
C108_3 C107_3 1_555 1_555
H64_3 C108_3 1_555 1_555
C109_3 C108_3 1_555 1_555
H65_3 C109_3 1_555 1_555
C110_3 C107_3 1_555 1_555
H66_3 C110_3 1_555 1_555
C111_3 C110_3 1_555 1_555
H67_3 C111_3 1_555 1_555
C112_3 C109_3 1_555 1_555
C113_3 C58_7 1_555 1_555
C114_3 C63_7 1_555 1_555
C115_3 C114_3 1_555 1_555
C116_3 C115_3 1_555 1_555
H68_3 C116_3 1_555 1_555
C117_3 C116_3 1_555 1_555
H69_3 C117_3 1_555 1_555
C118_3 C117_3 1_555 1_555
H70_3 C118_3 1_555 1_555
C119_3 C118_3 1_555 1_555
H71_3 C119_3 1_555 1_555
C120_3 C115_3 1_555 1_555
H72_3 C120_3 1_555 1_555
Zn5 O12_5 1_555 1_555
Zn4 O11_5 1_555 1_555
O14 Zn5 1_555 1_555
O15 Zn4 1_555 1_555
O18_3 Zn5 1_555 1_555
O20_2 Zn4 1_555 1_555
C105_3 C106_3 1_555 1_555
C111_3 C112_3 1_555 1_555
C112_3 C113_3 1_555 1_555
C113_3 C114_3 1_555 1_555
C119_3 C120_3 1_555 1_555
Zn4 O14 1_555 1_555
O14 Zn8_4 1_555 1_555
Zn10 O14 1_555 1_555
Zn9 O1_6 1_555 1_555
C37_3 H21_3 1_555 1_555
C38_3 C37_3 1_555 1_555
H22_3 C38_3 1_555 1_555
C39_3 C38_3 1_555 1_555
C40_3 C39_3 1_555 1_555
O5_3 Zn9 1_555 1_555
C41_3 C39_3 1_555 1_555
H23_3 C41_3 1_555 1_555
C42_3 C41_3 1_555 1_555
H24_3 C42_3 1_555 1_555
C43_3 C37_3 1_555 1_555
C44_3 C43_3 1_555 1_555
C45_5 C44_3 1_555 1_555
H25_5 C45_5 1_555 1_555
C46_5 C45_5 1_555 1_555
H26_5 C46_5 1_555 1_555
C47_3 C44_3 1_555 1_555
H27_3 C47_3 1_555 1_555
C48_5 C47_3 1_555 1_555
H28_3 C48_5 1_555 1_555
C49_5 C46_5 1_555 1_555
C50_5 C49_5 1_555 1_555
C51_5 C50_5 1_555 1_555
C52_5 C51_5 1_555 1_555
C53_5 C52_5 1_555 1_555
H29_5 C53_5 1_555 1_555
C54_3 C53_5 1_555 1_555
H30_3 C54_3 1_555 1_555
C55_3 C54_3 1_555 1_555
H31_3 C55_3 1_555 1_555
C56_5 C55_3 1_555 1_555
H32_5 C56_5 1_555 1_555
C57_5 C52_5 1_555 1_555
H33_5 C57_5 1_555 1_555
C58_8 C50_5 1_555 1_555
C59_8 C58_8 1_555 1_555
C60_8 H34_8 1_555 1_555
C61_5 C60_8 1_555 1_555
H35_5 C61_5 1_555 1_555
C62_5 C59_8 1_555 1_555
H36_5 C62_5 1_555 1_555
C63_8 C51_5 1_555 1_555
C64_8 C63_8 1_555 1_555
C65_5 C64_8 1_555 1_555
H37_5 C65_5 1_555 1_555
C66_5 C65_5 1_555 1_555
H38_5 C66_5 1_555 1_555
C67_8 C66_5 1_555 1_555
C68_8 C67_8 1_555 1_555
C69_8 C70_8 1_555 1_555
C70_8 O7_4 1_555 1_555
O7_4 Zn12_3 1_555 1_555
C71_5 C69_8 1_555 1_555
H39_5 C71_5 1_555 1_555
C72_5 C68_8 1_555 1_555
H40_5 C72_5 1_555 1_555
H64_4 C108_4 1_555 1_555
C109_4 C108_4 1_555 1_555
H65_4 C109_4 1_555 1_555
C112_4 C109_4 1_555 1_555
C113_4 C58_8 1_555 1_555
C114_4 C63_8 1_555 1_555
C115_4 C114_4 1_555 1_555
C116_4 C115_4 1_555 1_555
H68_4 C116_4 1_555 1_555
H71_4 C119_4 1_555 1_555
C120_4 C115_4 1_555 1_555
H72_4 C120_4 1_555 1_555
C121_4 C60_8 1_555 1_555
H73_4 C121_4 1_555 1_555
C122_4 C59_8 1_555 1_555
H74_4 C122_4 1_555 1_555
C123_4 C64_8 1_555 1_555
H75_4 C123_4 1_555 1_555
C124_4 C67_8 1_555 1_555
H76_4 C124_4 1_555 1_555
O13_2 C70_8 1_555 1_555
C125_4 C69_8 1_555 1_555
H77_4 C125_4 1_555 1_555
C126_4 C68_8 1_555 1_555
H78_4 C126_4 1_555 1_555
Zn9_2 O13_2 1_555 1_555
C40_3 O5_3 1_555 1_555
C40_3 O6_3 1_555 1_555
C42_3 C43_3 1_555 1_555
C48_5 C49_5 1_555 1_555
C56_5 C57_5 1_555 1_555
C61_5 C62_5 1_555 1_555
C71_5 C72_5 1_555 1_555
C111_4 C112_4 1_555 1_555
C112_4 C113_4 1_555 1_555
C113_4 C114_4 1_555 1_555
C119_4 C120_4 1_555 1_555
C121_4 C122_4 1_555 1_555
C123_4 C124_4 1_555 1_555
C125_4 C126_4 1_555 1_555
Zn1_3 O1_7 1_555 1_555
C1_3 H1_3 1_555 1_555
C2_3 C1_3 1_555 1_555
H2_3 C2_3 1_555 1_555
C3_3 C2_3 1_555 1_555
C4_3 C3_3 1_555 1_555
O2_3 C4_3 1_555 1_555
O3_3 Zn1_3 1_555 1_555
C5_3 C3_3 1_555 1_555
H3_3 C5_3 1_555 1_555
C6_3 C5_3 1_555 1_555
H4_3 C6_3 1_555 1_555
C7_3 C1_3 1_555 1_555
C8_3 C7_3 1_555 1_555
C9_5 C8_3 1_555 1_555
H5_5 C9_5 1_555 1_555
C10_5 C9_5 1_555 1_555
H6_5 C10_5 1_555 1_555
C11_3 C8_3 1_555 1_555
H7_3 C11_3 1_555 1_555
C12_5 C11_3 1_555 1_555
H8_5 C12_5 1_555 1_555
C13_5 C10_5 1_555 1_555
C14_5 C13_5 1_555 1_555
C15_5 C14_5 1_555 1_555
C16_5 C15_5 1_555 1_555
C17_5 C16_5 1_555 1_555
H9_3 C17_5 1_555 1_555
C18_3 C17_5 1_555 1_555
H10_3 C18_3 1_555 1_555
C19_3 C18_3 1_555 1_555
H11_3 C19_3 1_555 1_555
C20_5 C19_3 1_555 1_555
H12_5 C20_5 1_555 1_555
C21_5 C16_5 1_555 1_555
H13_5 C21_5 1_555 1_555
C22_7 C14_5 1_555 1_555
C23_7 C22_7 1_555 1_555
C24_7 H14_7 1_555 1_555
C25_5 C24_7 1_555 1_555
H15_5 C25_5 1_555 1_555
C26_5 C23_7 1_555 1_555
H16_5 C26_5 1_555 1_555
C27_7 C15_5 1_555 1_555
C28_7 C27_7 1_555 1_555
C29_5 C28_7 1_555 1_555
H17_5 C29_5 1_555 1_555
C30_5 C29_5 1_555 1_555
H18_5 C30_5 1_555 1_555
C31_7 C30_5 1_555 1_555
C32_7 C31_7 1_555 1_555
C33_7 C34_7 1_555 1_555
C34_7 O18_3 1_555 1_555
C35_5 C33_7 1_555 1_555
H19_5 C35_5 1_555 1_555
C36_5 C32_7 1_555 1_555
H20_5 C36_5 1_555 1_555
H45_4 C81_4 1_555 1_555
C82_4 C81_4 1_555 1_555
H46_4 C82_4 1_555 1_555
H48_4 C84_4 1_555 1_555
C85_4 C82_4 1_555 1_555
C86_4 C22_7 1_555 1_555
C87_4 C27_7 1_555 1_555
C88_4 C87_4 1_555 1_555
C89_4 C88_4 1_555 1_555
H52_4 C92_4 1_555 1_555
C93_4 C88_4 1_555 1_555
H53_4 C93_4 1_555 1_555
C94_4 C24_7 1_555 1_555
H54_4 C94_4 1_555 1_555
C95_4 C23_7 1_555 1_555
H55_4 C95_4 1_555 1_555
C96_4 C28_7 1_555 1_555
H56_4 C96_4 1_555 1_555
C97_4 C31_7 1_555 1_555
H57_4 C97_4 1_555 1_555
O10_2 C34_7 1_555 1_555
C98_4 C33_7 1_555 1_555
H58_4 C98_4 1_555 1_555
C99_4 C32_7 1_555 1_555
H59_4 C99_4 1_555 1_555
Zn8_4 O10_2 1_555 1_555
O19_3 Zn1_3 1_555 1_555
C4_3 O3_3 1_555 1_555
C6_3 C7_3 1_555 1_555
C12_5 C13_5 1_555 1_555
C20_5 C21_5 1_555 1_555
C25_5 C26_5 1_555 1_555
C35_5 C36_5 1_555 1_555
C84_4 C85_4 1_555 1_555
C85_4 C86_4 1_555 1_555
C86_4 C87_4 1_555 1_555
C92_4 C93_4 1_555 1_555
C94_4 C95_4 1_555 1_555
C96_4 C97_4 1_555 1_555
C98_4 C99_4 1_555 1_555
C24_8 H14_8 1_555 1_555
Zn5_2 O9_4 1_555 1_555
C23_8 C22_8 1_555 1_555
C28_8 C27_8 1_555 1_555
C32_8 C31_8 1_555 1_555
C33_8 C34_8 1_555 1_555
C73_4 H41_4 1_555 1_555
C74_6 C73_4 1_555 1_555
H42_6 C74_6 1_555 1_555
C75_4 C74_6 1_555 1_555
C76_6 C75_4 1_555 1_555
O8_2 C76_6 1_555 1_555
C77_4 C75_4 1_555 1_555
H43_4 C77_4 1_555 1_555
C78_4 C77_4 1_555 1_555
H44_4 C78_4 1_555 1_555
C79_4 C73_4 1_555 1_555
C80_4 C79_4 1_555 1_555
C81_5 C80_4 1_555 1_555
H45_5 C81_5 1_555 1_555
C82_5 C81_5 1_555 1_555
H46_5 C82_5 1_555 1_555
C83_4 C80_4 1_555 1_555
H47_4 C83_4 1_555 1_555
C84_5 C83_4 1_555 1_555
H48_5 C84_5 1_555 1_555
C85_5 C82_5 1_555 1_555
C86_5 C22_8 1_555 1_555
C87_5 C27_8 1_555 1_555
C88_5 C87_5 1_555 1_555
C89_5 C88_5 1_555 1_555
H49_4 C89_5 1_555 1_555
C90_4 C89_5 1_555 1_555
H50_4 C90_4 1_555 1_555
C91_4 C90_4 1_555 1_555
H51_4 C91_4 1_555 1_555
C92_5 C91_4 1_555 1_555
H52_5 C92_5 1_555 1_555
C93_5 C88_5 1_555 1_555
H53_5 C93_5 1_555 1_555
Zn9_2 O8_2 1_555 1_555
C78_4 C79_4 1_555 1_555
C84_5 C85_5 1_555 1_555
C85_5 C86_5 1_555 1_555
C86_5 C87_5 1_555 1_555
C92_5 C93_5 1_555 1_555
C24_9 H14_9 1_555 1_555
C59_9 C58_9 1_555 1_555
C64_9 C63_9 1_555 1_555
C68_9 C67_9 1_555 1_555
C69_9 C70_9 1_555 1_555
C94_5 C24_9 1_555 1_555
H54_5 C94_5 1_555 1_555
C100_4 H60_4 1_555 1_555
C101_4 C100_4 1_555 1_555
C102_4 C101_4 1_555 1_555
C103_6 C102_4 1_555 1_555
O12_6 C103_6 1_555 1_555
C104_4 C102_4 1_555 1_555
H62_4 C104_4 1_555 1_555
C105_4 C104_4 1_555 1_555
H63_4 C105_4 1_555 1_555
C106_4 C100_4 1_555 1_555
C107_4 C106_4 1_555 1_555
C108_5 C107_4 1_555 1_555
H64_5 C108_5 1_555 1_555
C109_5 C108_5 1_555 1_555
H65_5 C109_5 1_555 1_555
C110_4 C107_4 1_555 1_555
H66_4 C110_4 1_555 1_555
C111_5 C110_4 1_555 1_555
H67_4 C111_5 1_555 1_555
C112_5 C109_5 1_555 1_555
C113_5 C58_9 1_555 1_555
C114_5 C63_9 1_555 1_555
C115_5 C114_5 1_555 1_555
C116_5 C115_5 1_555 1_555
H68_5 C116_5 1_555 1_555
C117_4 C116_5 1_555 1_555
H69_4 C117_4 1_555 1_555
C118_4 C117_4 1_555 1_555
H70_4 C118_4 1_555 1_555
C119_5 C118_4 1_555 1_555
H71_5 C119_5 1_555 1_555
C120_5 C115_5 1_555 1_555
H72_5 C120_5 1_555 1_555
C122_5 C59_9 1_555 1_555
H74_5 C122_5 1_555 1_555
C123_5 C64_9 1_555 1_555
H75_5 C123_5 1_555 1_555
C124_5 C67_9 1_555 1_555
H76_5 C124_5 1_555 1_555
O13_3 C70_9 1_555 1_555
C125_5 C69_9 1_555 1_555
H77_5 C125_5 1_555 1_555
C126_5 C68_9 1_555 1_555
H78_5 C126_5 1_555 1_555
Zn5_2 O12_6 1_555 1_555
Zn9_3 O13_3 1_555 1_555
O14_2 Zn5_2 1_555 1_555
O18_4 Zn5_2 1_555 1_555
C105_4 C106_4 1_555 1_555
C111_5 C112_5 1_555 1_555
C112_5 C113_5 1_555 1_555
C113_5 C114_5 1_555 1_555
C119_5 C120_5 1_555 1_555
C123_5 C124_5 1_555 1_555
C125_5 C126_5 1_555 1_555
C23_9 C22_9 1_555 1_555
C28_9 C27_9 1_555 1_555
C32_9 C31_9 1_555 1_555
C33_9 C34_9 1_555 1_555
C60_9 H34_9 1_555 1_555
C95_5 C23_9 1_555 1_555
H55_5 C95_5 1_555 1_555
C96_5 C28_9 1_555 1_555
H56_5 C96_5 1_555 1_555
C97_5 C31_9 1_555 1_555
H57_5 C97_5 1_555 1_555
O19_3 C34_9 1_555 1_555
C98_5 C33_9 1_555 1_555
H58_5 C98_5 1_555 1_555
C99_5 C32_9 1_555 1_555
H59_5 C99_5 1_555 1_555
C121_5 C60_9 1_555 1_555
H73_5 C121_5 1_555 1_555
Zn12_3 O11_6 1_555 1_555
O15_2 Zn12_3 1_555 1_555
C96_5 C97_5 1_555 1_555
C98_5 C99_5 1_555 1_555
O14_2 Zn8_5 1_555 1_555
Zn6 O1_8 1_555 1_555
Zn9_3 O1_8 1_555 1_555
C1_4 H1_4 1_555 1_555
C2_4 C1_4 1_555 1_555
H2_4 C2_4 1_555 1_555
C3_4 C2_4 1_555 1_555
C4_4 C3_4 1_555 1_555
O2_4 C4_4 1_555 1_555
O3_4 Zn6 1_555 1_555
C5_4 C3_4 1_555 1_555
H3_4 C5_4 1_555 1_555
C6_4 C5_4 1_555 1_555
H4_4 C6_4 1_555 1_555
C7_4 C1_4 1_555 1_555
C8_4 C7_4 1_555 1_555
C9_6 C8_4 1_555 1_555
H5_6 C9_6 1_555 1_555
C10_6 C9_6 1_555 1_555
H6_6 C10_6 1_555 1_555
C11_4 C8_4 1_555 1_555
H7_4 C11_4 1_555 1_555
C12_6 C11_4 1_555 1_555
H8_6 C12_6 1_555 1_555
C13_6 C10_6 1_555 1_555
C14_6 C13_6 1_555 1_555
C15_6 C14_6 1_555 1_555
C16_6 C15_6 1_555 1_555
C17_6 C16_6 1_555 1_555
H9_4 C17_6 1_555 1_555
C18_4 C17_6 1_555 1_555
H10_4 C18_4 1_555 1_555
C19_4 C18_4 1_555 1_555
H11_4 C19_4 1_555 1_555
C20_6 C19_4 1_555 1_555
H12_6 C20_6 1_555 1_555
C21_6 C16_6 1_555 1_555
H13_6 C21_6 1_555 1_555
C22_10 C14_6 1_555 1_555
C23_10 C22_10 1_555 1_555
C24_10 H14_10 1_555 1_555
C25_6 C24_10 1_555 1_555
H15_6 C25_6 1_555 1_555
C26_6 C23_10 1_555 1_555
H16_6 C26_6 1_555 1_555
C27_10 C15_6 1_555 1_555
C28_10 C27_10 1_555 1_555
C29_6 C28_10 1_555 1_555
H17_6 C29_6 1_555 1_555
C30_6 C29_6 1_555 1_555
H18_6 C30_6 1_555 1_555
C31_10 C30_6 1_555 1_555
C32_10 C31_10 1_555 1_555
C33_10 C34_10 1_555 1_555
C34_10 O18_4 1_555 1_555
C35_6 C33_10 1_555 1_555
H19_6 C35_6 1_555 1_555
C36_6 C32_10 1_555 1_555
H20_6 C36_6 1_555 1_555
C37_4 H21_4 1_555 1_555
C38_4 C37_4 1_555 1_555
H22_4 C38_4 1_555 1_555
C39_4 C38_4 1_555 1_555
C40_4 C39_4 1_555 1_555
O5_4 Zn9_3 1_555 1_555
O6_4 Zn6 1_555 1_555
C41_4 C39_4 1_555 1_555
H23_4 C41_4 1_555 1_555
C42_4 C41_4 1_555 1_555
H24_4 C42_4 1_555 1_555
C43_4 C37_4 1_555 1_555
C44_4 C43_4 1_555 1_555
C45_6 C44_4 1_555 1_555
H25_6 C45_6 1_555 1_555
C46_6 C45_6 1_555 1_555
H26_6 C46_6 1_555 1_555
C47_4 C44_4 1_555 1_555
H27_4 C47_4 1_555 1_555
C48_6 C47_4 1_555 1_555
H28_4 C48_6 1_555 1_555
C49_6 C46_6 1_555 1_555
C50_6 C49_6 1_555 1_555
C51_6 C50_6 1_555 1_555
C52_6 C51_6 1_555 1_555
C53_6 C52_6 1_555 1_555
H29_6 C53_6 1_555 1_555
C54_4 C53_6 1_555 1_555
H30_4 C54_4 1_555 1_555
C55_4 C54_4 1_555 1_555
H31_4 C55_4 1_555 1_555
C56_6 C55_4 1_555 1_555
H32_6 C56_6 1_555 1_555
C57_6 C52_6 1_555 1_555
H33_6 C57_6 1_555 1_555
C58_10 C50_6 1_555 1_555
C59_10 C58_10 1_555 1_555
C60_10 H34_10 1_555 1_555
C61_6 C60_10 1_555 1_555
H35_6 C61_6 1_555 1_555
C62_6 C59_10 1_555 1_555
H36_6 C62_6 1_555 1_555
C63_10 C51_6 1_555 1_555
C64_10 C63_10 1_555 1_555
C65_6 C64_10 1_555 1_555
H37_6 C65_6 1_555 1_555
C66_6 C65_6 1_555 1_555
H38_6 C66_6 1_555 1_555
C67_10 C66_6 1_555 1_555
C68_10 C67_10 1_555 1_555
C69_10 C70_10 1_555 1_555
C70_10 O20_2 1_555 1_555
C71_6 C69_10 1_555 1_555
H39_6 C71_6 1_555 1_555
C72_6 C68_10 1_555 1_555
H40_6 C72_6 1_555 1_555
H45_6 C81_6 1_555 1_555
C82_6 C81_6 1_555 1_555
H46_6 C82_6 1_555 1_555
H48_6 C84_6 1_555 1_555
C85_6 C82_6 1_555 1_555
C86_6 C22_10 1_555 1_555
C87_6 C27_10 1_555 1_555
C88_6 C87_6 1_555 1_555
C89_6 C88_6 1_555 1_555
H52_6 C92_6 1_555 1_555
C93_6 C88_6 1_555 1_555
H53_6 C93_6 1_555 1_555
C94_6 C24_10 1_555 1_555
H54_6 C94_6 1_555 1_555
C95_6 C23_10 1_555 1_555
H55_6 C95_6 1_555 1_555
C96_6 C28_10 1_555 1_555
H56_6 C96_6 1_555 1_555
C97_6 C31_10 1_555 1_555
H57_6 C97_6 1_555 1_555
O10_3 C34_10 1_555 1_555
C98_6 C33_10 1_555 1_555
H58_6 C98_6 1_555 1_555
C99_6 C32_10 1_555 1_555
H59_6 C99_6 1_555 1_555
H64_6 C108_6 1_555 1_555
C109_6 C108_6 1_555 1_555
H65_6 C109_6 1_555 1_555
C112_6 C109_6 1_555 1_555
C113_6 C58_10 1_555 1_555
C114_6 C63_10 1_555 1_555
C115_6 C114_6 1_555 1_555
C116_6 C115_6 1_555 1_555
H68_6 C116_6 1_555 1_555
H71_6 C119_6 1_555 1_555
C120_6 C115_6 1_555 1_555
H72_6 C120_6 1_555 1_555
C121_6 C60_10 1_555 1_555
H73_6 C121_6 1_555 1_555
C122_6 C59_10 1_555 1_555
H74_6 C122_6 1_555 1_555
C123_6 C64_10 1_555 1_555
H75_6 C123_6 1_555 1_555
C124_6 C67_10 1_555 1_555
H76_6 C124_6 1_555 1_555
O13_4 C70_10 1_555 1_555
C125_6 C69_10 1_555 1_555
H77_6 C125_6 1_555 1_555
C126_6 C68_10 1_555 1_555
H78_6 C126_6 1_555 1_555
Zn8_5 O10_3 1_555 1_555
Zn10 O13_4 1_555 1_555
C4_4 O3_4 1_555 1_555
C6_4 C7_4 1_555 1_555
C12_6 C13_6 1_555 1_555
C20_6 C21_6 1_555 1_555
C25_6 C26_6 1_555 1_555
C35_6 C36_6 1_555 1_555
C40_4 O5_4 1_555 1_555
C40_4 O6_4 1_555 1_555
C42_4 C43_4 1_555 1_555
C48_6 C49_6 1_555 1_555
C56_6 C57_6 1_555 1_555
C61_6 C62_6 1_555 1_555
C71_6 C72_6 1_555 1_555
C84_6 C85_6 1_555 1_555
C85_6 C86_6 1_555 1_555
C86_6 C87_6 1_555 1_555
C92_6 C93_6 1_555 1_555
C94_6 C95_6 1_555 1_555
C96_6 C97_6 1_555 1_555
C98_6 C99_6 1_555 1_555
C111_6 C112_6 1_555 1_555
C112_6 C113_6 1_555 1_555
C113_6 C114_6 1_555 1_555
C119_6 C120_6 1_555 1_555
C121_6 C122_6 1_555 1_555
C123_6 C124_6 1_555 1_555
C125_6 C126_6 1_555 1_555
O3_5 Zn8_5 1_555 1_555
O6_5 Zn8_5 1_555 1_555
C40_5 O6_5 1_555 1_555
H2_5 C2_5 1_555 1_555
O15_2 C4_5 1_555 1_555
O5_5 Zn9_2 1_555 1_555
H2_6 C2_6 1_555 1_555
O15 C4_6 1_555 1_555
O3_6 Zn8_4 1_555 1_555
O5_6 Zn10 1_555 1_555
O6_6 Zn8_4 1_555 1_555
C4_6 O3_6 1_555 1_555
C40_6 O5_6 1_555 1_555
C40_6 O6_6 1_555 1_555
C100_5 H60_5 1_555 1_555
C101_5 C100_5 1_555 1_555
H61_7 C101_5 1_555 1_555
C102_5 C101_5 1_555 1_555
C103_7 C102_5 1_555 1_555
O11_7 C103_7 1_555 1_555
O12_7 C103_7 1_555 1_555
C104_5 C102_5 1_555 1_555
H62_5 C104_5 1_555 1_555
C105_5 C104_5 1_555 1_555
H63_5 C105_5 1_555 1_555
C106_5 C100_5 1_555 1_555
C107_5 C106_5 1_555 1_555
C110_5 C107_5 1_555 1_555
H66_5 C110_5 1_555 1_555
H69_5 C117_5 1_555 1_555
C118_5 C117_5 1_555 1_555
H70_5 C118_5 1_555 1_555
Zn3 O12_7 1_555 1_555
Zn4_2 O11_7 1_555 1_555
O14_3 Zn3 1_555 1_555
O15_3 Zn4_2 1_555 1_555
O17_3 Zn3 1_555 1_555
O18_5 Zn3 1_555 1_555
O20_3 Zn4_2 1_555 1_555
C105_5 C106_5 1_555 1_555
Zn4_2 O14_3 1_555 1_555
C73_5 H41_5 1_555 1_555
C74_7 C73_5 1_555 1_555
H42_7 C74_7 1_555 1_555
C75_5 C74_7 1_555 1_555
C76_7 C75_5 1_555 1_555
O8_3 C76_7 1_555 1_555
O17_3 C76_7 1_555 1_555
C77_5 C75_5 1_555 1_555
H43_5 C77_5 1_555 1_555
C78_5 C77_5 1_555 1_555
H44_5 C78_5 1_555 1_555
C79_5 C73_5 1_555 1_555
C80_5 C79_5 1_555 1_555
C83_5 C80_5 1_555 1_555
H47_5 C83_5 1_555 1_555
H50_5 C90_5 1_555 1_555
C91_5 C90_5 1_555 1_555
H51_5 C91_5 1_555 1_555
Zn10_2 O8_3 1_555 1_555
C78_5 C79_5 1_555 1_555
O14_3 Zn8_6 1_555 1_555
Zn10_2 O14_3 1_555 1_555
O14_4 Zn3_2 1_555 1_555
O17_4 Zn3_2 1_555 1_555
O18_6 Zn3_2 1_555 1_555
C73_6 H41_6 1_555 1_555
C74_8 C73_6 1_555 1_555
H42_8 C74_8 1_555 1_555
C75_6 C74_8 1_555 1_555
C76_8 C75_6 1_555 1_555
O8_4 C76_8 1_555 1_555
O17_4 C76_8 1_555 1_555
C77_6 C75_6 1_555 1_555
H43_6 C77_6 1_555 1_555
C78_6 C77_6 1_555 1_555
H44_6 C78_6 1_555 1_555
C79_6 C73_6 1_555 1_555
C80_6 C79_6 1_555 1_555
C83_6 C80_6 1_555 1_555
H47_6 C83_6 1_555 1_555
H50_6 C90_6 1_555 1_555
C91_6 C90_6 1_555 1_555
H51_6 C91_6 1_555 1_555
C100_6 H60_6 1_555 1_555
C101_6 C100_6 1_555 1_555
H61_8 C101_6 1_555 1_555
C102_6 C101_6 1_555 1_555
C103_8 C102_6 1_555 1_555
O11_8 C103_8 1_555 1_555
O12_8 C103_8 1_555 1_555
C104_6 C102_6 1_555 1_555
H62_6 C104_6 1_555 1_555
C105_6 C104_6 1_555 1_555
H63_6 C105_6 1_555 1_555
C106_6 C100_6 1_555 1_555
C107_6 C106_6 1_555 1_555
C110_6 C107_6 1_555 1_555
H66_6 C110_6 1_555 1_555
H69_6 C117_6 1_555 1_555
C118_6 C117_6 1_555 1_555
H70_6 C118_6 1_555 1_555
Zn4_3 O11_8 1_555 1_555
Zn10_3 O8_4 1_555 1_555
O15_4 Zn4_3 1_555 1_555
O20_4 Zn4_3 1_555 1_555
C78_6 C79_6 1_555 1_555
C105_6 C106_6 1_555 1_555
Zn4_3 O14_5 1_555 1_555
Zn10_3 O14_4 1_555 1_555
O14_5 Zn8_7 1_555 1_555
C24_11 H14_11 1_555 1_555
C25_7 C24_11 1_555 1_555
H15_7 C25_7 1_555 1_555
C37_5 H21_5 1_555 1_555
C38_5 C37_5 1_555 1_555
C39_5 C38_5 1_555 1_555
C41_5 C39_5 1_555 1_555
H23_5 C41_5 1_555 1_555
C42_5 C41_5 1_555 1_555
H24_5 C42_5 1_555 1_555
C43_5 C37_5 1_555 1_555
C44_5 C43_5 1_555 1_555
C45_7 C44_5 1_555 1_555
H25_7 C45_7 1_555 1_555
C46_7 C45_7 1_555 1_555
H26_7 C46_7 1_555 1_555
C47_5 C44_5 1_555 1_555
H27_5 C47_5 1_555 1_555
C48_7 C47_5 1_555 1_555
H28_5 C48_7 1_555 1_555
C49_7 C46_7 1_555 1_555
C50_7 C49_7 1_555 1_555
C51_7 C50_7 1_555 1_555
C52_7 C51_7 1_555 1_555
C53_7 C52_7 1_555 1_555
H29_7 C53_7 1_555 1_555
C54_5 C53_7 1_555 1_555
H30_5 C54_5 1_555 1_555
C55_5 C54_5 1_555 1_555
H31_5 C55_5 1_555 1_555
C56_7 C55_5 1_555 1_555
H32_7 C56_7 1_555 1_555
C57_7 C52_7 1_555 1_555
H33_7 C57_7 1_555 1_555
C58_11 C50_7 1_555 1_555
C59_11 C58_11 1_555 1_555
C63_11 C51_7 1_555 1_555
C64_11 C63_11 1_555 1_555
C68_11 C67_11 1_555 1_555
C69_11 C70_11 1_555 1_555
C94_7 C24_11 1_555 1_555
H54_7 C94_7 1_555 1_555
C122_7 C59_11 1_555 1_555
H74_7 C122_7 1_555 1_555
C123_7 C64_11 1_555 1_555
H75_7 C123_7 1_555 1_555
C124_7 C67_11 1_555 1_555
H76_7 C124_7 1_555 1_555
O13_5 C70_11 1_555 1_555
C125_7 C69_11 1_555 1_555
H77_7 C125_7 1_555 1_555
C126_7 C68_11 1_555 1_555
H78_7 C126_7 1_555 1_555
Zn10_3 O13_5 1_555 1_555
C42_5 C43_5 1_555 1_555
C48_7 C49_7 1_555 1_555
C56_7 C57_7 1_555 1_555
C123_7 C124_7 1_555 1_555
C125_7 C126_7 1_555 1_555
C1_5 H1_5 1_555 1_555
C5_5 C3_5 1_555 1_555
H3_5 C5_5 1_555 1_555
C6_5 C5_5 1_555 1_555
H4_5 C6_5 1_555 1_555
C7_5 C1_5 1_555 1_555
C8_5 C7_5 1_555 1_555
C9_7 C8_5 1_555 1_555
H5_7 C9_7 1_555 1_555
C10_7 C9_7 1_555 1_555
H6_7 C10_7 1_555 1_555
C11_5 C8_5 1_555 1_555
H7_5 C11_5 1_555 1_555
C12_7 C11_5 1_555 1_555
H8_7 C12_7 1_555 1_555
C13_7 C10_7 1_555 1_555
C14_7 C13_7 1_555 1_555
C15_7 C14_7 1_555 1_555
C16_7 C15_7 1_555 1_555
C17_7 C16_7 1_555 1_555
H9_5 C17_7 1_555 1_555
C18_5 C17_7 1_555 1_555
H10_5 C18_5 1_555 1_555
C19_5 C18_5 1_555 1_555
H11_5 C19_5 1_555 1_555
C20_7 C19_5 1_555 1_555
H12_7 C20_7 1_555 1_555
C21_7 C16_7 1_555 1_555
H13_7 C21_7 1_555 1_555
C22_11 C14_7 1_555 1_555
C23_11 C22_11 1_555 1_555
C26_7 C23_11 1_555 1_555
H16_7 C26_7 1_555 1_555
C27_11 C15_7 1_555 1_555
C28_11 C27_11 1_555 1_555
C29_7 C28_11 1_555 1_555
H17_7 C29_7 1_555 1_555
C30_7 C29_7 1_555 1_555
H18_7 C30_7 1_555 1_555
C31_11 C30_7 1_555 1_555
C32_11 C31_11 1_555 1_555
C33_11 C34_11 1_555 1_555
C34_11 O18_5 1_555 1_555
C35_7 C33_11 1_555 1_555
H19_7 C35_7 1_555 1_555
C36_7 C32_11 1_555 1_555
H20_7 C36_7 1_555 1_555
C60_11 H34_11 1_555 1_555
C73_7 H41_7 1_555 1_555
C77_7 C75_7 1_555 1_555
H43_7 C77_7 1_555 1_555
C78_7 C77_7 1_555 1_555
H44_7 C78_7 1_555 1_555
C79_7 C73_7 1_555 1_555
C80_7 C79_7 1_555 1_555
C81_7 C80_7 1_555 1_555
H45_7 C81_7 1_555 1_555
C82_7 C81_7 1_555 1_555
H46_7 C82_7 1_555 1_555
C83_7 C80_7 1_555 1_555
H47_7 C83_7 1_555 1_555
C84_7 C83_7 1_555 1_555
H48_7 C84_7 1_555 1_555
C85_7 C82_7 1_555 1_555
C86_7 C22_11 1_555 1_555
C87_7 C27_11 1_555 1_555
C88_7 C87_7 1_555 1_555
C89_7 C88_7 1_555 1_555
H49_7 C89_7 1_555 1_555
C90_7 C89_7 1_555 1_555
H50_7 C90_7 1_555 1_555
C91_7 C90_7 1_555 1_555
H51_7 C91_7 1_555 1_555
C92_7 C91_7 1_555 1_555
H52_7 C92_7 1_555 1_555
C93_7 C88_7 1_555 1_555
H53_7 C93_7 1_555 1_555
C95_7 C23_11 1_555 1_555
H55_7 C95_7 1_555 1_555
C96_7 C28_11 1_555 1_555
H56_7 C96_7 1_555 1_555
C97_7 C31_11 1_555 1_555
H57_7 C97_7 1_555 1_555
O10_4 C34_11 1_555 1_555
C98_7 C33_11 1_555 1_555
H58_7 C98_7 1_555 1_555
C99_7 C32_11 1_555 1_555
H59_7 C99_7 1_555 1_555
C121_7 C60_11 1_555 1_555
H73_7 C121_7 1_555 1_555
Zn8_6 O10_4 1_555 1_555
C6_5 C7_5 1_555 1_555
C12_7 C13_7 1_555 1_555
C20_7 C21_7 1_555 1_555
C35_7 C36_7 1_555 1_555
C78_7 C79_7 1_555 1_555
C84_7 C85_7 1_555 1_555
C85_7 C86_7 1_555 1_555
C86_7 C87_7 1_555 1_555
C92_7 C93_7 1_555 1_555
C96_7 C97_7 1_555 1_555
C98_7 C99_7 1_555 1_555
C59_12 C58_12 1_555 1_555
C62_7 C59_12 1_555 1_555
H36_7 C62_7 1_555 1_555
C64_12 C63_12 1_555 1_555
C65_7 C64_12 1_555 1_555
H37_7 C65_7 1_555 1_555
C66_7 C65_7 1_555 1_555
H38_7 C66_7 1_555 1_555
C67_12 C66_7 1_555 1_555
C68_12 C67_12 1_555 1_555
C69_12 C70_12 1_555 1_555
C70_12 O20_4 1_555 1_555
C71_7 C69_12 1_555 1_555
H39_7 C71_7 1_555 1_555
C72_7 C68_12 1_555 1_555
H40_7 C72_7 1_555 1_555
C100_7 H60_7 1_555 1_555
C101_7 C100_7 1_555 1_555
C102_7 C101_7 1_555 1_555
C104_7 C102_7 1_555 1_555
H62_7 C104_7 1_555 1_555
C105_7 C104_7 1_555 1_555
H63_7 C105_7 1_555 1_555
C106_7 C100_7 1_555 1_555
C107_7 C106_7 1_555 1_555
C108_7 C107_7 1_555 1_555
H64_7 C108_7 1_555 1_555
C109_7 C108_7 1_555 1_555
H65_7 C109_7 1_555 1_555
C110_7 C107_7 1_555 1_555
H66_7 C110_7 1_555 1_555
C111_7 C110_7 1_555 1_555
H67_7 C111_7 1_555 1_555
C112_7 C109_7 1_555 1_555
C113_7 C58_12 1_555 1_555
C114_7 C63_12 1_555 1_555
C115_7 C114_7 1_555 1_555
C116_7 C115_7 1_555 1_555
H68_7 C116_7 1_555 1_555
C117_7 C116_7 1_555 1_555
H69_7 C117_7 1_555 1_555
C118_7 C117_7 1_555 1_555
H70_7 C118_7 1_555 1_555
C119_7 C118_7 1_555 1_555
H71_7 C119_7 1_555 1_555
C120_7 C115_7 1_555 1_555
H72_7 C120_7 1_555 1_555
C71_7 C72_7 1_555 1_555
C105_7 C106_7 1_555 1_555
C111_7 C112_7 1_555 1_555
C112_7 C113_7 1_555 1_555
C113_7 C114_7 1_555 1_555
C119_7 C120_7 1_555 1_555
C60_12 H34_12 1_555 1_555
C61_7 C60_12 1_555 1_555
H35_7 C61_7 1_555 1_555
C37_6 H21_6 1_555 1_555
C38_6 C37_6 1_555 1_555
H22_7 C38_6 1_555 1_555
C39_6 C38_6 1_555 1_555
C40_7 C39_6 1_555 1_555
O5_7 Zn10_3 1_555 1_555
C41_6 C39_6 1_555 1_555
H23_6 C41_6 1_555 1_555
C42_6 C41_6 1_555 1_555
H24_6 C42_6 1_555 1_555
C43_6 C37_6 1_555 1_555
C44_6 C43_6 1_555 1_555
C47_6 C44_6 1_555 1_555
H27_6 C47_6 1_555 1_555
H30_6 C54_6 1_555 1_555
C55_6 C54_6 1_555 1_555
H31_6 C55_6 1_555 1_555
C40_7 O5_7 1_555 1_555
C40_7 O6_7 1_555 1_555
C42_6 C43_6 1_555 1_555
C1_6 H1_6 1_555 1_555
C2_7 C1_6 1_555 1_555
H2_7 C2_7 1_555 1_555
C3_6 C2_7 1_555 1_555
C4_7 C3_6 1_555 1_555
O15_4 C4_7 1_555 1_555
O3_7 Zn8_7 1_555 1_555
C5_6 C3_6 1_555 1_555
H3_6 C5_6 1_555 1_555
C6_6 C5_6 1_555 1_555
H4_6 C6_6 1_555 1_555
C7_6 C1_6 1_555 1_555
C8_6 C7_6 1_555 1_555
C11_6 C8_6 1_555 1_555
H7_6 C11_6 1_555 1_555
H10_6 C18_6 1_555 1_555
C19_6 C18_6 1_555 1_555
H11_6 C19_6 1_555 1_555
O19_4 Zn8_7 1_555 1_555
C4_7 O3_7 1_555 1_555
C6_6 C7_6 1_555 1_555
C23_12 C22_12 1_555 1_555
C24_12 H14_12 1_555 1_555
C25_8 C24_12 1_555 1_555
H15_8 C25_8 1_555 1_555
C26_8 C23_12 1_555 1_555
H16_8 C26_8 1_555 1_555
C28_12 C27_12 1_555 1_555
C29_8 C28_12 1_555 1_555
H17_8 C29_8 1_555 1_555
C30_8 C29_8 1_555 1_555
H18_8 C30_8 1_555 1_555
C31_12 C30_8 1_555 1_555
C32_12 C31_12 1_555 1_555
C33_12 C34_12 1_555 1_555
C34_12 O18_6 1_555 1_555
C35_8 C33_12 1_555 1_555
H19_8 C35_8 1_555 1_555
C36_8 C32_12 1_555 1_555
H20_8 C36_8 1_555 1_555
C73_8 H41_8 1_555 1_555
C77_8 C75_8 1_555 1_555
H43_8 C77_8 1_555 1_555
C78_8 C77_8 1_555 1_555
H44_8 C78_8 1_555 1_555
C79_8 C73_8 1_555 1_555
C80_8 C79_8 1_555 1_555
C81_8 C80_8 1_555 1_555
H45_8 C81_8 1_555 1_555
C82_8 C81_8 1_555 1_555
H46_8 C82_8 1_555 1_555
C83_8 C80_8 1_555 1_555
H47_8 C83_8 1_555 1_555
C84_8 C83_8 1_555 1_555
H48_8 C84_8 1_555 1_555
C85_8 C82_8 1_555 1_555
C86_8 C22_12 1_555 1_555
C87_8 C27_12 1_555 1_555
C88_8 C87_8 1_555 1_555
C89_8 C88_8 1_555 1_555
H49_8 C89_8 1_555 1_555
C90_8 C89_8 1_555 1_555
H50_8 C90_8 1_555 1_555
C91_8 C90_8 1_555 1_555
H51_8 C91_8 1_555 1_555
C92_8 C91_8 1_555 1_555
H52_8 C92_8 1_555 1_555
C93_8 C88_8 1_555 1_555
H53_8 C93_8 1_555 1_555
C25_8 C26_8 1_555 1_555
C35_8 C36_8 1_555 1_555
C78_8 C79_8 1_555 1_555
C84_8 C85_8 1_555 1_555
C85_8 C86_8 1_555 1_555
C86_8 C87_8 1_555 1_555
C92_8 C93_8 1_555 1_555
C1_7 H1_7 1_555 1_555
C5_7 C3_7 1_555 1_555
H3_7 C5_7 1_555 1_555
C6_7 C5_7 1_555 1_555
H4_7 C6_7 1_555 1_555
C7_7 C1_7 1_555 1_555
C8_7 C7_7 1_555 1_555
C9_8 C8_7 1_555 1_555
H5_8 C9_8 1_555 1_555
C10_8 C9_8 1_555 1_555
H6_8 C10_8 1_555 1_555
C11_7 C8_7 1_555 1_555
H7_7 C11_7 1_555 1_555
C12_8 C11_7 1_555 1_555
H8_8 C12_8 1_555 1_555
C13_8 C10_8 1_555 1_555
C14_8 C13_8 1_555 1_555
C15_8 C14_8 1_555 1_555
C16_8 C15_8 1_555 1_555
C17_8 C16_8 1_555 1_555
H9_7 C17_8 1_555 1_555
C18_7 C17_8 1_555 1_555
H10_7 C18_7 1_555 1_555
C19_7 C18_7 1_555 1_555
H11_7 C19_7 1_555 1_555
C20_8 C19_7 1_555 1_555
H12_8 C20_8 1_555 1_555
C21_8 C16_8 1_555 1_555
H13_8 C21_8 1_555 1_555
C22_13 C14_8 1_555 1_555
C23_13 C22_13 1_555 1_555
C24_13 H14_13 1_555 1_555
C27_13 C15_8 1_555 1_555
C28_13 C27_13 1_555 1_555
C32_13 C31_13 1_555 1_555
C33_13 C34_13 1_555 1_555
C37_7 H21_7 1_555 1_555
C38_7 C37_7 1_555 1_555
C39_7 C38_7 1_555 1_555
C41_7 C39_7 1_555 1_555
H23_7 C41_7 1_555 1_555
C42_7 C41_7 1_555 1_555
H24_7 C42_7 1_555 1_555
C43_7 C37_7 1_555 1_555
C44_7 C43_7 1_555 1_555
C45_8 C44_7 1_555 1_555
H25_8 C45_8 1_555 1_555
C46_8 C45_8 1_555 1_555
H26_8 C46_8 1_555 1_555
C47_7 C44_7 1_555 1_555
H27_7 C47_7 1_555 1_555
C48_8 C47_7 1_555 1_555
H28_7 C48_8 1_555 1_555
C49_8 C46_8 1_555 1_555
C50_8 C49_8 1_555 1_555
C51_8 C50_8 1_555 1_555
C52_8 C51_8 1_555 1_555
C53_8 C52_8 1_555 1_555
H29_8 C53_8 1_555 1_555
C54_7 C53_8 1_555 1_555
H30_7 C54_7 1_555 1_555
C55_7 C54_7 1_555 1_555
H31_7 C55_7 1_555 1_555
C56_8 C55_7 1_555 1_555
H32_8 C56_8 1_555 1_555
C57_8 C52_8 1_555 1_555
H33_8 C57_8 1_555 1_555
C58_13 C50_8 1_555 1_555
C59_13 C58_13 1_555 1_555
C60_13 H34_13 1_555 1_555
C61_8 C60_13 1_555 1_555
H35_8 C61_8 1_555 1_555
C62_8 C59_13 1_555 1_555
H36_8 C62_8 1_555 1_555
C63_13 C51_8 1_555 1_555
C64_13 C63_13 1_555 1_555
C65_8 C64_13 1_555 1_555
H37_8 C65_8 1_555 1_555
C66_8 C65_8 1_555 1_555
H38_8 C66_8 1_555 1_555
C67_13 C66_8 1_555 1_555
C68_13 C67_13 1_555 1_555
C69_13 C70_13 1_555 1_555
C70_13 O20_3 1_555 1_555
C71_8 C69_13 1_555 1_555
H39_8 C71_8 1_555 1_555
C72_8 C68_13 1_555 1_555
H40_8 C72_8 1_555 1_555
C94_8 C24_13 1_555 1_555
H54_8 C94_8 1_555 1_555
C95_8 C23_13 1_555 1_555
H55_8 C95_8 1_555 1_555
C96_8 C28_13 1_555 1_555
H56_8 C96_8 1_555 1_555
C97_8 C31_13 1_555 1_555
H57_8 C97_8 1_555 1_555
O19_4 C34_13 1_555 1_555
C98_8 C33_13 1_555 1_555
H58_8 C98_8 1_555 1_555
C99_8 C32_13 1_555 1_555
H59_8 C99_8 1_555 1_555
C100_8 H60_8 1_555 1_555
C101_8 C100_8 1_555 1_555
C102_8 C101_8 1_555 1_555
C104_8 C102_8 1_555 1_555
H62_8 C104_8 1_555 1_555
C105_8 C104_8 1_555 1_555
H63_8 C105_8 1_555 1_555
C106_8 C100_8 1_555 1_555
C107_8 C106_8 1_555 1_555
C108_8 C107_8 1_555 1_555
H64_8 C108_8 1_555 1_555
C109_8 C108_8 1_555 1_555
H65_8 C109_8 1_555 1_555
C110_8 C107_8 1_555 1_555
H66_8 C110_8 1_555 1_555
C111_8 C110_8 1_555 1_555
H67_8 C111_8 1_555 1_555
C112_8 C109_8 1_555 1_555
C113_8 C58_13 1_555 1_555
C114_8 C63_13 1_555 1_555
C115_8 C114_8 1_555 1_555
C116_8 C115_8 1_555 1_555
H68_8 C116_8 1_555 1_555
C117_8 C116_8 1_555 1_555
H69_8 C117_8 1_555 1_555
C118_8 C117_8 1_555 1_555
H70_8 C118_8 1_555 1_555
C119_8 C118_8 1_555 1_555
H71_8 C119_8 1_555 1_555
C120_8 C115_8 1_555 1_555
H72_8 C120_8 1_555 1_555
C121_8 C60_13 1_555 1_555
H73_8 C121_8 1_555 1_555
C122_8 C59_13 1_555 1_555
H74_8 C122_8 1_555 1_555
C123_8 C64_13 1_555 1_555
H75_8 C123_8 1_555 1_555
C124_8 C67_13 1_555 1_555
H76_8 C124_8 1_555 1_555
O13_6 C70_13 1_555 1_555
C125_8 C69_13 1_555 1_555
H77_8 C125_8 1_555 1_555
C126_8 C68_13 1_555 1_555
H78_8 C126_8 1_555 1_555
Zn10_2 O13_6 1_555 1_555
C6_7 C7_7 1_555 1_555
C12_8 C13_8 1_555 1_555
C20_8 C21_8 1_555 1_555
C42_7 C43_7 1_555 1_555
C48_8 C49_8 1_555 1_555
C56_8 C57_8 1_555 1_555
C61_8 C62_8 1_555 1_555
C71_8 C72_8 1_555 1_555
C94_8 C95_8 1_555 1_555
C96_8 C97_8 1_555 1_555
C98_8 C99_8 1_555 1_555
C105_8 C106_8 1_555 1_555
C111_8 C112_8 1_555 1_555
C112_8 C113_8 1_555 1_555
C113_8 C114_8 1_555 1_555
C119_8 C120_8 1_555 1_555
C121_8 C122_8 1_555 1_555
C123_8 C124_8 1_555 1_555
C125_8 C126_8 1_555 1_555
C1_8 H1_8 1_555 1_555
C2_8 C1_8 1_555 1_555
H2_8 C2_8 1_555 1_555
C3_8 C2_8 1_555 1_555
C4_8 C3_8 1_555 1_555
O15_3 C4_8 1_555 1_555
O3_8 Zn8_6 1_555 1_555
C5_8 C3_8 1_555 1_555
H3_8 C5_8 1_555 1_555
C6_8 C5_8 1_555 1_555
H4_8 C6_8 1_555 1_555
C7_8 C1_8 1_555 1_555
C8_8 C7_8 1_555 1_555
C11_8 C8_8 1_555 1_555
H7_8 C11_8 1_555 1_555
H10_8 C18_8 1_555 1_555
C19_8 C18_8 1_555 1_555
H11_8 C19_8 1_555 1_555
C37_8 H21_8 1_555 1_555
C38_8 C37_8 1_555 1_555
H22_8 C38_8 1_555 1_555
C39_8 C38_8 1_555 1_555
C40_8 C39_8 1_555 1_555
O5_8 Zn10_2 1_555 1_555
O6_8 Zn8_6 1_555 1_555
C41_8 C39_8 1_555 1_555
H23_8 C41_8 1_555 1_555
C42_8 C41_8 1_555 1_555
H24_8 C42_8 1_555 1_555
C43_8 C37_8 1_555 1_555
C44_8 C43_8 1_555 1_555
C47_8 C44_8 1_555 1_555
H27_8 C47_8 1_555 1_555
H30_8 C54_8 1_555 1_555
C55_8 C54_8 1_555 1_555
H31_8 C55_8 1_555 1_555
C4_8 O3_8 1_555 1_555
C6_8 C7_8 1_555 1_555
C40_8 O5_8 1_555 1_555
C40_8 O6_8 1_555 1_555
C42_8 C43_8 1_555 1_555

#END
