
###############################################################################
#
# This file contains modified crystal structure data generated from the
# MOF subset of the Cambridge Structural Database (CSD) v543 
# hosted by the Cambridge Crystallographic Data Centre (CCDC).
#
# This work is licensed under the Creative Commons
# Attribution-NonCommercial-ShareAlike 4.0 International License.
# To view a copy of this license, visit
# http://creativecommons.org/licenses/by-nc-sa/4.0/
# or send a letter to
# Creative Commons, PO Box 1866, Mountain View, CA 94042, USA.
#
# CIF created using the CSD Python API on 29 September 2022
# The structure has been converted into the P1 space group
# The structure has a 3D framework
# The original CSD entry ILEYUW is in the tetragonal crystal system
# The framework has been calculated to contain at least 10.0% void space
# The void calculation uses a probe of radius 1.32A, grid spacing 0.4
#
###############################################################################

data_ILEYUW
_chemical_formula_moiety         '(C224 H128 N16 O106 Tb16)n'
_symmetry_cell_setting           triclinic
_symmetry_space_group_name_H-M   'P 1'
_symmetry_Int_Tables_number      1
_space_group_name_Hall           'P 1'
loop_
_symmetry_equiv_pos_site_id
_symmetry_equiv_pos_as_xyz
1 x,y,z
_cell_length_a                   25.36490(10)
_cell_length_b                   25.36490(10)
_cell_length_c                   15.27160(10)
_cell_angle_alpha                90
_cell_angle_beta                 90
_cell_angle_gamma                90
_cell_volume                     9825.41
loop_
_atom_site_label
_atom_site_type_symbol
_atom_site_fract_x
_atom_site_fract_y
_atom_site_fract_z
Tb1 Tb 0.16922(2) 0.49133(2) 0.02301(2)
N1 N 0.1719(2) 0.4605(2) 0.3276(3)
O1 O 0.10806(17) 0.51625(18) 0.1352(3)
O2 O 0.07577(17) 0.46093(19) 0.0394(3)
O3 O 0.26385(16) 0.46967(17) 0.4090(3)
O4 O 0.23549(18) 0.5323(2) 0.4968(3)
C1 C 0.0267(2) 0.4729(3) 0.1700(4)
C6 C 0.0298(2) 0.4750(3) 0.2616(4)
C7 C 0.0805(3) 0.4833(3) 0.3108(4)
C8 C 0.0835(3) 0.5170(4) 0.3791(5)
H6 H 0.053731 0.535647 0.396862
C9 C 0.1318(3) 0.5239(3) 0.4234(5)
H7 H 0.134669 0.547289 0.469951
C10 C 0.1745(2) 0.4949(2) 0.3957(5)
C11 C 0.1252(3) 0.4544(3) 0.2873(4)
H8 H 0.122485 0.430057 0.241998
C12 C 0.0733(2) 0.4840(3) 0.1110(4)
C13 C 0.2273(2) 0.4996(3) 0.4362(4)
Tb2 Tb 0.33078(2) 0.50867(2) 0.52301(2)
Tb3 Tb 0.25867(2) 0.41922(2) 0.27301(2)
N2 N 0.2105(2) 0.5781(2) 0.0776(3)
O9 O 0.21967(17) 0.48615(16) 0.1590(3)
O12 O 0.17203(19) 0.40441(17) 0.0644(3)
O7 O 0.1612(2) 0.4472(2) 0.8853(3)
H1 H 0.190282 0.449160 0.857869
H2 H 0.137042 0.461720 0.855229
O8 O 0.23615(16) 0.53033(17) 0.9090(3)
O10 O 0.26451(18) 0.4677(2) 0.9968(3)
O11 O 0.12279(16) 0.55424(17) 0.9434(3)
O5 O 0.87721(16) 0.44576(17) 0.0566(3)
O6 O 0.84559(17) 0.42203(19) 0.1856(3)
C2 C 0.9785(3) 0.4612(3) 0.1299(4)
H3 H 0.976663 0.459797 0.069078
C3 C 0.9333(2) 0.4518(3) 0.1787(4)
C4 C 0.9376(3) 0.4524(3) 0.2713(4)
H4 H 0.908039 0.445374 0.305395
C5 C 0.9844(3) 0.4631(4) 0.3106(5)
H5 H 0.986544 0.462468 0.371340
C14 C 0.8821(2) 0.4392(2) 0.1356(4)
Tb5 Tb 0.75867(2) 0.41922(2) 0.22699(2)
Tb4 Tb 0.83078(2) 0.50867(2) 0.97699(2)
N1_2 N 0.3281(2) 0.5395(2) 0.8276(3)
O1_2 O 0.39194(17) 0.48375(18) 0.6352(3)
O2_2 O 0.42423(17) 0.53907(19) 0.5394(3)
O5_2 O 0.62279(16) 0.55424(17) 0.5566(3)
O6_2 O 0.65441(17) 0.57797(19) 0.6856(3)
O7_2 O 0.3388(2) 0.5528(2) 0.3853(3)
H1_2 H 0.309718 0.550840 0.357869
H2_2 H 0.362958 0.538280 0.355229
C1_2 C 0.4733(2) 0.5271(3) 0.6700(4)
C2_2 C 0.5215(3) 0.5388(3) 0.6299(4)
H3_2 H 0.523337 0.540203 0.569078
C3_2 C 0.5667(2) 0.5482(3) 0.6787(4)
C4_2 C 0.5624(3) 0.5476(3) 0.7713(4)
H4_2 H 0.591961 0.554626 0.805395
C5_2 C 0.5156(3) 0.5369(4) 0.8106(5)
H5_2 H 0.513456 0.537532 0.871340
C6_2 C 0.4702(2) 0.5250(3) 0.7616(4)
C7_2 C 0.4195(3) 0.5167(3) 0.8108(4)
C8_2 C 0.4165(3) 0.4830(4) 0.8791(5)
H6_2 H 0.446269 0.464353 0.896862
C9_2 C 0.3682(3) 0.4761(3) 0.9234(5)
H7_2 H 0.365331 0.452711 0.969951
C10_2 C 0.3255(2) 0.5051(2) 0.8957(5)
C11_2 C 0.3748(3) 0.5456(3) 0.7873(4)
H8_2 H 0.377515 0.569943 0.741998
C12_2 C 0.4267(2) 0.5160(3) 0.6110(4)
C13_2 C 0.2727(2) 0.5004(3) 0.9362(4)
C14_2 C 0.6179(2) 0.5608(2) 0.6356(4)
Tb3_2 Tb 0.24133(2) 0.58078(2) 0.77301(2)
Tb4_2 Tb 0.66922(2) 0.49133(2) 0.47699(2)
Tb5_2 Tb 0.74133(2) 0.58078(2) 0.72699(2)
N2_2 N 0.2895(2) 0.4219(2) 0.5776(3)
O9_2 O 0.28033(17) 0.51385(16) 0.6590(3)
O11_2 O 0.37721(16) 0.44576(17) 0.4434(3)
O12_2 O 0.32797(19) 0.59559(17) 0.5644(3)
O1_3 O 0.23375(18) 0.35806(17) 0.3852(3)
O2_3 O 0.28907(19) 0.32577(17) 0.2894(3)
O4_2 O 0.2177(2) 0.48549(18) 0.7468(3)
O5_3 O 0.30424(17) 0.12721(16) 0.3066(3)
O6_3 O 0.32797(19) 0.09559(17) 0.4356(3)
O7_3 O 0.3028(2) 0.4112(2) 0.1353(3)
H1_3 H 0.300840 0.440282 0.107869
H2_3 H 0.288280 0.387042 0.105229
C1_3 C 0.2771(3) 0.2767(2) 0.4200(4)
C2_3 C 0.2888(3) 0.2285(3) 0.3799(4)
H3_3 H 0.290203 0.226663 0.319078
C3_3 C 0.2982(3) 0.1833(2) 0.4287(4)
C4_3 C 0.2976(3) 0.1876(3) 0.5213(4)
H4_3 H 0.304626 0.158039 0.555395
C5_3 C 0.2869(4) 0.2344(3) 0.5606(5)
H5_3 H 0.287532 0.236544 0.621340
C6_3 C 0.2750(3) 0.2798(2) 0.5116(4)
C7_3 C 0.2667(3) 0.3305(3) 0.5608(4)
C8_3 C 0.2330(4) 0.3335(3) 0.6291(5)
H6_3 H 0.214353 0.303731 0.646862
C9_3 C 0.2261(3) 0.3818(3) 0.6734(5)
H7_3 H 0.202711 0.384669 0.719951
C10_3 C 0.2551(2) 0.4245(2) 0.6457(5)
C11_3 C 0.2956(3) 0.3752(3) 0.5373(4)
H8_3 H 0.319943 0.372485 0.491998
C12_3 C 0.2660(3) 0.3233(2) 0.3610(4)
C13_3 C 0.2504(3) 0.4773(2) 0.6862(4)
C14_3 C 0.3108(2) 0.1321(2) 0.3856(4)
Tb4_3 Tb 0.24133(2) 0.08078(2) 0.22699(2)
Tb5_3 Tb 0.33078(2) 0.00867(2) 0.47699(2)
O10_2 O 0.2823(2) 0.51451(18) 0.2468(3)
O11_3 O 0.19576(17) 0.37279(16) 0.1934(3)
O12_3 O 0.34559(17) 0.42203(19) 0.3144(3)
C4_4 C 0.2024(3) 0.8124(3) 0.0213(4)
H4_4 H 0.195374 0.841961 0.055395
C5_4 C 0.2131(4) 0.7656(3) 0.0606(5)
H5_4 H 0.212468 0.763456 0.121340
C6_4 C 0.2250(3) 0.7202(2) 0.0116(4)
C7_4 C 0.2333(3) 0.6695(3) 0.0608(4)
C8_4 C 0.2670(4) 0.6665(3) 0.1291(5)
H6_4 H 0.285647 0.696269 0.146862
C9_4 C 0.2739(3) 0.6182(3) 0.1734(5)
H7_4 H 0.297289 0.615331 0.219951
C10_4 C 0.2449(2) 0.5755(2) 0.1457(5)
C11_4 C 0.2044(3) 0.6248(3) 0.0373(4)
C13_4 C 0.2496(3) 0.5227(2) 0.1862(4)
O1_4 O 0.26625(18) 0.64194(17) 0.8852(3)
O2_4 O 0.21093(19) 0.67423(17) 0.7894(3)
O5_4 O 0.19576(17) 0.87279(16) 0.8066(3)
O6_4 O 0.17203(19) 0.90441(17) 0.9356(3)
O7_4 O 0.1972(2) 0.5888(2) 0.6353(3)
H1_4 H 0.199160 0.559718 0.607869
H2_4 H 0.211720 0.612958 0.605229
C1_4 C 0.2229(3) 0.7233(2) 0.9200(4)
C2_4 C 0.2112(3) 0.7715(3) 0.8799(4)
H3_4 H 0.209797 0.773337 0.819078
C3_4 C 0.2018(3) 0.8167(2) 0.9287(4)
H8_4 H 0.180057 0.627515 0.991998
C12_4 C 0.2340(3) 0.6767(2) 0.8610(4)
C14_4 C 0.1892(2) 0.8679(2) 0.8856(4)
Tb4_4 Tb 0.25867(2) 0.91922(2) 0.72699(2)
Tb5_4 Tb 0.16922(2) 0.99133(2) 0.97699(2)
O11_4 O 0.30424(17) 0.62721(16) 0.6934(3)
O12_4 O 0.15441(17) 0.57797(19) 0.8144(3)
Tb2_2 Tb 0.83078(2) 0.00867(2) 0.02301(2)
O1_5 O 0.60806(17) 0.01625(18) 0.6352(3)
O4_3 O 0.73549(18) 0.0323(2) 0.9968(3)
C8_5 C 0.5835(3) 0.0170(4) 0.8791(5)
H6_5 H 0.553731 0.035647 0.896862
C9_5 C 0.6318(3) 0.0239(3) 0.9234(5)
H7_5 H 0.634669 0.047289 0.969951
N2_3 N 0.7105(2) 0.0781(2) 0.5776(3)
O8_2 O 0.73615(16) 0.03033(17) 0.4090(3)
O11_5 O 0.62279(16) 0.05424(17) 0.4434(3)
Tb1_2 Tb 0.66922(2) 0.99133(2) 0.52301(2)
N1_3 N 0.6719(2) 0.9605(2) 0.8276(3)
O2_5 O 0.57577(17) 0.96093(19) 0.5394(3)
O3_2 O 0.76385(16) 0.96967(17) 0.9090(3)
O5_5 O 0.37721(16) 0.94576(17) 0.5566(3)
O6_5 O 0.34559(17) 0.92203(19) 0.6856(3)
O7_5 O 0.6612(2) 0.9472(2) 0.3853(3)
H1_5 H 0.690282 0.949160 0.357869
H2_5 H 0.637042 0.961720 0.355229
C1_5 C 0.5267(2) 0.9729(3) 0.6700(4)
C2_5 C 0.4785(3) 0.9612(3) 0.6299(4)
H3_5 H 0.476663 0.959797 0.569078
C3_5 C 0.4333(2) 0.9518(3) 0.6787(4)
C4_5 C 0.4376(3) 0.9524(3) 0.7713(4)
H4_5 H 0.408039 0.945374 0.805395
C5_5 C 0.4844(3) 0.9631(4) 0.8106(5)
H5_5 H 0.486544 0.962468 0.871340
C6_5 C 0.5298(2) 0.9750(3) 0.7616(4)
C7_5 C 0.5805(3) 0.9833(3) 0.8108(4)
C10_5 C 0.6745(2) 0.9949(2) 0.8957(5)
C11_5 C 0.6252(3) 0.9544(3) 0.7873(4)
H8_5 H 0.622485 0.930057 0.741998
C12_5 C 0.5733(2) 0.9840(3) 0.6110(4)
C13_5 C 0.7273(2) 0.9996(3) 0.9362(4)
C14_5 C 0.3821(2) 0.9392(2) 0.6356(4)
Tb3_3 Tb 0.75867(2) 0.91922(2) 0.77301(2)
O9_3 O 0.71967(17) 0.98615(16) 0.6590(3)
O10_3 O 0.76451(18) 0.9677(2) 0.4968(3)
O12_5 O 0.67203(19) 0.90441(17) 0.5644(3)
O5_6 O 0.12279(16) 0.05424(17) 0.0566(3)
O6_6 O 0.15441(17) 0.07797(19) 0.1856(3)
C2_6 C 0.0215(3) 0.0388(3) 0.1299(4)
H3_6 H 0.023337 0.040203 0.069078
C3_6 C 0.0667(2) 0.0482(3) 0.1787(4)
C4_6 C 0.0624(3) 0.0476(3) 0.2713(4)
H4_6 H 0.091961 0.054626 0.305395
C5_6 C 0.0156(3) 0.0369(4) 0.3106(5)
H5_6 H 0.013456 0.037532 0.371340
C14_6 C 0.1179(2) 0.0608(2) 0.1356(4)
N1_4 N 0.8281(2) 0.0395(2) 0.3276(3)
O2_6 O 0.92423(17) 0.03907(19) 0.0394(3)
C1_6 C 0.9733(2) 0.0271(3) 0.1700(4)
C6_6 C 0.9702(2) 0.0250(3) 0.2616(4)
C7_6 C 0.9195(3) 0.0167(3) 0.3108(4)
C10_6 C 0.8255(2) 0.0051(2) 0.3957(5)
C11_6 C 0.8748(3) 0.0456(3) 0.2873(4)
H8_6 H 0.877515 0.069943 0.241998
C12_6 C 0.9267(2) 0.0160(3) 0.1110(4)
C13_6 C 0.7727(2) 0.0004(3) 0.4362(4)
Tb3_4 Tb 0.74133(2) 0.08078(2) 0.27301(2)
O9_4 O 0.78033(17) 0.01385(16) 0.1590(3)
O12_6 O 0.82797(19) 0.09559(17) 0.0644(3)
O7_6 O 0.8388(2) 0.0528(2) 0.8853(3)
H1_6 H 0.809718 0.050840 0.857869
H2_6 H 0.862958 0.038280 0.855229
O1_6 O 0.89194(17) 0.98375(18) 0.1352(3)
C8_6 C 0.9165(3) 0.9830(4) 0.3791(5)
H6_6 H 0.946269 0.964353 0.396862
C9_6 C 0.8682(3) 0.9761(3) 0.4234(5)
H7_6 H 0.865331 0.952711 0.469951
N2_4 N 0.7895(2) 0.9219(2) 0.0776(3)
O11_6 O 0.87721(16) 0.94576(17) 0.9434(3)
O10_4 O 0.7823(2) 0.01451(18) 0.7468(3)
O4_4 O 0.7177(2) 0.98549(18) 0.2468(3)
C4_7 C 0.7976(3) 0.6876(3) 0.0213(4)
H4_7 H 0.804626 0.658039 0.055395
C5_7 C 0.7869(4) 0.7344(3) 0.0606(5)
H5_7 H 0.787532 0.736544 0.121340
C6_7 C 0.7750(3) 0.7798(2) 0.0116(4)
C7_7 C 0.7667(3) 0.8305(3) 0.0608(4)
C8_7 C 0.7330(4) 0.8335(3) 0.1291(5)
H6_7 H 0.714353 0.803731 0.146862
C9_7 C 0.7261(3) 0.8818(3) 0.1734(5)
H7_7 H 0.702711 0.884669 0.219951
C10_7 C 0.7551(2) 0.9245(2) 0.1457(5)
C11_7 C 0.7956(3) 0.8752(3) 0.0373(4)
C13_7 C 0.7504(3) 0.9773(2) 0.1862(4)
O1_7 O 0.73375(18) 0.85806(17) 0.8852(3)
O2_7 O 0.78907(19) 0.82577(17) 0.7894(3)
O5_7 O 0.80424(17) 0.62721(16) 0.8066(3)
O6_7 O 0.82797(19) 0.59559(17) 0.9356(3)
O7_7 O 0.8028(2) 0.9112(2) 0.6353(3)
H1_7 H 0.800840 0.940282 0.607869
H2_7 H 0.788280 0.887042 0.605229
C1_7 C 0.7771(3) 0.7767(2) 0.9200(4)
C2_7 C 0.7888(3) 0.7285(3) 0.8799(4)
H3_7 H 0.790203 0.726663 0.819078
C3_7 C 0.7982(3) 0.6833(2) 0.9287(4)
H8_7 H 0.819943 0.872485 0.991998
C12_7 C 0.7660(3) 0.8233(2) 0.8610(4)
C14_7 C 0.8108(2) 0.6321(2) 0.8856(4)
O11_7 O 0.69576(17) 0.87279(16) 0.6934(3)
O12_7 O 0.84559(17) 0.92203(19) 0.8144(3)
O1_8 O 0.76625(18) 0.14194(17) 0.3852(3)
O2_8 O 0.71093(19) 0.17423(17) 0.2894(3)
O5_8 O 0.69576(17) 0.37279(16) 0.3066(3)
O6_8 O 0.67203(19) 0.40441(17) 0.4356(3)
O7_8 O 0.6972(2) 0.0888(2) 0.1353(3)
H1_8 H 0.699160 0.059718 0.107869
H2_8 H 0.711720 0.112958 0.105229
C1_8 C 0.7229(3) 0.2233(2) 0.4200(4)
C2_8 C 0.7112(3) 0.2715(3) 0.3799(4)
H3_8 H 0.709797 0.273337 0.319078
C3_8 C 0.7018(3) 0.3167(2) 0.4287(4)
C4_8 C 0.7024(3) 0.3124(3) 0.5213(4)
H4_8 H 0.695374 0.341961 0.555395
C5_8 C 0.7131(4) 0.2656(3) 0.5606(5)
H5_8 H 0.712468 0.263456 0.621340
C6_8 C 0.7250(3) 0.2202(2) 0.5116(4)
C7_8 C 0.7333(3) 0.1695(3) 0.5608(4)
C8_8 C 0.7670(4) 0.1665(3) 0.6291(5)
H6_8 H 0.785647 0.196269 0.646862
C9_8 C 0.7739(3) 0.1182(3) 0.6734(5)
H7_8 H 0.797289 0.115331 0.719951
C10_8 C 0.7449(2) 0.0755(2) 0.6457(5)
C11_8 C 0.7044(3) 0.1248(3) 0.5373(4)
H8_8 H 0.680057 0.127515 0.491998
C12_8 C 0.7340(3) 0.1767(2) 0.3610(4)
C13_8 C 0.7496(3) 0.0227(2) 0.6862(4)
C14_8 C 0.6892(2) 0.3679(2) 0.3856(4)
O11_8 O 0.80424(17) 0.12721(16) 0.1934(3)
O12_8 O 0.65441(17) 0.07797(19) 0.3144(3)
C2_9 C 0.0215(3) 0.5388(3) 0.8701(4)
H3_9 H 0.023337 0.540203 0.930922
C3_9 C 0.0667(2) 0.5482(3) 0.8213(4)
C4_9 C 0.0624(3) 0.5476(3) 0.7287(4)
H4_9 H 0.091961 0.554626 0.694605
C5_9 C 0.0156(3) 0.5369(4) 0.6894(5)
H5_9 H 0.013456 0.537532 0.628660
C14_9 C 0.1179(2) 0.5608(2) 0.8644(4)
O7_9 O 0.8388(2) 0.5528(2) 0.1147(3)
H1_9 H 0.809718 0.550840 0.142131
H2_9 H 0.862958 0.538280 0.144771
O8_3 O 0.76385(16) 0.46967(17) 0.0910(3)
O10_5 O 0.73549(18) 0.5323(2) 0.0032(3)
N1_5 N 0.8281(2) 0.5395(2) 0.6724(3)
O1_9 O 0.89194(17) 0.48375(18) 0.8648(3)
O2_9 O 0.92423(17) 0.53907(19) 0.9606(3)
O3_3 O 0.73615(16) 0.53033(17) 0.5910(3)
O4_5 O 0.76451(18) 0.4677(2) 0.5032(3)
C1_9 C 0.9733(2) 0.5271(3) 0.8300(4)
C6_9 C 0.9702(2) 0.5250(3) 0.7384(4)
C7_9 C 0.9195(3) 0.5167(3) 0.6892(4)
C8_9 C 0.9165(3) 0.4830(4) 0.6209(5)
H6_9 H 0.946269 0.464353 0.603138
C9_9 C 0.8682(3) 0.4761(3) 0.5766(5)
H7_9 H 0.865331 0.452711 0.530049
C10_9 C 0.8255(2) 0.5051(2) 0.6043(5)
C11_9 C 0.8748(3) 0.5456(3) 0.7127(4)
H8_9 H 0.877515 0.569943 0.758002
C12_9 C 0.9267(2) 0.5160(3) 0.8890(4)
C13_9 C 0.7727(2) 0.5004(3) 0.5638(4)
N2_5 N 0.7895(2) 0.4219(2) 0.9224(3)
O9_5 O 0.78033(17) 0.51385(16) 0.8410(3)
N1_6 N 0.6719(2) 0.4605(2) 0.1724(3)
O1_10 O 0.60806(17) 0.51625(18) 0.3648(3)
O2_10 O 0.57577(17) 0.46093(19) 0.4606(3)
O7_10 O 0.6612(2) 0.4472(2) 0.6147(3)
H1_10 H 0.690282 0.449160 0.642131
H2_10 H 0.637042 0.461720 0.644771
C1_10 C 0.5267(2) 0.4729(3) 0.3300(4)
C2_10 C 0.4785(3) 0.4612(3) 0.3701(4)
H3_10 H 0.476663 0.459797 0.430922
C3_10 C 0.4333(2) 0.4518(3) 0.3213(4)
C4_10 C 0.4376(3) 0.4524(3) 0.2287(4)
H4_10 H 0.408039 0.445374 0.194605
C5_10 C 0.4844(3) 0.4631(4) 0.1894(5)
H5_10 H 0.486544 0.462468 0.128660
C6_10 C 0.5298(2) 0.4750(3) 0.2384(4)
C7_10 C 0.5805(3) 0.4833(3) 0.1892(4)
C8_10 C 0.5835(3) 0.5170(4) 0.1209(5)
H6_10 H 0.553731 0.535647 0.103138
C9_10 C 0.6318(3) 0.5239(3) 0.0766(5)
H7_10 H 0.634669 0.547289 0.030049
C10_10 C 0.6745(2) 0.4949(2) 0.1043(5)
C11_10 C 0.6252(3) 0.4544(3) 0.2127(4)
H8_10 H 0.622485 0.430057 0.258002
C12_10 C 0.5733(2) 0.4840(3) 0.3890(4)
C13_10 C 0.7273(2) 0.4996(3) 0.0638(4)
C14_10 C 0.3821(2) 0.4392(2) 0.3644(4)
N2_6 N 0.7105(2) 0.5781(2) 0.4224(3)
O9_6 O 0.71967(17) 0.48615(16) 0.3410(3)
O1_11 O 0.76625(18) 0.64194(17) 0.6148(3)
O2_11 O 0.71093(19) 0.67423(17) 0.7106(3)
O4_6 O 0.7823(2) 0.51451(18) 0.2532(3)
O7_11 O 0.6972(2) 0.5888(2) 0.8647(3)
H1_11 H 0.699160 0.559718 0.892131
H2_11 H 0.711720 0.612958 0.894771
C1_11 C 0.7229(3) 0.7233(2) 0.5800(4)
C2_11 C 0.7112(3) 0.7715(3) 0.6201(4)
H3_11 H 0.709797 0.773337 0.680922
C3_11 C 0.7018(3) 0.8167(2) 0.5713(4)
C4_11 C 0.7024(3) 0.8124(3) 0.4787(4)
H4_11 H 0.695374 0.841961 0.444605
C5_11 C 0.7131(4) 0.7656(3) 0.4394(5)
H5_11 H 0.712468 0.763456 0.378660
C6_11 C 0.7250(3) 0.7202(2) 0.4884(4)
C7_11 C 0.7333(3) 0.6695(3) 0.4392(4)
C8_11 C 0.7670(4) 0.6665(3) 0.3709(5)
H6_11 H 0.785647 0.696269 0.353138
C9_11 C 0.7739(3) 0.6182(3) 0.3266(5)
H7_11 H 0.797289 0.615331 0.280049
C10_11 C 0.7449(2) 0.5755(2) 0.3543(5)
C11_11 C 0.7044(3) 0.6248(3) 0.4627(4)
H8_11 H 0.680057 0.627515 0.508002
C12_11 C 0.7340(3) 0.6767(2) 0.6390(4)
C13_11 C 0.7496(3) 0.5227(2) 0.3138(4)
C14_11 C 0.6892(2) 0.8679(2) 0.6144(4)
O10_6 O 0.7177(2) 0.48549(18) 0.7532(3)
O1_12 O 0.73375(18) 0.35806(17) 0.1148(3)
O2_12 O 0.78907(19) 0.32577(17) 0.2106(3)
O7_12 O 0.8028(2) 0.4112(2) 0.3647(3)
H1_12 H 0.800840 0.440282 0.392131
H2_12 H 0.788280 0.387042 0.394771
C1_12 C 0.7771(3) 0.2767(2) 0.0800(4)
C2_12 C 0.7888(3) 0.2285(3) 0.1201(4)
H3_12 H 0.790203 0.226663 0.180922
C3_12 C 0.7982(3) 0.1833(2) 0.0713(4)
H8_12 H 0.819943 0.372485 0.008002
C12_12 C 0.7660(3) 0.3233(2) 0.1390(4)
C14_12 C 0.8108(2) 0.1321(2) 0.1144(4)
C4_12 C 0.7976(3) 0.1876(3) 0.9787(4)
H4_12 H 0.804626 0.158039 0.944605
C5_12 C 0.7869(4) 0.2344(3) 0.9394(5)
H5_12 H 0.787532 0.236544 0.878660
C6_12 C 0.7750(3) 0.2798(2) 0.9884(4)
C7_12 C 0.7667(3) 0.3305(3) 0.9392(4)
C8_12 C 0.7330(4) 0.3335(3) 0.8709(5)
H6_12 H 0.714353 0.303731 0.853138
C9_12 C 0.7261(3) 0.3818(3) 0.8266(5)
H7_12 H 0.702711 0.384669 0.780049
C10_12 C 0.7551(2) 0.4245(2) 0.8543(5)
C11_12 C 0.7956(3) 0.3752(3) 0.9627(4)
C13_12 C 0.7504(3) 0.4773(2) 0.8138(4)
N1_7 N 0.3281(2) 0.0395(2) 0.1724(3)
O2_13 O 0.42423(17) 0.03907(19) 0.4606(3)
O3_4 O 0.23615(16) 0.03033(17) 0.0910(3)
O7_13 O 0.3388(2) 0.0528(2) 0.6147(3)
H1_13 H 0.309718 0.050840 0.642131
H2_13 H 0.362958 0.038280 0.644771
C1_13 C 0.4733(2) 0.0271(3) 0.3300(4)
C2_13 C 0.5215(3) 0.0388(3) 0.3701(4)
H3_13 H 0.523337 0.040203 0.430922
C3_13 C 0.5667(2) 0.0482(3) 0.3213(4)
C4_13 C 0.5624(3) 0.0476(3) 0.2287(4)
H4_13 H 0.591961 0.054626 0.194605
C5_13 C 0.5156(3) 0.0369(4) 0.1894(5)
H5_13 H 0.513456 0.037532 0.128660
C6_13 C 0.4702(2) 0.0250(3) 0.2384(4)
C7_13 C 0.4195(3) 0.0167(3) 0.1892(4)
C10_13 C 0.3255(2) 0.0051(2) 0.1043(5)
C11_13 C 0.3748(3) 0.0456(3) 0.2127(4)
H8_13 H 0.377515 0.069943 0.258002
C12_13 C 0.4267(2) 0.0160(3) 0.3890(4)
C13_13 C 0.2727(2) 0.0004(3) 0.0638(4)
C14_13 C 0.6179(2) 0.0608(2) 0.3644(4)
O9_7 O 0.28033(17) 0.01385(16) 0.3410(3)
O10_7 O 0.23549(18) 0.0323(2) 0.5032(3)
O1_13 O 0.39194(17) 0.98375(18) 0.3648(3)
O4_7 O 0.26451(18) 0.9677(2) 0.0032(3)
C8_13 C 0.4165(3) 0.9830(4) 0.1209(5)
H6_13 H 0.446269 0.964353 0.103138
C9_13 C 0.3682(3) 0.9761(3) 0.0766(5)
H7_13 H 0.365331 0.952711 0.030049
N2_7 N 0.2895(2) 0.9219(2) 0.4224(3)
O8_4 O 0.26385(16) 0.96967(17) 0.5910(3)
O1_14 O 0.10806(17) 0.01625(18) 0.8648(3)
C8_14 C 0.0835(3) 0.0170(4) 0.6209(5)
H6_14 H 0.053731 0.035647 0.603138
C9_14 C 0.1318(3) 0.0239(3) 0.5766(5)
H7_14 H 0.134669 0.047289 0.530049
N2_8 N 0.2105(2) 0.0781(2) 0.9224(3)
O7_14 O 0.1612(2) 0.9472(2) 0.1147(3)
H1_14 H 0.190282 0.949160 0.142131
H2_14 H 0.137042 0.961720 0.144771
N1_8 N 0.1719(2) 0.9605(2) 0.6724(3)
O2_14 O 0.07577(17) 0.96093(19) 0.9606(3)
C1_14 C 0.0267(2) 0.9729(3) 0.8300(4)
C6_14 C 0.0298(2) 0.9750(3) 0.7384(4)
C7_14 C 0.0805(3) 0.9833(3) 0.6892(4)
C10_14 C 0.1745(2) 0.9949(2) 0.6043(5)
C11_14 C 0.1252(3) 0.9544(3) 0.7127(4)
H8_14 H 0.122485 0.930057 0.758002
C12_14 C 0.0733(2) 0.9840(3) 0.8890(4)
C13_14 C 0.2273(2) 0.9996(3) 0.5638(4)
O9_8 O 0.21967(17) 0.98615(16) 0.8410(3)
C2_14 C 0.9785(3) 0.9612(3) 0.8701(4)
H3_14 H 0.976663 0.959797 0.930922
C3_14 C 0.9333(2) 0.9518(3) 0.8213(4)
C4_14 C 0.9376(3) 0.9524(3) 0.7287(4)
H4_14 H 0.908039 0.945374 0.694605
C5_14 C 0.9844(3) 0.9631(4) 0.6894(5)
H5_14 H 0.986544 0.962468 0.628660
C14_14 C 0.8821(2) 0.9392(2) 0.8644(4)
O1_15 O 0.26625(18) 0.14194(17) 0.1148(3)
O2_15 O 0.21093(19) 0.17423(17) 0.2106(3)
O7_15 O 0.1972(2) 0.0888(2) 0.3647(3)
H1_15 H 0.199160 0.059718 0.392131
H2_15 H 0.211720 0.112958 0.394771
C1_15 C 0.2229(3) 0.2233(2) 0.0800(4)
C2_15 C 0.2112(3) 0.2715(3) 0.1201(4)
H3_15 H 0.209797 0.273337 0.180922
C3_15 C 0.2018(3) 0.3167(2) 0.0713(4)
H8_15 H 0.180057 0.127515 0.008002
C12_15 C 0.2340(3) 0.1767(2) 0.1390(4)
C14_15 C 0.1892(2) 0.3679(2) 0.1144(4)
O4_8 O 0.2823(2) 0.01451(18) 0.7532(3)
C4_15 C 0.2024(3) 0.3124(3) 0.9787(4)
H4_15 H 0.195374 0.341961 0.944605
C5_15 C 0.2131(4) 0.2656(3) 0.9394(5)
H5_15 H 0.212468 0.263456 0.878660
C6_15 C 0.2250(3) 0.2202(2) 0.9884(4)
C7_15 C 0.2333(3) 0.1695(3) 0.9392(4)
C8_15 C 0.2670(4) 0.1665(3) 0.8709(5)
H6_15 H 0.285647 0.196269 0.853138
C9_15 C 0.2739(3) 0.1182(3) 0.8266(5)
H7_15 H 0.297289 0.115331 0.780049
C10_15 C 0.2449(2) 0.0755(2) 0.8543(5)
C11_15 C 0.2044(3) 0.1248(3) 0.9627(4)
C13_15 C 0.2496(3) 0.0227(2) 0.8138(4)
O10_8 O 0.2177(2) 0.98549(18) 0.2532(3)
O1_16 O 0.23375(18) 0.85806(17) 0.6148(3)
O2_16 O 0.28907(19) 0.82577(17) 0.7106(3)
O7_16 O 0.3028(2) 0.9112(2) 0.8647(3)
H1_16 H 0.300840 0.940282 0.892131
H2_16 H 0.288280 0.887042 0.894771
C1_16 C 0.2771(3) 0.7767(2) 0.5800(4)
C2_16 C 0.2888(3) 0.7285(3) 0.6201(4)
H3_16 H 0.290203 0.726663 0.680922
C3_16 C 0.2982(3) 0.6833(2) 0.5713(4)
C4_16 C 0.2976(3) 0.6876(3) 0.4787(4)
H4_16 H 0.304626 0.658039 0.444605
C5_16 C 0.2869(4) 0.7344(3) 0.4394(5)
H5_16 H 0.287532 0.736544 0.378660
C6_16 C 0.2750(3) 0.7798(2) 0.4884(4)
C7_16 C 0.2667(3) 0.8305(3) 0.4392(4)
C8_16 C 0.2330(4) 0.8335(3) 0.3709(5)
H6_16 H 0.214353 0.803731 0.353138
C9_16 C 0.2261(3) 0.8818(3) 0.3266(5)
H7_16 H 0.202711 0.884669 0.280049
C10_16 C 0.2551(2) 0.9245(2) 0.3543(5)
C11_16 C 0.2956(3) 0.8752(3) 0.4627(4)
H8_16 H 0.319943 0.872485 0.508002
C12_16 C 0.2660(3) 0.8233(2) 0.6390(4)
C13_16 C 0.2504(3) 0.9773(2) 0.3138(4)
C14_16 C 0.3108(2) 0.6321(2) 0.6144(4)
loop_
_geom_bond_atom_site_label_1
_geom_bond_atom_site_label_2
_geom_bond_site_symmetry_1
_geom_bond_site_symmetry_2
Tb1 O1 1_555 1_555
N1 C10 1_555 1_555
O1 C12 1_555 1_555
O2 Tb1 1_555 1_555
O3 C13 1_555 1_555
O4 C13 1_555 1_555
C6 C1 1_555 1_555
C7 C6 1_555 1_555
C8 C7 1_555 1_555
H6 C8 1_555 1_555
C9 C8 1_555 1_555
H7 C9 1_555 1_555
C10 C9 1_555 1_555
C11 N1 1_555 1_555
H8 C11 1_555 1_555
C12 O2 1_555 1_555
C13 C10 1_555 1_555
Tb2 O3 1_555 1_555
Tb3 N1 1_555 1_555
N2 Tb1 1_555 1_555
O9 Tb1 1_555 1_555
O12 Tb1 1_555 1_555
O3 Tb3 1_555 1_555
O4 Tb2 1_555 1_555
C1 C12 1_555 1_555
C7 C11 1_555 1_555
Tb3 O9 1_555 1_555
H1 O7 1_555 1_555
H2 O7 1_555 1_555
O5 C14 1_555 1_555
O6 C14 1_555 1_555
C2 H3 1_555 1_555
C3 C2 1_555 1_555
C4 C3 1_555 1_555
H4 C4 1_555 1_555
C5 C4 1_555 1_555
H5 C5 1_555 1_555
C14 C3 1_555 1_555
Tb5 O6 1_555 1_555
Tb2 O1_2 1_555 1_555
N1_2 C10_2 1_555 1_555
O1_2 C12_2 1_555 1_555
O2_2 Tb2 1_555 1_555
O8 C13_2 1_555 1_555
O10 C13_2 1_555 1_555
O5_2 C14_2 1_555 1_555
O6_2 C14_2 1_555 1_555
O7_2 Tb2 1_555 1_555
H1_2 O7_2 1_555 1_555
H2_2 O7_2 1_555 1_555
C1_2 C2_2 1_555 1_555
C2_2 H3_2 1_555 1_555
C3_2 C2_2 1_555 1_555
C4_2 C3_2 1_555 1_555
H4_2 C4_2 1_555 1_555
C5_2 C4_2 1_555 1_555
H5_2 C5_2 1_555 1_555
C6_2 C1_2 1_555 1_555
C7_2 C6_2 1_555 1_555
C8_2 C7_2 1_555 1_555
H6_2 C8_2 1_555 1_555
C9_2 C8_2 1_555 1_555
H7_2 C9_2 1_555 1_555
C10_2 C9_2 1_555 1_555
C11_2 N1_2 1_555 1_555
H8_2 C11_2 1_555 1_555
C12_2 O2_2 1_555 1_555
C13_2 C10_2 1_555 1_555
C14_2 C3_2 1_555 1_555
Tb3_2 N1_2 1_555 1_555
Tb4_2 O5_2 1_555 1_555
Tb5_2 O6_2 1_555 1_555
N2_2 Tb2 1_555 1_555
O9_2 Tb2 1_555 1_555
O11_2 Tb2 1_555 1_555
O12_2 Tb2 1_555 1_555
O8 Tb3_2 1_555 1_555
C1_2 C12_2 1_555 1_555
C5_2 C6_2 1_555 1_555
C7_2 C11_2 1_555 1_555
Tb3_2 O9_2 1_555 1_555
Tb3 O1_3 1_555 1_555
N2_2 C10_3 1_555 1_555
O1_3 C12_3 1_555 1_555
O2_3 Tb3 1_555 1_555
O9_2 C13_3 1_555 1_555
O4_2 C13_3 1_555 1_555
O5_3 C14_3 1_555 1_555
O6_3 C14_3 1_555 1_555
O7_3 Tb3 1_555 1_555
H1_3 O7_3 1_555 1_555
H2_3 O7_3 1_555 1_555
C1_3 C2_3 1_555 1_555
C2_3 H3_3 1_555 1_555
C3_3 C2_3 1_555 1_555
C4_3 C3_3 1_555 1_555
H4_3 C4_3 1_555 1_555
C5_3 C4_3 1_555 1_555
H5_3 C5_3 1_555 1_555
C6_3 C1_3 1_555 1_555
C7_3 C6_3 1_555 1_555
C8_3 C7_3 1_555 1_555
H6_3 C8_3 1_555 1_555
C9_3 C8_3 1_555 1_555
H7_3 C9_3 1_555 1_555
C10_3 C9_3 1_555 1_555
C11_3 N2_2 1_555 1_555
H8_3 C11_3 1_555 1_555
C12_3 O2_3 1_555 1_555
C13_3 C10_3 1_555 1_555
C14_3 C3_3 1_555 1_555
Tb4_3 O5_3 1_555 1_555
Tb5_3 O6_3 1_555 1_555
O10_2 Tb3 1_555 1_555
O11_3 Tb3 1_555 1_555
O12_3 Tb3 1_555 1_555
O4_2 Tb3_2 1_555 1_555
C1_3 C12_3 1_555 1_555
C5_3 C6_3 1_555 1_555
C7_3 C11_3 1_555 1_555
N2 C10_4 1_555 1_555
O9 C13_4 1_555 1_555
O10_2 C13_4 1_555 1_555
H4_4 C4_4 1_555 1_555
C5_4 C4_4 1_555 1_555
H5_4 C5_4 1_555 1_555
C7_4 C6_4 1_555 1_555
C8_4 C7_4 1_555 1_555
H6_4 C8_4 1_555 1_555
C9_4 C8_4 1_555 1_555
H7_4 C9_4 1_555 1_555
C10_4 C9_4 1_555 1_555
C11_4 N2 1_555 1_555
C13_4 C10_4 1_555 1_555
C5_4 C6_4 1_555 1_555
C7_4 C11_4 1_555 1_555
Tb3_2 O1_4 1_555 1_555
O1_4 C12_4 1_555 1_555
O2_4 Tb3_2 1_555 1_555
O5_4 C14_4 1_555 1_555
O6_4 C14_4 1_555 1_555
O7_4 Tb3_2 1_555 1_555
H1_4 O7_4 1_555 1_555
H2_4 O7_4 1_555 1_555
C1_4 C2_4 1_555 1_555
C2_4 H3_4 1_555 1_555
C3_4 C2_4 1_555 1_555
C12_4 O2_4 1_555 1_555
C14_4 C3_4 1_555 1_555
Tb4_4 O5_4 1_555 1_555
Tb5_4 O6_4 1_555 1_555
O11_4 Tb3_2 1_555 1_555
O12_4 Tb3_2 1_555 1_555
C1_4 C12_4 1_555 1_555
H6_5 C8_5 1_555 1_555
C9_5 C8_5 1_555 1_555
H7_5 C9_5 1_555 1_555
N1_3 C10_5 1_555 1_555
O2_5 Tb1_2 1_555 1_555
O3_2 C13_5 1_555 1_555
O5_5 C14_5 1_555 1_555
O6_5 C14_5 1_555 1_555
O7_5 Tb1_2 1_555 1_555
H1_5 O7_5 1_555 1_555
H2_5 O7_5 1_555 1_555
C1_5 C2_5 1_555 1_555
C2_5 H3_5 1_555 1_555
C3_5 C2_5 1_555 1_555
C4_5 C3_5 1_555 1_555
H4_5 C4_5 1_555 1_555
C5_5 C4_5 1_555 1_555
H5_5 C5_5 1_555 1_555
C6_5 C1_5 1_555 1_555
C7_5 C6_5 1_555 1_555
C11_5 N1_3 1_555 1_555
H8_5 C11_5 1_555 1_555
C12_5 O2_5 1_555 1_555
C13_5 C10_5 1_555 1_555
C14_5 C3_5 1_555 1_555
Tb3_3 N1_3 1_555 1_555
Tb4_4 O6_5 1_555 1_555
O9_3 Tb1_2 1_555 1_555
O10_3 Tb1_2 1_555 1_555
O12_5 Tb1_2 1_555 1_555
O3_2 Tb3_3 1_555 1_555
C1_5 C12_5 1_555 1_555
C5_5 C6_5 1_555 1_555
C7_5 C11_5 1_555 1_555
Tb3_3 O9_3 1_555 1_555
O5_6 C14_6 1_555 1_555
O6_6 C14_6 1_555 1_555
C2_6 H3_6 1_555 1_555
C3_6 C2_6 1_555 1_555
C4_6 C3_6 1_555 1_555
H4_6 C4_6 1_555 1_555
C5_6 C4_6 1_555 1_555
H5_6 C5_6 1_555 1_555
C14_6 C3_6 1_555 1_555
Tb4_3 O6_6 1_555 1_555
N1_4 C10_6 1_555 1_555
O2_6 Tb2_2 1_555 1_555
O8_2 C13_6 1_555 1_555
C6_6 C1_6 1_555 1_555
C7_6 C6_6 1_555 1_555
C11_6 N1_4 1_555 1_555
H8_6 C11_6 1_555 1_555
C12_6 O2_6 1_555 1_555
C13_6 C10_6 1_555 1_555
Tb3_4 N1_4 1_555 1_555
O9_4 Tb2_2 1_555 1_555
O12_6 Tb2_2 1_555 1_555
O8_2 Tb3_4 1_555 1_555
C1_6 C12_6 1_555 1_555
C7_6 C11_6 1_555 1_555
Tb3_4 O9_4 1_555 1_555
H1_6 O7_6 1_555 1_555
H2_6 O7_6 1_555 1_555
H6_6 C8_6 1_555 1_555
C9_6 C8_6 1_555 1_555
H7_6 C9_6 1_555 1_555
N2_4 C10_7 1_555 1_555
O4_4 C13_7 1_555 1_555
H4_7 C4_7 1_555 1_555
C5_7 C4_7 1_555 1_555
H5_7 C5_7 1_555 1_555
C7_7 C6_7 1_555 1_555
C8_7 C7_7 1_555 1_555
H6_7 C8_7 1_555 1_555
C9_7 C8_7 1_555 1_555
H7_7 C9_7 1_555 1_555
C10_7 C9_7 1_555 1_555
C11_7 N2_4 1_555 1_555
C13_7 C10_7 1_555 1_555
C5_7 C6_7 1_555 1_555
C7_7 C11_7 1_555 1_555
Tb3_3 O1_7 1_555 1_555
O1_7 C12_7 1_555 1_555
O2_7 Tb3_3 1_555 1_555
O5_7 C14_7 1_555 1_555
O6_7 C14_7 1_555 1_555
O7_7 Tb3_3 1_555 1_555
H1_7 O7_7 1_555 1_555
H2_7 O7_7 1_555 1_555
C1_7 C2_7 1_555 1_555
C2_7 H3_7 1_555 1_555
C3_7 C2_7 1_555 1_555
C12_7 O2_7 1_555 1_555
C14_7 C3_7 1_555 1_555
Tb5_2 O5_7 1_555 1_555
Tb4 O6_7 1_555 1_555
O11_7 Tb3_3 1_555 1_555
O12_7 Tb3_3 1_555 1_555
C1_7 C12_7 1_555 1_555
Tb3_4 O1_8 1_555 1_555
N2_3 C10_8 1_555 1_555
O1_8 C12_8 1_555 1_555
O2_8 Tb3_4 1_555 1_555
O10_4 C13_8 1_555 1_555
O5_8 C14_8 1_555 1_555
O6_8 C14_8 1_555 1_555
O7_8 Tb3_4 1_555 1_555
H1_8 O7_8 1_555 1_555
H2_8 O7_8 1_555 1_555
C1_8 C2_8 1_555 1_555
C2_8 H3_8 1_555 1_555
C3_8 C2_8 1_555 1_555
C4_8 C3_8 1_555 1_555
H4_8 C4_8 1_555 1_555
C5_8 C4_8 1_555 1_555
H5_8 C5_8 1_555 1_555
C6_8 C1_8 1_555 1_555
C7_8 C6_8 1_555 1_555
C8_8 C7_8 1_555 1_555
H6_8 C8_8 1_555 1_555
C9_8 C8_8 1_555 1_555
H7_8 C9_8 1_555 1_555
C10_8 C9_8 1_555 1_555
C11_8 N2_3 1_555 1_555
H8_8 C11_8 1_555 1_555
C12_8 O2_8 1_555 1_555
C13_8 C10_8 1_555 1_555
C14_8 C3_8 1_555 1_555
Tb5 O5_8 1_555 1_555
Tb4_2 O6_8 1_555 1_555
O11_8 Tb3_4 1_555 1_555
O12_8 Tb3_4 1_555 1_555
C1_8 C12_8 1_555 1_555
C5_8 C6_8 1_555 1_555
C7_8 C11_8 1_555 1_555
O11 C14_9 1_555 1_555
O12_4 C14_9 1_555 1_555
C2_9 H3_9 1_555 1_555
C3_9 C2_9 1_555 1_555
C4_9 C3_9 1_555 1_555
H4_9 C4_9 1_555 1_555
C5_9 C4_9 1_555 1_555
H5_9 C5_9 1_555 1_555
C14_9 C3_9 1_555 1_555
H1_9 O7_9 1_555 1_555
H2_9 O7_9 1_555 1_555
Tb4 O1_9 1_555 1_555
N1_5 C10_9 1_555 1_555
O1_9 C12_9 1_555 1_555
O2_9 Tb4 1_555 1_555
O3_3 C13_9 1_555 1_555
O4_5 C13_9 1_555 1_555
C6_9 C1_9 1_555 1_555
C7_9 C6_9 1_555 1_555
C8_9 C7_9 1_555 1_555
H6_9 C8_9 1_555 1_555
C9_9 C8_9 1_555 1_555
H7_9 C9_9 1_555 1_555
C10_9 C9_9 1_555 1_555
C11_9 N1_5 1_555 1_555
H8_9 C11_9 1_555 1_555
C12_9 O2_9 1_555 1_555
C13_9 C10_9 1_555 1_555
Tb4_2 O3_3 1_555 1_555
Tb5_2 N1_5 1_555 1_555
N2_5 Tb4 1_555 1_555
O9_5 Tb4 1_555 1_555
O3_3 Tb5_2 1_555 1_555
O4_5 Tb4_2 1_555 1_555
C1_9 C12_9 1_555 1_555
C7_9 C11_9 1_555 1_555
Tb5_2 O9_5 1_555 1_555
Tb4_2 O1_10 1_555 1_555
N1_6 C10_10 1_555 1_555
O1_10 C12_10 1_555 1_555
O2_10 Tb4_2 1_555 1_555
O8_3 C13_10 1_555 1_555
O10_5 C13_10 1_555 1_555
O11_2 C14_10 1_555 1_555
O12_3 C14_10 1_555 1_555
O7_10 Tb4_2 1_555 1_555
H1_10 O7_10 1_555 1_555
H2_10 O7_10 1_555 1_555
C1_10 C2_10 1_555 1_555
C2_10 H3_10 1_555 1_555
C3_10 C2_10 1_555 1_555
C4_10 C3_10 1_555 1_555
H4_10 C4_10 1_555 1_555
C5_10 C4_10 1_555 1_555
H5_10 C5_10 1_555 1_555
C6_10 C1_10 1_555 1_555
C7_10 C6_10 1_555 1_555
C8_10 C7_10 1_555 1_555
H6_10 C8_10 1_555 1_555
C9_10 C8_10 1_555 1_555
H7_10 C9_10 1_555 1_555
C10_10 C9_10 1_555 1_555
C11_10 N1_6 1_555 1_555
H8_10 C11_10 1_555 1_555
C12_10 O2_10 1_555 1_555
C13_10 C10_10 1_555 1_555
C14_10 C3_10 1_555 1_555
Tb5 N1_6 1_555 1_555
N2_6 Tb4_2 1_555 1_555
O9_6 Tb4_2 1_555 1_555
O8_3 Tb5 1_555 1_555
C1_10 C12_10 1_555 1_555
C5_10 C6_10 1_555 1_555
C7_10 C11_10 1_555 1_555
Tb5 O9_6 1_555 1_555
Tb5_2 O1_11 1_555 1_555
N2_6 C10_11 1_555 1_555
O1_11 C12_11 1_555 1_555
O2_11 Tb5_2 1_555 1_555
O9_6 C13_11 1_555 1_555
O4_6 C13_11 1_555 1_555
O11_7 C14_11 1_555 1_555
O12_5 C14_11 1_555 1_555
O7_11 Tb5_2 1_555 1_555
H1_11 O7_11 1_555 1_555
H2_11 O7_11 1_555 1_555
C1_11 C2_11 1_555 1_555
C2_11 H3_11 1_555 1_555
C3_11 C2_11 1_555 1_555
C4_11 C3_11 1_555 1_555
H4_11 C4_11 1_555 1_555
C5_11 C4_11 1_555 1_555
H5_11 C5_11 1_555 1_555
C6_11 C1_11 1_555 1_555
C7_11 C6_11 1_555 1_555
C8_11 C7_11 1_555 1_555
H6_11 C8_11 1_555 1_555
C9_11 C8_11 1_555 1_555
H7_11 C9_11 1_555 1_555
C10_11 C9_11 1_555 1_555
C11_11 N2_6 1_555 1_555
H8_11 C11_11 1_555 1_555
C12_11 O2_11 1_555 1_555
C13_11 C10_11 1_555 1_555
C14_11 C3_11 1_555 1_555
O10_6 Tb5_2 1_555 1_555
O4_6 Tb5 1_555 1_555
C1_11 C12_11 1_555 1_555
C5_11 C6_11 1_555 1_555
C7_11 C11_11 1_555 1_555
Tb5 O1_12 1_555 1_555
O1_12 C12_12 1_555 1_555
O2_12 Tb5 1_555 1_555
O11_8 C14_12 1_555 1_555
O12_6 C14_12 1_555 1_555
O7_12 Tb5 1_555 1_555
H1_12 O7_12 1_555 1_555
H2_12 O7_12 1_555 1_555
C1_12 C2_12 1_555 1_555
C2_12 H3_12 1_555 1_555
C3_12 C2_12 1_555 1_555
C12_12 O2_12 1_555 1_555
C14_12 C3_12 1_555 1_555
C1_12 C12_12 1_555 1_555
N2_5 C10_12 1_555 1_555
O9_5 C13_12 1_555 1_555
O10_6 C13_12 1_555 1_555
H4_12 C4_12 1_555 1_555
C5_12 C4_12 1_555 1_555
H5_12 C5_12 1_555 1_555
C7_12 C6_12 1_555 1_555
C8_12 C7_12 1_555 1_555
H6_12 C8_12 1_555 1_555
C9_12 C8_12 1_555 1_555
H7_12 C9_12 1_555 1_555
C10_12 C9_12 1_555 1_555
C11_12 N2_5 1_555 1_555
C13_12 C10_12 1_555 1_555
C5_12 C6_12 1_555 1_555
C7_12 C11_12 1_555 1_555
N1_7 C10_13 1_555 1_555
O2_13 Tb5_3 1_555 1_555
O3_4 C13_13 1_555 1_555
O11_5 C14_13 1_555 1_555
O12_8 C14_13 1_555 1_555
O7_13 Tb5_3 1_555 1_555
H1_13 O7_13 1_555 1_555
H2_13 O7_13 1_555 1_555
C1_13 C2_13 1_555 1_555
C2_13 H3_13 1_555 1_555
C3_13 C2_13 1_555 1_555
C4_13 C3_13 1_555 1_555
H4_13 C4_13 1_555 1_555
C5_13 C4_13 1_555 1_555
H5_13 C5_13 1_555 1_555
C6_13 C1_13 1_555 1_555
C7_13 C6_13 1_555 1_555
C11_13 N1_7 1_555 1_555
H8_13 C11_13 1_555 1_555
C12_13 O2_13 1_555 1_555
C13_13 C10_13 1_555 1_555
C14_13 C3_13 1_555 1_555
Tb4_3 N1_7 1_555 1_555
O9_7 Tb5_3 1_555 1_555
O10_7 Tb5_3 1_555 1_555
O3_4 Tb4_3 1_555 1_555
C1_13 C12_13 1_555 1_555
C5_13 C6_13 1_555 1_555
C7_13 C11_13 1_555 1_555
Tb4_3 O9_7 1_555 1_555
H6_13 C8_13 1_555 1_555
C9_13 C8_13 1_555 1_555
H7_13 C9_13 1_555 1_555
H6_14 C8_14 1_555 1_555
C9_14 C8_14 1_555 1_555
H7_14 C9_14 1_555 1_555
H1_14 O7_14 1_555 1_555
H2_14 O7_14 1_555 1_555
N1_8 C10_14 1_555 1_555
O2_14 Tb5_4 1_555 1_555
O8_4 C13_14 1_555 1_555
C6_14 C1_14 1_555 1_555
C7_14 C6_14 1_555 1_555
C11_14 N1_8 1_555 1_555
H8_14 C11_14 1_555 1_555
C12_14 O2_14 1_555 1_555
C13_14 C10_14 1_555 1_555
Tb4_4 N1_8 1_555 1_555
O9_8 Tb5_4 1_555 1_555
O8_4 Tb4_4 1_555 1_555
C1_14 C12_14 1_555 1_555
C7_14 C11_14 1_555 1_555
Tb4_4 O9_8 1_555 1_555
O11_6 C14_14 1_555 1_555
O12_7 C14_14 1_555 1_555
C2_14 H3_14 1_555 1_555
C3_14 C2_14 1_555 1_555
C4_14 C3_14 1_555 1_555
H4_14 C4_14 1_555 1_555
C5_14 C4_14 1_555 1_555
H5_14 C5_14 1_555 1_555
C14_14 C3_14 1_555 1_555
Tb4_3 O1_15 1_555 1_555
O1_15 C12_15 1_555 1_555
O2_15 Tb4_3 1_555 1_555
O11_3 C14_15 1_555 1_555
O12 C14_15 1_555 1_555
O7_15 Tb4_3 1_555 1_555
H1_15 O7_15 1_555 1_555
H2_15 O7_15 1_555 1_555
C1_15 C2_15 1_555 1_555
C2_15 H3_15 1_555 1_555
C3_15 C2_15 1_555 1_555
C12_15 O2_15 1_555 1_555
C14_15 C3_15 1_555 1_555
C1_15 C12_15 1_555 1_555
N2_8 C10_15 1_555 1_555
O4_8 C13_15 1_555 1_555
H4_15 C4_15 1_555 1_555
C5_15 C4_15 1_555 1_555
H5_15 C5_15 1_555 1_555
C7_15 C6_15 1_555 1_555
C8_15 C7_15 1_555 1_555
H6_15 C8_15 1_555 1_555
C9_15 C8_15 1_555 1_555
H7_15 C9_15 1_555 1_555
C10_15 C9_15 1_555 1_555
C11_15 N2_8 1_555 1_555
C13_15 C10_15 1_555 1_555
C5_15 C6_15 1_555 1_555
C7_15 C11_15 1_555 1_555
Tb4_4 O1_16 1_555 1_555
N2_7 C10_16 1_555 1_555
O1_16 C12_16 1_555 1_555
O2_16 Tb4_4 1_555 1_555
O10_8 C13_16 1_555 1_555
O11_4 C14_16 1_555 1_555
O12_2 C14_16 1_555 1_555
O7_16 Tb4_4 1_555 1_555
H1_16 O7_16 1_555 1_555
H2_16 O7_16 1_555 1_555
C1_16 C2_16 1_555 1_555
C2_16 H3_16 1_555 1_555
C3_16 C2_16 1_555 1_555
C4_16 C3_16 1_555 1_555
H4_16 C4_16 1_555 1_555
C5_16 C4_16 1_555 1_555
H5_16 C5_16 1_555 1_555
C6_16 C1_16 1_555 1_555
C7_16 C6_16 1_555 1_555
C8_16 C7_16 1_555 1_555
H6_16 C8_16 1_555 1_555
C9_16 C8_16 1_555 1_555
H7_16 C9_16 1_555 1_555
C10_16 C9_16 1_555 1_555
C11_16 N2_7 1_555 1_555
H8_16 C11_16 1_555 1_555
C12_16 O2_16 1_555 1_555
C13_16 C10_16 1_555 1_555
C14_16 C3_16 1_555 1_555
C1_16 C12_16 1_555 1_555
C5_16 C6_16 1_555 1_555
C7_16 C11_16 1_555 1_555

#END
