
###############################################################################
#
# This file contains modified crystal structure data generated from the
# MOF subset of the Cambridge Structural Database (CSD) v543 
# hosted by the Cambridge Crystallographic Data Centre (CCDC).
#
# This work is licensed under the Creative Commons
# Attribution-NonCommercial-ShareAlike 4.0 International License.
# To view a copy of this license, visit
# http://creativecommons.org/licenses/by-nc-sa/4.0/
# or send a letter to
# Creative Commons, PO Box 1866, Mountain View, CA 94042, USA.
#
# CIF created using the CSD Python API on 29 September 2022
# The structure has been converted into the P1 space group
# The structure has a 3D framework
# The original CSD entry ILEYOQ is in the tetragonal crystal system
# The framework has been calculated to contain at least 10.0% void space
# The void calculation uses a probe of radius 1.32A, grid spacing 0.4
#
###############################################################################

data_ILEYOQ
_chemical_formula_moiety         '(C228 H128 Eu16 N16 O108)n'
_symmetry_cell_setting           triclinic
_symmetry_space_group_name_H-M   'P 1'
_symmetry_Int_Tables_number      1
_space_group_name_Hall           'P 1'
loop_
_symmetry_equiv_pos_site_id
_symmetry_equiv_pos_as_xyz
1 x,y,z
_cell_length_a                   25.3668(2)
_cell_length_b                   25.3668(2)
_cell_length_c                   15.1922(2)
_cell_angle_alpha                90
_cell_angle_beta                 90
_cell_angle_gamma                90
_cell_volume                     9775.79
loop_
_atom_site_label
_atom_site_type_symbol
_atom_site_fract_x
_atom_site_fract_y
_atom_site_fract_z
Eu1 Eu 0.33157(2) 0.50796(2) 0.02538(2)
N1 N 0.32854(16) 0.54003(17) 0.3318(3)
O1 O 0.39267(14) 0.48348(16) 0.1413(2)
O2 O 0.42453(15) 0.53773(16) 0.0416(2)
O3 O 0.62080(13) 0.55548(15) 0.0551(2)
O4 O 0.65440(14) 0.57899(17) 0.1841(3)
O5 O 0.26525(16) 0.46648(19) 0.4975(3)
O6 O 0.23641(13) 0.52923(13) 0.4117(2)
C1 C 0.47364(19) 0.5278(2) 0.1733(3)
C2 C 0.5216(2) 0.5389(2) 0.1324(3)
H3 H 0.523553 0.539060 0.071230
C3 C 0.56666(19) 0.5497(2) 0.1815(3)
C4 C 0.5635(2) 0.5498(3) 0.2724(3)
H4 H 0.593287 0.557356 0.305869
C5 C 0.5163(2) 0.5386(3) 0.3137(4)
H5 H 0.514834 0.538285 0.374837
C6 C 0.4711(2) 0.5280(3) 0.2655(4)
C7 C 0.4207(2) 0.5184(3) 0.3144(4)
C8 C 0.4176(3) 0.4850(3) 0.3842(4)
H6 H 0.447471 0.467122 0.403460
C9 C 0.3695(2) 0.4776(3) 0.4269(4)
H7 H 0.366543 0.454066 0.473613
C10 C 0.3266(2) 0.5056(2) 0.3985(4)
C11 C 0.3752(2) 0.5471(2) 0.2918(3)
H8 H 0.377551 0.572017 0.247134
C12 C 0.27295(18) 0.5000(2) 0.4395(3)
C13 C 0.42743(19) 0.5153(2) 0.1151(3)
C14 C 0.61765(19) 0.5621(2) 0.1365(3)
Eu2 Eu 0.16843(2) 0.49204(2) 0.52538(2)
Eu3 Eu 0.24204(2) 0.58157(2) 0.27538(2)
Eu5 Eu 0.74204(2) 0.58157(2) 0.22462(2)
N2 N 0.29003(17) 0.42146(16) 0.0818(3)
O9 O 0.32899(17) 0.59560(14) 0.0659(3)
O12 O 0.27923(13) 0.51359(13) 0.1617(2)
O7 O 0.34257(18) 0.55340(17) 0.8855(2)
H1 H 0.316849 0.549362 0.858901
H2 H 0.367088 0.552152 0.861631
Eu4 Eu 0.66843(2) 0.49204(2) 0.97462(2)
O8 O 0.37920(13) 0.44452(15) 0.9449(2)
O10 O 0.23475(16) 0.53352(19) 0.9975(3)
O11 O 0.26359(13) 0.47077(13) 0.9117(2)
N1_2 N 0.17146(16) 0.45997(17) 0.8318(3)
O1_2 O 0.10733(14) 0.51652(16) 0.6413(2)
O2_2 O 0.07547(15) 0.46227(16) 0.5416(2)
O7_2 O 0.15743(18) 0.44660(17) 0.3855(2)
H1_2 H 0.183151 0.450638 0.358901
H2_2 H 0.132912 0.447848 0.361631
C1_2 C 0.02636(19) 0.4722(2) 0.6733(3)
C6_2 C 0.0289(2) 0.4720(3) 0.7655(4)
C7_2 C 0.0793(2) 0.4816(3) 0.8144(4)
C8_2 C 0.0824(3) 0.5150(3) 0.8842(4)
H6_2 H 0.052529 0.532878 0.903460
C9_2 C 0.1305(2) 0.5224(3) 0.9269(4)
H7_2 H 0.133457 0.545934 0.973613
C10_2 C 0.1734(2) 0.4944(2) 0.8985(4)
C11_2 C 0.1248(2) 0.4529(2) 0.7918(3)
H8_2 H 0.122449 0.427983 0.747134
C12_2 C 0.22705(18) 0.5000(2) 0.9395(3)
C13_2 C 0.07257(19) 0.4847(2) 0.6151(3)
Eu3_2 Eu 0.25796(2) 0.41843(2) 0.77538(2)
N2_2 N 0.20997(17) 0.57854(16) 0.5818(3)
O8_2 O 0.12080(13) 0.55548(15) 0.4449(2)
O9_2 O 0.17101(17) 0.40440(14) 0.5659(3)
O12_2 O 0.22077(13) 0.48641(13) 0.6617(2)
O3_2 O 0.87920(13) 0.44452(15) 0.5551(2)
O4_2 O 0.84560(14) 0.42101(17) 0.6841(3)
C2_2 C 0.9784(2) 0.4611(2) 0.6324(3)
H3_2 H 0.976447 0.460940 0.571230
C3_2 C 0.93334(19) 0.4503(2) 0.6815(3)
C4_2 C 0.9365(2) 0.4502(3) 0.7724(3)
H4_2 H 0.906713 0.442644 0.805869
C5_2 C 0.9837(2) 0.4614(3) 0.8137(4)
H5_2 H 0.985166 0.461715 0.874837
C14_2 C 0.88235(19) 0.4379(2) 0.6365(3)
Eu4_2 Eu 0.83157(2) 0.50796(2) 0.47462(2)
Eu5_2 Eu 0.75796(2) 0.41843(2) 0.72462(2)
O1_3 O 0.26652(16) 0.64267(14) 0.3913(2)
O2_3 O 0.21227(16) 0.67453(15) 0.2916(2)
O3_3 O 0.19452(15) 0.87080(13) 0.3051(2)
O4_3 O 0.17101(17) 0.90440(14) 0.4341(3)
O5_2 O 0.28352(19) 0.51525(16) 0.7475(3)
O7_3 O 0.19660(17) 0.59257(18) 0.1355(2)
H1_3 H 0.200638 0.566849 0.108901
H2_3 H 0.197848 0.617088 0.111631
C1_3 C 0.2222(2) 0.72364(19) 0.4233(3)
C2_3 C 0.2111(2) 0.7716(2) 0.3824(3)
H3_3 H 0.210940 0.773553 0.321230
C3_3 C 0.2003(2) 0.81666(19) 0.4315(3)
C4_3 C 0.2002(3) 0.8135(2) 0.5224(3)
H4_3 H 0.192644 0.843287 0.555869
C5_3 C 0.2114(3) 0.7663(2) 0.5637(4)
H5_3 H 0.211715 0.764834 0.624837
C6_3 C 0.2220(3) 0.7211(2) 0.5155(4)
C7_3 C 0.2316(3) 0.6707(2) 0.5644(4)
C8_3 C 0.2650(3) 0.6676(3) 0.6342(4)
H6_3 H 0.282878 0.697471 0.653460
C9_3 C 0.2724(3) 0.6195(2) 0.6769(4)
H7_3 H 0.295934 0.616543 0.723613
C10_3 C 0.2444(2) 0.5766(2) 0.6485(4)
C11_3 C 0.2029(2) 0.6252(2) 0.5418(3)
H8_3 H 0.177983 0.627551 0.497134
C12_3 C 0.2500(2) 0.52295(18) 0.6895(3)
C13_3 C 0.2347(2) 0.67743(19) 0.3651(3)
C14_3 C 0.1879(2) 0.86765(19) 0.3865(3)
Eu4_3 Eu 0.25796(2) 0.91843(2) 0.22462(2)
Eu5_3 Eu 0.16843(2) 0.99204(2) 0.47462(2)
O8_3 O 0.30548(15) 0.62920(13) 0.1949(2)
O9_3 O 0.15440(14) 0.57899(17) 0.3159(3)
O10_2 O 0.21648(19) 0.48475(16) 0.2475(3)
C4_4 C 0.2998(3) 0.1865(2) 0.0224(3)
H4_4 H 0.307356 0.156713 0.055869
C5_4 C 0.2886(3) 0.2337(2) 0.0637(4)
H5_4 H 0.288285 0.235166 0.124837
C6_4 C 0.2780(3) 0.2789(2) 0.0155(4)
C7_4 C 0.2684(3) 0.3293(2) 0.0644(4)
C8_4 C 0.2350(3) 0.3324(3) 0.1342(4)
H6_4 H 0.217122 0.302529 0.153460
C9_4 C 0.2276(3) 0.3805(2) 0.1769(4)
H7_4 H 0.204066 0.383457 0.223613
C10_4 C 0.2556(2) 0.4234(2) 0.1485(4)
C11_4 C 0.2971(2) 0.3748(2) 0.0418(3)
C12_4 C 0.2500(2) 0.47705(18) 0.1895(3)
O1_4 O 0.23348(16) 0.35733(14) 0.8913(2)
O2_4 O 0.28773(16) 0.32547(15) 0.7916(2)
O3_4 O 0.30548(15) 0.12920(13) 0.8051(2)
O4_4 O 0.32899(17) 0.09560(14) 0.9341(3)
O7_4 O 0.30340(17) 0.40743(18) 0.6355(2)
H1_4 H 0.299362 0.433151 0.608901
H2_4 H 0.302152 0.382912 0.611631
C1_4 C 0.2778(2) 0.27636(19) 0.9233(3)
C2_4 C 0.2889(2) 0.2284(2) 0.8824(3)
H3_4 H 0.289060 0.226447 0.821230
C3_4 C 0.2997(2) 0.18334(19) 0.9315(3)
H8_4 H 0.322017 0.372449 0.997134
C13_4 C 0.2653(2) 0.32257(19) 0.8651(3)
C14_4 C 0.3121(2) 0.13235(19) 0.8865(3)
Eu4_4 Eu 0.24204(2) 0.08157(2) 0.72462(2)
Eu5_4 Eu 0.33157(2) 0.00796(2) 0.97462(2)
O8_4 O 0.19452(15) 0.37080(13) 0.6949(2)
O9_4 O 0.34560(14) 0.42101(17) 0.8159(3)
O3_5 O 0.12080(13) 0.05548(15) 0.5551(2)
O4_5 O 0.15440(14) 0.07899(17) 0.6841(3)
C2_5 C 0.0216(2) 0.0389(2) 0.6324(3)
H3_5 H 0.023553 0.039060 0.571230
C3_5 C 0.06666(19) 0.0497(2) 0.6815(3)
C4_5 C 0.0635(2) 0.0498(3) 0.7724(3)
H4_5 H 0.093287 0.057356 0.805869
C5_5 C 0.0163(2) 0.0386(3) 0.8137(4)
H5_5 H 0.014834 0.038285 0.874837
C14_5 C 0.11765(19) 0.0621(2) 0.6365(3)
Eu1_2 Eu 0.83157(2) 0.00796(2) 0.52538(2)
N1_3 N 0.82854(16) 0.04003(17) 0.8318(3)
O2_5 O 0.92453(15) 0.03773(16) 0.5416(2)
O6_2 O 0.73641(13) 0.02923(13) 0.9117(2)
O7_5 O 0.84257(18) 0.05340(17) 0.3855(2)
H1_5 H 0.816849 0.049362 0.358901
H2_5 H 0.867088 0.052152 0.361631
C1_5 C 0.97364(19) 0.0278(2) 0.6733(3)
C6_5 C 0.9711(2) 0.0280(3) 0.7655(4)
C7_5 C 0.9207(2) 0.0184(3) 0.8144(4)
C10_5 C 0.8266(2) 0.0056(2) 0.8985(4)
C11_5 C 0.8752(2) 0.0471(2) 0.7918(3)
H8_5 H 0.877551 0.072017 0.747134
C12_5 C 0.77295(18) 0.0000(2) 0.9395(3)
C13_5 C 0.92743(19) 0.0153(2) 0.6151(3)
Eu3_3 Eu 0.74204(2) 0.08157(2) 0.77538(2)
O9_5 O 0.82899(17) 0.09560(14) 0.5659(3)
O10_3 O 0.73475(16) 0.03352(19) 0.4975(3)
O12_3 O 0.77923(13) 0.01359(13) 0.6617(2)
Eu2_2 Eu 0.66843(2) 0.99204(2) 0.02538(2)
O1_5 O 0.89267(14) 0.98348(16) 0.6413(2)
O5_3 O 0.76525(16) 0.96648(19) 0.9975(3)
C8_5 C 0.9176(3) 0.9850(3) 0.8842(4)
H6_5 H 0.947471 0.967122 0.903460
C9_5 C 0.8695(2) 0.9776(3) 0.9269(4)
H7_5 H 0.866543 0.954066 0.973613
C12_6 C 0.77295(18) 1.0000(2) 0.9395(3)
N2_3 N 0.79003(17) 0.92146(16) 0.5818(3)
O8_5 O 0.87920(13) 0.94452(15) 0.4449(2)
O11_2 O 0.76359(13) 0.97077(13) 0.4117(2)
O1_6 O 0.60733(14) 0.01652(16) 0.1413(2)
C8_6 C 0.5824(3) 0.0150(3) 0.3842(4)
H6_6 H 0.552529 0.032878 0.403460
C9_6 C 0.6305(2) 0.0224(3) 0.4269(4)
H7_6 H 0.633457 0.045934 0.473613
C12_7 C 0.72705(18) 0.0000(2) 0.4395(3)
N2_4 N 0.70997(17) 0.07854(16) 0.0818(3)
O8_6 O 0.62080(13) 0.05548(15) 0.9449(2)
N1_4 N 0.67146(16) 0.95997(17) 0.3318(3)
O2_6 O 0.57547(15) 0.96227(16) 0.0416(2)
O3_6 O 0.37920(13) 0.94452(15) 0.0551(2)
O4_6 O 0.34560(14) 0.92101(17) 0.1841(3)
C1_6 C 0.52636(19) 0.9722(2) 0.1733(3)
C2_6 C 0.4784(2) 0.9611(2) 0.1324(3)
H3_6 H 0.476447 0.960940 0.071230
C3_6 C 0.43334(19) 0.9503(2) 0.1815(3)
C4_6 C 0.4365(2) 0.9502(3) 0.2724(3)
H4_6 H 0.406713 0.942644 0.305869
C5_6 C 0.4837(2) 0.9614(3) 0.3137(4)
H5_6 H 0.485166 0.961715 0.374837
C6_6 C 0.5289(2) 0.9720(3) 0.2655(4)
C7_6 C 0.5793(2) 0.9816(3) 0.3144(4)
C10_6 C 0.6734(2) 0.9944(2) 0.3985(4)
C11_6 C 0.6248(2) 0.9529(2) 0.2918(3)
H8_6 H 0.622449 0.927983 0.247134
C12_8 C 0.72705(18) 1.0000(2) 0.4395(3)
C13_6 C 0.57257(19) 0.9847(2) 0.1151(3)
C14_6 C 0.38235(19) 0.9379(2) 0.1365(3)
Eu3_4 Eu 0.75796(2) 0.91843(2) 0.27538(2)
O9_6 O 0.67101(17) 0.90440(14) 0.0659(3)
O12_4 O 0.72077(13) 0.98641(13) 0.1617(2)
O7_6 O 0.65743(18) 0.94660(17) 0.8855(2)
H1_6 H 0.683151 0.950638 0.858901
H2_6 H 0.632912 0.947848 0.861631
O5_4 O 0.78352(19) 0.01525(16) 0.2475(3)
C4_7 C 0.7002(3) 0.3135(2) 0.0224(3)
H4_7 H 0.692644 0.343287 0.055869
C5_7 C 0.7114(3) 0.2663(2) 0.0637(4)
H5_7 H 0.711715 0.264834 0.124837
C6_7 C 0.7220(3) 0.2211(2) 0.0155(4)
C7_7 C 0.7316(3) 0.1707(2) 0.0644(4)
C8_7 C 0.7650(3) 0.1676(3) 0.1342(4)
H6_7 H 0.782878 0.197471 0.153460
C9_7 C 0.7724(3) 0.1195(2) 0.1769(4)
H7_7 H 0.795934 0.116543 0.223613
C10_7 C 0.7444(2) 0.0766(2) 0.1485(4)
C11_7 C 0.7029(2) 0.1252(2) 0.0418(3)
C12_9 C 0.7500(2) 0.02295(18) 0.1895(3)
O1_7 O 0.76652(16) 0.14267(14) 0.8913(2)
O2_7 O 0.71227(16) 0.17453(15) 0.7916(2)
O3_7 O 0.69452(15) 0.37080(13) 0.8051(2)
O4_7 O 0.67101(17) 0.40440(14) 0.9341(3)
O7_7 O 0.69660(17) 0.09257(18) 0.6355(2)
H1_7 H 0.700638 0.066849 0.608901
H2_7 H 0.697848 0.117088 0.611631
C1_7 C 0.7222(2) 0.22364(19) 0.9233(3)
C2_7 C 0.7111(2) 0.2716(2) 0.8824(3)
H3_7 H 0.710940 0.273553 0.821230
C3_7 C 0.7003(2) 0.31666(19) 0.9315(3)
H8_7 H 0.677983 0.127551 0.997134
C13_7 C 0.7347(2) 0.17743(19) 0.8651(3)
C14_7 C 0.6879(2) 0.36765(19) 0.8865(3)
O8_7 O 0.80548(15) 0.12920(13) 0.6949(2)
O9_7 O 0.65440(14) 0.07899(17) 0.8159(3)
O10_4 O 0.71648(19) 0.98475(16) 0.7475(3)
O1_8 O 0.73348(16) 0.85733(14) 0.3913(2)
O2_8 O 0.78773(16) 0.82547(15) 0.2916(2)
O3_8 O 0.80548(15) 0.62920(13) 0.3051(2)
O4_8 O 0.82899(17) 0.59560(14) 0.4341(3)
O7_8 O 0.80340(17) 0.90743(18) 0.1355(2)
H1_8 H 0.799362 0.933151 0.108901
H2_8 H 0.802152 0.882912 0.111631
C1_8 C 0.7778(2) 0.77636(19) 0.4233(3)
C2_8 C 0.7889(2) 0.7284(2) 0.3824(3)
H3_8 H 0.789060 0.726447 0.321230
C3_8 C 0.7997(2) 0.68334(19) 0.4315(3)
C4_8 C 0.7998(3) 0.6865(2) 0.5224(3)
H4_8 H 0.807356 0.656713 0.555869
C5_8 C 0.7886(3) 0.7337(2) 0.5637(4)
H5_8 H 0.788285 0.735166 0.624837
C6_8 C 0.7780(3) 0.7789(2) 0.5155(4)
C7_8 C 0.7684(3) 0.8293(2) 0.5644(4)
C8_8 C 0.7350(3) 0.8324(3) 0.6342(4)
H6_8 H 0.717122 0.802529 0.653460
C9_8 C 0.7276(3) 0.8805(2) 0.6769(4)
H7_8 H 0.704066 0.883457 0.723613
C10_8 C 0.7556(2) 0.9234(2) 0.6485(4)
C11_8 C 0.7971(2) 0.8748(2) 0.5418(3)
H8_8 H 0.822017 0.872449 0.497134
C12_10 C 0.7500(2) 0.97705(18) 0.6895(3)
C13_8 C 0.7653(2) 0.82257(19) 0.3651(3)
C14_8 C 0.8121(2) 0.63235(19) 0.3865(3)
O8_8 O 0.69452(15) 0.87080(13) 0.1949(2)
O9_8 O 0.84560(14) 0.92101(17) 0.3159(3)
O7_9 O 0.65743(18) 0.44660(17) 0.1145(2)
H1_9 H 0.683151 0.450638 0.141099
H2_9 H 0.632912 0.447848 0.138369
O10_5 O 0.76525(16) 0.46648(19) 0.0025(3)
O11_3 O 0.73641(13) 0.52923(13) 0.0883(2)
N1_5 N 0.67146(16) 0.45997(17) 0.6682(3)
O1_9 O 0.60733(14) 0.51652(16) 0.8587(2)
O2_9 O 0.57547(15) 0.46227(16) 0.9584(2)
O5_5 O 0.73475(16) 0.53352(19) 0.5025(3)
O6_3 O 0.76359(13) 0.47077(13) 0.5883(2)
C1_9 C 0.52636(19) 0.4722(2) 0.8267(3)
C2_9 C 0.4784(2) 0.4611(2) 0.8676(3)
H3_9 H 0.476447 0.460940 0.928770
C3_9 C 0.43334(19) 0.4503(2) 0.8185(3)
C4_9 C 0.4365(2) 0.4502(3) 0.7276(3)
H4_9 H 0.406713 0.442644 0.694131
C5_9 C 0.4837(2) 0.4614(3) 0.6863(4)
H5_9 H 0.485166 0.461715 0.625163
C6_9 C 0.5289(2) 0.4720(3) 0.7345(4)
C7_9 C 0.5793(2) 0.4816(3) 0.6856(4)
C8_9 C 0.5824(3) 0.5150(3) 0.6158(4)
H6_9 H 0.552529 0.532878 0.596540
C9_9 C 0.6305(2) 0.5224(3) 0.5731(4)
H7_9 H 0.633457 0.545934 0.526387
C10_9 C 0.6734(2) 0.4944(2) 0.6015(4)
C11_9 C 0.6248(2) 0.4529(2) 0.7082(3)
H8_9 H 0.622449 0.427983 0.752866
C12_11 C 0.72705(18) 0.5000(2) 0.5605(3)
C13_9 C 0.57257(19) 0.4847(2) 0.8849(3)
C14_9 C 0.38235(19) 0.4379(2) 0.8635(3)
N2_5 N 0.70997(17) 0.57854(16) 0.9182(3)
O12_5 O 0.72077(13) 0.48641(13) 0.8383(2)
C2_10 C 0.0216(2) 0.5389(2) 0.3676(3)
H3_10 H 0.023553 0.539060 0.428770
C3_10 C 0.06666(19) 0.5497(2) 0.3185(3)
C4_10 C 0.0635(2) 0.5498(3) 0.2276(3)
H4_10 H 0.093287 0.557356 0.194131
C5_10 C 0.0163(2) 0.5386(3) 0.1863(4)
H5_10 H 0.014834 0.538285 0.125163
C14_10 C 0.11765(19) 0.5621(2) 0.3635(3)
N1_6 N 0.82854(16) 0.54003(17) 0.1682(3)
O1_10 O 0.89267(14) 0.48348(16) 0.3587(2)
O2_10 O 0.92453(15) 0.53773(16) 0.4584(2)
O7_10 O 0.84257(18) 0.55340(17) 0.6145(2)
H1_10 H 0.816849 0.549362 0.641099
H2_10 H 0.867088 0.552152 0.638369
C1_10 C 0.97364(19) 0.5278(2) 0.3267(3)
C6_10 C 0.9711(2) 0.5280(3) 0.2345(4)
C7_10 C 0.9207(2) 0.5184(3) 0.1856(4)
C8_10 C 0.9176(3) 0.4850(3) 0.1158(4)
H6_10 H 0.947471 0.467122 0.096540
C9_10 C 0.8695(2) 0.4776(3) 0.0731(4)
H7_10 H 0.866543 0.454066 0.026387
C10_10 C 0.8266(2) 0.5056(2) 0.1015(4)
C11_10 C 0.8752(2) 0.5471(2) 0.2082(3)
H8_10 H 0.877551 0.572017 0.252866
C12_12 C 0.77295(18) 0.5000(2) 0.0605(3)
C13_10 C 0.92743(19) 0.5153(2) 0.3849(3)
N2_6 N 0.79003(17) 0.42146(16) 0.4182(3)
O12_6 O 0.77923(13) 0.51359(13) 0.3383(2)
O1_11 O 0.73348(16) 0.35733(14) 0.6087(2)
O2_11 O 0.78773(16) 0.32547(15) 0.7084(2)
O5_6 O 0.71648(19) 0.48475(16) 0.2525(3)
O7_11 O 0.80340(17) 0.40743(18) 0.8645(2)
H1_11 H 0.799362 0.433151 0.891099
H2_11 H 0.802152 0.382912 0.888369
C1_11 C 0.7778(2) 0.27636(19) 0.5767(3)
C2_11 C 0.7889(2) 0.2284(2) 0.6176(3)
H3_11 H 0.789060 0.226447 0.678770
C3_11 C 0.7997(2) 0.18334(19) 0.5685(3)
C4_11 C 0.7998(3) 0.1865(2) 0.4776(3)
H4_11 H 0.807356 0.156713 0.444131
C5_11 C 0.7886(3) 0.2337(2) 0.4363(4)
H5_11 H 0.788285 0.235166 0.375163
C6_11 C 0.7780(3) 0.2789(2) 0.4845(4)
C7_11 C 0.7684(3) 0.3293(2) 0.4356(4)
C8_11 C 0.7350(3) 0.3324(3) 0.3658(4)
H6_11 H 0.717122 0.302529 0.346540
C9_11 C 0.7276(3) 0.3805(2) 0.3231(4)
H7_11 H 0.704066 0.383457 0.276387
C10_11 C 0.7556(2) 0.4234(2) 0.3515(4)
C11_11 C 0.7971(2) 0.3748(2) 0.4582(3)
H8_11 H 0.822017 0.372449 0.502866
C12_13 C 0.7500(2) 0.47705(18) 0.3105(3)
C13_11 C 0.7653(2) 0.32257(19) 0.6349(3)
C14_11 C 0.8121(2) 0.13235(19) 0.6135(3)
O10_6 O 0.78352(19) 0.51525(16) 0.7525(3)
O1_12 O 0.76652(16) 0.64267(14) 0.1087(2)
O2_12 O 0.71227(16) 0.67453(15) 0.2084(2)
O7_12 O 0.69660(17) 0.59257(18) 0.3645(2)
H1_12 H 0.700638 0.566849 0.391099
H2_12 H 0.697848 0.617088 0.388369
C1_12 C 0.7222(2) 0.72364(19) 0.0767(3)
C2_12 C 0.7111(2) 0.7716(2) 0.1176(3)
H3_12 H 0.710940 0.773553 0.178770
C3_12 C 0.7003(2) 0.81666(19) 0.0685(3)
H8_12 H 0.677983 0.627551 0.002866
C13_12 C 0.7347(2) 0.67743(19) 0.1349(3)
C14_12 C 0.6879(2) 0.86765(19) 0.1135(3)
C4_12 C 0.7002(3) 0.8135(2) 0.9776(3)
H4_12 H 0.692644 0.843287 0.944131
C5_12 C 0.7114(3) 0.7663(2) 0.9363(4)
H5_12 H 0.711715 0.764834 0.875163
C6_12 C 0.7220(3) 0.7211(2) 0.9845(4)
C7_12 C 0.7316(3) 0.6707(2) 0.9356(4)
C8_12 C 0.7650(3) 0.6676(3) 0.8658(4)
H6_12 H 0.782878 0.697471 0.846540
C9_12 C 0.7724(3) 0.6195(2) 0.8231(4)
H7_12 H 0.795934 0.616543 0.776387
C10_12 C 0.7444(2) 0.5766(2) 0.8515(4)
C11_12 C 0.7029(2) 0.6252(2) 0.9582(3)
C12_14 C 0.7500(2) 0.52295(18) 0.8105(3)
O1_13 O 0.10733(14) 0.01652(16) 0.3587(2)
O5_7 O 0.23475(16) 0.03352(19) 0.0025(3)
C8_13 C 0.0824(3) 0.0150(3) 0.1158(4)
H6_13 H 0.052529 0.032878 0.096540
C9_13 C 0.1305(2) 0.0224(3) 0.0731(4)
H7_13 H 0.133457 0.045934 0.026387
C12_15 C 0.22705(18) 0.0000(2) 0.0605(3)
N2_7 N 0.20997(17) 0.07854(16) 0.4182(3)
O11_4 O 0.23641(13) 0.02923(13) 0.5883(2)
N1_7 N 0.17146(16) 0.95997(17) 0.1682(3)
O2_13 O 0.07547(15) 0.96227(16) 0.4584(2)
O6_4 O 0.26359(13) 0.97077(13) 0.0883(2)
O7_13 O 0.15743(18) 0.94660(17) 0.6145(2)
H1_13 H 0.183151 0.950638 0.641099
H2_13 H 0.132912 0.947848 0.638369
C1_13 C 0.02636(19) 0.9722(2) 0.3267(3)
C6_13 C 0.0289(2) 0.9720(3) 0.2345(4)
C7_13 C 0.0793(2) 0.9816(3) 0.1856(4)
C10_13 C 0.1734(2) 0.9944(2) 0.1015(4)
C11_13 C 0.1248(2) 0.9529(2) 0.2082(3)
H8_13 H 0.122449 0.927983 0.252866
C12_16 C 0.22705(18) 1.0000(2) 0.0605(3)
C13_13 C 0.07257(19) 0.9847(2) 0.3849(3)
O10_7 O 0.26525(16) 0.96648(19) 0.5025(3)
O12_7 O 0.22077(13) 0.98641(13) 0.3383(2)
C2_13 C 0.9784(2) 0.9611(2) 0.3676(3)
H3_13 H 0.976447 0.960940 0.428770
C3_13 C 0.93334(19) 0.9503(2) 0.3185(3)
C4_13 C 0.9365(2) 0.9502(3) 0.2276(3)
H4_13 H 0.906713 0.942644 0.194131
C5_13 C 0.9837(2) 0.9614(3) 0.1863(4)
H5_13 H 0.985166 0.961715 0.125163
C14_13 C 0.88235(19) 0.9379(2) 0.3635(3)
O7_14 O 0.34257(18) 0.05340(17) 0.1145(2)
H1_14 H 0.316849 0.049362 0.141099
H2_14 H 0.367088 0.052152 0.138369
N1_8 N 0.32854(16) 0.04003(17) 0.6682(3)
O2_14 O 0.42453(15) 0.03773(16) 0.9584(2)
C1_14 C 0.47364(19) 0.0278(2) 0.8267(3)
C2_14 C 0.5216(2) 0.0389(2) 0.8676(3)
H3_14 H 0.523553 0.039060 0.928770
C3_14 C 0.56666(19) 0.0497(2) 0.8185(3)
C4_14 C 0.5635(2) 0.0498(3) 0.7276(3)
H4_14 H 0.593287 0.057356 0.694131
C5_14 C 0.5163(2) 0.0386(3) 0.6863(4)
H5_14 H 0.514834 0.038285 0.625163
C6_14 C 0.4711(2) 0.0280(3) 0.7345(4)
C7_14 C 0.4207(2) 0.0184(3) 0.6856(4)
C10_14 C 0.3266(2) 0.0056(2) 0.6015(4)
C11_14 C 0.3752(2) 0.0471(2) 0.7082(3)
H8_14 H 0.377551 0.072017 0.752866
C12_17 C 0.27295(18) 0.0000(2) 0.5605(3)
C13_14 C 0.42743(19) 0.0153(2) 0.8849(3)
C14_14 C 0.61765(19) 0.0621(2) 0.8635(3)
O12_8 O 0.27923(13) 0.01359(13) 0.8383(2)
O1_14 O 0.39267(14) 0.98348(16) 0.8587(2)
C8_14 C 0.4176(3) 0.9850(3) 0.6158(4)
H6_14 H 0.447471 0.967122 0.596540
C9_14 C 0.3695(2) 0.9776(3) 0.5731(4)
H7_14 H 0.366543 0.954066 0.526387
C12_18 C 0.27295(18) 1.0000(2) 0.5605(3)
N2_8 N 0.29003(17) 0.92146(16) 0.9182(3)
O10_8 O 0.28352(19) 0.01525(16) 0.2525(3)
O1_15 O 0.23348(16) 0.85733(14) 0.1087(2)
O2_15 O 0.28773(16) 0.82547(15) 0.2084(2)
O7_15 O 0.30340(17) 0.90743(18) 0.3645(2)
H1_15 H 0.299362 0.933151 0.391099
H2_15 H 0.302152 0.882912 0.388369
C1_15 C 0.2778(2) 0.77636(19) 0.0767(3)
C2_15 C 0.2889(2) 0.7284(2) 0.1176(3)
H3_15 H 0.289060 0.726447 0.178770
C3_15 C 0.2997(2) 0.68334(19) 0.0685(3)
H8_15 H 0.322017 0.872449 0.002866
C13_15 C 0.2653(2) 0.82257(19) 0.1349(3)
C14_15 C 0.3121(2) 0.63235(19) 0.1135(3)
O5_8 O 0.21648(19) 0.98475(16) 0.7525(3)
C4_15 C 0.2998(3) 0.6865(2) 0.9776(3)
H4_15 H 0.307356 0.656713 0.944131
C5_15 C 0.2886(3) 0.7337(2) 0.9363(4)
H5_15 H 0.288285 0.735166 0.875163
C6_15 C 0.2780(3) 0.7789(2) 0.9845(4)
C7_15 C 0.2684(3) 0.8293(2) 0.9356(4)
C8_15 C 0.2350(3) 0.8324(3) 0.8658(4)
H6_15 H 0.217122 0.802529 0.846540
C9_15 C 0.2276(3) 0.8805(2) 0.8231(4)
H7_15 H 0.204066 0.883457 0.776387
C10_15 C 0.2556(2) 0.9234(2) 0.8515(4)
C11_15 C 0.2971(2) 0.8748(2) 0.9582(3)
C12_19 C 0.2500(2) 0.97705(18) 0.8105(3)
O1_16 O 0.26652(16) 0.14267(14) 0.6087(2)
O2_16 O 0.21227(16) 0.17453(15) 0.7084(2)
O7_16 O 0.19660(17) 0.09257(18) 0.8645(2)
H1_16 H 0.200638 0.066849 0.891099
H2_16 H 0.197848 0.117088 0.888369
C1_16 C 0.2222(2) 0.22364(19) 0.5767(3)
C2_16 C 0.2111(2) 0.2716(2) 0.6176(3)
H3_16 H 0.210940 0.273553 0.678770
C3_16 C 0.2003(2) 0.31666(19) 0.5685(3)
C4_16 C 0.2002(3) 0.3135(2) 0.4776(3)
H4_16 H 0.192644 0.343287 0.444131
C5_16 C 0.2114(3) 0.2663(2) 0.4363(4)
H5_16 H 0.211715 0.264834 0.375163
C6_16 C 0.2220(3) 0.2211(2) 0.4845(4)
C7_16 C 0.2316(3) 0.1707(2) 0.4356(4)
C8_16 C 0.2650(3) 0.1676(3) 0.3658(4)
H6_16 H 0.282878 0.197471 0.346540
C9_16 C 0.2724(3) 0.1195(2) 0.3231(4)
H7_16 H 0.295934 0.116543 0.276387
C10_16 C 0.2444(2) 0.0766(2) 0.3515(4)
C11_16 C 0.2029(2) 0.1252(2) 0.4582(3)
H8_16 H 0.177983 0.127551 0.502866
C12_20 C 0.2500(2) 0.02295(18) 0.3105(3)
C13_16 C 0.2347(2) 0.17743(19) 0.6349(3)
C14_16 C 0.1879(2) 0.36765(19) 0.6135(3)
loop_
_geom_bond_atom_site_label_1
_geom_bond_atom_site_label_2
_geom_bond_site_symmetry_1
_geom_bond_site_symmetry_2
Eu1 O1 1_555 1_555
N1 C10 1_555 1_555
O1 C13 1_555 1_555
O2 Eu1 1_555 1_555
O3 C14 1_555 1_555
O4 C14 1_555 1_555
O5 C12 1_555 1_555
O6 C12 1_555 1_555
C1 C2 1_555 1_555
C2 H3 1_555 1_555
C3 C2 1_555 1_555
C4 C3 1_555 1_555
H4 C4 1_555 1_555
C5 C4 1_555 1_555
H5 C5 1_555 1_555
C6 C1 1_555 1_555
C7 C6 1_555 1_555
C8 C7 1_555 1_555
H6 C8 1_555 1_555
C9 C8 1_555 1_555
H7 C9 1_555 1_555
C10 C9 1_555 1_555
C11 N1 1_555 1_555
H8 C11 1_555 1_555
C12 C10 1_555 1_555
C13 O2 1_555 1_555
C14 C3 1_555 1_555
Eu2 O5 1_555 1_555
Eu3 N1 1_555 1_555
Eu5 O4 1_555 1_555
N2 Eu1 1_555 1_555
O9 Eu1 1_555 1_555
O12 Eu1 1_555 1_555
O6 Eu2 1_555 1_555
O6 Eu3 1_555 1_555
C1 C13 1_555 1_555
C5 C6 1_555 1_555
C7 C11 1_555 1_555
Eu3 O12 1_555 1_555
H1 O7 1_555 1_555
H2 O7 1_555 1_555
Eu2 O1_2 1_555 1_555
N1_2 C10_2 1_555 1_555
O1_2 C13_2 1_555 1_555
O2_2 Eu2 1_555 1_555
O10 C12_2 1_555 1_555
O11 C12_2 1_555 1_555
O7_2 Eu2 1_555 1_555
H1_2 O7_2 1_555 1_555
H2_2 O7_2 1_555 1_555
C6_2 C1_2 1_555 1_555
C7_2 C6_2 1_555 1_555
C8_2 C7_2 1_555 1_555
H6_2 C8_2 1_555 1_555
C9_2 C8_2 1_555 1_555
H7_2 C9_2 1_555 1_555
C10_2 C9_2 1_555 1_555
C11_2 N1_2 1_555 1_555
H8_2 C11_2 1_555 1_555
C12_2 C10_2 1_555 1_555
C13_2 O2_2 1_555 1_555
Eu3_2 N1_2 1_555 1_555
N2_2 Eu2 1_555 1_555
O8_2 Eu2 1_555 1_555
O9_2 Eu2 1_555 1_555
O12_2 Eu2 1_555 1_555
O11 Eu3_2 1_555 1_555
C1_2 C13_2 1_555 1_555
C7_2 C11_2 1_555 1_555
Eu3_2 O12_2 1_555 1_555
O3_2 C14_2 1_555 1_555
O4_2 C14_2 1_555 1_555
C2_2 H3_2 1_555 1_555
C3_2 C2_2 1_555 1_555
C4_2 C3_2 1_555 1_555
H4_2 C4_2 1_555 1_555
C5_2 C4_2 1_555 1_555
H5_2 C5_2 1_555 1_555
C14_2 C3_2 1_555 1_555
Eu4_2 O3_2 1_555 1_555
Eu5_2 O4_2 1_555 1_555
Eu3 O1_3 1_555 1_555
N2_2 C10_3 1_555 1_555
O1_3 C13_3 1_555 1_555
O2_3 Eu3 1_555 1_555
O3_3 C14_3 1_555 1_555
O4_3 C14_3 1_555 1_555
O5_2 C12_3 1_555 1_555
O12_2 C12_3 1_555 1_555
O7_3 Eu3 1_555 1_555
H1_3 O7_3 1_555 1_555
H2_3 O7_3 1_555 1_555
C1_3 C2_3 1_555 1_555
C2_3 H3_3 1_555 1_555
C3_3 C2_3 1_555 1_555
C4_3 C3_3 1_555 1_555
H4_3 C4_3 1_555 1_555
C5_3 C4_3 1_555 1_555
H5_3 C5_3 1_555 1_555
C6_3 C1_3 1_555 1_555
C7_3 C6_3 1_555 1_555
C8_3 C7_3 1_555 1_555
H6_3 C8_3 1_555 1_555
C9_3 C8_3 1_555 1_555
H7_3 C9_3 1_555 1_555
C10_3 C9_3 1_555 1_555
C11_3 N2_2 1_555 1_555
H8_3 C11_3 1_555 1_555
C12_3 C10_3 1_555 1_555
C13_3 O2_3 1_555 1_555
C14_3 C3_3 1_555 1_555
Eu3_2 O5_2 1_555 1_555
Eu4_3 O3_3 1_555 1_555
Eu5_3 O4_3 1_555 1_555
O8_3 Eu3 1_555 1_555
O9_3 Eu3 1_555 1_555
O10_2 Eu3 1_555 1_555
C1_3 C13_3 1_555 1_555
C5_3 C6_3 1_555 1_555
C7_3 C11_3 1_555 1_555
N2 C10_4 1_555 1_555
O10_2 C12_4 1_555 1_555
O12 C12_4 1_555 1_555
H4_4 C4_4 1_555 1_555
C5_4 C4_4 1_555 1_555
H5_4 C5_4 1_555 1_555
C7_4 C6_4 1_555 1_555
C8_4 C7_4 1_555 1_555
H6_4 C8_4 1_555 1_555
C9_4 C8_4 1_555 1_555
H7_4 C9_4 1_555 1_555
C10_4 C9_4 1_555 1_555
C11_4 N2 1_555 1_555
C12_4 C10_4 1_555 1_555
C5_4 C6_4 1_555 1_555
C7_4 C11_4 1_555 1_555
Eu3_2 O1_4 1_555 1_555
O1_4 C13_4 1_555 1_555
O2_4 Eu3_2 1_555 1_555
O3_4 C14_4 1_555 1_555
O4_4 C14_4 1_555 1_555
O7_4 Eu3_2 1_555 1_555
H1_4 O7_4 1_555 1_555
H2_4 O7_4 1_555 1_555
C1_4 C2_4 1_555 1_555
C2_4 H3_4 1_555 1_555
C3_4 C2_4 1_555 1_555
C13_4 O2_4 1_555 1_555
C14_4 C3_4 1_555 1_555
Eu4_4 O3_4 1_555 1_555
Eu5_4 O4_4 1_555 1_555
O8_4 Eu3_2 1_555 1_555
O9_4 Eu3_2 1_555 1_555
C1_4 C13_4 1_555 1_555
O3_5 C14_5 1_555 1_555
O4_5 C14_5 1_555 1_555
C2_5 H3_5 1_555 1_555
C3_5 C2_5 1_555 1_555
C4_5 C3_5 1_555 1_555
H4_5 C4_5 1_555 1_555
C5_5 C4_5 1_555 1_555
H5_5 C5_5 1_555 1_555
C14_5 C3_5 1_555 1_555
Eu4_4 O4_5 1_555 1_555
N1_3 C10_5 1_555 1_555
O2_5 Eu1_2 1_555 1_555
O6_2 C12_5 1_555 1_555
O7_5 Eu1_2 1_555 1_555
H1_5 O7_5 1_555 1_555
H2_5 O7_5 1_555 1_555
C6_5 C1_5 1_555 1_555
C7_5 C6_5 1_555 1_555
C11_5 N1_3 1_555 1_555
H8_5 C11_5 1_555 1_555
C12_5 C10_5 1_555 1_555
C13_5 O2_5 1_555 1_555
Eu3_3 N1_3 1_555 1_555
O9_5 Eu1_2 1_555 1_555
O10_3 Eu1_2 1_555 1_555
O12_3 Eu1_2 1_555 1_555
O6_2 Eu3_3 1_555 1_555
C1_5 C13_5 1_555 1_555
C7_5 C11_5 1_555 1_555
Eu3_3 O12_3 1_555 1_555
O5_3 C12_6 1_555 1_555
H6_5 C8_5 1_555 1_555
C9_5 C8_5 1_555 1_555
H7_5 C9_5 1_555 1_555
O10_3 C12_7 1_555 1_555
H6_6 C8_6 1_555 1_555
C9_6 C8_6 1_555 1_555
H7_6 C9_6 1_555 1_555
N1_4 C10_6 1_555 1_555
O2_6 Eu2_2 1_555 1_555
O3_6 C14_6 1_555 1_555
O4_6 C14_6 1_555 1_555
O11_2 C12_8 1_555 1_555
C1_6 C2_6 1_555 1_555
C2_6 H3_6 1_555 1_555
C3_6 C2_6 1_555 1_555
C4_6 C3_6 1_555 1_555
H4_6 C4_6 1_555 1_555
C5_6 C4_6 1_555 1_555
H5_6 C5_6 1_555 1_555
C6_6 C1_6 1_555 1_555
C7_6 C6_6 1_555 1_555
C11_6 N1_4 1_555 1_555
H8_6 C11_6 1_555 1_555
C12_8 C10_6 1_555 1_555
C13_6 O2_6 1_555 1_555
C14_6 C3_6 1_555 1_555
Eu3_4 N1_4 1_555 1_555
Eu4_3 O4_6 1_555 1_555
O9_6 Eu2_2 1_555 1_555
O12_4 Eu2_2 1_555 1_555
O11_2 Eu3_4 1_555 1_555
C1_6 C13_6 1_555 1_555
C5_6 C6_6 1_555 1_555
C7_6 C11_6 1_555 1_555
Eu3_4 O12_4 1_555 1_555
H1_6 O7_6 1_555 1_555
H2_6 O7_6 1_555 1_555
N2_4 C10_7 1_555 1_555
O5_4 C12_9 1_555 1_555
H4_7 C4_7 1_555 1_555
C5_7 C4_7 1_555 1_555
H5_7 C5_7 1_555 1_555
C7_7 C6_7 1_555 1_555
C8_7 C7_7 1_555 1_555
H6_7 C8_7 1_555 1_555
C9_7 C8_7 1_555 1_555
H7_7 C9_7 1_555 1_555
C10_7 C9_7 1_555 1_555
C11_7 N2_4 1_555 1_555
C12_9 C10_7 1_555 1_555
C5_7 C6_7 1_555 1_555
C7_7 C11_7 1_555 1_555
Eu3_3 O1_7 1_555 1_555
O1_7 C13_7 1_555 1_555
O2_7 Eu3_3 1_555 1_555
O3_7 C14_7 1_555 1_555
O4_7 C14_7 1_555 1_555
O7_7 Eu3_3 1_555 1_555
H1_7 O7_7 1_555 1_555
H2_7 O7_7 1_555 1_555
C1_7 C2_7 1_555 1_555
C2_7 H3_7 1_555 1_555
C3_7 C2_7 1_555 1_555
C13_7 O2_7 1_555 1_555
C14_7 C3_7 1_555 1_555
Eu5_2 O3_7 1_555 1_555
Eu4 O4_7 1_555 1_555
O8_7 Eu3_3 1_555 1_555
O9_7 Eu3_3 1_555 1_555
C1_7 C13_7 1_555 1_555
Eu3_4 O1_8 1_555 1_555
N2_3 C10_8 1_555 1_555
O1_8 C13_8 1_555 1_555
O2_8 Eu3_4 1_555 1_555
O3_8 C14_8 1_555 1_555
O4_8 C14_8 1_555 1_555
O10_4 C12_10 1_555 1_555
O7_8 Eu3_4 1_555 1_555
H1_8 O7_8 1_555 1_555
H2_8 O7_8 1_555 1_555
C1_8 C2_8 1_555 1_555
C2_8 H3_8 1_555 1_555
C3_8 C2_8 1_555 1_555
C4_8 C3_8 1_555 1_555
H4_8 C4_8 1_555 1_555
C5_8 C4_8 1_555 1_555
H5_8 C5_8 1_555 1_555
C6_8 C1_8 1_555 1_555
C7_8 C6_8 1_555 1_555
C8_8 C7_8 1_555 1_555
H6_8 C8_8 1_555 1_555
C9_8 C8_8 1_555 1_555
H7_8 C9_8 1_555 1_555
C10_8 C9_8 1_555 1_555
C11_8 N2_3 1_555 1_555
H8_8 C11_8 1_555 1_555
C12_10 C10_8 1_555 1_555
C13_8 O2_8 1_555 1_555
C14_8 C3_8 1_555 1_555
Eu5 O3_8 1_555 1_555
Eu4_2 O4_8 1_555 1_555
O8_8 Eu3_4 1_555 1_555
O9_8 Eu3_4 1_555 1_555
C1_8 C13_8 1_555 1_555
C5_8 C6_8 1_555 1_555
C7_8 C11_8 1_555 1_555
H1_9 O7_9 1_555 1_555
H2_9 O7_9 1_555 1_555
Eu4 O1_9 1_555 1_555
N1_5 C10_9 1_555 1_555
O1_9 C13_9 1_555 1_555
O2_9 Eu4 1_555 1_555
O8 C14_9 1_555 1_555
O9_4 C14_9 1_555 1_555
O5_5 C12_11 1_555 1_555
O6_3 C12_11 1_555 1_555
C1_9 C2_9 1_555 1_555
C2_9 H3_9 1_555 1_555
C3_9 C2_9 1_555 1_555
C4_9 C3_9 1_555 1_555
H4_9 C4_9 1_555 1_555
C5_9 C4_9 1_555 1_555
H5_9 C5_9 1_555 1_555
C6_9 C1_9 1_555 1_555
C7_9 C6_9 1_555 1_555
C8_9 C7_9 1_555 1_555
H6_9 C8_9 1_555 1_555
C9_9 C8_9 1_555 1_555
H7_9 C9_9 1_555 1_555
C10_9 C9_9 1_555 1_555
C11_9 N1_5 1_555 1_555
H8_9 C11_9 1_555 1_555
C12_11 C10_9 1_555 1_555
C13_9 O2_9 1_555 1_555
C14_9 C3_9 1_555 1_555
Eu4_2 O5_5 1_555 1_555
Eu5_2 N1_5 1_555 1_555
N2_5 Eu4 1_555 1_555
O12_5 Eu4 1_555 1_555
O6_3 Eu4_2 1_555 1_555
O6_3 Eu5_2 1_555 1_555
C1_9 C13_9 1_555 1_555
C5_9 C6_9 1_555 1_555
C7_9 C11_9 1_555 1_555
Eu5_2 O12_5 1_555 1_555
O8_2 C14_10 1_555 1_555
O9_3 C14_10 1_555 1_555
C2_10 H3_10 1_555 1_555
C3_10 C2_10 1_555 1_555
C4_10 C3_10 1_555 1_555
H4_10 C4_10 1_555 1_555
C5_10 C4_10 1_555 1_555
H5_10 C5_10 1_555 1_555
C14_10 C3_10 1_555 1_555
Eu4_2 O1_10 1_555 1_555
N1_6 C10_10 1_555 1_555
O1_10 C13_10 1_555 1_555
O2_10 Eu4_2 1_555 1_555
O10_5 C12_12 1_555 1_555
O11_3 C12_12 1_555 1_555
O7_10 Eu4_2 1_555 1_555
H1_10 O7_10 1_555 1_555
H2_10 O7_10 1_555 1_555
C6_10 C1_10 1_555 1_555
C7_10 C6_10 1_555 1_555
C8_10 C7_10 1_555 1_555
H6_10 C8_10 1_555 1_555
C9_10 C8_10 1_555 1_555
H7_10 C9_10 1_555 1_555
C10_10 C9_10 1_555 1_555
C11_10 N1_6 1_555 1_555
H8_10 C11_10 1_555 1_555
C12_12 C10_10 1_555 1_555
C13_10 O2_10 1_555 1_555
Eu5 N1_6 1_555 1_555
N2_6 Eu4_2 1_555 1_555
O12_6 Eu4_2 1_555 1_555
O11_3 Eu5 1_555 1_555
C1_10 C13_10 1_555 1_555
C7_10 C11_10 1_555 1_555
Eu5 O12_6 1_555 1_555
Eu5_2 O1_11 1_555 1_555
N2_6 C10_11 1_555 1_555
O1_11 C13_11 1_555 1_555
O2_11 Eu5_2 1_555 1_555
O8_7 C14_11 1_555 1_555
O9_5 C14_11 1_555 1_555
O5_6 C12_13 1_555 1_555
O12_6 C12_13 1_555 1_555
O7_11 Eu5_2 1_555 1_555
H1_11 O7_11 1_555 1_555
H2_11 O7_11 1_555 1_555
C1_11 C2_11 1_555 1_555
C2_11 H3_11 1_555 1_555
C3_11 C2_11 1_555 1_555
C4_11 C3_11 1_555 1_555
H4_11 C4_11 1_555 1_555
C5_11 C4_11 1_555 1_555
H5_11 C5_11 1_555 1_555
C6_11 C1_11 1_555 1_555
C7_11 C6_11 1_555 1_555
C8_11 C7_11 1_555 1_555
H6_11 C8_11 1_555 1_555
C9_11 C8_11 1_555 1_555
H7_11 C9_11 1_555 1_555
C10_11 C9_11 1_555 1_555
C11_11 N2_6 1_555 1_555
H8_11 C11_11 1_555 1_555
C12_13 C10_11 1_555 1_555
C13_11 O2_11 1_555 1_555
C14_11 C3_11 1_555 1_555
Eu5 O5_6 1_555 1_555
O10_6 Eu5_2 1_555 1_555
C1_11 C13_11 1_555 1_555
C5_11 C6_11 1_555 1_555
C7_11 C11_11 1_555 1_555
Eu5 O1_12 1_555 1_555
O1_12 C13_12 1_555 1_555
O2_12 Eu5 1_555 1_555
O8_8 C14_12 1_555 1_555
O9_6 C14_12 1_555 1_555
O7_12 Eu5 1_555 1_555
H1_12 O7_12 1_555 1_555
H2_12 O7_12 1_555 1_555
C1_12 C2_12 1_555 1_555
C2_12 H3_12 1_555 1_555
C3_12 C2_12 1_555 1_555
C13_12 O2_12 1_555 1_555
C14_12 C3_12 1_555 1_555
C1_12 C13_12 1_555 1_555
N2_5 C10_12 1_555 1_555
O10_6 C12_14 1_555 1_555
O12_5 C12_14 1_555 1_555
H4_12 C4_12 1_555 1_555
C5_12 C4_12 1_555 1_555
H5_12 C5_12 1_555 1_555
C7_12 C6_12 1_555 1_555
C8_12 C7_12 1_555 1_555
H6_12 C8_12 1_555 1_555
C9_12 C8_12 1_555 1_555
H7_12 C9_12 1_555 1_555
C10_12 C9_12 1_555 1_555
C11_12 N2_5 1_555 1_555
C12_14 C10_12 1_555 1_555
C5_12 C6_12 1_555 1_555
C7_12 C11_12 1_555 1_555
O5_7 C12_15 1_555 1_555
H6_13 C8_13 1_555 1_555
C9_13 C8_13 1_555 1_555
H7_13 C9_13 1_555 1_555
N1_7 C10_13 1_555 1_555
O2_13 Eu5_3 1_555 1_555
O6_4 C12_16 1_555 1_555
O7_13 Eu5_3 1_555 1_555
H1_13 O7_13 1_555 1_555
H2_13 O7_13 1_555 1_555
C6_13 C1_13 1_555 1_555
C7_13 C6_13 1_555 1_555
C11_13 N1_7 1_555 1_555
H8_13 C11_13 1_555 1_555
C12_16 C10_13 1_555 1_555
C13_13 O2_13 1_555 1_555
Eu4_3 N1_7 1_555 1_555
O10_7 Eu5_3 1_555 1_555
O12_7 Eu5_3 1_555 1_555
O6_4 Eu4_3 1_555 1_555
C1_13 C13_13 1_555 1_555
C7_13 C11_13 1_555 1_555
Eu4_3 O12_7 1_555 1_555
O8_5 C14_13 1_555 1_555
O9_8 C14_13 1_555 1_555
C2_13 H3_13 1_555 1_555
C3_13 C2_13 1_555 1_555
C4_13 C3_13 1_555 1_555
H4_13 C4_13 1_555 1_555
C5_13 C4_13 1_555 1_555
H5_13 C5_13 1_555 1_555
C14_13 C3_13 1_555 1_555
H1_14 O7_14 1_555 1_555
H2_14 O7_14 1_555 1_555
N1_8 C10_14 1_555 1_555
O2_14 Eu5_4 1_555 1_555
O8_6 C14_14 1_555 1_555
O9_7 C14_14 1_555 1_555
O11_4 C12_17 1_555 1_555
C1_14 C2_14 1_555 1_555
C2_14 H3_14 1_555 1_555
C3_14 C2_14 1_555 1_555
C4_14 C3_14 1_555 1_555
H4_14 C4_14 1_555 1_555
C5_14 C4_14 1_555 1_555
H5_14 C5_14 1_555 1_555
C6_14 C1_14 1_555 1_555
C7_14 C6_14 1_555 1_555
C11_14 N1_8 1_555 1_555
H8_14 C11_14 1_555 1_555
C12_17 C10_14 1_555 1_555
C13_14 O2_14 1_555 1_555
C14_14 C3_14 1_555 1_555
Eu4_4 N1_8 1_555 1_555
O12_8 Eu5_4 1_555 1_555
O11_4 Eu4_4 1_555 1_555
C1_14 C13_14 1_555 1_555
C5_14 C6_14 1_555 1_555
C7_14 C11_14 1_555 1_555
Eu4_4 O12_8 1_555 1_555
O10_7 C12_18 1_555 1_555
H6_14 C8_14 1_555 1_555
C9_14 C8_14 1_555 1_555
H7_14 C9_14 1_555 1_555
Eu4_3 O1_15 1_555 1_555
O1_15 C13_15 1_555 1_555
O2_15 Eu4_3 1_555 1_555
O8_3 C14_15 1_555 1_555
O9 C14_15 1_555 1_555
O7_15 Eu4_3 1_555 1_555
H1_15 O7_15 1_555 1_555
H2_15 O7_15 1_555 1_555
C1_15 C2_15 1_555 1_555
C2_15 H3_15 1_555 1_555
C3_15 C2_15 1_555 1_555
C13_15 O2_15 1_555 1_555
C14_15 C3_15 1_555 1_555
C1_15 C13_15 1_555 1_555
N2_8 C10_15 1_555 1_555
O5_8 C12_19 1_555 1_555
H4_15 C4_15 1_555 1_555
C5_15 C4_15 1_555 1_555
H5_15 C5_15 1_555 1_555
C7_15 C6_15 1_555 1_555
C8_15 C7_15 1_555 1_555
H6_15 C8_15 1_555 1_555
C9_15 C8_15 1_555 1_555
H7_15 C9_15 1_555 1_555
C10_15 C9_15 1_555 1_555
C11_15 N2_8 1_555 1_555
C12_19 C10_15 1_555 1_555
C5_15 C6_15 1_555 1_555
C7_15 C11_15 1_555 1_555
Eu4_4 O1_16 1_555 1_555
N2_7 C10_16 1_555 1_555
O1_16 C13_16 1_555 1_555
O2_16 Eu4_4 1_555 1_555
O8_4 C14_16 1_555 1_555
O9_2 C14_16 1_555 1_555
O10_8 C12_20 1_555 1_555
O7_16 Eu4_4 1_555 1_555
H1_16 O7_16 1_555 1_555
H2_16 O7_16 1_555 1_555
C1_16 C2_16 1_555 1_555
C2_16 H3_16 1_555 1_555
C3_16 C2_16 1_555 1_555
C4_16 C3_16 1_555 1_555
H4_16 C4_16 1_555 1_555
C5_16 C4_16 1_555 1_555
H5_16 C5_16 1_555 1_555
C6_16 C1_16 1_555 1_555
C7_16 C6_16 1_555 1_555
C8_16 C7_16 1_555 1_555
H6_16 C8_16 1_555 1_555
C9_16 C8_16 1_555 1_555
H7_16 C9_16 1_555 1_555
C10_16 C9_16 1_555 1_555
C11_16 N2_7 1_555 1_555
H8_16 C11_16 1_555 1_555
C12_20 C10_16 1_555 1_555
C13_16 O2_16 1_555 1_555
C14_16 C3_16 1_555 1_555
C1_16 C13_16 1_555 1_555
C5_16 C6_16 1_555 1_555
C7_16 C11_16 1_555 1_555

#END
