
###############################################################################
#
# This file contains modified crystal structure data generated from the
# MOF subset of the Cambridge Structural Database (CSD) v543 
# hosted by the Cambridge Crystallographic Data Centre (CCDC).
#
# This work is licensed under the Creative Commons
# Attribution-NonCommercial-ShareAlike 4.0 International License.
# To view a copy of this license, visit
# http://creativecommons.org/licenses/by-nc-sa/4.0/
# or send a letter to
# Creative Commons, PO Box 1866, Mountain View, CA 94042, USA.
#
# CIF created using the CSD Python API on 29 September 2022
# The structure has been converted into the P1 space group
# The structure has a 3D framework
# The original CSD entry ILIFOY is in the trigonal crystal system
# The framework has been calculated to contain at least 10.0% void space
# The void calculation uses a probe of radius 1.32A, grid spacing 0.4
# H atom positions have been added when not included in the experimental data
#
###############################################################################

data_ILIFOY
_chemical_formula_moiety         '(C18 H24 La2 O23)n'
_symmetry_cell_setting           triclinic
_symmetry_space_group_name_H-M   'P 1'
_symmetry_Int_Tables_number      1
_space_group_name_Hall           'P 1'
loop_
_symmetry_equiv_pos_site_id
_symmetry_equiv_pos_as_xyz
1 x,y,z
_cell_length_a                   10.3426(15)
_cell_length_b                   10.3426(15)
_cell_length_c                   8.9709(18)
_cell_angle_alpha                90
_cell_angle_beta                 90
_cell_angle_gamma                120
_cell_volume                     831.048
loop_
_atom_site_label
_atom_site_type_symbol
_atom_site_fract_x
_atom_site_fract_y
_atom_site_fract_z
_atom_site_U_iso_or_equiv
_atom_site_thermal_displace_type
C7 C 0.0120(4) 0.5503(6) 0.4328(4) 0.0209 Uani
H5 H 0.1142 0.6350 0.4367 0.0250 Uiso
O11 O 0.1587(3) 0.6783(4) 0.1384(3) 0.0257 Uani
C8 C 0.0251(4) 0.5799(6) 0.1573(4) 0.0194 Uani
H6 H 0.0587 0.4302 0.2801 0.0250 Uiso
O13 O 0.0894(3) 0.3932(4) 0.5587(3) 0.0322 Uani
C11 C 0.0092(4) 0.5296(6) 0.7149(4) 0.0208 Uani
O14 O 0.0822(3) 0.4336(4) 0.9205(3) 0.0235 Uani
O16 O 0.1602(3) 0.6489(5) 0.7340(3) 0.0289 Uani
La6 La 0.3333 0.6667 0.95064(3) 0.0154 Uani
H17 H 0.193697 0.477899 0.558885 . .
La4 La 0.6667 0.3333 0.04936(3) 0.0154 Uani
O1 O 0.6962(3) 0.0894(3) 0.4413(3) 0.0322 Uani
O2 O 0.6486(3) 0.0822(3) 0.0795(3) 0.0235 Uani
O4 O 0.5113(4) 0.1602(3) 0.2660(3) 0.0289 Uani
C3 C 0.4796(4) 0.0092(4) 0.2851(4) 0.0208 Uani
C4 C 0.4617(4) 0.0120(4) 0.5672(4) 0.0209 Uani
H3 H 0.4792 0.1142 0.5633 0.0250 Uiso
C6 C 0.4452(4) 0.0251(4) 0.8427(4) 0.0194 Uani
O7 O 0.4804(3) 0.1587(3) 0.8616(3) 0.0257 Uani
H4 H 0.6285 0.0587 0.7199 0.0250 Uiso
O9 O 0.9106(3) 0.6068(4) 0.4413(3) 0.0322 Uani
O10 O 0.9178(3) 0.5664(4) 0.0795(3) 0.0235 Uani
O12 O 0.8398(3) 0.3511(5) 0.2660(3) 0.0289 Uani
C9 C 0.9908(4) 0.4704(6) 0.2851(4) 0.0208 Uani
C10 C 0.9880(4) 0.4497(6) 0.5672(4) 0.0209 Uani
H7 H 0.8858 0.3650 0.5633 0.0250 Uiso
C12 C 0.9749(4) 0.4201(6) 0.8427(4) 0.0194 Uani
O15 O 0.8413(3) 0.3217(4) 0.8616(3) 0.0257 Uani
H8 H 0.9413 0.5698 0.7199 0.0250 Uiso
O17 O 0.3932(4) 0.3038(3) 0.4413(3) 0.0322 Uani
C13 C 0.4497(6) 0.4617(4) 0.4328(4) 0.0209 Uani
H9 H 0.3650 0.4792 0.4367 0.0250 Uiso
O18 O 0.4336(4) 0.3514(3) 0.0795(3) 0.0235 Uani
O19 O 0.3217(4) 0.4804(3) 0.1384(3) 0.0257 Uani
C14 C 0.4201(6) 0.4452(4) 0.1573(4) 0.0194 Uani
O20 O 0.6489(5) 0.4887(4) 0.2660(3) 0.0289 Uani
C15 C 0.5296(6) 0.5204(4) 0.2851(4) 0.0208 Uani
H10 H 0.5698 0.6285 0.2801 0.0250 Uiso
C16 C 0.5503(6) 0.5383(4) 0.5672(4) 0.0209 Uani
O21 O 0.6068(4) 0.6962(3) 0.5587(3) 0.0322 Uani
H11 H 0.6350 0.5208 0.5633 0.0250 Uiso
C17 C 0.4704(6) 0.4796(4) 0.7149(4) 0.0208 Uani
C18 C 0.5799(6) 0.5548(4) 0.8427(4) 0.0194 Uani
O22 O 0.5664(4) 0.6486(3) 0.9205(3) 0.0235 Uani
O23 O 0.6783(4) 0.5196(3) 0.8616(3) 0.0257 Uani
O24 O 0.3511(5) 0.5113(4) 0.7340(3) 0.0289 Uani
H12 H 0.4302 0.3715 0.7199 0.0250 Uiso
H13 H 0.746467 0.071487 0.356032 . .
H15 H 0.928513 0.67498 0.356032 . .
H16 H 0.32502 0.253533 0.356032 . .
H18 H 0.522101 0.715798 0.558885 . .
O30 O 0.5196(3) 0.8413(3) 0.1384(3) 0.0257 Uani
C1 C 0.5383(4) 0.9880(4) 0.4328(4) 0.0209 Uani
H1 H 0.5208 0.8858 0.4367 0.0250 Uiso
C2 C 0.5548(4) 0.9749(4) 0.1573(4) 0.0194 Uani
H2 H 0.3715 0.9413 0.2801 0.0250 Uiso
O5 O 0.3038(3) 0.9106(3) 0.5587(3) 0.0322 Uani
C5 C 0.5204(4) 0.9908(4) 0.7149(4) 0.0208 Uani
O6 O 0.3514(3) 0.9178(3) 0.9205(3) 0.0235 Uani
O8 O 0.4887(4) 0.8398(3) 0.7340(3) 0.0289 Uani
H14 H 0.284202 0.806303 0.558885 . .
H14_2 H 0.715798 0.193697 0.441115 . .
H13_2 H 0.253533 0.928513 0.643968 . .
H15_2 H 0.071487 0.32502 0.643968 . .
H16_2 H 0.67498 0.746467 0.643968 . .
H18_2 H 0.477899 0.284202 0.441115 . .
H17_2 H 0.806303 0.522101 0.441115 . .
loop_
_atom_site_aniso_label
_atom_site_aniso_U_11
_atom_site_aniso_U_22
_atom_site_aniso_U_33
_atom_site_aniso_U_23
_atom_site_aniso_U_13
_atom_site_aniso_U_12
C7 0.0197 0.0238 0.0154 -0.0002 -0.0017 0.0081
O11 0.0203 0.0295 0.0242 -0.0034 0.003 0.0102
C8 0.0223 0.0219 0.0136 -0.0034 0.0002 0.0107
O13 0.0428 0.041 0.0242 -0.0059 -0.005 0.0296
C11 0.0212 0.0242 0.018 -0.0012 -0.0033 0.012
O14 0.0212 0.0228 0.0221 0.0027 -0.0027 0.0077
O16 0.029 0.0205 0.0221 0.0044 -0.0067 0.0011
La6 0.01677 0.01677 0.01277 0 0 0.00839
La4 0.01677 0.01677 0.01277 0 0 0.00839
O1 0.0246 0.0428 0.0242 0.005 -0.0009 0.0132
O2 0.0286 0.0212 0.0221 0.0027 0.0054 0.0135
O4 0.0473 0.029 0.0221 0.0067 0.0111 0.0279
C3 0.0214 0.0212 0.018 0.0033 0.0021 0.0092
C4 0.0273 0.0197 0.0154 0.0017 0.0015 0.0116
C6 0.0228 0.0223 0.0136 -0.0002 -0.0036 0.0116
O7 0.0294 0.0203 0.0242 -0.003 -0.0064 0.0101
O9 0.0428 0.041 0.0242 -0.0059 -0.005 0.0296
O10 0.0212 0.0228 0.0221 0.0027 -0.0027 0.0077
O12 0.029 0.0205 0.0221 0.0044 -0.0067 0.0011
C9 0.0212 0.0242 0.018 -0.0012 -0.0033 0.012
C10 0.0197 0.0238 0.0154 -0.0002 -0.0017 0.0081
C12 0.0223 0.0219 0.0136 -0.0034 0.0002 0.0107
O15 0.0203 0.0295 0.0242 -0.0034 0.003 0.0102
O17 0.041 0.0246 0.0242 0.0009 0.0059 0.0114
C13 0.0238 0.0273 0.0154 -0.0015 0.0002 0.0157
O18 0.0228 0.0286 0.0221 -0.0054 -0.0027 0.0151
O19 0.0295 0.0294 0.0242 0.0064 0.0034 0.0193
C14 0.0219 0.0228 0.0136 0.0036 0.0034 0.0112
O20 0.0205 0.0473 0.0221 -0.0111 -0.0044 0.0194
C15 0.0242 0.0214 0.018 -0.0021 0.0012 0.0122
C16 0.0238 0.0273 0.0154 -0.0015 0.0002 0.0157
O21 0.041 0.0246 0.0242 0.0009 0.0059 0.0114
C17 0.0242 0.0214 0.018 -0.0021 0.0012 0.0122
C18 0.0219 0.0228 0.0136 0.0036 0.0034 0.0112
O22 0.0228 0.0286 0.0221 -0.0054 -0.0027 0.0151
O23 0.0295 0.0294 0.0242 0.0064 0.0034 0.0193
O24 0.0205 0.0473 0.0221 -0.0111 -0.0044 0.0194
O30 0.0294 0.0203 0.0242 -0.003 -0.0064 0.0101
C1 0.0273 0.0197 0.0154 0.0017 0.0015 0.0116
C2 0.0228 0.0223 0.0136 -0.0002 -0.0036 0.0116
O5 0.0246 0.0428 0.0242 0.005 -0.0009 0.0132
C5 0.0214 0.0212 0.018 0.0033 0.0021 0.0092
O6 0.0286 0.0212 0.0221 0.0027 0.0054 0.0135
O8 0.0473 0.029 0.0221 0.0067 0.0111 0.0279
loop_
_geom_bond_atom_site_label_1
_geom_bond_atom_site_label_2
_geom_bond_site_symmetry_1
_geom_bond_site_symmetry_2
C7 H5 1_555 1_555
O11 C8 1_555 1_555
O16 C11 1_555 1_555
La6 O14 1_555 1_555
O16 La6 1_555 1_555
O13 H17 1_555 1_555
La4 O2 1_555 1_555
O4 La4 1_555 1_555
H3 C4 1_555 1_555
O7 C6 1_555 1_555
O10 La4 1_555 1_555
O12 La4 1_555 1_555
H7 C10 1_555 1_555
O15 C12 1_555 1_555
O17 C13 1_555 1_555
C13 H9 1_555 1_555
O18 La4 1_555 1_555
O19 C14 1_555 1_555
C14 O18 1_555 1_555
O20 La4 1_555 1_555
C15 C13 1_555 1_555
H10 C15 1_555 1_555
C16 C13 1_555 1_555
O21 C16 1_555 1_555
H11 C16 1_555 1_555
C17 C16 1_555 1_555
C18 C17 1_555 1_555
O22 C18 1_555 1_555
O23 C18 1_555 1_555
O24 C17 1_555 1_555
H12 C17 1_555 1_555
La6 O22 1_555 1_555
O4 C3 1_555 1_555
O12 C9 1_555 1_555
C14 C15 1_555 1_555
O20 C15 1_555 1_555
O24 La6 1_555 1_555
O1 H13 1_555 1_555
O9 H15 1_555 1_555
O17 H16 1_555 1_555
O21 H18 1_555 1_555
C1 H1 1_555 1_555
O30 C2 1_555 1_555
O8 C5 1_555 1_555
La6 O6 1_555 1_555
O8 La6 1_555 1_555
O5 H14 1_555 1_555
O1 H14_2 1_555 1_555
O5 H13_2 1_555 1_555
O13 H15_2 1_555 1_555
O21 H16_2 1_555 1_555
O17 H18_2 1_555 1_555
O9 H17_2 1_555 1_555

#END
