
###############################################################################
#
# This file contains modified crystal structure data generated from the
# MOF subset of the Cambridge Structural Database (CSD) v543 
# hosted by the Cambridge Crystallographic Data Centre (CCDC).
#
# This work is licensed under the Creative Commons
# Attribution-NonCommercial-ShareAlike 4.0 International License.
# To view a copy of this license, visit
# http://creativecommons.org/licenses/by-nc-sa/4.0/
# or send a letter to
# Creative Commons, PO Box 1866, Mountain View, CA 94042, USA.
#
# CIF created using the CSD Python API on 29 September 2022
# The structure has been converted into the P1 space group
# The structure has a 3D framework
# The original CSD entry ILIGAL is in the trigonal crystal system
# The framework has been calculated to contain at least 10.0% void space
# The void calculation uses a probe of radius 1.32A, grid spacing 0.4
# H atom positions have been added when not included in the experimental data
#
###############################################################################

data_ILIGAL
_chemical_formula_moiety         '(C18 H24 O23 Pr2)n'
_symmetry_cell_setting           triclinic
_symmetry_space_group_name_H-M   'P 1'
_symmetry_Int_Tables_number      1
_space_group_name_Hall           'P 1'
loop_
_symmetry_equiv_pos_site_id
_symmetry_equiv_pos_as_xyz
1 x,y,z
_cell_length_a                   10.2182(14)
_cell_length_b                   10.2182(14)
_cell_length_c                   8.9084(18)
_cell_angle_alpha                90
_cell_angle_beta                 90
_cell_angle_gamma                120
_cell_volume                     805.525
loop_
_atom_site_label
_atom_site_type_symbol
_atom_site_fract_x
_atom_site_fract_y
_atom_site_fract_z
_atom_site_U_iso_or_equiv
_atom_site_thermal_displace_type
C7 C 0.0133(6) 0.5506(8) 0.4327(7) 0.0213 Uani
H5 H 0.1173 0.6352 0.4370 0.0210 Uiso
O11 O 0.1597(4) 0.6775(6) 0.1329(5) 0.0236 Uani
C8 C 0.0250(6) 0.5792(8) 0.1551(6) 0.0187 Uani
H6 H 0.0591 0.4273 0.2780 0.0400 Uiso
O13 O 0.0875(5) 0.3899(6) 0.5605(5) 0.0308 Uani
C11 C 0.0090(7) 0.5313(10) 0.7166(5) 0.0188 Uani
O14 O 0.0842(4) 0.4341(6) 0.9226(4) 0.0212 Uani
O16 O 0.1625(5) 0.6508(8) 0.7353(5) 0.0270 Uani
Pr6 Pr 0.3333 0.6667 0.94804(5) 0.0132 Uani
H17 H 0.193628 0.474524 0.561332 . .
Pr4 Pr 0.6667 0.3333 0.05196(5) 0.0132 Uani
O1 O 0.6976(4) 0.0875(5) 0.4395(5) 0.0308 Uani
O2 O 0.6501(4) 0.0842(4) 0.0774(4) 0.0212 Uani
O4 O 0.5117(6) 0.1625(5) 0.2647(5) 0.0270 Uani
C3 C 0.4777(7) 0.0090(7) 0.2834(5) 0.0188 Uani
C4 C 0.4627(6) 0.0133(6) 0.5673(7) 0.0213 Uani
H3 H 0.4821 0.1173 0.5630 0.0210 Uiso
C6 C 0.4458(6) 0.0250(6) 0.8449(6) 0.0187 Uani
O7 O 0.4822(5) 0.1597(4) 0.8671(5) 0.0236 Uani
H4 H 0.6318 0.0591 0.7220 0.0400 Uiso
O9 O 0.9125(5) 0.6101(6) 0.4395(5) 0.0308 Uani
O10 O 0.9158(4) 0.5659(6) 0.0774(4) 0.0212 Uani
O12 O 0.8375(5) 0.3492(8) 0.2647(5) 0.0270 Uani
C9 C 0.9910(7) 0.4687(10) 0.2834(5) 0.0188 Uani
C10 C 0.9867(6) 0.4494(8) 0.5673(7) 0.0213 Uani
H7 H 0.8827 0.3648 0.5630 0.0210 Uiso
C12 C 0.9750(6) 0.4208(8) 0.8449(6) 0.0187 Uani
O15 O 0.8403(4) 0.3225(6) 0.8671(5) 0.0236 Uani
H8 H 0.9409 0.5727 0.7220 0.0400 Uiso
O17 O 0.3899(6) 0.3024(4) 0.4395(5) 0.0308 Uani
C13 C 0.4494(8) 0.4627(6) 0.4327(7) 0.0213 Uani
H9 H 0.3648 0.4821 0.4370 0.0210 Uiso
O18 O 0.4341(6) 0.3499(4) 0.0774(4) 0.0212 Uani
O19 O 0.3225(6) 0.4822(5) 0.1329(5) 0.0236 Uani
C14 C 0.4208(8) 0.4458(6) 0.1551(6) 0.0187 Uani
O20 O 0.6508(8) 0.4883(6) 0.2647(5) 0.0270 Uani
C15 C 0.5313(10) 0.5223(7) 0.2834(5) 0.0188 Uani
H10 H 0.5727 0.6318 0.2780 0.0400 Uiso
C16 C 0.5506(8) 0.5373(6) 0.5673(7) 0.0213 Uani
O21 O 0.6101(6) 0.6976(4) 0.5605(5) 0.0308 Uani
H11 H 0.6352 0.5179 0.5630 0.0210 Uiso
C17 C 0.4687(10) 0.4777(7) 0.7166(5) 0.0188 Uani
C18 C 0.5792(8) 0.5542(6) 0.8449(6) 0.0187 Uani
O22 O 0.5659(6) 0.6501(4) 0.9226(4) 0.0212 Uani
O23 O 0.6775(6) 0.5178(5) 0.8671(5) 0.0236 Uani
O24 O 0.3492(8) 0.5117(6) 0.7353(5) 0.0270 Uani
H12 H 0.4273 0.3682 0.7220 0.0400 Uiso
H13 H 0.746778 0.067741 0.35318 . .
H14 H 0.932259 0.679037 0.35318 . .
H16 H 0.525476 0.719104 0.561332 . .
H18 H 0.320963 0.253222 0.35318 . .
O30 O 0.5178(5) 0.8403(4) 0.1329(5) 0.0236 Uani
C1 C 0.5373(6) 0.9867(6) 0.4327(7) 0.0213 Uani
H1 H 0.5179 0.8827 0.4370 0.0210 Uiso
C2 C 0.5542(6) 0.9750(6) 0.1551(6) 0.0187 Uani
H2 H 0.3682 0.9409 0.2780 0.0400 Uiso
O5 O 0.3024(4) 0.9125(5) 0.5605(5) 0.0308 Uani
C5 C 0.5223(7) 0.9910(7) 0.7166(5) 0.0188 Uani
O6 O 0.3499(4) 0.9158(4) 0.9226(4) 0.0212 Uani
O8 O 0.4883(6) 0.8375(5) 0.7353(5) 0.0270 Uani
H15 H 0.280896 0.806372 0.561332 . .
H15_2 H 0.719104 0.193628 0.438668 . .
H13_2 H 0.253222 0.932259 0.64682 . .
H14_2 H 0.067741 0.320963 0.64682 . .
H16_2 H 0.474524 0.280896 0.438668 . .
H18_2 H 0.679037 0.746778 0.64682 . .
H17_2 H 0.806372 0.525476 0.438668 . .
loop_
_atom_site_aniso_label
_atom_site_aniso_U_11
_atom_site_aniso_U_22
_atom_site_aniso_U_33
_atom_site_aniso_U_23
_atom_site_aniso_U_13
_atom_site_aniso_U_12
C7 0.019 0.021 0.02 0.001 -0.001 0.007
O11 0.0164 0.0306 0.024 -0.0047 0.001 0.012
C8 0.021 0.023 0.012 -0.003 0.001 0.011
O13 0.043 0.0391 0.0228 -0.0053 -0.0044 0.0298
C11 0.02 0.021 0.015 0.001 -0.0011 0.01
O14 0.0209 0.0241 0.017 0.0006 -0.0029 0.0101
O16 0.025 0.022 0.0184 0.0003 -0.0073 0
Pr6 0.01418 0.01418 0.0111 0 0 0.00709
Pr4 0.01418 0.01418 0.0111 0 0 0.00709
O1 0.0225 0.043 0.0228 0.0044 -0.0009 0.0132
O2 0.0248 0.0209 0.017 0.0029 0.0035 0.0108
O4 0.047 0.025 0.0184 0.0073 0.0076 0.025
C3 0.021 0.02 0.015 0.0011 0.0021 0.01
C4 0.026 0.019 0.02 0.001 0.002 0.012
C6 0.022 0.021 0.012 -0.001 -0.004 0.01
O7 0.023 0.0164 0.024 -0.001 -0.0057 0.0044
O9 0.043 0.0391 0.0228 -0.0053 -0.0044 0.0298
O10 0.0209 0.0241 0.017 0.0006 -0.0029 0.0101
O12 0.025 0.022 0.0184 0.0003 -0.0073 0
C9 0.02 0.021 0.015 0.001 -0.0011 0.01
C10 0.019 0.021 0.02 0.001 -0.001 0.007
C12 0.021 0.023 0.012 -0.003 0.001 0.011
O15 0.0164 0.0306 0.024 -0.0047 0.001 0.012
O17 0.0391 0.0225 0.0228 0.0009 0.0053 0.0093
C13 0.021 0.026 0.02 -0.002 -0.001 0.014
O18 0.0241 0.0248 0.017 -0.0035 -0.0006 0.014
O19 0.0306 0.023 0.024 0.0057 0.0047 0.0186
C14 0.023 0.022 0.012 0.004 0.003 0.012
O20 0.022 0.047 0.0184 -0.0076 -0.0003 0.022
C15 0.021 0.021 0.015 -0.0021 -0.001 0.011
C16 0.021 0.026 0.02 -0.002 -0.001 0.014
O21 0.0391 0.0225 0.0228 0.0009 0.0053 0.0093
C17 0.021 0.021 0.015 -0.0021 -0.001 0.011
C18 0.023 0.022 0.012 0.004 0.003 0.012
O22 0.0241 0.0248 0.017 -0.0035 -0.0006 0.014
O23 0.0306 0.023 0.024 0.0057 0.0047 0.0186
O24 0.022 0.047 0.0184 -0.0076 -0.0003 0.022
O30 0.023 0.0164 0.024 -0.001 -0.0057 0.0044
C1 0.026 0.019 0.02 0.001 0.002 0.012
C2 0.022 0.021 0.012 -0.001 -0.004 0.01
O5 0.0225 0.043 0.0228 0.0044 -0.0009 0.0132
C5 0.021 0.02 0.015 0.0011 0.0021 0.01
O6 0.0248 0.0209 0.017 0.0029 0.0035 0.0108
O8 0.047 0.025 0.0184 0.0073 0.0076 0.025
loop_
_geom_bond_atom_site_label_1
_geom_bond_atom_site_label_2
_geom_bond_site_symmetry_1
_geom_bond_site_symmetry_2
C7 H5 1_555 1_555
O11 C8 1_555 1_555
O16 C11 1_555 1_555
Pr6 O14 1_555 1_555
O16 Pr6 1_555 1_555
O13 H17 1_555 1_555
Pr4 O2 1_555 1_555
O4 Pr4 1_555 1_555
H3 C4 1_555 1_555
O7 C6 1_555 1_555
O10 Pr4 1_555 1_555
O12 Pr4 1_555 1_555
H7 C10 1_555 1_555
O15 C12 1_555 1_555
O17 C13 1_555 1_555
C13 H9 1_555 1_555
O18 Pr4 1_555 1_555
O19 C14 1_555 1_555
C14 O18 1_555 1_555
O20 Pr4 1_555 1_555
C15 C13 1_555 1_555
H10 C15 1_555 1_555
C16 C13 1_555 1_555
O21 C16 1_555 1_555
H11 C16 1_555 1_555
C17 C16 1_555 1_555
C18 C17 1_555 1_555
O22 C18 1_555 1_555
O23 C18 1_555 1_555
O24 C17 1_555 1_555
H12 C17 1_555 1_555
Pr6 O22 1_555 1_555
O4 C3 1_555 1_555
O12 C9 1_555 1_555
C14 C15 1_555 1_555
O20 C15 1_555 1_555
O24 Pr6 1_555 1_555
O1 H13 1_555 1_555
O9 H14 1_555 1_555
O21 H16 1_555 1_555
O17 H18 1_555 1_555
C1 H1 1_555 1_555
O30 C2 1_555 1_555
O8 C5 1_555 1_555
Pr6 O6 1_555 1_555
O8 Pr6 1_555 1_555
O5 H15 1_555 1_555
O1 H15_2 1_555 1_555
O5 H13_2 1_555 1_555
O13 H14_2 1_555 1_555
O17 H16_2 1_555 1_555
O21 H18_2 1_555 1_555
O9 H17_2 1_555 1_555

#END
