
###############################################################################
#
# This file contains modified crystal structure data generated from the
# MOF subset of the Cambridge Structural Database (CSD) v543 
# hosted by the Cambridge Crystallographic Data Centre (CCDC).
#
# This work is licensed under the Creative Commons
# Attribution-NonCommercial-ShareAlike 4.0 International License.
# To view a copy of this license, visit
# http://creativecommons.org/licenses/by-nc-sa/4.0/
# or send a letter to
# Creative Commons, PO Box 1866, Mountain View, CA 94042, USA.
#
# CIF created using the CSD Python API on 29 September 2022
# The structure has been converted into the P1 space group
# The structure has a 3D framework
# The original CSD entry ILIGEP is in the trigonal crystal system
# The framework has been calculated to contain at least 10.0% void space
# The void calculation uses a probe of radius 1.32A, grid spacing 0.4
# H atom positions have been added when not included in the experimental data
#
###############################################################################

data_ILIGEP
_chemical_formula_moiety         '(C18 H24 Nd2 O22)n'
_symmetry_cell_setting           triclinic
_symmetry_space_group_name_H-M   'P 1'
_symmetry_Int_Tables_number      1
_space_group_name_Hall           'P 1'
loop_
_symmetry_equiv_pos_site_id
_symmetry_equiv_pos_as_xyz
1 x,y,z
_cell_length_a                   10.2151(14)
_cell_length_b                   10.2151(14)
_cell_length_c                   8.9021(18)
_cell_angle_alpha                90
_cell_angle_beta                 90
_cell_angle_gamma                120
_cell_volume                     804.467
loop_
_atom_site_label
_atom_site_type_symbol
_atom_site_fract_x
_atom_site_fract_y
_atom_site_fract_z
_atom_site_U_iso_or_equiv
_atom_site_thermal_displace_type
O19 O 0.1609(4) 0.4825(3) 0.1354(3) 0.0242 Uani
C13 C 0.0253(6) 0.4457(4) 0.1550(4) 0.0177 Uani
C14 C 0.0129(6) 0.4624(4) 0.4326(5) 0.0194 Uani
H9 H 0.1168 0.4813 0.4371 0.0360 Uiso
H10 H 0.0602 0.6314 0.2780 0.0340 Uiso
O21 O 0.0878(4) 0.6974(3) 0.5592(4) 0.0302 Uani
C17 C 0.0084(6) 0.4782(5) 0.7168(4) 0.0182 Uani
O22 O 0.0840(4) 0.6500(3) 0.9236(3) 0.0214 Uani
O24 O 0.1616(5) 0.5112(4) 0.7367(3) 0.0268 Uani
Nd8 Nd 0.3333 0.6667 0.94886(4) 0.0138 Uani
H16 H 0.0681035 0.73729 0.465381 . .
Nd4 Nd 0.6667 0.3333 0.05114(4) 0.0138 Uani
O30 O 0.5175(3) 0.6784(3) 0.1354(3) 0.0242 Uani
O31 O 0.3216(3) 0.8391(4) 0.1354(3) 0.0242 Uani
O1 O 0.6974(3) 0.6096(3) 0.4408(4) 0.0302 Uani
O2 O 0.6500(3) 0.5660(3) 0.0764(3) 0.0214 Uani
C1 C 0.5543(4) 0.5796(4) 0.1550(4) 0.0177 Uani
O4 O 0.5112(4) 0.3496(3) 0.2633(3) 0.0268 Uani
C2 C 0.5376(4) 0.5505(4) 0.4326(5) 0.0194 Uani
H1 H 0.5187 0.6355 0.4371 0.0360 Uiso
C3 C 0.4782(5) 0.4698(4) 0.2832(4) 0.0182 Uani
H2 H 0.3686 0.4288 0.2780 0.0340 Uiso
C4 C 0.4624(4) 0.4495(4) 0.5674(5) 0.0194 Uani
O5 O 0.3026(3) 0.3904(3) 0.5592(4) 0.0302 Uani
H3 H 0.4813 0.3645 0.5629 0.0360 Uiso
C5 C 0.5218(5) 0.5302(4) 0.7168(4) 0.0182 Uani
C6 C 0.4457(4) 0.4204(4) 0.8450(4) 0.0177 Uani
O6 O 0.3500(3) 0.4340(3) 0.9236(3) 0.0214 Uani
O7 O 0.4825(3) 0.3216(3) 0.8646(3) 0.0242 Uani
O8 O 0.4888(4) 0.6504(3) 0.7367(3) 0.0268 Uani
H4 H 0.6314 0.5712 0.7220 0.0340 Uiso
O9 O 0.3904(3) 0.0878(4) 0.4408(4) 0.0302 Uani
O10 O 0.4340(3) 0.0840(4) 0.0764(3) 0.0214 Uani
O12 O 0.6504(3) 0.1616(5) 0.2633(3) 0.0268 Uani
C9 C 0.5302(4) 0.0084(6) 0.2832(4) 0.0182 Uani
C10 C 0.5505(4) 0.0129(6) 0.5674(5) 0.0194 Uani
H7 H 0.6355 0.1168 0.5629 0.0360 Uiso
C12 C 0.5796(4) 0.0253(6) 0.8450(4) 0.0177 Uani
O15 O 0.6784(3) 0.1609(4) 0.8646(3) 0.0242 Uani
H8 H 0.4288 0.0602 0.7220 0.0340 Uiso
O17 O 0.9122(4) 0.3026(3) 0.4408(4) 0.0302 Uani
O18 O 0.9160(4) 0.3500(3) 0.0764(3) 0.0214 Uani
O20 O 0.8384(5) 0.4888(4) 0.2633(3) 0.0268 Uani
C15 C 0.9916(6) 0.5218(5) 0.2832(4) 0.0182 Uani
C16 C 0.9871(6) 0.5376(4) 0.5674(5) 0.0194 Uani
H11 H 0.8832 0.5187 0.5629 0.0360 Uiso
C18 C 0.9747(6) 0.5543(4) 0.8450(4) 0.0177 Uani
O23 O 0.8391(4) 0.5175(3) 0.8646(3) 0.0242 Uani
H12 H 0.9398 0.3686 0.7220 0.0340 Uiso
O28 O 0.5660(3) 0.9160(4) 0.9236(3) 0.0214 Uani
O33 O 0.3496(3) 0.8384(5) 0.7367(3) 0.0268 Uani
H13 H 0.26271 0.330813 0.465381 . .
H14 H 0.736613 0.665552 0.536637 . .
H15 H 0.334448 0.0710613 0.536637 . .
H17 H 0.928939 0.263387 0.536637 . .
C7 C 0.4204(4) 0.9747(6) 0.1550(4) 0.0177 Uani
C8 C 0.4495(4) 0.9871(6) 0.4326(5) 0.0194 Uani
H5 H 0.3645 0.8832 0.4371 0.0360 Uiso
H6 H 0.5712 0.9398 0.2780 0.0340 Uiso
O13 O 0.6096(3) 0.9122(4) 0.5592(4) 0.0302 Uani
C11 C 0.4698(4) 0.9916(6) 0.7168(4) 0.0182 Uani
H18 H 0.669187 0.931897 0.465381 . .
H18_2 H 0.330813 0.0681035 0.534619 . .
H13_2 H 0.73729 0.669187 0.534619 . .
H14_2 H 0.263387 0.334448 0.463363 . .
H15_2 H 0.665552 0.928939 0.463363 . .
H17_2 H 0.0710613 0.736613 0.463363 . .
H16_2 H 0.931897 0.26271 0.534619 . .
loop_
_atom_site_aniso_label
_atom_site_aniso_U_11
_atom_site_aniso_U_22
_atom_site_aniso_U_33
_atom_site_aniso_U_23
_atom_site_aniso_U_13
_atom_site_aniso_U_12
O19 0.0174 0.0256 0.0266 0.006 0.0017 0.0085
C13 0.0202 0.02 0.0133 0.004 0.0009 0.0103
C14 0.0177 0.0252 0.015 -0.0032 -0.0021 0.0104
O21 0.038 0.0222 0.0263 0.0015 -0.0039 0.012
C17 0.0174 0.0189 0.0167 -0.0037 -0.0022 0.0078
O22 0.0174 0.025 0.0232 -0.0045 -0.0023 0.0116
O24 0.0251 0.0427 0.0231 -0.0118 -0.0074 0.0249
Nd8 0.01465 0.01465 0.01198 0 0 0.00733
Nd4 0.01465 0.01465 0.01198 0 0 0.00733
O30 0.0256 0.026 0.0266 -0.0043 -0.006 0.0171
O31 0.026 0.0174 0.0266 -0.0017 0.0043 0.0089
O1 0.0222 0.0362 0.0263 -0.0054 -0.0015 0.0102
O2 0.025 0.0192 0.0232 0.0022 0.0045 0.0134
C1 0.02 0.0196 0.0133 -0.0031 -0.004 0.0097
O4 0.0427 0.018 0.0231 0.0044 0.0118 0.0178
C2 0.0252 0.0221 0.015 0.0011 0.0032 0.0148
C3 0.0189 0.0207 0.0167 0.0015 0.0037 0.0111
C4 0.0252 0.0221 0.015 0.0011 0.0032 0.0148
O5 0.0222 0.0362 0.0263 -0.0054 -0.0015 0.0102
C5 0.0189 0.0207 0.0167 0.0015 0.0037 0.0111
C6 0.02 0.0196 0.0133 -0.0031 -0.004 0.0097
O6 0.025 0.0192 0.0232 0.0022 0.0045 0.0134
O7 0.0256 0.026 0.0266 -0.0043 -0.006 0.0171
O8 0.0427 0.018 0.0231 0.0044 0.0118 0.0178
O9 0.0362 0.038 0.0263 0.0039 0.0054 0.026
O10 0.0192 0.0174 0.0232 0.0023 -0.0022 0.0058
O12 0.018 0.0251 0.0231 0.0074 -0.0044 0.0002
C9 0.0207 0.0174 0.0167 0.0022 -0.0015 0.0096
C10 0.0221 0.0177 0.015 0.0021 -0.0011 0.0073
C12 0.0196 0.0202 0.0133 -0.0009 0.0031 0.0099
O15 0.026 0.0174 0.0266 -0.0017 0.0043 0.0089
O17 0.038 0.0222 0.0263 0.0015 -0.0039 0.012
O18 0.0174 0.025 0.0232 -0.0045 -0.0023 0.0116
O20 0.0251 0.0427 0.0231 -0.0118 -0.0074 0.0249
C15 0.0174 0.0189 0.0167 -0.0037 -0.0022 0.0078
C16 0.0177 0.0252 0.015 -0.0032 -0.0021 0.0104
C18 0.0202 0.02 0.0133 0.004 0.0009 0.0103
O23 0.0174 0.0256 0.0266 0.006 0.0017 0.0085
O28 0.0192 0.0174 0.0232 0.0023 -0.0022 0.0058
O33 0.018 0.0251 0.0231 0.0074 -0.0044 0.0002
C7 0.0196 0.0202 0.0133 -0.0009 0.0031 0.0099
C8 0.0221 0.0177 0.015 0.0021 -0.0011 0.0073
O13 0.0362 0.038 0.0263 0.0039 0.0054 0.026
C11 0.0207 0.0174 0.0167 0.0022 -0.0015 0.0096
loop_
_geom_bond_atom_site_label_1
_geom_bond_atom_site_label_2
_geom_bond_site_symmetry_1
_geom_bond_site_symmetry_2
O19 C13 1_555 1_555
C14 H9 1_555 1_555
O24 C17 1_555 1_555
Nd8 O22 1_555 1_555
O24 Nd8 1_555 1_555
O21 H16 1_555 1_555
O1 C2 1_555 1_555
O2 C1 1_555 1_555
O30 C1 1_555 1_555
C1 C3 1_555 1_555
Nd4 O2 1_555 1_555
O4 Nd4 1_555 1_555
C2 H1 1_555 1_555
C3 O4 1_555 1_555
H2 C3 1_555 1_555
C4 C2 1_555 1_555
O5 C4 1_555 1_555
H3 C4 1_555 1_555
C5 C4 1_555 1_555
C6 C5 1_555 1_555
O6 C6 1_555 1_555
O7 C6 1_555 1_555
O8 C5 1_555 1_555
H4 C5 1_555 1_555
O10 Nd4 1_555 1_555
O12 Nd4 1_555 1_555
H7 C10 1_555 1_555
O15 C12 1_555 1_555
O18 Nd4 1_555 1_555
O20 Nd4 1_555 1_555
H11 C16 1_555 1_555
O23 C18 1_555 1_555
Nd8 O6 1_555 1_555
O28 Nd8 1_555 1_555
O33 Nd8 1_555 1_555
C2 C3 1_555 1_555
O8 Nd8 1_555 1_555
O12 C9 1_555 1_555
O20 C15 1_555 1_555
O5 H13 1_555 1_555
O1 H14 1_555 1_555
O9 H15 1_555 1_555
O17 H17 1_555 1_555
O31 C7 1_555 1_555
C8 H5 1_555 1_555
O33 C11 1_555 1_555
O13 H18 1_555 1_555
O9 H18_2 1_555 1_555
O1 H13_2 1_555 1_555
O5 H14_2 1_555 1_555
O13 H15_2 1_555 1_555
O21 H17_2 1_555 1_555
O17 H16_2 1_555 1_555

#END
