
###############################################################################
#
# This file contains modified crystal structure data generated from the
# MOF subset of the Cambridge Structural Database (CSD) v543 
# hosted by the Cambridge Crystallographic Data Centre (CCDC).
#
# This work is licensed under the Creative Commons
# Attribution-NonCommercial-ShareAlike 4.0 International License.
# To view a copy of this license, visit
# http://creativecommons.org/licenses/by-nc-sa/4.0/
# or send a letter to
# Creative Commons, PO Box 1866, Mountain View, CA 94042, USA.
#
# CIF created using the CSD Python API on 29 September 2022
# The structure has been converted into the P1 space group
# The structure has a 3D framework
# The original CSD entry ILIMOH is in the rhombohedral crystal system
# The framework has been calculated to contain at least 10.0% void space
# The void calculation uses a probe of radius 1.32A, grid spacing 0.4
#
###############################################################################

data_ILIMOH
_chemical_formula_moiety         '(C216 H144 N90 Ni16)n'
_symmetry_cell_setting           triclinic
_symmetry_space_group_name_H-M   'P 1'
_symmetry_Int_Tables_number      1
_space_group_name_Hall           'P 1'
loop_
_symmetry_equiv_pos_site_id
_symmetry_equiv_pos_as_xyz
1 x,y,z
_cell_length_a                   27.7371(17)
_cell_length_b                   27.7371(17)
_cell_length_c                   9.6225(12)
_cell_angle_alpha                90
_cell_angle_beta                 90
_cell_angle_gamma                120
_cell_volume                     6411.22
loop_
_atom_site_label
_atom_site_type_symbol
_atom_site_fract_x
_atom_site_fract_y
_atom_site_fract_z
Ni2 Ni -0.0000 0.4999 0.0000
N3 N 0.0133(3) 0.4458(4) 0.3893(7)
N4 N 0.0701(3) 0.5556(4) 0.1282(7)
C1 C 0.1105(4) 0.6080(6) 0.1016(11)
H1 H 0.1112 0.6236 0.0155
C2 C 0.1509(5) 0.6393(6) 0.1977(12)
H2 H 0.1784 0.6753 0.1758
C3 C 0.1507(4) 0.6177(6) 0.3245(12)
H3 H 0.1778 0.6388 0.3901
C4 C 0.1099(4) 0.5643(6) 0.3542(10)
H4 H 0.1088 0.5486 0.4404
C5 C 0.0708(4) 0.5345(5) 0.2549(9)
C6 C 0.0238(4) 0.4779(5) 0.2753(9)
H8 H 0.0102 0.3928 0.0305
Ni2_2 Ni -0.0000 0.4999 1.0000
N3_2 N 0.7659(3) 0.6534(3) 0.0560(7)
N5 N 0.7101(3) 0.7925(3) 0.2452(7)
H3_2 H 0.7944 0.4889 0.0568
C4_2 C 0.7878(4) 0.5568(4) 0.0209(10)
H4_2 H 0.7732 0.5579 0.1071
C7 C 0.7693(3) 0.7018(3) 0.0153(8)
C8 C 0.7418(4) 0.8134(3) 0.1326(9)
H5 H 0.7508 0.8489 0.1039
C9 C 0.7616(4) 0.7859(3) 0.0578(9)
C10 C 0.7504(3) 0.7335(3) 0.0991(8)
C11 C 0.7189(4) 0.7120(3) 0.2163(8)
H7 H 0.7110 0.6773 0.2491
C12 C 0.6990(4) 0.7419(3) 0.2856(9)
H8_2 H 0.6769 0.7261 0.3638
Ni3 Ni 0.6666 0.8333 0.3334
H16 H 0.3928 0.3825 0.9695
Ni2_3 Ni 0.5001 0.5000 1.0000
N5_2 N 0.2075(3) 0.9176(4) 0.2452(7)
C8_2 C 0.1866(3) 0.9284(5) 0.1326(9)
H5_2 H 0.1511 0.9019 0.1039
C9_2 C 0.2141(3) 0.9757(5) 0.0578(9)
C12_2 C 0.2581(3) 0.9571(5) 0.2856(9)
H8_3 H 0.2739 0.9508 0.3638
Ni3_2 Ni 0.1667 0.8334 0.3334
N5_3 N 0.0824(4) 0.2899(3) 0.2452(7)
C8_3 C 0.0716(5) 0.2582(4) 0.1326(9)
H5_3 H 0.0981 0.2492 0.1039
C9_3 C 0.0243(5) 0.2384(4) 0.0578(9)
C12_3 C 0.0429(5) 0.3010(4) 0.2856(9)
H8_4 H 0.0492 0.3231 0.3638
Ni3_3 Ni 0.1666 0.3334 0.3334
Ni2_4 Ni 0.5000 1.0000 1.0000
N6 N 0.5418(2) 0.9460(3) 0.7767(6)
N7 N 0.5305(3) 0.9860(3) 0.8235(7)
N10 N 0.6232(3) 0.8742(3) 0.4215(7)
C19 C 0.5640(3) 0.9649(3) 0.6514(8)
C20 C 0.5915(4) 0.8533(3) 0.5341(9)
H13 H 0.5825 0.8178 0.5628
C21 C 0.5717(4) 0.8808(3) 0.6089(9)
H14 H 0.5505 0.8645 0.6882
C22 C 0.5829(3) 0.9332(3) 0.5676(8)
C23 C 0.6144(4) 0.9547(3) 0.4504(8)
H15 H 0.6223 0.9894 0.4176
C24 C 0.6343(4) 0.9248(3) 0.3811(9)
H16_2 H 0.6564 0.9406 0.3029
N11 N 0.4157(4) 0.9566(3) 0.9119(7)
N6_2 N 0.0540(3) 0.5959(4) 0.7767(6)
N7_2 N 0.0140(3) 0.5446(4) 0.8235(7)
N10_2 N 0.1258(3) 0.7491(4) 0.4215(7)
C19_2 C 0.0351(3) 0.5992(4) 0.6514(8)
C20_2 C 0.1467(3) 0.7383(5) 0.5341(9)
H13_2 H 0.1822 0.7648 0.5628
C21_2 C 0.1192(3) 0.6910(5) 0.6089(9)
H14_2 H 0.1355 0.6861 0.6882
C22_2 C 0.0668(3) 0.6498(4) 0.5676(8)
C23_2 C 0.0453(3) 0.6598(5) 0.4504(8)
H15_2 H 0.0106 0.6330 0.4176
C24_2 C 0.0752(3) 0.7096(5) 0.3811(9)
H16_3 H 0.0594 0.7159 0.3029
N11_2 N 0.0434(3) 0.4592(5) 0.9119(7)
N6_3 N 0.4041(4) 0.4582(2) 0.7767(6)
N7_3 N 0.4554(4) 0.4695(3) 0.8235(7)
N8 N 0.4458(4) 0.4326(3) 0.6107(7)
N9 N 0.5556(4) 0.4856(3) 0.8718(7)
N10_3 N 0.2509(4) 0.3768(3) 0.4215(7)
C13 C 0.6080(6) 0.4976(4) 0.8984(11)
H9 H 0.6236 0.5125 0.9845
C14 C 0.6393(6) 0.4885(4) 0.8023(12)
H10 H 0.6753 0.4970 0.8242
C15 C 0.6177(6) 0.4671(4) 0.6755(12)
H11 H 0.6388 0.4611 0.6099
C16 C 0.5643(6) 0.4545(4) 0.6458(10)
H12 H 0.5486 0.4399 0.5596
C17 C 0.5345(5) 0.4638(3) 0.7451(9)
C18 C 0.4779(5) 0.4542(3) 0.7247(9)
C19_3 C 0.4008(4) 0.4360(3) 0.6514(8)
C20_3 C 0.2617(5) 0.4085(4) 0.5341(9)
H13_3 H 0.2352 0.4175 0.5628
C21_3 C 0.3090(5) 0.4283(4) 0.6089(9)
H14_3 H 0.3139 0.4495 0.6882
C22_3 C 0.3502(4) 0.4171(3) 0.5676(8)
C23_3 C 0.3402(5) 0.3856(4) 0.4504(8)
H15_3 H 0.3670 0.3777 0.4176
C24_3 C 0.2904(5) 0.3657(4) 0.3811(9)
H16_4 H 0.2841 0.3436 0.3029
N11_3 N 0.5408(5) 0.5843(4) 0.9119(7)
N1 N 0.1248(2) 0.3874(3) 0.5567(6)
N2 N 0.1361(3) 0.3474(3) 0.5099(7)
N3_3 N 0.0992(3) 0.3201(3) 0.7227(7)
N4_2 N 0.1522(3) 0.2633(3) 0.4616(7)
C1_2 C 0.1642(4) 0.2229(4) 0.4350(11)
H1_2 H 0.1791 0.2222 0.3489
C2_2 C 0.1551(4) 0.1825(5) 0.5311(12)
H2_2 H 0.1636 0.1550 0.5092
C3_2 C 0.1337(4) 0.1827(4) 0.6579(12)
H3_3 H 0.1277 0.1556 0.7235
C4_3 C 0.1211(4) 0.2235(4) 0.6876(10)
H4_3 H 0.1065 0.2246 0.7738
C5_2 C 0.1304(3) 0.2626(4) 0.5883(9)
C6_2 C 0.1208(3) 0.3096(4) 0.6087(9)
C7_2 C 0.1026(3) 0.3685(3) 0.6820(8)
C8_4 C 0.0751(4) 0.4801(3) 0.7993(9)
H5_4 H 0.0841 0.5156 0.7706
C9_4 C 0.0949(4) 0.4526(3) 0.7245(9)
H6 H 0.1161 0.4689 0.6452
C10_2 C 0.0837(3) 0.4002(3) 0.7658(8)
C11_2 C 0.0522(4) 0.3787(3) 0.8830(8)
H7_2 H 0.0443 0.3440 0.9158
C12_4 C 0.0323(4) 0.4086(3) 0.9523(9)
N6_4 N 0.2085(2) 0.2793(3) 0.1100(6)
N7_4 N 0.1972(3) 0.3193(3) 0.1568(7)
N9_2 N 0.1811(3) 0.4034(3) 0.2051(7)
C13_2 C 0.1691(4) 0.4438(4) 0.2317(11)
H9_2 H 0.1542 0.4445 0.3178
C14_2 C 0.1782(4) 0.4842(5) 0.1356(12)
H10_2 H 0.1697 0.5117 0.1575
C15_2 C 0.1996(4) 0.4840(4) 0.0088(12)
C17_2 C 0.2029(3) 0.4041(4) 0.0784(9)
C18_2 C 0.2125(3) 0.3571(4) 0.0580(9)
H14_4 H 0.2172 0.1978 0.0215
N1_2 N 0.6126(3) 0.7375(4) 0.5567(6)
N2_2 N 0.6526(3) 0.7888(4) 0.5099(7)
N3_4 N 0.6799(3) 0.7792(4) 0.7227(7)
N4_3 N 0.7367(3) 0.8890(4) 0.4616(7)
C1_3 C 0.7771(4) 0.9414(6) 0.4350(11)
H1_3 H 0.7778 0.9570 0.3489
C2_3 C 0.8175(5) 0.9727(6) 0.5311(12)
C3_3 C 0.8173(4) 0.9511(6) 0.6579(12)
H3_4 H 0.8444 0.9722 0.7235
C4_4 C 0.7765(4) 0.8977(6) 0.6876(10)
H4_4 H 0.7754 0.8820 0.7738
C5_3 C 0.7374(4) 0.8679(5) 0.5883(9)
C6_3 C 0.6904(4) 0.8113(5) 0.6087(9)
C7_3 C 0.6315(3) 0.7342(4) 0.6820(8)
C8_5 C 0.5199(3) 0.5951(5) 0.7993(9)
H5_5 H 0.4844 0.5686 0.7706
C9_5 C 0.5474(3) 0.6424(5) 0.7245(9)
H6_2 H 0.5311 0.6473 0.6452
C10_3 C 0.5998(3) 0.6836(4) 0.7658(8)
C11_3 C 0.6213(3) 0.6736(5) 0.8830(8)
H7_3 H 0.6560 0.7004 0.9158
C12_5 C 0.5914(3) 0.6238(5) 0.9523(9)
N6_5 N 0.7207(3) 0.9292(4) 0.1100(6)
N7_5 N 0.6807(3) 0.8779(4) 0.1568(7)
N9_3 N 0.5966(3) 0.7777(4) 0.2051(7)
C13_3 C 0.5562(4) 0.7253(6) 0.2317(11)
H9_3 H 0.5555 0.7097 0.3178
C14_3 C 0.5158(5) 0.6940(6) 0.1356(12)
H10_3 H 0.4883 0.6580 0.1575
C15_3 C 0.5160(4) 0.7156(6) 0.0088(12)
C17_3 C 0.5959(4) 0.7988(5) 0.0784(9)
C18_3 C 0.6429(4) 0.8554(5) 0.0580(9)
N1_3 N 0.2625(4) 0.8752(2) 0.5567(6)
N2_3 N 0.2112(4) 0.8639(3) 0.5099(7)
N3_5 N 0.2208(4) 0.9008(3) 0.7227(7)
N4_4 N 0.1110(4) 0.8478(3) 0.4616(7)
C1_4 C 0.0586(6) 0.8358(4) 0.4350(11)
H1_4 H 0.0430 0.8209 0.3489
C2_4 C 0.0273(6) 0.8449(4) 0.5311(12)
C3_4 C 0.0489(6) 0.8663(4) 0.6579(12)
H3_5 H 0.0278 0.8723 0.7235
C4_5 C 0.1023(6) 0.8789(4) 0.6876(10)
H4_5 H 0.1180 0.8935 0.7738
C5_4 C 0.1321(5) 0.8696(3) 0.5883(9)
C6_4 C 0.1887(5) 0.8792(3) 0.6087(9)
C7_4 C 0.2658(4) 0.8974(3) 0.6820(8)
C8_6 C 0.4049(5) 0.9249(4) 0.7993(9)
H5_6 H 0.4314 0.9159 0.7706
C9_6 C 0.3576(5) 0.9051(4) 0.7245(9)
H6_3 H 0.3527 0.8839 0.6452
C10_4 C 0.3164(4) 0.9163(3) 0.7658(8)
C11_4 C 0.3264(5) 0.9478(4) 0.8830(8)
H7_4 H 0.2996 0.9557 0.9158
C12_6 C 0.3762(5) 0.9677(4) 0.9523(9)
N6_6 N 0.0708(4) 0.7915(2) 0.1100(6)
N7_6 N 0.1221(4) 0.8028(3) 0.1568(7)
N9_4 N 0.2223(4) 0.8189(3) 0.2051(7)
C13_4 C 0.2747(6) 0.8309(4) 0.2317(11)
H9_4 H 0.2903 0.8458 0.3178
C14_4 C 0.3060(6) 0.8218(4) 0.1356(12)
H10_4 H 0.3420 0.8303 0.1575
C15_4 C 0.2844(6) 0.8004(4) 0.0088(12)
C17_4 C 0.2012(5) 0.7971(3) 0.0784(9)
C18_4 C 0.1446(5) 0.7875(3) 0.0580(9)
Ni1 Ni 0.8333 0.6667 0.6667
N1_4 N 0.7915(2) 0.7207(3) 0.8900(6)
N2_4 N 0.8028(3) 0.6807(3) 0.8432(7)
N4_5 N 0.8189(3) 0.5966(3) 0.7949(7)
C1_5 C 0.8309(4) 0.5562(4) 0.7683(11)
H1_5 H 0.8458 0.5555 0.6822
C2_5 C 0.8218(4) 0.5158(5) 0.8644(12)
H2_3 H 0.8303 0.4883 0.8425
C3_5 C 0.8004(4) 0.5160(4) 0.9912(12)
C5_5 C 0.7971(3) 0.5959(4) 0.9216(9)
C6_5 C 0.7875(3) 0.6429(4) 0.9420(9)
H6_4 H 0.7828 0.8022 0.9785
N6_7 N 0.8752(2) 0.6126(3) 0.4433(6)
N7_7 N 0.8639(3) 0.6526(3) 0.4901(7)
N8_2 N 0.9008(3) 0.6799(3) 0.2773(7)
N9_5 N 0.8478(3) 0.7367(3) 0.5384(7)
N10_4 N 0.9566(3) 0.5408(3) 0.0881(7)
C13_5 C 0.8358(4) 0.7771(4) 0.5650(11)
H9_5 H 0.8209 0.7778 0.6511
C14_5 C 0.8449(4) 0.8175(5) 0.4689(12)
H10_5 H 0.8364 0.8450 0.4908
C15_5 C 0.8663(4) 0.8173(4) 0.3421(12)
H11_2 H 0.8723 0.8444 0.2765
C16_2 C 0.8789(4) 0.7765(4) 0.3124(10)
H12_2 H 0.8935 0.7754 0.2262
C17_5 C 0.8696(3) 0.7374(4) 0.4117(9)
C18_5 C 0.8792(3) 0.6904(4) 0.3913(9)
C19_4 C 0.8974(3) 0.6315(3) 0.3180(8)
C20_4 C 0.9249(4) 0.5199(3) 0.2007(9)
H13_4 H 0.9159 0.4844 0.2294
C21_4 C 0.9051(4) 0.5474(3) 0.2755(9)
H14_5 H 0.8839 0.5311 0.3548
C22_4 C 0.9163(3) 0.5998(3) 0.2342(8)
C23_4 C 0.9478(4) 0.6213(3) 0.1170(8)
H15_4 H 0.9557 0.6560 0.0842
C24_4 C 0.9677(4) 0.5914(3) 0.0477(9)
Ni2_5 Ni 1.0000 0.4999 0.0000
N11_4 N 0.7491(4) 0.6232(3) 0.5785(7)
N12 N 0.9176(4) 0.7101(3) 0.7548(7)
Ni1_2 Ni 0.3333 0.1666 0.6667
N1_5 N 0.2793(3) 0.0708(4) 0.8900(6)
N2_5 N 0.3193(3) 0.1221(4) 0.8432(7)
N4_6 N 0.4034(3) 0.2223(4) 0.7949(7)
C1_6 C 0.4438(4) 0.2747(6) 0.7683(11)
H1_6 H 0.4445 0.2903 0.6822
C2_6 C 0.4842(5) 0.3060(6) 0.8644(12)
H2_4 H 0.5117 0.3420 0.8425
C3_6 C 0.4840(4) 0.2844(6) 0.9912(12)
C5_6 C 0.4041(4) 0.2012(5) 0.9216(9)
C6_6 C 0.3571(4) 0.1446(5) 0.9420(9)
N6_8 N 0.3874(3) 0.2625(4) 0.4433(6)
N7_8 N 0.3474(3) 0.2112(4) 0.4901(7)
N8_3 N 0.3201(3) 0.2208(4) 0.2773(7)
N9_6 N 0.2633(3) 0.1110(4) 0.5384(7)
N10_5 N 0.4592(3) 0.4157(4) 0.0881(7)
C13_6 C 0.2229(4) 0.0586(6) 0.5650(11)
H9_6 H 0.2222 0.0430 0.6511
C14_6 C 0.1825(5) 0.0273(6) 0.4689(12)
C15_6 C 0.1827(4) 0.0489(6) 0.3421(12)
H11_3 H 0.1556 0.0278 0.2765
C16_3 C 0.2235(4) 0.1023(6) 0.3124(10)
H12_3 H 0.2246 0.1180 0.2262
C17_6 C 0.2626(4) 0.1321(5) 0.4117(9)
C18_6 C 0.3096(4) 0.1887(5) 0.3913(9)
C19_5 C 0.3685(3) 0.2658(4) 0.3180(8)
C20_5 C 0.4801(3) 0.4049(5) 0.2007(9)
H13_5 H 0.5156 0.4314 0.2294
C21_5 C 0.4526(3) 0.3576(5) 0.2755(9)
H14_6 H 0.4689 0.3527 0.3548
C22_5 C 0.4002(3) 0.3164(4) 0.2342(8)
C23_5 C 0.3787(3) 0.3264(5) 0.1170(8)
H15_5 H 0.3440 0.2996 0.0842
C24_5 C 0.4086(3) 0.3762(5) 0.0477(9)
Ni2_6 Ni 0.5001 0.5000 0.0000
N11_5 N 0.3768(3) 0.1258(5) 0.5785(7)
N12_2 N 0.2899(3) 0.2075(5) 0.7548(7)
Ni1_3 Ni 0.8334 0.1667 0.6667
N1_6 N 0.9292(4) 0.2085(2) 0.8900(6)
N2_6 N 0.8779(4) 0.1972(3) 0.8432(7)
N4_7 N 0.7777(4) 0.1811(3) 0.7949(7)
C1_7 C 0.7253(6) 0.1691(4) 0.7683(11)
H1_7 H 0.7097 0.1542 0.6822
C2_7 C 0.6940(6) 0.1782(4) 0.8644(12)
H2_5 H 0.6580 0.1697 0.8425
C3_7 C 0.7156(6) 0.1996(4) 0.9912(12)
C5_7 C 0.7988(5) 0.2029(3) 0.9216(9)
C6_7 C 0.8554(5) 0.2125(3) 0.9420(9)
N6_9 N 0.7375(4) 0.1248(2) 0.4433(6)
N7_9 N 0.7888(4) 0.1361(3) 0.4901(7)
N8_4 N 0.7792(4) 0.0992(3) 0.2773(7)
N9_7 N 0.8890(4) 0.1522(3) 0.5384(7)
N10_6 N 0.5843(4) 0.0434(3) 0.0881(7)
C13_7 C 0.9414(6) 0.1642(4) 0.5650(11)
H9_7 H 0.9570 0.1791 0.6511
C14_7 C 0.9727(6) 0.1551(4) 0.4689(12)
C15_7 C 0.9511(6) 0.1337(4) 0.3421(12)
H11_4 H 0.9722 0.1277 0.2765
C16_4 C 0.8977(6) 0.1211(4) 0.3124(10)
H12_4 H 0.8820 0.1065 0.2262
C17_7 C 0.8679(5) 0.1304(3) 0.4117(9)
C18_7 C 0.8113(5) 0.1208(3) 0.3913(9)
C19_6 C 0.7342(4) 0.1026(3) 0.3180(8)
C20_6 C 0.5951(5) 0.0751(4) 0.2007(9)
H13_6 H 0.5686 0.0841 0.2294
C21_6 C 0.6424(5) 0.0949(4) 0.2755(9)
H14_7 H 0.6473 0.1161 0.3548
C22_6 C 0.6836(4) 0.0837(3) 0.2342(8)
C23_6 C 0.6736(5) 0.0522(4) 0.1170(8)
H15_6 H 0.7004 0.0443 0.0842
C24_6 C 0.6238(5) 0.0323(4) 0.0477(9)
Ni2_7 Ni 0.5000 0.0000 0.0000
N11_6 N 0.8742(5) 0.2509(4) 0.5785(7)
N12_3 N 0.7925(5) 0.0824(4) 0.7548(7)
N1_7 N 0.4582(2) 0.0540(3) 0.2233(6)
N2_7 N 0.4695(3) 0.0140(3) 0.1765(7)
C7_5 C 0.4360(3) 0.0351(3) 0.3486(8)
C8_7 C 0.4085(4) 0.1467(3) 0.4659(9)
H5_7 H 0.4175 0.1822 0.4372
C9_7 C 0.4283(4) 0.1192(3) 0.3911(9)
H6_5 H 0.4495 0.1355 0.3118
C10_5 C 0.4171(3) 0.0668(3) 0.4324(8)
C11_5 C 0.3856(4) 0.0453(3) 0.5496(8)
H7_5 H 0.3777 0.0106 0.5824
C12_7 C 0.3657(4) 0.0752(3) 0.6189(9)
H8_5 H 0.3436 0.0594 0.6971
N1_8 N 0.9460(3) 0.4041(4) 0.2233(6)
N2_8 N 0.9860(3) 0.4554(4) 0.1765(7)
C7_6 C 0.9649(3) 0.4008(4) 0.3486(8)
C8_8 C 0.8533(3) 0.2617(5) 0.4659(9)
H5_8 H 0.8178 0.2352 0.4372
C9_8 C 0.8808(3) 0.3090(5) 0.3911(9)
H6_6 H 0.8645 0.3139 0.3118
C10_6 C 0.9332(3) 0.3502(4) 0.4324(8)
C11_6 C 0.9547(3) 0.3402(5) 0.5496(8)
H7_6 H 0.9894 0.3670 0.5824
C12_8 C 0.9248(3) 0.2904(5) 0.6189(9)
H8_6 H 0.9406 0.2841 0.6971
N1_9 N 0.5959(4) 0.5418(2) 0.2233(6)
N2_9 N 0.5446(4) 0.5305(3) 0.1765(7)
N3_6 N 0.5542(4) 0.5674(3) 0.3893(7)
N4_8 N 0.4444(4) 0.5144(3) 0.1282(7)
C1_8 C 0.3920(6) 0.5024(4) 0.1016(11)
H1_8 H 0.3764 0.4875 0.0155
C2_8 C 0.3607(6) 0.5115(4) 0.1977(12)
H2_6 H 0.3247 0.5030 0.1758
C3_8 C 0.3823(6) 0.5329(4) 0.3245(12)
H3_6 H 0.3612 0.5389 0.3901
C4_6 C 0.4357(6) 0.5455(4) 0.3542(10)
H4_6 H 0.4514 0.5601 0.4404
C5_8 C 0.4655(5) 0.5362(3) 0.2549(9)
C6_8 C 0.5221(5) 0.5458(3) 0.2753(9)
C7_7 C 0.5992(4) 0.5640(3) 0.3486(8)
C8_9 C 0.7383(5) 0.5915(4) 0.4659(9)
H5_9 H 0.7648 0.5825 0.4372
C9_9 C 0.6910(5) 0.5717(4) 0.3911(9)
H6_7 H 0.6861 0.5505 0.3118
C10_7 C 0.6498(4) 0.5829(3) 0.4324(8)
C11_7 C 0.6598(5) 0.6144(4) 0.5496(8)
H7_7 H 0.6330 0.6223 0.5824
C12_9 C 0.7096(5) 0.6343(4) 0.6189(9)
H8_7 H 0.7159 0.6564 0.6971
N8_5 N 0.2341(3) 0.3466(3) 0.9440(7)
H11_5 H 0.2056 0.5111 0.9432
C16_5 C 0.2122(4) 0.4432(4) 0.9791(10)
H12_5 H 0.2268 0.4421 0.8929
C19_7 C 0.2307(3) 0.2982(3) 0.9847(8)
C20_7 C 0.2582(4) 0.1866(3) 0.8674(9)
H13_7 H 0.2492 0.1511 0.8961
C21_7 C 0.2384(4) 0.2141(3) 0.9422(9)
C22_7 C 0.2496(3) 0.2665(3) 0.9009(8)
C23_7 C 0.2811(4) 0.2880(3) 0.7837(8)
H15_7 H 0.2890 0.3227 0.7509
C24_7 C 0.3010(4) 0.2581(3) 0.7144(9)
H16_5 H 0.3231 0.2739 0.6362
C20_8 C 0.8134(3) 0.0716(5) 0.8674(9)
H13_8 H 0.8489 0.0981 0.8961
C21_8 C 0.7859(3) 0.0243(5) 0.9422(9)
C24_8 C 0.7419(3) 0.0429(5) 0.7144(9)
H16_6 H 0.7261 0.0492 0.6362
H8_8 H 0.6072 0.6175 0.0305
C20_9 C 0.9284(5) 0.7418(4) 0.8674(9)
H13_9 H 0.9019 0.7508 0.8961
C21_9 C 0.9757(5) 0.7616(4) 0.9422(9)
C24_9 C 0.9571(5) 0.6990(4) 0.7144(9)
H16_7 H 0.9508 0.6769 0.6362
H16_8 H 0.9898 0.6072 0.9695
Ni2_8 Ni 1.0000 0.4999 1.0000
N8_6 N 0.9867(3) 0.5542(4) 0.6107(7)
N9_8 N 0.9299(3) 0.4444(4) 0.8718(7)
C13_8 C 0.8895(4) 0.3920(6) 0.8984(11)
H9_8 H 0.8888 0.3764 0.9845
C14_8 C 0.8491(5) 0.3607(6) 0.8023(12)
H10_6 H 0.8216 0.3247 0.8242
C15_8 C 0.8493(4) 0.3823(6) 0.6755(12)
H11_6 H 0.8222 0.3612 0.6099
C16_6 C 0.8901(4) 0.4357(6) 0.6458(10)
H12_6 H 0.8912 0.4514 0.5596
C17_8 C 0.9292(4) 0.4655(5) 0.7451(9)
C18_8 C 0.9762(4) 0.5221(5) 0.7247(9)
N3_7 N 0.3466(3) 0.1125(4) 0.0560(7)
H3_7 H 0.5111 0.3055 0.0568
C4_7 C 0.4432(4) 0.2310(6) 0.0209(10)
H4_7 H 0.4421 0.2153 0.1071
C7_8 C 0.2982(3) 0.0675(4) 0.0153(8)
C10_8 C 0.2665(3) 0.0169(4) 0.0991(8)
C11_8 C 0.2880(3) 0.0069(5) 0.2163(8)
H7_8 H 0.3227 0.0337 0.2491
H6_8 H 0.1978 0.9806 0.9785
H10_7 H 0.1550 0.9913 0.4908
H6_9 H 0.0194 0.2172 0.9785
H10_8 H 0.0087 0.1636 0.4908
N3_8 N 0.8875(4) 0.2341(3) 0.0560(7)
H3_8 H 0.6945 0.2056 0.0568
C4_8 C 0.7690(6) 0.2122(4) 0.0209(10)
H4_8 H 0.7847 0.2268 0.1071
C7_9 C 0.9325(4) 0.2307(3) 0.0153(8)
C10_9 C 0.9831(4) 0.2496(3) 0.0991(8)
C11_9 C 0.9931(5) 0.2811(4) 0.2163(8)
H7_9 H 0.9663 0.2890 0.2491
H16_9 H 0.6175 0.0102 0.9695
Ni2_9 Ni 0.5000 0.0000 1.0000
N8_7 N 0.5674(3) 0.0133(3) 0.6107(7)
N9_9 N 0.5144(3) 0.0701(3) 0.8718(7)
C13_9 C 0.5024(4) 0.1105(4) 0.8984(11)
H9_9 H 0.4875 0.1112 0.9845
C14_9 C 0.5115(4) 0.1509(5) 0.8023(12)
H10_9 H 0.5030 0.1784 0.8242
C15_9 C 0.5329(4) 0.1507(4) 0.6755(12)
H11_7 H 0.5389 0.1778 0.6099
C16_7 C 0.5455(4) 0.1099(4) 0.6458(10)
H12_7 H 0.5601 0.1088 0.5596
C17_9 C 0.5362(3) 0.0708(4) 0.7451(9)
C18_9 C 0.5458(3) 0.0238(4) 0.7247(9)
Ni2_10 Ni 0.5000 1.0000 0.0000
N3_9 N 0.4326(3) 0.9867(3) 0.3893(7)
N4_9 N 0.4856(3) 0.9299(3) 0.1282(7)
C1_9 C 0.4976(4) 0.8895(4) 0.1016(11)
H1_9 H 0.5125 0.8888 0.0155
C2_9 C 0.4885(4) 0.8491(5) 0.1977(12)
H2_7 H 0.4970 0.8216 0.1758
C3_9 C 0.4671(4) 0.8493(4) 0.3245(12)
H3_9 H 0.4611 0.8222 0.3901
C4_9 C 0.4545(4) 0.8901(4) 0.3542(10)
H4_9 H 0.4399 0.8912 0.4404
C5_9 C 0.4638(3) 0.9292(4) 0.2549(9)
C6_9 C 0.4542(3) 0.9762(4) 0.2753(9)
H8_9 H 0.3825 0.9898 0.0305
H2_8 H 0.8450 0.0087 0.5092
H14_8 H 0.8022 0.0194 0.0215
N8_8 N 0.6534(3) 0.8875(4) 0.9440(7)
H11_8 H 0.4889 0.6945 0.9432
C16_8 C 0.5568(4) 0.7690(6) 0.9791(10)
H12_8 H 0.5579 0.7847 0.8929
C19_8 C 0.7018(3) 0.9325(4) 0.9847(8)
C22_8 C 0.7335(3) 0.9831(4) 0.9009(8)
C23_8 C 0.7120(3) 0.9931(5) 0.7837(8)
H15_8 H 0.6773 0.9663 0.7509
N8_9 N 0.1125(4) 0.7659(3) 0.9440(7)
H11_9 H 0.3055 0.7944 0.9432
C16_9 C 0.2310(6) 0.7878(4) 0.9791(10)
H12_9 H 0.2153 0.7732 0.8929
C19_9 C 0.0675(4) 0.7693(3) 0.9847(8)
C22_9 C 0.0169(4) 0.7504(3) 0.9009(8)
C23_9 C 0.0069(5) 0.7189(4) 0.7837(8)
H15_9 H 0.0337 0.7110 0.7509
H2_9 H 0.9913 0.8364 0.5092
H14_9 H 0.9806 0.7828 0.0215
loop_
_geom_bond_atom_site_label_1
_geom_bond_atom_site_label_2
_geom_bond_site_symmetry_1
_geom_bond_site_symmetry_2
N3 C6 1_555 1_555
N4 Ni2 1_555 1_555
C1 N4 1_555 1_555
H1 C1 1_555 1_555
C2 C1 1_555 1_555
H2 C2 1_555 1_555
C3 C2 1_555 1_555
H3 C3 1_555 1_555
C4 C3 1_555 1_555
H4 C4 1_555 1_555
C5 N4 1_555 1_555
C6 C5 1_555 1_555
C4 C5 1_555 1_555
N5 C8 1_555 1_555
H4_2 C4_2 1_555 1_555
C8 H5 1_555 1_555
C9 C8 1_555 1_555
C10 C7 1_555 1_555
C11 C10 1_555 1_555
H7 C11 1_555 1_555
C12 N5 1_555 1_555
H8_2 C12 1_555 1_555
Ni3 N5 1_555 1_555
N3_2 C7 1_555 1_555
C9 C10 1_555 1_555
C11 C12 1_555 1_555
N5_2 C8_2 1_555 1_555
C8_2 H5_2 1_555 1_555
C9_2 C8_2 1_555 1_555
C12_2 N5_2 1_555 1_555
H8_3 C12_2 1_555 1_555
Ni3_2 N5_2 1_555 1_555
N5_3 C8_3 1_555 1_555
C8_3 H5_3 1_555 1_555
C9_3 C8_3 1_555 1_555
C12_3 N5_3 1_555 1_555
H8_4 C12_3 1_555 1_555
Ni3_3 N5_3 1_555 1_555
N6 N7 1_555 1_555
N7 Ni2_4 1_555 1_555
N10 C20 1_555 1_555
C19 N6 1_555 1_555
C20 H13 1_555 1_555
C21 C20 1_555 1_555
H14 C21 1_555 1_555
C22 C19 1_555 1_555
C23 C22 1_555 1_555
H15 C23 1_555 1_555
C24 N10 1_555 1_555
H16_2 C24 1_555 1_555
Ni3 N10 1_555 1_555
N11 Ni2_4 1_555 1_555
C21 C22 1_555 1_555
C23 C24 1_555 1_555
N6_2 N7_2 1_555 1_555
N7_2 Ni2_2 1_555 1_555
N10_2 C20_2 1_555 1_555
C19_2 N6_2 1_555 1_555
C20_2 H13_2 1_555 1_555
C21_2 C20_2 1_555 1_555
H14_2 C21_2 1_555 1_555
C22_2 C19_2 1_555 1_555
C23_2 C22_2 1_555 1_555
H15_2 C23_2 1_555 1_555
C24_2 N10_2 1_555 1_555
H16_3 C24_2 1_555 1_555
Ni3_2 N10_2 1_555 1_555
N11_2 Ni2_2 1_555 1_555
C21_2 C22_2 1_555 1_555
C23_2 C24_2 1_555 1_555
N6_3 N7_3 1_555 1_555
N7_3 Ni2_3 1_555 1_555
N8 C18 1_555 1_555
N9 Ni2_3 1_555 1_555
N10_3 C20_3 1_555 1_555
C13 N9 1_555 1_555
H9 C13 1_555 1_555
C14 C13 1_555 1_555
H10 C14 1_555 1_555
C15 C14 1_555 1_555
H11 C15 1_555 1_555
C16 C15 1_555 1_555
H12 C16 1_555 1_555
C17 N9 1_555 1_555
C18 N7_3 1_555 1_555
C19_3 N6_3 1_555 1_555
C20_3 H13_3 1_555 1_555
C21_3 C20_3 1_555 1_555
H14_3 C21_3 1_555 1_555
C22_3 C19_3 1_555 1_555
C23_3 C22_3 1_555 1_555
H15_3 C23_3 1_555 1_555
C24_3 N10_3 1_555 1_555
H16_4 C24_3 1_555 1_555
Ni3_3 N10_3 1_555 1_555
N11_3 Ni2_3 1_555 1_555
N8 C19_3 1_555 1_555
C16 C17 1_555 1_555
C17 C18 1_555 1_555
C21_3 C22_3 1_555 1_555
C23_3 C24_3 1_555 1_555
Ni3_3 N2 1_555 1_555
N1 N2 1_555 1_555
N2 C6_2 1_555 1_555
N3_3 C6_2 1_555 1_555
N4_2 Ni3_3 1_555 1_555
N11_2 C8_4 1_555 1_555
C1_2 N4_2 1_555 1_555
H1_2 C1_2 1_555 1_555
C2_2 C1_2 1_555 1_555
H2_2 C2_2 1_555 1_555
C3_2 C2_2 1_555 1_555
H3_3 C3_2 1_555 1_555
C4_3 C3_2 1_555 1_555
H4_3 C4_3 1_555 1_555
C5_2 N4_2 1_555 1_555
C6_2 C5_2 1_555 1_555
C7_2 N1 1_555 1_555
C8_4 H5_4 1_555 1_555
C9_4 C8_4 1_555 1_555
H6 C9_4 1_555 1_555
C10_2 C7_2 1_555 1_555
C11_2 C10_2 1_555 1_555
H7_2 C11_2 1_555 1_555
C12_4 N11_2 1_555 1_555
N6_4 N7_4 1_555 1_555
N7_4 Ni3_3 1_555 1_555
N9_2 Ni3_3 1_555 1_555
C13_2 N9_2 1_555 1_555
H9_2 C13_2 1_555 1_555
C14_2 C13_2 1_555 1_555
H10_2 C14_2 1_555 1_555
C15_2 C14_2 1_555 1_555
C17_2 N9_2 1_555 1_555
C18_2 N7_4 1_555 1_555
N3_3 C7_2 1_555 1_555
C4_3 C5_2 1_555 1_555
C9_4 C10_2 1_555 1_555
C11_2 C12_4 1_555 1_555
C17_2 C18_2 1_555 1_555
Ni3 N2_2 1_555 1_555
N1_2 N2_2 1_555 1_555
N2_2 C6_3 1_555 1_555
N3_4 C6_3 1_555 1_555
N4_3 Ni3 1_555 1_555
N11_3 C8_5 1_555 1_555
C1_3 N4_3 1_555 1_555
H1_3 C1_3 1_555 1_555
C2_3 C1_3 1_555 1_555
C3_3 C2_3 1_555 1_555
H3_4 C3_3 1_555 1_555
C4_4 C3_3 1_555 1_555
H4_4 C4_4 1_555 1_555
C5_3 N4_3 1_555 1_555
C6_3 C5_3 1_555 1_555
C7_3 N1_2 1_555 1_555
C8_5 H5_5 1_555 1_555
C9_5 C8_5 1_555 1_555
H6_2 C9_5 1_555 1_555
C10_3 C7_3 1_555 1_555
C11_3 C10_3 1_555 1_555
H7_3 C11_3 1_555 1_555
C12_5 N11_3 1_555 1_555
N6_5 N7_5 1_555 1_555
N7_5 Ni3 1_555 1_555
N9_3 Ni3 1_555 1_555
C13_3 N9_3 1_555 1_555
H9_3 C13_3 1_555 1_555
C14_3 C13_3 1_555 1_555
H10_3 C14_3 1_555 1_555
C15_3 C14_3 1_555 1_555
C17_3 N9_3 1_555 1_555
C18_3 N7_5 1_555 1_555
N3_4 C7_3 1_555 1_555
C4_4 C5_3 1_555 1_555
C9_5 C10_3 1_555 1_555
C11_3 C12_5 1_555 1_555
C17_3 C18_3 1_555 1_555
Ni3_2 N2_3 1_555 1_555
N1_3 N2_3 1_555 1_555
N2_3 C6_4 1_555 1_555
N3_5 C6_4 1_555 1_555
N4_4 Ni3_2 1_555 1_555
N11 C8_6 1_555 1_555
C1_4 N4_4 1_555 1_555
H1_4 C1_4 1_555 1_555
C2_4 C1_4 1_555 1_555
C3_4 C2_4 1_555 1_555
H3_5 C3_4 1_555 1_555
C4_5 C3_4 1_555 1_555
H4_5 C4_5 1_555 1_555
C5_4 N4_4 1_555 1_555
C6_4 C5_4 1_555 1_555
C7_4 N1_3 1_555 1_555
C8_6 H5_6 1_555 1_555
C9_6 C8_6 1_555 1_555
H6_3 C9_6 1_555 1_555
C10_4 C7_4 1_555 1_555
C11_4 C10_4 1_555 1_555
H7_4 C11_4 1_555 1_555
C12_6 N11 1_555 1_555
N6_6 N7_6 1_555 1_555
N7_6 Ni3_2 1_555 1_555
N9_4 Ni3_2 1_555 1_555
C13_4 N9_4 1_555 1_555
H9_4 C13_4 1_555 1_555
C14_4 C13_4 1_555 1_555
H10_4 C14_4 1_555 1_555
C15_4 C14_4 1_555 1_555
C17_4 N9_4 1_555 1_555
C18_4 N7_6 1_555 1_555
N3_5 C7_4 1_555 1_555
C4_5 C5_4 1_555 1_555
C9_6 C10_4 1_555 1_555
C11_4 C12_6 1_555 1_555
C17_4 C18_4 1_555 1_555
Ni1 N2_4 1_555 1_555
N1_4 N2_4 1_555 1_555
N2_4 C6_5 1_555 1_555
N4_5 Ni1 1_555 1_555
C1_5 N4_5 1_555 1_555
H1_5 C1_5 1_555 1_555
C2_5 C1_5 1_555 1_555
H2_3 C2_5 1_555 1_555
C3_5 C2_5 1_555 1_555
C5_5 N4_5 1_555 1_555
C6_5 C5_5 1_555 1_555
N6_7 N7_7 1_555 1_555
N7_7 Ni1 1_555 1_555
N8_2 C18_5 1_555 1_555
N9_5 Ni1 1_555 1_555
N10_4 C20_4 1_555 1_555
C13_5 N9_5 1_555 1_555
H9_5 C13_5 1_555 1_555
C14_5 C13_5 1_555 1_555
H10_5 C14_5 1_555 1_555
C15_5 C14_5 1_555 1_555
H11_2 C15_5 1_555 1_555
C16_2 C15_5 1_555 1_555
H12_2 C16_2 1_555 1_555
C17_5 N9_5 1_555 1_555
C18_5 N7_7 1_555 1_555
C19_4 N6_7 1_555 1_555
C20_4 H13_4 1_555 1_555
C21_4 C20_4 1_555 1_555
H14_5 C21_4 1_555 1_555
C22_4 C19_4 1_555 1_555
C23_4 C22_4 1_555 1_555
H15_4 C23_4 1_555 1_555
C24_4 N10_4 1_555 1_555
Ni2_5 N10_4 1_555 1_555
N11_4 Ni1 1_555 1_555
N12 Ni1 1_555 1_555
N8_2 C19_4 1_555 1_555
C16_2 C17_5 1_555 1_555
C17_5 C18_5 1_555 1_555
C21_4 C22_4 1_555 1_555
C23_4 C24_4 1_555 1_555
Ni1_2 N2_5 1_555 1_555
N1_5 N2_5 1_555 1_555
N2_5 C6_6 1_555 1_555
N4_6 Ni1_2 1_555 1_555
C1_6 N4_6 1_555 1_555
H1_6 C1_6 1_555 1_555
C2_6 C1_6 1_555 1_555
H2_4 C2_6 1_555 1_555
C3_6 C2_6 1_555 1_555
C5_6 N4_6 1_555 1_555
C6_6 C5_6 1_555 1_555
N6_8 N7_8 1_555 1_555
N7_8 Ni1_2 1_555 1_555
N8_3 C18_6 1_555 1_555
N9_6 Ni1_2 1_555 1_555
N10_5 C20_5 1_555 1_555
C13_6 N9_6 1_555 1_555
H9_6 C13_6 1_555 1_555
C14_6 C13_6 1_555 1_555
C15_6 C14_6 1_555 1_555
H11_3 C15_6 1_555 1_555
C16_3 C15_6 1_555 1_555
H12_3 C16_3 1_555 1_555
C17_6 N9_6 1_555 1_555
C18_6 N7_8 1_555 1_555
C19_5 N6_8 1_555 1_555
C20_5 H13_5 1_555 1_555
C21_5 C20_5 1_555 1_555
H14_6 C21_5 1_555 1_555
C22_5 C19_5 1_555 1_555
C23_5 C22_5 1_555 1_555
H15_5 C23_5 1_555 1_555
C24_5 N10_5 1_555 1_555
Ni2_6 N10_5 1_555 1_555
N11_5 Ni1_2 1_555 1_555
N12_2 Ni1_2 1_555 1_555
N8_3 C19_5 1_555 1_555
C16_3 C17_6 1_555 1_555
C17_6 C18_6 1_555 1_555
C21_5 C22_5 1_555 1_555
C23_5 C24_5 1_555 1_555
Ni1_3 N2_6 1_555 1_555
N1_6 N2_6 1_555 1_555
N2_6 C6_7 1_555 1_555
N4_7 Ni1_3 1_555 1_555
C1_7 N4_7 1_555 1_555
H1_7 C1_7 1_555 1_555
C2_7 C1_7 1_555 1_555
H2_5 C2_7 1_555 1_555
C3_7 C2_7 1_555 1_555
C5_7 N4_7 1_555 1_555
C6_7 C5_7 1_555 1_555
N6_9 N7_9 1_555 1_555
N7_9 Ni1_3 1_555 1_555
N8_4 C18_7 1_555 1_555
N9_7 Ni1_3 1_555 1_555
N10_6 C20_6 1_555 1_555
C13_7 N9_7 1_555 1_555
H9_7 C13_7 1_555 1_555
C14_7 C13_7 1_555 1_555
C15_7 C14_7 1_555 1_555
H11_4 C15_7 1_555 1_555
C16_4 C15_7 1_555 1_555
H12_4 C16_4 1_555 1_555
C17_7 N9_7 1_555 1_555
C18_7 N7_9 1_555 1_555
C19_6 N6_9 1_555 1_555
C20_6 H13_6 1_555 1_555
C21_6 C20_6 1_555 1_555
H14_7 C21_6 1_555 1_555
C22_6 C19_6 1_555 1_555
C23_6 C22_6 1_555 1_555
H15_6 C23_6 1_555 1_555
C24_6 N10_6 1_555 1_555
Ni2_7 N10_6 1_555 1_555
N11_6 Ni1_3 1_555 1_555
N12_3 Ni1_3 1_555 1_555
N8_4 C19_6 1_555 1_555
C16_4 C17_7 1_555 1_555
C17_7 C18_7 1_555 1_555
C21_6 C22_6 1_555 1_555
C23_6 C24_6 1_555 1_555
Ni2_7 N2_7 1_555 1_555
N1_7 N2_7 1_555 1_555
N11_5 C8_7 1_555 1_555
C7_5 N1_7 1_555 1_555
C8_7 H5_7 1_555 1_555
C9_7 C8_7 1_555 1_555
H6_5 C9_7 1_555 1_555
C10_5 C7_5 1_555 1_555
C11_5 C10_5 1_555 1_555
H7_5 C11_5 1_555 1_555
C12_7 N11_5 1_555 1_555
H8_5 C12_7 1_555 1_555
C9_7 C10_5 1_555 1_555
C11_5 C12_7 1_555 1_555
Ni2_5 N2_8 1_555 1_555
N1_8 N2_8 1_555 1_555
N11_6 C8_8 1_555 1_555
C7_6 N1_8 1_555 1_555
C8_8 H5_8 1_555 1_555
C9_8 C8_8 1_555 1_555
H6_6 C9_8 1_555 1_555
C10_6 C7_6 1_555 1_555
C11_6 C10_6 1_555 1_555
H7_6 C11_6 1_555 1_555
C12_8 N11_6 1_555 1_555
H8_6 C12_8 1_555 1_555
C9_8 C10_6 1_555 1_555
C11_6 C12_8 1_555 1_555
Ni2_6 N2_9 1_555 1_555
N1_9 N2_9 1_555 1_555
N2_9 C6_8 1_555 1_555
N3_6 C6_8 1_555 1_555
N4_8 Ni2_6 1_555 1_555
N11_4 C8_9 1_555 1_555
C1_8 N4_8 1_555 1_555
H1_8 C1_8 1_555 1_555
C2_8 C1_8 1_555 1_555
H2_6 C2_8 1_555 1_555
C3_8 C2_8 1_555 1_555
H3_6 C3_8 1_555 1_555
C4_6 C3_8 1_555 1_555
H4_6 C4_6 1_555 1_555
C5_8 N4_8 1_555 1_555
C6_8 C5_8 1_555 1_555
C7_7 N1_9 1_555 1_555
C8_9 H5_9 1_555 1_555
C9_9 C8_9 1_555 1_555
H6_7 C9_9 1_555 1_555
C10_7 C7_7 1_555 1_555
C11_7 C10_7 1_555 1_555
H7_7 C11_7 1_555 1_555
C12_9 N11_4 1_555 1_555
H8_7 C12_9 1_555 1_555
N3_6 C7_7 1_555 1_555
C4_6 C5_8 1_555 1_555
C9_9 C10_7 1_555 1_555
C11_7 C12_9 1_555 1_555
N12_2 C20_7 1_555 1_555
H12_5 C16_5 1_555 1_555
C20_7 H13_7 1_555 1_555
C21_7 C20_7 1_555 1_555
C22_7 C19_7 1_555 1_555
C23_7 C22_7 1_555 1_555
H15_7 C23_7 1_555 1_555
C24_7 N12_2 1_555 1_555
H16_5 C24_7 1_555 1_555
N8_5 C19_7 1_555 1_555
C21_7 C22_7 1_555 1_555
C23_7 C24_7 1_555 1_555
N12_3 C20_8 1_555 1_555
C20_8 H13_8 1_555 1_555
C21_8 C20_8 1_555 1_555
C24_8 N12_3 1_555 1_555
H16_6 C24_8 1_555 1_555
N12 C20_9 1_555 1_555
C20_9 H13_9 1_555 1_555
C21_9 C20_9 1_555 1_555
C24_9 N12 1_555 1_555
H16_7 C24_9 1_555 1_555
N8_6 C18_8 1_555 1_555
N9_8 Ni2_8 1_555 1_555
C13_8 N9_8 1_555 1_555
H9_8 C13_8 1_555 1_555
C14_8 C13_8 1_555 1_555
H10_6 C14_8 1_555 1_555
C15_8 C14_8 1_555 1_555
H11_6 C15_8 1_555 1_555
C16_6 C15_8 1_555 1_555
H12_6 C16_6 1_555 1_555
C17_8 N9_8 1_555 1_555
C16_6 C17_8 1_555 1_555
C17_8 C18_8 1_555 1_555
H4_7 C4_7 1_555 1_555
C10_8 C7_8 1_555 1_555
C11_8 C10_8 1_555 1_555
H7_8 C11_8 1_555 1_555
N3_7 C7_8 1_555 1_555
H4_8 C4_8 1_555 1_555
C10_9 C7_9 1_555 1_555
C11_9 C10_9 1_555 1_555
H7_9 C11_9 1_555 1_555
N3_8 C7_9 1_555 1_555
N8_7 C18_9 1_555 1_555
N9_9 Ni2_9 1_555 1_555
C13_9 N9_9 1_555 1_555
H9_9 C13_9 1_555 1_555
C14_9 C13_9 1_555 1_555
H10_9 C14_9 1_555 1_555
C15_9 C14_9 1_555 1_555
H11_7 C15_9 1_555 1_555
C16_7 C15_9 1_555 1_555
H12_7 C16_7 1_555 1_555
C17_9 N9_9 1_555 1_555
C16_7 C17_9 1_555 1_555
C17_9 C18_9 1_555 1_555
N3_9 C6_9 1_555 1_555
N4_9 Ni2_10 1_555 1_555
C1_9 N4_9 1_555 1_555
H1_9 C1_9 1_555 1_555
C2_9 C1_9 1_555 1_555
H2_7 C2_9 1_555 1_555
C3_9 C2_9 1_555 1_555
H3_9 C3_9 1_555 1_555
C4_9 C3_9 1_555 1_555
H4_9 C4_9 1_555 1_555
C5_9 N4_9 1_555 1_555
C6_9 C5_9 1_555 1_555
C4_9 C5_9 1_555 1_555
H12_8 C16_8 1_555 1_555
C22_8 C19_8 1_555 1_555
C23_8 C22_8 1_555 1_555
H15_8 C23_8 1_555 1_555
N8_8 C19_8 1_555 1_555
H12_9 C16_9 1_555 1_555
C22_9 C19_9 1_555 1_555
C23_9 C22_9 1_555 1_555
H15_9 C23_9 1_555 1_555
N8_9 C19_9 1_555 1_555

#END
