
###############################################################################
#
# This file contains modified crystal structure data generated from the
# MOF subset of the Cambridge Structural Database (CSD) v543 
# hosted by the Cambridge Crystallographic Data Centre (CCDC).
#
# This work is licensed under the Creative Commons
# Attribution-NonCommercial-ShareAlike 4.0 International License.
# To view a copy of this license, visit
# http://creativecommons.org/licenses/by-nc-sa/4.0/
# or send a letter to
# Creative Commons, PO Box 1866, Mountain View, CA 94042, USA.
#
# CIF created using the CSD Python API on 29 September 2022
# The structure has been converted into the P1 space group
# The structure has a 3D framework
# The original CSD entry ILIMUN is in the triclinic crystal system
# The framework has been calculated to contain at least 10.0% void space
# The void calculation uses a probe of radius 1.32A, grid spacing 0.4
#
###############################################################################

data_ILIMUN
_chemical_formula_moiety         '(C72 H48 N30 Ni8)n'
_symmetry_cell_setting           triclinic
_symmetry_space_group_name_H-M   'P 1'
_symmetry_Int_Tables_number      1
_space_group_name_Hall           'P 1'
loop_
_symmetry_equiv_pos_site_id
_symmetry_equiv_pos_as_xyz
1 x,y,z
_cell_length_a                   9.113(2)
_cell_length_b                   15.904(4)
_cell_length_c                   16.014(5)
_cell_angle_alpha                73.488(5)
_cell_angle_beta                 74.016(5)
_cell_angle_gamma                76.264(5)
_cell_volume                     2107.07
loop_
_atom_site_label
_atom_site_type_symbol
_atom_site_fract_x
_atom_site_fract_y
_atom_site_fract_z
Ni7 Ni -0.0000 0.0000 0.0000
Ni1 Ni 0.5000 0.0000 0.5000
N4 N 0.6466(6) 0.0958(3) 0.4335(3)
N6 N 0.1812(7) 0.0180(4) 0.1350(3)
C1 C 0.6093(9) 0.1852(5) 0.4156(4)
H1 H 0.5062 0.2104 0.4337
C2 C 0.7123(10) 0.2404(5) 0.3730(5)
H2 H 0.6796 0.3018 0.3618
C3 C 0.8647(11) 0.2057(5) 0.3466(6)
H3 H 0.9381 0.2423 0.3167
C4 C 0.9061(10) 0.1137(5) 0.3660(5)
C5 C 0.7970(8) 0.0618(4) 0.4077(4)
C23 C 0.3146(8) 0.0557(5) 0.2613(4)
H15 H 0.2435 0.1013 0.2361
C24 C 0.3584(8) 0.0618(5) 0.3349(4)
H16 H 0.3159 0.1116 0.3585
N21 N 0.2106(6) 0.1702(3) 0.5121(3)
N22 N 0.2806(6) 0.0822(3) 0.5271(3)
N23 N 0.0259(6) 0.0841(4) 0.5857(4)
C54 C 0.1679(8) 0.0357(4) 0.5700(4)
C55 C 0.0603(8) 0.1668(4) 0.5486(4)
H38 H 0.0621 0.3422 0.4867
N27 N 0.8314(7) 0.0107(4) 0.9344(3)
N28 N 0.6052(7) 0.0820(4) 0.9021(4)
N30 N 0.5381(6) 0.0032(4) 0.6264(3)
C66 C 0.7027(9) 0.0688(5) 0.9548(4)
C67 C 0.6811(8) 0.0272(5) 0.8483(4)
C68 C 0.4767(8) 0.0714(5) 0.6645(4)
H45 H 0.4029 0.1155 0.6399
C69 C 0.5151(8) 0.0806(5) 0.7376(4)
H46 H 0.4675 0.1295 0.7620
C70 C 0.6259(8) 0.0163(5) 0.7749(4)
Ni7_2 Ni 1.0000 0.0000 1.0000
H4 H 0.0094 0.0876 0.3503
Ni7_3 Ni -0.0000 0.0000 1.0000
N5 N 0.3078(6) 0.6114(3) 0.4757(3)
C8 C 0.1630(9) 0.6005(5) 0.5029(5)
H5 H 0.1424 0.5432 0.5299
C9 C 0.0386(9) 0.6695(5) 0.4937(5)
C10 C 0.0643(8) 0.7544(4) 0.4559(4)
C11 C 0.2155(8) 0.7660(4) 0.4247(5)
H7 H 0.2397 0.8223 0.3962
C12 C 0.3313(8) 0.6932(5) 0.4361(5)
H8 H 0.4333 0.7025 0.4143
Ni5 Ni 0.5000 0.5000 0.5000
Ni7_4 Ni -0.0000 1.0000 1.0000
N29 N 0.8090(7) 0.0859(4) 0.0660(3)
C61 C 0.7990(10) 0.1195(5) 0.1349(4)
H41 H 0.8841 0.1041 0.1610
C62 C 0.6766(11) 0.1735(6) 0.1691(5)
H42 H 0.6768 0.1947 0.2175
C63 C 0.5489(11) 0.1977(6) 0.1318(6)
H43 H 0.4611 0.2353 0.1545
C64 C 0.5552(10) 0.1641(6) 0.0586(5)
H44 H 0.4715 0.1793 0.0314
C65 C 0.6844(9) 0.1093(5) 0.0281(4)
Ni7_5 Ni 1.0000 0.0000 0.0000
N35 N 0.0753(7) 0.1191(4) 0.9042(3)
Ni7_6 Ni 1.0000 1.0000 0.0000
N9 N 0.1910(7) 0.9141(4) 0.9340(3)
C13 C 0.2010(10) 0.8805(5) 0.8651(4)
H9 H 0.1159 0.8959 0.8390
C14 C 0.3234(11) 0.8265(6) 0.8309(5)
H10 H 0.3232 0.8053 0.7825
C15 C 0.4511(11) 0.8023(6) 0.8682(6)
H11 H 0.5389 0.7647 0.8455
C16 C 0.4448(10) 0.8359(6) 0.9414(5)
H12 H 0.5285 0.8207 0.9686
C17 C 0.3156(9) 0.8907(5) 0.9719(4)
N25 N 0.6922(6) 0.3886(3) 0.5243(3)
C56 C 0.8370(9) 0.3995(5) 0.4971(5)
H37 H 0.8576 0.4568 0.4701
C57 C 0.9614(9) 0.3305(5) 0.5063(5)
C58 C 0.9357(8) 0.2456(4) 0.5441(4)
C59 C 0.7845(8) 0.2340(4) 0.5753(5)
H39 H 0.7603 0.1777 0.6038
C60 C 0.6687(8) 0.3068(5) 0.5639(5)
H40 H 0.5667 0.2975 0.5857
N11 N 0.7185(6) 0.6328(3) 0.3566(3)
N12 N 0.6370(6) 0.5638(3) 0.3841(3)
N13 N 0.6742(7) 0.6054(4) 0.2359(3)
N14 N 0.4536(6) 0.4476(3) 0.4016(3)
N15 N 0.9247(7) 0.8809(4) 0.0958(3)
C25 C 0.3625(8) 0.3882(5) 0.4139(5)
H17 H 0.3155 0.3622 0.4720
C26 C 0.3359(10) 0.3641(5) 0.3449(5)
H18 H 0.2721 0.3226 0.3556
C27 C 0.4059(10) 0.4028(6) 0.2583(6)
H19 H 0.3906 0.3872 0.2099
C28 C 0.4981(10) 0.4642(5) 0.2451(5)
H20 H 0.5454 0.4911 0.1874
C29 C 0.5200(8) 0.4857(5) 0.3170(4)
C30 C 0.6134(8) 0.5504(4) 0.3101(4)
C31 C 0.7374(8) 0.6546(4) 0.2689(4)
C32 C 0.9263(8) 0.8570(5) 0.1827(4)
H21 H 0.9688 0.8916 0.2048
C33 C 0.8686(8) 0.7840(5) 0.2416(4)
H22 H 0.8713 0.7709 0.3016
C34 C 0.8072(8) 0.7311(5) 0.2106(4)
C35 C 0.8054(9) 0.7556(5) 0.1207(4)
H23 H 0.7634 0.7224 0.0968
C36 C 0.8655(10) 0.8286(5) 0.0675(5)
H24 H 0.8649 0.8426 0.0071
N16 N 0.2815(6) 0.3672(3) 0.6434(3)
N17 N 0.3630(6) 0.4362(3) 0.6159(3)
N18 N 0.3258(7) 0.3946(4) 0.7641(3)
N19 N 0.5464(6) 0.5524(3) 0.5984(3)
C37 C 0.6375(8) 0.6118(5) 0.5861(5)
H25 H 0.6845 0.6378 0.5280
C38 C 0.6641(10) 0.6359(5) 0.6551(5)
H26 H 0.7279 0.6774 0.6444
C39 C 0.5941(10) 0.5972(6) 0.7417(6)
H27 H 0.6094 0.6128 0.7901
C40 C 0.5019(10) 0.5358(5) 0.7549(5)
H28 H 0.4546 0.5089 0.8126
C41 C 0.4800(8) 0.5143(5) 0.6830(4)
C42 C 0.3866(8) 0.4496(4) 0.6899(4)
C43 C 0.2626(8) 0.3454(4) 0.7311(4)
C44 C 0.0737(8) 0.1430(5) 0.8173(4)
H29 H 0.0312 0.1084 0.7952
C45 C 0.1314(8) 0.2160(5) 0.7584(4)
H30 H 0.1287 0.2291 0.6984
C46 C 0.1928(8) 0.2689(5) 0.7894(4)
C47 C 0.1946(9) 0.2444(5) 0.8793(4)
H31 H 0.2366 0.2776 0.9032
C48 C 0.1345(10) 0.1714(5) 0.9325(5)
H32 H 0.1351 0.1574 0.9929
H36 H 0.9906 0.9124 0.6497
Ni7_7 Ni -0.0000 1.0000 0.0000
Ni1_2 Ni 0.5000 1.0000 0.5000
N1 N 0.7894(6) 0.8298(3) 0.4879(3)
N2 N 0.7194(6) 0.9178(3) 0.4729(3)
N3 N 0.9741(6) 0.9159(4) 0.4143(4)
N7 N 0.1686(7) 0.9893(4) 0.0656(3)
N8 N 0.3948(7) 0.9180(4) 0.0979(4)
N10 N 0.4619(6) 0.9968(4) 0.3736(3)
C6 C 0.8321(8) 0.9643(4) 0.4300(4)
C7 C 0.9397(8) 0.8332(4) 0.4514(4)
H6 H 0.9379 0.6578 0.5133
C18 C 0.2973(9) 0.9312(5) 0.0452(4)
C19 C 0.3189(8) 0.9728(5) 0.1517(4)
C20 C 0.5233(8) 0.9286(5) 0.3355(4)
H13 H 0.5971 0.8845 0.3601
C21 C 0.4849(8) 0.9194(5) 0.2624(4)
H14 H 0.5325 0.8705 0.2380
C22 C 0.3741(8) 0.9837(5) 0.2251(4)
N24 N 0.3534(6) 0.9042(3) 0.5665(3)
C49 C 0.3907(9) 0.8148(5) 0.5844(4)
H33 H 0.4938 0.7896 0.5663
C50 C 0.2877(10) 0.7596(5) 0.6270(5)
H34 H 0.3204 0.6982 0.6382
C51 C 0.1353(11) 0.7943(5) 0.6534(6)
H35 H 0.0619 0.7577 0.6833
C52 C 0.0939(10) 0.8863(5) 0.6340(5)
C53 C 0.2030(8) 0.9382(4) 0.5923(4)
N26 N 0.8188(7) 0.9820(4) 0.8650(3)
C71 C 0.6854(8) 0.9443(5) 0.7387(4)
H47 H 0.7565 0.8987 0.7639
C72 C 0.6416(8) 0.9382(5) 0.6651(4)
H48 H 0.6841 0.8884 0.6415
Ni7_8 Ni 1.0000 1.0000 1.0000
loop_
_geom_bond_atom_site_label_1
_geom_bond_atom_site_label_2
_geom_bond_site_symmetry_1
_geom_bond_site_symmetry_2
N4 Ni1 1_555 1_555
C1 N4 1_555 1_555
H1 C1 1_555 1_555
C2 C1 1_555 1_555
H2 C2 1_555 1_555
C3 C2 1_555 1_555
H3 C3 1_555 1_555
C4 C3 1_555 1_555
C5 N4 1_555 1_555
H15 C23 1_555 1_555
H16 C24 1_555 1_555
N21 N22 1_555 1_555
N22 Ni1 1_555 1_555
N23 C54 1_555 1_555
C54 N22 1_555 1_555
C55 N21 1_555 1_555
N27 C66 1_555 1_555
N28 C66 1_555 1_555
N30 Ni1 1_555 1_555
C68 N30 1_555 1_555
H45 C68 1_555 1_555
C69 C68 1_555 1_555
H46 C69 1_555 1_555
C70 C67 1_555 1_555
Ni7_2 N27 1_555 1_555
C4 C5 1_555 1_555
C23 C24 1_555 1_555
N23 C55 1_555 1_555
N28 C67 1_555 1_555
C69 C70 1_555 1_555
N5 C8 1_555 1_555
C8 H5 1_555 1_555
C9 C8 1_555 1_555
C11 C10 1_555 1_555
H7 C11 1_555 1_555
C12 N5 1_555 1_555
H8 C12 1_555 1_555
Ni5 N5 1_555 1_555
C9 C10 1_555 1_555
C11 C12 1_555 1_555
N29 C61 1_555 1_555
C61 H41 1_555 1_555
C62 C61 1_555 1_555
H42 C62 1_555 1_555
C63 C62 1_555 1_555
H43 C63 1_555 1_555
C64 C63 1_555 1_555
H44 C64 1_555 1_555
C65 N29 1_555 1_555
N29 Ni7_5 1_555 1_555
C64 C65 1_555 1_555
N35 Ni7_3 1_555 1_555
N9 Ni7_4 1_555 1_555
C13 N9 1_555 1_555
H9 C13 1_555 1_555
C14 C13 1_555 1_555
H10 C14 1_555 1_555
C15 C14 1_555 1_555
H11 C15 1_555 1_555
C16 C15 1_555 1_555
H12 C16 1_555 1_555
C17 N9 1_555 1_555
C16 C17 1_555 1_555
N25 C56 1_555 1_555
C56 H37 1_555 1_555
C57 C56 1_555 1_555
C59 C58 1_555 1_555
H39 C59 1_555 1_555
C60 N25 1_555 1_555
H40 C60 1_555 1_555
Ni5 N25 1_555 1_555
C57 C58 1_555 1_555
C59 C60 1_555 1_555
Ni5 N12 1_555 1_555
N11 N12 1_555 1_555
N12 C30 1_555 1_555
N13 C30 1_555 1_555
N14 Ni5 1_555 1_555
N15 Ni7_6 1_555 1_555
C25 N14 1_555 1_555
H17 C25 1_555 1_555
C26 C25 1_555 1_555
H18 C26 1_555 1_555
C27 C26 1_555 1_555
H19 C27 1_555 1_555
C28 C27 1_555 1_555
H20 C28 1_555 1_555
C29 N14 1_555 1_555
C30 C29 1_555 1_555
C31 N11 1_555 1_555
C32 N15 1_555 1_555
H21 C32 1_555 1_555
C33 C32 1_555 1_555
H22 C33 1_555 1_555
C34 C31 1_555 1_555
C35 C34 1_555 1_555
H23 C35 1_555 1_555
C36 N15 1_555 1_555
H24 C36 1_555 1_555
N16 N17 1_555 1_555
N17 Ni5 1_555 1_555
N18 C42 1_555 1_555
N19 Ni5 1_555 1_555
N35 C44 1_555 1_555
C37 N19 1_555 1_555
H25 C37 1_555 1_555
C38 C37 1_555 1_555
H26 C38 1_555 1_555
C39 C38 1_555 1_555
H27 C39 1_555 1_555
C40 C39 1_555 1_555
H28 C40 1_555 1_555
C41 N19 1_555 1_555
C42 N17 1_555 1_555
C43 N16 1_555 1_555
C44 H29 1_555 1_555
C45 C44 1_555 1_555
H30 C45 1_555 1_555
C46 C43 1_555 1_555
C47 C46 1_555 1_555
H31 C47 1_555 1_555
C48 N35 1_555 1_555
H32 C48 1_555 1_555
N13 C31 1_555 1_555
C28 C29 1_555 1_555
C33 C34 1_555 1_555
C35 C36 1_555 1_555
N18 C43 1_555 1_555
C40 C41 1_555 1_555
C41 C42 1_555 1_555
C45 C46 1_555 1_555
C47 C48 1_555 1_555
Ni1_2 N2 1_555 1_555
Ni7_7 N7 1_555 1_555
N1 N2 1_555 1_555
N2 C6 1_555 1_555
N3 C6 1_555 1_555
N7 C18 1_555 1_555
N8 C18 1_555 1_555
N10 Ni1_2 1_555 1_555
C7 N1 1_555 1_555
C20 N10 1_555 1_555
H13 C20 1_555 1_555
C21 C20 1_555 1_555
H14 C21 1_555 1_555
C22 C19 1_555 1_555
N24 Ni1_2 1_555 1_555
C49 N24 1_555 1_555
H33 C49 1_555 1_555
C50 C49 1_555 1_555
H34 C50 1_555 1_555
C51 C50 1_555 1_555
H35 C51 1_555 1_555
C52 C51 1_555 1_555
C53 N24 1_555 1_555
H47 C71 1_555 1_555
H48 C72 1_555 1_555
N3 C7 1_555 1_555
N8 C19 1_555 1_555
C21 C22 1_555 1_555
C52 C53 1_555 1_555
C71 C72 1_555 1_555

#END
