
###############################################################################
#
# This file contains modified crystal structure data generated from the
# MOF subset of the Cambridge Structural Database (CSD) v543 
# hosted by the Cambridge Crystallographic Data Centre (CCDC).
#
# This work is licensed under the Creative Commons
# Attribution-NonCommercial-ShareAlike 4.0 International License.
# To view a copy of this license, visit
# http://creativecommons.org/licenses/by-nc-sa/4.0/
# or send a letter to
# Creative Commons, PO Box 1866, Mountain View, CA 94042, USA.
#
# CIF created using the CSD Python API on 29 September 2022
# The structure has been converted into the P1 space group
# The structure has a 3D framework
# The original CSD entry ILIQIF is in the triclinic crystal system
# The framework has been calculated to contain at least 10.0% void space
# The void calculation uses a probe of radius 1.32A, grid spacing 0.4
#
###############################################################################

data_ILIQIF
_chemical_formula_moiety         '(C28 H24 Cd1 N2 O8)n'
_symmetry_cell_setting           triclinic
_symmetry_space_group_name_H-M   'P 1'
_symmetry_Int_Tables_number      1
_space_group_name_Hall           'P 1'
loop_
_symmetry_equiv_pos_site_id
_symmetry_equiv_pos_as_xyz
1 x,y,z
_cell_length_a                   9.45(3)
_cell_length_b                   9.75(2)
_cell_length_c                   10.29(2)
_cell_angle_alpha                96.11(3)
_cell_angle_beta                 90.40(9)
_cell_angle_gamma                116.54(8)
_cell_volume                     841.782
loop_
_atom_site_label
_atom_site_type_symbol
_atom_site_fract_x
_atom_site_fract_y
_atom_site_fract_z
_atom_site_U_iso_or_equiv
_atom_site_thermal_displace_type
Cd1 Cd 0.23604(8) 0.05758(8) 0.02924(6) 0.0208 Uani
O2 O 0.3054(8) 0.1250(8) 0.2604(6) 0.0349 Uani
C1 C 0.364(1) 0.030(1) 0.2598(8) 0.0245 Uani
C2 C 0.433(1) 0.0125(10) 0.3832(8) 0.0225 Uani
C3 C 0.444(1) 0.106(1) 0.4987(9) 0.0373 Uani
H3 H 0.3975 0.1723 0.4978 0.0474 Uiso
O7 O 0.6373(7) 0.0488(7) 0.8460(6) 0.0261 Uani
C18 C 0.511(1) 0.093(1) 0.6127(9) 0.0370 Uani
H14 H 0.5207 0.1570 0.6919 0.0462 Uiso
O17 O 0.2225(7) 0.2818(7) 0.0500(6) 0.0308 Uani
O1 O 0.4876(7) 0.2086(8) 0.9568(6) 0.0336 Uani
H1 H 0.5762 0.1984 0.9860 0.0370 Uiso
H2 H 0.4986 0.2800 0.8956 0.0370 Uiso
O15 O 0.0160(7) 0.1304(7) 0.9185(6) 0.0297 Uani
O3 O 0.3627(7) 0.9512(7) 0.1540(6) 0.0261 Uani
C4 C 0.489(1) 0.907(1) 0.3873(9) 0.0370 Uani
C7 C 0.059(1) 0.6173(10) 0.1030(8) 0.0243 Uani
C8 C 0.107(1) 0.505(1) 0.0940(9) 0.0252 Uani
H4 H 0.4793 0.8430 0.3081 0.0462 Uiso
H5 H 0.0996 0.7002 0.1744 0.0263 Uiso
H6 H 0.1838 0.5102 0.1587 0.0301 Uiso
O6 O 0.6946(8) 0.8750(8) 0.7396(6) 0.0349 Uani
C15 C 0.636(1) 0.970(1) 0.7402(8) 0.0245 Uani
C16 C 0.567(1) 0.9875(10) 0.6168(8) 0.0225 Uani
C17 C 0.556(1) 0.894(1) 0.5013(9) 0.0373 Uani
H13 H 0.6025 0.8277 0.5022 0.0474 Uiso
Cd6 Cd 0.76396(8) 0.94242(8) 0.97076(6) 0.0208 Uani
N1 N 0.1886(9) 0.8982(9) 0.8360(7) 0.0258 Uani
C9 C 0.089(1) 0.894(1) 0.7398(9) 0.0384 Uani
C10 C 0.053(1) 0.794(1) 0.6252(9) 0.0433 Uani
C11 C 0.121(1) 0.693(1) 0.6088(9) 0.0333 Uani
C12 C 0.223(1) 0.701(1) 0.7075(10) 0.0315 Uani
C13 C 0.255(1) 0.801(1) 0.8184(9) 0.0274 Uani
C14 C 0.076(1) 0.577(1) 0.4886(10) 0.0478 Uani
H7 H 0.0439 0.9656 0.7484 0.0449 Uiso
H9 H 0.2710 0.6361 0.6979 0.0431 Uiso
H10 H 0.3265 0.8026 0.8872 0.0294 Uiso
H11 H 0.0477 0.6197 0.4167 0.0544 Uiso
H12 H 0.1609 0.5570 0.4647 0.0544 Uiso
C19 C 0.099(1) 0.259(1) 0.9851(9) 0.0238 Uani
C20 C 0.0513(10) 0.3836(10) 0.9915(8) 0.0220 Uani
H18 H 0.0172 0.2045 0.4446 0.0474 Uiso
O4 O 0.9840(7) 0.8696(7) 0.0815(6) 0.0297 Uani
C5 C 0.901(1) 0.741(1) 0.0149(9) 0.0238 Uani
C6 C 0.9487(10) 0.6164(10) 0.0085(8) 0.0220 Uani
O5 O 0.7775(7) 0.7182(7) 0.9500(6) 0.0308 Uani
H8 H 0.9828 0.7955 0.5554 0.0474 Uiso
C21 C 0.941(1) 0.3827(10) 0.8970(8) 0.0243 Uani
C22 C 0.893(1) 0.495(1) 0.9060(9) 0.0252 Uani
H15 H 0.9004 0.2998 0.8256 0.0263 Uiso
H16 H 0.8162 0.4898 0.8413 0.0301 Uiso
N2 N 0.8114(9) 0.1018(9) 0.1640(7) 0.0258 Uani
C23 C 0.911(1) 0.106(1) 0.2602(9) 0.0384 Uani
C24 C 0.947(1) 0.206(1) 0.3748(9) 0.0433 Uani
C25 C 0.879(1) 0.307(1) 0.3912(9) 0.0333 Uani
C26 C 0.777(1) 0.299(1) 0.2925(10) 0.0315 Uani
C27 C 0.745(1) 0.199(1) 0.1816(9) 0.0274 Uani
C28 C 0.924(1) 0.423(1) 0.5114(10) 0.0478 Uani
H17 H 0.9561 0.0344 0.2516 0.0449 Uiso
H19 H 0.7290 0.3639 0.3021 0.0431 Uiso
H20 H 0.6735 0.1974 0.1128 0.0294 Uiso
H21 H 0.9523 0.3803 0.5833 0.0544 Uiso
H22 H 0.8391 0.4430 0.5353 0.0544 Uiso
O10 O 0.5124(7) 0.7914(8) 0.0432(6) 0.0336 Uani
H23 H 0.4238 0.8016 0.0140 0.0370 Uiso
H24 H 0.5014 0.7200 0.1044 0.0370 Uiso
loop_
_atom_site_aniso_label
_atom_site_aniso_U_11
_atom_site_aniso_U_22
_atom_site_aniso_U_33
_atom_site_aniso_U_23
_atom_site_aniso_U_13
_atom_site_aniso_U_12
Cd1 0.0257 0.0208 0.0177 -0.003 -0.0054 0.0133
O2 0.051 0.042 0.024 -0.001 -0.01 0.033
C1 0.024 0.024 0.021 0.011 0 0.005
C2 0.028 0.023 0.018 0.007 -0.003 0.012
C3 0.055 0.05 0.025 0.003 -0.004 0.04
O7 0.028 0.03 0.022 -0.003 -0.007 0.016
C18 0.056 0.044 0.02 -0.002 -0.008 0.032
O17 0.03 0.029 0.041 -0.004 -0.007 0.022
O1 0.022 0.04 0.035 0.007 0.002 0.01
O15 0.03 0.022 0.041 0 0.007 0.016
O3 0.028 0.03 0.022 -0.003 -0.007 0.016
C4 0.056 0.044 0.02 -0.002 -0.008 0.032
C7 0.025 0.017 0.027 -0.001 -0.008 0.007
C8 0.02 0.024 0.032 0.005 -0.007 0.01
O6 0.051 0.042 0.024 -0.001 -0.01 0.033
C15 0.024 0.024 0.021 0.011 0 0.005
C16 0.028 0.023 0.018 0.007 -0.003 0.012
C17 0.055 0.05 0.025 0.003 -0.004 0.04
Cd6 0.0257 0.0208 0.0177 -0.003 -0.0054 0.0133
N1 0.024 0.029 0.02 -0.006 0 0.01
C9 0.053 0.042 0.025 -0.01 -0.013 0.029
C10 0.057 0.048 0.026 -0.015 -0.017 0.029
C11 0.035 0.026 0.028 -0.01 0.004 0.007
C12 0.021 0.03 0.038 -0.007 0.009 0.009
C13 0.018 0.032 0.028 -0.008 -0.004 0.01
C14 0.051 0.046 0.029 -0.017 0.002 0.011
C19 0.021 0.023 0.031 0.003 0.009 0.013
C20 0.018 0.019 0.029 0.005 0.002 0.008
O4 0.03 0.022 0.041 0 0.007 0.016
C5 0.021 0.023 0.031 0.003 0.009 0.013
C6 0.018 0.019 0.029 0.005 0.002 0.008
O5 0.03 0.029 0.041 -0.004 -0.007 0.022
C21 0.025 0.017 0.027 -0.001 -0.008 0.007
C22 0.02 0.024 0.032 0.005 -0.007 0.01
N2 0.024 0.029 0.02 -0.006 0 0.01
C23 0.053 0.042 0.025 -0.01 -0.013 0.029
C24 0.057 0.048 0.026 -0.015 -0.017 0.029
C25 0.035 0.026 0.028 -0.01 0.004 0.007
C26 0.021 0.03 0.038 -0.007 0.009 0.009
C27 0.018 0.032 0.028 -0.008 -0.004 0.01
C28 0.051 0.046 0.029 -0.017 0.002 0.011
O10 0.022 0.04 0.035 0.007 0.002 0.01
loop_
_geom_bond_atom_site_label_1
_geom_bond_atom_site_label_2
_geom_bond_site_symmetry_1
_geom_bond_site_symmetry_2
O2 Cd1 1_555 1_555
C1 O2 1_555 1_555
C2 C1 1_555 1_555
C3 C2 1_555 1_555
H3 C3 1_555 1_555
C18 C3 1_555 1_555
H14 C18 1_555 1_555
O17 Cd1 1_555 1_555
O1 H1 1_555 1_555
H2 O1 1_555 1_555
C8 C7 1_555 1_555
H4 C4 1_555 1_555
H5 C7 1_555 1_555
H6 C8 1_555 1_555
O6 C15 1_555 1_555
C15 C16 1_555 1_555
C16 C17 1_555 1_555
C17 C4 1_555 1_555
H13 C17 1_555 1_555
Cd6 O6 1_555 1_555
C9 N1 1_555 1_555
C10 C9 1_555 1_555
C11 C10 1_555 1_555
C12 C11 1_555 1_555
C13 N1 1_555 1_555
C14 C11 1_555 1_555
H7 C9 1_555 1_555
H9 C12 1_555 1_555
H10 C13 1_555 1_555
H11 C14 1_555 1_555
H12 C14 1_555 1_555
O15 C19 1_555 1_555
C19 C20 1_555 1_555
C12 C13 1_555 1_555
C5 O4 1_555 1_555
C6 C5 1_555 1_555
H15 C21 1_555 1_555
H16 C22 1_555 1_555
N2 C23 1_555 1_555
C23 C24 1_555 1_555
C24 C25 1_555 1_555
C25 C26 1_555 1_555
C26 C27 1_555 1_555
C27 N2 1_555 1_555
H17 C23 1_555 1_555
H19 C26 1_555 1_555
H20 C27 1_555 1_555
H21 C28 1_555 1_555
H22 C28 1_555 1_555
O5 Cd6 1_555 1_555
C21 C22 1_555 1_555
C25 C28 1_555 1_555
H23 O10 1_555 1_555
H24 O10 1_555 1_555

#END
