
###############################################################################
#
# This file contains modified crystal structure data generated from the
# MOF subset of the Cambridge Structural Database (CSD) v543 
# hosted by the Cambridge Crystallographic Data Centre (CCDC).
#
# This work is licensed under the Creative Commons
# Attribution-NonCommercial-ShareAlike 4.0 International License.
# To view a copy of this license, visit
# http://creativecommons.org/licenses/by-nc-sa/4.0/
# or send a letter to
# Creative Commons, PO Box 1866, Mountain View, CA 94042, USA.
#
# CIF created using the CSD Python API on 29 September 2022
# The structure has been converted into the P1 space group
# The structure has a 3D framework
# The original CSD entry ILIXEJ is in the monoclinic crystal system
# The framework has been calculated to contain at least 10.0% void space
# The void calculation uses a probe of radius 1.32A, grid spacing 0.4
#
###############################################################################

data_ILIXEJ
_chemical_formula_moiety         '(C192 H120 Eu8 N48 O44)n'
_symmetry_cell_setting           triclinic
_symmetry_space_group_name_H-M   'P 1'
_symmetry_Int_Tables_number      1
_space_group_name_Hall           'P 1'
loop_
_symmetry_equiv_pos_site_id
_symmetry_equiv_pos_as_xyz
1 x,y,z
_cell_length_a                   28.869(7)
_cell_length_b                   22.218(6)
_cell_length_c                   15.166(4)
_cell_angle_alpha                90
_cell_angle_beta                 103.467(4)
_cell_angle_gamma                90
_cell_volume                     9460.18
loop_
_atom_site_label
_atom_site_type_symbol
_atom_site_fract_x
_atom_site_fract_y
_atom_site_fract_z
C23 C 0.6441(2) 0.0361(3) 0.0817(4)
H11 H 0.646878 0.020329 0.139552
C24 C 0.6752(2) 0.0802(2) 0.0650(4)
H12 H 0.699102 0.093803 0.113025
C25 C 0.6080(2) 0.0160(2) 0.0070(3)
C28 C 0.6825(2) 0.0940(2) 0.4340(3)
C29 C 0.6497(2) 0.1020(2) 0.3540(3)
H14 H 0.646991 0.139060 0.324895
C30 C 0.71335(19) 0.1440(2) 0.4789(3)
C31 C 0.6202(2) 0.0543(3) 0.3162(4)
H15 H 0.598462 0.059939 0.261111
C32 C 0.6856(3) 0.0374(3) 0.4799(4)
H16 H 0.707093 0.032122 0.535364
O6 O 0.73399(13) 0.17581(14) 0.0326(2)
O9 O 0.70944(11) 0.19735(13) 0.4446(2)
O10 O 0.74265(15) 0.13463(16) 0.5537(2)
Eu4 Eu 0.76486(2) 0.23520(2) 0.59190(2)
Eu6 Eu 0.76486(2) 0.26480(2) 0.09190(2)
Eu10 Eu 0.73435(2) 0.24880(2) 0.32594(2)
C20 C 0.7041(2) 0.1545(2) 0.9658(3)
C21 C 0.6720(2) 0.1049(2) 0.9801(3)
C22 C 0.6376(2) 0.0832(2) 0.9075(4)
H10 H 0.635986 0.097881 0.849458
C26 C 0.6056(2) 0.0398(3) 0.9211(4)
H13 H 0.582156 0.026262 0.872145
O3 O 0.69998(15) 0.17462(15) 0.8860(2)
Eu8 Eu 0.73435(2) 0.25120(2) 0.82594(2)
C7 C 0.16329(17) 0.7603(2) 0.0040(3)
C8 C 0.12238(17) 0.7760(2) 0.0435(3)
C9 C 0.1175(2) 0.7554(2) 0.1282(4)
H5 H 0.139272 0.727957 0.160603
C10 C 0.0502(2) 0.8340(3) 0.0279(4)
C11 C 0.0467(2) 0.8152(2) 0.1143(4)
C12 C 0.0809(2) 0.7753(2) 0.1633(4)
H7 H 0.078546 0.762390 0.220414
C27 C 0.5627(2) 0.9479(2) 0.0905(4)
H17 H 0.360408 0.726871 0.009804
C37 C 0.4169(2) 0.7751(2) 0.0702(3)
H19 H 0.417974 0.761211 0.128559
C38 C 0.45048(19) 0.8166(2) 0.0555(3)
C40 C 0.5171(2) 0.8810(2) 0.1427(4)
C41 C 0.5706(2) 0.9369(3) 0.2410(4)
C42 C 0.6226(2) 0.9988(3) 0.3587(4)
C48 C 0.6564(3) 0.9907(3) 0.4410(4)
H24 H 0.659028 0.953436 0.469688
N1 N 0.52794(17) 0.9054(2) 0.0696(3)
N2 N 0.58522(19) 0.9653(2) 0.1725(3)
N7 N 0.01197(17) 0.8364(2) 0.1589(3)
H26 H 0.012279 0.819521 0.210102
N9 N 0.57463(19) 0.9712(2) 0.0139(3)
N10 N 0.48342(18) 0.8368(2) 0.1330(3)
H29 H 0.482203 0.818388 0.182334
N11 N 0.5920(2) 0.9510(2) 0.3273(3)
H30 H 0.586053 0.927456 0.368188
N12 N 0.5373(2) 0.8934(2) 0.2323(3)
O8 O 0.20075(12) 0.73562(14) 0.0523(2)
Eu11 Eu 0.26565(2) 0.74880(2) 0.17406(2)
O18 O 0.29056(11) 0.69735(13) 0.0554(2)
Eu1 Eu 0.23514(2) 0.73520(2) 0.90810(2)
Eu2 Eu 0.26565(2) 0.75120(2) 0.67406(2)
H6 H 0.027556 0.860023 0.994326
C13 C 0.0873(2) 0.8138(3) 0.9932(4)
H8 H 0.089033 0.825433 0.935222
C33 C 0.34007(17) 0.75840(19) 0.8319(4)
C34 C 0.37950(16) 0.7746(2) 0.9121(3)
C35 C 0.3825(2) 0.7548(2) 0.9992(4)
C36 C 0.4499(2) 0.8339(3) 0.9652(4)
H18 H 0.473958 0.858377 0.953552
C39 C 0.4139(2) 0.8144(2) 0.8949(4)
H20 H 0.412339 0.827721 0.836096
H28 H 0.559426 0.956041 0.963218
O4 O 0.34267(14) 0.76986(17) 0.7541(2)
O5 O 0.30266(12) 0.73300(16) 0.8459(2)
O7 O 0.16127(13) 0.77238(17) 0.9228(2)
O13 O 0.18294(15) 0.67163(15) 0.8146(2)
O14 O 0.22494(15) 0.67283(17) 0.7093(3)
O15 O 0.30002(15) 0.67462(15) 0.6140(2)
O16 O 0.26601(13) 0.82419(14) 0.9674(2)
O17 O 0.20075(12) 0.76438(14) 0.5523(2)
O19 O 0.29056(11) 0.80265(13) 0.5554(2)
O20 O 0.25735(15) 0.63463(16) 0.9463(2)
O21 O 0.21621(11) 0.79717(13) 0.7758(2)
O22 O 0.25444(13) 0.85525(14) 0.6998(2)
C1 C 0.77642(17) 0.1511(2) 0.2550(3)
C2 C 0.8405(2) 0.1037(2) 0.1931(4)
H1 H 0.843326 0.139148 0.162221
C3 C 0.80654(19) 0.0986(2) 0.2433(3)
C4 C 0.8020(2) 0.0434(2) 0.2870(4)
H2 H 0.779222 0.039683 0.321148
C5 C 0.8708(3) 0.0550(3) 0.1891(5)
H3 H 0.894687 0.058869 0.157577
C17 C 0.8655(2) 0.0011(3) 0.2315(4)
O11 O 0.78379(11) 0.20283(13) 0.2242(2)
O12 O 0.74556(13) 0.14475(14) 0.3002(2)
C18 C 0.8976(2) 0.0132(2) 0.9023(4)
C19 C 0.9045(2) 0.0347(3) 0.8219(4)
H9 H 0.929513 0.019644 0.799305
C43 C 0.8380(2) 0.1021(2) 0.8065(4)
C44 C 0.8300(2) 0.0788(3) 0.8856(4)
H21 H 0.804422 0.093316 0.906932
C45 C 0.8087(2) 0.1524(2) 0.7564(4)
C46 C 0.8749(2) 0.0784(3) 0.7734(4)
H22 H 0.879851 0.091838 0.718236
C47 C 0.8587(2) 0.0341(3) 0.9347(4)
H23 H 0.852276 0.018591 0.987603
O1 O 0.81706(15) 0.17163(15) 0.6854(2)
O2 O 0.77506(15) 0.17283(17) 0.7907(3)
C1_2 C 0.22358(17) 0.6511(2) 0.2450(3)
C2_2 C 0.1595(2) 0.6037(2) 0.3069(4)
H1_2 H 0.156674 0.639148 0.337779
C3_2 C 0.19346(19) 0.5986(2) 0.2567(3)
C4_2 C 0.1980(2) 0.5434(2) 0.2130(4)
H2_2 H 0.220778 0.539683 0.178852
C5_2 C 0.1292(3) 0.5550(3) 0.3109(5)
H3_2 H 0.105313 0.558869 0.342423
C6 C 0.1695(3) 0.4952(3) 0.2204(4)
H4 H 0.173600 0.458765 0.193066
C14 C 0.0216(2) 0.3792(2) 0.3670(4)
C15 C 0.0784(2) 0.4370(3) 0.3290(4)
C16 C 0.0638(2) 0.4441(2) 0.4677(4)
C17_2 C 0.1345(2) 0.5011(3) 0.2685(4)
C18_2 C 0.1024(2) 0.5132(2) 0.5977(4)
C19_2 C 0.0955(2) 0.5347(3) 0.6781(4)
H9_2 H 0.070487 0.519644 0.700695
C43_2 C 0.1620(2) 0.6021(2) 0.6935(4)
C44_2 C 0.1700(2) 0.5788(3) 0.6144(4)
H21_2 H 0.195578 0.593316 0.593068
C45_2 C 0.1913(2) 0.6524(2) 0.7436(4)
C46_2 C 0.1251(2) 0.5784(3) 0.7266(4)
H22_2 H 0.120149 0.591838 0.781764
C47_2 C 0.1413(2) 0.5341(3) 0.5653(4)
H23_2 H 0.147724 0.518591 0.512397
N3 N 0.02911(19) 0.4028(2) 0.4506(3)
N4 N 0.09000(19) 0.4631(2) 0.4111(3)
N5 N 0.0453(2) 0.3929(2) 0.3026(3)
N6 N 0.0710(2) 0.4686(2) 0.5537(3)
H25 H 0.053004 0.453793 0.586044
N8 N 0.1029(2) 0.4516(2) 0.2657(4)
H27 H 0.098818 0.428532 0.219027
O11_2 O 0.21621(11) 0.70283(13) 0.2758(2)
O12_2 O 0.25444(13) 0.64475(14) 0.1998(2)
Eu5 Eu 0.23514(2) 0.76480(2) 0.40810(2)
C7_2 C 0.83671(17) 0.2603(2) 0.4960(3)
C8_2 C 0.87762(17) 0.2760(2) 0.4565(3)
C9_2 C 0.8825(2) 0.2554(2) 0.3718(4)
H5_2 H 0.860728 0.227957 0.339397
C10_2 C 0.9498(2) 0.3340(3) 0.4721(4)
H6_2 H 0.972444 0.360023 0.505674
C11_2 C 0.9533(2) 0.3152(2) 0.3857(4)
C12_2 C 0.9191(2) 0.2753(2) 0.3367(4)
H7_2 H 0.921454 0.262390 0.279586
C13_2 C 0.9127(2) 0.3138(3) 0.5068(4)
H8_2 H 0.910967 0.325433 0.564778
C20_2 C 0.2959(2) 0.6545(2) 0.5342(3)
C21_2 C 0.3280(2) 0.6049(2) 0.5199(3)
C22_2 C 0.3624(2) 0.5832(2) 0.5925(4)
H10_2 H 0.364014 0.597881 0.650542
C23_2 C 0.3559(2) 0.5361(3) 0.4183(4)
H11_2 H 0.353122 0.520329 0.360448
C24_2 C 0.3248(2) 0.5802(2) 0.4350(4)
H12_2 H 0.300898 0.593803 0.386975
C25_2 C 0.3920(2) 0.5160(2) 0.4930(3)
C26_2 C 0.3944(2) 0.5398(3) 0.5789(4)
H13_2 H 0.417844 0.526262 0.627855
C27_2 C 0.4373(2) 0.4479(2) 0.4095(4)
C28_2 C 0.3175(2) 0.5940(2) 0.0660(3)
C29_2 C 0.3503(2) 0.6020(2) 0.1460(3)
H14_2 H 0.353009 0.639060 0.175105
C30_2 C 0.28665(19) 0.6440(2) 0.0211(3)
C31_2 C 0.3798(2) 0.5543(3) 0.1838(4)
H15_2 H 0.401538 0.559939 0.238889
C32_2 C 0.3144(3) 0.5374(3) 0.0201(4)
C33_2 C 0.65993(17) 0.25840(19) 0.6681(4)
C34_2 C 0.62050(16) 0.2746(2) 0.5879(3)
C35_2 C 0.6175(2) 0.2548(2) 0.5008(4)
H17_2 H 0.639592 0.226871 0.490196
C36_2 C 0.5501(2) 0.3339(3) 0.5348(4)
H18_2 H 0.526042 0.358377 0.546448
C37_2 C 0.5831(2) 0.2751(2) 0.4298(3)
H19_2 H 0.582026 0.261211 0.371441
C38_2 C 0.54952(19) 0.3166(2) 0.4445(3)
C39_2 C 0.5861(2) 0.3144(2) 0.6051(4)
H20_2 H 0.587661 0.327721 0.663904
C40_2 C 0.4829(2) 0.3810(2) 0.3573(4)
C41_2 C 0.4294(2) 0.4369(3) 0.2590(4)
C42_2 C 0.3774(2) 0.4988(3) 0.1413(4)
C48_2 C 0.3436(3) 0.4907(3) 0.0590(4)
H24_2 H 0.340972 0.453436 0.030312
N1_2 N 0.47206(17) 0.4054(2) 0.4304(3)
N2_2 N 0.41478(19) 0.4653(2) 0.3275(3)
N7_2 N 0.98803(17) 0.3364(2) 0.3411(3)
H26_2 H 0.987721 0.319521 0.289898
N9_2 N 0.42537(19) 0.4712(2) 0.4861(3)
H28_2 H 0.440574 0.456041 0.536782
N10_2 N 0.51658(18) 0.3368(2) 0.3670(3)
H29_2 H 0.517797 0.318388 0.317666
N11_2 N 0.4080(2) 0.4510(2) 0.1727(3)
H30_2 H 0.413947 0.427456 0.131812
N12_2 N 0.4627(2) 0.3934(2) 0.2677(3)
O4_2 O 0.65733(14) 0.26986(17) 0.7459(2)
O5_2 O 0.69734(12) 0.23300(16) 0.6541(2)
O6_2 O 0.26601(13) 0.67581(14) 0.4674(2)
O7_2 O 0.83873(13) 0.27238(17) 0.5772(2)
O8_2 O 0.79925(12) 0.23562(14) 0.4477(2)
O16_2 O 0.73399(13) 0.32419(14) 0.5326(2)
O17_2 O 0.79925(12) 0.26438(14) 0.9477(2)
O19_2 O 0.70944(11) 0.30265(13) 0.9446(2)
O21_2 O 0.78379(11) 0.29717(13) 0.7242(2)
O22_2 O 0.74556(13) 0.35525(14) 0.8002(2)
H16_2 H 0.292907 0.532122 0.964636
C18_3 C 0.1024(2) 0.9868(2) 0.0977(4)
C19_3 C 0.0955(2) 0.9653(3) 0.1781(4)
H9_3 H 0.070487 0.980356 0.200695
C43_3 C 0.1620(2) 0.8979(2) 0.1935(4)
C44_3 C 0.1700(2) 0.9212(3) 0.1144(4)
H21_3 H 0.195578 0.906684 0.093068
C45_3 C 0.1913(2) 0.8476(2) 0.2436(4)
C46_3 C 0.1251(2) 0.9216(3) 0.2266(4)
H22_3 H 0.120149 0.908162 0.281764
C47_3 C 0.1413(2) 0.9659(3) 0.0653(4)
H23_3 H 0.147724 0.981409 0.012397
O1_2 O 0.18294(15) 0.82837(15) 0.3146(2)
O2_2 O 0.22494(15) 0.82717(17) 0.2093(3)
C1_3 C 0.22358(17) 0.8489(2) 0.7450(3)
C2_3 C 0.1595(2) 0.8963(2) 0.8069(4)
H1_3 H 0.156674 0.860852 0.837779
C3_3 C 0.19346(19) 0.9014(2) 0.7567(3)
C4_3 C 0.1980(2) 0.9566(2) 0.7130(4)
H2_3 H 0.220778 0.960317 0.678852
C5_3 C 0.1292(3) 0.9450(3) 0.8109(5)
H3_3 H 0.105313 0.941131 0.842423
C17_3 C 0.1345(2) 0.9989(3) 0.7685(4)
H6_3 H 0.972444 0.139977 0.005674
C13_3 C 0.9127(2) 0.1862(3) 0.0068(4)
H8_3 H 0.910967 0.174567 0.064778
C33_3 C 0.65993(17) 0.24160(19) 0.1681(4)
C34_3 C 0.62050(16) 0.2254(2) 0.0879(3)
C35_3 C 0.6175(2) 0.2452(2) 0.0008(4)
C36_3 C 0.5501(2) 0.1661(3) 0.0348(4)
H18_3 H 0.526042 0.141623 0.046448
C39_3 C 0.5861(2) 0.1856(2) 0.1051(4)
H20_3 H 0.587661 0.172279 0.163904
H28_3 H 0.440574 0.043959 0.036782
O4_3 O 0.65733(14) 0.23014(17) 0.2459(2)
O5_3 O 0.69734(12) 0.26700(16) 0.1541(2)
O7_3 O 0.83873(13) 0.22762(17) 0.0772(2)
O13_2 O 0.81706(15) 0.32837(15) 0.1854(2)
O14_2 O 0.77506(15) 0.32717(17) 0.2907(3)
O15_2 O 0.69998(15) 0.32538(15) 0.3860(2)
O20_2 O 0.74265(15) 0.36537(16) 0.0537(2)
C7_3 C 0.83671(17) 0.2397(2) 0.9960(3)
C8_3 C 0.87762(17) 0.2240(2) 0.9565(3)
C9_3 C 0.8825(2) 0.2446(2) 0.8718(4)
H5_3 H 0.860728 0.272043 0.839397
C10_3 C 0.9498(2) 0.1660(3) 0.9721(4)
C11_3 C 0.9533(2) 0.1848(2) 0.8857(4)
C12_3 C 0.9191(2) 0.2247(2) 0.8367(4)
H7_3 H 0.921454 0.237610 0.779586
C27_3 C 0.4373(2) 0.0521(2) 0.9095(4)
H17_3 H 0.639592 0.273129 0.990196
C37_3 C 0.5831(2) 0.2249(2) 0.9298(3)
H19_3 H 0.582026 0.238789 0.871441
C38_3 C 0.54952(19) 0.1834(2) 0.9445(3)
C40_3 C 0.4829(2) 0.1190(2) 0.8573(4)
C41_3 C 0.4294(2) 0.0631(3) 0.7590(4)
C42_3 C 0.3774(2) 0.0012(3) 0.6413(4)
C48_3 C 0.3436(3) 0.0093(3) 0.5590(4)
H24_3 H 0.340972 0.046564 0.530312
N1_3 N 0.47206(17) 0.0946(2) 0.9304(3)
N2_3 N 0.41478(19) 0.0347(2) 0.8275(3)
N7_3 N 0.98803(17) 0.1636(2) 0.8411(3)
H26_3 H 0.987721 0.180479 0.789898
N9_3 N 0.42537(19) 0.0288(2) 0.9861(3)
N10_3 N 0.51658(18) 0.1632(2) 0.8670(3)
H29_3 H 0.517797 0.181612 0.817666
N11_3 N 0.4080(2) 0.0490(2) 0.6727(3)
H30_3 H 0.413947 0.072544 0.631812
N12_3 N 0.4627(2) 0.1066(2) 0.7677(3)
C20_3 C 0.2959(2) 0.8455(2) 0.0342(3)
C21_3 C 0.3280(2) 0.8951(2) 0.0199(3)
C22_3 C 0.3624(2) 0.9168(2) 0.0925(4)
H10_3 H 0.364014 0.902119 0.150542
C26_3 C 0.3944(2) 0.9602(3) 0.0789(4)
H13_3 H 0.417844 0.973738 0.127855
O3_2 O 0.30002(15) 0.82538(15) 0.1140(2)
C23_3 C 0.3559(2) 0.9639(3) 0.9183(4)
H11_3 H 0.353122 0.979671 0.860448
C24_3 C 0.3248(2) 0.9198(2) 0.9350(4)
H12_3 H 0.300898 0.906197 0.886975
C25_3 C 0.3920(2) 0.9840(2) 0.9930(3)
C28_3 C 0.3175(2) 0.9060(2) 0.5660(3)
C29_3 C 0.3503(2) 0.8980(2) 0.6460(3)
H14_3 H 0.353009 0.860940 0.675105
C30_3 C 0.28665(19) 0.8560(2) 0.5211(3)
C31_3 C 0.3798(2) 0.9457(3) 0.6838(4)
H15_3 H 0.401538 0.940061 0.738889
C32_3 C 0.3144(3) 0.9626(3) 0.5201(4)
H16_3 H 0.292907 0.967878 0.464636
O10_2 O 0.25735(15) 0.86537(16) 0.4463(2)
H16_4 H 0.707093 0.467878 0.035364
C7_4 C 0.16329(17) 0.7397(2) 0.5040(3)
C8_4 C 0.12238(17) 0.7240(2) 0.5435(3)
C9_4 C 0.1175(2) 0.7446(2) 0.6282(4)
H5_4 H 0.139272 0.772043 0.660603
C10_4 C 0.0502(2) 0.6660(3) 0.5279(4)
H6_4 H 0.027556 0.639977 0.494326
C11_4 C 0.0467(2) 0.6848(2) 0.6143(4)
C12_4 C 0.0809(2) 0.7247(2) 0.6633(4)
H7_4 H 0.078546 0.737610 0.720414
C13_4 C 0.0873(2) 0.6862(3) 0.4932(4)
H8_4 H 0.089033 0.674567 0.435222
C20_4 C 0.7041(2) 0.3455(2) 0.4658(3)
C21_4 C 0.6720(2) 0.3951(2) 0.4801(3)
C22_4 C 0.6376(2) 0.4168(2) 0.4075(4)
H10_4 H 0.635986 0.402119 0.349458
C23_4 C 0.6441(2) 0.4639(3) 0.5817(4)
H11_4 H 0.646878 0.479671 0.639552
C24_4 C 0.6752(2) 0.4198(2) 0.5650(4)
H12_4 H 0.699102 0.406197 0.613025
C25_4 C 0.6080(2) 0.4840(2) 0.5070(3)
C26_4 C 0.6056(2) 0.4602(3) 0.4211(4)
H13_4 H 0.582156 0.473738 0.372145
C27_4 C 0.5627(2) 0.5521(2) 0.5905(4)
C28_4 C 0.6825(2) 0.4060(2) 0.9340(3)
C29_4 C 0.6497(2) 0.3980(2) 0.8540(3)
H14_4 H 0.646991 0.360940 0.824895
C30_4 C 0.71335(19) 0.3560(2) 0.9789(3)
C31_4 C 0.6202(2) 0.4457(3) 0.8162(4)
H15_4 H 0.598462 0.440061 0.761111
C32_4 C 0.6856(3) 0.4626(3) 0.9799(4)
C33_4 C 0.34007(17) 0.74160(19) 0.3319(4)
C34_4 C 0.37950(16) 0.7254(2) 0.4121(3)
C35_4 C 0.3825(2) 0.7452(2) 0.4992(4)
H17_4 H 0.360408 0.773129 0.509804
C36_4 C 0.4499(2) 0.6661(3) 0.4652(4)
H18_4 H 0.473958 0.641623 0.453552
C37_4 C 0.4169(2) 0.7249(2) 0.5702(3)
H19_4 H 0.417974 0.738789 0.628559
C38_4 C 0.45048(19) 0.6834(2) 0.5555(3)
C39_4 C 0.4139(2) 0.6856(2) 0.3949(4)
H20_4 H 0.412339 0.672279 0.336096
C40_4 C 0.5171(2) 0.6190(2) 0.6427(4)
C41_4 C 0.5706(2) 0.5631(3) 0.7410(4)
C42_4 C 0.6226(2) 0.5012(3) 0.8587(4)
C48_4 C 0.6564(3) 0.5093(3) 0.9410(4)
H24_4 H 0.659028 0.546564 0.969688
N1_4 N 0.52794(17) 0.5946(2) 0.5696(3)
N2_4 N 0.58522(19) 0.5347(2) 0.6725(3)
N7_4 N 0.01197(17) 0.6636(2) 0.6589(3)
H26_4 H 0.012279 0.680479 0.710102
N9_4 N 0.57463(19) 0.5288(2) 0.5139(3)
H28_4 H 0.559426 0.543959 0.463218
N10_4 N 0.48342(18) 0.6632(2) 0.6330(3)
H29_4 H 0.482203 0.681612 0.682334
N11_4 N 0.5920(2) 0.5490(2) 0.8273(3)
H30_4 H 0.586053 0.572544 0.868188
N12_4 N 0.5373(2) 0.6066(2) 0.7323(3)
O4_4 O 0.34267(14) 0.73014(17) 0.2541(2)
O5_4 O 0.30266(12) 0.76700(16) 0.3459(2)
O7_4 O 0.16127(13) 0.72762(17) 0.4228(2)
C1_4 C 0.77642(17) 0.3489(2) 0.7550(3)
C2_4 C 0.8405(2) 0.3963(2) 0.6931(4)
H1_4 H 0.843326 0.360852 0.662221
C3_4 C 0.80654(19) 0.4014(2) 0.7433(3)
C4_4 C 0.8020(2) 0.4566(2) 0.7870(4)
H2_4 H 0.779222 0.460317 0.821148
C5_4 C 0.8708(3) 0.4450(3) 0.6891(5)
H3_4 H 0.894687 0.441131 0.657577
C6_2 C 0.8305(3) 0.5048(3) 0.7796(4)
H4_2 H 0.826400 0.541235 0.806934
C14_2 C 0.9784(2) 0.6208(2) 0.6330(4)
C15_2 C 0.9216(2) 0.5630(3) 0.6710(4)
C16_2 C 0.9362(2) 0.5559(2) 0.5323(4)
C17_4 C 0.8655(2) 0.4989(3) 0.7315(4)
C18_4 C 0.8976(2) 0.4868(2) 0.4023(4)
C19_4 C 0.9045(2) 0.4653(3) 0.3219(4)
H9_4 H 0.929513 0.480356 0.299305
C43_4 C 0.8380(2) 0.3979(2) 0.3065(4)
C44_4 C 0.8300(2) 0.4212(3) 0.3856(4)
H21_4 H 0.804422 0.406684 0.406932
C45_4 C 0.8087(2) 0.3476(2) 0.2564(4)
C46_4 C 0.8749(2) 0.4216(3) 0.2734(4)
H22_4 H 0.879851 0.408162 0.218236
C47_4 C 0.8587(2) 0.4659(3) 0.4347(4)
H23_4 H 0.852276 0.481409 0.487603
N3_2 N 0.97089(19) 0.5972(2) 0.5494(3)
N4_2 N 0.91000(19) 0.5369(2) 0.5889(3)
N5_2 N 0.9547(2) 0.6071(2) 0.6974(3)
N6_2 N 0.9290(2) 0.5314(2) 0.4463(3)
H25_2 H 0.946996 0.546207 0.413956
N8_2 N 0.8971(2) 0.5484(2) 0.7343(4)
H27_2 H 0.901182 0.571468 0.780973
C6_3 C 0.8305(3) 0.9952(3) 0.2796(4)
H4_3 H 0.826400 0.958765 0.306934
C14_3 C 0.9784(2) 0.8792(2) 0.1330(4)
C15_3 C 0.9216(2) 0.9370(3) 0.1710(4)
C16_3 C 0.9362(2) 0.9441(2) 0.0323(4)
N3_3 N 0.97089(19) 0.9028(2) 0.0494(3)
N4_3 N 0.91000(19) 0.9631(2) 0.0889(3)
N5_3 N 0.9547(2) 0.8929(2) 0.1974(3)
N8_3 N 0.8971(2) 0.9516(2) 0.2343(4)
H27_3 H 0.901182 0.928532 0.280973
N6_3 N 0.9290(2) 0.9686(2) 0.9463(3)
H25_3 H 0.946996 0.953793 0.913956
N6_4 N 0.0710(2) 0.0314(2) 0.0537(3)
H25_4 H 0.053004 0.046207 0.086044
C6_4 C 0.1695(3) 0.0048(3) 0.7204(4)
H4_4 H 0.173600 0.041235 0.693066
C14_4 C 0.0216(2) 0.1208(2) 0.8670(4)
C15_4 C 0.0784(2) 0.0630(3) 0.8290(4)
C16_4 C 0.0638(2) 0.0559(2) 0.9677(4)
N3_4 N 0.02911(19) 0.0972(2) 0.9506(3)
N4_4 N 0.09000(19) 0.0369(2) 0.9111(3)
N5_4 N 0.0453(2) 0.1071(2) 0.8026(3)
N8_4 N 0.1029(2) 0.0484(2) 0.7657(4)
H27_4 H 0.098818 0.071468 0.719027
loop_
_geom_bond_atom_site_label_1
_geom_bond_atom_site_label_2
_geom_bond_site_symmetry_1
_geom_bond_site_symmetry_2
C23 H11 1_555 1_555
H12 C24 1_555 1_555
C25 C23 1_555 1_555
C28 C29 1_555 1_555
C29 H14 1_555 1_555
C30 C28 1_555 1_555
C31 C29 1_555 1_555
H15 C31 1_555 1_555
C32 C28 1_555 1_555
H16 C32 1_555 1_555
O9 C30 1_555 1_555
O10 C30 1_555 1_555
Eu4 O9 1_555 1_555
Eu6 O6 1_555 1_555
Eu10 O9 1_555 1_555
C23 C24 1_555 1_555
O10 Eu4 1_555 1_555
C20 C21 1_555 1_555
C21 C22 1_555 1_555
C22 H10 1_555 1_555
C26 C22 1_555 1_555
H13 C26 1_555 1_555
O3 C20 1_555 1_555
Eu8 O3 1_555 1_555
C7 C8 1_555 1_555
C8 C9 1_555 1_555
C9 H5 1_555 1_555
C11 C10 1_555 1_555
C12 C9 1_555 1_555
H7 C12 1_555 1_555
C27 N1 1_555 1_555
H19 C37 1_555 1_555
C40 N1 1_555 1_555
C41 N2 1_555 1_555
H24 C48 1_555 1_555
N2 C27 1_555 1_555
N7 C11 1_555 1_555
H26 N7 1_555 1_555
N10 C38 1_555 1_555
H29 N10 1_555 1_555
N11 C41 1_555 1_555
H30 N11 1_555 1_555
N12 C40 1_555 1_555
Eu11 O8 1_555 1_555
C7 O8 1_555 1_555
C11 C12 1_555 1_555
C27 N9 1_555 1_555
C37 C38 1_555 1_555
C40 N10 1_555 1_555
C41 N12 1_555 1_555
C42 C48 1_555 1_555
C42 N11 1_555 1_555
Eu11 O18 1_555 1_555
Eu1 O5 1_555 1_555
Eu2 O4 1_555 1_555
H8 C13 1_555 1_555
C33 C34 1_555 1_555
C34 C35 1_555 1_555
C36 H18 1_555 1_555
C39 C34 1_555 1_555
H20 C39 1_555 1_555
O4 C33 1_555 1_555
O5 Eu2 1_555 1_555
O7 Eu1 1_555 1_555
O13 Eu1 1_555 1_555
O14 Eu2 1_555 1_555
O15 Eu2 1_555 1_555
O16 Eu1 1_555 1_555
O17 Eu2 1_555 1_555
O19 Eu2 1_555 1_555
O20 Eu1 1_555 1_555
O21 Eu1 1_555 1_555
O22 Eu2 1_555 1_555
Eu2 O21 1_555 1_555
C33 O5 1_555 1_555
C36 C39 1_555 1_555
C1 C3 1_555 1_555
C2 H1 1_555 1_555
C3 C2 1_555 1_555
C4 C3 1_555 1_555
H2 C4 1_555 1_555
C5 C2 1_555 1_555
H3 C5 1_555 1_555
C17 C5 1_555 1_555
O11 C1 1_555 1_555
O12 C1 1_555 1_555
Eu6 O11 1_555 1_555
Eu10 O11 1_555 1_555
O12 Eu10 1_555 1_555
C18 C19 1_555 1_555
C19 H9 1_555 1_555
C43 C44 1_555 1_555
C44 H21 1_555 1_555
C45 C43 1_555 1_555
C46 C19 1_555 1_555
H22 C46 1_555 1_555
C47 C18 1_555 1_555
H23 C47 1_555 1_555
O1 C45 1_555 1_555
O2 C45 1_555 1_555
Eu4 O1 1_555 1_555
Eu8 O2 1_555 1_555
C43 C46 1_555 1_555
C44 C47 1_555 1_555
C1_2 C3_2 1_555 1_555
C2_2 H1_2 1_555 1_555
C3_2 C2_2 1_555 1_555
C4_2 C3_2 1_555 1_555
H2_2 C4_2 1_555 1_555
C5_2 C2_2 1_555 1_555
H3_2 C5_2 1_555 1_555
C6 C4_2 1_555 1_555
H4 C6 1_555 1_555
C14 N3 1_555 1_555
C15 N4 1_555 1_555
C16 N3 1_555 1_555
C17_2 C5_2 1_555 1_555
C18_2 C19_2 1_555 1_555
C19_2 H9_2 1_555 1_555
C43_2 C44_2 1_555 1_555
C44_2 H21_2 1_555 1_555
C45_2 C43_2 1_555 1_555
C46_2 C19_2 1_555 1_555
H22_2 C46_2 1_555 1_555
C47_2 C18_2 1_555 1_555
H23_2 C47_2 1_555 1_555
N4 C16 1_555 1_555
N5 C14 1_555 1_555
N6 C16 1_555 1_555
H25 N6 1_555 1_555
N8 C15 1_555 1_555
H27 N8 1_555 1_555
O13 C45_2 1_555 1_555
O14 C45_2 1_555 1_555
O11_2 C1_2 1_555 1_555
O12_2 C1_2 1_555 1_555
Eu5 O11_2 1_555 1_555
Eu11 O11_2 1_555 1_555
C6 C17_2 1_555 1_555
C15 N5 1_555 1_555
C17_2 N8 1_555 1_555
C18_2 N6 1_555 1_555
C43_2 C46_2 1_555 1_555
C44_2 C47_2 1_555 1_555
O12_2 Eu11 1_555 1_555
Eu4 O5_2 1_555 1_555
Eu8 O4_2 1_555 1_555
C7_2 C8_2 1_555 1_555
C8_2 C9_2 1_555 1_555
C9_2 H5_2 1_555 1_555
C10_2 H6_2 1_555 1_555
C11_2 C10_2 1_555 1_555
C12_2 C9_2 1_555 1_555
H7_2 C12_2 1_555 1_555
C13_2 C8_2 1_555 1_555
H8_2 C13_2 1_555 1_555
C20_2 C21_2 1_555 1_555
C21_2 C22_2 1_555 1_555
C22_2 H10_2 1_555 1_555
C23_2 H11_2 1_555 1_555
C24_2 C21_2 1_555 1_555
H12_2 C24_2 1_555 1_555
C25_2 C23_2 1_555 1_555
C26_2 C22_2 1_555 1_555
H13_2 C26_2 1_555 1_555
C27_2 N1_2 1_555 1_555
C28_2 C29_2 1_555 1_555
C29_2 H14_2 1_555 1_555
C30_2 C28_2 1_555 1_555
C31_2 C29_2 1_555 1_555
H15_2 C31_2 1_555 1_555
C32_2 C28_2 1_555 1_555
C33_2 C34_2 1_555 1_555
C34_2 C35_2 1_555 1_555
C35_2 H17_2 1_555 1_555
C36_2 H18_2 1_555 1_555
C37_2 C35_2 1_555 1_555
H19_2 C37_2 1_555 1_555
C38_2 C36_2 1_555 1_555
C39_2 C34_2 1_555 1_555
H20_2 C39_2 1_555 1_555
C40_2 N1_2 1_555 1_555
C41_2 N2_2 1_555 1_555
C42_2 C31_2 1_555 1_555
C48_2 C32_2 1_555 1_555
H24_2 C48_2 1_555 1_555
N2_2 C27_2 1_555 1_555
N7_2 C11_2 1_555 1_555
H26_2 N7_2 1_555 1_555
N9_2 C25_2 1_555 1_555
H28_2 N9_2 1_555 1_555
N10_2 C38_2 1_555 1_555
H29_2 N10_2 1_555 1_555
N11_2 C41_2 1_555 1_555
H30_2 N11_2 1_555 1_555
N12_2 C40_2 1_555 1_555
O15 C20_2 1_555 1_555
O4_2 C33_2 1_555 1_555
O5_2 Eu8 1_555 1_555
O6_2 C20_2 1_555 1_555
O7_2 Eu4 1_555 1_555
O8_2 Eu4 1_555 1_555
O18 C30_2 1_555 1_555
Eu5 O6_2 1_555 1_555
Eu10 O8_2 1_555 1_555
O16_2 Eu4 1_555 1_555
O17_2 Eu8 1_555 1_555
O19_2 Eu8 1_555 1_555
O21_2 Eu4 1_555 1_555
O22_2 Eu8 1_555 1_555
Eu8 O21_2 1_555 1_555
C7_2 O7_2 1_555 1_555
C7_2 O8_2 1_555 1_555
C10_2 C13_2 1_555 1_555
C11_2 C12_2 1_555 1_555
C23_2 C24_2 1_555 1_555
C25_2 C26_2 1_555 1_555
C27_2 N9_2 1_555 1_555
C33_2 O5_2 1_555 1_555
C36_2 C39_2 1_555 1_555
C37_2 C38_2 1_555 1_555
C40_2 N10_2 1_555 1_555
C41_2 N12_2 1_555 1_555
C42_2 C48_2 1_555 1_555
C42_2 N11_2 1_555 1_555
C18_3 C19_3 1_555 1_555
C19_3 H9_3 1_555 1_555
C43_3 C44_3 1_555 1_555
C44_3 H21_3 1_555 1_555
C45_3 C43_3 1_555 1_555
C46_3 C19_3 1_555 1_555
H22_3 C46_3 1_555 1_555
C47_3 C18_3 1_555 1_555
H23_3 C47_3 1_555 1_555
O1_2 C45_3 1_555 1_555
O2_2 C45_3 1_555 1_555
Eu5 O1_2 1_555 1_555
Eu11 O2_2 1_555 1_555
C43_3 C46_3 1_555 1_555
C44_3 C47_3 1_555 1_555
C1_3 C3_3 1_555 1_555
C2_3 H1_3 1_555 1_555
C3_3 C2_3 1_555 1_555
C4_3 C3_3 1_555 1_555
H2_3 C4_3 1_555 1_555
C5_3 C2_3 1_555 1_555
H3_3 C5_3 1_555 1_555
C17_3 C5_3 1_555 1_555
O21 C1_3 1_555 1_555
O22 C1_3 1_555 1_555
Eu6 O5_3 1_555 1_555
Eu10 O4_3 1_555 1_555
H8_3 C13_3 1_555 1_555
C33_3 C34_3 1_555 1_555
C34_3 C35_3 1_555 1_555
C36_3 H18_3 1_555 1_555
C39_3 C34_3 1_555 1_555
H20_3 C39_3 1_555 1_555
O4_3 C33_3 1_555 1_555
O5_3 Eu10 1_555 1_555
O7_3 Eu6 1_555 1_555
O13_2 Eu6 1_555 1_555
O14_2 Eu10 1_555 1_555
O15_2 Eu10 1_555 1_555
O20_2 Eu6 1_555 1_555
C33_3 O5_3 1_555 1_555
C36_3 C39_3 1_555 1_555
C7_3 C8_3 1_555 1_555
C8_3 C9_3 1_555 1_555
C9_3 H5_3 1_555 1_555
C11_3 C10_3 1_555 1_555
C12_3 C9_3 1_555 1_555
H7_3 C12_3 1_555 1_555
C27_3 N1_3 1_555 1_555
H19_3 C37_3 1_555 1_555
C40_3 N1_3 1_555 1_555
C41_3 N2_3 1_555 1_555
H24_3 C48_3 1_555 1_555
N2_3 C27_3 1_555 1_555
N7_3 C11_3 1_555 1_555
H26_3 N7_3 1_555 1_555
N10_3 C38_3 1_555 1_555
H29_3 N10_3 1_555 1_555
N11_3 C41_3 1_555 1_555
H30_3 N11_3 1_555 1_555
N12_3 C40_3 1_555 1_555
C7_3 O17_2 1_555 1_555
C11_3 C12_3 1_555 1_555
C27_3 N9_3 1_555 1_555
C37_3 C38_3 1_555 1_555
C40_3 N10_3 1_555 1_555
C41_3 N12_3 1_555 1_555
C42_3 C48_3 1_555 1_555
C42_3 N11_3 1_555 1_555
C20_3 C21_3 1_555 1_555
C21_3 C22_3 1_555 1_555
C22_3 H10_3 1_555 1_555
C26_3 C22_3 1_555 1_555
H13_3 C26_3 1_555 1_555
O3_2 C20_3 1_555 1_555
Eu11 O3_2 1_555 1_555
C23_3 H11_3 1_555 1_555
H12_3 C24_3 1_555 1_555
C25_3 C23_3 1_555 1_555
C28_3 C29_3 1_555 1_555
C29_3 H14_3 1_555 1_555
C30_3 C28_3 1_555 1_555
C31_3 C29_3 1_555 1_555
H15_3 C31_3 1_555 1_555
C32_3 C28_3 1_555 1_555
H16_3 C32_3 1_555 1_555
O19 C30_3 1_555 1_555
O10_2 C30_3 1_555 1_555
Eu5 O19 1_555 1_555
C23_3 C24_3 1_555 1_555
O10_2 Eu5 1_555 1_555
Eu5 O5_4 1_555 1_555
Eu11 O4_4 1_555 1_555
C7_4 C8_4 1_555 1_555
C8_4 C9_4 1_555 1_555
C9_4 H5_4 1_555 1_555
C10_4 H6_4 1_555 1_555
C11_4 C10_4 1_555 1_555
C12_4 C9_4 1_555 1_555
H7_4 C12_4 1_555 1_555
C13_4 C8_4 1_555 1_555
H8_4 C13_4 1_555 1_555
C20_4 C21_4 1_555 1_555
C21_4 C22_4 1_555 1_555
C22_4 H10_4 1_555 1_555
C23_4 H11_4 1_555 1_555
C24_4 C21_4 1_555 1_555
H12_4 C24_4 1_555 1_555
C25_4 C23_4 1_555 1_555
C26_4 C22_4 1_555 1_555
H13_4 C26_4 1_555 1_555
C27_4 N1_4 1_555 1_555
C28_4 C29_4 1_555 1_555
C29_4 H14_4 1_555 1_555
C30_4 C28_4 1_555 1_555
C31_4 C29_4 1_555 1_555
H15_4 C31_4 1_555 1_555
C32_4 C28_4 1_555 1_555
C33_4 C34_4 1_555 1_555
C34_4 C35_4 1_555 1_555
C35_4 H17_4 1_555 1_555
C36_4 H18_4 1_555 1_555
C37_4 C35_4 1_555 1_555
H19_4 C37_4 1_555 1_555
C38_4 C36_4 1_555 1_555
C39_4 C34_4 1_555 1_555
H20_4 C39_4 1_555 1_555
C40_4 N1_4 1_555 1_555
C41_4 N2_4 1_555 1_555
C42_4 C31_4 1_555 1_555
C48_4 C32_4 1_555 1_555
H24_4 C48_4 1_555 1_555
N2_4 C27_4 1_555 1_555
N7_4 C11_4 1_555 1_555
H26_4 N7_4 1_555 1_555
N9_4 C25_4 1_555 1_555
H28_4 N9_4 1_555 1_555
N10_4 C38_4 1_555 1_555
H29_4 N10_4 1_555 1_555
N11_4 C41_4 1_555 1_555
H30_4 N11_4 1_555 1_555
N12_4 C40_4 1_555 1_555
O15_2 C20_4 1_555 1_555
O4_4 C33_4 1_555 1_555
O5_4 Eu11 1_555 1_555
O16_2 C20_4 1_555 1_555
O7_4 Eu5 1_555 1_555
O17 Eu5 1_555 1_555
O19_2 C30_4 1_555 1_555
C7_4 O7_4 1_555 1_555
C7_4 O17 1_555 1_555
C10_4 C13_4 1_555 1_555
C11_4 C12_4 1_555 1_555
C23_4 C24_4 1_555 1_555
C25_4 C26_4 1_555 1_555
C27_4 N9_4 1_555 1_555
C33_4 O5_4 1_555 1_555
C36_4 C39_4 1_555 1_555
C37_4 C38_4 1_555 1_555
C40_4 N10_4 1_555 1_555
C41_4 N12_4 1_555 1_555
C42_4 C48_4 1_555 1_555
C42_4 N11_4 1_555 1_555
C1_4 C3_4 1_555 1_555
C2_4 H1_4 1_555 1_555
C3_4 C2_4 1_555 1_555
C4_4 C3_4 1_555 1_555
H2_4 C4_4 1_555 1_555
C5_4 C2_4 1_555 1_555
H3_4 C5_4 1_555 1_555
C6_2 C4_4 1_555 1_555
H4_2 C6_2 1_555 1_555
C14_2 N3_2 1_555 1_555
C15_2 N4_2 1_555 1_555
C16_2 N3_2 1_555 1_555
C17_4 C5_4 1_555 1_555
C18_4 C19_4 1_555 1_555
C19_4 H9_4 1_555 1_555
C43_4 C44_4 1_555 1_555
C44_4 H21_4 1_555 1_555
C45_4 C43_4 1_555 1_555
C46_4 C19_4 1_555 1_555
H22_4 C46_4 1_555 1_555
C47_4 C18_4 1_555 1_555
H23_4 C47_4 1_555 1_555
N4_2 C16_2 1_555 1_555
N5_2 C14_2 1_555 1_555
N6_2 C16_2 1_555 1_555
H25_2 N6_2 1_555 1_555
N8_2 C15_2 1_555 1_555
H27_2 N8_2 1_555 1_555
O13_2 C45_4 1_555 1_555
O14_2 C45_4 1_555 1_555
O21_2 C1_4 1_555 1_555
O22_2 C1_4 1_555 1_555
C6_2 C17_4 1_555 1_555
C15_2 N5_2 1_555 1_555
C17_4 N8_2 1_555 1_555
C18_4 N6_2 1_555 1_555
C43_4 C46_4 1_555 1_555
C44_4 C47_4 1_555 1_555
H4_3 C6_3 1_555 1_555
C14_3 N3_3 1_555 1_555
C15_3 N4_3 1_555 1_555
C16_3 N3_3 1_555 1_555
N4_3 C16_3 1_555 1_555
N5_3 C14_3 1_555 1_555
N8_3 C15_3 1_555 1_555
H27_3 N8_3 1_555 1_555
C15_3 N5_3 1_555 1_555
H25_3 N6_3 1_555 1_555
H25_4 N6_4 1_555 1_555
H4_4 C6_4 1_555 1_555
C14_4 N3_4 1_555 1_555
C15_4 N4_4 1_555 1_555
C16_4 N3_4 1_555 1_555
N4_4 C16_4 1_555 1_555
N5_4 C14_4 1_555 1_555
N8_4 C15_4 1_555 1_555
H27_4 N8_4 1_555 1_555
C15_4 N5_4 1_555 1_555

#END
