
###############################################################################
#
# This file contains modified crystal structure data generated from the
# MOF subset of the Cambridge Structural Database (CSD) v543 
# hosted by the Cambridge Crystallographic Data Centre (CCDC).
#
# This work is licensed under the Creative Commons
# Attribution-NonCommercial-ShareAlike 4.0 International License.
# To view a copy of this license, visit
# http://creativecommons.org/licenses/by-nc-sa/4.0/
# or send a letter to
# Creative Commons, PO Box 1866, Mountain View, CA 94042, USA.
#
# CIF created using the CSD Python API on 29 September 2022
# The structure has been converted into the P1 space group
# The structure has a 3D framework
# The original CSD entry ILIXIN is in the monoclinic crystal system
# The framework has been calculated to contain at least 10.0% void space
# The void calculation uses a probe of radius 1.32A, grid spacing 0.4
#
###############################################################################

data_ILIXIN
_chemical_formula_moiety         '(C192 H120 Ho8 N48 O44)n'
_symmetry_cell_setting           triclinic
_symmetry_space_group_name_H-M   'P 1'
_symmetry_Int_Tables_number      1
_space_group_name_Hall           'P 1'
loop_
_symmetry_equiv_pos_site_id
_symmetry_equiv_pos_as_xyz
1 x,y,z
_cell_length_a                   29.062(2)
_cell_length_b                   22.0255(15)
_cell_length_c                   15.0555(10)
_cell_angle_alpha                90
_cell_angle_beta                 103.2030(10)
_cell_angle_gamma                90
_cell_volume                     9382.36
loop_
_atom_site_label
_atom_site_type_symbol
_atom_site_fract_x
_atom_site_fract_y
_atom_site_fract_z
C23 C 0.6441(2) 0.0361(3) 0.0816(4)
H11 H 0.646856 0.020176 0.139769
C24 C 0.6752(2) 0.0802(2) 0.0649(4)
H12 H 0.699088 0.093571 0.113065
C25 C 0.6081(2) 0.0160(2) 0.0072(3)
C28 C 0.68252(19) 0.0939(2) 0.4339(3)
C29 C 0.6497(2) 0.1018(2) 0.3540(3)
H14 H 0.647086 0.139262 0.324743
C30 C 0.71335(18) 0.1441(2) 0.4789(3)
C31 C 0.6201(2) 0.0546(3) 0.3163(4)
H15 H 0.598215 0.060589 0.261367
C32 C 0.6854(3) 0.0373(3) 0.4796(4)
H16 H 0.706837 0.031865 0.535214
O6 O 0.73389(13) 0.17594(14) 0.0325(2)
O9 O 0.70951(11) 0.19736(13) 0.4448(2)
O10 O 0.74262(15) 0.13456(15) 0.5537(2)
Ho4 Ho 0.76486(2) 0.23521(2) 0.59190(2)
Ho6 Ho 0.76486(2) 0.26479(2) 0.09190(2)
Ho10 Ho 0.73435(2) 0.24880(2) 0.32594(2)
C20 C 0.70428(19) 0.1545(2) 0.9659(3)
C21 C 0.6720(2) 0.1049(2) 0.9803(3)
C22 C 0.6375(2) 0.0832(2) 0.9078(4)
H10 H 0.636004 0.098010 0.849407
C26 C 0.6055(2) 0.0399(3) 0.9213(4)
H13 H 0.582053 0.026743 0.872222
O3 O 0.70003(15) 0.17457(15) 0.8861(2)
Ho8 Ho 0.73435(2) 0.25120(2) 0.82594(2)
C7 C 0.16325(17) 0.76037(19) 0.0039(3)
C8 C 0.12229(17) 0.7760(2) 0.0432(3)
C9 C 0.11749(19) 0.7553(2) 0.1279(4)
H5 H 0.139234 0.727900 0.160582
C10 C 0.0502(2) 0.8339(3) 0.0277(4)
C11 C 0.04666(19) 0.8152(2) 0.1144(4)
C12 C 0.08077(19) 0.7754(2) 0.1631(4)
H7 H 0.078428 0.762240 0.220599
C27 C 0.5626(2) 0.9480(2) 0.0905(3)
H17 H 0.360796 0.726659 0.010258
C37 C 0.41680(19) 0.7753(2) 0.0700(3)
H19 H 0.417674 0.761481 0.128768
C38 C 0.45047(19) 0.8165(2) 0.0555(3)
C40 C 0.5171(2) 0.8809(2) 0.1426(4)
C41 C 0.5706(2) 0.9367(3) 0.2408(4)
C42 C 0.6226(2) 0.9987(3) 0.3587(4)
C48 C 0.6564(3) 0.9909(3) 0.4412(4)
H24 H 0.659148 0.953331 0.470175
N1 N 0.52796(17) 0.9055(2) 0.0697(3)
N2 N 0.58510(19) 0.9654(2) 0.1724(3)
N7 N 0.01188(17) 0.8364(2) 0.1588(3)
H26 H 0.012143 0.819310 0.210284
N9 N 0.57448(19) 0.9714(2) 0.0139(3)
N10 N 0.48348(17) 0.8367(2) 0.1331(3)
H29 H 0.482308 0.818161 0.182763
N11 N 0.5921(2) 0.9511(2) 0.3273(3)
H30 H 0.586058 0.927413 0.368691
N12 N 0.5373(2) 0.8935(2) 0.2320(3)
O8 O 0.20059(12) 0.73567(14) 0.0523(2)
Ho11 Ho 0.26565(2) 0.74880(2) 0.17406(2)
O18 O 0.29049(11) 0.69736(13) 0.0552(2)
Ho1 Ho 0.23514(2) 0.73521(2) 0.90810(2)
Ho2 Ho 0.26565(2) 0.75120(2) 0.67406(2)
H6 H 0.027646 0.859873 0.993589
C13 C 0.0872(2) 0.8136(3) 0.9933(4)
H8 H 0.088956 0.825297 0.934787
C33 C 0.34019(16) 0.75836(19) 0.8319(4)
C34 C 0.37949(16) 0.7746(2) 0.9121(3)
C35 C 0.38264(19) 0.7549(2) 0.9992(4)
C36 C 0.4497(2) 0.8340(3) 0.9649(4)
H18 H 0.473466 0.858781 0.952753
C39 C 0.4139(2) 0.8145(2) 0.8952(4)
H20 H 0.412505 0.827824 0.835987
H28 H 0.559096 0.956694 0.962786
O4 O 0.34264(14) 0.76995(17) 0.7544(2)
O5 O 0.30276(12) 0.73297(15) 0.8459(2)
O7 O 0.16131(13) 0.77252(17) 0.9231(2)
O13 O 0.18293(14) 0.67163(15) 0.8144(2)
O14 O 0.22486(14) 0.67298(17) 0.7094(3)
O15 O 0.29997(15) 0.67457(15) 0.6139(2)
O16 O 0.26611(13) 0.82406(14) 0.9675(2)
O17 O 0.20059(12) 0.76433(14) 0.5523(2)
O19 O 0.29049(11) 0.80264(13) 0.5552(2)
O20 O 0.25738(15) 0.63456(15) 0.9463(2)
O21 O 0.21626(11) 0.79726(13) 0.77561(19)
O22 O 0.25444(13) 0.85531(14) 0.7000(2)
C1 C 0.77637(17) 0.15114(19) 0.2548(3)
C2 C 0.8406(2) 0.1035(2) 0.1933(4)
H1 H 0.843345 0.139406 0.162400
C3 C 0.80646(19) 0.0984(2) 0.2432(3)
C4 C 0.8019(2) 0.0433(2) 0.2868(4)
H2 H 0.779128 0.039412 0.320854
C5 C 0.8708(3) 0.0553(3) 0.1890(5)
H3 H 0.894603 0.059455 0.157292
C17 C 0.8655(2) 0.0010(3) 0.2319(4)
O11 O 0.78374(11) 0.20274(13) 0.22439(19)
O12 O 0.74556(13) 0.14469(14) 0.3000(2)
C18 C 0.8976(2) 0.0131(2) 0.9025(4)
C19 C 0.9044(2) 0.0347(3) 0.8220(4)
H9 H 0.929375 0.019840 0.799130
C43 C 0.8381(2) 0.1021(2) 0.8066(4)
C44 C 0.8299(2) 0.0788(3) 0.8853(4)
H21 H 0.804374 0.093099 0.906778
C45 C 0.8087(2) 0.1525(2) 0.7564(4)
C46 C 0.8749(2) 0.0785(2) 0.7737(4)
H22 H 0.879958 0.092224 0.718242
C47 C 0.8587(2) 0.0342(3) 0.9346(4)
H23 H 0.852395 0.018630 0.988004
O1 O 0.81707(14) 0.17163(15) 0.6856(2)
O2 O 0.77514(14) 0.17298(17) 0.7906(3)
C1_2 C 0.22363(17) 0.65114(19) 0.2452(3)
C2_2 C 0.1594(2) 0.6035(2) 0.3067(4)
H1_2 H 0.156655 0.639406 0.337600
C3_2 C 0.19354(19) 0.5984(2) 0.2568(3)
C4_2 C 0.1981(2) 0.5433(2) 0.2132(4)
H2_2 H 0.220872 0.539412 0.179146
C5_2 C 0.1292(3) 0.5553(3) 0.3110(5)
H3_2 H 0.105397 0.559455 0.342708
C6 C 0.1694(3) 0.4954(2) 0.2203(4)
H4 H 0.173521 0.458664 0.192579
C14 C 0.0216(2) 0.3791(2) 0.3668(4)
C15 C 0.0785(2) 0.4367(3) 0.3289(4)
C16 C 0.0638(2) 0.4441(2) 0.4676(4)
C17_2 C 0.1345(2) 0.5010(3) 0.2681(4)
C18_2 C 0.1024(2) 0.5131(2) 0.5975(4)
C19_2 C 0.0956(2) 0.5347(3) 0.6780(4)
H9_2 H 0.070625 0.519840 0.700870
C43_2 C 0.1619(2) 0.6021(2) 0.6934(4)
C44_2 C 0.1701(2) 0.5788(3) 0.6147(4)
H21_2 H 0.195626 0.593099 0.593222
C45_2 C 0.1913(2) 0.6525(2) 0.7436(4)
C46_2 C 0.1251(2) 0.5785(2) 0.7263(4)
H22_2 H 0.120042 0.592224 0.781758
C47_2 C 0.1413(2) 0.5342(3) 0.5654(4)
H23_2 H 0.147605 0.518630 0.511996
N3 N 0.02919(18) 0.4029(2) 0.4505(3)
N4 N 0.08997(19) 0.4631(2) 0.4112(3)
N5 N 0.04537(19) 0.3929(2) 0.3027(3)
N6 N 0.0711(2) 0.4687(2) 0.5536(3)
H25 H 0.052973 0.454175 0.586241
N8 N 0.1029(2) 0.4515(2) 0.2658(3)
H27 H 0.098902 0.428318 0.218785
O11_2 O 0.21626(11) 0.70274(13) 0.27561(19)
O12_2 O 0.25444(13) 0.64469(14) 0.2000(2)
Ho5 Ho 0.23514(2) 0.76479(2) 0.40810(2)
C7_2 C 0.83675(17) 0.26037(19) 0.4961(3)
C8_2 C 0.87771(17) 0.2760(2) 0.4568(3)
C9_2 C 0.88251(19) 0.2553(2) 0.3721(4)
H5_2 H 0.860766 0.227900 0.339418
C10_2 C 0.9498(2) 0.3339(3) 0.4723(4)
H6_2 H 0.972354 0.359873 0.506411
C11_2 C 0.95334(19) 0.3152(2) 0.3856(4)
C12_2 C 0.91923(19) 0.2754(2) 0.3369(4)
H7_2 H 0.921572 0.262240 0.279401
C13_2 C 0.9128(2) 0.3136(3) 0.5067(4)
H8_2 H 0.911044 0.325297 0.565213
C20_2 C 0.29572(19) 0.6545(2) 0.5341(3)
C21_2 C 0.3280(2) 0.6049(2) 0.5197(3)
C22_2 C 0.3625(2) 0.5832(2) 0.5922(4)
H10_2 H 0.363996 0.598010 0.650593
C23_2 C 0.3559(2) 0.5361(3) 0.4184(4)
H11_2 H 0.353144 0.520176 0.360231
C24_2 C 0.3248(2) 0.5802(2) 0.4351(4)
H12_2 H 0.300912 0.593571 0.386935
C25_2 C 0.3919(2) 0.5160(2) 0.4928(3)
C26_2 C 0.3945(2) 0.5399(3) 0.5787(4)
H13_2 H 0.417947 0.526743 0.627778
C27_2 C 0.4374(2) 0.4480(2) 0.4095(3)
C28_2 C 0.31748(19) 0.5939(2) 0.0661(3)
C29_2 C 0.3503(2) 0.6018(2) 0.1460(3)
H14_2 H 0.352914 0.639262 0.175257
C30_2 C 0.28665(18) 0.6441(2) 0.0211(3)
C31_2 C 0.3799(2) 0.5546(3) 0.1837(4)
H15_2 H 0.401785 0.560589 0.238633
C32_2 C 0.3146(3) 0.5373(3) 0.0204(4)
C33_2 C 0.65981(16) 0.25836(19) 0.6681(4)
C34_2 C 0.62051(16) 0.2746(2) 0.5879(3)
C35_2 C 0.61736(19) 0.2549(2) 0.5008(4)
H17_2 H 0.639204 0.226659 0.489742
C36_2 C 0.5503(2) 0.3340(3) 0.5351(4)
H18_2 H 0.526534 0.358781 0.547247
C37_2 C 0.58320(19) 0.2753(2) 0.4300(3)
H19_2 H 0.582326 0.261481 0.371232
C38_2 C 0.54953(19) 0.3165(2) 0.4445(3)
C39_2 C 0.5861(2) 0.3145(2) 0.6048(4)
H20_2 H 0.587495 0.327824 0.664013
C40_2 C 0.4829(2) 0.3809(2) 0.3574(4)
C41_2 C 0.4294(2) 0.4367(3) 0.2592(4)
C42_2 C 0.3774(2) 0.4987(3) 0.1413(4)
C48_2 C 0.3436(3) 0.4909(3) 0.0588(4)
H24_2 H 0.340852 0.453331 0.029825
N1_2 N 0.47204(17) 0.4055(2) 0.4303(3)
N2_2 N 0.41490(19) 0.4654(2) 0.3276(3)
N7_2 N 0.98812(17) 0.3364(2) 0.3412(3)
H26_2 H 0.987857 0.319310 0.289716
N9_2 N 0.42552(19) 0.4714(2) 0.4861(3)
H28_2 H 0.440904 0.456694 0.537214
N10_2 N 0.51652(17) 0.3367(2) 0.3669(3)
H29_2 H 0.517692 0.318161 0.317237
N11_2 N 0.4079(2) 0.4511(2) 0.1727(3)
H30_2 H 0.413942 0.427413 0.131309
N12_2 N 0.4627(2) 0.3935(2) 0.2680(3)
O4_2 O 0.65736(14) 0.26995(17) 0.7456(2)
O5_2 O 0.69724(12) 0.23297(15) 0.6541(2)
O6_2 O 0.26611(13) 0.67594(14) 0.4675(2)
O7_2 O 0.83869(13) 0.27252(17) 0.5769(2)
O8_2 O 0.79941(12) 0.23567(14) 0.4477(2)
O16_2 O 0.73389(13) 0.32406(14) 0.5325(2)
O17_2 O 0.79941(12) 0.26433(14) 0.9477(2)
O19_2 O 0.70951(11) 0.30264(13) 0.9448(2)
O21_2 O 0.78374(11) 0.29726(13) 0.72439(19)
O22_2 O 0.74556(13) 0.35531(14) 0.8000(2)
H16_2 H 0.293163 0.531865 0.964786
C18_3 C 0.1024(2) 0.9869(2) 0.0975(4)
C19_3 C 0.0956(2) 0.9653(3) 0.1780(4)
H9_3 H 0.070625 0.980160 0.200870
C43_3 C 0.1619(2) 0.8979(2) 0.1934(4)
C44_3 C 0.1701(2) 0.9212(3) 0.1147(4)
H21_3 H 0.195626 0.906901 0.093222
C45_3 C 0.1913(2) 0.8475(2) 0.2436(4)
C46_3 C 0.1251(2) 0.9215(2) 0.2263(4)
H22_3 H 0.120042 0.907776 0.281758
C47_3 C 0.1413(2) 0.9658(3) 0.0654(4)
H23_3 H 0.147605 0.981370 0.011996
O1_2 O 0.18293(14) 0.82837(15) 0.3144(2)
O2_2 O 0.22486(14) 0.82702(17) 0.2094(3)
C1_3 C 0.22363(17) 0.84886(19) 0.7452(3)
C2_3 C 0.1594(2) 0.8965(2) 0.8067(4)
H1_3 H 0.156655 0.860594 0.837600
C3_3 C 0.19354(19) 0.9016(2) 0.7568(3)
C4_3 C 0.1981(2) 0.9567(2) 0.7132(4)
H2_3 H 0.220872 0.960588 0.679146
C5_3 C 0.1292(3) 0.9447(3) 0.8110(5)
H3_3 H 0.105397 0.940545 0.842708
C17_3 C 0.1345(2) 0.9990(3) 0.7681(4)
H6_3 H 0.972354 0.140127 0.006411
C13_3 C 0.9128(2) 0.1864(3) 0.0067(4)
H8_3 H 0.911044 0.174703 0.065213
C33_3 C 0.65981(16) 0.24164(19) 0.1681(4)
C34_3 C 0.62051(16) 0.2254(2) 0.0879(3)
C35_3 C 0.61736(19) 0.2451(2) 0.0008(4)
C36_3 C 0.5503(2) 0.1660(3) 0.0351(4)
H18_3 H 0.526534 0.141219 0.047247
C39_3 C 0.5861(2) 0.1855(2) 0.1048(4)
H20_3 H 0.587495 0.172176 0.164013
H28_3 H 0.440904 0.043306 0.037214
O4_3 O 0.65736(14) 0.23005(17) 0.2456(2)
O5_3 O 0.69724(12) 0.26703(15) 0.1541(2)
O7_3 O 0.83869(13) 0.22748(17) 0.0769(2)
O13_2 O 0.81707(14) 0.32837(15) 0.1856(2)
O14_2 O 0.77514(14) 0.32702(17) 0.2906(3)
O15_2 O 0.70003(15) 0.32543(15) 0.3861(2)
O20_2 O 0.74262(15) 0.36544(15) 0.0537(2)
C7_3 C 0.83675(17) 0.23963(19) 0.9961(3)
C8_3 C 0.87771(17) 0.2240(2) 0.9568(3)
C9_3 C 0.88251(19) 0.2447(2) 0.8721(4)
H5_3 H 0.860766 0.272100 0.839418
C10_3 C 0.9498(2) 0.1661(3) 0.9723(4)
C11_3 C 0.95334(19) 0.1848(2) 0.8856(4)
C12_3 C 0.91923(19) 0.2246(2) 0.8369(4)
H7_3 H 0.921572 0.237760 0.779401
C27_3 C 0.4374(2) 0.0520(2) 0.9095(3)
H17_3 H 0.639204 0.273341 0.989742
C37_3 C 0.58320(19) 0.2247(2) 0.9300(3)
H19_3 H 0.582326 0.238519 0.871232
C38_3 C 0.54953(19) 0.1835(2) 0.9445(3)
C40_3 C 0.4829(2) 0.1191(2) 0.8574(4)
C41_3 C 0.4294(2) 0.0633(3) 0.7592(4)
C42_3 C 0.3774(2) 0.0013(3) 0.6413(4)
C48_3 C 0.3436(3) 0.0091(3) 0.5588(4)
H24_3 H 0.340852 0.046669 0.529825
N1_3 N 0.47204(17) 0.0945(2) 0.9303(3)
N2_3 N 0.41490(19) 0.0346(2) 0.8276(3)
N7_3 N 0.98812(17) 0.1636(2) 0.8412(3)
H26_3 H 0.987857 0.180690 0.789716
N9_3 N 0.42552(19) 0.0286(2) 0.9861(3)
N10_3 N 0.51652(17) 0.1633(2) 0.8669(3)
H29_3 H 0.517692 0.181839 0.817237
N11_3 N 0.4079(2) 0.0489(2) 0.6727(3)
H30_3 H 0.413942 0.072587 0.631309
N12_3 N 0.4627(2) 0.1065(2) 0.7680(3)
C20_3 C 0.29572(19) 0.8455(2) 0.0341(3)
C21_3 C 0.3280(2) 0.8951(2) 0.0197(3)
C22_3 C 0.3625(2) 0.9168(2) 0.0922(4)
H10_3 H 0.363996 0.901990 0.150593
C26_3 C 0.3945(2) 0.9601(3) 0.0787(4)
H13_3 H 0.417947 0.973257 0.127778
O3_2 O 0.29997(15) 0.82543(15) 0.1139(2)
C23_3 C 0.3559(2) 0.9639(3) 0.9184(4)
H11_3 H 0.353144 0.979824 0.860231
C24_3 C 0.3248(2) 0.9198(2) 0.9351(4)
H12_3 H 0.300912 0.906429 0.886935
C25_3 C 0.3919(2) 0.9840(2) 0.9928(3)
C28_3 C 0.31748(19) 0.9061(2) 0.5661(3)
C29_3 C 0.3503(2) 0.8982(2) 0.6460(3)
H14_3 H 0.352914 0.860738 0.675257
C30_3 C 0.28665(18) 0.8559(2) 0.5211(3)
C31_3 C 0.3799(2) 0.9454(3) 0.6837(4)
H15_3 H 0.401785 0.939411 0.738633
C32_3 C 0.3146(3) 0.9627(3) 0.5204(4)
H16_3 H 0.293163 0.968135 0.464786
O10_2 O 0.25738(15) 0.86544(15) 0.4463(2)
H16_4 H 0.706837 0.468135 0.035214
C7_4 C 0.16325(17) 0.73963(19) 0.5039(3)
C8_4 C 0.12229(17) 0.7240(2) 0.5432(3)
C9_4 C 0.11749(19) 0.7447(2) 0.6279(4)
H5_4 H 0.139234 0.772100 0.660582
C10_4 C 0.0502(2) 0.6661(3) 0.5277(4)
H6_4 H 0.027646 0.640127 0.493589
C11_4 C 0.04666(19) 0.6848(2) 0.6144(4)
C12_4 C 0.08077(19) 0.7246(2) 0.6631(4)
H7_4 H 0.078428 0.737760 0.720599
C13_4 C 0.0872(2) 0.6864(3) 0.4933(4)
H8_4 H 0.088956 0.674703 0.434787
C20_4 C 0.70428(19) 0.3455(2) 0.4659(3)
C21_4 C 0.6720(2) 0.3951(2) 0.4803(3)
C22_4 C 0.6375(2) 0.4168(2) 0.4078(4)
H10_4 H 0.636004 0.401990 0.349407
C23_4 C 0.6441(2) 0.4639(3) 0.5816(4)
H11_4 H 0.646856 0.479824 0.639769
C24_4 C 0.6752(2) 0.4198(2) 0.5649(4)
H12_4 H 0.699088 0.406429 0.613065
C25_4 C 0.6081(2) 0.4840(2) 0.5072(3)
C26_4 C 0.6055(2) 0.4601(3) 0.4213(4)
H13_4 H 0.582053 0.473257 0.372222
C27_4 C 0.5626(2) 0.5520(2) 0.5905(3)
C28_4 C 0.68252(19) 0.4061(2) 0.9339(3)
C29_4 C 0.6497(2) 0.3982(2) 0.8540(3)
H14_4 H 0.647086 0.360738 0.824743
C30_4 C 0.71335(18) 0.3559(2) 0.9789(3)
C31_4 C 0.6201(2) 0.4454(3) 0.8163(4)
H15_4 H 0.598215 0.439411 0.761367
C32_4 C 0.6854(3) 0.4627(3) 0.9796(4)
C33_4 C 0.34019(16) 0.74164(19) 0.3319(4)
C34_4 C 0.37949(16) 0.7254(2) 0.4121(3)
C35_4 C 0.38264(19) 0.7451(2) 0.4992(4)
H17_4 H 0.360796 0.773341 0.510258
C36_4 C 0.4497(2) 0.6660(3) 0.4649(4)
H18_4 H 0.473466 0.641219 0.452753
C37_4 C 0.41680(19) 0.7247(2) 0.5700(3)
H19_4 H 0.417674 0.738519 0.628768
C38_4 C 0.45047(19) 0.6835(2) 0.5555(3)
C39_4 C 0.4139(2) 0.6855(2) 0.3952(4)
H20_4 H 0.412505 0.672176 0.335987
C40_4 C 0.5171(2) 0.6191(2) 0.6426(4)
C41_4 C 0.5706(2) 0.5633(3) 0.7408(4)
C42_4 C 0.6226(2) 0.5013(3) 0.8587(4)
C48_4 C 0.6564(3) 0.5091(3) 0.9412(4)
H24_4 H 0.659148 0.546669 0.970175
N1_4 N 0.52796(17) 0.5945(2) 0.5697(3)
N2_4 N 0.58510(19) 0.5346(2) 0.6724(3)
N7_4 N 0.01188(17) 0.6636(2) 0.6588(3)
H26_4 H 0.012143 0.680690 0.710284
N9_4 N 0.57448(19) 0.5286(2) 0.5139(3)
H28_4 H 0.559096 0.543306 0.462786
N10_4 N 0.48348(17) 0.6633(2) 0.6331(3)
H29_4 H 0.482308 0.681839 0.682763
N11_4 N 0.5921(2) 0.5489(2) 0.8273(3)
H30_4 H 0.586058 0.572587 0.868691
N12_4 N 0.5373(2) 0.6065(2) 0.7320(3)
O4_4 O 0.34264(14) 0.73005(17) 0.2544(2)
O5_4 O 0.30276(12) 0.76703(15) 0.3459(2)
O7_4 O 0.16131(13) 0.72748(17) 0.4231(2)
C1_4 C 0.77637(17) 0.34886(19) 0.7548(3)
C2_4 C 0.8406(2) 0.3965(2) 0.6933(4)
H1_4 H 0.843345 0.360594 0.662400
C3_4 C 0.80646(19) 0.4016(2) 0.7432(3)
C4_4 C 0.8019(2) 0.4567(2) 0.7868(4)
H2_4 H 0.779128 0.460588 0.820854
C5_4 C 0.8708(3) 0.4447(3) 0.6890(5)
H3_4 H 0.894603 0.440545 0.657292
C6_2 C 0.8306(3) 0.5046(2) 0.7797(4)
H4_2 H 0.826479 0.541336 0.807421
C14_2 C 0.9784(2) 0.6209(2) 0.6332(4)
C15_2 C 0.9215(2) 0.5633(3) 0.6711(4)
C16_2 C 0.9362(2) 0.5559(2) 0.5324(4)
C17_4 C 0.8655(2) 0.4990(3) 0.7319(4)
C18_4 C 0.8976(2) 0.4869(2) 0.4025(4)
C19_4 C 0.9044(2) 0.4653(3) 0.3220(4)
H9_4 H 0.929375 0.480160 0.299130
C43_4 C 0.8381(2) 0.3979(2) 0.3066(4)
C44_4 C 0.8299(2) 0.4212(3) 0.3853(4)
H21_4 H 0.804374 0.406901 0.406778
C45_4 C 0.8087(2) 0.3475(2) 0.2564(4)
C46_4 C 0.8749(2) 0.4215(2) 0.2737(4)
H22_4 H 0.879958 0.407776 0.218242
C47_4 C 0.8587(2) 0.4658(3) 0.4346(4)
H23_4 H 0.852395 0.481370 0.488004
N3_2 N 0.97081(18) 0.5971(2) 0.5495(3)
N4_2 N 0.91003(19) 0.5369(2) 0.5888(3)
N5_2 N 0.95463(19) 0.6071(2) 0.6973(3)
N6_2 N 0.9289(2) 0.5313(2) 0.4464(3)
H25_2 H 0.947027 0.545825 0.413759
N8_2 N 0.8971(2) 0.5485(2) 0.7342(3)
H27_2 H 0.901098 0.571682 0.781215
C6_3 C 0.8306(3) 0.9954(2) 0.2797(4)
H4_3 H 0.826479 0.958664 0.307421
C14_3 C 0.9784(2) 0.8791(2) 0.1332(4)
C15_3 C 0.9215(2) 0.9367(3) 0.1711(4)
C16_3 C 0.9362(2) 0.9441(2) 0.0324(4)
N3_3 N 0.97081(18) 0.9029(2) 0.0495(3)
N4_3 N 0.91003(19) 0.9631(2) 0.0888(3)
N5_3 N 0.95463(19) 0.8929(2) 0.1973(3)
N8_3 N 0.8971(2) 0.9515(2) 0.2342(3)
H27_3 H 0.901098 0.928318 0.281215
N6_3 N 0.9289(2) 0.9687(2) 0.9464(3)
H25_3 H 0.947027 0.954175 0.913759
N6_4 N 0.0711(2) 0.0313(2) 0.0536(3)
H25_4 H 0.052973 0.045825 0.086241
C6_4 C 0.1694(3) 0.0046(2) 0.7203(4)
H4_4 H 0.173521 0.041336 0.692579
C14_4 C 0.0216(2) 0.1209(2) 0.8668(4)
C15_4 C 0.0785(2) 0.0633(3) 0.8289(4)
C16_4 C 0.0638(2) 0.0559(2) 0.9676(4)
N3_4 N 0.02919(18) 0.0971(2) 0.9505(3)
N4_4 N 0.08997(19) 0.0369(2) 0.9112(3)
N5_4 N 0.04537(19) 0.1071(2) 0.8027(3)
N8_4 N 0.1029(2) 0.0485(2) 0.7658(3)
H27_4 H 0.098902 0.071682 0.718785
loop_
_geom_bond_atom_site_label_1
_geom_bond_atom_site_label_2
_geom_bond_site_symmetry_1
_geom_bond_site_symmetry_2
C23 H11 1_555 1_555
H12 C24 1_555 1_555
C25 C23 1_555 1_555
C28 C29 1_555 1_555
C29 H14 1_555 1_555
C30 C28 1_555 1_555
C31 C29 1_555 1_555
H15 C31 1_555 1_555
C32 C28 1_555 1_555
H16 C32 1_555 1_555
O9 C30 1_555 1_555
O10 C30 1_555 1_555
Ho4 O9 1_555 1_555
Ho6 O6 1_555 1_555
Ho10 O9 1_555 1_555
C23 C24 1_555 1_555
O10 Ho4 1_555 1_555
C20 C21 1_555 1_555
C21 C22 1_555 1_555
C22 H10 1_555 1_555
C26 C22 1_555 1_555
H13 C26 1_555 1_555
O3 C20 1_555 1_555
Ho8 O3 1_555 1_555
C7 C8 1_555 1_555
C8 C9 1_555 1_555
C9 H5 1_555 1_555
C11 C10 1_555 1_555
C12 C9 1_555 1_555
H7 C12 1_555 1_555
C27 N1 1_555 1_555
H19 C37 1_555 1_555
C40 N1 1_555 1_555
C41 N2 1_555 1_555
H24 C48 1_555 1_555
N2 C27 1_555 1_555
N7 C11 1_555 1_555
H26 N7 1_555 1_555
N10 C38 1_555 1_555
H29 N10 1_555 1_555
N11 C41 1_555 1_555
H30 N11 1_555 1_555
N12 C40 1_555 1_555
Ho11 O8 1_555 1_555
C7 O8 1_555 1_555
C11 C12 1_555 1_555
C27 N9 1_555 1_555
C37 C38 1_555 1_555
C40 N10 1_555 1_555
C41 N12 1_555 1_555
C42 C48 1_555 1_555
C42 N11 1_555 1_555
Ho11 O18 1_555 1_555
Ho1 O5 1_555 1_555
Ho2 O4 1_555 1_555
H8 C13 1_555 1_555
C33 C34 1_555 1_555
C34 C35 1_555 1_555
C36 H18 1_555 1_555
C39 C34 1_555 1_555
H20 C39 1_555 1_555
O4 C33 1_555 1_555
O5 Ho2 1_555 1_555
O7 Ho1 1_555 1_555
O13 Ho1 1_555 1_555
O14 Ho2 1_555 1_555
O15 Ho2 1_555 1_555
O16 Ho1 1_555 1_555
O17 Ho2 1_555 1_555
O19 Ho2 1_555 1_555
O20 Ho1 1_555 1_555
O21 Ho1 1_555 1_555
O22 Ho2 1_555 1_555
Ho2 O21 1_555 1_555
C33 O5 1_555 1_555
C36 C39 1_555 1_555
C1 C3 1_555 1_555
C2 H1 1_555 1_555
C3 C2 1_555 1_555
C4 C3 1_555 1_555
H2 C4 1_555 1_555
C5 C2 1_555 1_555
H3 C5 1_555 1_555
C17 C5 1_555 1_555
O11 C1 1_555 1_555
O12 C1 1_555 1_555
Ho6 O11 1_555 1_555
Ho10 O11 1_555 1_555
O12 Ho10 1_555 1_555
C18 C19 1_555 1_555
C19 H9 1_555 1_555
C43 C44 1_555 1_555
C44 H21 1_555 1_555
C45 C43 1_555 1_555
C46 C19 1_555 1_555
H22 C46 1_555 1_555
C47 C18 1_555 1_555
H23 C47 1_555 1_555
O1 C45 1_555 1_555
O2 C45 1_555 1_555
Ho4 O1 1_555 1_555
Ho8 O2 1_555 1_555
C43 C46 1_555 1_555
C44 C47 1_555 1_555
C1_2 C3_2 1_555 1_555
C2_2 H1_2 1_555 1_555
C3_2 C2_2 1_555 1_555
C4_2 C3_2 1_555 1_555
H2_2 C4_2 1_555 1_555
C5_2 C2_2 1_555 1_555
H3_2 C5_2 1_555 1_555
C6 C4_2 1_555 1_555
H4 C6 1_555 1_555
C14 N3 1_555 1_555
C15 N4 1_555 1_555
C16 N3 1_555 1_555
C17_2 C5_2 1_555 1_555
C18_2 C19_2 1_555 1_555
C19_2 H9_2 1_555 1_555
C43_2 C44_2 1_555 1_555
C44_2 H21_2 1_555 1_555
C45_2 C43_2 1_555 1_555
C46_2 C19_2 1_555 1_555
H22_2 C46_2 1_555 1_555
C47_2 C18_2 1_555 1_555
H23_2 C47_2 1_555 1_555
N4 C16 1_555 1_555
N5 C14 1_555 1_555
N6 C16 1_555 1_555
H25 N6 1_555 1_555
N8 C15 1_555 1_555
H27 N8 1_555 1_555
O13 C45_2 1_555 1_555
O14 C45_2 1_555 1_555
O11_2 C1_2 1_555 1_555
O12_2 C1_2 1_555 1_555
Ho5 O11_2 1_555 1_555
Ho11 O11_2 1_555 1_555
C6 C17_2 1_555 1_555
C15 N5 1_555 1_555
C17_2 N8 1_555 1_555
C18_2 N6 1_555 1_555
C43_2 C46_2 1_555 1_555
C44_2 C47_2 1_555 1_555
O12_2 Ho11 1_555 1_555
Ho4 O5_2 1_555 1_555
Ho8 O4_2 1_555 1_555
C7_2 C8_2 1_555 1_555
C8_2 C9_2 1_555 1_555
C9_2 H5_2 1_555 1_555
C10_2 H6_2 1_555 1_555
C11_2 C10_2 1_555 1_555
C12_2 C9_2 1_555 1_555
H7_2 C12_2 1_555 1_555
C13_2 C8_2 1_555 1_555
H8_2 C13_2 1_555 1_555
C20_2 C21_2 1_555 1_555
C21_2 C22_2 1_555 1_555
C22_2 H10_2 1_555 1_555
C23_2 H11_2 1_555 1_555
C24_2 C21_2 1_555 1_555
H12_2 C24_2 1_555 1_555
C25_2 C23_2 1_555 1_555
C26_2 C22_2 1_555 1_555
H13_2 C26_2 1_555 1_555
C27_2 N1_2 1_555 1_555
C28_2 C29_2 1_555 1_555
C29_2 H14_2 1_555 1_555
C30_2 C28_2 1_555 1_555
C31_2 C29_2 1_555 1_555
H15_2 C31_2 1_555 1_555
C32_2 C28_2 1_555 1_555
C33_2 C34_2 1_555 1_555
C34_2 C35_2 1_555 1_555
C35_2 H17_2 1_555 1_555
C36_2 H18_2 1_555 1_555
C37_2 C35_2 1_555 1_555
H19_2 C37_2 1_555 1_555
C38_2 C36_2 1_555 1_555
C39_2 C34_2 1_555 1_555
H20_2 C39_2 1_555 1_555
C40_2 N1_2 1_555 1_555
C41_2 N2_2 1_555 1_555
C42_2 C31_2 1_555 1_555
C48_2 C32_2 1_555 1_555
H24_2 C48_2 1_555 1_555
N2_2 C27_2 1_555 1_555
N7_2 C11_2 1_555 1_555
H26_2 N7_2 1_555 1_555
N9_2 C25_2 1_555 1_555
H28_2 N9_2 1_555 1_555
N10_2 C38_2 1_555 1_555
H29_2 N10_2 1_555 1_555
N11_2 C41_2 1_555 1_555
H30_2 N11_2 1_555 1_555
N12_2 C40_2 1_555 1_555
O15 C20_2 1_555 1_555
O4_2 C33_2 1_555 1_555
O5_2 Ho8 1_555 1_555
O6_2 C20_2 1_555 1_555
O7_2 Ho4 1_555 1_555
O8_2 Ho4 1_555 1_555
O18 C30_2 1_555 1_555
Ho5 O6_2 1_555 1_555
Ho10 O8_2 1_555 1_555
O16_2 Ho4 1_555 1_555
O17_2 Ho8 1_555 1_555
O19_2 Ho8 1_555 1_555
O21_2 Ho4 1_555 1_555
O22_2 Ho8 1_555 1_555
Ho8 O21_2 1_555 1_555
C7_2 O7_2 1_555 1_555
C7_2 O8_2 1_555 1_555
C10_2 C13_2 1_555 1_555
C11_2 C12_2 1_555 1_555
C23_2 C24_2 1_555 1_555
C25_2 C26_2 1_555 1_555
C27_2 N9_2 1_555 1_555
C33_2 O5_2 1_555 1_555
C36_2 C39_2 1_555 1_555
C37_2 C38_2 1_555 1_555
C40_2 N10_2 1_555 1_555
C41_2 N12_2 1_555 1_555
C42_2 C48_2 1_555 1_555
C42_2 N11_2 1_555 1_555
C18_3 C19_3 1_555 1_555
C19_3 H9_3 1_555 1_555
C43_3 C44_3 1_555 1_555
C44_3 H21_3 1_555 1_555
C45_3 C43_3 1_555 1_555
C46_3 C19_3 1_555 1_555
H22_3 C46_3 1_555 1_555
C47_3 C18_3 1_555 1_555
H23_3 C47_3 1_555 1_555
O1_2 C45_3 1_555 1_555
O2_2 C45_3 1_555 1_555
Ho5 O1_2 1_555 1_555
Ho11 O2_2 1_555 1_555
C43_3 C46_3 1_555 1_555
C44_3 C47_3 1_555 1_555
C1_3 C3_3 1_555 1_555
C2_3 H1_3 1_555 1_555
C3_3 C2_3 1_555 1_555
C4_3 C3_3 1_555 1_555
H2_3 C4_3 1_555 1_555
C5_3 C2_3 1_555 1_555
H3_3 C5_3 1_555 1_555
C17_3 C5_3 1_555 1_555
O21 C1_3 1_555 1_555
O22 C1_3 1_555 1_555
Ho6 O5_3 1_555 1_555
Ho10 O4_3 1_555 1_555
H8_3 C13_3 1_555 1_555
C33_3 C34_3 1_555 1_555
C34_3 C35_3 1_555 1_555
C36_3 H18_3 1_555 1_555
C39_3 C34_3 1_555 1_555
H20_3 C39_3 1_555 1_555
O4_3 C33_3 1_555 1_555
O5_3 Ho10 1_555 1_555
O7_3 Ho6 1_555 1_555
O13_2 Ho6 1_555 1_555
O14_2 Ho10 1_555 1_555
O15_2 Ho10 1_555 1_555
O20_2 Ho6 1_555 1_555
C33_3 O5_3 1_555 1_555
C36_3 C39_3 1_555 1_555
C7_3 C8_3 1_555 1_555
C8_3 C9_3 1_555 1_555
C9_3 H5_3 1_555 1_555
C11_3 C10_3 1_555 1_555
C12_3 C9_3 1_555 1_555
H7_3 C12_3 1_555 1_555
C27_3 N1_3 1_555 1_555
H19_3 C37_3 1_555 1_555
C40_3 N1_3 1_555 1_555
C41_3 N2_3 1_555 1_555
H24_3 C48_3 1_555 1_555
N2_3 C27_3 1_555 1_555
N7_3 C11_3 1_555 1_555
H26_3 N7_3 1_555 1_555
N10_3 C38_3 1_555 1_555
H29_3 N10_3 1_555 1_555
N11_3 C41_3 1_555 1_555
H30_3 N11_3 1_555 1_555
N12_3 C40_3 1_555 1_555
C7_3 O17_2 1_555 1_555
C11_3 C12_3 1_555 1_555
C27_3 N9_3 1_555 1_555
C37_3 C38_3 1_555 1_555
C40_3 N10_3 1_555 1_555
C41_3 N12_3 1_555 1_555
C42_3 C48_3 1_555 1_555
C42_3 N11_3 1_555 1_555
C20_3 C21_3 1_555 1_555
C21_3 C22_3 1_555 1_555
C22_3 H10_3 1_555 1_555
C26_3 C22_3 1_555 1_555
H13_3 C26_3 1_555 1_555
O3_2 C20_3 1_555 1_555
Ho11 O3_2 1_555 1_555
C23_3 H11_3 1_555 1_555
H12_3 C24_3 1_555 1_555
C25_3 C23_3 1_555 1_555
C28_3 C29_3 1_555 1_555
C29_3 H14_3 1_555 1_555
C30_3 C28_3 1_555 1_555
C31_3 C29_3 1_555 1_555
H15_3 C31_3 1_555 1_555
C32_3 C28_3 1_555 1_555
H16_3 C32_3 1_555 1_555
O19 C30_3 1_555 1_555
O10_2 C30_3 1_555 1_555
Ho5 O19 1_555 1_555
C23_3 C24_3 1_555 1_555
O10_2 Ho5 1_555 1_555
Ho5 O5_4 1_555 1_555
Ho11 O4_4 1_555 1_555
C7_4 C8_4 1_555 1_555
C8_4 C9_4 1_555 1_555
C9_4 H5_4 1_555 1_555
C10_4 H6_4 1_555 1_555
C11_4 C10_4 1_555 1_555
C12_4 C9_4 1_555 1_555
H7_4 C12_4 1_555 1_555
C13_4 C8_4 1_555 1_555
H8_4 C13_4 1_555 1_555
C20_4 C21_4 1_555 1_555
C21_4 C22_4 1_555 1_555
C22_4 H10_4 1_555 1_555
C23_4 H11_4 1_555 1_555
C24_4 C21_4 1_555 1_555
H12_4 C24_4 1_555 1_555
C25_4 C23_4 1_555 1_555
C26_4 C22_4 1_555 1_555
H13_4 C26_4 1_555 1_555
C27_4 N1_4 1_555 1_555
C28_4 C29_4 1_555 1_555
C29_4 H14_4 1_555 1_555
C30_4 C28_4 1_555 1_555
C31_4 C29_4 1_555 1_555
H15_4 C31_4 1_555 1_555
C32_4 C28_4 1_555 1_555
C33_4 C34_4 1_555 1_555
C34_4 C35_4 1_555 1_555
C35_4 H17_4 1_555 1_555
C36_4 H18_4 1_555 1_555
C37_4 C35_4 1_555 1_555
H19_4 C37_4 1_555 1_555
C38_4 C36_4 1_555 1_555
C39_4 C34_4 1_555 1_555
H20_4 C39_4 1_555 1_555
C40_4 N1_4 1_555 1_555
C41_4 N2_4 1_555 1_555
C42_4 C31_4 1_555 1_555
C48_4 C32_4 1_555 1_555
H24_4 C48_4 1_555 1_555
N2_4 C27_4 1_555 1_555
N7_4 C11_4 1_555 1_555
H26_4 N7_4 1_555 1_555
N9_4 C25_4 1_555 1_555
H28_4 N9_4 1_555 1_555
N10_4 C38_4 1_555 1_555
H29_4 N10_4 1_555 1_555
N11_4 C41_4 1_555 1_555
H30_4 N11_4 1_555 1_555
N12_4 C40_4 1_555 1_555
O15_2 C20_4 1_555 1_555
O4_4 C33_4 1_555 1_555
O5_4 Ho11 1_555 1_555
O16_2 C20_4 1_555 1_555
O7_4 Ho5 1_555 1_555
O17 Ho5 1_555 1_555
O19_2 C30_4 1_555 1_555
C7_4 O7_4 1_555 1_555
C7_4 O17 1_555 1_555
C10_4 C13_4 1_555 1_555
C11_4 C12_4 1_555 1_555
C23_4 C24_4 1_555 1_555
C25_4 C26_4 1_555 1_555
C27_4 N9_4 1_555 1_555
C33_4 O5_4 1_555 1_555
C36_4 C39_4 1_555 1_555
C37_4 C38_4 1_555 1_555
C40_4 N10_4 1_555 1_555
C41_4 N12_4 1_555 1_555
C42_4 C48_4 1_555 1_555
C42_4 N11_4 1_555 1_555
C1_4 C3_4 1_555 1_555
C2_4 H1_4 1_555 1_555
C3_4 C2_4 1_555 1_555
C4_4 C3_4 1_555 1_555
H2_4 C4_4 1_555 1_555
C5_4 C2_4 1_555 1_555
H3_4 C5_4 1_555 1_555
C6_2 C4_4 1_555 1_555
H4_2 C6_2 1_555 1_555
C14_2 N3_2 1_555 1_555
C15_2 N4_2 1_555 1_555
C16_2 N3_2 1_555 1_555
C17_4 C5_4 1_555 1_555
C18_4 C19_4 1_555 1_555
C19_4 H9_4 1_555 1_555
C43_4 C44_4 1_555 1_555
C44_4 H21_4 1_555 1_555
C45_4 C43_4 1_555 1_555
C46_4 C19_4 1_555 1_555
H22_4 C46_4 1_555 1_555
C47_4 C18_4 1_555 1_555
H23_4 C47_4 1_555 1_555
N4_2 C16_2 1_555 1_555
N5_2 C14_2 1_555 1_555
N6_2 C16_2 1_555 1_555
H25_2 N6_2 1_555 1_555
N8_2 C15_2 1_555 1_555
H27_2 N8_2 1_555 1_555
O13_2 C45_4 1_555 1_555
O14_2 C45_4 1_555 1_555
O21_2 C1_4 1_555 1_555
O22_2 C1_4 1_555 1_555
C6_2 C17_4 1_555 1_555
C15_2 N5_2 1_555 1_555
C17_4 N8_2 1_555 1_555
C18_4 N6_2 1_555 1_555
C43_4 C46_4 1_555 1_555
C44_4 C47_4 1_555 1_555
H4_3 C6_3 1_555 1_555
C14_3 N3_3 1_555 1_555
C15_3 N4_3 1_555 1_555
C16_3 N3_3 1_555 1_555
N4_3 C16_3 1_555 1_555
N5_3 C14_3 1_555 1_555
N8_3 C15_3 1_555 1_555
H27_3 N8_3 1_555 1_555
C15_3 N5_3 1_555 1_555
H25_3 N6_3 1_555 1_555
H25_4 N6_4 1_555 1_555
H4_4 C6_4 1_555 1_555
C14_4 N3_4 1_555 1_555
C15_4 N4_4 1_555 1_555
C16_4 N3_4 1_555 1_555
N4_4 C16_4 1_555 1_555
N5_4 C14_4 1_555 1_555
N8_4 C15_4 1_555 1_555
H27_4 N8_4 1_555 1_555
C15_4 N5_4 1_555 1_555

#END
