
###############################################################################
#
# This file contains modified crystal structure data generated from the
# MOF subset of the Cambridge Structural Database (CSD) v543 
# hosted by the Cambridge Crystallographic Data Centre (CCDC).
#
# This work is licensed under the Creative Commons
# Attribution-NonCommercial-ShareAlike 4.0 International License.
# To view a copy of this license, visit
# http://creativecommons.org/licenses/by-nc-sa/4.0/
# or send a letter to
# Creative Commons, PO Box 1866, Mountain View, CA 94042, USA.
#
# CIF created using the CSD Python API on 29 September 2022
# The structure has been converted into the P1 space group
# The structure has a 3D framework
# The original CSD entry ILIXUZ is in the monoclinic crystal system
# The framework has been calculated to contain at least 10.0% void space
# The void calculation uses a probe of radius 1.32A, grid spacing 0.4
#
###############################################################################

data_ILIXUZ
_chemical_formula_moiety         '(C192 H120 Gd8 N48 O44)n'
_symmetry_cell_setting           triclinic
_symmetry_space_group_name_H-M   'P 1'
_symmetry_Int_Tables_number      1
_space_group_name_Hall           'P 1'
loop_
_symmetry_equiv_pos_site_id
_symmetry_equiv_pos_as_xyz
1 x,y,z
_cell_length_a                   28.7882(13)
_cell_length_b                   22.6249(11)
_cell_length_c                   15.2517(7)
_cell_angle_alpha                90
_cell_angle_beta                 103.6260(10)
_cell_angle_gamma                90
_cell_volume                     9654.29
loop_
_atom_site_label
_atom_site_type_symbol
_atom_site_fract_x
_atom_site_fract_y
_atom_site_fract_z
C23 C 0.6441(2) 0.0361(3) 0.0817(4)
H11 H 0.646994 0.020614 0.139196
C24 C 0.6752(2) 0.0802(2) 0.0649(4)
H12 H 0.699053 0.093699 0.112942
C25 C 0.6080(2) 0.0160(2) 0.0070(3)
C28 C 0.6825(2) 0.0939(2) 0.4340(3)
C29 C 0.6497(2) 0.1019(2) 0.3541(3)
H14 H 0.646865 0.138343 0.325015
C30 C 0.71334(19) 0.1441(2) 0.4789(3)
C31 C 0.6202(2) 0.0543(3) 0.3163(4)
H15 H 0.598394 0.059774 0.261292
C32 C 0.6855(3) 0.0374(3) 0.4798(4)
H16 H 0.707062 0.032326 0.535184
O6 O 0.73395(13) 0.17583(14) 0.0326(2)
O9 O 0.70945(11) 0.19735(13) 0.4447(2)
O10 O 0.74264(15) 0.13461(15) 0.5537(2)
Gd4 Gd 0.76486(2) 0.23520(2) 0.59190(2)
Gd6 Gd 0.76486(2) 0.26480(2) 0.09190(2)
Gd10 Gd 0.73435(2) 0.24880(2) 0.32594(2)
C20 C 0.7042(2) 0.1545(2) 0.9658(3)
C21 C 0.6720(2) 0.1049(2) 0.9801(3)
C22 C 0.6376(2) 0.0832(2) 0.9076(4)
H10 H 0.635844 0.097649 0.849834
C26 C 0.6056(2) 0.0398(3) 0.9212(4)
H13 H 0.582203 0.026358 0.872302
O3 O 0.69999(15) 0.17461(15) 0.8860(2)
Gd8 Gd 0.73435(2) 0.25120(2) 0.82594(2)
C7 C 0.16327(17) 0.76032(19) 0.0039(3)
C8 C 0.12236(17) 0.7760(2) 0.0434(3)
C9 C 0.11747(19) 0.7554(2) 0.1281(4)
H5 H 0.139189 0.728158 0.160108
C10 C 0.0502(2) 0.8340(3) 0.0279(4)
C11 C 0.0467(2) 0.8152(2) 0.1143(4)
C12 C 0.0809(2) 0.7754(2) 0.1632(4)
H7 H 0.078442 0.762578 0.219933
C27 C 0.5626(2) 0.9479(2) 0.0905(4)
H17 H 0.360567 0.727055 0.009443
C37 C 0.41687(19) 0.7751(2) 0.0702(3)
H19 H 0.418047 0.761475 0.128185
C38 C 0.45047(19) 0.8166(2) 0.0555(3)
C40 C 0.5171(2) 0.8810(2) 0.1426(4)
C41 C 0.5706(2) 0.9369(3) 0.2409(4)
C42 C 0.6226(2) 0.9988(3) 0.3587(4)
C48 C 0.6564(3) 0.9907(3) 0.4411(4)
H24 H 0.659196 0.954165 0.469651
N1 N 0.52795(17) 0.9054(2) 0.0696(3)
N2 N 0.58518(19) 0.9653(2) 0.1725(3)
N7 N 0.01195(17) 0.8364(2) 0.1589(3)
H26 H 0.012131 0.819735 0.209659
N9 N 0.57461(19) 0.9713(2) 0.0139(3)
N10 N 0.48343(18) 0.8368(2) 0.1330(3)
H29 H 0.482367 0.818653 0.182082
N11 N 0.5921(2) 0.9510(2) 0.3273(3)
H30 H 0.586230 0.927816 0.368004
N12 N 0.5373(2) 0.8934(2) 0.2323(3)
O8 O 0.20072(12) 0.73563(14) 0.0523(2)
Gd11 Gd 0.26565(2) 0.74880(2) 0.17406(2)
O18 O 0.29055(11) 0.69735(13) 0.0553(2)
Gd1 Gd 0.23514(2) 0.73520(2) 0.90810(2)
Gd2 Gd 0.26565(2) 0.75120(2) 0.67406(2)
H6 H 0.027634 0.859834 0.994674
C13 C 0.0873(2) 0.8138(3) 0.9933(4)
H8 H 0.089098 0.825263 0.935631
C33 C 0.34010(17) 0.75840(19) 0.8319(4)
C34 C 0.37950(16) 0.7746(2) 0.9121(3)
C35 C 0.3825(2) 0.7548(2) 0.9992(4)
C36 C 0.4499(2) 0.8339(3) 0.9651(4)
H18 H 0.473805 0.858313 0.953833
C39 C 0.4139(2) 0.8144(2) 0.8949(4)
H20 H 0.412265 0.827502 0.836476
H28 H 0.559472 0.956216 0.963456
O4 O 0.34266(14) 0.76988(17) 0.7542(2)
O5 O 0.30268(12) 0.73299(15) 0.8459(2)
O7 O 0.16128(13) 0.77241(17) 0.9228(2)
O13 O 0.18294(15) 0.67162(15) 0.8145(2)
O14 O 0.22491(15) 0.67284(17) 0.7093(3)
O15 O 0.30001(15) 0.67461(15) 0.6140(2)
O16 O 0.26605(13) 0.82417(14) 0.9674(2)
O17 O 0.20072(12) 0.76437(14) 0.5523(2)
O19 O 0.29055(11) 0.80265(13) 0.5553(2)
O20 O 0.25736(15) 0.63461(15) 0.9463(2)
O21 O 0.21623(11) 0.79719(13) 0.77579(19)
O22 O 0.25445(13) 0.85527(14) 0.6998(2)
C1 C 0.77642(17) 0.1511(2) 0.2549(3)
C2 C 0.8405(2) 0.1036(2) 0.1932(4)
H1 H 0.843467 0.138483 0.162596
C3 C 0.80651(19) 0.0985(2) 0.2433(3)
C4 C 0.8020(2) 0.0434(2) 0.2869(4)
H2 H 0.779212 0.039844 0.320928
C5 C 0.8708(3) 0.0550(3) 0.1891(5)
H3 H 0.894676 0.058737 0.157689
C17 C 0.8656(2) 0.0011(3) 0.2316(4)
O11 O 0.78377(11) 0.20281(13) 0.22421(19)
O12 O 0.74555(13) 0.14473(14) 0.3002(2)
C18 C 0.8976(2) 0.0132(2) 0.9023(4)
C19 C 0.9045(2) 0.0347(3) 0.8219(4)
H9 H 0.929395 0.019726 0.799287
C43 C 0.8380(2) 0.1021(2) 0.8065(4)
C44 C 0.8300(2) 0.0788(3) 0.8855(4)
H21 H 0.804487 0.093222 0.906896
C45 C 0.8087(2) 0.1524(2) 0.7564(4)
C46 C 0.8749(2) 0.0784(3) 0.7735(4)
H22 H 0.879973 0.091656 0.718763
C47 C 0.8587(2) 0.0342(3) 0.9347(4)
H23 H 0.852183 0.018925 0.987162
O1 O 0.81706(15) 0.17162(15) 0.6855(2)
O2 O 0.77509(15) 0.17284(17) 0.7907(3)
C1_2 C 0.22358(17) 0.6511(2) 0.2451(3)
C2_2 C 0.1595(2) 0.6036(2) 0.3068(4)
H1_2 H 0.156533 0.638483 0.337404
C3_2 C 0.19349(19) 0.5985(2) 0.2567(3)
C4_2 C 0.1980(2) 0.5434(2) 0.2131(4)
H2_2 H 0.220788 0.539844 0.179072
C5_2 C 0.1292(3) 0.5550(3) 0.3109(5)
H3_2 H 0.105324 0.558737 0.342311
C6 C 0.1695(3) 0.4953(2) 0.2204(4)
H4 H 0.173734 0.459480 0.193288
C14 C 0.0216(2) 0.3792(2) 0.3670(4)
C15 C 0.0784(2) 0.4369(3) 0.3290(4)
C16 C 0.0638(2) 0.4441(2) 0.4677(4)
C17_2 C 0.1344(2) 0.5011(3) 0.2684(4)
C18_2 C 0.1024(2) 0.5132(2) 0.5977(4)
C19_2 C 0.0955(2) 0.5347(3) 0.6781(4)
H9_2 H 0.070605 0.519726 0.700713
C43_2 C 0.1620(2) 0.6021(2) 0.6935(4)
C44_2 C 0.1700(2) 0.5788(3) 0.6145(4)
H21_2 H 0.195513 0.593222 0.593104
C45_2 C 0.1913(2) 0.6524(2) 0.7436(4)
C46_2 C 0.1251(2) 0.5784(3) 0.7265(4)
H22_2 H 0.120027 0.591656 0.781237
C47_2 C 0.1413(2) 0.5342(3) 0.5653(4)
H23_2 H 0.147817 0.518925 0.512838
N3 N 0.02913(18) 0.4028(2) 0.4505(3)
N4 N 0.08998(19) 0.4631(2) 0.4111(3)
N5 N 0.04533(19) 0.3929(2) 0.3027(3)
N6 N 0.0711(2) 0.4686(2) 0.5536(3)
H25 H 0.053120 0.453904 0.585902
N8 N 0.1029(2) 0.4516(2) 0.2658(3)
H27 H 0.098993 0.428853 0.219411
O11_2 O 0.21623(11) 0.70281(13) 0.27579(19)
O12_2 O 0.25445(13) 0.64473(14) 0.1998(2)
Gd5 Gd 0.23514(2) 0.76480(2) 0.40810(2)
C7_2 C 0.83673(17) 0.26032(19) 0.4961(3)
C8_2 C 0.87764(17) 0.2760(2) 0.4566(3)
C9_2 C 0.88253(19) 0.2554(2) 0.3719(4)
H5_2 H 0.860811 0.228158 0.339892
C10_2 C 0.9498(2) 0.3340(3) 0.4721(4)
H6_2 H 0.972366 0.359834 0.505326
C11_2 C 0.9533(2) 0.3152(2) 0.3857(4)
C12_2 C 0.9191(2) 0.2754(2) 0.3368(4)
H7_2 H 0.921558 0.262578 0.280067
C13_2 C 0.9127(2) 0.3138(3) 0.5067(4)
H8_2 H 0.910902 0.325263 0.564369
C20_2 C 0.2958(2) 0.6545(2) 0.5342(3)
C21_2 C 0.3280(2) 0.6049(2) 0.5199(3)
C22_2 C 0.3624(2) 0.5832(2) 0.5924(4)
H10_2 H 0.364156 0.597649 0.650166
C23_2 C 0.3559(2) 0.5361(3) 0.4183(4)
H11_2 H 0.353006 0.520614 0.360804
C24_2 C 0.3248(2) 0.5802(2) 0.4351(4)
H12_2 H 0.300947 0.593699 0.387058
C25_2 C 0.3920(2) 0.5160(2) 0.4930(3)
C26_2 C 0.3944(2) 0.5398(3) 0.5788(4)
H13_2 H 0.417797 0.526358 0.627698
C27_2 C 0.4374(2) 0.4479(2) 0.4095(4)
C28_2 C 0.3175(2) 0.5939(2) 0.0660(3)
C29_2 C 0.3503(2) 0.6019(2) 0.1459(3)
H14_2 H 0.353135 0.638343 0.174985
C30_2 C 0.28666(19) 0.6441(2) 0.0211(3)
C31_2 C 0.3798(2) 0.5543(3) 0.1837(4)
H15_2 H 0.401606 0.559774 0.238708
C32_2 C 0.3145(3) 0.5374(3) 0.0202(4)
C33_2 C 0.65990(17) 0.25840(19) 0.6681(4)
C34_2 C 0.62050(16) 0.2746(2) 0.5879(3)
C35_2 C 0.6175(2) 0.2548(2) 0.5008(4)
H17_2 H 0.639433 0.227055 0.490557
C36_2 C 0.5501(2) 0.3339(3) 0.5349(4)
H18_2 H 0.526195 0.358313 0.546167
C37_2 C 0.58313(19) 0.2751(2) 0.4298(3)
H19_2 H 0.581953 0.261475 0.371815
C38_2 C 0.54953(19) 0.3166(2) 0.4445(3)
C39_2 C 0.5861(2) 0.3144(2) 0.6051(4)
H20_2 H 0.587735 0.327502 0.663524
C40_2 C 0.4829(2) 0.3810(2) 0.3574(4)
C41_2 C 0.4294(2) 0.4369(3) 0.2591(4)
C42_2 C 0.3774(2) 0.4988(3) 0.1413(4)
C48_2 C 0.3436(3) 0.4907(3) 0.0589(4)
H24_2 H 0.340804 0.454165 0.030349
N1_2 N 0.47205(17) 0.4054(2) 0.4304(3)
N2_2 N 0.41482(19) 0.4653(2) 0.3275(3)
N7_2 N 0.98805(17) 0.3364(2) 0.3411(3)
H26_2 H 0.987869 0.319735 0.290341
N9_2 N 0.42539(19) 0.4713(2) 0.4861(3)
H28_2 H 0.440528 0.456216 0.536544
N10_2 N 0.51657(18) 0.3368(2) 0.3670(3)
H29_2 H 0.517633 0.318653 0.317918
N11_2 N 0.4079(2) 0.4510(2) 0.1727(3)
H30_2 H 0.413770 0.427816 0.131996
N12_2 N 0.4627(2) 0.3934(2) 0.2677(3)
O4_2 O 0.65734(14) 0.26988(17) 0.7458(2)
O5_2 O 0.69732(12) 0.23299(15) 0.6541(2)
O6_2 O 0.26605(13) 0.67583(14) 0.4674(2)
O7_2 O 0.83872(13) 0.27241(17) 0.5772(2)
O8_2 O 0.79928(12) 0.23563(14) 0.4477(2)
O16_2 O 0.73395(13) 0.32417(14) 0.5326(2)
O17_2 O 0.79928(12) 0.26437(14) 0.9477(2)
O19_2 O 0.70945(11) 0.30265(13) 0.9447(2)
O21_2 O 0.78377(11) 0.29719(13) 0.72421(19)
O22_2 O 0.74555(13) 0.35527(14) 0.8002(2)
H16_2 H 0.292938 0.532326 0.964816
C18_3 C 0.1024(2) 0.9868(2) 0.0977(4)
C19_3 C 0.0955(2) 0.9653(3) 0.1781(4)
H9_3 H 0.070605 0.980274 0.200713
C43_3 C 0.1620(2) 0.8979(2) 0.1935(4)
C44_3 C 0.1700(2) 0.9212(3) 0.1145(4)
H21_3 H 0.195513 0.906778 0.093104
C45_3 C 0.1913(2) 0.8476(2) 0.2436(4)
C46_3 C 0.1251(2) 0.9216(3) 0.2265(4)
H22_3 H 0.120027 0.908344 0.281237
C47_3 C 0.1413(2) 0.9658(3) 0.0653(4)
H23_3 H 0.147817 0.981075 0.012838
O1_2 O 0.18294(15) 0.82838(15) 0.3145(2)
O2_2 O 0.22491(15) 0.82716(17) 0.2093(3)
C1_3 C 0.22358(17) 0.8489(2) 0.7451(3)
C2_3 C 0.1595(2) 0.8964(2) 0.8068(4)
H1_3 H 0.156533 0.861517 0.837404
C3_3 C 0.19349(19) 0.9015(2) 0.7567(3)
C4_3 C 0.1980(2) 0.9566(2) 0.7131(4)
H2_3 H 0.220788 0.960156 0.679072
C5_3 C 0.1292(3) 0.9450(3) 0.8109(5)
H3_3 H 0.105324 0.941263 0.842311
C17_3 C 0.1344(2) 0.9989(3) 0.7684(4)
H6_3 H 0.972366 0.140166 0.005326
C13_3 C 0.9127(2) 0.1862(3) 0.0067(4)
H8_3 H 0.910902 0.174737 0.064369
C33_3 C 0.65990(17) 0.24160(19) 0.1681(4)
C34_3 C 0.62050(16) 0.2254(2) 0.0879(3)
C35_3 C 0.6175(2) 0.2452(2) 0.0008(4)
C36_3 C 0.5501(2) 0.1661(3) 0.0349(4)
H18_3 H 0.526195 0.141687 0.046167
C39_3 C 0.5861(2) 0.1856(2) 0.1051(4)
H20_3 H 0.587735 0.172498 0.163524
H28_3 H 0.440528 0.043784 0.036544
O4_3 O 0.65734(14) 0.23012(17) 0.2458(2)
O5_3 O 0.69732(12) 0.26701(15) 0.1541(2)
O7_3 O 0.83872(13) 0.22759(17) 0.0772(2)
O13_2 O 0.81706(15) 0.32838(15) 0.1855(2)
O14_2 O 0.77509(15) 0.32716(17) 0.2907(3)
O15_2 O 0.69999(15) 0.32539(15) 0.3860(2)
O20_2 O 0.74264(15) 0.36539(15) 0.0537(2)
C7_3 C 0.83673(17) 0.23968(19) 0.9961(3)
C8_3 C 0.87764(17) 0.2240(2) 0.9566(3)
C9_3 C 0.88253(19) 0.2446(2) 0.8719(4)
H5_3 H 0.860811 0.271842 0.839892
C10_3 C 0.9498(2) 0.1660(3) 0.9721(4)
C11_3 C 0.9533(2) 0.1848(2) 0.8857(4)
C12_3 C 0.9191(2) 0.2246(2) 0.8368(4)
H7_3 H 0.921558 0.237422 0.780067
C27_3 C 0.4374(2) 0.0521(2) 0.9095(4)
H17_3 H 0.639433 0.272945 0.990557
C37_3 C 0.58313(19) 0.2249(2) 0.9298(3)
H19_3 H 0.581953 0.238525 0.871815
C38_3 C 0.54953(19) 0.1834(2) 0.9445(3)
C40_3 C 0.4829(2) 0.1190(2) 0.8574(4)
C41_3 C 0.4294(2) 0.0631(3) 0.7591(4)
C42_3 C 0.3774(2) 0.0012(3) 0.6413(4)
C48_3 C 0.3436(3) 0.0093(3) 0.5589(4)
H24_3 H 0.340804 0.045835 0.530349
N1_3 N 0.47205(17) 0.0946(2) 0.9304(3)
N2_3 N 0.41482(19) 0.0347(2) 0.8275(3)
N7_3 N 0.98805(17) 0.1636(2) 0.8411(3)
H26_3 H 0.987869 0.180265 0.790341
N9_3 N 0.42539(19) 0.0287(2) 0.9861(3)
N10_3 N 0.51657(18) 0.1632(2) 0.8670(3)
H29_3 H 0.517633 0.181347 0.817918
N11_3 N 0.4079(2) 0.0490(2) 0.6727(3)
H30_3 H 0.413770 0.072184 0.631996
N12_3 N 0.4627(2) 0.1066(2) 0.7677(3)
C20_3 C 0.2958(2) 0.8455(2) 0.0342(3)
C21_3 C 0.3280(2) 0.8951(2) 0.0199(3)
C22_3 C 0.3624(2) 0.9168(2) 0.0924(4)
H10_3 H 0.364156 0.902351 0.150166
C26_3 C 0.3944(2) 0.9602(3) 0.0788(4)
H13_3 H 0.417797 0.973642 0.127698
O3_2 O 0.30001(15) 0.82539(15) 0.1140(2)
C23_3 C 0.3559(2) 0.9639(3) 0.9183(4)
H11_3 H 0.353006 0.979386 0.860804
C24_3 C 0.3248(2) 0.9198(2) 0.9351(4)
H12_3 H 0.300947 0.906301 0.887058
C25_3 C 0.3920(2) 0.9840(2) 0.9930(3)
C28_3 C 0.3175(2) 0.9061(2) 0.5660(3)
C29_3 C 0.3503(2) 0.8981(2) 0.6459(3)
H14_3 H 0.353135 0.861657 0.674985
C30_3 C 0.28666(19) 0.8559(2) 0.5211(3)
C31_3 C 0.3798(2) 0.9457(3) 0.6837(4)
H15_3 H 0.401606 0.940226 0.738708
C32_3 C 0.3145(3) 0.9626(3) 0.5202(4)
H16_3 H 0.292938 0.967674 0.464816
O10_2 O 0.25736(15) 0.86539(15) 0.4463(2)
H16_4 H 0.707062 0.467674 0.035184
C7_4 C 0.16327(17) 0.73968(19) 0.5039(3)
C8_4 C 0.12236(17) 0.7240(2) 0.5434(3)
C9_4 C 0.11747(19) 0.7446(2) 0.6281(4)
H5_4 H 0.139189 0.771842 0.660108
C10_4 C 0.0502(2) 0.6660(3) 0.5279(4)
H6_4 H 0.027634 0.640166 0.494674
C11_4 C 0.0467(2) 0.6848(2) 0.6143(4)
C12_4 C 0.0809(2) 0.7246(2) 0.6632(4)
H7_4 H 0.078442 0.737422 0.719933
C13_4 C 0.0873(2) 0.6862(3) 0.4933(4)
H8_4 H 0.089098 0.674737 0.435631
C20_4 C 0.7042(2) 0.3455(2) 0.4658(3)
C21_4 C 0.6720(2) 0.3951(2) 0.4801(3)
C22_4 C 0.6376(2) 0.4168(2) 0.4076(4)
H10_4 H 0.635844 0.402351 0.349834
C23_4 C 0.6441(2) 0.4639(3) 0.5817(4)
H11_4 H 0.646994 0.479386 0.639196
C24_4 C 0.6752(2) 0.4198(2) 0.5649(4)
H12_4 H 0.699053 0.406301 0.612942
C25_4 C 0.6080(2) 0.4840(2) 0.5070(3)
C26_4 C 0.6056(2) 0.4602(3) 0.4212(4)
H13_4 H 0.582203 0.473642 0.372302
C27_4 C 0.5626(2) 0.5521(2) 0.5905(4)
C28_4 C 0.6825(2) 0.4061(2) 0.9340(3)
C29_4 C 0.6497(2) 0.3981(2) 0.8541(3)
H14_4 H 0.646865 0.361657 0.825015
C30_4 C 0.71334(19) 0.3559(2) 0.9789(3)
C31_4 C 0.6202(2) 0.4457(3) 0.8163(4)
H15_4 H 0.598394 0.440226 0.761292
C32_4 C 0.6855(3) 0.4626(3) 0.9798(4)
C33_4 C 0.34010(17) 0.74160(19) 0.3319(4)
C34_4 C 0.37950(16) 0.7254(2) 0.4121(3)
C35_4 C 0.3825(2) 0.7452(2) 0.4992(4)
H17_4 H 0.360567 0.772945 0.509443
C36_4 C 0.4499(2) 0.6661(3) 0.4651(4)
H18_4 H 0.473805 0.641687 0.453833
C37_4 C 0.41687(19) 0.7249(2) 0.5702(3)
H19_4 H 0.418047 0.738525 0.628185
C38_4 C 0.45047(19) 0.6834(2) 0.5555(3)
C39_4 C 0.4139(2) 0.6856(2) 0.3949(4)
H20_4 H 0.412265 0.672498 0.336476
C40_4 C 0.5171(2) 0.6190(2) 0.6426(4)
C41_4 C 0.5706(2) 0.5631(3) 0.7409(4)
C42_4 C 0.6226(2) 0.5012(3) 0.8587(4)
C48_4 C 0.6564(3) 0.5093(3) 0.9411(4)
H24_4 H 0.659196 0.545835 0.969651
N1_4 N 0.52795(17) 0.5946(2) 0.5696(3)
N2_4 N 0.58518(19) 0.5347(2) 0.6725(3)
N7_4 N 0.01195(17) 0.6636(2) 0.6589(3)
H26_4 H 0.012131 0.680265 0.709659
N9_4 N 0.57461(19) 0.5287(2) 0.5139(3)
H28_4 H 0.559472 0.543784 0.463456
N10_4 N 0.48343(18) 0.6632(2) 0.6330(3)
H29_4 H 0.482367 0.681347 0.682082
N11_4 N 0.5921(2) 0.5490(2) 0.8273(3)
H30_4 H 0.586230 0.572184 0.868004
N12_4 N 0.5373(2) 0.6066(2) 0.7323(3)
O4_4 O 0.34266(14) 0.73012(17) 0.2542(2)
O5_4 O 0.30268(12) 0.76701(15) 0.3459(2)
O7_4 O 0.16128(13) 0.72759(17) 0.4228(2)
C1_4 C 0.77642(17) 0.3489(2) 0.7549(3)
C2_4 C 0.8405(2) 0.3964(2) 0.6932(4)
H1_4 H 0.843467 0.361517 0.662596
C3_4 C 0.80651(19) 0.4015(2) 0.7433(3)
C4_4 C 0.8020(2) 0.4566(2) 0.7869(4)
H2_4 H 0.779212 0.460156 0.820928
C5_4 C 0.8708(3) 0.4450(3) 0.6891(5)
H3_4 H 0.894676 0.441263 0.657689
C6_2 C 0.8305(3) 0.5047(2) 0.7796(4)
H4_2 H 0.826266 0.540520 0.806712
C14_2 C 0.9784(2) 0.6208(2) 0.6330(4)
C15_2 C 0.9216(2) 0.5631(3) 0.6710(4)
C16_2 C 0.9362(2) 0.5559(2) 0.5323(4)
C17_4 C 0.8656(2) 0.4989(3) 0.7316(4)
C18_4 C 0.8976(2) 0.4868(2) 0.4023(4)
C19_4 C 0.9045(2) 0.4653(3) 0.3219(4)
H9_4 H 0.929395 0.480274 0.299287
C43_4 C 0.8380(2) 0.3979(2) 0.3065(4)
C44_4 C 0.8300(2) 0.4212(3) 0.3855(4)
H21_4 H 0.804487 0.406778 0.406896
C45_4 C 0.8087(2) 0.3476(2) 0.2564(4)
C46_4 C 0.8749(2) 0.4216(3) 0.2735(4)
H22_4 H 0.879973 0.408344 0.218763
C47_4 C 0.8587(2) 0.4658(3) 0.4347(4)
H23_4 H 0.852183 0.481075 0.487162
N3_2 N 0.97087(18) 0.5972(2) 0.5495(3)
N4_2 N 0.91002(19) 0.5369(2) 0.5889(3)
N5_2 N 0.95467(19) 0.6071(2) 0.6973(3)
N6_2 N 0.9289(2) 0.5314(2) 0.4464(3)
H25_2 H 0.946880 0.546096 0.414098
N8_2 N 0.8971(2) 0.5484(2) 0.7342(3)
H27_2 H 0.901007 0.571147 0.780589
C6_3 C 0.8305(3) 0.9953(2) 0.2796(4)
H4_3 H 0.826266 0.959480 0.306712
C14_3 C 0.9784(2) 0.8792(2) 0.1330(4)
C15_3 C 0.9216(2) 0.9369(3) 0.1710(4)
C16_3 C 0.9362(2) 0.9441(2) 0.0323(4)
N3_3 N 0.97087(18) 0.9028(2) 0.0495(3)
N4_3 N 0.91002(19) 0.9631(2) 0.0889(3)
N5_3 N 0.95467(19) 0.8929(2) 0.1973(3)
N8_3 N 0.8971(2) 0.9516(2) 0.2342(3)
H27_3 H 0.901007 0.928853 0.280589
N6_3 N 0.9289(2) 0.9686(2) 0.9464(3)
H25_3 H 0.946880 0.953904 0.914098
N6_4 N 0.0711(2) 0.0314(2) 0.0536(3)
H25_4 H 0.053120 0.046096 0.085902
C6_4 C 0.1695(3) 0.0047(2) 0.7204(4)
H4_4 H 0.173734 0.040520 0.693288
C14_4 C 0.0216(2) 0.1208(2) 0.8670(4)
C15_4 C 0.0784(2) 0.0631(3) 0.8290(4)
C16_4 C 0.0638(2) 0.0559(2) 0.9677(4)
N3_4 N 0.02913(18) 0.0972(2) 0.9505(3)
N4_4 N 0.08998(19) 0.0369(2) 0.9111(3)
N5_4 N 0.04533(19) 0.1071(2) 0.8027(3)
N8_4 N 0.1029(2) 0.0484(2) 0.7658(3)
H27_4 H 0.098993 0.071147 0.719411
loop_
_geom_bond_atom_site_label_1
_geom_bond_atom_site_label_2
_geom_bond_site_symmetry_1
_geom_bond_site_symmetry_2
C23 H11 1_555 1_555
H12 C24 1_555 1_555
C25 C23 1_555 1_555
C28 C29 1_555 1_555
C29 H14 1_555 1_555
C30 C28 1_555 1_555
C31 C29 1_555 1_555
H15 C31 1_555 1_555
C32 C28 1_555 1_555
H16 C32 1_555 1_555
O9 C30 1_555 1_555
O10 C30 1_555 1_555
Gd4 O9 1_555 1_555
Gd6 O6 1_555 1_555
Gd10 O9 1_555 1_555
C23 C24 1_555 1_555
O10 Gd4 1_555 1_555
C20 C21 1_555 1_555
C21 C22 1_555 1_555
C22 H10 1_555 1_555
C26 C22 1_555 1_555
H13 C26 1_555 1_555
O3 C20 1_555 1_555
Gd8 O3 1_555 1_555
C7 C8 1_555 1_555
C8 C9 1_555 1_555
C9 H5 1_555 1_555
C11 C10 1_555 1_555
C12 C9 1_555 1_555
H7 C12 1_555 1_555
C27 N1 1_555 1_555
H19 C37 1_555 1_555
C40 N1 1_555 1_555
C41 N2 1_555 1_555
H24 C48 1_555 1_555
N2 C27 1_555 1_555
N7 C11 1_555 1_555
H26 N7 1_555 1_555
N10 C38 1_555 1_555
H29 N10 1_555 1_555
N11 C41 1_555 1_555
H30 N11 1_555 1_555
N12 C40 1_555 1_555
Gd11 O8 1_555 1_555
C7 O8 1_555 1_555
C11 C12 1_555 1_555
C27 N9 1_555 1_555
C37 C38 1_555 1_555
C40 N10 1_555 1_555
C41 N12 1_555 1_555
C42 C48 1_555 1_555
C42 N11 1_555 1_555
Gd11 O18 1_555 1_555
Gd1 O5 1_555 1_555
Gd2 O4 1_555 1_555
H8 C13 1_555 1_555
C33 C34 1_555 1_555
C34 C35 1_555 1_555
C36 H18 1_555 1_555
C39 C34 1_555 1_555
H20 C39 1_555 1_555
O4 C33 1_555 1_555
O5 Gd2 1_555 1_555
O7 Gd1 1_555 1_555
O13 Gd1 1_555 1_555
O14 Gd2 1_555 1_555
O15 Gd2 1_555 1_555
O16 Gd1 1_555 1_555
O17 Gd2 1_555 1_555
O19 Gd2 1_555 1_555
O20 Gd1 1_555 1_555
O21 Gd1 1_555 1_555
O22 Gd2 1_555 1_555
Gd2 O21 1_555 1_555
C33 O5 1_555 1_555
C36 C39 1_555 1_555
C1 C3 1_555 1_555
C2 H1 1_555 1_555
C3 C2 1_555 1_555
C4 C3 1_555 1_555
H2 C4 1_555 1_555
C5 C2 1_555 1_555
H3 C5 1_555 1_555
C17 C5 1_555 1_555
O11 C1 1_555 1_555
O12 C1 1_555 1_555
Gd6 O11 1_555 1_555
Gd10 O11 1_555 1_555
O12 Gd10 1_555 1_555
C18 C19 1_555 1_555
C19 H9 1_555 1_555
C43 C44 1_555 1_555
C44 H21 1_555 1_555
C45 C43 1_555 1_555
C46 C19 1_555 1_555
H22 C46 1_555 1_555
C47 C18 1_555 1_555
H23 C47 1_555 1_555
O1 C45 1_555 1_555
O2 C45 1_555 1_555
Gd4 O1 1_555 1_555
Gd8 O2 1_555 1_555
C43 C46 1_555 1_555
C44 C47 1_555 1_555
C1_2 C3_2 1_555 1_555
C2_2 H1_2 1_555 1_555
C3_2 C2_2 1_555 1_555
C4_2 C3_2 1_555 1_555
H2_2 C4_2 1_555 1_555
C5_2 C2_2 1_555 1_555
H3_2 C5_2 1_555 1_555
C6 C4_2 1_555 1_555
H4 C6 1_555 1_555
C14 N3 1_555 1_555
C15 N4 1_555 1_555
C16 N3 1_555 1_555
C17_2 C5_2 1_555 1_555
C18_2 C19_2 1_555 1_555
C19_2 H9_2 1_555 1_555
C43_2 C44_2 1_555 1_555
C44_2 H21_2 1_555 1_555
C45_2 C43_2 1_555 1_555
C46_2 C19_2 1_555 1_555
H22_2 C46_2 1_555 1_555
C47_2 C18_2 1_555 1_555
H23_2 C47_2 1_555 1_555
N4 C16 1_555 1_555
N5 C14 1_555 1_555
N6 C16 1_555 1_555
H25 N6 1_555 1_555
N8 C15 1_555 1_555
H27 N8 1_555 1_555
O13 C45_2 1_555 1_555
O14 C45_2 1_555 1_555
O11_2 C1_2 1_555 1_555
O12_2 C1_2 1_555 1_555
Gd5 O11_2 1_555 1_555
Gd11 O11_2 1_555 1_555
C6 C17_2 1_555 1_555
C15 N5 1_555 1_555
C17_2 N8 1_555 1_555
C18_2 N6 1_555 1_555
C43_2 C46_2 1_555 1_555
C44_2 C47_2 1_555 1_555
O12_2 Gd11 1_555 1_555
Gd4 O5_2 1_555 1_555
Gd8 O4_2 1_555 1_555
C7_2 C8_2 1_555 1_555
C8_2 C9_2 1_555 1_555
C9_2 H5_2 1_555 1_555
C10_2 H6_2 1_555 1_555
C11_2 C10_2 1_555 1_555
C12_2 C9_2 1_555 1_555
H7_2 C12_2 1_555 1_555
C13_2 C8_2 1_555 1_555
H8_2 C13_2 1_555 1_555
C20_2 C21_2 1_555 1_555
C21_2 C22_2 1_555 1_555
C22_2 H10_2 1_555 1_555
C23_2 H11_2 1_555 1_555
C24_2 C21_2 1_555 1_555
H12_2 C24_2 1_555 1_555
C25_2 C23_2 1_555 1_555
C26_2 C22_2 1_555 1_555
H13_2 C26_2 1_555 1_555
C27_2 N1_2 1_555 1_555
C28_2 C29_2 1_555 1_555
C29_2 H14_2 1_555 1_555
C30_2 C28_2 1_555 1_555
C31_2 C29_2 1_555 1_555
H15_2 C31_2 1_555 1_555
C32_2 C28_2 1_555 1_555
C33_2 C34_2 1_555 1_555
C34_2 C35_2 1_555 1_555
C35_2 H17_2 1_555 1_555
C36_2 H18_2 1_555 1_555
C37_2 C35_2 1_555 1_555
H19_2 C37_2 1_555 1_555
C38_2 C36_2 1_555 1_555
C39_2 C34_2 1_555 1_555
H20_2 C39_2 1_555 1_555
C40_2 N1_2 1_555 1_555
C41_2 N2_2 1_555 1_555
C42_2 C31_2 1_555 1_555
C48_2 C32_2 1_555 1_555
H24_2 C48_2 1_555 1_555
N2_2 C27_2 1_555 1_555
N7_2 C11_2 1_555 1_555
H26_2 N7_2 1_555 1_555
N9_2 C25_2 1_555 1_555
H28_2 N9_2 1_555 1_555
N10_2 C38_2 1_555 1_555
H29_2 N10_2 1_555 1_555
N11_2 C41_2 1_555 1_555
H30_2 N11_2 1_555 1_555
N12_2 C40_2 1_555 1_555
O15 C20_2 1_555 1_555
O4_2 C33_2 1_555 1_555
O5_2 Gd8 1_555 1_555
O6_2 C20_2 1_555 1_555
O7_2 Gd4 1_555 1_555
O8_2 Gd4 1_555 1_555
O18 C30_2 1_555 1_555
Gd5 O6_2 1_555 1_555
Gd10 O8_2 1_555 1_555
O16_2 Gd4 1_555 1_555
O17_2 Gd8 1_555 1_555
O19_2 Gd8 1_555 1_555
O21_2 Gd4 1_555 1_555
O22_2 Gd8 1_555 1_555
Gd8 O21_2 1_555 1_555
C7_2 O7_2 1_555 1_555
C7_2 O8_2 1_555 1_555
C10_2 C13_2 1_555 1_555
C11_2 C12_2 1_555 1_555
C23_2 C24_2 1_555 1_555
C25_2 C26_2 1_555 1_555
C27_2 N9_2 1_555 1_555
C33_2 O5_2 1_555 1_555
C36_2 C39_2 1_555 1_555
C37_2 C38_2 1_555 1_555
C40_2 N10_2 1_555 1_555
C41_2 N12_2 1_555 1_555
C42_2 C48_2 1_555 1_555
C42_2 N11_2 1_555 1_555
C18_3 C19_3 1_555 1_555
C19_3 H9_3 1_555 1_555
C43_3 C44_3 1_555 1_555
C44_3 H21_3 1_555 1_555
C45_3 C43_3 1_555 1_555
C46_3 C19_3 1_555 1_555
H22_3 C46_3 1_555 1_555
C47_3 C18_3 1_555 1_555
H23_3 C47_3 1_555 1_555
O1_2 C45_3 1_555 1_555
O2_2 C45_3 1_555 1_555
Gd5 O1_2 1_555 1_555
Gd11 O2_2 1_555 1_555
C43_3 C46_3 1_555 1_555
C44_3 C47_3 1_555 1_555
C1_3 C3_3 1_555 1_555
C2_3 H1_3 1_555 1_555
C3_3 C2_3 1_555 1_555
C4_3 C3_3 1_555 1_555
H2_3 C4_3 1_555 1_555
C5_3 C2_3 1_555 1_555
H3_3 C5_3 1_555 1_555
C17_3 C5_3 1_555 1_555
O21 C1_3 1_555 1_555
O22 C1_3 1_555 1_555
Gd6 O5_3 1_555 1_555
Gd10 O4_3 1_555 1_555
H8_3 C13_3 1_555 1_555
C33_3 C34_3 1_555 1_555
C34_3 C35_3 1_555 1_555
C36_3 H18_3 1_555 1_555
C39_3 C34_3 1_555 1_555
H20_3 C39_3 1_555 1_555
O4_3 C33_3 1_555 1_555
O5_3 Gd10 1_555 1_555
O7_3 Gd6 1_555 1_555
O13_2 Gd6 1_555 1_555
O14_2 Gd10 1_555 1_555
O15_2 Gd10 1_555 1_555
O20_2 Gd6 1_555 1_555
C33_3 O5_3 1_555 1_555
C36_3 C39_3 1_555 1_555
C7_3 C8_3 1_555 1_555
C8_3 C9_3 1_555 1_555
C9_3 H5_3 1_555 1_555
C11_3 C10_3 1_555 1_555
C12_3 C9_3 1_555 1_555
H7_3 C12_3 1_555 1_555
C27_3 N1_3 1_555 1_555
H19_3 C37_3 1_555 1_555
C40_3 N1_3 1_555 1_555
C41_3 N2_3 1_555 1_555
H24_3 C48_3 1_555 1_555
N2_3 C27_3 1_555 1_555
N7_3 C11_3 1_555 1_555
H26_3 N7_3 1_555 1_555
N10_3 C38_3 1_555 1_555
H29_3 N10_3 1_555 1_555
N11_3 C41_3 1_555 1_555
H30_3 N11_3 1_555 1_555
N12_3 C40_3 1_555 1_555
C7_3 O17_2 1_555 1_555
C11_3 C12_3 1_555 1_555
C27_3 N9_3 1_555 1_555
C37_3 C38_3 1_555 1_555
C40_3 N10_3 1_555 1_555
C41_3 N12_3 1_555 1_555
C42_3 C48_3 1_555 1_555
C42_3 N11_3 1_555 1_555
C20_3 C21_3 1_555 1_555
C21_3 C22_3 1_555 1_555
C22_3 H10_3 1_555 1_555
C26_3 C22_3 1_555 1_555
H13_3 C26_3 1_555 1_555
O3_2 C20_3 1_555 1_555
Gd11 O3_2 1_555 1_555
C23_3 H11_3 1_555 1_555
H12_3 C24_3 1_555 1_555
C25_3 C23_3 1_555 1_555
C28_3 C29_3 1_555 1_555
C29_3 H14_3 1_555 1_555
C30_3 C28_3 1_555 1_555
C31_3 C29_3 1_555 1_555
H15_3 C31_3 1_555 1_555
C32_3 C28_3 1_555 1_555
H16_3 C32_3 1_555 1_555
O19 C30_3 1_555 1_555
O10_2 C30_3 1_555 1_555
Gd5 O19 1_555 1_555
C23_3 C24_3 1_555 1_555
O10_2 Gd5 1_555 1_555
Gd5 O5_4 1_555 1_555
Gd11 O4_4 1_555 1_555
C7_4 C8_4 1_555 1_555
C8_4 C9_4 1_555 1_555
C9_4 H5_4 1_555 1_555
C10_4 H6_4 1_555 1_555
C11_4 C10_4 1_555 1_555
C12_4 C9_4 1_555 1_555
H7_4 C12_4 1_555 1_555
C13_4 C8_4 1_555 1_555
H8_4 C13_4 1_555 1_555
C20_4 C21_4 1_555 1_555
C21_4 C22_4 1_555 1_555
C22_4 H10_4 1_555 1_555
C23_4 H11_4 1_555 1_555
C24_4 C21_4 1_555 1_555
H12_4 C24_4 1_555 1_555
C25_4 C23_4 1_555 1_555
C26_4 C22_4 1_555 1_555
H13_4 C26_4 1_555 1_555
C27_4 N1_4 1_555 1_555
C28_4 C29_4 1_555 1_555
C29_4 H14_4 1_555 1_555
C30_4 C28_4 1_555 1_555
C31_4 C29_4 1_555 1_555
H15_4 C31_4 1_555 1_555
C32_4 C28_4 1_555 1_555
C33_4 C34_4 1_555 1_555
C34_4 C35_4 1_555 1_555
C35_4 H17_4 1_555 1_555
C36_4 H18_4 1_555 1_555
C37_4 C35_4 1_555 1_555
H19_4 C37_4 1_555 1_555
C38_4 C36_4 1_555 1_555
C39_4 C34_4 1_555 1_555
H20_4 C39_4 1_555 1_555
C40_4 N1_4 1_555 1_555
C41_4 N2_4 1_555 1_555
C42_4 C31_4 1_555 1_555
C48_4 C32_4 1_555 1_555
H24_4 C48_4 1_555 1_555
N2_4 C27_4 1_555 1_555
N7_4 C11_4 1_555 1_555
H26_4 N7_4 1_555 1_555
N9_4 C25_4 1_555 1_555
H28_4 N9_4 1_555 1_555
N10_4 C38_4 1_555 1_555
H29_4 N10_4 1_555 1_555
N11_4 C41_4 1_555 1_555
H30_4 N11_4 1_555 1_555
N12_4 C40_4 1_555 1_555
O15_2 C20_4 1_555 1_555
O4_4 C33_4 1_555 1_555
O5_4 Gd11 1_555 1_555
O16_2 C20_4 1_555 1_555
O7_4 Gd5 1_555 1_555
O17 Gd5 1_555 1_555
O19_2 C30_4 1_555 1_555
C7_4 O7_4 1_555 1_555
C7_4 O17 1_555 1_555
C10_4 C13_4 1_555 1_555
C11_4 C12_4 1_555 1_555
C23_4 C24_4 1_555 1_555
C25_4 C26_4 1_555 1_555
C27_4 N9_4 1_555 1_555
C33_4 O5_4 1_555 1_555
C36_4 C39_4 1_555 1_555
C37_4 C38_4 1_555 1_555
C40_4 N10_4 1_555 1_555
C41_4 N12_4 1_555 1_555
C42_4 C48_4 1_555 1_555
C42_4 N11_4 1_555 1_555
C1_4 C3_4 1_555 1_555
C2_4 H1_4 1_555 1_555
C3_4 C2_4 1_555 1_555
C4_4 C3_4 1_555 1_555
H2_4 C4_4 1_555 1_555
C5_4 C2_4 1_555 1_555
H3_4 C5_4 1_555 1_555
C6_2 C4_4 1_555 1_555
H4_2 C6_2 1_555 1_555
C14_2 N3_2 1_555 1_555
C15_2 N4_2 1_555 1_555
C16_2 N3_2 1_555 1_555
C17_4 C5_4 1_555 1_555
C18_4 C19_4 1_555 1_555
C19_4 H9_4 1_555 1_555
C43_4 C44_4 1_555 1_555
C44_4 H21_4 1_555 1_555
C45_4 C43_4 1_555 1_555
C46_4 C19_4 1_555 1_555
H22_4 C46_4 1_555 1_555
C47_4 C18_4 1_555 1_555
H23_4 C47_4 1_555 1_555
N4_2 C16_2 1_555 1_555
N5_2 C14_2 1_555 1_555
N6_2 C16_2 1_555 1_555
H25_2 N6_2 1_555 1_555
N8_2 C15_2 1_555 1_555
H27_2 N8_2 1_555 1_555
O13_2 C45_4 1_555 1_555
O14_2 C45_4 1_555 1_555
O21_2 C1_4 1_555 1_555
O22_2 C1_4 1_555 1_555
C6_2 C17_4 1_555 1_555
C15_2 N5_2 1_555 1_555
C17_4 N8_2 1_555 1_555
C18_4 N6_2 1_555 1_555
C43_4 C46_4 1_555 1_555
C44_4 C47_4 1_555 1_555
H4_3 C6_3 1_555 1_555
C14_3 N3_3 1_555 1_555
C15_3 N4_3 1_555 1_555
C16_3 N3_3 1_555 1_555
N4_3 C16_3 1_555 1_555
N5_3 C14_3 1_555 1_555
N8_3 C15_3 1_555 1_555
H27_3 N8_3 1_555 1_555
C15_3 N5_3 1_555 1_555
H25_3 N6_3 1_555 1_555
H25_4 N6_4 1_555 1_555
H4_4 C6_4 1_555 1_555
C14_4 N3_4 1_555 1_555
C15_4 N4_4 1_555 1_555
C16_4 N3_4 1_555 1_555
N4_4 C16_4 1_555 1_555
N5_4 C14_4 1_555 1_555
N8_4 C15_4 1_555 1_555
H27_4 N8_4 1_555 1_555
C15_4 N5_4 1_555 1_555

#END
