
###############################################################################
#
# This file contains modified crystal structure data generated from the
# MOF subset of the Cambridge Structural Database (CSD) v543 
# hosted by the Cambridge Crystallographic Data Centre (CCDC).
#
# This work is licensed under the Creative Commons
# Attribution-NonCommercial-ShareAlike 4.0 International License.
# To view a copy of this license, visit
# http://creativecommons.org/licenses/by-nc-sa/4.0/
# or send a letter to
# Creative Commons, PO Box 1866, Mountain View, CA 94042, USA.
#
# CIF created using the CSD Python API on 29 September 2022
# The structure has been converted into the P1 space group
# The structure has a 3D framework
# The original CSD entry ILIXOT is in the monoclinic crystal system
# The framework has been calculated to contain at least 10.0% void space
# The void calculation uses a probe of radius 1.32A, grid spacing 0.4
#
###############################################################################

data_ILIXOT
_chemical_formula_moiety         '(C192 H120 N48 O44 Y8)n'
_symmetry_cell_setting           triclinic
_symmetry_space_group_name_H-M   'P 1'
_symmetry_Int_Tables_number      1
_space_group_name_Hall           'P 1'
loop_
_symmetry_equiv_pos_site_id
_symmetry_equiv_pos_as_xyz
1 x,y,z
_cell_length_a                   29.082(8)
_cell_length_b                   21.972(6)
_cell_length_c                   15.182(4)
_cell_angle_alpha                90
_cell_angle_beta                 103.381(16)
_cell_angle_gamma                90
_cell_volume                     9437.78
loop_
_atom_site_label
_atom_site_type_symbol
_atom_site_fract_x
_atom_site_fract_y
_atom_site_fract_z
C23 C 0.1593(2) 0.6059(3) 0.3107(5)
H13 H 0.156550 0.641894 0.341301
C24 C 0.1928(2) 0.5993(3) 0.2604(4)
C25 C 0.2234(2) 0.6520(3) 0.2462(4)
C26 C 0.1964(3) 0.5458(3) 0.2118(5)
H14 H 0.217850 0.543042 0.175061
C27 C 0.1675(3) 0.4976(3) 0.2198(5)
H15 H 0.170438 0.461160 0.190308
C28 C 0.1292(3) 0.5561(3) 0.3138(6)
H16 H 0.105581 0.559678 0.345587
C36 C 0.1026(3) 0.5117(3) 0.5992(5)
C37 C 0.1341(3) 0.5026(3) 0.2712(5)
C38 C 0.0628(3) 0.4442(3) 0.4704(5)
C39 C 0.0772(3) 0.4378(3) 0.3327(5)
C40 C 0.0200(2) 0.3814(3) 0.3687(5)
C42 C 0.1935(2) 0.6513(3) 0.7426(5)
C43 C 0.1637(2) 0.6002(3) 0.6918(4)
C44 C 0.1722(3) 0.5770(3) 0.6129(5)
H21 H 0.198090 0.590012 0.591588
C45 C 0.1265(3) 0.5786(3) 0.7267(5)
H22 H 0.121497 0.593720 0.780925
C46 C 0.1414(2) 0.5336(3) 0.5660(5)
H23 H 0.146130 0.518501 0.511570
C47 C 0.0966(3) 0.5336(3) 0.6787(4)
H24 H 0.072149 0.518493 0.702387
N1 N 0.0435(2) 0.3947(3) 0.3039(4)
N2 N 0.0889(2) 0.4640(3) 0.4122(4)
N3 N 0.0286(2) 0.4036(3) 0.4517(4)
N10 N 0.1009(2) 0.4531(3) 0.2683(4)
H28 H 0.095531 0.430805 0.220458
N12 N 0.0714(2) 0.4689(3) 0.5542(4)
H30 H 0.053284 0.454575 0.586627
O2 O 0.21704(12) 0.70386(16) 0.2783(2)
O4 O 0.25342(15) 0.64579(19) 0.1993(3)
O6 O 0.22568(17) 0.6716(2) 0.7071(3)
O7 O 0.18480(16) 0.67031(19) 0.8138(3)
Y4 Y 0.26607(2) 0.75102(2) 0.67416(3)
Y6 Y 0.26607(2) 0.74898(2) 0.17416(3)
Y9 Y 0.23596(2) 0.73422(2) 0.90934(3)
Y11 Y 0.23596(2) 0.76578(2) 0.40934(3)
Y1 Y 0.73393(2) 0.25102(2) 0.82584(3)
Y2 Y 0.76404(2) 0.23422(2) 0.59066(3)
C1 C 0.65996(18) 0.2580(3) 0.6661(4)
C2 C 0.62091(19) 0.2740(3) 0.5865(4)
C3 C 0.6178(2) 0.2532(3) 0.5010(5)
H1 H 0.639668 0.224889 0.490229
C4 C 0.5489(2) 0.3158(3) 0.4446(4)
C5 C 0.5829(2) 0.2734(3) 0.4309(4)
H2 H 0.581566 0.258951 0.372810
C6 C 0.5501(2) 0.3323(3) 0.5367(4)
H3 H 0.525391 0.355367 0.548677
C7 C 0.5864(2) 0.3153(3) 0.6077(5)
H4 H 0.588699 0.329676 0.666123
C8 C 0.4374(2) 0.4485(3) 0.4101(5)
C9 C 0.4820(2) 0.3808(3) 0.3578(5)
C10 C 0.4300(3) 0.4362(3) 0.2611(5)
C11 C 0.3491(2) 0.6012(3) 0.1459(4)
H5 H 0.352365 0.639124 0.173983
C12 C 0.3163(2) 0.5940(3) 0.0689(4)
C13 C 0.3766(3) 0.4979(4) 0.1436(5)
C14 C 0.3796(3) 0.5524(4) 0.1868(5)
H6 H 0.401055 0.558011 0.241968
C15 C 0.3150(3) 0.5373(4) 0.0242(5)
C16 C 0.3445(3) 0.4915(4) 0.0604(5)
H8 H 0.343339 0.454969 0.028986
C17 C 0.3296(2) 0.6047(3) 0.5190(4)
C18 C 0.3917(2) 0.5173(3) 0.4930(4)
C19 C 0.3645(2) 0.5832(3) 0.5931(4)
H9 H 0.366140 0.597196 0.651563
C20 C 0.3256(2) 0.5808(3) 0.4365(5)
H10 H 0.301368 0.594299 0.389224
C21 C 0.3559(2) 0.5374(3) 0.4193(4)
H11 H 0.353082 0.521711 0.361424
C22 C 0.3951(3) 0.5418(3) 0.5758(5)
H12 H 0.419791 0.529446 0.622939
C29 C 0.83585(19) 0.2599(3) 0.4964(4)
C30 C 0.8810(2) 0.2550(3) 0.3723(4)
H17 H 0.859719 0.226414 0.341214
C31 C 0.9182(2) 0.2767(3) 0.3351(4)
H18 H 0.920731 0.264554 0.277727
C32 C 0.9512(2) 0.3171(3) 0.3870(5)
C33 C 0.8764(2) 0.2767(3) 0.4554(4)
C34 C 0.9130(2) 0.3131(3) 0.5080(4)
H19 H 0.912961 0.322184 0.567821
C35 C 0.9489(2) 0.3353(3) 0.4704(5)
H20 H 0.971158 0.362400 0.502640
C41 C 0.2873(2) 0.6430(3) 0.0223(4)
C48 C 0.2967(3) 0.6568(3) 0.5350(6)
N4 N 0.4622(2) 0.3929(3) 0.2702(4)
N5 N 0.41534(19) 0.4652(3) 0.3275(3)
N6 N 0.47248(19) 0.4058(3) 0.4332(4)
N7 N 0.4089(2) 0.4505(3) 0.1757(4)
H25 H 0.415878 0.427632 0.134699
N8 N 0.51589(19) 0.3346(3) 0.3675(3)
H26 H 0.516426 0.314887 0.318804
N9 N 0.42601(19) 0.4716(3) 0.4850(3)
H27 H 0.441687 0.456725 0.535445
N11 N 0.9863(2) 0.3372(3) 0.3414(4)
H29 H 0.986319 0.319527 0.290886
O1 O 0.69672(14) 0.2306(2) 0.6518(3)
O3 O 0.65787(15) 0.2697(2) 0.7440(3)
O5 O 0.30025(18) 0.6747(2) 0.6141(3)
O9 O 0.29119(13) 0.69724(17) 0.0571(2)
O10 O 0.83866(15) 0.2704(2) 0.5760(3)
O11 O 0.79869(12) 0.23582(19) 0.4467(3)
O12 O 0.26667(14) 0.67665(18) 0.4677(3)
Y7 Y 0.73393(2) 0.24898(2) 0.32584(3)
O13 O 0.78296(12) 0.29614(16) 0.7217(2)
O14 O 0.74658(15) 0.35421(19) 0.8007(3)
O15 O 0.69975(18) 0.1747(2) 0.8859(3)
O16 O 0.77432(17) 0.1716(2) 0.7929(3)
O17 O 0.81520(16) 0.17031(19) 0.6862(3)
O18 O 0.74208(16) 0.1339(2) 0.5501(3)
O19 O 0.70881(13) 0.19724(17) 0.4429(2)
O20 O 0.70881(13) 0.30276(17) 0.9429(2)
O21 O 0.79869(12) 0.26418(19) 0.9467(3)
O22 O 0.73333(14) 0.32335(18) 0.5323(3)
H7 H 0.293589 0.531427 0.969090
O8 O 0.25792(16) 0.6339(2) 0.9499(3)
C11_2 C 0.6509(2) 0.1012(3) 0.3541(4)
H5_2 H 0.647635 0.139124 0.326017
C12_2 C 0.6837(2) 0.0940(3) 0.4311(4)
C14_2 C 0.6204(3) 0.0524(4) 0.3132(5)
H6_2 H 0.598945 0.058011 0.258032
C15_2 C 0.6850(3) 0.0373(4) 0.4758(5)
H7_2 H 0.706411 0.031427 0.530910
C18_2 C 0.6083(2) 0.0173(3) 0.0070(4)
C20_2 C 0.6744(2) 0.0808(3) 0.0635(5)
H10_2 H 0.698632 0.094299 0.110776
C21_2 C 0.6441(2) 0.0374(3) 0.0807(4)
H11_2 H 0.646918 0.021711 0.138576
C41_2 C 0.7127(2) 0.1430(3) 0.4777(4)
O12_2 O 0.73333(14) 0.17665(18) 0.0323(3)
Y10 Y 0.76404(2) 0.26578(2) 0.09066(3)
C17_2 C 0.6704(2) 0.1047(3) 0.9810(4)
C19_2 C 0.6355(2) 0.0832(3) 0.9069(4)
H9_2 H 0.633860 0.097196 0.848437
C22_2 C 0.6049(3) 0.0418(3) 0.9242(5)
H12_2 H 0.580209 0.029446 0.877061
C48_2 C 0.7033(3) 0.1568(3) 0.9650(6)
H1_2 H 0.360332 0.724889 0.009771
C4_2 C 0.4511(2) 0.8158(3) 0.0554(4)
C5_2 C 0.4171(2) 0.7734(3) 0.0691(4)
H2_2 H 0.418434 0.758951 0.127190
C8_2 C 0.5626(2) 0.9485(3) 0.0899(5)
C9_2 C 0.5180(2) 0.8808(3) 0.1422(5)
C10_2 C 0.5700(3) 0.9362(3) 0.2389(5)
C13_2 C 0.6234(3) 0.9979(4) 0.3564(5)
C16_2 C 0.6555(3) 0.9915(4) 0.4396(5)
H8_2 H 0.656661 0.954969 0.471014
C29_2 C 0.16415(19) 0.7599(3) 0.0036(4)
C30_2 C 0.1190(2) 0.7550(3) 0.1277(4)
H17_2 H 0.140281 0.726414 0.158786
C31_2 C 0.0818(2) 0.7767(3) 0.1649(4)
H18_2 H 0.079269 0.764554 0.222273
C32_2 C 0.0488(2) 0.8171(3) 0.1130(5)
C33_2 C 0.1236(2) 0.7767(3) 0.0446(4)
C35_2 C 0.0511(2) 0.8353(3) 0.0296(5)
N4_2 N 0.5378(2) 0.8929(3) 0.2298(4)
N5_2 N 0.58466(19) 0.9652(3) 0.1725(3)
N6_2 N 0.52752(19) 0.9058(3) 0.0668(4)
N7_2 N 0.5911(2) 0.9505(3) 0.3243(4)
H25_2 H 0.584122 0.927632 0.365301
N8_2 N 0.48411(19) 0.8346(3) 0.1325(3)
H26_2 H 0.483574 0.814887 0.181196
N9_2 N 0.57399(19) 0.9716(3) 0.0150(3)
N11_2 N 0.0137(2) 0.8372(3) 0.1586(4)
H29_2 H 0.013681 0.819527 0.209114
O11_2 O 0.20131(12) 0.73582(19) 0.0533(3)
C1_2 C 0.34004(18) 0.7580(3) 0.8339(4)
C2_2 C 0.37909(19) 0.7740(3) 0.9135(4)
C3_2 C 0.3822(2) 0.7532(3) 0.9990(5)
C6_2 C 0.4499(2) 0.8323(3) 0.9633(4)
H3_2 H 0.474609 0.855367 0.951323
C7_2 C 0.4136(2) 0.8153(3) 0.8923(5)
H4_2 H 0.411301 0.829676 0.833877
C34_2 C 0.0870(2) 0.8131(3) 0.9920(4)
H19_2 H 0.087039 0.822184 0.932179
H20_2 H 0.028842 0.862400 0.997360
H27_2 H 0.558313 0.956725 0.964555
O1_2 O 0.30328(14) 0.7306(2) 0.8482(3)
O3_2 O 0.34213(15) 0.7697(2) 0.7560(3)
O10_2 O 0.16134(15) 0.7704(2) 0.9240(3)
O13_2 O 0.21704(12) 0.79614(16) 0.7783(2)
O14_2 O 0.25342(15) 0.85421(19) 0.6993(3)
O20_2 O 0.29119(13) 0.80276(17) 0.5571(2)
O21_2 O 0.20131(12) 0.76418(19) 0.5533(3)
O22_2 O 0.26667(14) 0.82335(18) 0.9677(3)
C23_2 C 0.8407(2) 0.1059(3) 0.1893(5)
H13_2 H 0.843450 0.141894 0.158699
C24_2 C 0.8072(2) 0.0993(3) 0.2396(4)
C25_2 C 0.7766(2) 0.1520(3) 0.2538(4)
C26_2 C 0.8036(3) 0.0458(3) 0.2882(5)
H14_2 H 0.782150 0.043042 0.324939
C28_2 C 0.8708(3) 0.0561(3) 0.1862(6)
H16_2 H 0.894419 0.059678 0.154413
C37_2 C 0.8659(3) 0.0026(3) 0.2288(5)
O2_2 O 0.78296(12) 0.20386(16) 0.2217(2)
O4_2 O 0.74658(15) 0.14579(19) 0.3007(3)
C36_2 C 0.8974(3) 0.0117(3) 0.9008(5)
C42_2 C 0.8065(2) 0.1513(3) 0.7574(5)
C43_2 C 0.8363(2) 0.1002(3) 0.8082(4)
C44_2 C 0.8278(3) 0.0770(3) 0.8871(5)
H21_2 H 0.801910 0.090012 0.908412
C45_2 C 0.8735(3) 0.0786(3) 0.7733(5)
H22_2 H 0.878503 0.093720 0.719075
C46_2 C 0.8586(2) 0.0336(3) 0.9340(5)
H23_2 H 0.853870 0.018501 0.988430
C47_2 C 0.9034(3) 0.0336(3) 0.8213(4)
H24_2 H 0.927851 0.018493 0.797613
H7_3 H 0.706411 0.468573 0.030910
O8_2 O 0.74208(16) 0.3661(2) 0.0501(3)
C1_3 C 0.34004(18) 0.7420(3) 0.3339(4)
C2_3 C 0.37909(19) 0.7260(3) 0.4135(4)
C3_3 C 0.3822(2) 0.7468(3) 0.4990(5)
H1_3 H 0.360332 0.775111 0.509771
C4_3 C 0.4511(2) 0.6842(3) 0.5554(4)
C5_3 C 0.4171(2) 0.7266(3) 0.5691(4)
H2_3 H 0.418434 0.741049 0.627190
C6_3 C 0.4499(2) 0.6677(3) 0.4633(4)
H3_3 H 0.474609 0.644633 0.451323
C7_3 C 0.4136(2) 0.6847(3) 0.3923(5)
H4_3 H 0.411301 0.670324 0.333877
C8_3 C 0.5626(2) 0.5515(3) 0.5899(5)
C9_3 C 0.5180(2) 0.6192(3) 0.6422(5)
C10_3 C 0.5700(3) 0.5638(3) 0.7389(5)
C11_3 C 0.6509(2) 0.3988(3) 0.8541(4)
H5_3 H 0.647635 0.360876 0.826017
C12_3 C 0.6837(2) 0.4060(3) 0.9311(4)
C13_3 C 0.6234(3) 0.5021(4) 0.8564(5)
C14_3 C 0.6204(3) 0.4476(4) 0.8132(5)
H6_3 H 0.598945 0.441989 0.758032
C15_3 C 0.6850(3) 0.4627(4) 0.9758(5)
C16_3 C 0.6555(3) 0.5085(4) 0.9396(5)
H8_3 H 0.656661 0.545031 0.971014
C17_3 C 0.6704(2) 0.3953(3) 0.4810(4)
C18_3 C 0.6083(2) 0.4827(3) 0.5070(4)
C19_3 C 0.6355(2) 0.4168(3) 0.4069(4)
H9_3 H 0.633860 0.402804 0.348437
C20_3 C 0.6744(2) 0.4192(3) 0.5635(5)
H10_3 H 0.698632 0.405701 0.610776
C21_3 C 0.6441(2) 0.4626(3) 0.5807(4)
H11_3 H 0.646918 0.478289 0.638576
C22_3 C 0.6049(3) 0.4582(3) 0.4242(5)
H12_3 H 0.580209 0.470554 0.377061
C29_3 C 0.16415(19) 0.7401(3) 0.5036(4)
C30_3 C 0.1190(2) 0.7450(3) 0.6277(4)
H17_3 H 0.140281 0.773586 0.658786
C31_3 C 0.0818(2) 0.7233(3) 0.6649(4)
H18_3 H 0.079269 0.735446 0.722273
C32_3 C 0.0488(2) 0.6829(3) 0.6130(5)
C33_3 C 0.1236(2) 0.7233(3) 0.5446(4)
C34_3 C 0.0870(2) 0.6869(3) 0.4920(4)
H19_3 H 0.087039 0.677816 0.432179
C35_3 C 0.0511(2) 0.6647(3) 0.5296(5)
H20_3 H 0.028842 0.637600 0.497360
C41_3 C 0.7127(2) 0.3570(3) 0.9777(4)
C48_3 C 0.7033(3) 0.3432(3) 0.4650(6)
N4_3 N 0.5378(2) 0.6071(3) 0.7298(4)
N5_3 N 0.58466(19) 0.5348(3) 0.6725(3)
N6_3 N 0.52752(19) 0.5942(3) 0.5668(4)
N7_3 N 0.5911(2) 0.5495(3) 0.8243(4)
H25_3 H 0.584122 0.572368 0.865301
N8_3 N 0.48411(19) 0.6654(3) 0.6325(3)
H26_3 H 0.483574 0.685113 0.681196
N9_3 N 0.57399(19) 0.5284(3) 0.5150(3)
H27_3 H 0.558313 0.543275 0.464555
N11_3 N 0.0137(2) 0.6628(3) 0.6586(4)
H29_3 H 0.013681 0.680473 0.709114
O1_3 O 0.30328(14) 0.7694(2) 0.3482(3)
O3_3 O 0.34213(15) 0.7303(2) 0.2560(3)
O5_2 O 0.69975(18) 0.3253(2) 0.3859(3)
O10_3 O 0.16134(15) 0.7296(2) 0.4240(3)
O15_2 O 0.30025(18) 0.8253(2) 0.1141(3)
O16_2 O 0.22568(17) 0.8284(2) 0.2071(3)
O17_2 O 0.18480(16) 0.82969(19) 0.3138(3)
O18_2 O 0.25792(16) 0.8661(2) 0.4499(3)
C23_3 C 0.8407(2) 0.3941(3) 0.6893(5)
H13_3 H 0.843450 0.358106 0.658699
C24_3 C 0.8072(2) 0.4007(3) 0.7396(4)
C25_3 C 0.7766(2) 0.3480(3) 0.7538(4)
C26_3 C 0.8036(3) 0.4542(3) 0.7882(5)
H14_3 H 0.782150 0.456958 0.824939
C27_2 C 0.8325(3) 0.5024(3) 0.7802(5)
H15_2 H 0.829562 0.538840 0.809692
C28_3 C 0.8708(3) 0.4439(3) 0.6862(6)
H16_3 H 0.894419 0.440322 0.654413
C36_3 C 0.8974(3) 0.4883(3) 0.4008(5)
C37_3 C 0.8659(3) 0.4974(3) 0.7288(5)
C38_2 C 0.9372(3) 0.5558(3) 0.5296(5)
C39_2 C 0.9228(3) 0.5622(3) 0.6673(5)
C40_2 C 0.9800(2) 0.6186(3) 0.6313(5)
C42_3 C 0.8065(2) 0.3487(3) 0.2574(5)
C43_3 C 0.8363(2) 0.3998(3) 0.3082(4)
C44_3 C 0.8278(3) 0.4230(3) 0.3871(5)
H21_3 H 0.801910 0.409988 0.408412
C45_3 C 0.8735(3) 0.4214(3) 0.2733(5)
H22_3 H 0.878503 0.406280 0.219075
C46_3 C 0.8586(2) 0.4664(3) 0.4340(5)
H23_3 H 0.853870 0.481499 0.488430
C47_3 C 0.9034(3) 0.4664(3) 0.3213(4)
H24_3 H 0.927851 0.481507 0.297613
N1_2 N 0.9565(2) 0.6053(3) 0.6961(4)
N2_2 N 0.9111(2) 0.5360(3) 0.5878(4)
N3_2 N 0.9714(2) 0.5964(3) 0.5483(4)
N10_2 N 0.8991(2) 0.5469(3) 0.7317(4)
H28_2 H 0.904469 0.569195 0.779542
N12_2 N 0.9286(2) 0.5311(3) 0.4458(4)
H30_2 H 0.946716 0.545425 0.413373
O6_2 O 0.77432(17) 0.3284(2) 0.2929(3)
O7_2 O 0.81520(16) 0.32969(19) 0.1862(3)
C36_4 C 0.1026(3) 0.9883(3) 0.0992(5)
C42_4 C 0.1935(2) 0.8487(3) 0.2426(5)
C43_4 C 0.1637(2) 0.8998(3) 0.1918(4)
C44_4 C 0.1722(3) 0.9230(3) 0.1129(5)
H21_4 H 0.198090 0.909988 0.091588
C45_4 C 0.1265(3) 0.9214(3) 0.2267(5)
H22_4 H 0.121497 0.906280 0.280925
C46_4 C 0.1414(2) 0.9664(3) 0.0660(5)
H23_4 H 0.146130 0.981499 0.011570
C47_4 C 0.0966(3) 0.9664(3) 0.1787(4)
H24_4 H 0.072149 0.981507 0.202387
C23_4 C 0.1593(2) 0.8941(3) 0.8107(5)
H13_4 H 0.156550 0.858106 0.841301
C24_4 C 0.1928(2) 0.9007(3) 0.7604(4)
C25_4 C 0.2234(2) 0.8480(3) 0.7462(4)
C26_4 C 0.1964(3) 0.9542(3) 0.7118(5)
H14_4 H 0.217850 0.956958 0.675061
C28_4 C 0.1292(3) 0.9439(3) 0.8138(6)
H16_4 H 0.105581 0.940322 0.845587
C37_4 C 0.1341(3) 0.9974(3) 0.7712(5)
C1_4 C 0.65996(18) 0.2420(3) 0.1661(4)
C2_4 C 0.62091(19) 0.2260(3) 0.0865(4)
C3_4 C 0.6178(2) 0.2468(3) 0.0010(5)
C6_4 C 0.5501(2) 0.1677(3) 0.0367(4)
H3_4 H 0.525391 0.144633 0.048677
C7_4 C 0.5864(2) 0.1847(3) 0.1077(5)
H4_4 H 0.588699 0.170324 0.166123
C34_4 C 0.9130(2) 0.1869(3) 0.0080(4)
H19_4 H 0.912961 0.177816 0.067821
H20_4 H 0.971158 0.137600 0.002640
H27_4 H 0.441687 0.043275 0.035445
O1_4 O 0.69672(14) 0.2694(2) 0.1518(3)
O3_4 O 0.65787(15) 0.2303(2) 0.2440(3)
O10_4 O 0.83866(15) 0.2296(2) 0.0760(3)
H1_4 H 0.639668 0.275111 0.990229
C4_4 C 0.5489(2) 0.1842(3) 0.9446(4)
C5_4 C 0.5829(2) 0.2266(3) 0.9309(4)
H2_4 H 0.581566 0.241049 0.872810
C8_4 C 0.4374(2) 0.0515(3) 0.9101(5)
C9_4 C 0.4820(2) 0.1192(3) 0.8578(5)
C10_4 C 0.4300(3) 0.0638(3) 0.7611(5)
C13_4 C 0.3766(3) 0.0021(4) 0.6436(5)
C16_4 C 0.3445(3) 0.0085(4) 0.5604(5)
H8_4 H 0.343339 0.045031 0.528986
C29_4 C 0.83585(19) 0.2401(3) 0.9964(4)
C30_4 C 0.8810(2) 0.2450(3) 0.8723(4)
H17_4 H 0.859719 0.273586 0.841214
C31_4 C 0.9182(2) 0.2233(3) 0.8351(4)
H18_4 H 0.920731 0.235446 0.777727
C32_4 C 0.9512(2) 0.1829(3) 0.8870(5)
C33_4 C 0.8764(2) 0.2233(3) 0.9554(4)
C35_4 C 0.9489(2) 0.1647(3) 0.9704(5)
N4_4 N 0.4622(2) 0.1071(3) 0.7702(4)
N5_4 N 0.41534(19) 0.0348(3) 0.8275(3)
N6_4 N 0.47248(19) 0.0942(3) 0.9332(4)
N7_4 N 0.4089(2) 0.0495(3) 0.6757(4)
H25_4 H 0.415878 0.072368 0.634699
N8_4 N 0.51589(19) 0.1654(3) 0.8675(3)
H26_4 H 0.516426 0.185113 0.818804
N9_4 N 0.42601(19) 0.0284(3) 0.9850(3)
N11_4 N 0.9863(2) 0.1628(3) 0.8414(4)
H29_4 H 0.986319 0.180473 0.790886
C17_4 C 0.3296(2) 0.8953(3) 0.0190(4)
C19_4 C 0.3645(2) 0.9168(3) 0.0931(4)
H9_4 H 0.366140 0.902804 0.151563
C22_4 C 0.3951(3) 0.9582(3) 0.0758(5)
H12_4 H 0.419791 0.970554 0.122939
C48_4 C 0.2967(3) 0.8432(3) 0.0350(6)
C11_4 C 0.3491(2) 0.8988(3) 0.6459(4)
H5_4 H 0.352365 0.860876 0.673983
C12_4 C 0.3163(2) 0.9060(3) 0.5689(4)
C14_4 C 0.3796(3) 0.9476(4) 0.6868(5)
H6_4 H 0.401055 0.941989 0.741968
C15_4 C 0.3150(3) 0.9627(4) 0.5242(5)
H7_4 H 0.293589 0.968573 0.469090
C18_4 C 0.3917(2) 0.9827(3) 0.9930(4)
C20_4 C 0.3256(2) 0.9192(3) 0.9365(5)
H10_4 H 0.301368 0.905701 0.889224
C21_4 C 0.3559(2) 0.9626(3) 0.9193(4)
H11_4 H 0.353082 0.978289 0.861424
C41_4 C 0.2873(2) 0.8570(3) 0.5223(4)
C27_3 C 0.8325(3) 0.9976(3) 0.2802(5)
H15_3 H 0.829562 0.961160 0.309692
C38_3 C 0.9372(3) 0.9442(3) 0.0296(5)
C39_3 C 0.9228(3) 0.9378(3) 0.1673(5)
C40_3 C 0.9800(2) 0.8814(3) 0.1313(5)
N1_3 N 0.9565(2) 0.8947(3) 0.1961(4)
N2_3 N 0.9111(2) 0.9640(3) 0.0878(4)
N3_3 N 0.9714(2) 0.9036(3) 0.0483(4)
N10_3 N 0.8991(2) 0.9531(3) 0.2317(4)
H28_3 H 0.904469 0.930805 0.279542
N12_3 N 0.9286(2) 0.9689(3) 0.9458(4)
H30_3 H 0.946716 0.954575 0.913373
N12_4 N 0.0714(2) 0.0311(3) 0.0542(4)
H30_4 H 0.053284 0.045425 0.086627
C27_4 C 0.1675(3) 0.0024(3) 0.7198(5)
H15_4 H 0.170438 0.038840 0.690308
C38_4 C 0.0628(3) 0.0558(3) 0.9704(5)
C39_4 C 0.0772(3) 0.0622(3) 0.8327(5)
C40_4 C 0.0200(2) 0.1186(3) 0.8687(5)
N1_4 N 0.0435(2) 0.1053(3) 0.8039(4)
N2_4 N 0.0889(2) 0.0360(3) 0.9122(4)
N3_4 N 0.0286(2) 0.0964(3) 0.9517(4)
N10_4 N 0.1009(2) 0.0469(3) 0.7683(4)
H28_4 H 0.095531 0.069195 0.720458
loop_
_geom_bond_atom_site_label_1
_geom_bond_atom_site_label_2
_geom_bond_site_symmetry_1
_geom_bond_site_symmetry_2
C23 H13 1_555 1_555
C24 C23 1_555 1_555
C25 C24 1_555 1_555
C26 C24 1_555 1_555
H14 C26 1_555 1_555
C27 C26 1_555 1_555
H15 C27 1_555 1_555
C28 C23 1_555 1_555
H16 C28 1_555 1_555
C36 C46 1_555 1_555
C37 C27 1_555 1_555
C38 N2 1_555 1_555
C39 N1 1_555 1_555
C40 N1 1_555 1_555
C42 C43 1_555 1_555
C43 C44 1_555 1_555
C44 H21 1_555 1_555
C45 C43 1_555 1_555
H22 C45 1_555 1_555
C46 C44 1_555 1_555
H23 C46 1_555 1_555
C47 C36 1_555 1_555
H24 C47 1_555 1_555
N2 C39 1_555 1_555
N3 C38 1_555 1_555
N10 C37 1_555 1_555
H28 N10 1_555 1_555
N12 C36 1_555 1_555
H30 N12 1_555 1_555
O2 C25 1_555 1_555
O4 C25 1_555 1_555
O6 C42 1_555 1_555
O7 C42 1_555 1_555
Y4 O6 1_555 1_555
Y6 O2 1_555 1_555
Y9 O7 1_555 1_555
Y11 O2 1_555 1_555
C28 C37 1_555 1_555
C38 N12 1_555 1_555
C39 N10 1_555 1_555
C40 N3 1_555 1_555
C45 C47 1_555 1_555
O4 Y6 1_555 1_555
Y1 O1 1_555 1_555
Y2 O1 1_555 1_555
C1 C2 1_555 1_555
C2 C3 1_555 1_555
C3 H1 1_555 1_555
C4 C5 1_555 1_555
C5 C3 1_555 1_555
H2 C5 1_555 1_555
C6 C4 1_555 1_555
H3 C6 1_555 1_555
C7 C2 1_555 1_555
H4 C7 1_555 1_555
C8 N5 1_555 1_555
C9 N4 1_555 1_555
C10 N4 1_555 1_555
C11 H5 1_555 1_555
C12 C11 1_555 1_555
C13 C14 1_555 1_555
C14 C11 1_555 1_555
H6 C14 1_555 1_555
C15 C12 1_555 1_555
C16 C13 1_555 1_555
H8 C16 1_555 1_555
C17 C19 1_555 1_555
C18 C21 1_555 1_555
C19 H9 1_555 1_555
C20 C17 1_555 1_555
H10 C20 1_555 1_555
C21 C20 1_555 1_555
H11 C21 1_555 1_555
C22 C18 1_555 1_555
H12 C22 1_555 1_555
C29 C33 1_555 1_555
C30 H17 1_555 1_555
C31 C30 1_555 1_555
H18 C31 1_555 1_555
C32 C31 1_555 1_555
C33 C30 1_555 1_555
C34 C33 1_555 1_555
H19 C34 1_555 1_555
C35 C32 1_555 1_555
H20 C35 1_555 1_555
C41 C12 1_555 1_555
C48 C17 1_555 1_555
N5 C10 1_555 1_555
N6 C8 1_555 1_555
N7 C10 1_555 1_555
H25 N7 1_555 1_555
N8 C4 1_555 1_555
H26 N8 1_555 1_555
N9 C8 1_555 1_555
H27 N9 1_555 1_555
N11 C32 1_555 1_555
H29 N11 1_555 1_555
O1 C1 1_555 1_555
O3 Y1 1_555 1_555
O5 C48 1_555 1_555
O9 C41 1_555 1_555
O10 Y2 1_555 1_555
O11 Y2 1_555 1_555
O12 C48 1_555 1_555
Y4 O5 1_555 1_555
Y6 O9 1_555 1_555
Y7 O11 1_555 1_555
Y11 O12 1_555 1_555
O13 Y1 1_555 1_555
O14 Y1 1_555 1_555
O15 Y1 1_555 1_555
O16 Y1 1_555 1_555
O17 Y2 1_555 1_555
O18 Y2 1_555 1_555
O19 Y2 1_555 1_555
O20 Y1 1_555 1_555
O21 Y1 1_555 1_555
O22 Y2 1_555 1_555
Y2 O13 1_555 1_555
C1 O3 1_555 1_555
C6 C7 1_555 1_555
C9 N6 1_555 1_555
C9 N8 1_555 1_555
C13 N7 1_555 1_555
C15 C16 1_555 1_555
C18 N9 1_555 1_555
C19 C22 1_555 1_555
C29 O10 1_555 1_555
C29 O11 1_555 1_555
C34 C35 1_555 1_555
Y7 O19 1_555 1_555
Y9 O8 1_555 1_555
C11_2 H5_2 1_555 1_555
C12_2 C11_2 1_555 1_555
C14_2 C11_2 1_555 1_555
H6_2 C14_2 1_555 1_555
C15_2 C12_2 1_555 1_555
H7_2 C15_2 1_555 1_555
C18_2 C21_2 1_555 1_555
H10_2 C20_2 1_555 1_555
C21_2 C20_2 1_555 1_555
H11_2 C21_2 1_555 1_555
C41_2 C12_2 1_555 1_555
O18 C41_2 1_555 1_555
O19 C41_2 1_555 1_555
Y10 O12_2 1_555 1_555
C17_2 C19_2 1_555 1_555
C19_2 H9_2 1_555 1_555
H12_2 C22_2 1_555 1_555
C48_2 C17_2 1_555 1_555
O15 C48_2 1_555 1_555
C19_2 C22_2 1_555 1_555
C4_2 C5_2 1_555 1_555
H2_2 C5_2 1_555 1_555
C8_2 N5_2 1_555 1_555
C9_2 N4_2 1_555 1_555
C10_2 N4_2 1_555 1_555
C16_2 C13_2 1_555 1_555
H8_2 C16_2 1_555 1_555
C29_2 C33_2 1_555 1_555
C30_2 H17_2 1_555 1_555
C31_2 C30_2 1_555 1_555
H18_2 C31_2 1_555 1_555
C32_2 C31_2 1_555 1_555
C33_2 C30_2 1_555 1_555
C35_2 C32_2 1_555 1_555
N5_2 C10_2 1_555 1_555
N6_2 C8_2 1_555 1_555
N7_2 C10_2 1_555 1_555
H25_2 N7_2 1_555 1_555
N8_2 C4_2 1_555 1_555
H26_2 N8_2 1_555 1_555
N9_2 C8_2 1_555 1_555
N11_2 C32_2 1_555 1_555
H29_2 N11_2 1_555 1_555
Y6 O11_2 1_555 1_555
C9_2 N6_2 1_555 1_555
C9_2 N8_2 1_555 1_555
C13_2 N7_2 1_555 1_555
C29_2 O11_2 1_555 1_555
Y4 O1_2 1_555 1_555
Y9 O1_2 1_555 1_555
C1_2 C2_2 1_555 1_555
C2_2 C3_2 1_555 1_555
H3_2 C6_2 1_555 1_555
C7_2 C2_2 1_555 1_555
H4_2 C7_2 1_555 1_555
H19_2 C34_2 1_555 1_555
O1_2 C1_2 1_555 1_555
O3_2 Y4 1_555 1_555
O10_2 Y9 1_555 1_555
O13_2 Y4 1_555 1_555
O14_2 Y4 1_555 1_555
O20_2 Y4 1_555 1_555
O21_2 Y4 1_555 1_555
O22_2 Y9 1_555 1_555
Y9 O13_2 1_555 1_555
C1_2 O3_2 1_555 1_555
C6_2 C7_2 1_555 1_555
C23_2 H13_2 1_555 1_555
C24_2 C23_2 1_555 1_555
C25_2 C24_2 1_555 1_555
C26_2 C24_2 1_555 1_555
H14_2 C26_2 1_555 1_555
C28_2 C23_2 1_555 1_555
H16_2 C28_2 1_555 1_555
O2_2 C25_2 1_555 1_555
O4_2 C25_2 1_555 1_555
Y7 O2_2 1_555 1_555
Y10 O2_2 1_555 1_555
C28_2 C37_2 1_555 1_555
O4_2 Y7 1_555 1_555
C36_2 C46_2 1_555 1_555
C42_2 C43_2 1_555 1_555
C43_2 C44_2 1_555 1_555
C44_2 H21_2 1_555 1_555
C45_2 C43_2 1_555 1_555
H22_2 C45_2 1_555 1_555
C46_2 C44_2 1_555 1_555
H23_2 C46_2 1_555 1_555
C47_2 C36_2 1_555 1_555
H24_2 C47_2 1_555 1_555
O16 C42_2 1_555 1_555
O17 C42_2 1_555 1_555
C45_2 C47_2 1_555 1_555
Y10 O8_2 1_555 1_555
Y6 O1_3 1_555 1_555
Y11 O1_3 1_555 1_555
C1_3 C2_3 1_555 1_555
C2_3 C3_3 1_555 1_555
C3_3 H1_3 1_555 1_555
C4_3 C5_3 1_555 1_555
C5_3 C3_3 1_555 1_555
H2_3 C5_3 1_555 1_555
C6_3 C4_3 1_555 1_555
H3_3 C6_3 1_555 1_555
C7_3 C2_3 1_555 1_555
H4_3 C7_3 1_555 1_555
C8_3 N5_3 1_555 1_555
C9_3 N4_3 1_555 1_555
C10_3 N4_3 1_555 1_555
C11_3 H5_3 1_555 1_555
C12_3 C11_3 1_555 1_555
C13_3 C14_3 1_555 1_555
C14_3 C11_3 1_555 1_555
H6_3 C14_3 1_555 1_555
C15_3 C12_3 1_555 1_555
C16_3 C13_3 1_555 1_555
H8_3 C16_3 1_555 1_555
C17_3 C19_3 1_555 1_555
C18_3 C21_3 1_555 1_555
C19_3 H9_3 1_555 1_555
C20_3 C17_3 1_555 1_555
H10_3 C20_3 1_555 1_555
C21_3 C20_3 1_555 1_555
H11_3 C21_3 1_555 1_555
C22_3 C18_3 1_555 1_555
H12_3 C22_3 1_555 1_555
C29_3 C33_3 1_555 1_555
C30_3 H17_3 1_555 1_555
C31_3 C30_3 1_555 1_555
H18_3 C31_3 1_555 1_555
C32_3 C31_3 1_555 1_555
C33_3 C30_3 1_555 1_555
C34_3 C33_3 1_555 1_555
H19_3 C34_3 1_555 1_555
C35_3 C32_3 1_555 1_555
H20_3 C35_3 1_555 1_555
C41_3 C12_3 1_555 1_555
C48_3 C17_3 1_555 1_555
N5_3 C10_3 1_555 1_555
N6_3 C8_3 1_555 1_555
N7_3 C10_3 1_555 1_555
H25_3 N7_3 1_555 1_555
N8_3 C4_3 1_555 1_555
H26_3 N8_3 1_555 1_555
N9_3 C8_3 1_555 1_555
H27_3 N9_3 1_555 1_555
N11_3 C32_3 1_555 1_555
H29_3 N11_3 1_555 1_555
O1_3 C1_3 1_555 1_555
O3_3 Y6 1_555 1_555
O5_2 C48_3 1_555 1_555
O20 C41_3 1_555 1_555
O10_3 Y11 1_555 1_555
O21_2 Y11 1_555 1_555
O22 C48_3 1_555 1_555
Y7 O5_2 1_555 1_555
O15_2 Y6 1_555 1_555
O16_2 Y6 1_555 1_555
O17_2 Y11 1_555 1_555
O18_2 Y11 1_555 1_555
O20_2 Y11 1_555 1_555
C1_3 O3_3 1_555 1_555
C6_3 C7_3 1_555 1_555
C9_3 N6_3 1_555 1_555
C9_3 N8_3 1_555 1_555
C13_3 N7_3 1_555 1_555
C15_3 C16_3 1_555 1_555
C18_3 N9_3 1_555 1_555
C19_3 C22_3 1_555 1_555
C29_3 O10_3 1_555 1_555
C29_3 O21_2 1_555 1_555
C34_3 C35_3 1_555 1_555
C23_3 H13_3 1_555 1_555
C24_3 C23_3 1_555 1_555
C25_3 C24_3 1_555 1_555
C26_3 C24_3 1_555 1_555
H14_3 C26_3 1_555 1_555
C27_2 C26_3 1_555 1_555
H15_2 C27_2 1_555 1_555
C28_3 C23_3 1_555 1_555
H16_3 C28_3 1_555 1_555
C36_3 C46_3 1_555 1_555
C37_3 C27_2 1_555 1_555
C38_2 N2_2 1_555 1_555
C39_2 N1_2 1_555 1_555
C40_2 N1_2 1_555 1_555
C42_3 C43_3 1_555 1_555
C43_3 C44_3 1_555 1_555
C44_3 H21_3 1_555 1_555
C45_3 C43_3 1_555 1_555
H22_3 C45_3 1_555 1_555
C46_3 C44_3 1_555 1_555
H23_3 C46_3 1_555 1_555
C47_3 C36_3 1_555 1_555
H24_3 C47_3 1_555 1_555
N2_2 C39_2 1_555 1_555
N3_2 C38_2 1_555 1_555
N10_2 C37_3 1_555 1_555
H28_2 N10_2 1_555 1_555
N12_2 C36_3 1_555 1_555
H30_2 N12_2 1_555 1_555
O13 C25_3 1_555 1_555
O14 C25_3 1_555 1_555
O6_2 C42_3 1_555 1_555
O7_2 C42_3 1_555 1_555
Y7 O6_2 1_555 1_555
Y10 O7_2 1_555 1_555
C28_3 C37_3 1_555 1_555
C38_2 N12_2 1_555 1_555
C39_2 N10_2 1_555 1_555
C40_2 N3_2 1_555 1_555
C45_3 C47_3 1_555 1_555
C36_4 C46_4 1_555 1_555
C42_4 C43_4 1_555 1_555
C43_4 C44_4 1_555 1_555
C44_4 H21_4 1_555 1_555
C45_4 C43_4 1_555 1_555
H22_4 C45_4 1_555 1_555
C46_4 C44_4 1_555 1_555
H23_4 C46_4 1_555 1_555
C47_4 C36_4 1_555 1_555
H24_4 C47_4 1_555 1_555
O16_2 C42_4 1_555 1_555
O17_2 C42_4 1_555 1_555
C45_4 C47_4 1_555 1_555
C23_4 H13_4 1_555 1_555
C24_4 C23_4 1_555 1_555
C25_4 C24_4 1_555 1_555
C26_4 C24_4 1_555 1_555
H14_4 C26_4 1_555 1_555
C28_4 C23_4 1_555 1_555
H16_4 C28_4 1_555 1_555
O13_2 C25_4 1_555 1_555
O14_2 C25_4 1_555 1_555
C28_4 C37_4 1_555 1_555
Y7 O1_4 1_555 1_555
Y10 O1_4 1_555 1_555
C1_4 C2_4 1_555 1_555
C2_4 C3_4 1_555 1_555
H3_4 C6_4 1_555 1_555
C7_4 C2_4 1_555 1_555
H4_4 C7_4 1_555 1_555
H19_4 C34_4 1_555 1_555
O1_4 C1_4 1_555 1_555
O3_4 Y7 1_555 1_555
O10_4 Y10 1_555 1_555
C1_4 O3_4 1_555 1_555
C6_4 C7_4 1_555 1_555
C4_4 C5_4 1_555 1_555
H2_4 C5_4 1_555 1_555
C8_4 N5_4 1_555 1_555
C9_4 N4_4 1_555 1_555
C10_4 N4_4 1_555 1_555
C16_4 C13_4 1_555 1_555
H8_4 C16_4 1_555 1_555
C29_4 C33_4 1_555 1_555
C30_4 H17_4 1_555 1_555
C31_4 C30_4 1_555 1_555
H18_4 C31_4 1_555 1_555
C32_4 C31_4 1_555 1_555
C33_4 C30_4 1_555 1_555
C35_4 C32_4 1_555 1_555
N5_4 C10_4 1_555 1_555
N6_4 C8_4 1_555 1_555
N7_4 C10_4 1_555 1_555
H25_4 N7_4 1_555 1_555
N8_4 C4_4 1_555 1_555
H26_4 N8_4 1_555 1_555
N9_4 C8_4 1_555 1_555
N11_4 C32_4 1_555 1_555
H29_4 N11_4 1_555 1_555
C9_4 N6_4 1_555 1_555
C9_4 N8_4 1_555 1_555
C13_4 N7_4 1_555 1_555
C29_4 O21 1_555 1_555
C17_4 C19_4 1_555 1_555
C19_4 H9_4 1_555 1_555
H12_4 C22_4 1_555 1_555
C48_4 C17_4 1_555 1_555
O15_2 C48_4 1_555 1_555
C19_4 C22_4 1_555 1_555
C11_4 H5_4 1_555 1_555
C12_4 C11_4 1_555 1_555
C14_4 C11_4 1_555 1_555
H6_4 C14_4 1_555 1_555
C15_4 C12_4 1_555 1_555
H7_4 C15_4 1_555 1_555
C18_4 C21_4 1_555 1_555
H10_4 C20_4 1_555 1_555
C21_4 C20_4 1_555 1_555
H11_4 C21_4 1_555 1_555
C41_4 C12_4 1_555 1_555
O18_2 C41_4 1_555 1_555
O20_2 C41_4 1_555 1_555
H15_3 C27_3 1_555 1_555
C38_3 N2_3 1_555 1_555
C39_3 N1_3 1_555 1_555
C40_3 N1_3 1_555 1_555
N2_3 C39_3 1_555 1_555
N3_3 C38_3 1_555 1_555
H28_3 N10_3 1_555 1_555
C39_3 N10_3 1_555 1_555
C40_3 N3_3 1_555 1_555
H30_3 N12_3 1_555 1_555
H30_4 N12_4 1_555 1_555
H15_4 C27_4 1_555 1_555
C38_4 N2_4 1_555 1_555
C39_4 N1_4 1_555 1_555
C40_4 N1_4 1_555 1_555
N2_4 C39_4 1_555 1_555
N3_4 C38_4 1_555 1_555
H28_4 N10_4 1_555 1_555
C39_4 N10_4 1_555 1_555
C40_4 N3_4 1_555 1_555

#END
