
###############################################################################
#
# This file contains modified crystal structure data generated from the
# MOF subset of the Cambridge Structural Database (CSD) v543 
# hosted by the Cambridge Crystallographic Data Centre (CCDC).
#
# This work is licensed under the Creative Commons
# Attribution-NonCommercial-ShareAlike 4.0 International License.
# To view a copy of this license, visit
# http://creativecommons.org/licenses/by-nc-sa/4.0/
# or send a letter to
# Creative Commons, PO Box 1866, Mountain View, CA 94042, USA.
#
# CIF created using the CSD Python API on 29 September 2022
# The structure has been converted into the P1 space group
# The structure has a 3D framework
# The original CSD entry ILIYAG is in the monoclinic crystal system
# The framework has been calculated to contain at least 10.0% void space
# The void calculation uses a probe of radius 1.32A, grid spacing 0.4
#
###############################################################################

data_ILIYAG
_chemical_formula_moiety         '(C192 H120 N48 O44 Tb8)n'
_symmetry_cell_setting           triclinic
_symmetry_space_group_name_H-M   'P 1'
_symmetry_Int_Tables_number      1
_space_group_name_Hall           'P 1'
loop_
_symmetry_equiv_pos_site_id
_symmetry_equiv_pos_as_xyz
1 x,y,z
_cell_length_a                   29.106(5)
_cell_length_b                   21.998(4)
_cell_length_c                   15.091(3)
_cell_angle_alpha                90
_cell_angle_beta                 103.308(3)
_cell_angle_gamma                90
_cell_volume                     9402.91
loop_
_atom_site_label
_atom_site_type_symbol
_atom_site_fract_x
_atom_site_fract_y
_atom_site_fract_z
C23 C 0.6441(2) 0.0361(3) 0.0816(4)
H11 H 0.646846 0.020193 0.139738
C24 C 0.6752(2) 0.0802(2) 0.0649(4)
H12 H 0.699038 0.093662 0.113035
C25 C 0.6081(2) 0.0160(2) 0.0071(3)
C28 C 0.68250(19) 0.0939(2) 0.4339(3)
C29 C 0.6497(2) 0.1019(2) 0.3541(3)
H14 H 0.647088 0.139350 0.324791
C30 C 0.71336(18) 0.1441(2) 0.4789(3)
C31 C 0.6202(2) 0.0545(3) 0.3162(4)
H15 H 0.598379 0.060407 0.261289
C32 C 0.6855(3) 0.0374(2) 0.4797(4)
H16 H 0.706890 0.031899 0.535274
O6 O 0.73394(13) 0.17588(14) 0.0326(2)
O9 O 0.70949(11) 0.19736(13) 0.4447(2)
O10 O 0.74264(15) 0.13459(15) 0.5537(2)
Tb4 Tb 0.76486(2) 0.23520(2) 0.59190(2)
Tb6 Tb 0.76486(2) 0.26480(2) 0.09190(2)
Tb10 Tb 0.73435(2) 0.24880(2) 0.32594(2)
C20 C 0.70421(19) 0.1545(2) 0.9658(3)
C21 C 0.6720(2) 0.1049(2) 0.9802(3)
C22 C 0.6376(2) 0.0832(2) 0.9077(4)
H10 H 0.636015 0.098001 0.849382
C26 C 0.6056(2) 0.0399(3) 0.9212(4)
H13 H 0.582143 0.026569 0.872181
O3 O 0.70001(15) 0.17459(15) 0.8860(2)
Tb8 Tb 0.73435(2) 0.25120(2) 0.82594(2)
C7 C 0.16327(17) 0.76035(19) 0.0039(3)
C8 C 0.12234(17) 0.7760(2) 0.0433(3)
C9 C 0.11749(19) 0.7554(2) 0.1280(4)
H5 H 0.139226 0.727910 0.160745
C10 C 0.0502(2) 0.8340(3) 0.0278(4)
C11 C 0.04667(19) 0.8152(2) 0.1144(4)
C12 C 0.08082(19) 0.7754(2) 0.1632(4)
H7 H 0.078537 0.762249 0.220590
C27 C 0.5626(2) 0.9480(2) 0.0905(3)
H17 H 0.360641 0.726761 0.010189
C37 C 0.41684(19) 0.7752(2) 0.0701(3)
H19 H 0.417798 0.761331 0.128732
C38 C 0.45047(19) 0.8166(2) 0.0555(3)
C40 C 0.5171(2) 0.8809(2) 0.1426(4)
C41 C 0.5706(2) 0.9368(3) 0.2409(4)
C42 C 0.6226(2) 0.9987(3) 0.3588(4)
C48 C 0.6564(3) 0.9908(3) 0.4411(4)
H24 H 0.659055 0.953199 0.469962
N1 N 0.52795(17) 0.9055(2) 0.0697(3)
N2 N 0.58515(19) 0.9653(2) 0.1725(3)
N7 N 0.01193(17) 0.8364(2) 0.1589(3)
H26 H 0.012272 0.819328 0.210279
N9 N 0.57454(19) 0.9713(2) 0.0139(3)
N10 N 0.48345(17) 0.8367(2) 0.1330(3)
H29 H 0.482237 0.818196 0.182613
N11 N 0.5921(2) 0.9510(2) 0.3273(3)
H30 H 0.586012 0.927368 0.368517
N12 N 0.5373(2) 0.8935(2) 0.2321(3)
O8 O 0.20066(12) 0.73565(14) 0.0523(2)
Tb11 Tb 0.26565(2) 0.74880(2) 0.17406(2)
O18 O 0.29051(11) 0.69736(13) 0.0553(2)
Tb1 Tb 0.23514(2) 0.73520(2) 0.90810(2)
Tb2 Tb 0.26565(2) 0.75120(2) 0.67406(2)
H6 H 0.027658 0.859947 0.993764
C13 C 0.0872(2) 0.8137(3) 0.9933(4)
H8 H 0.088933 0.825425 0.934908
C33 C 0.34013(17) 0.75838(19) 0.8319(4)
C34 C 0.37949(16) 0.7746(2) 0.9121(3)
C35 C 0.38256(19) 0.7548(2) 0.9992(4)
C36 C 0.4498(2) 0.8340(3) 0.9650(4)
H18 H 0.473642 0.858567 0.952996
C39 C 0.4139(2) 0.8145(2) 0.8950(4)
H20 H 0.412435 0.827853 0.835988
H28 H 0.559234 0.956411 0.962919
O4 O 0.34266(14) 0.76991(17) 0.7543(2)
O5 O 0.30272(12) 0.73298(15) 0.8459(2)
O7 O 0.16129(13) 0.77245(17) 0.9230(2)
O13 O 0.18294(14) 0.67163(15) 0.8145(2)
O14 O 0.22490(14) 0.67292(17) 0.7093(3)
O15 O 0.29999(15) 0.67459(15) 0.6140(2)
O16 O 0.26606(13) 0.82412(14) 0.9674(2)
O17 O 0.20066(12) 0.76435(14) 0.5523(2)
O19 O 0.29051(11) 0.80264(13) 0.5553(2)
O20 O 0.25736(15) 0.63459(15) 0.9463(2)
O21 O 0.21623(11) 0.79721(13) 0.77570(19)
O22 O 0.25444(13) 0.85528(14) 0.6999(2)
C1 C 0.77638(17) 0.15111(19) 0.2549(3)
C2 C 0.8405(2) 0.1036(2) 0.1932(4)
H1 H 0.843276 0.139471 0.162256
C3 C 0.80650(19) 0.0985(2) 0.2432(3)
C4 C 0.8019(2) 0.0434(2) 0.2869(4)
H2 H 0.779256 0.039456 0.320987
C5 C 0.8708(2) 0.0551(3) 0.1890(5)
H3 H 0.894550 0.059286 0.157435
C17 C 0.8655(2) 0.0010(3) 0.2318(4)
O11 O 0.78377(11) 0.20279(13) 0.22430(19)
O12 O 0.74556(13) 0.14472(14) 0.3001(2)
C18 C 0.8976(2) 0.0132(2) 0.9024(4)
C19 C 0.9045(2) 0.0347(3) 0.8220(4)
H9 H 0.929382 0.019783 0.799259
C43 C 0.8381(2) 0.1021(2) 0.8065(4)
C44 C 0.8299(2) 0.0788(3) 0.8854(4)
H21 H 0.804450 0.093164 0.906775
C45 C 0.8087(2) 0.1525(2) 0.7564(4)
C46 C 0.8749(2) 0.0784(2) 0.7735(4)
H22 H 0.879837 0.092139 0.718167
C47 C 0.8587(2) 0.0342(3) 0.9347(4)
H23 H 0.852411 0.018531 0.987917
O1 O 0.81706(14) 0.17163(15) 0.6855(2)
O2 O 0.77510(14) 0.17292(17) 0.7907(3)
C1_2 C 0.22362(17) 0.65111(19) 0.2451(3)
C2_2 C 0.1595(2) 0.6036(2) 0.3068(4)
H1_2 H 0.156724 0.639471 0.337744
C3_2 C 0.19350(19) 0.5985(2) 0.2568(3)
C4_2 C 0.1981(2) 0.5434(2) 0.2131(4)
H2_2 H 0.220744 0.539456 0.179013
C5_2 C 0.1292(2) 0.5551(3) 0.3110(5)
H3_2 H 0.105450 0.559286 0.342565
C6 C 0.1695(3) 0.4953(2) 0.2203(4)
H4 H 0.173500 0.458517 0.192772
C14 C 0.0216(2) 0.3792(2) 0.3669(4)
C15 C 0.0785(2) 0.4368(3) 0.3290(4)
C16 C 0.0638(2) 0.4441(2) 0.4676(4)
C17_2 C 0.1345(2) 0.5010(3) 0.2682(4)
C18_2 C 0.1024(2) 0.5132(2) 0.5976(4)
C19_2 C 0.0955(2) 0.5347(3) 0.6780(4)
H9_2 H 0.070618 0.519783 0.700741
C43_2 C 0.1619(2) 0.6021(2) 0.6935(4)
C44_2 C 0.1701(2) 0.5788(3) 0.6146(4)
H21_2 H 0.195550 0.593164 0.593225
C45_2 C 0.1913(2) 0.6525(2) 0.7436(4)
C46_2 C 0.1251(2) 0.5784(2) 0.7265(4)
H22_2 H 0.120163 0.592139 0.781833
C47_2 C 0.1413(2) 0.5342(3) 0.5653(4)
H23_2 H 0.147589 0.518531 0.512083
N3 N 0.02915(18) 0.4028(2) 0.4505(3)
N4 N 0.08997(19) 0.4631(2) 0.4112(3)
N5 N 0.04534(19) 0.3929(2) 0.3027(3)
N6 N 0.0710(2) 0.4687(2) 0.5536(3)
H25 H 0.052999 0.454035 0.586150
N8 N 0.1029(2) 0.4516(2) 0.2658(3)
H27 H 0.098800 0.428322 0.218800
O11_2 O 0.21623(11) 0.70279(13) 0.27570(19)
O12_2 O 0.25444(13) 0.64472(14) 0.1999(2)
Tb5 Tb 0.23514(2) 0.76480(2) 0.40810(2)
C7_2 C 0.83673(17) 0.26035(19) 0.4961(3)
C8_2 C 0.87766(17) 0.2760(2) 0.4567(3)
C9_2 C 0.88251(19) 0.2554(2) 0.3720(4)
H5_2 H 0.860774 0.227910 0.339255
C10_2 C 0.9498(2) 0.3340(3) 0.4722(4)
H6_2 H 0.972342 0.359947 0.506236
C11_2 C 0.95333(19) 0.3152(2) 0.3856(4)
C12_2 C 0.91918(19) 0.2754(2) 0.3368(4)
H7_2 H 0.921463 0.262249 0.279410
C13_2 C 0.9128(2) 0.3137(3) 0.5067(4)
H8_2 H 0.911067 0.325425 0.565092
C20_2 C 0.29579(19) 0.6545(2) 0.5342(3)
C21_2 C 0.3280(2) 0.6049(2) 0.5198(3)
C22_2 C 0.3624(2) 0.5832(2) 0.5923(4)
H10_2 H 0.363985 0.598001 0.650618
C23_2 C 0.3559(2) 0.5361(3) 0.4184(4)
H11_2 H 0.353154 0.520193 0.360262
C24_2 C 0.3248(2) 0.5802(2) 0.4351(4)
H12_2 H 0.300962 0.593662 0.386965
C25_2 C 0.3919(2) 0.5160(2) 0.4929(3)
C26_2 C 0.3944(2) 0.5399(3) 0.5788(4)
H13_2 H 0.417857 0.526569 0.627819
C27_2 C 0.4374(2) 0.4480(2) 0.4095(3)
C28_2 C 0.31750(19) 0.5939(2) 0.0661(3)
C29_2 C 0.3503(2) 0.6019(2) 0.1459(3)
H14_2 H 0.352912 0.639350 0.175209
C30_2 C 0.28664(18) 0.6441(2) 0.0211(3)
C31_2 C 0.3798(2) 0.5545(3) 0.1838(4)
H15_2 H 0.401621 0.560407 0.238711
C32_2 C 0.3145(3) 0.5374(2) 0.0203(4)
C33_2 C 0.65987(17) 0.25838(19) 0.6681(4)
C34_2 C 0.62051(16) 0.2746(2) 0.5879(3)
C35_2 C 0.61744(19) 0.2548(2) 0.5008(4)
H17_2 H 0.639359 0.226761 0.489811
C36_2 C 0.5502(2) 0.3340(3) 0.5350(4)
H18_2 H 0.526358 0.358567 0.547004
C37_2 C 0.58316(19) 0.2752(2) 0.4299(3)
H19_2 H 0.582202 0.261331 0.371268
C38_2 C 0.54953(19) 0.3166(2) 0.4445(3)
C39_2 C 0.5861(2) 0.3145(2) 0.6050(4)
H20_2 H 0.587565 0.327853 0.664012
C40_2 C 0.4829(2) 0.3809(2) 0.3574(4)
C41_2 C 0.4294(2) 0.4368(3) 0.2591(4)
C42_2 C 0.3774(2) 0.4987(3) 0.1412(4)
C48_2 C 0.3436(3) 0.4908(3) 0.0589(4)
H24_2 H 0.340945 0.453199 0.030038
N1_2 N 0.47205(17) 0.4055(2) 0.4303(3)
N2_2 N 0.41485(19) 0.4653(2) 0.3275(3)
N7_2 N 0.98807(17) 0.3364(2) 0.3411(3)
H26_2 H 0.987728 0.319328 0.289721
N9_2 N 0.42546(19) 0.4713(2) 0.4861(3)
H28_2 H 0.440766 0.456411 0.537081
N10_2 N 0.51655(17) 0.3367(2) 0.3670(3)
H29_2 H 0.517763 0.318196 0.317387
N11_2 N 0.4079(2) 0.4510(2) 0.1727(3)
H30_2 H 0.413988 0.427368 0.131483
N12_2 N 0.4627(2) 0.3935(2) 0.2679(3)
O4_2 O 0.65734(14) 0.26991(17) 0.7457(2)
O5_2 O 0.69728(12) 0.23298(15) 0.6541(2)
O6_2 O 0.26606(13) 0.67588(14) 0.4674(2)
O7_2 O 0.83871(13) 0.27245(17) 0.5770(2)
O8_2 O 0.79934(12) 0.23565(14) 0.4477(2)
O16_2 O 0.73394(13) 0.32412(14) 0.5326(2)
O17_2 O 0.79934(12) 0.26435(14) 0.9477(2)
O19_2 O 0.70949(11) 0.30264(13) 0.9447(2)
O21_2 O 0.78377(11) 0.29721(13) 0.72430(19)
O22_2 O 0.74556(13) 0.35528(14) 0.8001(2)
H16_2 H 0.293110 0.531899 0.964726
C18_3 C 0.1024(2) 0.9868(2) 0.0976(4)
C19_3 C 0.0955(2) 0.9653(3) 0.1780(4)
H9_3 H 0.070618 0.980217 0.200741
C43_3 C 0.1619(2) 0.8979(2) 0.1935(4)
C44_3 C 0.1701(2) 0.9212(3) 0.1146(4)
H21_3 H 0.195550 0.906836 0.093225
C45_3 C 0.1913(2) 0.8475(2) 0.2436(4)
C46_3 C 0.1251(2) 0.9216(2) 0.2265(4)
H22_3 H 0.120163 0.907861 0.281833
C47_3 C 0.1413(2) 0.9658(3) 0.0653(4)
H23_3 H 0.147589 0.981469 0.012083
O1_2 O 0.18294(14) 0.82837(15) 0.3145(2)
O2_2 O 0.22490(14) 0.82708(17) 0.2093(3)
C1_3 C 0.22362(17) 0.84889(19) 0.7451(3)
C2_3 C 0.1595(2) 0.8964(2) 0.8068(4)
H1_3 H 0.156724 0.860529 0.837744
C3_3 C 0.19350(19) 0.9015(2) 0.7568(3)
C4_3 C 0.1981(2) 0.9566(2) 0.7131(4)
H2_3 H 0.220744 0.960544 0.679013
C5_3 C 0.1292(2) 0.9449(3) 0.8110(5)
H3_3 H 0.105450 0.940714 0.842565
C17_3 C 0.1345(2) 0.9990(3) 0.7682(4)
H6_3 H 0.972342 0.140053 0.006236
C13_3 C 0.9128(2) 0.1863(3) 0.0067(4)
H8_3 H 0.911067 0.174575 0.065092
C33_3 C 0.65987(17) 0.24162(19) 0.1681(4)
C34_3 C 0.62051(16) 0.2254(2) 0.0879(3)
C35_3 C 0.61744(19) 0.2452(2) 0.0008(4)
C36_3 C 0.5502(2) 0.1660(3) 0.0350(4)
H18_3 H 0.526358 0.141433 0.047004
C39_3 C 0.5861(2) 0.1855(2) 0.1050(4)
H20_3 H 0.587565 0.172147 0.164012
H28_3 H 0.440766 0.043589 0.037081
O4_3 O 0.65734(14) 0.23009(17) 0.2457(2)
O5_3 O 0.69728(12) 0.26702(15) 0.1541(2)
O7_3 O 0.83871(13) 0.22755(17) 0.0770(2)
O13_2 O 0.81706(14) 0.32837(15) 0.1855(2)
O14_2 O 0.77510(14) 0.32708(17) 0.2907(3)
O15_2 O 0.70001(15) 0.32541(15) 0.3860(2)
O20_2 O 0.74264(15) 0.36541(15) 0.0537(2)
C7_3 C 0.83673(17) 0.23965(19) 0.9961(3)
C8_3 C 0.87766(17) 0.2240(2) 0.9567(3)
C9_3 C 0.88251(19) 0.2446(2) 0.8720(4)
H5_3 H 0.860774 0.272090 0.839255
C10_3 C 0.9498(2) 0.1660(3) 0.9722(4)
C11_3 C 0.95333(19) 0.1848(2) 0.8856(4)
C12_3 C 0.91918(19) 0.2246(2) 0.8368(4)
H7_3 H 0.921463 0.237751 0.779410
C27_3 C 0.4374(2) 0.0520(2) 0.9095(3)
H17_3 H 0.639359 0.273239 0.989811
C37_3 C 0.58316(19) 0.2248(2) 0.9299(3)
H19_3 H 0.582202 0.238669 0.871268
C38_3 C 0.54953(19) 0.1834(2) 0.9445(3)
C40_3 C 0.4829(2) 0.1191(2) 0.8574(4)
C41_3 C 0.4294(2) 0.0632(3) 0.7591(4)
C42_3 C 0.3774(2) 0.0013(3) 0.6412(4)
C48_3 C 0.3436(3) 0.0092(3) 0.5589(4)
H24_3 H 0.340945 0.046801 0.530038
N1_3 N 0.47205(17) 0.0945(2) 0.9303(3)
N2_3 N 0.41485(19) 0.0347(2) 0.8275(3)
N7_3 N 0.98807(17) 0.1636(2) 0.8411(3)
H26_3 H 0.987728 0.180672 0.789721
N9_3 N 0.42546(19) 0.0287(2) 0.9861(3)
N10_3 N 0.51655(17) 0.1633(2) 0.8670(3)
H29_3 H 0.517763 0.181804 0.817387
N11_3 N 0.4079(2) 0.0490(2) 0.6727(3)
H30_3 H 0.413988 0.072632 0.631483
N12_3 N 0.4627(2) 0.1065(2) 0.7679(3)
C20_3 C 0.29579(19) 0.8455(2) 0.0342(3)
C21_3 C 0.3280(2) 0.8951(2) 0.0198(3)
C22_3 C 0.3624(2) 0.9168(2) 0.0923(4)
H10_3 H 0.363985 0.901999 0.150618
C26_3 C 0.3944(2) 0.9601(3) 0.0788(4)
H13_3 H 0.417857 0.973431 0.127819
O3_2 O 0.29999(15) 0.82541(15) 0.1140(2)
C23_3 C 0.3559(2) 0.9639(3) 0.9184(4)
H11_3 H 0.353154 0.979807 0.860262
C24_3 C 0.3248(2) 0.9198(2) 0.9351(4)
H12_3 H 0.300962 0.906338 0.886965
C25_3 C 0.3919(2) 0.9840(2) 0.9929(3)
C28_3 C 0.31750(19) 0.9061(2) 0.5661(3)
C29_3 C 0.3503(2) 0.8981(2) 0.6459(3)
H14_3 H 0.352912 0.860650 0.675209
C30_3 C 0.28664(18) 0.8559(2) 0.5211(3)
C31_3 C 0.3798(2) 0.9455(3) 0.6838(4)
H15_3 H 0.401621 0.939593 0.738711
C32_3 C 0.3145(3) 0.9626(2) 0.5203(4)
H16_3 H 0.293110 0.968101 0.464726
O10_2 O 0.25736(15) 0.86541(15) 0.4463(2)
H16_4 H 0.706890 0.468101 0.035274
C7_4 C 0.16327(17) 0.73965(19) 0.5039(3)
C8_4 C 0.12234(17) 0.7240(2) 0.5433(3)
C9_4 C 0.11749(19) 0.7446(2) 0.6280(4)
H5_4 H 0.139226 0.772090 0.660745
C10_4 C 0.0502(2) 0.6660(3) 0.5278(4)
H6_4 H 0.027658 0.640053 0.493764
C11_4 C 0.04667(19) 0.6848(2) 0.6144(4)
C12_4 C 0.08082(19) 0.7246(2) 0.6632(4)
H7_4 H 0.078537 0.737751 0.720590
C13_4 C 0.0872(2) 0.6863(3) 0.4933(4)
H8_4 H 0.088933 0.674575 0.434908
C20_4 C 0.70421(19) 0.3455(2) 0.4658(3)
C21_4 C 0.6720(2) 0.3951(2) 0.4802(3)
C22_4 C 0.6376(2) 0.4168(2) 0.4077(4)
H10_4 H 0.636015 0.401999 0.349382
C23_4 C 0.6441(2) 0.4639(3) 0.5816(4)
H11_4 H 0.646846 0.479807 0.639738
C24_4 C 0.6752(2) 0.4198(2) 0.5649(4)
H12_4 H 0.699038 0.406338 0.613035
C25_4 C 0.6081(2) 0.4840(2) 0.5071(3)
C26_4 C 0.6056(2) 0.4601(3) 0.4212(4)
H13_4 H 0.582143 0.473431 0.372181
C27_4 C 0.5626(2) 0.5520(2) 0.5905(3)
C28_4 C 0.68250(19) 0.4061(2) 0.9339(3)
C29_4 C 0.6497(2) 0.3981(2) 0.8541(3)
H14_4 H 0.647088 0.360650 0.824791
C30_4 C 0.71336(18) 0.3559(2) 0.9789(3)
C31_4 C 0.6202(2) 0.4455(3) 0.8162(4)
H15_4 H 0.598379 0.439593 0.761289
C32_4 C 0.6855(3) 0.4626(2) 0.9797(4)
C33_4 C 0.34013(17) 0.74162(19) 0.3319(4)
C34_4 C 0.37949(16) 0.7254(2) 0.4121(3)
C35_4 C 0.38256(19) 0.7452(2) 0.4992(4)
H17_4 H 0.360641 0.773239 0.510189
C36_4 C 0.4498(2) 0.6660(3) 0.4650(4)
H18_4 H 0.473642 0.641433 0.452996
C37_4 C 0.41684(19) 0.7248(2) 0.5701(3)
H19_4 H 0.417798 0.738669 0.628732
C38_4 C 0.45047(19) 0.6834(2) 0.5555(3)
C39_4 C 0.4139(2) 0.6855(2) 0.3950(4)
H20_4 H 0.412435 0.672147 0.335988
C40_4 C 0.5171(2) 0.6191(2) 0.6426(4)
C41_4 C 0.5706(2) 0.5632(3) 0.7409(4)
C42_4 C 0.6226(2) 0.5013(3) 0.8588(4)
C48_4 C 0.6564(3) 0.5092(3) 0.9411(4)
H24_4 H 0.659055 0.546801 0.969962
N1_4 N 0.52795(17) 0.5945(2) 0.5697(3)
N2_4 N 0.58515(19) 0.5347(2) 0.6725(3)
N7_4 N 0.01193(17) 0.6636(2) 0.6589(3)
H26_4 H 0.012272 0.680672 0.710279
N9_4 N 0.57454(19) 0.5287(2) 0.5139(3)
H28_4 H 0.559234 0.543589 0.462919
N10_4 N 0.48345(17) 0.6633(2) 0.6330(3)
H29_4 H 0.482237 0.681804 0.682613
N11_4 N 0.5921(2) 0.5490(2) 0.8273(3)
H30_4 H 0.586012 0.572632 0.868517
N12_4 N 0.5373(2) 0.6065(2) 0.7321(3)
O4_4 O 0.34266(14) 0.73009(17) 0.2543(2)
O5_4 O 0.30272(12) 0.76702(15) 0.3459(2)
O7_4 O 0.16129(13) 0.72755(17) 0.4230(2)
C1_4 C 0.77638(17) 0.34889(19) 0.7549(3)
C2_4 C 0.8405(2) 0.3964(2) 0.6932(4)
H1_4 H 0.843276 0.360529 0.662256
C3_4 C 0.80650(19) 0.4015(2) 0.7432(3)
C4_4 C 0.8019(2) 0.4566(2) 0.7869(4)
H2_4 H 0.779256 0.460544 0.820987
C5_4 C 0.8708(2) 0.4449(3) 0.6890(5)
H3_4 H 0.894550 0.440714 0.657435
C6_2 C 0.8305(3) 0.5047(2) 0.7797(4)
H4_2 H 0.826500 0.541483 0.807228
C14_2 C 0.9784(2) 0.6208(2) 0.6331(4)
C15_2 C 0.9215(2) 0.5632(3) 0.6710(4)
C16_2 C 0.9362(2) 0.5559(2) 0.5324(4)
C17_4 C 0.8655(2) 0.4990(3) 0.7318(4)
C18_4 C 0.8976(2) 0.4868(2) 0.4024(4)
C19_4 C 0.9045(2) 0.4653(3) 0.3220(4)
H9_4 H 0.929382 0.480217 0.299259
C43_4 C 0.8381(2) 0.3979(2) 0.3065(4)
C44_4 C 0.8299(2) 0.4212(3) 0.3854(4)
H21_4 H 0.804450 0.406836 0.406775
C45_4 C 0.8087(2) 0.3475(2) 0.2564(4)
C46_4 C 0.8749(2) 0.4216(2) 0.2735(4)
H22_4 H 0.879837 0.407861 0.218167
C47_4 C 0.8587(2) 0.4658(3) 0.4347(4)
H23_4 H 0.852411 0.481469 0.487917
N3_2 N 0.97085(18) 0.5972(2) 0.5495(3)
N4_2 N 0.91003(19) 0.5369(2) 0.5888(3)
N5_2 N 0.95466(19) 0.6071(2) 0.6973(3)
N6_2 N 0.9290(2) 0.5313(2) 0.4464(3)
H25_2 H 0.947001 0.545965 0.413850
N8_2 N 0.8971(2) 0.5484(2) 0.7342(3)
H27_2 H 0.901200 0.571678 0.781200
C6_3 C 0.8305(3) 0.9953(2) 0.2797(4)
H4_3 H 0.826500 0.958517 0.307228
C14_3 C 0.9784(2) 0.8792(2) 0.1331(4)
C15_3 C 0.9215(2) 0.9368(3) 0.1710(4)
C16_3 C 0.9362(2) 0.9441(2) 0.0324(4)
N3_3 N 0.97085(18) 0.9028(2) 0.0495(3)
N4_3 N 0.91003(19) 0.9631(2) 0.0888(3)
N5_3 N 0.95466(19) 0.8929(2) 0.1973(3)
N8_3 N 0.8971(2) 0.9516(2) 0.2342(3)
H27_3 H 0.901200 0.928322 0.281200
N6_3 N 0.9290(2) 0.9687(2) 0.9464(3)
H25_3 H 0.947001 0.954035 0.913850
N6_4 N 0.0710(2) 0.0313(2) 0.0536(3)
H25_4 H 0.052999 0.045965 0.086150
C6_4 C 0.1695(3) 0.0047(2) 0.7203(4)
H4_4 H 0.173500 0.041483 0.692772
C14_4 C 0.0216(2) 0.1208(2) 0.8669(4)
C15_4 C 0.0785(2) 0.0632(3) 0.8290(4)
C16_4 C 0.0638(2) 0.0559(2) 0.9676(4)
N3_4 N 0.02915(18) 0.0972(2) 0.9505(3)
N4_4 N 0.08997(19) 0.0369(2) 0.9112(3)
N5_4 N 0.04534(19) 0.1071(2) 0.8027(3)
N8_4 N 0.1029(2) 0.0484(2) 0.7658(3)
H27_4 H 0.098800 0.071678 0.718800
loop_
_geom_bond_atom_site_label_1
_geom_bond_atom_site_label_2
_geom_bond_site_symmetry_1
_geom_bond_site_symmetry_2
C23 H11 1_555 1_555
H12 C24 1_555 1_555
C25 C23 1_555 1_555
C28 C29 1_555 1_555
C29 H14 1_555 1_555
C30 C28 1_555 1_555
C31 C29 1_555 1_555
H15 C31 1_555 1_555
C32 C28 1_555 1_555
H16 C32 1_555 1_555
O9 C30 1_555 1_555
O10 C30 1_555 1_555
Tb4 O9 1_555 1_555
Tb6 O6 1_555 1_555
Tb10 O9 1_555 1_555
C23 C24 1_555 1_555
O10 Tb4 1_555 1_555
C20 C21 1_555 1_555
C21 C22 1_555 1_555
C22 H10 1_555 1_555
C26 C22 1_555 1_555
H13 C26 1_555 1_555
O3 C20 1_555 1_555
Tb8 O3 1_555 1_555
C7 C8 1_555 1_555
C8 C9 1_555 1_555
C9 H5 1_555 1_555
C11 C10 1_555 1_555
C12 C9 1_555 1_555
H7 C12 1_555 1_555
C27 N1 1_555 1_555
H19 C37 1_555 1_555
C40 N1 1_555 1_555
C41 N2 1_555 1_555
H24 C48 1_555 1_555
N2 C27 1_555 1_555
N7 C11 1_555 1_555
H26 N7 1_555 1_555
N10 C38 1_555 1_555
H29 N10 1_555 1_555
N11 C41 1_555 1_555
H30 N11 1_555 1_555
N12 C40 1_555 1_555
Tb11 O8 1_555 1_555
C7 O8 1_555 1_555
C11 C12 1_555 1_555
C27 N9 1_555 1_555
C37 C38 1_555 1_555
C40 N10 1_555 1_555
C41 N12 1_555 1_555
C42 C48 1_555 1_555
C42 N11 1_555 1_555
Tb11 O18 1_555 1_555
Tb1 O5 1_555 1_555
Tb2 O4 1_555 1_555
H8 C13 1_555 1_555
C33 C34 1_555 1_555
C34 C35 1_555 1_555
C36 H18 1_555 1_555
C39 C34 1_555 1_555
H20 C39 1_555 1_555
O4 C33 1_555 1_555
O5 Tb2 1_555 1_555
O7 Tb1 1_555 1_555
O13 Tb1 1_555 1_555
O14 Tb2 1_555 1_555
O15 Tb2 1_555 1_555
O16 Tb1 1_555 1_555
O17 Tb2 1_555 1_555
O19 Tb2 1_555 1_555
O20 Tb1 1_555 1_555
O21 Tb1 1_555 1_555
O22 Tb2 1_555 1_555
Tb2 O21 1_555 1_555
C33 O5 1_555 1_555
C36 C39 1_555 1_555
C1 C3 1_555 1_555
C2 H1 1_555 1_555
C3 C2 1_555 1_555
C4 C3 1_555 1_555
H2 C4 1_555 1_555
C5 C2 1_555 1_555
H3 C5 1_555 1_555
C17 C5 1_555 1_555
O11 C1 1_555 1_555
O12 C1 1_555 1_555
Tb6 O11 1_555 1_555
Tb10 O11 1_555 1_555
O12 Tb10 1_555 1_555
C18 C19 1_555 1_555
C19 H9 1_555 1_555
C43 C44 1_555 1_555
C44 H21 1_555 1_555
C45 C43 1_555 1_555
C46 C19 1_555 1_555
H22 C46 1_555 1_555
C47 C18 1_555 1_555
H23 C47 1_555 1_555
O1 C45 1_555 1_555
O2 C45 1_555 1_555
Tb4 O1 1_555 1_555
Tb8 O2 1_555 1_555
C43 C46 1_555 1_555
C44 C47 1_555 1_555
C1_2 C3_2 1_555 1_555
C2_2 H1_2 1_555 1_555
C3_2 C2_2 1_555 1_555
C4_2 C3_2 1_555 1_555
H2_2 C4_2 1_555 1_555
C5_2 C2_2 1_555 1_555
H3_2 C5_2 1_555 1_555
C6 C4_2 1_555 1_555
H4 C6 1_555 1_555
C14 N3 1_555 1_555
C15 N4 1_555 1_555
C16 N3 1_555 1_555
C17_2 C5_2 1_555 1_555
C18_2 C19_2 1_555 1_555
C19_2 H9_2 1_555 1_555
C43_2 C44_2 1_555 1_555
C44_2 H21_2 1_555 1_555
C45_2 C43_2 1_555 1_555
C46_2 C19_2 1_555 1_555
H22_2 C46_2 1_555 1_555
C47_2 C18_2 1_555 1_555
H23_2 C47_2 1_555 1_555
N4 C16 1_555 1_555
N5 C14 1_555 1_555
N6 C16 1_555 1_555
H25 N6 1_555 1_555
N8 C15 1_555 1_555
H27 N8 1_555 1_555
O13 C45_2 1_555 1_555
O14 C45_2 1_555 1_555
O11_2 C1_2 1_555 1_555
O12_2 C1_2 1_555 1_555
Tb5 O11_2 1_555 1_555
Tb11 O11_2 1_555 1_555
C6 C17_2 1_555 1_555
C15 N5 1_555 1_555
C17_2 N8 1_555 1_555
C18_2 N6 1_555 1_555
C43_2 C46_2 1_555 1_555
C44_2 C47_2 1_555 1_555
O12_2 Tb11 1_555 1_555
Tb4 O5_2 1_555 1_555
Tb8 O4_2 1_555 1_555
C7_2 C8_2 1_555 1_555
C8_2 C9_2 1_555 1_555
C9_2 H5_2 1_555 1_555
C10_2 H6_2 1_555 1_555
C11_2 C10_2 1_555 1_555
C12_2 C9_2 1_555 1_555
H7_2 C12_2 1_555 1_555
C13_2 C8_2 1_555 1_555
H8_2 C13_2 1_555 1_555
C20_2 C21_2 1_555 1_555
C21_2 C22_2 1_555 1_555
C22_2 H10_2 1_555 1_555
C23_2 H11_2 1_555 1_555
C24_2 C21_2 1_555 1_555
H12_2 C24_2 1_555 1_555
C25_2 C23_2 1_555 1_555
C26_2 C22_2 1_555 1_555
H13_2 C26_2 1_555 1_555
C27_2 N1_2 1_555 1_555
C28_2 C29_2 1_555 1_555
C29_2 H14_2 1_555 1_555
C30_2 C28_2 1_555 1_555
C31_2 C29_2 1_555 1_555
H15_2 C31_2 1_555 1_555
C32_2 C28_2 1_555 1_555
C33_2 C34_2 1_555 1_555
C34_2 C35_2 1_555 1_555
C35_2 H17_2 1_555 1_555
C36_2 H18_2 1_555 1_555
C37_2 C35_2 1_555 1_555
H19_2 C37_2 1_555 1_555
C38_2 C36_2 1_555 1_555
C39_2 C34_2 1_555 1_555
H20_2 C39_2 1_555 1_555
C40_2 N1_2 1_555 1_555
C41_2 N2_2 1_555 1_555
C42_2 C31_2 1_555 1_555
C48_2 C32_2 1_555 1_555
H24_2 C48_2 1_555 1_555
N2_2 C27_2 1_555 1_555
N7_2 C11_2 1_555 1_555
H26_2 N7_2 1_555 1_555
N9_2 C25_2 1_555 1_555
H28_2 N9_2 1_555 1_555
N10_2 C38_2 1_555 1_555
H29_2 N10_2 1_555 1_555
N11_2 C41_2 1_555 1_555
H30_2 N11_2 1_555 1_555
N12_2 C40_2 1_555 1_555
O15 C20_2 1_555 1_555
O4_2 C33_2 1_555 1_555
O5_2 Tb8 1_555 1_555
O6_2 C20_2 1_555 1_555
O7_2 Tb4 1_555 1_555
O8_2 Tb4 1_555 1_555
O18 C30_2 1_555 1_555
Tb5 O6_2 1_555 1_555
Tb10 O8_2 1_555 1_555
O16_2 Tb4 1_555 1_555
O17_2 Tb8 1_555 1_555
O19_2 Tb8 1_555 1_555
O21_2 Tb4 1_555 1_555
O22_2 Tb8 1_555 1_555
Tb8 O21_2 1_555 1_555
C7_2 O7_2 1_555 1_555
C7_2 O8_2 1_555 1_555
C10_2 C13_2 1_555 1_555
C11_2 C12_2 1_555 1_555
C23_2 C24_2 1_555 1_555
C25_2 C26_2 1_555 1_555
C27_2 N9_2 1_555 1_555
C33_2 O5_2 1_555 1_555
C36_2 C39_2 1_555 1_555
C37_2 C38_2 1_555 1_555
C40_2 N10_2 1_555 1_555
C41_2 N12_2 1_555 1_555
C42_2 C48_2 1_555 1_555
C42_2 N11_2 1_555 1_555
C18_3 C19_3 1_555 1_555
C19_3 H9_3 1_555 1_555
C43_3 C44_3 1_555 1_555
C44_3 H21_3 1_555 1_555
C45_3 C43_3 1_555 1_555
C46_3 C19_3 1_555 1_555
H22_3 C46_3 1_555 1_555
C47_3 C18_3 1_555 1_555
H23_3 C47_3 1_555 1_555
O1_2 C45_3 1_555 1_555
O2_2 C45_3 1_555 1_555
Tb5 O1_2 1_555 1_555
Tb11 O2_2 1_555 1_555
C43_3 C46_3 1_555 1_555
C44_3 C47_3 1_555 1_555
C1_3 C3_3 1_555 1_555
C2_3 H1_3 1_555 1_555
C3_3 C2_3 1_555 1_555
C4_3 C3_3 1_555 1_555
H2_3 C4_3 1_555 1_555
C5_3 C2_3 1_555 1_555
H3_3 C5_3 1_555 1_555
C17_3 C5_3 1_555 1_555
O21 C1_3 1_555 1_555
O22 C1_3 1_555 1_555
Tb6 O5_3 1_555 1_555
Tb10 O4_3 1_555 1_555
H8_3 C13_3 1_555 1_555
C33_3 C34_3 1_555 1_555
C34_3 C35_3 1_555 1_555
C36_3 H18_3 1_555 1_555
C39_3 C34_3 1_555 1_555
H20_3 C39_3 1_555 1_555
O4_3 C33_3 1_555 1_555
O5_3 Tb10 1_555 1_555
O7_3 Tb6 1_555 1_555
O13_2 Tb6 1_555 1_555
O14_2 Tb10 1_555 1_555
O15_2 Tb10 1_555 1_555
O20_2 Tb6 1_555 1_555
C33_3 O5_3 1_555 1_555
C36_3 C39_3 1_555 1_555
C7_3 C8_3 1_555 1_555
C8_3 C9_3 1_555 1_555
C9_3 H5_3 1_555 1_555
C11_3 C10_3 1_555 1_555
C12_3 C9_3 1_555 1_555
H7_3 C12_3 1_555 1_555
C27_3 N1_3 1_555 1_555
H19_3 C37_3 1_555 1_555
C40_3 N1_3 1_555 1_555
C41_3 N2_3 1_555 1_555
H24_3 C48_3 1_555 1_555
N2_3 C27_3 1_555 1_555
N7_3 C11_3 1_555 1_555
H26_3 N7_3 1_555 1_555
N10_3 C38_3 1_555 1_555
H29_3 N10_3 1_555 1_555
N11_3 C41_3 1_555 1_555
H30_3 N11_3 1_555 1_555
N12_3 C40_3 1_555 1_555
C7_3 O17_2 1_555 1_555
C11_3 C12_3 1_555 1_555
C27_3 N9_3 1_555 1_555
C37_3 C38_3 1_555 1_555
C40_3 N10_3 1_555 1_555
C41_3 N12_3 1_555 1_555
C42_3 C48_3 1_555 1_555
C42_3 N11_3 1_555 1_555
C20_3 C21_3 1_555 1_555
C21_3 C22_3 1_555 1_555
C22_3 H10_3 1_555 1_555
C26_3 C22_3 1_555 1_555
H13_3 C26_3 1_555 1_555
O3_2 C20_3 1_555 1_555
Tb11 O3_2 1_555 1_555
C23_3 H11_3 1_555 1_555
H12_3 C24_3 1_555 1_555
C25_3 C23_3 1_555 1_555
C28_3 C29_3 1_555 1_555
C29_3 H14_3 1_555 1_555
C30_3 C28_3 1_555 1_555
C31_3 C29_3 1_555 1_555
H15_3 C31_3 1_555 1_555
C32_3 C28_3 1_555 1_555
H16_3 C32_3 1_555 1_555
O19 C30_3 1_555 1_555
O10_2 C30_3 1_555 1_555
Tb5 O19 1_555 1_555
C23_3 C24_3 1_555 1_555
O10_2 Tb5 1_555 1_555
Tb5 O5_4 1_555 1_555
Tb11 O4_4 1_555 1_555
C7_4 C8_4 1_555 1_555
C8_4 C9_4 1_555 1_555
C9_4 H5_4 1_555 1_555
C10_4 H6_4 1_555 1_555
C11_4 C10_4 1_555 1_555
C12_4 C9_4 1_555 1_555
H7_4 C12_4 1_555 1_555
C13_4 C8_4 1_555 1_555
H8_4 C13_4 1_555 1_555
C20_4 C21_4 1_555 1_555
C21_4 C22_4 1_555 1_555
C22_4 H10_4 1_555 1_555
C23_4 H11_4 1_555 1_555
C24_4 C21_4 1_555 1_555
H12_4 C24_4 1_555 1_555
C25_4 C23_4 1_555 1_555
C26_4 C22_4 1_555 1_555
H13_4 C26_4 1_555 1_555
C27_4 N1_4 1_555 1_555
C28_4 C29_4 1_555 1_555
C29_4 H14_4 1_555 1_555
C30_4 C28_4 1_555 1_555
C31_4 C29_4 1_555 1_555
H15_4 C31_4 1_555 1_555
C32_4 C28_4 1_555 1_555
C33_4 C34_4 1_555 1_555
C34_4 C35_4 1_555 1_555
C35_4 H17_4 1_555 1_555
C36_4 H18_4 1_555 1_555
C37_4 C35_4 1_555 1_555
H19_4 C37_4 1_555 1_555
C38_4 C36_4 1_555 1_555
C39_4 C34_4 1_555 1_555
H20_4 C39_4 1_555 1_555
C40_4 N1_4 1_555 1_555
C41_4 N2_4 1_555 1_555
C42_4 C31_4 1_555 1_555
C48_4 C32_4 1_555 1_555
H24_4 C48_4 1_555 1_555
N2_4 C27_4 1_555 1_555
N7_4 C11_4 1_555 1_555
H26_4 N7_4 1_555 1_555
N9_4 C25_4 1_555 1_555
H28_4 N9_4 1_555 1_555
N10_4 C38_4 1_555 1_555
H29_4 N10_4 1_555 1_555
N11_4 C41_4 1_555 1_555
H30_4 N11_4 1_555 1_555
N12_4 C40_4 1_555 1_555
O15_2 C20_4 1_555 1_555
O4_4 C33_4 1_555 1_555
O5_4 Tb11 1_555 1_555
O16_2 C20_4 1_555 1_555
O7_4 Tb5 1_555 1_555
O17 Tb5 1_555 1_555
O19_2 C30_4 1_555 1_555
C7_4 O7_4 1_555 1_555
C7_4 O17 1_555 1_555
C10_4 C13_4 1_555 1_555
C11_4 C12_4 1_555 1_555
C23_4 C24_4 1_555 1_555
C25_4 C26_4 1_555 1_555
C27_4 N9_4 1_555 1_555
C33_4 O5_4 1_555 1_555
C36_4 C39_4 1_555 1_555
C37_4 C38_4 1_555 1_555
C40_4 N10_4 1_555 1_555
C41_4 N12_4 1_555 1_555
C42_4 C48_4 1_555 1_555
C42_4 N11_4 1_555 1_555
C1_4 C3_4 1_555 1_555
C2_4 H1_4 1_555 1_555
C3_4 C2_4 1_555 1_555
C4_4 C3_4 1_555 1_555
H2_4 C4_4 1_555 1_555
C5_4 C2_4 1_555 1_555
H3_4 C5_4 1_555 1_555
C6_2 C4_4 1_555 1_555
H4_2 C6_2 1_555 1_555
C14_2 N3_2 1_555 1_555
C15_2 N4_2 1_555 1_555
C16_2 N3_2 1_555 1_555
C17_4 C5_4 1_555 1_555
C18_4 C19_4 1_555 1_555
C19_4 H9_4 1_555 1_555
C43_4 C44_4 1_555 1_555
C44_4 H21_4 1_555 1_555
C45_4 C43_4 1_555 1_555
C46_4 C19_4 1_555 1_555
H22_4 C46_4 1_555 1_555
C47_4 C18_4 1_555 1_555
H23_4 C47_4 1_555 1_555
N4_2 C16_2 1_555 1_555
N5_2 C14_2 1_555 1_555
N6_2 C16_2 1_555 1_555
H25_2 N6_2 1_555 1_555
N8_2 C15_2 1_555 1_555
H27_2 N8_2 1_555 1_555
O13_2 C45_4 1_555 1_555
O14_2 C45_4 1_555 1_555
O21_2 C1_4 1_555 1_555
O22_2 C1_4 1_555 1_555
C6_2 C17_4 1_555 1_555
C15_2 N5_2 1_555 1_555
C17_4 N8_2 1_555 1_555
C18_4 N6_2 1_555 1_555
C43_4 C46_4 1_555 1_555
C44_4 C47_4 1_555 1_555
H4_3 C6_3 1_555 1_555
C14_3 N3_3 1_555 1_555
C15_3 N4_3 1_555 1_555
C16_3 N3_3 1_555 1_555
N4_3 C16_3 1_555 1_555
N5_3 C14_3 1_555 1_555
N8_3 C15_3 1_555 1_555
H27_3 N8_3 1_555 1_555
C15_3 N5_3 1_555 1_555
H25_3 N6_3 1_555 1_555
H25_4 N6_4 1_555 1_555
H4_4 C6_4 1_555 1_555
C14_4 N3_4 1_555 1_555
C15_4 N4_4 1_555 1_555
C16_4 N3_4 1_555 1_555
N4_4 C16_4 1_555 1_555
N5_4 C14_4 1_555 1_555
N8_4 C15_4 1_555 1_555
H27_4 N8_4 1_555 1_555
C15_4 N5_4 1_555 1_555

#END
