
###############################################################################
#
# This file contains modified crystal structure data generated from the
# MOF subset of the Cambridge Structural Database (CSD) v543 
# hosted by the Cambridge Crystallographic Data Centre (CCDC).
#
# This work is licensed under the Creative Commons
# Attribution-NonCommercial-ShareAlike 4.0 International License.
# To view a copy of this license, visit
# http://creativecommons.org/licenses/by-nc-sa/4.0/
# or send a letter to
# Creative Commons, PO Box 1866, Mountain View, CA 94042, USA.
#
# CIF created using the CSD Python API on 29 September 2022
# The structure has been converted into the P1 space group
# The structure has a 3D framework
# The original CSD entry ILIYEK is in the monoclinic crystal system
# The framework has been calculated to contain at least 10.0% void space
# The void calculation uses a probe of radius 1.32A, grid spacing 0.4
#
###############################################################################

data_ILIYEK
_chemical_formula_moiety         '(C192 H120 Er8 N48 O44)n'
_symmetry_cell_setting           triclinic
_symmetry_space_group_name_H-M   'P 1'
_symmetry_Int_Tables_number      1
_space_group_name_Hall           'P 1'
loop_
_symmetry_equiv_pos_site_id
_symmetry_equiv_pos_as_xyz
1 x,y,z
_cell_length_a                   28.9870(14)
_cell_length_b                   22.1223(11)
_cell_length_c                   15.1309(8)
_cell_angle_alpha                90
_cell_angle_beta                 103.227(2)
_cell_angle_gamma                90
_cell_volume                     9445.42
loop_
_atom_site_label
_atom_site_type_symbol
_atom_site_fract_x
_atom_site_fract_y
_atom_site_fract_z
C23 C 0.6441(2) 0.0361(3) 0.0815(4)
H11 H 0.646825 0.020257 0.139426
C24 C 0.6752(2) 0.0802(2) 0.0648(4)
H12 H 0.699140 0.093569 0.112816
C25 C 0.6081(2) 0.0159(2) 0.0073(3)
C28 C 0.6825(2) 0.0939(2) 0.4339(3)
C29 C 0.6497(2) 0.1018(2) 0.3540(3)
H14 H 0.647122 0.139063 0.324870
C30 C 0.71335(18) 0.1441(2) 0.4790(3)
C31 C 0.6200(2) 0.0546(3) 0.3163(4)
H15 H 0.598147 0.060605 0.261567
C32 C 0.6854(3) 0.0373(3) 0.4795(4)
H16 H 0.706780 0.031937 0.534973
O6 O 0.73386(13) 0.17598(14) 0.0325(2)
O9 O 0.70953(11) 0.19737(13) 0.4448(2)
O10 O 0.74261(15) 0.13456(15) 0.5537(2)
Er4 Er 0.76486(2) 0.23522(2) 0.59190(2)
Er6 Er 0.76486(2) 0.26478(2) 0.09190(2)
Er10 Er 0.73435(2) 0.24880(2) 0.32595(2)
C20 C 0.7043(2) 0.1545(2) 0.9659(3)
C21 C 0.6720(2) 0.1049(2) 0.9803(3)
C22 C 0.6375(2) 0.0832(2) 0.9079(4)
H10 H 0.636029 0.097934 0.849788
C26 C 0.6055(2) 0.0400(3) 0.9213(4)
H13 H 0.581979 0.026795 0.872531
O3 O 0.70005(15) 0.17456(15) 0.8860(2)
Er8 Er 0.73435(2) 0.25120(2) 0.82595(2)
C7 C 0.16325(17) 0.76039(19) 0.0038(3)
C8 C 0.12225(17) 0.7760(2) 0.0432(3)
C9 C 0.11748(19) 0.7553(2) 0.1278(4)
H5 H 0.139262 0.727940 0.160221
C10 C 0.0502(2) 0.8339(3) 0.0277(4)
C11 C 0.0466(2) 0.8152(2) 0.1144(4)
C12 C 0.0807(2) 0.7754(2) 0.1630(4)
H7 H 0.078375 0.762317 0.220263
C27 C 0.5626(2) 0.9480(2) 0.0906(4)
H17 H 0.360878 0.726636 0.010056
C37 C 0.4168(2) 0.7753(2) 0.0700(3)
H19 H 0.417552 0.761660 0.128420
C38 C 0.45047(19) 0.8165(2) 0.0555(3)
C40 C 0.5171(2) 0.8809(2) 0.1426(4)
C41 C 0.5707(2) 0.9367(3) 0.2408(4)
C42 C 0.6226(2) 0.9987(3) 0.3587(4)
C48 C 0.6565(3) 0.9909(3) 0.4413(4)
H24 H 0.659158 0.953562 0.470176
N1 N 0.52797(17) 0.9055(2) 0.0698(3)
N2 N 0.58507(19) 0.9654(2) 0.1724(3)
N7 N 0.01185(17) 0.8364(2) 0.1588(3)
H26 H 0.012084 0.819379 0.209974
N9 N 0.57446(19) 0.9715(2) 0.0139(3)
N10 N 0.48349(18) 0.8367(2) 0.1331(3)
H29 H 0.482315 0.818217 0.182514
N11 N 0.5921(2) 0.9511(2) 0.3274(3)
H30 H 0.586049 0.927497 0.368446
N12 N 0.5373(2) 0.8936(2) 0.2319(3)
O8 O 0.20056(12) 0.73568(14) 0.0523(2)
Er11 Er 0.26565(2) 0.74880(2) 0.17405(2)
O18 O 0.29047(11) 0.69737(13) 0.0552(2)
Er1 Er 0.23514(2) 0.73522(2) 0.90810(2)
Er2 Er 0.26565(2) 0.75120(2) 0.67405(2)
H6 H 0.027611 0.859799 0.993759
C13 C 0.0872(2) 0.8135(3) 0.9933(4)
H8 H 0.088946 0.825104 0.935057
C33 C 0.34023(17) 0.75835(19) 0.8318(4)
C34 C 0.37950(16) 0.7746(2) 0.9121(3)
C35 C 0.38269(19) 0.7549(2) 0.9992(4)
C36 C 0.4496(2) 0.8341(3) 0.9649(4)
H18 H 0.473371 0.858913 0.952860
C39 C 0.4140(2) 0.8145(2) 0.8952(4)
H20 H 0.412600 0.827704 0.836358
H28 H 0.559008 0.956822 0.963055
O4 O 0.34262(14) 0.76999(17) 0.7545(2)
O5 O 0.30278(12) 0.73295(15) 0.8459(2)
O7 O 0.16132(13) 0.77255(17) 0.9232(2)
O13 O 0.18293(15) 0.67164(15) 0.8144(2)
O14 O 0.22482(15) 0.67302(17) 0.7094(3)
O15 O 0.29995(15) 0.67456(15) 0.6140(2)
O16 O 0.26614(13) 0.82402(14) 0.9675(2)
O17 O 0.20056(12) 0.76432(14) 0.5523(2)
O19 O 0.29047(11) 0.80263(13) 0.5552(2)
O20 O 0.25739(15) 0.63456(15) 0.9463(2)
O21 O 0.21628(11) 0.79728(13) 0.77555(19)
O22 O 0.25444(13) 0.85532(14) 0.7000(2)
C1 C 0.77636(17) 0.1512(2) 0.2547(3)
C2 C 0.8406(2) 0.1035(2) 0.1934(4)
H1 H 0.843357 0.139216 0.162637
C3 C 0.80643(19) 0.0983(2) 0.2431(3)
C4 C 0.8019(2) 0.0433(2) 0.2867(4)
H2 H 0.779079 0.039486 0.320652
C5 C 0.8708(3) 0.0553(3) 0.1890(5)
H3 H 0.894618 0.059457 0.157311
C17 C 0.8655(2) 0.0010(3) 0.2320(4)
O11 O 0.78372(11) 0.20272(13) 0.22445(19)
O12 O 0.74556(13) 0.14468(14) 0.3000(2)
C18 C 0.8976(2) 0.0130(2) 0.9026(4)
C19 C 0.9044(2) 0.0347(3) 0.8221(4)
H9 H 0.929375 0.019807 0.799266
C43 C 0.8381(2) 0.1021(2) 0.8066(4)
C44 C 0.8299(2) 0.0788(3) 0.8853(4)
H21 H 0.804314 0.093110 0.906564
C45 C 0.8087(2) 0.1525(2) 0.7564(4)
C46 C 0.8749(2) 0.0785(3) 0.7737(4)
H22 H 0.880035 0.092182 0.718629
C47 C 0.8588(2) 0.0342(3) 0.9346(4)
H23 H 0.852403 0.018806 0.987742
O1 O 0.81707(15) 0.17164(15) 0.6856(2)
O2 O 0.77518(15) 0.17302(17) 0.7906(3)
C1_2 C 0.22364(17) 0.6512(2) 0.2453(3)
C2_2 C 0.1594(2) 0.6035(2) 0.3066(4)
H1_2 H 0.156643 0.639216 0.337363
C3_2 C 0.19357(19) 0.5983(2) 0.2569(3)
C4_2 C 0.1981(2) 0.5433(2) 0.2133(4)
H2_2 H 0.220921 0.539486 0.179348
C5_2 C 0.1292(3) 0.5553(3) 0.3110(5)
H3_2 H 0.105382 0.559457 0.342689
C6 C 0.1694(3) 0.4954(2) 0.2202(4)
H4 H 0.173493 0.458914 0.192544
C14 C 0.0216(2) 0.3791(2) 0.3668(4)
C15 C 0.0786(2) 0.4367(3) 0.3289(4)
C16 C 0.0638(2) 0.4441(2) 0.4676(4)
C17_2 C 0.1345(2) 0.5010(3) 0.2680(4)
C18_2 C 0.1024(2) 0.5130(2) 0.5974(4)
C19_2 C 0.0956(2) 0.5347(3) 0.6779(4)
H9_2 H 0.070625 0.519807 0.700734
C43_2 C 0.1619(2) 0.6021(2) 0.6934(4)
C44_2 C 0.1701(2) 0.5788(3) 0.6147(4)
H21_2 H 0.195686 0.593110 0.593436
C45_2 C 0.1913(2) 0.6525(2) 0.7436(4)
C46_2 C 0.1251(2) 0.5785(3) 0.7263(4)
H22_2 H 0.119965 0.592182 0.781371
C47_2 C 0.1412(2) 0.5342(3) 0.5654(4)
H23_2 H 0.147597 0.518806 0.512258
N3 N 0.02922(18) 0.4029(2) 0.4505(3)
N4 N 0.08996(19) 0.4631(2) 0.4113(3)
N5 N 0.0454(2) 0.3929(2) 0.3027(3)
N6 N 0.0711(2) 0.4688(2) 0.5535(3)
H25 H 0.052960 0.454196 0.585989
N8 N 0.1030(2) 0.4515(2) 0.2659(4)
H27 H 0.098945 0.428378 0.219104
O11_2 O 0.21628(11) 0.70272(13) 0.27555(19)
O12_2 O 0.25444(13) 0.64468(14) 0.2000(2)
Er5 Er 0.23514(2) 0.76478(2) 0.40810(2)
C7_2 C 0.83675(17) 0.26039(19) 0.4962(3)
C8_2 C 0.87775(17) 0.2760(2) 0.4568(3)
C9_2 C 0.88252(19) 0.2553(2) 0.3722(4)
H5_2 H 0.860738 0.227940 0.339779
C10_2 C 0.9498(2) 0.3339(3) 0.4723(4)
H6_2 H 0.972389 0.359799 0.506241
C11_2 C 0.9534(2) 0.3152(2) 0.3856(4)
C12_2 C 0.9193(2) 0.2754(2) 0.3370(4)
H7_2 H 0.921625 0.262317 0.279737
C13_2 C 0.9128(2) 0.3135(3) 0.5067(4)
H8_2 H 0.911054 0.325104 0.564943
C20_2 C 0.2957(2) 0.6545(2) 0.5341(3)
C21_2 C 0.3280(2) 0.6049(2) 0.5197(3)
C22_2 C 0.3625(2) 0.5832(2) 0.5921(4)
H10_2 H 0.363971 0.597934 0.650212
C23_2 C 0.3559(2) 0.5361(3) 0.4185(4)
H11_2 H 0.353175 0.520257 0.360574
C24_2 C 0.3248(2) 0.5802(2) 0.4352(4)
H12_2 H 0.300860 0.593569 0.387184
C25_2 C 0.3919(2) 0.5159(2) 0.4927(3)
C26_2 C 0.3945(2) 0.5400(3) 0.5787(4)
H13_2 H 0.418021 0.526795 0.627469
C27_2 C 0.4374(2) 0.4480(2) 0.4094(4)
C28_2 C 0.3175(2) 0.5939(2) 0.0661(3)
C29_2 C 0.3503(2) 0.6018(2) 0.1460(3)
H14_2 H 0.352878 0.639063 0.175130
C30_2 C 0.28665(18) 0.6441(2) 0.0210(3)
C31_2 C 0.3800(2) 0.5546(3) 0.1837(4)
H15_2 H 0.401853 0.560605 0.238433
C32_2 C 0.3146(3) 0.5373(3) 0.0205(4)
C33_2 C 0.65977(17) 0.25835(19) 0.6682(4)
C34_2 C 0.62050(16) 0.2746(2) 0.5879(3)
C35_2 C 0.61731(19) 0.2549(2) 0.5008(4)
H17_2 H 0.639122 0.226636 0.489944
C36_2 C 0.5504(2) 0.3341(3) 0.5351(4)
H18_2 H 0.526629 0.358913 0.547140
C37_2 C 0.5832(2) 0.2753(2) 0.4300(3)
H19_2 H 0.582448 0.261660 0.371580
C38_2 C 0.54953(19) 0.3165(2) 0.4445(3)
C39_2 C 0.5860(2) 0.3145(2) 0.6048(4)
H20_2 H 0.587400 0.327704 0.663642
C40_2 C 0.4829(2) 0.3809(2) 0.3574(4)
C41_2 C 0.4293(2) 0.4367(3) 0.2592(4)
C42_2 C 0.3774(2) 0.4987(3) 0.1413(4)
C48_2 C 0.3435(3) 0.4909(3) 0.0587(4)
H24_2 H 0.340842 0.453562 0.029824
N1_2 N 0.47203(17) 0.4055(2) 0.4302(3)
N2_2 N 0.41493(19) 0.4654(2) 0.3276(3)
N7_2 N 0.98815(17) 0.3364(2) 0.3412(3)
H26_2 H 0.987916 0.319379 0.290026
N9_2 N 0.42554(19) 0.4715(2) 0.4861(3)
H28_2 H 0.440992 0.456822 0.536945
N10_2 N 0.51651(18) 0.3367(2) 0.3669(3)
H29_2 H 0.517685 0.318217 0.317486
N11_2 N 0.4079(2) 0.4511(2) 0.1726(3)
H30_2 H 0.413951 0.427497 0.131554
N12_2 N 0.4627(2) 0.3936(2) 0.2681(3)
O4_2 O 0.65738(14) 0.26999(17) 0.7455(2)
O5_2 O 0.69722(12) 0.23295(15) 0.6541(2)
O6_2 O 0.26614(13) 0.67598(14) 0.4675(2)
O7_2 O 0.83868(13) 0.27255(17) 0.5768(2)
O8_2 O 0.79944(12) 0.23568(14) 0.4477(2)
O16_2 O 0.73386(13) 0.32402(14) 0.5325(2)
O17_2 O 0.79944(12) 0.26432(14) 0.9477(2)
O19_2 O 0.70953(11) 0.30263(13) 0.9448(2)
O21_2 O 0.78372(11) 0.29728(13) 0.72445(19)
O22_2 O 0.74556(13) 0.35532(14) 0.8000(2)
H16_2 H 0.293220 0.531937 0.965027
C18_3 C 0.1024(2) 0.9870(2) 0.0974(4)
C19_3 C 0.0956(2) 0.9653(3) 0.1779(4)
H9_3 H 0.070625 0.980193 0.200734
C43_3 C 0.1619(2) 0.8979(2) 0.1934(4)
C44_3 C 0.1701(2) 0.9212(3) 0.1147(4)
H21_3 H 0.195686 0.906890 0.093436
C45_3 C 0.1913(2) 0.8475(2) 0.2436(4)
C46_3 C 0.1251(2) 0.9215(3) 0.2263(4)
H22_3 H 0.119965 0.907818 0.281371
C47_3 C 0.1412(2) 0.9658(3) 0.0654(4)
H23_3 H 0.147597 0.981194 0.012258
O1_2 O 0.18293(15) 0.82836(15) 0.3144(2)
O2_2 O 0.22482(15) 0.82698(17) 0.2094(3)
C1_3 C 0.22364(17) 0.8488(2) 0.7453(3)
C2_3 C 0.1594(2) 0.8965(2) 0.8066(4)
H1_3 H 0.156643 0.860784 0.837363
C3_3 C 0.19357(19) 0.9017(2) 0.7569(3)
C4_3 C 0.1981(2) 0.9567(2) 0.7133(4)
H2_3 H 0.220921 0.960514 0.679348
C5_3 C 0.1292(3) 0.9447(3) 0.8110(5)
H3_3 H 0.105382 0.940543 0.842689
C17_3 C 0.1345(2) 0.9990(3) 0.7680(4)
H6_3 H 0.972389 0.140201 0.006241
C13_3 C 0.9128(2) 0.1865(3) 0.0067(4)
H8_3 H 0.911054 0.174896 0.064943
C33_3 C 0.65977(17) 0.24165(19) 0.1682(4)
C34_3 C 0.62050(16) 0.2254(2) 0.0879(3)
C35_3 C 0.61731(19) 0.2451(2) 0.0008(4)
C36_3 C 0.5504(2) 0.1659(3) 0.0351(4)
H18_3 H 0.526629 0.141087 0.047140
C39_3 C 0.5860(2) 0.1855(2) 0.1048(4)
H20_3 H 0.587400 0.172296 0.163642
H28_3 H 0.440992 0.043178 0.036945
O4_3 O 0.65738(14) 0.23001(17) 0.2455(2)
O5_3 O 0.69722(12) 0.26705(15) 0.1541(2)
O7_3 O 0.83868(13) 0.22745(17) 0.0768(2)
O13_2 O 0.81707(15) 0.32836(15) 0.1856(2)
O14_2 O 0.77518(15) 0.32698(17) 0.2906(3)
O15_2 O 0.70005(15) 0.32544(15) 0.3860(2)
O20_2 O 0.74261(15) 0.36544(15) 0.0537(2)
C7_3 C 0.83675(17) 0.23961(19) 0.9962(3)
C8_3 C 0.87775(17) 0.2240(2) 0.9568(3)
C9_3 C 0.88252(19) 0.2447(2) 0.8722(4)
H5_3 H 0.860738 0.272060 0.839779
C10_3 C 0.9498(2) 0.1661(3) 0.9723(4)
C11_3 C 0.9534(2) 0.1848(2) 0.8856(4)
C12_3 C 0.9193(2) 0.2246(2) 0.8370(4)
H7_3 H 0.921625 0.237683 0.779737
C27_3 C 0.4374(2) 0.0520(2) 0.9094(4)
H17_3 H 0.639122 0.273364 0.989944
C37_3 C 0.5832(2) 0.2247(2) 0.9300(3)
H19_3 H 0.582448 0.238340 0.871580
C38_3 C 0.54953(19) 0.1835(2) 0.9445(3)
C40_3 C 0.4829(2) 0.1191(2) 0.8574(4)
C41_3 C 0.4293(2) 0.0633(3) 0.7592(4)
C42_3 C 0.3774(2) 0.0013(3) 0.6413(4)
C48_3 C 0.3435(3) 0.0091(3) 0.5587(4)
H24_3 H 0.340842 0.046438 0.529824
N1_3 N 0.47203(17) 0.0945(2) 0.9302(3)
N2_3 N 0.41493(19) 0.0346(2) 0.8276(3)
N7_3 N 0.98815(17) 0.1636(2) 0.8412(3)
H26_3 H 0.987916 0.180621 0.790026
N9_3 N 0.42554(19) 0.0285(2) 0.9861(3)
N10_3 N 0.51651(18) 0.1633(2) 0.8669(3)
H29_3 H 0.517685 0.181783 0.817486
N11_3 N 0.4079(2) 0.0489(2) 0.6726(3)
H30_3 H 0.413951 0.072503 0.631554
N12_3 N 0.4627(2) 0.1064(2) 0.7681(3)
C20_3 C 0.2957(2) 0.8455(2) 0.0341(3)
C21_3 C 0.3280(2) 0.8951(2) 0.0197(3)
C22_3 C 0.3625(2) 0.9168(2) 0.0921(4)
H10_3 H 0.363971 0.902066 0.150212
C26_3 C 0.3945(2) 0.9600(3) 0.0787(4)
H13_3 H 0.418021 0.973205 0.127469
O3_2 O 0.29995(15) 0.82544(15) 0.1140(2)
C23_3 C 0.3559(2) 0.9639(3) 0.9185(4)
H11_3 H 0.353175 0.979743 0.860574
C24_3 C 0.3248(2) 0.9198(2) 0.9352(4)
H12_3 H 0.300860 0.906431 0.887184
C25_3 C 0.3919(2) 0.9841(2) 0.9927(3)
C28_3 C 0.3175(2) 0.9061(2) 0.5661(3)
C29_3 C 0.3503(2) 0.8982(2) 0.6460(3)
H14_3 H 0.352878 0.860937 0.675130
C30_3 C 0.28665(18) 0.8559(2) 0.5210(3)
C31_3 C 0.3800(2) 0.9454(3) 0.6837(4)
H15_3 H 0.401853 0.939395 0.738433
C32_3 C 0.3146(3) 0.9627(3) 0.5205(4)
H16_3 H 0.293220 0.968063 0.465027
O10_2 O 0.25739(15) 0.86544(15) 0.4463(2)
H16_4 H 0.706780 0.468063 0.034973
C7_4 C 0.16325(17) 0.73961(19) 0.5038(3)
C8_4 C 0.12225(17) 0.7240(2) 0.5432(3)
C9_4 C 0.11748(19) 0.7447(2) 0.6278(4)
H5_4 H 0.139262 0.772060 0.660221
C10_4 C 0.0502(2) 0.6661(3) 0.5277(4)
H6_4 H 0.027611 0.640201 0.493759
C11_4 C 0.0466(2) 0.6848(2) 0.6144(4)
C12_4 C 0.0807(2) 0.7246(2) 0.6630(4)
H7_4 H 0.078375 0.737683 0.720263
C13_4 C 0.0872(2) 0.6865(3) 0.4933(4)
H8_4 H 0.088946 0.674896 0.435057
C20_4 C 0.7043(2) 0.3455(2) 0.4659(3)
C21_4 C 0.6720(2) 0.3951(2) 0.4803(3)
C22_4 C 0.6375(2) 0.4168(2) 0.4079(4)
H10_4 H 0.636029 0.402066 0.349788
C23_4 C 0.6441(2) 0.4639(3) 0.5815(4)
H11_4 H 0.646825 0.479743 0.639426
C24_4 C 0.6752(2) 0.4198(2) 0.5648(4)
H12_4 H 0.699140 0.406431 0.612816
C25_4 C 0.6081(2) 0.4841(2) 0.5073(3)
C26_4 C 0.6055(2) 0.4600(3) 0.4213(4)
H13_4 H 0.581979 0.473205 0.372531
C27_4 C 0.5626(2) 0.5520(2) 0.5906(4)
C28_4 C 0.6825(2) 0.4061(2) 0.9339(3)
C29_4 C 0.6497(2) 0.3982(2) 0.8540(3)
H14_4 H 0.647122 0.360937 0.824870
C30_4 C 0.71335(18) 0.3559(2) 0.9790(3)
C31_4 C 0.6200(2) 0.4454(3) 0.8163(4)
H15_4 H 0.598147 0.439395 0.761567
C32_4 C 0.6854(3) 0.4627(3) 0.9795(4)
C33_4 C 0.34023(17) 0.74165(19) 0.3318(4)
C34_4 C 0.37950(16) 0.7254(2) 0.4121(3)
C35_4 C 0.38269(19) 0.7451(2) 0.4992(4)
H17_4 H 0.360878 0.773364 0.510056
C36_4 C 0.4496(2) 0.6659(3) 0.4649(4)
H18_4 H 0.473371 0.641087 0.452860
C37_4 C 0.4168(2) 0.7247(2) 0.5700(3)
H19_4 H 0.417552 0.738340 0.628420
C38_4 C 0.45047(19) 0.6835(2) 0.5555(3)
C39_4 C 0.4140(2) 0.6855(2) 0.3952(4)
H20_4 H 0.412600 0.672296 0.336358
C40_4 C 0.5171(2) 0.6191(2) 0.6426(4)
C41_4 C 0.5707(2) 0.5633(3) 0.7408(4)
C42_4 C 0.6226(2) 0.5013(3) 0.8587(4)
C48_4 C 0.6565(3) 0.5091(3) 0.9413(4)
H24_4 H 0.659158 0.546438 0.970176
N1_4 N 0.52797(17) 0.5945(2) 0.5698(3)
N2_4 N 0.58507(19) 0.5346(2) 0.6724(3)
N7_4 N 0.01185(17) 0.6636(2) 0.6588(3)
H26_4 H 0.012084 0.680621 0.709974
N9_4 N 0.57446(19) 0.5285(2) 0.5139(3)
H28_4 H 0.559008 0.543178 0.463055
N10_4 N 0.48349(18) 0.6633(2) 0.6331(3)
H29_4 H 0.482315 0.681783 0.682514
N11_4 N 0.5921(2) 0.5489(2) 0.8274(3)
H30_4 H 0.586049 0.572503 0.868446
N12_4 N 0.5373(2) 0.6064(2) 0.7319(3)
O4_4 O 0.34262(14) 0.73001(17) 0.2545(2)
O5_4 O 0.30278(12) 0.76705(15) 0.3459(2)
O7_4 O 0.16132(13) 0.72745(17) 0.4232(2)
C1_4 C 0.77636(17) 0.3488(2) 0.7547(3)
C2_4 C 0.8406(2) 0.3965(2) 0.6934(4)
H1_4 H 0.843357 0.360784 0.662637
C3_4 C 0.80643(19) 0.4017(2) 0.7431(3)
C4_4 C 0.8019(2) 0.4567(2) 0.7867(4)
H2_4 H 0.779079 0.460514 0.820652
C5_4 C 0.8708(3) 0.4447(3) 0.6890(5)
H3_4 H 0.894618 0.440543 0.657311
C6_2 C 0.8306(3) 0.5046(2) 0.7798(4)
H4_2 H 0.826507 0.541086 0.807456
C14_2 C 0.9784(2) 0.6209(2) 0.6332(4)
C15_2 C 0.9214(2) 0.5633(3) 0.6711(4)
C16_2 C 0.9362(2) 0.5559(2) 0.5324(4)
C17_4 C 0.8655(2) 0.4990(3) 0.7320(4)
C18_4 C 0.8976(2) 0.4870(2) 0.4026(4)
C19_4 C 0.9044(2) 0.4653(3) 0.3221(4)
H9_4 H 0.929375 0.480193 0.299266
C43_4 C 0.8381(2) 0.3979(2) 0.3066(4)
C44_4 C 0.8299(2) 0.4212(3) 0.3853(4)
H21_4 H 0.804314 0.406890 0.406564
C45_4 C 0.8087(2) 0.3475(2) 0.2564(4)
C46_4 C 0.8749(2) 0.4215(3) 0.2737(4)
H22_4 H 0.880035 0.407818 0.218629
C47_4 C 0.8588(2) 0.4658(3) 0.4346(4)
H23_4 H 0.852403 0.481194 0.487742
N3_2 N 0.97078(18) 0.5971(2) 0.5495(3)
N4_2 N 0.91004(19) 0.5369(2) 0.5887(3)
N5_2 N 0.9546(2) 0.6071(2) 0.6973(3)
N6_2 N 0.9289(2) 0.5312(2) 0.4465(3)
H25_2 H 0.947040 0.545804 0.414011
N8_2 N 0.8970(2) 0.5485(2) 0.7341(4)
H27_2 H 0.901055 0.571622 0.780896
C6_3 C 0.8306(3) 0.9954(2) 0.2798(4)
H4_3 H 0.826507 0.958914 0.307456
C14_3 C 0.9784(2) 0.8791(2) 0.1332(4)
C15_3 C 0.9214(2) 0.9367(3) 0.1711(4)
C16_3 C 0.9362(2) 0.9441(2) 0.0324(4)
N3_3 N 0.97078(18) 0.9029(2) 0.0495(3)
N4_3 N 0.91004(19) 0.9631(2) 0.0887(3)
N5_3 N 0.9546(2) 0.8929(2) 0.1973(3)
N8_3 N 0.8970(2) 0.9515(2) 0.2341(4)
H27_3 H 0.901055 0.928378 0.280896
N6_3 N 0.9289(2) 0.9688(2) 0.9465(3)
H25_3 H 0.947040 0.954196 0.914011
N6_4 N 0.0711(2) 0.0312(2) 0.0535(3)
H25_4 H 0.052960 0.045804 0.085989
C6_4 C 0.1694(3) 0.0046(2) 0.7202(4)
H4_4 H 0.173493 0.041086 0.692544
C14_4 C 0.0216(2) 0.1209(2) 0.8668(4)
C15_4 C 0.0786(2) 0.0633(3) 0.8289(4)
C16_4 C 0.0638(2) 0.0559(2) 0.9676(4)
N3_4 N 0.02922(18) 0.0971(2) 0.9505(3)
N4_4 N 0.08996(19) 0.0369(2) 0.9113(3)
N5_4 N 0.0454(2) 0.1071(2) 0.8027(3)
N8_4 N 0.1030(2) 0.0485(2) 0.7659(4)
H27_4 H 0.098945 0.071622 0.719104
loop_
_geom_bond_atom_site_label_1
_geom_bond_atom_site_label_2
_geom_bond_site_symmetry_1
_geom_bond_site_symmetry_2
C23 H11 1_555 1_555
H12 C24 1_555 1_555
C25 C23 1_555 1_555
C28 C29 1_555 1_555
C29 H14 1_555 1_555
C30 C28 1_555 1_555
C31 C29 1_555 1_555
H15 C31 1_555 1_555
C32 C28 1_555 1_555
H16 C32 1_555 1_555
O9 C30 1_555 1_555
O10 C30 1_555 1_555
Er4 O9 1_555 1_555
Er6 O6 1_555 1_555
Er10 O9 1_555 1_555
C23 C24 1_555 1_555
O10 Er4 1_555 1_555
C20 C21 1_555 1_555
C21 C22 1_555 1_555
C22 H10 1_555 1_555
C26 C22 1_555 1_555
H13 C26 1_555 1_555
O3 C20 1_555 1_555
Er8 O3 1_555 1_555
C7 C8 1_555 1_555
C8 C9 1_555 1_555
C9 H5 1_555 1_555
C11 C10 1_555 1_555
C12 C9 1_555 1_555
H7 C12 1_555 1_555
C27 N1 1_555 1_555
H19 C37 1_555 1_555
C40 N1 1_555 1_555
C41 N2 1_555 1_555
H24 C48 1_555 1_555
N2 C27 1_555 1_555
N7 C11 1_555 1_555
H26 N7 1_555 1_555
N10 C38 1_555 1_555
H29 N10 1_555 1_555
N11 C41 1_555 1_555
H30 N11 1_555 1_555
N12 C40 1_555 1_555
Er11 O8 1_555 1_555
C7 O8 1_555 1_555
C11 C12 1_555 1_555
C27 N9 1_555 1_555
C37 C38 1_555 1_555
C40 N10 1_555 1_555
C41 N12 1_555 1_555
C42 C48 1_555 1_555
C42 N11 1_555 1_555
Er11 O18 1_555 1_555
Er1 O5 1_555 1_555
Er2 O4 1_555 1_555
H8 C13 1_555 1_555
C33 C34 1_555 1_555
C34 C35 1_555 1_555
C36 H18 1_555 1_555
C39 C34 1_555 1_555
H20 C39 1_555 1_555
O4 C33 1_555 1_555
O5 Er2 1_555 1_555
O7 Er1 1_555 1_555
O13 Er1 1_555 1_555
O14 Er2 1_555 1_555
O15 Er2 1_555 1_555
O16 Er1 1_555 1_555
O17 Er2 1_555 1_555
O19 Er2 1_555 1_555
O20 Er1 1_555 1_555
O21 Er1 1_555 1_555
O22 Er2 1_555 1_555
Er2 O21 1_555 1_555
C33 O5 1_555 1_555
C36 C39 1_555 1_555
C1 C3 1_555 1_555
C2 H1 1_555 1_555
C3 C2 1_555 1_555
C4 C3 1_555 1_555
H2 C4 1_555 1_555
C5 C2 1_555 1_555
H3 C5 1_555 1_555
C17 C5 1_555 1_555
O11 C1 1_555 1_555
O12 C1 1_555 1_555
Er6 O11 1_555 1_555
Er10 O11 1_555 1_555
O12 Er10 1_555 1_555
C18 C19 1_555 1_555
C19 H9 1_555 1_555
C43 C44 1_555 1_555
C44 H21 1_555 1_555
C45 C43 1_555 1_555
C46 C19 1_555 1_555
H22 C46 1_555 1_555
C47 C18 1_555 1_555
H23 C47 1_555 1_555
O1 C45 1_555 1_555
O2 C45 1_555 1_555
Er4 O1 1_555 1_555
Er8 O2 1_555 1_555
C43 C46 1_555 1_555
C44 C47 1_555 1_555
C1_2 C3_2 1_555 1_555
C2_2 H1_2 1_555 1_555
C3_2 C2_2 1_555 1_555
C4_2 C3_2 1_555 1_555
H2_2 C4_2 1_555 1_555
C5_2 C2_2 1_555 1_555
H3_2 C5_2 1_555 1_555
C6 C4_2 1_555 1_555
H4 C6 1_555 1_555
C14 N3 1_555 1_555
C15 N4 1_555 1_555
C16 N3 1_555 1_555
C17_2 C5_2 1_555 1_555
C18_2 C19_2 1_555 1_555
C19_2 H9_2 1_555 1_555
C43_2 C44_2 1_555 1_555
C44_2 H21_2 1_555 1_555
C45_2 C43_2 1_555 1_555
C46_2 C19_2 1_555 1_555
H22_2 C46_2 1_555 1_555
C47_2 C18_2 1_555 1_555
H23_2 C47_2 1_555 1_555
N4 C16 1_555 1_555
N5 C14 1_555 1_555
N6 C16 1_555 1_555
H25 N6 1_555 1_555
N8 C15 1_555 1_555
H27 N8 1_555 1_555
O13 C45_2 1_555 1_555
O14 C45_2 1_555 1_555
O11_2 C1_2 1_555 1_555
O12_2 C1_2 1_555 1_555
Er5 O11_2 1_555 1_555
Er11 O11_2 1_555 1_555
C6 C17_2 1_555 1_555
C15 N5 1_555 1_555
C17_2 N8 1_555 1_555
C18_2 N6 1_555 1_555
C43_2 C46_2 1_555 1_555
C44_2 C47_2 1_555 1_555
O12_2 Er11 1_555 1_555
Er4 O5_2 1_555 1_555
Er8 O4_2 1_555 1_555
C7_2 C8_2 1_555 1_555
C8_2 C9_2 1_555 1_555
C9_2 H5_2 1_555 1_555
C10_2 H6_2 1_555 1_555
C11_2 C10_2 1_555 1_555
C12_2 C9_2 1_555 1_555
H7_2 C12_2 1_555 1_555
C13_2 C8_2 1_555 1_555
H8_2 C13_2 1_555 1_555
C20_2 C21_2 1_555 1_555
C21_2 C22_2 1_555 1_555
C22_2 H10_2 1_555 1_555
C23_2 H11_2 1_555 1_555
C24_2 C21_2 1_555 1_555
H12_2 C24_2 1_555 1_555
C25_2 C23_2 1_555 1_555
C26_2 C22_2 1_555 1_555
H13_2 C26_2 1_555 1_555
C27_2 N1_2 1_555 1_555
C28_2 C29_2 1_555 1_555
C29_2 H14_2 1_555 1_555
C30_2 C28_2 1_555 1_555
C31_2 C29_2 1_555 1_555
H15_2 C31_2 1_555 1_555
C32_2 C28_2 1_555 1_555
C33_2 C34_2 1_555 1_555
C34_2 C35_2 1_555 1_555
C35_2 H17_2 1_555 1_555
C36_2 H18_2 1_555 1_555
C37_2 C35_2 1_555 1_555
H19_2 C37_2 1_555 1_555
C38_2 C36_2 1_555 1_555
C39_2 C34_2 1_555 1_555
H20_2 C39_2 1_555 1_555
C40_2 N1_2 1_555 1_555
C41_2 N2_2 1_555 1_555
C42_2 C31_2 1_555 1_555
C48_2 C32_2 1_555 1_555
H24_2 C48_2 1_555 1_555
N2_2 C27_2 1_555 1_555
N7_2 C11_2 1_555 1_555
H26_2 N7_2 1_555 1_555
N9_2 C25_2 1_555 1_555
H28_2 N9_2 1_555 1_555
N10_2 C38_2 1_555 1_555
H29_2 N10_2 1_555 1_555
N11_2 C41_2 1_555 1_555
H30_2 N11_2 1_555 1_555
N12_2 C40_2 1_555 1_555
O15 C20_2 1_555 1_555
O4_2 C33_2 1_555 1_555
O5_2 Er8 1_555 1_555
O6_2 C20_2 1_555 1_555
O7_2 Er4 1_555 1_555
O8_2 Er4 1_555 1_555
O18 C30_2 1_555 1_555
Er5 O6_2 1_555 1_555
Er10 O8_2 1_555 1_555
O16_2 Er4 1_555 1_555
O17_2 Er8 1_555 1_555
O19_2 Er8 1_555 1_555
O21_2 Er4 1_555 1_555
O22_2 Er8 1_555 1_555
Er8 O21_2 1_555 1_555
C7_2 O7_2 1_555 1_555
C7_2 O8_2 1_555 1_555
C10_2 C13_2 1_555 1_555
C11_2 C12_2 1_555 1_555
C23_2 C24_2 1_555 1_555
C25_2 C26_2 1_555 1_555
C27_2 N9_2 1_555 1_555
C33_2 O5_2 1_555 1_555
C36_2 C39_2 1_555 1_555
C37_2 C38_2 1_555 1_555
C40_2 N10_2 1_555 1_555
C41_2 N12_2 1_555 1_555
C42_2 C48_2 1_555 1_555
C42_2 N11_2 1_555 1_555
C18_3 C19_3 1_555 1_555
C19_3 H9_3 1_555 1_555
C43_3 C44_3 1_555 1_555
C44_3 H21_3 1_555 1_555
C45_3 C43_3 1_555 1_555
C46_3 C19_3 1_555 1_555
H22_3 C46_3 1_555 1_555
C47_3 C18_3 1_555 1_555
H23_3 C47_3 1_555 1_555
O1_2 C45_3 1_555 1_555
O2_2 C45_3 1_555 1_555
Er5 O1_2 1_555 1_555
Er11 O2_2 1_555 1_555
C43_3 C46_3 1_555 1_555
C44_3 C47_3 1_555 1_555
C1_3 C3_3 1_555 1_555
C2_3 H1_3 1_555 1_555
C3_3 C2_3 1_555 1_555
C4_3 C3_3 1_555 1_555
H2_3 C4_3 1_555 1_555
C5_3 C2_3 1_555 1_555
H3_3 C5_3 1_555 1_555
C17_3 C5_3 1_555 1_555
O21 C1_3 1_555 1_555
O22 C1_3 1_555 1_555
Er6 O5_3 1_555 1_555
Er10 O4_3 1_555 1_555
H8_3 C13_3 1_555 1_555
C33_3 C34_3 1_555 1_555
C34_3 C35_3 1_555 1_555
C36_3 H18_3 1_555 1_555
C39_3 C34_3 1_555 1_555
H20_3 C39_3 1_555 1_555
O4_3 C33_3 1_555 1_555
O5_3 Er10 1_555 1_555
O7_3 Er6 1_555 1_555
O13_2 Er6 1_555 1_555
O14_2 Er10 1_555 1_555
O15_2 Er10 1_555 1_555
O20_2 Er6 1_555 1_555
C33_3 O5_3 1_555 1_555
C36_3 C39_3 1_555 1_555
C7_3 C8_3 1_555 1_555
C8_3 C9_3 1_555 1_555
C9_3 H5_3 1_555 1_555
C11_3 C10_3 1_555 1_555
C12_3 C9_3 1_555 1_555
H7_3 C12_3 1_555 1_555
C27_3 N1_3 1_555 1_555
H19_3 C37_3 1_555 1_555
C40_3 N1_3 1_555 1_555
C41_3 N2_3 1_555 1_555
H24_3 C48_3 1_555 1_555
N2_3 C27_3 1_555 1_555
N7_3 C11_3 1_555 1_555
H26_3 N7_3 1_555 1_555
N10_3 C38_3 1_555 1_555
H29_3 N10_3 1_555 1_555
N11_3 C41_3 1_555 1_555
H30_3 N11_3 1_555 1_555
N12_3 C40_3 1_555 1_555
C7_3 O17_2 1_555 1_555
C11_3 C12_3 1_555 1_555
C27_3 N9_3 1_555 1_555
C37_3 C38_3 1_555 1_555
C40_3 N10_3 1_555 1_555
C41_3 N12_3 1_555 1_555
C42_3 C48_3 1_555 1_555
C42_3 N11_3 1_555 1_555
C20_3 C21_3 1_555 1_555
C21_3 C22_3 1_555 1_555
C22_3 H10_3 1_555 1_555
C26_3 C22_3 1_555 1_555
H13_3 C26_3 1_555 1_555
O3_2 C20_3 1_555 1_555
Er11 O3_2 1_555 1_555
C23_3 H11_3 1_555 1_555
H12_3 C24_3 1_555 1_555
C25_3 C23_3 1_555 1_555
C28_3 C29_3 1_555 1_555
C29_3 H14_3 1_555 1_555
C30_3 C28_3 1_555 1_555
C31_3 C29_3 1_555 1_555
H15_3 C31_3 1_555 1_555
C32_3 C28_3 1_555 1_555
H16_3 C32_3 1_555 1_555
O19 C30_3 1_555 1_555
O10_2 C30_3 1_555 1_555
Er5 O19 1_555 1_555
C23_3 C24_3 1_555 1_555
O10_2 Er5 1_555 1_555
Er5 O5_4 1_555 1_555
Er11 O4_4 1_555 1_555
C7_4 C8_4 1_555 1_555
C8_4 C9_4 1_555 1_555
C9_4 H5_4 1_555 1_555
C10_4 H6_4 1_555 1_555
C11_4 C10_4 1_555 1_555
C12_4 C9_4 1_555 1_555
H7_4 C12_4 1_555 1_555
C13_4 C8_4 1_555 1_555
H8_4 C13_4 1_555 1_555
C20_4 C21_4 1_555 1_555
C21_4 C22_4 1_555 1_555
C22_4 H10_4 1_555 1_555
C23_4 H11_4 1_555 1_555
C24_4 C21_4 1_555 1_555
H12_4 C24_4 1_555 1_555
C25_4 C23_4 1_555 1_555
C26_4 C22_4 1_555 1_555
H13_4 C26_4 1_555 1_555
C27_4 N1_4 1_555 1_555
C28_4 C29_4 1_555 1_555
C29_4 H14_4 1_555 1_555
C30_4 C28_4 1_555 1_555
C31_4 C29_4 1_555 1_555
H15_4 C31_4 1_555 1_555
C32_4 C28_4 1_555 1_555
C33_4 C34_4 1_555 1_555
C34_4 C35_4 1_555 1_555
C35_4 H17_4 1_555 1_555
C36_4 H18_4 1_555 1_555
C37_4 C35_4 1_555 1_555
H19_4 C37_4 1_555 1_555
C38_4 C36_4 1_555 1_555
C39_4 C34_4 1_555 1_555
H20_4 C39_4 1_555 1_555
C40_4 N1_4 1_555 1_555
C41_4 N2_4 1_555 1_555
C42_4 C31_4 1_555 1_555
C48_4 C32_4 1_555 1_555
H24_4 C48_4 1_555 1_555
N2_4 C27_4 1_555 1_555
N7_4 C11_4 1_555 1_555
H26_4 N7_4 1_555 1_555
N9_4 C25_4 1_555 1_555
H28_4 N9_4 1_555 1_555
N10_4 C38_4 1_555 1_555
H29_4 N10_4 1_555 1_555
N11_4 C41_4 1_555 1_555
H30_4 N11_4 1_555 1_555
N12_4 C40_4 1_555 1_555
O15_2 C20_4 1_555 1_555
O4_4 C33_4 1_555 1_555
O5_4 Er11 1_555 1_555
O16_2 C20_4 1_555 1_555
O7_4 Er5 1_555 1_555
O17 Er5 1_555 1_555
O19_2 C30_4 1_555 1_555
C7_4 O7_4 1_555 1_555
C7_4 O17 1_555 1_555
C10_4 C13_4 1_555 1_555
C11_4 C12_4 1_555 1_555
C23_4 C24_4 1_555 1_555
C25_4 C26_4 1_555 1_555
C27_4 N9_4 1_555 1_555
C33_4 O5_4 1_555 1_555
C36_4 C39_4 1_555 1_555
C37_4 C38_4 1_555 1_555
C40_4 N10_4 1_555 1_555
C41_4 N12_4 1_555 1_555
C42_4 C48_4 1_555 1_555
C42_4 N11_4 1_555 1_555
C1_4 C3_4 1_555 1_555
C2_4 H1_4 1_555 1_555
C3_4 C2_4 1_555 1_555
C4_4 C3_4 1_555 1_555
H2_4 C4_4 1_555 1_555
C5_4 C2_4 1_555 1_555
H3_4 C5_4 1_555 1_555
C6_2 C4_4 1_555 1_555
H4_2 C6_2 1_555 1_555
C14_2 N3_2 1_555 1_555
C15_2 N4_2 1_555 1_555
C16_2 N3_2 1_555 1_555
C17_4 C5_4 1_555 1_555
C18_4 C19_4 1_555 1_555
C19_4 H9_4 1_555 1_555
C43_4 C44_4 1_555 1_555
C44_4 H21_4 1_555 1_555
C45_4 C43_4 1_555 1_555
C46_4 C19_4 1_555 1_555
H22_4 C46_4 1_555 1_555
C47_4 C18_4 1_555 1_555
H23_4 C47_4 1_555 1_555
N4_2 C16_2 1_555 1_555
N5_2 C14_2 1_555 1_555
N6_2 C16_2 1_555 1_555
H25_2 N6_2 1_555 1_555
N8_2 C15_2 1_555 1_555
H27_2 N8_2 1_555 1_555
O13_2 C45_4 1_555 1_555
O14_2 C45_4 1_555 1_555
O21_2 C1_4 1_555 1_555
O22_2 C1_4 1_555 1_555
C6_2 C17_4 1_555 1_555
C15_2 N5_2 1_555 1_555
C17_4 N8_2 1_555 1_555
C18_4 N6_2 1_555 1_555
C43_4 C46_4 1_555 1_555
C44_4 C47_4 1_555 1_555
H4_3 C6_3 1_555 1_555
C14_3 N3_3 1_555 1_555
C15_3 N4_3 1_555 1_555
C16_3 N3_3 1_555 1_555
N4_3 C16_3 1_555 1_555
N5_3 C14_3 1_555 1_555
N8_3 C15_3 1_555 1_555
H27_3 N8_3 1_555 1_555
C15_3 N5_3 1_555 1_555
H25_3 N6_3 1_555 1_555
H25_4 N6_4 1_555 1_555
H4_4 C6_4 1_555 1_555
C14_4 N3_4 1_555 1_555
C15_4 N4_4 1_555 1_555
C16_4 N3_4 1_555 1_555
N4_4 C16_4 1_555 1_555
N5_4 C14_4 1_555 1_555
N8_4 C15_4 1_555 1_555
H27_4 N8_4 1_555 1_555
C15_4 N5_4 1_555 1_555

#END
