
###############################################################################
#
# This file contains modified crystal structure data generated from the
# MOF subset of the Cambridge Structural Database (CSD) v543 
# hosted by the Cambridge Crystallographic Data Centre (CCDC).
#
# This work is licensed under the Creative Commons
# Attribution-NonCommercial-ShareAlike 4.0 International License.
# To view a copy of this license, visit
# http://creativecommons.org/licenses/by-nc-sa/4.0/
# or send a letter to
# Creative Commons, PO Box 1866, Mountain View, CA 94042, USA.
#
# CIF created using the CSD Python API on 29 September 2022
# The structure has been converted into the P1 space group
# The structure has a 3D framework
# The original CSD entry ILODOF is in the orthorhombic crystal system
# The framework has been calculated to contain at least 10.0% void space
# The void calculation uses a probe of radius 1.32A, grid spacing 0.4
#
###############################################################################

data_ILODOF
_chemical_formula_moiety         '(C120 H120 Cu24 I24 N44 P8 S8)n'
_symmetry_cell_setting           triclinic
_symmetry_space_group_name_H-M   'P 1'
_symmetry_Int_Tables_number      1
_space_group_name_Hall           'P 1'
loop_
_symmetry_equiv_pos_site_id
_symmetry_equiv_pos_as_xyz
1 x,y,z
_cell_length_a                   16.55536(19)
_cell_length_b                   15.68341(18)
_cell_length_c                   21.7743(3)
_cell_angle_alpha                90
_cell_angle_beta                 90
_cell_angle_gamma                90
_cell_volume                     5653.58
loop_
_atom_site_label
_atom_site_type_symbol
_atom_site_fract_x
_atom_site_fract_y
_atom_site_fract_z
I1 I 0.40611(2) 0.56123(2) 0.13714(2)
I2 I 0.26648(2) 0.80656(2) 0.11543(2)
I3 I 0.52319(2) 0.80791(2) 0.18869(2)
Cu1 Cu 0.36956(3) 0.81970(3) 0.20730(2)
Cu2 Cu 0.29627(3) 0.66503(3) 0.18116(2)
Cu3 Cu 0.41740(3) 0.72835(3) 0.11463(2)
P1 P 0.38361(5) 0.62689(5) 0.31705(3)
S1 S 0.31277(4) 0.71505(5) 0.28163(3)
N1 N 0.16299(16) 0.42067(17) 0.26085(13)
N2 N 0.68835(16) 0.60409(17) 0.33282(12)
N3 N 0.39148(16) 0.63595(17) 0.39198(12)
H1 H 0.371859 0.595133 0.413725
N4 N 0.44930(16) 0.76527(18) 0.52399(13)
N5 N 0.35028(16) 0.52740(17) 0.30783(13)
H2 H 0.385274 0.487348 0.303345
N6 N 0.47546(16) 0.62737(18) 0.28843(12)
H3 H 0.481911 0.648475 0.252308
C1 C 0.41751(19) 0.7051(2) 0.48784(15)
H4 H 0.387474 0.661845 0.506058
C2 C 0.54442(19) 0.59570(19) 0.31876(14)
C3 C 0.26764(18) 0.5055(2) 0.30700(15)
C4 C 0.24051(19) 0.44477(19) 0.26471(15)
H5 H 0.277806 0.420072 0.238178
C5 C 0.10940(19) 0.4584(2) 0.29858(16)
H6 H 0.055238 0.443234 0.295466
C6 C 0.1314(2) 0.5185(2) 0.34167(16)
H7 H 0.092687 0.542999 0.367086
C7 C 0.42713(19) 0.7038(2) 0.42381(15)
C8 C 0.5399(2) 0.5314(2) 0.36287(16)
H8 H 0.490716 0.505890 0.372397
C9 C 0.62055(19) 0.6302(2) 0.30484(15)
H9 H 0.624068 0.672638 0.275140
C10 C 0.4930(2) 0.8277(2) 0.49687(16)
H10 H 0.515665 0.869887 0.521443
C11 C 0.6101(2) 0.5063(2) 0.39205(16)
H11 H 0.608303 0.464472 0.422277
C12 C 0.6831(2) 0.5436(2) 0.37629(16)
H12 H 0.729844 0.526245 0.396417
C13 C 0.2116(2) 0.5421(2) 0.34674(16)
H13 H 0.227779 0.581660 0.376108
C14 C 0.4714(2) 0.7693(2) 0.39659(15)
H14 H 0.478098 0.771668 0.354223
C15 C 0.5053(2) 0.8313(2) 0.43470(16)
H15 H 0.536158 0.874970 0.417905
Cu4 Cu 0.13044(3) 0.31970(3) 0.20730(2)
Cu5 Cu 0.79627(3) 0.66503(3) 0.31884(2)
Cu6 Cu 0.41740(3) 0.77165(3) 0.61463(2)
N7 N 0.33701(16) 0.92067(17) 0.26085(13)
N8 N 0.18835(16) 0.60409(17) 0.16718(12)
N9 N 0.44930(16) 0.73473(18) 0.02399(13)
N4_2 N 0.05070(16) 0.23473(18) 0.02399(13)
H4_2 H 0.112526 0.338155 0.006058
Cu6_2 Cu 0.08260(3) 0.22835(3) 0.11463(2)
I1_2 I 0.09389(2) 0.43877(2) 0.63714(2)
I2_2 I 0.23352(2) 0.19344(2) 0.61543(2)
Cu1_2 Cu 0.13044(3) 0.18030(3) 0.70730(2)
Cu2_2 Cu 0.20373(3) 0.33497(3) 0.68116(2)
Cu3_2 Cu 0.08260(3) 0.27165(3) 0.61463(2)
P1_2 P 0.11639(5) 0.37311(5) 0.81705(3)
S1_2 S 0.18723(4) 0.28495(5) 0.78163(3)
N1_2 N 0.33701(16) 0.57933(17) 0.76085(13)
N3_2 N 0.10852(16) 0.36405(17) 0.89198(12)
H1_2 H 0.128141 0.404867 0.913725
N5_2 N 0.14972(16) 0.47260(17) 0.80783(13)
H2_2 H 0.114726 0.512652 0.803345
N6_2 N 0.02454(16) 0.37263(18) 0.78843(12)
H3_2 H 0.018089 0.351525 0.752308
C1_2 C 0.08249(19) 0.2949(2) 0.98784(15)
C3_2 C 0.23236(18) 0.4945(2) 0.80700(15)
C4_2 C 0.25949(19) 0.55523(19) 0.76471(15)
H5_2 H 0.222194 0.579928 0.738178
C5_2 C 0.39060(19) 0.5416(2) 0.79858(16)
H6_2 H 0.444762 0.556766 0.795466
C6_2 C 0.3686(2) 0.4815(2) 0.84167(16)
H7_2 H 0.407313 0.457001 0.867086
C7_2 C 0.07287(19) 0.2962(2) 0.92381(15)
H8_2 H 0.009284 0.494110 0.872397
C10_2 C 0.0070(2) 0.1723(2) 0.99687(16)
C13_2 C 0.2884(2) 0.4579(2) 0.84674(16)
H13_2 H 0.272221 0.418340 0.876108
C14_2 C 0.0286(2) 0.2307(2) 0.89659(15)
H14_2 H 0.021902 0.228332 0.854223
Cu4_2 Cu 0.36956(3) 0.68030(3) 0.70730(2)
N7_2 N 0.16299(16) 0.07933(17) 0.76085(13)
N8_2 N 0.31165(16) 0.39591(17) 0.66718(12)
N9_2 N 0.05070(16) 0.26527(18) 0.52399(13)
I3_2 I 0.97681(2) 0.19209(2) 0.68869(2)
N2_2 N 0.81165(16) 0.39591(17) 0.83282(12)
C2_2 C 0.95558(19) 0.40430(19) 0.81876(14)
C8_2 C 0.9601(2) 0.4686(2) 0.86287(16)
C9_2 C 0.87945(19) 0.3698(2) 0.80484(15)
H9_2 H 0.875932 0.327362 0.775140
C11_2 C 0.8899(2) 0.4937(2) 0.89205(16)
H11_2 H 0.891697 0.535528 0.922277
C12_2 C 0.8169(2) 0.4564(2) 0.87629(16)
H12_2 H 0.770156 0.473755 0.896417
C15_2 C 0.9947(2) 0.1687(2) 0.93470(16)
H15_2 H 0.963842 0.125030 0.917905
Cu5_2 Cu 0.70373(3) 0.33497(3) 0.81884(2)
I3_3 I 0.02319(2) 0.69209(2) 0.81131(2)
N2_3 N 0.18835(16) 0.89591(17) 0.66718(12)
C2_3 C 0.04442(19) 0.90430(19) 0.68124(14)
C8_3 C 0.0399(2) 0.9686(2) 0.63713(16)
C9_3 C 0.12055(19) 0.8698(2) 0.69516(15)
H9_3 H 0.124068 0.827362 0.724860
H10_2 H 0.015665 0.630113 0.478557
C11_3 C 0.1101(2) 0.9937(2) 0.60795(16)
C12_3 C 0.1831(2) 0.9564(2) 0.62371(16)
H12_3 H 0.229844 0.973755 0.603583
C15_3 C 0.0053(2) 0.6687(2) 0.56530(16)
H15_3 H 0.036158 0.625030 0.582095
Cu5_3 Cu 0.29627(3) 0.83497(3) 0.68116(2)
N1_3 N 0.66299(16) 0.07933(17) 0.73915(13)
H2_3 H 0.885274 0.012652 0.696655
C4_3 C 0.74051(19) 0.05523(19) 0.73529(15)
H5_3 H 0.777806 0.079928 0.761822
C5_3 C 0.60940(19) 0.0416(2) 0.70142(16)
H6_3 H 0.555238 0.056766 0.704534
Cu4_3 Cu 0.63044(3) 0.18030(3) 0.79270(2)
I1_3 I 0.90611(2) 0.93877(2) 0.86286(2)
I2_3 I 0.76648(2) 0.69344(2) 0.88457(2)
Cu1_3 Cu 0.86956(3) 0.68030(3) 0.79270(2)
Cu2_3 Cu 0.79627(3) 0.83497(3) 0.81884(2)
Cu3_3 Cu 0.91740(3) 0.77165(3) 0.88537(2)
P1_3 P 0.88361(5) 0.87311(5) 0.68295(3)
S1_3 S 0.81277(4) 0.78495(5) 0.71837(3)
N3_3 N 0.89148(16) 0.86405(17) 0.60802(12)
H1_3 H 0.871859 0.904867 0.586275
N4_3 N 0.94930(16) 0.73473(18) 0.47601(13)
N5_3 N 0.85028(16) 0.97260(17) 0.69217(13)
N6_3 N 0.97546(16) 0.87263(18) 0.71157(12)
H3_3 H 0.981911 0.851525 0.747692
C1_3 C 0.91751(19) 0.7949(2) 0.51216(15)
H4_3 H 0.887474 0.838155 0.493942
C3_3 C 0.76764(18) 0.9945(2) 0.69300(15)
C6_3 C 0.6314(2) 0.9815(2) 0.65833(16)
H7_3 H 0.592687 0.957001 0.632914
C7_3 C 0.92713(19) 0.7962(2) 0.57619(15)
H8_3 H 0.990716 0.994110 0.627603
C10_3 C 0.9930(2) 0.6723(2) 0.50313(16)
C13_3 C 0.7116(2) 0.9579(2) 0.65326(16)
H13_3 H 0.727779 0.918340 0.623892
C14_3 C 0.9714(2) 0.7307(2) 0.60341(15)
H14_3 H 0.978098 0.728332 0.645777
Cu6_3 Cu 0.91740(3) 0.72835(3) 0.38537(2)
N7_3 N 0.83701(16) 0.57933(17) 0.73915(13)
N8_3 N 0.68835(16) 0.89591(17) 0.83282(12)
N9_3 N 0.94930(16) 0.76527(18) 0.97601(13)
I1_4 I 0.59389(2) 0.06123(2) 0.36286(2)
I2_4 I 0.73352(2) 0.30656(2) 0.38457(2)
I3_4 I 0.47681(2) 0.30791(2) 0.31131(2)
Cu1_4 Cu 0.63044(3) 0.31970(3) 0.29270(2)
Cu2_4 Cu 0.70373(3) 0.16503(3) 0.31884(2)
Cu3_4 Cu 0.58260(3) 0.22835(3) 0.38537(2)
P1_4 P 0.61639(5) 0.12689(5) 0.18295(3)
S1_4 S 0.68723(4) 0.21505(5) 0.21837(3)
N2_4 N 0.31165(16) 0.10409(17) 0.16718(12)
N3_4 N 0.60852(16) 0.13595(17) 0.10802(12)
H1_4 H 0.628141 0.095133 0.086275
N5_4 N 0.64972(16) 0.02740(17) 0.19217(13)
N6_4 N 0.52454(16) 0.12737(18) 0.21157(12)
H3_4 H 0.518089 0.148475 0.247692
C1_4 C 0.58249(19) 0.2051(2) 0.01216(15)
C2_4 C 0.45558(19) 0.09570(19) 0.18124(14)
C3_4 C 0.73236(18) 0.0055(2) 0.19300(15)
C6_4 C 0.8686(2) 0.0185(2) 0.15833(16)
H7_4 H 0.907313 0.042999 0.132914
C7_4 C 0.57287(19) 0.2038(2) 0.07619(15)
C8_4 C 0.4601(2) 0.0314(2) 0.13713(16)
H8_4 H 0.509284 0.005890 0.127603
C9_4 C 0.37945(19) 0.1302(2) 0.19516(15)
H9_4 H 0.375932 0.172638 0.224860
C10_4 C 0.5070(2) 0.3277(2) 0.00313(16)
C11_4 C 0.3899(2) 0.0063(2) 0.10795(16)
C12_4 C 0.3169(2) 0.0436(2) 0.12371(16)
H12_4 H 0.270156 0.026245 0.103583
C13_4 C 0.7884(2) 0.0421(2) 0.15326(16)
H13_4 H 0.772221 0.081660 0.123892
C14_4 C 0.5286(2) 0.2693(2) 0.10341(15)
H14_4 H 0.521902 0.271668 0.145777
C15_4 C 0.4947(2) 0.3313(2) 0.06530(16)
H15_4 H 0.463842 0.374970 0.082095
Cu5_4 Cu 0.20373(3) 0.16503(3) 0.18116(2)
N7_4 N 0.66299(16) 0.42067(17) 0.23915(13)
N8_4 N 0.81165(16) 0.10409(17) 0.33282(12)
N9_4 N 0.55070(16) 0.23473(18) 0.47601(13)
N4_4 N 0.55070(16) 0.26527(18) 0.97601(13)
H4_4 H 0.612526 0.161845 0.993942
H10_3 H 0.484335 0.369887 0.978557
Cu6_4 Cu 0.58260(3) 0.27165(3) 0.88537(2)
N1_4 N 0.83701(16) 0.92067(17) 0.23915(13)
H2_4 H 0.614726 0.987348 0.196655
C4_4 C 0.75949(19) 0.94477(19) 0.23529(15)
H5_4 H 0.722194 0.920072 0.261822
C5_4 C 0.89060(19) 0.9584(2) 0.20142(16)
H6_4 H 0.944762 0.943234 0.204534
H11_3 H 0.391697 0.964472 0.077723
Cu4_4 Cu 0.86956(3) 0.81970(3) 0.29270(2)
I1_5 I 0.59389(2) 0.43877(2) 0.86286(2)
I2_5 I 0.73352(2) 0.19344(2) 0.88457(2)
I3_5 I 0.47681(2) 0.19209(2) 0.81131(2)
P1_5 P 0.61639(5) 0.37311(5) 0.68295(3)
S1_5 S 0.68723(4) 0.28495(5) 0.71837(3)
N3_5 N 0.60852(16) 0.36405(17) 0.60802(12)
H1_5 H 0.628141 0.404867 0.586275
N5_5 N 0.64972(16) 0.47260(17) 0.69217(13)
H2_5 H 0.614726 0.512652 0.696655
N6_5 N 0.52454(16) 0.37263(18) 0.71157(12)
H3_5 H 0.518089 0.351525 0.747692
C1_5 C 0.58249(19) 0.2949(2) 0.51216(15)
H4_5 H 0.612526 0.338155 0.493942
C2_5 C 0.45558(19) 0.40430(19) 0.68124(14)
C3_5 C 0.73236(18) 0.4945(2) 0.69300(15)
C4_5 C 0.75949(19) 0.55523(19) 0.73529(15)
H5_5 H 0.722194 0.579928 0.761822
C5_5 C 0.89060(19) 0.5416(2) 0.70142(16)
H6_5 H 0.944762 0.556766 0.704534
C6_5 C 0.8686(2) 0.4815(2) 0.65833(16)
H7_5 H 0.907313 0.457001 0.632914
C7_5 C 0.57287(19) 0.2962(2) 0.57619(15)
C8_5 C 0.4601(2) 0.4686(2) 0.63713(16)
H8_5 H 0.509284 0.494110 0.627603
C9_5 C 0.37945(19) 0.3698(2) 0.69516(15)
H9_5 H 0.375932 0.327362 0.724860
C10_5 C 0.5070(2) 0.1723(2) 0.50313(16)
H10_4 H 0.484335 0.130113 0.478557
C11_5 C 0.3899(2) 0.4937(2) 0.60795(16)
H11_4 H 0.391697 0.535528 0.577723
C12_5 C 0.3169(2) 0.4564(2) 0.62371(16)
H12_5 H 0.270156 0.473755 0.603583
C13_5 C 0.7884(2) 0.4579(2) 0.65326(16)
H13_5 H 0.772221 0.418340 0.623892
C14_5 C 0.5286(2) 0.2307(2) 0.60341(15)
H14_5 H 0.521902 0.228332 0.645777
C15_5 C 0.4947(2) 0.1687(2) 0.56530(16)
H15_5 H 0.463842 0.125030 0.582095
I3_6 I 0.02319(2) 0.80791(2) 0.31131(2)
C2_6 C 0.04442(19) 0.59570(19) 0.18124(14)
C8_6 C 0.0399(2) 0.5314(2) 0.13713(16)
C9_6 C 0.12055(19) 0.6302(2) 0.19516(15)
H9_6 H 0.124068 0.672638 0.224860
C11_6 C 0.1101(2) 0.5063(2) 0.10795(16)
H11_5 H 0.108303 0.464472 0.077723
C12_6 C 0.1831(2) 0.5436(2) 0.12371(16)
H12_6 H 0.229844 0.526245 0.103583
C15_6 C 0.0053(2) 0.8313(2) 0.06530(16)
H15_6 H 0.036158 0.874970 0.082095
I1_6 I 0.90611(2) 0.56123(2) 0.36286(2)
I2_6 I 0.76648(2) 0.80656(2) 0.38457(2)
P1_6 P 0.88361(5) 0.62689(5) 0.18295(3)
S1_6 S 0.81277(4) 0.71505(5) 0.21837(3)
N3_6 N 0.89148(16) 0.63595(17) 0.10802(12)
H1_6 H 0.871859 0.595133 0.086275
N5_6 N 0.85028(16) 0.52740(17) 0.19217(13)
H2_6 H 0.885274 0.487348 0.196655
N6_6 N 0.97546(16) 0.62737(18) 0.21157(12)
H3_6 H 0.981911 0.648475 0.247692
C1_6 C 0.91751(19) 0.7051(2) 0.01216(15)
C3_6 C 0.76764(18) 0.5055(2) 0.19300(15)
C4_6 C 0.74051(19) 0.44477(19) 0.23529(15)
H5_6 H 0.777806 0.420072 0.261822
C5_6 C 0.60940(19) 0.4584(2) 0.20142(16)
H6_6 H 0.555238 0.443234 0.204534
C6_6 C 0.6314(2) 0.5185(2) 0.15833(16)
H7_6 H 0.592687 0.542999 0.132914
C7_6 C 0.92713(19) 0.7038(2) 0.07619(15)
H8_6 H 0.990716 0.505890 0.127603
C10_6 C 0.9930(2) 0.8277(2) 0.00313(16)
C13_6 C 0.7116(2) 0.5421(2) 0.15326(16)
H13_6 H 0.727779 0.581660 0.123892
C14_6 C 0.9714(2) 0.7693(2) 0.10341(15)
H14_6 H 0.978098 0.771668 0.145777
H4_6 H 0.887474 0.661845 0.993942
I1_7 I 0.09389(2) 0.06123(2) 0.13714(2)
I2_7 I 0.23352(2) 0.30656(2) 0.11543(2)
P1_7 P 0.11639(5) 0.12689(5) 0.31705(3)
S1_7 S 0.18723(4) 0.21505(5) 0.28163(3)
N3_7 N 0.10852(16) 0.13595(17) 0.39198(12)
H1_7 H 0.128141 0.095133 0.413725
N5_7 N 0.14972(16) 0.02740(17) 0.30783(13)
N6_7 N 0.02454(16) 0.12737(18) 0.28843(12)
H3_7 H 0.018089 0.148475 0.252308
C1_7 C 0.08249(19) 0.2051(2) 0.48784(15)
H4_7 H 0.112526 0.161845 0.506058
C3_7 C 0.23236(18) 0.0055(2) 0.30700(15)
C6_7 C 0.3686(2) 0.0185(2) 0.34167(16)
H7_7 H 0.407313 0.042999 0.367086
C7_7 C 0.07287(19) 0.2038(2) 0.42381(15)
H8_7 H 0.009284 0.005890 0.372397
C10_7 C 0.0070(2) 0.3277(2) 0.49687(16)
C13_7 C 0.2884(2) 0.0421(2) 0.34674(16)
H13_7 H 0.272221 0.081660 0.376108
C14_7 C 0.0286(2) 0.2693(2) 0.39659(15)
H14_7 H 0.021902 0.271668 0.354223
H2_7 H 0.114726 0.987348 0.303345
C4_7 C 0.25949(19) 0.94477(19) 0.26471(15)
H5_7 H 0.222194 0.920072 0.238178
C5_7 C 0.39060(19) 0.9584(2) 0.29858(16)
H6_7 H 0.444762 0.943234 0.295466
I3_7 I 0.97681(2) 0.30791(2) 0.18869(2)
C2_7 C 0.95558(19) 0.09570(19) 0.31876(14)
C8_7 C 0.9601(2) 0.0314(2) 0.36287(16)
C9_7 C 0.87945(19) 0.1302(2) 0.30484(15)
H9_7 H 0.875932 0.172638 0.275140
H10_5 H 0.984335 0.369887 0.521443
C11_7 C 0.8899(2) 0.0063(2) 0.39205(16)
C12_7 C 0.8169(2) 0.0436(2) 0.37629(16)
H12_7 H 0.770156 0.026245 0.396417
C15_7 C 0.9947(2) 0.3313(2) 0.43470(16)
H15_7 H 0.963842 0.374970 0.417905
H2_8 H 0.385274 0.012652 0.803345
C4_8 C 0.24051(19) 0.05523(19) 0.76471(15)
H5_8 H 0.277806 0.079928 0.738178
C5_8 C 0.10940(19) 0.0416(2) 0.79858(16)
H6_8 H 0.055238 0.056766 0.795466
H11_6 H 0.608303 0.035528 0.922277
H4_8 H 0.387474 0.838155 0.006058
H10_6 H 0.515665 0.630113 0.021443
I1_8 I 0.40611(2) 0.93877(2) 0.63714(2)
I2_8 I 0.26648(2) 0.69344(2) 0.61543(2)
I3_8 I 0.52319(2) 0.69209(2) 0.68869(2)
P1_8 P 0.38361(5) 0.87311(5) 0.81705(3)
S1_8 S 0.31277(4) 0.78495(5) 0.78163(3)
N3_8 N 0.39148(16) 0.86405(17) 0.89198(12)
H1_8 H 0.371859 0.904867 0.913725
N5_8 N 0.35028(16) 0.97260(17) 0.80783(13)
N6_8 N 0.47546(16) 0.87263(18) 0.78843(12)
H3_8 H 0.481911 0.851525 0.752308
C1_8 C 0.41751(19) 0.7949(2) 0.98784(15)
C2_8 C 0.54442(19) 0.90430(19) 0.81876(14)
C3_8 C 0.26764(18) 0.9945(2) 0.80700(15)
C6_8 C 0.1314(2) 0.9815(2) 0.84167(16)
H7_8 H 0.092687 0.957001 0.867086
C7_8 C 0.42713(19) 0.7962(2) 0.92381(15)
C8_8 C 0.5399(2) 0.9686(2) 0.86287(16)
H8_8 H 0.490716 0.994110 0.872397
C9_8 C 0.62055(19) 0.8698(2) 0.80484(15)
H9_8 H 0.624068 0.827362 0.775140
C10_8 C 0.4930(2) 0.6723(2) 0.99687(16)
C11_8 C 0.6101(2) 0.9937(2) 0.89205(16)
C12_8 C 0.6831(2) 0.9564(2) 0.87629(16)
H12_8 H 0.729844 0.973755 0.896417
C13_8 C 0.2116(2) 0.9579(2) 0.84674(16)
H13_8 H 0.227779 0.918340 0.876108
C14_8 C 0.4714(2) 0.7307(2) 0.89659(15)
H14_8 H 0.478098 0.728332 0.854223
C15_8 C 0.5053(2) 0.6687(2) 0.93470(16)
H15_8 H 0.536158 0.625030 0.917905
H10_7 H 0.984335 0.130113 0.021443
H11_7 H 0.108303 0.035528 0.577723
H10_8 H 0.015665 0.869887 0.978557
H11_8 H 0.891697 0.964472 0.422277
loop_
_geom_bond_atom_site_label_1
_geom_bond_atom_site_label_2
_geom_bond_site_symmetry_1
_geom_bond_site_symmetry_2
I1 Cu2 1_555 1_555
I2 Cu1 1_555 1_555
I3 Cu1 1_555 1_555
Cu1 S1 1_555 1_555
Cu2 I2 1_555 1_555
Cu3 I1 1_555 1_555
P1 S1 1_555 1_555
S1 Cu2 1_555 1_555
N1 C4 1_555 1_555
N2 C9 1_555 1_555
N3 P1 1_555 1_555
H1 N3 1_555 1_555
N4 C1 1_555 1_555
N5 P1 1_555 1_555
H2 N5 1_555 1_555
N6 P1 1_555 1_555
H3 N6 1_555 1_555
C1 H4 1_555 1_555
C2 N6 1_555 1_555
C3 N5 1_555 1_555
C4 C3 1_555 1_555
H5 C4 1_555 1_555
C5 N1 1_555 1_555
H6 C5 1_555 1_555
C6 C5 1_555 1_555
H7 C6 1_555 1_555
C7 N3 1_555 1_555
C8 C2 1_555 1_555
H8 C8 1_555 1_555
C9 C2 1_555 1_555
H9 C9 1_555 1_555
C10 N4 1_555 1_555
H10 C10 1_555 1_555
C11 C8 1_555 1_555
H11 C11 1_555 1_555
C12 N2 1_555 1_555
H12 C12 1_555 1_555
C13 C3 1_555 1_555
H13 C13 1_555 1_555
C14 C7 1_555 1_555
H14 C14 1_555 1_555
C15 C10 1_555 1_555
H15 C15 1_555 1_555
Cu4 N1 1_555 1_555
Cu5 N2 1_555 1_555
Cu6 N4 1_555 1_555
N7 Cu1 1_555 1_555
N8 Cu2 1_555 1_555
N9 Cu3 1_555 1_555
I2 Cu3 1_555 1_555
I3 Cu3 1_555 1_555
C1 C7 1_555 1_555
C6 C13 1_555 1_555
C11 C12 1_555 1_555
C14 C15 1_555 1_555
Cu6_2 N4_2 1_555 1_555
I1_2 Cu2_2 1_555 1_555
I2_2 Cu1_2 1_555 1_555
Cu1_2 S1_2 1_555 1_555
Cu2_2 I2_2 1_555 1_555
Cu3_2 I1_2 1_555 1_555
P1_2 S1_2 1_555 1_555
S1_2 Cu2_2 1_555 1_555
N1_2 C4_2 1_555 1_555
N3_2 P1_2 1_555 1_555
H1_2 N3_2 1_555 1_555
N5_2 P1_2 1_555 1_555
H2_2 N5_2 1_555 1_555
N6_2 P1_2 1_555 1_555
H3_2 N6_2 1_555 1_555
C3_2 N5_2 1_555 1_555
C4_2 C3_2 1_555 1_555
H5_2 C4_2 1_555 1_555
C5_2 N1_2 1_555 1_555
H6_2 C5_2 1_555 1_555
C6_2 C5_2 1_555 1_555
H7_2 C6_2 1_555 1_555
C7_2 N3_2 1_555 1_555
C13_2 C3_2 1_555 1_555
H13_2 C13_2 1_555 1_555
C14_2 C7_2 1_555 1_555
H14_2 C14_2 1_555 1_555
Cu4_2 N1_2 1_555 1_555
N7_2 Cu1_2 1_555 1_555
N8_2 Cu2_2 1_555 1_555
N9_2 Cu3_2 1_555 1_555
I2_2 Cu3_2 1_555 1_555
C1_2 C7_2 1_555 1_555
C6_2 C13_2 1_555 1_555
N2_2 C9_2 1_555 1_555
C8_2 C2_2 1_555 1_555
C9_2 C2_2 1_555 1_555
H9_2 C9_2 1_555 1_555
C11_2 C8_2 1_555 1_555
H11_2 C11_2 1_555 1_555
C12_2 N2_2 1_555 1_555
H12_2 C12_2 1_555 1_555
H15_2 C15_2 1_555 1_555
Cu5_2 N2_2 1_555 1_555
C11_2 C12_2 1_555 1_555
N2_3 C9_3 1_555 1_555
C8_3 C2_3 1_555 1_555
C9_3 C2_3 1_555 1_555
H9_3 C9_3 1_555 1_555
C11_3 C8_3 1_555 1_555
C12_3 N2_3 1_555 1_555
H12_3 C12_3 1_555 1_555
H15_3 C15_3 1_555 1_555
Cu5_3 N2_3 1_555 1_555
C11_3 C12_3 1_555 1_555
N1_3 C4_3 1_555 1_555
H5_3 C4_3 1_555 1_555
C5_3 N1_3 1_555 1_555
H6_3 C5_3 1_555 1_555
Cu4_3 N1_3 1_555 1_555
I1_3 Cu2_3 1_555 1_555
I2_3 Cu1_3 1_555 1_555
Cu1_3 S1_3 1_555 1_555
Cu2_3 I2_3 1_555 1_555
Cu3_3 I1_3 1_555 1_555
P1_3 S1_3 1_555 1_555
S1_3 Cu2_3 1_555 1_555
N3_3 P1_3 1_555 1_555
H1_3 N3_3 1_555 1_555
N4_3 C1_3 1_555 1_555
N5_3 P1_3 1_555 1_555
N6_3 P1_3 1_555 1_555
H3_3 N6_3 1_555 1_555
C1_3 H4_3 1_555 1_555
C3_3 N5_3 1_555 1_555
H7_3 C6_3 1_555 1_555
C7_3 N3_3 1_555 1_555
C10_3 N4_3 1_555 1_555
C13_3 C3_3 1_555 1_555
H13_3 C13_3 1_555 1_555
C14_3 C7_3 1_555 1_555
H14_3 C14_3 1_555 1_555
Cu6_3 N4_3 1_555 1_555
N7_3 Cu1_3 1_555 1_555
N8_3 Cu2_3 1_555 1_555
N9_3 Cu3_3 1_555 1_555
I2_3 Cu3_3 1_555 1_555
C1_3 C7_3 1_555 1_555
C6_3 C13_3 1_555 1_555
I1_4 Cu2_4 1_555 1_555
I2_4 Cu1_4 1_555 1_555
I3_4 Cu1_4 1_555 1_555
Cu1_4 S1_4 1_555 1_555
Cu2_4 I2_4 1_555 1_555
Cu3_4 I1_4 1_555 1_555
P1_4 S1_4 1_555 1_555
S1_4 Cu2_4 1_555 1_555
N2_4 C9_4 1_555 1_555
N3_4 P1_4 1_555 1_555
H1_4 N3_4 1_555 1_555
N5_4 P1_4 1_555 1_555
N6_4 P1_4 1_555 1_555
H3_4 N6_4 1_555 1_555
C2_4 N6_4 1_555 1_555
C3_4 N5_4 1_555 1_555
H7_4 C6_4 1_555 1_555
C7_4 N3_4 1_555 1_555
C8_4 C2_4 1_555 1_555
H8_4 C8_4 1_555 1_555
C9_4 C2_4 1_555 1_555
H9_4 C9_4 1_555 1_555
C11_4 C8_4 1_555 1_555
C12_4 N2_4 1_555 1_555
H12_4 C12_4 1_555 1_555
C13_4 C3_4 1_555 1_555
H13_4 C13_4 1_555 1_555
C14_4 C7_4 1_555 1_555
H14_4 C14_4 1_555 1_555
C15_4 C10_4 1_555 1_555
H15_4 C15_4 1_555 1_555
Cu5_4 N2_4 1_555 1_555
N7_4 Cu1_4 1_555 1_555
N8_4 Cu2_4 1_555 1_555
N9_4 Cu3_4 1_555 1_555
I2_4 Cu3_4 1_555 1_555
I3_4 Cu3_4 1_555 1_555
C1_4 C7_4 1_555 1_555
C6_4 C13_4 1_555 1_555
C11_4 C12_4 1_555 1_555
C14_4 C15_4 1_555 1_555
Cu6_4 N4_4 1_555 1_555
N1_4 C4_4 1_555 1_555
H5_4 C4_4 1_555 1_555
C5_4 N1_4 1_555 1_555
H6_4 C5_4 1_555 1_555
Cu4_4 N1_4 1_555 1_555
I1_5 Cu5_2 1_555 1_555
I2_5 Cu4_3 1_555 1_555
I3_5 Cu4_3 1_555 1_555
Cu4_3 S1_5 1_555 1_555
Cu5_2 I2_5 1_555 1_555
Cu6_4 I1_5 1_555 1_555
P1_5 S1_5 1_555 1_555
S1_5 Cu5_2 1_555 1_555
N7_3 C4_5 1_555 1_555
N8_2 C9_5 1_555 1_555
N3_5 P1_5 1_555 1_555
H1_5 N3_5 1_555 1_555
N9_4 C1_5 1_555 1_555
N5_5 P1_5 1_555 1_555
H2_5 N5_5 1_555 1_555
N6_5 P1_5 1_555 1_555
H3_5 N6_5 1_555 1_555
C1_5 H4_5 1_555 1_555
C2_5 N6_5 1_555 1_555
C3_5 N5_5 1_555 1_555
C4_5 C3_5 1_555 1_555
H5_5 C4_5 1_555 1_555
C5_5 N7_3 1_555 1_555
H6_5 C5_5 1_555 1_555
C6_5 C5_5 1_555 1_555
H7_5 C6_5 1_555 1_555
C7_5 N3_5 1_555 1_555
C8_5 C2_5 1_555 1_555
H8_5 C8_5 1_555 1_555
C9_5 C2_5 1_555 1_555
H9_5 C9_5 1_555 1_555
C10_5 N9_4 1_555 1_555
H10_4 C10_5 1_555 1_555
C11_5 C8_5 1_555 1_555
H11_4 C11_5 1_555 1_555
C12_5 N8_2 1_555 1_555
H12_5 C12_5 1_555 1_555
C13_5 C3_5 1_555 1_555
H13_5 C13_5 1_555 1_555
C14_5 C7_5 1_555 1_555
H14_5 C14_5 1_555 1_555
C15_5 C10_5 1_555 1_555
H15_5 C15_5 1_555 1_555
I2_5 Cu6_4 1_555 1_555
I3_5 Cu6_4 1_555 1_555
C1_5 C7_5 1_555 1_555
C6_5 C13_5 1_555 1_555
C11_5 C12_5 1_555 1_555
C14_5 C15_5 1_555 1_555
N8 C9_6 1_555 1_555
C8_6 C2_6 1_555 1_555
C9_6 C2_6 1_555 1_555
H9_6 C9_6 1_555 1_555
C11_6 C8_6 1_555 1_555
H11_5 C11_6 1_555 1_555
C12_6 N8 1_555 1_555
H12_6 C12_6 1_555 1_555
H15_6 C15_6 1_555 1_555
C11_6 C12_6 1_555 1_555
I1_6 Cu5 1_555 1_555
I2_6 Cu4_4 1_555 1_555
Cu4_4 S1_6 1_555 1_555
Cu5 I2_6 1_555 1_555
Cu6_3 I1_6 1_555 1_555
P1_6 S1_6 1_555 1_555
S1_6 Cu5 1_555 1_555
N7_4 C4_6 1_555 1_555
N3_6 P1_6 1_555 1_555
H1_6 N3_6 1_555 1_555
N5_6 P1_6 1_555 1_555
H2_6 N5_6 1_555 1_555
N6_6 P1_6 1_555 1_555
H3_6 N6_6 1_555 1_555
C3_6 N5_6 1_555 1_555
C4_6 C3_6 1_555 1_555
H5_6 C4_6 1_555 1_555
C5_6 N7_4 1_555 1_555
H6_6 C5_6 1_555 1_555
C6_6 C5_6 1_555 1_555
H7_6 C6_6 1_555 1_555
C7_6 N3_6 1_555 1_555
C13_6 C3_6 1_555 1_555
H13_6 C13_6 1_555 1_555
C14_6 C7_6 1_555 1_555
H14_6 C14_6 1_555 1_555
I2_6 Cu6_3 1_555 1_555
C1_6 C7_6 1_555 1_555
C6_6 C13_6 1_555 1_555
I1_7 Cu5_4 1_555 1_555
I2_7 Cu4 1_555 1_555
Cu4 S1_7 1_555 1_555
Cu5_4 I2_7 1_555 1_555
Cu6_2 I1_7 1_555 1_555
P1_7 S1_7 1_555 1_555
S1_7 Cu5_4 1_555 1_555
N3_7 P1_7 1_555 1_555
H1_7 N3_7 1_555 1_555
N9_2 C1_7 1_555 1_555
N5_7 P1_7 1_555 1_555
N6_7 P1_7 1_555 1_555
H3_7 N6_7 1_555 1_555
C1_7 H4_7 1_555 1_555
C3_7 N5_7 1_555 1_555
H7_7 C6_7 1_555 1_555
C7_7 N3_7 1_555 1_555
C10_7 N9_2 1_555 1_555
C13_7 C3_7 1_555 1_555
H13_7 C13_7 1_555 1_555
C14_7 C7_7 1_555 1_555
H14_7 C14_7 1_555 1_555
I2_7 Cu6_2 1_555 1_555
C1_7 C7_7 1_555 1_555
C6_7 C13_7 1_555 1_555
N7 C4_7 1_555 1_555
H5_7 C4_7 1_555 1_555
C5_7 N7 1_555 1_555
H6_7 C5_7 1_555 1_555
N8_4 C9_7 1_555 1_555
C8_7 C2_7 1_555 1_555
C9_7 C2_7 1_555 1_555
H9_7 C9_7 1_555 1_555
C11_7 C8_7 1_555 1_555
C12_7 N8_4 1_555 1_555
H12_7 C12_7 1_555 1_555
H15_7 C15_7 1_555 1_555
C11_7 C12_7 1_555 1_555
N7_2 C4_8 1_555 1_555
H5_8 C4_8 1_555 1_555
C5_8 N7_2 1_555 1_555
H6_8 C5_8 1_555 1_555
I1_8 Cu5_3 1_555 1_555
I2_8 Cu4_2 1_555 1_555
I3_8 Cu4_2 1_555 1_555
Cu4_2 S1_8 1_555 1_555
Cu5_3 I2_8 1_555 1_555
Cu6 I1_8 1_555 1_555
P1_8 S1_8 1_555 1_555
S1_8 Cu5_3 1_555 1_555
N8_3 C9_8 1_555 1_555
N3_8 P1_8 1_555 1_555
H1_8 N3_8 1_555 1_555
N5_8 P1_8 1_555 1_555
N6_8 P1_8 1_555 1_555
H3_8 N6_8 1_555 1_555
C2_8 N6_8 1_555 1_555
C3_8 N5_8 1_555 1_555
H7_8 C6_8 1_555 1_555
C7_8 N3_8 1_555 1_555
C8_8 C2_8 1_555 1_555
H8_8 C8_8 1_555 1_555
C9_8 C2_8 1_555 1_555
H9_8 C9_8 1_555 1_555
C11_8 C8_8 1_555 1_555
C12_8 N8_3 1_555 1_555
H12_8 C12_8 1_555 1_555
C13_8 C3_8 1_555 1_555
H13_8 C13_8 1_555 1_555
C14_8 C7_8 1_555 1_555
H14_8 C14_8 1_555 1_555
C15_8 C10_8 1_555 1_555
H15_8 C15_8 1_555 1_555
I2_8 Cu6 1_555 1_555
I3_8 Cu6 1_555 1_555
C1_8 C7_8 1_555 1_555
C6_8 C13_8 1_555 1_555
C11_8 C12_8 1_555 1_555
C14_8 C15_8 1_555 1_555

#END
