
###############################################################################
#
# This file contains modified crystal structure data generated from the
# MOF subset of the Cambridge Structural Database (CSD) v543 
# hosted by the Cambridge Crystallographic Data Centre (CCDC).
#
# This work is licensed under the Creative Commons
# Attribution-NonCommercial-ShareAlike 4.0 International License.
# To view a copy of this license, visit
# http://creativecommons.org/licenses/by-nc-sa/4.0/
# or send a letter to
# Creative Commons, PO Box 1866, Mountain View, CA 94042, USA.
#
# CIF created using the CSD Python API on 29 September 2022
# The structure has been converted into the P1 space group
# The structure has a 3D framework
# The original CSD entry ILODAR02 is in the orthorhombic crystal system
# The framework has been calculated to contain at least 10.0% void space
# The void calculation uses a probe of radius 1.32A, grid spacing 0.4
#
###############################################################################

data_ILODAR02
_chemical_formula_moiety         '(C120 H120 Cu24 I24 N48 P8 S8)n'
_symmetry_cell_setting           triclinic
_symmetry_space_group_name_H-M   'P 1'
_symmetry_Int_Tables_number      1
_space_group_name_Hall           'P 1'
loop_
_symmetry_equiv_pos_site_id
_symmetry_equiv_pos_as_xyz
1 x,y,z
_cell_length_a                   16.6113(3)
_cell_length_b                   15.9932(4)
_cell_length_c                   22.5054(5)
_cell_angle_alpha                90
_cell_angle_beta                 90
_cell_angle_gamma                90
_cell_volume                     5978.96
loop_
_atom_site_label
_atom_site_type_symbol
_atom_site_fract_x
_atom_site_fract_y
_atom_site_fract_z
I1 I 0.60424(2) 0.42141(2) 0.85532(2)
I2 I 0.73607(2) 0.17204(2) 0.88073(2)
I3 I 0.48216(2) 0.18105(2) 0.82005(2)
Cu1 Cu 0.71314(5) 0.31287(5) 0.81699(4)
Cu2 Cu 0.63162(5) 0.16305(6) 0.79181(4)
Cu3 Cu 0.59263(6) 0.25964(6) 0.88729(3)
S1 S 0.69485(7) 0.26152(8) 0.71771(5)
P1 P 0.62586(7) 0.34944(8) 0.68455(5)
N1 N 0.5334(2) 0.3453(3) 0.71054(17)
H1 H 0.523101 0.294472 0.720403
N2 N 0.3219(2) 0.3723(3) 0.67032(19)
N3 N 0.6580(2) 0.4466(3) 0.69700(18)
H2 H 0.633787 0.466362 0.727716
N4 N 0.8398(3) 0.5607(3) 0.74125(19)
N5 N 0.6208(3) 0.3469(3) 0.61126(17)
H3 H 0.667010 0.360874 0.597156
N6 N 0.5686(3) 0.2319(3) 0.47739(19)
C1 C 0.4642(3) 0.3793(3) 0.6832(2)
C2 C 0.7402(3) 0.4696(3) 0.69916(19)
C3 C 0.7633(3) 0.5344(3) 0.7365(2)
H4 H 0.723222 0.561326 0.759675
C4 C 0.3903(3) 0.3427(3) 0.6939(2)
H5 H 0.387891 0.294824 0.718756
C5 C 0.4685(3) 0.4483(3) 0.6464(2)
H6 H 0.518402 0.475201 0.638666
C6 C 0.5982(3) 0.2880(4) 0.5152(2)
H7 H 0.626670 0.334509 0.499415
C7 C 0.5898(3) 0.2822(3) 0.5767(2)
C8 C 0.7985(3) 0.4305(4) 0.6650(2)
H8 H 0.784744 0.386520 0.638564
C9 C 0.3261(3) 0.4385(3) 0.6340(2)
H9 H 0.278064 0.459551 0.616593
C10 C 0.8952(3) 0.5212(4) 0.7086(3)
H10 H 0.949689 0.538472 0.711971
C11 C 0.3983(3) 0.4769(4) 0.6211(3)
H11 H 0.399584 0.523333 0.594797
C12 C 0.8773(3) 0.4573(4) 0.6706(3)
H12 H 0.918815 0.431390 0.648089
C13 C 0.5512(4) 0.2123(4) 0.5991(2)
H13 H 0.546054 0.204416 0.640804
C14 C 0.5308(5) 0.1653(4) 0.4998(3)
H14 H 0.510324 0.124199 0.473246
C15 C 0.5204(5) 0.1541(5) 0.5599(3)
H15 H 0.492225 0.106599 0.574342
Cu4 Cu 0.21314(5) 0.31287(5) 0.68301(4)
Cu5 Cu 0.86838(5) 0.66305(6) 0.79181(4)
Cu6 Cu 0.59263(6) 0.24036(6) 0.38729(3)
N7 N 0.8219(2) 0.3723(3) 0.82968(19)
N8 N 0.6602(3) 0.0607(3) 0.74125(19)
N9 N 0.5686(3) 0.2681(3) 0.97739(19)
I3_2 I 0.01784(2) 0.81895(2) 0.32005(2)
N2_2 N 0.1781(2) 0.6277(3) 0.17032(19)
C1_2 C 0.0358(3) 0.6207(3) 0.1832(2)
C4_2 C 0.1097(3) 0.6573(3) 0.1939(2)
H5_2 H 0.112109 0.705176 0.218756
C5_2 C 0.0315(3) 0.5517(3) 0.1464(2)
C9_2 C 0.1739(3) 0.5615(3) 0.1340(2)
H9_2 H 0.221936 0.540449 0.116593
C11_2 C 0.1017(3) 0.5231(4) 0.1211(3)
H11_2 H 0.100416 0.476667 0.094797
H15_2 H 0.007775 0.893401 0.074342
Cu4_2 Cu 0.28686(5) 0.68713(5) 0.18301(4)
I1_2 I 0.89576(2) 0.57859(2) 0.35532(2)
I2_2 I 0.76393(2) 0.82796(2) 0.38073(2)
Cu1_2 Cu 0.78686(5) 0.68713(5) 0.31699(4)
Cu2_2 Cu 0.86838(5) 0.83695(6) 0.29181(4)
Cu3_2 Cu 0.90737(6) 0.74036(6) 0.38729(3)
S1_2 S 0.80515(7) 0.73848(8) 0.21771(5)
P1_2 P 0.87414(7) 0.65056(8) 0.18455(5)
N1_2 N 0.9666(2) 0.6547(3) 0.21054(17)
H1_2 H 0.976899 0.705528 0.220403
N3_2 N 0.8420(2) 0.5534(3) 0.19700(18)
H2_2 H 0.866213 0.533638 0.227716
N4_2 N 0.6602(3) 0.4393(3) 0.24125(19)
N5_2 N 0.8792(3) 0.6531(3) 0.11126(17)
H3_2 H 0.832990 0.639126 0.097156
C2_2 C 0.7598(3) 0.5304(3) 0.19916(19)
C3_2 C 0.7367(3) 0.4656(3) 0.2365(2)
H4_2 H 0.776778 0.438674 0.259675
H6_2 H 0.981598 0.524799 0.138666
C6_2 C 0.9018(3) 0.7120(4) 0.0152(2)
C7_2 C 0.9102(3) 0.7178(3) 0.0767(2)
C8_2 C 0.7015(3) 0.5695(4) 0.1650(2)
H8_2 H 0.715256 0.613480 0.138564
C10_2 C 0.6048(3) 0.4788(4) 0.2086(3)
H10_2 H 0.550311 0.461528 0.211971
C12_2 C 0.6227(3) 0.5427(4) 0.1706(3)
H12_2 H 0.581185 0.568610 0.148089
C13_2 C 0.9488(4) 0.7877(4) 0.0991(2)
H13_2 H 0.953946 0.795584 0.140804
C15_2 C 0.9796(5) 0.8459(5) 0.0599(3)
Cu5_2 Cu 0.63162(5) 0.33695(6) 0.29181(4)
N7_2 N 0.6781(2) 0.6277(3) 0.32968(19)
N8_2 N 0.8398(3) 0.9393(3) 0.24125(19)
N9_2 N 0.9314(3) 0.7319(3) 0.47739(19)
N6_2 N 0.9314(3) 0.7681(3) 0.97739(19)
H7_2 H 0.873330 0.665491 0.999415
C14_2 C 0.9692(5) 0.8347(4) 0.9998(3)
H14_2 H 0.989676 0.875801 0.973246
Cu6_2 Cu 0.90737(6) 0.75964(6) 0.88729(3)
I1_3 I 0.10424(2) 0.07859(2) 0.14468(2)
I2_3 I 0.23607(2) 0.32796(2) 0.11927(2)
Cu1_3 Cu 0.21314(5) 0.18713(5) 0.18301(4)
Cu2_3 Cu 0.13162(5) 0.33695(6) 0.20819(4)
Cu3_3 Cu 0.09263(6) 0.24036(6) 0.11271(3)
S1_3 S 0.19485(7) 0.23848(8) 0.28229(5)
P1_3 P 0.12586(7) 0.15056(8) 0.31545(5)
N1_3 N 0.0334(2) 0.1547(3) 0.28946(17)
H1_3 H 0.023101 0.205528 0.279597
N3_3 N 0.1580(2) 0.0534(3) 0.30300(18)
H2_3 H 0.133787 0.033638 0.272284
N5_3 N 0.1208(3) 0.1531(3) 0.38874(17)
H3_3 H 0.167010 0.139126 0.402844
N6_3 N 0.0686(3) 0.2681(3) 0.52261(19)
C2_3 C 0.2402(3) 0.0304(3) 0.30084(19)
H6_3 H 0.018402 0.024799 0.361334
C6_3 C 0.0982(3) 0.2120(4) 0.4848(2)
H7_3 H 0.126670 0.165491 0.500585
C7_3 C 0.0898(3) 0.2178(3) 0.4233(2)
C8_3 C 0.2985(3) 0.0695(4) 0.3350(2)
H8_3 H 0.284744 0.113480 0.361436
C12_3 C 0.3773(3) 0.0427(4) 0.3294(3)
H12_3 H 0.418815 0.068610 0.351911
C13_3 C 0.0512(4) 0.2877(4) 0.4009(2)
H13_3 H 0.046054 0.295584 0.359196
C14_3 C 0.0308(5) 0.3347(4) 0.5002(3)
H14_3 H 0.010324 0.375801 0.526754
C15_3 C 0.0204(5) 0.3459(5) 0.4401(3)
Cu6_3 Cu 0.09263(6) 0.25964(6) 0.61271(3)
N7_3 N 0.3219(2) 0.1277(3) 0.17032(19)
N8_3 N 0.1602(3) 0.4393(3) 0.25875(19)
N9_3 N 0.0686(3) 0.2319(3) 0.02261(19)
N4_3 N 0.3398(3) 0.9393(3) 0.25875(19)
C3_3 C 0.2633(3) 0.9656(3) 0.2635(2)
H4_3 H 0.223222 0.938674 0.240325
C10_3 C 0.3952(3) 0.9788(4) 0.2914(3)
H10_3 H 0.449689 0.961528 0.288029
Cu5_3 Cu 0.36838(5) 0.83695(6) 0.20819(4)
I3_3 I 0.98216(2) 0.31895(2) 0.17995(2)
N2_3 N 0.8219(2) 0.1277(3) 0.32968(19)
C1_3 C 0.9642(3) 0.1207(3) 0.3168(2)
C4_3 C 0.8903(3) 0.1573(3) 0.3061(2)
H5_3 H 0.887891 0.205176 0.281244
C5_3 C 0.9685(3) 0.0517(3) 0.3536(2)
C9_3 C 0.8261(3) 0.0615(3) 0.3660(2)
H9_3 H 0.778064 0.040449 0.383407
C11_3 C 0.8983(3) 0.0231(4) 0.3789(3)
H15_3 H 0.992225 0.393401 0.425658
Cu4_3 Cu 0.71314(5) 0.18713(5) 0.31699(4)
N4_4 N 0.1602(3) 0.0607(3) 0.75875(19)
C3_4 C 0.2367(3) 0.0344(3) 0.7635(2)
H4_4 H 0.276778 0.061326 0.740325
C10_4 C 0.1048(3) 0.0212(4) 0.7914(3)
H10_4 H 0.050311 0.038472 0.788029
H11_3 H 0.600416 0.023333 0.905203
Cu5_4 Cu 0.13162(5) 0.16305(6) 0.70819(4)
N6_4 N 0.4314(3) 0.7319(3) 0.02261(19)
H7_4 H 0.373330 0.834509 0.000585
C14_4 C 0.4692(5) 0.6653(4) 0.0002(3)
H14_4 H 0.489676 0.624199 0.026754
Cu6_4 Cu 0.40737(6) 0.74036(6) 0.11271(3)
I1_4 I 0.39576(2) 0.92141(2) 0.64468(2)
I2_4 I 0.26393(2) 0.67204(2) 0.61927(2)
I3_4 I 0.51784(2) 0.68105(2) 0.67995(2)
Cu1_4 Cu 0.28686(5) 0.81287(5) 0.68301(4)
Cu2_4 Cu 0.36838(5) 0.66305(6) 0.70819(4)
Cu3_4 Cu 0.40737(6) 0.75964(6) 0.61271(3)
S1_4 S 0.30515(7) 0.76152(8) 0.78229(5)
P1_4 P 0.37414(7) 0.84944(8) 0.81545(5)
N1_4 N 0.4666(2) 0.8453(3) 0.78946(17)
H1_4 H 0.476899 0.794472 0.779597
N2_4 N 0.6781(2) 0.8723(3) 0.82968(19)
N3_4 N 0.3420(2) 0.9466(3) 0.80300(18)
H2_4 H 0.366213 0.966362 0.772284
N5_4 N 0.3792(3) 0.8469(3) 0.88874(17)
H3_4 H 0.332990 0.860874 0.902844
C1_4 C 0.5358(3) 0.8793(3) 0.8168(2)
C2_4 C 0.2598(3) 0.9696(3) 0.80084(19)
C4_4 C 0.6097(3) 0.8427(3) 0.8061(2)
H5_4 H 0.612109 0.794824 0.781244
C5_4 C 0.5315(3) 0.9483(3) 0.8536(2)
H6_4 H 0.481598 0.975201 0.861334
C6_4 C 0.4018(3) 0.7880(4) 0.9848(2)
C7_4 C 0.4102(3) 0.7822(3) 0.9233(2)
C8_4 C 0.2015(3) 0.9305(4) 0.8350(2)
H8_4 H 0.215256 0.886520 0.861436
C9_4 C 0.6739(3) 0.9385(3) 0.8660(2)
H9_4 H 0.721936 0.959551 0.883407
C11_4 C 0.6017(3) 0.9769(4) 0.8789(3)
C12_4 C 0.1227(3) 0.9573(4) 0.8294(3)
H12_4 H 0.081185 0.931390 0.851911
C13_4 C 0.4488(4) 0.7123(4) 0.9009(2)
H13_4 H 0.453946 0.704416 0.859196
C15_4 C 0.4796(5) 0.6541(5) 0.9401(3)
H15_4 H 0.507775 0.606599 0.925658
Cu4_4 Cu 0.78686(5) 0.81287(5) 0.81699(4)
N7_4 N 0.1781(2) 0.8723(3) 0.67032(19)
N8_4 N 0.3398(3) 0.5607(3) 0.75875(19)
N9_4 N 0.4314(3) 0.7681(3) 0.52261(19)
I1_5 I 0.39576(2) 0.57859(2) 0.14468(2)
I2_5 I 0.26393(2) 0.82796(2) 0.11927(2)
I3_5 I 0.51784(2) 0.81895(2) 0.17995(2)
S1_5 S 0.30515(7) 0.73848(8) 0.28229(5)
P1_5 P 0.37414(7) 0.65056(8) 0.31545(5)
N1_5 N 0.4666(2) 0.6547(3) 0.28946(17)
H1_5 H 0.476899 0.705528 0.279597
N3_5 N 0.3420(2) 0.5534(3) 0.30300(18)
H2_5 H 0.366213 0.533638 0.272284
N5_5 N 0.3792(3) 0.6531(3) 0.38874(17)
H3_5 H 0.332990 0.639126 0.402844
C1_5 C 0.5358(3) 0.6207(3) 0.3168(2)
C2_5 C 0.2598(3) 0.5304(3) 0.30084(19)
C3_5 C 0.2367(3) 0.4656(3) 0.2635(2)
H4_5 H 0.276778 0.438674 0.240325
C4_5 C 0.6097(3) 0.6573(3) 0.3061(2)
H5_5 H 0.612109 0.705176 0.281244
C5_5 C 0.5315(3) 0.5517(3) 0.3536(2)
H6_5 H 0.481598 0.524799 0.361334
C6_5 C 0.4018(3) 0.7120(4) 0.4848(2)
H7_5 H 0.373330 0.665491 0.500585
C7_5 C 0.4102(3) 0.7178(3) 0.4233(2)
C8_5 C 0.2015(3) 0.5695(4) 0.3350(2)
H8_5 H 0.215256 0.613480 0.361436
C9_5 C 0.6739(3) 0.5615(3) 0.3660(2)
H9_5 H 0.721936 0.540449 0.383407
C10_5 C 0.1048(3) 0.4788(4) 0.2914(3)
H10_5 H 0.050311 0.461528 0.288029
C11_5 C 0.6017(3) 0.5231(4) 0.3789(3)
H11_4 H 0.600416 0.476667 0.405203
C12_5 C 0.1227(3) 0.5427(4) 0.3294(3)
H12_5 H 0.081185 0.568610 0.351911
C13_5 C 0.4488(4) 0.7877(4) 0.4009(2)
H13_5 H 0.453946 0.795584 0.359196
C14_5 C 0.4692(5) 0.8347(4) 0.5002(3)
H14_5 H 0.489676 0.875801 0.526754
C15_5 C 0.4796(5) 0.8459(5) 0.4401(3)
H15_5 H 0.507775 0.893401 0.425658
H7_6 H 0.126670 0.334509 0.000585
C14_6 C 0.0308(5) 0.1653(4) 0.0002(3)
H14_6 H 0.010324 0.124199 0.026754
I1_6 I 0.10424(2) 0.42141(2) 0.64468(2)
I2_6 I 0.23607(2) 0.17204(2) 0.61927(2)
S1_6 S 0.19485(7) 0.26152(8) 0.78229(5)
P1_6 P 0.12586(7) 0.34944(8) 0.81545(5)
N1_6 N 0.0334(2) 0.3453(3) 0.78946(17)
H1_6 H 0.023101 0.294472 0.779597
N3_6 N 0.1580(2) 0.4466(3) 0.80300(18)
H2_6 H 0.133787 0.466362 0.772284
N5_6 N 0.1208(3) 0.3469(3) 0.88874(17)
H3_6 H 0.167010 0.360874 0.902844
C2_6 C 0.2402(3) 0.4696(3) 0.80084(19)
C3_6 C 0.2633(3) 0.5344(3) 0.7635(2)
H4_6 H 0.223222 0.561326 0.740325
H6_6 H 0.018402 0.475201 0.861334
C6_6 C 0.0982(3) 0.2880(4) 0.9848(2)
C7_6 C 0.0898(3) 0.2822(3) 0.9233(2)
C8_6 C 0.2985(3) 0.4305(4) 0.8350(2)
H8_6 H 0.284744 0.386520 0.861436
C10_6 C 0.3952(3) 0.5212(4) 0.7914(3)
H10_6 H 0.449689 0.538472 0.788029
C12_6 C 0.3773(3) 0.4573(4) 0.8294(3)
H12_6 H 0.418815 0.431390 0.851911
C13_6 C 0.0512(4) 0.2123(4) 0.9009(2)
H13_6 H 0.046054 0.204416 0.859196
C15_6 C 0.0204(5) 0.1541(5) 0.9401(3)
I3_6 I 0.98216(2) 0.18105(2) 0.67995(2)
C1_6 C 0.9642(3) 0.3793(3) 0.8168(2)
C4_6 C 0.8903(3) 0.3427(3) 0.8061(2)
H5_6 H 0.887891 0.294824 0.781244
C5_6 C 0.9685(3) 0.4483(3) 0.8536(2)
C9_6 C 0.8261(3) 0.4385(3) 0.8660(2)
H9_6 H 0.778064 0.459551 0.883407
C11_6 C 0.8983(3) 0.4769(4) 0.8789(3)
H11_5 H 0.899584 0.523333 0.905203
H15_6 H 0.992225 0.106599 0.925658
I3_7 I 0.01784(2) 0.68105(2) 0.82005(2)
C1_7 C 0.0358(3) 0.8793(3) 0.6832(2)
C4_7 C 0.1097(3) 0.8427(3) 0.6939(2)
H5_7 H 0.112109 0.794824 0.718756
C5_7 C 0.0315(3) 0.9483(3) 0.6464(2)
C9_7 C 0.1739(3) 0.9385(3) 0.6340(2)
H9_7 H 0.221936 0.959551 0.616593
C11_7 C 0.1017(3) 0.9769(4) 0.6211(3)
H15_7 H 0.007775 0.606599 0.574342
C3_7 C 0.7367(3) 0.0344(3) 0.7365(2)
H4_7 H 0.776778 0.061326 0.759675
C10_7 C 0.6048(3) 0.0212(4) 0.7086(3)
H10_7 H 0.550311 0.038472 0.711971
I1_7 I 0.89576(2) 0.92141(2) 0.85532(2)
I2_7 I 0.76393(2) 0.67204(2) 0.88073(2)
S1_7 S 0.80515(7) 0.76152(8) 0.71771(5)
P1_7 P 0.87414(7) 0.84944(8) 0.68455(5)
N1_7 N 0.9666(2) 0.8453(3) 0.71054(17)
H1_7 H 0.976899 0.794472 0.720403
N3_7 N 0.8420(2) 0.9466(3) 0.69700(18)
H2_7 H 0.866213 0.966362 0.727716
N5_7 N 0.8792(3) 0.8469(3) 0.61126(17)
H3_7 H 0.832990 0.860874 0.597156
C2_7 C 0.7598(3) 0.9696(3) 0.69916(19)
H6_7 H 0.981598 0.975201 0.638666
C6_7 C 0.9018(3) 0.7880(4) 0.5152(2)
H7_7 H 0.873330 0.834509 0.499415
C7_7 C 0.9102(3) 0.7822(3) 0.5767(2)
C8_7 C 0.7015(3) 0.9305(4) 0.6650(2)
H8_7 H 0.715256 0.886520 0.638564
C12_7 C 0.6227(3) 0.9573(4) 0.6706(3)
H12_7 H 0.581185 0.931390 0.648089
C13_7 C 0.9488(4) 0.7123(4) 0.5991(2)
H13_7 H 0.953946 0.704416 0.640804
C14_7 C 0.9692(5) 0.6653(4) 0.4998(3)
H14_7 H 0.989676 0.624199 0.473246
C15_7 C 0.9796(5) 0.6541(5) 0.5599(3)
I1_8 I 0.60424(2) 0.07859(2) 0.35532(2)
I2_8 I 0.73607(2) 0.32796(2) 0.38073(2)
I3_8 I 0.48216(2) 0.31895(2) 0.32005(2)
S1_8 S 0.69485(7) 0.23848(8) 0.21771(5)
P1_8 P 0.62586(7) 0.15056(8) 0.18455(5)
N1_8 N 0.5334(2) 0.1547(3) 0.21054(17)
H1_8 H 0.523101 0.205528 0.220403
N3_8 N 0.6580(2) 0.0534(3) 0.19700(18)
H2_8 H 0.633787 0.033638 0.227716
N5_8 N 0.6208(3) 0.1531(3) 0.11126(17)
H3_8 H 0.667010 0.139126 0.097156
C1_8 C 0.4642(3) 0.1207(3) 0.1832(2)
C2_8 C 0.7402(3) 0.0304(3) 0.19916(19)
C4_8 C 0.3903(3) 0.1573(3) 0.1939(2)
H5_8 H 0.387891 0.205176 0.218756
C5_8 C 0.4685(3) 0.0517(3) 0.1464(2)
H6_8 H 0.518402 0.024799 0.138666
C6_8 C 0.5982(3) 0.2120(4) 0.0152(2)
C7_8 C 0.5898(3) 0.2178(3) 0.0767(2)
C8_8 C 0.7985(3) 0.0695(4) 0.1650(2)
H8_8 H 0.784744 0.113480 0.138564
C9_8 C 0.3261(3) 0.0615(3) 0.1340(2)
H9_8 H 0.278064 0.040449 0.116593
C11_8 C 0.3983(3) 0.0231(4) 0.1211(3)
C12_8 C 0.8773(3) 0.0427(4) 0.1706(3)
H12_8 H 0.918815 0.068610 0.148089
C13_8 C 0.5512(4) 0.2877(4) 0.0991(2)
H13_8 H 0.546054 0.295584 0.140804
C15_8 C 0.5204(5) 0.3459(5) 0.0599(3)
H15_8 H 0.492225 0.393401 0.074342
H7_8 H 0.626670 0.165491 0.999415
C14_8 C 0.5308(5) 0.3347(4) 0.9998(3)
H14_8 H 0.510324 0.375801 0.973246
C3_8 C 0.7633(3) 0.9656(3) 0.2365(2)
H4_8 H 0.723222 0.938674 0.259675
C10_8 C 0.8952(3) 0.9788(4) 0.2086(3)
H10_8 H 0.949689 0.961528 0.211971
H11_6 H 0.399584 0.976667 0.094797
H11_7 H 0.899584 0.976667 0.405203
H11_8 H 0.100416 0.023333 0.594797
loop_
_geom_bond_atom_site_label_1
_geom_bond_atom_site_label_2
_geom_bond_site_symmetry_1
_geom_bond_site_symmetry_2
I1 Cu1 1_555 1_555
I2 Cu1 1_555 1_555
I3 Cu2 1_555 1_555
Cu1 S1 1_555 1_555
Cu2 I2 1_555 1_555
Cu3 I1 1_555 1_555
S1 Cu2 1_555 1_555
P1 S1 1_555 1_555
N1 P1 1_555 1_555
H1 N1 1_555 1_555
N2 C4 1_555 1_555
N3 P1 1_555 1_555
H2 N3 1_555 1_555
N4 C3 1_555 1_555
N5 P1 1_555 1_555
H3 N5 1_555 1_555
N6 C6 1_555 1_555
C1 N1 1_555 1_555
C2 N3 1_555 1_555
C3 C2 1_555 1_555
H4 C3 1_555 1_555
C4 C1 1_555 1_555
H5 C4 1_555 1_555
C5 C1 1_555 1_555
H6 C5 1_555 1_555
C6 H7 1_555 1_555
C7 N5 1_555 1_555
C8 C2 1_555 1_555
H8 C8 1_555 1_555
C9 N2 1_555 1_555
H9 C9 1_555 1_555
C10 N4 1_555 1_555
H10 C10 1_555 1_555
C11 C5 1_555 1_555
H11 C11 1_555 1_555
C12 C8 1_555 1_555
H12 C12 1_555 1_555
C13 C7 1_555 1_555
H13 C13 1_555 1_555
C14 N6 1_555 1_555
H14 C14 1_555 1_555
C15 C13 1_555 1_555
H15 C15 1_555 1_555
Cu4 N2 1_555 1_555
Cu5 N4 1_555 1_555
Cu6 N6 1_555 1_555
N7 Cu1 1_555 1_555
N8 Cu2 1_555 1_555
N9 Cu3 1_555 1_555
I2 Cu3 1_555 1_555
I3 Cu3 1_555 1_555
C6 C7 1_555 1_555
C9 C11 1_555 1_555
C10 C12 1_555 1_555
C14 C15 1_555 1_555
N2_2 C4_2 1_555 1_555
C4_2 C1_2 1_555 1_555
H5_2 C4_2 1_555 1_555
C5_2 C1_2 1_555 1_555
C9_2 N2_2 1_555 1_555
H9_2 C9_2 1_555 1_555
C11_2 C5_2 1_555 1_555
H11_2 C11_2 1_555 1_555
Cu4_2 N2_2 1_555 1_555
C9_2 C11_2 1_555 1_555
I1_2 Cu1_2 1_555 1_555
I2_2 Cu1_2 1_555 1_555
Cu1_2 S1_2 1_555 1_555
Cu2_2 I2_2 1_555 1_555
Cu3_2 I1_2 1_555 1_555
S1_2 Cu2_2 1_555 1_555
P1_2 S1_2 1_555 1_555
N1_2 P1_2 1_555 1_555
H1_2 N1_2 1_555 1_555
N3_2 P1_2 1_555 1_555
H2_2 N3_2 1_555 1_555
N4_2 C3_2 1_555 1_555
N5_2 P1_2 1_555 1_555
H3_2 N5_2 1_555 1_555
C2_2 N3_2 1_555 1_555
C3_2 C2_2 1_555 1_555
H4_2 C3_2 1_555 1_555
C7_2 N5_2 1_555 1_555
C8_2 C2_2 1_555 1_555
H8_2 C8_2 1_555 1_555
C10_2 N4_2 1_555 1_555
H10_2 C10_2 1_555 1_555
C12_2 C8_2 1_555 1_555
H12_2 C12_2 1_555 1_555
C13_2 C7_2 1_555 1_555
H13_2 C13_2 1_555 1_555
C15_2 C13_2 1_555 1_555
Cu5_2 N4_2 1_555 1_555
N7_2 Cu1_2 1_555 1_555
N8_2 Cu2_2 1_555 1_555
N9_2 Cu3_2 1_555 1_555
I2_2 Cu3_2 1_555 1_555
C6_2 C7_2 1_555 1_555
C10_2 C12_2 1_555 1_555
C14_2 N6_2 1_555 1_555
H14_2 C14_2 1_555 1_555
Cu6_2 N6_2 1_555 1_555
I1_3 Cu1_3 1_555 1_555
I2_3 Cu1_3 1_555 1_555
Cu1_3 S1_3 1_555 1_555
Cu2_3 I2_3 1_555 1_555
Cu3_3 I1_3 1_555 1_555
S1_3 Cu2_3 1_555 1_555
P1_3 S1_3 1_555 1_555
N1_3 P1_3 1_555 1_555
H1_3 N1_3 1_555 1_555
N3_3 P1_3 1_555 1_555
H2_3 N3_3 1_555 1_555
N5_3 P1_3 1_555 1_555
H3_3 N5_3 1_555 1_555
N6_3 C6_3 1_555 1_555
C2_3 N3_3 1_555 1_555
C6_3 H7_3 1_555 1_555
C7_3 N5_3 1_555 1_555
C8_3 C2_3 1_555 1_555
H8_3 C8_3 1_555 1_555
C12_3 C8_3 1_555 1_555
H12_3 C12_3 1_555 1_555
C13_3 C7_3 1_555 1_555
H13_3 C13_3 1_555 1_555
C14_3 N6_3 1_555 1_555
H14_3 C14_3 1_555 1_555
C15_3 C13_3 1_555 1_555
Cu6_3 N6_3 1_555 1_555
N7_3 Cu1_3 1_555 1_555
N8_3 Cu2_3 1_555 1_555
N9_3 Cu3_3 1_555 1_555
I2_3 Cu3_3 1_555 1_555
C6_3 C7_3 1_555 1_555
C14_3 C15_3 1_555 1_555
N4_3 C3_3 1_555 1_555
H4_3 C3_3 1_555 1_555
C10_3 N4_3 1_555 1_555
H10_3 C10_3 1_555 1_555
Cu5_3 N4_3 1_555 1_555
N2_3 C4_3 1_555 1_555
C4_3 C1_3 1_555 1_555
H5_3 C4_3 1_555 1_555
C5_3 C1_3 1_555 1_555
C9_3 N2_3 1_555 1_555
H9_3 C9_3 1_555 1_555
C11_3 C5_3 1_555 1_555
Cu4_3 N2_3 1_555 1_555
C9_3 C11_3 1_555 1_555
N4_4 C3_4 1_555 1_555
H4_4 C3_4 1_555 1_555
C10_4 N4_4 1_555 1_555
H10_4 C10_4 1_555 1_555
Cu5_4 N4_4 1_555 1_555
C14_4 N6_4 1_555 1_555
H14_4 C14_4 1_555 1_555
Cu6_4 N6_4 1_555 1_555
I1_4 Cu1_4 1_555 1_555
I2_4 Cu1_4 1_555 1_555
I3_4 Cu2_4 1_555 1_555
Cu1_4 S1_4 1_555 1_555
Cu2_4 I2_4 1_555 1_555
Cu3_4 I1_4 1_555 1_555
S1_4 Cu2_4 1_555 1_555
P1_4 S1_4 1_555 1_555
N1_4 P1_4 1_555 1_555
H1_4 N1_4 1_555 1_555
N2_4 C4_4 1_555 1_555
N3_4 P1_4 1_555 1_555
H2_4 N3_4 1_555 1_555
N5_4 P1_4 1_555 1_555
H3_4 N5_4 1_555 1_555
C1_4 N1_4 1_555 1_555
C2_4 N3_4 1_555 1_555
C4_4 C1_4 1_555 1_555
H5_4 C4_4 1_555 1_555
C5_4 C1_4 1_555 1_555
H6_4 C5_4 1_555 1_555
C7_4 N5_4 1_555 1_555
C8_4 C2_4 1_555 1_555
H8_4 C8_4 1_555 1_555
C9_4 N2_4 1_555 1_555
H9_4 C9_4 1_555 1_555
C11_4 C5_4 1_555 1_555
C12_4 C8_4 1_555 1_555
H12_4 C12_4 1_555 1_555
C13_4 C7_4 1_555 1_555
H13_4 C13_4 1_555 1_555
C15_4 C13_4 1_555 1_555
H15_4 C15_4 1_555 1_555
Cu4_4 N2_4 1_555 1_555
N7_4 Cu1_4 1_555 1_555
N8_4 Cu2_4 1_555 1_555
N9_4 Cu3_4 1_555 1_555
I2_4 Cu3_4 1_555 1_555
I3_4 Cu3_4 1_555 1_555
C6_4 C7_4 1_555 1_555
C9_4 C11_4 1_555 1_555
I1_5 Cu4_2 1_555 1_555
I2_5 Cu4_2 1_555 1_555
I3_5 Cu5_3 1_555 1_555
Cu4_2 S1_5 1_555 1_555
Cu5_3 I2_5 1_555 1_555
Cu6_4 I1_5 1_555 1_555
S1_5 Cu5_3 1_555 1_555
P1_5 S1_5 1_555 1_555
N1_5 P1_5 1_555 1_555
H1_5 N1_5 1_555 1_555
N7_2 C4_5 1_555 1_555
N3_5 P1_5 1_555 1_555
H2_5 N3_5 1_555 1_555
N8_3 C3_5 1_555 1_555
N5_5 P1_5 1_555 1_555
H3_5 N5_5 1_555 1_555
N9_4 C6_5 1_555 1_555
C1_5 N1_5 1_555 1_555
C2_5 N3_5 1_555 1_555
C3_5 C2_5 1_555 1_555
H4_5 C3_5 1_555 1_555
C4_5 C1_5 1_555 1_555
H5_5 C4_5 1_555 1_555
C5_5 C1_5 1_555 1_555
H6_5 C5_5 1_555 1_555
C6_5 H7_5 1_555 1_555
C7_5 N5_5 1_555 1_555
C8_5 C2_5 1_555 1_555
H8_5 C8_5 1_555 1_555
C9_5 N7_2 1_555 1_555
H9_5 C9_5 1_555 1_555
C10_5 N8_3 1_555 1_555
H10_5 C10_5 1_555 1_555
C11_5 C5_5 1_555 1_555
H11_4 C11_5 1_555 1_555
C12_5 C8_5 1_555 1_555
H12_5 C12_5 1_555 1_555
C13_5 C7_5 1_555 1_555
H13_5 C13_5 1_555 1_555
C14_5 N9_4 1_555 1_555
H14_5 C14_5 1_555 1_555
C15_5 C13_5 1_555 1_555
H15_5 C15_5 1_555 1_555
I2_5 Cu6_4 1_555 1_555
I3_5 Cu6_4 1_555 1_555
C6_5 C7_5 1_555 1_555
C9_5 C11_5 1_555 1_555
C10_5 C12_5 1_555 1_555
C14_5 C15_5 1_555 1_555
C14_6 N9_3 1_555 1_555
H14_6 C14_6 1_555 1_555
I1_6 Cu4 1_555 1_555
I2_6 Cu4 1_555 1_555
Cu4 S1_6 1_555 1_555
Cu5_4 I2_6 1_555 1_555
Cu6_3 I1_6 1_555 1_555
S1_6 Cu5_4 1_555 1_555
P1_6 S1_6 1_555 1_555
N1_6 P1_6 1_555 1_555
H1_6 N1_6 1_555 1_555
N3_6 P1_6 1_555 1_555
H2_6 N3_6 1_555 1_555
N8_4 C3_6 1_555 1_555
N5_6 P1_6 1_555 1_555
H3_6 N5_6 1_555 1_555
C2_6 N3_6 1_555 1_555
C3_6 C2_6 1_555 1_555
H4_6 C3_6 1_555 1_555
C7_6 N5_6 1_555 1_555
C8_6 C2_6 1_555 1_555
H8_6 C8_6 1_555 1_555
C10_6 N8_4 1_555 1_555
H10_6 C10_6 1_555 1_555
C12_6 C8_6 1_555 1_555
H12_6 C12_6 1_555 1_555
C13_6 C7_6 1_555 1_555
H13_6 C13_6 1_555 1_555
C15_6 C13_6 1_555 1_555
I2_6 Cu6_3 1_555 1_555
C6_6 C7_6 1_555 1_555
C10_6 C12_6 1_555 1_555
N7 C4_6 1_555 1_555
C4_6 C1_6 1_555 1_555
H5_6 C4_6 1_555 1_555
C5_6 C1_6 1_555 1_555
C9_6 N7 1_555 1_555
H9_6 C9_6 1_555 1_555
C11_6 C5_6 1_555 1_555
H11_5 C11_6 1_555 1_555
C9_6 C11_6 1_555 1_555
N7_4 C4_7 1_555 1_555
C4_7 C1_7 1_555 1_555
H5_7 C4_7 1_555 1_555
C5_7 C1_7 1_555 1_555
C9_7 N7_4 1_555 1_555
H9_7 C9_7 1_555 1_555
C11_7 C5_7 1_555 1_555
C9_7 C11_7 1_555 1_555
N8 C3_7 1_555 1_555
H4_7 C3_7 1_555 1_555
C10_7 N8 1_555 1_555
H10_7 C10_7 1_555 1_555
I1_7 Cu4_4 1_555 1_555
I2_7 Cu4_4 1_555 1_555
Cu4_4 S1_7 1_555 1_555
Cu5 I2_7 1_555 1_555
Cu6_2 I1_7 1_555 1_555
S1_7 Cu5 1_555 1_555
P1_7 S1_7 1_555 1_555
N1_7 P1_7 1_555 1_555
H1_7 N1_7 1_555 1_555
N3_7 P1_7 1_555 1_555
H2_7 N3_7 1_555 1_555
N5_7 P1_7 1_555 1_555
H3_7 N5_7 1_555 1_555
N9_2 C6_7 1_555 1_555
C2_7 N3_7 1_555 1_555
C6_7 H7_7 1_555 1_555
C7_7 N5_7 1_555 1_555
C8_7 C2_7 1_555 1_555
H8_7 C8_7 1_555 1_555
C12_7 C8_7 1_555 1_555
H12_7 C12_7 1_555 1_555
C13_7 C7_7 1_555 1_555
H13_7 C13_7 1_555 1_555
C14_7 N9_2 1_555 1_555
H14_7 C14_7 1_555 1_555
C15_7 C13_7 1_555 1_555
I2_7 Cu6_2 1_555 1_555
C6_7 C7_7 1_555 1_555
C14_7 C15_7 1_555 1_555
I1_8 Cu4_3 1_555 1_555
I2_8 Cu4_3 1_555 1_555
I3_8 Cu5_2 1_555 1_555
Cu4_3 S1_8 1_555 1_555
Cu5_2 I2_8 1_555 1_555
Cu6 I1_8 1_555 1_555
S1_8 Cu5_2 1_555 1_555
P1_8 S1_8 1_555 1_555
N1_8 P1_8 1_555 1_555
H1_8 N1_8 1_555 1_555
N7_3 C4_8 1_555 1_555
N3_8 P1_8 1_555 1_555
H2_8 N3_8 1_555 1_555
N5_8 P1_8 1_555 1_555
H3_8 N5_8 1_555 1_555
C1_8 N1_8 1_555 1_555
C2_8 N3_8 1_555 1_555
C4_8 C1_8 1_555 1_555
H5_8 C4_8 1_555 1_555
C5_8 C1_8 1_555 1_555
H6_8 C5_8 1_555 1_555
C7_8 N5_8 1_555 1_555
C8_8 C2_8 1_555 1_555
H8_8 C8_8 1_555 1_555
C9_8 N7_3 1_555 1_555
H9_8 C9_8 1_555 1_555
C11_8 C5_8 1_555 1_555
C12_8 C8_8 1_555 1_555
H12_8 C12_8 1_555 1_555
C13_8 C7_8 1_555 1_555
H13_8 C13_8 1_555 1_555
C15_8 C13_8 1_555 1_555
H15_8 C15_8 1_555 1_555
I2_8 Cu6 1_555 1_555
I3_8 Cu6 1_555 1_555
C6_8 C7_8 1_555 1_555
C9_8 C11_8 1_555 1_555
C14_8 N9 1_555 1_555
H14_8 C14_8 1_555 1_555
N8_2 C3_8 1_555 1_555
H4_8 C3_8 1_555 1_555
C10_8 N8_2 1_555 1_555
H10_8 C10_8 1_555 1_555

#END
