
###############################################################################
#
# This file contains modified crystal structure data generated from the
# MOF subset of the Cambridge Structural Database (CSD) v543 
# hosted by the Cambridge Crystallographic Data Centre (CCDC).
#
# This work is licensed under the Creative Commons
# Attribution-NonCommercial-ShareAlike 4.0 International License.
# To view a copy of this license, visit
# http://creativecommons.org/licenses/by-nc-sa/4.0/
# or send a letter to
# Creative Commons, PO Box 1866, Mountain View, CA 94042, USA.
#
# CIF created using the CSD Python API on 29 September 2022
# The structure has been converted into the P1 space group
# The structure has a 3D framework
# The original CSD entry ILODAR01 is in the orthorhombic crystal system
# The framework has been calculated to contain at least 10.0% void space
# The void calculation uses a probe of radius 1.32A, grid spacing 0.4
#
###############################################################################

data_ILODAR01
_chemical_formula_moiety         '(C120 H120 Cu24 I24 N44 P8 S8)n'
_symmetry_cell_setting           triclinic
_symmetry_space_group_name_H-M   'P 1'
_symmetry_Int_Tables_number      1
_space_group_name_Hall           'P 1'
loop_
_symmetry_equiv_pos_site_id
_symmetry_equiv_pos_as_xyz
1 x,y,z
_cell_length_a                   16.5787(3)
_cell_length_b                   15.8855(2)
_cell_length_c                   22.4738(4)
_cell_angle_alpha                90
_cell_angle_beta                 90
_cell_angle_gamma                90
_cell_volume                     5918.72
loop_
_atom_site_label
_atom_site_type_symbol
_atom_site_fract_x
_atom_site_fract_y
_atom_site_fract_z
I1 I 0.60464(2) 0.42311(2) 0.14453(2)
I2 I 0.73545(2) 0.17146(2) 0.11817(2)
I3 I 0.48094(2) 0.18183(2) 0.17899(2)
Cu1 Cu 0.71257(4) 0.31248(4) 0.18226(3)
Cu2 Cu 0.63073(4) 0.16387(4) 0.20719(3)
Cu3 Cu 0.59229(4) 0.26040(4) 0.11260(3)
S1 S 0.69535(5) 0.26068(6) 0.28147(4)
P1 P 0.62613(6) 0.34908(6) 0.31490(4)
N1 N 0.53333(19) 0.3442(2) 0.28884(15)
H1 H 0.523522 0.292883 0.278976
N2 N 0.8412(2) 0.5603(2) 0.25776(17)
N3 N 0.3212(2) 0.3719(2) 0.33028(16)
N4 N 0.65814(19) 0.4469(2) 0.30228(15)
H2 H 0.634094 0.466536 0.271347
N5 N 0.6220(2) 0.3466(2) 0.38832(15)
H3 H 0.668309 0.360658 0.402318
N6 N 0.5690(2) 0.2303(2) 0.52282(16)
C1 C 0.4645(2) 0.3787(2) 0.31660(18)
C2 C 0.7642(2) 0.5343(2) 0.26241(19)
H4 H 0.724192 0.561189 0.238876
C3 C 0.7409(2) 0.4695(2) 0.30029(17)
C4 C 0.3895(2) 0.3422(2) 0.30606(18)
H5 H 0.386531 0.294403 0.280756
C5 C 0.5907(2) 0.2809(3) 0.42312(19)
C6 C 0.8965(2) 0.5213(3) 0.2907(2)
H6 H 0.951147 0.538728 0.287457
C7 C 0.4691(2) 0.4485(3) 0.3538(2)
H7 H 0.519142 0.475776 0.361044
C8 C 0.7990(3) 0.4306(3) 0.3347(2)
H8 H 0.784894 0.386788 0.361438
C9 C 0.3266(2) 0.4383(3) 0.36741(19)
H9 H 0.278793 0.458940 0.385637
C10 C 0.5978(2) 0.2876(3) 0.48459(19)
H10 H 0.624450 0.335635 0.500359
C11 C 0.8782(3) 0.4568(3) 0.3293(2)
H11 H 0.919438 0.430635 0.352061
C12 C 0.3986(2) 0.4770(3) 0.3798(2)
H12 H 0.400039 0.523539 0.406388
C13 C 0.5308(3) 0.1631(3) 0.4997(2)
H13 H 0.509463 0.122127 0.526148
C14 C 0.5521(3) 0.2103(3) 0.3999(2)
H14 H 0.546779 0.202757 0.358176
C15 C 0.5214(4) 0.1511(3) 0.4396(2)
H15 H 0.494028 0.102717 0.425175
Cu4 Cu 0.21257(4) 0.31248(4) 0.31774(3)
Cu5 Cu 0.86927(4) 0.66387(4) 0.20719(3)
Cu6 Cu 0.59229(4) 0.23960(4) 0.61260(3)
N7 N 0.6588(2) 0.0603(2) 0.25776(17)
N8 N 0.8212(2) 0.3719(2) 0.16972(16)
N9 N 0.5690(2) 0.2697(2) 0.02282(16)
I3_2 I 0.01906(2) 0.81817(2) 0.67899(2)
N3_2 N 0.1788(2) 0.6281(2) 0.83028(16)
C1_2 C 0.0355(2) 0.6213(2) 0.81660(18)
C4_2 C 0.1105(2) 0.6578(2) 0.80606(18)
H5_2 H 0.113469 0.705597 0.780756
C7_2 C 0.0309(2) 0.5515(3) 0.8538(2)
C9_2 C 0.1734(2) 0.5617(3) 0.86741(19)
H9_2 H 0.221207 0.541060 0.885637
C12_2 C 0.1014(2) 0.5230(3) 0.8798(2)
H12_2 H 0.099961 0.476461 0.906388
H15_2 H 0.005972 0.897283 0.925175
Cu4_2 Cu 0.28743(4) 0.68752(4) 0.81774(3)
N6_2 N 0.9310(2) 0.7697(2) 0.02282(16)
H10_2 H 0.875550 0.664365 0.000359
H13_2 H 0.990537 0.877873 0.026148
Cu6_2 Cu 0.90771(4) 0.76040(4) 0.11260(3)
I1_2 I 0.89536(2) 0.57689(2) 0.64453(2)
I2_2 I 0.76455(2) 0.82854(2) 0.61817(2)
Cu1_2 Cu 0.78743(4) 0.68752(4) 0.68226(3)
Cu2_2 Cu 0.86927(4) 0.83613(4) 0.70719(3)
Cu3_2 Cu 0.90771(4) 0.73960(4) 0.61260(3)
S1_2 S 0.80465(5) 0.73932(6) 0.78147(4)
P1_2 P 0.87387(6) 0.65092(6) 0.81490(4)
N1_2 N 0.96667(19) 0.6558(2) 0.78884(15)
H1_2 H 0.976478 0.707117 0.778976
N2_2 N 0.6588(2) 0.4397(2) 0.75776(17)
N4_2 N 0.84186(19) 0.5531(2) 0.80228(15)
H2_2 H 0.865906 0.533464 0.771347
N5_2 N 0.8780(2) 0.6534(2) 0.88832(15)
H3_2 H 0.831691 0.639342 0.902318
C2_2 C 0.7358(2) 0.4657(2) 0.76241(19)
H4_2 H 0.775808 0.438811 0.738876
C3_2 C 0.7591(2) 0.5305(2) 0.80029(17)
C5_2 C 0.9093(2) 0.7191(3) 0.92312(19)
C6_2 C 0.6035(2) 0.4787(3) 0.7907(2)
H6_2 H 0.548853 0.461272 0.787457
H7_2 H 0.980858 0.524224 0.861044
C8_2 C 0.7010(3) 0.5694(3) 0.8347(2)
H8_2 H 0.715106 0.613212 0.861438
C10_2 C 0.9022(2) 0.7124(3) 0.98459(19)
C11_2 C 0.6218(3) 0.5432(3) 0.8293(2)
H11_2 H 0.580562 0.569365 0.852061
C13_2 C 0.9692(3) 0.8369(3) 0.9997(2)
C14_2 C 0.9479(3) 0.7897(3) 0.8999(2)
H14_2 H 0.953221 0.797243 0.858176
C15_2 C 0.9786(4) 0.8489(3) 0.9396(2)
Cu5_2 Cu 0.63073(4) 0.33613(4) 0.70719(3)
N7_2 N 0.8412(2) 0.9397(2) 0.75776(17)
N8_2 N 0.6788(2) 0.6281(2) 0.66972(16)
N9_2 N 0.9310(2) 0.7303(2) 0.52282(16)
I1_3 I 0.10464(2) 0.07689(2) 0.85547(2)
I2_3 I 0.23545(2) 0.32854(2) 0.88183(2)
Cu1_3 Cu 0.21257(4) 0.18752(4) 0.81774(3)
Cu2_3 Cu 0.13073(4) 0.33613(4) 0.79281(3)
Cu3_3 Cu 0.09229(4) 0.23960(4) 0.88740(3)
S1_3 S 0.19535(5) 0.23932(6) 0.71853(4)
P1_3 P 0.12613(6) 0.15092(6) 0.68510(4)
N1_3 N 0.03333(19) 0.1558(2) 0.71116(15)
H1_3 H 0.023522 0.207117 0.721024
N4_3 N 0.15814(19) 0.0531(2) 0.69772(15)
H2_3 H 0.134094 0.033464 0.728653
N5_3 N 0.1220(2) 0.1534(2) 0.61168(15)
H3_3 H 0.168309 0.139342 0.597682
N6_3 N 0.0690(2) 0.2697(2) 0.47718(16)
C3_3 C 0.2409(2) 0.0305(2) 0.69971(17)
C5_3 C 0.0907(2) 0.2191(3) 0.57688(19)
H7_3 H 0.019142 0.024224 0.638956
C8_3 C 0.2990(3) 0.0694(3) 0.6653(2)
H8_3 H 0.284894 0.113212 0.638562
C10_3 C 0.0978(2) 0.2124(3) 0.51541(19)
H10_3 H 0.124450 0.164365 0.499641
C11_3 C 0.3782(3) 0.0432(3) 0.6707(2)
H11_3 H 0.419438 0.069365 0.647939
C13_3 C 0.0308(3) 0.3369(3) 0.5003(2)
H13_3 H 0.009463 0.377873 0.473852
C14_3 C 0.0521(3) 0.2897(3) 0.6001(2)
H14_3 H 0.046779 0.297243 0.641824
C15_3 C 0.0214(4) 0.3489(3) 0.5604(2)
Cu6_3 Cu 0.09229(4) 0.26040(4) 0.38740(3)
N7_3 N 0.1588(2) 0.4397(2) 0.74224(17)
N8_3 N 0.3212(2) 0.1281(2) 0.83028(16)
N9_3 N 0.0690(2) 0.2303(2) 0.97718(16)
N2_3 N 0.3412(2) 0.9397(2) 0.74224(17)
C2_3 C 0.2642(2) 0.9657(2) 0.73759(19)
H4_3 H 0.224192 0.938811 0.761124
C6_3 C 0.3965(2) 0.9787(3) 0.7093(2)
H6_3 H 0.451147 0.961272 0.712543
Cu5_3 Cu 0.36927(4) 0.83613(4) 0.79281(3)
I3_3 I 0.98094(2) 0.31817(2) 0.82101(2)
N3_3 N 0.8212(2) 0.1281(2) 0.66972(16)
C1_3 C 0.9645(2) 0.1213(2) 0.68340(18)
C4_3 C 0.8895(2) 0.1578(2) 0.69394(18)
H5_3 H 0.886531 0.205597 0.719244
C7_3 C 0.9691(2) 0.0515(3) 0.6462(2)
C9_3 C 0.8266(2) 0.0617(3) 0.63259(19)
H9_3 H 0.778793 0.041060 0.614363
C12_3 C 0.8986(2) 0.0230(3) 0.6202(2)
H15_3 H 0.994028 0.397283 0.574825
Cu4_3 Cu 0.71257(4) 0.18752(4) 0.68226(3)
N2_4 N 0.1588(2) 0.0603(2) 0.24224(17)
C2_4 C 0.2358(2) 0.0343(2) 0.23759(19)
H4_4 H 0.275808 0.061189 0.261124
C6_4 C 0.1035(2) 0.0213(3) 0.2093(2)
H6_4 H 0.048853 0.038728 0.212543
H12_3 H 0.599961 0.023539 0.093612
Cu5_4 Cu 0.13073(4) 0.16387(4) 0.29281(3)
I1_4 I 0.39536(2) 0.92311(2) 0.35547(2)
I2_4 I 0.26455(2) 0.67146(2) 0.38183(2)
I3_4 I 0.51906(2) 0.68183(2) 0.32101(2)
Cu1_4 Cu 0.28743(4) 0.81248(4) 0.31774(3)
Cu2_4 Cu 0.36927(4) 0.66387(4) 0.29281(3)
Cu3_4 Cu 0.40771(4) 0.76040(4) 0.38740(3)
S1_4 S 0.30465(5) 0.76068(6) 0.21853(4)
P1_4 P 0.37387(6) 0.84908(6) 0.18510(4)
N1_4 N 0.46667(19) 0.8442(2) 0.21116(15)
H1_4 H 0.476478 0.792883 0.221024
N3_4 N 0.6788(2) 0.8719(2) 0.16972(16)
N4_4 N 0.34186(19) 0.9469(2) 0.19772(15)
H2_4 H 0.365906 0.966536 0.228653
N5_4 N 0.3780(2) 0.8466(2) 0.11168(15)
H3_4 H 0.331691 0.860658 0.097682
C1_4 C 0.5355(2) 0.8787(2) 0.18340(18)
C3_4 C 0.2591(2) 0.9695(2) 0.19971(17)
C4_4 C 0.6105(2) 0.8422(2) 0.19394(18)
H5_4 H 0.613469 0.794403 0.219244
C5_4 C 0.4093(2) 0.7809(3) 0.07688(19)
C7_4 C 0.5309(2) 0.9485(3) 0.1462(2)
H7_4 H 0.480858 0.975776 0.138956
C8_4 C 0.2010(3) 0.9306(3) 0.1653(2)
H8_4 H 0.215106 0.886788 0.138562
C9_4 C 0.6734(2) 0.9383(3) 0.13259(19)
H9_4 H 0.721207 0.958940 0.114363
C10_4 C 0.4022(2) 0.7876(3) 0.01541(19)
C11_4 C 0.1218(3) 0.9568(3) 0.1707(2)
H11_4 H 0.080562 0.930635 0.147939
C12_4 C 0.6014(2) 0.9770(3) 0.1202(2)
C13_4 C 0.4692(3) 0.6631(3) 0.0003(2)
C14_4 C 0.4479(3) 0.7103(3) 0.1001(2)
H14_4 H 0.453221 0.702757 0.141824
C15_4 C 0.4786(4) 0.6511(3) 0.0604(2)
H15_4 H 0.505972 0.602717 0.074825
Cu4_4 Cu 0.78743(4) 0.81248(4) 0.18226(3)
N7_4 N 0.3412(2) 0.5603(2) 0.24224(17)
N8_4 N 0.1788(2) 0.8719(2) 0.33028(16)
N9_4 N 0.4310(2) 0.7697(2) 0.47718(16)
N6_4 N 0.4310(2) 0.7303(2) 0.97718(16)
H10_4 H 0.375550 0.835635 0.999641
H13_4 H 0.490537 0.622127 0.973852
Cu6_4 Cu 0.40771(4) 0.73960(4) 0.88740(3)
I1_5 I 0.39536(2) 0.57689(2) 0.85547(2)
I2_5 I 0.26455(2) 0.82854(2) 0.88183(2)
I3_5 I 0.51906(2) 0.81817(2) 0.82101(2)
S1_5 S 0.30465(5) 0.73932(6) 0.71853(4)
P1_5 P 0.37387(6) 0.65092(6) 0.68510(4)
N1_5 N 0.46667(19) 0.6558(2) 0.71116(15)
H1_5 H 0.476478 0.707117 0.721024
N4_5 N 0.34186(19) 0.5531(2) 0.69772(15)
H2_5 H 0.365906 0.533464 0.728653
N5_5 N 0.3780(2) 0.6534(2) 0.61168(15)
H3_5 H 0.331691 0.639342 0.597682
C1_5 C 0.5355(2) 0.6213(2) 0.68340(18)
C2_5 C 0.2358(2) 0.4657(2) 0.73759(19)
H4_5 H 0.275808 0.438811 0.761124
C3_5 C 0.2591(2) 0.5305(2) 0.69971(17)
C4_5 C 0.6105(2) 0.6578(2) 0.69394(18)
H5_5 H 0.613469 0.705597 0.719244
C5_5 C 0.4093(2) 0.7191(3) 0.57688(19)
C6_5 C 0.1035(2) 0.4787(3) 0.7093(2)
H6_5 H 0.048853 0.461272 0.712543
C7_5 C 0.5309(2) 0.5515(3) 0.6462(2)
H7_5 H 0.480858 0.524224 0.638956
C8_5 C 0.2010(3) 0.5694(3) 0.6653(2)
H8_5 H 0.215106 0.613212 0.638562
C9_5 C 0.6734(2) 0.5617(3) 0.63259(19)
H9_5 H 0.721207 0.541060 0.614363
C10_5 C 0.4022(2) 0.7124(3) 0.51541(19)
H10_5 H 0.375550 0.664365 0.499641
C11_5 C 0.1218(3) 0.5432(3) 0.6707(2)
H11_5 H 0.080562 0.569365 0.647939
C12_5 C 0.6014(2) 0.5230(3) 0.6202(2)
H12_4 H 0.599961 0.476461 0.593612
C13_5 C 0.4692(3) 0.8369(3) 0.5003(2)
H13_5 H 0.490537 0.877873 0.473852
C14_5 C 0.4479(3) 0.7897(3) 0.6001(2)
H14_5 H 0.453221 0.797243 0.641824
C15_5 C 0.4786(4) 0.8489(3) 0.5604(2)
H15_5 H 0.505972 0.897283 0.574825
I1_6 I 0.10464(2) 0.42311(2) 0.35547(2)
I2_6 I 0.23545(2) 0.17146(2) 0.38183(2)
S1_6 S 0.19535(5) 0.26068(6) 0.21853(4)
P1_6 P 0.12613(6) 0.34908(6) 0.18510(4)
N1_6 N 0.03333(19) 0.3442(2) 0.21116(15)
H1_6 H 0.023522 0.292883 0.221024
N4_6 N 0.15814(19) 0.4469(2) 0.19772(15)
H2_6 H 0.134094 0.466536 0.228653
N5_6 N 0.1220(2) 0.3466(2) 0.11168(15)
H3_6 H 0.168309 0.360658 0.097682
C2_6 C 0.2642(2) 0.5343(2) 0.23759(19)
H4_6 H 0.224192 0.561189 0.261124
C3_6 C 0.2409(2) 0.4695(2) 0.19971(17)
C5_6 C 0.0907(2) 0.2809(3) 0.07688(19)
C6_6 C 0.3965(2) 0.5213(3) 0.2093(2)
H6_6 H 0.451147 0.538728 0.212543
H7_6 H 0.019142 0.475776 0.138956
C8_6 C 0.2990(3) 0.4306(3) 0.1653(2)
H8_6 H 0.284894 0.386788 0.138562
C10_6 C 0.0978(2) 0.2876(3) 0.01541(19)
C11_6 C 0.3782(3) 0.4568(3) 0.1707(2)
H11_6 H 0.419438 0.430635 0.147939
C13_6 C 0.0308(3) 0.1631(3) 0.0003(2)
C14_6 C 0.0521(3) 0.2103(3) 0.1001(2)
H14_6 H 0.046779 0.202757 0.141824
C15_6 C 0.0214(4) 0.1511(3) 0.0604(2)
H10_6 H 0.124450 0.335635 0.999641
H13_6 H 0.009463 0.122127 0.973852
I3_6 I 0.98094(2) 0.18183(2) 0.32101(2)
C1_6 C 0.9645(2) 0.3787(2) 0.18340(18)
C4_6 C 0.8895(2) 0.3422(2) 0.19394(18)
H5_6 H 0.886531 0.294403 0.219244
C7_6 C 0.9691(2) 0.4485(3) 0.1462(2)
C9_6 C 0.8266(2) 0.4383(3) 0.13259(19)
H9_6 H 0.778793 0.458940 0.114363
C12_6 C 0.8986(2) 0.4770(3) 0.1202(2)
H12_5 H 0.900039 0.523539 0.093612
H15_6 H 0.994028 0.102717 0.074825
I3_7 I 0.01906(2) 0.68183(2) 0.17899(2)
C1_7 C 0.0355(2) 0.8787(2) 0.31660(18)
C4_7 C 0.1105(2) 0.8422(2) 0.30606(18)
H5_7 H 0.113469 0.794403 0.280756
C7_7 C 0.0309(2) 0.9485(3) 0.3538(2)
C9_7 C 0.1734(2) 0.9383(3) 0.36741(19)
H9_7 H 0.221207 0.958940 0.385637
C12_7 C 0.1014(2) 0.9770(3) 0.3798(2)
H15_7 H 0.005972 0.602717 0.425175
C2_7 C 0.7358(2) 0.0343(2) 0.26241(19)
H4_7 H 0.775808 0.061189 0.238876
C6_7 C 0.6035(2) 0.0213(3) 0.2907(2)
H6_7 H 0.548853 0.038728 0.287457
I1_7 I 0.89536(2) 0.92311(2) 0.14453(2)
I2_7 I 0.76455(2) 0.67146(2) 0.11817(2)
S1_7 S 0.80465(5) 0.76068(6) 0.28147(4)
P1_7 P 0.87387(6) 0.84908(6) 0.31490(4)
N1_7 N 0.96667(19) 0.8442(2) 0.28884(15)
H1_7 H 0.976478 0.792883 0.278976
N4_7 N 0.84186(19) 0.9469(2) 0.30228(15)
H2_7 H 0.865906 0.966536 0.271347
N5_7 N 0.8780(2) 0.8466(2) 0.38832(15)
H3_7 H 0.831691 0.860658 0.402318
C3_7 C 0.7591(2) 0.9695(2) 0.30029(17)
C5_7 C 0.9093(2) 0.7809(3) 0.42312(19)
H7_7 H 0.980858 0.975776 0.361044
C8_7 C 0.7010(3) 0.9306(3) 0.3347(2)
H8_7 H 0.715106 0.886788 0.361438
C10_7 C 0.9022(2) 0.7876(3) 0.48459(19)
H10_7 H 0.875550 0.835635 0.500359
C11_7 C 0.6218(3) 0.9568(3) 0.3293(2)
H11_7 H 0.580562 0.930635 0.352061
C13_7 C 0.9692(3) 0.6631(3) 0.4997(2)
H13_7 H 0.990537 0.622127 0.526148
C14_7 C 0.9479(3) 0.7103(3) 0.3999(2)
H14_7 H 0.953221 0.702757 0.358176
C15_7 C 0.9786(4) 0.6511(3) 0.4396(2)
H10_8 H 0.624450 0.164365 0.000359
H13_8 H 0.509463 0.377873 0.026148
I1_8 I 0.60464(2) 0.07689(2) 0.64453(2)
I2_8 I 0.73545(2) 0.32854(2) 0.61817(2)
I3_8 I 0.48094(2) 0.31817(2) 0.67899(2)
S1_8 S 0.69535(5) 0.23932(6) 0.78147(4)
P1_8 P 0.62613(6) 0.15092(6) 0.81490(4)
N1_8 N 0.53333(19) 0.1558(2) 0.78884(15)
H1_8 H 0.523522 0.207117 0.778976
N4_8 N 0.65814(19) 0.0531(2) 0.80228(15)
H2_8 H 0.634094 0.033464 0.771347
N5_8 N 0.6220(2) 0.1534(2) 0.88832(15)
H3_8 H 0.668309 0.139342 0.902318
C1_8 C 0.4645(2) 0.1213(2) 0.81660(18)
C3_8 C 0.7409(2) 0.0305(2) 0.80029(17)
C4_8 C 0.3895(2) 0.1578(2) 0.80606(18)
H5_8 H 0.386531 0.205597 0.780756
C5_8 C 0.5907(2) 0.2191(3) 0.92312(19)
C7_8 C 0.4691(2) 0.0515(3) 0.8538(2)
H7_8 H 0.519142 0.024224 0.861044
C8_8 C 0.7990(3) 0.0694(3) 0.8347(2)
H8_8 H 0.784894 0.113212 0.861438
C9_8 C 0.3266(2) 0.0617(3) 0.86741(19)
H9_8 H 0.278793 0.041060 0.885637
C10_8 C 0.5978(2) 0.2124(3) 0.98459(19)
C11_8 C 0.8782(3) 0.0432(3) 0.8293(2)
H11_8 H 0.919438 0.069365 0.852061
C12_8 C 0.3986(2) 0.0230(3) 0.8798(2)
C13_8 C 0.5308(3) 0.3369(3) 0.9997(2)
C14_8 C 0.5521(3) 0.2897(3) 0.8999(2)
H14_8 H 0.546779 0.297243 0.858176
C15_8 C 0.5214(4) 0.3489(3) 0.9396(2)
H15_8 H 0.494028 0.397283 0.925175
C2_8 C 0.7642(2) 0.9657(2) 0.76241(19)
H4_8 H 0.724192 0.938811 0.738876
C6_8 C 0.8965(2) 0.9787(3) 0.7907(2)
H6_8 H 0.951147 0.961272 0.787457
H12_6 H 0.400039 0.976461 0.906388
H12_7 H 0.900039 0.976461 0.593612
H12_8 H 0.099961 0.023539 0.406388
loop_
_geom_bond_atom_site_label_1
_geom_bond_atom_site_label_2
_geom_bond_site_symmetry_1
_geom_bond_site_symmetry_2
I1 Cu1 1_555 1_555
I2 Cu1 1_555 1_555
I3 Cu2 1_555 1_555
Cu1 S1 1_555 1_555
Cu2 I2 1_555 1_555
Cu3 I1 1_555 1_555
S1 Cu2 1_555 1_555
P1 S1 1_555 1_555
N1 P1 1_555 1_555
H1 N1 1_555 1_555
N2 C2 1_555 1_555
N3 C4 1_555 1_555
N4 P1 1_555 1_555
H2 N4 1_555 1_555
N5 P1 1_555 1_555
H3 N5 1_555 1_555
N6 C10 1_555 1_555
C1 N1 1_555 1_555
C2 H4 1_555 1_555
C3 N4 1_555 1_555
C4 C1 1_555 1_555
H5 C4 1_555 1_555
C5 N5 1_555 1_555
C6 N2 1_555 1_555
H6 C6 1_555 1_555
C7 C1 1_555 1_555
H7 C7 1_555 1_555
C8 C3 1_555 1_555
H8 C8 1_555 1_555
C9 N3 1_555 1_555
H9 C9 1_555 1_555
C10 C5 1_555 1_555
H10 C10 1_555 1_555
C11 C6 1_555 1_555
H11 C11 1_555 1_555
C12 C7 1_555 1_555
H12 C12 1_555 1_555
C13 N6 1_555 1_555
H13 C13 1_555 1_555
C14 C5 1_555 1_555
H14 C14 1_555 1_555
C15 C13 1_555 1_555
H15 C15 1_555 1_555
Cu4 N3 1_555 1_555
Cu5 N2 1_555 1_555
Cu6 N6 1_555 1_555
N7 Cu2 1_555 1_555
N8 Cu1 1_555 1_555
N9 Cu3 1_555 1_555
I2 Cu3 1_555 1_555
I3 Cu3 1_555 1_555
C2 C3 1_555 1_555
C8 C11 1_555 1_555
C9 C12 1_555 1_555
C14 C15 1_555 1_555
N3_2 C4_2 1_555 1_555
C4_2 C1_2 1_555 1_555
H5_2 C4_2 1_555 1_555
C7_2 C1_2 1_555 1_555
C9_2 N3_2 1_555 1_555
H9_2 C9_2 1_555 1_555
C12_2 C7_2 1_555 1_555
H12_2 C12_2 1_555 1_555
Cu4_2 N3_2 1_555 1_555
C9_2 C12_2 1_555 1_555
Cu6_2 N6_2 1_555 1_555
I1_2 Cu1_2 1_555 1_555
I2_2 Cu1_2 1_555 1_555
Cu1_2 S1_2 1_555 1_555
Cu2_2 I2_2 1_555 1_555
Cu3_2 I1_2 1_555 1_555
S1_2 Cu2_2 1_555 1_555
P1_2 S1_2 1_555 1_555
N1_2 P1_2 1_555 1_555
H1_2 N1_2 1_555 1_555
N2_2 C2_2 1_555 1_555
N4_2 P1_2 1_555 1_555
H2_2 N4_2 1_555 1_555
N5_2 P1_2 1_555 1_555
H3_2 N5_2 1_555 1_555
C2_2 H4_2 1_555 1_555
C3_2 N4_2 1_555 1_555
C5_2 N5_2 1_555 1_555
C6_2 N2_2 1_555 1_555
H6_2 C6_2 1_555 1_555
C8_2 C3_2 1_555 1_555
H8_2 C8_2 1_555 1_555
C10_2 C5_2 1_555 1_555
C11_2 C6_2 1_555 1_555
H11_2 C11_2 1_555 1_555
C14_2 C5_2 1_555 1_555
H14_2 C14_2 1_555 1_555
C15_2 C13_2 1_555 1_555
Cu5_2 N2_2 1_555 1_555
N7_2 Cu2_2 1_555 1_555
N8_2 Cu1_2 1_555 1_555
N9_2 Cu3_2 1_555 1_555
I2_2 Cu3_2 1_555 1_555
C2_2 C3_2 1_555 1_555
C8_2 C11_2 1_555 1_555
C14_2 C15_2 1_555 1_555
I1_3 Cu1_3 1_555 1_555
I2_3 Cu1_3 1_555 1_555
Cu1_3 S1_3 1_555 1_555
Cu2_3 I2_3 1_555 1_555
Cu3_3 I1_3 1_555 1_555
S1_3 Cu2_3 1_555 1_555
P1_3 S1_3 1_555 1_555
N1_3 P1_3 1_555 1_555
H1_3 N1_3 1_555 1_555
N4_3 P1_3 1_555 1_555
H2_3 N4_3 1_555 1_555
N5_3 P1_3 1_555 1_555
H3_3 N5_3 1_555 1_555
N6_3 C10_3 1_555 1_555
C3_3 N4_3 1_555 1_555
C5_3 N5_3 1_555 1_555
C8_3 C3_3 1_555 1_555
H8_3 C8_3 1_555 1_555
C10_3 C5_3 1_555 1_555
H10_3 C10_3 1_555 1_555
H11_3 C11_3 1_555 1_555
C13_3 N6_3 1_555 1_555
H13_3 C13_3 1_555 1_555
C14_3 C5_3 1_555 1_555
H14_3 C14_3 1_555 1_555
C15_3 C13_3 1_555 1_555
Cu6_3 N6_3 1_555 1_555
N7_3 Cu2_3 1_555 1_555
N8_3 Cu1_3 1_555 1_555
N9_3 Cu3_3 1_555 1_555
I2_3 Cu3_3 1_555 1_555
C8_3 C11_3 1_555 1_555
C14_3 C15_3 1_555 1_555
N2_3 C2_3 1_555 1_555
C2_3 H4_3 1_555 1_555
C6_3 N2_3 1_555 1_555
H6_3 C6_3 1_555 1_555
Cu5_3 N2_3 1_555 1_555
N3_3 C4_3 1_555 1_555
C4_3 C1_3 1_555 1_555
H5_3 C4_3 1_555 1_555
C7_3 C1_3 1_555 1_555
C9_3 N3_3 1_555 1_555
H9_3 C9_3 1_555 1_555
C12_3 C7_3 1_555 1_555
Cu4_3 N3_3 1_555 1_555
C9_3 C12_3 1_555 1_555
N2_4 C2_4 1_555 1_555
C2_4 H4_4 1_555 1_555
C6_4 N2_4 1_555 1_555
H6_4 C6_4 1_555 1_555
Cu5_4 N2_4 1_555 1_555
I1_4 Cu1_4 1_555 1_555
I2_4 Cu1_4 1_555 1_555
I3_4 Cu2_4 1_555 1_555
Cu1_4 S1_4 1_555 1_555
Cu2_4 I2_4 1_555 1_555
Cu3_4 I1_4 1_555 1_555
S1_4 Cu2_4 1_555 1_555
P1_4 S1_4 1_555 1_555
N1_4 P1_4 1_555 1_555
H1_4 N1_4 1_555 1_555
N3_4 C4_4 1_555 1_555
N4_4 P1_4 1_555 1_555
H2_4 N4_4 1_555 1_555
N5_4 P1_4 1_555 1_555
H3_4 N5_4 1_555 1_555
C1_4 N1_4 1_555 1_555
C3_4 N4_4 1_555 1_555
C4_4 C1_4 1_555 1_555
H5_4 C4_4 1_555 1_555
C5_4 N5_4 1_555 1_555
C7_4 C1_4 1_555 1_555
H7_4 C7_4 1_555 1_555
C8_4 C3_4 1_555 1_555
H8_4 C8_4 1_555 1_555
C9_4 N3_4 1_555 1_555
H9_4 C9_4 1_555 1_555
C10_4 C5_4 1_555 1_555
H11_4 C11_4 1_555 1_555
C12_4 C7_4 1_555 1_555
C14_4 C5_4 1_555 1_555
H14_4 C14_4 1_555 1_555
C15_4 C13_4 1_555 1_555
H15_4 C15_4 1_555 1_555
Cu4_4 N3_4 1_555 1_555
N7_4 Cu2_4 1_555 1_555
N8_4 Cu1_4 1_555 1_555
N9_4 Cu3_4 1_555 1_555
I2_4 Cu3_4 1_555 1_555
I3_4 Cu3_4 1_555 1_555
C8_4 C11_4 1_555 1_555
C9_4 C12_4 1_555 1_555
C14_4 C15_4 1_555 1_555
Cu6_4 N6_4 1_555 1_555
I1_5 Cu4_2 1_555 1_555
I2_5 Cu4_2 1_555 1_555
I3_5 Cu5_3 1_555 1_555
Cu4_2 S1_5 1_555 1_555
Cu5_3 I2_5 1_555 1_555
Cu6_4 I1_5 1_555 1_555
S1_5 Cu5_3 1_555 1_555
P1_5 S1_5 1_555 1_555
N1_5 P1_5 1_555 1_555
H1_5 N1_5 1_555 1_555
N7_3 C2_5 1_555 1_555
N8_2 C4_5 1_555 1_555
N4_5 P1_5 1_555 1_555
H2_5 N4_5 1_555 1_555
N5_5 P1_5 1_555 1_555
H3_5 N5_5 1_555 1_555
N9_4 C10_5 1_555 1_555
C1_5 N1_5 1_555 1_555
C2_5 H4_5 1_555 1_555
C3_5 N4_5 1_555 1_555
C4_5 C1_5 1_555 1_555
H5_5 C4_5 1_555 1_555
C5_5 N5_5 1_555 1_555
C6_5 N7_3 1_555 1_555
H6_5 C6_5 1_555 1_555
C7_5 C1_5 1_555 1_555
H7_5 C7_5 1_555 1_555
C8_5 C3_5 1_555 1_555
H8_5 C8_5 1_555 1_555
C9_5 N8_2 1_555 1_555
H9_5 C9_5 1_555 1_555
C10_5 C5_5 1_555 1_555
H10_5 C10_5 1_555 1_555
C11_5 C6_5 1_555 1_555
H11_5 C11_5 1_555 1_555
C12_5 C7_5 1_555 1_555
H12_4 C12_5 1_555 1_555
C13_5 N9_4 1_555 1_555
H13_5 C13_5 1_555 1_555
C14_5 C5_5 1_555 1_555
H14_5 C14_5 1_555 1_555
C15_5 C13_5 1_555 1_555
H15_5 C15_5 1_555 1_555
I2_5 Cu6_4 1_555 1_555
I3_5 Cu6_4 1_555 1_555
C2_5 C3_5 1_555 1_555
C8_5 C11_5 1_555 1_555
C9_5 C12_5 1_555 1_555
C14_5 C15_5 1_555 1_555
I1_6 Cu4 1_555 1_555
I2_6 Cu4 1_555 1_555
Cu4 S1_6 1_555 1_555
Cu5_4 I2_6 1_555 1_555
Cu6_3 I1_6 1_555 1_555
S1_6 Cu5_4 1_555 1_555
P1_6 S1_6 1_555 1_555
N1_6 P1_6 1_555 1_555
H1_6 N1_6 1_555 1_555
N7_4 C2_6 1_555 1_555
N4_6 P1_6 1_555 1_555
H2_6 N4_6 1_555 1_555
N5_6 P1_6 1_555 1_555
H3_6 N5_6 1_555 1_555
C2_6 H4_6 1_555 1_555
C3_6 N4_6 1_555 1_555
C5_6 N5_6 1_555 1_555
C6_6 N7_4 1_555 1_555
H6_6 C6_6 1_555 1_555
C8_6 C3_6 1_555 1_555
H8_6 C8_6 1_555 1_555
C10_6 C5_6 1_555 1_555
C11_6 C6_6 1_555 1_555
H11_6 C11_6 1_555 1_555
C14_6 C5_6 1_555 1_555
H14_6 C14_6 1_555 1_555
C15_6 C13_6 1_555 1_555
I2_6 Cu6_3 1_555 1_555
C2_6 C3_6 1_555 1_555
C8_6 C11_6 1_555 1_555
C14_6 C15_6 1_555 1_555
N8 C4_6 1_555 1_555
C4_6 C1_6 1_555 1_555
H5_6 C4_6 1_555 1_555
C7_6 C1_6 1_555 1_555
C9_6 N8 1_555 1_555
H9_6 C9_6 1_555 1_555
C12_6 C7_6 1_555 1_555
H12_5 C12_6 1_555 1_555
C9_6 C12_6 1_555 1_555
N8_4 C4_7 1_555 1_555
C4_7 C1_7 1_555 1_555
H5_7 C4_7 1_555 1_555
C7_7 C1_7 1_555 1_555
C9_7 N8_4 1_555 1_555
H9_7 C9_7 1_555 1_555
C12_7 C7_7 1_555 1_555
C9_7 C12_7 1_555 1_555
N7 C2_7 1_555 1_555
C2_7 H4_7 1_555 1_555
C6_7 N7 1_555 1_555
H6_7 C6_7 1_555 1_555
I1_7 Cu4_4 1_555 1_555
I2_7 Cu4_4 1_555 1_555
Cu4_4 S1_7 1_555 1_555
Cu5 I2_7 1_555 1_555
Cu6_2 I1_7 1_555 1_555
S1_7 Cu5 1_555 1_555
P1_7 S1_7 1_555 1_555
N1_7 P1_7 1_555 1_555
H1_7 N1_7 1_555 1_555
N4_7 P1_7 1_555 1_555
H2_7 N4_7 1_555 1_555
N5_7 P1_7 1_555 1_555
H3_7 N5_7 1_555 1_555
N9_2 C10_7 1_555 1_555
C3_7 N4_7 1_555 1_555
C5_7 N5_7 1_555 1_555
C8_7 C3_7 1_555 1_555
H8_7 C8_7 1_555 1_555
C10_7 C5_7 1_555 1_555
H10_7 C10_7 1_555 1_555
H11_7 C11_7 1_555 1_555
C13_7 N9_2 1_555 1_555
H13_7 C13_7 1_555 1_555
C14_7 C5_7 1_555 1_555
H14_7 C14_7 1_555 1_555
C15_7 C13_7 1_555 1_555
I2_7 Cu6_2 1_555 1_555
C8_7 C11_7 1_555 1_555
C14_7 C15_7 1_555 1_555
I1_8 Cu4_3 1_555 1_555
I2_8 Cu4_3 1_555 1_555
I3_8 Cu5_2 1_555 1_555
Cu4_3 S1_8 1_555 1_555
Cu5_2 I2_8 1_555 1_555
Cu6 I1_8 1_555 1_555
S1_8 Cu5_2 1_555 1_555
P1_8 S1_8 1_555 1_555
N1_8 P1_8 1_555 1_555
H1_8 N1_8 1_555 1_555
N8_3 C4_8 1_555 1_555
N4_8 P1_8 1_555 1_555
H2_8 N4_8 1_555 1_555
N5_8 P1_8 1_555 1_555
H3_8 N5_8 1_555 1_555
C1_8 N1_8 1_555 1_555
C3_8 N4_8 1_555 1_555
C4_8 C1_8 1_555 1_555
H5_8 C4_8 1_555 1_555
C5_8 N5_8 1_555 1_555
C7_8 C1_8 1_555 1_555
H7_8 C7_8 1_555 1_555
C8_8 C3_8 1_555 1_555
H8_8 C8_8 1_555 1_555
C9_8 N8_3 1_555 1_555
H9_8 C9_8 1_555 1_555
C10_8 C5_8 1_555 1_555
H11_8 C11_8 1_555 1_555
C12_8 C7_8 1_555 1_555
C14_8 C5_8 1_555 1_555
H14_8 C14_8 1_555 1_555
C15_8 C13_8 1_555 1_555
H15_8 C15_8 1_555 1_555
I2_8 Cu6 1_555 1_555
I3_8 Cu6 1_555 1_555
C8_8 C11_8 1_555 1_555
C9_8 C12_8 1_555 1_555
C14_8 C15_8 1_555 1_555
N7_2 C2_8 1_555 1_555
C2_8 H4_8 1_555 1_555
C6_8 N7_2 1_555 1_555
H6_8 C6_8 1_555 1_555

#END
