
###############################################################################
#
# This file contains modified crystal structure data generated from the
# MOF subset of the Cambridge Structural Database (CSD) v543 
# hosted by the Cambridge Crystallographic Data Centre (CCDC).
#
# This work is licensed under the Creative Commons
# Attribution-NonCommercial-ShareAlike 4.0 International License.
# To view a copy of this license, visit
# http://creativecommons.org/licenses/by-nc-sa/4.0/
# or send a letter to
# Creative Commons, PO Box 1866, Mountain View, CA 94042, USA.
#
# CIF created using the CSD Python API on 29 September 2022
# The structure has been converted into the P1 space group
# The structure has a 3D framework
# The original CSD entry ILODOF02 is in the orthorhombic crystal system
# The framework has been calculated to contain at least 10.0% void space
# The void calculation uses a probe of radius 1.32A, grid spacing 0.4
#
###############################################################################

data_ILODOF02
_chemical_formula_moiety         '(C120 H120 Cu24 I24 N44 P8 S8)n'
_symmetry_cell_setting           triclinic
_symmetry_space_group_name_H-M   'P 1'
_symmetry_Int_Tables_number      1
_space_group_name_Hall           'P 1'
loop_
_symmetry_equiv_pos_site_id
_symmetry_equiv_pos_as_xyz
1 x,y,z
_cell_length_a                   16.6231(4)
_cell_length_b                   15.8506(4)
_cell_length_c                   21.9202(5)
_cell_angle_alpha                90
_cell_angle_beta                 90
_cell_angle_gamma                90
_cell_volume                     5775.67
loop_
_atom_site_label
_atom_site_type_symbol
_atom_site_fract_x
_atom_site_fract_y
_atom_site_fract_z
I1 I 0.40252(2) 0.43652(2) 0.13839(2)
I2 I 0.26437(2) 0.19138(2) 0.11749(2)
I3 I 0.52092(2) 0.19213(2) 0.18751(2)
Cu1 Cu 0.29214(4) 0.33373(4) 0.18186(3)
Cu2 Cu 0.36875(4) 0.17744(5) 0.20801(3)
Cu3 Cu 0.41394(5) 0.27128(5) 0.11436(3)
P1 P 0.38042(6) 0.37012(6) 0.31776(4)
S1 S 0.31039(6) 0.28320(7) 0.28191(4)
N1 N 0.1624(2) 0.5773(2) 0.26207(16)
N2 N 0.3881(2) 0.3614(2) 0.39234(14)
H1 H 0.368749 0.403270 0.414262
N3 N 0.6841(2) 0.3937(2) 0.33201(15)
C1 C 0.5413(2) 0.4017(2) 0.31933(17)
N4 N 0.47194(19) 0.3697(2) 0.28955(15)
H2 H 0.482441 0.319806 0.276256
N5 N 0.4439(2) 0.2332(2) 0.52360(15)
C2 C 0.4139(3) 0.2935(3) 0.48771(17)
H3 H 0.385241 0.338490 0.506323
N6 N 0.34710(19) 0.4683(2) 0.30883(15)
H4 H 0.371696 0.491468 0.278641
C3 C 0.2396(2) 0.5524(2) 0.26681(18)
H5 H 0.278628 0.578421 0.241306
C4 C 0.2646(2) 0.4909(2) 0.30707(16)
C5 C 0.1085(3) 0.5398(3) 0.2976(2)
H6 H 0.053768 0.556480 0.294350
C6 C 0.6159(2) 0.3672(3) 0.30600(17)
H7 H 0.618706 0.322753 0.277018
C7 C 0.1286(3) 0.4775(3) 0.3390(2)
H8 H 0.088345 0.451541 0.363387
C8 C 0.4224(3) 0.2942(3) 0.42423(17)
C9 C 0.5375(3) 0.4664(3) 0.3620(2)
H9 H 0.487491 0.491947 0.371846
C10 C 0.6789(3) 0.4557(3) 0.3736(2)
H10 H 0.726762 0.474987 0.392719
C11 C 0.6067(3) 0.4926(3) 0.3895(2)
H11 H 0.605243 0.535931 0.419350
C12 C 0.4869(3) 0.1714(3) 0.4972(2)
H12 H 0.510189 0.128979 0.522254
C13 C 0.2083(3) 0.4535(3) 0.3445(2)
H13 H 0.223962 0.412089 0.373499
C14 C 0.4656(3) 0.2283(3) 0.39753(19)
H14 H 0.472321 0.225491 0.354544
C15 C 0.4982(3) 0.1675(3) 0.4350(2)
H15 H 0.528660 0.122674 0.417825
Cu4 Cu 0.79214(4) 0.33373(4) 0.31814(3)
Cu5 Cu 0.13125(4) 0.67744(5) 0.20801(3)
Cu6 Cu 0.41394(5) 0.22872(5) 0.61436(3)
N7 N 0.3376(2) 0.0773(2) 0.26207(16)
N8 N 0.1841(2) 0.3937(2) 0.16799(15)
N9 N 0.4439(2) 0.2668(2) 0.02360(15)
N5_2 N 0.0561(2) 0.7668(2) 0.02360(15)
H3_2 H 0.114759 0.661510 0.006323
Cu6_2 Cu 0.08606(5) 0.77128(5) 0.11436(3)
I1_2 I 0.09748(2) 0.56348(2) 0.63839(2)
I2_2 I 0.23563(2) 0.80862(2) 0.61749(2)
Cu1_2 Cu 0.20786(4) 0.66627(4) 0.68186(3)
Cu2_2 Cu 0.13125(4) 0.82256(5) 0.70801(3)
Cu3_2 Cu 0.08606(5) 0.72872(5) 0.61436(3)
P1_2 P 0.11958(6) 0.62988(6) 0.81776(4)
S1_2 S 0.18961(6) 0.71680(7) 0.78191(4)
N1_2 N 0.3376(2) 0.4227(2) 0.76207(16)
N2_2 N 0.1119(2) 0.6386(2) 0.89234(14)
H1_2 H 0.131251 0.596730 0.914262
N4_2 N 0.02806(19) 0.6303(2) 0.78955(15)
H2_2 H 0.017559 0.680194 0.776256
C2_2 C 0.0861(3) 0.7065(3) 0.98771(17)
N6_2 N 0.15290(19) 0.5317(2) 0.80883(15)
H4_2 H 0.128304 0.508532 0.778641
C3_2 C 0.2604(2) 0.4476(2) 0.76681(18)
H5_2 H 0.221372 0.421579 0.741306
C4_2 C 0.2354(2) 0.5091(2) 0.80707(16)
C5_2 C 0.3915(3) 0.4602(3) 0.7976(2)
H6_2 H 0.446232 0.443520 0.794350
C7_2 C 0.3714(3) 0.5225(3) 0.8390(2)
H8_2 H 0.411655 0.548459 0.863387
C8_2 C 0.0776(3) 0.7058(3) 0.92423(17)
H9_2 H 0.012509 0.508053 0.871846
C12_2 C 0.0131(3) 0.8286(3) 0.9972(2)
C13_2 C 0.2917(3) 0.5465(3) 0.8445(2)
H13_2 H 0.276038 0.587911 0.873499
C14_2 C 0.0344(3) 0.7717(3) 0.89753(19)
H14_2 H 0.027679 0.774509 0.854544
C15_2 C 0.0018(3) 0.8325(3) 0.9350(2)
Cu5_2 Cu 0.36875(4) 0.32256(5) 0.70801(3)
N7_2 N 0.1624(2) 0.9227(2) 0.76207(16)
N8_2 N 0.3159(2) 0.6063(2) 0.66799(15)
N9_2 N 0.0561(2) 0.7332(2) 0.52360(15)
I3_2 I 0.97908(2) 0.80787(2) 0.68751(2)
N3_2 N 0.8159(2) 0.6063(2) 0.83201(15)
C1_2 C 0.9587(2) 0.5983(2) 0.81933(17)
C6_2 C 0.8841(2) 0.6328(3) 0.80600(17)
H7_2 H 0.881294 0.677247 0.777018
C9_2 C 0.9625(3) 0.5336(3) 0.8620(2)
C10_2 C 0.8211(3) 0.5443(3) 0.8736(2)
H10_2 H 0.773238 0.525013 0.892719
C11_2 C 0.8933(3) 0.5074(3) 0.8895(2)
H11_2 H 0.894757 0.464069 0.919350
H15_2 H 0.971340 0.877326 0.917825
Cu4_2 Cu 0.70786(4) 0.66627(4) 0.81814(3)
I3_3 I 0.02092(2) 0.30787(2) 0.81249(2)
N3_3 N 0.1841(2) 0.1063(2) 0.66799(15)
C1_3 C 0.0413(2) 0.0983(2) 0.68067(17)
C6_3 C 0.1159(2) 0.1328(3) 0.69400(17)
H7_3 H 0.118706 0.177247 0.722982
C9_3 C 0.0375(3) 0.0336(3) 0.6380(2)
C10_3 C 0.1789(3) 0.0443(3) 0.6264(2)
H10_3 H 0.226762 0.025013 0.607281
C11_3 C 0.1067(3) 0.0074(3) 0.6105(2)
H12_2 H 0.010189 0.371021 0.477746
H15_3 H 0.028660 0.377326 0.582175
Cu4_3 Cu 0.29214(4) 0.16627(4) 0.68186(3)
I1_3 I 0.90252(2) 0.06348(2) 0.86161(2)
I2_3 I 0.76437(2) 0.30862(2) 0.88251(2)
Cu1_3 Cu 0.79214(4) 0.16627(4) 0.81814(3)
Cu2_3 Cu 0.86875(4) 0.32256(5) 0.79199(3)
Cu3_3 Cu 0.91394(5) 0.22872(5) 0.88564(3)
P1_3 P 0.88042(6) 0.12988(6) 0.68224(4)
S1_3 S 0.81039(6) 0.21680(7) 0.71809(4)
N2_3 N 0.8881(2) 0.1386(2) 0.60766(14)
H1_3 H 0.868749 0.096730 0.585738
N4_3 N 0.97194(19) 0.1303(2) 0.71045(15)
H2_3 H 0.982441 0.180194 0.723744
N5_3 N 0.9439(2) 0.2668(2) 0.47640(15)
C2_3 C 0.9139(3) 0.2065(3) 0.51229(17)
H3_3 H 0.885241 0.161510 0.493677
N6_3 N 0.84710(19) 0.0317(2) 0.69117(15)
H4_3 H 0.871696 0.008532 0.721359
C4_3 C 0.7646(2) 0.0091(2) 0.69293(16)
C7_3 C 0.6286(3) 0.0225(3) 0.6610(2)
H8_3 H 0.588345 0.048459 0.636613
C8_3 C 0.9224(3) 0.2058(3) 0.57577(17)
H9_3 H 0.987491 0.008053 0.628154
C12_3 C 0.9869(3) 0.3286(3) 0.5028(2)
C13_3 C 0.7083(3) 0.0465(3) 0.6555(2)
H13_3 H 0.723962 0.087911 0.626501
C14_3 C 0.9656(3) 0.2717(3) 0.60247(19)
H14_3 H 0.972321 0.274509 0.645456
C15_3 C 0.9982(3) 0.3325(3) 0.5650(2)
Cu6_3 Cu 0.91394(5) 0.27128(5) 0.38564(3)
N7_3 N 0.8376(2) 0.4227(2) 0.73793(16)
N8_3 N 0.6841(2) 0.1063(2) 0.83201(15)
N9_3 N 0.9439(2) 0.2332(2) 0.97640(15)
N1_3 N 0.6624(2) 0.9227(2) 0.73793(16)
C3_3 C 0.7396(2) 0.9476(2) 0.73319(18)
H5_3 H 0.778628 0.921579 0.758694
C5_3 C 0.6085(3) 0.9602(3) 0.7024(2)
H6_3 H 0.553768 0.943520 0.705650
Cu5_3 Cu 0.63125(4) 0.82256(5) 0.79199(3)
N1_4 N 0.8376(2) 0.0773(2) 0.23793(16)
C3_4 C 0.7604(2) 0.0524(2) 0.23319(18)
H5_4 H 0.721372 0.078421 0.258694
C5_4 C 0.8915(3) 0.0398(3) 0.2024(2)
H6_4 H 0.946232 0.056480 0.205650
H11_3 H 0.394757 0.035931 0.080650
Cu5_4 Cu 0.86875(4) 0.17744(5) 0.29199(3)
I1_4 I 0.59748(2) 0.93652(2) 0.36161(2)
I2_4 I 0.73563(2) 0.69138(2) 0.38251(2)
I3_4 I 0.47908(2) 0.69213(2) 0.31249(2)
Cu1_4 Cu 0.70786(4) 0.83373(4) 0.31814(3)
Cu2_4 Cu 0.63125(4) 0.67744(5) 0.29199(3)
Cu3_4 Cu 0.58606(5) 0.77128(5) 0.38564(3)
P1_4 P 0.61958(6) 0.87012(6) 0.18224(4)
S1_4 S 0.68961(6) 0.78320(7) 0.21809(4)
N2_4 N 0.6119(2) 0.8614(2) 0.10766(14)
H1_4 H 0.631251 0.903270 0.085738
N3_4 N 0.3159(2) 0.8937(2) 0.16799(15)
C1_4 C 0.4587(2) 0.9017(2) 0.18067(17)
N4_4 N 0.52806(19) 0.8697(2) 0.21045(15)
H2_4 H 0.517559 0.819806 0.223744
C2_4 C 0.5861(3) 0.7935(3) 0.01229(17)
N6_4 N 0.65290(19) 0.9683(2) 0.19117(15)
H4_4 H 0.628304 0.991468 0.221359
C4_4 C 0.7354(2) 0.9909(2) 0.19293(16)
C6_4 C 0.3841(2) 0.8672(3) 0.19400(17)
H7_4 H 0.381294 0.822753 0.222982
C7_4 C 0.8714(3) 0.9775(3) 0.1610(2)
H8_4 H 0.911655 0.951541 0.136613
C8_4 C 0.5776(3) 0.7942(3) 0.07577(17)
C9_4 C 0.4625(3) 0.9664(3) 0.1380(2)
H9_4 H 0.512509 0.991947 0.128154
C10_4 C 0.3211(3) 0.9557(3) 0.1264(2)
H10_4 H 0.273238 0.974987 0.107281
C11_4 C 0.3933(3) 0.9926(3) 0.1105(2)
C12_4 C 0.5131(3) 0.6714(3) 0.0028(2)
C13_4 C 0.7917(3) 0.9535(3) 0.1555(2)
H13_4 H 0.776038 0.912089 0.126501
C14_4 C 0.5344(3) 0.7283(3) 0.10247(19)
H14_4 H 0.527679 0.725491 0.145456
C15_4 C 0.5018(3) 0.6675(3) 0.0650(2)
H15_4 H 0.471340 0.622674 0.082175
Cu4_4 Cu 0.20786(4) 0.83373(4) 0.18186(3)
N7_4 N 0.6624(2) 0.5773(2) 0.23793(16)
N8_4 N 0.8159(2) 0.8937(2) 0.33201(15)
N9_4 N 0.5561(2) 0.7668(2) 0.47640(15)
N5_4 N 0.5561(2) 0.7332(2) 0.97640(15)
H3_4 H 0.614759 0.838490 0.993677
H12_3 H 0.489811 0.628979 0.977746
Cu6_4 Cu 0.58606(5) 0.72872(5) 0.88564(3)
I1_5 I 0.59748(2) 0.56348(2) 0.86161(2)
I2_5 I 0.73563(2) 0.80862(2) 0.88251(2)
I3_5 I 0.47908(2) 0.80787(2) 0.81249(2)
P1_5 P 0.61958(6) 0.62988(6) 0.68224(4)
S1_5 S 0.68961(6) 0.71680(7) 0.71809(4)
N2_5 N 0.6119(2) 0.6386(2) 0.60766(14)
H1_5 H 0.631251 0.596730 0.585738
C1_5 C 0.4587(2) 0.5983(2) 0.68067(17)
N4_5 N 0.52806(19) 0.6303(2) 0.71045(15)
H2_5 H 0.517559 0.680194 0.723744
C2_5 C 0.5861(3) 0.7065(3) 0.51229(17)
H3_5 H 0.614759 0.661510 0.493677
N6_5 N 0.65290(19) 0.5317(2) 0.69117(15)
H4_5 H 0.628304 0.508532 0.721359
C3_5 C 0.7604(2) 0.4476(2) 0.73319(18)
H5_5 H 0.721372 0.421579 0.758694
C4_5 C 0.7354(2) 0.5091(2) 0.69293(16)
C5_5 C 0.8915(3) 0.4602(3) 0.7024(2)
H6_5 H 0.946232 0.443520 0.705650
C6_5 C 0.3841(2) 0.6328(3) 0.69400(17)
H7_5 H 0.381294 0.677247 0.722982
C7_5 C 0.8714(3) 0.5225(3) 0.6610(2)
H8_5 H 0.911655 0.548459 0.636613
C8_5 C 0.5776(3) 0.7058(3) 0.57577(17)
C9_5 C 0.4625(3) 0.5336(3) 0.6380(2)
H9_5 H 0.512509 0.508053 0.628154
C10_5 C 0.3211(3) 0.5443(3) 0.6264(2)
H10_5 H 0.273238 0.525013 0.607281
C11_5 C 0.3933(3) 0.5074(3) 0.6105(2)
H11_4 H 0.394757 0.464069 0.580650
C12_5 C 0.5131(3) 0.8286(3) 0.5028(2)
H12_4 H 0.489811 0.871021 0.477746
C13_5 C 0.7917(3) 0.5465(3) 0.6555(2)
H13_5 H 0.776038 0.587911 0.626501
C14_5 C 0.5344(3) 0.7717(3) 0.60247(19)
H14_5 H 0.527679 0.774509 0.645456
C15_5 C 0.5018(3) 0.8325(3) 0.5650(2)
H15_5 H 0.471340 0.877326 0.582175
I3_6 I 0.02092(2) 0.19213(2) 0.31249(2)
C1_6 C 0.0413(2) 0.4017(2) 0.18067(17)
C6_6 C 0.1159(2) 0.3672(3) 0.19400(17)
H7_6 H 0.118706 0.322753 0.222982
C9_6 C 0.0375(3) 0.4664(3) 0.1380(2)
C10_6 C 0.1789(3) 0.4557(3) 0.1264(2)
H10_6 H 0.226762 0.474987 0.107281
C11_6 C 0.1067(3) 0.4926(3) 0.1105(2)
H11_5 H 0.105243 0.535931 0.080650
H15_6 H 0.028660 0.122674 0.082175
I1_6 I 0.90252(2) 0.43652(2) 0.36161(2)
I2_6 I 0.76437(2) 0.19138(2) 0.38251(2)
P1_6 P 0.88042(6) 0.37012(6) 0.18224(4)
S1_6 S 0.81039(6) 0.28320(7) 0.21809(4)
N2_6 N 0.8881(2) 0.3614(2) 0.10766(14)
H1_6 H 0.868749 0.403270 0.085738
N4_6 N 0.97194(19) 0.3697(2) 0.21045(15)
H2_6 H 0.982441 0.319806 0.223744
C2_6 C 0.9139(3) 0.2935(3) 0.01229(17)
N6_6 N 0.84710(19) 0.4683(2) 0.19117(15)
H4_6 H 0.871696 0.491468 0.221359
C3_6 C 0.7396(2) 0.5524(2) 0.23319(18)
H5_6 H 0.778628 0.578421 0.258694
C4_6 C 0.7646(2) 0.4909(2) 0.19293(16)
C5_6 C 0.6085(3) 0.5398(3) 0.2024(2)
H6_6 H 0.553768 0.556480 0.205650
C7_6 C 0.6286(3) 0.4775(3) 0.1610(2)
H8_6 H 0.588345 0.451541 0.136613
C8_6 C 0.9224(3) 0.2942(3) 0.07577(17)
H9_6 H 0.987491 0.491947 0.128154
C12_6 C 0.9869(3) 0.1714(3) 0.0028(2)
C13_6 C 0.7083(3) 0.4535(3) 0.1555(2)
H13_6 H 0.723962 0.412089 0.126501
C14_6 C 0.9656(3) 0.2283(3) 0.10247(19)
H14_6 H 0.972321 0.225491 0.145456
C15_6 C 0.9982(3) 0.1675(3) 0.0650(2)
H3_6 H 0.885241 0.338490 0.993677
C3_7 C 0.2604(2) 0.0524(2) 0.26681(18)
H5_7 H 0.221372 0.078421 0.241306
C5_7 C 0.3915(3) 0.0398(3) 0.2976(2)
H6_7 H 0.446232 0.056480 0.294350
I1_7 I 0.09748(2) 0.93652(2) 0.13839(2)
I2_7 I 0.23563(2) 0.69138(2) 0.11749(2)
P1_7 P 0.11958(6) 0.87012(6) 0.31776(4)
S1_7 S 0.18961(6) 0.78320(7) 0.28191(4)
N2_7 N 0.1119(2) 0.8614(2) 0.39234(14)
H1_7 H 0.131251 0.903270 0.414262
N4_7 N 0.02806(19) 0.8697(2) 0.28955(15)
H2_7 H 0.017559 0.819806 0.276256
C2_7 C 0.0861(3) 0.7935(3) 0.48771(17)
H3_7 H 0.114759 0.838490 0.506323
N6_7 N 0.15290(19) 0.9683(2) 0.30883(15)
H4_7 H 0.128304 0.991468 0.278641
C4_7 C 0.2354(2) 0.9909(2) 0.30707(16)
C7_7 C 0.3714(3) 0.9775(3) 0.3390(2)
H8_7 H 0.411655 0.951541 0.363387
C8_7 C 0.0776(3) 0.7942(3) 0.42423(17)
H9_7 H 0.012509 0.991947 0.371846
C12_7 C 0.0131(3) 0.6714(3) 0.4972(2)
C13_7 C 0.2917(3) 0.9535(3) 0.3445(2)
H13_7 H 0.276038 0.912089 0.373499
C14_7 C 0.0344(3) 0.7283(3) 0.39753(19)
H14_7 H 0.027679 0.725491 0.354544
C15_7 C 0.0018(3) 0.6675(3) 0.4350(2)
I3_7 I 0.97908(2) 0.69213(2) 0.18751(2)
C1_7 C 0.9587(2) 0.9017(2) 0.31933(17)
C6_7 C 0.8841(2) 0.8672(3) 0.30600(17)
H7_7 H 0.881294 0.822753 0.277018
C9_7 C 0.9625(3) 0.9664(3) 0.3620(2)
C10_7 C 0.8211(3) 0.9557(3) 0.3736(2)
H10_7 H 0.773238 0.974987 0.392719
C11_7 C 0.8933(3) 0.9926(3) 0.3895(2)
H12_5 H 0.989811 0.628979 0.522254
H15_7 H 0.971340 0.622674 0.417825
H3_8 H 0.385241 0.161510 0.006323
H12_6 H 0.510189 0.371021 0.022254
I1_8 I 0.40252(2) 0.06348(2) 0.63839(2)
I2_8 I 0.26437(2) 0.30862(2) 0.61749(2)
I3_8 I 0.52092(2) 0.30787(2) 0.68751(2)
P1_8 P 0.38042(6) 0.12988(6) 0.81776(4)
S1_8 S 0.31039(6) 0.21680(7) 0.78191(4)
N2_8 N 0.3881(2) 0.1386(2) 0.89234(14)
H1_8 H 0.368749 0.096730 0.914262
C1_8 C 0.5413(2) 0.0983(2) 0.81933(17)
N4_8 N 0.47194(19) 0.1303(2) 0.78955(15)
H2_8 H 0.482441 0.180194 0.776256
C2_8 C 0.4139(3) 0.2065(3) 0.98771(17)
N6_8 N 0.34710(19) 0.0317(2) 0.80883(15)
H4_8 H 0.371696 0.008532 0.778641
C4_8 C 0.2646(2) 0.0091(2) 0.80707(16)
C6_8 C 0.6159(2) 0.1328(3) 0.80600(17)
H7_8 H 0.618706 0.177247 0.777018
C7_8 C 0.1286(3) 0.0225(3) 0.8390(2)
H8_8 H 0.088345 0.048459 0.863387
C8_8 C 0.4224(3) 0.2058(3) 0.92423(17)
C9_8 C 0.5375(3) 0.0336(3) 0.8620(2)
H9_8 H 0.487491 0.008053 0.871846
C10_8 C 0.6789(3) 0.0443(3) 0.8736(2)
H10_8 H 0.726762 0.025013 0.892719
C11_8 C 0.6067(3) 0.0074(3) 0.8895(2)
C12_8 C 0.4869(3) 0.3286(3) 0.9972(2)
C13_8 C 0.2083(3) 0.0465(3) 0.8445(2)
H13_8 H 0.223962 0.087911 0.873499
C14_8 C 0.4656(3) 0.2717(3) 0.89753(19)
H14_8 H 0.472321 0.274509 0.854544
C15_8 C 0.4982(3) 0.3325(3) 0.9350(2)
H15_8 H 0.528660 0.377326 0.917825
C3_8 C 0.2396(2) 0.9476(2) 0.76681(18)
H5_8 H 0.278628 0.921579 0.741306
C5_8 C 0.1085(3) 0.9602(3) 0.7976(2)
H6_8 H 0.053768 0.943520 0.794350
H11_6 H 0.605243 0.964069 0.919350
H12_7 H 0.989811 0.871021 0.022254
H11_7 H 0.105243 0.964069 0.580650
H12_8 H 0.010189 0.128979 0.977746
H11_8 H 0.894757 0.035931 0.419350
loop_
_geom_bond_atom_site_label_1
_geom_bond_atom_site_label_2
_geom_bond_site_symmetry_1
_geom_bond_site_symmetry_2
I1 Cu1 1_555 1_555
I2 Cu1 1_555 1_555
I3 Cu2 1_555 1_555
Cu1 S1 1_555 1_555
Cu2 I2 1_555 1_555
Cu3 I1 1_555 1_555
P1 S1 1_555 1_555
S1 Cu2 1_555 1_555
N1 C3 1_555 1_555
N2 P1 1_555 1_555
H1 N2 1_555 1_555
N3 C6 1_555 1_555
C1 N4 1_555 1_555
N4 P1 1_555 1_555
H2 N4 1_555 1_555
N5 C2 1_555 1_555
C2 H3 1_555 1_555
N6 P1 1_555 1_555
H4 N6 1_555 1_555
C3 H5 1_555 1_555
C4 N6 1_555 1_555
C5 N1 1_555 1_555
H6 C5 1_555 1_555
C6 C1 1_555 1_555
H7 C6 1_555 1_555
C7 C5 1_555 1_555
H8 C7 1_555 1_555
C8 N2 1_555 1_555
C9 C1 1_555 1_555
H9 C9 1_555 1_555
C10 N3 1_555 1_555
H10 C10 1_555 1_555
C11 C9 1_555 1_555
H11 C11 1_555 1_555
C12 N5 1_555 1_555
H12 C12 1_555 1_555
C13 C4 1_555 1_555
H13 C13 1_555 1_555
C14 C8 1_555 1_555
H14 C14 1_555 1_555
C15 C12 1_555 1_555
H15 C15 1_555 1_555
Cu4 N3 1_555 1_555
Cu5 N1 1_555 1_555
Cu6 N5 1_555 1_555
N7 Cu2 1_555 1_555
N8 Cu1 1_555 1_555
N9 Cu3 1_555 1_555
I2 Cu3 1_555 1_555
I3 Cu3 1_555 1_555
C2 C8 1_555 1_555
C3 C4 1_555 1_555
C7 C13 1_555 1_555
C10 C11 1_555 1_555
C14 C15 1_555 1_555
Cu6_2 N5_2 1_555 1_555
I1_2 Cu1_2 1_555 1_555
I2_2 Cu1_2 1_555 1_555
Cu1_2 S1_2 1_555 1_555
Cu2_2 I2_2 1_555 1_555
Cu3_2 I1_2 1_555 1_555
P1_2 S1_2 1_555 1_555
S1_2 Cu2_2 1_555 1_555
N1_2 C3_2 1_555 1_555
N2_2 P1_2 1_555 1_555
H1_2 N2_2 1_555 1_555
N4_2 P1_2 1_555 1_555
H2_2 N4_2 1_555 1_555
N6_2 P1_2 1_555 1_555
H4_2 N6_2 1_555 1_555
C3_2 H5_2 1_555 1_555
C4_2 N6_2 1_555 1_555
C5_2 N1_2 1_555 1_555
H6_2 C5_2 1_555 1_555
C7_2 C5_2 1_555 1_555
H8_2 C7_2 1_555 1_555
C8_2 N2_2 1_555 1_555
C13_2 C4_2 1_555 1_555
H13_2 C13_2 1_555 1_555
C14_2 C8_2 1_555 1_555
H14_2 C14_2 1_555 1_555
C15_2 C12_2 1_555 1_555
Cu5_2 N1_2 1_555 1_555
N7_2 Cu2_2 1_555 1_555
N8_2 Cu1_2 1_555 1_555
N9_2 Cu3_2 1_555 1_555
I2_2 Cu3_2 1_555 1_555
C2_2 C8_2 1_555 1_555
C3_2 C4_2 1_555 1_555
C7_2 C13_2 1_555 1_555
C14_2 C15_2 1_555 1_555
N3_2 C6_2 1_555 1_555
C6_2 C1_2 1_555 1_555
H7_2 C6_2 1_555 1_555
C9_2 C1_2 1_555 1_555
C10_2 N3_2 1_555 1_555
H10_2 C10_2 1_555 1_555
C11_2 C9_2 1_555 1_555
H11_2 C11_2 1_555 1_555
Cu4_2 N3_2 1_555 1_555
C10_2 C11_2 1_555 1_555
N3_3 C6_3 1_555 1_555
C6_3 C1_3 1_555 1_555
H7_3 C6_3 1_555 1_555
C9_3 C1_3 1_555 1_555
C10_3 N3_3 1_555 1_555
H10_3 C10_3 1_555 1_555
C11_3 C9_3 1_555 1_555
Cu4_3 N3_3 1_555 1_555
C10_3 C11_3 1_555 1_555
I1_3 Cu1_3 1_555 1_555
I2_3 Cu1_3 1_555 1_555
Cu1_3 S1_3 1_555 1_555
Cu2_3 I2_3 1_555 1_555
Cu3_3 I1_3 1_555 1_555
P1_3 S1_3 1_555 1_555
S1_3 Cu2_3 1_555 1_555
N2_3 P1_3 1_555 1_555
H1_3 N2_3 1_555 1_555
N4_3 P1_3 1_555 1_555
H2_3 N4_3 1_555 1_555
N5_3 C2_3 1_555 1_555
C2_3 H3_3 1_555 1_555
N6_3 P1_3 1_555 1_555
H4_3 N6_3 1_555 1_555
C4_3 N6_3 1_555 1_555
H8_3 C7_3 1_555 1_555
C8_3 N2_3 1_555 1_555
C12_3 N5_3 1_555 1_555
C13_3 C4_3 1_555 1_555
H13_3 C13_3 1_555 1_555
C14_3 C8_3 1_555 1_555
H14_3 C14_3 1_555 1_555
C15_3 C12_3 1_555 1_555
Cu6_3 N5_3 1_555 1_555
N7_3 Cu2_3 1_555 1_555
N8_3 Cu1_3 1_555 1_555
N9_3 Cu3_3 1_555 1_555
I2_3 Cu3_3 1_555 1_555
C2_3 C8_3 1_555 1_555
C7_3 C13_3 1_555 1_555
C14_3 C15_3 1_555 1_555
N1_3 C3_3 1_555 1_555
C3_3 H5_3 1_555 1_555
C5_3 N1_3 1_555 1_555
H6_3 C5_3 1_555 1_555
Cu5_3 N1_3 1_555 1_555
N1_4 C3_4 1_555 1_555
C3_4 H5_4 1_555 1_555
C5_4 N1_4 1_555 1_555
H6_4 C5_4 1_555 1_555
Cu5_4 N1_4 1_555 1_555
I1_4 Cu1_4 1_555 1_555
I2_4 Cu1_4 1_555 1_555
I3_4 Cu2_4 1_555 1_555
Cu1_4 S1_4 1_555 1_555
Cu2_4 I2_4 1_555 1_555
Cu3_4 I1_4 1_555 1_555
P1_4 S1_4 1_555 1_555
S1_4 Cu2_4 1_555 1_555
N2_4 P1_4 1_555 1_555
H1_4 N2_4 1_555 1_555
N3_4 C6_4 1_555 1_555
C1_4 N4_4 1_555 1_555
N4_4 P1_4 1_555 1_555
H2_4 N4_4 1_555 1_555
N6_4 P1_4 1_555 1_555
H4_4 N6_4 1_555 1_555
C4_4 N6_4 1_555 1_555
C6_4 C1_4 1_555 1_555
H7_4 C6_4 1_555 1_555
H8_4 C7_4 1_555 1_555
C8_4 N2_4 1_555 1_555
C9_4 C1_4 1_555 1_555
H9_4 C9_4 1_555 1_555
C10_4 N3_4 1_555 1_555
H10_4 C10_4 1_555 1_555
C11_4 C9_4 1_555 1_555
C13_4 C4_4 1_555 1_555
H13_4 C13_4 1_555 1_555
C14_4 C8_4 1_555 1_555
H14_4 C14_4 1_555 1_555
C15_4 C12_4 1_555 1_555
H15_4 C15_4 1_555 1_555
Cu4_4 N3_4 1_555 1_555
N7_4 Cu2_4 1_555 1_555
N8_4 Cu1_4 1_555 1_555
N9_4 Cu3_4 1_555 1_555
I2_4 Cu3_4 1_555 1_555
I3_4 Cu3_4 1_555 1_555
C2_4 C8_4 1_555 1_555
C7_4 C13_4 1_555 1_555
C10_4 C11_4 1_555 1_555
C14_4 C15_4 1_555 1_555
Cu6_4 N5_4 1_555 1_555
I1_5 Cu4_2 1_555 1_555
I2_5 Cu4_2 1_555 1_555
I3_5 Cu5_3 1_555 1_555
Cu4_2 S1_5 1_555 1_555
Cu5_3 I2_5 1_555 1_555
Cu6_4 I1_5 1_555 1_555
P1_5 S1_5 1_555 1_555
S1_5 Cu5_3 1_555 1_555
N7_3 C3_5 1_555 1_555
N2_5 P1_5 1_555 1_555
H1_5 N2_5 1_555 1_555
N8_2 C6_5 1_555 1_555
C1_5 N4_5 1_555 1_555
N4_5 P1_5 1_555 1_555
H2_5 N4_5 1_555 1_555
N9_4 C2_5 1_555 1_555
C2_5 H3_5 1_555 1_555
N6_5 P1_5 1_555 1_555
H4_5 N6_5 1_555 1_555
C3_5 H5_5 1_555 1_555
C4_5 N6_5 1_555 1_555
C5_5 N7_3 1_555 1_555
H6_5 C5_5 1_555 1_555
C6_5 C1_5 1_555 1_555
H7_5 C6_5 1_555 1_555
C7_5 C5_5 1_555 1_555
H8_5 C7_5 1_555 1_555
C8_5 N2_5 1_555 1_555
C9_5 C1_5 1_555 1_555
H9_5 C9_5 1_555 1_555
C10_5 N8_2 1_555 1_555
H10_5 C10_5 1_555 1_555
C11_5 C9_5 1_555 1_555
H11_4 C11_5 1_555 1_555
C12_5 N9_4 1_555 1_555
H12_4 C12_5 1_555 1_555
C13_5 C4_5 1_555 1_555
H13_5 C13_5 1_555 1_555
C14_5 C8_5 1_555 1_555
H14_5 C14_5 1_555 1_555
C15_5 C12_5 1_555 1_555
H15_5 C15_5 1_555 1_555
I2_5 Cu6_4 1_555 1_555
I3_5 Cu6_4 1_555 1_555
C2_5 C8_5 1_555 1_555
C3_5 C4_5 1_555 1_555
C7_5 C13_5 1_555 1_555
C10_5 C11_5 1_555 1_555
C14_5 C15_5 1_555 1_555
N8 C6_6 1_555 1_555
C6_6 C1_6 1_555 1_555
H7_6 C6_6 1_555 1_555
C9_6 C1_6 1_555 1_555
C10_6 N8 1_555 1_555
H10_6 C10_6 1_555 1_555
C11_6 C9_6 1_555 1_555
H11_5 C11_6 1_555 1_555
C10_6 C11_6 1_555 1_555
I1_6 Cu4 1_555 1_555
I2_6 Cu4 1_555 1_555
Cu4 S1_6 1_555 1_555
Cu5_4 I2_6 1_555 1_555
Cu6_3 I1_6 1_555 1_555
P1_6 S1_6 1_555 1_555
S1_6 Cu5_4 1_555 1_555
N7_4 C3_6 1_555 1_555
N2_6 P1_6 1_555 1_555
H1_6 N2_6 1_555 1_555
N4_6 P1_6 1_555 1_555
H2_6 N4_6 1_555 1_555
N6_6 P1_6 1_555 1_555
H4_6 N6_6 1_555 1_555
C3_6 H5_6 1_555 1_555
C4_6 N6_6 1_555 1_555
C5_6 N7_4 1_555 1_555
H6_6 C5_6 1_555 1_555
C7_6 C5_6 1_555 1_555
H8_6 C7_6 1_555 1_555
C8_6 N2_6 1_555 1_555
C13_6 C4_6 1_555 1_555
H13_6 C13_6 1_555 1_555
C14_6 C8_6 1_555 1_555
H14_6 C14_6 1_555 1_555
C15_6 C12_6 1_555 1_555
I2_6 Cu6_3 1_555 1_555
C2_6 C8_6 1_555 1_555
C3_6 C4_6 1_555 1_555
C7_6 C13_6 1_555 1_555
C14_6 C15_6 1_555 1_555
N7 C3_7 1_555 1_555
C3_7 H5_7 1_555 1_555
C5_7 N7 1_555 1_555
H6_7 C5_7 1_555 1_555
I1_7 Cu4_4 1_555 1_555
I2_7 Cu4_4 1_555 1_555
Cu4_4 S1_7 1_555 1_555
Cu5 I2_7 1_555 1_555
Cu6_2 I1_7 1_555 1_555
P1_7 S1_7 1_555 1_555
S1_7 Cu5 1_555 1_555
N2_7 P1_7 1_555 1_555
H1_7 N2_7 1_555 1_555
N4_7 P1_7 1_555 1_555
H2_7 N4_7 1_555 1_555
N9_2 C2_7 1_555 1_555
C2_7 H3_7 1_555 1_555
N6_7 P1_7 1_555 1_555
H4_7 N6_7 1_555 1_555
C4_7 N6_7 1_555 1_555
H8_7 C7_7 1_555 1_555
C8_7 N2_7 1_555 1_555
C12_7 N9_2 1_555 1_555
C13_7 C4_7 1_555 1_555
H13_7 C13_7 1_555 1_555
C14_7 C8_7 1_555 1_555
H14_7 C14_7 1_555 1_555
C15_7 C12_7 1_555 1_555
I2_7 Cu6_2 1_555 1_555
C2_7 C8_7 1_555 1_555
C7_7 C13_7 1_555 1_555
C14_7 C15_7 1_555 1_555
N8_4 C6_7 1_555 1_555
C6_7 C1_7 1_555 1_555
H7_7 C6_7 1_555 1_555
C9_7 C1_7 1_555 1_555
C10_7 N8_4 1_555 1_555
H10_7 C10_7 1_555 1_555
C11_7 C9_7 1_555 1_555
C10_7 C11_7 1_555 1_555
I1_8 Cu4_3 1_555 1_555
I2_8 Cu4_3 1_555 1_555
I3_8 Cu5_2 1_555 1_555
Cu4_3 S1_8 1_555 1_555
Cu5_2 I2_8 1_555 1_555
Cu6 I1_8 1_555 1_555
P1_8 S1_8 1_555 1_555
S1_8 Cu5_2 1_555 1_555
N2_8 P1_8 1_555 1_555
H1_8 N2_8 1_555 1_555
N8_3 C6_8 1_555 1_555
C1_8 N4_8 1_555 1_555
N4_8 P1_8 1_555 1_555
H2_8 N4_8 1_555 1_555
N6_8 P1_8 1_555 1_555
H4_8 N6_8 1_555 1_555
C4_8 N6_8 1_555 1_555
C6_8 C1_8 1_555 1_555
H7_8 C6_8 1_555 1_555
H8_8 C7_8 1_555 1_555
C8_8 N2_8 1_555 1_555
C9_8 C1_8 1_555 1_555
H9_8 C9_8 1_555 1_555
C10_8 N8_3 1_555 1_555
H10_8 C10_8 1_555 1_555
C11_8 C9_8 1_555 1_555
C13_8 C4_8 1_555 1_555
H13_8 C13_8 1_555 1_555
C14_8 C8_8 1_555 1_555
H14_8 C14_8 1_555 1_555
C15_8 C12_8 1_555 1_555
H15_8 C15_8 1_555 1_555
I2_8 Cu6 1_555 1_555
I3_8 Cu6 1_555 1_555
C2_8 C8_8 1_555 1_555
C7_8 C13_8 1_555 1_555
C10_8 C11_8 1_555 1_555
C14_8 C15_8 1_555 1_555
N7_2 C3_8 1_555 1_555
C3_8 H5_8 1_555 1_555
C5_8 N7_2 1_555 1_555
H6_8 C5_8 1_555 1_555

#END
