
###############################################################################
#
# This file contains modified crystal structure data generated from the
# MOF subset of the Cambridge Structural Database (CSD) v543 
# hosted by the Cambridge Crystallographic Data Centre (CCDC).
#
# This work is licensed under the Creative Commons
# Attribution-NonCommercial-ShareAlike 4.0 International License.
# To view a copy of this license, visit
# http://creativecommons.org/licenses/by-nc-sa/4.0/
# or send a letter to
# Creative Commons, PO Box 1866, Mountain View, CA 94042, USA.
#
# CIF created using the CSD Python API on 29 September 2022
# The structure has been converted into the P1 space group
# The structure has a 3D framework
# The original CSD entry ILODOF01 is in the orthorhombic crystal system
# The framework has been calculated to contain at least 10.0% void space
# The void calculation uses a probe of radius 1.32A, grid spacing 0.4
#
###############################################################################

data_ILODOF01
_chemical_formula_moiety         '(C120 H120 Cu24 I24 N44 P8 S8)n'
_symmetry_cell_setting           triclinic
_symmetry_space_group_name_H-M   'P 1'
_symmetry_Int_Tables_number      1
_space_group_name_Hall           'P 1'
loop_
_symmetry_equiv_pos_site_id
_symmetry_equiv_pos_as_xyz
1 x,y,z
_cell_length_a                   16.5966(3)
_cell_length_b                   15.7587(3)
_cell_length_c                   21.8393(4)
_cell_angle_alpha                90
_cell_angle_beta                 90
_cell_angle_gamma                90
_cell_volume                     5711.87
loop_
_atom_site_label
_atom_site_type_symbol
_atom_site_fract_x
_atom_site_fract_y
_atom_site_fract_z
I1 I 0.40478(2) 0.56234(2) 0.13790(2)
I2 I 0.26554(2) 0.80734(2) 0.11636(2)
I3 I 0.52209(2) 0.80818(2) 0.18835(2)
Cu1 Cu 0.29457(4) 0.66557(4) 0.18173(3)
Cu2 Cu 0.41603(5) 0.72863(4) 0.11466(3)
Cu3 Cu 0.36906(4) 0.82116(4) 0.20766(3)
S1 S 0.31202(7) 0.71582(6) 0.28192(4)
P1 P 0.38249(6) 0.62821(6) 0.31749(4)
N1 N 0.6865(2) 0.6052(2) 0.33242(16)
N2 N 0.4742(2) 0.6288(2) 0.28901(16)
H1 H 0.484557 0.678667 0.275037
N3 N 0.1630(2) 0.4221(2) 0.26147(16)
N4 N 0.4471(3) 0.7656(2) 0.52395(16)
N5 N 0.3492(2) 0.5293(2) 0.30859(16)
H2 H 0.373629 0.506336 0.278072
N6 N 0.3907(2) 0.6368(2) 0.39226(16)
H3 H 0.344681 0.625442 0.408395
C1 C 0.5431(3) 0.5973(2) 0.31886(18)
C2 C 0.4163(3) 0.7056(3) 0.48749(19)
H4 H 0.386594 0.660842 0.505922
C3 C 0.2406(3) 0.4457(2) 0.26548(19)
H5 H 0.278969 0.419760 0.239198
C4 C 0.2665(3) 0.5070(2) 0.30686(19)
C5 C 0.5388(3) 0.5326(3) 0.3626(2)
H6 H 0.488783 0.506788 0.372664
C6 C 0.4253(3) 0.7048(2) 0.42461(18)
C7 C 0.6187(3) 0.6313(2) 0.30549(19)
H7 H 0.622043 0.675114 0.275752
C8 C 0.1090(3) 0.4591(3) 0.2981(2)
H8 H 0.053990 0.443115 0.294987
C9 C 0.6819(3) 0.5441(3) 0.3747(2)
H9 H 0.729881 0.525549 0.394241
C10 C 0.1309(3) 0.5203(3) 0.3406(2)
H10 H 0.091154 0.545545 0.366071
C11 C 0.6094(3) 0.5071(3) 0.3908(2)
H11 H 0.608094 0.464199 0.421343
C12 C 0.4687(3) 0.7702(3) 0.39694(19)
H12 H 0.475382 0.772540 0.353772
C13 C 0.2104(3) 0.5442(3) 0.3458(2)
H13 H 0.226531 0.585192 0.375194
C14 C 0.4900(3) 0.8284(3) 0.4971(2)
H14 H 0.512858 0.871529 0.522015
C15 C 0.5017(4) 0.8317(3) 0.4348(2)
H15 H 0.532589 0.876410 0.417555
Cu4 Cu 0.79457(4) 0.66557(4) 0.31827(3)
Cu5 Cu 0.41603(5) 0.77137(4) 0.61466(3)
Cu6 Cu 0.13094(4) 0.32116(4) 0.20766(3)
N7 N 0.1865(2) 0.6052(2) 0.16758(16)
N8 N 0.3370(2) 0.9221(2) 0.26147(16)
N9 N 0.4471(3) 0.7344(2) 0.02395(16)
N4_2 N 0.0529(3) 0.2344(2) 0.02395(16)
H4_2 H 0.113406 0.339158 0.005922
Cu5_2 Cu 0.08397(5) 0.22863(4) 0.11466(3)
I1_2 I 0.09522(2) 0.43766(2) 0.63790(2)
I2_2 I 0.23446(2) 0.19266(2) 0.61636(2)
Cu1_2 Cu 0.20543(4) 0.33443(4) 0.68173(3)
Cu2_2 Cu 0.08397(5) 0.27137(4) 0.61466(3)
Cu3_2 Cu 0.13094(4) 0.17884(4) 0.70766(3)
S1_2 S 0.18798(7) 0.28418(6) 0.78192(4)
P1_2 P 0.11751(6) 0.37179(6) 0.81749(4)
N2_2 N 0.0258(2) 0.3712(2) 0.78901(16)
H1_2 H 0.015443 0.321333 0.775037
N3_2 N 0.3370(2) 0.5779(2) 0.76147(16)
N5_2 N 0.1508(2) 0.4707(2) 0.80859(16)
H2_2 H 0.126371 0.493664 0.778072
N6_2 N 0.1093(2) 0.3632(2) 0.89226(16)
H3_2 H 0.155319 0.374558 0.908395
C2_2 C 0.0837(3) 0.2944(3) 0.98749(19)
C3_2 C 0.2594(3) 0.5543(2) 0.76548(19)
H5_2 H 0.221031 0.580240 0.739198
C4_2 C 0.2335(3) 0.4930(2) 0.80686(19)
H6_2 H 0.011217 0.493212 0.872664
C6_2 C 0.0747(3) 0.2952(2) 0.92461(18)
C8_2 C 0.3910(3) 0.5409(3) 0.7981(2)
H8_2 H 0.446010 0.556885 0.794987
C10_2 C 0.3691(3) 0.4797(3) 0.8406(2)
H10_2 H 0.408846 0.454455 0.866071
C12_2 C 0.0313(3) 0.2298(3) 0.89694(19)
H12_2 H 0.024618 0.227460 0.853772
C13_2 C 0.2896(3) 0.4558(3) 0.8458(2)
H13_2 H 0.273469 0.414808 0.875194
C14_2 C 0.0100(3) 0.1716(3) 0.9971(2)
Cu6_2 Cu 0.36906(4) 0.67884(4) 0.70766(3)
N7_2 N 0.3135(2) 0.3948(2) 0.66758(16)
N8_2 N 0.1630(2) 0.0779(2) 0.76147(16)
N9_2 N 0.0529(3) 0.2656(2) 0.52395(16)
I3_2 I 0.97791(2) 0.19182(2) 0.68835(2)
N1_2 N 0.8135(2) 0.3948(2) 0.83242(16)
C1_2 C 0.9569(3) 0.4027(2) 0.81886(18)
C5_2 C 0.9612(3) 0.4674(3) 0.8626(2)
C7_2 C 0.8813(3) 0.3687(2) 0.80549(19)
H7_2 H 0.877957 0.324886 0.775752
C9_2 C 0.8181(3) 0.4559(3) 0.8747(2)
H9_2 H 0.770119 0.474451 0.894241
C11_2 C 0.8906(3) 0.4929(3) 0.8908(2)
H11_2 H 0.891906 0.535801 0.921343
C15_2 C 0.9983(4) 0.1683(3) 0.9348(2)
H15_2 H 0.967411 0.123590 0.917555
Cu4_2 Cu 0.70543(4) 0.33443(4) 0.81827(3)
I3_3 I 0.02209(2) 0.69182(2) 0.81165(2)
N1_3 N 0.1865(2) 0.8948(2) 0.66758(16)
C1_3 C 0.0431(3) 0.9027(2) 0.68114(18)
C5_3 C 0.0388(3) 0.9674(3) 0.6374(2)
C7_3 C 0.1187(3) 0.8687(2) 0.69451(19)
H7_3 H 0.122043 0.824886 0.724248
C9_3 C 0.1819(3) 0.9559(3) 0.6253(2)
H9_3 H 0.229881 0.974451 0.605759
C11_3 C 0.1094(3) 0.9929(3) 0.6092(2)
H14_2 H 0.012858 0.628471 0.477985
C15_3 C 0.0017(4) 0.6683(3) 0.5652(2)
H15_3 H 0.032589 0.623590 0.582445
Cu4_3 Cu 0.29457(4) 0.83443(4) 0.68173(3)
N3_3 N 0.6630(2) 0.0779(2) 0.73853(16)
C3_3 C 0.7406(3) 0.0543(2) 0.73452(19)
H5_3 H 0.778969 0.080240 0.760802
C8_3 C 0.6090(3) 0.0409(3) 0.7019(2)
H8_3 H 0.553990 0.056885 0.705013
Cu6_3 Cu 0.63094(4) 0.17884(4) 0.79234(3)
I1_3 I 0.90478(2) 0.93766(2) 0.86210(2)
I2_3 I 0.76554(2) 0.69266(2) 0.88364(2)
Cu1_3 Cu 0.79457(4) 0.83443(4) 0.81827(3)
Cu2_3 Cu 0.91603(5) 0.77137(4) 0.88534(3)
Cu3_3 Cu 0.86906(4) 0.67884(4) 0.79234(3)
S1_3 S 0.81202(7) 0.78418(6) 0.71808(4)
P1_3 P 0.88249(6) 0.87179(6) 0.68251(4)
N2_3 N 0.9742(2) 0.8712(2) 0.71099(16)
H1_3 H 0.984557 0.821333 0.724963
N4_3 N 0.9471(3) 0.7344(2) 0.47605(16)
N5_3 N 0.8492(2) 0.9707(2) 0.69141(16)
H2_3 H 0.873629 0.993664 0.721928
N6_3 N 0.8907(2) 0.8632(2) 0.60774(16)
H3_3 H 0.844681 0.874558 0.591605
C2_3 C 0.9163(3) 0.7944(3) 0.51251(19)
H4_3 H 0.886594 0.839158 0.494078
C4_3 C 0.7665(3) 0.9930(2) 0.69314(19)
H6_3 H 0.988783 0.993212 0.627336
C6_3 C 0.9253(3) 0.7952(2) 0.57539(18)
C10_3 C 0.6309(3) 0.9797(3) 0.6594(2)
H10_3 H 0.591154 0.954455 0.633929
C12_3 C 0.9687(3) 0.7298(3) 0.60306(19)
H12_3 H 0.975382 0.727460 0.646228
C13_3 C 0.7104(3) 0.9558(3) 0.6542(2)
H13_3 H 0.726531 0.914808 0.624806
C14_3 C 0.9900(3) 0.6716(3) 0.5029(2)
Cu5_3 Cu 0.91603(5) 0.72863(4) 0.38534(3)
N7_3 N 0.6865(2) 0.8948(2) 0.83242(16)
N8_3 N 0.8370(2) 0.5779(2) 0.73853(16)
N9_3 N 0.9471(3) 0.7656(2) 0.97605(16)
I1_4 I 0.59522(2) 0.06234(2) 0.36210(2)
I2_4 I 0.73446(2) 0.30734(2) 0.38364(2)
I3_4 I 0.47791(2) 0.30818(2) 0.31165(2)
Cu1_4 Cu 0.70543(4) 0.16557(4) 0.31827(3)
Cu2_4 Cu 0.58397(5) 0.22863(4) 0.38534(3)
Cu3_4 Cu 0.63094(4) 0.32116(4) 0.29234(3)
S1_4 S 0.68798(7) 0.21582(6) 0.21808(4)
P1_4 P 0.61751(6) 0.12821(6) 0.18251(4)
N1_4 N 0.3135(2) 0.1052(2) 0.16758(16)
N2_4 N 0.5258(2) 0.1288(2) 0.21099(16)
H1_4 H 0.515443 0.178667 0.224963
N5_4 N 0.6508(2) 0.0293(2) 0.19141(16)
H2_4 H 0.626371 0.006336 0.221928
N6_4 N 0.6093(2) 0.1368(2) 0.10774(16)
H3_4 H 0.655319 0.125442 0.091605
C1_4 C 0.4569(3) 0.0973(2) 0.18114(18)
C2_4 C 0.5837(3) 0.2056(3) 0.01251(19)
C4_4 C 0.7335(3) 0.0070(2) 0.19314(19)
C5_4 C 0.4612(3) 0.0326(3) 0.1374(2)
H6_4 H 0.511217 0.006788 0.127336
C6_4 C 0.5747(3) 0.2048(2) 0.07539(18)
C7_4 C 0.3813(3) 0.1313(2) 0.19451(19)
H7_4 H 0.377957 0.175114 0.224248
C9_4 C 0.3181(3) 0.0441(3) 0.1253(2)
H9_4 H 0.270119 0.025549 0.105759
C10_4 C 0.8691(3) 0.0203(3) 0.1594(2)
H10_4 H 0.908846 0.045545 0.133929
C11_4 C 0.3906(3) 0.0071(3) 0.1092(2)
C12_4 C 0.5313(3) 0.2702(3) 0.10306(19)
H12_4 H 0.524618 0.272540 0.146228
C13_4 C 0.7896(3) 0.0442(3) 0.1542(2)
H13_4 H 0.773469 0.085192 0.124806
C14_4 C 0.5100(3) 0.3284(3) 0.0029(2)
C15_4 C 0.4983(4) 0.3317(3) 0.0652(2)
H15_4 H 0.467411 0.376410 0.082445
Cu4_4 Cu 0.20543(4) 0.16557(4) 0.18173(3)
N7_4 N 0.8135(2) 0.1052(2) 0.33242(16)
N8_4 N 0.6630(2) 0.4221(2) 0.23853(16)
N9_4 N 0.5529(3) 0.2344(2) 0.47605(16)
N4_4 N 0.5529(3) 0.2656(2) 0.97605(16)
H4_4 H 0.613406 0.160842 0.994078
H14_3 H 0.487142 0.371529 0.977985
Cu5_4 Cu 0.58397(5) 0.27137(4) 0.88534(3)
N3_4 N 0.8370(2) 0.9221(2) 0.23853(16)
C3_4 C 0.7594(3) 0.9457(2) 0.23452(19)
H5_4 H 0.721031 0.919760 0.260802
C8_4 C 0.8910(3) 0.9591(3) 0.2019(2)
H8_4 H 0.946010 0.943115 0.205013
H11_3 H 0.391906 0.964199 0.078657
Cu6_4 Cu 0.86906(4) 0.82116(4) 0.29234(3)
I1_5 I 0.59522(2) 0.43766(2) 0.86210(2)
I2_5 I 0.73446(2) 0.19266(2) 0.88364(2)
I3_5 I 0.47791(2) 0.19182(2) 0.81165(2)
S1_5 S 0.68798(7) 0.28418(6) 0.71808(4)
P1_5 P 0.61751(6) 0.37179(6) 0.68251(4)
N2_5 N 0.5258(2) 0.3712(2) 0.71099(16)
H1_5 H 0.515443 0.321333 0.724963
N5_5 N 0.6508(2) 0.4707(2) 0.69141(16)
H2_5 H 0.626371 0.493664 0.721928
N6_5 N 0.6093(2) 0.3632(2) 0.60774(16)
H3_5 H 0.655319 0.374558 0.591605
C1_5 C 0.4569(3) 0.4027(2) 0.68114(18)
C2_5 C 0.5837(3) 0.2944(3) 0.51251(19)
H4_5 H 0.613406 0.339158 0.494078
C3_5 C 0.7594(3) 0.5543(2) 0.73452(19)
H5_5 H 0.721031 0.580240 0.760802
C4_5 C 0.7335(3) 0.4930(2) 0.69314(19)
C5_5 C 0.4612(3) 0.4674(3) 0.6374(2)
H6_5 H 0.511217 0.493212 0.627336
C6_5 C 0.5747(3) 0.2952(2) 0.57539(18)
C7_5 C 0.3813(3) 0.3687(2) 0.69451(19)
H7_5 H 0.377957 0.324886 0.724248
C8_5 C 0.8910(3) 0.5409(3) 0.7019(2)
H8_5 H 0.946010 0.556885 0.705013
C9_5 C 0.3181(3) 0.4559(3) 0.6253(2)
H9_5 H 0.270119 0.474451 0.605759
C10_5 C 0.8691(3) 0.4797(3) 0.6594(2)
H10_5 H 0.908846 0.454455 0.633929
C11_5 C 0.3906(3) 0.4929(3) 0.6092(2)
H11_4 H 0.391906 0.535801 0.578657
C12_5 C 0.5313(3) 0.2298(3) 0.60306(19)
H12_5 H 0.524618 0.227460 0.646228
C13_5 C 0.7896(3) 0.4558(3) 0.6542(2)
H13_5 H 0.773469 0.414808 0.624806
C14_5 C 0.5100(3) 0.1716(3) 0.5029(2)
H14_4 H 0.487142 0.128471 0.477985
C15_5 C 0.4983(4) 0.1683(3) 0.5652(2)
H15_5 H 0.467411 0.123590 0.582445
I3_6 I 0.02209(2) 0.80818(2) 0.31165(2)
C1_6 C 0.0431(3) 0.5973(2) 0.18114(18)
C5_6 C 0.0388(3) 0.5326(3) 0.1374(2)
C7_6 C 0.1187(3) 0.6313(2) 0.19451(19)
H7_6 H 0.122043 0.675114 0.224248
C9_6 C 0.1819(3) 0.5441(3) 0.1253(2)
H9_6 H 0.229881 0.525549 0.105759
C11_6 C 0.1094(3) 0.5071(3) 0.1092(2)
H11_5 H 0.108094 0.464199 0.078657
C15_6 C 0.0017(4) 0.8317(3) 0.0652(2)
H15_6 H 0.032589 0.876410 0.082445
I1_6 I 0.90478(2) 0.56234(2) 0.36210(2)
I2_6 I 0.76554(2) 0.80734(2) 0.38364(2)
S1_6 S 0.81202(7) 0.71582(6) 0.21808(4)
P1_6 P 0.88249(6) 0.62821(6) 0.18251(4)
N2_6 N 0.9742(2) 0.6288(2) 0.21099(16)
H1_6 H 0.984557 0.678667 0.224963
N5_6 N 0.8492(2) 0.5293(2) 0.19141(16)
H2_6 H 0.873629 0.506336 0.221928
N6_6 N 0.8907(2) 0.6368(2) 0.10774(16)
H3_6 H 0.844681 0.625442 0.091605
C2_6 C 0.9163(3) 0.7056(3) 0.01251(19)
C3_6 C 0.7406(3) 0.4457(2) 0.23452(19)
H5_6 H 0.778969 0.419760 0.260802
C4_6 C 0.7665(3) 0.5070(2) 0.19314(19)
H6_6 H 0.988783 0.506788 0.127336
C6_6 C 0.9253(3) 0.7048(2) 0.07539(18)
C8_6 C 0.6090(3) 0.4591(3) 0.2019(2)
H8_6 H 0.553990 0.443115 0.205013
C10_6 C 0.6309(3) 0.5203(3) 0.1594(2)
H10_6 H 0.591154 0.545545 0.133929
C12_6 C 0.9687(3) 0.7702(3) 0.10306(19)
H12_6 H 0.975382 0.772540 0.146228
C13_6 C 0.7104(3) 0.5442(3) 0.1542(2)
H13_6 H 0.726531 0.585192 0.124806
C14_6 C 0.9900(3) 0.8284(3) 0.0029(2)
H4_6 H 0.886594 0.660842 0.994078
I1_7 I 0.09522(2) 0.06234(2) 0.13790(2)
I2_7 I 0.23446(2) 0.30734(2) 0.11636(2)
S1_7 S 0.18798(7) 0.21582(6) 0.28192(4)
P1_7 P 0.11751(6) 0.12821(6) 0.31749(4)
N2_7 N 0.0258(2) 0.1288(2) 0.28901(16)
H1_7 H 0.015443 0.178667 0.275037
N5_7 N 0.1508(2) 0.0293(2) 0.30859(16)
H2_7 H 0.126371 0.006336 0.278072
N6_7 N 0.1093(2) 0.1368(2) 0.39226(16)
H3_7 H 0.155319 0.125442 0.408395
C2_7 C 0.0837(3) 0.2056(3) 0.48749(19)
H4_7 H 0.113406 0.160842 0.505922
C4_7 C 0.2335(3) 0.0070(2) 0.30686(19)
H6_7 H 0.011217 0.006788 0.372664
C6_7 C 0.0747(3) 0.2048(2) 0.42461(18)
C10_7 C 0.3691(3) 0.0203(3) 0.3406(2)
H10_7 H 0.408846 0.045545 0.366071
C12_7 C 0.0313(3) 0.2702(3) 0.39694(19)
H12_7 H 0.024618 0.272540 0.353772
C13_7 C 0.2896(3) 0.0442(3) 0.3458(2)
H13_7 H 0.273469 0.085192 0.375194
C14_7 C 0.0100(3) 0.3284(3) 0.4971(2)
C3_7 C 0.2594(3) 0.9457(2) 0.26548(19)
H5_7 H 0.221031 0.919760 0.239198
C8_7 C 0.3910(3) 0.9591(3) 0.2981(2)
H8_7 H 0.446010 0.943115 0.294987
I3_7 I 0.97791(2) 0.30818(2) 0.18835(2)
C1_7 C 0.9569(3) 0.0973(2) 0.31886(18)
C5_7 C 0.9612(3) 0.0326(3) 0.3626(2)
C7_7 C 0.8813(3) 0.1313(2) 0.30549(19)
H7_7 H 0.877957 0.175114 0.275752
C9_7 C 0.8181(3) 0.0441(3) 0.3747(2)
H9_7 H 0.770119 0.025549 0.394241
C11_7 C 0.8906(3) 0.0071(3) 0.3908(2)
H14_5 H 0.987142 0.371529 0.522015
C15_7 C 0.9983(4) 0.3317(3) 0.4348(2)
H15_7 H 0.967411 0.376410 0.417555
C3_8 C 0.2406(3) 0.0543(2) 0.76548(19)
H5_8 H 0.278969 0.080240 0.739198
C8_8 C 0.1090(3) 0.0409(3) 0.7981(2)
H8_8 H 0.053990 0.056885 0.794987
H11_6 H 0.608094 0.035801 0.921343
H4_8 H 0.386594 0.839158 0.005922
H14_6 H 0.512858 0.628471 0.022015
I1_8 I 0.40478(2) 0.93766(2) 0.63790(2)
I2_8 I 0.26554(2) 0.69266(2) 0.61636(2)
I3_8 I 0.52209(2) 0.69182(2) 0.68835(2)
S1_8 S 0.31202(7) 0.78418(6) 0.78192(4)
P1_8 P 0.38249(6) 0.87179(6) 0.81749(4)
N2_8 N 0.4742(2) 0.8712(2) 0.78901(16)
H1_8 H 0.484557 0.821333 0.775037
N5_8 N 0.3492(2) 0.9707(2) 0.80859(16)
H2_8 H 0.373629 0.993664 0.778072
N6_8 N 0.3907(2) 0.8632(2) 0.89226(16)
H3_8 H 0.344681 0.874558 0.908395
C1_8 C 0.5431(3) 0.9027(2) 0.81886(18)
C2_8 C 0.4163(3) 0.7944(3) 0.98749(19)
C4_8 C 0.2665(3) 0.9930(2) 0.80686(19)
C5_8 C 0.5388(3) 0.9674(3) 0.8626(2)
H6_8 H 0.488783 0.993212 0.872664
C6_8 C 0.4253(3) 0.7952(2) 0.92461(18)
C7_8 C 0.6187(3) 0.8687(2) 0.80549(19)
H7_8 H 0.622043 0.824886 0.775752
C9_8 C 0.6819(3) 0.9559(3) 0.8747(2)
H9_8 H 0.729881 0.974451 0.894241
C10_8 C 0.1309(3) 0.9797(3) 0.8406(2)
H10_8 H 0.091154 0.954455 0.866071
C11_8 C 0.6094(3) 0.9929(3) 0.8908(2)
C12_8 C 0.4687(3) 0.7298(3) 0.89694(19)
H12_8 H 0.475382 0.727460 0.853772
C13_8 C 0.2104(3) 0.9558(3) 0.8458(2)
H13_8 H 0.226531 0.914808 0.875194
C14_8 C 0.4900(3) 0.6716(3) 0.9971(2)
C15_8 C 0.5017(4) 0.6683(3) 0.9348(2)
H15_8 H 0.532589 0.623590 0.917555
H14_7 H 0.987142 0.128471 0.022015
H11_7 H 0.108094 0.035801 0.578657
H14_8 H 0.012858 0.871529 0.977985
H11_8 H 0.891906 0.964199 0.421343
loop_
_geom_bond_atom_site_label_1
_geom_bond_atom_site_label_2
_geom_bond_site_symmetry_1
_geom_bond_site_symmetry_2
I1 Cu1 1_555 1_555
I2 Cu1 1_555 1_555
I3 Cu2 1_555 1_555
Cu1 S1 1_555 1_555
Cu2 I1 1_555 1_555
Cu3 I2 1_555 1_555
S1 Cu3 1_555 1_555
P1 S1 1_555 1_555
N1 C7 1_555 1_555
N2 P1 1_555 1_555
H1 N2 1_555 1_555
N3 C3 1_555 1_555
N4 C2 1_555 1_555
N5 P1 1_555 1_555
H2 N5 1_555 1_555
N6 P1 1_555 1_555
H3 N6 1_555 1_555
C1 N2 1_555 1_555
C2 H4 1_555 1_555
C3 H5 1_555 1_555
C4 N5 1_555 1_555
C5 C1 1_555 1_555
H6 C5 1_555 1_555
C6 N6 1_555 1_555
C7 C1 1_555 1_555
H7 C7 1_555 1_555
C8 N3 1_555 1_555
H8 C8 1_555 1_555
C9 N1 1_555 1_555
H9 C9 1_555 1_555
C10 C8 1_555 1_555
H10 C10 1_555 1_555
C11 C5 1_555 1_555
H11 C11 1_555 1_555
C12 C6 1_555 1_555
H12 C12 1_555 1_555
C13 C4 1_555 1_555
H13 C13 1_555 1_555
C14 N4 1_555 1_555
H14 C14 1_555 1_555
C15 C12 1_555 1_555
H15 C15 1_555 1_555
Cu4 N1 1_555 1_555
Cu5 N4 1_555 1_555
Cu6 N3 1_555 1_555
N7 Cu1 1_555 1_555
N8 Cu3 1_555 1_555
N9 Cu2 1_555 1_555
I2 Cu2 1_555 1_555
I3 Cu3 1_555 1_555
C2 C6 1_555 1_555
C3 C4 1_555 1_555
C9 C11 1_555 1_555
C10 C13 1_555 1_555
C14 C15 1_555 1_555
Cu5_2 N4_2 1_555 1_555
I1_2 Cu1_2 1_555 1_555
I2_2 Cu1_2 1_555 1_555
Cu1_2 S1_2 1_555 1_555
Cu2_2 I1_2 1_555 1_555
Cu3_2 I2_2 1_555 1_555
S1_2 Cu3_2 1_555 1_555
P1_2 S1_2 1_555 1_555
N2_2 P1_2 1_555 1_555
H1_2 N2_2 1_555 1_555
N3_2 C3_2 1_555 1_555
N5_2 P1_2 1_555 1_555
H2_2 N5_2 1_555 1_555
N6_2 P1_2 1_555 1_555
H3_2 N6_2 1_555 1_555
C3_2 H5_2 1_555 1_555
C4_2 N5_2 1_555 1_555
C6_2 N6_2 1_555 1_555
C8_2 N3_2 1_555 1_555
H8_2 C8_2 1_555 1_555
C10_2 C8_2 1_555 1_555
H10_2 C10_2 1_555 1_555
C12_2 C6_2 1_555 1_555
H12_2 C12_2 1_555 1_555
C13_2 C4_2 1_555 1_555
H13_2 C13_2 1_555 1_555
Cu6_2 N3_2 1_555 1_555
N7_2 Cu1_2 1_555 1_555
N8_2 Cu3_2 1_555 1_555
N9_2 Cu2_2 1_555 1_555
I2_2 Cu2_2 1_555 1_555
C2_2 C6_2 1_555 1_555
C3_2 C4_2 1_555 1_555
C10_2 C13_2 1_555 1_555
N1_2 C7_2 1_555 1_555
C5_2 C1_2 1_555 1_555
C7_2 C1_2 1_555 1_555
H7_2 C7_2 1_555 1_555
C9_2 N1_2 1_555 1_555
H9_2 C9_2 1_555 1_555
C11_2 C5_2 1_555 1_555
H11_2 C11_2 1_555 1_555
H15_2 C15_2 1_555 1_555
Cu4_2 N1_2 1_555 1_555
C9_2 C11_2 1_555 1_555
N1_3 C7_3 1_555 1_555
C5_3 C1_3 1_555 1_555
C7_3 C1_3 1_555 1_555
H7_3 C7_3 1_555 1_555
C9_3 N1_3 1_555 1_555
H9_3 C9_3 1_555 1_555
C11_3 C5_3 1_555 1_555
H15_3 C15_3 1_555 1_555
Cu4_3 N1_3 1_555 1_555
C9_3 C11_3 1_555 1_555
N3_3 C3_3 1_555 1_555
C3_3 H5_3 1_555 1_555
C8_3 N3_3 1_555 1_555
H8_3 C8_3 1_555 1_555
Cu6_3 N3_3 1_555 1_555
I1_3 Cu1_3 1_555 1_555
I2_3 Cu1_3 1_555 1_555
Cu1_3 S1_3 1_555 1_555
Cu2_3 I1_3 1_555 1_555
Cu3_3 I2_3 1_555 1_555
S1_3 Cu3_3 1_555 1_555
P1_3 S1_3 1_555 1_555
N2_3 P1_3 1_555 1_555
H1_3 N2_3 1_555 1_555
N4_3 C2_3 1_555 1_555
N5_3 P1_3 1_555 1_555
H2_3 N5_3 1_555 1_555
N6_3 P1_3 1_555 1_555
H3_3 N6_3 1_555 1_555
C2_3 H4_3 1_555 1_555
C4_3 N5_3 1_555 1_555
C6_3 N6_3 1_555 1_555
H10_3 C10_3 1_555 1_555
C12_3 C6_3 1_555 1_555
H12_3 C12_3 1_555 1_555
C13_3 C4_3 1_555 1_555
H13_3 C13_3 1_555 1_555
C14_3 N4_3 1_555 1_555
Cu5_3 N4_3 1_555 1_555
N7_3 Cu1_3 1_555 1_555
N8_3 Cu3_3 1_555 1_555
N9_3 Cu2_3 1_555 1_555
I2_3 Cu2_3 1_555 1_555
C2_3 C6_3 1_555 1_555
C10_3 C13_3 1_555 1_555
I1_4 Cu1_4 1_555 1_555
I2_4 Cu1_4 1_555 1_555
I3_4 Cu2_4 1_555 1_555
Cu1_4 S1_4 1_555 1_555
Cu2_4 I1_4 1_555 1_555
Cu3_4 I2_4 1_555 1_555
S1_4 Cu3_4 1_555 1_555
P1_4 S1_4 1_555 1_555
N1_4 C7_4 1_555 1_555
N2_4 P1_4 1_555 1_555
H1_4 N2_4 1_555 1_555
N5_4 P1_4 1_555 1_555
H2_4 N5_4 1_555 1_555
N6_4 P1_4 1_555 1_555
H3_4 N6_4 1_555 1_555
C1_4 N2_4 1_555 1_555
C4_4 N5_4 1_555 1_555
C5_4 C1_4 1_555 1_555
H6_4 C5_4 1_555 1_555
C6_4 N6_4 1_555 1_555
C7_4 C1_4 1_555 1_555
H7_4 C7_4 1_555 1_555
C9_4 N1_4 1_555 1_555
H9_4 C9_4 1_555 1_555
H10_4 C10_4 1_555 1_555
C11_4 C5_4 1_555 1_555
C12_4 C6_4 1_555 1_555
H12_4 C12_4 1_555 1_555
C13_4 C4_4 1_555 1_555
H13_4 C13_4 1_555 1_555
C15_4 C12_4 1_555 1_555
H15_4 C15_4 1_555 1_555
Cu4_4 N1_4 1_555 1_555
N7_4 Cu1_4 1_555 1_555
N8_4 Cu3_4 1_555 1_555
N9_4 Cu2_4 1_555 1_555
I2_4 Cu2_4 1_555 1_555
I3_4 Cu3_4 1_555 1_555
C2_4 C6_4 1_555 1_555
C9_4 C11_4 1_555 1_555
C10_4 C13_4 1_555 1_555
C14_4 C15_4 1_555 1_555
Cu5_4 N4_4 1_555 1_555
N3_4 C3_4 1_555 1_555
C3_4 H5_4 1_555 1_555
C8_4 N3_4 1_555 1_555
H8_4 C8_4 1_555 1_555
Cu6_4 N3_4 1_555 1_555
I1_5 Cu4_2 1_555 1_555
I2_5 Cu4_2 1_555 1_555
I3_5 Cu5_4 1_555 1_555
Cu4_2 S1_5 1_555 1_555
Cu5_4 I1_5 1_555 1_555
Cu6_3 I2_5 1_555 1_555
S1_5 Cu6_3 1_555 1_555
P1_5 S1_5 1_555 1_555
N7_2 C7_5 1_555 1_555
N2_5 P1_5 1_555 1_555
H1_5 N2_5 1_555 1_555
N8_3 C3_5 1_555 1_555
N9_4 C2_5 1_555 1_555
N5_5 P1_5 1_555 1_555
H2_5 N5_5 1_555 1_555
N6_5 P1_5 1_555 1_555
H3_5 N6_5 1_555 1_555
C1_5 N2_5 1_555 1_555
C2_5 H4_5 1_555 1_555
C3_5 H5_5 1_555 1_555
C4_5 N5_5 1_555 1_555
C5_5 C1_5 1_555 1_555
H6_5 C5_5 1_555 1_555
C6_5 N6_5 1_555 1_555
C7_5 C1_5 1_555 1_555
H7_5 C7_5 1_555 1_555
C8_5 N8_3 1_555 1_555
H8_5 C8_5 1_555 1_555
C9_5 N7_2 1_555 1_555
H9_5 C9_5 1_555 1_555
C10_5 C8_5 1_555 1_555
H10_5 C10_5 1_555 1_555
C11_5 C5_5 1_555 1_555
H11_4 C11_5 1_555 1_555
C12_5 C6_5 1_555 1_555
H12_5 C12_5 1_555 1_555
C13_5 C4_5 1_555 1_555
H13_5 C13_5 1_555 1_555
C14_5 N9_4 1_555 1_555
H14_4 C14_5 1_555 1_555
C15_5 C12_5 1_555 1_555
H15_5 C15_5 1_555 1_555
I2_5 Cu5_4 1_555 1_555
I3_5 Cu6_3 1_555 1_555
C2_5 C6_5 1_555 1_555
C3_5 C4_5 1_555 1_555
C9_5 C11_5 1_555 1_555
C10_5 C13_5 1_555 1_555
C14_5 C15_5 1_555 1_555
N7 C7_6 1_555 1_555
C5_6 C1_6 1_555 1_555
C7_6 C1_6 1_555 1_555
H7_6 C7_6 1_555 1_555
C9_6 N7 1_555 1_555
H9_6 C9_6 1_555 1_555
C11_6 C5_6 1_555 1_555
H11_5 C11_6 1_555 1_555
H15_6 C15_6 1_555 1_555
C9_6 C11_6 1_555 1_555
I1_6 Cu4 1_555 1_555
I2_6 Cu4 1_555 1_555
Cu4 S1_6 1_555 1_555
Cu5_3 I1_6 1_555 1_555
Cu6_4 I2_6 1_555 1_555
S1_6 Cu6_4 1_555 1_555
P1_6 S1_6 1_555 1_555
N2_6 P1_6 1_555 1_555
H1_6 N2_6 1_555 1_555
N8_4 C3_6 1_555 1_555
N5_6 P1_6 1_555 1_555
H2_6 N5_6 1_555 1_555
N6_6 P1_6 1_555 1_555
H3_6 N6_6 1_555 1_555
C3_6 H5_6 1_555 1_555
C4_6 N5_6 1_555 1_555
C6_6 N6_6 1_555 1_555
C8_6 N8_4 1_555 1_555
H8_6 C8_6 1_555 1_555
C10_6 C8_6 1_555 1_555
H10_6 C10_6 1_555 1_555
C12_6 C6_6 1_555 1_555
H12_6 C12_6 1_555 1_555
C13_6 C4_6 1_555 1_555
H13_6 C13_6 1_555 1_555
I2_6 Cu5_3 1_555 1_555
C2_6 C6_6 1_555 1_555
C3_6 C4_6 1_555 1_555
C10_6 C13_6 1_555 1_555
I1_7 Cu4_4 1_555 1_555
I2_7 Cu4_4 1_555 1_555
Cu4_4 S1_7 1_555 1_555
Cu5_2 I1_7 1_555 1_555
Cu6 I2_7 1_555 1_555
S1_7 Cu6 1_555 1_555
P1_7 S1_7 1_555 1_555
N2_7 P1_7 1_555 1_555
H1_7 N2_7 1_555 1_555
N9_2 C2_7 1_555 1_555
N5_7 P1_7 1_555 1_555
H2_7 N5_7 1_555 1_555
N6_7 P1_7 1_555 1_555
H3_7 N6_7 1_555 1_555
C2_7 H4_7 1_555 1_555
C4_7 N5_7 1_555 1_555
C6_7 N6_7 1_555 1_555
H10_7 C10_7 1_555 1_555
C12_7 C6_7 1_555 1_555
H12_7 C12_7 1_555 1_555
C13_7 C4_7 1_555 1_555
H13_7 C13_7 1_555 1_555
C14_7 N9_2 1_555 1_555
I2_7 Cu5_2 1_555 1_555
C2_7 C6_7 1_555 1_555
C10_7 C13_7 1_555 1_555
N8 C3_7 1_555 1_555
C3_7 H5_7 1_555 1_555
C8_7 N8 1_555 1_555
H8_7 C8_7 1_555 1_555
N7_4 C7_7 1_555 1_555
C5_7 C1_7 1_555 1_555
C7_7 C1_7 1_555 1_555
H7_7 C7_7 1_555 1_555
C9_7 N7_4 1_555 1_555
H9_7 C9_7 1_555 1_555
C11_7 C5_7 1_555 1_555
H15_7 C15_7 1_555 1_555
C9_7 C11_7 1_555 1_555
N8_2 C3_8 1_555 1_555
C3_8 H5_8 1_555 1_555
C8_8 N8_2 1_555 1_555
H8_8 C8_8 1_555 1_555
I1_8 Cu4_3 1_555 1_555
I2_8 Cu4_3 1_555 1_555
I3_8 Cu5 1_555 1_555
Cu4_3 S1_8 1_555 1_555
Cu5 I1_8 1_555 1_555
Cu6_2 I2_8 1_555 1_555
S1_8 Cu6_2 1_555 1_555
P1_8 S1_8 1_555 1_555
N7_3 C7_8 1_555 1_555
N2_8 P1_8 1_555 1_555
H1_8 N2_8 1_555 1_555
N5_8 P1_8 1_555 1_555
H2_8 N5_8 1_555 1_555
N6_8 P1_8 1_555 1_555
H3_8 N6_8 1_555 1_555
C1_8 N2_8 1_555 1_555
C4_8 N5_8 1_555 1_555
C5_8 C1_8 1_555 1_555
H6_8 C5_8 1_555 1_555
C6_8 N6_8 1_555 1_555
C7_8 C1_8 1_555 1_555
H7_8 C7_8 1_555 1_555
C9_8 N7_3 1_555 1_555
H9_8 C9_8 1_555 1_555
H10_8 C10_8 1_555 1_555
C11_8 C5_8 1_555 1_555
C12_8 C6_8 1_555 1_555
H12_8 C12_8 1_555 1_555
C13_8 C4_8 1_555 1_555
H13_8 C13_8 1_555 1_555
C15_8 C12_8 1_555 1_555
H15_8 C15_8 1_555 1_555
I2_8 Cu5 1_555 1_555
I3_8 Cu6_2 1_555 1_555
C2_8 C6_8 1_555 1_555
C9_8 C11_8 1_555 1_555
C10_8 C13_8 1_555 1_555
C14_8 C15_8 1_555 1_555

#END
