
###############################################################################
#
# This file contains modified crystal structure data generated from the
# MOF subset of the Cambridge Structural Database (CSD) v543 
# hosted by the Cambridge Crystallographic Data Centre (CCDC).
#
# This work is licensed under the Creative Commons
# Attribution-NonCommercial-ShareAlike 4.0 International License.
# To view a copy of this license, visit
# http://creativecommons.org/licenses/by-nc-sa/4.0/
# or send a letter to
# Creative Commons, PO Box 1866, Mountain View, CA 94042, USA.
#
# CIF created using the CSD Python API on 29 September 2022
# The structure has been converted into the P1 space group
# The structure has a 3D framework
# The original CSD entry ILODAR is in the orthorhombic crystal system
# The framework has been calculated to contain at least 10.0% void space
# The void calculation uses a probe of radius 1.32A, grid spacing 0.4
#
###############################################################################

data_ILODAR
_chemical_formula_moiety         '(C120 H120 Cu24 I24 N44 P8 S8)n'
_symmetry_cell_setting           triclinic
_symmetry_space_group_name_H-M   'P 1'
_symmetry_Int_Tables_number      1
_space_group_name_Hall           'P 1'
loop_
_symmetry_equiv_pos_site_id
_symmetry_equiv_pos_as_xyz
1 x,y,z
_cell_length_a                   16.5319(2)
_cell_length_b                   15.7772(2)
_cell_length_c                   22.4311(3)
_cell_angle_alpha                90
_cell_angle_beta                 90
_cell_angle_gamma                90
_cell_volume                     5850.64
loop_
_atom_site_label
_atom_site_type_symbol
_atom_site_fract_x
_atom_site_fract_y
_atom_site_fract_z
I1 I 0.26536(2) 0.82872(2) 0.11726(2)
I2 I 0.52042(2) 0.81735(2) 0.17836(2)
I3 I 0.39513(2) 0.57506(2) 0.14438(2)
Cu1 Cu 0.28831(5) 0.68756(5) 0.18164(4)
Cu2 Cu 0.40836(5) 0.73868(5) 0.11251(3)
Cu3 Cu 0.37021(5) 0.83521(5) 0.20653(4)
S1 S 0.30433(7) 0.73955(8) 0.28124(5)
P1 P 0.37392(8) 0.65107(9) 0.31450(6)
N1 N 0.1576(3) 0.4399(3) 0.2564(2)
N2 N 0.6790(3) 0.6277(3) 0.3310(2)
N3 N 0.4665(3) 0.6558(3) 0.2886(2)
H1 H 0.476954 0.708498 0.278339
N4 N 0.3417(3) 0.5523(3) 0.30202(19)
H2 H 0.366929 0.531367 0.270761
N5 N 0.4317(3) 0.7713(3) 0.5225(2)
N6 N 0.3771(3) 0.6539(3) 0.3883(2)
H3 H 0.328969 0.640941 0.402298
C1 C 0.5360(3) 0.6214(3) 0.3168(2)
C2 C 0.2349(3) 0.4661(4) 0.2614(2)
H4 H 0.274776 0.439341 0.237384
C3 C 0.1020(3) 0.4796(4) 0.2899(2)
H5 H 0.047022 0.462694 0.286318
C4 C 0.6105(3) 0.6581(3) 0.3064(2)
H6 H 0.613584 0.706189 0.281044
C5 C 0.2589(3) 0.5296(3) 0.2995(2)
C6 C 0.1209(3) 0.5438(4) 0.3294(3)
H7 H 0.079593 0.570009 0.352400
C7 C 0.2010(3) 0.5696(4) 0.3352(2)
H8 H 0.215816 0.612910 0.362487
C8 C 0.4092(3) 0.7202(4) 0.4225(2)
C9 C 0.5309(3) 0.5511(4) 0.3541(2)
H9 H 0.480679 0.523457 0.361056
C10 C 0.6009(3) 0.5229(4) 0.3805(2)
H10 H 0.599002 0.476570 0.407534
C11 C 0.4785(4) 0.8510(4) 0.4387(3)
H11 H 0.506142 0.899512 0.424000
C12 C 0.6734(3) 0.5612(4) 0.3681(2)
H12 H 0.721115 0.540074 0.386373
C13 C 0.4020(3) 0.7141(4) 0.4845(2)
H13 H 0.374465 0.666367 0.500554
C14 C 0.4690(4) 0.8394(4) 0.4996(3)
H14 H 0.489703 0.881174 0.526065
C15 C 0.4475(4) 0.7916(4) 0.3997(2)
H15 H 0.452306 0.799414 0.357826
Cu4 Cu 0.78831(5) 0.68756(5) 0.31836(4)
Cu5 Cu 0.40836(5) 0.76132(5) 0.61251(3)
Cu6 Cu 0.12979(5) 0.33521(5) 0.20653(4)
N7 N 0.3424(3) 0.9399(3) 0.2564(2)
N8 N 0.1790(3) 0.6277(3) 0.1690(2)
N9 N 0.4317(3) 0.7287(3) 0.0225(2)
N5_2 N 0.0683(3) 0.2287(3) 0.0225(2)
H13_2 H 0.125535 0.333633 0.000554
H14_2 H 0.010297 0.118826 0.026065
Cu5_2 Cu 0.09164(5) 0.23868(5) 0.11251(3)
I1_2 I 0.23464(2) 0.17128(2) 0.61726(2)
I3_2 I 0.10487(2) 0.42494(2) 0.64438(2)
Cu1_2 Cu 0.21169(5) 0.31244(5) 0.68164(4)
Cu2_2 Cu 0.09164(5) 0.26132(5) 0.61251(3)
Cu3_2 Cu 0.12979(5) 0.16479(5) 0.70653(4)
S1_2 S 0.19567(7) 0.26045(8) 0.78124(5)
P1_2 P 0.12608(8) 0.34893(9) 0.81450(6)
N1_2 N 0.3424(3) 0.5601(3) 0.7564(2)
N3_2 N 0.0335(3) 0.3442(3) 0.7886(2)
H1_2 H 0.023046 0.291502 0.778339
N4_2 N 0.1583(3) 0.4477(3) 0.80202(19)
H2_2 H 0.133071 0.468633 0.770761
N6_2 N 0.1229(3) 0.3461(3) 0.8883(2)
H3_2 H 0.171031 0.359059 0.902298
C2_2 C 0.2651(3) 0.5339(4) 0.7614(2)
H4_2 H 0.225224 0.560659 0.737384
C3_2 C 0.3980(3) 0.5204(4) 0.7899(2)
H5_2 H 0.452978 0.537306 0.786318
C5_2 C 0.2411(3) 0.4704(3) 0.7995(2)
C6_2 C 0.3791(3) 0.4562(4) 0.8294(3)
H7_2 H 0.420407 0.429991 0.852400
C7_2 C 0.2990(3) 0.4304(4) 0.8352(2)
H8_2 H 0.284184 0.387090 0.862487
C8_2 C 0.0908(3) 0.2798(4) 0.9225(2)
H9_2 H 0.019321 0.476543 0.861056
C11_2 C 0.0215(4) 0.1490(4) 0.9387(3)
C13_2 C 0.0980(3) 0.2859(4) 0.9845(2)
C14_2 C 0.0310(4) 0.1606(4) 0.9996(3)
C15_2 C 0.0525(4) 0.2084(4) 0.8997(2)
H15_2 H 0.047694 0.200586 0.857826
Cu6_2 Cu 0.37021(5) 0.66479(5) 0.70653(4)
N7_2 N 0.1576(3) 0.0601(3) 0.7564(2)
N8_2 N 0.3210(3) 0.3723(3) 0.6690(2)
N9_2 N 0.0683(3) 0.2713(3) 0.5225(2)
I2_2 I 0.97958(2) 0.18265(2) 0.67836(2)
N2_2 N 0.8210(3) 0.3723(3) 0.8310(2)
C1_2 C 0.9640(3) 0.3786(3) 0.8168(2)
C4_2 C 0.8895(3) 0.3419(3) 0.8064(2)
H6_2 H 0.886416 0.293811 0.781044
C9_2 C 0.9691(3) 0.4489(4) 0.8541(2)
C10_2 C 0.8991(3) 0.4771(4) 0.8805(2)
H10_2 H 0.900998 0.523430 0.907534
H11_2 H 0.993858 0.100488 0.924000
C12_2 C 0.8266(3) 0.4388(4) 0.8681(2)
H12_2 H 0.778885 0.459926 0.886373
Cu4_2 Cu 0.71169(5) 0.31244(5) 0.81836(4)
I2_3 I 0.02042(2) 0.68265(2) 0.82164(2)
N2_3 N 0.1790(3) 0.8723(3) 0.6690(2)
C1_3 C 0.0360(3) 0.8786(3) 0.6832(2)
C4_3 C 0.1105(3) 0.8419(3) 0.6936(2)
H6_3 H 0.113584 0.793811 0.718956
C9_3 C 0.0309(3) 0.9489(4) 0.6459(2)
C10_3 C 0.1009(3) 0.9771(4) 0.6195(2)
H11_3 H 0.006142 0.600488 0.576000
C12_3 C 0.1734(3) 0.9388(4) 0.6319(2)
H12_3 H 0.221115 0.959926 0.613627
Cu4_3 Cu 0.28831(5) 0.81244(5) 0.68164(4)
N1_3 N 0.6576(3) 0.0601(3) 0.7436(2)
C2_3 C 0.7349(3) 0.0339(4) 0.7386(2)
H4_3 H 0.774776 0.060659 0.762616
C3_3 C 0.6020(3) 0.0204(4) 0.7101(2)
H5_3 H 0.547022 0.037306 0.713682
Cu6_3 Cu 0.62979(5) 0.16479(5) 0.79347(4)
I1_3 I 0.76536(2) 0.67128(2) 0.88274(2)
I3_3 I 0.89513(2) 0.92494(2) 0.85562(2)
Cu1_3 Cu 0.78831(5) 0.81244(5) 0.81836(4)
Cu2_3 Cu 0.90836(5) 0.76132(5) 0.88749(3)
Cu3_3 Cu 0.87021(5) 0.66479(5) 0.79347(4)
S1_3 S 0.80433(7) 0.76045(8) 0.71876(5)
P1_3 P 0.87392(8) 0.84893(9) 0.68550(6)
N3_3 N 0.9665(3) 0.8442(3) 0.7114(2)
H1_3 H 0.976954 0.791502 0.721661
N4_3 N 0.8417(3) 0.9477(3) 0.69798(19)
H2_3 H 0.866929 0.968633 0.729239
N5_3 N 0.9317(3) 0.7287(3) 0.4775(2)
N6_3 N 0.8771(3) 0.8461(3) 0.6117(2)
H3_3 H 0.828969 0.859059 0.597702
C5_3 C 0.7589(3) 0.9704(3) 0.7005(2)
C6_3 C 0.6209(3) 0.9562(4) 0.6706(3)
H7_3 H 0.579593 0.929991 0.647600
C7_3 C 0.7010(3) 0.9304(4) 0.6648(2)
H8_3 H 0.715816 0.887090 0.637513
C8_3 C 0.9092(3) 0.7798(4) 0.5775(2)
H9_3 H 0.980679 0.976543 0.638944
C11_3 C 0.9785(4) 0.6490(4) 0.5613(3)
C13_3 C 0.9020(3) 0.7859(4) 0.5155(2)
H13_3 H 0.874465 0.833633 0.499446
C14_3 C 0.9690(4) 0.6606(4) 0.5004(3)
H14_3 H 0.989703 0.618826 0.473935
C15_3 C 0.9475(4) 0.7084(4) 0.6003(2)
H15_3 H 0.952306 0.700586 0.642174
Cu5_3 Cu 0.90836(5) 0.73868(5) 0.38749(3)
N7_3 N 0.8424(3) 0.5601(3) 0.7436(2)
N8_3 N 0.6790(3) 0.8723(3) 0.8310(2)
N9_3 N 0.9317(3) 0.7713(3) 0.9775(2)
I1_4 I 0.73464(2) 0.32872(2) 0.38274(2)
I2_4 I 0.47958(2) 0.31735(2) 0.32164(2)
I3_4 I 0.60487(2) 0.07506(2) 0.35562(2)
Cu1_4 Cu 0.71169(5) 0.18756(5) 0.31836(4)
Cu2_4 Cu 0.59164(5) 0.23868(5) 0.38749(3)
Cu3_4 Cu 0.62979(5) 0.33521(5) 0.29347(4)
S1_4 S 0.69567(7) 0.23955(8) 0.21876(5)
P1_4 P 0.62608(8) 0.15107(9) 0.18550(6)
N2_4 N 0.3210(3) 0.1277(3) 0.1690(2)
N3_4 N 0.5335(3) 0.1558(3) 0.2114(2)
H1_4 H 0.523046 0.208498 0.221661
N4_4 N 0.6583(3) 0.0523(3) 0.19798(19)
H2_4 H 0.633071 0.031367 0.229239
N6_4 N 0.6229(3) 0.1539(3) 0.1117(2)
H3_4 H 0.671031 0.140941 0.097702
C1_4 C 0.4640(3) 0.1214(3) 0.1832(2)
C4_4 C 0.3895(3) 0.1581(3) 0.1936(2)
H6_4 H 0.386416 0.206189 0.218956
C5_4 C 0.7411(3) 0.0296(3) 0.2005(2)
C6_4 C 0.8791(3) 0.0438(4) 0.1706(3)
H7_4 H 0.920407 0.070009 0.147600
C7_4 C 0.7990(3) 0.0696(4) 0.1648(2)
H8_4 H 0.784184 0.112910 0.137513
C8_4 C 0.5908(3) 0.2202(4) 0.0775(2)
C9_4 C 0.4691(3) 0.0511(4) 0.1459(2)
H9_4 H 0.519321 0.023457 0.138944
C10_4 C 0.3991(3) 0.0229(4) 0.1195(2)
C11_4 C 0.5215(4) 0.3510(4) 0.0613(3)
H11_4 H 0.493858 0.399512 0.076000
C12_4 C 0.3266(3) 0.0612(4) 0.1319(2)
H12_4 H 0.278885 0.040074 0.113627
C13_4 C 0.5980(3) 0.2141(4) 0.0155(2)
C14_4 C 0.5310(4) 0.3394(4) 0.0004(3)
C15_4 C 0.5525(4) 0.2916(4) 0.1003(2)
H15_4 H 0.547694 0.299414 0.142174
Cu4_4 Cu 0.21169(5) 0.18756(5) 0.18164(4)
N7_4 N 0.6576(3) 0.4399(3) 0.2436(2)
N8_4 N 0.8210(3) 0.1277(3) 0.3310(2)
N9_4 N 0.5683(3) 0.2287(3) 0.4775(2)
N5_4 N 0.5683(3) 0.2713(3) 0.9775(2)
H13_4 H 0.625535 0.166367 0.999446
H14_4 H 0.510297 0.381174 0.973935
Cu5_4 Cu 0.59164(5) 0.26132(5) 0.88749(3)
N1_4 N 0.8424(3) 0.9399(3) 0.2436(2)
C2_4 C 0.7651(3) 0.9661(4) 0.2386(2)
H4_4 H 0.725224 0.939341 0.262616
C3_4 C 0.8980(3) 0.9796(4) 0.2101(2)
H5_4 H 0.952978 0.962694 0.213682
H10_3 H 0.400998 0.976570 0.092466
Cu6_4 Cu 0.87021(5) 0.83521(5) 0.29347(4)
I1_5 I 0.73464(2) 0.17128(2) 0.88274(2)
I2_5 I 0.47958(2) 0.18265(2) 0.82164(2)
I3_5 I 0.60487(2) 0.42494(2) 0.85562(2)
S1_5 S 0.69567(7) 0.26045(8) 0.71876(5)
P1_5 P 0.62608(8) 0.34893(9) 0.68550(6)
N3_5 N 0.5335(3) 0.3442(3) 0.7114(2)
H1_5 H 0.523046 0.291502 0.721661
N4_5 N 0.6583(3) 0.4477(3) 0.69798(19)
H2_5 H 0.633071 0.468633 0.729239
N6_5 N 0.6229(3) 0.3461(3) 0.6117(2)
H3_5 H 0.671031 0.359059 0.597702
C1_5 C 0.4640(3) 0.3786(3) 0.6832(2)
C2_5 C 0.7651(3) 0.5339(4) 0.7386(2)
H4_5 H 0.725224 0.560659 0.762616
C3_5 C 0.8980(3) 0.5204(4) 0.7101(2)
H5_5 H 0.952978 0.537306 0.713682
C4_5 C 0.3895(3) 0.3419(3) 0.6936(2)
H6_5 H 0.386416 0.293811 0.718956
C5_5 C 0.7411(3) 0.4704(3) 0.7005(2)
C6_5 C 0.8791(3) 0.4562(4) 0.6706(3)
H7_5 H 0.920407 0.429991 0.647600
C7_5 C 0.7990(3) 0.4304(4) 0.6648(2)
H8_5 H 0.784184 0.387090 0.637513
C8_5 C 0.5908(3) 0.2798(4) 0.5775(2)
C9_5 C 0.4691(3) 0.4489(4) 0.6459(2)
H9_5 H 0.519321 0.476543 0.638944
C10_5 C 0.3991(3) 0.4771(4) 0.6195(2)
H10_4 H 0.400998 0.523430 0.592466
C11_5 C 0.5215(4) 0.1490(4) 0.5613(3)
H11_5 H 0.493858 0.100488 0.576000
C12_5 C 0.3266(3) 0.4388(4) 0.6319(2)
H12_5 H 0.278885 0.459926 0.613627
C13_5 C 0.5980(3) 0.2859(4) 0.5155(2)
H13_5 H 0.625535 0.333633 0.499446
C14_5 C 0.5310(4) 0.1606(4) 0.5004(3)
H14_5 H 0.510297 0.118826 0.473935
C15_5 C 0.5525(4) 0.2084(4) 0.6003(2)
H15_5 H 0.547694 0.200586 0.642174
I2_6 I 0.02042(2) 0.81735(2) 0.32164(2)
C1_6 C 0.0360(3) 0.6214(3) 0.1832(2)
C4_6 C 0.1105(3) 0.6581(3) 0.1936(2)
H6_6 H 0.113584 0.706189 0.218956
C9_6 C 0.0309(3) 0.5511(4) 0.1459(2)
C10_6 C 0.1009(3) 0.5229(4) 0.1195(2)
H10_5 H 0.099002 0.476570 0.092466
H11_6 H 0.006142 0.899512 0.076000
C12_6 C 0.1734(3) 0.5612(4) 0.1319(2)
H12_6 H 0.221115 0.540074 0.113627
I1_6 I 0.76536(2) 0.82872(2) 0.38274(2)
I3_6 I 0.89513(2) 0.57506(2) 0.35562(2)
S1_6 S 0.80433(7) 0.73955(8) 0.21876(5)
P1_6 P 0.87392(8) 0.65107(9) 0.18550(6)
N3_6 N 0.9665(3) 0.6558(3) 0.2114(2)
H1_6 H 0.976954 0.708498 0.221661
N4_6 N 0.8417(3) 0.5523(3) 0.19798(19)
H2_6 H 0.866929 0.531367 0.229239
N6_6 N 0.8771(3) 0.6539(3) 0.1117(2)
H3_6 H 0.828969 0.640941 0.097702
C2_6 C 0.7349(3) 0.4661(4) 0.2386(2)
H4_6 H 0.774776 0.439341 0.262616
C3_6 C 0.6020(3) 0.4796(4) 0.2101(2)
H5_6 H 0.547022 0.462694 0.213682
C5_6 C 0.7589(3) 0.5296(3) 0.2005(2)
C6_6 C 0.6209(3) 0.5438(4) 0.1706(3)
H7_6 H 0.579593 0.570009 0.147600
C7_6 C 0.7010(3) 0.5696(4) 0.1648(2)
H8_6 H 0.715816 0.612910 0.137513
C8_6 C 0.9092(3) 0.7202(4) 0.0775(2)
H9_6 H 0.980679 0.523457 0.138944
C11_6 C 0.9785(4) 0.8510(4) 0.0613(3)
C13_6 C 0.9020(3) 0.7141(4) 0.0155(2)
C14_6 C 0.9690(4) 0.8394(4) 0.0004(3)
C15_6 C 0.9475(4) 0.7916(4) 0.1003(2)
H15_6 H 0.952306 0.799414 0.142174
H13_6 H 0.874465 0.666367 0.999446
H14_6 H 0.989703 0.881174 0.973935
I1_7 I 0.23464(2) 0.32872(2) 0.11726(2)
I3_7 I 0.10487(2) 0.07506(2) 0.14438(2)
S1_7 S 0.19567(7) 0.23955(8) 0.28124(5)
P1_7 P 0.12608(8) 0.15107(9) 0.31450(6)
N3_7 N 0.0335(3) 0.1558(3) 0.2886(2)
H1_7 H 0.023046 0.208498 0.278339
N4_7 N 0.1583(3) 0.0523(3) 0.30202(19)
H2_7 H 0.133071 0.031367 0.270761
N6_7 N 0.1229(3) 0.1539(3) 0.3883(2)
H3_7 H 0.171031 0.140941 0.402298
C5_7 C 0.2411(3) 0.0296(3) 0.2995(2)
C6_7 C 0.3791(3) 0.0438(4) 0.3294(3)
H7_7 H 0.420407 0.070009 0.352400
C7_7 C 0.2990(3) 0.0696(4) 0.3352(2)
H8_7 H 0.284184 0.112910 0.362487
C8_7 C 0.0908(3) 0.2202(4) 0.4225(2)
H9_7 H 0.019321 0.023457 0.361056
C11_7 C 0.0215(4) 0.3510(4) 0.4387(3)
C13_7 C 0.0980(3) 0.2141(4) 0.4845(2)
H13_7 H 0.125535 0.166367 0.500554
C14_7 C 0.0310(4) 0.3394(4) 0.4996(3)
H14_7 H 0.010297 0.381174 0.526065
C15_7 C 0.0525(4) 0.2916(4) 0.3997(2)
H15_7 H 0.047694 0.299414 0.357826
C2_7 C 0.2651(3) 0.9661(4) 0.2614(2)
H4_7 H 0.225224 0.939341 0.237384
C3_7 C 0.3980(3) 0.9796(4) 0.2899(2)
H5_7 H 0.452978 0.962694 0.286318
I2_7 I 0.97958(2) 0.31735(2) 0.17836(2)
C1_7 C 0.9640(3) 0.1214(3) 0.3168(2)
C4_7 C 0.8895(3) 0.1581(3) 0.3064(2)
H6_7 H 0.886416 0.206189 0.281044
C9_7 C 0.9691(3) 0.0511(4) 0.3541(2)
C10_7 C 0.8991(3) 0.0229(4) 0.3805(2)
H11_7 H 0.993858 0.399512 0.424000
C12_7 C 0.8266(3) 0.0612(4) 0.3681(2)
H12_7 H 0.778885 0.040074 0.386373
C2_8 C 0.2349(3) 0.0339(4) 0.7614(2)
H4_8 H 0.274776 0.060659 0.737384
C3_8 C 0.1020(3) 0.0204(4) 0.7899(2)
H5_8 H 0.047022 0.037306 0.786318
H10_6 H 0.599002 0.023430 0.907534
H13_8 H 0.374465 0.833633 0.000554
H14_8 H 0.489703 0.618826 0.026065
I1_8 I 0.26536(2) 0.67128(2) 0.61726(2)
I2_8 I 0.52042(2) 0.68265(2) 0.67836(2)
I3_8 I 0.39513(2) 0.92494(2) 0.64438(2)
S1_8 S 0.30433(7) 0.76045(8) 0.78124(5)
P1_8 P 0.37392(8) 0.84893(9) 0.81450(6)
N3_8 N 0.4665(3) 0.8442(3) 0.7886(2)
H1_8 H 0.476954 0.791502 0.778339
N4_8 N 0.3417(3) 0.9477(3) 0.80202(19)
H2_8 H 0.366929 0.968633 0.770761
N6_8 N 0.3771(3) 0.8461(3) 0.8883(2)
H3_8 H 0.328969 0.859059 0.902298
C1_8 C 0.5360(3) 0.8786(3) 0.8168(2)
C4_8 C 0.6105(3) 0.8419(3) 0.8064(2)
H6_8 H 0.613584 0.793811 0.781044
C5_8 C 0.2589(3) 0.9704(3) 0.7995(2)
C6_8 C 0.1209(3) 0.9562(4) 0.8294(3)
H7_8 H 0.079593 0.929991 0.852400
C7_8 C 0.2010(3) 0.9304(4) 0.8352(2)
H8_8 H 0.215816 0.887090 0.862487
C8_8 C 0.4092(3) 0.7798(4) 0.9225(2)
C9_8 C 0.5309(3) 0.9489(4) 0.8541(2)
H9_8 H 0.480679 0.976543 0.861056
C10_8 C 0.6009(3) 0.9771(4) 0.8805(2)
C11_8 C 0.4785(4) 0.6490(4) 0.9387(3)
H11_8 H 0.506142 0.600488 0.924000
C12_8 C 0.6734(3) 0.9388(4) 0.8681(2)
H12_8 H 0.721115 0.959926 0.886373
C13_8 C 0.4020(3) 0.7859(4) 0.9845(2)
C14_8 C 0.4690(4) 0.6606(4) 0.9996(3)
C15_8 C 0.4475(4) 0.7084(4) 0.8997(2)
H15_8 H 0.452306 0.700586 0.857826
H10_7 H 0.099002 0.023430 0.592466
H10_8 H 0.900998 0.976570 0.407534
loop_
_geom_bond_atom_site_label_1
_geom_bond_atom_site_label_2
_geom_bond_site_symmetry_1
_geom_bond_site_symmetry_2
I1 Cu1 1_555 1_555
I2 Cu2 1_555 1_555
I3 Cu1 1_555 1_555
Cu1 S1 1_555 1_555
Cu2 I1 1_555 1_555
Cu3 I1 1_555 1_555
S1 Cu3 1_555 1_555
P1 S1 1_555 1_555
N1 C2 1_555 1_555
N2 C4 1_555 1_555
N3 P1 1_555 1_555
H1 N3 1_555 1_555
N4 P1 1_555 1_555
H2 N4 1_555 1_555
N5 C13 1_555 1_555
N6 P1 1_555 1_555
H3 N6 1_555 1_555
C1 N3 1_555 1_555
C2 H4 1_555 1_555
C3 N1 1_555 1_555
H5 C3 1_555 1_555
C4 C1 1_555 1_555
H6 C4 1_555 1_555
C5 N4 1_555 1_555
C6 C3 1_555 1_555
H7 C6 1_555 1_555
C7 C5 1_555 1_555
H8 C7 1_555 1_555
C8 N6 1_555 1_555
C9 C1 1_555 1_555
H9 C9 1_555 1_555
C10 C9 1_555 1_555
H10 C10 1_555 1_555
C11 H11 1_555 1_555
C12 N2 1_555 1_555
H12 C12 1_555 1_555
C13 C8 1_555 1_555
H13 C13 1_555 1_555
C14 N5 1_555 1_555
H14 C14 1_555 1_555
C15 C8 1_555 1_555
H15 C15 1_555 1_555
Cu4 N2 1_555 1_555
Cu5 N5 1_555 1_555
Cu6 N1 1_555 1_555
N7 Cu3 1_555 1_555
N8 Cu1 1_555 1_555
N9 Cu2 1_555 1_555
I2 Cu3 1_555 1_555
I3 Cu2 1_555 1_555
C2 C5 1_555 1_555
C6 C7 1_555 1_555
C10 C12 1_555 1_555
C11 C14 1_555 1_555
C11 C15 1_555 1_555
Cu5_2 N5_2 1_555 1_555
I1_2 Cu1_2 1_555 1_555
I3_2 Cu1_2 1_555 1_555
Cu1_2 S1_2 1_555 1_555
Cu2_2 I1_2 1_555 1_555
Cu3_2 I1_2 1_555 1_555
S1_2 Cu3_2 1_555 1_555
P1_2 S1_2 1_555 1_555
N1_2 C2_2 1_555 1_555
N3_2 P1_2 1_555 1_555
H1_2 N3_2 1_555 1_555
N4_2 P1_2 1_555 1_555
H2_2 N4_2 1_555 1_555
N6_2 P1_2 1_555 1_555
H3_2 N6_2 1_555 1_555
C2_2 H4_2 1_555 1_555
C3_2 N1_2 1_555 1_555
H5_2 C3_2 1_555 1_555
C5_2 N4_2 1_555 1_555
C6_2 C3_2 1_555 1_555
H7_2 C6_2 1_555 1_555
C7_2 C5_2 1_555 1_555
H8_2 C7_2 1_555 1_555
C8_2 N6_2 1_555 1_555
C13_2 C8_2 1_555 1_555
C15_2 C8_2 1_555 1_555
H15_2 C15_2 1_555 1_555
Cu6_2 N1_2 1_555 1_555
N7_2 Cu3_2 1_555 1_555
N8_2 Cu1_2 1_555 1_555
N9_2 Cu2_2 1_555 1_555
I3_2 Cu2_2 1_555 1_555
C2_2 C5_2 1_555 1_555
C6_2 C7_2 1_555 1_555
C11_2 C14_2 1_555 1_555
C11_2 C15_2 1_555 1_555
N2_2 C4_2 1_555 1_555
C4_2 C1_2 1_555 1_555
H6_2 C4_2 1_555 1_555
C9_2 C1_2 1_555 1_555
C10_2 C9_2 1_555 1_555
H10_2 C10_2 1_555 1_555
C12_2 N2_2 1_555 1_555
H12_2 C12_2 1_555 1_555
Cu4_2 N2_2 1_555 1_555
C10_2 C12_2 1_555 1_555
N2_3 C4_3 1_555 1_555
C4_3 C1_3 1_555 1_555
H6_3 C4_3 1_555 1_555
C9_3 C1_3 1_555 1_555
C10_3 C9_3 1_555 1_555
C12_3 N2_3 1_555 1_555
H12_3 C12_3 1_555 1_555
Cu4_3 N2_3 1_555 1_555
C10_3 C12_3 1_555 1_555
N1_3 C2_3 1_555 1_555
C2_3 H4_3 1_555 1_555
C3_3 N1_3 1_555 1_555
H5_3 C3_3 1_555 1_555
Cu6_3 N1_3 1_555 1_555
I1_3 Cu1_3 1_555 1_555
I3_3 Cu1_3 1_555 1_555
Cu1_3 S1_3 1_555 1_555
Cu2_3 I1_3 1_555 1_555
Cu3_3 I1_3 1_555 1_555
S1_3 Cu3_3 1_555 1_555
P1_3 S1_3 1_555 1_555
N3_3 P1_3 1_555 1_555
H1_3 N3_3 1_555 1_555
N4_3 P1_3 1_555 1_555
H2_3 N4_3 1_555 1_555
N5_3 C13_3 1_555 1_555
N6_3 P1_3 1_555 1_555
H3_3 N6_3 1_555 1_555
C5_3 N4_3 1_555 1_555
H7_3 C6_3 1_555 1_555
C7_3 C5_3 1_555 1_555
H8_3 C7_3 1_555 1_555
C8_3 N6_3 1_555 1_555
C13_3 C8_3 1_555 1_555
H13_3 C13_3 1_555 1_555
C14_3 N5_3 1_555 1_555
H14_3 C14_3 1_555 1_555
C15_3 C8_3 1_555 1_555
H15_3 C15_3 1_555 1_555
Cu5_3 N5_3 1_555 1_555
N7_3 Cu3_3 1_555 1_555
N8_3 Cu1_3 1_555 1_555
N9_3 Cu2_3 1_555 1_555
I3_3 Cu2_3 1_555 1_555
C6_3 C7_3 1_555 1_555
C11_3 C14_3 1_555 1_555
C11_3 C15_3 1_555 1_555
I1_4 Cu1_4 1_555 1_555
I2_4 Cu2_4 1_555 1_555
I3_4 Cu1_4 1_555 1_555
Cu1_4 S1_4 1_555 1_555
Cu2_4 I1_4 1_555 1_555
Cu3_4 I1_4 1_555 1_555
S1_4 Cu3_4 1_555 1_555
P1_4 S1_4 1_555 1_555
N2_4 C4_4 1_555 1_555
N3_4 P1_4 1_555 1_555
H1_4 N3_4 1_555 1_555
N4_4 P1_4 1_555 1_555
H2_4 N4_4 1_555 1_555
N6_4 P1_4 1_555 1_555
H3_4 N6_4 1_555 1_555
C1_4 N3_4 1_555 1_555
C4_4 C1_4 1_555 1_555
H6_4 C4_4 1_555 1_555
C5_4 N4_4 1_555 1_555
H7_4 C6_4 1_555 1_555
C7_4 C5_4 1_555 1_555
H8_4 C7_4 1_555 1_555
C8_4 N6_4 1_555 1_555
C9_4 C1_4 1_555 1_555
H9_4 C9_4 1_555 1_555
C10_4 C9_4 1_555 1_555
C11_4 H11_4 1_555 1_555
C12_4 N2_4 1_555 1_555
H12_4 C12_4 1_555 1_555
C13_4 C8_4 1_555 1_555
C15_4 C8_4 1_555 1_555
H15_4 C15_4 1_555 1_555
Cu4_4 N2_4 1_555 1_555
N7_4 Cu3_4 1_555 1_555
N8_4 Cu1_4 1_555 1_555
N9_4 Cu2_4 1_555 1_555
I2_4 Cu3_4 1_555 1_555
I3_4 Cu2_4 1_555 1_555
C6_4 C7_4 1_555 1_555
C10_4 C12_4 1_555 1_555
C11_4 C14_4 1_555 1_555
C11_4 C15_4 1_555 1_555
Cu5_4 N5_4 1_555 1_555
N1_4 C2_4 1_555 1_555
C2_4 H4_4 1_555 1_555
C3_4 N1_4 1_555 1_555
H5_4 C3_4 1_555 1_555
Cu6_4 N1_4 1_555 1_555
I1_5 Cu4_2 1_555 1_555
I2_5 Cu5_4 1_555 1_555
I3_5 Cu4_2 1_555 1_555
Cu4_2 S1_5 1_555 1_555
Cu5_4 I1_5 1_555 1_555
Cu6_3 I1_5 1_555 1_555
S1_5 Cu6_3 1_555 1_555
P1_5 S1_5 1_555 1_555
N7_3 C2_5 1_555 1_555
N8_2 C4_5 1_555 1_555
N3_5 P1_5 1_555 1_555
H1_5 N3_5 1_555 1_555
N4_5 P1_5 1_555 1_555
H2_5 N4_5 1_555 1_555
N9_4 C13_5 1_555 1_555
N6_5 P1_5 1_555 1_555
H3_5 N6_5 1_555 1_555
C1_5 N3_5 1_555 1_555
C2_5 H4_5 1_555 1_555
C3_5 N7_3 1_555 1_555
H5_5 C3_5 1_555 1_555
C4_5 C1_5 1_555 1_555
H6_5 C4_5 1_555 1_555
C5_5 N4_5 1_555 1_555
C6_5 C3_5 1_555 1_555
H7_5 C6_5 1_555 1_555
C7_5 C5_5 1_555 1_555
H8_5 C7_5 1_555 1_555
C8_5 N6_5 1_555 1_555
C9_5 C1_5 1_555 1_555
H9_5 C9_5 1_555 1_555
C10_5 C9_5 1_555 1_555
H10_4 C10_5 1_555 1_555
C11_5 H11_5 1_555 1_555
C12_5 N8_2 1_555 1_555
H12_5 C12_5 1_555 1_555
C13_5 C8_5 1_555 1_555
H13_5 C13_5 1_555 1_555
C14_5 N9_4 1_555 1_555
H14_5 C14_5 1_555 1_555
C15_5 C8_5 1_555 1_555
H15_5 C15_5 1_555 1_555
I2_5 Cu6_3 1_555 1_555
I3_5 Cu5_4 1_555 1_555
C2_5 C5_5 1_555 1_555
C6_5 C7_5 1_555 1_555
C10_5 C12_5 1_555 1_555
C11_5 C14_5 1_555 1_555
C11_5 C15_5 1_555 1_555
N8 C4_6 1_555 1_555
C4_6 C1_6 1_555 1_555
H6_6 C4_6 1_555 1_555
C9_6 C1_6 1_555 1_555
C10_6 C9_6 1_555 1_555
H10_5 C10_6 1_555 1_555
C12_6 N8 1_555 1_555
H12_6 C12_6 1_555 1_555
C10_6 C12_6 1_555 1_555
I1_6 Cu4 1_555 1_555
I3_6 Cu4 1_555 1_555
Cu4 S1_6 1_555 1_555
Cu5_3 I1_6 1_555 1_555
Cu6_4 I1_6 1_555 1_555
S1_6 Cu6_4 1_555 1_555
P1_6 S1_6 1_555 1_555
N7_4 C2_6 1_555 1_555
N3_6 P1_6 1_555 1_555
H1_6 N3_6 1_555 1_555
N4_6 P1_6 1_555 1_555
H2_6 N4_6 1_555 1_555
N6_6 P1_6 1_555 1_555
H3_6 N6_6 1_555 1_555
C2_6 H4_6 1_555 1_555
C3_6 N7_4 1_555 1_555
H5_6 C3_6 1_555 1_555
C5_6 N4_6 1_555 1_555
C6_6 C3_6 1_555 1_555
H7_6 C6_6 1_555 1_555
C7_6 C5_6 1_555 1_555
H8_6 C7_6 1_555 1_555
C8_6 N6_6 1_555 1_555
C13_6 C8_6 1_555 1_555
C15_6 C8_6 1_555 1_555
H15_6 C15_6 1_555 1_555
I3_6 Cu5_3 1_555 1_555
C2_6 C5_6 1_555 1_555
C6_6 C7_6 1_555 1_555
C11_6 C14_6 1_555 1_555
C11_6 C15_6 1_555 1_555
I1_7 Cu4_4 1_555 1_555
I3_7 Cu4_4 1_555 1_555
Cu4_4 S1_7 1_555 1_555
Cu5_2 I1_7 1_555 1_555
Cu6 I1_7 1_555 1_555
S1_7 Cu6 1_555 1_555
P1_7 S1_7 1_555 1_555
N3_7 P1_7 1_555 1_555
H1_7 N3_7 1_555 1_555
N4_7 P1_7 1_555 1_555
H2_7 N4_7 1_555 1_555
N9_2 C13_7 1_555 1_555
N6_7 P1_7 1_555 1_555
H3_7 N6_7 1_555 1_555
C5_7 N4_7 1_555 1_555
H7_7 C6_7 1_555 1_555
C7_7 C5_7 1_555 1_555
H8_7 C7_7 1_555 1_555
C8_7 N6_7 1_555 1_555
C13_7 C8_7 1_555 1_555
H13_7 C13_7 1_555 1_555
C14_7 N9_2 1_555 1_555
H14_7 C14_7 1_555 1_555
C15_7 C8_7 1_555 1_555
H15_7 C15_7 1_555 1_555
I3_7 Cu5_2 1_555 1_555
C6_7 C7_7 1_555 1_555
C11_7 C14_7 1_555 1_555
C11_7 C15_7 1_555 1_555
N7 C2_7 1_555 1_555
C2_7 H4_7 1_555 1_555
C3_7 N7 1_555 1_555
H5_7 C3_7 1_555 1_555
N8_4 C4_7 1_555 1_555
C4_7 C1_7 1_555 1_555
H6_7 C4_7 1_555 1_555
C9_7 C1_7 1_555 1_555
C10_7 C9_7 1_555 1_555
C12_7 N8_4 1_555 1_555
H12_7 C12_7 1_555 1_555
C10_7 C12_7 1_555 1_555
N7_2 C2_8 1_555 1_555
C2_8 H4_8 1_555 1_555
C3_8 N7_2 1_555 1_555
H5_8 C3_8 1_555 1_555
I1_8 Cu4_3 1_555 1_555
I2_8 Cu5 1_555 1_555
I3_8 Cu4_3 1_555 1_555
Cu4_3 S1_8 1_555 1_555
Cu5 I1_8 1_555 1_555
Cu6_2 I1_8 1_555 1_555
S1_8 Cu6_2 1_555 1_555
P1_8 S1_8 1_555 1_555
N8_3 C4_8 1_555 1_555
N3_8 P1_8 1_555 1_555
H1_8 N3_8 1_555 1_555
N4_8 P1_8 1_555 1_555
H2_8 N4_8 1_555 1_555
N6_8 P1_8 1_555 1_555
H3_8 N6_8 1_555 1_555
C1_8 N3_8 1_555 1_555
C4_8 C1_8 1_555 1_555
H6_8 C4_8 1_555 1_555
C5_8 N4_8 1_555 1_555
H7_8 C6_8 1_555 1_555
C7_8 C5_8 1_555 1_555
H8_8 C7_8 1_555 1_555
C8_8 N6_8 1_555 1_555
C9_8 C1_8 1_555 1_555
H9_8 C9_8 1_555 1_555
C10_8 C9_8 1_555 1_555
C11_8 H11_8 1_555 1_555
C12_8 N8_3 1_555 1_555
H12_8 C12_8 1_555 1_555
C13_8 C8_8 1_555 1_555
C15_8 C8_8 1_555 1_555
H15_8 C15_8 1_555 1_555
I2_8 Cu6_2 1_555 1_555
I3_8 Cu5 1_555 1_555
C6_8 C7_8 1_555 1_555
C10_8 C12_8 1_555 1_555
C11_8 C14_8 1_555 1_555
C11_8 C15_8 1_555 1_555

#END
