
###############################################################################
#
# This file contains modified crystal structure data generated from the
# MOF subset of the Cambridge Structural Database (CSD) v543 
# hosted by the Cambridge Crystallographic Data Centre (CCDC).
#
# This work is licensed under the Creative Commons
# Attribution-NonCommercial-ShareAlike 4.0 International License.
# To view a copy of this license, visit
# http://creativecommons.org/licenses/by-nc-sa/4.0/
# or send a letter to
# Creative Commons, PO Box 1866, Mountain View, CA 94042, USA.
#
# CIF created using the CSD Python API on 29 September 2022
# The structure has been converted into the P1 space group
# The structure has a 3D framework
# The original CSD entry ILOJOJ is in the monoclinic crystal system
# The framework has been calculated to contain at least 10.0% void space
# The void calculation uses a probe of radius 1.32A, grid spacing 0.4
# H atom positions have been added when not included in the experimental data
#
###############################################################################

data_ILOJOJ
_chemical_formula_moiety         '(C184 H152 Cu8 N48 O40)n'
_symmetry_cell_setting           triclinic
_symmetry_space_group_name_H-M   'P 1'
_symmetry_Int_Tables_number      1
_space_group_name_Hall           'P 1'
loop_
_symmetry_equiv_pos_site_id
_symmetry_equiv_pos_as_xyz
1 x,y,z
_cell_length_a                   28.600(4)
_cell_length_b                   11.5539(14)
_cell_length_c                   17.686(2)
_cell_angle_alpha                90
_cell_angle_beta                 116.123(2)
_cell_angle_gamma                90
_cell_volume                     5247.21
loop_
_atom_site_label
_atom_site_type_symbol
_atom_site_fract_x
_atom_site_fract_y
_atom_site_fract_z
Cu1 Cu 0.19909(3) 0.03632(5) 0.22981(4)
C1 C 0.2175(2) 0.1851(6) 0.3840(4)
H1 H 0.2311 0.1246 0.4222
C2 C 0.1873(2) 0.2756(5) 0.2715(3)
H2 H 0.1747 0.2965 0.2152
C3 C 0.1760(2) 0.4676(5) 0.3294(4)
H3 H 0.1680 0.4984 0.2740
H4 H 0.2048 0.5121 0.3703
C4 C 0.1303(2) 0.4822(5) 0.3461(4)
C5 C 0.0936(2) 0.3951(5) 0.3318(4)
H5 H 0.0986 0.3228 0.3134
C6 C 0.0499(2) 0.4148(5) 0.3446(4)
H6 H 0.0258 0.3555 0.3345
C7 C 0.0412(2) 0.5219(5) 0.3724(4)
C8 C 0.0797(3) 0.6042(6) 0.3922(5)
H7 H 0.0763 0.6744 0.4150
C9 C 0.1234(3) 0.5846(6) 0.3790(5)
H8 H 0.1486 0.6422 0.3927
N1 N 0.20261(17) 0.1718(4) 0.3007(3)
N2 N 0.2116(2) 0.2883(5) 0.4066(3)
N3 N 0.19209(16) 0.3473(4) 0.3331(3)
O5 O 0.0928(6) 0.0900(14) 0.1573(9)
O11 O 0.22576(15) 0.1313(3) 0.1661(2)
H35 H 0.0874505 0.169694 0.133957
H36 H 0.0734209 0.0342207 0.111364
C19 C 0.2368(2) 0.8882(4) 0.3560(3)
C20 C 0.2432(2) 0.8154(4) 0.4289(3)
C21 C 0.2769(2) 0.7209(4) 0.4534(3)
C22 C 0.2162(2) 0.8424(4) 0.4761(3)
H17 H 0.1932 0.9045 0.4597
C23 C 0.3051(2) 0.6793(4) 0.4032(3)
O1 O 0.19155(17) 0.9344(3) 0.3136(2)
O2 O 0.27351(15) 0.9064(3) 0.3392(2)
O3 O 0.27424(15) 0.6313(3) 0.3339(2)
O4 O 0.35213(17) 0.6904(4) 0.4299(3)
Cu4 Cu 0.30091(3) 0.53632(5) 0.27019(4)
Cu5 Cu 0.30091(3) 0.46368(5) 0.77019(4)
Cu6 Cu 0.19909(3) 0.96368(5) 0.72981(4)
C33 C 0.0065(2) 0.5447(5) 0.1155(4)
C34 C 0.0361(2) 0.4572(5) 0.1061(4)
H26 H 0.0266 0.3806 0.1077
C35 C 0.0805(2) 0.4820(5) 0.0940(4)
H27 H 0.1000 0.4215 0.0878
C36 C 0.0954(2) 0.5922(5) 0.0914(4)
C37 C 0.0659(3) 0.6812(6) 0.1009(6)
H28 H 0.0751 0.7578 0.0984
C38 C 0.0232(3) 0.6563(6) 0.1137(6)
H29 H 0.0046 0.7173 0.1217
C39 C 0.1424(2) 0.6154(5) 0.0758(4)
H30 H 0.1712 0.5678 0.1134
H31 H 0.1345 0.5934 0.0184
C40 C 0.1788(2) 0.7971(5) 0.1599(4)
H32 H 0.1903 0.7639 0.2130
C41 C 0.1630(4) 0.9171(6) 0.0631(4)
H33 H 0.1628 0.9849 0.0346
C42 C 0.2632(2) 0.6118(4) 0.6440(3)
C43 C 0.2568(2) 0.6846(4) 0.5711(3)
C44 C 0.2231(2) 0.7791(4) 0.5466(3)
C45 C 0.2838(2) 0.6576(4) 0.5239(3)
H34 H 0.3068 0.5955 0.5403
C46 C 0.1949(2) 0.8207(4) 0.5968(3)
N10 N 0.18119(18) 0.9056(4) 0.1476(3)
N12 N 0.1461(3) 0.8164(6) 0.0289(4)
N13 N 0.15817(17) 0.7371(4) 0.0886(3)
O6 O 0.30845(17) 0.5656(3) 0.6864(2)
O8 O 0.22649(15) 0.5936(3) 0.6608(2)
O10 O 0.22576(15) 0.8687(3) 0.6661(2)
O13 O 0.14787(17) 0.8096(4) 0.5701(3)
Cu3 Cu 0.80091(3) 0.03632(5) 0.27019(4)
C10 C 0.9935(2) 0.5447(5) 0.3845(4)
C11 C 0.9639(2) 0.4572(5) 0.3939(4)
H9 H 0.9734 0.3806 0.3923
C12 C 0.9195(2) 0.4820(5) 0.4060(4)
H10 H 0.9000 0.4215 0.4122
C13 C 0.9046(2) 0.5922(5) 0.4086(4)
C14 C 0.9341(3) 0.6812(6) 0.3991(6)
H11 H 0.9249 0.7578 0.4016
C15 C 0.9768(3) 0.6563(6) 0.3863(6)
H12 H 0.9954 0.7173 0.3783
C16 C 0.8576(2) 0.6154(5) 0.4242(4)
H13 H 0.8288 0.5678 0.3866
H14 H 0.8655 0.5934 0.4816
C17 C 0.8212(2) 0.7971(5) 0.3401(4)
H15 H 0.8097 0.7639 0.2870
C18 C 0.8370(4) 0.9171(6) 0.4369(4)
H16 H 0.8372 0.9849 0.4654
N4 N 0.81881(18) 0.9056(4) 0.3524(3)
N5 N 0.8539(3) 0.8164(6) 0.4711(4)
N6 N 0.84183(17) 0.7371(4) 0.4114(3)
C24 C 0.7825(2) 0.1851(6) 0.1160(4)
H18 H 0.7689 0.1246 0.0778
C25 C 0.8127(2) 0.2756(5) 0.2285(3)
H19 H 0.8253 0.2965 0.2848
C26 C 0.8240(2) 0.4676(5) 0.1706(4)
H20 H 0.8320 0.4984 0.2260
H21 H 0.7952 0.5121 0.1297
C27 C 0.8697(2) 0.4822(5) 0.1539(4)
C28 C 0.9064(2) 0.3951(5) 0.1682(4)
H22 H 0.9014 0.3228 0.1866
C29 C 0.9501(2) 0.4148(5) 0.1554(4)
H23 H 0.9742 0.3555 0.1655
C30 C 0.9588(2) 0.5219(5) 0.1276(4)
C31 C 0.9203(3) 0.6042(6) 0.1078(5)
H24 H 0.9237 0.6744 0.0850
C32 C 0.8766(3) 0.5846(6) 0.1210(5)
H25 H 0.8514 0.6422 0.1073
N7 N 0.79739(17) 0.1718(4) 0.1993(3)
N8 N 0.7884(2) 0.2883(5) 0.0934(3)
N9 N 0.80791(16) 0.3473(4) 0.1669(3)
O12 O 0.77424(15) 0.1313(3) 0.3339(2)
O14 O 0.9072(6) 0.0900(14) 0.3427(9)
H37 H 0.91255 0.169694 0.366043
H38 H 0.926579 0.0342207 0.388636
O7 O 0.80845(17) 0.9344(3) 0.1864(2)
O9 O 0.72649(15) 0.9064(3) 0.1608(2)
C19_2 C 0.7632(2) 0.8882(4) 0.1440(3)
C20_2 C 0.7568(2) 0.8154(4) 0.0711(3)
C21_2 C 0.7231(2) 0.7209(4) 0.0466(3)
C22_2 C 0.7838(2) 0.8424(4) 0.0239(3)
H17_2 H 0.8068 0.9045 0.0403
C23_2 C 0.6949(2) 0.6793(4) 0.0968(3)
O3_2 O 0.72576(15) 0.6313(3) 0.1661(2)
O4_2 O 0.64787(17) 0.6904(4) 0.0701(3)
Cu4_2 Cu 0.69909(3) 0.53632(5) 0.22981(4)
Cu5_2 Cu 0.69909(3) 0.46368(5) 0.72981(4)
Cu6_2 Cu 0.80091(3) 0.96368(5) 0.77019(4)
C42_2 C 0.7368(2) 0.6118(4) 0.8560(3)
C43_2 C 0.7432(2) 0.6846(4) 0.9289(3)
C44_2 C 0.7769(2) 0.7791(4) 0.9534(3)
C45_2 C 0.7162(2) 0.6576(4) 0.9761(3)
H34_2 H 0.6932 0.5955 0.9597
C46_2 C 0.8051(2) 0.8207(4) 0.9032(3)
O6_2 O 0.69155(17) 0.5656(3) 0.8136(2)
O8_2 O 0.77351(15) 0.5936(3) 0.8392(2)
O10_2 O 0.77424(15) 0.8687(3) 0.8339(2)
O13_2 O 0.85213(17) 0.8096(4) 0.9299(3)
H4_2 H 0.7048 0.0121 0.3703
C7_2 C 0.5412(2) 0.0219(5) 0.3724(4)
C8_2 C 0.5797(3) 0.1042(6) 0.3922(5)
H7_2 H 0.5763 0.1744 0.4150
C9_2 C 0.6234(3) 0.0846(6) 0.3790(5)
H8_2 H 0.6486 0.1422 0.3927
C10_2 C 0.4935(2) 0.0447(5) 0.3845(4)
C13_2 C 0.4046(2) 0.0922(5) 0.4086(4)
C14_2 C 0.4341(3) 0.1812(6) 0.3991(6)
H11_2 H 0.4249 0.2578 0.4016
C15_2 C 0.4768(3) 0.1563(6) 0.3863(6)
H12_2 H 0.4954 0.2173 0.3783
C16_2 C 0.3576(2) 0.1154(5) 0.4242(4)
H13_2 H 0.3288 0.0678 0.3866
H14_2 H 0.3655 0.0934 0.4816
C17_2 C 0.3212(2) 0.2971(5) 0.3401(4)
H15_2 H 0.3097 0.2639 0.2870
C18_2 C 0.3370(4) 0.4171(6) 0.4369(4)
H16_2 H 0.3372 0.4849 0.4654
N4_2 N 0.31881(18) 0.4056(4) 0.3524(3)
N5_2 N 0.3539(3) 0.3164(6) 0.4711(4)
N6_2 N 0.34183(17) 0.2371(4) 0.4114(3)
C1_2 C 0.7175(2) 0.6851(6) 0.3840(4)
H1_2 H 0.7311 0.6246 0.4222
C2_2 C 0.6873(2) 0.7756(5) 0.2715(3)
H2_2 H 0.6747 0.7965 0.2152
C3_2 C 0.6760(2) 0.9676(5) 0.3294(4)
H3_2 H 0.6680 0.9984 0.2740
C4_2 C 0.6303(2) 0.9822(5) 0.3461(4)
C5_2 C 0.5936(2) 0.8951(5) 0.3318(4)
H5_2 H 0.5986 0.8228 0.3134
C6_2 C 0.5499(2) 0.9148(5) 0.3446(4)
H6_2 H 0.5258 0.8555 0.3345
C11_2 C 0.4639(2) 0.9572(5) 0.3939(4)
H9_2 H 0.4734 0.8806 0.3923
C12_2 C 0.4195(2) 0.9820(5) 0.4060(4)
H10_2 H 0.4000 0.9215 0.4122
C19_3 C 0.7368(2) 0.3882(4) 0.3560(3)
C20_3 C 0.7432(2) 0.3154(4) 0.4289(3)
C21_3 C 0.7769(2) 0.2209(4) 0.4534(3)
C22_3 C 0.7162(2) 0.3424(4) 0.4761(3)
H17_3 H 0.6932 0.4045 0.4597
C23_3 C 0.8051(2) 0.1793(4) 0.4032(3)
N1_2 N 0.70261(17) 0.6718(4) 0.3007(3)
N2_2 N 0.7116(2) 0.7883(5) 0.4066(3)
N3_2 N 0.69209(16) 0.8473(4) 0.3331(3)
O1_2 O 0.69155(17) 0.4344(3) 0.3136(2)
O2_2 O 0.77351(15) 0.4064(3) 0.3392(2)
O4_3 O 0.85213(17) 0.1904(4) 0.4299(3)
O5_2 O 0.5928(6) 0.5900(14) 0.1573(9)
H21_2 H 0.2952 0.0121 0.1297
C30_2 C 0.4588(2) 0.0219(5) 0.1276(4)
C31_2 C 0.4203(3) 0.1042(6) 0.1078(5)
H24_2 H 0.4237 0.1744 0.0850
C32_2 C 0.3766(3) 0.0846(6) 0.1210(5)
H25_2 H 0.3514 0.1422 0.1073
C33_2 C 0.5065(2) 0.0447(5) 0.1155(4)
C36_2 C 0.5954(2) 0.0922(5) 0.0914(4)
C37_2 C 0.5659(3) 0.1812(6) 0.1009(6)
H28_2 H 0.5751 0.2578 0.0984
C38_2 C 0.5232(3) 0.1563(6) 0.1137(6)
H29_2 H 0.5046 0.2173 0.1217
C39_2 C 0.6424(2) 0.1154(5) 0.0758(4)
H30_2 H 0.6712 0.0678 0.1134
H31_2 H 0.6345 0.0934 0.0184
C40_2 C 0.6788(2) 0.2971(5) 0.1599(4)
H32_2 H 0.6903 0.2639 0.2130
C41_2 C 0.6630(4) 0.4171(6) 0.0631(4)
H33_2 H 0.6628 0.4849 0.0346
C42_3 C 0.7632(2) 0.1118(4) 0.6440(3)
C43_3 C 0.7568(2) 0.1846(4) 0.5711(3)
C44_3 C 0.7231(2) 0.2791(4) 0.5466(3)
C45_3 C 0.7838(2) 0.1576(4) 0.5239(3)
H34_3 H 0.8068 0.0955 0.5403
C46_3 C 0.6949(2) 0.3207(4) 0.5968(3)
N10_2 N 0.68119(18) 0.4056(4) 0.1476(3)
N12_2 N 0.6461(3) 0.3164(6) 0.0289(4)
N13_2 N 0.65817(17) 0.2371(4) 0.0886(3)
O6_3 O 0.80845(17) 0.0656(3) 0.6864(2)
O8_3 O 0.72649(15) 0.0936(3) 0.6608(2)
O10_3 O 0.72576(15) 0.3687(3) 0.6661(2)
O13_3 O 0.64787(17) 0.3096(4) 0.5701(3)
H35_2 H 0.58745 0.669694 0.133957
H36_2 H 0.573421 0.534221 0.111364
C24_2 C 0.2825(2) 0.6851(6) 0.1160(4)
H18_2 H 0.2689 0.6246 0.0778
C25_2 C 0.3127(2) 0.7756(5) 0.2285(3)
H19_2 H 0.3253 0.7965 0.2848
C26_2 C 0.3240(2) 0.9676(5) 0.1706(4)
H20_2 H 0.3320 0.9984 0.2260
C27_2 C 0.3697(2) 0.9822(5) 0.1539(4)
C28_2 C 0.4064(2) 0.8951(5) 0.1682(4)
H22_2 H 0.4014 0.8228 0.1866
C29_2 C 0.4501(2) 0.9148(5) 0.1554(4)
H23_2 H 0.4742 0.8555 0.1655
C34_2 C 0.5361(2) 0.9572(5) 0.1061(4)
H26_2 H 0.5266 0.8806 0.1077
C35_2 C 0.5805(2) 0.9820(5) 0.0940(4)
H27_2 H 0.6000 0.9215 0.0878
N7_2 N 0.29739(17) 0.6718(4) 0.1993(3)
N8_2 N 0.2884(2) 0.7883(5) 0.0934(3)
N9_2 N 0.30791(16) 0.8473(4) 0.1669(3)
O7_2 O 0.30845(17) 0.4344(3) 0.1864(2)
O9_2 O 0.22649(15) 0.4064(3) 0.1608(2)
O14_2 O 0.4072(6) 0.5900(14) 0.3427(9)
H37_2 H 0.41255 0.669694 0.366043
H38_2 H 0.426579 0.534221 0.388636
C19_4 C 0.2632(2) 0.3882(4) 0.1440(3)
C20_4 C 0.2568(2) 0.3154(4) 0.0711(3)
C21_4 C 0.2231(2) 0.2209(4) 0.0466(3)
C22_4 C 0.2838(2) 0.3424(4) 0.0239(3)
H17_4 H 0.3068 0.4045 0.0403
C23_4 C 0.1949(2) 0.1793(4) 0.0968(3)
O4_4 O 0.14787(17) 0.1904(4) 0.0701(3)
C42_4 C 0.2368(2) 0.1118(4) 0.8560(3)
C43_4 C 0.2432(2) 0.1846(4) 0.9289(3)
C44_4 C 0.2769(2) 0.2791(4) 0.9534(3)
C45_4 C 0.2162(2) 0.1576(4) 0.9761(3)
H34_4 H 0.1932 0.0955 0.9597
C46_4 C 0.3051(2) 0.3207(4) 0.9032(3)
O6_4 O 0.19155(17) 0.0656(3) 0.8136(2)
O8_4 O 0.27351(15) 0.0936(3) 0.8392(2)
O10_4 O 0.27424(15) 0.3687(3) 0.8339(2)
O13_4 O 0.35213(17) 0.3096(4) 0.9299(3)
N11 N 0.18119(18) 0.0944(4) 0.6476(3)
C24_3 C 0.2175(2) 0.8149(6) 0.8840(4)
H18_3 H 0.2311 0.8754 0.9222
C25_3 C 0.1873(2) 0.7244(5) 0.7715(3)
H19_3 H 0.1747 0.7035 0.7152
C26_3 C 0.1760(2) 0.5324(5) 0.8294(4)
H20_3 H 0.1680 0.5016 0.7740
H21_3 H 0.2048 0.4879 0.8703
C27_3 C 0.1303(2) 0.5178(5) 0.8461(4)
C28_3 C 0.0936(2) 0.6049(5) 0.8318(4)
H22_3 H 0.0986 0.6772 0.8134
C29_3 C 0.0499(2) 0.5852(5) 0.8446(4)
H23_3 H 0.0258 0.6445 0.8345
C30_3 C 0.0412(2) 0.4781(5) 0.8724(4)
C31_3 C 0.0797(3) 0.3958(6) 0.8922(5)
H24_3 H 0.0763 0.3256 0.9150
C32_3 C 0.1234(3) 0.4154(6) 0.8790(5)
H25_3 H 0.1486 0.3578 0.8927
N7_3 N 0.20261(17) 0.8282(4) 0.8007(3)
N8_3 N 0.2116(2) 0.7117(5) 0.9066(3)
N9_3 N 0.19209(16) 0.6527(4) 0.8331(3)
O14_3 O 0.0928(6) 0.9100(14) 0.6573(9)
H37_3 H 0.0874505 0.830306 0.633957
H38_3 H 0.0734209 0.965779 0.611364
C10_3 C 0.0065(2) 0.4553(5) 0.6155(4)
C11_3 C 0.0361(2) 0.5428(5) 0.6061(4)
H9_3 H 0.0266 0.6194 0.6077
C12_3 C 0.0805(2) 0.5180(5) 0.5940(4)
H10_3 H 0.1000 0.5785 0.5878
C13_3 C 0.0954(2) 0.4078(5) 0.5914(4)
C14_3 C 0.0659(3) 0.3188(6) 0.6009(6)
H11_3 H 0.0751 0.2422 0.5984
C15_3 C 0.0232(3) 0.3437(6) 0.6137(6)
H12_3 H 0.0046 0.2827 0.6217
C16_3 C 0.1424(2) 0.3846(5) 0.5758(4)
H13_3 H 0.1712 0.4322 0.6134
H14_3 H 0.1345 0.4066 0.5184
C17_3 C 0.1788(2) 0.2029(5) 0.6599(4)
H15_3 H 0.1903 0.2361 0.7130
C18_3 C 0.1630(4) 0.0829(6) 0.5631(4)
H16_3 H 0.1628 0.0151 0.5346
N5_3 N 0.1461(3) 0.1836(6) 0.5289(4)
N6_3 N 0.15817(17) 0.2629(4) 0.5886(3)
C33_3 C 0.9935(2) 0.4553(5) 0.8845(4)
C34_3 C 0.9639(2) 0.5428(5) 0.8939(4)
H26_3 H 0.9734 0.6194 0.8923
C35_3 C 0.9195(2) 0.5180(5) 0.9060(4)
H27_3 H 0.9000 0.5785 0.9122
C36_3 C 0.9046(2) 0.4078(5) 0.9086(4)
C37_3 C 0.9341(3) 0.3188(6) 0.8991(6)
H28_3 H 0.9249 0.2422 0.9016
C38_3 C 0.9768(3) 0.3437(6) 0.8863(6)
H29_3 H 0.9954 0.2827 0.8783
C39_3 C 0.8576(2) 0.3846(5) 0.9242(4)
H30_3 H 0.8288 0.4322 0.8866
H31_3 H 0.8655 0.4066 0.9816
C40_3 C 0.8212(2) 0.2029(5) 0.8401(4)
H32_3 H 0.8097 0.2361 0.7870
C41_3 C 0.8370(4) 0.0829(6) 0.9369(4)
H33_3 H 0.8372 0.0151 0.9654
N10_3 N 0.81881(18) 0.0944(4) 0.8524(3)
N12_3 N 0.8539(3) 0.1836(6) 0.9711(4)
N13_3 N 0.84183(17) 0.2629(4) 0.9114(3)
C1_3 C 0.7825(2) 0.8149(6) 0.6160(4)
H1_3 H 0.7689 0.8754 0.5778
C2_3 C 0.8127(2) 0.7244(5) 0.7285(3)
H2_3 H 0.8253 0.7035 0.7848
C3_3 C 0.8240(2) 0.5324(5) 0.6706(4)
H3_3 H 0.8320 0.5016 0.7260
H4_3 H 0.7952 0.4879 0.6297
C4_3 C 0.8697(2) 0.5178(5) 0.6539(4)
C5_3 C 0.9064(2) 0.6049(5) 0.6682(4)
H5_3 H 0.9014 0.6772 0.6866
C6_3 C 0.9501(2) 0.5852(5) 0.6554(4)
H6_3 H 0.9742 0.6445 0.6655
C7_3 C 0.9588(2) 0.4781(5) 0.6276(4)
C8_3 C 0.9203(3) 0.3958(6) 0.6078(5)
H7_3 H 0.9237 0.3256 0.5850
C9_3 C 0.8766(3) 0.4154(6) 0.6210(5)
H8_3 H 0.8514 0.3578 0.6073
N1_3 N 0.79739(17) 0.8282(4) 0.6993(3)
N2_3 N 0.7884(2) 0.7117(5) 0.5934(3)
N3_3 N 0.80791(16) 0.6527(4) 0.6669(3)
O5_3 O 0.9072(6) 0.9100(14) 0.8427(9)
H35_3 H 0.91255 0.830306 0.866043
H36_3 H 0.926579 0.965779 0.888636
C24_4 C 0.7175(2) 0.3149(6) 0.8840(4)
H18_4 H 0.7311 0.3754 0.9222
C25_4 C 0.6873(2) 0.2244(5) 0.7715(3)
H19_4 H 0.6747 0.2035 0.7152
C26_4 C 0.6760(2) 0.0324(5) 0.8294(4)
H20_4 H 0.6680 0.0016 0.7740
C27_4 C 0.6303(2) 0.0178(5) 0.8461(4)
C28_4 C 0.5936(2) 0.1049(5) 0.8318(4)
H22_4 H 0.5986 0.1772 0.8134
C29_4 C 0.5499(2) 0.0852(5) 0.8446(4)
H23_4 H 0.5258 0.1445 0.8345
C34_4 C 0.4639(2) 0.0428(5) 0.8939(4)
H26_4 H 0.4734 0.1194 0.8923
C35_4 C 0.4195(2) 0.0180(5) 0.9060(4)
H27_4 H 0.4000 0.0785 0.9122
N7_4 N 0.70261(17) 0.3282(4) 0.8007(3)
N8_4 N 0.7116(2) 0.2117(5) 0.9066(3)
N9_4 N 0.69209(16) 0.1527(4) 0.8331(3)
N11_2 N 0.68119(18) 0.5944(4) 0.6476(3)
O14_4 O 0.5928(6) 0.4100(14) 0.6573(9)
H37_4 H 0.58745 0.330306 0.633957
H38_4 H 0.573421 0.465779 0.611364
C1_4 C 0.2825(2) 0.3149(6) 0.6160(4)
H1_4 H 0.2689 0.3754 0.5778
C2_4 C 0.3127(2) 0.2244(5) 0.7285(3)
H2_4 H 0.3253 0.2035 0.7848
C3_4 C 0.3240(2) 0.0324(5) 0.6706(4)
H3_4 H 0.3320 0.0016 0.7260
C4_4 C 0.3697(2) 0.0178(5) 0.6539(4)
C5_4 C 0.4064(2) 0.1049(5) 0.6682(4)
H5_4 H 0.4014 0.1772 0.6866
C6_4 C 0.4501(2) 0.0852(5) 0.6554(4)
H6_4 H 0.4742 0.1445 0.6655
C11_4 C 0.5361(2) 0.0428(5) 0.6061(4)
H9_4 H 0.5266 0.1194 0.6077
C12_4 C 0.5805(2) 0.0180(5) 0.5940(4)
H10_4 H 0.6000 0.0785 0.5878
N1_4 N 0.29739(17) 0.3282(4) 0.6993(3)
N2_4 N 0.2884(2) 0.2117(5) 0.5934(3)
N3_4 N 0.30791(16) 0.1527(4) 0.6669(3)
O5_4 O 0.4072(6) 0.4100(14) 0.8427(9)
H21_4 H 0.7048 0.9879 0.8703
C30_4 C 0.5412(2) 0.9781(5) 0.8724(4)
C31_4 C 0.5797(3) 0.8958(6) 0.8922(5)
H24_4 H 0.5763 0.8256 0.9150
C32_4 C 0.6234(3) 0.9154(6) 0.8790(5)
H25_4 H 0.6486 0.8578 0.8927
C33_4 C 0.4935(2) 0.9553(5) 0.8845(4)
C36_4 C 0.4046(2) 0.9078(5) 0.9086(4)
C37_4 C 0.4341(3) 0.8188(6) 0.8991(6)
H28_4 H 0.4249 0.7422 0.9016
C38_4 C 0.4768(3) 0.8437(6) 0.8863(6)
H29_4 H 0.4954 0.7827 0.8783
C39_4 C 0.3576(2) 0.8846(5) 0.9242(4)
H30_4 H 0.3288 0.9322 0.8866
H31_4 H 0.3655 0.9066 0.9816
C40_4 C 0.3212(2) 0.7029(5) 0.8401(4)
H32_4 H 0.3097 0.7361 0.7870
C41_4 C 0.3370(4) 0.5829(6) 0.9369(4)
H33_4 H 0.3372 0.5151 0.9654
N10_4 N 0.31881(18) 0.5944(4) 0.8524(3)
N12_4 N 0.3539(3) 0.6836(6) 0.9711(4)
N13_4 N 0.34183(17) 0.7629(4) 0.9114(3)
H35_4 H 0.41255 0.330306 0.866043
H36_4 H 0.426579 0.465779 0.888636
H4_4 H 0.2952 0.9879 0.6297
C7_4 C 0.4588(2) 0.9781(5) 0.6276(4)
C8_4 C 0.4203(3) 0.8958(6) 0.6078(5)
H7_4 H 0.4237 0.8256 0.5850
C9_4 C 0.3766(3) 0.9154(6) 0.6210(5)
H8_4 H 0.3514 0.8578 0.6073
C10_4 C 0.5065(2) 0.9553(5) 0.6155(4)
C13_4 C 0.5954(2) 0.9078(5) 0.5914(4)
C14_4 C 0.5659(3) 0.8188(6) 0.6009(6)
H11_4 H 0.5751 0.7422 0.5984
C15_4 C 0.5232(3) 0.8437(6) 0.6137(6)
H12_4 H 0.5046 0.7827 0.6217
C16_4 C 0.6424(2) 0.8846(5) 0.5758(4)
H13_4 H 0.6712 0.9322 0.6134
H14_4 H 0.6345 0.9066 0.5184
C17_4 C 0.6788(2) 0.7029(5) 0.6599(4)
H15_4 H 0.6903 0.7361 0.7130
C18_4 C 0.6630(4) 0.5829(6) 0.5631(4)
H16_4 H 0.6628 0.5151 0.5346
N5_4 N 0.6461(3) 0.6836(6) 0.5289(4)
N6_4 N 0.65817(17) 0.7629(4) 0.5886(3)
loop_
_geom_bond_atom_site_label_1
_geom_bond_atom_site_label_2
_geom_bond_site_symmetry_1
_geom_bond_site_symmetry_2
Cu1 N1 1_555 1_555
C1 H1 1_555 1_555
C2 H2 1_555 1_555
C3 H3 1_555 1_555
H4 C3 1_555 1_555
C4 C3 1_555 1_555
C5 C4 1_555 1_555
H5 C5 1_555 1_555
C6 C5 1_555 1_555
H6 C6 1_555 1_555
C7 C6 1_555 1_555
C8 C7 1_555 1_555
H7 C8 1_555 1_555
C9 C4 1_555 1_555
H8 C9 1_555 1_555
N1 C1 1_555 1_555
N2 C1 1_555 1_555
N3 C2 1_555 1_555
O5 Cu1 1_555 1_555
O11 Cu1 1_555 1_555
C2 N1 1_555 1_555
C3 N3 1_555 1_555
C8 C9 1_555 1_555
N2 N3 1_555 1_555
O5 H35 1_555 1_555
O5 H36 1_555 1_555
C19 C20 1_555 1_555
C20 C21 1_555 1_555
C21 C23 1_555 1_555
C22 C20 1_555 1_555
H17 C22 1_555 1_555
C23 O3 1_555 1_555
O3 Cu4 1_555 1_555
O4 C23 1_555 1_555
Cu5 O6 1_555 1_555
Cu6 O10 1_555 1_555
C34 C33 1_555 1_555
H26 C34 1_555 1_555
C35 C34 1_555 1_555
H27 C35 1_555 1_555
C36 C35 1_555 1_555
C37 C36 1_555 1_555
H28 C37 1_555 1_555
C38 C33 1_555 1_555
H29 C38 1_555 1_555
C39 C36 1_555 1_555
H30 C39 1_555 1_555
H31 C39 1_555 1_555
C40 H32 1_555 1_555
C41 H33 1_555 1_555
C42 C43 1_555 1_555
C43 C44 1_555 1_555
C44 C22 1_555 1_555
C45 C21 1_555 1_555
H34 C45 1_555 1_555
C46 C44 1_555 1_555
N12 C41 1_555 1_555
N13 C39 1_555 1_555
O6 C42 1_555 1_555
O8 Cu5 1_555 1_555
O10 C46 1_555 1_555
O13 C46 1_555 1_555
C19 O1 1_555 1_555
C19 O2 1_555 1_555
C37 C38 1_555 1_555
C40 N10 1_555 1_555
C40 N13 1_555 1_555
C41 N10 1_555 1_555
C42 O8 1_555 1_555
C43 C45 1_555 1_555
N12 N13 1_555 1_555
C11 C10 1_555 1_555
H9 C11 1_555 1_555
C12 C11 1_555 1_555
H10 C12 1_555 1_555
C13 C12 1_555 1_555
C14 C13 1_555 1_555
H11 C14 1_555 1_555
C15 C10 1_555 1_555
H12 C15 1_555 1_555
C16 C13 1_555 1_555
H13 C16 1_555 1_555
H14 C16 1_555 1_555
C17 H15 1_555 1_555
C18 H16 1_555 1_555
N4 C17 1_555 1_555
N5 C18 1_555 1_555
N6 C16 1_555 1_555
C14 C15 1_555 1_555
C17 N6 1_555 1_555
C18 N4 1_555 1_555
N5 N6 1_555 1_555
Cu3 N7 1_555 1_555
C24 H18 1_555 1_555
C25 H19 1_555 1_555
C26 H20 1_555 1_555
H21 C26 1_555 1_555
C27 C26 1_555 1_555
C28 C27 1_555 1_555
H22 C28 1_555 1_555
C29 C28 1_555 1_555
H23 C29 1_555 1_555
C30 C29 1_555 1_555
C31 C30 1_555 1_555
H24 C31 1_555 1_555
C32 C27 1_555 1_555
H25 C32 1_555 1_555
N7 C24 1_555 1_555
N8 C24 1_555 1_555
N9 C25 1_555 1_555
O12 Cu3 1_555 1_555
O14 Cu3 1_555 1_555
C25 N7 1_555 1_555
C26 N9 1_555 1_555
C31 C32 1_555 1_555
N8 N9 1_555 1_555
O14 H37 1_555 1_555
O14 H38 1_555 1_555
C19_2 C20_2 1_555 1_555
C20_2 C21_2 1_555 1_555
C21_2 C23_2 1_555 1_555
C22_2 C20_2 1_555 1_555
H17_2 C22_2 1_555 1_555
C23_2 O3_2 1_555 1_555
O3_2 Cu4_2 1_555 1_555
O4_2 C23_2 1_555 1_555
C19_2 O7 1_555 1_555
C19_2 O9 1_555 1_555
Cu5_2 O6_2 1_555 1_555
Cu6_2 O10_2 1_555 1_555
C42_2 C43_2 1_555 1_555
C43_2 C44_2 1_555 1_555
H34_2 C45_2 1_555 1_555
C46_2 C44_2 1_555 1_555
O6_2 C42_2 1_555 1_555
O8_2 Cu5_2 1_555 1_555
O10_2 C46_2 1_555 1_555
O13_2 C46_2 1_555 1_555
C42_2 O8_2 1_555 1_555
C43_2 C45_2 1_555 1_555
C8_2 C7_2 1_555 1_555
H7_2 C8_2 1_555 1_555
H8_2 C9_2 1_555 1_555
C10_2 C7_2 1_555 1_555
C14_2 C13_2 1_555 1_555
H11_2 C14_2 1_555 1_555
C15_2 C10_2 1_555 1_555
H12_2 C15_2 1_555 1_555
C16_2 C13_2 1_555 1_555
H13_2 C16_2 1_555 1_555
H14_2 C16_2 1_555 1_555
C17_2 H15_2 1_555 1_555
C18_2 H16_2 1_555 1_555
N4_2 C17_2 1_555 1_555
N5_2 C18_2 1_555 1_555
N6_2 C16_2 1_555 1_555
Cu4 N4_2 1_555 1_555
C8_2 C9_2 1_555 1_555
C14_2 C15_2 1_555 1_555
C17_2 N6_2 1_555 1_555
C18_2 N4_2 1_555 1_555
N5_2 N6_2 1_555 1_555
Cu4_2 N1_2 1_555 1_555
C1_2 H1_2 1_555 1_555
C2_2 H2_2 1_555 1_555
C3_2 H3_2 1_555 1_555
C4_2 C3_2 1_555 1_555
C5_2 C4_2 1_555 1_555
H5_2 C5_2 1_555 1_555
C6_2 C5_2 1_555 1_555
H6_2 C6_2 1_555 1_555
H9_2 C11_2 1_555 1_555
C12_2 C11_2 1_555 1_555
H10_2 C12_2 1_555 1_555
C19_3 C20_3 1_555 1_555
C20_3 C21_3 1_555 1_555
C21_3 C23_3 1_555 1_555
C22_3 C20_3 1_555 1_555
H17_3 C22_3 1_555 1_555
C23_3 O12 1_555 1_555
N1_2 C1_2 1_555 1_555
N2_2 C1_2 1_555 1_555
N3_2 C2_2 1_555 1_555
O1_2 Cu4_2 1_555 1_555
O2_2 Cu4_2 1_555 1_555
O4_3 C23_3 1_555 1_555
O5_2 Cu4_2 1_555 1_555
Cu5_2 O10_3 1_555 1_555
C31_2 C30_2 1_555 1_555
H24_2 C31_2 1_555 1_555
H25_2 C32_2 1_555 1_555
C33_2 C30_2 1_555 1_555
C37_2 C36_2 1_555 1_555
H28_2 C37_2 1_555 1_555
C38_2 C33_2 1_555 1_555
H29_2 C38_2 1_555 1_555
C39_2 C36_2 1_555 1_555
H30_2 C39_2 1_555 1_555
H31_2 C39_2 1_555 1_555
C40_2 H32_2 1_555 1_555
C41_2 H33_2 1_555 1_555
C42_3 C43_3 1_555 1_555
C43_3 C44_3 1_555 1_555
C44_3 C22_3 1_555 1_555
C45_3 C21_3 1_555 1_555
H34_3 C45_3 1_555 1_555
C46_3 C44_3 1_555 1_555
N10_2 Cu4_2 1_555 1_555
N12_2 C41_2 1_555 1_555
N13_2 C39_2 1_555 1_555
O6_3 C42_3 1_555 1_555
O10_3 C46_3 1_555 1_555
O13_3 C46_3 1_555 1_555
C2_2 N1_2 1_555 1_555
C3_2 N3_2 1_555 1_555
C19_3 O1_2 1_555 1_555
C19_3 O2_2 1_555 1_555
N2_2 N3_2 1_555 1_555
C31_2 C32_2 1_555 1_555
C37_2 C38_2 1_555 1_555
C40_2 N10_2 1_555 1_555
C40_2 N13_2 1_555 1_555
C41_2 N10_2 1_555 1_555
C42_3 O8_3 1_555 1_555
C43_3 C45_3 1_555 1_555
N12_2 N13_2 1_555 1_555
O5_2 H35_2 1_555 1_555
O5_2 H36_2 1_555 1_555
Cu4 N7_2 1_555 1_555
C24_2 H18_2 1_555 1_555
C25_2 H19_2 1_555 1_555
C26_2 H20_2 1_555 1_555
C27_2 C26_2 1_555 1_555
C28_2 C27_2 1_555 1_555
H22_2 C28_2 1_555 1_555
C29_2 C28_2 1_555 1_555
H23_2 C29_2 1_555 1_555
H26_2 C34_2 1_555 1_555
C35_2 C34_2 1_555 1_555
H27_2 C35_2 1_555 1_555
N7_2 C24_2 1_555 1_555
N8_2 C24_2 1_555 1_555
N9_2 C25_2 1_555 1_555
O7_2 Cu4 1_555 1_555
O9_2 Cu4 1_555 1_555
O14_2 Cu4 1_555 1_555
C25_2 N7_2 1_555 1_555
C26_2 N9_2 1_555 1_555
N8_2 N9_2 1_555 1_555
O14_2 H37_2 1_555 1_555
O14_2 H38_2 1_555 1_555
C19_4 C20_4 1_555 1_555
C20_4 C21_4 1_555 1_555
C21_4 C23_4 1_555 1_555
C22_4 C20_4 1_555 1_555
H17_4 C22_4 1_555 1_555
C23_4 O11 1_555 1_555
O4_4 C23_4 1_555 1_555
C19_4 O7_2 1_555 1_555
C19_4 O9_2 1_555 1_555
Cu5 O10_4 1_555 1_555
C42_4 C43_4 1_555 1_555
C43_4 C44_4 1_555 1_555
H34_4 C45_4 1_555 1_555
C46_4 C44_4 1_555 1_555
O6_4 C42_4 1_555 1_555
O10_4 C46_4 1_555 1_555
O13_4 C46_4 1_555 1_555
C42_4 O8_4 1_555 1_555
C43_4 C45_4 1_555 1_555
Cu6 N7_3 1_555 1_555
C24_3 H18_3 1_555 1_555
C25_3 H19_3 1_555 1_555
C26_3 H20_3 1_555 1_555
H21_3 C26_3 1_555 1_555
C27_3 C26_3 1_555 1_555
C28_3 C27_3 1_555 1_555
H22_3 C28_3 1_555 1_555
C29_3 C28_3 1_555 1_555
H23_3 C29_3 1_555 1_555
C30_3 C29_3 1_555 1_555
C31_3 C30_3 1_555 1_555
H24_3 C31_3 1_555 1_555
C32_3 C27_3 1_555 1_555
H25_3 C32_3 1_555 1_555
N7_3 C24_3 1_555 1_555
N8_3 C24_3 1_555 1_555
N9_3 C25_3 1_555 1_555
O14_3 Cu6 1_555 1_555
C25_3 N7_3 1_555 1_555
C26_3 N9_3 1_555 1_555
C31_3 C32_3 1_555 1_555
N8_3 N9_3 1_555 1_555
O14_3 H37_3 1_555 1_555
O14_3 H38_3 1_555 1_555
C11_3 C10_3 1_555 1_555
H9_3 C11_3 1_555 1_555
C12_3 C11_3 1_555 1_555
H10_3 C12_3 1_555 1_555
C13_3 C12_3 1_555 1_555
C14_3 C13_3 1_555 1_555
H11_3 C14_3 1_555 1_555
C15_3 C10_3 1_555 1_555
H12_3 C15_3 1_555 1_555
C16_3 C13_3 1_555 1_555
H13_3 C16_3 1_555 1_555
H14_3 C16_3 1_555 1_555
C17_3 H15_3 1_555 1_555
C18_3 H16_3 1_555 1_555
N11 C17_3 1_555 1_555
N5_3 C18_3 1_555 1_555
N6_3 C16_3 1_555 1_555
C14_3 C15_3 1_555 1_555
C17_3 N6_3 1_555 1_555
C18_3 N11 1_555 1_555
N5_3 N6_3 1_555 1_555
C34_3 C33_3 1_555 1_555
H26_3 C34_3 1_555 1_555
C35_3 C34_3 1_555 1_555
H27_3 C35_3 1_555 1_555
C36_3 C35_3 1_555 1_555
C37_3 C36_3 1_555 1_555
H28_3 C37_3 1_555 1_555
C38_3 C33_3 1_555 1_555
H29_3 C38_3 1_555 1_555
C39_3 C36_3 1_555 1_555
H30_3 C39_3 1_555 1_555
H31_3 C39_3 1_555 1_555
C40_3 H32_3 1_555 1_555
C41_3 H33_3 1_555 1_555
N12_3 C41_3 1_555 1_555
N13_3 C39_3 1_555 1_555
C37_3 C38_3 1_555 1_555
C40_3 N10_3 1_555 1_555
C40_3 N13_3 1_555 1_555
C41_3 N10_3 1_555 1_555
N12_3 N13_3 1_555 1_555
Cu6_2 N1_3 1_555 1_555
C1_3 H1_3 1_555 1_555
C2_3 H2_3 1_555 1_555
C3_3 H3_3 1_555 1_555
H4_3 C3_3 1_555 1_555
C4_3 C3_3 1_555 1_555
C5_3 C4_3 1_555 1_555
H5_3 C5_3 1_555 1_555
C6_3 C5_3 1_555 1_555
H6_3 C6_3 1_555 1_555
C7_3 C6_3 1_555 1_555
C8_3 C7_3 1_555 1_555
H7_3 C8_3 1_555 1_555
C9_3 C4_3 1_555 1_555
H8_3 C9_3 1_555 1_555
N1_3 C1_3 1_555 1_555
N2_3 C1_3 1_555 1_555
N3_3 C2_3 1_555 1_555
O5_3 Cu6_2 1_555 1_555
C2_3 N1_3 1_555 1_555
C3_3 N3_3 1_555 1_555
C8_3 C9_3 1_555 1_555
N2_3 N3_3 1_555 1_555
O5_3 H35_3 1_555 1_555
O5_3 H36_3 1_555 1_555
Cu5_2 N7_4 1_555 1_555
C24_4 H18_4 1_555 1_555
C25_4 H19_4 1_555 1_555
C26_4 H20_4 1_555 1_555
C27_4 C26_4 1_555 1_555
C28_4 C27_4 1_555 1_555
H22_4 C28_4 1_555 1_555
C29_4 C28_4 1_555 1_555
H23_4 C29_4 1_555 1_555
H26_4 C34_4 1_555 1_555
C35_4 C34_4 1_555 1_555
H27_4 C35_4 1_555 1_555
N7_4 C24_4 1_555 1_555
N8_4 C24_4 1_555 1_555
N9_4 C25_4 1_555 1_555
N11_2 Cu5_2 1_555 1_555
O14_4 Cu5_2 1_555 1_555
C25_4 N7_4 1_555 1_555
C26_4 N9_4 1_555 1_555
N8_4 N9_4 1_555 1_555
O14_4 H37_4 1_555 1_555
O14_4 H38_4 1_555 1_555
Cu5 N1_4 1_555 1_555
C1_4 H1_4 1_555 1_555
C2_4 H2_4 1_555 1_555
C3_4 H3_4 1_555 1_555
C4_4 C3_4 1_555 1_555
C5_4 C4_4 1_555 1_555
H5_4 C5_4 1_555 1_555
C6_4 C5_4 1_555 1_555
H6_4 C6_4 1_555 1_555
H9_4 C11_4 1_555 1_555
C12_4 C11_4 1_555 1_555
H10_4 C12_4 1_555 1_555
N1_4 C1_4 1_555 1_555
N2_4 C1_4 1_555 1_555
N3_4 C2_4 1_555 1_555
O5_4 Cu5 1_555 1_555
C31_4 C30_4 1_555 1_555
H24_4 C31_4 1_555 1_555
H25_4 C32_4 1_555 1_555
C33_4 C30_4 1_555 1_555
C37_4 C36_4 1_555 1_555
H28_4 C37_4 1_555 1_555
C38_4 C33_4 1_555 1_555
H29_4 C38_4 1_555 1_555
C39_4 C36_4 1_555 1_555
H30_4 C39_4 1_555 1_555
H31_4 C39_4 1_555 1_555
C40_4 H32_4 1_555 1_555
C41_4 H33_4 1_555 1_555
N10_4 Cu5 1_555 1_555
N12_4 C41_4 1_555 1_555
N13_4 C39_4 1_555 1_555
C2_4 N1_4 1_555 1_555
C3_4 N3_4 1_555 1_555
N2_4 N3_4 1_555 1_555
C31_4 C32_4 1_555 1_555
C37_4 C38_4 1_555 1_555
C40_4 N10_4 1_555 1_555
C40_4 N13_4 1_555 1_555
C41_4 N10_4 1_555 1_555
N12_4 N13_4 1_555 1_555
O5_4 H35_4 1_555 1_555
O5_4 H36_4 1_555 1_555
C8_4 C7_4 1_555 1_555
H7_4 C8_4 1_555 1_555
H8_4 C9_4 1_555 1_555
C10_4 C7_4 1_555 1_555
C14_4 C13_4 1_555 1_555
H11_4 C14_4 1_555 1_555
C15_4 C10_4 1_555 1_555
H12_4 C15_4 1_555 1_555
C16_4 C13_4 1_555 1_555
H13_4 C16_4 1_555 1_555
H14_4 C16_4 1_555 1_555
C17_4 H15_4 1_555 1_555
C18_4 H16_4 1_555 1_555
N11_2 C17_4 1_555 1_555
N5_4 C18_4 1_555 1_555
N6_4 C16_4 1_555 1_555
C8_4 C9_4 1_555 1_555
C14_4 C15_4 1_555 1_555
C17_4 N6_4 1_555 1_555
C18_4 N11_2 1_555 1_555
N5_4 N6_4 1_555 1_555

#END
