
###############################################################################
#
# This file contains modified crystal structure data generated from the
# MOF subset of the Cambridge Structural Database (CSD) v543 
# hosted by the Cambridge Crystallographic Data Centre (CCDC).
#
# This work is licensed under the Creative Commons
# Attribution-NonCommercial-ShareAlike 4.0 International License.
# To view a copy of this license, visit
# http://creativecommons.org/licenses/by-nc-sa/4.0/
# or send a letter to
# Creative Commons, PO Box 1866, Mountain View, CA 94042, USA.
#
# CIF created using the CSD Python API on 29 September 2022
# The structure has been converted into the P1 space group
# The structure has a 3D framework
# The original CSD entry ILOJID is in the monoclinic crystal system
# The framework has been calculated to contain at least 10.0% void space
# The void calculation uses a probe of radius 1.32A, grid spacing 0.4
#
###############################################################################

data_ILOJID
_chemical_formula_moiety         '(C92 H76 Co4 N24 O18)n'
_symmetry_cell_setting           triclinic
_symmetry_space_group_name_H-M   'P 1'
_symmetry_Int_Tables_number      1
_space_group_name_Hall           'P 1'
loop_
_symmetry_equiv_pos_site_id
_symmetry_equiv_pos_as_xyz
1 x,y,z
_cell_length_a                   15.237(7)
_cell_length_b                   10.469(5)
_cell_length_c                   15.889(7)
_cell_angle_alpha                90
_cell_angle_beta                 91.075(7)
_cell_angle_gamma                90
_cell_volume                     2534.11
loop_
_atom_site_label
_atom_site_type_symbol
_atom_site_fract_x
_atom_site_fract_y
_atom_site_fract_z
Co6 Co 0.05095(4) 0.45685(6) 0.85254(4)
N11 N 0.0856(3) 0.0032(4) 0.6391(2)
Co1 Co 0.05095(4) 0.04315(6) 0.35254(4)
C2 C 0.2255(4) 0.1901(5) 0.3446(3)
H2 H 0.1966 0.2671 0.3345
C3 C 0.3782(4) 0.2772(6) 0.3552(4)
H3 H 0.3525 0.3562 0.3346
H4 H 0.4245 0.2531 0.3173
C4 C 0.4174(4) 0.2996(5) 0.4414(4)
C5 C 0.3671(4) 0.3269(6) 0.5098(4)
H5 H 0.3063 0.3303 0.5040
C6 C 0.4065(4) 0.3491(5) 0.5872(4)
H6 H 0.3713 0.3659 0.6330
C7 C 0.4963(4) 0.3472(5) 0.5987(4)
C8 C 0.5452(4) 0.3213(6) 0.5293(4)
H7 H 0.6061 0.3200 0.5348
C9 C 0.5071(4) 0.2972(6) 0.4515(4)
H8 H 0.5422 0.2793 0.4057
C10 C 0.5393(3) 0.3751(5) 0.6810(4)
C11 C 0.5095(4) 0.4684(5) 0.7340(4)
H9 H 0.4577 0.5115 0.7207
C12 C 0.5558(4) 0.4988(6) 0.8070(4)
H10 H 0.5345 0.5623 0.8421
C13 C 0.6324(4) 0.4372(6) 0.8285(3)
C14 C 0.6608(4) 0.3397(6) 0.7782(4)
H11 H 0.7112 0.2943 0.7933
C15 C 0.6148(4) 0.3087(6) 0.7049(4)
H12 H 0.6348 0.2426 0.6711
C16 C 0.6855(4) 0.4744(6) 0.9052(3)
H13 H 0.6572 0.5456 0.9328
H14 H 0.6875 0.4033 0.9442
C17 C 0.8478(4) 0.4477(5) 0.8985(3)
H15 H 0.8521 0.3739 0.9309
C18 C 0.8756(4) 0.6036(5) 0.8237(4)
H16 H 0.9070 0.6632 0.7929
C21 C 0.0113(3) 0.3823(4) 0.4613(3)
C22 C 0.0270(3) 0.2572(4) 0.4211(3)
C23 C 0.0429(3) 0.4033(4) 0.5427(3)
H17 H 0.0714 0.3374 0.5714
N1 N 0.1863(3) 0.0794(4) 0.3512(2)
N2 N 0.3113(3) 0.1782(4) 0.3541(3)
N3 N 0.3297(3) 0.0534(5) 0.3693(4)
N4 N 0.9144(3) 0.5032(4) 0.8609(2)
N5 N 0.7750(3) 0.5107(4) 0.8839(3)
N6 N 0.7914(3) 0.6126(5) 0.8334(3)
O1 O 0.0363(2) 0.1585(3) 0.46635(18)
O2 O 0.0321(2) 0.2484(3) 0.34272(19)
C42 C 0.0705(3) 0.5407(4) 0.6691(3)
C43 C 0.0331(3) 0.5203(4) 0.5820(3)
O8 O 0.1336(2) 0.6111(3) 0.6797(2)
O9 O 0.0330(2) 0.4764(3) 0.72635(19)
O10 O 0.0330(2) 0.0236(3) 0.22635(19)
C28 C 0.3671(4) 0.1731(6) 0.0098(4)
H24 H 0.3063 0.1697 0.0040
C29 C 0.4065(4) 0.1509(5) 0.0872(4)
H25 H 0.3713 0.1341 0.1330
C30 C 0.4963(4) 0.1528(5) 0.0987(4)
C31 C 0.5452(4) 0.1787(6) 0.0293(4)
H26 H 0.6061 0.1800 0.0348
C33 C 0.5393(3) 0.1249(5) 0.1810(4)
C34 C 0.5095(4) 0.0316(5) 0.2340(4)
C35 C 0.5558(4) 0.0012(6) 0.3070(4)
C36 C 0.6324(4) 0.0628(6) 0.3285(3)
C37 C 0.6608(4) 0.1603(6) 0.2782(4)
H30 H 0.7112 0.2057 0.2933
C38 C 0.6148(4) 0.1913(6) 0.2049(4)
H31 H 0.6348 0.2574 0.1711
C39 C 0.6855(4) 0.0256(6) 0.4052(3)
H33 H 0.6875 0.0967 0.4442
C40 C 0.8478(4) 0.0523(5) 0.3985(3)
H34 H 0.8521 0.1261 0.4309
C46 C 0.0429(3) 0.0967(4) 0.0427(3)
H36 H 0.0714 0.1626 0.0714
C24 C 0.2534(4) 0.5014(5) 0.8665(4)
H20 H 0.2457 0.5887 0.8744
C25 C 0.2255(4) 0.3099(5) 0.8446(3)
H21 H 0.1966 0.2329 0.8345
C26 C 0.3782(4) 0.2228(6) 0.8552(4)
H22 H 0.3525 0.1438 0.8346
H23 H 0.4245 0.2469 0.8173
C27 C 0.4174(4) 0.2004(5) 0.9414(4)
C32 C 0.5071(4) 0.2028(6) 0.9515(4)
H27 H 0.5422 0.2207 0.9057
C44 C 0.0113(3) 0.1177(4) 0.9613(3)
C45 C 0.0270(3) 0.2428(4) 0.9211(3)
N7 N 0.1863(3) 0.4206(4) 0.8512(2)
N8 N 0.3113(3) 0.3218(4) 0.8541(3)
N9 N 0.3297(3) 0.4466(5) 0.8693(4)
O6 O 0.0363(2) 0.3415(3) 0.96635(18)
O7 O 0.0321(2) 0.2516(3) 0.84272(19)
O12 O 0.0781(2) 0.6276(3) 0.9098(2)
H37 H 0.0388 0.6452 0.9424
H38 H 0.086(4) 0.682(5) 0.879(3)
H9_2 H 0.5423 0.0115 0.7793
H10_2 H 0.4655 0.0623 0.6579
H13_2 H 0.3428 0.0456 0.5672
C18_2 C 0.1244(4) 0.1036(5) 0.6763(4)
H16_2 H 0.0930 0.1632 0.7071
N5_2 N 0.2250(3) 0.0107(4) 0.6161(3)
N6_2 N 0.2086(3) 0.1126(5) 0.6666(3)
C42_2 C 0.9295(3) 0.0407(4) 0.8309(3)
C43_2 C 0.9669(3) 0.0203(4) 0.9180(3)
O8_2 O 0.8664(2) 0.1111(3) 0.8203(2)
C1 C 0.2534(4) 0.9986(5) 0.3665(4)
H1 H 0.2457 0.9113 0.3744
O5 O 0.0781(2) 0.8724(3) 0.4098(2)
H18 H 0.0388 0.8548 0.4424
H19 H 0.086(4) 0.818(5) 0.379(3)
C24_2 C 0.7466(4) 0.0014(5) 0.6335(4)
H20_2 H 0.7543 0.0887 0.6256
O12_2 O 0.9219(2) 0.1276(3) 0.5902(2)
H37_2 H 0.9612 0.1452 0.5576
H38_2 H 0.914(4) 0.182(5) 0.621(3)
C19 C 0.9295(3) 0.4593(4) 0.3309(3)
C20 C 0.9669(3) 0.4797(4) 0.4180(3)
O3 O 0.8664(2) 0.3889(3) 0.3203(2)
O4 O 0.9670(2) 0.5236(3) 0.27365(19)
Co2 Co 0.94905(4) 0.95685(6) 0.64746(4)
Co4 Co 0.94905(4) 0.54315(6) 0.14746(4)
C25_2 C 0.7745(4) 0.8099(5) 0.6554(3)
H21_2 H 0.8034 0.7329 0.6655
C26_2 C 0.6218(4) 0.7228(6) 0.6448(4)
H22_2 H 0.6475 0.6438 0.6654
H23_2 H 0.5755 0.7469 0.6827
C27_2 C 0.5826(4) 0.7004(5) 0.5586(4)
C28_2 C 0.6329(4) 0.6731(6) 0.4902(4)
H24_2 H 0.6937 0.6697 0.4960
C29_2 C 0.5935(4) 0.6509(5) 0.4128(4)
H25_2 H 0.6287 0.6341 0.3670
C30_2 C 0.5037(4) 0.6528(5) 0.4013(4)
C31_2 C 0.4548(4) 0.6787(6) 0.4707(4)
H26_2 H 0.3939 0.6800 0.4652
C32_2 C 0.4929(4) 0.7028(6) 0.5485(4)
H27_2 H 0.4578 0.7207 0.5943
C33_2 C 0.4607(3) 0.6249(5) 0.3190(4)
C34_2 C 0.4905(4) 0.5316(5) 0.2660(4)
H28 H 0.5423 0.4885 0.2793
C35_2 C 0.4442(4) 0.5012(6) 0.1930(4)
H29 H 0.4655 0.4377 0.1579
C36_2 C 0.3676(4) 0.5628(6) 0.1715(3)
C37_2 C 0.3392(4) 0.6603(6) 0.2218(4)
H30_2 H 0.2888 0.7057 0.2067
C38_2 C 0.3852(4) 0.6913(6) 0.2951(4)
H31_2 H 0.3652 0.7574 0.3289
C39_2 C 0.3145(4) 0.5256(6) 0.0948(3)
H32 H 0.3428 0.4544 0.0672
H33_2 H 0.3125 0.5967 0.0558
C40_2 C 0.1522(4) 0.5523(5) 0.1015(3)
H34_2 H 0.1479 0.6261 0.0691
C41 C 0.1244(4) 0.3964(5) 0.1763(4)
H35 H 0.0930 0.3368 0.2071
C44_2 C 0.9887(3) 0.6177(4) 0.5387(3)
C45_2 C 0.9730(3) 0.7428(4) 0.5789(3)
C46_2 C 0.9571(3) 0.5967(4) 0.4573(3)
H36_2 H 0.9286 0.6626 0.4286
N7_2 N 0.8137(3) 0.9206(4) 0.6488(2)
N8_2 N 0.6887(3) 0.8218(4) 0.6459(3)
N9_2 N 0.6703(3) 0.9466(5) 0.6307(4)
N10 N 0.0856(3) 0.4968(4) 0.1391(2)
N13 N 0.2250(3) 0.4893(4) 0.1161(3)
N14 N 0.2086(3) 0.3874(5) 0.1666(3)
O6_2 O 0.9637(2) 0.8415(3) 0.53365(18)
O7_2 O 0.9679(2) 0.7516(3) 0.65728(19)
O11 O 0.9670(2) 0.9764(3) 0.77365(19)
N12 N 0.9144(3) 0.9968(4) 0.3609(2)
C19_2 C 0.0705(3) 0.9593(4) 0.1691(3)
C20_2 C 0.0331(3) 0.9797(4) 0.0820(3)
O3_2 O 0.1336(2) 0.8889(3) 0.1797(2)
H28_2 H 0.4577 0.9885 0.2207
H29_2 H 0.5345 0.9377 0.3421
H32_2 H 0.6572 0.9544 0.4328
C41_2 C 0.8756(4) 0.8964(5) 0.3237(4)
H35_2 H 0.9070 0.8368 0.2929
N13_2 N 0.7750(3) 0.9893(4) 0.3839(3)
N14_2 N 0.7914(3) 0.8874(5) 0.3334(3)
C1_2 C 0.7466(4) 0.4986(5) 0.1335(4)
H1_2 H 0.7543 0.4113 0.1256
C2_2 C 0.7745(4) 0.6901(5) 0.1554(3)
H2_2 H 0.8034 0.7671 0.1655
C3_2 C 0.6218(4) 0.7772(6) 0.1448(4)
H3_2 H 0.6475 0.8562 0.1654
H4_2 H 0.5755 0.7531 0.1827
C4_2 C 0.5826(4) 0.7996(5) 0.0586(4)
C9_2 C 0.4929(4) 0.7972(6) 0.0485(4)
H8_2 H 0.4578 0.7793 0.0943
C21_2 C 0.9887(3) 0.8823(4) 0.0387(3)
C22_2 C 0.9730(3) 0.7572(4) 0.0789(3)
N1_2 N 0.8137(3) 0.5794(4) 0.1488(2)
N2_2 N 0.6887(3) 0.6782(4) 0.1459(3)
N3_2 N 0.6703(3) 0.5534(5) 0.1307(4)
O1_2 O 0.9637(2) 0.6585(3) 0.03365(18)
O2_2 O 0.9679(2) 0.7484(3) 0.15728(19)
O5_2 O 0.9219(2) 0.3724(3) 0.0902(2)
H18_2 H 0.9612 0.3548 0.0576
H19_2 H 0.914(4) 0.318(5) 0.121(3)
C5_2 C 0.6329(4) 0.8269(6) 0.9902(4)
H5_2 H 0.6937 0.8303 0.9960
C6_2 C 0.5935(4) 0.8491(5) 0.9128(4)
H6_2 H 0.6287 0.8659 0.8670
C7_2 C 0.5037(4) 0.8472(5) 0.9013(4)
C8_2 C 0.4548(4) 0.8213(6) 0.9707(4)
H7_2 H 0.3939 0.8200 0.9652
C10_2 C 0.4607(3) 0.8751(5) 0.8190(4)
C11_2 C 0.4905(4) 0.9684(5) 0.7660(4)
C12_2 C 0.4442(4) 0.9988(6) 0.6930(4)
C13_2 C 0.3676(4) 0.9372(6) 0.6715(3)
C14_2 C 0.3392(4) 0.8397(6) 0.7218(4)
H11_2 H 0.2888 0.7943 0.7067
C15_2 C 0.3852(4) 0.8087(6) 0.7951(4)
H12_2 H 0.3652 0.7426 0.8289
C16_2 C 0.3145(4) 0.9744(6) 0.5948(3)
H14_2 H 0.3125 0.9033 0.5558
C17_2 C 0.1522(4) 0.9477(5) 0.6015(3)
H15_2 H 0.1479 0.8739 0.5691
C23_2 C 0.9571(3) 0.9033(4) 0.9573(3)
H17_2 H 0.9286 0.8374 0.9286
loop_
_geom_bond_atom_site_label_1
_geom_bond_atom_site_label_2
_geom_bond_site_symmetry_1
_geom_bond_site_symmetry_2
Co1 N1 1_555 1_555
C2 H2 1_555 1_555
C3 H3 1_555 1_555
H4 C3 1_555 1_555
C4 C3 1_555 1_555
C5 C4 1_555 1_555
H5 C5 1_555 1_555
C6 C5 1_555 1_555
H6 C6 1_555 1_555
C7 C6 1_555 1_555
C8 C7 1_555 1_555
H7 C8 1_555 1_555
C9 C4 1_555 1_555
H8 C9 1_555 1_555
C10 C7 1_555 1_555
C11 C10 1_555 1_555
H9 C11 1_555 1_555
C12 C11 1_555 1_555
H10 C12 1_555 1_555
C13 C12 1_555 1_555
C14 C13 1_555 1_555
H11 C14 1_555 1_555
C15 C10 1_555 1_555
H12 C15 1_555 1_555
C16 C13 1_555 1_555
H13 C16 1_555 1_555
H14 C16 1_555 1_555
C17 H15 1_555 1_555
C18 H16 1_555 1_555
C21 C22 1_555 1_555
C22 O1 1_555 1_555
C23 C21 1_555 1_555
H17 C23 1_555 1_555
N2 C2 1_555 1_555
N4 C17 1_555 1_555
N5 C16 1_555 1_555
N6 C18 1_555 1_555
O1 Co1 1_555 1_555
O2 Co1 1_555 1_555
Co6 O9 1_555 1_555
C42 C43 1_555 1_555
C43 C23 1_555 1_555
O8 C42 1_555 1_555
O9 C42 1_555 1_555
O10 Co1 1_555 1_555
C2 N1 1_555 1_555
C3 N2 1_555 1_555
C8 C9 1_555 1_555
C14 C15 1_555 1_555
C17 N5 1_555 1_555
C18 N4 1_555 1_555
C22 O2 1_555 1_555
N2 N3 1_555 1_555
N5 N6 1_555 1_555
H24 C28 1_555 1_555
C29 C28 1_555 1_555
H25 C29 1_555 1_555
C30 C29 1_555 1_555
C31 C30 1_555 1_555
H26 C31 1_555 1_555
C33 C30 1_555 1_555
C34 C33 1_555 1_555
C35 C34 1_555 1_555
C36 C35 1_555 1_555
C37 C36 1_555 1_555
H30 C37 1_555 1_555
C38 C33 1_555 1_555
H31 C38 1_555 1_555
C39 C36 1_555 1_555
H33 C39 1_555 1_555
C40 H34 1_555 1_555
H36 C46 1_555 1_555
C37 C38 1_555 1_555
Co6 N7 1_555 1_555
C24 H20 1_555 1_555
C25 H21 1_555 1_555
C26 H22 1_555 1_555
H23 C26 1_555 1_555
C27 C26 1_555 1_555
C32 C27 1_555 1_555
H27 C32 1_555 1_555
C45 C44 1_555 1_555
N7 C24 1_555 1_555
N8 C25 1_555 1_555
N9 C24 1_555 1_555
O6 Co6 1_555 1_555
O7 Co6 1_555 1_555
O12 Co6 1_555 1_555
H37 O12 1_555 1_555
H38 O12 1_555 1_555
C25 N7 1_555 1_555
C26 N8 1_555 1_555
C45 O6 1_555 1_555
C45 O7 1_555 1_555
N8 N9 1_555 1_555
C18_2 H16_2 1_555 1_555
N6_2 C18_2 1_555 1_555
C42_2 C43_2 1_555 1_555
O8_2 C42_2 1_555 1_555
C18_2 N11 1_555 1_555
N5_2 N6_2 1_555 1_555
C1 H1 1_555 1_555
H18 O5 1_555 1_555
H19 O5 1_555 1_555
C24_2 H20_2 1_555 1_555
H37_2 O12_2 1_555 1_555
H38_2 O12_2 1_555 1_555
C19 C20 1_555 1_555
O3 C19 1_555 1_555
O4 C19 1_555 1_555
Co2 N7_2 1_555 1_555
Co4 O4 1_555 1_555
C25_2 H21_2 1_555 1_555
C26_2 H22_2 1_555 1_555
H23_2 C26_2 1_555 1_555
C27_2 C26_2 1_555 1_555
C28_2 C27_2 1_555 1_555
H24_2 C28_2 1_555 1_555
C29_2 C28_2 1_555 1_555
H25_2 C29_2 1_555 1_555
C30_2 C29_2 1_555 1_555
C31_2 C30_2 1_555 1_555
H26_2 C31_2 1_555 1_555
C32_2 C27_2 1_555 1_555
H27_2 C32_2 1_555 1_555
C33_2 C30_2 1_555 1_555
C34_2 C33_2 1_555 1_555
H28 C34_2 1_555 1_555
C35_2 C34_2 1_555 1_555
H29 C35_2 1_555 1_555
C36_2 C35_2 1_555 1_555
C37_2 C36_2 1_555 1_555
H30_2 C37_2 1_555 1_555
C38_2 C33_2 1_555 1_555
H31_2 C38_2 1_555 1_555
C39_2 C36_2 1_555 1_555
H32 C39_2 1_555 1_555
H33_2 C39_2 1_555 1_555
C40_2 H34_2 1_555 1_555
C41 H35 1_555 1_555
C45_2 C44_2 1_555 1_555
C46_2 C20 1_555 1_555
H36_2 C46_2 1_555 1_555
N8_2 C25_2 1_555 1_555
N10 C40_2 1_555 1_555
N13 C39_2 1_555 1_555
N14 C41 1_555 1_555
O6_2 Co2 1_555 1_555
O7_2 Co2 1_555 1_555
O11 Co2 1_555 1_555
C25_2 N7_2 1_555 1_555
C26_2 N8_2 1_555 1_555
C31_2 C32_2 1_555 1_555
C37_2 C38_2 1_555 1_555
C40_2 N13 1_555 1_555
C41 N10 1_555 1_555
C44_2 C46_2 1_555 1_555
C45_2 O6_2 1_555 1_555
C45_2 O7_2 1_555 1_555
N8_2 N9_2 1_555 1_555
N13 N14 1_555 1_555
C19_2 C20_2 1_555 1_555
O3_2 C19_2 1_555 1_555
C41_2 H35_2 1_555 1_555
N14_2 C41_2 1_555 1_555
C41_2 N12 1_555 1_555
N13_2 N14_2 1_555 1_555
Co4 N1_2 1_555 1_555
C1_2 H1_2 1_555 1_555
C2_2 H2_2 1_555 1_555
C3_2 H3_2 1_555 1_555
H4_2 C3_2 1_555 1_555
C4_2 C3_2 1_555 1_555
C9_2 C4_2 1_555 1_555
H8_2 C9_2 1_555 1_555
C21_2 C22_2 1_555 1_555
C22_2 O1_2 1_555 1_555
N1_2 C1_2 1_555 1_555
N2_2 C2_2 1_555 1_555
N3_2 C1_2 1_555 1_555
O1_2 Co4 1_555 1_555
O2_2 Co4 1_555 1_555
O5_2 Co4 1_555 1_555
H18_2 O5_2 1_555 1_555
H19_2 O5_2 1_555 1_555
C2_2 N1_2 1_555 1_555
C3_2 N2_2 1_555 1_555
C22_2 O2_2 1_555 1_555
N2_2 N3_2 1_555 1_555
H5_2 C5_2 1_555 1_555
C6_2 C5_2 1_555 1_555
H6_2 C6_2 1_555 1_555
C7_2 C6_2 1_555 1_555
C8_2 C7_2 1_555 1_555
H7_2 C8_2 1_555 1_555
C10_2 C7_2 1_555 1_555
C11_2 C10_2 1_555 1_555
C12_2 C11_2 1_555 1_555
C13_2 C12_2 1_555 1_555
C14_2 C13_2 1_555 1_555
H11_2 C14_2 1_555 1_555
C15_2 C10_2 1_555 1_555
H12_2 C15_2 1_555 1_555
C16_2 C13_2 1_555 1_555
H14_2 C16_2 1_555 1_555
C17_2 H15_2 1_555 1_555
H17_2 C23_2 1_555 1_555
C14_2 C15_2 1_555 1_555

#END
