
###############################################################################
#
# This file contains modified crystal structure data generated from the
# MOF subset of the Cambridge Structural Database (CSD) v543 
# hosted by the Cambridge Crystallographic Data Centre (CCDC).
#
# This work is licensed under the Creative Commons
# Attribution-NonCommercial-ShareAlike 4.0 International License.
# To view a copy of this license, visit
# http://creativecommons.org/licenses/by-nc-sa/4.0/
# or send a letter to
# Creative Commons, PO Box 1866, Mountain View, CA 94042, USA.
#
# CIF created using the CSD Python API on 29 September 2022
# The structure has been converted into the P1 space group
# The structure has a 3D framework
# The original CSD entry ILOSOS is in the monoclinic crystal system
# The framework has been calculated to contain at least 10.0% void space
# The void calculation uses a probe of radius 1.32A, grid spacing 0.4
# The framework is charged, counterions have been retained in the structure
#
###############################################################################

data_ILOSOS
_chemical_formula_moiety         '(C72 H128 Cu8 N64 S16 8+)n'
_symmetry_cell_setting           triclinic
_symmetry_space_group_name_H-M   'P 1'
_symmetry_Int_Tables_number      1
_space_group_name_Hall           'P 1'
loop_
_symmetry_equiv_pos_site_id
_symmetry_equiv_pos_as_xyz
1 x,y,z
_cell_length_a                   13.294(2)
_cell_length_b                   25.171(4)
_cell_length_c                   13.626(2)
_cell_angle_alpha                90
_cell_angle_beta                 104.600(2)
_cell_angle_gamma                90
_cell_volume                     4412.34
loop_
_atom_site_label
_atom_site_type_symbol
_atom_site_fract_x
_atom_site_fract_y
_atom_site_fract_z
N14 N 0.4288(10) 0.2168(5) 0.0145(9)
N15 N 0.4189(9) 0.2437(5) 0.0942(8)
N16 N 0.3164(10) 0.2522(5) 0.0804(9)
H23 H 0.1258 0.1285 0.0026
C18 C 0.2771(14) 0.2815(8) 0.1543(12)
H30 H 0.2112 0.2671 0.1576
H31 H 0.3254 0.2787 0.2196
H32 H 0.2687 0.3182 0.1346
Cu5 Cu 0.54175(15) 0.25434(8) 0.21701(12)
S4 S 0.1347(4) 0.2360(3) 0.9425(6)
N13 N 0.3357(10) 0.2110(6) 0.9493(10)
C14 C 0.0764(19) 0.1319(11) 0.9370(19)
H24 H 0.0726 0.0978 0.9028
C15 C 0.1130(19) 0.1710(11) 0.8787(18)
H25 H 0.0627 0.1750 0.8138
H26 H 0.1777 0.1588 0.8658
C16 C 0.2681(13) 0.2320(7) 0.9908(14)
Cu10 Cu 0.56941(16) 0.20819(8) 0.97696(13)
H12 H 0.4817 0.4149 0.0184
H21 H 0.9450 0.1218 0.0034
N30 N 0.6856(10) 0.2092(5) 0.1006(8)
C24 C 0.6792(17) 0.0554(7) 0.0155(12)
H41 H 0.6932 0.0366 0.0796
H42 H 0.7105 0.0903 0.0285
Cu1 Cu 0.54175(15) 0.24566(8) 0.71701(12)
S1 S 0.4609(3) 0.38839(17) 0.7108(3)
S2 S 0.4617(4) 0.56345(18) 0.5315(3)
S3 S 0.8076(5) 0.2402(2) 0.8698(3)
N1 N 0.5233(10) 0.2993(5) 0.8231(8)
N2 N 0.5554(10) 0.2859(5) 0.9227(8)
N3 N 0.5495(10) 0.3275(5) 0.9796(9)
N4 N 0.5106(9) 0.3672(5) 0.9133(8)
N5 N 0.4552(9) 0.6555(5) 0.6365(8)
N6 N 0.4720(9) 0.6706(5) 0.7349(8)
N7 N 0.4954(9) 0.6299(5) 0.7936(8)
N8 N 0.4950(8) 0.5877(4) 0.7327(8)
N9 N 0.6749(10) 0.2653(5) 0.6851(8)
N10 N 0.6856(10) 0.2908(5) 0.6006(8)
N11 N 0.7787(10) 0.3069(5) 0.6085(9)
N12 N 0.8325(9) 0.2910(5) 0.7016(9)
C1 C 0.4978(11) 0.3495(6) 0.8190(10)
C2 C 0.3213(13) 0.3860(8) 0.6870(13)
H1 H 0.3024 0.3734 0.7472
H2 H 0.2936 0.3612 0.6324
C3 C 0.2753(13) 0.4393(8) 0.6593(14)
H3 H 0.2002 0.4357 0.6400
H4 H 0.2931 0.4618 0.7191
C4 C 0.3093(14) 0.4681(7) 0.5721(13)
H5 H 0.3846 0.4685 0.5876
H6 H 0.2842 0.4480 0.5100
C5 C 0.2688(13) 0.5262(7) 0.5539(14)
H7 H 0.2818 0.5447 0.6183
H8 H 0.1944 0.5258 0.5246
C6 C 0.3208(17) 0.5554(7) 0.4845(12)
H9 H 0.3068 0.5366 0.4204
H10 H 0.2895 0.5903 0.4715
C7 C 0.4678(11) 0.6036(6) 0.6359(10)
C8 C 0.4956(12) 0.4188(7) 0.9530(11)
H11 H 0.4379 0.4362 0.9077
H13 H 0.5573 0.4398 0.9593
C9 C 0.5173(12) 0.5357(6) 0.7757(11)
H14 H 0.5371 0.5128 0.7275
H15 H 0.5731 0.5379 0.8360
H16 H 0.4565 0.5217 0.7924
C10 C 0.7693(13) 0.2658(6) 0.7470(11)
C11 C 0.7913(18) 0.1685(9) 0.841(2)
H17 H 0.7498 0.1529 0.8825
H18 H 0.7531 0.1643 0.7704
C12 C 0.8786(17) 0.1423(10) 0.855(2)
H19 H 0.9110 0.1527 0.8021
H20 H 0.8608 0.1050 0.8448
C13 C 0.9612(16) 0.1462(9) 0.9545(14)
H22 H 0.9620 0.1819 0.9814
C17 C 0.9468(11) 0.3018(7) 0.7354(12)
H27 H 0.9704 0.2964 0.8072
H28 H 0.9602 0.3378 0.7194
H29 H 0.9831 0.2781 0.7010
Cu4 Cu 0.45825(15) 0.74566(8) 0.78299(12)
Cu8 Cu 0.43059(16) 0.70819(8) 0.52304(13)
Cu9 Cu 0.56941(16) 0.29181(8) 0.47696(13)
S6 S 0.5383(4) 0.06345(18) 0.9685(3)
S8 S 0.1347(4) 0.2640(3) 0.4425(6)
N21 N 0.5448(9) 0.1555(5) 0.8635(8)
N23 N 0.5280(9) 0.1706(5) 0.7651(8)
N25 N 0.5046(9) 0.1299(5) 0.7064(8)
N26 N 0.5050(8) 0.0877(4) 0.7673(8)
N34 N 0.3357(10) 0.2890(6) 0.4493(10)
N35 N 0.4288(10) 0.2832(5) 0.5145(9)
N38 N 0.4189(9) 0.2563(5) 0.5942(8)
N40 N 0.3164(10) 0.2478(5) 0.5804(9)
C23 C 0.7312(13) 0.0262(7) 0.9461(14)
H39 H 0.7182 0.0447 0.8817
H40 H 0.8056 0.0258 0.9754
C25 C 0.5322(11) 0.1036(6) 0.8641(10)
C27 C 0.4827(12) 0.0357(6) 0.7243(11)
H46 H 0.4629 0.0128 0.7725
H47 H 0.4269 0.0379 0.6640
H48 H 0.5435 0.0217 0.7076
C32 C 0.0764(19) 0.3681(11) 0.4370(19)
H55 H 0.1258 0.3715 0.5026
H56 H 0.0726 0.4022 0.4028
C33 C 0.1130(19) 0.3290(11) 0.3787(18)
H57 H 0.0627 0.3250 0.3138
H58 H 0.1777 0.3412 0.3658
C34 C 0.2681(13) 0.2680(7) 0.4908(14)
C36 C 0.2771(14) 0.2185(8) 0.6543(12)
H62 H 0.2112 0.2329 0.6576
H63 H 0.3254 0.2213 0.7196
H64 H 0.2687 0.1818 0.6346
S5 S 0.5391(3) 0.88839(17) 0.7892(3)
N17 N 0.4767(10) 0.7993(5) 0.6769(8)
N18 N 0.4446(10) 0.7859(5) 0.5773(8)
N19 N 0.4505(10) 0.8275(5) 0.5204(9)
N20 N 0.4894(9) 0.8672(5) 0.5867(8)
N28 N 0.3251(10) 0.7653(5) 0.8149(8)
N31 N 0.3144(10) 0.7092(5) 0.3994(8)
N37 N 0.5712(10) 0.7168(5) 0.4855(9)
N39 N 0.5811(9) 0.7563(5) 0.9058(8)
C19 C 0.5022(11) 0.8495(6) 0.6810(10)
C20 C 0.6787(13) 0.8860(8) 0.8130(13)
H33 H 0.6976 0.8734 0.7528
H34 H 0.7064 0.8612 0.8676
C21 C 0.7247(13) 0.9393(8) 0.8407(14)
H35 H 0.7998 0.9357 0.8600
H36 H 0.7069 0.9618 0.7809
C22 C 0.6907(14) 0.9681(7) 0.9279(13)
H37 H 0.6154 0.9685 0.9124
H38 H 0.7158 0.9480 0.9900
C26 C 0.5044(12) 0.9188(7) 0.5470(11)
H43 H 0.5621 0.9362 0.5923
H44 H 0.5183 0.9149 0.4816
H45 H 0.4427 0.9398 0.5407
S7 S 0.8076(5) 0.2598(2) 0.3698(3)
N27 N 0.6749(10) 0.2347(5) 0.1851(8)
N32 N 0.7787(10) 0.1931(5) 0.1085(9)
N33 N 0.8325(9) 0.2090(5) 0.2016(9)
C28 C 0.7693(13) 0.2342(6) 0.2470(11)
C29 C 0.7913(18) 0.3315(9) 0.341(2)
H49 H 0.7498 0.3471 0.3825
H50 H 0.7531 0.3357 0.2704
C30 C 0.8786(17) 0.3577(10) 0.355(2)
H51 H 0.9110 0.3473 0.3021
H52 H 0.8608 0.3950 0.3448
C31 C 0.9612(16) 0.3538(9) 0.4545(14)
H53 H 0.9450 0.3782 0.5034
H54 H 0.9620 0.3181 0.4814
C35 C 0.9468(11) 0.1982(7) 0.2354(12)
H59 H 0.9704 0.2036 0.3072
H60 H 0.9602 0.1622 0.2194
H61 H 0.9831 0.2219 0.2010
Cu6 Cu 0.45825(15) 0.75434(8) 0.28299(12)
S7_2 S 0.1924(5) 0.7598(2) 0.1302(3)
N27_2 N 0.3251(10) 0.7347(5) 0.3149(8)
N32_2 N 0.2213(10) 0.6931(5) 0.3915(9)
N33_2 N 0.1675(9) 0.7090(5) 0.2984(9)
C28_2 C 0.2307(13) 0.7342(6) 0.2530(11)
C29_2 C 0.2087(18) 0.8315(9) 0.159(2)
H49_2 H 0.2502 0.8471 0.1175
H50_2 H 0.2469 0.8357 0.2296
C30_2 C 0.1214(17) 0.8577(10) 0.145(2)
H51_2 H 0.0890 0.8473 0.1979
H52_2 H 0.1392 0.8950 0.1552
C31_2 C 0.0388(16) 0.8538(9) 0.0455(14)
H54_2 H 0.0380 0.8181 0.0186
C35_2 C 0.0532(11) 0.6982(7) 0.2646(12)
H59_2 H 0.0296 0.7036 0.1928
H60_2 H 0.0398 0.6622 0.2806
H61_2 H 0.0169 0.7219 0.2990
H53_2 H 0.0550 0.8782 0.9966
Cu9_2 Cu 0.43059(16) 0.79181(8) 0.02304(13)
S8_2 S 0.8653(4) 0.7640(3) 0.0575(6)
N34_2 N 0.6643(10) 0.7890(6) 0.0507(10)
C32_2 C 0.9236(19) 0.8681(11) 0.0630(19)
H56_2 H 0.9274 0.9022 0.0972
C33_2 C 0.8870(19) 0.8290(11) 0.1213(18)
H57_2 H 0.9373 0.8250 0.1862
H58_2 H 0.8223 0.8412 0.1342
C34_2 C 0.7319(13) 0.7680(7) 0.0092(14)
S3_2 S 0.1924(5) 0.7402(2) 0.6302(3)
N10_2 N 0.3144(10) 0.7908(5) 0.8994(8)
N11_2 N 0.2213(10) 0.8069(5) 0.8915(9)
N12_2 N 0.1675(9) 0.7910(5) 0.7984(9)
C10_2 C 0.2307(13) 0.7658(6) 0.7530(11)
C11_2 C 0.2087(18) 0.6685(9) 0.659(2)
H17_2 H 0.2502 0.6529 0.6175
H18_2 H 0.2469 0.6643 0.7296
C12_2 C 0.1214(17) 0.6423(10) 0.645(2)
H19_2 H 0.0890 0.6527 0.6979
H20_2 H 0.1392 0.6050 0.6552
C13_2 C 0.0388(16) 0.6462(9) 0.5455(14)
H21_2 H 0.0550 0.6218 0.4966
H22_2 H 0.0380 0.6819 0.5186
C17_2 C 0.0532(11) 0.8018(7) 0.7646(12)
H27_2 H 0.0296 0.7964 0.6928
H28_2 H 0.0398 0.8378 0.7806
H29_2 H 0.0169 0.7781 0.7990
N35_2 N 0.5712(10) 0.7832(5) 0.9855(9)
N40_2 N 0.6836(10) 0.7478(5) 0.9196(9)
H55_2 H 0.8742 0.8715 0.9974
C36_2 C 0.7229(14) 0.7185(8) 0.8457(12)
H62_2 H 0.7888 0.7329 0.8424
H63_2 H 0.6746 0.7213 0.7804
H64_2 H 0.7313 0.6818 0.8654
S4_2 S 0.8653(4) 0.7360(3) 0.5575(6)
N13_2 N 0.6643(10) 0.7110(6) 0.5507(10)
N15_2 N 0.5811(9) 0.7437(5) 0.4058(8)
N16_2 N 0.6836(10) 0.7522(5) 0.4196(9)
C14_2 C 0.9236(19) 0.6319(11) 0.5630(19)
H23_2 H 0.8742 0.6285 0.4974
H24_2 H 0.9274 0.5978 0.5972
C15_2 C 0.8870(19) 0.6710(11) 0.6213(18)
H25_2 H 0.9373 0.6750 0.6862
H26_2 H 0.8223 0.6588 0.6342
C16_2 C 0.7319(13) 0.7320(7) 0.5092(14)
C18_2 C 0.7229(14) 0.7815(8) 0.3457(12)
H30_2 H 0.7888 0.7671 0.3424
H31_2 H 0.6746 0.7787 0.2804
H32_2 H 0.7313 0.8182 0.3654
S5_2 S 0.4609(3) 0.11161(17) 0.2108(3)
N17_2 N 0.5233(10) 0.2007(5) 0.3231(8)
N18_2 N 0.5554(10) 0.2141(5) 0.4227(8)
N19_2 N 0.5495(10) 0.1725(5) 0.4796(9)
N20_2 N 0.5106(9) 0.1328(5) 0.4133(8)
N22 N 0.5448(9) 0.3445(5) 0.3635(8)
N24 N 0.5280(9) 0.3294(5) 0.2651(8)
C19_2 C 0.4978(11) 0.1505(6) 0.3190(10)
C20_2 C 0.3213(13) 0.1140(8) 0.1870(13)
H33_2 H 0.3024 0.1266 0.2472
H34_2 H 0.2936 0.1388 0.1324
C21_2 C 0.2753(13) 0.0607(8) 0.1593(14)
H35_2 H 0.2002 0.0643 0.1400
H36_2 H 0.2931 0.0382 0.2191
C22_2 C 0.3093(14) 0.0319(7) 0.0721(13)
H37_2 H 0.3846 0.0315 0.0876
H38_2 H 0.2842 0.0520 0.0100
C26_2 C 0.4956(12) 0.0812(7) 0.4530(11)
H43_2 H 0.4379 0.0638 0.4077
H44_2 H 0.4817 0.0851 0.5184
H45_2 H 0.5573 0.0602 0.4593
S1_2 S 0.5391(3) 0.61161(17) 0.2892(3)
S2_2 S 0.5383(4) 0.43655(18) 0.4685(3)
N1_2 N 0.4767(10) 0.7007(5) 0.1769(8)
N2_2 N 0.4446(10) 0.7141(5) 0.0773(8)
N3_2 N 0.4505(10) 0.6725(5) 0.0204(9)
N4_2 N 0.4894(9) 0.6328(5) 0.0867(8)
N7_2 N 0.5046(9) 0.3701(5) 0.2064(8)
N8_2 N 0.5050(8) 0.4123(4) 0.2673(8)
C1_2 C 0.5022(11) 0.6505(6) 0.1810(10)
C2_2 C 0.6787(13) 0.6140(8) 0.3130(13)
H1_2 H 0.6976 0.6266 0.2528
H2_2 H 0.7064 0.6388 0.3676
C3_2 C 0.7247(13) 0.5607(8) 0.3407(14)
H3_2 H 0.7998 0.5643 0.3600
H4_2 H 0.7069 0.5382 0.2809
C4_2 C 0.6907(14) 0.5319(7) 0.4279(13)
H5_2 H 0.6154 0.5315 0.4124
H6_2 H 0.7158 0.5520 0.4900
C5_2 C 0.7312(13) 0.4738(7) 0.4461(14)
H7_2 H 0.7182 0.4553 0.3817
H8_2 H 0.8056 0.4742 0.4754
C6_2 C 0.6792(17) 0.4446(7) 0.5155(12)
H9_2 H 0.6932 0.4634 0.5796
H10_2 H 0.7105 0.4097 0.5285
C7_2 C 0.5322(11) 0.3964(6) 0.3641(10)
C8_2 C 0.5044(12) 0.5812(7) 0.0470(11)
H11_2 H 0.5621 0.5638 0.0923
H13_2 H 0.4427 0.5602 0.0407
C9_2 C 0.4827(12) 0.4643(6) 0.2243(11)
H14_2 H 0.4629 0.4872 0.2725
H15_2 H 0.4269 0.4621 0.1640
H16_2 H 0.5435 0.4783 0.2076
S6_2 S 0.4617(4) 0.93655(18) 0.0315(3)
N21_2 N 0.4552(9) 0.8445(5) 0.1365(8)
N23_2 N 0.4720(9) 0.8294(5) 0.2349(8)
N25_2 N 0.4954(9) 0.8701(5) 0.2936(8)
N26_2 N 0.4950(8) 0.9123(4) 0.2327(8)
C23_2 C 0.2688(13) 0.9738(7) 0.0539(14)
H39_2 H 0.2818 0.9553 0.1183
H40_2 H 0.1944 0.9742 0.0246
C25_2 C 0.4678(11) 0.8964(6) 0.1359(10)
C27_2 C 0.5173(12) 0.9643(6) 0.2757(11)
H46_2 H 0.5371 0.9872 0.2275
H47_2 H 0.5731 0.9621 0.3360
H48_2 H 0.4565 0.9783 0.2924
H12_2 H 0.5183 0.5851 0.9816
C24_2 C 0.3208(17) 0.9446(7) 0.9845(12)
H41_2 H 0.3068 0.9634 0.9204
H42_2 H 0.2895 0.9097 0.9715
loop_
_geom_bond_atom_site_label_1
_geom_bond_atom_site_label_2
_geom_bond_site_symmetry_1
_geom_bond_site_symmetry_2
N14 N15 1_555 1_555
N15 N16 1_555 1_555
C18 N16 1_555 1_555
H30 C18 1_555 1_555
H31 C18 1_555 1_555
H32 C18 1_555 1_555
Cu5 N15 1_555 1_555
S4 C15 1_555 1_555
H24 C14 1_555 1_555
C15 C14 1_555 1_555
H25 C15 1_555 1_555
H26 C15 1_555 1_555
C16 S4 1_555 1_555
N13 C16 1_555 1_555
H41 C24 1_555 1_555
H42 C24 1_555 1_555
Cu1 N1 1_555 1_555
Cu10 N2 1_555 1_555
S1 C1 1_555 1_555
S2 C6 1_555 1_555
S3 C10 1_555 1_555
N1 N2 1_555 1_555
N2 N3 1_555 1_555
N3 N4 1_555 1_555
N4 C1 1_555 1_555
N5 N6 1_555 1_555
N6 N7 1_555 1_555
N7 N8 1_555 1_555
N8 C7 1_555 1_555
N9 Cu1 1_555 1_555
N10 N9 1_555 1_555
N11 N10 1_555 1_555
N12 N11 1_555 1_555
C1 N1 1_555 1_555
C2 S1 1_555 1_555
H1 C2 1_555 1_555
H2 C2 1_555 1_555
C3 C2 1_555 1_555
H3 C3 1_555 1_555
H4 C3 1_555 1_555
C4 C3 1_555 1_555
H5 C4 1_555 1_555
H6 C4 1_555 1_555
C5 C4 1_555 1_555
H7 C5 1_555 1_555
H8 C5 1_555 1_555
C6 C5 1_555 1_555
H9 C6 1_555 1_555
H10 C6 1_555 1_555
C7 S2 1_555 1_555
C8 N4 1_555 1_555
H11 C8 1_555 1_555
H13 C8 1_555 1_555
C9 N8 1_555 1_555
H14 C9 1_555 1_555
H15 C9 1_555 1_555
H16 C9 1_555 1_555
C10 N9 1_555 1_555
C11 S3 1_555 1_555
H17 C11 1_555 1_555
H18 C11 1_555 1_555
C12 C11 1_555 1_555
H19 C12 1_555 1_555
H20 C12 1_555 1_555
C13 C12 1_555 1_555
H22 C13 1_555 1_555
C17 N12 1_555 1_555
H27 C17 1_555 1_555
H28 C17 1_555 1_555
H29 C17 1_555 1_555
Cu4 N6 1_555 1_555
Cu8 N5 1_555 1_555
Cu9 N10 1_555 1_555
S8 C33 1_555 1_555
N21 Cu10 1_555 1_555
N23 Cu1 1_555 1_555
N25 N23 1_555 1_555
N26 N25 1_555 1_555
N34 N35 1_555 1_555
N35 Cu9 1_555 1_555
N38 Cu1 1_555 1_555
N40 N38 1_555 1_555
H39 C23 1_555 1_555
H40 C23 1_555 1_555
C25 S6 1_555 1_555
C27 N26 1_555 1_555
H46 C27 1_555 1_555
H47 C27 1_555 1_555
H48 C27 1_555 1_555
H55 C32 1_555 1_555
H56 C32 1_555 1_555
C33 C32 1_555 1_555
H57 C33 1_555 1_555
H58 C33 1_555 1_555
C34 S8 1_555 1_555
C36 N40 1_555 1_555
H62 C36 1_555 1_555
H63 C36 1_555 1_555
H64 C36 1_555 1_555
N5 C7 1_555 1_555
N12 C10 1_555 1_555
N21 N23 1_555 1_555
N21 C25 1_555 1_555
N26 C25 1_555 1_555
N34 C34 1_555 1_555
N35 N38 1_555 1_555
N40 C34 1_555 1_555
Cu4 N17 1_555 1_555
Cu8 N18 1_555 1_555
S5 C19 1_555 1_555
N17 N18 1_555 1_555
N18 N19 1_555 1_555
N19 N20 1_555 1_555
N20 C19 1_555 1_555
N28 Cu4 1_555 1_555
N31 Cu8 1_555 1_555
N37 Cu8 1_555 1_555
N39 Cu4 1_555 1_555
C19 N17 1_555 1_555
C20 S5 1_555 1_555
H33 C20 1_555 1_555
H34 C20 1_555 1_555
C21 C20 1_555 1_555
H35 C21 1_555 1_555
H36 C21 1_555 1_555
C22 C21 1_555 1_555
H37 C22 1_555 1_555
H38 C22 1_555 1_555
C26 N20 1_555 1_555
H43 C26 1_555 1_555
H44 C26 1_555 1_555
H45 C26 1_555 1_555
Cu5 N27 1_555 1_555
S7 C28 1_555 1_555
N27 N30 1_555 1_555
N30 N32 1_555 1_555
N32 N33 1_555 1_555
N33 C28 1_555 1_555
C28 N27 1_555 1_555
C29 S7 1_555 1_555
H49 C29 1_555 1_555
H50 C29 1_555 1_555
C30 C29 1_555 1_555
H51 C30 1_555 1_555
H52 C30 1_555 1_555
C31 C30 1_555 1_555
H53 C31 1_555 1_555
H54 C31 1_555 1_555
C35 N33 1_555 1_555
H59 C35 1_555 1_555
H60 C35 1_555 1_555
H61 C35 1_555 1_555
Cu6 N27_2 1_555 1_555
S7_2 C28_2 1_555 1_555
N27_2 N31 1_555 1_555
N31 N32_2 1_555 1_555
N32_2 N33_2 1_555 1_555
N33_2 C28_2 1_555 1_555
C28_2 N27_2 1_555 1_555
C29_2 S7_2 1_555 1_555
H49_2 C29_2 1_555 1_555
H50_2 C29_2 1_555 1_555
C30_2 C29_2 1_555 1_555
H51_2 C30_2 1_555 1_555
H52_2 C30_2 1_555 1_555
C31_2 C30_2 1_555 1_555
H54_2 C31_2 1_555 1_555
C35_2 N33_2 1_555 1_555
H59_2 C35_2 1_555 1_555
H60_2 C35_2 1_555 1_555
H61_2 C35_2 1_555 1_555
S8_2 C33_2 1_555 1_555
H56_2 C32_2 1_555 1_555
C33_2 C32_2 1_555 1_555
H57_2 C33_2 1_555 1_555
H58_2 C33_2 1_555 1_555
C34_2 S8_2 1_555 1_555
N34_2 C34_2 1_555 1_555
S3_2 C10_2 1_555 1_555
N10_2 N28 1_555 1_555
N11_2 N10_2 1_555 1_555
N12_2 N11_2 1_555 1_555
C10_2 N28 1_555 1_555
C11_2 S3_2 1_555 1_555
H17_2 C11_2 1_555 1_555
H18_2 C11_2 1_555 1_555
C12_2 C11_2 1_555 1_555
H19_2 C12_2 1_555 1_555
H20_2 C12_2 1_555 1_555
C13_2 C12_2 1_555 1_555
H21_2 C13_2 1_555 1_555
H22_2 C13_2 1_555 1_555
C17_2 N12_2 1_555 1_555
H27_2 C17_2 1_555 1_555
H28_2 C17_2 1_555 1_555
H29_2 C17_2 1_555 1_555
N40_2 N39 1_555 1_555
C36_2 N40_2 1_555 1_555
H62_2 C36_2 1_555 1_555
H63_2 C36_2 1_555 1_555
H64_2 C36_2 1_555 1_555
N12_2 C10_2 1_555 1_555
N35_2 N39 1_555 1_555
S4_2 C15_2 1_555 1_555
N13_2 N37 1_555 1_555
N37 N15_2 1_555 1_555
N15_2 N16_2 1_555 1_555
N16_2 C16_2 1_555 1_555
H23_2 C14_2 1_555 1_555
H24_2 C14_2 1_555 1_555
C15_2 C14_2 1_555 1_555
H25_2 C15_2 1_555 1_555
H26_2 C15_2 1_555 1_555
C16_2 S4_2 1_555 1_555
C18_2 N16_2 1_555 1_555
H30_2 C18_2 1_555 1_555
H31_2 C18_2 1_555 1_555
H32_2 C18_2 1_555 1_555
Cu6 N15_2 1_555 1_555
N13_2 C16_2 1_555 1_555
Cu5 N17_2 1_555 1_555
Cu9 N18_2 1_555 1_555
S5_2 C19_2 1_555 1_555
N17_2 N18_2 1_555 1_555
N18_2 N19_2 1_555 1_555
N19_2 N20_2 1_555 1_555
N20_2 C19_2 1_555 1_555
N22 Cu9 1_555 1_555
N24 Cu5 1_555 1_555
C19_2 N17_2 1_555 1_555
C20_2 S5_2 1_555 1_555
H33_2 C20_2 1_555 1_555
H34_2 C20_2 1_555 1_555
C21_2 C20_2 1_555 1_555
H35_2 C21_2 1_555 1_555
H36_2 C21_2 1_555 1_555
C22_2 C21_2 1_555 1_555
H37_2 C22_2 1_555 1_555
H38_2 C22_2 1_555 1_555
C26_2 N20_2 1_555 1_555
H43_2 C26_2 1_555 1_555
H44_2 C26_2 1_555 1_555
H45_2 C26_2 1_555 1_555
N22 N24 1_555 1_555
Cu6 N1_2 1_555 1_555
Cu9_2 N2_2 1_555 1_555
S1_2 C1_2 1_555 1_555
S2_2 C6_2 1_555 1_555
N1_2 N2_2 1_555 1_555
N2_2 N3_2 1_555 1_555
N3_2 N4_2 1_555 1_555
N4_2 C1_2 1_555 1_555
N24 N7_2 1_555 1_555
N7_2 N8_2 1_555 1_555
N8_2 C7_2 1_555 1_555
C1_2 N1_2 1_555 1_555
C2_2 S1_2 1_555 1_555
H1_2 C2_2 1_555 1_555
H2_2 C2_2 1_555 1_555
C3_2 C2_2 1_555 1_555
H3_2 C3_2 1_555 1_555
H4_2 C3_2 1_555 1_555
C4_2 C3_2 1_555 1_555
H5_2 C4_2 1_555 1_555
H6_2 C4_2 1_555 1_555
C5_2 C4_2 1_555 1_555
H7_2 C5_2 1_555 1_555
H8_2 C5_2 1_555 1_555
C6_2 C5_2 1_555 1_555
H9_2 C6_2 1_555 1_555
H10_2 C6_2 1_555 1_555
C7_2 S2_2 1_555 1_555
C8_2 N4_2 1_555 1_555
H11_2 C8_2 1_555 1_555
H13_2 C8_2 1_555 1_555
C9_2 N8_2 1_555 1_555
H14_2 C9_2 1_555 1_555
H15_2 C9_2 1_555 1_555
H16_2 C9_2 1_555 1_555
N21_2 Cu9_2 1_555 1_555
N23_2 Cu6 1_555 1_555
N25_2 N23_2 1_555 1_555
N26_2 N25_2 1_555 1_555
H39_2 C23_2 1_555 1_555
H40_2 C23_2 1_555 1_555
C25_2 S6_2 1_555 1_555
C27_2 N26_2 1_555 1_555
H46_2 C27_2 1_555 1_555
H47_2 C27_2 1_555 1_555
H48_2 C27_2 1_555 1_555
N22 C7_2 1_555 1_555
N21_2 N23_2 1_555 1_555
N21_2 C25_2 1_555 1_555
N26_2 C25_2 1_555 1_555
H41_2 C24_2 1_555 1_555
H42_2 C24_2 1_555 1_555

#END
