
###############################################################################
#
# This file contains modified crystal structure data generated from the
# MOF subset of the Cambridge Structural Database (CSD) v543 
# hosted by the Cambridge Crystallographic Data Centre (CCDC).
#
# This work is licensed under the Creative Commons
# Attribution-NonCommercial-ShareAlike 4.0 International License.
# To view a copy of this license, visit
# http://creativecommons.org/licenses/by-nc-sa/4.0/
# or send a letter to
# Creative Commons, PO Box 1866, Mountain View, CA 94042, USA.
#
# CIF created using the CSD Python API on 29 September 2022
# The structure has been converted into the P1 space group
# The structure has a 3D framework
# The original CSD entry ILOTEJ07 is in the trigonal crystal system
# The framework has been calculated to contain at least 10.0% void space
# The void calculation uses a probe of radius 1.32A, grid spacing 0.4
# The framework is charged, counterions have been retained in the structure
#
###############################################################################

data_ILOTEJ07
_chemical_formula_moiety         '(C12 H12 Fe4 Mn2 O18)n'
_symmetry_cell_setting           triclinic
_symmetry_space_group_name_H-M   'P 1'
_symmetry_Int_Tables_number      1
_space_group_name_Hall           'P 1'
loop_
_symmetry_equiv_pos_site_id
_symmetry_equiv_pos_as_xyz
1 x,y,z
_cell_length_a                   8.2726(2)
_cell_length_b                   8.2726(2)
_cell_length_c                   13.8886(3)
_cell_angle_alpha                90
_cell_angle_beta                 90
_cell_angle_gamma                120
_cell_volume                     823.139
loop_
_atom_site_label
_atom_site_type_symbol
_atom_site_fract_x
_atom_site_fract_y
_atom_site_fract_z
Fe3 Fe 0.0000 0.0000 0.0000
Fe3_2 Fe 0.0000 0.0000 1.0000
O2 O 0.01562(18) 0.20818(19) 0.08185(10)
O9 O 0.4530(3) 0.1109(2) 0.16601(12)
C5 C 0.3325(4) 0.1212(3) 0.11862(13)
H5 H 0.3463 0.2388 0.1095
Mn3 Mn 0.6667 0.3333 0.2500
Fe3_3 Fe 0.0000 1.0000 0.0000
Fe4 Fe -0.0000 -0.0000 0.5000
Fe3_4 Fe 0.0000 1.0000 1.0000
O16 O 0.20818(19) 0.19256(26) 0.91815(10)
O10 O 0.19256(26) 0.98438(18) 0.08185(10)
Fe4_2 Fe -0.0000 1.0000 0.5000
Fe3_5 Fe 1.0000 0.0000 0.0000
Fe3_6 Fe 1.0000 0.0000 1.0000
O1 O 0.8891(2) 0.3421(2) 0.16601(12)
C1 C 0.8788(3) 0.2113(3) 0.11862(13)
H1 H 0.7612 0.1075 0.1095
O5 O 0.6579(2) 0.5470(3) 0.16601(12)
O6 O 0.79182(19) 0.80744(26) 0.08185(10)
C3 C 0.7887(3) 0.6675(4) 0.11862(13)
H3 H 0.8925 0.6537 0.1095
O11 O 0.6579(2) 0.1109(2) 0.33399(12)
C6 C 0.7887(3) 0.1212(3) 0.38138(13)
H6 H 0.8925 0.2388 0.3905
Fe3_7 Fe 1.0000 1.0000 0.0000
Fe4_3 Fe 1.0000 -0.0000 0.5000
O13 O 0.4530(3) 0.3421(2) 0.33399(12)
O14 O 0.8891(2) 0.5470(3) 0.33399(12)
Fe3_8 Fe 1.0000 1.0000 1.0000
O17 O 0.80744(26) 0.01562(18) 0.91815(10)
O12 O 0.79182(19) 0.98438(18) 0.41815(10)
Fe4_4 Fe 1.0000 1.0000 0.5000
O15 O 0.98438(18) 0.79182(19) 0.91815(10)
O12_2 O 0.01562(18) 0.80744(26) 0.41815(10)
C6_2 C 0.8788(3) 0.6675(4) 0.38138(13)
H6_2 H 0.7612 0.6537 0.3905
O12_3 O 0.19256(26) 0.20818(19) 0.41815(10)
C6_3 C 0.3325(4) 0.2113(3) 0.38138(13)
H6_3 H 0.3463 0.1075 0.3905
O15_2 O 0.20818(19) 0.01562(18) 0.58185(10)
O17_2 O 0.98438(18) 0.19256(26) 0.58185(10)
O16_2 O 0.80744(26) 0.79182(19) 0.58185(10)
O3 O 0.3421(2) 0.4530(3) 0.83399(12)
C2 C 0.2113(3) 0.3325(4) 0.88138(13)
H2 H 0.1075 0.3463 0.8905
Mn2 Mn 0.3333 0.6667 0.7500
O1_2 O 0.1109(2) 0.6579(2) 0.83399(12)
C1_2 C 0.1212(3) 0.7887(3) 0.88138(13)
H1_2 H 0.2388 0.8925 0.8905
O7 O 0.5470(3) 0.8891(2) 0.83399(12)
C4 C 0.6675(4) 0.8788(3) 0.88138(13)
H4 H 0.6537 0.7612 0.8905
O11_2 O 0.3421(2) 0.8891(2) 0.66601(12)
C6_4 C 0.2113(3) 0.8788(3) 0.61862(13)
H6_4 H 0.1075 0.7612 0.6095
O13_2 O 0.5470(3) 0.6579(2) 0.66601(12)
O14_2 O 0.1109(2) 0.4530(3) 0.66601(12)
C6_5 C 0.1212(3) 0.3325(4) 0.61862(13)
H6_5 H 0.2388 0.3463 0.6095
C6_6 C 0.6675(4) 0.7887(3) 0.61862(13)
H6_6 H 0.6537 0.8925 0.6095
loop_
_geom_bond_atom_site_label_1
_geom_bond_atom_site_label_2
_geom_bond_site_symmetry_1
_geom_bond_site_symmetry_2
Fe3 O2 1_555 1_555
O9 C5 1_555 1_555
H5 C5 1_555 1_555
Mn3 O9 1_555 1_555
O16 Fe3_2 1_555 1_555
O10 Fe3_3 1_555 1_555
Mn3 O1 1_555 1_555
O1 C1 1_555 1_555
C1 H1 1_555 1_555
O5 Mn3 1_555 1_555
O6 C3 1_555 1_555
C3 O5 1_555 1_555
H3 C3 1_555 1_555
O11 Mn3 1_555 1_555
C6 O11 1_555 1_555
H6 C6 1_555 1_555
Fe3_7 O6 1_555 1_555
O13 Mn3 1_555 1_555
O14 Mn3 1_555 1_555
O17 Fe3_6 1_555 1_555
Fe4_4 O12 1_555 1_555
O15 Fe3_8 1_555 1_555
Fe4_2 O12_2 1_555 1_555
C6_2 O14 1_555 1_555
H6_2 C6_2 1_555 1_555
O12_3 C6_3 1_555 1_555
C6_3 O13 1_555 1_555
H6_3 C6_3 1_555 1_555
Fe4 O12_3 1_555 1_555
O15_2 Fe4 1_555 1_555
O17_2 Fe4_3 1_555 1_555
O16_2 Fe4_4 1_555 1_555
O3 C2 1_555 1_555
C2 O16 1_555 1_555
H2 C2 1_555 1_555
Mn2 O3 1_555 1_555
Mn2 O1_2 1_555 1_555
O1_2 C1_2 1_555 1_555
C1_2 H1_2 1_555 1_555
O7 Mn2 1_555 1_555
C4 O7 1_555 1_555
H4 C4 1_555 1_555
O11_2 Mn2 1_555 1_555
C6_4 O11_2 1_555 1_555
H6_4 C6_4 1_555 1_555
O13_2 Mn2 1_555 1_555
O14_2 Mn2 1_555 1_555
C6_5 O14_2 1_555 1_555
H6_5 C6_5 1_555 1_555
O16_2 C6_6 1_555 1_555
C6_6 O13_2 1_555 1_555
H6_6 C6_6 1_555 1_555

#END
