
###############################################################################
#
# This file contains modified crystal structure data generated from the
# MOF subset of the Cambridge Structural Database (CSD) v543 
# hosted by the Cambridge Crystallographic Data Centre (CCDC).
#
# This work is licensed under the Creative Commons
# Attribution-NonCommercial-ShareAlike 4.0 International License.
# To view a copy of this license, visit
# http://creativecommons.org/licenses/by-nc-sa/4.0/
# or send a letter to
# Creative Commons, PO Box 1866, Mountain View, CA 94042, USA.
#
# CIF created using the CSD Python API on 29 September 2022
# The structure has been converted into the P1 space group
# The structure has a 3D framework
# The original CSD entry ILOVOX is in the monoclinic crystal system
# The framework has been calculated to contain at least 10.0% void space
# The void calculation uses a probe of radius 1.32A, grid spacing 0.4
#
###############################################################################

data_ILOVOX
_chemical_formula_moiety         '(C216 H144 N40 O32 Zn8)n'
_symmetry_cell_setting           triclinic
_symmetry_space_group_name_H-M   'P 1'
_symmetry_Int_Tables_number      1
_space_group_name_Hall           'P 1'
loop_
_symmetry_equiv_pos_site_id
_symmetry_equiv_pos_as_xyz
1 x,y,z
_cell_length_a                   26.9056(4)
_cell_length_b                   9.72590(10)
_cell_length_c                   25.5009(3)
_cell_angle_alpha                90
_cell_angle_beta                 106.0290(10)
_cell_angle_gamma                90
_cell_volume                     6413.67
loop_
_atom_site_label
_atom_site_type_symbol
_atom_site_fract_x
_atom_site_fract_y
_atom_site_fract_z
O5 O 0.18212(9) 0.2369(3) 0.62847(10)
O7 O 0.18283(9) 0.3034(3) 0.54554(10)
C37 C 0.10131(13) 0.2607(4) 0.56192(14)
C38 C 0.15906(13) 0.2676(4) 0.57870(14)
C39 C 0.07402(13) 0.2029(4) 0.59560(14)
H24 H 0.0920 0.1704 0.6299
C46 C 0.02029(14) 0.3050(4) 0.49478(14)
H28 H 0.0024 0.3424 0.4613
C47 C 0.07341(14) 0.3100(4) 0.51103(14)
H29 H 0.0910 0.3468 0.4876
C49 C 0.02105(13) 0.1930(4) 0.57904(14)
H31 H 0.0037 0.1517 0.6018
Zn5 Zn 0.25488(2) 0.21429(5) 0.62951(2)
O8 O 0.78511(11) 0.0105(3) 0.64374(11)
N7 N 0.78377(11) 0.3382(3) 0.20947(11)
N8 N 0.82015(11) 0.3486(3) 0.29665(11)
N9 N 0.93913(11) 0.2401(3) 0.51147(12)
C33 C 0.81873(13) 0.2838(3) 0.24966(14)
H23 H 0.8398 0.2104 0.2464
C35 C 0.91092(12) 0.2675(4) 0.45592(13)
N10 N 0.75965(16) 0.4410(5) 0.22957(13)
C36 C 0.85208(13) 0.3205(3) 0.35111(13)
C40 C 0.99275(13) 0.2446(4) 0.52799(13)
C41 C 0.87617(14) 0.3756(4) 0.44561(14)
H25 H 0.8727 0.4305 0.4742
C42 C 0.84854(13) 0.0216(4) 0.59457(14)
C43 C 0.89648(15) 0.0301(4) 0.52809(16)
C44 C 0.91019(12) 0.1646(4) 0.54211(13)
C48 C 0.84651(14) 0.4026(4) 0.39282(14)
H30 H 0.8232 0.4753 0.3858
C50 C 0.86276(15) 0.1571(5) 0.60871(15)
H32 H 0.8514 0.2003 0.6358
C51 C 0.89388(15) 0.2285(4) 0.58261(15)
H33 H 0.9036 0.3187 0.5924
C52 C 0.91574(16) 0.1868(4) 0.41366(16)
H34 H 0.9390 0.1138 0.4205
C53 C 0.7814(2) 0.4433(5) 0.28187(16)
H35 H 0.7717 0.5020 0.3061
C54 C 0.88625(17) 0.2129(4) 0.36063(16)
H36 H 0.8897 0.1580 0.3320
Zn4 Zn 0.75488(2) 0.28571(5) 0.12951(2)
C2 C 0.74805(13) 0.1889(4) 0.48197(14)
C4 C 0.73504(13) 0.0594(4) 0.49696(13)
H2 H 0.7279 0.0474 0.5303
C22 C 0.75471(15) 0.0837(4) 0.39923(15)
H13 H 0.7616 0.0923 0.3656
C24 C 0.75700(16) 0.1992(4) 0.43053(15)
H15 H 0.7645 0.2840 0.4177
N6 N 0.75692(11) 0.5402(3) 0.58544(11)
C28 C 0.75195(13) 0.3111(4) 0.51803(14)
C29 C 0.76496(13) 0.4406(4) 0.50304(13)
H19 H 0.7721 0.4526 0.4697
C30 C 0.76738(13) 0.5509(4) 0.53717(13)
H20 H 0.7766 0.6363 0.5264
C31 C 0.74529(15) 0.4163(4) 0.60077(15)
H21 H 0.7384 0.4077 0.6344
C32 C 0.74300(16) 0.3008(4) 0.56947(15)
H22 H 0.7355 0.2160 0.5823
Zn2 Zn 0.75488(2) 0.71429(5) 0.62951(2)
O6 O 0.80849(10) 0.8180(3) 0.61037(11)
C34 C 0.81166(13) 0.9464(4) 0.61923(14)
H26 H 0.9080 0.9875 0.5009
C45 C 0.86589(14) 0.9581(4) 0.55393(16)
H27 H 0.8569 0.8674 0.5442
O10 O 0.68212(9) 0.7369(3) 0.62847(10)
N11 N 0.78377(11) 0.6618(3) 0.70947(11)
Zn1 Zn 0.25488(2) 0.78571(5) 0.12951(2)
O1 O 0.68212(9) 0.2631(3) 0.12847(10)
O2 O 0.30849(10) 0.6820(3) 0.11037(11)
O3 O 0.68283(9) 0.1966(3) 0.04554(10)
O4 O 0.28511(11) 0.4895(3) 0.14374(11)
N2 N 0.25692(11) 0.9598(3) 0.08544(11)
N4 N 0.43913(11) 0.2599(3) 0.01147(12)
C3 C 0.31166(13) 0.5536(4) 0.11923(14)
C7 C 0.60131(13) 0.2393(4) 0.06192(14)
C8 C 0.65906(13) 0.2324(4) 0.07870(14)
C9 C 0.26738(13) 0.9491(4) 0.03717(13)
H3 H 0.2766 0.8637 0.0264
C10 C 0.57402(13) 0.2971(4) 0.09560(14)
H4 H 0.5920 0.3296 0.1299
C11 C 0.49275(13) 0.2554(4) 0.02799(13)
C13 C 0.34854(13) 0.4784(4) 0.09457(14)
C14 C 0.39648(15) 0.4699(4) 0.02809(16)
H6 H 0.4080 0.5125 0.0009
C15 C 0.41019(12) 0.3354(4) 0.04211(13)
C16 C 0.36589(14) 0.5419(4) 0.05393(16)
H7 H 0.3569 0.6326 0.0442
C18 C 0.57341(14) 0.1900(4) 0.01103(14)
C20 C 0.52105(13) 0.3070(4) 0.07904(14)
H11 H 0.5037 0.3483 0.1018
C21 C 0.36276(15) 0.3429(5) 0.10871(15)
H12 H 0.3514 0.2997 0.1358
C23 C 0.39388(15) 0.2715(4) 0.08261(15)
H14 H 0.4036 0.1813 0.0924
O9 O 0.18212(9) 0.7631(3) 0.12847(10)
N12 N 0.28377(11) 0.8382(3) 0.20947(11)
N1 N 0.28377(11) 0.1618(3) 0.70947(11)
N3 N 0.32015(11) 0.1514(3) 0.79665(11)
C1 C 0.31873(13) 0.2162(3) 0.74966(14)
H1 H 0.3398 0.2896 0.7464
C5 C 0.41092(12) 0.2325(4) 0.95592(13)
N5 N 0.25965(16) 0.0590(5) 0.72957(13)
C6 C 0.35208(13) 0.1795(3) 0.85111(13)
C12 C 0.37617(14) 0.1244(4) 0.94561(14)
H5 H 0.3727 0.0695 0.9742
C17 C 0.52029(14) 0.1950(4) 0.99478(14)
H8 H 0.5024 0.1576 0.9613
H9 H 0.5910 0.1532 0.9876
C19 C 0.34651(14) 0.0974(4) 0.89282(14)
H10 H 0.3232 0.0247 0.8858
C25 C 0.41574(16) 0.3132(4) 0.91366(16)
H16 H 0.4390 0.3862 0.9205
C26 C 0.2814(2) 0.0567(5) 0.78187(16)
C27 C 0.38625(17) 0.2871(4) 0.86063(16)
H18 H 0.3897 0.3420 0.8320
N6_2 N 0.25692(11) 0.0402(3) 0.58544(11)
C30_2 C 0.26738(13) 0.0509(4) 0.53717(13)
H20_2 H 0.2766 0.1363 0.5264
O6_2 O 0.30849(10) 0.3180(3) 0.61037(11)
O7_2 O 0.68283(9) 0.8034(3) 0.54554(10)
O8_2 O 0.28511(11) 0.5105(3) 0.64374(11)
N8_2 N 0.32015(11) 0.8486(3) 0.29665(11)
N9_2 N 0.43913(11) 0.7401(3) 0.51147(12)
C33_2 C 0.31873(13) 0.7838(3) 0.24966(14)
H23_2 H 0.3398 0.7104 0.2464
C34_2 C 0.31166(13) 0.4464(4) 0.61923(14)
C35_2 C 0.41092(12) 0.7675(4) 0.45592(13)
N10_2 N 0.25965(16) 0.9410(5) 0.22957(13)
C36_2 C 0.35208(13) 0.8205(3) 0.35111(13)
C37_2 C 0.60131(13) 0.7607(4) 0.56192(14)
C38_2 C 0.65906(13) 0.7676(4) 0.57870(14)
C39_2 C 0.57402(13) 0.7029(4) 0.59560(14)
H24_2 H 0.5920 0.6704 0.6299
C40_2 C 0.49275(13) 0.7446(4) 0.52799(13)
C41_2 C 0.37617(14) 0.8756(4) 0.44561(14)
H25_2 H 0.3727 0.9305 0.4742
C42_2 C 0.34854(13) 0.5216(4) 0.59457(14)
C43_2 C 0.39648(15) 0.5301(4) 0.52809(16)
H26_2 H 0.4080 0.4875 0.5009
C44_2 C 0.41019(12) 0.6646(4) 0.54211(13)
C45_2 C 0.36589(14) 0.4581(4) 0.55393(16)
H27_2 H 0.3569 0.3674 0.5442
C46_2 C 0.52029(14) 0.8050(4) 0.49478(14)
H28_2 H 0.5024 0.8424 0.4613
C47_2 C 0.57341(14) 0.8100(4) 0.51103(14)
H29_2 H 0.5910 0.8468 0.4876
C48_2 C 0.34651(14) 0.9026(4) 0.39282(14)
H30_2 H 0.3232 0.9753 0.3858
C49_2 C 0.52105(13) 0.6930(4) 0.57904(14)
H31_2 H 0.5037 0.6517 0.6018
C50_2 C 0.36276(15) 0.6571(5) 0.60871(15)
H32_2 H 0.3514 0.7003 0.6358
C51_2 C 0.39388(15) 0.7285(4) 0.58261(15)
H33_2 H 0.4036 0.8187 0.5924
C52_2 C 0.41574(16) 0.6868(4) 0.41366(16)
H34_2 H 0.4390 0.6138 0.4205
C53_2 C 0.2814(2) 0.9433(5) 0.28187(16)
C54_2 C 0.38625(17) 0.7129(4) 0.36063(16)
H36_2 H 0.3897 0.6580 0.3320
O3_2 O 0.18283(9) 0.6966(3) 0.04554(10)
C7_2 C 0.10131(13) 0.7393(4) 0.06192(14)
C8_2 C 0.15906(13) 0.7324(4) 0.07870(14)
C10_2 C 0.07402(13) 0.7971(4) 0.09560(14)
H4_2 H 0.0920 0.8296 0.1299
C18_2 C 0.07341(14) 0.6900(4) 0.01103(14)
C20_2 C 0.02105(13) 0.8070(4) 0.07904(14)
H11_2 H 0.0037 0.8483 0.1018
O2_2 O 0.80849(10) 0.1820(3) 0.11037(11)
N2_2 N 0.75692(11) 0.4598(3) 0.08544(11)
C2_2 C 0.75195(13) 0.6889(4) 0.01803(14)
C3_2 C 0.81166(13) 0.0536(4) 0.11923(14)
C4_2 C 0.76496(13) 0.5594(4) 0.00304(13)
C9_2 C 0.76738(13) 0.4491(4) 0.03717(13)
H3_2 H 0.7766 0.3637 0.0264
H6_2 H 0.9080 0.0125 0.0009
C16_2 C 0.86589(14) 0.0419(4) 0.05393(16)
H7_2 H 0.8569 0.1326 0.0442
C22_2 C 0.74529(15) 0.5837(4) 0.10077(15)
H13_2 H 0.7384 0.5923 0.1344
C24_2 C 0.74300(16) 0.6992(4) 0.06947(15)
H15_2 H 0.7355 0.7840 0.0823
H19_2 H 0.7279 0.9526 0.0303
N3_2 N 0.82015(11) 0.6514(3) 0.79665(11)
C1_2 C 0.81873(13) 0.7162(3) 0.74966(14)
H1_2 H 0.8398 0.7896 0.7464
C5_2 C 0.91092(12) 0.7325(4) 0.95592(13)
N5_2 N 0.75965(16) 0.5590(5) 0.72957(13)
C6_2 C 0.85208(13) 0.6795(3) 0.85111(13)
C12_2 C 0.87617(14) 0.6244(4) 0.94561(14)
H5_2 H 0.8727 0.5695 0.9742
C19_2 C 0.84651(14) 0.5974(4) 0.89282(14)
H10_2 H 0.8232 0.5247 0.8858
C25_2 C 0.91574(16) 0.8132(4) 0.91366(16)
H16_2 H 0.9390 0.8862 0.9205
C26_2 C 0.7814(2) 0.5567(5) 0.78187(16)
H17 H 0.7717 0.4980 0.8061
C27_2 C 0.88625(17) 0.7871(4) 0.86063(16)
H18_2 H 0.8897 0.8420 0.8320
Zn1_2 Zn 0.74512(2) 0.78571(5) 0.37049(2)
O1_2 O 0.31788(9) 0.2631(3) 0.37153(10)
O2_3 O 0.69151(10) 0.6820(3) 0.38963(11)
O3_3 O 0.31717(9) 0.1966(3) 0.45446(10)
O4_2 O 0.71489(11) 0.4895(3) 0.35626(11)
N1_2 N 0.71623(11) 0.1618(3) 0.79053(11)
N2_3 N 0.74308(11) 0.9598(3) 0.41456(11)
N3_3 N 0.67985(11) 0.1514(3) 0.70335(11)
N4_2 N 0.56087(11) 0.2599(3) 0.48853(12)
C1_3 C 0.68127(13) 0.2162(3) 0.75034(14)
H1_3 H 0.6602 0.2896 0.7536
C3_3 C 0.68834(13) 0.5536(4) 0.38077(14)
C5_3 C 0.58908(12) 0.2325(4) 0.54408(13)
N5_3 N 0.74035(16) 0.0590(5) 0.77043(13)
C6_3 C 0.64792(13) 0.1795(3) 0.64889(13)
C7_3 C 0.39869(13) 0.2393(4) 0.43808(14)
C8_3 C 0.34094(13) 0.2324(4) 0.42130(14)
C9_3 C 0.73262(13) 0.9491(4) 0.46283(13)
H3_3 H 0.7234 0.8637 0.4736
C10_3 C 0.42598(13) 0.2971(4) 0.40440(14)
H4_3 H 0.4080 0.3296 0.3701
C11_2 C 0.50725(13) 0.2554(4) 0.47201(13)
C12_3 C 0.62383(14) 0.1244(4) 0.55439(14)
H5_3 H 0.6273 0.0695 0.5258
C13_2 C 0.65146(13) 0.4784(4) 0.40543(14)
C14_2 C 0.60352(15) 0.4699(4) 0.47191(16)
H6_3 H 0.5920 0.5125 0.4991
C15_2 C 0.58981(12) 0.3354(4) 0.45789(13)
C16_3 C 0.63411(14) 0.5419(4) 0.44607(16)
H7_3 H 0.6431 0.6326 0.4558
C17_2 C 0.47971(14) 0.1950(4) 0.50522(14)
H8_2 H 0.4976 0.1576 0.5387
C18_3 C 0.42659(14) 0.1900(4) 0.48897(14)
H9_2 H 0.4090 0.1532 0.5124
C19_3 C 0.65349(14) 0.0974(4) 0.60718(14)
H10_3 H 0.6768 0.0247 0.6142
C20_3 C 0.47895(13) 0.3070(4) 0.42096(14)
H11_3 H 0.4963 0.3483 0.3982
C21_2 C 0.63724(15) 0.3429(5) 0.39129(15)
H12_2 H 0.6486 0.2997 0.3642
C23_2 C 0.60612(15) 0.2715(4) 0.41739(15)
H14_2 H 0.5964 0.1813 0.4076
C25_3 C 0.58426(16) 0.3132(4) 0.58634(16)
H16_3 H 0.5610 0.3862 0.5795
C26_3 C 0.7186(2) 0.0567(5) 0.71813(16)
C27_3 C 0.61375(17) 0.2871(4) 0.63937(16)
H18_3 H 0.6103 0.3420 0.6680
Zn3 Zn 0.24512(2) 0.28571(5) 0.37049(2)
Zn6 Zn 0.74512(2) 0.21429(5) 0.87049(2)
O9_2 O 0.81788(9) 0.7631(3) 0.37153(10)
N12_2 N 0.71623(11) 0.8382(3) 0.29053(11)
N7_2 N 0.21623(11) 0.3382(3) 0.29053(11)
N8_3 N 0.17985(11) 0.3486(3) 0.20335(11)
C33_3 C 0.18127(13) 0.2838(3) 0.25034(14)
H23_3 H 0.1602 0.2104 0.2536
C35_3 C 0.08908(12) 0.2675(4) 0.04408(13)
N10_3 N 0.24035(16) 0.4410(5) 0.27043(13)
C36_3 C 0.14792(13) 0.3205(3) 0.14889(13)
C41_3 C 0.12383(14) 0.3756(4) 0.05439(14)
H25_3 H 0.1273 0.4305 0.0258
C48_3 C 0.15349(14) 0.4026(4) 0.10718(14)
H30_3 H 0.1768 0.4753 0.1142
C52_3 C 0.08426(16) 0.1868(4) 0.08634(16)
H34_3 H 0.0610 0.1138 0.0795
C53_3 C 0.2186(2) 0.4433(5) 0.21813(16)
H35_2 H 0.2283 0.5020 0.1939
C54_3 C 0.11375(17) 0.2129(4) 0.13937(16)
H36_3 H 0.1103 0.1580 0.1680
H2_2 H 0.2721 0.0474 0.9697
N6_3 N 0.24308(11) 0.5402(3) 0.91456(11)
C28_2 C 0.24805(13) 0.3111(4) 0.98197(14)
C29_2 C 0.23504(13) 0.4406(4) 0.99696(13)
C30_3 C 0.23262(13) 0.5509(4) 0.96283(13)
H20_3 H 0.2234 0.6363 0.9736
C31_2 C 0.25471(15) 0.4163(4) 0.89923(15)
H21_2 H 0.2616 0.4077 0.8656
C32_2 C 0.25700(16) 0.3008(4) 0.93053(15)
H22_2 H 0.2645 0.2160 0.9177
Zn2_2 Zn 0.24512(2) 0.71429(5) 0.87049(2)
O6_3 O 0.19151(10) 0.8180(3) 0.88963(11)
C34_3 C 0.18834(13) 0.9464(4) 0.88077(14)
H26_3 H 0.0920 0.9875 0.9991
C45_3 C 0.13411(14) 0.9581(4) 0.94607(16)
H27_3 H 0.1431 0.8674 0.9558
O10_2 O 0.31788(9) 0.7369(3) 0.87153(10)
N11_2 N 0.21623(11) 0.6618(3) 0.79053(11)
O5_2 O 0.81788(9) 0.2369(3) 0.87153(10)
O7_3 O 0.81717(9) 0.3034(3) 0.95446(10)
C37_3 C 0.89869(13) 0.2607(4) 0.93808(14)
C38_3 C 0.84094(13) 0.2676(4) 0.92130(14)
C39_3 C 0.92598(13) 0.2029(4) 0.90440(14)
H24_3 H 0.9080 0.1704 0.8701
C47_3 C 0.92659(14) 0.3100(4) 0.98897(14)
C49_3 C 0.97895(13) 0.1930(4) 0.92096(14)
H31_3 H 0.9963 0.1517 0.8982
O2_4 O 0.19151(10) 0.1820(3) 0.38963(11)
N2_4 N 0.24308(11) 0.4598(3) 0.41456(11)
C2_3 C 0.24805(13) 0.6889(4) 0.48197(14)
C3_4 C 0.18834(13) 0.0536(4) 0.38077(14)
C4_3 C 0.23504(13) 0.5594(4) 0.49696(13)
H2_3 H 0.2279 0.5474 0.5303
C9_4 C 0.23262(13) 0.4491(4) 0.46283(13)
H3_4 H 0.2234 0.3637 0.4736
H6_4 H 0.0920 0.0125 0.4991
C16_4 C 0.13411(14) 0.0419(4) 0.44607(16)
H7_4 H 0.1431 0.1326 0.4558
C22_3 C 0.25471(15) 0.5837(4) 0.39923(15)
H13_3 H 0.2616 0.5923 0.3656
C24_3 C 0.25700(16) 0.6992(4) 0.43053(15)
H15_3 H 0.2645 0.7840 0.4177
C28_3 C 0.25195(13) 0.8111(4) 0.51803(14)
C29_3 C 0.26496(13) 0.9406(4) 0.50304(13)
H19_3 H 0.2721 0.9526 0.4697
C31_3 C 0.24529(15) 0.9163(4) 0.60077(15)
H21_3 H 0.2384 0.9077 0.6344
C32_3 C 0.24300(16) 0.8008(4) 0.56947(15)
H22_3 H 0.2355 0.7160 0.5823
O4_3 O 0.21489(11) 0.9895(3) 0.35626(11)
N3_4 N 0.17985(11) 0.6514(3) 0.70335(11)
N4_3 N 0.06087(11) 0.7599(3) 0.48853(12)
C1_4 C 0.18127(13) 0.7162(3) 0.75034(14)
H1_4 H 0.1602 0.7896 0.7536
C5_4 C 0.08908(12) 0.7325(4) 0.54408(13)
N5_4 N 0.24035(16) 0.5590(5) 0.77043(13)
C6_4 C 0.14792(13) 0.6795(3) 0.64889(13)
C11_3 C 0.00725(13) 0.7554(4) 0.47201(13)
C12_4 C 0.12383(14) 0.6244(4) 0.55439(14)
H5_4 H 0.1273 0.5695 0.5258
C13_3 C 0.15146(13) 0.9784(4) 0.40543(14)
C14_3 C 0.10352(15) 0.9699(4) 0.47191(16)
C15_3 C 0.08981(12) 0.8354(4) 0.45789(13)
C19_4 C 0.15349(14) 0.5974(4) 0.60718(14)
H10_4 H 0.1768 0.5247 0.6142
C21_3 C 0.13724(15) 0.8429(5) 0.39129(15)
H12_3 H 0.1486 0.7997 0.3642
C23_3 C 0.10612(15) 0.7715(4) 0.41739(15)
H14_3 H 0.0964 0.6813 0.4076
C25_4 C 0.08426(16) 0.8132(4) 0.58634(16)
H16_4 H 0.0610 0.8862 0.5795
C26_4 C 0.2186(2) 0.5567(5) 0.71813(16)
H17_2 H 0.2283 0.4980 0.6939
C27_4 C 0.11375(17) 0.7871(4) 0.63937(16)
H18_4 H 0.1103 0.8420 0.6680
O3_4 O 0.81717(9) 0.6966(3) 0.45446(10)
C7_4 C 0.89869(13) 0.7393(4) 0.43808(14)
C8_4 C 0.84094(13) 0.7324(4) 0.42130(14)
C10_4 C 0.92598(13) 0.7971(4) 0.40440(14)
H4_4 H 0.9080 0.8296 0.3701
C17_3 C 0.97971(14) 0.6950(4) 0.50522(14)
H8_3 H 0.9976 0.6576 0.5387
C18_4 C 0.92659(14) 0.6900(4) 0.48897(14)
H9_3 H 0.9090 0.6532 0.5124
C20_4 C 0.97895(13) 0.8070(4) 0.42096(14)
H11_4 H 0.9963 0.8483 0.3982
N8_4 N 0.67985(11) 0.8486(3) 0.20335(11)
C33_4 C 0.68127(13) 0.7838(3) 0.25034(14)
H23_4 H 0.6602 0.7104 0.2536
C35_4 C 0.58908(12) 0.7675(4) 0.04408(13)
N10_4 N 0.74035(16) 0.9410(5) 0.27043(13)
C36_4 C 0.64792(13) 0.8205(3) 0.14889(13)
C41_4 C 0.62383(14) 0.8756(4) 0.05439(14)
H25_4 H 0.6273 0.9305 0.0258
C46_3 C 0.47971(14) 0.8050(4) 0.00522(14)
H28_3 H 0.4976 0.8424 0.0387
H29_3 H 0.4090 0.8468 0.0124
C48_4 C 0.65349(14) 0.9026(4) 0.10718(14)
H30_4 H 0.6768 0.9753 0.1142
C52_4 C 0.58426(16) 0.6868(4) 0.08634(16)
H34_4 H 0.5610 0.6138 0.0795
C53_4 C 0.7186(2) 0.9433(5) 0.21813(16)
C54_4 C 0.61375(17) 0.7129(4) 0.13937(16)
H36_4 H 0.6103 0.6580 0.1680
N6_4 N 0.74308(11) 0.0402(3) 0.91456(11)
C30_4 C 0.73262(13) 0.0509(4) 0.96283(13)
H20_4 H 0.7234 0.1363 0.9736
O6_4 O 0.69151(10) 0.3180(3) 0.88963(11)
O7_4 O 0.31717(9) 0.8034(3) 0.95446(10)
O8_3 O 0.71489(11) 0.5105(3) 0.85626(11)
N9_3 N 0.56087(11) 0.7401(3) 0.98853(12)
C34_4 C 0.68834(13) 0.4464(4) 0.88077(14)
C37_4 C 0.39869(13) 0.7607(4) 0.93808(14)
C38_4 C 0.34094(13) 0.7676(4) 0.92130(14)
C39_4 C 0.42598(13) 0.7029(4) 0.90440(14)
H24_4 H 0.4080 0.6704 0.8701
C40_3 C 0.50725(13) 0.7446(4) 0.97201(13)
C42_3 C 0.65146(13) 0.5216(4) 0.90543(14)
C43_3 C 0.60352(15) 0.5301(4) 0.97191(16)
H26_4 H 0.5920 0.4875 0.9991
C44_3 C 0.58981(12) 0.6646(4) 0.95789(13)
C45_4 C 0.63411(14) 0.4581(4) 0.94607(16)
H27_4 H 0.6431 0.3674 0.9558
C47_4 C 0.42659(14) 0.8100(4) 0.98897(14)
C49_4 C 0.47895(13) 0.6930(4) 0.92096(14)
H31_4 H 0.4963 0.6517 0.8982
C50_3 C 0.63724(15) 0.6571(5) 0.89129(15)
H32_3 H 0.6486 0.7003 0.8642
C51_3 C 0.60612(15) 0.7285(4) 0.91739(15)
H33_3 H 0.5964 0.8187 0.9076
H17_3 H 0.7283 0.9980 0.6939
O8_4 O 0.21489(11) 0.0105(3) 0.85626(11)
N9_4 N 0.06087(11) 0.2401(3) 0.98853(12)
C40_4 C 0.00725(13) 0.2446(4) 0.97201(13)
C42_4 C 0.15146(13) 0.0216(4) 0.90543(14)
C43_4 C 0.10352(15) 0.0301(4) 0.97191(16)
C44_4 C 0.08981(12) 0.1646(4) 0.95789(13)
C50_4 C 0.13724(15) 0.1571(5) 0.89129(15)
H32_4 H 0.1486 0.2003 0.8642
C51_4 C 0.10612(15) 0.2285(4) 0.91739(15)
H33_4 H 0.0964 0.3187 0.9076
C2_4 C 0.25195(13) 0.1889(4) 0.01803(14)
C4_4 C 0.26496(13) 0.0594(4) 0.00304(13)
C22_4 C 0.24529(15) 0.0837(4) 0.10077(15)
H13_4 H 0.2384 0.0923 0.1344
C24_4 C 0.24300(16) 0.1992(4) 0.06947(15)
H15_4 H 0.2355 0.2840 0.0823
H19_4 H 0.2279 0.4526 0.0303
H17_4 H 0.2717 0.9980 0.8061
C46_4 C 0.97971(14) 0.3050(4) 0.00522(14)
H28_4 H 0.9976 0.3424 0.0387
H29_4 H 0.9090 0.3468 0.0124
H35_3 H 0.2717 0.0020 0.3061
C17_4 C 0.02029(14) 0.6950(4) 0.99478(14)
H8_4 H 0.0024 0.6576 0.9613
H9_4 H 0.0910 0.6532 0.9876
H35_4 H 0.7283 0.0020 0.1939
H2_4 H 0.7721 0.5474 0.9697
C28_4 C 0.74805(13) 0.8111(4) 0.98197(14)
C29_4 C 0.73504(13) 0.9406(4) 0.99696(13)
C31_4 C 0.75471(15) 0.9163(4) 0.89923(15)
H21_4 H 0.7616 0.9077 0.8656
C32_4 C 0.75700(16) 0.8008(4) 0.93053(15)
H22_4 H 0.7645 0.7160 0.9177
O4_4 O 0.78511(11) 0.9895(3) 0.14374(11)
N4_4 N 0.93913(11) 0.7599(3) 0.01147(12)
C11_4 C 0.99275(13) 0.7554(4) 0.02799(13)
C13_4 C 0.84854(13) 0.9784(4) 0.09457(14)
C14_4 C 0.89648(15) 0.9699(4) 0.02809(16)
C15_4 C 0.91019(12) 0.8354(4) 0.04211(13)
C21_4 C 0.86276(15) 0.8429(5) 0.10871(15)
H12_4 H 0.8514 0.7997 0.1358
C23_4 C 0.89388(15) 0.7715(4) 0.08261(15)
H14_4 H 0.9036 0.6813 0.0924
loop_
_geom_bond_atom_site_label_1
_geom_bond_atom_site_label_2
_geom_bond_site_symmetry_1
_geom_bond_site_symmetry_2
O5 C38 1_555 1_555
O7 C38 1_555 1_555
C37 C38 1_555 1_555
C39 C37 1_555 1_555
H24 C39 1_555 1_555
H28 C46 1_555 1_555
C47 C37 1_555 1_555
H29 C47 1_555 1_555
C49 C39 1_555 1_555
H31 C49 1_555 1_555
Zn5 O5 1_555 1_555
C46 C47 1_555 1_555
N7 C33 1_555 1_555
N8 C33 1_555 1_555
N9 C35 1_555 1_555
C33 H23 1_555 1_555
C35 C41 1_555 1_555
N10 N7 1_555 1_555
C36 N8 1_555 1_555
C40 N9 1_555 1_555
C41 H25 1_555 1_555
C44 N9 1_555 1_555
C48 C36 1_555 1_555
H30 C48 1_555 1_555
C50 C42 1_555 1_555
H32 C50 1_555 1_555
C51 C44 1_555 1_555
H33 C51 1_555 1_555
C52 C35 1_555 1_555
H34 C52 1_555 1_555
C53 N8 1_555 1_555
H35 C53 1_555 1_555
C54 C36 1_555 1_555
H36 C54 1_555 1_555
Zn4 N7 1_555 1_555
N10 C53 1_555 1_555
C41 C48 1_555 1_555
C43 C44 1_555 1_555
C50 C51 1_555 1_555
C52 C54 1_555 1_555
C2 C4 1_555 1_555
C4 H2 1_555 1_555
H13 C22 1_555 1_555
C24 C2 1_555 1_555
H15 C24 1_555 1_555
N6 C30 1_555 1_555
C28 C2 1_555 1_555
C29 C28 1_555 1_555
H19 C29 1_555 1_555
C30 C29 1_555 1_555
H20 C30 1_555 1_555
C31 N6 1_555 1_555
H21 C31 1_555 1_555
C32 C28 1_555 1_555
H22 C32 1_555 1_555
Zn2 N6 1_555 1_555
O6 Zn2 1_555 1_555
C34 O6 1_555 1_555
H27 C45 1_555 1_555
O10 Zn2 1_555 1_555
N11 Zn2 1_555 1_555
C22 C24 1_555 1_555
C31 C32 1_555 1_555
Zn1 O2 1_555 1_555
O1 C8 1_555 1_555
O2 C3 1_555 1_555
O3 C8 1_555 1_555
O4 C3 1_555 1_555
N2 Zn1 1_555 1_555
C3 C13 1_555 1_555
C7 C8 1_555 1_555
C9 N2 1_555 1_555
H3 C9 1_555 1_555
C10 C7 1_555 1_555
H4 C10 1_555 1_555
C11 N4 1_555 1_555
C13 C16 1_555 1_555
C14 H6 1_555 1_555
C15 N4 1_555 1_555
C16 C14 1_555 1_555
H7 C16 1_555 1_555
C18 C7 1_555 1_555
C20 C10 1_555 1_555
H11 C20 1_555 1_555
C21 C13 1_555 1_555
H12 C21 1_555 1_555
C23 C15 1_555 1_555
H14 C23 1_555 1_555
Zn4 O1 1_555 1_555
O9 Zn1 1_555 1_555
N12 Zn1 1_555 1_555
C11 C20 1_555 1_555
C14 C15 1_555 1_555
C21 C23 1_555 1_555
N1 C1 1_555 1_555
N3 C1 1_555 1_555
C1 H1 1_555 1_555
C5 C12 1_555 1_555
N5 N1 1_555 1_555
C6 N3 1_555 1_555
C12 H5 1_555 1_555
H8 C17 1_555 1_555
C19 C6 1_555 1_555
H10 C19 1_555 1_555
C25 C5 1_555 1_555
H16 C25 1_555 1_555
C26 N3 1_555 1_555
C27 C6 1_555 1_555
H18 C27 1_555 1_555
Zn5 N1 1_555 1_555
N5 C26 1_555 1_555
C12 C19 1_555 1_555
C25 C27 1_555 1_555
N6_2 C30_2 1_555 1_555
H20_2 C30_2 1_555 1_555
Zn5 N6_2 1_555 1_555
O10 C38_2 1_555 1_555
O6_2 Zn5 1_555 1_555
O7_2 C38_2 1_555 1_555
O8_2 C34_2 1_555 1_555
N12 C33_2 1_555 1_555
N8_2 C33_2 1_555 1_555
N9_2 C35_2 1_555 1_555
C33_2 H23_2 1_555 1_555
C34_2 O6_2 1_555 1_555
C35_2 C41_2 1_555 1_555
N10_2 N12 1_555 1_555
C36_2 N8_2 1_555 1_555
C37_2 C38_2 1_555 1_555
C39_2 C37_2 1_555 1_555
H24_2 C39_2 1_555 1_555
C40_2 N9_2 1_555 1_555
C41_2 H25_2 1_555 1_555
C42_2 C34_2 1_555 1_555
C43_2 H26_2 1_555 1_555
C44_2 N9_2 1_555 1_555
C45_2 C42_2 1_555 1_555
H27_2 C45_2 1_555 1_555
C46_2 C40_2 1_555 1_555
H28_2 C46_2 1_555 1_555
C47_2 C37_2 1_555 1_555
H29_2 C47_2 1_555 1_555
C48_2 C36_2 1_555 1_555
H30_2 C48_2 1_555 1_555
C49_2 C39_2 1_555 1_555
H31_2 C49_2 1_555 1_555
C50_2 C42_2 1_555 1_555
H32_2 C50_2 1_555 1_555
C51_2 C44_2 1_555 1_555
H33_2 C51_2 1_555 1_555
C52_2 C35_2 1_555 1_555
H34_2 C52_2 1_555 1_555
C53_2 N8_2 1_555 1_555
C54_2 C36_2 1_555 1_555
H36_2 C54_2 1_555 1_555
N10_2 C53_2 1_555 1_555
C40_2 C49_2 1_555 1_555
C41_2 C48_2 1_555 1_555
C43_2 C44_2 1_555 1_555
C43_2 C45_2 1_555 1_555
C46_2 C47_2 1_555 1_555
C50_2 C51_2 1_555 1_555
C52_2 C54_2 1_555 1_555
O9 C8_2 1_555 1_555
O3_2 C8_2 1_555 1_555
C7_2 C8_2 1_555 1_555
C10_2 C7_2 1_555 1_555
H4_2 C10_2 1_555 1_555
C18_2 C7_2 1_555 1_555
C20_2 C10_2 1_555 1_555
H11_2 C20_2 1_555 1_555
Zn4 O2_2 1_555 1_555
O2_2 C3_2 1_555 1_555
N2_2 Zn4 1_555 1_555
C2_2 C4_2 1_555 1_555
C9_2 N2_2 1_555 1_555
H3_2 C9_2 1_555 1_555
H7_2 C16_2 1_555 1_555
C22_2 N2_2 1_555 1_555
H13_2 C22_2 1_555 1_555
C24_2 C2_2 1_555 1_555
H15_2 C24_2 1_555 1_555
C4_2 C9_2 1_555 1_555
C22_2 C24_2 1_555 1_555
N11 C1_2 1_555 1_555
N3_2 C1_2 1_555 1_555
C1_2 H1_2 1_555 1_555
C5_2 C12_2 1_555 1_555
N5_2 N11 1_555 1_555
C6_2 N3_2 1_555 1_555
C12_2 H5_2 1_555 1_555
C19_2 C6_2 1_555 1_555
H10_2 C19_2 1_555 1_555
C25_2 C5_2 1_555 1_555
H16_2 C25_2 1_555 1_555
C26_2 N3_2 1_555 1_555
H17 C26_2 1_555 1_555
C27_2 C6_2 1_555 1_555
H18_2 C27_2 1_555 1_555
N5_2 C26_2 1_555 1_555
C12_2 C19_2 1_555 1_555
C25_2 C27_2 1_555 1_555
Zn1_2 O2_3 1_555 1_555
O1_2 C8_3 1_555 1_555
O2_3 C3_3 1_555 1_555
O3_3 C8_3 1_555 1_555
O4_2 C3_3 1_555 1_555
N1_2 C1_3 1_555 1_555
N2_3 Zn1_2 1_555 1_555
N3_3 C1_3 1_555 1_555
N4_2 C5_3 1_555 1_555
C1_3 H1_3 1_555 1_555
C3_3 C13_2 1_555 1_555
C5_3 C12_3 1_555 1_555
N5_3 N1_2 1_555 1_555
C6_3 N3_3 1_555 1_555
C7_3 C8_3 1_555 1_555
C9_3 N2_3 1_555 1_555
H3_3 C9_3 1_555 1_555
C10_3 C7_3 1_555 1_555
H4_3 C10_3 1_555 1_555
C11_2 N4_2 1_555 1_555
C12_3 H5_3 1_555 1_555
C13_2 C16_3 1_555 1_555
C14_2 H6_3 1_555 1_555
C15_2 N4_2 1_555 1_555
C16_3 C14_2 1_555 1_555
H7_3 C16_3 1_555 1_555
C17_2 C11_2 1_555 1_555
H8_2 C17_2 1_555 1_555
C18_3 C7_3 1_555 1_555
H9_2 C18_3 1_555 1_555
C19_3 C6_3 1_555 1_555
H10_3 C19_3 1_555 1_555
C20_3 C10_3 1_555 1_555
H11_3 C20_3 1_555 1_555
C21_2 C13_2 1_555 1_555
H12_2 C21_2 1_555 1_555
C23_2 C15_2 1_555 1_555
H14_2 C23_2 1_555 1_555
C25_3 C5_3 1_555 1_555
H16_3 C25_3 1_555 1_555
C26_3 N3_3 1_555 1_555
C27_3 C6_3 1_555 1_555
H18_3 C27_3 1_555 1_555
Zn3 O1_2 1_555 1_555
Zn6 N1_2 1_555 1_555
O9_2 Zn1_2 1_555 1_555
N12_2 Zn1_2 1_555 1_555
N5_3 C26_3 1_555 1_555
C11_2 C20_3 1_555 1_555
C12_3 C19_3 1_555 1_555
C14_2 C15_2 1_555 1_555
C17_2 C18_3 1_555 1_555
C21_2 C23_2 1_555 1_555
C25_3 C27_3 1_555 1_555
N7_2 C33_3 1_555 1_555
N8_3 C33_3 1_555 1_555
C33_3 H23_3 1_555 1_555
C35_3 C41_3 1_555 1_555
N10_3 N7_2 1_555 1_555
C36_3 N8_3 1_555 1_555
C41_3 H25_3 1_555 1_555
C48_3 C36_3 1_555 1_555
H30_3 C48_3 1_555 1_555
C52_3 C35_3 1_555 1_555
H34_3 C52_3 1_555 1_555
C53_3 N8_3 1_555 1_555
H35_2 C53_3 1_555 1_555
C54_3 C36_3 1_555 1_555
H36_3 C54_3 1_555 1_555
Zn3 N7_2 1_555 1_555
N10_3 C53_3 1_555 1_555
C41_3 C48_3 1_555 1_555
C52_3 C54_3 1_555 1_555
N6_3 C30_3 1_555 1_555
C29_2 C28_2 1_555 1_555
C30_3 C29_2 1_555 1_555
H20_3 C30_3 1_555 1_555
C31_2 N6_3 1_555 1_555
H21_2 C31_2 1_555 1_555
C32_2 C28_2 1_555 1_555
H22_2 C32_2 1_555 1_555
Zn2_2 N6_3 1_555 1_555
O6_3 Zn2_2 1_555 1_555
C34_3 O6_3 1_555 1_555
H27_3 C45_3 1_555 1_555
O10_2 Zn2_2 1_555 1_555
N11_2 Zn2_2 1_555 1_555
C31_2 C32_2 1_555 1_555
O5_2 C38_3 1_555 1_555
O7_3 C38_3 1_555 1_555
C37_3 C38_3 1_555 1_555
C39_3 C37_3 1_555 1_555
H24_3 C39_3 1_555 1_555
C47_3 C37_3 1_555 1_555
C49_3 C39_3 1_555 1_555
H31_3 C49_3 1_555 1_555
Zn6 O5_2 1_555 1_555
Zn3 O2_4 1_555 1_555
O2_4 C3_4 1_555 1_555
N2_4 Zn3 1_555 1_555
C2_3 C4_3 1_555 1_555
C4_3 H2_3 1_555 1_555
C9_4 N2_4 1_555 1_555
H3_4 C9_4 1_555 1_555
H7_4 C16_4 1_555 1_555
C22_3 N2_4 1_555 1_555
H13_3 C22_3 1_555 1_555
C24_3 C2_3 1_555 1_555
H15_3 C24_3 1_555 1_555
C28_3 C2_3 1_555 1_555
C29_3 C28_3 1_555 1_555
H19_3 C29_3 1_555 1_555
H21_3 C31_3 1_555 1_555
C32_3 C28_3 1_555 1_555
H22_3 C32_3 1_555 1_555
C4_3 C9_4 1_555 1_555
C22_3 C24_3 1_555 1_555
C31_3 C32_3 1_555 1_555
N11_2 C1_4 1_555 1_555
N3_4 C1_4 1_555 1_555
N4_3 C5_4 1_555 1_555
C1_4 H1_4 1_555 1_555
C5_4 C12_4 1_555 1_555
N5_4 N11_2 1_555 1_555
C6_4 N3_4 1_555 1_555
C11_3 N4_3 1_555 1_555
C12_4 H5_4 1_555 1_555
C15_3 N4_3 1_555 1_555
C19_4 C6_4 1_555 1_555
H10_4 C19_4 1_555 1_555
C21_3 C13_3 1_555 1_555
H12_3 C21_3 1_555 1_555
C23_3 C15_3 1_555 1_555
H14_3 C23_3 1_555 1_555
C25_4 C5_4 1_555 1_555
H16_4 C25_4 1_555 1_555
C26_4 N3_4 1_555 1_555
H17_2 C26_4 1_555 1_555
C27_4 C6_4 1_555 1_555
H18_4 C27_4 1_555 1_555
N5_4 C26_4 1_555 1_555
C12_4 C19_4 1_555 1_555
C14_3 C15_3 1_555 1_555
C21_3 C23_3 1_555 1_555
C25_4 C27_4 1_555 1_555
O9_2 C8_4 1_555 1_555
O3_4 C8_4 1_555 1_555
C7_4 C8_4 1_555 1_555
C10_4 C7_4 1_555 1_555
H4_4 C10_4 1_555 1_555
H8_3 C17_3 1_555 1_555
C18_4 C7_4 1_555 1_555
H9_3 C18_4 1_555 1_555
C20_4 C10_4 1_555 1_555
H11_4 C20_4 1_555 1_555
C17_3 C18_4 1_555 1_555
N12_2 C33_4 1_555 1_555
N8_4 C33_4 1_555 1_555
C33_4 H23_4 1_555 1_555
C35_4 C41_4 1_555 1_555
N10_4 N12_2 1_555 1_555
C36_4 N8_4 1_555 1_555
C41_4 H25_4 1_555 1_555
H28_3 C46_3 1_555 1_555
C48_4 C36_4 1_555 1_555
H30_4 C48_4 1_555 1_555
C52_4 C35_4 1_555 1_555
H34_4 C52_4 1_555 1_555
C53_4 N8_4 1_555 1_555
C54_4 C36_4 1_555 1_555
H36_4 C54_4 1_555 1_555
N10_4 C53_4 1_555 1_555
C41_4 C48_4 1_555 1_555
C52_4 C54_4 1_555 1_555
N6_4 C30_4 1_555 1_555
H20_4 C30_4 1_555 1_555
Zn6 N6_4 1_555 1_555
O10_2 C38_4 1_555 1_555
O6_4 Zn6 1_555 1_555
O7_4 C38_4 1_555 1_555
O8_3 C34_4 1_555 1_555
C34_4 O6_4 1_555 1_555
C37_4 C38_4 1_555 1_555
C39_4 C37_4 1_555 1_555
H24_4 C39_4 1_555 1_555
C40_3 N9_3 1_555 1_555
C42_3 C34_4 1_555 1_555
C43_3 H26_4 1_555 1_555
C44_3 N9_3 1_555 1_555
C45_4 C42_3 1_555 1_555
H27_4 C45_4 1_555 1_555
C47_4 C37_4 1_555 1_555
C49_4 C39_4 1_555 1_555
H31_4 C49_4 1_555 1_555
C50_3 C42_3 1_555 1_555
H32_3 C50_3 1_555 1_555
C51_3 C44_3 1_555 1_555
H33_3 C51_3 1_555 1_555
C40_3 C49_4 1_555 1_555
C43_3 C44_3 1_555 1_555
C43_3 C45_4 1_555 1_555
C50_3 C51_3 1_555 1_555
C40_4 N9_4 1_555 1_555
C44_4 N9_4 1_555 1_555
C50_4 C42_4 1_555 1_555
H32_4 C50_4 1_555 1_555
C51_4 C44_4 1_555 1_555
H33_4 C51_4 1_555 1_555
C43_4 C44_4 1_555 1_555
C50_4 C51_4 1_555 1_555
C2_4 C4_4 1_555 1_555
H13_4 C22_4 1_555 1_555
C24_4 C2_4 1_555 1_555
H15_4 C24_4 1_555 1_555
C22_4 C24_4 1_555 1_555
H28_4 C46_4 1_555 1_555
H8_4 C17_4 1_555 1_555
C29_4 C28_4 1_555 1_555
H21_4 C31_4 1_555 1_555
C32_4 C28_4 1_555 1_555
H22_4 C32_4 1_555 1_555
C31_4 C32_4 1_555 1_555
C11_4 N4_4 1_555 1_555
C15_4 N4_4 1_555 1_555
C21_4 C13_4 1_555 1_555
H12_4 C21_4 1_555 1_555
C23_4 C15_4 1_555 1_555
H14_4 C23_4 1_555 1_555
C14_4 C15_4 1_555 1_555
C21_4 C23_4 1_555 1_555

#END
