
###############################################################################
#
# This file contains modified crystal structure data generated from the
# MOF subset of the Cambridge Structural Database (CSD) v543 
# hosted by the Cambridge Crystallographic Data Centre (CCDC).
#
# This work is licensed under the Creative Commons
# Attribution-NonCommercial-ShareAlike 4.0 International License.
# To view a copy of this license, visit
# http://creativecommons.org/licenses/by-nc-sa/4.0/
# or send a letter to
# Creative Commons, PO Box 1866, Mountain View, CA 94042, USA.
#
# CIF created using the CSD Python API on 29 September 2022
# The structure has been converted into the P1 space group
# The structure has a 3D framework
# The original CSD entry ILUFOL is in the hexagonal crystal system
# The framework has been calculated to contain at least 10.0% void space
# The void calculation uses a probe of radius 1.32A, grid spacing 0.4
#
###############################################################################

data_ILUFOL
_chemical_formula_moiety         '(C84 H60 Co15 Dy3 N12 O66)n'
_symmetry_cell_setting           triclinic
_symmetry_space_group_name_H-M   'P 1'
_symmetry_Int_Tables_number      1
_space_group_name_Hall           'P 1'
loop_
_symmetry_equiv_pos_site_id
_symmetry_equiv_pos_as_xyz
1 x,y,z
_cell_length_a                   15.2196(8)
_cell_length_b                   15.2196(8)
_cell_length_c                   15.4737(15)
_cell_angle_alpha                90
_cell_angle_beta                 90
_cell_angle_gamma                120
_cell_volume                     3104.07
loop_
_atom_site_label
_atom_site_type_symbol
_atom_site_fract_x
_atom_site_fract_y
_atom_site_fract_z
Co7 Co -0.0000 0.5000 0.0000
Co7_2 Co -0.0000 0.5000 1.0000
Co9 Co 0.5000 0.0000 0.0000
Co5 Co 0.5000 -0.0000 0.5000
Co9_2 Co 0.5000 0.0000 1.0000
O18 O 0.4487(2) 0.0616(4) 0.4075(2)
O19 O 0.4487(2) 0.0616(4) 0.5925(2)
O37 O 0.6493(3) 0.1349(4) 0.5000
H11 H 0.6510 0.1639 0.5469
H12 H 0.6510 0.1639 0.4531
Co9_3 Co 0.5000 1.0000 0.0000
Dy1 Dy 0.3333 0.6667 0.2500
Co1 Co 0.5000 0.5000 0.5000
O1 O 0.3871(3) 0.4487(2) 0.4075(2)
O2 O 0.3888(2) 0.5878(2) 0.35662(18)
O3 O 0.4856(3) 0.3507(3) 0.5000
H1 H 0.5129 0.3490 0.5469
N1 N 0.23940(16) 0.4788(3) 0.2500
C1 C 0.3547(3) 0.4927(3) 0.3608(3)
C2 C 0.2661(3) 0.4274(3) 0.3036(3)
C3 C 0.2148(4) 0.3226(3) 0.3062(3)
H2 H 0.2339 0.2884 0.3449
C4 C 0.1348(2) 0.2695(5) 0.2500
H3 H 0.0995 0.1990 0.2500
Dy2 Dy 0.6667 0.3333 0.2500
Dy3 Dy 0.3333 0.6667 0.7500
Co3 Co 0.0000 0.5000 0.5000
Co5_2 Co 0.5000 1.0000 0.5000
Co6 Co 0.5000 0.5000 0.0000
Co7_3 Co 1.0000 0.5000 0.0000
Co9_4 Co 0.5000 1.0000 1.0000
O4 O 0.0616(4) 0.4487(2) 0.0925(2)
O5 O 0.0616(4) 0.6129(3) 0.4075(2)
O6 O 0.3871(3) 0.9384(4) 0.0925(2)
O7 O 0.5513(2) 0.9384(4) 0.4075(2)
O8 O 0.5513(2) 0.6129(3) 0.0925(2)
O9 O 0.6129(3) 0.5513(2) 0.4075(2)
O10 O 0.9384(4) 0.5513(2) 0.0925(2)
O11 O 0.6129(3) 0.5513(2) 0.5925(2)
O12 O 0.3871(3) 0.4487(2) 0.5925(2)
O13 O 0.0616(4) 0.4487(2) 0.9075(2)
O16 O 0.0616(4) 0.6129(3) 0.5925(2)
O17 O 0.3871(3) 0.9384(4) 0.9075(2)
O20 O 0.5513(2) 0.9384(4) 0.5925(2)
O21 O 0.1990(3) 0.5878(2) 0.14338(18)
O22 O 0.1990(3) 0.6112(2) 0.35662(18)
O23 O 0.3888(2) 0.8010(3) 0.14338(18)
O24 O 0.4122(2) 0.8010(3) 0.35662(18)
O25 O 0.4122(2) 0.6112(2) 0.14338(18)
O26 O 0.6112(2) 0.4122(2) 0.35662(18)
O27 O 0.8010(3) 0.4122(2) 0.14338(18)
O28 O 0.3888(2) 0.5878(2) 0.64338(18)
O29 O 0.1990(3) 0.5878(2) 0.85662(18)
O30 O 0.1990(3) 0.6112(2) 0.64338(18)
O31 O 0.3888(2) 0.8010(3) 0.85662(18)
O32 O 0.4122(2) 0.8010(3) 0.64338(18)
O33 O 0.4122(2) 0.6112(2) 0.85662(18)
O34 O 0.5144(3) 0.6493(3) 0.5000
O36 O 0.1349(4) 0.4856(3) 0.5000
O38 O 0.3507(3) 0.8651(4) 0.5000
H4 H 0.5129 0.3490 0.4531
H5 H 0.4871 0.6510 0.5469
H6 H 0.4871 0.6510 0.4531
H9 H 0.1639 0.5129 0.5469
H10 H 0.1639 0.5129 0.4531
H13 H 0.3490 0.8361 0.5469
H14 H 0.3490 0.8361 0.4531
N2 N 0.23940(34) 0.76060(16) 0.2500
N3 N 0.5212(3) 0.76060(34) 0.2500
N4 N 0.76060(16) 0.5212(3) 0.2500
N5 N 0.23940(16) 0.4788(3) 0.7500
N6 N 0.23940(34) 0.76060(16) 0.7500
N7 N 0.5212(3) 0.76060(34) 0.7500
C5 C 0.1380(4) 0.4927(3) 0.1392(3)
C6 C 0.1380(4) 0.6453(3) 0.3608(3)
C7 C 0.3547(3) 0.8620(4) 0.1392(3)
C8 C 0.5073(3) 0.8620(4) 0.3608(3)
C9 C 0.5073(3) 0.6453(3) 0.1392(3)
C10 C 0.6453(3) 0.5073(3) 0.3608(3)
C11 C 0.8620(4) 0.5073(3) 0.1392(3)
C12 C 0.3547(3) 0.4927(3) 0.6392(3)
C13 C 0.1380(4) 0.4927(3) 0.8608(3)
C14 C 0.1380(4) 0.6453(3) 0.6392(3)
C15 C 0.3547(3) 0.8620(4) 0.8608(3)
C16 C 0.1613(4) 0.4274(3) 0.1964(3)
C17 C 0.1613(4) 0.7339(3) 0.3036(3)
C18 C 0.2661(3) 0.8387(4) 0.1964(3)
C19 C 0.5726(3) 0.8387(4) 0.3036(3)
C20 C 0.5726(3) 0.7339(3) 0.1964(3)
C21 C 0.7339(3) 0.5726(3) 0.3036(3)
C22 C 0.8387(4) 0.5726(3) 0.1964(3)
C23 C 0.2661(3) 0.4274(3) 0.6964(3)
C24 C 0.1613(4) 0.4274(3) 0.8036(3)
C25 C 0.1613(4) 0.7339(3) 0.6964(3)
C26 C 0.2661(3) 0.8387(4) 0.8036(3)
C27 C 0.1078(5) 0.3226(3) 0.1938(3)
C28 C 0.1078(5) 0.7852(4) 0.3062(3)
C29 C 0.2148(4) 0.8922(5) 0.1938(3)
C30 C 0.6774(3) 0.8922(5) 0.3062(3)
C31 C 0.6774(3) 0.7852(4) 0.1938(3)
C32 C 0.7852(4) 0.6774(3) 0.3062(3)
C33 C 0.8922(5) 0.6774(3) 0.1938(3)
C34 C 0.2148(4) 0.3226(3) 0.6938(3)
C35 C 0.1078(5) 0.3226(3) 0.8062(3)
C36 C 0.1078(5) 0.7852(4) 0.6938(3)
C37 C 0.2148(4) 0.8922(5) 0.8062(3)
H15 H 0.0545 0.2884 0.1551
H16 H 0.0545 0.7661 0.3449
H17 H 0.2339 0.9455 0.1551
H18 H 0.7116 0.9455 0.3449
H19 H 0.7116 0.7661 0.1551
H20 H 0.7661 0.7116 0.3449
H21 H 0.9455 0.7116 0.1551
H22 H 0.2339 0.2884 0.6551
H23 H 0.0545 0.2884 0.8449
H24 H 0.0545 0.7661 0.6551
H25 H 0.2339 0.9455 0.8449
C38 C 0.1347(5) 0.8652(2) 0.2500
C39 C 0.7305(5) 0.8653(5) 0.2500
C40 C 0.8652(2) 0.7305(5) 0.2500
C41 C 0.1348(2) 0.2695(5) 0.7500
C42 C 0.1347(5) 0.8652(2) 0.7500
H26 H 0.0995 0.9005 0.2500
H27 H 0.8010 0.9005 0.2500
H28 H 0.9005 0.8010 0.2500
H29 H 0.0995 0.1990 0.7500
H30 H 0.0995 0.9005 0.7500
Co6_2 Co 0.5000 0.5000 1.0000
Co7_4 Co 1.0000 0.5000 1.0000
Co3_2 Co 1.0000 0.5000 0.5000
O14 O 0.9384(4) 0.3871(3) 0.4075(2)
O15 O 0.9384(4) 0.3871(3) 0.5925(2)
O35 O 0.8651(4) 0.5144(3) 0.5000
H7 H 0.8361 0.4871 0.5469
H8 H 0.8361 0.4871 0.4531
O10_2 O 0.4487(2) 0.3871(4) 0.0925(2)
O26_2 O 0.5878(2) 0.1990(3) 0.35662(18)
O27_2 O 0.5878(2) 0.3888(4) 0.14338(18)
N4_2 N 0.4788(3) 0.23940(34) 0.2500
C10_2 C 0.4927(3) 0.1380(4) 0.3608(3)
C11_2 C 0.4927(3) 0.3547(5) 0.1392(3)
C21_2 C 0.4274(3) 0.1613(4) 0.3036(3)
C22_2 C 0.4274(3) 0.2661(5) 0.1964(3)
C32_2 C 0.3226(3) 0.1078(5) 0.3062(3)
C33_2 C 0.3226(3) 0.2148(6) 0.1938(3)
H20_2 H 0.2884 0.0545 0.3449
H21_2 H 0.2884 0.2339 0.1551
C40_2 C 0.2695(5) 0.1347(5) 0.2500
H28_2 H 0.1990 0.0995 0.2500
O13_2 O 0.5513(2) 0.6129(4) 0.9075(2)
C12_2 C 0.5073(3) 0.8620(4) 0.6392(3)
C13_2 C 0.5073(3) 0.6453(5) 0.8608(3)
C23_2 C 0.5726(3) 0.8387(4) 0.6964(3)
C24_2 C 0.5726(3) 0.7339(5) 0.8036(3)
C34_2 C 0.6774(3) 0.8922(5) 0.6938(3)
C35_2 C 0.6774(3) 0.7852(6) 0.8062(3)
H22_2 H 0.7116 0.9455 0.6551
H23_2 H 0.7116 0.7661 0.8449
C41_2 C 0.7305(5) 0.8653(5) 0.7500
H29_2 H 0.8010 0.9005 0.7500
O10_3 O 0.6129(4) 0.0616(4) 0.0925(2)
O26_3 O 0.8010(3) 0.3888(2) 0.35662(18)
O27_3 O 0.6112(4) 0.1990(3) 0.14338(18)
N4_3 N 0.76060(34) 0.23940(16) 0.2500
C10_3 C 0.8620(4) 0.3547(3) 0.3608(3)
C11_3 C 0.6453(5) 0.1380(4) 0.1392(3)
C21_3 C 0.8387(4) 0.2661(3) 0.3036(3)
C22_3 C 0.7339(5) 0.1613(4) 0.1964(3)
C32_3 C 0.8922(5) 0.2148(4) 0.3062(3)
C33_3 C 0.7852(6) 0.1078(5) 0.1938(3)
H20_3 H 0.9455 0.2339 0.3449
H21_3 H 0.7661 0.0545 0.1551
C40_3 C 0.8653(5) 0.1348(2) 0.2500
H28_3 H 0.9005 0.0995 0.2500
Dy3_2 Dy 0.6667 0.3333 0.7500
O13_3 O 0.9384(4) 0.5513(2) 0.9075(2)
O17_2 O 0.6129(3) 0.0616(4) 0.9075(2)
O28_2 O 0.6112(2) 0.4122(2) 0.64338(18)
O29_2 O 0.8010(3) 0.4122(2) 0.85662(18)
O30_2 O 0.8010(3) 0.3888(2) 0.64338(18)
O31_2 O 0.6112(2) 0.1990(3) 0.85662(18)
O32_2 O 0.5878(2) 0.1990(3) 0.64338(18)
O33_2 O 0.5878(2) 0.3888(2) 0.85662(18)
N5_2 N 0.76060(16) 0.5212(3) 0.7500
N6_2 N 0.76060(34) 0.23940(16) 0.7500
N7_2 N 0.4788(3) 0.23940(34) 0.7500
C12_3 C 0.6453(3) 0.5073(3) 0.6392(3)
C13_3 C 0.8620(4) 0.5073(3) 0.8608(3)
C14_2 C 0.8620(4) 0.3547(3) 0.6392(3)
C15_2 C 0.6453(3) 0.1380(4) 0.8608(3)
C23_3 C 0.7339(3) 0.5726(3) 0.6964(3)
C24_3 C 0.8387(4) 0.5726(3) 0.8036(3)
C25_2 C 0.8387(4) 0.2661(3) 0.6964(3)
C26_2 C 0.7339(3) 0.1613(4) 0.8036(3)
C34_3 C 0.7852(4) 0.6774(3) 0.6938(3)
C35_3 C 0.8922(5) 0.6774(3) 0.8062(3)
C36_2 C 0.8922(5) 0.2148(4) 0.6938(3)
C37_2 C 0.7852(4) 0.1078(5) 0.8062(3)
H22_3 H 0.7661 0.7116 0.6551
H23_3 H 0.9455 0.7116 0.8449
H24_2 H 0.9455 0.2339 0.6551
H25_2 H 0.7661 0.0545 0.8449
C41_3 C 0.8652(2) 0.7305(5) 0.7500
C42_2 C 0.8653(5) 0.1348(2) 0.7500
H29_3 H 0.9005 0.8010 0.7500
H30_2 H 0.9005 0.0995 0.7500
O13_4 O 0.4487(2) 0.3871(4) 0.9075(2)
C12_4 C 0.4927(3) 0.1380(4) 0.6392(3)
C13_4 C 0.4927(3) 0.3547(5) 0.8608(3)
C23_4 C 0.4274(3) 0.1613(4) 0.6964(3)
C24_4 C 0.4274(3) 0.2661(5) 0.8036(3)
C34_4 C 0.3226(3) 0.1078(5) 0.6938(3)
C35_4 C 0.3226(3) 0.2148(6) 0.8062(3)
H22_4 H 0.2884 0.0545 0.6551
H23_4 H 0.2884 0.2339 0.8449
C41_4 C 0.2695(5) 0.1347(5) 0.7500
H29_4 H 0.1990 0.0995 0.7500
O37_2 O 0.1349(4) 0.6493(3) 0.0000
H12_2 H 0.1639 0.6510 0.0469
O37_3 O 0.1349(4) 0.6493(3) 1.0000
H11_2 H 0.1639 0.6510 0.9531
O3_2 O 0.3507(3) 0.4856(3) 0.0000
O34_2 O 0.6493(3) 0.5144(3) 0.0000
O36_2 O 0.4856(3) 0.1349(4) 0.0000
O38_2 O 0.8651(4) 0.3507(3) 0.0000
H4_2 H 0.3490 0.5129 0.0469
H6_2 H 0.6510 0.4871 0.0469
H10_2 H 0.5129 0.1639 0.0469
H14_2 H 0.8361 0.3490 0.0469
O3_3 O 0.3507(3) 0.4856(3) 1.0000
H1_2 H 0.3490 0.5129 0.9531
O34_3 O 0.6493(3) 0.5144(3) 1.0000
O36_3 O 0.4856(3) 0.1349(4) 1.0000
O38_3 O 0.8651(4) 0.3507(3) 1.0000
H5_2 H 0.6510 0.4871 0.9531
H9_2 H 0.5129 0.1639 0.9531
H13_2 H 0.8361 0.3490 0.9531
O35_2 O 0.5144(3) 0.8651(4) 0.0000
H8_2 H 0.4871 0.8361 0.0469
O35_3 O 0.5144(3) 0.8651(4) 1.0000
H7_2 H 0.4871 0.8361 0.9531
loop_
_geom_bond_atom_site_label_1
_geom_bond_atom_site_label_2
_geom_bond_site_symmetry_1
_geom_bond_site_symmetry_2
O18 Co5 1_555 1_555
O19 Co5 1_555 1_555
O37 Co5 1_555 1_555
H11 O37 1_555 1_555
H12 O37 1_555 1_555
Dy1 O2 1_555 1_555
Co1 O1 1_555 1_555
O1 C1 1_555 1_555
O2 C1 1_555 1_555
O3 Co1 1_555 1_555
H1 O3 1_555 1_555
N1 Dy1 1_555 1_555
C1 C2 1_555 1_555
C2 N1 1_555 1_555
C3 C2 1_555 1_555
H2 C3 1_555 1_555
C4 C3 1_555 1_555
H3 C4 1_555 1_555
Dy2 O26 1_555 1_555
Dy3 O28 1_555 1_555
Co7 O4 1_555 1_555
Co3 O5 1_555 1_555
Co9_3 O6 1_555 1_555
Co5_2 O7 1_555 1_555
Co6 O8 1_555 1_555
Co7_3 O10 1_555 1_555
Co7_2 O13 1_555 1_555
Co9_4 O17 1_555 1_555
O4 C5 1_555 1_555
O5 C6 1_555 1_555
O6 C7 1_555 1_555
O7 C8 1_555 1_555
O8 C9 1_555 1_555
O9 Co1 1_555 1_555
O10 C11 1_555 1_555
O11 Co1 1_555 1_555
O12 Co1 1_555 1_555
O13 C13 1_555 1_555
O16 Co3 1_555 1_555
O17 C15 1_555 1_555
O20 Co5_2 1_555 1_555
O21 Dy1 1_555 1_555
O22 Dy1 1_555 1_555
O23 Dy1 1_555 1_555
O24 Dy1 1_555 1_555
O25 Dy1 1_555 1_555
O26 C10 1_555 1_555
O27 Dy2 1_555 1_555
O28 C12 1_555 1_555
O29 Dy3 1_555 1_555
O30 Dy3 1_555 1_555
O31 Dy3 1_555 1_555
O32 Dy3 1_555 1_555
O33 Dy3 1_555 1_555
O34 Co1 1_555 1_555
O36 Co3 1_555 1_555
O38 Co5_2 1_555 1_555
H4 O3 1_555 1_555
H5 O34 1_555 1_555
H6 O34 1_555 1_555
H9 O36 1_555 1_555
H10 O36 1_555 1_555
H13 O38 1_555 1_555
H14 O38 1_555 1_555
N2 Dy1 1_555 1_555
N3 Dy1 1_555 1_555
N4 Dy2 1_555 1_555
N5 Dy3 1_555 1_555
N6 Dy3 1_555 1_555
N7 Dy3 1_555 1_555
C5 O21 1_555 1_555
C6 O22 1_555 1_555
C7 O23 1_555 1_555
C8 O24 1_555 1_555
C9 O25 1_555 1_555
C10 O9 1_555 1_555
C11 O27 1_555 1_555
C12 O12 1_555 1_555
C13 O29 1_555 1_555
C14 O16 1_555 1_555
C15 O31 1_555 1_555
C16 N1 1_555 1_555
C17 N2 1_555 1_555
C18 N2 1_555 1_555
C19 N3 1_555 1_555
C20 N3 1_555 1_555
C21 N4 1_555 1_555
C22 N4 1_555 1_555
C23 N5 1_555 1_555
C24 N5 1_555 1_555
C25 N6 1_555 1_555
C26 N6 1_555 1_555
C27 C4 1_555 1_555
C28 C17 1_555 1_555
C29 C18 1_555 1_555
C30 C19 1_555 1_555
C31 C20 1_555 1_555
C32 C21 1_555 1_555
C33 C22 1_555 1_555
C34 C23 1_555 1_555
C35 C24 1_555 1_555
C36 C25 1_555 1_555
C37 C26 1_555 1_555
H15 C27 1_555 1_555
H16 C28 1_555 1_555
H17 C29 1_555 1_555
H18 C30 1_555 1_555
H19 C31 1_555 1_555
H20 C32 1_555 1_555
H21 C33 1_555 1_555
H22 C34 1_555 1_555
H23 C35 1_555 1_555
H24 C36 1_555 1_555
H25 C37 1_555 1_555
C38 C28 1_555 1_555
C39 C30 1_555 1_555
C40 C32 1_555 1_555
C41 C34 1_555 1_555
C42 C36 1_555 1_555
H26 C38 1_555 1_555
H27 C39 1_555 1_555
H28 C40 1_555 1_555
H29 C41 1_555 1_555
H30 C42 1_555 1_555
O30 C14 1_555 1_555
C5 C16 1_555 1_555
C6 C17 1_555 1_555
C7 C18 1_555 1_555
C8 C19 1_555 1_555
C9 C20 1_555 1_555
C10 C21 1_555 1_555
C11 C22 1_555 1_555
C12 C23 1_555 1_555
C13 C24 1_555 1_555
C14 C25 1_555 1_555
C15 C26 1_555 1_555
C16 C27 1_555 1_555
C29 C38 1_555 1_555
C31 C39 1_555 1_555
C33 C40 1_555 1_555
C35 C41 1_555 1_555
C37 C42 1_555 1_555
O14 Co3_2 1_555 1_555
O15 Co3_2 1_555 1_555
O35 Co3_2 1_555 1_555
H7 O35 1_555 1_555
H8 O35 1_555 1_555
Dy2 O26_2 1_555 1_555
Co6 O10_2 1_555 1_555
O10_2 C11_2 1_555 1_555
O26_2 C10_2 1_555 1_555
O27_2 Dy2 1_555 1_555
N4_2 Dy2 1_555 1_555
C10_2 O18 1_555 1_555
C11_2 O27_2 1_555 1_555
C21_2 N4_2 1_555 1_555
C22_2 N4_2 1_555 1_555
C32_2 C21_2 1_555 1_555
C33_2 C22_2 1_555 1_555
H20_2 C32_2 1_555 1_555
H21_2 C33_2 1_555 1_555
C40_2 C32_2 1_555 1_555
H28_2 C40_2 1_555 1_555
C10_2 C21_2 1_555 1_555
C11_2 C22_2 1_555 1_555
C33_2 C40_2 1_555 1_555
Co6_2 O13_2 1_555 1_555
O13_2 C13_2 1_555 1_555
O32 C12_2 1_555 1_555
C12_2 O20 1_555 1_555
C13_2 O33 1_555 1_555
C23_2 N7 1_555 1_555
C24_2 N7 1_555 1_555
C34_2 C23_2 1_555 1_555
C35_2 C24_2 1_555 1_555
H22_2 C34_2 1_555 1_555
H23_2 C35_2 1_555 1_555
C41_2 C34_2 1_555 1_555
H29_2 C41_2 1_555 1_555
C12_2 C23_2 1_555 1_555
C13_2 C24_2 1_555 1_555
C35_2 C41_2 1_555 1_555
Dy2 O26_3 1_555 1_555
Co9 O10_3 1_555 1_555
O10_3 C11_3 1_555 1_555
O26_3 C10_3 1_555 1_555
O27_3 Dy2 1_555 1_555
N4_3 Dy2 1_555 1_555
C10_3 O14 1_555 1_555
C11_3 O27_3 1_555 1_555
C21_3 N4_3 1_555 1_555
C22_3 N4_3 1_555 1_555
C32_3 C21_3 1_555 1_555
C33_3 C22_3 1_555 1_555
H20_3 C32_3 1_555 1_555
H21_3 C33_3 1_555 1_555
C40_3 C32_3 1_555 1_555
H28_3 C40_3 1_555 1_555
C10_3 C21_3 1_555 1_555
C11_3 C22_3 1_555 1_555
C33_3 C40_3 1_555 1_555
Dy3_2 O28_2 1_555 1_555
Co7_4 O13_3 1_555 1_555
Co9_2 O17_2 1_555 1_555
O13_3 C13_3 1_555 1_555
O17_2 C15_2 1_555 1_555
O28_2 C12_3 1_555 1_555
O29_2 Dy3_2 1_555 1_555
O30_2 Dy3_2 1_555 1_555
O31_2 Dy3_2 1_555 1_555
O32_2 Dy3_2 1_555 1_555
O33_2 Dy3_2 1_555 1_555
N5_2 Dy3_2 1_555 1_555
N6_2 Dy3_2 1_555 1_555
N7_2 Dy3_2 1_555 1_555
C12_3 O11 1_555 1_555
C13_3 O29_2 1_555 1_555
C14_2 O15 1_555 1_555
C15_2 O31_2 1_555 1_555
C23_3 N5_2 1_555 1_555
C24_3 N5_2 1_555 1_555
C25_2 N6_2 1_555 1_555
C26_2 N6_2 1_555 1_555
C34_3 C23_3 1_555 1_555
C35_3 C24_3 1_555 1_555
C36_2 C25_2 1_555 1_555
C37_2 C26_2 1_555 1_555
H22_3 C34_3 1_555 1_555
H23_3 C35_3 1_555 1_555
H24_2 C36_2 1_555 1_555
H25_2 C37_2 1_555 1_555
C41_3 C34_3 1_555 1_555
C42_2 C36_2 1_555 1_555
H29_3 C41_3 1_555 1_555
H30_2 C42_2 1_555 1_555
O30_2 C14_2 1_555 1_555
C12_3 C23_3 1_555 1_555
C13_3 C24_3 1_555 1_555
C14_2 C25_2 1_555 1_555
C15_2 C26_2 1_555 1_555
C35_3 C41_3 1_555 1_555
C37_2 C42_2 1_555 1_555
Co6_2 O13_4 1_555 1_555
O13_4 C13_4 1_555 1_555
O32_2 C12_4 1_555 1_555
C12_4 O19 1_555 1_555
C13_4 O33_2 1_555 1_555
C23_4 N7_2 1_555 1_555
C24_4 N7_2 1_555 1_555
C34_4 C23_4 1_555 1_555
C35_4 C24_4 1_555 1_555
H22_4 C34_4 1_555 1_555
H23_4 C35_4 1_555 1_555
C41_4 C34_4 1_555 1_555
H29_4 C41_4 1_555 1_555
C12_4 C23_4 1_555 1_555
C13_4 C24_4 1_555 1_555
C35_4 C41_4 1_555 1_555
O37_2 Co7 1_555 1_555
H12_2 O37_2 1_555 1_555
O37_3 Co7_2 1_555 1_555
H11_2 O37_3 1_555 1_555
O3_2 Co6 1_555 1_555
O34_2 Co6 1_555 1_555
O36_2 Co9 1_555 1_555
O38_2 Co7_3 1_555 1_555
H4_2 O3_2 1_555 1_555
H6_2 O34_2 1_555 1_555
H10_2 O36_2 1_555 1_555
H14_2 O38_2 1_555 1_555
O3_3 Co6_2 1_555 1_555
H1_2 O3_3 1_555 1_555
O34_3 Co6_2 1_555 1_555
O36_3 Co9_2 1_555 1_555
O38_3 Co7_4 1_555 1_555
H5_2 O34_3 1_555 1_555
H9_2 O36_3 1_555 1_555
H13_2 O38_3 1_555 1_555
O35_2 Co9_3 1_555 1_555
H8_2 O35_2 1_555 1_555
O35_3 Co9_4 1_555 1_555
H7_2 O35_3 1_555 1_555

#END
