
###############################################################################
#
# This file contains modified crystal structure data generated from the
# MOF subset of the Cambridge Structural Database (CSD) v543 
# hosted by the Cambridge Crystallographic Data Centre (CCDC).
#
# This work is licensed under the Creative Commons
# Attribution-NonCommercial-ShareAlike 4.0 International License.
# To view a copy of this license, visit
# http://creativecommons.org/licenses/by-nc-sa/4.0/
# or send a letter to
# Creative Commons, PO Box 1866, Mountain View, CA 94042, USA.
#
# CIF created using the CSD Python API on 29 September 2022
# The structure has been converted into the P1 space group
# The structure has a 3D framework
# The original CSD entry ILUFIF is in the hexagonal crystal system
# The framework has been calculated to contain at least 10.0% void space
# The void calculation uses a probe of radius 1.32A, grid spacing 0.4
#
###############################################################################

data_ILUFIF
_chemical_formula_moiety         '(C84 H60 Co15 Eu3 N12 O66)n'
_symmetry_cell_setting           triclinic
_symmetry_space_group_name_H-M   'P 1'
_symmetry_Int_Tables_number      1
_space_group_name_Hall           'P 1'
loop_
_symmetry_equiv_pos_site_id
_symmetry_equiv_pos_as_xyz
1 x,y,z
_cell_length_a                   15.2806(10)
_cell_length_b                   15.2806(10)
_cell_length_c                   15.393(2)
_cell_angle_alpha                90
_cell_angle_beta                 90
_cell_angle_gamma                120
_cell_volume                     3112.68
loop_
_atom_site_label
_atom_site_type_symbol
_atom_site_fract_x
_atom_site_fract_y
_atom_site_fract_z
Co1 Co 0.5000 -0.0000 0.0000
Co6 Co 0.5000 -0.0000 0.5000
O28 O 0.6133(3) 0.0600(2) 0.0928(2)
O36 O 0.4865(3) 0.1338(3) 0.0000
H10 H 0.5204 0.1690 0.0430
Co1_2 Co 0.5000 -0.0000 1.0000
O31 O 0.6133(3) 0.0600(2) 0.9072(2)
O36_2 O 0.4865(3) 0.1338(3) 1.0000
H9 H 0.5204 0.1690 0.9570
Eu1 Eu 0.3333 0.6667 0.2500
Co1_3 Co 0.5000 1.0000 0.0000
O1 O 0.3882(2) 0.8024(2) 0.14265(18)
O2 O 0.3867(3) 0.9400(2) 0.0928(2)
O3 O 0.5135(3) 0.8662(3) 0.0000
N1 N 0.23832(16) 0.76168(16) 0.2500
C1 C 0.3539(3) 0.8635(3) 0.1385(3)
C2 C 0.2649(3) 0.8396(3) 0.1960(3)
C3 C 0.2147(4) 0.8929(4) 0.1934(3)
H2 H 0.2338 0.9461 0.1546
C4 C 0.1348(2) 0.8652(2) 0.2500
H3 H 0.0996 0.9004 0.2500
Co2 Co 0.0000 0.5000 0.0000
Co3 Co 0.5000 0.5000 0.0000
Co4 Co 0.0000 0.5000 0.5000
Co6_2 Co 0.5000 1.0000 0.5000
Co9 Co 0.5000 0.5000 0.5000
O4 O 0.1976(2) 0.6118(2) 0.35735(18)
O5 O 0.1976(2) 0.5858(3) 0.14265(18)
O6 O 0.3882(2) 0.5858(3) 0.35735(18)
O7 O 0.4142(3) 0.6118(2) 0.14265(18)
O8 O 0.4142(3) 0.8024(2) 0.35735(18)
O17 O 0.0600(2) 0.6133(3) 0.4072(2)
O18 O 0.0600(2) 0.4467(4) 0.0928(2)
O19 O 0.3867(3) 0.4467(4) 0.4072(2)
O20 O 0.5533(4) 0.6133(3) 0.0928(2)
O21 O 0.5533(4) 0.9400(2) 0.4072(2)
O29 O 0.4467(4) 0.3867(3) 0.0928(2)
O34 O 0.1338(3) 0.6473(4) 0.0000
O35 O 0.3527(4) 0.4865(3) 0.0000
O38 O 0.6473(4) 0.5135(3) 0.0000
H4 H 0.4796 0.8310 0.0430
H6 H 0.1690 0.6486 0.0430
H8 H 0.3514 0.5204 0.0430
H14 H 0.6486 0.4796 0.0430
N2 N 0.23832(16) 0.47664(23) 0.2500
N3 N 0.52336(23) 0.76168(16) 0.2500
C5 C 0.1365(3) 0.6461(3) 0.3615(3)
C6 C 0.1365(3) 0.4904(4) 0.1385(3)
C7 C 0.3539(3) 0.4904(4) 0.3615(3)
C8 C 0.5096(4) 0.6461(3) 0.1385(3)
C9 C 0.5096(4) 0.8635(3) 0.3615(3)
C16 C 0.1604(3) 0.7351(3) 0.3040(3)
C17 C 0.1604(3) 0.4253(4) 0.1960(3)
C18 C 0.2649(3) 0.4253(4) 0.3040(3)
C19 C 0.5747(4) 0.7351(3) 0.1960(3)
C20 C 0.5747(4) 0.8396(3) 0.3040(3)
C27 C 0.1071(4) 0.7853(4) 0.3066(3)
C28 C 0.1071(4) 0.3218(6) 0.1934(3)
C29 C 0.2147(4) 0.3218(6) 0.3066(3)
C30 C 0.6782(6) 0.7853(4) 0.1934(3)
C31 C 0.6782(6) 0.8929(4) 0.3066(3)
H15 H 0.0539 0.7662 0.3454
H16 H 0.0539 0.2877 0.1546
H17 H 0.2338 0.2877 0.3454
H18 H 0.7123 0.7662 0.1546
H19 H 0.7123 0.9461 0.3454
C38 C 0.1348(2) 0.2696(3) 0.2500
C39 C 0.7304(3) 0.8652(2) 0.2500
H26 H 0.0996 0.1992 0.2500
H27 H 0.8008 0.9004 0.2500
Co1_4 Co 0.5000 1.0000 1.0000
O3_2 O 0.5135(3) 0.8662(3) 1.0000
H1 H 0.4796 0.8310 0.9570
Eu2 Eu 0.3333 0.6667 0.7500
Co2_2 Co 0.0000 0.5000 1.0000
Co3_2 Co 0.5000 0.5000 1.0000
O11 O 0.1976(2) 0.5858(3) 0.85735(18)
O12 O 0.3882(2) 0.5858(3) 0.64265(18)
O13 O 0.4142(3) 0.6118(2) 0.85735(18)
O14 O 0.4142(3) 0.8024(2) 0.64265(18)
O15 O 0.1976(2) 0.6118(2) 0.64265(18)
O16 O 0.3882(2) 0.8024(2) 0.85735(18)
O24 O 0.0600(2) 0.4467(4) 0.9072(2)
O25 O 0.3867(3) 0.4467(4) 0.5928(2)
O26 O 0.5533(4) 0.6133(3) 0.9072(2)
O27 O 0.5533(4) 0.9400(2) 0.5928(2)
O30 O 0.3867(3) 0.9400(2) 0.9072(2)
O32 O 0.4467(4) 0.3867(3) 0.9072(2)
O34_2 O 0.1338(3) 0.6473(4) 1.0000
O35_2 O 0.3527(4) 0.4865(3) 1.0000
O38_2 O 0.6473(4) 0.5135(3) 1.0000
H5 H 0.1690 0.6486 0.9570
H7 H 0.3514 0.5204 0.9570
H13 H 0.6486 0.4796 0.9570
N5 N 0.23832(16) 0.47664(23) 0.7500
N6 N 0.52336(23) 0.76168(16) 0.7500
N7 N 0.23832(16) 0.76168(16) 0.7500
C12 C 0.1365(3) 0.4904(4) 0.8615(3)
C13 C 0.3539(3) 0.4904(4) 0.6385(3)
C14 C 0.5096(4) 0.6461(3) 0.8615(3)
C15 C 0.5096(4) 0.8635(3) 0.6385(3)
C23 C 0.1604(3) 0.4253(4) 0.8040(3)
C24 C 0.2649(3) 0.4253(4) 0.6960(3)
C25 C 0.5747(4) 0.7351(3) 0.8040(3)
C26 C 0.5747(4) 0.8396(3) 0.6960(3)
C34 C 0.1071(4) 0.3218(6) 0.8066(3)
C35 C 0.2147(4) 0.3218(6) 0.6934(3)
C36 C 0.6782(6) 0.7853(4) 0.8066(3)
C37 C 0.6782(6) 0.8929(4) 0.6934(3)
H22 H 0.0539 0.2877 0.8454
H23 H 0.2338 0.2877 0.6546
H24 H 0.7123 0.7662 0.8454
H25 H 0.7123 0.9461 0.6546
C41 C 0.1348(2) 0.2696(3) 0.7500
C42 C 0.7304(3) 0.8652(2) 0.7500
H29 H 0.0996 0.1992 0.7500
H30 H 0.8008 0.9004 0.7500
Eu3 Eu 0.6667 0.3333 0.2500
Co2_3 Co 1.0000 0.5000 0.0000
Co4_2 Co 1.0000 0.5000 0.5000
O9 O 0.8024(2) 0.4142(3) 0.14265(18)
O10 O 0.6118(2) 0.4142(3) 0.35735(18)
O22 O 0.9400(2) 0.5533(4) 0.0928(2)
O23 O 0.6133(3) 0.5533(4) 0.4072(2)
O37 O 0.8662(3) 0.3527(4) 0.0000
H12 H 0.8310 0.3514 0.0430
N4 N 0.76168(16) 0.52336(23) 0.2500
C10 C 0.8635(3) 0.5096(4) 0.1385(3)
C11 C 0.6461(3) 0.5096(4) 0.3615(3)
C21 C 0.8396(3) 0.5747(4) 0.1960(3)
C22 C 0.7351(3) 0.5747(4) 0.3040(3)
C32 C 0.8929(4) 0.6782(6) 0.1934(3)
C33 C 0.7853(4) 0.6782(6) 0.3066(3)
H20 H 0.9461 0.7123 0.1546
H21 H 0.7662 0.7123 0.3454
C40 C 0.8652(2) 0.7304(3) 0.2500
H28 H 0.9004 0.8008 0.2500
Co2_4 Co 1.0000 0.5000 1.0000
O33 O 0.9400(2) 0.5533(4) 0.9072(2)
O37_2 O 0.8662(3) 0.3527(4) 1.0000
H11 H 0.8310 0.3514 0.9570
O9_2 O 0.5858(3) 0.3882(4) 0.14265(18)
O10_2 O 0.5858(3) 0.1976(4) 0.35735(18)
O23_2 O 0.4467(4) 0.0600(5) 0.4072(2)
N4_2 N 0.47664(23) 0.23832(28) 0.2500
C10_2 C 0.4904(4) 0.3539(5) 0.1385(3)
C11_2 C 0.4904(4) 0.1365(5) 0.3615(3)
C21_2 C 0.4253(4) 0.2649(5) 0.1960(3)
C22_2 C 0.4253(4) 0.1604(5) 0.3040(3)
C32_2 C 0.3218(6) 0.2147(7) 0.1934(3)
C33_2 C 0.3218(6) 0.1071(7) 0.3066(3)
H20_2 H 0.2877 0.2338 0.1546
H21_2 H 0.2877 0.0539 0.3454
C40_2 C 0.2696(3) 0.1348(4) 0.2500
H28_2 H 0.1992 0.0996 0.2500
O27_2 O 0.0600(2) 0.6133(4) 0.5928(2)
C14_2 C 0.3539(3) 0.8635(5) 0.8615(3)
C15_2 C 0.1365(3) 0.6461(5) 0.6385(3)
C25_2 C 0.2649(3) 0.8396(5) 0.8040(3)
C26_2 C 0.1604(3) 0.7351(5) 0.6960(3)
C36_2 C 0.2147(4) 0.8929(7) 0.8066(3)
C37_2 C 0.1071(4) 0.7853(7) 0.6934(3)
H24_2 H 0.2338 0.9461 0.8454
H25_2 H 0.0539 0.7662 0.6546
C42_2 C 0.1348(2) 0.8652(4) 0.7500
H30_2 H 0.0996 0.9004 0.7500
O9_3 O 0.6118(4) 0.1976(2) 0.14265(18)
O10_3 O 0.8024(4) 0.3882(2) 0.35735(18)
O23_3 O 0.9400(5) 0.3867(3) 0.4072(2)
N4_3 N 0.76168(28) 0.23832(16) 0.2500
C10_3 C 0.6461(5) 0.1365(3) 0.1385(3)
C11_3 C 0.8635(5) 0.3539(3) 0.3615(3)
C21_3 C 0.7351(5) 0.1604(3) 0.1960(3)
C22_3 C 0.8396(5) 0.2649(3) 0.3040(3)
C32_3 C 0.7853(7) 0.1071(4) 0.1934(3)
C33_3 C 0.8929(7) 0.2147(4) 0.3066(3)
H20_3 H 0.7662 0.0539 0.1546
H21_3 H 0.9461 0.2338 0.3454
C40_3 C 0.8652(4) 0.1348(2) 0.2500
H28_3 H 0.9004 0.0996 0.2500
Eu2_2 Eu 0.6667 0.3333 0.7500
O11_2 O 0.8024(2) 0.4142(3) 0.85735(18)
O12_2 O 0.6118(2) 0.4142(3) 0.64265(18)
O13_2 O 0.5858(3) 0.3882(2) 0.85735(18)
O14_2 O 0.5858(3) 0.1976(2) 0.64265(18)
O15_2 O 0.8024(2) 0.3882(2) 0.64265(18)
O16_2 O 0.6118(2) 0.1976(2) 0.85735(18)
O25_2 O 0.6133(3) 0.5533(4) 0.5928(2)
O27_3 O 0.4467(4) 0.0600(2) 0.5928(2)
N5_2 N 0.76168(16) 0.52336(23) 0.7500
N6_2 N 0.47664(23) 0.23832(16) 0.7500
N7_2 N 0.76168(16) 0.23832(16) 0.7500
C12_2 C 0.8635(3) 0.5096(4) 0.8615(3)
C13_2 C 0.6461(3) 0.5096(4) 0.6385(3)
C14_3 C 0.4904(4) 0.3539(3) 0.8615(3)
C15_3 C 0.4904(4) 0.1365(3) 0.6385(3)
C23_2 C 0.8396(3) 0.5747(4) 0.8040(3)
C24_2 C 0.7351(3) 0.5747(4) 0.6960(3)
C25_3 C 0.4253(4) 0.2649(3) 0.8040(3)
C26_3 C 0.4253(4) 0.1604(3) 0.6960(3)
C34_2 C 0.8929(4) 0.6782(6) 0.8066(3)
C35_2 C 0.7853(4) 0.6782(6) 0.6934(3)
C36_3 C 0.3218(6) 0.2147(4) 0.8066(3)
C37_3 C 0.3218(6) 0.1071(4) 0.6934(3)
H22_2 H 0.9461 0.7123 0.8454
H23_2 H 0.7662 0.7123 0.6546
H24_3 H 0.2877 0.2338 0.8454
H25_3 H 0.2877 0.0539 0.6546
C41_2 C 0.8652(2) 0.7304(3) 0.7500
C42_3 C 0.2696(3) 0.1348(2) 0.7500
H29_2 H 0.9004 0.8008 0.7500
H30_3 H 0.1992 0.0996 0.7500
O27_4 O 0.9400(2) 0.3867(4) 0.5928(2)
C14_4 C 0.6461(3) 0.1365(5) 0.8615(3)
C15_4 C 0.8635(3) 0.3539(5) 0.6385(3)
C25_4 C 0.7351(3) 0.1604(5) 0.8040(3)
C26_4 C 0.8396(3) 0.2649(5) 0.6960(3)
C36_4 C 0.7853(4) 0.1071(7) 0.8066(3)
C37_4 C 0.8929(4) 0.2147(7) 0.6934(3)
H24_4 H 0.7662 0.0539 0.8454
H25_4 H 0.9461 0.2338 0.6546
C42_4 C 0.8652(2) 0.1348(4) 0.7500
H30_4 H 0.9004 0.0996 0.7500
O36_3 O 0.1338(3) 0.4865(3) 0.5000
H9_2 H 0.1690 0.5204 0.5430
H10_2 H 0.1690 0.5204 0.4570
O3_3 O 0.8662(3) 0.5135(3) 0.5000
H1_2 H 0.8310 0.4796 0.5430
O34_3 O 0.6473(4) 0.1338(3) 0.5000
O35_3 O 0.4865(3) 0.3527(4) 0.5000
O38_3 O 0.5135(3) 0.6473(4) 0.5000
H4_2 H 0.8310 0.4796 0.4570
H5_2 H 0.6486 0.1690 0.5430
H6_2 H 0.6486 0.1690 0.4570
H7_2 H 0.5204 0.3514 0.5430
H8_2 H 0.5204 0.3514 0.4570
H13_2 H 0.4796 0.6486 0.5430
H14_2 H 0.4796 0.6486 0.4570
O37_3 O 0.3527(4) 0.8662(3) 0.5000
H11_2 H 0.3514 0.8310 0.5430
H12_2 H 0.3514 0.8310 0.4570
loop_
_geom_bond_atom_site_label_1
_geom_bond_atom_site_label_2
_geom_bond_site_symmetry_1
_geom_bond_site_symmetry_2
O28 Co1 1_555 1_555
O36 Co1 1_555 1_555
H10 O36 1_555 1_555
O31 Co1_2 1_555 1_555
O36_2 Co1_2 1_555 1_555
H9 O36_2 1_555 1_555
Eu1 O1 1_555 1_555
Co1_3 O2 1_555 1_555
O1 C1 1_555 1_555
O2 C1 1_555 1_555
O3 Co1_3 1_555 1_555
N1 Eu1 1_555 1_555
C1 C2 1_555 1_555
C2 N1 1_555 1_555
C3 C2 1_555 1_555
H2 C3 1_555 1_555
C4 C3 1_555 1_555
H3 C4 1_555 1_555
Co2 O18 1_555 1_555
Co3 O20 1_555 1_555
Co4 O17 1_555 1_555
Co6_2 O21 1_555 1_555
Co9 O19 1_555 1_555
O4 Eu1 1_555 1_555
O5 Eu1 1_555 1_555
O6 Eu1 1_555 1_555
O7 Eu1 1_555 1_555
O8 Eu1 1_555 1_555
O17 C5 1_555 1_555
O18 C6 1_555 1_555
O19 C7 1_555 1_555
O20 C8 1_555 1_555
O21 C9 1_555 1_555
O29 Co3 1_555 1_555
O34 Co2 1_555 1_555
O35 Co3 1_555 1_555
O38 Co3 1_555 1_555
H4 O3 1_555 1_555
H6 O34 1_555 1_555
H8 O35 1_555 1_555
H14 O38 1_555 1_555
N2 Eu1 1_555 1_555
N3 Eu1 1_555 1_555
C5 O4 1_555 1_555
C6 O5 1_555 1_555
C7 O6 1_555 1_555
C8 O7 1_555 1_555
C9 O8 1_555 1_555
C16 N1 1_555 1_555
C17 N2 1_555 1_555
C18 N2 1_555 1_555
C19 N3 1_555 1_555
C20 N3 1_555 1_555
C27 C4 1_555 1_555
C28 C17 1_555 1_555
C29 C18 1_555 1_555
C30 C19 1_555 1_555
C31 C20 1_555 1_555
H15 C27 1_555 1_555
H16 C28 1_555 1_555
H17 C29 1_555 1_555
H18 C30 1_555 1_555
H19 C31 1_555 1_555
C38 C28 1_555 1_555
C39 C30 1_555 1_555
H26 C38 1_555 1_555
H27 C39 1_555 1_555
C5 C16 1_555 1_555
C6 C17 1_555 1_555
C7 C18 1_555 1_555
C8 C19 1_555 1_555
C9 C20 1_555 1_555
C16 C27 1_555 1_555
C29 C38 1_555 1_555
C31 C39 1_555 1_555
O3_2 Co1_4 1_555 1_555
H1 O3_2 1_555 1_555
Eu2 O11 1_555 1_555
Co6_2 O27 1_555 1_555
Co9 O25 1_555 1_555
O11 C12 1_555 1_555
O12 Eu2 1_555 1_555
O13 Eu2 1_555 1_555
O14 Eu2 1_555 1_555
O15 Eu2 1_555 1_555
O16 Eu2 1_555 1_555
O24 Co2_2 1_555 1_555
O25 C13 1_555 1_555
O26 Co3_2 1_555 1_555
O27 C15 1_555 1_555
O30 Co1_4 1_555 1_555
O32 Co3_2 1_555 1_555
O34_2 Co2_2 1_555 1_555
O35_2 Co3_2 1_555 1_555
O38_2 Co3_2 1_555 1_555
H5 O34_2 1_555 1_555
H7 O35_2 1_555 1_555
H13 O38_2 1_555 1_555
N5 Eu2 1_555 1_555
N6 Eu2 1_555 1_555
N7 Eu2 1_555 1_555
C12 O24 1_555 1_555
C13 O12 1_555 1_555
C14 O13 1_555 1_555
C15 O14 1_555 1_555
C23 N5 1_555 1_555
C24 N5 1_555 1_555
C25 N6 1_555 1_555
C26 N6 1_555 1_555
C34 C23 1_555 1_555
C35 C24 1_555 1_555
C36 C25 1_555 1_555
C37 C26 1_555 1_555
H22 C34 1_555 1_555
H23 C35 1_555 1_555
H24 C36 1_555 1_555
H25 C37 1_555 1_555
C41 C34 1_555 1_555
C42 C36 1_555 1_555
H29 C41 1_555 1_555
H30 C42 1_555 1_555
O26 C14 1_555 1_555
C12 C23 1_555 1_555
C13 C24 1_555 1_555
C14 C25 1_555 1_555
C15 C26 1_555 1_555
C35 C41 1_555 1_555
C37 C42 1_555 1_555
Eu3 O9 1_555 1_555
Co9 O23 1_555 1_555
O9 C10 1_555 1_555
O10 Eu3 1_555 1_555
O22 Co2_3 1_555 1_555
O23 C11 1_555 1_555
O37 Co2_3 1_555 1_555
H12 O37 1_555 1_555
N4 Eu3 1_555 1_555
C10 O22 1_555 1_555
C11 O10 1_555 1_555
C21 N4 1_555 1_555
C22 N4 1_555 1_555
C32 C21 1_555 1_555
C33 C22 1_555 1_555
H20 C32 1_555 1_555
H21 C33 1_555 1_555
C40 C32 1_555 1_555
H28 C40 1_555 1_555
C10 C21 1_555 1_555
C11 C22 1_555 1_555
C33 C40 1_555 1_555
O33 Co2_4 1_555 1_555
O37_2 Co2_4 1_555 1_555
H11 O37_2 1_555 1_555
Eu3 O9_2 1_555 1_555
Co6 O23_2 1_555 1_555
O9_2 C10_2 1_555 1_555
O10_2 Eu3 1_555 1_555
O23_2 C11_2 1_555 1_555
N4_2 Eu3 1_555 1_555
C10_2 O29 1_555 1_555
C11_2 O10_2 1_555 1_555
C21_2 N4_2 1_555 1_555
C22_2 N4_2 1_555 1_555
C32_2 C21_2 1_555 1_555
C33_2 C22_2 1_555 1_555
H20_2 C32_2 1_555 1_555
H21_2 C33_2 1_555 1_555
C40_2 C32_2 1_555 1_555
H28_2 C40_2 1_555 1_555
C10_2 C21_2 1_555 1_555
C11_2 C22_2 1_555 1_555
C33_2 C40_2 1_555 1_555
Co4 O27_2 1_555 1_555
O27_2 C15_2 1_555 1_555
C14_2 O16 1_555 1_555
C15_2 O15 1_555 1_555
C25_2 N7 1_555 1_555
C26_2 N7 1_555 1_555
C36_2 C25_2 1_555 1_555
C37_2 C26_2 1_555 1_555
H24_2 C36_2 1_555 1_555
H25_2 C37_2 1_555 1_555
C42_2 C36_2 1_555 1_555
H30_2 C42_2 1_555 1_555
O30 C14_2 1_555 1_555
C14_2 C25_2 1_555 1_555
C15_2 C26_2 1_555 1_555
C37_2 C42_2 1_555 1_555
Eu3 O9_3 1_555 1_555
Co4_2 O23_3 1_555 1_555
O9_3 C10_3 1_555 1_555
O10_3 Eu3 1_555 1_555
O23_3 C11_3 1_555 1_555
N4_3 Eu3 1_555 1_555
C10_3 O28 1_555 1_555
C11_3 O10_3 1_555 1_555
C21_3 N4_3 1_555 1_555
C22_3 N4_3 1_555 1_555
C32_3 C21_3 1_555 1_555
C33_3 C22_3 1_555 1_555
H20_3 C32_3 1_555 1_555
H21_3 C33_3 1_555 1_555
C40_3 C32_3 1_555 1_555
H28_3 C40_3 1_555 1_555
C10_3 C21_3 1_555 1_555
C11_3 C22_3 1_555 1_555
C33_3 C40_3 1_555 1_555
Eu2_2 O11_2 1_555 1_555
Co6 O27_3 1_555 1_555
Co9 O25_2 1_555 1_555
O11_2 C12_2 1_555 1_555
O12_2 Eu2_2 1_555 1_555
O13_2 Eu2_2 1_555 1_555
O14_2 Eu2_2 1_555 1_555
O15_2 Eu2_2 1_555 1_555
O16_2 Eu2_2 1_555 1_555
O25_2 C13_2 1_555 1_555
O27_3 C15_3 1_555 1_555
N5_2 Eu2_2 1_555 1_555
N6_2 Eu2_2 1_555 1_555
N7_2 Eu2_2 1_555 1_555
C12_2 O33 1_555 1_555
C13_2 O12_2 1_555 1_555
C14_3 O13_2 1_555 1_555
C15_3 O14_2 1_555 1_555
C23_2 N5_2 1_555 1_555
C24_2 N5_2 1_555 1_555
C25_3 N6_2 1_555 1_555
C26_3 N6_2 1_555 1_555
C34_2 C23_2 1_555 1_555
C35_2 C24_2 1_555 1_555
C36_3 C25_3 1_555 1_555
C37_3 C26_3 1_555 1_555
H22_2 C34_2 1_555 1_555
H23_2 C35_2 1_555 1_555
H24_3 C36_3 1_555 1_555
H25_3 C37_3 1_555 1_555
C41_2 C34_2 1_555 1_555
C42_3 C36_3 1_555 1_555
H29_2 C41_2 1_555 1_555
H30_3 C42_3 1_555 1_555
O32 C14_3 1_555 1_555
C12_2 C23_2 1_555 1_555
C13_2 C24_2 1_555 1_555
C14_3 C25_3 1_555 1_555
C15_3 C26_3 1_555 1_555
C35_2 C41_2 1_555 1_555
C37_3 C42_3 1_555 1_555
Co4_2 O27_4 1_555 1_555
O27_4 C15_4 1_555 1_555
C14_4 O16_2 1_555 1_555
C15_4 O15_2 1_555 1_555
C25_4 N7_2 1_555 1_555
C26_4 N7_2 1_555 1_555
C36_4 C25_4 1_555 1_555
C37_4 C26_4 1_555 1_555
H24_4 C36_4 1_555 1_555
H25_4 C37_4 1_555 1_555
C42_4 C36_4 1_555 1_555
H30_4 C42_4 1_555 1_555
O31 C14_4 1_555 1_555
C14_4 C25_4 1_555 1_555
C15_4 C26_4 1_555 1_555
C37_4 C42_4 1_555 1_555
O36_3 Co4 1_555 1_555
H9_2 O36_3 1_555 1_555
H10_2 O36_3 1_555 1_555
O3_3 Co4_2 1_555 1_555
H1_2 O3_3 1_555 1_555
O34_3 Co6 1_555 1_555
O35_3 Co9 1_555 1_555
O38_3 Co9 1_555 1_555
H4_2 O3_3 1_555 1_555
H5_2 O34_3 1_555 1_555
H6_2 O34_3 1_555 1_555
H7_2 O35_3 1_555 1_555
H8_2 O35_3 1_555 1_555
H13_2 O38_3 1_555 1_555
H14_2 O38_3 1_555 1_555
O37_3 Co6_2 1_555 1_555
H11_2 O37_3 1_555 1_555
H12_2 O37_3 1_555 1_555

#END
