
###############################################################################
#
# This file contains modified crystal structure data generated from the
# MOF subset of the Cambridge Structural Database (CSD) v543 
# hosted by the Cambridge Crystallographic Data Centre (CCDC).
#
# This work is licensed under the Creative Commons
# Attribution-NonCommercial-ShareAlike 4.0 International License.
# To view a copy of this license, visit
# http://creativecommons.org/licenses/by-nc-sa/4.0/
# or send a letter to
# Creative Commons, PO Box 1866, Mountain View, CA 94042, USA.
#
# CIF created using the CSD Python API on 29 September 2022
# The structure has been converted into the P1 space group
# The structure has a 3D framework
# The original CSD entry ILUHIH is in the hexagonal crystal system
# The framework has been calculated to contain at least 10.0% void space
# The void calculation uses a probe of radius 1.32A, grid spacing 0.4
#
###############################################################################

data_ILUHIH
_chemical_formula_moiety         '(C84 H60 Fe15 Ho3 N12 O66)n'
_symmetry_cell_setting           triclinic
_symmetry_space_group_name_H-M   'P 1'
_symmetry_Int_Tables_number      1
_space_group_name_Hall           'P 1'
loop_
_symmetry_equiv_pos_site_id
_symmetry_equiv_pos_as_xyz
1 x,y,z
_cell_length_a                   15.187(2)
_cell_length_b                   15.187(2)
_cell_length_c                   15.616(4)
_cell_angle_alpha                90
_cell_angle_beta                 90
_cell_angle_gamma                120
_cell_volume                     3119.21
loop_
_atom_site_label
_atom_site_type_symbol
_atom_site_fract_x
_atom_site_fract_y
_atom_site_fract_z
Fe6 Fe 0.0000 0.5000 0.0000
Fe6_2 Fe -0.0000 0.5000 1.0000
Fe7 Fe 0.5000 0.0000 0.0000
Fe1 Fe 0.5000 0.0000 0.5000
Fe7_2 Fe 0.5000 0.0000 1.0000
O26 O 0.4495(2) 0.0644(3) 0.5916(2)
O29 O 0.4495(2) 0.0644(3) 0.4084(2)
O35 O 0.6513(4) 0.1381(3) 0.5000
H7 H 0.6563 0.1735 0.5415
H8 H 0.6563 0.1735 0.4585
Fe6_3 Fe 1.0000 0.5000 0.0000
Fe7_3 Fe 0.5000 1.0000 0.0000
Fe8 Fe 0.5000 0.5000 0.0000
Ho1 Ho 0.3333 0.6667 0.7500
Fe1_2 Fe 0.5000 1.0000 0.5000
O1 O 0.4119(2) 0.8002(2) 0.64427(17)
O2 O 0.5505(2) 0.9356(3) 0.5916(2)
O3 O 0.3487(4) 0.8619(3) 0.5000
H1 H 0.3437 0.8265 0.5415
N1 N 0.52062(16) 0.76031(16) 0.7500
C1 C 0.5063(4) 0.8604(3) 0.6390(3)
C2 C 0.5723(4) 0.8385(3) 0.6961(3)
C3 C 0.6764(5) 0.8914(3) 0.6939(3)
H2 H 0.7107 0.9444 0.6553
C4 C 0.7302(3) 0.8651(2) 0.7500
H3 H 0.8008 0.9004 0.7500
Ho2 Ho 0.3333 0.6667 0.2500
Ho3 Ho 0.6667 0.3333 0.7500
Fe2 Fe 0.5000 0.5000 0.5000
Fe3 Fe -0.0000 0.5000 0.5000
Fe6_4 Fe 1.0000 0.5000 1.0000
Fe7_4 Fe 0.5000 1.0000 1.0000
Fe8_2 Fe 0.5000 0.5000 1.0000
O4 O 0.4119(2) 0.6117(3) 0.85573(17)
O5 O 0.1998(2) 0.6117(3) 0.64427(17)
O6 O 0.3883(3) 0.8002(2) 0.85573(17)
O7 O 0.3883(3) 0.5881(2) 0.64427(17)
O8 O 0.1998(2) 0.5881(2) 0.85573(17)
O9 O 0.6117(3) 0.4119(2) 0.64427(17)
O10 O 0.8002(2) 0.4119(2) 0.85573(17)
O11 O 0.3883(3) 0.5881(2) 0.35573(17)
O12 O 0.1998(2) 0.5881(2) 0.14427(17)
O13 O 0.3883(3) 0.8002(2) 0.14427(17)
O14 O 0.4119(2) 0.6117(3) 0.14427(17)
O15 O 0.1998(2) 0.6117(3) 0.35573(17)
O16 O 0.4119(2) 0.8002(2) 0.35573(17)
O17 O 0.5505(2) 0.6149(4) 0.9084(2)
O18 O 0.0644(3) 0.6149(4) 0.5916(2)
O19 O 0.3851(4) 0.9356(3) 0.9084(2)
O20 O 0.3851(4) 0.4495(2) 0.5916(2)
O21 O 0.0644(3) 0.4495(2) 0.9084(2)
O22 O 0.6149(4) 0.5505(2) 0.5916(2)
O23 O 0.9356(3) 0.5505(2) 0.9084(2)
O24 O 0.3851(4) 0.4495(2) 0.4084(2)
O25 O 0.0644(3) 0.4495(2) 0.0916(2)
O27 O 0.5505(2) 0.9356(3) 0.4084(2)
O28 O 0.6149(4) 0.5505(2) 0.4084(2)
O32 O 0.0644(3) 0.6149(4) 0.4084(2)
O33 O 0.3851(4) 0.9356(3) 0.0916(2)
O34 O 0.5132(5) 0.6513(4) 0.5000
O36 O 0.4868(5) 0.3487(4) 0.5000
O37 O 0.1381(3) 0.4868(5) 0.5000
H4 H 0.3437 0.8265 0.4585
H5 H 0.4828 0.6563 0.5415
H6 H 0.4828 0.6563 0.4585
H9 H 0.5172 0.3437 0.5415
H10 H 0.5172 0.3437 0.4585
H11 H 0.1735 0.5172 0.5415
H12 H 0.1735 0.5172 0.4585
N2 N 0.23969(16) 0.76031(23) 0.7500
N3 N 0.23969(23) 0.47938(16) 0.7500
N4 N 0.76031(23) 0.52062(16) 0.7500
N5 N 0.23969(23) 0.47938(16) 0.2500
N6 N 0.23969(16) 0.76031(23) 0.2500
N7 N 0.52062(16) 0.76031(16) 0.2500
C5 C 0.5063(4) 0.6459(5) 0.8610(3)
C6 C 0.1396(3) 0.6459(5) 0.6390(3)
C7 C 0.3541(5) 0.8604(3) 0.8610(3)
C8 C 0.3541(5) 0.4937(4) 0.6390(3)
C9 C 0.1396(3) 0.4937(4) 0.8610(3)
C10 C 0.6459(5) 0.5063(4) 0.6390(3)
C11 C 0.8604(3) 0.5063(4) 0.8610(3)
C12 C 0.3541(5) 0.4937(4) 0.3610(3)
C13 C 0.1396(3) 0.4937(4) 0.1390(3)
C14 C 0.3541(5) 0.8604(3) 0.1390(3)
C15 C 0.1396(3) 0.6459(5) 0.3610(3)
C16 C 0.5723(4) 0.7338(5) 0.8039(3)
C17 C 0.1615(3) 0.7338(5) 0.6961(3)
C18 C 0.2662(5) 0.8385(3) 0.8039(3)
C19 C 0.2662(5) 0.4277(4) 0.6961(3)
C20 C 0.1615(3) 0.4277(4) 0.8039(3)
C21 C 0.7338(5) 0.5723(4) 0.6961(3)
C22 C 0.8385(3) 0.5723(4) 0.8039(3)
C23 C 0.2662(5) 0.4277(4) 0.3039(3)
C24 C 0.1615(3) 0.4277(4) 0.1961(3)
C25 C 0.1615(3) 0.7338(5) 0.3039(3)
C26 C 0.2662(5) 0.8385(3) 0.1961(3)
C27 C 0.6764(5) 0.7850(6) 0.8061(3)
C28 C 0.1086(3) 0.7850(6) 0.6939(3)
C29 C 0.2150(6) 0.8914(3) 0.8061(3)
C30 C 0.2150(6) 0.3236(5) 0.6939(3)
C31 C 0.1086(3) 0.3236(5) 0.8061(3)
C32 C 0.7850(6) 0.6764(5) 0.6939(3)
C33 C 0.8914(3) 0.6764(5) 0.8061(3)
C34 C 0.2150(6) 0.3236(5) 0.3061(3)
C35 C 0.1086(3) 0.3236(5) 0.1939(3)
C36 C 0.1086(3) 0.7850(6) 0.3061(3)
C37 C 0.2150(6) 0.8914(3) 0.1939(3)
H15 H 0.7107 0.7663 0.8447
H16 H 0.0556 0.7663 0.6553
H17 H 0.2337 0.9444 0.8447
H18 H 0.2337 0.2893 0.6553
H19 H 0.0556 0.2893 0.8447
H20 H 0.7663 0.7107 0.6553
H21 H 0.9444 0.7107 0.8447
H22 H 0.2337 0.2893 0.3447
H23 H 0.0556 0.2893 0.1553
H24 H 0.0556 0.7663 0.3447
H25 H 0.2337 0.9444 0.1553
C38 C 0.1349(2) 0.8651(4) 0.7500
C39 C 0.1349(4) 0.2698(3) 0.7500
C40 C 0.8651(4) 0.7302(3) 0.7500
C41 C 0.1349(4) 0.2698(3) 0.2500
C42 C 0.1349(2) 0.8651(4) 0.2500
H26 H 0.0996 0.9004 0.7500
H27 H 0.0996 0.1992 0.7500
H28 H 0.9004 0.8008 0.7500
H29 H 0.0996 0.1992 0.2500
H30 H 0.0996 0.9004 0.2500
Fe3_2 Fe 1.0000 0.5000 0.5000
O30 O 0.9356(3) 0.3851(4) 0.5916(2)
O31 O 0.9356(3) 0.3851(4) 0.4084(2)
O38 O 0.8619(3) 0.5132(5) 0.5000
H13 H 0.8265 0.4828 0.5415
H14 H 0.8265 0.4828 0.4585
O9_2 O 0.5881(2) 0.1998(4) 0.64427(17)
O10_2 O 0.5881(2) 0.3883(3) 0.85573(17)
O23_2 O 0.4495(2) 0.3851(4) 0.9084(2)
N4_2 N 0.47938(16) 0.23969(28) 0.7500
C10_2 C 0.4937(4) 0.1396(6) 0.6390(3)
C11_2 C 0.4937(4) 0.3541(5) 0.8610(3)
C21_2 C 0.4277(4) 0.1615(6) 0.6961(3)
C22_2 C 0.4277(4) 0.2662(5) 0.8039(3)
C32_2 C 0.3236(5) 0.1086(8) 0.6939(3)
C33_2 C 0.3236(5) 0.2150(6) 0.8061(3)
H20_2 H 0.2893 0.0556 0.6553
H21_2 H 0.2893 0.2337 0.8447
C40_2 C 0.2698(3) 0.1349(5) 0.7500
H28_2 H 0.1992 0.0996 0.7500
O25_2 O 0.5505(2) 0.6149(4) 0.0916(2)
C12_2 C 0.5063(4) 0.8604(6) 0.3610(3)
C13_2 C 0.5063(4) 0.6459(5) 0.1390(3)
C23_2 C 0.5723(4) 0.8385(6) 0.3039(3)
C24_2 C 0.5723(4) 0.7338(5) 0.1961(3)
C34_2 C 0.6764(5) 0.8914(8) 0.3061(3)
C35_2 C 0.6764(5) 0.7850(6) 0.1939(3)
H22_2 H 0.7107 0.9444 0.3447
H23_2 H 0.7107 0.7663 0.1553
C41_2 C 0.7302(3) 0.8651(5) 0.2500
H29_2 H 0.8008 0.9004 0.2500
O9_3 O 0.8002(4) 0.3883(3) 0.64427(17)
O10_3 O 0.6117(3) 0.1998(2) 0.85573(17)
O23_3 O 0.6149(4) 0.0644(3) 0.9084(2)
N4_3 N 0.76031(28) 0.23969(23) 0.7500
C10_3 C 0.8604(6) 0.3541(5) 0.6390(3)
C11_3 C 0.6459(5) 0.1396(3) 0.8610(3)
C21_3 C 0.8385(6) 0.2662(5) 0.6961(3)
C22_3 C 0.7338(5) 0.1615(3) 0.8039(3)
C32_3 C 0.8914(8) 0.2150(6) 0.6939(3)
C33_3 C 0.7850(6) 0.1086(3) 0.8061(3)
H20_3 H 0.9444 0.2337 0.6553
H21_3 H 0.7663 0.0556 0.8447
C40_3 C 0.8651(5) 0.1349(4) 0.7500
H28_3 H 0.9004 0.0996 0.7500
Ho2_2 Ho 0.6667 0.3333 0.2500
O11_2 O 0.6117(3) 0.4119(2) 0.35573(17)
O12_2 O 0.8002(2) 0.4119(2) 0.14427(17)
O13_2 O 0.6117(3) 0.1998(2) 0.14427(17)
O14_2 O 0.5881(2) 0.3883(3) 0.14427(17)
O15_2 O 0.8002(2) 0.3883(3) 0.35573(17)
O16_2 O 0.5881(2) 0.1998(2) 0.35573(17)
O25_3 O 0.9356(3) 0.5505(2) 0.0916(2)
O33_2 O 0.6149(4) 0.0644(3) 0.0916(2)
N5_2 N 0.76031(23) 0.52062(16) 0.2500
N6_2 N 0.76031(16) 0.23969(23) 0.2500
N7_2 N 0.47938(16) 0.23969(16) 0.2500
C12_3 C 0.6459(5) 0.5063(4) 0.3610(3)
C13_3 C 0.8604(3) 0.5063(4) 0.1390(3)
C14_2 C 0.6459(5) 0.1396(3) 0.1390(3)
C15_2 C 0.8604(3) 0.3541(5) 0.3610(3)
C23_3 C 0.7338(5) 0.5723(4) 0.3039(3)
C24_3 C 0.8385(3) 0.5723(4) 0.1961(3)
C25_2 C 0.8385(3) 0.2662(5) 0.3039(3)
C26_2 C 0.7338(5) 0.1615(3) 0.1961(3)
C34_3 C 0.7850(6) 0.6764(5) 0.3061(3)
C35_3 C 0.8914(3) 0.6764(5) 0.1939(3)
C36_2 C 0.8914(3) 0.2150(6) 0.3061(3)
C37_2 C 0.7850(6) 0.1086(3) 0.1939(3)
H22_3 H 0.7663 0.7107 0.3447
H23_3 H 0.9444 0.7107 0.1553
H24_2 H 0.9444 0.2337 0.3447
H25_2 H 0.7663 0.0556 0.1553
C41_3 C 0.8651(4) 0.7302(3) 0.2500
C42_2 C 0.8651(2) 0.1349(4) 0.2500
H29_3 H 0.9004 0.8008 0.2500
H30_2 H 0.9004 0.0996 0.2500
O25_4 O 0.4495(2) 0.3851(4) 0.0916(2)
C12_4 C 0.4937(4) 0.1396(6) 0.3610(3)
C13_4 C 0.4937(4) 0.3541(5) 0.1390(3)
C23_4 C 0.4277(4) 0.1615(6) 0.3039(3)
C24_4 C 0.4277(4) 0.2662(5) 0.1961(3)
C34_4 C 0.3236(5) 0.1086(8) 0.3061(3)
C35_4 C 0.3236(5) 0.2150(6) 0.1939(3)
H22_4 H 0.2893 0.0556 0.3447
H23_4 H 0.2893 0.2337 0.1553
C41_4 C 0.2698(3) 0.1349(5) 0.2500
H29_4 H 0.1992 0.0996 0.2500
O35_2 O 0.1381(3) 0.6513(4) -0.0000
H8_2 H 0.1735 0.6563 0.0415
O35_3 O 0.1381(3) 0.6513(4) 1.0000
H7_2 H 0.1735 0.6563 0.9585
O3_2 O 0.8619(3) 0.3487(4) -0.0000
O34_2 O 0.6513(4) 0.5132(5) -0.0000
O36_2 O 0.3487(4) 0.4868(5) -0.0000
O37_2 O 0.4868(5) 0.1381(3) -0.0000
H4_2 H 0.8265 0.3437 0.0415
H6_2 H 0.6563 0.4828 0.0415
H10_2 H 0.3437 0.5172 0.0415
H12_2 H 0.5172 0.1735 0.0415
O3_3 O 0.8619(3) 0.3487(4) 1.0000
H1_2 H 0.8265 0.3437 0.9585
O34_3 O 0.6513(4) 0.5132(5) 1.0000
O36_3 O 0.3487(4) 0.4868(5) 1.0000
O37_3 O 0.4868(5) 0.1381(3) 1.0000
H5_2 H 0.6563 0.4828 0.9585
H9_2 H 0.3437 0.5172 0.9585
H11_2 H 0.5172 0.1735 0.9585
O38_2 O 0.5132(5) 0.8619(3) -0.0000
H14_2 H 0.4828 0.8265 0.0415
O38_3 O 0.5132(5) 0.8619(3) 1.0000
H13_2 H 0.4828 0.8265 0.9585
loop_
_geom_bond_atom_site_label_1
_geom_bond_atom_site_label_2
_geom_bond_site_symmetry_1
_geom_bond_site_symmetry_2
O26 Fe1 1_555 1_555
O29 Fe1 1_555 1_555
O35 Fe1 1_555 1_555
H7 O35 1_555 1_555
H8 O35 1_555 1_555
Ho1 O1 1_555 1_555
Fe1_2 O2 1_555 1_555
O1 C1 1_555 1_555
O2 C1 1_555 1_555
O3 Fe1_2 1_555 1_555
H1 O3 1_555 1_555
N1 Ho1 1_555 1_555
C1 C2 1_555 1_555
C2 N1 1_555 1_555
C3 C2 1_555 1_555
H2 C3 1_555 1_555
C4 C3 1_555 1_555
H3 C4 1_555 1_555
Ho2 O11 1_555 1_555
Ho3 O9 1_555 1_555
Fe2 O20 1_555 1_555
Fe3 O18 1_555 1_555
Fe6 O25 1_555 1_555
Fe6_2 O21 1_555 1_555
Fe6_4 O23 1_555 1_555
Fe7_4 O19 1_555 1_555
Fe8_2 O17 1_555 1_555
Fe7_3 O33 1_555 1_555
O4 Ho1 1_555 1_555
O5 Ho1 1_555 1_555
O6 Ho1 1_555 1_555
O7 Ho1 1_555 1_555
O8 Ho1 1_555 1_555
O9 C10 1_555 1_555
O10 Ho3 1_555 1_555
O11 C12 1_555 1_555
O12 Ho2 1_555 1_555
O13 Ho2 1_555 1_555
O14 Ho2 1_555 1_555
O15 Ho2 1_555 1_555
O16 Ho2 1_555 1_555
O17 C5 1_555 1_555
O18 C6 1_555 1_555
O19 C7 1_555 1_555
O20 C8 1_555 1_555
O21 C9 1_555 1_555
O22 Fe2 1_555 1_555
O23 C11 1_555 1_555
O24 Fe2 1_555 1_555
O25 C13 1_555 1_555
O27 Fe1_2 1_555 1_555
O28 Fe2 1_555 1_555
O32 Fe3 1_555 1_555
O33 C14 1_555 1_555
O34 Fe2 1_555 1_555
O36 Fe2 1_555 1_555
O37 Fe3 1_555 1_555
H4 O3 1_555 1_555
H5 O34 1_555 1_555
H6 O34 1_555 1_555
H9 O36 1_555 1_555
H10 O36 1_555 1_555
H11 O37 1_555 1_555
H12 O37 1_555 1_555
N2 Ho1 1_555 1_555
N3 Ho1 1_555 1_555
N4 Ho3 1_555 1_555
N5 Ho2 1_555 1_555
N6 Ho2 1_555 1_555
N7 Ho2 1_555 1_555
C5 O4 1_555 1_555
C6 O5 1_555 1_555
C7 O6 1_555 1_555
C8 O7 1_555 1_555
C9 O8 1_555 1_555
C10 O22 1_555 1_555
C11 O10 1_555 1_555
C12 O24 1_555 1_555
C13 O12 1_555 1_555
C14 O13 1_555 1_555
C15 O15 1_555 1_555
C16 N1 1_555 1_555
C17 N2 1_555 1_555
C18 N2 1_555 1_555
C19 N3 1_555 1_555
C20 N3 1_555 1_555
C21 N4 1_555 1_555
C22 N4 1_555 1_555
C23 N5 1_555 1_555
C24 N5 1_555 1_555
C25 N6 1_555 1_555
C26 N6 1_555 1_555
C27 C4 1_555 1_555
C28 C17 1_555 1_555
C29 C18 1_555 1_555
C30 C19 1_555 1_555
C31 C20 1_555 1_555
C32 C21 1_555 1_555
C33 C22 1_555 1_555
C34 C23 1_555 1_555
C35 C24 1_555 1_555
C36 C25 1_555 1_555
C37 C26 1_555 1_555
H15 C27 1_555 1_555
H16 C28 1_555 1_555
H17 C29 1_555 1_555
H18 C30 1_555 1_555
H19 C31 1_555 1_555
H20 C32 1_555 1_555
H21 C33 1_555 1_555
H22 C34 1_555 1_555
H23 C35 1_555 1_555
H24 C36 1_555 1_555
H25 C37 1_555 1_555
C38 C28 1_555 1_555
C39 C30 1_555 1_555
C40 C32 1_555 1_555
C41 C34 1_555 1_555
C42 C36 1_555 1_555
H26 C38 1_555 1_555
H27 C39 1_555 1_555
H28 C40 1_555 1_555
H29 C41 1_555 1_555
H30 C42 1_555 1_555
O32 C15 1_555 1_555
C5 C16 1_555 1_555
C6 C17 1_555 1_555
C7 C18 1_555 1_555
C8 C19 1_555 1_555
C9 C20 1_555 1_555
C10 C21 1_555 1_555
C11 C22 1_555 1_555
C12 C23 1_555 1_555
C13 C24 1_555 1_555
C14 C26 1_555 1_555
C15 C25 1_555 1_555
C16 C27 1_555 1_555
C29 C38 1_555 1_555
C31 C39 1_555 1_555
C33 C40 1_555 1_555
C35 C41 1_555 1_555
C37 C42 1_555 1_555
O30 Fe3_2 1_555 1_555
O31 Fe3_2 1_555 1_555
O38 Fe3_2 1_555 1_555
H13 O38 1_555 1_555
H14 O38 1_555 1_555
Ho3 O9_2 1_555 1_555
Fe8_2 O23_2 1_555 1_555
O9_2 C10_2 1_555 1_555
O10_2 Ho3 1_555 1_555
O23_2 C11_2 1_555 1_555
N4_2 Ho3 1_555 1_555
C10_2 O26 1_555 1_555
C11_2 O10_2 1_555 1_555
C21_2 N4_2 1_555 1_555
C22_2 N4_2 1_555 1_555
C32_2 C21_2 1_555 1_555
C33_2 C22_2 1_555 1_555
H20_2 C32_2 1_555 1_555
H21_2 C33_2 1_555 1_555
C40_2 C32_2 1_555 1_555
H28_2 C40_2 1_555 1_555
C10_2 C21_2 1_555 1_555
C11_2 C22_2 1_555 1_555
C33_2 C40_2 1_555 1_555
Fe8 O25_2 1_555 1_555
O16 C12_2 1_555 1_555
O25_2 C13_2 1_555 1_555
C12_2 O27 1_555 1_555
C13_2 O14 1_555 1_555
C23_2 N7 1_555 1_555
C24_2 N7 1_555 1_555
C34_2 C23_2 1_555 1_555
C35_2 C24_2 1_555 1_555
H22_2 C34_2 1_555 1_555
H23_2 C35_2 1_555 1_555
C41_2 C34_2 1_555 1_555
H29_2 C41_2 1_555 1_555
C12_2 C23_2 1_555 1_555
C13_2 C24_2 1_555 1_555
C35_2 C41_2 1_555 1_555
Ho3 O9_3 1_555 1_555
Fe7_2 O23_3 1_555 1_555
O9_3 C10_3 1_555 1_555
O10_3 Ho3 1_555 1_555
O23_3 C11_3 1_555 1_555
N4_3 Ho3 1_555 1_555
C10_3 O30 1_555 1_555
C11_3 O10_3 1_555 1_555
C21_3 N4_3 1_555 1_555
C22_3 N4_3 1_555 1_555
C32_3 C21_3 1_555 1_555
C33_3 C22_3 1_555 1_555
H20_3 C32_3 1_555 1_555
H21_3 C33_3 1_555 1_555
C40_3 C32_3 1_555 1_555
H28_3 C40_3 1_555 1_555
C10_3 C21_3 1_555 1_555
C11_3 C22_3 1_555 1_555
C33_3 C40_3 1_555 1_555
Ho2_2 O11_2 1_555 1_555
Fe6_3 O25_3 1_555 1_555
Fe7 O33_2 1_555 1_555
O11_2 C12_3 1_555 1_555
O12_2 Ho2_2 1_555 1_555
O13_2 Ho2_2 1_555 1_555
O14_2 Ho2_2 1_555 1_555
O15_2 Ho2_2 1_555 1_555
O16_2 Ho2_2 1_555 1_555
O25_3 C13_3 1_555 1_555
O33_2 C14_2 1_555 1_555
N5_2 Ho2_2 1_555 1_555
N6_2 Ho2_2 1_555 1_555
N7_2 Ho2_2 1_555 1_555
C12_3 O28 1_555 1_555
C13_3 O12_2 1_555 1_555
C14_2 O13_2 1_555 1_555
C15_2 O15_2 1_555 1_555
C23_3 N5_2 1_555 1_555
C24_3 N5_2 1_555 1_555
C25_2 N6_2 1_555 1_555
C26_2 N6_2 1_555 1_555
C34_3 C23_3 1_555 1_555
C35_3 C24_3 1_555 1_555
C36_2 C25_2 1_555 1_555
C37_2 C26_2 1_555 1_555
H22_3 C34_3 1_555 1_555
H23_3 C35_3 1_555 1_555
H24_2 C36_2 1_555 1_555
H25_2 C37_2 1_555 1_555
C41_3 C34_3 1_555 1_555
C42_2 C36_2 1_555 1_555
H29_3 C41_3 1_555 1_555
H30_2 C42_2 1_555 1_555
O31 C15_2 1_555 1_555
C12_3 C23_3 1_555 1_555
C13_3 C24_3 1_555 1_555
C14_2 C26_2 1_555 1_555
C15_2 C25_2 1_555 1_555
C35_3 C41_3 1_555 1_555
C37_2 C42_2 1_555 1_555
Fe8 O25_4 1_555 1_555
O16_2 C12_4 1_555 1_555
O25_4 C13_4 1_555 1_555
C12_4 O29 1_555 1_555
C13_4 O14_2 1_555 1_555
C23_4 N7_2 1_555 1_555
C24_4 N7_2 1_555 1_555
C34_4 C23_4 1_555 1_555
C35_4 C24_4 1_555 1_555
H22_4 C34_4 1_555 1_555
H23_4 C35_4 1_555 1_555
C41_4 C34_4 1_555 1_555
H29_4 C41_4 1_555 1_555
C12_4 C23_4 1_555 1_555
C13_4 C24_4 1_555 1_555
C35_4 C41_4 1_555 1_555
O35_2 Fe6 1_555 1_555
H8_2 O35_2 1_555 1_555
O35_3 Fe6_2 1_555 1_555
H7_2 O35_3 1_555 1_555
O3_2 Fe6_3 1_555 1_555
O34_2 Fe8 1_555 1_555
O36_2 Fe8 1_555 1_555
O37_2 Fe7 1_555 1_555
H4_2 O3_2 1_555 1_555
H6_2 O34_2 1_555 1_555
H10_2 O36_2 1_555 1_555
H12_2 O37_2 1_555 1_555
O3_3 Fe6_4 1_555 1_555
H1_2 O3_3 1_555 1_555
O34_3 Fe8_2 1_555 1_555
O36_3 Fe8_2 1_555 1_555
O37_3 Fe7_2 1_555 1_555
H5_2 O34_3 1_555 1_555
H9_2 O36_3 1_555 1_555
H11_2 O37_3 1_555 1_555
O38_2 Fe7_3 1_555 1_555
H14_2 O38_2 1_555 1_555
O38_3 Fe7_4 1_555 1_555
H13_2 O38_3 1_555 1_555

#END
