
###############################################################################
#
# This file contains modified crystal structure data generated from the
# MOF subset of the Cambridge Structural Database (CSD) v543 
# hosted by the Cambridge Crystallographic Data Centre (CCDC).
#
# This work is licensed under the Creative Commons
# Attribution-NonCommercial-ShareAlike 4.0 International License.
# To view a copy of this license, visit
# http://creativecommons.org/licenses/by-nc-sa/4.0/
# or send a letter to
# Creative Commons, PO Box 1866, Mountain View, CA 94042, USA.
#
# CIF created using the CSD Python API on 29 September 2022
# The structure has been converted into the P1 space group
# The structure has a 3D framework
# The original CSD entry ILUREP is in the monoclinic crystal system
# The framework has been calculated to contain at least 10.0% void space
# The void calculation uses a probe of radius 1.32A, grid spacing 0.4
# H atom positions have been added when not included in the experimental data
#
###############################################################################

data_ILUREP
_chemical_formula_moiety         '(C216 H144 Cd8 O40)n'
_symmetry_cell_setting           triclinic
_symmetry_space_group_name_H-M   'P 1'
_symmetry_Int_Tables_number      1
_space_group_name_Hall           'P 1'
loop_
_symmetry_equiv_pos_site_id
_symmetry_equiv_pos_as_xyz
1 x,y,z
_cell_length_a                   19.647(4)
_cell_length_b                   13.624(3)
_cell_length_c                   21.149(4)
_cell_angle_alpha                90
_cell_angle_beta                 113.474(5)
_cell_angle_gamma                90
_cell_volume                     5192.47
loop_
_atom_site_label
_atom_site_type_symbol
_atom_site_fract_x
_atom_site_fract_y
_atom_site_fract_z
C14 C 0.1372(4) 0.0676(5) 0.4214(3)
C22 C 0.0059(3) 0.0586(4) 0.1040(3)
H11 H 0.0116 0.0879 0.0667
C24 C 0.0512(3) 0.0374(5) 0.2271(3)
C25 C 0.1058(4) 0.0590(5) 0.2988(3)
C28 C 0.0567(4) 0.0782(4) 0.1696(3)
H12 H 0.0960 0.1202 0.1754
C38 C 0.0862(3) 0.0497(4) 0.3546(3)
H21 H 0.0380 0.0311 0.3473
C46 C 0.2075(4) 0.1000(7) 0.4316(4)
H28 H 0.2419 0.1137 0.4759
C47 C 0.1758(4) 0.0928(7) 0.3107(4)
H29 H 0.1892 0.1030 0.2737
C50 C 0.1196(4) 0.0501(5) 0.4829(3)
C54 C 0.2262(5) 0.1118(9) 0.3766(4)
H32 H 0.2737 0.1330 0.3837
O4 O 0.0526(3) 0.0288(3) 0.4726(2)
O7 O 0.1681(3) 0.0612(4) 0.5413(2)
Cd6 Cd 0.02353(3) 0.10432(4) 0.56241(2)
C6 C 0.0188(3) 0.5262(4) 0.1146(3)
C8 C 0.0813(3) 0.5252(4) 0.1753(3)
H3 H 0.1001 0.5842 0.1975
C11 C 0.1167(3) 0.4386(4) 0.2039(3)
C18 C 0.0269(4) 0.3508(5) 0.1096(3)
H9 H 0.0085 0.2921 0.0868
C21 C 0.0895(4) 0.3508(5) 0.1712(3)
H10 H 0.1129 0.2921 0.1901
C40 C 0.0192(3) 0.7034(4) 0.0844(3)
H23 H 0.0708 0.7011 0.1022
H27 H 0.0109 0.8454 0.0556
C51 C 0.1862(3) 0.4384(5) 0.2697(3)
O3 O 0.2242(2) 0.3610(3) 0.2878(2)
O5 O 0.2039(2) 0.5154(3) 0.3053(2)
Cd4 Cd 0.30901(3) 0.43407(4) 0.38407(2)
Cd5 Cd 0.19099(3) 0.93407(4) 0.61593(2)
C4 C 0.8584(3) 0.0720(4) 0.9822(3)
C5 C 0.7986(3) 0.2450(4) 0.9094(3)
C7 C 0.7798(4) 0.4291(4) 0.9016(3)
H2 H 0.8124 0.4336 0.9476
C9 C 0.7480(4) 0.5129(4) 0.8669(3)
H4 H 0.7585 0.5731 0.8894
C12 C 0.8179(3) 0.2383(4) 0.9797(3)
C16 C 0.7003(4) 0.5078(4) 0.7981(3)
H7 H 0.6785 0.5646 0.7743
C17 C 0.8418(3) 0.0802(4) 0.9127(3)
H8 H 0.8512 0.0271 0.8897
C27 C 0.7648(3) 0.3374(4) 0.8702(3)
C32 C 0.8119(3) 0.1644(4) 0.8760(3)
H15 H 0.8007 0.1671 0.8290
C33 C 0.7169(3) 0.3339(4) 0.8011(3)
H16 H 0.7062 0.2735 0.7788
C41 C 0.6849(4) 0.4172(4) 0.7647(3)
O1 O 0.6093(2) 0.4875(3) 0.6557(2)
C53 C 0.6341(4) 0.4096(5) 0.6913(3)
O8 O 0.6134(3) 0.3276(4) 0.6646(2)
Cd3 Cd 0.69099(3) 0.56593(4) 0.61593(2)
Cd7 Cd 0.52353(3) 0.39568(4) 0.56241(2)
C2 C 0.8899(3) 0.9794(4) 0.0217(3)
C10 C 0.9799(3) 0.6201(4) 0.0861(3)
C20 C 0.9467(3) 0.9964(4) 0.0924(3)
C23 C 0.9067(3) 0.7971(4) 0.0304(3)
C29 C 0.9410(4) 0.9538(5) 0.1499(3)
H13 H 0.9018 0.9113 0.1438
C30 C 0.9926(3) 0.4367(5) 0.0829(3)
H14 H 0.9503 0.4356 0.0420
C39 C 0.9920(4) 0.9728(5) 0.2158(3)
H22 H 0.9871 0.9424 0.2531
C43 C 0.8671(3) 0.7135(4) 0.0323(3)
H25 H 0.8156 0.7157 0.0147
C44 C 0.9033(3) 0.6275(4) 0.0600(3)
H26 H 0.8756 0.5728 0.0613
C45 C 0.9832(3) 0.7905(4) 0.0566(3)
Cd8 Cd 0.97647(3) 0.89568(4) 0.43759(2)
Cd2 Cd 0.47647(3) 0.60432(4) 0.43759(2)
C1 C 0.6717(3) 0.9032(4) 0.8585(3)
H1 H 0.6284 0.9381 0.8508
C3 C 0.7987(3) 0.8719(4) 0.9317(3)
C13 C 0.8663(3) 0.8891(4) 0.9965(3)
C19 C 0.6714(3) 0.8343(4) 0.8091(3)
C26 C 0.6040(4) 0.8139(5) 0.7469(3)
C31 C 0.5440(4) 0.7608(5) 0.6273(3)
C34 C 0.7375(3) 0.7839(4) 0.8233(3)
H17 H 0.7404 0.7377 0.7921
C35 C 0.7990(3) 0.8020(4) 0.8837(3)
H18 H 0.8422 0.7663 0.8924
C36 C 0.4757(4) 0.7805(5) 0.6292(4)
H19 H 0.4325 0.7712 0.5900
C37 C 0.6080(4) 0.7775(5) 0.6871(3)
H20 H 0.6543 0.7639 0.6867
C42 C 0.7328(3) 0.9213(4) 0.9175(3)
H24 H 0.7300 0.9676 0.9487
C48 C 0.5352(4) 0.8298(6) 0.7455(4)
H30 H 0.5310 0.8528 0.7853
C49 C 0.4718(4) 0.8134(6) 0.6884(4)
H31 H 0.4258 0.8248 0.6899
O2 O 0.4908(3) 0.7282(3) 0.5088(2)
C52 C 0.5464(4) 0.7206(5) 0.5632(3)
O6 O 0.6055(3) 0.6772(4) 0.5649(2)
O9 O 0.5574(5) 0.6744(5) 0.3890(3)
O10 O 0.7556(5) 0.6226(6) 0.5500(4)
O12 O 0.3907(2) 0.5125(3) 0.3443(2)
O13 O 0.7758(2) 0.6390(3) 0.7122(2)
O14 O 0.4474(3) 0.5288(3) 0.5274(2)
O15 O 0.5526(3) 0.4712(3) 0.4726(2)
O16 O 0.7961(2) 0.4846(3) 0.6947(2)
O17 O 0.6681(3) 0.4388(4) 0.5413(2)
O18 O 0.3866(3) 0.6724(4) 0.3354(2)
H33 H 0.768325 0.692974 0.560348
H34 H 0.801837 0.583857 0.561685
H35 H 0.607661 0.683577 0.425914
H36 H 0.560483 0.629631 0.353183
C36_2 C 0.0243(4) 0.2805(5) 0.3708(4)
H19_2 H 0.0675 0.2712 0.4100
C49_2 C 0.0282(4) 0.3134(6) 0.3116(4)
H31_2 H 0.0742 0.3248 0.3101
O2_2 O 0.0092(3) 0.2282(3) 0.4912(2)
O12_2 O 0.1093(2) 0.0125(3) 0.6557(2)
O18_2 O 0.1134(3) 0.1724(4) 0.6646(2)
C9_2 C 0.7520(4) 0.0129(4) 0.1331(3)
H4_2 H 0.7415 0.0731 0.1106
C16_2 C 0.7997(4) 0.0078(4) 0.2019(3)
H7_2 H 0.8215 0.0646 0.2257
Cd3_2 Cd 0.80901(3) 0.06593(4) 0.38407(2)
C1_2 C 0.8283(3) 0.4032(4) 0.1415(3)
H1_2 H 0.8716 0.4381 0.1492
C3_2 C 0.7013(3) 0.3719(4) 0.0683(3)
C4_2 C 0.6416(3) 0.5720(4) 0.0178(3)
C5_2 C 0.7014(3) 0.7450(4) 0.0906(3)
C7_2 C 0.7202(4) 0.9291(4) 0.0984(3)
H2_2 H 0.6876 0.9336 0.0524
C12_2 C 0.6821(3) 0.7383(4) 0.0203(3)
C13_2 C 0.6337(3) 0.3891(4) 0.0035(3)
C17_2 C 0.6582(3) 0.5802(4) 0.0873(3)
H8_2 H 0.6488 0.5271 0.1103
C19_2 C 0.8286(3) 0.3343(4) 0.1909(3)
C26_2 C 0.8960(4) 0.3139(5) 0.2531(3)
C27_2 C 0.7352(3) 0.8374(4) 0.1298(3)
C31_2 C 0.9560(4) 0.2608(5) 0.3727(3)
C32_2 C 0.6881(3) 0.6644(4) 0.1240(3)
H15_2 H 0.6993 0.6671 0.1710
C33_2 C 0.7831(3) 0.8339(4) 0.1989(3)
H16_2 H 0.7938 0.7735 0.2212
C34_2 C 0.7625(3) 0.2839(4) 0.1767(3)
H17_2 H 0.7596 0.2377 0.2079
C35_2 C 0.7010(3) 0.3020(4) 0.1163(3)
H18_2 H 0.6578 0.2663 0.1076
C37_2 C 0.8920(4) 0.2775(5) 0.3129(3)
H20_2 H 0.8457 0.2639 0.3133
C41_2 C 0.8151(4) 0.9172(4) 0.2353(3)
C42_2 C 0.7672(3) 0.4213(4) 0.0825(3)
H24_2 H 0.7700 0.4676 0.0513
C48_2 C 0.9648(4) 0.3298(6) 0.2545(4)
H30_2 H 0.9690 0.3528 0.2147
O1_2 O 0.8907(2) 0.9875(3) 0.3443(2)
C52_2 C 0.9536(4) 0.2206(5) 0.4368(3)
C53_2 C 0.8659(4) 0.9096(5) 0.3087(3)
O6_2 O 0.8945(3) 0.1772(4) 0.4351(2)
O8_2 O 0.8866(3) 0.8276(4) 0.3354(2)
O9_2 O 0.9426(5) 0.1744(5) 0.6110(3)
O10_2 O 0.7444(5) 0.1226(6) 0.4500(4)
O13_2 O 0.7242(2) 0.1390(3) 0.2878(2)
H33_2 H 0.731675 0.192974 0.439652
H34_2 H 0.698163 0.0838573 0.438315
H35_2 H 0.892339 0.183577 0.574086
H36_2 H 0.939517 0.129631 0.646817
C2_2 C 0.6101(3) 0.4794(4) 0.9783(3)
C6_2 C 0.4812(3) 0.0262(4) 0.8854(3)
C8_2 C 0.4187(3) 0.0252(4) 0.8247(3)
H3_2 H 0.3999 0.0842 0.8025
C10_2 C 0.5201(3) 0.1201(4) 0.9139(3)
H5 H 0.6893 0.7922 0.9968
C14_2 C 0.3628(4) 0.5676(5) 0.5786(3)
C15 C 0.6525(3) 0.6537(4) 0.9844(3)
H6 H 0.6396 0.6515 0.9371
C20_2 C 0.5533(3) 0.4964(4) 0.9076(3)
C22_2 C 0.4941(3) 0.5586(4) 0.8960(3)
H11_2 H 0.4884 0.5879 0.9333
C23_2 C 0.5933(3) 0.2971(4) 0.9696(3)
C24_2 C 0.4488(3) 0.5374(5) 0.7729(3)
C25_2 C 0.3942(4) 0.5590(5) 0.7012(3)
C28_2 C 0.4433(4) 0.5782(4) 0.8304(3)
H12_2 H 0.4040 0.6202 0.8246
C29_2 C 0.5590(4) 0.4538(5) 0.8501(3)
H13_2 H 0.5982 0.4113 0.8562
C38_2 C 0.4138(3) 0.5497(4) 0.6454(3)
H21_2 H 0.4620 0.5311 0.6527
C39_2 C 0.5080(4) 0.4728(5) 0.7842(3)
H22_2 H 0.5129 0.4424 0.7469
C40_2 C 0.4808(3) 0.2034(4) 0.9156(3)
H23_2 H 0.4292 0.2011 0.8978
C43_2 C 0.6329(3) 0.2135(4) 0.9677(3)
H25_2 H 0.6844 0.2157 0.9853
C44_2 C 0.5967(3) 0.1275(4) 0.9400(3)
H26_2 H 0.6244 0.0728 0.9387
C45_2 C 0.5168(3) 0.2905(4) 0.9434(3)
H27_2 H 0.4891 0.3454 0.9444
C46_2 C 0.2925(4) 0.6000(7) 0.5684(4)
H28_2 H 0.2581 0.6137 0.5241
C47_2 C 0.3242(4) 0.5928(7) 0.6893(4)
H29_2 H 0.3108 0.6030 0.7263
C50_2 C 0.3804(4) 0.5501(5) 0.5171(3)
C54_2 C 0.2738(5) 0.6118(9) 0.6234(4)
H32_2 H 0.2263 0.6330 0.6163
O5_2 O 0.2961(2) 0.0154(3) 0.6947(2)
O7_2 O 0.3319(3) 0.5612(4) 0.4587(2)
O15_2 O 0.9474(3) 0.9712(3) 0.5274(2)
O16_2 O 0.7039(2) 0.9846(3) 0.3053(2)
O17_2 O 0.8319(3) 0.9388(4) 0.4587(2)
C11_2 C 0.3833(3) 0.9386(4) 0.7961(3)
C18_2 C 0.4731(4) 0.8508(5) 0.8904(3)
H9_2 H 0.4915 0.7921 0.9132
C21_2 C 0.4105(4) 0.8508(5) 0.8288(3)
H10_2 H 0.3871 0.7921 0.8099
C30_2 C 0.5074(3) 0.9367(5) 0.9171(3)
H14_2 H 0.5497 0.9356 0.9580
C51_2 C 0.3138(3) 0.9384(5) 0.7303(3)
O3_2 O 0.2758(2) 0.8610(3) 0.7122(2)
C1_3 C 0.3283(3) 0.0968(4) 0.1415(3)
H1_3 H 0.3716 0.0619 0.1492
C3_3 C 0.2013(3) 0.1281(4) 0.0683(3)
C13_3 C 0.1337(3) 0.1109(4) 0.0035(3)
C19_3 C 0.3286(3) 0.1657(4) 0.1909(3)
C26_3 C 0.3960(4) 0.1861(5) 0.2531(3)
C31_3 C 0.4560(4) 0.2392(5) 0.3727(3)
C34_3 C 0.2625(3) 0.2161(4) 0.1767(3)
H17_3 H 0.2596 0.2623 0.2079
C35_3 C 0.2010(3) 0.1980(4) 0.1163(3)
H18_3 H 0.1578 0.2337 0.1076
C36_3 C 0.5243(4) 0.2195(5) 0.3708(4)
H19_3 H 0.5675 0.2288 0.4100
C37_3 C 0.3920(4) 0.2225(5) 0.3129(3)
H20_3 H 0.3457 0.2361 0.3133
C42_3 C 0.2672(3) 0.0787(4) 0.0825(3)
H24_3 H 0.2700 0.0324 0.0513
C48_3 C 0.4648(4) 0.1702(6) 0.2545(4)
H30_3 H 0.4690 0.1472 0.2147
C49_3 C 0.5282(4) 0.1866(6) 0.3116(4)
H31_3 H 0.5742 0.1752 0.3101
O2_3 O 0.5092(3) 0.2718(3) 0.4912(2)
C52_3 C 0.4536(4) 0.2794(5) 0.4368(3)
O6_3 O 0.3945(3) 0.3228(4) 0.4351(2)
O9_3 O 0.4426(5) 0.3256(5) 0.6110(3)
O10_3 O 0.2444(5) 0.3774(6) 0.4500(4)
H33_3 H 0.231675 0.307026 0.439652
H34_3 H 0.198163 0.416143 0.438315
H35_3 H 0.392339 0.316423 0.574086
H36_3 H 0.439517 0.370369 0.646817
C2_3 C 0.1101(3) 0.0206(4) 0.9783(3)
C10_3 C 0.0201(3) 0.3799(4) 0.9139(3)
C20_3 C 0.0533(3) 0.0036(4) 0.9076(3)
C23_3 C 0.0933(3) 0.2029(4) 0.9696(3)
C29_3 C 0.0590(4) 0.0462(5) 0.8501(3)
H13_3 H 0.0982 0.0887 0.8562
C30_3 C 0.0074(3) 0.5633(5) 0.9171(3)
H14_3 H 0.0497 0.5644 0.9580
C39_3 C 0.0080(4) 0.0272(5) 0.7842(3)
H22_3 H 0.0129 0.0576 0.7469
C43_3 C 0.1329(3) 0.2865(4) 0.9677(3)
H25_3 H 0.1844 0.2843 0.9853
C44_3 C 0.0967(3) 0.3725(4) 0.9400(3)
H26_3 H 0.1244 0.4272 0.9387
C45_3 C 0.0168(3) 0.2095(4) 0.9434(3)
C4_3 C 0.1416(3) 0.9280(4) 0.0178(3)
C5_3 C 0.2014(3) 0.7550(4) 0.0906(3)
C7_3 C 0.2202(4) 0.5709(4) 0.0984(3)
H2_3 H 0.1876 0.5664 0.0524
C9_3 C 0.2520(4) 0.4871(4) 0.1331(3)
H4_3 H 0.2415 0.4269 0.1106
C12_3 C 0.1821(3) 0.7617(4) 0.0203(3)
C16_3 C 0.2997(4) 0.4922(4) 0.2019(3)
H7_3 H 0.3215 0.4354 0.2257
C17_3 C 0.1582(3) 0.9198(4) 0.0873(3)
H8_3 H 0.1488 0.9729 0.1103
C27_3 C 0.2352(3) 0.6626(4) 0.1298(3)
C32_3 C 0.1881(3) 0.8356(4) 0.1240(3)
H15_3 H 0.1993 0.8329 0.1710
C33_3 C 0.2831(3) 0.6661(4) 0.1989(3)
H16_3 H 0.2938 0.7265 0.2212
C41_3 C 0.3151(4) 0.5828(4) 0.2353(3)
C53_3 C 0.3659(4) 0.5904(5) 0.3087(3)
C6_3 C 0.9812(3) 0.4738(4) 0.8854(3)
C8_3 C 0.9187(3) 0.4748(4) 0.8247(3)
H3_3 H 0.8999 0.4158 0.8025
C11_3 C 0.8833(3) 0.5614(4) 0.7961(3)
C18_3 C 0.9731(4) 0.6492(5) 0.8904(3)
H9_3 H 0.9915 0.7079 0.9132
C21_3 C 0.9105(4) 0.6492(5) 0.8288(3)
H10_3 H 0.8871 0.7079 0.8099
C40_3 C 0.9808(3) 0.2966(4) 0.9156(3)
H23_3 H 0.9292 0.2989 0.8978
H27_3 H 0.9891 0.1546 0.9444
C51_3 C 0.8138(3) 0.5616(5) 0.7303(3)
C14_3 C 0.8628(4) 0.9324(5) 0.5786(3)
C22_3 C 0.9941(3) 0.9414(4) 0.8960(3)
H11_3 H 0.9884 0.9121 0.9333
C24_3 C 0.9488(3) 0.9626(5) 0.7729(3)
C25_3 C 0.8942(4) 0.9410(5) 0.7012(3)
C28_3 C 0.9433(4) 0.9218(4) 0.8304(3)
H12_3 H 0.9040 0.8798 0.8246
C38_3 C 0.9138(3) 0.9503(4) 0.6454(3)
H21_3 H 0.9620 0.9689 0.6527
C46_3 C 0.7925(4) 0.9000(7) 0.5684(4)
H28_3 H 0.7581 0.8863 0.5241
C47_3 C 0.8242(4) 0.9072(7) 0.6893(4)
H29_3 H 0.8108 0.8970 0.7263
C50_3 C 0.8804(4) 0.9499(5) 0.5171(3)
C54_3 C 0.7738(5) 0.8882(9) 0.6234(4)
H32_3 H 0.7263 0.8670 0.6163
C11_4 C 0.6167(3) 0.0614(4) 0.2039(3)
C18_4 C 0.5269(4) 0.1492(5) 0.1096(3)
H9_4 H 0.5085 0.2079 0.0868
C21_4 C 0.5895(4) 0.1492(5) 0.1712(3)
H10_4 H 0.6129 0.2079 0.1901
C30_4 C 0.4926(3) 0.0633(5) 0.0829(3)
H14_4 H 0.4503 0.0644 0.0420
C51_4 C 0.6862(3) 0.0616(5) 0.2697(3)
C2_4 C 0.3899(3) 0.5206(4) 0.0217(3)
C6_4 C 0.5188(3) 0.9738(4) 0.1146(3)
C8_4 C 0.5813(3) 0.9748(4) 0.1753(3)
H3_4 H 0.6001 0.9158 0.1975
C10_4 C 0.4799(3) 0.8799(4) 0.0861(3)
H5_2 H 0.3107 0.2078 0.0032
C14_4 C 0.6372(4) 0.4324(5) 0.4214(3)
C15_2 C 0.3475(3) 0.3463(4) 0.0156(3)
H6_2 H 0.3604 0.3485 0.0629
C20_4 C 0.4467(3) 0.5036(4) 0.0924(3)
C22_4 C 0.5059(3) 0.4414(4) 0.1040(3)
H11_4 H 0.5116 0.4121 0.0667
C23_4 C 0.4067(3) 0.7029(4) 0.0304(3)
C24_4 C 0.5512(3) 0.4626(5) 0.2271(3)
C25_4 C 0.6058(4) 0.4410(5) 0.2988(3)
C28_4 C 0.5567(4) 0.4218(4) 0.1696(3)
H12_4 H 0.5960 0.3798 0.1754
C29_4 C 0.4410(4) 0.5462(5) 0.1499(3)
H13_4 H 0.4018 0.5887 0.1438
C38_4 C 0.5862(3) 0.4503(4) 0.3546(3)
H21_4 H 0.5380 0.4689 0.3473
C39_4 C 0.4920(4) 0.5272(5) 0.2158(3)
H22_4 H 0.4871 0.5576 0.2531
C40_4 C 0.5192(3) 0.7966(4) 0.0844(3)
H23_4 H 0.5708 0.7989 0.1022
C43_4 C 0.3671(3) 0.7865(4) 0.0323(3)
H25_4 H 0.3156 0.7843 0.0147
C44_4 C 0.4033(3) 0.8725(4) 0.0600(3)
H26_4 H 0.3756 0.9272 0.0613
C45_4 C 0.4832(3) 0.7095(4) 0.0566(3)
H27_4 H 0.5109 0.6546 0.0556
C46_4 C 0.7075(4) 0.4000(7) 0.4316(4)
H28_4 H 0.7419 0.3863 0.4759
C47_4 C 0.6758(4) 0.4072(7) 0.3107(4)
H29_4 H 0.6892 0.3970 0.2737
C50_4 C 0.6196(4) 0.4499(5) 0.4829(3)
C54_4 C 0.7262(5) 0.3882(9) 0.3766(4)
H32_4 H 0.7737 0.3670 0.3837
C1_4 C 0.1717(3) 0.5968(4) 0.8585(3)
H1_4 H 0.1284 0.5619 0.8508
C3_4 C 0.2987(3) 0.6281(4) 0.9317(3)
C4_4 C 0.3584(3) 0.4280(4) 0.9822(3)
C5_4 C 0.2986(3) 0.2550(4) 0.9094(3)
C7_4 C 0.2798(4) 0.0709(4) 0.9016(3)
H2_4 H 0.3124 0.0664 0.9476
C12_4 C 0.3179(3) 0.2617(4) 0.9797(3)
C13_4 C 0.3663(3) 0.6109(4) 0.9965(3)
C17_4 C 0.3418(3) 0.4198(4) 0.9127(3)
H8_4 H 0.3512 0.4729 0.8897
C19_4 C 0.1714(3) 0.6657(4) 0.8091(3)
C26_4 C 0.1040(4) 0.6861(5) 0.7469(3)
C27_4 C 0.2648(3) 0.1626(4) 0.8702(3)
C31_4 C 0.0440(4) 0.7392(5) 0.6273(3)
C32_4 C 0.3119(3) 0.3356(4) 0.8760(3)
H15_4 H 0.3007 0.3329 0.8290
C33_4 C 0.2169(3) 0.1661(4) 0.8011(3)
H16_4 H 0.2062 0.2265 0.7788
C34_4 C 0.2375(3) 0.7161(4) 0.8233(3)
H17_4 H 0.2404 0.7623 0.7921
C35_4 C 0.2990(3) 0.6980(4) 0.8837(3)
H18_4 H 0.3422 0.7337 0.8924
C37_4 C 0.1080(4) 0.7225(5) 0.6871(3)
H20_4 H 0.1543 0.7361 0.6867
C41_4 C 0.1849(4) 0.0828(4) 0.7647(3)
C42_4 C 0.2328(3) 0.5787(4) 0.9175(3)
H24_4 H 0.2300 0.5324 0.9487
C48_4 C 0.0352(4) 0.6702(6) 0.7455(4)
H30_4 H 0.0310 0.6472 0.7853
C52_4 C 0.0464(4) 0.7794(5) 0.5632(3)
C53_4 C 0.1341(4) 0.0904(5) 0.6913(3)
O6_4 O 0.1055(3) 0.8228(4) 0.5649(2)
O9_4 O 0.0574(5) 0.8256(5) 0.3890(3)
O10_4 O 0.2556(5) 0.8774(6) 0.5500(4)
H33_4 H 0.268325 0.807026 0.560348
H34_4 H 0.301837 0.916143 0.561685
H35_4 H 0.107661 0.816423 0.425914
H36_4 H 0.0604834 0.870369 0.353183
C9_4 C 0.2480(4) 0.9871(4) 0.8669(3)
H4_4 H 0.2585 0.9269 0.8894
C16_4 C 0.2003(4) 0.9922(4) 0.7981(3)
H7_4 H 0.1785 0.9354 0.7743
C36_4 C 0.9757(4) 0.7195(5) 0.6292(4)
H19_4 H 0.9325 0.7288 0.5900
C49_4 C 0.9718(4) 0.6866(6) 0.6884(4)
H31_4 H 0.9258 0.6752 0.6899
O2_4 O 0.9908(3) 0.7718(3) 0.5088(2)
H5_3 H 0.8107 0.2922 0.0032
C15_3 C 0.8475(3) 0.1537(4) 0.0156(3)
H6_3 H 0.8604 0.1515 0.0629
H5_4 H 0.1893 0.7078 0.9968
C15_4 C 0.1525(3) 0.8463(4) 0.9844(3)
H6_4 H 0.1396 0.8485 0.9371
loop_
_geom_bond_atom_site_label_1
_geom_bond_atom_site_label_2
_geom_bond_site_symmetry_1
_geom_bond_site_symmetry_2
C14 C38 1_555 1_555
H11 C22 1_555 1_555
C24 C25 1_555 1_555
C25 C38 1_555 1_555
C28 C22 1_555 1_555
H12 C28 1_555 1_555
C38 H21 1_555 1_555
C46 C14 1_555 1_555
H28 C46 1_555 1_555
C47 C25 1_555 1_555
H29 C47 1_555 1_555
C50 C14 1_555 1_555
C54 C46 1_555 1_555
H32 C54 1_555 1_555
O4 C50 1_555 1_555
O7 C50 1_555 1_555
Cd6 O4 1_555 1_555
C24 C28 1_555 1_555
C47 C54 1_555 1_555
C6 C8 1_555 1_555
C8 H3 1_555 1_555
C11 C8 1_555 1_555
C18 H9 1_555 1_555
C21 C11 1_555 1_555
H10 C21 1_555 1_555
H23 C40 1_555 1_555
C51 C11 1_555 1_555
O3 C51 1_555 1_555
O5 C51 1_555 1_555
Cd4 O3 1_555 1_555
C18 C21 1_555 1_555
O5 Cd4 1_555 1_555
C5 C12 1_555 1_555
C7 H2 1_555 1_555
C9 C7 1_555 1_555
H4 C9 1_555 1_555
C16 C9 1_555 1_555
H7 C16 1_555 1_555
C17 C4 1_555 1_555
H8 C17 1_555 1_555
C27 C5 1_555 1_555
C32 C5 1_555 1_555
H15 C32 1_555 1_555
C33 C27 1_555 1_555
H16 C33 1_555 1_555
C41 C16 1_555 1_555
O1 C53 1_555 1_555
C53 C41 1_555 1_555
O8 C53 1_555 1_555
Cd3 O1 1_555 1_555
Cd7 O1 1_555 1_555
C7 C27 1_555 1_555
C17 C32 1_555 1_555
C33 C41 1_555 1_555
O8 Cd7 1_555 1_555
C20 C2 1_555 1_555
C29 C20 1_555 1_555
H13 C29 1_555 1_555
H14 C30 1_555 1_555
H22 C39 1_555 1_555
C43 C23 1_555 1_555
H25 C43 1_555 1_555
C44 C10 1_555 1_555
H26 C44 1_555 1_555
C45 C23 1_555 1_555
C29 C39 1_555 1_555
C43 C44 1_555 1_555
Cd3 O6 1_555 1_555
Cd2 O2 1_555 1_555
C1 H1 1_555 1_555
C3 C13 1_555 1_555
C19 C1 1_555 1_555
C26 C19 1_555 1_555
C31 C36 1_555 1_555
C34 C19 1_555 1_555
H17 C34 1_555 1_555
C35 C3 1_555 1_555
H18 C35 1_555 1_555
C36 H19 1_555 1_555
C37 C26 1_555 1_555
H20 C37 1_555 1_555
C42 C1 1_555 1_555
H24 C42 1_555 1_555
C48 C26 1_555 1_555
H30 C48 1_555 1_555
C49 C36 1_555 1_555
H31 C49 1_555 1_555
O2 C52 1_555 1_555
C52 C31 1_555 1_555
O6 C52 1_555 1_555
O9 Cd2 1_555 1_555
O10 Cd3 1_555 1_555
O12 Cd2 1_555 1_555
O13 Cd3 1_555 1_555
O14 Cd2 1_555 1_555
O15 Cd2 1_555 1_555
O16 Cd3 1_555 1_555
O17 Cd3 1_555 1_555
O18 Cd2 1_555 1_555
C3 C42 1_555 1_555
C31 C37 1_555 1_555
C34 C35 1_555 1_555
C48 C49 1_555 1_555
O10 H33 1_555 1_555
O10 H34 1_555 1_555
O9 H35 1_555 1_555
O9 H36 1_555 1_555
Cd6 O2_2 1_555 1_555
C36_2 H19_2 1_555 1_555
C49_2 C36_2 1_555 1_555
H31_2 C49_2 1_555 1_555
O12_2 Cd6 1_555 1_555
O18_2 Cd6 1_555 1_555
H4_2 C9_2 1_555 1_555
C16_2 C9_2 1_555 1_555
H7_2 C16_2 1_555 1_555
Cd3_2 O6_2 1_555 1_555
C1_2 H1_2 1_555 1_555
C3_2 C13_2 1_555 1_555
C5_2 C12_2 1_555 1_555
C7_2 H2_2 1_555 1_555
C17_2 C4_2 1_555 1_555
H8_2 C17_2 1_555 1_555
C19_2 C1_2 1_555 1_555
C26_2 C19_2 1_555 1_555
C27_2 C5_2 1_555 1_555
C32_2 C5_2 1_555 1_555
H15_2 C32_2 1_555 1_555
C33_2 C27_2 1_555 1_555
H16_2 C33_2 1_555 1_555
C34_2 C19_2 1_555 1_555
H17_2 C34_2 1_555 1_555
C35_2 C3_2 1_555 1_555
H18_2 C35_2 1_555 1_555
C37_2 C26_2 1_555 1_555
H20_2 C37_2 1_555 1_555
C42_2 C1_2 1_555 1_555
H24_2 C42_2 1_555 1_555
C48_2 C26_2 1_555 1_555
H30_2 C48_2 1_555 1_555
O1_2 C53_2 1_555 1_555
C52_2 C31_2 1_555 1_555
C53_2 C41_2 1_555 1_555
O6_2 C52_2 1_555 1_555
O8_2 C53_2 1_555 1_555
O10_2 Cd3_2 1_555 1_555
Cd8 O1_2 1_555 1_555
O13_2 Cd3_2 1_555 1_555
C3_2 C42_2 1_555 1_555
C7_2 C27_2 1_555 1_555
C17_2 C32_2 1_555 1_555
C31_2 C37_2 1_555 1_555
C33_2 C41_2 1_555 1_555
C34_2 C35_2 1_555 1_555
O8_2 Cd8 1_555 1_555
O10_2 H33_2 1_555 1_555
O10_2 H34_2 1_555 1_555
O9_2 H35_2 1_555 1_555
O9_2 H36_2 1_555 1_555
C6_2 C8_2 1_555 1_555
C8_2 H3_2 1_555 1_555
C10_2 C6_2 1_555 1_555
C14_2 C38_2 1_555 1_555
H6 C15 1_555 1_555
C20_2 C2_2 1_555 1_555
C22_2 C20_2 1_555 1_555
H11_2 C22_2 1_555 1_555
C24_2 C25_2 1_555 1_555
C25_2 C38_2 1_555 1_555
C28_2 C22_2 1_555 1_555
H12_2 C28_2 1_555 1_555
C29_2 C20_2 1_555 1_555
H13_2 C29_2 1_555 1_555
C38_2 H21_2 1_555 1_555
C39_2 C24_2 1_555 1_555
H22_2 C39_2 1_555 1_555
C40_2 C10_2 1_555 1_555
H23_2 C40_2 1_555 1_555
C43_2 C23_2 1_555 1_555
H25_2 C43_2 1_555 1_555
C44_2 C10_2 1_555 1_555
H26_2 C44_2 1_555 1_555
C45_2 C23_2 1_555 1_555
H27_2 C45_2 1_555 1_555
C46_2 C14_2 1_555 1_555
H28_2 C46_2 1_555 1_555
C47_2 C25_2 1_555 1_555
H29_2 C47_2 1_555 1_555
C50_2 C14_2 1_555 1_555
C54_2 C46_2 1_555 1_555
H32_2 C54_2 1_555 1_555
O14 C50_2 1_555 1_555
O7_2 C50_2 1_555 1_555
Cd4 O7_2 1_555 1_555
Cd7 O14 1_555 1_555
C24_2 C28_2 1_555 1_555
C29_2 C39_2 1_555 1_555
C40_2 C45_2 1_555 1_555
C43_2 C44_2 1_555 1_555
C47_2 C54_2 1_555 1_555
C18_2 H9_2 1_555 1_555
C21_2 C11_2 1_555 1_555
H10_2 C21_2 1_555 1_555
H14_2 C30_2 1_555 1_555
C51_2 C11_2 1_555 1_555
O3_2 C51_2 1_555 1_555
Cd5 O3_2 1_555 1_555
C18_2 C21_2 1_555 1_555
C18_2 C30_2 1_555 1_555
Cd4 O6_3 1_555 1_555
Cd7 O2_3 1_555 1_555
C1_3 H1_3 1_555 1_555
C3_3 C13_3 1_555 1_555
C19_3 C1_3 1_555 1_555
C26_3 C19_3 1_555 1_555
C31_3 C36_3 1_555 1_555
C34_3 C19_3 1_555 1_555
H17_3 C34_3 1_555 1_555
C35_3 C3_3 1_555 1_555
H18_3 C35_3 1_555 1_555
C36_3 H19_3 1_555 1_555
C37_3 C26_3 1_555 1_555
H20_3 C37_3 1_555 1_555
C42_3 C1_3 1_555 1_555
H24_3 C42_3 1_555 1_555
C48_3 C26_3 1_555 1_555
H30_3 C48_3 1_555 1_555
C49_3 C36_3 1_555 1_555
H31_3 C49_3 1_555 1_555
O2_3 C52_3 1_555 1_555
C52_3 C31_3 1_555 1_555
O6_3 C52_3 1_555 1_555
O9_3 Cd7 1_555 1_555
O10_3 Cd4 1_555 1_555
O12 Cd4 1_555 1_555
O15 Cd7 1_555 1_555
C3_3 C42_3 1_555 1_555
C31_3 C37_3 1_555 1_555
C34_3 C35_3 1_555 1_555
C48_3 C49_3 1_555 1_555
O10_3 H33_3 1_555 1_555
O10_3 H34_3 1_555 1_555
O9_3 H35_3 1_555 1_555
O9_3 H36_3 1_555 1_555
C20_3 C2_3 1_555 1_555
C29_3 C20_3 1_555 1_555
H13_3 C29_3 1_555 1_555
H14_3 C30_3 1_555 1_555
H22_3 C39_3 1_555 1_555
C43_3 C23_3 1_555 1_555
H25_3 C43_3 1_555 1_555
C44_3 C10_3 1_555 1_555
H26_3 C44_3 1_555 1_555
C45_3 C23_3 1_555 1_555
C29_3 C39_3 1_555 1_555
C43_3 C44_3 1_555 1_555
C5_3 C12_3 1_555 1_555
C7_3 H2_3 1_555 1_555
C9_3 C7_3 1_555 1_555
H4_3 C9_3 1_555 1_555
C16_3 C9_3 1_555 1_555
H7_3 C16_3 1_555 1_555
C17_3 C4_3 1_555 1_555
H8_3 C17_3 1_555 1_555
C27_3 C5_3 1_555 1_555
C32_3 C5_3 1_555 1_555
H15_3 C32_3 1_555 1_555
C33_3 C27_3 1_555 1_555
H16_3 C33_3 1_555 1_555
C41_3 C16_3 1_555 1_555
O12 C53_3 1_555 1_555
C53_3 C41_3 1_555 1_555
O18 C53_3 1_555 1_555
C7_3 C27_3 1_555 1_555
C17_3 C32_3 1_555 1_555
C33_3 C41_3 1_555 1_555
C6_3 C8_3 1_555 1_555
C8_3 H3_3 1_555 1_555
C11_3 C8_3 1_555 1_555
C18_3 H9_3 1_555 1_555
C21_3 C11_3 1_555 1_555
H10_3 C21_3 1_555 1_555
H23_3 C40_3 1_555 1_555
C51_3 C11_3 1_555 1_555
O13 C51_3 1_555 1_555
O16 C51_3 1_555 1_555
C18_3 C21_3 1_555 1_555
C14_3 C38_3 1_555 1_555
H11_3 C22_3 1_555 1_555
C24_3 C25_3 1_555 1_555
C25_3 C38_3 1_555 1_555
C28_3 C22_3 1_555 1_555
H12_3 C28_3 1_555 1_555
C38_3 H21_3 1_555 1_555
C46_3 C14_3 1_555 1_555
H28_3 C46_3 1_555 1_555
C47_3 C25_3 1_555 1_555
H29_3 C47_3 1_555 1_555
C50_3 C14_3 1_555 1_555
C54_3 C46_3 1_555 1_555
H32_3 C54_3 1_555 1_555
O15_2 C50_3 1_555 1_555
O17_2 C50_3 1_555 1_555
Cd8 O15_2 1_555 1_555
C24_3 C28_3 1_555 1_555
C47_3 C54_3 1_555 1_555
C18_4 H9_4 1_555 1_555
C21_4 C11_4 1_555 1_555
H10_4 C21_4 1_555 1_555
H14_4 C30_4 1_555 1_555
C51_4 C11_4 1_555 1_555
O13_2 C51_4 1_555 1_555
C18_4 C21_4 1_555 1_555
C18_4 C30_4 1_555 1_555
C6_4 C8_4 1_555 1_555
C8_4 H3_4 1_555 1_555
C10_4 C6_4 1_555 1_555
C14_4 C38_4 1_555 1_555
H6_2 C15_2 1_555 1_555
C20_4 C2_4 1_555 1_555
C22_4 C20_4 1_555 1_555
H11_4 C22_4 1_555 1_555
C24_4 C25_4 1_555 1_555
C25_4 C38_4 1_555 1_555
C28_4 C22_4 1_555 1_555
H12_4 C28_4 1_555 1_555
C29_4 C20_4 1_555 1_555
H13_4 C29_4 1_555 1_555
C38_4 H21_4 1_555 1_555
C39_4 C24_4 1_555 1_555
H22_4 C39_4 1_555 1_555
C40_4 C10_4 1_555 1_555
H23_4 C40_4 1_555 1_555
C43_4 C23_4 1_555 1_555
H25_4 C43_4 1_555 1_555
C44_4 C10_4 1_555 1_555
H26_4 C44_4 1_555 1_555
C45_4 C23_4 1_555 1_555
H27_4 C45_4 1_555 1_555
C46_4 C14_4 1_555 1_555
H28_4 C46_4 1_555 1_555
C47_4 C25_4 1_555 1_555
H29_4 C47_4 1_555 1_555
C50_4 C14_4 1_555 1_555
C54_4 C46_4 1_555 1_555
H32_4 C54_4 1_555 1_555
O15 C50_4 1_555 1_555
O17 C50_4 1_555 1_555
C24_4 C28_4 1_555 1_555
C29_4 C39_4 1_555 1_555
C40_4 C45_4 1_555 1_555
C43_4 C44_4 1_555 1_555
C47_4 C54_4 1_555 1_555
Cd5 O6_4 1_555 1_555
C1_4 H1_4 1_555 1_555
C3_4 C13_4 1_555 1_555
C5_4 C12_4 1_555 1_555
C7_4 H2_4 1_555 1_555
C17_4 C4_4 1_555 1_555
H8_4 C17_4 1_555 1_555
C19_4 C1_4 1_555 1_555
C26_4 C19_4 1_555 1_555
C27_4 C5_4 1_555 1_555
C32_4 C5_4 1_555 1_555
H15_4 C32_4 1_555 1_555
C33_4 C27_4 1_555 1_555
H16_4 C33_4 1_555 1_555
C34_4 C19_4 1_555 1_555
H17_4 C34_4 1_555 1_555
C35_4 C3_4 1_555 1_555
H18_4 C35_4 1_555 1_555
C37_4 C26_4 1_555 1_555
H20_4 C37_4 1_555 1_555
C42_4 C1_4 1_555 1_555
H24_4 C42_4 1_555 1_555
C48_4 C26_4 1_555 1_555
H30_4 C48_4 1_555 1_555
O12_2 C53_4 1_555 1_555
C52_4 C31_4 1_555 1_555
C53_4 C41_4 1_555 1_555
O6_4 C52_4 1_555 1_555
O18_2 C53_4 1_555 1_555
O10_4 Cd5 1_555 1_555
C3_4 C42_4 1_555 1_555
C7_4 C27_4 1_555 1_555
C17_4 C32_4 1_555 1_555
C31_4 C37_4 1_555 1_555
C33_4 C41_4 1_555 1_555
C34_4 C35_4 1_555 1_555
O10_4 H33_4 1_555 1_555
O10_4 H34_4 1_555 1_555
O9_4 H35_4 1_555 1_555
O9_4 H36_4 1_555 1_555
H4_4 C9_4 1_555 1_555
C16_4 C9_4 1_555 1_555
H7_4 C16_4 1_555 1_555
Cd8 O2_4 1_555 1_555
C36_4 H19_4 1_555 1_555
C49_4 C36_4 1_555 1_555
H31_4 C49_4 1_555 1_555
H6_3 C15_3 1_555 1_555
H6_4 C15_4 1_555 1_555

#END
