
###############################################################################
#
# This file contains modified crystal structure data generated from the
# MOF subset of the Cambridge Structural Database (CSD) v543 
# hosted by the Cambridge Crystallographic Data Centre (CCDC).
#
# This work is licensed under the Creative Commons
# Attribution-NonCommercial-ShareAlike 4.0 International License.
# To view a copy of this license, visit
# http://creativecommons.org/licenses/by-nc-sa/4.0/
# or send a letter to
# Creative Commons, PO Box 1866, Mountain View, CA 94042, USA.
#
# CIF created using the CSD Python API on 29 September 2022
# The structure has been converted into the P1 space group
# The structure has a 3D framework
# The original CSD entry ILUROZ is in the orthorhombic crystal system
# The framework has been calculated to contain at least 10.0% void space
# The void calculation uses a probe of radius 1.32A, grid spacing 0.4
# H atom positions have been added when not included in the experimental data
# Generated hydrogen atom positions removed from atoms on special positions
#
###############################################################################

data_ILUROZ
_chemical_formula_moiety         '(C784 H624 Mg42 N192 O248)n'
_symmetry_cell_setting           triclinic
_symmetry_space_group_name_H-M   'P 1'
_symmetry_Int_Tables_number      1
_space_group_name_Hall           'P 1'
loop_
_symmetry_equiv_pos_site_id
_symmetry_equiv_pos_as_xyz
1 x,y,z
_cell_length_a                   16.9502(11)
_cell_length_b                   47.376(3)
_cell_length_c                   50.434(3)
_cell_angle_alpha                90
_cell_angle_beta                 90
_cell_angle_gamma                90
_cell_volume                     40500.1
loop_
_atom_site_label
_atom_site_type_symbol
_atom_site_fract_x
_atom_site_fract_y
_atom_site_fract_z
O10 O 0.52445(13) 0.51930(4) 0.53698(4)
O11 O 0.05712(15) 0.28626(5) 0.73838(5)
O13 O 0.48771(19) 0.55170(5) 0.56525(5)
O14 O 0.01375(17) 0.32548(5) 0.75841(5)
N7 N 0.40072(18) 0.43865(6) 0.62859(6)
H17 H 0.433625 0.424883 0.627453
N8 N 0.34101(16) 0.40901(5) 0.65713(5)
N9 N 0.22466(19) 0.42213(6) 0.67968(7)
N10 N 0.2898(2) 0.45505(6) 0.65125(8)
N11 N 0.27373(18) 0.37604(6) 0.67996(6)
H18 H 0.311899 0.365532 0.674588
N12 N 0.1806(2) 0.46808(8) 0.67403(9)
H19 H 0.189093 0.484047 0.666439
C26 C 0.4165(2) 0.46144(7) 0.61163(7)
C27 C 0.3911(3) 0.48874(8) 0.61528(8)
H20 H 0.357511 0.492983 0.629303
C28 C 0.4151(3) 0.50978(8) 0.59834(8)
H21 H 0.399438 0.528271 0.601590
C29 C 0.4620(2) 0.50404(7) 0.57662(6)
C30 C 0.4853(2) 0.47633(7) 0.57247(7)
H22 H 0.516008 0.471871 0.557765
C31 C 0.4635(2) 0.45524(7) 0.59002(8)
H23 H 0.480488 0.436819 0.587232
C32 C 0.3420(2) 0.43481(7) 0.64648(7)
C33 C 0.2789(2) 0.40360(6) 0.67212(6)
C34 C 0.2338(2) 0.44732(8) 0.66894(9)
C35 C 0.4908(2) 0.52620(6) 0.55837(7)
C36 C 0.0562(2) 0.31245(7) 0.74208(7)
C37 C 0.1117(2) 0.32994(7) 0.72537(7)
C38 C 0.1139(3) 0.35852(8) 0.72692(10)
H24 H 0.079025 0.367582 0.738317
C39 C 0.1655(3) 0.37463(8) 0.71238(9)
H25 H 0.165438 0.394169 0.714197
C40 C 0.2170(2) 0.36194(7) 0.69523(7)
C41 C 0.2156(3) 0.33316(7) 0.69348(9)
H26 H 0.250269 0.324056 0.682019
C42 C 0.1634(2) 0.31732(8) 0.70855(9)
H27 H 0.163844 0.297747 0.707110
C43 C 0.1127(3) 0.46646(8) 0.69041(11)
C44 C 0.1127(3) 0.45181(10) 0.71407(11)
H28 H 0.157724 0.442269 0.719608
C45 C 0.0451(3) 0.45143(9) 0.72952(10)
H29 H 0.044466 0.441060 0.745178
C48 C 0.0489(3) 0.48223(11) 0.68363(11)
H31 H 0.049162 0.492426 0.667878
Mg5 Mg 0.56989(6) 0.56066(2) 0.53303(2)
Mg6 Mg 0.000000 0.250000 0.750000
Mg7 Mg 0.500000 0.500000 0.500000
O22 O 0.01229(19) 0.30170(5) 0.81525(5)
Mg1 Mg 0.81989(6) 0.43934(2) 0.78303(2)
Mg2 Mg 0.750000 0.500000 0.750000
O1 O 0.22555(13) 0.23070(4) 0.53698(4)
O2 O 0.69288(15) 0.46374(5) 0.73838(5)
O3 O 0.9083(3) 0.45148(9) 0.81125(9)
O4 O 0.26229(19) 0.19830(5) 0.56525(5)
O5 O 0.73625(17) 0.42452(5) 0.75841(5)
O6 O 0.85061(18) 0.30364(6) 0.75500(6)
O7 O 0.89375(14) 0.26467(5) 0.73562(5)
O8 O 0.8528(3) 0.39730(8) 0.79368(7)
N1 N 0.34928(18) 0.31135(6) 0.62859(6)
H1 H 0.316375 0.325117 0.627453
N2 N 0.40899(16) 0.34099(5) 0.65713(5)
N3 N 0.52534(19) 0.32787(6) 0.67968(7)
N4 N 0.4602(2) 0.29495(6) 0.65125(8)
N5 N 0.47627(18) 0.37396(6) 0.67996(6)
H2 H 0.438101 0.384468 0.674588
N6 N 0.5694(2) 0.28192(8) 0.67403(9)
H3 H 0.560907 0.265953 0.666439
C1 C 0.3335(2) 0.28856(7) 0.61163(7)
C2 C 0.3589(3) 0.26126(8) 0.61528(8)
H4 H 0.392489 0.257017 0.629303
C3 C 0.3349(3) 0.24022(8) 0.59834(8)
H5 H 0.350562 0.221729 0.601590
C4 C 0.2880(2) 0.24596(7) 0.57662(6)
C5 C 0.2647(2) 0.27367(7) 0.57247(7)
H6 H 0.233992 0.278129 0.557765
C6 C 0.2865(2) 0.29476(7) 0.59002(8)
H7 H 0.269512 0.313181 0.587232
C7 C 0.4080(2) 0.31519(7) 0.64648(7)
C8 C 0.4711(2) 0.34640(6) 0.67212(6)
C9 C 0.5162(2) 0.30268(8) 0.66894(9)
C10 C 0.2592(2) 0.22380(6) 0.55837(7)
C11 C 0.6938(2) 0.43755(7) 0.74208(7)
C12 C 0.6383(2) 0.42006(7) 0.72537(7)
C13 C 0.6361(3) 0.39148(8) 0.72692(10)
H8 H 0.670975 0.382418 0.738317
C14 C 0.5845(3) 0.37537(8) 0.71238(9)
H9 H 0.584562 0.355831 0.714197
C15 C 0.5330(2) 0.38806(7) 0.69523(7)
C16 C 0.5344(3) 0.41684(7) 0.69348(9)
H10 H 0.499731 0.425944 0.682019
C17 C 0.5866(2) 0.43268(8) 0.70855(9)
H11 H 0.586156 0.452253 0.707110
C18 C 0.875000 0.375000 0.78497(11)
H12 H 0.875002 0.374999 0.766531
C19 C 0.6373(3) 0.28354(8) 0.69041(11)
C20 C 0.6373(3) 0.29819(10) 0.71407(11)
H13 H 0.592276 0.307731 0.719608
C21 C 0.7049(3) 0.29857(9) 0.72952(10)
H14 H 0.705534 0.308940 0.745178
C22 C 0.7719(2) 0.28366(8) 0.72192(9)
C23 C 0.7667(3) 0.26678(10) 0.70000(10)
H15 H 0.807719 0.254466 0.696019
C24 C 0.7011(3) 0.26777(11) 0.68363(11)
H16 H 0.700838 0.257574 0.667878
C25 C 0.8455(2) 0.28412(8) 0.73879(8)
O9 O 0.8972(3) 0.35270(8) 0.79368(7)
Mg3 Mg 0.93011(6) 0.31066(2) 0.78303(2)
O12 O 0.8417(3) 0.29852(9) 0.81125(9)
O15 O 0.89939(18) 0.44636(6) 0.75500(6)
O16 O 0.85625(14) 0.48533(5) 0.73562(5)
C46 C 0.9781(2) 0.46634(8) 0.72192(9)
C47 C 0.9833(3) 0.48322(10) 0.70000(10)
H30 H 0.942281 0.495534 0.696019
C49 C 0.9045(2) 0.46588(8) 0.73879(8)
Mg4 Mg 0.18011(6) 0.18934(2) 0.53303(2)
Mg6_2 Mg 1.000000 0.250000 0.750000
Mg8 Mg 0.250000 0.250000 0.500000
O17 O 0.72555(13) 0.51930(4) 0.71302(4)
O18 O 0.77445(13) 0.48070(4) 0.78698(4)
O19 O 0.97555(13) 0.26930(4) 0.78698(4)
O20 O 0.80712(15) 0.53626(5) 0.76162(5)
O21 O 0.73771(19) 0.44830(5) 0.81525(5)
O23 O 0.64375(14) 0.51467(5) 0.76438(5)
O17_2 O 0.02445(13) 0.23070(4) 0.71302(4)
O23_2 O 0.10625(14) 0.23533(5) 0.76438(5)
O20_2 O 0.94288(15) 0.21374(5) 0.76162(5)
Mg2_2 Mg 0.000000 0.500000 0.000000
O1_2 O 0.52445(13) 0.23070(4) 0.21302(4)
O2_2 O 0.05712(15) 0.46374(5) 0.01162(5)
O4_2 O 0.48771(19) 0.19830(5) 0.18475(5)
N1_2 N 0.40072(18) 0.31135(6) 0.12141(6)
H1_2 H 0.433625 0.325117 0.122547
N2_2 N 0.34101(16) 0.34099(5) 0.09287(5)
N3_2 N 0.22466(19) 0.32787(6) 0.07032(7)
N4_2 N 0.2898(2) 0.29495(6) 0.09875(8)
N5_2 N 0.27373(18) 0.37396(6) 0.07004(6)
H2_2 H 0.311899 0.384468 0.075412
N6_2 N 0.1806(2) 0.28192(8) 0.07597(9)
H3_2 H 0.189093 0.265953 0.083561
C1_2 C 0.4165(2) 0.28856(7) 0.13837(7)
C2_2 C 0.3911(3) 0.26126(8) 0.13472(8)
H4_2 H 0.357511 0.257017 0.120697
C3_2 C 0.4151(3) 0.24022(8) 0.15166(8)
H5_2 H 0.399438 0.221729 0.148410
C4_2 C 0.4620(2) 0.24596(7) 0.17338(6)
C5_2 C 0.4853(2) 0.27367(7) 0.17753(7)
H6_2 H 0.516008 0.278129 0.192235
C6_2 C 0.4635(2) 0.29476(7) 0.15998(8)
H7_2 H 0.480488 0.313181 0.162768
C7_2 C 0.3420(2) 0.31519(7) 0.10352(7)
C8_2 C 0.2789(2) 0.34640(6) 0.07788(6)
C9_2 C 0.2338(2) 0.30268(8) 0.08106(9)
C10_2 C 0.4908(2) 0.22380(6) 0.19163(7)
C11_2 C 0.0562(2) 0.43755(7) 0.00792(7)
C12_2 C 0.1117(2) 0.42006(7) 0.02463(7)
C13_2 C 0.1139(3) 0.39148(8) 0.02308(10)
H8_2 H 0.079025 0.382418 0.011683
C14_2 C 0.1655(3) 0.37537(8) 0.03762(9)
H9_2 H 0.165438 0.355831 0.035803
C15_2 C 0.2170(2) 0.38806(7) 0.05477(7)
C16_2 C 0.2156(3) 0.41684(7) 0.05652(9)
H10_2 H 0.250269 0.425944 0.067981
C17_2 C 0.1634(2) 0.43268(8) 0.04145(9)
H11_2 H 0.163844 0.452253 0.042890
C19_2 C 0.1127(3) 0.28354(8) 0.05959(11)
C20_2 C 0.1127(3) 0.29819(10) 0.03593(11)
H13_2 H 0.157724 0.307731 0.030392
C21_2 C 0.0451(3) 0.29857(9) 0.02048(10)
H14_2 H 0.044466 0.308940 0.004822
C24_2 C 0.0489(3) 0.26777(11) 0.06637(11)
H16_2 H 0.049162 0.257574 0.082122
Mg4_2 Mg 0.56989(6) 0.18934(2) 0.21697(2)
Mg8_2 Mg 0.500000 0.250000 0.250000
O17_3 O 0.02445(13) 0.51930(4) 0.03698(4)
Mg2_3 Mg 0.000000 0.500000 1.000000
O5_2 O 0.01375(17) 0.42452(5) 0.99159(5)
O21_2 O 0.01229(19) 0.44830(5) 0.93475(5)
O23_3 O 0.10625(14) 0.51467(5) 0.98562(5)
Mg2_4 Mg 1.000000 0.500000 0.000000
O7_2 O 0.85625(14) 0.26467(5) 0.01438(5)
C22_2 C 0.9781(2) 0.28366(8) 0.02808(9)
C23_2 C 0.9833(3) 0.26678(10) 0.05000(10)
H15_2 H 0.942281 0.254466 0.053981
C25_2 C 0.9045(2) 0.28412(8) 0.01121(8)
O10_2 O 0.22555(13) 0.51930(4) 0.21302(4)
O11_2 O 0.69288(15) 0.28626(5) 0.01162(5)
O13_2 O 0.26229(19) 0.55170(5) 0.18475(5)
O16_2 O 0.89375(14) 0.48533(5) 0.01438(5)
N7_2 N 0.34928(18) 0.43865(6) 0.12141(6)
H17_2 H 0.316375 0.424883 0.122547
N8_2 N 0.40899(16) 0.40901(5) 0.09287(5)
N9_2 N 0.52534(19) 0.42213(6) 0.07032(7)
N10_2 N 0.4602(2) 0.45505(6) 0.09875(8)
N11_2 N 0.47627(18) 0.37604(6) 0.07004(6)
H18_2 H 0.438101 0.365532 0.075412
N12_2 N 0.5694(2) 0.46808(8) 0.07597(9)
H19_2 H 0.560907 0.484047 0.083561
C26_2 C 0.3335(2) 0.46144(7) 0.13837(7)
C27_2 C 0.3589(3) 0.48874(8) 0.13472(8)
H20_2 H 0.392489 0.492983 0.120697
C28_2 C 0.3349(3) 0.50978(8) 0.15166(8)
H21_2 H 0.350562 0.528271 0.148410
C29_2 C 0.2880(2) 0.50404(7) 0.17338(6)
C30_2 C 0.2647(2) 0.47633(7) 0.17753(7)
H22_2 H 0.233992 0.471871 0.192235
C31_2 C 0.2865(2) 0.45524(7) 0.15998(8)
H23_2 H 0.269512 0.436819 0.162768
C32_2 C 0.4080(2) 0.43481(7) 0.10352(7)
C33_2 C 0.4711(2) 0.40360(6) 0.07788(6)
C34_2 C 0.5162(2) 0.44732(8) 0.08106(9)
C35_2 C 0.2592(2) 0.52620(6) 0.19163(7)
C36_2 C 0.6938(2) 0.31245(7) 0.00792(7)
C37_2 C 0.6383(2) 0.32994(7) 0.02463(7)
C38_2 C 0.6361(3) 0.35852(8) 0.02308(10)
H24_2 H 0.670975 0.367582 0.011683
C39_2 C 0.5845(3) 0.37463(8) 0.03762(9)
H25_2 H 0.584562 0.394169 0.035803
C40_2 C 0.5330(2) 0.36194(7) 0.05477(7)
C41_2 C 0.5344(3) 0.33316(7) 0.05652(9)
H26_2 H 0.499731 0.324056 0.067981
C42_2 C 0.5866(2) 0.31732(8) 0.04145(9)
H27_2 H 0.586156 0.297747 0.042890
C43_2 C 0.6373(3) 0.46646(8) 0.05959(11)
C44_2 C 0.6373(3) 0.45181(10) 0.03593(11)
H28_2 H 0.592276 0.442269 0.030392
C45_2 C 0.7049(3) 0.45143(9) 0.02048(10)
H29_2 H 0.705534 0.441060 0.004822
C46_2 C 0.7719(2) 0.46634(8) 0.02808(9)
C47_2 C 0.7667(3) 0.48322(10) 0.05000(10)
H30_2 H 0.807719 0.495534 0.053981
C48_2 C 0.7011(3) 0.48223(11) 0.06637(11)
H31_2 H 0.700838 0.492426 0.082122
C49_2 C 0.8455(2) 0.46588(8) 0.01121(8)
Mg5_2 Mg 0.18011(6) 0.56066(2) 0.21697(2)
Mg6_3 Mg 0.750000 0.250000 0.000000
Mg7_2 Mg 0.250000 0.500000 0.250000
Mg1_2 Mg 0.93011(6) 0.43934(2) 0.96697(2)
Mg2_5 Mg 1.000000 0.500000 1.000000
O3_2 O 0.8417(3) 0.45148(9) 0.93875(9)
O6_2 O 0.89939(18) 0.30364(6) 0.99500(6)
O8_2 O 0.8972(3) 0.39730(8) 0.95632(7)
C18_2 C 0.875000 0.375000 0.96503(11)
H12_2 H 0.874998 0.374999 0.983469
O9_2 O 0.8528(3) 0.35270(8) 0.95632(7)
Mg3_2 Mg 0.81989(6) 0.31066(2) 0.96697(2)
O12_2 O 0.9083(3) 0.29852(9) 0.93875(9)
O14_2 O 0.73625(17) 0.32548(5) 0.99159(5)
O15_2 O 0.85061(18) 0.44636(6) 0.99500(6)
Mg6_4 Mg 0.750000 0.250000 1.000000
O18_2 O 0.97555(13) 0.48070(4) 0.96302(4)
O19_2 O 0.77445(13) 0.26930(4) 0.96302(4)
O20_3 O 0.94288(15) 0.53626(5) 0.98838(5)
O22_2 O 0.73771(19) 0.30170(5) 0.93475(5)
O17_4 O 0.72555(13) 0.23070(4) 0.03698(4)
O20_4 O 0.80712(15) 0.21374(5) 0.98838(5)
O23_4 O 0.64375(14) 0.23533(5) 0.98562(5)
O10_3 O 0.52445(13) 0.01930(4) 0.03698(4)
O13_3 O 0.48771(19) 0.05170(5) 0.06525(5)
C28_3 C 0.4151(3) 0.00978(8) 0.09834(8)
H21_3 H 0.399438 0.028271 0.101590
C29_3 C 0.4620(2) 0.00404(7) 0.07662(6)
C35_3 C 0.4908(2) 0.02620(6) 0.05837(7)
Mg5_3 Mg 0.56989(6) 0.06066(2) 0.03303(2)
Mg7_3 Mg 0.500000 -0.000000 -0.000000
Mg7_4 Mg 0.500000 -0.000000 1.000000
O11_3 O 0.05712(15) 0.78626(5) 0.23838(5)
O14_3 O 0.01375(17) 0.82548(5) 0.25841(5)
N7_3 N 0.40072(18) 0.93865(6) 0.12859(6)
H17_3 H 0.433625 0.924883 0.127453
N8_3 N 0.34101(16) 0.90901(5) 0.15713(5)
N9_3 N 0.22466(19) 0.92213(6) 0.17968(7)
N10_3 N 0.2898(2) 0.95505(6) 0.15125(8)
N11_3 N 0.27373(18) 0.87604(6) 0.17996(6)
H18_3 H 0.311899 0.865532 0.174588
N12_3 N 0.1806(2) 0.96808(8) 0.17403(9)
H19_3 H 0.189093 0.984047 0.166439
C26_3 C 0.4165(2) 0.96144(7) 0.11163(7)
C27_3 C 0.3911(3) 0.98874(8) 0.11528(8)
H20_3 H 0.357511 0.992983 0.129303
C30_3 C 0.4853(2) 0.97633(7) 0.07247(7)
H22_3 H 0.516008 0.971871 0.057765
C31_3 C 0.4635(2) 0.95524(7) 0.09002(8)
H23_3 H 0.480488 0.936819 0.087232
C32_3 C 0.3420(2) 0.93481(7) 0.14648(7)
C33_3 C 0.2789(2) 0.90360(6) 0.17212(6)
C34_3 C 0.2338(2) 0.94732(8) 0.16894(9)
C36_3 C 0.0562(2) 0.81245(7) 0.24208(7)
C37_3 C 0.1117(2) 0.82994(7) 0.22537(7)
C38_3 C 0.1139(3) 0.85852(8) 0.22692(10)
H24_3 H 0.079025 0.867582 0.238317
C39_3 C 0.1655(3) 0.87463(8) 0.21238(9)
H25_3 H 0.165438 0.894169 0.214197
C40_3 C 0.2170(2) 0.86194(7) 0.19523(7)
C41_3 C 0.2156(3) 0.83316(7) 0.19348(9)
H26_3 H 0.250269 0.824056 0.182019
C42_3 C 0.1634(2) 0.81732(8) 0.20855(9)
H27_3 H 0.163844 0.797747 0.207110
C43_3 C 0.1127(3) 0.96646(8) 0.19041(11)
C44_3 C 0.1127(3) 0.95181(10) 0.21407(11)
H28_3 H 0.157724 0.942269 0.219608
C45_3 C 0.0451(3) 0.95143(9) 0.22952(10)
H29_3 H 0.044466 0.941060 0.245178
C48_3 C 0.0489(3) 0.98223(11) 0.18363(11)
H31_3 H 0.049162 0.992426 0.167878
Mg6_5 Mg 0.000000 0.750000 0.250000
Mg7_5 Mg 0.500000 1.000000 -0.000000
O22_3 O 0.01229(19) 0.80170(5) 0.31525(5)
Mg7_6 Mg 0.500000 1.000000 1.000000
Mg2_6 Mg 0.750000 0.000000 0.250000
O17_5 O 0.72555(13) 0.01930(4) 0.21302(4)
O20_5 O 0.80712(15) 0.03626(5) 0.26162(5)
O23_5 O 0.64375(14) 0.01467(5) 0.26438(5)
Mg1_3 Mg 0.81989(6) 0.93934(2) 0.28303(2)
Mg2_7 Mg 0.750000 1.000000 0.250000
O1_3 O 0.22555(13) 0.73070(4) 0.03698(4)
O2_3 O 0.69288(15) 0.96374(5) 0.23838(5)
O3_3 O 0.9083(3) 0.95148(9) 0.31125(9)
O4_3 O 0.26229(19) 0.69830(5) 0.06525(5)
O5_3 O 0.73625(17) 0.92452(5) 0.25841(5)
O6_3 O 0.85061(18) 0.80364(6) 0.25500(6)
O7_3 O 0.89375(14) 0.76467(5) 0.23562(5)
O8_3 O 0.8528(3) 0.89730(8) 0.29368(7)
N1_3 N 0.34928(18) 0.81135(6) 0.12859(6)
H1_3 H 0.316375 0.825117 0.127453
N2_3 N 0.40899(16) 0.84099(5) 0.15713(5)
N3_3 N 0.52534(19) 0.82787(6) 0.17968(7)
N4_3 N 0.4602(2) 0.79495(6) 0.15125(8)
N5_3 N 0.47627(18) 0.87396(6) 0.17996(6)
H2_3 H 0.438101 0.884468 0.174588
N6_3 N 0.5694(2) 0.78192(8) 0.17403(9)
H3_3 H 0.560907 0.765953 0.166439
C1_3 C 0.3335(2) 0.78856(7) 0.11163(7)
C2_3 C 0.3589(3) 0.76126(8) 0.11528(8)
H4_3 H 0.392489 0.757017 0.129303
C3_3 C 0.3349(3) 0.74022(8) 0.09834(8)
H5_3 H 0.350562 0.721729 0.101590
C4_3 C 0.2880(2) 0.74596(7) 0.07662(6)
C5_3 C 0.2647(2) 0.77367(7) 0.07247(7)
H6_3 H 0.233992 0.778129 0.057765
C6_3 C 0.2865(2) 0.79476(7) 0.09002(8)
H7_3 H 0.269512 0.813181 0.087232
C7_3 C 0.4080(2) 0.81519(7) 0.14648(7)
C8_3 C 0.4711(2) 0.84640(6) 0.17212(6)
C9_3 C 0.5162(2) 0.80268(8) 0.16894(9)
C10_3 C 0.2592(2) 0.72380(6) 0.05837(7)
C11_3 C 0.6938(2) 0.93755(7) 0.24208(7)
C12_3 C 0.6383(2) 0.92006(7) 0.22537(7)
C13_3 C 0.6361(3) 0.89148(8) 0.22692(10)
H8_3 H 0.670975 0.882418 0.238317
C14_3 C 0.5845(3) 0.87537(8) 0.21238(9)
H9_3 H 0.584562 0.855831 0.214197
C15_3 C 0.5330(2) 0.88806(7) 0.19523(7)
C16_3 C 0.5344(3) 0.91684(7) 0.19348(9)
H10_3 H 0.499731 0.925944 0.182019
C17_3 C 0.5866(2) 0.93268(8) 0.20855(9)
H11_3 H 0.586156 0.952253 0.207110
C18_3 C 0.875000 0.875000 0.28497(11)
H12_3 H 0.875002 0.874999 0.266531
C19_3 C 0.6373(3) 0.78354(8) 0.19041(11)
C20_3 C 0.6373(3) 0.79819(10) 0.21407(11)
H13_3 H 0.592276 0.807731 0.219608
C21_3 C 0.7049(3) 0.79857(9) 0.22952(10)
H14_3 H 0.705534 0.808940 0.245178
C22_3 C 0.7719(2) 0.78366(8) 0.22192(9)
C23_3 C 0.7667(3) 0.76678(10) 0.20000(10)
H15_3 H 0.807719 0.754466 0.196019
C24_3 C 0.7011(3) 0.76777(11) 0.18363(11)
H16_3 H 0.700838 0.757574 0.167878
C25_3 C 0.8455(2) 0.78412(8) 0.23879(8)
O9_3 O 0.8972(3) 0.85270(8) 0.29368(7)
Mg3_3 Mg 0.93011(6) 0.81066(2) 0.28303(2)
O12_3 O 0.8417(3) 0.79852(9) 0.31125(9)
O15_3 O 0.89939(18) 0.94636(6) 0.25500(6)
O16_3 O 0.85625(14) 0.98533(5) 0.23562(5)
C46_3 C 0.9781(2) 0.96634(8) 0.22192(9)
C47_3 C 0.9833(3) 0.98322(10) 0.20000(10)
H30_3 H 0.942281 0.995534 0.196019
C49_3 C 0.9045(2) 0.96588(8) 0.23879(8)
Mg4_3 Mg 0.18011(6) 0.68934(2) 0.03303(2)
Mg6_6 Mg 1.000000 0.750000 0.250000
Mg8_3 Mg 0.250000 0.750000 -0.000000
O18_3 O 0.77445(13) 0.98070(4) 0.28698(4)
O19_3 O 0.97555(13) 0.76930(4) 0.28698(4)
O21_3 O 0.73771(19) 0.94830(5) 0.31525(5)
Mg8_4 Mg 0.250000 0.750000 1.000000
O17_6 O 0.02445(13) 0.73070(4) 0.21302(4)
O23_6 O 0.10625(14) 0.73533(5) 0.26438(5)
O20_6 O 0.94288(15) 0.71374(5) 0.26162(5)
Mg2_8 Mg 0.000000 0.000000 0.500000
O17_7 O 0.02445(13) 0.01930(4) 0.53698(4)
O23_7 O 0.10625(14) 0.01467(5) 0.48562(5)
Mg2_9 Mg 0.000000 1.000000 0.500000
O1_4 O 0.52445(13) 0.73070(4) 0.71302(4)
O2_4 O 0.05712(15) 0.96374(5) 0.51162(5)
O4_4 O 0.48771(19) 0.69830(5) 0.68475(5)
O5_4 O 0.01375(17) 0.92452(5) 0.49159(5)
N1_4 N 0.40072(18) 0.81135(6) 0.62141(6)
H1_4 H 0.433625 0.825117 0.622547
N2_4 N 0.34101(16) 0.84099(5) 0.59287(5)
N3_4 N 0.22466(19) 0.82787(6) 0.57032(7)
N4_4 N 0.2898(2) 0.79495(6) 0.59875(8)
N5_4 N 0.27373(18) 0.87396(6) 0.57004(6)
H2_4 H 0.311899 0.884468 0.575412
N6_4 N 0.1806(2) 0.78192(8) 0.57597(9)
H3_4 H 0.189093 0.765953 0.583561
C1_4 C 0.4165(2) 0.78856(7) 0.63837(7)
C2_4 C 0.3911(3) 0.76126(8) 0.63472(8)
H4_4 H 0.357511 0.757017 0.620697
C3_4 C 0.4151(3) 0.74022(8) 0.65166(8)
H5_4 H 0.399438 0.721729 0.648410
C4_4 C 0.4620(2) 0.74596(7) 0.67338(6)
C5_4 C 0.4853(2) 0.77367(7) 0.67753(7)
H6_4 H 0.516008 0.778129 0.692235
C6_4 C 0.4635(2) 0.79476(7) 0.65998(8)
H7_4 H 0.480488 0.813181 0.662768
C7_4 C 0.3420(2) 0.81519(7) 0.60352(7)
C8_4 C 0.2789(2) 0.84640(6) 0.57788(6)
C9_4 C 0.2338(2) 0.80268(8) 0.58106(9)
C10_4 C 0.4908(2) 0.72380(6) 0.69163(7)
C11_4 C 0.0562(2) 0.93755(7) 0.50792(7)
C12_4 C 0.1117(2) 0.92006(7) 0.52463(7)
C13_4 C 0.1139(3) 0.89148(8) 0.52308(10)
H8_4 H 0.079025 0.882418 0.511683
C14_4 C 0.1655(3) 0.87537(8) 0.53762(9)
H9_4 H 0.165438 0.855831 0.535803
C15_4 C 0.2170(2) 0.88806(7) 0.55477(7)
C16_4 C 0.2156(3) 0.91684(7) 0.55652(9)
H10_4 H 0.250269 0.925944 0.567981
C17_4 C 0.1634(2) 0.93268(8) 0.54145(9)
H11_4 H 0.163844 0.952253 0.542890
C19_4 C 0.1127(3) 0.78354(8) 0.55959(11)
C20_4 C 0.1127(3) 0.79819(10) 0.53593(11)
H13_4 H 0.157724 0.807731 0.530392
C21_4 C 0.0451(3) 0.79857(9) 0.52048(10)
H14_4 H 0.044466 0.808940 0.504822
C24_4 C 0.0489(3) 0.76777(11) 0.56637(11)
H16_4 H 0.049162 0.757574 0.582122
Mg4_4 Mg 0.56989(6) 0.68934(2) 0.71697(2)
Mg8_5 Mg 0.500000 0.750000 0.750000
O21_4 O 0.01229(19) 0.94830(5) 0.43475(5)
Mg2_10 Mg 1.000000 0.000000 0.500000
O10_4 O 0.22555(13) 0.01930(4) 0.71302(4)
O13_4 O 0.26229(19) 0.05170(5) 0.68475(5)
C28_4 C 0.3349(3) 0.00978(8) 0.65166(8)
H21_4 H 0.350562 0.028271 0.648410
C29_4 C 0.2880(2) 0.00404(7) 0.67338(6)
C35_4 C 0.2592(2) 0.02620(6) 0.69163(7)
Mg5_4 Mg 0.18011(6) 0.06066(2) 0.71697(2)
Mg7_7 Mg 0.250000 -0.000000 0.750000
O20_7 O 0.94288(15) 0.03626(5) 0.48838(5)
Mg1_4 Mg 0.93011(6) 0.93934(2) 0.46697(2)
Mg2_11 Mg 1.000000 1.000000 0.500000
O3_4 O 0.8417(3) 0.95148(9) 0.43875(9)
O6_4 O 0.89939(18) 0.80364(6) 0.49500(6)
O7_4 O 0.85625(14) 0.76467(5) 0.51438(5)
O8_4 O 0.8972(3) 0.89730(8) 0.45632(7)
C18_4 C 0.875000 0.875000 0.46503(11)
H12_4 H 0.874998 0.874999 0.483469
C22_4 C 0.9781(2) 0.78366(8) 0.52808(9)
C23_4 C 0.9833(3) 0.76678(10) 0.55000(10)
H15_4 H 0.942281 0.754466 0.553981
C25_4 C 0.9045(2) 0.78412(8) 0.51121(8)
O9_4 O 0.8528(3) 0.85270(8) 0.45632(7)
Mg3_4 Mg 0.81989(6) 0.81066(2) 0.46697(2)
O11_4 O 0.69288(15) 0.78626(5) 0.51162(5)
O12_4 O 0.9083(3) 0.79852(9) 0.43875(9)
O14_4 O 0.73625(17) 0.82548(5) 0.49159(5)
O15_4 O 0.85061(18) 0.94636(6) 0.49500(6)
O16_4 O 0.89375(14) 0.98533(5) 0.51438(5)
N7_4 N 0.34928(18) 0.93865(6) 0.62141(6)
H17_4 H 0.316375 0.924883 0.622547
N8_4 N 0.40899(16) 0.90901(5) 0.59287(5)
N9_4 N 0.52534(19) 0.92213(6) 0.57032(7)
N10_4 N 0.4602(2) 0.95505(6) 0.59875(8)
N11_4 N 0.47627(18) 0.87604(6) 0.57004(6)
H18_4 H 0.438101 0.865532 0.575412
N12_4 N 0.5694(2) 0.96808(8) 0.57597(9)
H19_4 H 0.560907 0.984047 0.583561
C26_4 C 0.3335(2) 0.96144(7) 0.63837(7)
C27_4 C 0.3589(3) 0.98874(8) 0.63472(8)
H20_4 H 0.392489 0.992983 0.620697
C30_4 C 0.2647(2) 0.97633(7) 0.67753(7)
H22_4 H 0.233992 0.971871 0.692235
C31_4 C 0.2865(2) 0.95524(7) 0.65998(8)
H23_4 H 0.269512 0.936819 0.662768
C32_4 C 0.4080(2) 0.93481(7) 0.60352(7)
C33_4 C 0.4711(2) 0.90360(6) 0.57788(6)
C34_4 C 0.5162(2) 0.94732(8) 0.58106(9)
C36_4 C 0.6938(2) 0.81245(7) 0.50792(7)
C37_4 C 0.6383(2) 0.82994(7) 0.52463(7)
C38_4 C 0.6361(3) 0.85852(8) 0.52308(10)
H24_4 H 0.670975 0.867582 0.511683
C39_4 C 0.5845(3) 0.87463(8) 0.53762(9)
H25_4 H 0.584562 0.894169 0.535803
C40_4 C 0.5330(2) 0.86194(7) 0.55477(7)
C41_4 C 0.5344(3) 0.83316(7) 0.55652(9)
H26_4 H 0.499731 0.824056 0.567981
C42_4 C 0.5866(2) 0.81732(8) 0.54145(9)
H27_4 H 0.586156 0.797747 0.542890
C43_4 C 0.6373(3) 0.96646(8) 0.55959(11)
C44_4 C 0.6373(3) 0.95181(10) 0.53593(11)
H28_4 H 0.592276 0.942269 0.530392
C45_4 C 0.7049(3) 0.95143(9) 0.52048(10)
H29_4 H 0.705534 0.941060 0.504822
C46_4 C 0.7719(2) 0.96634(8) 0.52808(9)
C47_4 C 0.7667(3) 0.98322(10) 0.55000(10)
H30_4 H 0.807719 0.995534 0.553981
C48_4 C 0.7011(3) 0.98223(11) 0.56637(11)
H31_4 H 0.700838 0.992426 0.582122
C49_4 C 0.8455(2) 0.96588(8) 0.51121(8)
Mg6_7 Mg 0.750000 0.750000 0.500000
Mg7_8 Mg 0.250000 1.000000 0.750000
O18_4 O 0.97555(13) 0.98070(4) 0.46302(4)
O19_4 O 0.77445(13) 0.76930(4) 0.46302(4)
O22_4 O 0.73771(19) 0.80170(5) 0.43475(5)
O17_8 O 0.72555(13) 0.73070(4) 0.53698(4)
O20_8 O 0.80712(15) 0.71374(5) 0.48838(5)
O23_8 O 0.64375(14) 0.73533(5) 0.48562(5)
H22_5 H 0.016008 0.471871 0.057765
Mg5_5 Mg 0.06989(6) 0.56066(2) 0.03303(2)
Mg1_5 Mg 0.31989(6) 0.43934(2) 0.28303(2)
O2_5 O 0.19288(15) 0.46374(5) 0.23838(5)
O3_5 O 0.4083(3) 0.45148(9) 0.31125(9)
O5_5 O 0.23625(17) 0.42452(5) 0.25841(5)
O6_5 O 0.35061(18) 0.30364(6) 0.25500(6)
O7_5 O 0.39375(14) 0.26467(5) 0.23562(5)
O8_5 O 0.3528(3) 0.39730(8) 0.29368(7)
N3_5 N 0.02534(19) 0.32787(6) 0.17968(7)
N6_5 N 0.0694(2) 0.28192(8) 0.17403(9)
H3_5 H 0.060907 0.265953 0.166439
C9_5 C 0.0162(2) 0.30268(8) 0.16894(9)
C11_5 C 0.1938(2) 0.43755(7) 0.24208(7)
C12_5 C 0.1383(2) 0.42006(7) 0.22537(7)
C13_5 C 0.1361(3) 0.39148(8) 0.22692(10)
H8_5 H 0.170975 0.382418 0.238317
C14_5 C 0.0845(3) 0.37537(8) 0.21238(9)
H9_5 H 0.084562 0.355831 0.214197
C15_5 C 0.0330(2) 0.38806(7) 0.19523(7)
C16_5 C 0.0344(3) 0.41684(7) 0.19348(9)
C17_5 C 0.0866(2) 0.43268(8) 0.20855(9)
H11_5 H 0.086156 0.452253 0.207110
C18_5 C 0.375000 0.375000 0.28497(11)
H12_5 H 0.375002 0.374999 0.266531
C19_5 C 0.1373(3) 0.28354(8) 0.19041(11)
C20_5 C 0.1373(3) 0.29819(10) 0.21407(11)
H13_5 H 0.092276 0.307731 0.219608
C21_5 C 0.2049(3) 0.29857(9) 0.22952(10)
H14_5 H 0.205534 0.308940 0.245178
C22_5 C 0.2719(2) 0.28366(8) 0.22192(9)
C23_5 C 0.2667(3) 0.26678(10) 0.20000(10)
H15_5 H 0.307719 0.254466 0.196019
C24_5 C 0.2011(3) 0.26777(11) 0.18363(11)
H16_5 H 0.200838 0.257574 0.167878
C25_5 C 0.3455(2) 0.28412(8) 0.23879(8)
O9_5 O 0.3972(3) 0.35270(8) 0.29368(7)
Mg3_5 Mg 0.43011(6) 0.31066(2) 0.28303(2)
O11_5 O 0.55712(15) 0.28626(5) 0.23838(5)
O12_5 O 0.3417(3) 0.29852(9) 0.31125(9)
O13_5 O 0.98771(19) 0.55170(5) 0.06525(5)
O14_5 O 0.51375(17) 0.32548(5) 0.25841(5)
O15_5 O 0.39939(18) 0.44636(6) 0.25500(6)
O16_5 O 0.35625(14) 0.48533(5) 0.23562(5)
N7_5 N 0.90072(18) 0.43865(6) 0.12859(6)
H17_5 H 0.933625 0.424883 0.127453
N8_5 N 0.84101(16) 0.40901(5) 0.15713(5)
N9_5 N 0.72466(19) 0.42213(6) 0.17968(7)
N10_5 N 0.7898(2) 0.45505(6) 0.15125(8)
N11_5 N 0.77373(18) 0.37604(6) 0.17996(6)
H18_5 H 0.811899 0.365532 0.174588
N12_5 N 0.6806(2) 0.46808(8) 0.17403(9)
H19_5 H 0.689093 0.484047 0.166439
C26_5 C 0.9165(2) 0.46144(7) 0.11163(7)
C27_5 C 0.8911(3) 0.48874(8) 0.11528(8)
H20_5 H 0.857511 0.492983 0.129303
C28_5 C 0.9151(3) 0.50978(8) 0.09834(8)
H21_5 H 0.899438 0.528271 0.101590
C29_5 C 0.9620(2) 0.50404(7) 0.07662(6)
C30_5 C 0.9853(2) 0.47633(7) 0.07247(7)
C31_5 C 0.9635(2) 0.45524(7) 0.09002(8)
H23_5 H 0.980488 0.436819 0.087232
C32_5 C 0.8420(2) 0.43481(7) 0.14648(7)
C33_5 C 0.7789(2) 0.40360(6) 0.17212(6)
C34_5 C 0.7338(2) 0.44732(8) 0.16894(9)
C35_5 C 0.9908(2) 0.52620(6) 0.05837(7)
C36_5 C 0.5562(2) 0.31245(7) 0.24208(7)
C37_5 C 0.6117(2) 0.32994(7) 0.22537(7)
C38_5 C 0.6139(3) 0.35852(8) 0.22692(10)
H24_5 H 0.579025 0.367582 0.238317
C39_5 C 0.6655(3) 0.37463(8) 0.21238(9)
H25_5 H 0.665438 0.394169 0.214197
C40_5 C 0.7170(2) 0.36194(7) 0.19523(7)
C41_5 C 0.7156(3) 0.33316(7) 0.19348(9)
H26_5 H 0.750269 0.324056 0.182019
C42_5 C 0.6634(2) 0.31732(8) 0.20855(9)
H27_5 H 0.663844 0.297747 0.207110
C43_5 C 0.6127(3) 0.46646(8) 0.19041(11)
C44_5 C 0.6127(3) 0.45181(10) 0.21407(11)
H28_5 H 0.657724 0.442269 0.219608
C45_5 C 0.5451(3) 0.45143(9) 0.22952(10)
H29_5 H 0.544466 0.441060 0.245178
C46_5 C 0.4781(2) 0.46634(8) 0.22192(9)
C47_5 C 0.4833(3) 0.48322(10) 0.20000(10)
H30_5 H 0.442281 0.495534 0.196019
C48_5 C 0.5489(3) 0.48223(11) 0.18363(11)
H31_5 H 0.549162 0.492426 0.167878
C49_5 C 0.4045(2) 0.46588(8) 0.23879(8)
O18_5 O 0.27445(13) 0.48070(4) 0.28698(4)
O19_5 O 0.47555(13) 0.26930(4) 0.28698(4)
O20_9 O 0.30712(15) 0.53626(5) 0.26162(5)
O21_5 O 0.23771(19) 0.44830(5) 0.31525(5)
O22_5 O 0.51229(19) 0.30170(5) 0.31525(5)
O23_9 O 0.14375(14) 0.51467(5) 0.26438(5)
O4_5 O 0.76229(19) 0.19830(5) 0.06525(5)
N1_5 N 0.84928(18) 0.31135(6) 0.12859(6)
H1_5 H 0.816375 0.325117 0.127453
N2_5 N 0.90899(16) 0.34099(5) 0.15713(5)
N4_5 N 0.9602(2) 0.29495(6) 0.15125(8)
N5_5 N 0.97627(18) 0.37396(6) 0.17996(6)
H2_5 H 0.938101 0.384468 0.174588
C1_5 C 0.8335(2) 0.28856(7) 0.11163(7)
C2_5 C 0.8589(3) 0.26126(8) 0.11528(8)
H4_5 H 0.892489 0.257017 0.129303
C3_5 C 0.8349(3) 0.24022(8) 0.09834(8)
H5_5 H 0.850562 0.221729 0.101590
C4_5 C 0.7880(2) 0.24596(7) 0.07662(6)
C5_5 C 0.7647(2) 0.27367(7) 0.07247(7)
H6_5 H 0.733992 0.278129 0.057765
C6_5 C 0.7865(2) 0.29476(7) 0.09002(8)
H7_5 H 0.769512 0.313181 0.087232
C7_5 C 0.9080(2) 0.31519(7) 0.14648(7)
C8_5 C 0.9711(2) 0.34640(6) 0.17212(6)
C10_5 C 0.7592(2) 0.22380(6) 0.05837(7)
H10_5 H 0.999731 0.425944 0.182019
Mg4_5 Mg 0.68011(6) 0.18934(2) 0.03303(2)
O20_10 O 0.44288(15) 0.21374(5) 0.26162(5)
O23_10 O 0.60625(14) 0.23533(5) 0.26438(5)
H6_6 H 0.016008 0.278129 0.692235
Mg4_6 Mg 0.06989(6) 0.18934(2) 0.71697(2)
Mg1_6 Mg 0.43011(6) 0.43934(2) 0.46697(2)
O2_6 O 0.55712(15) 0.46374(5) 0.51162(5)
O3_6 O 0.3417(3) 0.45148(9) 0.43875(9)
O4_6 O 0.98771(19) 0.19830(5) 0.68475(5)
O5_6 O 0.51375(17) 0.42452(5) 0.49159(5)
O6_6 O 0.39939(18) 0.30364(6) 0.49500(6)
O7_6 O 0.35625(14) 0.26467(5) 0.51438(5)
O8_6 O 0.3972(3) 0.39730(8) 0.45632(7)
N1_6 N 0.90072(18) 0.31135(6) 0.62141(6)
H1_6 H 0.933625 0.325117 0.622547
N2_6 N 0.84101(16) 0.34099(5) 0.59287(5)
N3_6 N 0.72466(19) 0.32787(6) 0.57032(7)
N4_6 N 0.7898(2) 0.29495(6) 0.59875(8)
N5_6 N 0.77373(18) 0.37396(6) 0.57004(6)
H2_6 H 0.811899 0.384468 0.575412
N6_6 N 0.6806(2) 0.28192(8) 0.57597(9)
H3_6 H 0.689093 0.265953 0.583561
C1_6 C 0.9165(2) 0.28856(7) 0.63837(7)
C2_6 C 0.8911(3) 0.26126(8) 0.63472(8)
H4_6 H 0.857511 0.257017 0.620697
C3_6 C 0.9151(3) 0.24022(8) 0.65166(8)
H5_6 H 0.899438 0.221729 0.648410
C4_6 C 0.9620(2) 0.24596(7) 0.67338(6)
C5_6 C 0.9853(2) 0.27367(7) 0.67753(7)
C6_6 C 0.9635(2) 0.29476(7) 0.65998(8)
H7_6 H 0.980488 0.313181 0.662768
C7_6 C 0.8420(2) 0.31519(7) 0.60352(7)
C8_6 C 0.7789(2) 0.34640(6) 0.57788(6)
C9_6 C 0.7338(2) 0.30268(8) 0.58106(9)
C10_6 C 0.9908(2) 0.22380(6) 0.69163(7)
C11_6 C 0.5562(2) 0.43755(7) 0.50792(7)
C12_6 C 0.6117(2) 0.42006(7) 0.52463(7)
C13_6 C 0.6139(3) 0.39148(8) 0.52308(10)
H8_6 H 0.579025 0.382418 0.511683
C14_6 C 0.6655(3) 0.37537(8) 0.53762(9)
H9_6 H 0.665438 0.355831 0.535803
C15_6 C 0.7170(2) 0.38806(7) 0.55477(7)
C16_6 C 0.7156(3) 0.41684(7) 0.55652(9)
H10_6 H 0.750269 0.425944 0.567981
C17_6 C 0.6634(2) 0.43268(8) 0.54145(9)
H11_6 H 0.663844 0.452253 0.542890
C18_6 C 0.375000 0.375000 0.46503(11)
H12_6 H 0.374998 0.374999 0.483469
C19_6 C 0.6127(3) 0.28354(8) 0.55959(11)
C20_6 C 0.6127(3) 0.29819(10) 0.53593(11)
H13_6 H 0.657724 0.307731 0.530392
C21_6 C 0.5451(3) 0.29857(9) 0.52048(10)
H14_6 H 0.544466 0.308940 0.504822
C22_6 C 0.4781(2) 0.28366(8) 0.52808(9)
C23_6 C 0.4833(3) 0.26678(10) 0.55000(10)
H15_6 H 0.442281 0.254466 0.553981
C24_6 C 0.5489(3) 0.26777(11) 0.56637(11)
H16_6 H 0.549162 0.257574 0.582122
C25_6 C 0.4045(2) 0.28412(8) 0.51121(8)
O9_6 O 0.3528(3) 0.35270(8) 0.45632(7)
Mg3_6 Mg 0.31989(6) 0.31066(2) 0.46697(2)
O11_6 O 0.19288(15) 0.28626(5) 0.51162(5)
O12_6 O 0.4083(3) 0.29852(9) 0.43875(9)
O14_6 O 0.23625(17) 0.32548(5) 0.49159(5)
O15_6 O 0.35061(18) 0.44636(6) 0.49500(6)
O16_6 O 0.39375(14) 0.48533(5) 0.51438(5)
N9_6 N 0.02534(19) 0.42213(6) 0.57032(7)
N12_6 N 0.0694(2) 0.46808(8) 0.57597(9)
H19_6 H 0.060907 0.484047 0.583561
C34_6 C 0.0162(2) 0.44732(8) 0.58106(9)
C36_6 C 0.1938(2) 0.31245(7) 0.50792(7)
C37_6 C 0.1383(2) 0.32994(7) 0.52463(7)
C38_6 C 0.1361(3) 0.35852(8) 0.52308(10)
H24_6 H 0.170975 0.367582 0.511683
C39_6 C 0.0845(3) 0.37463(8) 0.53762(9)
H25_6 H 0.084562 0.394169 0.535803
C40_6 C 0.0330(2) 0.36194(7) 0.55477(7)
C41_6 C 0.0344(3) 0.33316(7) 0.55652(9)
C42_6 C 0.0866(2) 0.31732(8) 0.54145(9)
H27_6 H 0.086156 0.297747 0.542890
C43_6 C 0.1373(3) 0.46646(8) 0.55959(11)
C44_6 C 0.1373(3) 0.45181(10) 0.53593(11)
H28_6 H 0.092276 0.442269 0.530392
C45_6 C 0.2049(3) 0.45143(9) 0.52048(10)
H29_6 H 0.205534 0.441060 0.504822
C46_6 C 0.2719(2) 0.46634(8) 0.52808(9)
C47_6 C 0.2667(3) 0.48322(10) 0.55000(10)
H30_6 H 0.307719 0.495534 0.553981
C48_6 C 0.2011(3) 0.48223(11) 0.56637(11)
H31_6 H 0.200838 0.492426 0.582122
C49_6 C 0.3455(2) 0.46588(8) 0.51121(8)
O18_6 O 0.47555(13) 0.48070(4) 0.46302(4)
O19_6 O 0.27445(13) 0.26930(4) 0.46302(4)
O20_11 O 0.44288(15) 0.53626(5) 0.48838(5)
O21_6 O 0.51229(19) 0.44830(5) 0.43475(5)
O22_6 O 0.23771(19) 0.30170(5) 0.43475(5)
O23_11 O 0.60625(14) 0.51467(5) 0.48562(5)
O13_6 O 0.76229(19) 0.55170(5) 0.68475(5)
N7_6 N 0.84928(18) 0.43865(6) 0.62141(6)
H17_6 H 0.816375 0.424883 0.622547
N8_6 N 0.90899(16) 0.40901(5) 0.59287(5)
N10_6 N 0.9602(2) 0.45505(6) 0.59875(8)
N11_6 N 0.97627(18) 0.37604(6) 0.57004(6)
H18_6 H 0.938101 0.365532 0.575412
C26_6 C 0.8335(2) 0.46144(7) 0.63837(7)
C27_6 C 0.8589(3) 0.48874(8) 0.63472(8)
H20_6 H 0.892489 0.492983 0.620697
C28_6 C 0.8349(3) 0.50978(8) 0.65166(8)
H21_6 H 0.850562 0.528271 0.648410
C29_6 C 0.7880(2) 0.50404(7) 0.67338(6)
C30_6 C 0.7647(2) 0.47633(7) 0.67753(7)
H22_6 H 0.733992 0.471871 0.692235
C31_6 C 0.7865(2) 0.45524(7) 0.65998(8)
H23_6 H 0.769512 0.436819 0.662768
C32_6 C 0.9080(2) 0.43481(7) 0.60352(7)
C33_6 C 0.9711(2) 0.40360(6) 0.57788(6)
C35_6 C 0.7592(2) 0.52620(6) 0.69163(7)
H26_6 H 0.999731 0.324056 0.567981
Mg5_6 Mg 0.68011(6) 0.56066(2) 0.71697(2)
O20_12 O 0.30712(15) 0.21374(5) 0.48838(5)
O23_12 O 0.14375(14) 0.23533(5) 0.48562(5)
Mg5_7 Mg 0.06989(6) 0.06066(2) 0.53303(2)
H22_7 H 0.016008 0.971871 0.557765
O13_7 O 0.98771(19) 0.05170(5) 0.56525(5)
C28_7 C 0.9151(3) 0.00978(8) 0.59834(8)
H21_7 H 0.899438 0.028271 0.601590
C29_7 C 0.9620(2) 0.00404(7) 0.57662(6)
C35_7 C 0.9908(2) 0.02620(6) 0.55837(7)
O20_13 O 0.30712(15) 0.03626(5) 0.76162(5)
O23_13 O 0.14375(14) 0.01467(5) 0.76438(5)
Mg1_7 Mg 0.31989(6) 0.93934(2) 0.78303(2)
O2_7 O 0.19288(15) 0.96374(5) 0.73838(5)
O3_7 O 0.4083(3) 0.95148(9) 0.81125(9)
O5_7 O 0.23625(17) 0.92452(5) 0.75841(5)
O6_7 O 0.35061(18) 0.80364(6) 0.75500(6)
O7_7 O 0.39375(14) 0.76467(5) 0.73562(5)
O8_7 O 0.3528(3) 0.89730(8) 0.79368(7)
N3_7 N 0.02534(19) 0.82787(6) 0.67968(7)
N6_7 N 0.0694(2) 0.78192(8) 0.67403(9)
H3_7 H 0.060907 0.765953 0.666439
C9_7 C 0.0162(2) 0.80268(8) 0.66894(9)
C11_7 C 0.1938(2) 0.93755(7) 0.74208(7)
C12_7 C 0.1383(2) 0.92006(7) 0.72537(7)
C13_7 C 0.1361(3) 0.89148(8) 0.72692(10)
H8_7 H 0.170975 0.882418 0.738317
C14_7 C 0.0845(3) 0.87537(8) 0.71238(9)
H9_7 H 0.084562 0.855831 0.714197
C15_7 C 0.0330(2) 0.88806(7) 0.69523(7)
C16_7 C 0.0344(3) 0.91684(7) 0.69348(9)
C17_7 C 0.0866(2) 0.93268(8) 0.70855(9)
H11_7 H 0.086156 0.952253 0.707110
C18_7 C 0.375000 0.875000 0.78497(11)
H12_7 H 0.375002 0.874999 0.766531
C19_7 C 0.1373(3) 0.78354(8) 0.69041(11)
C20_7 C 0.1373(3) 0.79819(10) 0.71407(11)
H13_7 H 0.092276 0.807731 0.719608
C21_7 C 0.2049(3) 0.79857(9) 0.72952(10)
H14_7 H 0.205534 0.808940 0.745178
C22_7 C 0.2719(2) 0.78366(8) 0.72192(9)
C23_7 C 0.2667(3) 0.76678(10) 0.70000(10)
H15_7 H 0.307719 0.754466 0.696019
C24_7 C 0.2011(3) 0.76777(11) 0.68363(11)
H16_7 H 0.200838 0.757574 0.667878
C25_7 C 0.3455(2) 0.78412(8) 0.73879(8)
O9_7 O 0.3972(3) 0.85270(8) 0.79368(7)
Mg3_7 Mg 0.43011(6) 0.81066(2) 0.78303(2)
O11_7 O 0.55712(15) 0.78626(5) 0.73838(5)
O12_7 O 0.3417(3) 0.79852(9) 0.81125(9)
O14_7 O 0.51375(17) 0.82548(5) 0.75841(5)
O15_7 O 0.39939(18) 0.94636(6) 0.75500(6)
O16_7 O 0.35625(14) 0.98533(5) 0.73562(5)
N7_7 N 0.90072(18) 0.93865(6) 0.62859(6)
H17_7 H 0.933625 0.924883 0.627453
N8_7 N 0.84101(16) 0.90901(5) 0.65713(5)
N9_7 N 0.72466(19) 0.92213(6) 0.67968(7)
N10_7 N 0.7898(2) 0.95505(6) 0.65125(8)
N11_7 N 0.77373(18) 0.87604(6) 0.67996(6)
H18_7 H 0.811899 0.865532 0.674588
N12_7 N 0.6806(2) 0.96808(8) 0.67403(9)
H19_7 H 0.689093 0.984047 0.666439
C26_7 C 0.9165(2) 0.96144(7) 0.61163(7)
C27_7 C 0.8911(3) 0.98874(8) 0.61528(8)
H20_7 H 0.857511 0.992983 0.629303
C30_7 C 0.9853(2) 0.97633(7) 0.57247(7)
C31_7 C 0.9635(2) 0.95524(7) 0.59002(8)
H23_7 H 0.980488 0.936819 0.587232
C32_7 C 0.8420(2) 0.93481(7) 0.64648(7)
C33_7 C 0.7789(2) 0.90360(6) 0.67212(6)
C34_7 C 0.7338(2) 0.94732(8) 0.66894(9)
C36_7 C 0.5562(2) 0.81245(7) 0.74208(7)
C37_7 C 0.6117(2) 0.82994(7) 0.72537(7)
C38_7 C 0.6139(3) 0.85852(8) 0.72692(10)
H24_7 H 0.579025 0.867582 0.738317
C39_7 C 0.6655(3) 0.87463(8) 0.71238(9)
H25_7 H 0.665438 0.894169 0.714197
C40_7 C 0.7170(2) 0.86194(7) 0.69523(7)
C41_7 C 0.7156(3) 0.83316(7) 0.69348(9)
H26_7 H 0.750269 0.824056 0.682019
C42_7 C 0.6634(2) 0.81732(8) 0.70855(9)
H27_7 H 0.663844 0.797747 0.707110
C43_7 C 0.6127(3) 0.96646(8) 0.69041(11)
C44_7 C 0.6127(3) 0.95181(10) 0.71407(11)
H28_7 H 0.657724 0.942269 0.719608
C45_7 C 0.5451(3) 0.95143(9) 0.72952(10)
H29_7 H 0.544466 0.941060 0.745178
C46_7 C 0.4781(2) 0.96634(8) 0.72192(9)
C47_7 C 0.4833(3) 0.98322(10) 0.70000(10)
H30_7 H 0.442281 0.995534 0.696019
C48_7 C 0.5489(3) 0.98223(11) 0.68363(11)
H31_7 H 0.549162 0.992426 0.667878
C49_7 C 0.4045(2) 0.96588(8) 0.73879(8)
O18_7 O 0.27445(13) 0.98070(4) 0.78698(4)
O19_7 O 0.47555(13) 0.76930(4) 0.78698(4)
O21_7 O 0.23771(19) 0.94830(5) 0.81525(5)
O22_7 O 0.51229(19) 0.80170(5) 0.81525(5)
O4_7 O 0.76229(19) 0.69830(5) 0.56525(5)
N1_7 N 0.84928(18) 0.81135(6) 0.62859(6)
H1_7 H 0.816375 0.825117 0.627453
N2_7 N 0.90899(16) 0.84099(5) 0.65713(5)
N4_7 N 0.9602(2) 0.79495(6) 0.65125(8)
N5_7 N 0.97627(18) 0.87396(6) 0.67996(6)
H2_7 H 0.938101 0.884468 0.674588
C1_7 C 0.8335(2) 0.78856(7) 0.61163(7)
C2_7 C 0.8589(3) 0.76126(8) 0.61528(8)
H4_7 H 0.892489 0.757017 0.629303
C3_7 C 0.8349(3) 0.74022(8) 0.59834(8)
H5_7 H 0.850562 0.721729 0.601590
C4_7 C 0.7880(2) 0.74596(7) 0.57662(6)
C5_7 C 0.7647(2) 0.77367(7) 0.57247(7)
H6_7 H 0.733992 0.778129 0.557765
C6_7 C 0.7865(2) 0.79476(7) 0.59002(8)
H7_7 H 0.769512 0.813181 0.587232
C7_7 C 0.9080(2) 0.81519(7) 0.64648(7)
C8_7 C 0.9711(2) 0.84640(6) 0.67212(6)
C10_7 C 0.7592(2) 0.72380(6) 0.55837(7)
H10_7 H 0.999731 0.925944 0.682019
Mg4_7 Mg 0.68011(6) 0.68934(2) 0.53303(2)
O20_14 O 0.44288(15) 0.71374(5) 0.76162(5)
O23_14 O 0.60625(14) 0.73533(5) 0.76438(5)
H6_8 H 0.016008 0.778129 0.192235
Mg4_8 Mg 0.06989(6) 0.68934(2) 0.21697(2)
O20_15 O 0.44288(15) 0.03626(5) 0.98838(5)
O23_15 O 0.60625(14) 0.01467(5) 0.98562(5)
O2_8 O 0.55712(15) 0.96374(5) 0.01162(5)
O4_8 O 0.98771(19) 0.69830(5) 0.18475(5)
O7_8 O 0.35625(14) 0.76467(5) 0.01438(5)
N1_8 N 0.90072(18) 0.81135(6) 0.12141(6)
H1_8 H 0.933625 0.825117 0.122547
N2_8 N 0.84101(16) 0.84099(5) 0.09287(5)
N3_8 N 0.72466(19) 0.82787(6) 0.07032(7)
N4_8 N 0.7898(2) 0.79495(6) 0.09875(8)
N5_8 N 0.77373(18) 0.87396(6) 0.07004(6)
H2_8 H 0.811899 0.884468 0.075412
N6_8 N 0.6806(2) 0.78192(8) 0.07597(9)
H3_8 H 0.689093 0.765953 0.083561
C1_8 C 0.9165(2) 0.78856(7) 0.13837(7)
C2_8 C 0.8911(3) 0.76126(8) 0.13472(8)
H4_8 H 0.857511 0.757017 0.120697
C3_8 C 0.9151(3) 0.74022(8) 0.15166(8)
H5_8 H 0.899438 0.721729 0.148410
C4_8 C 0.9620(2) 0.74596(7) 0.17338(6)
C5_8 C 0.9853(2) 0.77367(7) 0.17753(7)
C6_8 C 0.9635(2) 0.79476(7) 0.15998(8)
H7_8 H 0.980488 0.813181 0.162768
C7_8 C 0.8420(2) 0.81519(7) 0.10352(7)
C8_8 C 0.7789(2) 0.84640(6) 0.07788(6)
C9_8 C 0.7338(2) 0.80268(8) 0.08106(9)
C10_8 C 0.9908(2) 0.72380(6) 0.19163(7)
C11_8 C 0.5562(2) 0.93755(7) 0.00792(7)
C12_8 C 0.6117(2) 0.92006(7) 0.02463(7)
C13_8 C 0.6139(3) 0.89148(8) 0.02308(10)
H8_8 H 0.579025 0.882418 0.011683
C14_8 C 0.6655(3) 0.87537(8) 0.03762(9)
H9_8 H 0.665438 0.855831 0.035803
C15_8 C 0.7170(2) 0.88806(7) 0.05477(7)
C16_8 C 0.7156(3) 0.91684(7) 0.05652(9)
H10_8 H 0.750269 0.925944 0.067981
C17_8 C 0.6634(2) 0.93268(8) 0.04145(9)
H11_8 H 0.663844 0.952253 0.042890
C19_8 C 0.6127(3) 0.78354(8) 0.05959(11)
C20_8 C 0.6127(3) 0.79819(10) 0.03593(11)
H13_8 H 0.657724 0.807731 0.030392
C21_8 C 0.5451(3) 0.79857(9) 0.02048(10)
H14_8 H 0.544466 0.808940 0.004822
C22_8 C 0.4781(2) 0.78366(8) 0.02808(9)
C23_8 C 0.4833(3) 0.76678(10) 0.05000(10)
H15_8 H 0.442281 0.754466 0.053981
C24_8 C 0.5489(3) 0.76777(11) 0.06637(11)
H16_8 H 0.549162 0.757574 0.082122
C25_8 C 0.4045(2) 0.78412(8) 0.01121(8)
O11_8 O 0.19288(15) 0.78626(5) 0.01162(5)
O16_8 O 0.39375(14) 0.98533(5) 0.01438(5)
N9_8 N 0.02534(19) 0.92213(6) 0.07032(7)
N12_8 N 0.0694(2) 0.96808(8) 0.07597(9)
H19_8 H 0.060907 0.984047 0.083561
C34_8 C 0.0162(2) 0.94732(8) 0.08106(9)
C36_8 C 0.1938(2) 0.81245(7) 0.00792(7)
C37_8 C 0.1383(2) 0.82994(7) 0.02463(7)
C38_8 C 0.1361(3) 0.85852(8) 0.02308(10)
H24_8 H 0.170975 0.867582 0.011683
C39_8 C 0.0845(3) 0.87463(8) 0.03762(9)
H25_8 H 0.084562 0.894169 0.035803
C40_8 C 0.0330(2) 0.86194(7) 0.05477(7)
C41_8 C 0.0344(3) 0.83316(7) 0.05652(9)
C42_8 C 0.0866(2) 0.81732(8) 0.04145(9)
H27_8 H 0.086156 0.797747 0.042890
C43_8 C 0.1373(3) 0.96646(8) 0.05959(11)
C44_8 C 0.1373(3) 0.95181(10) 0.03593(11)
H28_8 H 0.092276 0.942269 0.030392
C45_8 C 0.2049(3) 0.95143(9) 0.02048(10)
H29_8 H 0.205534 0.941060 0.004822
C46_8 C 0.2719(2) 0.96634(8) 0.02808(9)
C47_8 C 0.2667(3) 0.98322(10) 0.05000(10)
H30_8 H 0.307719 0.995534 0.053981
C48_8 C 0.2011(3) 0.98223(11) 0.06637(11)
H31_8 H 0.200838 0.992426 0.082122
C49_8 C 0.3455(2) 0.96588(8) 0.01121(8)
Mg1_8 Mg 0.43011(6) 0.93934(2) 0.96697(2)
O3_8 O 0.3417(3) 0.95148(9) 0.93875(9)
O5_8 O 0.51375(17) 0.92452(5) 0.99159(5)
O6_8 O 0.39939(18) 0.80364(6) 0.99500(6)
O8_8 O 0.3972(3) 0.89730(8) 0.95632(7)
C18_8 C 0.375000 0.875000 0.96503(11)
H12_8 H 0.374998 0.874999 0.983469
O9_8 O 0.3528(3) 0.85270(8) 0.95632(7)
Mg3_8 Mg 0.31989(6) 0.81066(2) 0.96697(2)
O12_8 O 0.4083(3) 0.79852(9) 0.93875(9)
O14_8 O 0.23625(17) 0.82548(5) 0.99159(5)
O15_8 O 0.35061(18) 0.94636(6) 0.99500(6)
O18_8 O 0.47555(13) 0.98070(4) 0.96302(4)
O19_8 O 0.27445(13) 0.76930(4) 0.96302(4)
O21_8 O 0.51229(19) 0.94830(5) 0.93475(5)
O22_8 O 0.23771(19) 0.80170(5) 0.93475(5)
O13_8 O 0.76229(19) 0.05170(5) 0.18475(5)
C28_8 C 0.8349(3) 0.00978(8) 0.15166(8)
H21_8 H 0.850562 0.028271 0.148410
C29_8 C 0.7880(2) 0.00404(7) 0.17338(6)
C35_8 C 0.7592(2) 0.02620(6) 0.19163(7)
Mg5_8 Mg 0.68011(6) 0.06066(2) 0.21697(2)
N7_8 N 0.84928(18) 0.93865(6) 0.12141(6)
H17_8 H 0.816375 0.924883 0.122547
N8_8 N 0.90899(16) 0.90901(5) 0.09287(5)
N10_8 N 0.9602(2) 0.95505(6) 0.09875(8)
N11_8 N 0.97627(18) 0.87604(6) 0.07004(6)
H18_8 H 0.938101 0.865532 0.075412
C26_8 C 0.8335(2) 0.96144(7) 0.13837(7)
C27_8 C 0.8589(3) 0.98874(8) 0.13472(8)
H20_8 H 0.892489 0.992983 0.120697
C30_8 C 0.7647(2) 0.97633(7) 0.17753(7)
H22_8 H 0.733992 0.971871 0.192235
C31_8 C 0.7865(2) 0.95524(7) 0.15998(8)
H23_8 H 0.769512 0.936819 0.162768
C32_8 C 0.9080(2) 0.93481(7) 0.10352(7)
C33_8 C 0.9711(2) 0.90360(6) 0.07788(6)
H26_8 H 0.999731 0.824056 0.067981
O20_16 O 0.30712(15) 0.71374(5) 0.98838(5)
O23_16 O 0.14375(14) 0.73533(5) 0.98562(5)
O3_9 O 0.0917(3) 0.54852(9) 0.18875(9)
O5_9 O 0.26375(17) 0.57548(5) 0.24159(5)
O6_9 O 0.14939(18) 0.69636(6) 0.24500(6)
O8_9 O 0.1472(3) 0.60270(8) 0.20632(7)
N1_9 N 0.65072(18) 0.68865(6) 0.37141(6)
H1_9 H 0.683625 0.674883 0.372547
N2_9 N 0.59101(16) 0.65901(5) 0.34287(5)
N3_9 N 0.47466(19) 0.67213(6) 0.32032(7)
N4_9 N 0.5398(2) 0.70505(6) 0.34875(8)
N5_9 N 0.52373(18) 0.62604(6) 0.32004(6)
H2_9 H 0.561899 0.615532 0.325412
N6_9 N 0.4306(2) 0.71808(8) 0.32597(9)
H3_9 H 0.439093 0.734047 0.333561
C1_9 C 0.6665(2) 0.71144(7) 0.38837(7)
C2_9 C 0.6411(3) 0.73874(8) 0.38472(8)
H4_9 H 0.607511 0.742983 0.370697
C3_9 C 0.6651(3) 0.75978(8) 0.40166(8)
H5_9 H 0.649438 0.778271 0.398410
C4_9 C 0.7120(2) 0.75404(7) 0.42338(6)
C5_9 C 0.7353(2) 0.72633(7) 0.42753(7)
H6_9 H 0.766008 0.721871 0.442235
C6_9 C 0.7135(2) 0.70524(7) 0.40998(8)
H7_9 H 0.730488 0.686819 0.412768
C7_9 C 0.5920(2) 0.68481(7) 0.35352(7)
C8_9 C 0.5289(2) 0.65360(6) 0.32788(6)
C9_9 C 0.4838(2) 0.69732(8) 0.33106(9)
C10_9 C 0.7408(2) 0.77620(6) 0.44163(7)
C11_9 C 0.3062(2) 0.56245(7) 0.25792(7)
C12_9 C 0.3617(2) 0.57994(7) 0.27463(7)
C13_9 C 0.3639(3) 0.60852(8) 0.27308(10)
H8_9 H 0.329025 0.617582 0.261683
C14_9 C 0.4155(3) 0.62463(8) 0.28762(9)
H9_9 H 0.415438 0.644169 0.285803
C15_9 C 0.4670(2) 0.61194(7) 0.30477(7)
C16_9 C 0.4656(3) 0.58316(7) 0.30652(9)
H10_9 H 0.500269 0.574056 0.317981
C17_9 C 0.4134(2) 0.56732(8) 0.29145(9)
H11_9 H 0.413844 0.547747 0.292890
C18_9 C 0.125000 0.625000 0.21503(11)
H12_9 H 0.124998 0.625001 0.233469
C19_9 C 0.3627(3) 0.71646(8) 0.30959(11)
C20_9 C 0.3627(3) 0.70181(10) 0.28593(11)
H13_9 H 0.407724 0.692269 0.280392
C21_9 C 0.2951(3) 0.70143(9) 0.27048(10)
H14_9 H 0.294466 0.691060 0.254822
C22_9 C 0.2281(2) 0.71634(8) 0.27808(9)
C23_9 C 0.2333(3) 0.73322(10) 0.30000(10)
H15_9 H 0.192281 0.745534 0.303981
C24_9 C 0.2989(3) 0.73223(11) 0.31637(11)
H16_9 H 0.299162 0.742426 0.332122
C25_9 C 0.1545(2) 0.71588(8) 0.26121(8)
O9_9 O 0.1028(3) 0.64730(8) 0.20632(7)
O12_9 O 0.1583(3) 0.70148(9) 0.18875(9)
O15_9 O 0.10061(18) 0.55364(6) 0.24500(6)
C46_9 C 0.0219(2) 0.53366(8) 0.27808(9)
C47_9 C 0.0167(3) 0.51678(10) 0.30000(10)
H30_9 H 0.057719 0.504466 0.303981
C49_9 C 0.0955(2) 0.53412(8) 0.26121(8)
O14_9 O 0.98625(17) 0.67452(5) 0.24159(5)
N7_9 N 0.59928(18) 0.56135(6) 0.37141(6)
H17_9 H 0.566375 0.575117 0.372547
N8_9 N 0.65899(16) 0.59099(5) 0.34287(5)
N9_9 N 0.77534(19) 0.57787(6) 0.32032(7)
N10_9 N 0.7102(2) 0.54495(6) 0.34875(8)
N11_9 N 0.72627(18) 0.62396(6) 0.32004(6)
H18_9 H 0.688101 0.634468 0.325412
N12_9 N 0.8194(2) 0.53192(8) 0.32597(9)
H19_9 H 0.810907 0.515953 0.333561
C26_9 C 0.5835(2) 0.53856(7) 0.38837(7)
C27_9 C 0.6089(3) 0.51126(8) 0.38472(8)
H20_9 H 0.642489 0.507017 0.370697
C28_9 C 0.5849(3) 0.49022(8) 0.40166(8)
H21_9 H 0.600562 0.471729 0.398410
C29_9 C 0.5380(2) 0.49596(7) 0.42338(6)
C30_9 C 0.5147(2) 0.52367(7) 0.42753(7)
H22_9 H 0.483992 0.528129 0.442235
C31_9 C 0.5365(2) 0.54476(7) 0.40998(8)
H23_9 H 0.519512 0.563181 0.412768
C32_9 C 0.6580(2) 0.56519(7) 0.35352(7)
C33_9 C 0.7211(2) 0.59640(6) 0.32788(6)
C34_9 C 0.7662(2) 0.55268(8) 0.33106(9)
C35_9 C 0.5092(2) 0.47380(6) 0.44163(7)
C36_9 C 0.9438(2) 0.68755(7) 0.25792(7)
C37_9 C 0.8883(2) 0.67006(7) 0.27463(7)
C38_9 C 0.8861(3) 0.64148(8) 0.27308(10)
H24_9 H 0.920975 0.632418 0.261683
C39_9 C 0.8345(3) 0.62537(8) 0.28762(9)
H25_9 H 0.834562 0.605831 0.285803
C40_9 C 0.7830(2) 0.63806(7) 0.30477(7)
C41_9 C 0.7844(3) 0.66684(7) 0.30652(9)
H26_9 H 0.749731 0.675944 0.317981
C42_9 C 0.8366(2) 0.68268(8) 0.29145(9)
H27_9 H 0.836156 0.702253 0.292890
C43_9 C 0.8873(3) 0.53354(8) 0.30959(11)
C44_9 C 0.8873(3) 0.54819(10) 0.28593(11)
H28_9 H 0.842276 0.557731 0.280392
C45_9 C 0.9549(3) 0.54857(9) 0.27048(10)
H29_9 H 0.955534 0.558940 0.254822
C48_9 C 0.9511(3) 0.51777(11) 0.31637(11)
H31_9 H 0.950838 0.507574 0.332122
O3_10 O 0.1583(3) 0.54852(9) 0.06125(9)
O6_10 O 0.10061(18) 0.69636(6) 0.00500(6)
O8_10 O 0.1028(3) 0.60270(8) 0.04368(7)
C18_10 C 0.125000 0.625000 0.03497(11)
H12_10 H 0.125002 0.625001 0.016531
O9_10 O 0.1472(3) 0.64730(8) 0.04368(7)
O12_10 O 0.0917(3) 0.70148(9) 0.06125(9)
O14_10 O 0.26375(17) 0.67452(5) 0.00841(5)
O15_10 O 0.14939(18) 0.55364(6) 0.00500(6)
C22_10 C 0.0219(2) 0.71634(8) 0.97192(9)
C23_10 C 0.0167(3) 0.73322(10) 0.95000(10)
H15_10 H 0.057719 0.745534 0.946019
C25_10 C 0.0955(2) 0.71588(8) 0.98879(8)
N7_10 N 0.65072(18) 0.56135(6) 0.87859(6)
H17_10 H 0.683625 0.575117 0.877453
N8_10 N 0.59101(16) 0.59099(5) 0.90713(5)
N9_10 N 0.47466(19) 0.57787(6) 0.92968(7)
N10_10 N 0.5398(2) 0.54495(6) 0.90125(8)
N11_10 N 0.52373(18) 0.62396(6) 0.92996(6)
H18_10 H 0.561899 0.634468 0.924588
N12_10 N 0.4306(2) 0.53192(8) 0.92403(9)
H19_10 H 0.439093 0.515953 0.916439
C26_10 C 0.6665(2) 0.53856(7) 0.86163(7)
C27_10 C 0.6411(3) 0.51126(8) 0.86528(8)
H20_10 H 0.607511 0.507017 0.879303
C28_10 C 0.6651(3) 0.49022(8) 0.84834(8)
H21_10 H 0.649438 0.471729 0.851590
C29_10 C 0.7120(2) 0.49596(7) 0.82662(6)
C30_10 C 0.7353(2) 0.52367(7) 0.82247(7)
H22_10 H 0.766008 0.528129 0.807765
C31_10 C 0.7135(2) 0.54476(7) 0.84002(8)
H23_10 H 0.730488 0.563181 0.837232
C32_10 C 0.5920(2) 0.56519(7) 0.89648(7)
C33_10 C 0.5289(2) 0.59640(6) 0.92212(6)
C34_10 C 0.4838(2) 0.55268(8) 0.91894(9)
C35_10 C 0.7408(2) 0.47380(6) 0.80837(7)
C36_10 C 0.3062(2) 0.68755(7) 0.99208(7)
C37_10 C 0.3617(2) 0.67006(7) 0.97537(7)
C38_10 C 0.3639(3) 0.64148(8) 0.97692(10)
H24_10 H 0.329025 0.632418 0.988317
C39_10 C 0.4155(3) 0.62537(8) 0.96238(9)
H25_10 H 0.415438 0.605831 0.964197
C40_10 C 0.4670(2) 0.63806(7) 0.94523(7)
C41_10 C 0.4656(3) 0.66684(7) 0.94348(9)
H26_10 H 0.500269 0.675944 0.932019
C42_10 C 0.4134(2) 0.68268(8) 0.95855(9)
H27_10 H 0.413844 0.702253 0.957110
C43_10 C 0.3627(3) 0.53354(8) 0.94041(11)
C44_10 C 0.3627(3) 0.54819(10) 0.96407(11)
H28_10 H 0.407724 0.557731 0.969608
C45_10 C 0.2951(3) 0.54857(9) 0.97952(10)
H29_10 H 0.294466 0.558940 0.995178
C46_10 C 0.2281(2) 0.53366(8) 0.97192(9)
C47_10 C 0.2333(3) 0.51678(10) 0.95000(10)
H30_10 H 0.192281 0.504466 0.946019
C48_10 C 0.2989(3) 0.51777(11) 0.93363(11)
H31_10 H 0.299162 0.507574 0.917878
C49_10 C 0.1545(2) 0.53412(8) 0.98879(8)
O5_10 O 0.98625(17) 0.57548(5) 0.00841(5)
N1_10 N 0.59928(18) 0.68865(6) 0.87859(6)
H1_10 H 0.566375 0.674883 0.877453
N2_10 N 0.65899(16) 0.65901(5) 0.90713(5)
N3_10 N 0.77534(19) 0.67213(6) 0.92968(7)
N4_10 N 0.7102(2) 0.70505(6) 0.90125(8)
N5_10 N 0.72627(18) 0.62604(6) 0.92996(6)
H2_10 H 0.688101 0.615532 0.924588
N6_10 N 0.8194(2) 0.71808(8) 0.92403(9)
H3_10 H 0.810907 0.734047 0.916439
C1_10 C 0.5835(2) 0.71144(7) 0.86163(7)
C2_10 C 0.6089(3) 0.73874(8) 0.86528(8)
H4_10 H 0.642489 0.742983 0.879303
C3_10 C 0.5849(3) 0.75978(8) 0.84834(8)
H5_10 H 0.600562 0.778271 0.851590
C4_10 C 0.5380(2) 0.75404(7) 0.82662(6)
C5_10 C 0.5147(2) 0.72633(7) 0.82247(7)
H6_10 H 0.483992 0.721871 0.807765
C6_10 C 0.5365(2) 0.70524(7) 0.84002(8)
H7_10 H 0.519512 0.686819 0.837232
C7_10 C 0.6580(2) 0.68481(7) 0.89648(7)
C8_10 C 0.7211(2) 0.65360(6) 0.92212(6)
C9_10 C 0.7662(2) 0.69732(8) 0.91894(9)
C10_10 C 0.5092(2) 0.77620(6) 0.80837(7)
C11_10 C 0.9438(2) 0.56245(7) 0.99208(7)
C12_10 C 0.8883(2) 0.57994(7) 0.97537(7)
C13_10 C 0.8861(3) 0.60852(8) 0.97692(10)
H8_10 H 0.920975 0.617582 0.988317
C14_10 C 0.8345(3) 0.62463(8) 0.96238(9)
H9_10 H 0.834562 0.644169 0.964197
C15_10 C 0.7830(2) 0.61194(7) 0.94523(7)
C16_10 C 0.7844(3) 0.58316(7) 0.94348(9)
H10_10 H 0.749731 0.574056 0.932019
C17_10 C 0.8366(2) 0.56732(8) 0.95855(9)
H11_10 H 0.836156 0.547747 0.957110
C19_10 C 0.8873(3) 0.71646(8) 0.94041(11)
C20_10 C 0.8873(3) 0.70181(10) 0.96407(11)
H13_10 H 0.842276 0.692269 0.969608
C21_10 C 0.9549(3) 0.70143(9) 0.97952(10)
H14_10 H 0.955534 0.691060 0.995178
C24_10 C 0.9511(3) 0.73223(11) 0.93363(11)
H16_10 H 0.950838 0.742426 0.917878
O3_11 O 0.0917(3) 0.04852(9) 0.68875(9)
O5_11 O 0.26375(17) 0.07548(5) 0.74159(5)
O6_11 O 0.14939(18) 0.19636(6) 0.74500(6)
O8_11 O 0.1472(3) 0.10270(8) 0.70632(7)
N1_11 N 0.65072(18) 0.18865(6) 0.87141(6)
H1_11 H 0.683625 0.174883 0.872547
N2_11 N 0.59101(16) 0.15901(5) 0.84287(5)
N3_11 N 0.47466(19) 0.17213(6) 0.82032(7)
N4_11 N 0.5398(2) 0.20505(6) 0.84875(8)
N5_11 N 0.52373(18) 0.12604(6) 0.82004(6)
H2_11 H 0.561899 0.115532 0.825412
N6_11 N 0.4306(2) 0.21808(8) 0.82597(9)
H3_11 H 0.439093 0.234047 0.833561
C1_11 C 0.6665(2) 0.21144(7) 0.88837(7)
C2_11 C 0.6411(3) 0.23874(8) 0.88472(8)
H4_11 H 0.607511 0.242983 0.870697
C3_11 C 0.6651(3) 0.25978(8) 0.90166(8)
H5_11 H 0.649438 0.278271 0.898410
C4_11 C 0.7120(2) 0.25404(7) 0.92338(6)
C5_11 C 0.7353(2) 0.22633(7) 0.92753(7)
H6_11 H 0.766008 0.221871 0.942235
C6_11 C 0.7135(2) 0.20524(7) 0.90998(8)
H7_11 H 0.730488 0.186819 0.912768
C7_11 C 0.5920(2) 0.18481(7) 0.85352(7)
C8_11 C 0.5289(2) 0.15360(6) 0.82788(6)
C9_11 C 0.4838(2) 0.19732(8) 0.83106(9)
C10_11 C 0.7408(2) 0.27620(6) 0.94163(7)
C11_11 C 0.3062(2) 0.06245(7) 0.75792(7)
C12_11 C 0.3617(2) 0.07994(7) 0.77463(7)
C13_11 C 0.3639(3) 0.10852(8) 0.77308(10)
H8_11 H 0.329025 0.117582 0.761683
C14_11 C 0.4155(3) 0.12463(8) 0.78762(9)
H9_11 H 0.415438 0.144169 0.785803
C15_11 C 0.4670(2) 0.11194(7) 0.80477(7)
C16_11 C 0.4656(3) 0.08316(7) 0.80652(9)
H10_11 H 0.500269 0.074056 0.817981
C17_11 C 0.4134(2) 0.06732(8) 0.79145(9)
H11_11 H 0.413844 0.047747 0.792890
C18_11 C 0.125000 0.125000 0.71503(11)
H12_11 H 0.124998 0.125001 0.733469
C19_11 C 0.3627(3) 0.21646(8) 0.80959(11)
C20_11 C 0.3627(3) 0.20181(10) 0.78593(11)
H13_11 H 0.407724 0.192269 0.780392
C21_11 C 0.2951(3) 0.20143(9) 0.77048(10)
H14_11 H 0.294466 0.191060 0.754822
C22_11 C 0.2281(2) 0.21634(8) 0.77808(9)
C23_11 C 0.2333(3) 0.23322(10) 0.80000(10)
H15_11 H 0.192281 0.245534 0.803981
C24_11 C 0.2989(3) 0.23223(11) 0.81637(11)
H16_11 H 0.299162 0.242426 0.832122
C25_11 C 0.1545(2) 0.21588(8) 0.76121(8)
O9_11 O 0.1028(3) 0.14730(8) 0.70632(7)
O12_11 O 0.1583(3) 0.20148(9) 0.68875(9)
O15_11 O 0.10061(18) 0.05364(6) 0.74500(6)
C46_11 C 0.0219(2) 0.03366(8) 0.77808(9)
C47_11 C 0.0167(3) 0.01678(10) 0.80000(10)
H30_11 H 0.057719 0.004466 0.803981
C49_11 C 0.0955(2) 0.03412(8) 0.76121(8)
O14_11 O 0.98625(17) 0.17452(5) 0.74159(5)
N7_11 N 0.59928(18) 0.06135(6) 0.87141(6)
H17_11 H 0.566375 0.075117 0.872547
N8_11 N 0.65899(16) 0.09099(5) 0.84287(5)
N9_11 N 0.77534(19) 0.07787(6) 0.82032(7)
N10_11 N 0.7102(2) 0.04495(6) 0.84875(8)
N11_11 N 0.72627(18) 0.12396(6) 0.82004(6)
H18_11 H 0.688101 0.134468 0.825412
N12_11 N 0.8194(2) 0.03192(8) 0.82597(9)
H19_11 H 0.810907 0.015953 0.833561
C26_11 C 0.5835(2) 0.03856(7) 0.88837(7)
C27_11 C 0.6089(3) 0.01126(8) 0.88472(8)
H20_11 H 0.642489 0.007017 0.870697
C30_11 C 0.5147(2) 0.02367(7) 0.92753(7)
H22_11 H 0.483992 0.028129 0.942235
C31_11 C 0.5365(2) 0.04476(7) 0.90998(8)
H23_11 H 0.519512 0.063181 0.912768
C32_11 C 0.6580(2) 0.06519(7) 0.85352(7)
C33_11 C 0.7211(2) 0.09640(6) 0.82788(6)
C34_11 C 0.7662(2) 0.05268(8) 0.83106(9)
C36_11 C 0.9438(2) 0.18755(7) 0.75792(7)
C37_11 C 0.8883(2) 0.17006(7) 0.77463(7)
C38_11 C 0.8861(3) 0.14148(8) 0.77308(10)
H24_11 H 0.920975 0.132418 0.761683
C39_11 C 0.8345(3) 0.12537(8) 0.78762(9)
H25_11 H 0.834562 0.105831 0.785803
C40_11 C 0.7830(2) 0.13806(7) 0.80477(7)
C41_11 C 0.7844(3) 0.16684(7) 0.80652(9)
H26_11 H 0.749731 0.175944 0.817981
C42_11 C 0.8366(2) 0.18268(8) 0.79145(9)
H27_11 H 0.836156 0.202253 0.792890
C43_11 C 0.8873(3) 0.03354(8) 0.80959(11)
C44_11 C 0.8873(3) 0.04819(10) 0.78593(11)
H28_11 H 0.842276 0.057731 0.780392
C45_11 C 0.9549(3) 0.04857(9) 0.77048(10)
H29_11 H 0.955534 0.058940 0.754822
C48_11 C 0.9511(3) 0.01777(11) 0.81637(11)
H31_11 H 0.950838 0.007574 0.832122
C28_11 C 0.5849(3) 0.99022(8) 0.90166(8)
H21_11 H 0.600562 0.971729 0.898410
C29_11 C 0.5380(2) 0.99596(7) 0.92338(6)
C35_11 C 0.5092(2) 0.97380(6) 0.94163(7)
O3_12 O 0.1583(3) 0.04852(9) 0.56125(9)
O6_12 O 0.10061(18) 0.19636(6) 0.50500(6)
O8_12 O 0.1028(3) 0.10270(8) 0.54368(7)
C18_12 C 0.125000 0.125000 0.53497(11)
H12_12 H 0.125002 0.125001 0.516531
C22_12 C 0.0219(2) 0.21634(8) 0.47192(9)
C23_12 C 0.0167(3) 0.23322(10) 0.45000(10)
H15_12 H 0.057719 0.245534 0.446019
C25_12 C 0.0955(2) 0.21588(8) 0.48879(8)
O9_12 O 0.1472(3) 0.14730(8) 0.54368(7)
O12_12 O 0.0917(3) 0.20148(9) 0.56125(9)
O14_12 O 0.26375(17) 0.17452(5) 0.50841(5)
O15_12 O 0.14939(18) 0.05364(6) 0.50500(6)
N7_12 N 0.65072(18) 0.06135(6) 0.37859(6)
H17_12 H 0.683625 0.075117 0.377453
N8_12 N 0.59101(16) 0.09099(5) 0.40713(5)
N9_12 N 0.47466(19) 0.07787(6) 0.42968(7)
N10_12 N 0.5398(2) 0.04495(6) 0.40125(8)
N11_12 N 0.52373(18) 0.12396(6) 0.42996(6)
H18_12 H 0.561899 0.134468 0.424588
N12_12 N 0.4306(2) 0.03192(8) 0.42403(9)
H19_12 H 0.439093 0.015953 0.416439
C26_12 C 0.6665(2) 0.03856(7) 0.36163(7)
C27_12 C 0.6411(3) 0.01126(8) 0.36528(8)
H20_12 H 0.607511 0.007017 0.379303
C30_12 C 0.7353(2) 0.02367(7) 0.32247(7)
H22_12 H 0.766008 0.028129 0.307765
C31_12 C 0.7135(2) 0.04476(7) 0.34002(8)
H23_12 H 0.730488 0.063181 0.337232
C32_12 C 0.5920(2) 0.06519(7) 0.39648(7)
C33_12 C 0.5289(2) 0.09640(6) 0.42212(6)
C34_12 C 0.4838(2) 0.05268(8) 0.41894(9)
C36_12 C 0.3062(2) 0.18755(7) 0.49208(7)
C37_12 C 0.3617(2) 0.17006(7) 0.47537(7)
C38_12 C 0.3639(3) 0.14148(8) 0.47692(10)
H24_12 H 0.329025 0.132418 0.488317
C39_12 C 0.4155(3) 0.12537(8) 0.46238(9)
H25_12 H 0.415438 0.105831 0.464197
C40_12 C 0.4670(2) 0.13806(7) 0.44523(7)
C41_12 C 0.4656(3) 0.16684(7) 0.44348(9)
H26_12 H 0.500269 0.175944 0.432019
C42_12 C 0.4134(2) 0.18268(8) 0.45855(9)
H27_12 H 0.413844 0.202253 0.457110
C43_12 C 0.3627(3) 0.03354(8) 0.44041(11)
C44_12 C 0.3627(3) 0.04819(10) 0.46407(11)
H28_12 H 0.407724 0.057731 0.469608
C45_12 C 0.2951(3) 0.04857(9) 0.47952(10)
H29_12 H 0.294466 0.058940 0.495178
C46_12 C 0.2281(2) 0.03366(8) 0.47192(9)
C47_12 C 0.2333(3) 0.01678(10) 0.45000(10)
H30_12 H 0.192281 0.004466 0.446019
C48_12 C 0.2989(3) 0.01777(11) 0.43363(11)
H31_12 H 0.299162 0.007574 0.417878
C49_12 C 0.1545(2) 0.03412(8) 0.48879(8)
C28_12 C 0.6651(3) 0.99022(8) 0.34834(8)
H21_12 H 0.649438 0.971729 0.351590
C29_12 C 0.7120(2) 0.99596(7) 0.32662(6)
C35_12 C 0.7408(2) 0.97380(6) 0.30837(7)
O5_12 O 0.98625(17) 0.07548(5) 0.50841(5)
N1_12 N 0.59928(18) 0.18865(6) 0.37859(6)
H1_12 H 0.566375 0.174883 0.377453
N2_12 N 0.65899(16) 0.15901(5) 0.40713(5)
N3_12 N 0.77534(19) 0.17213(6) 0.42968(7)
N4_12 N 0.7102(2) 0.20505(6) 0.40125(8)
N5_12 N 0.72627(18) 0.12604(6) 0.42996(6)
H2_12 H 0.688101 0.115532 0.424588
N6_12 N 0.8194(2) 0.21808(8) 0.42403(9)
H3_12 H 0.810907 0.234047 0.416439
C1_12 C 0.5835(2) 0.21144(7) 0.36163(7)
C2_12 C 0.6089(3) 0.23874(8) 0.36528(8)
H4_12 H 0.642489 0.242983 0.379303
C3_12 C 0.5849(3) 0.25978(8) 0.34834(8)
H5_12 H 0.600562 0.278271 0.351590
C4_12 C 0.5380(2) 0.25404(7) 0.32662(6)
C5_12 C 0.5147(2) 0.22633(7) 0.32247(7)
H6_12 H 0.483992 0.221871 0.307765
C6_12 C 0.5365(2) 0.20524(7) 0.34002(8)
H7_12 H 0.519512 0.186819 0.337232
C7_12 C 0.6580(2) 0.18481(7) 0.39648(7)
C8_12 C 0.7211(2) 0.15360(6) 0.42212(6)
C9_12 C 0.7662(2) 0.19732(8) 0.41894(9)
C10_12 C 0.5092(2) 0.27620(6) 0.30837(7)
C11_12 C 0.9438(2) 0.06245(7) 0.49208(7)
C12_12 C 0.8883(2) 0.07994(7) 0.47537(7)
C13_12 C 0.8861(3) 0.10852(8) 0.47692(10)
H8_12 H 0.920975 0.117582 0.488317
C14_12 C 0.8345(3) 0.12463(8) 0.46238(9)
H9_12 H 0.834562 0.144169 0.464197
C15_12 C 0.7830(2) 0.11194(7) 0.44523(7)
C16_12 C 0.7844(3) 0.08316(7) 0.44348(9)
H10_12 H 0.749731 0.074056 0.432019
C17_12 C 0.8366(2) 0.06732(8) 0.45855(9)
H11_12 H 0.836156 0.047747 0.457110
C19_12 C 0.8873(3) 0.21646(8) 0.44041(11)
C20_12 C 0.8873(3) 0.20181(10) 0.46407(11)
H13_12 H 0.842276 0.192269 0.469608
C21_12 C 0.9549(3) 0.20143(9) 0.47952(10)
H14_12 H 0.955534 0.191060 0.495178
C24_12 C 0.9511(3) 0.23223(11) 0.43363(11)
H16_12 H 0.950838 0.242426 0.417878
N1_13 N 0.15072(18) 0.68865(6) 0.87141(6)
H1_13 H 0.183625 0.674883 0.872547
N2_13 N 0.09101(16) 0.65901(5) 0.84287(5)
N4_13 N 0.0398(2) 0.70505(6) 0.84875(8)
N5_13 N 0.02373(18) 0.62604(6) 0.82004(6)
H2_13 H 0.061899 0.615532 0.825412
C1_13 C 0.1665(2) 0.71144(7) 0.88837(7)
C2_13 C 0.1411(3) 0.73874(8) 0.88472(8)
H4_13 H 0.107511 0.742983 0.870697
C3_13 C 0.1651(3) 0.75978(8) 0.90166(8)
H5_13 H 0.149438 0.778271 0.898410
C4_13 C 0.2120(2) 0.75404(7) 0.92338(6)
C5_13 C 0.2353(2) 0.72633(7) 0.92753(7)
H6_13 H 0.266008 0.721871 0.942235
C6_13 C 0.2135(2) 0.70524(7) 0.90998(8)
H7_13 H 0.230488 0.686819 0.912768
C7_13 C 0.0920(2) 0.68481(7) 0.85352(7)
C8_13 C 0.0289(2) 0.65360(6) 0.82788(6)
C10_13 C 0.2408(2) 0.77620(6) 0.94163(7)
H10_13 H 0.000269 0.574056 0.817981
O3_13 O 0.5917(3) 0.54852(9) 0.68875(9)
O5_13 O 0.76375(17) 0.57548(5) 0.74159(5)
O6_13 O 0.64939(18) 0.69636(6) 0.74500(6)
O8_13 O 0.6472(3) 0.60270(8) 0.70632(7)
N3_13 N 0.97466(19) 0.67213(6) 0.82032(7)
N6_13 N 0.9306(2) 0.71808(8) 0.82597(9)
H3_13 H 0.939093 0.734047 0.833561
C9_13 C 0.9838(2) 0.69732(8) 0.83106(9)
C11_13 C 0.8062(2) 0.56245(7) 0.75792(7)
C12_13 C 0.8617(2) 0.57994(7) 0.77463(7)
C13_13 C 0.8639(3) 0.60852(8) 0.77308(10)
H8_13 H 0.829025 0.617582 0.761683
C14_13 C 0.9155(3) 0.62463(8) 0.78762(9)
H9_13 H 0.915438 0.644169 0.785803
C15_13 C 0.9670(2) 0.61194(7) 0.80477(7)
C16_13 C 0.9656(3) 0.58316(7) 0.80652(9)
C17_13 C 0.9134(2) 0.56732(8) 0.79145(9)
H11_13 H 0.913844 0.547747 0.792890
C18_13 C 0.625000 0.625000 0.71503(11)
H12_13 H 0.624998 0.625001 0.733469
C19_13 C 0.8627(3) 0.71646(8) 0.80959(11)
C20_13 C 0.8627(3) 0.70181(10) 0.78593(11)
H13_13 H 0.907724 0.692269 0.780392
C21_13 C 0.7951(3) 0.70143(9) 0.77048(10)
H14_13 H 0.794466 0.691060 0.754822
C22_13 C 0.7281(2) 0.71634(8) 0.77808(9)
C23_13 C 0.7333(3) 0.73322(10) 0.80000(10)
H15_13 H 0.692281 0.745534 0.803981
C24_13 C 0.7989(3) 0.73223(11) 0.81637(11)
H16_13 H 0.799162 0.742426 0.832122
C25_13 C 0.6545(2) 0.71588(8) 0.76121(8)
O9_13 O 0.6028(3) 0.64730(8) 0.70632(7)
O12_13 O 0.6583(3) 0.70148(9) 0.68875(9)
O14_13 O 0.48625(17) 0.67452(5) 0.74159(5)
O15_13 O 0.60061(18) 0.55364(6) 0.74500(6)
N7_13 N 0.09928(18) 0.56135(6) 0.87141(6)
H17_13 H 0.066375 0.575117 0.872547
N8_13 N 0.15899(16) 0.59099(5) 0.84287(5)
N9_13 N 0.27534(19) 0.57787(6) 0.82032(7)
N10_13 N 0.2102(2) 0.54495(6) 0.84875(8)
N11_13 N 0.22627(18) 0.62396(6) 0.82004(6)
H18_13 H 0.188101 0.634468 0.825412
N12_13 N 0.3194(2) 0.53192(8) 0.82597(9)
H19_13 H 0.310907 0.515953 0.833561
C26_13 C 0.0835(2) 0.53856(7) 0.88837(7)
C27_13 C 0.1089(3) 0.51126(8) 0.88472(8)
H20_13 H 0.142489 0.507017 0.870697
C28_13 C 0.0849(3) 0.49022(8) 0.90166(8)
H21_13 H 0.100562 0.471729 0.898410
C29_13 C 0.0380(2) 0.49596(7) 0.92338(6)
C30_13 C 0.0147(2) 0.52367(7) 0.92753(7)
C31_13 C 0.0365(2) 0.54476(7) 0.90998(8)
H23_13 H 0.019512 0.563181 0.912768
C32_13 C 0.1580(2) 0.56519(7) 0.85352(7)
C33_13 C 0.2211(2) 0.59640(6) 0.82788(6)
C34_13 C 0.2662(2) 0.55268(8) 0.83106(9)
C35_13 C 0.0092(2) 0.47380(6) 0.94163(7)
C36_13 C 0.4438(2) 0.68755(7) 0.75792(7)
C37_13 C 0.3883(2) 0.67006(7) 0.77463(7)
C38_13 C 0.3861(3) 0.64148(8) 0.77308(10)
H24_13 H 0.420975 0.632418 0.761683
C39_13 C 0.3345(3) 0.62537(8) 0.78762(9)
H25_13 H 0.334562 0.605831 0.785803
C40_13 C 0.2830(2) 0.63806(7) 0.80477(7)
C41_13 C 0.2844(3) 0.66684(7) 0.80652(9)
H26_13 H 0.249731 0.675944 0.817981
C42_13 C 0.3366(2) 0.68268(8) 0.79145(9)
H27_13 H 0.336156 0.702253 0.792890
C43_13 C 0.3873(3) 0.53354(8) 0.80959(11)
C44_13 C 0.3873(3) 0.54819(10) 0.78593(11)
H28_13 H 0.342276 0.557731 0.780392
C45_13 C 0.4549(3) 0.54857(9) 0.77048(10)
H29_13 H 0.455534 0.558940 0.754822
C46_13 C 0.5219(2) 0.53366(8) 0.77808(9)
C47_13 C 0.5167(3) 0.51678(10) 0.80000(10)
H30_13 H 0.557719 0.504466 0.803981
C48_13 C 0.4511(3) 0.51777(11) 0.81637(11)
H31_13 H 0.450838 0.507574 0.832122
C49_13 C 0.5955(2) 0.53412(8) 0.76121(8)
H22_13 H 0.983992 0.528129 0.942235
N7_14 N 0.15072(18) 0.56135(6) 0.37859(6)
H17_14 H 0.183625 0.575117 0.377453
N8_14 N 0.09101(16) 0.59099(5) 0.40713(5)
N10_14 N 0.0398(2) 0.54495(6) 0.40125(8)
N11_14 N 0.02373(18) 0.62396(6) 0.42996(6)
H18_14 H 0.061899 0.634468 0.424588
C26_14 C 0.1665(2) 0.53856(7) 0.36163(7)
C27_14 C 0.1411(3) 0.51126(8) 0.36528(8)
H20_14 H 0.107511 0.507017 0.379303
C28_14 C 0.1651(3) 0.49022(8) 0.34834(8)
H21_14 H 0.149438 0.471729 0.351590
C29_14 C 0.2120(2) 0.49596(7) 0.32662(6)
C30_14 C 0.2353(2) 0.52367(7) 0.32247(7)
H22_14 H 0.266008 0.528129 0.307765
C31_14 C 0.2135(2) 0.54476(7) 0.34002(8)
H23_14 H 0.230488 0.563181 0.337232
C32_14 C 0.0920(2) 0.56519(7) 0.39648(7)
C33_14 C 0.0289(2) 0.59640(6) 0.42212(6)
C35_14 C 0.2408(2) 0.47380(6) 0.30837(7)
H26_14 H 0.000269 0.675944 0.432019
O3_14 O 0.6583(3) 0.54852(9) 0.56125(9)
O5_14 O 0.48625(17) 0.57548(5) 0.50841(5)
O6_14 O 0.60061(18) 0.69636(6) 0.50500(6)
O8_14 O 0.6028(3) 0.60270(8) 0.54368(7)
N1_14 N 0.09928(18) 0.68865(6) 0.37859(6)
H1_14 H 0.066375 0.674883 0.377453
N2_14 N 0.15899(16) 0.65901(5) 0.40713(5)
N3_14 N 0.27534(19) 0.67213(6) 0.42968(7)
N4_14 N 0.2102(2) 0.70505(6) 0.40125(8)
N5_14 N 0.22627(18) 0.62604(6) 0.42996(6)
H2_14 H 0.188101 0.615532 0.424588
N6_14 N 0.3194(2) 0.71808(8) 0.42403(9)
H3_14 H 0.310907 0.734047 0.416439
C1_14 C 0.0835(2) 0.71144(7) 0.36163(7)
C2_14 C 0.1089(3) 0.73874(8) 0.36528(8)
H4_14 H 0.142489 0.742983 0.379303
C3_14 C 0.0849(3) 0.75978(8) 0.34834(8)
H5_14 H 0.100562 0.778271 0.351590
C4_14 C 0.0380(2) 0.75404(7) 0.32662(6)
C5_14 C 0.0147(2) 0.72633(7) 0.32247(7)
C6_14 C 0.0365(2) 0.70524(7) 0.34002(8)
H7_14 H 0.019512 0.686819 0.337232
C7_14 C 0.1580(2) 0.68481(7) 0.39648(7)
C8_14 C 0.2211(2) 0.65360(6) 0.42212(6)
C9_14 C 0.2662(2) 0.69732(8) 0.41894(9)
C10_14 C 0.0092(2) 0.77620(6) 0.30837(7)
C11_14 C 0.4438(2) 0.56245(7) 0.49208(7)
C12_14 C 0.3883(2) 0.57994(7) 0.47537(7)
C13_14 C 0.3861(3) 0.60852(8) 0.47692(10)
H8_14 H 0.420975 0.617582 0.488317
C14_14 C 0.3345(3) 0.62463(8) 0.46238(9)
H9_14 H 0.334562 0.644169 0.464197
C15_14 C 0.2830(2) 0.61194(7) 0.44523(7)
C16_14 C 0.2844(3) 0.58316(7) 0.44348(9)
H10_14 H 0.249731 0.574056 0.432019
C17_14 C 0.3366(2) 0.56732(8) 0.45855(9)
H11_14 H 0.336156 0.547747 0.457110
C18_14 C 0.625000 0.625000 0.53497(11)
H12_14 H 0.625002 0.625001 0.516531
C19_14 C 0.3873(3) 0.71646(8) 0.44041(11)
C20_14 C 0.3873(3) 0.70181(10) 0.46407(11)
H13_14 H 0.342276 0.692269 0.469608
C21_14 C 0.4549(3) 0.70143(9) 0.47952(10)
H14_14 H 0.455534 0.691060 0.495178
C22_14 C 0.5219(2) 0.71634(8) 0.47192(9)
C23_14 C 0.5167(3) 0.73322(10) 0.45000(10)
H15_14 H 0.557719 0.745534 0.446019
C24_14 C 0.4511(3) 0.73223(11) 0.43363(11)
H16_14 H 0.450838 0.742426 0.417878
C25_14 C 0.5955(2) 0.71588(8) 0.48879(8)
O9_14 O 0.6472(3) 0.64730(8) 0.54368(7)
O12_14 O 0.5917(3) 0.70148(9) 0.56125(9)
O14_14 O 0.76375(17) 0.67452(5) 0.50841(5)
O15_14 O 0.64939(18) 0.55364(6) 0.50500(6)
N9_14 N 0.97466(19) 0.57787(6) 0.42968(7)
N12_14 N 0.9306(2) 0.53192(8) 0.42403(9)
H19_14 H 0.939093 0.515953 0.416439
C34_14 C 0.9838(2) 0.55268(8) 0.41894(9)
C36_14 C 0.8062(2) 0.68755(7) 0.49208(7)
C37_14 C 0.8617(2) 0.67006(7) 0.47537(7)
C38_14 C 0.8639(3) 0.64148(8) 0.47692(10)
H24_14 H 0.829025 0.632418 0.488317
C39_14 C 0.9155(3) 0.62537(8) 0.46238(9)
H25_14 H 0.915438 0.605831 0.464197
C40_14 C 0.9670(2) 0.63806(7) 0.44523(7)
C41_14 C 0.9656(3) 0.66684(7) 0.44348(9)
C42_14 C 0.9134(2) 0.68268(8) 0.45855(9)
H27_14 H 0.913844 0.702253 0.457110
C43_14 C 0.8627(3) 0.53354(8) 0.44041(11)
C44_14 C 0.8627(3) 0.54819(10) 0.46407(11)
H28_14 H 0.907724 0.557731 0.469608
C45_14 C 0.7951(3) 0.54857(9) 0.47952(10)
H29_14 H 0.794466 0.558940 0.495178
C46_14 C 0.7281(2) 0.53366(8) 0.47192(9)
C47_14 C 0.7333(3) 0.51678(10) 0.45000(10)
H30_14 H 0.692281 0.504466 0.446019
C48_14 C 0.7989(3) 0.51777(11) 0.43363(11)
H31_14 H 0.799162 0.507574 0.417878
C49_14 C 0.6545(2) 0.53412(8) 0.48879(8)
H6_14 H 0.983992 0.721871 0.307765
N1_15 N 0.15072(18) 0.18865(6) 0.37141(6)
H1_15 H 0.183625 0.174883 0.372547
N2_15 N 0.09101(16) 0.15901(5) 0.34287(5)
N4_15 N 0.0398(2) 0.20505(6) 0.34875(8)
N5_15 N 0.02373(18) 0.12604(6) 0.32004(6)
H2_15 H 0.061899 0.115532 0.325412
C1_15 C 0.1665(2) 0.21144(7) 0.38837(7)
C2_15 C 0.1411(3) 0.23874(8) 0.38472(8)
H4_15 H 0.107511 0.242983 0.370697
C3_15 C 0.1651(3) 0.25978(8) 0.40166(8)
H5_15 H 0.149438 0.278271 0.398410
C4_15 C 0.2120(2) 0.25404(7) 0.42338(6)
C5_15 C 0.2353(2) 0.22633(7) 0.42753(7)
H6_15 H 0.266008 0.221871 0.442235
C6_15 C 0.2135(2) 0.20524(7) 0.40998(8)
H7_15 H 0.230488 0.186819 0.412768
C7_15 C 0.0920(2) 0.18481(7) 0.35352(7)
C8_15 C 0.0289(2) 0.15360(6) 0.32788(6)
C10_15 C 0.2408(2) 0.27620(6) 0.44163(7)
H10_15 H 0.000269 0.074056 0.317981
O3_15 O 0.5917(3) 0.04852(9) 0.18875(9)
O5_15 O 0.76375(17) 0.07548(5) 0.24159(5)
O6_15 O 0.64939(18) 0.19636(6) 0.24500(6)
O8_15 O 0.6472(3) 0.10270(8) 0.20632(7)
N3_15 N 0.97466(19) 0.17213(6) 0.32032(7)
N6_15 N 0.9306(2) 0.21808(8) 0.32597(9)
H3_15 H 0.939093 0.234047 0.333561
C9_15 C 0.9838(2) 0.19732(8) 0.33106(9)
C11_15 C 0.8062(2) 0.06245(7) 0.25792(7)
C12_15 C 0.8617(2) 0.07994(7) 0.27463(7)
C13_15 C 0.8639(3) 0.10852(8) 0.27308(10)
H8_15 H 0.829025 0.117582 0.261683
C14_15 C 0.9155(3) 0.12463(8) 0.28762(9)
H9_15 H 0.915438 0.144169 0.285803
C15_15 C 0.9670(2) 0.11194(7) 0.30477(7)
C16_15 C 0.9656(3) 0.08316(7) 0.30652(9)
C17_15 C 0.9134(2) 0.06732(8) 0.29145(9)
H11_15 H 0.913844 0.047747 0.292890
C18_15 C 0.625000 0.125000 0.21503(11)
H12_15 H 0.624998 0.125001 0.233469
C19_15 C 0.8627(3) 0.21646(8) 0.30959(11)
C20_15 C 0.8627(3) 0.20181(10) 0.28593(11)
H13_15 H 0.907724 0.192269 0.280392
C21_15 C 0.7951(3) 0.20143(9) 0.27048(10)
H14_15 H 0.794466 0.191060 0.254822
C22_15 C 0.7281(2) 0.21634(8) 0.27808(9)
C23_15 C 0.7333(3) 0.23322(10) 0.30000(10)
H15_15 H 0.692281 0.245534 0.303981
C24_15 C 0.7989(3) 0.23223(11) 0.31637(11)
H16_15 H 0.799162 0.242426 0.332122
C25_15 C 0.6545(2) 0.21588(8) 0.26121(8)
O9_15 O 0.6028(3) 0.14730(8) 0.20632(7)
O12_15 O 0.6583(3) 0.20148(9) 0.18875(9)
O14_15 O 0.48625(17) 0.17452(5) 0.24159(5)
O15_15 O 0.60061(18) 0.05364(6) 0.24500(6)
N7_15 N 0.09928(18) 0.06135(6) 0.37141(6)
H17_15 H 0.066375 0.075117 0.372547
N8_15 N 0.15899(16) 0.09099(5) 0.34287(5)
N9_15 N 0.27534(19) 0.07787(6) 0.32032(7)
N10_15 N 0.2102(2) 0.04495(6) 0.34875(8)
N11_15 N 0.22627(18) 0.12396(6) 0.32004(6)
H18_15 H 0.188101 0.134468 0.325412
N12_15 N 0.3194(2) 0.03192(8) 0.32597(9)
H19_15 H 0.310907 0.015953 0.333561
C26_15 C 0.0835(2) 0.03856(7) 0.38837(7)
C27_15 C 0.1089(3) 0.01126(8) 0.38472(8)
H20_15 H 0.142489 0.007017 0.370697
C30_15 C 0.0147(2) 0.02367(7) 0.42753(7)
C31_15 C 0.0365(2) 0.04476(7) 0.40998(8)
H23_15 H 0.019512 0.063181 0.412768
C32_15 C 0.1580(2) 0.06519(7) 0.35352(7)
C33_15 C 0.2211(2) 0.09640(6) 0.32788(6)
C34_15 C 0.2662(2) 0.05268(8) 0.33106(9)
C36_15 C 0.4438(2) 0.18755(7) 0.25792(7)
C37_15 C 0.3883(2) 0.17006(7) 0.27463(7)
C38_15 C 0.3861(3) 0.14148(8) 0.27308(10)
H24_15 H 0.420975 0.132418 0.261683
C39_15 C 0.3345(3) 0.12537(8) 0.28762(9)
H25_15 H 0.334562 0.105831 0.285803
C40_15 C 0.2830(2) 0.13806(7) 0.30477(7)
C41_15 C 0.2844(3) 0.16684(7) 0.30652(9)
H26_15 H 0.249731 0.175944 0.317981
C42_15 C 0.3366(2) 0.18268(8) 0.29145(9)
H27_15 H 0.336156 0.202253 0.292890
C43_15 C 0.3873(3) 0.03354(8) 0.30959(11)
C44_15 C 0.3873(3) 0.04819(10) 0.28593(11)
H28_15 H 0.342276 0.057731 0.280392
C45_15 C 0.4549(3) 0.04857(9) 0.27048(10)
H29_15 H 0.455534 0.058940 0.254822
C46_15 C 0.5219(2) 0.03366(8) 0.27808(9)
C47_15 C 0.5167(3) 0.01678(10) 0.30000(10)
H30_15 H 0.557719 0.004466 0.303981
C48_15 C 0.4511(3) 0.01777(11) 0.31637(11)
H31_15 H 0.450838 0.007574 0.332122
C49_15 C 0.5955(2) 0.03412(8) 0.26121(8)
C28_15 C 0.0849(3) 0.99022(8) 0.40166(8)
H21_15 H 0.100562 0.971729 0.398410
C29_15 C 0.0380(2) 0.99596(7) 0.42338(6)
C35_15 C 0.0092(2) 0.97380(6) 0.44163(7)
H22_15 H 0.983992 0.028129 0.442235
N7_16 N 0.15072(18) 0.06135(6) 0.87859(6)
H17_16 H 0.183625 0.075117 0.877453
N8_16 N 0.09101(16) 0.09099(5) 0.90713(5)
N10_16 N 0.0398(2) 0.04495(6) 0.90125(8)
N11_16 N 0.02373(18) 0.12396(6) 0.92996(6)
H18_16 H 0.061899 0.134468 0.924588
C26_16 C 0.1665(2) 0.03856(7) 0.86163(7)
C27_16 C 0.1411(3) 0.01126(8) 0.86528(8)
H20_16 H 0.107511 0.007017 0.879303
C30_16 C 0.2353(2) 0.02367(7) 0.82247(7)
H22_16 H 0.266008 0.028129 0.807765
C31_16 C 0.2135(2) 0.04476(7) 0.84002(8)
H23_16 H 0.230488 0.063181 0.837232
C32_16 C 0.0920(2) 0.06519(7) 0.89648(7)
C33_16 C 0.0289(2) 0.09640(6) 0.92212(6)
H26_16 H 0.000269 0.175944 0.932019
C28_16 C 0.1651(3) 0.99022(8) 0.84834(8)
H21_16 H 0.149438 0.971729 0.851590
C29_16 C 0.2120(2) 0.99596(7) 0.82662(6)
C35_16 C 0.2408(2) 0.97380(6) 0.80837(7)
O3_16 O 0.6583(3) 0.04852(9) 0.06125(9)
O5_16 O 0.48625(17) 0.07548(5) 0.00841(5)
O6_16 O 0.60061(18) 0.19636(6) 0.00500(6)
O8_16 O 0.6028(3) 0.10270(8) 0.04368(7)
C18_16 C 0.625000 0.125000 0.03497(11)
H12_16 H 0.625002 0.125001 0.016531
O9_16 O 0.6472(3) 0.14730(8) 0.04368(7)
O12_16 O 0.5917(3) 0.20148(9) 0.06125(9)
O14_16 O 0.76375(17) 0.17452(5) 0.00841(5)
O15_16 O 0.64939(18) 0.05364(6) 0.00500(6)
N1_16 N 0.09928(18) 0.18865(6) 0.87859(6)
H1_16 H 0.066375 0.174883 0.877453
N2_16 N 0.15899(16) 0.15901(5) 0.90713(5)
N3_16 N 0.27534(19) 0.17213(6) 0.92968(7)
N4_16 N 0.2102(2) 0.20505(6) 0.90125(8)
N5_16 N 0.22627(18) 0.12604(6) 0.92996(6)
H2_16 H 0.188101 0.115532 0.924588
N6_16 N 0.3194(2) 0.21808(8) 0.92403(9)
H3_16 H 0.310907 0.234047 0.916439
C1_16 C 0.0835(2) 0.21144(7) 0.86163(7)
C2_16 C 0.1089(3) 0.23874(8) 0.86528(8)
H4_16 H 0.142489 0.242983 0.879303
C3_16 C 0.0849(3) 0.25978(8) 0.84834(8)
H5_16 H 0.100562 0.278271 0.851590
C4_16 C 0.0380(2) 0.25404(7) 0.82662(6)
C5_16 C 0.0147(2) 0.22633(7) 0.82247(7)
C6_16 C 0.0365(2) 0.20524(7) 0.84002(8)
H7_16 H 0.019512 0.186819 0.837232
C7_16 C 0.1580(2) 0.18481(7) 0.89648(7)
C8_16 C 0.2211(2) 0.15360(6) 0.92212(6)
C9_16 C 0.2662(2) 0.19732(8) 0.91894(9)
C10_16 C 0.0092(2) 0.27620(6) 0.80837(7)
C11_16 C 0.4438(2) 0.06245(7) 0.99208(7)
C12_16 C 0.3883(2) 0.07994(7) 0.97537(7)
C13_16 C 0.3861(3) 0.10852(8) 0.97692(10)
H8_16 H 0.420975 0.117582 0.988317
C14_16 C 0.3345(3) 0.12463(8) 0.96238(9)
H9_16 H 0.334562 0.144169 0.964197
C15_16 C 0.2830(2) 0.11194(7) 0.94523(7)
C16_16 C 0.2844(3) 0.08316(7) 0.94348(9)
H10_16 H 0.249731 0.074056 0.932019
C17_16 C 0.3366(2) 0.06732(8) 0.95855(9)
H11_16 H 0.336156 0.047747 0.957110
C19_16 C 0.3873(3) 0.21646(8) 0.94041(11)
C20_16 C 0.3873(3) 0.20181(10) 0.96407(11)
H13_16 H 0.342276 0.192269 0.969608
C21_16 C 0.4549(3) 0.20143(9) 0.97952(10)
H14_16 H 0.455534 0.191060 0.995178
C22_16 C 0.5219(2) 0.21634(8) 0.97192(9)
C23_16 C 0.5167(3) 0.23322(10) 0.95000(10)
H15_16 H 0.557719 0.245534 0.946019
C24_16 C 0.4511(3) 0.23223(11) 0.93363(11)
H16_16 H 0.450838 0.242426 0.917878
C25_16 C 0.5955(2) 0.21588(8) 0.98879(8)
N9_16 N 0.97466(19) 0.07787(6) 0.92968(7)
N12_16 N 0.9306(2) 0.03192(8) 0.92403(9)
H19_16 H 0.939093 0.015953 0.916439
C34_16 C 0.9838(2) 0.05268(8) 0.91894(9)
C36_16 C 0.8062(2) 0.18755(7) 0.99208(7)
C37_16 C 0.8617(2) 0.17006(7) 0.97537(7)
C38_16 C 0.8639(3) 0.14148(8) 0.97692(10)
H24_16 H 0.829025 0.132418 0.988317
C39_16 C 0.9155(3) 0.12537(8) 0.96238(9)
H25_16 H 0.915438 0.105831 0.964197
C40_16 C 0.9670(2) 0.13806(7) 0.94523(7)
C41_16 C 0.9656(3) 0.16684(7) 0.94348(9)
C42_16 C 0.9134(2) 0.18268(8) 0.95855(9)
H27_16 H 0.913844 0.202253 0.957110
C43_16 C 0.8627(3) 0.03354(8) 0.94041(11)
C44_16 C 0.8627(3) 0.04819(10) 0.96407(11)
H28_16 H 0.907724 0.057731 0.969608
C45_16 C 0.7951(3) 0.04857(9) 0.97952(10)
H29_16 H 0.794466 0.058940 0.995178
C46_16 C 0.7281(2) 0.03366(8) 0.97192(9)
C47_16 C 0.7333(3) 0.01678(10) 0.95000(10)
H30_16 H 0.692281 0.004466 0.946019
C48_16 C 0.7989(3) 0.01777(11) 0.93363(11)
H31_16 H 0.799162 0.007574 0.917878
C49_16 C 0.6545(2) 0.03412(8) 0.98879(8)
H6_16 H 0.983992 0.221871 0.807765
loop_
_geom_bond_atom_site_label_1
_geom_bond_atom_site_label_2
_geom_bond_site_symmetry_1
_geom_bond_site_symmetry_2
O10 C35 1_555 1_555
O11 C36 1_555 1_555
O13 C35 1_555 1_555
N7 H17 1_555 1_555
N8 C32 1_555 1_555
N9 C33 1_555 1_555
N10 C32 1_555 1_555
N11 H18 1_555 1_555
N12 H19 1_555 1_555
C26 N7 1_555 1_555
C27 C26 1_555 1_555
H20 C27 1_555 1_555
C28 C27 1_555 1_555
H21 C28 1_555 1_555
C29 C28 1_555 1_555
C30 C29 1_555 1_555
H22 C30 1_555 1_555
C31 C26 1_555 1_555
H23 C31 1_555 1_555
C32 N7 1_555 1_555
C33 N8 1_555 1_555
C34 N9 1_555 1_555
C35 C29 1_555 1_555
C36 O14 1_555 1_555
C37 C36 1_555 1_555
C38 C37 1_555 1_555
H24 C38 1_555 1_555
C39 C38 1_555 1_555
H25 C39 1_555 1_555
C40 N11 1_555 1_555
C41 C40 1_555 1_555
H26 C41 1_555 1_555
C42 C37 1_555 1_555
H27 C42 1_555 1_555
C43 N12 1_555 1_555
C44 C43 1_555 1_555
H28 C44 1_555 1_555
C45 C44 1_555 1_555
H29 C45 1_555 1_555
C48 C43 1_555 1_555
H31 C48 1_555 1_555
Mg5 O10 1_555 1_555
Mg7 O10 1_555 1_555
O11 Mg6 1_555 1_555
O13 Mg5 1_555 1_555
N10 C34 1_555 1_555
N11 C33 1_555 1_555
N12 C34 1_555 1_555
C30 C31 1_555 1_555
C39 C40 1_555 1_555
C41 C42 1_555 1_555
Mg1 O3 1_555 1_555
Mg2 O2 1_555 1_555
O1 C10 1_555 1_555
O2 C11 1_555 1_555
O4 C10 1_555 1_555
O5 Mg1 1_555 1_555
O6 C25 1_555 1_555
O7 C25 1_555 1_555
O8 Mg1 1_555 1_555
N1 H1 1_555 1_555
N2 C7 1_555 1_555
N3 C8 1_555 1_555
N4 C7 1_555 1_555
N5 H2 1_555 1_555
N6 H3 1_555 1_555
C1 N1 1_555 1_555
C2 C1 1_555 1_555
H4 C2 1_555 1_555
C3 C2 1_555 1_555
H5 C3 1_555 1_555
C4 C3 1_555 1_555
C5 C4 1_555 1_555
H6 C5 1_555 1_555
C6 C1 1_555 1_555
H7 C6 1_555 1_555
C7 N1 1_555 1_555
C8 N2 1_555 1_555
C9 N3 1_555 1_555
C10 C4 1_555 1_555
C11 O5 1_555 1_555
C12 C11 1_555 1_555
C13 C12 1_555 1_555
H8 C13 1_555 1_555
C14 C13 1_555 1_555
H9 C14 1_555 1_555
C15 N5 1_555 1_555
C16 C15 1_555 1_555
H10 C16 1_555 1_555
C17 C12 1_555 1_555
H11 C17 1_555 1_555
C18 O8 1_555 1_555
H12 C18 1_555 1_555
C19 N6 1_555 1_555
C20 C19 1_555 1_555
H13 C20 1_555 1_555
C21 C20 1_555 1_555
H14 C21 1_555 1_555
C22 C21 1_555 1_555
C23 C22 1_555 1_555
H15 C23 1_555 1_555
C24 C19 1_555 1_555
H16 C24 1_555 1_555
C25 C22 1_555 1_555
O9 C18 1_555 1_555
Mg3 O6 1_555 1_555
O12 Mg3 1_555 1_555
O15 Mg1 1_555 1_555
O16 Mg2 1_555 1_555
C47 C46 1_555 1_555
H30 C47 1_555 1_555
C49 O15 1_555 1_555
Mg4 O1 1_555 1_555
Mg6_2 O7 1_555 1_555
Mg8 O1 1_555 1_555
O17 Mg2 1_555 1_555
O18 Mg1 1_555 1_555
O19 Mg3 1_555 1_555
O20 Mg2 1_555 1_555
O21 Mg1 1_555 1_555
O23 Mg2 1_555 1_555
Mg2 O18 1_555 1_555
O4 Mg4 1_555 1_555
N4 C9 1_555 1_555
N5 C8 1_555 1_555
N6 C9 1_555 1_555
C5 C6 1_555 1_555
C14 C15 1_555 1_555
C16 C17 1_555 1_555
C23 C24 1_555 1_555
O9 Mg3 1_555 1_555
O16 C49 1_555 1_555
C46 C49 1_555 1_555
Mg6_2 O19 1_555 1_555
O17_2 Mg6 1_555 1_555
O23_2 Mg6 1_555 1_555
O20_2 Mg6_2 1_555 1_555
Mg2_2 O2_2 1_555 1_555
O1_2 C10_2 1_555 1_555
O2_2 C11_2 1_555 1_555
O4_2 C10_2 1_555 1_555
N1_2 H1_2 1_555 1_555
N2_2 C7_2 1_555 1_555
N3_2 C8_2 1_555 1_555
N4_2 C7_2 1_555 1_555
N5_2 H2_2 1_555 1_555
N6_2 H3_2 1_555 1_555
C1_2 N1_2 1_555 1_555
C2_2 C1_2 1_555 1_555
H4_2 C2_2 1_555 1_555
C3_2 C2_2 1_555 1_555
H5_2 C3_2 1_555 1_555
C4_2 C3_2 1_555 1_555
C5_2 C4_2 1_555 1_555
H6_2 C5_2 1_555 1_555
C6_2 C1_2 1_555 1_555
H7_2 C6_2 1_555 1_555
C7_2 N1_2 1_555 1_555
C8_2 N2_2 1_555 1_555
C9_2 N3_2 1_555 1_555
C10_2 C4_2 1_555 1_555
C12_2 C11_2 1_555 1_555
C13_2 C12_2 1_555 1_555
H8_2 C13_2 1_555 1_555
C14_2 C13_2 1_555 1_555
H9_2 C14_2 1_555 1_555
C15_2 N5_2 1_555 1_555
C16_2 C15_2 1_555 1_555
H10_2 C16_2 1_555 1_555
C17_2 C12_2 1_555 1_555
H11_2 C17_2 1_555 1_555
C19_2 N6_2 1_555 1_555
C20_2 C19_2 1_555 1_555
H13_2 C20_2 1_555 1_555
C21_2 C20_2 1_555 1_555
H14_2 C21_2 1_555 1_555
C24_2 C19_2 1_555 1_555
H16_2 C24_2 1_555 1_555
Mg4_2 O1_2 1_555 1_555
Mg8_2 O1_2 1_555 1_555
O17_3 Mg2_2 1_555 1_555
O4_2 Mg4_2 1_555 1_555
N4_2 C9_2 1_555 1_555
N5_2 C8_2 1_555 1_555
N6_2 C9_2 1_555 1_555
C5_2 C6_2 1_555 1_555
C14_2 C15_2 1_555 1_555
C16_2 C17_2 1_555 1_555
O23_3 Mg2_3 1_555 1_555
O7_2 C25_2 1_555 1_555
C23_2 C22_2 1_555 1_555
H15_2 C23_2 1_555 1_555
C25_2 C22_2 1_555 1_555
O10_2 C35_2 1_555 1_555
O11_2 C36_2 1_555 1_555
O13_2 C35_2 1_555 1_555
O16_2 Mg2_4 1_555 1_555
N7_2 H17_2 1_555 1_555
N8_2 C32_2 1_555 1_555
N9_2 C33_2 1_555 1_555
N10_2 C32_2 1_555 1_555
N11_2 H18_2 1_555 1_555
N12_2 H19_2 1_555 1_555
C26_2 N7_2 1_555 1_555
C27_2 C26_2 1_555 1_555
H20_2 C27_2 1_555 1_555
C28_2 C27_2 1_555 1_555
H21_2 C28_2 1_555 1_555
C29_2 C28_2 1_555 1_555
C30_2 C29_2 1_555 1_555
H22_2 C30_2 1_555 1_555
C31_2 C26_2 1_555 1_555
H23_2 C31_2 1_555 1_555
C32_2 N7_2 1_555 1_555
C33_2 N8_2 1_555 1_555
C34_2 N9_2 1_555 1_555
C35_2 C29_2 1_555 1_555
C37_2 C36_2 1_555 1_555
C38_2 C37_2 1_555 1_555
H24_2 C38_2 1_555 1_555
C39_2 C38_2 1_555 1_555
H25_2 C39_2 1_555 1_555
C40_2 N11_2 1_555 1_555
C41_2 C40_2 1_555 1_555
H26_2 C41_2 1_555 1_555
C42_2 C37_2 1_555 1_555
H27_2 C42_2 1_555 1_555
C43_2 N12_2 1_555 1_555
C44_2 C43_2 1_555 1_555
H28_2 C44_2 1_555 1_555
C45_2 C44_2 1_555 1_555
H29_2 C45_2 1_555 1_555
C46_2 C45_2 1_555 1_555
C47_2 C46_2 1_555 1_555
H30_2 C47_2 1_555 1_555
C48_2 C43_2 1_555 1_555
H31_2 C48_2 1_555 1_555
Mg5_2 O10_2 1_555 1_555
Mg6_3 O7_2 1_555 1_555
Mg7_2 O10_2 1_555 1_555
O11_2 Mg6_3 1_555 1_555
O13_2 Mg5_2 1_555 1_555
O16_2 C49_2 1_555 1_555
N10_2 C34_2 1_555 1_555
N11_2 C33_2 1_555 1_555
N12_2 C34_2 1_555 1_555
C30_2 C31_2 1_555 1_555
C39_2 C40_2 1_555 1_555
C41_2 C42_2 1_555 1_555
C46_2 C49_2 1_555 1_555
C47_2 C48_2 1_555 1_555
Mg1_2 O3_2 1_555 1_555
O8_2 Mg1_2 1_555 1_555
C18_2 O8_2 1_555 1_555
H12_2 C18_2 1_555 1_555
O9_2 C18_2 1_555 1_555
Mg3_2 O6_2 1_555 1_555
O12_2 Mg3_2 1_555 1_555
O14_2 Mg3_2 1_555 1_555
O15_2 Mg1_2 1_555 1_555
O18_2 Mg1_2 1_555 1_555
O19_2 Mg3_2 1_555 1_555
O20_3 Mg2_5 1_555 1_555
O22_2 Mg3_2 1_555 1_555
Mg2_5 O18_2 1_555 1_555
O9_2 Mg3_2 1_555 1_555
Mg6_4 O19_2 1_555 1_555
O17_4 Mg6_3 1_555 1_555
O20_4 Mg6_4 1_555 1_555
O23_4 Mg6_4 1_555 1_555
O10_3 C35_3 1_555 1_555
O13_3 C35_3 1_555 1_555
H21_3 C28_3 1_555 1_555
C29_3 C28_3 1_555 1_555
C35_3 C29_3 1_555 1_555
Mg5_3 O10_3 1_555 1_555
Mg7_3 O10_3 1_555 1_555
O13_3 Mg5_3 1_555 1_555
O11_3 C36_3 1_555 1_555
N7_3 H17_3 1_555 1_555
N8_3 C32_3 1_555 1_555
N9_3 C33_3 1_555 1_555
N10_3 C32_3 1_555 1_555
N11_3 H18_3 1_555 1_555
N12_3 H19_3 1_555 1_555
C26_3 N7_3 1_555 1_555
C27_3 C26_3 1_555 1_555
H20_3 C27_3 1_555 1_555
H22_3 C30_3 1_555 1_555
C31_3 C26_3 1_555 1_555
H23_3 C31_3 1_555 1_555
C32_3 N7_3 1_555 1_555
C33_3 N8_3 1_555 1_555
C34_3 N9_3 1_555 1_555
C36_3 O14_3 1_555 1_555
C37_3 C36_3 1_555 1_555
C38_3 C37_3 1_555 1_555
H24_3 C38_3 1_555 1_555
C39_3 C38_3 1_555 1_555
H25_3 C39_3 1_555 1_555
C40_3 N11_3 1_555 1_555
C41_3 C40_3 1_555 1_555
H26_3 C41_3 1_555 1_555
C42_3 C37_3 1_555 1_555
H27_3 C42_3 1_555 1_555
C43_3 N12_3 1_555 1_555
C44_3 C43_3 1_555 1_555
H28_3 C44_3 1_555 1_555
C45_3 C44_3 1_555 1_555
H29_3 C45_3 1_555 1_555
C48_3 C43_3 1_555 1_555
H31_3 C48_3 1_555 1_555
O11_3 Mg6_5 1_555 1_555
N10_3 C34_3 1_555 1_555
N11_3 C33_3 1_555 1_555
N12_3 C34_3 1_555 1_555
C30_3 C31_3 1_555 1_555
C39_3 C40_3 1_555 1_555
C41_3 C42_3 1_555 1_555
O17_5 Mg2_6 1_555 1_555
O20_5 Mg2_6 1_555 1_555
O23_5 Mg2_6 1_555 1_555
Mg1_3 O3_3 1_555 1_555
Mg2_7 O2_3 1_555 1_555
O1_3 C10_3 1_555 1_555
O2_3 C11_3 1_555 1_555
O4_3 C10_3 1_555 1_555
O5_3 Mg1_3 1_555 1_555
O6_3 C25_3 1_555 1_555
O7_3 C25_3 1_555 1_555
O8_3 Mg1_3 1_555 1_555
N1_3 H1_3 1_555 1_555
N2_3 C7_3 1_555 1_555
N3_3 C8_3 1_555 1_555
N4_3 C7_3 1_555 1_555
N5_3 H2_3 1_555 1_555
N6_3 H3_3 1_555 1_555
C1_3 N1_3 1_555 1_555
C2_3 C1_3 1_555 1_555
H4_3 C2_3 1_555 1_555
C3_3 C2_3 1_555 1_555
H5_3 C3_3 1_555 1_555
C4_3 C3_3 1_555 1_555
C5_3 C4_3 1_555 1_555
H6_3 C5_3 1_555 1_555
C6_3 C1_3 1_555 1_555
H7_3 C6_3 1_555 1_555
C7_3 N1_3 1_555 1_555
C8_3 N2_3 1_555 1_555
C9_3 N3_3 1_555 1_555
C10_3 C4_3 1_555 1_555
C11_3 O5_3 1_555 1_555
C12_3 C11_3 1_555 1_555
C13_3 C12_3 1_555 1_555
H8_3 C13_3 1_555 1_555
C14_3 C13_3 1_555 1_555
H9_3 C14_3 1_555 1_555
C15_3 N5_3 1_555 1_555
C16_3 C15_3 1_555 1_555
H10_3 C16_3 1_555 1_555
C17_3 C12_3 1_555 1_555
H11_3 C17_3 1_555 1_555
C18_3 O8_3 1_555 1_555
H12_3 C18_3 1_555 1_555
C19_3 N6_3 1_555 1_555
C20_3 C19_3 1_555 1_555
H13_3 C20_3 1_555 1_555
C21_3 C20_3 1_555 1_555
H14_3 C21_3 1_555 1_555
C22_3 C21_3 1_555 1_555
C23_3 C22_3 1_555 1_555
H15_3 C23_3 1_555 1_555
C24_3 C19_3 1_555 1_555
H16_3 C24_3 1_555 1_555
C25_3 C22_3 1_555 1_555
O9_3 C18_3 1_555 1_555
Mg3_3 O6_3 1_555 1_555
O12_3 Mg3_3 1_555 1_555
O15_3 Mg1_3 1_555 1_555
O16_3 Mg2_7 1_555 1_555
C47_3 C46_3 1_555 1_555
H30_3 C47_3 1_555 1_555
C49_3 O15_3 1_555 1_555
Mg4_3 O1_3 1_555 1_555
Mg6_6 O7_3 1_555 1_555
Mg8_3 O1_3 1_555 1_555
O18_3 Mg1_3 1_555 1_555
O19_3 Mg3_3 1_555 1_555
O21_3 Mg1_3 1_555 1_555
Mg2_7 O18_3 1_555 1_555
O4_3 Mg4_3 1_555 1_555
N4_3 C9_3 1_555 1_555
N5_3 C8_3 1_555 1_555
N6_3 C9_3 1_555 1_555
C5_3 C6_3 1_555 1_555
C14_3 C15_3 1_555 1_555
C16_3 C17_3 1_555 1_555
C23_3 C24_3 1_555 1_555
O9_3 Mg3_3 1_555 1_555
O16_3 C49_3 1_555 1_555
C46_3 C49_3 1_555 1_555
Mg6_6 O19_3 1_555 1_555
O17_6 Mg6_5 1_555 1_555
O23_6 Mg6_5 1_555 1_555
O20_6 Mg6_6 1_555 1_555
O17_7 Mg2_8 1_555 1_555
O23_7 Mg2_8 1_555 1_555
Mg2_9 O2_4 1_555 1_555
O1_4 C10_4 1_555 1_555
O2_4 C11_4 1_555 1_555
O4_4 C10_4 1_555 1_555
N1_4 H1_4 1_555 1_555
N2_4 C7_4 1_555 1_555
N3_4 C8_4 1_555 1_555
N4_4 C7_4 1_555 1_555
N5_4 H2_4 1_555 1_555
N6_4 H3_4 1_555 1_555
C1_4 N1_4 1_555 1_555
C2_4 C1_4 1_555 1_555
H4_4 C2_4 1_555 1_555
C3_4 C2_4 1_555 1_555
H5_4 C3_4 1_555 1_555
C4_4 C3_4 1_555 1_555
C5_4 C4_4 1_555 1_555
H6_4 C5_4 1_555 1_555
C6_4 C1_4 1_555 1_555
H7_4 C6_4 1_555 1_555
C7_4 N1_4 1_555 1_555
C8_4 N2_4 1_555 1_555
C9_4 N3_4 1_555 1_555
C10_4 C4_4 1_555 1_555
C11_4 O5_4 1_555 1_555
C12_4 C11_4 1_555 1_555
C13_4 C12_4 1_555 1_555
H8_4 C13_4 1_555 1_555
C14_4 C13_4 1_555 1_555
H9_4 C14_4 1_555 1_555
C15_4 N5_4 1_555 1_555
C16_4 C15_4 1_555 1_555
H10_4 C16_4 1_555 1_555
C17_4 C12_4 1_555 1_555
H11_4 C17_4 1_555 1_555
C19_4 N6_4 1_555 1_555
C20_4 C19_4 1_555 1_555
H13_4 C20_4 1_555 1_555
C21_4 C20_4 1_555 1_555
H14_4 C21_4 1_555 1_555
C24_4 C19_4 1_555 1_555
H16_4 C24_4 1_555 1_555
Mg4_4 O1_4 1_555 1_555
Mg8_5 O1_4 1_555 1_555
O4_4 Mg4_4 1_555 1_555
N4_4 C9_4 1_555 1_555
N5_4 C8_4 1_555 1_555
N6_4 C9_4 1_555 1_555
C5_4 C6_4 1_555 1_555
C14_4 C15_4 1_555 1_555
C16_4 C17_4 1_555 1_555
O10_4 C35_4 1_555 1_555
O13_4 C35_4 1_555 1_555
H21_4 C28_4 1_555 1_555
C29_4 C28_4 1_555 1_555
C35_4 C29_4 1_555 1_555
Mg5_4 O10_4 1_555 1_555
Mg7_7 O10_4 1_555 1_555
O20_7 Mg2_10 1_555 1_555
O13_4 Mg5_4 1_555 1_555
Mg1_4 O3_4 1_555 1_555
O6_4 C25_4 1_555 1_555
O7_4 C25_4 1_555 1_555
O8_4 Mg1_4 1_555 1_555
C18_4 O8_4 1_555 1_555
H12_4 C18_4 1_555 1_555
C23_4 C22_4 1_555 1_555
H15_4 C23_4 1_555 1_555
C25_4 C22_4 1_555 1_555
O9_4 C18_4 1_555 1_555
Mg3_4 O6_4 1_555 1_555
O11_4 C36_4 1_555 1_555
O12_4 Mg3_4 1_555 1_555
O14_4 Mg3_4 1_555 1_555
O15_4 Mg1_4 1_555 1_555
O16_4 Mg2_11 1_555 1_555
N7_4 H17_4 1_555 1_555
N8_4 C32_4 1_555 1_555
N9_4 C33_4 1_555 1_555
N10_4 C32_4 1_555 1_555
N11_4 H18_4 1_555 1_555
N12_4 H19_4 1_555 1_555
C26_4 N7_4 1_555 1_555
C27_4 C26_4 1_555 1_555
H20_4 C27_4 1_555 1_555
H22_4 C30_4 1_555 1_555
C31_4 C26_4 1_555 1_555
H23_4 C31_4 1_555 1_555
C32_4 N7_4 1_555 1_555
C33_4 N8_4 1_555 1_555
C34_4 N9_4 1_555 1_555
C36_4 O14_4 1_555 1_555
C37_4 C36_4 1_555 1_555
C38_4 C37_4 1_555 1_555
H24_4 C38_4 1_555 1_555
C39_4 C38_4 1_555 1_555
H25_4 C39_4 1_555 1_555
C40_4 N11_4 1_555 1_555
C41_4 C40_4 1_555 1_555
H26_4 C41_4 1_555 1_555
C42_4 C37_4 1_555 1_555
H27_4 C42_4 1_555 1_555
C43_4 N12_4 1_555 1_555
C44_4 C43_4 1_555 1_555
H28_4 C44_4 1_555 1_555
C45_4 C44_4 1_555 1_555
H29_4 C45_4 1_555 1_555
C46_4 C45_4 1_555 1_555
C47_4 C46_4 1_555 1_555
H30_4 C47_4 1_555 1_555
C48_4 C43_4 1_555 1_555
H31_4 C48_4 1_555 1_555
C49_4 O15_4 1_555 1_555
Mg6_7 O7_4 1_555 1_555
O18_4 Mg1_4 1_555 1_555
O19_4 Mg3_4 1_555 1_555
O22_4 Mg3_4 1_555 1_555
Mg2_11 O18_4 1_555 1_555
O9_4 Mg3_4 1_555 1_555
O11_4 Mg6_7 1_555 1_555
O16_4 C49_4 1_555 1_555
N10_4 C34_4 1_555 1_555
N11_4 C33_4 1_555 1_555
N12_4 C34_4 1_555 1_555
C30_4 C31_4 1_555 1_555
C39_4 C40_4 1_555 1_555
C41_4 C42_4 1_555 1_555
C46_4 C49_4 1_555 1_555
C47_4 C48_4 1_555 1_555
Mg6_7 O19_4 1_555 1_555
O17_8 Mg6_7 1_555 1_555
O20_8 Mg6_7 1_555 1_555
O23_8 Mg6_7 1_555 1_555
Mg5_5 O17_3 1_555 1_555
Mg1_5 O3_5 1_555 1_555
Mg7_2 O2_5 1_555 1_555
O2_5 C11_5 1_555 1_555
O5_5 Mg1_5 1_555 1_555
O6_5 C25_5 1_555 1_555
O7_5 C25_5 1_555 1_555
O8_5 Mg1_5 1_555 1_555
N6_5 H3_5 1_555 1_555
C9_5 N3_5 1_555 1_555
C11_5 O5_5 1_555 1_555
C12_5 C11_5 1_555 1_555
C13_5 C12_5 1_555 1_555
H8_5 C13_5 1_555 1_555
C14_5 C13_5 1_555 1_555
H9_5 C14_5 1_555 1_555
C16_5 C15_5 1_555 1_555
C17_5 C12_5 1_555 1_555
H11_5 C17_5 1_555 1_555
C18_5 O8_5 1_555 1_555
H12_5 C18_5 1_555 1_555
C19_5 N6_5 1_555 1_555
C20_5 C19_5 1_555 1_555
H13_5 C20_5 1_555 1_555
C21_5 C20_5 1_555 1_555
H14_5 C21_5 1_555 1_555
C22_5 C21_5 1_555 1_555
C23_5 C22_5 1_555 1_555
H15_5 C23_5 1_555 1_555
C24_5 C19_5 1_555 1_555
H16_5 C24_5 1_555 1_555
C25_5 C22_5 1_555 1_555
O9_5 C18_5 1_555 1_555
Mg3_5 O6_5 1_555 1_555
O11_5 C36_5 1_555 1_555
O12_5 Mg3_5 1_555 1_555
O13_5 C35_5 1_555 1_555
O14_5 Mg3_5 1_555 1_555
O15_5 Mg1_5 1_555 1_555
O16_5 Mg7_2 1_555 1_555
N7_5 H17_5 1_555 1_555
N8_5 C32_5 1_555 1_555
N9_5 C33_5 1_555 1_555
N10_5 C32_5 1_555 1_555
N11_5 H18_5 1_555 1_555
N12_5 H19_5 1_555 1_555
C26_5 N7_5 1_555 1_555
C27_5 C26_5 1_555 1_555
H20_5 C27_5 1_555 1_555
C28_5 C27_5 1_555 1_555
H21_5 C28_5 1_555 1_555
C29_5 C28_5 1_555 1_555
C30_5 C29_5 1_555 1_555
C31_5 C26_5 1_555 1_555
H23_5 C31_5 1_555 1_555
C32_5 N7_5 1_555 1_555
C33_5 N8_5 1_555 1_555
C34_5 N9_5 1_555 1_555
C35_5 C29_5 1_555 1_555
C36_5 O14_5 1_555 1_555
C37_5 C36_5 1_555 1_555
C38_5 C37_5 1_555 1_555
H24_5 C38_5 1_555 1_555
C39_5 C38_5 1_555 1_555
H25_5 C39_5 1_555 1_555
C40_5 N11_5 1_555 1_555
C41_5 C40_5 1_555 1_555
H26_5 C41_5 1_555 1_555
C42_5 C37_5 1_555 1_555
H27_5 C42_5 1_555 1_555
C43_5 N12_5 1_555 1_555
C44_5 C43_5 1_555 1_555
H28_5 C44_5 1_555 1_555
C45_5 C44_5 1_555 1_555
H29_5 C45_5 1_555 1_555
C46_5 C45_5 1_555 1_555
C47_5 C46_5 1_555 1_555
H30_5 C47_5 1_555 1_555
C48_5 C43_5 1_555 1_555
H31_5 C48_5 1_555 1_555
C49_5 O15_5 1_555 1_555
Mg8_2 O7_5 1_555 1_555
O18_5 Mg1_5 1_555 1_555
O19_5 Mg3_5 1_555 1_555
O20_9 Mg7_2 1_555 1_555
O21_5 Mg1_5 1_555 1_555
O22_5 Mg3_5 1_555 1_555
O23_9 Mg7_2 1_555 1_555
Mg7_2 O18_5 1_555 1_555
N6_5 C9_5 1_555 1_555
C14_5 C15_5 1_555 1_555
C16_5 C17_5 1_555 1_555
C23_5 C24_5 1_555 1_555
O9_5 Mg3_5 1_555 1_555
O11_5 Mg8_2 1_555 1_555
O16_5 C49_5 1_555 1_555
N10_5 C34_5 1_555 1_555
N11_5 C33_5 1_555 1_555
N12_5 C34_5 1_555 1_555
C30_5 C31_5 1_555 1_555
C39_5 C40_5 1_555 1_555
C41_5 C42_5 1_555 1_555
C46_5 C49_5 1_555 1_555
C47_5 C48_5 1_555 1_555
Mg8_2 O19_5 1_555 1_555
O17_4 C10_5 1_555 1_555
O4_5 C10_5 1_555 1_555
N1_5 H1_5 1_555 1_555
N2_5 C7_5 1_555 1_555
N4_5 C7_5 1_555 1_555
N5_5 H2_5 1_555 1_555
C1_5 N1_5 1_555 1_555
C2_5 C1_5 1_555 1_555
H4_5 C2_5 1_555 1_555
C3_5 C2_5 1_555 1_555
H5_5 C3_5 1_555 1_555
C4_5 C3_5 1_555 1_555
C5_5 C4_5 1_555 1_555
H6_5 C5_5 1_555 1_555
C6_5 C1_5 1_555 1_555
H7_5 C6_5 1_555 1_555
C7_5 N1_5 1_555 1_555
C8_5 N2_5 1_555 1_555
C10_5 C4_5 1_555 1_555
Mg4_5 O17_4 1_555 1_555
O4_5 Mg4_5 1_555 1_555
N5_5 C8_5 1_555 1_555
C5_5 C6_5 1_555 1_555
O20_10 Mg8_2 1_555 1_555
O23_10 Mg8_2 1_555 1_555
Mg4_6 O17_2 1_555 1_555
Mg1_6 O3_6 1_555 1_555
Mg7 O2_6 1_555 1_555
O2_6 C11_6 1_555 1_555
O4_6 C10_6 1_555 1_555
O5_6 Mg1_6 1_555 1_555
O6_6 C25_6 1_555 1_555
O7_6 C25_6 1_555 1_555
O8_6 Mg1_6 1_555 1_555
N1_6 H1_6 1_555 1_555
N2_6 C7_6 1_555 1_555
N3_6 C8_6 1_555 1_555
N4_6 C7_6 1_555 1_555
N5_6 H2_6 1_555 1_555
N6_6 H3_6 1_555 1_555
C1_6 N1_6 1_555 1_555
C2_6 C1_6 1_555 1_555
H4_6 C2_6 1_555 1_555
C3_6 C2_6 1_555 1_555
H5_6 C3_6 1_555 1_555
C4_6 C3_6 1_555 1_555
C5_6 C4_6 1_555 1_555
C6_6 C1_6 1_555 1_555
H7_6 C6_6 1_555 1_555
C7_6 N1_6 1_555 1_555
C8_6 N2_6 1_555 1_555
C9_6 N3_6 1_555 1_555
C10_6 C4_6 1_555 1_555
C11_6 O5_6 1_555 1_555
C12_6 C11_6 1_555 1_555
C13_6 C12_6 1_555 1_555
H8_6 C13_6 1_555 1_555
C14_6 C13_6 1_555 1_555
H9_6 C14_6 1_555 1_555
C15_6 N5_6 1_555 1_555
C16_6 C15_6 1_555 1_555
H10_6 C16_6 1_555 1_555
C17_6 C12_6 1_555 1_555
H11_6 C17_6 1_555 1_555
C18_6 O8_6 1_555 1_555
H12_6 C18_6 1_555 1_555
C19_6 N6_6 1_555 1_555
C20_6 C19_6 1_555 1_555
H13_6 C20_6 1_555 1_555
C21_6 C20_6 1_555 1_555
H14_6 C21_6 1_555 1_555
C22_6 C21_6 1_555 1_555
C23_6 C22_6 1_555 1_555
H15_6 C23_6 1_555 1_555
C24_6 C19_6 1_555 1_555
H16_6 C24_6 1_555 1_555
C25_6 C22_6 1_555 1_555
O9_6 C18_6 1_555 1_555
Mg3_6 O6_6 1_555 1_555
O11_6 C36_6 1_555 1_555
O12_6 Mg3_6 1_555 1_555
O14_6 Mg3_6 1_555 1_555
O15_6 Mg1_6 1_555 1_555
O16_6 Mg7 1_555 1_555
N12_6 H19_6 1_555 1_555
C34_6 N9_6 1_555 1_555
C36_6 O14_6 1_555 1_555
C37_6 C36_6 1_555 1_555
C38_6 C37_6 1_555 1_555
H24_6 C38_6 1_555 1_555
C39_6 C38_6 1_555 1_555
H25_6 C39_6 1_555 1_555
C41_6 C40_6 1_555 1_555
C42_6 C37_6 1_555 1_555
H27_6 C42_6 1_555 1_555
C43_6 N12_6 1_555 1_555
C44_6 C43_6 1_555 1_555
H28_6 C44_6 1_555 1_555
C45_6 C44_6 1_555 1_555
H29_6 C45_6 1_555 1_555
C46_6 C45_6 1_555 1_555
C47_6 C46_6 1_555 1_555
H30_6 C47_6 1_555 1_555
C48_6 C43_6 1_555 1_555
H31_6 C48_6 1_555 1_555
C49_6 O15_6 1_555 1_555
Mg8 O7_6 1_555 1_555
O18_6 Mg1_6 1_555 1_555
O19_6 Mg3_6 1_555 1_555
O20_11 Mg7 1_555 1_555
O21_6 Mg1_6 1_555 1_555
O22_6 Mg3_6 1_555 1_555
O23_11 Mg7 1_555 1_555
Mg7 O18_6 1_555 1_555
N4_6 C9_6 1_555 1_555
N5_6 C8_6 1_555 1_555
N6_6 C9_6 1_555 1_555
C5_6 C6_6 1_555 1_555
C14_6 C15_6 1_555 1_555
C16_6 C17_6 1_555 1_555
C23_6 C24_6 1_555 1_555
O9_6 Mg3_6 1_555 1_555
O11_6 Mg8 1_555 1_555
O16_6 C49_6 1_555 1_555
N12_6 C34_6 1_555 1_555
C39_6 C40_6 1_555 1_555
C41_6 C42_6 1_555 1_555
C46_6 C49_6 1_555 1_555
C47_6 C48_6 1_555 1_555
Mg8 O19_6 1_555 1_555
O17 C35_6 1_555 1_555
O13_6 C35_6 1_555 1_555
N7_6 H17_6 1_555 1_555
N8_6 C32_6 1_555 1_555
N10_6 C32_6 1_555 1_555
N11_6 H18_6 1_555 1_555
C26_6 N7_6 1_555 1_555
C27_6 C26_6 1_555 1_555
H20_6 C27_6 1_555 1_555
C28_6 C27_6 1_555 1_555
H21_6 C28_6 1_555 1_555
C29_6 C28_6 1_555 1_555
C30_6 C29_6 1_555 1_555
H22_6 C30_6 1_555 1_555
C31_6 C26_6 1_555 1_555
H23_6 C31_6 1_555 1_555
C32_6 N7_6 1_555 1_555
C33_6 N8_6 1_555 1_555
C35_6 C29_6 1_555 1_555
Mg5_6 O17 1_555 1_555
O13_6 Mg5_6 1_555 1_555
N11_6 C33_6 1_555 1_555
C30_6 C31_6 1_555 1_555
O20_12 Mg8 1_555 1_555
O23_12 Mg8 1_555 1_555
Mg5_7 O17_7 1_555 1_555
O13_7 C35_7 1_555 1_555
H21_7 C28_7 1_555 1_555
C29_7 C28_7 1_555 1_555
C35_7 C29_7 1_555 1_555
O20_13 Mg7_7 1_555 1_555
O23_13 Mg7_7 1_555 1_555
Mg1_7 O3_7 1_555 1_555
Mg7_8 O2_7 1_555 1_555
O2_7 C11_7 1_555 1_555
O5_7 Mg1_7 1_555 1_555
O6_7 C25_7 1_555 1_555
O7_7 C25_7 1_555 1_555
O8_7 Mg1_7 1_555 1_555
N6_7 H3_7 1_555 1_555
C9_7 N3_7 1_555 1_555
C11_7 O5_7 1_555 1_555
C12_7 C11_7 1_555 1_555
C13_7 C12_7 1_555 1_555
H8_7 C13_7 1_555 1_555
C14_7 C13_7 1_555 1_555
H9_7 C14_7 1_555 1_555
C16_7 C15_7 1_555 1_555
C17_7 C12_7 1_555 1_555
H11_7 C17_7 1_555 1_555
C18_7 O8_7 1_555 1_555
H12_7 C18_7 1_555 1_555
C19_7 N6_7 1_555 1_555
C20_7 C19_7 1_555 1_555
H13_7 C20_7 1_555 1_555
C21_7 C20_7 1_555 1_555
H14_7 C21_7 1_555 1_555
C22_7 C21_7 1_555 1_555
C23_7 C22_7 1_555 1_555
H15_7 C23_7 1_555 1_555
C24_7 C19_7 1_555 1_555
H16_7 C24_7 1_555 1_555
C25_7 C22_7 1_555 1_555
O9_7 C18_7 1_555 1_555
Mg3_7 O6_7 1_555 1_555
O11_7 C36_7 1_555 1_555
O12_7 Mg3_7 1_555 1_555
O14_7 Mg3_7 1_555 1_555
O15_7 Mg1_7 1_555 1_555
O16_7 Mg7_8 1_555 1_555
N7_7 H17_7 1_555 1_555
N8_7 C32_7 1_555 1_555
N9_7 C33_7 1_555 1_555
N10_7 C32_7 1_555 1_555
N11_7 H18_7 1_555 1_555
N12_7 H19_7 1_555 1_555
C26_7 N7_7 1_555 1_555
C27_7 C26_7 1_555 1_555
H20_7 C27_7 1_555 1_555
C31_7 C26_7 1_555 1_555
H23_7 C31_7 1_555 1_555
C32_7 N7_7 1_555 1_555
C33_7 N8_7 1_555 1_555
C34_7 N9_7 1_555 1_555
C36_7 O14_7 1_555 1_555
C37_7 C36_7 1_555 1_555
C38_7 C37_7 1_555 1_555
H24_7 C38_7 1_555 1_555
C39_7 C38_7 1_555 1_555
H25_7 C39_7 1_555 1_555
C40_7 N11_7 1_555 1_555
C41_7 C40_7 1_555 1_555
H26_7 C41_7 1_555 1_555
C42_7 C37_7 1_555 1_555
H27_7 C42_7 1_555 1_555
C43_7 N12_7 1_555 1_555
C44_7 C43_7 1_555 1_555
H28_7 C44_7 1_555 1_555
C45_7 C44_7 1_555 1_555
H29_7 C45_7 1_555 1_555
C46_7 C45_7 1_555 1_555
C47_7 C46_7 1_555 1_555
H30_7 C47_7 1_555 1_555
C48_7 C43_7 1_555 1_555
H31_7 C48_7 1_555 1_555
C49_7 O15_7 1_555 1_555
Mg8_5 O7_7 1_555 1_555
O18_7 Mg1_7 1_555 1_555
O19_7 Mg3_7 1_555 1_555
O21_7 Mg1_7 1_555 1_555
O22_7 Mg3_7 1_555 1_555
Mg7_8 O18_7 1_555 1_555
N6_7 C9_7 1_555 1_555
C14_7 C15_7 1_555 1_555
C16_7 C17_7 1_555 1_555
C23_7 C24_7 1_555 1_555
O9_7 Mg3_7 1_555 1_555
O11_7 Mg8_5 1_555 1_555
O16_7 C49_7 1_555 1_555
N10_7 C34_7 1_555 1_555
N11_7 C33_7 1_555 1_555
N12_7 C34_7 1_555 1_555
C30_7 C31_7 1_555 1_555
C39_7 C40_7 1_555 1_555
C41_7 C42_7 1_555 1_555
C46_7 C49_7 1_555 1_555
C47_7 C48_7 1_555 1_555
Mg8_5 O19_7 1_555 1_555
O17_8 C10_7 1_555 1_555
O4_7 C10_7 1_555 1_555
N1_7 H1_7 1_555 1_555
N2_7 C7_7 1_555 1_555
N4_7 C7_7 1_555 1_555
N5_7 H2_7 1_555 1_555
C1_7 N1_7 1_555 1_555
C2_7 C1_7 1_555 1_555
H4_7 C2_7 1_555 1_555
C3_7 C2_7 1_555 1_555
H5_7 C3_7 1_555 1_555
C4_7 C3_7 1_555 1_555
C5_7 C4_7 1_555 1_555
H6_7 C5_7 1_555 1_555
C6_7 C1_7 1_555 1_555
H7_7 C6_7 1_555 1_555
C7_7 N1_7 1_555 1_555
C8_7 N2_7 1_555 1_555
C10_7 C4_7 1_555 1_555
Mg4_7 O17_8 1_555 1_555
O4_7 Mg4_7 1_555 1_555
N5_7 C8_7 1_555 1_555
C5_7 C6_7 1_555 1_555
O20_14 Mg8_5 1_555 1_555
O23_14 Mg8_5 1_555 1_555
Mg4_8 O17_6 1_555 1_555
O20_15 Mg7_4 1_555 1_555
O23_15 Mg7_4 1_555 1_555
Mg7_5 O2_8 1_555 1_555
O2_8 C11_8 1_555 1_555
O4_8 C10_8 1_555 1_555
O7_8 C25_8 1_555 1_555
N1_8 H1_8 1_555 1_555
N2_8 C7_8 1_555 1_555
N3_8 C8_8 1_555 1_555
N4_8 C7_8 1_555 1_555
N5_8 H2_8 1_555 1_555
N6_8 H3_8 1_555 1_555
C1_8 N1_8 1_555 1_555
C2_8 C1_8 1_555 1_555
H4_8 C2_8 1_555 1_555
C3_8 C2_8 1_555 1_555
H5_8 C3_8 1_555 1_555
C4_8 C3_8 1_555 1_555
C5_8 C4_8 1_555 1_555
C6_8 C1_8 1_555 1_555
H7_8 C6_8 1_555 1_555
C7_8 N1_8 1_555 1_555
C8_8 N2_8 1_555 1_555
C9_8 N3_8 1_555 1_555
C10_8 C4_8 1_555 1_555
C12_8 C11_8 1_555 1_555
C13_8 C12_8 1_555 1_555
H8_8 C13_8 1_555 1_555
C14_8 C13_8 1_555 1_555
H9_8 C14_8 1_555 1_555
C15_8 N5_8 1_555 1_555
C16_8 C15_8 1_555 1_555
H10_8 C16_8 1_555 1_555
C17_8 C12_8 1_555 1_555
H11_8 C17_8 1_555 1_555
C19_8 N6_8 1_555 1_555
C20_8 C19_8 1_555 1_555
H13_8 C20_8 1_555 1_555
C21_8 C20_8 1_555 1_555
H14_8 C21_8 1_555 1_555
C22_8 C21_8 1_555 1_555
C23_8 C22_8 1_555 1_555
H15_8 C23_8 1_555 1_555
C24_8 C19_8 1_555 1_555
H16_8 C24_8 1_555 1_555
C25_8 C22_8 1_555 1_555
O11_8 C36_8 1_555 1_555
O16_8 Mg7_5 1_555 1_555
N12_8 H19_8 1_555 1_555
C34_8 N9_8 1_555 1_555
C37_8 C36_8 1_555 1_555
C38_8 C37_8 1_555 1_555
H24_8 C38_8 1_555 1_555
C39_8 C38_8 1_555 1_555
H25_8 C39_8 1_555 1_555
C41_8 C40_8 1_555 1_555
C42_8 C37_8 1_555 1_555
H27_8 C42_8 1_555 1_555
C43_8 N12_8 1_555 1_555
C44_8 C43_8 1_555 1_555
H28_8 C44_8 1_555 1_555
C45_8 C44_8 1_555 1_555
H29_8 C45_8 1_555 1_555
C46_8 C45_8 1_555 1_555
C47_8 C46_8 1_555 1_555
H30_8 C47_8 1_555 1_555
C48_8 C43_8 1_555 1_555
H31_8 C48_8 1_555 1_555
Mg8_3 O7_8 1_555 1_555
N4_8 C9_8 1_555 1_555
N5_8 C8_8 1_555 1_555
N6_8 C9_8 1_555 1_555
C5_8 C6_8 1_555 1_555
C14_8 C15_8 1_555 1_555
C16_8 C17_8 1_555 1_555
C23_8 C24_8 1_555 1_555
O11_8 Mg8_3 1_555 1_555
O16_8 C49_8 1_555 1_555
N12_8 C34_8 1_555 1_555
C39_8 C40_8 1_555 1_555
C41_8 C42_8 1_555 1_555
C46_8 C49_8 1_555 1_555
C47_8 C48_8 1_555 1_555
Mg1_8 O3_8 1_555 1_555
O5_8 Mg1_8 1_555 1_555
O8_8 Mg1_8 1_555 1_555
C18_8 O8_8 1_555 1_555
H12_8 C18_8 1_555 1_555
O9_8 C18_8 1_555 1_555
Mg3_8 O6_8 1_555 1_555
O12_8 Mg3_8 1_555 1_555
O14_8 Mg3_8 1_555 1_555
O15_8 Mg1_8 1_555 1_555
O18_8 Mg1_8 1_555 1_555
O19_8 Mg3_8 1_555 1_555
O21_8 Mg1_8 1_555 1_555
O22_8 Mg3_8 1_555 1_555
Mg7_6 O18_8 1_555 1_555
O9_8 Mg3_8 1_555 1_555
Mg8_4 O19_8 1_555 1_555
O17_5 C35_8 1_555 1_555
O13_8 C35_8 1_555 1_555
H21_8 C28_8 1_555 1_555
C29_8 C28_8 1_555 1_555
C35_8 C29_8 1_555 1_555
Mg5_8 O17_5 1_555 1_555
O13_8 Mg5_8 1_555 1_555
N7_8 H17_8 1_555 1_555
N8_8 C32_8 1_555 1_555
N10_8 C32_8 1_555 1_555
N11_8 H18_8 1_555 1_555
C26_8 N7_8 1_555 1_555
C27_8 C26_8 1_555 1_555
H20_8 C27_8 1_555 1_555
H22_8 C30_8 1_555 1_555
C31_8 C26_8 1_555 1_555
H23_8 C31_8 1_555 1_555
C32_8 N7_8 1_555 1_555
C33_8 N8_8 1_555 1_555
N11_8 C33_8 1_555 1_555
C30_8 C31_8 1_555 1_555
O20_16 Mg8_4 1_555 1_555
O23_16 Mg8_4 1_555 1_555
Mg5_2 O3_9 1_555 1_555
O19_4 C10_9 1_555 1_555
O20_9 C11_9 1_555 1_555
O22_4 C10_9 1_555 1_555
O5_9 Mg5_2 1_555 1_555
O6_9 C25_9 1_555 1_555
O23_6 C25_9 1_555 1_555
O8_9 Mg5_2 1_555 1_555
N1_9 H1_9 1_555 1_555
N2_9 C7_9 1_555 1_555
N3_9 C8_9 1_555 1_555
N4_9 C7_9 1_555 1_555
N5_9 H2_9 1_555 1_555
N6_9 H3_9 1_555 1_555
C1_9 N1_9 1_555 1_555
C2_9 C1_9 1_555 1_555
H4_9 C2_9 1_555 1_555
C3_9 C2_9 1_555 1_555
H5_9 C3_9 1_555 1_555
C4_9 C3_9 1_555 1_555
C5_9 C4_9 1_555 1_555
H6_9 C5_9 1_555 1_555
C6_9 C1_9 1_555 1_555
H7_9 C6_9 1_555 1_555
C7_9 N1_9 1_555 1_555
C8_9 N2_9 1_555 1_555
C9_9 N3_9 1_555 1_555
C10_9 C4_9 1_555 1_555
C11_9 O5_9 1_555 1_555
C12_9 C11_9 1_555 1_555
C13_9 C12_9 1_555 1_555
H8_9 C13_9 1_555 1_555
C14_9 C13_9 1_555 1_555
H9_9 C14_9 1_555 1_555
C15_9 N5_9 1_555 1_555
C16_9 C15_9 1_555 1_555
H10_9 C16_9 1_555 1_555
C17_9 C12_9 1_555 1_555
H11_9 C17_9 1_555 1_555
C18_9 O8_9 1_555 1_555
H12_9 C18_9 1_555 1_555
C19_9 N6_9 1_555 1_555
C20_9 C19_9 1_555 1_555
H13_9 C20_9 1_555 1_555
C21_9 C20_9 1_555 1_555
H14_9 C21_9 1_555 1_555
C22_9 C21_9 1_555 1_555
C23_9 C22_9 1_555 1_555
H15_9 C23_9 1_555 1_555
C24_9 C19_9 1_555 1_555
H16_9 C24_9 1_555 1_555
C25_9 C22_9 1_555 1_555
O9_9 C18_9 1_555 1_555
Mg4_8 O6_9 1_555 1_555
O12_9 Mg4_8 1_555 1_555
O15_9 Mg5_2 1_555 1_555
C47_9 C46_9 1_555 1_555
H30_9 C47_9 1_555 1_555
C49_9 O15_9 1_555 1_555
N4_9 C9_9 1_555 1_555
N5_9 C8_9 1_555 1_555
N6_9 C9_9 1_555 1_555
C5_9 C6_9 1_555 1_555
C14_9 C15_9 1_555 1_555
C16_9 C17_9 1_555 1_555
C23_9 C24_9 1_555 1_555
O9_9 Mg4_8 1_555 1_555
O23_9 C49_9 1_555 1_555
C46_9 C49_9 1_555 1_555
O18_6 C35_9 1_555 1_555
O20_6 C36_9 1_555 1_555
O21_6 C35_9 1_555 1_555
N7_9 H17_9 1_555 1_555
N8_9 C32_9 1_555 1_555
N9_9 C33_9 1_555 1_555
N10_9 C32_9 1_555 1_555
N11_9 H18_9 1_555 1_555
N12_9 H19_9 1_555 1_555
C26_9 N7_9 1_555 1_555
C27_9 C26_9 1_555 1_555
H20_9 C27_9 1_555 1_555
C28_9 C27_9 1_555 1_555
H21_9 C28_9 1_555 1_555
C29_9 C28_9 1_555 1_555
C30_9 C29_9 1_555 1_555
H22_9 C30_9 1_555 1_555
C31_9 C26_9 1_555 1_555
H23_9 C31_9 1_555 1_555
C32_9 N7_9 1_555 1_555
C33_9 N8_9 1_555 1_555
C34_9 N9_9 1_555 1_555
C35_9 C29_9 1_555 1_555
C36_9 O14_9 1_555 1_555
C37_9 C36_9 1_555 1_555
C38_9 C37_9 1_555 1_555
H24_9 C38_9 1_555 1_555
C39_9 C38_9 1_555 1_555
H25_9 C39_9 1_555 1_555
C40_9 N11_9 1_555 1_555
C41_9 C40_9 1_555 1_555
H26_9 C41_9 1_555 1_555
C42_9 C37_9 1_555 1_555
H27_9 C42_9 1_555 1_555
C43_9 N12_9 1_555 1_555
C44_9 C43_9 1_555 1_555
H28_9 C44_9 1_555 1_555
C45_9 C44_9 1_555 1_555
H29_9 C45_9 1_555 1_555
C48_9 C43_9 1_555 1_555
H31_9 C48_9 1_555 1_555
N10_9 C34_9 1_555 1_555
N11_9 C33_9 1_555 1_555
N12_9 C34_9 1_555 1_555
C30_9 C31_9 1_555 1_555
C39_9 C40_9 1_555 1_555
C41_9 C42_9 1_555 1_555
Mg5_5 O3_10 1_555 1_555
O8_10 Mg5_5 1_555 1_555
C18_10 O8_10 1_555 1_555
H12_10 C18_10 1_555 1_555
O9_10 C18_10 1_555 1_555
Mg4_3 O6_10 1_555 1_555
O12_10 Mg4_3 1_555 1_555
O14_10 Mg4_3 1_555 1_555
O15_10 Mg5_5 1_555 1_555
O9_10 Mg4_3 1_555 1_555
O23_16 C25_10 1_555 1_555
C23_10 C22_10 1_555 1_555
H15_10 C23_10 1_555 1_555
C25_10 C22_10 1_555 1_555
O18 C35_10 1_555 1_555
O20_16 C36_10 1_555 1_555
O21 C35_10 1_555 1_555
N7_10 H17_10 1_555 1_555
N8_10 C32_10 1_555 1_555
N9_10 C33_10 1_555 1_555
N10_10 C32_10 1_555 1_555
N11_10 H18_10 1_555 1_555
N12_10 H19_10 1_555 1_555
C26_10 N7_10 1_555 1_555
C27_10 C26_10 1_555 1_555
H20_10 C27_10 1_555 1_555
C28_10 C27_10 1_555 1_555
H21_10 C28_10 1_555 1_555
C29_10 C28_10 1_555 1_555
C30_10 C29_10 1_555 1_555
H22_10 C30_10 1_555 1_555
C31_10 C26_10 1_555 1_555
H23_10 C31_10 1_555 1_555
C32_10 N7_10 1_555 1_555
C33_10 N8_10 1_555 1_555
C34_10 N9_10 1_555 1_555
C35_10 C29_10 1_555 1_555
C37_10 C36_10 1_555 1_555
C38_10 C37_10 1_555 1_555
H24_10 C38_10 1_555 1_555
C39_10 C38_10 1_555 1_555
H25_10 C39_10 1_555 1_555
C40_10 N11_10 1_555 1_555
C41_10 C40_10 1_555 1_555
H26_10 C41_10 1_555 1_555
C42_10 C37_10 1_555 1_555
H27_10 C42_10 1_555 1_555
C43_10 N12_10 1_555 1_555
C44_10 C43_10 1_555 1_555
H28_10 C44_10 1_555 1_555
C45_10 C44_10 1_555 1_555
H29_10 C45_10 1_555 1_555
C46_10 C45_10 1_555 1_555
C47_10 C46_10 1_555 1_555
H30_10 C47_10 1_555 1_555
C48_10 C43_10 1_555 1_555
H31_10 C48_10 1_555 1_555
O23_3 C49_10 1_555 1_555
N10_10 C34_10 1_555 1_555
N11_10 C33_10 1_555 1_555
N12_10 C34_10 1_555 1_555
C30_10 C31_10 1_555 1_555
C39_10 C40_10 1_555 1_555
C41_10 C42_10 1_555 1_555
C46_10 C49_10 1_555 1_555
C47_10 C48_10 1_555 1_555
O19_7 C10_10 1_555 1_555
O20_3 C11_10 1_555 1_555
O22_7 C10_10 1_555 1_555
N1_10 H1_10 1_555 1_555
N2_10 C7_10 1_555 1_555
N3_10 C8_10 1_555 1_555
N4_10 C7_10 1_555 1_555
N5_10 H2_10 1_555 1_555
N6_10 H3_10 1_555 1_555
C1_10 N1_10 1_555 1_555
C2_10 C1_10 1_555 1_555
H4_10 C2_10 1_555 1_555
C3_10 C2_10 1_555 1_555
H5_10 C3_10 1_555 1_555
C4_10 C3_10 1_555 1_555
C5_10 C4_10 1_555 1_555
H6_10 C5_10 1_555 1_555
C6_10 C1_10 1_555 1_555
H7_10 C6_10 1_555 1_555
C7_10 N1_10 1_555 1_555
C8_10 N2_10 1_555 1_555
C9_10 N3_10 1_555 1_555
C10_10 C4_10 1_555 1_555
C12_10 C11_10 1_555 1_555
C13_10 C12_10 1_555 1_555
H8_10 C13_10 1_555 1_555
C14_10 C13_10 1_555 1_555
H9_10 C14_10 1_555 1_555
C15_10 N5_10 1_555 1_555
C16_10 C15_10 1_555 1_555
H10_10 C16_10 1_555 1_555
C17_10 C12_10 1_555 1_555
H11_10 C17_10 1_555 1_555
C19_10 N6_10 1_555 1_555
C20_10 C19_10 1_555 1_555
H13_10 C20_10 1_555 1_555
C21_10 C20_10 1_555 1_555
H14_10 C21_10 1_555 1_555
C24_10 C19_10 1_555 1_555
H16_10 C24_10 1_555 1_555
N4_10 C9_10 1_555 1_555
N5_10 C8_10 1_555 1_555
N6_10 C9_10 1_555 1_555
C5_10 C6_10 1_555 1_555
C14_10 C15_10 1_555 1_555
C16_10 C17_10 1_555 1_555
Mg5_4 O3_11 1_555 1_555
O19_2 C10_11 1_555 1_555
O20_13 C11_11 1_555 1_555
O22_2 C10_11 1_555 1_555
O5_11 Mg5_4 1_555 1_555
O6_11 C25_11 1_555 1_555
O23_2 C25_11 1_555 1_555
O8_11 Mg5_4 1_555 1_555
N1_11 H1_11 1_555 1_555
N2_11 C7_11 1_555 1_555
N3_11 C8_11 1_555 1_555
N4_11 C7_11 1_555 1_555
N5_11 H2_11 1_555 1_555
N6_11 H3_11 1_555 1_555
C1_11 N1_11 1_555 1_555
C2_11 C1_11 1_555 1_555
H4_11 C2_11 1_555 1_555
C3_11 C2_11 1_555 1_555
H5_11 C3_11 1_555 1_555
C4_11 C3_11 1_555 1_555
C5_11 C4_11 1_555 1_555
H6_11 C5_11 1_555 1_555
C6_11 C1_11 1_555 1_555
H7_11 C6_11 1_555 1_555
C7_11 N1_11 1_555 1_555
C8_11 N2_11 1_555 1_555
C9_11 N3_11 1_555 1_555
C10_11 C4_11 1_555 1_555
C11_11 O5_11 1_555 1_555
C12_11 C11_11 1_555 1_555
C13_11 C12_11 1_555 1_555
H8_11 C13_11 1_555 1_555
C14_11 C13_11 1_555 1_555
H9_11 C14_11 1_555 1_555
C15_11 N5_11 1_555 1_555
C16_11 C15_11 1_555 1_555
H10_11 C16_11 1_555 1_555
C17_11 C12_11 1_555 1_555
H11_11 C17_11 1_555 1_555
C18_11 O8_11 1_555 1_555
H12_11 C18_11 1_555 1_555
C19_11 N6_11 1_555 1_555
C20_11 C19_11 1_555 1_555
H13_11 C20_11 1_555 1_555
C21_11 C20_11 1_555 1_555
H14_11 C21_11 1_555 1_555
C22_11 C21_11 1_555 1_555
C23_11 C22_11 1_555 1_555
H15_11 C23_11 1_555 1_555
C24_11 C19_11 1_555 1_555
H16_11 C24_11 1_555 1_555
C25_11 C22_11 1_555 1_555
O9_11 C18_11 1_555 1_555
Mg4_6 O6_11 1_555 1_555
O12_11 Mg4_6 1_555 1_555
O15_11 Mg5_4 1_555 1_555
C47_11 C46_11 1_555 1_555
H30_11 C47_11 1_555 1_555
C49_11 O15_11 1_555 1_555
N4_11 C9_11 1_555 1_555
N5_11 C8_11 1_555 1_555
N6_11 C9_11 1_555 1_555
C5_11 C6_11 1_555 1_555
C14_11 C15_11 1_555 1_555
C16_11 C17_11 1_555 1_555
C23_11 C24_11 1_555 1_555
O9_11 Mg4_6 1_555 1_555
O23_13 C49_11 1_555 1_555
C46_11 C49_11 1_555 1_555
O20_2 C36_11 1_555 1_555
N7_11 H17_11 1_555 1_555
N8_11 C32_11 1_555 1_555
N9_11 C33_11 1_555 1_555
N10_11 C32_11 1_555 1_555
N11_11 H18_11 1_555 1_555
N12_11 H19_11 1_555 1_555
C26_11 N7_11 1_555 1_555
C27_11 C26_11 1_555 1_555
H20_11 C27_11 1_555 1_555
H22_11 C30_11 1_555 1_555
C31_11 C26_11 1_555 1_555
H23_11 C31_11 1_555 1_555
C32_11 N7_11 1_555 1_555
C33_11 N8_11 1_555 1_555
C34_11 N9_11 1_555 1_555
C36_11 O14_11 1_555 1_555
C37_11 C36_11 1_555 1_555
C38_11 C37_11 1_555 1_555
H24_11 C38_11 1_555 1_555
C39_11 C38_11 1_555 1_555
H25_11 C39_11 1_555 1_555
C40_11 N11_11 1_555 1_555
C41_11 C40_11 1_555 1_555
H26_11 C41_11 1_555 1_555
C42_11 C37_11 1_555 1_555
H27_11 C42_11 1_555 1_555
C43_11 N12_11 1_555 1_555
C44_11 C43_11 1_555 1_555
H28_11 C44_11 1_555 1_555
C45_11 C44_11 1_555 1_555
H29_11 C45_11 1_555 1_555
C48_11 C43_11 1_555 1_555
H31_11 C48_11 1_555 1_555
N10_11 C34_11 1_555 1_555
N11_11 C33_11 1_555 1_555
N12_11 C34_11 1_555 1_555
C30_11 C31_11 1_555 1_555
C39_11 C40_11 1_555 1_555
C41_11 C42_11 1_555 1_555
O18_8 C35_11 1_555 1_555
O21_8 C35_11 1_555 1_555
H21_11 C28_11 1_555 1_555
C29_11 C28_11 1_555 1_555
C35_11 C29_11 1_555 1_555
Mg5_7 O3_12 1_555 1_555
O6_12 C25_12 1_555 1_555
O23_12 C25_12 1_555 1_555
O8_12 Mg5_7 1_555 1_555
C18_12 O8_12 1_555 1_555
H12_12 C18_12 1_555 1_555
C23_12 C22_12 1_555 1_555
H15_12 C23_12 1_555 1_555
C25_12 C22_12 1_555 1_555
O9_12 C18_12 1_555 1_555
Mg4 O6_12 1_555 1_555
O20_12 C36_12 1_555 1_555
O12_12 Mg4 1_555 1_555
O14_12 Mg4 1_555 1_555
O15_12 Mg5_7 1_555 1_555
N7_12 H17_12 1_555 1_555
N8_12 C32_12 1_555 1_555
N9_12 C33_12 1_555 1_555
N10_12 C32_12 1_555 1_555
N11_12 H18_12 1_555 1_555
N12_12 H19_12 1_555 1_555
C26_12 N7_12 1_555 1_555
C27_12 C26_12 1_555 1_555
H20_12 C27_12 1_555 1_555
H22_12 C30_12 1_555 1_555
C31_12 C26_12 1_555 1_555
H23_12 C31_12 1_555 1_555
C32_12 N7_12 1_555 1_555
C33_12 N8_12 1_555 1_555
C34_12 N9_12 1_555 1_555
C36_12 O14_12 1_555 1_555
C37_12 C36_12 1_555 1_555
C38_12 C37_12 1_555 1_555
H24_12 C38_12 1_555 1_555
C39_12 C38_12 1_555 1_555
H25_12 C39_12 1_555 1_555
C40_12 N11_12 1_555 1_555
C41_12 C40_12 1_555 1_555
H26_12 C41_12 1_555 1_555
C42_12 C37_12 1_555 1_555
H27_12 C42_12 1_555 1_555
C43_12 N12_12 1_555 1_555
C44_12 C43_12 1_555 1_555
H28_12 C44_12 1_555 1_555
C45_12 C44_12 1_555 1_555
H29_12 C45_12 1_555 1_555
C46_12 C45_12 1_555 1_555
C47_12 C46_12 1_555 1_555
H30_12 C47_12 1_555 1_555
C48_12 C43_12 1_555 1_555
H31_12 C48_12 1_555 1_555
C49_12 O15_12 1_555 1_555
O9_12 Mg4 1_555 1_555
O23_7 C49_12 1_555 1_555
N10_12 C34_12 1_555 1_555
N11_12 C33_12 1_555 1_555
N12_12 C34_12 1_555 1_555
C30_12 C31_12 1_555 1_555
C39_12 C40_12 1_555 1_555
C41_12 C42_12 1_555 1_555
C46_12 C49_12 1_555 1_555
C47_12 C48_12 1_555 1_555
O18_3 C35_12 1_555 1_555
O21_3 C35_12 1_555 1_555
H21_12 C28_12 1_555 1_555
C29_12 C28_12 1_555 1_555
C35_12 C29_12 1_555 1_555
O19_5 C10_12 1_555 1_555
O20_7 C11_12 1_555 1_555
O22_5 C10_12 1_555 1_555
N1_12 H1_12 1_555 1_555
N2_12 C7_12 1_555 1_555
N3_12 C8_12 1_555 1_555
N4_12 C7_12 1_555 1_555
N5_12 H2_12 1_555 1_555
N6_12 H3_12 1_555 1_555
C1_12 N1_12 1_555 1_555
C2_12 C1_12 1_555 1_555
H4_12 C2_12 1_555 1_555
C3_12 C2_12 1_555 1_555
H5_12 C3_12 1_555 1_555
C4_12 C3_12 1_555 1_555
C5_12 C4_12 1_555 1_555
H6_12 C5_12 1_555 1_555
C6_12 C1_12 1_555 1_555
H7_12 C6_12 1_555 1_555
C7_12 N1_12 1_555 1_555
C8_12 N2_12 1_555 1_555
C9_12 N3_12 1_555 1_555
C10_12 C4_12 1_555 1_555
C11_12 O5_12 1_555 1_555
C12_12 C11_12 1_555 1_555
C13_12 C12_12 1_555 1_555
H8_12 C13_12 1_555 1_555
C14_12 C13_12 1_555 1_555
H9_12 C14_12 1_555 1_555
C15_12 N5_12 1_555 1_555
C16_12 C15_12 1_555 1_555
H10_12 C16_12 1_555 1_555
C17_12 C12_12 1_555 1_555
H11_12 C17_12 1_555 1_555
C19_12 N6_12 1_555 1_555
C20_12 C19_12 1_555 1_555
H13_12 C20_12 1_555 1_555
C21_12 C20_12 1_555 1_555
H14_12 C21_12 1_555 1_555
C24_12 C19_12 1_555 1_555
H16_12 C24_12 1_555 1_555
N4_12 C9_12 1_555 1_555
N5_12 C8_12 1_555 1_555
N6_12 C9_12 1_555 1_555
C5_12 C6_12 1_555 1_555
C14_12 C15_12 1_555 1_555
C16_12 C17_12 1_555 1_555
O19_8 C10_13 1_555 1_555
O22_8 C10_13 1_555 1_555
N1_13 H1_13 1_555 1_555
N2_13 C7_13 1_555 1_555
N4_13 C7_13 1_555 1_555
N5_13 H2_13 1_555 1_555
C1_13 N1_13 1_555 1_555
C2_13 C1_13 1_555 1_555
H4_13 C2_13 1_555 1_555
C3_13 C2_13 1_555 1_555
H5_13 C3_13 1_555 1_555
C4_13 C3_13 1_555 1_555
C5_13 C4_13 1_555 1_555
H6_13 C5_13 1_555 1_555
C6_13 C1_13 1_555 1_555
H7_13 C6_13 1_555 1_555
C7_13 N1_13 1_555 1_555
C8_13 N2_13 1_555 1_555
C10_13 C4_13 1_555 1_555
N5_13 C8_13 1_555 1_555
C5_13 C6_13 1_555 1_555
Mg5_6 O3_13 1_555 1_555
O20 C11_13 1_555 1_555
O5_13 Mg5_6 1_555 1_555
O6_13 C25_13 1_555 1_555
O23_14 C25_13 1_555 1_555
O8_13 Mg5_6 1_555 1_555
N6_13 H3_13 1_555 1_555
C9_13 N3_13 1_555 1_555
C11_13 O5_13 1_555 1_555
C12_13 C11_13 1_555 1_555
C13_13 C12_13 1_555 1_555
H8_13 C13_13 1_555 1_555
C14_13 C13_13 1_555 1_555
H9_13 C14_13 1_555 1_555
C16_13 C15_13 1_555 1_555
C17_13 C12_13 1_555 1_555
H11_13 C17_13 1_555 1_555
C18_13 O8_13 1_555 1_555
H12_13 C18_13 1_555 1_555
C19_13 N6_13 1_555 1_555
C20_13 C19_13 1_555 1_555
H13_13 C20_13 1_555 1_555
C21_13 C20_13 1_555 1_555
H14_13 C21_13 1_555 1_555
C22_13 C21_13 1_555 1_555
C23_13 C22_13 1_555 1_555
H15_13 C23_13 1_555 1_555
C24_13 C19_13 1_555 1_555
H16_13 C24_13 1_555 1_555
C25_13 C22_13 1_555 1_555
O9_13 C18_13 1_555 1_555
Mg4_4 O6_13 1_555 1_555
O20_14 C36_13 1_555 1_555
O12_13 Mg4_4 1_555 1_555
O21_2 C35_13 1_555 1_555
O14_13 Mg4_4 1_555 1_555
O15_13 Mg5_6 1_555 1_555
N7_13 H17_13 1_555 1_555
N8_13 C32_13 1_555 1_555
N9_13 C33_13 1_555 1_555
N10_13 C32_13 1_555 1_555
N11_13 H18_13 1_555 1_555
N12_13 H19_13 1_555 1_555
C26_13 N7_13 1_555 1_555
C27_13 C26_13 1_555 1_555
H20_13 C27_13 1_555 1_555
C28_13 C27_13 1_555 1_555
H21_13 C28_13 1_555 1_555
C29_13 C28_13 1_555 1_555
C30_13 C29_13 1_555 1_555
C31_13 C26_13 1_555 1_555
H23_13 C31_13 1_555 1_555
C32_13 N7_13 1_555 1_555
C33_13 N8_13 1_555 1_555
C34_13 N9_13 1_555 1_555
C35_13 C29_13 1_555 1_555
C36_13 O14_13 1_555 1_555
C37_13 C36_13 1_555 1_555
C38_13 C37_13 1_555 1_555
H24_13 C38_13 1_555 1_555
C39_13 C38_13 1_555 1_555
H25_13 C39_13 1_555 1_555
C40_13 N11_13 1_555 1_555
C41_13 C40_13 1_555 1_555
H26_13 C41_13 1_555 1_555
C42_13 C37_13 1_555 1_555
H27_13 C42_13 1_555 1_555
C43_13 N12_13 1_555 1_555
C44_13 C43_13 1_555 1_555
H28_13 C44_13 1_555 1_555
C45_13 C44_13 1_555 1_555
H29_13 C45_13 1_555 1_555
C46_13 C45_13 1_555 1_555
C47_13 C46_13 1_555 1_555
H30_13 C47_13 1_555 1_555
C48_13 C43_13 1_555 1_555
H31_13 C48_13 1_555 1_555
C49_13 O15_13 1_555 1_555
N6_13 C9_13 1_555 1_555
C14_13 C15_13 1_555 1_555
C16_13 C17_13 1_555 1_555
C23_13 C24_13 1_555 1_555
O9_13 Mg4_4 1_555 1_555
O23 C49_13 1_555 1_555
N10_13 C34_13 1_555 1_555
N11_13 C33_13 1_555 1_555
N12_13 C34_13 1_555 1_555
C30_13 C31_13 1_555 1_555
C39_13 C40_13 1_555 1_555
C41_13 C42_13 1_555 1_555
C46_13 C49_13 1_555 1_555
C47_13 C48_13 1_555 1_555
O18_5 C35_14 1_555 1_555
O21_5 C35_14 1_555 1_555
N7_14 H17_14 1_555 1_555
N8_14 C32_14 1_555 1_555
N10_14 C32_14 1_555 1_555
N11_14 H18_14 1_555 1_555
C26_14 N7_14 1_555 1_555
C27_14 C26_14 1_555 1_555
H20_14 C27_14 1_555 1_555
C28_14 C27_14 1_555 1_555
H21_14 C28_14 1_555 1_555
C29_14 C28_14 1_555 1_555
C30_14 C29_14 1_555 1_555
H22_14 C30_14 1_555 1_555
C31_14 C26_14 1_555 1_555
H23_14 C31_14 1_555 1_555
C32_14 N7_14 1_555 1_555
C33_14 N8_14 1_555 1_555
C35_14 C29_14 1_555 1_555
N11_14 C33_14 1_555 1_555
C30_14 C31_14 1_555 1_555
Mg5 O3_14 1_555 1_555
O20_11 C11_14 1_555 1_555
O22_3 C10_14 1_555 1_555
O5_14 Mg5 1_555 1_555
O6_14 C25_14 1_555 1_555
O23_8 C25_14 1_555 1_555
O8_14 Mg5 1_555 1_555
N1_14 H1_14 1_555 1_555
N2_14 C7_14 1_555 1_555
N3_14 C8_14 1_555 1_555
N4_14 C7_14 1_555 1_555
N5_14 H2_14 1_555 1_555
N6_14 H3_14 1_555 1_555
C1_14 N1_14 1_555 1_555
C2_14 C1_14 1_555 1_555
H4_14 C2_14 1_555 1_555
C3_14 C2_14 1_555 1_555
H5_14 C3_14 1_555 1_555
C4_14 C3_14 1_555 1_555
C5_14 C4_14 1_555 1_555
C6_14 C1_14 1_555 1_555
H7_14 C6_14 1_555 1_555
C7_14 N1_14 1_555 1_555
C8_14 N2_14 1_555 1_555
C9_14 N3_14 1_555 1_555
C10_14 C4_14 1_555 1_555
C11_14 O5_14 1_555 1_555
C12_14 C11_14 1_555 1_555
C13_14 C12_14 1_555 1_555
H8_14 C13_14 1_555 1_555
C14_14 C13_14 1_555 1_555
H9_14 C14_14 1_555 1_555
C15_14 N5_14 1_555 1_555
C16_14 C15_14 1_555 1_555
H10_14 C16_14 1_555 1_555
C17_14 C12_14 1_555 1_555
H11_14 C17_14 1_555 1_555
C18_14 O8_14 1_555 1_555
H12_14 C18_14 1_555 1_555
C19_14 N6_14 1_555 1_555
C20_14 C19_14 1_555 1_555
H13_14 C20_14 1_555 1_555
C21_14 C20_14 1_555 1_555
H14_14 C21_14 1_555 1_555
C22_14 C21_14 1_555 1_555
C23_14 C22_14 1_555 1_555
H15_14 C23_14 1_555 1_555
C24_14 C19_14 1_555 1_555
H16_14 C24_14 1_555 1_555
C25_14 C22_14 1_555 1_555
O9_14 C18_14 1_555 1_555
Mg4_7 O6_14 1_555 1_555
O20_8 C36_14 1_555 1_555
O12_14 Mg4_7 1_555 1_555
O14_14 Mg4_7 1_555 1_555
O15_14 Mg5 1_555 1_555
N12_14 H19_14 1_555 1_555
C34_14 N9_14 1_555 1_555
C36_14 O14_14 1_555 1_555
C37_14 C36_14 1_555 1_555
C38_14 C37_14 1_555 1_555
H24_14 C38_14 1_555 1_555
C39_14 C38_14 1_555 1_555
H25_14 C39_14 1_555 1_555
C41_14 C40_14 1_555 1_555
C42_14 C37_14 1_555 1_555
H27_14 C42_14 1_555 1_555
C43_14 N12_14 1_555 1_555
C44_14 C43_14 1_555 1_555
H28_14 C44_14 1_555 1_555
C45_14 C44_14 1_555 1_555
H29_14 C45_14 1_555 1_555
C46_14 C45_14 1_555 1_555
C47_14 C46_14 1_555 1_555
H30_14 C47_14 1_555 1_555
C48_14 C43_14 1_555 1_555
H31_14 C48_14 1_555 1_555
C49_14 O15_14 1_555 1_555
N4_14 C9_14 1_555 1_555
N5_14 C8_14 1_555 1_555
N6_14 C9_14 1_555 1_555
C5_14 C6_14 1_555 1_555
C14_14 C15_14 1_555 1_555
C16_14 C17_14 1_555 1_555
C23_14 C24_14 1_555 1_555
O9_14 Mg4_7 1_555 1_555
O23_11 C49_14 1_555 1_555
N12_14 C34_14 1_555 1_555
C39_14 C40_14 1_555 1_555
C41_14 C42_14 1_555 1_555
C46_14 C49_14 1_555 1_555
C47_14 C48_14 1_555 1_555
O19_6 C10_15 1_555 1_555
O22_6 C10_15 1_555 1_555
N1_15 H1_15 1_555 1_555
N2_15 C7_15 1_555 1_555
N4_15 C7_15 1_555 1_555
N5_15 H2_15 1_555 1_555
C1_15 N1_15 1_555 1_555
C2_15 C1_15 1_555 1_555
H4_15 C2_15 1_555 1_555
C3_15 C2_15 1_555 1_555
H5_15 C3_15 1_555 1_555
C4_15 C3_15 1_555 1_555
C5_15 C4_15 1_555 1_555
H6_15 C5_15 1_555 1_555
C6_15 C1_15 1_555 1_555
H7_15 C6_15 1_555 1_555
C7_15 N1_15 1_555 1_555
C8_15 N2_15 1_555 1_555
C10_15 C4_15 1_555 1_555
N5_15 C8_15 1_555 1_555
C5_15 C6_15 1_555 1_555
Mg5_8 O3_15 1_555 1_555
O20_5 C11_15 1_555 1_555
O5_15 Mg5_8 1_555 1_555
O6_15 C25_15 1_555 1_555
O23_10 C25_15 1_555 1_555
O8_15 Mg5_8 1_555 1_555
N6_15 H3_15 1_555 1_555
C9_15 N3_15 1_555 1_555
C11_15 O5_15 1_555 1_555
C12_15 C11_15 1_555 1_555
C13_15 C12_15 1_555 1_555
H8_15 C13_15 1_555 1_555
C14_15 C13_15 1_555 1_555
H9_15 C14_15 1_555 1_555
C16_15 C15_15 1_555 1_555
C17_15 C12_15 1_555 1_555
H11_15 C17_15 1_555 1_555
C18_15 O8_15 1_555 1_555
H12_15 C18_15 1_555 1_555
C19_15 N6_15 1_555 1_555
C20_15 C19_15 1_555 1_555
H13_15 C20_15 1_555 1_555
C21_15 C20_15 1_555 1_555
H14_15 C21_15 1_555 1_555
C22_15 C21_15 1_555 1_555
C23_15 C22_15 1_555 1_555
H15_15 C23_15 1_555 1_555
C24_15 C19_15 1_555 1_555
H16_15 C24_15 1_555 1_555
C25_15 C22_15 1_555 1_555
O9_15 C18_15 1_555 1_555
Mg4_2 O6_15 1_555 1_555
O20_10 C36_15 1_555 1_555
O12_15 Mg4_2 1_555 1_555
O14_15 Mg4_2 1_555 1_555
O15_15 Mg5_8 1_555 1_555
N7_15 H17_15 1_555 1_555
N8_15 C32_15 1_555 1_555
N9_15 C33_15 1_555 1_555
N10_15 C32_15 1_555 1_555
N11_15 H18_15 1_555 1_555
N12_15 H19_15 1_555 1_555
C26_15 N7_15 1_555 1_555
C27_15 C26_15 1_555 1_555
H20_15 C27_15 1_555 1_555
C31_15 C26_15 1_555 1_555
H23_15 C31_15 1_555 1_555
C32_15 N7_15 1_555 1_555
C33_15 N8_15 1_555 1_555
C34_15 N9_15 1_555 1_555
C36_15 O14_15 1_555 1_555
C37_15 C36_15 1_555 1_555
C38_15 C37_15 1_555 1_555
H24_15 C38_15 1_555 1_555
C39_15 C38_15 1_555 1_555
H25_15 C39_15 1_555 1_555
C40_15 N11_15 1_555 1_555
C41_15 C40_15 1_555 1_555
H26_15 C41_15 1_555 1_555
C42_15 C37_15 1_555 1_555
H27_15 C42_15 1_555 1_555
C43_15 N12_15 1_555 1_555
C44_15 C43_15 1_555 1_555
H28_15 C44_15 1_555 1_555
C45_15 C44_15 1_555 1_555
H29_15 C45_15 1_555 1_555
C46_15 C45_15 1_555 1_555
C47_15 C46_15 1_555 1_555
H30_15 C47_15 1_555 1_555
C48_15 C43_15 1_555 1_555
H31_15 C48_15 1_555 1_555
C49_15 O15_15 1_555 1_555
N6_15 C9_15 1_555 1_555
C14_15 C15_15 1_555 1_555
C16_15 C17_15 1_555 1_555
C23_15 C24_15 1_555 1_555
O9_15 Mg4_2 1_555 1_555
O23_5 C49_15 1_555 1_555
N10_15 C34_15 1_555 1_555
N11_15 C33_15 1_555 1_555
N12_15 C34_15 1_555 1_555
C30_15 C31_15 1_555 1_555
C39_15 C40_15 1_555 1_555
C41_15 C42_15 1_555 1_555
C46_15 C49_15 1_555 1_555
C47_15 C48_15 1_555 1_555
O21_4 C35_15 1_555 1_555
H21_15 C28_15 1_555 1_555
C29_15 C28_15 1_555 1_555
C35_15 C29_15 1_555 1_555
N7_16 H17_16 1_555 1_555
N8_16 C32_16 1_555 1_555
N10_16 C32_16 1_555 1_555
N11_16 H18_16 1_555 1_555
C26_16 N7_16 1_555 1_555
C27_16 C26_16 1_555 1_555
H20_16 C27_16 1_555 1_555
H22_16 C30_16 1_555 1_555
C31_16 C26_16 1_555 1_555
H23_16 C31_16 1_555 1_555
C32_16 N7_16 1_555 1_555
C33_16 N8_16 1_555 1_555
N11_16 C33_16 1_555 1_555
C30_16 C31_16 1_555 1_555
O18_7 C35_16 1_555 1_555
O21_7 C35_16 1_555 1_555
H21_16 C28_16 1_555 1_555
C29_16 C28_16 1_555 1_555
C35_16 C29_16 1_555 1_555
Mg5_3 O3_16 1_555 1_555
O5_16 Mg5_3 1_555 1_555
O8_16 Mg5_3 1_555 1_555
C18_16 O8_16 1_555 1_555
H12_16 C18_16 1_555 1_555
O9_16 C18_16 1_555 1_555
Mg4_5 O6_16 1_555 1_555
O12_16 Mg4_5 1_555 1_555
O14_16 Mg4_5 1_555 1_555
O15_16 Mg5_3 1_555 1_555
O9_16 Mg4_5 1_555 1_555
O20_15 C11_16 1_555 1_555
O22 C10_16 1_555 1_555
O23_4 C25_16 1_555 1_555
N1_16 H1_16 1_555 1_555
N2_16 C7_16 1_555 1_555
N3_16 C8_16 1_555 1_555
N4_16 C7_16 1_555 1_555
N5_16 H2_16 1_555 1_555
N6_16 H3_16 1_555 1_555
C1_16 N1_16 1_555 1_555
C2_16 C1_16 1_555 1_555
H4_16 C2_16 1_555 1_555
C3_16 C2_16 1_555 1_555
H5_16 C3_16 1_555 1_555
C4_16 C3_16 1_555 1_555
C5_16 C4_16 1_555 1_555
C6_16 C1_16 1_555 1_555
H7_16 C6_16 1_555 1_555
C7_16 N1_16 1_555 1_555
C8_16 N2_16 1_555 1_555
C9_16 N3_16 1_555 1_555
C10_16 C4_16 1_555 1_555
C12_16 C11_16 1_555 1_555
C13_16 C12_16 1_555 1_555
H8_16 C13_16 1_555 1_555
C14_16 C13_16 1_555 1_555
H9_16 C14_16 1_555 1_555
C15_16 N5_16 1_555 1_555
C16_16 C15_16 1_555 1_555
H10_16 C16_16 1_555 1_555
C17_16 C12_16 1_555 1_555
H11_16 C17_16 1_555 1_555
C19_16 N6_16 1_555 1_555
C20_16 C19_16 1_555 1_555
H13_16 C20_16 1_555 1_555
C21_16 C20_16 1_555 1_555
H14_16 C21_16 1_555 1_555
C22_16 C21_16 1_555 1_555
C23_16 C22_16 1_555 1_555
H15_16 C23_16 1_555 1_555
C24_16 C19_16 1_555 1_555
H16_16 C24_16 1_555 1_555
C25_16 C22_16 1_555 1_555
O20_4 C36_16 1_555 1_555
N12_16 H19_16 1_555 1_555
C34_16 N9_16 1_555 1_555
C37_16 C36_16 1_555 1_555
C38_16 C37_16 1_555 1_555
H24_16 C38_16 1_555 1_555
C39_16 C38_16 1_555 1_555
H25_16 C39_16 1_555 1_555
C41_16 C40_16 1_555 1_555
C42_16 C37_16 1_555 1_555
H27_16 C42_16 1_555 1_555
C43_16 N12_16 1_555 1_555
C44_16 C43_16 1_555 1_555
H28_16 C44_16 1_555 1_555
C45_16 C44_16 1_555 1_555
H29_16 C45_16 1_555 1_555
C46_16 C45_16 1_555 1_555
C47_16 C46_16 1_555 1_555
H30_16 C47_16 1_555 1_555
C48_16 C43_16 1_555 1_555
H31_16 C48_16 1_555 1_555
N4_16 C9_16 1_555 1_555
N5_16 C8_16 1_555 1_555
N6_16 C9_16 1_555 1_555
C5_16 C6_16 1_555 1_555
C14_16 C15_16 1_555 1_555
C16_16 C17_16 1_555 1_555
C23_16 C24_16 1_555 1_555
O23_15 C49_16 1_555 1_555
N12_16 C34_16 1_555 1_555
C39_16 C40_16 1_555 1_555
C41_16 C42_16 1_555 1_555
C46_16 C49_16 1_555 1_555
C47_16 C48_16 1_555 1_555

#END
