
###############################################################################
#
# This file contains modified crystal structure data generated from the
# MOF subset of the Cambridge Structural Database (CSD) v543 
# hosted by the Cambridge Crystallographic Data Centre (CCDC).
#
# This work is licensed under the Creative Commons
# Attribution-NonCommercial-ShareAlike 4.0 International License.
# To view a copy of this license, visit
# http://creativecommons.org/licenses/by-nc-sa/4.0/
# or send a letter to
# Creative Commons, PO Box 1866, Mountain View, CA 94042, USA.
#
# CIF created using the CSD Python API on 29 September 2022
# The structure has been converted into the P1 space group
# The structure has a 3D framework
# The original CSD entry ILUSIS is in the orthorhombic crystal system
# The framework has been calculated to contain at least 10.0% void space
# The void calculation uses a probe of radius 1.32A, grid spacing 0.4
#
###############################################################################

data_ILUSIS
_chemical_formula_moiety         '(C27 H16 Fe4 N28 Zn4)n'
_symmetry_cell_setting           triclinic
_symmetry_space_group_name_H-M   'P 1'
_symmetry_Int_Tables_number      1
_space_group_name_Hall           'P 1'
loop_
_symmetry_equiv_pos_site_id
_symmetry_equiv_pos_as_xyz
1 x,y,z
_cell_length_a                   13.783(2)
_cell_length_b                   7.1672(11)
_cell_length_c                   12.599(2)
_cell_angle_alpha                90
_cell_angle_beta                 90
_cell_angle_gamma                90
_cell_volume                     1244.6
loop_
_atom_site_label
_atom_site_type_symbol
_atom_site_fract_x
_atom_site_fract_y
_atom_site_fract_z
Zn1 Zn 0.33845(2) 0.2500 0.35948(3)
Fe1 Fe 0.58729(3) 0.7500 0.25398(4)
N1 N 0.44179(15) 0.4506(3) 0.32922(18)
N2 N 0.23389(14) 0.4499(3) 0.31837(18)
N3 N 0.3274(2) 0.2500 0.5197(2)
N4 N 0.5250(2) 0.7500 0.1136(2)
C1 C 0.49670(16) 0.5624(3) 0.3039(2)
C2 C 0.18005(16) 0.5615(3) 0.2903(2)
C3 C 0.3563(2) 0.2500 0.6068(3)
C4 C 0.4289(3) 0.7500 0.0971(3)
C6 C 0.5690(3) 0.7500 0.0155(3)
H1 H 0.38073 0.750 0.15097
H3 H 0.63692 0.750 0.00246
Fe4 Fe 0.08729(3) 0.7500 0.24602(4)
Fe5 Fe 0.41271(3) 0.2500 0.74602(4)
N6 N 0.44179(15) 0.0494(3) 0.32922(18)
N7 N 0.23389(14) 0.0501(3) 0.31837(18)
C8 C 0.49670(16) 0.9376(3) 0.3039(2)
C10 C 0.68005(16) 0.9385(3) 0.2097(2)
C11 C 0.68005(16) 0.5615(3) 0.2097(2)
C12 C 0.6437(2) 0.7500 0.3932(3)
C9 C 0.18005(16) 0.9385(3) 0.2903(2)
C7 C 0.00330(16) 0.0624(3) 0.8039(2)
C9_2 C 0.31995(16) 0.0615(3) 0.7903(2)
N3_2 N 0.1726(2) 0.7500 0.0197(2)
C3_2 C 0.1437(2) 0.7500 0.1068(3)
Zn1_2 Zn 0.16155(2) 0.7500 0.85948(3)
N1_2 N 0.05821(15) 0.5494(3) 0.82922(18)
N2_2 N 0.26611(14) 0.5501(3) 0.81837(18)
N5 N 0.0884(3) 0.2500 0.4924(3)
C1_2 C 0.00330(16) 0.4376(3) 0.8039(2)
C2_2 C 0.31995(16) 0.4385(3) 0.7903(2)
C4_2 C 0.0711(3) 0.2500 0.5971(3)
C5 C 0.0028(3) 0.2500 0.4398(3)
H1_2 H 0.11927 0.250 0.65097
H4 H 0.14614 0.250 0.46267
N6_2 N 0.05821(15) 0.9506(3) 0.82922(18)
N7_2 N 0.26611(14) 0.9499(3) 0.81837(18)
Fe2 Fe 0.91271(3) 0.2500 0.75398(4)
N4_2 N 0.9750(2) 0.2500 0.6136(2)
C6_2 C 0.9310(3) 0.2500 0.5155(3)
H2 H 0.99402 0.250 0.36500
H3_2 H 0.86308 0.250 0.50246
C10_2 C 0.81995(16) 0.0615(3) 0.7097(2)
C11_2 C 0.81995(16) 0.4385(3) 0.7097(2)
C12_2 C 0.8563(2) 0.2500 0.8932(3)
N4_3 N 0.0250(2) 0.7500 0.3864(2)
C6_3 C 0.0690(3) 0.7500 0.4845(3)
H2_2 H 0.00598 0.750 0.63500
H3_3 H 0.13692 0.750 0.49754
Zn1_3 Zn 0.83845(2) 0.2500 0.14052(3)
N1_3 N 0.94179(15) 0.0494(3) 0.17078(18)
N2_3 N 0.73389(14) 0.0501(3) 0.18163(18)
N6_3 N 0.94179(15) 0.4506(3) 0.17078(18)
N7_3 N 0.73389(14) 0.4499(3) 0.18163(18)
C7_2 C 0.99670(16) 0.5624(3) 0.1961(2)
N3_3 N 0.8274(2) 0.2500 0.9803(2)
N5_2 N 0.9116(3) 0.7500 0.5076(3)
C1_3 C 0.99670(16) 0.9376(3) 0.1961(2)
C4_3 C 0.9289(3) 0.7500 0.4029(3)
C5_2 C 0.9972(3) 0.7500 0.5602(3)
H1_3 H 0.88073 0.750 0.34903
H4_2 H 0.85386 0.750 0.53733
N4_4 N 0.4750(2) 0.2500 0.8864(2)
C1_4 C 0.50330(16) 0.0624(3) 0.6961(2)
C4_4 C 0.5711(3) 0.2500 0.9029(3)
C6_4 C 0.4310(3) 0.2500 0.9845(3)
H1_4 H 0.61927 0.250 0.84903
H3_4 H 0.36308 0.250 0.99754
C8_2 C 0.50330(16) 0.4376(3) 0.6961(2)
Zn1_4 Zn 0.66155(2) 0.7500 0.64052(3)
N1_4 N 0.55821(15) 0.9506(3) 0.67078(18)
N2_4 N 0.76611(14) 0.9499(3) 0.68163(18)
N3_4 N 0.6726(2) 0.7500 0.4803(2)
N6_4 N 0.55821(15) 0.5494(3) 0.67078(18)
N7_4 N 0.76611(14) 0.5501(3) 0.68163(18)
N5_3 N 0.4116(3) 0.7500 0.9924(3)
C5_3 C 0.4972(3) 0.7500 0.9398(3)
H2_3 H 0.50598 0.750 0.86500
H4_3 H 0.35386 0.750 0.96267
N5_4 N 0.5884(3) 0.2500 0.0076(3)
C5_4 C 0.5028(3) 0.2500 0.0602(3)
H2_4 H 0.49402 0.250 0.13500
H4_4 H 0.64614 0.250 0.03733
loop_
_geom_bond_atom_site_label_1
_geom_bond_atom_site_label_2
_geom_bond_site_symmetry_1
_geom_bond_site_symmetry_2
Zn1 N1 1_555 1_555
Fe1 N4 1_555 1_555
N1 C1 1_555 1_555
N2 Zn1 1_555 1_555
N3 Zn1 1_555 1_555
N4 C4 1_555 1_555
C1 Fe1 1_555 1_555
C2 N2 1_555 1_555
C3 N3 1_555 1_555
C4 H1 1_555 1_555
C6 N4 1_555 1_555
H3 C6 1_555 1_555
Fe4 C2 1_555 1_555
Fe5 C3 1_555 1_555
N6 Zn1 1_555 1_555
N7 Zn1 1_555 1_555
C8 Fe1 1_555 1_555
C10 Fe1 1_555 1_555
C11 Fe1 1_555 1_555
C12 Fe1 1_555 1_555
Fe4 C9 1_555 1_555
Fe5 C9_2 1_555 1_555
C3_2 N3_2 1_555 1_555
Fe4 C3_2 1_555 1_555
Zn1_2 N1_2 1_555 1_555
N1_2 C1_2 1_555 1_555
N2_2 Zn1_2 1_555 1_555
N5 C4_2 1_555 1_555
C2_2 N2_2 1_555 1_555
C4_2 H1_2 1_555 1_555
C5 N5 1_555 1_555
H4 N5 1_555 1_555
Fe5 C2_2 1_555 1_555
N6_2 Zn1_2 1_555 1_555
N7_2 Zn1_2 1_555 1_555
Fe2 N4_2 1_555 1_555
C6_2 N4_2 1_555 1_555
H3_2 C6_2 1_555 1_555
C10_2 Fe2 1_555 1_555
C11_2 Fe2 1_555 1_555
C12_2 Fe2 1_555 1_555
Fe4 N4_3 1_555 1_555
C6_3 N4_3 1_555 1_555
H3_3 C6_3 1_555 1_555
Zn1_3 N1_3 1_555 1_555
N2_3 Zn1_3 1_555 1_555
N6_3 Zn1_3 1_555 1_555
N7_3 Zn1_3 1_555 1_555
C7_2 N6_3 1_555 1_555
C11 N7_3 1_555 1_555
C12_2 N3_3 1_555 1_555
N5_2 C4_3 1_555 1_555
C4_3 H1_3 1_555 1_555
C5_2 N5_2 1_555 1_555
H4_2 N5_2 1_555 1_555
Fe5 N4_4 1_555 1_555
N4_4 C4_4 1_555 1_555
C1_4 Fe5 1_555 1_555
C4_4 H1_4 1_555 1_555
C6_4 N4_4 1_555 1_555
H3_4 C6_4 1_555 1_555
C8_2 Fe5 1_555 1_555
Zn1_4 N1_4 1_555 1_555
N2_4 Zn1_4 1_555 1_555
N3_4 Zn1_4 1_555 1_555
C12 N3_4 1_555 1_555
N6_4 Zn1_4 1_555 1_555
N7_4 Zn1_4 1_555 1_555
C8_2 N6_4 1_555 1_555
C11_2 N7_4 1_555 1_555
C5_3 N5_3 1_555 1_555
H2_3 C5_3 1_555 1_555
H4_3 N5_3 1_555 1_555
C5_4 N5_4 1_555 1_555
H2_4 C5_4 1_555 1_555
H4_4 N5_4 1_555 1_555

#END
