
###############################################################################
#
# This file contains modified crystal structure data generated from the
# MOF subset of the Cambridge Structural Database (CSD) v543 
# hosted by the Cambridge Crystallographic Data Centre (CCDC).
#
# This work is licensed under the Creative Commons
# Attribution-NonCommercial-ShareAlike 4.0 International License.
# To view a copy of this license, visit
# http://creativecommons.org/licenses/by-nc-sa/4.0/
# or send a letter to
# Creative Commons, PO Box 1866, Mountain View, CA 94042, USA.
#
# CIF created using the CSD Python API on 29 September 2022
# The structure has been converted into the P1 space group
# The structure has a 3D framework
# The original CSD entry IMACZN01 is in the orthorhombic crystal system
# The original CSD entry IMACZN01 is in a Sohncke space group
# The framework has been calculated to contain at least 10.0% void space
# The void calculation uses a probe of radius 1.32A, grid spacing 0.4
# The framework is charged, counterions have been retained in the structure
#
###############################################################################

data_IMACZN01
_chemical_formula_moiety         '(C32 H48 N12 O32 Zn2)n'
_symmetry_cell_setting           triclinic
_symmetry_space_group_name_H-M   'P 1'
_symmetry_Int_Tables_number      1
_space_group_name_Hall           'P 1'
loop_
_symmetry_equiv_pos_site_id
_symmetry_equiv_pos_as_xyz
1 x,y,z
_cell_length_a                   12.9511(18)
_cell_length_b                   17.855(2)
_cell_length_c                   6.6597(8)
_cell_angle_alpha                90
_cell_angle_beta                 90
_cell_angle_gamma                90
_cell_volume                     1540
loop_
_atom_site_label
_atom_site_type_symbol
_atom_site_fract_x
_atom_site_fract_y
_atom_site_fract_z
Zn1 Zn 0.7500 0.2500 0.11981(4)
O1 O 0.66495(16) 0.31603(10) 0.2902(3)
O2 O 0.80602(17) 0.38412(13) 0.3399(5)
N1 N 0.7078(3) 0.5000 0.5000
C1 C 0.6436(2) 0.43494(13) 0.4365(5)
H1 H 0.5928 0.4511 0.3341
H2 H 0.6052 0.4149 0.5534
C2 C 0.7130(2) 0.37445(13) 0.3500(5)
H5 H 0.746(7) 0.511(6) 0.384(12)
Zn3 Zn 0.7500 0.7500 0.88019(4)
O5 O 0.66495(16) 0.68397(10) 0.7098(3)
O6 O 0.83505(16) 0.18397(10) 0.2902(3)
O7 O 0.80602(17) 0.61588(13) 0.6601(5)
C5 C 0.6436(2) 0.56506(13) 0.5635(5)
H7 H 0.5928 0.5489 0.6659
H8 H 0.6052 0.5851 0.4466
C6 C 0.7130(2) 0.62555(13) 0.6500(5)
H11 H 0.746(7) 0.489(6) 0.616(12)
O6_2 O 0.83505(16) 0.81603(10) 0.7098(3)
O2_2 O 0.69398(17) 0.11588(13) 0.3399(5)
N1_2 N 0.7922(3) 0.0000 0.5000
C1_2 C 0.8564(2) 0.06506(13) 0.4365(5)
H1_2 H 0.9072 0.0489 0.3341
H2_2 H 0.8948 0.0851 0.5534
C2_2 C 0.7870(2) 0.12555(13) 0.3500(5)
H11_2 H 0.754(7) 0.011(6) 0.616(12)
N1_3 N 0.7922(3) 1.0000 0.5000
H5_2 H 0.754(7) 0.989(6) 0.384(12)
O7_2 O 0.69398(17) 0.88412(13) 0.6601(5)
C5_2 C 0.8564(2) 0.93494(13) 0.5635(5)
H7_2 H 0.9072 0.9511 0.6659
H8_2 H 0.8948 0.9149 0.4466
C6_2 C 0.7870(2) 0.87445(13) 0.6500(5)
O3 O 0.64809(17) 0.19955(11) 0.9486(3)
O4 O 0.6156(3) 0.30575(13) 0.7841(4)
N2 N 0.5000 0.23915(16) 0.5000
C3 C 0.5420(2) 0.19243(13) 0.6653(4)
H3 H 0.5847 0.1518 0.6079
H4 H 0.4841 0.1691 0.7397
C4 C 0.6068(2) 0.23822(14) 0.8092(4)
H6 H 0.537(7) 0.277(5) 0.45(2)
O8 O 0.35191(17) 0.19955(11) 0.0514(3)
O9 O 0.85191(17) 0.30045(11) 0.9486(3)
O10 O 0.3844(3) 0.30575(13) 0.2159(4)
C7 C 0.4580(2) 0.19243(13) 0.3347(4)
H9 H 0.4153 0.1518 0.3921
H10 H 0.5159 0.1691 0.2603
C8 C 0.3932(2) 0.23822(14) 0.1908(4)
H12 H 0.463(7) 0.277(5) 0.55(2)
O9_2 O 0.14809(17) 0.30045(11) 0.0514(3)
N2_2 N -0.0000 0.26085(16) 0.5000
H4_2 H 0.0159 0.3309 0.7397
O10_2 O 0.1156(3) 0.19425(13) 0.2159(4)
C7_2 C 0.0420(2) 0.30757(13) 0.3347(4)
H9_2 H 0.0847 0.3482 0.3921
C8_2 C 0.1068(2) 0.26178(14) 0.1908(4)
H12_2 H 0.037(7) 0.223(5) 0.55(2)
O4_2 O 0.8844(3) 0.19425(13) 0.7841(4)
N2_3 N 1.0000 0.26085(16) 0.5000
C3_2 C 0.9580(2) 0.30757(13) 0.6653(4)
H3_2 H 0.9153 0.3482 0.6079
C4_2 C 0.8932(2) 0.26178(14) 0.8092(4)
H6_2 H 0.963(7) 0.223(5) 0.45(2)
H10_2 H 0.9841 0.3309 0.2603
Zn2 Zn 0.2500 0.2500 0.88019(4)
Zn1_2 Zn 0.2500 0.7500 0.11981(4)
O1_2 O 0.33505(16) 0.68397(10) 0.2902(3)
O2_3 O 0.19398(17) 0.61588(13) 0.3399(5)
N1_4 N 0.2922(3) 0.5000 0.5000
C1_3 C 0.3564(2) 0.56506(13) 0.4365(5)
H1_3 H 0.4072 0.5489 0.3341
H2_3 H 0.3948 0.5851 0.5534
C2_3 C 0.2870(2) 0.62555(13) 0.3500(5)
H5_3 H 0.254(7) 0.489(6) 0.384(12)
O5_2 O 0.33505(16) 0.31603(10) 0.7098(3)
O6_3 O 0.16495(16) 0.81603(10) 0.2902(3)
O7_3 O 0.19398(17) 0.38412(13) 0.6601(5)
C5_3 C 0.3564(2) 0.43494(13) 0.5635(5)
H7_3 H 0.4072 0.4511 0.6659
H8_3 H 0.3948 0.4149 0.4466
C6_3 C 0.2870(2) 0.37445(13) 0.6500(5)
H11_3 H 0.254(7) 0.511(6) 0.616(12)
O6_4 O 0.16495(16) 0.18397(10) 0.7098(3)
N1_5 N 0.2078(3) 0.0000 0.5000
H5_4 H 0.246(7) 0.011(6) 0.384(12)
O7_4 O 0.30602(17) 0.11588(13) 0.6601(5)
C5_4 C 0.1436(2) 0.06506(13) 0.5635(5)
H7_4 H 0.0928 0.0489 0.6659
H8_4 H 0.1052 0.0851 0.4466
C6_4 C 0.2130(2) 0.12555(13) 0.6500(5)
O2_4 O 0.30602(17) 0.88412(13) 0.3399(5)
N1_6 N 0.2078(3) 1.0000 0.5000
C1_4 C 0.1436(2) 0.93494(13) 0.4365(5)
H1_4 H 0.0928 0.9511 0.3341
H2_4 H 0.1052 0.9149 0.5534
C2_4 C 0.2130(2) 0.87445(13) 0.3500(5)
H11_4 H 0.246(7) 0.989(6) 0.616(12)
O3_2 O 0.35191(17) 0.80045(11) 0.9486(3)
O4_3 O 0.3844(3) 0.69425(13) 0.7841(4)
N2_4 N 0.5000 0.76085(16) 0.5000
C3_3 C 0.4580(2) 0.80757(13) 0.6653(4)
H3_3 H 0.4153 0.8482 0.6079
H4_3 H 0.5159 0.8309 0.7397
C4_3 C 0.3932(2) 0.76178(14) 0.8092(4)
H6_3 H 0.463(7) 0.723(5) 0.45(2)
O8_2 O 0.64809(17) 0.80045(11) 0.0514(3)
O9_3 O 0.14809(17) 0.69955(11) 0.9486(3)
O10_3 O 0.6156(3) 0.69425(13) 0.2159(4)
C7_3 C 0.5420(2) 0.80757(13) 0.3347(4)
H9_3 H 0.5847 0.8482 0.3921
H10_3 H 0.4841 0.8309 0.2603
C8_3 C 0.6068(2) 0.76178(14) 0.1908(4)
H12_3 H 0.537(7) 0.723(5) 0.55(2)
O9_4 O 0.85191(17) 0.69955(11) 0.0514(3)
O4_4 O 0.1156(3) 0.80575(13) 0.7841(4)
N2_5 N 0.0000 0.73915(16) 0.5000
C3_4 C 0.0420(2) 0.69243(13) 0.6653(4)
H3_4 H 0.0847 0.6518 0.6079
C4_4 C 0.1068(2) 0.73822(14) 0.8092(4)
H6_4 H 0.037(7) 0.777(5) 0.45(2)
H10_4 H 0.0159 0.6691 0.2603
N2_6 N 1.0000 0.73915(16) 0.5000
H4_4 H 0.9841 0.6691 0.7397
O10_4 O 0.8844(3) 0.80575(13) 0.2159(4)
C7_4 C 0.9580(2) 0.69243(13) 0.3347(4)
H9_4 H 0.9153 0.6518 0.3921
C8_4 C 0.8932(2) 0.73822(14) 0.1908(4)
H12_4 H 0.963(7) 0.777(5) 0.55(2)
loop_
_geom_bond_atom_site_label_1
_geom_bond_atom_site_label_2
_geom_bond_site_symmetry_1
_geom_bond_site_symmetry_2
Zn1 O1 1_555 1_555
O1 C2 1_555 1_555
O2 C2 1_555 1_555
N1 C1 1_555 1_555
C1 H1 1_555 1_555
H2 C1 1_555 1_555
C2 C1 1_555 1_555
H5 N1 1_555 1_555
Zn3 O5 1_555 1_555
O5 C6 1_555 1_555
O6 Zn1 1_555 1_555
O7 C6 1_555 1_555
C5 N1 1_555 1_555
H7 C5 1_555 1_555
H8 C5 1_555 1_555
C6 C5 1_555 1_555
H11 N1 1_555 1_555
O6_2 Zn3 1_555 1_555
O6 C2_2 1_555 1_555
O2_2 C2_2 1_555 1_555
N1_2 C1_2 1_555 1_555
C1_2 H1_2 1_555 1_555
H2_2 C1_2 1_555 1_555
C2_2 C1_2 1_555 1_555
H11_2 N1_2 1_555 1_555
H5_2 N1_3 1_555 1_555
O6_2 C6_2 1_555 1_555
O7_2 C6_2 1_555 1_555
C5_2 N1_3 1_555 1_555
H7_2 C5_2 1_555 1_555
H8_2 C5_2 1_555 1_555
C6_2 C5_2 1_555 1_555
O4 C4 1_555 1_555
N2 C3 1_555 1_555
C3 H3 1_555 1_555
H4 C3 1_555 1_555
C4 O3 1_555 1_555
H6 N2 1_555 1_555
O8 C8 1_555 1_555
O10 C8 1_555 1_555
C7 N2 1_555 1_555
H9 C7 1_555 1_555
H10 C7 1_555 1_555
C8 C7 1_555 1_555
H12 N2 1_555 1_555
C3 C4 1_555 1_555
O9_2 C8_2 1_555 1_555
O10_2 C8_2 1_555 1_555
C7_2 N2_2 1_555 1_555
H9_2 C7_2 1_555 1_555
C8_2 C7_2 1_555 1_555
H12_2 N2_2 1_555 1_555
O4_2 C4_2 1_555 1_555
N2_3 C3_2 1_555 1_555
C3_2 H3_2 1_555 1_555
C4_2 O9 1_555 1_555
H6_2 N2_3 1_555 1_555
C3_2 C4_2 1_555 1_555
Zn1_2 O1_2 1_555 1_555
O1_2 C2_3 1_555 1_555
O2_3 C2_3 1_555 1_555
N1_4 C1_3 1_555 1_555
C1_3 H1_3 1_555 1_555
H2_3 C1_3 1_555 1_555
C2_3 C1_3 1_555 1_555
H5_3 N1_4 1_555 1_555
Zn2 O5_2 1_555 1_555
O5_2 C6_3 1_555 1_555
O6_3 Zn1_2 1_555 1_555
O7_3 C6_3 1_555 1_555
C5_3 N1_4 1_555 1_555
H7_3 C5_3 1_555 1_555
H8_3 C5_3 1_555 1_555
C6_3 C5_3 1_555 1_555
H11_3 N1_4 1_555 1_555
O6_4 Zn2 1_555 1_555
H5_4 N1_5 1_555 1_555
O6_4 C6_4 1_555 1_555
O7_4 C6_4 1_555 1_555
C5_4 N1_5 1_555 1_555
H7_4 C5_4 1_555 1_555
H8_4 C5_4 1_555 1_555
C6_4 C5_4 1_555 1_555
O6_3 C2_4 1_555 1_555
O2_4 C2_4 1_555 1_555
N1_6 C1_4 1_555 1_555
C1_4 H1_4 1_555 1_555
H2_4 C1_4 1_555 1_555
C2_4 C1_4 1_555 1_555
H11_4 N1_6 1_555 1_555
O4_3 C4_3 1_555 1_555
N2_4 C3_3 1_555 1_555
C3_3 H3_3 1_555 1_555
H4_3 C3_3 1_555 1_555
C4_3 O3_2 1_555 1_555
H6_3 N2_4 1_555 1_555
O8_2 C8_3 1_555 1_555
O10_3 C8_3 1_555 1_555
C7_3 N2_4 1_555 1_555
H9_3 C7_3 1_555 1_555
H10_3 C7_3 1_555 1_555
C8_3 C7_3 1_555 1_555
H12_3 N2_4 1_555 1_555
C3_3 C4_3 1_555 1_555
O4_4 C4_4 1_555 1_555
N2_5 C3_4 1_555 1_555
C3_4 H3_4 1_555 1_555
C4_4 O9_3 1_555 1_555
H6_4 N2_5 1_555 1_555
C3_4 C4_4 1_555 1_555
O9_4 C8_4 1_555 1_555
O10_4 C8_4 1_555 1_555
C7_4 N2_6 1_555 1_555
H9_4 C7_4 1_555 1_555
C8_4 C7_4 1_555 1_555
H12_4 N2_6 1_555 1_555

#END
