
###############################################################################
#
# This file contains modified crystal structure data generated from the
# MOF subset of the Cambridge Structural Database (CSD) v543 
# hosted by the Cambridge Crystallographic Data Centre (CCDC).
#
# This work is licensed under the Creative Commons
# Attribution-NonCommercial-ShareAlike 4.0 International License.
# To view a copy of this license, visit
# http://creativecommons.org/licenses/by-nc-sa/4.0/
# or send a letter to
# Creative Commons, PO Box 1866, Mountain View, CA 94042, USA.
#
# CIF created using the CSD Python API on 29 September 2022
# The structure has been converted into the P1 space group
# The structure has a 3D framework
# The original CSD entry IMIDZB is in the tetragonal crystal system
# The framework has been calculated to contain at least 10.0% void space
# The void calculation uses a probe of radius 1.32A, grid spacing 0.4
# H atom positions have been added when not included in the experimental data
#
###############################################################################

data_IMIDZB
_chemical_formula_moiety         '(C192 H192 N120 Zn28)n'
_symmetry_cell_setting           triclinic
_symmetry_space_group_name_H-M   'P 1'
_symmetry_Int_Tables_number      1
_space_group_name_Hall           'P 1'
loop_
_symmetry_equiv_pos_site_id
_symmetry_equiv_pos_as_xyz
1 x,y,z
_cell_length_a                   23.481
_cell_length_b                   23.481
_cell_length_c                   12.461
_cell_angle_alpha                90
_cell_angle_beta                 90
_cell_angle_gamma                90
_cell_volume                     6870.46
loop_
_atom_site_label
_atom_site_type_symbol
_atom_site_fract_x
_atom_site_fract_y
_atom_site_fract_z
Zn1 Zn 0.35170 0.09660 0.27290
N1 N 0.34560 0.01550 0.30570
N3 N 0.29110 0.12070 0.17240
N4 N 0.21560 0.12250 0.06780
N5 N 0.36380 0.15550 0.58930
N6 N 0.34330 0.13860 0.41400
N7 N 0.51710 0.14250 0.19610
N8 N 0.42800 0.11660 0.20920
C4 C 0.24690 0.09140 0.12850
C5 C 0.24470 0.17610 0.05770
C6 C 0.28730 0.17410 0.12710
C7 C 0.35940 0.11770 0.50940
C8 C 0.35920 0.20840 0.52810
C9 C 0.34230 0.19440 0.41940
C10 C 0.47510 0.12620 0.25870
C11 C 0.43660 0.14030 0.11230
C12 C 0.49380 0.14960 0.10740
Zn4 Zn 0.39930 0.14990 0.72720
Zn5 Zn 0.60070 0.14990 0.22720
H1 H 0.233918 0.21109 0.00405741
H2 H 0.238939 0.0463893 0.143285
H3 H 0.479782 0.121243 0.345143
H4 H 0.367122 0.251067 0.55893
H5 H 0.404848 0.149929 0.0512391
H6 H 0.368365 0.0726272 0.521163
H7 H 0.331107 0.22401 0.35553
H8 H 0.516416 0.16178 0.0346365
H9 H 0.315396 0.209642 0.145784
H10 H 0.290889 0.00493626 0.449213
Zn3 Zn 0.14990 0.10070 0.97720
Zn2 Zn 0.39930 0.85010 0.22720
N2 N 0.37100 0.91970 0.29330
C1 C 0.38290 0.97680 0.25250
C2 C 0.33270 0.93100 0.37910
C3 C 0.31850 0.98640 0.38830
N9 N 0.37750 0.78440 0.31780
N10 N 0.36380 0.84450 0.08930
N11 N 0.48290 0.85750 0.19610
H11 H 0.414607 0.987833 0.192205
H12 H 0.316393 0.898023 0.432316
N7_2 N 0.01710 0.64250 0.69610
Zn5_2 Zn 0.10070 0.64990 0.72720
H8_2 H 0.0164161 0.66178 0.534637
N5_2 N 0.86380 0.65550 0.08930
C7_2 C 0.85940 0.61770 0.00940
C8_2 C 0.85920 0.70840 0.02810
Zn4_2 Zn 0.89930 0.64990 0.22720
H4_2 H 0.867122 0.751067 0.0589297
H6_2 H 0.868365 0.572627 0.0211634
Zn1_2 Zn 0.85170 0.59660 0.77290
Zn2_2 Zn 0.89930 0.35010 0.72720
N1_2 N 0.84560 0.51550 0.80570
N2_2 N 0.87100 0.41970 0.79330
N3_2 N 0.79110 0.62070 0.67240
N4_2 N 0.71560 0.62250 0.56780
N6_2 N 0.84330 0.63860 0.91400
N8_2 N 0.92800 0.61660 0.70920
C1_2 C 0.88290 0.47680 0.75250
C2_2 C 0.83270 0.43100 0.87910
C3_2 C 0.81850 0.48640 0.88830
C4_2 C 0.74690 0.59140 0.62850
C5_2 C 0.74470 0.67610 0.55770
C6_2 C 0.78730 0.67410 0.62710
C9_2 C 0.84230 0.69440 0.91940
C10_2 C 0.97510 0.62620 0.75870
C11_2 C 0.93660 0.64030 0.61230
C12_2 C 0.99380 0.64960 0.60740
Zn3_2 Zn 0.64990 0.60070 0.47720
N9_2 N 0.87750 0.28440 0.81780
N10_2 N 0.86380 0.34450 0.58930
N11_2 N 0.98290 0.35750 0.69610
H1_2 H 0.733918 0.71109 0.504057
H2_2 H 0.738939 0.546389 0.643285
H3_2 H 0.979782 0.621243 0.845143
H5_2 H 0.904848 0.649929 0.551239
H7_2 H 0.831107 0.72401 0.85553
H9_2 H 0.815396 0.709642 0.645784
H10_2 H 0.790889 0.504936 0.949213
H11_2 H 0.914607 0.487833 0.692205
H12_2 H 0.816393 0.398023 0.932316
Zn2_3 Zn 0.14990 0.89930 0.47720
N2_3 N 0.08030 0.87100 0.54330
C1_3 C 0.02320 0.88290 0.50250
C2_3 C 0.06900 0.83270 0.62910
C3_3 C 0.01360 0.81850 0.63830
N9_3 N 0.21560 0.87750 0.56780
N10_3 N 0.15550 0.86380 0.33930
N11_3 N 0.14250 0.98290 0.44610
H11_3 H 0.0121667 0.914607 0.442205
H12_3 H 0.101977 0.816393 0.682316
N7_3 N 0.85750 0.01710 0.44610
Zn5_3 Zn 0.85010 0.10070 0.47720
H8_3 H 0.83822 0.0164161 0.284637
Zn1_3 Zn 0.90340 0.85170 0.52290
N1_3 N 0.98450 0.84560 0.55570
N3_3 N 0.87930 0.79110 0.42240
N4_3 N 0.87750 0.71560 0.31780
N5_3 N 0.84450 0.86380 0.83930
N6_3 N 0.86140 0.84330 0.66400
N8_3 N 0.88340 0.92800 0.45920
C4_3 C 0.90860 0.74690 0.37850
C5_3 C 0.82390 0.74470 0.30770
C6_3 C 0.82590 0.78730 0.37710
C7_3 C 0.88230 0.85940 0.75940
C8_3 C 0.79160 0.85920 0.77810
C9_3 C 0.80560 0.84230 0.66940
C10_3 C 0.87380 0.97510 0.50870
C11_3 C 0.85970 0.93660 0.36230
C12_3 C 0.85040 0.99380 0.35740
Zn4_3 Zn 0.85010 0.89930 0.97720
H1_3 H 0.78891 0.733918 0.254057
H2_3 H 0.953611 0.738939 0.393285
H3_3 H 0.878757 0.979782 0.595143
H4_3 H 0.748933 0.867122 0.80893
H5_3 H 0.850071 0.904848 0.301239
H6_3 H 0.927373 0.868365 0.771163
H7_3 H 0.77599 0.831107 0.60553
H9_3 H 0.790358 0.815396 0.395784
H10_3 H 0.995064 0.790889 0.699213
Zn1_4 Zn 0.40340 0.35170 0.02290
N1_4 N 0.48450 0.34560 0.05570
N2_4 N 0.58030 0.37100 0.04330
N5_4 N 0.34450 0.36380 0.33930
N6_4 N 0.36140 0.34330 0.16400
C1_4 C 0.52320 0.38290 0.00250
C2_4 C 0.56900 0.33270 0.12910
C3_4 C 0.51360 0.31850 0.13830
C7_4 C 0.38230 0.35940 0.25940
C8_4 C 0.29160 0.35920 0.27810
C9_4 C 0.30560 0.34230 0.16940
C10_4 C 0.37380 0.47510 0.00870
Zn4_4 Zn 0.35010 0.39930 0.47720
N9_4 N 0.71560 0.37750 0.06780
H3_4 H 0.378757 0.479782 0.0951431
H4_4 H 0.248933 0.367122 0.30893
H6_4 H 0.427373 0.368365 0.271163
H7_4 H 0.27599 0.331107 0.10553
H10_4 H 0.495064 0.290889 0.199213
H12_4 H 0.601977 0.316393 0.182316
Zn2_4 Zn 0.64990 0.39930 0.97720
N3_4 N 0.37930 0.29110 0.92240
N4_4 N 0.37750 0.21560 0.81780
N7_4 N 0.35750 0.51710 0.94610
N8_4 N 0.38340 0.42800 0.95920
C4_4 C 0.40860 0.24690 0.87850
C5_4 C 0.32390 0.24470 0.80770
C6_4 C 0.32590 0.28730 0.87710
C11_4 C 0.35970 0.43660 0.86230
C12_4 C 0.35040 0.49380 0.85740
Zn5_4 Zn 0.35010 0.60070 0.97720
N10_4 N 0.65550 0.36380 0.83930
N11_4 N 0.64250 0.48290 0.94610
H1_4 H 0.28891 0.233918 0.754057
H2_4 H 0.453611 0.238939 0.893285
H5_4 H 0.350071 0.404848 0.801239
H8_4 H 0.33822 0.516416 0.784637
H9_4 H 0.290358 0.315396 0.895784
H11_4 H 0.512167 0.414607 0.942205
N2_5 N 0.62900 0.08030 0.29330
C1_5 C 0.61710 0.02320 0.25250
C2_5 C 0.66730 0.06900 0.37910
C3_5 C 0.68150 0.01360 0.38830
N9_5 N 0.62250 0.21560 0.31780
N10_5 N 0.63620 0.15550 0.08930
H11_5 H 0.585393 0.0121667 0.192205
H12_5 H 0.683607 0.101977 0.432316
Zn1_5 Zn 0.64830 0.90340 0.27290
N1_5 N 0.65440 0.98450 0.30570
N3_5 N 0.70890 0.87930 0.17240
N4_5 N 0.78440 0.87750 0.06780
N5_5 N 0.63620 0.84450 0.58930
N6_5 N 0.65670 0.86140 0.41400
N8_5 N 0.57200 0.88340 0.20920
C4_5 C 0.75310 0.90860 0.12850
C5_5 C 0.75530 0.82390 0.05770
C6_5 C 0.71270 0.82590 0.12710
C7_5 C 0.64060 0.88230 0.50940
C8_5 C 0.64080 0.79160 0.52810
C9_5 C 0.65770 0.80560 0.41940
C10_5 C 0.52490 0.87380 0.25870
C11_5 C 0.56340 0.85970 0.11230
C12_5 C 0.50620 0.85040 0.10740
Zn4_5 Zn 0.60070 0.85010 0.72720
H1_5 H 0.766082 0.78891 0.00405741
H2_5 H 0.761061 0.953611 0.143285
H3_5 H 0.520218 0.878757 0.345143
H4_5 H 0.632878 0.748933 0.55893
H5_5 H 0.595152 0.850071 0.0512391
H6_5 H 0.631635 0.927373 0.521163
H7_5 H 0.668893 0.77599 0.35553
H8_5 H 0.483584 0.83822 0.0346365
H9_5 H 0.684604 0.790358 0.145784
H10_5 H 0.709111 0.995064 0.449213
N5_6 N 0.13620 0.34450 0.08930
C7_6 C 0.14060 0.38230 0.00940
C8_6 C 0.14080 0.29160 0.02810
Zn4_6 Zn 0.10070 0.35010 0.22720
H4_6 H 0.132878 0.248933 0.0589297
H6_6 H 0.131635 0.427373 0.0211634
Zn1_6 Zn 0.14830 0.40340 0.77290
N1_6 N 0.15440 0.48450 0.80570
N2_6 N 0.12900 0.58030 0.79330
N3_6 N 0.20890 0.37930 0.67240
N4_6 N 0.28440 0.37750 0.56780
N6_6 N 0.15670 0.36140 0.91400
N8_6 N 0.07200 0.38340 0.70920
C1_6 C 0.11710 0.52320 0.75250
C2_6 C 0.16730 0.56900 0.87910
C3_6 C 0.18150 0.51360 0.88830
C4_6 C 0.25310 0.40860 0.62850
C5_6 C 0.25530 0.32390 0.55770
C6_6 C 0.21270 0.32590 0.62710
C9_6 C 0.15770 0.30560 0.91940
C10_6 C 0.02490 0.37380 0.75870
C11_6 C 0.06340 0.35970 0.61230
C12_6 C 0.00620 0.35040 0.60740
N9_6 N 0.12250 0.71560 0.81780
N10_6 N 0.13620 0.65550 0.58930
H1_6 H 0.266082 0.28891 0.504057
H2_6 H 0.261061 0.453611 0.643285
H3_6 H 0.0202181 0.378757 0.845143
H5_6 H 0.0951516 0.350071 0.551239
H7_6 H 0.168893 0.27599 0.85553
H9_6 H 0.184604 0.290358 0.645784
H10_6 H 0.209111 0.495064 0.949213
H11_6 H 0.0853932 0.512167 0.692205
H12_6 H 0.183607 0.601977 0.932316
H8_6 H 0.983584 0.33822 0.534637
Zn1_7 Zn 0.09660 0.14830 0.52290
N1_7 N 0.01550 0.15440 0.55570
N3_7 N 0.12070 0.20890 0.42240
N4_7 N 0.12250 0.28440 0.31780
N5_7 N 0.15550 0.13620 0.83930
N6_7 N 0.13860 0.15670 0.66400
N8_7 N 0.11660 0.07200 0.45920
C4_7 C 0.09140 0.25310 0.37850
C5_7 C 0.17610 0.25530 0.30770
C6_7 C 0.17410 0.21270 0.37710
C7_7 C 0.11770 0.14060 0.75940
C8_7 C 0.20840 0.14080 0.77810
C9_7 C 0.19440 0.15770 0.66940
C10_7 C 0.12620 0.02490 0.50870
C11_7 C 0.14030 0.06340 0.36230
C12_7 C 0.14960 0.00620 0.35740
H1_7 H 0.21109 0.266082 0.254057
H2_7 H 0.0463893 0.261061 0.393285
H3_7 H 0.121243 0.0202181 0.595143
H4_7 H 0.251067 0.132878 0.80893
H5_7 H 0.149929 0.0951516 0.301239
H6_7 H 0.0726272 0.131635 0.771163
H7_7 H 0.22401 0.168893 0.60553
H9_7 H 0.209642 0.184604 0.395784
H10_7 H 0.00493626 0.209111 0.699213
H8_7 H 0.16178 0.983584 0.284637
N2_7 N 0.91970 0.12900 0.54330
C1_7 C 0.97680 0.11710 0.50250
C2_7 C 0.93100 0.16730 0.62910
C3_7 C 0.98640 0.18150 0.63830
N9_7 N 0.78440 0.12250 0.56780
N10_7 N 0.84450 0.13620 0.33930
H11_7 H 0.987833 0.0853932 0.442205
H12_7 H 0.898023 0.183607 0.682316
Zn1_8 Zn 0.59660 0.64830 0.02290
N1_8 N 0.51550 0.65440 0.05570
N2_8 N 0.41970 0.62900 0.04330
N5_8 N 0.65550 0.63620 0.33930
N6_8 N 0.63860 0.65670 0.16400
C1_8 C 0.47680 0.61710 0.00250
C2_8 C 0.43100 0.66730 0.12910
C3_8 C 0.48640 0.68150 0.13830
C7_8 C 0.61770 0.64060 0.25940
C8_8 C 0.70840 0.64080 0.27810
C9_8 C 0.69440 0.65770 0.16940
C10_8 C 0.62620 0.52490 0.00870
N9_8 N 0.28440 0.62250 0.06780
H3_8 H 0.621243 0.520218 0.0951431
H4_8 H 0.751067 0.632878 0.30893
H6_8 H 0.572627 0.631635 0.271163
H7_8 H 0.72401 0.668893 0.10553
H10_8 H 0.504936 0.709111 0.199213
H12_8 H 0.398023 0.683607 0.182316
N3_8 N 0.62070 0.70890 0.92240
N4_8 N 0.62250 0.78440 0.81780
N8_8 N 0.61660 0.57200 0.95920
C4_8 C 0.59140 0.75310 0.87850
C5_8 C 0.67610 0.75530 0.80770
C6_8 C 0.67410 0.71270 0.87710
C11_8 C 0.64030 0.56340 0.86230
C12_8 C 0.64960 0.50620 0.85740
N10_8 N 0.34450 0.63620 0.83930
H1_8 H 0.71109 0.766082 0.754057
H2_8 H 0.546389 0.761061 0.893285
H5_8 H 0.649929 0.595152 0.801239
H8_8 H 0.66178 0.483584 0.784637
H9_8 H 0.709642 0.684604 0.895784
H11_8 H 0.487833 0.585393 0.942205
C7_9 C 0.64060 0.11770 0.00940
C8_9 C 0.64080 0.20840 0.02810
H4_9 H 0.632878 0.251067 0.0589297
H6_9 H 0.631635 0.0726272 0.0211634
Zn1_9 Zn 0.64830 0.09660 0.77290
N1_9 N 0.65440 0.01550 0.80570
N3_9 N 0.70890 0.12070 0.67240
N6_9 N 0.65670 0.13860 0.91400
N7_5 N 0.48290 0.14250 0.69610
N8_9 N 0.57200 0.11660 0.70920
C4_9 C 0.75310 0.09140 0.62850
C5_9 C 0.75530 0.17610 0.55770
C6_9 C 0.71270 0.17410 0.62710
C9_9 C 0.65770 0.19440 0.91940
C10_9 C 0.52490 0.12620 0.75870
C11_9 C 0.56340 0.14030 0.61230
C12_9 C 0.50620 0.14960 0.60740
H1_9 H 0.766082 0.21109 0.504057
H2_9 H 0.761061 0.0463893 0.643285
H3_9 H 0.520218 0.121243 0.845143
H5_9 H 0.595152 0.149929 0.551239
H7_9 H 0.668893 0.22401 0.85553
H8_9 H 0.483584 0.16178 0.534637
H9_9 H 0.684604 0.209642 0.645784
H10_9 H 0.709111 0.00493626 0.949213
N2_9 N 0.62900 0.91970 0.79330
C1_9 C 0.61710 0.97680 0.75250
C2_9 C 0.66730 0.93100 0.87910
C3_9 C 0.68150 0.98640 0.88830
N11_5 N 0.51710 0.85750 0.69610
H11_9 H 0.585393 0.987833 0.692205
H12_9 H 0.683607 0.898023 0.932316
Zn1_10 Zn 0.14830 0.59660 0.27290
N1_10 N 0.15440 0.51550 0.30570
N2_10 N 0.12900 0.41970 0.29330
N3_10 N 0.20890 0.62070 0.17240
N6_10 N 0.15670 0.63860 0.41400
N8_10 N 0.07200 0.61660 0.20920
C1_10 C 0.11710 0.47680 0.25250
C2_10 C 0.16730 0.43100 0.37910
C3_10 C 0.18150 0.48640 0.38830
C4_10 C 0.25310 0.59140 0.12850
C5_10 C 0.25530 0.67610 0.05770
C6_10 C 0.21270 0.67410 0.12710
C7_10 C 0.14060 0.61770 0.50940
C8_10 C 0.14080 0.70840 0.52810
C9_10 C 0.15770 0.69440 0.41940
C10_10 C 0.02490 0.62620 0.25870
C11_10 C 0.06340 0.64030 0.11230
C12_10 C 0.00620 0.64960 0.10740
N11_6 N 0.01710 0.35750 0.19610
H1_10 H 0.266082 0.71109 0.00405741
H2_10 H 0.261061 0.546389 0.143285
H3_10 H 0.0202181 0.621243 0.345143
H4_10 H 0.132878 0.751067 0.55893
H5_10 H 0.0951516 0.649929 0.0512391
H6_10 H 0.131635 0.572627 0.521163
H7_10 H 0.168893 0.72401 0.35553
H9_10 H 0.184604 0.709642 0.145784
H10_10 H 0.209111 0.504936 0.449213
H11_10 H 0.0853932 0.487833 0.192205
H12_10 H 0.183607 0.398023 0.432316
N7_6 N 0.98290 0.64250 0.19610
H8_10 H 0.983584 0.66178 0.0346365
N7_7 N 0.14250 0.01710 0.94610
H8_11 H 0.16178 0.0164161 0.784637
Zn1_11 Zn 0.09660 0.85170 0.02290
N1_11 N 0.01550 0.84560 0.05570
N6_11 N 0.13860 0.84330 0.16400
C7_11 C 0.11770 0.85940 0.25940
C8_11 C 0.20840 0.85920 0.27810
C9_11 C 0.19440 0.84230 0.16940
C10_11 C 0.12620 0.97510 0.00870
H3_11 H 0.121243 0.979782 0.0951431
H4_11 H 0.251067 0.867122 0.30893
H6_11 H 0.0726272 0.868365 0.271163
H7_11 H 0.22401 0.831107 0.10553
H10_11 H 0.00493626 0.790889 0.199213
N3_11 N 0.12070 0.79110 0.92240
N8_11 N 0.11660 0.92800 0.95920
C4_11 C 0.09140 0.74690 0.87850
C5_11 C 0.17610 0.74470 0.80770
C6_11 C 0.17410 0.78730 0.87710
C11_11 C 0.14030 0.93660 0.86230
C12_11 C 0.14960 0.99380 0.85740
H1_11 H 0.21109 0.733918 0.754057
H2_11 H 0.0463893 0.738939 0.893285
H5_11 H 0.149929 0.904848 0.801239
H9_11 H 0.209642 0.815396 0.895784
N2_11 N 0.91970 0.87100 0.04330
C1_11 C 0.97680 0.88290 0.00250
C2_11 C 0.93100 0.83270 0.12910
C3_11 C 0.98640 0.81850 0.13830
H12_11 H 0.898023 0.816393 0.182316
N11_7 N 0.85750 0.98290 0.94610
H11_11 H 0.987833 0.914607 0.942205
Zn1_12 Zn 0.59660 0.35170 0.52290
N1_12 N 0.51550 0.34560 0.55570
N2_12 N 0.41970 0.37100 0.54330
N3_12 N 0.62070 0.29110 0.42240
N6_12 N 0.63860 0.34330 0.66400
N7_8 N 0.64250 0.51710 0.44610
N8_12 N 0.61660 0.42800 0.45920
C1_12 C 0.47680 0.38290 0.50250
C2_12 C 0.43100 0.33270 0.62910
C3_12 C 0.48640 0.31850 0.63830
C4_12 C 0.59140 0.24690 0.37850
C5_12 C 0.67610 0.24470 0.30770
C6_12 C 0.67410 0.28730 0.37710
C7_12 C 0.61770 0.35940 0.75940
C8_12 C 0.70840 0.35920 0.77810
C9_12 C 0.69440 0.34230 0.66940
C10_12 C 0.62620 0.47510 0.50870
C11_12 C 0.64030 0.43660 0.36230
C12_12 C 0.64960 0.49380 0.35740
N11_8 N 0.35750 0.48290 0.44610
H1_12 H 0.71109 0.233918 0.254057
H2_12 H 0.546389 0.238939 0.393285
H3_12 H 0.621243 0.479782 0.595143
H4_12 H 0.751067 0.367122 0.80893
H5_12 H 0.649929 0.404848 0.301239
H6_12 H 0.572627 0.368365 0.771163
H7_12 H 0.72401 0.331107 0.60553
H8_12 H 0.66178 0.516416 0.284637
H9_12 H 0.709642 0.315396 0.395784
H10_12 H 0.504936 0.290889 0.699213
H11_12 H 0.487833 0.414607 0.442205
H12_12 H 0.398023 0.316393 0.682316
N2_13 N 0.37100 0.08030 0.79330
C1_13 C 0.38290 0.02320 0.75250
C2_13 C 0.33270 0.06900 0.87910
C3_13 C 0.31850 0.01360 0.88830
H11_13 H 0.414607 0.0121667 0.692205
H12_13 H 0.316393 0.101977 0.932316
C7_13 C 0.35940 0.88230 0.00940
C8_13 C 0.35920 0.79160 0.02810
H4_13 H 0.367122 0.748933 0.0589297
H6_13 H 0.368365 0.927373 0.0211634
Zn1_13 Zn 0.35170 0.90340 0.77290
N1_13 N 0.34560 0.98450 0.80570
N3_13 N 0.29110 0.87930 0.67240
N6_13 N 0.34330 0.86140 0.91400
N8_13 N 0.42800 0.88340 0.70920
C4_13 C 0.24690 0.90860 0.62850
C5_13 C 0.24470 0.82390 0.55770
C6_13 C 0.28730 0.82590 0.62710
C9_13 C 0.34230 0.80560 0.91940
C10_13 C 0.47510 0.87380 0.75870
C11_13 C 0.43660 0.85970 0.61230
C12_13 C 0.49380 0.85040 0.60740
H1_13 H 0.233918 0.78891 0.504057
H2_13 H 0.238939 0.953611 0.643285
H3_13 H 0.479782 0.878757 0.845143
H5_13 H 0.404848 0.850071 0.551239
H7_13 H 0.331107 0.77599 0.85553
H8_13 H 0.516416 0.83822 0.534637
H9_13 H 0.315396 0.790358 0.645784
H10_13 H 0.290889 0.995064 0.949213
H8_14 H 0.0164161 0.33822 0.0346365
Zn1_14 Zn 0.85170 0.40340 0.27290
N1_14 N 0.84560 0.48450 0.30570
N2_14 N 0.87100 0.58030 0.29330
N3_14 N 0.79110 0.37930 0.17240
N6_14 N 0.84330 0.36140 0.41400
N8_14 N 0.92800 0.38340 0.20920
C1_14 C 0.88290 0.52320 0.25250
C2_14 C 0.83270 0.56900 0.37910
C3_14 C 0.81850 0.51360 0.38830
C4_14 C 0.74690 0.40860 0.12850
C5_14 C 0.74470 0.32390 0.05770
C6_14 C 0.78730 0.32590 0.12710
C7_14 C 0.85940 0.38230 0.50940
C8_14 C 0.85920 0.29160 0.52810
C9_14 C 0.84230 0.30560 0.41940
C10_14 C 0.97510 0.37380 0.25870
C11_14 C 0.93660 0.35970 0.11230
C12_14 C 0.99380 0.35040 0.10740
H1_14 H 0.733918 0.28891 0.00405741
H2_14 H 0.738939 0.453611 0.143285
H3_14 H 0.979782 0.378757 0.345143
H4_14 H 0.867122 0.248933 0.55893
H5_14 H 0.904848 0.350071 0.0512391
H6_14 H 0.868365 0.427373 0.521163
H7_14 H 0.831107 0.27599 0.35553
H9_14 H 0.815396 0.290358 0.145784
H10_14 H 0.790889 0.495064 0.449213
H11_14 H 0.914607 0.512167 0.192205
H12_14 H 0.816393 0.601977 0.432316
N2_15 N 0.08030 0.12900 0.04330
C1_15 C 0.02320 0.11710 0.00250
C2_15 C 0.06900 0.16730 0.12910
C3_15 C 0.01360 0.18150 0.13830
H12_15 H 0.101977 0.183607 0.182316
H11_15 H 0.0121667 0.0853932 0.942205
Zn1_15 Zn 0.90340 0.14830 0.02290
N1_15 N 0.98450 0.15440 0.05570
N6_15 N 0.86140 0.15670 0.16400
C7_15 C 0.88230 0.14060 0.25940
C8_15 C 0.79160 0.14080 0.27810
C9_15 C 0.80560 0.15770 0.16940
C10_15 C 0.87380 0.02490 0.00870
H3_15 H 0.878757 0.0202181 0.0951431
H4_15 H 0.748933 0.132878 0.30893
H6_15 H 0.927373 0.131635 0.271163
H7_15 H 0.77599 0.168893 0.10553
H10_15 H 0.995064 0.209111 0.199213
N3_15 N 0.87930 0.20890 0.92240
N8_15 N 0.88340 0.07200 0.95920
C4_15 C 0.90860 0.25310 0.87850
C5_15 C 0.82390 0.25530 0.80770
C6_15 C 0.82590 0.21270 0.87710
C11_15 C 0.85970 0.06340 0.86230
C12_15 C 0.85040 0.00620 0.85740
H1_15 H 0.78891 0.266082 0.754057
H2_15 H 0.953611 0.261061 0.893285
H5_15 H 0.850071 0.0951516 0.801239
H9_15 H 0.790358 0.184604 0.895784
H8_15 H 0.83822 0.983584 0.784637
Zn1_16 Zn 0.40340 0.64830 0.52290
N1_16 N 0.48450 0.65440 0.55570
N2_16 N 0.58030 0.62900 0.54330
N3_16 N 0.37930 0.70890 0.42240
N6_16 N 0.36140 0.65670 0.66400
N8_16 N 0.38340 0.57200 0.45920
C1_16 C 0.52320 0.61710 0.50250
C2_16 C 0.56900 0.66730 0.62910
C3_16 C 0.51360 0.68150 0.63830
C4_16 C 0.40860 0.75310 0.37850
C5_16 C 0.32390 0.75530 0.30770
C6_16 C 0.32590 0.71270 0.37710
C7_16 C 0.38230 0.64060 0.75940
C8_16 C 0.29160 0.64080 0.77810
C9_16 C 0.30560 0.65770 0.66940
C10_16 C 0.37380 0.52490 0.50870
C11_16 C 0.35970 0.56340 0.36230
C12_16 C 0.35040 0.50620 0.35740
H1_16 H 0.28891 0.766082 0.254057
H2_16 H 0.453611 0.761061 0.393285
H3_16 H 0.378757 0.520218 0.595143
H4_16 H 0.248933 0.632878 0.80893
H5_16 H 0.350071 0.595152 0.301239
H6_16 H 0.427373 0.631635 0.771163
H7_16 H 0.27599 0.668893 0.60553
H8_16 H 0.33822 0.483584 0.284637
H9_16 H 0.290358 0.684604 0.395784
H10_16 H 0.495064 0.709111 0.699213
H11_16 H 0.512167 0.585393 0.442205
H12_16 H 0.601977 0.683607 0.682316
loop_
_geom_bond_atom_site_label_1
_geom_bond_atom_site_label_2
_geom_bond_site_symmetry_1
_geom_bond_site_symmetry_2
Zn1 N1 1_555 1_555
N3 Zn1 1_555 1_555
N4 C4 1_555 1_555
N5 C7 1_555 1_555
N6 Zn1 1_555 1_555
N7 C10 1_555 1_555
N8 Zn1 1_555 1_555
C4 N3 1_555 1_555
C5 N4 1_555 1_555
C6 N3 1_555 1_555
C7 N6 1_555 1_555
C8 N5 1_555 1_555
C9 N6 1_555 1_555
C10 N8 1_555 1_555
C11 N8 1_555 1_555
C12 N7 1_555 1_555
Zn4 N5 1_555 1_555
Zn5 N7 1_555 1_555
C5 C6 1_555 1_555
C8 C9 1_555 1_555
C11 C12 1_555 1_555
C5 H1 1_555 1_555
C4 H2 1_555 1_555
C10 H3 1_555 1_555
C8 H4 1_555 1_555
C11 H5 1_555 1_555
C7 H6 1_555 1_555
C9 H7 1_555 1_555
C12 H8 1_555 1_555
C6 H9 1_555 1_555
Zn2 N2 1_555 1_555
N2 C1 1_555 1_555
C2 N2 1_555 1_555
N9 Zn2 1_555 1_555
N10 Zn2 1_555 1_555
N11 Zn2 1_555 1_555
C2 C3 1_555 1_555
C1 H11 1_555 1_555
C2 H12 1_555 1_555
Zn5_2 N7_2 1_555 1_555
N5_2 C7_2 1_555 1_555
C8_2 N5_2 1_555 1_555
Zn4_2 N5_2 1_555 1_555
C8_2 H4_2 1_555 1_555
C7_2 H6_2 1_555 1_555
Zn1_2 N1_2 1_555 1_555
Zn2_2 N2_2 1_555 1_555
N1_2 C1_2 1_555 1_555
N2_2 C1_2 1_555 1_555
N3_2 Zn1_2 1_555 1_555
N4_2 C4_2 1_555 1_555
N6_2 Zn1_2 1_555 1_555
N8_2 Zn1_2 1_555 1_555
C2_2 N2_2 1_555 1_555
C3_2 N1_2 1_555 1_555
C4_2 N3_2 1_555 1_555
C5_2 N4_2 1_555 1_555
C6_2 N3_2 1_555 1_555
C9_2 N6_2 1_555 1_555
C10_2 N8_2 1_555 1_555
C11_2 N8_2 1_555 1_555
Zn3_2 N4_2 1_555 1_555
N9_2 Zn2_2 1_555 1_555
N10_2 Zn2_2 1_555 1_555
N11_2 Zn2_2 1_555 1_555
C2_2 C3_2 1_555 1_555
C5_2 C6_2 1_555 1_555
C11_2 C12_2 1_555 1_555
C5_2 H1_2 1_555 1_555
C4_2 H2_2 1_555 1_555
C10_2 H3_2 1_555 1_555
C11_2 H5_2 1_555 1_555
C9_2 H7_2 1_555 1_555
C6_2 H9_2 1_555 1_555
C3_2 H10_2 1_555 1_555
C1_2 H11_2 1_555 1_555
C2_2 H12_2 1_555 1_555
Zn2_3 N2_3 1_555 1_555
N2_3 C1_3 1_555 1_555
C2_3 N2_3 1_555 1_555
N9_3 Zn2_3 1_555 1_555
N10_3 Zn2_3 1_555 1_555
N11_3 Zn2_3 1_555 1_555
C2_3 C3_3 1_555 1_555
C1_3 H11_3 1_555 1_555
C2_3 H12_3 1_555 1_555
Zn5_3 N7_3 1_555 1_555
Zn1_3 N1_3 1_555 1_555
N3_3 Zn1_3 1_555 1_555
N4_3 C4_3 1_555 1_555
N5_3 C7_3 1_555 1_555
N6_3 Zn1_3 1_555 1_555
N8_3 Zn1_3 1_555 1_555
C4_3 N3_3 1_555 1_555
C5_3 N4_3 1_555 1_555
C6_3 N3_3 1_555 1_555
C7_3 N6_3 1_555 1_555
C8_3 N5_3 1_555 1_555
C9_3 N6_3 1_555 1_555
C10_3 N8_3 1_555 1_555
C11_3 N8_3 1_555 1_555
Zn4_2 N4_3 1_555 1_555
Zn4_3 N5_3 1_555 1_555
C5_3 C6_3 1_555 1_555
C8_3 C9_3 1_555 1_555
C11_3 C12_3 1_555 1_555
C5_3 H1_3 1_555 1_555
C4_3 H2_3 1_555 1_555
C10_3 H3_3 1_555 1_555
C8_3 H4_3 1_555 1_555
C11_3 H5_3 1_555 1_555
C7_3 H6_3 1_555 1_555
C9_3 H7_3 1_555 1_555
C6_3 H9_3 1_555 1_555
Zn1_4 N1_4 1_555 1_555
N1_4 C1_4 1_555 1_555
N2_4 C1_4 1_555 1_555
N5_4 C7_4 1_555 1_555
N6_4 Zn1_4 1_555 1_555
C2_4 N2_4 1_555 1_555
C3_4 N1_4 1_555 1_555
C7_4 N6_4 1_555 1_555
C8_4 N5_4 1_555 1_555
C9_4 N6_4 1_555 1_555
Zn4_4 N5_4 1_555 1_555
C2_4 C3_4 1_555 1_555
C8_4 C9_4 1_555 1_555
C10_4 H3_4 1_555 1_555
C8_4 H4_4 1_555 1_555
C7_4 H6_4 1_555 1_555
C9_4 H7_4 1_555 1_555
C3_4 H10_4 1_555 1_555
C2_4 H12_4 1_555 1_555
N4_4 C4_4 1_555 1_555
C4_4 N3_4 1_555 1_555
C5_4 N4_4 1_555 1_555
C6_4 N3_4 1_555 1_555
C11_4 N8_4 1_555 1_555
C12_4 N7_4 1_555 1_555
Zn4 N4_4 1_555 1_555
Zn5_4 N7_4 1_555 1_555
N10_4 Zn2_4 1_555 1_555
N11_4 Zn2_4 1_555 1_555
C5_4 C6_4 1_555 1_555
C11_4 C12_4 1_555 1_555
C5_4 H1_4 1_555 1_555
C4_4 H2_4 1_555 1_555
C11_4 H5_4 1_555 1_555
C12_4 H8_4 1_555 1_555
C6_4 H9_4 1_555 1_555
Zn5 N2_5 1_555 1_555
N2_5 C1_5 1_555 1_555
C2_5 N2_5 1_555 1_555
N9_5 Zn5 1_555 1_555
N10_5 Zn5 1_555 1_555
C2_5 C3_5 1_555 1_555
C1_5 H11_5 1_555 1_555
C2_5 H12_5 1_555 1_555
Zn1_5 N1_5 1_555 1_555
N3_5 Zn1_5 1_555 1_555
N4_5 C4_5 1_555 1_555
N5_5 C7_5 1_555 1_555
N6_5 Zn1_5 1_555 1_555
N11 C10_5 1_555 1_555
N8_5 Zn1_5 1_555 1_555
C4_5 N3_5 1_555 1_555
C5_5 N4_5 1_555 1_555
C6_5 N3_5 1_555 1_555
C7_5 N6_5 1_555 1_555
C8_5 N5_5 1_555 1_555
C9_5 N6_5 1_555 1_555
C10_5 N8_5 1_555 1_555
C11_5 N8_5 1_555 1_555
C12_5 N11 1_555 1_555
Zn4_5 N5_5 1_555 1_555
C5_5 C6_5 1_555 1_555
C8_5 C9_5 1_555 1_555
C11_5 C12_5 1_555 1_555
C5_5 H1_5 1_555 1_555
C4_5 H2_5 1_555 1_555
C10_5 H3_5 1_555 1_555
C8_5 H4_5 1_555 1_555
C11_5 H5_5 1_555 1_555
C7_5 H6_5 1_555 1_555
C9_5 H7_5 1_555 1_555
C12_5 H8_5 1_555 1_555
C6_5 H9_5 1_555 1_555
N5_6 C7_6 1_555 1_555
C8_6 N5_6 1_555 1_555
Zn4_6 N5_6 1_555 1_555
C8_6 H4_6 1_555 1_555
C7_6 H6_6 1_555 1_555
Zn1_6 N1_6 1_555 1_555
Zn5_2 N2_6 1_555 1_555
N1_6 C1_6 1_555 1_555
N2_6 C1_6 1_555 1_555
N3_6 Zn1_6 1_555 1_555
N4_6 C4_6 1_555 1_555
N6_6 Zn1_6 1_555 1_555
N8_6 Zn1_6 1_555 1_555
C2_6 N2_6 1_555 1_555
C3_6 N1_6 1_555 1_555
C4_6 N3_6 1_555 1_555
C5_6 N4_6 1_555 1_555
C6_6 N3_6 1_555 1_555
C9_6 N6_6 1_555 1_555
C10_6 N8_6 1_555 1_555
C11_6 N8_6 1_555 1_555
Zn4_4 N4_6 1_555 1_555
N9_6 Zn5_2 1_555 1_555
N10_6 Zn5_2 1_555 1_555
C2_6 C3_6 1_555 1_555
C5_6 C6_6 1_555 1_555
C11_6 C12_6 1_555 1_555
C5_6 H1_6 1_555 1_555
C4_6 H2_6 1_555 1_555
C10_6 H3_6 1_555 1_555
C11_6 H5_6 1_555 1_555
C9_6 H7_6 1_555 1_555
C6_6 H9_6 1_555 1_555
C3_6 H10_6 1_555 1_555
C1_6 H11_6 1_555 1_555
C2_6 H12_6 1_555 1_555
Zn1_7 N1_7 1_555 1_555
N3_7 Zn1_7 1_555 1_555
N4_7 C4_7 1_555 1_555
N5_7 C7_7 1_555 1_555
N6_7 Zn1_7 1_555 1_555
N8_7 Zn1_7 1_555 1_555
C4_7 N3_7 1_555 1_555
C5_7 N4_7 1_555 1_555
C6_7 N3_7 1_555 1_555
C7_7 N6_7 1_555 1_555
C8_7 N5_7 1_555 1_555
C9_7 N6_7 1_555 1_555
C10_7 N8_7 1_555 1_555
C11_7 N8_7 1_555 1_555
Zn4_6 N4_7 1_555 1_555
Zn3 N5_7 1_555 1_555
C5_7 C6_7 1_555 1_555
C8_7 C9_7 1_555 1_555
C11_7 C12_7 1_555 1_555
C5_7 H1_7 1_555 1_555
C4_7 H2_7 1_555 1_555
C10_7 H3_7 1_555 1_555
C8_7 H4_7 1_555 1_555
C11_7 H5_7 1_555 1_555
C7_7 H6_7 1_555 1_555
C9_7 H7_7 1_555 1_555
C6_7 H9_7 1_555 1_555
Zn5_3 N2_7 1_555 1_555
N2_7 C1_7 1_555 1_555
C2_7 N2_7 1_555 1_555
N9_7 Zn5_3 1_555 1_555
N10_7 Zn5_3 1_555 1_555
C2_7 C3_7 1_555 1_555
C1_7 H11_7 1_555 1_555
C2_7 H12_7 1_555 1_555
Zn1_8 N1_8 1_555 1_555
N1_8 C1_8 1_555 1_555
N2_8 C1_8 1_555 1_555
N5_8 C7_8 1_555 1_555
N6_8 Zn1_8 1_555 1_555
C2_8 N2_8 1_555 1_555
C3_8 N1_8 1_555 1_555
C7_8 N6_8 1_555 1_555
C8_8 N5_8 1_555 1_555
C9_8 N6_8 1_555 1_555
Zn3_2 N5_8 1_555 1_555
C2_8 C3_8 1_555 1_555
C8_8 C9_8 1_555 1_555
C10_8 H3_8 1_555 1_555
C8_8 H4_8 1_555 1_555
C7_8 H6_8 1_555 1_555
C9_8 H7_8 1_555 1_555
C3_8 H10_8 1_555 1_555
C2_8 H12_8 1_555 1_555
N4_8 C4_8 1_555 1_555
C4_8 N3_8 1_555 1_555
C5_8 N4_8 1_555 1_555
C6_8 N3_8 1_555 1_555
C11_8 N8_8 1_555 1_555
C12_8 N11_4 1_555 1_555
Zn4_5 N4_8 1_555 1_555
N10_8 Zn5_4 1_555 1_555
C5_8 C6_8 1_555 1_555
C11_8 C12_8 1_555 1_555
C5_8 H1_8 1_555 1_555
C4_8 H2_8 1_555 1_555
C11_8 H5_8 1_555 1_555
C12_8 H8_8 1_555 1_555
C6_8 H9_8 1_555 1_555
N10_5 C7_9 1_555 1_555
C8_9 N10_5 1_555 1_555
C8_9 H4_9 1_555 1_555
C7_9 H6_9 1_555 1_555
Zn1_9 N1_9 1_555 1_555
N3_9 Zn1_9 1_555 1_555
N9_7 C4_9 1_555 1_555
N6_9 Zn1_9 1_555 1_555
N7_5 C10_9 1_555 1_555
N8_9 Zn1_9 1_555 1_555
C4_9 N3_9 1_555 1_555
C5_9 N9_7 1_555 1_555
C6_9 N3_9 1_555 1_555
C9_9 N6_9 1_555 1_555
C10_9 N8_9 1_555 1_555
C11_9 N8_9 1_555 1_555
C12_9 N7_5 1_555 1_555
Zn4 N7_5 1_555 1_555
C5_9 C6_9 1_555 1_555
C11_9 C12_9 1_555 1_555
C5_9 H1_9 1_555 1_555
C4_9 H2_9 1_555 1_555
C10_9 H3_9 1_555 1_555
C11_9 H5_9 1_555 1_555
C9_9 H7_9 1_555 1_555
C12_9 H8_9 1_555 1_555
C6_9 H9_9 1_555 1_555
Zn4_5 N2_9 1_555 1_555
N2_9 C1_9 1_555 1_555
C2_9 N2_9 1_555 1_555
N11_5 Zn4_5 1_555 1_555
C2_9 C3_9 1_555 1_555
C1_9 H11_9 1_555 1_555
C2_9 H12_9 1_555 1_555
Zn1_10 N1_10 1_555 1_555
Zn4_6 N2_10 1_555 1_555
N1_10 C1_10 1_555 1_555
N2_10 C1_10 1_555 1_555
N3_10 Zn1_10 1_555 1_555
N9_8 C4_10 1_555 1_555
N10_6 C7_10 1_555 1_555
N6_10 Zn1_10 1_555 1_555
N8_10 Zn1_10 1_555 1_555
C2_10 N2_10 1_555 1_555
C3_10 N1_10 1_555 1_555
C4_10 N3_10 1_555 1_555
C5_10 N9_8 1_555 1_555
C6_10 N3_10 1_555 1_555
C7_10 N6_10 1_555 1_555
C8_10 N10_6 1_555 1_555
C9_10 N6_10 1_555 1_555
C10_10 N8_10 1_555 1_555
C11_10 N8_10 1_555 1_555
N11_6 Zn4_6 1_555 1_555
C2_10 C3_10 1_555 1_555
C5_10 C6_10 1_555 1_555
C8_10 C9_10 1_555 1_555
C11_10 C12_10 1_555 1_555
C5_10 H1_10 1_555 1_555
C4_10 H2_10 1_555 1_555
C10_10 H3_10 1_555 1_555
C8_10 H4_10 1_555 1_555
C11_10 H5_10 1_555 1_555
C7_10 H6_10 1_555 1_555
C9_10 H7_10 1_555 1_555
C6_10 H9_10 1_555 1_555
C3_10 H10_10 1_555 1_555
C1_10 H11_10 1_555 1_555
C2_10 H12_10 1_555 1_555
Zn4_2 N7_6 1_555 1_555
Zn3 N7_7 1_555 1_555
Zn1_11 N1_11 1_555 1_555
N10_3 C7_11 1_555 1_555
N6_11 Zn1_11 1_555 1_555
C7_11 N6_11 1_555 1_555
C8_11 N10_3 1_555 1_555
C9_11 N6_11 1_555 1_555
C8_11 C9_11 1_555 1_555
C10_11 H3_11 1_555 1_555
C8_11 H4_11 1_555 1_555
C7_11 H6_11 1_555 1_555
C9_11 H7_11 1_555 1_555
N9_6 C4_11 1_555 1_555
C4_11 N3_11 1_555 1_555
C5_11 N9_6 1_555 1_555
C6_11 N3_11 1_555 1_555
C11_11 N8_11 1_555 1_555
C5_11 C6_11 1_555 1_555
C11_11 C12_11 1_555 1_555
C5_11 H1_11 1_555 1_555
C4_11 H2_11 1_555 1_555
C11_11 H5_11 1_555 1_555
C6_11 H9_11 1_555 1_555
N2_11 C1_11 1_555 1_555
C2_11 N2_11 1_555 1_555
C2_11 C3_11 1_555 1_555
C2_11 H12_11 1_555 1_555
N11_7 Zn4_3 1_555 1_555
Zn1_12 N1_12 1_555 1_555
Zn4_4 N2_12 1_555 1_555
N1_12 C1_12 1_555 1_555
N2_12 C1_12 1_555 1_555
N3_12 Zn1_12 1_555 1_555
N9_5 C4_12 1_555 1_555
N10_4 C7_12 1_555 1_555
N6_12 Zn1_12 1_555 1_555
N7_8 C10_12 1_555 1_555
N8_12 Zn1_12 1_555 1_555
C2_12 N2_12 1_555 1_555
C3_12 N1_12 1_555 1_555
C4_12 N3_12 1_555 1_555
C5_12 N9_5 1_555 1_555
C6_12 N3_12 1_555 1_555
C7_12 N6_12 1_555 1_555
C8_12 N10_4 1_555 1_555
C9_12 N6_12 1_555 1_555
C10_12 N8_12 1_555 1_555
C11_12 N8_12 1_555 1_555
C12_12 N7_8 1_555 1_555
Zn3_2 N7_8 1_555 1_555
N11_8 Zn4_4 1_555 1_555
C2_12 C3_12 1_555 1_555
C5_12 C6_12 1_555 1_555
C8_12 C9_12 1_555 1_555
C11_12 C12_12 1_555 1_555
C5_12 H1_12 1_555 1_555
C4_12 H2_12 1_555 1_555
C10_12 H3_12 1_555 1_555
C8_12 H4_12 1_555 1_555
C11_12 H5_12 1_555 1_555
C7_12 H6_12 1_555 1_555
C9_12 H7_12 1_555 1_555
C12_12 H8_12 1_555 1_555
C6_12 H9_12 1_555 1_555
C3_12 H10_12 1_555 1_555
C1_12 H11_12 1_555 1_555
C2_12 H12_12 1_555 1_555
Zn4 N2_13 1_555 1_555
N2_13 C1_13 1_555 1_555
C2_13 N2_13 1_555 1_555
C2_13 C3_13 1_555 1_555
C1_13 H11_13 1_555 1_555
C2_13 H12_13 1_555 1_555
N10 C7_13 1_555 1_555
C8_13 N10 1_555 1_555
C8_13 H4_13 1_555 1_555
C7_13 H6_13 1_555 1_555
Zn1_13 N1_13 1_555 1_555
N3_13 Zn1_13 1_555 1_555
N9_3 C4_13 1_555 1_555
N6_13 Zn1_13 1_555 1_555
N11_5 C10_13 1_555 1_555
N8_13 Zn1_13 1_555 1_555
C4_13 N3_13 1_555 1_555
C5_13 N9_3 1_555 1_555
C6_13 N3_13 1_555 1_555
C9_13 N6_13 1_555 1_555
C10_13 N8_13 1_555 1_555
C11_13 N8_13 1_555 1_555
C12_13 N11_5 1_555 1_555
C5_13 C6_13 1_555 1_555
C11_13 C12_13 1_555 1_555
C5_13 H1_13 1_555 1_555
C4_13 H2_13 1_555 1_555
C10_13 H3_13 1_555 1_555
C11_13 H5_13 1_555 1_555
C9_13 H7_13 1_555 1_555
C12_13 H8_13 1_555 1_555
C6_13 H9_13 1_555 1_555
Zn1_14 N1_14 1_555 1_555
Zn4_2 N2_14 1_555 1_555
N1_14 C1_14 1_555 1_555
N2_14 C1_14 1_555 1_555
N3_14 Zn1_14 1_555 1_555
N9_4 C4_14 1_555 1_555
N10_2 C7_14 1_555 1_555
N6_14 Zn1_14 1_555 1_555
N8_14 Zn1_14 1_555 1_555
C2_14 N2_14 1_555 1_555
C3_14 N1_14 1_555 1_555
C4_14 N3_14 1_555 1_555
C5_14 N9_4 1_555 1_555
C6_14 N3_14 1_555 1_555
C7_14 N6_14 1_555 1_555
C8_14 N10_2 1_555 1_555
C9_14 N6_14 1_555 1_555
C10_14 N8_14 1_555 1_555
C11_14 N8_14 1_555 1_555
C2_14 C3_14 1_555 1_555
C5_14 C6_14 1_555 1_555
C8_14 C9_14 1_555 1_555
C11_14 C12_14 1_555 1_555
C5_14 H1_14 1_555 1_555
C4_14 H2_14 1_555 1_555
C10_14 H3_14 1_555 1_555
C8_14 H4_14 1_555 1_555
C11_14 H5_14 1_555 1_555
C7_14 H6_14 1_555 1_555
C9_14 H7_14 1_555 1_555
C6_14 H9_14 1_555 1_555
C3_14 H10_14 1_555 1_555
C1_14 H11_14 1_555 1_555
C2_14 H12_14 1_555 1_555
N2_15 C1_15 1_555 1_555
C2_15 N2_15 1_555 1_555
C2_15 C3_15 1_555 1_555
C2_15 H12_15 1_555 1_555
Zn1_15 N1_15 1_555 1_555
N10_7 C7_15 1_555 1_555
N6_15 Zn1_15 1_555 1_555
C7_15 N6_15 1_555 1_555
C8_15 N10_7 1_555 1_555
C9_15 N6_15 1_555 1_555
C8_15 C9_15 1_555 1_555
C10_15 H3_15 1_555 1_555
C8_15 H4_15 1_555 1_555
C7_15 H6_15 1_555 1_555
C9_15 H7_15 1_555 1_555
N9_2 C4_15 1_555 1_555
C4_15 N3_15 1_555 1_555
C5_15 N9_2 1_555 1_555
C6_15 N3_15 1_555 1_555
C11_15 N8_15 1_555 1_555
C5_15 C6_15 1_555 1_555
C11_15 C12_15 1_555 1_555
C5_15 H1_15 1_555 1_555
C4_15 H2_15 1_555 1_555
C11_15 H5_15 1_555 1_555
C6_15 H9_15 1_555 1_555
Zn1_16 N1_16 1_555 1_555
Zn3_2 N2_16 1_555 1_555
N1_16 C1_16 1_555 1_555
N2_16 C1_16 1_555 1_555
N3_16 Zn1_16 1_555 1_555
N9 C4_16 1_555 1_555
N10_8 C7_16 1_555 1_555
N6_16 Zn1_16 1_555 1_555
N11_8 C10_16 1_555 1_555
N8_16 Zn1_16 1_555 1_555
C2_16 N2_16 1_555 1_555
C3_16 N1_16 1_555 1_555
C4_16 N3_16 1_555 1_555
C5_16 N9 1_555 1_555
C6_16 N3_16 1_555 1_555
C7_16 N6_16 1_555 1_555
C8_16 N10_8 1_555 1_555
C9_16 N6_16 1_555 1_555
C10_16 N8_16 1_555 1_555
C11_16 N8_16 1_555 1_555
C12_16 N11_8 1_555 1_555
C2_16 C3_16 1_555 1_555
C5_16 C6_16 1_555 1_555
C8_16 C9_16 1_555 1_555
C11_16 C12_16 1_555 1_555
C5_16 H1_16 1_555 1_555
C4_16 H2_16 1_555 1_555
C10_16 H3_16 1_555 1_555
C8_16 H4_16 1_555 1_555
C11_16 H5_16 1_555 1_555
C7_16 H6_16 1_555 1_555
C9_16 H7_16 1_555 1_555
C12_16 H8_16 1_555 1_555
C6_16 H9_16 1_555 1_555
C3_16 H10_16 1_555 1_555
C1_16 H11_16 1_555 1_555
C2_16 H12_16 1_555 1_555

#END
