
###############################################################################
#
# This file contains modified crystal structure data generated from the
# MOF subset of the Cambridge Structural Database (CSD) v543 
# hosted by the Cambridge Crystallographic Data Centre (CCDC).
#
# This work is licensed under the Creative Commons
# Attribution-NonCommercial-ShareAlike 4.0 International License.
# To view a copy of this license, visit
# http://creativecommons.org/licenses/by-nc-sa/4.0/
# or send a letter to
# Creative Commons, PO Box 1866, Mountain View, CA 94042, USA.
#
# CIF created using the CSD Python API on 29 September 2022
# The structure has been converted into the P1 space group
# The structure has a 3D framework
# The original CSD entry IMIDZB13 is in the hexagonal crystal system
# The framework has been calculated to contain at least 10.0% void space
# The void calculation uses a probe of radius 1.32A, grid spacing 0.4
#
###############################################################################

data_IMIDZB13
_chemical_formula_moiety         '(C158 H158 N96 Zn24)n'
_symmetry_cell_setting           triclinic
_symmetry_space_group_name_H-M   'P 1'
_symmetry_Int_Tables_number      1
_space_group_name_Hall           'P 1'
loop_
_symmetry_equiv_pos_site_id
_symmetry_equiv_pos_as_xyz
1 x,y,z
_cell_length_a                   26.4372
_cell_length_b                   26.4372
_cell_length_c                   16.6315
_cell_angle_alpha                90
_cell_angle_beta                 90
_cell_angle_gamma                120
_cell_volume                     10066.8
loop_
_atom_site_label
_atom_site_type_symbol
_atom_site_fract_x
_atom_site_fract_y
_atom_site_fract_z
_atom_site_U_iso_or_equiv
_atom_site_thermal_displace_type
C6 C 0.00000 0.40990 0.75000 0.0000 Uiso
H6 H 0.00000 0.45028 0.75000 0.0000 Uiso
N7 N 0.04575 0.40451 0.77729 0.0000 Uiso
C11 C 0.02641 0.34716 0.76833 0.0000 Uiso
H11 H 0.04705 0.32384 0.78916 0.0000 Uiso
Zn2 Zn 0.12385 0.45838 0.81873 0.0500 Uiso
N9 N 0.17784 0.43437 0.77792 0.0000 Uiso
N10 N 0.15017 0.53767 0.78344 0.0000 Uiso
N11 N 0.12072 0.44783 0.93241 0.0000 Uiso
N1 N 0.82216 0.25653 0.72208 0.0000 Uiso
C1 C 0.83322 0.21231 0.73102 0.0000 Uiso
H1 H 0.87031 0.21037 0.70945 0.0000 Uiso
H2 H 0.74341 0.25659 0.75000 0.0000 Uiso
C2 C 0.76663 0.23337 0.75000 0.0000 Uiso
Zn1 Zn 0.87615 0.33453 0.68127 0.0500 Uiso
N2 N 0.84983 0.38750 0.71656 0.0000 Uiso
C3 C 0.79420 0.37499 0.72817 0.0000 Uiso
H3 H 0.75571 0.33670 0.70600 0.0000 Uiso
C4 C 0.88212 0.44106 0.75000 0.0000 Uiso
H4 H 0.92852 0.46426 0.75000 0.0000 Uiso
N3 N 0.95425 0.35876 0.72271 0.0000 Uiso
C5 C 0.97359 0.32075 0.73167 0.0000 Uiso
H5 H 0.95295 0.27679 0.71084 0.0000 Uiso
C6_2 C 1.00000 0.40990 0.75000 0.0000 Uiso
H6_2 H 1.00000 0.45028 0.75000 0.0000 Uiso
N4 N 0.87928 0.32711 0.56759 0.0000 Uiso
C7 C 0.89571 0.28938 0.54088 0.0000 Uiso
H7 H 0.90698 0.26327 0.57886 0.0000 Uiso
C8 C 0.86940 0.34967 0.50000 0.0000 Uiso
H8 H 0.85534 0.38190 0.50000 0.0000 Uiso
N5 N 0.74347 0.17784 0.77792 0.0000 Uiso
C9 C 0.78769 0.16678 0.76898 0.0000 Uiso
H9 H 0.78963 0.12969 0.79055 0.0000 Uiso
N6 N 0.84983 0.46233 0.78344 0.0000 Uiso
C10 C 0.79420 0.41921 0.77183 0.0000 Uiso
H10 H 0.75571 0.41901 0.79400 0.0000 Uiso
N8 N 0.87928 0.32711 0.43241 0.0000 Uiso
C12 C 0.89571 0.28938 0.45912 0.0000 Uiso
H12 H 0.90698 0.26327 0.42114 0.0000 Uiso
Zn3 Zn 0.66547 0.12385 0.81873 0.0500 Uiso
Zn4 Zn 0.87615 0.54162 0.81873 0.0500 Uiso
Zn5 Zn 0.87615 0.33453 0.31873 0.0500 Uiso
N1_2 N 0.74347 0.56563 0.72208 0.0000 Uiso
C1_2 C 0.78769 0.62091 0.73102 0.0000 Uiso
H1_2 H 0.78963 0.65994 0.70945 0.0000 Uiso
H2_2 H 0.74341 0.48682 0.75000 0.0000 Uiso
C2_2 C 0.76663 0.53326 0.75000 0.0000 Uiso
Zn1_2 Zn 0.66547 0.54162 0.68127 0.0500 Uiso
N2_2 N 0.61250 0.46233 0.71656 0.0000 Uiso
C3_2 C 0.62501 0.41921 0.72817 0.0000 Uiso
H3_2 H 0.66330 0.41901 0.70600 0.0000 Uiso
C4_2 C 0.55894 0.44106 0.75000 0.0000 Uiso
H4_2 H 0.53574 0.46426 0.75000 0.0000 Uiso
N3_2 N 0.64124 0.59549 0.72271 0.0000 Uiso
C5_2 C 0.67925 0.65284 0.73167 0.0000 Uiso
H5_2 H 0.72321 0.67616 0.71084 0.0000 Uiso
C6_3 C 0.59010 0.59010 0.75000 0.0000 Uiso
H6_3 H 0.54972 0.54972 0.75000 0.0000 Uiso
N4_2 N 0.67289 0.55217 0.56759 0.0000 Uiso
C7_2 C 0.71062 0.60633 0.54088 0.0000 Uiso
H7_2 H 0.73673 0.64371 0.57886 0.0000 Uiso
C8_2 C 0.65033 0.51973 0.50000 0.0000 Uiso
H8_2 H 0.61810 0.47344 0.50000 0.0000 Uiso
N5_2 N 0.82216 0.56563 0.77792 0.0000 Uiso
C9_2 C 0.83322 0.62091 0.76898 0.0000 Uiso
H9_2 H 0.87031 0.65994 0.79055 0.0000 Uiso
N6_2 N 0.53767 0.38750 0.78344 0.0000 Uiso
C10_2 C 0.58079 0.37499 0.77183 0.0000 Uiso
H10_2 H 0.58099 0.33670 0.79400 0.0000 Uiso
N7_2 N 0.59549 0.64124 0.77729 0.0000 Uiso
C11_2 C 0.65284 0.67925 0.76833 0.0000 Uiso
H11_2 H 0.67616 0.72321 0.78916 0.0000 Uiso
N8_2 N 0.67289 0.55217 0.43241 0.0000 Uiso
C12_2 C 0.71062 0.60633 0.45912 0.0000 Uiso
H12_2 H 0.73673 0.64371 0.42114 0.0000 Uiso
Zn2_2 Zn 0.54162 0.66547 0.81873 0.0500 Uiso
N9_2 N 0.56563 0.74347 0.77792 0.0000 Uiso
Zn4_2 Zn 0.45838 0.33453 0.81873 0.0500 Uiso
Zn5_2 Zn 0.66547 0.54162 0.31873 0.0500 Uiso
N10_2 N 0.46233 0.61250 0.78344 0.0000 Uiso
N11_2 N 0.55217 0.67289 0.93241 0.0000 Uiso
N1_3 N 0.43437 0.17784 0.72208 0.0000 Uiso
C1_3 C 0.37909 0.16678 0.73102 0.0000 Uiso
H1_3 H 0.34006 0.12969 0.70945 0.0000 Uiso
H2_3 H 0.51318 0.25659 0.75000 0.0000 Uiso
C2_3 C 0.46674 0.23337 0.75000 0.0000 Uiso
Zn1_3 Zn 0.45838 0.12385 0.68127 0.0500 Uiso
N2_3 N 0.53767 0.15017 0.71656 0.0000 Uiso
C3_3 C 0.58079 0.20580 0.72817 0.0000 Uiso
H3_3 H 0.58099 0.24429 0.70600 0.0000 Uiso
C4_3 C 0.55894 0.11788 0.75000 0.0000 Uiso
H4_3 H 0.53574 0.07148 0.75000 0.0000 Uiso
N3_3 N 0.40451 0.04575 0.72271 0.0000 Uiso
C5_3 C 0.34716 0.02641 0.73167 0.0000 Uiso
H5_3 H 0.32384 0.04705 0.71084 0.0000 Uiso
C6_4 C 0.40990 -0.00000 0.75000 0.0000 Uiso
H6_4 H 0.45028 -0.00000 0.75000 0.0000 Uiso
N4_3 N 0.44783 0.12072 0.56759 0.0000 Uiso
C7_3 C 0.39367 0.10429 0.54088 0.0000 Uiso
H7_3 H 0.35629 0.09302 0.57886 0.0000 Uiso
C8_3 C 0.48027 0.13060 0.50000 0.0000 Uiso
H8_3 H 0.52656 0.14466 0.50000 0.0000 Uiso
N5_3 N 0.43437 0.25653 0.77792 0.0000 Uiso
C9_3 C 0.37909 0.21231 0.76898 0.0000 Uiso
H9_3 H 0.34006 0.21037 0.79055 0.0000 Uiso
N6_3 N 0.61250 0.15017 0.78344 0.0000 Uiso
C10_3 C 0.62501 0.20580 0.77183 0.0000 Uiso
H10_3 H 0.66330 0.24429 0.79400 0.0000 Uiso
N8_3 N 0.44783 0.12072 0.43241 0.0000 Uiso
C12_3 C 0.39367 0.10429 0.45912 0.0000 Uiso
H12_3 H 0.35629 0.09302 0.42114 0.0000 Uiso
Zn5_3 Zn 0.45838 0.12385 0.31873 0.0500 Uiso
C6_5 C 0.40990 1.00000 0.75000 0.0000 Uiso
H6_5 H 0.45028 1.00000 0.75000 0.0000 Uiso
N7_3 N 0.35876 0.95425 0.77729 0.0000 Uiso
C11_3 C 0.32075 0.97359 0.76833 0.0000 Uiso
H11_3 H 0.27679 0.95295 0.78916 0.0000 Uiso
Zn2_3 Zn 0.33453 0.87615 0.81873 0.0500 Uiso
N9_3 N 0.25653 0.82216 0.77792 0.0000 Uiso
N10_3 N 0.38750 0.84983 0.78344 0.0000 Uiso
N11_3 N 0.32711 0.87928 0.93241 0.0000 Uiso
N1_4 N 0.17784 0.74347 0.72208 0.0000 Uiso
C1_4 C 0.16678 0.78769 0.73102 0.0000 Uiso
H1_4 H 0.12969 0.78963 0.70945 0.0000 Uiso
H2_4 H 0.25659 0.74341 0.75000 0.0000 Uiso
C2_4 C 0.23337 0.76663 0.75000 0.0000 Uiso
Zn1_4 Zn 0.12385 0.66547 0.68127 0.0500 Uiso
N2_4 N 0.15017 0.61250 0.71656 0.0000 Uiso
C3_4 C 0.20580 0.62501 0.72817 0.0000 Uiso
H3_4 H 0.24429 0.66330 0.70600 0.0000 Uiso
C4_4 C 0.11788 0.55894 0.75000 0.0000 Uiso
H4_4 H 0.07148 0.53574 0.75000 0.0000 Uiso
N3_4 N 0.04575 0.64124 0.72271 0.0000 Uiso
C5_4 C 0.02641 0.67925 0.73167 0.0000 Uiso
H5_4 H 0.04705 0.72321 0.71084 0.0000 Uiso
C6_6 C -0.00000 0.59010 0.75000 0.0000 Uiso
H6_6 H -0.00000 0.54972 0.75000 0.0000 Uiso
N4_4 N 0.12072 0.67289 0.56759 0.0000 Uiso
C7_4 C 0.10429 0.71062 0.54088 0.0000 Uiso
H7_4 H 0.09302 0.73673 0.57886 0.0000 Uiso
C8_4 C 0.13060 0.65033 0.50000 0.0000 Uiso
H8_4 H 0.14466 0.61810 0.50000 0.0000 Uiso
C9_4 C 0.21231 0.83322 0.76898 0.0000 Uiso
H9_4 H 0.21037 0.87031 0.79055 0.0000 Uiso
C10_4 C 0.20580 0.58079 0.77183 0.0000 Uiso
H10_4 H 0.24429 0.58099 0.79400 0.0000 Uiso
N8_4 N 0.12072 0.67289 0.43241 0.0000 Uiso
C12_4 C 0.10429 0.71062 0.45912 0.0000 Uiso
H12_4 H 0.09302 0.73673 0.42114 0.0000 Uiso
Zn5_4 Zn 0.12385 0.66547 0.31873 0.0500 Uiso
C6_7 C 1.00000 0.59010 0.75000 0.0000 Uiso
H6_7 H 1.00000 0.54972 0.75000 0.0000 Uiso
N7_4 N 0.95425 0.59549 0.77729 0.0000 Uiso
C11_4 C 0.97359 0.65284 0.76833 0.0000 Uiso
H11_4 H 0.95295 0.67616 0.78916 0.0000 Uiso
N11_4 N 0.87928 0.55217 0.93241 0.0000 Uiso
N1_5 N 0.25653 0.43437 0.72208 0.0000 Uiso
C1_5 C 0.21231 0.37909 0.73102 0.0000 Uiso
H1_5 H 0.21037 0.34006 0.70945 0.0000 Uiso
H2_5 H 0.25659 0.51318 0.75000 0.0000 Uiso
C2_5 C 0.23337 0.46674 0.75000 0.0000 Uiso
Zn1_5 Zn 0.33453 0.45838 0.68127 0.0500 Uiso
N2_5 N 0.38750 0.53767 0.71656 0.0000 Uiso
C3_5 C 0.37499 0.58079 0.72817 0.0000 Uiso
H3_5 H 0.33670 0.58099 0.70600 0.0000 Uiso
C4_5 C 0.44106 0.55894 0.75000 0.0000 Uiso
H4_5 H 0.46426 0.53574 0.75000 0.0000 Uiso
N3_5 N 0.35876 0.40451 0.72271 0.0000 Uiso
C5_5 C 0.32075 0.34716 0.73167 0.0000 Uiso
H5_5 H 0.27679 0.32384 0.71084 0.0000 Uiso
C6_8 C 0.40990 0.40990 0.75000 0.0000 Uiso
H6_8 H 0.45028 0.45028 0.75000 0.0000 Uiso
N4_5 N 0.32711 0.44783 0.56759 0.0000 Uiso
C7_5 C 0.28938 0.39367 0.54088 0.0000 Uiso
H7_5 H 0.26327 0.35629 0.57886 0.0000 Uiso
C8_5 C 0.34967 0.48027 0.50000 0.0000 Uiso
H8_5 H 0.38190 0.52656 0.50000 0.0000 Uiso
C9_5 C 0.16678 0.37909 0.76898 0.0000 Uiso
H9_5 H 0.12969 0.34006 0.79055 0.0000 Uiso
C10_5 C 0.41921 0.62501 0.77183 0.0000 Uiso
H10_5 H 0.41901 0.66330 0.79400 0.0000 Uiso
N7_5 N 0.40451 0.35876 0.77729 0.0000 Uiso
C11_5 C 0.34716 0.32075 0.76833 0.0000 Uiso
H11_5 H 0.32384 0.27679 0.78916 0.0000 Uiso
N8_5 N 0.32711 0.44783 0.43241 0.0000 Uiso
C12_5 C 0.28938 0.39367 0.45912 0.0000 Uiso
H12_5 H 0.26327 0.35629 0.42114 0.0000 Uiso
Zn5_5 Zn 0.33453 0.45838 0.31873 0.0500 Uiso
N11_5 N 0.44783 0.32711 0.93241 0.0000 Uiso
C6_9 C 0.59010 0.00000 0.75000 0.0000 Uiso
H6_9 H 0.54972 0.00000 0.75000 0.0000 Uiso
N7_6 N 0.64124 0.04575 0.77729 0.0000 Uiso
C11_6 C 0.67925 0.02641 0.76833 0.0000 Uiso
H11_6 H 0.72321 0.04705 0.78916 0.0000 Uiso
N11_6 N 0.67289 0.12072 0.93241 0.0000 Uiso
N1_6 N 0.56563 0.82216 0.72208 0.0000 Uiso
C1_6 C 0.62091 0.83322 0.73102 0.0000 Uiso
H1_6 H 0.65994 0.87031 0.70945 0.0000 Uiso
H2_6 H 0.48682 0.74341 0.75000 0.0000 Uiso
C2_6 C 0.53326 0.76663 0.75000 0.0000 Uiso
Zn1_6 Zn 0.54162 0.87615 0.68127 0.0500 Uiso
N2_6 N 0.46233 0.84983 0.71656 0.0000 Uiso
C3_6 C 0.41921 0.79420 0.72817 0.0000 Uiso
H3_6 H 0.41901 0.75571 0.70600 0.0000 Uiso
C4_6 C 0.44106 0.88212 0.75000 0.0000 Uiso
H4_6 H 0.46426 0.92852 0.75000 0.0000 Uiso
N3_6 N 0.59549 0.95425 0.72271 0.0000 Uiso
C5_6 C 0.65284 0.97359 0.73167 0.0000 Uiso
H5_6 H 0.67616 0.95295 0.71084 0.0000 Uiso
C6_10 C 0.59010 1.00000 0.75000 0.0000 Uiso
H6_10 H 0.54972 1.00000 0.75000 0.0000 Uiso
N4_6 N 0.55217 0.87928 0.56759 0.0000 Uiso
C7_6 C 0.60633 0.89571 0.54088 0.0000 Uiso
H7_6 H 0.64371 0.90698 0.57886 0.0000 Uiso
C8_6 C 0.51973 0.86940 0.50000 0.0000 Uiso
H8_6 H 0.47344 0.85534 0.50000 0.0000 Uiso
C9_6 C 0.62091 0.78769 0.76898 0.0000 Uiso
H9_6 H 0.65994 0.78963 0.79055 0.0000 Uiso
C10_6 C 0.37499 0.79420 0.77183 0.0000 Uiso
H10_6 H 0.33670 0.75571 0.79400 0.0000 Uiso
N8_6 N 0.55217 0.87928 0.43241 0.0000 Uiso
C12_6 C 0.60633 0.89571 0.45912 0.0000 Uiso
H12_6 H 0.64371 0.90698 0.42114 0.0000 Uiso
Zn5_6 Zn 0.54162 0.87615 0.31873 0.0500 Uiso
C8_7 C 0.34967 0.86940 0.00000 0.0000 Uiso
H8_7 H 0.38190 0.85534 0.00000 0.0000 Uiso
N8_7 N 0.32711 0.87928 0.06759 0.0000 Uiso
C12_7 C 0.28938 0.89571 0.04088 0.0000 Uiso
H12_7 H 0.26327 0.90698 0.07886 0.0000 Uiso
Zn5_7 Zn 0.33453 0.87615 0.18127 0.0500 Uiso
C7_7 C 0.28938 0.89571 0.95912 0.0000 Uiso
H7_7 H 0.26327 0.90698 0.92114 0.0000 Uiso
C8_8 C 0.34967 0.86940 1.00000 0.0000 Uiso
H8_8 H 0.38190 0.85534 1.00000 0.0000 Uiso
C8_9 C 0.51973 0.65033 0.00000 0.0000 Uiso
H8_9 H 0.47344 0.61810 0.00000 0.0000 Uiso
N8_8 N 0.55217 0.67289 0.06759 0.0000 Uiso
C12_8 C 0.60633 0.71062 0.04088 0.0000 Uiso
H12_8 H 0.64371 0.73673 0.07886 0.0000 Uiso
Zn5_8 Zn 0.54162 0.66547 0.18127 0.0500 Uiso
C7_8 C 0.60633 0.71062 0.95912 0.0000 Uiso
H7_8 H 0.64371 0.73673 0.92114 0.0000 Uiso
C8_10 C 0.51973 0.65033 1.00000 0.0000 Uiso
H8_10 H 0.47344 0.61810 1.00000 0.0000 Uiso
C8_11 C 0.13060 0.48027 0.00000 0.0000 Uiso
H8_11 H 0.14466 0.52656 0.00000 0.0000 Uiso
N8_9 N 0.12072 0.44783 0.06759 0.0000 Uiso
C12_9 C 0.10429 0.39367 0.04088 0.0000 Uiso
H12_9 H 0.09302 0.35629 0.07886 0.0000 Uiso
Zn5_9 Zn 0.12385 0.45838 0.18127 0.0500 Uiso
C7_9 C 0.10429 0.39367 0.95912 0.0000 Uiso
H7_9 H 0.09302 0.35629 0.92114 0.0000 Uiso
C8_12 C 0.13060 0.48027 1.00000 0.0000 Uiso
H8_12 H 0.14466 0.52656 1.00000 0.0000 Uiso
C8_13 C 0.65033 0.13060 0.00000 0.0000 Uiso
H8_13 H 0.61810 0.14466 0.00000 0.0000 Uiso
N8_10 N 0.67289 0.12072 0.06759 0.0000 Uiso
C12_10 C 0.71062 0.10429 0.04088 0.0000 Uiso
H12_10 H 0.73673 0.09302 0.07886 0.0000 Uiso
Zn5_10 Zn 0.66547 0.12385 0.18127 0.0500 Uiso
C7_10 C 0.71062 0.10429 0.95912 0.0000 Uiso
H7_10 H 0.73673 0.09302 0.92114 0.0000 Uiso
C8_14 C 0.65033 0.13060 1.00000 0.0000 Uiso
H8_14 H 0.61810 0.14466 1.00000 0.0000 Uiso
C8_15 C 0.48027 0.34967 0.00000 0.0000 Uiso
H8_15 H 0.52656 0.38190 0.00000 0.0000 Uiso
N8_11 N 0.44783 0.32711 0.06759 0.0000 Uiso
C12_11 C 0.39367 0.28938 0.04088 0.0000 Uiso
H12_11 H 0.35629 0.26327 0.07886 0.0000 Uiso
Zn5_11 Zn 0.45838 0.33453 0.18127 0.0500 Uiso
C7_11 C 0.39367 0.28938 0.95912 0.0000 Uiso
H7_11 H 0.35629 0.26327 0.92114 0.0000 Uiso
C8_16 C 0.48027 0.34967 1.00000 0.0000 Uiso
H8_16 H 0.52656 0.38190 1.00000 0.0000 Uiso
C8_17 C 0.86940 0.51973 0.00000 0.0000 Uiso
H8_17 H 0.85534 0.47344 0.00000 0.0000 Uiso
N8_12 N 0.87928 0.55217 0.06759 0.0000 Uiso
C12_12 C 0.89571 0.60633 0.04088 0.0000 Uiso
H12_12 H 0.90698 0.64371 0.07886 0.0000 Uiso
Zn5_12 Zn 0.87615 0.54162 0.18127 0.0500 Uiso
C7_12 C 0.89571 0.60633 0.95912 0.0000 Uiso
H7_12 H 0.90698 0.64371 0.92114 0.0000 Uiso
C8_18 C 0.86940 0.51973 1.00000 0.0000 Uiso
H8_18 H 0.85534 0.47344 1.00000 0.0000 Uiso
N1_7 N 0.17784 0.74347 0.27792 0.0000 Uiso
C1_7 C 0.16678 0.78769 0.26898 0.0000 Uiso
H1_7 H 0.12969 0.78963 0.29055 0.0000 Uiso
H2_7 H 0.25659 0.74341 0.25000 0.0000 Uiso
C2_7 C 0.23337 0.76663 0.25000 0.0000 Uiso
N2_7 N 0.15017 0.61250 0.28344 0.0000 Uiso
C3_7 C 0.20580 0.62501 0.27183 0.0000 Uiso
H3_7 H 0.24429 0.66330 0.29400 0.0000 Uiso
C4_7 C 0.11788 0.55894 0.25000 0.0000 Uiso
H4_7 H 0.07148 0.53574 0.25000 0.0000 Uiso
N3_7 N 0.04575 0.64124 0.27729 0.0000 Uiso
C5_7 C 0.02641 0.67925 0.26833 0.0000 Uiso
H5_7 H 0.04705 0.72321 0.28916 0.0000 Uiso
C6_11 C -0.00000 0.59010 0.25000 0.0000 Uiso
H6_11 H -0.00000 0.54972 0.25000 0.0000 Uiso
N5_4 N 0.25653 0.82216 0.22208 0.0000 Uiso
C9_7 C 0.21231 0.83322 0.23102 0.0000 Uiso
H9_7 H 0.21037 0.87031 0.20945 0.0000 Uiso
N6_4 N 0.15017 0.53767 0.21656 0.0000 Uiso
C10_7 C 0.20580 0.58079 0.22817 0.0000 Uiso
H10_7 H 0.24429 0.58099 0.20600 0.0000 Uiso
C6_12 C 1.00000 0.59010 0.25000 0.0000 Uiso
H6_12 H 1.00000 0.54972 0.25000 0.0000 Uiso
N7_7 N 0.95425 0.59549 0.22271 0.0000 Uiso
C11_7 C 0.97359 0.65284 0.23167 0.0000 Uiso
H11_7 H 0.95295 0.67616 0.21084 0.0000 Uiso
N9_4 N 0.82216 0.56563 0.22208 0.0000 Uiso
N10_4 N 0.84983 0.46233 0.21656 0.0000 Uiso
N1_8 N 0.25653 0.43437 0.27792 0.0000 Uiso
C1_8 C 0.21231 0.37909 0.26898 0.0000 Uiso
H1_8 H 0.21037 0.34006 0.29055 0.0000 Uiso
H2_8 H 0.25659 0.51318 0.25000 0.0000 Uiso
C2_8 C 0.23337 0.46674 0.25000 0.0000 Uiso
N2_8 N 0.38750 0.53767 0.28344 0.0000 Uiso
C3_8 C 0.37499 0.58079 0.27183 0.0000 Uiso
H3_8 H 0.33670 0.58099 0.29400 0.0000 Uiso
C4_8 C 0.44106 0.55894 0.25000 0.0000 Uiso
H4_8 H 0.46426 0.53574 0.25000 0.0000 Uiso
N3_8 N 0.35876 0.40451 0.27729 0.0000 Uiso
C5_8 C 0.32075 0.34716 0.26833 0.0000 Uiso
H5_8 H 0.27679 0.32384 0.28916 0.0000 Uiso
C6_13 C 0.40990 0.40990 0.25000 0.0000 Uiso
H6_13 H 0.45028 0.45028 0.25000 0.0000 Uiso
N5_5 N 0.17784 0.43437 0.22208 0.0000 Uiso
C9_8 C 0.16678 0.37909 0.23102 0.0000 Uiso
H9_8 H 0.12969 0.34006 0.20945 0.0000 Uiso
N6_5 N 0.46233 0.61250 0.21656 0.0000 Uiso
C10_8 C 0.41921 0.62501 0.22817 0.0000 Uiso
H10_8 H 0.41901 0.66330 0.20600 0.0000 Uiso
N7_8 N 0.40451 0.35876 0.22271 0.0000 Uiso
C11_8 C 0.34716 0.32075 0.23167 0.0000 Uiso
H11_8 H 0.32384 0.27679 0.21084 0.0000 Uiso
N9_5 N 0.43437 0.25653 0.22208 0.0000 Uiso
N10_5 N 0.53767 0.38750 0.21656 0.0000 Uiso
C6_14 C 0.59010 0.00000 0.25000 0.0000 Uiso
H6_14 H 0.54972 0.00000 0.25000 0.0000 Uiso
N7_9 N 0.64124 0.04575 0.22271 0.0000 Uiso
C11_9 C 0.67925 0.02641 0.23167 0.0000 Uiso
H11_9 H 0.72321 0.04705 0.21084 0.0000 Uiso
N9_6 N 0.74347 0.17784 0.22208 0.0000 Uiso
N10_6 N 0.61250 0.15017 0.21656 0.0000 Uiso
N1_9 N 0.56563 0.82216 0.27792 0.0000 Uiso
C1_9 C 0.62091 0.83322 0.26898 0.0000 Uiso
H1_9 H 0.65994 0.87031 0.29055 0.0000 Uiso
H2_9 H 0.48682 0.74341 0.25000 0.0000 Uiso
C2_9 C 0.53326 0.76663 0.25000 0.0000 Uiso
N2_9 N 0.46233 0.84983 0.28344 0.0000 Uiso
C3_9 C 0.41921 0.79420 0.27183 0.0000 Uiso
H3_9 H 0.41901 0.75571 0.29400 0.0000 Uiso
C4_9 C 0.44106 0.88212 0.25000 0.0000 Uiso
H4_9 H 0.46426 0.92852 0.25000 0.0000 Uiso
N3_9 N 0.59549 0.95425 0.27729 0.0000 Uiso
C5_9 C 0.65284 0.97359 0.26833 0.0000 Uiso
H5_9 H 0.67616 0.95295 0.28916 0.0000 Uiso
C6_15 C 0.59010 1.00000 0.25000 0.0000 Uiso
H6_15 H 0.54972 1.00000 0.25000 0.0000 Uiso
N5_6 N 0.56563 0.74347 0.22208 0.0000 Uiso
C9_9 C 0.62091 0.78769 0.23102 0.0000 Uiso
H9_9 H 0.65994 0.78963 0.20945 0.0000 Uiso
N6_6 N 0.38750 0.84983 0.21656 0.0000 Uiso
C10_9 C 0.37499 0.79420 0.22817 0.0000 Uiso
H10_9 H 0.33670 0.75571 0.20600 0.0000 Uiso
C6_16 C 0.00000 0.40990 0.25000 0.0000 Uiso
H6_16 H 0.00000 0.45028 0.25000 0.0000 Uiso
N7_10 N 0.04575 0.40451 0.22271 0.0000 Uiso
C11_10 C 0.02641 0.34716 0.23167 0.0000 Uiso
H11_10 H 0.04705 0.32384 0.21084 0.0000 Uiso
N1_10 N 0.82216 0.25653 0.27792 0.0000 Uiso
C1_10 C 0.83322 0.21231 0.26898 0.0000 Uiso
H1_10 H 0.87031 0.21037 0.29055 0.0000 Uiso
H2_10 H 0.74341 0.25659 0.25000 0.0000 Uiso
C2_10 C 0.76663 0.23337 0.25000 0.0000 Uiso
N2_10 N 0.84983 0.38750 0.28344 0.0000 Uiso
C3_10 C 0.79420 0.37499 0.27183 0.0000 Uiso
H3_10 H 0.75571 0.33670 0.29400 0.0000 Uiso
C4_10 C 0.88212 0.44106 0.25000 0.0000 Uiso
H4_10 H 0.92852 0.46426 0.25000 0.0000 Uiso
N3_10 N 0.95425 0.35876 0.27729 0.0000 Uiso
C5_10 C 0.97359 0.32075 0.26833 0.0000 Uiso
H5_10 H 0.95295 0.27679 0.28916 0.0000 Uiso
C6_17 C 1.00000 0.40990 0.25000 0.0000 Uiso
H6_17 H 1.00000 0.45028 0.25000 0.0000 Uiso
C9_10 C 0.78769 0.16678 0.23102 0.0000 Uiso
H9_10 H 0.78963 0.12969 0.20945 0.0000 Uiso
C10_10 C 0.79420 0.41921 0.22817 0.0000 Uiso
H10_10 H 0.75571 0.41901 0.20600 0.0000 Uiso
N1_11 N 0.74347 0.56563 0.27792 0.0000 Uiso
C1_11 C 0.78769 0.62091 0.26898 0.0000 Uiso
H1_11 H 0.78963 0.65994 0.29055 0.0000 Uiso
H2_11 H 0.74341 0.48682 0.25000 0.0000 Uiso
C2_11 C 0.76663 0.53326 0.25000 0.0000 Uiso
N2_11 N 0.61250 0.46233 0.28344 0.0000 Uiso
C3_11 C 0.62501 0.41921 0.27183 0.0000 Uiso
H3_11 H 0.66330 0.41901 0.29400 0.0000 Uiso
C4_11 C 0.55894 0.44106 0.25000 0.0000 Uiso
H4_11 H 0.53574 0.46426 0.25000 0.0000 Uiso
N3_11 N 0.64124 0.59549 0.27729 0.0000 Uiso
C5_11 C 0.67925 0.65284 0.26833 0.0000 Uiso
H5_11 H 0.72321 0.67616 0.28916 0.0000 Uiso
C6_18 C 0.59010 0.59010 0.25000 0.0000 Uiso
H6_18 H 0.54972 0.54972 0.25000 0.0000 Uiso
C9_11 C 0.83322 0.62091 0.23102 0.0000 Uiso
H9_11 H 0.87031 0.65994 0.20945 0.0000 Uiso
C10_11 C 0.58079 0.37499 0.22817 0.0000 Uiso
H10_11 H 0.58099 0.33670 0.20600 0.0000 Uiso
N7_11 N 0.59549 0.64124 0.22271 0.0000 Uiso
C11_11 C 0.65284 0.67925 0.23167 0.0000 Uiso
H11_11 H 0.67616 0.72321 0.21084 0.0000 Uiso
N1_12 N 0.43437 0.17784 0.27792 0.0000 Uiso
C1_12 C 0.37909 0.16678 0.26898 0.0000 Uiso
H1_12 H 0.34006 0.12969 0.29055 0.0000 Uiso
H2_12 H 0.51318 0.25659 0.25000 0.0000 Uiso
C2_12 C 0.46674 0.23337 0.25000 0.0000 Uiso
N2_12 N 0.53767 0.15017 0.28344 0.0000 Uiso
C3_12 C 0.58079 0.20580 0.27183 0.0000 Uiso
H3_12 H 0.58099 0.24429 0.29400 0.0000 Uiso
C4_12 C 0.55894 0.11788 0.25000 0.0000 Uiso
H4_12 H 0.53574 0.07148 0.25000 0.0000 Uiso
N3_12 N 0.40451 0.04575 0.27729 0.0000 Uiso
C5_12 C 0.34716 0.02641 0.26833 0.0000 Uiso
H5_12 H 0.32384 0.04705 0.28916 0.0000 Uiso
C6_19 C 0.40990 -0.00000 0.25000 0.0000 Uiso
H6_19 H 0.45028 -0.00000 0.25000 0.0000 Uiso
C9_12 C 0.37909 0.21231 0.23102 0.0000 Uiso
H9_12 H 0.34006 0.21037 0.20945 0.0000 Uiso
C10_12 C 0.62501 0.20580 0.22817 0.0000 Uiso
H10_12 H 0.66330 0.24429 0.20600 0.0000 Uiso
C6_20 C 0.40990 1.00000 0.25000 0.0000 Uiso
H6_20 H 0.45028 1.00000 0.25000 0.0000 Uiso
N7_12 N 0.35876 0.95425 0.22271 0.0000 Uiso
C11_12 C 0.32075 0.97359 0.23167 0.0000 Uiso
H11_12 H 0.27679 0.95295 0.21084 0.0000 Uiso
loop_
_geom_bond_atom_site_label_1
_geom_bond_atom_site_label_2
_geom_bond_site_symmetry_1
_geom_bond_site_symmetry_2
H6 C6 1_555 1_555
N7 C6 1_555 1_555
H11 C11 1_555 1_555
Zn2 N7 1_555 1_555
N9 Zn2 1_555 1_555
N10 Zn2 1_555 1_555
N11 Zn2 1_555 1_555
N7 C11 1_555 1_555
N1 C1 1_555 1_555
C1 H1 1_555 1_555
H2 C2 1_555 1_555
C2 N1 1_555 1_555
Zn1 N1 1_555 1_555
N2 Zn1 1_555 1_555
C3 N2 1_555 1_555
H3 C3 1_555 1_555
C4 N2 1_555 1_555
H4 C4 1_555 1_555
N3 Zn1 1_555 1_555
C5 N3 1_555 1_555
H5 C5 1_555 1_555
C6_2 N3 1_555 1_555
H6_2 C6_2 1_555 1_555
N4 Zn1 1_555 1_555
C7 N4 1_555 1_555
H7 C7 1_555 1_555
C8 N4 1_555 1_555
H8 C8 1_555 1_555
N5 C2 1_555 1_555
C9 C1 1_555 1_555
H9 C9 1_555 1_555
N6 C4 1_555 1_555
C10 C3 1_555 1_555
H10 C10 1_555 1_555
N8 C8 1_555 1_555
C12 C7 1_555 1_555
H12 C12 1_555 1_555
Zn3 N5 1_555 1_555
Zn4 N6 1_555 1_555
Zn5 N8 1_555 1_555
N5 C9 1_555 1_555
N6 C10 1_555 1_555
N8 C12 1_555 1_555
N1_2 C1_2 1_555 1_555
C1_2 H1_2 1_555 1_555
H2_2 C2_2 1_555 1_555
C2_2 N1_2 1_555 1_555
Zn1_2 N1_2 1_555 1_555
N2_2 Zn1_2 1_555 1_555
C3_2 N2_2 1_555 1_555
H3_2 C3_2 1_555 1_555
C4_2 N2_2 1_555 1_555
H4_2 C4_2 1_555 1_555
N3_2 Zn1_2 1_555 1_555
C5_2 N3_2 1_555 1_555
H5_2 C5_2 1_555 1_555
C6_3 N3_2 1_555 1_555
H6_3 C6_3 1_555 1_555
N4_2 Zn1_2 1_555 1_555
C7_2 N4_2 1_555 1_555
H7_2 C7_2 1_555 1_555
C8_2 N4_2 1_555 1_555
H8_2 C8_2 1_555 1_555
N5_2 C2_2 1_555 1_555
C9_2 C1_2 1_555 1_555
H9_2 C9_2 1_555 1_555
N6_2 C4_2 1_555 1_555
C10_2 C3_2 1_555 1_555
H10_2 C10_2 1_555 1_555
N7_2 C6_3 1_555 1_555
C11_2 C5_2 1_555 1_555
H11_2 C11_2 1_555 1_555
N8_2 C8_2 1_555 1_555
C12_2 C7_2 1_555 1_555
H12_2 C12_2 1_555 1_555
Zn2_2 N7_2 1_555 1_555
N9_2 Zn2_2 1_555 1_555
Zn4 N5_2 1_555 1_555
Zn4_2 N6_2 1_555 1_555
Zn5_2 N8_2 1_555 1_555
N10_2 Zn2_2 1_555 1_555
N11_2 Zn2_2 1_555 1_555
N5_2 C9_2 1_555 1_555
N6_2 C10_2 1_555 1_555
N7_2 C11_2 1_555 1_555
N8_2 C12_2 1_555 1_555
N1_3 C1_3 1_555 1_555
C1_3 H1_3 1_555 1_555
H2_3 C2_3 1_555 1_555
C2_3 N1_3 1_555 1_555
Zn1_3 N1_3 1_555 1_555
N2_3 Zn1_3 1_555 1_555
C3_3 N2_3 1_555 1_555
H3_3 C3_3 1_555 1_555
C4_3 N2_3 1_555 1_555
H4_3 C4_3 1_555 1_555
N3_3 Zn1_3 1_555 1_555
C5_3 N3_3 1_555 1_555
H5_3 C5_3 1_555 1_555
C6_4 N3_3 1_555 1_555
H6_4 C6_4 1_555 1_555
N4_3 Zn1_3 1_555 1_555
C7_3 N4_3 1_555 1_555
H7_3 C7_3 1_555 1_555
C8_3 N4_3 1_555 1_555
H8_3 C8_3 1_555 1_555
N5_3 C2_3 1_555 1_555
C9_3 C1_3 1_555 1_555
H9_3 C9_3 1_555 1_555
N6_3 C4_3 1_555 1_555
C10_3 C3_3 1_555 1_555
H10_3 C10_3 1_555 1_555
N8_3 C8_3 1_555 1_555
C12_3 C7_3 1_555 1_555
H12_3 C12_3 1_555 1_555
Zn4_2 N5_3 1_555 1_555
Zn3 N6_3 1_555 1_555
Zn5_3 N8_3 1_555 1_555
N5_3 C9_3 1_555 1_555
N6_3 C10_3 1_555 1_555
N8_3 C12_3 1_555 1_555
H6_5 C6_5 1_555 1_555
N7_3 C6_5 1_555 1_555
H11_3 C11_3 1_555 1_555
Zn2_3 N7_3 1_555 1_555
N9_3 Zn2_3 1_555 1_555
N10_3 Zn2_3 1_555 1_555
N11_3 Zn2_3 1_555 1_555
N7_3 C11_3 1_555 1_555
N1_4 C1_4 1_555 1_555
C1_4 H1_4 1_555 1_555
H2_4 C2_4 1_555 1_555
C2_4 N1_4 1_555 1_555
Zn1_4 N1_4 1_555 1_555
N2_4 Zn1_4 1_555 1_555
C3_4 N2_4 1_555 1_555
H3_4 C3_4 1_555 1_555
C4_4 N2_4 1_555 1_555
H4_4 C4_4 1_555 1_555
N3_4 Zn1_4 1_555 1_555
C5_4 N3_4 1_555 1_555
H5_4 C5_4 1_555 1_555
C6_6 N3_4 1_555 1_555
H6_6 C6_6 1_555 1_555
N4_4 Zn1_4 1_555 1_555
C7_4 N4_4 1_555 1_555
H7_4 C7_4 1_555 1_555
C8_4 N4_4 1_555 1_555
H8_4 C8_4 1_555 1_555
N9_3 C2_4 1_555 1_555
C9_4 C1_4 1_555 1_555
H9_4 C9_4 1_555 1_555
N10 C4_4 1_555 1_555
C10_4 C3_4 1_555 1_555
H10_4 C10_4 1_555 1_555
N8_4 C8_4 1_555 1_555
C12_4 C7_4 1_555 1_555
H12_4 C12_4 1_555 1_555
Zn5_4 N8_4 1_555 1_555
N9_3 C9_4 1_555 1_555
N10 C10_4 1_555 1_555
N8_4 C12_4 1_555 1_555
H6_7 C6_7 1_555 1_555
N7_4 C6_7 1_555 1_555
H11_4 C11_4 1_555 1_555
Zn4 N7_4 1_555 1_555
N11_4 Zn4 1_555 1_555
N7_4 C11_4 1_555 1_555
N1_5 C1_5 1_555 1_555
C1_5 H1_5 1_555 1_555
H2_5 C2_5 1_555 1_555
C2_5 N1_5 1_555 1_555
Zn1_5 N1_5 1_555 1_555
N2_5 Zn1_5 1_555 1_555
C3_5 N2_5 1_555 1_555
H3_5 C3_5 1_555 1_555
C4_5 N2_5 1_555 1_555
H4_5 C4_5 1_555 1_555
N3_5 Zn1_5 1_555 1_555
C5_5 N3_5 1_555 1_555
H5_5 C5_5 1_555 1_555
C6_8 N3_5 1_555 1_555
H6_8 C6_8 1_555 1_555
N4_5 Zn1_5 1_555 1_555
C7_5 N4_5 1_555 1_555
H7_5 C7_5 1_555 1_555
C8_5 N4_5 1_555 1_555
H8_5 C8_5 1_555 1_555
N9 C2_5 1_555 1_555
C9_5 C1_5 1_555 1_555
H9_5 C9_5 1_555 1_555
N10_2 C4_5 1_555 1_555
C10_5 C3_5 1_555 1_555
H10_5 C10_5 1_555 1_555
N7_5 C6_8 1_555 1_555
C11_5 C5_5 1_555 1_555
H11_5 C11_5 1_555 1_555
N8_5 C8_5 1_555 1_555
C12_5 C7_5 1_555 1_555
H12_5 C12_5 1_555 1_555
Zn4_2 N7_5 1_555 1_555
Zn5_5 N8_5 1_555 1_555
N11_5 Zn4_2 1_555 1_555
N9 C9_5 1_555 1_555
N10_2 C10_5 1_555 1_555
N7_5 C11_5 1_555 1_555
N8_5 C12_5 1_555 1_555
H6_9 C6_9 1_555 1_555
N7_6 C6_9 1_555 1_555
H11_6 C11_6 1_555 1_555
Zn3 N7_6 1_555 1_555
N11_6 Zn3 1_555 1_555
N7_6 C11_6 1_555 1_555
N1_6 C1_6 1_555 1_555
C1_6 H1_6 1_555 1_555
H2_6 C2_6 1_555 1_555
C2_6 N1_6 1_555 1_555
Zn1_6 N1_6 1_555 1_555
N2_6 Zn1_6 1_555 1_555
C3_6 N2_6 1_555 1_555
H3_6 C3_6 1_555 1_555
C4_6 N2_6 1_555 1_555
H4_6 C4_6 1_555 1_555
N3_6 Zn1_6 1_555 1_555
C5_6 N3_6 1_555 1_555
H5_6 C5_6 1_555 1_555
C6_10 N3_6 1_555 1_555
H6_10 C6_10 1_555 1_555
N4_6 Zn1_6 1_555 1_555
C7_6 N4_6 1_555 1_555
H7_6 C7_6 1_555 1_555
C8_6 N4_6 1_555 1_555
H8_6 C8_6 1_555 1_555
N9_2 C2_6 1_555 1_555
C9_6 C1_6 1_555 1_555
H9_6 C9_6 1_555 1_555
N10_3 C4_6 1_555 1_555
C10_6 C3_6 1_555 1_555
H10_6 C10_6 1_555 1_555
N8_6 C8_6 1_555 1_555
C12_6 C7_6 1_555 1_555
H12_6 C12_6 1_555 1_555
Zn5_6 N8_6 1_555 1_555
N9_2 C9_6 1_555 1_555
N10_3 C10_6 1_555 1_555
N8_6 C12_6 1_555 1_555
H8_7 C8_7 1_555 1_555
N8_7 C8_7 1_555 1_555
H12_7 C12_7 1_555 1_555
Zn5_7 N8_7 1_555 1_555
N8_7 C12_7 1_555 1_555
C7_7 N11_3 1_555 1_555
H7_7 C7_7 1_555 1_555
C8_8 N11_3 1_555 1_555
H8_8 C8_8 1_555 1_555
H8_9 C8_9 1_555 1_555
N8_8 C8_9 1_555 1_555
H12_8 C12_8 1_555 1_555
Zn5_8 N8_8 1_555 1_555
N8_8 C12_8 1_555 1_555
C7_8 N11_2 1_555 1_555
H7_8 C7_8 1_555 1_555
C8_10 N11_2 1_555 1_555
H8_10 C8_10 1_555 1_555
H8_11 C8_11 1_555 1_555
N8_9 C8_11 1_555 1_555
H12_9 C12_9 1_555 1_555
Zn5_9 N8_9 1_555 1_555
N8_9 C12_9 1_555 1_555
C7_9 N11 1_555 1_555
H7_9 C7_9 1_555 1_555
C8_12 N11 1_555 1_555
H8_12 C8_12 1_555 1_555
H8_13 C8_13 1_555 1_555
N8_10 C8_13 1_555 1_555
H12_10 C12_10 1_555 1_555
Zn5_10 N8_10 1_555 1_555
N8_10 C12_10 1_555 1_555
C7_10 N11_6 1_555 1_555
H7_10 C7_10 1_555 1_555
C8_14 N11_6 1_555 1_555
H8_14 C8_14 1_555 1_555
H8_15 C8_15 1_555 1_555
N8_11 C8_15 1_555 1_555
H12_11 C12_11 1_555 1_555
Zn5_11 N8_11 1_555 1_555
N8_11 C12_11 1_555 1_555
C7_11 N11_5 1_555 1_555
H7_11 C7_11 1_555 1_555
C8_16 N11_5 1_555 1_555
H8_16 C8_16 1_555 1_555
H8_17 C8_17 1_555 1_555
N8_12 C8_17 1_555 1_555
H12_12 C12_12 1_555 1_555
Zn5_12 N8_12 1_555 1_555
N8_12 C12_12 1_555 1_555
C7_12 N11_4 1_555 1_555
H7_12 C7_12 1_555 1_555
C8_18 N11_4 1_555 1_555
H8_18 C8_18 1_555 1_555
N1_7 C1_7 1_555 1_555
C1_7 H1_7 1_555 1_555
H2_7 C2_7 1_555 1_555
C2_7 N1_7 1_555 1_555
Zn5_4 N1_7 1_555 1_555
N2_7 Zn5_4 1_555 1_555
C3_7 N2_7 1_555 1_555
H3_7 C3_7 1_555 1_555
C4_7 N2_7 1_555 1_555
H4_7 C4_7 1_555 1_555
N3_7 Zn5_4 1_555 1_555
C5_7 N3_7 1_555 1_555
H5_7 C5_7 1_555 1_555
C6_11 N3_7 1_555 1_555
H6_11 C6_11 1_555 1_555
N5_4 C2_7 1_555 1_555
C9_7 C1_7 1_555 1_555
H9_7 C9_7 1_555 1_555
N6_4 C4_7 1_555 1_555
C10_7 C3_7 1_555 1_555
H10_7 C10_7 1_555 1_555
Zn5_7 N5_4 1_555 1_555
Zn5_9 N6_4 1_555 1_555
N5_4 C9_7 1_555 1_555
N6_4 C10_7 1_555 1_555
H6_12 C6_12 1_555 1_555
N7_7 C6_12 1_555 1_555
H11_7 C11_7 1_555 1_555
Zn5_12 N7_7 1_555 1_555
N9_4 Zn5_12 1_555 1_555
N10_4 Zn5_12 1_555 1_555
N7_7 C11_7 1_555 1_555
N1_8 C1_8 1_555 1_555
C1_8 H1_8 1_555 1_555
H2_8 C2_8 1_555 1_555
C2_8 N1_8 1_555 1_555
Zn5_5 N1_8 1_555 1_555
N2_8 Zn5_5 1_555 1_555
C3_8 N2_8 1_555 1_555
H3_8 C3_8 1_555 1_555
C4_8 N2_8 1_555 1_555
H4_8 C4_8 1_555 1_555
N3_8 Zn5_5 1_555 1_555
C5_8 N3_8 1_555 1_555
H5_8 C5_8 1_555 1_555
C6_13 N3_8 1_555 1_555
H6_13 C6_13 1_555 1_555
N5_5 C2_8 1_555 1_555
C9_8 C1_8 1_555 1_555
H9_8 C9_8 1_555 1_555
N6_5 C4_8 1_555 1_555
C10_8 C3_8 1_555 1_555
H10_8 C10_8 1_555 1_555
N7_8 C6_13 1_555 1_555
C11_8 C5_8 1_555 1_555
H11_8 C11_8 1_555 1_555
Zn5_11 N7_8 1_555 1_555
N9_5 Zn5_11 1_555 1_555
Zn5_9 N5_5 1_555 1_555
Zn5_8 N6_5 1_555 1_555
N10_5 Zn5_11 1_555 1_555
N5_5 C9_8 1_555 1_555
N6_5 C10_8 1_555 1_555
N7_8 C11_8 1_555 1_555
H6_14 C6_14 1_555 1_555
N7_9 C6_14 1_555 1_555
H11_9 C11_9 1_555 1_555
Zn5_10 N7_9 1_555 1_555
N9_6 Zn5_10 1_555 1_555
N10_6 Zn5_10 1_555 1_555
N7_9 C11_9 1_555 1_555
N1_9 C1_9 1_555 1_555
C1_9 H1_9 1_555 1_555
H2_9 C2_9 1_555 1_555
C2_9 N1_9 1_555 1_555
Zn5_6 N1_9 1_555 1_555
N2_9 Zn5_6 1_555 1_555
C3_9 N2_9 1_555 1_555
H3_9 C3_9 1_555 1_555
C4_9 N2_9 1_555 1_555
H4_9 C4_9 1_555 1_555
N3_9 Zn5_6 1_555 1_555
C5_9 N3_9 1_555 1_555
H5_9 C5_9 1_555 1_555
C6_15 N3_9 1_555 1_555
H6_15 C6_15 1_555 1_555
N5_6 C2_9 1_555 1_555
C9_9 C1_9 1_555 1_555
H9_9 C9_9 1_555 1_555
N6_6 C4_9 1_555 1_555
C10_9 C3_9 1_555 1_555
H10_9 C10_9 1_555 1_555
Zn5_8 N5_6 1_555 1_555
Zn5_7 N6_6 1_555 1_555
N5_6 C9_9 1_555 1_555
N6_6 C10_9 1_555 1_555
H6_16 C6_16 1_555 1_555
N7_10 C6_16 1_555 1_555
H11_10 C11_10 1_555 1_555
Zn5_9 N7_10 1_555 1_555
N7_10 C11_10 1_555 1_555
N1_10 C1_10 1_555 1_555
C1_10 H1_10 1_555 1_555
H2_10 C2_10 1_555 1_555
C2_10 N1_10 1_555 1_555
Zn5 N1_10 1_555 1_555
N2_10 Zn5 1_555 1_555
C3_10 N2_10 1_555 1_555
H3_10 C3_10 1_555 1_555
C4_10 N2_10 1_555 1_555
H4_10 C4_10 1_555 1_555
N3_10 Zn5 1_555 1_555
C5_10 N3_10 1_555 1_555
H5_10 C5_10 1_555 1_555
C6_17 N3_10 1_555 1_555
H6_17 C6_17 1_555 1_555
N9_6 C2_10 1_555 1_555
C9_10 C1_10 1_555 1_555
H9_10 C9_10 1_555 1_555
N10_4 C4_10 1_555 1_555
C10_10 C3_10 1_555 1_555
H10_10 C10_10 1_555 1_555
N9_6 C9_10 1_555 1_555
N10_4 C10_10 1_555 1_555
N1_11 C1_11 1_555 1_555
C1_11 H1_11 1_555 1_555
H2_11 C2_11 1_555 1_555
C2_11 N1_11 1_555 1_555
Zn5_2 N1_11 1_555 1_555
N2_11 Zn5_2 1_555 1_555
C3_11 N2_11 1_555 1_555
H3_11 C3_11 1_555 1_555
C4_11 N2_11 1_555 1_555
H4_11 C4_11 1_555 1_555
N3_11 Zn5_2 1_555 1_555
C5_11 N3_11 1_555 1_555
H5_11 C5_11 1_555 1_555
C6_18 N3_11 1_555 1_555
H6_18 C6_18 1_555 1_555
N9_4 C2_11 1_555 1_555
C9_11 C1_11 1_555 1_555
H9_11 C9_11 1_555 1_555
N10_5 C4_11 1_555 1_555
C10_11 C3_11 1_555 1_555
H10_11 C10_11 1_555 1_555
N7_11 C6_18 1_555 1_555
C11_11 C5_11 1_555 1_555
H11_11 C11_11 1_555 1_555
Zn5_8 N7_11 1_555 1_555
N9_4 C9_11 1_555 1_555
N10_5 C10_11 1_555 1_555
N7_11 C11_11 1_555 1_555
N1_12 C1_12 1_555 1_555
C1_12 H1_12 1_555 1_555
H2_12 C2_12 1_555 1_555
C2_12 N1_12 1_555 1_555
Zn5_3 N1_12 1_555 1_555
N2_12 Zn5_3 1_555 1_555
C3_12 N2_12 1_555 1_555
H3_12 C3_12 1_555 1_555
C4_12 N2_12 1_555 1_555
H4_12 C4_12 1_555 1_555
N3_12 Zn5_3 1_555 1_555
C5_12 N3_12 1_555 1_555
H5_12 C5_12 1_555 1_555
C6_19 N3_12 1_555 1_555
H6_19 C6_19 1_555 1_555
N9_5 C2_12 1_555 1_555
C9_12 C1_12 1_555 1_555
H9_12 C9_12 1_555 1_555
N10_6 C4_12 1_555 1_555
C10_12 C3_12 1_555 1_555
H10_12 C10_12 1_555 1_555
N9_5 C9_12 1_555 1_555
N10_6 C10_12 1_555 1_555
H6_20 C6_20 1_555 1_555
N7_12 C6_20 1_555 1_555
H11_12 C11_12 1_555 1_555
Zn5_7 N7_12 1_555 1_555
N7_12 C11_12 1_555 1_555

#END
