
###############################################################################
#
# This file contains modified crystal structure data generated from the
# MOF subset of the Cambridge Structural Database (CSD) v543 
# hosted by the Cambridge Crystallographic Data Centre (CCDC).
#
# This work is licensed under the Creative Commons
# Attribution-NonCommercial-ShareAlike 4.0 International License.
# To view a copy of this license, visit
# http://creativecommons.org/licenses/by-nc-sa/4.0/
# or send a letter to
# Creative Commons, PO Box 1866, Mountain View, CA 94042, USA.
#
# CIF created using the CSD Python API on 29 September 2022
# The structure has been converted into the P1 space group
# The structure has a 3D framework
# The original CSD entry IMIDZB15 is in the orthorhombic crystal system
# The framework has been calculated to contain at least 10.0% void space
# The void calculation uses a probe of radius 1.32A, grid spacing 0.4
#
###############################################################################

data_IMIDZB15
_chemical_formula_moiety         '(C96 H96 N64 Zn12)n'
_symmetry_cell_setting           triclinic
_symmetry_space_group_name_H-M   'P 1'
_symmetry_Int_Tables_number      1
_space_group_name_Hall           'P 1'
loop_
_symmetry_equiv_pos_site_id
_symmetry_equiv_pos_as_xyz
1 x,y,z
_cell_length_a                   14.56659
_cell_length_b                   14.44478
_cell_length_c                   15.45102
_cell_angle_alpha                90
_cell_angle_beta                 90
_cell_angle_gamma                90
_cell_volume                     3251.07
loop_
_atom_site_label
_atom_site_type_symbol
_atom_site_fract_x
_atom_site_fract_y
_atom_site_fract_z
_atom_site_U_iso_or_equiv
_atom_site_thermal_displace_type
Zn1 Zn 0.27133 0.3111 0.0679 3.0000 Uiso
N1 N 0.141162 0.279658 0.094834 3.0000 Uiso
N2 N 0.033579 0.200435 0.160181 3.0000 Uiso
C1 C 0.109418 0.193260 0.110195 3.0000 Uiso
C2 C 0.084941 0.34023 0.135326 3.0000 Uiso
C3 C 0.018451 0.291268 0.175713 3.0000 Uiso
H1 H 0.139633 0.129141 0.086470 3.0000 Uiso
H2 H 0.091978 0.415286 0.135399 3.0000 Uiso
N3 N 0.335768 0.400734 0.141246 3.0000 Uiso
N4 N 0.433707 0.490360 0.208303 3.0000 Uiso
C4 C 0.408188 0.457974 0.129817 3.0000 Uiso
C5 C 0.316528 0.397745 0.226796 3.0000 Uiso
C6 C 0.377058 0.453137 0.268239 3.0000 Uiso
H4 H 0.440327 0.475003 0.068204 3.0000 Uiso
H5 H 0.261869 0.357741 0.257018 3.0000 Uiso
H6 H 0.379717 0.465586 0.337707 3.0000 Uiso
N5 N 0.335617 0.191520 0.083348 3.0000 Uiso
N6 N 0.427001 0.111555 0.167202 3.0000 Uiso
C7 C 0.362771 0.179103 0.166206 3.0000 Uiso
C8 C 0.383066 0.131647 0.033134 3.0000 Uiso
C9 C 0.439545 0.082225 0.084959 3.0000 Uiso
H7 H 0.337364 0.21688 0.222301 3.0000 Uiso
H9 H 0.48684 0.028263 0.064116 3.0000 Uiso
Zn3 Zn 0.52246 0.59192 0.21685 3.0000 Uiso
Zn5 Zn 0.47754 0.09192 0.28315 3.0000 Uiso
H8 H 0.376879 0.124485 0.963215 3.0000 Uiso
N7 N 0.282450 0.367408 0.956081 3.0000 Uiso
N8 N 0.374603 0.435596 0.864261 3.0000 Uiso
C10 C 0.370714 0.373533 0.929649 3.0000 Uiso
C11 C 0.231790 0.425686 0.907028 3.0000 Uiso
C12 C 0.288744 0.467828 0.850280 3.0000 Uiso
H10 H 0.428529 0.335202 0.956344 3.0000 Uiso
H11 H 0.15805 0.436742 0.912301 3.0000 Uiso
H12 H 0.268936 0.518791 0.801815 3.0000 Uiso
Zn4 Zn 0.47754 0.40808 0.78315 3.0000 Uiso
N9 N 0.066293 0.990360 0.208303 3.0000 Uiso
Zn2 Zn 0.97754 0.09192 0.21685 3.0000 Uiso
H3 H 0.962524 0.319959 0.21403 3.0000 Uiso
N10 N 0.927001 0.111555 0.332798 3.0000 Uiso
N11 N 0.874603 0.064404 0.135739 3.0000 Uiso
Zn2_2 Zn 0.02246 0.59192 0.28315 3.0000 Uiso
H3_2 H 0.037476 0.819959 0.28597 3.0000 Uiso
N10_2 N 0.072999 0.611555 0.167202 3.0000 Uiso
N11_2 N 0.125397 0.564404 0.364261 3.0000 Uiso
H12_2 H 0.731064 0.018791 0.698185 3.0000 Uiso
Zn1_2 Zn 0.72867 0.8111 0.4321 3.0000 Uiso
N1_2 N 0.858838 0.779658 0.405166 3.0000 Uiso
N2_2 N 0.966421 0.700435 0.339819 3.0000 Uiso
C1_2 C 0.890582 0.693260 0.389805 3.0000 Uiso
C2_2 C 0.915059 0.84023 0.364674 3.0000 Uiso
C3_2 C 0.981549 0.791268 0.324287 3.0000 Uiso
H1_2 H 0.860367 0.629141 0.413530 3.0000 Uiso
H2_2 H 0.908022 0.915286 0.364601 3.0000 Uiso
N3_2 N 0.664232 0.900734 0.358754 3.0000 Uiso
N4_2 N 0.566293 0.990360 0.291697 3.0000 Uiso
C4_2 C 0.591812 0.957974 0.370183 3.0000 Uiso
C5_2 C 0.683472 0.897745 0.273204 3.0000 Uiso
C6_2 C 0.622942 0.953137 0.231761 3.0000 Uiso
H4_2 H 0.559673 0.975003 0.431796 3.0000 Uiso
H5_2 H 0.738131 0.857741 0.242982 3.0000 Uiso
H6_2 H 0.620283 0.965586 0.162293 3.0000 Uiso
N5_2 N 0.664383 0.691520 0.416652 3.0000 Uiso
N6_2 N 0.572999 0.611555 0.332798 3.0000 Uiso
C7_2 C 0.637229 0.679103 0.333794 3.0000 Uiso
C8_2 C 0.616934 0.631647 0.466866 3.0000 Uiso
C9_2 C 0.560455 0.582225 0.415041 3.0000 Uiso
H7_2 H 0.662636 0.71688 0.277699 3.0000 Uiso
H8_2 H 0.623121 0.624485 0.536785 3.0000 Uiso
H9_2 H 0.51316 0.528263 0.435884 3.0000 Uiso
N7_2 N 0.717550 0.867408 0.543919 3.0000 Uiso
N8_2 N 0.625397 0.935596 0.635739 3.0000 Uiso
C10_2 C 0.629286 0.873533 0.570351 3.0000 Uiso
C11_2 C 0.768210 0.925686 0.592972 3.0000 Uiso
C12_2 C 0.711256 0.967828 0.649720 3.0000 Uiso
H10_2 H 0.571471 0.835202 0.543656 3.0000 Uiso
H11_2 H 0.84195 0.936742 0.587699 3.0000 Uiso
Zn4_2 Zn 0.52246 0.90808 0.71685 3.0000 Uiso
N9_2 N 0.933707 0.490360 0.291697 3.0000 Uiso
N9_3 N 0.433707 0.009640 0.708303 3.0000 Uiso
Zn1_3 Zn 0.22867 0.6889 0.5679 3.0000 Uiso
N1_3 N 0.358838 0.720342 0.594834 3.0000 Uiso
N2_3 N 0.466421 0.799565 0.660181 3.0000 Uiso
C1_3 C 0.390582 0.806740 0.610195 3.0000 Uiso
C2_3 C 0.415059 0.65977 0.635326 3.0000 Uiso
C3_3 C 0.481549 0.708732 0.675713 3.0000 Uiso
H1_3 H 0.360367 0.870859 0.586470 3.0000 Uiso
H2_3 H 0.408022 0.584714 0.635399 3.0000 Uiso
H3_3 H 0.537476 0.680041 0.71403 3.0000 Uiso
N3_3 N 0.164232 0.599266 0.641246 3.0000 Uiso
N4_3 N 0.066293 0.509640 0.708303 3.0000 Uiso
C4_3 C 0.091812 0.542026 0.629817 3.0000 Uiso
C5_3 C 0.183472 0.602255 0.726796 3.0000 Uiso
C6_3 C 0.122942 0.546863 0.768239 3.0000 Uiso
H4_3 H 0.059673 0.524997 0.568204 3.0000 Uiso
H5_3 H 0.238131 0.642259 0.757018 3.0000 Uiso
H6_3 H 0.120283 0.534414 0.837707 3.0000 Uiso
N5_3 N 0.164383 0.808480 0.583348 3.0000 Uiso
N6_3 N 0.072999 0.888445 0.667202 3.0000 Uiso
C7_3 C 0.137229 0.820897 0.666206 3.0000 Uiso
C8_3 C 0.116934 0.868353 0.533134 3.0000 Uiso
C9_3 C 0.060455 0.917775 0.584959 3.0000 Uiso
H7_3 H 0.162636 0.78312 0.722301 3.0000 Uiso
H8_3 H 0.123121 0.875515 0.463215 3.0000 Uiso
H9_3 H 0.01316 0.971737 0.564116 3.0000 Uiso
N7_3 N 0.217550 0.632592 0.456081 3.0000 Uiso
C10_3 C 0.129286 0.626467 0.429649 3.0000 Uiso
C11_3 C 0.268210 0.574314 0.407028 3.0000 Uiso
C12_3 C 0.211256 0.532172 0.350280 3.0000 Uiso
H10_3 H 0.071471 0.664798 0.456344 3.0000 Uiso
H11_3 H 0.34195 0.563258 0.412301 3.0000 Uiso
H12_3 H 0.231064 0.481209 0.301815 3.0000 Uiso
Zn5_2 Zn 0.02246 0.90808 0.78315 3.0000 Uiso
N10_3 N 0.572999 0.888445 0.832798 3.0000 Uiso
Zn3_2 Zn 0.97754 0.40808 0.71685 3.0000 Uiso
H8_4 H 0.876879 0.375515 0.036785 3.0000 Uiso
N7_4 N 0.782450 0.132592 0.043919 3.0000 Uiso
C10_4 C 0.870714 0.126467 0.070351 3.0000 Uiso
C11_4 C 0.731790 0.074314 0.092972 3.0000 Uiso
C12_4 C 0.788744 0.032172 0.149720 3.0000 Uiso
H10_4 H 0.928529 0.164798 0.043656 3.0000 Uiso
H11_4 H 0.65805 0.063258 0.087699 3.0000 Uiso
Zn1_4 Zn 0.77133 0.1889 0.9321 3.0000 Uiso
N1_4 N 0.641162 0.220342 0.905166 3.0000 Uiso
N2_4 N 0.533579 0.299565 0.839819 3.0000 Uiso
C1_4 C 0.609418 0.306740 0.889805 3.0000 Uiso
C2_4 C 0.584941 0.15977 0.864674 3.0000 Uiso
C3_4 C 0.518451 0.208732 0.824287 3.0000 Uiso
H1_4 H 0.639633 0.370859 0.913530 3.0000 Uiso
H2_4 H 0.591978 0.084714 0.864601 3.0000 Uiso
H3_4 H 0.462524 0.180041 0.78597 3.0000 Uiso
N3_4 N 0.835768 0.099266 0.858754 3.0000 Uiso
N4_4 N 0.933707 0.009640 0.791697 3.0000 Uiso
C4_4 C 0.908188 0.042026 0.870183 3.0000 Uiso
C5_4 C 0.816528 0.102255 0.773204 3.0000 Uiso
C6_4 C 0.877058 0.046863 0.731761 3.0000 Uiso
H4_4 H 0.940327 0.024997 0.931796 3.0000 Uiso
H5_4 H 0.761869 0.142259 0.742982 3.0000 Uiso
H6_4 H 0.879717 0.034414 0.662293 3.0000 Uiso
N5_4 N 0.835617 0.308480 0.916652 3.0000 Uiso
N6_4 N 0.927001 0.388445 0.832798 3.0000 Uiso
C7_4 C 0.862771 0.320897 0.833794 3.0000 Uiso
C8_4 C 0.883066 0.368353 0.966866 3.0000 Uiso
C9_4 C 0.939545 0.417775 0.915041 3.0000 Uiso
H7_4 H 0.837364 0.28312 0.777699 3.0000 Uiso
H9_4 H 0.98684 0.471737 0.935884 3.0000 Uiso
N9_4 N 0.566293 0.509640 0.791697 3.0000 Uiso
N10_4 N 0.427001 0.388445 0.667202 3.0000 Uiso
H3_5 H 0.037476 0.680041 0.78597 3.0000 Uiso
N11_3 N 0.125397 0.935596 0.864261 3.0000 Uiso
H8_5 H 0.623121 0.875515 0.036785 3.0000 Uiso
N7_5 N 0.717550 0.632592 0.043919 3.0000 Uiso
N8_3 N 0.625397 0.564404 0.135739 3.0000 Uiso
C10_5 C 0.629286 0.626467 0.070351 3.0000 Uiso
C11_5 C 0.768210 0.574314 0.092972 3.0000 Uiso
C12_5 C 0.711256 0.532172 0.149720 3.0000 Uiso
H10_5 H 0.571471 0.664798 0.043656 3.0000 Uiso
H11_5 H 0.84195 0.563258 0.087699 3.0000 Uiso
H12_4 H 0.731064 0.481209 0.198185 3.0000 Uiso
Zn1_5 Zn 0.72867 0.6889 0.9321 3.0000 Uiso
N1_5 N 0.858838 0.720342 0.905166 3.0000 Uiso
N2_5 N 0.966421 0.799565 0.839819 3.0000 Uiso
C1_5 C 0.890582 0.806740 0.889805 3.0000 Uiso
C2_5 C 0.915059 0.65977 0.864674 3.0000 Uiso
C3_5 C 0.981549 0.708732 0.824287 3.0000 Uiso
H1_5 H 0.860367 0.870859 0.913530 3.0000 Uiso
H2_5 H 0.908022 0.584714 0.864601 3.0000 Uiso
N3_5 N 0.664232 0.599266 0.858754 3.0000 Uiso
C4_5 C 0.591812 0.542026 0.870183 3.0000 Uiso
C5_5 C 0.683472 0.602255 0.773204 3.0000 Uiso
C6_5 C 0.622942 0.546863 0.731761 3.0000 Uiso
H4_5 H 0.559673 0.524997 0.931796 3.0000 Uiso
H5_5 H 0.738131 0.642259 0.742982 3.0000 Uiso
H6_5 H 0.620283 0.534414 0.662293 3.0000 Uiso
N5_5 N 0.664383 0.808480 0.916652 3.0000 Uiso
C7_5 C 0.637229 0.820897 0.833794 3.0000 Uiso
C8_5 C 0.616934 0.868353 0.966866 3.0000 Uiso
C9_5 C 0.560455 0.917775 0.915041 3.0000 Uiso
H7_5 H 0.662636 0.78312 0.777699 3.0000 Uiso
H9_5 H 0.51316 0.971737 0.935884 3.0000 Uiso
Zn1_6 Zn 0.27133 0.1889 0.5679 3.0000 Uiso
N1_6 N 0.141162 0.220342 0.594834 3.0000 Uiso
N2_6 N 0.033579 0.299565 0.660181 3.0000 Uiso
C1_6 C 0.109418 0.306740 0.610195 3.0000 Uiso
C2_6 C 0.084941 0.15977 0.635326 3.0000 Uiso
C3_6 C 0.018451 0.208732 0.675713 3.0000 Uiso
H1_6 H 0.139633 0.370859 0.586470 3.0000 Uiso
H2_6 H 0.091978 0.084714 0.635399 3.0000 Uiso
N3_6 N 0.335768 0.099266 0.641246 3.0000 Uiso
C4_6 C 0.408188 0.042026 0.629817 3.0000 Uiso
C5_6 C 0.316528 0.102255 0.726796 3.0000 Uiso
C6_6 C 0.377058 0.046863 0.768239 3.0000 Uiso
H4_6 H 0.440327 0.024997 0.568204 3.0000 Uiso
H5_6 H 0.261869 0.142259 0.757018 3.0000 Uiso
H6_6 H 0.379717 0.034414 0.837707 3.0000 Uiso
N5_6 N 0.335617 0.308480 0.583348 3.0000 Uiso
C7_6 C 0.362771 0.320897 0.666206 3.0000 Uiso
C8_6 C 0.383066 0.368353 0.533134 3.0000 Uiso
C9_6 C 0.439545 0.417775 0.584959 3.0000 Uiso
H7_6 H 0.337364 0.28312 0.722301 3.0000 Uiso
H8_6 H 0.376879 0.375515 0.463215 3.0000 Uiso
H9_6 H 0.48684 0.471737 0.564116 3.0000 Uiso
N7_6 N 0.282450 0.132592 0.456081 3.0000 Uiso
N8_4 N 0.374603 0.064404 0.364261 3.0000 Uiso
C10_6 C 0.370714 0.126467 0.429649 3.0000 Uiso
C11_6 C 0.231790 0.074314 0.407028 3.0000 Uiso
C12_6 C 0.288744 0.032172 0.350280 3.0000 Uiso
H10_6 H 0.428529 0.164798 0.456344 3.0000 Uiso
H11_6 H 0.15805 0.063258 0.412301 3.0000 Uiso
H12_5 H 0.268936 0.981209 0.301815 3.0000 Uiso
H3_6 H 0.962524 0.180041 0.71403 3.0000 Uiso
N11_4 N 0.874603 0.435596 0.635739 3.0000 Uiso
Zn1_7 Zn 0.77133 0.3111 0.4321 3.0000 Uiso
N1_7 N 0.641162 0.279658 0.405166 3.0000 Uiso
N2_7 N 0.533579 0.200435 0.339819 3.0000 Uiso
C1_7 C 0.609418 0.193260 0.389805 3.0000 Uiso
C2_7 C 0.584941 0.34023 0.364674 3.0000 Uiso
C3_7 C 0.518451 0.291268 0.324287 3.0000 Uiso
H1_7 H 0.639633 0.129141 0.413530 3.0000 Uiso
H2_7 H 0.591978 0.415286 0.364601 3.0000 Uiso
H3_7 H 0.462524 0.319959 0.28597 3.0000 Uiso
N3_7 N 0.835768 0.400734 0.358754 3.0000 Uiso
C4_7 C 0.908188 0.457974 0.370183 3.0000 Uiso
C5_7 C 0.816528 0.397745 0.273204 3.0000 Uiso
C6_7 C 0.877058 0.453137 0.231761 3.0000 Uiso
H4_7 H 0.940327 0.475003 0.431796 3.0000 Uiso
H5_7 H 0.761869 0.357741 0.242982 3.0000 Uiso
H6_7 H 0.879717 0.465586 0.162293 3.0000 Uiso
N5_7 N 0.835617 0.191520 0.416652 3.0000 Uiso
C7_7 C 0.862771 0.179103 0.333794 3.0000 Uiso
C8_7 C 0.883066 0.131647 0.466866 3.0000 Uiso
C9_7 C 0.939545 0.082225 0.415041 3.0000 Uiso
H7_7 H 0.837364 0.21688 0.277699 3.0000 Uiso
H8_7 H 0.876879 0.124485 0.536785 3.0000 Uiso
H9_7 H 0.98684 0.028263 0.435884 3.0000 Uiso
N7_7 N 0.782450 0.367408 0.543919 3.0000 Uiso
C10_7 C 0.870714 0.373533 0.570351 3.0000 Uiso
C11_7 C 0.731790 0.425686 0.592972 3.0000 Uiso
C12_7 C 0.788744 0.467828 0.649720 3.0000 Uiso
H10_7 H 0.928529 0.335202 0.543656 3.0000 Uiso
H11_7 H 0.65805 0.436742 0.587699 3.0000 Uiso
H12_6 H 0.768936 0.518791 0.698185 3.0000 Uiso
Zn1_8 Zn 0.22867 0.8111 0.0679 3.0000 Uiso
N1_8 N 0.358838 0.779658 0.094834 3.0000 Uiso
N2_8 N 0.466421 0.700435 0.160181 3.0000 Uiso
C1_8 C 0.390582 0.693260 0.110195 3.0000 Uiso
C2_8 C 0.415059 0.84023 0.135326 3.0000 Uiso
C3_8 C 0.481549 0.791268 0.175713 3.0000 Uiso
H1_8 H 0.360367 0.629141 0.086470 3.0000 Uiso
H2_8 H 0.408022 0.915286 0.135399 3.0000 Uiso
H3_8 H 0.537476 0.819959 0.21403 3.0000 Uiso
N3_8 N 0.164232 0.900734 0.141246 3.0000 Uiso
C4_8 C 0.091812 0.957974 0.129817 3.0000 Uiso
C5_8 C 0.183472 0.897745 0.226796 3.0000 Uiso
C6_8 C 0.122942 0.953137 0.268239 3.0000 Uiso
H4_8 H 0.059673 0.975003 0.068204 3.0000 Uiso
H5_8 H 0.238131 0.857741 0.257018 3.0000 Uiso
H6_8 H 0.120283 0.965586 0.337707 3.0000 Uiso
N5_8 N 0.164383 0.691520 0.083348 3.0000 Uiso
C7_8 C 0.137229 0.679103 0.166206 3.0000 Uiso
C8_8 C 0.116934 0.631647 0.033134 3.0000 Uiso
C9_8 C 0.060455 0.582225 0.084959 3.0000 Uiso
H7_8 H 0.162636 0.71688 0.222301 3.0000 Uiso
H9_8 H 0.01316 0.528263 0.064116 3.0000 Uiso
H8_8 H 0.123121 0.624485 0.963215 3.0000 Uiso
N7_8 N 0.217550 0.867408 0.956081 3.0000 Uiso
C10_8 C 0.129286 0.873533 0.929649 3.0000 Uiso
C11_8 C 0.268210 0.925686 0.907028 3.0000 Uiso
C12_8 C 0.211256 0.967828 0.850280 3.0000 Uiso
H10_8 H 0.071471 0.835202 0.956344 3.0000 Uiso
H11_8 H 0.34195 0.936742 0.912301 3.0000 Uiso
H12_7 H 0.768936 0.981209 0.198185 3.0000 Uiso
H12_8 H 0.231064 0.018791 0.801815 3.0000 Uiso
loop_
_geom_bond_atom_site_label_1
_geom_bond_atom_site_label_2
_geom_bond_site_symmetry_1
_geom_bond_site_symmetry_2
Zn1 N1 1_555 1_555
N1 C1 1_555 1_555
N2 C1 1_555 1_555
C1 H1 1_555 1_555
C2 N1 1_555 1_555
C3 N2 1_555 1_555
H2 C2 1_555 1_555
N3 Zn1 1_555 1_555
N4 C4 1_555 1_555
C4 N3 1_555 1_555
C5 N3 1_555 1_555
C6 N4 1_555 1_555
H4 C4 1_555 1_555
H5 C5 1_555 1_555
H6 C6 1_555 1_555
N5 Zn1 1_555 1_555
N6 C7 1_555 1_555
C7 N5 1_555 1_555
C8 N5 1_555 1_555
C9 N6 1_555 1_555
H7 C7 1_555 1_555
H9 C9 1_555 1_555
Zn3 N4 1_555 1_555
Zn5 N6 1_555 1_555
C2 C3 1_555 1_555
C5 C6 1_555 1_555
C8 C9 1_555 1_555
N8 C10 1_555 1_555
C10 N7 1_555 1_555
C11 N7 1_555 1_555
C12 N8 1_555 1_555
H10 C10 1_555 1_555
H11 C11 1_555 1_555
H12 C12 1_555 1_555
Zn4 N8 1_555 1_555
C11 C12 1_555 1_555
N10 Zn2 1_555 1_555
N11 Zn2 1_555 1_555
N10_2 Zn2_2 1_555 1_555
N11_2 Zn2_2 1_555 1_555
Zn1_2 N1_2 1_555 1_555
N1_2 C1_2 1_555 1_555
N2_2 C1_2 1_555 1_555
C1_2 H1_2 1_555 1_555
C2_2 N1_2 1_555 1_555
C3_2 N2_2 1_555 1_555
H2_2 C2_2 1_555 1_555
N3_2 Zn1_2 1_555 1_555
N4_2 C4_2 1_555 1_555
C4_2 N3_2 1_555 1_555
C5_2 N3_2 1_555 1_555
C6_2 N4_2 1_555 1_555
H4_2 C4_2 1_555 1_555
H5_2 C5_2 1_555 1_555
H6_2 C6_2 1_555 1_555
N5_2 Zn1_2 1_555 1_555
N6_2 C7_2 1_555 1_555
C7_2 N5_2 1_555 1_555
C8_2 N5_2 1_555 1_555
C9_2 N6_2 1_555 1_555
H7_2 C7_2 1_555 1_555
H8_2 C8_2 1_555 1_555
H9_2 C9_2 1_555 1_555
N7_2 Zn1_2 1_555 1_555
N8_2 C10_2 1_555 1_555
C10_2 N7_2 1_555 1_555
C11_2 N7_2 1_555 1_555
C12_2 N8_2 1_555 1_555
H10_2 C10_2 1_555 1_555
H11_2 C11_2 1_555 1_555
Zn4_2 N8_2 1_555 1_555
Zn3 N6_2 1_555 1_555
C2_2 C3_2 1_555 1_555
C5_2 C6_2 1_555 1_555
C8_2 C9_2 1_555 1_555
C11_2 C12_2 1_555 1_555
Zn1_3 N1_3 1_555 1_555
Zn4_2 N2_3 1_555 1_555
N1_3 C1_3 1_555 1_555
N2_3 C1_3 1_555 1_555
C1_3 H1_3 1_555 1_555
C2_3 N1_3 1_555 1_555
C3_3 N2_3 1_555 1_555
H2_3 C2_3 1_555 1_555
H3_3 C3_3 1_555 1_555
N3_3 Zn1_3 1_555 1_555
N4_3 C4_3 1_555 1_555
C4_3 N3_3 1_555 1_555
C5_3 N3_3 1_555 1_555
C6_3 N4_3 1_555 1_555
H4_3 C4_3 1_555 1_555
H5_3 C5_3 1_555 1_555
H6_3 C6_3 1_555 1_555
N5_3 Zn1_3 1_555 1_555
N6_3 C7_3 1_555 1_555
C7_3 N5_3 1_555 1_555
C8_3 N5_3 1_555 1_555
C9_3 N6_3 1_555 1_555
H7_3 C7_3 1_555 1_555
H8_3 C8_3 1_555 1_555
H9_3 C9_3 1_555 1_555
N7_3 Zn1_3 1_555 1_555
N11_2 C10_3 1_555 1_555
C10_3 N7_3 1_555 1_555
C11_3 N7_3 1_555 1_555
C12_3 N11_2 1_555 1_555
H10_3 C10_3 1_555 1_555
H11_3 C11_3 1_555 1_555
H12_3 C12_3 1_555 1_555
Zn5_2 N6_3 1_555 1_555
N10_3 Zn4_2 1_555 1_555
C2_3 C3_3 1_555 1_555
C5_3 C6_3 1_555 1_555
C8_3 C9_3 1_555 1_555
C11_3 C12_3 1_555 1_555
N11 C10_4 1_555 1_555
C10_4 N7_4 1_555 1_555
C11_4 N7_4 1_555 1_555
C12_4 N11 1_555 1_555
H10_4 C10_4 1_555 1_555
H11_4 C11_4 1_555 1_555
C11_4 C12_4 1_555 1_555
Zn1_4 N1_4 1_555 1_555
Zn4 N2_4 1_555 1_555
N1_4 C1_4 1_555 1_555
N2_4 C1_4 1_555 1_555
C1_4 H1_4 1_555 1_555
C2_4 N1_4 1_555 1_555
C3_4 N2_4 1_555 1_555
H2_4 C2_4 1_555 1_555
H3_4 C3_4 1_555 1_555
N3_4 Zn1_4 1_555 1_555
N4_4 C4_4 1_555 1_555
C4_4 N3_4 1_555 1_555
C5_4 N3_4 1_555 1_555
C6_4 N4_4 1_555 1_555
H4_4 C4_4 1_555 1_555
H5_4 C5_4 1_555 1_555
H6_4 C6_4 1_555 1_555
N5_4 Zn1_4 1_555 1_555
N6_4 C7_4 1_555 1_555
C7_4 N5_4 1_555 1_555
C8_4 N5_4 1_555 1_555
C9_4 N6_4 1_555 1_555
H7_4 C7_4 1_555 1_555
H9_4 C9_4 1_555 1_555
Zn3_2 N6_4 1_555 1_555
N9_4 Zn4 1_555 1_555
N10_4 Zn4 1_555 1_555
C2_4 C3_4 1_555 1_555
C5_4 C6_4 1_555 1_555
C8_4 C9_4 1_555 1_555
N11_3 Zn5_2 1_555 1_555
N8_3 C10_5 1_555 1_555
C10_5 N7_5 1_555 1_555
C11_5 N7_5 1_555 1_555
C12_5 N8_3 1_555 1_555
H10_5 C10_5 1_555 1_555
H11_5 C11_5 1_555 1_555
H12_4 C12_5 1_555 1_555
Zn3 N8_3 1_555 1_555
C11_5 C12_5 1_555 1_555
Zn1_5 N1_5 1_555 1_555
N1_5 C1_5 1_555 1_555
N2_5 C1_5 1_555 1_555
C1_5 H1_5 1_555 1_555
C2_5 N1_5 1_555 1_555
C3_5 N2_5 1_555 1_555
H2_5 C2_5 1_555 1_555
N3_5 Zn1_5 1_555 1_555
N9_4 C4_5 1_555 1_555
C4_5 N3_5 1_555 1_555
C5_5 N3_5 1_555 1_555
C6_5 N9_4 1_555 1_555
H4_5 C4_5 1_555 1_555
H5_5 C5_5 1_555 1_555
H6_5 C6_5 1_555 1_555
N5_5 Zn1_5 1_555 1_555
N10_3 C7_5 1_555 1_555
C7_5 N5_5 1_555 1_555
C8_5 N5_5 1_555 1_555
C9_5 N10_3 1_555 1_555
H7_5 C7_5 1_555 1_555
H9_5 C9_5 1_555 1_555
C2_5 C3_5 1_555 1_555
C5_5 C6_5 1_555 1_555
C8_5 C9_5 1_555 1_555
Zn1_6 N1_6 1_555 1_555
N1_6 C1_6 1_555 1_555
N2_6 C1_6 1_555 1_555
C1_6 H1_6 1_555 1_555
C2_6 N1_6 1_555 1_555
C3_6 N2_6 1_555 1_555
H2_6 C2_6 1_555 1_555
N3_6 Zn1_6 1_555 1_555
N9_3 C4_6 1_555 1_555
C4_6 N3_6 1_555 1_555
C5_6 N3_6 1_555 1_555
C6_6 N9_3 1_555 1_555
H4_6 C4_6 1_555 1_555
H5_6 C5_6 1_555 1_555
H6_6 C6_6 1_555 1_555
N5_6 Zn1_6 1_555 1_555
N10_4 C7_6 1_555 1_555
C7_6 N5_6 1_555 1_555
C8_6 N5_6 1_555 1_555
C9_6 N10_4 1_555 1_555
H7_6 C7_6 1_555 1_555
H8_6 C8_6 1_555 1_555
H9_6 C9_6 1_555 1_555
N7_6 Zn1_6 1_555 1_555
N8_4 C10_6 1_555 1_555
C10_6 N7_6 1_555 1_555
C11_6 N7_6 1_555 1_555
C12_6 N8_4 1_555 1_555
H10_6 C10_6 1_555 1_555
H11_6 C11_6 1_555 1_555
Zn5 N8_4 1_555 1_555
C2_6 C3_6 1_555 1_555
C5_6 C6_6 1_555 1_555
C8_6 C9_6 1_555 1_555
C11_6 C12_6 1_555 1_555
N11_4 Zn3_2 1_555 1_555
Zn1_7 N1_7 1_555 1_555
Zn5 N2_7 1_555 1_555
N1_7 C1_7 1_555 1_555
N2_7 C1_7 1_555 1_555
C1_7 H1_7 1_555 1_555
C2_7 N1_7 1_555 1_555
C3_7 N2_7 1_555 1_555
H2_7 C2_7 1_555 1_555
H3_7 C3_7 1_555 1_555
N3_7 Zn1_7 1_555 1_555
N9_2 C4_7 1_555 1_555
C4_7 N3_7 1_555 1_555
C5_7 N3_7 1_555 1_555
C6_7 N9_2 1_555 1_555
H4_7 C4_7 1_555 1_555
H5_7 C5_7 1_555 1_555
H6_7 C6_7 1_555 1_555
N5_7 Zn1_7 1_555 1_555
N10 C7_7 1_555 1_555
C7_7 N5_7 1_555 1_555
C8_7 N5_7 1_555 1_555
C9_7 N10 1_555 1_555
H7_7 C7_7 1_555 1_555
H8_7 C8_7 1_555 1_555
H9_7 C9_7 1_555 1_555
N7_7 Zn1_7 1_555 1_555
N11_4 C10_7 1_555 1_555
C10_7 N7_7 1_555 1_555
C11_7 N7_7 1_555 1_555
C12_7 N11_4 1_555 1_555
H10_7 C10_7 1_555 1_555
H11_7 C11_7 1_555 1_555
H12_6 C12_7 1_555 1_555
C2_7 C3_7 1_555 1_555
C5_7 C6_7 1_555 1_555
C8_7 C9_7 1_555 1_555
C11_7 C12_7 1_555 1_555
Zn1_8 N1_8 1_555 1_555
Zn3 N2_8 1_555 1_555
N1_8 C1_8 1_555 1_555
N2_8 C1_8 1_555 1_555
C1_8 H1_8 1_555 1_555
C2_8 N1_8 1_555 1_555
C3_8 N2_8 1_555 1_555
H2_8 C2_8 1_555 1_555
H3_8 C3_8 1_555 1_555
N3_8 Zn1_8 1_555 1_555
N9 C4_8 1_555 1_555
C4_8 N3_8 1_555 1_555
C5_8 N3_8 1_555 1_555
C6_8 N9 1_555 1_555
H4_8 C4_8 1_555 1_555
H5_8 C5_8 1_555 1_555
H6_8 C6_8 1_555 1_555
N5_8 Zn1_8 1_555 1_555
N10_2 C7_8 1_555 1_555
C7_8 N5_8 1_555 1_555
C8_8 N5_8 1_555 1_555
C9_8 N10_2 1_555 1_555
H7_8 C7_8 1_555 1_555
H9_8 C9_8 1_555 1_555
C2_8 C3_8 1_555 1_555
C5_8 C6_8 1_555 1_555
C8_8 C9_8 1_555 1_555
N11_3 C10_8 1_555 1_555
C10_8 N7_8 1_555 1_555
C11_8 N7_8 1_555 1_555
C12_8 N11_3 1_555 1_555
H10_8 C10_8 1_555 1_555
H11_8 C11_8 1_555 1_555
C11_8 C12_8 1_555 1_555

#END
