
###############################################################################
#
# This file contains modified crystal structure data generated from the
# MOF subset of the Cambridge Structural Database (CSD) v543 
# hosted by the Cambridge Crystallographic Data Centre (CCDC).
#
# This work is licensed under the Creative Commons
# Attribution-NonCommercial-ShareAlike 4.0 International License.
# To view a copy of this license, visit
# http://creativecommons.org/licenses/by-nc-sa/4.0/
# or send a letter to
# Creative Commons, PO Box 1866, Mountain View, CA 94042, USA.
#
# CIF created using the CSD Python API on 29 September 2022
# The structure has been converted into the P1 space group
# The structure has a 3D framework
# The original CSD entry IMIRUS is in the tetragonal crystal system
# The framework has been calculated to contain at least 10.0% void space
# The void calculation uses a probe of radius 1.32A, grid spacing 0.4
#
###############################################################################

data_IMIRUS
_chemical_formula_moiety         '(C40 H40 Br8 Cu8 N24)n'
_symmetry_cell_setting           triclinic
_symmetry_space_group_name_H-M   'P 1'
_symmetry_Int_Tables_number      1
_space_group_name_Hall           'P 1'
loop_
_symmetry_equiv_pos_site_id
_symmetry_equiv_pos_as_xyz
1 x,y,z
_cell_length_a                   13.2978(19)
_cell_length_b                   13.2978(19)
_cell_length_c                   9.944(2)
_cell_angle_alpha                90
_cell_angle_beta                 90
_cell_angle_gamma                90
_cell_volume                     1758.41
loop_
_atom_site_label
_atom_site_type_symbol
_atom_site_fract_x
_atom_site_fract_y
_atom_site_fract_z
Cu6 Cu 0.39995(5) 0.54625(5) 0.09502(8)
Cu7 Cu 0.04625(5) 0.10005(5) 0.40498(8)
N5 N 0.2723(3) 0.6183(3) 0.1502(5)
N6 N 0.1183(3) 0.2277(3) 0.3498(5)
N11 N 0.1468(3) 0.7356(3) 0.0741(5)
N12 N 0.2356(3) 0.3532(3) 0.4259(5)
N14 N 0.2418(3) 0.5101(3) 0.3349(5)
N15 N 0.0101(3) 0.2582(3) 0.1651(5)
C7 C 0.2061(4) 0.5874(3) 0.2461(5)
C8 C 0.0874(3) 0.2939(4) 0.2539(5)
C10 C 0.2384(4) 0.6933(4) 0.0749(6)
C11 C 0.1933(4) 0.2616(4) 0.4251(6)
H6 H 0.2208 0.2146 0.4870
H7 H 0.2854 0.7208 0.0130
C12 C 0.0823(3) 0.7003(3) 0.1678(5)
C13 C 0.2003(3) 0.4177(3) 0.3322(5)
C15 C 0.1248(3) 0.3895(3) 0.2412(5)
C16 C 0.1105(3) 0.6248(3) 0.2588(5)
H9 H 0.1008 0.4344 0.1741
H10 H 0.0656 0.6008 0.3259
C18 C 0.0351(4) 0.1745(4) 0.0776(6)
C19 C 0.3255(4) 0.5351(4) 0.4224(6)
H13 H 0.3822 0.4903 0.4031
H14 H 0.0097 0.8822 0.0969
H15 H 0.1050 0.1543 0.0932
H16 H 0.3457 0.6050 0.4068
H19 H 0.3050 0.5269 0.5164
H18 H 0.0269 0.1950 0.9836
Cu1 Cu 0.60005(5) 0.45375(5) 0.09502(8)
Br1 Br 0.56108(4) 0.62958(3) 0.16390(5)
N1 N 0.7277(3) 0.3817(3) 0.1502(5)
N2 N 0.8532(3) 0.2644(3) 0.0741(5)
N3 N 0.7582(3) 0.4899(3) 0.3349(5)
C1 C 0.7939(4) 0.4126(3) 0.2461(5)
C2 C 0.7616(4) 0.3067(4) 0.0749(6)
H1 H 0.7146 0.2792 0.0130
C3 C 0.7997(3) 0.5823(3) 0.3322(5)
C4 C 0.8895(3) 0.3752(3) 0.2588(5)
H2 H 0.9344 0.3992 0.3259
C5 C 0.6745(4) 0.4649(4) 0.4224(6)
H3 H 0.6178 0.5097 0.4031
H4 H 0.6543 0.3950 0.4068
H5 H 0.6950 0.4731 0.5164
Cu5 Cu 0.95375(5) 0.89995(5) 0.40498(8)
Br2 Br 0.43892(4) 0.37042(3) 0.16390(5)
N4 N 0.8817(3) 0.7723(3) 0.3498(5)
N10 N 0.7644(3) 0.6468(3) 0.4259(5)
N13 N 0.9899(3) 0.7418(3) 0.1651(5)
C6 C 0.9126(3) 0.7061(4) 0.2539(5)
C9 C 0.8067(4) 0.7384(4) 0.4251(6)
H8 H 0.7792 0.7854 0.4870
C14 C 0.9177(3) 0.2997(3) 0.1678(5)
C17 C 0.8752(3) 0.6105(3) 0.2412(5)
H11 H 0.8992 0.5656 0.1741
C20 C 0.9649(4) 0.8255(4) 0.0776(6)
H12 H 0.9903 0.1178 0.0969
H17 H 0.8950 0.8457 0.0932
Cu3 Cu 0.45375(5) 0.39995(5) 0.90498(8)
Cu4 Cu 0.54625(5) 0.60005(5) 0.90498(8)
Br3 Br 0.62958(3) 0.43892(4) 0.83610(5)
Br4 Br 0.37042(3) 0.56108(4) 0.83610(5)
N8 N 0.3817(3) 0.2723(3) 0.8498(5)
N9 N 0.6183(3) 0.7277(3) 0.8498(5)
H20 H 0.9731 0.8050 0.9836
H20_2 H 0.8050 0.0269 0.0164
N2_2 N 0.2644(3) 0.1468(3) 0.9259(5)
N3_2 N 0.4899(3) 0.2418(3) 0.6651(5)
C1_2 C 0.4126(3) 0.2061(4) 0.7539(5)
C2_2 C 0.3067(4) 0.2384(4) 0.9251(6)
H1_2 H 0.2792 0.2854 0.9870
C3_2 C 0.5823(3) 0.2003(3) 0.6678(5)
C4_2 C 0.3752(3) 0.1105(3) 0.7412(5)
H2_2 H 0.3992 0.0656 0.6741
C5_2 C 0.4649(4) 0.3255(4) 0.5776(6)
H3_2 H 0.5097 0.3822 0.5969
H4_2 H 0.3950 0.3457 0.5932
H5_2 H 0.4731 0.3050 0.4836
Cu5_2 Cu 0.89995(5) 0.04625(5) 0.59502(8)
N4_2 N 0.7723(3) 0.1183(3) 0.6502(5)
N10_2 N 0.6468(3) 0.2356(3) 0.5741(5)
N13_2 N 0.7418(3) 0.0101(3) 0.8349(5)
C6_2 C 0.7061(4) 0.0874(3) 0.7461(5)
C9_2 C 0.7384(4) 0.1933(4) 0.5749(6)
H8_2 H 0.7854 0.2208 0.5130
C14_2 C 0.2997(3) 0.0823(3) 0.8322(5)
C17_2 C 0.6105(3) 0.1248(3) 0.7588(5)
H11_2 H 0.5656 0.1008 0.8259
C20_2 C 0.8255(4) 0.0351(4) 0.9224(6)
H12_2 H 0.1178 0.0097 0.9031
H17_2 H 0.8457 0.1050 0.9068
H18_2 H 0.1950 0.9731 0.0164
Cu7_2 Cu 0.10005(5) 0.95375(5) 0.59502(8)
N6_2 N 0.2277(3) 0.8817(3) 0.6502(5)
N11_2 N 0.7356(3) 0.8532(3) 0.9259(5)
N12_2 N 0.3532(3) 0.7644(3) 0.5741(5)
N14_2 N 0.5101(3) 0.7582(3) 0.6651(5)
N15_2 N 0.2582(3) 0.9899(3) 0.8349(5)
C7_2 C 0.5874(3) 0.7939(4) 0.7539(5)
C8_2 C 0.2939(4) 0.9126(3) 0.7461(5)
C10_2 C 0.6933(4) 0.7616(4) 0.9251(6)
C11_2 C 0.2616(4) 0.8067(4) 0.5749(6)
H6_2 H 0.2146 0.7792 0.5130
H7_2 H 0.7208 0.7146 0.9870
C12_2 C 0.7003(3) 0.9177(3) 0.8322(5)
C13_2 C 0.4177(3) 0.7997(3) 0.6678(5)
C15_2 C 0.3895(3) 0.8752(3) 0.7588(5)
C16_2 C 0.6248(3) 0.8895(3) 0.7412(5)
H9_2 H 0.4344 0.8992 0.8259
H10_2 H 0.6008 0.9344 0.6741
C18_2 C 0.1745(4) 0.9649(4) 0.9224(6)
C19_2 C 0.5351(4) 0.6745(4) 0.5776(6)
H13_2 H 0.4903 0.6178 0.5969
H14_2 H 0.8822 0.9903 0.9031
H15_2 H 0.1543 0.8950 0.9068
H16_2 H 0.6050 0.6543 0.5932
H19_2 H 0.5269 0.6950 0.4836
Br1_2 Br 0.06108(4) 0.12958(3) 0.66390(5)
Br3_2 Br 0.12958(3) 0.93892(4) 0.33610(5)
Br4_2 Br 0.87042(3) 0.06108(4) 0.33610(5)
Br2_2 Br 0.93892(4) 0.87042(3) 0.66390(5)
loop_
_geom_bond_atom_site_label_1
_geom_bond_atom_site_label_2
_geom_bond_site_symmetry_1
_geom_bond_site_symmetry_2
Cu6 N5 1_555 1_555
Cu7 N6 1_555 1_555
N5 C7 1_555 1_555
N6 C8 1_555 1_555
N11 C10 1_555 1_555
N12 C11 1_555 1_555
N14 C7 1_555 1_555
N15 C8 1_555 1_555
C7 C16 1_555 1_555
C8 C15 1_555 1_555
C10 N5 1_555 1_555
C11 N6 1_555 1_555
H6 C11 1_555 1_555
H7 C10 1_555 1_555
C12 N11 1_555 1_555
C13 N12 1_555 1_555
C15 C13 1_555 1_555
C16 C12 1_555 1_555
H9 C15 1_555 1_555
H10 C16 1_555 1_555
C18 N15 1_555 1_555
C19 N14 1_555 1_555
H13 C19 1_555 1_555
H15 C18 1_555 1_555
H16 C19 1_555 1_555
H19 C19 1_555 1_555
N14 C13 1_555 1_555
Cu1 Br1 1_555 1_555
Br1 Cu6 1_555 1_555
N1 Cu1 1_555 1_555
N2 C2 1_555 1_555
N3 C1 1_555 1_555
C1 N1 1_555 1_555
C2 N1 1_555 1_555
H1 C2 1_555 1_555
C3 N3 1_555 1_555
C4 C1 1_555 1_555
H2 C4 1_555 1_555
C5 N3 1_555 1_555
H3 C5 1_555 1_555
H4 C5 1_555 1_555
H5 C5 1_555 1_555
Cu6 Cu1 1_555 1_555
Cu5 N4 1_555 1_555
Br2 Cu1 1_555 1_555
N4 C6 1_555 1_555
N10 C3 1_555 1_555
N13 C6 1_555 1_555
C6 C17 1_555 1_555
C9 N4 1_555 1_555
H8 C9 1_555 1_555
C14 N2 1_555 1_555
C17 C3 1_555 1_555
H11 C17 1_555 1_555
C20 N13 1_555 1_555
H17 C20 1_555 1_555
C4 C14 1_555 1_555
Cu6 Br2 1_555 1_555
N10 C9 1_555 1_555
N8 Cu3 1_555 1_555
N9 Cu4 1_555 1_555
Cu3 Cu4 1_555 1_555
Cu3 Br3 1_555 1_555
Cu3 Br4 1_555 1_555
Cu4 Br3 1_555 1_555
Cu4 Br4 1_555 1_555
N2_2 C2_2 1_555 1_555
N3_2 C1_2 1_555 1_555
C1_2 N8 1_555 1_555
C2_2 N8 1_555 1_555
H1_2 C2_2 1_555 1_555
C3_2 N3_2 1_555 1_555
C4_2 C1_2 1_555 1_555
H2_2 C4_2 1_555 1_555
C5_2 N3_2 1_555 1_555
H3_2 C5_2 1_555 1_555
H4_2 C5_2 1_555 1_555
H5_2 C5_2 1_555 1_555
Cu5_2 N4_2 1_555 1_555
N4_2 C6_2 1_555 1_555
N10_2 C3_2 1_555 1_555
N13_2 C6_2 1_555 1_555
C6_2 C17_2 1_555 1_555
C9_2 N4_2 1_555 1_555
H8_2 C9_2 1_555 1_555
C14_2 N2_2 1_555 1_555
C17_2 C3_2 1_555 1_555
H11_2 C17_2 1_555 1_555
C20_2 N13_2 1_555 1_555
H17_2 C20_2 1_555 1_555
C4_2 C14_2 1_555 1_555
N10_2 C9_2 1_555 1_555
Cu7_2 N6_2 1_555 1_555
N9 C7_2 1_555 1_555
N6_2 C8_2 1_555 1_555
N11_2 C10_2 1_555 1_555
N12_2 C11_2 1_555 1_555
N14_2 C7_2 1_555 1_555
N15_2 C8_2 1_555 1_555
C7_2 C16_2 1_555 1_555
C8_2 C15_2 1_555 1_555
C10_2 N9 1_555 1_555
C11_2 N6_2 1_555 1_555
H6_2 C11_2 1_555 1_555
H7_2 C10_2 1_555 1_555
C12_2 N11_2 1_555 1_555
C13_2 N12_2 1_555 1_555
C15_2 C13_2 1_555 1_555
C16_2 C12_2 1_555 1_555
H9_2 C15_2 1_555 1_555
H10_2 C16_2 1_555 1_555
C18_2 N15_2 1_555 1_555
C19_2 N14_2 1_555 1_555
H13_2 C19_2 1_555 1_555
H15_2 C18_2 1_555 1_555
H16_2 C19_2 1_555 1_555
H19_2 C19_2 1_555 1_555
N14_2 C13_2 1_555 1_555
Br1_2 Cu7 1_555 1_555
Br3_2 Cu7_2 1_555 1_555
Br4_2 Cu5_2 1_555 1_555
Cu5 Br2_2 1_555 1_555

#END
