
###############################################################################
#
# This file contains modified crystal structure data generated from the
# MOF subset of the Cambridge Structural Database (CSD) v543 
# hosted by the Cambridge Crystallographic Data Centre (CCDC).
#
# This work is licensed under the Creative Commons
# Attribution-NonCommercial-ShareAlike 4.0 International License.
# To view a copy of this license, visit
# http://creativecommons.org/licenses/by-nc-sa/4.0/
# or send a letter to
# Creative Commons, PO Box 1866, Mountain View, CA 94042, USA.
#
# CIF created using the CSD Python API on 29 September 2022
# The structure has been converted into the P1 space group
# The structure has a 3D framework
# The original CSD entry IMISON is in the tetragonal crystal system
# The framework has been calculated to contain at least 10.0% void space
# The void calculation uses a probe of radius 1.32A, grid spacing 0.4
#
###############################################################################

data_IMISON
_chemical_formula_moiety         '(C40 H40 Cu8 I8 N24)n'
_symmetry_cell_setting           triclinic
_symmetry_space_group_name_H-M   'P 1'
_symmetry_Int_Tables_number      1
_space_group_name_Hall           'P 1'
loop_
_symmetry_equiv_pos_site_id
_symmetry_equiv_pos_as_xyz
1 x,y,z
_cell_length_a                   12.6690(18)
_cell_length_b                   12.6690(18)
_cell_length_c                   11.982(2)
_cell_angle_alpha                90
_cell_angle_beta                 90
_cell_angle_gamma                90
_cell_volume                     1923.15
loop_
_atom_site_label
_atom_site_type_symbol
_atom_site_fract_x
_atom_site_fract_y
_atom_site_fract_z
Cu6 Cu 0.45352(5) 0.40089(5) 0.91996(6)
Cu7 Cu 0.90089(5) 0.04648(5) 0.58004(6)
N5 N 0.3711(4) 0.2767(4) 0.8504(4)
N6 N 0.7767(4) 0.1289(4) 0.6496(4)
N10 N 0.2463(4) 0.1412(4) 0.8985(4)
N11 N 0.6412(4) 0.2537(4) 0.6015(4)
N14 N 0.4823(3) 0.2582(4) 0.6913(4)
N15 N 0.7582(4) 0.0177(3) 0.8087(4)
C7 C 0.4047(4) 0.2150(4) 0.7655(4)
C8 C 0.7150(4) 0.0953(4) 0.7345(4)
C9 C 0.6152(4) 0.1355(4) 0.7551(5)
C10 C 0.3645(4) 0.1152(4) 0.7449(5)
H6 H 0.5733 0.1108 0.8154
H7 H 0.3892 0.0733 0.6846
C12 C 0.2852(4) 0.0789(4) 0.8179(4)
C13 C 0.5789(4) 0.2148(4) 0.6821(4)
C16 C 0.2921(4) 0.2379(5) 0.9089(6)
C17 C 0.7379(5) 0.2079(4) 0.5911(6)
H9 H 0.7827 0.2362 0.5351
H10 H 0.2638 0.2827 0.9649
C18 C 0.8515(5) 0.0496(4) 0.8740(5)
C19 C 0.4504(4) 0.3515(5) 0.6260(5)
H13 H 0.5130 0.3843 0.5928
H14 H 0.1157 0.0130 0.9072
H15 H 0.8299 0.0983 0.9333
H16 H 0.4017 0.3299 0.5667
H18 H 0.9024 0.0848 0.8248
H19 H 0.4152 0.4024 0.6752
Cu3 Cu 0.40089(5) 0.54648(5) 0.08004(6)
Cu4 Cu 0.59911(5) 0.45352(5) 0.08004(6)
I3 I 0.57344(3) 0.65353(3) 0.13863(3)
I4 I 0.42656(3) 0.34647(3) 0.13863(3)
N8 N 0.2767(4) 0.6289(4) 0.1496(4)
N9 N 0.7233(4) 0.3711(4) 0.1496(4)
Cu1 Cu 0.54648(5) 0.59911(5) 0.91996(6)
I1 I 0.65353(3) 0.42656(3) 0.86137(3)
N1 N 0.6289(4) 0.7233(4) 0.8504(4)
N2 N 0.3588(4) 0.7463(4) 0.6015(4)
N3 N 0.5177(3) 0.7418(4) 0.6913(4)
C1 C 0.5953(4) 0.7850(4) 0.7655(4)
C2 C 0.6355(4) 0.8848(4) 0.7449(5)
H1 H 0.6108 0.9267 0.6846
C3 C 0.4211(4) 0.7852(4) 0.6821(4)
C4 C 0.7079(4) 0.7621(5) 0.9089(6)
H2 H 0.7362 0.7173 0.9649
C5 C 0.5496(4) 0.6485(5) 0.6260(5)
H3 H 0.4870 0.6157 0.5928
H4 H 0.5983 0.6701 0.5667
H5 H 0.5848 0.5976 0.6752
Cu5 Cu 0.09911(5) 0.95352(5) 0.58004(6)
I2 I 0.34647(3) 0.57344(3) 0.86137(3)
N4 N 0.2233(4) 0.8711(4) 0.6496(4)
N12 N 0.7537(4) 0.8588(4) 0.8985(4)
N13 N 0.2418(4) 0.9823(3) 0.8087(4)
C6 C 0.2850(4) 0.9047(4) 0.7345(4)
C11 C 0.3848(4) 0.8645(4) 0.7551(5)
H8 H 0.4267 0.8892 0.8154
C14 C 0.7148(4) 0.9211(4) 0.8179(4)
C15 C 0.2621(5) 0.7921(4) 0.5911(6)
H11 H 0.2173 0.7638 0.5351
C20 C 0.1485(5) 0.9504(4) 0.8740(5)
H12 H 0.8843 0.9870 0.9072
H17 H 0.1701 0.9017 0.9333
H20 H 0.0976 0.9152 0.8248
Cu7_2 Cu 0.04648(5) 0.09911(5) 0.41996(6)
N6_2 N 0.1289(4) 0.2233(4) 0.3504(4)
N10_2 N 0.1412(4) 0.7537(4) 0.1015(4)
N11_2 N 0.2537(4) 0.3588(4) 0.3985(4)
N14_2 N 0.2582(4) 0.5177(3) 0.3087(4)
N15_2 N 0.0177(3) 0.2418(4) 0.1913(4)
C7_2 C 0.2150(4) 0.5953(4) 0.2345(4)
C8_2 C 0.0953(4) 0.2850(4) 0.2655(4)
C9_2 C 0.1355(4) 0.3848(4) 0.2449(5)
C10_2 C 0.1152(4) 0.6355(4) 0.2551(5)
H6_2 H 0.1108 0.4267 0.1846
H7_2 H 0.0733 0.6108 0.3154
C12_2 C 0.0789(4) 0.7148(4) 0.1821(4)
C13_2 C 0.2148(4) 0.4211(4) 0.3179(4)
C16_2 C 0.2379(5) 0.7079(4) 0.0911(6)
C17_2 C 0.2079(4) 0.2621(5) 0.4089(6)
H9_2 H 0.2362 0.2173 0.4649
H10_2 H 0.2827 0.7362 0.0351
C18_2 C 0.0496(4) 0.1485(5) 0.1260(5)
C19_2 C 0.3515(5) 0.5496(4) 0.3740(5)
H13_2 H 0.3843 0.4870 0.4072
H14_2 H 0.0130 0.8843 0.0928
H15_2 H 0.0983 0.1701 0.0667
H16_2 H 0.3299 0.5983 0.4333
H18_2 H 0.0848 0.0976 0.1752
H19_2 H 0.4024 0.5848 0.3248
N2_2 N 0.7463(4) 0.6412(4) 0.3985(4)
N3_2 N 0.7418(4) 0.4823(3) 0.3087(4)
C1_2 C 0.7850(4) 0.4047(4) 0.2345(4)
C2_2 C 0.8848(4) 0.3645(4) 0.2551(5)
H1_2 H 0.9267 0.3892 0.3154
C3_2 C 0.7852(4) 0.5789(4) 0.3179(4)
C4_2 C 0.7621(5) 0.2921(4) 0.0911(6)
H2_2 H 0.7173 0.2638 0.0351
C5_2 C 0.6485(5) 0.4504(4) 0.3740(5)
H3_2 H 0.6157 0.5130 0.4072
H4_2 H 0.6701 0.4017 0.4333
H5_2 H 0.5976 0.4152 0.3248
Cu5_2 Cu 0.95352(5) 0.90089(5) 0.41996(6)
N4_2 N 0.8711(4) 0.7767(4) 0.3504(4)
N12_2 N 0.8588(4) 0.2463(4) 0.1015(4)
N13_2 N 0.9823(3) 0.7582(4) 0.1913(4)
C6_2 C 0.9047(4) 0.7150(4) 0.2655(4)
C11_2 C 0.8645(4) 0.6152(4) 0.2449(5)
H8_2 H 0.8892 0.5733 0.1846
C14_2 C 0.9211(4) 0.2852(4) 0.1821(4)
C15_2 C 0.7921(4) 0.7379(5) 0.4089(6)
H11_2 H 0.7638 0.7827 0.4649
C20_2 C 0.9504(4) 0.8515(5) 0.1260(5)
H12_2 H 0.9870 0.1157 0.0928
H17_2 H 0.9017 0.8299 0.0667
H20_2 H 0.9152 0.9024 0.1752
I3_2 I 0.07344(3) 0.15353(3) 0.63863(3)
I1_2 I 0.15353(3) 0.92656(3) 0.36137(3)
I2_2 I 0.84647(3) 0.07344(3) 0.36137(3)
I4_2 I 0.92656(3) 0.84647(3) 0.63863(3)
loop_
_geom_bond_atom_site_label_1
_geom_bond_atom_site_label_2
_geom_bond_site_symmetry_1
_geom_bond_site_symmetry_2
Cu6 N5 1_555 1_555
Cu7 N6 1_555 1_555
N5 C7 1_555 1_555
N6 C8 1_555 1_555
N10 C12 1_555 1_555
N11 C13 1_555 1_555
N14 C7 1_555 1_555
N15 C8 1_555 1_555
C7 C10 1_555 1_555
C8 C9 1_555 1_555
C9 H6 1_555 1_555
C10 H7 1_555 1_555
C13 N14 1_555 1_555
C16 N5 1_555 1_555
C17 N6 1_555 1_555
H9 C17 1_555 1_555
H10 C16 1_555 1_555
C18 N15 1_555 1_555
C19 N14 1_555 1_555
H13 C19 1_555 1_555
H15 C18 1_555 1_555
H16 C19 1_555 1_555
H18 C18 1_555 1_555
H19 C19 1_555 1_555
N10 C16 1_555 1_555
N11 C17 1_555 1_555
C9 C13 1_555 1_555
C10 C12 1_555 1_555
N8 Cu3 1_555 1_555
N9 Cu4 1_555 1_555
Cu3 Cu4 1_555 1_555
Cu3 I3 1_555 1_555
Cu3 I4 1_555 1_555
Cu4 I3 1_555 1_555
Cu4 I4 1_555 1_555
Cu1 I1 1_555 1_555
I1 Cu6 1_555 1_555
N1 Cu1 1_555 1_555
N2 C3 1_555 1_555
N3 C1 1_555 1_555
C1 N1 1_555 1_555
C2 C1 1_555 1_555
H1 C2 1_555 1_555
C3 N3 1_555 1_555
C4 N1 1_555 1_555
H2 C4 1_555 1_555
C5 N3 1_555 1_555
H3 C5 1_555 1_555
H4 C5 1_555 1_555
H5 C5 1_555 1_555
Cu6 Cu1 1_555 1_555
Cu5 N4 1_555 1_555
I2 Cu1 1_555 1_555
N4 C6 1_555 1_555
N12 C4 1_555 1_555
N13 C6 1_555 1_555
C6 C11 1_555 1_555
C11 C3 1_555 1_555
H8 C11 1_555 1_555
C14 C2 1_555 1_555
C15 N2 1_555 1_555
H11 C15 1_555 1_555
C20 N13 1_555 1_555
H17 C20 1_555 1_555
H20 C20 1_555 1_555
Cu6 I2 1_555 1_555
N4 C15 1_555 1_555
N12 C14 1_555 1_555
Cu7_2 N6_2 1_555 1_555
N8 C7_2 1_555 1_555
N6_2 C8_2 1_555 1_555
N10_2 C12_2 1_555 1_555
N11_2 C13_2 1_555 1_555
N14_2 C7_2 1_555 1_555
N15_2 C8_2 1_555 1_555
C7_2 C10_2 1_555 1_555
C8_2 C9_2 1_555 1_555
C9_2 H6_2 1_555 1_555
C10_2 H7_2 1_555 1_555
C13_2 N14_2 1_555 1_555
C16_2 N8 1_555 1_555
C17_2 N6_2 1_555 1_555
H9_2 C17_2 1_555 1_555
H10_2 C16_2 1_555 1_555
C18_2 N15_2 1_555 1_555
C19_2 N14_2 1_555 1_555
H13_2 C19_2 1_555 1_555
H15_2 C18_2 1_555 1_555
H16_2 C19_2 1_555 1_555
H18_2 C18_2 1_555 1_555
H19_2 C19_2 1_555 1_555
N10_2 C16_2 1_555 1_555
N11_2 C17_2 1_555 1_555
C9_2 C13_2 1_555 1_555
C10_2 C12_2 1_555 1_555
N2_2 C3_2 1_555 1_555
N3_2 C1_2 1_555 1_555
C1_2 N9 1_555 1_555
C2_2 C1_2 1_555 1_555
H1_2 C2_2 1_555 1_555
C3_2 N3_2 1_555 1_555
C4_2 N9 1_555 1_555
H2_2 C4_2 1_555 1_555
C5_2 N3_2 1_555 1_555
H3_2 C5_2 1_555 1_555
H4_2 C5_2 1_555 1_555
H5_2 C5_2 1_555 1_555
Cu5_2 N4_2 1_555 1_555
N4_2 C6_2 1_555 1_555
N12_2 C4_2 1_555 1_555
N13_2 C6_2 1_555 1_555
C6_2 C11_2 1_555 1_555
C11_2 C3_2 1_555 1_555
H8_2 C11_2 1_555 1_555
C14_2 C2_2 1_555 1_555
C15_2 N2_2 1_555 1_555
H11_2 C15_2 1_555 1_555
C20_2 N13_2 1_555 1_555
H17_2 C20_2 1_555 1_555
H20_2 C20_2 1_555 1_555
N4_2 C15_2 1_555 1_555
N12_2 C14_2 1_555 1_555
I3_2 Cu7_2 1_555 1_555
I1_2 Cu5 1_555 1_555
Cu7 I2_2 1_555 1_555
I4_2 Cu5_2 1_555 1_555

#END
