
###############################################################################
#
# This file contains modified crystal structure data generated from the
# MOF subset of the Cambridge Structural Database (CSD) v543 
# hosted by the Cambridge Crystallographic Data Centre (CCDC).
#
# This work is licensed under the Creative Commons
# Attribution-NonCommercial-ShareAlike 4.0 International License.
# To view a copy of this license, visit
# http://creativecommons.org/licenses/by-nc-sa/4.0/
# or send a letter to
# Creative Commons, PO Box 1866, Mountain View, CA 94042, USA.
#
# CIF created using the CSD Python API on 29 September 2022
# The structure has been converted into the P1 space group
# The structure has a 3D framework
# The original CSD entry IMIXIM is in the rhombohedral crystal system
# The framework has been calculated to contain at least 10.0% void space
# The void calculation uses a probe of radius 1.32A, grid spacing 0.4
# The framework is charged, counterions have been retained in the structure
#
###############################################################################

data_IMIXIM
_chemical_formula_moiety         '(C216 H216 Cu36 N108 O44 36+)n'
_symmetry_cell_setting           triclinic
_symmetry_space_group_name_H-M   'P 1'
_symmetry_Int_Tables_number      1
_space_group_name_Hall           'P 1'
loop_
_symmetry_equiv_pos_site_id
_symmetry_equiv_pos_as_xyz
1 x,y,z
_cell_length_a                   29.758(2)
_cell_length_b                   29.758(2)
_cell_length_c                   11.8240(12)
_cell_angle_alpha                90
_cell_angle_beta                 90
_cell_angle_gamma                120
_cell_volume                     9067.81
loop_
_atom_site_label
_atom_site_type_symbol
_atom_site_fract_x
_atom_site_fract_y
_atom_site_fract_z
O1 O 0.6667 0.3333 0.2281(6)
Cu1 Cu 0.63308(2) 0.26177(2) 0.19486(7)
Cu2 Cu 0.56532(2) 0.01104(2) 0.04201(5)
N1 N 0.61050(17) 0.18787(18) 0.1784(4)
C1 C 0.5617(2) 0.1482(2) 0.1606(6)
H1 H 0.5332 0.1541 0.163
C2 C 0.5533(2) 0.0983(2) 0.1386(6)
H2 H 0.519 0.0709 0.1246
N2 N 0.59179(17) 0.08832(16) 0.1369(4)
C3 C 0.6404(2) 0.1276(2) 0.1582(5)
H3 H 0.6684 0.1209 0.1592
C4 C 0.6500(2) 0.1779(2) 0.1788(5)
C5 C 0.7018(2) 0.2231(2) 0.1945(5)
C6 C 0.7489(2) 0.2168(2) 0.2029(5)
H4 H 0.754 0.2035 0.131
H5 H 0.7438 0.1922 0.2636
H6 H 0.7796 0.2504 0.2195
N3 N 0.70214(17) 0.26587(17) 0.2007(4)
O2 O 0.74622(16) 0.31065(14) 0.2148(4)
Cu3 Cu 0.73823(2) 0.37131(3) 0.19486(7)
Cu4 Cu 0.62869(3) 0.36692(2) 0.19486(7)
O4 O 0.56443(21) 0.25378(16) 0.2148(4)
N7 N 0.63273(15) 0.04249(15) 0.9588(4)
N9 N 0.54330(15) 0.02785(16) 0.8972(4)
N4 N 0.36727(15) 0.95751(15) 0.0412(4)
C7 C 0.37168(18) 0.94686(18) 0.1510(5)
C8 C 0.32997(19) 0.93048(19) 0.2239(4)
H7 H 0.3339 0.9251 0.3016
N5 N 0.28444(14) 0.92222(15) 0.1856(4)
C9 C 0.27865(18) 0.92902(19) 0.0765(4)
H8 H 0.2456 0.9214 0.0489
C10 C 0.32022(19) 0.9471(2) 0.0027(4)
C11 C 0.42308(19) 0.9556(2) 0.1831(5)
C12 C 0.4333(3) 0.9431(3) 0.3001(6)
H10 H 0.4015 0.9292 0.3452
H11 H 0.4606 0.9747 0.3358
H12 H 0.4445 0.9173 0.2955
N6 N 0.45670(15) 0.97215(16) 0.1028(4)
O3 O 0.50307(14) 0.97759(16) 0.1274(3)
Cu6 Cu 0.22095(3) 0.89865(2) 0.29132(5)
N8 N 0.58889(15) 0.97111(21) 0.1477(4)
H9 H 0.3157 0.9523 0.9252
Cu5 Cu 0.43468(2) 0.98896(2) 0.95799(5)
N4_2 N 0.04249(15) 0.40976(21) 0.0412(4)
C7_2 C 0.05314(18) 0.42482(25) 0.1510(5)
C8_2 C 0.06952(19) 0.39949(27) 0.2239(4)
H7_2 H 0.0749 0.4088 0.3016
N5_2 N 0.07778(15) 0.36222(21) 0.1856(4)
C9_2 C 0.07098(19) 0.34963(26) 0.0765(4)
H8_2 H 0.0786 0.3242 0.0489
C10_2 C 0.0529(2) 0.37312(28) 0.0027(4)
C11_2 C 0.0444(2) 0.46748(28) 0.1831(5)
C12_2 C 0.0569(3) 0.4902(4) 0.3001(6)
H10_2 H 0.0708 0.4723 0.3452
H11_2 H 0.0253 0.4859 0.3358
H12_2 H 0.0827 0.5272 0.2955
N6_2 N 0.02785(16) 0.48455(22) 0.1028(4)
O3_2 O 0.02241(16) 0.52548(21) 0.1274(3)
Cu6_2 Cu 0.10135(2) 0.32229(4) 0.29132(5)
N8_2 N 0.02889(21) 0.61777(26) 0.1477(4)
H9_2 H 0.0477 0.3634 0.9252
Cu5_2 Cu 0.01104(2) 0.44572(3) 0.95799(5)
Cu2_2 Cu 0.98896(2) 0.55428(3) 0.04201(5)
N1_2 N 0.81213(18) 0.42263(25) 0.1784(4)
C1_2 C 0.8518(2) 0.4135(3) 0.1606(6)
H1_2 H 0.8459 0.3791 0.163
C2_2 C 0.9017(2) 0.4550(3) 0.1386(6)
H2_2 H 0.9291 0.4481 0.1246
N2_2 N 0.91168(16) 0.50347(23) 0.1369(4)
C3_2 C 0.8724(2) 0.5128(3) 0.1582(5)
H3_2 H 0.8791 0.5475 0.1592
C4_2 C 0.8221(2) 0.4721(3) 0.1788(5)
C5_2 C 0.7769(2) 0.4787(3) 0.1945(5)
C6_2 C 0.7832(2) 0.5321(3) 0.2029(5)
H4_2 H 0.7965 0.5505 0.131
H5_2 H 0.8078 0.5516 0.2636
H6_2 H 0.7496 0.5292 0.2195
N3_2 N 0.73413(17) 0.43627(24) 0.2007(4)
O2_2 O 0.68935(14) 0.43557(21) 0.2148(4)
N7_2 N 0.95751(15) 0.59024(21) 0.9588(4)
N9_2 N 0.97215(16) 0.51545(22) 0.8972(4)
Cu2_3 Cu 0.44572(3) 0.43468(2) 0.04201(5)
N1_3 N 0.57737(25) 0.38950(17) 0.1784(4)
C1_3 C 0.5865(3) 0.4383(2) 0.1606(6)
H1_3 H 0.6209 0.4668 0.163
C2_3 C 0.5450(3) 0.4467(2) 0.1386(6)
H2_3 H 0.5519 0.481 0.1246
N2_3 N 0.49653(23) 0.40821(17) 0.1369(4)
C3_3 C 0.4872(3) 0.3596(2) 0.1582(5)
H3_3 H 0.4525 0.3316 0.1592
C4_3 C 0.5279(3) 0.3500(2) 0.1788(5)
C5_3 C 0.5213(3) 0.2982(2) 0.1945(5)
C6_3 C 0.4679(3) 0.2511(2) 0.2029(5)
H4_3 H 0.4495 0.246 0.131
H5_3 H 0.4484 0.2562 0.2636
H6_3 H 0.4708 0.2204 0.2195
N3_3 N 0.56373(24) 0.29786(17) 0.2007(4)
N4_3 N 0.59024(21) 0.63273(15) 0.0412(4)
C7_3 C 0.57518(25) 0.62832(18) 0.1510(5)
C8_3 C 0.60051(27) 0.67003(19) 0.2239(4)
H7_3 H 0.5912 0.6661 0.3016
N5_3 N 0.63778(21) 0.71556(14) 0.1856(4)
C9_3 C 0.65037(26) 0.72135(18) 0.0765(4)
H8_3 H 0.6758 0.7544 0.0489
C10_3 C 0.62688(28) 0.67978(19) 0.0027(4)
C11_3 C 0.53252(28) 0.57692(19) 0.1831(5)
C12_3 C 0.5098(4) 0.5667(3) 0.3001(6)
H10_3 H 0.5277 0.5985 0.3452
H11_3 H 0.5141 0.5394 0.3358
H12_3 H 0.4728 0.5555 0.2955
N6_3 N 0.51545(22) 0.54330(15) 0.1028(4)
O3_3 O 0.47452(21) 0.49693(14) 0.1274(3)
Cu6_3 Cu 0.67771(4) 0.77905(3) 0.29132(5)
N8_3 N 0.38223(26) 0.41111(15) 0.1477(4)
H9_3 H 0.6366 0.6843 0.9252
Cu5_3 Cu 0.55428(3) 0.56532(2) 0.95799(5)
N7_3 N 0.40976(21) 0.36727(15) 0.9588(4)
N9_3 N 0.48455(22) 0.45670(15) 0.8972(4)
O1_2 O 0.3334 0.6666 0.5614(6)
Cu1_2 Cu 0.29975(2) 0.59510(2) 0.52819(7)
Cu2_4 Cu 0.23199(2) 0.34437(2) 0.37534(5)
N1_4 N 0.27717(17) 0.52120(18) 0.5117(4)
C1_4 C 0.2284(2) 0.4815(2) 0.4939(6)
H1_4 H 0.1999 0.4874 0.496333
C2_4 C 0.2200(2) 0.4316(2) 0.4719(6)
H2_4 H 0.185667 0.4042 0.4579
N2_4 N 0.25846(17) 0.42165(16) 0.4702(4)
C3_4 C 0.3071(2) 0.4609(2) 0.4915(5)
H3_4 H 0.3351 0.4542 0.4925
C4_4 C 0.3167(2) 0.5112(2) 0.5121(5)
C5_4 C 0.3685(2) 0.5564(2) 0.5278(5)
C6_4 C 0.4156(2) 0.5501(2) 0.5362(5)
H4_4 H 0.420667 0.5368 0.464333
H5_4 H 0.4105 0.5255 0.5969
H6_4 H 0.4463 0.5837 0.5528
N3_4 N 0.36881(17) 0.59920(17) 0.5340(4)
O2_3 O 0.41289(16) 0.64398(14) 0.5481(4)
N4_4 N 0.03394(15) 0.29084(15) 0.3745(4)
C7_4 C 0.03835(18) 0.28019(18) 0.4843(5)
H7_4 H 0.0006 0.2584 0.6349
C11_4 C 0.08975(19) 0.2889(2) 0.5164(5)
C12_4 C 0.1000(3) 0.2764(3) 0.6334(6)
H10_4 H 0.0682 0.2625 0.6785
H11_4 H 0.1273 0.3080 0.6691
H12_4 H 0.1112 0.2506 0.6288
N6_4 N 0.12337(15) 0.30548(16) 0.4361(4)
O3_4 O 0.16974(14) 0.31092(16) 0.4607(3)
Cu3_2 Cu 0.40490(2) 0.70464(3) 0.52819(7)
Cu4_2 Cu 0.29536(3) 0.70025(2) 0.52819(7)
O4_2 O 0.23110(21) 0.58711(16) 0.5481(4)
N7_4 N 0.29940(15) 0.37582(15) 0.2921(4)
N8_4 N 0.25555(15) 0.30445(21) 0.4811(4)
N9_4 N 0.20997(15) 0.36118(16) 0.2305(4)
C8_4 C 0.99664(19) 0.26381(19) 0.5572(4)
N5_4 N 0.95111(14) 0.25555(15) 0.5189(4)
C9_4 C 0.94532(18) 0.26235(19) 0.4098(4)
H8_4 H 0.9123 0.2547 0.3822
C10_4 C 0.98689(19) 0.2804(2) 0.3360(4)
H9_4 H 0.9824 0.2856 0.2585
Cu6_4 Cu 0.88761(3) 0.23199(2) 0.62466(5)
Cu2_5 Cu 0.65563(2) 0.88761(3) 0.37534(5)
N1_5 N 0.47880(18) 0.75596(25) 0.5117(4)
C1_5 C 0.5185(2) 0.7468(3) 0.4939(6)
H1_5 H 0.5126 0.7124 0.496333
C2_5 C 0.5684(2) 0.7883(3) 0.4719(6)
H2_5 H 0.5958 0.7814 0.4579
N2_5 N 0.57835(16) 0.83680(23) 0.4702(4)
C3_5 C 0.5391(2) 0.8461(3) 0.4915(5)
H3_5 H 0.5458 0.8808 0.4925
C4_5 C 0.4888(2) 0.8054(3) 0.5121(5)
C5_5 C 0.4436(2) 0.8120(3) 0.5278(5)
C6_5 C 0.4499(2) 0.8654(3) 0.5362(5)
H4_5 H 0.4632 0.8838 0.464333
H5_5 H 0.4745 0.8849 0.5969
H6_5 H 0.4163 0.8625 0.5528
N3_5 N 0.40080(17) 0.76960(24) 0.5340(4)
O2_4 O 0.35602(14) 0.76890(21) 0.5481(4)
N4_5 N 0.70916(15) 0.74309(21) 0.3745(4)
C7_5 C 0.71981(18) 0.75815(25) 0.4843(5)
C8_5 C 0.73619(19) 0.73282(27) 0.5572(4)
H7_5 H 0.7416 0.7421 0.6349
N5_5 N 0.74445(15) 0.69555(21) 0.5189(4)
C9_5 C 0.73765(19) 0.68296(26) 0.4098(4)
H8_5 H 0.7453 0.6575 0.3822
C10_5 C 0.7196(2) 0.70645(28) 0.3360(4)
H9_5 H 0.7144 0.6967 0.2585
C11_5 C 0.7111(2) 0.80081(28) 0.5164(5)
C12_5 C 0.7236(3) 0.8235(4) 0.6334(6)
H10_5 H 0.7375 0.8056 0.6785
H11_5 H 0.6920 0.8192 0.6691
H12_5 H 0.7494 0.8605 0.6288
N6_5 N 0.69452(16) 0.81788(22) 0.4361(4)
O3_5 O 0.68908(16) 0.85881(21) 0.4607(3)
Cu6_5 Cu 0.76801(2) 0.65563(4) 0.62466(5)
N7_5 N 0.62418(15) 0.92357(21) 0.2921(4)
N8_5 N 0.69555(21) 0.95111(26) 0.4811(4)
N9_5 N 0.63882(16) 0.84878(22) 0.2305(4)
C8_6 C 0.26718(27) 0.00336(19) 0.5572(4)
N5_6 N 0.30445(21) 0.04889(14) 0.5189(4)
C9_6 C 0.31704(26) 0.05468(18) 0.4098(4)
H8_6 H 0.3425 0.0877 0.3822
C10_6 C 0.29355(28) 0.01311(19) 0.3360(4)
H9_6 H 0.3033 0.0176 0.2585
Cu6_6 Cu 0.34437(4) 0.11239(3) 0.62466(5)
Cu2_6 Cu 0.11239(3) 0.76801(2) 0.37534(5)
N1_6 N 0.24404(25) 0.72283(17) 0.5117(4)
C1_6 C 0.2532(3) 0.7716(2) 0.4939(6)
H1_6 H 0.2876 0.8001 0.496333
C2_6 C 0.2117(3) 0.7800(2) 0.4719(6)
H2_6 H 0.2186 0.814333 0.4579
N2_6 N 0.16320(23) 0.74154(17) 0.4702(4)
C3_6 C 0.1539(3) 0.6929(2) 0.4915(5)
H3_6 H 0.1192 0.6649 0.4925
C4_6 C 0.1946(3) 0.6833(2) 0.5121(5)
C5_6 C 0.1880(3) 0.6315(2) 0.5278(5)
C6_6 C 0.1346(3) 0.5844(2) 0.5362(5)
H4_6 H 0.1162 0.579333 0.464333
H5_6 H 0.1151 0.5895 0.5969
H6_6 H 0.1375 0.5537 0.5528
N3_6 N 0.23040(24) 0.63119(17) 0.5340(4)
N4_6 N 0.25691(21) 0.96606(15) 0.3745(4)
C7_6 C 0.24185(25) 0.96165(18) 0.4843(5)
H7_6 H 0.2579 0.9994 0.6349
C11_6 C 0.19919(28) 0.91025(19) 0.5164(5)
C12_6 C 0.1765(4) 0.9000(3) 0.6334(6)
H10_6 H 0.1944 0.9318 0.6785
H11_6 H 0.1808 0.8727 0.6691
H12_6 H 0.1395 0.8888 0.6288
N6_6 N 0.18212(22) 0.87663(15) 0.4361(4)
O3_6 O 0.14119(21) 0.83026(14) 0.4607(3)
N7_6 N 0.07643(21) 0.70060(15) 0.2921(4)
N8_6 N 0.04889(26) 0.74445(15) 0.4811(4)
N9_6 N 0.15122(22) 0.79003(15) 0.2305(4)
O1_3 O 0.0000 -0.0000 0.8948(6)
Cu3_3 Cu 0.07156(2) 0.03798(3) 0.86153(7)
O1_4 O 0.0000 1.0000 0.8948(6)
H3_7 H 0.0017 0.7876 0.8259
C5_7 C 0.0351(2) 0.8898(2) 0.8612(5)
C6_7 C 0.0822(2) 0.8835(2) 0.8696(5)
H4_7 H 0.087333 0.8702 0.797667
H5_7 H 0.0771 0.8589 0.9303
H6_7 H 0.1129 0.9171 0.8862
N3_7 N 0.03547(17) 0.93254(17) 0.8674(4)
O2_5 O 0.07955(16) 0.97732(14) 0.8815(4)
O1_5 O 1.0000 -0.0000 0.8948(6)
Cu4_3 Cu 0.96202(3) 0.03359(2) 0.86153(7)
O1_6 O 1.0000 1.0000 0.8948(6)
Cu1_3 Cu 0.96641(2) 0.92844(2) 0.86153(7)
Cu2_7 Cu 0.89865(2) 0.67771(2) 0.70868(5)
N1_7 N 0.94383(17) 0.85454(18) 0.8451(4)
C1_7 C 0.8950(2) 0.8149(2) 0.8273(6)
H1_7 H 0.8665 0.8208 0.829667
C2_7 C 0.8866(2) 0.7650(2) 0.8053(6)
H2_7 H 0.852333 0.7376 0.7913
N2_7 N 0.92512(17) 0.75499(16) 0.8036(4)
C3_7 C 0.9737(2) 0.7943(2) 0.8249(5)
C4_7 C 0.9833(2) 0.8446(2) 0.8455(5)
N4_7 N 0.70060(15) 0.62418(15) 0.7079(4)
C7_7 C 0.70501(18) 0.61353(18) 0.8177(5)
C8_7 C 0.66330(19) 0.59715(19) 0.8906(4)
H7_7 H 0.6672 0.5918 0.9683
N5_7 N 0.61777(14) 0.58889(15) 0.8523(4)
C9_7 C 0.61198(18) 0.59569(19) 0.7432(4)
H8_7 H 0.5789 0.5881 0.7156
C10_7 C 0.65355(19) 0.6138(2) 0.6694(4)
H9_7 H 0.6490 0.6190 0.5919
C11_7 C 0.75641(19) 0.6223(2) 0.8498(5)
C12_7 C 0.7666(3) 0.6098(3) 0.9668(6)
H12_7 H 0.7778 0.5840 0.9622
N6_7 N 0.79003(15) 0.63882(16) 0.7695(4)
O3_7 O 0.83640(14) 0.64426(16) 0.7941(3)
O4_3 O 0.89776(21) 0.92045(16) 0.8815(4)
N7_7 N 0.96606(15) 0.70916(15) 0.6255(4)
N8_7 N 0.92222(15) 0.63778(21) 0.8144(4)
N9_7 N 0.87663(15) 0.69452(16) 0.5639(4)
Cu2_8 Cu 0.32229(2) 0.22095(3) 0.70868(5)
N1_8 N 0.14546(18) 0.08930(25) 0.8451(4)
C1_8 C 0.1851(2) 0.0802(3) 0.8273(6)
H1_8 H 0.1792 0.0458 0.829667
C2_8 C 0.2350(2) 0.1217(3) 0.8053(6)
H2_8 H 0.2624 0.1148 0.7913
N2_8 N 0.24501(16) 0.17014(23) 0.8036(4)
C3_8 C 0.2057(2) 0.1795(3) 0.8249(5)
H3_8 H 0.2124 0.2142 0.8259
C4_8 C 0.1554(2) 0.1388(3) 0.8455(5)
C5_8 C 0.1102(2) 0.1454(3) 0.8612(5)
C6_8 C 0.1165(2) 0.1988(3) 0.8696(5)
H4_8 H 0.1298 0.2172 0.797667
H5_8 H 0.1411 0.2183 0.9303
H6_8 H 0.0829 0.1959 0.8862
N3_8 N 0.06746(17) 0.10294(24) 0.8674(4)
O2_6 O 0.02268(14) 0.10224(21) 0.8815(4)
N4_8 N 0.37582(15) 0.07643(21) 0.7079(4)
C7_8 C 0.38647(18) 0.09149(25) 0.8177(5)
C8_8 C 0.40285(19) 0.06616(27) 0.8906(4)
H7_8 H 0.4082 0.0755 0.9683
N5_8 N 0.41111(15) 0.02889(21) 0.8523(4)
C9_8 C 0.40431(19) 0.01630(26) 0.7432(4)
C10_8 C 0.3862(2) 0.03979(28) 0.6694(4)
H9_8 H 0.3810 0.0301 0.5919
C11_8 C 0.3777(2) 0.13415(28) 0.8498(5)
C12_8 C 0.3902(3) 0.1569(4) 0.9668(6)
H12_8 H 0.4160 0.1939 0.9622
N6_8 N 0.36118(16) 0.15122(22) 0.7695(4)
O3_8 O 0.35574(16) 0.19215(21) 0.7941(3)
N7_8 N 0.29084(15) 0.25691(21) 0.6255(4)
N8_8 N 0.36222(21) 0.28444(26) 0.8144(4)
N9_8 N 0.30548(16) 0.18212(22) 0.5639(4)
H8_8 H 0.4119 0.9909 0.7156
H8_9 H 0.0091 0.4211 0.7156
Cu2_9 Cu 0.77905(3) 0.10135(2) 0.70868(5)
N1_9 N 0.91070(25) 0.05617(17) 0.8451(4)
C1_9 C 0.9198(3) 0.1050(2) 0.8273(6)
H1_9 H 0.9542 0.1335 0.829667
C2_9 C 0.8783(3) 0.1134(2) 0.8053(6)
H2_9 H 0.8852 0.147667 0.7913
N2_9 N 0.82986(23) 0.07488(17) 0.8036(4)
C3_9 C 0.8205(3) 0.0263(2) 0.8249(5)
C4_9 C 0.8612(3) 0.0167(2) 0.8455(5)
N4_9 N 0.92357(21) 0.29940(15) 0.7079(4)
C7_9 C 0.90851(25) 0.29499(18) 0.8177(5)
C8_9 C 0.93384(27) 0.33670(19) 0.8906(4)
H7_9 H 0.9245 0.3328 0.9683
N5_9 N 0.97111(21) 0.38223(14) 0.8523(4)
C9_9 C 0.98370(26) 0.38802(18) 0.7432(4)
C10_9 C 0.96021(28) 0.34645(19) 0.6694(4)
H9_9 H 0.9699 0.3510 0.5919
C11_9 C 0.86585(28) 0.24359(19) 0.8498(5)
C12_9 C 0.8431(4) 0.2334(3) 0.9668(6)
H12_9 H 0.8061 0.2222 0.9622
N6_9 N 0.84878(22) 0.20997(15) 0.7695(4)
O3_9 O 0.80785(21) 0.16360(14) 0.7941(3)
N7_9 N 0.74309(21) 0.03394(15) 0.6255(4)
N8_9 N 0.71556(26) 0.07778(15) 0.8144(4)
N9_9 N 0.81788(22) 0.12337(15) 0.5639(4)
H3_9 H 0.7858 0.9983 0.8259
C5_9 C 0.8546(3) 0.9649(2) 0.8612(5)
C6_9 C 0.8012(3) 0.9178(2) 0.8696(5)
H4_9 H 0.7828 0.912667 0.797667
H5_9 H 0.7817 0.9229 0.9303
H6_9 H 0.8041 0.8871 0.8862
N3_9 N 0.89706(24) 0.96453(17) 0.8674(4)
H9_10 H 0.6843 0.0477 0.0748
C7_10 C 0.62832(18) 0.05314(18) 0.8490(5)
C8_10 C 0.67003(19) 0.06952(19) 0.7761(4)
H7_10 H 0.6661 0.0749 0.6984
C9_10 C 0.72135(18) 0.07098(19) 0.9235(4)
H8_10 H 0.7544 0.0786 0.9511
C10_10 C 0.67978(19) 0.0529(2) 0.9973(4)
C11_10 C 0.57692(19) 0.0444(2) 0.8169(5)
C12_10 C 0.5667(3) 0.0569(3) 0.6999(6)
H10_7 H 0.5985 0.0708 0.6548
H11_7 H 0.5394 0.0253 0.6642
H12_10 H 0.5555 0.0827 0.7045
O3_10 O 0.49693(14) 0.02241(16) 0.8726(3)
O1_7 O 0.3333 0.6667 0.7719(6)
Cu1_4 Cu 0.36692(2) 0.73823(2) 0.80514(7)
N1_10 N 0.38950(17) 0.81213(18) 0.8216(4)
C1_10 C 0.4383(2) 0.8518(2) 0.8394(6)
H1_10 H 0.4668 0.8459 0.837
C2_10 C 0.4467(2) 0.9017(2) 0.8614(6)
H2_10 H 0.481 0.9291 0.8754
N2_10 N 0.40821(17) 0.91168(16) 0.8631(4)
C3_10 C 0.3596(2) 0.8724(2) 0.8418(5)
H3_10 H 0.3316 0.8791 0.8408
C4_10 C 0.3500(2) 0.8221(2) 0.8212(5)
C5_10 C 0.2982(2) 0.7769(2) 0.8055(5)
C6_10 C 0.2511(2) 0.7832(2) 0.7971(5)
H4_10 H 0.246 0.7965 0.869
H5_10 H 0.2562 0.8078 0.7364
H6_10 H 0.2204 0.7496 0.7805
N3_10 N 0.29786(17) 0.73413(17) 0.7993(4)
O2_7 O 0.25378(16) 0.68935(14) 0.7852(4)
Cu3_4 Cu 0.26177(2) 0.62869(3) 0.80514(7)
Cu4_4 Cu 0.37131(3) 0.63308(2) 0.80514(7)
O4_4 O 0.43557(21) 0.74622(16) 0.7852(4)
N1_11 N 0.18787(18) 0.57737(25) 0.8216(4)
C1_11 C 0.1482(2) 0.5865(3) 0.8394(6)
H1_11 H 0.1541 0.6209 0.837
C2_11 C 0.0983(2) 0.5450(3) 0.8614(6)
H2_11 H 0.0709 0.5519 0.8754
N2_11 N 0.08832(16) 0.49653(23) 0.8631(4)
C3_11 C 0.1276(2) 0.4872(3) 0.8418(5)
H3_11 H 0.1209 0.4525 0.8408
C4_11 C 0.1779(2) 0.5279(3) 0.8212(5)
C5_11 C 0.2231(2) 0.5213(3) 0.8055(5)
C6_11 C 0.2168(2) 0.4679(3) 0.7971(5)
H4_11 H 0.2035 0.4495 0.869
H5_11 H 0.1922 0.4484 0.7364
H6_11 H 0.2504 0.4708 0.7805
N3_11 N 0.26587(17) 0.56373(24) 0.7993(4)
O2_8 O 0.31065(14) 0.56443(21) 0.7852(4)
H9_11 H 0.9523 0.6366 0.0748
C7_11 C 0.94686(18) 0.57518(25) 0.8490(5)
C8_11 C 0.93048(19) 0.60051(27) 0.7761(4)
H7_11 H 0.9251 0.5912 0.6984
C9_11 C 0.92902(19) 0.65037(26) 0.9235(4)
H8_11 H 0.9214 0.6758 0.9511
C10_11 C 0.9471(2) 0.62688(28) 0.9973(4)
C11_11 C 0.9556(2) 0.53252(28) 0.8169(5)
C12_11 C 0.9431(3) 0.5098(4) 0.6999(6)
H10_8 H 0.9292 0.5277 0.6548
H11_8 H 0.9747 0.5141 0.6642
H12_11 H 0.9173 0.4728 0.7045
O3_11 O 0.97759(16) 0.47452(21) 0.8726(3)
H9_12 H 0.3634 0.3157 0.0748
N1_12 N 0.42263(25) 0.61050(17) 0.8216(4)
C1_12 C 0.4135(3) 0.5617(2) 0.8394(6)
H1_12 H 0.3791 0.5332 0.837
C2_12 C 0.4550(3) 0.5533(2) 0.8614(6)
H2_12 H 0.4481 0.519 0.8754
N2_12 N 0.50347(23) 0.59179(17) 0.8631(4)
C3_12 C 0.5128(3) 0.6404(2) 0.8418(5)
H3_12 H 0.5475 0.6684 0.8408
C4_12 C 0.4721(3) 0.6500(2) 0.8212(5)
C5_12 C 0.4787(3) 0.7018(2) 0.8055(5)
C6_12 C 0.5321(3) 0.7489(2) 0.7971(5)
H4_12 H 0.5505 0.754 0.869
H5_12 H 0.5516 0.7438 0.7364
H6_12 H 0.5292 0.7796 0.7805
N3_12 N 0.43627(24) 0.70214(17) 0.7993(4)
C7_12 C 0.42482(25) 0.37168(18) 0.8490(5)
C8_12 C 0.39949(27) 0.32997(19) 0.7761(4)
H7_12 H 0.4088 0.3339 0.6984
C9_12 C 0.34963(26) 0.27865(18) 0.9235(4)
H8_12 H 0.3242 0.2456 0.9511
C10_12 C 0.37312(28) 0.32022(19) 0.9973(4)
C11_12 C 0.46748(28) 0.42308(19) 0.8169(5)
C12_12 C 0.4902(4) 0.4333(3) 0.6999(6)
H10_9 H 0.4723 0.4015 0.6548
H11_9 H 0.4859 0.4606 0.6642
H12_12 H 0.5272 0.4445 0.7045
O3_12 O 0.52548(21) 0.50307(14) 0.8726(3)
C8_13 C 0.00336(19) 0.73619(19) 0.4428(4)
C9_13 C 0.05468(18) 0.73765(19) 0.5902(4)
H8_13 H 0.0877 0.7453 0.6178
C10_13 C 0.01311(19) 0.7196(2) 0.6640(4)
H9_13 H 0.0176 0.7144 0.7415
O1_8 O 0.6666 0.3334 0.4386(6)
Cu1_5 Cu 0.70025(2) 0.40490(2) 0.47181(7)
N1_13 N 0.72283(17) 0.47880(18) 0.4883(4)
C1_13 C 0.7716(2) 0.5185(2) 0.5061(6)
H1_13 H 0.8001 0.5126 0.503667
C2_13 C 0.7800(2) 0.5684(2) 0.5281(6)
H2_13 H 0.814333 0.5958 0.5421
N2_13 N 0.74154(17) 0.57835(16) 0.5298(4)
C3_13 C 0.6929(2) 0.5391(2) 0.5085(5)
H3_13 H 0.6649 0.5458 0.5075
C4_13 C 0.6833(2) 0.4888(2) 0.4879(5)
C5_13 C 0.6315(2) 0.4436(2) 0.4722(5)
C6_13 C 0.5844(2) 0.4499(2) 0.4638(5)
H4_13 H 0.579333 0.4632 0.535667
H5_13 H 0.5895 0.4745 0.4031
H6_13 H 0.5537 0.4163 0.4472
N3_13 N 0.63119(17) 0.40080(17) 0.4660(4)
O2_9 O 0.58711(16) 0.35602(14) 0.4519(4)
C7_13 C 0.96165(18) 0.71981(18) 0.5157(5)
H7_13 H 0.9994 0.7416 0.3651
C11_13 C 0.91025(19) 0.7111(2) 0.4836(5)
C12_13 C 0.9000(3) 0.7236(3) 0.3666(6)
H10_10 H 0.9318 0.7375 0.3215
H11_10 H 0.8727 0.6920 0.3309
H12_13 H 0.8888 0.7494 0.3712
O3_13 O 0.83026(14) 0.68908(16) 0.5393(3)
Cu3_5 Cu 0.59510(2) 0.29536(3) 0.47181(7)
Cu4_5 Cu 0.70464(3) 0.29975(2) 0.47181(7)
O4_5 O 0.76890(21) 0.41289(16) 0.4519(4)
N1_14 N 0.52120(18) 0.24404(25) 0.4883(4)
C1_14 C 0.4815(2) 0.2532(3) 0.5061(6)
H1_14 H 0.4874 0.2876 0.503667
C2_14 C 0.4316(2) 0.2117(3) 0.5281(6)
H2_14 H 0.4042 0.2186 0.5421
N2_14 N 0.42165(16) 0.16320(23) 0.5298(4)
C3_14 C 0.4609(2) 0.1539(3) 0.5085(5)
H3_14 H 0.4542 0.1192 0.5075
C4_14 C 0.5112(2) 0.1946(3) 0.4879(5)
C5_14 C 0.5564(2) 0.1880(3) 0.4722(5)
C6_14 C 0.5501(2) 0.1346(3) 0.4638(5)
H4_14 H 0.5368 0.1162 0.535667
H5_14 H 0.5255 0.1151 0.4031
H6_14 H 0.5837 0.1375 0.4472
N3_14 N 0.59920(17) 0.23040(24) 0.4660(4)
O2_10 O 0.64398(14) 0.23110(21) 0.4519(4)
C7_14 C 0.28019(18) 0.24185(25) 0.5157(5)
C8_14 C 0.26381(19) 0.26718(27) 0.4428(4)
H7_14 H 0.2584 0.2579 0.3651
C9_14 C 0.26235(19) 0.31704(26) 0.5902(4)
H8_14 H 0.2547 0.3425 0.6178
C10_14 C 0.2804(2) 0.29355(28) 0.6640(4)
H9_14 H 0.2856 0.3033 0.7415
C11_14 C 0.2889(2) 0.19919(28) 0.4836(5)
C12_14 C 0.2764(3) 0.1765(4) 0.3666(6)
H10_11 H 0.2625 0.1944 0.3215
H11_11 H 0.3080 0.1808 0.3309
H12_14 H 0.2506 0.1395 0.3712
O3_14 O 0.31092(16) 0.14119(21) 0.5393(3)
N1_15 N 0.75596(25) 0.27717(17) 0.4883(4)
C1_15 C 0.7468(3) 0.2284(2) 0.5061(6)
H1_15 H 0.7124 0.1999 0.503667
C2_15 C 0.7883(3) 0.2200(2) 0.5281(6)
H2_15 H 0.7814 0.185667 0.5421
N2_15 N 0.83680(23) 0.25846(17) 0.5298(4)
C3_15 C 0.8461(3) 0.3071(2) 0.5085(5)
H3_15 H 0.8808 0.3351 0.5075
C4_15 C 0.8054(3) 0.3167(2) 0.4879(5)
C5_15 C 0.8120(3) 0.3685(2) 0.4722(5)
C6_15 C 0.8654(3) 0.4156(2) 0.4638(5)
H4_15 H 0.8838 0.420667 0.535667
H5_15 H 0.8849 0.4105 0.4031
H6_15 H 0.8625 0.4463 0.4472
N3_15 N 0.76960(24) 0.36881(17) 0.4660(4)
C7_15 C 0.75815(25) 0.03835(18) 0.5157(5)
H7_15 H 0.7421 0.0006 0.3651
C11_15 C 0.80081(28) 0.08975(19) 0.4836(5)
C12_15 C 0.8235(4) 0.1000(3) 0.3666(6)
H10_12 H 0.8056 0.0682 0.3215
H11_12 H 0.8192 0.1273 0.3309
H12_15 H 0.8605 0.1112 0.3712
O3_15 O 0.85881(21) 0.16974(14) 0.5393(3)
C8_15 C 0.73282(27) 0.99664(19) 0.4428(4)
C9_15 C 0.68296(26) 0.94532(18) 0.5902(4)
H8_15 H 0.6575 0.9123 0.6178
C10_15 C 0.70645(28) 0.98689(19) 0.6640(4)
H9_15 H 0.6967 0.9824 0.7415
O1_9 O -0.0000 0.0000 0.1052(6)
Cu1_6 Cu 0.03359(2) 0.07156(2) 0.13847(7)
N1_16 N 0.05617(17) 0.14546(18) 0.1549(4)
C1_16 C 0.1050(2) 0.1851(2) 0.1727(6)
H1_16 H 0.1335 0.1792 0.170333
C2_16 C 0.1134(2) 0.2350(2) 0.1947(6)
H2_16 H 0.147667 0.2624 0.2087
N2_16 N 0.07488(17) 0.24501(16) 0.1964(4)
C3_16 C 0.0263(2) 0.2057(2) 0.1751(5)
C4_16 C 0.0167(2) 0.1554(2) 0.1545(5)
C7_16 C 0.29499(18) 0.38647(18) 0.1823(5)
C8_16 C 0.33670(19) 0.40285(19) 0.1094(4)
H7_16 H 0.3328 0.4082 0.0317
C9_16 C 0.38802(18) 0.40431(19) 0.2568(4)
H8_16 H 0.4211 0.4119 0.2844
C10_16 C 0.34645(19) 0.3862(2) 0.3306(4)
H9_16 H 0.3510 0.3810 0.4081
C11_16 C 0.24359(19) 0.3777(2) 0.1502(5)
C12_16 C 0.2334(3) 0.3902(3) 0.0332(6)
H12_16 H 0.2222 0.4160 0.0378
O3_16 O 0.16360(14) 0.35574(16) 0.2059(3)
O4_6 O 0.10224(21) 0.07955(16) 0.1185(4)
O1_10 O -0.0000 1.0000 0.1052(6)
Cu4_6 Cu 0.03798(3) 0.96641(2) 0.13847(7)
O1_11 O 1.0000 0.0000 0.1052(6)
H3_16 H 0.9983 0.2124 0.1741
C5_16 C 0.9649(2) 0.1102(2) 0.1388(5)
C6_16 C 0.9178(2) 0.1165(2) 0.1304(5)
H4_16 H 0.912667 0.1298 0.202333
H5_16 H 0.9229 0.1411 0.0697
H6_16 H 0.8871 0.0829 0.1138
N3_16 N 0.96453(17) 0.06746(17) 0.1326(4)
O2_11 O 0.92045(16) 0.02268(14) 0.1185(4)
O1_12 O 1.0000 1.0000 0.1052(6)
Cu3_6 Cu 0.92844(2) 0.96202(3) 0.13847(7)
H8_17 H 0.5881 0.0091 0.2844
N1_17 N 0.85454(18) 0.91070(25) 0.1549(4)
C1_17 C 0.8149(2) 0.9198(3) 0.1727(6)
H1_17 H 0.8208 0.9542 0.170333
C2_17 C 0.7650(2) 0.8783(3) 0.1947(6)
H2_17 H 0.7376 0.8852 0.2087
N2_17 N 0.75499(16) 0.82986(23) 0.1964(4)
C3_17 C 0.7943(2) 0.8205(3) 0.1751(5)
H3_17 H 0.7876 0.7858 0.1741
C4_17 C 0.8446(2) 0.8612(3) 0.1545(5)
C5_17 C 0.8898(2) 0.8546(3) 0.1388(5)
C6_17 C 0.8835(2) 0.8012(3) 0.1304(5)
H4_17 H 0.8702 0.7828 0.202333
H5_17 H 0.8589 0.7817 0.0697
H6_17 H 0.9171 0.8041 0.1138
N3_17 N 0.93254(17) 0.89706(24) 0.1326(4)
O2_12 O 0.97732(14) 0.89776(21) 0.1185(4)
C7_17 C 0.61353(18) 0.90851(25) 0.1823(5)
C8_17 C 0.59715(19) 0.93384(27) 0.1094(4)
H7_17 H 0.5918 0.9245 0.0317
C9_17 C 0.59569(19) 0.98370(26) 0.2568(4)
C10_17 C 0.6138(2) 0.96021(28) 0.3306(4)
H9_17 H 0.6190 0.9699 0.4081
C11_17 C 0.6223(2) 0.86585(28) 0.1502(5)
C12_17 C 0.6098(3) 0.8431(4) 0.0332(6)
H12_17 H 0.5840 0.8061 0.0378
O3_17 O 0.64426(16) 0.80785(21) 0.2059(3)
H3_18 H 0.2142 0.0017 0.1741
C5_18 C 0.1454(3) 0.0351(2) 0.1388(5)
C6_18 C 0.1988(3) 0.0822(2) 0.1304(5)
H4_18 H 0.2172 0.087333 0.202333
H5_18 H 0.2183 0.0771 0.0697
H6_18 H 0.1959 0.1129 0.1138
N3_18 N 0.10294(24) 0.03547(17) 0.1326(4)
N1_18 N 0.08930(25) 0.94383(17) 0.1549(4)
C1_18 C 0.0802(3) 0.8950(2) 0.1727(6)
H1_18 H 0.0458 0.8665 0.170333
C2_18 C 0.1217(3) 0.8866(2) 0.1947(6)
H2_18 H 0.1148 0.852333 0.2087
N2_18 N 0.17014(23) 0.92512(17) 0.1964(4)
C3_18 C 0.1795(3) 0.9737(2) 0.1751(5)
C4_18 C 0.1388(3) 0.9833(2) 0.1545(5)
C7_18 C 0.09149(25) 0.70501(18) 0.1823(5)
C8_18 C 0.06616(27) 0.66330(19) 0.1094(4)
H7_18 H 0.0755 0.6672 0.0317
C9_18 C 0.01630(26) 0.61198(18) 0.2568(4)
C10_18 C 0.03979(28) 0.65355(19) 0.3306(4)
H9_18 H 0.0301 0.6490 0.4081
C11_18 C 0.13415(28) 0.75641(19) 0.1502(5)
C12_18 C 0.1569(4) 0.7666(3) 0.0332(6)
H12_18 H 0.1939 0.7778 0.0378
O3_18 O 0.19215(21) 0.83640(14) 0.2059(3)
H8_18 H 0.9909 0.5789 0.2844
H10_13 H 0.7348 0.5959 0.0119
H11_13 H 0.7939 0.6414 0.0025
H10_14 H 0.4041 0.1390 0.0119
H11_14 H 0.3586 0.1526 0.0025
H10_15 H 0.8610 0.2652 0.0119
H11_15 H 0.8474 0.2061 0.0025
H10_16 H 0.2652 0.4041 0.9881
H11_16 H 0.2061 0.3586 0.9975
H10_17 H 0.5959 0.8610 0.9881
H11_17 H 0.6414 0.8474 0.9975
H10_18 H 0.1390 0.7348 0.9881
H11_18 H 0.1526 0.7939 0.9975
loop_
_geom_bond_atom_site_label_1
_geom_bond_atom_site_label_2
_geom_bond_site_symmetry_1
_geom_bond_site_symmetry_2
O1 Cu1 1_555 1_555
Cu1 N1 1_555 1_555
Cu2 N2 1_555 1_555
N1 C1 1_555 1_555
C1 H1 1_555 1_555
C2 C1 1_555 1_555
H2 C2 1_555 1_555
N2 C2 1_555 1_555
C3 N2 1_555 1_555
H3 C3 1_555 1_555
C4 N1 1_555 1_555
C5 C4 1_555 1_555
C6 C5 1_555 1_555
H4 C6 1_555 1_555
H5 C6 1_555 1_555
H6 C6 1_555 1_555
N3 Cu1 1_555 1_555
O2 N3 1_555 1_555
Cu3 O1 1_555 1_555
Cu4 O1 1_555 1_555
O4 Cu1 1_555 1_555
C3 C4 1_555 1_555
C5 N3 1_555 1_555
O2 Cu3 1_555 1_555
N4 C7 1_555 1_555
C7 C8 1_555 1_555
C8 H7 1_555 1_555
N5 C8 1_555 1_555
C9 N5 1_555 1_555
H8 C9 1_555 1_555
C10 N4 1_555 1_555
C11 C7 1_555 1_555
C12 C11 1_555 1_555
H10 C12 1_555 1_555
H11 C12 1_555 1_555
H12 C12 1_555 1_555
N6 C11 1_555 1_555
Cu6 N5 1_555 1_555
C9 C10 1_555 1_555
N6 O3 1_555 1_555
N4_2 C7_2 1_555 1_555
C7_2 C8_2 1_555 1_555
C8_2 H7_2 1_555 1_555
N5_2 C8_2 1_555 1_555
C9_2 N5_2 1_555 1_555
H8_2 C9_2 1_555 1_555
C10_2 N4_2 1_555 1_555
C11_2 C7_2 1_555 1_555
C12_2 C11_2 1_555 1_555
H10_2 C12_2 1_555 1_555
H11_2 C12_2 1_555 1_555
H12_2 C12_2 1_555 1_555
N6_2 C11_2 1_555 1_555
Cu6_2 N5_2 1_555 1_555
C9_2 C10_2 1_555 1_555
N6_2 O3_2 1_555 1_555
Cu3 N1_2 1_555 1_555
Cu2_2 N2_2 1_555 1_555
N1_2 C1_2 1_555 1_555
C1_2 H1_2 1_555 1_555
C2_2 C1_2 1_555 1_555
H2_2 C2_2 1_555 1_555
N2_2 C2_2 1_555 1_555
C3_2 N2_2 1_555 1_555
H3_2 C3_2 1_555 1_555
C4_2 N1_2 1_555 1_555
C5_2 C4_2 1_555 1_555
C6_2 C5_2 1_555 1_555
H4_2 C6_2 1_555 1_555
H5_2 C6_2 1_555 1_555
H6_2 C6_2 1_555 1_555
N3_2 Cu3 1_555 1_555
O2_2 N3_2 1_555 1_555
C3_2 C4_2 1_555 1_555
C5_2 N3_2 1_555 1_555
O2_2 Cu4 1_555 1_555
Cu4 N1_3 1_555 1_555
Cu2_3 N2_3 1_555 1_555
N1_3 C1_3 1_555 1_555
C1_3 H1_3 1_555 1_555
C2_3 C1_3 1_555 1_555
H2_3 C2_3 1_555 1_555
N2_3 C2_3 1_555 1_555
C3_3 N2_3 1_555 1_555
H3_3 C3_3 1_555 1_555
C4_3 N1_3 1_555 1_555
C5_3 C4_3 1_555 1_555
C6_3 C5_3 1_555 1_555
H4_3 C6_3 1_555 1_555
H5_3 C6_3 1_555 1_555
H6_3 C6_3 1_555 1_555
N3_3 Cu4 1_555 1_555
O4 N3_3 1_555 1_555
N4_3 C7_3 1_555 1_555
C7_3 C8_3 1_555 1_555
C8_3 H7_3 1_555 1_555
N5_3 C8_3 1_555 1_555
C9_3 N5_3 1_555 1_555
H8_3 C9_3 1_555 1_555
C10_3 N4_3 1_555 1_555
C11_3 C7_3 1_555 1_555
C12_3 C11_3 1_555 1_555
H10_3 C12_3 1_555 1_555
H11_3 C12_3 1_555 1_555
H12_3 C12_3 1_555 1_555
N6_3 C11_3 1_555 1_555
O3_3 Cu2_3 1_555 1_555
Cu6_3 N5_3 1_555 1_555
N8_3 Cu2_3 1_555 1_555
C3_3 C4_3 1_555 1_555
C5_3 N3_3 1_555 1_555
C9_3 C10_3 1_555 1_555
N6_3 O3_3 1_555 1_555
O1_2 Cu1_2 1_555 1_555
Cu1_2 N1_4 1_555 1_555
Cu2_4 N2_4 1_555 1_555
N1_4 C1_4 1_555 1_555
C1_4 H1_4 1_555 1_555
C2_4 C1_4 1_555 1_555
H2_4 C2_4 1_555 1_555
N2_4 C2_4 1_555 1_555
C3_4 N2_4 1_555 1_555
H3_4 C3_4 1_555 1_555
C4_4 N1_4 1_555 1_555
C5_4 C4_4 1_555 1_555
C6_4 C5_4 1_555 1_555
H4_4 C6_4 1_555 1_555
H5_4 C6_4 1_555 1_555
H6_4 C6_4 1_555 1_555
N3_4 Cu1_2 1_555 1_555
O2_3 N3_4 1_555 1_555
N4_4 C7_4 1_555 1_555
C11_4 C7_4 1_555 1_555
C12_4 C11_4 1_555 1_555
H10_4 C12_4 1_555 1_555
H11_4 C12_4 1_555 1_555
H12_4 C12_4 1_555 1_555
N6_4 C11_4 1_555 1_555
O3_4 Cu2_4 1_555 1_555
Cu3_2 O1_2 1_555 1_555
Cu4_2 O1_2 1_555 1_555
Cu6_2 N4_4 1_555 1_555
O4_2 Cu1_2 1_555 1_555
N7_4 Cu2_4 1_555 1_555
N8_4 Cu2_4 1_555 1_555
N9_4 Cu2_4 1_555 1_555
C3_4 C4_4 1_555 1_555
C5_4 N3_4 1_555 1_555
O2_3 Cu3_2 1_555 1_555
N6_4 O3_4 1_555 1_555
N6_4 Cu6_2 1_555 1_555
N5_4 C8_4 1_555 1_555
C9_4 N5_4 1_555 1_555
H8_4 C9_4 1_555 1_555
H9_4 C10_4 1_555 1_555
Cu6_4 N5_4 1_555 1_555
C9_4 C10_4 1_555 1_555
Cu3_2 N1_5 1_555 1_555
Cu2_5 N2_5 1_555 1_555
N1_5 C1_5 1_555 1_555
C1_5 H1_5 1_555 1_555
C2_5 C1_5 1_555 1_555
H2_5 C2_5 1_555 1_555
N2_5 C2_5 1_555 1_555
C3_5 N2_5 1_555 1_555
H3_5 C3_5 1_555 1_555
C4_5 N1_5 1_555 1_555
C5_5 C4_5 1_555 1_555
C6_5 C5_5 1_555 1_555
H4_5 C6_5 1_555 1_555
H5_5 C6_5 1_555 1_555
H6_5 C6_5 1_555 1_555
N3_5 Cu3_2 1_555 1_555
O2_4 N3_5 1_555 1_555
N4_5 C7_5 1_555 1_555
C7_5 C8_5 1_555 1_555
C8_5 H7_5 1_555 1_555
N5_5 C8_5 1_555 1_555
C9_5 N5_5 1_555 1_555
H8_5 C9_5 1_555 1_555
C10_5 N4_5 1_555 1_555
H9_5 C10_5 1_555 1_555
C11_5 C7_5 1_555 1_555
C12_5 C11_5 1_555 1_555
H10_5 C12_5 1_555 1_555
H11_5 C12_5 1_555 1_555
H12_5 C12_5 1_555 1_555
N6_5 C11_5 1_555 1_555
O3_5 Cu2_5 1_555 1_555
Cu6_3 N4_5 1_555 1_555
Cu6_5 N5_5 1_555 1_555
N7_5 Cu2_5 1_555 1_555
N8_5 Cu2_5 1_555 1_555
N9_5 Cu2_5 1_555 1_555
C3_5 C4_5 1_555 1_555
C5_5 N3_5 1_555 1_555
O2_4 Cu4_2 1_555 1_555
C9_5 C10_5 1_555 1_555
N6_5 O3_5 1_555 1_555
N6_5 Cu6_3 1_555 1_555
N5_6 C8_6 1_555 1_555
C9_6 N5_6 1_555 1_555
H8_6 C9_6 1_555 1_555
H9_6 C10_6 1_555 1_555
Cu6_6 N5_6 1_555 1_555
C9_6 C10_6 1_555 1_555
Cu4_2 N1_6 1_555 1_555
Cu2_6 N2_6 1_555 1_555
N1_6 C1_6 1_555 1_555
C1_6 H1_6 1_555 1_555
C2_6 C1_6 1_555 1_555
H2_6 C2_6 1_555 1_555
N2_6 C2_6 1_555 1_555
C3_6 N2_6 1_555 1_555
H3_6 C3_6 1_555 1_555
C4_6 N1_6 1_555 1_555
C5_6 C4_6 1_555 1_555
C6_6 C5_6 1_555 1_555
H4_6 C6_6 1_555 1_555
H5_6 C6_6 1_555 1_555
H6_6 C6_6 1_555 1_555
N3_6 Cu4_2 1_555 1_555
O4_2 N3_6 1_555 1_555
N4_6 C7_6 1_555 1_555
C11_6 C7_6 1_555 1_555
C12_6 C11_6 1_555 1_555
H10_6 C12_6 1_555 1_555
H11_6 C12_6 1_555 1_555
H12_6 C12_6 1_555 1_555
N6_6 C11_6 1_555 1_555
O3_6 Cu2_6 1_555 1_555
Cu6 N4_6 1_555 1_555
N7_6 Cu2_6 1_555 1_555
N8_6 Cu2_6 1_555 1_555
N9_6 Cu2_6 1_555 1_555
C3_6 C4_6 1_555 1_555
C5_6 N3_6 1_555 1_555
N6_6 O3_6 1_555 1_555
N6_6 Cu6 1_555 1_555
Cu3_3 O1_3 1_555 1_555
C6_7 C5_7 1_555 1_555
H4_7 C6_7 1_555 1_555
H5_7 C6_7 1_555 1_555
H6_7 C6_7 1_555 1_555
O2_5 N3_7 1_555 1_555
C5_7 N3_7 1_555 1_555
Cu4_3 O1_5 1_555 1_555
O1_6 Cu1_3 1_555 1_555
Cu1_3 N1_7 1_555 1_555
Cu2_7 N2_7 1_555 1_555
N1_7 C1_7 1_555 1_555
C1_7 H1_7 1_555 1_555
C2_7 C1_7 1_555 1_555
H2_7 C2_7 1_555 1_555
N2_7 C2_7 1_555 1_555
C3_7 N2_7 1_555 1_555
C4_7 N1_7 1_555 1_555
N4_7 C7_7 1_555 1_555
C7_7 C8_7 1_555 1_555
C8_7 H7_7 1_555 1_555
N5_7 C8_7 1_555 1_555
C9_7 N5_7 1_555 1_555
H8_7 C9_7 1_555 1_555
C10_7 N4_7 1_555 1_555
H9_7 C10_7 1_555 1_555
C11_7 C7_7 1_555 1_555
C12_7 C11_7 1_555 1_555
H12_7 C12_7 1_555 1_555
N6_7 C11_7 1_555 1_555
O3_7 Cu2_7 1_555 1_555
Cu6_5 N4_7 1_555 1_555
Cu5_3 N5_7 1_555 1_555
O4_3 Cu1_3 1_555 1_555
N7_7 Cu2_7 1_555 1_555
N8_7 Cu2_7 1_555 1_555
N9_7 Cu2_7 1_555 1_555
C3_7 C4_7 1_555 1_555
C9_7 C10_7 1_555 1_555
N6_7 O3_7 1_555 1_555
N6_7 Cu6_5 1_555 1_555
Cu3_3 N1_8 1_555 1_555
Cu2_8 N2_8 1_555 1_555
N1_8 C1_8 1_555 1_555
C1_8 H1_8 1_555 1_555
C2_8 C1_8 1_555 1_555
H2_8 C2_8 1_555 1_555
N2_8 C2_8 1_555 1_555
C3_8 N2_8 1_555 1_555
H3_8 C3_8 1_555 1_555
C4_8 N1_8 1_555 1_555
C5_8 C4_8 1_555 1_555
C6_8 C5_8 1_555 1_555
H4_8 C6_8 1_555 1_555
H5_8 C6_8 1_555 1_555
H6_8 C6_8 1_555 1_555
N3_8 Cu3_3 1_555 1_555
O2_6 N3_8 1_555 1_555
N4_8 C7_8 1_555 1_555
C7_8 C8_8 1_555 1_555
C8_8 H7_8 1_555 1_555
N5_8 C8_8 1_555 1_555
C9_8 N5_8 1_555 1_555
C10_8 N4_8 1_555 1_555
H9_8 C10_8 1_555 1_555
C11_8 C7_8 1_555 1_555
C12_8 C11_8 1_555 1_555
H12_8 C12_8 1_555 1_555
N6_8 C11_8 1_555 1_555
O3_8 Cu2_8 1_555 1_555
Cu6_6 N4_8 1_555 1_555
N7_8 Cu2_8 1_555 1_555
N8_8 Cu2_8 1_555 1_555
N9_8 Cu2_8 1_555 1_555
C3_8 C4_8 1_555 1_555
C5_8 N3_8 1_555 1_555
C9_8 C10_8 1_555 1_555
N6_8 O3_8 1_555 1_555
N6_8 Cu6_6 1_555 1_555
Cu4_3 N1_9 1_555 1_555
Cu2_9 N2_9 1_555 1_555
N1_9 C1_9 1_555 1_555
C1_9 H1_9 1_555 1_555
C2_9 C1_9 1_555 1_555
H2_9 C2_9 1_555 1_555
N2_9 C2_9 1_555 1_555
C3_9 N2_9 1_555 1_555
C4_9 N1_9 1_555 1_555
N4_9 C7_9 1_555 1_555
C7_9 C8_9 1_555 1_555
C8_9 H7_9 1_555 1_555
N5_9 C8_9 1_555 1_555
C9_9 N5_9 1_555 1_555
C10_9 N4_9 1_555 1_555
H9_9 C10_9 1_555 1_555
C11_9 C7_9 1_555 1_555
C12_9 C11_9 1_555 1_555
H12_9 C12_9 1_555 1_555
N6_9 C11_9 1_555 1_555
O3_9 Cu2_9 1_555 1_555
Cu6_4 N4_9 1_555 1_555
N7_9 Cu2_9 1_555 1_555
N8_9 Cu2_9 1_555 1_555
N9_9 Cu2_9 1_555 1_555
C3_9 C4_9 1_555 1_555
C9_9 C10_9 1_555 1_555
N6_9 O3_9 1_555 1_555
N6_9 Cu6_4 1_555 1_555
C6_9 C5_9 1_555 1_555
H4_9 C6_9 1_555 1_555
H5_9 C6_9 1_555 1_555
H6_9 C6_9 1_555 1_555
O4_3 N3_9 1_555 1_555
C5_9 N3_9 1_555 1_555
N7 C7_10 1_555 1_555
C7_10 C8_10 1_555 1_555
C8_10 H7_10 1_555 1_555
N8_9 C8_10 1_555 1_555
C9_10 N8_9 1_555 1_555
H8_10 C9_10 1_555 1_555
C10_10 N7 1_555 1_555
C11_10 C7_10 1_555 1_555
C12_10 C11_10 1_555 1_555
H10_7 C12_10 1_555 1_555
H11_7 C12_10 1_555 1_555
H12_10 C12_10 1_555 1_555
N9 C11_10 1_555 1_555
C9_10 C10_10 1_555 1_555
N9 O3_10 1_555 1_555
O1_7 Cu1_4 1_555 1_555
Cu1_4 N1_10 1_555 1_555
Cu5 N2_10 1_555 1_555
N1_10 C1_10 1_555 1_555
C1_10 H1_10 1_555 1_555
C2_10 C1_10 1_555 1_555
H2_10 C2_10 1_555 1_555
N2_10 C2_10 1_555 1_555
C3_10 N2_10 1_555 1_555
H3_10 C3_10 1_555 1_555
C4_10 N1_10 1_555 1_555
C5_10 C4_10 1_555 1_555
C6_10 C5_10 1_555 1_555
H4_10 C6_10 1_555 1_555
H5_10 C6_10 1_555 1_555
H6_10 C6_10 1_555 1_555
N3_10 Cu1_4 1_555 1_555
O2_7 N3_10 1_555 1_555
Cu3_4 O1_7 1_555 1_555
Cu4_4 O1_7 1_555 1_555
O4_4 Cu1_4 1_555 1_555
C3_10 C4_10 1_555 1_555
C5_10 N3_10 1_555 1_555
O2_7 Cu3_4 1_555 1_555
Cu3_4 N1_11 1_555 1_555
Cu5_2 N2_11 1_555 1_555
N1_11 C1_11 1_555 1_555
C1_11 H1_11 1_555 1_555
C2_11 C1_11 1_555 1_555
H2_11 C2_11 1_555 1_555
N2_11 C2_11 1_555 1_555
C3_11 N2_11 1_555 1_555
H3_11 C3_11 1_555 1_555
C4_11 N1_11 1_555 1_555
C5_11 C4_11 1_555 1_555
C6_11 C5_11 1_555 1_555
H4_11 C6_11 1_555 1_555
H5_11 C6_11 1_555 1_555
H6_11 C6_11 1_555 1_555
N3_11 Cu3_4 1_555 1_555
O2_8 N3_11 1_555 1_555
C3_11 C4_11 1_555 1_555
C5_11 N3_11 1_555 1_555
O2_8 Cu4_4 1_555 1_555
N7_2 C7_11 1_555 1_555
C7_11 C8_11 1_555 1_555
C8_11 H7_11 1_555 1_555
N8_7 C8_11 1_555 1_555
C9_11 N8_7 1_555 1_555
H8_11 C9_11 1_555 1_555
C10_11 N7_2 1_555 1_555
C11_11 C7_11 1_555 1_555
C12_11 C11_11 1_555 1_555
H10_8 C12_11 1_555 1_555
H11_8 C12_11 1_555 1_555
H12_11 C12_11 1_555 1_555
N9_2 C11_11 1_555 1_555
C9_11 C10_11 1_555 1_555
N9_2 O3_11 1_555 1_555
Cu4_4 N1_12 1_555 1_555
Cu5_3 N2_12 1_555 1_555
N1_12 C1_12 1_555 1_555
C1_12 H1_12 1_555 1_555
C2_12 C1_12 1_555 1_555
H2_12 C2_12 1_555 1_555
N2_12 C2_12 1_555 1_555
C3_12 N2_12 1_555 1_555
H3_12 C3_12 1_555 1_555
C4_12 N1_12 1_555 1_555
C5_12 C4_12 1_555 1_555
C6_12 C5_12 1_555 1_555
H4_12 C6_12 1_555 1_555
H5_12 C6_12 1_555 1_555
H6_12 C6_12 1_555 1_555
N3_12 Cu4_4 1_555 1_555
O4_4 N3_12 1_555 1_555
N7_3 C7_12 1_555 1_555
C7_12 C8_12 1_555 1_555
C8_12 H7_12 1_555 1_555
N8_8 C8_12 1_555 1_555
C9_12 N8_8 1_555 1_555
H8_12 C9_12 1_555 1_555
C10_12 N7_3 1_555 1_555
C11_12 C7_12 1_555 1_555
C12_12 C11_12 1_555 1_555
H10_9 C12_12 1_555 1_555
H11_9 C12_12 1_555 1_555
H12_12 C12_12 1_555 1_555
N9_3 C11_12 1_555 1_555
O3_12 Cu5_3 1_555 1_555
C3_12 C4_12 1_555 1_555
C5_12 N3_12 1_555 1_555
C9_12 C10_12 1_555 1_555
N9_3 O3_12 1_555 1_555
N8_6 C8_13 1_555 1_555
C9_13 N8_6 1_555 1_555
H8_13 C9_13 1_555 1_555
H9_13 C10_13 1_555 1_555
C9_13 C10_13 1_555 1_555
O1_8 Cu1_5 1_555 1_555
Cu1_5 N1_13 1_555 1_555
Cu6_5 N2_13 1_555 1_555
N1_13 C1_13 1_555 1_555
C1_13 H1_13 1_555 1_555
C2_13 C1_13 1_555 1_555
H2_13 C2_13 1_555 1_555
N2_13 C2_13 1_555 1_555
C3_13 N2_13 1_555 1_555
H3_13 C3_13 1_555 1_555
C4_13 N1_13 1_555 1_555
C5_13 C4_13 1_555 1_555
C6_13 C5_13 1_555 1_555
H4_13 C6_13 1_555 1_555
H5_13 C6_13 1_555 1_555
H6_13 C6_13 1_555 1_555
N3_13 Cu1_5 1_555 1_555
O2_9 N3_13 1_555 1_555
N7_7 C7_13 1_555 1_555
C11_13 C7_13 1_555 1_555
C12_13 C11_13 1_555 1_555
H10_10 C12_13 1_555 1_555
H11_10 C12_13 1_555 1_555
H12_13 C12_13 1_555 1_555
N9_7 C11_13 1_555 1_555
O3_13 Cu6_5 1_555 1_555
Cu3_5 O1_8 1_555 1_555
Cu4_5 O1_8 1_555 1_555
O4_5 Cu1_5 1_555 1_555
C3_13 C4_13 1_555 1_555
C5_13 N3_13 1_555 1_555
O2_9 Cu3_5 1_555 1_555
N9_7 O3_13 1_555 1_555
Cu3_5 N1_14 1_555 1_555
Cu6_6 N2_14 1_555 1_555
N1_14 C1_14 1_555 1_555
C1_14 H1_14 1_555 1_555
C2_14 C1_14 1_555 1_555
H2_14 C2_14 1_555 1_555
N2_14 C2_14 1_555 1_555
C3_14 N2_14 1_555 1_555
H3_14 C3_14 1_555 1_555
C4_14 N1_14 1_555 1_555
C5_14 C4_14 1_555 1_555
C6_14 C5_14 1_555 1_555
H4_14 C6_14 1_555 1_555
H5_14 C6_14 1_555 1_555
H6_14 C6_14 1_555 1_555
N3_14 Cu3_5 1_555 1_555
O2_10 N3_14 1_555 1_555
N7_8 C7_14 1_555 1_555
C7_14 C8_14 1_555 1_555
C8_14 H7_14 1_555 1_555
N8_4 C8_14 1_555 1_555
C9_14 N8_4 1_555 1_555
H8_14 C9_14 1_555 1_555
C10_14 N7_8 1_555 1_555
H9_14 C10_14 1_555 1_555
C11_14 C7_14 1_555 1_555
C12_14 C11_14 1_555 1_555
H10_11 C12_14 1_555 1_555
H11_11 C12_14 1_555 1_555
H12_14 C12_14 1_555 1_555
N9_8 C11_14 1_555 1_555
O3_14 Cu6_6 1_555 1_555
C3_14 C4_14 1_555 1_555
C5_14 N3_14 1_555 1_555
O2_10 Cu4_5 1_555 1_555
C9_14 C10_14 1_555 1_555
N9_8 O3_14 1_555 1_555
Cu4_5 N1_15 1_555 1_555
Cu6_4 N2_15 1_555 1_555
N1_15 C1_15 1_555 1_555
C1_15 H1_15 1_555 1_555
C2_15 C1_15 1_555 1_555
H2_15 C2_15 1_555 1_555
N2_15 C2_15 1_555 1_555
C3_15 N2_15 1_555 1_555
H3_15 C3_15 1_555 1_555
C4_15 N1_15 1_555 1_555
C5_15 C4_15 1_555 1_555
C6_15 C5_15 1_555 1_555
H4_15 C6_15 1_555 1_555
H5_15 C6_15 1_555 1_555
H6_15 C6_15 1_555 1_555
N3_15 Cu4_5 1_555 1_555
O4_5 N3_15 1_555 1_555
N7_9 C7_15 1_555 1_555
C11_15 C7_15 1_555 1_555
C12_15 C11_15 1_555 1_555
H10_12 C12_15 1_555 1_555
H11_12 C12_15 1_555 1_555
H12_15 C12_15 1_555 1_555
N9_9 C11_15 1_555 1_555
O3_15 Cu6_4 1_555 1_555
C3_15 C4_15 1_555 1_555
C5_15 N3_15 1_555 1_555
N9_9 O3_15 1_555 1_555
N8_5 C8_15 1_555 1_555
C9_15 N8_5 1_555 1_555
H8_15 C9_15 1_555 1_555
H9_15 C10_15 1_555 1_555
C9_15 C10_15 1_555 1_555
O1_9 Cu1_6 1_555 1_555
Cu1_6 N1_16 1_555 1_555
Cu6_2 N2_16 1_555 1_555
N1_16 C1_16 1_555 1_555
C1_16 H1_16 1_555 1_555
C2_16 C1_16 1_555 1_555
H2_16 C2_16 1_555 1_555
N2_16 C2_16 1_555 1_555
C3_16 N2_16 1_555 1_555
C4_16 N1_16 1_555 1_555
N7_4 C7_16 1_555 1_555
C7_16 C8_16 1_555 1_555
C8_16 H7_16 1_555 1_555
N8_3 C8_16 1_555 1_555
C9_16 N8_3 1_555 1_555
H8_16 C9_16 1_555 1_555
C10_16 N7_4 1_555 1_555
H9_16 C10_16 1_555 1_555
C11_16 C7_16 1_555 1_555
C12_16 C11_16 1_555 1_555
H12_16 C12_16 1_555 1_555
N9_4 C11_16 1_555 1_555
O3_16 Cu6_2 1_555 1_555
O4_6 Cu1_6 1_555 1_555
C3_16 C4_16 1_555 1_555
C9_16 C10_16 1_555 1_555
N9_4 O3_16 1_555 1_555
Cu4_6 O1_10 1_555 1_555
C6_16 C5_16 1_555 1_555
H4_16 C6_16 1_555 1_555
H5_16 C6_16 1_555 1_555
H6_16 C6_16 1_555 1_555
O2_11 N3_16 1_555 1_555
C5_16 N3_16 1_555 1_555
Cu3_6 O1_12 1_555 1_555
Cu3_6 N1_17 1_555 1_555
Cu6_3 N2_17 1_555 1_555
N1_17 C1_17 1_555 1_555
C1_17 H1_17 1_555 1_555
C2_17 C1_17 1_555 1_555
H2_17 C2_17 1_555 1_555
N2_17 C2_17 1_555 1_555
C3_17 N2_17 1_555 1_555
H3_17 C3_17 1_555 1_555
C4_17 N1_17 1_555 1_555
C5_17 C4_17 1_555 1_555
C6_17 C5_17 1_555 1_555
H4_17 C6_17 1_555 1_555
H5_17 C6_17 1_555 1_555
H6_17 C6_17 1_555 1_555
N3_17 Cu3_6 1_555 1_555
O2_12 N3_17 1_555 1_555
N7_5 C7_17 1_555 1_555
C7_17 C8_17 1_555 1_555
C8_17 H7_17 1_555 1_555
N8 C8_17 1_555 1_555
C9_17 N8 1_555 1_555
C10_17 N7_5 1_555 1_555
H9_17 C10_17 1_555 1_555
C11_17 C7_17 1_555 1_555
C12_17 C11_17 1_555 1_555
H12_17 C12_17 1_555 1_555
N9_5 C11_17 1_555 1_555
O3_17 Cu6_3 1_555 1_555
C3_17 C4_17 1_555 1_555
C5_17 N3_17 1_555 1_555
C9_17 C10_17 1_555 1_555
N9_5 O3_17 1_555 1_555
C6_18 C5_18 1_555 1_555
H4_18 C6_18 1_555 1_555
H5_18 C6_18 1_555 1_555
H6_18 C6_18 1_555 1_555
O4_6 N3_18 1_555 1_555
C5_18 N3_18 1_555 1_555
Cu4_6 N1_18 1_555 1_555
Cu6 N2_18 1_555 1_555
N1_18 C1_18 1_555 1_555
C1_18 H1_18 1_555 1_555
C2_18 C1_18 1_555 1_555
H2_18 C2_18 1_555 1_555
N2_18 C2_18 1_555 1_555
C3_18 N2_18 1_555 1_555
C4_18 N1_18 1_555 1_555
N7_6 C7_18 1_555 1_555
C7_18 C8_18 1_555 1_555
C8_18 H7_18 1_555 1_555
N8_2 C8_18 1_555 1_555
C9_18 N8_2 1_555 1_555
C10_18 N7_6 1_555 1_555
H9_18 C10_18 1_555 1_555
C11_18 C7_18 1_555 1_555
C12_18 C11_18 1_555 1_555
H12_18 C12_18 1_555 1_555
N9_6 C11_18 1_555 1_555
O3_18 Cu6 1_555 1_555
C3_18 C4_18 1_555 1_555
C9_18 C10_18 1_555 1_555
N9_6 O3_18 1_555 1_555

#END
