
###############################################################################
#
# This file contains modified crystal structure data generated from the
# MOF subset of the Cambridge Structural Database (CSD) v543 
# hosted by the Cambridge Crystallographic Data Centre (CCDC).
#
# This work is licensed under the Creative Commons
# Attribution-NonCommercial-ShareAlike 4.0 International License.
# To view a copy of this license, visit
# http://creativecommons.org/licenses/by-nc-sa/4.0/
# or send a letter to
# Creative Commons, PO Box 1866, Mountain View, CA 94042, USA.
#
# CIF created using the CSD Python API on 29 September 2022
# The structure has been converted into the P1 space group
# The structure has a 3D framework
# The original CSD entry IMIXEI is in the monoclinic crystal system
# The framework has been calculated to contain at least 10.0% void space
# The void calculation uses a probe of radius 1.32A, grid spacing 0.4
# The framework is charged, counterions have been retained in the structure
#
###############################################################################

data_IMIXEI
_chemical_formula_moiety         '(C72 H72 Cu12 N36 O10 12+)n'
_symmetry_cell_setting           triclinic
_symmetry_space_group_name_H-M   'P 1'
_symmetry_Int_Tables_number      1
_space_group_name_Hall           'P 1'
loop_
_symmetry_equiv_pos_site_id
_symmetry_equiv_pos_as_xyz
1 x,y,z
_cell_length_a                   14.0966(5)
_cell_length_b                   14.1845(7)
_cell_length_c                   24.6706(11)
_cell_angle_alpha                90
_cell_angle_beta                 92.5110(10)
_cell_angle_gamma                90
_cell_volume                     4928.23
loop_
_atom_site_label
_atom_site_type_symbol
_atom_site_fract_x
_atom_site_fract_y
_atom_site_fract_z
N5 N 0.0407(2) 0.2557(2) 0.18982(13)
C9 C 0.0639(2) 0.3182(2) 0.22844(14)
H9 H 0.1282 0.3239 0.2412
C11 C 0.0172(3) 0.4516(3) 0.28993(17)
C12 C 0.1176(3) 0.4756(3) 0.3074(2)
H10 H 0.1181 0.5099 0.3419
H11 H 0.1456 0.5152 0.2798
H12 H 0.1547 0.4175 0.3120
Cu4 Cu 0.14044(3) 0.16522(3) 0.16142(2)
N12 N 0.4059(2) 0.0129(3) 0.45913(16)
Cu1 Cu 0.85956(3) 0.66522(3) 0.33858(2)
Cu2 Cu 0.81741(3) 0.44552(4) 0.27765(2)
Cu3 Cu 0.52166(4) 0.96297(4) 0.42878(2)
N1 N 0.7671(2) 0.7668(2) 0.36012(14)
N2 N 0.6237(2) 0.8811(2) 0.39524(14)
N3 N 0.7440(3) 0.5898(3) 0.34244(16)
C1 C 0.7831(3) 0.8561(3) 0.36962(17)
H1 H 0.8447 0.8810 0.3648
C2 C 0.7108(3) 0.9161(3) 0.38695(18)
H2 H 0.7234 0.9812 0.3928
C3 C 0.6081(3) 0.7909(3) 0.38415(19)
H3 H 0.5461 0.7661 0.3879
C4 C 0.6780(3) 0.7322(3) 0.36758(16)
C5 C 0.6702(3) 0.6312(4) 0.3576(2)
C6 C 0.5717(4) 0.5787(4) 0.3610(3)
H4 H 0.5199 0.6237 0.3538
H5 H 0.5664 0.5517 0.3973
H6 H 0.5677 0.5282 0.3339
O1 O 0.73762(19) 0.4977(2) 0.33023(13)
N4 N 0.9058(2) 0.3657(2) 0.23489(14)
N6 N 0.9438(2) 0.4918(2) 0.30510(13)
C7 C 0.8812(3) 0.2999(3) 0.19856(18)
H7 H 0.8160 0.2910 0.1884
C8 C 0.9463(3) 0.2461(3) 0.17625(17)
H8 H 0.9265 0.1999 0.1502
C10 C 0.9950(2) 0.3755(3) 0.25033(15)
O2 O 0.95300(18) 0.56512(19) 0.34033(11)
N7 N 0.7105(2) 0.4457(2) 0.21864(13)
N8 N 0.5652(2) 0.4570(2) 0.13851(15)
N9 N 0.5941(2) 0.5129(3) 0.04087(16)
C13 C 0.6191(3) 0.4233(3) 0.22867(17)
H13 H 0.6027 0.4068 0.2644
C14 C 0.5500(3) 0.4245(3) 0.1872(2)
H14 H 0.4887 0.4008 0.1942
C15 C 0.6549(3) 0.4830(3) 0.12924(18)
C16 C 0.7277(3) 0.4772(3) 0.16838(17)
H15 H 0.7901 0.4956 0.1599
C17 C 0.6732(3) 0.5204(4) 0.0730(2)
C18 C 0.7667(4) 0.5520(5) 0.0561(2)
H16 H 0.8055 0.4970 0.0476
H17 H 0.7984 0.5879 0.0856
H18 H 0.7587 0.5921 0.0239
Cu5 Cu 0.47834(4) 0.46297(4) 0.07122(2)
N10 N 0.9593(2) 0.7557(2) 0.31018(13)
N11 N 0.4348(2) 0.9570(2) 0.36149(15)
O4 O 0.6040(2) 0.9485(3) 0.49185(14)
O3 O 0.6040(2) 0.5515(3) 0.99185(14)
Cu6 Cu 0.52166(4) 0.53703(4) 0.92878(2)
N1_2 N 0.2329(2) 0.2668(2) 0.13988(14)
N2_2 N 0.3763(2) 0.3811(2) 0.10476(14)
N3_2 N 0.2560(3) 0.0898(3) 0.15756(16)
C1_2 C 0.2169(3) 0.3561(3) 0.13038(17)
H1_2 H 0.1553 0.3810 0.1352
C2_2 C 0.2892(3) 0.4161(3) 0.11305(18)
H2_2 H 0.2766 0.4812 0.1072
C3_2 C 0.3919(3) 0.2909(3) 0.11585(19)
H3_2 H 0.4539 0.2661 0.1121
C4_2 C 0.3220(3) 0.2322(3) 0.13242(16)
C5_2 C 0.3298(3) 0.1312(4) 0.1424(2)
C6_2 C 0.4283(4) 0.0787(4) 0.1390(3)
H4_2 H 0.4801 0.1237 0.1462
H5_2 H 0.4336 0.0517 0.1027
H6_2 H 0.4323 0.0282 0.1661
O2_2 O 0.04700(18) 0.06512(19) 0.15967(11)
C17_2 C 0.3268(3) 0.0204(4) 0.4270(2)
C18_2 C 0.2333(4) 0.0520(5) 0.4439(2)
H17_2 H 0.2016 0.0879 0.4144
H18_2 H 0.2413 0.0921 0.4761
O3_2 O 0.3960(2) 0.0515(3) 0.50815(14)
Cu6_2 Cu 0.47834(4) 0.03703(4) 0.57122(2)
O4_2 O 0.3960(2) 0.4485(3) 0.00815(14)
Cu2_2 Cu 0.18259(3) 0.94552(4) 0.22235(2)
O1_2 O 0.26238(19) 0.9977(2) 0.16977(13)
N4_2 N 0.0942(2) 0.8657(2) 0.26511(14)
N6_2 N 0.0562(2) 0.9918(2) 0.19490(13)
C7_2 C 0.1188(3) 0.7999(3) 0.30144(18)
H7_2 H 0.1840 0.7910 0.3116
C8_2 C 0.0537(3) 0.7461(3) 0.32375(17)
H8_2 H 0.0735 0.6999 0.3498
C10_2 C 0.0050(2) 0.8755(3) 0.24967(15)
N7_2 N 0.2895(2) 0.9457(2) 0.28136(13)
C13_2 C 0.3809(3) 0.9233(3) 0.27133(17)
H13_2 H 0.3973 0.9068 0.2356
C14_2 C 0.4500(3) 0.9245(3) 0.3128(2)
H14_2 H 0.5113 0.9008 0.3058
C15_2 C 0.3451(3) 0.9830(3) 0.37076(18)
C16_2 C 0.2723(3) 0.9772(3) 0.33162(17)
H15_2 H 0.2099 0.9956 0.3401
H16_2 H 0.1945 0.9970 0.4524
C9_2 C 0.9361(2) 0.8182(2) 0.27156(14)
H9_2 H 0.8718 0.8239 0.2588
C11_2 C 0.9828(3) 0.9516(3) 0.21007(17)
C12_2 C 0.8824(3) 0.9756(3) 0.1926(2)
H12_2 H 0.8453 0.9175 0.1880
Cu1_2 Cu 0.14044(3) 0.33478(3) 0.66142(2)
Cu2_3 Cu 0.18259(3) 0.55448(4) 0.72235(2)
N1_3 N 0.2329(2) 0.2332(2) 0.63988(14)
N2_3 N 0.3763(2) 0.1189(2) 0.60476(14)
N3_3 N 0.2560(3) 0.4102(3) 0.65756(16)
C1_3 C 0.2169(3) 0.1439(3) 0.63038(17)
H1_3 H 0.1553 0.1190 0.6352
C2_3 C 0.2892(3) 0.0839(3) 0.61305(18)
H2_3 H 0.2766 0.0188 0.6072
C3_3 C 0.3919(3) 0.2091(3) 0.61585(19)
H3_3 H 0.4539 0.2339 0.6121
C4_3 C 0.3220(3) 0.2678(3) 0.63242(16)
C5_3 C 0.3298(3) 0.3688(4) 0.6424(2)
C6_3 C 0.4283(4) 0.4213(4) 0.6390(3)
H4_3 H 0.4801 0.3763 0.6462
H5_3 H 0.4336 0.4483 0.6027
H6_3 H 0.4323 0.4718 0.6661
O1_3 O 0.26238(19) 0.5023(2) 0.66977(13)
N4_3 N 0.0942(2) 0.6343(2) 0.76511(14)
N6_3 N 0.0562(2) 0.5082(2) 0.69490(13)
C7_3 C 0.1188(3) 0.7001(3) 0.80144(18)
H7_3 H 0.1840 0.7090 0.8116
C8_3 C 0.0537(3) 0.7539(3) 0.82375(17)
H8_3 H 0.0735 0.8001 0.8498
C10_3 C 0.0050(2) 0.6245(3) 0.74967(15)
O2_3 O 0.04700(18) 0.43488(19) 0.65967(11)
N7_3 N 0.2895(2) 0.5543(2) 0.78136(13)
N8_2 N 0.4348(2) 0.5430(2) 0.86149(15)
N9_2 N 0.4059(2) 0.4871(3) 0.95913(16)
C13_3 C 0.3809(3) 0.5767(3) 0.77133(17)
H13_3 H 0.3973 0.5932 0.7356
C14_3 C 0.4500(3) 0.5755(3) 0.8128(2)
H14_3 H 0.5113 0.5992 0.8058
C15_3 C 0.3451(3) 0.5170(3) 0.87076(18)
C16_3 C 0.2723(3) 0.5228(3) 0.83162(17)
H15_3 H 0.2099 0.5044 0.8401
C17_3 C 0.3268(3) 0.4796(4) 0.9270(2)
C18_3 C 0.2333(4) 0.4480(5) 0.9439(2)
H16_3 H 0.1945 0.5030 0.9524
H17_3 H 0.2016 0.4121 0.9144
H18_3 H 0.2413 0.4079 0.9761
N10_2 N 0.0407(2) 0.2443(2) 0.68982(13)
N11_2 N 0.5652(2) 0.0430(2) 0.63851(15)
N12_2 N 0.5941(2) 0.9871(3) 0.54087(16)
N5_2 N 0.9593(2) 0.7443(2) 0.81018(13)
C9_3 C 0.9361(2) 0.6818(2) 0.77156(14)
H9_3 H 0.8718 0.6761 0.7588
C11_3 C 0.9828(3) 0.5484(3) 0.71007(17)
C12_3 C 0.8824(3) 0.5244(3) 0.6926(2)
H10_2 H 0.8819 0.4901 0.6581
H11_2 H 0.8544 0.4848 0.7202
H12_3 H 0.8453 0.5825 0.6880
Cu4_2 Cu 0.85956(3) 0.83478(3) 0.83858(2)
C9_4 C 0.0639(2) 0.1818(2) 0.72844(14)
H9_4 H 0.1282 0.1761 0.7412
C11_4 C 0.0172(3) 0.0484(3) 0.78993(17)
C12_4 C 0.1176(3) 0.0244(3) 0.8074(2)
H12_4 H 0.1547 0.0825 0.8120
Cu2_4 Cu 0.81741(3) 0.05448(4) 0.77765(2)
O1_4 O 0.73762(19) 0.0023(2) 0.83023(13)
N4_4 N 0.9058(2) 0.1343(2) 0.73489(14)
N6_4 N 0.9438(2) 0.0082(2) 0.80510(13)
C7_4 C 0.8812(3) 0.2001(3) 0.69856(18)
H7_4 H 0.8160 0.2090 0.6884
C8_4 C 0.9463(3) 0.2539(3) 0.67625(17)
H8_4 H 0.9265 0.3001 0.6502
C10_4 C 0.9950(2) 0.1245(3) 0.75033(15)
N7_4 N 0.7105(2) 0.0543(2) 0.71864(13)
C13_4 C 0.6191(3) 0.0767(3) 0.72867(17)
H13_4 H 0.6027 0.0932 0.7644
C14_4 C 0.5500(3) 0.0755(3) 0.6872(2)
H14_4 H 0.4887 0.0992 0.6942
C15_4 C 0.6549(3) 0.0170(3) 0.62924(18)
C16_4 C 0.7277(3) 0.0228(3) 0.66838(17)
H15_4 H 0.7901 0.0044 0.6599
H16_4 H 0.8055 0.0030 0.5476
N1_4 N 0.7671(2) 0.7332(2) 0.86012(14)
N2_4 N 0.6237(2) 0.6189(2) 0.89524(14)
N3_4 N 0.7440(3) 0.9102(3) 0.84244(16)
C1_4 C 0.7831(3) 0.6439(3) 0.86962(17)
H1_4 H 0.8447 0.6190 0.8648
C2_4 C 0.7108(3) 0.5839(3) 0.88695(18)
H2_4 H 0.7234 0.5188 0.8928
C3_4 C 0.6081(3) 0.7091(3) 0.88415(19)
H3_4 H 0.5461 0.7339 0.8879
C4_4 C 0.6780(3) 0.7678(3) 0.86758(16)
C5_4 C 0.6702(3) 0.8688(4) 0.8576(2)
C6_4 C 0.5717(4) 0.9213(4) 0.8610(3)
H4_4 H 0.5199 0.8763 0.8538
H5_4 H 0.5664 0.9483 0.8973
H6_4 H 0.5677 0.9718 0.8339
O2_4 O 0.95300(18) 0.93488(19) 0.84033(11)
C17_4 C 0.6732(3) 0.9796(4) 0.5730(2)
C18_4 C 0.7667(4) 0.9480(5) 0.5561(2)
H17_4 H 0.7984 0.9121 0.5856
H18_4 H 0.7587 0.9079 0.5239
H10_3 H 0.8819 0.0099 0.1581
H11_3 H 0.8544 0.0152 0.2202
H10_4 H 0.1181 0.9901 0.8419
H11_4 H 0.1456 0.9848 0.7798
loop_
_geom_bond_atom_site_label_1
_geom_bond_atom_site_label_2
_geom_bond_site_symmetry_1
_geom_bond_site_symmetry_2
C9 N5 1_555 1_555
H9 C9 1_555 1_555
C12 C11 1_555 1_555
H10 C12 1_555 1_555
H11 C12 1_555 1_555
H12 C12 1_555 1_555
Cu4 N5 1_555 1_555
Cu1 N1 1_555 1_555
Cu2 O1 1_555 1_555
Cu3 N2 1_555 1_555
N1 C1 1_555 1_555
N2 C2 1_555 1_555
N3 Cu1 1_555 1_555
C1 H1 1_555 1_555
C2 C1 1_555 1_555
H2 C2 1_555 1_555
C3 N2 1_555 1_555
H3 C3 1_555 1_555
C4 N1 1_555 1_555
C5 N3 1_555 1_555
C6 C5 1_555 1_555
H4 C6 1_555 1_555
H5 C6 1_555 1_555
H6 C6 1_555 1_555
O1 N3 1_555 1_555
N4 Cu2 1_555 1_555
N6 Cu2 1_555 1_555
C7 N4 1_555 1_555
H7 C7 1_555 1_555
C8 C7 1_555 1_555
H8 C8 1_555 1_555
C10 N4 1_555 1_555
O2 Cu1 1_555 1_555
N7 Cu2 1_555 1_555
N8 C14 1_555 1_555
N9 C17 1_555 1_555
C13 N7 1_555 1_555
H13 C13 1_555 1_555
C14 C13 1_555 1_555
H14 C14 1_555 1_555
C15 N8 1_555 1_555
C16 N7 1_555 1_555
H15 C16 1_555 1_555
C17 C15 1_555 1_555
C18 C17 1_555 1_555
H16 C18 1_555 1_555
H17 C18 1_555 1_555
H18 C18 1_555 1_555
Cu5 N8 1_555 1_555
N10 Cu1 1_555 1_555
N11 Cu3 1_555 1_555
O4 Cu3 1_555 1_555
C3 C4 1_555 1_555
C4 C5 1_555 1_555
N6 O2 1_555 1_555
N9 Cu5 1_555 1_555
C15 C16 1_555 1_555
Cu6 O3 1_555 1_555
Cu4 N1_2 1_555 1_555
Cu5 N2_2 1_555 1_555
N1_2 C1_2 1_555 1_555
N2_2 C2_2 1_555 1_555
N3_2 Cu4 1_555 1_555
C1_2 H1_2 1_555 1_555
C2_2 C1_2 1_555 1_555
H2_2 C2_2 1_555 1_555
C3_2 N2_2 1_555 1_555
H3_2 C3_2 1_555 1_555
C4_2 N1_2 1_555 1_555
C5_2 N3_2 1_555 1_555
C6_2 C5_2 1_555 1_555
H4_2 C6_2 1_555 1_555
H5_2 C6_2 1_555 1_555
H6_2 C6_2 1_555 1_555
O2_2 Cu4 1_555 1_555
N12 C17_2 1_555 1_555
C18_2 C17_2 1_555 1_555
H17_2 C18_2 1_555 1_555
H18_2 C18_2 1_555 1_555
O3_2 N12 1_555 1_555
Cu6_2 O3_2 1_555 1_555
O4_2 Cu5 1_555 1_555
C3_2 C4_2 1_555 1_555
C4_2 C5_2 1_555 1_555
Cu2_2 O1_2 1_555 1_555
N4_2 Cu2_2 1_555 1_555
N6_2 Cu2_2 1_555 1_555
C7_2 N4_2 1_555 1_555
H7_2 C7_2 1_555 1_555
C8_2 C7_2 1_555 1_555
H8_2 C8_2 1_555 1_555
C10_2 N4_2 1_555 1_555
N7_2 Cu2_2 1_555 1_555
N11 C14_2 1_555 1_555
C13_2 N7_2 1_555 1_555
H13_2 C13_2 1_555 1_555
C14_2 C13_2 1_555 1_555
H14_2 C14_2 1_555 1_555
C15_2 N11 1_555 1_555
C16_2 N7_2 1_555 1_555
H15_2 C16_2 1_555 1_555
C15_2 C16_2 1_555 1_555
C9_2 N10 1_555 1_555
H9_2 C9_2 1_555 1_555
C12_2 C11_2 1_555 1_555
H12_2 C12_2 1_555 1_555
Cu1_2 N1_3 1_555 1_555
Cu2_3 O1_3 1_555 1_555
Cu6_2 N2_3 1_555 1_555
N1_3 C1_3 1_555 1_555
N2_3 C2_3 1_555 1_555
N3_3 Cu1_2 1_555 1_555
C1_3 H1_3 1_555 1_555
C2_3 C1_3 1_555 1_555
H2_3 C2_3 1_555 1_555
C3_3 N2_3 1_555 1_555
H3_3 C3_3 1_555 1_555
C4_3 N1_3 1_555 1_555
C5_3 N3_3 1_555 1_555
C6_3 C5_3 1_555 1_555
H4_3 C6_3 1_555 1_555
H5_3 C6_3 1_555 1_555
H6_3 C6_3 1_555 1_555
O1_3 N3_3 1_555 1_555
N4_3 Cu2_3 1_555 1_555
N6_3 Cu2_3 1_555 1_555
C7_3 N4_3 1_555 1_555
H7_3 C7_3 1_555 1_555
C8_3 C7_3 1_555 1_555
H8_3 C8_3 1_555 1_555
C10_3 N4_3 1_555 1_555
O2_3 Cu1_2 1_555 1_555
N7_3 Cu2_3 1_555 1_555
N8_2 C14_3 1_555 1_555
N9_2 C17_3 1_555 1_555
C13_3 N7_3 1_555 1_555
H13_3 C13_3 1_555 1_555
C14_3 C13_3 1_555 1_555
H14_3 C14_3 1_555 1_555
C15_3 N8_2 1_555 1_555
C16_3 N7_3 1_555 1_555
H15_3 C16_3 1_555 1_555
C17_3 C15_3 1_555 1_555
C18_3 C17_3 1_555 1_555
H16_3 C18_3 1_555 1_555
H17_3 C18_3 1_555 1_555
H18_3 C18_3 1_555 1_555
Cu6 N8_2 1_555 1_555
N10_2 Cu1_2 1_555 1_555
N11_2 Cu6_2 1_555 1_555
C3_3 C4_3 1_555 1_555
C4_3 C5_3 1_555 1_555
N6_3 O2_3 1_555 1_555
N9_2 Cu6 1_555 1_555
C15_3 C16_3 1_555 1_555
C9_3 N5_2 1_555 1_555
H9_3 C9_3 1_555 1_555
C12_3 C11_3 1_555 1_555
H10_2 C12_3 1_555 1_555
H11_2 C12_3 1_555 1_555
H12_3 C12_3 1_555 1_555
Cu4_2 N5_2 1_555 1_555
C9_4 N10_2 1_555 1_555
H9_4 C9_4 1_555 1_555
C12_4 C11_4 1_555 1_555
H12_4 C12_4 1_555 1_555
Cu2_4 O1_4 1_555 1_555
N4_4 Cu2_4 1_555 1_555
N6_4 Cu2_4 1_555 1_555
C7_4 N4_4 1_555 1_555
H7_4 C7_4 1_555 1_555
C8_4 C7_4 1_555 1_555
H8_4 C8_4 1_555 1_555
C10_4 N4_4 1_555 1_555
N7_4 Cu2_4 1_555 1_555
N11_2 C14_4 1_555 1_555
C13_4 N7_4 1_555 1_555
H13_4 C13_4 1_555 1_555
C14_4 C13_4 1_555 1_555
H14_4 C14_4 1_555 1_555
C15_4 N11_2 1_555 1_555
C16_4 N7_4 1_555 1_555
H15_4 C16_4 1_555 1_555
C15_4 C16_4 1_555 1_555
Cu4_2 N1_4 1_555 1_555
Cu6 N2_4 1_555 1_555
N1_4 C1_4 1_555 1_555
N2_4 C2_4 1_555 1_555
N3_4 Cu4_2 1_555 1_555
C1_4 H1_4 1_555 1_555
C2_4 C1_4 1_555 1_555
H2_4 C2_4 1_555 1_555
C3_4 N2_4 1_555 1_555
H3_4 C3_4 1_555 1_555
C4_4 N1_4 1_555 1_555
C5_4 N3_4 1_555 1_555
C6_4 C5_4 1_555 1_555
H4_4 C6_4 1_555 1_555
H5_4 C6_4 1_555 1_555
H6_4 C6_4 1_555 1_555
O2_4 Cu4_2 1_555 1_555
N12_2 C17_4 1_555 1_555
C18_4 C17_4 1_555 1_555
H17_4 C18_4 1_555 1_555
H18_4 C18_4 1_555 1_555
O4 N12_2 1_555 1_555
C3_4 C4_4 1_555 1_555
C4_4 C5_4 1_555 1_555

#END
