
###############################################################################
#
# This file contains modified crystal structure data generated from the
# MOF subset of the Cambridge Structural Database (CSD) v543 
# hosted by the Cambridge Crystallographic Data Centre (CCDC).
#
# This work is licensed under the Creative Commons
# Attribution-NonCommercial-ShareAlike 4.0 International License.
# To view a copy of this license, visit
# http://creativecommons.org/licenses/by-nc-sa/4.0/
# or send a letter to
# Creative Commons, PO Box 1866, Mountain View, CA 94042, USA.
#
# CIF created using the CSD Python API on 29 September 2022
# The structure has been converted into the P1 space group
# The structure has a 3D framework
# The original CSD entry IMOXEQ is in the orthorhombic crystal system
# The framework has been calculated to contain at least 10.0% void space
# The void calculation uses a probe of radius 1.32A, grid spacing 0.4
#
###############################################################################

data_IMOXEQ
_chemical_formula_moiety         '(C360 H280 B8 Cd8 F16 N32 O48)n'
_symmetry_cell_setting           triclinic
_symmetry_space_group_name_H-M   'P 1'
_symmetry_Int_Tables_number      1
_space_group_name_Hall           'P 1'
loop_
_symmetry_equiv_pos_site_id
_symmetry_equiv_pos_as_xyz
1 x,y,z
_cell_length_a                   28.990(6)
_cell_length_b                   19.907(4)
_cell_length_c                   17.110(3)
_cell_angle_alpha                90
_cell_angle_beta                 90
_cell_angle_gamma                90
_cell_volume                     9874.25
loop_
_atom_site_label
_atom_site_type_symbol
_atom_site_fract_x
_atom_site_fract_y
_atom_site_fract_z
Cd1 Cd 0.04408(2) 0.34130(2) 0.16573(2)
N4 N 0.04705(12) 0.22589(16) 0.1762(2)
H18 H 0.144068 0.040078 0.212558
C24 C 0.05661(16) 0.0109(2) 0.1736(3)
C27 C 0.05384(16) 0.0850(2) 0.1750(3)
C28 C 0.07111(16) 0.1233(2) 0.2372(3)
H24 H 0.085478 0.101829 0.280410
C29 C 0.06710(16) 0.1925(2) 0.2353(3)
H25 H 0.079122 0.217680 0.277824
C30 C 0.03148(16) 0.1901(2) 0.1165(3)
H26 H 0.017529 0.212964 0.073909
C31 C 0.03466(17) 0.1202(2) 0.1135(3)
H27 H 0.023596 0.096680 0.068935
O7 O 0.04105(9) 0.34159(14) 0.30452(16)
O8 O 0.09356(10) 0.33348(19) 0.05120(19)
O9 O 0.12484(10) 0.3454(2) 0.16705(19)
N5 N 0.04210(11) 0.45693(15) 0.1700(2)
B1 B 0.00436(18) 0.8433(2) 0.1272(3)
O1 O 0.28854(13) 0.8493(2) 0.3928(2)
O2 O 0.31857(13) 0.8439(2) 0.2722(3)
N2 N 0.03154(12) 0.77965(16) 0.1516(2)
N3 N 0.03331(12) 0.90452(17) 0.1536(2)
C1 C 0.02643(17) 0.4939(2) 0.1105(3)
H1 H 0.012868 0.471367 0.067272
C2 C 0.02892(18) 0.5633(2) 0.1085(3)
H2 H 0.017662 0.587413 0.064527
C3 C 0.04811(15) 0.59751(19) 0.1717(3)
C4 C 0.06385(16) 0.5592(2) 0.2335(3)
H3 H 0.076778 0.580495 0.278134
C5 C 0.06083(15) 0.4898(2) 0.2306(3)
H4 H 0.072492 0.464482 0.273301
C7 C 0.01649(15) 0.71587(19) 0.1437(2)
C8 C 0.05111(15) 0.67189(19) 0.1718(2)
C9 C 0.08838(15) 0.7110(2) 0.1972(3)
C10 C 0.13263(16) 0.6842(2) 0.2320(3)
H8 H 0.129837 0.682717 0.289019
H9 H 0.158289 0.713774 0.217476
H10 H 0.138464 0.638894 0.211981
C11 C 0.07602(15) 0.7794(2) 0.1834(3)
C12 C 0.09914(15) 0.8401(2) 0.1971(3)
C13 C 0.07815(16) 0.9023(2) 0.1826(3)
C14 C 0.14711(15) 0.8384(2) 0.2289(3)
C15 C 0.15436(16) 0.8411(2) 0.3093(3)
H11 H 0.128857 0.842239 0.344111
C16 C 0.19953(17) 0.8422(3) 0.3385(3)
H12 H 0.204723 0.844307 0.393227
C17 C 0.23662(16) 0.8402(2) 0.2874(3)
C18 C 0.22929(17) 0.8358(3) 0.2078(3)
H13 H 0.254834 0.833155 0.173111
C19 C 0.18459(17) 0.8352(2) 0.1782(3)
H14 H 0.179644 0.832522 0.123410
C20 C 0.28559(17) 0.8445(3) 0.3154(3)
C21 C 0.3355(2) 0.8566(3) 0.4229(4)
H15 H 0.354790 0.820150 0.402727
H16 H 0.334941 0.854784 0.480143
H17 H 0.348151 0.899907 0.406042
C22 C 0.13925(17) 0.9929(2) 0.2268(3)
H19 H 0.163848 0.965378 0.204091
H20 H 0.139765 0.988432 0.283863
C23 C 0.09315(16) 0.9696(2) 0.1960(3)
C25 C 0.02058(16) 0.9690(2) 0.1478(3)
O3 O 0.95895(9) 0.34159(14) 0.19548(16)
O4 O 0.98377(9) 0.33669(15) 0.07380(17)
H22 H 0.966577 0.034876 0.134184
C32 C 0.95186(12) 0.33621(18) 0.1236(2)
C33 C 0.90297(14) 0.3276(2) 0.0946(2)
C34 C 0.86551(14) 0.3363(2) 0.1455(3)
H28 H 0.870253 0.345268 0.199464
C35 C 0.82044(15) 0.3314(3) 0.1142(3)
H29 H 0.794788 0.337573 0.147972
C36 C 0.81246(14) 0.3180(2) 0.0361(3)
C38 C 0.89510(15) 0.3110(2) 0.0167(3)
C39 C 0.76483(14) 0.3181(2) 0.0030(3)
C40 C 0.72612(16) 0.3158(3) 0.0507(3)
H32 H 0.729816 0.310170 0.105478
C41 C 0.68192(16) 0.3216(3) 0.0194(3)
H33 H 0.655976 0.320650 0.053317
Cd3 Cd 0.95592(2) 0.34130(2) 0.33427(2)
O5 O 0.59356(10) 0.33348(19) 0.94880(19)
O6 O 0.62484(10) 0.3454(2) 0.83295(19)
C37 C 0.85033(15) 0.3058(3) 0.9882(3)
H30 H 0.845523 0.293764 0.935085
H31 H 0.920491 0.303102 0.982853
C42 C 0.67520(14) 0.3288(2) 0.9397(3)
C43 C 0.71353(17) 0.3289(3) 0.8917(3)
H34 H 0.709725 0.332341 0.836675
C44 C 0.75758(17) 0.3239(4) 0.9231(3)
H35 H 0.783440 0.324497 0.889048
C45 C 0.62803(13) 0.3364(2) 0.9053(3)
Cd4 Cd 0.54408(2) 0.34130(2) 0.83427(2)
O4_2 O 0.01623(9) 0.33669(15) 0.42620(17)
O5_2 O 0.40644(10) 0.33348(19) 0.55120(19)
O6_2 O 0.37516(10) 0.3454(2) 0.66705(19)
H22_2 H 0.033423 0.034876 0.365816
C32_2 C 0.04814(12) 0.33621(18) 0.3764(2)
C33_2 C 0.09703(14) 0.3276(2) 0.4054(2)
C34_2 C 0.13449(14) 0.3363(2) 0.3545(3)
H28_2 H 0.129747 0.345268 0.300536
C35_2 C 0.17956(15) 0.3314(3) 0.3858(3)
H29_2 H 0.205212 0.337573 0.352028
C36_2 C 0.18754(14) 0.3180(2) 0.4639(3)
C37_2 C 0.14967(15) 0.3058(3) 0.5118(3)
H30_2 H 0.154477 0.293764 0.564915
C38_2 C 0.10490(15) 0.3110(2) 0.4833(3)
H31_2 H 0.079509 0.303102 0.517147
C39_2 C 0.23517(14) 0.3181(2) 0.4970(3)
C40_2 C 0.27388(16) 0.3158(3) 0.4493(3)
H32_2 H 0.270184 0.310170 0.394522
C41_2 C 0.31808(16) 0.3216(3) 0.4806(3)
H33_2 H 0.344024 0.320650 0.446683
C42_2 C 0.32480(14) 0.3288(2) 0.5603(3)
C43_2 C 0.28647(17) 0.3289(3) 0.6083(3)
H34_2 H 0.290275 0.332341 0.663325
C44_2 C 0.24242(17) 0.3239(4) 0.5769(3)
H35_2 H 0.216560 0.324497 0.610952
C45_2 C 0.37197(13) 0.3364(2) 0.5947(3)
Cd4_2 Cd 0.45592(2) 0.34130(2) 0.66573(2)
N4_2 N 0.95295(12) 0.22589(16) 0.3238(2)
H18_2 H 0.855932 0.040078 0.287442
C24_2 C 0.94339(16) 0.0109(2) 0.3264(3)
C27_2 C 0.94616(16) 0.0850(2) 0.3250(3)
C28_2 C 0.92889(16) 0.1233(2) 0.2628(3)
H24_2 H 0.914522 0.101829 0.219590
C29_2 C 0.93290(16) 0.1925(2) 0.2647(3)
H25_2 H 0.920878 0.217680 0.222176
C30_2 C 0.96852(16) 0.1901(2) 0.3835(3)
H26_2 H 0.982471 0.212964 0.426091
C31_2 C 0.96534(17) 0.1202(2) 0.3865(3)
H27_2 H 0.976404 0.096680 0.431065
O8_2 O 0.90644(10) 0.33348(19) 0.44880(19)
O9_2 O 0.87516(10) 0.3454(2) 0.33295(19)
N5_2 N 0.95790(11) 0.45693(15) 0.3300(2)
B1_2 B 0.99564(18) 0.8433(2) 0.3728(3)
O1_2 O 0.71146(13) 0.8493(2) 0.1072(2)
O2_2 O 0.68143(13) 0.8439(2) 0.2278(3)
N2_2 N 0.96846(12) 0.77965(16) 0.3484(2)
N3_2 N 0.96669(12) 0.90452(17) 0.3464(2)
C1_2 C 0.97357(17) 0.4939(2) 0.3895(3)
H1_2 H 0.987132 0.471367 0.432728
C2_2 C 0.97108(18) 0.5633(2) 0.3915(3)
H2_2 H 0.982338 0.587413 0.435473
C3_2 C 0.95189(15) 0.59751(19) 0.3283(3)
C4_2 C 0.93615(16) 0.5592(2) 0.2665(3)
H3_2 H 0.923222 0.580495 0.221866
C5_2 C 0.93917(15) 0.4898(2) 0.2694(3)
H4_2 H 0.927508 0.464482 0.226699
C7_2 C 0.98351(15) 0.71587(19) 0.3563(2)
C8_2 C 0.94889(15) 0.67189(19) 0.3282(2)
C9_2 C 0.91162(15) 0.7110(2) 0.3028(3)
C10_2 C 0.86737(16) 0.6842(2) 0.2680(3)
H8_2 H 0.870163 0.682717 0.210981
H9_2 H 0.841711 0.713774 0.282524
H10_2 H 0.861536 0.638894 0.288019
C11_2 C 0.92398(15) 0.7794(2) 0.3166(3)
C12_2 C 0.90086(15) 0.8401(2) 0.3029(3)
C13_2 C 0.92185(16) 0.9023(2) 0.3174(3)
C14_2 C 0.85289(15) 0.8384(2) 0.2711(3)
C15_2 C 0.84564(16) 0.8411(2) 0.1907(3)
H11_2 H 0.871143 0.842239 0.155889
C16_2 C 0.80047(17) 0.8422(3) 0.1615(3)
H12_2 H 0.795277 0.844307 0.106773
C17_2 C 0.76338(16) 0.8402(2) 0.2126(3)
C18_2 C 0.77071(17) 0.8358(3) 0.2922(3)
H13_2 H 0.745166 0.833155 0.326889
C19_2 C 0.81541(17) 0.8352(2) 0.3218(3)
H14_2 H 0.820356 0.832522 0.376590
C20_2 C 0.71441(17) 0.8445(3) 0.1846(3)
C21_2 C 0.6645(2) 0.8566(3) 0.0771(4)
H15_2 H 0.645210 0.820150 0.097273
H16_2 H 0.665059 0.854784 0.019857
H17_2 H 0.651849 0.899907 0.093958
C22_2 C 0.86075(17) 0.9929(2) 0.2732(3)
H19_2 H 0.836152 0.965378 0.295909
H20_2 H 0.860235 0.988432 0.216137
C23_2 C 0.90685(16) 0.9696(2) 0.3040(3)
C25_2 C 0.97942(16) 0.9690(2) 0.3522(3)
C37_3 C 0.35033(15) 0.3058(3) 0.0118(3)
H30_3 H 0.345523 0.293764 0.064915
H31_3 H 0.420491 0.303102 0.017147
C42_3 C 0.17520(14) 0.3288(2) 0.0603(3)
C43_3 C 0.21353(17) 0.3289(3) 0.1083(3)
H34_3 H 0.209725 0.332341 0.163325
C44_3 C 0.25758(17) 0.3239(4) 0.0769(3)
H35_3 H 0.283440 0.324497 0.110952
C45_3 C 0.12803(13) 0.3364(2) 0.0947(3)
O3_2 O 0.45895(9) 0.34159(14) 0.80452(16)
O4_3 O 0.48377(9) 0.33669(15) 0.92620(17)
N4_3 N 0.54705(12) 0.22589(16) 0.8238(2)
H18_3 H 0.644068 0.040078 0.787442
C24_3 C 0.55661(16) 0.0109(2) 0.8264(3)
H22_3 H 0.466577 0.034876 0.865816
C27_3 C 0.55384(16) 0.0850(2) 0.8250(3)
C28_3 C 0.57111(16) 0.1233(2) 0.7628(3)
H24_3 H 0.585478 0.101829 0.719590
C29_3 C 0.56710(16) 0.1925(2) 0.7647(3)
H25_3 H 0.579122 0.217680 0.722176
C30_3 C 0.53148(16) 0.1901(2) 0.8835(3)
H26_3 H 0.517529 0.212964 0.926091
C31_3 C 0.53466(17) 0.1202(2) 0.8865(3)
H27_3 H 0.523596 0.096680 0.931065
C32_3 C 0.45186(12) 0.33621(18) 0.8764(2)
C33_3 C 0.40297(14) 0.3276(2) 0.9054(2)
C34_3 C 0.36551(14) 0.3363(2) 0.8545(3)
H28_3 H 0.370253 0.345268 0.800536
C35_3 C 0.32044(15) 0.3314(3) 0.8858(3)
H29_3 H 0.294788 0.337573 0.852028
C36_3 C 0.31246(14) 0.3180(2) 0.9639(3)
C38_3 C 0.39510(15) 0.3110(2) 0.9833(3)
C39_3 C 0.26483(14) 0.3181(2) 0.9970(3)
C40_3 C 0.22612(16) 0.3158(3) 0.9493(3)
H32_3 H 0.229816 0.310170 0.894522
C41_3 C 0.18192(16) 0.3216(3) 0.9806(3)
H33_3 H 0.155976 0.320650 0.946683
O7_2 O 0.54105(9) 0.34159(14) 0.69548(16)
N5_3 N 0.54210(11) 0.45693(15) 0.8300(2)
B1_3 B 0.50436(18) 0.8433(2) 0.8728(3)
F1 F 0.46139(9) 0.84408(13) 0.8368(2)
F2 F 0.49880(13) 0.84469(13) 0.95265(17)
O1_3 O 0.78854(13) 0.8493(2) 0.6072(2)
O2_3 O 0.81857(13) 0.8439(2) 0.7278(3)
N2_3 N 0.53154(12) 0.77965(16) 0.8484(2)
N3_3 N 0.53331(12) 0.90452(17) 0.8464(2)
C1_3 C 0.52643(17) 0.4939(2) 0.8895(3)
H1_3 H 0.512868 0.471367 0.932728
C2_3 C 0.52892(18) 0.5633(2) 0.8915(3)
H2_3 H 0.517662 0.587413 0.935473
C3_3 C 0.54811(15) 0.59751(19) 0.8283(3)
C4_3 C 0.56385(16) 0.5592(2) 0.7665(3)
H3_3 H 0.576778 0.580495 0.721866
C5_3 C 0.56083(15) 0.4898(2) 0.7694(3)
H4_3 H 0.572492 0.464482 0.726699
C6 C 0.47044(16) 0.6996(2) 0.8895(3)
H5 H 0.447928 0.733123 0.872130
H6 H 0.460829 0.654960 0.871558
H7 H 0.472216 0.699881 0.946686
C7_3 C 0.51649(15) 0.71587(19) 0.8563(2)
C8_3 C 0.55111(15) 0.67189(19) 0.8282(2)
C9_3 C 0.58838(15) 0.7110(2) 0.8028(3)
C10_3 C 0.63263(16) 0.6842(2) 0.7680(3)
H8_3 H 0.629837 0.682717 0.710981
H9_3 H 0.658289 0.713774 0.782524
H10_3 H 0.638464 0.638894 0.788019
C11_3 C 0.57602(15) 0.7794(2) 0.8166(3)
C12_3 C 0.59914(15) 0.8401(2) 0.8029(3)
C13_3 C 0.57815(16) 0.9023(2) 0.8174(3)
C14_3 C 0.64711(15) 0.8384(2) 0.7711(3)
C15_3 C 0.65436(16) 0.8411(2) 0.6907(3)
H11_3 H 0.628857 0.842239 0.655889
C16_3 C 0.69953(17) 0.8422(3) 0.6615(3)
H12_3 H 0.704723 0.844307 0.606773
C17_3 C 0.73662(16) 0.8402(2) 0.7126(3)
C18_3 C 0.72929(17) 0.8358(3) 0.7922(3)
H13_3 H 0.754834 0.833155 0.826889
C19_3 C 0.68459(17) 0.8352(2) 0.8218(3)
H14_3 H 0.679644 0.832522 0.876590
C20_3 C 0.78559(17) 0.8445(3) 0.6846(3)
C21_3 C 0.8355(2) 0.8566(3) 0.5771(4)
H15_3 H 0.854790 0.820150 0.597273
H16_3 H 0.834941 0.854784 0.519857
H17_3 H 0.848151 0.899907 0.593958
C22_3 C 0.63925(17) 0.9929(2) 0.7732(3)
H19_3 H 0.663848 0.965378 0.795909
H20_3 H 0.639765 0.988432 0.716137
C23_3 C 0.59315(16) 0.9696(2) 0.8040(3)
C25_3 C 0.52058(16) 0.9690(2) 0.8522(3)
C26 C 0.47338(16) 0.9886(2) 0.8817(3)
H21 H 0.472743 0.985427 0.938816
H23 H 0.450177 0.958306 0.859504
O4_4 O 0.51623(9) 0.33669(15) 0.57380(17)
N4_4 N 0.45295(12) 0.22589(16) 0.6762(2)
H18_4 H 0.355932 0.040078 0.712558
C24_4 C 0.44339(16) 0.0109(2) 0.6736(3)
H22_4 H 0.533423 0.034876 0.634184
C27_4 C 0.44616(16) 0.0850(2) 0.6750(3)
C28_4 C 0.42889(16) 0.1233(2) 0.7372(3)
H24_4 H 0.414522 0.101829 0.780410
C29_4 C 0.43290(16) 0.1925(2) 0.7353(3)
H25_4 H 0.420878 0.217680 0.777824
C30_4 C 0.46852(16) 0.1901(2) 0.6165(3)
H26_4 H 0.482471 0.212964 0.573909
C31_4 C 0.46534(17) 0.1202(2) 0.6135(3)
H27_4 H 0.476404 0.096680 0.568935
C32_4 C 0.54814(12) 0.33621(18) 0.6236(2)
C33_4 C 0.59703(14) 0.3276(2) 0.5946(2)
C34_4 C 0.63449(14) 0.3363(2) 0.6455(3)
H28_4 H 0.629747 0.345268 0.699464
C35_4 C 0.67956(15) 0.3314(3) 0.6142(3)
H29_4 H 0.705212 0.337573 0.647972
C36_4 C 0.68754(14) 0.3180(2) 0.5361(3)
C37_4 C 0.64967(15) 0.3058(3) 0.4882(3)
H30_4 H 0.654477 0.293764 0.435085
C38_4 C 0.60490(15) 0.3110(2) 0.5167(3)
H31_4 H 0.579509 0.303102 0.482853
C39_4 C 0.73517(14) 0.3181(2) 0.5030(3)
C40_4 C 0.77388(16) 0.3158(3) 0.5507(3)
H32_4 H 0.770184 0.310170 0.605478
C41_4 C 0.81808(16) 0.3216(3) 0.5194(3)
H33_4 H 0.844024 0.320650 0.553317
C42_4 C 0.82480(14) 0.3288(2) 0.4397(3)
C43_4 C 0.78647(17) 0.3289(3) 0.3917(3)
H34_4 H 0.790275 0.332341 0.336675
C44_4 C 0.74242(17) 0.3239(4) 0.4231(3)
H35_4 H 0.716560 0.324497 0.389048
C45_4 C 0.87197(13) 0.3364(2) 0.4053(3)
N5_4 N 0.45790(11) 0.45693(15) 0.6700(2)
B1_4 B 0.49564(18) 0.8433(2) 0.6272(3)
F1_2 F 0.53861(9) 0.84408(13) 0.6632(2)
F2_2 F 0.50120(13) 0.84469(13) 0.54735(17)
O1_4 O 0.21146(13) 0.8493(2) 0.8928(2)
O2_4 O 0.18143(13) 0.8439(2) 0.7722(3)
N2_4 N 0.46846(12) 0.77965(16) 0.6516(2)
N3_4 N 0.46669(12) 0.90452(17) 0.6536(2)
C1_4 C 0.47357(17) 0.4939(2) 0.6105(3)
H1_4 H 0.487132 0.471367 0.567272
C2_4 C 0.47108(18) 0.5633(2) 0.6085(3)
H2_4 H 0.482338 0.587413 0.564527
C3_4 C 0.45189(15) 0.59751(19) 0.6717(3)
C4_4 C 0.43615(16) 0.5592(2) 0.7335(3)
H3_4 H 0.423222 0.580495 0.778134
C5_4 C 0.43917(15) 0.4898(2) 0.7306(3)
H4_4 H 0.427508 0.464482 0.773301
C6_2 C 0.52956(16) 0.6996(2) 0.6105(3)
H5_2 H 0.552072 0.733123 0.627870
H6_2 H 0.539171 0.654960 0.628442
H7_2 H 0.527784 0.699881 0.553314
C7_4 C 0.48351(15) 0.71587(19) 0.6437(2)
C8_4 C 0.44889(15) 0.67189(19) 0.6718(2)
C9_4 C 0.41162(15) 0.7110(2) 0.6972(3)
C10_4 C 0.36737(16) 0.6842(2) 0.7320(3)
H8_4 H 0.370163 0.682717 0.789019
H9_4 H 0.341711 0.713774 0.717476
H10_4 H 0.361536 0.638894 0.711981
C11_4 C 0.42398(15) 0.7794(2) 0.6834(3)
C12_4 C 0.40086(15) 0.8401(2) 0.6971(3)
C13_4 C 0.42185(16) 0.9023(2) 0.6826(3)
C14_4 C 0.35289(15) 0.8384(2) 0.7289(3)
C15_4 C 0.34564(16) 0.8411(2) 0.8093(3)
H11_4 H 0.371143 0.842239 0.844111
C16_4 C 0.30047(17) 0.8422(3) 0.8385(3)
H12_4 H 0.295277 0.844307 0.893227
C17_4 C 0.26338(16) 0.8402(2) 0.7874(3)
C18_4 C 0.27071(17) 0.8358(3) 0.7078(3)
H13_4 H 0.245166 0.833155 0.673111
C19_4 C 0.31541(17) 0.8352(2) 0.6782(3)
H14_4 H 0.320356 0.832522 0.623410
C20_4 C 0.21441(17) 0.8445(3) 0.8154(3)
C21_4 C 0.1645(2) 0.8566(3) 0.9229(4)
H15_4 H 0.145210 0.820150 0.902727
H16_4 H 0.165059 0.854784 0.980143
H17_4 H 0.151849 0.899907 0.906042
C22_4 C 0.36075(17) 0.9929(2) 0.7268(3)
H19_4 H 0.336152 0.965378 0.704091
H20_4 H 0.360235 0.988432 0.783863
C23_4 C 0.40685(16) 0.9696(2) 0.6960(3)
C25_4 C 0.47942(16) 0.9690(2) 0.6478(3)
C26_2 C 0.52662(16) 0.9886(2) 0.6183(3)
H21_2 H 0.527257 0.985427 0.561184
H23_2 H 0.549823 0.958306 0.640496
F1_3 F 0.96139(9) 0.84408(13) 0.1632(2)
F2_3 F 0.99880(13) 0.84469(13) 0.04735(17)
C6_3 C 0.97044(16) 0.6996(2) 0.1105(3)
H5_3 H 0.947928 0.733123 0.127870
H6_3 H 0.960829 0.654960 0.128442
H7_3 H 0.972216 0.699881 0.053314
C26_3 C 0.97338(16) 0.9886(2) 0.1183(3)
H21_3 H 0.972743 0.985427 0.061184
H23_3 H 0.950177 0.958306 0.140496
B1_5 B 0.49564(18) 0.1567(2) 0.1272(3)
F1_4 F 0.53861(9) 0.15592(13) 0.1632(2)
F2_4 F 0.50120(13) 0.15531(13) 0.04735(17)
O1_5 O 0.21146(13) 0.1507(2) 0.3928(2)
O2_5 O 0.18143(13) 0.1561(2) 0.2722(3)
N1 N 0.45790(11) 0.54307(15) 0.1700(2)
N2_5 N 0.46846(12) 0.22035(16) 0.1516(2)
N3_5 N 0.46669(12) 0.09548(17) 0.1536(2)
C1_5 C 0.47357(17) 0.5061(2) 0.1105(3)
H1_5 H 0.487132 0.528633 0.067272
C2_5 C 0.47108(18) 0.4367(2) 0.1085(3)
H2_5 H 0.482338 0.412587 0.064527
C3_5 C 0.45189(15) 0.40249(19) 0.1717(3)
C4_5 C 0.43615(16) 0.4408(2) 0.2335(3)
H3_5 H 0.423222 0.419505 0.278134
C5_5 C 0.43917(15) 0.5102(2) 0.2306(3)
H4_5 H 0.427508 0.535518 0.273301
C6_4 C 0.52956(16) 0.3004(2) 0.1105(3)
H5_4 H 0.552072 0.266877 0.127870
H6_4 H 0.539171 0.345040 0.128442
H7_4 H 0.527784 0.300119 0.053314
C7_5 C 0.48351(15) 0.28413(19) 0.1437(2)
C8_5 C 0.44889(15) 0.32811(19) 0.1718(2)
C9_5 C 0.41162(15) 0.2890(2) 0.1972(3)
C10_5 C 0.36737(16) 0.3158(2) 0.2320(3)
H8_5 H 0.370163 0.317283 0.289019
H9_5 H 0.341711 0.286226 0.217476
H10_5 H 0.361536 0.361106 0.211981
C11_5 C 0.42398(15) 0.2206(2) 0.1834(3)
C12_5 C 0.40086(15) 0.1599(2) 0.1971(3)
C13_5 C 0.42185(16) 0.0977(2) 0.1826(3)
C14_5 C 0.35289(15) 0.1616(2) 0.2289(3)
C15_5 C 0.34564(16) 0.1589(2) 0.3093(3)
H11_5 H 0.371143 0.157761 0.344111
C16_5 C 0.30047(17) 0.1578(3) 0.3385(3)
H12_5 H 0.295277 0.155693 0.393227
C17_5 C 0.26338(16) 0.1598(2) 0.2874(3)
C18_5 C 0.27071(17) 0.1642(3) 0.2078(3)
H13_5 H 0.245166 0.166845 0.173111
C19_5 C 0.31541(17) 0.1648(2) 0.1782(3)
H14_5 H 0.320356 0.167478 0.123410
C20_5 C 0.21441(17) 0.1555(3) 0.3154(3)
C21_5 C 0.1645(2) 0.1434(3) 0.4229(4)
H15_5 H 0.145210 0.179850 0.402727
H16_5 H 0.165059 0.145216 0.480143
H17_5 H 0.151849 0.100093 0.406042
C22_5 C 0.36075(17) 0.0071(2) 0.2268(3)
H19_5 H 0.336152 0.034622 0.204091
H20_5 H 0.360235 0.011568 0.283863
C23_5 C 0.40685(16) 0.0304(2) 0.1960(3)
C25_5 C 0.47942(16) 0.0310(2) 0.1478(3)
C26_4 C 0.52662(16) 0.0114(2) 0.1183(3)
H21_4 H 0.527257 0.014573 0.061184
H23_4 H 0.549823 0.041694 0.140496
Cd2 Cd 0.45592(2) 0.65870(2) 0.16573(2)
O3_3 O 0.54105(9) 0.65841(14) 0.19548(16)
O4_5 O 0.51623(9) 0.66331(15) 0.07380(17)
N4_5 N 0.45295(12) 0.77411(16) 0.1762(2)
H18_5 H 0.355932 0.959922 0.212558
C24_5 C 0.44339(16) 0.9891(2) 0.1736(3)
H22_5 H 0.533423 0.965124 0.134184
C27_5 C 0.44616(16) 0.9150(2) 0.1750(3)
C28_5 C 0.42889(16) 0.8767(2) 0.2372(3)
H24_5 H 0.414522 0.898171 0.280410
C29_5 C 0.43290(16) 0.8075(2) 0.2353(3)
H25_5 H 0.420878 0.782320 0.277824
C30_5 C 0.46852(16) 0.8099(2) 0.1165(3)
H26_5 H 0.482471 0.787036 0.073909
C31_5 C 0.46534(17) 0.8798(2) 0.1135(3)
H27_5 H 0.476404 0.903320 0.068935
C32_5 C 0.54814(12) 0.66379(18) 0.1236(2)
C33_5 C 0.59703(14) 0.6724(2) 0.0946(2)
C34_5 C 0.63449(14) 0.6637(2) 0.1455(3)
H28_5 H 0.629747 0.654732 0.199464
C35_5 C 0.67956(15) 0.6686(3) 0.1142(3)
H29_5 H 0.705212 0.662427 0.147972
C36_5 C 0.68754(14) 0.6820(2) 0.0361(3)
C38_5 C 0.60490(15) 0.6890(2) 0.0167(3)
C39_5 C 0.73517(14) 0.6819(2) 0.0030(3)
C40_5 C 0.77388(16) 0.6842(3) 0.0507(3)
H32_5 H 0.770184 0.689830 0.105478
C41_5 C 0.81808(16) 0.6784(3) 0.0194(3)
H33_5 H 0.844024 0.679350 0.053317
Cd3_2 Cd 0.54408(2) 0.65870(2) 0.33427(2)
O7_3 O 0.45895(9) 0.65841(14) 0.30452(16)
O8_3 O 0.40644(10) 0.66652(19) 0.05120(19)
O9_3 O 0.37516(10) 0.6546(2) 0.16705(19)
O5_3 O 0.90644(10) 0.66652(19) 0.94880(19)
O6_3 O 0.87516(10) 0.6546(2) 0.83295(19)
C37_5 C 0.64967(15) 0.6942(3) 0.9882(3)
H30_5 H 0.654477 0.706236 0.935085
H31_5 H 0.579509 0.696898 0.982853
C42_5 C 0.82480(14) 0.6712(2) 0.9397(3)
C43_5 C 0.78647(17) 0.6711(3) 0.8917(3)
H34_5 H 0.790275 0.667659 0.836675
C44_5 C 0.74242(17) 0.6761(4) 0.9231(3)
H35_5 H 0.716560 0.675503 0.889048
C45_5 C 0.87197(13) 0.6636(2) 0.9053(3)
Cd4_3 Cd 0.95592(2) 0.65870(2) 0.83427(2)
B1_6 B 0.50436(18) 0.1567(2) 0.3728(3)
F1_5 F 0.46139(9) 0.15592(13) 0.3368(2)
F2_5 F 0.49880(13) 0.15531(13) 0.45265(17)
O1_6 O 0.78854(13) 0.1507(2) 0.1072(2)
O2_6 O 0.81857(13) 0.1561(2) 0.2278(3)
N1_2 N 0.54210(11) 0.54307(15) 0.3300(2)
N2_6 N 0.53154(12) 0.22035(16) 0.3484(2)
N3_6 N 0.53331(12) 0.09548(17) 0.3464(2)
C1_6 C 0.52643(17) 0.5061(2) 0.3895(3)
H1_6 H 0.512868 0.528633 0.432728
C2_6 C 0.52892(18) 0.4367(2) 0.3915(3)
H2_6 H 0.517662 0.412587 0.435473
C3_6 C 0.54811(15) 0.40249(19) 0.3283(3)
C4_6 C 0.56385(16) 0.4408(2) 0.2665(3)
H3_6 H 0.576778 0.419505 0.221866
C5_6 C 0.56083(15) 0.5102(2) 0.2694(3)
H4_6 H 0.572492 0.535518 0.226699
C6_5 C 0.47044(16) 0.3004(2) 0.3895(3)
H5_5 H 0.447928 0.266877 0.372130
H6_5 H 0.460829 0.345040 0.371558
H7_5 H 0.472216 0.300119 0.446686
C7_6 C 0.51649(15) 0.28413(19) 0.3563(2)
C8_6 C 0.55111(15) 0.32811(19) 0.3282(2)
C9_6 C 0.58838(15) 0.2890(2) 0.3028(3)
C10_6 C 0.63263(16) 0.3158(2) 0.2680(3)
H8_6 H 0.629837 0.317283 0.210981
H9_6 H 0.658289 0.286226 0.282524
H10_6 H 0.638464 0.361106 0.288019
C11_6 C 0.57602(15) 0.2206(2) 0.3166(3)
C12_6 C 0.59914(15) 0.1599(2) 0.3029(3)
C13_6 C 0.57815(16) 0.0977(2) 0.3174(3)
C14_6 C 0.64711(15) 0.1616(2) 0.2711(3)
C15_6 C 0.65436(16) 0.1589(2) 0.1907(3)
H11_6 H 0.628857 0.157761 0.155889
C16_6 C 0.69953(17) 0.1578(3) 0.1615(3)
H12_6 H 0.704723 0.155693 0.106773
C17_6 C 0.73662(16) 0.1598(2) 0.2126(3)
C18_6 C 0.72929(17) 0.1642(3) 0.2922(3)
H13_6 H 0.754834 0.166845 0.326889
C19_6 C 0.68459(17) 0.1648(2) 0.3218(3)
H14_6 H 0.679644 0.167478 0.376590
C20_6 C 0.78559(17) 0.1555(3) 0.1846(3)
C21_6 C 0.8355(2) 0.1434(3) 0.0771(4)
H15_6 H 0.854790 0.179850 0.097273
H16_6 H 0.834941 0.145216 0.019857
H17_6 H 0.848151 0.100093 0.093958
C22_6 C 0.63925(17) 0.0071(2) 0.2732(3)
H19_6 H 0.663848 0.034622 0.295909
H20_6 H 0.639765 0.011568 0.216137
C23_6 C 0.59315(16) 0.0304(2) 0.3040(3)
C25_6 C 0.52058(16) 0.0310(2) 0.3522(3)
C26_5 C 0.47338(16) 0.0114(2) 0.3817(3)
H21_5 H 0.472743 0.014573 0.438816
H23_5 H 0.450177 0.041694 0.359504
O4_6 O 0.48377(9) 0.66331(15) 0.42620(17)
O5_4 O 0.09356(10) 0.66652(19) 0.55120(19)
O6_4 O 0.12484(10) 0.6546(2) 0.66705(19)
N4_6 N 0.54705(12) 0.77411(16) 0.3238(2)
H18_6 H 0.644068 0.959922 0.287442
C24_6 C 0.55661(16) 0.9891(2) 0.3264(3)
H22_6 H 0.466577 0.965124 0.365816
C27_6 C 0.55384(16) 0.9150(2) 0.3250(3)
C28_6 C 0.57111(16) 0.8767(2) 0.2628(3)
H24_6 H 0.585478 0.898171 0.219590
C29_6 C 0.56710(16) 0.8075(2) 0.2647(3)
H25_6 H 0.579122 0.782320 0.222176
C30_6 C 0.53148(16) 0.8099(2) 0.3835(3)
H26_6 H 0.517529 0.787036 0.426091
C31_6 C 0.53466(17) 0.8798(2) 0.3865(3)
H27_6 H 0.523596 0.903320 0.431065
C32_6 C 0.45186(12) 0.66379(18) 0.3764(2)
C33_6 C 0.40297(14) 0.6724(2) 0.4054(2)
C34_6 C 0.36551(14) 0.6637(2) 0.3545(3)
H28_6 H 0.370253 0.654732 0.300536
C35_6 C 0.32044(15) 0.6686(3) 0.3858(3)
H29_6 H 0.294788 0.662427 0.352028
C36_6 C 0.31246(14) 0.6820(2) 0.4639(3)
C37_6 C 0.35033(15) 0.6942(3) 0.5118(3)
H30_6 H 0.345523 0.706236 0.564915
C38_6 C 0.39510(15) 0.6890(2) 0.4833(3)
H31_6 H 0.420491 0.696898 0.517147
C39_6 C 0.26483(14) 0.6819(2) 0.4970(3)
C40_6 C 0.22612(16) 0.6842(3) 0.4493(3)
H32_6 H 0.229816 0.689830 0.394522
C41_6 C 0.18192(16) 0.6784(3) 0.4806(3)
H33_6 H 0.155976 0.679350 0.446683
C42_6 C 0.17520(14) 0.6712(2) 0.5603(3)
C43_6 C 0.21353(17) 0.6711(3) 0.6083(3)
H34_6 H 0.209725 0.667659 0.663325
C44_6 C 0.25758(17) 0.6761(4) 0.5769(3)
H35_6 H 0.283440 0.675503 0.610952
C45_6 C 0.12803(13) 0.6636(2) 0.5947(3)
Cd4_4 Cd 0.04408(2) 0.65870(2) 0.66573(2)
O8_4 O 0.59356(10) 0.66652(19) 0.44880(19)
O9_4 O 0.62484(10) 0.6546(2) 0.33295(19)
C37_7 C 0.14967(15) 0.6942(3) 0.0118(3)
H30_7 H 0.154477 0.706236 0.064915
H31_7 H 0.079509 0.696898 0.017147
C42_7 C 0.32480(14) 0.6712(2) 0.0603(3)
C43_7 C 0.28647(17) 0.6711(3) 0.1083(3)
H34_7 H 0.290275 0.667659 0.163325
C44_7 C 0.24242(17) 0.6761(4) 0.0769(3)
H35_7 H 0.216560 0.675503 0.110952
C45_7 C 0.37197(13) 0.6636(2) 0.0947(3)
O3_4 O 0.04105(9) 0.65841(14) 0.80452(16)
O4_7 O 0.01623(9) 0.66331(15) 0.92620(17)
H22_7 H 0.033423 0.965124 0.865816
C32_7 C 0.04814(12) 0.66379(18) 0.8764(2)
C33_7 C 0.09703(14) 0.6724(2) 0.9054(2)
C34_7 C 0.13449(14) 0.6637(2) 0.8545(3)
H28_7 H 0.129747 0.654732 0.800536
C35_7 C 0.17956(15) 0.6686(3) 0.8858(3)
H29_7 H 0.205212 0.662427 0.852028
C36_7 C 0.18754(14) 0.6820(2) 0.9639(3)
C38_7 C 0.10490(15) 0.6890(2) 0.9833(3)
C39_7 C 0.23517(14) 0.6819(2) 0.9970(3)
C40_7 C 0.27388(16) 0.6842(3) 0.9493(3)
H32_7 H 0.270184 0.689830 0.894522
C41_7 C 0.31808(16) 0.6784(3) 0.9806(3)
H33_7 H 0.344024 0.679350 0.946683
B1_7 B 0.99564(18) 0.1567(2) 0.8728(3)
O1_7 O 0.71146(13) 0.1507(2) 0.6072(2)
O2_7 O 0.68143(13) 0.1561(2) 0.7278(3)
N1_3 N 0.95790(11) 0.54307(15) 0.8300(2)
N2_7 N 0.96846(12) 0.22035(16) 0.8484(2)
N3_7 N 0.96669(12) 0.09548(17) 0.8464(2)
C1_7 C 0.97357(17) 0.5061(2) 0.8895(3)
H1_7 H 0.987132 0.528633 0.932728
C2_7 C 0.97108(18) 0.4367(2) 0.8915(3)
H2_7 H 0.982338 0.412587 0.935473
C3_7 C 0.95189(15) 0.40249(19) 0.8283(3)
C4_7 C 0.93615(16) 0.4408(2) 0.7665(3)
H3_7 H 0.923222 0.419505 0.721866
C5_7 C 0.93917(15) 0.5102(2) 0.7694(3)
H4_7 H 0.927508 0.535518 0.726699
C7_7 C 0.98351(15) 0.28413(19) 0.8563(2)
C8_7 C 0.94889(15) 0.32811(19) 0.8282(2)
C9_7 C 0.91162(15) 0.2890(2) 0.8028(3)
C10_7 C 0.86737(16) 0.3158(2) 0.7680(3)
H8_7 H 0.870163 0.317283 0.710981
H9_7 H 0.841711 0.286226 0.782524
H10_7 H 0.861536 0.361106 0.788019
C11_7 C 0.92398(15) 0.2206(2) 0.8166(3)
C12_7 C 0.90086(15) 0.1599(2) 0.8029(3)
C13_7 C 0.92185(16) 0.0977(2) 0.8174(3)
C14_7 C 0.85289(15) 0.1616(2) 0.7711(3)
C15_7 C 0.84564(16) 0.1589(2) 0.6907(3)
H11_7 H 0.871143 0.157761 0.655889
C16_7 C 0.80047(17) 0.1578(3) 0.6615(3)
H12_7 H 0.795277 0.155693 0.606773
C17_7 C 0.76338(16) 0.1598(2) 0.7126(3)
C18_7 C 0.77071(17) 0.1642(3) 0.7922(3)
H13_7 H 0.745166 0.166845 0.826889
C19_7 C 0.81541(17) 0.1648(2) 0.8218(3)
H14_7 H 0.820356 0.167478 0.876590
C20_7 C 0.71441(17) 0.1555(3) 0.6846(3)
C21_7 C 0.6645(2) 0.1434(3) 0.5771(4)
H15_7 H 0.645210 0.179850 0.597273
H16_7 H 0.665059 0.145216 0.519857
H17_7 H 0.651849 0.100093 0.593958
C22_7 C 0.86075(17) 0.0071(2) 0.7732(3)
H19_7 H 0.836152 0.034622 0.795909
H20_7 H 0.860235 0.011568 0.716137
C23_7 C 0.90685(16) 0.0304(2) 0.8040(3)
C25_7 C 0.97942(16) 0.0310(2) 0.8522(3)
N4_7 N 0.95295(12) 0.77411(16) 0.8238(2)
H18_7 H 0.855932 0.959922 0.787442
C24_7 C 0.94339(16) 0.9891(2) 0.8264(3)
C27_7 C 0.94616(16) 0.9150(2) 0.8250(3)
C28_7 C 0.92889(16) 0.8767(2) 0.7628(3)
H24_7 H 0.914522 0.898171 0.719590
C29_7 C 0.93290(16) 0.8075(2) 0.7647(3)
H25_7 H 0.920878 0.782320 0.722176
C30_7 C 0.96852(16) 0.8099(2) 0.8835(3)
H26_7 H 0.982471 0.787036 0.926091
C31_7 C 0.96534(17) 0.8798(2) 0.8865(3)
H27_7 H 0.976404 0.903320 0.931065
O7_4 O 0.95895(9) 0.65841(14) 0.69548(16)
B1_8 B 0.00436(18) 0.1567(2) 0.6272(3)
O1_8 O 0.28854(13) 0.1507(2) 0.8928(2)
O2_8 O 0.31857(13) 0.1561(2) 0.7722(3)
N1_4 N 0.04210(11) 0.54307(15) 0.6700(2)
N2_8 N 0.03154(12) 0.22035(16) 0.6516(2)
N3_8 N 0.03331(12) 0.09548(17) 0.6536(2)
C1_8 C 0.02643(17) 0.5061(2) 0.6105(3)
H1_8 H 0.012868 0.528633 0.567272
C2_8 C 0.02892(18) 0.4367(2) 0.6085(3)
H2_8 H 0.017662 0.412587 0.564527
C3_8 C 0.04811(15) 0.40249(19) 0.6717(3)
C4_8 C 0.06385(16) 0.4408(2) 0.7335(3)
H3_8 H 0.076778 0.419505 0.778134
C5_8 C 0.06083(15) 0.5102(2) 0.7306(3)
H4_8 H 0.072492 0.535518 0.773301
C7_8 C 0.01649(15) 0.28413(19) 0.6437(2)
C8_8 C 0.05111(15) 0.32811(19) 0.6718(2)
C9_8 C 0.08838(15) 0.2890(2) 0.6972(3)
C10_8 C 0.13263(16) 0.3158(2) 0.7320(3)
H8_8 H 0.129837 0.317283 0.789019
H9_8 H 0.158289 0.286226 0.717476
H10_8 H 0.138464 0.361106 0.711981
C11_8 C 0.07602(15) 0.2206(2) 0.6834(3)
C12_8 C 0.09914(15) 0.1599(2) 0.6971(3)
C13_8 C 0.07815(16) 0.0977(2) 0.6826(3)
C14_8 C 0.14711(15) 0.1616(2) 0.7289(3)
C15_8 C 0.15436(16) 0.1589(2) 0.8093(3)
H11_8 H 0.128857 0.157761 0.844111
C16_8 C 0.19953(17) 0.1578(3) 0.8385(3)
H12_8 H 0.204723 0.155693 0.893227
C17_8 C 0.23662(16) 0.1598(2) 0.7874(3)
C18_8 C 0.22929(17) 0.1642(3) 0.7078(3)
H13_8 H 0.254834 0.166845 0.673111
C19_8 C 0.18459(17) 0.1648(2) 0.6782(3)
H14_8 H 0.179644 0.167478 0.623410
C20_8 C 0.28559(17) 0.1555(3) 0.8154(3)
C21_8 C 0.3355(2) 0.1434(3) 0.9229(4)
H15_8 H 0.354790 0.179850 0.902727
H16_8 H 0.334941 0.145216 0.980143
H17_8 H 0.348151 0.100093 0.906042
C22_8 C 0.13925(17) 0.0071(2) 0.7268(3)
H19_8 H 0.163848 0.034622 0.704091
H20_8 H 0.139765 0.011568 0.783863
C23_8 C 0.09315(16) 0.0304(2) 0.6960(3)
C25_8 C 0.02058(16) 0.0310(2) 0.6478(3)
N4_8 N 0.04705(12) 0.77411(16) 0.6762(2)
H18_8 H 0.144068 0.959922 0.712558
C24_8 C 0.05661(16) 0.9891(2) 0.6736(3)
C27_8 C 0.05384(16) 0.9150(2) 0.6750(3)
C28_8 C 0.07111(16) 0.8767(2) 0.7372(3)
H24_8 H 0.085478 0.898171 0.780410
C29_8 C 0.06710(16) 0.8075(2) 0.7353(3)
H25_8 H 0.079122 0.782320 0.777824
C30_8 C 0.03148(16) 0.8099(2) 0.6165(3)
H26_8 H 0.017529 0.787036 0.573909
C31_8 C 0.03466(17) 0.8798(2) 0.6135(3)
H27_8 H 0.023596 0.903320 0.568935
O4_8 O 0.98377(9) 0.66331(15) 0.57380(17)
H22_8 H 0.966577 0.965124 0.634184
C32_8 C 0.95186(12) 0.66379(18) 0.6236(2)
C33_8 C 0.90297(14) 0.6724(2) 0.5946(2)
C34_8 C 0.86551(14) 0.6637(2) 0.6455(3)
H28_8 H 0.870253 0.654732 0.699464
C35_8 C 0.82044(15) 0.6686(3) 0.6142(3)
H29_8 H 0.794788 0.662427 0.647972
C36_8 C 0.81246(14) 0.6820(2) 0.5361(3)
C37_8 C 0.85033(15) 0.6942(3) 0.4882(3)
H30_8 H 0.845523 0.706236 0.435085
C38_8 C 0.89510(15) 0.6890(2) 0.5167(3)
H31_8 H 0.920491 0.696898 0.482853
C39_8 C 0.76483(14) 0.6819(2) 0.5030(3)
C40_8 C 0.72612(16) 0.6842(3) 0.5507(3)
H32_8 H 0.729816 0.689830 0.605478
C41_8 C 0.68192(16) 0.6784(3) 0.5194(3)
H33_8 H 0.655976 0.679350 0.553317
C42_8 C 0.67520(14) 0.6712(2) 0.4397(3)
C43_8 C 0.71353(17) 0.6711(3) 0.3917(3)
H34_8 H 0.709725 0.667659 0.336675
C44_8 C 0.75758(17) 0.6761(4) 0.4231(3)
H35_8 H 0.783440 0.675503 0.389048
C45_8 C 0.62803(13) 0.6636(2) 0.4053(3)
F1_6 F 0.03861(9) 0.84408(13) 0.3368(2)
F2_6 F 0.00120(13) 0.84469(13) 0.45265(17)
C6_6 C 0.02956(16) 0.6996(2) 0.3895(3)
H5_6 H 0.052072 0.733123 0.372130
H6_6 H 0.039171 0.654960 0.371558
H7_6 H 0.027784 0.699881 0.446686
C26_6 C 0.02662(16) 0.9886(2) 0.3817(3)
H21_6 H 0.027257 0.985427 0.438816
H23_6 H 0.049823 0.958306 0.359504
F1_7 F 0.03861(9) 0.15592(13) 0.8368(2)
F2_7 F 0.00120(13) 0.15531(13) 0.95265(17)
C6_7 C 0.02956(16) 0.3004(2) 0.8895(3)
H5_7 H 0.052072 0.266877 0.872130
H6_7 H 0.039171 0.345040 0.871558
H7_7 H 0.027784 0.300119 0.946686
C26_7 C 0.02662(16) 0.0114(2) 0.8817(3)
H21_7 H 0.027257 0.014573 0.938816
H23_7 H 0.049823 0.041694 0.859504
F1_8 F 0.96139(9) 0.15592(13) 0.6632(2)
F2_8 F 0.99880(13) 0.15531(13) 0.54735(17)
C6_8 C 0.97044(16) 0.3004(2) 0.6105(3)
H5_8 H 0.947928 0.266877 0.627870
H6_8 H 0.960829 0.345040 0.628442
H7_8 H 0.972216 0.300119 0.553314
C26_8 C 0.97338(16) 0.0114(2) 0.6183(3)
H21_8 H 0.972743 0.014573 0.561184
H23_8 H 0.950177 0.041694 0.640496
loop_
_geom_bond_atom_site_label_1
_geom_bond_atom_site_label_2
_geom_bond_site_symmetry_1
_geom_bond_site_symmetry_2
N4 Cd1 1_555 1_555
C27 C24 1_555 1_555
C28 C27 1_555 1_555
H24 C28 1_555 1_555
C29 N4 1_555 1_555
H25 C29 1_555 1_555
C30 N4 1_555 1_555
H26 C30 1_555 1_555
C31 C27 1_555 1_555
H27 C31 1_555 1_555
O7 Cd1 1_555 1_555
O8 Cd1 1_555 1_555
O9 Cd1 1_555 1_555
N5 Cd1 1_555 1_555
C28 C29 1_555 1_555
C30 C31 1_555 1_555
O1 C20 1_555 1_555
O2 C20 1_555 1_555
N5 C1 1_555 1_555
N2 B1 1_555 1_555
N3 B1 1_555 1_555
C1 H1 1_555 1_555
C2 C1 1_555 1_555
H2 C2 1_555 1_555
C3 C2 1_555 1_555
C4 C3 1_555 1_555
H3 C4 1_555 1_555
C5 N5 1_555 1_555
H4 C5 1_555 1_555
C7 N2 1_555 1_555
C8 C3 1_555 1_555
C9 C8 1_555 1_555
C10 C9 1_555 1_555
H8 C10 1_555 1_555
H9 C10 1_555 1_555
H10 C10 1_555 1_555
C11 N2 1_555 1_555
C12 C11 1_555 1_555
C13 N3 1_555 1_555
C14 C12 1_555 1_555
C15 C14 1_555 1_555
H11 C15 1_555 1_555
C16 C15 1_555 1_555
H12 C16 1_555 1_555
C17 C16 1_555 1_555
C18 C17 1_555 1_555
H13 C18 1_555 1_555
C19 C14 1_555 1_555
H14 C19 1_555 1_555
C20 C17 1_555 1_555
C21 O1 1_555 1_555
H15 C21 1_555 1_555
H16 C21 1_555 1_555
H17 C21 1_555 1_555
H19 C22 1_555 1_555
H20 C22 1_555 1_555
C23 C13 1_555 1_555
C25 N3 1_555 1_555
C4 C5 1_555 1_555
C7 C8 1_555 1_555
C9 C11 1_555 1_555
C12 C13 1_555 1_555
C18 C19 1_555 1_555
C22 C23 1_555 1_555
O3 C32 1_555 1_555
C32 O4 1_555 1_555
C33 C32 1_555 1_555
C34 C33 1_555 1_555
H28 C34 1_555 1_555
C35 C34 1_555 1_555
H29 C35 1_555 1_555
C36 C35 1_555 1_555
C38 C33 1_555 1_555
C39 C36 1_555 1_555
C40 C39 1_555 1_555
H32 C40 1_555 1_555
C41 C40 1_555 1_555
H33 C41 1_555 1_555
Cd3 O3 1_555 1_555
O5 C45 1_555 1_555
O6 C45 1_555 1_555
H30 C37 1_555 1_555
C43 C42 1_555 1_555
H34 C43 1_555 1_555
H35 C44 1_555 1_555
C45 C42 1_555 1_555
Cd4 O5 1_555 1_555
O6 Cd4 1_555 1_555
C43 C44 1_555 1_555
O7 C32_2 1_555 1_555
O5_2 C45_2 1_555 1_555
O6_2 C45_2 1_555 1_555
C32_2 O4_2 1_555 1_555
C33_2 C32_2 1_555 1_555
C34_2 C33_2 1_555 1_555
H28_2 C34_2 1_555 1_555
C35_2 C34_2 1_555 1_555
H29_2 C35_2 1_555 1_555
C36_2 C35_2 1_555 1_555
C37_2 C36_2 1_555 1_555
H30_2 C37_2 1_555 1_555
C38_2 C33_2 1_555 1_555
H31_2 C38_2 1_555 1_555
C39_2 C36_2 1_555 1_555
C40_2 C39_2 1_555 1_555
H32_2 C40_2 1_555 1_555
C41_2 C40_2 1_555 1_555
H33_2 C41_2 1_555 1_555
C42_2 C41_2 1_555 1_555
C43_2 C42_2 1_555 1_555
H34_2 C43_2 1_555 1_555
C44_2 C39_2 1_555 1_555
H35_2 C44_2 1_555 1_555
C45_2 C42_2 1_555 1_555
Cd4_2 O5_2 1_555 1_555
O6_2 Cd4_2 1_555 1_555
C37_2 C38_2 1_555 1_555
C43_2 C44_2 1_555 1_555
N4_2 Cd3 1_555 1_555
C27_2 C24_2 1_555 1_555
C28_2 C27_2 1_555 1_555
H24_2 C28_2 1_555 1_555
C29_2 N4_2 1_555 1_555
H25_2 C29_2 1_555 1_555
C30_2 N4_2 1_555 1_555
H26_2 C30_2 1_555 1_555
C31_2 C27_2 1_555 1_555
H27_2 C31_2 1_555 1_555
O8_2 Cd3 1_555 1_555
O9_2 Cd3 1_555 1_555
N5_2 Cd3 1_555 1_555
C28_2 C29_2 1_555 1_555
C30_2 C31_2 1_555 1_555
O1_2 C20_2 1_555 1_555
O2_2 C20_2 1_555 1_555
N5_2 C1_2 1_555 1_555
N2_2 B1_2 1_555 1_555
N3_2 B1_2 1_555 1_555
C1_2 H1_2 1_555 1_555
C2_2 C1_2 1_555 1_555
H2_2 C2_2 1_555 1_555
C3_2 C2_2 1_555 1_555
C4_2 C3_2 1_555 1_555
H3_2 C4_2 1_555 1_555
C5_2 N5_2 1_555 1_555
H4_2 C5_2 1_555 1_555
C7_2 N2_2 1_555 1_555
C8_2 C3_2 1_555 1_555
C9_2 C8_2 1_555 1_555
C10_2 C9_2 1_555 1_555
H8_2 C10_2 1_555 1_555
H9_2 C10_2 1_555 1_555
H10_2 C10_2 1_555 1_555
C11_2 N2_2 1_555 1_555
C12_2 C11_2 1_555 1_555
C13_2 N3_2 1_555 1_555
C14_2 C12_2 1_555 1_555
C15_2 C14_2 1_555 1_555
H11_2 C15_2 1_555 1_555
C16_2 C15_2 1_555 1_555
H12_2 C16_2 1_555 1_555
C17_2 C16_2 1_555 1_555
C18_2 C17_2 1_555 1_555
H13_2 C18_2 1_555 1_555
C19_2 C14_2 1_555 1_555
H14_2 C19_2 1_555 1_555
C20_2 C17_2 1_555 1_555
C21_2 O1_2 1_555 1_555
H15_2 C21_2 1_555 1_555
H16_2 C21_2 1_555 1_555
H17_2 C21_2 1_555 1_555
H19_2 C22_2 1_555 1_555
H20_2 C22_2 1_555 1_555
C23_2 C13_2 1_555 1_555
C25_2 N3_2 1_555 1_555
C4_2 C5_2 1_555 1_555
C7_2 C8_2 1_555 1_555
C9_2 C11_2 1_555 1_555
C12_2 C13_2 1_555 1_555
C18_2 C19_2 1_555 1_555
C22_2 C23_2 1_555 1_555
O8 C45_3 1_555 1_555
O9 C45_3 1_555 1_555
H30_3 C37_3 1_555 1_555
C43_3 C42_3 1_555 1_555
H34_3 C43_3 1_555 1_555
H35_3 C44_3 1_555 1_555
C45_3 C42_3 1_555 1_555
C43_3 C44_3 1_555 1_555
Cd4 O3_2 1_555 1_555
O3_2 C32_3 1_555 1_555
O4_3 Cd4 1_555 1_555
N4_3 Cd4 1_555 1_555
C27_3 C24_3 1_555 1_555
C28_3 C27_3 1_555 1_555
H24_3 C28_3 1_555 1_555
C29_3 N4_3 1_555 1_555
H25_3 C29_3 1_555 1_555
C30_3 N4_3 1_555 1_555
H26_3 C30_3 1_555 1_555
C31_3 C27_3 1_555 1_555
H27_3 C31_3 1_555 1_555
C32_3 O4_3 1_555 1_555
C33_3 C32_3 1_555 1_555
C34_3 C33_3 1_555 1_555
H28_3 C34_3 1_555 1_555
C35_3 C34_3 1_555 1_555
H29_3 C35_3 1_555 1_555
C36_3 C35_3 1_555 1_555
C38_3 C33_3 1_555 1_555
C39_3 C36_3 1_555 1_555
C40_3 C39_3 1_555 1_555
H32_3 C40_3 1_555 1_555
C41_3 C40_3 1_555 1_555
H33_3 C41_3 1_555 1_555
Cd4_2 O3_2 1_555 1_555
O7_2 Cd4 1_555 1_555
N5_3 Cd4 1_555 1_555
C28_3 C29_3 1_555 1_555
C30_3 C31_3 1_555 1_555
Cd4_2 O7_2 1_555 1_555
B1_3 F1 1_555 1_555
F2 B1_3 1_555 1_555
O1_3 C20_3 1_555 1_555
O2_3 C20_3 1_555 1_555
N5_3 C1_3 1_555 1_555
N2_3 B1_3 1_555 1_555
N3_3 B1_3 1_555 1_555
C1_3 H1_3 1_555 1_555
C2_3 C1_3 1_555 1_555
H2_3 C2_3 1_555 1_555
C3_3 C2_3 1_555 1_555
C4_3 C3_3 1_555 1_555
H3_3 C4_3 1_555 1_555
C5_3 N5_3 1_555 1_555
H4_3 C5_3 1_555 1_555
C6 H5 1_555 1_555
H6 C6 1_555 1_555
H7 C6 1_555 1_555
C7_3 N2_3 1_555 1_555
C8_3 C3_3 1_555 1_555
C9_3 C8_3 1_555 1_555
C10_3 C9_3 1_555 1_555
H8_3 C10_3 1_555 1_555
H9_3 C10_3 1_555 1_555
H10_3 C10_3 1_555 1_555
C11_3 N2_3 1_555 1_555
C12_3 C11_3 1_555 1_555
C13_3 N3_3 1_555 1_555
C14_3 C12_3 1_555 1_555
C15_3 C14_3 1_555 1_555
H11_3 C15_3 1_555 1_555
C16_3 C15_3 1_555 1_555
H12_3 C16_3 1_555 1_555
C17_3 C16_3 1_555 1_555
C18_3 C17_3 1_555 1_555
H13_3 C18_3 1_555 1_555
C19_3 C14_3 1_555 1_555
H14_3 C19_3 1_555 1_555
C20_3 C17_3 1_555 1_555
C21_3 O1_3 1_555 1_555
H15_3 C21_3 1_555 1_555
H16_3 C21_3 1_555 1_555
H17_3 C21_3 1_555 1_555
H19_3 C22_3 1_555 1_555
H20_3 C22_3 1_555 1_555
C23_3 C13_3 1_555 1_555
C25_3 N3_3 1_555 1_555
C26 C25_3 1_555 1_555
H21 C26 1_555 1_555
H23 C26 1_555 1_555
C4_3 C5_3 1_555 1_555
C6 C7_3 1_555 1_555
C7_3 C8_3 1_555 1_555
C9_3 C11_3 1_555 1_555
C12_3 C13_3 1_555 1_555
C18_3 C19_3 1_555 1_555
C22_3 C23_3 1_555 1_555
O7_2 C32_4 1_555 1_555
O4_4 Cd4_2 1_555 1_555
O8_2 C45_4 1_555 1_555
O9_2 C45_4 1_555 1_555
N4_4 Cd4_2 1_555 1_555
C27_4 C24_4 1_555 1_555
C28_4 C27_4 1_555 1_555
H24_4 C28_4 1_555 1_555
C29_4 N4_4 1_555 1_555
H25_4 C29_4 1_555 1_555
C30_4 N4_4 1_555 1_555
H26_4 C30_4 1_555 1_555
C31_4 C27_4 1_555 1_555
H27_4 C31_4 1_555 1_555
C32_4 O4_4 1_555 1_555
C33_4 C32_4 1_555 1_555
C34_4 C33_4 1_555 1_555
H28_4 C34_4 1_555 1_555
C35_4 C34_4 1_555 1_555
H29_4 C35_4 1_555 1_555
C36_4 C35_4 1_555 1_555
C37_4 C36_4 1_555 1_555
H30_4 C37_4 1_555 1_555
C38_4 C33_4 1_555 1_555
H31_4 C38_4 1_555 1_555
C39_4 C36_4 1_555 1_555
C40_4 C39_4 1_555 1_555
H32_4 C40_4 1_555 1_555
C41_4 C40_4 1_555 1_555
H33_4 C41_4 1_555 1_555
C42_4 C41_4 1_555 1_555
C43_4 C42_4 1_555 1_555
H34_4 C43_4 1_555 1_555
C44_4 C39_4 1_555 1_555
H35_4 C44_4 1_555 1_555
C45_4 C42_4 1_555 1_555
N5_4 Cd4_2 1_555 1_555
C28_4 C29_4 1_555 1_555
C30_4 C31_4 1_555 1_555
C37_4 C38_4 1_555 1_555
C43_4 C44_4 1_555 1_555
B1_4 F1_2 1_555 1_555
F2_2 B1_4 1_555 1_555
O1_4 C20_4 1_555 1_555
O2_4 C20_4 1_555 1_555
N5_4 C1_4 1_555 1_555
N2_4 B1_4 1_555 1_555
N3_4 B1_4 1_555 1_555
C1_4 H1_4 1_555 1_555
C2_4 C1_4 1_555 1_555
H2_4 C2_4 1_555 1_555
C3_4 C2_4 1_555 1_555
C4_4 C3_4 1_555 1_555
H3_4 C4_4 1_555 1_555
C5_4 N5_4 1_555 1_555
H4_4 C5_4 1_555 1_555
C6_2 H5_2 1_555 1_555
H6_2 C6_2 1_555 1_555
H7_2 C6_2 1_555 1_555
C7_4 N2_4 1_555 1_555
C8_4 C3_4 1_555 1_555
C9_4 C8_4 1_555 1_555
C10_4 C9_4 1_555 1_555
H8_4 C10_4 1_555 1_555
H9_4 C10_4 1_555 1_555
H10_4 C10_4 1_555 1_555
C11_4 N2_4 1_555 1_555
C12_4 C11_4 1_555 1_555
C13_4 N3_4 1_555 1_555
C14_4 C12_4 1_555 1_555
C15_4 C14_4 1_555 1_555
H11_4 C15_4 1_555 1_555
C16_4 C15_4 1_555 1_555
H12_4 C16_4 1_555 1_555
C17_4 C16_4 1_555 1_555
C18_4 C17_4 1_555 1_555
H13_4 C18_4 1_555 1_555
C19_4 C14_4 1_555 1_555
H14_4 C19_4 1_555 1_555
C20_4 C17_4 1_555 1_555
C21_4 O1_4 1_555 1_555
H15_4 C21_4 1_555 1_555
H16_4 C21_4 1_555 1_555
H17_4 C21_4 1_555 1_555
H19_4 C22_4 1_555 1_555
H20_4 C22_4 1_555 1_555
C23_4 C13_4 1_555 1_555
C25_4 N3_4 1_555 1_555
C26_2 C25_4 1_555 1_555
H21_2 C26_2 1_555 1_555
H23_2 C26_2 1_555 1_555
C4_4 C5_4 1_555 1_555
C6_2 C7_4 1_555 1_555
C7_4 C8_4 1_555 1_555
C9_4 C11_4 1_555 1_555
C12_4 C13_4 1_555 1_555
C18_4 C19_4 1_555 1_555
C22_4 C23_4 1_555 1_555
C6_3 H5_3 1_555 1_555
H6_3 C6_3 1_555 1_555
H7_3 C6_3 1_555 1_555
H21_3 C26_3 1_555 1_555
H23_3 C26_3 1_555 1_555
B1_5 F1_4 1_555 1_555
F2_4 B1_5 1_555 1_555
O1_5 C20_5 1_555 1_555
O2_5 C20_5 1_555 1_555
N1 C1_5 1_555 1_555
N2_5 B1_5 1_555 1_555
N3_5 B1_5 1_555 1_555
C1_5 H1_5 1_555 1_555
C2_5 C1_5 1_555 1_555
H2_5 C2_5 1_555 1_555
C3_5 C2_5 1_555 1_555
C4_5 C3_5 1_555 1_555
H3_5 C4_5 1_555 1_555
C5_5 N1 1_555 1_555
H4_5 C5_5 1_555 1_555
C6_4 H5_4 1_555 1_555
H6_4 C6_4 1_555 1_555
H7_4 C6_4 1_555 1_555
C7_5 N2_5 1_555 1_555
C8_5 C3_5 1_555 1_555
C9_5 C8_5 1_555 1_555
C10_5 C9_5 1_555 1_555
H8_5 C10_5 1_555 1_555
H9_5 C10_5 1_555 1_555
H10_5 C10_5 1_555 1_555
C11_5 N2_5 1_555 1_555
C12_5 C11_5 1_555 1_555
C13_5 N3_5 1_555 1_555
C14_5 C12_5 1_555 1_555
C15_5 C14_5 1_555 1_555
H11_5 C15_5 1_555 1_555
C16_5 C15_5 1_555 1_555
H12_5 C16_5 1_555 1_555
C17_5 C16_5 1_555 1_555
C18_5 C17_5 1_555 1_555
H13_5 C18_5 1_555 1_555
C19_5 C14_5 1_555 1_555
H14_5 C19_5 1_555 1_555
C20_5 C17_5 1_555 1_555
C21_5 O1_5 1_555 1_555
H15_5 C21_5 1_555 1_555
H16_5 C21_5 1_555 1_555
H17_5 C21_5 1_555 1_555
H19_5 C22_5 1_555 1_555
H20_5 C22_5 1_555 1_555
C23_5 C13_5 1_555 1_555
C25_5 N3_5 1_555 1_555
C26_4 C25_5 1_555 1_555
H21_4 C26_4 1_555 1_555
H23_4 C26_4 1_555 1_555
Cd2 N1 1_555 1_555
C4_5 C5_5 1_555 1_555
C6_4 C7_5 1_555 1_555
C7_5 C8_5 1_555 1_555
C9_5 C11_5 1_555 1_555
C12_5 C13_5 1_555 1_555
C18_5 C19_5 1_555 1_555
C22_5 C23_5 1_555 1_555
Cd2 O3_3 1_555 1_555
O3_3 C32_5 1_555 1_555
O4_5 Cd2 1_555 1_555
N4_5 Cd2 1_555 1_555
C27_5 C24_5 1_555 1_555
C28_5 C27_5 1_555 1_555
H24_5 C28_5 1_555 1_555
C29_5 N4_5 1_555 1_555
H25_5 C29_5 1_555 1_555
C30_5 N4_5 1_555 1_555
H26_5 C30_5 1_555 1_555
C31_5 C27_5 1_555 1_555
H27_5 C31_5 1_555 1_555
C32_5 O4_5 1_555 1_555
C33_5 C32_5 1_555 1_555
C34_5 C33_5 1_555 1_555
H28_5 C34_5 1_555 1_555
C35_5 C34_5 1_555 1_555
H29_5 C35_5 1_555 1_555
C36_5 C35_5 1_555 1_555
C38_5 C33_5 1_555 1_555
C39_5 C36_5 1_555 1_555
C40_5 C39_5 1_555 1_555
H32_5 C40_5 1_555 1_555
C41_5 C40_5 1_555 1_555
H33_5 C41_5 1_555 1_555
Cd3_2 O3_3 1_555 1_555
O7_3 Cd2 1_555 1_555
O8_3 Cd2 1_555 1_555
O9_3 Cd2 1_555 1_555
C28_5 C29_5 1_555 1_555
C30_5 C31_5 1_555 1_555
Cd3_2 O7_3 1_555 1_555
O5_3 C45_5 1_555 1_555
O6_3 C45_5 1_555 1_555
H30_5 C37_5 1_555 1_555
C43_5 C42_5 1_555 1_555
H34_5 C43_5 1_555 1_555
H35_5 C44_5 1_555 1_555
C45_5 C42_5 1_555 1_555
Cd4_3 O5_3 1_555 1_555
O6_3 Cd4_3 1_555 1_555
C43_5 C44_5 1_555 1_555
B1_6 F1_5 1_555 1_555
F2_5 B1_6 1_555 1_555
O1_6 C20_6 1_555 1_555
O2_6 C20_6 1_555 1_555
N1_2 C1_6 1_555 1_555
N2_6 B1_6 1_555 1_555
N3_6 B1_6 1_555 1_555
C1_6 H1_6 1_555 1_555
C2_6 C1_6 1_555 1_555
H2_6 C2_6 1_555 1_555
C3_6 C2_6 1_555 1_555
C4_6 C3_6 1_555 1_555
H3_6 C4_6 1_555 1_555
C5_6 N1_2 1_555 1_555
H4_6 C5_6 1_555 1_555
C6_5 H5_5 1_555 1_555
H6_5 C6_5 1_555 1_555
H7_5 C6_5 1_555 1_555
C7_6 N2_6 1_555 1_555
C8_6 C3_6 1_555 1_555
C9_6 C8_6 1_555 1_555
C10_6 C9_6 1_555 1_555
H8_6 C10_6 1_555 1_555
H9_6 C10_6 1_555 1_555
H10_6 C10_6 1_555 1_555
C11_6 N2_6 1_555 1_555
C12_6 C11_6 1_555 1_555
C13_6 N3_6 1_555 1_555
C14_6 C12_6 1_555 1_555
C15_6 C14_6 1_555 1_555
H11_6 C15_6 1_555 1_555
C16_6 C15_6 1_555 1_555
H12_6 C16_6 1_555 1_555
C17_6 C16_6 1_555 1_555
C18_6 C17_6 1_555 1_555
H13_6 C18_6 1_555 1_555
C19_6 C14_6 1_555 1_555
H14_6 C19_6 1_555 1_555
C20_6 C17_6 1_555 1_555
C21_6 O1_6 1_555 1_555
H15_6 C21_6 1_555 1_555
H16_6 C21_6 1_555 1_555
H17_6 C21_6 1_555 1_555
H19_6 C22_6 1_555 1_555
H20_6 C22_6 1_555 1_555
C23_6 C13_6 1_555 1_555
C25_6 N3_6 1_555 1_555
C26_5 C25_6 1_555 1_555
H21_5 C26_5 1_555 1_555
H23_5 C26_5 1_555 1_555
Cd3_2 N1_2 1_555 1_555
C4_6 C5_6 1_555 1_555
C6_5 C7_6 1_555 1_555
C7_6 C8_6 1_555 1_555
C9_6 C11_6 1_555 1_555
C12_6 C13_6 1_555 1_555
C18_6 C19_6 1_555 1_555
C22_6 C23_6 1_555 1_555
O7_3 C32_6 1_555 1_555
O4_6 Cd3_2 1_555 1_555
O5_4 C45_6 1_555 1_555
O6_4 C45_6 1_555 1_555
N4_6 Cd3_2 1_555 1_555
C27_6 C24_6 1_555 1_555
C28_6 C27_6 1_555 1_555
H24_6 C28_6 1_555 1_555
C29_6 N4_6 1_555 1_555
H25_6 C29_6 1_555 1_555
C30_6 N4_6 1_555 1_555
H26_6 C30_6 1_555 1_555
C31_6 C27_6 1_555 1_555
H27_6 C31_6 1_555 1_555
C32_6 O4_6 1_555 1_555
C33_6 C32_6 1_555 1_555
C34_6 C33_6 1_555 1_555
H28_6 C34_6 1_555 1_555
C35_6 C34_6 1_555 1_555
H29_6 C35_6 1_555 1_555
C36_6 C35_6 1_555 1_555
C37_6 C36_6 1_555 1_555
H30_6 C37_6 1_555 1_555
C38_6 C33_6 1_555 1_555
H31_6 C38_6 1_555 1_555
C39_6 C36_6 1_555 1_555
C40_6 C39_6 1_555 1_555
H32_6 C40_6 1_555 1_555
C41_6 C40_6 1_555 1_555
H33_6 C41_6 1_555 1_555
C42_6 C41_6 1_555 1_555
C43_6 C42_6 1_555 1_555
H34_6 C43_6 1_555 1_555
C44_6 C39_6 1_555 1_555
H35_6 C44_6 1_555 1_555
C45_6 C42_6 1_555 1_555
Cd4_4 O5_4 1_555 1_555
O8_4 Cd3_2 1_555 1_555
O9_4 Cd3_2 1_555 1_555
O6_4 Cd4_4 1_555 1_555
C28_6 C29_6 1_555 1_555
C30_6 C31_6 1_555 1_555
C37_6 C38_6 1_555 1_555
C43_6 C44_6 1_555 1_555
O8_3 C45_7 1_555 1_555
O9_3 C45_7 1_555 1_555
H30_7 C37_7 1_555 1_555
C43_7 C42_7 1_555 1_555
H34_7 C43_7 1_555 1_555
H35_7 C44_7 1_555 1_555
C45_7 C42_7 1_555 1_555
C43_7 C44_7 1_555 1_555
O3_4 C32_7 1_555 1_555
C32_7 O4_7 1_555 1_555
C33_7 C32_7 1_555 1_555
C34_7 C33_7 1_555 1_555
H28_7 C34_7 1_555 1_555
C35_7 C34_7 1_555 1_555
H29_7 C35_7 1_555 1_555
C36_7 C35_7 1_555 1_555
C38_7 C33_7 1_555 1_555
C39_7 C36_7 1_555 1_555
C40_7 C39_7 1_555 1_555
H32_7 C40_7 1_555 1_555
C41_7 C40_7 1_555 1_555
H33_7 C41_7 1_555 1_555
Cd4_4 O3_4 1_555 1_555
O1_7 C20_7 1_555 1_555
O2_7 C20_7 1_555 1_555
N1_3 C1_7 1_555 1_555
N2_7 B1_7 1_555 1_555
N3_7 B1_7 1_555 1_555
C1_7 H1_7 1_555 1_555
C2_7 C1_7 1_555 1_555
H2_7 C2_7 1_555 1_555
C3_7 C2_7 1_555 1_555
C4_7 C3_7 1_555 1_555
H3_7 C4_7 1_555 1_555
C5_7 N1_3 1_555 1_555
H4_7 C5_7 1_555 1_555
C7_7 N2_7 1_555 1_555
C8_7 C3_7 1_555 1_555
C9_7 C8_7 1_555 1_555
C10_7 C9_7 1_555 1_555
H8_7 C10_7 1_555 1_555
H9_7 C10_7 1_555 1_555
H10_7 C10_7 1_555 1_555
C11_7 N2_7 1_555 1_555
C12_7 C11_7 1_555 1_555
C13_7 N3_7 1_555 1_555
C14_7 C12_7 1_555 1_555
C15_7 C14_7 1_555 1_555
H11_7 C15_7 1_555 1_555
C16_7 C15_7 1_555 1_555
H12_7 C16_7 1_555 1_555
C17_7 C16_7 1_555 1_555
C18_7 C17_7 1_555 1_555
H13_7 C18_7 1_555 1_555
C19_7 C14_7 1_555 1_555
H14_7 C19_7 1_555 1_555
C20_7 C17_7 1_555 1_555
C21_7 O1_7 1_555 1_555
H15_7 C21_7 1_555 1_555
H16_7 C21_7 1_555 1_555
H17_7 C21_7 1_555 1_555
H19_7 C22_7 1_555 1_555
H20_7 C22_7 1_555 1_555
C23_7 C13_7 1_555 1_555
C25_7 N3_7 1_555 1_555
Cd4_3 N1_3 1_555 1_555
C4_7 C5_7 1_555 1_555
C7_7 C8_7 1_555 1_555
C9_7 C11_7 1_555 1_555
C12_7 C13_7 1_555 1_555
C18_7 C19_7 1_555 1_555
C22_7 C23_7 1_555 1_555
N4_7 Cd4_3 1_555 1_555
C27_7 C24_7 1_555 1_555
C28_7 C27_7 1_555 1_555
H24_7 C28_7 1_555 1_555
C29_7 N4_7 1_555 1_555
H25_7 C29_7 1_555 1_555
C30_7 N4_7 1_555 1_555
H26_7 C30_7 1_555 1_555
C31_7 C27_7 1_555 1_555
H27_7 C31_7 1_555 1_555
O7_4 Cd4_3 1_555 1_555
C28_7 C29_7 1_555 1_555
C30_7 C31_7 1_555 1_555
O1_8 C20_8 1_555 1_555
O2_8 C20_8 1_555 1_555
N1_4 C1_8 1_555 1_555
N2_8 B1_8 1_555 1_555
N3_8 B1_8 1_555 1_555
C1_8 H1_8 1_555 1_555
C2_8 C1_8 1_555 1_555
H2_8 C2_8 1_555 1_555
C3_8 C2_8 1_555 1_555
C4_8 C3_8 1_555 1_555
H3_8 C4_8 1_555 1_555
C5_8 N1_4 1_555 1_555
H4_8 C5_8 1_555 1_555
C7_8 N2_8 1_555 1_555
C8_8 C3_8 1_555 1_555
C9_8 C8_8 1_555 1_555
C10_8 C9_8 1_555 1_555
H8_8 C10_8 1_555 1_555
H9_8 C10_8 1_555 1_555
H10_8 C10_8 1_555 1_555
C11_8 N2_8 1_555 1_555
C12_8 C11_8 1_555 1_555
C13_8 N3_8 1_555 1_555
C14_8 C12_8 1_555 1_555
C15_8 C14_8 1_555 1_555
H11_8 C15_8 1_555 1_555
C16_8 C15_8 1_555 1_555
H12_8 C16_8 1_555 1_555
C17_8 C16_8 1_555 1_555
C18_8 C17_8 1_555 1_555
H13_8 C18_8 1_555 1_555
C19_8 C14_8 1_555 1_555
H14_8 C19_8 1_555 1_555
C20_8 C17_8 1_555 1_555
C21_8 O1_8 1_555 1_555
H15_8 C21_8 1_555 1_555
H16_8 C21_8 1_555 1_555
H17_8 C21_8 1_555 1_555
H19_8 C22_8 1_555 1_555
H20_8 C22_8 1_555 1_555
C23_8 C13_8 1_555 1_555
C25_8 N3_8 1_555 1_555
Cd4_4 N1_4 1_555 1_555
C4_8 C5_8 1_555 1_555
C7_8 C8_8 1_555 1_555
C9_8 C11_8 1_555 1_555
C12_8 C13_8 1_555 1_555
C18_8 C19_8 1_555 1_555
C22_8 C23_8 1_555 1_555
N4_8 Cd4_4 1_555 1_555
C27_8 C24_8 1_555 1_555
C28_8 C27_8 1_555 1_555
H24_8 C28_8 1_555 1_555
C29_8 N4_8 1_555 1_555
H25_8 C29_8 1_555 1_555
C30_8 N4_8 1_555 1_555
H26_8 C30_8 1_555 1_555
C31_8 C27_8 1_555 1_555
H27_8 C31_8 1_555 1_555
C28_8 C29_8 1_555 1_555
C30_8 C31_8 1_555 1_555
O7_4 C32_8 1_555 1_555
O8_4 C45_8 1_555 1_555
O9_4 C45_8 1_555 1_555
C32_8 O4_8 1_555 1_555
C33_8 C32_8 1_555 1_555
C34_8 C33_8 1_555 1_555
H28_8 C34_8 1_555 1_555
C35_8 C34_8 1_555 1_555
H29_8 C35_8 1_555 1_555
C36_8 C35_8 1_555 1_555
C37_8 C36_8 1_555 1_555
H30_8 C37_8 1_555 1_555
C38_8 C33_8 1_555 1_555
H31_8 C38_8 1_555 1_555
C39_8 C36_8 1_555 1_555
C40_8 C39_8 1_555 1_555
H32_8 C40_8 1_555 1_555
C41_8 C40_8 1_555 1_555
H33_8 C41_8 1_555 1_555
C42_8 C41_8 1_555 1_555
C43_8 C42_8 1_555 1_555
H34_8 C43_8 1_555 1_555
C44_8 C39_8 1_555 1_555
H35_8 C44_8 1_555 1_555
C45_8 C42_8 1_555 1_555
C37_8 C38_8 1_555 1_555
C43_8 C44_8 1_555 1_555
C6_6 H5_6 1_555 1_555
H6_6 C6_6 1_555 1_555
H7_6 C6_6 1_555 1_555
H21_6 C26_6 1_555 1_555
H23_6 C26_6 1_555 1_555
C6_7 H5_7 1_555 1_555
H6_7 C6_7 1_555 1_555
H7_7 C6_7 1_555 1_555
H21_7 C26_7 1_555 1_555
H23_7 C26_7 1_555 1_555
C6_8 H5_8 1_555 1_555
H6_8 C6_8 1_555 1_555
H7_8 C6_8 1_555 1_555
H21_8 C26_8 1_555 1_555
H23_8 C26_8 1_555 1_555

#END
