
###############################################################################
#
# This file contains modified crystal structure data generated from the
# MOF subset of the Cambridge Structural Database (CSD) v543 
# hosted by the Cambridge Crystallographic Data Centre (CCDC).
#
# This work is licensed under the Creative Commons
# Attribution-NonCommercial-ShareAlike 4.0 International License.
# To view a copy of this license, visit
# http://creativecommons.org/licenses/by-nc-sa/4.0/
# or send a letter to
# Creative Commons, PO Box 1866, Mountain View, CA 94042, USA.
#
# CIF created using the CSD Python API on 29 September 2022
# The structure has been converted into the P1 space group
# The structure has a 3D framework
# The original CSD entry IMULEH is in the monoclinic crystal system
# The framework has been calculated to contain at least 10.0% void space
# The void calculation uses a probe of radius 1.32A, grid spacing 0.4
#
###############################################################################

data_IMULEH
_chemical_formula_moiety         '(C336 H288 Co14 N72 S24)n'
_symmetry_cell_setting           triclinic
_symmetry_space_group_name_H-M   'P 1'
_symmetry_Int_Tables_number      1
_space_group_name_Hall           'P 1'
loop_
_symmetry_equiv_pos_site_id
_symmetry_equiv_pos_as_xyz
1 x,y,z
_cell_length_a                   19.5758(6)
_cell_length_b                   19.3887(6)
_cell_length_c                   27.3461(6)
_cell_angle_alpha                90
_cell_angle_beta                 108.4899(16)
_cell_angle_gamma                90
_cell_volume                     9843.42
loop_
_atom_site_label
_atom_site_type_symbol
_atom_site_fract_x
_atom_site_fract_y
_atom_site_fract_z
Co1 Co 0.0000 0.38133(5) 0.2500
N1 N 0.0747(3) 0.4651(2) 0.2470(3)
N2 N 0.4221(3) 0.8014(3) 0.2523(2)
C1 C 0.0977(6) 0.5071(4) 0.2897(5)
H1 H 0.0791 0.5001 0.3167
C2 C 0.1469(7) 0.5585(5) 0.2940(6)
H2 H 0.1619 0.5847 0.3240
C3 C 0.1752(5) 0.5724(5) 0.2534(7)
C4 C 0.1454(6) 0.5334(5) 0.2092(5)
H3 H 0.1566 0.5426 0.1793
C5 C 0.0987(4) 0.4806(4) 0.2104(4)
H4 H 0.0830 0.4533 0.1810
C6 C 0.2337(8) 0.6201(7) 0.2725(9)
C7 C 0.2765(8) 0.6436(9) 0.3267(9)
H5 H 0.3246 0.6555 0.3277
H6 H 0.2783 0.6071 0.3507
H7 H 0.2537 0.6833 0.3357
C8 C 0.3995(4) 0.7532(3) 0.2162(3)
H8 H 0.4212 0.7507 0.1905
C9 C 0.3459(5) 0.7070(4) 0.2148(4)
H9 H 0.3306 0.6758 0.1876
C10 C 0.3383(4) 0.7542(5) 0.2893(4)
H10 H 0.3186 0.7568 0.3161
C11 C 0.3142(4) 0.7065(4) 0.2541(5)
C12 C 0.3908(4) 0.8005(4) 0.2887(3)
H11 H 0.4051 0.8328 0.3151
C13 C 0.2582(6) 0.6520(6) 0.2469(7)
H12 H 0.2375 0.6408 0.2123
S2 S 0.1332(2) 0.3542(2) 0.42816(13)
N6 N 0.0403(3) 0.3794(3) 0.3295(3)
C28 C 0.0777(4) 0.3685(4) 0.3706(4)
N8 N 0.0779(3) 0.3014(3) 0.2477(2)
Co2 Co 0.5000 0.88133(5) 0.2500
Co1_2 Co 1.0000 0.38133(5) 0.2500
S1 S 0.8668(2) 0.3542(2) 0.07184(13)
N3 N 0.9597(3) 0.3794(3) 0.1705(3)
C14 C 0.9223(4) 0.3685(4) 0.1294(4)
N4 N 0.9253(3) 0.4651(2) 0.2530(3)
N5 N 0.5779(3) 0.8014(3) 0.2477(2)
C15 C 0.9023(6) 0.5071(4) 0.2103(5)
H13 H 0.9209 0.5001 0.1833
C16 C 0.8531(7) 0.5585(5) 0.2060(6)
H14 H 0.8381 0.5847 0.1760
C17 C 0.8248(5) 0.5724(5) 0.2466(7)
C18 C 0.8546(6) 0.5334(5) 0.2908(5)
H15 H 0.8434 0.5426 0.3207
C19 C 0.9013(4) 0.4806(4) 0.2896(4)
H16 H 0.9170 0.4533 0.3190
C20 C 0.7663(8) 0.6201(7) 0.2275(9)
C21 C 0.7235(8) 0.6436(9) 0.1733(9)
H17 H 0.6754 0.6555 0.1723
H18 H 0.7217 0.6071 0.1493
H19 H 0.7463 0.6833 0.1643
C22 C 0.6005(4) 0.7532(3) 0.2838(3)
H20 H 0.5788 0.7507 0.3095
C23 C 0.6541(5) 0.7070(4) 0.2852(4)
H21 H 0.6694 0.6758 0.3124
C24 C 0.6617(4) 0.7542(5) 0.2107(4)
H22 H 0.6814 0.7568 0.1839
C25 C 0.6858(4) 0.7065(4) 0.2459(5)
C26 C 0.6092(4) 0.8005(4) 0.2113(3)
H23 H 0.5949 0.8328 0.1849
C27 C 0.7418(6) 0.6520(6) 0.2531(7)
H24 H 0.7625 0.6408 0.2877
N7 N 0.9221(3) 0.3014(3) 0.2523(2)
C1_2 C 0.5977(6) 0.0071(4) 0.2897(5)
H1_2 H 0.5791 0.0001 0.3167
C2_2 C 0.6469(7) 0.0585(5) 0.2940(6)
H2_2 H 0.6619 0.0847 0.3240
C3_2 C 0.6752(5) 0.0724(5) 0.2534(7)
C4_2 C 0.6454(6) 0.0334(5) 0.2092(5)
H3_2 H 0.6566 0.0426 0.1793
C6_2 C 0.7337(8) 0.1201(7) 0.2725(9)
C7_2 C 0.7765(8) 0.1436(9) 0.3267(9)
H5_2 H 0.8246 0.1555 0.3277
H6_2 H 0.7783 0.1071 0.3507
H7_2 H 0.7537 0.1833 0.3357
C8_2 C 0.8995(4) 0.2532(3) 0.2162(3)
H8_2 H 0.9212 0.2507 0.1905
C9_2 C 0.8459(5) 0.2070(4) 0.2148(4)
H9_2 H 0.8306 0.1758 0.1876
C10_2 C 0.8383(4) 0.2542(5) 0.2893(4)
H10_2 H 0.8186 0.2568 0.3161
C11_2 C 0.8142(4) 0.2065(4) 0.2541(5)
C12_2 C 0.8908(4) 0.3005(4) 0.2887(3)
H11_2 H 0.9051 0.3328 0.3151
C13_2 C 0.7582(6) 0.1520(6) 0.2469(7)
H12_2 H 0.7375 0.1408 0.2123
C15_2 C 0.4023(6) 0.0071(4) 0.2103(5)
H13_2 H 0.4209 0.0001 0.1833
C16_2 C 0.3531(7) 0.0585(5) 0.2060(6)
H14_2 H 0.3381 0.0847 0.1760
C17_2 C 0.3248(5) 0.0724(5) 0.2466(7)
C18_2 C 0.3546(6) 0.0334(5) 0.2908(5)
H15_2 H 0.3434 0.0426 0.3207
C20_2 C 0.2663(8) 0.1201(7) 0.2275(9)
C21_2 C 0.2235(8) 0.1436(9) 0.1733(9)
H17_2 H 0.1754 0.1555 0.1723
H18_2 H 0.2217 0.1071 0.1493
H19_2 H 0.2463 0.1833 0.1643
C22_2 C 0.1005(4) 0.2532(3) 0.2838(3)
H20_2 H 0.0788 0.2507 0.3095
C23_2 C 0.1541(5) 0.2070(4) 0.2852(4)
H21_2 H 0.1694 0.1758 0.3124
C24_2 C 0.1617(4) 0.2542(5) 0.2107(4)
H22_2 H 0.1814 0.2568 0.1839
C25_2 C 0.1858(4) 0.2065(4) 0.2459(5)
C26_2 C 0.1092(4) 0.3005(4) 0.2113(3)
H23_2 H 0.0949 0.3328 0.1849
C27_2 C 0.2418(6) 0.1520(6) 0.2531(7)
H24_2 H 0.2625 0.1408 0.2877
S1_2 S 0.3668(2) 0.8542(2) 0.07184(13)
N1_2 N 0.5747(3) 0.9651(2) 0.2470(3)
N3_2 N 0.4597(3) 0.8794(3) 0.1705(3)
C5_2 C 0.5987(4) 0.9806(4) 0.2104(4)
H4_2 H 0.5830 0.9533 0.1810
C14_2 C 0.4223(4) 0.8685(4) 0.1294(4)
N4_2 N 0.4253(3) 0.9651(2) 0.2530(3)
C19_2 C 0.4013(4) 0.9806(4) 0.2896(4)
H16_2 H 0.4170 0.9533 0.3190
S2_2 S 0.6332(2) 0.8542(2) 0.42816(13)
N6_2 N 0.5403(3) 0.8794(3) 0.3295(3)
C28_2 C 0.5777(4) 0.8685(4) 0.3706(4)
Co1_3 Co 0.0000 0.61867(5) 0.7500
N1_3 N 0.0747(3) 0.5349(2) 0.7470(3)
N2_2 N 0.4221(3) 0.1986(3) 0.7523(2)
C1_3 C 0.0977(6) 0.4929(4) 0.7897(5)
H1_3 H 0.0791 0.4999 0.8167
C2_3 C 0.1469(7) 0.4415(5) 0.7940(6)
H2_3 H 0.1619 0.4153 0.8240
C3_3 C 0.1752(5) 0.4276(5) 0.7534(7)
C4_3 C 0.1454(6) 0.4666(5) 0.7092(5)
H3_3 H 0.1566 0.4574 0.6793
C5_3 C 0.0987(4) 0.5194(4) 0.7104(4)
H4_3 H 0.0830 0.5467 0.6810
C6_3 C 0.2337(8) 0.3799(7) 0.7725(9)
C7_3 C 0.2765(8) 0.3564(9) 0.8267(9)
H5_3 H 0.3246 0.3445 0.8277
H6_3 H 0.2783 0.3929 0.8507
H7_3 H 0.2537 0.3167 0.8357
C8_3 C 0.3995(4) 0.2468(3) 0.7162(3)
H8_3 H 0.4212 0.2493 0.6905
C9_3 C 0.3459(5) 0.2930(4) 0.7148(4)
H9_3 H 0.3306 0.3242 0.6876
C10_3 C 0.3383(4) 0.2458(5) 0.7893(4)
H10_3 H 0.3186 0.2432 0.8161
C11_3 C 0.3142(4) 0.2935(4) 0.7541(5)
C12_3 C 0.3908(4) 0.1995(4) 0.7887(3)
H11_3 H 0.4051 0.1672 0.8151
C13_3 C 0.2582(6) 0.3480(6) 0.7469(7)
H12_3 H 0.2375 0.3592 0.7123
S2_3 S 0.1332(2) 0.6458(2) 0.92816(13)
N6_3 N 0.0403(3) 0.6206(3) 0.8295(3)
C28_3 C 0.0777(4) 0.6315(4) 0.8706(4)
N8_2 N 0.0779(3) 0.6986(3) 0.7477(2)
Co2_2 Co 0.5000 0.11867(5) 0.7500
Co1_4 Co 1.0000 0.61867(5) 0.7500
S1_3 S 0.8668(2) 0.6458(2) 0.57184(13)
N3_3 N 0.9597(3) 0.6206(3) 0.6705(3)
C14_3 C 0.9223(4) 0.6315(4) 0.6294(4)
N4_3 N 0.9253(3) 0.5349(2) 0.7530(3)
N5_2 N 0.5779(3) 0.1986(3) 0.7477(2)
C15_3 C 0.9023(6) 0.4929(4) 0.7103(5)
H13_3 H 0.9209 0.4999 0.6833
C16_3 C 0.8531(7) 0.4415(5) 0.7060(6)
H14_3 H 0.8381 0.4153 0.6760
C17_3 C 0.8248(5) 0.4276(5) 0.7466(7)
C18_3 C 0.8546(6) 0.4666(5) 0.7908(5)
H15_3 H 0.8434 0.4574 0.8207
C19_3 C 0.9013(4) 0.5194(4) 0.7896(4)
H16_3 H 0.9170 0.5467 0.8190
C20_3 C 0.7663(8) 0.3799(7) 0.7275(9)
C21_3 C 0.7235(8) 0.3564(9) 0.6733(9)
H17_3 H 0.6754 0.3445 0.6723
H18_3 H 0.7217 0.3929 0.6493
H19_3 H 0.7463 0.3167 0.6643
C22_3 C 0.6005(4) 0.2468(3) 0.7838(3)
H20_3 H 0.5788 0.2493 0.8095
C23_3 C 0.6541(5) 0.2930(4) 0.7852(4)
H21_3 H 0.6694 0.3242 0.8124
C24_3 C 0.6617(4) 0.2458(5) 0.7107(4)
H22_3 H 0.6814 0.2432 0.6839
C25_3 C 0.6858(4) 0.2935(4) 0.7459(5)
C26_3 C 0.6092(4) 0.1995(4) 0.7113(3)
H23_3 H 0.5949 0.1672 0.6849
C27_3 C 0.7418(6) 0.3480(6) 0.7531(7)
H24_3 H 0.7625 0.3592 0.7877
N7_2 N 0.9221(3) 0.6986(3) 0.7523(2)
S1_4 S 0.3668(2) 0.1458(2) 0.57184(13)
N1_4 N 0.5747(3) 0.0349(2) 0.7470(3)
N3_4 N 0.4597(3) 0.1206(3) 0.6705(3)
C5_4 C 0.5987(4) 0.0194(4) 0.7104(4)
H4_4 H 0.5830 0.0467 0.6810
C14_4 C 0.4223(4) 0.1315(4) 0.6294(4)
N4_4 N 0.4253(3) 0.0349(2) 0.7530(3)
C19_4 C 0.4013(4) 0.0194(4) 0.7896(4)
H16_4 H 0.4170 0.0467 0.8190
S2_4 S 0.6332(2) 0.1458(2) 0.92816(13)
N6_4 N 0.5403(3) 0.1206(3) 0.8295(3)
C28_4 C 0.5777(4) 0.1315(4) 0.8706(4)
C1_4 C 0.5977(6) 0.9929(4) 0.7897(5)
H1_4 H 0.5791 0.9999 0.8167
C2_4 C 0.6469(7) 0.9415(5) 0.7940(6)
H2_4 H 0.6619 0.9153 0.8240
C3_4 C 0.6752(5) 0.9276(5) 0.7534(7)
C4_4 C 0.6454(6) 0.9666(5) 0.7092(5)
H3_4 H 0.6566 0.9574 0.6793
C6_4 C 0.7337(8) 0.8799(7) 0.7725(9)
C7_4 C 0.7765(8) 0.8564(9) 0.8267(9)
H5_4 H 0.8246 0.8445 0.8277
H6_4 H 0.7783 0.8929 0.8507
H7_4 H 0.7537 0.8167 0.8357
C8_4 C 0.8995(4) 0.7468(3) 0.7162(3)
H8_4 H 0.9212 0.7493 0.6905
C9_4 C 0.8459(5) 0.7930(4) 0.7148(4)
H9_4 H 0.8306 0.8242 0.6876
C10_4 C 0.8383(4) 0.7458(5) 0.7893(4)
H10_4 H 0.8186 0.7432 0.8161
C11_4 C 0.8142(4) 0.7935(4) 0.7541(5)
C12_4 C 0.8908(4) 0.6995(4) 0.7887(3)
H11_4 H 0.9051 0.6672 0.8151
C13_4 C 0.7582(6) 0.8480(6) 0.7469(7)
H12_4 H 0.7375 0.8592 0.7123
C15_4 C 0.4023(6) 0.9929(4) 0.7103(5)
H13_4 H 0.4209 0.9999 0.6833
C16_4 C 0.3531(7) 0.9415(5) 0.7060(6)
H14_4 H 0.3381 0.9153 0.6760
C17_4 C 0.3248(5) 0.9276(5) 0.7466(7)
C18_4 C 0.3546(6) 0.9666(5) 0.7908(5)
H15_4 H 0.3434 0.9574 0.8207
C20_4 C 0.2663(8) 0.8799(7) 0.7275(9)
C21_4 C 0.2235(8) 0.8564(9) 0.6733(9)
H17_4 H 0.1754 0.8445 0.6723
H18_4 H 0.2217 0.8929 0.6493
H19_4 H 0.2463 0.8167 0.6643
C22_4 C 0.1005(4) 0.7468(3) 0.7838(3)
H20_4 H 0.0788 0.7493 0.8095
C23_4 C 0.1541(5) 0.7930(4) 0.7852(4)
H21_4 H 0.1694 0.8242 0.8124
C24_4 C 0.1617(4) 0.7458(5) 0.7107(4)
H22_4 H 0.1814 0.7432 0.6839
C25_4 C 0.1858(4) 0.7935(4) 0.7459(5)
C26_4 C 0.1092(4) 0.6995(4) 0.7113(3)
H23_4 H 0.0949 0.6672 0.6849
C27_4 C 0.2418(6) 0.8480(6) 0.7531(7)
H24_4 H 0.2625 0.8592 0.7877
S3 S 0.0263(2) 0.1537(2) 0.1333(3)
N9 N 0.7741(3) 0.0680(3) 0.07852(17)
N10 N 0.4220(3) 0.3927(3) 0.08598(19)
N12 N 0.8425(3) 0.0027(3) 0.00266(18)
N13 N 0.9352(3) 0.0429(4) 0.1054(2)
C29 C 0.7888(4) 0.1322(4) 0.0705(2)
H25 H 0.8341 0.1402 0.0674
C30 C 0.7461(4) 0.1881(4) 0.0662(3)
H26 H 0.7620 0.2316 0.0604
C31 C 0.6781(4) 0.1791(3) 0.0706(3)
C32 C 0.6601(5) 0.1114(4) 0.0778(4)
H27 H 0.6148 0.1015 0.0802
C33 C 0.7085(4) 0.0591(4) 0.0816(3)
H28 H 0.6944 0.0146 0.0866
C34 C 0.6253(4) 0.2379(4) 0.0627(3)
C35 C 0.6290(5) 0.2921(4) 0.0254(4)
H29 H 0.6006 0.3311 0.0288
H31 H 0.6782 0.3061 0.0322
C36 C 0.4795(4) 0.3831(4) 0.1272(3)
H32 H 0.4850 0.4115 0.1556
C37 C 0.5315(4) 0.3338(4) 0.1305(3)
H33 H 0.5699 0.3284 0.1607
C38 C 0.5254(4) 0.2923(4) 0.0879(3)
C39 C 0.4670(6) 0.3044(6) 0.0450(4)
H34 H 0.4610 0.2778 0.0156
C40 C 0.4187(5) 0.3535(5) 0.0443(4)
H35 H 0.3812 0.3611 0.0139
C41 C 0.5814(4) 0.2395(4) 0.0908(4)
H36 H 0.5862 0.2043 0.1147
C55 C 0.9730(4) 0.0888(4) 0.1163(3)
Co5 Co 0.34814(4) 0.47994(4) 0.08221(3)
Co4 Co 0.84814(4) 0.97994(4) 0.08221(3)
S4 S 0.6426(11) 0.8371(13) 0.0663(8)
N14 N 0.7626(3) 0.9125(3) 0.0573(2)
H37 H 0.9442 0.9990 0.0115
C56 C 0.7190(12) 0.8704(10) 0.0581(6)
N15 N 0.9220(3) 0.8927(3) 0.08598(19)
N16 N 0.8511(3) 0.9658(3) 0.16321(17)
S3_2 S 0.5263(2) 0.6537(2) 0.1333(3)
S4_2 S 0.1426(11) 0.3371(13) 0.0663(8)
N9_2 N 0.2741(3) 0.5680(3) 0.07852(17)
N12_2 N 0.3425(3) 0.5027(3) 0.00266(18)
N13_2 N 0.4352(3) 0.5429(4) 0.1054(2)
N14_2 N 0.2626(3) 0.4125(3) 0.0573(2)
C29_2 C 0.2888(4) 0.6322(4) 0.0705(2)
H25_2 H 0.3341 0.6402 0.0674
C30_2 C 0.2461(4) 0.6881(4) 0.0662(3)
H26_2 H 0.2620 0.7316 0.0604
C31_2 C 0.1781(4) 0.6791(3) 0.0706(3)
C32_2 C 0.1601(5) 0.6114(4) 0.0778(4)
H27_2 H 0.1148 0.6015 0.0802
C33_2 C 0.2085(4) 0.5591(4) 0.0816(3)
H28_2 H 0.1944 0.5146 0.0866
C34_2 C 0.1253(4) 0.7379(4) 0.0627(3)
C35_2 C 0.1290(5) 0.7921(4) 0.0254(4)
H29_2 H 0.1006 0.8311 0.0288
H31_2 H 0.1782 0.8061 0.0322
C37_2 C 0.0315(4) 0.8338(4) 0.1305(3)
H33_2 H 0.0699 0.8284 0.1607
C38_2 C 0.0254(4) 0.7923(4) 0.0879(3)
C41_2 C 0.0814(4) 0.7395(4) 0.0908(4)
H36_2 H 0.0862 0.7043 0.1147
H37_2 H 0.4442 0.4990 0.0115
C55_2 C 0.4730(4) 0.5888(4) 0.1163(3)
C56_2 C 0.2190(12) 0.3704(10) 0.0581(6)
N16_2 N 0.3511(3) 0.4658(3) 0.16321(17)
N11 N 0.3511(3) 0.5342(3) 0.66321(17)
H30 H 0.1106 0.7742 0.9910
C42 C 0.3991(4) 0.5056(5) 0.9873(3)
C43 C 0.3949(6) 0.5180(6) 0.9363(3)
H38 H 0.4369 0.5183 0.9273
C44 C 0.3303(6) 0.5298(6) 0.8993(2)
C45 C 0.2728(6) 0.5257(6) 0.9153(3)
H39 H 0.2272 0.5308 0.8914
C46 C 0.2787(4) 0.5141(5) 0.9662(2)
H40 H 0.2371 0.5141 0.9757
C47 C 0.3172(9) 0.5532(10) 0.8454(3)
C48 C 0.2646(5) 0.6167(5) 0.8190(3)
H41 H 0.2786 0.6347 0.7909
H42 H 0.2683 0.6523 0.8441
H43 H 0.2158 0.6006 0.8063
C49 C 0.3835(5) 0.4897(5) 0.6996(3)
H44 H 0.4110 0.4546 0.6921
C50 C 0.3776(6) 0.4936(6) 0.7493(3)
H45 H 0.4016 0.4606 0.7733
C51 C 0.3405(5) 0.5408(5) 0.7641(3)
C52 C 0.3144(6) 0.5830(6) 0.6763(3)
H46 H 0.2907 0.6157 0.6519
C53 C 0.3097(8) 0.5874(7) 0.7266(4)
H47 H 0.2842 0.6239 0.7345
C54 C 0.3369(8) 0.5379(7) 0.8178(4)
H48 H 0.3707 0.5045 0.8338
Co6 Co 0.34814(4) 0.52006(4) 0.58221(3)
C36_2 C 0.9795(4) 0.8831(4) 0.1272(3)
H32_2 H 0.9850 0.9115 0.1556
C39_2 C 0.9670(6) 0.8044(6) 0.0450(4)
H34_2 H 0.9610 0.7778 0.0156
C40_2 C 0.9187(5) 0.8535(5) 0.0443(4)
H35_2 H 0.8812 0.8611 0.0139
N9_3 N 0.7741(3) 0.9320(3) 0.57852(17)
N10_2 N 0.4220(3) 0.6073(3) 0.58598(19)
N12_3 N 0.8425(3) 0.9973(3) 0.50266(18)
N13_3 N 0.9352(3) 0.9571(4) 0.6054(2)
C29_3 C 0.7888(4) 0.8678(4) 0.5705(2)
H25_3 H 0.8341 0.8598 0.5674
C30_3 C 0.7461(4) 0.8119(4) 0.5662(3)
H26_3 H 0.7620 0.7684 0.5604
C31_3 C 0.6781(4) 0.8209(3) 0.5706(3)
C32_3 C 0.6601(5) 0.8886(4) 0.5778(4)
H27_3 H 0.6148 0.8985 0.5802
C33_3 C 0.7085(4) 0.9409(4) 0.5816(3)
H28_3 H 0.6944 0.9854 0.5866
C34_3 C 0.6253(4) 0.7621(4) 0.5627(3)
C35_3 C 0.6290(5) 0.7079(4) 0.5254(4)
H29_3 H 0.6006 0.6689 0.5288
H30_2 H 0.6106 0.7258 0.4910
H31_3 H 0.6782 0.6939 0.5322
C36_3 C 0.4795(4) 0.6169(4) 0.6272(3)
H32_3 H 0.4850 0.5885 0.6556
C37_3 C 0.5315(4) 0.6662(4) 0.6305(3)
H33_3 H 0.5699 0.6716 0.6607
C38_3 C 0.5254(4) 0.7077(4) 0.5879(3)
C39_3 C 0.4670(6) 0.6956(6) 0.5450(4)
H34_3 H 0.4610 0.7222 0.5156
C40_3 C 0.4187(5) 0.6465(5) 0.5443(4)
H35_3 H 0.3812 0.6389 0.5139
C41_3 C 0.5814(4) 0.7605(4) 0.5908(4)
H36_3 H 0.5862 0.7957 0.6147
C42_2 C 0.8991(4) 0.9944(5) 0.4873(3)
C43_2 C 0.8949(6) 0.9820(6) 0.4363(3)
H38_2 H 0.9369 0.9817 0.4273
C44_2 C 0.8303(6) 0.9702(6) 0.3993(2)
C45_2 C 0.7728(6) 0.9743(6) 0.4153(3)
H39_2 H 0.7272 0.9692 0.3914
C46_2 C 0.7787(4) 0.9859(5) 0.4662(2)
H40_2 H 0.7371 0.9859 0.4757
C47_2 C 0.8172(9) 0.9468(10) 0.3454(3)
C48_2 C 0.7646(5) 0.8833(5) 0.3190(3)
H41_2 H 0.7786 0.8653 0.2909
H42_2 H 0.7683 0.8477 0.3441
H43_2 H 0.7158 0.8994 0.3063
C51_2 C 0.8405(5) 0.9592(5) 0.2641(3)
C52_2 C 0.8144(6) 0.9170(6) 0.1763(3)
H46_2 H 0.7907 0.8843 0.1519
C53_2 C 0.8097(8) 0.9126(7) 0.2266(4)
H47_2 H 0.7842 0.8761 0.2345
C54_2 C 0.8369(8) 0.9621(7) 0.3178(4)
H48_2 H 0.8707 0.9955 0.3338
C55_3 C 0.9730(4) 0.9112(4) 0.6163(3)
S3_3 S 0.5263(2) 0.3463(2) 0.6333(3)
S4_3 S 0.1426(11) 0.6629(13) 0.5663(8)
N9_4 N 0.2741(3) 0.4320(3) 0.57852(17)
N12_4 N 0.3425(3) 0.4973(3) 0.50266(18)
N13_4 N 0.4352(3) 0.4571(4) 0.6054(2)
N14_3 N 0.2626(3) 0.5875(3) 0.5573(2)
C29_4 C 0.2888(4) 0.3678(4) 0.5705(2)
H25_4 H 0.3341 0.3598 0.5674
C30_4 C 0.2461(4) 0.3119(4) 0.5662(3)
H26_4 H 0.2620 0.2684 0.5604
C31_4 C 0.1781(4) 0.3209(3) 0.5706(3)
C32_4 C 0.1601(5) 0.3886(4) 0.5778(4)
H27_4 H 0.1148 0.3985 0.5802
C33_4 C 0.2085(4) 0.4409(4) 0.5816(3)
H28_4 H 0.1944 0.4854 0.5866
C34_4 C 0.1253(4) 0.2621(4) 0.5627(3)
C35_4 C 0.1290(5) 0.2079(4) 0.5254(4)
H29_4 H 0.1006 0.1689 0.5288
H30_3 H 0.1106 0.2258 0.4910
H31_4 H 0.1782 0.1939 0.5322
C37_4 C 0.0315(4) 0.1662(4) 0.6305(3)
H33_4 H 0.0699 0.1716 0.6607
C38_4 C 0.0254(4) 0.2077(4) 0.5879(3)
C41_4 C 0.0814(4) 0.2605(4) 0.5908(4)
H36_4 H 0.0862 0.2957 0.6147
C42_3 C 0.3991(4) 0.4944(5) 0.4873(3)
H37_3 H 0.4442 0.5010 0.5115
C43_3 C 0.3949(6) 0.4820(6) 0.4363(3)
H38_3 H 0.4369 0.4817 0.4273
C44_3 C 0.3303(6) 0.4702(6) 0.3993(2)
C45_3 C 0.2728(6) 0.4743(6) 0.4153(3)
H39_3 H 0.2272 0.4692 0.3914
C46_3 C 0.2787(4) 0.4859(5) 0.4662(2)
H40_3 H 0.2371 0.4859 0.4757
C47_3 C 0.3172(9) 0.4468(10) 0.3454(3)
C48_3 C 0.2646(5) 0.3833(5) 0.3190(3)
H41_3 H 0.2786 0.3653 0.2909
H42_3 H 0.2683 0.3477 0.3441
H43_3 H 0.2158 0.3994 0.3063
C49_2 C 0.3835(5) 0.5103(5) 0.1996(3)
H44_2 H 0.4110 0.5454 0.1921
C50_2 C 0.3776(6) 0.5064(6) 0.2493(3)
H45_2 H 0.4016 0.5394 0.2733
C51_3 C 0.3405(5) 0.4592(5) 0.2641(3)
C52_3 C 0.3144(6) 0.4170(6) 0.1763(3)
H46_3 H 0.2907 0.3843 0.1519
C53_3 C 0.3097(8) 0.4126(7) 0.2266(4)
H47_3 H 0.2842 0.3761 0.2345
C54_3 C 0.3369(8) 0.4621(7) 0.3178(4)
H48_3 H 0.3707 0.4955 0.3338
C55_4 C 0.4730(4) 0.4112(4) 0.6163(3)
C56_3 C 0.2190(12) 0.6296(10) 0.5581(6)
N11_2 N 0.8511(3) 0.0342(3) 0.66321(17)
H30_4 H 0.6106 0.2742 0.9910
C42_4 C 0.8991(4) 0.0056(5) 0.9873(3)
C43_4 C 0.8949(6) 0.0180(6) 0.9363(3)
H38_4 H 0.9369 0.0183 0.9273
C44_4 C 0.8303(6) 0.0298(6) 0.8993(2)
C45_4 C 0.7728(6) 0.0257(6) 0.9153(3)
H39_4 H 0.7272 0.0308 0.8914
C46_4 C 0.7787(4) 0.0141(5) 0.9662(2)
H40_4 H 0.7371 0.0141 0.9757
C47_4 C 0.8172(9) 0.0532(10) 0.8454(3)
C48_4 C 0.7646(5) 0.1167(5) 0.8190(3)
H41_4 H 0.7786 0.1347 0.7909
H42_4 H 0.7683 0.1523 0.8441
H43_4 H 0.7158 0.1006 0.8063
C51_4 C 0.8405(5) 0.0408(5) 0.7641(3)
C52_4 C 0.8144(6) 0.0830(6) 0.6763(3)
H46_4 H 0.7907 0.1157 0.6519
C53_4 C 0.8097(8) 0.0874(7) 0.7266(4)
H47_4 H 0.7842 0.1239 0.7345
C54_4 C 0.8369(8) 0.0379(7) 0.8178(4)
H48_4 H 0.8707 0.0045 0.8338
Co6_2 Co 0.84814(4) 0.02006(4) 0.58221(3)
S4_4 S 0.6426(11) 0.1629(13) 0.5663(8)
N14_4 N 0.7626(3) 0.0875(3) 0.5573(2)
H37_4 H 0.9442 0.0010 0.5115
C49_3 C 0.8835(5) 0.0103(5) 0.1996(3)
H44_3 H 0.9110 0.0454 0.1921
C50_3 C 0.8776(6) 0.0064(6) 0.2493(3)
H45_3 H 0.9016 0.0394 0.2733
C56_4 C 0.7190(12) 0.1296(10) 0.5581(6)
N15_2 N 0.9220(3) 0.1073(3) 0.58598(19)
C36_4 C 0.9795(4) 0.1169(4) 0.6272(3)
H32_4 H 0.9850 0.0885 0.6556
C39_4 C 0.9670(6) 0.1956(6) 0.5450(4)
H34_4 H 0.9610 0.2222 0.5156
C40_4 C 0.9187(5) 0.1465(5) 0.5443(4)
H35_4 H 0.8812 0.1389 0.5139
C49_4 C 0.8835(5) 0.9897(5) 0.6996(3)
H44_4 H 0.9110 0.9546 0.6921
C50_4 C 0.8776(6) 0.9936(6) 0.7493(3)
H45_4 H 0.9016 0.9606 0.7733
S3_4 S 0.0263(2) 0.8463(2) 0.6333(3)
C49_5 C 0.1165(5) 0.0103(5) 0.3004(3)
H44_5 H 0.0890 0.0454 0.3079
C50_5 C 0.1224(6) 0.0064(6) 0.2507(3)
H45_5 H 0.0984 0.0394 0.2267
Co4_2 Co 0.15186(4) 0.02006(4) 0.91779(3)
S4_5 S 0.3574(11) 0.1629(13) 0.9337(8)
N14_5 N 0.2374(3) 0.0875(3) 0.9427(2)
H37_5 H 0.0558 0.0010 0.9885
C56_5 C 0.2810(12) 0.1296(10) 0.9419(6)
N15_3 N 0.0780(3) 0.1073(3) 0.91402(19)
N16_3 N 0.1489(3) 0.0342(3) 0.83679(17)
N9_5 N 0.2259(3) 0.9320(3) 0.92148(17)
N10_3 N 0.5780(3) 0.6073(3) 0.91402(19)
N12_5 N 0.1575(3) 0.9973(3) 0.99734(18)
N13_5 N 0.0648(3) 0.9571(4) 0.8946(2)
C29_5 C 0.2112(4) 0.8678(4) 0.9295(2)
H25_5 H 0.1659 0.8598 0.9326
C30_5 C 0.2539(4) 0.8119(4) 0.9338(3)
H26_5 H 0.2380 0.7684 0.9396
C31_5 C 0.3219(4) 0.8209(3) 0.9294(3)
C32_5 C 0.3399(5) 0.8886(4) 0.9222(4)
H27_5 H 0.3852 0.8985 0.9198
C33_5 C 0.2915(4) 0.9409(4) 0.9184(3)
H28_5 H 0.3056 0.9854 0.9134
C34_5 C 0.3747(4) 0.7621(4) 0.9373(3)
C35_5 C 0.3710(5) 0.7079(4) 0.9746(4)
H29_5 H 0.3994 0.6689 0.9712
H31_5 H 0.3218 0.6939 0.9678
C36_5 C 0.5205(4) 0.6169(4) 0.8728(3)
H32_5 H 0.5150 0.5885 0.8444
C37_5 C 0.4685(4) 0.6662(4) 0.8695(3)
H33_5 H 0.4301 0.6716 0.8393
C38_5 C 0.4746(4) 0.7077(4) 0.9121(3)
C39_5 C 0.5330(6) 0.6956(6) 0.9550(4)
H34_5 H 0.5390 0.7222 0.9844
C40_5 C 0.5813(5) 0.6465(5) 0.9557(4)
H35_5 H 0.6188 0.6389 0.9861
C41_5 C 0.4186(4) 0.7605(4) 0.9092(4)
H36_5 H 0.4138 0.7957 0.8853
C55_5 C 0.0270(4) 0.9112(4) 0.8837(3)
Co5_2 Co 0.65186(4) 0.52006(4) 0.91779(3)
C36_6 C 0.0205(4) 0.1169(4) 0.8728(3)
H32_6 H 0.0150 0.0885 0.8444
C39_6 C 0.0330(6) 0.1956(6) 0.9550(4)
H34_6 H 0.0390 0.2222 0.9844
C40_6 C 0.0813(5) 0.1465(5) 0.9557(4)
H35_6 H 0.1188 0.1389 0.9861
N11_3 N 0.6489(3) 0.4658(3) 0.33679(17)
H30_5 H 0.8894 0.2258 0.0090
C42_5 C 0.6009(4) 0.4944(5) 0.0127(3)
C43_5 C 0.6051(6) 0.4820(6) 0.0637(3)
H38_5 H 0.5631 0.4817 0.0727
C44_5 C 0.6697(6) 0.4702(6) 0.1007(2)
C45_5 C 0.7272(6) 0.4743(6) 0.0847(3)
H39_5 H 0.7728 0.4692 0.1086
C46_5 C 0.7213(4) 0.4859(5) 0.0338(2)
H40_5 H 0.7629 0.4859 0.0243
C47_5 C 0.6828(9) 0.4468(10) 0.1546(3)
C48_5 C 0.7354(5) 0.3833(5) 0.1810(3)
H41_5 H 0.7214 0.3653 0.2091
H42_5 H 0.7317 0.3477 0.1559
H43_5 H 0.7842 0.3994 0.1937
C49_6 C 0.6165(5) 0.5103(5) 0.3004(3)
H44_6 H 0.5890 0.5454 0.3079
C50_6 C 0.6224(6) 0.5064(6) 0.2507(3)
H45_6 H 0.5984 0.5394 0.2267
C51_5 C 0.6595(5) 0.4592(5) 0.2359(3)
C52_5 C 0.6856(6) 0.4170(6) 0.3237(3)
H46_5 H 0.7093 0.3843 0.3481
C53_5 C 0.6903(8) 0.4126(7) 0.2734(4)
H47_5 H 0.7158 0.3761 0.2655
C54_5 C 0.6631(8) 0.4621(7) 0.1822(4)
H48_5 H 0.6293 0.4955 0.1662
Co6_3 Co 0.65186(4) 0.47994(4) 0.41779(3)
S3_5 S 0.4737(2) 0.3463(2) 0.8667(3)
S4_6 S 0.8574(11) 0.6629(13) 0.9337(8)
N9_6 N 0.7259(3) 0.4320(3) 0.92148(17)
N12_6 N 0.6575(3) 0.4973(3) 0.99734(18)
N13_6 N 0.5648(3) 0.4571(4) 0.8946(2)
N14_6 N 0.7374(3) 0.5875(3) 0.9427(2)
C29_6 C 0.7112(4) 0.3678(4) 0.9295(2)
H25_6 H 0.6659 0.3598 0.9326
C30_6 C 0.7539(4) 0.3119(4) 0.9338(3)
H26_6 H 0.7380 0.2684 0.9396
C31_6 C 0.8219(4) 0.3209(3) 0.9294(3)
C32_6 C 0.8399(5) 0.3886(4) 0.9222(4)
H27_6 H 0.8852 0.3985 0.9198
C33_6 C 0.7915(4) 0.4409(4) 0.9184(3)
H28_6 H 0.8056 0.4854 0.9134
C34_6 C 0.8747(4) 0.2621(4) 0.9373(3)
C35_6 C 0.8710(5) 0.2079(4) 0.9746(4)
H29_6 H 0.8994 0.1689 0.9712
H31_6 H 0.8218 0.1939 0.9678
C37_6 C 0.9685(4) 0.1662(4) 0.8695(3)
H33_6 H 0.9301 0.1716 0.8393
C38_6 C 0.9746(4) 0.2077(4) 0.9121(3)
C41_6 C 0.9186(4) 0.2605(4) 0.9092(4)
H36_6 H 0.9138 0.2957 0.8853
H37_6 H 0.5558 0.5010 0.9885
C55_6 C 0.5270(4) 0.4112(4) 0.8837(3)
C56_6 C 0.7810(12) 0.6296(10) 0.9419(6)
N16_4 N 0.6489(3) 0.5342(3) 0.83679(17)
N9_7 N 0.2259(3) 0.0680(3) 0.42148(17)
N10_4 N 0.5780(3) 0.3927(3) 0.41402(19)
N12_7 N 0.1575(3) 0.0027(3) 0.49734(18)
N13_7 N 0.0648(3) 0.0429(4) 0.3946(2)
C29_7 C 0.2112(4) 0.1322(4) 0.4295(2)
H25_7 H 0.1659 0.1402 0.4326
C30_7 C 0.2539(4) 0.1881(4) 0.4338(3)
H26_7 H 0.2380 0.2316 0.4396
C31_7 C 0.3219(4) 0.1791(3) 0.4294(3)
C32_7 C 0.3399(5) 0.1114(4) 0.4222(4)
H27_7 H 0.3852 0.1015 0.4198
C33_7 C 0.2915(4) 0.0591(4) 0.4184(3)
H28_7 H 0.3056 0.0146 0.4134
C34_7 C 0.3747(4) 0.2379(4) 0.4373(3)
C35_7 C 0.3710(5) 0.2921(4) 0.4746(4)
H29_7 H 0.3994 0.3311 0.4712
H30_6 H 0.3894 0.2742 0.5090
H31_7 H 0.3218 0.3061 0.4678
C36_7 C 0.5205(4) 0.3831(4) 0.3728(3)
H32_7 H 0.5150 0.4115 0.3444
C37_7 C 0.4685(4) 0.3338(4) 0.3695(3)
H33_7 H 0.4301 0.3284 0.3393
C38_7 C 0.4746(4) 0.2923(4) 0.4121(3)
C39_7 C 0.5330(6) 0.3044(6) 0.4550(4)
H34_7 H 0.5390 0.2778 0.4844
C40_7 C 0.5813(5) 0.3535(5) 0.4557(4)
H35_7 H 0.6188 0.3611 0.4861
C41_7 C 0.4186(4) 0.2395(4) 0.4092(4)
H36_7 H 0.4138 0.2043 0.3853
C42_6 C 0.1009(4) 0.0056(5) 0.5127(3)
C43_6 C 0.1051(6) 0.0180(6) 0.5637(3)
H38_6 H 0.0631 0.0183 0.5727
C44_6 C 0.1697(6) 0.0298(6) 0.6007(2)
C45_6 C 0.2272(6) 0.0257(6) 0.5847(3)
H39_6 H 0.2728 0.0308 0.6086
C46_6 C 0.2213(4) 0.0141(5) 0.5338(2)
H40_6 H 0.2629 0.0141 0.5243
C47_6 C 0.1828(9) 0.0532(10) 0.6546(3)
C48_6 C 0.2354(5) 0.1167(5) 0.6810(3)
H41_6 H 0.2214 0.1347 0.7091
H42_6 H 0.2317 0.1523 0.6559
H43_6 H 0.2842 0.1006 0.6937
C51_6 C 0.1595(5) 0.0408(5) 0.7359(3)
C52_6 C 0.1856(6) 0.0830(6) 0.8237(3)
H46_6 H 0.2093 0.1157 0.8481
C53_6 C 0.1903(8) 0.0874(7) 0.7734(4)
H47_6 H 0.2158 0.1239 0.7655
C54_6 C 0.1631(8) 0.0379(7) 0.6822(4)
H48_6 H 0.1293 0.0045 0.6662
C55_7 C 0.0270(4) 0.0888(4) 0.3837(3)
S3_6 S 0.4737(2) 0.6537(2) 0.3667(3)
S4_7 S 0.8574(11) 0.3371(13) 0.4337(8)
N9_8 N 0.7259(3) 0.5680(3) 0.42148(17)
N12_8 N 0.6575(3) 0.5027(3) 0.49734(18)
N13_8 N 0.5648(3) 0.5429(4) 0.3946(2)
N14_7 N 0.7374(3) 0.4125(3) 0.4427(2)
C29_8 C 0.7112(4) 0.6322(4) 0.4295(2)
H25_8 H 0.6659 0.6402 0.4326
C30_8 C 0.7539(4) 0.6881(4) 0.4338(3)
H26_8 H 0.7380 0.7316 0.4396
C31_8 C 0.8219(4) 0.6791(3) 0.4294(3)
C32_8 C 0.8399(5) 0.6114(4) 0.4222(4)
H27_8 H 0.8852 0.6015 0.4198
C33_8 C 0.7915(4) 0.5591(4) 0.4184(3)
H28_8 H 0.8056 0.5146 0.4134
C34_8 C 0.8747(4) 0.7379(4) 0.4373(3)
C35_8 C 0.8710(5) 0.7921(4) 0.4746(4)
H29_8 H 0.8994 0.8311 0.4712
H30_7 H 0.8894 0.7742 0.5090
H31_8 H 0.8218 0.8061 0.4678
C37_8 C 0.9685(4) 0.8338(4) 0.3695(3)
H33_8 H 0.9301 0.8284 0.3393
C38_8 C 0.9746(4) 0.7923(4) 0.4121(3)
C41_8 C 0.9186(4) 0.7395(4) 0.4092(4)
H36_8 H 0.9138 0.7043 0.3853
C42_7 C 0.6009(4) 0.5056(5) 0.5127(3)
H37_7 H 0.5558 0.4990 0.4885
C43_7 C 0.6051(6) 0.5180(6) 0.5637(3)
H38_7 H 0.5631 0.5183 0.5727
C44_7 C 0.6697(6) 0.5298(6) 0.6007(2)
C45_7 C 0.7272(6) 0.5257(6) 0.5847(3)
H39_7 H 0.7728 0.5308 0.6086
C46_7 C 0.7213(4) 0.5141(5) 0.5338(2)
H40_7 H 0.7629 0.5141 0.5243
C47_7 C 0.6828(9) 0.5532(10) 0.6546(3)
C48_7 C 0.7354(5) 0.6167(5) 0.6810(3)
H41_7 H 0.7214 0.6347 0.7091
H42_7 H 0.7317 0.6523 0.6559
H43_7 H 0.7842 0.6006 0.6937
C49_7 C 0.6165(5) 0.4897(5) 0.8004(3)
H44_7 H 0.5890 0.4546 0.8079
C50_7 C 0.6224(6) 0.4936(6) 0.7507(3)
H45_7 H 0.5984 0.4606 0.7267
C51_7 C 0.6595(5) 0.5408(5) 0.7359(3)
C52_7 C 0.6856(6) 0.5830(6) 0.8237(3)
H46_7 H 0.7093 0.6157 0.8481
C53_7 C 0.6903(8) 0.5874(7) 0.7734(4)
H47_7 H 0.7158 0.6239 0.7655
C54_7 C 0.6631(8) 0.5379(7) 0.6822(4)
H48_7 H 0.6293 0.5045 0.6662
C55_8 C 0.5270(4) 0.5888(4) 0.3837(3)
C56_7 C 0.7810(12) 0.3704(10) 0.4419(6)
N11_4 N 0.1489(3) 0.9658(3) 0.33679(17)
H30_8 H 0.3894 0.7258 0.0090
C42_8 C 0.1009(4) 0.9944(5) 0.0127(3)
C43_8 C 0.1051(6) 0.9820(6) 0.0637(3)
H38_8 H 0.0631 0.9817 0.0727
C44_8 C 0.1697(6) 0.9702(6) 0.1007(2)
C45_8 C 0.2272(6) 0.9743(6) 0.0847(3)
H39_8 H 0.2728 0.9692 0.1086
C46_8 C 0.2213(4) 0.9859(5) 0.0338(2)
H40_8 H 0.2629 0.9859 0.0243
C47_8 C 0.1828(9) 0.9468(10) 0.1546(3)
C48_8 C 0.2354(5) 0.8833(5) 0.1810(3)
H41_8 H 0.2214 0.8653 0.2091
H42_8 H 0.2317 0.8477 0.1559
H43_8 H 0.2842 0.8994 0.1937
C51_8 C 0.1595(5) 0.9592(5) 0.2359(3)
C52_8 C 0.1856(6) 0.9170(6) 0.3237(3)
H46_8 H 0.2093 0.8843 0.3481
C53_8 C 0.1903(8) 0.9126(7) 0.2734(4)
H47_8 H 0.2158 0.8761 0.2655
C54_8 C 0.1631(8) 0.9621(7) 0.1822(4)
H48_8 H 0.1293 0.9955 0.1662
Co6_4 Co 0.15186(4) 0.97994(4) 0.41779(3)
S4_8 S 0.3574(11) 0.8371(13) 0.4337(8)
N14_8 N 0.2374(3) 0.9125(3) 0.4427(2)
H37_8 H 0.0558 0.9990 0.4885
C49_8 C 0.1165(5) 0.9897(5) 0.8004(3)
H44_8 H 0.0890 0.9546 0.8079
C50_8 C 0.1224(6) 0.9936(6) 0.7507(3)
H45_8 H 0.0984 0.9606 0.7267
C56_8 C 0.2810(12) 0.8704(10) 0.4419(6)
N15_4 N 0.0780(3) 0.8927(3) 0.41402(19)
C36_8 C 0.0205(4) 0.8831(4) 0.3728(3)
H32_8 H 0.0150 0.9115 0.3444
C39_8 C 0.0330(6) 0.8044(6) 0.4550(4)
H34_8 H 0.0390 0.7778 0.4844
C40_8 C 0.0813(5) 0.8535(5) 0.4557(4)
H35_8 H 0.1188 0.8611 0.4861
S3_7 S 0.9737(2) 0.8463(2) 0.8667(3)
S3_8 S 0.9737(2) 0.1537(2) 0.3667(3)
loop_
_geom_bond_atom_site_label_1
_geom_bond_atom_site_label_2
_geom_bond_site_symmetry_1
_geom_bond_site_symmetry_2
Co1 N1 1_555 1_555
N1 C1 1_555 1_555
N2 C8 1_555 1_555
C1 H1 1_555 1_555
C2 C1 1_555 1_555
H2 C2 1_555 1_555
C3 C2 1_555 1_555
C4 C3 1_555 1_555
H3 C4 1_555 1_555
C5 N1 1_555 1_555
H4 C5 1_555 1_555
C6 C3 1_555 1_555
C7 C6 1_555 1_555
H5 C7 1_555 1_555
H6 C7 1_555 1_555
H7 C7 1_555 1_555
C8 H8 1_555 1_555
C9 C8 1_555 1_555
H9 C9 1_555 1_555
C10 H10 1_555 1_555
C11 C9 1_555 1_555
C12 N2 1_555 1_555
H11 C12 1_555 1_555
C13 C6 1_555 1_555
H12 C13 1_555 1_555
S2 C28 1_555 1_555
N6 Co1 1_555 1_555
C28 N6 1_555 1_555
N8 Co1 1_555 1_555
Co2 N2 1_555 1_555
C4 C5 1_555 1_555
C10 C12 1_555 1_555
C10 C11 1_555 1_555
C11 C13 1_555 1_555
S1 C14 1_555 1_555
N3 Co1_2 1_555 1_555
C14 N3 1_555 1_555
N4 Co1_2 1_555 1_555
N5 C22 1_555 1_555
C15 N4 1_555 1_555
H13 C15 1_555 1_555
C16 C15 1_555 1_555
H14 C16 1_555 1_555
C17 C16 1_555 1_555
C18 C17 1_555 1_555
H15 C18 1_555 1_555
C19 N4 1_555 1_555
H16 C19 1_555 1_555
C20 C17 1_555 1_555
C21 C20 1_555 1_555
H17 C21 1_555 1_555
H18 C21 1_555 1_555
H19 C21 1_555 1_555
C22 H20 1_555 1_555
C23 C22 1_555 1_555
H21 C23 1_555 1_555
C24 H22 1_555 1_555
C25 C23 1_555 1_555
C26 N5 1_555 1_555
H23 C26 1_555 1_555
C27 C20 1_555 1_555
H24 C27 1_555 1_555
N7 Co1_2 1_555 1_555
Co2 N5 1_555 1_555
C18 C19 1_555 1_555
C24 C26 1_555 1_555
C24 C25 1_555 1_555
C25 C27 1_555 1_555
N7 C8_2 1_555 1_555
C1_2 H1_2 1_555 1_555
C2_2 C1_2 1_555 1_555
H2_2 C2_2 1_555 1_555
C3_2 C2_2 1_555 1_555
C4_2 C3_2 1_555 1_555
H3_2 C4_2 1_555 1_555
C6_2 C3_2 1_555 1_555
C7_2 C6_2 1_555 1_555
H5_2 C7_2 1_555 1_555
H6_2 C7_2 1_555 1_555
H7_2 C7_2 1_555 1_555
C8_2 H8_2 1_555 1_555
C9_2 C8_2 1_555 1_555
H9_2 C9_2 1_555 1_555
C10_2 H10_2 1_555 1_555
C11_2 C9_2 1_555 1_555
C12_2 N7 1_555 1_555
H11_2 C12_2 1_555 1_555
C13_2 C6_2 1_555 1_555
H12_2 C13_2 1_555 1_555
N8 C22_2 1_555 1_555
H13_2 C15_2 1_555 1_555
C16_2 C15_2 1_555 1_555
H14_2 C16_2 1_555 1_555
C17_2 C16_2 1_555 1_555
C18_2 C17_2 1_555 1_555
H15_2 C18_2 1_555 1_555
C20_2 C17_2 1_555 1_555
C21_2 C20_2 1_555 1_555
H17_2 C21_2 1_555 1_555
H18_2 C21_2 1_555 1_555
H19_2 C21_2 1_555 1_555
C22_2 H20_2 1_555 1_555
C23_2 C22_2 1_555 1_555
H21_2 C23_2 1_555 1_555
C24_2 H22_2 1_555 1_555
C25_2 C23_2 1_555 1_555
C26_2 N8 1_555 1_555
H23_2 C26_2 1_555 1_555
C27_2 C20_2 1_555 1_555
H24_2 C27_2 1_555 1_555
C10_2 C12_2 1_555 1_555
C10_2 C11_2 1_555 1_555
C11_2 C13_2 1_555 1_555
C24_2 C26_2 1_555 1_555
C24_2 C25_2 1_555 1_555
C25_2 C27_2 1_555 1_555
Co2 N1_2 1_555 1_555
S1_2 C14_2 1_555 1_555
N3_2 Co2 1_555 1_555
C5_2 N1_2 1_555 1_555
H4_2 C5_2 1_555 1_555
C14_2 N3_2 1_555 1_555
N4_2 Co2 1_555 1_555
C19_2 N4_2 1_555 1_555
H16_2 C19_2 1_555 1_555
S2_2 C28_2 1_555 1_555
N6_2 Co2 1_555 1_555
C28_2 N6_2 1_555 1_555
Co1_3 N1_3 1_555 1_555
N1_3 C1_3 1_555 1_555
N2_2 C8_3 1_555 1_555
C1_3 H1_3 1_555 1_555
C2_3 C1_3 1_555 1_555
H2_3 C2_3 1_555 1_555
C3_3 C2_3 1_555 1_555
C4_3 C3_3 1_555 1_555
H3_3 C4_3 1_555 1_555
C5_3 N1_3 1_555 1_555
H4_3 C5_3 1_555 1_555
C6_3 C3_3 1_555 1_555
C7_3 C6_3 1_555 1_555
H5_3 C7_3 1_555 1_555
H6_3 C7_3 1_555 1_555
H7_3 C7_3 1_555 1_555
C8_3 H8_3 1_555 1_555
C9_3 C8_3 1_555 1_555
H9_3 C9_3 1_555 1_555
C10_3 H10_3 1_555 1_555
C11_3 C9_3 1_555 1_555
C12_3 N2_2 1_555 1_555
H11_3 C12_3 1_555 1_555
C13_3 C6_3 1_555 1_555
H12_3 C13_3 1_555 1_555
S2_3 C28_3 1_555 1_555
N6_3 Co1_3 1_555 1_555
C28_3 N6_3 1_555 1_555
N8_2 Co1_3 1_555 1_555
Co2_2 N2_2 1_555 1_555
C4_3 C5_3 1_555 1_555
C10_3 C12_3 1_555 1_555
C10_3 C11_3 1_555 1_555
C11_3 C13_3 1_555 1_555
S1_3 C14_3 1_555 1_555
N3_3 Co1_4 1_555 1_555
C14_3 N3_3 1_555 1_555
N4_3 Co1_4 1_555 1_555
N5_2 C22_3 1_555 1_555
C15_3 N4_3 1_555 1_555
H13_3 C15_3 1_555 1_555
C16_3 C15_3 1_555 1_555
H14_3 C16_3 1_555 1_555
C17_3 C16_3 1_555 1_555
C18_3 C17_3 1_555 1_555
H15_3 C18_3 1_555 1_555
C19_3 N4_3 1_555 1_555
H16_3 C19_3 1_555 1_555
C20_3 C17_3 1_555 1_555
C21_3 C20_3 1_555 1_555
H17_3 C21_3 1_555 1_555
H18_3 C21_3 1_555 1_555
H19_3 C21_3 1_555 1_555
C22_3 H20_3 1_555 1_555
C23_3 C22_3 1_555 1_555
H21_3 C23_3 1_555 1_555
C24_3 H22_3 1_555 1_555
C25_3 C23_3 1_555 1_555
C26_3 N5_2 1_555 1_555
H23_3 C26_3 1_555 1_555
C27_3 C20_3 1_555 1_555
H24_3 C27_3 1_555 1_555
N7_2 Co1_4 1_555 1_555
Co2_2 N5_2 1_555 1_555
C18_3 C19_3 1_555 1_555
C24_3 C26_3 1_555 1_555
C24_3 C25_3 1_555 1_555
C25_3 C27_3 1_555 1_555
Co2_2 N1_4 1_555 1_555
S1_4 C14_4 1_555 1_555
N3_4 Co2_2 1_555 1_555
C5_4 N1_4 1_555 1_555
H4_4 C5_4 1_555 1_555
C14_4 N3_4 1_555 1_555
N4_4 Co2_2 1_555 1_555
C19_4 N4_4 1_555 1_555
H16_4 C19_4 1_555 1_555
S2_4 C28_4 1_555 1_555
N6_4 Co2_2 1_555 1_555
C28_4 N6_4 1_555 1_555
N7_2 C8_4 1_555 1_555
C1_4 H1_4 1_555 1_555
C2_4 C1_4 1_555 1_555
H2_4 C2_4 1_555 1_555
C3_4 C2_4 1_555 1_555
C4_4 C3_4 1_555 1_555
H3_4 C4_4 1_555 1_555
C6_4 C3_4 1_555 1_555
C7_4 C6_4 1_555 1_555
H5_4 C7_4 1_555 1_555
H6_4 C7_4 1_555 1_555
H7_4 C7_4 1_555 1_555
C8_4 H8_4 1_555 1_555
C9_4 C8_4 1_555 1_555
H9_4 C9_4 1_555 1_555
C10_4 H10_4 1_555 1_555
C11_4 C9_4 1_555 1_555
C12_4 N7_2 1_555 1_555
H11_4 C12_4 1_555 1_555
C13_4 C6_4 1_555 1_555
H12_4 C13_4 1_555 1_555
N8_2 C22_4 1_555 1_555
H13_4 C15_4 1_555 1_555
C16_4 C15_4 1_555 1_555
H14_4 C16_4 1_555 1_555
C17_4 C16_4 1_555 1_555
C18_4 C17_4 1_555 1_555
H15_4 C18_4 1_555 1_555
C20_4 C17_4 1_555 1_555
C21_4 C20_4 1_555 1_555
H17_4 C21_4 1_555 1_555
H18_4 C21_4 1_555 1_555
H19_4 C21_4 1_555 1_555
C22_4 H20_4 1_555 1_555
C23_4 C22_4 1_555 1_555
H21_4 C23_4 1_555 1_555
C24_4 H22_4 1_555 1_555
C25_4 C23_4 1_555 1_555
C26_4 N8_2 1_555 1_555
H23_4 C26_4 1_555 1_555
C27_4 C20_4 1_555 1_555
H24_4 C27_4 1_555 1_555
C10_4 C12_4 1_555 1_555
C10_4 C11_4 1_555 1_555
C11_4 C13_4 1_555 1_555
C24_4 C26_4 1_555 1_555
C24_4 C25_4 1_555 1_555
C25_4 C27_4 1_555 1_555
N9 C29 1_555 1_555
N10 C36 1_555 1_555
C29 H25 1_555 1_555
C30 C29 1_555 1_555
H26 C30 1_555 1_555
C31 C30 1_555 1_555
C32 C31 1_555 1_555
H27 C32 1_555 1_555
C33 N9 1_555 1_555
H28 C33 1_555 1_555
C34 C31 1_555 1_555
C35 C34 1_555 1_555
H29 C35 1_555 1_555
H31 C35 1_555 1_555
C36 H32 1_555 1_555
C37 C36 1_555 1_555
H33 C37 1_555 1_555
C38 C37 1_555 1_555
C39 C38 1_555 1_555
H34 C39 1_555 1_555
C40 N10 1_555 1_555
H35 C40 1_555 1_555
C41 C34 1_555 1_555
H36 C41 1_555 1_555
C55 N13 1_555 1_555
Co5 N10 1_555 1_555
C32 C33 1_555 1_555
C38 C41 1_555 1_555
C39 C40 1_555 1_555
S4 C56 1_555 1_555
N14 Co4 1_555 1_555
C56 N14 1_555 1_555
N15 Co4 1_555 1_555
N16 Co4 1_555 1_555
Co5 N9_2 1_555 1_555
S3_2 C55_2 1_555 1_555
S4_2 C56_2 1_555 1_555
N9_2 C29_2 1_555 1_555
N12_2 Co5 1_555 1_555
N13_2 Co5 1_555 1_555
N14_2 Co5 1_555 1_555
C29_2 H25_2 1_555 1_555
C30_2 C29_2 1_555 1_555
H26_2 C30_2 1_555 1_555
C31_2 C30_2 1_555 1_555
C32_2 C31_2 1_555 1_555
H27_2 C32_2 1_555 1_555
C33_2 N9_2 1_555 1_555
H28_2 C33_2 1_555 1_555
C34_2 C31_2 1_555 1_555
C35_2 C34_2 1_555 1_555
H29_2 C35_2 1_555 1_555
H31_2 C35_2 1_555 1_555
H33_2 C37_2 1_555 1_555
C38_2 C37_2 1_555 1_555
C41_2 C34_2 1_555 1_555
H36_2 C41_2 1_555 1_555
C55_2 N13_2 1_555 1_555
C56_2 N14_2 1_555 1_555
N16_2 Co5 1_555 1_555
C32_2 C33_2 1_555 1_555
C38_2 C41_2 1_555 1_555
N11 C49 1_555 1_555
C43 C42 1_555 1_555
H38 C43 1_555 1_555
C44 C43 1_555 1_555
C45 C44 1_555 1_555
H39 C45 1_555 1_555
H40 C46 1_555 1_555
C47 C44 1_555 1_555
C48 C47 1_555 1_555
H41 C48 1_555 1_555
H42 C48 1_555 1_555
H43 C48 1_555 1_555
C49 H44 1_555 1_555
C50 C49 1_555 1_555
H45 C50 1_555 1_555
C51 C50 1_555 1_555
C52 N11 1_555 1_555
H46 C52 1_555 1_555
C53 C51 1_555 1_555
H47 C53 1_555 1_555
C54 C47 1_555 1_555
H48 C54 1_555 1_555
Co6 N11 1_555 1_555
C45 C46 1_555 1_555
C51 C54 1_555 1_555
C52 C53 1_555 1_555
N15 C36_2 1_555 1_555
C36_2 H32_2 1_555 1_555
H34_2 C39_2 1_555 1_555
C40_2 N15 1_555 1_555
H35_2 C40_2 1_555 1_555
C39_2 C40_2 1_555 1_555
N9_3 C29_3 1_555 1_555
N10_2 C36_3 1_555 1_555
C29_3 H25_3 1_555 1_555
C30_3 C29_3 1_555 1_555
H26_3 C30_3 1_555 1_555
C31_3 C30_3 1_555 1_555
C32_3 C31_3 1_555 1_555
H27_3 C32_3 1_555 1_555
C33_3 N9_3 1_555 1_555
H28_3 C33_3 1_555 1_555
C34_3 C31_3 1_555 1_555
C35_3 C34_3 1_555 1_555
H29_3 C35_3 1_555 1_555
H30_2 C35_3 1_555 1_555
H31_3 C35_3 1_555 1_555
C36_3 H32_3 1_555 1_555
C37_3 C36_3 1_555 1_555
H33_3 C37_3 1_555 1_555
C38_3 C37_3 1_555 1_555
C39_3 C38_3 1_555 1_555
H34_3 C39_3 1_555 1_555
C40_3 N10_2 1_555 1_555
H35_3 C40_3 1_555 1_555
C41_3 C34_3 1_555 1_555
H36_3 C41_3 1_555 1_555
C42_2 N12_3 1_555 1_555
C43_2 C42_2 1_555 1_555
H38_2 C43_2 1_555 1_555
C44_2 C43_2 1_555 1_555
C45_2 C44_2 1_555 1_555
H39_2 C45_2 1_555 1_555
C46_2 N12_3 1_555 1_555
H40_2 C46_2 1_555 1_555
C47_2 C44_2 1_555 1_555
C48_2 C47_2 1_555 1_555
H41_2 C48_2 1_555 1_555
H42_2 C48_2 1_555 1_555
H43_2 C48_2 1_555 1_555
C52_2 N16 1_555 1_555
H46_2 C52_2 1_555 1_555
C53_2 C51_2 1_555 1_555
H47_2 C53_2 1_555 1_555
C54_2 C47_2 1_555 1_555
H48_2 C54_2 1_555 1_555
C55_3 N13_3 1_555 1_555
Co6 N10_2 1_555 1_555
C32_3 C33_3 1_555 1_555
C38_3 C41_3 1_555 1_555
C39_3 C40_3 1_555 1_555
C45_2 C46_2 1_555 1_555
C51_2 C54_2 1_555 1_555
C52_2 C53_2 1_555 1_555
Co6 N9_4 1_555 1_555
S3_3 C55_4 1_555 1_555
S4_3 C56_3 1_555 1_555
N9_4 C29_4 1_555 1_555
N16_2 C49_2 1_555 1_555
N12_4 Co6 1_555 1_555
N13_4 Co6 1_555 1_555
N14_3 Co6 1_555 1_555
C29_4 H25_4 1_555 1_555
C30_4 C29_4 1_555 1_555
H26_4 C30_4 1_555 1_555
C31_4 C30_4 1_555 1_555
C32_4 C31_4 1_555 1_555
H27_4 C32_4 1_555 1_555
C33_4 N9_4 1_555 1_555
H28_4 C33_4 1_555 1_555
C34_4 C31_4 1_555 1_555
C35_4 C34_4 1_555 1_555
H29_4 C35_4 1_555 1_555
H30_3 C35_4 1_555 1_555
H31_4 C35_4 1_555 1_555
H33_4 C37_4 1_555 1_555
C38_4 C37_4 1_555 1_555
C41_4 C34_4 1_555 1_555
H36_4 C41_4 1_555 1_555
C42_3 N12_4 1_555 1_555
H37_3 C42_3 1_555 1_555
C43_3 C42_3 1_555 1_555
H38_3 C43_3 1_555 1_555
C44_3 C43_3 1_555 1_555
C45_3 C44_3 1_555 1_555
H39_3 C45_3 1_555 1_555
C46_3 N12_4 1_555 1_555
H40_3 C46_3 1_555 1_555
C47_3 C44_3 1_555 1_555
C48_3 C47_3 1_555 1_555
H41_3 C48_3 1_555 1_555
H42_3 C48_3 1_555 1_555
H43_3 C48_3 1_555 1_555
C49_2 H44_2 1_555 1_555
C50_2 C49_2 1_555 1_555
H45_2 C50_2 1_555 1_555
C51_3 C50_2 1_555 1_555
C52_3 N16_2 1_555 1_555
H46_3 C52_3 1_555 1_555
C53_3 C51_3 1_555 1_555
H47_3 C53_3 1_555 1_555
C54_3 C47_3 1_555 1_555
H48_3 C54_3 1_555 1_555
C55_4 N13_4 1_555 1_555
C56_3 N14_3 1_555 1_555
C32_4 C33_4 1_555 1_555
C38_4 C41_4 1_555 1_555
C45_3 C46_3 1_555 1_555
C51_3 C54_3 1_555 1_555
C52_3 C53_3 1_555 1_555
C43_4 C42_4 1_555 1_555
H38_4 C43_4 1_555 1_555
C44_4 C43_4 1_555 1_555
C45_4 C44_4 1_555 1_555
H39_4 C45_4 1_555 1_555
H40_4 C46_4 1_555 1_555
C47_4 C44_4 1_555 1_555
C48_4 C47_4 1_555 1_555
H41_4 C48_4 1_555 1_555
H42_4 C48_4 1_555 1_555
H43_4 C48_4 1_555 1_555
C52_4 N11_2 1_555 1_555
H46_4 C52_4 1_555 1_555
C53_4 C51_4 1_555 1_555
H47_4 C53_4 1_555 1_555
C54_4 C47_4 1_555 1_555
H48_4 C54_4 1_555 1_555
Co6_2 N11_2 1_555 1_555
C45_4 C46_4 1_555 1_555
C51_4 C54_4 1_555 1_555
C52_4 C53_4 1_555 1_555
S4_4 C56_4 1_555 1_555
N14_4 Co6_2 1_555 1_555
C49_3 H44_3 1_555 1_555
C50_3 C49_3 1_555 1_555
H45_3 C50_3 1_555 1_555
C56_4 N14_4 1_555 1_555
N15_2 Co6_2 1_555 1_555
N15_2 C36_4 1_555 1_555
C36_4 H32_4 1_555 1_555
H34_4 C39_4 1_555 1_555
C40_4 N15_2 1_555 1_555
H35_4 C40_4 1_555 1_555
C39_4 C40_4 1_555 1_555
C49_4 H44_4 1_555 1_555
C50_4 C49_4 1_555 1_555
H45_4 C50_4 1_555 1_555
C49_5 H44_5 1_555 1_555
C50_5 C49_5 1_555 1_555
H45_5 C50_5 1_555 1_555
S4_5 C56_5 1_555 1_555
N14_5 Co4_2 1_555 1_555
C56_5 N14_5 1_555 1_555
N15_3 Co4_2 1_555 1_555
N16_3 Co4_2 1_555 1_555
N9_5 C29_5 1_555 1_555
N10_3 C36_5 1_555 1_555
C29_5 H25_5 1_555 1_555
C30_5 C29_5 1_555 1_555
H26_5 C30_5 1_555 1_555
C31_5 C30_5 1_555 1_555
C32_5 C31_5 1_555 1_555
H27_5 C32_5 1_555 1_555
C33_5 N9_5 1_555 1_555
H28_5 C33_5 1_555 1_555
C34_5 C31_5 1_555 1_555
C35_5 C34_5 1_555 1_555
H29_5 C35_5 1_555 1_555
H31_5 C35_5 1_555 1_555
C36_5 H32_5 1_555 1_555
C37_5 C36_5 1_555 1_555
H33_5 C37_5 1_555 1_555
C38_5 C37_5 1_555 1_555
C39_5 C38_5 1_555 1_555
H34_5 C39_5 1_555 1_555
C40_5 N10_3 1_555 1_555
H35_5 C40_5 1_555 1_555
C41_5 C34_5 1_555 1_555
H36_5 C41_5 1_555 1_555
C55_5 N13_5 1_555 1_555
Co5_2 N10_3 1_555 1_555
C32_5 C33_5 1_555 1_555
C38_5 C41_5 1_555 1_555
C39_5 C40_5 1_555 1_555
N15_3 C36_6 1_555 1_555
C36_6 H32_6 1_555 1_555
H34_6 C39_6 1_555 1_555
C40_6 N15_3 1_555 1_555
H35_6 C40_6 1_555 1_555
C39_6 C40_6 1_555 1_555
N11_3 C49_6 1_555 1_555
C43_5 C42_5 1_555 1_555
H38_5 C43_5 1_555 1_555
C44_5 C43_5 1_555 1_555
C45_5 C44_5 1_555 1_555
H39_5 C45_5 1_555 1_555
H40_5 C46_5 1_555 1_555
C47_5 C44_5 1_555 1_555
C48_5 C47_5 1_555 1_555
H41_5 C48_5 1_555 1_555
H42_5 C48_5 1_555 1_555
H43_5 C48_5 1_555 1_555
C49_6 H44_6 1_555 1_555
C50_6 C49_6 1_555 1_555
H45_6 C50_6 1_555 1_555
C51_5 C50_6 1_555 1_555
C52_5 N11_3 1_555 1_555
H46_5 C52_5 1_555 1_555
C53_5 C51_5 1_555 1_555
H47_5 C53_5 1_555 1_555
C54_5 C47_5 1_555 1_555
H48_5 C54_5 1_555 1_555
Co6_3 N11_3 1_555 1_555
C45_5 C46_5 1_555 1_555
C51_5 C54_5 1_555 1_555
C52_5 C53_5 1_555 1_555
Co5_2 N9_6 1_555 1_555
S3_5 C55_6 1_555 1_555
S4_6 C56_6 1_555 1_555
N9_6 C29_6 1_555 1_555
N12_6 Co5_2 1_555 1_555
N13_6 Co5_2 1_555 1_555
N14_6 Co5_2 1_555 1_555
C29_6 H25_6 1_555 1_555
C30_6 C29_6 1_555 1_555
H26_6 C30_6 1_555 1_555
C31_6 C30_6 1_555 1_555
C32_6 C31_6 1_555 1_555
H27_6 C32_6 1_555 1_555
C33_6 N9_6 1_555 1_555
H28_6 C33_6 1_555 1_555
C34_6 C31_6 1_555 1_555
C35_6 C34_6 1_555 1_555
H29_6 C35_6 1_555 1_555
H31_6 C35_6 1_555 1_555
H33_6 C37_6 1_555 1_555
C38_6 C37_6 1_555 1_555
C41_6 C34_6 1_555 1_555
H36_6 C41_6 1_555 1_555
C55_6 N13_6 1_555 1_555
C56_6 N14_6 1_555 1_555
N16_4 Co5_2 1_555 1_555
C32_6 C33_6 1_555 1_555
C38_6 C41_6 1_555 1_555
N9_7 C29_7 1_555 1_555
N10_4 C36_7 1_555 1_555
C29_7 H25_7 1_555 1_555
C30_7 C29_7 1_555 1_555
H26_7 C30_7 1_555 1_555
C31_7 C30_7 1_555 1_555
C32_7 C31_7 1_555 1_555
H27_7 C32_7 1_555 1_555
C33_7 N9_7 1_555 1_555
H28_7 C33_7 1_555 1_555
C34_7 C31_7 1_555 1_555
C35_7 C34_7 1_555 1_555
H29_7 C35_7 1_555 1_555
H30_6 C35_7 1_555 1_555
H31_7 C35_7 1_555 1_555
C36_7 H32_7 1_555 1_555
C37_7 C36_7 1_555 1_555
H33_7 C37_7 1_555 1_555
C38_7 C37_7 1_555 1_555
C39_7 C38_7 1_555 1_555
H34_7 C39_7 1_555 1_555
C40_7 N10_4 1_555 1_555
H35_7 C40_7 1_555 1_555
C41_7 C34_7 1_555 1_555
H36_7 C41_7 1_555 1_555
C42_6 N12_7 1_555 1_555
C43_6 C42_6 1_555 1_555
H38_6 C43_6 1_555 1_555
C44_6 C43_6 1_555 1_555
C45_6 C44_6 1_555 1_555
H39_6 C45_6 1_555 1_555
C46_6 N12_7 1_555 1_555
H40_6 C46_6 1_555 1_555
C47_6 C44_6 1_555 1_555
C48_6 C47_6 1_555 1_555
H41_6 C48_6 1_555 1_555
H42_6 C48_6 1_555 1_555
H43_6 C48_6 1_555 1_555
C52_6 N16_3 1_555 1_555
H46_6 C52_6 1_555 1_555
C53_6 C51_6 1_555 1_555
H47_6 C53_6 1_555 1_555
C54_6 C47_6 1_555 1_555
H48_6 C54_6 1_555 1_555
C55_7 N13_7 1_555 1_555
Co6_3 N10_4 1_555 1_555
C32_7 C33_7 1_555 1_555
C38_7 C41_7 1_555 1_555
C39_7 C40_7 1_555 1_555
C45_6 C46_6 1_555 1_555
C51_6 C54_6 1_555 1_555
C52_6 C53_6 1_555 1_555
Co6_3 N9_8 1_555 1_555
S3_6 C55_8 1_555 1_555
S4_7 C56_7 1_555 1_555
N9_8 C29_8 1_555 1_555
N16_4 C49_7 1_555 1_555
N12_8 Co6_3 1_555 1_555
N13_8 Co6_3 1_555 1_555
N14_7 Co6_3 1_555 1_555
C29_8 H25_8 1_555 1_555
C30_8 C29_8 1_555 1_555
H26_8 C30_8 1_555 1_555
C31_8 C30_8 1_555 1_555
C32_8 C31_8 1_555 1_555
H27_8 C32_8 1_555 1_555
C33_8 N9_8 1_555 1_555
H28_8 C33_8 1_555 1_555
C34_8 C31_8 1_555 1_555
C35_8 C34_8 1_555 1_555
H29_8 C35_8 1_555 1_555
H30_7 C35_8 1_555 1_555
H31_8 C35_8 1_555 1_555
H33_8 C37_8 1_555 1_555
C38_8 C37_8 1_555 1_555
C41_8 C34_8 1_555 1_555
H36_8 C41_8 1_555 1_555
C42_7 N12_8 1_555 1_555
H37_7 C42_7 1_555 1_555
C43_7 C42_7 1_555 1_555
H38_7 C43_7 1_555 1_555
C44_7 C43_7 1_555 1_555
C45_7 C44_7 1_555 1_555
H39_7 C45_7 1_555 1_555
C46_7 N12_8 1_555 1_555
H40_7 C46_7 1_555 1_555
C47_7 C44_7 1_555 1_555
C48_7 C47_7 1_555 1_555
H41_7 C48_7 1_555 1_555
H42_7 C48_7 1_555 1_555
H43_7 C48_7 1_555 1_555
C49_7 H44_7 1_555 1_555
C50_7 C49_7 1_555 1_555
H45_7 C50_7 1_555 1_555
C51_7 C50_7 1_555 1_555
C52_7 N16_4 1_555 1_555
H46_7 C52_7 1_555 1_555
C53_7 C51_7 1_555 1_555
H47_7 C53_7 1_555 1_555
C54_7 C47_7 1_555 1_555
H48_7 C54_7 1_555 1_555
C55_8 N13_8 1_555 1_555
C56_7 N14_7 1_555 1_555
C32_8 C33_8 1_555 1_555
C38_8 C41_8 1_555 1_555
C45_7 C46_7 1_555 1_555
C51_7 C54_7 1_555 1_555
C52_7 C53_7 1_555 1_555
C43_8 C42_8 1_555 1_555
H38_8 C43_8 1_555 1_555
C44_8 C43_8 1_555 1_555
C45_8 C44_8 1_555 1_555
H39_8 C45_8 1_555 1_555
H40_8 C46_8 1_555 1_555
C47_8 C44_8 1_555 1_555
C48_8 C47_8 1_555 1_555
H41_8 C48_8 1_555 1_555
H42_8 C48_8 1_555 1_555
H43_8 C48_8 1_555 1_555
C52_8 N11_4 1_555 1_555
H46_8 C52_8 1_555 1_555
C53_8 C51_8 1_555 1_555
H47_8 C53_8 1_555 1_555
C54_8 C47_8 1_555 1_555
H48_8 C54_8 1_555 1_555
Co6_4 N11_4 1_555 1_555
C45_8 C46_8 1_555 1_555
C51_8 C54_8 1_555 1_555
C52_8 C53_8 1_555 1_555
S4_8 C56_8 1_555 1_555
N14_8 Co6_4 1_555 1_555
C49_8 H44_8 1_555 1_555
C50_8 C49_8 1_555 1_555
H45_8 C50_8 1_555 1_555
C56_8 N14_8 1_555 1_555
N15_4 Co6_4 1_555 1_555
N15_4 C36_8 1_555 1_555
C36_8 H32_8 1_555 1_555
H34_8 C39_8 1_555 1_555
C40_8 N15_4 1_555 1_555
H35_8 C40_8 1_555 1_555
C39_8 C40_8 1_555 1_555

#END
