
###############################################################################
#
# This file contains modified crystal structure data generated from the
# MOF subset of the Cambridge Structural Database (CSD) v543 
# hosted by the Cambridge Crystallographic Data Centre (CCDC).
#
# This work is licensed under the Creative Commons
# Attribution-NonCommercial-ShareAlike 4.0 International License.
# To view a copy of this license, visit
# http://creativecommons.org/licenses/by-nc-sa/4.0/
# or send a letter to
# Creative Commons, PO Box 1866, Mountain View, CA 94042, USA.
#
# CIF created using the CSD Python API on 29 September 2022
# The structure has been converted into the P1 space group
# The structure has a 3D framework
# The original CSD entry IMUVAO is in the tetragonal crystal system
# The framework has been calculated to contain at least 10.0% void space
# The void calculation uses a probe of radius 1.32A, grid spacing 0.4
# H atom positions have been added when not included in the experimental data
# Generated hydrogen atom positions removed from atoms on special positions
#
###############################################################################

data_IMUVAO
_chemical_formula_moiety         '(C320 H412 In47 N16 O232 12+)n'
_symmetry_cell_setting           triclinic
_symmetry_space_group_name_H-M   'P 1'
_symmetry_Int_Tables_number      1
_space_group_name_Hall           'P 1'
loop_
_symmetry_equiv_pos_site_id
_symmetry_equiv_pos_as_xyz
1 x,y,z
_cell_length_a                   25.182(5)
_cell_length_b                   25.182(5)
_cell_length_c                   26.944(10)
_cell_angle_alpha                90
_cell_angle_beta                 90
_cell_angle_gamma                90
_cell_volume                     17086.1
loop_
_atom_site_label
_atom_site_type_symbol
_atom_site_fract_x
_atom_site_fract_y
_atom_site_fract_z
N1 N 0.139(2) 0.0157(17) 0.637(2)
C1 C 0.157(4) 0.013(4) 0.691(2)
H2 H 0.1424 0.0425 0.7090
H3 H 0.1955 0.0152 0.6926
C2 C 0.141(3) 0.054(3) 0.593(2)
H4 H 0.1222 0.0381 0.5651
H5 H 0.1771 0.0601 0.5831
H6 H 0.1243 0.0866 0.6015
H31 H 0.0993634 0.00930518 0.640326
H1 H 0.1457 0.9805 0.7056
H32 H 0.156564 0.982897 0.622518
N1_2 N 0.0157(17) 0.861(2) 0.363(2)
C1_2 C 0.013(4) 0.843(4) 0.309(2)
H2_2 H 0.0425 0.8576 0.2910
H3_2 H 0.0152 0.8045 0.3074
C2_2 C 0.054(3) 0.859(3) 0.407(2)
H4_2 H 0.0381 0.8778 0.4349
H5_2 H 0.0601 0.8229 0.4169
H6_2 H 0.0866 0.8757 0.3985
H31_2 H 0.00930518 0.900637 0.359674
H1_2 H 0.9805 0.8543 0.2944
H32_2 H 0.982897 0.843436 0.377482
H1_3 H 0.8543 0.0195 0.7056
H32_3 H 0.843436 0.0171031 0.622518
N1_3 N 0.861(2) 0.9843(17) 0.637(2)
C1_3 C 0.843(4) 0.987(4) 0.691(2)
H2_3 H 0.8576 0.9575 0.7090
H3_3 H 0.8045 0.9848 0.6926
C2_3 C 0.859(3) 0.946(3) 0.593(2)
H4_3 H 0.8778 0.9619 0.5651
H5_3 H 0.8229 0.9399 0.5831
H6_3 H 0.8757 0.9134 0.6015
H31_3 H 0.900637 0.990695 0.640326
H1_4 H 0.0195 0.1457 0.2944
H32_4 H 0.0171031 0.156564 0.377482
N1_4 N 0.9843(17) 0.139(2) 0.363(2)
C1_4 C 0.987(4) 0.157(4) 0.309(2)
H2_4 H 0.9575 0.1424 0.2910
H3_4 H 0.9848 0.1955 0.3074
C2_4 C 0.946(3) 0.141(3) 0.407(2)
H4_4 H 0.9619 0.1222 0.4349
H5_4 H 0.9399 0.1771 0.4169
H6_4 H 0.9134 0.1243 0.3985
H31_4 H 0.990695 0.0993634 0.359674
H1_5 H 0.1457 0.0195 0.2944
H32_5 H 0.156564 0.0171031 0.377482
N1_5 N 0.139(2) 0.9843(17) 0.363(2)
C1_5 C 0.157(4) 0.987(4) 0.309(2)
H2_5 H 0.1424 0.9575 0.2910
H3_5 H 0.1955 0.9848 0.3074
C2_5 C 0.141(3) 0.946(3) 0.407(2)
H4_5 H 0.1222 0.9619 0.4349
H5_5 H 0.1771 0.9399 0.4169
H6_5 H 0.1243 0.9134 0.3985
H31_5 H 0.0993634 0.990695 0.359674
H1_6 H 0.0195 0.8543 0.7056
H32_6 H 0.0171031 0.843436 0.622518
N1_6 N 0.9843(17) 0.861(2) 0.637(2)
C1_6 C 0.987(4) 0.843(4) 0.691(2)
H2_6 H 0.9575 0.8576 0.7090
H3_6 H 0.9848 0.8045 0.6926
C2_6 C 0.946(3) 0.859(3) 0.593(2)
H4_6 H 0.9619 0.8778 0.5651
H5_6 H 0.9399 0.8229 0.5831
H6_6 H 0.9134 0.8757 0.6015
H31_6 H 0.990695 0.900637 0.640326
N1_7 N 0.861(2) 0.0157(17) 0.363(2)
C1_7 C 0.843(4) 0.013(4) 0.309(2)
H2_7 H 0.8576 0.0425 0.2910
H3_7 H 0.8045 0.0152 0.3074
C2_7 C 0.859(3) 0.054(3) 0.407(2)
H4_7 H 0.8778 0.0381 0.4349
H5_7 H 0.8229 0.0601 0.4169
H6_7 H 0.8757 0.0866 0.3985
H31_7 H 0.900637 0.00930518 0.359674
H1_7 H 0.8543 0.9805 0.2944
H32_7 H 0.843436 0.982897 0.377482
N1_8 N 0.0157(17) 0.139(2) 0.637(2)
C1_8 C 0.013(4) 0.157(4) 0.691(2)
H2_8 H 0.0425 0.1424 0.7090
H3_8 H 0.0152 0.1955 0.6926
C2_8 C 0.054(3) 0.141(3) 0.593(2)
H4_8 H 0.0381 0.1222 0.5651
H5_8 H 0.0601 0.1771 0.5831
H6_8 H 0.0866 0.1243 0.6015
H31_8 H 0.00930518 0.0993634 0.640326
H1_8 H 0.9805 0.1457 0.7056
H32_8 H 0.982897 0.156564 0.622518
N1_9 N 0.639(2) 0.5157(17) 0.137(2)
C1_9 C 0.657(4) 0.513(4) 0.191(2)
H1_9 H 0.6457 0.4805 0.2056
H2_9 H 0.6424 0.5425 0.2090
H3_9 H 0.6955 0.5152 0.1926
C2_9 C 0.641(3) 0.554(3) 0.093(2)
H4_9 H 0.6222 0.5381 0.0651
H5_9 H 0.6771 0.5601 0.0831
H6_9 H 0.6243 0.5866 0.1015
H31_9 H 0.599363 0.509305 0.140326
H32_9 H 0.656564 0.482897 0.122518
N1_10 N 0.5157(17) 0.361(2) 0.863(2)
C1_10 C 0.513(4) 0.343(4) 0.809(2)
H1_10 H 0.4805 0.3543 0.7944
H2_10 H 0.5425 0.3576 0.7910
H3_10 H 0.5152 0.3045 0.8074
C2_10 C 0.554(3) 0.359(3) 0.907(2)
H4_10 H 0.5381 0.3778 0.9349
H5_10 H 0.5601 0.3229 0.9169
H6_10 H 0.5866 0.3757 0.8985
H31_10 H 0.509305 0.400637 0.859674
H32_10 H 0.482897 0.343436 0.877482
N1_11 N 0.361(2) 0.4843(17) 0.137(2)
C1_11 C 0.343(4) 0.487(4) 0.191(2)
H1_11 H 0.3543 0.5195 0.2056
H2_11 H 0.3576 0.4575 0.2090
H3_11 H 0.3045 0.4848 0.1926
C2_11 C 0.359(3) 0.446(3) 0.093(2)
H4_11 H 0.3778 0.4619 0.0651
H5_11 H 0.3229 0.4399 0.0831
H6_11 H 0.3757 0.4134 0.1015
H31_11 H 0.400637 0.490695 0.140326
H32_11 H 0.343436 0.517103 0.122518
N1_12 N 0.4843(17) 0.639(2) 0.863(2)
C1_12 C 0.487(4) 0.657(4) 0.809(2)
H1_12 H 0.5195 0.6457 0.7944
H2_12 H 0.4575 0.6424 0.7910
H3_12 H 0.4848 0.6955 0.8074
C2_12 C 0.446(3) 0.641(3) 0.907(2)
H4_12 H 0.4619 0.6222 0.9349
H5_12 H 0.4399 0.6771 0.9169
H6_12 H 0.4134 0.6243 0.8985
H31_12 H 0.490695 0.599363 0.859674
H32_12 H 0.517103 0.656564 0.877482
N1_13 N 0.639(2) 0.4843(17) 0.863(2)
C1_13 C 0.657(4) 0.487(4) 0.809(2)
H1_13 H 0.6457 0.5195 0.7944
H2_13 H 0.6424 0.4575 0.7910
H3_13 H 0.6955 0.4848 0.8074
C2_13 C 0.641(3) 0.446(3) 0.907(2)
H4_13 H 0.6222 0.4619 0.9349
H5_13 H 0.6771 0.4399 0.9169
H6_13 H 0.6243 0.4134 0.8985
H31_13 H 0.599363 0.490695 0.859674
H32_13 H 0.656564 0.517103 0.877482
N1_14 N 0.4843(17) 0.361(2) 0.137(2)
C1_14 C 0.487(4) 0.343(4) 0.191(2)
H1_14 H 0.5195 0.3543 0.2056
H2_14 H 0.4575 0.3576 0.2090
H3_14 H 0.4848 0.3045 0.1926
C2_14 C 0.446(3) 0.359(3) 0.093(2)
H4_14 H 0.4619 0.3778 0.0651
H5_14 H 0.4399 0.3229 0.0831
H6_14 H 0.4134 0.3757 0.1015
H31_14 H 0.490695 0.400637 0.140326
H32_14 H 0.517103 0.343436 0.122518
N1_15 N 0.361(2) 0.5157(17) 0.863(2)
C1_15 C 0.343(4) 0.513(4) 0.809(2)
H1_15 H 0.3543 0.4805 0.7944
H2_15 H 0.3576 0.5425 0.7910
H3_15 H 0.3045 0.5152 0.8074
C2_15 C 0.359(3) 0.554(3) 0.907(2)
H4_15 H 0.3778 0.5381 0.9349
H5_15 H 0.3229 0.5601 0.9169
H6_15 H 0.3757 0.5866 0.8985
H31_15 H 0.400637 0.509305 0.859674
H32_15 H 0.343436 0.482897 0.877482
N1_16 N 0.5157(17) 0.639(2) 0.137(2)
C1_16 C 0.513(4) 0.657(4) 0.191(2)
H1_16 H 0.4805 0.6457 0.2056
H2_16 H 0.5425 0.6424 0.2090
H3_16 H 0.5152 0.6955 0.1926
C2_16 C 0.554(3) 0.641(3) 0.093(2)
H4_16 H 0.5381 0.6222 0.0651
H5_16 H 0.5601 0.6771 0.0831
H6_16 H 0.5866 0.6243 0.1015
H31_16 H 0.509305 0.599363 0.140326
H32_16 H 0.482897 0.656564 0.122518
In1 In 0.5000 0.23122(7) -0.0000
O2 O 0.4450(6) 0.2980(6) 0.0181(6)
O3 O 0.4196(7) 0.2202(6) 0.0337(11)
O4 O 0.5000 0.1388(10) -0.0000
O15 O 0.1797(6) 0.2453(6) 0.0983(6)
C3 C 0.4076(9) 0.2677(9) 0.0295(10)
C4 C 0.3406(9) 0.3406(9) 0.0344(12)
H7 H 0.3653 0.3653 0.0233
C5 C 0.3546(9) 0.2888(10) 0.0430(9)
C6 C 0.2278(7) 0.2278(7) 0.0910(9)
C17 C 0.2659(7) 0.2659(7) 0.0736(13)
C20 C 0.3197(8) 0.2502(9) 0.0611(9)
H12 H 0.3308 0.2153 0.0650
In6 In 0.23122(7) 0.5000 -0.0000
In9 In 0.76878(7) 0.5000 -0.0000
In19 In 0.10414(5) 0.20478(5) 0.10334(5)
In20 In 0.20478(5) 0.10414(5) 0.10334(5)
O20 O 0.5280(9) 0.2180(6) 0.0706(6)
O22 O 0.2980(6) 0.4450(6) 0.0181(6)
O27 O 0.2202(6) 0.4196(7) 0.0337(11)
O70 O 0.2453(6) 0.1797(6) 0.0983(6)
C24 C 0.2677(9) 0.4076(9) 0.0295(10)
C28 C 0.2888(10) 0.3546(9) 0.0430(9)
C65 C 0.2502(9) 0.3197(8) 0.0611(9)
H25 H 0.2153 0.3308 0.0650
H34 H 0.512921 0.125656 0.0325803
In1_2 In 0.5000 0.23122(7) 1.0000
In2 In 0.5000 -0.0000 0.7500
In3 In 0.39863(6) 0.39863(6) 0.69087(7)
In4 In 0.39586(5) 0.29522(5) 0.60334(5)
O1 O 0.4720(9) 0.2180(6) 0.9294(6)
O4_2 O 0.5000 0.1388(10) 1.0000
O5 O 0.3632(5) 0.3632(5) 0.6311(7)
O6 O 0.6774(5) 0.3861(6) 0.4735(6)
O7 O 0.4371(6) 0.4371(6) 0.7494(10)
O8 O 0.436(3) 0.2902(15) 0.9042(17)
O9 O 0.4085(7) 0.2527(9) 0.6735(5)
O10 O 0.4747(6) 0.3244(5) 0.6008(7)
O11 O 0.4738(6) 0.0824(6) 0.7299(6)
O12 O 0.4076(7) 0.3252(6) 0.7329(9)
O13 O 0.4837(5) 0.0646(5) 0.8119(5)
O14 O 0.4273(8) 0.2228(7) 0.5741(7)
O16 O 0.4757(6) 0.3905(8) 0.6601(7)
C7 C 0.4958(9) 0.3643(7) 0.6229(7)
C8 C 0.4564(14) 0.2445(9) 0.8950(9)
C9 C 0.4122(8) 0.2777(8) 0.7190(7)
C10 C 0.4498(10) 0.2233(9) 0.8438(11)
C11 C 0.4719(8) 0.0974(8) 0.7758(8)
C12 C 0.4304(10) 0.2396(8) 0.7581(7)
C13 C 0.5693(7) 0.4307(7) 0.6226(10)
H8 H 0.5533 0.4467 0.6499
C14 C 0.4340(9) 0.2593(9) 0.8058(8)
H9 H 0.4264 0.2947 0.8128
C15 C 0.5684(7) 0.3625(7) 0.5580(7)
H10 H 0.5524 0.3332 0.5432
C16 C 0.6358(7) 0.3642(7) 0.4902(9)
C18 C 0.5477(7) 0.3863(7) 0.6032(7)
C19 C 0.4596(9) 0.1703(8) 0.8338(8)
H11 H 0.4676 0.1471 0.8596
C21 C 0.4577(8) 0.1526(7) 0.7875(7)
C22 C 0.4417(7) 0.1880(8) 0.7482(7)
H13 H 0.4390 0.1754 0.7159
C23 C 0.6137(7) 0.3863(7) 0.5380(9)
In6_2 In 0.23122(7) 0.5000 1.0000
In7 In 0.73122(7) -0.0000 0.5000
In8 In 0.26878(7) -0.0000 0.5000
In9_2 In 0.76878(7) 0.5000 1.0000
In11 In 0.60137(6) 0.60137(6) 0.69087(7)
In12 In 0.89863(6) 0.10137(6) 0.80913(7)
In15 In 0.79522(5) 0.10414(5) 0.89666(5)
In17 In 0.29522(5) 0.39586(5) 0.60334(5)
In18 In 0.70478(5) 0.39586(5) 0.39666(5)
In21 In 0.60414(5) 0.29522(5) 0.39666(5)
In22 In 0.70478(5) 0.60414(5) 0.60334(5)
In23 In 0.89586(5) 0.20478(5) 0.89666(5)
In24 In 0.39586(5) 0.70478(5) 0.39666(5)
In25 In 0.29522(5) 0.60414(5) 0.39666(5)
In26 In 0.60414(5) 0.70478(5) 0.60334(5)
O18 O 0.7180(6) 0.0280(9) 0.5706(6)
O23 O 0.5550(6) 0.2980(6) 0.9819(6)
O24 O 0.7020(6) 0.4450(6) 0.9819(6)
O28 O 0.5804(7) 0.2202(6) 0.9663(11)
O29 O 0.7798(6) 0.4196(7) 0.9663(11)
O34 O 0.8632(5) 0.1368(5) 0.8689(7)
O36 O 0.6139(6) 0.3226(5) 0.4735(6)
O37 O 0.3861(6) 0.6774(5) 0.4735(6)
O38 O 0.3226(5) 0.6139(6) 0.4735(6)
O39 O 0.3861(6) 0.3226(5) 0.5265(6)
O41 O 0.8226(5) 0.1139(6) 0.9735(6)
O45 O 0.7902(15) 0.064(3) 0.5958(17)
O48 O 0.7527(9) 0.0915(7) 0.8265(5)
O50 O 0.6756(5) 0.5253(6) 0.6008(7)
O51 O 0.3244(5) 0.4747(6) 0.6008(7)
O52 O 0.5253(6) 0.6756(5) 0.6008(7)
O54 O 0.8244(5) 0.0253(6) 0.8992(7)
O57 O 0.5824(6) 0.0262(6) 0.7701(6)
O60 O 0.8252(6) 0.0924(7) 0.7671(9)
O62 O 0.3252(6) 0.4076(7) 0.7329(9)
O65 O 0.5646(5) 0.0163(5) 0.6881(5)
O68 O 0.7228(7) 0.0727(8) 0.9259(7)
O71 O 0.8203(6) 0.2453(6) 0.9017(6)
O72 O 0.7547(6) 0.1797(6) 0.9017(6)
O73 O 0.3203(6) 0.2547(6) 0.5983(6)
O76 O 0.6095(8) 0.5243(6) 0.6601(7)
O77 O 0.3905(8) 0.4757(6) 0.6601(7)
O78 O 0.5243(6) 0.6095(8) 0.6601(7)
C25 C 0.5924(9) 0.2677(9) 0.9705(10)
C26 C 0.7323(9) 0.4076(9) 0.9705(10)
C27 C 0.6594(9) 0.3406(9) 0.9656(12)
H14 H 0.6347 0.3653 0.9767
C29 C 0.6454(9) 0.2888(10) 0.9570(9)
C30 C 0.7112(10) 0.3546(9) 0.9570(9)
C31 C 0.7722(7) 0.2278(7) 0.9090(9)
C32 C 0.6357(7) 0.5042(9) 0.6229(7)
C33 C 0.3643(7) 0.4958(9) 0.6229(7)
C34 C 0.5042(9) 0.6357(7) 0.6229(7)
C36 C 0.7445(9) 0.0436(14) 0.6050(9)
C39 C 0.7777(8) 0.0878(8) 0.7810(7)
C42 C 0.7233(9) 0.0502(10) 0.6562(11)
C45 C 0.5974(8) 0.0281(8) 0.7242(8)
C48 C 0.7396(8) 0.0696(10) 0.7419(7)
C50 C 0.4307(7) 0.5693(7) 0.6226(10)
H15 H 0.4467 0.5533 0.6499
C52 C 0.7593(9) 0.0660(9) 0.6942(8)
H17 H 0.7947 0.0736 0.6872
C54 C 0.6375(7) 0.4316(7) 0.5580(7)
C55 C 0.3625(7) 0.5684(7) 0.5580(7)
C56 C 0.4316(7) 0.6375(7) 0.5580(7)
H19 H 0.6668 0.4476 0.5432
H20 H 0.3332 0.5524 0.5432
H21 H 0.4476 0.6668 0.5432
C57 C 0.3642(7) 0.6358(7) 0.4902(9)
C58 C 0.7341(7) 0.2659(7) 0.9264(13)
C59 C 0.6137(7) 0.4523(7) 0.6032(7)
C60 C 0.3863(7) 0.5477(7) 0.6032(7)
C61 C 0.4523(7) 0.6137(7) 0.6032(7)
C63 C 0.6703(8) 0.0404(9) 0.6662(8)
H23 H 0.6471 0.0324 0.6404
C66 C 0.6803(8) 0.2502(9) 0.9389(9)
C67 C 0.7498(9) 0.3197(8) 0.9389(9)
H26 H 0.6692 0.2153 0.9350
H27 H 0.7847 0.3308 0.9350
C69 C 0.6526(7) 0.0423(8) 0.7125(7)
C72 C 0.6880(8) 0.0583(7) 0.7518(7)
H29 H 0.6754 0.0610 0.7841
C74 C 0.3863(7) 0.6137(7) 0.5380(9)
H33 H 0.523729 0.125656 0.973251
In5 In 0.5000 0.76878(7) -0.0000
O21 O 0.4720(9) 0.7820(6) 0.0706(6)
O25 O 0.5550(6) 0.7020(6) 0.0181(6)
O30 O 0.5804(7) 0.7798(6) 0.0337(11)
O32 O 0.5000 0.8612(10) -0.0000
H40 H 0.487079 0.874344 0.0325803
In2_2 In 0.5000 1.0000 0.7500
In5_2 In 0.5000 0.76878(7) 1.0000
In7_2 In 0.73122(7) 1.0000 0.5000
In8_2 In 0.26878(7) 1.0000 0.5000
In13 In 0.10137(6) 0.89863(6) 0.80913(7)
In16 In 0.20478(5) 0.89586(5) 0.89666(5)
O17 O 0.5280(9) 0.7820(6) 0.9294(6)
O19 O 0.2820(6) 0.9720(9) 0.5706(6)
O26 O 0.4450(6) 0.7020(6) 0.9819(6)
O31 O 0.4196(7) 0.7798(6) 0.9663(11)
O32_2 O 0.5000 0.8612(10) 1.0000
O33 O 0.6368(5) 0.6368(5) 0.6311(7)
O35 O 0.1368(5) 0.8632(5) 0.8689(7)
O40 O 0.6139(6) 0.6774(5) 0.5265(6)
O42 O 0.1774(5) 0.8861(6) 0.9735(6)
O43 O 0.5629(6) 0.5629(6) 0.7494(10)
O44 O 0.564(3) 0.7098(15) 0.9042(17)
O46 O 0.2098(15) 0.936(3) 0.5958(17)
O47 O 0.5915(7) 0.7473(9) 0.6735(5)
O49 O 0.2473(9) 0.9085(7) 0.8265(5)
O55 O 0.1756(5) 0.9747(6) 0.8992(7)
O56 O 0.5262(6) 0.9176(6) 0.7299(6)
O58 O 0.4176(6) 0.9738(6) 0.7701(6)
O59 O 0.5924(7) 0.6748(6) 0.7329(9)
O61 O 0.1748(6) 0.9076(7) 0.7671(9)
O63 O 0.6748(6) 0.5924(7) 0.7329(9)
O64 O 0.5163(5) 0.9354(5) 0.8119(5)
O66 O 0.4354(5) 0.9837(5) 0.6881(5)
O67 O 0.5727(8) 0.7772(7) 0.5741(7)
O69 O 0.2772(7) 0.9273(8) 0.9259(7)
O74 O 0.6797(6) 0.7453(6) 0.5983(6)
O75 O 0.2453(6) 0.8203(6) 0.9017(6)
C35 C 0.5436(14) 0.7555(9) 0.8950(9)
C37 C 0.2555(9) 0.9564(14) 0.6050(9)
C38 C 0.5878(8) 0.7223(8) 0.7190(7)
C40 C 0.2223(8) 0.9122(8) 0.7810(7)
C41 C 0.5502(10) 0.7767(9) 0.8438(11)
C43 C 0.2767(9) 0.9498(10) 0.6562(11)
C44 C 0.5281(8) 0.9026(8) 0.7758(8)
C46 C 0.4026(8) 0.9719(8) 0.7242(8)
C47 C 0.5696(10) 0.7604(8) 0.7581(7)
C49 C 0.2604(8) 0.9304(10) 0.7419(7)
C51 C 0.5660(9) 0.7407(9) 0.8058(8)
C53 C 0.2407(9) 0.9340(9) 0.6942(8)
H16 H 0.5736 0.7053 0.8128
H18 H 0.2053 0.9264 0.6872
C62 C 0.5404(9) 0.8297(8) 0.8338(8)
C64 C 0.3297(8) 0.9596(9) 0.6662(8)
H22 H 0.5324 0.8529 0.8596
H24 H 0.3529 0.9676 0.6404
C68 C 0.5423(8) 0.8474(7) 0.7875(7)
C70 C 0.3474(7) 0.9577(8) 0.7125(7)
C71 C 0.5583(7) 0.8120(8) 0.7482(7)
C73 C 0.3120(8) 0.9417(7) 0.7518(7)
H28 H 0.5610 0.8246 0.7159
H30 H 0.3246 0.9390 0.7841
H39 H 0.476271 0.874344 0.973251
In2_3 In -0.0000 0.5000 0.2500
In3_2 In 0.39863(6) 0.60137(6) 0.30913(7)
O1_2 O 0.2180(6) 0.5280(9) 0.0706(6)
O4_3 O 0.1388(10) 0.5000 0.0000
O5_2 O 0.3632(5) 0.6368(5) 0.3689(7)
O7_2 O 0.4371(6) 0.5629(6) 0.2506(10)
O8_2 O 0.2902(15) 0.564(3) 0.0958(17)
O9_2 O 0.2527(9) 0.5915(7) 0.3265(5)
O10_2 O 0.3244(5) 0.5253(6) 0.3992(7)
O11_2 O 0.0824(6) 0.5262(6) 0.2701(6)
O12_2 O 0.3252(6) 0.5924(7) 0.2671(9)
O13_2 O 0.0646(5) 0.5163(5) 0.1881(5)
O14_2 O 0.2228(7) 0.5727(8) 0.4259(7)
O16_2 O 0.3905(8) 0.5243(6) 0.3399(7)
C7_2 C 0.3643(7) 0.5042(9) 0.3771(7)
C8_2 C 0.2445(9) 0.5436(14) 0.1050(9)
C9_2 C 0.2777(8) 0.5878(8) 0.2810(7)
C10_2 C 0.2233(9) 0.5502(10) 0.1562(11)
C11_2 C 0.0974(8) 0.5281(8) 0.2242(8)
C12_2 C 0.2396(8) 0.5696(10) 0.2419(7)
C13_2 C 0.4307(7) 0.4307(7) 0.3774(10)
H8_2 H 0.4467 0.4467 0.3501
C14_2 C 0.2593(9) 0.5660(9) 0.1942(8)
H9_2 H 0.2947 0.5736 0.1872
C15_2 C 0.3625(7) 0.4316(7) 0.4420(7)
H10_2 H 0.3332 0.4476 0.4568
C16_2 C 0.3642(7) 0.3642(7) 0.5098(9)
C18_2 C 0.3863(7) 0.4523(7) 0.3968(7)
C19_2 C 0.1703(8) 0.5404(9) 0.1662(8)
H11_2 H 0.1471 0.5324 0.1404
C21_2 C 0.1526(7) 0.5423(8) 0.2125(7)
C22_2 C 0.1880(8) 0.5583(7) 0.2518(7)
H13_2 H 0.1754 0.5610 0.2841
C23_2 C 0.3863(7) 0.3863(7) 0.4620(9)
In7_3 In -0.0000 0.26878(7) 0.5000
In8_3 In -0.0000 0.73122(7) 0.5000
In11_2 In 0.60137(6) 0.39863(6) 0.30913(7)
In12_2 In 0.10137(6) 0.10137(6) 0.19087(7)
O18_2 O 0.0280(9) 0.2820(6) 0.4294(6)
O34_2 O 0.1368(5) 0.1368(5) 0.1311(7)
O36_2 O 0.3226(5) 0.3861(6) 0.5265(6)
O37_2 O 0.6774(5) 0.6139(6) 0.5265(6)
O41_2 O 0.1139(6) 0.1774(5) 0.0265(6)
O45_2 O 0.064(3) 0.2098(15) 0.4042(17)
O48_2 O 0.0915(7) 0.2473(9) 0.1735(5)
O50_2 O 0.5253(6) 0.3244(5) 0.3992(7)
O51_2 O 0.4747(6) 0.6756(5) 0.3992(7)
O52_2 O 0.6756(5) 0.4747(6) 0.3992(7)
O54_2 O 0.0253(6) 0.1756(5) 0.1008(7)
O57_2 O 0.0262(6) 0.4176(6) 0.2299(6)
O60_2 O 0.0924(7) 0.1748(6) 0.2329(9)
O62_2 O 0.4076(7) 0.6748(6) 0.2671(9)
O65_2 O 0.0163(5) 0.4354(5) 0.3119(5)
O68_2 O 0.0727(8) 0.2772(7) 0.0741(7)
O73_2 O 0.2547(6) 0.6797(6) 0.4017(6)
O76_2 O 0.5243(6) 0.3905(8) 0.3399(7)
O77_2 O 0.4757(6) 0.6095(8) 0.3399(7)
O78_2 O 0.6095(8) 0.4757(6) 0.3399(7)
C32_2 C 0.5042(9) 0.3643(7) 0.3771(7)
C33_2 C 0.4958(9) 0.6357(7) 0.3771(7)
C34_2 C 0.6357(7) 0.4958(9) 0.3771(7)
C36_2 C 0.0436(14) 0.2555(9) 0.3950(9)
C39_2 C 0.0878(8) 0.2223(8) 0.2190(7)
C42_2 C 0.0502(10) 0.2767(9) 0.3438(11)
C45_2 C 0.0281(8) 0.4026(8) 0.2758(8)
C48_2 C 0.0696(10) 0.2604(8) 0.2581(7)
C50_2 C 0.5693(7) 0.5693(7) 0.3774(10)
H15_2 H 0.5533 0.5533 0.3501
C52_2 C 0.0660(9) 0.2407(9) 0.3058(8)
H17_2 H 0.0736 0.2053 0.3128
C54_2 C 0.4316(7) 0.3625(7) 0.4420(7)
C55_2 C 0.5684(7) 0.6375(7) 0.4420(7)
C56_2 C 0.6375(7) 0.5684(7) 0.4420(7)
H19_2 H 0.4476 0.3332 0.4568
H20_2 H 0.5524 0.6668 0.4568
H21_2 H 0.6668 0.5524 0.4568
C57_2 C 0.6358(7) 0.6358(7) 0.5098(9)
C59_2 C 0.4523(7) 0.3863(7) 0.3968(7)
C60_2 C 0.5477(7) 0.6137(7) 0.3968(7)
C61_2 C 0.6137(7) 0.5477(7) 0.3968(7)
C63_2 C 0.0404(9) 0.3297(8) 0.3338(8)
H23_2 H 0.0324 0.3529 0.3596
C69_2 C 0.0423(8) 0.3474(7) 0.2875(7)
C72_2 C 0.0583(7) 0.3120(8) 0.2482(7)
H29_2 H 0.0610 0.3246 0.2159
C74_2 C 0.6137(7) 0.6137(7) 0.4620(9)
H33_2 H 0.125656 0.476271 0.0267486
O2_2 O 0.2980(6) 0.5550(6) 0.9819(6)
O3_2 O 0.2202(6) 0.5804(7) 0.9663(11)
O4_4 O 0.1388(10) 0.5000 1.0000
C3_2 C 0.2677(9) 0.5924(9) 0.9705(10)
C4_2 C 0.3406(9) 0.6594(9) 0.9656(12)
H7_2 H 0.3653 0.6347 0.9767
C5_2 C 0.2888(10) 0.6454(9) 0.9570(9)
C6_2 C 0.2278(7) 0.7722(7) 0.9090(9)
C17_2 C 0.2659(7) 0.7341(7) 0.9264(13)
C20_2 C 0.2502(9) 0.6803(8) 0.9389(9)
H12_2 H 0.2153 0.6692 0.9350
In20_2 In 0.10414(5) 0.79522(5) 0.89666(5)
O20_2 O 0.2180(6) 0.4720(9) 0.9294(6)
O70_2 O 0.1797(6) 0.7547(6) 0.9017(6)
C24_2 C 0.4076(9) 0.7323(9) 0.9705(10)
C28_2 C 0.3546(9) 0.7112(10) 0.9570(9)
C65_2 C 0.3197(8) 0.7498(9) 0.9389(9)
H25_2 H 0.3308 0.7847 0.9350
H34_2 H 0.125656 0.487079 0.96742
In2_4 In 1.0000 0.5000 0.2500
In7_4 In 1.0000 0.26878(7) 0.5000
In8_4 In 1.0000 0.73122(7) 0.5000
In13_2 In 0.89863(6) 0.89863(6) 0.19087(7)
In16_2 In 0.89586(5) 0.79522(5) 0.10334(5)
O17_2 O 0.7820(6) 0.4720(9) 0.0706(6)
O19_2 O 0.9720(9) 0.7180(6) 0.4294(6)
O26_2 O 0.7020(6) 0.5550(6) 0.0181(6)
O31_2 O 0.7798(6) 0.5804(7) 0.0337(11)
O32_3 O 0.8612(10) 0.5000 0.0000
O33_2 O 0.6368(5) 0.3632(5) 0.3689(7)
O35_2 O 0.8632(5) 0.8632(5) 0.1311(7)
O42_2 O 0.8861(6) 0.8226(5) 0.0265(6)
O43_2 O 0.5629(6) 0.4371(6) 0.2506(10)
O44_2 O 0.7098(15) 0.436(3) 0.0958(17)
O46_2 O 0.936(3) 0.7902(15) 0.4042(17)
O47_2 O 0.7473(9) 0.4085(7) 0.3265(5)
O49_2 O 0.9085(7) 0.7527(9) 0.1735(5)
O55_2 O 0.9747(6) 0.8244(5) 0.1008(7)
O56_2 O 0.9176(6) 0.4738(6) 0.2701(6)
O58_2 O 0.9738(6) 0.5824(6) 0.2299(6)
O59_2 O 0.6748(6) 0.4076(7) 0.2671(9)
O61_2 O 0.9076(7) 0.8252(6) 0.2329(9)
O63_2 O 0.5924(7) 0.3252(6) 0.2671(9)
O64_2 O 0.9354(5) 0.4837(5) 0.1881(5)
O66_2 O 0.9837(5) 0.5646(5) 0.3119(5)
O67_2 O 0.7772(7) 0.4273(8) 0.4259(7)
O69_2 O 0.9273(8) 0.7228(7) 0.0741(7)
O74_2 O 0.7453(6) 0.3203(6) 0.4017(6)
O75_2 O 0.8203(6) 0.7547(6) 0.0983(6)
C35_2 C 0.7555(9) 0.4564(14) 0.1050(9)
C37_2 C 0.9564(14) 0.7445(9) 0.3950(9)
C38_2 C 0.7223(8) 0.4122(8) 0.2810(7)
C40_2 C 0.9122(8) 0.7777(8) 0.2190(7)
C41_2 C 0.7767(9) 0.4498(10) 0.1562(11)
C43_2 C 0.9498(10) 0.7233(9) 0.3438(11)
C44_2 C 0.9026(8) 0.4719(8) 0.2242(8)
C46_2 C 0.9719(8) 0.5974(8) 0.2758(8)
C47_2 C 0.7604(8) 0.4304(10) 0.2419(7)
C49_2 C 0.9304(10) 0.7396(8) 0.2581(7)
C51_2 C 0.7407(9) 0.4340(9) 0.1942(8)
C53_2 C 0.9340(9) 0.7593(9) 0.3058(8)
H16_2 H 0.7053 0.4264 0.1872
H18_2 H 0.9264 0.7947 0.3128
C62_2 C 0.8297(8) 0.4596(9) 0.1662(8)
C64_2 C 0.9596(9) 0.6703(8) 0.3338(8)
H22_2 H 0.8529 0.4676 0.1404
H24_2 H 0.9676 0.6471 0.3596
C68_2 C 0.8474(7) 0.4577(8) 0.2125(7)
C70_2 C 0.9577(8) 0.6526(7) 0.2875(7)
C71_2 C 0.8120(8) 0.4417(7) 0.2518(7)
C73_2 C 0.9417(7) 0.6880(8) 0.2482(7)
H28_2 H 0.8246 0.4390 0.2841
H30_2 H 0.9390 0.6754 0.2159
H39_2 H 0.874344 0.523729 0.0267486
O21_2 O 0.7820(6) 0.5280(9) 0.9294(6)
O32_4 O 0.8612(10) 0.5000 1.0000
H40_2 H 0.874344 0.512921 0.96742
C3_3 C 0.5924(9) 0.7323(9) 0.0295(10)
C4_3 C 0.6594(9) 0.6594(9) 0.0344(12)
H7_3 H 0.6347 0.6347 0.0233
C5_3 C 0.6454(9) 0.7112(10) 0.0430(9)
C6_3 C 0.7722(7) 0.7722(7) 0.0910(9)
C17_3 C 0.7341(7) 0.7341(7) 0.0736(13)
C20_3 C 0.6803(8) 0.7498(9) 0.0611(9)
H12_3 H 0.6692 0.7847 0.0650
In20_3 In 0.79522(5) 0.89586(5) 0.10334(5)
O70_3 O 0.7547(6) 0.8203(6) 0.0983(6)
C24_3 C 0.7323(9) 0.5924(9) 0.0295(10)
C28_3 C 0.7112(10) 0.6454(9) 0.0430(9)
C65_3 C 0.7498(9) 0.6803(8) 0.0611(9)
H25_3 H 0.7847 0.6692 0.0650
In2_5 In 0.5000 0.0000 0.2500
O19_3 O 0.2820(6) 0.0280(9) 0.4294(6)
O42_3 O 0.1774(5) 0.1139(6) 0.0265(6)
O44_3 O 0.564(3) 0.2902(15) 0.0958(17)
O46_3 O 0.2098(15) 0.064(3) 0.4042(17)
O47_3 O 0.5915(7) 0.2527(9) 0.3265(5)
O49_3 O 0.2473(9) 0.0915(7) 0.1735(5)
O55_3 O 0.1756(5) 0.0253(6) 0.1008(7)
O56_3 O 0.5262(6) 0.0824(6) 0.2701(6)
O58_3 O 0.4176(6) 0.0262(6) 0.2299(6)
O61_3 O 0.1748(6) 0.0924(7) 0.2329(9)
O64_3 O 0.5163(5) 0.0646(5) 0.1881(5)
O66_3 O 0.4354(5) 0.0163(5) 0.3119(5)
O67_3 O 0.5727(8) 0.2228(7) 0.4259(7)
O69_3 O 0.2772(7) 0.0727(8) 0.0741(7)
O74_3 O 0.6797(6) 0.2547(6) 0.4017(6)
C35_3 C 0.5436(14) 0.2445(9) 0.1050(9)
C37_3 C 0.2555(9) 0.0436(14) 0.3950(9)
C38_3 C 0.5878(8) 0.2777(8) 0.2810(7)
C40_3 C 0.2223(8) 0.0878(8) 0.2190(7)
C41_3 C 0.5502(10) 0.2233(9) 0.1562(11)
C43_3 C 0.2767(9) 0.0502(10) 0.3438(11)
C44_3 C 0.5281(8) 0.0974(8) 0.2242(8)
C46_3 C 0.4026(8) 0.0281(8) 0.2758(8)
C47_3 C 0.5696(10) 0.2396(8) 0.2419(7)
C49_3 C 0.2604(8) 0.0696(10) 0.2581(7)
C51_3 C 0.5660(9) 0.2593(9) 0.1942(8)
C53_3 C 0.2407(9) 0.0660(9) 0.3058(8)
H16_3 H 0.5736 0.2947 0.1872
H18_3 H 0.2053 0.0736 0.3128
C62_3 C 0.5404(9) 0.1703(8) 0.1662(8)
C64_3 C 0.3297(8) 0.0404(9) 0.3338(8)
H22_3 H 0.5324 0.1471 0.1404
H24_3 H 0.3529 0.0324 0.3596
C68_3 C 0.5423(8) 0.1526(7) 0.2125(7)
C70_3 C 0.3474(7) 0.0423(8) 0.2875(7)
C71_3 C 0.5583(7) 0.1880(8) 0.2518(7)
C73_3 C 0.3120(8) 0.0583(7) 0.2482(7)
H28_3 H 0.5610 0.1754 0.2841
H30_3 H 0.3246 0.0610 0.2159
H39_3 H 0.476271 0.125656 0.0267486
H40_3 H 0.487079 0.125656 0.96742
In2_6 In 0.5000 1.0000 0.2500
O8_3 O 0.436(3) 0.7098(15) 0.0958(17)
O9_3 O 0.4085(7) 0.7473(9) 0.3265(5)
O11_3 O 0.4738(6) 0.9176(6) 0.2701(6)
O13_3 O 0.4837(5) 0.9354(5) 0.1881(5)
O14_3 O 0.4273(8) 0.7772(7) 0.4259(7)
C8_3 C 0.4564(14) 0.7555(9) 0.1050(9)
C9_3 C 0.4122(8) 0.7223(8) 0.2810(7)
C10_3 C 0.4498(10) 0.7767(9) 0.1562(11)
C11_3 C 0.4719(8) 0.9026(8) 0.2242(8)
C12_3 C 0.4304(10) 0.7604(8) 0.2419(7)
C14_3 C 0.4340(9) 0.7407(9) 0.1942(8)
H9_3 H 0.4264 0.7053 0.1872
C19_3 C 0.4596(9) 0.8297(8) 0.1662(8)
H11_3 H 0.4676 0.8529 0.1404
C21_3 C 0.4577(8) 0.8474(7) 0.2125(7)
C22_3 C 0.4417(7) 0.8120(8) 0.2518(7)
H13_3 H 0.4390 0.8246 0.2841
O18_3 O 0.7180(6) 0.9720(9) 0.4294(6)
O41_3 O 0.8226(5) 0.8861(6) 0.0265(6)
O45_3 O 0.7902(15) 0.936(3) 0.4042(17)
O48_3 O 0.7527(9) 0.9085(7) 0.1735(5)
O54_3 O 0.8244(5) 0.9747(6) 0.1008(7)
O57_3 O 0.5824(6) 0.9738(6) 0.2299(6)
O60_3 O 0.8252(6) 0.9076(7) 0.2329(9)
O65_3 O 0.5646(5) 0.9837(5) 0.3119(5)
O68_3 O 0.7228(7) 0.9273(8) 0.0741(7)
O73_3 O 0.3203(6) 0.7453(6) 0.4017(6)
C36_3 C 0.7445(9) 0.9564(14) 0.3950(9)
C39_3 C 0.7777(8) 0.9122(8) 0.2190(7)
C42_3 C 0.7233(9) 0.9498(10) 0.3438(11)
C45_3 C 0.5974(8) 0.9719(8) 0.2758(8)
C48_3 C 0.7396(8) 0.9304(10) 0.2581(7)
C52_3 C 0.7593(9) 0.9340(9) 0.3058(8)
H17_3 H 0.7947 0.9264 0.3128
C63_3 C 0.6703(8) 0.9596(9) 0.3338(8)
H23_3 H 0.6471 0.9676 0.3596
C69_3 C 0.6526(7) 0.9577(8) 0.2875(7)
C72_3 C 0.6880(8) 0.9417(7) 0.2482(7)
H29_3 H 0.6754 0.9390 0.2159
H33_3 H 0.523729 0.874344 0.0267486
H34_3 H 0.512921 0.874344 0.96742
H40_4 H 0.125656 0.512921 0.0325803
In2_7 In 0.0000 0.5000 0.7500
O19_4 O 0.0280(9) 0.7180(6) 0.5706(6)
O42_4 O 0.1139(6) 0.8226(5) 0.9735(6)
O44_4 O 0.2902(15) 0.436(3) 0.9042(17)
O46_4 O 0.064(3) 0.7902(15) 0.5958(17)
O47_4 O 0.2527(9) 0.4085(7) 0.6735(5)
O49_4 O 0.0915(7) 0.7527(9) 0.8265(5)
O55_4 O 0.0253(6) 0.8244(5) 0.8992(7)
O56_4 O 0.0824(6) 0.4738(6) 0.7299(6)
O58_4 O 0.0262(6) 0.5824(6) 0.7701(6)
O61_4 O 0.0924(7) 0.8252(6) 0.7671(9)
O64_4 O 0.0646(5) 0.4837(5) 0.8119(5)
O66_4 O 0.0163(5) 0.5646(5) 0.6881(5)
O67_4 O 0.2228(7) 0.4273(8) 0.5741(7)
O69_4 O 0.0727(8) 0.7228(7) 0.9259(7)
O74_4 O 0.2547(6) 0.3203(6) 0.5983(6)
C35_4 C 0.2445(9) 0.4564(14) 0.8950(9)
C37_4 C 0.0436(14) 0.7445(9) 0.6050(9)
C38_4 C 0.2777(8) 0.4122(8) 0.7190(7)
C40_4 C 0.0878(8) 0.7777(8) 0.7810(7)
C41_4 C 0.2233(9) 0.4498(10) 0.8438(11)
C43_4 C 0.0502(10) 0.7233(9) 0.6562(11)
C44_4 C 0.0974(8) 0.4719(8) 0.7758(8)
C46_4 C 0.0281(8) 0.5974(8) 0.7242(8)
C47_4 C 0.2396(8) 0.4304(10) 0.7581(7)
C49_4 C 0.0696(10) 0.7396(8) 0.7419(7)
C51_4 C 0.2593(9) 0.4340(9) 0.8058(8)
C53_4 C 0.0660(9) 0.7593(9) 0.6942(8)
H16_4 H 0.2947 0.4264 0.8128
H18_4 H 0.0736 0.7947 0.6872
C62_4 C 0.1703(8) 0.4596(9) 0.8338(8)
C64_4 C 0.0404(9) 0.6703(8) 0.6662(8)
H22_4 H 0.1471 0.4676 0.8596
H24_4 H 0.0324 0.6471 0.6404
C68_4 C 0.1526(7) 0.4577(8) 0.7875(7)
C70_4 C 0.0423(8) 0.6526(7) 0.7125(7)
C71_4 C 0.1880(8) 0.4417(7) 0.7482(7)
C73_4 C 0.0583(7) 0.6880(8) 0.7518(7)
H28_4 H 0.1754 0.4390 0.7159
H30_4 H 0.0610 0.6754 0.7841
H39_4 H 0.125656 0.523729 0.973251
H34_4 H 0.874344 0.487079 0.0325803
In2_8 In 1.0000 0.5000 0.7500
O8_4 O 0.7098(15) 0.564(3) 0.9042(17)
O9_4 O 0.7473(9) 0.5915(7) 0.6735(5)
O11_4 O 0.9176(6) 0.5262(6) 0.7299(6)
O13_4 O 0.9354(5) 0.5163(5) 0.8119(5)
O14_4 O 0.7772(7) 0.5727(8) 0.5741(7)
C8_4 C 0.7555(9) 0.5436(14) 0.8950(9)
C9_4 C 0.7223(8) 0.5878(8) 0.7190(7)
C10_4 C 0.7767(9) 0.5502(10) 0.8438(11)
C11_4 C 0.9026(8) 0.5281(8) 0.7758(8)
C12_4 C 0.7604(8) 0.5696(10) 0.7581(7)
C14_4 C 0.7407(9) 0.5660(9) 0.8058(8)
H9_4 H 0.7053 0.5736 0.8128
C19_4 C 0.8297(8) 0.5404(9) 0.8338(8)
H11_4 H 0.8529 0.5324 0.8596
C21_4 C 0.8474(7) 0.5423(8) 0.7875(7)
C22_4 C 0.8120(8) 0.5583(7) 0.7482(7)
H13_4 H 0.8246 0.5610 0.7159
O18_4 O 0.9720(9) 0.2820(6) 0.5706(6)
O41_4 O 0.8861(6) 0.1774(5) 0.9735(6)
O45_4 O 0.936(3) 0.2098(15) 0.5958(17)
O48_4 O 0.9085(7) 0.2473(9) 0.8265(5)
O54_4 O 0.9747(6) 0.1756(5) 0.8992(7)
O57_4 O 0.9738(6) 0.4176(6) 0.7701(6)
O60_4 O 0.9076(7) 0.1748(6) 0.7671(9)
O65_4 O 0.9837(5) 0.4354(5) 0.6881(5)
O68_4 O 0.9273(8) 0.2772(7) 0.9259(7)
O73_4 O 0.7453(6) 0.6797(6) 0.5983(6)
C36_4 C 0.9564(14) 0.2555(9) 0.6050(9)
C39_4 C 0.9122(8) 0.2223(8) 0.7810(7)
C42_4 C 0.9498(10) 0.2767(9) 0.6562(11)
C45_4 C 0.9719(8) 0.4026(8) 0.7242(8)
C48_4 C 0.9304(10) 0.2604(8) 0.7419(7)
C52_4 C 0.9340(9) 0.2407(9) 0.6942(8)
H17_4 H 0.9264 0.2053 0.6872
C63_4 C 0.9596(9) 0.3297(8) 0.6662(8)
H23_4 H 0.9676 0.3529 0.6404
C69_4 C 0.9577(8) 0.3474(7) 0.7125(7)
C72_4 C 0.9417(7) 0.3120(8) 0.7518(7)
H29_4 H 0.9390 0.3246 0.7841
H33_4 H 0.874344 0.476271 0.973251
O76_3 O 0.1095(8) 0.0243(6) 0.1601(7)
O78_3 O 0.0243(6) 0.1095(8) 0.1601(7)
C32_3 C 0.1357(7) 0.0042(9) 0.1229(7)
C34_3 C 0.0042(9) 0.1357(7) 0.1229(7)
O4_5 O -0.0000 0.6388(10) 0.5000
C13_3 C 0.0693(7) 0.9307(7) 0.1226(10)
H8_3 H 0.0533 0.9467 0.1499
C15_3 C 0.0684(7) 0.8625(7) 0.0580(7)
H10_3 H 0.0524 0.8332 0.0432
C18_3 C 0.0477(7) 0.8863(7) 0.1032(7)
C23_3 C 0.1137(7) 0.8863(7) 0.0380(9)
O23_2 O 0.0550(6) 0.7980(6) 0.4819(6)
O24_2 O 0.2020(6) 0.9450(6) 0.4819(6)
O25_2 O 0.0550(6) 0.2020(6) 0.5181(6)
O28_2 O 0.0804(7) 0.7202(6) 0.4663(11)
O29_2 O 0.2798(6) 0.9196(7) 0.4663(11)
O30_2 O 0.0804(7) 0.2798(6) 0.5337(11)
O32_5 O 0.0000 0.3612(10) 0.5000
O43_3 O 0.0629(6) 0.0629(6) 0.2494(10)
C25_2 C 0.0924(9) 0.7677(9) 0.4705(10)
C26_2 C 0.2323(9) 0.9076(9) 0.4705(10)
C27_2 C 0.1594(9) 0.8406(9) 0.4656(12)
H14_2 H 0.1347 0.8653 0.4767
C29_2 C 0.1454(9) 0.7888(10) 0.4570(9)
C30_2 C 0.2112(10) 0.8546(9) 0.4570(9)
C31_2 C 0.2722(7) 0.7278(7) 0.4090(9)
C54_3 C 0.1375(7) 0.9316(7) 0.0580(7)
H19_3 H 0.1668 0.9476 0.0432
C58_2 C 0.2341(7) 0.7659(7) 0.4264(13)
C59_3 C 0.1137(7) 0.9523(7) 0.1032(7)
C66_2 C 0.1803(8) 0.7502(9) 0.4389(9)
C67_2 C 0.2498(9) 0.8197(8) 0.4389(9)
H26_2 H 0.1692 0.7153 0.4350
H27_2 H 0.2847 0.8308 0.4350
H33_5 H 0.023729 0.625656 0.473251
H34_5 H 0.0129214 0.625656 0.53258
H47 H 0.0225927 0.0902512 0.127975
H51 H 0.147697 0.0164993 0.154564
C16_3 C 0.1358(7) 0.8642(7) 0.9902(9)
H52 H 0.0943592 0.997715 0.183351
C50_3 C 0.9307(7) 0.0693(7) 0.1226(10)
H15_3 H 0.9467 0.0533 0.1499
C55_3 C 0.8625(7) 0.0684(7) 0.0580(7)
C56_3 C 0.9316(7) 0.1375(7) 0.0580(7)
H20_3 H 0.8332 0.0524 0.0432
H21_3 H 0.9476 0.1668 0.0432
C60_3 C 0.8863(7) 0.0477(7) 0.1032(7)
C61_3 C 0.9523(7) 0.1137(7) 0.1032(7)
C74_3 C 0.8863(7) 0.1137(7) 0.0380(9)
C57_3 C 0.8642(7) 0.1358(7) 0.9902(9)
O2_3 O 0.9450(6) 0.7980(6) 0.5181(6)
O3_3 O 0.9196(7) 0.7202(6) 0.5337(11)
O4_6 O 1.0000 0.6388(10) 0.5000
O7_3 O 0.9371(6) 0.9371(6) 0.2494(10)
O16_3 O 0.9757(6) 0.8905(8) 0.1601(7)
C3_4 C 0.9076(9) 0.7677(9) 0.5295(10)
C4_4 C 0.8406(9) 0.8406(9) 0.5344(12)
H7_4 H 0.8653 0.8653 0.5233
C5_4 C 0.8546(9) 0.7888(10) 0.5430(9)
C6_4 C 0.7278(7) 0.7278(7) 0.5910(9)
C7_3 C 0.9958(9) 0.8643(7) 0.1229(7)
C17_4 C 0.7659(7) 0.7659(7) 0.5736(13)
C20_4 C 0.8197(8) 0.7502(9) 0.5611(9)
H12_4 H 0.8308 0.7153 0.5650
O22_2 O 0.7980(6) 0.9450(6) 0.5181(6)
O26_3 O 0.9450(6) 0.2020(6) 0.4819(6)
O27_2 O 0.7202(6) 0.9196(7) 0.5337(11)
O31_3 O 0.9196(7) 0.2798(6) 0.4663(11)
O32_6 O 1.0000 0.3612(10) 0.5000
O77_3 O 0.8905(8) 0.9757(6) 0.1601(7)
C24_4 C 0.7677(9) 0.9076(9) 0.5295(10)
C28_4 C 0.7888(10) 0.8546(9) 0.5430(9)
C33_3 C 0.8643(7) 0.9958(9) 0.1229(7)
C65_4 C 0.7502(9) 0.8197(8) 0.5611(9)
H25_4 H 0.7153 0.8308 0.5650
H39_5 H 0.976271 0.374344 0.473251
H40_5 H 0.987079 0.374344 0.53258
H48 H 0.997715 0.0943592 0.183351
C57_4 C 0.1358(7) 0.1358(7) 0.0098(9)
C50_4 C 0.0693(7) 0.0693(7) 0.8774(10)
H15_4 H 0.0533 0.0533 0.8501
C55_4 C 0.0684(7) 0.1375(7) 0.9420(7)
C56_4 C 0.1375(7) 0.0684(7) 0.9420(7)
H20_4 H 0.0524 0.1668 0.9568
H21_4 H 0.1668 0.0524 0.9568
C60_4 C 0.0477(7) 0.1137(7) 0.8968(7)
C61_4 C 0.1137(7) 0.0477(7) 0.8968(7)
C74_4 C 0.1137(7) 0.1137(7) 0.9620(9)
O76_4 O 0.0243(6) 0.8905(8) 0.8399(7)
O78_4 O 0.1095(8) 0.9757(6) 0.8399(7)
C32_4 C 0.0042(9) 0.8643(7) 0.8771(7)
C34_4 C 0.1357(7) 0.9958(9) 0.8771(7)
O2_4 O 0.7980(6) 0.0550(6) 0.4819(6)
O3_4 O 0.7202(6) 0.0804(7) 0.4663(11)
O4_7 O 0.6388(10) -0.0000 0.5000
O7_4 O 0.9371(6) 0.0629(6) 0.7506(10)
O16_4 O 0.8905(8) 0.0243(6) 0.8399(7)
C3_5 C 0.7677(9) 0.0924(9) 0.4705(10)
C4_5 C 0.8406(9) 0.1594(9) 0.4656(12)
H7_5 H 0.8653 0.1347 0.4767
C5_5 C 0.7888(10) 0.1454(9) 0.4570(9)
C6_5 C 0.7278(7) 0.2722(7) 0.4090(9)
C7_4 C 0.8643(7) 0.0042(9) 0.8771(7)
C17_5 C 0.7659(7) 0.2341(7) 0.4264(13)
C20_5 C 0.7502(9) 0.1803(8) 0.4389(9)
H12_5 H 0.7153 0.1692 0.4350
O26_4 O 0.2020(6) 0.0550(6) 0.5181(6)
O31_4 O 0.2798(6) 0.0804(7) 0.5337(11)
O32_7 O 0.3612(10) -0.0000 0.5000
O77_4 O 0.9757(6) 0.1095(8) 0.8399(7)
C24_5 C 0.9076(9) 0.2323(9) 0.4705(10)
C28_5 C 0.8546(9) 0.2112(10) 0.4570(9)
C33_4 C 0.9958(9) 0.1357(7) 0.8771(7)
C65_5 C 0.8197(8) 0.2498(9) 0.4389(9)
H25_5 H 0.8308 0.2847 0.4350
H39_6 H 0.374344 0.023729 0.526749
H40_6 H 0.374344 0.0129214 0.46742
H48_2 H 0.0943592 0.0022853 0.816649
C16_4 C 0.8642(7) 0.8642(7) 0.0098(9)
O4_8 O 0.6388(10) 1.0000 0.5000
C13_4 C 0.9307(7) 0.9307(7) 0.8774(10)
H8_4 H 0.9467 0.9467 0.8501
C15_4 C 0.8625(7) 0.9316(7) 0.9420(7)
H10_4 H 0.8332 0.9476 0.9568
C18_4 C 0.8863(7) 0.9523(7) 0.8968(7)
C23_4 C 0.8863(7) 0.8863(7) 0.9620(9)
O32_8 O 0.3612(10) 1.0000 0.5000
O43_4 O 0.0629(6) 0.9371(6) 0.7506(10)
C54_4 C 0.9316(7) 0.8625(7) 0.9420(7)
H19_4 H 0.9476 0.8332 0.9568
C59_4 C 0.9523(7) 0.8863(7) 0.8968(7)
H33_6 H 0.625656 0.976271 0.526749
H34_6 H 0.625656 0.987079 0.46742
H47_2 H 0.0902512 0.977407 0.872025
H51_2 H 0.0164993 0.852303 0.845436
H52_2 H 0.997715 0.905641 0.816649
C3_6 C 0.0924(9) 0.2323(9) 0.5295(10)
C4_6 C 0.1594(9) 0.1594(9) 0.5344(12)
H7_6 H 0.1347 0.1347 0.5233
C5_6 C 0.1454(9) 0.2112(10) 0.5430(9)
C6_6 C 0.2722(7) 0.2722(7) 0.5910(9)
C17_6 C 0.2341(7) 0.2341(7) 0.5736(13)
C20_6 C 0.1803(8) 0.2498(9) 0.5611(9)
H12_6 H 0.1692 0.2847 0.5650
C24_6 C 0.2323(9) 0.0924(9) 0.5295(10)
C28_6 C 0.2112(10) 0.1454(9) 0.5430(9)
C65_6 C 0.2498(9) 0.1803(8) 0.5611(9)
H25_6 H 0.2847 0.1692 0.5650
H48_3 H 0.0022853 0.905641 0.183351
H52_3 H 0.905641 0.0022853 0.183351
H47_3 H 0.977407 0.909749 0.127975
H51_3 H 0.852303 0.983501 0.154564
H52_4 H 0.0022853 0.0943592 0.816649
H47_4 H 0.909749 0.0225927 0.872025
H51_4 H 0.983501 0.147697 0.845436
H48_4 H 0.905641 0.997715 0.816649
H33_7 H 0.023729 0.374344 0.526749
H34_7 H 0.0129214 0.374344 0.46742
H47_5 H 0.0225927 0.909749 0.872025
H51_5 H 0.147697 0.983501 0.845436
H39_7 H 0.976271 0.625656 0.526749
H40_7 H 0.987079 0.625656 0.46742
H39_8 H 0.625656 0.023729 0.473251
H40_8 H 0.625656 0.0129214 0.53258
H33_8 H 0.374344 0.976271 0.473251
H34_8 H 0.374344 0.987079 0.53258
H47_6 H 0.909749 0.977407 0.127975
H51_6 H 0.983501 0.852303 0.154564
H47_7 H 0.977407 0.0902512 0.872025
H51_7 H 0.852303 0.0164993 0.845436
H47_8 H 0.0902512 0.0225927 0.127975
H51_8 H 0.0164993 0.147697 0.154564
loop_
_geom_bond_atom_site_label_1
_geom_bond_atom_site_label_2
_geom_bond_site_symmetry_1
_geom_bond_site_symmetry_2
N1 C1 1_555 1_555
H2 C1 1_555 1_555
H3 C1 1_555 1_555
C2 N1 1_555 1_555
H4 C2 1_555 1_555
H5 C2 1_555 1_555
H6 C2 1_555 1_555
N1 H31 1_555 1_555
N1_2 C1_2 1_555 1_555
H2_2 C1_2 1_555 1_555
H3_2 C1_2 1_555 1_555
C2_2 N1_2 1_555 1_555
H4_2 C2_2 1_555 1_555
H5_2 C2_2 1_555 1_555
H6_2 C2_2 1_555 1_555
N1_2 H31_2 1_555 1_555
N1_3 C1_3 1_555 1_555
H2_3 C1_3 1_555 1_555
H3_3 C1_3 1_555 1_555
C2_3 N1_3 1_555 1_555
H4_3 C2_3 1_555 1_555
H5_3 C2_3 1_555 1_555
H6_3 C2_3 1_555 1_555
N1_3 H31_3 1_555 1_555
N1_4 C1_4 1_555 1_555
H2_4 C1_4 1_555 1_555
H3_4 C1_4 1_555 1_555
C2_4 N1_4 1_555 1_555
H4_4 C2_4 1_555 1_555
H5_4 C2_4 1_555 1_555
H6_4 C2_4 1_555 1_555
N1_4 H31_4 1_555 1_555
N1_5 C1_5 1_555 1_555
H2_5 C1_5 1_555 1_555
H3_5 C1_5 1_555 1_555
C2_5 N1_5 1_555 1_555
H4_5 C2_5 1_555 1_555
H5_5 C2_5 1_555 1_555
H6_5 C2_5 1_555 1_555
N1_5 H31_5 1_555 1_555
N1_6 C1_6 1_555 1_555
H2_6 C1_6 1_555 1_555
H3_6 C1_6 1_555 1_555
C2_6 N1_6 1_555 1_555
H4_6 C2_6 1_555 1_555
H5_6 C2_6 1_555 1_555
H6_6 C2_6 1_555 1_555
N1_6 H31_6 1_555 1_555
N1_7 C1_7 1_555 1_555
H2_7 C1_7 1_555 1_555
H3_7 C1_7 1_555 1_555
C2_7 N1_7 1_555 1_555
H4_7 C2_7 1_555 1_555
H5_7 C2_7 1_555 1_555
H6_7 C2_7 1_555 1_555
N1_7 H31_7 1_555 1_555
N1_8 C1_8 1_555 1_555
H2_8 C1_8 1_555 1_555
H3_8 C1_8 1_555 1_555
C2_8 N1_8 1_555 1_555
H4_8 C2_8 1_555 1_555
H5_8 C2_8 1_555 1_555
H6_8 C2_8 1_555 1_555
N1_8 H31_8 1_555 1_555
N1_9 C1_9 1_555 1_555
C1_9 H1_9 1_555 1_555
H2_9 C1_9 1_555 1_555
H3_9 C1_9 1_555 1_555
C2_9 N1_9 1_555 1_555
H4_9 C2_9 1_555 1_555
H5_9 C2_9 1_555 1_555
H6_9 C2_9 1_555 1_555
N1_9 H31_9 1_555 1_555
N1_9 H32_9 1_555 1_555
N1_10 C1_10 1_555 1_555
C1_10 H1_10 1_555 1_555
H2_10 C1_10 1_555 1_555
H3_10 C1_10 1_555 1_555
C2_10 N1_10 1_555 1_555
H4_10 C2_10 1_555 1_555
H5_10 C2_10 1_555 1_555
H6_10 C2_10 1_555 1_555
N1_10 H31_10 1_555 1_555
N1_10 H32_10 1_555 1_555
N1_11 C1_11 1_555 1_555
C1_11 H1_11 1_555 1_555
H2_11 C1_11 1_555 1_555
H3_11 C1_11 1_555 1_555
C2_11 N1_11 1_555 1_555
H4_11 C2_11 1_555 1_555
H5_11 C2_11 1_555 1_555
H6_11 C2_11 1_555 1_555
N1_11 H31_11 1_555 1_555
N1_11 H32_11 1_555 1_555
N1_12 C1_12 1_555 1_555
C1_12 H1_12 1_555 1_555
H2_12 C1_12 1_555 1_555
H3_12 C1_12 1_555 1_555
C2_12 N1_12 1_555 1_555
H4_12 C2_12 1_555 1_555
H5_12 C2_12 1_555 1_555
H6_12 C2_12 1_555 1_555
N1_12 H31_12 1_555 1_555
N1_12 H32_12 1_555 1_555
N1_13 C1_13 1_555 1_555
C1_13 H1_13 1_555 1_555
H2_13 C1_13 1_555 1_555
H3_13 C1_13 1_555 1_555
C2_13 N1_13 1_555 1_555
H4_13 C2_13 1_555 1_555
H5_13 C2_13 1_555 1_555
H6_13 C2_13 1_555 1_555
N1_13 H31_13 1_555 1_555
N1_13 H32_13 1_555 1_555
N1_14 C1_14 1_555 1_555
C1_14 H1_14 1_555 1_555
H2_14 C1_14 1_555 1_555
H3_14 C1_14 1_555 1_555
C2_14 N1_14 1_555 1_555
H4_14 C2_14 1_555 1_555
H5_14 C2_14 1_555 1_555
H6_14 C2_14 1_555 1_555
N1_14 H31_14 1_555 1_555
N1_14 H32_14 1_555 1_555
N1_15 C1_15 1_555 1_555
C1_15 H1_15 1_555 1_555
H2_15 C1_15 1_555 1_555
H3_15 C1_15 1_555 1_555
C2_15 N1_15 1_555 1_555
H4_15 C2_15 1_555 1_555
H5_15 C2_15 1_555 1_555
H6_15 C2_15 1_555 1_555
N1_15 H31_15 1_555 1_555
N1_15 H32_15 1_555 1_555
N1_16 C1_16 1_555 1_555
C1_16 H1_16 1_555 1_555
H2_16 C1_16 1_555 1_555
H3_16 C1_16 1_555 1_555
C2_16 N1_16 1_555 1_555
H4_16 C2_16 1_555 1_555
H5_16 C2_16 1_555 1_555
H6_16 C2_16 1_555 1_555
N1_16 H31_16 1_555 1_555
N1_16 H32_16 1_555 1_555
O2 In1 1_555 1_555
O3 In1 1_555 1_555
O4 In1 1_555 1_555
O15 C6 1_555 1_555
C3 O2 1_555 1_555
C4 H7 1_555 1_555
C5 C3 1_555 1_555
C6 C17 1_555 1_555
C17 C20 1_555 1_555
C20 C5 1_555 1_555
H12 C20 1_555 1_555
In6 O22 1_555 1_555
In19 O15 1_555 1_555
In20 O70 1_555 1_555
O20 In1 1_555 1_555
O22 C24 1_555 1_555
O27 In6 1_555 1_555
O70 C6 1_555 1_555
C24 O27 1_555 1_555
C28 C4 1_555 1_555
C65 C17 1_555 1_555
H25 C65 1_555 1_555
O3 C3 1_555 1_555
C4 C5 1_555 1_555
C24 C28 1_555 1_555
C28 C65 1_555 1_555
O4 H34 1_555 1_555
In1_2 O1 1_555 1_555
In2 O11 1_555 1_555
In3 O5 1_555 1_555
In4 O5 1_555 1_555
O1 C8 1_555 1_555
O4_2 In1_2 1_555 1_555
O5 In17 1_555 1_555
O6 C16 1_555 1_555
O7 In3 1_555 1_555
O8 C8 1_555 1_555
O9 In4 1_555 1_555
O10 In4 1_555 1_555
O11 C11 1_555 1_555
O12 In3 1_555 1_555
O13 In2 1_555 1_555
O14 In4 1_555 1_555
O16 In3 1_555 1_555
C7 O10 1_555 1_555
C8 C10 1_555 1_555
C9 O9 1_555 1_555
C10 C14 1_555 1_555
C11 O13 1_555 1_555
C12 C9 1_555 1_555
C13 H8 1_555 1_555
C14 C12 1_555 1_555
H9 C14 1_555 1_555
C15 H10 1_555 1_555
C16 C23 1_555 1_555
C18 C7 1_555 1_555
C19 C10 1_555 1_555
H11 C19 1_555 1_555
C21 C11 1_555 1_555
C22 C12 1_555 1_555
H13 C22 1_555 1_555
C23 C15 1_555 1_555
In7 O18 1_555 1_555
In9_2 O24 1_555 1_555
In11 O76 1_555 1_555
In12 O34 1_555 1_555
In15 O34 1_555 1_555
In17 O51 1_555 1_555
In18 O6 1_555 1_555
In21 O36 1_555 1_555
In22 O50 1_555 1_555
In23 O34 1_555 1_555
In24 O37 1_555 1_555
In25 O38 1_555 1_555
In26 O52 1_555 1_555
O18 C36 1_555 1_555
O23 In1_2 1_555 1_555
O24 C26 1_555 1_555
O28 In1_2 1_555 1_555
O29 In9_2 1_555 1_555
O36 C16 1_555 1_555
O37 C57 1_555 1_555
O38 C57 1_555 1_555
O39 In4 1_555 1_555
O41 In15 1_555 1_555
O45 C36 1_555 1_555
O48 In15 1_555 1_555
O50 C32 1_555 1_555
O51 C33 1_555 1_555
O52 C34 1_555 1_555
O54 In15 1_555 1_555
O57 In2 1_555 1_555
O60 In12 1_555 1_555
O62 In3 1_555 1_555
O65 In2 1_555 1_555
O68 In15 1_555 1_555
O71 In23 1_555 1_555
O72 In15 1_555 1_555
O73 In4 1_555 1_555
O76 C32 1_555 1_555
O77 In3 1_555 1_555
O78 In11 1_555 1_555
C25 O23 1_555 1_555
C26 O29 1_555 1_555
C27 H14 1_555 1_555
C29 C25 1_555 1_555
C30 C26 1_555 1_555
C31 O71 1_555 1_555
C32 C59 1_555 1_555
C33 O77 1_555 1_555
C34 O78 1_555 1_555
C36 C42 1_555 1_555
C39 O48 1_555 1_555
C42 C52 1_555 1_555
C45 O57 1_555 1_555
C48 C39 1_555 1_555
C50 H15 1_555 1_555
C52 C48 1_555 1_555
H17 C52 1_555 1_555
C54 C23 1_555 1_555
C55 H20 1_555 1_555
C56 H21 1_555 1_555
H19 C54 1_555 1_555
C57 C74 1_555 1_555
C58 C31 1_555 1_555
C59 C13 1_555 1_555
C60 C33 1_555 1_555
C61 C34 1_555 1_555
C63 C42 1_555 1_555
H23 C63 1_555 1_555
C66 C29 1_555 1_555
C67 C30 1_555 1_555
H26 C66 1_555 1_555
H27 C67 1_555 1_555
C69 C45 1_555 1_555
C72 C48 1_555 1_555
H29 C72 1_555 1_555
C74 C55 1_555 1_555
O12 C9 1_555 1_555
O16 C7 1_555 1_555
C13 C18 1_555 1_555
C15 C18 1_555 1_555
C19 C21 1_555 1_555
C21 C22 1_555 1_555
O28 C25 1_555 1_555
O60 C39 1_555 1_555
O65 C45 1_555 1_555
O72 C31 1_555 1_555
C27 C29 1_555 1_555
C27 C30 1_555 1_555
C50 C60 1_555 1_555
C50 C61 1_555 1_555
C54 C59 1_555 1_555
C55 C60 1_555 1_555
C56 C61 1_555 1_555
C56 C74 1_555 1_555
C58 C66 1_555 1_555
C58 C67 1_555 1_555
C63 C69 1_555 1_555
C69 C72 1_555 1_555
O4_2 H33 1_555 1_555
O21 In5 1_555 1_555
O25 In5 1_555 1_555
O30 In5 1_555 1_555
O32 In5 1_555 1_555
O32 H40 1_555 1_555
In5_2 O17 1_555 1_555
In8_2 O19 1_555 1_555
In11 O33 1_555 1_555
In13 O35 1_555 1_555
In26 O33 1_555 1_555
In16 O35 1_555 1_555
In22 O33 1_555 1_555
O17 C35 1_555 1_555
O19 C37 1_555 1_555
O26 In5_2 1_555 1_555
O31 In5_2 1_555 1_555
O32_2 In5_2 1_555 1_555
O40 In26 1_555 1_555
O42 In16 1_555 1_555
O43 In11 1_555 1_555
O44 C35 1_555 1_555
O46 C37 1_555 1_555
O47 In26 1_555 1_555
O49 In16 1_555 1_555
O55 In16 1_555 1_555
O56 In2_2 1_555 1_555
O58 In2_2 1_555 1_555
O59 In11 1_555 1_555
O61 In13 1_555 1_555
O63 In11 1_555 1_555
O64 In2_2 1_555 1_555
O66 In2_2 1_555 1_555
O67 In26 1_555 1_555
O69 In16 1_555 1_555
O74 In26 1_555 1_555
O75 In16 1_555 1_555
C35 C41 1_555 1_555
C37 C43 1_555 1_555
C38 O47 1_555 1_555
C40 O49 1_555 1_555
C41 C51 1_555 1_555
C43 C53 1_555 1_555
C44 O56 1_555 1_555
C46 O58 1_555 1_555
C47 C38 1_555 1_555
C49 C40 1_555 1_555
C51 C47 1_555 1_555
C53 C49 1_555 1_555
H16 C51 1_555 1_555
H18 C53 1_555 1_555
C62 C41 1_555 1_555
C64 C43 1_555 1_555
H22 C62 1_555 1_555
H24 C64 1_555 1_555
C68 C44 1_555 1_555
C70 C46 1_555 1_555
C71 C47 1_555 1_555
C73 C49 1_555 1_555
H28 C71 1_555 1_555
H30 C73 1_555 1_555
O59 C38 1_555 1_555
O61 C40 1_555 1_555
O64 C44 1_555 1_555
O66 C46 1_555 1_555
C62 C68 1_555 1_555
C64 C70 1_555 1_555
C68 C71 1_555 1_555
C70 C73 1_555 1_555
O32_2 H39 1_555 1_555
In6 O1_2 1_555 1_555
In2_3 O11_2 1_555 1_555
In3_2 O5_2 1_555 1_555
In25 O5_2 1_555 1_555
O1_2 C8_2 1_555 1_555
O4_3 In6 1_555 1_555
O5_2 In24 1_555 1_555
O39 C16_2 1_555 1_555
O7_2 In3_2 1_555 1_555
O8_2 C8_2 1_555 1_555
O9_2 In25 1_555 1_555
O10_2 In25 1_555 1_555
O11_2 C11_2 1_555 1_555
O12_2 In3_2 1_555 1_555
O13_2 In2_3 1_555 1_555
O14_2 In25 1_555 1_555
O16_2 In3_2 1_555 1_555
C7_2 O10_2 1_555 1_555
C8_2 C10_2 1_555 1_555
C9_2 O9_2 1_555 1_555
C10_2 C14_2 1_555 1_555
C11_2 O13_2 1_555 1_555
C12_2 C9_2 1_555 1_555
C13_2 H8_2 1_555 1_555
C14_2 C12_2 1_555 1_555
H9_2 C14_2 1_555 1_555
C15_2 H10_2 1_555 1_555
C16_2 C23_2 1_555 1_555
C18_2 C7_2 1_555 1_555
C19_2 C10_2 1_555 1_555
H11_2 C19_2 1_555 1_555
C21_2 C11_2 1_555 1_555
C22_2 C12_2 1_555 1_555
H13_2 C22_2 1_555 1_555
C23_2 C15_2 1_555 1_555
In7_3 O18_2 1_555 1_555
In11_2 O76_2 1_555 1_555
In12_2 O34_2 1_555 1_555
In19 O34_2 1_555 1_555
In24 O51_2 1_555 1_555
In17 O36_2 1_555 1_555
In21 O50_2 1_555 1_555
In20 O34_2 1_555 1_555
In22 O37_2 1_555 1_555
In18 O52_2 1_555 1_555
O18_2 C36_2 1_555 1_555
O36_2 C16_2 1_555 1_555
O37_2 C57_2 1_555 1_555
O40 C57_2 1_555 1_555
O41_2 In19 1_555 1_555
O45_2 C36_2 1_555 1_555
O48_2 In19 1_555 1_555
O50_2 C32_2 1_555 1_555
O51_2 C33_2 1_555 1_555
O52_2 C34_2 1_555 1_555
O54_2 In19 1_555 1_555
O57_2 In2_3 1_555 1_555
O60_2 In12_2 1_555 1_555
O62_2 In3_2 1_555 1_555
O65_2 In2_3 1_555 1_555
O68_2 In19 1_555 1_555
O73_2 In25 1_555 1_555
O76_2 C32_2 1_555 1_555
O77_2 In3_2 1_555 1_555
O78_2 In11_2 1_555 1_555
C32_2 C59_2 1_555 1_555
C33_2 O77_2 1_555 1_555
C34_2 O78_2 1_555 1_555
C36_2 C42_2 1_555 1_555
C39_2 O48_2 1_555 1_555
C42_2 C52_2 1_555 1_555
C45_2 O57_2 1_555 1_555
C48_2 C39_2 1_555 1_555
C50_2 H15_2 1_555 1_555
C52_2 C48_2 1_555 1_555
H17_2 C52_2 1_555 1_555
C54_2 C23_2 1_555 1_555
C55_2 H20_2 1_555 1_555
C56_2 H21_2 1_555 1_555
H19_2 C54_2 1_555 1_555
C57_2 C74_2 1_555 1_555
C59_2 C13_2 1_555 1_555
C60_2 C33_2 1_555 1_555
C61_2 C34_2 1_555 1_555
C63_2 C42_2 1_555 1_555
H23_2 C63_2 1_555 1_555
C69_2 C45_2 1_555 1_555
C72_2 C48_2 1_555 1_555
H29_2 C72_2 1_555 1_555
C74_2 C55_2 1_555 1_555
O12_2 C9_2 1_555 1_555
O16_2 C7_2 1_555 1_555
C13_2 C18_2 1_555 1_555
C15_2 C18_2 1_555 1_555
C19_2 C21_2 1_555 1_555
C21_2 C22_2 1_555 1_555
O60_2 C39_2 1_555 1_555
O65_2 C45_2 1_555 1_555
C50_2 C60_2 1_555 1_555
C50_2 C61_2 1_555 1_555
C54_2 C59_2 1_555 1_555
C55_2 C60_2 1_555 1_555
C56_2 C61_2 1_555 1_555
C56_2 C74_2 1_555 1_555
C63_2 C69_2 1_555 1_555
C69_2 C72_2 1_555 1_555
O4_3 H33_2 1_555 1_555
O2_2 In6_2 1_555 1_555
O3_2 In6_2 1_555 1_555
O4_4 In6_2 1_555 1_555
O75 C6_2 1_555 1_555
C3_2 O2_2 1_555 1_555
C4_2 H7_2 1_555 1_555
C5_2 C3_2 1_555 1_555
C6_2 C17_2 1_555 1_555
C17_2 C20_2 1_555 1_555
C20_2 C5_2 1_555 1_555
H12_2 C20_2 1_555 1_555
In20_2 O70_2 1_555 1_555
O20_2 In6_2 1_555 1_555
O26 C24_2 1_555 1_555
O70_2 C6_2 1_555 1_555
C24_2 O31 1_555 1_555
C28_2 C4_2 1_555 1_555
C65_2 C17_2 1_555 1_555
H25_2 C65_2 1_555 1_555
O3_2 C3_2 1_555 1_555
C4_2 C5_2 1_555 1_555
C24_2 C28_2 1_555 1_555
C28_2 C65_2 1_555 1_555
O4_4 H34_2 1_555 1_555
In9 O17_2 1_555 1_555
In8_4 O19_2 1_555 1_555
In11_2 O33_2 1_555 1_555
In13_2 O35_2 1_555 1_555
In18 O33_2 1_555 1_555
In16_2 O35_2 1_555 1_555
In21 O33_2 1_555 1_555
O17_2 C35_2 1_555 1_555
O19_2 C37_2 1_555 1_555
O26_2 In9 1_555 1_555
O31_2 In9 1_555 1_555
O32_3 In9 1_555 1_555
O42_2 In16_2 1_555 1_555
O43_2 In11_2 1_555 1_555
O44_2 C35_2 1_555 1_555
O46_2 C37_2 1_555 1_555
O47_2 In18 1_555 1_555
O49_2 In16_2 1_555 1_555
O55_2 In16_2 1_555 1_555
O56_2 In2_4 1_555 1_555
O58_2 In2_4 1_555 1_555
O59_2 In11_2 1_555 1_555
O61_2 In13_2 1_555 1_555
O63_2 In11_2 1_555 1_555
O64_2 In2_4 1_555 1_555
O66_2 In2_4 1_555 1_555
O67_2 In18 1_555 1_555
O69_2 In16_2 1_555 1_555
O74_2 In18 1_555 1_555
O75_2 In16_2 1_555 1_555
C35_2 C41_2 1_555 1_555
C37_2 C43_2 1_555 1_555
C38_2 O47_2 1_555 1_555
C40_2 O49_2 1_555 1_555
C41_2 C51_2 1_555 1_555
C43_2 C53_2 1_555 1_555
C44_2 O56_2 1_555 1_555
C46_2 O58_2 1_555 1_555
C47_2 C38_2 1_555 1_555
C49_2 C40_2 1_555 1_555
C51_2 C47_2 1_555 1_555
C53_2 C49_2 1_555 1_555
H16_2 C51_2 1_555 1_555
H18_2 C53_2 1_555 1_555
C62_2 C41_2 1_555 1_555
C64_2 C43_2 1_555 1_555
H22_2 C62_2 1_555 1_555
H24_2 C64_2 1_555 1_555
C68_2 C44_2 1_555 1_555
C70_2 C46_2 1_555 1_555
C71_2 C47_2 1_555 1_555
C73_2 C49_2 1_555 1_555
H28_2 C71_2 1_555 1_555
H30_2 C73_2 1_555 1_555
O59_2 C38_2 1_555 1_555
O61_2 C40_2 1_555 1_555
O64_2 C44_2 1_555 1_555
O66_2 C46_2 1_555 1_555
C62_2 C68_2 1_555 1_555
C64_2 C70_2 1_555 1_555
C68_2 C71_2 1_555 1_555
C70_2 C73_2 1_555 1_555
O32_3 H39_2 1_555 1_555
O21_2 In9_2 1_555 1_555
O32_4 In9_2 1_555 1_555
O32_4 H40_2 1_555 1_555
O75_2 C6_3 1_555 1_555
C3_3 O25 1_555 1_555
C4_3 H7_3 1_555 1_555
C5_3 C3_3 1_555 1_555
C6_3 C17_3 1_555 1_555
C17_3 C20_3 1_555 1_555
C20_3 C5_3 1_555 1_555
H12_3 C20_3 1_555 1_555
In20_3 O70_3 1_555 1_555
O26_2 C24_3 1_555 1_555
O70_3 C6_3 1_555 1_555
C24_3 O31_2 1_555 1_555
C28_3 C4_3 1_555 1_555
C65_3 C17_3 1_555 1_555
H25_3 C65_3 1_555 1_555
O30 C3_3 1_555 1_555
C4_3 C5_3 1_555 1_555
C24_3 C28_3 1_555 1_555
C28_3 C65_3 1_555 1_555
In20_2 O35 1_555 1_555
In20_3 O35_2 1_555 1_555
In8 O19_3 1_555 1_555
O20 C35_3 1_555 1_555
O19_3 C37_3 1_555 1_555
O42_3 In20 1_555 1_555
O44_3 C35_3 1_555 1_555
O46_3 C37_3 1_555 1_555
O47_3 In21 1_555 1_555
O49_3 In20 1_555 1_555
O55_3 In20 1_555 1_555
O56_3 In2_5 1_555 1_555
O58_3 In2_5 1_555 1_555
O61_3 In12_2 1_555 1_555
O64_3 In2_5 1_555 1_555
O66_3 In2_5 1_555 1_555
O67_3 In21 1_555 1_555
O69_3 In20 1_555 1_555
O74_3 In21 1_555 1_555
C35_3 C41_3 1_555 1_555
C37_3 C43_3 1_555 1_555
C38_3 O47_3 1_555 1_555
C40_3 O49_3 1_555 1_555
C41_3 C51_3 1_555 1_555
C43_3 C53_3 1_555 1_555
C44_3 O56_3 1_555 1_555
C46_3 O58_3 1_555 1_555
C47_3 C38_3 1_555 1_555
C49_3 C40_3 1_555 1_555
C51_3 C47_3 1_555 1_555
C53_3 C49_3 1_555 1_555
H16_3 C51_3 1_555 1_555
H18_3 C53_3 1_555 1_555
C62_3 C41_3 1_555 1_555
C64_3 C43_3 1_555 1_555
H22_3 C62_3 1_555 1_555
H24_3 C64_3 1_555 1_555
C68_3 C44_3 1_555 1_555
C70_3 C46_3 1_555 1_555
C71_3 C47_3 1_555 1_555
C73_3 C49_3 1_555 1_555
H28_3 C71_3 1_555 1_555
H30_3 C73_3 1_555 1_555
O63_2 C38_3 1_555 1_555
O61_3 C40_3 1_555 1_555
O64_3 C44_3 1_555 1_555
O66_3 C46_3 1_555 1_555
C62_3 C68_3 1_555 1_555
C64_3 C70_3 1_555 1_555
C68_3 C71_3 1_555 1_555
C70_3 C73_3 1_555 1_555
O4 H39_3 1_555 1_555
O4_2 H40_3 1_555 1_555
In2_6 O11_3 1_555 1_555
O21 C8_3 1_555 1_555
O8_3 C8_3 1_555 1_555
O9_3 In24 1_555 1_555
O11_3 C11_3 1_555 1_555
O13_3 In2_6 1_555 1_555
O14_3 In24 1_555 1_555
C8_3 C10_3 1_555 1_555
C9_3 O9_3 1_555 1_555
C10_3 C14_3 1_555 1_555
C11_3 O13_3 1_555 1_555
C12_3 C9_3 1_555 1_555
C14_3 C12_3 1_555 1_555
H9_3 C14_3 1_555 1_555
C19_3 C10_3 1_555 1_555
H11_3 C19_3 1_555 1_555
C21_3 C11_3 1_555 1_555
C22_3 C12_3 1_555 1_555
H13_3 C22_3 1_555 1_555
In7_2 O18_3 1_555 1_555
O18_3 C36_3 1_555 1_555
O41_3 In20_3 1_555 1_555
O45_3 C36_3 1_555 1_555
O48_3 In20_3 1_555 1_555
O54_3 In20_3 1_555 1_555
O57_3 In2_6 1_555 1_555
O60_3 In13_2 1_555 1_555
O65_3 In2_6 1_555 1_555
O68_3 In20_3 1_555 1_555
O73_3 In24 1_555 1_555
C36_3 C42_3 1_555 1_555
C39_3 O48_3 1_555 1_555
C42_3 C52_3 1_555 1_555
C45_3 O57_3 1_555 1_555
C48_3 C39_3 1_555 1_555
C52_3 C48_3 1_555 1_555
H17_3 C52_3 1_555 1_555
C63_3 C42_3 1_555 1_555
H23_3 C63_3 1_555 1_555
C69_3 C45_3 1_555 1_555
C72_3 C48_3 1_555 1_555
H29_3 C72_3 1_555 1_555
O62_2 C9_3 1_555 1_555
C19_3 C21_3 1_555 1_555
C21_3 C22_3 1_555 1_555
O60_3 C39_3 1_555 1_555
O65_3 C45_3 1_555 1_555
C63_3 C69_3 1_555 1_555
C69_3 C72_3 1_555 1_555
O32 H33_3 1_555 1_555
O32_2 H34_3 1_555 1_555
O4_3 H40_4 1_555 1_555
In8_3 O19_4 1_555 1_555
O20_2 C35_4 1_555 1_555
O19_4 C37_4 1_555 1_555
O42_4 In20_2 1_555 1_555
O44_4 C35_4 1_555 1_555
O46_4 C37_4 1_555 1_555
O47_4 In17 1_555 1_555
O49_4 In20_2 1_555 1_555
O55_4 In20_2 1_555 1_555
O56_4 In2_7 1_555 1_555
O58_4 In2_7 1_555 1_555
O61_4 In13 1_555 1_555
O64_4 In2_7 1_555 1_555
O66_4 In2_7 1_555 1_555
O67_4 In17 1_555 1_555
O69_4 In20_2 1_555 1_555
O74_4 In17 1_555 1_555
C35_4 C41_4 1_555 1_555
C37_4 C43_4 1_555 1_555
C38_4 O47_4 1_555 1_555
C40_4 O49_4 1_555 1_555
C41_4 C51_4 1_555 1_555
C43_4 C53_4 1_555 1_555
C44_4 O56_4 1_555 1_555
C46_4 O58_4 1_555 1_555
C47_4 C38_4 1_555 1_555
C49_4 C40_4 1_555 1_555
C51_4 C47_4 1_555 1_555
C53_4 C49_4 1_555 1_555
H16_4 C51_4 1_555 1_555
H18_4 C53_4 1_555 1_555
C62_4 C41_4 1_555 1_555
C64_4 C43_4 1_555 1_555
H22_4 C62_4 1_555 1_555
H24_4 C64_4 1_555 1_555
C68_4 C44_4 1_555 1_555
C70_4 C46_4 1_555 1_555
C71_4 C47_4 1_555 1_555
C73_4 C49_4 1_555 1_555
H28_4 C71_4 1_555 1_555
H30_4 C73_4 1_555 1_555
O62 C38_4 1_555 1_555
O61_4 C40_4 1_555 1_555
O64_4 C44_4 1_555 1_555
O66_4 C46_4 1_555 1_555
C62_4 C68_4 1_555 1_555
C64_4 C70_4 1_555 1_555
C68_4 C71_4 1_555 1_555
C70_4 C73_4 1_555 1_555
O4_4 H39_4 1_555 1_555
O32_3 H34_4 1_555 1_555
In2_8 O11_4 1_555 1_555
O21_2 C8_4 1_555 1_555
O8_4 C8_4 1_555 1_555
O9_4 In22 1_555 1_555
O11_4 C11_4 1_555 1_555
O13_4 In2_8 1_555 1_555
O14_4 In22 1_555 1_555
C8_4 C10_4 1_555 1_555
C9_4 O9_4 1_555 1_555
C10_4 C14_4 1_555 1_555
C11_4 O13_4 1_555 1_555
C12_4 C9_4 1_555 1_555
C14_4 C12_4 1_555 1_555
H9_4 C14_4 1_555 1_555
C19_4 C10_4 1_555 1_555
H11_4 C19_4 1_555 1_555
C21_4 C11_4 1_555 1_555
C22_4 C12_4 1_555 1_555
H13_4 C22_4 1_555 1_555
In7_4 O18_4 1_555 1_555
O18_4 C36_4 1_555 1_555
O41_4 In23 1_555 1_555
O45_4 C36_4 1_555 1_555
O48_4 In23 1_555 1_555
O54_4 In23 1_555 1_555
O57_4 In2_8 1_555 1_555
O60_4 In12 1_555 1_555
O65_4 In2_8 1_555 1_555
O68_4 In23 1_555 1_555
O73_4 In22 1_555 1_555
C36_4 C42_4 1_555 1_555
C39_4 O48_4 1_555 1_555
C42_4 C52_4 1_555 1_555
C45_4 O57_4 1_555 1_555
C48_4 C39_4 1_555 1_555
C52_4 C48_4 1_555 1_555
H17_4 C52_4 1_555 1_555
C63_4 C42_4 1_555 1_555
H23_4 C63_4 1_555 1_555
C69_4 C45_4 1_555 1_555
C72_4 C48_4 1_555 1_555
H29_4 C72_4 1_555 1_555
O63 C9_4 1_555 1_555
C19_4 C21_4 1_555 1_555
C21_4 C22_4 1_555 1_555
O60_4 C39_4 1_555 1_555
O65_4 C45_4 1_555 1_555
C63_4 C69_4 1_555 1_555
C69_4 C72_4 1_555 1_555
O32_4 H33_4 1_555 1_555
In12_2 O76_3 1_555 1_555
O55_3 C32_3 1_555 1_555
O54_2 C34_3 1_555 1_555
O76_3 C32_3 1_555 1_555
O78_3 In12_2 1_555 1_555
C34_3 O78_3 1_555 1_555
O4_5 In8_3 1_555 1_555
C13_3 H8_3 1_555 1_555
C15_3 H10_3 1_555 1_555
C23_3 C15_3 1_555 1_555
In8_2 O24_2 1_555 1_555
O23_2 In8_3 1_555 1_555
O24_2 C26_2 1_555 1_555
O25_2 In7_3 1_555 1_555
O28_2 In8_3 1_555 1_555
O29_2 In8_2 1_555 1_555
O30_2 In7_3 1_555 1_555
O32_5 In7_3 1_555 1_555
O43_3 In12_2 1_555 1_555
C25_2 O23_2 1_555 1_555
C26_2 O29_2 1_555 1_555
C27_2 H14_2 1_555 1_555
C29_2 C25_2 1_555 1_555
C30_2 C26_2 1_555 1_555
C31_2 O73_3 1_555 1_555
C54_3 C23_3 1_555 1_555
H19_3 C54_3 1_555 1_555
C58_2 C31_2 1_555 1_555
C59_3 C13_3 1_555 1_555
C66_2 C29_2 1_555 1_555
C67_2 C30_2 1_555 1_555
H26_2 C66_2 1_555 1_555
H27_2 C67_2 1_555 1_555
C13_3 C18_3 1_555 1_555
C15_3 C18_3 1_555 1_555
O28_2 C25_2 1_555 1_555
O73_2 C31_2 1_555 1_555
C27_2 C29_2 1_555 1_555
C27_2 C30_2 1_555 1_555
C54_3 C59_3 1_555 1_555
C58_2 C66_2 1_555 1_555
C58_2 C67_2 1_555 1_555
O4_5 H33_5 1_555 1_555
O4_5 H34_5 1_555 1_555
O78_3 H47 1_555 1_555
O76_3 H51 1_555 1_555
O42 C16_3 1_555 1_555
O42_4 C16_3 1_555 1_555
C50_3 H15_3 1_555 1_555
C55_3 H20_3 1_555 1_555
C56_3 H21_3 1_555 1_555
C74_3 C55_3 1_555 1_555
C50_3 C60_3 1_555 1_555
C50_3 C61_3 1_555 1_555
C55_3 C60_3 1_555 1_555
C56_3 C61_3 1_555 1_555
C56_3 C74_3 1_555 1_555
O41_4 C57_3 1_555 1_555
O41 C57_3 1_555 1_555
O2_3 In8_4 1_555 1_555
O3_3 In8_4 1_555 1_555
O4_6 In8_4 1_555 1_555
O7_3 In13_2 1_555 1_555
O74 C6_4 1_555 1_555
O16_3 In13_2 1_555 1_555
C3_4 O2_3 1_555 1_555
C4_4 H7_4 1_555 1_555
C5_4 C3_4 1_555 1_555
C6_4 C17_4 1_555 1_555
C7_3 O55_2 1_555 1_555
C17_4 C20_4 1_555 1_555
C20_4 C5_4 1_555 1_555
H12_4 C20_4 1_555 1_555
In7_2 O22_2 1_555 1_555
O22_2 C24_4 1_555 1_555
O26_3 In7_4 1_555 1_555
O27_2 In7_2 1_555 1_555
O31_3 In7_4 1_555 1_555
O32_6 In7_4 1_555 1_555
O54_3 C33_3 1_555 1_555
O73_4 C6_4 1_555 1_555
O77_3 In13_2 1_555 1_555
C24_4 O27_2 1_555 1_555
C28_4 C4_4 1_555 1_555
C33_3 O77_3 1_555 1_555
C65_4 C17_4 1_555 1_555
H25_4 C65_4 1_555 1_555
O3_3 C3_4 1_555 1_555
O16_3 C7_3 1_555 1_555
C4_4 C5_4 1_555 1_555
C24_4 C28_4 1_555 1_555
C28_4 C65_4 1_555 1_555
O32_6 H39_5 1_555 1_555
O32_6 H40_5 1_555 1_555
O42_3 C57_4 1_555 1_555
O41_2 C57_4 1_555 1_555
C50_4 H15_4 1_555 1_555
C55_4 H20_4 1_555 1_555
C56_4 H21_4 1_555 1_555
C74_4 C55_4 1_555 1_555
C50_4 C60_4 1_555 1_555
C50_4 C61_4 1_555 1_555
C55_4 C60_4 1_555 1_555
C56_4 C61_4 1_555 1_555
C56_4 C74_4 1_555 1_555
In13 O76_4 1_555 1_555
O55_4 C32_4 1_555 1_555
O55 C34_4 1_555 1_555
O76_4 C32_4 1_555 1_555
O78_4 In13 1_555 1_555
C34_4 O78_4 1_555 1_555
O2_4 In7 1_555 1_555
O3_4 In7 1_555 1_555
O4_7 In7 1_555 1_555
O7_4 In12 1_555 1_555
O74_2 C6_5 1_555 1_555
O16_4 In12 1_555 1_555
C3_5 O2_4 1_555 1_555
C4_5 H7_5 1_555 1_555
C5_5 C3_5 1_555 1_555
C6_5 C17_5 1_555 1_555
C7_4 O54 1_555 1_555
C17_5 C20_5 1_555 1_555
C20_5 C5_5 1_555 1_555
H12_5 C20_5 1_555 1_555
O26_3 C24_5 1_555 1_555
O26_4 In8 1_555 1_555
O31_4 In8 1_555 1_555
O32_7 In8 1_555 1_555
O54_4 C33_4 1_555 1_555
O74_3 C6_5 1_555 1_555
O77_4 In12 1_555 1_555
C24_5 O31_3 1_555 1_555
C28_5 C4_5 1_555 1_555
C33_4 O77_4 1_555 1_555
C65_5 C17_5 1_555 1_555
H25_5 C65_5 1_555 1_555
O3_4 C3_5 1_555 1_555
O16_4 C7_4 1_555 1_555
C4_5 C5_5 1_555 1_555
C24_5 C28_5 1_555 1_555
C28_5 C65_5 1_555 1_555
O32_7 H39_6 1_555 1_555
O32_7 H40_6 1_555 1_555
O42_2 C16_4 1_555 1_555
O41_3 C16_4 1_555 1_555
O4_8 In7_2 1_555 1_555
C13_4 H8_4 1_555 1_555
C15_4 H10_4 1_555 1_555
C23_4 C15_4 1_555 1_555
O32_8 In8_2 1_555 1_555
O43_4 In13 1_555 1_555
C54_4 C23_4 1_555 1_555
H19_4 C54_4 1_555 1_555
C59_4 C13_4 1_555 1_555
C13_4 C18_4 1_555 1_555
C15_4 C18_4 1_555 1_555
C54_4 C59_4 1_555 1_555
O4_8 H33_6 1_555 1_555
O4_8 H34_6 1_555 1_555
O78_4 H47_2 1_555 1_555
O76_4 H51_2 1_555 1_555
O73 C6_6 1_555 1_555
C3_6 O25_2 1_555 1_555
C4_6 H7_6 1_555 1_555
C5_6 C3_6 1_555 1_555
C6_6 C17_6 1_555 1_555
C17_6 C20_6 1_555 1_555
C20_6 C5_6 1_555 1_555
H12_6 C20_6 1_555 1_555
O26_4 C24_6 1_555 1_555
O74_4 C6_6 1_555 1_555
C24_6 O31_4 1_555 1_555
C28_6 C4_6 1_555 1_555
C65_6 C17_6 1_555 1_555
H25_6 C65_6 1_555 1_555
O30_2 C3_6 1_555 1_555
C4_6 C5_6 1_555 1_555
C24_6 C28_6 1_555 1_555
C28_6 C65_6 1_555 1_555
O16_3 H47_3 1_555 1_555
O77_3 H51_3 1_555 1_555
O16_4 H47_4 1_555 1_555
O77_4 H51_4 1_555 1_555
O32_5 H33_7 1_555 1_555
O32_5 H34_7 1_555 1_555
O76_4 H47_5 1_555 1_555
O78_4 H51_5 1_555 1_555
O4_6 H39_7 1_555 1_555
O4_6 H40_7 1_555 1_555
O4_7 H39_8 1_555 1_555
O4_7 H40_8 1_555 1_555
O32_8 H33_8 1_555 1_555
O32_8 H34_8 1_555 1_555
O77_3 H47_6 1_555 1_555
O16_3 H51_6 1_555 1_555
O77_4 H47_7 1_555 1_555
O16_4 H51_7 1_555 1_555
O76_3 H47_8 1_555 1_555
O78_3 H51_8 1_555 1_555

#END
