
###############################################################################
#
# This file contains modified crystal structure data generated from the
# MOF subset of the Cambridge Structural Database (CSD) v543 
# hosted by the Cambridge Crystallographic Data Centre (CCDC).
#
# This work is licensed under the Creative Commons
# Attribution-NonCommercial-ShareAlike 4.0 International License.
# To view a copy of this license, visit
# http://creativecommons.org/licenses/by-nc-sa/4.0/
# or send a letter to
# Creative Commons, PO Box 1866, Mountain View, CA 94042, USA.
#
# CIF created using the CSD Python API on 29 September 2022
# The structure has been converted into the P1 space group
# The structure has a 3D framework
# The original CSD entry INALOA is in the monoclinic crystal system
# The framework has been calculated to contain at least 10.0% void space
# The void calculation uses a probe of radius 1.32A, grid spacing 0.4
#
###############################################################################

data_INALOA
_chemical_formula_moiety         '(C96 H112 Cu8 N8 O32)n'
_symmetry_cell_setting           triclinic
_symmetry_space_group_name_H-M   'P 1'
_symmetry_Int_Tables_number      1
_space_group_name_Hall           'P 1'
loop_
_symmetry_equiv_pos_site_id
_symmetry_equiv_pos_as_xyz
1 x,y,z
_cell_length_a                   26.105(5)
_cell_length_b                   12.3990(18)
_cell_length_c                   9.0710(14)
_cell_angle_alpha                90
_cell_angle_beta                 97.138(14)
_cell_angle_gamma                90
_cell_volume                     2913.31
loop_
_atom_site_label
_atom_site_type_symbol
_atom_site_fract_x
_atom_site_fract_y
_atom_site_fract_z
O2 O 0.82136(12) 0.7983(2) 0.3966(3)
O3 O 0.81220(10) 0.37027(18) 0.0894(3)
O4 O 0.75042(11) 0.7462(2) 0.2536(3)
C7 C 0.79601(16) 0.7768(2) 0.2727(4)
C8 C 0.82424(17) 0.7855(3) 0.1384(4)
H7 H 0.7998 0.7790 0.0492
H8 H 0.8404 0.8559 0.1373
C9 C 0.86542(17) 0.6980(3) 0.1386(5)
H9 H 0.8919 0.7102 0.2219
H10 H 0.8816 0.7042 0.0482
C10 C 0.78425(15) 0.4405(3) 0.0212(3)
C11 C 0.80279(15) 0.5563(3) 0.0258(4)
H11 H 0.7735 0.6029 0.0342
C12 C 0.84453(15) 0.5837(3) 0.1489(4)
H13 H 0.8311 0.5755 0.2433
H14 H 0.8727 0.5330 0.1473
Cu5 Cu 0.791467(16) 0.78163(3) 0.58430(4)
Cu6 Cu 0.708533(16) 0.71837(3) 0.41570(4)
Cu7 Cu 0.791467(16) 0.21837(3) 0.08430(4)
O9 O 0.67864(12) 0.2983(2) 0.1034(3)
Cu1 Cu 0.708533(16) 0.28163(3) 0.91570(4)
O1 O 0.74140(10) 0.42353(19) 0.9462(3)
N1 N 0.64284(11) 0.3430(2) 0.7688(3)
C1 C 0.64720(14) 0.4332(3) 0.6934(4)
H1 H 0.6783 0.4707 0.7080
C2 C 0.60775(14) 0.4740(3) 0.5944(4)
H2 H 0.6124 0.5379 0.5440
C3 C 0.56183(14) 0.4208(3) 0.5701(4)
C4 C 0.55720(14) 0.3269(3) 0.6491(4)
H3 H 0.5265 0.2880 0.6369
C5 C 0.59841(16) 0.2918(3) 0.7461(4)
H4 H 0.5947 0.2284 0.7985
C6 C 0.51737(15) 0.4629(4) 0.4633(4)
H5 H 0.4973 0.4024 0.4201
H6 H 0.5309 0.5012 0.3834
H12 H 0.8153 0.5726 0.9319
N2 N 0.35716(11) 0.6570(2) 0.2312(3)
C13 C 0.35280(14) 0.5668(3) 0.3066(4)
H15 H 0.3217 0.5293 0.2920
C14 C 0.39225(14) 0.5260(3) 0.4056(4)
H16 H 0.3876 0.4621 0.4560
C15 C 0.43817(14) 0.5792(3) 0.4299(4)
C16 C 0.44280(14) 0.6731(3) 0.3509(4)
H17 H 0.4735 0.7120 0.3631
C17 C 0.40159(16) 0.7082(3) 0.2539(4)
H18 H 0.4053 0.7716 0.2015
C18 C 0.48263(15) 0.5371(4) 0.5367(4)
H19 H 0.5027 0.5976 0.5799
H20 H 0.4691 0.4988 0.6166
Cu2 Cu 0.291467(16) 0.71837(3) 0.08430(4)
O5 O 0.25860(10) 0.57647(19) 0.0538(3)
H26 H 0.1847 0.4274 0.0681
O11 O 0.31220(10) 0.87027(18) 0.0894(3)
O12 O 0.68780(10) 0.12973(18) 0.9106(3)
O13 O 0.24958(11) 0.7462(2) 0.2464(3)
O14 O 0.75042(11) 0.2538(2) 0.7536(3)
O6 O 0.17864(12) 0.2017(2) 0.6034(3)
O7 O 0.18780(10) 0.62973(18) 0.9106(3)
O8 O 0.24958(11) 0.2538(2) 0.7464(3)
C19 C 0.20399(16) 0.2232(2) 0.7273(4)
C20 C 0.17576(17) 0.2145(3) 0.8616(4)
H21 H 0.2002 0.2210 0.9508
H22 H 0.1596 0.1441 0.8627
C21 C 0.13458(17) 0.3020(3) 0.8614(5)
H23 H 0.1081 0.2898 0.7781
H24 H 0.1184 0.2958 0.9518
C22 C 0.21575(15) 0.5595(3) 0.9788(3)
C23 C 0.19721(15) 0.4437(3) 0.9742(4)
H25 H 0.2265 0.3971 0.9658
C24 C 0.15547(15) 0.4163(3) 0.8511(4)
H27 H 0.1689 0.4245 0.7567
H28 H 0.1273 0.4670 0.8527
Cu3 Cu 0.291467(16) 0.28163(3) 0.58430(4)
Cu4 Cu 0.208533(16) 0.78163(3) 0.91570(4)
Cu8 Cu 0.208533(16) 0.21837(3) 0.41570(4)
O10 O 0.32136(12) 0.7017(2) 0.8966(3)
C6_2 C 0.48263(15) 0.4629(4) 0.0367(4)
H5_2 H 0.5027 0.4024 0.0799
H6_2 H 0.4691 0.5012 0.1166
N2_2 N 0.64284(11) 0.6570(2) 0.2688(3)
C13_2 C 0.64720(14) 0.5668(3) 0.1934(4)
H15_2 H 0.6783 0.5293 0.2080
C14_2 C 0.60775(14) 0.5260(3) 0.0944(4)
H16_2 H 0.6124 0.4621 0.0440
C15_2 C 0.56183(14) 0.5792(3) 0.0701(4)
C16_2 C 0.55720(14) 0.6731(3) 0.1491(4)
H17_2 H 0.5265 0.7120 0.1369
C17_2 C 0.59841(16) 0.7082(3) 0.2461(4)
H18_2 H 0.5947 0.7716 0.2985
O5_2 O 0.74140(10) 0.57647(19) 0.4462(3)
O6_2 O 0.82136(12) 0.2017(2) 0.8966(3)
O7_2 O 0.81220(10) 0.62973(18) 0.5894(3)
C19_2 C 0.79601(16) 0.2232(2) 0.7727(4)
C20_2 C 0.82424(17) 0.2145(3) 0.6384(4)
H21_2 H 0.7998 0.2210 0.5492
H22_2 H 0.8404 0.1441 0.6373
C21_2 C 0.86542(17) 0.3020(3) 0.6386(5)
H23_2 H 0.8919 0.2898 0.7219
H24_2 H 0.8816 0.2958 0.5482
C22_2 C 0.78425(15) 0.5595(3) 0.5212(3)
C23_2 C 0.80279(15) 0.4437(3) 0.5258(4)
H25_2 H 0.7735 0.3971 0.5342
H26_2 H 0.8153 0.4274 0.4319
C24_2 C 0.84453(15) 0.4163(3) 0.6489(4)
H27_2 H 0.8311 0.4245 0.7433
H28_2 H 0.8727 0.4670 0.6473
O10_2 O 0.67864(12) 0.7017(2) 0.6034(3)
O11_2 O 0.68780(10) 0.87027(18) 0.4106(3)
O1_2 O 0.25860(10) 0.42353(19) 0.5538(3)
O2_2 O 0.17864(12) 0.7983(2) 0.1034(3)
O3_2 O 0.18780(10) 0.37027(18) 0.4106(3)
N1_2 N 0.35716(11) 0.3430(2) 0.7312(3)
C1_2 C 0.35280(14) 0.4332(3) 0.8066(4)
H1_2 H 0.3217 0.4707 0.7920
C2_2 C 0.39225(14) 0.4740(3) 0.9056(4)
H2_2 H 0.3876 0.5379 0.9560
C3_2 C 0.43817(14) 0.4208(3) 0.9299(4)
C4_2 C 0.44280(14) 0.3269(3) 0.8509(4)
H3_2 H 0.4735 0.2880 0.8631
C5_2 C 0.40159(16) 0.2918(3) 0.7539(4)
H4_2 H 0.4053 0.2284 0.7015
C7_2 C 0.20399(16) 0.7768(2) 0.2273(4)
C8_2 C 0.17576(17) 0.7855(3) 0.3616(4)
H7_2 H 0.2002 0.7790 0.4508
H8_2 H 0.1596 0.8559 0.3627
C9_2 C 0.13458(17) 0.6980(3) 0.3614(5)
H9_2 H 0.1081 0.7102 0.2781
H10_2 H 0.1184 0.7042 0.4518
C10_2 C 0.21575(15) 0.4405(3) 0.4788(3)
C11_2 C 0.19721(15) 0.5563(3) 0.4742(4)
H11_2 H 0.2265 0.6029 0.4658
H12_2 H 0.1847 0.5726 0.5681
C12_2 C 0.15547(15) 0.5837(3) 0.3511(4)
H13_2 H 0.1689 0.5755 0.2567
H14_2 H 0.1273 0.5330 0.3527
C18_2 C 0.51737(15) 0.5371(4) 0.9633(4)
H19_2 H 0.4973 0.5976 0.9201
H20_2 H 0.5309 0.4988 0.8834
O9_2 O 0.32136(12) 0.2983(2) 0.3966(3)
O12_2 O 0.31220(10) 0.12973(18) 0.5894(3)
O4_2 O 0.25042(11) 0.2462(2) 0.2536(3)
C7_3 C 0.29601(16) 0.2768(2) 0.2727(4)
C8_3 C 0.32424(17) 0.2855(3) 0.1384(4)
H7_3 H 0.2998 0.2790 0.0492
H8_3 H 0.3404 0.3559 0.1373
C9_3 C 0.36542(17) 0.1980(3) 0.1386(5)
H9_3 H 0.3919 0.2102 0.2219
H10_3 H 0.3816 0.2042 0.0482
C11_3 C 0.30279(15) 0.0563(3) 0.0258(4)
H11_3 H 0.2735 0.1029 0.0342
C12_3 C 0.34453(15) 0.0837(3) 0.1489(4)
H13_3 H 0.3311 0.0755 0.2433
H14_3 H 0.3727 0.0330 0.1473
C10_3 C 0.28425(15) 0.9405(3) 0.0212(3)
O1_3 O 0.24140(10) 0.92353(19) 0.9462(3)
N1_3 N 0.14284(11) 0.8430(2) 0.7688(3)
C1_3 C 0.14720(14) 0.9332(3) 0.6934(4)
H1_3 H 0.1783 0.9707 0.7080
C2_3 C 0.10775(14) 0.9740(3) 0.5944(4)
C3_3 C 0.06183(14) 0.9208(3) 0.5701(4)
C4_3 C 0.05720(14) 0.8269(3) 0.6491(4)
H3_3 H 0.0265 0.7880 0.6369
C5_3 C 0.09841(16) 0.7918(3) 0.7461(4)
H4_3 H 0.0947 0.7284 0.7985
C6_3 C 0.01737(15) 0.9629(4) 0.4633(4)
O14_2 O 0.25042(11) 0.7538(2) 0.7536(3)
N2_3 N 0.85716(11) 0.1570(2) 0.2312(3)
C13_3 C 0.85280(14) 0.0668(3) 0.3066(4)
H15_3 H 0.8217 0.0293 0.2920
C14_3 C 0.89225(14) 0.0260(3) 0.4056(4)
C15_3 C 0.93817(14) 0.0792(3) 0.4299(4)
C16_3 C 0.94280(14) 0.1731(3) 0.3509(4)
H17_3 H 0.9735 0.2120 0.3631
C17_3 C 0.90159(16) 0.2082(3) 0.2539(4)
H18_3 H 0.9053 0.2716 0.2015
C18_3 C 0.98263(15) 0.0371(4) 0.5367(4)
O5_3 O 0.75860(10) 0.07647(19) 0.0538(3)
O13_2 O 0.74958(11) 0.2462(2) 0.2464(3)
C22_3 C 0.71575(15) 0.0595(3) 0.9788(3)
O8_2 O 0.74958(11) 0.7538(2) 0.7464(3)
C19_3 C 0.70399(16) 0.7232(2) 0.7273(4)
C20_3 C 0.67576(17) 0.7145(3) 0.8616(4)
H21_3 H 0.7002 0.7210 0.9508
H22_3 H 0.6596 0.6441 0.8627
C21_3 C 0.63458(17) 0.8020(3) 0.8614(5)
H23_3 H 0.6081 0.7898 0.7781
H24_3 H 0.6184 0.7958 0.9518
C23_3 C 0.69721(15) 0.9437(3) 0.9742(4)
H25_3 H 0.7265 0.8971 0.9658
C24_3 C 0.65547(15) 0.9163(3) 0.8511(4)
H27_3 H 0.6689 0.9245 0.7567
H28_3 H 0.6273 0.9670 0.8527
N2_4 N 0.14284(11) 0.1570(2) 0.2688(3)
C13_4 C 0.14720(14) 0.0668(3) 0.1934(4)
H15_4 H 0.1783 0.0293 0.2080
C14_4 C 0.10775(14) 0.0260(3) 0.0944(4)
C15_4 C 0.06183(14) 0.0792(3) 0.0701(4)
C16_4 C 0.05720(14) 0.1731(3) 0.1491(4)
H17_4 H 0.0265 0.2120 0.1369
C17_4 C 0.09841(16) 0.2082(3) 0.2461(4)
H18_4 H 0.0947 0.2716 0.2985
O5_4 O 0.24140(10) 0.07647(19) 0.4462(3)
C22_4 C 0.28425(15) 0.0595(3) 0.5212(3)
H5_3 H 0.0027 0.9024 0.0799
H16_3 H 0.1124 0.9621 0.0440
C19_4 C 0.29601(16) 0.7232(2) 0.7727(4)
C20_4 C 0.32424(17) 0.7145(3) 0.6384(4)
H21_4 H 0.2998 0.7210 0.5492
H22_4 H 0.3404 0.6441 0.6373
C21_4 C 0.36542(17) 0.8020(3) 0.6386(5)
H23_4 H 0.3919 0.7898 0.7219
H24_4 H 0.3816 0.7958 0.5482
C23_4 C 0.30279(15) 0.9437(3) 0.5258(4)
H25_4 H 0.2735 0.8971 0.5342
H26_3 H 0.3153 0.9274 0.4319
C24_4 C 0.34453(15) 0.9163(3) 0.6489(4)
H27_4 H 0.3311 0.9245 0.7433
H28_4 H 0.3727 0.9670 0.6473
H2_3 H 0.8876 0.0379 0.9560
C7_4 C 0.70399(16) 0.2768(2) 0.2273(4)
C8_4 C 0.67576(17) 0.2855(3) 0.3616(4)
H7_4 H 0.7002 0.2790 0.4508
H8_4 H 0.6596 0.3559 0.3627
C9_4 C 0.63458(17) 0.1980(3) 0.3614(5)
H9_4 H 0.6081 0.2102 0.2781
H10_4 H 0.6184 0.2042 0.4518
C11_4 C 0.69721(15) 0.0563(3) 0.4742(4)
H11_4 H 0.7265 0.1029 0.4658
H12_3 H 0.6847 0.0726 0.5681
C12_4 C 0.65547(15) 0.0837(3) 0.3511(4)
H13_4 H 0.6689 0.0755 0.2567
H14_4 H 0.6273 0.0330 0.3527
H19_3 H 0.9973 0.0976 0.9201
O1_4 O 0.75860(10) 0.92353(19) 0.5538(3)
N1_4 N 0.85716(11) 0.8430(2) 0.7312(3)
C1_4 C 0.85280(14) 0.9332(3) 0.8066(4)
H1_4 H 0.8217 0.9707 0.7920
C2_4 C 0.89225(14) 0.9740(3) 0.9056(4)
C3_4 C 0.93817(14) 0.9208(3) 0.9299(4)
C4_4 C 0.94280(14) 0.8269(3) 0.8509(4)
H3_4 H 0.9735 0.7880 0.8631
C5_4 C 0.90159(16) 0.7918(3) 0.7539(4)
H4_4 H 0.9053 0.7284 0.7015
C10_4 C 0.71575(15) 0.9405(3) 0.4788(3)
H2_4 H 0.1124 0.0379 0.5440
H6_3 H 0.0309 0.0012 0.3834
H12_4 H 0.3153 0.0726 0.9319
H19_4 H 0.0027 0.0976 0.5799
H5_4 H 0.9973 0.9024 0.4201
H16_4 H 0.8876 0.9621 0.4560
H20_3 H 0.9691 0.9988 0.6166
H26_4 H 0.6847 0.9274 0.0681
C18_4 C 0.01737(15) 0.0371(4) 0.9633(4)
H20_4 H 0.0309 0.9988 0.8834
H6_4 H 0.9691 0.0012 0.1166
C6_4 C 0.98263(15) 0.9629(4) 0.0367(4)
loop_
_geom_bond_atom_site_label_1
_geom_bond_atom_site_label_2
_geom_bond_site_symmetry_1
_geom_bond_site_symmetry_2
O2 C7 1_555 1_555
O3 C10 1_555 1_555
O4 C7 1_555 1_555
C7 C8 1_555 1_555
C8 H7 1_555 1_555
H8 C8 1_555 1_555
C9 C8 1_555 1_555
H9 C9 1_555 1_555
H10 C9 1_555 1_555
C10 C11 1_555 1_555
C11 H11 1_555 1_555
C12 C9 1_555 1_555
H13 C12 1_555 1_555
H14 C12 1_555 1_555
Cu5 O2 1_555 1_555
Cu6 O4 1_555 1_555
Cu7 O3 1_555 1_555
C11 C12 1_555 1_555
Cu1 O1 1_555 1_555
N1 Cu1 1_555 1_555
C1 N1 1_555 1_555
H1 C1 1_555 1_555
C2 C1 1_555 1_555
H2 C2 1_555 1_555
C3 C2 1_555 1_555
C4 C3 1_555 1_555
H3 C4 1_555 1_555
C5 N1 1_555 1_555
H4 C5 1_555 1_555
C6 C3 1_555 1_555
H5 C6 1_555 1_555
H6 C6 1_555 1_555
N2 C13 1_555 1_555
C13 H15 1_555 1_555
C14 C13 1_555 1_555
H16 C14 1_555 1_555
C15 C14 1_555 1_555
C16 C15 1_555 1_555
H17 C16 1_555 1_555
C17 N2 1_555 1_555
H18 C17 1_555 1_555
C18 C6 1_555 1_555
H19 C18 1_555 1_555
H20 C18 1_555 1_555
Cu2 N2 1_555 1_555
O5 Cu2 1_555 1_555
O11 Cu2 1_555 1_555
O12 Cu1 1_555 1_555
O13 Cu2 1_555 1_555
O14 Cu1 1_555 1_555
C4 C5 1_555 1_555
C15 C18 1_555 1_555
C16 C17 1_555 1_555
O6 C19 1_555 1_555
O7 C22 1_555 1_555
O8 C19 1_555 1_555
C19 C20 1_555 1_555
C20 H21 1_555 1_555
H22 C20 1_555 1_555
C21 C20 1_555 1_555
H23 C21 1_555 1_555
H24 C21 1_555 1_555
C23 C22 1_555 1_555
H25 C23 1_555 1_555
C24 C21 1_555 1_555
H27 C24 1_555 1_555
H28 C24 1_555 1_555
Cu3 O8 1_555 1_555
Cu4 O7 1_555 1_555
Cu8 O6 1_555 1_555
C23 C24 1_555 1_555
H5_2 C6_2 1_555 1_555
H6_2 C6_2 1_555 1_555
N2_2 C13_2 1_555 1_555
C13_2 H15_2 1_555 1_555
C14_2 C13_2 1_555 1_555
H16_2 C14_2 1_555 1_555
C15_2 C14_2 1_555 1_555
C16_2 C15_2 1_555 1_555
H17_2 C16_2 1_555 1_555
C17_2 N2_2 1_555 1_555
H18_2 C17_2 1_555 1_555
Cu6 N2_2 1_555 1_555
O5_2 Cu6 1_555 1_555
O6_2 C19_2 1_555 1_555
O7_2 C22_2 1_555 1_555
O14 C19_2 1_555 1_555
C19_2 C20_2 1_555 1_555
C20_2 H21_2 1_555 1_555
H22_2 C20_2 1_555 1_555
C21_2 C20_2 1_555 1_555
H23_2 C21_2 1_555 1_555
H24_2 C21_2 1_555 1_555
C22_2 O5_2 1_555 1_555
C23_2 C22_2 1_555 1_555
H25_2 C23_2 1_555 1_555
H26_2 C23_2 1_555 1_555
C24_2 C21_2 1_555 1_555
H27_2 C24_2 1_555 1_555
H28_2 C24_2 1_555 1_555
Cu5 O7_2 1_555 1_555
O10_2 Cu6 1_555 1_555
O11_2 Cu6 1_555 1_555
C16_2 C17_2 1_555 1_555
C23_2 C24_2 1_555 1_555
Cu3 O1_2 1_555 1_555
O1_2 C10_2 1_555 1_555
O2_2 C7_2 1_555 1_555
O3_2 C10_2 1_555 1_555
N1_2 Cu3 1_555 1_555
O13 C7_2 1_555 1_555
C1_2 N1_2 1_555 1_555
H1_2 C1_2 1_555 1_555
C2_2 C1_2 1_555 1_555
H2_2 C2_2 1_555 1_555
C3_2 C2_2 1_555 1_555
C4_2 C3_2 1_555 1_555
H3_2 C4_2 1_555 1_555
C5_2 N1_2 1_555 1_555
H4_2 C5_2 1_555 1_555
C7_2 C8_2 1_555 1_555
C8_2 H7_2 1_555 1_555
H8_2 C8_2 1_555 1_555
C9_2 C8_2 1_555 1_555
H9_2 C9_2 1_555 1_555
H10_2 C9_2 1_555 1_555
C10_2 C11_2 1_555 1_555
C11_2 H11_2 1_555 1_555
H12_2 C11_2 1_555 1_555
C12_2 C9_2 1_555 1_555
H13_2 C12_2 1_555 1_555
H14_2 C12_2 1_555 1_555
H19_2 C18_2 1_555 1_555
H20_2 C18_2 1_555 1_555
Cu8 O3_2 1_555 1_555
O9_2 Cu3 1_555 1_555
O12_2 Cu3 1_555 1_555
C4_2 C5_2 1_555 1_555
C11_2 C12_2 1_555 1_555
O9_2 C7_3 1_555 1_555
O4_2 C7_3 1_555 1_555
C7_3 C8_3 1_555 1_555
C8_3 H7_3 1_555 1_555
H8_3 C8_3 1_555 1_555
C9_3 C8_3 1_555 1_555
H9_3 C9_3 1_555 1_555
H10_3 C9_3 1_555 1_555
C11_3 H11_3 1_555 1_555
C12_3 C9_3 1_555 1_555
H13_3 C12_3 1_555 1_555
H14_3 C12_3 1_555 1_555
Cu8 O4_2 1_555 1_555
C11_3 C12_3 1_555 1_555
O11 C10_3 1_555 1_555
Cu4 O1_3 1_555 1_555
N1_3 Cu4 1_555 1_555
C1_3 N1_3 1_555 1_555
H1_3 C1_3 1_555 1_555
C2_3 C1_3 1_555 1_555
C3_3 C2_3 1_555 1_555
C4_3 C3_3 1_555 1_555
H3_3 C4_3 1_555 1_555
C5_3 N1_3 1_555 1_555
H4_3 C5_3 1_555 1_555
C6_3 C3_3 1_555 1_555
O14_2 Cu4 1_555 1_555
C4_3 C5_3 1_555 1_555
N2_3 C13_3 1_555 1_555
C13_3 H15_3 1_555 1_555
C14_3 C13_3 1_555 1_555
C15_3 C14_3 1_555 1_555
C16_3 C15_3 1_555 1_555
H17_3 C16_3 1_555 1_555
C17_3 N2_3 1_555 1_555
H18_3 C17_3 1_555 1_555
Cu7 N2_3 1_555 1_555
O5_3 Cu7 1_555 1_555
O13_2 Cu7 1_555 1_555
C15_3 C18_3 1_555 1_555
C16_3 C17_3 1_555 1_555
O12 C22_3 1_555 1_555
O10_2 C19_3 1_555 1_555
O8_2 C19_3 1_555 1_555
C19_3 C20_3 1_555 1_555
C20_3 H21_3 1_555 1_555
H22_3 C20_3 1_555 1_555
C21_3 C20_3 1_555 1_555
H23_3 C21_3 1_555 1_555
H24_3 C21_3 1_555 1_555
H25_3 C23_3 1_555 1_555
C24_3 C21_3 1_555 1_555
H27_3 C24_3 1_555 1_555
H28_3 C24_3 1_555 1_555
Cu5 O8_2 1_555 1_555
C23_3 C24_3 1_555 1_555
N2_4 C13_4 1_555 1_555
C13_4 H15_4 1_555 1_555
C14_4 C13_4 1_555 1_555
C15_4 C14_4 1_555 1_555
C16_4 C15_4 1_555 1_555
H17_4 C16_4 1_555 1_555
C17_4 N2_4 1_555 1_555
H18_4 C17_4 1_555 1_555
Cu8 N2_4 1_555 1_555
O5_4 Cu8 1_555 1_555
O12_2 C22_4 1_555 1_555
C22_4 O5_4 1_555 1_555
C16_4 C17_4 1_555 1_555
O10 C19_4 1_555 1_555
O14_2 C19_4 1_555 1_555
C19_4 C20_4 1_555 1_555
C20_4 H21_4 1_555 1_555
H22_4 C20_4 1_555 1_555
C21_4 C20_4 1_555 1_555
H23_4 C21_4 1_555 1_555
H24_4 C21_4 1_555 1_555
H25_4 C23_4 1_555 1_555
H26_3 C23_4 1_555 1_555
C24_4 C21_4 1_555 1_555
H27_4 C24_4 1_555 1_555
H28_4 C24_4 1_555 1_555
C23_4 C24_4 1_555 1_555
O9 C7_4 1_555 1_555
O13_2 C7_4 1_555 1_555
C7_4 C8_4 1_555 1_555
C8_4 H7_4 1_555 1_555
H8_4 C8_4 1_555 1_555
C9_4 C8_4 1_555 1_555
H9_4 C9_4 1_555 1_555
H10_4 C9_4 1_555 1_555
C11_4 H11_4 1_555 1_555
H12_3 C11_4 1_555 1_555
C12_4 C9_4 1_555 1_555
H13_4 C12_4 1_555 1_555
H14_4 C12_4 1_555 1_555
C11_4 C12_4 1_555 1_555
Cu5 O1_4 1_555 1_555
O1_4 C10_4 1_555 1_555
O11_2 C10_4 1_555 1_555
N1_4 Cu5 1_555 1_555
C1_4 N1_4 1_555 1_555
H1_4 C1_4 1_555 1_555
C2_4 C1_4 1_555 1_555
C3_4 C2_4 1_555 1_555
C4_4 C3_4 1_555 1_555
H3_4 C4_4 1_555 1_555
C5_4 N1_4 1_555 1_555
H4_4 C5_4 1_555 1_555
C4_4 C5_4 1_555 1_555

#END
