
###############################################################################
#
# This file contains modified crystal structure data generated from the
# MOF subset of the Cambridge Structural Database (CSD) v543 
# hosted by the Cambridge Crystallographic Data Centre (CCDC).
#
# This work is licensed under the Creative Commons
# Attribution-NonCommercial-ShareAlike 4.0 International License.
# To view a copy of this license, visit
# http://creativecommons.org/licenses/by-nc-sa/4.0/
# or send a letter to
# Creative Commons, PO Box 1866, Mountain View, CA 94042, USA.
#
# CIF created using the CSD Python API on 29 September 2022
# The structure has been converted into the P1 space group
# The structure has a 3D framework
# The original CSD entry INAMUG is in the triclinic crystal system
# The framework has been calculated to contain at least 10.0% void space
# The void calculation uses a probe of radius 1.32A, grid spacing 0.4
# H atom positions have been added when not included in the experimental data
#
###############################################################################

data_INAMUG
_chemical_formula_moiety         '(C98 H100 Co8 N12 O21)n'
_symmetry_cell_setting           triclinic
_symmetry_space_group_name_H-M   'P 1'
_symmetry_Int_Tables_number      1
_space_group_name_Hall           'P 1'
loop_
_symmetry_equiv_pos_site_id
_symmetry_equiv_pos_as_xyz
1 x,y,z
_cell_length_a                   11.166(2)
_cell_length_b                   11.638(2)
_cell_length_c                   20.950(4)
_cell_angle_alpha                96.25(3)
_cell_angle_beta                 90.68(3)
_cell_angle_gamma                108.49(3)
_cell_volume                     2563.46
loop_
_atom_site_label
_atom_site_type_symbol
_atom_site_fract_x
_atom_site_fract_y
_atom_site_fract_z
Co5 Co 0.13448(2) 0.47922(2) 0.240627(12)
N13 N 0.06327(16) 0.63080(16) 0.23058(9)
C91 C 0.0632(2) 0.6799(2) 0.17565(12)
H90 H 0.0917 0.6452 0.1393
C94 C 0.0248(2) 0.6857(2) 0.28265(11)
H92 H 0.0248 0.6542 0.3216
C95 C 0.0230(2) 0.7793(2) 0.17010(13)
H93 H 0.0242 0.8093 0.1306
Co9 Co -0.0000 0.0000 0.5000
Co3 Co 0.5000 0.5000 0.0000
O1 O 0.22031(16) 0.34754(15) 0.25857(7)
H1 H 0.2158 0.2807 0.2337
H2 H 0.2150 0.3336 0.2984
O2 O 0.14969(14) 0.44774(14) 0.14142(7)
O3 O 0.08567(19) 0.26695(16) 0.08108(9)
O4 O 0.32107(14) 0.50042(15) 0.02725(7)
O5 O 0.33168(17) 0.69544(17) 0.03367(12)
C1 C 0.27258(19) 0.5841(2) 0.02714(10)
C2 C 0.13008(19) 0.54277(19) 0.01616(9)
C3 C 0.05281(19) 0.43842(19) 0.04027(9)
C4 C 0.10151(19) 0.37890(19) 0.09117(10)
O6 O 0.11882(15) 0.50554(13) 0.33949(7)
O7 O 0.14838(15) 0.04550(14) 0.57210(8)
H4 H 0.2164 0.0726 0.5633
O8 O 0.15829(17) 0.35085(15) 0.38030(7)
O9 O 0.02772(14) 0.19001(12) 0.49849(7)
C6 C 0.11568(19) 0.43790(17) 0.38357(9)
C7 C 0.05399(19) 0.46731(17) 0.44378(9)
C10 C 0.0581(2) 0.58766(18) 0.46136(9)
H6 H 0.0969 0.6465 0.4349
C13 C 0.1362(2) 0.0700(2) 0.37682(11)
H11 H 0.0879 0.1222 0.3786
N1 N 0.94396(17) 0.34542(17) 0.23216(9)
N2 N 0.13190(17) 0.00287(15) 0.42518(8)
C18 C 0.8633(2) 0.3408(2) 0.18348(11)
H16 H 0.8902 0.3955 0.1534
C19 C 0.7800(2) 0.1842(2) 0.27148(12)
H17 H 0.7540 0.1332 0.3033
C20 C 0.9008(2) 0.2664(2) 0.27526(12)
H18 H 0.9551 0.2671 0.3094
C22 C 0.6968(2) 0.1775(2) 0.22017(11)
C23 C 0.5647(2) 0.0861(2) 0.21242(12)
H21 H 0.5175 0.1091 0.1796
H22 H 0.5709 0.0067 0.1969
C24 C 0.4908(3) 0.0745(3) 0.27216(15)
H23 H 0.4830 0.1534 0.2875
H24 H 0.5376 0.0518 0.3052
C27 C 0.2090(2) 0.0653(2) 0.32438(11)
H27 H 0.2092 0.1138 0.2919
C44 C 0.7417(2) 0.2587(2) 0.17557(11)
H43 H 0.6902 0.2581 0.1403
Co9_2 Co 0.0000 1.0000 0.5000
O24 O 0.11139(17) 0.80997(14) 0.57928(8)
C57 C 0.0296(2) 0.75827(17) 0.53521(9)
C58 C 0.00602(19) 0.62256(17) 0.51715(9)
O25 O 0.56718(17) 0.69320(16) 0.01052(10)
H55 H 0.6346 0.7395 0.0247
H56 H 0.5085 0.7182 0.0222
C63 C 0.7810(2) 0.8834(2) 0.20420(13)
H60 H 0.7505 0.9461 0.1899
H61 H 0.7614 0.8161 0.1700
C64 C 0.7136(2) 0.8393(2) 0.26373(12)
H62 H 0.7565 0.8572 0.3037
C65 C 0.5755(2) 0.76571(19) 0.25622(11)
C66 C 0.5148(2) 0.7182(2) 0.30975(11)
H63 H 0.5582 0.7370 0.3497
N9 N 0.05604(17) 0.65458(17) 0.76784(9)
C70 C 0.9259(2) 0.9355(2) 0.21722(15)
H67 H 0.9639 0.9806 0.1823
H68 H 0.9450 0.9914 0.2566
N11 N 0.55780(17) 0.49433(17) 0.09785(9)
N12 N 0.3789(2) 0.1878(2) 0.52188(12)
C77 C 0.7175(2) 0.5512(2) 0.18281(11)
H76 H 0.8014 0.5922 0.1961
C78 C 0.6774(2) 0.5511(2) 0.12056(11)
H77 H 0.7358 0.5924 0.0928
C79 C 0.4770(2) 0.4362(2) 0.13950(11)
H78 H 0.3935 0.3966 0.1250
C80 C 0.5101(2) 0.4316(2) 0.20246(11)
H79 H 0.4497 0.3893 0.2291
C81 C 0.6336(2) 0.49023(19) 0.22620(10)
C82 C 0.6817(2) 0.4913(2) 0.29397(11)
H80 H 0.7653 0.5326 0.3079
C83 C 0.5859(3) 0.4208(2) 0.33810(12)
H81 H 0.5199 0.4582 0.3440
H82 H 0.5471 0.3379 0.3178
C84 C 0.6445(3) 0.4175(3) 0.40342(13)
H83 H 0.6765 0.4999 0.4254
H84 H 0.7156 0.3872 0.3973
C85 C 0.5516(2) 0.3378(3) 0.44533(12)
C86 C 0.5804(3) 0.2495(3) 0.47507(15)
H85 H 0.6587 0.2381 0.4701
C87 C 0.4928(3) 0.1777(3) 0.51233(17)
H86 H 0.5148 0.1188 0.5319
C88 C 0.3500(3) 0.2716(3) 0.49260(14)
H87 H 0.2703 0.2797 0.4977
C89 C 0.4323(3) 0.3475(3) 0.45487(15)
H88 H 0.4077 0.4054 0.4357
C90 C 0.9854(2) 0.7863(2) 0.28110(12)
H89 H 0.9618 0.8222 0.3186
N15 N 0.32220(16) 0.61317(16) 0.24785(9)
C92 C 0.9809(2) 0.83436(19) 0.22316(13)
C96 C 0.3912(2) 0.6437(2) 0.30395(11)
H94 H 0.3533 0.6129 0.3405
C97 C 0.3793(2) 0.6608(2) 0.19679(10)
H95 H 0.3332 0.6421 0.1577
C98 C 0.5039(2) 0.7369(2) 0.19885(11)
H96 H 0.5390 0.7682 0.1619
H99 H 0.689012 0.922874 0.272232
H100 H 0.656625 0.572961 0.308939
Co3_2 Co 0.5000 0.5000 1.0000
O11 O 0.43282(17) 0.30680(16) 0.98948(10)
H7 H 0.3654 0.2605 0.9753
H8 H 0.4915 0.2818 0.9778
N3 N 0.44220(17) 0.50567(17) 0.90215(9)
N4 N 0.6211(2) 0.8122(2) 0.47812(12)
C28 C 0.2825(2) 0.4488(2) 0.81719(11)
H28 H 0.1986 0.4078 0.8039
C29 C 0.3226(2) 0.4489(2) 0.87944(11)
H29 H 0.2642 0.4076 0.9072
C30 C 0.5230(2) 0.5638(2) 0.86050(11)
H30 H 0.6065 0.6034 0.8750
C31 C 0.4899(2) 0.5684(2) 0.79754(11)
H31 H 0.5503 0.6107 0.7709
C32 C 0.3664(2) 0.50977(19) 0.77380(10)
C33 C 0.3183(2) 0.5087(2) 0.70603(11)
H32 H 0.2347 0.4674 0.6921
C34 C 0.4141(3) 0.5792(2) 0.66190(12)
H33 H 0.4801 0.5418 0.6560
H34 H 0.4529 0.6621 0.6822
C35 C 0.3555(3) 0.5825(3) 0.59658(13)
H35 H 0.3235 0.5001 0.5746
H36 H 0.2844 0.6128 0.6027
C36 C 0.4484(2) 0.6622(3) 0.55467(12)
C37 C 0.4196(3) 0.7505(3) 0.52493(15)
H37 H 0.3413 0.7619 0.5299
C38 C 0.5072(3) 0.8223(3) 0.48767(17)
H38 H 0.4852 0.8812 0.4681
C39 C 0.6500(3) 0.7284(3) 0.50740(14)
H39 H 0.7297 0.7203 0.5023
C40 C 0.5677(3) 0.6525(3) 0.54513(15)
H40 H 0.5923 0.5946 0.5643
O17 O 0.67893(14) 0.49958(15) 0.97275(7)
C54 C 0.07615(19) 0.6039(2) 0.97685(10)
H51 H 0.1272 0.6744 0.9616
H98 H 0.343375 0.427039 0.691061
H5 H 0.1442 0.9798 0.5765
C11 C 0.2793(2) 0.9207(2) 0.37086(12)
H9 H 0.3274 0.8685 0.3704
C12 C 0.2052(2) 0.9310(2) 0.42190(11)
H10 H 0.2061 0.8859 0.4558
C25 C 0.3605(2) 0.9819(2) 0.26251(12)
H25 H 0.3679 0.9007 0.2548
H26 H 0.3182 0.9959 0.2248
C26 C 0.2816(2) 0.98857(19) 0.32008(11)
Co9_3 Co 1.0000 0.0000 0.5000
C5 C 0.92385(19) 0.3961(2) 0.02315(10)
H3 H 0.8728 0.3256 0.0384
O10 O 0.88861(17) 0.19003(14) 0.42072(8)
C8 C 0.9704(2) 0.24173(17) 0.46479(9)
C9 C 0.99398(19) 0.37744(17) 0.48285(9)
Co4 Co 0.86552(2) 0.52078(2) 0.759373(12)
Co9_4 Co 1.0000 1.0000 0.5000
O12 O 0.77969(16) 0.65246(15) 0.74143(7)
H49 H 0.7842 0.7193 0.7663
H50 H 0.7850 0.6664 0.7016
O14 O 0.85031(14) 0.55226(14) 0.85858(7)
O19 O 0.88118(15) 0.49446(13) 0.66051(7)
H53 H 0.8558 0.0202 0.4235
O21 O 0.84171(17) 0.64915(15) 0.61970(7)
O22 O 0.97228(14) 0.80999(12) 0.50151(7)
C55 C 0.88432(19) 0.56210(17) 0.61643(9)
C56 C 0.94601(19) 0.53269(17) 0.55622(9)
C59 C 0.9419(2) 0.41234(18) 0.53864(9)
H54 H 0.9031 0.3535 0.5651
C60 C 0.7207(2) 0.0793(2) 0.62914(12)
H57 H 0.6726 0.1315 0.6296
C61 C 0.7948(2) 0.0690(2) 0.57810(11)
H58 H 0.7939 0.1141 0.5442
C74 C 0.6395(2) 0.0181(2) 0.73749(12)
H73 H 0.6321 0.0993 0.7452
H74 H 0.6818 0.0041 0.7752
C75 C 0.7184(2) 0.01143(19) 0.67992(11)
N14 N 0.93673(16) 0.36920(16) 0.76942(9)
N16 N 0.67780(16) 0.38683(16) 0.75215(9)
O15 O 0.91433(19) 0.73305(16) 0.91892(9)
O18 O 0.66832(17) 0.30456(17) 0.96633(12)
C50 C 0.72742(19) 0.4159(2) 0.97286(10)
C51 C 0.86992(19) 0.45723(19) 0.98384(9)
C52 C 0.94719(19) 0.56158(19) 0.95973(9)
C53 C 0.89849(19) 0.62110(19) 0.90883(10)
O20 O 0.85162(15) 0.95450(14) 0.42790(8)
H52 H 0.7836 0.9274 0.4367
C62 C 0.8638(2) 0.9300(2) 0.62318(11)
H59 H 0.9121 0.8778 0.6214
N10 N 0.86810(17) 0.99713(15) 0.57482(8)
C67 C 0.1367(2) 0.6592(2) 0.81652(11)
H64 H 0.1098 0.6045 0.8466
C68 C 0.2200(2) 0.8158(2) 0.72852(12)
H65 H 0.2460 0.8668 0.6967
C69 C 0.0992(2) 0.7336(2) 0.72474(12)
H66 H 0.0449 0.7329 0.6906
C71 C 0.3032(2) 0.8225(2) 0.77983(11)
C72 C 0.4353(2) 0.9139(2) 0.78758(12)
H69 H 0.4825 0.8909 0.8204
H70 H 0.4291 0.9933 0.8031
C73 C 0.5092(3) 0.9255(3) 0.72784(15)
H71 H 0.5170 0.8466 0.7125
H72 H 0.4624 0.9482 0.6948
C76 C 0.7910(2) 0.9347(2) 0.67562(11)
H75 H 0.7908 0.8862 0.7081
C93 C 0.2583(2) 0.7413(2) 0.82443(11)
H91 H 0.3098 0.7419 0.8597
C14 C 0.2190(2) 0.1166(2) 0.79580(13)
H12 H 0.2495 0.0539 0.8101
H13 H 0.2386 0.1839 0.8300
C15 C 0.2864(2) 0.1607(2) 0.73627(12)
H14 H 0.2435 0.1428 0.6963
C16 C 0.4245(2) 0.23429(19) 0.74378(11)
C17 C 0.4852(2) 0.2818(2) 0.69025(11)
H15 H 0.4418 0.2630 0.6503
C21 C 0.0741(2) 0.0645(2) 0.78278(15)
H19 H 0.0361 0.0194 0.8177
H20 H 0.0550 0.0086 0.7434
C41 C 0.0146(2) 0.2137(2) 0.71890(12)
H41 H 0.0382 0.1778 0.6814
C43 C 0.0191(2) 0.16564(19) 0.77684(13)
C47 C 0.6088(2) 0.3563(2) 0.69605(11)
H46 H 0.6467 0.3871 0.6595
C48 C 0.6207(2) 0.3392(2) 0.80321(10)
H47 H 0.6668 0.3579 0.8423
C49 C 0.4961(2) 0.2631(2) 0.80115(11)
H48 H 0.4610 0.2318 0.8381
H97 H 0.310988 0.0771264 0.727768
C42 C 0.9368(2) 0.3201(2) 0.82435(12)
H42 H 0.9083 0.3548 0.8607
C45 C 0.9752(2) 0.3143(2) 0.71735(11)
H44 H 0.9752 0.3458 0.6784
C46 C 0.9770(2) 0.2207(2) 0.82990(13)
H45 H 0.9758 0.1907 0.8694
loop_
_geom_bond_atom_site_label_1
_geom_bond_atom_site_label_2
_geom_bond_site_symmetry_1
_geom_bond_site_symmetry_2
N13 Co5 1_555 1_555
C91 N13 1_555 1_555
H90 C91 1_555 1_555
H92 C94 1_555 1_555
C95 C91 1_555 1_555
H93 C95 1_555 1_555
N13 C94 1_555 1_555
Co5 O1 1_555 1_555
Co9 O7 1_555 1_555
Co3 O4 1_555 1_555
O1 H1 1_555 1_555
H2 O1 1_555 1_555
O2 Co5 1_555 1_555
O3 C4 1_555 1_555
O4 C1 1_555 1_555
O5 C1 1_555 1_555
C1 C2 1_555 1_555
C2 C3 1_555 1_555
C3 C4 1_555 1_555
C4 O2 1_555 1_555
O6 Co5 1_555 1_555
O7 H4 1_555 1_555
O8 C6 1_555 1_555
O9 Co9 1_555 1_555
C6 O6 1_555 1_555
C7 C6 1_555 1_555
C10 C7 1_555 1_555
H6 C10 1_555 1_555
C13 H11 1_555 1_555
N1 C18 1_555 1_555
N2 Co9 1_555 1_555
C18 H16 1_555 1_555
C19 H17 1_555 1_555
C20 N1 1_555 1_555
H18 C20 1_555 1_555
C22 C19 1_555 1_555
C23 C22 1_555 1_555
H21 C23 1_555 1_555
H22 C23 1_555 1_555
C24 C23 1_555 1_555
H23 C24 1_555 1_555
H24 C24 1_555 1_555
C27 C13 1_555 1_555
H27 C27 1_555 1_555
C44 C18 1_555 1_555
H43 C44 1_555 1_555
O24 C57 1_555 1_555
C57 C58 1_555 1_555
C58 C10 1_555 1_555
O25 Co3 1_555 1_555
H55 O25 1_555 1_555
H56 O25 1_555 1_555
C63 H60 1_555 1_555
H61 C63 1_555 1_555
C64 C63 1_555 1_555
H62 C64 1_555 1_555
C65 C64 1_555 1_555
C66 C65 1_555 1_555
H63 C66 1_555 1_555
C70 C63 1_555 1_555
H67 C70 1_555 1_555
H68 C70 1_555 1_555
N11 Co3 1_555 1_555
N12 C87 1_555 1_555
C77 H76 1_555 1_555
C78 N11 1_555 1_555
H77 C78 1_555 1_555
C79 N11 1_555 1_555
H78 C79 1_555 1_555
C80 C79 1_555 1_555
H79 C80 1_555 1_555
C81 C77 1_555 1_555
C82 C81 1_555 1_555
H80 C82 1_555 1_555
C83 C82 1_555 1_555
H81 C83 1_555 1_555
H82 C83 1_555 1_555
C84 C83 1_555 1_555
H83 C84 1_555 1_555
H84 C84 1_555 1_555
C85 C84 1_555 1_555
C86 C85 1_555 1_555
H85 C86 1_555 1_555
C87 C86 1_555 1_555
H86 C87 1_555 1_555
C88 N12 1_555 1_555
H87 C88 1_555 1_555
C89 C85 1_555 1_555
H88 C89 1_555 1_555
C90 H89 1_555 1_555
N15 Co5 1_555 1_555
C92 C70 1_555 1_555
C96 C66 1_555 1_555
H94 C96 1_555 1_555
C97 N15 1_555 1_555
H95 C97 1_555 1_555
C98 C65 1_555 1_555
H96 C98 1_555 1_555
C13 N2 1_555 1_555
C19 C20 1_555 1_555
C22 C44 1_555 1_555
C77 C78 1_555 1_555
C80 C81 1_555 1_555
C88 C89 1_555 1_555
C90 C92 1_555 1_555
N15 C96 1_555 1_555
C97 C98 1_555 1_555
C64 H99 1_555 1_555
C82 H100 1_555 1_555
O11 Co3_2 1_555 1_555
H7 O11 1_555 1_555
H8 O11 1_555 1_555
N3 Co3_2 1_555 1_555
N4 C38 1_555 1_555
C28 H28 1_555 1_555
C29 N3 1_555 1_555
H29 C29 1_555 1_555
C30 N3 1_555 1_555
H30 C30 1_555 1_555
C31 C30 1_555 1_555
H31 C31 1_555 1_555
C32 C28 1_555 1_555
C33 C32 1_555 1_555
H32 C33 1_555 1_555
C34 C33 1_555 1_555
H33 C34 1_555 1_555
H34 C34 1_555 1_555
C35 C34 1_555 1_555
H35 C35 1_555 1_555
H36 C35 1_555 1_555
C36 C35 1_555 1_555
C37 C36 1_555 1_555
H37 C37 1_555 1_555
C38 C37 1_555 1_555
H38 C38 1_555 1_555
C39 N4 1_555 1_555
H39 C39 1_555 1_555
C40 C36 1_555 1_555
H40 C40 1_555 1_555
O17 Co3_2 1_555 1_555
H51 C54 1_555 1_555
C28 C29 1_555 1_555
C31 C32 1_555 1_555
C39 C40 1_555 1_555
C33 H98 1_555 1_555
C11 H9 1_555 1_555
C12 C11 1_555 1_555
H10 C12 1_555 1_555
H25 C25 1_555 1_555
H26 C25 1_555 1_555
C26 C11 1_555 1_555
C25 C26 1_555 1_555
H3 C5 1_555 1_555
O10 C8 1_555 1_555
Co4 O12 1_555 1_555
Co9_4 O22 1_555 1_555
O12 H49 1_555 1_555
H50 O12 1_555 1_555
O14 Co4 1_555 1_555
O19 Co4 1_555 1_555
O21 C55 1_555 1_555
C55 O19 1_555 1_555
C56 C55 1_555 1_555
C59 C9 1_555 1_555
H54 C59 1_555 1_555
C60 H57 1_555 1_555
C61 C60 1_555 1_555
H58 C61 1_555 1_555
H73 C74 1_555 1_555
H74 C74 1_555 1_555
C75 C60 1_555 1_555
N14 Co4 1_555 1_555
N16 Co4 1_555 1_555
C8 C9 1_555 1_555
C56 C59 1_555 1_555
C74 C75 1_555 1_555
O14 C53 1_555 1_555
O15 C53 1_555 1_555
O17 C50 1_555 1_555
O18 C50 1_555 1_555
C50 C51 1_555 1_555
C52 C51 1_555 1_555
C53 C52 1_555 1_555
O20 Co9_4 1_555 1_555
H52 O20 1_555 1_555
C62 H59 1_555 1_555
N9 C67 1_555 1_555
N10 Co9_4 1_555 1_555
C67 H64 1_555 1_555
C68 H65 1_555 1_555
C69 N9 1_555 1_555
H66 C69 1_555 1_555
C71 C68 1_555 1_555
C72 C71 1_555 1_555
H69 C72 1_555 1_555
H70 C72 1_555 1_555
C73 C72 1_555 1_555
H71 C73 1_555 1_555
H72 C73 1_555 1_555
C76 C62 1_555 1_555
H75 C76 1_555 1_555
C93 C67 1_555 1_555
H91 C93 1_555 1_555
C62 N10 1_555 1_555
C68 C69 1_555 1_555
C71 C93 1_555 1_555
C14 H12 1_555 1_555
H13 C14 1_555 1_555
C15 C14 1_555 1_555
H14 C15 1_555 1_555
C16 C15 1_555 1_555
C17 C16 1_555 1_555
H15 C17 1_555 1_555
C21 C14 1_555 1_555
H19 C21 1_555 1_555
H20 C21 1_555 1_555
C41 H41 1_555 1_555
N16 C47 1_555 1_555
C43 C21 1_555 1_555
C47 C17 1_555 1_555
H46 C47 1_555 1_555
C48 N16 1_555 1_555
H47 C48 1_555 1_555
C49 C16 1_555 1_555
H48 C49 1_555 1_555
C41 C43 1_555 1_555
C48 C49 1_555 1_555
C15 H97 1_555 1_555
C42 N14 1_555 1_555
H42 C42 1_555 1_555
H44 C45 1_555 1_555
C46 C42 1_555 1_555
H45 C46 1_555 1_555
N14 C45 1_555 1_555

#END
