
###############################################################################
#
# This file contains modified crystal structure data generated from the
# MOF subset of the Cambridge Structural Database (CSD) v543 
# hosted by the Cambridge Crystallographic Data Centre (CCDC).
#
# This work is licensed under the Creative Commons
# Attribution-NonCommercial-ShareAlike 4.0 International License.
# To view a copy of this license, visit
# http://creativecommons.org/licenses/by-nc-sa/4.0/
# or send a letter to
# Creative Commons, PO Box 1866, Mountain View, CA 94042, USA.
#
# CIF created using the CSD Python API on 29 September 2022
# The structure has been converted into the P1 space group
# The structure has a 3D framework
# The original CSD entry INARUM is in the monoclinic crystal system
# The framework has been calculated to contain at least 10.0% void space
# The void calculation uses a probe of radius 1.32A, grid spacing 0.4
#
###############################################################################

data_INARUM
_chemical_formula_moiety         '(C52 H32 N28 O36 Zn14)n'
_symmetry_cell_setting           triclinic
_symmetry_space_group_name_H-M   'P 1'
_symmetry_Int_Tables_number      1
_space_group_name_Hall           'P 1'
loop_
_symmetry_equiv_pos_site_id
_symmetry_equiv_pos_as_xyz
1 x,y,z
_cell_length_a                   11.3605(5)
_cell_length_b                   18.3120(6)
_cell_length_c                   12.4463(4)
_cell_angle_alpha                90
_cell_angle_beta                 108.491(4)
_cell_angle_gamma                90
_cell_volume                     2455.57
loop_
_atom_site_label
_atom_site_type_symbol
_atom_site_fract_x
_atom_site_fract_y
_atom_site_fract_z
Zn11 Zn 0.0000 0.5000 -0.0000
Zn11_2 Zn -0.0000 0.5000 1.0000
Zn9 Zn 0.73371(4) 0.52180(3) 0.09094(3)
Zn11_3 Zn 1.0000 0.5000 -0.0000
O20 O 0.3589(3) 0.51297(17) 0.0601(2)
Zn1 Zn 0.26629(4) 0.47820(3) 0.90906(3)
Zn3 Zn 0.08276(4) 0.32757(3) 0.44064(4)
O1 O 0.3683(3) 0.47684(16) 0.8103(2)
O2 O 0.4540(3) 0.37340(17) 0.8931(2)
O3 O 0.6411(3) 0.48703(17) 0.9399(2)
O4 O 0.8164(3) 0.47229(18) 0.8972(2)
O5 O 0.7752(4) 0.4596(2) 0.4973(3)
O6 O 0.6197(4) 0.4070(2) 0.3825(3)
O7 O 0.2504(3) 0.36466(18) 0.4856(2)
H1 H 0.0447 0.3430 0.6250
O9 O 0.2736(3) 0.3383(2) 0.6648(3)
N3 N 0.0003(3) 0.38353(19) 0.3011(3)
N7 N 0.6740(4) 0.4309(2) 0.4746(3)
C2 C 0.0503(4) 0.4039(2) 0.2206(3)
H4 H 0.1289 0.3899 0.2204
C5 C 0.3122(4) 0.3637(2) 0.5915(3)
C6 C 0.4411(4) 0.3951(2) 0.6220(3)
C7 C 0.4975(4) 0.3994(2) 0.5373(3)
H7 H 0.4553 0.3844 0.4637
C8 C 0.6166(4) 0.4261(2) 0.5646(3)
C9 C 0.6833(4) 0.4478(2) 0.6718(3)
H8 H 0.7644 0.4644 0.6882
C10 C 0.6258(4) 0.4442(2) 0.7564(3)
C11 C 0.5040(3) 0.4196(2) 0.7314(3)
C12 C 0.4372(3) 0.4218(2) 0.8200(3)
C13 C 0.7023(4) 0.4701(2) 0.8745(3)
H13 H 0.0521 0.6774 0.0304
Zn11_4 Zn 1.0000 0.5000 1.0000
O22 O 0.1836(3) 0.52771(18) 0.1028(2)
N16 N 0.1295(3) 0.54621(19) 0.8263(3)
N17 N 0.1726(3) 0.38938(18) 0.9248(3)
N20 N 0.0921(3) 0.21942(19) 0.4277(3)
N4 N 0.0654(3) 0.39828(19) 0.9523(3)
N6 N 0.0921(3) 0.28058(19) 0.9277(3)
C3 C 0.0207(4) 0.3325(2) 0.9532(4)
C4 C 0.1856(4) 0.3189(2) 0.9106(4)
H6 H 0.2509 0.2983 0.8913
O17 O 0.0062(5) 0.6551(2) 0.4471(4)
H10 H 0.0664 0.6882 0.4515
N9 N 0.0247(3) 0.55424(19) 0.8574(3)
C14 C 0.1107(4) 0.5835(2) 0.7322(3)
H11 H 0.1680 0.5867 0.6931
Zn13 Zn 0.08276(4) 0.17243(3) 0.94064(4)
O8 O 0.9938(5) 0.3449(2) 0.5529(4)
H2 H 0.9336 0.3118 0.5485
N1 N 0.8705(3) 0.45379(19) 0.1737(3)
N2 N 0.9753(3) 0.44576(19) 0.1426(3)
C1 C 0.8893(4) 0.4165(2) 0.2678(3)
H3 H 0.8320 0.4133 0.3069
N11 N 0.9346(3) 0.60172(19) 0.0477(3)
N12 N 0.8274(3) 0.61062(18) 0.0752(3)
N13 N 0.9079(3) 0.71942(19) 0.0723(3)
C16 C 0.9793(4) 0.6675(2) 0.0468(4)
C17 C 0.8144(4) 0.6811(2) 0.0894(4)
H14 H 0.7491 0.7017 0.1087
Zn12 Zn 0.91724(4) 0.82757(3) 0.05936(4)
H5 H 0.9479 0.3226 0.9696
Zn5 Zn 0.91724(4) 0.67243(3) 0.55936(4)
O10 O 0.6317(3) 0.52316(16) 0.1897(2)
O11 O 0.5460(3) 0.62660(17) 0.1069(2)
O14 O 0.2248(4) 0.5404(2) 0.5027(3)
O15 O 0.3803(4) 0.5930(2) 0.6175(3)
O16 O 0.7496(3) 0.63534(18) 0.5144(2)
H9 H 0.9553 0.6570 0.3750
O18 O 0.7264(3) 0.6617(2) 0.3352(3)
N10 N 0.9997(3) 0.61647(19) 0.6989(3)
N14 N 0.3260(4) 0.5691(2) 0.5254(3)
C15 C 0.9497(4) 0.5961(2) 0.7794(3)
H12 H 0.8711 0.6101 0.7796
C18 C 0.6878(4) 0.6363(2) 0.4085(3)
C19 C 0.5589(4) 0.6049(2) 0.3780(3)
C20 C 0.5025(4) 0.6006(2) 0.4627(3)
H15 H 0.5447 0.6156 0.5363
C21 C 0.3834(4) 0.5739(2) 0.4354(3)
C22 C 0.3167(4) 0.5522(2) 0.3282(3)
H16 H 0.2356 0.5356 0.3118
C23 C 0.3742(4) 0.5558(2) 0.2436(3)
C24 C 0.4960(3) 0.5804(2) 0.2686(3)
C25 C 0.5628(3) 0.5782(2) 0.1800(3)
C26 C 0.2977(4) 0.5299(2) 0.1255(3)
N19 N 0.9079(3) 0.78058(19) 0.5723(3)
Zn10 Zn 0.0000 -0.0000 0.5000
Zn10_2 Zn -0.0000 1.0000 0.5000
Zn4 Zn 0.26629(4) 0.02180(3) 0.40906(3)
O10_2 O 0.3683(3) 0.02316(16) 0.3103(2)
O11_2 O 0.4540(3) 0.12660(17) 0.3931(2)
O12 O 0.6411(3) 0.01297(17) 0.4399(2)
O13 O 0.8164(3) 0.02771(18) 0.3972(2)
H9_2 H 0.0447 0.1570 0.1250
O18_2 O 0.2736(3) 0.1617(2) 0.1648(3)
C18_2 C 0.3122(4) 0.1363(2) 0.0915(3)
C19_2 C 0.4411(4) 0.1049(2) 0.1220(3)
C20_2 C 0.4975(4) 0.1006(2) 0.0373(3)
C21_2 C 0.6166(4) 0.0739(2) 0.0646(3)
C22_2 C 0.6833(4) 0.0522(2) 0.1718(3)
H16_2 H 0.7644 0.0356 0.1882
C23_2 C 0.6258(4) 0.0558(2) 0.2564(3)
C24_2 C 0.5040(3) 0.0804(2) 0.2314(3)
C25_2 C 0.4372(3) 0.0782(2) 0.3200(3)
C26_2 C 0.7023(4) 0.0299(2) 0.3745(3)
Zn10_3 Zn 1.0000 -0.0000 0.5000
N18 N 0.1726(3) 0.11062(18) 0.4248(3)
O14_2 O 0.7752(4) 0.0404(2) 0.9973(3)
O15_2 O 0.6197(4) 0.0930(2) 0.8825(3)
O16_2 O 0.2504(3) 0.13534(18) 0.9856(2)
N10_2 N 0.0003(3) 0.11647(19) 0.8011(3)
N11_2 N 0.0654(3) 0.10172(19) 0.4523(3)
N14_2 N 0.6740(4) 0.0691(2) 0.9746(3)
C15_2 C 0.0503(4) 0.0961(2) 0.7206(3)
H12_2 H 0.1289 0.1101 0.7204
C16_2 C 0.0207(4) 0.1675(2) 0.4532(4)
C17_2 C 0.1856(4) 0.1811(2) 0.4106(4)
H14_2 H 0.2509 0.2017 0.3913
H15_2 H 0.4553 0.1156 0.9637
Zn6 Zn 0.73371(4) 0.97820(3) 0.59094(3)
Zn10_4 Zn 1.0000 1.0000 0.5000
O19 O 0.3589(3) 0.98703(17) 0.5601(2)
N15 N 0.1295(3) 0.95379(19) 0.3263(3)
N2_2 N 0.0247(3) 0.94576(19) 0.3574(3)
C1_2 C 0.1107(4) 0.9165(2) 0.2322(3)
H3_2 H 0.1680 0.9133 0.1931
H5_2 H 0.0521 0.8226 0.5304
O21 O 0.1836(3) 0.97229(18) 0.6028(2)
N8 N 0.8705(3) 0.04621(19) 0.6737(3)
N9_2 N 0.9753(3) 0.05424(19) 0.6426(3)
C14_2 C 0.8893(4) 0.0835(2) 0.7678(3)
H11_2 H 0.8320 0.0867 0.8069
H13_2 H 0.9479 0.1774 0.4696
O5_2 O 0.2248(4) 0.9596(2) 0.0027(3)
O6_2 O 0.3803(4) 0.9070(2) 0.1175(3)
O7_2 O 0.7496(3) 0.86466(18) 0.0144(2)
N3_2 N 0.9997(3) 0.88353(19) 0.1989(3)
N4_2 N 0.9346(3) 0.89828(19) 0.5477(3)
N5 N 0.8274(3) 0.88938(18) 0.5752(3)
N7_2 N 0.3260(4) 0.9309(2) 0.0254(3)
C2_2 C 0.9497(4) 0.9039(2) 0.2794(3)
H4_2 H 0.8711 0.8899 0.2796
C3_2 C 0.9793(4) 0.8325(2) 0.5468(4)
C4_2 C 0.8144(4) 0.8189(2) 0.5894(4)
H6_2 H 0.7491 0.7983 0.6087
H7_2 H 0.5447 0.8844 0.0363
O1_2 O 0.6317(3) 0.97684(16) 0.6897(2)
O2_2 O 0.5460(3) 0.87340(17) 0.6069(2)
H1_2 H 0.9553 0.8430 0.8750
O9_2 O 0.7264(3) 0.8383(2) 0.8352(3)
C5_2 C 0.6878(4) 0.8637(2) 0.9085(3)
C6_2 C 0.5589(4) 0.8951(2) 0.8780(3)
C7_2 C 0.5025(4) 0.8994(2) 0.9627(3)
C8_2 C 0.3834(4) 0.9261(2) 0.9354(3)
C9_2 C 0.3167(4) 0.9478(2) 0.8282(3)
H8_2 H 0.2356 0.9644 0.8118
C10_2 C 0.3742(4) 0.9442(2) 0.7436(3)
C11_2 C 0.4960(3) 0.9196(2) 0.7686(3)
C12_2 C 0.5628(3) 0.9218(2) 0.6800(3)
C13_2 C 0.2977(4) 0.9701(2) 0.6255(3)
O8_2 O 0.0062(5) 0.8449(2) 0.9471(4)
H2_2 H 0.0664 0.8118 0.9515
O17_2 O 0.9938(5) 0.1551(2) 0.0529(4)
H10_2 H 0.9336 0.1882 0.0485
loop_
_geom_bond_atom_site_label_1
_geom_bond_atom_site_label_2
_geom_bond_site_symmetry_1
_geom_bond_site_symmetry_2
Zn1 O1 1_555 1_555
Zn3 O7 1_555 1_555
O1 C12 1_555 1_555
O2 C12 1_555 1_555
O3 C13 1_555 1_555
O4 C13 1_555 1_555
O5 N7 1_555 1_555
O6 N7 1_555 1_555
O7 C5 1_555 1_555
O9 C5 1_555 1_555
N3 Zn3 1_555 1_555
N7 C8 1_555 1_555
C2 N3 1_555 1_555
H4 C2 1_555 1_555
C5 C6 1_555 1_555
C6 C7 1_555 1_555
C7 H7 1_555 1_555
C8 C7 1_555 1_555
C9 C8 1_555 1_555
H8 C9 1_555 1_555
C10 C9 1_555 1_555
C11 C6 1_555 1_555
C12 C11 1_555 1_555
C13 C10 1_555 1_555
Zn11_4 O4 1_555 1_555
O22 Zn11 1_555 1_555
N16 Zn1 1_555 1_555
N17 Zn1 1_555 1_555
N20 Zn3 1_555 1_555
C10 C11 1_555 1_555
N4 Zn11_2 1_555 1_555
N17 N4 1_555 1_555
N6 C3 1_555 1_555
C3 N4 1_555 1_555
C4 N17 1_555 1_555
H6 C4 1_555 1_555
H10 O17 1_555 1_555
N16 N9 1_555 1_555
N9 Zn11_2 1_555 1_555
C14 N16 1_555 1_555
H11 C14 1_555 1_555
Zn13 N6 1_555 1_555
N6 C4 1_555 1_555
Zn11_3 N2 1_555 1_555
H2 O8 1_555 1_555
N1 N2 1_555 1_555
C1 N1 1_555 1_555
H3 C1 1_555 1_555
N11 Zn11_3 1_555 1_555
N12 N11 1_555 1_555
N13 C16 1_555 1_555
C16 N11 1_555 1_555
C17 N12 1_555 1_555
H14 C17 1_555 1_555
Zn9 N1 1_555 1_555
Zn12 N13 1_555 1_555
N12 Zn9 1_555 1_555
N13 C17 1_555 1_555
Zn9 O10 1_555 1_555
Zn5 O16 1_555 1_555
O10 C25 1_555 1_555
O11 C25 1_555 1_555
O20 C26 1_555 1_555
O22 C26 1_555 1_555
O14 N14 1_555 1_555
O15 N14 1_555 1_555
O16 C18 1_555 1_555
O18 C18 1_555 1_555
N10 Zn5 1_555 1_555
N14 C21 1_555 1_555
H12 C15 1_555 1_555
C18 C19 1_555 1_555
C19 C20 1_555 1_555
C20 H15 1_555 1_555
C21 C20 1_555 1_555
C22 C21 1_555 1_555
H16 C22 1_555 1_555
C23 C22 1_555 1_555
C24 C19 1_555 1_555
C25 C24 1_555 1_555
C26 C23 1_555 1_555
N19 Zn5 1_555 1_555
N10 C15 1_555 1_555
C23 C24 1_555 1_555
Zn4 O10_2 1_555 1_555
O10_2 C25_2 1_555 1_555
O11_2 C25_2 1_555 1_555
O12 C26_2 1_555 1_555
O13 C26_2 1_555 1_555
O18_2 C18_2 1_555 1_555
C18_2 C19_2 1_555 1_555
C19_2 C20_2 1_555 1_555
C21_2 C20_2 1_555 1_555
C22_2 C21_2 1_555 1_555
H16_2 C22_2 1_555 1_555
C23_2 C22_2 1_555 1_555
C24_2 C19_2 1_555 1_555
C25_2 C24_2 1_555 1_555
C26_2 C23_2 1_555 1_555
Zn10_3 O13 1_555 1_555
N18 Zn4 1_555 1_555
C23_2 C24_2 1_555 1_555
Zn13 O16_2 1_555 1_555
O14_2 N14_2 1_555 1_555
O15_2 N14_2 1_555 1_555
N10_2 Zn13 1_555 1_555
N11_2 Zn10 1_555 1_555
N18 N11_2 1_555 1_555
N20 C16_2 1_555 1_555
H12_2 C15_2 1_555 1_555
C16_2 N11_2 1_555 1_555
C17_2 N18 1_555 1_555
H14_2 C17_2 1_555 1_555
N10_2 C15_2 1_555 1_555
N20 C17_2 1_555 1_555
Zn10_2 N2_2 1_555 1_555
N15 N2_2 1_555 1_555
C1_2 N15 1_555 1_555
H3_2 C1_2 1_555 1_555
O21 Zn10_2 1_555 1_555
N8 N9_2 1_555 1_555
N9_2 Zn10_3 1_555 1_555
C14_2 N8 1_555 1_555
H11_2 C14_2 1_555 1_555
Zn12 O7_2 1_555 1_555
O5_2 N7_2 1_555 1_555
O6_2 N7_2 1_555 1_555
N3_2 Zn12 1_555 1_555
N4_2 Zn10_4 1_555 1_555
N5 N4_2 1_555 1_555
N19 C3_2 1_555 1_555
C2_2 N3_2 1_555 1_555
H4_2 C2_2 1_555 1_555
C3_2 N4_2 1_555 1_555
C4_2 N5 1_555 1_555
H6_2 C4_2 1_555 1_555
Zn6 N5 1_555 1_555
N19 C4_2 1_555 1_555
Zn6 O1_2 1_555 1_555
O1_2 C12_2 1_555 1_555
O2_2 C12_2 1_555 1_555
O19 C13_2 1_555 1_555
O21 C13_2 1_555 1_555
O9_2 C5_2 1_555 1_555
C5_2 C6_2 1_555 1_555
C6_2 C7_2 1_555 1_555
C8_2 C7_2 1_555 1_555
C9_2 C8_2 1_555 1_555
H8_2 C9_2 1_555 1_555
C10_2 C9_2 1_555 1_555
C11_2 C6_2 1_555 1_555
C12_2 C11_2 1_555 1_555
C13_2 C10_2 1_555 1_555
C10_2 C11_2 1_555 1_555
H2_2 O8_2 1_555 1_555
H10_2 O17_2 1_555 1_555

#END
