
###############################################################################
#
# This file contains modified crystal structure data generated from the
# MOF subset of the Cambridge Structural Database (CSD) v543 
# hosted by the Cambridge Crystallographic Data Centre (CCDC).
#
# This work is licensed under the Creative Commons
# Attribution-NonCommercial-ShareAlike 4.0 International License.
# To view a copy of this license, visit
# http://creativecommons.org/licenses/by-nc-sa/4.0/
# or send a letter to
# Creative Commons, PO Box 1866, Mountain View, CA 94042, USA.
#
# CIF created using the CSD Python API on 29 September 2022
# The structure has been converted into the P1 space group
# The structure has a 3D framework
# The original CSD entry INEBOT is in the monoclinic crystal system
# The framework has been calculated to contain at least 10.0% void space
# The void calculation uses a probe of radius 1.32A, grid spacing 0.4
# The framework is charged, counterions have been retained in the structure
# H atom positions have been added when not included in the experimental data
# Generated hydrogen atom positions removed from atoms on special positions
#
###############################################################################

data_INEBOT
_chemical_formula_moiety         '(C268 H248 Cl4 N44 Ni16 O55 3-)n'
_symmetry_cell_setting           triclinic
_symmetry_space_group_name_H-M   'P 1'
_symmetry_Int_Tables_number      1
_space_group_name_Hall           'P 1'
loop_
_symmetry_equiv_pos_site_id
_symmetry_equiv_pos_as_xyz
1 x,y,z
_cell_length_a                   17.5910(2)
_cell_length_b                   22.7810(3)
_cell_length_c                   19.0580(2)
_cell_angle_alpha                90
_cell_angle_beta                 93.2250(10)
_cell_angle_gamma                90
_cell_volume                     7625.22
loop_
_atom_site_label
_atom_site_type_symbol
_atom_site_fract_x
_atom_site_fract_y
_atom_site_fract_z
N1 N 0.0422(3) 0.1093(2) 0.3828(3)
O1 O 0.0957(6) 0.1042(5) 0.4249(6)
O2 O 0.0746(7) 0.0951(4) 0.3298(7)
O3 O 0.9887(5) 0.1170(4) 0.3850(5)
O3_2 O 0.0113(5) 0.6170(4) 0.1150(5)
N1_2 N 0.9578(3) 0.6093(2) 0.1172(3)
O1_2 O 0.9043(6) 0.6042(5) 0.0751(6)
O2_2 O 0.9254(7) 0.5951(4) 0.1702(7)
O3_3 O 0.0113(5) 0.8830(4) 0.6150(5)
N1_3 N 0.9578(3) 0.8907(2) 0.6172(3)
O1_3 O 0.9043(6) 0.8958(5) 0.5751(6)
O2_3 O 0.9254(7) 0.9049(4) 0.6702(7)
N1_4 N 0.0422(3) 0.3907(2) 0.8828(3)
O1_4 O 0.0957(6) 0.3958(5) 0.9249(6)
O2_4 O 0.0746(7) 0.4049(4) 0.8298(7)
O3_4 O 0.9887(5) 0.3830(4) 0.8850(5)
Cl1 Cl 0.2194(2) 0.54421(12) 0.08682(19)
Cl1_2 Cl 0.7806(2) 0.04421(12) 0.41318(19)
Cl1_3 Cl 0.7806(2) 0.45579(12) 0.91318(19)
Cl1_4 Cl 0.2194(2) 0.95579(12) 0.58682(19)
N16 N 0.0436(3) 0.7329(2) 0.0055(3)
C76 C 0.3112(4) 0.7694(3) 0.0622(4)
H55 H 0.3540 0.7637 0.0923
H60 H 0.0822 0.6132 0.0074
C84 C 0.2419(5) 0.7491(3) 0.0813(4)
H61 H 0.2387 0.7289 0.1233
C100 C 0.1005(4) 0.7421(3) 0.0630(3)
H75 H 0.0831 0.7729 0.0934
H76 H 0.1054 0.7064 0.0907
C124 C 0.1767(4) 0.7584(3) 0.0388(3)
O32 O 0.4436(3) 0.8296(2) 0.0306(3)
Ni12 Ni 0.53936(5) 0.87481(4) 0.04957(5)
N12 N 0.0077(3) 0.5022(2) 0.6848(3)
N13 N 0.2423(3) 0.6951(2) 0.8289(3)
N14 N 0.1155(3) 0.6905(2) 0.8114(3)
N15 N 0.0976(3) 0.6024(2) 0.9031(3)
C69 C 0.2199(4) 0.7463(3) 0.7936(3)
O16 O 0.4702(3) 0.55000(19) 0.5860(2)
C70 C 0.0879(4) 0.5783(3) 0.6860(3)
C71 C 0.0630(4) 0.5303(3) 0.6473(3)
C72 C 0.3569(4) 0.6400(3) 0.7970(3)
N18 N 0.0469(3) 0.5805(2) 0.7475(2)
C74 C 0.1771(4) 0.6641(3) 0.8372(3)
C75 C 0.0000(4) 0.5342(3) 0.7426(3)
C77 C 0.3921(4) 0.8284(3) 0.9815(4)
C78 C 0.2626(5) 0.7940(3) 0.7702(4)
H56 H 0.3153 0.7956 0.7771
C79 C 0.1000(5) 0.7899(3) 0.7506(3)
H57 H 0.0472 0.7892 0.7437
O19 O 0.5309(3) 0.57767(19) 0.4611(2)
C82 C 0.0968(4) 0.6381(3) 0.9690(3)
H59 H 0.1477 0.6529 0.9808
C83 C 0.0438(4) 0.6875(3) 0.9611(3)
O20 O 0.5516(3) 0.6725(2) 0.6444(3)
O21 O 0.4873(4) 0.4812(2) 0.6698(3)
C89 C 0.0924(5) 0.5163(3) 0.5822(4)
H63 H 0.0743 0.4847 0.5551
O25 O 0.6000(3) 0.6865(2) 0.4983(3)
C95 C 0.1428(5) 0.8364(3) 0.7285(4)
H69 H 0.1177 0.8682 0.7071
C97 C 0.1765(5) 0.6001(3) 0.6011(4)
H72 H 0.2163 0.6225 0.5853
C99 C 0.2217(6) 0.8378(3) 0.7368(4)
H74 H 0.2476 0.8696 0.7190
C101 C 0.1492(5) 0.5520(3) 0.5614(4)
H77 H 0.1707 0.5440 0.5190
C102 C 0.3805(5) 0.6139(3) 0.6779(4)
H78 H 0.3718 0.6208 0.6300
C103 C 0.4644(4) 0.5307(3) 0.6478(4)
C105 C 0.4053(6) 0.5953(4) 0.8206(4)
H81 H 0.4133 0.5879 0.8684
C108 C 0.3455(5) 0.6485(4) 0.7263(4)
H83 H 0.3131 0.6785 0.7102
C111 C 0.4424(6) 0.5610(4) 0.7707(4)
H86 H 0.4770 0.5322 0.7860
C119 C 0.1400(4) 0.7439(3) 0.7839(3)
C120 C 0.0694(4) 0.5417(3) 0.9144(3)
H93 H 0.0819 0.5170 0.8752
H94 H 0.0941 0.5255 0.9569
C121 C 0.1730(4) 0.6048(3) 0.8717(4)
H95 H 0.2137 0.6004 0.9078
H96 H 0.1773 0.5738 0.8373
C122 C 0.1446(4) 0.6146(3) 0.6635(3)
H97 H 0.1607 0.6474 0.6893
O29 O 0.6345(3) 0.5786(2) 0.5800(3)
C126 C 0.1849(4) 0.7852(3) 0.9716(3)
H99 H 0.1429 0.7892 0.9401
C128 C 0.2540(4) 0.8046(3) 0.9543(3)
H100 H 0.2584 0.8228 0.9110
C129 C 0.3184(4) 0.7984(3) 0.9986(3)
O34 O 0.4436(3) 0.6704(2) 0.5306(3)
O35 O 0.3956(3) 0.8503(2) 0.9212(2)
C130 C 0.4281(4) 0.5696(3) 0.7011(4)
C131 C 0.3195(4) 0.6789(3) 0.8503(4)
H101 H 0.3497 0.7143 0.8575
H102 H 0.3195 0.6583 0.8949
Ni6 Ni 0.5000 0.5000 0.5000
Ni7 Ni 0.01784(5) 0.63904(3) 0.82466(4)
Ni8 Ni 0.53936(5) 0.62519(4) 0.54957(5)
Ni17 Ni 0.54118(6) 0.41527(4) 0.61919(5)
Ni18 Ni 0.45882(6) 0.91527(4) 0.88081(5)
H115 H 0.578021 0.647693 0.681023
H116 H 0.582005 0.7085 0.637152
C107 C 0.9636(6) 0.8275(3) 0.0031(5)
H82 H 0.9858 0.8446 0.0436
C115 C 0.6018(6) 0.7602(4) 0.0064(5)
O38 O 0.5859(6) 0.7359(3) 0.0628(4)
O9 O 0.3907(5) 0.5930(3) 0.2895(3)
O10 O 0.5297(5) 0.6465(4) 0.3383(5)
Ni4 Ni 0.45882(6) 0.58473(4) 0.38081(5)
C67 C 0.6268(16) 0.6649(6) 0.9491(10)
H53 H 0.6084 0.6456 0.9876
C68 C 0.6522(14) 0.6316(5) 0.8906(11)
H54 H 0.6461 0.5910 0.8909
O17 O 0.5298(3) 0.45000(19) 0.4140(2)
N17 N 0.9477(3) 0.5662(2) 0.8533(3)
C73 C 0.8793(4) 0.4734(3) 0.6366(3)
N19 N 0.9927(3) 0.6937(2) 0.9074(3)
C75_2 C 1.0000(4) 0.5342(3) 0.7426(3)
N20 N 0.7893(4) 0.6388(3) 0.7599(4)
C80 C 0.7487(4) 0.4487(3) 0.6089(3)
H58 H 0.7114 0.4199 0.6030
O18 O 0.4691(3) 0.42233(19) 0.5389(2)
C81 C 0.8029(4) 0.6784(3) 0.7061(4)
C85 C 0.7879(4) 0.5494(3) 0.6010(4)
H62 H 0.7766 0.5884 0.5903
O22 O 0.5127(4) 0.5188(2) 0.3302(3)
C86 C 0.9887(5) 0.7725(3) 0.9780(4)
C87 C 0.6833(5) 0.6554(4) 0.8375(5)
C88 C 0.8575(4) 0.6296(3) 0.7959(4)
C90 C 0.9447(4) 0.5203(3) 0.7971(3)
H64 H 0.9569 0.4823 0.8179
H65 H 0.8936 0.5182 0.7753
C91 C 0.9844(5) 0.5427(3) 0.9207(3)
H66 H 0.9717 0.5675 0.9597
H67 H 0.9659 0.5033 0.9292
O23 O 0.6000(3) 0.8135(2) 0.9983(3)
C92 C 0.6491(4) 0.5247(3) 0.5757(4)
C93 C 0.8810(4) 0.6904(3) 0.7126(4)
C94 C 0.8621(4) 0.5327(3) 0.6217(4)
H68 H 0.9004 0.5608 0.6258
C96 C 0.7145(5) 0.6172(4) 0.7806(5)
H70 H 0.6789 0.6169 0.7399
H71 H 0.7199 0.5772 0.7977
C98 C 0.8994(5) 0.7757(4) 0.8780(5)
H73 H 0.8789 0.7594 0.8364
O26 O 0.6093(5) 0.4070(3) 0.7105(3)
C104 C 0.8707(4) 0.5915(3) 0.8589(4)
H79 H 0.8327 0.5606 0.8593
H80 H 0.8683 0.6144 0.9017
C106 C 0.6296(6) 0.7226(4) 0.9482(5)
C109 C 0.9120(5) 0.7285(3) 0.6648(4)
H84 H 0.9639 0.7367 0.6676
O27 O 0.4703(5) 0.3535(4) 0.6617(5)
C110 C 0.8654(6) 0.7534(4) 0.6143(5)
H85 H 0.8859 0.7786 0.5820
C112 C 0.7549(6) 0.7044(4) 0.6541(5)
H87 H 0.7030 0.6964 0.6499
C113 C 0.8744(6) 0.8284(4) 0.9017(6)
H88 H 0.8359 0.8482 0.8760
C114 C 0.9066(7) 0.8537(4) 0.9657(6)
H89 H 0.8874 0.8891 0.9814
C116 C 0.6620(10) 0.7460(5) 0.8948(8)
H90 H 0.6673 0.7866 0.8926
C117 C 0.6884(10) 0.7119(5) 0.8416(8)
H91 H 0.7119 0.7312 0.8057
C118 C 0.7887(7) 0.7422(5) 0.6098(6)
H92 H 0.7584 0.7612 0.5752
C123 C 0.7306(4) 0.5067(3) 0.5965(4)
N21 N 0.9136(3) 0.6594(2) 0.7687(3)
C125 C 0.8219(4) 0.4333(3) 0.6300(3)
H98 H 0.8327 0.3942 0.6401
C127 C 0.9565(4) 0.7470(3) 0.9179(4)
O30 O 0.6026(3) 0.4846(2) 0.5575(3)
O31 O 0.3974(3) 0.5154(2) 0.4425(3)
O36 O 0.3956(3) 0.6497(2) 0.4212(2)
O37 O 0.6044(3) 0.3503(2) 0.5788(2)
C132 C 0.9579(4) 0.4534(3) 0.6614(4)
H103 H 0.9809 0.4328 0.6235
H104 H 0.9537 0.4260 0.7000
Ni13 Ni 0.46064(5) 0.37481(4) 0.45043(5)
Ni5 Ni 0.5000 0.0000 0.0000
C1 C 0.3732(16) 0.1649(6) 0.5509(10)
H1 H 0.3916 0.1456 0.5124
C2 C 0.3478(14) 0.1316(5) 0.6094(11)
H2 H 0.3539 0.0910 0.6091
N7 N 0.0523(3) 0.0662(2) 0.6467(3)
N9 N 0.0073(3) 0.1937(2) 0.5926(3)
C9 C -0.0000(4) 0.0342(3) 0.7574(3)
N10 N 0.2107(4) 0.1388(3) 0.7401(4)
C15 C 0.1971(4) 0.1784(3) 0.7939(4)
C19 C 0.2121(4) 0.0494(3) 0.8990(4)
H10 H 0.2234 0.0884 0.9097
C20 C 0.0113(5) 0.2725(3) 0.5220(4)
C21 C 0.3167(5) 0.1554(4) 0.6625(5)
C22 C 0.1425(4) 0.1296(3) 0.7041(4)
C24 C 0.0553(4) 0.0203(3) 0.7029(3)
H13 H 0.1064 0.0182 0.7247
C25 C 0.0156(5) 0.0427(3) 0.5793(3)
H14 H 0.0283 0.0675 0.5403
H15 H 0.0341 0.0033 0.5708
O8 O 0.4000(3) 0.3135(2) 0.5017(3)
C26 C 0.3509(4) 0.0247(3) 0.9243(4)
C27 C 0.1190(4) 0.1904(3) 0.7874(4)
C28 C 0.1379(4) 0.0327(3) 0.8783(4)
H16 H 0.0996 0.0608 0.8742
C30 C 0.2855(5) 0.1172(4) 0.7194(5)
H18 H 0.3211 0.1169 0.7601
H19 H 0.2801 0.0772 0.7023
C32 C 0.1006(5) 0.2757(4) 0.6220(5)
H21 H 0.1211 0.2594 0.6636
C38 C 0.1293(4) 0.0915(3) 0.6411(4)
H27 H 0.1673 0.0606 0.6407
H28 H 0.1317 0.1144 0.5983
C40 C 0.3704(6) 0.2226(4) 0.5518(5)
C41 C 0.0364(6) 0.3275(3) 0.4969(5)
H30 H 0.0142 0.3446 0.4564
C43 C 0.0880(5) 0.2285(3) 0.8352(4)
H32 H 0.0361 0.2367 0.8324
C44 C 0.1346(6) 0.2534(4) 0.8857(5)
H33 H 0.1141 0.2786 0.9180
C46 C 0.2451(6) 0.2044(4) 0.8459(5)
H35 H 0.2970 0.1964 0.8501
C47 C 0.1256(6) 0.3284(4) 0.5983(6)
H36 H 0.1641 0.3482 0.6240
C48 C 0.0934(7) 0.3537(4) 0.5343(6)
H37 H 0.1126 0.3891 0.5186
C49 C 0.3982(6) 0.2602(4) 0.4936(5)
C50 C 0.3380(10) 0.2460(5) 0.6052(8)
H38 H 0.3327 0.2866 0.6074
C51 C 0.3116(10) 0.2119(5) 0.6584(8)
H39 H 0.2881 0.2312 0.6943
C52 C 0.2113(7) 0.2422(5) 0.8902(6)
H40 H 0.2416 0.2612 0.9248
C57 C 0.2694(4) 0.0067(3) 0.9035(4)
N11 N 0.0864(3) 0.1594(2) 0.7313(3)
O11 O 0.3655(3) 0.0786(2) 0.9200(3)
C61 C 0.0435(4) 0.2470(3) 0.5821(4)
O15 O 0.4141(6) 0.2359(3) 0.4372(4)
Ni5_2 Ni 0.5000 0.0000 1.0000
Ni10 Ni 0.46064(5) 0.12519(4) 0.95043(5)
Ni5_3 Ni 0.5000 1.0000 0.0000
C7 C 0.1207(4) 0.9734(3) 0.8634(3)
C14 C 0.2513(4) 0.9487(3) 0.8911(3)
H6 H 0.2886 0.9199 0.8970
H12 H 0.0431 0.9823 0.6821
C59 C 0.1781(4) 0.9333(3) 0.8700(3)
H46 H 0.1673 0.8942 0.8599
O12 O 0.3974(3) 0.9846(2) 0.9425(3)
C66 C 0.0421(4) 0.9534(3) 0.8386(4)
H51 H 0.0191 0.9328 0.8765
H52 H 0.0463 0.9260 0.8000
Ni5_4 Ni 0.5000 1.0000 1.0000
O5 O 0.4691(3) 0.07767(19) 0.0389(2)
O9_2 O 0.6093(5) 0.0930(3) 0.2105(3)
O10_2 O 0.4703(5) 0.1465(4) 0.1617(5)
Ni4_2 Ni 0.54118(6) 0.08473(4) 0.11919(5)
O22_2 O 0.4873(4) 0.0188(2) 0.1698(3)
O24 O 0.4000(3) 0.1865(2) 0.0017(3)
O31_2 O 0.6026(3) 0.0154(2) 0.0575(3)
O36_2 O 0.6044(3) 0.1497(2) 0.0788(2)
N2 N 0.9923(3) 0.0022(2) 0.8152(3)
N3 N 0.7577(3) 0.1951(2) 0.6711(3)
N4 N 0.8845(3) 0.1905(2) 0.6886(3)
N5 N 0.9024(3) 0.1024(2) 0.5969(3)
C3 C 0.7801(4) 0.2463(3) 0.7064(3)
O4 O 0.5298(3) 0.05000(19) 0.9140(2)
C4 C 0.9121(4) 0.0783(3) 0.8140(3)
C5 C 0.9370(4) 0.0303(3) 0.8527(3)
N6 N 0.9564(3) 0.2329(2) 0.4945(3)
C6 C 0.6431(4) 0.1400(3) 0.7030(3)
N8 N 0.9531(3) 0.0805(2) 0.7525(2)
C8 C 0.8229(4) 0.1641(3) 0.6628(3)
C9_2 C 1.0000(4) 0.0342(3) 0.7574(3)
C10 C 0.6888(4) 0.2694(3) 0.4378(4)
H3 H 0.6460 0.2637 0.4077
C11 C 0.6079(4) 0.3284(3) 0.5185(4)
C12 C 0.7374(5) 0.2940(3) 0.7298(4)
H4 H 0.6847 0.2956 0.7229
C13 C 0.9000(5) 0.2899(3) 0.7494(3)
H5 H 0.9528 0.2892 0.7563
C16 C 0.9032(4) 0.1381(3) 0.5310(3)
H7 H 0.8523 0.1529 0.5192
H8 H 0.9178 0.1132 0.4926
C17 C 0.9562(4) 0.1875(3) 0.5389(3)
O6 O 0.4484(3) 0.1725(2) 0.8556(3)
C18 C 0.7581(5) 0.2491(3) 0.4187(4)
H9 H 0.7613 0.2289 0.3767
C23 C 0.9076(5) 0.0163(3) 0.9178(4)
C29 C 0.8572(5) 0.3364(3) 0.7715(4)
H17 H 0.8823 0.3682 0.7929
C31 C 0.8235(5) 0.1001(3) 0.8989(4)
H20 H 0.7837 0.1225 0.9147
C33 C 0.7783(6) 0.3378(3) 0.7632(4)
H22 H 0.7524 0.3696 0.7810
C34 C 0.8995(4) 0.2421(3) 0.4370(3)
H23 H 0.9169 0.2729 0.4066
H24 H 0.8946 0.2064 0.4093
C35 C 0.8508(5) 0.0520(3) 0.9386(4)
H25 H 0.8293 0.0440 0.9810
C36 C 0.6195(5) 0.1139(3) 0.8221(4)
H26 H 0.6282 0.1208 0.8700
C37 C 0.5356(4) 0.0307(3) 0.8522(4)
C39 C 0.5947(6) 0.0953(4) 0.6794(4)
H29 H 0.5867 0.0879 0.6316
C42 C 0.6545(5) 0.1485(4) 0.7737(4)
H31 H 0.6869 0.1785 0.7898
C45 C 0.5576(6) 0.0610(4) 0.7293(4)
H34 H 0.5230 0.0322 0.7140
C53 C 0.8600(4) 0.2439(3) 0.7161(3)
C54 C 0.9306(4) 0.0417(3) 0.5856(3)
H41 H 0.9181 0.0170 0.6248
H42 H 0.9059 0.0255 0.5431
C55 C 0.8270(4) 0.1048(3) 0.6283(4)
H43 H 0.7863 0.1004 0.5922
H44 H 0.8227 0.0738 0.6627
C56 C 0.8554(4) 0.1146(3) 0.8365(3)
H45 H 0.8393 0.1474 0.8107
C58 C 0.8233(4) 0.2584(3) 0.4612(3)
C60 C 0.8151(4) 0.2852(3) 0.5284(3)
H47 H 0.8571 0.2892 0.5599
C62 C 0.7460(4) 0.3046(3) 0.5457(3)
H48 H 0.7416 0.3228 0.5890
C63 C 0.6816(4) 0.2984(3) 0.5014(3)
O13 O 0.5564(3) 0.3296(2) 0.4694(3)
C64 C 0.5719(4) 0.0696(3) 0.7989(4)
C65 C 0.6805(4) 0.1789(3) 0.6497(4)
H49 H 0.6503 0.2143 0.6425
H50 H 0.6805 0.1583 0.6051
Ni2 Ni 0.98216(5) 0.13904(3) 0.67534(4)
O33 O 0.5564(3) 0.1704(2) 0.9694(3)
H109 H 0.421979 0.147693 0.818977
H110 H 0.417995 0.2085 0.862848
O17_2 O 0.4702(3) 0.95000(19) 0.0860(2)
O7 O 0.5127(4) 0.9812(2) 0.8302(3)
H11 H 0.9257 0.9847 0.9449
O18_2 O 0.5309(3) 0.92233(19) 0.9611(2)
O26_2 O 0.3907(5) 0.9070(3) 0.7895(3)
O27_2 O 0.5297(5) 0.8535(4) 0.8383(5)
C1_2 C 0.3732(16) 0.3351(6) 0.0509(10)
H1_2 H 0.3916 0.3544 0.0124
C2_2 C 0.3478(14) 0.3684(5) 0.1094(11)
H2_2 H 0.3539 0.4090 0.1091
N7_2 N 0.0523(3) 0.4338(2) 0.1467(3)
C7_2 C 0.1207(4) 0.5266(3) 0.3634(3)
N9_2 N 0.0073(3) 0.3063(2) 0.0926(3)
C9_3 C 0.0000(4) 0.4658(3) 0.2574(3)
N10_2 N 0.2107(4) 0.3612(3) 0.2401(4)
C14_2 C 0.2513(4) 0.5513(3) 0.3911(3)
H6_2 H 0.2886 0.5801 0.3970
C15_2 C 0.1971(4) 0.3216(3) 0.2939(4)
C19_2 C 0.2121(4) 0.4506(3) 0.3990(4)
H10_2 H 0.2234 0.4116 0.4097
C20_2 C 0.0113(5) 0.2275(3) 0.0220(4)
C21_2 C 0.3167(5) 0.3446(4) 0.1625(5)
C22_2 C 0.1425(4) 0.3704(3) 0.2041(4)
C24_2 C 0.0553(4) 0.4797(3) 0.2029(3)
H12_2 H 0.0431 0.5177 0.1821
H13_2 H 0.1064 0.4818 0.2247
C25_2 C 0.0156(5) 0.4573(3) 0.0793(3)
H14_2 H 0.0283 0.4325 0.0403
H15_2 H 0.0341 0.4967 0.0708
C26_2 C 0.3509(4) 0.4753(3) 0.4243(4)
C27_2 C 0.1190(4) 0.3096(3) 0.2874(4)
C28_2 C 0.1379(4) 0.4673(3) 0.3783(4)
H16_2 H 0.0996 0.4392 0.3742
C30_2 C 0.2855(5) 0.3828(4) 0.2194(5)
H18_2 H 0.3211 0.3831 0.2601
H19_2 H 0.2801 0.4228 0.2023
C32_2 C 0.1006(5) 0.2243(4) 0.1220(5)
H21_2 H 0.1211 0.2406 0.1636
C38_2 C 0.1293(4) 0.4085(3) 0.1411(4)
H27_2 H 0.1673 0.4394 0.1407
H28_2 H 0.1317 0.3856 0.0983
C40_2 C 0.3704(6) 0.2774(4) 0.0518(5)
C43_2 C 0.0880(5) 0.2715(3) 0.3352(4)
H32_2 H 0.0361 0.2633 0.3324
C44_2 C 0.1346(6) 0.2466(4) 0.3857(5)
H33_2 H 0.1141 0.2214 0.4180
C46_2 C 0.2451(6) 0.2956(4) 0.3459(5)
H35_2 H 0.2970 0.3036 0.3501
C47_2 C 0.1256(6) 0.1716(4) 0.0983(6)
H36_2 H 0.1641 0.1518 0.1240
C48_2 C 0.0934(7) 0.1463(4) 0.0343(6)
H37_2 H 0.1126 0.1109 0.0186
C50_2 C 0.3380(10) 0.2540(5) 0.1052(8)
H38_2 H 0.3327 0.2134 0.1074
C51_2 C 0.3116(10) 0.2881(5) 0.1584(8)
H39_2 H 0.2881 0.2688 0.1943
C52_2 C 0.2113(7) 0.2578(5) 0.3902(6)
H40_2 H 0.2416 0.2388 0.4248
C57_2 C 0.2694(4) 0.4933(3) 0.4035(4)
N11_2 N 0.0864(3) 0.3406(2) 0.2313(3)
C59_2 C 0.1781(4) 0.5667(3) 0.3700(3)
H46_2 H 0.1673 0.6058 0.3599
O11_2 O 0.3655(3) 0.4214(2) 0.4200(3)
C61_2 C 0.0435(4) 0.2530(3) 0.0821(4)
C66_2 C 0.0421(4) 0.5466(3) 0.3386(4)
H51_2 H 0.0191 0.5672 0.3765
H52_2 H 0.0463 0.5740 0.3000
C41_2 C 0.0364(6) 0.1725(3) 0.9969(5)
H30_2 H 0.0142 0.1554 0.9564
C49_2 C 0.3982(6) 0.2398(4) 0.9936(5)
O15_2 O 0.4141(6) 0.2641(3) 0.9372(4)
N2_2 N 0.9923(3) 0.4978(2) 0.3152(3)
N3_2 N 0.7577(3) 0.3049(2) 0.1711(3)
N4_2 N 0.8845(3) 0.3095(2) 0.1886(3)
N5_2 N 0.9024(3) 0.3976(2) 0.0969(3)
C3_2 C 0.7801(4) 0.2537(3) 0.2064(3)
C4_2 C 0.9121(4) 0.4217(3) 0.3140(3)
C5_2 C 0.9370(4) 0.4697(3) 0.3527(3)
C6_2 C 0.6431(4) 0.3600(3) 0.2030(3)
N8_2 N 0.9531(3) 0.4195(2) 0.2525(2)
C8_2 C 0.8229(4) 0.3359(3) 0.1628(3)
C9_4 C 1.0000(4) 0.4658(3) 0.2574(3)
C11_2 C 0.6079(4) 0.1716(3) 0.0185(4)
C12_2 C 0.7374(5) 0.2060(3) 0.2298(4)
H4_2 H 0.6847 0.2044 0.2229
C13_2 C 0.9000(5) 0.2101(3) 0.2494(3)
H5_2 H 0.9528 0.2108 0.2563
C16_2 C 0.9032(4) 0.3619(3) 0.0310(3)
H7_2 H 0.8523 0.3471 0.0192
C17_2 C 0.9562(4) 0.3125(3) 0.0389(3)
O6_2 O 0.4484(3) 0.3275(2) 0.3556(3)
C23_2 C 0.9076(5) 0.4837(3) 0.4178(4)
H11_2 H 0.9257 0.5153 0.4449
C29_2 C 0.8572(5) 0.1636(3) 0.2715(4)
H17_2 H 0.8823 0.1318 0.2929
C31_2 C 0.8235(5) 0.3999(3) 0.3989(4)
H20_2 H 0.7837 0.3775 0.4147
C33_2 C 0.7783(6) 0.1622(3) 0.2632(4)
H22_2 H 0.7524 0.1304 0.2810
C35_2 C 0.8508(5) 0.4480(3) 0.4386(4)
H25_2 H 0.8293 0.4560 0.4810
C36_2 C 0.6195(5) 0.3861(3) 0.3221(4)
H26_2 H 0.6282 0.3792 0.3700
C37_2 C 0.5356(4) 0.4693(3) 0.3522(4)
C39_2 C 0.5947(6) 0.4047(4) 0.1794(4)
H29_2 H 0.5867 0.4121 0.1316
C42_2 C 0.6545(5) 0.3515(4) 0.2737(4)
H31_2 H 0.6869 0.3215 0.2898
C45_2 C 0.5576(6) 0.4390(4) 0.2293(4)
H34_2 H 0.5230 0.4678 0.2140
C53_2 C 0.8600(4) 0.2561(3) 0.2161(3)
C54_2 C 0.9306(4) 0.4583(3) 0.0856(3)
H41_2 H 0.9181 0.4830 0.1248
H42_2 H 0.9059 0.4745 0.0431
C55_2 C 0.8270(4) 0.3952(3) 0.1283(4)
H43_2 H 0.7863 0.3996 0.0922
H44_2 H 0.8227 0.4262 0.1627
C56_2 C 0.8554(4) 0.3854(3) 0.3365(3)
H45_2 H 0.8393 0.3526 0.3107
C60_2 C 0.8151(4) 0.2148(3) 0.0284(3)
H47_2 H 0.8571 0.2108 0.0599
C62_2 C 0.7460(4) 0.1954(3) 0.0457(3)
H48_2 H 0.7416 0.1772 0.0890
C63_2 C 0.6816(4) 0.2016(3) 0.0014(3)
C64_2 C 0.5719(4) 0.4304(3) 0.2989(4)
C65_2 C 0.6805(4) 0.3211(3) 0.1497(4)
H49_2 H 0.6503 0.2857 0.1425
H50_2 H 0.6805 0.3417 0.1051
Ni2_2 Ni 0.98216(5) 0.36096(3) 0.17534(4)
H109_2 H 0.421979 0.352307 0.318977
H110_2 H 0.417995 0.2915 0.362848
N6_2 N 0.9564(3) 0.2671(2) 0.9945(3)
C10_2 C 0.6888(4) 0.2306(3) 0.9378(4)
H3_2 H 0.6460 0.2363 0.9077
H8_2 H 0.9178 0.3868 0.9926
C18_2 C 0.7581(5) 0.2509(3) 0.9187(4)
H9_2 H 0.7613 0.2711 0.8767
C34_2 C 0.8995(4) 0.2579(3) 0.9370(3)
H23_2 H 0.9169 0.2271 0.9066
H24_2 H 0.8946 0.2936 0.9093
C58_2 C 0.8233(4) 0.2416(3) 0.9612(3)
H63_2 H 0.0743 0.0153 0.0551
N12_2 N 0.0077(3) 0.9978(2) 0.1848(3)
N13_2 N 0.2423(3) 0.8049(2) 0.3289(3)
N14_2 N 0.1155(3) 0.8095(2) 0.3114(3)
N15_2 N 0.0976(3) 0.8976(2) 0.4031(3)
C69_2 C 0.2199(4) 0.7537(3) 0.2936(3)
C70_2 C 0.0879(4) 0.9217(3) 0.1860(3)
C71_2 C 0.0630(4) 0.9697(3) 0.1473(3)
N16_2 N 0.0436(3) 0.7671(2) 0.5055(3)
C72_2 C 0.3569(4) 0.8600(3) 0.2970(3)
N18_2 N 0.0469(3) 0.9195(2) 0.2475(2)
C74_2 C 0.1771(4) 0.8359(3) 0.3372(3)
C75_3 C -0.0000(4) 0.9658(3) 0.2426(3)
C76_2 C 0.3112(4) 0.7306(3) 0.5622(4)
H55_2 H 0.3540 0.7363 0.5923
C77_2 C 0.3921(4) 0.6716(3) 0.4815(4)
C78_2 C 0.2626(5) 0.7060(3) 0.2702(4)
H56_2 H 0.3153 0.7044 0.2771
C79_2 C 0.1000(5) 0.7101(3) 0.2506(3)
H57_2 H 0.0472 0.7108 0.2437
C82_2 C 0.0968(4) 0.8619(3) 0.4690(3)
H59_2 H 0.1477 0.8471 0.4808
H60_2 H 0.0822 0.8868 0.5074
C83_2 C 0.0438(4) 0.8125(3) 0.4611(3)
O20_2 O 0.5516(3) 0.8275(2) 0.1444(3)
C84_2 C 0.2419(5) 0.7509(3) 0.5813(4)
H61_2 H 0.2387 0.7711 0.6233
C89_2 C 0.0924(5) 0.9837(3) 0.0822(4)
C95_2 C 0.1428(5) 0.6636(3) 0.2285(4)
H69_2 H 0.1177 0.6318 0.2071
C97_2 C 0.1765(5) 0.8999(3) 0.1011(4)
H72_2 H 0.2163 0.8775 0.0853
C99_2 C 0.2217(6) 0.6622(3) 0.2368(4)
H74_2 H 0.2476 0.6304 0.2190
C100_2 C 0.1005(4) 0.7579(3) 0.5630(3)
H75_2 H 0.0831 0.7271 0.5934
H76_2 H 0.1054 0.7936 0.5907
C101_2 C 0.1492(5) 0.9480(3) 0.0614(4)
H77_2 H 0.1707 0.9560 0.0190
C102_2 C 0.3805(5) 0.8861(3) 0.1779(4)
H78_2 H 0.3718 0.8792 0.1300
C103_2 C 0.4644(4) 0.9693(3) 0.1478(4)
C105_2 C 0.4053(6) 0.9047(4) 0.3206(4)
H81_2 H 0.4133 0.9121 0.3684
C108_2 C 0.3455(5) 0.8515(4) 0.2263(4)
H83_2 H 0.3131 0.8215 0.2102
C111_2 C 0.4424(6) 0.9390(4) 0.2707(4)
H86_2 H 0.4770 0.9678 0.2860
C119_2 C 0.1400(4) 0.7561(3) 0.2839(3)
C120_2 C 0.0694(4) 0.9583(3) 0.4144(3)
H93_2 H 0.0819 0.9830 0.3752
H94_2 H 0.0941 0.9745 0.4569
C121_2 C 0.1730(4) 0.8952(3) 0.3717(4)
H95_2 H 0.2137 0.8996 0.4078
H96_2 H 0.1773 0.9262 0.3373
C122_2 C 0.1446(4) 0.8854(3) 0.1635(3)
H97_2 H 0.1607 0.8526 0.1893
C124_2 C 0.1767(4) 0.7416(3) 0.5388(3)
O29_2 O 0.6345(3) 0.9214(2) 0.0800(3)
C126_2 C 0.1849(4) 0.7148(3) 0.4716(3)
H99_2 H 0.1429 0.7108 0.4401
C128_2 C 0.2540(4) 0.6954(3) 0.4543(3)
H100_2 H 0.2584 0.6772 0.4110
C129_2 C 0.3184(4) 0.7016(3) 0.4986(3)
C130_2 C 0.4281(4) 0.9304(3) 0.2011(4)
C131_2 C 0.3195(4) 0.8211(3) 0.3503(4)
H101_2 H 0.3497 0.7857 0.3575
H102_2 H 0.3195 0.8417 0.3949
Ni7_2 Ni 0.01784(5) 0.86096(3) 0.32466(4)
H115_2 H 0.578021 0.852307 0.181023
H116_2 H 0.582005 0.7915 0.137152
C73_2 C 0.8793(4) 0.0266(3) 0.1366(3)
C80_2 C 0.7487(4) 0.0513(3) 0.1089(3)
H58_2 H 0.7114 0.0801 0.1030
H64_2 H 0.9569 0.0177 0.3179
C125_2 C 0.8219(4) 0.0667(3) 0.1300(3)
H98_2 H 0.8327 0.1058 0.1401
C132_2 C 0.9579(4) 0.0466(3) 0.1614(4)
H103_2 H 0.9809 0.0672 0.1235
H104_2 H 0.9537 0.0740 0.2000
C67_2 C 0.6268(16) 0.8351(6) 0.4491(10)
H53_2 H 0.6084 0.8544 0.4876
C68_2 C 0.6522(14) 0.8684(5) 0.3906(11)
H54_2 H 0.6461 0.9090 0.3909
N17_2 N 0.9477(3) 0.9338(2) 0.3533(3)
N19_2 N 0.9927(3) 0.8063(2) 0.4074(3)
C75_4 C 1.0000(4) 0.9658(3) 0.2426(3)
N20_2 N 0.7893(4) 0.8612(3) 0.2599(4)
C81_2 C 0.8029(4) 0.8216(3) 0.2061(4)
C85_2 C 0.7879(4) 0.9506(3) 0.1010(4)
H62_2 H 0.7766 0.9116 0.0903
C86_2 C 0.9887(5) 0.7275(3) 0.4780(4)
C87_2 C 0.6833(5) 0.8446(4) 0.3375(5)
C88_2 C 0.8575(4) 0.8704(3) 0.2959(4)
C90_2 C 0.9447(4) 0.9797(3) 0.2971(3)
H65_2 H 0.8936 0.9818 0.2753
C91_2 C 0.9844(5) 0.9573(3) 0.4207(3)
H66_2 H 0.9717 0.9325 0.4597
H67_2 H 0.9659 0.9967 0.4292
C92_2 C 0.6491(4) 0.9753(3) 0.0757(4)
C93_2 C 0.8810(4) 0.8096(3) 0.2126(4)
C94_2 C 0.8621(4) 0.9673(3) 0.1217(4)
H68_2 H 0.9004 0.9392 0.1258
C96_2 C 0.7145(5) 0.8828(4) 0.2806(5)
H70_2 H 0.6789 0.8831 0.2399
H71_2 H 0.7199 0.9228 0.2977
C98_2 C 0.8994(5) 0.7243(4) 0.3780(5)
H73_2 H 0.8789 0.7406 0.3364
C104_2 C 0.8707(4) 0.9085(3) 0.3589(4)
H79_2 H 0.8327 0.9394 0.3593
H80_2 H 0.8683 0.8856 0.4017
C106_2 C 0.6296(6) 0.7774(4) 0.4482(5)
C107_2 C 0.9636(6) 0.6725(3) 0.5031(5)
H82_2 H 0.9858 0.6554 0.5436
C109_2 C 0.9120(5) 0.7715(3) 0.1648(4)
H84_2 H 0.9639 0.7633 0.1676
C110_2 C 0.8654(6) 0.7466(4) 0.1143(5)
H85_2 H 0.8859 0.7214 0.0820
C112_2 C 0.7549(6) 0.7956(4) 0.1541(5)
H87_2 H 0.7030 0.8036 0.1499
C113_2 C 0.8744(6) 0.6716(4) 0.4017(6)
H88_2 H 0.8359 0.6518 0.3760
C114_2 C 0.9066(7) 0.6463(4) 0.4657(6)
H89_2 H 0.8874 0.6109 0.4814
C115_2 C 0.6018(6) 0.7398(4) 0.5064(5)
C116_2 C 0.6620(10) 0.7540(5) 0.3948(8)
H90_2 H 0.6673 0.7134 0.3926
C117_2 C 0.6884(10) 0.7881(5) 0.3416(8)
H91_2 H 0.7119 0.7688 0.3057
C118_2 C 0.7887(7) 0.7578(5) 0.1098(6)
H92_2 H 0.7584 0.7388 0.0752
C123_2 C 0.7306(4) 0.9933(3) 0.0965(4)
N21_2 N 0.9136(3) 0.8406(2) 0.2687(3)
C127_2 C 0.9565(4) 0.7530(3) 0.4179(4)
O38_2 O 0.5859(6) 0.7641(3) 0.5628(4)
loop_
_geom_bond_atom_site_label_1
_geom_bond_atom_site_label_2
_geom_bond_site_symmetry_1
_geom_bond_site_symmetry_2
N1 O1 1_555 1_555
O2 N1 1_555 1_555
N1_2 O1_2 1_555 1_555
O2_2 N1_2 1_555 1_555
N1_3 O1_3 1_555 1_555
O2_3 N1_3 1_555 1_555
N1_4 O1_4 1_555 1_555
O2_4 N1_4 1_555 1_555
C76 H55 1_555 1_555
C84 C76 1_555 1_555
H61 C84 1_555 1_555
C100 N16 1_555 1_555
H75 C100 1_555 1_555
H76 C100 1_555 1_555
C124 C84 1_555 1_555
Ni12 O32 1_555 1_555
C100 C124 1_555 1_555
N12 C71 1_555 1_555
N13 C69 1_555 1_555
N14 C74 1_555 1_555
N15 C82 1_555 1_555
C69 C78 1_555 1_555
O16 C103 1_555 1_555
C70 C71 1_555 1_555
C71 C89 1_555 1_555
C72 C105 1_555 1_555
N18 C70 1_555 1_555
C74 N13 1_555 1_555
C75 N12 1_555 1_555
C77 C129 1_555 1_555
C78 H56 1_555 1_555
C79 H57 1_555 1_555
O19 Ni6 1_555 1_555
C82 H59 1_555 1_555
C83 C82 1_555 1_555
O20 Ni8 1_555 1_555
O21 C103 1_555 1_555
C89 H63 1_555 1_555
O25 Ni8 1_555 1_555
C95 C79 1_555 1_555
H69 C95 1_555 1_555
C97 H72 1_555 1_555
C99 C78 1_555 1_555
H74 C99 1_555 1_555
C101 C89 1_555 1_555
H77 C101 1_555 1_555
C102 H78 1_555 1_555
C103 C130 1_555 1_555
C105 H81 1_555 1_555
C108 C72 1_555 1_555
H83 C108 1_555 1_555
C111 C105 1_555 1_555
H86 C111 1_555 1_555
C119 N14 1_555 1_555
C120 N15 1_555 1_555
H93 C120 1_555 1_555
H94 C120 1_555 1_555
C121 N15 1_555 1_555
H95 C121 1_555 1_555
H96 C121 1_555 1_555
C122 C70 1_555 1_555
H97 C122 1_555 1_555
O29 Ni8 1_555 1_555
H99 C126 1_555 1_555
C128 C126 1_555 1_555
H100 C128 1_555 1_555
O34 Ni8 1_555 1_555
O35 C77 1_555 1_555
C130 C102 1_555 1_555
C131 N13 1_555 1_555
H101 C131 1_555 1_555
H102 C131 1_555 1_555
Ni6 O16 1_555 1_555
Ni7 N14 1_555 1_555
Ni8 O16 1_555 1_555
Ni17 O21 1_555 1_555
Ni18 O35 1_555 1_555
N15 Ni7 1_555 1_555
C69 C119 1_555 1_555
C72 C131 1_555 1_555
N18 C75 1_555 1_555
N18 Ni7 1_555 1_555
C74 C121 1_555 1_555
C79 C119 1_555 1_555
O19 Ni8 1_555 1_555
C95 C99 1_555 1_555
C97 C101 1_555 1_555
C97 C122 1_555 1_555
C102 C108 1_555 1_555
C111 C130 1_555 1_555
C128 C129 1_555 1_555
O20 H115 1_555 1_555
O20 H116 1_555 1_555
H82 C107 1_555 1_555
O38 C115 1_555 1_555
O9 Ni4 1_555 1_555
O10 Ni4 1_555 1_555
Ni4 O19 1_555 1_555
C67 H53 1_555 1_555
C68 C67 1_555 1_555
H54 C68 1_555 1_555
O17 Ni6 1_555 1_555
N17 C90 1_555 1_555
C73 C94 1_555 1_555
N20 C81 1_555 1_555
C80 H58 1_555 1_555
O18 Ni6 1_555 1_555
C81 C93 1_555 1_555
C85 H62 1_555 1_555
O22 Ni4 1_555 1_555
C87 C68 1_555 1_555
C88 N20 1_555 1_555
C90 C75_2 1_555 1_555
H64 C90 1_555 1_555
H65 C90 1_555 1_555
C91 N17 1_555 1_555
H66 C91 1_555 1_555
H67 C91 1_555 1_555
C92 C123 1_555 1_555
C93 C109 1_555 1_555
C94 C85 1_555 1_555
H68 C94 1_555 1_555
C96 N20 1_555 1_555
H70 C96 1_555 1_555
H71 C96 1_555 1_555
C98 H73 1_555 1_555
O26 Ni17 1_555 1_555
C104 N17 1_555 1_555
H79 C104 1_555 1_555
H80 C104 1_555 1_555
C106 C67 1_555 1_555
C109 H84 1_555 1_555
O27 Ni17 1_555 1_555
C110 C109 1_555 1_555
H85 C110 1_555 1_555
C112 C81 1_555 1_555
H87 C112 1_555 1_555
C113 C98 1_555 1_555
H88 C113 1_555 1_555
H89 C114 1_555 1_555
C116 C106 1_555 1_555
H90 C116 1_555 1_555
C117 C87 1_555 1_555
H91 C117 1_555 1_555
C118 C110 1_555 1_555
H92 C118 1_555 1_555
C123 C80 1_555 1_555
N21 C88 1_555 1_555
C125 C73 1_555 1_555
H98 C125 1_555 1_555
C127 N19 1_555 1_555
O30 Ni6 1_555 1_555
O31 Ni6 1_555 1_555
O36 Ni4 1_555 1_555
O37 Ni17 1_555 1_555
H103 C132 1_555 1_555
H104 C132 1_555 1_555
Ni13 O17 1_555 1_555
Ni4 O31 1_555 1_555
C73 C132 1_555 1_555
C80 C125 1_555 1_555
O18 Ni13 1_555 1_555
O18 Ni17 1_555 1_555
C85 C123 1_555 1_555
C86 C127 1_555 1_555
C87 C96 1_555 1_555
C88 C104 1_555 1_555
C92 O29 1_555 1_555
C92 O30 1_555 1_555
C93 N21 1_555 1_555
C98 C127 1_555 1_555
C112 C118 1_555 1_555
C113 C114 1_555 1_555
C116 C117 1_555 1_555
O30 Ni17 1_555 1_555
C1 H1 1_555 1_555
C2 C1 1_555 1_555
H2 C2 1_555 1_555
N7 C24 1_555 1_555
N10 C15 1_555 1_555
C15 C27 1_555 1_555
C19 H10 1_555 1_555
C21 C2 1_555 1_555
C22 N10 1_555 1_555
C24 C9 1_555 1_555
H13 C24 1_555 1_555
C25 N7 1_555 1_555
H14 C25 1_555 1_555
H15 C25 1_555 1_555
O8 C49 1_555 1_555
C26 C57 1_555 1_555
C27 C43 1_555 1_555
C28 C19 1_555 1_555
H16 C28 1_555 1_555
C30 N10 1_555 1_555
H18 C30 1_555 1_555
H19 C30 1_555 1_555
C32 H21 1_555 1_555
C38 N7 1_555 1_555
H27 C38 1_555 1_555
H28 C38 1_555 1_555
C40 C1 1_555 1_555
C41 C20 1_555 1_555
H30 C41 1_555 1_555
C43 H32 1_555 1_555
C44 C43 1_555 1_555
H33 C44 1_555 1_555
C46 C15 1_555 1_555
H35 C46 1_555 1_555
C47 C32 1_555 1_555
H36 C47 1_555 1_555
C48 C41 1_555 1_555
H37 C48 1_555 1_555
C49 C40 1_555 1_555
C50 C40 1_555 1_555
H38 C50 1_555 1_555
C51 C21 1_555 1_555
H39 C51 1_555 1_555
C52 C44 1_555 1_555
H40 C52 1_555 1_555
N11 C22 1_555 1_555
O11 C26 1_555 1_555
C61 N9 1_555 1_555
O15 C49 1_555 1_555
Ni13 O8 1_555 1_555
Ni10 O11 1_555 1_555
C19 C57 1_555 1_555
C20 C61 1_555 1_555
C21 C30 1_555 1_555
C22 C38 1_555 1_555
C27 N11 1_555 1_555
C32 C61 1_555 1_555
C46 C52 1_555 1_555
C47 C48 1_555 1_555
C50 C51 1_555 1_555
C14 H6 1_555 1_555
C59 C7 1_555 1_555
H46 C59 1_555 1_555
H51 C66 1_555 1_555
H52 C66 1_555 1_555
Ni5_4 O12 1_555 1_555
Ni18 O12 1_555 1_555
C7 C66 1_555 1_555
C14 C59 1_555 1_555
O5 Ni5 1_555 1_555
O9_2 Ni4_2 1_555 1_555
O10_2 Ni4_2 1_555 1_555
Ni4_2 O5 1_555 1_555
O22_2 Ni4_2 1_555 1_555
O31_2 Ni5 1_555 1_555
O36_2 Ni4_2 1_555 1_555
Ni4_2 O31_2 1_555 1_555
N2 C5 1_555 1_555
N3 C3 1_555 1_555
N4 C8 1_555 1_555
N5 C16 1_555 1_555
C3 C12 1_555 1_555
O4 C37 1_555 1_555
C4 C5 1_555 1_555
C5 C23 1_555 1_555
N6 C17 1_555 1_555
C6 C39 1_555 1_555
N8 C4 1_555 1_555
C8 N3 1_555 1_555
C9_2 N2 1_555 1_555
C10 H3 1_555 1_555
C11 C63 1_555 1_555
C12 H4 1_555 1_555
C13 H5 1_555 1_555
C16 H7 1_555 1_555
H8 C16 1_555 1_555
C17 C16 1_555 1_555
O6 Ni10 1_555 1_555
C18 C10 1_555 1_555
H9 C18 1_555 1_555
C29 C13 1_555 1_555
H17 C29 1_555 1_555
C31 H20 1_555 1_555
C33 C12 1_555 1_555
H22 C33 1_555 1_555
C34 N6 1_555 1_555
H23 C34 1_555 1_555
H24 C34 1_555 1_555
C35 C23 1_555 1_555
H25 C35 1_555 1_555
C36 H26 1_555 1_555
C37 C64 1_555 1_555
C39 H29 1_555 1_555
C42 C6 1_555 1_555
H31 C42 1_555 1_555
C45 C39 1_555 1_555
H34 C45 1_555 1_555
C53 N4 1_555 1_555
C54 N5 1_555 1_555
H41 C54 1_555 1_555
H42 C54 1_555 1_555
C55 N5 1_555 1_555
H43 C55 1_555 1_555
H44 C55 1_555 1_555
C56 C4 1_555 1_555
H45 C56 1_555 1_555
C58 C18 1_555 1_555
C60 C58 1_555 1_555
H47 C60 1_555 1_555
C62 C60 1_555 1_555
H48 C62 1_555 1_555
C63 C10 1_555 1_555
O13 C11 1_555 1_555
O37 C11 1_555 1_555
C64 C36 1_555 1_555
C65 N3 1_555 1_555
H49 C65 1_555 1_555
H50 C65 1_555 1_555
Ni5_2 O4 1_555 1_555
Ni2 N4 1_555 1_555
Ni10 O4 1_555 1_555
O33 Ni10 1_555 1_555
Ni13 O13 1_555 1_555
N5 Ni2 1_555 1_555
C3 C53 1_555 1_555
C6 C65 1_555 1_555
N8 C9_2 1_555 1_555
N8 Ni2 1_555 1_555
C8 C55 1_555 1_555
C13 C53 1_555 1_555
C29 C33 1_555 1_555
C31 C35 1_555 1_555
C31 C56 1_555 1_555
C34 C58 1_555 1_555
C36 C42 1_555 1_555
C45 C64 1_555 1_555
C62 C63 1_555 1_555
O6 H109 1_555 1_555
O6 H110 1_555 1_555
O17_2 Ni5_3 1_555 1_555
Ni12 O17_2 1_555 1_555
O18_2 Ni5_4 1_555 1_555
O26_2 Ni18 1_555 1_555
O27_2 Ni18 1_555 1_555
Ni18 O7 1_555 1_555
O18_2 Ni18 1_555 1_555
C1_2 H1_2 1_555 1_555
C2_2 C1_2 1_555 1_555
H2_2 C2_2 1_555 1_555
N7_2 C24_2 1_555 1_555
C7_2 C28_2 1_555 1_555
N10_2 C15_2 1_555 1_555
C14_2 H6_2 1_555 1_555
C15_2 C27_2 1_555 1_555
C19_2 H10_2 1_555 1_555
C21_2 C2_2 1_555 1_555
C22_2 N10_2 1_555 1_555
C24_2 C9_3 1_555 1_555
H12_2 C24_2 1_555 1_555
H13_2 C24_2 1_555 1_555
C25_2 N7_2 1_555 1_555
H14_2 C25_2 1_555 1_555
H15_2 C25_2 1_555 1_555
C26_2 C57_2 1_555 1_555
C27_2 C43_2 1_555 1_555
C28_2 C19_2 1_555 1_555
H16_2 C28_2 1_555 1_555
C30_2 N10_2 1_555 1_555
H18_2 C30_2 1_555 1_555
H19_2 C30_2 1_555 1_555
C32_2 H21_2 1_555 1_555
C38_2 N7_2 1_555 1_555
H27_2 C38_2 1_555 1_555
H28_2 C38_2 1_555 1_555
C40_2 C1_2 1_555 1_555
C43_2 H32_2 1_555 1_555
C44_2 C43_2 1_555 1_555
H33_2 C44_2 1_555 1_555
C46_2 C15_2 1_555 1_555
H35_2 C46_2 1_555 1_555
C47_2 C32_2 1_555 1_555
H36_2 C47_2 1_555 1_555
H37_2 C48_2 1_555 1_555
C50_2 C40_2 1_555 1_555
H38_2 C50_2 1_555 1_555
C51_2 C21_2 1_555 1_555
H39_2 C51_2 1_555 1_555
C52_2 C44_2 1_555 1_555
H40_2 C52_2 1_555 1_555
C57_2 C14_2 1_555 1_555
N11_2 C22_2 1_555 1_555
C59_2 C7_2 1_555 1_555
H46_2 C59_2 1_555 1_555
O11_2 C26_2 1_555 1_555
C61_2 N9_2 1_555 1_555
O31 C26_2 1_555 1_555
H51_2 C66_2 1_555 1_555
H52_2 C66_2 1_555 1_555
Ni13 O11_2 1_555 1_555
C7_2 C66_2 1_555 1_555
C14_2 C59_2 1_555 1_555
C19_2 C57_2 1_555 1_555
C20_2 C61_2 1_555 1_555
C21_2 C30_2 1_555 1_555
C22_2 C38_2 1_555 1_555
C27_2 N11_2 1_555 1_555
C32_2 C61_2 1_555 1_555
C46_2 C52_2 1_555 1_555
C47_2 C48_2 1_555 1_555
C50_2 C51_2 1_555 1_555
H30_2 C41_2 1_555 1_555
O15_2 C49_2 1_555 1_555
N2_2 C5_2 1_555 1_555
N3_2 C3_2 1_555 1_555
N4_2 C8_2 1_555 1_555
N5_2 C16_2 1_555 1_555
C3_2 C12_2 1_555 1_555
O17 C37_2 1_555 1_555
C4_2 C5_2 1_555 1_555
C5_2 C23_2 1_555 1_555
C6_2 C39_2 1_555 1_555
N8_2 C4_2 1_555 1_555
C8_2 N3_2 1_555 1_555
C9_4 N2_2 1_555 1_555
C11_2 C63_2 1_555 1_555
C12_2 H4_2 1_555 1_555
C13_2 H5_2 1_555 1_555
C16_2 H7_2 1_555 1_555
C17_2 C16_2 1_555 1_555
O6_2 Ni13 1_555 1_555
O22 C37_2 1_555 1_555
C23_2 H11_2 1_555 1_555
C29_2 C13_2 1_555 1_555
H17_2 C29_2 1_555 1_555
C31_2 H20_2 1_555 1_555
C33_2 C12_2 1_555 1_555
H22_2 C33_2 1_555 1_555
C35_2 C23_2 1_555 1_555
H25_2 C35_2 1_555 1_555
C36_2 H26_2 1_555 1_555
C37_2 C64_2 1_555 1_555
C39_2 H29_2 1_555 1_555
C42_2 C6_2 1_555 1_555
H31_2 C42_2 1_555 1_555
C45_2 C39_2 1_555 1_555
H34_2 C45_2 1_555 1_555
C53_2 N4_2 1_555 1_555
C54_2 N5_2 1_555 1_555
H41_2 C54_2 1_555 1_555
H42_2 C54_2 1_555 1_555
C55_2 N5_2 1_555 1_555
H43_2 C55_2 1_555 1_555
H44_2 C55_2 1_555 1_555
C56_2 C4_2 1_555 1_555
H45_2 C56_2 1_555 1_555
H47_2 C60_2 1_555 1_555
C62_2 C60_2 1_555 1_555
H48_2 C62_2 1_555 1_555
O36_2 C11_2 1_555 1_555
C64_2 C36_2 1_555 1_555
C65_2 N3_2 1_555 1_555
H49_2 C65_2 1_555 1_555
H50_2 C65_2 1_555 1_555
Ni2_2 N4_2 1_555 1_555
N5_2 Ni2_2 1_555 1_555
C3_2 C53_2 1_555 1_555
C6_2 C65_2 1_555 1_555
N8_2 C9_4 1_555 1_555
N8_2 Ni2_2 1_555 1_555
C8_2 C55_2 1_555 1_555
C13_2 C53_2 1_555 1_555
C29_2 C33_2 1_555 1_555
C31_2 C35_2 1_555 1_555
C31_2 C56_2 1_555 1_555
C36_2 C42_2 1_555 1_555
C45_2 C64_2 1_555 1_555
C62_2 C63_2 1_555 1_555
O6_2 H109_2 1_555 1_555
O6_2 H110_2 1_555 1_555
C10_2 H3_2 1_555 1_555
C18_2 C10_2 1_555 1_555
H9_2 C18_2 1_555 1_555
C34_2 N6_2 1_555 1_555
H23_2 C34_2 1_555 1_555
H24_2 C34_2 1_555 1_555
C58_2 C18_2 1_555 1_555
C34_2 C58_2 1_555 1_555
N12_2 C71_2 1_555 1_555
N13_2 C69_2 1_555 1_555
N14_2 C74_2 1_555 1_555
N15_2 C82_2 1_555 1_555
C69_2 C78_2 1_555 1_555
O17_2 C103_2 1_555 1_555
C70_2 C71_2 1_555 1_555
C71_2 C89_2 1_555 1_555
N16_2 C83_2 1_555 1_555
C72_2 C105_2 1_555 1_555
N18_2 C70_2 1_555 1_555
C74_2 N13_2 1_555 1_555
C75_3 N12_2 1_555 1_555
C76_2 H55_2 1_555 1_555
C77_2 C129_2 1_555 1_555
C78_2 H56_2 1_555 1_555
C79_2 H57_2 1_555 1_555
C82_2 H59_2 1_555 1_555
H60_2 C82_2 1_555 1_555
C83_2 C82_2 1_555 1_555
O20_2 Ni12 1_555 1_555
C84_2 C76_2 1_555 1_555
H61_2 C84_2 1_555 1_555
C95_2 C79_2 1_555 1_555
H69_2 C95_2 1_555 1_555
C97_2 H72_2 1_555 1_555
C99_2 C78_2 1_555 1_555
H74_2 C99_2 1_555 1_555
C100_2 N16_2 1_555 1_555
H75_2 C100_2 1_555 1_555
H76_2 C100_2 1_555 1_555
C101_2 C89_2 1_555 1_555
H77_2 C101_2 1_555 1_555
C102_2 H78_2 1_555 1_555
C103_2 C130_2 1_555 1_555
C105_2 H81_2 1_555 1_555
C108_2 C72_2 1_555 1_555
H83_2 C108_2 1_555 1_555
C111_2 C105_2 1_555 1_555
H86_2 C111_2 1_555 1_555
C119_2 N14_2 1_555 1_555
C120_2 N15_2 1_555 1_555
H93_2 C120_2 1_555 1_555
H94_2 C120_2 1_555 1_555
C121_2 N15_2 1_555 1_555
H95_2 C121_2 1_555 1_555
H96_2 C121_2 1_555 1_555
C122_2 C70_2 1_555 1_555
H97_2 C122_2 1_555 1_555
C124_2 C84_2 1_555 1_555
O29_2 Ni12 1_555 1_555
C126_2 C124_2 1_555 1_555
H99_2 C126_2 1_555 1_555
C128_2 C126_2 1_555 1_555
H100_2 C128_2 1_555 1_555
C129_2 C76_2 1_555 1_555
O34 C77_2 1_555 1_555
O36 C77_2 1_555 1_555
C130_2 C102_2 1_555 1_555
C131_2 N13_2 1_555 1_555
H101_2 C131_2 1_555 1_555
H102_2 C131_2 1_555 1_555
Ni7_2 N14_2 1_555 1_555
N15_2 Ni7_2 1_555 1_555
C69_2 C119_2 1_555 1_555
C72_2 C131_2 1_555 1_555
N18_2 C75_3 1_555 1_555
N18_2 Ni7_2 1_555 1_555
C74_2 C121_2 1_555 1_555
C79_2 C119_2 1_555 1_555
C95_2 C99_2 1_555 1_555
C97_2 C101_2 1_555 1_555
C97_2 C122_2 1_555 1_555
C100_2 C124_2 1_555 1_555
C102_2 C108_2 1_555 1_555
C111_2 C130_2 1_555 1_555
C128_2 C129_2 1_555 1_555
O20_2 H115_2 1_555 1_555
O20_2 H116_2 1_555 1_555
C80_2 H58_2 1_555 1_555
C125_2 C73_2 1_555 1_555
H98_2 C125_2 1_555 1_555
H103_2 C132_2 1_555 1_555
H104_2 C132_2 1_555 1_555
C73_2 C132_2 1_555 1_555
C80_2 C125_2 1_555 1_555
C67_2 H53_2 1_555 1_555
C68_2 C67_2 1_555 1_555
H54_2 C68_2 1_555 1_555
N17_2 C90_2 1_555 1_555
N20_2 C81_2 1_555 1_555
C81_2 C93_2 1_555 1_555
C85_2 H62_2 1_555 1_555
C87_2 C68_2 1_555 1_555
C88_2 N20_2 1_555 1_555
C90_2 C75_4 1_555 1_555
H65_2 C90_2 1_555 1_555
C91_2 N17_2 1_555 1_555
H66_2 C91_2 1_555 1_555
H67_2 C91_2 1_555 1_555
O25 C115_2 1_555 1_555
C92_2 C123_2 1_555 1_555
C93_2 C109_2 1_555 1_555
C94_2 C85_2 1_555 1_555
H68_2 C94_2 1_555 1_555
C96_2 N20_2 1_555 1_555
H70_2 C96_2 1_555 1_555
H71_2 C96_2 1_555 1_555
C98_2 H73_2 1_555 1_555
C104_2 N17_2 1_555 1_555
H79_2 C104_2 1_555 1_555
H80_2 C104_2 1_555 1_555
C106_2 C67_2 1_555 1_555
C107_2 C86_2 1_555 1_555
H82_2 C107_2 1_555 1_555
C109_2 H84_2 1_555 1_555
C110_2 C109_2 1_555 1_555
H85_2 C110_2 1_555 1_555
C112_2 C81_2 1_555 1_555
H87_2 C112_2 1_555 1_555
C113_2 C98_2 1_555 1_555
H88_2 C113_2 1_555 1_555
C114_2 C107_2 1_555 1_555
H89_2 C114_2 1_555 1_555
C115_2 C106_2 1_555 1_555
C116_2 C106_2 1_555 1_555
H90_2 C116_2 1_555 1_555
C117_2 C87_2 1_555 1_555
H91_2 C117_2 1_555 1_555
C118_2 C110_2 1_555 1_555
H92_2 C118_2 1_555 1_555
N21_2 C88_2 1_555 1_555
C127_2 N19_2 1_555 1_555
O38_2 C115_2 1_555 1_555
C85_2 C123_2 1_555 1_555
C86_2 C127_2 1_555 1_555
C87_2 C96_2 1_555 1_555
C88_2 C104_2 1_555 1_555
C92_2 O29_2 1_555 1_555
C93_2 N21_2 1_555 1_555
C98_2 C127_2 1_555 1_555
C112_2 C118_2 1_555 1_555
C113_2 C114_2 1_555 1_555
C116_2 C117_2 1_555 1_555

#END
