
###############################################################################
#
# This file contains modified crystal structure data generated from the
# MOF subset of the Cambridge Structural Database (CSD) v543 
# hosted by the Cambridge Crystallographic Data Centre (CCDC).
#
# This work is licensed under the Creative Commons
# Attribution-NonCommercial-ShareAlike 4.0 International License.
# To view a copy of this license, visit
# http://creativecommons.org/licenses/by-nc-sa/4.0/
# or send a letter to
# Creative Commons, PO Box 1866, Mountain View, CA 94042, USA.
#
# CIF created using the CSD Python API on 29 September 2022
# The structure has been converted into the P1 space group
# The structure has a 3D framework
# The original CSD entry INEBOT01 is in the monoclinic crystal system
# The framework has been calculated to contain at least 10.0% void space
# The void calculation uses a probe of radius 1.32A, grid spacing 0.4
# The framework is charged, counterions have been retained in the structure
# H atom positions have been added when not included in the experimental data
# Generated hydrogen atom positions removed from atoms on special positions
#
###############################################################################

data_INEBOT01
_chemical_formula_moiety         '(C264 H248 N40 Ni14 O43 5+)n'
_symmetry_cell_setting           triclinic
_symmetry_space_group_name_H-M   'P 1'
_symmetry_Int_Tables_number      1
_space_group_name_Hall           'P 1'
loop_
_symmetry_equiv_pos_site_id
_symmetry_equiv_pos_as_xyz
1 x,y,z
_cell_length_a                   17.5910(2)
_cell_length_b                   22.7810(3)
_cell_length_c                   19.0580(2)
_cell_angle_alpha                90
_cell_angle_beta                 93.2250(10)
_cell_angle_gamma                90
_cell_volume                     7625.22
loop_
_atom_site_label
_atom_site_type_symbol
_atom_site_fract_x
_atom_site_fract_y
_atom_site_fract_z
C1 C 0.3737(10) 0.3349(4) 0.0517(6)
H1 H 0.3932 0.3547 0.0140
C2 C 0.3453(11) 0.3678(4) 0.1104(8)
H2 H 0.3484 0.4085 0.1089
N6 N 0.0526(2) 0.43400(16) 0.1467(2)
C7 C 0.1206(3) 0.52619(18) 0.3631(2)
N8 N 0.0074(2) 0.30660(17) 0.0924(2)
N9 N 0.2108(3) 0.3611(2) 0.2400(3)
C14 C 0.2512(3) 0.55124(19) 0.3910(2)
H6 H 0.2885 0.5800 0.3972
C15 C 0.1972(3) 0.3217(2) 0.2937(3)
C19 C 0.2122(3) 0.4507(2) 0.3984(3)
H10 H 0.2235 0.4117 0.4087
C20 C 0.0119(3) 0.2274(2) 0.0218(3)
C21 C 0.3168(3) 0.3447(3) 0.1632(3)
C22 C 0.1429(3) 0.3702(2) 0.2038(3)
C24 C 0.0538(3) 0.4795(2) 0.2025(2)
H12 H 0.1048 0.4823 0.2246
H13 H 0.0410 0.5173 0.1816
C25 C 0.0155(3) 0.4569(2) 0.0791(2)
H14 H 0.0281 0.4318 0.0404
H15 H 0.0341 0.4961 0.0700
O5 O 0.4002(2) 0.18680(17) 0.0027(2)
C26 C 0.3498(3) 0.4752(2) 0.4239(3)
C27 C 0.1189(3) 0.3101(2) 0.2872(3)
C28 C 0.1383(3) 0.4673(2) 0.3779(3)
H16 H 0.1001 0.4391 0.3741
C30 C 0.2849(3) 0.3826(3) 0.2203(4)
H18 H 0.3202 0.3826 0.2613
H19 H 0.2798 0.4227 0.2036
C32 C 0.1006(4) 0.2231(3) 0.1216(3)
H21 H 0.1208 0.2386 0.1638
C38 C 0.1289(3) 0.4082(2) 0.1406(3)
H27 H 0.1672 0.4388 0.1395
H28 H 0.1305 0.3851 0.0979
C40 C 0.3718(4) 0.2778(2) 0.0518(4)
C43 C 0.0874(3) 0.2712(2) 0.3352(3)
H32 H 0.0355 0.2631 0.3325
C44 C 0.1341(4) 0.2459(3) 0.3850(3)
H33 H 0.1139 0.2199 0.4167
C46 C 0.2456(4) 0.2957(3) 0.3454(4)
H35 H 0.2976 0.3037 0.3491
C47 C 0.1258(5) 0.1717(3) 0.0970(4)
H36 H 0.1654 0.1522 0.1216
C48 C 0.0933(5) 0.1472(3) 0.0351(4)
H37 H 0.1122 0.1116 0.0197
C50 C 0.3376(8) 0.2548(3) 0.1047(6)
H38 H 0.3297 0.2145 0.1051
C51 C 0.3126(8) 0.2880(4) 0.1603(6)
H39 H 0.2917 0.2683 0.1974
C52 C 0.2123(5) 0.2580(3) 0.3901(4)
H40 H 0.2426 0.2397 0.4252
C57 C 0.2697(3) 0.4934(2) 0.4034(3)
N10 N 0.0861(2) 0.34123(17) 0.2310(2)
C59 C 0.1783(3) 0.5671(2) 0.3697(2)
H46 H 0.1675 0.6062 0.3595
O8 O 0.3650(2) 0.42106(14) 0.4201(2)
C61 C 0.0434(3) 0.2526(2) 0.0822(3)
O9 O 0.39783(19) 0.51568(14) 0.44272(19)
C66 C 0.0416(3) 0.54650(18) 0.3387(3)
H51 H 0.0188 0.5669 0.3770
H52 H 0.0455 0.5741 0.3004
Ni5 Ni 0.5000 0.5000 0.5000
Ni10 Ni 0.46063(4) 0.37471(3) 0.45041(3)
Ni17 Ni 0.45885(4) 0.58480(3) 0.38079(4)
C41 C 0.0356(4) 0.1730(2) 0.9967(3)
H30 H 0.0132 0.1558 0.9563
C49 C 0.3982(4) 0.2405(3) 0.9934(4)
O12 O 0.4155(4) 0.2649(2) 0.9387(3)
Ni9 Ni 0.46063(4) 0.12529(3) 0.95041(3)
N1 N 0.9917(2) 0.49784(15) 0.31527(18)
N2 N 0.7580(2) 0.30462(15) 0.17088(18)
N3 N 0.8845(2) 0.30910(15) 0.18870(18)
N4 N 0.9028(2) 0.39780(15) 0.09654(18)
C3 C 0.7803(3) 0.25393(19) 0.2064(2)
O1 O 0.53001(19) 0.45006(13) 0.41364(16)
C4 C 0.9124(3) 0.42187(18) 0.3135(2)
C5 C 0.9372(3) 0.47012(19) 0.3518(2)
C6 C 0.6430(3) 0.3599(2) 0.2033(2)
N7 N 0.9530(2) 0.41986(15) 0.25259(18)
C8 C 0.8225(3) 0.33556(19) 0.1627(2)
C9 C 0.9993(3) 0.46553(19) 0.2565(2)
C11 C 0.6080(3) 0.17146(19) 0.0197(3)
C12 C 0.7381(3) 0.2062(2) 0.2297(2)
H4 H 0.6853 0.2047 0.2233
C13 C 0.8998(3) 0.20950(19) 0.2489(2)
H5 H 0.9526 0.2097 0.2550
O2 O 0.4696(2) 0.42195(13) 0.53940(16)
C16 C 0.9030(3) 0.3621(2) 0.0312(2)
H7 H 0.8521 0.3474 0.0198
C17 C 0.9568(3) 0.31201(19) 0.0393(2)
O3 O 0.4483(2) 0.32748(16) 0.3554(2)
O4 O 0.5121(3) 0.51872(17) 0.33069(19)
C23 C 0.9071(3) 0.4838(2) 0.4179(3)
H11 H 0.9256 0.5150 0.4454
C29 C 0.8570(4) 0.1633(2) 0.2714(3)
H17 H 0.8819 0.1318 0.2934
C31 C 0.8231(3) 0.4002(2) 0.3989(3)
H20 H 0.7837 0.3776 0.4151
C33 C 0.7792(4) 0.1619(2) 0.2626(3)
H22 H 0.7533 0.1298 0.2795
C35 C 0.8502(4) 0.4490(2) 0.4382(3)
H25 H 0.8278 0.4576 0.4800
C36 C 0.6195(3) 0.3859(2) 0.3220(3)
H26 H 0.6284 0.3793 0.3699
C37 C 0.5356(3) 0.4694(2) 0.3533(3)
O6 O 0.6083(3) 0.4069(2) 0.7098(2)
C39 C 0.5937(5) 0.4042(3) 0.1801(3)
H29 H 0.5833 0.4101 0.1322
C42 C 0.6541(3) 0.3506(3) 0.2735(3)
H31 H 0.6855 0.3200 0.2895
O7 O 0.4718(4) 0.3531(2) 0.6631(4)
C45 C 0.5593(5) 0.4404(3) 0.2295(3)
H34 H 0.5278 0.4711 0.2141
C53 C 0.8601(3) 0.25608(18) 0.2164(2)
C54 C 0.9302(3) 0.4584(2) 0.0850(2)
H41 H 0.9175 0.4833 0.1239
H42 H 0.9057 0.4743 0.0422
C55 C 0.8266(3) 0.39527(19) 0.1278(3)
H43 H 0.7860 0.3995 0.0915
H44 H 0.8219 0.4263 0.1621
C56 C 0.8550(3) 0.3858(2) 0.3363(2)
H45 H 0.8385 0.3531 0.3104
C60 C 0.8144(3) 0.2151(2) 0.0267(2)
H47 H 0.8566 0.2108 0.0579
C62 C 0.7458(3) 0.19563(18) 0.0457(2)
H48 H 0.7417 0.1779 0.0893
C63 C 0.6816(3) 0.20191(17) 0.0009(2)
O11 O 0.6043(2) 0.14930(14) 0.07855(17)
C64 C 0.5721(3) 0.4305(2) 0.2986(3)
C65 C 0.6800(3) 0.3210(2) 0.1497(3)
H49 H 0.6499 0.2856 0.1427
H50 H 0.6797 0.3415 0.1051
Ni2 Ni 0.98225(4) 0.36090(2) 0.17533(3)
Ni4 Ni 0.54115(4) 0.41520(3) 0.61921(4)
O14 O 0.46999(19) 0.54994(13) 0.58636(16)
O15 O 0.5304(2) 0.57805(13) 0.46060(16)
O19 O 0.4879(3) 0.48128(17) 0.66931(19)
O21 O 0.4002(2) 0.31320(17) 0.5027(2)
O23 O 0.3917(3) 0.5931(2) 0.2902(2)
O24 O 0.5282(4) 0.6469(2) 0.3369(4)
O28 O 0.60217(19) 0.48432(14) 0.55728(19)
O30 O 0.5563(2) 0.32982(14) 0.46948(19)
O33 O 0.6043(2) 0.35070(14) 0.57855(17)
O34 O 0.3957(2) 0.64930(14) 0.42145(17)
Ni13 Ni 0.53937(4) 0.62529(3) 0.54959(3)
Ni15 Ni 0.54115(4) 0.08480(3) 0.11921(4)
H109 H 0.499336 0.316365 0.339989
H110 H 0.417886 0.291476 0.362596
N5 N 0.9563(2) 0.26698(17) 0.99454(19)
C10 C 0.6887(3) 0.2306(2) 0.9384(3)
H3 H 0.6458 0.2365 0.9083
H8 H 0.9174 0.3868 0.9926
C18 C 0.7580(4) 0.2505(2) 0.9196(3)
H9 H 0.7613 0.2708 0.8775
C34 C 0.8996(3) 0.2579(2) 0.9369(3)
H23 H 0.9171 0.2272 0.9064
H24 H 0.8944 0.2937 0.9095
C58 C 0.8234(3) 0.24108(19) 0.9621(2)
O10 O 0.5563(2) 0.17018(14) 0.96948(19)
O18 O 0.4879(3) 0.01872(17) 0.16931(19)
H63 H 0.0744 0.0150 0.0546
Ni6 Ni 0.5000 0.0000 0.0000
Ni6_2 Ni 0.5000 0.0000 1.0000
N11 N 0.0083(2) 0.99784(15) 0.18473(18)
N12 N 0.2420(2) 0.80462(15) 0.32912(18)
N13 N 0.1155(2) 0.80910(15) 0.31130(18)
N14 N 0.0972(2) 0.89780(15) 0.40346(18)
C69 C 0.2197(3) 0.75393(19) 0.2936(2)
O13 O 0.46999(19) 0.95006(13) 0.08636(16)
C70 C 0.0876(3) 0.92187(18) 0.1865(2)
C71 C 0.0628(3) 0.97012(19) 0.1482(2)
N15 N 0.0437(2) 0.76698(17) 0.50546(19)
C72 C 0.3570(3) 0.8599(2) 0.2967(2)
N17 N 0.0470(2) 0.91986(15) 0.24741(18)
C74 C 0.1775(3) 0.83556(19) 0.3373(2)
C75 C 0.0007(3) 0.96553(19) 0.2435(2)
C76 C 0.3113(3) 0.7306(2) 0.5616(3)
H55 H 0.3542 0.7365 0.5917
C77 C 0.3920(3) 0.67146(19) 0.4803(3)
C78 C 0.2619(3) 0.7062(2) 0.2703(2)
H56 H 0.3147 0.7047 0.2767
C79 C 0.1002(3) 0.70950(19) 0.2511(2)
H57 H 0.0474 0.7097 0.2450
C82 C 0.0970(3) 0.8621(2) 0.4688(2)
H59 H 0.1479 0.8474 0.4802
H60 H 0.0826 0.8868 0.5074
C83 C 0.0432(3) 0.81201(19) 0.4607(2)
O17 O 0.5517(2) 0.82748(16) 0.1446(2)
C84 C 0.2420(4) 0.7505(2) 0.5804(3)
H61 H 0.2387 0.7708 0.6225
C89 C 0.0929(3) 0.9838(2) 0.0821(3)
C95 C 0.1430(4) 0.6633(2) 0.2286(3)
H69 H 0.1181 0.6318 0.2066
C97 C 0.1769(3) 0.9002(2) 0.1011(3)
H72 H 0.2163 0.8776 0.0849
C99 C 0.2208(4) 0.6619(2) 0.2374(3)
H74 H 0.2467 0.6298 0.2205
C100 C 0.1004(3) 0.7579(2) 0.5631(3)
H75 H 0.0829 0.7272 0.5936
H76 H 0.1056 0.7937 0.5905
C101 C 0.1498(4) 0.9490(2) 0.0618(3)
H77 H 0.1722 0.9576 0.0200
C102 C 0.3805(3) 0.8859(2) 0.1780(3)
H78 H 0.3716 0.8793 0.1301
C103 C 0.4644(3) 0.9694(2) 0.1467(3)
C105 C 0.4063(5) 0.9042(3) 0.3199(3)
H81 H 0.4167 0.9101 0.3678
C108 C 0.3459(3) 0.8506(3) 0.2265(3)
H83 H 0.3145 0.8200 0.2105
C111 C 0.4407(5) 0.9404(3) 0.2705(3)
H86 H 0.4722 0.9711 0.2859
C119 C 0.1399(3) 0.75608(18) 0.2836(2)
C120 C 0.0698(3) 0.9584(2) 0.4150(2)
H93 H 0.0825 0.9833 0.3761
H94 H 0.0943 0.9743 0.4578
C121 C 0.1734(3) 0.89527(19) 0.3722(3)
H95 H 0.2140 0.8995 0.4085
H96 H 0.1781 0.9263 0.3379
C122 C 0.1450(3) 0.8858(2) 0.1637(2)
H97 H 0.1615 0.8531 0.1896
C124 C 0.1766(3) 0.74108(19) 0.5379(2)
O26 O 0.6350(2) 0.92106(14) 0.0799(2)
C126 C 0.1856(3) 0.7151(2) 0.4733(2)
H99 H 0.1434 0.7108 0.4421
C128 C 0.2542(3) 0.69563(18) 0.4543(2)
H100 H 0.2583 0.6779 0.4107
C129 C 0.3184(3) 0.70191(17) 0.4991(2)
O29 O 0.4437(2) 0.67018(14) 0.53052(19)
O31 O 0.4437(2) 0.82982(14) 0.03052(19)
C130 C 0.4279(3) 0.9305(2) 0.2014(3)
C131 C 0.3200(3) 0.8210(2) 0.3503(3)
H101 H 0.3501 0.7856 0.3573
H102 H 0.3203 0.8415 0.3949
Ni6_3 Ni 0.5000 1.0000 0.0000
Ni7 Ni 0.01775(4) 0.86090(2) 0.32467(3)
Ni11 Ni 0.53937(4) 0.87471(3) 0.04959(3)
H115 H 0.500664 0.816365 0.160011
H116 H 0.582114 0.791476 0.137404
O16 O 0.5304(2) 0.92195(13) 0.96060(16)
O22 O 0.5998(2) 0.81320(17) 0.9973(2)
Ni6_4 Ni 0.5000 1.0000 1.0000
C73 C 0.8794(3) 0.02619(18) 0.1369(2)
C80 C 0.7488(3) 0.05124(19) 0.1090(2)
H58 H 0.7115 0.0800 0.1028
O15_2 O 0.4696(2) 0.07805(13) 0.03940(16)
H65 H 0.9590 0.0173 0.3184
O23_2 O 0.6083(3) 0.0931(2) 0.2098(2)
O24_2 O 0.4718(4) 0.1469(2) 0.1631(4)
C125 C 0.8217(3) 0.0671(2) 0.1303(2)
H98 H 0.8325 0.1062 0.1405
O27 O 0.60217(19) 0.01568(14) 0.05728(19)
C132 C 0.9584(3) 0.04650(18) 0.1613(3)
H103 H 0.9812 0.0669 0.1230
H104 H 0.9545 0.0741 0.1996
O14_2 O 0.53001(19) 0.04994(13) 0.91364(16)
C67 C 0.6263(10) 0.8349(4) 0.4483(6)
H53 H 0.6068 0.8547 0.4860
C68 C 0.6547(11) 0.8678(4) 0.3896(8)
H54 H 0.6516 0.9085 0.3911
N16 N 0.9474(2) 0.93400(16) 0.3533(2)
N18 N 0.9926(2) 0.80660(17) 0.4076(2)
N19 N 0.7892(3) 0.8611(2) 0.2600(3)
C81 C 0.8028(3) 0.8217(2) 0.2063(3)
C85 C 0.7878(3) 0.9507(2) 0.1016(3)
H62 H 0.7765 0.9117 0.0913
C86 C 0.9881(3) 0.7274(2) 0.4782(3)
C87 C 0.6832(3) 0.8447(3) 0.3368(3)
C88 C 0.8571(3) 0.8702(2) 0.2962(3)
C90 C 0.9462(3) 0.9795(2) 0.2975(2)
H64 H 0.8952 0.9823 0.2754
C91 C 0.9845(3) 0.9569(2) 0.4209(2)
H66 H 0.9719 0.9318 0.4596
H67 H 0.9659 0.9961 0.4300
O20 O 0.5998(2) 0.68680(17) 0.4973(2)
C92 C 0.6502(3) 0.9752(2) 0.0761(3)
C93 C 0.8811(3) 0.8101(2) 0.2128(3)
C94 C 0.8617(3) 0.9673(2) 0.1221(3)
H68 H 0.8999 0.9391 0.1259
C96 C 0.7151(3) 0.8826(3) 0.2797(4)
H70 H 0.6798 0.8826 0.2387
H71 H 0.7202 0.9227 0.2964
C98 C 0.8994(4) 0.7231(3) 0.3784(3)
H73 H 0.8792 0.7386 0.3362
C104 C 0.8711(3) 0.9082(2) 0.3594(3)
H79 H 0.8328 0.9388 0.3605
H80 H 0.8695 0.8851 0.4021
C106 C 0.6282(4) 0.7778(2) 0.4482(4)
C107 C 0.9644(4) 0.6730(2) 0.5033(3)
H82 H 0.9868 0.6558 0.5437
C109 C 0.9126(3) 0.7712(2) 0.1648(3)
H84 H 0.9645 0.7631 0.1675
C110 C 0.8659(4) 0.7459(3) 0.1150(3)
H85 H 0.8861 0.7199 0.0833
C112 C 0.7544(4) 0.7957(3) 0.1546(4)
H87 H 0.7024 0.8037 0.1509
C113 C 0.8742(5) 0.6717(3) 0.4030(4)
H88 H 0.8346 0.6522 0.3784
C114 C 0.9067(5) 0.6472(3) 0.4649(4)
H89 H 0.8878 0.6116 0.4803
C115 C 0.6018(4) 0.7405(3) 0.5066(4)
C116 C 0.6624(8) 0.7548(3) 0.3953(6)
H90 H 0.6703 0.7145 0.3949
C117 C 0.6874(8) 0.7880(4) 0.3397(6)
H91 H 0.7083 0.7683 0.3026
C118 C 0.7877(5) 0.7580(3) 0.1099(4)
H92 H 0.7574 0.7397 0.0748
C123 C 0.7303(3) 0.9934(2) 0.0966(3)
N20 N 0.9139(2) 0.84123(17) 0.2690(2)
C127 C 0.9566(3) 0.7526(2) 0.4178(3)
O35 O 0.5845(4) 0.7649(2) 0.5613(3)
O6_2 O 0.3917(3) 0.9069(2) 0.7902(2)
O7_2 O 0.5282(4) 0.8531(2) 0.8369(4)
Ni4_2 Ni 0.45885(4) 0.91520(3) 0.88079(4)
O19_2 O 0.5121(3) 0.98128(17) 0.83069(19)
O28_2 O 0.39783(19) 0.98432(14) 0.94272(19)
O33_2 O 0.3957(2) 0.85070(14) 0.92145(17)
N15_2 N 0.0437(2) 0.73302(17) 0.00546(19)
C76_2 C 0.3113(3) 0.7694(2) 0.0616(3)
H55_2 H 0.3542 0.7635 0.0917
H60_2 H 0.0826 0.6132 0.0074
C84_2 C 0.2420(4) 0.7495(2) 0.0804(3)
H61_2 H 0.2387 0.7292 0.1225
C100_2 C 0.1004(3) 0.7421(2) 0.0631(3)
H75_2 H 0.0829 0.7728 0.0936
H76_2 H 0.1056 0.7063 0.0905
C124_2 C 0.1766(3) 0.75892(19) 0.0379(2)
N11_2 N 0.0083(2) 0.50216(15) 0.68473(18)
N12_2 N 0.2420(2) 0.69538(15) 0.82912(18)
N13_2 N 0.1155(2) 0.69090(15) 0.81130(18)
N14_2 N 0.0972(2) 0.60220(15) 0.90346(18)
C69_2 C 0.2197(3) 0.74607(19) 0.7936(2)
C70_2 C 0.0876(3) 0.57813(18) 0.6865(2)
C71_2 C 0.0628(3) 0.52988(19) 0.6482(2)
C72_2 C 0.3570(3) 0.6401(2) 0.7967(2)
N17_2 N 0.0470(2) 0.58014(15) 0.74741(18)
C74_2 C 0.1775(3) 0.66444(19) 0.8373(2)
C75_2 C 0.0007(3) 0.53447(19) 0.7435(2)
C77_2 C 0.3920(3) 0.82854(19) 0.9803(3)
C78_2 C 0.2619(3) 0.7938(2) 0.7703(2)
H56_2 H 0.3147 0.7953 0.7767
C79_2 C 0.1002(3) 0.79050(19) 0.7511(2)
H57_2 H 0.0474 0.7903 0.7450
C82_2 C 0.0970(3) 0.6379(2) 0.9688(2)
H59_2 H 0.1479 0.6526 0.9802
C83_2 C 0.0432(3) 0.68799(19) 0.9607(2)
O17_2 O 0.5517(2) 0.67252(16) 0.6446(2)
C89_2 C 0.0929(3) 0.5162(2) 0.5821(3)
H63_2 H 0.0744 0.4850 0.5546
C95_2 C 0.1430(4) 0.8367(2) 0.7286(3)
H69_2 H 0.1181 0.8682 0.7066
C97_2 C 0.1769(3) 0.5998(2) 0.6011(3)
H72_2 H 0.2163 0.6224 0.5849
C99_2 C 0.2208(4) 0.8381(2) 0.7374(3)
H74_2 H 0.2467 0.8702 0.7205
C101_2 C 0.1498(4) 0.5510(2) 0.5618(3)
H77_2 H 0.1722 0.5424 0.5200
C102_2 C 0.3805(3) 0.6141(2) 0.6780(3)
H78_2 H 0.3716 0.6207 0.6301
C103_2 C 0.4644(3) 0.5306(2) 0.6467(3)
C105_2 C 0.4063(5) 0.5958(3) 0.8199(3)
H81_2 H 0.4167 0.5899 0.8678
C108_2 C 0.3459(3) 0.6494(3) 0.7265(3)
H83_2 H 0.3145 0.6800 0.7105
C111_2 C 0.4407(5) 0.5596(3) 0.7705(3)
H86_2 H 0.4722 0.5289 0.7859
C119_2 C 0.1399(3) 0.74392(18) 0.7836(2)
C120_2 C 0.0698(3) 0.5416(2) 0.9150(2)
H93_2 H 0.0825 0.5167 0.8761
H94_2 H 0.0943 0.5257 0.9578
C121_2 C 0.1734(3) 0.60473(19) 0.8722(3)
H95_2 H 0.2140 0.6005 0.9085
H96_2 H 0.1781 0.5737 0.8379
C122_2 C 0.1450(3) 0.6142(2) 0.6637(2)
H97_2 H 0.1615 0.6469 0.6896
O26_2 O 0.6350(2) 0.57894(14) 0.5799(2)
C126_2 C 0.1856(3) 0.7849(2) 0.9733(2)
H99_2 H 0.1434 0.7892 0.9421
C128_2 C 0.2542(3) 0.80437(18) 0.9543(2)
H100_2 H 0.2583 0.8221 0.9107
C129_2 C 0.3184(3) 0.79809(17) 0.9991(2)
C130_2 C 0.4279(3) 0.5695(2) 0.7014(3)
C131_2 C 0.3200(3) 0.6790(2) 0.8503(3)
H101_2 H 0.3501 0.7144 0.8573
H102_2 H 0.3203 0.6585 0.8949
Ni7_2 Ni 0.01775(4) 0.63910(2) 0.82467(3)
H115_2 H 0.500664 0.683635 0.660011
H116_2 H 0.582114 0.708524 0.637404
C107_2 C 0.9644(4) 0.8270(2) 0.0033(3)
H82_2 H 0.9868 0.8442 0.0437
C115_2 C 0.6018(4) 0.7595(3) 0.0066(4)
O35_2 O 0.5845(4) 0.7351(2) 0.0613(3)
C67_2 C 0.6263(10) 0.6651(4) 0.9483(6)
H53_2 H 0.6068 0.6453 0.9860
C68_2 C 0.6547(11) 0.6322(4) 0.8896(8)
H54_2 H 0.6516 0.5915 0.8911
N16_2 N 0.9474(2) 0.56600(16) 0.8533(2)
C73_2 C 0.8794(3) 0.47381(18) 0.6369(2)
N18_2 N 0.9926(2) 0.69340(17) 0.9076(2)
N19_2 N 0.7892(3) 0.6389(2) 0.7600(3)
C80_2 C 0.7488(3) 0.44876(19) 0.6090(2)
H58_2 H 0.7115 0.4200 0.6028
C81_2 C 0.8028(3) 0.6783(2) 0.7063(3)
C85_2 C 0.7878(3) 0.5493(2) 0.6016(3)
H62_2 H 0.7765 0.5883 0.5913
C86_2 C 0.9881(3) 0.7726(2) 0.9782(3)
C87_2 C 0.6832(3) 0.6553(3) 0.8368(3)
C88_2 C 0.8571(3) 0.6298(2) 0.7962(3)
C90_2 C 0.9462(3) 0.5205(2) 0.7975(2)
H64_2 H 0.8952 0.5177 0.7754
H65_2 H 0.9590 0.4827 0.8184
C91_2 C 0.9845(3) 0.5431(2) 0.9209(2)
H66_2 H 0.9719 0.5682 0.9596
H67_2 H 0.9659 0.5039 0.9300
C92_2 C 0.6502(3) 0.5248(2) 0.5761(3)
C93_2 C 0.8811(3) 0.6899(2) 0.7128(3)
C94_2 C 0.8617(3) 0.5327(2) 0.6221(3)
H68_2 H 0.8999 0.5609 0.6259
C96_2 C 0.7151(3) 0.6174(3) 0.7797(4)
H70_2 H 0.6798 0.6174 0.7387
H71_2 H 0.7202 0.5773 0.7964
C98_2 C 0.8994(4) 0.7769(3) 0.8784(3)
H73_2 H 0.8792 0.7614 0.8362
C104_2 C 0.8711(3) 0.5918(2) 0.8594(3)
H79_2 H 0.8328 0.5612 0.8605
H80_2 H 0.8695 0.6149 0.9021
C106_2 C 0.6282(4) 0.7222(2) 0.9482(4)
C109_2 C 0.9126(3) 0.7288(2) 0.6648(3)
H84_2 H 0.9645 0.7369 0.6675
C110_2 C 0.8659(4) 0.7541(3) 0.6150(3)
H85_2 H 0.8861 0.7801 0.5833
C112_2 C 0.7544(4) 0.7043(3) 0.6546(4)
H87_2 H 0.7024 0.6963 0.6509
C113_2 C 0.8742(5) 0.8283(3) 0.9030(4)
H88_2 H 0.8346 0.8478 0.8784
C114_2 C 0.9067(5) 0.8528(3) 0.9649(4)
H89_2 H 0.8878 0.8884 0.9803
C116_2 C 0.6624(8) 0.7452(3) 0.8953(6)
H90_2 H 0.6703 0.7855 0.8949
C117_2 C 0.6874(8) 0.7120(4) 0.8397(6)
H91_2 H 0.7083 0.7317 0.8026
C118_2 C 0.7877(5) 0.7420(3) 0.6099(4)
H92_2 H 0.7574 0.7603 0.5748
C123_2 C 0.7303(3) 0.5066(2) 0.5966(3)
N20_2 N 0.9139(2) 0.65877(17) 0.7690(2)
C125_2 C 0.8217(3) 0.4329(2) 0.6303(2)
H98_2 H 0.8325 0.3938 0.6405
C127_2 C 0.9566(3) 0.7474(2) 0.9178(3)
C132_2 C 0.9584(3) 0.45350(18) 0.6613(3)
H103_2 H 0.9812 0.4331 0.6230
H104_2 H 0.9545 0.4259 0.6996
C1_2 C 0.3737(10) 0.1651(4) 0.5517(6)
H1_2 H 0.3932 0.1453 0.5140
C2_2 C 0.3453(11) 0.1322(4) 0.6104(8)
H2_2 H 0.3484 0.0915 0.6089
N6_2 N 0.0526(2) 0.06600(16) 0.6467(2)
N8_2 N 0.0074(2) 0.19340(17) 0.5924(2)
N9_2 N 0.2108(3) 0.1389(2) 0.7400(3)
C15_2 C 0.1972(3) 0.1783(2) 0.7937(3)
C19_2 C 0.2122(3) 0.0493(2) 0.8984(3)
H10_2 H 0.2235 0.0883 0.9087
C20_2 C 0.0119(3) 0.2726(2) 0.5218(3)
C21_2 C 0.3168(3) 0.1553(3) 0.6632(3)
C22_2 C 0.1429(3) 0.1298(2) 0.7038(3)
C24_2 C 0.0538(3) 0.0205(2) 0.7025(2)
H12_2 H 0.1048 0.0177 0.7246
C25_2 C 0.0155(3) 0.0431(2) 0.5791(2)
H14_2 H 0.0281 0.0682 0.5404
H15_2 H 0.0341 0.0039 0.5700
C26_2 C 0.3498(3) 0.0248(2) 0.9239(3)
C27_2 C 0.1189(3) 0.1899(2) 0.7872(3)
C28_2 C 0.1383(3) 0.0327(2) 0.8779(3)
H16_2 H 0.1001 0.0609 0.8741
C30_2 C 0.2849(3) 0.1174(3) 0.7203(4)
H18_2 H 0.3202 0.1174 0.7613
H19_2 H 0.2798 0.0773 0.7036
C32_2 C 0.1006(4) 0.2769(3) 0.6216(3)
H21_2 H 0.1208 0.2614 0.6638
C38_2 C 0.1289(3) 0.0918(2) 0.6406(3)
H27_2 H 0.1672 0.0612 0.6395
H28_2 H 0.1305 0.1149 0.5979
C40_2 C 0.3718(4) 0.2222(2) 0.5518(4)
C41_2 C 0.0356(4) 0.3270(2) 0.4967(3)
H30_2 H 0.0132 0.3442 0.4563
C43_2 C 0.0874(3) 0.2288(2) 0.8352(3)
H32_2 H 0.0355 0.2369 0.8325
C44_2 C 0.1341(4) 0.2541(3) 0.8850(3)
H33_2 H 0.1139 0.2801 0.9167
C46_2 C 0.2456(4) 0.2043(3) 0.8454(4)
H35_2 H 0.2976 0.1963 0.8491
C47_2 C 0.1258(5) 0.3283(3) 0.5970(4)
H36_2 H 0.1654 0.3478 0.6216
C48_2 C 0.0933(5) 0.3528(3) 0.5351(4)
H37_2 H 0.1122 0.3884 0.5197
C49_2 C 0.3982(4) 0.2595(3) 0.4934(4)
C50_2 C 0.3376(8) 0.2452(3) 0.6047(6)
H38_2 H 0.3297 0.2855 0.6051
C51_2 C 0.3126(8) 0.2120(4) 0.6603(6)
H39_2 H 0.2917 0.2317 0.6974
C52_2 C 0.2123(5) 0.2420(3) 0.8901(4)
H40_2 H 0.2426 0.2603 0.9252
C57_2 C 0.2697(3) 0.0066(2) 0.9034(3)
N10_2 N 0.0861(2) 0.15877(17) 0.7310(2)
O8_2 O 0.3650(2) 0.07894(14) 0.9201(2)
C61_2 C 0.0434(3) 0.2474(2) 0.5822(3)
O12_2 O 0.4155(4) 0.2351(2) 0.4387(3)
C7_2 C 0.1206(3) 0.97381(18) 0.8631(2)
C14_2 C 0.2512(3) 0.94876(19) 0.8910(2)
H6_2 H 0.2885 0.9200 0.8972
H13_2 H 0.0410 0.9827 0.6816
C59_2 C 0.1783(3) 0.9329(2) 0.8697(2)
H46_2 H 0.1675 0.8938 0.8595
C66_2 C 0.0416(3) 0.95350(18) 0.8387(3)
H51_2 H 0.0188 0.9331 0.8770
H52_2 H 0.0455 0.9259 0.8004
N1_2 N 0.9917(2) 0.00216(15) 0.81527(18)
N2_2 N 0.7580(2) 0.19538(15) 0.67088(18)
N3_2 N 0.8845(2) 0.19090(15) 0.68870(18)
N4_2 N 0.9028(2) 0.10220(15) 0.59654(18)
C3_2 C 0.7803(3) 0.24607(19) 0.7064(2)
C4_2 C 0.9124(3) 0.07813(18) 0.8135(2)
C5_2 C 0.9372(3) 0.02988(19) 0.8518(2)
N5_2 N 0.9563(2) 0.23302(17) 0.49454(19)
C6_2 C 0.6430(3) 0.1401(2) 0.7033(2)
N7_2 N 0.9530(2) 0.08014(15) 0.75259(18)
C8_2 C 0.8225(3) 0.16444(19) 0.6627(2)
C9_2 C 0.9993(3) 0.03447(19) 0.7565(2)
C10_2 C 0.6887(3) 0.2694(2) 0.4384(3)
H3_2 H 0.6458 0.2635 0.4083
C11_2 C 0.6080(3) 0.32854(19) 0.5197(3)
C12_2 C 0.7381(3) 0.2938(2) 0.7297(2)
H4_2 H 0.6853 0.2953 0.7233
C13_2 C 0.8998(3) 0.29050(19) 0.7489(2)
H5_2 H 0.9526 0.2903 0.7550
C16_2 C 0.9030(3) 0.1379(2) 0.5312(2)
H7_2 H 0.8521 0.1526 0.5198
H8_2 H 0.9174 0.1132 0.4926
C17_2 C 0.9568(3) 0.18799(19) 0.5393(2)
O3_2 O 0.4483(2) 0.17252(16) 0.8554(2)
C18_2 C 0.7580(4) 0.2495(2) 0.4196(3)
H9_2 H 0.7613 0.2292 0.3775
C23_2 C 0.9071(3) 0.0162(2) 0.9179(3)
C29_2 C 0.8570(4) 0.3367(2) 0.7714(3)
H17_2 H 0.8819 0.3682 0.7934
C31_2 C 0.8231(3) 0.0998(2) 0.8989(3)
H20_2 H 0.7837 0.1224 0.9151
C33_2 C 0.7792(4) 0.3381(2) 0.7626(3)
H22_2 H 0.7533 0.3702 0.7795
C34_2 C 0.8996(3) 0.2421(2) 0.4369(3)
H23_2 H 0.9171 0.2728 0.4064
H24_2 H 0.8944 0.2063 0.4095
C35_2 C 0.8502(4) 0.0510(2) 0.9382(3)
H25_2 H 0.8278 0.0424 0.9800
C36_2 C 0.6195(3) 0.1141(2) 0.8220(3)
H26_2 H 0.6284 0.1207 0.8699
C37_2 C 0.5356(3) 0.0306(2) 0.8533(3)
C39_2 C 0.5937(5) 0.0958(3) 0.6801(3)
H29_2 H 0.5833 0.0899 0.6322
C42_2 C 0.6541(3) 0.1494(3) 0.7735(3)
H31_2 H 0.6855 0.1800 0.7895
C45_2 C 0.5593(5) 0.0596(3) 0.7295(3)
H34_2 H 0.5278 0.0289 0.7141
C53_2 C 0.8601(3) 0.24392(18) 0.7164(2)
C54_2 C 0.9302(3) 0.0416(2) 0.5850(2)
H41_2 H 0.9175 0.0167 0.6239
H42_2 H 0.9057 0.0257 0.5422
C55_2 C 0.8266(3) 0.10473(19) 0.6278(3)
H43_2 H 0.7860 0.1005 0.5915
H44_2 H 0.8219 0.0737 0.6621
C56_2 C 0.8550(3) 0.1142(2) 0.8363(2)
H45_2 H 0.8385 0.1469 0.8104
C58_2 C 0.8234(3) 0.25892(19) 0.4621(2)
C60_2 C 0.8144(3) 0.2849(2) 0.5267(2)
H47_2 H 0.8566 0.2892 0.5579
C62_2 C 0.7458(3) 0.30437(18) 0.5457(2)
H48_2 H 0.7417 0.3221 0.5893
C63_2 C 0.6816(3) 0.29809(17) 0.5009(2)
C64_2 C 0.5721(3) 0.0695(2) 0.7986(3)
C65_2 C 0.6800(3) 0.1790(2) 0.6497(3)
H49_2 H 0.6499 0.2144 0.6427
H50_2 H 0.6797 0.1585 0.6051
Ni2_2 Ni 0.98225(4) 0.13910(2) 0.67533(3)
H109_2 H 0.499336 0.183635 0.839989
H110_2 H 0.417886 0.208524 0.862596
H11_2 H 0.9256 0.9850 0.9454
loop_
_geom_bond_atom_site_label_1
_geom_bond_atom_site_label_2
_geom_bond_site_symmetry_1
_geom_bond_site_symmetry_2
C1 H1 1_555 1_555
C2 C1 1_555 1_555
H2 C2 1_555 1_555
N6 C24 1_555 1_555
C7 C28 1_555 1_555
N9 C15 1_555 1_555
C14 H6 1_555 1_555
C15 C27 1_555 1_555
C19 H10 1_555 1_555
C21 C2 1_555 1_555
C22 N9 1_555 1_555
H12 C24 1_555 1_555
H13 C24 1_555 1_555
C25 N6 1_555 1_555
H14 C25 1_555 1_555
H15 C25 1_555 1_555
C26 C57 1_555 1_555
C27 C43 1_555 1_555
C28 C19 1_555 1_555
H16 C28 1_555 1_555
C30 N9 1_555 1_555
H18 C30 1_555 1_555
H19 C30 1_555 1_555
C32 H21 1_555 1_555
C38 N6 1_555 1_555
H27 C38 1_555 1_555
H28 C38 1_555 1_555
C40 C1 1_555 1_555
C43 H32 1_555 1_555
C44 C43 1_555 1_555
H33 C44 1_555 1_555
C46 C15 1_555 1_555
H35 C46 1_555 1_555
C47 C32 1_555 1_555
H36 C47 1_555 1_555
H37 C48 1_555 1_555
C50 C40 1_555 1_555
H38 C50 1_555 1_555
C51 C21 1_555 1_555
H39 C51 1_555 1_555
C52 C44 1_555 1_555
H40 C52 1_555 1_555
C57 C14 1_555 1_555
N10 C22 1_555 1_555
C59 C7 1_555 1_555
H46 C59 1_555 1_555
O8 C26 1_555 1_555
C61 N8 1_555 1_555
O9 C26 1_555 1_555
H51 C66 1_555 1_555
H52 C66 1_555 1_555
Ni5 O9 1_555 1_555
Ni10 O8 1_555 1_555
Ni17 O9 1_555 1_555
C7 C66 1_555 1_555
C14 C59 1_555 1_555
C19 C57 1_555 1_555
C20 C61 1_555 1_555
C21 C30 1_555 1_555
C22 C38 1_555 1_555
C27 N10 1_555 1_555
C32 C61 1_555 1_555
C46 C52 1_555 1_555
C47 C48 1_555 1_555
C50 C51 1_555 1_555
H30 C41 1_555 1_555
O12 C49 1_555 1_555
N1 C5 1_555 1_555
N2 C3 1_555 1_555
N3 C8 1_555 1_555
N4 C16 1_555 1_555
C3 C12 1_555 1_555
O1 C37 1_555 1_555
C4 C5 1_555 1_555
C5 C23 1_555 1_555
C6 C39 1_555 1_555
N7 C4 1_555 1_555
C8 N2 1_555 1_555
C9 N1 1_555 1_555
C11 C63 1_555 1_555
C12 H4 1_555 1_555
C13 H5 1_555 1_555
O2 Ni5 1_555 1_555
C16 H7 1_555 1_555
C17 C16 1_555 1_555
O3 Ni10 1_555 1_555
O4 C37 1_555 1_555
C23 H11 1_555 1_555
C29 C13 1_555 1_555
H17 C29 1_555 1_555
C31 H20 1_555 1_555
C33 C12 1_555 1_555
H22 C33 1_555 1_555
C35 C23 1_555 1_555
H25 C35 1_555 1_555
C36 H26 1_555 1_555
C37 C64 1_555 1_555
O6 Ni4 1_555 1_555
C39 H29 1_555 1_555
C42 C6 1_555 1_555
H31 C42 1_555 1_555
O7 Ni4 1_555 1_555
C45 C39 1_555 1_555
H34 C45 1_555 1_555
C53 N3 1_555 1_555
C54 N4 1_555 1_555
H41 C54 1_555 1_555
H42 C54 1_555 1_555
C55 N4 1_555 1_555
H43 C55 1_555 1_555
H44 C55 1_555 1_555
C56 C4 1_555 1_555
H45 C56 1_555 1_555
H47 C60 1_555 1_555
C62 C60 1_555 1_555
H48 C62 1_555 1_555
O11 C11 1_555 1_555
C64 C36 1_555 1_555
C65 N2 1_555 1_555
H49 C65 1_555 1_555
H50 C65 1_555 1_555
Ni5 O1 1_555 1_555
Ni2 N3 1_555 1_555
Ni10 O1 1_555 1_555
Ni4 O2 1_555 1_555
O14 Ni5 1_555 1_555
O15 Ni5 1_555 1_555
O19 Ni4 1_555 1_555
O21 Ni10 1_555 1_555
O23 Ni17 1_555 1_555
O24 Ni17 1_555 1_555
O28 Ni5 1_555 1_555
O30 Ni10 1_555 1_555
O33 Ni4 1_555 1_555
O34 Ni17 1_555 1_555
Ni13 O14 1_555 1_555
Ni15 O11 1_555 1_555
Ni17 O4 1_555 1_555
N4 Ni2 1_555 1_555
C3 C53 1_555 1_555
C6 C65 1_555 1_555
N7 C9 1_555 1_555
N7 Ni2 1_555 1_555
C8 C55 1_555 1_555
C13 C53 1_555 1_555
O2 Ni10 1_555 1_555
C29 C33 1_555 1_555
C31 C35 1_555 1_555
C31 C56 1_555 1_555
C36 C42 1_555 1_555
C45 C64 1_555 1_555
C62 C63 1_555 1_555
Ni4 O28 1_555 1_555
O15 Ni13 1_555 1_555
O15 Ni17 1_555 1_555
O3 H109 1_555 1_555
O3 H110 1_555 1_555
C10 H3 1_555 1_555
C18 C10 1_555 1_555
H9 C18 1_555 1_555
C34 N5 1_555 1_555
H23 C34 1_555 1_555
H24 C34 1_555 1_555
C58 C18 1_555 1_555
Ni9 O10 1_555 1_555
C34 C58 1_555 1_555
Ni15 O18 1_555 1_555
N11 C71 1_555 1_555
N12 C69 1_555 1_555
N13 C74 1_555 1_555
N14 C82 1_555 1_555
C69 C78 1_555 1_555
O13 C103 1_555 1_555
C70 C71 1_555 1_555
C71 C89 1_555 1_555
N15 C83 1_555 1_555
C72 C105 1_555 1_555
N17 C70 1_555 1_555
C74 N12 1_555 1_555
C75 N11 1_555 1_555
C76 H55 1_555 1_555
C77 C129 1_555 1_555
C78 H56 1_555 1_555
C79 H57 1_555 1_555
C82 H59 1_555 1_555
H60 C82 1_555 1_555
C83 C82 1_555 1_555
O17 Ni11 1_555 1_555
C84 C76 1_555 1_555
H61 C84 1_555 1_555
C95 C79 1_555 1_555
H69 C95 1_555 1_555
C97 H72 1_555 1_555
C99 C78 1_555 1_555
H74 C99 1_555 1_555
C100 N15 1_555 1_555
H75 C100 1_555 1_555
H76 C100 1_555 1_555
C101 C89 1_555 1_555
H77 C101 1_555 1_555
C102 H78 1_555 1_555
C103 C130 1_555 1_555
C105 H81 1_555 1_555
C108 C72 1_555 1_555
H83 C108 1_555 1_555
C111 C105 1_555 1_555
H86 C111 1_555 1_555
C119 N13 1_555 1_555
C120 N14 1_555 1_555
H93 C120 1_555 1_555
H94 C120 1_555 1_555
C121 N14 1_555 1_555
H95 C121 1_555 1_555
H96 C121 1_555 1_555
C122 C70 1_555 1_555
H97 C122 1_555 1_555
C124 C84 1_555 1_555
O26 Ni11 1_555 1_555
C126 C124 1_555 1_555
H99 C126 1_555 1_555
C128 C126 1_555 1_555
H100 C128 1_555 1_555
C129 C76 1_555 1_555
O29 C77 1_555 1_555
O31 Ni11 1_555 1_555
O34 C77 1_555 1_555
C130 C102 1_555 1_555
C131 N12 1_555 1_555
H101 C131 1_555 1_555
H102 C131 1_555 1_555
Ni6_3 O13 1_555 1_555
Ni7 N13 1_555 1_555
Ni11 O13 1_555 1_555
Ni13 O29 1_555 1_555
N14 Ni7 1_555 1_555
C69 C119 1_555 1_555
C72 C131 1_555 1_555
N17 C75 1_555 1_555
N17 Ni7 1_555 1_555
C74 C121 1_555 1_555
C79 C119 1_555 1_555
C95 C99 1_555 1_555
C97 C101 1_555 1_555
C97 C122 1_555 1_555
C100 C124 1_555 1_555
C102 C108 1_555 1_555
C111 C130 1_555 1_555
C128 C129 1_555 1_555
O17 H115 1_555 1_555
O17 H116 1_555 1_555
O16 Ni6_4 1_555 1_555
C80 H58 1_555 1_555
O15_2 Ni6 1_555 1_555
O23_2 Ni15 1_555 1_555
O24_2 Ni15 1_555 1_555
C125 C73 1_555 1_555
H98 C125 1_555 1_555
O27 Ni6 1_555 1_555
H103 C132 1_555 1_555
H104 C132 1_555 1_555
C73 C132 1_555 1_555
C80 C125 1_555 1_555
O15_2 Ni15 1_555 1_555
O27 Ni15 1_555 1_555
O14_2 Ni6_2 1_555 1_555
Ni9 O14_2 1_555 1_555
C67 H53 1_555 1_555
C68 C67 1_555 1_555
H54 C68 1_555 1_555
N16 C90 1_555 1_555
N19 C81 1_555 1_555
C81 C93 1_555 1_555
C85 H62 1_555 1_555
C87 C68 1_555 1_555
C88 N19 1_555 1_555
H64 C90 1_555 1_555
C91 N16 1_555 1_555
H66 C91 1_555 1_555
H67 C91 1_555 1_555
O20 C115 1_555 1_555
C92 C123 1_555 1_555
C93 C109 1_555 1_555
C94 C85 1_555 1_555
H68 C94 1_555 1_555
C96 N19 1_555 1_555
H70 C96 1_555 1_555
H71 C96 1_555 1_555
C98 H73 1_555 1_555
C104 N16 1_555 1_555
H79 C104 1_555 1_555
H80 C104 1_555 1_555
C106 C67 1_555 1_555
C107 C86 1_555 1_555
H82 C107 1_555 1_555
C109 H84 1_555 1_555
C110 C109 1_555 1_555
H85 C110 1_555 1_555
C112 C81 1_555 1_555
H87 C112 1_555 1_555
C113 C98 1_555 1_555
H88 C113 1_555 1_555
C114 C107 1_555 1_555
H89 C114 1_555 1_555
C115 C106 1_555 1_555
C116 C106 1_555 1_555
H90 C116 1_555 1_555
C117 C87 1_555 1_555
H91 C117 1_555 1_555
C118 C110 1_555 1_555
H92 C118 1_555 1_555
N20 C88 1_555 1_555
C127 N18 1_555 1_555
O35 C115 1_555 1_555
C85 C123 1_555 1_555
C86 C127 1_555 1_555
C87 C96 1_555 1_555
C88 C104 1_555 1_555
O20 Ni13 1_555 1_555
C92 O26 1_555 1_555
C93 N20 1_555 1_555
C98 C127 1_555 1_555
C112 C118 1_555 1_555
C113 C114 1_555 1_555
C116 C117 1_555 1_555
O6_2 Ni4_2 1_555 1_555
O7_2 Ni4_2 1_555 1_555
Ni4_2 O16 1_555 1_555
O19_2 Ni4_2 1_555 1_555
O28_2 Ni6_4 1_555 1_555
O33_2 Ni4_2 1_555 1_555
Ni4_2 O28_2 1_555 1_555
C76_2 H55_2 1_555 1_555
C84_2 C76_2 1_555 1_555
H61_2 C84_2 1_555 1_555
C100_2 N15_2 1_555 1_555
H75_2 C100_2 1_555 1_555
H76_2 C100_2 1_555 1_555
C124_2 C84_2 1_555 1_555
C100_2 C124_2 1_555 1_555
N11_2 C71_2 1_555 1_555
N12_2 C69_2 1_555 1_555
N13_2 C74_2 1_555 1_555
N14_2 C82_2 1_555 1_555
C69_2 C78_2 1_555 1_555
O14 C103_2 1_555 1_555
C70_2 C71_2 1_555 1_555
C71_2 C89_2 1_555 1_555
C72_2 C105_2 1_555 1_555
N17_2 C70_2 1_555 1_555
C74_2 N12_2 1_555 1_555
C75_2 N11_2 1_555 1_555
C77_2 C129_2 1_555 1_555
C78_2 H56_2 1_555 1_555
C79_2 H57_2 1_555 1_555
C82_2 H59_2 1_555 1_555
C83_2 C82_2 1_555 1_555
O17_2 Ni13 1_555 1_555
O19 C103_2 1_555 1_555
C89_2 H63_2 1_555 1_555
C95_2 C79_2 1_555 1_555
H69_2 C95_2 1_555 1_555
C97_2 H72_2 1_555 1_555
C99_2 C78_2 1_555 1_555
H74_2 C99_2 1_555 1_555
C101_2 C89_2 1_555 1_555
H77_2 C101_2 1_555 1_555
C102_2 H78_2 1_555 1_555
C103_2 C130_2 1_555 1_555
C105_2 H81_2 1_555 1_555
C108_2 C72_2 1_555 1_555
H83_2 C108_2 1_555 1_555
C111_2 C105_2 1_555 1_555
H86_2 C111_2 1_555 1_555
C119_2 N13_2 1_555 1_555
C120_2 N14_2 1_555 1_555
H93_2 C120_2 1_555 1_555
H94_2 C120_2 1_555 1_555
C121_2 N14_2 1_555 1_555
H95_2 C121_2 1_555 1_555
H96_2 C121_2 1_555 1_555
C122_2 C70_2 1_555 1_555
H97_2 C122_2 1_555 1_555
O26_2 Ni13 1_555 1_555
H99_2 C126_2 1_555 1_555
C128_2 C126_2 1_555 1_555
H100_2 C128_2 1_555 1_555
O33_2 C77_2 1_555 1_555
C130_2 C102_2 1_555 1_555
C131_2 N12_2 1_555 1_555
H101_2 C131_2 1_555 1_555
H102_2 C131_2 1_555 1_555
Ni7_2 N13_2 1_555 1_555
N14_2 Ni7_2 1_555 1_555
C69_2 C119_2 1_555 1_555
C72_2 C131_2 1_555 1_555
N17_2 C75_2 1_555 1_555
N17_2 Ni7_2 1_555 1_555
C74_2 C121_2 1_555 1_555
C79_2 C119_2 1_555 1_555
C95_2 C99_2 1_555 1_555
C97_2 C101_2 1_555 1_555
C97_2 C122_2 1_555 1_555
C102_2 C108_2 1_555 1_555
C111_2 C130_2 1_555 1_555
C128_2 C129_2 1_555 1_555
O17_2 H115_2 1_555 1_555
O17_2 H116_2 1_555 1_555
H82_2 C107_2 1_555 1_555
O35_2 C115_2 1_555 1_555
C67_2 H53_2 1_555 1_555
C68_2 C67_2 1_555 1_555
H54_2 C68_2 1_555 1_555
N16_2 C90_2 1_555 1_555
C73_2 C94_2 1_555 1_555
N19_2 C81_2 1_555 1_555
C80_2 H58_2 1_555 1_555
C81_2 C93_2 1_555 1_555
C85_2 H62_2 1_555 1_555
C87_2 C68_2 1_555 1_555
C88_2 N19_2 1_555 1_555
H64_2 C90_2 1_555 1_555
H65_2 C90_2 1_555 1_555
C91_2 N16_2 1_555 1_555
H66_2 C91_2 1_555 1_555
H67_2 C91_2 1_555 1_555
C92_2 C123_2 1_555 1_555
C93_2 C109_2 1_555 1_555
C94_2 C85_2 1_555 1_555
H68_2 C94_2 1_555 1_555
C96_2 N19_2 1_555 1_555
H70_2 C96_2 1_555 1_555
H71_2 C96_2 1_555 1_555
C98_2 H73_2 1_555 1_555
C104_2 N16_2 1_555 1_555
H79_2 C104_2 1_555 1_555
H80_2 C104_2 1_555 1_555
C106_2 C67_2 1_555 1_555
C109_2 H84_2 1_555 1_555
C110_2 C109_2 1_555 1_555
H85_2 C110_2 1_555 1_555
C112_2 C81_2 1_555 1_555
H87_2 C112_2 1_555 1_555
C113_2 C98_2 1_555 1_555
H88_2 C113_2 1_555 1_555
H89_2 C114_2 1_555 1_555
C116_2 C106_2 1_555 1_555
H90_2 C116_2 1_555 1_555
C117_2 C87_2 1_555 1_555
H91_2 C117_2 1_555 1_555
C118_2 C110_2 1_555 1_555
H92_2 C118_2 1_555 1_555
C123_2 C80_2 1_555 1_555
N20_2 C88_2 1_555 1_555
C125_2 C73_2 1_555 1_555
H98_2 C125_2 1_555 1_555
C127_2 N18_2 1_555 1_555
H103_2 C132_2 1_555 1_555
H104_2 C132_2 1_555 1_555
C73_2 C132_2 1_555 1_555
C80_2 C125_2 1_555 1_555
C85_2 C123_2 1_555 1_555
C86_2 C127_2 1_555 1_555
C87_2 C96_2 1_555 1_555
C88_2 C104_2 1_555 1_555
C92_2 O26_2 1_555 1_555
C92_2 O28 1_555 1_555
C93_2 N20_2 1_555 1_555
C98_2 C127_2 1_555 1_555
C112_2 C118_2 1_555 1_555
C113_2 C114_2 1_555 1_555
C116_2 C117_2 1_555 1_555
C1_2 H1_2 1_555 1_555
C2_2 C1_2 1_555 1_555
H2_2 C2_2 1_555 1_555
N6_2 C24_2 1_555 1_555
N9_2 C15_2 1_555 1_555
C15_2 C27_2 1_555 1_555
C19_2 H10_2 1_555 1_555
C21_2 C2_2 1_555 1_555
C22_2 N9_2 1_555 1_555
H12_2 C24_2 1_555 1_555
C25_2 N6_2 1_555 1_555
H14_2 C25_2 1_555 1_555
H15_2 C25_2 1_555 1_555
O21 C49_2 1_555 1_555
C26_2 C57_2 1_555 1_555
C27_2 C43_2 1_555 1_555
C28_2 C19_2 1_555 1_555
H16_2 C28_2 1_555 1_555
C30_2 N9_2 1_555 1_555
H18_2 C30_2 1_555 1_555
H19_2 C30_2 1_555 1_555
C32_2 H21_2 1_555 1_555
C38_2 N6_2 1_555 1_555
H27_2 C38_2 1_555 1_555
H28_2 C38_2 1_555 1_555
C40_2 C1_2 1_555 1_555
C41_2 C20_2 1_555 1_555
H30_2 C41_2 1_555 1_555
C43_2 H32_2 1_555 1_555
C44_2 C43_2 1_555 1_555
H33_2 C44_2 1_555 1_555
C46_2 C15_2 1_555 1_555
H35_2 C46_2 1_555 1_555
C47_2 C32_2 1_555 1_555
H36_2 C47_2 1_555 1_555
C48_2 C41_2 1_555 1_555
H37_2 C48_2 1_555 1_555
C49_2 C40_2 1_555 1_555
C50_2 C40_2 1_555 1_555
H38_2 C50_2 1_555 1_555
C51_2 C21_2 1_555 1_555
H39_2 C51_2 1_555 1_555
C52_2 C44_2 1_555 1_555
H40_2 C52_2 1_555 1_555
N10_2 C22_2 1_555 1_555
O8_2 C26_2 1_555 1_555
C61_2 N8_2 1_555 1_555
O12_2 C49_2 1_555 1_555
Ni9 O8_2 1_555 1_555
C19_2 C57_2 1_555 1_555
C20_2 C61_2 1_555 1_555
C21_2 C30_2 1_555 1_555
C22_2 C38_2 1_555 1_555
C27_2 N10_2 1_555 1_555
C32_2 C61_2 1_555 1_555
C46_2 C52_2 1_555 1_555
C47_2 C48_2 1_555 1_555
C50_2 C51_2 1_555 1_555
C14_2 H6_2 1_555 1_555
C59_2 C7_2 1_555 1_555
H46_2 C59_2 1_555 1_555
H51_2 C66_2 1_555 1_555
H52_2 C66_2 1_555 1_555
C7_2 C66_2 1_555 1_555
C14_2 C59_2 1_555 1_555
N1_2 C5_2 1_555 1_555
N2_2 C3_2 1_555 1_555
N3_2 C8_2 1_555 1_555
N4_2 C16_2 1_555 1_555
C3_2 C12_2 1_555 1_555
O14_2 C37_2 1_555 1_555
C4_2 C5_2 1_555 1_555
C5_2 C23_2 1_555 1_555
N5_2 C17_2 1_555 1_555
C6_2 C39_2 1_555 1_555
N7_2 C4_2 1_555 1_555
C8_2 N2_2 1_555 1_555
C9_2 N1_2 1_555 1_555
C10_2 H3_2 1_555 1_555
C11_2 C63_2 1_555 1_555
C12_2 H4_2 1_555 1_555
C13_2 H5_2 1_555 1_555
C16_2 H7_2 1_555 1_555
H8_2 C16_2 1_555 1_555
C17_2 C16_2 1_555 1_555
O3_2 Ni9 1_555 1_555
C18_2 C10_2 1_555 1_555
H9_2 C18_2 1_555 1_555
C29_2 C13_2 1_555 1_555
H17_2 C29_2 1_555 1_555
C31_2 H20_2 1_555 1_555
C33_2 C12_2 1_555 1_555
H22_2 C33_2 1_555 1_555
C34_2 N5_2 1_555 1_555
H23_2 C34_2 1_555 1_555
H24_2 C34_2 1_555 1_555
C35_2 C23_2 1_555 1_555
H25_2 C35_2 1_555 1_555
C36_2 H26_2 1_555 1_555
C37_2 C64_2 1_555 1_555
C39_2 H29_2 1_555 1_555
C42_2 C6_2 1_555 1_555
H31_2 C42_2 1_555 1_555
C45_2 C39_2 1_555 1_555
H34_2 C45_2 1_555 1_555
C53_2 N3_2 1_555 1_555
C54_2 N4_2 1_555 1_555
H41_2 C54_2 1_555 1_555
H42_2 C54_2 1_555 1_555
C55_2 N4_2 1_555 1_555
H43_2 C55_2 1_555 1_555
H44_2 C55_2 1_555 1_555
C56_2 C4_2 1_555 1_555
H45_2 C56_2 1_555 1_555
C58_2 C18_2 1_555 1_555
C60_2 C58_2 1_555 1_555
H47_2 C60_2 1_555 1_555
C62_2 C60_2 1_555 1_555
H48_2 C62_2 1_555 1_555
C63_2 C10_2 1_555 1_555
O30 C11_2 1_555 1_555
O33 C11_2 1_555 1_555
C64_2 C36_2 1_555 1_555
C65_2 N2_2 1_555 1_555
H49_2 C65_2 1_555 1_555
H50_2 C65_2 1_555 1_555
Ni2_2 N3_2 1_555 1_555
N4_2 Ni2_2 1_555 1_555
C3_2 C53_2 1_555 1_555
C6_2 C65_2 1_555 1_555
N7_2 C9_2 1_555 1_555
N7_2 Ni2_2 1_555 1_555
C8_2 C55_2 1_555 1_555
C13_2 C53_2 1_555 1_555
C29_2 C33_2 1_555 1_555
C31_2 C35_2 1_555 1_555
C31_2 C56_2 1_555 1_555
C34_2 C58_2 1_555 1_555
C36_2 C42_2 1_555 1_555
C45_2 C64_2 1_555 1_555
C62_2 C63_2 1_555 1_555
O3_2 H109_2 1_555 1_555
O3_2 H110_2 1_555 1_555

#END
