
###############################################################################
#
# This file contains modified crystal structure data generated from the
# MOF subset of the Cambridge Structural Database (CSD) v543 
# hosted by the Cambridge Crystallographic Data Centre (CCDC).
#
# This work is licensed under the Creative Commons
# Attribution-NonCommercial-ShareAlike 4.0 International License.
# To view a copy of this license, visit
# http://creativecommons.org/licenses/by-nc-sa/4.0/
# or send a letter to
# Creative Commons, PO Box 1866, Mountain View, CA 94042, USA.
#
# CIF created using the CSD Python API on 29 September 2022
# The structure has been converted into the P1 space group
# The structure has a 3D framework
# The original CSD entry INEMUM is in the cubic crystal system
# The framework has been calculated to contain at least 10.0% void space
# The void calculation uses a probe of radius 1.32A, grid spacing 0.4
# H atom positions have been added when not included in the experimental data
# Generated hydrogen atom positions removed from atoms on special positions
#
###############################################################################

data_INEMUM
_chemical_formula_moiety         '(C792 H648 Co84 N96 O351)n'
_symmetry_cell_setting           triclinic
_symmetry_space_group_name_H-M   'P 1'
_symmetry_Int_Tables_number      1
_space_group_name_Hall           'P 1'
loop_
_symmetry_equiv_pos_site_id
_symmetry_equiv_pos_as_xyz
1 x,y,z
_cell_length_a                   33.2828(3)
_cell_length_b                   33.2828(3)
_cell_length_c                   33.2828(3)
_cell_angle_alpha                90
_cell_angle_beta                 90
_cell_angle_gamma                90
_cell_volume                     36868.8
loop_
_atom_site_label
_atom_site_type_symbol
_atom_site_fract_x
_atom_site_fract_y
_atom_site_fract_z
Co1 Co 0.39829(3) -0.0000 0.60171(3)
O1 O 0.35580(10) -0.0000 0.64420(10)
O2 O 0.44370(17) -0.0000 0.55630(17)
Co3 Co 0.39829(3) -0.0000 0.39829(3)
Co4 Co 0.33518(2) 0.05440(3) 0.33518(2)
O9 O 0.35580(10) -0.0000 0.35580(10)
O10 O 0.44370(17) -0.0000 0.44370(17)
O11 O 0.36876(15) 0.04323(15) 0.43009(12)
O12 O 0.32828(11) 0.08029(11) 0.39229(9)
O13 O 0.22313(9) 0.15752(11) 0.53361(9)
C28 C 0.34266(14) 0.06920(15) 0.42496(14)
C29 C 0.3426(2) 0.0754(3) 0.5000
H16 H 0.3654 0.0593 0.5000
C30 C 0.32615(15) 0.08699(17) 0.46354(14)
C31 C 0.29284(14) 0.11178(15) 0.46378(13)
H17 H 0.2815 0.1201 0.4396
C32 C 0.27612(19) 0.1244(2) 0.5000
C33 C 0.23734(17) 0.14893(18) 0.5000
O14 O 0.36876(15) 0.04323(15) 0.56991(12)
O15 O 0.32828(11) 0.08029(11) 0.60771(9)
O16 O 0.22313(9) 0.15752(11) 0.46639(9)
C34 C 0.34266(14) 0.06920(15) 0.57504(14)
C35 C 0.32615(15) 0.08699(17) 0.53646(14)
C36 C 0.29284(14) 0.11178(15) 0.53622(13)
H18 H 0.2815 0.1201 0.5604
Co5 Co 0.60171(3) -0.0000 0.39829(3)
Co6 Co 0.66482(2) 0.05440(3) 0.33518(2)
O17 O 0.64420(10) -0.0000 0.35580(10)
O18 O 0.55630(17) -0.0000 0.44370(17)
O19 O 0.56991(12) 0.04323(15) 0.36876(15)
O20 O 0.60771(9) 0.08029(11) 0.32828(11)
O21 O 0.46639(9) 0.15752(11) 0.22313(9)
C37 C 0.57504(14) 0.06920(15) 0.34266(14)
C38 C 0.5000 0.0754(3) 0.3426(2)
H19 H 0.5000 0.0593 0.3654
C39 C 0.53646(14) 0.08699(17) 0.32615(15)
C40 C 0.53622(13) 0.11178(15) 0.29284(14)
H20 H 0.5604 0.1201 0.2815
C41 C 0.5000 0.1244(2) 0.27612(19)
C42 C 0.5000 0.14893(18) 0.23734(17)
O22 O 0.43009(12) 0.04323(15) 0.36876(15)
O23 O 0.39229(9) 0.08029(11) 0.32828(11)
O24 O 0.53361(9) 0.15752(11) 0.22313(9)
C43 C 0.42496(14) 0.06920(15) 0.34266(14)
C44 C 0.46354(14) 0.08699(17) 0.32615(15)
C45 C 0.46378(13) 0.11178(15) 0.29284(14)
H21 H 0.4396 0.1201 0.2815
Co7 Co 0.33518(2) 0.05440(3) 0.66482(2)
O25 O 0.43009(12) 0.04323(15) 0.63124(15)
O26 O 0.39229(9) 0.08029(11) 0.67172(11)
O27 O 0.53361(9) 0.15752(11) 0.77687(9)
N7 N 0.30687(18) 0.10459(19) 0.69313(18)
N8 N 0.2530(3) 0.2029(2) 0.7971(2)
C46 C 0.42496(14) 0.06920(15) 0.65734(14)
C47 C 0.5000 0.0754(3) 0.6574(2)
H22 H 0.5000 0.0593 0.6346
C48 C 0.46354(14) 0.08699(17) 0.67385(15)
C49 C 0.46378(13) 0.11178(15) 0.70716(14)
H23 H 0.4396 0.1201 0.7185
C50 C 0.5000 0.1244(2) 0.72388(19)
C51 C 0.5000 0.14893(18) 0.76266(17)
C52 C 0.3182(3) 0.1163(2) 0.7301(2)
H24 H 0.3427 0.1070 0.7399
C53 C 0.2955(3) 0.1417(3) 0.7550(3)
H25 H 0.3058 0.1495 0.7798
C54 C 0.2571(3) 0.1556(3) 0.7429(3)
C55 C 0.2352(2) 0.1878(3) 0.7648(2)
O28 O 0.56991(12) 0.04323(15) 0.63124(15)
O29 O 0.60771(9) 0.08029(11) 0.67172(11)
O30 O 0.46639(9) 0.15752(11) 0.77687(9)
C56 C 0.57504(14) 0.06920(15) 0.65734(14)
C57 C 0.53646(14) 0.08699(17) 0.67385(15)
C58 C 0.53622(13) 0.11178(15) 0.70716(14)
H26 H 0.5604 0.1201 0.7185
N9 N 0.10459(19) 0.30687(18) 0.69313(18)
N10 N 0.2029(2) 0.2029(2) 0.7470(3)
C59 C 0.1163(2) 0.2699(2) 0.6818(3)
H27 H 0.1070 0.2601 0.6573
C60 C 0.1417(3) 0.2450(3) 0.7045(3)
H28 H 0.1495 0.2202 0.6942
C61 C 0.1556(3) 0.2571(3) 0.7429(3)
C62 C 0.1878(3) 0.2352(2) 0.7648(2)
N11 N 0.30687(18) 0.30687(18) 0.89541(19)
N12 N 0.2029(2) 0.2530(3) 0.7971(2)
C63 C 0.2699(2) 0.3182(3) 0.8837(2)
H29 H 0.2601 0.3427 0.8930
C64 C 0.2450(3) 0.2955(3) 0.8583(3)
H30 H 0.2202 0.3058 0.8505
C65 C 0.2571(3) 0.2571(3) 0.8444(3)
C66 C 0.2352(2) 0.2352(2) 0.8122(3)
C67 C 0.3182(3) 0.2699(2) 0.8837(2)
H31 H 0.3427 0.2601 0.8930
C68 C 0.2955(3) 0.2450(3) 0.8583(3)
H32 H 0.3058 0.2202 0.8505
C69 C 0.2699(2) 0.1163(2) 0.6818(3)
H33 H 0.2601 0.1070 0.6573
C70 C 0.2450(3) 0.1417(3) 0.7045(3)
H34 H 0.2202 0.1495 0.6942
C71 C 0.1163(2) 0.3182(3) 0.7301(2)
H35 H 0.1070 0.3427 0.7399
C72 C 0.1417(3) 0.2955(3) 0.7550(3)
H36 H 0.1495 0.3058 0.7798
Co10 Co 0.60171(3) -0.0000 0.60171(3)
Co11 Co 0.05440(3) 0.33518(2) 0.66482(2)
Co12 Co 0.66482(2) 0.05440(3) 0.66482(2)
Co16 Co 0.33518(2) 0.33518(2) 0.94560(3)
Co19 Co 0.55440(3) 0.16482(2) 0.83518(2)
Co21 Co 0.16482(2) 0.16482(2) 0.44560(3)
Co22 Co 0.16482(2) 0.16482(2) 0.55440(3)
Co23 Co 0.44560(3) 0.16482(2) 0.83518(2)
Co24 Co 0.44560(3) 0.16482(2) 0.16482(2)
Co28 Co 0.55440(3) 0.16482(2) 0.16482(2)
O43 O 0.64420(10) -0.0000 0.64420(10)
O45 O 0.63124(15) 0.04323(15) 0.43009(12)
O46 O 0.67172(11) 0.08029(11) 0.39229(9)
O50 O 0.27687(9) 0.03361(9) 0.65752(11)
O52 O 0.34248(11) 0.03361(9) 0.27687(9)
O53 O 0.72313(9) 0.03361(9) 0.34248(11)
O54 O 0.65752(11) 0.03361(9) 0.27687(9)
O55 O 0.27687(9) 0.03361(9) 0.34248(11)
O58 O 0.34248(11) 0.03361(9) 0.72313(9)
N13 N 0.30687(18) 0.10459(19) 0.30687(18)
N14 N 0.69313(18) 0.10459(19) 0.30687(18)
Co1_2 Co 0.39829(3) 1.0000 0.60171(3)
Co2 Co 0.33518(2) 0.94560(3) 0.66482(2)
O1_2 O 0.35580(10) 1.0000 0.64420(10)
O2_2 O 0.44370(17) 1.0000 0.55630(17)
O3 O 0.36876(15) 0.95677(15) 0.56991(12)
O4 O 0.32828(11) 0.91971(11) 0.60771(9)
O5 O 0.22313(9) 0.84248(11) 0.46639(9)
N1 N 0.30687(18) 0.89541(19) 0.69313(18)
N2 N 0.2029(2) 0.7971(2) 0.7470(3)
C1 C 0.34266(14) 0.93080(15) 0.57504(14)
C2 C 0.3426(2) 0.9246(3) 0.5000
H1 H 0.3654 0.9407 0.5000
C3 C 0.32615(15) 0.91301(17) 0.53646(14)
C4 C 0.29284(14) 0.88822(15) 0.53622(13)
H2 H 0.2815 0.8799 0.5604
C5 C 0.27612(19) 0.8756(2) 0.5000
C6 C 0.23734(17) 0.85107(18) 0.5000
C7 C 0.2699(2) 0.8837(2) 0.6818(3)
H3 H 0.2601 0.8930 0.6573
C8 C 0.2450(3) 0.8583(3) 0.7045(3)
H4 H 0.2202 0.8505 0.6942
C9 C 0.2571(3) 0.8444(3) 0.7429(3)
C10 C 0.2352(2) 0.8122(3) 0.7648(2)
O6 O 0.36876(15) 0.95677(15) 0.43009(12)
O7 O 0.32828(11) 0.91971(11) 0.39229(9)
O8 O 0.22313(9) 0.84248(11) 0.53361(9)
C11 C 0.34266(14) 0.93080(15) 0.42496(14)
C12 C 0.32615(15) 0.91301(17) 0.46354(14)
C13 C 0.29284(14) 0.88822(15) 0.46378(13)
H5 H 0.2815 0.8799 0.4396
N3 N 0.30687(18) 0.69313(18) 0.89541(19)
N4 N 0.2530(3) 0.7971(2) 0.7971(2)
C14 C 0.3182(3) 0.7301(2) 0.8837(2)
H6 H 0.3427 0.7399 0.8930
C15 C 0.2955(3) 0.7550(3) 0.8583(3)
H7 H 0.3058 0.7798 0.8505
C16 C 0.2571(3) 0.7429(3) 0.8444(3)
C17 C 0.2352(2) 0.7648(2) 0.8122(3)
N5 N 0.10459(19) 0.69313(18) 0.69313(18)
N6 N 0.2029(2) 0.7470(3) 0.7971(2)
C18 C 0.1163(2) 0.6818(3) 0.7301(2)
H8 H 0.1070 0.6573 0.7399
C19 C 0.1417(3) 0.7045(3) 0.7550(3)
H9 H 0.1495 0.6942 0.7798
C20 C 0.1556(3) 0.7429(3) 0.7429(3)
C21 C 0.1878(3) 0.7648(2) 0.7648(2)
C22 C 0.1163(2) 0.7301(2) 0.6818(3)
H10 H 0.1070 0.7399 0.6573
C23 C 0.1417(3) 0.7550(3) 0.7045(3)
H11 H 0.1495 0.7798 0.6942
C24 C 0.3182(3) 0.8837(2) 0.7301(2)
H12 H 0.3427 0.8930 0.7399
C25 C 0.2955(3) 0.8583(3) 0.7550(3)
H13 H 0.3058 0.8505 0.7798
C26 C 0.2699(2) 0.6818(3) 0.8837(2)
H14 H 0.2601 0.6573 0.8930
C27 C 0.2450(3) 0.7045(3) 0.8583(3)
H15 H 0.2202 0.6942 0.8505
Co3_2 Co 0.39829(3) 1.0000 0.39829(3)
O9_2 O 0.35580(10) 1.0000 0.35580(10)
O10_2 O 0.44370(17) 1.0000 0.44370(17)
Co5_2 Co 0.60171(3) 1.0000 0.39829(3)
O17_2 O 0.64420(10) 1.0000 0.35580(10)
O18_2 O 0.55630(17) 1.0000 0.44370(17)
Co8 Co 0.66482(2) 0.94560(3) 0.66482(2)
O31 O 0.56991(12) 0.95677(15) 0.63124(15)
O32 O 0.60771(9) 0.91971(11) 0.67172(11)
O33 O 0.46639(9) 0.84248(11) 0.77687(9)
C73 C 0.57504(14) 0.93080(15) 0.65734(14)
C74 C 0.5000 0.9246(3) 0.6574(2)
H37 H 0.5000 0.9407 0.6346
C75 C 0.53646(14) 0.91301(17) 0.67385(15)
C76 C 0.53622(13) 0.88822(15) 0.70716(14)
H38 H 0.5604 0.8799 0.7185
C77 C 0.5000 0.8756(2) 0.72388(19)
C78 C 0.5000 0.85107(18) 0.76266(17)
O34 O 0.43009(12) 0.95677(15) 0.63124(15)
O35 O 0.39229(9) 0.91971(11) 0.67172(11)
O36 O 0.53361(9) 0.84248(11) 0.77687(9)
C79 C 0.42496(14) 0.93080(15) 0.65734(14)
C80 C 0.46354(14) 0.91301(17) 0.67385(15)
C81 C 0.46378(13) 0.88822(15) 0.70716(14)
H39 H 0.4396 0.8799 0.7185
Co9 Co 0.33518(2) 0.94560(3) 0.33518(2)
O37 O 0.43009(12) 0.95677(15) 0.36876(15)
O38 O 0.39229(9) 0.91971(11) 0.32828(11)
O39 O 0.53361(9) 0.84248(11) 0.22313(9)
C82 C 0.42496(14) 0.93080(15) 0.34266(14)
C83 C 0.5000 0.9246(3) 0.3426(2)
H40 H 0.5000 0.9407 0.3654
C84 C 0.46354(14) 0.91301(17) 0.32615(15)
C85 C 0.46378(13) 0.88822(15) 0.29284(14)
H41 H 0.4396 0.8799 0.2815
C86 C 0.5000 0.8756(2) 0.27612(19)
C87 C 0.5000 0.85107(18) 0.23734(17)
O40 O 0.56991(12) 0.95677(15) 0.36876(15)
O41 O 0.60771(9) 0.91971(11) 0.32828(11)
O42 O 0.46639(9) 0.84248(11) 0.22313(9)
C88 C 0.57504(14) 0.93080(15) 0.34266(14)
C89 C 0.53646(14) 0.91301(17) 0.32615(15)
C90 C 0.53622(13) 0.88822(15) 0.29284(14)
H42 H 0.5604 0.8799 0.2815
Co10_2 Co 0.60171(3) 1.0000 0.60171(3)
Co13 Co 0.66482(2) 0.94560(3) 0.33518(2)
Co14 Co 0.33518(2) 0.66482(2) 0.94560(3)
Co15 Co 0.05440(3) 0.66482(2) 0.66482(2)
Co17 Co 0.55440(3) 0.83518(2) 0.16482(2)
Co18 Co 0.16482(2) 0.83518(2) 0.44560(3)
Co20 Co 0.44560(3) 0.83518(2) 0.83518(2)
Co25 Co 0.16482(2) 0.83518(2) 0.55440(3)
Co26 Co 0.55440(3) 0.83518(2) 0.83518(2)
Co27 Co 0.44560(3) 0.83518(2) 0.16482(2)
O43_2 O 0.64420(10) 1.0000 0.64420(10)
O44 O 0.63124(15) 0.95677(15) 0.43009(12)
O47 O 0.67172(11) 0.91971(11) 0.60771(9)
O48 O 0.27687(9) 0.96639(9) 0.34248(11)
O49 O 0.34248(11) 0.96639(9) 0.72313(9)
O51 O 0.72313(9) 0.96639(9) 0.65752(11)
O56 O 0.34248(11) 0.96639(9) 0.27687(9)
O57 O 0.65752(11) 0.96639(9) 0.72313(9)
O59 O 0.27687(9) 0.96639(9) 0.65752(11)
N15 N 0.69313(18) 0.89541(19) 0.69313(18)
N16 N 0.30687(18) 0.89541(19) 0.30687(18)
Co1_3 Co 0.0000 0.39829(3) 0.60171(3)
O1_3 O 0.0000 0.35580(10) 0.64420(10)
O2_3 O 0.0000 0.44370(17) 0.55630(17)
O3_2 O 0.04323(15) 0.36876(15) 0.56991(12)
O4_2 O 0.08029(11) 0.32828(11) 0.60771(9)
O5_2 O 0.15752(11) 0.22313(9) 0.46639(9)
C1_2 C 0.06920(15) 0.34266(14) 0.57504(14)
C2_2 C 0.0754(3) 0.3426(2) 0.5000
H1_2 H 0.0593 0.3654 0.5000
C3_2 C 0.08699(17) 0.32615(15) 0.53646(14)
C4_2 C 0.11178(15) 0.29284(14) 0.53622(13)
H2_2 H 0.1201 0.2815 0.5604
C5_2 C 0.1244(2) 0.27612(19) 0.5000
C6_2 C 0.14893(18) 0.23734(17) 0.5000
O6_2 O 0.04323(15) 0.36876(15) 0.43009(12)
O7_2 O 0.08029(11) 0.32828(11) 0.39229(9)
O8_2 O 0.15752(11) 0.22313(9) 0.53361(9)
C11_2 C 0.06920(15) 0.34266(14) 0.42496(14)
C12_2 C 0.08699(17) 0.32615(15) 0.46354(14)
C13_2 C 0.11178(15) 0.29284(14) 0.46378(13)
H5_2 H 0.1201 0.2815 0.4396
Co3_3 Co 0.0000 0.39829(3) 0.39829(3)
O9_3 O 0.0000 0.35580(10) 0.35580(10)
O10_3 O 0.0000 0.44370(17) 0.44370(17)
Co5_3 Co 0.0000 0.60171(3) 0.39829(3)
O17_3 O 0.0000 0.64420(10) 0.35580(10)
O18_3 O 0.0000 0.55630(17) 0.44370(17)
O31_2 O 0.04323(15) 0.56991(12) 0.63124(15)
O32_2 O 0.08029(11) 0.60771(9) 0.67172(11)
O33_2 O 0.15752(11) 0.46639(9) 0.77687(9)
C73_2 C 0.06920(15) 0.57504(14) 0.65734(14)
C74_2 C 0.0754(3) 0.5000 0.6574(2)
H37_2 H 0.0593 0.5000 0.6346
C75_2 C 0.08699(17) 0.53646(14) 0.67385(15)
C76_2 C 0.11178(15) 0.53622(13) 0.70716(14)
H38_2 H 0.1201 0.5604 0.7185
C77_2 C 0.1244(2) 0.5000 0.72388(19)
C78_2 C 0.14893(18) 0.5000 0.76266(17)
O34_2 O 0.04323(15) 0.43009(12) 0.63124(15)
O35_2 O 0.08029(11) 0.39229(9) 0.67172(11)
O36_2 O 0.15752(11) 0.53361(9) 0.77687(9)
C79_2 C 0.06920(15) 0.42496(14) 0.65734(14)
C80_2 C 0.08699(17) 0.46354(14) 0.67385(15)
C81_2 C 0.11178(15) 0.46378(13) 0.70716(14)
H39_2 H 0.1201 0.4396 0.7185
Co9_2 Co 0.05440(3) 0.33518(2) 0.33518(2)
O37_2 O 0.04323(15) 0.43009(12) 0.36876(15)
O38_2 O 0.08029(11) 0.39229(9) 0.32828(11)
O39_2 O 0.15752(11) 0.53361(9) 0.22313(9)
C82_2 C 0.06920(15) 0.42496(14) 0.34266(14)
C83_2 C 0.0754(3) 0.5000 0.3426(2)
H40_2 H 0.0593 0.5000 0.3654
C84_2 C 0.08699(17) 0.46354(14) 0.32615(15)
C85_2 C 0.11178(15) 0.46378(13) 0.29284(14)
H41_2 H 0.1201 0.4396 0.2815
C86_2 C 0.1244(2) 0.5000 0.27612(19)
C87_2 C 0.14893(18) 0.5000 0.23734(17)
O40_2 O 0.04323(15) 0.56991(12) 0.36876(15)
O41_2 O 0.08029(11) 0.60771(9) 0.32828(11)
O42_2 O 0.15752(11) 0.46639(9) 0.22313(9)
C88_2 C 0.06920(15) 0.57504(14) 0.34266(14)
C89_2 C 0.08699(17) 0.53646(14) 0.32615(15)
C90_2 C 0.11178(15) 0.53622(13) 0.29284(14)
H42_2 H 0.1201 0.5604 0.2815
Co10_3 Co 0.0000 0.60171(3) 0.60171(3)
Co13_2 Co 0.05440(3) 0.66482(2) 0.33518(2)
Co17_2 Co 0.16482(2) 0.55440(3) 0.16482(2)
Co20_2 Co 0.16482(2) 0.44560(3) 0.83518(2)
Co26_2 Co 0.16482(2) 0.55440(3) 0.83518(2)
Co27_2 Co 0.16482(2) 0.44560(3) 0.16482(2)
O43_3 O 0.0000 0.64420(10) 0.64420(10)
O44_2 O 0.04323(15) 0.63124(15) 0.43009(12)
O47_2 O 0.08029(11) 0.67172(11) 0.60771(9)
O48_2 O 0.03361(9) 0.27687(9) 0.34248(11)
O49_2 O 0.03361(9) 0.34248(11) 0.72313(9)
O51_2 O 0.03361(9) 0.72313(9) 0.65752(11)
O56_2 O 0.03361(9) 0.34248(11) 0.27687(9)
O57_2 O 0.03361(9) 0.65752(11) 0.72313(9)
O59_2 O 0.03361(9) 0.27687(9) 0.65752(11)
N16_2 N 0.10459(19) 0.30687(18) 0.30687(18)
Co1_4 Co 1.0000 0.39829(3) 0.60171(3)
O1_4 O 1.0000 0.35580(10) 0.64420(10)
O2_4 O 1.0000 0.44370(17) 0.55630(17)
Co3_4 Co 1.0000 0.39829(3) 0.39829(3)
Co4_2 Co 0.94560(3) 0.33518(2) 0.33518(2)
O9_4 O 1.0000 0.35580(10) 0.35580(10)
O10_4 O 1.0000 0.44370(17) 0.44370(17)
O11_2 O 0.95677(15) 0.36876(15) 0.43009(12)
O12_2 O 0.91971(11) 0.32828(11) 0.39229(9)
O13_2 O 0.84248(11) 0.22313(9) 0.53361(9)
C28_2 C 0.93080(15) 0.34266(14) 0.42496(14)
C29_2 C 0.9246(3) 0.3426(2) 0.5000
H16_2 H 0.9407 0.3654 0.5000
C30_2 C 0.91301(17) 0.32615(15) 0.46354(14)
C31_2 C 0.88822(15) 0.29284(14) 0.46378(13)
H17_2 H 0.8799 0.2815 0.4396
C32_2 C 0.8756(2) 0.27612(19) 0.5000
C33_2 C 0.85107(18) 0.23734(17) 0.5000
O14_2 O 0.95677(15) 0.36876(15) 0.56991(12)
O15_2 O 0.91971(11) 0.32828(11) 0.60771(9)
O16_2 O 0.84248(11) 0.22313(9) 0.46639(9)
C34_2 C 0.93080(15) 0.34266(14) 0.57504(14)
C35_2 C 0.91301(17) 0.32615(15) 0.53646(14)
C36_2 C 0.88822(15) 0.29284(14) 0.53622(13)
H18_2 H 0.8799 0.2815 0.5604
Co5_4 Co 1.0000 0.60171(3) 0.39829(3)
Co6_2 Co 0.94560(3) 0.66482(2) 0.33518(2)
O17_4 O 1.0000 0.64420(10) 0.35580(10)
O18_4 O 1.0000 0.55630(17) 0.44370(17)
O19_2 O 0.95677(15) 0.56991(12) 0.36876(15)
O20_2 O 0.91971(11) 0.60771(9) 0.32828(11)
O21_2 O 0.84248(11) 0.46639(9) 0.22313(9)
C37_2 C 0.93080(15) 0.57504(14) 0.34266(14)
C38_2 C 0.9246(3) 0.5000 0.3426(2)
H19_2 H 0.9407 0.5000 0.3654
C39_2 C 0.91301(17) 0.53646(14) 0.32615(15)
C40_2 C 0.88822(15) 0.53622(13) 0.29284(14)
H20_2 H 0.8799 0.5604 0.2815
C41_2 C 0.8756(2) 0.5000 0.27612(19)
C42_2 C 0.85107(18) 0.5000 0.23734(17)
O22_2 O 0.95677(15) 0.43009(12) 0.36876(15)
O23_2 O 0.91971(11) 0.39229(9) 0.32828(11)
O24_2 O 0.84248(11) 0.53361(9) 0.22313(9)
C43_2 C 0.93080(15) 0.42496(14) 0.34266(14)
C44_2 C 0.91301(17) 0.46354(14) 0.32615(15)
C45_2 C 0.88822(15) 0.46378(13) 0.29284(14)
H21_2 H 0.8799 0.4396 0.2815
Co7_2 Co 0.94560(3) 0.33518(2) 0.66482(2)
O25_2 O 0.95677(15) 0.43009(12) 0.63124(15)
O26_2 O 0.91971(11) 0.39229(9) 0.67172(11)
O27_2 O 0.84248(11) 0.53361(9) 0.77687(9)
N7_2 N 0.89541(19) 0.30687(18) 0.69313(18)
N8_2 N 0.7971(2) 0.2530(3) 0.7971(2)
C46_2 C 0.93080(15) 0.42496(14) 0.65734(14)
C47_2 C 0.9246(3) 0.5000 0.6574(2)
H22_2 H 0.9407 0.5000 0.6346
C48_2 C 0.91301(17) 0.46354(14) 0.67385(15)
C49_2 C 0.88822(15) 0.46378(13) 0.70716(14)
H23_2 H 0.8799 0.4396 0.7185
C50_2 C 0.8756(2) 0.5000 0.72388(19)
C51_2 C 0.85107(18) 0.5000 0.76266(17)
C52_2 C 0.8837(2) 0.3182(3) 0.7301(2)
H24_2 H 0.8930 0.3427 0.7399
C53_2 C 0.8583(3) 0.2955(3) 0.7550(3)
H25_2 H 0.8505 0.3058 0.7798
C54_2 C 0.8444(3) 0.2571(3) 0.7429(3)
C55_2 C 0.8122(3) 0.2352(2) 0.7648(2)
O28_2 O 0.95677(15) 0.56991(12) 0.63124(15)
O29_2 O 0.91971(11) 0.60771(9) 0.67172(11)
O30_2 O 0.84248(11) 0.46639(9) 0.77687(9)
C56_2 C 0.93080(15) 0.57504(14) 0.65734(14)
C57_2 C 0.91301(17) 0.53646(14) 0.67385(15)
C58_2 C 0.88822(15) 0.53622(13) 0.70716(14)
H26_2 H 0.8799 0.5604 0.7185
N9_2 N 0.69313(18) 0.10459(19) 0.69313(18)
N10_2 N 0.7971(2) 0.2029(2) 0.7470(3)
C59_2 C 0.7301(2) 0.1163(2) 0.6818(3)
H27_2 H 0.7399 0.1070 0.6573
C60_2 C 0.7550(3) 0.1417(3) 0.7045(3)
H28_2 H 0.7798 0.1495 0.6942
C61_2 C 0.7429(3) 0.1556(3) 0.7429(3)
C62_2 C 0.7648(2) 0.1878(3) 0.7648(2)
N11_2 N 0.69313(18) 0.30687(18) 0.89541(19)
N12_2 N 0.7470(3) 0.2029(2) 0.7971(2)
C63_2 C 0.6818(3) 0.2699(2) 0.8837(2)
H29_2 H 0.6573 0.2601 0.8930
C64_2 C 0.7045(3) 0.2450(3) 0.8583(3)
H30_2 H 0.6942 0.2202 0.8505
C65_2 C 0.7429(3) 0.2571(3) 0.8444(3)
C66_2 C 0.7648(2) 0.2352(2) 0.8122(3)
C67_2 C 0.7301(2) 0.3182(3) 0.8837(2)
H31_2 H 0.7399 0.3427 0.8930
C68_2 C 0.7550(3) 0.2955(3) 0.8583(3)
H32_2 H 0.7798 0.3058 0.8505
C69_2 C 0.8837(2) 0.2699(2) 0.6818(3)
H33_2 H 0.8930 0.2601 0.6573
C70_2 C 0.8583(3) 0.2450(3) 0.7045(3)
H34_2 H 0.8505 0.2202 0.6942
C71_2 C 0.6818(3) 0.1163(2) 0.7301(2)
H35_2 H 0.6573 0.1070 0.7399
C72_2 C 0.7045(3) 0.1417(3) 0.7550(3)
H36_2 H 0.6942 0.1495 0.7798
Co10_4 Co 1.0000 0.60171(3) 0.60171(3)
Co12_2 Co 0.94560(3) 0.66482(2) 0.66482(2)
Co16_2 Co 0.66482(2) 0.33518(2) 0.94560(3)
Co19_2 Co 0.83518(2) 0.55440(3) 0.83518(2)
Co21_2 Co 0.83518(2) 0.16482(2) 0.44560(3)
Co22_2 Co 0.83518(2) 0.16482(2) 0.55440(3)
Co23_2 Co 0.83518(2) 0.44560(3) 0.83518(2)
Co24_2 Co 0.83518(2) 0.44560(3) 0.16482(2)
Co28_2 Co 0.83518(2) 0.55440(3) 0.16482(2)
O43_4 O 1.0000 0.64420(10) 0.64420(10)
O45_2 O 0.95677(15) 0.63124(15) 0.43009(12)
O46_2 O 0.91971(11) 0.67172(11) 0.39229(9)
O50_2 O 0.96639(9) 0.27687(9) 0.65752(11)
O52_2 O 0.96639(9) 0.34248(11) 0.27687(9)
O53_2 O 0.96639(9) 0.72313(9) 0.34248(11)
O54_2 O 0.96639(9) 0.65752(11) 0.27687(9)
O55_2 O 0.96639(9) 0.27687(9) 0.34248(11)
O58_2 O 0.96639(9) 0.34248(11) 0.72313(9)
N13_2 N 0.89541(19) 0.30687(18) 0.30687(18)
N14_2 N 0.89541(19) 0.69313(18) 0.30687(18)
N2_2 N 0.2029(2) 0.2029(2) 0.2530(3)
C7_2 C 0.2699(2) 0.1163(2) 0.3182(3)
H3_2 H 0.2601 0.1070 0.3427
C8_2 C 0.2450(3) 0.1417(3) 0.2955(3)
H4_2 H 0.2202 0.1495 0.3058
C9_2 C 0.2571(3) 0.1556(3) 0.2571(3)
C10_2 C 0.2352(2) 0.1878(3) 0.2352(2)
N3_2 N 0.30687(18) 0.30687(18) 0.10459(19)
N4_2 N 0.2530(3) 0.2029(2) 0.2029(2)
C14_2 C 0.3182(3) 0.2699(2) 0.1163(2)
H6_2 H 0.3427 0.2601 0.1070
C15_2 C 0.2955(3) 0.2450(3) 0.1417(3)
H7_2 H 0.3058 0.2202 0.1495
C16_2 C 0.2571(3) 0.2571(3) 0.1556(3)
C17_2 C 0.2352(2) 0.2352(2) 0.1878(3)
N6_2 N 0.2029(2) 0.2530(3) 0.2029(2)
C18_2 C 0.1163(2) 0.3182(3) 0.2699(2)
H8_2 H 0.1070 0.3427 0.2601
C19_2 C 0.1417(3) 0.2955(3) 0.2450(3)
H9_2 H 0.1495 0.3058 0.2202
C20_2 C 0.1556(3) 0.2571(3) 0.2571(3)
C21_2 C 0.1878(3) 0.2352(2) 0.2352(2)
C22_2 C 0.1163(2) 0.2699(2) 0.3182(3)
H10_2 H 0.1070 0.2601 0.3427
C23_2 C 0.1417(3) 0.2450(3) 0.2955(3)
H11_2 H 0.1495 0.2202 0.3058
C24_2 C 0.3182(3) 0.1163(2) 0.2699(2)
H12_2 H 0.3427 0.1070 0.2601
C25_2 C 0.2955(3) 0.1417(3) 0.2450(3)
H13_2 H 0.3058 0.1495 0.2202
C26_2 C 0.2699(2) 0.3182(3) 0.1163(2)
H14_2 H 0.2601 0.3427 0.1070
C27_2 C 0.2450(3) 0.2955(3) 0.1417(3)
H15_2 H 0.2202 0.3058 0.1495
O18_5 O 0.55630(17) 0.0000 0.55630(17)
Co14_2 Co 0.33518(2) 0.33518(2) 0.05440(3)
O44_3 O 0.63124(15) 0.04323(15) 0.56991(12)
O18_6 O 0.55630(17) 1.0000 0.55630(17)
N8_3 N 0.2530(3) 0.7971(2) 0.2029(2)
C52_3 C 0.3182(3) 0.8837(2) 0.2699(2)
H24_3 H 0.3427 0.8930 0.2601
C53_3 C 0.2955(3) 0.8583(3) 0.2450(3)
H25_3 H 0.3058 0.8505 0.2202
C54_3 C 0.2571(3) 0.8444(3) 0.2571(3)
C55_3 C 0.2352(2) 0.8122(3) 0.2352(2)
N9_3 N 0.10459(19) 0.69313(18) 0.30687(18)
N10_3 N 0.2029(2) 0.7971(2) 0.2530(3)
C59_3 C 0.1163(2) 0.7301(2) 0.3182(3)
H27_3 H 0.1070 0.7399 0.3427
C60_3 C 0.1417(3) 0.7550(3) 0.2955(3)
H28_3 H 0.1495 0.7798 0.3058
C61_3 C 0.1556(3) 0.7429(3) 0.2571(3)
C62_3 C 0.1878(3) 0.7648(2) 0.2352(2)
N11_3 N 0.30687(18) 0.69313(18) 0.10459(19)
N12_3 N 0.2029(2) 0.7470(3) 0.2029(2)
C63_3 C 0.2699(2) 0.6818(3) 0.1163(2)
H29_3 H 0.2601 0.6573 0.1070
C64_3 C 0.2450(3) 0.7045(3) 0.1417(3)
H30_3 H 0.2202 0.6942 0.1495
C65_3 C 0.2571(3) 0.7429(3) 0.1556(3)
C66_3 C 0.2352(2) 0.7648(2) 0.1878(3)
C67_3 C 0.3182(3) 0.7301(2) 0.1163(2)
H31_3 H 0.3427 0.7399 0.1070
C68_3 C 0.2955(3) 0.7550(3) 0.1417(3)
H32_3 H 0.3058 0.7798 0.1495
C69_3 C 0.2699(2) 0.8837(2) 0.3182(3)
H33_3 H 0.2601 0.8930 0.3427
C70_3 C 0.2450(3) 0.8583(3) 0.2955(3)
H34_3 H 0.2202 0.8505 0.3058
C71_3 C 0.1163(2) 0.6818(3) 0.2699(2)
H35_3 H 0.1070 0.6573 0.2601
C72_3 C 0.1417(3) 0.7045(3) 0.2450(3)
H36_3 H 0.1495 0.6942 0.2202
Co16_3 Co 0.33518(2) 0.66482(2) 0.05440(3)
O45_3 O 0.63124(15) 0.95677(15) 0.56991(12)
Co1_5 Co 0.60171(3) 0.39829(3) -0.0000
O1_5 O 0.64420(10) 0.35580(10) -0.0000
O2_5 O 0.55630(17) 0.44370(17) -0.0000
Co3_5 Co 0.39829(3) 0.39829(3) -0.0000
O9_5 O 0.35580(10) 0.35580(10) -0.0000
O10_5 O 0.44370(17) 0.44370(17) -0.0000
O11_3 O 0.43009(12) 0.36876(15) 0.04323(15)
O12_3 O 0.39229(9) 0.32828(11) 0.08029(11)
O13_3 O 0.53361(9) 0.22313(9) 0.15752(11)
C28_3 C 0.42496(14) 0.34266(14) 0.06920(15)
C29_3 C 0.5000 0.3426(2) 0.0754(3)
H16_3 H 0.5000 0.3654 0.0593
C30_3 C 0.46354(14) 0.32615(15) 0.08699(17)
C31_3 C 0.46378(13) 0.29284(14) 0.11178(15)
H17_3 H 0.4396 0.2815 0.1201
C32_3 C 0.5000 0.27612(19) 0.1244(2)
C33_3 C 0.5000 0.23734(17) 0.14893(18)
O14_3 O 0.56991(12) 0.36876(15) 0.04323(15)
O15_3 O 0.60771(9) 0.32828(11) 0.08029(11)
O16_3 O 0.46639(9) 0.22313(9) 0.15752(11)
C34_3 C 0.57504(14) 0.34266(14) 0.06920(15)
C35_3 C 0.53646(14) 0.32615(15) 0.08699(17)
C36_3 C 0.53622(13) 0.29284(14) 0.11178(15)
H18_3 H 0.5604 0.2815 0.1201
Co5_5 Co 0.39829(3) 0.60171(3) -0.0000
O17_5 O 0.35580(10) 0.64420(10) -0.0000
O18_7 O 0.44370(17) 0.55630(17) -0.0000
O19_3 O 0.36876(15) 0.56991(12) 0.04323(15)
O20_3 O 0.32828(11) 0.60771(9) 0.08029(11)
O21_3 O 0.22313(9) 0.46639(9) 0.15752(11)
C37_3 C 0.34266(14) 0.57504(14) 0.06920(15)
C38_3 C 0.3426(2) 0.5000 0.0754(3)
H19_3 H 0.3654 0.5000 0.0593
C39_3 C 0.32615(15) 0.53646(14) 0.08699(17)
C40_3 C 0.29284(14) 0.53622(13) 0.11178(15)
H20_3 H 0.2815 0.5604 0.1201
C41_3 C 0.27612(19) 0.5000 0.1244(2)
C42_3 C 0.23734(17) 0.5000 0.14893(18)
O22_3 O 0.36876(15) 0.43009(12) 0.04323(15)
O23_3 O 0.32828(11) 0.39229(9) 0.08029(11)
O24_3 O 0.22313(9) 0.53361(9) 0.15752(11)
C43_3 C 0.34266(14) 0.42496(14) 0.06920(15)
C44_3 C 0.32615(15) 0.46354(14) 0.08699(17)
C45_3 C 0.29284(14) 0.46378(13) 0.11178(15)
H21_3 H 0.2815 0.4396 0.1201
Co7_3 Co 0.66482(2) 0.33518(2) 0.05440(3)
O25_3 O 0.63124(15) 0.43009(12) 0.04323(15)
O26_3 O 0.67172(11) 0.39229(9) 0.08029(11)
O27_3 O 0.77687(9) 0.53361(9) 0.15752(11)
N7_3 N 0.69313(18) 0.30687(18) 0.10459(19)
N8_4 N 0.7971(2) 0.2530(3) 0.2029(2)
C46_3 C 0.65734(14) 0.42496(14) 0.06920(15)
C47_3 C 0.6574(2) 0.5000 0.0754(3)
H22_3 H 0.6346 0.5000 0.0593
C48_3 C 0.67385(15) 0.46354(14) 0.08699(17)
C49_3 C 0.70716(14) 0.46378(13) 0.11178(15)
H23_3 H 0.7185 0.4396 0.1201
C50_3 C 0.72388(19) 0.5000 0.1244(2)
C51_3 C 0.76266(17) 0.5000 0.14893(18)
C52_4 C 0.7301(2) 0.3182(3) 0.1163(2)
H24_4 H 0.7399 0.3427 0.1070
C53_4 C 0.7550(3) 0.2955(3) 0.1417(3)
H25_4 H 0.7798 0.3058 0.1495
C54_4 C 0.7429(3) 0.2571(3) 0.1556(3)
C55_4 C 0.7648(2) 0.2352(2) 0.1878(3)
O28_3 O 0.63124(15) 0.56991(12) 0.04323(15)
O29_3 O 0.67172(11) 0.60771(9) 0.08029(11)
O30_3 O 0.77687(9) 0.46639(9) 0.15752(11)
C56_3 C 0.65734(14) 0.57504(14) 0.06920(15)
C57_3 C 0.67385(15) 0.53646(14) 0.08699(17)
C58_3 C 0.70716(14) 0.53622(13) 0.11178(15)
H26_3 H 0.7185 0.5604 0.1201
N10_4 N 0.7470(3) 0.2029(2) 0.2029(2)
C59_4 C 0.6818(3) 0.1163(2) 0.2699(2)
H27_4 H 0.6573 0.1070 0.2601
C60_4 C 0.7045(3) 0.1417(3) 0.2450(3)
H28_4 H 0.6942 0.1495 0.2202
C61_4 C 0.7429(3) 0.1556(3) 0.2571(3)
C62_4 C 0.7648(2) 0.1878(3) 0.2352(2)
N12_4 N 0.7971(2) 0.2029(2) 0.2530(3)
C63_4 C 0.8837(2) 0.2699(2) 0.3182(3)
H29_4 H 0.8930 0.2601 0.3427
C64_4 C 0.8583(3) 0.2450(3) 0.2955(3)
H30_4 H 0.8505 0.2202 0.3058
C65_4 C 0.8444(3) 0.2571(3) 0.2571(3)
C66_4 C 0.8122(3) 0.2352(2) 0.2352(2)
C67_4 C 0.8837(2) 0.3182(3) 0.2699(2)
H31_4 H 0.8930 0.3427 0.2601
C68_4 C 0.8583(3) 0.2955(3) 0.2450(3)
H32_4 H 0.8505 0.3058 0.2202
C69_4 C 0.6818(3) 0.2699(2) 0.1163(2)
H33_4 H 0.6573 0.2601 0.1070
C70_4 C 0.7045(3) 0.2450(3) 0.1417(3)
H34_4 H 0.6942 0.2202 0.1495
C71_4 C 0.7301(2) 0.1163(2) 0.3182(3)
H35_4 H 0.7399 0.1070 0.3427
C72_4 C 0.7550(3) 0.1417(3) 0.2955(3)
H36_4 H 0.7798 0.1495 0.3058
Co10_5 Co 0.60171(3) 0.60171(3) -0.0000
Co12_3 Co 0.66482(2) 0.66482(2) 0.05440(3)
O43_5 O 0.64420(10) 0.64420(10) -0.0000
O45_4 O 0.43009(12) 0.63124(15) 0.04323(15)
O46_3 O 0.39229(9) 0.67172(11) 0.08029(11)
O50_3 O 0.65752(11) 0.27687(9) 0.03361(9)
O52_3 O 0.27687(9) 0.34248(11) 0.03361(9)
O53_3 O 0.34248(11) 0.72313(9) 0.03361(9)
O54_3 O 0.27687(9) 0.65752(11) 0.03361(9)
O55_3 O 0.34248(11) 0.27687(9) 0.03361(9)
O58_3 O 0.72313(9) 0.34248(11) 0.03361(9)
Co1_6 Co 0.60171(3) 0.39829(3) 1.0000
O1_6 O 0.64420(10) 0.35580(10) 1.0000
O2_6 O 0.55630(17) 0.44370(17) 1.0000
O3_3 O 0.56991(12) 0.36876(15) 0.95677(15)
O4_3 O 0.60771(9) 0.32828(11) 0.91971(11)
O5_3 O 0.46639(9) 0.22313(9) 0.84248(11)
C1_3 C 0.57504(14) 0.34266(14) 0.93080(15)
C2_3 C 0.5000 0.3426(2) 0.9246(3)
H1_3 H 0.5000 0.3654 0.9407
C3_3 C 0.53646(14) 0.32615(15) 0.91301(17)
C4_3 C 0.53622(13) 0.29284(14) 0.88822(15)
H2_3 H 0.5604 0.2815 0.8799
C5_3 C 0.5000 0.27612(19) 0.8756(2)
C6_3 C 0.5000 0.23734(17) 0.85107(18)
O6_3 O 0.43009(12) 0.36876(15) 0.95677(15)
O7_3 O 0.39229(9) 0.32828(11) 0.91971(11)
O8_3 O 0.53361(9) 0.22313(9) 0.84248(11)
C11_3 C 0.42496(14) 0.34266(14) 0.93080(15)
C12_3 C 0.46354(14) 0.32615(15) 0.91301(17)
C13_3 C 0.46378(13) 0.29284(14) 0.88822(15)
H5_3 H 0.4396 0.2815 0.8799
Co3_6 Co 0.39829(3) 0.39829(3) 1.0000
O9_6 O 0.35580(10) 0.35580(10) 1.0000
O10_6 O 0.44370(17) 0.44370(17) 1.0000
Co5_6 Co 0.39829(3) 0.60171(3) 1.0000
O17_6 O 0.35580(10) 0.64420(10) 1.0000
O18_8 O 0.44370(17) 0.55630(17) 1.0000
Co8_2 Co 0.66482(2) 0.66482(2) 0.94560(3)
O31_3 O 0.63124(15) 0.56991(12) 0.95677(15)
O32_3 O 0.67172(11) 0.60771(9) 0.91971(11)
O33_3 O 0.77687(9) 0.46639(9) 0.84248(11)
C73_3 C 0.65734(14) 0.57504(14) 0.93080(15)
C74_3 C 0.6574(2) 0.5000 0.9246(3)
H37_3 H 0.6346 0.5000 0.9407
C75_3 C 0.67385(15) 0.53646(14) 0.91301(17)
C76_3 C 0.70716(14) 0.53622(13) 0.88822(15)
H38_3 H 0.7185 0.5604 0.8799
C77_3 C 0.72388(19) 0.5000 0.8756(2)
C78_3 C 0.76266(17) 0.5000 0.85107(18)
O34_3 O 0.63124(15) 0.43009(12) 0.95677(15)
O35_3 O 0.67172(11) 0.39229(9) 0.91971(11)
O36_3 O 0.77687(9) 0.53361(9) 0.84248(11)
C79_3 C 0.65734(14) 0.42496(14) 0.93080(15)
C80_3 C 0.67385(15) 0.46354(14) 0.91301(17)
C81_3 C 0.70716(14) 0.46378(13) 0.88822(15)
H39_3 H 0.7185 0.4396 0.8799
O37_3 O 0.36876(15) 0.43009(12) 0.95677(15)
O38_3 O 0.32828(11) 0.39229(9) 0.91971(11)
O39_3 O 0.22313(9) 0.53361(9) 0.84248(11)
C82_3 C 0.34266(14) 0.42496(14) 0.93080(15)
C83_3 C 0.3426(2) 0.5000 0.9246(3)
H40_3 H 0.3654 0.5000 0.9407
C84_3 C 0.32615(15) 0.46354(14) 0.91301(17)
C85_3 C 0.29284(14) 0.46378(13) 0.88822(15)
H41_3 H 0.2815 0.4396 0.8799
C86_3 C 0.27612(19) 0.5000 0.8756(2)
C87_3 C 0.23734(17) 0.5000 0.85107(18)
O40_3 O 0.36876(15) 0.56991(12) 0.95677(15)
O41_3 O 0.32828(11) 0.60771(9) 0.91971(11)
O42_3 O 0.22313(9) 0.46639(9) 0.84248(11)
C88_3 C 0.34266(14) 0.57504(14) 0.93080(15)
C89_3 C 0.32615(15) 0.53646(14) 0.91301(17)
C90_3 C 0.29284(14) 0.53622(13) 0.88822(15)
H42_3 H 0.2815 0.5604 0.8799
Co10_6 Co 0.60171(3) 0.60171(3) 1.0000
O43_6 O 0.64420(10) 0.64420(10) 1.0000
O44_4 O 0.43009(12) 0.63124(15) 0.95677(15)
O47_3 O 0.60771(9) 0.67172(11) 0.91971(11)
O48_3 O 0.34248(11) 0.27687(9) 0.96639(9)
O49_3 O 0.72313(9) 0.34248(11) 0.96639(9)
O51_3 O 0.65752(11) 0.72313(9) 0.96639(9)
O56_3 O 0.27687(9) 0.34248(11) 0.96639(9)
O57_3 O 0.72313(9) 0.65752(11) 0.96639(9)
O59_3 O 0.65752(11) 0.27687(9) 0.96639(9)
N15_2 N 0.69313(18) 0.69313(18) 0.89541(19)
O4_4 O 0.67172(11) 0.08029(11) 0.60771(9)
O5_4 O 0.77687(9) 0.15752(11) 0.46639(9)
C1_4 C 0.65734(14) 0.06920(15) 0.57504(14)
C2_4 C 0.6574(2) 0.0754(3) 0.5000
H1_4 H 0.6346 0.0593 0.5000
C3_4 C 0.67385(15) 0.08699(17) 0.53646(14)
C4_4 C 0.70716(14) 0.11178(15) 0.53622(13)
H2_4 H 0.7185 0.1201 0.5604
C5_4 C 0.72388(19) 0.1244(2) 0.5000
C6_4 C 0.76266(17) 0.14893(18) 0.5000
O8_4 O 0.77687(9) 0.15752(11) 0.53361(9)
C11_4 C 0.65734(14) 0.06920(15) 0.42496(14)
C12_4 C 0.67385(15) 0.08699(17) 0.46354(14)
C13_4 C 0.70716(14) 0.11178(15) 0.46378(13)
H5_4 H 0.7185 0.1201 0.4396
O49_4 O 0.65752(11) 0.03361(9) 0.72313(9)
O59_4 O 0.72313(9) 0.03361(9) 0.65752(11)
O12_4 O 0.67172(11) 0.91971(11) 0.39229(9)
O13_4 O 0.77687(9) 0.84248(11) 0.53361(9)
C28_4 C 0.65734(14) 0.93080(15) 0.42496(14)
C29_4 C 0.6574(2) 0.9246(3) 0.5000
H16_4 H 0.6346 0.9407 0.5000
C30_4 C 0.67385(15) 0.91301(17) 0.46354(14)
C31_4 C 0.70716(14) 0.88822(15) 0.46378(13)
H17_4 H 0.7185 0.8799 0.4396
C32_4 C 0.72388(19) 0.8756(2) 0.5000
C33_4 C 0.76266(17) 0.85107(18) 0.5000
O16_4 O 0.77687(9) 0.84248(11) 0.46639(9)
C34_4 C 0.65734(14) 0.93080(15) 0.57504(14)
C35_4 C 0.67385(15) 0.91301(17) 0.53646(14)
C36_4 C 0.70716(14) 0.88822(15) 0.53622(13)
H18_4 H 0.7185 0.8799 0.5604
N8_5 N 0.7470(3) 0.7971(2) 0.7971(2)
C52_5 C 0.6818(3) 0.8837(2) 0.7301(2)
H24_5 H 0.6573 0.8930 0.7399
C53_5 C 0.7045(3) 0.8583(3) 0.7550(3)
H25_5 H 0.6942 0.8505 0.7798
C54_5 C 0.7429(3) 0.8444(3) 0.7429(3)
C55_5 C 0.7648(2) 0.8122(3) 0.7648(2)
N9_4 N 0.89541(19) 0.69313(18) 0.69313(18)
N10_5 N 0.7971(2) 0.7971(2) 0.7470(3)
C59_5 C 0.8837(2) 0.7301(2) 0.6818(3)
H27_5 H 0.8930 0.7399 0.6573
C60_5 C 0.8583(3) 0.7550(3) 0.7045(3)
H28_5 H 0.8505 0.7798 0.6942
C61_5 C 0.8444(3) 0.7429(3) 0.7429(3)
C62_5 C 0.8122(3) 0.7648(2) 0.7648(2)
N12_5 N 0.7971(2) 0.7470(3) 0.7971(2)
C63_5 C 0.7301(2) 0.6818(3) 0.8837(2)
H29_5 H 0.7399 0.6573 0.8930
C64_5 C 0.7550(3) 0.7045(3) 0.8583(3)
H30_5 H 0.7798 0.6942 0.8505
C65_5 C 0.7429(3) 0.7429(3) 0.8444(3)
C66_5 C 0.7648(2) 0.7648(2) 0.8122(3)
C67_5 C 0.6818(3) 0.7301(2) 0.8837(2)
H31_5 H 0.6573 0.7399 0.8930
C68_5 C 0.7045(3) 0.7550(3) 0.8583(3)
H32_5 H 0.6942 0.7798 0.8505
C69_5 C 0.7301(2) 0.8837(2) 0.6818(3)
H33_5 H 0.7399 0.8930 0.6573
C70_5 C 0.7550(3) 0.8583(3) 0.7045(3)
H34_5 H 0.7798 0.8505 0.6942
C71_5 C 0.8837(2) 0.6818(3) 0.7301(2)
H35_5 H 0.8930 0.6573 0.7399
C72_5 C 0.8583(3) 0.7045(3) 0.7550(3)
H36_5 H 0.8505 0.6942 0.7798
Co21_3 Co 0.83518(2) 0.83518(2) 0.44560(3)
Co22_3 Co 0.83518(2) 0.83518(2) 0.55440(3)
O52_4 O 0.65752(11) 0.96639(9) 0.27687(9)
O55_4 O 0.72313(9) 0.96639(9) 0.34248(11)
N13_3 N 0.69313(18) 0.89541(19) 0.30687(18)
O4_5 O 0.08029(11) 0.67172(11) 0.39229(9)
O5_5 O 0.15752(11) 0.77687(9) 0.53361(9)
C1_5 C 0.06920(15) 0.65734(14) 0.42496(14)
C2_5 C 0.0754(3) 0.6574(2) 0.5000
H1_5 H 0.0593 0.6346 0.5000
C3_5 C 0.08699(17) 0.67385(15) 0.46354(14)
C4_5 C 0.11178(15) 0.70716(14) 0.46378(13)
H2_5 H 0.1201 0.7185 0.4396
C5_5 C 0.1244(2) 0.72388(19) 0.5000
C6_5 C 0.14893(18) 0.76266(17) 0.5000
O6_4 O 0.04323(15) 0.63124(15) 0.56991(12)
O8_5 O 0.15752(11) 0.77687(9) 0.46639(9)
C11_5 C 0.06920(15) 0.65734(14) 0.57504(14)
C12_5 C 0.08699(17) 0.67385(15) 0.53646(14)
C13_5 C 0.11178(15) 0.70716(14) 0.53622(13)
H5_5 H 0.1201 0.7185 0.5604
O10_7 O 0.0000 0.55630(17) 0.55630(17)
O49_5 O 0.03361(9) 0.65752(11) 0.27687(9)
O59_5 O 0.03361(9) 0.72313(9) 0.34248(11)
O10_8 O 1.0000 0.55630(17) 0.55630(17)
O11_4 O 0.95677(15) 0.63124(15) 0.56991(12)
O12_5 O 0.91971(11) 0.67172(11) 0.60771(9)
O13_5 O 0.84248(11) 0.77687(9) 0.46639(9)
C28_5 C 0.93080(15) 0.65734(14) 0.57504(14)
C29_5 C 0.9246(3) 0.6574(2) 0.5000
H16_5 H 0.9407 0.6346 0.5000
C30_5 C 0.91301(17) 0.67385(15) 0.53646(14)
C31_5 C 0.88822(15) 0.70716(14) 0.53622(13)
H17_5 H 0.8799 0.7185 0.5604
C32_5 C 0.8756(2) 0.72388(19) 0.5000
C33_5 C 0.85107(18) 0.76266(17) 0.5000
O16_5 O 0.84248(11) 0.77687(9) 0.53361(9)
C34_5 C 0.93080(15) 0.65734(14) 0.42496(14)
C35_5 C 0.91301(17) 0.67385(15) 0.46354(14)
C36_5 C 0.88822(15) 0.70716(14) 0.46378(13)
H18_5 H 0.8799 0.7185 0.4396
N8_6 N 0.7971(2) 0.7470(3) 0.2029(2)
C52_6 C 0.8837(2) 0.6818(3) 0.2699(2)
H24_6 H 0.8930 0.6573 0.2601
C53_6 C 0.8583(3) 0.7045(3) 0.2450(3)
H25_6 H 0.8505 0.6942 0.2202
C54_6 C 0.8444(3) 0.7429(3) 0.2571(3)
C55_6 C 0.8122(3) 0.7648(2) 0.2352(2)
N10_6 N 0.7971(2) 0.7971(2) 0.2530(3)
C59_6 C 0.7301(2) 0.8837(2) 0.3182(3)
H27_6 H 0.7399 0.8930 0.3427
C60_6 C 0.7550(3) 0.8583(3) 0.2955(3)
H28_6 H 0.7798 0.8505 0.3058
C61_6 C 0.7429(3) 0.8444(3) 0.2571(3)
C62_6 C 0.7648(2) 0.8122(3) 0.2352(2)
N11_4 N 0.69313(18) 0.69313(18) 0.10459(19)
N12_6 N 0.7470(3) 0.7971(2) 0.2029(2)
C63_6 C 0.6818(3) 0.7301(2) 0.1163(2)
H29_6 H 0.6573 0.7399 0.1070
C64_6 C 0.7045(3) 0.7550(3) 0.1417(3)
H30_6 H 0.6942 0.7798 0.1495
C65_6 C 0.7429(3) 0.7429(3) 0.1556(3)
C66_6 C 0.7648(2) 0.7648(2) 0.1878(3)
C67_6 C 0.7301(2) 0.6818(3) 0.1163(2)
H31_6 H 0.7399 0.6573 0.1070
C68_6 C 0.7550(3) 0.7045(3) 0.1417(3)
H32_6 H 0.7798 0.6942 0.1495
C69_6 C 0.8837(2) 0.7301(2) 0.3182(3)
H33_6 H 0.8930 0.7399 0.3427
C70_6 C 0.8583(3) 0.7550(3) 0.2955(3)
H34_6 H 0.8505 0.7798 0.3058
C71_6 C 0.6818(3) 0.8837(2) 0.2699(2)
H35_6 H 0.6573 0.8930 0.2601
C72_6 C 0.7045(3) 0.8583(3) 0.2450(3)
H36_6 H 0.6942 0.8505 0.2202
O52_5 O 0.96639(9) 0.65752(11) 0.72313(9)
O55_5 O 0.96639(9) 0.72313(9) 0.65752(11)
O2_7 O 0.55630(17) 0.55630(17) -0.0000
O25_4 O 0.56991(12) 0.63124(15) 0.04323(15)
O26_4 O 0.60771(9) 0.67172(11) 0.08029(11)
O27_4 O 0.46639(9) 0.77687(9) 0.15752(11)
C46_4 C 0.57504(14) 0.65734(14) 0.06920(15)
C47_4 C 0.5000 0.6574(2) 0.0754(3)
H22_4 H 0.5000 0.6346 0.0593
C48_4 C 0.53646(14) 0.67385(15) 0.08699(17)
C49_4 C 0.53622(13) 0.70716(14) 0.11178(15)
H23_4 H 0.5604 0.7185 0.1201
C50_4 C 0.5000 0.72388(19) 0.1244(2)
C51_4 C 0.5000 0.76266(17) 0.14893(18)
O30_4 O 0.53361(9) 0.77687(9) 0.15752(11)
C56_4 C 0.42496(14) 0.65734(14) 0.06920(15)
C57_4 C 0.46354(14) 0.67385(15) 0.08699(17)
C58_4 C 0.46378(13) 0.70716(14) 0.11178(15)
H26_4 H 0.4396 0.7185 0.1201
O50_4 O 0.72313(9) 0.65752(11) 0.03361(9)
O58_4 O 0.65752(11) 0.72313(9) 0.03361(9)
O2_8 O 0.55630(17) 0.55630(17) 1.0000
O32_4 O 0.39229(9) 0.67172(11) 0.91971(11)
O33_4 O 0.53361(9) 0.77687(9) 0.84248(11)
C73_4 C 0.42496(14) 0.65734(14) 0.93080(15)
C74_4 C 0.5000 0.6574(2) 0.9246(3)
H37_4 H 0.5000 0.6346 0.9407
C75_4 C 0.46354(14) 0.67385(15) 0.91301(17)
C76_4 C 0.46378(13) 0.70716(14) 0.88822(15)
H38_4 H 0.4396 0.7185 0.8799
C77_4 C 0.5000 0.72388(19) 0.8756(2)
C78_4 C 0.5000 0.76266(17) 0.85107(18)
O34_4 O 0.56991(12) 0.63124(15) 0.95677(15)
O36_4 O 0.46639(9) 0.77687(9) 0.84248(11)
C79_4 C 0.57504(14) 0.65734(14) 0.93080(15)
C80_4 C 0.53646(14) 0.67385(15) 0.91301(17)
C81_4 C 0.53622(13) 0.70716(14) 0.88822(15)
H39_4 H 0.5604 0.7185 0.8799
O51_4 O 0.27687(9) 0.65752(11) 0.96639(9)
O57_4 O 0.34248(11) 0.72313(9) 0.96639(9)
C47_5 C -0.0000 0.5754(3) 0.1574(2)
H22_5 H -0.0000 0.5593 0.1346
C50_5 C -0.0000 0.6244(2) 0.22388(19)
C51_5 C -0.0000 0.64893(18) 0.26266(17)
O28_4 O 0.06991(12) 0.54323(15) 0.13124(15)
O29_4 O 0.10771(9) 0.58029(11) 0.17172(11)
C56_5 C 0.07504(14) 0.56920(15) 0.15734(14)
C57_5 C 0.03646(14) 0.58699(17) 0.17385(15)
C58_5 C 0.03622(13) 0.61178(15) 0.20716(14)
H26_5 H 0.0604 0.6201 0.2185
O31_4 O 0.06991(12) 0.45677(15) 0.13124(15)
O32_5 O 0.10771(9) 0.41971(11) 0.17172(11)
C73_5 C 0.07504(14) 0.43080(15) 0.15734(14)
C74_5 C -0.0000 0.4246(3) 0.1574(2)
H37_5 H -0.0000 0.4407 0.1346
C75_5 C 0.03646(14) 0.41301(17) 0.17385(15)
C76_5 C 0.03622(13) 0.38822(15) 0.20716(14)
H38_5 H 0.0604 0.3799 0.2185
C77_5 C 0.0000 0.3756(2) 0.22388(19)
C78_5 C -0.0000 0.35107(18) 0.26266(17)
Co10_7 Co 0.10171(3) 0.5000 0.10171(3)
O43_7 O 0.14420(10) 0.5000 0.14420(10)
O47_4 O 0.17172(11) 0.41971(11) 0.10771(9)
N15_3 N 0.19313(18) 0.39541(19) 0.19313(18)
Co5_7 Co 0.10171(3) 0.5000 0.89829(3)
O17_7 O 0.14420(10) 0.5000 0.85580(10)
O18_9 O 0.05630(17) 0.5000 0.94370(17)
O19_4 O 0.06991(12) 0.54323(15) 0.86876(15)
O20_4 O 0.10771(9) 0.58029(11) 0.82828(11)
C37_4 C 0.07504(14) 0.56920(15) 0.84266(14)
C38_4 C 0.0000 0.5754(3) 0.8426(2)
H19_4 H 0.0000 0.5593 0.8654
C39_4 C 0.03646(14) 0.58699(17) 0.82615(15)
C40_4 C 0.03622(13) 0.61178(15) 0.79284(14)
H20_4 H 0.0604 0.6201 0.7815
C41_4 C 0.0000 0.6244(2) 0.77612(19)
C42_4 C 0.0000 0.64893(18) 0.73734(17)
C83_4 C -0.0000 0.4246(3) 0.8426(2)
H40_4 H 0.0000 0.4407 0.8654
C86_4 C 0.0000 0.3756(2) 0.77612(19)
C87_4 C -0.0000 0.35107(18) 0.73734(17)
O40_4 O 0.06991(12) 0.45677(15) 0.86876(15)
O41_4 O 0.10771(9) 0.41971(11) 0.82828(11)
C88_4 C 0.07504(14) 0.43080(15) 0.84266(14)
C89_4 C 0.03646(14) 0.41301(17) 0.82615(15)
C90_4 C 0.03622(13) 0.38822(15) 0.79284(14)
H42_4 H 0.0604 0.3799 0.7815
O44_5 O 0.13124(15) 0.45677(15) 0.93009(12)
O45_5 O 0.13124(15) 0.54323(15) 0.93009(12)
O46_4 O 0.17172(11) 0.58029(11) 0.89229(9)
N14_3 N 0.19313(18) 0.60459(19) 0.80687(18)
Co1_7 Co 0.89829(3) 0.5000 0.10171(3)
O1_7 O 0.85580(10) 0.5000 0.14420(10)
O2_9 O 0.94370(17) 0.5000 0.05630(17)
O3_4 O 0.86876(15) 0.45677(15) 0.06991(12)
O4_6 O 0.82828(11) 0.41971(11) 0.10771(9)
N1_2 N 0.80687(18) 0.39541(19) 0.19313(18)
N2_3 N 0.7029(2) 0.2971(2) 0.2470(3)
C1_6 C 0.84266(14) 0.43080(15) 0.07504(14)
C2_6 C 0.8426(2) 0.4246(3) -0.0000
H1_6 H 0.8654 0.4407 -0.0000
C3_6 C 0.82615(15) 0.41301(17) 0.03646(14)
C4_6 C 0.79284(14) 0.38822(15) 0.03622(13)
H2_6 H 0.7815 0.3799 0.0604
C5_6 C 0.77612(19) 0.3756(2) -0.0000
C6_6 C 0.73734(17) 0.35107(18) -0.0000
C7_3 C 0.7699(2) 0.3837(2) 0.1818(3)
H3_3 H 0.7601 0.3930 0.1573
C8_3 C 0.7450(3) 0.3583(3) 0.2045(3)
H4_3 H 0.7202 0.3505 0.1942
C9_3 C 0.7571(3) 0.3444(3) 0.2429(3)
C10_3 C 0.7352(2) 0.3122(3) 0.2648(2)
N3_3 N 0.80687(18) 0.19313(18) 0.39541(19)
N4_3 N 0.7530(3) 0.2971(2) 0.2971(2)
C14_3 C 0.8182(3) 0.2301(2) 0.3837(2)
H6_3 H 0.8427 0.2399 0.3930
C15_3 C 0.7955(3) 0.2550(3) 0.3583(3)
H7_3 H 0.8058 0.2798 0.3505
C16_3 C 0.7571(3) 0.2429(3) 0.3444(3)
C17_3 C 0.7352(2) 0.2648(2) 0.3122(3)
N5_2 N 0.60459(19) 0.19313(18) 0.19313(18)
N6_3 N 0.7029(2) 0.2470(3) 0.2971(2)
C18_3 C 0.6163(2) 0.1818(3) 0.2301(2)
H8_3 H 0.6070 0.1573 0.2399
C19_3 C 0.6417(3) 0.2045(3) 0.2550(3)
H9_3 H 0.6495 0.1942 0.2798
C20_3 C 0.6556(3) 0.2429(3) 0.2429(3)
C21_3 C 0.6878(3) 0.2648(2) 0.2648(2)
C22_3 C 0.6163(2) 0.2301(2) 0.1818(3)
H10_3 H 0.6070 0.2399 0.1573
C23_3 C 0.6417(3) 0.2550(3) 0.2045(3)
H11_3 H 0.6495 0.2798 0.1942
C24_3 C 0.8182(3) 0.3837(2) 0.2301(2)
H12_3 H 0.8427 0.3930 0.2399
C25_3 C 0.7955(3) 0.3583(3) 0.2550(3)
H13_3 H 0.8058 0.3505 0.2798
C26_3 C 0.7699(2) 0.1818(3) 0.3837(2)
H14_3 H 0.7601 0.1573 0.3930
C27_3 C 0.7450(3) 0.2045(3) 0.3583(3)
H15_3 H 0.7202 0.1942 0.3505
C29_6 C 0.8426(2) 0.5754(3) -0.0000
H16_6 H 0.8654 0.5593 -0.0000
C32_6 C 0.77612(19) 0.6244(2) -0.0000
C33_6 C 0.73734(17) 0.64893(18) -0.0000
O14_4 O 0.86876(15) 0.54323(15) 0.06991(12)
O15_4 O 0.82828(11) 0.58029(11) 0.10771(9)
C34_6 C 0.84266(14) 0.56920(15) 0.07504(14)
C35_6 C 0.82615(15) 0.58699(17) 0.03646(14)
C36_6 C 0.79284(14) 0.61178(15) 0.03622(13)
H18_6 H 0.7815 0.6201 0.0604
O25_5 O 0.93009(12) 0.54323(15) 0.13124(15)
O26_5 O 0.89229(9) 0.58029(11) 0.17172(11)
N7_4 N 0.80687(18) 0.60459(19) 0.19313(18)
N8_7 N 0.7530(3) 0.7029(2) 0.2971(2)
C46_5 C 0.92496(14) 0.56920(15) 0.15734(14)
C47_6 C 1.0000 0.5754(3) 0.1574(2)
H22_6 H 1.0000 0.5593 0.1346
C48_5 C 0.96354(14) 0.58699(17) 0.17385(15)
C49_5 C 0.96378(13) 0.61178(15) 0.20716(14)
H23_5 H 0.9396 0.6201 0.2185
C50_6 C 1.0000 0.6244(2) 0.22388(19)
C51_6 C 1.0000 0.64893(18) 0.26266(17)
C52_7 C 0.8182(3) 0.6163(2) 0.2301(2)
H24_7 H 0.8427 0.6070 0.2399
C53_7 C 0.7955(3) 0.6417(3) 0.2550(3)
H25_7 H 0.8058 0.6495 0.2798
C54_7 C 0.7571(3) 0.6556(3) 0.2429(3)
C55_7 C 0.7352(2) 0.6878(3) 0.2648(2)
N9_5 N 0.60459(19) 0.80687(18) 0.19313(18)
N10_7 N 0.7029(2) 0.7029(2) 0.2470(3)
C59_7 C 0.6163(2) 0.7699(2) 0.1818(3)
H27_7 H 0.6070 0.7601 0.1573
C60_7 C 0.6417(3) 0.7450(3) 0.2045(3)
H28_7 H 0.6495 0.7202 0.1942
C61_7 C 0.6556(3) 0.7571(3) 0.2429(3)
C62_7 C 0.6878(3) 0.7352(2) 0.2648(2)
N11_5 N 0.80687(18) 0.80687(18) 0.39541(19)
N12_7 N 0.7029(2) 0.7530(3) 0.2971(2)
C63_7 C 0.7699(2) 0.8182(3) 0.3837(2)
H29_7 H 0.7601 0.8427 0.3930
C64_7 C 0.7450(3) 0.7955(3) 0.3583(3)
H30_7 H 0.7202 0.8058 0.3505
C65_7 C 0.7571(3) 0.7571(3) 0.3444(3)
C66_7 C 0.7352(2) 0.7352(2) 0.3122(3)
C67_7 C 0.8182(3) 0.7699(2) 0.3837(2)
H31_7 H 0.8427 0.7601 0.3930
C68_7 C 0.7955(3) 0.7450(3) 0.3583(3)
H32_7 H 0.8058 0.7202 0.3505
C69_7 C 0.7699(2) 0.6163(2) 0.1818(3)
H33_7 H 0.7601 0.6070 0.1573
C70_7 C 0.7450(3) 0.6417(3) 0.2045(3)
H34_7 H 0.7202 0.6495 0.1942
C71_7 C 0.6163(2) 0.8182(3) 0.2301(2)
H35_7 H 0.6070 0.8427 0.2399
C72_7 C 0.6417(3) 0.7955(3) 0.2550(3)
H36_7 H 0.6495 0.8058 0.2798
C74_6 C 1.0000 0.4246(3) 0.1574(2)
H37_6 H 1.0000 0.4407 0.1346
C77_6 C 1.0000 0.3756(2) 0.22388(19)
C78_6 C 1.0000 0.35107(18) 0.26266(17)
O34_5 O 0.93009(12) 0.45677(15) 0.13124(15)
O35_4 O 0.89229(9) 0.41971(11) 0.17172(11)
C79_5 C 0.92496(14) 0.43080(15) 0.15734(14)
C80_5 C 0.96354(14) 0.41301(17) 0.17385(15)
C81_5 C 0.96378(13) 0.38822(15) 0.20716(14)
H39_5 H 0.9396 0.3799 0.2185
C2_7 C 0.8426(2) 0.4246(3) 1.0000
H1_7 H 0.8654 0.4407 1.0000
C5_7 C 0.77612(19) 0.3756(2) 1.0000
C6_7 C 0.73734(17) 0.35107(18) 1.0000
O6_5 O 0.86876(15) 0.45677(15) 0.93009(12)
O7_4 O 0.82828(11) 0.41971(11) 0.89229(9)
C11_6 C 0.84266(14) 0.43080(15) 0.92496(14)
C12_6 C 0.82615(15) 0.41301(17) 0.96354(14)
C13_6 C 0.79284(14) 0.38822(15) 0.96378(13)
H5_6 H 0.7815 0.3799 0.9396
Co3_7 Co 0.89829(3) 0.5000 0.89829(3)
O9_7 O 0.85580(10) 0.5000 0.85580(10)
O10_9 O 0.94370(17) 0.5000 0.94370(17)
O11_5 O 0.86876(15) 0.54323(15) 0.93009(12)
O12_6 O 0.82828(11) 0.58029(11) 0.89229(9)
C28_6 C 0.84266(14) 0.56920(15) 0.92496(14)
C29_7 C 0.8426(2) 0.5754(3) 1.0000
H16_7 H 0.8654 0.5593 1.0000
C30_6 C 0.82615(15) 0.58699(17) 0.96354(14)
C31_6 C 0.79284(14) 0.61178(15) 0.96378(13)
H17_6 H 0.7815 0.6201 0.9396
C32_7 C 0.77612(19) 0.6244(2) 1.0000
C33_7 C 0.73734(17) 0.64893(18) 1.0000
C38_5 C 1.0000 0.5754(3) 0.8426(2)
H19_5 H 1.0000 0.5593 0.8654
C41_5 C 1.0000 0.6244(2) 0.77612(19)
C42_5 C 1.0000 0.64893(18) 0.73734(17)
O22_4 O 0.93009(12) 0.54323(15) 0.86876(15)
O23_4 O 0.89229(9) 0.58029(11) 0.82828(11)
C43_4 C 0.92496(14) 0.56920(15) 0.84266(14)
C44_4 C 0.96354(14) 0.58699(17) 0.82615(15)
C45_4 C 0.96378(13) 0.61178(15) 0.79284(14)
H21_4 H 0.9396 0.6201 0.7815
O37_4 O 0.93009(12) 0.45677(15) 0.86876(15)
O38_4 O 0.89229(9) 0.41971(11) 0.82828(11)
C82_4 C 0.92496(14) 0.43080(15) 0.84266(14)
C83_5 C 1.0000 0.4246(3) 0.8426(2)
H40_5 H 1.0000 0.4407 0.8654
C84_4 C 0.96354(14) 0.41301(17) 0.82615(15)
C85_4 C 0.96378(13) 0.38822(15) 0.79284(14)
H41_4 H 0.9396 0.3799 0.7815
C86_5 C 1.0000 0.3756(2) 0.77612(19)
C87_5 C 1.0000 0.35107(18) 0.73734(17)
N13_4 N 0.80687(18) 0.60459(19) 0.80687(18)
N16_3 N 0.80687(18) 0.39541(19) 0.80687(18)
C47_7 C 0.4246(3) -0.0000 0.1574(2)
H22_7 H 0.4407 -0.0000 0.1346
C50_7 C 0.3756(2) -0.0000 0.22388(19)
C51_7 C 0.35107(18) -0.0000 0.26266(17)
O28_5 O 0.45677(15) 0.06991(12) 0.13124(15)
O29_5 O 0.41971(11) 0.10771(9) 0.17172(11)
C56_6 C 0.43080(15) 0.07504(14) 0.15734(14)
C57_6 C 0.41301(17) 0.03646(14) 0.17385(15)
C58_6 C 0.38822(15) 0.03622(13) 0.20716(14)
H26_6 H 0.3799 0.0604 0.2185
O31_5 O 0.54323(15) 0.06991(12) 0.13124(15)
O32_6 O 0.58029(11) 0.10771(9) 0.17172(11)
C73_6 C 0.56920(15) 0.07504(14) 0.15734(14)
C74_7 C 0.5754(3) -0.0000 0.1574(2)
H37_7 H 0.5593 -0.0000 0.1346
C75_6 C 0.58699(17) 0.03646(14) 0.17385(15)
C76_6 C 0.61178(15) 0.03622(13) 0.20716(14)
H38_6 H 0.6201 0.0604 0.2185
C77_7 C 0.6244(2) 0.0000 0.22388(19)
C78_7 C 0.64893(18) -0.0000 0.26266(17)
Co10_8 Co 0.5000 0.10171(3) 0.10171(3)
O43_8 O 0.5000 0.14420(10) 0.14420(10)
O47_5 O 0.58029(11) 0.17172(11) 0.10771(9)
Co5_8 Co 0.5000 0.10171(3) 0.89829(3)
O17_8 O 0.5000 0.14420(10) 0.85580(10)
O18_10 O 0.5000 0.05630(17) 0.94370(17)
O19_5 O 0.45677(15) 0.06991(12) 0.86876(15)
O20_5 O 0.41971(11) 0.10771(9) 0.82828(11)
C37_5 C 0.43080(15) 0.07504(14) 0.84266(14)
C38_6 C 0.4246(3) 0.0000 0.8426(2)
H19_6 H 0.4407 0.0000 0.8654
C39_5 C 0.41301(17) 0.03646(14) 0.82615(15)
C40_5 C 0.38822(15) 0.03622(13) 0.79284(14)
H20_5 H 0.3799 0.0604 0.7815
C41_6 C 0.3756(2) 0.0000 0.77612(19)
C42_6 C 0.35107(18) 0.0000 0.73734(17)
C83_6 C 0.5754(3) 0.0000 0.8426(2)
H40_6 H 0.5593 0.0000 0.8654
C86_6 C 0.6244(2) 0.0000 0.77612(19)
C87_6 C 0.64893(18) -0.0000 0.73734(17)
O40_5 O 0.54323(15) 0.06991(12) 0.86876(15)
O41_5 O 0.58029(11) 0.10771(9) 0.82828(11)
C88_5 C 0.56920(15) 0.07504(14) 0.84266(14)
C89_5 C 0.58699(17) 0.03646(14) 0.82615(15)
C90_5 C 0.61178(15) 0.03622(13) 0.79284(14)
H42_5 H 0.6201 0.0604 0.7815
O44_6 O 0.54323(15) 0.13124(15) 0.93009(12)
O45_6 O 0.45677(15) 0.13124(15) 0.93009(12)
O46_5 O 0.41971(11) 0.17172(11) 0.89229(9)
N14_4 N 0.39541(19) 0.19313(18) 0.80687(18)
Co1_8 Co 0.5000 0.89829(3) 0.10171(3)
O1_8 O 0.5000 0.85580(10) 0.14420(10)
O2_10 O 0.5000 0.94370(17) 0.05630(17)
O3_5 O 0.54323(15) 0.86876(15) 0.06991(12)
O4_7 O 0.58029(11) 0.82828(11) 0.10771(9)
C1_7 C 0.56920(15) 0.84266(14) 0.07504(14)
C2_8 C 0.5754(3) 0.8426(2) -0.0000
H1_8 H 0.5593 0.8654 -0.0000
C3_7 C 0.58699(17) 0.82615(15) 0.03646(14)
C4_7 C 0.61178(15) 0.79284(14) 0.03622(13)
H2_7 H 0.6201 0.7815 0.0604
C5_8 C 0.6244(2) 0.77612(19) -0.0000
C6_8 C 0.64893(18) 0.73734(17) -0.0000
C29_8 C 0.4246(3) 0.8426(2) -0.0000
H16_8 H 0.4407 0.8654 -0.0000
C32_8 C 0.3756(2) 0.77612(19) -0.0000
C33_8 C 0.35107(18) 0.73734(17) -0.0000
O14_5 O 0.45677(15) 0.86876(15) 0.06991(12)
O15_5 O 0.41971(11) 0.82828(11) 0.10771(9)
C34_7 C 0.43080(15) 0.84266(14) 0.07504(14)
C35_7 C 0.41301(17) 0.82615(15) 0.03646(14)
C36_7 C 0.38822(15) 0.79284(14) 0.03622(13)
H18_7 H 0.3799 0.7815 0.0604
O25_6 O 0.45677(15) 0.93009(12) 0.13124(15)
O26_6 O 0.41971(11) 0.89229(9) 0.17172(11)
N7_5 N 0.39541(19) 0.80687(18) 0.19313(18)
N8_8 N 0.2971(2) 0.7530(3) 0.2971(2)
C46_6 C 0.43080(15) 0.92496(14) 0.15734(14)
C47_8 C 0.4246(3) 1.0000 0.1574(2)
H22_8 H 0.4407 1.0000 0.1346
C48_6 C 0.41301(17) 0.96354(14) 0.17385(15)
C49_6 C 0.38822(15) 0.96378(13) 0.20716(14)
H23_6 H 0.3799 0.9396 0.2185
C50_8 C 0.3756(2) 1.0000 0.22388(19)
C51_8 C 0.35107(18) 1.0000 0.26266(17)
C52_8 C 0.3837(2) 0.8182(3) 0.2301(2)
H24_8 H 0.3930 0.8427 0.2399
C53_8 C 0.3583(3) 0.7955(3) 0.2550(3)
H25_8 H 0.3505 0.8058 0.2798
C54_8 C 0.3444(3) 0.7571(3) 0.2429(3)
C55_8 C 0.3122(3) 0.7352(2) 0.2648(2)
N9_6 N 0.19313(18) 0.60459(19) 0.19313(18)
N10_8 N 0.2971(2) 0.7029(2) 0.2470(3)
C59_8 C 0.2301(2) 0.6163(2) 0.1818(3)
H27_8 H 0.2399 0.6070 0.1573
C60_8 C 0.2550(3) 0.6417(3) 0.2045(3)
H28_8 H 0.2798 0.6495 0.1942
C61_8 C 0.2429(3) 0.6556(3) 0.2429(3)
C62_8 C 0.2648(2) 0.6878(3) 0.2648(2)
N11_6 N 0.19313(18) 0.80687(18) 0.39541(19)
N12_8 N 0.2470(3) 0.7029(2) 0.2971(2)
C63_8 C 0.1818(3) 0.7699(2) 0.3837(2)
H29_8 H 0.1573 0.7601 0.3930
C64_8 C 0.2045(3) 0.7450(3) 0.3583(3)
H30_8 H 0.1942 0.7202 0.3505
C65_8 C 0.2429(3) 0.7571(3) 0.3444(3)
C66_8 C 0.2648(2) 0.7352(2) 0.3122(3)
C67_8 C 0.2301(2) 0.8182(3) 0.3837(2)
H31_8 H 0.2399 0.8427 0.3930
C68_8 C 0.2550(3) 0.7955(3) 0.3583(3)
H32_8 H 0.2798 0.8058 0.3505
C69_8 C 0.3837(2) 0.7699(2) 0.1818(3)
H33_8 H 0.3930 0.7601 0.1573
C70_8 C 0.3583(3) 0.7450(3) 0.2045(3)
H34_8 H 0.3505 0.7202 0.1942
C71_8 C 0.1818(3) 0.6163(2) 0.2301(2)
H35_8 H 0.1573 0.6070 0.2399
C72_8 C 0.2045(3) 0.6417(3) 0.2550(3)
H36_8 H 0.1942 0.6495 0.2798
C74_8 C 0.5754(3) 1.0000 0.1574(2)
H37_8 H 0.5593 1.0000 0.1346
C77_8 C 0.6244(2) 1.0000 0.22388(19)
C78_8 C 0.64893(18) 1.0000 0.26266(17)
O34_6 O 0.54323(15) 0.93009(12) 0.13124(15)
O35_5 O 0.58029(11) 0.89229(9) 0.17172(11)
C79_6 C 0.56920(15) 0.92496(14) 0.15734(14)
C80_6 C 0.58699(17) 0.96354(14) 0.17385(15)
C81_6 C 0.61178(15) 0.96378(13) 0.20716(14)
H39_6 H 0.6201 0.9396 0.2185
C2_9 C 0.5754(3) 0.8426(2) 1.0000
H1_9 H 0.5593 0.8654 1.0000
C5_9 C 0.6244(2) 0.77612(19) 1.0000
C6_9 C 0.64893(18) 0.73734(17) 1.0000
O6_6 O 0.54323(15) 0.86876(15) 0.93009(12)
O7_5 O 0.58029(11) 0.82828(11) 0.89229(9)
C11_7 C 0.56920(15) 0.84266(14) 0.92496(14)
C12_7 C 0.58699(17) 0.82615(15) 0.96354(14)
C13_7 C 0.61178(15) 0.79284(14) 0.96378(13)
H5_7 H 0.6201 0.7815 0.9396
Co3_8 Co 0.5000 0.89829(3) 0.89829(3)
O9_8 O 0.5000 0.85580(10) 0.85580(10)
O10_10 O 0.5000 0.94370(17) 0.94370(17)
O11_6 O 0.45677(15) 0.86876(15) 0.93009(12)
O12_7 O 0.41971(11) 0.82828(11) 0.89229(9)
C28_7 C 0.43080(15) 0.84266(14) 0.92496(14)
C29_9 C 0.4246(3) 0.8426(2) 1.0000
H16_9 H 0.4407 0.8654 1.0000
C30_7 C 0.41301(17) 0.82615(15) 0.96354(14)
C31_7 C 0.38822(15) 0.79284(14) 0.96378(13)
H17_7 H 0.3799 0.7815 0.9396
C32_9 C 0.3756(2) 0.77612(19) 1.0000
C33_9 C 0.35107(18) 0.73734(17) 1.0000
C38_7 C 0.4246(3) 1.0000 0.8426(2)
H19_7 H 0.4407 1.0000 0.8654
C41_7 C 0.3756(2) 1.0000 0.77612(19)
C42_7 C 0.35107(18) 1.0000 0.73734(17)
O22_5 O 0.45677(15) 0.93009(12) 0.86876(15)
O23_5 O 0.41971(11) 0.89229(9) 0.82828(11)
C43_5 C 0.43080(15) 0.92496(14) 0.84266(14)
C44_5 C 0.41301(17) 0.96354(14) 0.82615(15)
C45_5 C 0.38822(15) 0.96378(13) 0.79284(14)
H21_5 H 0.3799 0.9396 0.7815
O37_5 O 0.54323(15) 0.93009(12) 0.86876(15)
O38_5 O 0.58029(11) 0.89229(9) 0.82828(11)
C82_5 C 0.56920(15) 0.92496(14) 0.84266(14)
C83_7 C 0.5754(3) 1.0000 0.8426(2)
H40_7 H 0.5593 1.0000 0.8654
C84_5 C 0.58699(17) 0.96354(14) 0.82615(15)
C85_5 C 0.61178(15) 0.96378(13) 0.79284(14)
H41_5 H 0.6201 0.9396 0.7815
C86_7 C 0.6244(2) 1.0000 0.77612(19)
C87_7 C 0.64893(18) 1.0000 0.73734(17)
N13_5 N 0.39541(19) 0.80687(18) 0.80687(18)
N16_4 N 0.60459(19) 0.80687(18) 0.80687(18)
O18_11 O 0.05630(17) 0.5000 0.05630(17)
O44_7 O 0.13124(15) 0.54323(15) 0.06991(12)
O45_7 O 0.13124(15) 0.45677(15) 0.06991(12)
N2_4 N 0.7029(2) 0.7029(2) 0.7530(3)
C7_4 C 0.7699(2) 0.6163(2) 0.8182(3)
H3_4 H 0.7601 0.6070 0.8427
C8_4 C 0.7450(3) 0.6417(3) 0.7955(3)
H4_4 H 0.7202 0.6495 0.8058
C9_4 C 0.7571(3) 0.6556(3) 0.7571(3)
C10_4 C 0.7352(2) 0.6878(3) 0.7352(2)
N3_4 N 0.80687(18) 0.80687(18) 0.60459(19)
N4_4 N 0.7530(3) 0.7029(2) 0.7029(2)
C14_4 C 0.8182(3) 0.7699(2) 0.6163(2)
H6_4 H 0.8427 0.7601 0.6070
C15_4 C 0.7955(3) 0.7450(3) 0.6417(3)
H7_4 H 0.8058 0.7202 0.6495
C16_4 C 0.7571(3) 0.7571(3) 0.6556(3)
C17_4 C 0.7352(2) 0.7352(2) 0.6878(3)
N6_4 N 0.7029(2) 0.7530(3) 0.7029(2)
C18_4 C 0.6163(2) 0.8182(3) 0.7699(2)
H8_4 H 0.6070 0.8427 0.7601
C19_4 C 0.6417(3) 0.7955(3) 0.7450(3)
H9_4 H 0.6495 0.8058 0.7202
C20_4 C 0.6556(3) 0.7571(3) 0.7571(3)
C21_4 C 0.6878(3) 0.7352(2) 0.7352(2)
C22_4 C 0.6163(2) 0.7699(2) 0.8182(3)
H10_4 H 0.6070 0.7601 0.8427
C23_4 C 0.6417(3) 0.7450(3) 0.7955(3)
H11_4 H 0.6495 0.7202 0.8058
C24_4 C 0.8182(3) 0.6163(2) 0.7699(2)
H12_4 H 0.8427 0.6070 0.7601
C25_4 C 0.7955(3) 0.6417(3) 0.7450(3)
H13_4 H 0.8058 0.6495 0.7202
C26_4 C 0.7699(2) 0.8182(3) 0.6163(2)
H14_4 H 0.7601 0.8427 0.6070
C27_4 C 0.7450(3) 0.7955(3) 0.6417(3)
H15_4 H 0.7202 0.8058 0.6495
N8_9 N 0.7530(3) 0.2971(2) 0.7029(2)
C52_9 C 0.8182(3) 0.3837(2) 0.7699(2)
H24_9 H 0.8427 0.3930 0.7601
C53_9 C 0.7955(3) 0.3583(3) 0.7450(3)
H25_9 H 0.8058 0.3505 0.7202
C54_9 C 0.7571(3) 0.3444(3) 0.7571(3)
C55_9 C 0.7352(2) 0.3122(3) 0.7352(2)
N9_7 N 0.60459(19) 0.19313(18) 0.80687(18)
N10_9 N 0.7029(2) 0.2971(2) 0.7530(3)
C59_9 C 0.6163(2) 0.2301(2) 0.8182(3)
H27_9 H 0.6070 0.2399 0.8427
C60_9 C 0.6417(3) 0.2550(3) 0.7955(3)
H28_9 H 0.6495 0.2798 0.8058
C61_9 C 0.6556(3) 0.2429(3) 0.7571(3)
C62_9 C 0.6878(3) 0.2648(2) 0.7352(2)
N11_7 N 0.80687(18) 0.19313(18) 0.60459(19)
N12_9 N 0.7029(2) 0.2470(3) 0.7029(2)
C63_9 C 0.7699(2) 0.1818(3) 0.6163(2)
H29_9 H 0.7601 0.1573 0.6070
C64_9 C 0.7450(3) 0.2045(3) 0.6417(3)
H30_9 H 0.7202 0.1942 0.6495
C65_9 C 0.7571(3) 0.2429(3) 0.6556(3)
C66_9 C 0.7352(2) 0.2648(2) 0.6878(3)
C67_9 C 0.8182(3) 0.2301(2) 0.6163(2)
H31_9 H 0.8427 0.2399 0.6070
C68_9 C 0.7955(3) 0.2550(3) 0.6417(3)
H32_9 H 0.8058 0.2798 0.6495
C69_9 C 0.7699(2) 0.3837(2) 0.8182(3)
H33_9 H 0.7601 0.3930 0.8427
C70_9 C 0.7450(3) 0.3583(3) 0.7955(3)
H34_9 H 0.7202 0.3505 0.8058
C71_9 C 0.6163(2) 0.1818(3) 0.7699(2)
H35_9 H 0.6070 0.1573 0.7601
C72_9 C 0.6417(3) 0.2045(3) 0.7450(3)
H36_9 H 0.6495 0.1942 0.7202
C47_9 C 0.1574(2) -0.0000 0.5754(3)
H22_9 H 0.1346 -0.0000 0.5593
C50_9 C 0.22388(19) -0.0000 0.6244(2)
C51_9 C 0.26266(17) -0.0000 0.64893(18)
O28_6 O 0.13124(15) 0.06991(12) 0.54323(15)
O29_6 O 0.17172(11) 0.10771(9) 0.58029(11)
C56_7 C 0.15734(14) 0.07504(14) 0.56920(15)
C57_7 C 0.17385(15) 0.03646(14) 0.58699(17)
C58_7 C 0.20716(14) 0.03622(13) 0.61178(15)
H26_7 H 0.2185 0.0604 0.6201
O31_6 O 0.13124(15) 0.06991(12) 0.45677(15)
O32_7 O 0.17172(11) 0.10771(9) 0.41971(11)
C73_7 C 0.15734(14) 0.07504(14) 0.43080(15)
C74_9 C 0.1574(2) -0.0000 0.4246(3)
H37_9 H 0.1346 -0.0000 0.4407
C75_7 C 0.17385(15) 0.03646(14) 0.41301(17)
C76_7 C 0.20716(14) 0.03622(13) 0.38822(15)
H38_7 H 0.2185 0.0604 0.3799
C77_9 C 0.22388(19) 0.0000 0.3756(2)
C78_9 C 0.26266(17) -0.0000 0.35107(18)
Co10_9 Co 0.10171(3) 0.10171(3) 0.5000
O43_9 O 0.14420(10) 0.14420(10) 0.5000
O47_6 O 0.10771(9) 0.17172(11) 0.41971(11)
N15_4 N 0.19313(18) 0.19313(18) 0.39541(19)
Co1_9 Co 0.10171(3) 0.89829(3) 0.5000
O1_9 O 0.14420(10) 0.85580(10) 0.5000
O2_11 O 0.05630(17) 0.94370(17) 0.5000
O3_6 O 0.06991(12) 0.86876(15) 0.45677(15)
O4_8 O 0.10771(9) 0.82828(11) 0.41971(11)
C1_8 C 0.07504(14) 0.84266(14) 0.43080(15)
C2_10 C -0.0000 0.8426(2) 0.4246(3)
H1_10 H -0.0000 0.8654 0.4407
C3_8 C 0.03646(14) 0.82615(15) 0.41301(17)
C4_8 C 0.03622(13) 0.79284(14) 0.38822(15)
H2_8 H 0.0604 0.7815 0.3799
C5_10 C -0.0000 0.77612(19) 0.3756(2)
C6_10 C -0.0000 0.73734(17) 0.35107(18)
C29_10 C -0.0000 0.8426(2) 0.5754(3)
H16_10 H -0.0000 0.8654 0.5593
C32_10 C -0.0000 0.77612(19) 0.6244(2)
C33_10 C -0.0000 0.73734(17) 0.64893(18)
O14_6 O 0.06991(12) 0.86876(15) 0.54323(15)
O15_6 O 0.10771(9) 0.82828(11) 0.58029(11)
C34_8 C 0.07504(14) 0.84266(14) 0.56920(15)
C35_8 C 0.03646(14) 0.82615(15) 0.58699(17)
C36_8 C 0.03622(13) 0.79284(14) 0.61178(15)
H18_8 H 0.0604 0.7815 0.6201
O25_7 O 0.13124(15) 0.93009(12) 0.54323(15)
O26_7 O 0.17172(11) 0.89229(9) 0.58029(11)
N7_6 N 0.19313(18) 0.80687(18) 0.60459(19)
N8_10 N 0.2971(2) 0.7530(3) 0.7029(2)
C46_7 C 0.15734(14) 0.92496(14) 0.56920(15)
C47_10 C 0.1574(2) 1.0000 0.5754(3)
H22_10 H 0.1346 1.0000 0.5593
C48_7 C 0.17385(15) 0.96354(14) 0.58699(17)
C49_7 C 0.20716(14) 0.96378(13) 0.61178(15)
H23_7 H 0.2185 0.9396 0.6201
C50_10 C 0.22388(19) 1.0000 0.6244(2)
C51_10 C 0.26266(17) 1.0000 0.64893(18)
C52_10 C 0.2301(2) 0.8182(3) 0.6163(2)
H24_10 H 0.2399 0.8427 0.6070
C53_10 C 0.2550(3) 0.7955(3) 0.6417(3)
H25_10 H 0.2798 0.8058 0.6495
C54_10 C 0.2429(3) 0.7571(3) 0.6556(3)
C55_10 C 0.2648(2) 0.7352(2) 0.6878(3)
N10_10 N 0.2470(3) 0.7029(2) 0.7029(2)
C59_10 C 0.1818(3) 0.6163(2) 0.7699(2)
H27_10 H 0.1573 0.6070 0.7601
C60_10 C 0.2045(3) 0.6417(3) 0.7450(3)
H28_10 H 0.1942 0.6495 0.7202
C61_10 C 0.2429(3) 0.6556(3) 0.7571(3)
C62_10 C 0.2648(2) 0.6878(3) 0.7352(2)
N12_10 N 0.2971(2) 0.7029(2) 0.7530(3)
C63_10 C 0.3837(2) 0.7699(2) 0.8182(3)
H29_10 H 0.3930 0.7601 0.8427
C64_10 C 0.3583(3) 0.7450(3) 0.7955(3)
H30_10 H 0.3505 0.7202 0.8058
C65_10 C 0.3444(3) 0.7571(3) 0.7571(3)
C66_10 C 0.3122(3) 0.7352(2) 0.7352(2)
C67_10 C 0.3837(2) 0.8182(3) 0.7699(2)
H31_10 H 0.3930 0.8427 0.7601
C68_10 C 0.3583(3) 0.7955(3) 0.7450(3)
H32_10 H 0.3505 0.8058 0.7202
C69_10 C 0.1818(3) 0.7699(2) 0.6163(2)
H33_10 H 0.1573 0.7601 0.6070
C70_10 C 0.2045(3) 0.7450(3) 0.6417(3)
H34_10 H 0.1942 0.7202 0.6495
C71_10 C 0.2301(2) 0.6163(2) 0.8182(3)
H35_10 H 0.2399 0.6070 0.8427
C72_10 C 0.2550(3) 0.6417(3) 0.7955(3)
H36_10 H 0.2798 0.6495 0.8058
C74_10 C 0.1574(2) 1.0000 0.4246(3)
H37_10 H 0.1346 1.0000 0.4407
C77_10 C 0.22388(19) 1.0000 0.3756(2)
C78_10 C 0.26266(17) 1.0000 0.35107(18)
O34_7 O 0.13124(15) 0.93009(12) 0.45677(15)
O35_6 O 0.17172(11) 0.89229(9) 0.41971(11)
C79_7 C 0.15734(14) 0.92496(14) 0.43080(15)
C80_7 C 0.17385(15) 0.96354(14) 0.41301(17)
C81_7 C 0.20716(14) 0.96378(13) 0.38822(15)
H39_7 H 0.2185 0.9396 0.3799
Co5_9 Co 0.89829(3) 0.10171(3) 0.5000
O17_9 O 0.85580(10) 0.14420(10) 0.5000
O18_12 O 0.94370(17) 0.05630(17) 0.5000
O19_6 O 0.86876(15) 0.06991(12) 0.54323(15)
O20_6 O 0.82828(11) 0.10771(9) 0.58029(11)
C37_6 C 0.84266(14) 0.07504(14) 0.56920(15)
C38_8 C 0.8426(2) 0.0000 0.5754(3)
H19_8 H 0.8654 0.0000 0.5593
C39_6 C 0.82615(15) 0.03646(14) 0.58699(17)
C40_6 C 0.79284(14) 0.03622(13) 0.61178(15)
H20_6 H 0.7815 0.0604 0.6201
C41_8 C 0.77612(19) 0.0000 0.6244(2)
C42_8 C 0.73734(17) 0.0000 0.64893(18)
C83_8 C 0.8426(2) 0.0000 0.4246(3)
H40_8 H 0.8654 0.0000 0.4407
C86_8 C 0.77612(19) 0.0000 0.3756(2)
C87_8 C 0.73734(17) -0.0000 0.35107(18)
O40_6 O 0.86876(15) 0.06991(12) 0.45677(15)
O41_6 O 0.82828(11) 0.10771(9) 0.41971(11)
C88_6 C 0.84266(14) 0.07504(14) 0.43080(15)
C89_6 C 0.82615(15) 0.03646(14) 0.41301(17)
C90_6 C 0.79284(14) 0.03622(13) 0.38822(15)
H42_6 H 0.7815 0.0604 0.3799
O44_8 O 0.93009(12) 0.13124(15) 0.45677(15)
O45_8 O 0.93009(12) 0.13124(15) 0.54323(15)
O46_6 O 0.89229(9) 0.17172(11) 0.58029(11)
C2_11 C 1.0000 0.8426(2) 0.4246(3)
H1_11 H 1.0000 0.8654 0.4407
C5_11 C 1.0000 0.77612(19) 0.3756(2)
C6_11 C 1.0000 0.73734(17) 0.35107(18)
O6_7 O 0.93009(12) 0.86876(15) 0.45677(15)
O7_6 O 0.89229(9) 0.82828(11) 0.41971(11)
C11_8 C 0.92496(14) 0.84266(14) 0.43080(15)
C12_8 C 0.96354(14) 0.82615(15) 0.41301(17)
C13_8 C 0.96378(13) 0.79284(14) 0.38822(15)
H5_8 H 0.9396 0.7815 0.3799
Co3_9 Co 0.89829(3) 0.89829(3) 0.5000
O9_9 O 0.85580(10) 0.85580(10) 0.5000
O10_11 O 0.94370(17) 0.94370(17) 0.5000
O11_7 O 0.93009(12) 0.86876(15) 0.54323(15)
O12_8 O 0.89229(9) 0.82828(11) 0.58029(11)
C28_8 C 0.92496(14) 0.84266(14) 0.56920(15)
C29_11 C 1.0000 0.8426(2) 0.5754(3)
H16_11 H 1.0000 0.8654 0.5593
C30_8 C 0.96354(14) 0.82615(15) 0.58699(17)
C31_8 C 0.96378(13) 0.79284(14) 0.61178(15)
H17_8 H 0.9396 0.7815 0.6201
C32_11 C 1.0000 0.77612(19) 0.6244(2)
C33_11 C 1.0000 0.73734(17) 0.64893(18)
C38_9 C 0.8426(2) 1.0000 0.5754(3)
H19_9 H 0.8654 1.0000 0.5593
C41_9 C 0.77612(19) 1.0000 0.6244(2)
C42_9 C 0.73734(17) 1.0000 0.64893(18)
O22_6 O 0.86876(15) 0.93009(12) 0.54323(15)
O23_6 O 0.82828(11) 0.89229(9) 0.58029(11)
C43_6 C 0.84266(14) 0.92496(14) 0.56920(15)
C44_6 C 0.82615(15) 0.96354(14) 0.58699(17)
C45_6 C 0.79284(14) 0.96378(13) 0.61178(15)
H21_6 H 0.7815 0.9396 0.6201
O37_6 O 0.86876(15) 0.93009(12) 0.45677(15)
O38_6 O 0.82828(11) 0.89229(9) 0.41971(11)
C82_6 C 0.84266(14) 0.92496(14) 0.43080(15)
C83_9 C 0.8426(2) 1.0000 0.4246(3)
H40_9 H 0.8654 1.0000 0.4407
C84_6 C 0.82615(15) 0.96354(14) 0.41301(17)
C85_6 C 0.79284(14) 0.96378(13) 0.38822(15)
H41_6 H 0.7815 0.9396 0.3799
C86_9 C 0.77612(19) 1.0000 0.3756(2)
C87_9 C 0.73734(17) 1.0000 0.35107(18)
O4_9 O 0.17172(11) 0.58029(11) 0.10771(9)
C1_9 C 0.15734(14) 0.56920(15) 0.07504(14)
C2_12 C 0.1574(2) 0.5754(3) -0.0000
H1_12 H 0.1346 0.5593 -0.0000
C3_9 C 0.17385(15) 0.58699(17) 0.03646(14)
C4_9 C 0.20716(14) 0.61178(15) 0.03622(13)
H2_9 H 0.2185 0.6201 0.0604
C5_12 C 0.22388(19) 0.6244(2) -0.0000
C6_12 C 0.26266(17) 0.64893(18) -0.0000
C29_12 C 0.1574(2) 0.4246(3) -0.0000
H16_12 H 0.1346 0.4407 -0.0000
C32_12 C 0.22388(19) 0.3756(2) -0.0000
C33_12 C 0.26266(17) 0.35107(18) -0.0000
C34_9 C 0.15734(14) 0.43080(15) 0.07504(14)
C35_9 C 0.17385(15) 0.41301(17) 0.03646(14)
C36_9 C 0.20716(14) 0.38822(15) 0.03622(13)
H18_9 H 0.2185 0.3799 0.0604
N8_11 N 0.2470(3) 0.2971(2) 0.2971(2)
C52_11 C 0.1818(3) 0.3837(2) 0.2301(2)
H24_11 H 0.1573 0.3930 0.2399
C53_11 C 0.2045(3) 0.3583(3) 0.2550(3)
H25_11 H 0.1942 0.3505 0.2798
C54_11 C 0.2429(3) 0.3444(3) 0.2429(3)
C55_11 C 0.2648(2) 0.3122(3) 0.2648(2)
N9_8 N 0.39541(19) 0.19313(18) 0.19313(18)
N10_11 N 0.2971(2) 0.2971(2) 0.2470(3)
C59_11 C 0.3837(2) 0.2301(2) 0.1818(3)
H27_11 H 0.3930 0.2399 0.1573
C60_11 C 0.3583(3) 0.2550(3) 0.2045(3)
H28_11 H 0.3505 0.2798 0.1942
C61_11 C 0.3444(3) 0.2429(3) 0.2429(3)
C62_11 C 0.3122(3) 0.2648(2) 0.2648(2)
N12_11 N 0.2971(2) 0.2470(3) 0.2971(2)
C63_11 C 0.2301(2) 0.1818(3) 0.3837(2)
H29_11 H 0.2399 0.1573 0.3930
C64_11 C 0.2550(3) 0.2045(3) 0.3583(3)
H30_11 H 0.2798 0.1942 0.3505
C65_11 C 0.2429(3) 0.2429(3) 0.3444(3)
C66_11 C 0.2648(2) 0.2648(2) 0.3122(3)
C67_11 C 0.1818(3) 0.2301(2) 0.3837(2)
H31_11 H 0.1573 0.2399 0.3930
C68_11 C 0.2045(3) 0.2550(3) 0.3583(3)
H32_11 H 0.1942 0.2798 0.3505
C69_11 C 0.2301(2) 0.3837(2) 0.1818(3)
H33_11 H 0.2399 0.3930 0.1573
C70_11 C 0.2550(3) 0.3583(3) 0.2045(3)
H34_11 H 0.2798 0.3505 0.1942
C71_11 C 0.3837(2) 0.1818(3) 0.2301(2)
H35_11 H 0.3930 0.1573 0.2399
C72_11 C 0.3583(3) 0.2045(3) 0.2550(3)
H36_11 H 0.3505 0.1942 0.2798
C2_13 C 0.1574(2) 0.5754(3) 1.0000
H1_13 H 0.1346 0.5593 1.0000
C5_13 C 0.22388(19) 0.6244(2) 1.0000
C6_13 C 0.26266(17) 0.64893(18) 1.0000
C11_9 C 0.15734(14) 0.56920(15) 0.92496(14)
C12_9 C 0.17385(15) 0.58699(17) 0.96354(14)
C13_9 C 0.20716(14) 0.61178(15) 0.96378(13)
H5_9 H 0.2185 0.6201 0.9396
O12_9 O 0.17172(11) 0.41971(11) 0.89229(9)
C28_9 C 0.15734(14) 0.43080(15) 0.92496(14)
C29_13 C 0.1574(2) 0.4246(3) 1.0000
H16_13 H 0.1346 0.4407 1.0000
C30_9 C 0.17385(15) 0.41301(17) 0.96354(14)
C31_9 C 0.20716(14) 0.38822(15) 0.96378(13)
H17_9 H 0.2185 0.3799 0.9396
C32_13 C 0.22388(19) 0.3756(2) 1.0000
C33_13 C 0.26266(17) 0.35107(18) 1.0000
N13_6 N 0.19313(18) 0.39541(19) 0.80687(18)
C2_14 C 0.5754(3) 0.1574(2) 0.0000
H1_14 H 0.5593 0.1346 0.0000
C5_14 C 0.6244(2) 0.22388(19) 0.0000
C6_14 C 0.64893(18) 0.26266(17) 0.0000
O6_8 O 0.54323(15) 0.13124(15) 0.06991(12)
C11_10 C 0.56920(15) 0.15734(14) 0.07504(14)
C12_10 C 0.58699(17) 0.17385(15) 0.03646(14)
C13_10 C 0.61178(15) 0.20716(14) 0.03622(13)
H5_10 H 0.6201 0.2185 0.0604
O10_12 O 0.5000 0.05630(17) 0.05630(17)
O11_8 O 0.45677(15) 0.13124(15) 0.06991(12)
O12_10 O 0.41971(11) 0.17172(11) 0.10771(9)
C28_10 C 0.43080(15) 0.15734(14) 0.07504(14)
C29_14 C 0.4246(3) 0.1574(2) 0.0000
H16_14 H 0.4407 0.1346 0.0000
C30_10 C 0.41301(17) 0.17385(15) 0.03646(14)
C31_10 C 0.38822(15) 0.20716(14) 0.03622(13)
H17_10 H 0.3799 0.2185 0.0604
C32_14 C 0.3756(2) 0.22388(19) 0.0000
C33_14 C 0.35107(18) 0.26266(17) 0.0000
O4_10 O 0.58029(11) 0.17172(11) 0.89229(9)
C1_10 C 0.56920(15) 0.15734(14) 0.92496(14)
C2_15 C 0.5754(3) 0.1574(2) 1.0000
H1_15 H 0.5593 0.1346 1.0000
C3_10 C 0.58699(17) 0.17385(15) 0.96354(14)
C4_10 C 0.61178(15) 0.20716(14) 0.96378(13)
H2_10 H 0.6201 0.2185 0.9396
C5_15 C 0.6244(2) 0.22388(19) 1.0000
C6_15 C 0.64893(18) 0.26266(17) 1.0000
C29_15 C 0.4246(3) 0.1574(2) 1.0000
H16_15 H 0.4407 0.1346 1.0000
C32_15 C 0.3756(2) 0.22388(19) 1.0000
C33_15 C 0.35107(18) 0.26266(17) 1.0000
C34_10 C 0.43080(15) 0.15734(14) 0.92496(14)
C35_10 C 0.41301(17) 0.17385(15) 0.96354(14)
C36_10 C 0.38822(15) 0.20716(14) 0.96378(13)
H18_10 H 0.3799 0.2185 0.9396
N8_12 N 0.2971(2) 0.2470(3) 0.7029(2)
C52_12 C 0.3837(2) 0.1818(3) 0.7699(2)
H24_12 H 0.3930 0.1573 0.7601
C53_12 C 0.3583(3) 0.2045(3) 0.7450(3)
H25_12 H 0.3505 0.1942 0.7202
C54_12 C 0.3444(3) 0.2429(3) 0.7571(3)
C55_12 C 0.3122(3) 0.2648(2) 0.7352(2)
N10_12 N 0.2971(2) 0.2971(2) 0.7530(3)
C59_12 C 0.2301(2) 0.3837(2) 0.8182(3)
H27_12 H 0.2399 0.3930 0.8427
C60_12 C 0.2550(3) 0.3583(3) 0.7955(3)
H28_12 H 0.2798 0.3505 0.8058
C61_12 C 0.2429(3) 0.3444(3) 0.7571(3)
C62_12 C 0.2648(2) 0.3122(3) 0.7352(2)
N11_8 N 0.19313(18) 0.19313(18) 0.60459(19)
N12_12 N 0.2470(3) 0.2971(2) 0.7029(2)
C63_12 C 0.1818(3) 0.2301(2) 0.6163(2)
H29_12 H 0.1573 0.2399 0.6070
C64_12 C 0.2045(3) 0.2550(3) 0.6417(3)
H30_12 H 0.1942 0.2798 0.6495
C65_12 C 0.2429(3) 0.2429(3) 0.6556(3)
C66_12 C 0.2648(2) 0.2648(2) 0.6878(3)
C67_12 C 0.2301(2) 0.1818(3) 0.6163(2)
H31_12 H 0.2399 0.1573 0.6070
C68_12 C 0.2550(3) 0.2045(3) 0.6417(3)
H32_12 H 0.2798 0.1942 0.6495
C69_12 C 0.3837(2) 0.2301(2) 0.8182(3)
H33_12 H 0.3930 0.2399 0.8427
C70_12 C 0.3583(3) 0.2550(3) 0.7955(3)
H34_12 H 0.3505 0.2798 0.8058
C71_12 C 0.1818(3) 0.3837(2) 0.7699(2)
H35_12 H 0.1573 0.3930 0.7601
C72_12 C 0.2045(3) 0.3583(3) 0.7450(3)
H36_12 H 0.1942 0.3505 0.7202
O2_12 O 0.05630(17) 0.05630(17) 0.5000
O25_8 O 0.06991(12) 0.13124(15) 0.54323(15)
O26_8 O 0.10771(9) 0.17172(11) 0.58029(11)
C46_8 C 0.07504(14) 0.15734(14) 0.56920(15)
C47_11 C 0.0000 0.1574(2) 0.5754(3)
H22_11 H 0.0000 0.1346 0.5593
C48_8 C 0.03646(14) 0.17385(15) 0.58699(17)
C49_8 C 0.03622(13) 0.20716(14) 0.61178(15)
H23_8 H 0.0604 0.2185 0.6201
C50_11 C 0.0000 0.22388(19) 0.6244(2)
C51_11 C 0.0000 0.26266(17) 0.64893(18)
C74_11 C 0.0000 0.1574(2) 0.4246(3)
H37_11 H 0.0000 0.1346 0.4407
C77_11 C -0.0000 0.22388(19) 0.3756(2)
C78_11 C 0.0000 0.26266(17) 0.35107(18)
O34_8 O 0.06991(12) 0.13124(15) 0.45677(15)
C79_8 C 0.07504(14) 0.15734(14) 0.43080(15)
C80_8 C 0.03646(14) 0.17385(15) 0.41301(17)
C81_8 C 0.03622(13) 0.20716(14) 0.38822(15)
H39_8 H 0.0604 0.2185 0.3799
C47_12 C 1.0000 0.1574(2) 0.5754(3)
H22_12 H 1.0000 0.1346 0.5593
C50_12 C 1.0000 0.22388(19) 0.6244(2)
C51_12 C 1.0000 0.26266(17) 0.64893(18)
C56_8 C 0.92496(14) 0.15734(14) 0.56920(15)
C57_8 C 0.96354(14) 0.17385(15) 0.58699(17)
C58_8 C 0.96378(13) 0.20716(14) 0.61178(15)
H26_8 H 0.9396 0.2185 0.6201
O32_8 O 0.89229(9) 0.17172(11) 0.41971(11)
C73_8 C 0.92496(14) 0.15734(14) 0.43080(15)
C74_12 C 1.0000 0.1574(2) 0.4246(3)
H37_12 H 1.0000 0.1346 0.4407
C75_8 C 0.96354(14) 0.17385(15) 0.41301(17)
C76_8 C 0.96378(13) 0.20716(14) 0.38822(15)
H38_8 H 0.9396 0.2185 0.3799
C77_12 C 1.0000 0.22388(19) 0.3756(2)
C78_12 C 1.0000 0.26266(17) 0.35107(18)
loop_
_geom_bond_atom_site_label_1
_geom_bond_atom_site_label_2
_geom_bond_site_symmetry_1
_geom_bond_site_symmetry_2
Co1 O1 1_555 1_555
O1 Co7 1_555 1_555
O2 Co1 1_555 1_555
Co4 O9 1_555 1_555
O9 Co3 1_555 1_555
O10 Co3 1_555 1_555
O11 Co3 1_555 1_555
O12 Co4 1_555 1_555
O13 C33 1_555 1_555
C28 O11 1_555 1_555
C29 H16 1_555 1_555
C30 C28 1_555 1_555
C31 C30 1_555 1_555
H17 C31 1_555 1_555
C32 C31 1_555 1_555
C33 C32 1_555 1_555
O14 Co1 1_555 1_555
O15 C34 1_555 1_555
O16 C33 1_555 1_555
C34 O14 1_555 1_555
C35 C29 1_555 1_555
C36 C32 1_555 1_555
H18 C36 1_555 1_555
Co5 O17 1_555 1_555
Co6 O17 1_555 1_555
O18 Co5 1_555 1_555
O19 Co5 1_555 1_555
O20 Co6 1_555 1_555
O21 C42 1_555 1_555
C37 O19 1_555 1_555
C38 H19 1_555 1_555
C39 C37 1_555 1_555
C40 C39 1_555 1_555
H20 C40 1_555 1_555
C41 C40 1_555 1_555
C42 C41 1_555 1_555
O22 Co3 1_555 1_555
O23 Co4 1_555 1_555
O24 C42 1_555 1_555
C43 O22 1_555 1_555
C44 C38 1_555 1_555
C45 C41 1_555 1_555
H21 C45 1_555 1_555
Co7 O15 1_555 1_555
O25 Co1 1_555 1_555
O26 Co7 1_555 1_555
O27 C51 1_555 1_555
N7 Co7 1_555 1_555
N8 C55 1_555 1_555
C46 O25 1_555 1_555
C47 H22 1_555 1_555
C48 C46 1_555 1_555
C49 C48 1_555 1_555
H23 C49 1_555 1_555
C50 C49 1_555 1_555
C51 C50 1_555 1_555
C52 N7 1_555 1_555
H24 C52 1_555 1_555
C53 C52 1_555 1_555
H25 C53 1_555 1_555
C54 C53 1_555 1_555
C55 C54 1_555 1_555
O28 C56 1_555 1_555
O29 C56 1_555 1_555
O30 C51 1_555 1_555
C56 C57 1_555 1_555
C57 C47 1_555 1_555
C58 C50 1_555 1_555
H26 C58 1_555 1_555
N9 C59 1_555 1_555
N10 C55 1_555 1_555
C59 H27 1_555 1_555
C60 C59 1_555 1_555
H28 C60 1_555 1_555
C61 C60 1_555 1_555
C62 N10 1_555 1_555
N11 C63 1_555 1_555
N12 C62 1_555 1_555
C63 H29 1_555 1_555
C64 C63 1_555 1_555
H30 C64 1_555 1_555
C65 C64 1_555 1_555
C66 N8 1_555 1_555
C67 N11 1_555 1_555
H31 C67 1_555 1_555
C68 C65 1_555 1_555
H32 C68 1_555 1_555
C69 N7 1_555 1_555
H33 C69 1_555 1_555
C70 C54 1_555 1_555
H34 C70 1_555 1_555
C71 N9 1_555 1_555
H35 C71 1_555 1_555
C72 C61 1_555 1_555
H36 C72 1_555 1_555
Co10 O28 1_555 1_555
Co11 N9 1_555 1_555
Co12 O29 1_555 1_555
Co16 N11 1_555 1_555
Co19 O27 1_555 1_555
Co21 O16 1_555 1_555
Co22 O13 1_555 1_555
Co23 O30 1_555 1_555
Co24 O21 1_555 1_555
Co28 O24 1_555 1_555
O45 Co5 1_555 1_555
O46 Co6 1_555 1_555
O50 Co7 1_555 1_555
O52 Co4 1_555 1_555
O53 Co6 1_555 1_555
O54 Co6 1_555 1_555
O55 Co4 1_555 1_555
O58 Co7 1_555 1_555
N13 Co4 1_555 1_555
N14 Co6 1_555 1_555
O12 C28 1_555 1_555
C29 C30 1_555 1_555
C34 C35 1_555 1_555
C35 C36 1_555 1_555
O20 C37 1_555 1_555
C38 C39 1_555 1_555
O23 C43 1_555 1_555
C43 C44 1_555 1_555
C44 C45 1_555 1_555
O26 C46 1_555 1_555
C47 C48 1_555 1_555
C57 C58 1_555 1_555
C61 C62 1_555 1_555
N12 C66 1_555 1_555
C65 C66 1_555 1_555
C67 C68 1_555 1_555
C69 C70 1_555 1_555
C71 C72 1_555 1_555
Co10 O43 1_555 1_555
Co12 O43 1_555 1_555
Co1_2 O1_2 1_555 1_555
Co2 O1_2 1_555 1_555
O2_2 Co1_2 1_555 1_555
O3 Co1_2 1_555 1_555
O4 Co2 1_555 1_555
O5 C6 1_555 1_555
N1 Co2 1_555 1_555
N2 C10 1_555 1_555
C1 O3 1_555 1_555
C2 H1 1_555 1_555
C3 C1 1_555 1_555
C4 C3 1_555 1_555
H2 C4 1_555 1_555
C5 C4 1_555 1_555
C6 C5 1_555 1_555
C7 N1 1_555 1_555
H3 C7 1_555 1_555
C8 C7 1_555 1_555
H4 C8 1_555 1_555
C9 C8 1_555 1_555
C10 C9 1_555 1_555
O6 C11 1_555 1_555
O7 C11 1_555 1_555
O8 C6 1_555 1_555
C11 C12 1_555 1_555
C12 C2 1_555 1_555
C13 C5 1_555 1_555
H5 C13 1_555 1_555
N3 C14 1_555 1_555
N4 C10 1_555 1_555
C14 H6 1_555 1_555
C15 C14 1_555 1_555
H7 C15 1_555 1_555
C16 C15 1_555 1_555
C17 N4 1_555 1_555
N5 C18 1_555 1_555
N6 C17 1_555 1_555
C18 H8 1_555 1_555
C19 C18 1_555 1_555
H9 C19 1_555 1_555
C20 C19 1_555 1_555
C21 N2 1_555 1_555
C22 N5 1_555 1_555
H10 C22 1_555 1_555
C23 C20 1_555 1_555
H11 C23 1_555 1_555
C24 N1 1_555 1_555
H12 C24 1_555 1_555
C25 C9 1_555 1_555
H13 C25 1_555 1_555
C26 N3 1_555 1_555
H14 C26 1_555 1_555
C27 C16 1_555 1_555
H15 C27 1_555 1_555
Co3_2 O6 1_555 1_555
O9_2 Co3_2 1_555 1_555
O10_2 Co3_2 1_555 1_555
Co5_2 O17_2 1_555 1_555
O17_2 Co13 1_555 1_555
O18_2 Co5_2 1_555 1_555
Co8 O32 1_555 1_555
O31 C73 1_555 1_555
O32 C73 1_555 1_555
O33 C78 1_555 1_555
C73 C75 1_555 1_555
C74 H37 1_555 1_555
C75 C74 1_555 1_555
C76 C75 1_555 1_555
H38 C76 1_555 1_555
C77 C76 1_555 1_555
C78 C77 1_555 1_555
O34 Co1_2 1_555 1_555
O35 Co2 1_555 1_555
O36 C78 1_555 1_555
C79 O34 1_555 1_555
C80 C74 1_555 1_555
C81 C77 1_555 1_555
H39 C81 1_555 1_555
Co9 O7 1_555 1_555
O37 Co3_2 1_555 1_555
O38 Co9 1_555 1_555
O39 C87 1_555 1_555
C82 O37 1_555 1_555
C83 H40 1_555 1_555
C84 C82 1_555 1_555
C85 C84 1_555 1_555
H41 C85 1_555 1_555
C86 C85 1_555 1_555
C87 C86 1_555 1_555
O40 Co5_2 1_555 1_555
O41 C88 1_555 1_555
O42 C87 1_555 1_555
C88 O40 1_555 1_555
C89 C83 1_555 1_555
C90 C86 1_555 1_555
H42 C90 1_555 1_555
Co13 O41 1_555 1_555
Co14 N3 1_555 1_555
Co15 N5 1_555 1_555
Co17 O39 1_555 1_555
Co18 O5 1_555 1_555
Co20 O33 1_555 1_555
Co25 O8 1_555 1_555
Co26 O36 1_555 1_555
Co27 O42 1_555 1_555
O43_2 Co8 1_555 1_555
O44 Co5_2 1_555 1_555
O47 Co8 1_555 1_555
O48 Co9 1_555 1_555
O49 Co2 1_555 1_555
O51 Co8 1_555 1_555
O56 Co9 1_555 1_555
O57 Co8 1_555 1_555
O59 Co2 1_555 1_555
N15 Co8 1_555 1_555
N16 Co9 1_555 1_555
O4 C1 1_555 1_555
C2 C3 1_555 1_555
C12 C13 1_555 1_555
C16 C17 1_555 1_555
N6 C21 1_555 1_555
C20 C21 1_555 1_555
C22 C23 1_555 1_555
C24 C25 1_555 1_555
C26 C27 1_555 1_555
O9_2 Co9 1_555 1_555
O31 Co10_2 1_555 1_555
O35 C79 1_555 1_555
C79 C80 1_555 1_555
C80 C81 1_555 1_555
O38 C82 1_555 1_555
C83 C84 1_555 1_555
C88 C89 1_555 1_555
C89 C90 1_555 1_555
Co10_2 O43_2 1_555 1_555
Co1_3 O1_3 1_555 1_555
Co11 O1_3 1_555 1_555
O2_3 Co1_3 1_555 1_555
O3_2 Co1_3 1_555 1_555
O4_2 Co11 1_555 1_555
O5_2 C6_2 1_555 1_555
C1_2 O3_2 1_555 1_555
C2_2 H1_2 1_555 1_555
C3_2 C1_2 1_555 1_555
C4_2 C3_2 1_555 1_555
H2_2 C4_2 1_555 1_555
C5_2 C4_2 1_555 1_555
C6_2 C5_2 1_555 1_555
O6_2 C11_2 1_555 1_555
O7_2 C11_2 1_555 1_555
O8_2 C6_2 1_555 1_555
C11_2 C12_2 1_555 1_555
C12_2 C2_2 1_555 1_555
C13_2 C5_2 1_555 1_555
H5_2 C13_2 1_555 1_555
Co3_3 O6_2 1_555 1_555
O9_3 Co3_3 1_555 1_555
O10_3 Co3_3 1_555 1_555
Co5_3 O17_3 1_555 1_555
O17_3 Co13_2 1_555 1_555
O18_3 Co5_3 1_555 1_555
Co15 O32_2 1_555 1_555
O31_2 C73_2 1_555 1_555
O32_2 C73_2 1_555 1_555
O33_2 C78_2 1_555 1_555
C73_2 C75_2 1_555 1_555
C74_2 H37_2 1_555 1_555
C75_2 C74_2 1_555 1_555
C76_2 C75_2 1_555 1_555
H38_2 C76_2 1_555 1_555
C77_2 C76_2 1_555 1_555
C78_2 C77_2 1_555 1_555
O34_2 Co1_3 1_555 1_555
O35_2 Co11 1_555 1_555
O36_2 C78_2 1_555 1_555
C79_2 O34_2 1_555 1_555
C80_2 C74_2 1_555 1_555
C81_2 C77_2 1_555 1_555
H39_2 C81_2 1_555 1_555
Co9_2 O7_2 1_555 1_555
O37_2 Co3_3 1_555 1_555
O38_2 Co9_2 1_555 1_555
O39_2 C87_2 1_555 1_555
C82_2 O37_2 1_555 1_555
C83_2 H40_2 1_555 1_555
C84_2 C82_2 1_555 1_555
C85_2 C84_2 1_555 1_555
H41_2 C85_2 1_555 1_555
C86_2 C85_2 1_555 1_555
C87_2 C86_2 1_555 1_555
O40_2 Co5_3 1_555 1_555
O41_2 C88_2 1_555 1_555
O42_2 C87_2 1_555 1_555
C88_2 O40_2 1_555 1_555
C89_2 C83_2 1_555 1_555
C90_2 C86_2 1_555 1_555
H42_2 C90_2 1_555 1_555
Co13_2 O41_2 1_555 1_555
Co17_2 O39_2 1_555 1_555
Co21 O5_2 1_555 1_555
Co20_2 O33_2 1_555 1_555
Co22 O8_2 1_555 1_555
Co26_2 O36_2 1_555 1_555
Co27_2 O42_2 1_555 1_555
O43_3 Co15 1_555 1_555
O44_2 Co5_3 1_555 1_555
O47_2 Co15 1_555 1_555
O48_2 Co9_2 1_555 1_555
O49_2 Co11 1_555 1_555
O51_2 Co15 1_555 1_555
O56_2 Co9_2 1_555 1_555
O57_2 Co15 1_555 1_555
O59_2 Co11 1_555 1_555
N16_2 Co9_2 1_555 1_555
O4_2 C1_2 1_555 1_555
C2_2 C3_2 1_555 1_555
C12_2 C13_2 1_555 1_555
O9_3 Co9_2 1_555 1_555
O31_2 Co10_3 1_555 1_555
O35_2 C79_2 1_555 1_555
C79_2 C80_2 1_555 1_555
C80_2 C81_2 1_555 1_555
O38_2 C82_2 1_555 1_555
C83_2 C84_2 1_555 1_555
C88_2 C89_2 1_555 1_555
C89_2 C90_2 1_555 1_555
Co10_3 O43_3 1_555 1_555
Co1_4 O1_4 1_555 1_555
O1_4 Co7_2 1_555 1_555
O2_4 Co1_4 1_555 1_555
Co4_2 O9_4 1_555 1_555
O9_4 Co3_4 1_555 1_555
O10_4 Co3_4 1_555 1_555
O11_2 Co3_4 1_555 1_555
O12_2 Co4_2 1_555 1_555
O13_2 C33_2 1_555 1_555
C28_2 O11_2 1_555 1_555
C29_2 H16_2 1_555 1_555
C30_2 C28_2 1_555 1_555
C31_2 C30_2 1_555 1_555
H17_2 C31_2 1_555 1_555
C32_2 C31_2 1_555 1_555
C33_2 C32_2 1_555 1_555
O14_2 Co1_4 1_555 1_555
O15_2 C34_2 1_555 1_555
O16_2 C33_2 1_555 1_555
C34_2 O14_2 1_555 1_555
C35_2 C29_2 1_555 1_555
C36_2 C32_2 1_555 1_555
H18_2 C36_2 1_555 1_555
Co5_4 O17_4 1_555 1_555
Co6_2 O17_4 1_555 1_555
O18_4 Co5_4 1_555 1_555
O19_2 Co5_4 1_555 1_555
O20_2 Co6_2 1_555 1_555
O21_2 C42_2 1_555 1_555
C37_2 O19_2 1_555 1_555
C38_2 H19_2 1_555 1_555
C39_2 C37_2 1_555 1_555
C40_2 C39_2 1_555 1_555
H20_2 C40_2 1_555 1_555
C41_2 C40_2 1_555 1_555
C42_2 C41_2 1_555 1_555
O22_2 Co3_4 1_555 1_555
O23_2 Co4_2 1_555 1_555
O24_2 C42_2 1_555 1_555
C43_2 O22_2 1_555 1_555
C44_2 C38_2 1_555 1_555
C45_2 C41_2 1_555 1_555
H21_2 C45_2 1_555 1_555
Co7_2 O15_2 1_555 1_555
O25_2 Co1_4 1_555 1_555
O26_2 Co7_2 1_555 1_555
O27_2 C51_2 1_555 1_555
N7_2 Co7_2 1_555 1_555
N8_2 C55_2 1_555 1_555
C46_2 O25_2 1_555 1_555
C47_2 H22_2 1_555 1_555
C48_2 C46_2 1_555 1_555
C49_2 C48_2 1_555 1_555
H23_2 C49_2 1_555 1_555
C50_2 C49_2 1_555 1_555
C51_2 C50_2 1_555 1_555
C52_2 N7_2 1_555 1_555
H24_2 C52_2 1_555 1_555
C53_2 C52_2 1_555 1_555
H25_2 C53_2 1_555 1_555
C54_2 C53_2 1_555 1_555
C55_2 C54_2 1_555 1_555
O28_2 C56_2 1_555 1_555
O29_2 C56_2 1_555 1_555
O30_2 C51_2 1_555 1_555
C56_2 C57_2 1_555 1_555
C57_2 C47_2 1_555 1_555
C58_2 C50_2 1_555 1_555
H26_2 C58_2 1_555 1_555
N9_2 C59_2 1_555 1_555
N10_2 C55_2 1_555 1_555
C59_2 H27_2 1_555 1_555
C60_2 C59_2 1_555 1_555
H28_2 C60_2 1_555 1_555
C61_2 C60_2 1_555 1_555
C62_2 N10_2 1_555 1_555
N11_2 C63_2 1_555 1_555
N12_2 C62_2 1_555 1_555
C63_2 H29_2 1_555 1_555
C64_2 C63_2 1_555 1_555
H30_2 C64_2 1_555 1_555
C65_2 C64_2 1_555 1_555
C66_2 N8_2 1_555 1_555
C67_2 N11_2 1_555 1_555
H31_2 C67_2 1_555 1_555
C68_2 C65_2 1_555 1_555
H32_2 C68_2 1_555 1_555
C69_2 N7_2 1_555 1_555
H33_2 C69_2 1_555 1_555
C70_2 C54_2 1_555 1_555
H34_2 C70_2 1_555 1_555
C71_2 N9_2 1_555 1_555
H35_2 C71_2 1_555 1_555
C72_2 C61_2 1_555 1_555
H36_2 C72_2 1_555 1_555
Co10_4 O28_2 1_555 1_555
Co12 N9_2 1_555 1_555
Co12_2 O29_2 1_555 1_555
Co16_2 N11_2 1_555 1_555
Co19_2 O27_2 1_555 1_555
Co21_2 O16_2 1_555 1_555
Co22_2 O13_2 1_555 1_555
Co23_2 O30_2 1_555 1_555
Co24_2 O21_2 1_555 1_555
Co28_2 O24_2 1_555 1_555
O45_2 Co5_4 1_555 1_555
O46_2 Co6_2 1_555 1_555
O50_2 Co7_2 1_555 1_555
O52_2 Co4_2 1_555 1_555
O53_2 Co6_2 1_555 1_555
O54_2 Co6_2 1_555 1_555
O55_2 Co4_2 1_555 1_555
O58_2 Co7_2 1_555 1_555
N13_2 Co4_2 1_555 1_555
N14_2 Co6_2 1_555 1_555
O12_2 C28_2 1_555 1_555
C29_2 C30_2 1_555 1_555
C34_2 C35_2 1_555 1_555
C35_2 C36_2 1_555 1_555
O20_2 C37_2 1_555 1_555
C38_2 C39_2 1_555 1_555
O23_2 C43_2 1_555 1_555
C43_2 C44_2 1_555 1_555
C44_2 C45_2 1_555 1_555
O26_2 C46_2 1_555 1_555
C47_2 C48_2 1_555 1_555
C57_2 C58_2 1_555 1_555
C61_2 C62_2 1_555 1_555
N12_2 C66_2 1_555 1_555
C65_2 C66_2 1_555 1_555
C67_2 C68_2 1_555 1_555
C69_2 C70_2 1_555 1_555
C71_2 C72_2 1_555 1_555
Co10_4 O43_4 1_555 1_555
Co12_2 O43_4 1_555 1_555
N2_2 C10_2 1_555 1_555
C7_2 N13 1_555 1_555
H3_2 C7_2 1_555 1_555
C8_2 C7_2 1_555 1_555
H4_2 C8_2 1_555 1_555
C9_2 C8_2 1_555 1_555
C10_2 C9_2 1_555 1_555
N3_2 C14_2 1_555 1_555
N4_2 C10_2 1_555 1_555
C14_2 H6_2 1_555 1_555
C15_2 C14_2 1_555 1_555
H7_2 C15_2 1_555 1_555
C16_2 C15_2 1_555 1_555
C17_2 N4_2 1_555 1_555
N16_2 C18_2 1_555 1_555
N6_2 C17_2 1_555 1_555
C18_2 H8_2 1_555 1_555
C19_2 C18_2 1_555 1_555
H9_2 C19_2 1_555 1_555
C20_2 C19_2 1_555 1_555
C21_2 N2_2 1_555 1_555
C22_2 N16_2 1_555 1_555
H10_2 C22_2 1_555 1_555
C23_2 C20_2 1_555 1_555
H11_2 C23_2 1_555 1_555
C24_2 N13 1_555 1_555
H12_2 C24_2 1_555 1_555
C25_2 C9_2 1_555 1_555
H13_2 C25_2 1_555 1_555
C26_2 N3_2 1_555 1_555
H14_2 C26_2 1_555 1_555
C27_2 C16_2 1_555 1_555
H15_2 C27_2 1_555 1_555
O18_5 Co10 1_555 1_555
Co14_2 N3_2 1_555 1_555
O44_3 Co10 1_555 1_555
C16_2 C17_2 1_555 1_555
N6_2 C21_2 1_555 1_555
C20_2 C21_2 1_555 1_555
C22_2 C23_2 1_555 1_555
C24_2 C25_2 1_555 1_555
C26_2 C27_2 1_555 1_555
O18_6 Co10_2 1_555 1_555
N8_3 C55_3 1_555 1_555
C52_3 N16 1_555 1_555
H24_3 C52_3 1_555 1_555
C53_3 C52_3 1_555 1_555
H25_3 C53_3 1_555 1_555
C54_3 C53_3 1_555 1_555
C55_3 C54_3 1_555 1_555
N9_3 C59_3 1_555 1_555
N10_3 C55_3 1_555 1_555
C59_3 H27_3 1_555 1_555
C60_3 C59_3 1_555 1_555
H28_3 C60_3 1_555 1_555
C61_3 C60_3 1_555 1_555
C62_3 N10_3 1_555 1_555
N11_3 C63_3 1_555 1_555
N12_3 C62_3 1_555 1_555
C63_3 H29_3 1_555 1_555
C64_3 C63_3 1_555 1_555
H30_3 C64_3 1_555 1_555
C65_3 C64_3 1_555 1_555
C66_3 N8_3 1_555 1_555
C67_3 N11_3 1_555 1_555
H31_3 C67_3 1_555 1_555
C68_3 C65_3 1_555 1_555
H32_3 C68_3 1_555 1_555
C69_3 N16 1_555 1_555
H33_3 C69_3 1_555 1_555
C70_3 C54_3 1_555 1_555
H34_3 C70_3 1_555 1_555
C71_3 N9_3 1_555 1_555
H35_3 C71_3 1_555 1_555
C72_3 C61_3 1_555 1_555
H36_3 C72_3 1_555 1_555
Co13_2 N9_3 1_555 1_555
Co16_3 N11_3 1_555 1_555
O45_3 Co10_2 1_555 1_555
C61_3 C62_3 1_555 1_555
N12_3 C66_3 1_555 1_555
C65_3 C66_3 1_555 1_555
C67_3 C68_3 1_555 1_555
C69_3 C70_3 1_555 1_555
C71_3 C72_3 1_555 1_555
Co1_5 O1_5 1_555 1_555
O1_5 Co7_3 1_555 1_555
O2_5 Co1_5 1_555 1_555
Co14_2 O9_5 1_555 1_555
O9_5 Co3_5 1_555 1_555
O10_5 Co3_5 1_555 1_555
O11_3 Co3_5 1_555 1_555
O12_3 Co14_2 1_555 1_555
O13_3 C33_3 1_555 1_555
C28_3 O11_3 1_555 1_555
C29_3 H16_3 1_555 1_555
C30_3 C28_3 1_555 1_555
C31_3 C30_3 1_555 1_555
H17_3 C31_3 1_555 1_555
C32_3 C31_3 1_555 1_555
C33_3 C32_3 1_555 1_555
O14_3 Co1_5 1_555 1_555
O15_3 C34_3 1_555 1_555
O16_3 C33_3 1_555 1_555
C34_3 O14_3 1_555 1_555
C35_3 C29_3 1_555 1_555
C36_3 C32_3 1_555 1_555
H18_3 C36_3 1_555 1_555
Co5_5 O17_5 1_555 1_555
Co16_3 O17_5 1_555 1_555
O18_7 Co5_5 1_555 1_555
O19_3 Co5_5 1_555 1_555
O20_3 Co16_3 1_555 1_555
O21_3 C42_3 1_555 1_555
C37_3 O19_3 1_555 1_555
C38_3 H19_3 1_555 1_555
C39_3 C37_3 1_555 1_555
C40_3 C39_3 1_555 1_555
H20_3 C40_3 1_555 1_555
C41_3 C40_3 1_555 1_555
C42_3 C41_3 1_555 1_555
O22_3 Co3_5 1_555 1_555
O23_3 Co14_2 1_555 1_555
O24_3 C42_3 1_555 1_555
C43_3 O22_3 1_555 1_555
C44_3 C38_3 1_555 1_555
C45_3 C41_3 1_555 1_555
H21_3 C45_3 1_555 1_555
Co7_3 O15_3 1_555 1_555
O25_3 Co1_5 1_555 1_555
O26_3 Co7_3 1_555 1_555
O27_3 C51_3 1_555 1_555
N7_3 Co7_3 1_555 1_555
N8_4 C55_4 1_555 1_555
C46_3 O25_3 1_555 1_555
C47_3 H22_3 1_555 1_555
C48_3 C46_3 1_555 1_555
C49_3 C48_3 1_555 1_555
H23_3 C49_3 1_555 1_555
C50_3 C49_3 1_555 1_555
C51_3 C50_3 1_555 1_555
C52_4 N7_3 1_555 1_555
H24_4 C52_4 1_555 1_555
C53_4 C52_4 1_555 1_555
H25_4 C53_4 1_555 1_555
C54_4 C53_4 1_555 1_555
C55_4 C54_4 1_555 1_555
O28_3 C56_3 1_555 1_555
O29_3 C56_3 1_555 1_555
O30_3 C51_3 1_555 1_555
C56_3 C57_3 1_555 1_555
C57_3 C47_3 1_555 1_555
C58_3 C50_3 1_555 1_555
H26_3 C58_3 1_555 1_555
N14 C59_4 1_555 1_555
N10_4 C55_4 1_555 1_555
C59_4 H27_4 1_555 1_555
C60_4 C59_4 1_555 1_555
H28_4 C60_4 1_555 1_555
C61_4 C60_4 1_555 1_555
C62_4 N10_4 1_555 1_555
N13_2 C63_4 1_555 1_555
N12_4 C62_4 1_555 1_555
C63_4 H29_4 1_555 1_555
C64_4 C63_4 1_555 1_555
H30_4 C64_4 1_555 1_555
C65_4 C64_4 1_555 1_555
C66_4 N8_4 1_555 1_555
C67_4 N13_2 1_555 1_555
H31_4 C67_4 1_555 1_555
C68_4 C65_4 1_555 1_555
H32_4 C68_4 1_555 1_555
C69_4 N7_3 1_555 1_555
H33_4 C69_4 1_555 1_555
C70_4 C54_4 1_555 1_555
H34_4 C70_4 1_555 1_555
C71_4 N14 1_555 1_555
H35_4 C71_4 1_555 1_555
C72_4 C61_4 1_555 1_555
H36_4 C72_4 1_555 1_555
Co10_5 O28_3 1_555 1_555
Co12_3 O29_3 1_555 1_555
Co28_2 O27_3 1_555 1_555
Co24 O16_3 1_555 1_555
Co28 O13_3 1_555 1_555
Co24_2 O30_3 1_555 1_555
Co27_2 O21_3 1_555 1_555
Co17_2 O24_3 1_555 1_555
O45_4 Co5_5 1_555 1_555
O46_3 Co16_3 1_555 1_555
O50_3 Co7_3 1_555 1_555
O52_3 Co14_2 1_555 1_555
O53_3 Co16_3 1_555 1_555
O54_3 Co16_3 1_555 1_555
O55_3 Co14_2 1_555 1_555
O58_3 Co7_3 1_555 1_555
O12_3 C28_3 1_555 1_555
C29_3 C30_3 1_555 1_555
C34_3 C35_3 1_555 1_555
C35_3 C36_3 1_555 1_555
O20_3 C37_3 1_555 1_555
C38_3 C39_3 1_555 1_555
O23_3 C43_3 1_555 1_555
C43_3 C44_3 1_555 1_555
C44_3 C45_3 1_555 1_555
O26_3 C46_3 1_555 1_555
C47_3 C48_3 1_555 1_555
C57_3 C58_3 1_555 1_555
C61_4 C62_4 1_555 1_555
N12_4 C66_4 1_555 1_555
C65_4 C66_4 1_555 1_555
C67_4 C68_4 1_555 1_555
C69_4 C70_4 1_555 1_555
C71_4 C72_4 1_555 1_555
Co10_5 O43_5 1_555 1_555
Co12_3 O43_5 1_555 1_555
Co1_6 O1_6 1_555 1_555
Co16_2 O1_6 1_555 1_555
O2_6 Co1_6 1_555 1_555
O3_3 Co1_6 1_555 1_555
O4_3 Co16_2 1_555 1_555
O5_3 C6_3 1_555 1_555
C1_3 O3_3 1_555 1_555
C2_3 H1_3 1_555 1_555
C3_3 C1_3 1_555 1_555
C4_3 C3_3 1_555 1_555
H2_3 C4_3 1_555 1_555
C5_3 C4_3 1_555 1_555
C6_3 C5_3 1_555 1_555
O6_3 C11_3 1_555 1_555
O7_3 C11_3 1_555 1_555
O8_3 C6_3 1_555 1_555
C11_3 C12_3 1_555 1_555
C12_3 C2_3 1_555 1_555
C13_3 C5_3 1_555 1_555
H5_3 C13_3 1_555 1_555
Co3_6 O6_3 1_555 1_555
O9_6 Co3_6 1_555 1_555
O10_6 Co3_6 1_555 1_555
Co5_6 O17_6 1_555 1_555
O17_6 Co14 1_555 1_555
O18_8 Co5_6 1_555 1_555
Co8_2 O32_3 1_555 1_555
O31_3 C73_3 1_555 1_555
O32_3 C73_3 1_555 1_555
O33_3 C78_3 1_555 1_555
C73_3 C75_3 1_555 1_555
C74_3 H37_3 1_555 1_555
C75_3 C74_3 1_555 1_555
C76_3 C75_3 1_555 1_555
H38_3 C76_3 1_555 1_555
C77_3 C76_3 1_555 1_555
C78_3 C77_3 1_555 1_555
O34_3 Co1_6 1_555 1_555
O35_3 Co16_2 1_555 1_555
O36_3 C78_3 1_555 1_555
C79_3 O34_3 1_555 1_555
C80_3 C74_3 1_555 1_555
C81_3 C77_3 1_555 1_555
H39_3 C81_3 1_555 1_555
Co16 O7_3 1_555 1_555
O37_3 Co3_6 1_555 1_555
O38_3 Co16 1_555 1_555
O39_3 C87_3 1_555 1_555
C82_3 O37_3 1_555 1_555
C83_3 H40_3 1_555 1_555
C84_3 C82_3 1_555 1_555
C85_3 C84_3 1_555 1_555
H41_3 C85_3 1_555 1_555
C86_3 C85_3 1_555 1_555
C87_3 C86_3 1_555 1_555
O40_3 Co5_6 1_555 1_555
O41_3 C88_3 1_555 1_555
O42_3 C87_3 1_555 1_555
C88_3 O40_3 1_555 1_555
C89_3 C83_3 1_555 1_555
C90_3 C86_3 1_555 1_555
H42_3 C90_3 1_555 1_555
Co14 O41_3 1_555 1_555
Co26_2 O39_3 1_555 1_555
Co23 O5_3 1_555 1_555
Co23_2 O33_3 1_555 1_555
Co19 O8_3 1_555 1_555
Co19_2 O36_3 1_555 1_555
Co20_2 O42_3 1_555 1_555
O43_6 Co8_2 1_555 1_555
O44_4 Co5_6 1_555 1_555
O47_3 Co8_2 1_555 1_555
O48_3 Co16 1_555 1_555
O49_3 Co16_2 1_555 1_555
O51_3 Co8_2 1_555 1_555
O56_3 Co16 1_555 1_555
O57_3 Co8_2 1_555 1_555
O59_3 Co16_2 1_555 1_555
N15_2 Co8_2 1_555 1_555
O4_3 C1_3 1_555 1_555
C2_3 C3_3 1_555 1_555
C12_3 C13_3 1_555 1_555
O9_6 Co16 1_555 1_555
O31_3 Co10_6 1_555 1_555
O35_3 C79_3 1_555 1_555
C79_3 C80_3 1_555 1_555
C80_3 C81_3 1_555 1_555
O38_3 C82_3 1_555 1_555
C83_3 C84_3 1_555 1_555
C88_3 C89_3 1_555 1_555
C89_3 C90_3 1_555 1_555
Co10_6 O43_6 1_555 1_555
O4_4 Co12 1_555 1_555
O5_4 C6_4 1_555 1_555
C1_4 O44_3 1_555 1_555
C2_4 H1_4 1_555 1_555
C3_4 C1_4 1_555 1_555
C4_4 C3_4 1_555 1_555
H2_4 C4_4 1_555 1_555
C5_4 C4_4 1_555 1_555
C6_4 C5_4 1_555 1_555
O45 C11_4 1_555 1_555
O46 C11_4 1_555 1_555
O8_4 C6_4 1_555 1_555
C11_4 C12_4 1_555 1_555
C12_4 C2_4 1_555 1_555
C13_4 C5_4 1_555 1_555
H5_4 C13_4 1_555 1_555
Co21_2 O5_4 1_555 1_555
Co22_2 O8_4 1_555 1_555
O49_4 Co12 1_555 1_555
O59_4 Co12 1_555 1_555
O4_4 C1_4 1_555 1_555
C2_4 C3_4 1_555 1_555
C12_4 C13_4 1_555 1_555
O12_4 Co13 1_555 1_555
O13_4 C33_4 1_555 1_555
C28_4 O44 1_555 1_555
C29_4 H16_4 1_555 1_555
C30_4 C28_4 1_555 1_555
C31_4 C30_4 1_555 1_555
H17_4 C31_4 1_555 1_555
C32_4 C31_4 1_555 1_555
C33_4 C32_4 1_555 1_555
O47 C34_4 1_555 1_555
O16_4 C33_4 1_555 1_555
C34_4 O45_3 1_555 1_555
C35_4 C29_4 1_555 1_555
C36_4 C32_4 1_555 1_555
H18_4 C36_4 1_555 1_555
N8_5 C55_5 1_555 1_555
C52_5 N15 1_555 1_555
H24_5 C52_5 1_555 1_555
C53_5 C52_5 1_555 1_555
H25_5 C53_5 1_555 1_555
C54_5 C53_5 1_555 1_555
C55_5 C54_5 1_555 1_555
N9_4 C59_5 1_555 1_555
N10_5 C55_5 1_555 1_555
C59_5 H27_5 1_555 1_555
C60_5 C59_5 1_555 1_555
H28_5 C60_5 1_555 1_555
C61_5 C60_5 1_555 1_555
C62_5 N10_5 1_555 1_555
N15_2 C63_5 1_555 1_555
N12_5 C62_5 1_555 1_555
C63_5 H29_5 1_555 1_555
C64_5 C63_5 1_555 1_555
H30_5 C64_5 1_555 1_555
C65_5 C64_5 1_555 1_555
C66_5 N8_5 1_555 1_555
C67_5 N15_2 1_555 1_555
H31_5 C67_5 1_555 1_555
C68_5 C65_5 1_555 1_555
H32_5 C68_5 1_555 1_555
C69_5 N15 1_555 1_555
H33_5 C69_5 1_555 1_555
C70_5 C54_5 1_555 1_555
H34_5 C70_5 1_555 1_555
C71_5 N9_4 1_555 1_555
H35_5 C71_5 1_555 1_555
C72_5 C61_5 1_555 1_555
H36_5 C72_5 1_555 1_555
Co12_2 N9_4 1_555 1_555
Co21_3 O16_4 1_555 1_555
Co22_3 O13_4 1_555 1_555
O52_4 Co13 1_555 1_555
O55_4 Co13 1_555 1_555
N13_3 Co13 1_555 1_555
O12_4 C28_4 1_555 1_555
C29_4 C30_4 1_555 1_555
C34_4 C35_4 1_555 1_555
C35_4 C36_4 1_555 1_555
C61_5 C62_5 1_555 1_555
N12_5 C66_5 1_555 1_555
C65_5 C66_5 1_555 1_555
C67_5 C68_5 1_555 1_555
C69_5 C70_5 1_555 1_555
C71_5 C72_5 1_555 1_555
O4_5 Co13_2 1_555 1_555
O5_5 C6_5 1_555 1_555
C1_5 O44_2 1_555 1_555
C2_5 H1_5 1_555 1_555
C3_5 C1_5 1_555 1_555
C4_5 C3_5 1_555 1_555
H2_5 C4_5 1_555 1_555
C5_5 C4_5 1_555 1_555
C6_5 C5_5 1_555 1_555
O6_4 C11_5 1_555 1_555
O47_2 C11_5 1_555 1_555
O8_5 C6_5 1_555 1_555
C11_5 C12_5 1_555 1_555
C12_5 C2_5 1_555 1_555
C13_5 C5_5 1_555 1_555
H5_5 C13_5 1_555 1_555
Co10_3 O6_4 1_555 1_555
O10_7 Co10_3 1_555 1_555
Co25 O5_5 1_555 1_555
Co18 O8_5 1_555 1_555
O49_5 Co13_2 1_555 1_555
O59_5 Co13_2 1_555 1_555
O4_5 C1_5 1_555 1_555
C2_5 C3_5 1_555 1_555
C12_5 C13_5 1_555 1_555
O10_8 Co10_4 1_555 1_555
O11_4 Co10_4 1_555 1_555
O12_5 Co12_2 1_555 1_555
O13_5 C33_5 1_555 1_555
C28_5 O11_4 1_555 1_555
C29_5 H16_5 1_555 1_555
C30_5 C28_5 1_555 1_555
C31_5 C30_5 1_555 1_555
H17_5 C31_5 1_555 1_555
C32_5 C31_5 1_555 1_555
C33_5 C32_5 1_555 1_555
O46_2 C34_5 1_555 1_555
O16_5 C33_5 1_555 1_555
C34_5 O45_2 1_555 1_555
C35_5 C29_5 1_555 1_555
C36_5 C32_5 1_555 1_555
H18_5 C36_5 1_555 1_555
N8_6 C55_6 1_555 1_555
C52_6 N14_2 1_555 1_555
H24_6 C52_6 1_555 1_555
C53_6 C52_6 1_555 1_555
H25_6 C53_6 1_555 1_555
C54_6 C53_6 1_555 1_555
C55_6 C54_6 1_555 1_555
N13_3 C59_6 1_555 1_555
N10_6 C55_6 1_555 1_555
C59_6 H27_6 1_555 1_555
C60_6 C59_6 1_555 1_555
H28_6 C60_6 1_555 1_555
C61_6 C60_6 1_555 1_555
C62_6 N10_6 1_555 1_555
N11_4 C63_6 1_555 1_555
N12_6 C62_6 1_555 1_555
C63_6 H29_6 1_555 1_555
C64_6 C63_6 1_555 1_555
H30_6 C64_6 1_555 1_555
C65_6 C64_6 1_555 1_555
C66_6 N8_6 1_555 1_555
C67_6 N11_4 1_555 1_555
H31_6 C67_6 1_555 1_555
C68_6 C65_6 1_555 1_555
H32_6 C68_6 1_555 1_555
C69_6 N14_2 1_555 1_555
H33_6 C69_6 1_555 1_555
C70_6 C54_6 1_555 1_555
H34_6 C70_6 1_555 1_555
C71_6 N13_3 1_555 1_555
H35_6 C71_6 1_555 1_555
C72_6 C61_6 1_555 1_555
H36_6 C72_6 1_555 1_555
Co12_3 N11_4 1_555 1_555
Co22_3 O16_5 1_555 1_555
Co21_3 O13_5 1_555 1_555
O52_5 Co12_2 1_555 1_555
O55_5 Co12_2 1_555 1_555
O12_5 C28_5 1_555 1_555
C29_5 C30_5 1_555 1_555
C34_5 C35_5 1_555 1_555
C35_5 C36_5 1_555 1_555
C61_6 C62_6 1_555 1_555
N12_6 C66_6 1_555 1_555
C65_6 C66_6 1_555 1_555
C67_6 C68_6 1_555 1_555
C69_6 C70_6 1_555 1_555
C71_6 C72_6 1_555 1_555
O2_7 Co10_5 1_555 1_555
O25_4 Co10_5 1_555 1_555
O26_4 Co12_3 1_555 1_555
O27_4 C51_4 1_555 1_555
C46_4 O25_4 1_555 1_555
C47_4 H22_4 1_555 1_555
C48_4 C46_4 1_555 1_555
C49_4 C48_4 1_555 1_555
H23_4 C49_4 1_555 1_555
C50_4 C49_4 1_555 1_555
C51_4 C50_4 1_555 1_555
O45_4 C56_4 1_555 1_555
O46_3 C56_4 1_555 1_555
O30_4 C51_4 1_555 1_555
C56_4 C57_4 1_555 1_555
C57_4 C47_4 1_555 1_555
C58_4 C50_4 1_555 1_555
H26_4 C58_4 1_555 1_555
Co27 O27_4 1_555 1_555
Co17 O30_4 1_555 1_555
O50_4 Co12_3 1_555 1_555
O58_4 Co12_3 1_555 1_555
O26_4 C46_4 1_555 1_555
C47_4 C48_4 1_555 1_555
C57_4 C58_4 1_555 1_555
O2_8 Co10_6 1_555 1_555
Co14 O32_4 1_555 1_555
O44_4 C73_4 1_555 1_555
O32_4 C73_4 1_555 1_555
O33_4 C78_4 1_555 1_555
C73_4 C75_4 1_555 1_555
C74_4 H37_4 1_555 1_555
C75_4 C74_4 1_555 1_555
C76_4 C75_4 1_555 1_555
H38_4 C76_4 1_555 1_555
C77_4 C76_4 1_555 1_555
C78_4 C77_4 1_555 1_555
O34_4 Co10_6 1_555 1_555
O36_4 C78_4 1_555 1_555
C79_4 O34_4 1_555 1_555
C80_4 C74_4 1_555 1_555
C81_4 C77_4 1_555 1_555
H39_4 C81_4 1_555 1_555
Co26 O33_4 1_555 1_555
Co20 O36_4 1_555 1_555
O51_4 Co14 1_555 1_555
O57_4 Co14 1_555 1_555
O47_3 C79_4 1_555 1_555
C79_4 C80_4 1_555 1_555
C80_4 C81_4 1_555 1_555
O49_5 C51_5 1_555 1_555
C47_5 H22_5 1_555 1_555
C51_5 C50_5 1_555 1_555
O28_4 C56_5 1_555 1_555
O29_4 C56_5 1_555 1_555
C56_5 C57_5 1_555 1_555
C57_5 C47_5 1_555 1_555
C58_5 C50_5 1_555 1_555
H26_5 C58_5 1_555 1_555
Co27_2 O32_5 1_555 1_555
O31_4 C73_5 1_555 1_555
O32_5 C73_5 1_555 1_555
C73_5 C75_5 1_555 1_555
C74_5 H37_5 1_555 1_555
C75_5 C74_5 1_555 1_555
C76_5 C75_5 1_555 1_555
H38_5 C76_5 1_555 1_555
C77_5 C76_5 1_555 1_555
C78_5 C77_5 1_555 1_555
O56_2 C78_5 1_555 1_555
Co10_7 O28_4 1_555 1_555
Co17_2 O29_4 1_555 1_555
O43_7 Co27_2 1_555 1_555
O47_4 Co27_2 1_555 1_555
N15_3 Co27_2 1_555 1_555
C57_5 C58_5 1_555 1_555
O31_4 Co10_7 1_555 1_555
Co10_7 O43_7 1_555 1_555
Co17_2 O43_7 1_555 1_555
Co5_7 O17_7 1_555 1_555
Co26_2 O17_7 1_555 1_555
O17_7 Co20_2 1_555 1_555
O18_9 Co5_7 1_555 1_555
O19_4 Co5_7 1_555 1_555
O20_4 Co26_2 1_555 1_555
C37_4 O19_4 1_555 1_555
C38_4 H19_4 1_555 1_555
C39_4 C37_4 1_555 1_555
C40_4 C39_4 1_555 1_555
H20_4 C40_4 1_555 1_555
C41_4 C40_4 1_555 1_555
C42_4 C41_4 1_555 1_555
O57_2 C42_4 1_555 1_555
O49_2 C87_4 1_555 1_555
C83_4 H40_4 1_555 1_555
C87_4 C86_4 1_555 1_555
O40_4 Co5_7 1_555 1_555
O41_4 C88_4 1_555 1_555
C88_4 O40_4 1_555 1_555
C89_4 C83_4 1_555 1_555
C90_4 C86_4 1_555 1_555
H42_4 C90_4 1_555 1_555
Co20_2 O41_4 1_555 1_555
O44_5 Co5_7 1_555 1_555
O45_5 Co5_7 1_555 1_555
O46_4 Co26_2 1_555 1_555
N14_3 Co26_2 1_555 1_555
O20_4 C37_4 1_555 1_555
C38_4 C39_4 1_555 1_555
C88_4 C89_4 1_555 1_555
C89_4 C90_4 1_555 1_555
Co1_7 O1_7 1_555 1_555
Co24_2 O1_7 1_555 1_555
O1_7 Co28_2 1_555 1_555
O2_9 Co1_7 1_555 1_555
O3_4 Co1_7 1_555 1_555
O4_6 Co24_2 1_555 1_555
N1_2 Co24_2 1_555 1_555
N2_3 C10_3 1_555 1_555
C1_6 O3_4 1_555 1_555
C2_6 H1_6 1_555 1_555
C3_6 C1_6 1_555 1_555
C4_6 C3_6 1_555 1_555
H2_6 C4_6 1_555 1_555
C5_6 C4_6 1_555 1_555
C6_6 C5_6 1_555 1_555
C7_3 N1_2 1_555 1_555
H3_3 C7_3 1_555 1_555
C8_3 C7_3 1_555 1_555
H4_3 C8_3 1_555 1_555
C9_3 C8_3 1_555 1_555
C10_3 C9_3 1_555 1_555
O58_3 C6_6 1_555 1_555
N3_3 C14_3 1_555 1_555
N4_3 C10_3 1_555 1_555
C14_3 H6_3 1_555 1_555
C15_3 C14_3 1_555 1_555
H7_3 C15_3 1_555 1_555
C16_3 C15_3 1_555 1_555
C17_3 N4_3 1_555 1_555
N5_2 C18_3 1_555 1_555
N6_3 C17_3 1_555 1_555
C18_3 H8_3 1_555 1_555
C19_3 C18_3 1_555 1_555
H9_3 C19_3 1_555 1_555
C20_3 C19_3 1_555 1_555
C21_3 N2_3 1_555 1_555
C22_3 N5_2 1_555 1_555
H10_3 C22_3 1_555 1_555
C23_3 C20_3 1_555 1_555
H11_3 C23_3 1_555 1_555
C24_3 N1_2 1_555 1_555
H12_3 C24_3 1_555 1_555
C25_3 C9_3 1_555 1_555
H13_3 C25_3 1_555 1_555
C26_3 N3_3 1_555 1_555
H14_3 C26_3 1_555 1_555
C27_3 C16_3 1_555 1_555
H15_3 C27_3 1_555 1_555
O50_4 C33_6 1_555 1_555
C29_6 H16_6 1_555 1_555
C33_6 C32_6 1_555 1_555
O14_4 Co1_7 1_555 1_555
O15_4 C34_6 1_555 1_555
C34_6 O14_4 1_555 1_555
C35_6 C29_6 1_555 1_555
C36_6 C32_6 1_555 1_555
H18_6 C36_6 1_555 1_555
Co28_2 O15_4 1_555 1_555
O25_5 Co1_7 1_555 1_555
O26_5 Co28_2 1_555 1_555
N7_4 Co28_2 1_555 1_555
N8_7 C55_7 1_555 1_555
C46_5 O25_5 1_555 1_555
C47_6 H22_6 1_555 1_555
C48_5 C46_5 1_555 1_555
C49_5 C48_5 1_555 1_555
H23_5 C49_5 1_555 1_555
C50_6 C49_5 1_555 1_555
C51_6 C50_6 1_555 1_555
C52_7 N7_4 1_555 1_555
H24_7 C52_7 1_555 1_555
C53_7 C52_7 1_555 1_555
H25_7 C53_7 1_555 1_555
C54_7 C53_7 1_555 1_555
C55_7 C54_7 1_555 1_555
O54_2 C51_6 1_555 1_555
N9_5 C59_7 1_555 1_555
N10_7 C55_7 1_555 1_555
C59_7 H27_7 1_555 1_555
C60_7 C59_7 1_555 1_555
H28_7 C60_7 1_555 1_555
C61_7 C60_7 1_555 1_555
C62_7 N10_7 1_555 1_555
N11_5 C63_7 1_555 1_555
N12_7 C62_7 1_555 1_555
C63_7 H29_7 1_555 1_555
C64_7 C63_7 1_555 1_555
H30_7 C64_7 1_555 1_555
C65_7 C64_7 1_555 1_555
C66_7 N8_7 1_555 1_555
C67_7 N11_5 1_555 1_555
H31_7 C67_7 1_555 1_555
C68_7 C65_7 1_555 1_555
H32_7 C68_7 1_555 1_555
C69_7 N7_4 1_555 1_555
H33_7 C69_7 1_555 1_555
C70_7 C54_7 1_555 1_555
H34_7 C70_7 1_555 1_555
C71_7 N9_5 1_555 1_555
H35_7 C71_7 1_555 1_555
C72_7 C61_7 1_555 1_555
H36_7 C72_7 1_555 1_555
O52_2 C78_6 1_555 1_555
C74_6 H37_6 1_555 1_555
C78_6 C77_6 1_555 1_555
O34_5 Co1_7 1_555 1_555
O35_4 Co24_2 1_555 1_555
C79_5 O34_5 1_555 1_555
C80_5 C74_6 1_555 1_555
C81_5 C77_6 1_555 1_555
H39_5 C81_5 1_555 1_555
Co17 N9_5 1_555 1_555
Co21_2 N3_3 1_555 1_555
Co28 N5_2 1_555 1_555
Co21_3 N11_5 1_555 1_555
O4_6 C1_6 1_555 1_555
C2_6 C3_6 1_555 1_555
C16_3 C17_3 1_555 1_555
N6_3 C21_3 1_555 1_555
C20_3 C21_3 1_555 1_555
C22_3 C23_3 1_555 1_555
C24_3 C25_3 1_555 1_555
C26_3 C27_3 1_555 1_555
C34_6 C35_6 1_555 1_555
C35_6 C36_6 1_555 1_555
O26_5 C46_5 1_555 1_555
C47_6 C48_5 1_555 1_555
C61_7 C62_7 1_555 1_555
N12_7 C66_7 1_555 1_555
C65_7 C66_7 1_555 1_555
C67_7 C68_7 1_555 1_555
C69_7 C70_7 1_555 1_555
C71_7 C72_7 1_555 1_555
O35_4 C79_5 1_555 1_555
C79_5 C80_5 1_555 1_555
C80_5 C81_5 1_555 1_555
O49_3 C6_7 1_555 1_555
C2_7 H1_7 1_555 1_555
C6_7 C5_7 1_555 1_555
O6_5 C11_6 1_555 1_555
O7_4 C11_6 1_555 1_555
C11_6 C12_6 1_555 1_555
C12_6 C2_7 1_555 1_555
C13_6 C5_7 1_555 1_555
H5_6 C13_6 1_555 1_555
Co3_7 O6_5 1_555 1_555
Co19_2 O9_7 1_555 1_555
O9_7 Co3_7 1_555 1_555
O10_9 Co3_7 1_555 1_555
O11_5 Co3_7 1_555 1_555
O12_6 Co19_2 1_555 1_555
C28_6 O11_5 1_555 1_555
C29_7 H16_7 1_555 1_555
C30_6 C28_6 1_555 1_555
C31_6 C30_6 1_555 1_555
H17_6 C31_6 1_555 1_555
C32_7 C31_6 1_555 1_555
C33_7 C32_7 1_555 1_555
O57_3 C33_7 1_555 1_555
O52_5 C42_5 1_555 1_555
C38_5 H19_5 1_555 1_555
C42_5 C41_5 1_555 1_555
O22_4 Co3_7 1_555 1_555
O23_4 Co19_2 1_555 1_555
C43_4 O22_4 1_555 1_555
C44_4 C38_5 1_555 1_555
C45_4 C41_5 1_555 1_555
H21_4 C45_4 1_555 1_555
Co23_2 O7_4 1_555 1_555
O37_4 Co3_7 1_555 1_555
O38_4 Co23_2 1_555 1_555
C82_4 O37_4 1_555 1_555
C83_5 H40_5 1_555 1_555
C84_4 C82_4 1_555 1_555
C85_4 C84_4 1_555 1_555
H41_4 C85_4 1_555 1_555
C86_5 C85_4 1_555 1_555
C87_5 C86_5 1_555 1_555
O58_2 C87_5 1_555 1_555
N13_4 Co19_2 1_555 1_555
N16_3 Co23_2 1_555 1_555
C12_6 C13_6 1_555 1_555
O9_7 Co23_2 1_555 1_555
O12_6 C28_6 1_555 1_555
C29_7 C30_6 1_555 1_555
O23_4 C43_4 1_555 1_555
C43_4 C44_4 1_555 1_555
C44_4 C45_4 1_555 1_555
O38_4 C82_4 1_555 1_555
C83_5 C84_4 1_555 1_555
O52 C51_7 1_555 1_555
C47_7 H22_7 1_555 1_555
C51_7 C50_7 1_555 1_555
O28_5 C56_6 1_555 1_555
O29_5 C56_6 1_555 1_555
C56_6 C57_6 1_555 1_555
C57_6 C47_7 1_555 1_555
C58_6 C50_7 1_555 1_555
H26_6 C58_6 1_555 1_555
Co28 O32_6 1_555 1_555
O31_5 C73_6 1_555 1_555
O32_6 C73_6 1_555 1_555
C73_6 C75_6 1_555 1_555
C74_7 H37_7 1_555 1_555
C75_6 C74_7 1_555 1_555
C76_6 C75_6 1_555 1_555
H38_6 C76_6 1_555 1_555
C77_7 C76_6 1_555 1_555
C78_7 C77_7 1_555 1_555
O54 C78_7 1_555 1_555
Co10_8 O28_5 1_555 1_555
Co24 O29_5 1_555 1_555
O43_8 Co28 1_555 1_555
O47_5 Co28 1_555 1_555
C57_6 C58_6 1_555 1_555
O31_5 Co10_8 1_555 1_555
Co10_8 O43_8 1_555 1_555
Co24 O43_8 1_555 1_555
Co5_8 O17_8 1_555 1_555
Co23 O17_8 1_555 1_555
O17_8 Co19 1_555 1_555
O18_10 Co5_8 1_555 1_555
O19_5 Co5_8 1_555 1_555
O20_5 Co23 1_555 1_555
C37_5 O19_5 1_555 1_555
C38_6 H19_6 1_555 1_555
C39_5 C37_5 1_555 1_555
C40_5 C39_5 1_555 1_555
H20_5 C40_5 1_555 1_555
C41_6 C40_5 1_555 1_555
C42_6 C41_6 1_555 1_555
O58 C42_6 1_555 1_555
O49_4 C87_6 1_555 1_555
C83_6 H40_6 1_555 1_555
C87_6 C86_6 1_555 1_555
O40_5 Co5_8 1_555 1_555
O41_5 C88_5 1_555 1_555
C88_5 O40_5 1_555 1_555
C89_5 C83_6 1_555 1_555
C90_5 C86_6 1_555 1_555
H42_5 C90_5 1_555 1_555
Co19 O41_5 1_555 1_555
O44_6 Co5_8 1_555 1_555
O45_6 Co5_8 1_555 1_555
O46_5 Co23 1_555 1_555
N14_4 Co23 1_555 1_555
O20_5 C37_5 1_555 1_555
C38_6 C39_5 1_555 1_555
C88_5 C89_5 1_555 1_555
C89_5 C90_5 1_555 1_555
Co1_8 O1_8 1_555 1_555
Co17 O1_8 1_555 1_555
O1_8 Co27 1_555 1_555
O2_10 Co1_8 1_555 1_555
O3_5 Co1_8 1_555 1_555
O4_7 Co17 1_555 1_555
C1_7 O3_5 1_555 1_555
C2_8 H1_8 1_555 1_555
C3_7 C1_7 1_555 1_555
C4_7 C3_7 1_555 1_555
H2_7 C4_7 1_555 1_555
C5_8 C4_7 1_555 1_555
C6_8 C5_8 1_555 1_555
O58_4 C6_8 1_555 1_555
O53_3 C33_8 1_555 1_555
C29_8 H16_8 1_555 1_555
C33_8 C32_8 1_555 1_555
O14_5 Co1_8 1_555 1_555
O15_5 C34_7 1_555 1_555
C34_7 O14_5 1_555 1_555
C35_7 C29_8 1_555 1_555
C36_7 C32_8 1_555 1_555
H18_7 C36_7 1_555 1_555
Co27 O15_5 1_555 1_555
O25_6 Co1_8 1_555 1_555
O26_6 Co27 1_555 1_555
N7_5 Co27 1_555 1_555
N8_8 C55_8 1_555 1_555
C46_6 O25_6 1_555 1_555
C47_8 H22_8 1_555 1_555
C48_6 C46_6 1_555 1_555
C49_6 C48_6 1_555 1_555
H23_6 C49_6 1_555 1_555
C50_8 C49_6 1_555 1_555
C51_8 C50_8 1_555 1_555
C52_8 N7_5 1_555 1_555
H24_8 C52_8 1_555 1_555
C53_8 C52_8 1_555 1_555
H25_8 C53_8 1_555 1_555
C54_8 C53_8 1_555 1_555
C55_8 C54_8 1_555 1_555
O56 C51_8 1_555 1_555
N9_6 C59_8 1_555 1_555
N10_8 C55_8 1_555 1_555
C59_8 H27_8 1_555 1_555
C60_8 C59_8 1_555 1_555
H28_8 C60_8 1_555 1_555
C61_8 C60_8 1_555 1_555
C62_8 N10_8 1_555 1_555
N11_6 C63_8 1_555 1_555
N12_8 C62_8 1_555 1_555
C63_8 H29_8 1_555 1_555
C64_8 C63_8 1_555 1_555
H30_8 C64_8 1_555 1_555
C65_8 C64_8 1_555 1_555
C66_8 N8_8 1_555 1_555
C67_8 N11_6 1_555 1_555
H31_8 C67_8 1_555 1_555
C68_8 C65_8 1_555 1_555
H32_8 C68_8 1_555 1_555
C69_8 N7_5 1_555 1_555
H33_8 C69_8 1_555 1_555
C70_8 C54_8 1_555 1_555
H34_8 C70_8 1_555 1_555
C71_8 N9_6 1_555 1_555
H35_8 C71_8 1_555 1_555
C72_8 C61_8 1_555 1_555
H36_8 C72_8 1_555 1_555
O52_4 C78_8 1_555 1_555
C74_8 H37_8 1_555 1_555
C78_8 C77_8 1_555 1_555
O34_6 Co1_8 1_555 1_555
O35_5 Co17 1_555 1_555
C79_6 O34_6 1_555 1_555
C80_6 C74_8 1_555 1_555
C81_6 C77_8 1_555 1_555
H39_6 C81_6 1_555 1_555
Co17_2 N9_6 1_555 1_555
Co18 N11_6 1_555 1_555
O4_7 C1_7 1_555 1_555
C2_8 C3_7 1_555 1_555
C34_7 C35_7 1_555 1_555
C35_7 C36_7 1_555 1_555
O26_6 C46_6 1_555 1_555
C47_8 C48_6 1_555 1_555
C61_8 C62_8 1_555 1_555
N12_8 C66_8 1_555 1_555
C65_8 C66_8 1_555 1_555
C67_8 C68_8 1_555 1_555
C69_8 C70_8 1_555 1_555
C71_8 C72_8 1_555 1_555
O35_5 C79_6 1_555 1_555
C79_6 C80_6 1_555 1_555
C80_6 C81_6 1_555 1_555
O51_3 C6_9 1_555 1_555
C2_9 H1_9 1_555 1_555
C6_9 C5_9 1_555 1_555
O6_6 C11_7 1_555 1_555
O7_5 C11_7 1_555 1_555
C11_7 C12_7 1_555 1_555
C12_7 C2_9 1_555 1_555
C13_7 C5_9 1_555 1_555
H5_7 C13_7 1_555 1_555
Co3_8 O6_6 1_555 1_555
Co20 O9_8 1_555 1_555
O9_8 Co3_8 1_555 1_555
O10_10 Co3_8 1_555 1_555
O11_6 Co3_8 1_555 1_555
O12_7 Co20 1_555 1_555
C28_7 O11_6 1_555 1_555
C29_9 H16_9 1_555 1_555
C30_7 C28_7 1_555 1_555
C31_7 C30_7 1_555 1_555
H17_7 C31_7 1_555 1_555
C32_9 C31_7 1_555 1_555
C33_9 C32_9 1_555 1_555
O57_4 C33_9 1_555 1_555
O49 C42_7 1_555 1_555
C38_7 H19_7 1_555 1_555
C42_7 C41_7 1_555 1_555
O22_5 Co3_8 1_555 1_555
O23_5 Co20 1_555 1_555
C43_5 O22_5 1_555 1_555
C44_5 C38_7 1_555 1_555
C45_5 C41_7 1_555 1_555
H21_5 C45_5 1_555 1_555
Co26 O7_5 1_555 1_555
O37_5 Co3_8 1_555 1_555
O38_5 Co26 1_555 1_555
C82_5 O37_5 1_555 1_555
C83_7 H40_7 1_555 1_555
C84_5 C82_5 1_555 1_555
C85_5 C84_5 1_555 1_555
H41_5 C85_5 1_555 1_555
C86_7 C85_5 1_555 1_555
C87_7 C86_7 1_555 1_555
O57 C87_7 1_555 1_555
N13_5 Co20 1_555 1_555
N16_4 Co26 1_555 1_555
C12_7 C13_7 1_555 1_555
O9_8 Co26 1_555 1_555
O12_7 C28_7 1_555 1_555
C29_9 C30_7 1_555 1_555
O23_5 C43_5 1_555 1_555
C43_5 C44_5 1_555 1_555
C44_5 C45_5 1_555 1_555
O38_5 C82_5 1_555 1_555
C83_7 C84_5 1_555 1_555
O18_11 Co10_7 1_555 1_555
O44_7 Co10_7 1_555 1_555
O45_7 Co10_7 1_555 1_555
N2_4 C10_4 1_555 1_555
C7_4 N13_4 1_555 1_555
H3_4 C7_4 1_555 1_555
C8_4 C7_4 1_555 1_555
H4_4 C8_4 1_555 1_555
C9_4 C8_4 1_555 1_555
C10_4 C9_4 1_555 1_555
N3_4 C14_4 1_555 1_555
N4_4 C10_4 1_555 1_555
C14_4 H6_4 1_555 1_555
C15_4 C14_4 1_555 1_555
H7_4 C15_4 1_555 1_555
C16_4 C15_4 1_555 1_555
C17_4 N4_4 1_555 1_555
N16_4 C18_4 1_555 1_555
N6_4 C17_4 1_555 1_555
C18_4 H8_4 1_555 1_555
C19_4 C18_4 1_555 1_555
H9_4 C19_4 1_555 1_555
C20_4 C19_4 1_555 1_555
C21_4 N2_4 1_555 1_555
C22_4 N16_4 1_555 1_555
H10_4 C22_4 1_555 1_555
C23_4 C20_4 1_555 1_555
H11_4 C23_4 1_555 1_555
C24_4 N13_4 1_555 1_555
H12_4 C24_4 1_555 1_555
C25_4 C9_4 1_555 1_555
H13_4 C25_4 1_555 1_555
C26_4 N3_4 1_555 1_555
H14_4 C26_4 1_555 1_555
C27_4 C16_4 1_555 1_555
H15_4 C27_4 1_555 1_555
N8_9 C55_9 1_555 1_555
C52_9 N16_3 1_555 1_555
H24_9 C52_9 1_555 1_555
C53_9 C52_9 1_555 1_555
H25_9 C53_9 1_555 1_555
C54_9 C53_9 1_555 1_555
C55_9 C54_9 1_555 1_555
N9_7 C59_9 1_555 1_555
N10_9 C55_9 1_555 1_555
C59_9 H27_9 1_555 1_555
C60_9 C59_9 1_555 1_555
H28_9 C60_9 1_555 1_555
C61_9 C60_9 1_555 1_555
C62_9 N10_9 1_555 1_555
N11_7 C63_9 1_555 1_555
N12_9 C62_9 1_555 1_555
C63_9 H29_9 1_555 1_555
C64_9 C63_9 1_555 1_555
H30_9 C64_9 1_555 1_555
C65_9 C64_9 1_555 1_555
C66_9 N8_9 1_555 1_555
C67_9 N11_7 1_555 1_555
H31_9 C67_9 1_555 1_555
C68_9 C65_9 1_555 1_555
H32_9 C68_9 1_555 1_555
C69_9 N16_3 1_555 1_555
H33_9 C69_9 1_555 1_555
C70_9 C54_9 1_555 1_555
H34_9 C70_9 1_555 1_555
C71_9 N9_7 1_555 1_555
H35_9 C71_9 1_555 1_555
C72_9 C61_9 1_555 1_555
H36_9 C72_9 1_555 1_555
Co19 N9_7 1_555 1_555
Co22_3 N3_4 1_555 1_555
Co22_2 N11_7 1_555 1_555
C16_4 C17_4 1_555 1_555
N6_4 C21_4 1_555 1_555
C20_4 C21_4 1_555 1_555
C22_4 C23_4 1_555 1_555
C24_4 C25_4 1_555 1_555
C26_4 C27_4 1_555 1_555
C61_9 C62_9 1_555 1_555
N12_9 C66_9 1_555 1_555
C65_9 C66_9 1_555 1_555
C67_9 C68_9 1_555 1_555
C69_9 C70_9 1_555 1_555
C71_9 C72_9 1_555 1_555
O50 C51_9 1_555 1_555
C47_9 H22_9 1_555 1_555
C51_9 C50_9 1_555 1_555
O28_6 C56_7 1_555 1_555
O29_6 C56_7 1_555 1_555
C56_7 C57_7 1_555 1_555
C57_7 C47_9 1_555 1_555
C58_7 C50_9 1_555 1_555
H26_7 C58_7 1_555 1_555
Co21 O32_7 1_555 1_555
O31_6 C73_7 1_555 1_555
O32_7 C73_7 1_555 1_555
C73_7 C75_7 1_555 1_555
C74_9 H37_9 1_555 1_555
C75_7 C74_9 1_555 1_555
C76_7 C75_7 1_555 1_555
H38_7 C76_7 1_555 1_555
C77_9 C76_7 1_555 1_555
C78_9 C77_9 1_555 1_555
O55 C78_9 1_555 1_555
Co10_9 O28_6 1_555 1_555
Co22 O29_6 1_555 1_555
O43_9 Co21 1_555 1_555
O47_6 Co21 1_555 1_555
N15_4 Co21 1_555 1_555
C57_7 C58_7 1_555 1_555
O31_6 Co10_9 1_555 1_555
Co10_9 O43_9 1_555 1_555
Co22 O43_9 1_555 1_555
Co1_9 O1_9 1_555 1_555
Co18 O1_9 1_555 1_555
O1_9 Co25 1_555 1_555
O2_11 Co1_9 1_555 1_555
O3_6 Co1_9 1_555 1_555
O4_8 Co18 1_555 1_555
C1_8 O3_6 1_555 1_555
C2_10 H1_10 1_555 1_555
C3_8 C1_8 1_555 1_555
C4_8 C3_8 1_555 1_555
H2_8 C4_8 1_555 1_555
C5_10 C4_8 1_555 1_555
C6_10 C5_10 1_555 1_555
O59_5 C6_10 1_555 1_555
O51_2 C33_10 1_555 1_555
C29_10 H16_10 1_555 1_555
C33_10 C32_10 1_555 1_555
O14_6 Co1_9 1_555 1_555
O15_6 C34_8 1_555 1_555
C34_8 O14_6 1_555 1_555
C35_8 C29_10 1_555 1_555
C36_8 C32_10 1_555 1_555
H18_8 C36_8 1_555 1_555
Co25 O15_6 1_555 1_555
O25_7 Co1_9 1_555 1_555
O26_7 Co25 1_555 1_555
N7_6 Co25 1_555 1_555
N8_10 C55_10 1_555 1_555
C46_7 O25_7 1_555 1_555
C47_10 H22_10 1_555 1_555
C48_7 C46_7 1_555 1_555
C49_7 C48_7 1_555 1_555
H23_7 C49_7 1_555 1_555
C50_10 C49_7 1_555 1_555
C51_10 C50_10 1_555 1_555
C52_10 N7_6 1_555 1_555
H24_10 C52_10 1_555 1_555
C53_10 C52_10 1_555 1_555
H25_10 C53_10 1_555 1_555
C54_10 C53_10 1_555 1_555
C55_10 C54_10 1_555 1_555
O59 C51_10 1_555 1_555
N14_3 C59_10 1_555 1_555
N10_10 C55_10 1_555 1_555
C59_10 H27_10 1_555 1_555
C60_10 C59_10 1_555 1_555
H28_10 C60_10 1_555 1_555
C61_10 C60_10 1_555 1_555
C62_10 N10_10 1_555 1_555
N13_5 C63_10 1_555 1_555
N12_10 C62_10 1_555 1_555
C63_10 H29_10 1_555 1_555
C64_10 C63_10 1_555 1_555
H30_10 C64_10 1_555 1_555
C65_10 C64_10 1_555 1_555
C66_10 N8_10 1_555 1_555
C67_10 N13_5 1_555 1_555
H31_10 C67_10 1_555 1_555
C68_10 C65_10 1_555 1_555
H32_10 C68_10 1_555 1_555
C69_10 N7_6 1_555 1_555
H33_10 C69_10 1_555 1_555
C70_10 C54_10 1_555 1_555
H34_10 C70_10 1_555 1_555
C71_10 N14_3 1_555 1_555
H35_10 C71_10 1_555 1_555
C72_10 C61_10 1_555 1_555
H36_10 C72_10 1_555 1_555
O48 C78_10 1_555 1_555
C74_10 H37_10 1_555 1_555
C78_10 C77_10 1_555 1_555
O34_7 Co1_9 1_555 1_555
O35_6 Co18 1_555 1_555
C79_7 O34_7 1_555 1_555
C80_7 C74_10 1_555 1_555
C81_7 C77_10 1_555 1_555
H39_7 C81_7 1_555 1_555
O4_8 C1_8 1_555 1_555
C2_10 C3_8 1_555 1_555
C34_8 C35_8 1_555 1_555
C35_8 C36_8 1_555 1_555
O26_7 C46_7 1_555 1_555
C47_10 C48_7 1_555 1_555
C61_10 C62_10 1_555 1_555
N12_10 C66_10 1_555 1_555
C65_10 C66_10 1_555 1_555
C67_10 C68_10 1_555 1_555
C69_10 C70_10 1_555 1_555
C71_10 C72_10 1_555 1_555
O35_6 C79_7 1_555 1_555
C79_7 C80_7 1_555 1_555
C80_7 C81_7 1_555 1_555
Co5_9 O17_9 1_555 1_555
Co22_2 O17_9 1_555 1_555
O17_9 Co21_2 1_555 1_555
O18_12 Co5_9 1_555 1_555
O19_6 Co5_9 1_555 1_555
O20_6 Co22_2 1_555 1_555
C37_6 O19_6 1_555 1_555
C38_8 H19_8 1_555 1_555
C39_6 C37_6 1_555 1_555
C40_6 C39_6 1_555 1_555
H20_6 C40_6 1_555 1_555
C41_8 C40_6 1_555 1_555
C42_8 C41_8 1_555 1_555
O59_4 C42_8 1_555 1_555
O53 C87_8 1_555 1_555
C83_8 H40_8 1_555 1_555
C87_8 C86_8 1_555 1_555
O40_6 Co5_9 1_555 1_555
O41_6 C88_6 1_555 1_555
C88_6 O40_6 1_555 1_555
C89_6 C83_8 1_555 1_555
C90_6 C86_8 1_555 1_555
H42_6 C90_6 1_555 1_555
Co21_2 O41_6 1_555 1_555
O44_8 Co5_9 1_555 1_555
O45_8 Co5_9 1_555 1_555
O46_6 Co22_2 1_555 1_555
O20_6 C37_6 1_555 1_555
C38_8 C39_6 1_555 1_555
C88_6 C89_6 1_555 1_555
C89_6 C90_6 1_555 1_555
O53_2 C6_11 1_555 1_555
C2_11 H1_11 1_555 1_555
C6_11 C5_11 1_555 1_555
O6_7 C11_8 1_555 1_555
O7_6 C11_8 1_555 1_555
C11_8 C12_8 1_555 1_555
C12_8 C2_11 1_555 1_555
C13_8 C5_11 1_555 1_555
H5_8 C13_8 1_555 1_555
Co3_9 O6_7 1_555 1_555
Co22_3 O9_9 1_555 1_555
O9_9 Co3_9 1_555 1_555
O10_11 Co3_9 1_555 1_555
O11_7 Co3_9 1_555 1_555
O12_8 Co22_3 1_555 1_555
C28_8 O11_7 1_555 1_555
C29_11 H16_11 1_555 1_555
C30_8 C28_8 1_555 1_555
C31_8 C30_8 1_555 1_555
H17_8 C31_8 1_555 1_555
C32_11 C31_8 1_555 1_555
C33_11 C32_11 1_555 1_555
O55_5 C33_11 1_555 1_555
O51 C42_9 1_555 1_555
C38_9 H19_9 1_555 1_555
C42_9 C41_9 1_555 1_555
O22_6 Co3_9 1_555 1_555
O23_6 Co22_3 1_555 1_555
C43_6 O22_6 1_555 1_555
C44_6 C38_9 1_555 1_555
C45_6 C41_9 1_555 1_555
H21_6 C45_6 1_555 1_555
Co21_3 O7_6 1_555 1_555
O37_6 Co3_9 1_555 1_555
O38_6 Co21_3 1_555 1_555
C82_6 O37_6 1_555 1_555
C83_9 H40_9 1_555 1_555
C84_6 C82_6 1_555 1_555
C85_6 C84_6 1_555 1_555
H41_6 C85_6 1_555 1_555
C86_9 C85_6 1_555 1_555
C87_9 C86_9 1_555 1_555
O55_4 C87_9 1_555 1_555
C12_8 C13_8 1_555 1_555
O9_9 Co21_3 1_555 1_555
O12_8 C28_8 1_555 1_555
C29_11 C30_8 1_555 1_555
O23_6 C43_6 1_555 1_555
C43_6 C44_6 1_555 1_555
C44_6 C45_6 1_555 1_555
O38_6 C82_6 1_555 1_555
C83_9 C84_6 1_555 1_555
O4_9 Co17_2 1_555 1_555
C1_9 O44_7 1_555 1_555
C2_12 H1_12 1_555 1_555
C3_9 C1_9 1_555 1_555
C4_9 C3_9 1_555 1_555
H2_9 C4_9 1_555 1_555
C5_12 C4_9 1_555 1_555
C6_12 C5_12 1_555 1_555
O54_3 C6_12 1_555 1_555
O52_3 C33_12 1_555 1_555
C29_12 H16_12 1_555 1_555
C33_12 C32_12 1_555 1_555
O47_4 C34_9 1_555 1_555
C34_9 O45_7 1_555 1_555
C35_9 C29_12 1_555 1_555
C36_9 C32_12 1_555 1_555
H18_9 C36_9 1_555 1_555
N8_11 C55_11 1_555 1_555
C52_11 N15_3 1_555 1_555
H24_11 C52_11 1_555 1_555
C53_11 C52_11 1_555 1_555
H25_11 C53_11 1_555 1_555
C54_11 C53_11 1_555 1_555
C55_11 C54_11 1_555 1_555
N9_8 C59_11 1_555 1_555
N10_11 C55_11 1_555 1_555
C59_11 H27_11 1_555 1_555
C60_11 C59_11 1_555 1_555
H28_11 C60_11 1_555 1_555
C61_11 C60_11 1_555 1_555
C62_11 N10_11 1_555 1_555
N15_4 C63_11 1_555 1_555
N12_11 C62_11 1_555 1_555
C63_11 H29_11 1_555 1_555
C64_11 C63_11 1_555 1_555
H30_11 C64_11 1_555 1_555
C65_11 C64_11 1_555 1_555
C66_11 N8_11 1_555 1_555
C67_11 N15_4 1_555 1_555
H31_11 C67_11 1_555 1_555
C68_11 C65_11 1_555 1_555
H32_11 C68_11 1_555 1_555
C69_11 N15_3 1_555 1_555
H33_11 C69_11 1_555 1_555
C70_11 C54_11 1_555 1_555
H34_11 C70_11 1_555 1_555
C71_11 N9_8 1_555 1_555
H35_11 C71_11 1_555 1_555
C72_11 C61_11 1_555 1_555
H36_11 C72_11 1_555 1_555
Co24 N9_8 1_555 1_555
O4_9 C1_9 1_555 1_555
C2_12 C3_9 1_555 1_555
C34_9 C35_9 1_555 1_555
C35_9 C36_9 1_555 1_555
C61_11 C62_11 1_555 1_555
N12_11 C66_11 1_555 1_555
C65_11 C66_11 1_555 1_555
C67_11 C68_11 1_555 1_555
C69_11 C70_11 1_555 1_555
C71_11 C72_11 1_555 1_555
O51_4 C6_13 1_555 1_555
C2_13 H1_13 1_555 1_555
C6_13 C5_13 1_555 1_555
O45_5 C11_9 1_555 1_555
O46_4 C11_9 1_555 1_555
C11_9 C12_9 1_555 1_555
C12_9 C2_13 1_555 1_555
C13_9 C5_13 1_555 1_555
H5_9 C13_9 1_555 1_555
O12_9 Co20_2 1_555 1_555
C28_9 O44_5 1_555 1_555
C29_13 H16_13 1_555 1_555
C30_9 C28_9 1_555 1_555
C31_9 C30_9 1_555 1_555
H17_9 C31_9 1_555 1_555
C32_13 C31_9 1_555 1_555
C33_13 C32_13 1_555 1_555
O56_3 C33_13 1_555 1_555
N13_6 Co20_2 1_555 1_555
C12_9 C13_9 1_555 1_555
O12_9 C28_9 1_555 1_555
C29_13 C30_9 1_555 1_555
O50_3 C6_14 1_555 1_555
C2_14 H1_14 1_555 1_555
C6_14 C5_14 1_555 1_555
O6_8 C11_10 1_555 1_555
O47_5 C11_10 1_555 1_555
C11_10 C12_10 1_555 1_555
C12_10 C2_14 1_555 1_555
C13_10 C5_14 1_555 1_555
H5_10 C13_10 1_555 1_555
Co10_8 O6_8 1_555 1_555
O10_12 Co10_8 1_555 1_555
O11_8 Co10_8 1_555 1_555
O12_10 Co24 1_555 1_555
C28_10 O11_8 1_555 1_555
C29_14 H16_14 1_555 1_555
C30_10 C28_10 1_555 1_555
C31_10 C30_10 1_555 1_555
H17_10 C31_10 1_555 1_555
C32_14 C31_10 1_555 1_555
C33_14 C32_14 1_555 1_555
O55_3 C33_14 1_555 1_555
C12_10 C13_10 1_555 1_555
O12_10 C28_10 1_555 1_555
C29_14 C30_10 1_555 1_555
O4_10 Co19 1_555 1_555
C1_10 O44_6 1_555 1_555
C2_15 H1_15 1_555 1_555
C3_10 C1_10 1_555 1_555
C4_10 C3_10 1_555 1_555
H2_10 C4_10 1_555 1_555
C5_15 C4_10 1_555 1_555
C6_15 C5_15 1_555 1_555
O59_3 C6_15 1_555 1_555
O48_3 C33_15 1_555 1_555
C29_15 H16_15 1_555 1_555
C33_15 C32_15 1_555 1_555
O46_5 C34_10 1_555 1_555
C34_10 O45_6 1_555 1_555
C35_10 C29_15 1_555 1_555
C36_10 C32_15 1_555 1_555
H18_10 C36_10 1_555 1_555
N8_12 C55_12 1_555 1_555
C52_12 N14_4 1_555 1_555
H24_12 C52_12 1_555 1_555
C53_12 C52_12 1_555 1_555
H25_12 C53_12 1_555 1_555
C54_12 C53_12 1_555 1_555
C55_12 C54_12 1_555 1_555
N13_6 C59_12 1_555 1_555
N10_12 C55_12 1_555 1_555
C59_12 H27_12 1_555 1_555
C60_12 C59_12 1_555 1_555
H28_12 C60_12 1_555 1_555
C61_12 C60_12 1_555 1_555
C62_12 N10_12 1_555 1_555
N11_8 C63_12 1_555 1_555
N12_12 C62_12 1_555 1_555
C63_12 H29_12 1_555 1_555
C64_12 C63_12 1_555 1_555
H30_12 C64_12 1_555 1_555
C65_12 C64_12 1_555 1_555
C66_12 N8_12 1_555 1_555
C67_12 N11_8 1_555 1_555
H31_12 C67_12 1_555 1_555
C68_12 C65_12 1_555 1_555
H32_12 C68_12 1_555 1_555
C69_12 N14_4 1_555 1_555
H33_12 C69_12 1_555 1_555
C70_12 C54_12 1_555 1_555
H34_12 C70_12 1_555 1_555
C71_12 N13_6 1_555 1_555
H35_12 C71_12 1_555 1_555
C72_12 C61_12 1_555 1_555
H36_12 C72_12 1_555 1_555
Co22 N11_8 1_555 1_555
O4_10 C1_10 1_555 1_555
C2_15 C3_10 1_555 1_555
C34_10 C35_10 1_555 1_555
C35_10 C36_10 1_555 1_555
C61_12 C62_12 1_555 1_555
N12_12 C66_12 1_555 1_555
C65_12 C66_12 1_555 1_555
C67_12 C68_12 1_555 1_555
C69_12 C70_12 1_555 1_555
C71_12 C72_12 1_555 1_555
O2_12 Co10_9 1_555 1_555
O25_8 Co10_9 1_555 1_555
O26_8 Co22 1_555 1_555
C46_8 O25_8 1_555 1_555
C47_11 H22_11 1_555 1_555
C48_8 C46_8 1_555 1_555
C49_8 C48_8 1_555 1_555
H23_8 C49_8 1_555 1_555
C50_11 C49_8 1_555 1_555
C51_11 C50_11 1_555 1_555
O59_2 C51_11 1_555 1_555
O48_2 C78_11 1_555 1_555
C74_11 H37_11 1_555 1_555
C78_11 C77_11 1_555 1_555
O34_8 Co10_9 1_555 1_555
C79_8 O34_8 1_555 1_555
C80_8 C74_11 1_555 1_555
C81_8 C77_11 1_555 1_555
H39_8 C81_8 1_555 1_555
O26_8 C46_8 1_555 1_555
C47_11 C48_8 1_555 1_555
O47_6 C79_8 1_555 1_555
C79_8 C80_8 1_555 1_555
C80_8 C81_8 1_555 1_555
O50_2 C51_12 1_555 1_555
C47_12 H22_12 1_555 1_555
C51_12 C50_12 1_555 1_555
O45_8 C56_8 1_555 1_555
O46_6 C56_8 1_555 1_555
C56_8 C57_8 1_555 1_555
C57_8 C47_12 1_555 1_555
C58_8 C50_12 1_555 1_555
H26_8 C58_8 1_555 1_555
Co21_2 O32_8 1_555 1_555
O44_8 C73_8 1_555 1_555
O32_8 C73_8 1_555 1_555
C73_8 C75_8 1_555 1_555
C74_12 H37_12 1_555 1_555
C75_8 C74_12 1_555 1_555
C76_8 C75_8 1_555 1_555
H38_8 C76_8 1_555 1_555
C77_12 C76_8 1_555 1_555
C78_12 C77_12 1_555 1_555
O55_2 C78_12 1_555 1_555
C57_8 C58_8 1_555 1_555

#END
