
###############################################################################
#
# This file contains modified crystal structure data generated from the
# MOF subset of the Cambridge Structural Database (CSD) v543 
# hosted by the Cambridge Crystallographic Data Centre (CCDC).
#
# This work is licensed under the Creative Commons
# Attribution-NonCommercial-ShareAlike 4.0 International License.
# To view a copy of this license, visit
# http://creativecommons.org/licenses/by-nc-sa/4.0/
# or send a letter to
# Creative Commons, PO Box 1866, Mountain View, CA 94042, USA.
#
# CIF created using the CSD Python API on 29 September 2022
# The structure has been converted into the P1 space group
# The structure has a 3D framework
# The original CSD entry INESIE is in the monoclinic crystal system
# The framework has been calculated to contain at least 10.0% void space
# The void calculation uses a probe of radius 1.32A, grid spacing 0.4
#
###############################################################################

data_INESIE
_chemical_formula_moiety         '(C96 H64 N16 Ni8 O35)n'
_symmetry_cell_setting           triclinic
_symmetry_space_group_name_H-M   'P 1'
_symmetry_Int_Tables_number      1
_space_group_name_Hall           'P 1'
loop_
_symmetry_equiv_pos_site_id
_symmetry_equiv_pos_as_xyz
1 x,y,z
_cell_length_a                   10.728(2)
_cell_length_b                   19.576(4)
_cell_length_c                   13.790(3)
_cell_angle_alpha                90
_cell_angle_beta                 104.49(3)
_cell_angle_gamma                90
_cell_volume                     2803.94
loop_
_atom_site_label
_atom_site_type_symbol
_atom_site_fract_x
_atom_site_fract_y
_atom_site_fract_z
N1 N 0.3744(3) 0.27582(14) 0.12526(18)
N2 N 0.7426(2) 0.05465(14) 0.10226(19)
C2 C 0.3013(3) 0.17921(17) 0.0199(2)
C3 C 0.3325(6) 0.1365(2) 0.1024(3)
H1 H 0.3180 0.0897 0.0954
C4 C 0.3835(7) 0.1645(2) 0.1951(3)
H2 H 0.4057 0.1368 0.2515
C5 C 0.4034(5) 0.2339(2) 0.2037(3)
H3 H 0.4391 0.2523 0.2668
C6 C 0.3258(3) 0.24798(16) 0.0351(2)
C7 C 0.8135(6) 0.1571(3) 0.0408(4)
H5 H 0.8698 0.1940 0.0517
C8 C 0.8222(5) 0.1082(2) 0.1129(3)
H6 H 0.8876 0.1119 0.1715
C9 C 0.6528(3) 0.05056(16) 0.0160(2)
H7 H 0.5992 0.0125 0.0061
Ni9 Ni 0.40506(4) 0.381750(19) 0.13938(3)
Ni1 Ni 0.24591(4) 0.02561(2) 0.79524(3)
Ni2 Ni 0.40506(4) 0.118250(19) 0.63938(3)
O1 O 0.2239(2) 0.08874(12) 0.90962(16)
O2 O 0.2353(3) 0.19244(13) 0.84426(18)
O3 O 0.4421(2) 0.04500(12) 0.85479(16)
O4 O 0.5211(2) 0.13019(11) 0.77815(15)
O5 O 0.4349(2) 0.01238(11) 0.64464(17)
O9 O 0.2400(2) 0.10948(11) 0.69785(15)
N4 N 0.0450(2) 0.01149(14) 0.74271(18)
C1 C 0.2478(3) 0.15151(18) 0.9160(2)
H4 H 0.3076 0.2766 0.9795
C10 C 0.7173(5) 0.1525(2) 0.9525(3)
H8 H 0.7115 0.1846 0.9018
C11 C 0.6327(3) 0.09836(16) 0.9405(2)
C12 C 0.5223(3) 0.09035(15) 0.8499(2)
Ni6 Ni 0.24591(4) 0.47439(2) 0.29524(3)
O11 O 0.2239(2) 0.41126(12) 0.40962(16)
O12 O 0.2353(3) 0.30756(13) 0.34426(18)
O18 O 0.7289(2) 0.04025(11) 0.31223(16)
O19 O 0.0927(2) 0.09440(16) 0.51883(18)
O20 O 0.2912(2) 0.09774(12) 0.49699(15)
N5 N 0.3744(3) 0.22418(14) 0.62526(18)
N10 N 0.5623(3) 0.12455(13) 0.57693(19)
C25 C 0.2478(3) 0.34849(18) 0.4160(2)
C26 C 0.3013(3) 0.32079(17) 0.5199(2)
C27 C 0.3325(6) 0.3635(2) 0.6024(3)
H17 H 0.3180 0.4103 0.5954
C28 C 0.3835(7) 0.3355(2) 0.6951(3)
H18 H 0.4057 0.3632 0.7515
C29 C 0.4034(5) 0.2661(2) 0.7037(3)
H19 H 0.4391 0.2477 0.7668
C30 C 0.3258(3) 0.25202(16) 0.5351(2)
H20 H 0.3076 0.2234 0.4795
C37 C 0.6498(3) 0.03313(15) 0.3646(2)
C38 C 0.6602(3) 0.08224(16) 0.4499(2)
C39 C 0.7707(4) 0.1202(2) 0.4906(3)
H25 H 0.8404 0.1196 0.4618
C40 C 0.7746(4) 0.1588(2) 0.5751(4)
H26 H 0.8480 0.1837 0.6047
C41 C 0.6700(4) 0.1604(2) 0.6156(3)
H27 H 0.6739 0.1872 0.6720
C42 C 0.5608(3) 0.08562(16) 0.4970(2)
H28 H 0.4882 0.0590 0.4717
C43 C 0.1744(3) 0.08120(16) 0.4712(2)
C44 C 0.1313(3) 0.04186(16) 0.3746(2)
C45 C 0.2150(3) 0.0217(2) 0.3187(3)
H29 H 0.3020 0.0328 0.3386
C48 C 0.0037(3) 0.02296(16) 0.3420(2)
Ni3 Ni 0.75409(4) 0.97439(2) 0.20476(3)
O6 O 0.2711(2) 0.95975(11) 0.68777(16)
N3 N 0.4377(3) 0.87545(13) 0.42307(19)
C13 C 0.3502(3) 0.96687(15) 0.6354(2)
C14 C 0.3398(3) 0.91776(16) 0.5501(2)
C15 C 0.2293(4) 0.8798(2) 0.5094(3)
H9 H 0.1596 0.8804 0.5382
C16 C 0.2254(4) 0.8412(2) 0.4249(4)
H10 H 0.1520 0.8163 0.3953
C17 C 0.3300(4) 0.8396(2) 0.3844(3)
H11 H 0.3261 0.8128 0.3280
C18 C 0.4392(3) 0.91438(16) 0.5030(2)
H12 H 0.5118 0.9410 0.5283
H16 H 0.0518 0.9648 0.6188
Ni10 Ni 0.59494(4) 0.881750(19) 0.36062(3)
O15 O 0.4789(2) 0.86981(11) 0.22185(15)
O16 O 0.5651(2) 0.98762(11) 0.35536(17)
O21 O 0.7088(2) 0.90226(12) 0.50301(15)
O23 O 0.7600(2) 0.89052(11) 0.30215(15)
N6 N 0.6256(3) 0.77582(14) 0.37474(18)
N7 N 0.2574(2) 0.94535(14) 0.89774(19)
C46 C 0.1665(4) 0.9849(2) 0.2322(3)
H30 H 0.2207 0.9707 0.1931
C47 C 0.0373(3) 0.9696(2) 0.2035(3)
H31 H 0.0063 0.9447 0.1451
C22 C 0.8335(4) 0.0151(2) 0.7678(3)
H14 H 0.7793 0.0293 0.8069
C23 C 0.9627(3) 0.0304(2) 0.7965(3)
H15 H 0.9937 0.0553 0.8549
H32 H 0.9482 0.0352 0.3812
O7 O 0.9073(2) 0.90560(16) 0.48117(18)
C19 C 0.8256(3) 0.91880(16) 0.5288(2)
C20 C 0.8687(3) 0.95814(16) 0.6254(2)
C21 C 0.7850(3) 0.9783(2) 0.6813(3)
H13 H 0.6980 0.9672 0.6614
C24 C 0.9963(3) 0.97704(16) 0.6580(2)
O10 O 0.7761(2) 0.91126(12) 0.09038(16)
O13 O 0.5579(2) 0.95500(12) 0.14521(16)
N11 N 0.9550(2) 0.98851(14) 0.25729(18)
C34 C 0.2827(5) 0.8475(2) 0.0475(3)
H24 H 0.2885 0.8154 0.0982
C35 C 0.3673(3) 0.90164(16) 0.0595(2)
C36 C 0.4777(3) 0.90965(15) 0.1501(2)
C31 C 0.1865(6) 0.8429(3) 0.9592(4)
H21 H 0.1302 0.8060 0.9483
C32 C 0.1778(5) 0.8918(2) 0.8871(3)
H22 H 0.1124 0.8881 0.8285
C33 C 0.3472(3) 0.94944(16) 0.9840(2)
H23 H 0.4008 0.9875 0.9939
O7_2 O 0.0927(2) 0.40560(16) 0.01883(18)
Ni7 Ni 0.75409(4) 0.52561(2) 0.70476(3)
O13_2 O 0.4421(2) 0.45500(12) 0.35479(16)
O14 O 0.5211(2) 0.36981(11) 0.27815(15)
O17 O 0.2711(2) 0.54025(11) 0.18777(16)
O22 O 0.2400(2) 0.39052(11) 0.19785(15)
N8 N 0.2574(2) 0.55465(14) 0.39774(19)
N9 N 0.7426(2) 0.44535(14) 0.60226(19)
N11_2 N 0.0450(2) 0.48851(14) 0.24271(18)
C31_2 C 0.8135(6) 0.3429(3) 0.5408(4)
H21_2 H 0.8698 0.3060 0.5517
C32_2 C 0.8222(5) 0.3918(2) 0.6129(3)
H22_2 H 0.8876 0.3881 0.6715
C33_2 C 0.6528(3) 0.44944(16) 0.5160(2)
H23_2 H 0.5992 0.4875 0.5061
C34_2 C 0.7173(5) 0.3475(2) 0.4525(3)
H24_2 H 0.7115 0.3154 0.4018
C35_2 C 0.6327(3) 0.40164(16) 0.4405(2)
C36_2 C 0.5223(3) 0.40965(15) 0.3499(2)
H32_2 H 0.0518 0.5352 0.1188
O8 O 0.2912(2) 0.40226(12) 0.99699(15)
C19_2 C 0.1744(3) 0.41880(16) 0.9712(2)
C20_2 C 0.1313(3) 0.45814(16) 0.8746(2)
C21_2 C 0.2150(3) 0.4783(2) 0.8187(3)
H13_2 H 0.3020 0.4672 0.8386
C22_2 C 0.1665(4) 0.5151(2) 0.7322(3)
H14_2 H 0.2207 0.5293 0.6931
C23_2 C 0.0373(3) 0.5304(2) 0.7035(3)
H15_2 H 0.0063 0.5553 0.6451
C24_2 C 0.0037(3) 0.47704(16) 0.8420(2)
N3_2 N 0.5623(3) 0.37545(13) 0.07693(19)
C16_2 C 0.7746(4) 0.3412(2) 0.0751(4)
H10_2 H 0.8480 0.3163 0.1047
C17_2 C 0.6700(4) 0.3396(2) 0.1156(3)
H11_2 H 0.6739 0.3128 0.1720
O12_2 O 0.7647(3) 0.80756(13) 0.15574(18)
O16_2 O 0.4349(2) 0.48762(11) 0.14464(17)
O20_2 O 0.7088(2) 0.59774(12) 0.00301(15)
C25_2 C 0.7522(3) 0.84849(18) 0.0840(2)
H20_2 H 0.6924 0.7234 0.0205
C37_2 C 0.3502(3) 0.53313(15) 0.1354(2)
C38_2 C 0.3398(3) 0.58224(16) 0.0501(2)
C39_2 C 0.2293(4) 0.6202(2) 0.0094(3)
H25_2 H 0.1596 0.6196 0.0382
C42_2 C 0.4392(3) 0.58562(16) 0.0030(2)
H28_2 H 0.5118 0.5590 0.0283
C43_2 C 0.8256(3) 0.58120(16) 0.0288(2)
C44_2 C 0.8687(3) 0.54186(16) 0.1254(2)
C45_2 C 0.7850(3) 0.5217(2) 0.1813(3)
H29_2 H 0.6980 0.5328 0.1614
C46_2 C 0.8335(4) 0.4849(2) 0.2678(3)
H30_2 H 0.7793 0.4707 0.3069
C47_2 C 0.9627(3) 0.4696(2) 0.2965(3)
H31_2 H 0.9937 0.4447 0.3549
C48_2 C 0.9963(3) 0.52296(16) 0.1580(2)
Ni2_2 Ni 0.59494(4) 0.618250(19) 0.86062(3)
O1_2 O 0.7761(2) 0.58874(12) 0.59038(16)
O2_2 O 0.7647(3) 0.69244(13) 0.65574(18)
O3_2 O 0.5579(2) 0.54500(12) 0.64521(16)
O4_2 O 0.4789(2) 0.63019(11) 0.72185(15)
O5_2 O 0.5651(2) 0.51238(11) 0.85536(17)
O6_2 O 0.7289(2) 0.45975(11) 0.81223(16)
O9_2 O 0.7600(2) 0.60948(11) 0.80215(15)
N4_2 N 0.9550(2) 0.51149(14) 0.75729(18)
C1_2 C 0.7522(3) 0.65151(18) 0.5840(2)
C2_2 C 0.6987(3) 0.67921(17) 0.4801(2)
C3_2 C 0.6675(6) 0.6365(2) 0.3976(3)
H1_2 H 0.6820 0.5897 0.4046
C4_2 C 0.6165(7) 0.6645(2) 0.3049(3)
H2_2 H 0.5943 0.6368 0.2485
C5_2 C 0.5966(5) 0.7339(2) 0.2963(3)
H3_2 H 0.5609 0.7523 0.2332
C6_2 C 0.6742(3) 0.74798(16) 0.4649(2)
H4_2 H 0.6924 0.7766 0.5205
C7_2 C 0.1865(6) 0.6571(3) 0.4592(4)
H5_2 H 0.1302 0.6940 0.4483
C8_2 C 0.1778(5) 0.6082(2) 0.3871(3)
H6_2 H 0.1124 0.6119 0.3285
C9_2 C 0.3472(3) 0.55056(16) 0.4840(2)
H7_2 H 0.4008 0.5125 0.4939
C10_2 C 0.2827(5) 0.6525(2) 0.5475(3)
H8_2 H 0.2885 0.6846 0.5982
C11_2 C 0.3673(3) 0.59836(16) 0.5595(2)
C12_2 C 0.4777(3) 0.59035(15) 0.6501(2)
C13_2 C 0.6498(3) 0.46687(15) 0.8646(2)
C14_2 C 0.6602(3) 0.41776(16) 0.9499(2)
C15_2 C 0.7707(4) 0.3798(2) 0.9906(3)
H9_2 H 0.8404 0.3804 0.9618
C18_2 C 0.5608(3) 0.41438(16) 0.9970(2)
H12_2 H 0.4882 0.4410 0.9717
H16_2 H 0.9482 0.4648 0.8812
O19_2 O 0.9073(2) 0.59440(16) 0.98117(18)
N5_2 N 0.6256(3) 0.72418(14) 0.87474(18)
N10_2 N 0.4377(3) 0.62455(13) 0.92307(19)
C26_2 C 0.6987(3) 0.82079(17) 0.9801(2)
C27_2 C 0.6675(6) 0.8635(2) 0.8976(3)
H17_2 H 0.6820 0.9103 0.9046
C28_2 C 0.6165(7) 0.8355(2) 0.8049(3)
H18_2 H 0.5943 0.8632 0.7485
C29_2 C 0.5966(5) 0.7661(2) 0.7963(3)
H19_2 H 0.5609 0.7477 0.7332
C30_2 C 0.6742(3) 0.75202(16) 0.9649(2)
C40_2 C 0.2254(4) 0.6588(2) 0.9249(4)
H26_2 H 0.1520 0.6837 0.8953
C41_2 C 0.3300(4) 0.6604(2) 0.8844(3)
H27_2 H 0.3261 0.6872 0.8280
loop_
_geom_bond_atom_site_label_1
_geom_bond_atom_site_label_2
_geom_bond_site_symmetry_1
_geom_bond_site_symmetry_2
N1 C5 1_555 1_555
N2 C8 1_555 1_555
C2 C3 1_555 1_555
C3 H1 1_555 1_555
C4 C3 1_555 1_555
H2 C4 1_555 1_555
C5 C4 1_555 1_555
H3 C5 1_555 1_555
C6 N1 1_555 1_555
C7 H5 1_555 1_555
C8 C7 1_555 1_555
H6 C8 1_555 1_555
C9 N2 1_555 1_555
H7 C9 1_555 1_555
Ni9 N1 1_555 1_555
C2 C6 1_555 1_555
Ni1 O1 1_555 1_555
Ni2 O4 1_555 1_555
O1 C1 1_555 1_555
O2 C1 1_555 1_555
O3 Ni1 1_555 1_555
O4 C12 1_555 1_555
O5 Ni2 1_555 1_555
O9 Ni1 1_555 1_555
N4 Ni1 1_555 1_555
H8 C10 1_555 1_555
C12 O3 1_555 1_555
Ni6 O11 1_555 1_555
O11 C25 1_555 1_555
O12 C25 1_555 1_555
O18 C37 1_555 1_555
O19 C43 1_555 1_555
O20 Ni2 1_555 1_555
N5 Ni2 1_555 1_555
N10 Ni2 1_555 1_555
C25 C26 1_555 1_555
C26 C27 1_555 1_555
C27 H17 1_555 1_555
C28 C27 1_555 1_555
H18 C28 1_555 1_555
C29 N5 1_555 1_555
H19 C29 1_555 1_555
C30 N5 1_555 1_555
H20 C30 1_555 1_555
C38 C37 1_555 1_555
C39 C38 1_555 1_555
H25 C39 1_555 1_555
C40 C39 1_555 1_555
H26 C40 1_555 1_555
C41 N10 1_555 1_555
H27 C41 1_555 1_555
C42 N10 1_555 1_555
H28 C42 1_555 1_555
C43 O20 1_555 1_555
C44 C43 1_555 1_555
C45 C44 1_555 1_555
H29 C45 1_555 1_555
Ni2 O9 1_555 1_555
C10 C11 1_555 1_555
C11 C12 1_555 1_555
C26 C30 1_555 1_555
C28 C29 1_555 1_555
C38 C42 1_555 1_555
C40 C41 1_555 1_555
C44 C48 1_555 1_555
N3 C17 1_555 1_555
C14 C13 1_555 1_555
C15 C14 1_555 1_555
H9 C15 1_555 1_555
C16 C15 1_555 1_555
H10 C16 1_555 1_555
C17 C16 1_555 1_555
H11 C17 1_555 1_555
C18 N3 1_555 1_555
H12 C18 1_555 1_555
Ni10 N3 1_555 1_555
O15 Ni10 1_555 1_555
O16 Ni10 1_555 1_555
O21 Ni10 1_555 1_555
O23 Ni3 1_555 1_555
N6 Ni10 1_555 1_555
H30 C46 1_555 1_555
H31 C47 1_555 1_555
O6 C13 1_555 1_555
C14 C18 1_555 1_555
Ni10 O23 1_555 1_555
C46 C47 1_555 1_555
H14 C22 1_555 1_555
H15 C23 1_555 1_555
C22 C23 1_555 1_555
O7 C19 1_555 1_555
O21 C19 1_555 1_555
C19 C20 1_555 1_555
C20 C21 1_555 1_555
C21 H13 1_555 1_555
Ni3 O10 1_555 1_555
O13 Ni3 1_555 1_555
N11 Ni3 1_555 1_555
H24 C34 1_555 1_555
C36 O13 1_555 1_555
C20 C24 1_555 1_555
O15 C36 1_555 1_555
C34 C35 1_555 1_555
C35 C36 1_555 1_555
N7 C32 1_555 1_555
C31 H21 1_555 1_555
C32 C31 1_555 1_555
H22 C32 1_555 1_555
C33 N7 1_555 1_555
H23 C33 1_555 1_555
Ni7 N9 1_555 1_555
O13_2 Ni6 1_555 1_555
O14 Ni9 1_555 1_555
O17 Ni6 1_555 1_555
O22 Ni6 1_555 1_555
N8 Ni6 1_555 1_555
N9 C32_2 1_555 1_555
N11_2 Ni6 1_555 1_555
C31_2 H21_2 1_555 1_555
C32_2 C31_2 1_555 1_555
H22_2 C32_2 1_555 1_555
C33_2 N9 1_555 1_555
H23_2 C33_2 1_555 1_555
C34_2 C31_2 1_555 1_555
H24_2 C34_2 1_555 1_555
C35_2 C33_2 1_555 1_555
C36_2 O13_2 1_555 1_555
Ni9 O22 1_555 1_555
O14 C36_2 1_555 1_555
C34_2 C35_2 1_555 1_555
C35_2 C36_2 1_555 1_555
O8 C19_2 1_555 1_555
C19_2 C20_2 1_555 1_555
C20_2 C21_2 1_555 1_555
C21_2 H13_2 1_555 1_555
C22_2 C21_2 1_555 1_555
H14_2 C22_2 1_555 1_555
H15_2 C23_2 1_555 1_555
C20_2 C24_2 1_555 1_555
C22_2 C23_2 1_555 1_555
N3_2 C17_2 1_555 1_555
H10_2 C16_2 1_555 1_555
C17_2 C16_2 1_555 1_555
H11_2 C17_2 1_555 1_555
Ni9 N3_2 1_555 1_555
O10 C25_2 1_555 1_555
O12_2 C25_2 1_555 1_555
O16_2 Ni9 1_555 1_555
O17 C37_2 1_555 1_555
C37_2 O16_2 1_555 1_555
C38_2 C37_2 1_555 1_555
C39_2 C38_2 1_555 1_555
H25_2 C39_2 1_555 1_555
H28_2 C42_2 1_555 1_555
C43_2 O20_2 1_555 1_555
C44_2 C43_2 1_555 1_555
C45_2 C44_2 1_555 1_555
H29_2 C45_2 1_555 1_555
C46_2 C45_2 1_555 1_555
H30_2 C46_2 1_555 1_555
H31_2 C47_2 1_555 1_555
C38_2 C42_2 1_555 1_555
C44_2 C48_2 1_555 1_555
C46_2 C47_2 1_555 1_555
Ni7 O1_2 1_555 1_555
Ni2_2 O4_2 1_555 1_555
O1_2 C1_2 1_555 1_555
O2_2 C1_2 1_555 1_555
O3_2 Ni7 1_555 1_555
O4_2 C12_2 1_555 1_555
O5_2 Ni2_2 1_555 1_555
O6_2 Ni7 1_555 1_555
O9_2 Ni7 1_555 1_555
N6 C5_2 1_555 1_555
N8 C8_2 1_555 1_555
N4_2 Ni7 1_555 1_555
C1_2 C2_2 1_555 1_555
C2_2 C3_2 1_555 1_555
C3_2 H1_2 1_555 1_555
C4_2 C3_2 1_555 1_555
H2_2 C4_2 1_555 1_555
C5_2 C4_2 1_555 1_555
H3_2 C5_2 1_555 1_555
C6_2 N6 1_555 1_555
H4_2 C6_2 1_555 1_555
C7_2 H5_2 1_555 1_555
C8_2 C7_2 1_555 1_555
H6_2 C8_2 1_555 1_555
C9_2 N8 1_555 1_555
H7_2 C9_2 1_555 1_555
C10_2 C7_2 1_555 1_555
H8_2 C10_2 1_555 1_555
C11_2 C9_2 1_555 1_555
C12_2 O3_2 1_555 1_555
C13_2 O5_2 1_555 1_555
C14_2 C13_2 1_555 1_555
C15_2 C14_2 1_555 1_555
H9_2 C15_2 1_555 1_555
H12_2 C18_2 1_555 1_555
N5_2 Ni2_2 1_555 1_555
N10_2 Ni2_2 1_555 1_555
C26_2 C27_2 1_555 1_555
C27_2 H17_2 1_555 1_555
C28_2 C27_2 1_555 1_555
H18_2 C28_2 1_555 1_555
C29_2 N5_2 1_555 1_555
H19_2 C29_2 1_555 1_555
C30_2 N5_2 1_555 1_555
H26_2 C40_2 1_555 1_555
C41_2 N10_2 1_555 1_555
H27_2 C41_2 1_555 1_555
Ni2_2 O9_2 1_555 1_555
O6_2 C13_2 1_555 1_555
C2_2 C6_2 1_555 1_555
C10_2 C11_2 1_555 1_555
C11_2 C12_2 1_555 1_555
C14_2 C18_2 1_555 1_555
C26_2 C30_2 1_555 1_555
C28_2 C29_2 1_555 1_555
C40_2 C41_2 1_555 1_555

#END
