
###############################################################################
#
# This file contains modified crystal structure data generated from the
# MOF subset of the Cambridge Structural Database (CSD) v543 
# hosted by the Cambridge Crystallographic Data Centre (CCDC).
#
# This work is licensed under the Creative Commons
# Attribution-NonCommercial-ShareAlike 4.0 International License.
# To view a copy of this license, visit
# http://creativecommons.org/licenses/by-nc-sa/4.0/
# or send a letter to
# Creative Commons, PO Box 1866, Mountain View, CA 94042, USA.
#
# CIF created using the CSD Python API on 29 September 2022
# The structure has been converted into the P1 space group
# The structure has a 3D framework
# The original CSD entry INEXIK is in the monoclinic crystal system
# The framework has been calculated to contain at least 10.0% void space
# The void calculation uses a probe of radius 1.32A, grid spacing 0.4
#
###############################################################################

data_INEXIK
_chemical_formula_moiety         '(C100 H76 Co8 N4 O44)n'
_symmetry_cell_setting           triclinic
_symmetry_space_group_name_H-M   'P 1'
_symmetry_Int_Tables_number      1
_space_group_name_Hall           'P 1'
loop_
_symmetry_equiv_pos_site_id
_symmetry_equiv_pos_as_xyz
1 x,y,z
_cell_length_a                   10.230(3)
_cell_length_b                   9.468(3)
_cell_length_c                   28.006(9)
_cell_angle_alpha                90
_cell_angle_beta                 98.048(6)
_cell_angle_gamma                90
_cell_volume                     2685.88
loop_
_atom_site_label
_atom_site_type_symbol
_atom_site_fract_x
_atom_site_fract_y
_atom_site_fract_z
Co1 Co 0.77973(12) 0.38336(14) 0.69352(4)
Co2 Co 0.55644(12) 0.43970(15) 0.59720(4)
O1 O 0.5327(8) 0.2463(8) 0.6264(3)
O2 O 0.5785(9) 0.6409(10) 0.5642(3)
H1 H 0.5015 0.6514 0.5694
H2 H 0.5886 0.6337 0.5347
O3 O 0.7099(7) 0.1869(8) 0.6778(3)
C1 C 0.6030(10) 0.1590(11) 0.6520(4)
C2 C 0.5518(9) 0.0101(10) 0.6533(4)
H5 H 0.3603 0.0591 0.6293
O12 O 0.6326(7) 0.5183(7) 0.6660(2)
O13 O 0.7123(8) 0.3780(10) 0.7650(3)
O14 O 0.9188(7) 0.3486(9) 0.7548(2)
O15 O 0.4103(7) 0.3741(10) 0.5358(3)
O16 O 0.3479(6) 0.4612(8) 0.6008(2)
O17 O 0.8994(7) 0.3922(9) 0.6410(2)
O18 O 0.7374(7) 0.3892(10) 0.5781(3)
O4 O 0.7825(7) 0.6527(8) 0.7059(3)
O6 O 0.2877(8) 0.8780(10) 0.7350(3)
O7 O 0.0812(7) 0.8486(9) 0.7452(2)
O10 O 0.1006(7) 0.6078(9) 0.3590(2)
O11 O 0.2626(7) 0.6108(10) 0.4219(3)
C3 C 0.6357(10) 0.8988(11) 0.6678(4)
H3 H 0.7255 0.9144 0.6770
C4 C 0.5837(10) 0.7629(11) 0.6687(3)
C5 C 0.4491(10) 0.7417(11) 0.6579(3)
H4 H 0.4149 0.6513 0.6601
C6 C 0.3639(9) 0.8537(11) 0.6437(4)
C7 C 0.4157(10) 0.9846(12) 0.6403(4)
C8 C 0.6739(10) 0.6395(10) 0.6811(3)
C9 C 0.2190(9) 0.8246(11) 0.6314(4)
C10 C 0.1307(10) 0.8252(11) 0.6649(3)
C13 C 0.0392(9) 0.7572(11) 0.5674(3)
C14 C 0.1692(9) 0.7928(12) 0.5838(3)
H8 H 0.2278 0.7956 0.5612
C15 C 0.1712(10) 0.8528(11) 0.7180(3)
C20 C 0.0444(10) 0.6405(12) 0.4370(3)
C21 C 0.0849(9) 0.6890(11) 0.4844(4)
H11 H 0.1741 0.7055 0.4944
C22 C 0.1466(10) 0.6159(11) 0.4042(4)
Co4 Co 0.22027(12) 0.88336(14) 0.80648(4)
Co5 Co 0.22027(12) 0.61664(14) 0.30648(4)
Co8 Co 0.44356(12) 0.56030(15) 0.40280(4)
O8 O 0.5897(7) 0.6259(10) 0.4642(3)
O9 O 0.6521(6) 0.5388(8) 0.3992(2)
C11 C 0.9982(10) 0.7915(14) 0.6487(3)
H6 H 0.9389 0.7926 0.6710
C12 C 0.9503(10) 0.7563(15) 0.6008(4)
H7 H 0.8620 0.7331 0.5916
C16 C 0.9948(9) 0.7130(12) 0.5166(4)
C17 C 0.8623(10) 0.6819(12) 0.5005(4)
H9 H 0.8000 0.6965 0.5212
C18 C 0.8221(10) 0.6308(11) 0.4553(3)
C19 C 0.9125(9) 0.6087(11) 0.4232(3)
H10 H 0.8843 0.5726 0.3926
C23 C 0.6791(10) 0.5951(11) 0.4379(4)
O8_2 O 0.4103(7) 0.1259(10) 0.0358(3)
O9_2 O 0.3479(6) 0.0388(8) 0.1008(2)
C18_2 C 0.1779(10) 0.1308(11) 0.0447(3)
C19_2 C 0.0875(9) 0.1087(11) 0.0768(3)
H10_2 H 0.1157 0.0726 0.1074
C23_2 C 0.3209(10) 0.0951(11) 0.0621(4)
Co7 Co 0.55644(12) 0.06030(15) 0.09720(4)
O2_2 O 0.4215(9) 0.1409(10) 0.9358(3)
H1_2 H 0.4985 0.1514 0.9306
H2_2 H 0.4114 0.1337 0.9653
O12_2 O 0.3674(7) 0.0183(7) 0.8340(2)
O10_2 O 0.8994(7) 0.1078(9) 0.1410(2)
O11_2 O 0.7374(7) 0.1108(10) 0.0781(3)
C20_2 C 0.9556(10) 0.1405(12) 0.0630(3)
C21_2 C 0.9151(9) 0.1890(11) 0.0156(4)
H11_2 H 0.8259 0.2055 0.0056
C22_2 C 0.8534(10) 0.1159(11) 0.0958(4)
Co5_2 Co 0.77973(12) 0.11664(14) 0.19352(4)
Co2_2 Co 0.44356(12) 0.93970(15) 0.90280(4)
O1_2 O 0.4673(8) 0.7463(8) 0.8736(3)
O3_2 O 0.2901(7) 0.6869(8) 0.8222(3)
O4_2 O 0.2175(7) 0.1527(8) 0.7941(3)
C1_2 C 0.3970(10) 0.6590(11) 0.8480(4)
C2_2 C 0.4482(9) 0.5101(10) 0.8467(4)
C3_2 C 0.3643(10) 0.3988(11) 0.8322(4)
H3_2 H 0.2745 0.4144 0.8230
C4_2 C 0.4163(10) 0.2629(11) 0.8313(3)
C5_2 C 0.5509(10) 0.2417(11) 0.8421(3)
H4_2 H 0.5851 0.1513 0.8399
C6_2 C 0.6361(9) 0.3537(11) 0.8563(4)
C7_2 C 0.5843(10) 0.4846(12) 0.8597(4)
H5_2 H 0.6397 0.5591 0.8707
C8_2 C 0.3261(10) 0.1395(10) 0.8189(3)
C9_2 C 0.7810(9) 0.3246(11) 0.8686(4)
C10_2 C 0.8693(10) 0.3252(11) 0.8351(3)
C13_2 C 0.9608(9) 0.2572(11) 0.9326(3)
C14_2 C 0.8308(9) 0.2928(12) 0.9162(3)
H8_2 H 0.7722 0.2956 0.9388
C15_2 C 0.8288(10) 0.3528(11) 0.7820(3)
O15_2 O 0.5897(7) 0.8741(10) 0.9642(3)
O16_2 O 0.6521(6) 0.9612(8) 0.8992(2)
O17_2 O 0.1006(7) 0.8922(9) 0.8590(2)
O18_2 O 0.2626(7) 0.8892(10) 0.9219(3)
C11_2 C 0.0018(10) 0.2085(14) 0.3513(3)
H6_2 H 0.0611 0.2074 0.3290
C12_2 C 0.0497(10) 0.2437(15) 0.3992(4)
H7_2 H 0.1380 0.2669 0.4084
C16_2 C 0.0052(9) 0.2870(12) 0.4834(4)
C17_2 C 0.1377(10) 0.3181(12) 0.4995(4)
H9_2 H 0.2000 0.3035 0.4788
C18_3 C 0.1779(10) 0.3692(11) 0.5447(3)
C19_3 C 0.0875(9) 0.3913(11) 0.5768(3)
H10_3 H 0.1157 0.4274 0.6074
C23_3 C 0.3209(10) 0.4049(11) 0.5621(4)
O4_3 O 0.2175(7) 0.3473(8) 0.2941(3)
O5 O 0.3674(7) 0.4817(7) 0.3340(2)
O6_2 O 0.7123(8) 0.1220(10) 0.2650(3)
O7_2 O 0.9188(7) 0.1514(9) 0.2548(2)
C3_3 C 0.3643(10) 0.1012(11) 0.3322(4)
H3_3 H 0.2745 0.0856 0.3230
C4_3 C 0.4163(10) 0.2371(11) 0.3313(3)
C5_3 C 0.5509(10) 0.2583(11) 0.3421(3)
H4_3 H 0.5851 0.3487 0.3399
C6_3 C 0.6361(9) 0.1463(11) 0.3563(4)
C7_3 C 0.5843(10) 0.0154(12) 0.3597(4)
C8_3 C 0.3261(10) 0.3605(10) 0.3189(3)
C9_3 C 0.7810(9) 0.1754(11) 0.3686(4)
C10_3 C 0.8693(10) 0.1748(11) 0.3351(3)
C13_3 C 0.9608(9) 0.2428(11) 0.4326(3)
C14_3 C 0.8308(9) 0.2072(12) 0.4162(3)
H8_3 H 0.7722 0.2044 0.4388
C15_3 C 0.8288(10) 0.1472(11) 0.2820(3)
C20_3 C 0.9556(10) 0.3595(12) 0.5630(3)
C21_3 C 0.9151(9) 0.3110(11) 0.5156(4)
H11_3 H 0.8259 0.2945 0.5056
C22_3 C 0.8534(10) 0.3841(11) 0.5958(4)
O1_3 O 0.4673(8) 0.7537(8) 0.3736(3)
O2_3 O 0.4215(9) 0.3591(10) 0.4358(3)
H1_3 H 0.4985 0.3486 0.4306
H2_3 H 0.4114 0.3663 0.4653
O3_3 O 0.2901(7) 0.8131(8) 0.3222(3)
C1_3 C 0.3970(10) 0.8410(11) 0.3480(4)
C2_3 C 0.4482(9) 0.9899(10) 0.3467(4)
H5_3 H 0.6397 0.9409 0.3707
O13_2 O 0.2877(8) 0.6220(10) 0.2350(3)
O14_2 O 0.0812(7) 0.6514(9) 0.2452(2)
O1_4 O 0.5327(8) 0.2537(8) 0.1264(3)
O3_4 O 0.7099(7) 0.3131(8) 0.1778(3)
O4_4 O 0.7825(7) 0.8473(8) 0.2059(3)
O5_2 O 0.6326(7) 0.9817(7) 0.1660(2)
C1_4 C 0.6030(10) 0.3410(11) 0.1520(4)
C2_4 C 0.5518(9) 0.4899(10) 0.1533(4)
C3_4 C 0.6357(10) 0.6012(11) 0.1678(4)
H3_4 H 0.7255 0.5856 0.1770
C4_4 C 0.5837(10) 0.7371(11) 0.1687(3)
C5_4 C 0.4491(10) 0.7583(11) 0.1579(3)
H4_4 H 0.4149 0.8487 0.1601
C6_4 C 0.3639(9) 0.6463(11) 0.1437(4)
C7_4 C 0.4157(10) 0.5154(12) 0.1403(4)
H5_4 H 0.3603 0.4409 0.1293
C8_4 C 0.6739(10) 0.8605(10) 0.1811(3)
C9_4 C 0.2190(9) 0.6754(11) 0.1314(4)
C10_4 C 0.1307(10) 0.6748(11) 0.1649(3)
C13_4 C 0.0392(9) 0.7428(11) 0.0674(3)
C14_4 C 0.1692(9) 0.7072(12) 0.0838(3)
H8_4 H 0.2278 0.7044 0.0612
C15_4 C 0.1712(10) 0.6472(11) 0.2180(3)
C20_4 C 0.0444(10) 0.8595(12) 0.9370(3)
C21_4 C 0.0849(9) 0.8110(11) 0.9844(4)
H11_4 H 0.1741 0.7945 0.9944
C22_4 C 0.1466(10) 0.8841(11) 0.9042(4)
O2_4 O 0.5785(9) 0.8591(10) 0.0642(3)
H1_4 H 0.5015 0.8486 0.0694
H2_4 H 0.5886 0.8663 0.0347
C18_4 C 0.8221(10) 0.8692(11) 0.9553(3)
C19_4 C 0.9125(9) 0.8913(11) 0.9232(3)
H10_4 H 0.8843 0.9274 0.8926
C23_4 C 0.6791(10) 0.9049(11) 0.9379(4)
C11_3 C 0.0018(10) 0.2915(14) 0.8513(3)
H6_3 H 0.0611 0.2926 0.8290
C12_3 C 0.0497(10) 0.2563(15) 0.8992(4)
H7_3 H 0.1380 0.2331 0.9084
C16_3 C 0.0052(9) 0.2130(12) 0.9834(4)
C17_3 C 0.1377(10) 0.1819(12) 0.9995(4)
H9_3 H 0.2000 0.1965 0.9788
C11_4 C 0.9982(10) 0.7085(14) 0.1487(3)
H6_4 H 0.9389 0.7074 0.1710
C12_4 C 0.9503(10) 0.7437(15) 0.1008(4)
H7_4 H 0.8620 0.7669 0.0916
C16_4 C 0.9948(9) 0.7870(12) 0.0166(4)
C17_4 C 0.8623(10) 0.8181(12) 0.0005(4)
H9_4 H 0.8000 0.8035 0.0212
H14 H 0.7813 0.0228 0.8130
H15 H 0.7444 0.0030 0.7571
H16 H 0.8898 0.0404 0.7790
N1 N 0.8425(14) 0.8419(14) 0.7891(4)
H12 H 0.8585 0.8078 0.7609
H13 H 0.9151 0.8307 0.8103
C24 C 0.812(2) 0.989(2) 0.7841(7)
C25 C 0.737(3) 0.764(3) 0.8049(8)
H17 H 0.6560 0.7841 0.7840
H18 H 0.7273 0.7916 0.8373
H19 H 0.7552 0.6650 0.8041
N1_2 N 0.1575(14) 0.3419(14) 0.7109(4)
H12_2 H 0.1415 0.3078 0.7391
H13_2 H 0.0849 0.3307 0.6897
C24_2 C 0.188(2) 0.489(2) 0.7159(7)
H14_2 H 0.2187 0.5228 0.6870
H15_2 H 0.2556 0.5030 0.7429
H16_2 H 0.1102 0.5404 0.7210
C25_2 C 0.263(3) 0.264(3) 0.6951(8)
H17_2 H 0.3440 0.2841 0.7160
H18_2 H 0.2727 0.2916 0.6627
H19_2 H 0.2448 0.1650 0.6959
N1_3 N 0.1575(14) 0.1581(14) 0.2109(4)
H12_3 H 0.1415 0.1922 0.2391
H13_3 H 0.0849 0.1693 0.1897
C24_3 C 0.188(2) 0.011(2) 0.2159(7)
C25_3 C 0.263(3) 0.236(3) 0.1951(8)
H17_3 H 0.3440 0.2159 0.2160
H18_3 H 0.2727 0.2084 0.1627
H19_3 H 0.2448 0.3350 0.1959
H14_3 H 0.2187 0.9772 0.1870
H15_3 H 0.2556 0.9970 0.2429
H16_3 H 0.1102 0.9596 0.2210
N1_4 N 0.8425(14) 0.6581(14) 0.2891(4)
H12_4 H 0.8585 0.6922 0.2609
H13_4 H 0.9151 0.6693 0.3103
C24_4 C 0.812(2) 0.511(2) 0.2841(7)
H14_4 H 0.7813 0.4772 0.3130
H15_4 H 0.7444 0.4970 0.2571
H16_4 H 0.8898 0.4596 0.2790
C25_4 C 0.737(3) 0.736(3) 0.3049(8)
H17_4 H 0.6560 0.7159 0.2840
H18_4 H 0.7273 0.7084 0.3373
H19_4 H 0.7552 0.8350 0.3041
loop_
_geom_bond_atom_site_label_1
_geom_bond_atom_site_label_2
_geom_bond_site_symmetry_1
_geom_bond_site_symmetry_2
Co1 O3 1_555 1_555
Co2 O1 1_555 1_555
O1 C1 1_555 1_555
O2 Co2 1_555 1_555
H1 O2 1_555 1_555
H2 O2 1_555 1_555
O3 C1 1_555 1_555
C1 C2 1_555 1_555
O12 Co1 1_555 1_555
O13 Co1 1_555 1_555
O14 Co1 1_555 1_555
O15 Co2 1_555 1_555
O16 Co2 1_555 1_555
O17 Co1 1_555 1_555
O18 Co2 1_555 1_555
Co2 O12 1_555 1_555
O4 C8 1_555 1_555
O12 C8 1_555 1_555
O6 C15 1_555 1_555
O7 C15 1_555 1_555
O10 C22 1_555 1_555
O11 C22 1_555 1_555
C3 H3 1_555 1_555
C4 C3 1_555 1_555
C5 C4 1_555 1_555
H4 C5 1_555 1_555
C6 C5 1_555 1_555
C8 C4 1_555 1_555
C9 C6 1_555 1_555
C10 C9 1_555 1_555
C14 C9 1_555 1_555
H8 C14 1_555 1_555
C15 C10 1_555 1_555
H11 C21 1_555 1_555
C22 C20 1_555 1_555
Co4 O6 1_555 1_555
Co5 O10 1_555 1_555
Co8 O11 1_555 1_555
O7 Co4 1_555 1_555
C6 C7 1_555 1_555
C13 C14 1_555 1_555
C20 C21 1_555 1_555
O8 C23 1_555 1_555
O9 C23 1_555 1_555
H6 C11 1_555 1_555
C12 C11 1_555 1_555
H7 C12 1_555 1_555
C17 C16 1_555 1_555
H9 C17 1_555 1_555
C18 C17 1_555 1_555
C19 C18 1_555 1_555
H10 C19 1_555 1_555
C23 C18 1_555 1_555
Co8 O8 1_555 1_555
O9 Co8 1_555 1_555
O8_2 C23_2 1_555 1_555
O9_2 C23_2 1_555 1_555
C19_2 C18_2 1_555 1_555
H10_2 C19_2 1_555 1_555
C23_2 C18_2 1_555 1_555
Co7 O8_2 1_555 1_555
O9_2 Co7 1_555 1_555
H1_2 O2_2 1_555 1_555
H2_2 O2_2 1_555 1_555
O10_2 C22_2 1_555 1_555
O11_2 C22_2 1_555 1_555
H11_2 C21_2 1_555 1_555
C22_2 C20_2 1_555 1_555
Co5_2 O10_2 1_555 1_555
Co7 O11_2 1_555 1_555
C20_2 C21_2 1_555 1_555
Co4 O3_2 1_555 1_555
Co2_2 O1_2 1_555 1_555
O1_2 C1_2 1_555 1_555
O3_2 C1_2 1_555 1_555
O4_2 C8_2 1_555 1_555
O12_2 C8_2 1_555 1_555
O13 C15_2 1_555 1_555
O14 C15_2 1_555 1_555
C1_2 C2_2 1_555 1_555
C2_2 C3_2 1_555 1_555
C3_2 H3_2 1_555 1_555
C4_2 C3_2 1_555 1_555
C5_2 C4_2 1_555 1_555
H4_2 C5_2 1_555 1_555
C6_2 C5_2 1_555 1_555
C7_2 C2_2 1_555 1_555
H5_2 C7_2 1_555 1_555
C8_2 C4_2 1_555 1_555
C9_2 C6_2 1_555 1_555
C10_2 C9_2 1_555 1_555
C14_2 C9_2 1_555 1_555
H8_2 C14_2 1_555 1_555
C15_2 C10_2 1_555 1_555
O15_2 Co2_2 1_555 1_555
O16_2 Co2_2 1_555 1_555
O17_2 Co4 1_555 1_555
O18_2 Co2_2 1_555 1_555
C6_2 C7_2 1_555 1_555
C13_2 C14_2 1_555 1_555
O15 C23_3 1_555 1_555
O16 C23_3 1_555 1_555
H6_2 C11_2 1_555 1_555
C12_2 C11_2 1_555 1_555
H7_2 C12_2 1_555 1_555
C17_2 C16_2 1_555 1_555
H9_2 C17_2 1_555 1_555
C18_3 C17_2 1_555 1_555
C19_3 C18_3 1_555 1_555
H10_3 C19_3 1_555 1_555
C23_3 C18_3 1_555 1_555
O4_3 C8_3 1_555 1_555
O5 C8_3 1_555 1_555
O6_2 C15_3 1_555 1_555
O7_2 C15_3 1_555 1_555
O17 C22_3 1_555 1_555
O18 C22_3 1_555 1_555
C3_3 H3_3 1_555 1_555
C4_3 C3_3 1_555 1_555
C5_3 C4_3 1_555 1_555
H4_3 C5_3 1_555 1_555
C6_3 C5_3 1_555 1_555
C8_3 C4_3 1_555 1_555
C9_3 C6_3 1_555 1_555
C10_3 C9_3 1_555 1_555
C14_3 C9_3 1_555 1_555
H8_3 C14_3 1_555 1_555
C15_3 C10_3 1_555 1_555
H11_3 C21_3 1_555 1_555
C22_3 C20_3 1_555 1_555
Co5 O5 1_555 1_555
Co5_2 O6_2 1_555 1_555
Co8 O5 1_555 1_555
O7_2 Co5_2 1_555 1_555
C6_3 C7_3 1_555 1_555
C13_3 C14_3 1_555 1_555
C20_3 C21_3 1_555 1_555
Co5 O3_3 1_555 1_555
Co8 O1_3 1_555 1_555
O1_3 C1_3 1_555 1_555
O2_3 Co8 1_555 1_555
H1_3 O2_3 1_555 1_555
H2_3 O2_3 1_555 1_555
O3_3 C1_3 1_555 1_555
C1_3 C2_3 1_555 1_555
O13_2 Co5 1_555 1_555
O14_2 Co5 1_555 1_555
Co5_2 O3_4 1_555 1_555
Co7 O1_4 1_555 1_555
O1_4 C1_4 1_555 1_555
O3_4 C1_4 1_555 1_555
O4_4 C8_4 1_555 1_555
O5_2 C8_4 1_555 1_555
O13_2 C15_4 1_555 1_555
O14_2 C15_4 1_555 1_555
C1_4 C2_4 1_555 1_555
C2_4 C3_4 1_555 1_555
C3_4 H3_4 1_555 1_555
C4_4 C3_4 1_555 1_555
C5_4 C4_4 1_555 1_555
H4_4 C5_4 1_555 1_555
C6_4 C5_4 1_555 1_555
C7_4 C2_4 1_555 1_555
H5_4 C7_4 1_555 1_555
C8_4 C4_4 1_555 1_555
C9_4 C6_4 1_555 1_555
C10_4 C9_4 1_555 1_555
C14_4 C9_4 1_555 1_555
H8_4 C14_4 1_555 1_555
C15_4 C10_4 1_555 1_555
C6_4 C7_4 1_555 1_555
C13_4 C14_4 1_555 1_555
O17_2 C22_4 1_555 1_555
O18_2 C22_4 1_555 1_555
H11_4 C21_4 1_555 1_555
C22_4 C20_4 1_555 1_555
C20_4 C21_4 1_555 1_555
H1_4 O2_4 1_555 1_555
H2_4 O2_4 1_555 1_555
O15_2 C23_4 1_555 1_555
O16_2 C23_4 1_555 1_555
C19_4 C18_4 1_555 1_555
H10_4 C19_4 1_555 1_555
C23_4 C18_4 1_555 1_555
H6_3 C11_3 1_555 1_555
C12_3 C11_3 1_555 1_555
H7_3 C12_3 1_555 1_555
C17_3 C16_3 1_555 1_555
H9_3 C17_3 1_555 1_555
H6_4 C11_4 1_555 1_555
C12_4 C11_4 1_555 1_555
H7_4 C12_4 1_555 1_555
C17_4 C16_4 1_555 1_555
H9_4 C17_4 1_555 1_555
N1 H12 1_555 1_555
H13 N1 1_555 1_555
C24 N1 1_555 1_555
C25 N1 1_555 1_555
H17 C25 1_555 1_555
H18 C25 1_555 1_555
H19 C25 1_555 1_555
N1_2 H12_2 1_555 1_555
H13_2 N1_2 1_555 1_555
C24_2 N1_2 1_555 1_555
H14_2 C24_2 1_555 1_555
H15_2 C24_2 1_555 1_555
H16_2 C24_2 1_555 1_555
C25_2 N1_2 1_555 1_555
H17_2 C25_2 1_555 1_555
H18_2 C25_2 1_555 1_555
H19_2 C25_2 1_555 1_555
N1_3 H12_3 1_555 1_555
H13_3 N1_3 1_555 1_555
C24_3 N1_3 1_555 1_555
C25_3 N1_3 1_555 1_555
H17_3 C25_3 1_555 1_555
H18_3 C25_3 1_555 1_555
H19_3 C25_3 1_555 1_555
N1_4 H12_4 1_555 1_555
H13_4 N1_4 1_555 1_555
C24_4 N1_4 1_555 1_555
H14_4 C24_4 1_555 1_555
H15_4 C24_4 1_555 1_555
H16_4 C24_4 1_555 1_555
C25_4 N1_4 1_555 1_555
H17_4 C25_4 1_555 1_555
H18_4 C25_4 1_555 1_555
H19_4 C25_4 1_555 1_555

#END
