
###############################################################################
#
# This file contains modified crystal structure data generated from the
# MOF subset of the Cambridge Structural Database (CSD) v543 
# hosted by the Cambridge Crystallographic Data Centre (CCDC).
#
# This work is licensed under the Creative Commons
# Attribution-NonCommercial-ShareAlike 4.0 International License.
# To view a copy of this license, visit
# http://creativecommons.org/licenses/by-nc-sa/4.0/
# or send a letter to
# Creative Commons, PO Box 1866, Mountain View, CA 94042, USA.
#
# CIF created using the CSD Python API on 29 September 2022
# The structure has been converted into the P1 space group
# The structure has a 3D framework
# The original CSD entry INIGIX is in the cubic crystal system
# The framework has been calculated to contain at least 10.0% void space
# The void calculation uses a probe of radius 1.32A, grid spacing 0.4
# H atom positions have been added when not included in the experimental data
#
###############################################################################

data_INIGIX
_chemical_formula_moiety         '(C2208 H2208 N192 Ni48 O384 S96)n'
_symmetry_cell_setting           triclinic
_symmetry_space_group_name_H-M   'P 1'
_symmetry_Int_Tables_number      1
_space_group_name_Hall           'P 1'
loop_
_symmetry_equiv_pos_site_id
_symmetry_equiv_pos_as_xyz
1 x,y,z
_cell_length_a                   42.3668(2)
_cell_length_b                   42.3668(2)
_cell_length_c                   42.3668(2)
_cell_angle_alpha                90
_cell_angle_beta                 90
_cell_angle_gamma                90
_cell_volume                     76046.1
loop_
_atom_site_label
_atom_site_type_symbol
_atom_site_fract_x
_atom_site_fract_y
_atom_site_fract_z
Ni1 Ni 0.3750 0.64550(2) 0.39550(2)
S1 S 0.37478(4) 0.56280(3) 0.49995(4)
O1 O 0.35803(5) 0.65197(6) 0.44248(5)
O2 O 0.40152(5) 0.62599(6) 0.43311(5)
O3 O 0.19896(5) 0.65965(5) 0.54218(6)
O4 O 0.18921(6) 0.71129(6) 0.54158(11)
N1 N 0.36498(7) 0.63711(7) 0.59189(6)
N2 N 0.35822(6) 0.67654(6) 0.55873(7)
C1 C 0.38248(7) 0.63742(7) 0.45259(7)
C2 C 0.35577(7) 0.66685(8) 0.58905(8)
C3 C 0.38836(7) 0.63468(7) 0.48739(7)
C4 C 0.26215(7) 0.66704(7) 0.54125(7)
H1 H 0.2533 0.6465 0.5405
C5 C 0.29447(7) 0.67072(7) 0.54244(8)
H2 H 0.3077 0.6526 0.5427
C6 C 0.37021(7) 0.65182(7) 0.50675(8)
H3 H 0.3562 0.6662 0.4969
C7 C 0.36935(7) 0.65109(7) 0.54091(8)
C8 C 0.30798(8) 0.70068(7) 0.54329(9)
C9 C 0.37370(7) 0.62728(7) 0.56210(7)
H4 H 0.3816 0.6069 0.5571
C10 C 0.34338(7) 0.70523(7) 0.54608(9)
H5 H 0.3523 0.7101 0.5251
H6 H 0.3479 0.7233 0.5602
C11 C 0.41550(8) 0.61392(8) 0.49696(8)
H7 H 0.4205 0.6177 0.5195
H8 H 0.4343 0.6197 0.4844
C12 C 0.24257(7) 0.69323(7) 0.54113(9)
C13 C 0.40845(10) 0.57916(9) 0.49226(9)
C14 C 0.20740(8) 0.68932(8) 0.54168(10)
C15 C 0.28815(9) 0.72700(8) 0.54288(14)
H9 H 0.2970 0.7476 0.5434
C16 C 0.25554(9) 0.72338(8) 0.54164(14)
H10 H 0.2422 0.7414 0.5411
C17 C 0.34514(9) 0.68721(8) 0.61566(10)
H11 H 0.3311 0.6748 0.6296
H12 H 0.3328 0.7052 0.6071
C18 C 0.37261(14) 0.69986(15) 0.63486(14)
H13 H 0.3846 0.7151 0.6219
H14 H 0.3869 0.6822 0.6402
C19 C 0.36161(19) 0.71668(18) 0.6664(2)
H15 H 0.3483 0.7351 0.6609
H16 H 0.3485 0.7018 0.6787
C20 C 0.3880(3) 0.7273(3) 0.6861(2)
H17 H 0.3984 0.7454 0.6760
H18 H 0.4032 0.7101 0.6886
H19 H 0.3800 0.7337 0.7068
C21 C 0.43230(8) 0.55315(9) 0.48132(9)
H20 H 0.4541 0.5556 0.4766
C22 C 0.3847(2) 0.52709(15) 0.49022(18)
H21 H 0.3712 0.5092 0.4914
C23 C 0.4151(2) 0.5267(2) 0.4802(2)
H22 H 0.4242 0.5077 0.4723
S2 S 0.37522(4) 0.74995(4) 0.31280(3)
O5 O 0.39197(5) 0.69248(5) 0.40197(6)
O6 O 0.34848(5) 0.68311(5) 0.37599(6)
O7 O 0.55104(5) 0.79218(6) 0.40965(5)
O8 O 0.56079(6) 0.79158(11) 0.46129(6)
N3 N 0.38502(7) 0.84189(6) 0.38711(7)
N4 N 0.39178(6) 0.80873(7) 0.42654(6)
C24 C 0.36752(7) 0.70259(7) 0.38742(7)
C25 C 0.39423(7) 0.83905(8) 0.41685(8)
C26 C 0.36164(7) 0.73739(7) 0.38468(7)
C27 C 0.48785(7) 0.79125(7) 0.41704(7)
H23 H 0.4967 0.7905 0.3965
C28 C 0.45553(7) 0.79244(8) 0.42072(7)
H24 H 0.4423 0.7927 0.4026
C29 C 0.37979(7) 0.75675(8) 0.40182(7)
H25 H 0.3938 0.7469 0.4162
C30 C 0.38065(7) 0.79091(8) 0.40109(7)
C31 C 0.44202(8) 0.79329(9) 0.45068(7)
C32 C 0.37630(7) 0.81210(7) 0.37728(7)
H26 H 0.3684 0.8071 0.3569
C33 C 0.40662(7) 0.79608(9) 0.45523(7)
H27 H 0.3977 0.7751 0.4601
H28 H 0.4021 0.8102 0.4733
C34 C 0.33450(8) 0.74696(8) 0.36392(8)
H29 H 0.3295 0.7695 0.3677
H30 H 0.3157 0.7344 0.3697
C35 C 0.50743(7) 0.79113(9) 0.44323(7)
C36 C 0.34155(10) 0.74226(9) 0.32916(9)
C37 C 0.54260(8) 0.79168(10) 0.43932(8)
C38 C 0.46185(9) 0.79288(14) 0.47700(8)
H31 H 0.4530 0.7934 0.4976
C39 C 0.49446(9) 0.79164(14) 0.47338(8)
H32 H 0.5078 0.7911 0.4914
C40 C 0.40486(9) 0.86566(10) 0.43721(8)
H33 H 0.4189 0.8796 0.4248
H34 H 0.4172 0.8571 0.4552
C41 C 0.37739(14) 0.88486(14) 0.44986(15)
H35 H 0.3654 0.8719 0.4651
H36 H 0.3631 0.8902 0.4322
C42 C 0.38839(19) 0.9164(2) 0.46668(18)
H37 H 0.4017 0.9109 0.4851
H38 H 0.4015 0.9287 0.4518
C43 C 0.3620(3) 0.9361(2) 0.4773(3)
H39 H 0.3516 0.9260 0.4954
H40 H 0.3468 0.9386 0.4601
H41 H 0.3700 0.9568 0.4837
C44 C 0.31770(8) 0.73132(9) 0.30315(9)
H42 H 0.2959 0.7266 0.3056
C45 C 0.3653(2) 0.74022(18) 0.27709(15)
H43 H 0.3788 0.7414 0.2592
C46 C 0.3349(2) 0.7302(2) 0.2767(2)
H44 H 0.3258 0.7223 0.2577
Ni2 Ni 0.39550(2) 0.8750 0.35450(2)
Ni3 Ni 0.35450(2) 0.60450(2) 0.6250
N5 N 0.40811(6) 0.63502(7) 0.36289(7)
N6 N 0.34189(6) 0.61289(7) 0.38502(7)
H45 H 0.185984 0.654898 0.523248
H46 H 0.564016 0.773248 0.404898
Ni1_2 Ni 0.60450(2) 0.1250 0.64550(2)
S1_2 S 0.68720(3) 0.12478(4) 0.74995(4)
O1_2 O 0.59803(6) 0.10803(5) 0.69248(5)
O2_2 O 0.62401(6) 0.15152(5) 0.68311(5)
N1_2 N 0.61289(7) 0.11498(7) 0.84189(6)
N2_2 N 0.57346(6) 0.10822(6) 0.80873(7)
C1_2 C 0.61258(7) 0.13248(7) 0.70259(7)
C2_2 C 0.58315(8) 0.10577(7) 0.83905(8)
C3_2 C 0.61532(7) 0.13836(7) 0.73739(7)
C4_2 C 0.58296(7) 0.01215(7) 0.79125(7)
H1_2 H 0.6035 0.0033 0.7905
C5_2 C 0.57928(7) 0.04447(7) 0.79244(8)
H2_2 H 0.5974 0.0577 0.7927
C6_2 C 0.59818(7) 0.12021(7) 0.75675(8)
H3_2 H 0.5838 0.1062 0.7469
C7_2 C 0.59891(7) 0.11935(7) 0.79091(8)
C8_2 C 0.54932(7) 0.05798(8) 0.79329(9)
C9_2 C 0.62272(7) 0.12370(7) 0.81210(7)
H4_2 H 0.6431 0.1316 0.8071
C10_2 C 0.54477(7) 0.09338(7) 0.79608(9)
H5_2 H 0.5399 0.1023 0.7751
H6_2 H 0.5267 0.0979 0.8102
C11_2 C 0.63608(8) 0.16550(8) 0.74696(8)
H7_2 H 0.6323 0.1705 0.7695
H8_2 H 0.6303 0.1843 0.7344
C13_2 C 0.67084(9) 0.15845(10) 0.74226(9)
C15_2 C 0.52300(8) 0.03815(9) 0.79288(14)
H9_2 H 0.5024 0.0470 0.7934
C16_2 C 0.52662(8) 0.00554(9) 0.79164(14)
C17_2 C 0.56279(8) 0.09514(9) 0.86566(10)
H11_2 H 0.5752 0.0811 0.8796
H12_2 H 0.5448 0.0828 0.8571
C18_2 C 0.55014(15) 0.12261(14) 0.88486(14)
H13_2 H 0.5349 0.1346 0.8719
H14_2 H 0.5678 0.1369 0.8902
C19_2 C 0.53332(18) 0.11161(19) 0.9164(2)
H15_2 H 0.5149 0.0983 0.9109
H16_2 H 0.5482 0.0985 0.9287
C20_2 C 0.5227(3) 0.1380(3) 0.9361(2)
H17_2 H 0.5046 0.1484 0.9260
H18_2 H 0.5399 0.1532 0.9386
H19_2 H 0.5163 0.1300 0.9568
C21_2 C 0.69685(9) 0.18230(8) 0.73132(9)
H20_2 H 0.6944 0.2041 0.7266
C22_2 C 0.72291(15) 0.1347(2) 0.74022(18)
H21_2 H 0.7408 0.1212 0.7414
C23_2 C 0.7233(2) 0.1651(2) 0.7302(2)
H22_2 H 0.7423 0.1742 0.7223
S2_2 S 0.50005(4) 0.12522(4) 0.56280(3)
O5_2 O 0.55752(5) 0.14197(5) 0.65197(6)
O6_2 O 0.56689(5) 0.09848(5) 0.62599(6)
O7_2 O 0.45782(6) 0.30104(5) 0.65965(5)
O8_2 O 0.45842(11) 0.31079(6) 0.71129(6)
N3_2 N 0.40811(6) 0.13502(7) 0.63711(7)
N4_2 N 0.44127(7) 0.14178(6) 0.67654(6)
C24_2 C 0.54741(7) 0.11752(7) 0.63742(7)
C25_2 C 0.41095(8) 0.14423(7) 0.66685(8)
C26_2 C 0.51261(7) 0.11164(7) 0.63468(7)
C27_2 C 0.45875(7) 0.23785(7) 0.66704(7)
H23_2 H 0.4595 0.2467 0.6465
C28_2 C 0.45756(8) 0.20553(7) 0.67072(7)
H24_2 H 0.4573 0.1923 0.6526
C29_2 C 0.49325(8) 0.12979(7) 0.65182(7)
H25_2 H 0.5031 0.1438 0.6662
C30_2 C 0.45909(8) 0.13065(7) 0.65109(7)
C31_2 C 0.45671(9) 0.19202(8) 0.70068(7)
C32_2 C 0.43790(7) 0.12630(7) 0.62728(7)
H26_2 H 0.4429 0.1184 0.6069
C33_2 C 0.45392(9) 0.15662(7) 0.70523(7)
H27_2 H 0.4749 0.1477 0.7101
H28_2 H 0.4398 0.1521 0.7233
C34_2 C 0.50304(8) 0.08450(8) 0.61392(8)
H29_2 H 0.4805 0.0795 0.6177
H30_2 H 0.5156 0.0657 0.6197
C35_2 C 0.45887(9) 0.25743(7) 0.69323(7)
C36_2 C 0.50774(9) 0.09155(10) 0.57916(9)
C37_2 C 0.45832(10) 0.29260(8) 0.68932(8)
C38_2 C 0.45712(14) 0.21185(9) 0.72700(8)
H31_2 H 0.4566 0.2030 0.7476
C39_2 C 0.45836(14) 0.24446(9) 0.72338(8)
H32_2 H 0.4589 0.2578 0.7414
C40_2 C 0.38434(10) 0.15486(9) 0.68721(8)
H33_2 H 0.3704 0.1689 0.6748
H34_2 H 0.3929 0.1672 0.7052
C41_2 C 0.36514(14) 0.12739(14) 0.69986(15)
H35_2 H 0.3781 0.1154 0.7151
H36_2 H 0.3598 0.1131 0.6822
C42_2 C 0.3336(2) 0.13839(19) 0.71668(18)
H37_2 H 0.3391 0.1517 0.7351
H38_2 H 0.3213 0.1515 0.7018
C43_2 C 0.3139(2) 0.1120(3) 0.7273(3)
H39_2 H 0.3240 0.1016 0.7454
H40_2 H 0.3114 0.0968 0.7101
H41_2 H 0.2932 0.1200 0.7337
C44_2 C 0.51868(9) 0.06770(8) 0.55315(9)
H42_2 H 0.5234 0.0459 0.5556
C45_2 C 0.50978(18) 0.1153(2) 0.52709(15)
H43_2 H 0.5086 0.1288 0.5092
C46_2 C 0.5198(2) 0.0849(2) 0.5267(2)
H44_2 H 0.5277 0.0758 0.5077
Ni2_2 Ni 0.3750 0.14550(2) 0.60450(2)
Ni3_2 Ni 0.64550(2) 0.10450(2) 0.8750
N5_2 N 0.61498(7) 0.15811(6) 0.61289(7)
N6_2 N 0.63711(7) 0.09189(6) 0.63502(7)
H46_2 H 0.476752 0.314016 0.654898
Ni1_3 Ni 0.3750 0.35450(2) 0.10450(2)
S1_3 S 0.37478(4) 0.43720(3) 0.00005(4)
O1_3 O 0.35803(5) 0.34803(6) 0.05752(5)
O2_3 O 0.40152(5) 0.37401(6) 0.06689(5)
C1_3 C 0.38248(7) 0.36258(7) 0.04741(7)
C3_3 C 0.38836(7) 0.36532(7) 0.01261(7)
H3_3 H 0.3562 0.3338 0.0031
C11_3 C 0.41550(8) 0.38608(8) 0.00304(8)
H8_3 H 0.4343 0.3803 0.0156
C13_3 C 0.40845(10) 0.42084(9) 0.00774(9)
C21_3 C 0.43230(8) 0.44685(9) 0.01868(9)
H20_3 H 0.4541 0.4444 0.0234
C22_3 C 0.3847(2) 0.47291(15) 0.00978(18)
H21_3 H 0.3712 0.4908 0.0086
C23_3 C 0.4151(2) 0.4733(2) 0.0198(2)
H22_3 H 0.4242 0.4923 0.0277
S2_3 S 0.37522(4) 0.25005(4) 0.18720(3)
O5_3 O 0.39197(5) 0.30752(5) 0.09803(6)
O6_3 O 0.34848(5) 0.31689(5) 0.12401(6)
O7_3 O 0.55104(5) 0.20782(6) 0.09035(5)
O8_3 O 0.56079(6) 0.20842(11) 0.03871(6)
N3_3 N 0.38502(7) 0.15811(6) 0.11289(7)
N4_3 N 0.39178(6) 0.19127(7) 0.07346(6)
C24_3 C 0.36752(7) 0.29741(7) 0.11258(7)
C25_3 C 0.39423(7) 0.16095(8) 0.08315(8)
C26_3 C 0.36164(7) 0.26261(7) 0.11532(7)
C27_3 C 0.48785(7) 0.20875(7) 0.08296(7)
H23_3 H 0.4967 0.2095 0.1035
C28_3 C 0.45553(7) 0.20756(8) 0.07928(7)
H24_3 H 0.4423 0.2073 0.0974
C29_3 C 0.37979(7) 0.24325(8) 0.09818(7)
H25_3 H 0.3938 0.2531 0.0838
C30_3 C 0.38065(7) 0.20909(8) 0.09891(7)
C31_3 C 0.44202(8) 0.20671(9) 0.04932(7)
C32_3 C 0.37630(7) 0.18790(7) 0.12272(7)
H26_3 H 0.3684 0.1929 0.1431
C33_3 C 0.40662(7) 0.20392(9) 0.04477(7)
H27_3 H 0.3977 0.2249 0.0399
H28_3 H 0.4021 0.1898 0.0267
C34_3 C 0.33450(8) 0.25304(8) 0.13608(8)
H29_3 H 0.3295 0.2305 0.1323
H30_3 H 0.3157 0.2656 0.1303
C35_3 C 0.50743(7) 0.20887(9) 0.05677(7)
C36_3 C 0.34155(10) 0.25774(9) 0.17084(9)
C37_3 C 0.54260(8) 0.20832(10) 0.06068(8)
C38_3 C 0.46185(9) 0.20712(14) 0.02300(8)
H31_3 H 0.4530 0.2066 0.0024
C39_3 C 0.49446(9) 0.20836(14) 0.02662(8)
H32_3 H 0.5078 0.2089 0.0086
C40_3 C 0.40486(9) 0.13434(10) 0.06279(8)
H33_3 H 0.4189 0.1204 0.0752
H34_3 H 0.4172 0.1429 0.0448
C41_3 C 0.37739(14) 0.11514(14) 0.05014(15)
H35_3 H 0.3654 0.1281 0.0349
H36_3 H 0.3631 0.1098 0.0678
C42_3 C 0.38839(19) 0.0836(2) 0.03332(18)
H37_3 H 0.4017 0.0891 0.0149
H38_3 H 0.4015 0.0713 0.0482
C43_3 C 0.3620(3) 0.0639(2) 0.0227(3)
H39_3 H 0.3516 0.0740 0.0046
H40_3 H 0.3468 0.0614 0.0399
H41_3 H 0.3700 0.0432 0.0163
C44_3 C 0.31770(8) 0.26868(9) 0.19685(9)
H42_3 H 0.2959 0.2734 0.1944
C45_3 C 0.3653(2) 0.25978(18) 0.22291(15)
H43_3 H 0.3788 0.2586 0.2408
C46_3 C 0.3349(2) 0.2698(2) 0.2233(2)
H44_3 H 0.3258 0.2777 0.2423
Ni2_3 Ni 0.39550(2) 0.1250 0.14550(2)
N5_3 N 0.40811(6) 0.36498(7) 0.13711(7)
N6_3 N 0.34189(6) 0.38711(7) 0.11498(7)
H46_3 H 0.564016 0.226752 0.0951017
O3_2 O 0.19896(5) 0.34035(5) 0.95782(6)
O4_2 O 0.18921(6) 0.28871(6) 0.95842(11)
N1_3 N 0.36498(7) 0.36289(7) 0.90811(6)
N2_3 N 0.35822(6) 0.32346(6) 0.94127(7)
C2_3 C 0.35577(7) 0.33315(8) 0.91095(8)
C4_3 C 0.26215(7) 0.33296(7) 0.95875(7)
H1_3 H 0.2533 0.3535 0.9595
C5_3 C 0.29447(7) 0.32928(7) 0.95756(8)
H2_3 H 0.3077 0.3474 0.9573
C6_3 C 0.37021(7) 0.34818(7) 0.99325(8)
C7_3 C 0.36935(7) 0.34891(7) 0.95909(8)
C8_3 C 0.30798(8) 0.29932(7) 0.95671(9)
C9_3 C 0.37370(7) 0.37272(7) 0.93790(7)
H4_3 H 0.3816 0.3931 0.9429
C10_3 C 0.34338(7) 0.29477(7) 0.95392(9)
H5_3 H 0.3523 0.2899 0.9749
H6_3 H 0.3479 0.2767 0.9398
H7_3 H 0.4205 0.3823 0.9805
C12_2 C 0.24257(7) 0.30677(7) 0.95887(9)
C14_2 C 0.20740(8) 0.31068(8) 0.95832(10)
C15_3 C 0.28815(9) 0.27300(8) 0.95712(14)
H9_3 H 0.2970 0.2524 0.9566
C16_3 C 0.25554(9) 0.27662(8) 0.95836(14)
H10_2 H 0.2422 0.2586 0.9589
C17_3 C 0.34514(9) 0.31279(8) 0.88434(10)
H11_3 H 0.3311 0.3252 0.8704
H12_3 H 0.3328 0.2948 0.8929
C18_3 C 0.37261(14) 0.30014(15) 0.86514(14)
H13_3 H 0.3846 0.2849 0.8781
H14_3 H 0.3869 0.3178 0.8598
C19_3 C 0.36161(19) 0.28332(18) 0.8336(2)
H15_3 H 0.3483 0.2649 0.8391
H16_3 H 0.3485 0.2982 0.8213
C20_3 C 0.3880(3) 0.2727(3) 0.8139(2)
H17_3 H 0.3984 0.2546 0.8240
H18_3 H 0.4032 0.2899 0.8114
H19_3 H 0.3800 0.2663 0.7932
Ni3_3 Ni 0.35450(2) 0.39550(2) 0.8750
H45_2 H 0.185984 0.345102 0.976752
Ni1_4 Ni 0.39550(2) 0.3750 0.64550(2)
S1_4 S 0.49995(4) 0.37478(4) 0.56280(3)
O1_4 O 0.44248(5) 0.35803(5) 0.65197(6)
O2_4 O 0.43311(5) 0.40152(5) 0.62599(6)
O3_3 O 0.54218(6) 0.19896(5) 0.65965(5)
O4_3 O 0.54158(11) 0.18921(6) 0.71129(6)
N1_4 N 0.59189(6) 0.36498(7) 0.63711(7)
N2_4 N 0.55873(7) 0.35822(6) 0.67654(6)
C1_4 C 0.45259(7) 0.38248(7) 0.63742(7)
C2_4 C 0.58905(8) 0.35577(7) 0.66685(8)
C3_4 C 0.48739(7) 0.38836(7) 0.63468(7)
C4_4 C 0.54125(7) 0.26215(7) 0.66704(7)
H1_4 H 0.5405 0.2533 0.6465
C5_4 C 0.54244(8) 0.29447(7) 0.67072(7)
H2_4 H 0.5427 0.3077 0.6526
C6_4 C 0.50675(8) 0.37021(7) 0.65182(7)
H3_4 H 0.4969 0.3562 0.6662
C7_4 C 0.54091(8) 0.36935(7) 0.65109(7)
C8_4 C 0.54329(9) 0.30798(8) 0.70068(7)
C9_4 C 0.56210(7) 0.37370(7) 0.62728(7)
H4_4 H 0.5571 0.3816 0.6069
C10_4 C 0.54608(9) 0.34338(7) 0.70523(7)
H5_4 H 0.5251 0.3523 0.7101
H6_4 H 0.5602 0.3479 0.7233
C11_4 C 0.49696(8) 0.41550(8) 0.61392(8)
H7_4 H 0.5195 0.4205 0.6177
H8_4 H 0.4844 0.4343 0.6197
C12_3 C 0.54113(9) 0.24257(7) 0.69323(7)
C13_4 C 0.49226(9) 0.40845(10) 0.57916(9)
C14_3 C 0.54168(10) 0.20740(8) 0.68932(8)
C15_4 C 0.54288(14) 0.28815(9) 0.72700(8)
H9_4 H 0.5434 0.2970 0.7476
C16_4 C 0.54164(14) 0.25554(9) 0.72338(8)
H10_3 H 0.5411 0.2422 0.7414
C17_4 C 0.61566(10) 0.34514(9) 0.68721(8)
H11_4 H 0.6296 0.3311 0.6748
H12_4 H 0.6071 0.3328 0.7052
C18_4 C 0.63486(14) 0.37261(14) 0.69986(15)
H13_4 H 0.6219 0.3846 0.7151
H14_4 H 0.6402 0.3869 0.6822
C19_4 C 0.6664(2) 0.36161(19) 0.71668(18)
H15_4 H 0.6609 0.3483 0.7351
H16_4 H 0.6787 0.3485 0.7018
C20_4 C 0.6861(2) 0.3880(3) 0.7273(3)
H17_4 H 0.6760 0.3984 0.7454
H18_4 H 0.6886 0.4032 0.7101
H19_4 H 0.7068 0.3800 0.7337
C21_4 C 0.48132(9) 0.43230(8) 0.55315(9)
H20_4 H 0.4766 0.4541 0.5556
C22_4 C 0.49022(18) 0.3847(2) 0.52709(15)
H21_4 H 0.4914 0.3712 0.5092
C23_4 C 0.4802(2) 0.4151(2) 0.5267(2)
H22_4 H 0.4723 0.4242 0.5077
S2_4 S 0.31280(3) 0.37522(4) 0.74995(4)
O5_4 O 0.40197(6) 0.39197(5) 0.69248(5)
O6_4 O 0.37599(6) 0.34848(5) 0.68311(5)
O7_4 O 0.40965(5) 0.55104(5) 0.79218(6)
O8_4 O 0.46129(6) 0.56079(6) 0.79158(11)
N3_4 N 0.38711(7) 0.38502(7) 0.84189(6)
N4_4 N 0.42654(6) 0.39178(6) 0.80873(7)
C24_4 C 0.38742(7) 0.36752(7) 0.70259(7)
C25_4 C 0.41685(8) 0.39423(7) 0.83905(8)
C26_4 C 0.38468(7) 0.36164(7) 0.73739(7)
C27_4 C 0.41704(7) 0.48785(7) 0.79125(7)
H23_4 H 0.3965 0.4967 0.7905
C28_4 C 0.42072(7) 0.45553(7) 0.79244(8)
H24_4 H 0.4026 0.4423 0.7927
C29_4 C 0.40182(7) 0.37979(7) 0.75675(8)
H25_4 H 0.4162 0.3938 0.7469
C30_4 C 0.40109(7) 0.38065(7) 0.79091(8)
C31_4 C 0.45068(7) 0.44202(8) 0.79329(9)
C32_4 C 0.37728(7) 0.37630(7) 0.81210(7)
H26_4 H 0.3569 0.3684 0.8071
C33_4 C 0.45523(7) 0.40662(7) 0.79608(9)
H27_4 H 0.4601 0.3977 0.7751
H28_4 H 0.4733 0.4021 0.8102
C34_4 C 0.36392(8) 0.33450(8) 0.74696(8)
H29_4 H 0.3677 0.3295 0.7695
H30_4 H 0.3697 0.3157 0.7344
C35_4 C 0.44323(7) 0.50743(7) 0.79113(9)
C36_4 C 0.32916(9) 0.34155(10) 0.74226(9)
C37_4 C 0.43932(8) 0.54260(8) 0.79168(10)
C38_4 C 0.47700(8) 0.46185(9) 0.79288(14)
H31_4 H 0.4976 0.4530 0.7934
C39_4 C 0.47338(8) 0.49446(9) 0.79164(14)
H32_4 H 0.4914 0.5078 0.7911
C40_4 C 0.43721(8) 0.40486(9) 0.86566(10)
H33_4 H 0.4248 0.4189 0.8796
H34_4 H 0.4552 0.4172 0.8571
C41_4 C 0.44986(15) 0.37739(14) 0.88486(14)
H35_4 H 0.4651 0.3654 0.8719
H36_4 H 0.4322 0.3631 0.8902
C42_4 C 0.46668(18) 0.38839(19) 0.9164(2)
H37_4 H 0.4851 0.4017 0.9109
H38_4 H 0.4518 0.4015 0.9287
C43_4 C 0.4773(3) 0.3620(3) 0.9361(2)
H39_4 H 0.4954 0.3516 0.9260
H40_4 H 0.4601 0.3468 0.9386
H41_4 H 0.4837 0.3700 0.9568
C44_4 C 0.30315(9) 0.31770(8) 0.73132(9)
H42_4 H 0.3056 0.2959 0.7266
C45_4 C 0.27709(15) 0.3653(2) 0.74022(18)
H43_4 H 0.2592 0.3788 0.7414
C46_4 C 0.2767(2) 0.3349(2) 0.7302(2)
H44_4 H 0.2577 0.3258 0.7223
Ni3_4 Ni 0.6250 0.35450(2) 0.60450(2)
N5_4 N 0.36289(7) 0.40811(6) 0.63502(7)
N6_4 N 0.38502(7) 0.34189(6) 0.61289(7)
H45_3 H 0.523248 0.185984 0.654898
H46_4 H 0.404898 0.564016 0.773248
O3_4 O 0.30104(5) 0.34035(5) 0.04218(6)
O4_4 O 0.31079(6) 0.28871(6) 0.04158(11)
N1_5 N 0.13502(7) 0.36289(7) 0.09189(6)
N2_5 N 0.14178(6) 0.32346(6) 0.05873(7)
C2_5 C 0.14423(7) 0.33315(8) 0.08905(8)
C4_5 C 0.23785(7) 0.33296(7) 0.04125(7)
H1_5 H 0.2467 0.3535 0.0405
C5_5 C 0.20553(7) 0.32928(7) 0.04244(8)
H2_5 H 0.1923 0.3474 0.0427
C6_5 C 0.12979(7) 0.34818(7) 0.00675(8)
C7_5 C 0.13065(7) 0.34891(7) 0.04091(8)
C8_5 C 0.19202(8) 0.29932(7) 0.04329(9)
C9_5 C 0.12630(7) 0.37272(7) 0.06210(7)
H4_5 H 0.1184 0.3931 0.0571
C10_5 C 0.15662(7) 0.29477(7) 0.04608(9)
H5_5 H 0.1477 0.2899 0.0251
H6_5 H 0.1521 0.2767 0.0602
H7_5 H 0.0795 0.3823 0.0195
C12_4 C 0.25743(7) 0.30677(7) 0.04113(9)
C14_4 C 0.29260(8) 0.31068(8) 0.04168(10)
C15_5 C 0.21185(9) 0.27300(8) 0.04288(14)
H9_5 H 0.2030 0.2524 0.0434
C16_5 C 0.24446(9) 0.27662(8) 0.04164(14)
H10_4 H 0.2578 0.2586 0.0411
C17_5 C 0.15486(9) 0.31279(8) 0.11566(10)
H11_5 H 0.1689 0.3252 0.1296
H12_5 H 0.1672 0.2948 0.1071
C18_5 C 0.12739(14) 0.30014(15) 0.13486(14)
H13_5 H 0.1154 0.2849 0.1219
H14_5 H 0.1131 0.3178 0.1402
C19_5 C 0.13839(19) 0.28332(18) 0.1664(2)
H15_5 H 0.1517 0.2649 0.1609
H16_5 H 0.1515 0.2982 0.1787
C20_5 C 0.1120(3) 0.2727(3) 0.1861(2)
H17_5 H 0.1016 0.2546 0.1760
H18_5 H 0.0968 0.2899 0.1886
H19_5 H 0.1200 0.2663 0.2068
Ni3_5 Ni 0.14550(2) 0.39550(2) 0.1250
H45_4 H 0.314016 0.345102 0.0232485
Ni1_5 Ni 0.1250 0.35450(2) 0.89550(2)
S1_5 S 0.12522(4) 0.43720(3) 0.99995(4)
O1_5 O 0.14197(5) 0.34803(6) 0.94248(5)
O2_5 O 0.09848(5) 0.37401(6) 0.93311(5)
C1_5 C 0.11752(7) 0.36258(7) 0.95259(7)
C3_5 C 0.11164(7) 0.36532(7) 0.98739(7)
H3_5 H 0.1438 0.3338 0.9969
C11_5 C 0.08450(8) 0.38608(8) 0.99696(8)
H8_5 H 0.0657 0.3803 0.9844
C13_5 C 0.09155(10) 0.42084(9) 0.99226(9)
C21_5 C 0.06770(8) 0.44685(9) 0.98132(9)
H20_5 H 0.0459 0.4444 0.9766
C22_5 C 0.1153(2) 0.47291(15) 0.99022(18)
H21_5 H 0.1288 0.4908 0.9914
C23_5 C 0.0849(2) 0.4733(2) 0.9802(2)
H22_5 H 0.0758 0.4923 0.9723
S2_5 S 0.12478(4) 0.25005(4) 0.81280(3)
O5_5 O 0.10803(5) 0.30752(5) 0.90197(6)
O6_5 O 0.15152(5) 0.31689(5) 0.87599(6)
N3_5 N 0.11498(7) 0.15811(6) 0.88711(7)
N4_5 N 0.10822(6) 0.19127(7) 0.92654(6)
C24_5 C 0.13248(7) 0.29741(7) 0.88742(7)
C25_5 C 0.10577(7) 0.16095(8) 0.91685(8)
C26_5 C 0.13836(7) 0.26261(7) 0.88468(7)
C27_5 C 0.01215(7) 0.20875(7) 0.91704(7)
H23_5 H 0.0033 0.2095 0.8965
C28_5 C 0.04447(7) 0.20756(8) 0.92072(7)
H24_5 H 0.0577 0.2073 0.9026
C29_5 C 0.12021(7) 0.24325(8) 0.90182(7)
H25_5 H 0.1062 0.2531 0.9162
C30_5 C 0.11935(7) 0.20909(8) 0.90109(7)
C31_5 C 0.05798(8) 0.20671(9) 0.95068(7)
C32_5 C 0.12370(7) 0.18790(7) 0.87728(7)
H26_5 H 0.1316 0.1929 0.8569
C33_5 C 0.09338(7) 0.20392(9) 0.95523(7)
H27_5 H 0.1023 0.2249 0.9601
H28_5 H 0.0979 0.1898 0.9733
C34_5 C 0.16550(8) 0.25304(8) 0.86392(8)
H29_5 H 0.1705 0.2305 0.8677
H30_5 H 0.1843 0.2656 0.8697
C36_5 C 0.15845(10) 0.25774(9) 0.82916(9)
C38_5 C 0.03815(9) 0.20712(14) 0.97700(8)
H31_5 H 0.0470 0.2066 0.9976
C39_5 C 0.00554(9) 0.20836(14) 0.97338(8)
C40_5 C 0.09514(9) 0.13434(10) 0.93721(8)
H33_5 H 0.0811 0.1204 0.9248
H34_5 H 0.0828 0.1429 0.9552
C41_5 C 0.12261(14) 0.11514(14) 0.94986(15)
H35_5 H 0.1346 0.1281 0.9651
H36_5 H 0.1369 0.1098 0.9322
C42_5 C 0.11161(19) 0.0836(2) 0.96668(18)
H37_5 H 0.0983 0.0891 0.9851
H38_5 H 0.0985 0.0713 0.9518
C43_5 C 0.1380(3) 0.0639(2) 0.9773(3)
H39_5 H 0.1484 0.0740 0.9954
H40_5 H 0.1532 0.0614 0.9601
H41_5 H 0.1300 0.0432 0.9837
C44_5 C 0.18230(8) 0.26868(9) 0.80315(9)
H42_5 H 0.2041 0.2734 0.8056
C45_5 C 0.1347(2) 0.25978(18) 0.77709(15)
H43_5 H 0.1212 0.2586 0.7592
C46_5 C 0.1651(2) 0.2698(2) 0.7767(2)
H44_5 H 0.1742 0.2777 0.7577
Ni2_4 Ni 0.10450(2) 0.1250 0.85450(2)
N5_5 N 0.09189(6) 0.36498(7) 0.86289(7)
N6_5 N 0.15811(6) 0.38711(7) 0.88502(7)
Ni1_6 Ni 0.60450(2) 0.8750 0.85450(2)
S1_6 S 0.68720(3) 0.87522(4) 0.75005(4)
O1_6 O 0.59803(6) 0.89197(5) 0.80752(5)
O2_6 O 0.62401(6) 0.84848(5) 0.81689(5)
N1_6 N 0.61289(7) 0.88502(7) 0.65811(6)
N2_6 N 0.57346(6) 0.89178(6) 0.69127(7)
C1_6 C 0.61258(7) 0.86752(7) 0.79741(7)
C2_6 C 0.58315(8) 0.89423(7) 0.66095(8)
C3_6 C 0.61532(7) 0.86164(7) 0.76261(7)
C4_6 C 0.58296(7) 0.98785(7) 0.70875(7)
H1_6 H 0.6035 0.9967 0.7095
C5_6 C 0.57928(7) 0.95553(7) 0.70756(8)
H2_6 H 0.5974 0.9423 0.7073
C6_6 C 0.59818(7) 0.87979(7) 0.74325(8)
H3_6 H 0.5838 0.8938 0.7531
C7_6 C 0.59891(7) 0.88065(7) 0.70909(8)
C8_6 C 0.54932(7) 0.94202(8) 0.70671(9)
C9_6 C 0.62272(7) 0.87630(7) 0.68790(7)
H4_6 H 0.6431 0.8684 0.6929
C10_6 C 0.54477(7) 0.90662(7) 0.70392(9)
H5_6 H 0.5399 0.8977 0.7249
H6_6 H 0.5267 0.9021 0.6898
C11_6 C 0.63608(8) 0.83450(8) 0.75304(8)
H7_6 H 0.6323 0.8295 0.7305
H8_6 H 0.6303 0.8157 0.7656
C13_6 C 0.67084(9) 0.84155(10) 0.75774(9)
C15_6 C 0.52300(8) 0.96185(9) 0.70712(14)
H9_6 H 0.5024 0.9530 0.7066
C16_6 C 0.52662(8) 0.99446(9) 0.70836(14)
C17_6 C 0.56279(8) 0.90486(9) 0.63434(10)
H11_6 H 0.5752 0.9189 0.6204
H12_6 H 0.5448 0.9172 0.6429
C18_6 C 0.55014(15) 0.87739(14) 0.61514(14)
H13_6 H 0.5349 0.8654 0.6281
H14_6 H 0.5678 0.8631 0.6098
C19_6 C 0.53332(18) 0.88839(19) 0.5836(2)
H15_6 H 0.5149 0.9017 0.5891
H16_6 H 0.5482 0.9015 0.5713
C20_6 C 0.5227(3) 0.8620(3) 0.5639(2)
H17_6 H 0.5046 0.8516 0.5740
H18_6 H 0.5399 0.8468 0.5614
H19_6 H 0.5163 0.8700 0.5432
C21_6 C 0.69685(9) 0.81770(8) 0.76868(9)
H20_6 H 0.6944 0.7959 0.7734
C22_6 C 0.72291(15) 0.8653(2) 0.75978(18)
H21_6 H 0.7408 0.8788 0.7586
C23_6 C 0.7233(2) 0.8349(2) 0.7698(2)
H22_6 H 0.7423 0.8258 0.7777
S2_6 S 0.50005(4) 0.87478(4) 0.93720(3)
O5_6 O 0.55752(5) 0.85803(5) 0.84803(6)
O6_6 O 0.56689(5) 0.90152(5) 0.87401(6)
O7_5 O 0.45782(6) 0.69896(5) 0.84035(5)
O8_5 O 0.45842(11) 0.68921(6) 0.78871(6)
N3_6 N 0.40811(6) 0.86498(7) 0.86289(7)
N4_6 N 0.44127(7) 0.85822(6) 0.82346(6)
C24_6 C 0.54741(7) 0.88248(7) 0.86258(7)
C25_6 C 0.41095(8) 0.85577(7) 0.83315(8)
C26_6 C 0.51261(7) 0.88836(7) 0.86532(7)
C27_6 C 0.45875(7) 0.76215(7) 0.83296(7)
H23_6 H 0.4595 0.7533 0.8535
C28_6 C 0.45756(8) 0.79447(7) 0.82928(7)
H24_6 H 0.4573 0.8077 0.8474
C29_6 C 0.49325(8) 0.87021(7) 0.84818(7)
H25_6 H 0.5031 0.8562 0.8338
C30_6 C 0.45909(8) 0.86935(7) 0.84891(7)
C31_6 C 0.45671(9) 0.80798(8) 0.79932(7)
C32_6 C 0.43790(7) 0.87370(7) 0.87272(7)
H26_6 H 0.4429 0.8816 0.8931
C33_6 C 0.45392(9) 0.84338(7) 0.79477(7)
H27_6 H 0.4749 0.8523 0.7899
H28_6 H 0.4398 0.8479 0.7767
C34_6 C 0.50304(8) 0.91550(8) 0.88608(8)
H29_6 H 0.4805 0.9205 0.8823
H30_6 H 0.5156 0.9343 0.8803
C35_5 C 0.45887(9) 0.74257(7) 0.80677(7)
C36_6 C 0.50774(9) 0.90845(10) 0.92084(9)
C37_5 C 0.45832(10) 0.70740(8) 0.81068(8)
C38_6 C 0.45712(14) 0.78815(9) 0.77300(8)
H31_6 H 0.4566 0.7970 0.7524
C39_6 C 0.45836(14) 0.75554(9) 0.77662(8)
H32_5 H 0.4589 0.7422 0.7586
C40_6 C 0.38434(10) 0.84514(9) 0.81279(8)
H33_6 H 0.3704 0.8311 0.8252
H34_6 H 0.3929 0.8328 0.7948
C41_6 C 0.36514(14) 0.87261(14) 0.80014(15)
H35_6 H 0.3781 0.8846 0.7849
H36_6 H 0.3598 0.8869 0.8178
C42_6 C 0.3336(2) 0.86161(19) 0.78332(18)
H37_6 H 0.3391 0.8483 0.7649
H38_6 H 0.3213 0.8485 0.7982
C43_6 C 0.3139(2) 0.8880(3) 0.7727(3)
H39_6 H 0.3240 0.8984 0.7546
H40_6 H 0.3114 0.9032 0.7899
H41_6 H 0.2932 0.8800 0.7663
C44_6 C 0.51868(9) 0.93230(8) 0.94685(9)
H42_6 H 0.5234 0.9541 0.9444
C45_6 C 0.50978(18) 0.8847(2) 0.97291(15)
H43_6 H 0.5086 0.8712 0.9908
C46_6 C 0.5198(2) 0.9151(2) 0.9733(2)
H44_6 H 0.5277 0.9242 0.9923
Ni2_5 Ni 0.3750 0.85450(2) 0.89550(2)
Ni3_6 Ni 0.64550(2) 0.89550(2) 0.6250
N5_6 N 0.61498(7) 0.84189(6) 0.88711(7)
N6_6 N 0.63711(7) 0.90811(6) 0.86498(7)
H46_5 H 0.476752 0.685984 0.845102
O7_6 O 0.04218(6) 0.30104(5) 0.34035(5)
O8_6 O 0.04158(11) 0.31079(6) 0.28871(6)
N3_7 N 0.09189(6) 0.13502(7) 0.36289(7)
N4_7 N 0.05873(7) 0.14178(6) 0.32346(6)
C25_7 C 0.08905(8) 0.14423(7) 0.33315(8)
C27_7 C 0.04125(7) 0.23785(7) 0.33296(7)
H23_7 H 0.0405 0.2467 0.3535
C28_7 C 0.04244(8) 0.20553(7) 0.32928(7)
H24_7 H 0.0427 0.1923 0.3474
C29_7 C 0.00675(8) 0.12979(7) 0.34818(7)
C30_7 C 0.04091(8) 0.13065(7) 0.34891(7)
C31_7 C 0.04329(9) 0.19202(8) 0.29932(7)
C32_7 C 0.06210(7) 0.12630(7) 0.37272(7)
H26_7 H 0.0571 0.1184 0.3931
C33_7 C 0.04608(9) 0.15662(7) 0.29477(7)
H27_7 H 0.0251 0.1477 0.2899
H28_7 H 0.0602 0.1521 0.2767
H29_7 H 0.0195 0.0795 0.3823
C35_6 C 0.04113(9) 0.25743(7) 0.30677(7)
C37_6 C 0.04168(10) 0.29260(8) 0.31068(8)
C38_7 C 0.04288(14) 0.21185(9) 0.27300(8)
H31_7 H 0.0434 0.2030 0.2524
C39_7 C 0.04164(14) 0.24446(9) 0.27662(8)
H32_6 H 0.0411 0.2578 0.2586
C40_7 C 0.11566(10) 0.15486(9) 0.31279(8)
H33_7 H 0.1296 0.1689 0.3252
H34_7 H 0.1071 0.1672 0.2948
C41_7 C 0.13486(14) 0.12739(14) 0.30014(15)
H35_7 H 0.1219 0.1154 0.2849
H36_7 H 0.1402 0.1131 0.3178
C42_7 C 0.1664(2) 0.13839(19) 0.28332(18)
H37_7 H 0.1609 0.1517 0.2649
H38_7 H 0.1787 0.1515 0.2982
C43_7 C 0.1861(2) 0.1120(3) 0.2727(3)
H39_7 H 0.1760 0.1016 0.2546
H40_7 H 0.1886 0.0968 0.2899
H41_7 H 0.2068 0.1200 0.2663
Ni2_6 Ni 0.1250 0.14550(2) 0.39550(2)
H46_6 H 0.0232485 0.314016 0.345102
Ni1_7 Ni 0.89550(2) 0.1250 0.35450(2)
S1_7 S 0.81280(3) 0.12478(4) 0.25005(4)
O1_7 O 0.90197(6) 0.10803(5) 0.30752(5)
O2_7 O 0.87599(6) 0.15152(5) 0.31689(5)
N1_7 N 0.88711(7) 0.11498(7) 0.15811(6)
N2_7 N 0.92654(6) 0.10822(6) 0.19127(7)
C1_7 C 0.88742(7) 0.13248(7) 0.29741(7)
C2_7 C 0.91685(8) 0.10577(7) 0.16095(8)
C3_7 C 0.88468(7) 0.13836(7) 0.26261(7)
C4_7 C 0.91704(7) 0.01215(7) 0.20875(7)
H1_7 H 0.8965 0.0033 0.2095
C5_7 C 0.92072(7) 0.04447(7) 0.20756(8)
H2_7 H 0.9026 0.0577 0.2073
C6_7 C 0.90182(7) 0.12021(7) 0.24325(8)
H3_7 H 0.9162 0.1062 0.2531
C7_7 C 0.90109(7) 0.11935(7) 0.20909(8)
C8_7 C 0.95068(7) 0.05798(8) 0.20671(9)
C9_7 C 0.87728(7) 0.12370(7) 0.18790(7)
H4_7 H 0.8569 0.1316 0.1929
C10_7 C 0.95523(7) 0.09338(7) 0.20392(9)
H5_7 H 0.9601 0.1023 0.2249
H6_7 H 0.9733 0.0979 0.1898
C11_7 C 0.86392(8) 0.16550(8) 0.25304(8)
H7_7 H 0.8677 0.1705 0.2305
H8_7 H 0.8697 0.1843 0.2656
C13_7 C 0.82916(9) 0.15845(10) 0.25774(9)
C15_7 C 0.97700(8) 0.03815(9) 0.20712(14)
H9_7 H 0.9976 0.0470 0.2066
C16_7 C 0.97338(8) 0.00554(9) 0.20836(14)
C17_7 C 0.93721(8) 0.09514(9) 0.13434(10)
H11_7 H 0.9248 0.0811 0.1204
H12_7 H 0.9552 0.0828 0.1429
C18_7 C 0.94986(15) 0.12261(14) 0.11514(14)
H13_7 H 0.9651 0.1346 0.1281
H14_7 H 0.9322 0.1369 0.1098
C19_7 C 0.96668(18) 0.11161(19) 0.0836(2)
H15_7 H 0.9851 0.0983 0.0891
H16_7 H 0.9518 0.0985 0.0713
C20_7 C 0.9773(3) 0.1380(3) 0.0639(2)
H17_7 H 0.9954 0.1484 0.0740
H18_7 H 0.9601 0.1532 0.0614
H19_7 H 0.9837 0.1300 0.0432
C21_7 C 0.80315(9) 0.18230(8) 0.26868(9)
H20_7 H 0.8056 0.2041 0.2734
C22_7 C 0.77709(15) 0.1347(2) 0.25978(18)
H21_7 H 0.7592 0.1212 0.2586
C23_7 C 0.7767(2) 0.1651(2) 0.2698(2)
H22_7 H 0.7577 0.1742 0.2777
S2_7 S 0.99995(4) 0.12522(4) 0.43720(3)
O5_7 O 0.94248(5) 0.14197(5) 0.34803(6)
O6_7 O 0.93311(5) 0.09848(5) 0.37401(6)
C24_7 C 0.95259(7) 0.11752(7) 0.36258(7)
C26_7 C 0.98739(7) 0.11164(7) 0.36532(7)
H25_7 H 0.9969 0.1438 0.3338
C34_7 C 0.99696(8) 0.08450(8) 0.38608(8)
H30_7 H 0.9844 0.0657 0.3803
C36_7 C 0.99226(9) 0.09155(10) 0.42084(9)
C44_7 C 0.98132(9) 0.06770(8) 0.44685(9)
H42_7 H 0.9766 0.0459 0.4444
C45_7 C 0.99022(18) 0.1153(2) 0.47291(15)
H43_7 H 0.9914 0.1288 0.4908
C46_7 C 0.9802(2) 0.0849(2) 0.4733(2)
H44_7 H 0.9723 0.0758 0.4923
Ni3_7 Ni 0.85450(2) 0.10450(2) 0.1250
N5_7 N 0.88502(7) 0.15811(6) 0.38711(7)
N6_7 N 0.86289(7) 0.09189(6) 0.36498(7)
Ni1_8 Ni 0.64550(2) 0.60450(2) 0.1250
S1_8 S 0.74995(4) 0.68720(3) 0.12478(4)
O1_8 O 0.69248(5) 0.59803(6) 0.10803(5)
O2_8 O 0.68311(5) 0.62401(6) 0.15152(5)
N1_8 N 0.84189(6) 0.61289(7) 0.11498(7)
N2_8 N 0.80873(7) 0.57346(6) 0.10822(6)
C1_8 C 0.70259(7) 0.61258(7) 0.13248(7)
C2_8 C 0.83905(8) 0.58315(8) 0.10577(7)
C3_8 C 0.73739(7) 0.61532(7) 0.13836(7)
C4_8 C 0.79125(7) 0.58296(7) 0.01215(7)
H1_8 H 0.7905 0.6035 0.0033
C5_8 C 0.79244(8) 0.57928(7) 0.04447(7)
H2_8 H 0.7927 0.5974 0.0577
C6_8 C 0.75675(8) 0.59818(7) 0.12021(7)
H3_8 H 0.7469 0.5838 0.1062
C7_8 C 0.79091(8) 0.59891(7) 0.11935(7)
C8_8 C 0.79329(9) 0.54932(7) 0.05798(8)
C9_8 C 0.81210(7) 0.62272(7) 0.12370(7)
H4_8 H 0.8071 0.6431 0.1316
C10_8 C 0.79608(9) 0.54477(7) 0.09338(7)
H5_8 H 0.7751 0.5399 0.1023
H6_8 H 0.8102 0.5267 0.0979
C11_8 C 0.74696(8) 0.63608(8) 0.16550(8)
H7_8 H 0.7695 0.6323 0.1705
H8_8 H 0.7344 0.6303 0.1843
C13_8 C 0.74226(9) 0.67084(9) 0.15845(10)
C15_8 C 0.79288(14) 0.52300(8) 0.03815(9)
H9_8 H 0.7934 0.5024 0.0470
C16_8 C 0.79164(14) 0.52662(8) 0.00554(9)
C17_8 C 0.86566(10) 0.56279(8) 0.09514(9)
H11_8 H 0.8796 0.5752 0.0811
H12_8 H 0.8571 0.5448 0.0828
C18_8 C 0.88486(14) 0.55014(15) 0.12261(14)
H13_8 H 0.8719 0.5349 0.1346
H14_8 H 0.8902 0.5678 0.1369
C19_8 C 0.9164(2) 0.53332(18) 0.11161(19)
H15_8 H 0.9109 0.5149 0.0983
H16_8 H 0.9287 0.5482 0.0985
C20_8 C 0.9361(2) 0.5227(3) 0.1380(3)
H17_8 H 0.9260 0.5046 0.1484
H18_8 H 0.9386 0.5399 0.1532
H19_8 H 0.9568 0.5163 0.1300
C21_8 C 0.73132(9) 0.69685(9) 0.18230(8)
H20_8 H 0.7266 0.6944 0.2041
C22_8 C 0.74022(18) 0.72291(15) 0.1347(2)
H21_8 H 0.7414 0.7408 0.1212
C23_8 C 0.7302(2) 0.7233(2) 0.1651(2)
H22_8 H 0.7223 0.7423 0.1742
S2_8 S 0.56280(3) 0.50005(4) 0.12522(4)
O5_8 O 0.65197(6) 0.55752(5) 0.14197(5)
O6_8 O 0.62599(6) 0.56689(5) 0.09848(5)
O7_7 O 0.65965(5) 0.45782(6) 0.30104(5)
O8_7 O 0.71129(6) 0.45842(11) 0.31079(6)
N3_8 N 0.63711(7) 0.40811(6) 0.13502(7)
N4_8 N 0.67654(6) 0.44127(7) 0.14178(6)
C24_8 C 0.63742(7) 0.54741(7) 0.11752(7)
C25_8 C 0.66685(8) 0.41095(8) 0.14423(7)
C26_8 C 0.63468(7) 0.51261(7) 0.11164(7)
C27_8 C 0.66704(7) 0.45875(7) 0.23785(7)
H23_8 H 0.6465 0.4595 0.2467
C28_8 C 0.67072(7) 0.45756(8) 0.20553(7)
H24_8 H 0.6526 0.4573 0.1923
C29_8 C 0.65182(7) 0.49325(8) 0.12979(7)
H25_8 H 0.6662 0.5031 0.1438
C30_8 C 0.65109(7) 0.45909(8) 0.13065(7)
C31_8 C 0.70068(7) 0.45671(9) 0.19202(8)
C32_8 C 0.62728(7) 0.43790(7) 0.12630(7)
H26_8 H 0.6069 0.4429 0.1184
C33_8 C 0.70523(7) 0.45392(9) 0.15662(7)
H27_8 H 0.7101 0.4749 0.1477
H28_8 H 0.7233 0.4398 0.1521
C34_8 C 0.61392(8) 0.50304(8) 0.08450(8)
H29_8 H 0.6177 0.4805 0.0795
H30_8 H 0.6197 0.5156 0.0657
C35_7 C 0.69323(7) 0.45887(9) 0.25743(7)
C36_8 C 0.57916(9) 0.50774(9) 0.09155(10)
C37_7 C 0.68932(8) 0.45832(10) 0.29260(8)
C38_8 C 0.72700(8) 0.45712(14) 0.21185(9)
H31_8 H 0.7476 0.4566 0.2030
C39_8 C 0.72338(8) 0.45836(14) 0.24446(9)
H32_7 H 0.7414 0.4589 0.2578
C40_8 C 0.68721(8) 0.38434(10) 0.15486(9)
H33_8 H 0.6748 0.3704 0.1689
H34_8 H 0.7052 0.3929 0.1672
C41_8 C 0.69986(15) 0.36514(14) 0.12739(14)
H35_8 H 0.7151 0.3781 0.1154
H36_8 H 0.6822 0.3598 0.1131
C42_8 C 0.71668(18) 0.3336(2) 0.13839(19)
H37_8 H 0.7351 0.3391 0.1517
H38_8 H 0.7018 0.3213 0.1515
C43_8 C 0.7273(3) 0.3139(2) 0.1120(3)
H39_8 H 0.7454 0.3240 0.1016
H40_8 H 0.7101 0.3114 0.0968
H41_8 H 0.7337 0.2932 0.1200
C44_8 C 0.55315(9) 0.51868(9) 0.06770(8)
H42_8 H 0.5556 0.5234 0.0459
C45_8 C 0.52709(15) 0.50978(18) 0.1153(2)
H43_8 H 0.5092 0.5086 0.1288
C46_8 C 0.5267(2) 0.5198(2) 0.0849(2)
H44_8 H 0.5077 0.5277 0.0758
Ni2_7 Ni 0.60450(2) 0.3750 0.14550(2)
Ni3_8 Ni 0.8750 0.64550(2) 0.10450(2)
N5_8 N 0.61289(7) 0.61498(7) 0.15811(6)
N6_8 N 0.63502(7) 0.63711(7) 0.09189(6)
H46_7 H 0.654898 0.476752 0.314016
O7_8 O 0.69896(5) 0.15965(5) 0.04218(6)
O8_8 O 0.68921(6) 0.21129(6) 0.04158(11)
N3_9 N 0.86498(7) 0.13711(7) 0.09189(6)
N4_9 N 0.85822(6) 0.17654(6) 0.05873(7)
C25_9 C 0.85577(7) 0.16685(8) 0.08905(8)
C27_9 C 0.76215(7) 0.16704(7) 0.04125(7)
H23_9 H 0.7533 0.1465 0.0405
C28_9 C 0.79447(7) 0.17072(7) 0.04244(8)
H24_9 H 0.8077 0.1526 0.0427
C29_9 C 0.87021(7) 0.15182(7) 0.00675(8)
C30_9 C 0.86935(7) 0.15109(7) 0.04091(8)
C31_9 C 0.80798(8) 0.20068(7) 0.04329(9)
C32_9 C 0.87370(7) 0.12728(7) 0.06210(7)
H26_9 H 0.8816 0.1069 0.0571
C33_9 C 0.84338(7) 0.20523(7) 0.04608(9)
H27_9 H 0.8523 0.2101 0.0251
H28_9 H 0.8479 0.2233 0.0602
H29_9 H 0.9205 0.1177 0.0195
C35_8 C 0.74257(7) 0.19323(7) 0.04113(9)
C37_8 C 0.70740(8) 0.18932(8) 0.04168(10)
C38_9 C 0.78815(9) 0.22700(8) 0.04288(14)
H31_9 H 0.7970 0.2476 0.0434
C39_9 C 0.75554(9) 0.22338(8) 0.04164(14)
H32_8 H 0.7422 0.2414 0.0411
C40_9 C 0.84514(9) 0.18721(8) 0.11566(10)
H33_9 H 0.8311 0.1748 0.1296
H34_9 H 0.8328 0.2052 0.1071
C41_9 C 0.87261(14) 0.19986(15) 0.13486(14)
H35_9 H 0.8846 0.2151 0.1219
H36_9 H 0.8869 0.1822 0.1402
C42_9 C 0.86161(19) 0.21668(18) 0.1664(2)
H37_9 H 0.8483 0.2351 0.1609
H38_9 H 0.8485 0.2018 0.1787
C43_9 C 0.8880(3) 0.2273(3) 0.1861(2)
H39_9 H 0.8984 0.2454 0.1760
H40_9 H 0.9032 0.2101 0.1886
H41_9 H 0.8800 0.2337 0.2068
H46_8 H 0.685984 0.154898 0.0232485
Ni1_9 Ni 0.8750 0.14550(2) 0.89550(2)
S1_9 S 0.87522(4) 0.24995(4) 0.81280(3)
O1_9 O 0.89197(5) 0.19248(5) 0.90197(6)
O2_9 O 0.84848(5) 0.18311(5) 0.87599(6)
N1_9 N 0.88502(7) 0.34189(6) 0.88711(7)
N2_9 N 0.89178(6) 0.30873(7) 0.92654(6)
C1_9 C 0.86752(7) 0.20259(7) 0.88742(7)
C2_9 C 0.89423(7) 0.33905(8) 0.91685(8)
C3_9 C 0.86164(7) 0.23739(7) 0.88468(7)
C4_9 C 0.98785(7) 0.29125(7) 0.91704(7)
H1_9 H 0.9967 0.2905 0.8965
C5_9 C 0.95553(7) 0.29244(8) 0.92072(7)
H2_9 H 0.9423 0.2927 0.9026
C6_9 C 0.87979(7) 0.25675(8) 0.90182(7)
H3_9 H 0.8938 0.2469 0.9162
C7_9 C 0.88065(7) 0.29091(8) 0.90109(7)
C8_9 C 0.94202(8) 0.29329(9) 0.95068(7)
C9_9 C 0.87630(7) 0.31210(7) 0.87728(7)
H4_9 H 0.8684 0.3071 0.8569
C10_9 C 0.90662(7) 0.29608(9) 0.95523(7)
H5_9 H 0.8977 0.2751 0.9601
H6_9 H 0.9021 0.3102 0.9733
C11_9 C 0.83450(8) 0.24696(8) 0.86392(8)
H7_9 H 0.8295 0.2695 0.8677
H8_9 H 0.8157 0.2344 0.8697
C13_9 C 0.84155(10) 0.24226(9) 0.82916(9)
C15_9 C 0.96185(9) 0.29288(14) 0.97700(8)
H9_9 H 0.9530 0.2934 0.9976
C16_9 C 0.99446(9) 0.29164(14) 0.97338(8)
C17_9 C 0.90486(9) 0.36566(10) 0.93721(8)
H11_9 H 0.9189 0.3796 0.9248
H12_9 H 0.9172 0.3571 0.9552
C18_9 C 0.87739(14) 0.38486(14) 0.94986(15)
H13_9 H 0.8654 0.3719 0.9651
H14_9 H 0.8631 0.3902 0.9322
C19_9 C 0.88839(19) 0.4164(2) 0.96668(18)
H15_9 H 0.9017 0.4109 0.9851
H16_9 H 0.9015 0.4287 0.9518
C20_9 C 0.8620(3) 0.4361(2) 0.9773(3)
H17_9 H 0.8516 0.4260 0.9954
H18_9 H 0.8468 0.4386 0.9601
H19_9 H 0.8700 0.4568 0.9837
C21_9 C 0.81770(8) 0.23132(9) 0.80315(9)
H20_9 H 0.7959 0.2266 0.8056
C22_9 C 0.8653(2) 0.24022(18) 0.77709(15)
H21_9 H 0.8788 0.2414 0.7592
C23_9 C 0.8349(2) 0.2302(2) 0.7767(2)
H22_9 H 0.8258 0.2223 0.7577
S2_9 S 0.87478(4) 0.06280(3) 0.99995(4)
O5_9 O 0.85803(5) 0.15197(6) 0.94248(5)
O6_9 O 0.90152(5) 0.12599(6) 0.93311(5)
C24_9 C 0.88248(7) 0.13742(7) 0.95259(7)
C26_9 C 0.88836(7) 0.13468(7) 0.98739(7)
H25_9 H 0.8562 0.1662 0.9969
C34_9 C 0.91550(8) 0.11392(8) 0.99696(8)
H30_9 H 0.9343 0.1197 0.9844
C36_9 C 0.90845(10) 0.07916(9) 0.99226(9)
C44_9 C 0.93230(8) 0.05315(9) 0.98132(9)
H42_9 H 0.9541 0.0556 0.9766
C45_9 C 0.8847(2) 0.02709(15) 0.99022(18)
H43_9 H 0.8712 0.0092 0.9914
C46_9 C 0.9151(2) 0.0267(2) 0.9802(2)
H44_9 H 0.9242 0.0077 0.9723
Ni3_9 Ni 0.89550(2) 0.3750 0.85450(2)
N5_9 N 0.84189(6) 0.11289(7) 0.88502(7)
N6_9 N 0.90811(6) 0.13502(7) 0.86289(7)
Ni1_10 Ni 0.10450(2) 0.3750 0.35450(2)
S1_10 S 0.00005(4) 0.37478(4) 0.43720(3)
O1_10 O 0.05752(5) 0.35803(5) 0.34803(6)
O2_10 O 0.06689(5) 0.40152(5) 0.37401(6)
C1_10 C 0.04741(7) 0.38248(7) 0.36258(7)
C3_10 C 0.01261(7) 0.38836(7) 0.36532(7)
H3_10 H 0.0031 0.3562 0.3338
C11_10 C 0.00304(8) 0.41550(8) 0.38608(8)
H8_10 H 0.0156 0.4343 0.3803
C13_10 C 0.00774(9) 0.40845(10) 0.42084(9)
C21_10 C 0.01868(9) 0.43230(8) 0.44685(9)
H20_10 H 0.0234 0.4541 0.4444
C22_10 C 0.00978(18) 0.3847(2) 0.47291(15)
H21_10 H 0.0086 0.3712 0.4908
C23_10 C 0.0198(2) 0.4151(2) 0.4733(2)
H22_10 H 0.0277 0.4242 0.4923
S2_10 S 0.18720(3) 0.37522(4) 0.25005(4)
O5_10 O 0.09803(6) 0.39197(5) 0.30752(5)
O6_10 O 0.12401(6) 0.34848(5) 0.31689(5)
O7_9 O 0.09035(5) 0.55104(5) 0.20782(6)
O8_9 O 0.03871(6) 0.56079(6) 0.20842(11)
N3_10 N 0.11289(7) 0.38502(7) 0.15811(6)
N4_10 N 0.07346(6) 0.39178(6) 0.19127(7)
C24_10 C 0.11258(7) 0.36752(7) 0.29741(7)
C25_10 C 0.08315(8) 0.39423(7) 0.16095(8)
C26_10 C 0.11532(7) 0.36164(7) 0.26261(7)
C27_10 C 0.08296(7) 0.48785(7) 0.20875(7)
H23_10 H 0.1035 0.4967 0.2095
C28_10 C 0.07928(7) 0.45553(7) 0.20756(8)
H24_10 H 0.0974 0.4423 0.2073
C29_10 C 0.09818(7) 0.37979(7) 0.24325(8)
H25_10 H 0.0838 0.3938 0.2531
C30_10 C 0.09891(7) 0.38065(7) 0.20909(8)
C31_10 C 0.04932(7) 0.44202(8) 0.20671(9)
C32_10 C 0.12272(7) 0.37630(7) 0.18790(7)
H26_10 H 0.1431 0.3684 0.1929
C33_10 C 0.04477(7) 0.40662(7) 0.20392(9)
H27_10 H 0.0399 0.3977 0.2249
H28_10 H 0.0267 0.4021 0.1898
C34_10 C 0.13608(8) 0.33450(8) 0.25304(8)
H29_10 H 0.1323 0.3295 0.2305
H30_10 H 0.1303 0.3157 0.2656
C35_9 C 0.05677(7) 0.50743(7) 0.20887(9)
C36_10 C 0.17084(9) 0.34155(10) 0.25774(9)
C37_9 C 0.06068(8) 0.54260(8) 0.20832(10)
C38_10 C 0.02300(8) 0.46185(9) 0.20712(14)
H31_10 H 0.0024 0.4530 0.2066
C39_10 C 0.02662(8) 0.49446(9) 0.20836(14)
H32_9 H 0.0086 0.5078 0.2089
C40_10 C 0.06279(8) 0.40486(9) 0.13434(10)
H33_10 H 0.0752 0.4189 0.1204
H34_10 H 0.0448 0.4172 0.1429
C41_10 C 0.05014(15) 0.37739(14) 0.11514(14)
H35_10 H 0.0349 0.3654 0.1281
H36_10 H 0.0678 0.3631 0.1098
C42_10 C 0.03332(18) 0.38839(19) 0.0836(2)
H37_10 H 0.0149 0.4017 0.0891
H38_10 H 0.0482 0.4015 0.0713
C43_10 C 0.0227(3) 0.3620(3) 0.0639(2)
H39_10 H 0.0046 0.3516 0.0740
H40_10 H 0.0399 0.3468 0.0614
H41_10 H 0.0163 0.3700 0.0432
C44_10 C 0.19685(9) 0.31770(8) 0.26868(9)
H42_10 H 0.1944 0.2959 0.2734
C45_10 C 0.22291(15) 0.3653(2) 0.25978(18)
H43_10 H 0.2408 0.3788 0.2586
C46_10 C 0.2233(2) 0.3349(2) 0.2698(2)
H44_10 H 0.2423 0.3258 0.2777
N5_10 N 0.13711(7) 0.40811(6) 0.36498(7)
N6_10 N 0.11498(7) 0.34189(6) 0.38711(7)
H46_9 H 0.0951017 0.564016 0.226752
O3_5 O 0.95782(6) 0.19896(5) 0.34035(5)
O4_5 O 0.95842(11) 0.18921(6) 0.28871(6)
N1_10 N 0.90811(6) 0.36498(7) 0.36289(7)
N2_10 N 0.94127(7) 0.35822(6) 0.32346(6)
C2_10 C 0.91095(8) 0.35577(7) 0.33315(8)
C4_10 C 0.95875(7) 0.26215(7) 0.33296(7)
H1_10 H 0.9595 0.2533 0.3535
C5_10 C 0.95756(8) 0.29447(7) 0.32928(7)
H2_10 H 0.9573 0.3077 0.3474
C6_10 C 0.99325(8) 0.37021(7) 0.34818(7)
C7_10 C 0.95909(8) 0.36935(7) 0.34891(7)
C8_10 C 0.95671(9) 0.30798(8) 0.29932(7)
C9_10 C 0.93790(7) 0.37370(7) 0.37272(7)
H4_10 H 0.9429 0.3816 0.3931
C10_10 C 0.95392(9) 0.34338(7) 0.29477(7)
H5_10 H 0.9749 0.3523 0.2899
H6_10 H 0.9398 0.3479 0.2767
H7_10 H 0.9805 0.4205 0.3823
C12_5 C 0.95887(9) 0.24257(7) 0.30677(7)
C14_5 C 0.95832(10) 0.20740(8) 0.31068(8)
C15_10 C 0.95712(14) 0.28815(9) 0.27300(8)
H9_10 H 0.9566 0.2970 0.2524
C16_10 C 0.95836(14) 0.25554(9) 0.27662(8)
H10_5 H 0.9589 0.2422 0.2586
C17_10 C 0.88434(10) 0.34514(9) 0.31279(8)
H11_10 H 0.8704 0.3311 0.3252
H12_10 H 0.8929 0.3328 0.2948
C18_10 C 0.86514(14) 0.37261(14) 0.30014(15)
H13_10 H 0.8781 0.3846 0.2849
H14_10 H 0.8598 0.3869 0.3178
C19_10 C 0.8336(2) 0.36161(19) 0.28332(18)
H15_10 H 0.8391 0.3483 0.2649
H16_10 H 0.8213 0.3485 0.2982
C20_10 C 0.8139(2) 0.3880(3) 0.2727(3)
H17_10 H 0.8240 0.3984 0.2546
H18_10 H 0.8114 0.4032 0.2899
H19_10 H 0.7932 0.3800 0.2663
Ni3_10 Ni 0.8750 0.35450(2) 0.39550(2)
H45_5 H 0.976752 0.185984 0.345102
Ni1_11 Ni 0.39550(2) 0.6250 0.85450(2)
S1_11 S 0.49995(4) 0.62522(4) 0.93720(3)
O1_11 O 0.44248(5) 0.64197(5) 0.84803(6)
O2_11 O 0.43311(5) 0.59848(5) 0.87401(6)
O3_6 O 0.54218(6) 0.80104(5) 0.84035(5)
O4_6 O 0.54158(11) 0.81079(6) 0.78871(6)
N1_11 N 0.59189(6) 0.63502(7) 0.86289(7)
N2_11 N 0.55873(7) 0.64178(6) 0.82346(6)
C1_11 C 0.45259(7) 0.61752(7) 0.86258(7)
C2_11 C 0.58905(8) 0.64423(7) 0.83315(8)
C3_11 C 0.48739(7) 0.61164(7) 0.86532(7)
C4_11 C 0.54125(7) 0.73785(7) 0.83296(7)
H1_11 H 0.5405 0.7467 0.8535
C5_11 C 0.54244(8) 0.70553(7) 0.82928(7)
H2_11 H 0.5427 0.6923 0.8474
C6_11 C 0.50675(8) 0.62979(7) 0.84818(7)
H3_11 H 0.4969 0.6438 0.8338
C7_11 C 0.54091(8) 0.63065(7) 0.84891(7)
C8_11 C 0.54329(9) 0.69202(8) 0.79932(7)
C9_11 C 0.56210(7) 0.62630(7) 0.87272(7)
H4_11 H 0.5571 0.6184 0.8931
C10_11 C 0.54608(9) 0.65662(7) 0.79477(7)
H5_11 H 0.5251 0.6477 0.7899
H6_11 H 0.5602 0.6521 0.7767
C11_11 C 0.49696(8) 0.58450(8) 0.88608(8)
H7_11 H 0.5195 0.5795 0.8823
H8_11 H 0.4844 0.5657 0.8803
C12_6 C 0.54113(9) 0.75743(7) 0.80677(7)
C13_11 C 0.49226(9) 0.59155(10) 0.92084(9)
C14_6 C 0.54168(10) 0.79260(8) 0.81068(8)
C15_11 C 0.54288(14) 0.71185(9) 0.77300(8)
H9_11 H 0.5434 0.7030 0.7524
C16_11 C 0.54164(14) 0.74446(9) 0.77662(8)
H10_6 H 0.5411 0.7578 0.7586
C17_11 C 0.61566(10) 0.65486(9) 0.81279(8)
H11_11 H 0.6296 0.6689 0.8252
H12_11 H 0.6071 0.6672 0.7948
C18_11 C 0.63486(14) 0.62739(14) 0.80014(15)
H13_11 H 0.6219 0.6154 0.7849
H14_11 H 0.6402 0.6131 0.8178
C19_11 C 0.6664(2) 0.63839(19) 0.78332(18)
H15_11 H 0.6609 0.6517 0.7649
H16_11 H 0.6787 0.6515 0.7982
C20_11 C 0.6861(2) 0.6120(3) 0.7727(3)
H17_11 H 0.6760 0.6016 0.7546
H18_11 H 0.6886 0.5968 0.7899
H19_11 H 0.7068 0.6200 0.7663
C21_11 C 0.48132(9) 0.56770(8) 0.94685(9)
H20_11 H 0.4766 0.5459 0.9444
C22_11 C 0.49022(18) 0.6153(2) 0.97291(15)
H21_11 H 0.4914 0.6288 0.9908
C23_11 C 0.4802(2) 0.5849(2) 0.9733(2)
H22_11 H 0.4723 0.5758 0.9923
S2_11 S 0.31280(3) 0.62478(4) 0.75005(4)
O5_11 O 0.40197(6) 0.60803(5) 0.80752(5)
O6_11 O 0.37599(6) 0.65152(5) 0.81689(5)
O7_10 O 0.40965(5) 0.44896(5) 0.70782(6)
O8_10 O 0.46129(6) 0.43921(6) 0.70842(11)
N3_11 N 0.38711(7) 0.61498(7) 0.65811(6)
N4_11 N 0.42654(6) 0.60822(6) 0.69127(7)
C24_11 C 0.38742(7) 0.63248(7) 0.79741(7)
C25_11 C 0.41685(8) 0.60577(7) 0.66095(8)
C26_11 C 0.38468(7) 0.63836(7) 0.76261(7)
C27_11 C 0.41704(7) 0.51215(7) 0.70875(7)
H23_11 H 0.3965 0.5033 0.7095
C28_11 C 0.42072(7) 0.54447(7) 0.70756(8)
H24_11 H 0.4026 0.5577 0.7073
C29_11 C 0.40182(7) 0.62021(7) 0.74325(8)
H25_11 H 0.4162 0.6062 0.7531
C30_11 C 0.40109(7) 0.61935(7) 0.70909(8)
C31_11 C 0.45068(7) 0.55798(8) 0.70671(9)
C32_11 C 0.37728(7) 0.62370(7) 0.68790(7)
H26_11 H 0.3569 0.6316 0.6929
C33_11 C 0.45523(7) 0.59338(7) 0.70392(9)
H27_11 H 0.4601 0.6023 0.7249
H28_11 H 0.4733 0.5979 0.6898
C34_11 C 0.36392(8) 0.66550(8) 0.75304(8)
H29_11 H 0.3677 0.6705 0.7305
H30_11 H 0.3697 0.6843 0.7656
C35_10 C 0.44323(7) 0.49257(7) 0.70887(9)
C36_11 C 0.32916(9) 0.65845(10) 0.75774(9)
C37_10 C 0.43932(8) 0.45740(8) 0.70832(10)
C38_11 C 0.47700(8) 0.53815(9) 0.70712(14)
H31_11 H 0.4976 0.5470 0.7066
C39_11 C 0.47338(8) 0.50554(9) 0.70836(14)
H32_10 H 0.4914 0.4922 0.7089
C40_11 C 0.43721(8) 0.59514(9) 0.63434(10)
H33_11 H 0.4248 0.5811 0.6204
H34_11 H 0.4552 0.5828 0.6429
C41_11 C 0.44986(15) 0.62261(14) 0.61514(14)
H35_11 H 0.4651 0.6346 0.6281
H36_11 H 0.4322 0.6369 0.6098
C42_11 C 0.46668(18) 0.61161(19) 0.5836(2)
H37_11 H 0.4851 0.5983 0.5891
H38_11 H 0.4518 0.5985 0.5713
C43_11 C 0.4773(3) 0.6380(3) 0.5639(2)
H39_11 H 0.4954 0.6484 0.5740
H40_11 H 0.4601 0.6532 0.5614
H41_11 H 0.4837 0.6300 0.5432
C44_11 C 0.30315(9) 0.68230(8) 0.76868(9)
H42_11 H 0.3056 0.7041 0.7734
C45_11 C 0.27709(15) 0.6347(2) 0.75978(18)
H43_11 H 0.2592 0.6212 0.7586
C46_11 C 0.2767(2) 0.6651(2) 0.7698(2)
H44_11 H 0.2577 0.6742 0.7777
Ni3_11 Ni 0.6250 0.64550(2) 0.89550(2)
N5_11 N 0.36289(7) 0.59189(6) 0.86498(7)
N6_11 N 0.38502(7) 0.65811(6) 0.88711(7)
H45_6 H 0.523248 0.814016 0.845102
H46_10 H 0.404898 0.435984 0.726752
Ni1_12 Ni 0.64550(2) 0.39550(2) 0.3750
S1_12 S 0.56280(3) 0.49995(4) 0.37478(4)
O1_12 O 0.65197(6) 0.44248(5) 0.35803(5)
O2_12 O 0.62599(6) 0.43311(5) 0.40152(5)
O3_7 O 0.65965(5) 0.54218(6) 0.19896(5)
O4_7 O 0.71129(6) 0.54158(11) 0.18921(6)
N1_12 N 0.63711(7) 0.59189(6) 0.36498(7)
N2_12 N 0.67654(6) 0.55873(7) 0.35822(6)
C1_12 C 0.63742(7) 0.45259(7) 0.38248(7)
C2_12 C 0.66685(8) 0.58905(8) 0.35577(7)
C3_12 C 0.63468(7) 0.48739(7) 0.38836(7)
C4_12 C 0.66704(7) 0.54125(7) 0.26215(7)
H1_12 H 0.6465 0.5405 0.2533
C5_12 C 0.67072(7) 0.54244(8) 0.29447(7)
H2_12 H 0.6526 0.5427 0.3077
C6_12 C 0.65182(7) 0.50675(8) 0.37021(7)
H3_12 H 0.6662 0.4969 0.3562
C7_12 C 0.65109(7) 0.54091(8) 0.36935(7)
C8_12 C 0.70068(7) 0.54329(9) 0.30798(8)
C9_12 C 0.62728(7) 0.56210(7) 0.37370(7)
H4_12 H 0.6069 0.5571 0.3816
C10_12 C 0.70523(7) 0.54608(9) 0.34338(7)
H5_12 H 0.7101 0.5251 0.3523
H6_12 H 0.7233 0.5602 0.3479
C11_12 C 0.61392(8) 0.49696(8) 0.41550(8)
H7_12 H 0.6177 0.5195 0.4205
H8_12 H 0.6197 0.4844 0.4343
C12_7 C 0.69323(7) 0.54113(9) 0.24257(7)
C13_12 C 0.57916(9) 0.49226(9) 0.40845(10)
C14_7 C 0.68932(8) 0.54168(10) 0.20740(8)
C15_12 C 0.72700(8) 0.54288(14) 0.28815(9)
H9_12 H 0.7476 0.5434 0.2970
C16_12 C 0.72338(8) 0.54164(14) 0.25554(9)
H10_7 H 0.7414 0.5411 0.2422
C17_12 C 0.68721(8) 0.61566(10) 0.34514(9)
H11_12 H 0.6748 0.6296 0.3311
H12_12 H 0.7052 0.6071 0.3328
C18_12 C 0.69986(15) 0.63486(14) 0.37261(14)
H13_12 H 0.7151 0.6219 0.3846
H14_12 H 0.6822 0.6402 0.3869
C19_12 C 0.71668(18) 0.6664(2) 0.36161(19)
H15_12 H 0.7351 0.6609 0.3483
H16_12 H 0.7018 0.6787 0.3485
C20_12 C 0.7273(3) 0.6861(2) 0.3880(3)
H17_12 H 0.7454 0.6760 0.3984
H18_12 H 0.7101 0.6886 0.4032
H19_12 H 0.7337 0.7068 0.3800
C21_12 C 0.55315(9) 0.48132(9) 0.43230(8)
H20_12 H 0.5556 0.4766 0.4541
C22_12 C 0.52709(15) 0.49022(18) 0.3847(2)
H21_12 H 0.5092 0.4914 0.3712
C23_12 C 0.5267(2) 0.4802(2) 0.4151(2)
H22_12 H 0.5077 0.4723 0.4242
S2_12 S 0.74995(4) 0.31280(3) 0.37522(4)
O5_12 O 0.69248(5) 0.40197(6) 0.39197(5)
O6_12 O 0.68311(5) 0.37599(6) 0.34848(5)
O7_11 O 0.79218(6) 0.40965(5) 0.55104(5)
O8_11 O 0.79158(11) 0.46129(6) 0.56079(6)
N3_12 N 0.84189(6) 0.38711(7) 0.38502(7)
N4_12 N 0.80873(7) 0.42654(6) 0.39178(6)
C24_12 C 0.70259(7) 0.38742(7) 0.36752(7)
C25_12 C 0.83905(8) 0.41685(8) 0.39423(7)
C26_12 C 0.73739(7) 0.38468(7) 0.36164(7)
C27_12 C 0.79125(7) 0.41704(7) 0.48785(7)
H23_12 H 0.7905 0.3965 0.4967
C28_12 C 0.79244(8) 0.42072(7) 0.45553(7)
H24_12 H 0.7927 0.4026 0.4423
C29_12 C 0.75675(8) 0.40182(7) 0.37979(7)
H25_12 H 0.7469 0.4162 0.3938
C30_12 C 0.79091(8) 0.40109(7) 0.38065(7)
C31_12 C 0.79329(9) 0.45068(7) 0.44202(8)
C32_12 C 0.81210(7) 0.37728(7) 0.37630(7)
H26_12 H 0.8071 0.3569 0.3684
C33_12 C 0.79608(9) 0.45523(7) 0.40662(7)
H27_12 H 0.7751 0.4601 0.3977
H28_12 H 0.8102 0.4733 0.4021
C34_12 C 0.74696(8) 0.36392(8) 0.33450(8)
H29_12 H 0.7695 0.3677 0.3295
H30_12 H 0.7344 0.3697 0.3157
C35_11 C 0.79113(9) 0.44323(7) 0.50743(7)
C36_12 C 0.74226(9) 0.32916(9) 0.34155(10)
C37_11 C 0.79168(10) 0.43932(8) 0.54260(8)
C38_12 C 0.79288(14) 0.47700(8) 0.46185(9)
H31_12 H 0.7934 0.4976 0.4530
C39_12 C 0.79164(14) 0.47338(8) 0.49446(9)
H32_11 H 0.7911 0.4914 0.5078
C40_12 C 0.86566(10) 0.43721(8) 0.40486(9)
H33_12 H 0.8796 0.4248 0.4189
H34_12 H 0.8571 0.4552 0.4172
C41_12 C 0.88486(14) 0.44986(15) 0.37739(14)
H35_12 H 0.8719 0.4651 0.3654
H36_12 H 0.8902 0.4322 0.3631
C42_12 C 0.9164(2) 0.46668(18) 0.38839(19)
H37_12 H 0.9109 0.4851 0.4017
H38_12 H 0.9287 0.4518 0.4015
C43_12 C 0.9361(2) 0.4773(3) 0.3620(3)
H39_12 H 0.9260 0.4954 0.3516
H40_12 H 0.9386 0.4601 0.3468
H41_12 H 0.9568 0.4837 0.3700
C44_12 C 0.73132(9) 0.30315(9) 0.31770(8)
H42_12 H 0.7266 0.3056 0.2959
C45_12 C 0.74022(18) 0.27709(15) 0.3653(2)
H43_12 H 0.7414 0.2592 0.3788
C46_12 C 0.7302(2) 0.2767(2) 0.3349(2)
H44_12 H 0.7223 0.2577 0.3258
Ni3_12 Ni 0.60450(2) 0.6250 0.35450(2)
N5_12 N 0.63502(7) 0.36289(7) 0.40811(6)
N6_12 N 0.61289(7) 0.38502(7) 0.34189(6)
H45_7 H 0.654898 0.523248 0.185984
H46_11 H 0.773248 0.404898 0.564016
O7_12 O 0.04218(6) 0.69896(5) 0.15965(5)
O8_12 O 0.04158(11) 0.68921(6) 0.21129(6)
N3_13 N 0.09189(6) 0.86498(7) 0.13711(7)
N4_13 N 0.05873(7) 0.85822(6) 0.17654(6)
C25_13 C 0.08905(8) 0.85577(7) 0.16685(8)
C27_13 C 0.04125(7) 0.76215(7) 0.16704(7)
H23_13 H 0.0405 0.7533 0.1465
C28_13 C 0.04244(8) 0.79447(7) 0.17072(7)
H24_13 H 0.0427 0.8077 0.1526
C29_13 C 0.00675(8) 0.87021(7) 0.15182(7)
C30_13 C 0.04091(8) 0.86935(7) 0.15109(7)
C31_13 C 0.04329(9) 0.80798(8) 0.20068(7)
C32_13 C 0.06210(7) 0.87370(7) 0.12728(7)
H26_13 H 0.0571 0.8816 0.1069
C33_13 C 0.04608(9) 0.84338(7) 0.20523(7)
H27_13 H 0.0251 0.8523 0.2101
H28_13 H 0.0602 0.8479 0.2233
H29_13 H 0.0195 0.9205 0.1177
C35_12 C 0.04113(9) 0.74257(7) 0.19323(7)
C37_12 C 0.04168(10) 0.70740(8) 0.18932(8)
C38_13 C 0.04288(14) 0.78815(9) 0.22700(8)
H31_13 H 0.0434 0.7970 0.2476
C39_13 C 0.04164(14) 0.75554(9) 0.22338(8)
H32_12 H 0.0411 0.7422 0.2414
C40_13 C 0.11566(10) 0.84514(9) 0.18721(8)
H33_13 H 0.1296 0.8311 0.1748
H34_13 H 0.1071 0.8328 0.2052
C41_13 C 0.13486(14) 0.87261(14) 0.19986(15)
H35_13 H 0.1219 0.8846 0.2151
H36_13 H 0.1402 0.8869 0.1822
C42_13 C 0.1664(2) 0.86161(19) 0.21668(18)
H37_13 H 0.1609 0.8483 0.2351
H38_13 H 0.1787 0.8485 0.2018
C43_13 C 0.1861(2) 0.8880(3) 0.2273(3)
H39_13 H 0.1760 0.8984 0.2454
H40_13 H 0.1886 0.9032 0.2101
H41_13 H 0.2068 0.8800 0.2337
Ni2_8 Ni 0.1250 0.85450(2) 0.10450(2)
H46_12 H 0.0232485 0.685984 0.154898
Ni1_13 Ni 0.89550(2) 0.8750 0.14550(2)
S1_13 S 0.81280(3) 0.87522(4) 0.24995(4)
O1_13 O 0.90197(6) 0.89197(5) 0.19248(5)
O2_13 O 0.87599(6) 0.84848(5) 0.18311(5)
N1_13 N 0.88711(7) 0.88502(7) 0.34189(6)
N2_13 N 0.92654(6) 0.89178(6) 0.30873(7)
C1_13 C 0.88742(7) 0.86752(7) 0.20259(7)
C2_13 C 0.91685(8) 0.89423(7) 0.33905(8)
C3_13 C 0.88468(7) 0.86164(7) 0.23739(7)
C4_13 C 0.91704(7) 0.98785(7) 0.29125(7)
H1_13 H 0.8965 0.9967 0.2905
C5_13 C 0.92072(7) 0.95553(7) 0.29244(8)
H2_13 H 0.9026 0.9423 0.2927
C6_13 C 0.90182(7) 0.87979(7) 0.25675(8)
H3_13 H 0.9162 0.8938 0.2469
C7_13 C 0.90109(7) 0.88065(7) 0.29091(8)
C8_13 C 0.95068(7) 0.94202(8) 0.29329(9)
C9_13 C 0.87728(7) 0.87630(7) 0.31210(7)
H4_13 H 0.8569 0.8684 0.3071
C10_13 C 0.95523(7) 0.90662(7) 0.29608(9)
H5_13 H 0.9601 0.8977 0.2751
H6_13 H 0.9733 0.9021 0.3102
C11_13 C 0.86392(8) 0.83450(8) 0.24696(8)
H7_13 H 0.8677 0.8295 0.2695
H8_13 H 0.8697 0.8157 0.2344
C13_13 C 0.82916(9) 0.84155(10) 0.24226(9)
C15_13 C 0.97700(8) 0.96185(9) 0.29288(14)
H9_13 H 0.9976 0.9530 0.2934
C16_13 C 0.97338(8) 0.99446(9) 0.29164(14)
C17_13 C 0.93721(8) 0.90486(9) 0.36566(10)
H11_13 H 0.9248 0.9189 0.3796
H12_13 H 0.9552 0.9172 0.3571
C18_13 C 0.94986(15) 0.87739(14) 0.38486(14)
H13_13 H 0.9651 0.8654 0.3719
H14_13 H 0.9322 0.8631 0.3902
C19_13 C 0.96668(18) 0.88839(19) 0.4164(2)
H15_13 H 0.9851 0.9017 0.4109
H16_13 H 0.9518 0.9015 0.4287
C20_13 C 0.9773(3) 0.8620(3) 0.4361(2)
H17_13 H 0.9954 0.8516 0.4260
H18_13 H 0.9601 0.8468 0.4386
H19_13 H 0.9837 0.8700 0.4568
C21_13 C 0.80315(9) 0.81770(8) 0.23132(9)
H20_13 H 0.8056 0.7959 0.2266
C22_13 C 0.77709(15) 0.8653(2) 0.24022(18)
H21_13 H 0.7592 0.8788 0.2414
C23_13 C 0.7767(2) 0.8349(2) 0.2302(2)
H22_13 H 0.7577 0.8258 0.2223
S2_13 S 0.99995(4) 0.87478(4) 0.06280(3)
O5_13 O 0.94248(5) 0.85803(5) 0.15197(6)
O6_13 O 0.93311(5) 0.90152(5) 0.12599(6)
C24_13 C 0.95259(7) 0.88248(7) 0.13742(7)
C26_13 C 0.98739(7) 0.88836(7) 0.13468(7)
H25_13 H 0.9969 0.8562 0.1662
C34_13 C 0.99696(8) 0.91550(8) 0.11392(8)
H30_13 H 0.9844 0.9343 0.1197
C36_13 C 0.99226(9) 0.90845(10) 0.07916(9)
C44_13 C 0.98132(9) 0.93230(8) 0.05315(9)
H42_13 H 0.9766 0.9541 0.0556
C45_13 C 0.99022(18) 0.8847(2) 0.02709(15)
H43_13 H 0.9914 0.8712 0.0092
C46_13 C 0.9802(2) 0.9151(2) 0.0267(2)
H44_13 H 0.9723 0.9242 0.0077
Ni3_13 Ni 0.85450(2) 0.89550(2) 0.3750
N5_13 N 0.88502(7) 0.84189(6) 0.11289(7)
N6_13 N 0.86289(7) 0.90811(6) 0.13502(7)
Ni1_14 Ni 0.1250 0.64550(2) 0.60450(2)
S1_14 S 0.12522(4) 0.56280(3) 0.50005(4)
O1_14 O 0.14197(5) 0.65197(6) 0.55752(5)
O2_14 O 0.09848(5) 0.62599(6) 0.56689(5)
O3_8 O 0.30104(5) 0.65965(5) 0.45782(6)
O4_8 O 0.31079(6) 0.71129(6) 0.45842(11)
N1_14 N 0.13502(7) 0.63711(7) 0.40811(6)
N2_14 N 0.14178(6) 0.67654(6) 0.44127(7)
C1_14 C 0.11752(7) 0.63742(7) 0.54741(7)
C2_14 C 0.14423(7) 0.66685(8) 0.41095(8)
C3_14 C 0.11164(7) 0.63468(7) 0.51261(7)
C4_14 C 0.23785(7) 0.66704(7) 0.45875(7)
H1_14 H 0.2467 0.6465 0.4595
C5_14 C 0.20553(7) 0.67072(7) 0.45756(8)
H2_14 H 0.1923 0.6526 0.4573
C6_14 C 0.12979(7) 0.65182(7) 0.49325(8)
H3_14 H 0.1438 0.6662 0.5031
C7_14 C 0.13065(7) 0.65109(7) 0.45909(8)
C8_14 C 0.19202(8) 0.70068(7) 0.45671(9)
C9_14 C 0.12630(7) 0.62728(7) 0.43790(7)
H4_14 H 0.1184 0.6069 0.4429
C10_14 C 0.15662(7) 0.70523(7) 0.45392(9)
H5_14 H 0.1477 0.7101 0.4749
H6_14 H 0.1521 0.7233 0.4398
C11_14 C 0.08450(8) 0.61392(8) 0.50304(8)
H7_14 H 0.0795 0.6177 0.4805
H8_14 H 0.0657 0.6197 0.5156
C12_8 C 0.25743(7) 0.69323(7) 0.45887(9)
C13_14 C 0.09155(10) 0.57916(9) 0.50774(9)
C14_8 C 0.29260(8) 0.68932(8) 0.45832(10)
C15_14 C 0.21185(9) 0.72700(8) 0.45712(14)
H9_14 H 0.2030 0.7476 0.4566
C16_14 C 0.24446(9) 0.72338(8) 0.45836(14)
H10_8 H 0.2578 0.7414 0.4589
C17_14 C 0.15486(9) 0.68721(8) 0.38434(10)
H11_14 H 0.1689 0.6748 0.3704
H12_14 H 0.1672 0.7052 0.3929
C18_14 C 0.12739(14) 0.69986(15) 0.36514(14)
H13_14 H 0.1154 0.7151 0.3781
H14_14 H 0.1131 0.6822 0.3598
C19_14 C 0.13839(19) 0.71668(18) 0.3336(2)
H15_14 H 0.1517 0.7351 0.3391
H16_14 H 0.1515 0.7018 0.3213
C20_14 C 0.1120(3) 0.7273(3) 0.3139(2)
H17_14 H 0.1016 0.7454 0.3240
H18_14 H 0.0968 0.7101 0.3114
H19_14 H 0.1200 0.7337 0.2932
C21_14 C 0.06770(8) 0.55315(9) 0.51868(9)
H20_14 H 0.0459 0.5556 0.5234
C22_14 C 0.1153(2) 0.52709(15) 0.50978(18)
H21_14 H 0.1288 0.5092 0.5086
C23_14 C 0.0849(2) 0.5267(2) 0.5198(2)
H22_14 H 0.0758 0.5077 0.5277
S2_14 S 0.12478(4) 0.74995(4) 0.68720(3)
O5_14 O 0.10803(5) 0.69248(5) 0.59803(6)
O6_14 O 0.15152(5) 0.68311(5) 0.62401(6)
N3_14 N 0.11498(7) 0.84189(6) 0.61289(7)
N4_14 N 0.10822(6) 0.80873(7) 0.57346(6)
C24_14 C 0.13248(7) 0.70259(7) 0.61258(7)
C25_14 C 0.10577(7) 0.83905(8) 0.58315(8)
C26_14 C 0.13836(7) 0.73739(7) 0.61532(7)
C27_14 C 0.01215(7) 0.79125(7) 0.58296(7)
H23_14 H 0.0033 0.7905 0.6035
C28_14 C 0.04447(7) 0.79244(8) 0.57928(7)
H24_14 H 0.0577 0.7927 0.5974
C29_14 C 0.12021(7) 0.75675(8) 0.59818(7)
H25_14 H 0.1062 0.7469 0.5838
C30_14 C 0.11935(7) 0.79091(8) 0.59891(7)
C31_14 C 0.05798(8) 0.79329(9) 0.54932(7)
C32_14 C 0.12370(7) 0.81210(7) 0.62272(7)
H26_14 H 0.1316 0.8071 0.6431
C33_14 C 0.09338(7) 0.79608(9) 0.54477(7)
H27_14 H 0.1023 0.7751 0.5399
H28_14 H 0.0979 0.8102 0.5267
C34_14 C 0.16550(8) 0.74696(8) 0.63608(8)
H29_14 H 0.1705 0.7695 0.6323
H30_14 H 0.1843 0.7344 0.6303
C36_14 C 0.15845(10) 0.74226(9) 0.67084(9)
C38_14 C 0.03815(9) 0.79288(14) 0.52300(8)
H31_14 H 0.0470 0.7934 0.5024
C39_14 C 0.00554(9) 0.79164(14) 0.52662(8)
C40_14 C 0.09514(9) 0.86566(10) 0.56279(8)
H33_14 H 0.0811 0.8796 0.5752
H34_14 H 0.0828 0.8571 0.5448
C41_14 C 0.12261(14) 0.88486(14) 0.55014(15)
H35_14 H 0.1346 0.8719 0.5349
H36_14 H 0.1369 0.8902 0.5678
C42_14 C 0.11161(19) 0.9164(2) 0.53332(18)
H37_14 H 0.0983 0.9109 0.5149
H38_14 H 0.0985 0.9287 0.5482
C43_14 C 0.1380(3) 0.9361(2) 0.5227(3)
H39_14 H 0.1484 0.9260 0.5046
H40_14 H 0.1532 0.9386 0.5399
H41_14 H 0.1300 0.9568 0.5163
C44_14 C 0.18230(8) 0.73132(9) 0.69685(9)
H42_14 H 0.2041 0.7266 0.6944
C45_14 C 0.1347(2) 0.74022(18) 0.72291(15)
H43_14 H 0.1212 0.7414 0.7408
C46_14 C 0.1651(2) 0.7302(2) 0.7233(2)
H44_14 H 0.1742 0.7223 0.7423
Ni2_9 Ni 0.10450(2) 0.8750 0.64550(2)
Ni3_14 Ni 0.14550(2) 0.60450(2) 0.3750
N5_14 N 0.09189(6) 0.63502(7) 0.63711(7)
N6_14 N 0.15811(6) 0.61289(7) 0.61498(7)
H45_8 H 0.314016 0.654898 0.476752
Ni1_15 Ni 0.10450(2) 0.6250 0.14550(2)
S1_15 S 0.00005(4) 0.62522(4) 0.06280(3)
O1_15 O 0.05752(5) 0.64197(5) 0.15197(6)
O2_15 O 0.06689(5) 0.59848(5) 0.12599(6)
C1_15 C 0.04741(7) 0.61752(7) 0.13742(7)
C3_15 C 0.01261(7) 0.61164(7) 0.13468(7)
H3_15 H 0.0031 0.6438 0.1662
C11_15 C 0.00304(8) 0.58450(8) 0.11392(8)
H8_15 H 0.0156 0.5657 0.1197
C13_15 C 0.00774(9) 0.59155(10) 0.07916(9)
C21_15 C 0.01868(9) 0.56770(8) 0.05315(9)
H20_15 H 0.0234 0.5459 0.0556
C22_15 C 0.00978(18) 0.6153(2) 0.02709(15)
H21_15 H 0.0086 0.6288 0.0092
C23_15 C 0.0198(2) 0.5849(2) 0.0267(2)
H22_15 H 0.0277 0.5758 0.0077
S2_15 S 0.18720(3) 0.62478(4) 0.24995(4)
O5_15 O 0.09803(6) 0.60803(5) 0.19248(5)
O6_15 O 0.12401(6) 0.65152(5) 0.18311(5)
O7_13 O 0.09035(5) 0.44896(5) 0.29218(6)
O8_13 O 0.03871(6) 0.43921(6) 0.29158(11)
N3_15 N 0.11289(7) 0.61498(7) 0.34189(6)
N4_15 N 0.07346(6) 0.60822(6) 0.30873(7)
C24_15 C 0.11258(7) 0.63248(7) 0.20259(7)
C25_15 C 0.08315(8) 0.60577(7) 0.33905(8)
C26_15 C 0.11532(7) 0.63836(7) 0.23739(7)
C27_15 C 0.08296(7) 0.51215(7) 0.29125(7)
H23_15 H 0.1035 0.5033 0.2905
C28_15 C 0.07928(7) 0.54447(7) 0.29244(8)
H24_15 H 0.0974 0.5577 0.2927
C29_15 C 0.09818(7) 0.62021(7) 0.25675(8)
H25_15 H 0.0838 0.6062 0.2469
C30_15 C 0.09891(7) 0.61935(7) 0.29091(8)
C31_15 C 0.04932(7) 0.55798(8) 0.29329(9)
C32_15 C 0.12272(7) 0.62370(7) 0.31210(7)
H26_15 H 0.1431 0.6316 0.3071
C33_15 C 0.04477(7) 0.59338(7) 0.29608(9)
H27_15 H 0.0399 0.6023 0.2751
H28_15 H 0.0267 0.5979 0.3102
C34_15 C 0.13608(8) 0.66550(8) 0.24696(8)
H29_15 H 0.1323 0.6705 0.2695
H30_15 H 0.1303 0.6843 0.2344
C35_13 C 0.05677(7) 0.49257(7) 0.29113(9)
C36_15 C 0.17084(9) 0.65845(10) 0.24226(9)
C37_13 C 0.06068(8) 0.45740(8) 0.29168(10)
C38_15 C 0.02300(8) 0.53815(9) 0.29288(14)
H31_15 H 0.0024 0.5470 0.2934
C39_15 C 0.02662(8) 0.50554(9) 0.29164(14)
H32_13 H 0.0086 0.4922 0.2911
C40_15 C 0.06279(8) 0.59514(9) 0.36566(10)
H33_15 H 0.0752 0.5811 0.3796
H34_15 H 0.0448 0.5828 0.3571
C41_15 C 0.05014(15) 0.62261(14) 0.38486(14)
H35_15 H 0.0349 0.6346 0.3719
H36_15 H 0.0678 0.6369 0.3902
C42_15 C 0.03332(18) 0.61161(19) 0.4164(2)
H37_15 H 0.0149 0.5983 0.4109
H38_15 H 0.0482 0.5985 0.4287
C43_15 C 0.0227(3) 0.6380(3) 0.4361(2)
H39_15 H 0.0046 0.6484 0.4260
H40_15 H 0.0399 0.6532 0.4386
H41_15 H 0.0163 0.6300 0.4568
C44_15 C 0.19685(9) 0.68230(8) 0.23132(9)
H42_15 H 0.1944 0.7041 0.2266
C45_15 C 0.22291(15) 0.6347(2) 0.24022(18)
H43_15 H 0.2408 0.6212 0.2414
C46_15 C 0.2233(2) 0.6651(2) 0.2302(2)
H44_15 H 0.2423 0.6742 0.2223
N5_15 N 0.13711(7) 0.59189(6) 0.13502(7)
N6_15 N 0.11498(7) 0.65811(6) 0.11289(7)
H46_13 H 0.0951017 0.435984 0.273248
O3_9 O 0.95782(6) 0.80104(5) 0.15965(5)
O4_9 O 0.95842(11) 0.81079(6) 0.21129(6)
N1_15 N 0.90811(6) 0.63502(7) 0.13711(7)
N2_15 N 0.94127(7) 0.64178(6) 0.17654(6)
C2_15 C 0.91095(8) 0.64423(7) 0.16685(8)
C4_15 C 0.95875(7) 0.73785(7) 0.16704(7)
H1_15 H 0.9595 0.7467 0.1465
C5_15 C 0.95756(8) 0.70553(7) 0.17072(7)
H2_15 H 0.9573 0.6923 0.1526
C6_15 C 0.99325(8) 0.62979(7) 0.15182(7)
C7_15 C 0.95909(8) 0.63065(7) 0.15109(7)
C8_15 C 0.95671(9) 0.69202(8) 0.20068(7)
C9_15 C 0.93790(7) 0.62630(7) 0.12728(7)
H4_15 H 0.9429 0.6184 0.1069
C10_15 C 0.95392(9) 0.65662(7) 0.20523(7)
H5_15 H 0.9749 0.6477 0.2101
H6_15 H 0.9398 0.6521 0.2233
H7_15 H 0.9805 0.5795 0.1177
C12_9 C 0.95887(9) 0.75743(7) 0.19323(7)
C14_9 C 0.95832(10) 0.79260(8) 0.18932(8)
C15_15 C 0.95712(14) 0.71185(9) 0.22700(8)
H9_15 H 0.9566 0.7030 0.2476
C16_15 C 0.95836(14) 0.74446(9) 0.22338(8)
H10_9 H 0.9589 0.7578 0.2414
C17_15 C 0.88434(10) 0.65486(9) 0.18721(8)
H11_15 H 0.8704 0.6689 0.1748
H12_15 H 0.8929 0.6672 0.2052
C18_15 C 0.86514(14) 0.62739(14) 0.19986(15)
H13_15 H 0.8781 0.6154 0.2151
H14_15 H 0.8598 0.6131 0.1822
C19_15 C 0.8336(2) 0.63839(19) 0.21668(18)
H15_15 H 0.8391 0.6517 0.2351
H16_15 H 0.8213 0.6515 0.2018
C20_15 C 0.8139(2) 0.6120(3) 0.2273(3)
H17_15 H 0.8240 0.6016 0.2454
H18_15 H 0.8114 0.5968 0.2101
H19_15 H 0.7932 0.6200 0.2337
H45_9 H 0.976752 0.814016 0.154898
Ni1_16 Ni 0.85450(2) 0.60450(2) 0.8750
S1_16 S 0.75005(4) 0.68720(3) 0.87522(4)
O1_16 O 0.80752(5) 0.59803(6) 0.89197(5)
O2_16 O 0.81689(5) 0.62401(6) 0.84848(5)
N1_16 N 0.65811(6) 0.61289(7) 0.88502(7)
N2_16 N 0.69127(7) 0.57346(6) 0.89178(6)
C1_16 C 0.79741(7) 0.61258(7) 0.86752(7)
C2_16 C 0.66095(8) 0.58315(8) 0.89423(7)
C3_16 C 0.76261(7) 0.61532(7) 0.86164(7)
C4_16 C 0.70875(7) 0.58296(7) 0.98785(7)
H1_16 H 0.7095 0.6035 0.9967
C5_16 C 0.70756(8) 0.57928(7) 0.95553(7)
H2_16 H 0.7073 0.5974 0.9423
C6_16 C 0.74325(8) 0.59818(7) 0.87979(7)
H3_16 H 0.7531 0.5838 0.8938
C7_16 C 0.70909(8) 0.59891(7) 0.88065(7)
C8_16 C 0.70671(9) 0.54932(7) 0.94202(8)
C9_16 C 0.68790(7) 0.62272(7) 0.87630(7)
H4_16 H 0.6929 0.6431 0.8684
C10_16 C 0.70392(9) 0.54477(7) 0.90662(7)
H5_16 H 0.7249 0.5399 0.8977
H6_16 H 0.6898 0.5267 0.9021
C11_16 C 0.75304(8) 0.63608(8) 0.83450(8)
H7_16 H 0.7305 0.6323 0.8295
H8_16 H 0.7656 0.6303 0.8157
C13_16 C 0.75774(9) 0.67084(9) 0.84155(10)
C15_16 C 0.70712(14) 0.52300(8) 0.96185(9)
H9_16 H 0.7066 0.5024 0.9530
C16_16 C 0.70836(14) 0.52662(8) 0.99446(9)
C17_16 C 0.63434(10) 0.56279(8) 0.90486(9)
H11_16 H 0.6204 0.5752 0.9189
H12_16 H 0.6429 0.5448 0.9172
C18_16 C 0.61514(14) 0.55014(15) 0.87739(14)
H13_16 H 0.6281 0.5349 0.8654
H14_16 H 0.6098 0.5678 0.8631
C19_16 C 0.5836(2) 0.53332(18) 0.88839(19)
H15_16 H 0.5891 0.5149 0.9017
H16_16 H 0.5713 0.5482 0.9015
C20_16 C 0.5639(2) 0.5227(3) 0.8620(3)
H17_16 H 0.5740 0.5046 0.8516
H18_16 H 0.5614 0.5399 0.8468
H19_16 H 0.5432 0.5163 0.8700
C21_16 C 0.76868(9) 0.69685(9) 0.81770(8)
H20_16 H 0.7734 0.6944 0.7959
C22_16 C 0.75978(18) 0.72291(15) 0.8653(2)
H21_16 H 0.7586 0.7408 0.8788
C23_16 C 0.7698(2) 0.7233(2) 0.8349(2)
H22_16 H 0.7777 0.7423 0.8258
S2_16 S 0.93720(3) 0.50005(4) 0.87478(4)
O5_16 O 0.84803(6) 0.55752(5) 0.85803(5)
O6_16 O 0.87401(6) 0.56689(5) 0.90152(5)
O7_14 O 0.84035(5) 0.45782(6) 0.69896(5)
O8_14 O 0.78871(6) 0.45842(11) 0.68921(6)
N3_16 N 0.86289(7) 0.40811(6) 0.86498(7)
N4_16 N 0.82346(6) 0.44127(7) 0.85822(6)
C24_16 C 0.86258(7) 0.54741(7) 0.88248(7)
C25_16 C 0.83315(8) 0.41095(8) 0.85577(7)
C26_16 C 0.86532(7) 0.51261(7) 0.88836(7)
C27_16 C 0.83296(7) 0.45875(7) 0.76215(7)
H23_16 H 0.8535 0.4595 0.7533
C28_16 C 0.82928(7) 0.45756(8) 0.79447(7)
H24_16 H 0.8474 0.4573 0.8077
C29_16 C 0.84818(7) 0.49325(8) 0.87021(7)
H25_16 H 0.8338 0.5031 0.8562
C30_16 C 0.84891(7) 0.45909(8) 0.86935(7)
C31_16 C 0.79932(7) 0.45671(9) 0.80798(8)
C32_16 C 0.87272(7) 0.43790(7) 0.87370(7)
H26_16 H 0.8931 0.4429 0.8816
C33_16 C 0.79477(7) 0.45392(9) 0.84338(7)
H27_16 H 0.7899 0.4749 0.8523
H28_16 H 0.7767 0.4398 0.8479
C34_16 C 0.88608(8) 0.50304(8) 0.91550(8)
H29_16 H 0.8823 0.4805 0.9205
H30_16 H 0.8803 0.5156 0.9343
C35_14 C 0.80677(7) 0.45887(9) 0.74257(7)
C36_16 C 0.92084(9) 0.50774(9) 0.90845(10)
C37_14 C 0.81068(8) 0.45832(10) 0.70740(8)
C38_16 C 0.77300(8) 0.45712(14) 0.78815(9)
H31_16 H 0.7524 0.4566 0.7970
C39_16 C 0.77662(8) 0.45836(14) 0.75554(9)
H32_14 H 0.7586 0.4589 0.7422
C40_16 C 0.81279(8) 0.38434(10) 0.84514(9)
H33_16 H 0.8252 0.3704 0.8311
H34_16 H 0.7948 0.3929 0.8328
C41_16 C 0.80014(15) 0.36514(14) 0.87261(14)
H35_16 H 0.7849 0.3781 0.8846
H36_16 H 0.8178 0.3598 0.8869
C42_16 C 0.78332(18) 0.3336(2) 0.86161(19)
H37_16 H 0.7649 0.3391 0.8483
H38_16 H 0.7982 0.3213 0.8485
C43_16 C 0.7727(3) 0.3139(2) 0.8880(3)
H39_16 H 0.7546 0.3240 0.8984
H40_16 H 0.7899 0.3114 0.9032
H41_16 H 0.7663 0.2932 0.8800
C44_16 C 0.94685(9) 0.51868(9) 0.93230(8)
H42_16 H 0.9444 0.5234 0.9541
C45_16 C 0.97291(15) 0.50978(18) 0.8847(2)
H43_16 H 0.9908 0.5086 0.8712
C46_16 C 0.9733(2) 0.5198(2) 0.9151(2)
H44_16 H 0.9923 0.5277 0.9242
N5_16 N 0.88711(7) 0.61498(7) 0.84189(6)
N6_16 N 0.86498(7) 0.63711(7) 0.90811(6)
H46_14 H 0.845102 0.476752 0.685984
Ni1_17 Ni 0.8750 0.85450(2) 0.60450(2)
S1_17 S 0.87522(4) 0.75005(4) 0.68720(3)
O1_17 O 0.89197(5) 0.80752(5) 0.59803(6)
O2_17 O 0.84848(5) 0.81689(5) 0.62401(6)
N1_17 N 0.88502(7) 0.65811(6) 0.61289(7)
N2_17 N 0.89178(6) 0.69127(7) 0.57346(6)
C1_17 C 0.86752(7) 0.79741(7) 0.61258(7)
C2_17 C 0.89423(7) 0.66095(8) 0.58315(8)
C3_17 C 0.86164(7) 0.76261(7) 0.61532(7)
C4_17 C 0.98785(7) 0.70875(7) 0.58296(7)
H1_17 H 0.9967 0.7095 0.6035
C5_17 C 0.95553(7) 0.70756(8) 0.57928(7)
H2_17 H 0.9423 0.7073 0.5974
C6_17 C 0.87979(7) 0.74325(8) 0.59818(7)
H3_17 H 0.8938 0.7531 0.5838
C7_17 C 0.88065(7) 0.70909(8) 0.59891(7)
C8_17 C 0.94202(8) 0.70671(9) 0.54932(7)
C9_17 C 0.87630(7) 0.68790(7) 0.62272(7)
H4_17 H 0.8684 0.6929 0.6431
C10_17 C 0.90662(7) 0.70392(9) 0.54477(7)
H5_17 H 0.8977 0.7249 0.5399
H6_17 H 0.9021 0.6898 0.5267
C11_17 C 0.83450(8) 0.75304(8) 0.63608(8)
H7_17 H 0.8295 0.7305 0.6323
H8_17 H 0.8157 0.7656 0.6303
C13_17 C 0.84155(10) 0.75774(9) 0.67084(9)
C15_17 C 0.96185(9) 0.70712(14) 0.52300(8)
H9_17 H 0.9530 0.7066 0.5024
C16_17 C 0.99446(9) 0.70836(14) 0.52662(8)
C17_17 C 0.90486(9) 0.63434(10) 0.56279(8)
H11_17 H 0.9189 0.6204 0.5752
H12_17 H 0.9172 0.6429 0.5448
C18_17 C 0.87739(14) 0.61514(14) 0.55014(15)
H13_17 H 0.8654 0.6281 0.5349
H14_17 H 0.8631 0.6098 0.5678
C19_17 C 0.88839(19) 0.5836(2) 0.53332(18)
H15_17 H 0.9017 0.5891 0.5149
H16_17 H 0.9015 0.5713 0.5482
C20_17 C 0.8620(3) 0.5639(2) 0.5227(3)
H17_17 H 0.8516 0.5740 0.5046
H18_17 H 0.8468 0.5614 0.5399
H19_17 H 0.8700 0.5432 0.5163
C21_17 C 0.81770(8) 0.76868(9) 0.69685(9)
H20_17 H 0.7959 0.7734 0.6944
C22_17 C 0.8653(2) 0.75978(18) 0.72291(15)
H21_17 H 0.8788 0.7586 0.7408
C23_17 C 0.8349(2) 0.7698(2) 0.7233(2)
H22_17 H 0.8258 0.7777 0.7423
S2_17 S 0.87478(4) 0.93720(3) 0.50005(4)
O5_17 O 0.85803(5) 0.84803(6) 0.55752(5)
O6_17 O 0.90152(5) 0.87401(6) 0.56689(5)
O7_15 O 0.69896(5) 0.84035(5) 0.45782(6)
O8_15 O 0.68921(6) 0.78871(6) 0.45842(11)
N3_17 N 0.86498(7) 0.86289(7) 0.40811(6)
N4_17 N 0.85822(6) 0.82346(6) 0.44127(7)
C24_17 C 0.88248(7) 0.86258(7) 0.54741(7)
C25_17 C 0.85577(7) 0.83315(8) 0.41095(8)
C26_17 C 0.88836(7) 0.86532(7) 0.51261(7)
C27_17 C 0.76215(7) 0.83296(7) 0.45875(7)
H23_17 H 0.7533 0.8535 0.4595
C28_17 C 0.79447(7) 0.82928(7) 0.45756(8)
H24_17 H 0.8077 0.8474 0.4573
C29_17 C 0.87021(7) 0.84818(7) 0.49325(8)
H25_17 H 0.8562 0.8338 0.5031
C30_17 C 0.86935(7) 0.84891(7) 0.45909(8)
C31_17 C 0.80798(8) 0.79932(7) 0.45671(9)
C32_17 C 0.87370(7) 0.87272(7) 0.43790(7)
H26_17 H 0.8816 0.8931 0.4429
C33_17 C 0.84338(7) 0.79477(7) 0.45392(9)
H27_17 H 0.8523 0.7899 0.4749
H28_17 H 0.8479 0.7767 0.4398
C34_17 C 0.91550(8) 0.88608(8) 0.50304(8)
H29_17 H 0.9205 0.8823 0.4805
H30_17 H 0.9343 0.8803 0.5156
C35_15 C 0.74257(7) 0.80677(7) 0.45887(9)
C36_17 C 0.90845(10) 0.92084(9) 0.50774(9)
C37_15 C 0.70740(8) 0.81068(8) 0.45832(10)
C38_17 C 0.78815(9) 0.77300(8) 0.45712(14)
H31_17 H 0.7970 0.7524 0.4566
C39_17 C 0.75554(9) 0.77662(8) 0.45836(14)
H32_15 H 0.7422 0.7586 0.4589
C40_17 C 0.84514(9) 0.81279(8) 0.38434(10)
H33_17 H 0.8311 0.8252 0.3704
H34_17 H 0.8328 0.7948 0.3929
C41_17 C 0.87261(14) 0.80014(15) 0.36514(14)
H35_17 H 0.8846 0.7849 0.3781
H36_17 H 0.8869 0.8178 0.3598
C42_17 C 0.86161(19) 0.78332(18) 0.3336(2)
H37_17 H 0.8483 0.7649 0.3391
H38_17 H 0.8485 0.7982 0.3213
C43_17 C 0.8880(3) 0.7727(3) 0.3139(2)
H39_17 H 0.8984 0.7546 0.3240
H40_17 H 0.9032 0.7899 0.3114
H41_17 H 0.8800 0.7663 0.2932
C44_17 C 0.93230(8) 0.94685(9) 0.51868(9)
H42_17 H 0.9541 0.9444 0.5234
C45_17 C 0.8847(2) 0.97291(15) 0.50978(18)
H43_17 H 0.8712 0.9908 0.5086
C46_17 C 0.9151(2) 0.9733(2) 0.5198(2)
H44_17 H 0.9242 0.9923 0.5277
Ni3_15 Ni 0.89550(2) 0.6250 0.64550(2)
N5_17 N 0.84189(6) 0.88711(7) 0.61498(7)
N6_17 N 0.90811(6) 0.86498(7) 0.63711(7)
H46_15 H 0.685984 0.845102 0.476752
Ni1_18 Ni 0.6250 0.14550(2) 0.10450(2)
S1_18 S 0.62478(4) 0.24995(4) 0.18720(3)
O1_18 O 0.60803(5) 0.19248(5) 0.09803(6)
O2_18 O 0.65152(5) 0.18311(5) 0.12401(6)
O3_10 O 0.44896(5) 0.29218(6) 0.09035(5)
O4_10 O 0.43921(6) 0.29158(11) 0.03871(6)
N1_18 N 0.61498(7) 0.34189(6) 0.11289(7)
N2_18 N 0.60822(6) 0.30873(7) 0.07346(6)
C1_18 C 0.63248(7) 0.20259(7) 0.11258(7)
C2_18 C 0.60577(7) 0.33905(8) 0.08315(8)
C3_18 C 0.63836(7) 0.23739(7) 0.11532(7)
C4_18 C 0.51215(7) 0.29125(7) 0.08296(7)
H1_18 H 0.5033 0.2905 0.1035
C5_18 C 0.54447(7) 0.29244(8) 0.07928(7)
H2_18 H 0.5577 0.2927 0.0974
C6_18 C 0.62021(7) 0.25675(8) 0.09818(7)
H3_18 H 0.6062 0.2469 0.0838
C7_18 C 0.61935(7) 0.29091(8) 0.09891(7)
C8_18 C 0.55798(8) 0.29329(9) 0.04932(7)
C9_18 C 0.62370(7) 0.31210(7) 0.12272(7)
H4_18 H 0.6316 0.3071 0.1431
C10_18 C 0.59338(7) 0.29608(9) 0.04477(7)
H5_18 H 0.6023 0.2751 0.0399
H6_18 H 0.5979 0.3102 0.0267
C11_18 C 0.66550(8) 0.24696(8) 0.13608(8)
H7_18 H 0.6705 0.2695 0.1323
H8_18 H 0.6843 0.2344 0.1303
C12_10 C 0.49257(7) 0.29113(9) 0.05677(7)
C13_18 C 0.65845(10) 0.24226(9) 0.17084(9)
C14_10 C 0.45740(8) 0.29168(10) 0.06068(8)
C15_18 C 0.53815(9) 0.29288(14) 0.02300(8)
H9_18 H 0.5470 0.2934 0.0024
C16_18 C 0.50554(9) 0.29164(14) 0.02662(8)
H10_10 H 0.4922 0.2911 0.0086
C17_18 C 0.59514(9) 0.36566(10) 0.06279(8)
H11_18 H 0.5811 0.3796 0.0752
H12_18 H 0.5828 0.3571 0.0448
C18_18 C 0.62261(14) 0.38486(14) 0.05014(15)
H13_18 H 0.6346 0.3719 0.0349
H14_18 H 0.6369 0.3902 0.0678
C19_18 C 0.61161(19) 0.4164(2) 0.03332(18)
H15_18 H 0.5983 0.4109 0.0149
H16_18 H 0.5985 0.4287 0.0482
C20_18 C 0.6380(3) 0.4361(2) 0.0227(3)
H17_18 H 0.6484 0.4260 0.0046
H18_18 H 0.6532 0.4386 0.0399
H19_18 H 0.6300 0.4568 0.0163
C21_18 C 0.68230(8) 0.23132(9) 0.19685(9)
H20_18 H 0.7041 0.2266 0.1944
C22_18 C 0.6347(2) 0.24022(18) 0.22291(15)
H21_18 H 0.6212 0.2414 0.2408
C23_18 C 0.6651(2) 0.2302(2) 0.2233(2)
H22_18 H 0.6742 0.2223 0.2423
S2_18 S 0.62522(4) 0.06280(3) 0.00005(4)
O5_18 O 0.64197(5) 0.15197(6) 0.05752(5)
O6_18 O 0.59848(5) 0.12599(6) 0.06689(5)
C24_18 C 0.61752(7) 0.13742(7) 0.04741(7)
C26_18 C 0.61164(7) 0.13468(7) 0.01261(7)
H25_18 H 0.6438 0.1662 0.0031
C34_18 C 0.58450(8) 0.11392(8) 0.00304(8)
H30_18 H 0.5657 0.1197 0.0156
C36_18 C 0.59155(10) 0.07916(9) 0.00774(9)
C44_18 C 0.56770(8) 0.05315(9) 0.01868(9)
H42_18 H 0.5459 0.0556 0.0234
C45_18 C 0.6153(2) 0.02709(15) 0.00978(18)
H43_18 H 0.6288 0.0092 0.0086
C46_18 C 0.5849(2) 0.0267(2) 0.0198(2)
H44_18 H 0.5758 0.0077 0.0277
N5_18 N 0.65811(6) 0.11289(7) 0.11498(7)
N6_18 N 0.59189(6) 0.13502(7) 0.13711(7)
H45_10 H 0.435984 0.273248 0.0951017
O7_16 O 0.80104(5) 0.15965(5) 0.95782(6)
O8_16 O 0.81079(6) 0.21129(6) 0.95842(11)
N3_18 N 0.63502(7) 0.13711(7) 0.90811(6)
N4_18 N 0.64178(6) 0.17654(6) 0.94127(7)
C25_18 C 0.64423(7) 0.16685(8) 0.91095(8)
C27_18 C 0.73785(7) 0.16704(7) 0.95875(7)
H23_18 H 0.7467 0.1465 0.9595
C28_18 C 0.70553(7) 0.17072(7) 0.95756(8)
H24_18 H 0.6923 0.1526 0.9573
C29_18 C 0.62979(7) 0.15182(7) 0.99325(8)
C30_18 C 0.63065(7) 0.15109(7) 0.95909(8)
C31_18 C 0.69202(8) 0.20068(7) 0.95671(9)
C32_18 C 0.62630(7) 0.12728(7) 0.93790(7)
H26_18 H 0.6184 0.1069 0.9429
C33_18 C 0.65662(7) 0.20523(7) 0.95392(9)
H27_18 H 0.6477 0.2101 0.9749
H28_18 H 0.6521 0.2233 0.9398
H29_18 H 0.5795 0.1177 0.9805
C35_16 C 0.75743(7) 0.19323(7) 0.95887(9)
C37_16 C 0.79260(8) 0.18932(8) 0.95832(10)
C38_18 C 0.71185(9) 0.22700(8) 0.95712(14)
H31_18 H 0.7030 0.2476 0.9566
C39_18 C 0.74446(9) 0.22338(8) 0.95836(14)
H32_16 H 0.7578 0.2414 0.9589
C40_18 C 0.65486(9) 0.18721(8) 0.88434(10)
H33_18 H 0.6689 0.1748 0.8704
H34_18 H 0.6672 0.2052 0.8929
C41_18 C 0.62739(14) 0.19986(15) 0.86514(14)
H35_18 H 0.6154 0.2151 0.8781
H36_18 H 0.6131 0.1822 0.8598
C42_18 C 0.63839(19) 0.21668(18) 0.8336(2)
H37_18 H 0.6517 0.2351 0.8391
H38_18 H 0.6515 0.2018 0.8213
C43_18 C 0.6120(3) 0.2273(3) 0.8139(2)
H39_18 H 0.6016 0.2454 0.8240
H40_18 H 0.5968 0.2101 0.8114
H41_18 H 0.6200 0.2337 0.7932
H46_16 H 0.814016 0.154898 0.976752
Ni1_19 Ni 0.85450(2) 0.39550(2) 0.6250
S1_19 S 0.75005(4) 0.31280(3) 0.62478(4)
O1_19 O 0.80752(5) 0.40197(6) 0.60803(5)
O2_19 O 0.81689(5) 0.37599(6) 0.65152(5)
O3_11 O 0.70782(6) 0.40965(5) 0.44896(5)
O4_11 O 0.70842(11) 0.46129(6) 0.43921(6)
N1_19 N 0.65811(6) 0.38711(7) 0.61498(7)
N2_19 N 0.69127(7) 0.42654(6) 0.60822(6)
C1_19 C 0.79741(7) 0.38742(7) 0.63248(7)
C2_19 C 0.66095(8) 0.41685(8) 0.60577(7)
C3_19 C 0.76261(7) 0.38468(7) 0.63836(7)
C4_19 C 0.70875(7) 0.41704(7) 0.51215(7)
H1_19 H 0.7095 0.3965 0.5033
C5_19 C 0.70756(8) 0.42072(7) 0.54447(7)
H2_19 H 0.7073 0.4026 0.5577
C6_19 C 0.74325(8) 0.40182(7) 0.62021(7)
H3_19 H 0.7531 0.4162 0.6062
C7_19 C 0.70909(8) 0.40109(7) 0.61935(7)
C8_19 C 0.70671(9) 0.45068(7) 0.55798(8)
C9_19 C 0.68790(7) 0.37728(7) 0.62370(7)
H4_19 H 0.6929 0.3569 0.6316
C10_19 C 0.70392(9) 0.45523(7) 0.59338(7)
H5_19 H 0.7249 0.4601 0.6023
H6_19 H 0.6898 0.4733 0.5979
C11_19 C 0.75304(8) 0.36392(8) 0.66550(8)
H7_19 H 0.7305 0.3677 0.6705
H8_19 H 0.7656 0.3697 0.6843
C12_11 C 0.70887(9) 0.44323(7) 0.49257(7)
C13_19 C 0.75774(9) 0.32916(9) 0.65845(10)
C14_11 C 0.70832(10) 0.43932(8) 0.45740(8)
C15_19 C 0.70712(14) 0.47700(8) 0.53815(9)
H9_19 H 0.7066 0.4976 0.5470
C16_19 C 0.70836(14) 0.47338(8) 0.50554(9)
H10_11 H 0.7089 0.4914 0.4922
C17_19 C 0.63434(10) 0.43721(8) 0.59514(9)
H11_19 H 0.6204 0.4248 0.5811
H12_19 H 0.6429 0.4552 0.5828
C18_19 C 0.61514(14) 0.44986(15) 0.62261(14)
H13_19 H 0.6281 0.4651 0.6346
H14_19 H 0.6098 0.4322 0.6369
C19_19 C 0.5836(2) 0.46668(18) 0.61161(19)
H15_19 H 0.5891 0.4851 0.5983
H16_19 H 0.5713 0.4518 0.5985
C20_19 C 0.5639(2) 0.4773(3) 0.6380(3)
H17_19 H 0.5740 0.4954 0.6484
H18_19 H 0.5614 0.4601 0.6532
H19_19 H 0.5432 0.4837 0.6300
C21_19 C 0.76868(9) 0.30315(9) 0.68230(8)
H20_19 H 0.7734 0.3056 0.7041
C22_19 C 0.75978(18) 0.27709(15) 0.6347(2)
H21_19 H 0.7586 0.2592 0.6212
C23_19 C 0.7698(2) 0.2767(2) 0.6651(2)
H22_19 H 0.7777 0.2577 0.6742
S2_19 S 0.93720(3) 0.49995(4) 0.62522(4)
O5_19 O 0.84803(6) 0.44248(5) 0.64197(5)
O6_19 O 0.87401(6) 0.43311(5) 0.59848(5)
O7_17 O 0.84035(5) 0.54218(6) 0.80104(5)
O8_17 O 0.78871(6) 0.54158(11) 0.81079(6)
N3_19 N 0.86289(7) 0.59189(6) 0.63502(7)
N4_19 N 0.82346(6) 0.55873(7) 0.64178(6)
C24_19 C 0.86258(7) 0.45259(7) 0.61752(7)
C25_19 C 0.83315(8) 0.58905(8) 0.64423(7)
C26_19 C 0.86532(7) 0.48739(7) 0.61164(7)
C27_19 C 0.83296(7) 0.54125(7) 0.73785(7)
H23_19 H 0.8535 0.5405 0.7467
C28_19 C 0.82928(7) 0.54244(8) 0.70553(7)
H24_19 H 0.8474 0.5427 0.6923
C29_19 C 0.84818(7) 0.50675(8) 0.62979(7)
H25_19 H 0.8338 0.4969 0.6438
C30_19 C 0.84891(7) 0.54091(8) 0.63065(7)
C31_19 C 0.79932(7) 0.54329(9) 0.69202(8)
C32_19 C 0.87272(7) 0.56210(7) 0.62630(7)
H26_19 H 0.8931 0.5571 0.6184
C33_19 C 0.79477(7) 0.54608(9) 0.65662(7)
H27_19 H 0.7899 0.5251 0.6477
H28_19 H 0.7767 0.5602 0.6521
C34_19 C 0.88608(8) 0.49696(8) 0.58450(8)
H29_19 H 0.8823 0.5195 0.5795
H30_19 H 0.8803 0.4844 0.5657
C35_17 C 0.80677(7) 0.54113(9) 0.75743(7)
C36_19 C 0.92084(9) 0.49226(9) 0.59155(10)
C37_17 C 0.81068(8) 0.54168(10) 0.79260(8)
C38_19 C 0.77300(8) 0.54288(14) 0.71185(9)
H31_19 H 0.7524 0.5434 0.7030
C39_19 C 0.77662(8) 0.54164(14) 0.74446(9)
H32_17 H 0.7586 0.5411 0.7578
C40_19 C 0.81279(8) 0.61566(10) 0.65486(9)
H33_19 H 0.8252 0.6296 0.6689
H34_19 H 0.7948 0.6071 0.6672
C41_19 C 0.80014(15) 0.63486(14) 0.62739(14)
H35_19 H 0.7849 0.6219 0.6154
H36_19 H 0.8178 0.6402 0.6131
C42_19 C 0.78332(18) 0.6664(2) 0.63839(19)
H37_19 H 0.7649 0.6609 0.6517
H38_19 H 0.7982 0.6787 0.6515
C43_19 C 0.7727(3) 0.6861(2) 0.6120(3)
H39_19 H 0.7546 0.6760 0.6016
H40_19 H 0.7899 0.6886 0.5968
H41_19 H 0.7663 0.7068 0.6200
C44_19 C 0.94685(9) 0.48132(9) 0.56770(8)
H42_19 H 0.9444 0.4766 0.5459
C45_19 C 0.97291(15) 0.49022(18) 0.6153(2)
H43_19 H 0.9908 0.4914 0.6288
C46_19 C 0.9733(2) 0.4802(2) 0.5849(2)
H44_19 H 0.9923 0.4723 0.5758
N5_19 N 0.88711(7) 0.38502(7) 0.65811(6)
N6_19 N 0.86498(7) 0.36289(7) 0.59189(6)
H45_11 H 0.726752 0.404898 0.435984
H46_17 H 0.845102 0.523248 0.814016
Ni1_20 Ni 0.35450(2) 0.10450(2) 0.3750
S1_20 S 0.43720(3) 0.00005(4) 0.37478(4)
O1_20 O 0.34803(6) 0.05752(5) 0.35803(5)
O2_20 O 0.37401(6) 0.06689(5) 0.40152(5)
C1_20 C 0.36258(7) 0.04741(7) 0.38248(7)
C3_20 C 0.36532(7) 0.01261(7) 0.38836(7)
H3_20 H 0.3338 0.0031 0.3562
C11_20 C 0.38608(8) 0.00304(8) 0.41550(8)
H8_20 H 0.3803 0.0156 0.4343
C13_20 C 0.42084(9) 0.00774(9) 0.40845(10)
C21_20 C 0.44685(9) 0.01868(9) 0.43230(8)
H20_20 H 0.4444 0.0234 0.4541
C22_20 C 0.47291(15) 0.00978(18) 0.3847(2)
H21_20 H 0.4908 0.0086 0.3712
C23_20 C 0.4733(2) 0.0198(2) 0.4151(2)
H22_20 H 0.4923 0.0277 0.4242
S2_20 S 0.25005(4) 0.18720(3) 0.37522(4)
O5_20 O 0.30752(5) 0.09803(6) 0.39197(5)
O6_20 O 0.31689(5) 0.12401(6) 0.34848(5)
O7_18 O 0.20782(6) 0.09035(5) 0.55104(5)
O8_18 O 0.20842(11) 0.03871(6) 0.56079(6)
N3_20 N 0.15811(6) 0.11289(7) 0.38502(7)
N4_20 N 0.19127(7) 0.07346(6) 0.39178(6)
C24_20 C 0.29741(7) 0.11258(7) 0.36752(7)
C25_20 C 0.16095(8) 0.08315(8) 0.39423(7)
C26_20 C 0.26261(7) 0.11532(7) 0.36164(7)
C27_20 C 0.20875(7) 0.08296(7) 0.48785(7)
H23_20 H 0.2095 0.1035 0.4967
C28_20 C 0.20756(8) 0.07928(7) 0.45553(7)
H24_20 H 0.2073 0.0974 0.4423
C29_20 C 0.24325(8) 0.09818(7) 0.37979(7)
H25_20 H 0.2531 0.0838 0.3938
C30_20 C 0.20909(8) 0.09891(7) 0.38065(7)
C31_20 C 0.20671(9) 0.04932(7) 0.44202(8)
C32_20 C 0.18790(7) 0.12272(7) 0.37630(7)
H26_20 H 0.1929 0.1431 0.3684
C33_20 C 0.20392(9) 0.04477(7) 0.40662(7)
H27_20 H 0.2249 0.0399 0.3977
H28_20 H 0.1898 0.0267 0.4021
C34_20 C 0.25304(8) 0.13608(8) 0.33450(8)
H29_20 H 0.2305 0.1323 0.3295
H30_20 H 0.2656 0.1303 0.3157
C35_18 C 0.20887(9) 0.05677(7) 0.50743(7)
C36_20 C 0.25774(9) 0.17084(9) 0.34155(10)
C37_18 C 0.20832(10) 0.06068(8) 0.54260(8)
C38_20 C 0.20712(14) 0.02300(8) 0.46185(9)
H31_20 H 0.2066 0.0024 0.4530
C39_20 C 0.20836(14) 0.02662(8) 0.49446(9)
H32_18 H 0.2089 0.0086 0.5078
C40_20 C 0.13434(10) 0.06279(8) 0.40486(9)
H33_20 H 0.1204 0.0752 0.4189
H34_20 H 0.1429 0.0448 0.4172
C41_20 C 0.11514(14) 0.05014(15) 0.37739(14)
H35_20 H 0.1281 0.0349 0.3654
H36_20 H 0.1098 0.0678 0.3631
C42_20 C 0.0836(2) 0.03332(18) 0.38839(19)
H37_20 H 0.0891 0.0149 0.4017
H38_20 H 0.0713 0.0482 0.4015
C43_20 C 0.0639(2) 0.0227(3) 0.3620(3)
H39_20 H 0.0740 0.0046 0.3516
H40_20 H 0.0614 0.0399 0.3468
H41_20 H 0.0432 0.0163 0.3700
C44_20 C 0.26868(9) 0.19685(9) 0.31770(8)
H42_20 H 0.2734 0.1944 0.2959
C45_20 C 0.25978(18) 0.22291(15) 0.3653(2)
H43_20 H 0.2586 0.2408 0.3788
C46_20 C 0.2698(2) 0.2233(2) 0.3349(2)
H44_20 H 0.2777 0.2423 0.3258
N5_20 N 0.36498(7) 0.13711(7) 0.40811(6)
N6_20 N 0.38711(7) 0.11498(7) 0.34189(6)
H46_18 H 0.226752 0.0951017 0.564016
O3_12 O 0.34035(5) 0.95782(6) 0.19896(5)
O4_12 O 0.28871(6) 0.95842(11) 0.18921(6)
N1_20 N 0.36289(7) 0.90811(6) 0.36498(7)
N2_20 N 0.32346(6) 0.94127(7) 0.35822(6)
C2_20 C 0.33315(8) 0.91095(8) 0.35577(7)
C4_20 C 0.33296(7) 0.95875(7) 0.26215(7)
H1_20 H 0.3535 0.9595 0.2533
C5_20 C 0.32928(7) 0.95756(8) 0.29447(7)
H2_20 H 0.3474 0.9573 0.3077
C6_20 C 0.34818(7) 0.99325(8) 0.37021(7)
C7_20 C 0.34891(7) 0.95909(8) 0.36935(7)
C8_20 C 0.29932(7) 0.95671(9) 0.30798(8)
C9_20 C 0.37272(7) 0.93790(7) 0.37370(7)
H4_20 H 0.3931 0.9429 0.3816
C10_20 C 0.29477(7) 0.95392(9) 0.34338(7)
H5_20 H 0.2899 0.9749 0.3523
H6_20 H 0.2767 0.9398 0.3479
H7_20 H 0.3823 0.9805 0.4205
C12_12 C 0.30677(7) 0.95887(9) 0.24257(7)
C14_12 C 0.31068(8) 0.95832(10) 0.20740(8)
C15_20 C 0.27300(8) 0.95712(14) 0.28815(9)
H9_20 H 0.2524 0.9566 0.2970
C16_20 C 0.27662(8) 0.95836(14) 0.25554(9)
H10_12 H 0.2586 0.9589 0.2422
C17_20 C 0.31279(8) 0.88434(10) 0.34514(9)
H11_20 H 0.3252 0.8704 0.3311
H12_20 H 0.2948 0.8929 0.3328
C18_20 C 0.30014(15) 0.86514(14) 0.37261(14)
H13_20 H 0.2849 0.8781 0.3846
H14_20 H 0.3178 0.8598 0.3869
C19_20 C 0.28332(18) 0.8336(2) 0.36161(19)
H15_20 H 0.2649 0.8391 0.3483
H16_20 H 0.2982 0.8213 0.3485
C20_20 C 0.2727(3) 0.8139(2) 0.3880(3)
H17_20 H 0.2546 0.8240 0.3984
H18_20 H 0.2899 0.8114 0.4032
H19_20 H 0.2663 0.7932 0.3800
H45_12 H 0.345102 0.976752 0.185984
Ni1_21 Ni 0.6250 0.85450(2) 0.39550(2)
S1_21 S 0.62478(4) 0.75005(4) 0.31280(3)
O1_21 O 0.60803(5) 0.80752(5) 0.40197(6)
O2_21 O 0.65152(5) 0.81689(5) 0.37599(6)
O3_13 O 0.44896(5) 0.70782(6) 0.40965(5)
O4_13 O 0.43921(6) 0.70842(11) 0.46129(6)
N1_21 N 0.61498(7) 0.65811(6) 0.38711(7)
N2_21 N 0.60822(6) 0.69127(7) 0.42654(6)
C1_21 C 0.63248(7) 0.79741(7) 0.38742(7)
C2_21 C 0.60577(7) 0.66095(8) 0.41685(8)
C3_21 C 0.63836(7) 0.76261(7) 0.38468(7)
C4_21 C 0.51215(7) 0.70875(7) 0.41704(7)
H1_21 H 0.5033 0.7095 0.3965
C5_21 C 0.54447(7) 0.70756(8) 0.42072(7)
H2_21 H 0.5577 0.7073 0.4026
C6_21 C 0.62021(7) 0.74325(8) 0.40182(7)
H3_21 H 0.6062 0.7531 0.4162
C7_21 C 0.61935(7) 0.70909(8) 0.40109(7)
C8_21 C 0.55798(8) 0.70671(9) 0.45068(7)
C9_21 C 0.62370(7) 0.68790(7) 0.37728(7)
H4_21 H 0.6316 0.6929 0.3569
C10_21 C 0.59338(7) 0.70392(9) 0.45523(7)
H5_21 H 0.6023 0.7249 0.4601
H6_21 H 0.5979 0.6898 0.4733
C11_21 C 0.66550(8) 0.75304(8) 0.36392(8)
H7_21 H 0.6705 0.7305 0.3677
H8_21 H 0.6843 0.7656 0.3697
C12_13 C 0.49257(7) 0.70887(9) 0.44323(7)
C13_21 C 0.65845(10) 0.75774(9) 0.32916(9)
C14_13 C 0.45740(8) 0.70832(10) 0.43932(8)
C15_21 C 0.53815(9) 0.70712(14) 0.47700(8)
H9_21 H 0.5470 0.7066 0.4976
C16_21 C 0.50554(9) 0.70836(14) 0.47338(8)
H10_13 H 0.4922 0.7089 0.4914
C17_21 C 0.59514(9) 0.63434(10) 0.43721(8)
H11_21 H 0.5811 0.6204 0.4248
H12_21 H 0.5828 0.6429 0.4552
C18_21 C 0.62261(14) 0.61514(14) 0.44986(15)
H13_21 H 0.6346 0.6281 0.4651
H14_21 H 0.6369 0.6098 0.4322
C19_21 C 0.61161(19) 0.5836(2) 0.46668(18)
H15_21 H 0.5983 0.5891 0.4851
H16_21 H 0.5985 0.5713 0.4518
C20_21 C 0.6380(3) 0.5639(2) 0.4773(3)
H17_21 H 0.6484 0.5740 0.4954
H18_21 H 0.6532 0.5614 0.4601
H19_21 H 0.6300 0.5432 0.4837
C21_21 C 0.68230(8) 0.76868(9) 0.30315(9)
H20_21 H 0.7041 0.7734 0.3056
C22_21 C 0.6347(2) 0.75978(18) 0.27709(15)
H21_21 H 0.6212 0.7586 0.2592
C23_21 C 0.6651(2) 0.7698(2) 0.2767(2)
H22_21 H 0.6742 0.7777 0.2577
S2_21 S 0.62522(4) 0.93720(3) 0.49995(4)
O5_21 O 0.64197(5) 0.84803(6) 0.44248(5)
O6_21 O 0.59848(5) 0.87401(6) 0.43311(5)
O7_19 O 0.80104(5) 0.84035(5) 0.54218(6)
O8_19 O 0.81079(6) 0.78871(6) 0.54158(11)
N3_21 N 0.63502(7) 0.86289(7) 0.59189(6)
N4_21 N 0.64178(6) 0.82346(6) 0.55873(7)
C24_21 C 0.61752(7) 0.86258(7) 0.45259(7)
C25_21 C 0.64423(7) 0.83315(8) 0.58905(8)
C26_21 C 0.61164(7) 0.86532(7) 0.48739(7)
C27_21 C 0.73785(7) 0.83296(7) 0.54125(7)
H23_21 H 0.7467 0.8535 0.5405
C28_21 C 0.70553(7) 0.82928(7) 0.54244(8)
H24_21 H 0.6923 0.8474 0.5427
C29_21 C 0.62979(7) 0.84818(7) 0.50675(8)
H25_21 H 0.6438 0.8338 0.4969
C30_21 C 0.63065(7) 0.84891(7) 0.54091(8)
C31_21 C 0.69202(8) 0.79932(7) 0.54329(9)
C32_21 C 0.62630(7) 0.87272(7) 0.56210(7)
H26_21 H 0.6184 0.8931 0.5571
C33_21 C 0.65662(7) 0.79477(7) 0.54608(9)
H27_21 H 0.6477 0.7899 0.5251
H28_21 H 0.6521 0.7767 0.5602
C34_21 C 0.58450(8) 0.88608(8) 0.49696(8)
H29_21 H 0.5795 0.8823 0.5195
H30_21 H 0.5657 0.8803 0.4844
C35_19 C 0.75743(7) 0.80677(7) 0.54113(9)
C36_21 C 0.59155(10) 0.92084(9) 0.49226(9)
C37_19 C 0.79260(8) 0.81068(8) 0.54168(10)
C38_21 C 0.71185(9) 0.77300(8) 0.54288(14)
H31_21 H 0.7030 0.7524 0.5434
C39_21 C 0.74446(9) 0.77662(8) 0.54164(14)
H32_19 H 0.7578 0.7586 0.5411
C40_21 C 0.65486(9) 0.81279(8) 0.61566(10)
H33_21 H 0.6689 0.8252 0.6296
H34_21 H 0.6672 0.7948 0.6071
C41_21 C 0.62739(14) 0.80014(15) 0.63486(14)
H35_21 H 0.6154 0.7849 0.6219
H36_21 H 0.6131 0.8178 0.6402
C42_21 C 0.63839(19) 0.78332(18) 0.6664(2)
H37_21 H 0.6517 0.7649 0.6609
H38_21 H 0.6515 0.7982 0.6787
C43_21 C 0.6120(3) 0.7727(3) 0.6861(2)
H39_21 H 0.6016 0.7546 0.6760
H40_21 H 0.5968 0.7899 0.6886
H41_21 H 0.6200 0.7663 0.7068
C44_21 C 0.56770(8) 0.94685(9) 0.48132(9)
H42_21 H 0.5459 0.9444 0.4766
C45_21 C 0.6153(2) 0.97291(15) 0.49022(18)
H43_21 H 0.6288 0.9908 0.4914
C46_21 C 0.5849(2) 0.9733(2) 0.4802(2)
H44_21 H 0.5758 0.9923 0.4723
N5_21 N 0.65811(6) 0.88711(7) 0.38502(7)
N6_21 N 0.59189(6) 0.86498(7) 0.36289(7)
H45_13 H 0.435984 0.726752 0.404898
H46_19 H 0.814016 0.845102 0.523248
Ni1_22 Ni 0.14550(2) 0.10450(2) 0.6250
S1_22 S 0.24995(4) 0.18720(3) 0.62478(4)
O1_22 O 0.19248(5) 0.09803(6) 0.60803(5)
O2_22 O 0.18311(5) 0.12401(6) 0.65152(5)
O3_14 O 0.29218(6) 0.09035(5) 0.44896(5)
O4_14 O 0.29158(11) 0.03871(6) 0.43921(6)
N1_22 N 0.34189(6) 0.11289(7) 0.61498(7)
N2_22 N 0.30873(7) 0.07346(6) 0.60822(6)
C1_22 C 0.20259(7) 0.11258(7) 0.63248(7)
C2_22 C 0.33905(8) 0.08315(8) 0.60577(7)
C3_22 C 0.23739(7) 0.11532(7) 0.63836(7)
C4_22 C 0.29125(7) 0.08296(7) 0.51215(7)
H1_22 H 0.2905 0.1035 0.5033
C5_22 C 0.29244(8) 0.07928(7) 0.54447(7)
H2_22 H 0.2927 0.0974 0.5577
C6_22 C 0.25675(8) 0.09818(7) 0.62021(7)
H3_22 H 0.2469 0.0838 0.6062
C7_22 C 0.29091(8) 0.09891(7) 0.61935(7)
C8_22 C 0.29329(9) 0.04932(7) 0.55798(8)
C9_22 C 0.31210(7) 0.12272(7) 0.62370(7)
H4_22 H 0.3071 0.1431 0.6316
C10_22 C 0.29608(9) 0.04477(7) 0.59338(7)
H5_22 H 0.2751 0.0399 0.6023
H6_22 H 0.3102 0.0267 0.5979
C11_22 C 0.24696(8) 0.13608(8) 0.66550(8)
H7_22 H 0.2695 0.1323 0.6705
H8_22 H 0.2344 0.1303 0.6843
C12_14 C 0.29113(9) 0.05677(7) 0.49257(7)
C13_22 C 0.24226(9) 0.17084(9) 0.65845(10)
C14_14 C 0.29168(10) 0.06068(8) 0.45740(8)
C15_22 C 0.29288(14) 0.02300(8) 0.53815(9)
H9_22 H 0.2934 0.0024 0.5470
C16_22 C 0.29164(14) 0.02662(8) 0.50554(9)
H10_14 H 0.2911 0.0086 0.4922
C17_22 C 0.36566(10) 0.06279(8) 0.59514(9)
H11_22 H 0.3796 0.0752 0.5811
H12_22 H 0.3571 0.0448 0.5828
C18_22 C 0.38486(14) 0.05014(15) 0.62261(14)
H13_22 H 0.3719 0.0349 0.6346
H14_22 H 0.3902 0.0678 0.6369
C19_22 C 0.4164(2) 0.03332(18) 0.61161(19)
H15_22 H 0.4109 0.0149 0.5983
H16_22 H 0.4287 0.0482 0.5985
C20_22 C 0.4361(2) 0.0227(3) 0.6380(3)
H17_22 H 0.4260 0.0046 0.6484
H18_22 H 0.4386 0.0399 0.6532
H19_22 H 0.4568 0.0163 0.6300
C21_22 C 0.23132(9) 0.19685(9) 0.68230(8)
H20_22 H 0.2266 0.1944 0.7041
C22_22 C 0.24022(18) 0.22291(15) 0.6347(2)
H21_22 H 0.2414 0.2408 0.6212
C23_22 C 0.2302(2) 0.2233(2) 0.6651(2)
H22_22 H 0.2223 0.2423 0.6742
S2_22 S 0.06280(3) 0.00005(4) 0.62522(4)
O5_22 O 0.15197(6) 0.05752(5) 0.64197(5)
O6_22 O 0.12599(6) 0.06689(5) 0.59848(5)
C24_22 C 0.13742(7) 0.04741(7) 0.61752(7)
C26_22 C 0.13468(7) 0.01261(7) 0.61164(7)
H25_22 H 0.1662 0.0031 0.6438
C34_22 C 0.11392(8) 0.00304(8) 0.58450(8)
H30_22 H 0.1197 0.0156 0.5657
C36_22 C 0.07916(9) 0.00774(9) 0.59155(10)
C44_22 C 0.05315(9) 0.01868(9) 0.56770(8)
H42_22 H 0.0556 0.0234 0.5459
C45_22 C 0.02709(15) 0.00978(18) 0.6153(2)
H43_22 H 0.0092 0.0086 0.6288
C46_22 C 0.0267(2) 0.0198(2) 0.5849(2)
H44_22 H 0.0077 0.0277 0.5758
N5_22 N 0.11289(7) 0.11498(7) 0.65811(6)
N6_22 N 0.13502(7) 0.13711(7) 0.59189(6)
H45_14 H 0.273248 0.0951017 0.435984
O7_20 O 0.15965(5) 0.95782(6) 0.80104(5)
O8_20 O 0.21129(6) 0.95842(11) 0.81079(6)
N3_22 N 0.13711(7) 0.90811(6) 0.63502(7)
N4_22 N 0.17654(6) 0.94127(7) 0.64178(6)
C25_22 C 0.16685(8) 0.91095(8) 0.64423(7)
C27_22 C 0.16704(7) 0.95875(7) 0.73785(7)
H23_22 H 0.1465 0.9595 0.7467
C28_22 C 0.17072(7) 0.95756(8) 0.70553(7)
H24_22 H 0.1526 0.9573 0.6923
C29_22 C 0.15182(7) 0.99325(8) 0.62979(7)
C30_22 C 0.15109(7) 0.95909(8) 0.63065(7)
C31_22 C 0.20068(7) 0.95671(9) 0.69202(8)
C32_22 C 0.12728(7) 0.93790(7) 0.62630(7)
H26_22 H 0.1069 0.9429 0.6184
C33_22 C 0.20523(7) 0.95392(9) 0.65662(7)
H27_22 H 0.2101 0.9749 0.6477
H28_22 H 0.2233 0.9398 0.6521
H29_22 H 0.1177 0.9805 0.5795
C35_20 C 0.19323(7) 0.95887(9) 0.75743(7)
C37_20 C 0.18932(8) 0.95832(10) 0.79260(8)
C38_22 C 0.22700(8) 0.95712(14) 0.71185(9)
H31_22 H 0.2476 0.9566 0.7030
C39_22 C 0.22338(8) 0.95836(14) 0.74446(9)
H32_20 H 0.2414 0.9589 0.7578
C40_22 C 0.18721(8) 0.88434(10) 0.65486(9)
H33_22 H 0.1748 0.8704 0.6689
H34_22 H 0.2052 0.8929 0.6672
C41_22 C 0.19986(15) 0.86514(14) 0.62739(14)
H35_22 H 0.2151 0.8781 0.6154
H36_22 H 0.1822 0.8598 0.6131
C42_22 C 0.21668(18) 0.8336(2) 0.63839(19)
H37_22 H 0.2351 0.8391 0.6517
H38_22 H 0.2018 0.8213 0.6515
C43_22 C 0.2273(3) 0.8139(2) 0.6120(3)
H39_22 H 0.2454 0.8240 0.6016
H40_22 H 0.2101 0.8114 0.5968
H41_22 H 0.2337 0.7932 0.6200
H46_20 H 0.154898 0.976752 0.814016
O3_15 O 0.15965(5) 0.04218(6) 0.69896(5)
O4_15 O 0.21129(6) 0.04158(11) 0.68921(6)
N1_23 N 0.13711(7) 0.09189(6) 0.86498(7)
N2_23 N 0.17654(6) 0.05873(7) 0.85822(6)
C2_23 C 0.16685(8) 0.08905(8) 0.85577(7)
C4_23 C 0.16704(7) 0.04125(7) 0.76215(7)
H1_23 H 0.1465 0.0405 0.7533
C5_23 C 0.17072(7) 0.04244(8) 0.79447(7)
H2_23 H 0.1526 0.0427 0.8077
C6_23 C 0.15182(7) 0.00675(8) 0.87021(7)
C7_23 C 0.15109(7) 0.04091(8) 0.86935(7)
C8_23 C 0.20068(7) 0.04329(9) 0.80798(8)
C9_23 C 0.12728(7) 0.06210(7) 0.87370(7)
H4_23 H 0.1069 0.0571 0.8816
C10_23 C 0.20523(7) 0.04608(9) 0.84338(7)
H5_23 H 0.2101 0.0251 0.8523
H6_23 H 0.2233 0.0602 0.8479
H7_23 H 0.1177 0.0195 0.9205
C12_15 C 0.19323(7) 0.04113(9) 0.74257(7)
C14_15 C 0.18932(8) 0.04168(10) 0.70740(8)
C15_23 C 0.22700(8) 0.04288(14) 0.78815(9)
H9_23 H 0.2476 0.0434 0.7970
C16_23 C 0.22338(8) 0.04164(14) 0.75554(9)
H10_15 H 0.2414 0.0411 0.7422
C17_23 C 0.18721(8) 0.11566(10) 0.84514(9)
H11_23 H 0.1748 0.1296 0.8311
H12_23 H 0.2052 0.1071 0.8328
C18_23 C 0.19986(15) 0.13486(14) 0.87261(14)
H13_23 H 0.2151 0.1219 0.8846
H14_23 H 0.1822 0.1402 0.8869
C19_23 C 0.21668(18) 0.1664(2) 0.86161(19)
H15_23 H 0.2351 0.1609 0.8483
H16_23 H 0.2018 0.1787 0.8485
C20_23 C 0.2273(3) 0.1861(2) 0.8880(3)
H17_23 H 0.2454 0.1760 0.8984
H18_23 H 0.2101 0.1886 0.9032
H19_23 H 0.2337 0.2068 0.8800
H45_15 H 0.154898 0.0232485 0.685984
Ni1_23 Ni 0.14550(2) 0.89550(2) 0.8750
S1_23 S 0.06280(3) 0.99995(4) 0.87478(4)
O1_23 O 0.15197(6) 0.94248(5) 0.85803(5)
O2_23 O 0.12599(6) 0.93311(5) 0.90152(5)
C1_23 C 0.13742(7) 0.95259(7) 0.88248(7)
C3_23 C 0.13468(7) 0.98739(7) 0.88836(7)
H3_23 H 0.1662 0.9969 0.8562
C11_23 C 0.11392(8) 0.99696(8) 0.91550(8)
H8_23 H 0.1197 0.9844 0.9343
C13_23 C 0.07916(9) 0.99226(9) 0.90845(10)
C21_23 C 0.05315(9) 0.98132(9) 0.93230(8)
H20_23 H 0.0556 0.9766 0.9541
C22_23 C 0.02709(15) 0.99022(18) 0.8847(2)
H21_23 H 0.0092 0.9914 0.8712
C23_23 C 0.0267(2) 0.9802(2) 0.9151(2)
H22_23 H 0.0077 0.9723 0.9242
S2_23 S 0.24995(4) 0.81280(3) 0.87522(4)
O5_23 O 0.19248(5) 0.90197(6) 0.89197(5)
O6_23 O 0.18311(5) 0.87599(6) 0.84848(5)
N3_23 N 0.34189(6) 0.88711(7) 0.88502(7)
N4_23 N 0.30873(7) 0.92654(6) 0.89178(6)
C24_23 C 0.20259(7) 0.88742(7) 0.86752(7)
C25_23 C 0.33905(8) 0.91685(8) 0.89423(7)
C26_23 C 0.23739(7) 0.88468(7) 0.86164(7)
C27_23 C 0.29125(7) 0.91704(7) 0.98785(7)
H23_23 H 0.2905 0.8965 0.9967
C28_23 C 0.29244(8) 0.92072(7) 0.95553(7)
H24_23 H 0.2927 0.9026 0.9423
C29_23 C 0.25675(8) 0.90182(7) 0.87979(7)
H25_23 H 0.2469 0.9162 0.8938
C30_23 C 0.29091(8) 0.90109(7) 0.88065(7)
C31_23 C 0.29329(9) 0.95068(7) 0.94202(8)
C32_23 C 0.31210(7) 0.87728(7) 0.87630(7)
H26_23 H 0.3071 0.8569 0.8684
C33_23 C 0.29608(9) 0.95523(7) 0.90662(7)
H27_23 H 0.2751 0.9601 0.8977
H28_23 H 0.3102 0.9733 0.9021
C34_23 C 0.24696(8) 0.86392(8) 0.83450(8)
H29_23 H 0.2695 0.8677 0.8295
H30_23 H 0.2344 0.8697 0.8157
C36_23 C 0.24226(9) 0.82916(9) 0.84155(10)
C38_23 C 0.29288(14) 0.97700(8) 0.96185(9)
H31_23 H 0.2934 0.9976 0.9530
C39_23 C 0.29164(14) 0.97338(8) 0.99446(9)
C40_23 C 0.36566(10) 0.93721(8) 0.90486(9)
H33_23 H 0.3796 0.9248 0.9189
H34_23 H 0.3571 0.9552 0.9172
C41_23 C 0.38486(14) 0.94986(15) 0.87739(14)
H35_23 H 0.3719 0.9651 0.8654
H36_23 H 0.3902 0.9322 0.8631
C42_23 C 0.4164(2) 0.96668(18) 0.88839(19)
H37_23 H 0.4109 0.9851 0.9017
H38_23 H 0.4287 0.9518 0.9015
C43_23 C 0.4361(2) 0.9773(3) 0.8620(3)
H39_23 H 0.4260 0.9954 0.8516
H40_23 H 0.4386 0.9601 0.8468
H41_23 H 0.4568 0.9837 0.8700
C44_23 C 0.23132(9) 0.80315(9) 0.81770(8)
H42_23 H 0.2266 0.8056 0.7959
C45_23 C 0.24022(18) 0.77709(15) 0.8653(2)
H43_23 H 0.2414 0.7592 0.8788
C46_23 C 0.2302(2) 0.7767(2) 0.8349(2)
H44_23 H 0.2223 0.7577 0.8258
N5_23 N 0.13502(7) 0.86289(7) 0.90811(6)
N6_23 N 0.11289(7) 0.88502(7) 0.84189(6)
O7_21 O 0.34035(5) 0.04218(6) 0.30104(5)
O8_21 O 0.28871(6) 0.04158(11) 0.31079(6)
N3_24 N 0.36289(7) 0.09189(6) 0.13502(7)
N4_24 N 0.32346(6) 0.05873(7) 0.14178(6)
C25_24 C 0.33315(8) 0.08905(8) 0.14423(7)
C27_24 C 0.33296(7) 0.04125(7) 0.23785(7)
H23_24 H 0.3535 0.0405 0.2467
C28_24 C 0.32928(7) 0.04244(8) 0.20553(7)
H24_24 H 0.3474 0.0427 0.1923
C29_24 C 0.34818(7) 0.00675(8) 0.12979(7)
C30_24 C 0.34891(7) 0.04091(8) 0.13065(7)
C31_24 C 0.29932(7) 0.04329(9) 0.19202(8)
C32_24 C 0.37272(7) 0.06210(7) 0.12630(7)
H26_24 H 0.3931 0.0571 0.1184
C33_24 C 0.29477(7) 0.04608(9) 0.15662(7)
H27_24 H 0.2899 0.0251 0.1477
H28_24 H 0.2767 0.0602 0.1521
H29_24 H 0.3823 0.0195 0.0795
C35_21 C 0.30677(7) 0.04113(9) 0.25743(7)
C37_21 C 0.31068(8) 0.04168(10) 0.29260(8)
C38_24 C 0.27300(8) 0.04288(14) 0.21185(9)
H31_24 H 0.2524 0.0434 0.2030
C39_24 C 0.27662(8) 0.04164(14) 0.24446(9)
H32_21 H 0.2586 0.0411 0.2578
C40_24 C 0.31279(8) 0.11566(10) 0.15486(9)
H33_24 H 0.3252 0.1296 0.1689
H34_24 H 0.2948 0.1071 0.1672
C41_24 C 0.30014(15) 0.13486(14) 0.12739(14)
H35_24 H 0.2849 0.1219 0.1154
H36_24 H 0.3178 0.1402 0.1131
C42_24 C 0.28332(18) 0.1664(2) 0.13839(19)
H37_24 H 0.2649 0.1609 0.1517
H38_24 H 0.2982 0.1787 0.1515
C43_24 C 0.2727(3) 0.1861(2) 0.1120(3)
H39_24 H 0.2546 0.1760 0.1016
H40_24 H 0.2899 0.1886 0.0968
H41_24 H 0.2663 0.2068 0.1200
H46_21 H 0.345102 0.0232485 0.314016
Ni1_24 Ni 0.35450(2) 0.89550(2) 0.1250
S1_24 S 0.25005(4) 0.81280(3) 0.12478(4)
O1_24 O 0.30752(5) 0.90197(6) 0.10803(5)
O2_24 O 0.31689(5) 0.87599(6) 0.15152(5)
N1_24 N 0.15811(6) 0.88711(7) 0.11498(7)
N2_24 N 0.19127(7) 0.92654(6) 0.10822(6)
C1_24 C 0.29741(7) 0.88742(7) 0.13248(7)
C2_24 C 0.16095(8) 0.91685(8) 0.10577(7)
C3_24 C 0.26261(7) 0.88468(7) 0.13836(7)
C4_24 C 0.20875(7) 0.91704(7) 0.01215(7)
H1_24 H 0.2095 0.8965 0.0033
C5_24 C 0.20756(8) 0.92072(7) 0.04447(7)
H2_24 H 0.2073 0.9026 0.0577
C6_24 C 0.24325(8) 0.90182(7) 0.12021(7)
H3_24 H 0.2531 0.9162 0.1062
C7_24 C 0.20909(8) 0.90109(7) 0.11935(7)
C8_24 C 0.20671(9) 0.95068(7) 0.05798(8)
C9_24 C 0.18790(7) 0.87728(7) 0.12370(7)
H4_24 H 0.1929 0.8569 0.1316
C10_24 C 0.20392(9) 0.95523(7) 0.09338(7)
H5_24 H 0.2249 0.9601 0.1023
H6_24 H 0.1898 0.9733 0.0979
C11_24 C 0.25304(8) 0.86392(8) 0.16550(8)
H7_24 H 0.2305 0.8677 0.1705
H8_24 H 0.2656 0.8697 0.1843
C13_24 C 0.25774(9) 0.82916(9) 0.15845(10)
C15_24 C 0.20712(14) 0.97700(8) 0.03815(9)
H9_24 H 0.2066 0.9976 0.0470
C16_24 C 0.20836(14) 0.97338(8) 0.00554(9)
C17_24 C 0.13434(10) 0.93721(8) 0.09514(9)
H11_24 H 0.1204 0.9248 0.0811
H12_24 H 0.1429 0.9552 0.0828
C18_24 C 0.11514(14) 0.94986(15) 0.12261(14)
H13_24 H 0.1281 0.9651 0.1346
H14_24 H 0.1098 0.9322 0.1369
C19_24 C 0.0836(2) 0.96668(18) 0.11161(19)
H15_24 H 0.0891 0.9851 0.0983
H16_24 H 0.0713 0.9518 0.0985
C20_24 C 0.0639(2) 0.9773(3) 0.1380(3)
H17_24 H 0.0740 0.9954 0.1484
H18_24 H 0.0614 0.9601 0.1532
H19_24 H 0.0432 0.9837 0.1300
C21_24 C 0.26868(9) 0.80315(9) 0.18230(8)
H20_24 H 0.2734 0.8056 0.2041
C22_24 C 0.25978(18) 0.77709(15) 0.1347(2)
H21_24 H 0.2586 0.7592 0.1212
C23_24 C 0.2698(2) 0.7767(2) 0.1651(2)
H22_24 H 0.2777 0.7577 0.1742
S2_24 S 0.43720(3) 0.99995(4) 0.12522(4)
O5_24 O 0.34803(6) 0.94248(5) 0.14197(5)
O6_24 O 0.37401(6) 0.93311(5) 0.09848(5)
C24_24 C 0.36258(7) 0.95259(7) 0.11752(7)
C26_24 C 0.36532(7) 0.98739(7) 0.11164(7)
H25_24 H 0.3338 0.9969 0.1438
C34_24 C 0.38608(8) 0.99696(8) 0.08450(8)
H30_24 H 0.3803 0.9844 0.0657
C36_24 C 0.42084(9) 0.99226(9) 0.09155(10)
C44_24 C 0.44685(9) 0.98132(9) 0.06770(8)
H42_24 H 0.4444 0.9766 0.0459
C45_24 C 0.47291(15) 0.99022(18) 0.1153(2)
H43_24 H 0.4908 0.9914 0.1288
C46_24 C 0.4733(2) 0.9802(2) 0.0849(2)
H44_24 H 0.4923 0.9723 0.0758
N5_24 N 0.38711(7) 0.88502(7) 0.15811(6)
N6_24 N 0.36498(7) 0.86289(7) 0.09189(6)
S1_25 S 0.62522(4) 0.43720(3) 0.50005(4)
O1_25 O 0.64197(5) 0.34803(6) 0.55752(5)
O2_25 O 0.59848(5) 0.37401(6) 0.56689(5)
O3_16 O 0.80104(5) 0.34035(5) 0.45782(6)
O4_16 O 0.81079(6) 0.28871(6) 0.45842(11)
N2_25 N 0.64178(6) 0.32346(6) 0.44127(7)
C1_25 C 0.61752(7) 0.36258(7) 0.54741(7)
C2_25 C 0.64423(7) 0.33315(8) 0.41095(8)
C3_25 C 0.61164(7) 0.36532(7) 0.51261(7)
C4_25 C 0.73785(7) 0.33296(7) 0.45875(7)
H1_25 H 0.7467 0.3535 0.4595
C5_25 C 0.70553(7) 0.32928(7) 0.45756(8)
H2_25 H 0.6923 0.3474 0.4573
C6_25 C 0.62979(7) 0.34818(7) 0.49325(8)
H3_25 H 0.6438 0.3338 0.5031
C7_25 C 0.63065(7) 0.34891(7) 0.45909(8)
C8_25 C 0.69202(8) 0.29932(7) 0.45671(9)
C9_25 C 0.62630(7) 0.37272(7) 0.43790(7)
H4_25 H 0.6184 0.3931 0.4429
C10_25 C 0.65662(7) 0.29477(7) 0.45392(9)
H5_25 H 0.6477 0.2899 0.4749
H6_25 H 0.6521 0.2767 0.4398
C11_25 C 0.58450(8) 0.38608(8) 0.50304(8)
H7_25 H 0.5795 0.3823 0.4805
H8_25 H 0.5657 0.3803 0.5156
C12_16 C 0.75743(7) 0.30677(7) 0.45887(9)
C13_25 C 0.59155(10) 0.42084(9) 0.50774(9)
C14_16 C 0.79260(8) 0.31068(8) 0.45832(10)
C15_25 C 0.71185(9) 0.27300(8) 0.45712(14)
H9_25 H 0.7030 0.2524 0.4566
C16_25 C 0.74446(9) 0.27662(8) 0.45836(14)
H10_16 H 0.7578 0.2586 0.4589
C17_25 C 0.65486(9) 0.31279(8) 0.38434(10)
H11_25 H 0.6689 0.3252 0.3704
H12_25 H 0.6672 0.2948 0.3929
C18_25 C 0.62739(14) 0.30014(15) 0.36514(14)
H13_25 H 0.6154 0.2849 0.3781
H14_25 H 0.6131 0.3178 0.3598
C19_25 C 0.63839(19) 0.28332(18) 0.3336(2)
H15_25 H 0.6517 0.2649 0.3391
H16_25 H 0.6515 0.2982 0.3213
C20_25 C 0.6120(3) 0.2727(3) 0.3139(2)
H17_25 H 0.6016 0.2546 0.3240
H18_25 H 0.5968 0.2899 0.3114
H19_25 H 0.6200 0.2663 0.2932
C21_25 C 0.56770(8) 0.44685(9) 0.51868(9)
H20_25 H 0.5459 0.4444 0.5234
C22_25 C 0.6153(2) 0.47291(15) 0.50978(18)
H21_25 H 0.6288 0.4908 0.5086
C23_25 C 0.5849(2) 0.4733(2) 0.5198(2)
H22_25 H 0.5758 0.4923 0.5277
S2_25 S 0.62478(4) 0.25005(4) 0.68720(3)
O5_25 O 0.60803(5) 0.30752(5) 0.59803(6)
O6_25 O 0.65152(5) 0.31689(5) 0.62401(6)
O7_22 O 0.44896(5) 0.20782(6) 0.59035(5)
O8_22 O 0.43921(6) 0.20842(11) 0.53871(6)
N4_25 N 0.60822(6) 0.19127(7) 0.57346(6)
C24_25 C 0.63248(7) 0.29741(7) 0.61258(7)
C25_25 C 0.60577(7) 0.16095(8) 0.58315(8)
C26_25 C 0.63836(7) 0.26261(7) 0.61532(7)
C27_25 C 0.51215(7) 0.20875(7) 0.58296(7)
H23_25 H 0.5033 0.2095 0.6035
C28_25 C 0.54447(7) 0.20756(8) 0.57928(7)
H24_25 H 0.5577 0.2073 0.5974
C29_25 C 0.62021(7) 0.24325(8) 0.59818(7)
H25_25 H 0.6062 0.2531 0.5838
C30_25 C 0.61935(7) 0.20909(8) 0.59891(7)
C31_25 C 0.55798(8) 0.20671(9) 0.54932(7)
C32_25 C 0.62370(7) 0.18790(7) 0.62272(7)
H26_25 H 0.6316 0.1929 0.6431
C33_25 C 0.59338(7) 0.20392(9) 0.54477(7)
H27_25 H 0.6023 0.2249 0.5399
H28_25 H 0.5979 0.1898 0.5267
C34_25 C 0.66550(8) 0.25304(8) 0.63608(8)
H29_25 H 0.6705 0.2305 0.6323
H30_25 H 0.6843 0.2656 0.6303
C35_22 C 0.49257(7) 0.20887(9) 0.55677(7)
C36_25 C 0.65845(10) 0.25774(9) 0.67084(9)
C37_22 C 0.45740(8) 0.20832(10) 0.56068(8)
C38_25 C 0.53815(9) 0.20712(14) 0.52300(8)
H31_25 H 0.5470 0.2066 0.5024
C39_25 C 0.50554(9) 0.20836(14) 0.52662(8)
H32_22 H 0.4922 0.2089 0.5086
C40_25 C 0.59514(9) 0.13434(10) 0.56279(8)
H33_25 H 0.5811 0.1204 0.5752
H34_25 H 0.5828 0.1429 0.5448
C41_25 C 0.62261(14) 0.11514(14) 0.55014(15)
H35_25 H 0.6346 0.1281 0.5349
H36_25 H 0.6369 0.1098 0.5678
C42_25 C 0.61161(19) 0.0836(2) 0.53332(18)
H37_25 H 0.5983 0.0891 0.5149
H38_25 H 0.5985 0.0713 0.5482
C43_25 C 0.6380(3) 0.0639(2) 0.5227(3)
H39_25 H 0.6484 0.0740 0.5046
H40_25 H 0.6532 0.0614 0.5399
H41_25 H 0.6300 0.0432 0.5163
C44_25 C 0.68230(8) 0.26868(9) 0.69685(9)
H42_25 H 0.7041 0.2734 0.6944
C45_25 C 0.6347(2) 0.25978(18) 0.72291(15)
H43_25 H 0.6212 0.2586 0.7408
C46_25 C 0.6651(2) 0.2698(2) 0.7233(2)
H44_25 H 0.6742 0.2777 0.7423
H45_16 H 0.814016 0.345102 0.476752
H46_22 H 0.435984 0.226752 0.595102
S1_26 S 0.31280(3) 0.87522(4) 0.25005(4)
O1_26 O 0.40197(6) 0.89197(5) 0.30752(5)
O2_26 O 0.37599(6) 0.84848(5) 0.31689(5)
N2_26 N 0.42654(6) 0.89178(6) 0.19127(7)
C1_26 C 0.38742(7) 0.86752(7) 0.29741(7)
C2_26 C 0.41685(8) 0.89423(7) 0.16095(8)
C3_26 C 0.38468(7) 0.86164(7) 0.26261(7)
C4_26 C 0.41704(7) 0.98785(7) 0.20875(7)
H1_26 H 0.3965 0.9967 0.2095
C5_26 C 0.42072(7) 0.95553(7) 0.20756(8)
H2_26 H 0.4026 0.9423 0.2073
C6_26 C 0.40182(7) 0.87979(7) 0.24325(8)
H3_26 H 0.4162 0.8938 0.2531
C7_26 C 0.40109(7) 0.88065(7) 0.20909(8)
C8_26 C 0.45068(7) 0.94202(8) 0.20671(9)
C9_26 C 0.37728(7) 0.87630(7) 0.18790(7)
H4_26 H 0.3569 0.8684 0.1929
C10_26 C 0.45523(7) 0.90662(7) 0.20392(9)
H5_26 H 0.4601 0.8977 0.2249
H6_26 H 0.4733 0.9021 0.1898
C11_26 C 0.36392(8) 0.83450(8) 0.25304(8)
H7_26 H 0.3677 0.8295 0.2305
H8_26 H 0.3697 0.8157 0.2656
C13_26 C 0.32916(9) 0.84155(10) 0.25774(9)
C15_26 C 0.47700(8) 0.96185(9) 0.20712(14)
H9_26 H 0.4976 0.9530 0.2066
C16_26 C 0.47338(8) 0.99446(9) 0.20836(14)
C17_26 C 0.43721(8) 0.90486(9) 0.13434(10)
H11_26 H 0.4248 0.9189 0.1204
H12_26 H 0.4552 0.9172 0.1429
C18_26 C 0.44986(15) 0.87739(14) 0.11514(14)
H13_26 H 0.4651 0.8654 0.1281
H14_26 H 0.4322 0.8631 0.1098
C19_26 C 0.46668(18) 0.88839(19) 0.0836(2)
H15_26 H 0.4851 0.9017 0.0891
H16_26 H 0.4518 0.9015 0.0713
C20_26 C 0.4773(3) 0.8620(3) 0.0639(2)
H17_26 H 0.4954 0.8516 0.0740
H18_26 H 0.4601 0.8468 0.0614
H19_26 H 0.4837 0.8700 0.0432
C21_26 C 0.30315(9) 0.81770(8) 0.26868(9)
H20_26 H 0.3056 0.7959 0.2734
C22_26 C 0.27709(15) 0.8653(2) 0.25978(18)
H21_26 H 0.2592 0.8788 0.2586
C23_26 C 0.2767(2) 0.8349(2) 0.2698(2)
H22_26 H 0.2577 0.8258 0.2777
S2_26 S 0.49995(4) 0.87478(4) 0.43720(3)
O5_26 O 0.44248(5) 0.85803(5) 0.34803(6)
O6_26 O 0.43311(5) 0.90152(5) 0.37401(6)
O7_23 O 0.54218(6) 0.69896(5) 0.34035(5)
O8_23 O 0.54158(11) 0.68921(6) 0.28871(6)
N4_26 N 0.55873(7) 0.85822(6) 0.32346(6)
C24_26 C 0.45259(7) 0.88248(7) 0.36258(7)
C25_26 C 0.58905(8) 0.85577(7) 0.33315(8)
C26_26 C 0.48739(7) 0.88836(7) 0.36532(7)
C27_26 C 0.54125(7) 0.76215(7) 0.33296(7)
H23_26 H 0.5405 0.7533 0.3535
C28_26 C 0.54244(8) 0.79447(7) 0.32928(7)
H24_26 H 0.5427 0.8077 0.3474
C29_26 C 0.50675(8) 0.87021(7) 0.34818(7)
H25_26 H 0.4969 0.8562 0.3338
C30_26 C 0.54091(8) 0.86935(7) 0.34891(7)
C31_26 C 0.54329(9) 0.80798(8) 0.29932(7)
C32_26 C 0.56210(7) 0.87370(7) 0.37272(7)
H26_26 H 0.5571 0.8816 0.3931
C33_26 C 0.54608(9) 0.84338(7) 0.29477(7)
H27_26 H 0.5251 0.8523 0.2899
H28_26 H 0.5602 0.8479 0.2767
C34_26 C 0.49696(8) 0.91550(8) 0.38608(8)
H29_26 H 0.5195 0.9205 0.3823
H30_26 H 0.4844 0.9343 0.3803
C35_23 C 0.54113(9) 0.74257(7) 0.30677(7)
C36_26 C 0.49226(9) 0.90845(10) 0.42084(9)
C37_23 C 0.54168(10) 0.70740(8) 0.31068(8)
C38_26 C 0.54288(14) 0.78815(9) 0.27300(8)
H31_26 H 0.5434 0.7970 0.2524
C39_26 C 0.54164(14) 0.75554(9) 0.27662(8)
H32_23 H 0.5411 0.7422 0.2586
C40_26 C 0.61566(10) 0.84514(9) 0.31279(8)
H33_26 H 0.6296 0.8311 0.3252
H34_26 H 0.6071 0.8328 0.2948
C41_26 C 0.63486(14) 0.87261(14) 0.30014(15)
H35_26 H 0.6219 0.8846 0.2849
H36_26 H 0.6402 0.8869 0.3178
C42_26 C 0.6664(2) 0.86161(19) 0.28332(18)
H37_26 H 0.6609 0.8483 0.2649
H38_26 H 0.6787 0.8485 0.2982
C43_26 C 0.6861(2) 0.8880(3) 0.2727(3)
H39_26 H 0.6760 0.8984 0.2546
H40_26 H 0.6886 0.9032 0.2899
H41_26 H 0.7068 0.8800 0.2663
C44_26 C 0.48132(9) 0.93230(8) 0.44685(9)
H42_26 H 0.4766 0.9541 0.4444
C45_26 C 0.49022(18) 0.8847(2) 0.47291(15)
H43_26 H 0.4914 0.8712 0.4908
C46_26 C 0.4802(2) 0.9151(2) 0.4733(2)
H44_26 H 0.4723 0.9242 0.4923
H46_23 H 0.523248 0.685984 0.345102
O3_17 O 0.80104(5) 0.65965(5) 0.04218(6)
O4_17 O 0.81079(6) 0.71129(6) 0.04158(11)
N2_27 N 0.64178(6) 0.67654(6) 0.05873(7)
C2_27 C 0.64423(7) 0.66685(8) 0.08905(8)
C4_27 C 0.73785(7) 0.66704(7) 0.04125(7)
H1_27 H 0.7467 0.6465 0.0405
C5_27 C 0.70553(7) 0.67072(7) 0.04244(8)
H2_27 H 0.6923 0.6526 0.0427
C6_27 C 0.62979(7) 0.65182(7) 0.00675(8)
C7_27 C 0.63065(7) 0.65109(7) 0.04091(8)
C8_27 C 0.69202(8) 0.70068(7) 0.04329(9)
C9_27 C 0.62630(7) 0.62728(7) 0.06210(7)
H4_27 H 0.6184 0.6069 0.0571
C10_27 C 0.65662(7) 0.70523(7) 0.04608(9)
H5_27 H 0.6477 0.7101 0.0251
H6_27 H 0.6521 0.7233 0.0602
H7_27 H 0.5795 0.6177 0.0195
C12_17 C 0.75743(7) 0.69323(7) 0.04113(9)
C14_17 C 0.79260(8) 0.68932(8) 0.04168(10)
C15_27 C 0.71185(9) 0.72700(8) 0.04288(14)
H9_27 H 0.7030 0.7476 0.0434
C16_27 C 0.74446(9) 0.72338(8) 0.04164(14)
H10_17 H 0.7578 0.7414 0.0411
C17_27 C 0.65486(9) 0.68721(8) 0.11566(10)
H11_27 H 0.6689 0.6748 0.1296
H12_27 H 0.6672 0.7052 0.1071
C18_27 C 0.62739(14) 0.69986(15) 0.13486(14)
H13_27 H 0.6154 0.7151 0.1219
H14_27 H 0.6131 0.6822 0.1402
C19_27 C 0.63839(19) 0.71668(18) 0.1664(2)
H15_27 H 0.6517 0.7351 0.1609
H16_27 H 0.6515 0.7018 0.1787
C20_27 C 0.6120(3) 0.7273(3) 0.1861(2)
H17_27 H 0.6016 0.7454 0.1760
H18_27 H 0.5968 0.7101 0.1886
H19_27 H 0.6200 0.7337 0.2068
H45_17 H 0.814016 0.654898 0.0232485
S1_27 S 0.62522(4) 0.56280(3) 0.99995(4)
O1_27 O 0.64197(5) 0.65197(6) 0.94248(5)
O2_27 O 0.59848(5) 0.62599(6) 0.93311(5)
C1_27 C 0.61752(7) 0.63742(7) 0.95259(7)
C3_27 C 0.61164(7) 0.63468(7) 0.98739(7)
H3_27 H 0.6438 0.6662 0.9969
C11_27 C 0.58450(8) 0.61392(8) 0.99696(8)
H8_27 H 0.5657 0.6197 0.9844
C13_27 C 0.59155(10) 0.57916(9) 0.99226(9)
C21_27 C 0.56770(8) 0.55315(9) 0.98132(9)
H20_27 H 0.5459 0.5556 0.9766
C22_27 C 0.6153(2) 0.52709(15) 0.99022(18)
H21_27 H 0.6288 0.5092 0.9914
C23_27 C 0.5849(2) 0.5267(2) 0.9802(2)
H22_27 H 0.5758 0.5077 0.9723
S2_27 S 0.62478(4) 0.74995(4) 0.81280(3)
O5_27 O 0.60803(5) 0.69248(5) 0.90197(6)
O6_27 O 0.65152(5) 0.68311(5) 0.87599(6)
O7_24 O 0.44896(5) 0.79218(6) 0.90965(5)
O8_24 O 0.43921(6) 0.79158(11) 0.96129(6)
N4_27 N 0.60822(6) 0.80873(7) 0.92654(6)
C24_27 C 0.63248(7) 0.70259(7) 0.88742(7)
C25_27 C 0.60577(7) 0.83905(8) 0.91685(8)
C26_27 C 0.63836(7) 0.73739(7) 0.88468(7)
C27_27 C 0.51215(7) 0.79125(7) 0.91704(7)
H23_27 H 0.5033 0.7905 0.8965
C28_27 C 0.54447(7) 0.79244(8) 0.92072(7)
H24_27 H 0.5577 0.7927 0.9026
C29_27 C 0.62021(7) 0.75675(8) 0.90182(7)
H25_27 H 0.6062 0.7469 0.9162
C30_27 C 0.61935(7) 0.79091(8) 0.90109(7)
C31_27 C 0.55798(8) 0.79329(9) 0.95068(7)
C32_27 C 0.62370(7) 0.81210(7) 0.87728(7)
H26_27 H 0.6316 0.8071 0.8569
C33_27 C 0.59338(7) 0.79608(9) 0.95523(7)
H27_27 H 0.6023 0.7751 0.9601
H28_27 H 0.5979 0.8102 0.9733
C34_27 C 0.66550(8) 0.74696(8) 0.86392(8)
H29_27 H 0.6705 0.7695 0.8677
H30_27 H 0.6843 0.7344 0.8697
C35_24 C 0.49257(7) 0.79113(9) 0.94323(7)
C36_27 C 0.65845(10) 0.74226(9) 0.82916(9)
C37_24 C 0.45740(8) 0.79168(10) 0.93932(8)
C38_27 C 0.53815(9) 0.79288(14) 0.97700(8)
H31_27 H 0.5470 0.7934 0.9976
C39_27 C 0.50554(9) 0.79164(14) 0.97338(8)
H32_24 H 0.4922 0.7911 0.9914
C40_27 C 0.59514(9) 0.86566(10) 0.93721(8)
H33_27 H 0.5811 0.8796 0.9248
H34_27 H 0.5828 0.8571 0.9552
C41_27 C 0.62261(14) 0.88486(14) 0.94986(15)
H35_27 H 0.6346 0.8719 0.9651
H36_27 H 0.6369 0.8902 0.9322
C42_27 C 0.61161(19) 0.9164(2) 0.96668(18)
H37_27 H 0.5983 0.9109 0.9851
H38_27 H 0.5985 0.9287 0.9518
C43_27 C 0.6380(3) 0.9361(2) 0.9773(3)
H39_27 H 0.6484 0.9260 0.9954
H40_27 H 0.6532 0.9386 0.9601
H41_27 H 0.6300 0.9568 0.9837
C44_27 C 0.68230(8) 0.73132(9) 0.80315(9)
H42_27 H 0.7041 0.7266 0.8056
C45_27 C 0.6347(2) 0.74022(18) 0.77709(15)
H43_27 H 0.6212 0.7414 0.7592
C46_27 C 0.6651(2) 0.7302(2) 0.7767(2)
H44_27 H 0.6742 0.7223 0.7577
H46_24 H 0.435984 0.773248 0.904898
S1_28 S 0.50005(4) 0.62522(4) 0.43720(3)
O1_28 O 0.55752(5) 0.64197(5) 0.34803(6)
O2_28 O 0.56689(5) 0.59848(5) 0.37401(6)
O3_18 O 0.45782(6) 0.80104(5) 0.34035(5)
O4_18 O 0.45842(11) 0.81079(6) 0.28871(6)
N2_28 N 0.44127(7) 0.64178(6) 0.32346(6)
C1_28 C 0.54741(7) 0.61752(7) 0.36258(7)
C2_28 C 0.41095(8) 0.64423(7) 0.33315(8)
C3_28 C 0.51261(7) 0.61164(7) 0.36532(7)
C4_28 C 0.45875(7) 0.73785(7) 0.33296(7)
H1_28 H 0.4595 0.7467 0.3535
C5_28 C 0.45756(8) 0.70553(7) 0.32928(7)
H2_28 H 0.4573 0.6923 0.3474
C6_28 C 0.49325(8) 0.62979(7) 0.34818(7)
H3_28 H 0.5031 0.6438 0.3338
C7_28 C 0.45909(8) 0.63065(7) 0.34891(7)
C8_28 C 0.45671(9) 0.69202(8) 0.29932(7)
C9_28 C 0.43790(7) 0.62630(7) 0.37272(7)
H4_28 H 0.4429 0.6184 0.3931
C10_28 C 0.45392(9) 0.65662(7) 0.29477(7)
H5_28 H 0.4749 0.6477 0.2899
H6_28 H 0.4398 0.6521 0.2767
C11_28 C 0.50304(8) 0.58450(8) 0.38608(8)
H7_28 H 0.4805 0.5795 0.3823
H8_28 H 0.5156 0.5657 0.3803
C12_18 C 0.45887(9) 0.75743(7) 0.30677(7)
C13_28 C 0.50774(9) 0.59155(10) 0.42084(9)
C14_18 C 0.45832(10) 0.79260(8) 0.31068(8)
C15_28 C 0.45712(14) 0.71185(9) 0.27300(8)
H9_28 H 0.4566 0.7030 0.2524
C16_28 C 0.45836(14) 0.74446(9) 0.27662(8)
H10_18 H 0.4589 0.7578 0.2586
C17_28 C 0.38434(10) 0.65486(9) 0.31279(8)
H11_28 H 0.3704 0.6689 0.3252
H12_28 H 0.3929 0.6672 0.2948
C18_28 C 0.36514(14) 0.62739(14) 0.30014(15)
H13_28 H 0.3781 0.6154 0.2849
H14_28 H 0.3598 0.6131 0.3178
C19_28 C 0.3336(2) 0.63839(19) 0.28332(18)
H15_28 H 0.3391 0.6517 0.2649
H16_28 H 0.3213 0.6515 0.2982
C20_28 C 0.3139(2) 0.6120(3) 0.2727(3)
H17_28 H 0.3240 0.6016 0.2546
H18_28 H 0.3114 0.5968 0.2899
H19_28 H 0.2932 0.6200 0.2663
C21_28 C 0.51868(9) 0.56770(8) 0.44685(9)
H20_28 H 0.5234 0.5459 0.4444
C22_28 C 0.50978(18) 0.6153(2) 0.47291(15)
H21_28 H 0.5086 0.6288 0.4908
C23_28 C 0.5198(2) 0.5849(2) 0.4733(2)
H22_28 H 0.5277 0.5758 0.4923
S2_28 S 0.68720(3) 0.62478(4) 0.25005(4)
O5_28 O 0.59803(6) 0.60803(5) 0.30752(5)
O6_28 O 0.62401(6) 0.65152(5) 0.31689(5)
O7_25 O 0.59035(5) 0.44896(5) 0.20782(6)
O8_25 O 0.53871(6) 0.43921(6) 0.20842(11)
N4_28 N 0.57346(6) 0.60822(6) 0.19127(7)
C24_28 C 0.61258(7) 0.63248(7) 0.29741(7)
C25_28 C 0.58315(8) 0.60577(7) 0.16095(8)
C26_28 C 0.61532(7) 0.63836(7) 0.26261(7)
C27_28 C 0.58296(7) 0.51215(7) 0.20875(7)
H23_28 H 0.6035 0.5033 0.2095
C28_28 C 0.57928(7) 0.54447(7) 0.20756(8)
H24_28 H 0.5974 0.5577 0.2073
C29_28 C 0.59818(7) 0.62021(7) 0.24325(8)
H25_28 H 0.5838 0.6062 0.2531
C30_28 C 0.59891(7) 0.61935(7) 0.20909(8)
C31_28 C 0.54932(7) 0.55798(8) 0.20671(9)
C32_28 C 0.62272(7) 0.62370(7) 0.18790(7)
H26_28 H 0.6431 0.6316 0.1929
C33_28 C 0.54477(7) 0.59338(7) 0.20392(9)
H27_28 H 0.5399 0.6023 0.2249
H28_28 H 0.5267 0.5979 0.1898
C34_28 C 0.63608(8) 0.66550(8) 0.25304(8)
H29_28 H 0.6323 0.6705 0.2305
H30_28 H 0.6303 0.6843 0.2656
C35_25 C 0.55677(7) 0.49257(7) 0.20887(9)
C36_28 C 0.67084(9) 0.65845(10) 0.25774(9)
C37_25 C 0.56068(8) 0.45740(8) 0.20832(10)
C38_28 C 0.52300(8) 0.53815(9) 0.20712(14)
H31_28 H 0.5024 0.5470 0.2066
C39_28 C 0.52662(8) 0.50554(9) 0.20836(14)
H32_25 H 0.5086 0.4922 0.2089
C40_28 C 0.56279(8) 0.59514(9) 0.13434(10)
H33_28 H 0.5752 0.5811 0.1204
H34_28 H 0.5448 0.5828 0.1429
C41_28 C 0.55014(15) 0.62261(14) 0.11514(14)
H35_28 H 0.5349 0.6346 0.1281
H36_28 H 0.5678 0.6369 0.1098
C42_28 C 0.53332(18) 0.61161(19) 0.0836(2)
H37_28 H 0.5149 0.5983 0.0891
H38_28 H 0.5482 0.5985 0.0713
C43_28 C 0.5227(3) 0.6380(3) 0.0639(2)
H39_28 H 0.5046 0.6484 0.0740
H40_28 H 0.5399 0.6532 0.0614
H41_28 H 0.5163 0.6300 0.0432
C44_28 C 0.69685(9) 0.68230(8) 0.26868(9)
H42_28 H 0.6944 0.7041 0.2734
C45_28 C 0.72291(15) 0.6347(2) 0.25978(18)
H43_28 H 0.7408 0.6212 0.2586
C46_28 C 0.7233(2) 0.6651(2) 0.2698(2)
H44_28 H 0.7423 0.6742 0.2777
H45_18 H 0.476752 0.814016 0.345102
H46_25 H 0.595102 0.435984 0.226752
S1_29 S 0.87478(4) 0.56280(3) 0.00005(4)
O1_29 O 0.85803(5) 0.65197(6) 0.05752(5)
O2_29 O 0.90152(5) 0.62599(6) 0.06689(5)
C1_29 C 0.88248(7) 0.63742(7) 0.04741(7)
C3_29 C 0.88836(7) 0.63468(7) 0.01261(7)
H3_29 H 0.8562 0.6662 0.0031
C11_29 C 0.91550(8) 0.61392(8) 0.00304(8)
H8_29 H 0.9343 0.6197 0.0156
C13_29 C 0.90845(10) 0.57916(9) 0.00774(9)
C21_29 C 0.93230(8) 0.55315(9) 0.01868(9)
H20_29 H 0.9541 0.5556 0.0234
C22_29 C 0.8847(2) 0.52709(15) 0.00978(18)
H21_29 H 0.8712 0.5092 0.0086
C23_29 C 0.9151(2) 0.5267(2) 0.0198(2)
H22_29 H 0.9242 0.5077 0.0277
S2_29 S 0.87522(4) 0.74995(4) 0.18720(3)
O5_29 O 0.89197(5) 0.69248(5) 0.09803(6)
O6_29 O 0.84848(5) 0.68311(5) 0.12401(6)
N4_29 N 0.89178(6) 0.80873(7) 0.07346(6)
C24_29 C 0.86752(7) 0.70259(7) 0.11258(7)
C25_29 C 0.89423(7) 0.83905(8) 0.08315(8)
C26_29 C 0.86164(7) 0.73739(7) 0.11532(7)
C27_29 C 0.98785(7) 0.79125(7) 0.08296(7)
H23_29 H 0.9967 0.7905 0.1035
C28_29 C 0.95553(7) 0.79244(8) 0.07928(7)
H24_29 H 0.9423 0.7927 0.0974
C29_29 C 0.87979(7) 0.75675(8) 0.09818(7)
H25_29 H 0.8938 0.7469 0.0838
C30_29 C 0.88065(7) 0.79091(8) 0.09891(7)
C31_29 C 0.94202(8) 0.79329(9) 0.04932(7)
C32_29 C 0.87630(7) 0.81210(7) 0.12272(7)
H26_29 H 0.8684 0.8071 0.1431
C33_29 C 0.90662(7) 0.79608(9) 0.04477(7)
H27_29 H 0.8977 0.7751 0.0399
H28_29 H 0.9021 0.8102 0.0267
C34_29 C 0.83450(8) 0.74696(8) 0.13608(8)
H29_29 H 0.8295 0.7695 0.1323
H30_29 H 0.8157 0.7344 0.1303
C36_29 C 0.84155(10) 0.74226(9) 0.17084(9)
C38_29 C 0.96185(9) 0.79288(14) 0.02300(8)
H31_29 H 0.9530 0.7934 0.0024
C39_29 C 0.99446(9) 0.79164(14) 0.02662(8)
C40_29 C 0.90486(9) 0.86566(10) 0.06279(8)
H33_29 H 0.9189 0.8796 0.0752
H34_29 H 0.9172 0.8571 0.0448
C41_29 C 0.87739(14) 0.88486(14) 0.05014(15)
H35_29 H 0.8654 0.8719 0.0349
H36_29 H 0.8631 0.8902 0.0678
C42_29 C 0.88839(19) 0.9164(2) 0.03332(18)
H37_29 H 0.9017 0.9109 0.0149
H38_29 H 0.9015 0.9287 0.0482
C43_29 C 0.8620(3) 0.9361(2) 0.0227(3)
H39_29 H 0.8516 0.9260 0.0046
H40_29 H 0.8468 0.9386 0.0399
H41_29 H 0.8700 0.9568 0.0163
C44_29 C 0.81770(8) 0.73132(9) 0.19685(9)
H42_29 H 0.7959 0.7266 0.1944
C45_29 C 0.8653(2) 0.74022(18) 0.22291(15)
H43_29 H 0.8788 0.7414 0.2408
C46_29 C 0.8349(2) 0.7302(2) 0.2233(2)
H44_29 H 0.8258 0.7223 0.2423
O3_19 O 0.69896(5) 0.65965(5) 0.95782(6)
O4_19 O 0.68921(6) 0.71129(6) 0.95842(11)
N2_29 N 0.85822(6) 0.67654(6) 0.94127(7)
C2_29 C 0.85577(7) 0.66685(8) 0.91095(8)
C4_29 C 0.76215(7) 0.66704(7) 0.95875(7)
H1_29 H 0.7533 0.6465 0.9595
C5_29 C 0.79447(7) 0.67072(7) 0.95756(8)
H2_29 H 0.8077 0.6526 0.9573
C6_29 C 0.87021(7) 0.65182(7) 0.99325(8)
C7_29 C 0.86935(7) 0.65109(7) 0.95909(8)
C8_29 C 0.80798(8) 0.70068(7) 0.95671(9)
C9_29 C 0.87370(7) 0.62728(7) 0.93790(7)
H4_29 H 0.8816 0.6069 0.9429
C10_29 C 0.84338(7) 0.70523(7) 0.95392(9)
H5_29 H 0.8523 0.7101 0.9749
H6_29 H 0.8479 0.7233 0.9398
H7_29 H 0.9205 0.6177 0.9805
C12_19 C 0.74257(7) 0.69323(7) 0.95887(9)
C14_19 C 0.70740(8) 0.68932(8) 0.95832(10)
C15_29 C 0.78815(9) 0.72700(8) 0.95712(14)
H9_29 H 0.7970 0.7476 0.9566
C16_29 C 0.75554(9) 0.72338(8) 0.95836(14)
H10_19 H 0.7422 0.7414 0.9589
C17_29 C 0.84514(9) 0.68721(8) 0.88434(10)
H11_29 H 0.8311 0.6748 0.8704
H12_29 H 0.8328 0.7052 0.8929
C18_29 C 0.87261(14) 0.69986(15) 0.86514(14)
H13_29 H 0.8846 0.7151 0.8781
H14_29 H 0.8869 0.6822 0.8598
C19_29 C 0.86161(19) 0.71668(18) 0.8336(2)
H15_29 H 0.8483 0.7351 0.8391
H16_29 H 0.8485 0.7018 0.8213
C20_29 C 0.8880(3) 0.7273(3) 0.8139(2)
H17_29 H 0.8984 0.7454 0.8240
H18_29 H 0.9032 0.7101 0.8114
H19_29 H 0.8800 0.7337 0.7932
H45_19 H 0.685984 0.654898 0.976752
S1_30 S 0.31280(3) 0.12478(4) 0.24995(4)
O1_30 O 0.40197(6) 0.10803(5) 0.19248(5)
O2_30 O 0.37599(6) 0.15152(5) 0.18311(5)
N2_30 N 0.42654(6) 0.10822(6) 0.30873(7)
C1_30 C 0.38742(7) 0.13248(7) 0.20259(7)
C2_30 C 0.41685(8) 0.10577(7) 0.33905(8)
C3_30 C 0.38468(7) 0.13836(7) 0.23739(7)
C4_30 C 0.41704(7) 0.01215(7) 0.29125(7)
H1_30 H 0.3965 0.0033 0.2905
C5_30 C 0.42072(7) 0.04447(7) 0.29244(8)
H2_30 H 0.4026 0.0577 0.2927
C6_30 C 0.40182(7) 0.12021(7) 0.25675(8)
H3_30 H 0.4162 0.1062 0.2469
C7_30 C 0.40109(7) 0.11935(7) 0.29091(8)
C8_30 C 0.45068(7) 0.05798(8) 0.29329(9)
C9_30 C 0.37728(7) 0.12370(7) 0.31210(7)
H4_30 H 0.3569 0.1316 0.3071
C10_30 C 0.45523(7) 0.09338(7) 0.29608(9)
H5_30 H 0.4601 0.1023 0.2751
H6_30 H 0.4733 0.0979 0.3102
C11_30 C 0.36392(8) 0.16550(8) 0.24696(8)
H7_30 H 0.3677 0.1705 0.2695
H8_30 H 0.3697 0.1843 0.2344
C13_30 C 0.32916(9) 0.15845(10) 0.24226(9)
C15_30 C 0.47700(8) 0.03815(9) 0.29288(14)
H9_30 H 0.4976 0.0470 0.2934
C16_30 C 0.47338(8) 0.00554(9) 0.29164(14)
C17_30 C 0.43721(8) 0.09514(9) 0.36566(10)
H11_30 H 0.4248 0.0811 0.3796
H12_30 H 0.4552 0.0828 0.3571
C18_30 C 0.44986(15) 0.12261(14) 0.38486(14)
H13_30 H 0.4651 0.1346 0.3719
H14_30 H 0.4322 0.1369 0.3902
C19_30 C 0.46668(18) 0.11161(19) 0.4164(2)
H15_30 H 0.4851 0.0983 0.4109
H16_30 H 0.4518 0.0985 0.4287
C20_30 C 0.4773(3) 0.1380(3) 0.4361(2)
H17_30 H 0.4954 0.1484 0.4260
H18_30 H 0.4601 0.1532 0.4386
H19_30 H 0.4837 0.1300 0.4568
C21_30 C 0.30315(9) 0.18230(8) 0.23132(9)
H20_30 H 0.3056 0.2041 0.2266
C22_30 C 0.27709(15) 0.1347(2) 0.24022(18)
H21_30 H 0.2592 0.1212 0.2414
C23_30 C 0.2767(2) 0.1651(2) 0.2302(2)
H22_30 H 0.2577 0.1742 0.2223
S2_30 S 0.49995(4) 0.12522(4) 0.06280(3)
O5_30 O 0.44248(5) 0.14197(5) 0.15197(6)
O6_30 O 0.43311(5) 0.09848(5) 0.12599(6)
O7_26 O 0.54218(6) 0.30104(5) 0.15965(5)
O8_26 O 0.54158(11) 0.31079(6) 0.21129(6)
N4_30 N 0.55873(7) 0.14178(6) 0.17654(6)
C24_30 C 0.45259(7) 0.11752(7) 0.13742(7)
C25_30 C 0.58905(8) 0.14423(7) 0.16685(8)
C26_30 C 0.48739(7) 0.11164(7) 0.13468(7)
C27_30 C 0.54125(7) 0.23785(7) 0.16704(7)
H23_30 H 0.5405 0.2467 0.1465
C28_30 C 0.54244(8) 0.20553(7) 0.17072(7)
H24_30 H 0.5427 0.1923 0.1526
C29_30 C 0.50675(8) 0.12979(7) 0.15182(7)
H25_30 H 0.4969 0.1438 0.1662
C30_30 C 0.54091(8) 0.13065(7) 0.15109(7)
C31_30 C 0.54329(9) 0.19202(8) 0.20068(7)
C32_30 C 0.56210(7) 0.12630(7) 0.12728(7)
H26_30 H 0.5571 0.1184 0.1069
C33_30 C 0.54608(9) 0.15662(7) 0.20523(7)
H27_30 H 0.5251 0.1477 0.2101
H28_30 H 0.5602 0.1521 0.2233
C34_30 C 0.49696(8) 0.08450(8) 0.11392(8)
H29_30 H 0.5195 0.0795 0.1177
H30_30 H 0.4844 0.0657 0.1197
C35_26 C 0.54113(9) 0.25743(7) 0.19323(7)
C36_30 C 0.49226(9) 0.09155(10) 0.07916(9)
C37_26 C 0.54168(10) 0.29260(8) 0.18932(8)
C38_30 C 0.54288(14) 0.21185(9) 0.22700(8)
H31_30 H 0.5434 0.2030 0.2476
C39_30 C 0.54164(14) 0.24446(9) 0.22338(8)
H32_26 H 0.5411 0.2578 0.2414
C40_30 C 0.61566(10) 0.15486(9) 0.18721(8)
H33_30 H 0.6296 0.1689 0.1748
H34_30 H 0.6071 0.1672 0.2052
C41_30 C 0.63486(14) 0.12739(14) 0.19986(15)
H35_30 H 0.6219 0.1154 0.2151
H36_30 H 0.6402 0.1131 0.1822
C42_30 C 0.6664(2) 0.13839(19) 0.21668(18)
H37_30 H 0.6609 0.1517 0.2351
H38_30 H 0.6787 0.1515 0.2018
C43_30 C 0.6861(2) 0.1120(3) 0.2273(3)
H39_30 H 0.6760 0.1016 0.2454
H40_30 H 0.6886 0.0968 0.2101
H41_30 H 0.7068 0.1200 0.2337
C44_30 C 0.48132(9) 0.06770(8) 0.05315(9)
H42_30 H 0.4766 0.0459 0.0556
C45_30 C 0.49022(18) 0.1153(2) 0.02709(15)
H43_30 H 0.4914 0.1288 0.0092
C46_30 C 0.4802(2) 0.0849(2) 0.0267(2)
H44_30 H 0.4723 0.0758 0.0077
H46_26 H 0.523248 0.314016 0.154898
S1_31 S 0.18720(3) 0.87522(4) 0.74995(4)
O1_31 O 0.09803(6) 0.89197(5) 0.69248(5)
O2_31 O 0.12401(6) 0.84848(5) 0.68311(5)
N2_31 N 0.07346(6) 0.89178(6) 0.80873(7)
C1_31 C 0.11258(7) 0.86752(7) 0.70259(7)
C2_31 C 0.08315(8) 0.89423(7) 0.83905(8)
C3_31 C 0.11532(7) 0.86164(7) 0.73739(7)
C4_31 C 0.08296(7) 0.98785(7) 0.79125(7)
H1_31 H 0.1035 0.9967 0.7905
C5_31 C 0.07928(7) 0.95553(7) 0.79244(8)
H2_31 H 0.0974 0.9423 0.7927
C6_31 C 0.09818(7) 0.87979(7) 0.75675(8)
H3_31 H 0.0838 0.8938 0.7469
C7_31 C 0.09891(7) 0.88065(7) 0.79091(8)
C8_31 C 0.04932(7) 0.94202(8) 0.79329(9)
C9_31 C 0.12272(7) 0.87630(7) 0.81210(7)
H4_31 H 0.1431 0.8684 0.8071
C10_31 C 0.04477(7) 0.90662(7) 0.79608(9)
H5_31 H 0.0399 0.8977 0.7751
H6_31 H 0.0267 0.9021 0.8102
C11_31 C 0.13608(8) 0.83450(8) 0.74696(8)
H7_31 H 0.1323 0.8295 0.7695
H8_31 H 0.1303 0.8157 0.7344
C13_31 C 0.17084(9) 0.84155(10) 0.74226(9)
C15_31 C 0.02300(8) 0.96185(9) 0.79288(14)
H9_31 H 0.0024 0.9530 0.7934
C16_31 C 0.02662(8) 0.99446(9) 0.79164(14)
C17_31 C 0.06279(8) 0.90486(9) 0.86566(10)
H11_31 H 0.0752 0.9189 0.8796
H12_31 H 0.0448 0.9172 0.8571
C18_31 C 0.05014(15) 0.87739(14) 0.88486(14)
H13_31 H 0.0349 0.8654 0.8719
H14_31 H 0.0678 0.8631 0.8902
C19_31 C 0.03332(18) 0.88839(19) 0.9164(2)
H15_31 H 0.0149 0.9017 0.9109
H16_31 H 0.0482 0.9015 0.9287
C20_31 C 0.0227(3) 0.8620(3) 0.9361(2)
H17_31 H 0.0046 0.8516 0.9260
H18_31 H 0.0399 0.8468 0.9386
H19_31 H 0.0163 0.8700 0.9568
C21_31 C 0.19685(9) 0.81770(8) 0.73132(9)
H20_31 H 0.1944 0.7959 0.7266
C22_31 C 0.22291(15) 0.8653(2) 0.74022(18)
H21_31 H 0.2408 0.8788 0.7414
C23_31 C 0.2233(2) 0.8349(2) 0.7302(2)
H22_31 H 0.2423 0.8258 0.7223
S2_31 S 0.00005(4) 0.87478(4) 0.56280(3)
O5_31 O 0.05752(5) 0.85803(5) 0.65197(6)
O6_31 O 0.06689(5) 0.90152(5) 0.62599(6)
C24_31 C 0.04741(7) 0.88248(7) 0.63742(7)
C26_31 C 0.01261(7) 0.88836(7) 0.63468(7)
H25_31 H 0.0031 0.8562 0.6662
C34_31 C 0.00304(8) 0.91550(8) 0.61392(8)
H30_31 H 0.0156 0.9343 0.6197
C36_31 C 0.00774(9) 0.90845(10) 0.57916(9)
C44_31 C 0.01868(9) 0.93230(8) 0.55315(9)
H42_31 H 0.0234 0.9541 0.5556
C45_31 C 0.00978(18) 0.8847(2) 0.52709(15)
H43_31 H 0.0086 0.8712 0.5092
C46_31 C 0.0198(2) 0.9151(2) 0.5267(2)
H44_31 H 0.0277 0.9242 0.5077
O7_27 O 0.95782(6) 0.69896(5) 0.65965(5)
O8_27 O 0.95842(11) 0.68921(6) 0.71129(6)
N4_31 N 0.94127(7) 0.85822(6) 0.67654(6)
C25_31 C 0.91095(8) 0.85577(7) 0.66685(8)
C27_31 C 0.95875(7) 0.76215(7) 0.66704(7)
H23_31 H 0.9595 0.7533 0.6465
C28_31 C 0.95756(8) 0.79447(7) 0.67072(7)
H24_31 H 0.9573 0.8077 0.6526
C29_31 C 0.99325(8) 0.87021(7) 0.65182(7)
C30_31 C 0.95909(8) 0.86935(7) 0.65109(7)
C31_31 C 0.95671(9) 0.80798(8) 0.70068(7)
C32_31 C 0.93790(7) 0.87370(7) 0.62728(7)
H26_31 H 0.9429 0.8816 0.6069
C33_31 C 0.95392(9) 0.84338(7) 0.70523(7)
H27_31 H 0.9749 0.8523 0.7101
H28_31 H 0.9398 0.8479 0.7233
H29_31 H 0.9805 0.9205 0.6177
C35_27 C 0.95887(9) 0.74257(7) 0.69323(7)
C37_27 C 0.95832(10) 0.70740(8) 0.68932(8)
C38_31 C 0.95712(14) 0.78815(9) 0.72700(8)
H31_31 H 0.9566 0.7970 0.7476
C39_31 C 0.95836(14) 0.75554(9) 0.72338(8)
H32_27 H 0.9589 0.7422 0.7414
C40_31 C 0.88434(10) 0.84514(9) 0.68721(8)
H33_31 H 0.8704 0.8311 0.6748
H34_31 H 0.8929 0.8328 0.7052
C41_31 C 0.86514(14) 0.87261(14) 0.69986(15)
H35_31 H 0.8781 0.8846 0.7151
H36_31 H 0.8598 0.8869 0.6822
C42_31 C 0.8336(2) 0.86161(19) 0.71668(18)
H37_31 H 0.8391 0.8483 0.7351
H38_31 H 0.8213 0.8485 0.7018
C43_31 C 0.8139(2) 0.8880(3) 0.7273(3)
H39_31 H 0.8240 0.8984 0.7454
H40_31 H 0.8114 0.9032 0.7101
H41_31 H 0.7932 0.8800 0.7337
H46_27 H 0.976752 0.685984 0.654898
S1_32 S 0.25005(4) 0.31280(3) 0.87522(4)
O1_32 O 0.30752(5) 0.40197(6) 0.89197(5)
O2_32 O 0.31689(5) 0.37599(6) 0.84848(5)
N2_32 N 0.19127(7) 0.42654(6) 0.89178(6)
C1_32 C 0.29741(7) 0.38742(7) 0.86752(7)
C2_32 C 0.16095(8) 0.41685(8) 0.89423(7)
C3_32 C 0.26261(7) 0.38468(7) 0.86164(7)
C4_32 C 0.20875(7) 0.41704(7) 0.98785(7)
H1_32 H 0.2095 0.3965 0.9967
C5_32 C 0.20756(8) 0.42072(7) 0.95553(7)
H2_32 H 0.2073 0.4026 0.9423
C6_32 C 0.24325(8) 0.40182(7) 0.87979(7)
H3_32 H 0.2531 0.4162 0.8938
C7_32 C 0.20909(8) 0.40109(7) 0.88065(7)
C8_32 C 0.20671(9) 0.45068(7) 0.94202(8)
C9_32 C 0.18790(7) 0.37728(7) 0.87630(7)
H4_32 H 0.1929 0.3569 0.8684
C10_32 C 0.20392(9) 0.45523(7) 0.90662(7)
H5_32 H 0.2249 0.4601 0.8977
H6_32 H 0.1898 0.4733 0.9021
C11_32 C 0.25304(8) 0.36392(8) 0.83450(8)
H7_32 H 0.2305 0.3677 0.8295
H8_32 H 0.2656 0.3697 0.8157
C13_32 C 0.25774(9) 0.32916(9) 0.84155(10)
C15_32 C 0.20712(14) 0.47700(8) 0.96185(9)
H9_32 H 0.2066 0.4976 0.9530
C16_32 C 0.20836(14) 0.47338(8) 0.99446(9)
C17_32 C 0.13434(10) 0.43721(8) 0.90486(9)
H11_32 H 0.1204 0.4248 0.9189
H12_32 H 0.1429 0.4552 0.9172
C18_32 C 0.11514(14) 0.44986(15) 0.87739(14)
H13_32 H 0.1281 0.4651 0.8654
H14_32 H 0.1098 0.4322 0.8631
C19_32 C 0.0836(2) 0.46668(18) 0.88839(19)
H15_32 H 0.0891 0.4851 0.9017
H16_32 H 0.0713 0.4518 0.9015
C20_32 C 0.0639(2) 0.4773(3) 0.8620(3)
H17_32 H 0.0740 0.4954 0.8516
H18_32 H 0.0614 0.4601 0.8468
H19_32 H 0.0432 0.4837 0.8700
C21_32 C 0.26868(9) 0.30315(9) 0.81770(8)
H20_32 H 0.2734 0.3056 0.7959
C22_32 C 0.25978(18) 0.27709(15) 0.8653(2)
H21_32 H 0.2586 0.2592 0.8788
C23_32 C 0.2698(2) 0.2767(2) 0.8349(2)
H22_32 H 0.2777 0.2577 0.8258
S2_32 S 0.43720(3) 0.49995(4) 0.87478(4)
O5_32 O 0.34803(6) 0.44248(5) 0.85803(5)
O6_32 O 0.37401(6) 0.43311(5) 0.90152(5)
O7_28 O 0.34035(5) 0.54218(6) 0.69896(5)
O8_28 O 0.28871(6) 0.54158(11) 0.68921(6)
N4_32 N 0.32346(6) 0.55873(7) 0.85822(6)
C24_32 C 0.36258(7) 0.45259(7) 0.88248(7)
C25_32 C 0.33315(8) 0.58905(8) 0.85577(7)
C26_32 C 0.36532(7) 0.48739(7) 0.88836(7)
C27_32 C 0.33296(7) 0.54125(7) 0.76215(7)
H23_32 H 0.3535 0.5405 0.7533
C28_32 C 0.32928(7) 0.54244(8) 0.79447(7)
H24_32 H 0.3474 0.5427 0.8077
C29_32 C 0.34818(7) 0.50675(8) 0.87021(7)
H25_32 H 0.3338 0.4969 0.8562
C30_32 C 0.34891(7) 0.54091(8) 0.86935(7)
C31_32 C 0.29932(7) 0.54329(9) 0.80798(8)
C32_32 C 0.37272(7) 0.56210(7) 0.87370(7)
H26_32 H 0.3931 0.5571 0.8816
C33_32 C 0.29477(7) 0.54608(9) 0.84338(7)
H27_32 H 0.2899 0.5251 0.8523
H28_32 H 0.2767 0.5602 0.8479
C34_32 C 0.38608(8) 0.49696(8) 0.91550(8)
H29_32 H 0.3823 0.5195 0.9205
H30_32 H 0.3803 0.4844 0.9343
C35_28 C 0.30677(7) 0.54113(9) 0.74257(7)
C36_32 C 0.42084(9) 0.49226(9) 0.90845(10)
C37_28 C 0.31068(8) 0.54168(10) 0.70740(8)
C38_32 C 0.27300(8) 0.54288(14) 0.78815(9)
H31_32 H 0.2524 0.5434 0.7970
C39_32 C 0.27662(8) 0.54164(14) 0.75554(9)
H32_28 H 0.2586 0.5411 0.7422
C40_32 C 0.31279(8) 0.61566(10) 0.84514(9)
H33_32 H 0.3252 0.6296 0.8311
H34_32 H 0.2948 0.6071 0.8328
C41_32 C 0.30014(15) 0.63486(14) 0.87261(14)
H35_32 H 0.2849 0.6219 0.8846
H36_32 H 0.3178 0.6402 0.8869
C42_32 C 0.28332(18) 0.6664(2) 0.86161(19)
H37_32 H 0.2649 0.6609 0.8483
H38_32 H 0.2982 0.6787 0.8485
C43_32 C 0.2727(3) 0.6861(2) 0.8880(3)
H39_32 H 0.2546 0.6760 0.8984
H40_32 H 0.2899 0.6886 0.9032
H41_32 H 0.2663 0.7068 0.8800
C44_32 C 0.44685(9) 0.48132(9) 0.93230(8)
H42_32 H 0.4444 0.4766 0.9541
C45_32 C 0.47291(15) 0.49022(18) 0.8847(2)
H43_32 H 0.4908 0.4914 0.8712
C46_32 C 0.4733(2) 0.4802(2) 0.9151(2)
H44_32 H 0.4923 0.4723 0.9242
H46_28 H 0.345102 0.523248 0.685984
S1_33 S 0.12478(4) 0.75005(4) 0.18720(3)
O1_33 O 0.10803(5) 0.80752(5) 0.09803(6)
O2_33 O 0.15152(5) 0.81689(5) 0.12401(6)
N2_33 N 0.10822(6) 0.69127(7) 0.07346(6)
C1_33 C 0.13248(7) 0.79741(7) 0.11258(7)
C2_33 C 0.10577(7) 0.66095(8) 0.08315(8)
C3_33 C 0.13836(7) 0.76261(7) 0.11532(7)
C4_33 C 0.01215(7) 0.70875(7) 0.08296(7)
H1_33 H 0.0033 0.7095 0.1035
C5_33 C 0.04447(7) 0.70756(8) 0.07928(7)
H2_33 H 0.0577 0.7073 0.0974
C6_33 C 0.12021(7) 0.74325(8) 0.09818(7)
H3_33 H 0.1062 0.7531 0.0838
C7_33 C 0.11935(7) 0.70909(8) 0.09891(7)
C8_33 C 0.05798(8) 0.70671(9) 0.04932(7)
C9_33 C 0.12370(7) 0.68790(7) 0.12272(7)
H4_33 H 0.1316 0.6929 0.1431
C10_33 C 0.09338(7) 0.70392(9) 0.04477(7)
H5_33 H 0.1023 0.7249 0.0399
H6_33 H 0.0979 0.6898 0.0267
C11_33 C 0.16550(8) 0.75304(8) 0.13608(8)
H7_33 H 0.1705 0.7305 0.1323
H8_33 H 0.1843 0.7656 0.1303
C13_33 C 0.15845(10) 0.75774(9) 0.17084(9)
C15_33 C 0.03815(9) 0.70712(14) 0.02300(8)
H9_33 H 0.0470 0.7066 0.0024
C16_33 C 0.00554(9) 0.70836(14) 0.02662(8)
C17_33 C 0.09514(9) 0.63434(10) 0.06279(8)
H11_33 H 0.0811 0.6204 0.0752
H12_33 H 0.0828 0.6429 0.0448
C18_33 C 0.12261(14) 0.61514(14) 0.05014(15)
H13_33 H 0.1346 0.6281 0.0349
H14_33 H 0.1369 0.6098 0.0678
C19_33 C 0.11161(19) 0.5836(2) 0.03332(18)
H15_33 H 0.0983 0.5891 0.0149
H16_33 H 0.0985 0.5713 0.0482
C20_33 C 0.1380(3) 0.5639(2) 0.0227(3)
H17_33 H 0.1484 0.5740 0.0046
H18_33 H 0.1532 0.5614 0.0399
H19_33 H 0.1300 0.5432 0.0163
C21_33 C 0.18230(8) 0.76868(9) 0.19685(9)
H20_33 H 0.2041 0.7734 0.1944
C22_33 C 0.1347(2) 0.75978(18) 0.22291(15)
H21_33 H 0.1212 0.7586 0.2408
C23_33 C 0.1651(2) 0.7698(2) 0.2233(2)
H22_33 H 0.1742 0.7777 0.2423
S2_33 S 0.12522(4) 0.93720(3) 0.00005(4)
O5_33 O 0.14197(5) 0.84803(6) 0.05752(5)
O6_33 O 0.09848(5) 0.87401(6) 0.06689(5)
C24_33 C 0.11752(7) 0.86258(7) 0.04741(7)
C26_33 C 0.11164(7) 0.86532(7) 0.01261(7)
H25_33 H 0.1438 0.8338 0.0031
C34_33 C 0.08450(8) 0.88608(8) 0.00304(8)
H30_33 H 0.0657 0.8803 0.0156
C36_33 C 0.09155(10) 0.92084(9) 0.00774(9)
C44_33 C 0.06770(8) 0.94685(9) 0.01868(9)
H42_33 H 0.0459 0.9444 0.0234
C45_33 C 0.1153(2) 0.97291(15) 0.00978(18)
H43_33 H 0.1288 0.9908 0.0086
C46_33 C 0.0849(2) 0.9733(2) 0.0198(2)
H44_33 H 0.0758 0.9923 0.0277
O7_29 O 0.30104(5) 0.84035(5) 0.95782(6)
O8_29 O 0.31079(6) 0.78871(6) 0.95842(11)
N4_33 N 0.14178(6) 0.82346(6) 0.94127(7)
C25_33 C 0.14423(7) 0.83315(8) 0.91095(8)
C27_33 C 0.23785(7) 0.83296(7) 0.95875(7)
H23_33 H 0.2467 0.8535 0.9595
C28_33 C 0.20553(7) 0.82928(7) 0.95756(8)
H24_33 H 0.1923 0.8474 0.9573
C29_33 C 0.12979(7) 0.84818(7) 0.99325(8)
C30_33 C 0.13065(7) 0.84891(7) 0.95909(8)
C31_33 C 0.19202(8) 0.79932(7) 0.95671(9)
C32_33 C 0.12630(7) 0.87272(7) 0.93790(7)
H26_33 H 0.1184 0.8931 0.9429
C33_33 C 0.15662(7) 0.79477(7) 0.95392(9)
H27_33 H 0.1477 0.7899 0.9749
H28_33 H 0.1521 0.7767 0.9398
H29_33 H 0.0795 0.8823 0.9805
C35_29 C 0.25743(7) 0.80677(7) 0.95887(9)
C37_29 C 0.29260(8) 0.81068(8) 0.95832(10)
C38_33 C 0.21185(9) 0.77300(8) 0.95712(14)
H31_33 H 0.2030 0.7524 0.9566
C39_33 C 0.24446(9) 0.77662(8) 0.95836(14)
H32_29 H 0.2578 0.7586 0.9589
C40_33 C 0.15486(9) 0.81279(8) 0.88434(10)
H33_33 H 0.1689 0.8252 0.8704
H34_33 H 0.1672 0.7948 0.8929
C41_33 C 0.12739(14) 0.80014(15) 0.86514(14)
H35_33 H 0.1154 0.7849 0.8781
H36_33 H 0.1131 0.8178 0.8598
C42_33 C 0.13839(19) 0.78332(18) 0.8336(2)
H37_33 H 0.1517 0.7649 0.8391
H38_33 H 0.1515 0.7982 0.8213
C43_33 C 0.1120(3) 0.7727(3) 0.8139(2)
H39_33 H 0.1016 0.7546 0.8240
H40_33 H 0.0968 0.7899 0.8114
H41_33 H 0.1200 0.7663 0.7932
H46_29 H 0.314016 0.845102 0.976752
O3_20 O 0.04218(6) 0.80104(5) 0.65965(5)
O4_20 O 0.04158(11) 0.81079(6) 0.71129(6)
N2_34 N 0.05873(7) 0.64178(6) 0.67654(6)
C2_34 C 0.08905(8) 0.64423(7) 0.66685(8)
C4_34 C 0.04125(7) 0.73785(7) 0.66704(7)
H1_34 H 0.0405 0.7467 0.6465
C5_34 C 0.04244(8) 0.70553(7) 0.67072(7)
H2_34 H 0.0427 0.6923 0.6526
C6_34 C 0.00675(8) 0.62979(7) 0.65182(7)
C7_34 C 0.04091(8) 0.63065(7) 0.65109(7)
C8_34 C 0.04329(9) 0.69202(8) 0.70068(7)
C9_34 C 0.06210(7) 0.62630(7) 0.62728(7)
H4_34 H 0.0571 0.6184 0.6069
C10_34 C 0.04608(9) 0.65662(7) 0.70523(7)
H5_34 H 0.0251 0.6477 0.7101
H6_34 H 0.0602 0.6521 0.7233
H7_34 H 0.0195 0.5795 0.6177
C12_20 C 0.04113(9) 0.75743(7) 0.69323(7)
C14_20 C 0.04168(10) 0.79260(8) 0.68932(8)
C15_34 C 0.04288(14) 0.71185(9) 0.72700(8)
H9_34 H 0.0434 0.7030 0.7476
C16_34 C 0.04164(14) 0.74446(9) 0.72338(8)
H10_20 H 0.0411 0.7578 0.7414
C17_34 C 0.11566(10) 0.65486(9) 0.68721(8)
H11_34 H 0.1296 0.6689 0.6748
H12_34 H 0.1071 0.6672 0.7052
C18_34 C 0.13486(14) 0.62739(14) 0.69986(15)
H13_34 H 0.1219 0.6154 0.7151
H14_34 H 0.1402 0.6131 0.6822
C19_34 C 0.1664(2) 0.63839(19) 0.71668(18)
H15_34 H 0.1609 0.6517 0.7351
H16_34 H 0.1787 0.6515 0.7018
C20_34 C 0.1861(2) 0.6120(3) 0.7273(3)
H17_34 H 0.1760 0.6016 0.7454
H18_34 H 0.1886 0.5968 0.7101
H19_34 H 0.2068 0.6200 0.7337
H45_20 H 0.0232485 0.814016 0.654898
S1_34 S 0.99995(4) 0.62522(4) 0.56280(3)
O1_34 O 0.94248(5) 0.64197(5) 0.65197(6)
O2_34 O 0.93311(5) 0.59848(5) 0.62599(6)
C1_34 C 0.95259(7) 0.61752(7) 0.63742(7)
C3_34 C 0.98739(7) 0.61164(7) 0.63468(7)
H3_34 H 0.9969 0.6438 0.6662
C11_34 C 0.99696(8) 0.58450(8) 0.61392(8)
H8_34 H 0.9844 0.5657 0.6197
C13_34 C 0.99226(9) 0.59155(10) 0.57916(9)
C21_34 C 0.98132(9) 0.56770(8) 0.55315(9)
H20_34 H 0.9766 0.5459 0.5556
C22_34 C 0.99022(18) 0.6153(2) 0.52709(15)
H21_34 H 0.9914 0.6288 0.5092
C23_34 C 0.9802(2) 0.5849(2) 0.5267(2)
H22_34 H 0.9723 0.5758 0.5077
S2_34 S 0.81280(3) 0.62478(4) 0.74995(4)
O5_34 O 0.90197(6) 0.60803(5) 0.69248(5)
O6_34 O 0.87599(6) 0.65152(5) 0.68311(5)
O7_30 O 0.90965(5) 0.44896(5) 0.79218(6)
O8_30 O 0.96129(6) 0.43921(6) 0.79158(11)
N4_34 N 0.92654(6) 0.60822(6) 0.80873(7)
C24_34 C 0.88742(7) 0.63248(7) 0.70259(7)
C25_34 C 0.91685(8) 0.60577(7) 0.83905(8)
C26_34 C 0.88468(7) 0.63836(7) 0.73739(7)
C27_34 C 0.91704(7) 0.51215(7) 0.79125(7)
H23_34 H 0.8965 0.5033 0.7905
C28_34 C 0.92072(7) 0.54447(7) 0.79244(8)
H24_34 H 0.9026 0.5577 0.7927
C29_34 C 0.90182(7) 0.62021(7) 0.75675(8)
H25_34 H 0.9162 0.6062 0.7469
C30_34 C 0.90109(7) 0.61935(7) 0.79091(8)
C31_34 C 0.95068(7) 0.55798(8) 0.79329(9)
C32_34 C 0.87728(7) 0.62370(7) 0.81210(7)
H26_34 H 0.8569 0.6316 0.8071
C33_34 C 0.95523(7) 0.59338(7) 0.79608(9)
H27_34 H 0.9601 0.6023 0.7751
H28_34 H 0.9733 0.5979 0.8102
C34_34 C 0.86392(8) 0.66550(8) 0.74696(8)
H29_34 H 0.8677 0.6705 0.7695
H30_34 H 0.8697 0.6843 0.7344
C35_30 C 0.94323(7) 0.49257(7) 0.79113(9)
C36_34 C 0.82916(9) 0.65845(10) 0.74226(9)
C37_30 C 0.93932(8) 0.45740(8) 0.79168(10)
C38_34 C 0.97700(8) 0.53815(9) 0.79288(14)
H31_34 H 0.9976 0.5470 0.7934
C39_34 C 0.97338(8) 0.50554(9) 0.79164(14)
H32_30 H 0.9914 0.4922 0.7911
C40_34 C 0.93721(8) 0.59514(9) 0.86566(10)
H33_34 H 0.9248 0.5811 0.8796
H34_34 H 0.9552 0.5828 0.8571
C41_34 C 0.94986(15) 0.62261(14) 0.88486(14)
H35_34 H 0.9651 0.6346 0.8719
H36_34 H 0.9322 0.6369 0.8902
C42_34 C 0.96668(18) 0.61161(19) 0.9164(2)
H37_34 H 0.9851 0.5983 0.9109
H38_34 H 0.9518 0.5985 0.9287
C43_34 C 0.9773(3) 0.6380(3) 0.9361(2)
H39_34 H 0.9954 0.6484 0.9260
H40_34 H 0.9601 0.6532 0.9386
H41_34 H 0.9837 0.6300 0.9568
C44_34 C 0.80315(9) 0.68230(8) 0.73132(9)
H42_34 H 0.8056 0.7041 0.7266
C45_34 C 0.77709(15) 0.6347(2) 0.74022(18)
H43_34 H 0.7592 0.6212 0.7414
C46_34 C 0.7767(2) 0.6651(2) 0.7302(2)
H44_34 H 0.7577 0.6742 0.7223
H46_30 H 0.904898 0.435984 0.773248
S1_35 S 0.50005(4) 0.37478(4) 0.06280(3)
O1_35 O 0.55752(5) 0.35803(5) 0.15197(6)
O2_35 O 0.56689(5) 0.40152(5) 0.12599(6)
O3_21 O 0.45782(6) 0.19896(5) 0.15965(5)
O4_21 O 0.45842(11) 0.18921(6) 0.21129(6)
N2_35 N 0.44127(7) 0.35822(6) 0.17654(6)
C1_35 C 0.54741(7) 0.38248(7) 0.13742(7)
C2_35 C 0.41095(8) 0.35577(7) 0.16685(8)
C3_35 C 0.51261(7) 0.38836(7) 0.13468(7)
C4_35 C 0.45875(7) 0.26215(7) 0.16704(7)
H1_35 H 0.4595 0.2533 0.1465
C5_35 C 0.45756(8) 0.29447(7) 0.17072(7)
H2_35 H 0.4573 0.3077 0.1526
C6_35 C 0.49325(8) 0.37021(7) 0.15182(7)
H3_35 H 0.5031 0.3562 0.1662
C7_35 C 0.45909(8) 0.36935(7) 0.15109(7)
C8_35 C 0.45671(9) 0.30798(8) 0.20068(7)
C9_35 C 0.43790(7) 0.37370(7) 0.12728(7)
H4_35 H 0.4429 0.3816 0.1069
C10_35 C 0.45392(9) 0.34338(7) 0.20523(7)
H5_35 H 0.4749 0.3523 0.2101
H6_35 H 0.4398 0.3479 0.2233
C11_35 C 0.50304(8) 0.41550(8) 0.11392(8)
H7_35 H 0.4805 0.4205 0.1177
H8_35 H 0.5156 0.4343 0.1197
C12_21 C 0.45887(9) 0.24257(7) 0.19323(7)
C13_35 C 0.50774(9) 0.40845(10) 0.07916(9)
C14_21 C 0.45832(10) 0.20740(8) 0.18932(8)
C15_35 C 0.45712(14) 0.28815(9) 0.22700(8)
H9_35 H 0.4566 0.2970 0.2476
C16_35 C 0.45836(14) 0.25554(9) 0.22338(8)
H10_21 H 0.4589 0.2422 0.2414
C17_35 C 0.38434(10) 0.34514(9) 0.18721(8)
H11_35 H 0.3704 0.3311 0.1748
H12_35 H 0.3929 0.3328 0.2052
C18_35 C 0.36514(14) 0.37261(14) 0.19986(15)
H13_35 H 0.3781 0.3846 0.2151
H14_35 H 0.3598 0.3869 0.1822
C19_35 C 0.3336(2) 0.36161(19) 0.21668(18)
H15_35 H 0.3391 0.3483 0.2351
H16_35 H 0.3213 0.3485 0.2018
C20_35 C 0.3139(2) 0.3880(3) 0.2273(3)
H17_35 H 0.3240 0.3984 0.2454
H18_35 H 0.3114 0.4032 0.2101
H19_35 H 0.2932 0.3800 0.2337
C21_35 C 0.51868(9) 0.43230(8) 0.05315(9)
H20_35 H 0.5234 0.4541 0.0556
C22_35 C 0.50978(18) 0.3847(2) 0.02709(15)
H21_35 H 0.5086 0.3712 0.0092
C23_35 C 0.5198(2) 0.4151(2) 0.0267(2)
H22_35 H 0.5277 0.4242 0.0077
S2_35 S 0.68720(3) 0.37522(4) 0.24995(4)
O5_35 O 0.59803(6) 0.39197(5) 0.19248(5)
O6_35 O 0.62401(6) 0.34848(5) 0.18311(5)
O7_31 O 0.59035(5) 0.55104(5) 0.29218(6)
O8_31 O 0.53871(6) 0.56079(6) 0.29158(11)
N4_35 N 0.57346(6) 0.39178(6) 0.30873(7)
C24_35 C 0.61258(7) 0.36752(7) 0.20259(7)
C25_35 C 0.58315(8) 0.39423(7) 0.33905(8)
C26_35 C 0.61532(7) 0.36164(7) 0.23739(7)
C27_35 C 0.58296(7) 0.48785(7) 0.29125(7)
H23_35 H 0.6035 0.4967 0.2905
C28_35 C 0.57928(7) 0.45553(7) 0.29244(8)
H24_35 H 0.5974 0.4423 0.2927
C29_35 C 0.59818(7) 0.37979(7) 0.25675(8)
H25_35 H 0.5838 0.3938 0.2469
C30_35 C 0.59891(7) 0.38065(7) 0.29091(8)
C31_35 C 0.54932(7) 0.44202(8) 0.29329(9)
C32_35 C 0.62272(7) 0.37630(7) 0.31210(7)
H26_35 H 0.6431 0.3684 0.3071
C33_35 C 0.54477(7) 0.40662(7) 0.29608(9)
H27_35 H 0.5399 0.3977 0.2751
H28_35 H 0.5267 0.4021 0.3102
C34_35 C 0.63608(8) 0.33450(8) 0.24696(8)
H29_35 H 0.6323 0.3295 0.2695
H30_35 H 0.6303 0.3157 0.2344
C35_31 C 0.55677(7) 0.50743(7) 0.29113(9)
C36_35 C 0.67084(9) 0.34155(10) 0.24226(9)
C37_31 C 0.56068(8) 0.54260(8) 0.29168(10)
C38_35 C 0.52300(8) 0.46185(9) 0.29288(14)
H31_35 H 0.5024 0.4530 0.2934
C39_35 C 0.52662(8) 0.49446(9) 0.29164(14)
H32_31 H 0.5086 0.5078 0.2911
C40_35 C 0.56279(8) 0.40486(9) 0.36566(10)
H33_35 H 0.5752 0.4189 0.3796
H34_35 H 0.5448 0.4172 0.3571
C41_35 C 0.55014(15) 0.37739(14) 0.38486(14)
H35_35 H 0.5349 0.3654 0.3719
H36_35 H 0.5678 0.3631 0.3902
C42_35 C 0.53332(18) 0.38839(19) 0.4164(2)
H37_35 H 0.5149 0.4017 0.4109
H38_35 H 0.5482 0.4015 0.4287
C43_35 C 0.5227(3) 0.3620(3) 0.4361(2)
H39_35 H 0.5046 0.3516 0.4260
H40_35 H 0.5399 0.3468 0.4386
H41_35 H 0.5163 0.3700 0.4568
C44_35 C 0.69685(9) 0.31770(8) 0.23132(9)
H42_35 H 0.6944 0.2959 0.2266
C45_35 C 0.72291(15) 0.3653(2) 0.24022(18)
H43_35 H 0.7408 0.3788 0.2414
C46_35 C 0.7233(2) 0.3349(2) 0.2302(2)
H44_35 H 0.7423 0.3258 0.2223
H45_21 H 0.476752 0.185984 0.154898
H46_31 H 0.595102 0.564016 0.273248
S1_36 S 0.43720(3) 0.50005(4) 0.62522(4)
O1_36 O 0.34803(6) 0.55752(5) 0.64197(5)
O2_36 O 0.37401(6) 0.56689(5) 0.59848(5)
O3_22 O 0.34035(5) 0.45782(6) 0.80104(5)
O4_22 O 0.28871(6) 0.45842(11) 0.81079(6)
N2_36 N 0.32346(6) 0.44127(7) 0.64178(6)
C1_36 C 0.36258(7) 0.54741(7) 0.61752(7)
C2_36 C 0.33315(8) 0.41095(8) 0.64423(7)
C3_36 C 0.36532(7) 0.51261(7) 0.61164(7)
C4_36 C 0.33296(7) 0.45875(7) 0.73785(7)
H1_36 H 0.3535 0.4595 0.7467
C5_36 C 0.32928(7) 0.45756(8) 0.70553(7)
H2_36 H 0.3474 0.4573 0.6923
C6_36 C 0.34818(7) 0.49325(8) 0.62979(7)
H3_36 H 0.3338 0.5031 0.6438
C7_36 C 0.34891(7) 0.45909(8) 0.63065(7)
C8_36 C 0.29932(7) 0.45671(9) 0.69202(8)
C9_36 C 0.37272(7) 0.43790(7) 0.62630(7)
H4_36 H 0.3931 0.4429 0.6184
C10_36 C 0.29477(7) 0.45392(9) 0.65662(7)
H5_36 H 0.2899 0.4749 0.6477
H6_36 H 0.2767 0.4398 0.6521
C11_36 C 0.38608(8) 0.50304(8) 0.58450(8)
H7_36 H 0.3823 0.4805 0.5795
H8_36 H 0.3803 0.5156 0.5657
C12_22 C 0.30677(7) 0.45887(9) 0.75743(7)
C13_36 C 0.42084(9) 0.50774(9) 0.59155(10)
C14_22 C 0.31068(8) 0.45832(10) 0.79260(8)
C15_36 C 0.27300(8) 0.45712(14) 0.71185(9)
H9_36 H 0.2524 0.4566 0.7030
C16_36 C 0.27662(8) 0.45836(14) 0.74446(9)
H10_22 H 0.2586 0.4589 0.7578
C17_36 C 0.31279(8) 0.38434(10) 0.65486(9)
H11_36 H 0.3252 0.3704 0.6689
H12_36 H 0.2948 0.3929 0.6672
C18_36 C 0.30014(15) 0.36514(14) 0.62739(14)
H13_36 H 0.2849 0.3781 0.6154
H14_36 H 0.3178 0.3598 0.6131
C19_36 C 0.28332(18) 0.3336(2) 0.63839(19)
H15_36 H 0.2649 0.3391 0.6517
H16_36 H 0.2982 0.3213 0.6515
C20_36 C 0.2727(3) 0.3139(2) 0.6120(3)
H17_36 H 0.2546 0.3240 0.6016
H18_36 H 0.2899 0.3114 0.5968
H19_36 H 0.2663 0.2932 0.6200
C21_36 C 0.44685(9) 0.51868(9) 0.56770(8)
H20_36 H 0.4444 0.5234 0.5459
C22_36 C 0.47291(15) 0.50978(18) 0.6153(2)
H21_36 H 0.4908 0.5086 0.6288
C23_36 C 0.4733(2) 0.5198(2) 0.5849(2)
H22_36 H 0.4923 0.5277 0.5758
S2_36 S 0.25005(4) 0.68720(3) 0.62478(4)
O5_36 O 0.30752(5) 0.59803(6) 0.60803(5)
O6_36 O 0.31689(5) 0.62401(6) 0.65152(5)
O7_32 O 0.20782(6) 0.59035(5) 0.44896(5)
O8_32 O 0.20842(11) 0.53871(6) 0.43921(6)
N4_36 N 0.19127(7) 0.57346(6) 0.60822(6)
C24_36 C 0.29741(7) 0.61258(7) 0.63248(7)
C25_36 C 0.16095(8) 0.58315(8) 0.60577(7)
C26_36 C 0.26261(7) 0.61532(7) 0.63836(7)
C27_36 C 0.20875(7) 0.58296(7) 0.51215(7)
H23_36 H 0.2095 0.6035 0.5033
C28_36 C 0.20756(8) 0.57928(7) 0.54447(7)
H24_36 H 0.2073 0.5974 0.5577
C29_36 C 0.24325(8) 0.59818(7) 0.62021(7)
H25_36 H 0.2531 0.5838 0.6062
C30_36 C 0.20909(8) 0.59891(7) 0.61935(7)
C31_36 C 0.20671(9) 0.54932(7) 0.55798(8)
C32_36 C 0.18790(7) 0.62272(7) 0.62370(7)
H26_36 H 0.1929 0.6431 0.6316
C33_36 C 0.20392(9) 0.54477(7) 0.59338(7)
H27_36 H 0.2249 0.5399 0.6023
H28_36 H 0.1898 0.5267 0.5979
C34_36 C 0.25304(8) 0.63608(8) 0.66550(8)
H29_36 H 0.2305 0.6323 0.6705
H30_36 H 0.2656 0.6303 0.6843
C35_32 C 0.20887(9) 0.55677(7) 0.49257(7)
C36_36 C 0.25774(9) 0.67084(9) 0.65845(10)
C37_32 C 0.20832(10) 0.56068(8) 0.45740(8)
C38_36 C 0.20712(14) 0.52300(8) 0.53815(9)
H31_36 H 0.2066 0.5024 0.5470
C39_36 C 0.20836(14) 0.52662(8) 0.50554(9)
H32_32 H 0.2089 0.5086 0.4922
C40_36 C 0.13434(10) 0.56279(8) 0.59514(9)
H33_36 H 0.1204 0.5752 0.5811
H34_36 H 0.1429 0.5448 0.5828
C41_36 C 0.11514(14) 0.55014(15) 0.62261(14)
H35_36 H 0.1281 0.5349 0.6346
H36_36 H 0.1098 0.5678 0.6369
C42_36 C 0.0836(2) 0.53332(18) 0.61161(19)
H37_36 H 0.0891 0.5149 0.5983
H38_36 H 0.0713 0.5482 0.5985
C43_36 C 0.0639(2) 0.5227(3) 0.6380(3)
H39_36 H 0.0740 0.5046 0.6484
H40_36 H 0.0614 0.5399 0.6532
H41_36 H 0.0432 0.5163 0.6300
C44_36 C 0.26868(9) 0.69685(9) 0.68230(8)
H42_36 H 0.2734 0.6944 0.7041
C45_36 C 0.25978(18) 0.72291(15) 0.6347(2)
H43_36 H 0.2586 0.7408 0.6212
C46_36 C 0.2698(2) 0.7233(2) 0.6651(2)
H44_36 H 0.2777 0.7423 0.6742
H45_22 H 0.345102 0.476752 0.814016
H46_32 H 0.226752 0.595102 0.435984
S1_37 S 0.18720(3) 0.12478(4) 0.75005(4)
O1_37 O 0.09803(6) 0.10803(5) 0.80752(5)
O2_37 O 0.12401(6) 0.15152(5) 0.81689(5)
N2_37 N 0.07346(6) 0.10822(6) 0.69127(7)
C1_37 C 0.11258(7) 0.13248(7) 0.79741(7)
C2_37 C 0.08315(8) 0.10577(7) 0.66095(8)
C3_37 C 0.11532(7) 0.13836(7) 0.76261(7)
C4_37 C 0.08296(7) 0.01215(7) 0.70875(7)
H1_37 H 0.1035 0.0033 0.7095
C5_37 C 0.07928(7) 0.04447(7) 0.70756(8)
H2_37 H 0.0974 0.0577 0.7073
C6_37 C 0.09818(7) 0.12021(7) 0.74325(8)
H3_37 H 0.0838 0.1062 0.7531
C7_37 C 0.09891(7) 0.11935(7) 0.70909(8)
C8_37 C 0.04932(7) 0.05798(8) 0.70671(9)
C9_37 C 0.12272(7) 0.12370(7) 0.68790(7)
H4_37 H 0.1431 0.1316 0.6929
C10_37 C 0.04477(7) 0.09338(7) 0.70392(9)
H5_37 H 0.0399 0.1023 0.7249
H6_37 H 0.0267 0.0979 0.6898
C11_37 C 0.13608(8) 0.16550(8) 0.75304(8)
H7_37 H 0.1323 0.1705 0.7305
H8_37 H 0.1303 0.1843 0.7656
C13_37 C 0.17084(9) 0.15845(10) 0.75774(9)
C15_37 C 0.02300(8) 0.03815(9) 0.70712(14)
H9_37 H 0.0024 0.0470 0.7066
C16_37 C 0.02662(8) 0.00554(9) 0.70836(14)
C17_37 C 0.06279(8) 0.09514(9) 0.63434(10)
H11_37 H 0.0752 0.0811 0.6204
H12_37 H 0.0448 0.0828 0.6429
C18_37 C 0.05014(15) 0.12261(14) 0.61514(14)
H13_37 H 0.0349 0.1346 0.6281
H14_37 H 0.0678 0.1369 0.6098
C19_37 C 0.03332(18) 0.11161(19) 0.5836(2)
H15_37 H 0.0149 0.0983 0.5891
H16_37 H 0.0482 0.0985 0.5713
C20_37 C 0.0227(3) 0.1380(3) 0.5639(2)
H17_37 H 0.0046 0.1484 0.5740
H18_37 H 0.0399 0.1532 0.5614
H19_37 H 0.0163 0.1300 0.5432
C21_37 C 0.19685(9) 0.18230(8) 0.76868(9)
H20_37 H 0.1944 0.2041 0.7734
C22_37 C 0.22291(15) 0.1347(2) 0.75978(18)
H21_37 H 0.2408 0.1212 0.7586
C23_37 C 0.2233(2) 0.1651(2) 0.7698(2)
H22_37 H 0.2423 0.1742 0.7777
S2_37 S 0.00005(4) 0.12522(4) 0.93720(3)
O5_37 O 0.05752(5) 0.14197(5) 0.84803(6)
O6_37 O 0.06689(5) 0.09848(5) 0.87401(6)
C24_37 C 0.04741(7) 0.11752(7) 0.86258(7)
C26_37 C 0.01261(7) 0.11164(7) 0.86532(7)
H25_37 H 0.0031 0.1438 0.8338
C34_37 C 0.00304(8) 0.08450(8) 0.88608(8)
H30_37 H 0.0156 0.0657 0.8803
C36_37 C 0.00774(9) 0.09155(10) 0.92084(9)
C44_37 C 0.01868(9) 0.06770(8) 0.94685(9)
H42_37 H 0.0234 0.0459 0.9444
C45_37 C 0.00978(18) 0.1153(2) 0.97291(15)
H43_37 H 0.0086 0.1288 0.9908
C46_37 C 0.0198(2) 0.0849(2) 0.9733(2)
H44_37 H 0.0277 0.0758 0.9923
O7_33 O 0.95782(6) 0.30104(5) 0.84035(5)
O8_33 O 0.95842(11) 0.31079(6) 0.78871(6)
N4_37 N 0.94127(7) 0.14178(6) 0.82346(6)
C25_37 C 0.91095(8) 0.14423(7) 0.83315(8)
C27_37 C 0.95875(7) 0.23785(7) 0.83296(7)
H23_37 H 0.9595 0.2467 0.8535
C28_37 C 0.95756(8) 0.20553(7) 0.82928(7)
H24_37 H 0.9573 0.1923 0.8474
C29_37 C 0.99325(8) 0.12979(7) 0.84818(7)
C30_37 C 0.95909(8) 0.13065(7) 0.84891(7)
C31_37 C 0.95671(9) 0.19202(8) 0.79932(7)
C32_37 C 0.93790(7) 0.12630(7) 0.87272(7)
H26_37 H 0.9429 0.1184 0.8931
C33_37 C 0.95392(9) 0.15662(7) 0.79477(7)
H27_37 H 0.9749 0.1477 0.7899
H28_37 H 0.9398 0.1521 0.7767
H29_37 H 0.9805 0.0795 0.8823
C35_33 C 0.95887(9) 0.25743(7) 0.80677(7)
C37_33 C 0.95832(10) 0.29260(8) 0.81068(8)
C38_37 C 0.95712(14) 0.21185(9) 0.77300(8)
H31_37 H 0.9566 0.2030 0.7524
C39_37 C 0.95836(14) 0.24446(9) 0.77662(8)
H32_33 H 0.9589 0.2578 0.7586
C40_37 C 0.88434(10) 0.15486(9) 0.81279(8)
H33_37 H 0.8704 0.1689 0.8252
H34_37 H 0.8929 0.1672 0.7948
C41_37 C 0.86514(14) 0.12739(14) 0.80014(15)
H35_37 H 0.8781 0.1154 0.7849
H36_37 H 0.8598 0.1131 0.8178
C42_37 C 0.8336(2) 0.13839(19) 0.78332(18)
H37_37 H 0.8391 0.1517 0.7649
H38_37 H 0.8213 0.1515 0.7982
C43_37 C 0.8139(2) 0.1120(3) 0.7727(3)
H39_37 H 0.8240 0.1016 0.7546
H40_37 H 0.8114 0.0968 0.7899
H41_37 H 0.7932 0.1200 0.7663
H46_33 H 0.976752 0.314016 0.845102
S1_38 S 0.87478(4) 0.43720(3) 0.49995(4)
O1_38 O 0.85803(5) 0.34803(6) 0.44248(5)
O2_38 O 0.90152(5) 0.37401(6) 0.43311(5)
O3_23 O 0.69896(5) 0.34035(5) 0.54218(6)
O4_23 O 0.68921(6) 0.28871(6) 0.54158(11)
N2_38 N 0.85822(6) 0.32346(6) 0.55873(7)
C1_38 C 0.88248(7) 0.36258(7) 0.45259(7)
C2_38 C 0.85577(7) 0.33315(8) 0.58905(8)
C3_38 C 0.88836(7) 0.36532(7) 0.48739(7)
C4_38 C 0.76215(7) 0.33296(7) 0.54125(7)
H1_38 H 0.7533 0.3535 0.5405
C5_38 C 0.79447(7) 0.32928(7) 0.54244(8)
H2_38 H 0.8077 0.3474 0.5427
C6_38 C 0.87021(7) 0.34818(7) 0.50675(8)
H3_38 H 0.8562 0.3338 0.4969
C7_38 C 0.86935(7) 0.34891(7) 0.54091(8)
C8_38 C 0.80798(8) 0.29932(7) 0.54329(9)
C9_38 C 0.87370(7) 0.37272(7) 0.56210(7)
H4_38 H 0.8816 0.3931 0.5571
C10_38 C 0.84338(7) 0.29477(7) 0.54608(9)
H5_38 H 0.8523 0.2899 0.5251
H6_38 H 0.8479 0.2767 0.5602
C11_38 C 0.91550(8) 0.38608(8) 0.49696(8)
H7_38 H 0.9205 0.3823 0.5195
H8_38 H 0.9343 0.3803 0.4844
C12_23 C 0.74257(7) 0.30677(7) 0.54113(9)
C13_38 C 0.90845(10) 0.42084(9) 0.49226(9)
C14_23 C 0.70740(8) 0.31068(8) 0.54168(10)
C15_38 C 0.78815(9) 0.27300(8) 0.54288(14)
H9_38 H 0.7970 0.2524 0.5434
C16_38 C 0.75554(9) 0.27662(8) 0.54164(14)
H10_23 H 0.7422 0.2586 0.5411
C17_38 C 0.84514(9) 0.31279(8) 0.61566(10)
H11_38 H 0.8311 0.3252 0.6296
H12_38 H 0.8328 0.2948 0.6071
C18_38 C 0.87261(14) 0.30014(15) 0.63486(14)
H13_38 H 0.8846 0.2849 0.6219
H14_38 H 0.8869 0.3178 0.6402
C19_38 C 0.86161(19) 0.28332(18) 0.6664(2)
H15_38 H 0.8483 0.2649 0.6609
H16_38 H 0.8485 0.2982 0.6787
C20_38 C 0.8880(3) 0.2727(3) 0.6861(2)
H17_38 H 0.8984 0.2546 0.6760
H18_38 H 0.9032 0.2899 0.6886
H19_38 H 0.8800 0.2663 0.7068
C21_38 C 0.93230(8) 0.44685(9) 0.48132(9)
H20_38 H 0.9541 0.4444 0.4766
C22_38 C 0.8847(2) 0.47291(15) 0.49022(18)
H21_38 H 0.8712 0.4908 0.4914
C23_38 C 0.9151(2) 0.4733(2) 0.4802(2)
H22_38 H 0.9242 0.4923 0.4723
S2_38 S 0.87522(4) 0.25005(4) 0.31280(3)
O5_38 O 0.89197(5) 0.30752(5) 0.40197(6)
O6_38 O 0.84848(5) 0.31689(5) 0.37599(6)
N4_38 N 0.89178(6) 0.19127(7) 0.42654(6)
C24_38 C 0.86752(7) 0.29741(7) 0.38742(7)
C25_38 C 0.89423(7) 0.16095(8) 0.41685(8)
C26_38 C 0.86164(7) 0.26261(7) 0.38468(7)
C27_38 C 0.98785(7) 0.20875(7) 0.41704(7)
H23_38 H 0.9967 0.2095 0.3965
C28_38 C 0.95553(7) 0.20756(8) 0.42072(7)
H24_38 H 0.9423 0.2073 0.4026
C29_38 C 0.87979(7) 0.24325(8) 0.40182(7)
H25_38 H 0.8938 0.2531 0.4162
C30_38 C 0.88065(7) 0.20909(8) 0.40109(7)
C31_38 C 0.94202(8) 0.20671(9) 0.45068(7)
C32_38 C 0.87630(7) 0.18790(7) 0.37728(7)
H26_38 H 0.8684 0.1929 0.3569
C33_38 C 0.90662(7) 0.20392(9) 0.45523(7)
H27_38 H 0.8977 0.2249 0.4601
H28_38 H 0.9021 0.1898 0.4733
C34_38 C 0.83450(8) 0.25304(8) 0.36392(8)
H29_38 H 0.8295 0.2305 0.3677
H30_38 H 0.8157 0.2656 0.3697
C36_38 C 0.84155(10) 0.25774(9) 0.32916(9)
C38_38 C 0.96185(9) 0.20712(14) 0.47700(8)
H31_38 H 0.9530 0.2066 0.4976
C39_38 C 0.99446(9) 0.20836(14) 0.47338(8)
C40_38 C 0.90486(9) 0.13434(10) 0.43721(8)
H33_38 H 0.9189 0.1204 0.4248
H34_38 H 0.9172 0.1429 0.4552
C41_38 C 0.87739(14) 0.11514(14) 0.44986(15)
H35_38 H 0.8654 0.1281 0.4651
H36_38 H 0.8631 0.1098 0.4322
C42_38 C 0.88839(19) 0.0836(2) 0.46668(18)
H37_38 H 0.9017 0.0891 0.4851
H38_38 H 0.9015 0.0713 0.4518
C43_38 C 0.8620(3) 0.0639(2) 0.4773(3)
H39_38 H 0.8516 0.0740 0.4954
H40_38 H 0.8468 0.0614 0.4601
H41_38 H 0.8700 0.0432 0.4837
C44_38 C 0.81770(8) 0.26868(9) 0.30315(9)
H42_38 H 0.7959 0.2734 0.3056
C45_38 C 0.8653(2) 0.25978(18) 0.27709(15)
H43_38 H 0.8788 0.2586 0.2592
C46_38 C 0.8349(2) 0.2698(2) 0.2767(2)
H44_38 H 0.8258 0.2777 0.2577
H45_23 H 0.685984 0.345102 0.523248
O3_24 O 0.04218(6) 0.19896(5) 0.84035(5)
O4_24 O 0.04158(11) 0.18921(6) 0.78871(6)
N2_39 N 0.05873(7) 0.35822(6) 0.82346(6)
C2_39 C 0.08905(8) 0.35577(7) 0.83315(8)
C4_39 C 0.04125(7) 0.26215(7) 0.83296(7)
H1_39 H 0.0405 0.2533 0.8535
C5_39 C 0.04244(8) 0.29447(7) 0.82928(7)
H2_39 H 0.0427 0.3077 0.8474
C6_39 C 0.00675(8) 0.37021(7) 0.84818(7)
C7_39 C 0.04091(8) 0.36935(7) 0.84891(7)
C8_39 C 0.04329(9) 0.30798(8) 0.79932(7)
C9_39 C 0.06210(7) 0.37370(7) 0.87272(7)
H4_39 H 0.0571 0.3816 0.8931
C10_39 C 0.04608(9) 0.34338(7) 0.79477(7)
H5_39 H 0.0251 0.3523 0.7899
H6_39 H 0.0602 0.3479 0.7767
H7_39 H 0.0195 0.4205 0.8823
C12_24 C 0.04113(9) 0.24257(7) 0.80677(7)
C14_24 C 0.04168(10) 0.20740(8) 0.81068(8)
C15_39 C 0.04288(14) 0.28815(9) 0.77300(8)
H9_39 H 0.0434 0.2970 0.7524
C16_39 C 0.04164(14) 0.25554(9) 0.77662(8)
H10_24 H 0.0411 0.2422 0.7586
C17_39 C 0.11566(10) 0.34514(9) 0.81279(8)
H11_39 H 0.1296 0.3311 0.8252
H12_39 H 0.1071 0.3328 0.7948
C18_39 C 0.13486(14) 0.37261(14) 0.80014(15)
H13_39 H 0.1219 0.3846 0.7849
H14_39 H 0.1402 0.3869 0.8178
C19_39 C 0.1664(2) 0.36161(19) 0.78332(18)
H15_39 H 0.1609 0.3483 0.7649
H16_39 H 0.1787 0.3485 0.7982
C20_39 C 0.1861(2) 0.3880(3) 0.7727(3)
H17_39 H 0.1760 0.3984 0.7546
H18_39 H 0.1886 0.4032 0.7899
H19_39 H 0.2068 0.3800 0.7663
H45_24 H 0.0232485 0.185984 0.845102
S1_39 S 0.99995(4) 0.37478(4) 0.93720(3)
O1_39 O 0.94248(5) 0.35803(5) 0.84803(6)
O2_39 O 0.93311(5) 0.40152(5) 0.87401(6)
C1_39 C 0.95259(7) 0.38248(7) 0.86258(7)
C3_39 C 0.98739(7) 0.38836(7) 0.86532(7)
H3_39 H 0.9969 0.3562 0.8338
C11_39 C 0.99696(8) 0.41550(8) 0.88608(8)
H8_39 H 0.9844 0.4343 0.8803
C13_39 C 0.99226(9) 0.40845(10) 0.92084(9)
C21_39 C 0.98132(9) 0.43230(8) 0.94685(9)
H20_39 H 0.9766 0.4541 0.9444
C22_39 C 0.99022(18) 0.3847(2) 0.97291(15)
H21_39 H 0.9914 0.3712 0.9908
C23_39 C 0.9802(2) 0.4151(2) 0.9733(2)
H22_39 H 0.9723 0.4242 0.9923
S2_39 S 0.81280(3) 0.37522(4) 0.75005(4)
O5_39 O 0.90197(6) 0.39197(5) 0.80752(5)
O6_39 O 0.87599(6) 0.34848(5) 0.81689(5)
O7_34 O 0.90965(5) 0.55104(5) 0.70782(6)
O8_34 O 0.96129(6) 0.56079(6) 0.70842(11)
N4_39 N 0.92654(6) 0.39178(6) 0.69127(7)
C24_39 C 0.88742(7) 0.36752(7) 0.79741(7)
C25_39 C 0.91685(8) 0.39423(7) 0.66095(8)
C26_39 C 0.88468(7) 0.36164(7) 0.76261(7)
C27_39 C 0.91704(7) 0.48785(7) 0.70875(7)
H23_39 H 0.8965 0.4967 0.7095
C28_39 C 0.92072(7) 0.45553(7) 0.70756(8)
H24_39 H 0.9026 0.4423 0.7073
C29_39 C 0.90182(7) 0.37979(7) 0.74325(8)
H25_39 H 0.9162 0.3938 0.7531
C30_39 C 0.90109(7) 0.38065(7) 0.70909(8)
C31_39 C 0.95068(7) 0.44202(8) 0.70671(9)
C32_39 C 0.87728(7) 0.37630(7) 0.68790(7)
H26_39 H 0.8569 0.3684 0.6929
C33_39 C 0.95523(7) 0.40662(7) 0.70392(9)
H27_39 H 0.9601 0.3977 0.7249
H28_39 H 0.9733 0.4021 0.6898
C34_39 C 0.86392(8) 0.33450(8) 0.75304(8)
H29_39 H 0.8677 0.3295 0.7305
H30_39 H 0.8697 0.3157 0.7656
C35_34 C 0.94323(7) 0.50743(7) 0.70887(9)
C36_39 C 0.82916(9) 0.34155(10) 0.75774(9)
C37_34 C 0.93932(8) 0.54260(8) 0.70832(10)
C38_39 C 0.97700(8) 0.46185(9) 0.70712(14)
H31_39 H 0.9976 0.4530 0.7066
C39_39 C 0.97338(8) 0.49446(9) 0.70836(14)
H32_34 H 0.9914 0.5078 0.7089
C40_39 C 0.93721(8) 0.40486(9) 0.63434(10)
H33_39 H 0.9248 0.4189 0.6204
H34_39 H 0.9552 0.4172 0.6429
C41_39 C 0.94986(15) 0.37739(14) 0.61514(14)
H35_39 H 0.9651 0.3654 0.6281
H36_39 H 0.9322 0.3631 0.6098
C42_39 C 0.96668(18) 0.38839(19) 0.5836(2)
H37_39 H 0.9851 0.4017 0.5891
H38_39 H 0.9518 0.4015 0.5713
C43_39 C 0.9773(3) 0.3620(3) 0.5639(2)
H39_39 H 0.9954 0.3516 0.5740
H40_39 H 0.9601 0.3468 0.5614
H41_39 H 0.9837 0.3700 0.5432
C44_39 C 0.80315(9) 0.31770(8) 0.76868(9)
H42_39 H 0.8056 0.2959 0.7734
C45_39 C 0.77709(15) 0.3653(2) 0.75978(18)
H43_39 H 0.7592 0.3788 0.7586
C46_39 C 0.7767(2) 0.3349(2) 0.7698(2)
H44_39 H 0.7577 0.3258 0.7777
H46_34 H 0.904898 0.564016 0.726752
S1_40 S 0.24995(4) 0.31280(3) 0.12478(4)
O1_40 O 0.19248(5) 0.40197(6) 0.10803(5)
O2_40 O 0.18311(5) 0.37599(6) 0.15152(5)
N2_40 N 0.30873(7) 0.42654(6) 0.10822(6)
C1_40 C 0.20259(7) 0.38742(7) 0.13248(7)
C2_40 C 0.33905(8) 0.41685(8) 0.10577(7)
C3_40 C 0.23739(7) 0.38468(7) 0.13836(7)
C4_40 C 0.29125(7) 0.41704(7) 0.01215(7)
H1_40 H 0.2905 0.3965 0.0033
C5_40 C 0.29244(8) 0.42072(7) 0.04447(7)
H2_40 H 0.2927 0.4026 0.0577
C6_40 C 0.25675(8) 0.40182(7) 0.12021(7)
H3_40 H 0.2469 0.4162 0.1062
C7_40 C 0.29091(8) 0.40109(7) 0.11935(7)
C8_40 C 0.29329(9) 0.45068(7) 0.05798(8)
C9_40 C 0.31210(7) 0.37728(7) 0.12370(7)
H4_40 H 0.3071 0.3569 0.1316
C10_40 C 0.29608(9) 0.45523(7) 0.09338(7)
H5_40 H 0.2751 0.4601 0.1023
H6_40 H 0.3102 0.4733 0.0979
C11_40 C 0.24696(8) 0.36392(8) 0.16550(8)
H7_40 H 0.2695 0.3677 0.1705
H8_40 H 0.2344 0.3697 0.1843
C13_40 C 0.24226(9) 0.32916(9) 0.15845(10)
C15_40 C 0.29288(14) 0.47700(8) 0.03815(9)
H9_40 H 0.2934 0.4976 0.0470
C16_40 C 0.29164(14) 0.47338(8) 0.00554(9)
C17_40 C 0.36566(10) 0.43721(8) 0.09514(9)
H11_40 H 0.3796 0.4248 0.0811
H12_40 H 0.3571 0.4552 0.0828
C18_40 C 0.38486(14) 0.44986(15) 0.12261(14)
H13_40 H 0.3719 0.4651 0.1346
H14_40 H 0.3902 0.4322 0.1369
C19_40 C 0.4164(2) 0.46668(18) 0.11161(19)
H15_40 H 0.4109 0.4851 0.0983
H16_40 H 0.4287 0.4518 0.0985
C20_40 C 0.4361(2) 0.4773(3) 0.1380(3)
H17_40 H 0.4260 0.4954 0.1484
H18_40 H 0.4386 0.4601 0.1532
H19_40 H 0.4568 0.4837 0.1300
C21_40 C 0.23132(9) 0.30315(9) 0.18230(8)
H20_40 H 0.2266 0.3056 0.2041
C22_40 C 0.24022(18) 0.27709(15) 0.1347(2)
H21_40 H 0.2414 0.2592 0.1212
C23_40 C 0.2302(2) 0.2767(2) 0.1651(2)
H22_40 H 0.2223 0.2577 0.1742
S2_40 S 0.06280(3) 0.49995(4) 0.12522(4)
O5_40 O 0.15197(6) 0.44248(5) 0.14197(5)
O6_40 O 0.12599(6) 0.43311(5) 0.09848(5)
O7_35 O 0.15965(5) 0.54218(6) 0.30104(5)
O8_35 O 0.21129(6) 0.54158(11) 0.31079(6)
N4_40 N 0.17654(6) 0.55873(7) 0.14178(6)
C24_40 C 0.13742(7) 0.45259(7) 0.11752(7)
C25_40 C 0.16685(8) 0.58905(8) 0.14423(7)
C26_40 C 0.13468(7) 0.48739(7) 0.11164(7)
C27_40 C 0.16704(7) 0.54125(7) 0.23785(7)
H23_40 H 0.1465 0.5405 0.2467
C28_40 C 0.17072(7) 0.54244(8) 0.20553(7)
H24_40 H 0.1526 0.5427 0.1923
C29_40 C 0.15182(7) 0.50675(8) 0.12979(7)
H25_40 H 0.1662 0.4969 0.1438
C30_40 C 0.15109(7) 0.54091(8) 0.13065(7)
C31_40 C 0.20068(7) 0.54329(9) 0.19202(8)
C32_40 C 0.12728(7) 0.56210(7) 0.12630(7)
H26_40 H 0.1069 0.5571 0.1184
C33_40 C 0.20523(7) 0.54608(9) 0.15662(7)
H27_40 H 0.2101 0.5251 0.1477
H28_40 H 0.2233 0.5602 0.1521
C34_40 C 0.11392(8) 0.49696(8) 0.08450(8)
H29_40 H 0.1177 0.5195 0.0795
H30_40 H 0.1197 0.4844 0.0657
C35_35 C 0.19323(7) 0.54113(9) 0.25743(7)
C36_40 C 0.07916(9) 0.49226(9) 0.09155(10)
C37_35 C 0.18932(8) 0.54168(10) 0.29260(8)
C38_40 C 0.22700(8) 0.54288(14) 0.21185(9)
H31_40 H 0.2476 0.5434 0.2030
C39_40 C 0.22338(8) 0.54164(14) 0.24446(9)
H32_35 H 0.2414 0.5411 0.2578
C40_40 C 0.18721(8) 0.61566(10) 0.15486(9)
H33_40 H 0.1748 0.6296 0.1689
H34_40 H 0.2052 0.6071 0.1672
C41_40 C 0.19986(15) 0.63486(14) 0.12739(14)
H35_40 H 0.2151 0.6219 0.1154
H36_40 H 0.1822 0.6402 0.1131
C42_40 C 0.21668(18) 0.6664(2) 0.13839(19)
H37_40 H 0.2351 0.6609 0.1517
H38_40 H 0.2018 0.6787 0.1515
C43_40 C 0.2273(3) 0.6861(2) 0.1120(3)
H39_40 H 0.2454 0.6760 0.1016
H40_40 H 0.2101 0.6886 0.0968
H41_40 H 0.2337 0.7068 0.1200
C44_40 C 0.05315(9) 0.48132(9) 0.06770(8)
H42_40 H 0.0556 0.4766 0.0459
C45_40 C 0.02709(15) 0.49022(18) 0.1153(2)
H43_40 H 0.0092 0.4914 0.1288
C46_40 C 0.0267(2) 0.4802(2) 0.0849(2)
H44_40 H 0.0077 0.4723 0.0758
H46_35 H 0.154898 0.523248 0.314016
S1_41 S 0.12478(4) 0.24995(4) 0.31280(3)
O1_41 O 0.10803(5) 0.19248(5) 0.40197(6)
O2_41 O 0.15152(5) 0.18311(5) 0.37599(6)
N2_41 N 0.10822(6) 0.30873(7) 0.42654(6)
C1_41 C 0.13248(7) 0.20259(7) 0.38742(7)
C2_41 C 0.10577(7) 0.33905(8) 0.41685(8)
C3_41 C 0.13836(7) 0.23739(7) 0.38468(7)
C4_41 C 0.01215(7) 0.29125(7) 0.41704(7)
H1_41 H 0.0033 0.2905 0.3965
C5_41 C 0.04447(7) 0.29244(8) 0.42072(7)
H2_41 H 0.0577 0.2927 0.4026
C6_41 C 0.12021(7) 0.25675(8) 0.40182(7)
H3_41 H 0.1062 0.2469 0.4162
C7_41 C 0.11935(7) 0.29091(8) 0.40109(7)
C8_41 C 0.05798(8) 0.29329(9) 0.45068(7)
C9_41 C 0.12370(7) 0.31210(7) 0.37728(7)
H4_41 H 0.1316 0.3071 0.3569
C10_41 C 0.09338(7) 0.29608(9) 0.45523(7)
H5_41 H 0.1023 0.2751 0.4601
H6_41 H 0.0979 0.3102 0.4733
C11_41 C 0.16550(8) 0.24696(8) 0.36392(8)
H7_41 H 0.1705 0.2695 0.3677
H8_41 H 0.1843 0.2344 0.3697
C13_41 C 0.15845(10) 0.24226(9) 0.32916(9)
C15_41 C 0.03815(9) 0.29288(14) 0.47700(8)
H9_41 H 0.0470 0.2934 0.4976
C16_41 C 0.00554(9) 0.29164(14) 0.47338(8)
C17_41 C 0.09514(9) 0.36566(10) 0.43721(8)
H11_41 H 0.0811 0.3796 0.4248
H12_41 H 0.0828 0.3571 0.4552
C18_41 C 0.12261(14) 0.38486(14) 0.44986(15)
H13_41 H 0.1346 0.3719 0.4651
H14_41 H 0.1369 0.3902 0.4322
C19_41 C 0.11161(19) 0.4164(2) 0.46668(18)
H15_41 H 0.0983 0.4109 0.4851
H16_41 H 0.0985 0.4287 0.4518
C20_41 C 0.1380(3) 0.4361(2) 0.4773(3)
H17_41 H 0.1484 0.4260 0.4954
H18_41 H 0.1532 0.4386 0.4601
H19_41 H 0.1300 0.4568 0.4837
C21_41 C 0.18230(8) 0.23132(9) 0.30315(9)
H20_41 H 0.2041 0.2266 0.3056
C22_41 C 0.1347(2) 0.24022(18) 0.27709(15)
H21_41 H 0.1212 0.2414 0.2592
C23_41 C 0.1651(2) 0.2302(2) 0.2767(2)
H22_41 H 0.1742 0.2223 0.2577
S2_41 S 0.12522(4) 0.06280(3) 0.49995(4)
O5_41 O 0.14197(5) 0.15197(6) 0.44248(5)
O6_41 O 0.09848(5) 0.12599(6) 0.43311(5)
O7_36 O 0.30104(5) 0.15965(5) 0.54218(6)
O8_36 O 0.31079(6) 0.21129(6) 0.54158(11)
N4_41 N 0.14178(6) 0.17654(6) 0.55873(7)
C24_41 C 0.11752(7) 0.13742(7) 0.45259(7)
C25_41 C 0.14423(7) 0.16685(8) 0.58905(8)
C26_41 C 0.11164(7) 0.13468(7) 0.48739(7)
C27_41 C 0.23785(7) 0.16704(7) 0.54125(7)
H23_41 H 0.2467 0.1465 0.5405
C28_41 C 0.20553(7) 0.17072(7) 0.54244(8)
H24_41 H 0.1923 0.1526 0.5427
C29_41 C 0.12979(7) 0.15182(7) 0.50675(8)
H25_41 H 0.1438 0.1662 0.4969
C30_41 C 0.13065(7) 0.15109(7) 0.54091(8)
C31_41 C 0.19202(8) 0.20068(7) 0.54329(9)
C32_41 C 0.12630(7) 0.12728(7) 0.56210(7)
H26_41 H 0.1184 0.1069 0.5571
C33_41 C 0.15662(7) 0.20523(7) 0.54608(9)
H27_41 H 0.1477 0.2101 0.5251
H28_41 H 0.1521 0.2233 0.5602
C34_41 C 0.08450(8) 0.11392(8) 0.49696(8)
H29_41 H 0.0795 0.1177 0.5195
H30_41 H 0.0657 0.1197 0.4844
C35_36 C 0.25743(7) 0.19323(7) 0.54113(9)
C36_41 C 0.09155(10) 0.07916(9) 0.49226(9)
C37_36 C 0.29260(8) 0.18932(8) 0.54168(10)
C38_41 C 0.21185(9) 0.22700(8) 0.54288(14)
H31_41 H 0.2030 0.2476 0.5434
C39_41 C 0.24446(9) 0.22338(8) 0.54164(14)
H32_36 H 0.2578 0.2414 0.5411
C40_41 C 0.15486(9) 0.18721(8) 0.61566(10)
H33_41 H 0.1689 0.1748 0.6296
H34_41 H 0.1672 0.2052 0.6071
C41_41 C 0.12739(14) 0.19986(15) 0.63486(14)
H35_41 H 0.1154 0.2151 0.6219
H36_41 H 0.1131 0.1822 0.6402
C42_41 C 0.13839(19) 0.21668(18) 0.6664(2)
H37_41 H 0.1517 0.2351 0.6609
H38_41 H 0.1515 0.2018 0.6787
C43_41 C 0.1120(3) 0.2273(3) 0.6861(2)
H39_41 H 0.1016 0.2454 0.6760
H40_41 H 0.0968 0.2101 0.6886
H41_41 H 0.1200 0.2337 0.7068
C44_41 C 0.06770(8) 0.05315(9) 0.48132(9)
H42_41 H 0.0459 0.0556 0.4766
C45_41 C 0.1153(2) 0.02709(15) 0.49022(18)
H43_41 H 0.1288 0.0092 0.4914
C46_41 C 0.0849(2) 0.0267(2) 0.4802(2)
H44_41 H 0.0758 0.0077 0.4723
H46_36 H 0.314016 0.154898 0.523248
O7_37 O 0.19896(5) 0.84035(5) 0.04218(6)
O8_37 O 0.18921(6) 0.78871(6) 0.04158(11)
N4_42 N 0.35822(6) 0.82346(6) 0.05873(7)
C25_42 C 0.35577(7) 0.83315(8) 0.08905(8)
C27_42 C 0.26215(7) 0.83296(7) 0.04125(7)
H23_42 H 0.2533 0.8535 0.0405
C28_42 C 0.29447(7) 0.82928(7) 0.04244(8)
H24_42 H 0.3077 0.8474 0.0427
C29_42 C 0.37021(7) 0.84818(7) 0.00675(8)
C30_42 C 0.36935(7) 0.84891(7) 0.04091(8)
C31_42 C 0.30798(8) 0.79932(7) 0.04329(9)
C32_42 C 0.37370(7) 0.87272(7) 0.06210(7)
H26_42 H 0.3816 0.8931 0.0571
C33_42 C 0.34338(7) 0.79477(7) 0.04608(9)
H27_42 H 0.3523 0.7899 0.0251
H28_42 H 0.3479 0.7767 0.0602
H29_42 H 0.4205 0.8823 0.0195
C35_37 C 0.24257(7) 0.80677(7) 0.04113(9)
C37_37 C 0.20740(8) 0.81068(8) 0.04168(10)
C38_42 C 0.28815(9) 0.77300(8) 0.04288(14)
H31_42 H 0.2970 0.7524 0.0434
C39_42 C 0.25554(9) 0.77662(8) 0.04164(14)
H32_37 H 0.2422 0.7586 0.0411
C40_42 C 0.34514(9) 0.81279(8) 0.11566(10)
H33_42 H 0.3311 0.8252 0.1296
H34_42 H 0.3328 0.7948 0.1071
C41_42 C 0.37261(14) 0.80014(15) 0.13486(14)
H35_42 H 0.3846 0.7849 0.1219
H36_42 H 0.3869 0.8178 0.1402
C42_42 C 0.36161(19) 0.78332(18) 0.1664(2)
H37_42 H 0.3483 0.7649 0.1609
H38_42 H 0.3485 0.7982 0.1787
C43_42 C 0.3880(3) 0.7727(3) 0.1861(2)
H39_42 H 0.3984 0.7546 0.1760
H40_42 H 0.4032 0.7899 0.1886
H41_42 H 0.3800 0.7663 0.2068
H46_37 H 0.185984 0.845102 0.0232485
S1_42 S 0.37522(4) 0.75005(4) 0.81280(3)
O1_42 O 0.39197(5) 0.80752(5) 0.90197(6)
O2_42 O 0.34848(5) 0.81689(5) 0.87599(6)
O3_25 O 0.55104(5) 0.70782(6) 0.90965(5)
O4_25 O 0.56079(6) 0.70842(11) 0.96129(6)
N2_42 N 0.39178(6) 0.69127(7) 0.92654(6)
C1_42 C 0.36752(7) 0.79741(7) 0.88742(7)
C2_42 C 0.39423(7) 0.66095(8) 0.91685(8)
C3_42 C 0.36164(7) 0.76261(7) 0.88468(7)
C4_42 C 0.48785(7) 0.70875(7) 0.91704(7)
H1_42 H 0.4967 0.7095 0.8965
C5_42 C 0.45553(7) 0.70756(8) 0.92072(7)
H2_42 H 0.4423 0.7073 0.9026
C6_42 C 0.37979(7) 0.74325(8) 0.90182(7)
H3_42 H 0.3938 0.7531 0.9162
C7_42 C 0.38065(7) 0.70909(8) 0.90109(7)
C8_42 C 0.44202(8) 0.70671(9) 0.95068(7)
C9_42 C 0.37630(7) 0.68790(7) 0.87728(7)
H4_42 H 0.3684 0.6929 0.8569
C10_42 C 0.40662(7) 0.70392(9) 0.95523(7)
H5_42 H 0.3977 0.7249 0.9601
H6_42 H 0.4021 0.6898 0.9733
C11_42 C 0.33450(8) 0.75304(8) 0.86392(8)
H7_42 H 0.3295 0.7305 0.8677
H8_42 H 0.3157 0.7656 0.8697
C12_25 C 0.50743(7) 0.70887(9) 0.94323(7)
C13_42 C 0.34155(10) 0.75774(9) 0.82916(9)
C14_25 C 0.54260(8) 0.70832(10) 0.93932(8)
C15_42 C 0.46185(9) 0.70712(14) 0.97700(8)
H9_42 H 0.4530 0.7066 0.9976
C16_42 C 0.49446(9) 0.70836(14) 0.97338(8)
H10_25 H 0.5078 0.7089 0.9914
C17_42 C 0.40486(9) 0.63434(10) 0.93721(8)
H11_42 H 0.4189 0.6204 0.9248
H12_42 H 0.4172 0.6429 0.9552
C18_42 C 0.37739(14) 0.61514(14) 0.94986(15)
H13_42 H 0.3654 0.6281 0.9651
H14_42 H 0.3631 0.6098 0.9322
C19_42 C 0.38839(19) 0.5836(2) 0.96668(18)
H15_42 H 0.4017 0.5891 0.9851
H16_42 H 0.4015 0.5713 0.9518
C20_42 C 0.3620(3) 0.5639(2) 0.9773(3)
H17_42 H 0.3516 0.5740 0.9954
H18_42 H 0.3468 0.5614 0.9601
H19_42 H 0.3700 0.5432 0.9837
C21_42 C 0.31770(8) 0.76868(9) 0.80315(9)
H20_42 H 0.2959 0.7734 0.8056
C22_42 C 0.3653(2) 0.75978(18) 0.77709(15)
H21_42 H 0.3788 0.7586 0.7592
C23_42 C 0.3349(2) 0.7698(2) 0.7767(2)
H22_42 H 0.3258 0.7777 0.7577
S2_42 S 0.37478(4) 0.93720(3) 0.99995(4)
O5_42 O 0.35803(5) 0.84803(6) 0.94248(5)
O6_42 O 0.40152(5) 0.87401(6) 0.93311(5)
C24_42 C 0.38248(7) 0.86258(7) 0.95259(7)
C26_42 C 0.38836(7) 0.86532(7) 0.98739(7)
H25_42 H 0.3562 0.8338 0.9969
C34_42 C 0.41550(8) 0.88608(8) 0.99696(8)
H30_42 H 0.4343 0.8803 0.9844
C36_42 C 0.40845(10) 0.92084(9) 0.99226(9)
C44_42 C 0.43230(8) 0.94685(9) 0.98132(9)
H42_42 H 0.4541 0.9444 0.9766
C45_42 C 0.3847(2) 0.97291(15) 0.99022(18)
H43_42 H 0.3712 0.9908 0.9914
C46_42 C 0.4151(2) 0.9733(2) 0.9802(2)
H44_42 H 0.4242 0.9923 0.9723
H45_25 H 0.564016 0.726752 0.904898
S1_43 S 0.24995(4) 0.68720(3) 0.37522(4)
O1_43 O 0.19248(5) 0.59803(6) 0.39197(5)
O2_43 O 0.18311(5) 0.62401(6) 0.34848(5)
O3_26 O 0.29218(6) 0.59035(5) 0.55104(5)
O4_26 O 0.29158(11) 0.53871(6) 0.56079(6)
N2_43 N 0.30873(7) 0.57346(6) 0.39178(6)
C1_43 C 0.20259(7) 0.61258(7) 0.36752(7)
C2_43 C 0.33905(8) 0.58315(8) 0.39423(7)
C3_43 C 0.23739(7) 0.61532(7) 0.36164(7)
C4_43 C 0.29125(7) 0.58296(7) 0.48785(7)
H1_43 H 0.2905 0.6035 0.4967
C5_43 C 0.29244(8) 0.57928(7) 0.45553(7)
H2_43 H 0.2927 0.5974 0.4423
C6_43 C 0.25675(8) 0.59818(7) 0.37979(7)
H3_43 H 0.2469 0.5838 0.3938
C7_43 C 0.29091(8) 0.59891(7) 0.38065(7)
C8_43 C 0.29329(9) 0.54932(7) 0.44202(8)
C9_43 C 0.31210(7) 0.62272(7) 0.37630(7)
H4_43 H 0.3071 0.6431 0.3684
C10_43 C 0.29608(9) 0.54477(7) 0.40662(7)
H5_43 H 0.2751 0.5399 0.3977
H6_43 H 0.3102 0.5267 0.4021
C11_43 C 0.24696(8) 0.63608(8) 0.33450(8)
H7_43 H 0.2695 0.6323 0.3295
H8_43 H 0.2344 0.6303 0.3157
C12_26 C 0.29113(9) 0.55677(7) 0.50743(7)
C13_43 C 0.24226(9) 0.67084(9) 0.34155(10)
C14_26 C 0.29168(10) 0.56068(8) 0.54260(8)
C15_43 C 0.29288(14) 0.52300(8) 0.46185(9)
H9_43 H 0.2934 0.5024 0.4530
C16_43 C 0.29164(14) 0.52662(8) 0.49446(9)
H10_26 H 0.2911 0.5086 0.5078
C17_43 C 0.36566(10) 0.56279(8) 0.40486(9)
H11_43 H 0.3796 0.5752 0.4189
H12_43 H 0.3571 0.5448 0.4172
C18_43 C 0.38486(14) 0.55014(15) 0.37739(14)
H13_43 H 0.3719 0.5349 0.3654
H14_43 H 0.3902 0.5678 0.3631
C19_43 C 0.4164(2) 0.53332(18) 0.38839(19)
H15_43 H 0.4109 0.5149 0.4017
H16_43 H 0.4287 0.5482 0.4015
C20_43 C 0.4361(2) 0.5227(3) 0.3620(3)
H17_43 H 0.4260 0.5046 0.3516
H18_43 H 0.4386 0.5399 0.3468
H19_43 H 0.4568 0.5163 0.3700
C21_43 C 0.23132(9) 0.69685(9) 0.31770(8)
H20_43 H 0.2266 0.6944 0.2959
C22_43 C 0.24022(18) 0.72291(15) 0.3653(2)
H21_43 H 0.2414 0.7408 0.3788
C23_43 C 0.2302(2) 0.7233(2) 0.3349(2)
H22_43 H 0.2223 0.7423 0.3258
S2_43 S 0.06280(3) 0.50005(4) 0.37478(4)
O5_43 O 0.15197(6) 0.55752(5) 0.35803(5)
O6_43 O 0.12599(6) 0.56689(5) 0.40152(5)
O7_38 O 0.15965(5) 0.45782(6) 0.19896(5)
O8_38 O 0.21129(6) 0.45842(11) 0.18921(6)
N4_43 N 0.17654(6) 0.44127(7) 0.35822(6)
C24_43 C 0.13742(7) 0.54741(7) 0.38248(7)
C25_43 C 0.16685(8) 0.41095(8) 0.35577(7)
C26_43 C 0.13468(7) 0.51261(7) 0.38836(7)
C27_43 C 0.16704(7) 0.45875(7) 0.26215(7)
H23_43 H 0.1465 0.4595 0.2533
C28_43 C 0.17072(7) 0.45756(8) 0.29447(7)
H24_43 H 0.1526 0.4573 0.3077
C29_43 C 0.15182(7) 0.49325(8) 0.37021(7)
H25_43 H 0.1662 0.5031 0.3562
C30_43 C 0.15109(7) 0.45909(8) 0.36935(7)
C31_43 C 0.20068(7) 0.45671(9) 0.30798(8)
C32_43 C 0.12728(7) 0.43790(7) 0.37370(7)
H26_43 H 0.1069 0.4429 0.3816
C33_43 C 0.20523(7) 0.45392(9) 0.34338(7)
H27_43 H 0.2101 0.4749 0.3523
H28_43 H 0.2233 0.4398 0.3479
C34_43 C 0.11392(8) 0.50304(8) 0.41550(8)
H29_43 H 0.1177 0.4805 0.4205
H30_43 H 0.1197 0.5156 0.4343
C35_38 C 0.19323(7) 0.45887(9) 0.24257(7)
C36_43 C 0.07916(9) 0.50774(9) 0.40845(10)
C37_38 C 0.18932(8) 0.45832(10) 0.20740(8)
C38_43 C 0.22700(8) 0.45712(14) 0.28815(9)
H31_43 H 0.2476 0.4566 0.2970
C39_43 C 0.22338(8) 0.45836(14) 0.25554(9)
H32_38 H 0.2414 0.4589 0.2422
C40_43 C 0.18721(8) 0.38434(10) 0.34514(9)
H33_43 H 0.1748 0.3704 0.3311
H34_43 H 0.2052 0.3929 0.3328
C41_43 C 0.19986(15) 0.36514(14) 0.37261(14)
H35_43 H 0.2151 0.3781 0.3846
H36_43 H 0.1822 0.3598 0.3869
C42_43 C 0.21668(18) 0.3336(2) 0.36161(19)
H37_43 H 0.2351 0.3391 0.3483
H38_43 H 0.2018 0.3213 0.3485
C43_43 C 0.2273(3) 0.3139(2) 0.3880(3)
H39_43 H 0.2454 0.3240 0.3984
H40_43 H 0.2101 0.3114 0.4032
H41_43 H 0.2337 0.2932 0.3800
C44_43 C 0.05315(9) 0.51868(9) 0.43230(8)
H42_43 H 0.0556 0.5234 0.4541
C45_43 C 0.02709(15) 0.50978(18) 0.3847(2)
H43_43 H 0.0092 0.5086 0.3712
C46_43 C 0.0267(2) 0.5198(2) 0.4151(2)
H44_43 H 0.0077 0.5277 0.4242
H45_26 H 0.273248 0.595102 0.564016
H46_38 H 0.154898 0.476752 0.185984
O3_27 O 0.65965(5) 0.04218(6) 0.80104(5)
O4_27 O 0.71129(6) 0.04158(11) 0.81079(6)
N2_44 N 0.67654(6) 0.05873(7) 0.64178(6)
C2_44 C 0.66685(8) 0.08905(8) 0.64423(7)
C4_44 C 0.66704(7) 0.04125(7) 0.73785(7)
H1_44 H 0.6465 0.0405 0.7467
C5_44 C 0.67072(7) 0.04244(8) 0.70553(7)
H2_44 H 0.6526 0.0427 0.6923
C6_44 C 0.65182(7) 0.00675(8) 0.62979(7)
C7_44 C 0.65109(7) 0.04091(8) 0.63065(7)
C8_44 C 0.70068(7) 0.04329(9) 0.69202(8)
C9_44 C 0.62728(7) 0.06210(7) 0.62630(7)
H4_44 H 0.6069 0.0571 0.6184
C10_44 C 0.70523(7) 0.04608(9) 0.65662(7)
H5_44 H 0.7101 0.0251 0.6477
H6_44 H 0.7233 0.0602 0.6521
H7_44 H 0.6177 0.0195 0.5795
C12_27 C 0.69323(7) 0.04113(9) 0.75743(7)
C14_27 C 0.68932(8) 0.04168(10) 0.79260(8)
C15_44 C 0.72700(8) 0.04288(14) 0.71185(9)
H9_44 H 0.7476 0.0434 0.7030
C16_44 C 0.72338(8) 0.04164(14) 0.74446(9)
H10_27 H 0.7414 0.0411 0.7578
C17_44 C 0.68721(8) 0.11566(10) 0.65486(9)
H11_44 H 0.6748 0.1296 0.6689
H12_44 H 0.7052 0.1071 0.6672
C18_44 C 0.69986(15) 0.13486(14) 0.62739(14)
H13_44 H 0.7151 0.1219 0.6154
H14_44 H 0.6822 0.1402 0.6131
C19_44 C 0.71668(18) 0.1664(2) 0.63839(19)
H15_44 H 0.7351 0.1609 0.6517
H16_44 H 0.7018 0.1787 0.6515
C20_44 C 0.7273(3) 0.1861(2) 0.6120(3)
H17_44 H 0.7454 0.1760 0.6016
H18_44 H 0.7101 0.1886 0.5968
H19_44 H 0.7337 0.2068 0.6200
H45_27 H 0.654898 0.0232485 0.814016
S1_44 S 0.56280(3) 0.99995(4) 0.62522(4)
O1_44 O 0.65197(6) 0.94248(5) 0.64197(5)
O2_44 O 0.62599(6) 0.93311(5) 0.59848(5)
C1_44 C 0.63742(7) 0.95259(7) 0.61752(7)
C3_44 C 0.63468(7) 0.98739(7) 0.61164(7)
H3_44 H 0.6662 0.9969 0.6438
C11_44 C 0.61392(8) 0.99696(8) 0.58450(8)
H8_44 H 0.6197 0.9844 0.5657
C13_44 C 0.57916(9) 0.99226(9) 0.59155(10)
C21_44 C 0.55315(9) 0.98132(9) 0.56770(8)
H20_44 H 0.5556 0.9766 0.5459
C22_44 C 0.52709(15) 0.99022(18) 0.6153(2)
H21_44 H 0.5092 0.9914 0.6288
C23_44 C 0.5267(2) 0.9802(2) 0.5849(2)
H22_44 H 0.5077 0.9723 0.5758
S2_44 S 0.74995(4) 0.81280(3) 0.62478(4)
O5_44 O 0.69248(5) 0.90197(6) 0.60803(5)
O6_44 O 0.68311(5) 0.87599(6) 0.65152(5)
O7_39 O 0.79218(6) 0.90965(5) 0.44896(5)
O8_39 O 0.79158(11) 0.96129(6) 0.43921(6)
N4_44 N 0.80873(7) 0.92654(6) 0.60822(6)
C24_44 C 0.70259(7) 0.88742(7) 0.63248(7)
C25_44 C 0.83905(8) 0.91685(8) 0.60577(7)
C26_44 C 0.73739(7) 0.88468(7) 0.63836(7)
C27_44 C 0.79125(7) 0.91704(7) 0.51215(7)
H23_44 H 0.7905 0.8965 0.5033
C28_44 C 0.79244(8) 0.92072(7) 0.54447(7)
H24_44 H 0.7927 0.9026 0.5577
C29_44 C 0.75675(8) 0.90182(7) 0.62021(7)
H25_44 H 0.7469 0.9162 0.6062
C30_44 C 0.79091(8) 0.90109(7) 0.61935(7)
C31_44 C 0.79329(9) 0.95068(7) 0.55798(8)
C32_44 C 0.81210(7) 0.87728(7) 0.62370(7)
H26_44 H 0.8071 0.8569 0.6316
C33_44 C 0.79608(9) 0.95523(7) 0.59338(7)
H27_44 H 0.7751 0.9601 0.6023
H28_44 H 0.8102 0.9733 0.5979
C34_44 C 0.74696(8) 0.86392(8) 0.66550(8)
H29_44 H 0.7695 0.8677 0.6705
H30_44 H 0.7344 0.8697 0.6843
C35_39 C 0.79113(9) 0.94323(7) 0.49257(7)
C36_44 C 0.74226(9) 0.82916(9) 0.65845(10)
C37_39 C 0.79168(10) 0.93932(8) 0.45740(8)
C38_44 C 0.79288(14) 0.97700(8) 0.53815(9)
H31_44 H 0.7934 0.9976 0.5470
C39_44 C 0.79164(14) 0.97338(8) 0.50554(9)
H32_39 H 0.7911 0.9914 0.4922
C40_44 C 0.86566(10) 0.93721(8) 0.59514(9)
H33_44 H 0.8796 0.9248 0.5811
H34_44 H 0.8571 0.9552 0.5828
C41_44 C 0.88486(14) 0.94986(15) 0.62261(14)
H35_44 H 0.8719 0.9651 0.6346
H36_44 H 0.8902 0.9322 0.6369
C42_44 C 0.9164(2) 0.96668(18) 0.61161(19)
H37_44 H 0.9109 0.9851 0.5983
H38_44 H 0.9287 0.9518 0.5985
C43_44 C 0.9361(2) 0.9773(3) 0.6380(3)
H39_44 H 0.9260 0.9954 0.6484
H40_44 H 0.9386 0.9601 0.6532
H41_44 H 0.9568 0.9837 0.6300
C44_44 C 0.73132(9) 0.80315(9) 0.68230(8)
H42_44 H 0.7266 0.8056 0.7041
C45_44 C 0.74022(18) 0.77709(15) 0.6347(2)
H43_44 H 0.7414 0.7592 0.6212
C46_44 C 0.7302(2) 0.7767(2) 0.6651(2)
H44_44 H 0.7223 0.7577 0.6742
H46_39 H 0.773248 0.904898 0.435984
S1_45 S 0.37522(4) 0.24995(4) 0.68720(3)
O1_45 O 0.39197(5) 0.19248(5) 0.59803(6)
O2_45 O 0.34848(5) 0.18311(5) 0.62401(6)
O3_28 O 0.55104(5) 0.29218(6) 0.59035(5)
O4_28 O 0.56079(6) 0.29158(11) 0.53871(6)
N2_45 N 0.39178(6) 0.30873(7) 0.57346(6)
C1_45 C 0.36752(7) 0.20259(7) 0.61258(7)
C2_45 C 0.39423(7) 0.33905(8) 0.58315(8)
C3_45 C 0.36164(7) 0.23739(7) 0.61532(7)
C4_45 C 0.48785(7) 0.29125(7) 0.58296(7)
H1_45 H 0.4967 0.2905 0.6035
C5_45 C 0.45553(7) 0.29244(8) 0.57928(7)
H2_45 H 0.4423 0.2927 0.5974
C6_45 C 0.37979(7) 0.25675(8) 0.59818(7)
H3_45 H 0.3938 0.2469 0.5838
C7_45 C 0.38065(7) 0.29091(8) 0.59891(7)
C8_45 C 0.44202(8) 0.29329(9) 0.54932(7)
C9_45 C 0.37630(7) 0.31210(7) 0.62272(7)
H4_45 H 0.3684 0.3071 0.6431
C10_45 C 0.40662(7) 0.29608(9) 0.54477(7)
H5_45 H 0.3977 0.2751 0.5399
H6_45 H 0.4021 0.3102 0.5267
C11_45 C 0.33450(8) 0.24696(8) 0.63608(8)
H7_45 H 0.3295 0.2695 0.6323
H8_45 H 0.3157 0.2344 0.6303
C12_28 C 0.50743(7) 0.29113(9) 0.55677(7)
C13_45 C 0.34155(10) 0.24226(9) 0.67084(9)
C14_28 C 0.54260(8) 0.29168(10) 0.56068(8)
C15_45 C 0.46185(9) 0.29288(14) 0.52300(8)
H9_45 H 0.4530 0.2934 0.5024
C16_45 C 0.49446(9) 0.29164(14) 0.52662(8)
H10_28 H 0.5078 0.2911 0.5086
C17_45 C 0.40486(9) 0.36566(10) 0.56279(8)
H11_45 H 0.4189 0.3796 0.5752
H12_45 H 0.4172 0.3571 0.5448
C18_45 C 0.37739(14) 0.38486(14) 0.55014(15)
H13_45 H 0.3654 0.3719 0.5349
H14_45 H 0.3631 0.3902 0.5678
C19_45 C 0.38839(19) 0.4164(2) 0.53332(18)
H15_45 H 0.4017 0.4109 0.5149
H16_45 H 0.4015 0.4287 0.5482
C20_45 C 0.3620(3) 0.4361(2) 0.5227(3)
H17_45 H 0.3516 0.4260 0.5046
H18_45 H 0.3468 0.4386 0.5399
H19_45 H 0.3700 0.4568 0.5163
C21_45 C 0.31770(8) 0.23132(9) 0.69685(9)
H20_45 H 0.2959 0.2266 0.6944
C22_45 C 0.3653(2) 0.24022(18) 0.72291(15)
H21_45 H 0.3788 0.2414 0.7408
C23_45 C 0.3349(2) 0.2302(2) 0.7233(2)
H22_45 H 0.3258 0.2223 0.7423
S2_45 S 0.37478(4) 0.06280(3) 0.50005(4)
O5_45 O 0.35803(5) 0.15197(6) 0.55752(5)
O6_45 O 0.40152(5) 0.12599(6) 0.56689(5)
O7_40 O 0.19896(5) 0.15965(5) 0.45782(6)
O8_40 O 0.18921(6) 0.21129(6) 0.45842(11)
N4_45 N 0.35822(6) 0.17654(6) 0.44127(7)
C24_45 C 0.38248(7) 0.13742(7) 0.54741(7)
C25_45 C 0.35577(7) 0.16685(8) 0.41095(8)
C26_45 C 0.38836(7) 0.13468(7) 0.51261(7)
C27_45 C 0.26215(7) 0.16704(7) 0.45875(7)
H23_45 H 0.2533 0.1465 0.4595
C28_45 C 0.29447(7) 0.17072(7) 0.45756(8)
H24_45 H 0.3077 0.1526 0.4573
C29_45 C 0.37021(7) 0.15182(7) 0.49325(8)
H25_45 H 0.3562 0.1662 0.5031
C30_45 C 0.36935(7) 0.15109(7) 0.45909(8)
C31_45 C 0.30798(8) 0.20068(7) 0.45671(9)
C32_45 C 0.37370(7) 0.12728(7) 0.43790(7)
H26_45 H 0.3816 0.1069 0.4429
C33_45 C 0.34338(7) 0.20523(7) 0.45392(9)
H27_45 H 0.3523 0.2101 0.4749
H28_45 H 0.3479 0.2233 0.4398
C34_45 C 0.41550(8) 0.11392(8) 0.50304(8)
H29_45 H 0.4205 0.1177 0.4805
H30_45 H 0.4343 0.1197 0.5156
C35_40 C 0.24257(7) 0.19323(7) 0.45887(9)
C36_45 C 0.40845(10) 0.07916(9) 0.50774(9)
C37_40 C 0.20740(8) 0.18932(8) 0.45832(10)
C38_45 C 0.28815(9) 0.22700(8) 0.45712(14)
H31_45 H 0.2970 0.2476 0.4566
C39_45 C 0.25554(9) 0.22338(8) 0.45836(14)
H32_40 H 0.2422 0.2414 0.4589
C40_45 C 0.34514(9) 0.18721(8) 0.38434(10)
H33_45 H 0.3311 0.1748 0.3704
H34_45 H 0.3328 0.2052 0.3929
C41_45 C 0.37261(14) 0.19986(15) 0.36514(14)
H35_45 H 0.3846 0.2151 0.3781
H36_45 H 0.3869 0.1822 0.3598
C42_45 C 0.36161(19) 0.21668(18) 0.3336(2)
H37_45 H 0.3483 0.2351 0.3391
H38_45 H 0.3485 0.2018 0.3213
C43_45 C 0.3880(3) 0.2273(3) 0.3139(2)
H39_45 H 0.3984 0.2454 0.3240
H40_45 H 0.4032 0.2101 0.3114
H41_45 H 0.3800 0.2337 0.2932
C44_45 C 0.43230(8) 0.05315(9) 0.51868(9)
H42_45 H 0.4541 0.0556 0.5234
C45_45 C 0.3847(2) 0.02709(15) 0.50978(18)
H43_45 H 0.3712 0.0092 0.5086
C46_45 C 0.4151(2) 0.0267(2) 0.5198(2)
H44_45 H 0.4242 0.0077 0.5277
H45_28 H 0.564016 0.273248 0.595102
H46_40 H 0.185984 0.154898 0.476752
O7_41 O 0.84035(5) 0.04218(6) 0.19896(5)
O8_41 O 0.78871(6) 0.04158(11) 0.18921(6)
N4_46 N 0.82346(6) 0.05873(7) 0.35822(6)
C25_46 C 0.83315(8) 0.08905(8) 0.35577(7)
C27_46 C 0.83296(7) 0.04125(7) 0.26215(7)
H23_46 H 0.8535 0.0405 0.2533
C28_46 C 0.82928(7) 0.04244(8) 0.29447(7)
H24_46 H 0.8474 0.0427 0.3077
C29_46 C 0.84818(7) 0.00675(8) 0.37021(7)
C30_46 C 0.84891(7) 0.04091(8) 0.36935(7)
C31_46 C 0.79932(7) 0.04329(9) 0.30798(8)
C32_46 C 0.87272(7) 0.06210(7) 0.37370(7)
H26_46 H 0.8931 0.0571 0.3816
C33_46 C 0.79477(7) 0.04608(9) 0.34338(7)
H27_46 H 0.7899 0.0251 0.3523
H28_46 H 0.7767 0.0602 0.3479
H29_46 H 0.8823 0.0195 0.4205
C35_41 C 0.80677(7) 0.04113(9) 0.24257(7)
C37_41 C 0.81068(8) 0.04168(10) 0.20740(8)
C38_46 C 0.77300(8) 0.04288(14) 0.28815(9)
H31_46 H 0.7524 0.0434 0.2970
C39_46 C 0.77662(8) 0.04164(14) 0.25554(9)
H32_41 H 0.7586 0.0411 0.2422
C40_46 C 0.81279(8) 0.11566(10) 0.34514(9)
H33_46 H 0.8252 0.1296 0.3311
H34_46 H 0.7948 0.1071 0.3328
C41_46 C 0.80014(15) 0.13486(14) 0.37261(14)
H35_46 H 0.7849 0.1219 0.3846
H36_46 H 0.8178 0.1402 0.3869
C42_46 C 0.78332(18) 0.1664(2) 0.36161(19)
H37_46 H 0.7649 0.1609 0.3483
H38_46 H 0.7982 0.1787 0.3485
C43_46 C 0.7727(3) 0.1861(2) 0.3880(3)
H39_46 H 0.7546 0.1760 0.3984
H40_46 H 0.7899 0.1886 0.4032
H41_46 H 0.7663 0.2068 0.3800
H46_41 H 0.845102 0.0232485 0.185984
S1_46 S 0.75005(4) 0.81280(3) 0.37522(4)
O1_46 O 0.80752(5) 0.90197(6) 0.39197(5)
O2_46 O 0.81689(5) 0.87599(6) 0.34848(5)
O3_29 O 0.70782(6) 0.90965(5) 0.55104(5)
O4_29 O 0.70842(11) 0.96129(6) 0.56079(6)
N2_46 N 0.69127(7) 0.92654(6) 0.39178(6)
C1_46 C 0.79741(7) 0.88742(7) 0.36752(7)
C2_46 C 0.66095(8) 0.91685(8) 0.39423(7)
C3_46 C 0.76261(7) 0.88468(7) 0.36164(7)
C4_46 C 0.70875(7) 0.91704(7) 0.48785(7)
H1_46 H 0.7095 0.8965 0.4967
C5_46 C 0.70756(8) 0.92072(7) 0.45553(7)
H2_46 H 0.7073 0.9026 0.4423
C6_46 C 0.74325(8) 0.90182(7) 0.37979(7)
H3_46 H 0.7531 0.9162 0.3938
C7_46 C 0.70909(8) 0.90109(7) 0.38065(7)
C8_46 C 0.70671(9) 0.95068(7) 0.44202(8)
C9_46 C 0.68790(7) 0.87728(7) 0.37630(7)
H4_46 H 0.6929 0.8569 0.3684
C10_46 C 0.70392(9) 0.95523(7) 0.40662(7)
H5_46 H 0.7249 0.9601 0.3977
H6_46 H 0.6898 0.9733 0.4021
C11_46 C 0.75304(8) 0.86392(8) 0.33450(8)
H7_46 H 0.7305 0.8677 0.3295
H8_46 H 0.7656 0.8697 0.3157
C12_29 C 0.70887(9) 0.94323(7) 0.50743(7)
C13_46 C 0.75774(9) 0.82916(9) 0.34155(10)
C14_29 C 0.70832(10) 0.93932(8) 0.54260(8)
C15_46 C 0.70712(14) 0.97700(8) 0.46185(9)
H9_46 H 0.7066 0.9976 0.4530
C16_46 C 0.70836(14) 0.97338(8) 0.49446(9)
H10_29 H 0.7089 0.9914 0.5078
C17_46 C 0.63434(10) 0.93721(8) 0.40486(9)
H11_46 H 0.6204 0.9248 0.4189
H12_46 H 0.6429 0.9552 0.4172
C18_46 C 0.61514(14) 0.94986(15) 0.37739(14)
H13_46 H 0.6281 0.9651 0.3654
H14_46 H 0.6098 0.9322 0.3631
C19_46 C 0.5836(2) 0.96668(18) 0.38839(19)
H15_46 H 0.5891 0.9851 0.4017
H16_46 H 0.5713 0.9518 0.4015
C20_46 C 0.5639(2) 0.9773(3) 0.3620(3)
H17_46 H 0.5740 0.9954 0.3516
H18_46 H 0.5614 0.9601 0.3468
H19_46 H 0.5432 0.9837 0.3700
C21_46 C 0.76868(9) 0.80315(9) 0.31770(8)
H20_46 H 0.7734 0.8056 0.2959
C22_46 C 0.75978(18) 0.77709(15) 0.3653(2)
H21_46 H 0.7586 0.7592 0.3788
C23_46 C 0.7698(2) 0.7767(2) 0.3349(2)
H22_46 H 0.7777 0.7577 0.3258
S2_46 S 0.93720(3) 0.99995(4) 0.37478(4)
O5_46 O 0.84803(6) 0.94248(5) 0.35803(5)
O6_46 O 0.87401(6) 0.93311(5) 0.40152(5)
C24_46 C 0.86258(7) 0.95259(7) 0.38248(7)
C26_46 C 0.86532(7) 0.98739(7) 0.38836(7)
H25_46 H 0.8338 0.9969 0.3562
C34_46 C 0.88608(8) 0.99696(8) 0.41550(8)
H30_46 H 0.8803 0.9844 0.4343
C36_46 C 0.92084(9) 0.99226(9) 0.40845(10)
C44_46 C 0.94685(9) 0.98132(9) 0.43230(8)
H42_46 H 0.9444 0.9766 0.4541
C45_46 C 0.97291(15) 0.99022(18) 0.3847(2)
H43_46 H 0.9908 0.9914 0.3712
C46_46 C 0.9733(2) 0.9802(2) 0.4151(2)
H44_46 H 0.9923 0.9723 0.4242
H45_29 H 0.726752 0.904898 0.564016
S1_47 S 0.93720(3) 0.00005(4) 0.12522(4)
O1_47 O 0.84803(6) 0.05752(5) 0.14197(5)
O2_47 O 0.87401(6) 0.06689(5) 0.09848(5)
C1_47 C 0.86258(7) 0.04741(7) 0.11752(7)
C3_47 C 0.86532(7) 0.01261(7) 0.11164(7)
H3_47 H 0.8338 0.0031 0.1438
C11_47 C 0.88608(8) 0.00304(8) 0.08450(8)
H8_47 H 0.8803 0.0156 0.0657
C13_47 C 0.92084(9) 0.00774(9) 0.09155(10)
C21_47 C 0.94685(9) 0.01868(9) 0.06770(8)
H20_47 H 0.9444 0.0234 0.0459
C22_47 C 0.97291(15) 0.00978(18) 0.1153(2)
H21_47 H 0.9908 0.0086 0.1288
C23_47 C 0.9733(2) 0.0198(2) 0.0849(2)
H22_47 H 0.9923 0.0277 0.0758
S2_47 S 0.75005(4) 0.18720(3) 0.12478(4)
O5_47 O 0.80752(5) 0.09803(6) 0.10803(5)
O6_47 O 0.81689(5) 0.12401(6) 0.15152(5)
N4_47 N 0.69127(7) 0.07346(6) 0.10822(6)
C24_47 C 0.79741(7) 0.11258(7) 0.13248(7)
C25_47 C 0.66095(8) 0.08315(8) 0.10577(7)
C26_47 C 0.76261(7) 0.11532(7) 0.13836(7)
C27_47 C 0.70875(7) 0.08296(7) 0.01215(7)
H23_47 H 0.7095 0.1035 0.0033
C28_47 C 0.70756(8) 0.07928(7) 0.04447(7)
H24_47 H 0.7073 0.0974 0.0577
C29_47 C 0.74325(8) 0.09818(7) 0.12021(7)
H25_47 H 0.7531 0.0838 0.1062
C30_47 C 0.70909(8) 0.09891(7) 0.11935(7)
C31_47 C 0.70671(9) 0.04932(7) 0.05798(8)
C32_47 C 0.68790(7) 0.12272(7) 0.12370(7)
H26_47 H 0.6929 0.1431 0.1316
C33_47 C 0.70392(9) 0.04477(7) 0.09338(7)
H27_47 H 0.7249 0.0399 0.1023
H28_47 H 0.6898 0.0267 0.0979
C34_47 C 0.75304(8) 0.13608(8) 0.16550(8)
H29_47 H 0.7305 0.1323 0.1705
H30_47 H 0.7656 0.1303 0.1843
C36_47 C 0.75774(9) 0.17084(9) 0.15845(10)
C38_47 C 0.70712(14) 0.02300(8) 0.03815(9)
H31_47 H 0.7066 0.0024 0.0470
C39_47 C 0.70836(14) 0.02662(8) 0.00554(9)
C40_47 C 0.63434(10) 0.06279(8) 0.09514(9)
H33_47 H 0.6204 0.0752 0.0811
H34_47 H 0.6429 0.0448 0.0828
C41_47 C 0.61514(14) 0.05014(15) 0.12261(14)
H35_47 H 0.6281 0.0349 0.1346
H36_47 H 0.6098 0.0678 0.1369
C42_47 C 0.5836(2) 0.03332(18) 0.11161(19)
H37_47 H 0.5891 0.0149 0.0983
H38_47 H 0.5713 0.0482 0.0985
C43_47 C 0.5639(2) 0.0227(3) 0.1380(3)
H39_47 H 0.5740 0.0046 0.1484
H40_47 H 0.5614 0.0399 0.1532
H41_47 H 0.5432 0.0163 0.1300
C44_47 C 0.76868(9) 0.19685(9) 0.18230(8)
H42_47 H 0.7734 0.1944 0.2041
C45_47 C 0.75978(18) 0.22291(15) 0.1347(2)
H43_47 H 0.7586 0.2408 0.1212
C46_47 C 0.7698(2) 0.2233(2) 0.1651(2)
H44_47 H 0.7777 0.2423 0.1742
O3_30 O 0.84035(5) 0.95782(6) 0.30104(5)
O4_30 O 0.78871(6) 0.95842(11) 0.31079(6)
N2_47 N 0.82346(6) 0.94127(7) 0.14178(6)
C2_47 C 0.83315(8) 0.91095(8) 0.14423(7)
C4_47 C 0.83296(7) 0.95875(7) 0.23785(7)
H1_47 H 0.8535 0.9595 0.2467
C5_47 C 0.82928(7) 0.95756(8) 0.20553(7)
H2_47 H 0.8474 0.9573 0.1923
C6_47 C 0.84818(7) 0.99325(8) 0.12979(7)
C7_47 C 0.84891(7) 0.95909(8) 0.13065(7)
C8_47 C 0.79932(7) 0.95671(9) 0.19202(8)
C9_47 C 0.87272(7) 0.93790(7) 0.12630(7)
H4_47 H 0.8931 0.9429 0.1184
C10_47 C 0.79477(7) 0.95392(9) 0.15662(7)
H5_47 H 0.7899 0.9749 0.1477
H6_47 H 0.7767 0.9398 0.1521
H7_47 H 0.8823 0.9805 0.0795
C12_30 C 0.80677(7) 0.95887(9) 0.25743(7)
C14_30 C 0.81068(8) 0.95832(10) 0.29260(8)
C15_47 C 0.77300(8) 0.95712(14) 0.21185(9)
H9_47 H 0.7524 0.9566 0.2030
C16_47 C 0.77662(8) 0.95836(14) 0.24446(9)
H10_30 H 0.7586 0.9589 0.2578
C17_47 C 0.81279(8) 0.88434(10) 0.15486(9)
H11_47 H 0.8252 0.8704 0.1689
H12_47 H 0.7948 0.8929 0.1672
C18_47 C 0.80014(15) 0.86514(14) 0.12739(14)
H13_47 H 0.7849 0.8781 0.1154
H14_47 H 0.8178 0.8598 0.1131
C19_47 C 0.78332(18) 0.8336(2) 0.13839(19)
H15_47 H 0.7649 0.8391 0.1517
H16_47 H 0.7982 0.8213 0.1515
C20_47 C 0.7727(3) 0.8139(2) 0.1120(3)
H17_47 H 0.7546 0.8240 0.1016
H18_47 H 0.7899 0.8114 0.0968
H19_47 H 0.7663 0.7932 0.1200
H45_30 H 0.845102 0.976752 0.314016
S1_48 S 0.74995(4) 0.18720(3) 0.87522(4)
O1_48 O 0.69248(5) 0.09803(6) 0.89197(5)
O2_48 O 0.68311(5) 0.12401(6) 0.84848(5)
N2_48 N 0.80873(7) 0.07346(6) 0.89178(6)
C1_48 C 0.70259(7) 0.11258(7) 0.86752(7)
C2_48 C 0.83905(8) 0.08315(8) 0.89423(7)
C3_48 C 0.73739(7) 0.11532(7) 0.86164(7)
C4_48 C 0.79125(7) 0.08296(7) 0.98785(7)
H1_48 H 0.7905 0.1035 0.9967
C5_48 C 0.79244(8) 0.07928(7) 0.95553(7)
H2_48 H 0.7927 0.0974 0.9423
C6_48 C 0.75675(8) 0.09818(7) 0.87979(7)
H3_48 H 0.7469 0.0838 0.8938
C7_48 C 0.79091(8) 0.09891(7) 0.88065(7)
C8_48 C 0.79329(9) 0.04932(7) 0.94202(8)
C9_48 C 0.81210(7) 0.12272(7) 0.87630(7)
H4_48 H 0.8071 0.1431 0.8684
C10_48 C 0.79608(9) 0.04477(7) 0.90662(7)
H5_48 H 0.7751 0.0399 0.8977
H6_48 H 0.8102 0.0267 0.9021
C11_48 C 0.74696(8) 0.13608(8) 0.83450(8)
H7_48 H 0.7695 0.1323 0.8295
H8_48 H 0.7344 0.1303 0.8157
C13_48 C 0.74226(9) 0.17084(9) 0.84155(10)
C15_48 C 0.79288(14) 0.02300(8) 0.96185(9)
H9_48 H 0.7934 0.0024 0.9530
C16_48 C 0.79164(14) 0.02662(8) 0.99446(9)
C17_48 C 0.86566(10) 0.06279(8) 0.90486(9)
H11_48 H 0.8796 0.0752 0.9189
H12_48 H 0.8571 0.0448 0.9172
C18_48 C 0.88486(14) 0.05014(15) 0.87739(14)
H13_48 H 0.8719 0.0349 0.8654
H14_48 H 0.8902 0.0678 0.8631
C19_48 C 0.9164(2) 0.03332(18) 0.88839(19)
H15_48 H 0.9109 0.0149 0.9017
H16_48 H 0.9287 0.0482 0.9015
C20_48 C 0.9361(2) 0.0227(3) 0.8620(3)
H17_48 H 0.9260 0.0046 0.8516
H18_48 H 0.9386 0.0399 0.8468
H19_48 H 0.9568 0.0163 0.8700
C21_48 C 0.73132(9) 0.19685(9) 0.81770(8)
H20_48 H 0.7266 0.1944 0.7959
C22_48 C 0.74022(18) 0.22291(15) 0.8653(2)
H21_48 H 0.7414 0.2408 0.8788
C23_48 C 0.7302(2) 0.2233(2) 0.8349(2)
H22_48 H 0.7223 0.2423 0.8258
S2_48 S 0.56280(3) 0.00005(4) 0.87478(4)
O5_48 O 0.65197(6) 0.05752(5) 0.85803(5)
O6_48 O 0.62599(6) 0.06689(5) 0.90152(5)
C24_48 C 0.63742(7) 0.04741(7) 0.88248(7)
C26_48 C 0.63468(7) 0.01261(7) 0.88836(7)
H25_48 H 0.6662 0.0031 0.8562
C34_48 C 0.61392(8) 0.00304(8) 0.91550(8)
H30_48 H 0.6197 0.0156 0.9343
C36_48 C 0.57916(9) 0.00774(9) 0.90845(10)
C44_48 C 0.55315(9) 0.01868(9) 0.93230(8)
H42_48 H 0.5556 0.0234 0.9541
C45_48 C 0.52709(15) 0.00978(18) 0.8847(2)
H43_48 H 0.5092 0.0086 0.8712
C46_48 C 0.5267(2) 0.0198(2) 0.9151(2)
H44_48 H 0.5077 0.0277 0.9242
O7_42 O 0.65965(5) 0.95782(6) 0.69896(5)
O8_42 O 0.71129(6) 0.95842(11) 0.68921(6)
N4_48 N 0.67654(6) 0.94127(7) 0.85822(6)
C25_48 C 0.66685(8) 0.91095(8) 0.85577(7)
C27_48 C 0.66704(7) 0.95875(7) 0.76215(7)
H23_48 H 0.6465 0.9595 0.7533
C28_48 C 0.67072(7) 0.95756(8) 0.79447(7)
H24_48 H 0.6526 0.9573 0.8077
C29_48 C 0.65182(7) 0.99325(8) 0.87021(7)
C30_48 C 0.65109(7) 0.95909(8) 0.86935(7)
C31_48 C 0.70068(7) 0.95671(9) 0.80798(8)
C32_48 C 0.62728(7) 0.93790(7) 0.87370(7)
H26_48 H 0.6069 0.9429 0.8816
C33_48 C 0.70523(7) 0.95392(9) 0.84338(7)
H27_48 H 0.7101 0.9749 0.8523
H28_48 H 0.7233 0.9398 0.8479
H29_48 H 0.6177 0.9805 0.9205
C35_42 C 0.69323(7) 0.95887(9) 0.74257(7)
C37_42 C 0.68932(8) 0.95832(10) 0.70740(8)
C38_48 C 0.72700(8) 0.95712(14) 0.78815(9)
H31_48 H 0.7476 0.9566 0.7970
C39_48 C 0.72338(8) 0.95836(14) 0.75554(9)
H32_42 H 0.7414 0.9589 0.7422
C40_48 C 0.68721(8) 0.88434(10) 0.84514(9)
H33_48 H 0.6748 0.8704 0.8311
H34_48 H 0.7052 0.8929 0.8328
C41_48 C 0.69986(15) 0.86514(14) 0.87261(14)
H35_48 H 0.7151 0.8781 0.8846
H36_48 H 0.6822 0.8598 0.8869
C42_48 C 0.71668(18) 0.8336(2) 0.86161(19)
H37_48 H 0.7351 0.8391 0.8483
H38_48 H 0.7018 0.8213 0.8485
C43_48 C 0.7273(3) 0.8139(2) 0.8880(3)
H39_48 H 0.7454 0.8240 0.8984
H40_48 H 0.7101 0.8114 0.9032
H41_48 H 0.7337 0.7932 0.8800
H46_42 H 0.654898 0.976752 0.685984
O3_31 O 0.59035(5) 0.94896(5) 0.79218(6)
O4_31 O 0.53871(6) 0.93921(6) 0.79158(11)
C12_31 C 0.55677(7) 0.99257(7) 0.79113(9)
C14_31 C 0.56068(8) 0.95740(8) 0.79168(10)
H10_31 H 0.5086 0.9922 0.7911
H45_31 H 0.595102 0.935984 0.773248
O7_43 O 0.94896(5) 0.20782(6) 0.90965(5)
O8_43 O 0.93921(6) 0.20842(11) 0.96129(6)
C35_43 C 0.99257(7) 0.20887(9) 0.94323(7)
C37_43 C 0.95740(8) 0.20832(10) 0.93932(8)
H32_43 H 0.9922 0.2089 0.9914
H46_43 H 0.935984 0.226752 0.904898
O3_32 O 0.59035(5) 0.05104(5) 0.70782(6)
O4_32 O 0.53871(6) 0.06079(6) 0.70842(11)
C12_32 C 0.55677(7) 0.00743(7) 0.70887(9)
C14_32 C 0.56068(8) 0.04260(8) 0.70832(10)
H10_32 H 0.5086 0.0078 0.7089
H45_32 H 0.595102 0.0640156 0.726752
O3_33 O 0.90965(5) 0.94896(5) 0.20782(6)
O4_33 O 0.96129(6) 0.93921(6) 0.20842(11)
C12_33 C 0.94323(7) 0.99257(7) 0.20887(9)
C14_33 C 0.93932(8) 0.95740(8) 0.20832(10)
H10_33 H 0.9914 0.9922 0.2089
H45_33 H 0.904898 0.935984 0.226752
O3_34 O 0.79218(6) 0.59035(5) 0.94896(5)
O4_34 O 0.79158(11) 0.53871(6) 0.93921(6)
C12_34 C 0.79113(9) 0.55677(7) 0.99257(7)
C14_34 C 0.79168(10) 0.56068(8) 0.95740(8)
H10_34 H 0.7911 0.5086 0.9922
H45_34 H 0.773248 0.595102 0.935984
O3_35 O 0.05104(5) 0.29218(6) 0.90965(5)
O4_35 O 0.06079(6) 0.29158(11) 0.96129(6)
C12_35 C 0.00743(7) 0.29113(9) 0.94323(7)
C14_35 C 0.04260(8) 0.29168(10) 0.93932(8)
H10_35 H 0.0078 0.2911 0.9914
H45_35 H 0.0640156 0.273248 0.904898
O3_36 O 0.90965(5) 0.05104(5) 0.29218(6)
O4_36 O 0.96129(6) 0.06079(6) 0.29158(11)
C12_36 C 0.94323(7) 0.00743(7) 0.29113(9)
C14_36 C 0.93932(8) 0.04260(8) 0.29168(10)
H10_36 H 0.9914 0.0078 0.2911
H45_36 H 0.904898 0.0640156 0.273248
O7_44 O 0.94896(5) 0.79218(6) 0.59035(5)
O8_44 O 0.93921(6) 0.79158(11) 0.53871(6)
C35_44 C 0.99257(7) 0.79113(9) 0.55677(7)
C37_44 C 0.95740(8) 0.79168(10) 0.56068(8)
H32_44 H 0.9922 0.7911 0.5086
H46_44 H 0.935984 0.773248 0.595102
O3_37 O 0.70782(6) 0.59035(5) 0.05104(5)
O4_37 O 0.70842(11) 0.53871(6) 0.06079(6)
C12_37 C 0.70887(9) 0.55677(7) 0.00743(7)
C14_37 C 0.70832(10) 0.56068(8) 0.04260(8)
H10_37 H 0.7089 0.5086 0.0078
H45_37 H 0.726752 0.595102 0.0640156
O3_38 O 0.05104(5) 0.70782(6) 0.59035(5)
O4_38 O 0.06079(6) 0.70842(11) 0.53871(6)
C12_38 C 0.00743(7) 0.70887(9) 0.55677(7)
C14_38 C 0.04260(8) 0.70832(10) 0.56068(8)
H10_38 H 0.0078 0.7089 0.5086
H45_38 H 0.0640156 0.726752 0.595102
O7_45 O 0.29218(6) 0.90965(5) 0.05104(5)
O8_45 O 0.29158(11) 0.96129(6) 0.06079(6)
C35_45 C 0.29113(9) 0.94323(7) 0.00743(7)
C37_45 C 0.29168(10) 0.93932(8) 0.04260(8)
H32_45 H 0.2911 0.9914 0.0078
H46_45 H 0.273248 0.904898 0.0640156
O3_39 O 0.20782(6) 0.90965(5) 0.94896(5)
O4_39 O 0.20842(11) 0.96129(6) 0.93921(6)
C12_39 C 0.20887(9) 0.94323(7) 0.99257(7)
C14_39 C 0.20832(10) 0.93932(8) 0.95740(8)
H10_39 H 0.2089 0.9914 0.9922
H45_39 H 0.226752 0.904898 0.935984
O3_40 O 0.40965(5) 0.05104(5) 0.20782(6)
O4_40 O 0.46129(6) 0.06079(6) 0.20842(11)
C12_40 C 0.44323(7) 0.00743(7) 0.20887(9)
C14_40 C 0.43932(8) 0.04260(8) 0.20832(10)
H10_40 H 0.4914 0.0078 0.2089
H45_40 H 0.404898 0.0640156 0.226752
O7_46 O 0.05104(5) 0.79218(6) 0.09035(5)
O8_46 O 0.06079(6) 0.79158(11) 0.03871(6)
C35_46 C 0.00743(7) 0.79113(9) 0.05677(7)
C37_46 C 0.04260(8) 0.79168(10) 0.06068(8)
H32_46 H 0.0078 0.7911 0.0086
H46_46 H 0.0640156 0.773248 0.0951017
O3_41 O 0.40965(5) 0.94896(5) 0.29218(6)
O4_41 O 0.46129(6) 0.93921(6) 0.29158(11)
C12_41 C 0.44323(7) 0.99257(7) 0.29113(9)
C14_41 C 0.43932(8) 0.95740(8) 0.29168(10)
H10_41 H 0.4914 0.9922 0.2911
H45_41 H 0.404898 0.935984 0.273248
O3_42 O 0.09035(5) 0.05104(5) 0.79218(6)
O4_42 O 0.03871(6) 0.06079(6) 0.79158(11)
C12_42 C 0.05677(7) 0.00743(7) 0.79113(9)
C14_42 C 0.06068(8) 0.04260(8) 0.79168(10)
H10_42 H 0.0086 0.0078 0.7911
H45_42 H 0.0951017 0.0640156 0.773248
O3_43 O 0.20782(6) 0.40965(5) 0.05104(5)
O4_43 O 0.20842(11) 0.46129(6) 0.06079(6)
C12_43 C 0.20887(9) 0.44323(7) 0.00743(7)
C14_43 C 0.20832(10) 0.43932(8) 0.04260(8)
H10_43 H 0.2089 0.4914 0.0078
H45_43 H 0.226752 0.404898 0.0640156
O3_44 O 0.94896(5) 0.70782(6) 0.09035(5)
O4_44 O 0.93921(6) 0.70842(11) 0.03871(6)
C12_44 C 0.99257(7) 0.70887(9) 0.05677(7)
C14_44 C 0.95740(8) 0.70832(10) 0.06068(8)
H10_44 H 0.9922 0.7089 0.0086
H45_44 H 0.935984 0.726752 0.0951017
O3_45 O 0.09035(5) 0.94896(5) 0.70782(6)
O4_45 O 0.03871(6) 0.93921(6) 0.70842(11)
C12_45 C 0.05677(7) 0.99257(7) 0.70887(9)
C14_45 C 0.06068(8) 0.95740(8) 0.70832(10)
H10_45 H 0.0086 0.9922 0.7089
H45_45 H 0.0951017 0.935984 0.726752
O7_47 O 0.05104(5) 0.20782(6) 0.40965(5)
O8_47 O 0.06079(6) 0.20842(11) 0.46129(6)
C35_47 C 0.00743(7) 0.20887(9) 0.44323(7)
C37_47 C 0.04260(8) 0.20832(10) 0.43932(8)
H32_47 H 0.0078 0.2089 0.4914
H46_47 H 0.0640156 0.226752 0.404898
O3_46 O 0.29218(6) 0.40965(5) 0.94896(5)
O4_46 O 0.29158(11) 0.46129(6) 0.93921(6)
C12_46 C 0.29113(9) 0.44323(7) 0.99257(7)
C14_46 C 0.29168(10) 0.43932(8) 0.95740(8)
H10_46 H 0.2911 0.4914 0.9922
H45_46 H 0.273248 0.404898 0.935984
O3_47 O 0.94896(5) 0.29218(6) 0.40965(5)
O4_47 O 0.93921(6) 0.29158(11) 0.46129(6)
C12_47 C 0.99257(7) 0.29113(9) 0.44323(7)
C14_47 C 0.95740(8) 0.29168(10) 0.43932(8)
H10_47 H 0.9922 0.2911 0.4914
H45_47 H 0.935984 0.273248 0.404898
O7_48 O 0.70782(6) 0.09035(5) 0.94896(5)
O8_48 O 0.70842(11) 0.03871(6) 0.93921(6)
C35_48 C 0.70887(9) 0.05677(7) 0.99257(7)
C37_48 C 0.70832(10) 0.06068(8) 0.95740(8)
H32_48 H 0.7089 0.0086 0.9922
H46_48 H 0.726752 0.0951017 0.935984
O3_48 O 0.79218(6) 0.09035(5) 0.05104(5)
O4_48 O 0.79158(11) 0.03871(6) 0.06079(6)
C12_48 C 0.79113(9) 0.05677(7) 0.00743(7)
C14_48 C 0.79168(10) 0.06068(8) 0.04260(8)
H10_48 H 0.7911 0.0086 0.0078
H45_48 H 0.773248 0.0951017 0.0640156
loop_
_geom_bond_atom_site_label_1
_geom_bond_atom_site_label_2
_geom_bond_site_symmetry_1
_geom_bond_site_symmetry_2
Ni1 O1 1_555 1_555
S1 C13 1_555 1_555
O1 C1 1_555 1_555
O2 Ni1 1_555 1_555
O3 C14 1_555 1_555
O4 C14 1_555 1_555
N1 C2 1_555 1_555
N2 C2 1_555 1_555
C1 O2 1_555 1_555
C2 C17 1_555 1_555
C3 C1 1_555 1_555
C4 H1 1_555 1_555
C5 C4 1_555 1_555
H2 C5 1_555 1_555
C6 C3 1_555 1_555
H3 C6 1_555 1_555
C7 N2 1_555 1_555
C8 C5 1_555 1_555
C9 N1 1_555 1_555
H4 C9 1_555 1_555
C10 N2 1_555 1_555
H5 C10 1_555 1_555
H6 C10 1_555 1_555
C11 C3 1_555 1_555
H7 C11 1_555 1_555
H8 C11 1_555 1_555
C12 C4 1_555 1_555
C13 C11 1_555 1_555
C14 C12 1_555 1_555
C15 C8 1_555 1_555
H9 C15 1_555 1_555
C16 C12 1_555 1_555
H10 C16 1_555 1_555
C17 H11 1_555 1_555
H12 C17 1_555 1_555
C18 C17 1_555 1_555
H13 C18 1_555 1_555
H14 C18 1_555 1_555
C19 C18 1_555 1_555
H15 C19 1_555 1_555
H16 C19 1_555 1_555
C20 C19 1_555 1_555
H17 C20 1_555 1_555
H18 C20 1_555 1_555
H19 C20 1_555 1_555
C21 C13 1_555 1_555
H20 C21 1_555 1_555
C22 S1 1_555 1_555
H21 C22 1_555 1_555
C23 C21 1_555 1_555
H22 C23 1_555 1_555
S2 C36 1_555 1_555
O5 Ni1 1_555 1_555
O6 Ni1 1_555 1_555
O7 C37 1_555 1_555
O8 C37 1_555 1_555
N3 C25 1_555 1_555
N4 C25 1_555 1_555
C24 O5 1_555 1_555
C25 C40 1_555 1_555
C26 C24 1_555 1_555
C27 H23 1_555 1_555
C28 C27 1_555 1_555
H24 C28 1_555 1_555
C29 C26 1_555 1_555
H25 C29 1_555 1_555
C30 N4 1_555 1_555
C31 C28 1_555 1_555
C32 N3 1_555 1_555
H26 C32 1_555 1_555
C33 N4 1_555 1_555
H27 C33 1_555 1_555
H28 C33 1_555 1_555
C34 C26 1_555 1_555
H29 C34 1_555 1_555
H30 C34 1_555 1_555
C35 C27 1_555 1_555
C36 C34 1_555 1_555
C37 C35 1_555 1_555
C38 C31 1_555 1_555
H31 C38 1_555 1_555
C39 C35 1_555 1_555
H32 C39 1_555 1_555
C40 H33 1_555 1_555
H34 C40 1_555 1_555
C41 C40 1_555 1_555
H35 C41 1_555 1_555
H36 C41 1_555 1_555
C42 C41 1_555 1_555
H37 C42 1_555 1_555
H38 C42 1_555 1_555
C43 C42 1_555 1_555
H39 C43 1_555 1_555
H40 C43 1_555 1_555
H41 C43 1_555 1_555
C44 C36 1_555 1_555
H42 C44 1_555 1_555
C45 S2 1_555 1_555
H43 C45 1_555 1_555
C46 C44 1_555 1_555
H44 C46 1_555 1_555
Ni2 N3 1_555 1_555
Ni3 N1 1_555 1_555
N5 Ni1 1_555 1_555
N6 Ni1 1_555 1_555
C6 C7 1_555 1_555
C7 C9 1_555 1_555
C8 C10 1_555 1_555
C15 C16 1_555 1_555
C22 C23 1_555 1_555
O6 C24 1_555 1_555
C29 C30 1_555 1_555
C30 C32 1_555 1_555
C31 C33 1_555 1_555
C38 C39 1_555 1_555
C45 C46 1_555 1_555
O3 H45 1_555 1_555
O7 H46 1_555 1_555
Ni1_2 O1_2 1_555 1_555
S1_2 C13_2 1_555 1_555
O1_2 C1_2 1_555 1_555
O2_2 Ni1_2 1_555 1_555
N1_2 C2_2 1_555 1_555
N2_2 C2_2 1_555 1_555
C1_2 O2_2 1_555 1_555
C2_2 C17_2 1_555 1_555
C3_2 C1_2 1_555 1_555
C4_2 H1_2 1_555 1_555
C5_2 C4_2 1_555 1_555
H2_2 C5_2 1_555 1_555
C6_2 C3_2 1_555 1_555
H3_2 C6_2 1_555 1_555
C7_2 N2_2 1_555 1_555
C8_2 C5_2 1_555 1_555
C9_2 N1_2 1_555 1_555
H4_2 C9_2 1_555 1_555
C10_2 N2_2 1_555 1_555
H5_2 C10_2 1_555 1_555
H6_2 C10_2 1_555 1_555
C11_2 C3_2 1_555 1_555
H7_2 C11_2 1_555 1_555
H8_2 C11_2 1_555 1_555
C13_2 C11_2 1_555 1_555
C15_2 C8_2 1_555 1_555
H9_2 C15_2 1_555 1_555
C17_2 H11_2 1_555 1_555
H12_2 C17_2 1_555 1_555
C18_2 C17_2 1_555 1_555
H13_2 C18_2 1_555 1_555
H14_2 C18_2 1_555 1_555
C19_2 C18_2 1_555 1_555
H15_2 C19_2 1_555 1_555
H16_2 C19_2 1_555 1_555
C20_2 C19_2 1_555 1_555
H17_2 C20_2 1_555 1_555
H18_2 C20_2 1_555 1_555
H19_2 C20_2 1_555 1_555
C21_2 C13_2 1_555 1_555
H20_2 C21_2 1_555 1_555
C22_2 S1_2 1_555 1_555
H21_2 C22_2 1_555 1_555
C23_2 C21_2 1_555 1_555
H22_2 C23_2 1_555 1_555
S2_2 C36_2 1_555 1_555
O5_2 Ni1_2 1_555 1_555
O6_2 Ni1_2 1_555 1_555
O7_2 C37_2 1_555 1_555
O8_2 C37_2 1_555 1_555
N3_2 C25_2 1_555 1_555
N4_2 C25_2 1_555 1_555
C24_2 O5_2 1_555 1_555
C25_2 C40_2 1_555 1_555
C26_2 C24_2 1_555 1_555
C27_2 H23_2 1_555 1_555
C28_2 C27_2 1_555 1_555
H24_2 C28_2 1_555 1_555
C29_2 C26_2 1_555 1_555
H25_2 C29_2 1_555 1_555
C30_2 N4_2 1_555 1_555
C31_2 C28_2 1_555 1_555
C32_2 N3_2 1_555 1_555
H26_2 C32_2 1_555 1_555
C33_2 N4_2 1_555 1_555
H27_2 C33_2 1_555 1_555
H28_2 C33_2 1_555 1_555
C34_2 C26_2 1_555 1_555
H29_2 C34_2 1_555 1_555
H30_2 C34_2 1_555 1_555
C35_2 C27_2 1_555 1_555
C36_2 C34_2 1_555 1_555
C37_2 C35_2 1_555 1_555
C38_2 C31_2 1_555 1_555
H31_2 C38_2 1_555 1_555
C39_2 C35_2 1_555 1_555
H32_2 C39_2 1_555 1_555
C40_2 H33_2 1_555 1_555
H34_2 C40_2 1_555 1_555
C41_2 C40_2 1_555 1_555
H35_2 C41_2 1_555 1_555
H36_2 C41_2 1_555 1_555
C42_2 C41_2 1_555 1_555
H37_2 C42_2 1_555 1_555
H38_2 C42_2 1_555 1_555
C43_2 C42_2 1_555 1_555
H39_2 C43_2 1_555 1_555
H40_2 C43_2 1_555 1_555
H41_2 C43_2 1_555 1_555
C44_2 C36_2 1_555 1_555
H42_2 C44_2 1_555 1_555
C45_2 S2_2 1_555 1_555
H43_2 C45_2 1_555 1_555
C46_2 C44_2 1_555 1_555
H44_2 C46_2 1_555 1_555
Ni2_2 N3_2 1_555 1_555
Ni3_2 N1_2 1_555 1_555
N5_2 Ni1_2 1_555 1_555
N6_2 Ni1_2 1_555 1_555
C6_2 C7_2 1_555 1_555
C7_2 C9_2 1_555 1_555
C8_2 C10_2 1_555 1_555
C15_2 C16_2 1_555 1_555
C22_2 C23_2 1_555 1_555
O6_2 C24_2 1_555 1_555
C29_2 C30_2 1_555 1_555
C30_2 C32_2 1_555 1_555
C31_2 C33_2 1_555 1_555
C38_2 C39_2 1_555 1_555
C45_2 C46_2 1_555 1_555
O7_2 H46_2 1_555 1_555
Ni1_3 O1_3 1_555 1_555
S1_3 C13_3 1_555 1_555
O1_3 C1_3 1_555 1_555
O2_3 Ni1_3 1_555 1_555
C1_3 O2_3 1_555 1_555
C3_3 C1_3 1_555 1_555
C11_3 C3_3 1_555 1_555
H8_3 C11_3 1_555 1_555
C13_3 C11_3 1_555 1_555
C21_3 C13_3 1_555 1_555
H20_3 C21_3 1_555 1_555
C22_3 S1_3 1_555 1_555
H21_3 C22_3 1_555 1_555
C23_3 C21_3 1_555 1_555
H22_3 C23_3 1_555 1_555
S2_3 C36_3 1_555 1_555
O5_3 Ni1_3 1_555 1_555
O6_3 Ni1_3 1_555 1_555
O7_3 C37_3 1_555 1_555
O8_3 C37_3 1_555 1_555
N3_3 C25_3 1_555 1_555
N4_3 C25_3 1_555 1_555
C24_3 O5_3 1_555 1_555
C25_3 C40_3 1_555 1_555
C26_3 C24_3 1_555 1_555
C27_3 H23_3 1_555 1_555
C28_3 C27_3 1_555 1_555
H24_3 C28_3 1_555 1_555
C29_3 C26_3 1_555 1_555
H25_3 C29_3 1_555 1_555
C30_3 N4_3 1_555 1_555
C31_3 C28_3 1_555 1_555
C32_3 N3_3 1_555 1_555
H26_3 C32_3 1_555 1_555
C33_3 N4_3 1_555 1_555
H27_3 C33_3 1_555 1_555
H28_3 C33_3 1_555 1_555
C34_3 C26_3 1_555 1_555
H29_3 C34_3 1_555 1_555
H30_3 C34_3 1_555 1_555
C35_3 C27_3 1_555 1_555
C36_3 C34_3 1_555 1_555
C37_3 C35_3 1_555 1_555
C38_3 C31_3 1_555 1_555
H31_3 C38_3 1_555 1_555
C39_3 C35_3 1_555 1_555
H32_3 C39_3 1_555 1_555
C40_3 H33_3 1_555 1_555
H34_3 C40_3 1_555 1_555
C41_3 C40_3 1_555 1_555
H35_3 C41_3 1_555 1_555
H36_3 C41_3 1_555 1_555
C42_3 C41_3 1_555 1_555
H37_3 C42_3 1_555 1_555
H38_3 C42_3 1_555 1_555
C43_3 C42_3 1_555 1_555
H39_3 C43_3 1_555 1_555
H40_3 C43_3 1_555 1_555
H41_3 C43_3 1_555 1_555
C44_3 C36_3 1_555 1_555
H42_3 C44_3 1_555 1_555
C45_3 S2_3 1_555 1_555
H43_3 C45_3 1_555 1_555
C46_3 C44_3 1_555 1_555
H44_3 C46_3 1_555 1_555
Ni2_3 N3_3 1_555 1_555
N5_3 Ni1_3 1_555 1_555
N6_3 Ni1_3 1_555 1_555
C22_3 C23_3 1_555 1_555
O6_3 C24_3 1_555 1_555
C29_3 C30_3 1_555 1_555
C30_3 C32_3 1_555 1_555
C31_3 C33_3 1_555 1_555
C38_3 C39_3 1_555 1_555
C45_3 C46_3 1_555 1_555
O7_3 H46_3 1_555 1_555
O3_2 C14_2 1_555 1_555
O4_2 C14_2 1_555 1_555
N1_3 C2_3 1_555 1_555
N2_3 C2_3 1_555 1_555
C2_3 C17_3 1_555 1_555
C4_3 H1_3 1_555 1_555
C5_3 C4_3 1_555 1_555
H2_3 C5_3 1_555 1_555
C7_3 N2_3 1_555 1_555
C8_3 C5_3 1_555 1_555
C9_3 N1_3 1_555 1_555
H4_3 C9_3 1_555 1_555
C10_3 N2_3 1_555 1_555
H5_3 C10_3 1_555 1_555
H6_3 C10_3 1_555 1_555
C12_2 C4_3 1_555 1_555
C14_2 C12_2 1_555 1_555
C15_3 C8_3 1_555 1_555
H9_3 C15_3 1_555 1_555
C16_3 C12_2 1_555 1_555
H10_2 C16_3 1_555 1_555
C17_3 H11_3 1_555 1_555
H12_3 C17_3 1_555 1_555
C18_3 C17_3 1_555 1_555
H13_3 C18_3 1_555 1_555
H14_3 C18_3 1_555 1_555
C19_3 C18_3 1_555 1_555
H15_3 C19_3 1_555 1_555
H16_3 C19_3 1_555 1_555
C20_3 C19_3 1_555 1_555
H17_3 C20_3 1_555 1_555
H18_3 C20_3 1_555 1_555
H19_3 C20_3 1_555 1_555
Ni3_3 N1_3 1_555 1_555
C6_3 C7_3 1_555 1_555
C7_3 C9_3 1_555 1_555
C8_3 C10_3 1_555 1_555
C15_3 C16_3 1_555 1_555
O3_2 H45_2 1_555 1_555
Ni1_4 O1_4 1_555 1_555
S1_4 C13_4 1_555 1_555
O1_4 C1_4 1_555 1_555
O2_4 Ni1_4 1_555 1_555
O3_3 C14_3 1_555 1_555
O4_3 C14_3 1_555 1_555
N1_4 C2_4 1_555 1_555
N2_4 C2_4 1_555 1_555
C1_4 O2_4 1_555 1_555
C2_4 C17_4 1_555 1_555
C3_4 C1_4 1_555 1_555
C4_4 H1_4 1_555 1_555
C5_4 C4_4 1_555 1_555
H2_4 C5_4 1_555 1_555
C6_4 C3_4 1_555 1_555
H3_4 C6_4 1_555 1_555
C7_4 N2_4 1_555 1_555
C8_4 C5_4 1_555 1_555
C9_4 N1_4 1_555 1_555
H4_4 C9_4 1_555 1_555
C10_4 N2_4 1_555 1_555
H5_4 C10_4 1_555 1_555
H6_4 C10_4 1_555 1_555
C11_4 C3_4 1_555 1_555
H7_4 C11_4 1_555 1_555
H8_4 C11_4 1_555 1_555
C12_3 C4_4 1_555 1_555
C13_4 C11_4 1_555 1_555
C14_3 C12_3 1_555 1_555
C15_4 C8_4 1_555 1_555
H9_4 C15_4 1_555 1_555
C16_4 C12_3 1_555 1_555
H10_3 C16_4 1_555 1_555
C17_4 H11_4 1_555 1_555
H12_4 C17_4 1_555 1_555
C18_4 C17_4 1_555 1_555
H13_4 C18_4 1_555 1_555
H14_4 C18_4 1_555 1_555
C19_4 C18_4 1_555 1_555
H15_4 C19_4 1_555 1_555
H16_4 C19_4 1_555 1_555
C20_4 C19_4 1_555 1_555
H17_4 C20_4 1_555 1_555
H18_4 C20_4 1_555 1_555
H19_4 C20_4 1_555 1_555
C21_4 C13_4 1_555 1_555
H20_4 C21_4 1_555 1_555
C22_4 S1_4 1_555 1_555
H21_4 C22_4 1_555 1_555
C23_4 C21_4 1_555 1_555
H22_4 C23_4 1_555 1_555
S2_4 C36_4 1_555 1_555
O5_4 Ni1_4 1_555 1_555
O6_4 Ni1_4 1_555 1_555
O7_4 C37_4 1_555 1_555
O8_4 C37_4 1_555 1_555
N3_4 C25_4 1_555 1_555
N4_4 C25_4 1_555 1_555
C24_4 O5_4 1_555 1_555
C25_4 C40_4 1_555 1_555
C26_4 C24_4 1_555 1_555
C27_4 H23_4 1_555 1_555
C28_4 C27_4 1_555 1_555
H24_4 C28_4 1_555 1_555
C29_4 C26_4 1_555 1_555
H25_4 C29_4 1_555 1_555
C30_4 N4_4 1_555 1_555
C31_4 C28_4 1_555 1_555
C32_4 N3_4 1_555 1_555
H26_4 C32_4 1_555 1_555
C33_4 N4_4 1_555 1_555
H27_4 C33_4 1_555 1_555
H28_4 C33_4 1_555 1_555
C34_4 C26_4 1_555 1_555
H29_4 C34_4 1_555 1_555
H30_4 C34_4 1_555 1_555
C35_4 C27_4 1_555 1_555
C36_4 C34_4 1_555 1_555
C37_4 C35_4 1_555 1_555
C38_4 C31_4 1_555 1_555
H31_4 C38_4 1_555 1_555
C39_4 C35_4 1_555 1_555
H32_4 C39_4 1_555 1_555
C40_4 H33_4 1_555 1_555
H34_4 C40_4 1_555 1_555
C41_4 C40_4 1_555 1_555
H35_4 C41_4 1_555 1_555
H36_4 C41_4 1_555 1_555
C42_4 C41_4 1_555 1_555
H37_4 C42_4 1_555 1_555
H38_4 C42_4 1_555 1_555
C43_4 C42_4 1_555 1_555
H39_4 C43_4 1_555 1_555
H40_4 C43_4 1_555 1_555
H41_4 C43_4 1_555 1_555
C44_4 C36_4 1_555 1_555
H42_4 C44_4 1_555 1_555
C45_4 S2_4 1_555 1_555
H43_4 C45_4 1_555 1_555
C46_4 C44_4 1_555 1_555
H44_4 C46_4 1_555 1_555
Ni3_3 N3_4 1_555 1_555
Ni3_4 N1_4 1_555 1_555
N5_4 Ni1_4 1_555 1_555
N6_4 Ni1_4 1_555 1_555
C6_4 C7_4 1_555 1_555
C7_4 C9_4 1_555 1_555
C8_4 C10_4 1_555 1_555
C15_4 C16_4 1_555 1_555
C22_4 C23_4 1_555 1_555
O6_4 C24_4 1_555 1_555
C29_4 C30_4 1_555 1_555
C30_4 C32_4 1_555 1_555
C31_4 C33_4 1_555 1_555
C38_4 C39_4 1_555 1_555
C45_4 C46_4 1_555 1_555
O3_3 H45_3 1_555 1_555
O7_4 H46_4 1_555 1_555
O3_4 C14_4 1_555 1_555
O4_4 C14_4 1_555 1_555
N1_5 C2_5 1_555 1_555
N2_5 C2_5 1_555 1_555
C2_5 C17_5 1_555 1_555
C4_5 H1_5 1_555 1_555
C5_5 C4_5 1_555 1_555
H2_5 C5_5 1_555 1_555
C7_5 N2_5 1_555 1_555
C8_5 C5_5 1_555 1_555
C9_5 N1_5 1_555 1_555
H4_5 C9_5 1_555 1_555
C10_5 N2_5 1_555 1_555
H5_5 C10_5 1_555 1_555
H6_5 C10_5 1_555 1_555
C12_4 C4_5 1_555 1_555
C14_4 C12_4 1_555 1_555
C15_5 C8_5 1_555 1_555
H9_5 C15_5 1_555 1_555
C16_5 C12_4 1_555 1_555
H10_4 C16_5 1_555 1_555
C17_5 H11_5 1_555 1_555
H12_5 C17_5 1_555 1_555
C18_5 C17_5 1_555 1_555
H13_5 C18_5 1_555 1_555
H14_5 C18_5 1_555 1_555
C19_5 C18_5 1_555 1_555
H15_5 C19_5 1_555 1_555
H16_5 C19_5 1_555 1_555
C20_5 C19_5 1_555 1_555
H17_5 C20_5 1_555 1_555
H18_5 C20_5 1_555 1_555
H19_5 C20_5 1_555 1_555
Ni3_5 N1_5 1_555 1_555
C6_5 C7_5 1_555 1_555
C7_5 C9_5 1_555 1_555
C8_5 C10_5 1_555 1_555
C15_5 C16_5 1_555 1_555
O3_4 H45_4 1_555 1_555
Ni1_5 O1_5 1_555 1_555
S1_5 C13_5 1_555 1_555
O1_5 C1_5 1_555 1_555
O2_5 Ni1_5 1_555 1_555
C1_5 O2_5 1_555 1_555
C3_5 C1_5 1_555 1_555
C11_5 C3_5 1_555 1_555
H8_5 C11_5 1_555 1_555
C13_5 C11_5 1_555 1_555
C21_5 C13_5 1_555 1_555
H20_5 C21_5 1_555 1_555
C22_5 S1_5 1_555 1_555
H21_5 C22_5 1_555 1_555
C23_5 C21_5 1_555 1_555
H22_5 C23_5 1_555 1_555
S2_5 C36_5 1_555 1_555
O5_5 Ni1_5 1_555 1_555
O6_5 Ni1_5 1_555 1_555
N3_5 C25_5 1_555 1_555
N4_5 C25_5 1_555 1_555
C24_5 O5_5 1_555 1_555
C25_5 C40_5 1_555 1_555
C26_5 C24_5 1_555 1_555
C27_5 H23_5 1_555 1_555
C28_5 C27_5 1_555 1_555
H24_5 C28_5 1_555 1_555
C29_5 C26_5 1_555 1_555
H25_5 C29_5 1_555 1_555
C30_5 N4_5 1_555 1_555
C31_5 C28_5 1_555 1_555
C32_5 N3_5 1_555 1_555
H26_5 C32_5 1_555 1_555
C33_5 N4_5 1_555 1_555
H27_5 C33_5 1_555 1_555
H28_5 C33_5 1_555 1_555
C34_5 C26_5 1_555 1_555
H29_5 C34_5 1_555 1_555
H30_5 C34_5 1_555 1_555
C36_5 C34_5 1_555 1_555
C38_5 C31_5 1_555 1_555
H31_5 C38_5 1_555 1_555
C40_5 H33_5 1_555 1_555
H34_5 C40_5 1_555 1_555
C41_5 C40_5 1_555 1_555
H35_5 C41_5 1_555 1_555
H36_5 C41_5 1_555 1_555
C42_5 C41_5 1_555 1_555
H37_5 C42_5 1_555 1_555
H38_5 C42_5 1_555 1_555
C43_5 C42_5 1_555 1_555
H39_5 C43_5 1_555 1_555
H40_5 C43_5 1_555 1_555
H41_5 C43_5 1_555 1_555
C44_5 C36_5 1_555 1_555
H42_5 C44_5 1_555 1_555
C45_5 S2_5 1_555 1_555
H43_5 C45_5 1_555 1_555
C46_5 C44_5 1_555 1_555
H44_5 C46_5 1_555 1_555
Ni2_4 N3_5 1_555 1_555
N5_5 Ni1_5 1_555 1_555
N6_5 Ni1_5 1_555 1_555
C22_5 C23_5 1_555 1_555
O6_5 C24_5 1_555 1_555
C29_5 C30_5 1_555 1_555
C30_5 C32_5 1_555 1_555
C31_5 C33_5 1_555 1_555
C38_5 C39_5 1_555 1_555
C45_5 C46_5 1_555 1_555
Ni1_6 O1_6 1_555 1_555
S1_6 C13_6 1_555 1_555
O1_6 C1_6 1_555 1_555
O2_6 Ni1_6 1_555 1_555
N1_6 C2_6 1_555 1_555
N2_6 C2_6 1_555 1_555
C1_6 O2_6 1_555 1_555
C2_6 C17_6 1_555 1_555
C3_6 C1_6 1_555 1_555
C4_6 H1_6 1_555 1_555
C5_6 C4_6 1_555 1_555
H2_6 C5_6 1_555 1_555
C6_6 C3_6 1_555 1_555
H3_6 C6_6 1_555 1_555
C7_6 N2_6 1_555 1_555
C8_6 C5_6 1_555 1_555
C9_6 N1_6 1_555 1_555
H4_6 C9_6 1_555 1_555
C10_6 N2_6 1_555 1_555
H5_6 C10_6 1_555 1_555
H6_6 C10_6 1_555 1_555
C11_6 C3_6 1_555 1_555
H7_6 C11_6 1_555 1_555
H8_6 C11_6 1_555 1_555
C13_6 C11_6 1_555 1_555
C15_6 C8_6 1_555 1_555
H9_6 C15_6 1_555 1_555
C17_6 H11_6 1_555 1_555
H12_6 C17_6 1_555 1_555
C18_6 C17_6 1_555 1_555
H13_6 C18_6 1_555 1_555
H14_6 C18_6 1_555 1_555
C19_6 C18_6 1_555 1_555
H15_6 C19_6 1_555 1_555
H16_6 C19_6 1_555 1_555
C20_6 C19_6 1_555 1_555
H17_6 C20_6 1_555 1_555
H18_6 C20_6 1_555 1_555
H19_6 C20_6 1_555 1_555
C21_6 C13_6 1_555 1_555
H20_6 C21_6 1_555 1_555
C22_6 S1_6 1_555 1_555
H21_6 C22_6 1_555 1_555
C23_6 C21_6 1_555 1_555
H22_6 C23_6 1_555 1_555
S2_6 C36_6 1_555 1_555
O5_6 Ni1_6 1_555 1_555
O6_6 Ni1_6 1_555 1_555
O7_5 C37_5 1_555 1_555
O8_5 C37_5 1_555 1_555
N3_6 C25_6 1_555 1_555
N4_6 C25_6 1_555 1_555
C24_6 O5_6 1_555 1_555
C25_6 C40_6 1_555 1_555
C26_6 C24_6 1_555 1_555
C27_6 H23_6 1_555 1_555
C28_6 C27_6 1_555 1_555
H24_6 C28_6 1_555 1_555
C29_6 C26_6 1_555 1_555
H25_6 C29_6 1_555 1_555
C30_6 N4_6 1_555 1_555
C31_6 C28_6 1_555 1_555
C32_6 N3_6 1_555 1_555
H26_6 C32_6 1_555 1_555
C33_6 N4_6 1_555 1_555
H27_6 C33_6 1_555 1_555
H28_6 C33_6 1_555 1_555
C34_6 C26_6 1_555 1_555
H29_6 C34_6 1_555 1_555
H30_6 C34_6 1_555 1_555
C35_5 C27_6 1_555 1_555
C36_6 C34_6 1_555 1_555
C37_5 C35_5 1_555 1_555
C38_6 C31_6 1_555 1_555
H31_6 C38_6 1_555 1_555
C39_6 C35_5 1_555 1_555
H32_5 C39_6 1_555 1_555
C40_6 H33_6 1_555 1_555
H34_6 C40_6 1_555 1_555
C41_6 C40_6 1_555 1_555
H35_6 C41_6 1_555 1_555
H36_6 C41_6 1_555 1_555
C42_6 C41_6 1_555 1_555
H37_6 C42_6 1_555 1_555
H38_6 C42_6 1_555 1_555
C43_6 C42_6 1_555 1_555
H39_6 C43_6 1_555 1_555
H40_6 C43_6 1_555 1_555
H41_6 C43_6 1_555 1_555
C44_6 C36_6 1_555 1_555
H42_6 C44_6 1_555 1_555
C45_6 S2_6 1_555 1_555
H43_6 C45_6 1_555 1_555
C46_6 C44_6 1_555 1_555
H44_6 C46_6 1_555 1_555
Ni2_5 N3_6 1_555 1_555
Ni3_6 N1_6 1_555 1_555
N5_6 Ni1_6 1_555 1_555
N6_6 Ni1_6 1_555 1_555
C6_6 C7_6 1_555 1_555
C7_6 C9_6 1_555 1_555
C8_6 C10_6 1_555 1_555
C15_6 C16_6 1_555 1_555
C22_6 C23_6 1_555 1_555
O6_6 C24_6 1_555 1_555
C29_6 C30_6 1_555 1_555
C30_6 C32_6 1_555 1_555
C31_6 C33_6 1_555 1_555
C38_6 C39_6 1_555 1_555
C45_6 C46_6 1_555 1_555
O7_5 H46_5 1_555 1_555
O7_6 C37_6 1_555 1_555
O8_6 C37_6 1_555 1_555
N3_7 C25_7 1_555 1_555
N4_7 C25_7 1_555 1_555
C25_7 C40_7 1_555 1_555
C27_7 H23_7 1_555 1_555
C28_7 C27_7 1_555 1_555
H24_7 C28_7 1_555 1_555
C30_7 N4_7 1_555 1_555
C31_7 C28_7 1_555 1_555
C32_7 N3_7 1_555 1_555
H26_7 C32_7 1_555 1_555
C33_7 N4_7 1_555 1_555
H27_7 C33_7 1_555 1_555
H28_7 C33_7 1_555 1_555
C35_6 C27_7 1_555 1_555
C37_6 C35_6 1_555 1_555
C38_7 C31_7 1_555 1_555
H31_7 C38_7 1_555 1_555
C39_7 C35_6 1_555 1_555
H32_6 C39_7 1_555 1_555
C40_7 H33_7 1_555 1_555
H34_7 C40_7 1_555 1_555
C41_7 C40_7 1_555 1_555
H35_7 C41_7 1_555 1_555
H36_7 C41_7 1_555 1_555
C42_7 C41_7 1_555 1_555
H37_7 C42_7 1_555 1_555
H38_7 C42_7 1_555 1_555
C43_7 C42_7 1_555 1_555
H39_7 C43_7 1_555 1_555
H40_7 C43_7 1_555 1_555
H41_7 C43_7 1_555 1_555
Ni2_6 N3_7 1_555 1_555
C29_7 C30_7 1_555 1_555
C30_7 C32_7 1_555 1_555
C31_7 C33_7 1_555 1_555
C38_7 C39_7 1_555 1_555
O7_6 H46_6 1_555 1_555
Ni1_7 O1_7 1_555 1_555
S1_7 C13_7 1_555 1_555
O1_7 C1_7 1_555 1_555
O2_7 Ni1_7 1_555 1_555
N1_7 C2_7 1_555 1_555
N2_7 C2_7 1_555 1_555
C1_7 O2_7 1_555 1_555
C2_7 C17_7 1_555 1_555
C3_7 C1_7 1_555 1_555
C4_7 H1_7 1_555 1_555
C5_7 C4_7 1_555 1_555
H2_7 C5_7 1_555 1_555
C6_7 C3_7 1_555 1_555
H3_7 C6_7 1_555 1_555
C7_7 N2_7 1_555 1_555
C8_7 C5_7 1_555 1_555
C9_7 N1_7 1_555 1_555
H4_7 C9_7 1_555 1_555
C10_7 N2_7 1_555 1_555
H5_7 C10_7 1_555 1_555
H6_7 C10_7 1_555 1_555
C11_7 C3_7 1_555 1_555
H7_7 C11_7 1_555 1_555
H8_7 C11_7 1_555 1_555
C13_7 C11_7 1_555 1_555
C15_7 C8_7 1_555 1_555
H9_7 C15_7 1_555 1_555
C17_7 H11_7 1_555 1_555
H12_7 C17_7 1_555 1_555
C18_7 C17_7 1_555 1_555
H13_7 C18_7 1_555 1_555
H14_7 C18_7 1_555 1_555
C19_7 C18_7 1_555 1_555
H15_7 C19_7 1_555 1_555
H16_7 C19_7 1_555 1_555
C20_7 C19_7 1_555 1_555
H17_7 C20_7 1_555 1_555
H18_7 C20_7 1_555 1_555
H19_7 C20_7 1_555 1_555
C21_7 C13_7 1_555 1_555
H20_7 C21_7 1_555 1_555
C22_7 S1_7 1_555 1_555
H21_7 C22_7 1_555 1_555
C23_7 C21_7 1_555 1_555
H22_7 C23_7 1_555 1_555
S2_7 C36_7 1_555 1_555
O5_7 Ni1_7 1_555 1_555
O6_7 Ni1_7 1_555 1_555
C24_7 O5_7 1_555 1_555
C26_7 C24_7 1_555 1_555
C34_7 C26_7 1_555 1_555
H30_7 C34_7 1_555 1_555
C36_7 C34_7 1_555 1_555
C44_7 C36_7 1_555 1_555
H42_7 C44_7 1_555 1_555
C45_7 S2_7 1_555 1_555
H43_7 C45_7 1_555 1_555
C46_7 C44_7 1_555 1_555
H44_7 C46_7 1_555 1_555
Ni3_7 N1_7 1_555 1_555
N5_7 Ni1_7 1_555 1_555
N6_7 Ni1_7 1_555 1_555
C6_7 C7_7 1_555 1_555
C7_7 C9_7 1_555 1_555
C8_7 C10_7 1_555 1_555
C15_7 C16_7 1_555 1_555
C22_7 C23_7 1_555 1_555
O6_7 C24_7 1_555 1_555
C45_7 C46_7 1_555 1_555
Ni1_8 O1_8 1_555 1_555
S1_8 C13_8 1_555 1_555
O1_8 C1_8 1_555 1_555
O2_8 Ni1_8 1_555 1_555
N1_8 C2_8 1_555 1_555
N2_8 C2_8 1_555 1_555
C1_8 O2_8 1_555 1_555
C2_8 C17_8 1_555 1_555
C3_8 C1_8 1_555 1_555
C4_8 H1_8 1_555 1_555
C5_8 C4_8 1_555 1_555
H2_8 C5_8 1_555 1_555
C6_8 C3_8 1_555 1_555
H3_8 C6_8 1_555 1_555
C7_8 N2_8 1_555 1_555
C8_8 C5_8 1_555 1_555
C9_8 N1_8 1_555 1_555
H4_8 C9_8 1_555 1_555
C10_8 N2_8 1_555 1_555
H5_8 C10_8 1_555 1_555
H6_8 C10_8 1_555 1_555
C11_8 C3_8 1_555 1_555
H7_8 C11_8 1_555 1_555
H8_8 C11_8 1_555 1_555
C13_8 C11_8 1_555 1_555
C15_8 C8_8 1_555 1_555
H9_8 C15_8 1_555 1_555
C17_8 H11_8 1_555 1_555
H12_8 C17_8 1_555 1_555
C18_8 C17_8 1_555 1_555
H13_8 C18_8 1_555 1_555
H14_8 C18_8 1_555 1_555
C19_8 C18_8 1_555 1_555
H15_8 C19_8 1_555 1_555
H16_8 C19_8 1_555 1_555
C20_8 C19_8 1_555 1_555
H17_8 C20_8 1_555 1_555
H18_8 C20_8 1_555 1_555
H19_8 C20_8 1_555 1_555
C21_8 C13_8 1_555 1_555
H20_8 C21_8 1_555 1_555
C22_8 S1_8 1_555 1_555
H21_8 C22_8 1_555 1_555
C23_8 C21_8 1_555 1_555
H22_8 C23_8 1_555 1_555
S2_8 C36_8 1_555 1_555
O5_8 Ni1_8 1_555 1_555
O6_8 Ni1_8 1_555 1_555
O7_7 C37_7 1_555 1_555
O8_7 C37_7 1_555 1_555
N3_8 C25_8 1_555 1_555
N4_8 C25_8 1_555 1_555
C24_8 O5_8 1_555 1_555
C25_8 C40_8 1_555 1_555
C26_8 C24_8 1_555 1_555
C27_8 H23_8 1_555 1_555
C28_8 C27_8 1_555 1_555
H24_8 C28_8 1_555 1_555
C29_8 C26_8 1_555 1_555
H25_8 C29_8 1_555 1_555
C30_8 N4_8 1_555 1_555
C31_8 C28_8 1_555 1_555
C32_8 N3_8 1_555 1_555
H26_8 C32_8 1_555 1_555
C33_8 N4_8 1_555 1_555
H27_8 C33_8 1_555 1_555
H28_8 C33_8 1_555 1_555
C34_8 C26_8 1_555 1_555
H29_8 C34_8 1_555 1_555
H30_8 C34_8 1_555 1_555
C35_7 C27_8 1_555 1_555
C36_8 C34_8 1_555 1_555
C37_7 C35_7 1_555 1_555
C38_8 C31_8 1_555 1_555
H31_8 C38_8 1_555 1_555
C39_8 C35_7 1_555 1_555
H32_7 C39_8 1_555 1_555
C40_8 H33_8 1_555 1_555
H34_8 C40_8 1_555 1_555
C41_8 C40_8 1_555 1_555
H35_8 C41_8 1_555 1_555
H36_8 C41_8 1_555 1_555
C42_8 C41_8 1_555 1_555
H37_8 C42_8 1_555 1_555
H38_8 C42_8 1_555 1_555
C43_8 C42_8 1_555 1_555
H39_8 C43_8 1_555 1_555
H40_8 C43_8 1_555 1_555
H41_8 C43_8 1_555 1_555
C44_8 C36_8 1_555 1_555
H42_8 C44_8 1_555 1_555
C45_8 S2_8 1_555 1_555
H43_8 C45_8 1_555 1_555
C46_8 C44_8 1_555 1_555
H44_8 C46_8 1_555 1_555
Ni2_7 N3_8 1_555 1_555
Ni3_8 N1_8 1_555 1_555
N5_8 Ni1_8 1_555 1_555
N6_8 Ni1_8 1_555 1_555
C6_8 C7_8 1_555 1_555
C7_8 C9_8 1_555 1_555
C8_8 C10_8 1_555 1_555
C15_8 C16_8 1_555 1_555
C22_8 C23_8 1_555 1_555
O6_8 C24_8 1_555 1_555
C29_8 C30_8 1_555 1_555
C30_8 C32_8 1_555 1_555
C31_8 C33_8 1_555 1_555
C38_8 C39_8 1_555 1_555
C45_8 C46_8 1_555 1_555
O7_7 H46_7 1_555 1_555
O7_8 C37_8 1_555 1_555
O8_8 C37_8 1_555 1_555
N3_9 C25_9 1_555 1_555
N4_9 C25_9 1_555 1_555
C25_9 C40_9 1_555 1_555
C27_9 H23_9 1_555 1_555
C28_9 C27_9 1_555 1_555
H24_9 C28_9 1_555 1_555
C30_9 N4_9 1_555 1_555
C31_9 C28_9 1_555 1_555
C32_9 N3_9 1_555 1_555
H26_9 C32_9 1_555 1_555
C33_9 N4_9 1_555 1_555
H27_9 C33_9 1_555 1_555
H28_9 C33_9 1_555 1_555
C35_8 C27_9 1_555 1_555
C37_8 C35_8 1_555 1_555
C38_9 C31_9 1_555 1_555
H31_9 C38_9 1_555 1_555
C39_9 C35_8 1_555 1_555
H32_8 C39_9 1_555 1_555
C40_9 H33_9 1_555 1_555
H34_9 C40_9 1_555 1_555
C41_9 C40_9 1_555 1_555
H35_9 C41_9 1_555 1_555
H36_9 C41_9 1_555 1_555
C42_9 C41_9 1_555 1_555
H37_9 C42_9 1_555 1_555
H38_9 C42_9 1_555 1_555
C43_9 C42_9 1_555 1_555
H39_9 C43_9 1_555 1_555
H40_9 C43_9 1_555 1_555
H41_9 C43_9 1_555 1_555
Ni3_7 N3_9 1_555 1_555
C29_9 C30_9 1_555 1_555
C30_9 C32_9 1_555 1_555
C31_9 C33_9 1_555 1_555
C38_9 C39_9 1_555 1_555
O7_8 H46_8 1_555 1_555
Ni1_9 O1_9 1_555 1_555
S1_9 C13_9 1_555 1_555
O1_9 C1_9 1_555 1_555
O2_9 Ni1_9 1_555 1_555
N1_9 C2_9 1_555 1_555
N2_9 C2_9 1_555 1_555
C1_9 O2_9 1_555 1_555
C2_9 C17_9 1_555 1_555
C3_9 C1_9 1_555 1_555
C4_9 H1_9 1_555 1_555
C5_9 C4_9 1_555 1_555
H2_9 C5_9 1_555 1_555
C6_9 C3_9 1_555 1_555
H3_9 C6_9 1_555 1_555
C7_9 N2_9 1_555 1_555
C8_9 C5_9 1_555 1_555
C9_9 N1_9 1_555 1_555
H4_9 C9_9 1_555 1_555
C10_9 N2_9 1_555 1_555
H5_9 C10_9 1_555 1_555
H6_9 C10_9 1_555 1_555
C11_9 C3_9 1_555 1_555
H7_9 C11_9 1_555 1_555
H8_9 C11_9 1_555 1_555
C13_9 C11_9 1_555 1_555
C15_9 C8_9 1_555 1_555
H9_9 C15_9 1_555 1_555
C17_9 H11_9 1_555 1_555
H12_9 C17_9 1_555 1_555
C18_9 C17_9 1_555 1_555
H13_9 C18_9 1_555 1_555
H14_9 C18_9 1_555 1_555
C19_9 C18_9 1_555 1_555
H15_9 C19_9 1_555 1_555
H16_9 C19_9 1_555 1_555
C20_9 C19_9 1_555 1_555
H17_9 C20_9 1_555 1_555
H18_9 C20_9 1_555 1_555
H19_9 C20_9 1_555 1_555
C21_9 C13_9 1_555 1_555
H20_9 C21_9 1_555 1_555
C22_9 S1_9 1_555 1_555
H21_9 C22_9 1_555 1_555
C23_9 C21_9 1_555 1_555
H22_9 C23_9 1_555 1_555
S2_9 C36_9 1_555 1_555
O5_9 Ni1_9 1_555 1_555
O6_9 Ni1_9 1_555 1_555
C24_9 O5_9 1_555 1_555
C26_9 C24_9 1_555 1_555
C34_9 C26_9 1_555 1_555
H30_9 C34_9 1_555 1_555
C36_9 C34_9 1_555 1_555
C44_9 C36_9 1_555 1_555
H42_9 C44_9 1_555 1_555
C45_9 S2_9 1_555 1_555
H43_9 C45_9 1_555 1_555
C46_9 C44_9 1_555 1_555
H44_9 C46_9 1_555 1_555
Ni3_9 N1_9 1_555 1_555
N5_9 Ni1_9 1_555 1_555
N6_9 Ni1_9 1_555 1_555
C6_9 C7_9 1_555 1_555
C7_9 C9_9 1_555 1_555
C8_9 C10_9 1_555 1_555
C15_9 C16_9 1_555 1_555
C22_9 C23_9 1_555 1_555
O6_9 C24_9 1_555 1_555
C45_9 C46_9 1_555 1_555
Ni1_10 O1_10 1_555 1_555
S1_10 C13_10 1_555 1_555
O1_10 C1_10 1_555 1_555
O2_10 Ni1_10 1_555 1_555
C1_10 O2_10 1_555 1_555
C3_10 C1_10 1_555 1_555
C11_10 C3_10 1_555 1_555
H8_10 C11_10 1_555 1_555
C13_10 C11_10 1_555 1_555
C21_10 C13_10 1_555 1_555
H20_10 C21_10 1_555 1_555
C22_10 S1_10 1_555 1_555
H21_10 C22_10 1_555 1_555
C23_10 C21_10 1_555 1_555
H22_10 C23_10 1_555 1_555
S2_10 C36_10 1_555 1_555
O5_10 Ni1_10 1_555 1_555
O6_10 Ni1_10 1_555 1_555
O7_9 C37_9 1_555 1_555
O8_9 C37_9 1_555 1_555
N3_10 C25_10 1_555 1_555
N4_10 C25_10 1_555 1_555
C24_10 O5_10 1_555 1_555
C25_10 C40_10 1_555 1_555
C26_10 C24_10 1_555 1_555
C27_10 H23_10 1_555 1_555
C28_10 C27_10 1_555 1_555
H24_10 C28_10 1_555 1_555
C29_10 C26_10 1_555 1_555
H25_10 C29_10 1_555 1_555
C30_10 N4_10 1_555 1_555
C31_10 C28_10 1_555 1_555
C32_10 N3_10 1_555 1_555
H26_10 C32_10 1_555 1_555
C33_10 N4_10 1_555 1_555
H27_10 C33_10 1_555 1_555
H28_10 C33_10 1_555 1_555
C34_10 C26_10 1_555 1_555
H29_10 C34_10 1_555 1_555
H30_10 C34_10 1_555 1_555
C35_9 C27_10 1_555 1_555
C36_10 C34_10 1_555 1_555
C37_9 C35_9 1_555 1_555
C38_10 C31_10 1_555 1_555
H31_10 C38_10 1_555 1_555
C39_10 C35_9 1_555 1_555
H32_9 C39_10 1_555 1_555
C40_10 H33_10 1_555 1_555
H34_10 C40_10 1_555 1_555
C41_10 C40_10 1_555 1_555
H35_10 C41_10 1_555 1_555
H36_10 C41_10 1_555 1_555
C42_10 C41_10 1_555 1_555
H37_10 C42_10 1_555 1_555
H38_10 C42_10 1_555 1_555
C43_10 C42_10 1_555 1_555
H39_10 C43_10 1_555 1_555
H40_10 C43_10 1_555 1_555
H41_10 C43_10 1_555 1_555
C44_10 C36_10 1_555 1_555
H42_10 C44_10 1_555 1_555
C45_10 S2_10 1_555 1_555
H43_10 C45_10 1_555 1_555
C46_10 C44_10 1_555 1_555
H44_10 C46_10 1_555 1_555
Ni3_5 N3_10 1_555 1_555
N5_10 Ni1_10 1_555 1_555
N6_10 Ni1_10 1_555 1_555
C22_10 C23_10 1_555 1_555
O6_10 C24_10 1_555 1_555
C29_10 C30_10 1_555 1_555
C30_10 C32_10 1_555 1_555
C31_10 C33_10 1_555 1_555
C38_10 C39_10 1_555 1_555
C45_10 C46_10 1_555 1_555
O7_9 H46_9 1_555 1_555
O3_5 C14_5 1_555 1_555
O4_5 C14_5 1_555 1_555
N1_10 C2_10 1_555 1_555
N2_10 C2_10 1_555 1_555
C2_10 C17_10 1_555 1_555
C4_10 H1_10 1_555 1_555
C5_10 C4_10 1_555 1_555
H2_10 C5_10 1_555 1_555
C7_10 N2_10 1_555 1_555
C8_10 C5_10 1_555 1_555
C9_10 N1_10 1_555 1_555
H4_10 C9_10 1_555 1_555
C10_10 N2_10 1_555 1_555
H5_10 C10_10 1_555 1_555
H6_10 C10_10 1_555 1_555
C12_5 C4_10 1_555 1_555
C14_5 C12_5 1_555 1_555
C15_10 C8_10 1_555 1_555
H9_10 C15_10 1_555 1_555
C16_10 C12_5 1_555 1_555
H10_5 C16_10 1_555 1_555
C17_10 H11_10 1_555 1_555
H12_10 C17_10 1_555 1_555
C18_10 C17_10 1_555 1_555
H13_10 C18_10 1_555 1_555
H14_10 C18_10 1_555 1_555
C19_10 C18_10 1_555 1_555
H15_10 C19_10 1_555 1_555
H16_10 C19_10 1_555 1_555
C20_10 C19_10 1_555 1_555
H17_10 C20_10 1_555 1_555
H18_10 C20_10 1_555 1_555
H19_10 C20_10 1_555 1_555
Ni3_10 N1_10 1_555 1_555
C6_10 C7_10 1_555 1_555
C7_10 C9_10 1_555 1_555
C8_10 C10_10 1_555 1_555
C15_10 C16_10 1_555 1_555
O3_5 H45_5 1_555 1_555
Ni1_11 O1_11 1_555 1_555
S1_11 C13_11 1_555 1_555
O1_11 C1_11 1_555 1_555
O2_11 Ni1_11 1_555 1_555
O3_6 C14_6 1_555 1_555
O4_6 C14_6 1_555 1_555
N1_11 C2_11 1_555 1_555
N2_11 C2_11 1_555 1_555
C1_11 O2_11 1_555 1_555
C2_11 C17_11 1_555 1_555
C3_11 C1_11 1_555 1_555
C4_11 H1_11 1_555 1_555
C5_11 C4_11 1_555 1_555
H2_11 C5_11 1_555 1_555
C6_11 C3_11 1_555 1_555
H3_11 C6_11 1_555 1_555
C7_11 N2_11 1_555 1_555
C8_11 C5_11 1_555 1_555
C9_11 N1_11 1_555 1_555
H4_11 C9_11 1_555 1_555
C10_11 N2_11 1_555 1_555
H5_11 C10_11 1_555 1_555
H6_11 C10_11 1_555 1_555
C11_11 C3_11 1_555 1_555
H7_11 C11_11 1_555 1_555
H8_11 C11_11 1_555 1_555
C12_6 C4_11 1_555 1_555
C13_11 C11_11 1_555 1_555
C14_6 C12_6 1_555 1_555
C15_11 C8_11 1_555 1_555
H9_11 C15_11 1_555 1_555
C16_11 C12_6 1_555 1_555
H10_6 C16_11 1_555 1_555
C17_11 H11_11 1_555 1_555
H12_11 C17_11 1_555 1_555
C18_11 C17_11 1_555 1_555
H13_11 C18_11 1_555 1_555
H14_11 C18_11 1_555 1_555
C19_11 C18_11 1_555 1_555
H15_11 C19_11 1_555 1_555
H16_11 C19_11 1_555 1_555
C20_11 C19_11 1_555 1_555
H17_11 C20_11 1_555 1_555
H18_11 C20_11 1_555 1_555
H19_11 C20_11 1_555 1_555
C21_11 C13_11 1_555 1_555
H20_11 C21_11 1_555 1_555
C22_11 S1_11 1_555 1_555
H21_11 C22_11 1_555 1_555
C23_11 C21_11 1_555 1_555
H22_11 C23_11 1_555 1_555
S2_11 C36_11 1_555 1_555
O5_11 Ni1_11 1_555 1_555
O6_11 Ni1_11 1_555 1_555
O7_10 C37_10 1_555 1_555
O8_10 C37_10 1_555 1_555
N3_11 C25_11 1_555 1_555
N4_11 C25_11 1_555 1_555
C24_11 O5_11 1_555 1_555
C25_11 C40_11 1_555 1_555
C26_11 C24_11 1_555 1_555
C27_11 H23_11 1_555 1_555
C28_11 C27_11 1_555 1_555
H24_11 C28_11 1_555 1_555
C29_11 C26_11 1_555 1_555
H25_11 C29_11 1_555 1_555
C30_11 N4_11 1_555 1_555
C31_11 C28_11 1_555 1_555
C32_11 N3_11 1_555 1_555
H26_11 C32_11 1_555 1_555
C33_11 N4_11 1_555 1_555
H27_11 C33_11 1_555 1_555
H28_11 C33_11 1_555 1_555
C34_11 C26_11 1_555 1_555
H29_11 C34_11 1_555 1_555
H30_11 C34_11 1_555 1_555
C35_10 C27_11 1_555 1_555
C36_11 C34_11 1_555 1_555
C37_10 C35_10 1_555 1_555
C38_11 C31_11 1_555 1_555
H31_11 C38_11 1_555 1_555
C39_11 C35_10 1_555 1_555
H32_10 C39_11 1_555 1_555
C40_11 H33_11 1_555 1_555
H34_11 C40_11 1_555 1_555
C41_11 C40_11 1_555 1_555
H35_11 C41_11 1_555 1_555
H36_11 C41_11 1_555 1_555
C42_11 C41_11 1_555 1_555
H37_11 C42_11 1_555 1_555
H38_11 C42_11 1_555 1_555
C43_11 C42_11 1_555 1_555
H39_11 C43_11 1_555 1_555
H40_11 C43_11 1_555 1_555
H41_11 C43_11 1_555 1_555
C44_11 C36_11 1_555 1_555
H42_11 C44_11 1_555 1_555
C45_11 S2_11 1_555 1_555
H43_11 C45_11 1_555 1_555
C46_11 C44_11 1_555 1_555
H44_11 C46_11 1_555 1_555
Ni3 N3_11 1_555 1_555
Ni3_11 N1_11 1_555 1_555
N5_11 Ni1_11 1_555 1_555
N6_11 Ni1_11 1_555 1_555
C6_11 C7_11 1_555 1_555
C7_11 C9_11 1_555 1_555
C8_11 C10_11 1_555 1_555
C15_11 C16_11 1_555 1_555
C22_11 C23_11 1_555 1_555
O6_11 C24_11 1_555 1_555
C29_11 C30_11 1_555 1_555
C30_11 C32_11 1_555 1_555
C31_11 C33_11 1_555 1_555
C38_11 C39_11 1_555 1_555
C45_11 C46_11 1_555 1_555
O3_6 H45_6 1_555 1_555
O7_10 H46_10 1_555 1_555
Ni1_12 O1_12 1_555 1_555
S1_12 C13_12 1_555 1_555
O1_12 C1_12 1_555 1_555
O2_12 Ni1_12 1_555 1_555
O3_7 C14_7 1_555 1_555
O4_7 C14_7 1_555 1_555
N1_12 C2_12 1_555 1_555
N2_12 C2_12 1_555 1_555
C1_12 O2_12 1_555 1_555
C2_12 C17_12 1_555 1_555
C3_12 C1_12 1_555 1_555
C4_12 H1_12 1_555 1_555
C5_12 C4_12 1_555 1_555
H2_12 C5_12 1_555 1_555
C6_12 C3_12 1_555 1_555
H3_12 C6_12 1_555 1_555
C7_12 N2_12 1_555 1_555
C8_12 C5_12 1_555 1_555
C9_12 N1_12 1_555 1_555
H4_12 C9_12 1_555 1_555
C10_12 N2_12 1_555 1_555
H5_12 C10_12 1_555 1_555
H6_12 C10_12 1_555 1_555
C11_12 C3_12 1_555 1_555
H7_12 C11_12 1_555 1_555
H8_12 C11_12 1_555 1_555
C12_7 C4_12 1_555 1_555
C13_12 C11_12 1_555 1_555
C14_7 C12_7 1_555 1_555
C15_12 C8_12 1_555 1_555
H9_12 C15_12 1_555 1_555
C16_12 C12_7 1_555 1_555
H10_7 C16_12 1_555 1_555
C17_12 H11_12 1_555 1_555
H12_12 C17_12 1_555 1_555
C18_12 C17_12 1_555 1_555
H13_12 C18_12 1_555 1_555
H14_12 C18_12 1_555 1_555
C19_12 C18_12 1_555 1_555
H15_12 C19_12 1_555 1_555
H16_12 C19_12 1_555 1_555
C20_12 C19_12 1_555 1_555
H17_12 C20_12 1_555 1_555
H18_12 C20_12 1_555 1_555
H19_12 C20_12 1_555 1_555
C21_12 C13_12 1_555 1_555
H20_12 C21_12 1_555 1_555
C22_12 S1_12 1_555 1_555
H21_12 C22_12 1_555 1_555
C23_12 C21_12 1_555 1_555
H22_12 C23_12 1_555 1_555
S2_12 C36_12 1_555 1_555
O5_12 Ni1_12 1_555 1_555
O6_12 Ni1_12 1_555 1_555
O7_11 C37_11 1_555 1_555
O8_11 C37_11 1_555 1_555
N3_12 C25_12 1_555 1_555
N4_12 C25_12 1_555 1_555
C24_12 O5_12 1_555 1_555
C25_12 C40_12 1_555 1_555
C26_12 C24_12 1_555 1_555
C27_12 H23_12 1_555 1_555
C28_12 C27_12 1_555 1_555
H24_12 C28_12 1_555 1_555
C29_12 C26_12 1_555 1_555
H25_12 C29_12 1_555 1_555
C30_12 N4_12 1_555 1_555
C31_12 C28_12 1_555 1_555
C32_12 N3_12 1_555 1_555
H26_12 C32_12 1_555 1_555
C33_12 N4_12 1_555 1_555
H27_12 C33_12 1_555 1_555
H28_12 C33_12 1_555 1_555
C34_12 C26_12 1_555 1_555
H29_12 C34_12 1_555 1_555
H30_12 C34_12 1_555 1_555
C35_11 C27_12 1_555 1_555
C36_12 C34_12 1_555 1_555
C37_11 C35_11 1_555 1_555
C38_12 C31_12 1_555 1_555
H31_12 C38_12 1_555 1_555
C39_12 C35_11 1_555 1_555
H32_11 C39_12 1_555 1_555
C40_12 H33_12 1_555 1_555
H34_12 C40_12 1_555 1_555
C41_12 C40_12 1_555 1_555
H35_12 C41_12 1_555 1_555
H36_12 C41_12 1_555 1_555
C42_12 C41_12 1_555 1_555
H37_12 C42_12 1_555 1_555
H38_12 C42_12 1_555 1_555
C43_12 C42_12 1_555 1_555
H39_12 C43_12 1_555 1_555
H40_12 C43_12 1_555 1_555
H41_12 C43_12 1_555 1_555
C44_12 C36_12 1_555 1_555
H42_12 C44_12 1_555 1_555
C45_12 S2_12 1_555 1_555
H43_12 C45_12 1_555 1_555
C46_12 C44_12 1_555 1_555
H44_12 C46_12 1_555 1_555
Ni3_10 N3_12 1_555 1_555
Ni3_12 N1_12 1_555 1_555
N5_12 Ni1_12 1_555 1_555
N6_12 Ni1_12 1_555 1_555
C6_12 C7_12 1_555 1_555
C7_12 C9_12 1_555 1_555
C8_12 C10_12 1_555 1_555
C15_12 C16_12 1_555 1_555
C22_12 C23_12 1_555 1_555
O6_12 C24_12 1_555 1_555
C29_12 C30_12 1_555 1_555
C30_12 C32_12 1_555 1_555
C31_12 C33_12 1_555 1_555
C38_12 C39_12 1_555 1_555
C45_12 C46_12 1_555 1_555
O3_7 H45_7 1_555 1_555
O7_11 H46_11 1_555 1_555
O7_12 C37_12 1_555 1_555
O8_12 C37_12 1_555 1_555
N3_13 C25_13 1_555 1_555
N4_13 C25_13 1_555 1_555
C25_13 C40_13 1_555 1_555
C27_13 H23_13 1_555 1_555
C28_13 C27_13 1_555 1_555
H24_13 C28_13 1_555 1_555
C30_13 N4_13 1_555 1_555
C31_13 C28_13 1_555 1_555
C32_13 N3_13 1_555 1_555
H26_13 C32_13 1_555 1_555
C33_13 N4_13 1_555 1_555
H27_13 C33_13 1_555 1_555
H28_13 C33_13 1_555 1_555
C35_12 C27_13 1_555 1_555
C37_12 C35_12 1_555 1_555
C38_13 C31_13 1_555 1_555
H31_13 C38_13 1_555 1_555
C39_13 C35_12 1_555 1_555
H32_12 C39_13 1_555 1_555
C40_13 H33_13 1_555 1_555
H34_13 C40_13 1_555 1_555
C41_13 C40_13 1_555 1_555
H35_13 C41_13 1_555 1_555
H36_13 C41_13 1_555 1_555
C42_13 C41_13 1_555 1_555
H37_13 C42_13 1_555 1_555
H38_13 C42_13 1_555 1_555
C43_13 C42_13 1_555 1_555
H39_13 C43_13 1_555 1_555
H40_13 C43_13 1_555 1_555
H41_13 C43_13 1_555 1_555
Ni2_8 N3_13 1_555 1_555
C29_13 C30_13 1_555 1_555
C30_13 C32_13 1_555 1_555
C31_13 C33_13 1_555 1_555
C38_13 C39_13 1_555 1_555
O7_12 H46_12 1_555 1_555
Ni1_13 O1_13 1_555 1_555
S1_13 C13_13 1_555 1_555
O1_13 C1_13 1_555 1_555
O2_13 Ni1_13 1_555 1_555
N1_13 C2_13 1_555 1_555
N2_13 C2_13 1_555 1_555
C1_13 O2_13 1_555 1_555
C2_13 C17_13 1_555 1_555
C3_13 C1_13 1_555 1_555
C4_13 H1_13 1_555 1_555
C5_13 C4_13 1_555 1_555
H2_13 C5_13 1_555 1_555
C6_13 C3_13 1_555 1_555
H3_13 C6_13 1_555 1_555
C7_13 N2_13 1_555 1_555
C8_13 C5_13 1_555 1_555
C9_13 N1_13 1_555 1_555
H4_13 C9_13 1_555 1_555
C10_13 N2_13 1_555 1_555
H5_13 C10_13 1_555 1_555
H6_13 C10_13 1_555 1_555
C11_13 C3_13 1_555 1_555
H7_13 C11_13 1_555 1_555
H8_13 C11_13 1_555 1_555
C13_13 C11_13 1_555 1_555
C15_13 C8_13 1_555 1_555
H9_13 C15_13 1_555 1_555
C17_13 H11_13 1_555 1_555
H12_13 C17_13 1_555 1_555
C18_13 C17_13 1_555 1_555
H13_13 C18_13 1_555 1_555
H14_13 C18_13 1_555 1_555
C19_13 C18_13 1_555 1_555
H15_13 C19_13 1_555 1_555
H16_13 C19_13 1_555 1_555
C20_13 C19_13 1_555 1_555
H17_13 C20_13 1_555 1_555
H18_13 C20_13 1_555 1_555
H19_13 C20_13 1_555 1_555
C21_13 C13_13 1_555 1_555
H20_13 C21_13 1_555 1_555
C22_13 S1_13 1_555 1_555
H21_13 C22_13 1_555 1_555
C23_13 C21_13 1_555 1_555
H22_13 C23_13 1_555 1_555
S2_13 C36_13 1_555 1_555
O5_13 Ni1_13 1_555 1_555
O6_13 Ni1_13 1_555 1_555
C24_13 O5_13 1_555 1_555
C26_13 C24_13 1_555 1_555
C34_13 C26_13 1_555 1_555
H30_13 C34_13 1_555 1_555
C36_13 C34_13 1_555 1_555
C44_13 C36_13 1_555 1_555
H42_13 C44_13 1_555 1_555
C45_13 S2_13 1_555 1_555
H43_13 C45_13 1_555 1_555
C46_13 C44_13 1_555 1_555
H44_13 C46_13 1_555 1_555
Ni3_13 N1_13 1_555 1_555
N5_13 Ni1_13 1_555 1_555
N6_13 Ni1_13 1_555 1_555
C6_13 C7_13 1_555 1_555
C7_13 C9_13 1_555 1_555
C8_13 C10_13 1_555 1_555
C15_13 C16_13 1_555 1_555
C22_13 C23_13 1_555 1_555
O6_13 C24_13 1_555 1_555
C45_13 C46_13 1_555 1_555
Ni1_14 O1_14 1_555 1_555
S1_14 C13_14 1_555 1_555
O1_14 C1_14 1_555 1_555
O2_14 Ni1_14 1_555 1_555
O3_8 C14_8 1_555 1_555
O4_8 C14_8 1_555 1_555
N1_14 C2_14 1_555 1_555
N2_14 C2_14 1_555 1_555
C1_14 O2_14 1_555 1_555
C2_14 C17_14 1_555 1_555
C3_14 C1_14 1_555 1_555
C4_14 H1_14 1_555 1_555
C5_14 C4_14 1_555 1_555
H2_14 C5_14 1_555 1_555
C6_14 C3_14 1_555 1_555
H3_14 C6_14 1_555 1_555
C7_14 N2_14 1_555 1_555
C8_14 C5_14 1_555 1_555
C9_14 N1_14 1_555 1_555
H4_14 C9_14 1_555 1_555
C10_14 N2_14 1_555 1_555
H5_14 C10_14 1_555 1_555
H6_14 C10_14 1_555 1_555
C11_14 C3_14 1_555 1_555
H7_14 C11_14 1_555 1_555
H8_14 C11_14 1_555 1_555
C12_8 C4_14 1_555 1_555
C13_14 C11_14 1_555 1_555
C14_8 C12_8 1_555 1_555
C15_14 C8_14 1_555 1_555
H9_14 C15_14 1_555 1_555
C16_14 C12_8 1_555 1_555
H10_8 C16_14 1_555 1_555
C17_14 H11_14 1_555 1_555
H12_14 C17_14 1_555 1_555
C18_14 C17_14 1_555 1_555
H13_14 C18_14 1_555 1_555
H14_14 C18_14 1_555 1_555
C19_14 C18_14 1_555 1_555
H15_14 C19_14 1_555 1_555
H16_14 C19_14 1_555 1_555
C20_14 C19_14 1_555 1_555
H17_14 C20_14 1_555 1_555
H18_14 C20_14 1_555 1_555
H19_14 C20_14 1_555 1_555
C21_14 C13_14 1_555 1_555
H20_14 C21_14 1_555 1_555
C22_14 S1_14 1_555 1_555
H21_14 C22_14 1_555 1_555
C23_14 C21_14 1_555 1_555
H22_14 C23_14 1_555 1_555
S2_14 C36_14 1_555 1_555
O5_14 Ni1_14 1_555 1_555
O6_14 Ni1_14 1_555 1_555
N3_14 C25_14 1_555 1_555
N4_14 C25_14 1_555 1_555
C24_14 O5_14 1_555 1_555
C25_14 C40_14 1_555 1_555
C26_14 C24_14 1_555 1_555
C27_14 H23_14 1_555 1_555
C28_14 C27_14 1_555 1_555
H24_14 C28_14 1_555 1_555
C29_14 C26_14 1_555 1_555
H25_14 C29_14 1_555 1_555
C30_14 N4_14 1_555 1_555
C31_14 C28_14 1_555 1_555
C32_14 N3_14 1_555 1_555
H26_14 C32_14 1_555 1_555
C33_14 N4_14 1_555 1_555
H27_14 C33_14 1_555 1_555
H28_14 C33_14 1_555 1_555
C34_14 C26_14 1_555 1_555
H29_14 C34_14 1_555 1_555
H30_14 C34_14 1_555 1_555
C36_14 C34_14 1_555 1_555
C38_14 C31_14 1_555 1_555
H31_14 C38_14 1_555 1_555
C40_14 H33_14 1_555 1_555
H34_14 C40_14 1_555 1_555
C41_14 C40_14 1_555 1_555
H35_14 C41_14 1_555 1_555
H36_14 C41_14 1_555 1_555
C42_14 C41_14 1_555 1_555
H37_14 C42_14 1_555 1_555
H38_14 C42_14 1_555 1_555
C43_14 C42_14 1_555 1_555
H39_14 C43_14 1_555 1_555
H40_14 C43_14 1_555 1_555
H41_14 C43_14 1_555 1_555
C44_14 C36_14 1_555 1_555
H42_14 C44_14 1_555 1_555
C45_14 S2_14 1_555 1_555
H43_14 C45_14 1_555 1_555
C46_14 C44_14 1_555 1_555
H44_14 C46_14 1_555 1_555
Ni2_9 N3_14 1_555 1_555
Ni3_14 N1_14 1_555 1_555
N5_14 Ni1_14 1_555 1_555
N6_14 Ni1_14 1_555 1_555
C6_14 C7_14 1_555 1_555
C7_14 C9_14 1_555 1_555
C8_14 C10_14 1_555 1_555
C15_14 C16_14 1_555 1_555
C22_14 C23_14 1_555 1_555
O6_14 C24_14 1_555 1_555
C29_14 C30_14 1_555 1_555
C30_14 C32_14 1_555 1_555
C31_14 C33_14 1_555 1_555
C38_14 C39_14 1_555 1_555
C45_14 C46_14 1_555 1_555
O3_8 H45_8 1_555 1_555
Ni1_15 O1_15 1_555 1_555
S1_15 C13_15 1_555 1_555
O1_15 C1_15 1_555 1_555
O2_15 Ni1_15 1_555 1_555
C1_15 O2_15 1_555 1_555
C3_15 C1_15 1_555 1_555
C11_15 C3_15 1_555 1_555
H8_15 C11_15 1_555 1_555
C13_15 C11_15 1_555 1_555
C21_15 C13_15 1_555 1_555
H20_15 C21_15 1_555 1_555
C22_15 S1_15 1_555 1_555
H21_15 C22_15 1_555 1_555
C23_15 C21_15 1_555 1_555
H22_15 C23_15 1_555 1_555
S2_15 C36_15 1_555 1_555
O5_15 Ni1_15 1_555 1_555
O6_15 Ni1_15 1_555 1_555
O7_13 C37_13 1_555 1_555
O8_13 C37_13 1_555 1_555
N3_15 C25_15 1_555 1_555
N4_15 C25_15 1_555 1_555
C24_15 O5_15 1_555 1_555
C25_15 C40_15 1_555 1_555
C26_15 C24_15 1_555 1_555
C27_15 H23_15 1_555 1_555
C28_15 C27_15 1_555 1_555
H24_15 C28_15 1_555 1_555
C29_15 C26_15 1_555 1_555
H25_15 C29_15 1_555 1_555
C30_15 N4_15 1_555 1_555
C31_15 C28_15 1_555 1_555
C32_15 N3_15 1_555 1_555
H26_15 C32_15 1_555 1_555
C33_15 N4_15 1_555 1_555
H27_15 C33_15 1_555 1_555
H28_15 C33_15 1_555 1_555
C34_15 C26_15 1_555 1_555
H29_15 C34_15 1_555 1_555
H30_15 C34_15 1_555 1_555
C35_13 C27_15 1_555 1_555
C36_15 C34_15 1_555 1_555
C37_13 C35_13 1_555 1_555
C38_15 C31_15 1_555 1_555
H31_15 C38_15 1_555 1_555
C39_15 C35_13 1_555 1_555
H32_13 C39_15 1_555 1_555
C40_15 H33_15 1_555 1_555
H34_15 C40_15 1_555 1_555
C41_15 C40_15 1_555 1_555
H35_15 C41_15 1_555 1_555
H36_15 C41_15 1_555 1_555
C42_15 C41_15 1_555 1_555
H37_15 C42_15 1_555 1_555
H38_15 C42_15 1_555 1_555
C43_15 C42_15 1_555 1_555
H39_15 C43_15 1_555 1_555
H40_15 C43_15 1_555 1_555
H41_15 C43_15 1_555 1_555
C44_15 C36_15 1_555 1_555
H42_15 C44_15 1_555 1_555
C45_15 S2_15 1_555 1_555
H43_15 C45_15 1_555 1_555
C46_15 C44_15 1_555 1_555
H44_15 C46_15 1_555 1_555
Ni3_14 N3_15 1_555 1_555
N5_15 Ni1_15 1_555 1_555
N6_15 Ni1_15 1_555 1_555
C22_15 C23_15 1_555 1_555
O6_15 C24_15 1_555 1_555
C29_15 C30_15 1_555 1_555
C30_15 C32_15 1_555 1_555
C31_15 C33_15 1_555 1_555
C38_15 C39_15 1_555 1_555
C45_15 C46_15 1_555 1_555
O7_13 H46_13 1_555 1_555
O3_9 C14_9 1_555 1_555
O4_9 C14_9 1_555 1_555
N1_15 C2_15 1_555 1_555
N2_15 C2_15 1_555 1_555
C2_15 C17_15 1_555 1_555
C4_15 H1_15 1_555 1_555
C5_15 C4_15 1_555 1_555
H2_15 C5_15 1_555 1_555
C7_15 N2_15 1_555 1_555
C8_15 C5_15 1_555 1_555
C9_15 N1_15 1_555 1_555
H4_15 C9_15 1_555 1_555
C10_15 N2_15 1_555 1_555
H5_15 C10_15 1_555 1_555
H6_15 C10_15 1_555 1_555
C12_9 C4_15 1_555 1_555
C14_9 C12_9 1_555 1_555
C15_15 C8_15 1_555 1_555
H9_15 C15_15 1_555 1_555
C16_15 C12_9 1_555 1_555
H10_9 C16_15 1_555 1_555
C17_15 H11_15 1_555 1_555
H12_15 C17_15 1_555 1_555
C18_15 C17_15 1_555 1_555
H13_15 C18_15 1_555 1_555
H14_15 C18_15 1_555 1_555
C19_15 C18_15 1_555 1_555
H15_15 C19_15 1_555 1_555
H16_15 C19_15 1_555 1_555
C20_15 C19_15 1_555 1_555
H17_15 C20_15 1_555 1_555
H18_15 C20_15 1_555 1_555
H19_15 C20_15 1_555 1_555
Ni3_8 N1_15 1_555 1_555
C6_15 C7_15 1_555 1_555
C7_15 C9_15 1_555 1_555
C8_15 C10_15 1_555 1_555
C15_15 C16_15 1_555 1_555
O3_9 H45_9 1_555 1_555
Ni1_16 O1_16 1_555 1_555
S1_16 C13_16 1_555 1_555
O1_16 C1_16 1_555 1_555
O2_16 Ni1_16 1_555 1_555
N1_16 C2_16 1_555 1_555
N2_16 C2_16 1_555 1_555
C1_16 O2_16 1_555 1_555
C2_16 C17_16 1_555 1_555
C3_16 C1_16 1_555 1_555
C4_16 H1_16 1_555 1_555
C5_16 C4_16 1_555 1_555
H2_16 C5_16 1_555 1_555
C6_16 C3_16 1_555 1_555
H3_16 C6_16 1_555 1_555
C7_16 N2_16 1_555 1_555
C8_16 C5_16 1_555 1_555
C9_16 N1_16 1_555 1_555
H4_16 C9_16 1_555 1_555
C10_16 N2_16 1_555 1_555
H5_16 C10_16 1_555 1_555
H6_16 C10_16 1_555 1_555
C11_16 C3_16 1_555 1_555
H7_16 C11_16 1_555 1_555
H8_16 C11_16 1_555 1_555
C13_16 C11_16 1_555 1_555
C15_16 C8_16 1_555 1_555
H9_16 C15_16 1_555 1_555
C17_16 H11_16 1_555 1_555
H12_16 C17_16 1_555 1_555
C18_16 C17_16 1_555 1_555
H13_16 C18_16 1_555 1_555
H14_16 C18_16 1_555 1_555
C19_16 C18_16 1_555 1_555
H15_16 C19_16 1_555 1_555
H16_16 C19_16 1_555 1_555
C20_16 C19_16 1_555 1_555
H17_16 C20_16 1_555 1_555
H18_16 C20_16 1_555 1_555
H19_16 C20_16 1_555 1_555
C21_16 C13_16 1_555 1_555
H20_16 C21_16 1_555 1_555
C22_16 S1_16 1_555 1_555
H21_16 C22_16 1_555 1_555
C23_16 C21_16 1_555 1_555
H22_16 C23_16 1_555 1_555
S2_16 C36_16 1_555 1_555
O5_16 Ni1_16 1_555 1_555
O6_16 Ni1_16 1_555 1_555
O7_14 C37_14 1_555 1_555
O8_14 C37_14 1_555 1_555
N3_16 C25_16 1_555 1_555
N4_16 C25_16 1_555 1_555
C24_16 O5_16 1_555 1_555
C25_16 C40_16 1_555 1_555
C26_16 C24_16 1_555 1_555
C27_16 H23_16 1_555 1_555
C28_16 C27_16 1_555 1_555
H24_16 C28_16 1_555 1_555
C29_16 C26_16 1_555 1_555
H25_16 C29_16 1_555 1_555
C30_16 N4_16 1_555 1_555
C31_16 C28_16 1_555 1_555
C32_16 N3_16 1_555 1_555
H26_16 C32_16 1_555 1_555
C33_16 N4_16 1_555 1_555
H27_16 C33_16 1_555 1_555
H28_16 C33_16 1_555 1_555
C34_16 C26_16 1_555 1_555
H29_16 C34_16 1_555 1_555
H30_16 C34_16 1_555 1_555
C35_14 C27_16 1_555 1_555
C36_16 C34_16 1_555 1_555
C37_14 C35_14 1_555 1_555
C38_16 C31_16 1_555 1_555
H31_16 C38_16 1_555 1_555
C39_16 C35_14 1_555 1_555
H32_14 C39_16 1_555 1_555
C40_16 H33_16 1_555 1_555
H34_16 C40_16 1_555 1_555
C41_16 C40_16 1_555 1_555
H35_16 C41_16 1_555 1_555
H36_16 C41_16 1_555 1_555
C42_16 C41_16 1_555 1_555
H37_16 C42_16 1_555 1_555
H38_16 C42_16 1_555 1_555
C43_16 C42_16 1_555 1_555
H39_16 C43_16 1_555 1_555
H40_16 C43_16 1_555 1_555
H41_16 C43_16 1_555 1_555
C44_16 C36_16 1_555 1_555
H42_16 C44_16 1_555 1_555
C45_16 S2_16 1_555 1_555
H43_16 C45_16 1_555 1_555
C46_16 C44_16 1_555 1_555
H44_16 C46_16 1_555 1_555
Ni3_9 N3_16 1_555 1_555
Ni3_11 N1_16 1_555 1_555
N5_16 Ni1_16 1_555 1_555
N6_16 Ni1_16 1_555 1_555
C6_16 C7_16 1_555 1_555
C7_16 C9_16 1_555 1_555
C8_16 C10_16 1_555 1_555
C15_16 C16_16 1_555 1_555
C22_16 C23_16 1_555 1_555
O6_16 C24_16 1_555 1_555
C29_16 C30_16 1_555 1_555
C30_16 C32_16 1_555 1_555
C31_16 C33_16 1_555 1_555
C38_16 C39_16 1_555 1_555
C45_16 C46_16 1_555 1_555
O7_14 H46_14 1_555 1_555
Ni1_17 O1_17 1_555 1_555
S1_17 C13_17 1_555 1_555
O1_17 C1_17 1_555 1_555
O2_17 Ni1_17 1_555 1_555
N1_17 C2_17 1_555 1_555
N2_17 C2_17 1_555 1_555
C1_17 O2_17 1_555 1_555
C2_17 C17_17 1_555 1_555
C3_17 C1_17 1_555 1_555
C4_17 H1_17 1_555 1_555
C5_17 C4_17 1_555 1_555
H2_17 C5_17 1_555 1_555
C6_17 C3_17 1_555 1_555
H3_17 C6_17 1_555 1_555
C7_17 N2_17 1_555 1_555
C8_17 C5_17 1_555 1_555
C9_17 N1_17 1_555 1_555
H4_17 C9_17 1_555 1_555
C10_17 N2_17 1_555 1_555
H5_17 C10_17 1_555 1_555
H6_17 C10_17 1_555 1_555
C11_17 C3_17 1_555 1_555
H7_17 C11_17 1_555 1_555
H8_17 C11_17 1_555 1_555
C13_17 C11_17 1_555 1_555
C15_17 C8_17 1_555 1_555
H9_17 C15_17 1_555 1_555
C17_17 H11_17 1_555 1_555
H12_17 C17_17 1_555 1_555
C18_17 C17_17 1_555 1_555
H13_17 C18_17 1_555 1_555
H14_17 C18_17 1_555 1_555
C19_17 C18_17 1_555 1_555
H15_17 C19_17 1_555 1_555
H16_17 C19_17 1_555 1_555
C20_17 C19_17 1_555 1_555
H17_17 C20_17 1_555 1_555
H18_17 C20_17 1_555 1_555
H19_17 C20_17 1_555 1_555
C21_17 C13_17 1_555 1_555
H20_17 C21_17 1_555 1_555
C22_17 S1_17 1_555 1_555
H21_17 C22_17 1_555 1_555
C23_17 C21_17 1_555 1_555
H22_17 C23_17 1_555 1_555
S2_17 C36_17 1_555 1_555
O5_17 Ni1_17 1_555 1_555
O6_17 Ni1_17 1_555 1_555
O7_15 C37_15 1_555 1_555
O8_15 C37_15 1_555 1_555
N3_17 C25_17 1_555 1_555
N4_17 C25_17 1_555 1_555
C24_17 O5_17 1_555 1_555
C25_17 C40_17 1_555 1_555
C26_17 C24_17 1_555 1_555
C27_17 H23_17 1_555 1_555
C28_17 C27_17 1_555 1_555
H24_17 C28_17 1_555 1_555
C29_17 C26_17 1_555 1_555
H25_17 C29_17 1_555 1_555
C30_17 N4_17 1_555 1_555
C31_17 C28_17 1_555 1_555
C32_17 N3_17 1_555 1_555
H26_17 C32_17 1_555 1_555
C33_17 N4_17 1_555 1_555
H27_17 C33_17 1_555 1_555
H28_17 C33_17 1_555 1_555
C34_17 C26_17 1_555 1_555
H29_17 C34_17 1_555 1_555
H30_17 C34_17 1_555 1_555
C35_15 C27_17 1_555 1_555
C36_17 C34_17 1_555 1_555
C37_15 C35_15 1_555 1_555
C38_17 C31_17 1_555 1_555
H31_17 C38_17 1_555 1_555
C39_17 C35_15 1_555 1_555
H32_15 C39_17 1_555 1_555
C40_17 H33_17 1_555 1_555
H34_17 C40_17 1_555 1_555
C41_17 C40_17 1_555 1_555
H35_17 C41_17 1_555 1_555
H36_17 C41_17 1_555 1_555
C42_17 C41_17 1_555 1_555
H37_17 C42_17 1_555 1_555
H38_17 C42_17 1_555 1_555
C43_17 C42_17 1_555 1_555
H39_17 C43_17 1_555 1_555
H40_17 C43_17 1_555 1_555
H41_17 C43_17 1_555 1_555
C44_17 C36_17 1_555 1_555
H42_17 C44_17 1_555 1_555
C45_17 S2_17 1_555 1_555
H43_17 C45_17 1_555 1_555
C46_17 C44_17 1_555 1_555
H44_17 C46_17 1_555 1_555
Ni3_13 N3_17 1_555 1_555
Ni3_15 N1_17 1_555 1_555
N5_17 Ni1_17 1_555 1_555
N6_17 Ni1_17 1_555 1_555
C6_17 C7_17 1_555 1_555
C7_17 C9_17 1_555 1_555
C8_17 C10_17 1_555 1_555
C15_17 C16_17 1_555 1_555
C22_17 C23_17 1_555 1_555
O6_17 C24_17 1_555 1_555
C29_17 C30_17 1_555 1_555
C30_17 C32_17 1_555 1_555
C31_17 C33_17 1_555 1_555
C38_17 C39_17 1_555 1_555
C45_17 C46_17 1_555 1_555
O7_15 H46_15 1_555 1_555
Ni1_18 O1_18 1_555 1_555
S1_18 C13_18 1_555 1_555
O1_18 C1_18 1_555 1_555
O2_18 Ni1_18 1_555 1_555
O3_10 C14_10 1_555 1_555
O4_10 C14_10 1_555 1_555
N1_18 C2_18 1_555 1_555
N2_18 C2_18 1_555 1_555
C1_18 O2_18 1_555 1_555
C2_18 C17_18 1_555 1_555
C3_18 C1_18 1_555 1_555
C4_18 H1_18 1_555 1_555
C5_18 C4_18 1_555 1_555
H2_18 C5_18 1_555 1_555
C6_18 C3_18 1_555 1_555
H3_18 C6_18 1_555 1_555
C7_18 N2_18 1_555 1_555
C8_18 C5_18 1_555 1_555
C9_18 N1_18 1_555 1_555
H4_18 C9_18 1_555 1_555
C10_18 N2_18 1_555 1_555
H5_18 C10_18 1_555 1_555
H6_18 C10_18 1_555 1_555
C11_18 C3_18 1_555 1_555
H7_18 C11_18 1_555 1_555
H8_18 C11_18 1_555 1_555
C12_10 C4_18 1_555 1_555
C13_18 C11_18 1_555 1_555
C14_10 C12_10 1_555 1_555
C15_18 C8_18 1_555 1_555
H9_18 C15_18 1_555 1_555
C16_18 C12_10 1_555 1_555
H10_10 C16_18 1_555 1_555
C17_18 H11_18 1_555 1_555
H12_18 C17_18 1_555 1_555
C18_18 C17_18 1_555 1_555
H13_18 C18_18 1_555 1_555
H14_18 C18_18 1_555 1_555
C19_18 C18_18 1_555 1_555
H15_18 C19_18 1_555 1_555
H16_18 C19_18 1_555 1_555
C20_18 C19_18 1_555 1_555
H17_18 C20_18 1_555 1_555
H18_18 C20_18 1_555 1_555
H19_18 C20_18 1_555 1_555
C21_18 C13_18 1_555 1_555
H20_18 C21_18 1_555 1_555
C22_18 S1_18 1_555 1_555
H21_18 C22_18 1_555 1_555
C23_18 C21_18 1_555 1_555
H22_18 C23_18 1_555 1_555
S2_18 C36_18 1_555 1_555
O5_18 Ni1_18 1_555 1_555
O6_18 Ni1_18 1_555 1_555
C24_18 O5_18 1_555 1_555
C26_18 C24_18 1_555 1_555
C34_18 C26_18 1_555 1_555
H30_18 C34_18 1_555 1_555
C36_18 C34_18 1_555 1_555
C44_18 C36_18 1_555 1_555
H42_18 C44_18 1_555 1_555
C45_18 S2_18 1_555 1_555
H43_18 C45_18 1_555 1_555
C46_18 C44_18 1_555 1_555
H44_18 C46_18 1_555 1_555
Ni2_7 N1_18 1_555 1_555
N5_18 Ni1_18 1_555 1_555
N6_18 Ni1_18 1_555 1_555
C6_18 C7_18 1_555 1_555
C7_18 C9_18 1_555 1_555
C8_18 C10_18 1_555 1_555
C15_18 C16_18 1_555 1_555
C22_18 C23_18 1_555 1_555
O6_18 C24_18 1_555 1_555
C45_18 C46_18 1_555 1_555
O3_10 H45_10 1_555 1_555
O7_16 C37_16 1_555 1_555
O8_16 C37_16 1_555 1_555
N3_18 C25_18 1_555 1_555
N4_18 C25_18 1_555 1_555
C25_18 C40_18 1_555 1_555
C27_18 H23_18 1_555 1_555
C28_18 C27_18 1_555 1_555
H24_18 C28_18 1_555 1_555
C30_18 N4_18 1_555 1_555
C31_18 C28_18 1_555 1_555
C32_18 N3_18 1_555 1_555
H26_18 C32_18 1_555 1_555
C33_18 N4_18 1_555 1_555
H27_18 C33_18 1_555 1_555
H28_18 C33_18 1_555 1_555
C35_16 C27_18 1_555 1_555
C37_16 C35_16 1_555 1_555
C38_18 C31_18 1_555 1_555
H31_18 C38_18 1_555 1_555
C39_18 C35_16 1_555 1_555
H32_16 C39_18 1_555 1_555
C40_18 H33_18 1_555 1_555
H34_18 C40_18 1_555 1_555
C41_18 C40_18 1_555 1_555
H35_18 C41_18 1_555 1_555
H36_18 C41_18 1_555 1_555
C42_18 C41_18 1_555 1_555
H37_18 C42_18 1_555 1_555
H38_18 C42_18 1_555 1_555
C43_18 C42_18 1_555 1_555
H39_18 C43_18 1_555 1_555
H40_18 C43_18 1_555 1_555
H41_18 C43_18 1_555 1_555
Ni3_2 N3_18 1_555 1_555
C29_18 C30_18 1_555 1_555
C30_18 C32_18 1_555 1_555
C31_18 C33_18 1_555 1_555
C38_18 C39_18 1_555 1_555
O7_16 H46_16 1_555 1_555
Ni1_19 O1_19 1_555 1_555
S1_19 C13_19 1_555 1_555
O1_19 C1_19 1_555 1_555
O2_19 Ni1_19 1_555 1_555
O3_11 C14_11 1_555 1_555
O4_11 C14_11 1_555 1_555
N1_19 C2_19 1_555 1_555
N2_19 C2_19 1_555 1_555
C1_19 O2_19 1_555 1_555
C2_19 C17_19 1_555 1_555
C3_19 C1_19 1_555 1_555
C4_19 H1_19 1_555 1_555
C5_19 C4_19 1_555 1_555
H2_19 C5_19 1_555 1_555
C6_19 C3_19 1_555 1_555
H3_19 C6_19 1_555 1_555
C7_19 N2_19 1_555 1_555
C8_19 C5_19 1_555 1_555
C9_19 N1_19 1_555 1_555
H4_19 C9_19 1_555 1_555
C10_19 N2_19 1_555 1_555
H5_19 C10_19 1_555 1_555
H6_19 C10_19 1_555 1_555
C11_19 C3_19 1_555 1_555
H7_19 C11_19 1_555 1_555
H8_19 C11_19 1_555 1_555
C12_11 C4_19 1_555 1_555
C13_19 C11_19 1_555 1_555
C14_11 C12_11 1_555 1_555
C15_19 C8_19 1_555 1_555
H9_19 C15_19 1_555 1_555
C16_19 C12_11 1_555 1_555
H10_11 C16_19 1_555 1_555
C17_19 H11_19 1_555 1_555
H12_19 C17_19 1_555 1_555
C18_19 C17_19 1_555 1_555
H13_19 C18_19 1_555 1_555
H14_19 C18_19 1_555 1_555
C19_19 C18_19 1_555 1_555
H15_19 C19_19 1_555 1_555
H16_19 C19_19 1_555 1_555
C20_19 C19_19 1_555 1_555
H17_19 C20_19 1_555 1_555
H18_19 C20_19 1_555 1_555
H19_19 C20_19 1_555 1_555
C21_19 C13_19 1_555 1_555
H20_19 C21_19 1_555 1_555
C22_19 S1_19 1_555 1_555
H21_19 C22_19 1_555 1_555
C23_19 C21_19 1_555 1_555
H22_19 C23_19 1_555 1_555
S2_19 C36_19 1_555 1_555
O5_19 Ni1_19 1_555 1_555
O6_19 Ni1_19 1_555 1_555
O7_17 C37_17 1_555 1_555
O8_17 C37_17 1_555 1_555
N3_19 C25_19 1_555 1_555
N4_19 C25_19 1_555 1_555
C24_19 O5_19 1_555 1_555
C25_19 C40_19 1_555 1_555
C26_19 C24_19 1_555 1_555
C27_19 H23_19 1_555 1_555
C28_19 C27_19 1_555 1_555
H24_19 C28_19 1_555 1_555
C29_19 C26_19 1_555 1_555
H25_19 C29_19 1_555 1_555
C30_19 N4_19 1_555 1_555
C31_19 C28_19 1_555 1_555
C32_19 N3_19 1_555 1_555
H26_19 C32_19 1_555 1_555
C33_19 N4_19 1_555 1_555
H27_19 C33_19 1_555 1_555
H28_19 C33_19 1_555 1_555
C34_19 C26_19 1_555 1_555
H29_19 C34_19 1_555 1_555
H30_19 C34_19 1_555 1_555
C35_17 C27_19 1_555 1_555
C36_19 C34_19 1_555 1_555
C37_17 C35_17 1_555 1_555
C38_19 C31_19 1_555 1_555
H31_19 C38_19 1_555 1_555
C39_19 C35_17 1_555 1_555
H32_17 C39_19 1_555 1_555
C40_19 H33_19 1_555 1_555
H34_19 C40_19 1_555 1_555
C41_19 C40_19 1_555 1_555
H35_19 C41_19 1_555 1_555
H36_19 C41_19 1_555 1_555
C42_19 C41_19 1_555 1_555
H37_19 C42_19 1_555 1_555
H38_19 C42_19 1_555 1_555
C43_19 C42_19 1_555 1_555
H39_19 C43_19 1_555 1_555
H40_19 C43_19 1_555 1_555
H41_19 C43_19 1_555 1_555
C44_19 C36_19 1_555 1_555
H42_19 C44_19 1_555 1_555
C45_19 S2_19 1_555 1_555
H43_19 C45_19 1_555 1_555
C46_19 C44_19 1_555 1_555
H44_19 C46_19 1_555 1_555
Ni3_15 N3_19 1_555 1_555
Ni3_4 N1_19 1_555 1_555
N5_19 Ni1_19 1_555 1_555
N6_19 Ni1_19 1_555 1_555
C6_19 C7_19 1_555 1_555
C7_19 C9_19 1_555 1_555
C8_19 C10_19 1_555 1_555
C15_19 C16_19 1_555 1_555
C22_19 C23_19 1_555 1_555
O6_19 C24_19 1_555 1_555
C29_19 C30_19 1_555 1_555
C30_19 C32_19 1_555 1_555
C31_19 C33_19 1_555 1_555
C38_19 C39_19 1_555 1_555
C45_19 C46_19 1_555 1_555
O3_11 H45_11 1_555 1_555
O7_17 H46_17 1_555 1_555
Ni1_20 O1_20 1_555 1_555
S1_20 C13_20 1_555 1_555
O1_20 C1_20 1_555 1_555
O2_20 Ni1_20 1_555 1_555
C1_20 O2_20 1_555 1_555
C3_20 C1_20 1_555 1_555
C11_20 C3_20 1_555 1_555
H8_20 C11_20 1_555 1_555
C13_20 C11_20 1_555 1_555
C21_20 C13_20 1_555 1_555
H20_20 C21_20 1_555 1_555
C22_20 S1_20 1_555 1_555
H21_20 C22_20 1_555 1_555
C23_20 C21_20 1_555 1_555
H22_20 C23_20 1_555 1_555
S2_20 C36_20 1_555 1_555
O5_20 Ni1_20 1_555 1_555
O6_20 Ni1_20 1_555 1_555
O7_18 C37_18 1_555 1_555
O8_18 C37_18 1_555 1_555
N3_20 C25_20 1_555 1_555
N4_20 C25_20 1_555 1_555
C24_20 O5_20 1_555 1_555
C25_20 C40_20 1_555 1_555
C26_20 C24_20 1_555 1_555
C27_20 H23_20 1_555 1_555
C28_20 C27_20 1_555 1_555
H24_20 C28_20 1_555 1_555
C29_20 C26_20 1_555 1_555
H25_20 C29_20 1_555 1_555
C30_20 N4_20 1_555 1_555
C31_20 C28_20 1_555 1_555
C32_20 N3_20 1_555 1_555
H26_20 C32_20 1_555 1_555
C33_20 N4_20 1_555 1_555
H27_20 C33_20 1_555 1_555
H28_20 C33_20 1_555 1_555
C34_20 C26_20 1_555 1_555
H29_20 C34_20 1_555 1_555
H30_20 C34_20 1_555 1_555
C35_18 C27_20 1_555 1_555
C36_20 C34_20 1_555 1_555
C37_18 C35_18 1_555 1_555
C38_20 C31_20 1_555 1_555
H31_20 C38_20 1_555 1_555
C39_20 C35_18 1_555 1_555
H32_18 C39_20 1_555 1_555
C40_20 H33_20 1_555 1_555
H34_20 C40_20 1_555 1_555
C41_20 C40_20 1_555 1_555
H35_20 C41_20 1_555 1_555
H36_20 C41_20 1_555 1_555
C42_20 C41_20 1_555 1_555
H37_20 C42_20 1_555 1_555
H38_20 C42_20 1_555 1_555
C43_20 C42_20 1_555 1_555
H39_20 C43_20 1_555 1_555
H40_20 C43_20 1_555 1_555
H41_20 C43_20 1_555 1_555
C44_20 C36_20 1_555 1_555
H42_20 C44_20 1_555 1_555
C45_20 S2_20 1_555 1_555
H43_20 C45_20 1_555 1_555
C46_20 C44_20 1_555 1_555
H44_20 C46_20 1_555 1_555
Ni2_6 N3_20 1_555 1_555
N5_20 Ni1_20 1_555 1_555
N6_20 Ni1_20 1_555 1_555
C22_20 C23_20 1_555 1_555
O6_20 C24_20 1_555 1_555
C29_20 C30_20 1_555 1_555
C30_20 C32_20 1_555 1_555
C31_20 C33_20 1_555 1_555
C38_20 C39_20 1_555 1_555
C45_20 C46_20 1_555 1_555
O7_18 H46_18 1_555 1_555
O3_12 C14_12 1_555 1_555
O4_12 C14_12 1_555 1_555
N1_20 C2_20 1_555 1_555
N2_20 C2_20 1_555 1_555
C2_20 C17_20 1_555 1_555
C4_20 H1_20 1_555 1_555
C5_20 C4_20 1_555 1_555
H2_20 C5_20 1_555 1_555
C7_20 N2_20 1_555 1_555
C8_20 C5_20 1_555 1_555
C9_20 N1_20 1_555 1_555
H4_20 C9_20 1_555 1_555
C10_20 N2_20 1_555 1_555
H5_20 C10_20 1_555 1_555
H6_20 C10_20 1_555 1_555
C12_12 C4_20 1_555 1_555
C14_12 C12_12 1_555 1_555
C15_20 C8_20 1_555 1_555
H9_20 C15_20 1_555 1_555
C16_20 C12_12 1_555 1_555
H10_12 C16_20 1_555 1_555
C17_20 H11_20 1_555 1_555
H12_20 C17_20 1_555 1_555
C18_20 C17_20 1_555 1_555
H13_20 C18_20 1_555 1_555
H14_20 C18_20 1_555 1_555
C19_20 C18_20 1_555 1_555
H15_20 C19_20 1_555 1_555
H16_20 C19_20 1_555 1_555
C20_20 C19_20 1_555 1_555
H17_20 C20_20 1_555 1_555
H18_20 C20_20 1_555 1_555
H19_20 C20_20 1_555 1_555
Ni2 N1_20 1_555 1_555
C6_20 C7_20 1_555 1_555
C7_20 C9_20 1_555 1_555
C8_20 C10_20 1_555 1_555
C15_20 C16_20 1_555 1_555
O3_12 H45_12 1_555 1_555
Ni1_21 O1_21 1_555 1_555
S1_21 C13_21 1_555 1_555
O1_21 C1_21 1_555 1_555
O2_21 Ni1_21 1_555 1_555
O3_13 C14_13 1_555 1_555
O4_13 C14_13 1_555 1_555
N1_21 C2_21 1_555 1_555
N2_21 C2_21 1_555 1_555
C1_21 O2_21 1_555 1_555
C2_21 C17_21 1_555 1_555
C3_21 C1_21 1_555 1_555
C4_21 H1_21 1_555 1_555
C5_21 C4_21 1_555 1_555
H2_21 C5_21 1_555 1_555
C6_21 C3_21 1_555 1_555
H3_21 C6_21 1_555 1_555
C7_21 N2_21 1_555 1_555
C8_21 C5_21 1_555 1_555
C9_21 N1_21 1_555 1_555
H4_21 C9_21 1_555 1_555
C10_21 N2_21 1_555 1_555
H5_21 C10_21 1_555 1_555
H6_21 C10_21 1_555 1_555
C11_21 C3_21 1_555 1_555
H7_21 C11_21 1_555 1_555
H8_21 C11_21 1_555 1_555
C12_13 C4_21 1_555 1_555
C13_21 C11_21 1_555 1_555
C14_13 C12_13 1_555 1_555
C15_21 C8_21 1_555 1_555
H9_21 C15_21 1_555 1_555
C16_21 C12_13 1_555 1_555
H10_13 C16_21 1_555 1_555
C17_21 H11_21 1_555 1_555
H12_21 C17_21 1_555 1_555
C18_21 C17_21 1_555 1_555
H13_21 C18_21 1_555 1_555
H14_21 C18_21 1_555 1_555
C19_21 C18_21 1_555 1_555
H15_21 C19_21 1_555 1_555
H16_21 C19_21 1_555 1_555
C20_21 C19_21 1_555 1_555
H17_21 C20_21 1_555 1_555
H18_21 C20_21 1_555 1_555
H19_21 C20_21 1_555 1_555
C21_21 C13_21 1_555 1_555
H20_21 C21_21 1_555 1_555
C22_21 S1_21 1_555 1_555
H21_21 C22_21 1_555 1_555
C23_21 C21_21 1_555 1_555
H22_21 C23_21 1_555 1_555
S2_21 C36_21 1_555 1_555
O5_21 Ni1_21 1_555 1_555
O6_21 Ni1_21 1_555 1_555
O7_19 C37_19 1_555 1_555
O8_19 C37_19 1_555 1_555
N3_21 C25_21 1_555 1_555
N4_21 C25_21 1_555 1_555
C24_21 O5_21 1_555 1_555
C25_21 C40_21 1_555 1_555
C26_21 C24_21 1_555 1_555
C27_21 H23_21 1_555 1_555
C28_21 C27_21 1_555 1_555
H24_21 C28_21 1_555 1_555
C29_21 C26_21 1_555 1_555
H25_21 C29_21 1_555 1_555
C30_21 N4_21 1_555 1_555
C31_21 C28_21 1_555 1_555
C32_21 N3_21 1_555 1_555
H26_21 C32_21 1_555 1_555
C33_21 N4_21 1_555 1_555
H27_21 C33_21 1_555 1_555
H28_21 C33_21 1_555 1_555
C34_21 C26_21 1_555 1_555
H29_21 C34_21 1_555 1_555
H30_21 C34_21 1_555 1_555
C35_19 C27_21 1_555 1_555
C36_21 C34_21 1_555 1_555
C37_19 C35_19 1_555 1_555
C38_21 C31_21 1_555 1_555
H31_21 C38_21 1_555 1_555
C39_21 C35_19 1_555 1_555
H32_19 C39_21 1_555 1_555
C40_21 H33_21 1_555 1_555
H34_21 C40_21 1_555 1_555
C41_21 C40_21 1_555 1_555
H35_21 C41_21 1_555 1_555
H36_21 C41_21 1_555 1_555
C42_21 C41_21 1_555 1_555
H37_21 C42_21 1_555 1_555
H38_21 C42_21 1_555 1_555
C43_21 C42_21 1_555 1_555
H39_21 C43_21 1_555 1_555
H40_21 C43_21 1_555 1_555
H41_21 C43_21 1_555 1_555
C44_21 C36_21 1_555 1_555
H42_21 C44_21 1_555 1_555
C45_21 S2_21 1_555 1_555
H43_21 C45_21 1_555 1_555
C46_21 C44_21 1_555 1_555
H44_21 C46_21 1_555 1_555
Ni3_6 N3_21 1_555 1_555
Ni3_12 N1_21 1_555 1_555
N5_21 Ni1_21 1_555 1_555
N6_21 Ni1_21 1_555 1_555
C6_21 C7_21 1_555 1_555
C7_21 C9_21 1_555 1_555
C8_21 C10_21 1_555 1_555
C15_21 C16_21 1_555 1_555
C22_21 C23_21 1_555 1_555
O6_21 C24_21 1_555 1_555
C29_21 C30_21 1_555 1_555
C30_21 C32_21 1_555 1_555
C31_21 C33_21 1_555 1_555
C38_21 C39_21 1_555 1_555
C45_21 C46_21 1_555 1_555
O3_13 H45_13 1_555 1_555
O7_19 H46_19 1_555 1_555
Ni1_22 O1_22 1_555 1_555
S1_22 C13_22 1_555 1_555
O1_22 C1_22 1_555 1_555
O2_22 Ni1_22 1_555 1_555
O3_14 C14_14 1_555 1_555
O4_14 C14_14 1_555 1_555
N1_22 C2_22 1_555 1_555
N2_22 C2_22 1_555 1_555
C1_22 O2_22 1_555 1_555
C2_22 C17_22 1_555 1_555
C3_22 C1_22 1_555 1_555
C4_22 H1_22 1_555 1_555
C5_22 C4_22 1_555 1_555
H2_22 C5_22 1_555 1_555
C6_22 C3_22 1_555 1_555
H3_22 C6_22 1_555 1_555
C7_22 N2_22 1_555 1_555
C8_22 C5_22 1_555 1_555
C9_22 N1_22 1_555 1_555
H4_22 C9_22 1_555 1_555
C10_22 N2_22 1_555 1_555
H5_22 C10_22 1_555 1_555
H6_22 C10_22 1_555 1_555
C11_22 C3_22 1_555 1_555
H7_22 C11_22 1_555 1_555
H8_22 C11_22 1_555 1_555
C12_14 C4_22 1_555 1_555
C13_22 C11_22 1_555 1_555
C14_14 C12_14 1_555 1_555
C15_22 C8_22 1_555 1_555
H9_22 C15_22 1_555 1_555
C16_22 C12_14 1_555 1_555
H10_14 C16_22 1_555 1_555
C17_22 H11_22 1_555 1_555
H12_22 C17_22 1_555 1_555
C18_22 C17_22 1_555 1_555
H13_22 C18_22 1_555 1_555
H14_22 C18_22 1_555 1_555
C19_22 C18_22 1_555 1_555
H15_22 C19_22 1_555 1_555
H16_22 C19_22 1_555 1_555
C20_22 C19_22 1_555 1_555
H17_22 C20_22 1_555 1_555
H18_22 C20_22 1_555 1_555
H19_22 C20_22 1_555 1_555
C21_22 C13_22 1_555 1_555
H20_22 C21_22 1_555 1_555
C22_22 S1_22 1_555 1_555
H21_22 C22_22 1_555 1_555
C23_22 C21_22 1_555 1_555
H22_22 C23_22 1_555 1_555
S2_22 C36_22 1_555 1_555
O5_22 Ni1_22 1_555 1_555
O6_22 Ni1_22 1_555 1_555
C24_22 O5_22 1_555 1_555
C26_22 C24_22 1_555 1_555
C34_22 C26_22 1_555 1_555
H30_22 C34_22 1_555 1_555
C36_22 C34_22 1_555 1_555
C44_22 C36_22 1_555 1_555
H42_22 C44_22 1_555 1_555
C45_22 S2_22 1_555 1_555
H43_22 C45_22 1_555 1_555
C46_22 C44_22 1_555 1_555
H44_22 C46_22 1_555 1_555
Ni2_2 N1_22 1_555 1_555
N5_22 Ni1_22 1_555 1_555
N6_22 Ni1_22 1_555 1_555
C6_22 C7_22 1_555 1_555
C7_22 C9_22 1_555 1_555
C8_22 C10_22 1_555 1_555
C15_22 C16_22 1_555 1_555
C22_22 C23_22 1_555 1_555
O6_22 C24_22 1_555 1_555
C45_22 C46_22 1_555 1_555
O3_14 H45_14 1_555 1_555
O7_20 C37_20 1_555 1_555
O8_20 C37_20 1_555 1_555
N3_22 C25_22 1_555 1_555
N4_22 C25_22 1_555 1_555
C25_22 C40_22 1_555 1_555
C27_22 H23_22 1_555 1_555
C28_22 C27_22 1_555 1_555
H24_22 C28_22 1_555 1_555
C30_22 N4_22 1_555 1_555
C31_22 C28_22 1_555 1_555
C32_22 N3_22 1_555 1_555
H26_22 C32_22 1_555 1_555
C33_22 N4_22 1_555 1_555
H27_22 C33_22 1_555 1_555
H28_22 C33_22 1_555 1_555
C35_20 C27_22 1_555 1_555
C37_20 C35_20 1_555 1_555
C38_22 C31_22 1_555 1_555
H31_22 C38_22 1_555 1_555
C39_22 C35_20 1_555 1_555
H32_20 C39_22 1_555 1_555
C40_22 H33_22 1_555 1_555
H34_22 C40_22 1_555 1_555
C41_22 C40_22 1_555 1_555
H35_22 C41_22 1_555 1_555
H36_22 C41_22 1_555 1_555
C42_22 C41_22 1_555 1_555
H37_22 C42_22 1_555 1_555
H38_22 C42_22 1_555 1_555
C43_22 C42_22 1_555 1_555
H39_22 C43_22 1_555 1_555
H40_22 C43_22 1_555 1_555
H41_22 C43_22 1_555 1_555
Ni2_9 N3_22 1_555 1_555
C29_22 C30_22 1_555 1_555
C30_22 C32_22 1_555 1_555
C31_22 C33_22 1_555 1_555
C38_22 C39_22 1_555 1_555
O7_20 H46_20 1_555 1_555
O3_15 C14_15 1_555 1_555
O4_15 C14_15 1_555 1_555
N1_23 C2_23 1_555 1_555
N2_23 C2_23 1_555 1_555
C2_23 C17_23 1_555 1_555
C4_23 H1_23 1_555 1_555
C5_23 C4_23 1_555 1_555
H2_23 C5_23 1_555 1_555
C7_23 N2_23 1_555 1_555
C8_23 C5_23 1_555 1_555
C9_23 N1_23 1_555 1_555
H4_23 C9_23 1_555 1_555
C10_23 N2_23 1_555 1_555
H5_23 C10_23 1_555 1_555
H6_23 C10_23 1_555 1_555
C12_15 C4_23 1_555 1_555
C14_15 C12_15 1_555 1_555
C15_23 C8_23 1_555 1_555
H9_23 C15_23 1_555 1_555
C16_23 C12_15 1_555 1_555
H10_15 C16_23 1_555 1_555
C17_23 H11_23 1_555 1_555
H12_23 C17_23 1_555 1_555
C18_23 C17_23 1_555 1_555
H13_23 C18_23 1_555 1_555
H14_23 C18_23 1_555 1_555
C19_23 C18_23 1_555 1_555
H15_23 C19_23 1_555 1_555
H16_23 C19_23 1_555 1_555
C20_23 C19_23 1_555 1_555
H17_23 C20_23 1_555 1_555
H18_23 C20_23 1_555 1_555
H19_23 C20_23 1_555 1_555
Ni2_4 N1_23 1_555 1_555
C6_23 C7_23 1_555 1_555
C7_23 C9_23 1_555 1_555
C8_23 C10_23 1_555 1_555
C15_23 C16_23 1_555 1_555
O3_15 H45_15 1_555 1_555
Ni1_23 O1_23 1_555 1_555
S1_23 C13_23 1_555 1_555
O1_23 C1_23 1_555 1_555
O2_23 Ni1_23 1_555 1_555
C1_23 O2_23 1_555 1_555
C3_23 C1_23 1_555 1_555
C11_23 C3_23 1_555 1_555
H8_23 C11_23 1_555 1_555
C13_23 C11_23 1_555 1_555
C21_23 C13_23 1_555 1_555
H20_23 C21_23 1_555 1_555
C22_23 S1_23 1_555 1_555
H21_23 C22_23 1_555 1_555
C23_23 C21_23 1_555 1_555
H22_23 C23_23 1_555 1_555
S2_23 C36_23 1_555 1_555
O5_23 Ni1_23 1_555 1_555
O6_23 Ni1_23 1_555 1_555
N3_23 C25_23 1_555 1_555
N4_23 C25_23 1_555 1_555
C24_23 O5_23 1_555 1_555
C25_23 C40_23 1_555 1_555
C26_23 C24_23 1_555 1_555
C27_23 H23_23 1_555 1_555
C28_23 C27_23 1_555 1_555
H24_23 C28_23 1_555 1_555
C29_23 C26_23 1_555 1_555
H25_23 C29_23 1_555 1_555
C30_23 N4_23 1_555 1_555
C31_23 C28_23 1_555 1_555
C32_23 N3_23 1_555 1_555
H26_23 C32_23 1_555 1_555
C33_23 N4_23 1_555 1_555
H27_23 C33_23 1_555 1_555
H28_23 C33_23 1_555 1_555
C34_23 C26_23 1_555 1_555
H29_23 C34_23 1_555 1_555
H30_23 C34_23 1_555 1_555
C36_23 C34_23 1_555 1_555
C38_23 C31_23 1_555 1_555
H31_23 C38_23 1_555 1_555
C40_23 H33_23 1_555 1_555
H34_23 C40_23 1_555 1_555
C41_23 C40_23 1_555 1_555
H35_23 C41_23 1_555 1_555
H36_23 C41_23 1_555 1_555
C42_23 C41_23 1_555 1_555
H37_23 C42_23 1_555 1_555
H38_23 C42_23 1_555 1_555
C43_23 C42_23 1_555 1_555
H39_23 C43_23 1_555 1_555
H40_23 C43_23 1_555 1_555
H41_23 C43_23 1_555 1_555
C44_23 C36_23 1_555 1_555
H42_23 C44_23 1_555 1_555
C45_23 S2_23 1_555 1_555
H43_23 C45_23 1_555 1_555
C46_23 C44_23 1_555 1_555
H44_23 C46_23 1_555 1_555
Ni2_5 N3_23 1_555 1_555
N5_23 Ni1_23 1_555 1_555
N6_23 Ni1_23 1_555 1_555
C22_23 C23_23 1_555 1_555
O6_23 C24_23 1_555 1_555
C29_23 C30_23 1_555 1_555
C30_23 C32_23 1_555 1_555
C31_23 C33_23 1_555 1_555
C38_23 C39_23 1_555 1_555
C45_23 C46_23 1_555 1_555
O7_21 C37_21 1_555 1_555
O8_21 C37_21 1_555 1_555
N3_24 C25_24 1_555 1_555
N4_24 C25_24 1_555 1_555
C25_24 C40_24 1_555 1_555
C27_24 H23_24 1_555 1_555
C28_24 C27_24 1_555 1_555
H24_24 C28_24 1_555 1_555
C30_24 N4_24 1_555 1_555
C31_24 C28_24 1_555 1_555
C32_24 N3_24 1_555 1_555
H26_24 C32_24 1_555 1_555
C33_24 N4_24 1_555 1_555
H27_24 C33_24 1_555 1_555
H28_24 C33_24 1_555 1_555
C35_21 C27_24 1_555 1_555
C37_21 C35_21 1_555 1_555
C38_24 C31_24 1_555 1_555
H31_24 C38_24 1_555 1_555
C39_24 C35_21 1_555 1_555
H32_21 C39_24 1_555 1_555
C40_24 H33_24 1_555 1_555
H34_24 C40_24 1_555 1_555
C41_24 C40_24 1_555 1_555
H35_24 C41_24 1_555 1_555
H36_24 C41_24 1_555 1_555
C42_24 C41_24 1_555 1_555
H37_24 C42_24 1_555 1_555
H38_24 C42_24 1_555 1_555
C43_24 C42_24 1_555 1_555
H39_24 C43_24 1_555 1_555
H40_24 C43_24 1_555 1_555
H41_24 C43_24 1_555 1_555
Ni2_3 N3_24 1_555 1_555
C29_24 C30_24 1_555 1_555
C30_24 C32_24 1_555 1_555
C31_24 C33_24 1_555 1_555
C38_24 C39_24 1_555 1_555
O7_21 H46_21 1_555 1_555
Ni1_24 O1_24 1_555 1_555
S1_24 C13_24 1_555 1_555
O1_24 C1_24 1_555 1_555
O2_24 Ni1_24 1_555 1_555
N1_24 C2_24 1_555 1_555
N2_24 C2_24 1_555 1_555
C1_24 O2_24 1_555 1_555
C2_24 C17_24 1_555 1_555
C3_24 C1_24 1_555 1_555
C4_24 H1_24 1_555 1_555
C5_24 C4_24 1_555 1_555
H2_24 C5_24 1_555 1_555
C6_24 C3_24 1_555 1_555
H3_24 C6_24 1_555 1_555
C7_24 N2_24 1_555 1_555
C8_24 C5_24 1_555 1_555
C9_24 N1_24 1_555 1_555
H4_24 C9_24 1_555 1_555
C10_24 N2_24 1_555 1_555
H5_24 C10_24 1_555 1_555
H6_24 C10_24 1_555 1_555
C11_24 C3_24 1_555 1_555
H7_24 C11_24 1_555 1_555
H8_24 C11_24 1_555 1_555
C13_24 C11_24 1_555 1_555
C15_24 C8_24 1_555 1_555
H9_24 C15_24 1_555 1_555
C17_24 H11_24 1_555 1_555
H12_24 C17_24 1_555 1_555
C18_24 C17_24 1_555 1_555
H13_24 C18_24 1_555 1_555
H14_24 C18_24 1_555 1_555
C19_24 C18_24 1_555 1_555
H15_24 C19_24 1_555 1_555
H16_24 C19_24 1_555 1_555
C20_24 C19_24 1_555 1_555
H17_24 C20_24 1_555 1_555
H18_24 C20_24 1_555 1_555
H19_24 C20_24 1_555 1_555
C21_24 C13_24 1_555 1_555
H20_24 C21_24 1_555 1_555
C22_24 S1_24 1_555 1_555
H21_24 C22_24 1_555 1_555
C23_24 C21_24 1_555 1_555
H22_24 C23_24 1_555 1_555
S2_24 C36_24 1_555 1_555
O5_24 Ni1_24 1_555 1_555
O6_24 Ni1_24 1_555 1_555
C24_24 O5_24 1_555 1_555
C26_24 C24_24 1_555 1_555
C34_24 C26_24 1_555 1_555
H30_24 C34_24 1_555 1_555
C36_24 C34_24 1_555 1_555
C44_24 C36_24 1_555 1_555
H42_24 C44_24 1_555 1_555
C45_24 S2_24 1_555 1_555
H43_24 C45_24 1_555 1_555
C46_24 C44_24 1_555 1_555
H44_24 C46_24 1_555 1_555
Ni2_8 N1_24 1_555 1_555
N5_24 Ni1_24 1_555 1_555
N6_24 Ni1_24 1_555 1_555
C6_24 C7_24 1_555 1_555
C7_24 C9_24 1_555 1_555
C8_24 C10_24 1_555 1_555
C15_24 C16_24 1_555 1_555
C22_24 C23_24 1_555 1_555
O6_24 C24_24 1_555 1_555
C45_24 C46_24 1_555 1_555
Ni3_4 O1_25 1_555 1_555
S1_25 C13_25 1_555 1_555
O1_25 C1_25 1_555 1_555
O2_25 Ni3_4 1_555 1_555
O3_16 C14_16 1_555 1_555
O4_16 C14_16 1_555 1_555
N5_12 C2_25 1_555 1_555
N2_25 C2_25 1_555 1_555
C1_25 O2_25 1_555 1_555
C2_25 C17_25 1_555 1_555
C3_25 C1_25 1_555 1_555
C4_25 H1_25 1_555 1_555
C5_25 C4_25 1_555 1_555
H2_25 C5_25 1_555 1_555
C6_25 C3_25 1_555 1_555
H3_25 C6_25 1_555 1_555
C7_25 N2_25 1_555 1_555
C8_25 C5_25 1_555 1_555
C9_25 N5_12 1_555 1_555
H4_25 C9_25 1_555 1_555
C10_25 N2_25 1_555 1_555
H5_25 C10_25 1_555 1_555
H6_25 C10_25 1_555 1_555
C11_25 C3_25 1_555 1_555
H7_25 C11_25 1_555 1_555
H8_25 C11_25 1_555 1_555
C12_16 C4_25 1_555 1_555
C13_25 C11_25 1_555 1_555
C14_16 C12_16 1_555 1_555
C15_25 C8_25 1_555 1_555
H9_25 C15_25 1_555 1_555
C16_25 C12_16 1_555 1_555
H10_16 C16_25 1_555 1_555
C17_25 H11_25 1_555 1_555
H12_25 C17_25 1_555 1_555
C18_25 C17_25 1_555 1_555
H13_25 C18_25 1_555 1_555
H14_25 C18_25 1_555 1_555
C19_25 C18_25 1_555 1_555
H15_25 C19_25 1_555 1_555
H16_25 C19_25 1_555 1_555
C20_25 C19_25 1_555 1_555
H17_25 C20_25 1_555 1_555
H18_25 C20_25 1_555 1_555
H19_25 C20_25 1_555 1_555
C21_25 C13_25 1_555 1_555
H20_25 C21_25 1_555 1_555
C22_25 S1_25 1_555 1_555
H21_25 C22_25 1_555 1_555
C23_25 C21_25 1_555 1_555
H22_25 C23_25 1_555 1_555
S2_25 C36_25 1_555 1_555
O5_25 Ni3_4 1_555 1_555
O6_25 Ni3_4 1_555 1_555
O7_22 C37_22 1_555 1_555
O8_22 C37_22 1_555 1_555
N5_2 C25_25 1_555 1_555
N4_25 C25_25 1_555 1_555
C24_25 O5_25 1_555 1_555
C25_25 C40_25 1_555 1_555
C26_25 C24_25 1_555 1_555
C27_25 H23_25 1_555 1_555
C28_25 C27_25 1_555 1_555
H24_25 C28_25 1_555 1_555
C29_25 C26_25 1_555 1_555
H25_25 C29_25 1_555 1_555
C30_25 N4_25 1_555 1_555
C31_25 C28_25 1_555 1_555
C32_25 N5_2 1_555 1_555
H26_25 C32_25 1_555 1_555
C33_25 N4_25 1_555 1_555
H27_25 C33_25 1_555 1_555
H28_25 C33_25 1_555 1_555
C34_25 C26_25 1_555 1_555
H29_25 C34_25 1_555 1_555
H30_25 C34_25 1_555 1_555
C35_22 C27_25 1_555 1_555
C36_25 C34_25 1_555 1_555
C37_22 C35_22 1_555 1_555
C38_25 C31_25 1_555 1_555
H31_25 C38_25 1_555 1_555
C39_25 C35_22 1_555 1_555
H32_22 C39_25 1_555 1_555
C40_25 H33_25 1_555 1_555
H34_25 C40_25 1_555 1_555
C41_25 C40_25 1_555 1_555
H35_25 C41_25 1_555 1_555
H36_25 C41_25 1_555 1_555
C42_25 C41_25 1_555 1_555
H37_25 C42_25 1_555 1_555
H38_25 C42_25 1_555 1_555
C43_25 C42_25 1_555 1_555
H39_25 C43_25 1_555 1_555
H40_25 C43_25 1_555 1_555
H41_25 C43_25 1_555 1_555
C44_25 C36_25 1_555 1_555
H42_25 C44_25 1_555 1_555
C45_25 S2_25 1_555 1_555
H43_25 C45_25 1_555 1_555
C46_25 C44_25 1_555 1_555
H44_25 C46_25 1_555 1_555
C6_25 C7_25 1_555 1_555
C7_25 C9_25 1_555 1_555
C8_25 C10_25 1_555 1_555
C15_25 C16_25 1_555 1_555
C22_25 C23_25 1_555 1_555
O6_25 C24_25 1_555 1_555
C29_25 C30_25 1_555 1_555
C30_25 C32_25 1_555 1_555
C31_25 C33_25 1_555 1_555
C38_25 C39_25 1_555 1_555
C45_25 C46_25 1_555 1_555
O3_16 H45_16 1_555 1_555
O7_22 H46_22 1_555 1_555
Ni2 O1_26 1_555 1_555
S1_26 C13_26 1_555 1_555
O1_26 C1_26 1_555 1_555
O2_26 Ni2 1_555 1_555
N5_24 C2_26 1_555 1_555
N2_26 C2_26 1_555 1_555
C1_26 O2_26 1_555 1_555
C2_26 C17_26 1_555 1_555
C3_26 C1_26 1_555 1_555
C4_26 H1_26 1_555 1_555
C5_26 C4_26 1_555 1_555
H2_26 C5_26 1_555 1_555
C6_26 C3_26 1_555 1_555
H3_26 C6_26 1_555 1_555
C7_26 N2_26 1_555 1_555
C8_26 C5_26 1_555 1_555
C9_26 N5_24 1_555 1_555
H4_26 C9_26 1_555 1_555
C10_26 N2_26 1_555 1_555
H5_26 C10_26 1_555 1_555
H6_26 C10_26 1_555 1_555
C11_26 C3_26 1_555 1_555
H7_26 C11_26 1_555 1_555
H8_26 C11_26 1_555 1_555
C13_26 C11_26 1_555 1_555
C15_26 C8_26 1_555 1_555
H9_26 C15_26 1_555 1_555
C17_26 H11_26 1_555 1_555
H12_26 C17_26 1_555 1_555
C18_26 C17_26 1_555 1_555
H13_26 C18_26 1_555 1_555
H14_26 C18_26 1_555 1_555
C19_26 C18_26 1_555 1_555
H15_26 C19_26 1_555 1_555
H16_26 C19_26 1_555 1_555
C20_26 C19_26 1_555 1_555
H17_26 C20_26 1_555 1_555
H18_26 C20_26 1_555 1_555
H19_26 C20_26 1_555 1_555
C21_26 C13_26 1_555 1_555
H20_26 C21_26 1_555 1_555
C22_26 S1_26 1_555 1_555
H21_26 C22_26 1_555 1_555
C23_26 C21_26 1_555 1_555
H22_26 C23_26 1_555 1_555
S2_26 C36_26 1_555 1_555
O5_26 Ni2 1_555 1_555
O6_26 Ni2 1_555 1_555
O7_23 C37_23 1_555 1_555
O8_23 C37_23 1_555 1_555
N6_21 C25_26 1_555 1_555
N4_26 C25_26 1_555 1_555
C24_26 O5_26 1_555 1_555
C25_26 C40_26 1_555 1_555
C26_26 C24_26 1_555 1_555
C27_26 H23_26 1_555 1_555
C28_26 C27_26 1_555 1_555
H24_26 C28_26 1_555 1_555
C29_26 C26_26 1_555 1_555
H25_26 C29_26 1_555 1_555
C30_26 N4_26 1_555 1_555
C31_26 C28_26 1_555 1_555
C32_26 N6_21 1_555 1_555
H26_26 C32_26 1_555 1_555
C33_26 N4_26 1_555 1_555
H27_26 C33_26 1_555 1_555
H28_26 C33_26 1_555 1_555
C34_26 C26_26 1_555 1_555
H29_26 C34_26 1_555 1_555
H30_26 C34_26 1_555 1_555
C35_23 C27_26 1_555 1_555
C36_26 C34_26 1_555 1_555
C37_23 C35_23 1_555 1_555
C38_26 C31_26 1_555 1_555
H31_26 C38_26 1_555 1_555
C39_26 C35_23 1_555 1_555
H32_23 C39_26 1_555 1_555
C40_26 H33_26 1_555 1_555
H34_26 C40_26 1_555 1_555
C41_26 C40_26 1_555 1_555
H35_26 C41_26 1_555 1_555
H36_26 C41_26 1_555 1_555
C42_26 C41_26 1_555 1_555
H37_26 C42_26 1_555 1_555
H38_26 C42_26 1_555 1_555
C43_26 C42_26 1_555 1_555
H39_26 C43_26 1_555 1_555
H40_26 C43_26 1_555 1_555
H41_26 C43_26 1_555 1_555
C44_26 C36_26 1_555 1_555
H42_26 C44_26 1_555 1_555
C45_26 S2_26 1_555 1_555
H43_26 C45_26 1_555 1_555
C46_26 C44_26 1_555 1_555
H44_26 C46_26 1_555 1_555
C6_26 C7_26 1_555 1_555
C7_26 C9_26 1_555 1_555
C8_26 C10_26 1_555 1_555
C15_26 C16_26 1_555 1_555
C22_26 C23_26 1_555 1_555
O6_26 C24_26 1_555 1_555
C29_26 C30_26 1_555 1_555
C30_26 C32_26 1_555 1_555
C31_26 C33_26 1_555 1_555
C38_26 C39_26 1_555 1_555
C45_26 C46_26 1_555 1_555
O7_23 H46_23 1_555 1_555
O3_17 C14_17 1_555 1_555
O4_17 C14_17 1_555 1_555
N6_8 C2_27 1_555 1_555
N2_27 C2_27 1_555 1_555
C2_27 C17_27 1_555 1_555
C4_27 H1_27 1_555 1_555
C5_27 C4_27 1_555 1_555
H2_27 C5_27 1_555 1_555
C7_27 N2_27 1_555 1_555
C8_27 C5_27 1_555 1_555
C9_27 N6_8 1_555 1_555
H4_27 C9_27 1_555 1_555
C10_27 N2_27 1_555 1_555
H5_27 C10_27 1_555 1_555
H6_27 C10_27 1_555 1_555
C12_17 C4_27 1_555 1_555
C14_17 C12_17 1_555 1_555
C15_27 C8_27 1_555 1_555
H9_27 C15_27 1_555 1_555
C16_27 C12_17 1_555 1_555
H10_17 C16_27 1_555 1_555
C17_27 H11_27 1_555 1_555
H12_27 C17_27 1_555 1_555
C18_27 C17_27 1_555 1_555
H13_27 C18_27 1_555 1_555
H14_27 C18_27 1_555 1_555
C19_27 C18_27 1_555 1_555
H15_27 C19_27 1_555 1_555
H16_27 C19_27 1_555 1_555
C20_27 C19_27 1_555 1_555
H17_27 C20_27 1_555 1_555
H18_27 C20_27 1_555 1_555
H19_27 C20_27 1_555 1_555
C6_27 C7_27 1_555 1_555
C7_27 C9_27 1_555 1_555
C8_27 C10_27 1_555 1_555
C15_27 C16_27 1_555 1_555
O3_17 H45_17 1_555 1_555
Ni3_11 O1_27 1_555 1_555
S1_27 C13_27 1_555 1_555
O1_27 C1_27 1_555 1_555
O2_27 Ni3_11 1_555 1_555
C1_27 O2_27 1_555 1_555
C3_27 C1_27 1_555 1_555
C11_27 C3_27 1_555 1_555
H8_27 C11_27 1_555 1_555
C13_27 C11_27 1_555 1_555
C21_27 C13_27 1_555 1_555
H20_27 C21_27 1_555 1_555
C22_27 S1_27 1_555 1_555
H21_27 C22_27 1_555 1_555
C23_27 C21_27 1_555 1_555
H22_27 C23_27 1_555 1_555
S2_27 C36_27 1_555 1_555
O5_27 Ni3_11 1_555 1_555
O6_27 Ni3_11 1_555 1_555
O7_24 C37_24 1_555 1_555
O8_24 C37_24 1_555 1_555
N5_6 C25_27 1_555 1_555
N4_27 C25_27 1_555 1_555
C24_27 O5_27 1_555 1_555
C25_27 C40_27 1_555 1_555
C26_27 C24_27 1_555 1_555
C27_27 H23_27 1_555 1_555
C28_27 C27_27 1_555 1_555
H24_27 C28_27 1_555 1_555
C29_27 C26_27 1_555 1_555
H25_27 C29_27 1_555 1_555
C30_27 N4_27 1_555 1_555
C31_27 C28_27 1_555 1_555
C32_27 N5_6 1_555 1_555
H26_27 C32_27 1_555 1_555
C33_27 N4_27 1_555 1_555
H27_27 C33_27 1_555 1_555
H28_27 C33_27 1_555 1_555
C34_27 C26_27 1_555 1_555
H29_27 C34_27 1_555 1_555
H30_27 C34_27 1_555 1_555
C35_24 C27_27 1_555 1_555
C36_27 C34_27 1_555 1_555
C37_24 C35_24 1_555 1_555
C38_27 C31_27 1_555 1_555
H31_27 C38_27 1_555 1_555
C39_27 C35_24 1_555 1_555
H32_24 C39_27 1_555 1_555
C40_27 H33_27 1_555 1_555
H34_27 C40_27 1_555 1_555
C41_27 C40_27 1_555 1_555
H35_27 C41_27 1_555 1_555
H36_27 C41_27 1_555 1_555
C42_27 C41_27 1_555 1_555
H37_27 C42_27 1_555 1_555
H38_27 C42_27 1_555 1_555
C43_27 C42_27 1_555 1_555
H39_27 C43_27 1_555 1_555
H40_27 C43_27 1_555 1_555
H41_27 C43_27 1_555 1_555
C44_27 C36_27 1_555 1_555
H42_27 C44_27 1_555 1_555
C45_27 S2_27 1_555 1_555
H43_27 C45_27 1_555 1_555
C46_27 C44_27 1_555 1_555
H44_27 C46_27 1_555 1_555
C22_27 C23_27 1_555 1_555
O6_27 C24_27 1_555 1_555
C29_27 C30_27 1_555 1_555
C30_27 C32_27 1_555 1_555
C31_27 C33_27 1_555 1_555
C38_27 C39_27 1_555 1_555
C45_27 C46_27 1_555 1_555
O7_24 H46_24 1_555 1_555
Ni3_12 O1_28 1_555 1_555
S1_28 C13_28 1_555 1_555
O1_28 C1_28 1_555 1_555
O2_28 Ni3_12 1_555 1_555
O3_18 C14_18 1_555 1_555
O4_18 C14_18 1_555 1_555
N5 C2_28 1_555 1_555
N2_28 C2_28 1_555 1_555
C1_28 O2_28 1_555 1_555
C2_28 C17_28 1_555 1_555
C3_28 C1_28 1_555 1_555
C4_28 H1_28 1_555 1_555
C5_28 C4_28 1_555 1_555
H2_28 C5_28 1_555 1_555
C6_28 C3_28 1_555 1_555
H3_28 C6_28 1_555 1_555
C7_28 N2_28 1_555 1_555
C8_28 C5_28 1_555 1_555
C9_28 N5 1_555 1_555
H4_28 C9_28 1_555 1_555
C10_28 N2_28 1_555 1_555
H5_28 C10_28 1_555 1_555
H6_28 C10_28 1_555 1_555
C11_28 C3_28 1_555 1_555
H7_28 C11_28 1_555 1_555
H8_28 C11_28 1_555 1_555
C12_18 C4_28 1_555 1_555
C13_28 C11_28 1_555 1_555
C14_18 C12_18 1_555 1_555
C15_28 C8_28 1_555 1_555
H9_28 C15_28 1_555 1_555
C16_28 C12_18 1_555 1_555
H10_18 C16_28 1_555 1_555
C17_28 H11_28 1_555 1_555
H12_28 C17_28 1_555 1_555
C18_28 C17_28 1_555 1_555
H13_28 C18_28 1_555 1_555
H14_28 C18_28 1_555 1_555
C19_28 C18_28 1_555 1_555
H15_28 C19_28 1_555 1_555
H16_28 C19_28 1_555 1_555
C20_28 C19_28 1_555 1_555
H17_28 C20_28 1_555 1_555
H18_28 C20_28 1_555 1_555
H19_28 C20_28 1_555 1_555
C21_28 C13_28 1_555 1_555
H20_28 C21_28 1_555 1_555
C22_28 S1_28 1_555 1_555
H21_28 C22_28 1_555 1_555
C23_28 C21_28 1_555 1_555
H22_28 C23_28 1_555 1_555
S2_28 C36_28 1_555 1_555
O5_28 Ni3_12 1_555 1_555
O6_28 Ni3_12 1_555 1_555
O7_25 C37_25 1_555 1_555
O8_25 C37_25 1_555 1_555
N5_8 C25_28 1_555 1_555
N4_28 C25_28 1_555 1_555
C24_28 O5_28 1_555 1_555
C25_28 C40_28 1_555 1_555
C26_28 C24_28 1_555 1_555
C27_28 H23_28 1_555 1_555
C28_28 C27_28 1_555 1_555
H24_28 C28_28 1_555 1_555
C29_28 C26_28 1_555 1_555
H25_28 C29_28 1_555 1_555
C30_28 N4_28 1_555 1_555
C31_28 C28_28 1_555 1_555
C32_28 N5_8 1_555 1_555
H26_28 C32_28 1_555 1_555
C33_28 N4_28 1_555 1_555
H27_28 C33_28 1_555 1_555
H28_28 C33_28 1_555 1_555
C34_28 C26_28 1_555 1_555
H29_28 C34_28 1_555 1_555
H30_28 C34_28 1_555 1_555
C35_25 C27_28 1_555 1_555
C36_28 C34_28 1_555 1_555
C37_25 C35_25 1_555 1_555
C38_28 C31_28 1_555 1_555
H31_28 C38_28 1_555 1_555
C39_28 C35_25 1_555 1_555
H32_25 C39_28 1_555 1_555
C40_28 H33_28 1_555 1_555
H34_28 C40_28 1_555 1_555
C41_28 C40_28 1_555 1_555
H35_28 C41_28 1_555 1_555
H36_28 C41_28 1_555 1_555
C42_28 C41_28 1_555 1_555
H37_28 C42_28 1_555 1_555
H38_28 C42_28 1_555 1_555
C43_28 C42_28 1_555 1_555
H39_28 C43_28 1_555 1_555
H40_28 C43_28 1_555 1_555
H41_28 C43_28 1_555 1_555
C44_28 C36_28 1_555 1_555
H42_28 C44_28 1_555 1_555
C45_28 S2_28 1_555 1_555
H43_28 C45_28 1_555 1_555
C46_28 C44_28 1_555 1_555
H44_28 C46_28 1_555 1_555
C6_28 C7_28 1_555 1_555
C7_28 C9_28 1_555 1_555
C8_28 C10_28 1_555 1_555
C15_28 C16_28 1_555 1_555
C22_28 C23_28 1_555 1_555
O6_28 C24_28 1_555 1_555
C29_28 C30_28 1_555 1_555
C30_28 C32_28 1_555 1_555
C31_28 C33_28 1_555 1_555
C38_28 C39_28 1_555 1_555
C45_28 C46_28 1_555 1_555
O3_18 H45_18 1_555 1_555
O7_25 H46_25 1_555 1_555
Ni3_8 O1_29 1_555 1_555
S1_29 C13_29 1_555 1_555
O1_29 C1_29 1_555 1_555
O2_29 Ni3_8 1_555 1_555
C1_29 O2_29 1_555 1_555
C3_29 C1_29 1_555 1_555
C11_29 C3_29 1_555 1_555
H8_29 C11_29 1_555 1_555
C13_29 C11_29 1_555 1_555
C21_29 C13_29 1_555 1_555
H20_29 C21_29 1_555 1_555
C22_29 S1_29 1_555 1_555
H21_29 C22_29 1_555 1_555
C23_29 C21_29 1_555 1_555
H22_29 C23_29 1_555 1_555
S2_29 C36_29 1_555 1_555
O5_29 Ni3_8 1_555 1_555
O6_29 Ni3_8 1_555 1_555
N5_13 C25_29 1_555 1_555
N4_29 C25_29 1_555 1_555
C24_29 O5_29 1_555 1_555
C25_29 C40_29 1_555 1_555
C26_29 C24_29 1_555 1_555
C27_29 H23_29 1_555 1_555
C28_29 C27_29 1_555 1_555
H24_29 C28_29 1_555 1_555
C29_29 C26_29 1_555 1_555
H25_29 C29_29 1_555 1_555
C30_29 N4_29 1_555 1_555
C31_29 C28_29 1_555 1_555
C32_29 N5_13 1_555 1_555
H26_29 C32_29 1_555 1_555
C33_29 N4_29 1_555 1_555
H27_29 C33_29 1_555 1_555
H28_29 C33_29 1_555 1_555
C34_29 C26_29 1_555 1_555
H29_29 C34_29 1_555 1_555
H30_29 C34_29 1_555 1_555
C36_29 C34_29 1_555 1_555
C38_29 C31_29 1_555 1_555
H31_29 C38_29 1_555 1_555
C40_29 H33_29 1_555 1_555
H34_29 C40_29 1_555 1_555
C41_29 C40_29 1_555 1_555
H35_29 C41_29 1_555 1_555
H36_29 C41_29 1_555 1_555
C42_29 C41_29 1_555 1_555
H37_29 C42_29 1_555 1_555
H38_29 C42_29 1_555 1_555
C43_29 C42_29 1_555 1_555
H39_29 C43_29 1_555 1_555
H40_29 C43_29 1_555 1_555
H41_29 C43_29 1_555 1_555
C44_29 C36_29 1_555 1_555
H42_29 C44_29 1_555 1_555
C45_29 S2_29 1_555 1_555
H43_29 C45_29 1_555 1_555
C46_29 C44_29 1_555 1_555
H44_29 C46_29 1_555 1_555
C22_29 C23_29 1_555 1_555
O6_29 C24_29 1_555 1_555
C29_29 C30_29 1_555 1_555
C30_29 C32_29 1_555 1_555
C31_29 C33_29 1_555 1_555
C38_29 C39_29 1_555 1_555
C45_29 C46_29 1_555 1_555
O3_19 C14_19 1_555 1_555
O4_19 C14_19 1_555 1_555
N6_16 C2_29 1_555 1_555
N2_29 C2_29 1_555 1_555
C2_29 C17_29 1_555 1_555
C4_29 H1_29 1_555 1_555
C5_29 C4_29 1_555 1_555
H2_29 C5_29 1_555 1_555
C7_29 N2_29 1_555 1_555
C8_29 C5_29 1_555 1_555
C9_29 N6_16 1_555 1_555
H4_29 C9_29 1_555 1_555
C10_29 N2_29 1_555 1_555
H5_29 C10_29 1_555 1_555
H6_29 C10_29 1_555 1_555
C12_19 C4_29 1_555 1_555
C14_19 C12_19 1_555 1_555
C15_29 C8_29 1_555 1_555
H9_29 C15_29 1_555 1_555
C16_29 C12_19 1_555 1_555
H10_19 C16_29 1_555 1_555
C17_29 H11_29 1_555 1_555
H12_29 C17_29 1_555 1_555
C18_29 C17_29 1_555 1_555
H13_29 C18_29 1_555 1_555
H14_29 C18_29 1_555 1_555
C19_29 C18_29 1_555 1_555
H15_29 C19_29 1_555 1_555
H16_29 C19_29 1_555 1_555
C20_29 C19_29 1_555 1_555
H17_29 C20_29 1_555 1_555
H18_29 C20_29 1_555 1_555
H19_29 C20_29 1_555 1_555
C6_29 C7_29 1_555 1_555
C7_29 C9_29 1_555 1_555
C8_29 C10_29 1_555 1_555
C15_29 C16_29 1_555 1_555
O3_19 H45_19 1_555 1_555
Ni2_3 O1_30 1_555 1_555
S1_30 C13_30 1_555 1_555
O1_30 C1_30 1_555 1_555
O2_30 Ni2_3 1_555 1_555
N6_20 C2_30 1_555 1_555
N2_30 C2_30 1_555 1_555
C1_30 O2_30 1_555 1_555
C2_30 C17_30 1_555 1_555
C3_30 C1_30 1_555 1_555
C4_30 H1_30 1_555 1_555
C5_30 C4_30 1_555 1_555
H2_30 C5_30 1_555 1_555
C6_30 C3_30 1_555 1_555
H3_30 C6_30 1_555 1_555
C7_30 N2_30 1_555 1_555
C8_30 C5_30 1_555 1_555
C9_30 N6_20 1_555 1_555
H4_30 C9_30 1_555 1_555
C10_30 N2_30 1_555 1_555
H5_30 C10_30 1_555 1_555
H6_30 C10_30 1_555 1_555
C11_30 C3_30 1_555 1_555
H7_30 C11_30 1_555 1_555
H8_30 C11_30 1_555 1_555
C13_30 C11_30 1_555 1_555
C15_30 C8_30 1_555 1_555
H9_30 C15_30 1_555 1_555
C17_30 H11_30 1_555 1_555
H12_30 C17_30 1_555 1_555
C18_30 C17_30 1_555 1_555
H13_30 C18_30 1_555 1_555
H14_30 C18_30 1_555 1_555
C19_30 C18_30 1_555 1_555
H15_30 C19_30 1_555 1_555
H16_30 C19_30 1_555 1_555
C20_30 C19_30 1_555 1_555
H17_30 C20_30 1_555 1_555
H18_30 C20_30 1_555 1_555
H19_30 C20_30 1_555 1_555
C21_30 C13_30 1_555 1_555
H20_30 C21_30 1_555 1_555
C22_30 S1_30 1_555 1_555
H21_30 C22_30 1_555 1_555
C23_30 C21_30 1_555 1_555
H22_30 C23_30 1_555 1_555
S2_30 C36_30 1_555 1_555
O5_30 Ni2_3 1_555 1_555
O6_30 Ni2_3 1_555 1_555
O7_26 C37_26 1_555 1_555
O8_26 C37_26 1_555 1_555
N6_18 C25_30 1_555 1_555
N4_30 C25_30 1_555 1_555
C24_30 O5_30 1_555 1_555
C25_30 C40_30 1_555 1_555
C26_30 C24_30 1_555 1_555
C27_30 H23_30 1_555 1_555
C28_30 C27_30 1_555 1_555
H24_30 C28_30 1_555 1_555
C29_30 C26_30 1_555 1_555
H25_30 C29_30 1_555 1_555
C30_30 N4_30 1_555 1_555
C31_30 C28_30 1_555 1_555
C32_30 N6_18 1_555 1_555
H26_30 C32_30 1_555 1_555
C33_30 N4_30 1_555 1_555
H27_30 C33_30 1_555 1_555
H28_30 C33_30 1_555 1_555
C34_30 C26_30 1_555 1_555
H29_30 C34_30 1_555 1_555
H30_30 C34_30 1_555 1_555
C35_26 C27_30 1_555 1_555
C36_30 C34_30 1_555 1_555
C37_26 C35_26 1_555 1_555
C38_30 C31_30 1_555 1_555
H31_30 C38_30 1_555 1_555
C39_30 C35_26 1_555 1_555
H32_26 C39_30 1_555 1_555
C40_30 H33_30 1_555 1_555
H34_30 C40_30 1_555 1_555
C41_30 C40_30 1_555 1_555
H35_30 C41_30 1_555 1_555
H36_30 C41_30 1_555 1_555
C42_30 C41_30 1_555 1_555
H37_30 C42_30 1_555 1_555
H38_30 C42_30 1_555 1_555
C43_30 C42_30 1_555 1_555
H39_30 C43_30 1_555 1_555
H40_30 C43_30 1_555 1_555
H41_30 C43_30 1_555 1_555
C44_30 C36_30 1_555 1_555
H42_30 C44_30 1_555 1_555
C45_30 S2_30 1_555 1_555
H43_30 C45_30 1_555 1_555
C46_30 C44_30 1_555 1_555
H44_30 C46_30 1_555 1_555
C6_30 C7_30 1_555 1_555
C7_30 C9_30 1_555 1_555
C8_30 C10_30 1_555 1_555
C15_30 C16_30 1_555 1_555
C22_30 C23_30 1_555 1_555
O6_30 C24_30 1_555 1_555
C29_30 C30_30 1_555 1_555
C30_30 C32_30 1_555 1_555
C31_30 C33_30 1_555 1_555
C38_30 C39_30 1_555 1_555
C45_30 C46_30 1_555 1_555
O7_26 H46_26 1_555 1_555
Ni2_9 O1_31 1_555 1_555
S1_31 C13_31 1_555 1_555
O1_31 C1_31 1_555 1_555
O2_31 Ni2_9 1_555 1_555
N6_23 C2_31 1_555 1_555
N2_31 C2_31 1_555 1_555
C1_31 O2_31 1_555 1_555
C2_31 C17_31 1_555 1_555
C3_31 C1_31 1_555 1_555
C4_31 H1_31 1_555 1_555
C5_31 C4_31 1_555 1_555
H2_31 C5_31 1_555 1_555
C6_31 C3_31 1_555 1_555
H3_31 C6_31 1_555 1_555
C7_31 N2_31 1_555 1_555
C8_31 C5_31 1_555 1_555
C9_31 N6_23 1_555 1_555
H4_31 C9_31 1_555 1_555
C10_31 N2_31 1_555 1_555
H5_31 C10_31 1_555 1_555
H6_31 C10_31 1_555 1_555
C11_31 C3_31 1_555 1_555
H7_31 C11_31 1_555 1_555
H8_31 C11_31 1_555 1_555
C13_31 C11_31 1_555 1_555
C15_31 C8_31 1_555 1_555
H9_31 C15_31 1_555 1_555
C17_31 H11_31 1_555 1_555
H12_31 C17_31 1_555 1_555
C18_31 C17_31 1_555 1_555
H13_31 C18_31 1_555 1_555
H14_31 C18_31 1_555 1_555
C19_31 C18_31 1_555 1_555
H15_31 C19_31 1_555 1_555
H16_31 C19_31 1_555 1_555
C20_31 C19_31 1_555 1_555
H17_31 C20_31 1_555 1_555
H18_31 C20_31 1_555 1_555
H19_31 C20_31 1_555 1_555
C21_31 C13_31 1_555 1_555
H20_31 C21_31 1_555 1_555
C22_31 S1_31 1_555 1_555
H21_31 C22_31 1_555 1_555
C23_31 C21_31 1_555 1_555
H22_31 C23_31 1_555 1_555
S2_31 C36_31 1_555 1_555
O5_31 Ni2_9 1_555 1_555
O6_31 Ni2_9 1_555 1_555
C24_31 O5_31 1_555 1_555
C26_31 C24_31 1_555 1_555
C34_31 C26_31 1_555 1_555
H30_31 C34_31 1_555 1_555
C36_31 C34_31 1_555 1_555
C44_31 C36_31 1_555 1_555
H42_31 C44_31 1_555 1_555
C45_31 S2_31 1_555 1_555
H43_31 C45_31 1_555 1_555
C46_31 C44_31 1_555 1_555
H44_31 C46_31 1_555 1_555
C6_31 C7_31 1_555 1_555
C7_31 C9_31 1_555 1_555
C8_31 C10_31 1_555 1_555
C15_31 C16_31 1_555 1_555
C22_31 C23_31 1_555 1_555
O6_31 C24_31 1_555 1_555
C45_31 C46_31 1_555 1_555
O7_27 C37_27 1_555 1_555
O8_27 C37_27 1_555 1_555
N6_17 C25_31 1_555 1_555
N4_31 C25_31 1_555 1_555
C25_31 C40_31 1_555 1_555
C27_31 H23_31 1_555 1_555
C28_31 C27_31 1_555 1_555
H24_31 C28_31 1_555 1_555
C30_31 N4_31 1_555 1_555
C31_31 C28_31 1_555 1_555
C32_31 N6_17 1_555 1_555
H26_31 C32_31 1_555 1_555
C33_31 N4_31 1_555 1_555
H27_31 C33_31 1_555 1_555
H28_31 C33_31 1_555 1_555
C35_27 C27_31 1_555 1_555
C37_27 C35_27 1_555 1_555
C38_31 C31_31 1_555 1_555
H31_31 C38_31 1_555 1_555
C39_31 C35_27 1_555 1_555
H32_27 C39_31 1_555 1_555
C40_31 H33_31 1_555 1_555
H34_31 C40_31 1_555 1_555
C41_31 C40_31 1_555 1_555
H35_31 C41_31 1_555 1_555
H36_31 C41_31 1_555 1_555
C42_31 C41_31 1_555 1_555
H37_31 C42_31 1_555 1_555
H38_31 C42_31 1_555 1_555
C43_31 C42_31 1_555 1_555
H39_31 C43_31 1_555 1_555
H40_31 C43_31 1_555 1_555
H41_31 C43_31 1_555 1_555
C29_31 C30_31 1_555 1_555
C30_31 C32_31 1_555 1_555
C31_31 C33_31 1_555 1_555
C38_31 C39_31 1_555 1_555
O7_27 H46_27 1_555 1_555
Ni3_3 O1_32 1_555 1_555
S1_32 C13_32 1_555 1_555
O1_32 C1_32 1_555 1_555
O2_32 Ni3_3 1_555 1_555
N6_5 C2_32 1_555 1_555
N2_32 C2_32 1_555 1_555
C1_32 O2_32 1_555 1_555
C2_32 C17_32 1_555 1_555
C3_32 C1_32 1_555 1_555
C4_32 H1_32 1_555 1_555
C5_32 C4_32 1_555 1_555
H2_32 C5_32 1_555 1_555
C6_32 C3_32 1_555 1_555
H3_32 C6_32 1_555 1_555
C7_32 N2_32 1_555 1_555
C8_32 C5_32 1_555 1_555
C9_32 N6_5 1_555 1_555
H4_32 C9_32 1_555 1_555
C10_32 N2_32 1_555 1_555
H5_32 C10_32 1_555 1_555
H6_32 C10_32 1_555 1_555
C11_32 C3_32 1_555 1_555
H7_32 C11_32 1_555 1_555
H8_32 C11_32 1_555 1_555
C13_32 C11_32 1_555 1_555
C15_32 C8_32 1_555 1_555
H9_32 C15_32 1_555 1_555
C17_32 H11_32 1_555 1_555
H12_32 C17_32 1_555 1_555
C18_32 C17_32 1_555 1_555
H13_32 C18_32 1_555 1_555
H14_32 C18_32 1_555 1_555
C19_32 C18_32 1_555 1_555
H15_32 C19_32 1_555 1_555
H16_32 C19_32 1_555 1_555
C20_32 C19_32 1_555 1_555
H17_32 C20_32 1_555 1_555
H18_32 C20_32 1_555 1_555
H19_32 C20_32 1_555 1_555
C21_32 C13_32 1_555 1_555
H20_32 C21_32 1_555 1_555
C22_32 S1_32 1_555 1_555
H21_32 C22_32 1_555 1_555
C23_32 C21_32 1_555 1_555
H22_32 C23_32 1_555 1_555
S2_32 C36_32 1_555 1_555
O5_32 Ni3_3 1_555 1_555
O6_32 Ni3_3 1_555 1_555
O7_28 C37_28 1_555 1_555
O8_28 C37_28 1_555 1_555
N5_11 C25_32 1_555 1_555
N4_32 C25_32 1_555 1_555
C24_32 O5_32 1_555 1_555
C25_32 C40_32 1_555 1_555
C26_32 C24_32 1_555 1_555
C27_32 H23_32 1_555 1_555
C28_32 C27_32 1_555 1_555
H24_32 C28_32 1_555 1_555
C29_32 C26_32 1_555 1_555
H25_32 C29_32 1_555 1_555
C30_32 N4_32 1_555 1_555
C31_32 C28_32 1_555 1_555
C32_32 N5_11 1_555 1_555
H26_32 C32_32 1_555 1_555
C33_32 N4_32 1_555 1_555
H27_32 C33_32 1_555 1_555
H28_32 C33_32 1_555 1_555
C34_32 C26_32 1_555 1_555
H29_32 C34_32 1_555 1_555
H30_32 C34_32 1_555 1_555
C35_28 C27_32 1_555 1_555
C36_32 C34_32 1_555 1_555
C37_28 C35_28 1_555 1_555
C38_32 C31_32 1_555 1_555
H31_32 C38_32 1_555 1_555
C39_32 C35_28 1_555 1_555
H32_28 C39_32 1_555 1_555
C40_32 H33_32 1_555 1_555
H34_32 C40_32 1_555 1_555
C41_32 C40_32 1_555 1_555
H35_32 C41_32 1_555 1_555
H36_32 C41_32 1_555 1_555
C42_32 C41_32 1_555 1_555
H37_32 C42_32 1_555 1_555
H38_32 C42_32 1_555 1_555
C43_32 C42_32 1_555 1_555
H39_32 C43_32 1_555 1_555
H40_32 C43_32 1_555 1_555
H41_32 C43_32 1_555 1_555
C44_32 C36_32 1_555 1_555
H42_32 C44_32 1_555 1_555
C45_32 S2_32 1_555 1_555
H43_32 C45_32 1_555 1_555
C46_32 C44_32 1_555 1_555
H44_32 C46_32 1_555 1_555
C6_32 C7_32 1_555 1_555
C7_32 C9_32 1_555 1_555
C8_32 C10_32 1_555 1_555
C15_32 C16_32 1_555 1_555
C22_32 C23_32 1_555 1_555
O6_32 C24_32 1_555 1_555
C29_32 C30_32 1_555 1_555
C30_32 C32_32 1_555 1_555
C31_32 C33_32 1_555 1_555
C38_32 C39_32 1_555 1_555
C45_32 C46_32 1_555 1_555
O7_28 H46_28 1_555 1_555
Ni2_8 O1_33 1_555 1_555
S1_33 C13_33 1_555 1_555
O1_33 C1_33 1_555 1_555
O2_33 Ni2_8 1_555 1_555
N6_15 C2_33 1_555 1_555
N2_33 C2_33 1_555 1_555
C1_33 O2_33 1_555 1_555
C2_33 C17_33 1_555 1_555
C3_33 C1_33 1_555 1_555
C4_33 H1_33 1_555 1_555
C5_33 C4_33 1_555 1_555
H2_33 C5_33 1_555 1_555
C6_33 C3_33 1_555 1_555
H3_33 C6_33 1_555 1_555
C7_33 N2_33 1_555 1_555
C8_33 C5_33 1_555 1_555
C9_33 N6_15 1_555 1_555
H4_33 C9_33 1_555 1_555
C10_33 N2_33 1_555 1_555
H5_33 C10_33 1_555 1_555
H6_33 C10_33 1_555 1_555
C11_33 C3_33 1_555 1_555
H7_33 C11_33 1_555 1_555
H8_33 C11_33 1_555 1_555
C13_33 C11_33 1_555 1_555
C15_33 C8_33 1_555 1_555
H9_33 C15_33 1_555 1_555
C17_33 H11_33 1_555 1_555
H12_33 C17_33 1_555 1_555
C18_33 C17_33 1_555 1_555
H13_33 C18_33 1_555 1_555
H14_33 C18_33 1_555 1_555
C19_33 C18_33 1_555 1_555
H15_33 C19_33 1_555 1_555
H16_33 C19_33 1_555 1_555
C20_33 C19_33 1_555 1_555
H17_33 C20_33 1_555 1_555
H18_33 C20_33 1_555 1_555
H19_33 C20_33 1_555 1_555
C21_33 C13_33 1_555 1_555
H20_33 C21_33 1_555 1_555
C22_33 S1_33 1_555 1_555
H21_33 C22_33 1_555 1_555
C23_33 C21_33 1_555 1_555
H22_33 C23_33 1_555 1_555
S2_33 C36_33 1_555 1_555
O5_33 Ni2_8 1_555 1_555
O6_33 Ni2_8 1_555 1_555
C24_33 O5_33 1_555 1_555
C26_33 C24_33 1_555 1_555
C34_33 C26_33 1_555 1_555
H30_33 C34_33 1_555 1_555
C36_33 C34_33 1_555 1_555
C44_33 C36_33 1_555 1_555
H42_33 C44_33 1_555 1_555
C45_33 S2_33 1_555 1_555
H43_33 C45_33 1_555 1_555
C46_33 C44_33 1_555 1_555
H44_33 C46_33 1_555 1_555
C6_33 C7_33 1_555 1_555
C7_33 C9_33 1_555 1_555
C8_33 C10_33 1_555 1_555
C15_33 C16_33 1_555 1_555
C22_33 C23_33 1_555 1_555
O6_33 C24_33 1_555 1_555
C45_33 C46_33 1_555 1_555
O7_29 C37_29 1_555 1_555
O8_29 C37_29 1_555 1_555
N5_23 C25_33 1_555 1_555
N4_33 C25_33 1_555 1_555
C25_33 C40_33 1_555 1_555
C27_33 H23_33 1_555 1_555
C28_33 C27_33 1_555 1_555
H24_33 C28_33 1_555 1_555
C30_33 N4_33 1_555 1_555
C31_33 C28_33 1_555 1_555
C32_33 N5_23 1_555 1_555
H26_33 C32_33 1_555 1_555
C33_33 N4_33 1_555 1_555
H27_33 C33_33 1_555 1_555
H28_33 C33_33 1_555 1_555
C35_29 C27_33 1_555 1_555
C37_29 C35_29 1_555 1_555
C38_33 C31_33 1_555 1_555
H31_33 C38_33 1_555 1_555
C39_33 C35_29 1_555 1_555
H32_29 C39_33 1_555 1_555
C40_33 H33_33 1_555 1_555
H34_33 C40_33 1_555 1_555
C41_33 C40_33 1_555 1_555
H35_33 C41_33 1_555 1_555
H36_33 C41_33 1_555 1_555
C42_33 C41_33 1_555 1_555
H37_33 C42_33 1_555 1_555
H38_33 C42_33 1_555 1_555
C43_33 C42_33 1_555 1_555
H39_33 C43_33 1_555 1_555
H40_33 C43_33 1_555 1_555
H41_33 C43_33 1_555 1_555
C29_33 C30_33 1_555 1_555
C30_33 C32_33 1_555 1_555
C31_33 C33_33 1_555 1_555
C38_33 C39_33 1_555 1_555
O7_29 H46_29 1_555 1_555
O3_20 C14_20 1_555 1_555
O4_20 C14_20 1_555 1_555
N5_14 C2_34 1_555 1_555
N2_34 C2_34 1_555 1_555
C2_34 C17_34 1_555 1_555
C4_34 H1_34 1_555 1_555
C5_34 C4_34 1_555 1_555
H2_34 C5_34 1_555 1_555
C7_34 N2_34 1_555 1_555
C8_34 C5_34 1_555 1_555
C9_34 N5_14 1_555 1_555
H4_34 C9_34 1_555 1_555
C10_34 N2_34 1_555 1_555
H5_34 C10_34 1_555 1_555
H6_34 C10_34 1_555 1_555
C12_20 C4_34 1_555 1_555
C14_20 C12_20 1_555 1_555
C15_34 C8_34 1_555 1_555
H9_34 C15_34 1_555 1_555
C16_34 C12_20 1_555 1_555
H10_20 C16_34 1_555 1_555
C17_34 H11_34 1_555 1_555
H12_34 C17_34 1_555 1_555
C18_34 C17_34 1_555 1_555
H13_34 C18_34 1_555 1_555
H14_34 C18_34 1_555 1_555
C19_34 C18_34 1_555 1_555
H15_34 C19_34 1_555 1_555
H16_34 C19_34 1_555 1_555
C20_34 C19_34 1_555 1_555
H17_34 C20_34 1_555 1_555
H18_34 C20_34 1_555 1_555
H19_34 C20_34 1_555 1_555
C6_34 C7_34 1_555 1_555
C7_34 C9_34 1_555 1_555
C8_34 C10_34 1_555 1_555
C15_34 C16_34 1_555 1_555
O3_20 H45_20 1_555 1_555
Ni3_15 O1_34 1_555 1_555
S1_34 C13_34 1_555 1_555
O1_34 C1_34 1_555 1_555
O2_34 Ni3_15 1_555 1_555
C1_34 O2_34 1_555 1_555
C3_34 C1_34 1_555 1_555
C11_34 C3_34 1_555 1_555
H8_34 C11_34 1_555 1_555
C13_34 C11_34 1_555 1_555
C21_34 C13_34 1_555 1_555
H20_34 C21_34 1_555 1_555
C22_34 S1_34 1_555 1_555
H21_34 C22_34 1_555 1_555
C23_34 C21_34 1_555 1_555
H22_34 C23_34 1_555 1_555
S2_34 C36_34 1_555 1_555
O5_34 Ni3_15 1_555 1_555
O6_34 Ni3_15 1_555 1_555
O7_30 C37_30 1_555 1_555
O8_30 C37_30 1_555 1_555
N5_16 C25_34 1_555 1_555
N4_34 C25_34 1_555 1_555
C24_34 O5_34 1_555 1_555
C25_34 C40_34 1_555 1_555
C26_34 C24_34 1_555 1_555
C27_34 H23_34 1_555 1_555
C28_34 C27_34 1_555 1_555
H24_34 C28_34 1_555 1_555
C29_34 C26_34 1_555 1_555
H25_34 C29_34 1_555 1_555
C30_34 N4_34 1_555 1_555
C31_34 C28_34 1_555 1_555
C32_34 N5_16 1_555 1_555
H26_34 C32_34 1_555 1_555
C33_34 N4_34 1_555 1_555
H27_34 C33_34 1_555 1_555
H28_34 C33_34 1_555 1_555
C34_34 C26_34 1_555 1_555
H29_34 C34_34 1_555 1_555
H30_34 C34_34 1_555 1_555
C35_30 C27_34 1_555 1_555
C36_34 C34_34 1_555 1_555
C37_30 C35_30 1_555 1_555
C38_34 C31_34 1_555 1_555
H31_34 C38_34 1_555 1_555
C39_34 C35_30 1_555 1_555
H32_30 C39_34 1_555 1_555
C40_34 H33_34 1_555 1_555
H34_34 C40_34 1_555 1_555
C41_34 C40_34 1_555 1_555
H35_34 C41_34 1_555 1_555
H36_34 C41_34 1_555 1_555
C42_34 C41_34 1_555 1_555
H37_34 C42_34 1_555 1_555
H38_34 C42_34 1_555 1_555
C43_34 C42_34 1_555 1_555
H39_34 C43_34 1_555 1_555
H40_34 C43_34 1_555 1_555
H41_34 C43_34 1_555 1_555
C44_34 C36_34 1_555 1_555
H42_34 C44_34 1_555 1_555
C45_34 S2_34 1_555 1_555
H43_34 C45_34 1_555 1_555
C46_34 C44_34 1_555 1_555
H44_34 C46_34 1_555 1_555
C22_34 C23_34 1_555 1_555
O6_34 C24_34 1_555 1_555
C29_34 C30_34 1_555 1_555
C30_34 C32_34 1_555 1_555
C31_34 C33_34 1_555 1_555
C38_34 C39_34 1_555 1_555
C45_34 C46_34 1_555 1_555
O7_30 H46_30 1_555 1_555
Ni2_7 O1_35 1_555 1_555
S1_35 C13_35 1_555 1_555
O1_35 C1_35 1_555 1_555
O2_35 Ni2_7 1_555 1_555
O3_21 C14_21 1_555 1_555
O4_21 C14_21 1_555 1_555
N5_3 C2_35 1_555 1_555
N2_35 C2_35 1_555 1_555
C1_35 O2_35 1_555 1_555
C2_35 C17_35 1_555 1_555
C3_35 C1_35 1_555 1_555
C4_35 H1_35 1_555 1_555
C5_35 C4_35 1_555 1_555
H2_35 C5_35 1_555 1_555
C6_35 C3_35 1_555 1_555
H3_35 C6_35 1_555 1_555
C7_35 N2_35 1_555 1_555
C8_35 C5_35 1_555 1_555
C9_35 N5_3 1_555 1_555
H4_35 C9_35 1_555 1_555
C10_35 N2_35 1_555 1_555
H5_35 C10_35 1_555 1_555
H6_35 C10_35 1_555 1_555
C11_35 C3_35 1_555 1_555
H7_35 C11_35 1_555 1_555
H8_35 C11_35 1_555 1_555
C12_21 C4_35 1_555 1_555
C13_35 C11_35 1_555 1_555
C14_21 C12_21 1_555 1_555
C15_35 C8_35 1_555 1_555
H9_35 C15_35 1_555 1_555
C16_35 C12_21 1_555 1_555
H10_21 C16_35 1_555 1_555
C17_35 H11_35 1_555 1_555
H12_35 C17_35 1_555 1_555
C18_35 C17_35 1_555 1_555
H13_35 C18_35 1_555 1_555
H14_35 C18_35 1_555 1_555
C19_35 C18_35 1_555 1_555
H15_35 C19_35 1_555 1_555
H16_35 C19_35 1_555 1_555
C20_35 C19_35 1_555 1_555
H17_35 C20_35 1_555 1_555
H18_35 C20_35 1_555 1_555
H19_35 C20_35 1_555 1_555
C21_35 C13_35 1_555 1_555
H20_35 C21_35 1_555 1_555
C22_35 S1_35 1_555 1_555
H21_35 C22_35 1_555 1_555
C23_35 C21_35 1_555 1_555
H22_35 C23_35 1_555 1_555
S2_35 C36_35 1_555 1_555
O5_35 Ni2_7 1_555 1_555
O6_35 Ni2_7 1_555 1_555
O7_31 C37_31 1_555 1_555
O8_31 C37_31 1_555 1_555
N6_12 C25_35 1_555 1_555
N4_35 C25_35 1_555 1_555
C24_35 O5_35 1_555 1_555
C25_35 C40_35 1_555 1_555
C26_35 C24_35 1_555 1_555
C27_35 H23_35 1_555 1_555
C28_35 C27_35 1_555 1_555
H24_35 C28_35 1_555 1_555
C29_35 C26_35 1_555 1_555
H25_35 C29_35 1_555 1_555
C30_35 N4_35 1_555 1_555
C31_35 C28_35 1_555 1_555
C32_35 N6_12 1_555 1_555
H26_35 C32_35 1_555 1_555
C33_35 N4_35 1_555 1_555
H27_35 C33_35 1_555 1_555
H28_35 C33_35 1_555 1_555
C34_35 C26_35 1_555 1_555
H29_35 C34_35 1_555 1_555
H30_35 C34_35 1_555 1_555
C35_31 C27_35 1_555 1_555
C36_35 C34_35 1_555 1_555
C37_31 C35_31 1_555 1_555
C38_35 C31_35 1_555 1_555
H31_35 C38_35 1_555 1_555
C39_35 C35_31 1_555 1_555
H32_31 C39_35 1_555 1_555
C40_35 H33_35 1_555 1_555
H34_35 C40_35 1_555 1_555
C41_35 C40_35 1_555 1_555
H35_35 C41_35 1_555 1_555
H36_35 C41_35 1_555 1_555
C42_35 C41_35 1_555 1_555
H37_35 C42_35 1_555 1_555
H38_35 C42_35 1_555 1_555
C43_35 C42_35 1_555 1_555
H39_35 C43_35 1_555 1_555
H40_35 C43_35 1_555 1_555
H41_35 C43_35 1_555 1_555
C44_35 C36_35 1_555 1_555
H42_35 C44_35 1_555 1_555
C45_35 S2_35 1_555 1_555
H43_35 C45_35 1_555 1_555
C46_35 C44_35 1_555 1_555
H44_35 C46_35 1_555 1_555
C6_35 C7_35 1_555 1_555
C7_35 C9_35 1_555 1_555
C8_35 C10_35 1_555 1_555
C15_35 C16_35 1_555 1_555
C22_35 C23_35 1_555 1_555
O6_35 C24_35 1_555 1_555
C29_35 C30_35 1_555 1_555
C30_35 C32_35 1_555 1_555
C31_35 C33_35 1_555 1_555
C38_35 C39_35 1_555 1_555
C45_35 C46_35 1_555 1_555
O3_21 H45_21 1_555 1_555
O7_31 H46_31 1_555 1_555
Ni3 O1_36 1_555 1_555
S1_36 C13_36 1_555 1_555
O1_36 C1_36 1_555 1_555
O2_36 Ni3 1_555 1_555
O3_22 C14_22 1_555 1_555
O4_22 C14_22 1_555 1_555
N5_4 C2_36 1_555 1_555
N2_36 C2_36 1_555 1_555
C1_36 O2_36 1_555 1_555
C2_36 C17_36 1_555 1_555
C3_36 C1_36 1_555 1_555
C4_36 H1_36 1_555 1_555
C5_36 C4_36 1_555 1_555
H2_36 C5_36 1_555 1_555
C6_36 C3_36 1_555 1_555
H3_36 C6_36 1_555 1_555
C7_36 N2_36 1_555 1_555
C8_36 C5_36 1_555 1_555
C9_36 N5_4 1_555 1_555
H4_36 C9_36 1_555 1_555
C10_36 N2_36 1_555 1_555
H5_36 C10_36 1_555 1_555
H6_36 C10_36 1_555 1_555
C11_36 C3_36 1_555 1_555
H7_36 C11_36 1_555 1_555
H8_36 C11_36 1_555 1_555
C12_22 C4_36 1_555 1_555
C13_36 C11_36 1_555 1_555
C14_22 C12_22 1_555 1_555
C15_36 C8_36 1_555 1_555
H9_36 C15_36 1_555 1_555
C16_36 C12_22 1_555 1_555
H10_22 C16_36 1_555 1_555
C17_36 H11_36 1_555 1_555
H12_36 C17_36 1_555 1_555
C18_36 C17_36 1_555 1_555
H13_36 C18_36 1_555 1_555
H14_36 C18_36 1_555 1_555
C19_36 C18_36 1_555 1_555
H15_36 C19_36 1_555 1_555
H16_36 C19_36 1_555 1_555
C20_36 C19_36 1_555 1_555
H17_36 C20_36 1_555 1_555
H18_36 C20_36 1_555 1_555
H19_36 C20_36 1_555 1_555
C21_36 C13_36 1_555 1_555
H20_36 C21_36 1_555 1_555
C22_36 S1_36 1_555 1_555
H21_36 C22_36 1_555 1_555
C23_36 C21_36 1_555 1_555
H22_36 C23_36 1_555 1_555
S2_36 C36_36 1_555 1_555
O5_36 Ni3 1_555 1_555
O6_36 Ni3 1_555 1_555
O7_32 C37_32 1_555 1_555
O8_32 C37_32 1_555 1_555
N6_14 C25_36 1_555 1_555
N4_36 C25_36 1_555 1_555
C24_36 O5_36 1_555 1_555
C25_36 C40_36 1_555 1_555
C26_36 C24_36 1_555 1_555
C27_36 H23_36 1_555 1_555
C28_36 C27_36 1_555 1_555
H24_36 C28_36 1_555 1_555
C29_36 C26_36 1_555 1_555
H25_36 C29_36 1_555 1_555
C30_36 N4_36 1_555 1_555
C31_36 C28_36 1_555 1_555
C32_36 N6_14 1_555 1_555
H26_36 C32_36 1_555 1_555
C33_36 N4_36 1_555 1_555
H27_36 C33_36 1_555 1_555
H28_36 C33_36 1_555 1_555
C34_36 C26_36 1_555 1_555
H29_36 C34_36 1_555 1_555
H30_36 C34_36 1_555 1_555
C35_32 C27_36 1_555 1_555
C36_36 C34_36 1_555 1_555
C37_32 C35_32 1_555 1_555
C38_36 C31_36 1_555 1_555
H31_36 C38_36 1_555 1_555
C39_36 C35_32 1_555 1_555
H32_32 C39_36 1_555 1_555
C40_36 H33_36 1_555 1_555
H34_36 C40_36 1_555 1_555
C41_36 C40_36 1_555 1_555
H35_36 C41_36 1_555 1_555
H36_36 C41_36 1_555 1_555
C42_36 C41_36 1_555 1_555
H37_36 C42_36 1_555 1_555
H38_36 C42_36 1_555 1_555
C43_36 C42_36 1_555 1_555
H39_36 C43_36 1_555 1_555
H40_36 C43_36 1_555 1_555
H41_36 C43_36 1_555 1_555
C44_36 C36_36 1_555 1_555
H42_36 C44_36 1_555 1_555
C45_36 S2_36 1_555 1_555
H43_36 C45_36 1_555 1_555
C46_36 C44_36 1_555 1_555
H44_36 C46_36 1_555 1_555
C6_36 C7_36 1_555 1_555
C7_36 C9_36 1_555 1_555
C8_36 C10_36 1_555 1_555
C15_36 C16_36 1_555 1_555
C22_36 C23_36 1_555 1_555
O6_36 C24_36 1_555 1_555
C29_36 C30_36 1_555 1_555
C30_36 C32_36 1_555 1_555
C31_36 C33_36 1_555 1_555
C38_36 C39_36 1_555 1_555
C45_36 C46_36 1_555 1_555
O3_22 H45_22 1_555 1_555
O7_32 H46_32 1_555 1_555
Ni2_4 O1_37 1_555 1_555
S1_37 C13_37 1_555 1_555
O1_37 C1_37 1_555 1_555
O2_37 Ni2_4 1_555 1_555
N5_22 C2_37 1_555 1_555
N2_37 C2_37 1_555 1_555
C1_37 O2_37 1_555 1_555
C2_37 C17_37 1_555 1_555
C3_37 C1_37 1_555 1_555
C4_37 H1_37 1_555 1_555
C5_37 C4_37 1_555 1_555
H2_37 C5_37 1_555 1_555
C6_37 C3_37 1_555 1_555
H3_37 C6_37 1_555 1_555
C7_37 N2_37 1_555 1_555
C8_37 C5_37 1_555 1_555
C9_37 N5_22 1_555 1_555
H4_37 C9_37 1_555 1_555
C10_37 N2_37 1_555 1_555
H5_37 C10_37 1_555 1_555
H6_37 C10_37 1_555 1_555
C11_37 C3_37 1_555 1_555
H7_37 C11_37 1_555 1_555
H8_37 C11_37 1_555 1_555
C13_37 C11_37 1_555 1_555
C15_37 C8_37 1_555 1_555
H9_37 C15_37 1_555 1_555
C17_37 H11_37 1_555 1_555
H12_37 C17_37 1_555 1_555
C18_37 C17_37 1_555 1_555
H13_37 C18_37 1_555 1_555
H14_37 C18_37 1_555 1_555
C19_37 C18_37 1_555 1_555
H15_37 C19_37 1_555 1_555
H16_37 C19_37 1_555 1_555
C20_37 C19_37 1_555 1_555
H17_37 C20_37 1_555 1_555
H18_37 C20_37 1_555 1_555
H19_37 C20_37 1_555 1_555
C21_37 C13_37 1_555 1_555
H20_37 C21_37 1_555 1_555
C22_37 S1_37 1_555 1_555
H21_37 C22_37 1_555 1_555
C23_37 C21_37 1_555 1_555
H22_37 C23_37 1_555 1_555
S2_37 C36_37 1_555 1_555
O5_37 Ni2_4 1_555 1_555
O6_37 Ni2_4 1_555 1_555
C24_37 O5_37 1_555 1_555
C26_37 C24_37 1_555 1_555
C34_37 C26_37 1_555 1_555
H30_37 C34_37 1_555 1_555
C36_37 C34_37 1_555 1_555
C44_37 C36_37 1_555 1_555
H42_37 C44_37 1_555 1_555
C45_37 S2_37 1_555 1_555
H43_37 C45_37 1_555 1_555
C46_37 C44_37 1_555 1_555
H44_37 C46_37 1_555 1_555
C6_37 C7_37 1_555 1_555
C7_37 C9_37 1_555 1_555
C8_37 C10_37 1_555 1_555
C15_37 C16_37 1_555 1_555
C22_37 C23_37 1_555 1_555
O6_37 C24_37 1_555 1_555
C45_37 C46_37 1_555 1_555
O7_33 C37_33 1_555 1_555
O8_33 C37_33 1_555 1_555
N6_9 C25_37 1_555 1_555
N4_37 C25_37 1_555 1_555
C25_37 C40_37 1_555 1_555
C27_37 H23_37 1_555 1_555
C28_37 C27_37 1_555 1_555
H24_37 C28_37 1_555 1_555
C30_37 N4_37 1_555 1_555
C31_37 C28_37 1_555 1_555
C32_37 N6_9 1_555 1_555
H26_37 C32_37 1_555 1_555
C33_37 N4_37 1_555 1_555
H27_37 C33_37 1_555 1_555
H28_37 C33_37 1_555 1_555
C35_33 C27_37 1_555 1_555
C37_33 C35_33 1_555 1_555
C38_37 C31_37 1_555 1_555
H31_37 C38_37 1_555 1_555
C39_37 C35_33 1_555 1_555
H32_33 C39_37 1_555 1_555
C40_37 H33_37 1_555 1_555
H34_37 C40_37 1_555 1_555
C41_37 C40_37 1_555 1_555
H35_37 C41_37 1_555 1_555
H36_37 C41_37 1_555 1_555
C42_37 C41_37 1_555 1_555
H37_37 C42_37 1_555 1_555
H38_37 C42_37 1_555 1_555
C43_37 C42_37 1_555 1_555
H39_37 C43_37 1_555 1_555
H40_37 C43_37 1_555 1_555
H41_37 C43_37 1_555 1_555
C29_37 C30_37 1_555 1_555
C30_37 C32_37 1_555 1_555
C31_37 C33_37 1_555 1_555
C38_37 C39_37 1_555 1_555
O7_33 H46_33 1_555 1_555
Ni3_10 O1_38 1_555 1_555
S1_38 C13_38 1_555 1_555
O1_38 C1_38 1_555 1_555
O2_38 Ni3_10 1_555 1_555
O3_23 C14_23 1_555 1_555
O4_23 C14_23 1_555 1_555
N6_19 C2_38 1_555 1_555
N2_38 C2_38 1_555 1_555
C1_38 O2_38 1_555 1_555
C2_38 C17_38 1_555 1_555
C3_38 C1_38 1_555 1_555
C4_38 H1_38 1_555 1_555
C5_38 C4_38 1_555 1_555
H2_38 C5_38 1_555 1_555
C6_38 C3_38 1_555 1_555
H3_38 C6_38 1_555 1_555
C7_38 N2_38 1_555 1_555
C8_38 C5_38 1_555 1_555
C9_38 N6_19 1_555 1_555
H4_38 C9_38 1_555 1_555
C10_38 N2_38 1_555 1_555
H5_38 C10_38 1_555 1_555
H6_38 C10_38 1_555 1_555
C11_38 C3_38 1_555 1_555
H7_38 C11_38 1_555 1_555
H8_38 C11_38 1_555 1_555
C12_23 C4_38 1_555 1_555
C13_38 C11_38 1_555 1_555
C14_23 C12_23 1_555 1_555
C15_38 C8_38 1_555 1_555
H9_38 C15_38 1_555 1_555
C16_38 C12_23 1_555 1_555
H10_23 C16_38 1_555 1_555
C17_38 H11_38 1_555 1_555
H12_38 C17_38 1_555 1_555
C18_38 C17_38 1_555 1_555
H13_38 C18_38 1_555 1_555
H14_38 C18_38 1_555 1_555
C19_38 C18_38 1_555 1_555
H15_38 C19_38 1_555 1_555
H16_38 C19_38 1_555 1_555
C20_38 C19_38 1_555 1_555
H17_38 C20_38 1_555 1_555
H18_38 C20_38 1_555 1_555
H19_38 C20_38 1_555 1_555
C21_38 C13_38 1_555 1_555
H20_38 C21_38 1_555 1_555
C22_38 S1_38 1_555 1_555
H21_38 C22_38 1_555 1_555
C23_38 C21_38 1_555 1_555
H22_38 C23_38 1_555 1_555
S2_38 C36_38 1_555 1_555
O5_38 Ni3_10 1_555 1_555
O6_38 Ni3_10 1_555 1_555
N5_7 C25_38 1_555 1_555
N4_38 C25_38 1_555 1_555
C24_38 O5_38 1_555 1_555
C25_38 C40_38 1_555 1_555
C26_38 C24_38 1_555 1_555
C27_38 H23_38 1_555 1_555
C28_38 C27_38 1_555 1_555
H24_38 C28_38 1_555 1_555
C29_38 C26_38 1_555 1_555
H25_38 C29_38 1_555 1_555
C30_38 N4_38 1_555 1_555
C31_38 C28_38 1_555 1_555
C32_38 N5_7 1_555 1_555
H26_38 C32_38 1_555 1_555
C33_38 N4_38 1_555 1_555
H27_38 C33_38 1_555 1_555
H28_38 C33_38 1_555 1_555
C34_38 C26_38 1_555 1_555
H29_38 C34_38 1_555 1_555
H30_38 C34_38 1_555 1_555
C36_38 C34_38 1_555 1_555
C38_38 C31_38 1_555 1_555
H31_38 C38_38 1_555 1_555
C40_38 H33_38 1_555 1_555
H34_38 C40_38 1_555 1_555
C41_38 C40_38 1_555 1_555
H35_38 C41_38 1_555 1_555
H36_38 C41_38 1_555 1_555
C42_38 C41_38 1_555 1_555
H37_38 C42_38 1_555 1_555
H38_38 C42_38 1_555 1_555
C43_38 C42_38 1_555 1_555
H39_38 C43_38 1_555 1_555
H40_38 C43_38 1_555 1_555
H41_38 C43_38 1_555 1_555
C44_38 C36_38 1_555 1_555
H42_38 C44_38 1_555 1_555
C45_38 S2_38 1_555 1_555
H43_38 C45_38 1_555 1_555
C46_38 C44_38 1_555 1_555
H44_38 C46_38 1_555 1_555
C6_38 C7_38 1_555 1_555
C7_38 C9_38 1_555 1_555
C8_38 C10_38 1_555 1_555
C15_38 C16_38 1_555 1_555
C22_38 C23_38 1_555 1_555
O6_38 C24_38 1_555 1_555
C29_38 C30_38 1_555 1_555
C30_38 C32_38 1_555 1_555
C31_38 C33_38 1_555 1_555
C38_38 C39_38 1_555 1_555
C45_38 C46_38 1_555 1_555
O3_23 H45_23 1_555 1_555
O3_24 C14_24 1_555 1_555
O4_24 C14_24 1_555 1_555
N5_5 C2_39 1_555 1_555
N2_39 C2_39 1_555 1_555
C2_39 C17_39 1_555 1_555
C4_39 H1_39 1_555 1_555
C5_39 C4_39 1_555 1_555
H2_39 C5_39 1_555 1_555
C7_39 N2_39 1_555 1_555
C8_39 C5_39 1_555 1_555
C9_39 N5_5 1_555 1_555
H4_39 C9_39 1_555 1_555
C10_39 N2_39 1_555 1_555
H5_39 C10_39 1_555 1_555
H6_39 C10_39 1_555 1_555
C12_24 C4_39 1_555 1_555
C14_24 C12_24 1_555 1_555
C15_39 C8_39 1_555 1_555
H9_39 C15_39 1_555 1_555
C16_39 C12_24 1_555 1_555
H10_24 C16_39 1_555 1_555
C17_39 H11_39 1_555 1_555
H12_39 C17_39 1_555 1_555
C18_39 C17_39 1_555 1_555
H13_39 C18_39 1_555 1_555
H14_39 C18_39 1_555 1_555
C19_39 C18_39 1_555 1_555
H15_39 C19_39 1_555 1_555
H16_39 C19_39 1_555 1_555
C20_39 C19_39 1_555 1_555
H17_39 C20_39 1_555 1_555
H18_39 C20_39 1_555 1_555
H19_39 C20_39 1_555 1_555
C6_39 C7_39 1_555 1_555
C7_39 C9_39 1_555 1_555
C8_39 C10_39 1_555 1_555
C15_39 C16_39 1_555 1_555
O3_24 H45_24 1_555 1_555
Ni3_9 O1_39 1_555 1_555
S1_39 C13_39 1_555 1_555
O1_39 C1_39 1_555 1_555
O2_39 Ni3_9 1_555 1_555
C1_39 O2_39 1_555 1_555
C3_39 C1_39 1_555 1_555
C11_39 C3_39 1_555 1_555
H8_39 C11_39 1_555 1_555
C13_39 C11_39 1_555 1_555
C21_39 C13_39 1_555 1_555
H20_39 C21_39 1_555 1_555
C22_39 S1_39 1_555 1_555
H21_39 C22_39 1_555 1_555
C23_39 C21_39 1_555 1_555
H22_39 C23_39 1_555 1_555
S2_39 C36_39 1_555 1_555
O5_39 Ni3_9 1_555 1_555
O6_39 Ni3_9 1_555 1_555
O7_34 C37_34 1_555 1_555
O8_34 C37_34 1_555 1_555
N5_19 C25_39 1_555 1_555
N4_39 C25_39 1_555 1_555
C24_39 O5_39 1_555 1_555
C25_39 C40_39 1_555 1_555
C26_39 C24_39 1_555 1_555
C27_39 H23_39 1_555 1_555
C28_39 C27_39 1_555 1_555
H24_39 C28_39 1_555 1_555
C29_39 C26_39 1_555 1_555
H25_39 C29_39 1_555 1_555
C30_39 N4_39 1_555 1_555
C31_39 C28_39 1_555 1_555
C32_39 N5_19 1_555 1_555
H26_39 C32_39 1_555 1_555
C33_39 N4_39 1_555 1_555
H27_39 C33_39 1_555 1_555
H28_39 C33_39 1_555 1_555
C34_39 C26_39 1_555 1_555
H29_39 C34_39 1_555 1_555
H30_39 C34_39 1_555 1_555
C35_34 C27_39 1_555 1_555
C36_39 C34_39 1_555 1_555
C37_34 C35_34 1_555 1_555
C38_39 C31_39 1_555 1_555
H31_39 C38_39 1_555 1_555
C39_39 C35_34 1_555 1_555
H32_34 C39_39 1_555 1_555
C40_39 H33_39 1_555 1_555
H34_39 C40_39 1_555 1_555
C41_39 C40_39 1_555 1_555
H35_39 C41_39 1_555 1_555
H36_39 C41_39 1_555 1_555
C42_39 C41_39 1_555 1_555
H37_39 C42_39 1_555 1_555
H38_39 C42_39 1_555 1_555
C43_39 C42_39 1_555 1_555
H39_39 C43_39 1_555 1_555
H40_39 C43_39 1_555 1_555
H41_39 C43_39 1_555 1_555
C44_39 C36_39 1_555 1_555
H42_39 C44_39 1_555 1_555
C45_39 S2_39 1_555 1_555
H43_39 C45_39 1_555 1_555
C46_39 C44_39 1_555 1_555
H44_39 C46_39 1_555 1_555
C22_39 C23_39 1_555 1_555
O6_39 C24_39 1_555 1_555
C29_39 C30_39 1_555 1_555
C30_39 C32_39 1_555 1_555
C31_39 C33_39 1_555 1_555
C38_39 C39_39 1_555 1_555
C45_39 C46_39 1_555 1_555
O7_34 H46_34 1_555 1_555
Ni3_5 O1_40 1_555 1_555
S1_40 C13_40 1_555 1_555
O1_40 C1_40 1_555 1_555
O2_40 Ni3_5 1_555 1_555
N6_3 C2_40 1_555 1_555
N2_40 C2_40 1_555 1_555
C1_40 O2_40 1_555 1_555
C2_40 C17_40 1_555 1_555
C3_40 C1_40 1_555 1_555
C4_40 H1_40 1_555 1_555
C5_40 C4_40 1_555 1_555
H2_40 C5_40 1_555 1_555
C6_40 C3_40 1_555 1_555
H3_40 C6_40 1_555 1_555
C7_40 N2_40 1_555 1_555
C8_40 C5_40 1_555 1_555
C9_40 N6_3 1_555 1_555
H4_40 C9_40 1_555 1_555
C10_40 N2_40 1_555 1_555
H5_40 C10_40 1_555 1_555
H6_40 C10_40 1_555 1_555
C11_40 C3_40 1_555 1_555
H7_40 C11_40 1_555 1_555
H8_40 C11_40 1_555 1_555
C13_40 C11_40 1_555 1_555
C15_40 C8_40 1_555 1_555
H9_40 C15_40 1_555 1_555
C17_40 H11_40 1_555 1_555
H12_40 C17_40 1_555 1_555
C18_40 C17_40 1_555 1_555
H13_40 C18_40 1_555 1_555
H14_40 C18_40 1_555 1_555
C19_40 C18_40 1_555 1_555
H15_40 C19_40 1_555 1_555
H16_40 C19_40 1_555 1_555
C20_40 C19_40 1_555 1_555
H17_40 C20_40 1_555 1_555
H18_40 C20_40 1_555 1_555
H19_40 C20_40 1_555 1_555
C21_40 C13_40 1_555 1_555
H20_40 C21_40 1_555 1_555
C22_40 S1_40 1_555 1_555
H21_40 C22_40 1_555 1_555
C23_40 C21_40 1_555 1_555
H22_40 C23_40 1_555 1_555
S2_40 C36_40 1_555 1_555
O5_40 Ni3_5 1_555 1_555
O6_40 Ni3_5 1_555 1_555
O7_35 C37_35 1_555 1_555
O8_35 C37_35 1_555 1_555
N5_15 C25_40 1_555 1_555
N4_40 C25_40 1_555 1_555
C24_40 O5_40 1_555 1_555
C25_40 C40_40 1_555 1_555
C26_40 C24_40 1_555 1_555
C27_40 H23_40 1_555 1_555
C28_40 C27_40 1_555 1_555
H24_40 C28_40 1_555 1_555
C29_40 C26_40 1_555 1_555
H25_40 C29_40 1_555 1_555
C30_40 N4_40 1_555 1_555
C31_40 C28_40 1_555 1_555
C32_40 N5_15 1_555 1_555
H26_40 C32_40 1_555 1_555
C33_40 N4_40 1_555 1_555
H27_40 C33_40 1_555 1_555
H28_40 C33_40 1_555 1_555
C34_40 C26_40 1_555 1_555
H29_40 C34_40 1_555 1_555
H30_40 C34_40 1_555 1_555
C35_35 C27_40 1_555 1_555
C36_40 C34_40 1_555 1_555
C37_35 C35_35 1_555 1_555
C38_40 C31_40 1_555 1_555
H31_40 C38_40 1_555 1_555
C39_40 C35_35 1_555 1_555
H32_35 C39_40 1_555 1_555
C40_40 H33_40 1_555 1_555
H34_40 C40_40 1_555 1_555
C41_40 C40_40 1_555 1_555
H35_40 C41_40 1_555 1_555
H36_40 C41_40 1_555 1_555
C42_40 C41_40 1_555 1_555
H37_40 C42_40 1_555 1_555
H38_40 C42_40 1_555 1_555
C43_40 C42_40 1_555 1_555
H39_40 C43_40 1_555 1_555
H40_40 C43_40 1_555 1_555
H41_40 C43_40 1_555 1_555
C44_40 C36_40 1_555 1_555
H42_40 C44_40 1_555 1_555
C45_40 S2_40 1_555 1_555
H43_40 C45_40 1_555 1_555
C46_40 C44_40 1_555 1_555
H44_40 C46_40 1_555 1_555
C6_40 C7_40 1_555 1_555
C7_40 C9_40 1_555 1_555
C8_40 C10_40 1_555 1_555
C15_40 C16_40 1_555 1_555
C22_40 C23_40 1_555 1_555
O6_40 C24_40 1_555 1_555
C29_40 C30_40 1_555 1_555
C30_40 C32_40 1_555 1_555
C31_40 C33_40 1_555 1_555
C38_40 C39_40 1_555 1_555
C45_40 C46_40 1_555 1_555
O7_35 H46_35 1_555 1_555
Ni2_6 O1_41 1_555 1_555
S1_41 C13_41 1_555 1_555
O1_41 C1_41 1_555 1_555
O2_41 Ni2_6 1_555 1_555
N6_10 C2_41 1_555 1_555
N2_41 C2_41 1_555 1_555
C1_41 O2_41 1_555 1_555
C2_41 C17_41 1_555 1_555
C3_41 C1_41 1_555 1_555
C4_41 H1_41 1_555 1_555
C5_41 C4_41 1_555 1_555
H2_41 C5_41 1_555 1_555
C6_41 C3_41 1_555 1_555
H3_41 C6_41 1_555 1_555
C7_41 N2_41 1_555 1_555
C8_41 C5_41 1_555 1_555
C9_41 N6_10 1_555 1_555
H4_41 C9_41 1_555 1_555
C10_41 N2_41 1_555 1_555
H5_41 C10_41 1_555 1_555
H6_41 C10_41 1_555 1_555
C11_41 C3_41 1_555 1_555
H7_41 C11_41 1_555 1_555
H8_41 C11_41 1_555 1_555
C13_41 C11_41 1_555 1_555
C15_41 C8_41 1_555 1_555
H9_41 C15_41 1_555 1_555
C17_41 H11_41 1_555 1_555
H12_41 C17_41 1_555 1_555
C18_41 C17_41 1_555 1_555
H13_41 C18_41 1_555 1_555
H14_41 C18_41 1_555 1_555
C19_41 C18_41 1_555 1_555
H15_41 C19_41 1_555 1_555
H16_41 C19_41 1_555 1_555
C20_41 C19_41 1_555 1_555
H17_41 C20_41 1_555 1_555
H18_41 C20_41 1_555 1_555
H19_41 C20_41 1_555 1_555
C21_41 C13_41 1_555 1_555
H20_41 C21_41 1_555 1_555
C22_41 S1_41 1_555 1_555
H21_41 C22_41 1_555 1_555
C23_41 C21_41 1_555 1_555
H22_41 C23_41 1_555 1_555
S2_41 C36_41 1_555 1_555
O5_41 Ni2_6 1_555 1_555
O6_41 Ni2_6 1_555 1_555
O7_36 C37_36 1_555 1_555
O8_36 C37_36 1_555 1_555
N6_22 C25_41 1_555 1_555
N4_41 C25_41 1_555 1_555
C24_41 O5_41 1_555 1_555
C25_41 C40_41 1_555 1_555
C26_41 C24_41 1_555 1_555
C27_41 H23_41 1_555 1_555
C28_41 C27_41 1_555 1_555
H24_41 C28_41 1_555 1_555
C29_41 C26_41 1_555 1_555
H25_41 C29_41 1_555 1_555
C30_41 N4_41 1_555 1_555
C31_41 C28_41 1_555 1_555
C32_41 N6_22 1_555 1_555
H26_41 C32_41 1_555 1_555
C33_41 N4_41 1_555 1_555
H27_41 C33_41 1_555 1_555
H28_41 C33_41 1_555 1_555
C34_41 C26_41 1_555 1_555
H29_41 C34_41 1_555 1_555
H30_41 C34_41 1_555 1_555
C35_36 C27_41 1_555 1_555
C36_41 C34_41 1_555 1_555
C37_36 C35_36 1_555 1_555
C38_41 C31_41 1_555 1_555
H31_41 C38_41 1_555 1_555
C39_41 C35_36 1_555 1_555
H32_36 C39_41 1_555 1_555
C40_41 H33_41 1_555 1_555
H34_41 C40_41 1_555 1_555
C41_41 C40_41 1_555 1_555
H35_41 C41_41 1_555 1_555
H36_41 C41_41 1_555 1_555
C42_41 C41_41 1_555 1_555
H37_41 C42_41 1_555 1_555
H38_41 C42_41 1_555 1_555
C43_41 C42_41 1_555 1_555
H39_41 C43_41 1_555 1_555
H40_41 C43_41 1_555 1_555
H41_41 C43_41 1_555 1_555
C44_41 C36_41 1_555 1_555
H42_41 C44_41 1_555 1_555
C45_41 S2_41 1_555 1_555
H43_41 C45_41 1_555 1_555
C46_41 C44_41 1_555 1_555
H44_41 C46_41 1_555 1_555
C6_41 C7_41 1_555 1_555
C7_41 C9_41 1_555 1_555
C8_41 C10_41 1_555 1_555
C15_41 C16_41 1_555 1_555
C22_41 C23_41 1_555 1_555
O6_41 C24_41 1_555 1_555
C29_41 C30_41 1_555 1_555
C30_41 C32_41 1_555 1_555
C31_41 C33_41 1_555 1_555
C38_41 C39_41 1_555 1_555
C45_41 C46_41 1_555 1_555
O7_36 H46_36 1_555 1_555
O7_37 C37_37 1_555 1_555
O8_37 C37_37 1_555 1_555
N6_24 C25_42 1_555 1_555
N4_42 C25_42 1_555 1_555
C25_42 C40_42 1_555 1_555
C27_42 H23_42 1_555 1_555
C28_42 C27_42 1_555 1_555
H24_42 C28_42 1_555 1_555
C30_42 N4_42 1_555 1_555
C31_42 C28_42 1_555 1_555
C32_42 N6_24 1_555 1_555
H26_42 C32_42 1_555 1_555
C33_42 N4_42 1_555 1_555
H27_42 C33_42 1_555 1_555
H28_42 C33_42 1_555 1_555
C35_37 C27_42 1_555 1_555
C37_37 C35_37 1_555 1_555
C38_42 C31_42 1_555 1_555
H31_42 C38_42 1_555 1_555
C39_42 C35_37 1_555 1_555
H32_37 C39_42 1_555 1_555
C40_42 H33_42 1_555 1_555
H34_42 C40_42 1_555 1_555
C41_42 C40_42 1_555 1_555
H35_42 C41_42 1_555 1_555
H36_42 C41_42 1_555 1_555
C42_42 C41_42 1_555 1_555
H37_42 C42_42 1_555 1_555
H38_42 C42_42 1_555 1_555
C43_42 C42_42 1_555 1_555
H39_42 C43_42 1_555 1_555
H40_42 C43_42 1_555 1_555
H41_42 C43_42 1_555 1_555
C29_42 C30_42 1_555 1_555
C30_42 C32_42 1_555 1_555
C31_42 C33_42 1_555 1_555
C38_42 C39_42 1_555 1_555
O7_37 H46_37 1_555 1_555
Ni2_5 O1_42 1_555 1_555
S1_42 C13_42 1_555 1_555
O1_42 C1_42 1_555 1_555
O2_42 Ni2_5 1_555 1_555
O3_25 C14_25 1_555 1_555
O4_25 C14_25 1_555 1_555
N6_11 C2_42 1_555 1_555
N2_42 C2_42 1_555 1_555
C1_42 O2_42 1_555 1_555
C2_42 C17_42 1_555 1_555
C3_42 C1_42 1_555 1_555
C4_42 H1_42 1_555 1_555
C5_42 C4_42 1_555 1_555
H2_42 C5_42 1_555 1_555
C6_42 C3_42 1_555 1_555
H3_42 C6_42 1_555 1_555
C7_42 N2_42 1_555 1_555
C8_42 C5_42 1_555 1_555
C9_42 N6_11 1_555 1_555
H4_42 C9_42 1_555 1_555
C10_42 N2_42 1_555 1_555
H5_42 C10_42 1_555 1_555
H6_42 C10_42 1_555 1_555
C11_42 C3_42 1_555 1_555
H7_42 C11_42 1_555 1_555
H8_42 C11_42 1_555 1_555
C12_25 C4_42 1_555 1_555
C13_42 C11_42 1_555 1_555
C14_25 C12_25 1_555 1_555
C15_42 C8_42 1_555 1_555
H9_42 C15_42 1_555 1_555
C16_42 C12_25 1_555 1_555
H10_25 C16_42 1_555 1_555
C17_42 H11_42 1_555 1_555
H12_42 C17_42 1_555 1_555
C18_42 C17_42 1_555 1_555
H13_42 C18_42 1_555 1_555
H14_42 C18_42 1_555 1_555
C19_42 C18_42 1_555 1_555
H15_42 C19_42 1_555 1_555
H16_42 C19_42 1_555 1_555
C20_42 C19_42 1_555 1_555
H17_42 C20_42 1_555 1_555
H18_42 C20_42 1_555 1_555
H19_42 C20_42 1_555 1_555
C21_42 C13_42 1_555 1_555
H20_42 C21_42 1_555 1_555
C22_42 S1_42 1_555 1_555
H21_42 C22_42 1_555 1_555
C23_42 C21_42 1_555 1_555
H22_42 C23_42 1_555 1_555
S2_42 C36_42 1_555 1_555
O5_42 Ni2_5 1_555 1_555
O6_42 Ni2_5 1_555 1_555
C24_42 O5_42 1_555 1_555
C26_42 C24_42 1_555 1_555
C34_42 C26_42 1_555 1_555
H30_42 C34_42 1_555 1_555
C36_42 C34_42 1_555 1_555
C44_42 C36_42 1_555 1_555
H42_42 C44_42 1_555 1_555
C45_42 S2_42 1_555 1_555
H43_42 C45_42 1_555 1_555
C46_42 C44_42 1_555 1_555
H44_42 C46_42 1_555 1_555
C6_42 C7_42 1_555 1_555
C7_42 C9_42 1_555 1_555
C8_42 C10_42 1_555 1_555
C15_42 C16_42 1_555 1_555
C22_42 C23_42 1_555 1_555
O6_42 C24_42 1_555 1_555
C45_42 C46_42 1_555 1_555
O3_25 H45_25 1_555 1_555
Ni3_14 O1_43 1_555 1_555
S1_43 C13_43 1_555 1_555
O1_43 C1_43 1_555 1_555
O2_43 Ni3_14 1_555 1_555
O3_26 C14_26 1_555 1_555
O4_26 C14_26 1_555 1_555
N6 C2_43 1_555 1_555
N2_43 C2_43 1_555 1_555
C1_43 O2_43 1_555 1_555
C2_43 C17_43 1_555 1_555
C3_43 C1_43 1_555 1_555
C4_43 H1_43 1_555 1_555
C5_43 C4_43 1_555 1_555
H2_43 C5_43 1_555 1_555
C6_43 C3_43 1_555 1_555
H3_43 C6_43 1_555 1_555
C7_43 N2_43 1_555 1_555
C8_43 C5_43 1_555 1_555
C9_43 N6 1_555 1_555
H4_43 C9_43 1_555 1_555
C10_43 N2_43 1_555 1_555
H5_43 C10_43 1_555 1_555
H6_43 C10_43 1_555 1_555
C11_43 C3_43 1_555 1_555
H7_43 C11_43 1_555 1_555
H8_43 C11_43 1_555 1_555
C12_26 C4_43 1_555 1_555
C13_43 C11_43 1_555 1_555
C14_26 C12_26 1_555 1_555
C15_43 C8_43 1_555 1_555
H9_43 C15_43 1_555 1_555
C16_43 C12_26 1_555 1_555
H10_26 C16_43 1_555 1_555
C17_43 H11_43 1_555 1_555
H12_43 C17_43 1_555 1_555
C18_43 C17_43 1_555 1_555
H13_43 C18_43 1_555 1_555
H14_43 C18_43 1_555 1_555
C19_43 C18_43 1_555 1_555
H15_43 C19_43 1_555 1_555
H16_43 C19_43 1_555 1_555
C20_43 C19_43 1_555 1_555
H17_43 C20_43 1_555 1_555
H18_43 C20_43 1_555 1_555
H19_43 C20_43 1_555 1_555
C21_43 C13_43 1_555 1_555
H20_43 C21_43 1_555 1_555
C22_43 S1_43 1_555 1_555
H21_43 C22_43 1_555 1_555
C23_43 C21_43 1_555 1_555
H22_43 C23_43 1_555 1_555
S2_43 C36_43 1_555 1_555
O5_43 Ni3_14 1_555 1_555
O6_43 Ni3_14 1_555 1_555
O7_38 C37_38 1_555 1_555
O8_38 C37_38 1_555 1_555
N5_10 C25_43 1_555 1_555
N4_43 C25_43 1_555 1_555
C24_43 O5_43 1_555 1_555
C25_43 C40_43 1_555 1_555
C26_43 C24_43 1_555 1_555
C27_43 H23_43 1_555 1_555
C28_43 C27_43 1_555 1_555
H24_43 C28_43 1_555 1_555
C29_43 C26_43 1_555 1_555
H25_43 C29_43 1_555 1_555
C30_43 N4_43 1_555 1_555
C31_43 C28_43 1_555 1_555
C32_43 N5_10 1_555 1_555
H26_43 C32_43 1_555 1_555
C33_43 N4_43 1_555 1_555
H27_43 C33_43 1_555 1_555
H28_43 C33_43 1_555 1_555
C34_43 C26_43 1_555 1_555
H29_43 C34_43 1_555 1_555
H30_43 C34_43 1_555 1_555
C35_38 C27_43 1_555 1_555
C36_43 C34_43 1_555 1_555
C37_38 C35_38 1_555 1_555
C38_43 C31_43 1_555 1_555
H31_43 C38_43 1_555 1_555
C39_43 C35_38 1_555 1_555
H32_38 C39_43 1_555 1_555
C40_43 H33_43 1_555 1_555
H34_43 C40_43 1_555 1_555
C41_43 C40_43 1_555 1_555
H35_43 C41_43 1_555 1_555
H36_43 C41_43 1_555 1_555
C42_43 C41_43 1_555 1_555
H37_43 C42_43 1_555 1_555
H38_43 C42_43 1_555 1_555
C43_43 C42_43 1_555 1_555
H39_43 C43_43 1_555 1_555
H40_43 C43_43 1_555 1_555
H41_43 C43_43 1_555 1_555
C44_43 C36_43 1_555 1_555
H42_43 C44_43 1_555 1_555
C45_43 S2_43 1_555 1_555
H43_43 C45_43 1_555 1_555
C46_43 C44_43 1_555 1_555
H44_43 C46_43 1_555 1_555
C6_43 C7_43 1_555 1_555
C7_43 C9_43 1_555 1_555
C8_43 C10_43 1_555 1_555
C15_43 C16_43 1_555 1_555
C22_43 C23_43 1_555 1_555
O6_43 C24_43 1_555 1_555
C29_43 C30_43 1_555 1_555
C30_43 C32_43 1_555 1_555
C31_43 C33_43 1_555 1_555
C38_43 C39_43 1_555 1_555
C45_43 C46_43 1_555 1_555
O3_26 H45_26 1_555 1_555
O7_38 H46_38 1_555 1_555
O3_27 C14_27 1_555 1_555
O4_27 C14_27 1_555 1_555
N6_2 C2_44 1_555 1_555
N2_44 C2_44 1_555 1_555
C2_44 C17_44 1_555 1_555
C4_44 H1_44 1_555 1_555
C5_44 C4_44 1_555 1_555
H2_44 C5_44 1_555 1_555
C7_44 N2_44 1_555 1_555
C8_44 C5_44 1_555 1_555
C9_44 N6_2 1_555 1_555
H4_44 C9_44 1_555 1_555
C10_44 N2_44 1_555 1_555
H5_44 C10_44 1_555 1_555
H6_44 C10_44 1_555 1_555
C12_27 C4_44 1_555 1_555
C14_27 C12_27 1_555 1_555
C15_44 C8_44 1_555 1_555
H9_44 C15_44 1_555 1_555
C16_44 C12_27 1_555 1_555
H10_27 C16_44 1_555 1_555
C17_44 H11_44 1_555 1_555
H12_44 C17_44 1_555 1_555
C18_44 C17_44 1_555 1_555
H13_44 C18_44 1_555 1_555
H14_44 C18_44 1_555 1_555
C19_44 C18_44 1_555 1_555
H15_44 C19_44 1_555 1_555
H16_44 C19_44 1_555 1_555
C20_44 C19_44 1_555 1_555
H17_44 C20_44 1_555 1_555
H18_44 C20_44 1_555 1_555
H19_44 C20_44 1_555 1_555
C6_44 C7_44 1_555 1_555
C7_44 C9_44 1_555 1_555
C8_44 C10_44 1_555 1_555
C15_44 C16_44 1_555 1_555
O3_27 H45_27 1_555 1_555
Ni3_6 O1_44 1_555 1_555
S1_44 C13_44 1_555 1_555
O1_44 C1_44 1_555 1_555
O2_44 Ni3_6 1_555 1_555
C1_44 O2_44 1_555 1_555
C3_44 C1_44 1_555 1_555
C11_44 C3_44 1_555 1_555
H8_44 C11_44 1_555 1_555
C13_44 C11_44 1_555 1_555
C21_44 C13_44 1_555 1_555
H20_44 C21_44 1_555 1_555
C22_44 S1_44 1_555 1_555
H21_44 C22_44 1_555 1_555
C23_44 C21_44 1_555 1_555
H22_44 C23_44 1_555 1_555
S2_44 C36_44 1_555 1_555
O5_44 Ni3_6 1_555 1_555
O6_44 Ni3_6 1_555 1_555
O7_39 C37_39 1_555 1_555
O8_39 C37_39 1_555 1_555
N5_17 C25_44 1_555 1_555
N4_44 C25_44 1_555 1_555
C24_44 O5_44 1_555 1_555
C25_44 C40_44 1_555 1_555
C26_44 C24_44 1_555 1_555
C27_44 H23_44 1_555 1_555
C28_44 C27_44 1_555 1_555
H24_44 C28_44 1_555 1_555
C29_44 C26_44 1_555 1_555
H25_44 C29_44 1_555 1_555
C30_44 N4_44 1_555 1_555
C31_44 C28_44 1_555 1_555
C32_44 N5_17 1_555 1_555
H26_44 C32_44 1_555 1_555
C33_44 N4_44 1_555 1_555
H27_44 C33_44 1_555 1_555
H28_44 C33_44 1_555 1_555
C34_44 C26_44 1_555 1_555
H29_44 C34_44 1_555 1_555
H30_44 C34_44 1_555 1_555
C35_39 C27_44 1_555 1_555
C36_44 C34_44 1_555 1_555
C37_39 C35_39 1_555 1_555
C38_44 C31_44 1_555 1_555
H31_44 C38_44 1_555 1_555
C39_44 C35_39 1_555 1_555
H32_39 C39_44 1_555 1_555
C40_44 H33_44 1_555 1_555
H34_44 C40_44 1_555 1_555
C41_44 C40_44 1_555 1_555
H35_44 C41_44 1_555 1_555
H36_44 C41_44 1_555 1_555
C42_44 C41_44 1_555 1_555
H37_44 C42_44 1_555 1_555
H38_44 C42_44 1_555 1_555
C43_44 C42_44 1_555 1_555
H39_44 C43_44 1_555 1_555
H40_44 C43_44 1_555 1_555
H41_44 C43_44 1_555 1_555
C44_44 C36_44 1_555 1_555
H42_44 C44_44 1_555 1_555
C45_44 S2_44 1_555 1_555
H43_44 C45_44 1_555 1_555
C46_44 C44_44 1_555 1_555
H44_44 C46_44 1_555 1_555
C22_44 C23_44 1_555 1_555
O6_44 C24_44 1_555 1_555
C29_44 C30_44 1_555 1_555
C30_44 C32_44 1_555 1_555
C31_44 C33_44 1_555 1_555
C38_44 C39_44 1_555 1_555
C45_44 C46_44 1_555 1_555
O7_39 H46_39 1_555 1_555
Ni2_2 O1_45 1_555 1_555
S1_45 C13_45 1_555 1_555
O1_45 C1_45 1_555 1_555
O2_45 Ni2_2 1_555 1_555
O3_28 C14_28 1_555 1_555
O4_28 C14_28 1_555 1_555
N6_4 C2_45 1_555 1_555
N2_45 C2_45 1_555 1_555
C1_45 O2_45 1_555 1_555
C2_45 C17_45 1_555 1_555
C3_45 C1_45 1_555 1_555
C4_45 H1_45 1_555 1_555
C5_45 C4_45 1_555 1_555
H2_45 C5_45 1_555 1_555
C6_45 C3_45 1_555 1_555
H3_45 C6_45 1_555 1_555
C7_45 N2_45 1_555 1_555
C8_45 C5_45 1_555 1_555
C9_45 N6_4 1_555 1_555
H4_45 C9_45 1_555 1_555
C10_45 N2_45 1_555 1_555
H5_45 C10_45 1_555 1_555
H6_45 C10_45 1_555 1_555
C11_45 C3_45 1_555 1_555
H7_45 C11_45 1_555 1_555
H8_45 C11_45 1_555 1_555
C12_28 C4_45 1_555 1_555
C13_45 C11_45 1_555 1_555
C14_28 C12_28 1_555 1_555
C15_45 C8_45 1_555 1_555
H9_45 C15_45 1_555 1_555
C16_45 C12_28 1_555 1_555
H10_28 C16_45 1_555 1_555
C17_45 H11_45 1_555 1_555
H12_45 C17_45 1_555 1_555
C18_45 C17_45 1_555 1_555
H13_45 C18_45 1_555 1_555
H14_45 C18_45 1_555 1_555
C19_45 C18_45 1_555 1_555
H15_45 C19_45 1_555 1_555
H16_45 C19_45 1_555 1_555
C20_45 C19_45 1_555 1_555
H17_45 C20_45 1_555 1_555
H18_45 C20_45 1_555 1_555
H19_45 C20_45 1_555 1_555
C21_45 C13_45 1_555 1_555
H20_45 C21_45 1_555 1_555
C22_45 S1_45 1_555 1_555
H21_45 C22_45 1_555 1_555
C23_45 C21_45 1_555 1_555
H22_45 C23_45 1_555 1_555
S2_45 C36_45 1_555 1_555
O5_45 Ni2_2 1_555 1_555
O6_45 Ni2_2 1_555 1_555
O7_40 C37_40 1_555 1_555
O8_40 C37_40 1_555 1_555
N5_20 C25_45 1_555 1_555
N4_45 C25_45 1_555 1_555
C24_45 O5_45 1_555 1_555
C25_45 C40_45 1_555 1_555
C26_45 C24_45 1_555 1_555
C27_45 H23_45 1_555 1_555
C28_45 C27_45 1_555 1_555
H24_45 C28_45 1_555 1_555
C29_45 C26_45 1_555 1_555
H25_45 C29_45 1_555 1_555
C30_45 N4_45 1_555 1_555
C31_45 C28_45 1_555 1_555
C32_45 N5_20 1_555 1_555
H26_45 C32_45 1_555 1_555
C33_45 N4_45 1_555 1_555
H27_45 C33_45 1_555 1_555
H28_45 C33_45 1_555 1_555
C34_45 C26_45 1_555 1_555
H29_45 C34_45 1_555 1_555
H30_45 C34_45 1_555 1_555
C35_40 C27_45 1_555 1_555
C36_45 C34_45 1_555 1_555
C37_40 C35_40 1_555 1_555
C38_45 C31_45 1_555 1_555
H31_45 C38_45 1_555 1_555
C39_45 C35_40 1_555 1_555
H32_40 C39_45 1_555 1_555
C40_45 H33_45 1_555 1_555
H34_45 C40_45 1_555 1_555
C41_45 C40_45 1_555 1_555
H35_45 C41_45 1_555 1_555
H36_45 C41_45 1_555 1_555
C42_45 C41_45 1_555 1_555
H37_45 C42_45 1_555 1_555
H38_45 C42_45 1_555 1_555
C43_45 C42_45 1_555 1_555
H39_45 C43_45 1_555 1_555
H40_45 C43_45 1_555 1_555
H41_45 C43_45 1_555 1_555
C44_45 C36_45 1_555 1_555
H42_45 C44_45 1_555 1_555
C45_45 S2_45 1_555 1_555
H43_45 C45_45 1_555 1_555
C46_45 C44_45 1_555 1_555
H44_45 C46_45 1_555 1_555
C6_45 C7_45 1_555 1_555
C7_45 C9_45 1_555 1_555
C8_45 C10_45 1_555 1_555
C15_45 C16_45 1_555 1_555
C22_45 C23_45 1_555 1_555
O6_45 C24_45 1_555 1_555
C29_45 C30_45 1_555 1_555
C30_45 C32_45 1_555 1_555
C31_45 C33_45 1_555 1_555
C38_45 C39_45 1_555 1_555
C45_45 C46_45 1_555 1_555
O3_28 H45_28 1_555 1_555
O7_40 H46_40 1_555 1_555
O7_41 C37_41 1_555 1_555
O8_41 C37_41 1_555 1_555
N6_7 C25_46 1_555 1_555
N4_46 C25_46 1_555 1_555
C25_46 C40_46 1_555 1_555
C27_46 H23_46 1_555 1_555
C28_46 C27_46 1_555 1_555
H24_46 C28_46 1_555 1_555
C30_46 N4_46 1_555 1_555
C31_46 C28_46 1_555 1_555
C32_46 N6_7 1_555 1_555
H26_46 C32_46 1_555 1_555
C33_46 N4_46 1_555 1_555
H27_46 C33_46 1_555 1_555
H28_46 C33_46 1_555 1_555
C35_41 C27_46 1_555 1_555
C37_41 C35_41 1_555 1_555
C38_46 C31_46 1_555 1_555
H31_46 C38_46 1_555 1_555
C39_46 C35_41 1_555 1_555
H32_41 C39_46 1_555 1_555
C40_46 H33_46 1_555 1_555
H34_46 C40_46 1_555 1_555
C41_46 C40_46 1_555 1_555
H35_46 C41_46 1_555 1_555
H36_46 C41_46 1_555 1_555
C42_46 C41_46 1_555 1_555
H37_46 C42_46 1_555 1_555
H38_46 C42_46 1_555 1_555
C43_46 C42_46 1_555 1_555
H39_46 C43_46 1_555 1_555
H40_46 C43_46 1_555 1_555
H41_46 C43_46 1_555 1_555
C29_46 C30_46 1_555 1_555
C30_46 C32_46 1_555 1_555
C31_46 C33_46 1_555 1_555
C38_46 C39_46 1_555 1_555
O7_41 H46_41 1_555 1_555
Ni3_13 O1_46 1_555 1_555
S1_46 C13_46 1_555 1_555
O1_46 C1_46 1_555 1_555
O2_46 Ni3_13 1_555 1_555
O3_29 C14_29 1_555 1_555
O4_29 C14_29 1_555 1_555
N5_21 C2_46 1_555 1_555
N2_46 C2_46 1_555 1_555
C1_46 O2_46 1_555 1_555
C2_46 C17_46 1_555 1_555
C3_46 C1_46 1_555 1_555
C4_46 H1_46 1_555 1_555
C5_46 C4_46 1_555 1_555
H2_46 C5_46 1_555 1_555
C6_46 C3_46 1_555 1_555
H3_46 C6_46 1_555 1_555
C7_46 N2_46 1_555 1_555
C8_46 C5_46 1_555 1_555
C9_46 N5_21 1_555 1_555
H4_46 C9_46 1_555 1_555
C10_46 N2_46 1_555 1_555
H5_46 C10_46 1_555 1_555
H6_46 C10_46 1_555 1_555
C11_46 C3_46 1_555 1_555
H7_46 C11_46 1_555 1_555
H8_46 C11_46 1_555 1_555
C12_29 C4_46 1_555 1_555
C13_46 C11_46 1_555 1_555
C14_29 C12_29 1_555 1_555
C15_46 C8_46 1_555 1_555
H9_46 C15_46 1_555 1_555
C16_46 C12_29 1_555 1_555
H10_29 C16_46 1_555 1_555
C17_46 H11_46 1_555 1_555
H12_46 C17_46 1_555 1_555
C18_46 C17_46 1_555 1_555
H13_46 C18_46 1_555 1_555
H14_46 C18_46 1_555 1_555
C19_46 C18_46 1_555 1_555
H15_46 C19_46 1_555 1_555
H16_46 C19_46 1_555 1_555
C20_46 C19_46 1_555 1_555
H17_46 C20_46 1_555 1_555
H18_46 C20_46 1_555 1_555
H19_46 C20_46 1_555 1_555
C21_46 C13_46 1_555 1_555
H20_46 C21_46 1_555 1_555
C22_46 S1_46 1_555 1_555
H21_46 C22_46 1_555 1_555
C23_46 C21_46 1_555 1_555
H22_46 C23_46 1_555 1_555
S2_46 C36_46 1_555 1_555
O5_46 Ni3_13 1_555 1_555
O6_46 Ni3_13 1_555 1_555
C24_46 O5_46 1_555 1_555
C26_46 C24_46 1_555 1_555
C34_46 C26_46 1_555 1_555
H30_46 C34_46 1_555 1_555
C36_46 C34_46 1_555 1_555
C44_46 C36_46 1_555 1_555
H42_46 C44_46 1_555 1_555
C45_46 S2_46 1_555 1_555
H43_46 C45_46 1_555 1_555
C46_46 C44_46 1_555 1_555
H44_46 C46_46 1_555 1_555
C6_46 C7_46 1_555 1_555
C7_46 C9_46 1_555 1_555
C8_46 C10_46 1_555 1_555
C15_46 C16_46 1_555 1_555
C22_46 C23_46 1_555 1_555
O6_46 C24_46 1_555 1_555
C45_46 C46_46 1_555 1_555
O3_29 H45_29 1_555 1_555
Ni3_7 O1_47 1_555 1_555
S1_47 C13_47 1_555 1_555
O1_47 C1_47 1_555 1_555
O2_47 Ni3_7 1_555 1_555
C1_47 O2_47 1_555 1_555
C3_47 C1_47 1_555 1_555
C11_47 C3_47 1_555 1_555
H8_47 C11_47 1_555 1_555
C13_47 C11_47 1_555 1_555
C21_47 C13_47 1_555 1_555
H20_47 C21_47 1_555 1_555
C22_47 S1_47 1_555 1_555
H21_47 C22_47 1_555 1_555
C23_47 C21_47 1_555 1_555
H22_47 C23_47 1_555 1_555
S2_47 C36_47 1_555 1_555
O5_47 Ni3_7 1_555 1_555
O6_47 Ni3_7 1_555 1_555
N5_18 C25_47 1_555 1_555
N4_47 C25_47 1_555 1_555
C24_47 O5_47 1_555 1_555
C25_47 C40_47 1_555 1_555
C26_47 C24_47 1_555 1_555
C27_47 H23_47 1_555 1_555
C28_47 C27_47 1_555 1_555
H24_47 C28_47 1_555 1_555
C29_47 C26_47 1_555 1_555
H25_47 C29_47 1_555 1_555
C30_47 N4_47 1_555 1_555
C31_47 C28_47 1_555 1_555
C32_47 N5_18 1_555 1_555
H26_47 C32_47 1_555 1_555
C33_47 N4_47 1_555 1_555
H27_47 C33_47 1_555 1_555
H28_47 C33_47 1_555 1_555
C34_47 C26_47 1_555 1_555
H29_47 C34_47 1_555 1_555
H30_47 C34_47 1_555 1_555
C36_47 C34_47 1_555 1_555
C38_47 C31_47 1_555 1_555
H31_47 C38_47 1_555 1_555
C40_47 H33_47 1_555 1_555
H34_47 C40_47 1_555 1_555
C41_47 C40_47 1_555 1_555
H35_47 C41_47 1_555 1_555
H36_47 C41_47 1_555 1_555
C42_47 C41_47 1_555 1_555
H37_47 C42_47 1_555 1_555
H38_47 C42_47 1_555 1_555
C43_47 C42_47 1_555 1_555
H39_47 C43_47 1_555 1_555
H40_47 C43_47 1_555 1_555
H41_47 C43_47 1_555 1_555
C44_47 C36_47 1_555 1_555
H42_47 C44_47 1_555 1_555
C45_47 S2_47 1_555 1_555
H43_47 C45_47 1_555 1_555
C46_47 C44_47 1_555 1_555
H44_47 C46_47 1_555 1_555
C22_47 C23_47 1_555 1_555
O6_47 C24_47 1_555 1_555
C29_47 C30_47 1_555 1_555
C30_47 C32_47 1_555 1_555
C31_47 C33_47 1_555 1_555
C38_47 C39_47 1_555 1_555
C45_47 C46_47 1_555 1_555
O3_30 C14_30 1_555 1_555
O4_30 C14_30 1_555 1_555
N6_13 C2_47 1_555 1_555
N2_47 C2_47 1_555 1_555
C2_47 C17_47 1_555 1_555
C4_47 H1_47 1_555 1_555
C5_47 C4_47 1_555 1_555
H2_47 C5_47 1_555 1_555
C7_47 N2_47 1_555 1_555
C8_47 C5_47 1_555 1_555
C9_47 N6_13 1_555 1_555
H4_47 C9_47 1_555 1_555
C10_47 N2_47 1_555 1_555
H5_47 C10_47 1_555 1_555
H6_47 C10_47 1_555 1_555
C12_30 C4_47 1_555 1_555
C14_30 C12_30 1_555 1_555
C15_47 C8_47 1_555 1_555
H9_47 C15_47 1_555 1_555
C16_47 C12_30 1_555 1_555
H10_30 C16_47 1_555 1_555
C17_47 H11_47 1_555 1_555
H12_47 C17_47 1_555 1_555
C18_47 C17_47 1_555 1_555
H13_47 C18_47 1_555 1_555
H14_47 C18_47 1_555 1_555
C19_47 C18_47 1_555 1_555
H15_47 C19_47 1_555 1_555
H16_47 C19_47 1_555 1_555
C20_47 C19_47 1_555 1_555
H17_47 C20_47 1_555 1_555
H18_47 C20_47 1_555 1_555
H19_47 C20_47 1_555 1_555
C6_47 C7_47 1_555 1_555
C7_47 C9_47 1_555 1_555
C8_47 C10_47 1_555 1_555
C15_47 C16_47 1_555 1_555
O3_30 H45_30 1_555 1_555
Ni3_2 O1_48 1_555 1_555
S1_48 C13_48 1_555 1_555
O1_48 C1_48 1_555 1_555
O2_48 Ni3_2 1_555 1_555
N5_9 C2_48 1_555 1_555
N2_48 C2_48 1_555 1_555
C1_48 O2_48 1_555 1_555
C2_48 C17_48 1_555 1_555
C3_48 C1_48 1_555 1_555
C4_48 H1_48 1_555 1_555
C5_48 C4_48 1_555 1_555
H2_48 C5_48 1_555 1_555
C6_48 C3_48 1_555 1_555
H3_48 C6_48 1_555 1_555
C7_48 N2_48 1_555 1_555
C8_48 C5_48 1_555 1_555
C9_48 N5_9 1_555 1_555
H4_48 C9_48 1_555 1_555
C10_48 N2_48 1_555 1_555
H5_48 C10_48 1_555 1_555
H6_48 C10_48 1_555 1_555
C11_48 C3_48 1_555 1_555
H7_48 C11_48 1_555 1_555
H8_48 C11_48 1_555 1_555
C13_48 C11_48 1_555 1_555
C15_48 C8_48 1_555 1_555
H9_48 C15_48 1_555 1_555
C17_48 H11_48 1_555 1_555
H12_48 C17_48 1_555 1_555
C18_48 C17_48 1_555 1_555
H13_48 C18_48 1_555 1_555
H14_48 C18_48 1_555 1_555
C19_48 C18_48 1_555 1_555
H15_48 C19_48 1_555 1_555
H16_48 C19_48 1_555 1_555
C20_48 C19_48 1_555 1_555
H17_48 C20_48 1_555 1_555
H18_48 C20_48 1_555 1_555
H19_48 C20_48 1_555 1_555
C21_48 C13_48 1_555 1_555
H20_48 C21_48 1_555 1_555
C22_48 S1_48 1_555 1_555
H21_48 C22_48 1_555 1_555
C23_48 C21_48 1_555 1_555
H22_48 C23_48 1_555 1_555
S2_48 C36_48 1_555 1_555
O5_48 Ni3_2 1_555 1_555
O6_48 Ni3_2 1_555 1_555
C24_48 O5_48 1_555 1_555
C26_48 C24_48 1_555 1_555
C34_48 C26_48 1_555 1_555
H30_48 C34_48 1_555 1_555
C36_48 C34_48 1_555 1_555
C44_48 C36_48 1_555 1_555
H42_48 C44_48 1_555 1_555
C45_48 S2_48 1_555 1_555
H43_48 C45_48 1_555 1_555
C46_48 C44_48 1_555 1_555
H44_48 C46_48 1_555 1_555
C6_48 C7_48 1_555 1_555
C7_48 C9_48 1_555 1_555
C8_48 C10_48 1_555 1_555
C15_48 C16_48 1_555 1_555
C22_48 C23_48 1_555 1_555
O6_48 C24_48 1_555 1_555
C45_48 C46_48 1_555 1_555
O7_42 C37_42 1_555 1_555
O8_42 C37_42 1_555 1_555
N6_6 C25_48 1_555 1_555
N4_48 C25_48 1_555 1_555
C25_48 C40_48 1_555 1_555
C27_48 H23_48 1_555 1_555
C28_48 C27_48 1_555 1_555
H24_48 C28_48 1_555 1_555
C30_48 N4_48 1_555 1_555
C31_48 C28_48 1_555 1_555
C32_48 N6_6 1_555 1_555
H26_48 C32_48 1_555 1_555
C33_48 N4_48 1_555 1_555
H27_48 C33_48 1_555 1_555
H28_48 C33_48 1_555 1_555
C35_42 C27_48 1_555 1_555
C37_42 C35_42 1_555 1_555
C38_48 C31_48 1_555 1_555
H31_48 C38_48 1_555 1_555
C39_48 C35_42 1_555 1_555
H32_42 C39_48 1_555 1_555
C40_48 H33_48 1_555 1_555
H34_48 C40_48 1_555 1_555
C41_48 C40_48 1_555 1_555
H35_48 C41_48 1_555 1_555
H36_48 C41_48 1_555 1_555
C42_48 C41_48 1_555 1_555
H37_48 C42_48 1_555 1_555
H38_48 C42_48 1_555 1_555
C43_48 C42_48 1_555 1_555
H39_48 C43_48 1_555 1_555
H40_48 C43_48 1_555 1_555
H41_48 C43_48 1_555 1_555
C29_48 C30_48 1_555 1_555
C30_48 C32_48 1_555 1_555
C31_48 C33_48 1_555 1_555
C38_48 C39_48 1_555 1_555
O7_42 H46_42 1_555 1_555
O3_31 C14_31 1_555 1_555
O4_31 C14_31 1_555 1_555
C14_31 C12_31 1_555 1_555
O3_31 H45_31 1_555 1_555
O7_43 C37_43 1_555 1_555
O8_43 C37_43 1_555 1_555
C37_43 C35_43 1_555 1_555
O7_43 H46_43 1_555 1_555
O3_32 C14_32 1_555 1_555
O4_32 C14_32 1_555 1_555
C14_32 C12_32 1_555 1_555
O3_32 H45_32 1_555 1_555
O3_33 C14_33 1_555 1_555
O4_33 C14_33 1_555 1_555
C14_33 C12_33 1_555 1_555
O3_33 H45_33 1_555 1_555
O3_34 C14_34 1_555 1_555
O4_34 C14_34 1_555 1_555
C14_34 C12_34 1_555 1_555
O3_34 H45_34 1_555 1_555
O3_35 C14_35 1_555 1_555
O4_35 C14_35 1_555 1_555
C14_35 C12_35 1_555 1_555
O3_35 H45_35 1_555 1_555
O3_36 C14_36 1_555 1_555
O4_36 C14_36 1_555 1_555
C14_36 C12_36 1_555 1_555
O3_36 H45_36 1_555 1_555
O7_44 C37_44 1_555 1_555
O8_44 C37_44 1_555 1_555
C37_44 C35_44 1_555 1_555
O7_44 H46_44 1_555 1_555
O3_37 C14_37 1_555 1_555
O4_37 C14_37 1_555 1_555
C14_37 C12_37 1_555 1_555
O3_37 H45_37 1_555 1_555
O3_38 C14_38 1_555 1_555
O4_38 C14_38 1_555 1_555
C14_38 C12_38 1_555 1_555
O3_38 H45_38 1_555 1_555
O7_45 C37_45 1_555 1_555
O8_45 C37_45 1_555 1_555
C37_45 C35_45 1_555 1_555
O7_45 H46_45 1_555 1_555
O3_39 C14_39 1_555 1_555
O4_39 C14_39 1_555 1_555
C14_39 C12_39 1_555 1_555
O3_39 H45_39 1_555 1_555
O3_40 C14_40 1_555 1_555
O4_40 C14_40 1_555 1_555
C14_40 C12_40 1_555 1_555
O3_40 H45_40 1_555 1_555
O7_46 C37_46 1_555 1_555
O8_46 C37_46 1_555 1_555
C37_46 C35_46 1_555 1_555
O7_46 H46_46 1_555 1_555
O3_41 C14_41 1_555 1_555
O4_41 C14_41 1_555 1_555
C14_41 C12_41 1_555 1_555
O3_41 H45_41 1_555 1_555
O3_42 C14_42 1_555 1_555
O4_42 C14_42 1_555 1_555
C14_42 C12_42 1_555 1_555
O3_42 H45_42 1_555 1_555
O3_43 C14_43 1_555 1_555
O4_43 C14_43 1_555 1_555
C14_43 C12_43 1_555 1_555
O3_43 H45_43 1_555 1_555
O3_44 C14_44 1_555 1_555
O4_44 C14_44 1_555 1_555
C14_44 C12_44 1_555 1_555
O3_44 H45_44 1_555 1_555
O3_45 C14_45 1_555 1_555
O4_45 C14_45 1_555 1_555
C14_45 C12_45 1_555 1_555
O3_45 H45_45 1_555 1_555
O7_47 C37_47 1_555 1_555
O8_47 C37_47 1_555 1_555
C37_47 C35_47 1_555 1_555
O7_47 H46_47 1_555 1_555
O3_46 C14_46 1_555 1_555
O4_46 C14_46 1_555 1_555
C14_46 C12_46 1_555 1_555
O3_46 H45_46 1_555 1_555
O3_47 C14_47 1_555 1_555
O4_47 C14_47 1_555 1_555
C14_47 C12_47 1_555 1_555
O3_47 H45_47 1_555 1_555
O7_48 C37_48 1_555 1_555
O8_48 C37_48 1_555 1_555
C37_48 C35_48 1_555 1_555
O7_48 H46_48 1_555 1_555
O3_48 C14_48 1_555 1_555
O4_48 C14_48 1_555 1_555
C14_48 C12_48 1_555 1_555
O3_48 H45_48 1_555 1_555

#END
