
###############################################################################
#
# This file contains modified crystal structure data generated from the
# MOF subset of the Cambridge Structural Database (CSD) v543 
# hosted by the Cambridge Crystallographic Data Centre (CCDC).
#
# This work is licensed under the Creative Commons
# Attribution-NonCommercial-ShareAlike 4.0 International License.
# To view a copy of this license, visit
# http://creativecommons.org/licenses/by-nc-sa/4.0/
# or send a letter to
# Creative Commons, PO Box 1866, Mountain View, CA 94042, USA.
#
# CIF created using the CSD Python API on 29 September 2022
# The structure has been converted into the P1 space group
# The structure has a 3D framework
# The original CSD entry INIQIH is in the monoclinic crystal system
# The framework has been calculated to contain at least 10.0% void space
# The void calculation uses a probe of radius 1.32A, grid spacing 0.4
#
###############################################################################

data_INIQIH
_chemical_formula_moiety         '(C108 H68 Cd3 N4 O24)n'
_symmetry_cell_setting           triclinic
_symmetry_space_group_name_H-M   'P 1'
_symmetry_Int_Tables_number      1
_space_group_name_Hall           'P 1'
loop_
_symmetry_equiv_pos_site_id
_symmetry_equiv_pos_as_xyz
1 x,y,z
_cell_length_a                   13.3405(13)
_cell_length_b                   9.3835(12)
_cell_length_c                   23.3073(13)
_cell_angle_alpha                90
_cell_angle_beta                 94.221(3)
_cell_angle_gamma                90
_cell_volume                     2909.71
loop_
_atom_site_label
_atom_site_type_symbol
_atom_site_fract_x
_atom_site_fract_y
_atom_site_fract_z
Cd1 Cd 0.02780(2) 0.34841(3) 0.454130(12)
Cd2 Cd 0.0000 0.0000 0.5000
Cd5 Cd 0.47220(2) 0.34841(3) 0.045870(12)
Cd14 Cd 0.5000 0.0000 0.0000
O13 O 0.0613(3) 0.5861(4) 0.45868(14)
O16 O 0.1580(2) 0.3189(3) 0.51548(13)
O18 O 0.1285(3) 0.1002(4) 0.54932(16)
O21 O 0.1161(3) 0.2672(4) 0.36841(15)
O24 O 0.0370(3) 0.1091(4) 0.42056(16)
C41 C 0.0448(4) 0.2543(5) 0.8449(2)
C42 C 0.0989(4) 0.3689(6) 0.8622(2)
H27 H 0.0813 0.4549 0.8494
C43 C 0.1930(4) 0.3573(6) 0.8962(2)
H28 H 0.2298 0.4384 0.9071
C44 C 0.2268(4) 0.2268(5) 0.9120(2)
C45 C 0.1742(4) 0.1068(6) 0.8946(2)
H29 H 0.1996 0.0171 0.9045
C46 C 0.0815(4) 0.1197(6) 0.8619(2)
H30 H 0.0445 0.0385 0.8515
C47 C 0.3196(4) 0.2091(5) 0.9527(2)
H33 H 0.0137 0.0989 0.6358
H34 H 0.0188 0.2646 0.7090
O9 O 0.3420(2) 0.3189(3) 0.98452(13)
O10 O 0.3715(3) 0.1002(4) 0.95068(16)
Cd14_2 Cd 0.5000 0.0000 1.0000
Cd2_2 Cd 0.0000 1.0000 0.5000
Cd14_3 Cd 0.5000 1.0000 0.0000
O15 O 0.0989(2) 0.7955(4) 0.49511(13)
Cd14_4 Cd 0.5000 1.0000 1.0000
C1 C 0.5559(3) 0.2778(6) 0.6898(2)
H1 H 0.5547 0.3717 0.7082
C2 C 0.6434(4) 0.2745(5) 0.64977(19)
C3 C 0.6447(4) 0.1883(5) 0.6027(2)
H2 H 0.5921 0.1251 0.5939
C4 C 0.7266(4) 0.1952(6) 0.5671(2)
H3 H 0.7281 0.1349 0.5355
C5 C 0.8031(3) 0.2902(5) 0.5791(2)
C6 C 0.8025(4) 0.3743(6) 0.6276(2)
H4 H 0.8558 0.4358 0.6373
C7 C 0.7212(4) 0.3667(6) 0.6624(2)
H5 H 0.7202 0.4252 0.6946
C8 C 0.8839(4) 0.3053(5) 0.5385(2)
C9 C 0.4552(4) 0.2543(5) 0.6551(2)
C10 C 0.4011(4) 0.3689(6) 0.6378(2)
H6 H 0.4187 0.4549 0.6506
C11 C 0.3070(4) 0.3573(6) 0.6038(2)
H7 H 0.2702 0.4384 0.5929
C12 C 0.2732(4) 0.2268(5) 0.5880(2)
C13 C 0.3258(4) 0.1068(6) 0.6054(2)
H8 H 0.3004 0.0171 0.5955
C14 C 0.4185(4) 0.1197(6) 0.6381(2)
H9 H 0.4555 0.0385 0.6485
C15 C 0.1804(4) 0.2091(5) 0.5473(2)
C16 C 0.5712(3) 0.1611(5) 0.7380(2)
C17 C 0.6259(4) 0.0393(5) 0.7344(2)
H10 H 0.6629 0.0252 0.7026
C20 C 0.5212(4) 0.0831(6) 0.8317(2)
H12 H 0.4863 0.0989 0.8642
C21 C 0.5187(4) 0.1818(5) 0.7877(2)
H13 H 0.4812 0.2646 0.7910
C23 C 0.9049(4) 0.4924(6) 0.3472(2)
H14 H 0.9457 0.5698 0.3577
C24 C 0.8386(4) 0.4950(6) 0.2960(2)
H15 H 0.8357 0.5784 0.2743
C25 C 0.7819(4) 0.3891(6) 0.2775(2)
C26 C 0.7858(4) 0.2642(6) 0.3137(2)
H16 H 0.7469 0.1844 0.3040
C27 C 0.8467(4) 0.2667(6) 0.3615(2)
H17 H 0.8485 0.1863 0.3849
Cd2_3 Cd 1.0000 0.0000 0.5000
N1 N 0.9058(4) 0.3768(5) 0.37837(19)
O1 O 0.9387(3) 0.4139(4) 0.54132(14)
O2 O 0.9011(2) 0.2045(4) 0.50489(13)
C28 C 0.5951(4) 0.4924(6) 0.1528(2)
H18 H 0.5543 0.5698 0.1423
C29 C 0.6614(4) 0.4950(6) 0.2040(2)
H19 H 0.6643 0.5784 0.2257
C30 C 0.7181(4) 0.3891(6) 0.2225(2)
C31 C 0.7142(4) 0.2642(6) 0.1863(2)
H20 H 0.7531 0.1844 0.1960
C32 C 0.6533(4) 0.2667(6) 0.1385(2)
H21 H 0.6515 0.1863 0.1151
N2 N 0.5942(4) 0.3768(5) 0.12163(19)
Cd7 Cd 0.97220(2) 0.65159(3) 0.545870(12)
O14 O 0.4387(3) 0.5861(4) 0.04132(14)
O20 O 0.3839(3) 0.2672(4) 0.13159(15)
O23 O 0.4630(3) 0.1091(4) 0.07944(16)
C33 C 0.9441(3) 0.2778(6) 0.8102(2)
H22 H 0.9453 0.3717 0.7918
C34 C 0.8566(4) 0.2745(5) 0.85023(19)
C35 C 0.8553(4) 0.1883(5) 0.8973(2)
H23 H 0.9079 0.1251 0.9061
C36 C 0.7734(4) 0.1952(6) 0.9329(2)
H24 H 0.7719 0.1349 0.9645
C37 C 0.6969(3) 0.2902(5) 0.9209(2)
C38 C 0.6975(4) 0.3743(6) 0.8724(2)
H25 H 0.6442 0.4358 0.8627
C39 C 0.7788(4) 0.3667(6) 0.8376(2)
H26 H 0.7798 0.4252 0.8054
C40 C 0.6161(4) 0.3053(5) 0.9615(2)
C48 C 0.9288(3) 0.1611(5) 0.7620(2)
C49 C 0.8741(4) 0.0393(5) 0.7656(2)
H31 H 0.8371 0.0252 0.7974
C52 C 0.9788(4) 0.0831(6) 0.6683(2)
C53 C 0.9813(4) 0.1818(5) 0.7123(2)
O7 O 0.5613(3) 0.4139(4) 0.95868(14)
O8 O 0.5989(2) 0.2045(4) 0.99511(13)
Cd9 Cd 0.52780(2) 0.65159(3) 0.954130(12)
C18 C 0.6279(4) 0.9342(6) 0.7776(2)
H11 H 0.6626 0.8493 0.7737
C19 C 0.5765(4) 0.9609(6) 0.8262(2)
C22 C 0.5820(4) 0.8540(5) 0.8739(2)
Cd2_4 Cd 1.0000 1.0000 0.5000
O5 O 0.6161(3) 0.7328(4) 0.86841(15)
O6 O 0.5370(3) 0.8909(4) 0.92056(16)
O19 O 0.8715(3) 0.8998(4) 0.45068(16)
O22 O 0.9630(3) 0.8909(4) 0.57944(16)
C50 C 0.8721(4) 0.9342(6) 0.7224(2)
H32 H 0.8374 0.8493 0.7263
C51 C 0.9235(4) 0.9609(6) 0.6738(2)
C54 C 0.9180(4) 0.8540(5) 0.6261(2)
O11 O 0.8839(3) 0.7328(4) 0.63159(15)
O15_2 O 0.4011(2) 0.7955(4) 0.00489(13)
O19_2 O 0.6285(3) 0.8998(4) 0.04932(16)
C50_2 C 0.1279(4) 0.0658(6) 0.2776(2)
H32_2 H 0.1626 0.1507 0.2737
C51_2 C 0.0765(4) 0.0391(6) 0.3262(2)
C54_2 C 0.0820(4) 0.1460(5) 0.3739(2)
C18_2 C 0.3721(4) 0.0658(6) 0.2224(2)
H11_2 H 0.3374 0.1507 0.2263
C19_2 C 0.4235(4) 0.0391(6) 0.1738(2)
C22_2 C 0.4180(4) 0.1460(5) 0.1261(2)
C33_2 C 0.0559(3) 0.7222(6) 0.1898(2)
H22_2 H 0.0547 0.6283 0.2082
C34_2 C 0.1434(4) 0.7255(5) 0.14977(19)
C35_2 C 0.1447(4) 0.8117(5) 0.1027(2)
H23_2 H 0.0921 0.8749 0.0939
C36_2 C 0.2266(4) 0.8048(6) 0.0671(2)
H24_2 H 0.2281 0.8651 0.0355
C37_2 C 0.3031(3) 0.7098(5) 0.0791(2)
C38_2 C 0.3025(4) 0.6257(6) 0.1276(2)
H25_2 H 0.3558 0.5642 0.1373
C39_2 C 0.2212(4) 0.6333(6) 0.1624(2)
H26_2 H 0.2202 0.5748 0.1946
C40_2 C 0.3839(4) 0.6947(5) 0.0385(2)
C48_2 C 0.0712(3) 0.8389(5) 0.2380(2)
C49_2 C 0.1259(4) 0.9607(5) 0.2344(2)
H31_2 H 0.1629 0.9748 0.2026
C52_2 C 0.0212(4) 0.9169(6) 0.3317(2)
C53_2 C 0.0187(4) 0.8182(5) 0.2877(2)
O17 O 0.6580(2) 0.6811(3) 0.01548(13)
C1_2 C 0.4441(3) 0.7222(6) 0.3102(2)
H1_2 H 0.4453 0.6283 0.2918
C2_2 C 0.3566(4) 0.7255(5) 0.35023(19)
C3_2 C 0.3553(4) 0.8117(5) 0.3973(2)
H2_2 H 0.4079 0.8749 0.4061
C4_2 C 0.2734(4) 0.8048(6) 0.4329(2)
H3_2 H 0.2719 0.8651 0.4645
C5_2 C 0.1969(3) 0.7098(5) 0.4209(2)
C6_2 C 0.1975(4) 0.6257(6) 0.3724(2)
H4_2 H 0.1442 0.5642 0.3627
C7_2 C 0.2788(4) 0.6333(6) 0.3376(2)
H5_2 H 0.2798 0.5748 0.3054
C8_2 C 0.1161(4) 0.6947(5) 0.4615(2)
C9_2 C 0.5448(4) 0.7457(5) 0.3449(2)
C10_2 C 0.5989(4) 0.6311(6) 0.3622(2)
H6_2 H 0.5813 0.5451 0.3494
C11_2 C 0.6930(4) 0.6427(6) 0.3962(2)
H7_2 H 0.7298 0.5616 0.4071
C12_2 C 0.7268(4) 0.7732(5) 0.4120(2)
C13_2 C 0.6742(4) 0.8932(6) 0.3946(2)
H8_2 H 0.6996 0.9829 0.4045
C14_2 C 0.5815(4) 0.8803(6) 0.3619(2)
H9_2 H 0.5445 0.9615 0.3515
C15_2 C 0.8196(4) 0.7909(5) 0.4527(2)
C16_2 C 0.4288(3) 0.8389(5) 0.2620(2)
C17_2 C 0.3741(4) 0.9607(5) 0.2656(2)
H10_2 H 0.3371 0.9748 0.2974
C20_2 C 0.4788(4) 0.9169(6) 0.1683(2)
H12_2 H 0.5137 0.9011 0.1358
C21_2 C 0.4813(4) 0.8182(5) 0.2123(2)
H13_2 H 0.5188 0.7354 0.2090
C23_2 C 0.0951(4) 0.5076(6) 0.6528(2)
H14_2 H 0.0543 0.4302 0.6423
C24_2 C 0.1614(4) 0.5050(6) 0.7040(2)
H15_2 H 0.1643 0.4216 0.7257
C25_2 C 0.2181(4) 0.6109(6) 0.7225(2)
C26_2 C 0.2142(4) 0.7358(6) 0.6863(2)
H16_2 H 0.2531 0.8156 0.6960
C27_2 C 0.1533(4) 0.7333(6) 0.6385(2)
H17_2 H 0.1515 0.8137 0.6151
N1_2 N 0.0942(4) 0.6232(5) 0.62163(19)
O3 O 0.8420(2) 0.6811(3) 0.48452(13)
C28_2 C 0.4049(4) 0.5076(6) 0.8472(2)
H18_2 H 0.4457 0.4302 0.8577
C29_2 C 0.3386(4) 0.5050(6) 0.7960(2)
H19_2 H 0.3357 0.4216 0.7743
C30_2 C 0.2819(4) 0.6109(6) 0.7775(2)
C31_2 C 0.2858(4) 0.7358(6) 0.8137(2)
H20_2 H 0.2469 0.8156 0.8040
C32_2 C 0.3467(4) 0.7333(6) 0.8615(2)
H21_2 H 0.3485 0.8137 0.8849
N2_2 N 0.4058(4) 0.6232(5) 0.87837(19)
C41_2 C 0.9552(4) 0.7457(5) 0.1551(2)
C42_2 C 0.9011(4) 0.6311(6) 0.1378(2)
H27_2 H 0.9187 0.5451 0.1506
C43_2 C 0.8070(4) 0.6427(6) 0.1038(2)
H28_2 H 0.7702 0.5616 0.0929
C44_2 C 0.7732(4) 0.7732(5) 0.0880(2)
C45_2 C 0.8258(4) 0.8932(6) 0.1054(2)
H29_2 H 0.8004 0.9829 0.0955
C46_2 C 0.9185(4) 0.8803(6) 0.1381(2)
H30_2 H 0.9555 0.9615 0.1485
C47_2 C 0.6804(4) 0.7909(5) 0.0473(2)
H33_2 H 0.9863 0.9011 0.3642
H34_2 H 0.9812 0.7354 0.2910
loop_
_geom_bond_atom_site_label_1
_geom_bond_atom_site_label_2
_geom_bond_site_symmetry_1
_geom_bond_site_symmetry_2
O13 Cd1 1_555 1_555
O16 Cd1 1_555 1_555
O18 Cd2 1_555 1_555
O21 Cd1 1_555 1_555
O24 Cd1 1_555 1_555
Cd2 O24 1_555 1_555
C42 C41 1_555 1_555
H27 C42 1_555 1_555
C43 C42 1_555 1_555
H28 C43 1_555 1_555
C44 C43 1_555 1_555
C45 C44 1_555 1_555
H29 C45 1_555 1_555
C46 C41 1_555 1_555
H30 C46 1_555 1_555
C47 C44 1_555 1_555
O9 C47 1_555 1_555
O10 C47 1_555 1_555
Cd14_2 O10 1_555 1_555
C45 C46 1_555 1_555
O15 Cd2_2 1_555 1_555
C1 H1 1_555 1_555
C2 C1 1_555 1_555
C3 C2 1_555 1_555
H2 C3 1_555 1_555
C4 C3 1_555 1_555
H3 C4 1_555 1_555
C5 C4 1_555 1_555
C6 C5 1_555 1_555
H4 C6 1_555 1_555
C7 C2 1_555 1_555
H5 C7 1_555 1_555
C8 C5 1_555 1_555
C9 C1 1_555 1_555
C10 C9 1_555 1_555
H6 C10 1_555 1_555
C11 C10 1_555 1_555
H7 C11 1_555 1_555
C12 C11 1_555 1_555
C13 C12 1_555 1_555
H8 C13 1_555 1_555
C14 C9 1_555 1_555
H9 C14 1_555 1_555
C15 C12 1_555 1_555
C16 C1 1_555 1_555
C17 C16 1_555 1_555
H10 C17 1_555 1_555
H12 C20 1_555 1_555
C21 C16 1_555 1_555
H13 C21 1_555 1_555
C23 H14 1_555 1_555
C24 C23 1_555 1_555
H15 C24 1_555 1_555
C25 C24 1_555 1_555
C26 C25 1_555 1_555
H16 C26 1_555 1_555
C27 C26 1_555 1_555
H17 C27 1_555 1_555
Cd2_3 O2 1_555 1_555
N1 C23 1_555 1_555
O1 C8 1_555 1_555
O2 C8 1_555 1_555
O16 C15 1_555 1_555
O18 C15 1_555 1_555
C28 H18 1_555 1_555
C29 C28 1_555 1_555
H19 C29 1_555 1_555
C30 C25 1_555 1_555
C31 C30 1_555 1_555
H20 C31 1_555 1_555
C32 C31 1_555 1_555
H21 C32 1_555 1_555
N2 C28 1_555 1_555
Cd5 N2 1_555 1_555
Cd7 O1 1_555 1_555
O14 Cd5 1_555 1_555
O20 Cd5 1_555 1_555
O23 Cd5 1_555 1_555
C6 C7 1_555 1_555
C13 C14 1_555 1_555
C20 C21 1_555 1_555
C27 N1 1_555 1_555
C29 C30 1_555 1_555
C32 N2 1_555 1_555
Cd14 O23 1_555 1_555
C33 H22 1_555 1_555
C34 C33 1_555 1_555
C35 C34 1_555 1_555
H23 C35 1_555 1_555
C36 C35 1_555 1_555
H24 C36 1_555 1_555
C37 C36 1_555 1_555
C38 C37 1_555 1_555
H25 C38 1_555 1_555
C39 C34 1_555 1_555
H26 C39 1_555 1_555
C40 C37 1_555 1_555
C48 C33 1_555 1_555
C49 C48 1_555 1_555
H31 C49 1_555 1_555
C53 C48 1_555 1_555
O7 C40 1_555 1_555
O8 C40 1_555 1_555
Cd9 O7 1_555 1_555
Cd14_2 O8 1_555 1_555
C38 C39 1_555 1_555
C52 C53 1_555 1_555
H11 C18 1_555 1_555
C19 C18 1_555 1_555
C22 C19 1_555 1_555
O5 C22 1_555 1_555
O6 C22 1_555 1_555
Cd9 O5 1_555 1_555
Cd14_4 O6 1_555 1_555
O19 Cd2_4 1_555 1_555
O22 Cd2_4 1_555 1_555
O6 Cd9 1_555 1_555
H32 C50 1_555 1_555
C51 C50 1_555 1_555
C54 C51 1_555 1_555
O11 C54 1_555 1_555
O22 C54 1_555 1_555
Cd7 O11 1_555 1_555
O22 Cd7 1_555 1_555
O15_2 Cd14_3 1_555 1_555
O19_2 Cd14_3 1_555 1_555
H32_2 C50_2 1_555 1_555
C51_2 C50_2 1_555 1_555
C54_2 C51_2 1_555 1_555
O21 C54_2 1_555 1_555
O24 C54_2 1_555 1_555
H11_2 C18_2 1_555 1_555
C19_2 C18_2 1_555 1_555
C22_2 C19_2 1_555 1_555
O20 C22_2 1_555 1_555
O23 C22_2 1_555 1_555
C33_2 H22_2 1_555 1_555
C34_2 C33_2 1_555 1_555
C35_2 C34_2 1_555 1_555
H23_2 C35_2 1_555 1_555
C36_2 C35_2 1_555 1_555
H24_2 C36_2 1_555 1_555
C37_2 C36_2 1_555 1_555
C38_2 C37_2 1_555 1_555
H25_2 C38_2 1_555 1_555
C39_2 C34_2 1_555 1_555
H26_2 C39_2 1_555 1_555
C40_2 C37_2 1_555 1_555
C48_2 C33_2 1_555 1_555
C49_2 C48_2 1_555 1_555
H31_2 C49_2 1_555 1_555
C53_2 C48_2 1_555 1_555
O14 C40_2 1_555 1_555
O15_2 C40_2 1_555 1_555
C38_2 C39_2 1_555 1_555
C52_2 C53_2 1_555 1_555
C1_2 H1_2 1_555 1_555
C2_2 C1_2 1_555 1_555
C3_2 C2_2 1_555 1_555
H2_2 C3_2 1_555 1_555
C4_2 C3_2 1_555 1_555
H3_2 C4_2 1_555 1_555
C5_2 C4_2 1_555 1_555
C6_2 C5_2 1_555 1_555
H4_2 C6_2 1_555 1_555
C7_2 C2_2 1_555 1_555
H5_2 C7_2 1_555 1_555
C8_2 C5_2 1_555 1_555
C9_2 C1_2 1_555 1_555
C10_2 C9_2 1_555 1_555
H6_2 C10_2 1_555 1_555
C11_2 C10_2 1_555 1_555
H7_2 C11_2 1_555 1_555
C12_2 C11_2 1_555 1_555
C13_2 C12_2 1_555 1_555
H8_2 C13_2 1_555 1_555
C14_2 C9_2 1_555 1_555
H9_2 C14_2 1_555 1_555
C15_2 C12_2 1_555 1_555
C16_2 C1_2 1_555 1_555
C17_2 C16_2 1_555 1_555
H10_2 C17_2 1_555 1_555
H12_2 C20_2 1_555 1_555
C21_2 C16_2 1_555 1_555
H13_2 C21_2 1_555 1_555
C23_2 H14_2 1_555 1_555
C24_2 C23_2 1_555 1_555
H15_2 C24_2 1_555 1_555
C25_2 C24_2 1_555 1_555
C26_2 C25_2 1_555 1_555
H16_2 C26_2 1_555 1_555
C27_2 C26_2 1_555 1_555
H17_2 C27_2 1_555 1_555
N1_2 C23_2 1_555 1_555
O13 C8_2 1_555 1_555
O15 C8_2 1_555 1_555
O3 C15_2 1_555 1_555
O19 C15_2 1_555 1_555
C28_2 H18_2 1_555 1_555
C29_2 C28_2 1_555 1_555
H19_2 C29_2 1_555 1_555
C30_2 C25_2 1_555 1_555
C31_2 C30_2 1_555 1_555
H20_2 C31_2 1_555 1_555
C32_2 C31_2 1_555 1_555
H21_2 C32_2 1_555 1_555
N2_2 C28_2 1_555 1_555
Cd9 N2_2 1_555 1_555
Cd7 O3 1_555 1_555
C6_2 C7_2 1_555 1_555
C13_2 C14_2 1_555 1_555
C20_2 C21_2 1_555 1_555
C27_2 N1_2 1_555 1_555
C29_2 C30_2 1_555 1_555
C32_2 N2_2 1_555 1_555
C42_2 C41_2 1_555 1_555
H27_2 C42_2 1_555 1_555
C43_2 C42_2 1_555 1_555
H28_2 C43_2 1_555 1_555
C44_2 C43_2 1_555 1_555
C45_2 C44_2 1_555 1_555
H29_2 C45_2 1_555 1_555
C46_2 C41_2 1_555 1_555
H30_2 C46_2 1_555 1_555
C47_2 C44_2 1_555 1_555
O17 C47_2 1_555 1_555
O19_2 C47_2 1_555 1_555
C45_2 C46_2 1_555 1_555

#END
