
###############################################################################
#
# This file contains modified crystal structure data generated from the
# MOF subset of the Cambridge Structural Database (CSD) v543 
# hosted by the Cambridge Crystallographic Data Centre (CCDC).
#
# This work is licensed under the Creative Commons
# Attribution-NonCommercial-ShareAlike 4.0 International License.
# To view a copy of this license, visit
# http://creativecommons.org/licenses/by-nc-sa/4.0/
# or send a letter to
# Creative Commons, PO Box 1866, Mountain View, CA 94042, USA.
#
# CIF created using the CSD Python API on 29 September 2022
# The structure has been converted into the P1 space group
# The structure has a 3D framework
# The original CSD entry INIQON is in the triclinic crystal system
# The framework has been calculated to contain at least 10.0% void space
# The void calculation uses a probe of radius 1.32A, grid spacing 0.4
#
###############################################################################

data_INIQON
_chemical_formula_moiety         '(C56 H36 Cd6 N2 O10)n'
_symmetry_cell_setting           triclinic
_symmetry_space_group_name_H-M   'P 1'
_symmetry_Int_Tables_number      1
_space_group_name_Hall           'P 1'
loop_
_symmetry_equiv_pos_site_id
_symmetry_equiv_pos_as_xyz
1 x,y,z
_cell_length_a                   9.3767(15)
_cell_length_b                   13.5246(18)
_cell_length_c                   14.0167(14)
_cell_angle_alpha                63.182(3)
_cell_angle_beta                 89.797(3)
_cell_angle_gamma                73.3358(14)
_cell_volume                     1503.18
loop_
_atom_site_label
_atom_site_type_symbol
_atom_site_fract_x
_atom_site_fract_y
_atom_site_fract_z
C32 C 0.3418(5) 0.3851(5) 0.0081(5)
H21 H 0.3741 0.4205 0.0434
H22 H 0.5426 0.2943 0.0042
C34 C 0.0724(4) 0.4936(4) 0.0027(4)
H23 H 0.1053 0.5404 0.0238
C29 C 0.2633(5) 0.2648(4) 0.9228(4)
H19 H 0.2347 0.2177 0.8998
C30 C 0.1525(4) 0.3438(4) 0.9404(4)
H20 H 0.0522 0.3511 0.9262
C31 C 0.1873(4) 0.4107(4) 0.9779(4)
C33 C 0.4410(6) 0.3089(5) 0.9850(5)
N2 N 0.4055(4) 0.2517(3) 0.9364(3)
Cd10 Cd 0.59906(3) 0.11913(2) 0.91566(2)
Cd14 Cd -0.0000 0.0000 0.0000
Cd14_2 Cd -0.0000 0.0000 1.0000
C1 C 0.0590(4) 0.2925(3) 0.4054(3)
C2 C 0.1032(4) 0.2137(3) 0.3526(3)
C3 C 0.2335(5) 0.1249(4) 0.3820(4)
H2 H 0.2998 0.1063 0.4412
C4 C 0.2714(5) 0.0605(4) 0.3264(3)
C5 C 0.1744(4) 0.0868(3) 0.2389(3)
C6 C 0.0396(5) 0.1765(3) 0.2094(3)
C7 C 0.0036(5) 0.2396(4) 0.2656(4)
C8 C 0.2165(4) 0.0212(3) 0.1734(3)
C9 C 0.1228(4) 0.2228(3) 0.5268(2)
C10 C 0.0505(4) 0.1490(3) 0.5959(3)
C11 C 0.1079(4) 0.0844(3) 0.7040(3)
H7 H 0.0595 0.0340 0.7500
C12 C 0.2352(4) 0.0915(3) 0.7468(3)
C13 C 0.3034(4) 0.1669(3) 0.6759(3)
H8 H 0.3890 0.1738 0.7022
C14 C 0.2490(4) 0.2324(3) 0.5670(3)
H9 H 0.2973 0.2828 0.5209
C15 C 0.2864(4) 0.0249(3) 0.8639(3)
C16 C 0.0938(4) 0.4032(3) 0.3486(3)
C17 C 0.0066(4) 0.5016(4) 0.3549(3)
C18 C 0.0340(4) 0.6100(3) 0.2989(3)
C19 C 0.1499(4) 0.6205(3) 0.2403(3)
C20 C 0.2446(5) 0.5188(4) 0.2399(4)
H12 H 0.3287 0.5217 0.2046
C21 C 0.2132(4) 0.4145(3) 0.2917(3)
H13 H 0.2754 0.3494 0.2880
C22 C 0.1735(4) 0.7364(3) 0.1740(3)
O2 O 0.1316(4) 0.0574(3) 0.0876(2)
O4 O 0.3978(3) 0.0318(2) 0.90491(19)
O5 O 0.0560(3) 0.8217(2) 0.1360(2)
O6 O 0.3051(3) 0.7332(2) 0.1600(2)
Cd6 Cd 0.40094(3) 0.88087(2) 0.08434(2)
Cd14_3 Cd -0.0000 1.0000 0.0000
Cd14_4 Cd -0.0000 1.0000 1.0000
H3 H 0.3621 0.9999 0.3482
C23 C 0.7367(5) 0.7352(4) 0.0772(4)
H14 H 0.7653 0.7823 0.1002
C24 C 0.8475(4) 0.6562(4) 0.0596(4)
H15 H 0.9478 0.6489 0.0738
C25 C 0.8127(4) 0.5893(4) 0.0221(4)
C27 C 0.5590(6) 0.6911(5) 0.0150(5)
N1 N 0.5945(4) 0.7483(3) 0.0636(3)
O1 O 0.3349(3) 0.9370(3) 0.2090(3)
O3 O 0.2234(3) 0.9535(2) 0.9265(2)
O18 O 0.6022(3) 0.9682(2) 0.09509(19)
C26 C 0.6582(5) 0.6149(5) 0.9919(5)
H16 H 0.6259 0.5795 0.9566
H17 H 0.4574 0.7057 0.9958
C28 C 0.9276(4) 0.5064(4) 0.9973(4)
H18 H 0.8947 0.4596 0.9762
H24 H 0.0507 0.6857 0.5989
H27 H 0.0277 0.8056 0.8490
H28 H 0.0876 0.7005 0.7550
H29 H 0.0359 0.8570 0.4304
H33 H 0.0710 0.5038 0.6035
H34 H 0.0284 0.3247 0.6978
Cd14_5 Cd 1.0000 0.0000 0.0000
Cd14_6 Cd 1.0000 0.0000 1.0000
H1 H 0.9493 0.3143 0.4011
H4 H 0.9723 0.1944 0.1510
H5 H 0.9124 0.2995 0.2450
H6 H 0.9641 0.1430 0.5696
H10 H 0.9290 0.4962 0.3965
H11 H 0.9716 0.6753 0.3022
Cd14_7 Cd 1.0000 1.0000 0.0000
O14 O 0.7766(3) 0.0465(2) 0.0735(2)
H26 H 0.6379 0.0001 0.6518
O7 O 0.6651(3) 0.0630(3) 0.7910(3)
Cd14_8 Cd 1.0000 1.0000 1.0000
O20 O 0.9440(3) 0.1783(2) 0.8640(2)
O22 O 0.6949(3) 0.2668(2) 0.8400(2)
C35 C 0.9410(4) 0.7075(3) 0.5946(3)
C36 C 0.8968(4) 0.7863(3) 0.6474(3)
C37 C 0.7665(5) 0.8751(4) 0.6180(4)
H25 H 0.7002 0.8937 0.5588
C38 C 0.7286(5) 0.9395(4) 0.6736(3)
C39 C 0.8256(4) 0.9132(3) 0.7611(3)
C40 C 0.9604(5) 0.8235(3) 0.7906(3)
C41 C 0.9964(5) 0.7604(4) 0.7344(4)
C42 C 0.7835(4) 0.9788(3) 0.8266(3)
C43 C 0.8772(4) 0.7772(3) 0.4732(2)
C44 C 0.9495(4) 0.8510(3) 0.4041(3)
C45 C 0.8921(4) 0.9156(3) 0.2960(3)
H30 H 0.9405 0.9660 0.2500
C46 C 0.7648(4) 0.9085(3) 0.2532(3)
C47 C 0.6966(4) 0.8331(3) 0.3241(3)
H31 H 0.6110 0.8262 0.2978
C48 C 0.7510(4) 0.7676(3) 0.4330(3)
H32 H 0.7027 0.7172 0.4791
C49 C 0.7136(4) 0.9751(3) 0.1361(3)
C50 C 0.9062(4) 0.5968(3) 0.6514(3)
C51 C 0.9934(4) 0.4984(4) 0.6451(3)
C52 C 0.9660(4) 0.3900(3) 0.7011(3)
C53 C 0.8501(4) 0.3795(3) 0.7597(3)
C54 C 0.7554(5) 0.4812(4) 0.7601(4)
H35 H 0.6713 0.4783 0.7954
C55 C 0.7868(4) 0.5855(3) 0.7083(3)
H36 H 0.7246 0.6506 0.7120
C56 C 0.8265(4) 0.2636(3) 0.8260(3)
O8 O 0.8684(4) 0.9426(3) 0.9124(2)
loop_
_geom_bond_atom_site_label_1
_geom_bond_atom_site_label_2
_geom_bond_site_symmetry_1
_geom_bond_site_symmetry_2
H21 C32 1_555 1_555
H23 C34 1_555 1_555
C29 H19 1_555 1_555
C30 C29 1_555 1_555
H20 C30 1_555 1_555
C31 C30 1_555 1_555
N2 C29 1_555 1_555
Cd10 N2 1_555 1_555
C33 N2 1_555 1_555
C2 C1 1_555 1_555
C3 C2 1_555 1_555
H2 C3 1_555 1_555
C4 C3 1_555 1_555
C5 C4 1_555 1_555
C6 C5 1_555 1_555
C7 C2 1_555 1_555
C8 C5 1_555 1_555
C9 C1 1_555 1_555
C10 C9 1_555 1_555
C11 C10 1_555 1_555
H7 C11 1_555 1_555
C12 C11 1_555 1_555
C13 C12 1_555 1_555
H8 C13 1_555 1_555
C14 C9 1_555 1_555
H9 C14 1_555 1_555
C15 C12 1_555 1_555
C16 C1 1_555 1_555
C17 C16 1_555 1_555
C18 C17 1_555 1_555
C19 C18 1_555 1_555
C20 C19 1_555 1_555
H12 C20 1_555 1_555
C21 C16 1_555 1_555
H13 C21 1_555 1_555
C22 C19 1_555 1_555
Cd14 O2 1_555 1_555
O2 C8 1_555 1_555
O4 C15 1_555 1_555
O5 C22 1_555 1_555
O6 C22 1_555 1_555
Cd6 O6 1_555 1_555
Cd10 O4 1_555 1_555
Cd14_3 O5 1_555 1_555
C6 C7 1_555 1_555
C13 C14 1_555 1_555
C20 C21 1_555 1_555
C23 H14 1_555 1_555
C24 C23 1_555 1_555
H15 C24 1_555 1_555
C25 C24 1_555 1_555
Cd6 N1 1_555 1_555
N1 C23 1_555 1_555
Cd14_4 O3 1_555 1_555
O18 Cd6 1_555 1_555
C27 N1 1_555 1_555
Cd6 O1 1_555 1_555
H16 C26 1_555 1_555
H18 C28 1_555 1_555
O14 Cd14_5 1_555 1_555
Cd10 O7 1_555 1_555
O20 Cd14_6 1_555 1_555
O22 Cd10 1_555 1_555
C36 C35 1_555 1_555
C37 C36 1_555 1_555
H25 C37 1_555 1_555
C38 C37 1_555 1_555
C39 C38 1_555 1_555
C40 C39 1_555 1_555
C41 C36 1_555 1_555
C42 C39 1_555 1_555
C43 C35 1_555 1_555
C44 C43 1_555 1_555
C45 C44 1_555 1_555
H30 C45 1_555 1_555
C46 C45 1_555 1_555
C47 C46 1_555 1_555
H31 C47 1_555 1_555
C48 C43 1_555 1_555
H32 C48 1_555 1_555
C49 C46 1_555 1_555
C50 C35 1_555 1_555
C51 C50 1_555 1_555
C52 C51 1_555 1_555
C53 C52 1_555 1_555
C54 C53 1_555 1_555
H35 C54 1_555 1_555
C55 C50 1_555 1_555
H36 C55 1_555 1_555
C56 C53 1_555 1_555
O8 Cd14_8 1_555 1_555
O18 C49 1_555 1_555
O20 C56 1_555 1_555
O22 C56 1_555 1_555
C40 C41 1_555 1_555
C42 O8 1_555 1_555
C47 C48 1_555 1_555
C54 C55 1_555 1_555

#END
