
###############################################################################
#
# This file contains modified crystal structure data generated from the
# MOF subset of the Cambridge Structural Database (CSD) v543 
# hosted by the Cambridge Crystallographic Data Centre (CCDC).
#
# This work is licensed under the Creative Commons
# Attribution-NonCommercial-ShareAlike 4.0 International License.
# To view a copy of this license, visit
# http://creativecommons.org/licenses/by-nc-sa/4.0/
# or send a letter to
# Creative Commons, PO Box 1866, Mountain View, CA 94042, USA.
#
# CIF created using the CSD Python API on 29 September 2022
# The structure has been converted into the P1 space group
# The structure has a 3D framework
# The original CSD entry INIRII is in the triclinic crystal system
# The framework has been calculated to contain at least 10.0% void space
# The void calculation uses a probe of radius 1.32A, grid spacing 0.4
# H atom positions have been added when not included in the experimental data
#
###############################################################################

data_INIRII
_chemical_formula_moiety         '(C104 H168 Ge28 N8 O138 Tb20)n'
_symmetry_cell_setting           triclinic
_symmetry_space_group_name_H-M   'P 1'
_symmetry_Int_Tables_number      1
_space_group_name_Hall           'P 1'
loop_
_symmetry_equiv_pos_site_id
_symmetry_equiv_pos_as_xyz
1 x,y,z
_cell_length_a                   12.8712(2)
_cell_length_b                   21.6552(4)
_cell_length_c                   23.5052(4)
_cell_angle_alpha                106.275(2)
_cell_angle_beta                 101.460(2)
_cell_angle_gamma                94.9090(10)
_cell_volume                     6093.78
loop_
_atom_site_label
_atom_site_type_symbol
_atom_site_fract_x
_atom_site_fract_y
_atom_site_fract_z
Tb13 Tb 0.2104 0.4722 0.0180
O14 O 0.0412 0.4443 0.9579
Tb3 Tb 0.7042 0.4214 0.0717
Tb4 Tb 0.4194 0.3923 0.0869
Tb5 Tb 0.3677 0.2792 0.1800
Tb6 Tb 0.0905 0.1194 0.2419
Tb7 Tb 0.0627 0.0584 0.3746
Tb8 Tb 0.2859 0.0114 0.4693
Tb10 Tb 0.0551 0.2027 0.6259
Ge7 Ge 0.1529 0.3491 0.1137
Ge8 Ge 0.3189 0.0812 0.3275
Ge9 Ge 0.2191 0.1782 0.5050
Ge13 Ge 0.1470 0.0895 0.6929
Ge14 Ge 0.3119 0.1226 0.6174
N1 N 0.5701 0.2696 0.2256
N2 N 0.7851 0.2517 0.2574
O8 O 0.5319 0.3700 0.0190
O15 O 0.7169 0.3143 0.0135
O16 O 0.8371 0.2549 0.0384
O17 O 0.3738 0.2782 0.0258
O18 O 0.3267 0.2106 0.0748
O25 O 0.0622 0.2086 0.2092
O26 O 0.1898 0.2569 0.1782
O27 O 0.2689 0.1467 0.2415
O28 O 0.3728 0.1709 0.1834
O29 O 0.1013 0.2047 0.5287
O32 O 0.0342 0.1349 0.6875
O33 O 0.2160 0.1463 0.6634
O34 O 0.3006 0.1813 0.5778
O35 O 0.1975 0.0960 0.4629
O39 O 0.0930 0.0157 0.6359
O40 O 0.2677 0.0436 0.5689
O41 O 0.1387 0.2153 0.3312
O42 O 0.1059 0.1770 0.4055
O49 O 0.2978 0.0421 0.6919
O50 O 0.4301 0.0219 0.7563
O51 O 0.4514 0.2978 0.7227
O52 O 0.5005 0.2359 0.7794
O53 O 0.3950 0.1597 0.3638
H1 H 0.4485 0.1571 0.3882
O54 O 0.3534 0.0375 0.3822
H2 H 0.4146 0.0187 0.3771
O55 O 0.1837 0.0856 0.3207
O56 O 0.2868 0.3417 0.1215
O57 O 0.1261 0.4117 0.0775
H3 H 0.0611 0.4255 0.0827
O58 O 0.0770 0.2771 0.0589
H4 H 0.0130 0.2801 0.0543
O59 O 0.6733 0.3489 0.1333
O60 O 0.5068 0.3278 0.1439
O65 O 0.8901 0.3954 0.1011
O66 O 0.3647 0.2792 0.2846
O67 O 0.0961 0.0802 0.1362
O69 O 0.0309 0.0914 0.5580
O70 O 0.2189 0.2811 0.6505
H9 H 0.5303 0.2139 0.0131
C6 C 0.7456 0.2607 0.0139
C9 C 0.3192 0.2284 0.0278
C19 C 0.1065 0.3698 0.1885
H29 H 0.1688 0.3860 0.2223
H30 H 0.0628 0.4043 0.1896
C20 C 0.0424 0.3120 0.1965
H31 H 0.0218 0.3256 0.2351
C21 C 0.1020 0.2552 0.1951
C22 C 0.3538 0.0370 0.2513
H33 H 0.4017 0.0064 0.2585
H34 H 0.2885 0.0123 0.2227
C23 C 0.4063 0.0824 0.2223
H35 H 0.4775 0.1012 0.2475
H36 H 0.4144 0.0570 0.1828
C24 C 0.3444 0.1373 0.2143
C25 C 0.3022 0.2418 0.4825
H37 H 0.3334 0.2782 0.5187
H38 H 0.3608 0.2225 0.4676
C26 C 0.2400 0.2678 0.4341
H39 H 0.2055 0.3032 0.4537
H40 H 0.2901 0.2853 0.4146
C27 C 0.1557 0.2165 0.3857
C37 C 0.1987 0.1015 0.7787
H53 H 0.1840 0.1432 0.8018
H54 H 0.1600 0.0678 0.7897
C38 C 0.3184 0.0991 0.7961
H55 H 0.3580 0.1419 0.8037
H56 H 0.3349 0.0872 0.8333
C39 C 0.3529 0.0501 0.7457
C40 C 0.4600 0.1347 0.6628
H57 H 0.4600 0.1249 0.7006
H58 H 0.4968 0.1032 0.6394
C41 C 0.5242 0.2020 0.6781
H59 H 0.6001 0.1999 0.6901
H60 H 0.5123 0.2171 0.6425
C42 C 0.4905 0.2480 0.7287
C43 C 0.6078 0.3258 0.1556
C44 C 0.6456 0.2911 0.2009
C45 C 0.7513 0.2836 0.2148
H61 H 0.7999 0.2997 0.1961
C46 C 0.7080 0.2281 0.2822
H62 H 0.7266 0.2050 0.3097
C47 C 0.6040 0.2384 0.2666
H63 H 0.5542 0.2232 0.2852
Tb11 Tb 0.4437 0.3348 0.8311
O71 O 0.7099 0.6184 0.0007
O72 O 0.7638 0.5275 0.0765
O73 O 0.5792 0.4685 0.1210
O74 O 0.3444 0.4863 0.1011
O75 O 0.9588 0.5557 0.0421
O76 O 0.0698 0.2804 0.7283
O78 O 0.7832 0.4816 0.1795
O79 O 0.4364 0.4498 0.1953
O80 O 0.3949 0.3868 0.2501
O86 O 0.4529 0.0685 0.5162
O88 O 0.0677 0.0015 0.2013
H69 H 0.35075 0.188948 0.385701
H70 H 0.0912098 0.239018 0.0733113
H71 H 0.943339 0.430864 0.100118
H72 H 0.90289 0.391281 0.142863
H73 H 0.204085 0.315938 0.631451
H74 H 0.242998 0.300606 0.695399
H75 H 0.415476 0.316808 0.31426
H76 H 0.291159 0.282657 0.290963
H81 H 0.0672056 0.110791 0.114756
H82 H 0.171391 0.0771007 0.133044
H83 H 0.100186 0.0814733 0.547909
H84 H 0.00592468 0.0606061 0.578525
Tb2 Tb 0.7896 0.5278 0.9820
Ge1 Ge 0.7002 0.3623 0.9094
Ge2 Ge 0.5186 0.2966 0.9617
Ge3 Ge 0.2691 0.3108 0.9375
Ge4 Ge 0.1919 0.4064 0.8577
Ge5 Ge 0.3678 0.4739 0.8077
Ge6 Ge 0.6193 0.4567 0.8267
O1 O 0.5794 0.3098 0.9031
O2 O 0.3884 0.2930 0.9114
O3 O 0.1955 0.3321 0.8748
O4 O 0.2946 0.4023 0.8155
O5 O 0.4785 0.4277 0.7999
O6 O 0.6375 0.3806 0.8425
O7 O 0.7164 0.4254 0.9763
O9 O 0.2901 0.3816 0.9993
O10 O 0.2362 0.4725 0.9235
O11 O 0.4208 0.5315 0.8790
O12 O 0.6556 0.5137 0.8989
O13 O 0.8711 0.4454 0.9176
O21 O 0.2168 0.5184 0.8205
O22 O 0.0964 0.5660 0.7742
O23 O 0.5636 0.5502 0.8047
O24 O 0.6051 0.6132 0.7499
O63 O 0.2803 0.2582 0.7795
O64 O 0.4699 0.4258 0.9240
C1 C 0.8127 0.3123 0.8929
H5 H 0.7973 0.2709 0.9001
H6 H 0.8137 0.3035 0.8503
C2 C 0.9226 0.3460 0.9316
H7 H 0.9765 0.3232 0.9148
H8 H 0.9285 0.3426 0.9724
C3 C 0.9467 0.4174 0.9360
C4 C 0.5475 0.2149 0.9749
H10 H 0.5002 0.1798 0.9426
C5 C 0.6619 0.2025 0.9772
H11 H 0.6735 0.1672 0.9944
H12 H 0.6716 0.1885 0.9358
C7 C 0.1818 0.2339 0.9375
H13 H 0.1250 0.2472 0.9578
H14 H 0.1483 0.2089 0.8956
C8 C 0.2427 0.1896 0.9687
H15 H 0.1917 0.1592 0.9765
H16 H 0.2824 0.1647 0.9416
C10 C 0.0475 0.4018 0.8120
H17 H 0.0026 0.3681 0.8196
H18 H 0.0232 0.4427 0.8291
C11 C 0.0254 0.3890 0.7439
H20 H 0.0756 0.4196 0.7357
C12 C 0.0320 0.3222 0.7055
C13 C 0.3233 0.4878 0.7298
H21 H 0.3828 0.5132 0.7230
H22 H 0.3084 0.4459 0.6986
C14 C 0.2268 0.5215 0.7221
H23 H 0.2476 0.5618 0.7140
H24 H 0.1737 0.4943 0.6866
C15 C 0.1756 0.5370 0.7754
C16 C 0.6957 0.4625 0.7653
H25 H 0.7697 0.4814 0.7850
H26 H 0.6954 0.4190 0.7390
C17 C 0.6472 0.5036 0.7262
H27 H 0.7018 0.5199 0.7088
H28 H 0.5899 0.4763 0.6929
C18 C 0.6032 0.5605 0.7631
Tb14 Tb 0.2958 0.5786 0.9283
Tb15 Tb 0.5806 0.6077 0.9131
Tb16 Tb 0.6323 0.7208 0.8200
O92 O 0.8739 0.5883 0.9225
H67 H 0.242088 0.250244 0.81014
H68 H 0.233404 0.276511 0.751437
H79 H 0.545412 0.447655 0.935848
H80 H 0.421132 0.457342 0.916721
Tb21 Tb 0.2170 0.9541 0.5985
O81 O 0.2205 0.9243 0.4967
O82 O 0.1445 0.9708 0.3883
O85 O 0.3783 0.9214 0.4337
O87 O 0.0382 0.9688 0.2790
Tb9 Tb 0.7830 0.0459 0.4015
Ge10 Ge 0.9680 0.1872 0.4772
Ge11 Ge 0.7969 0.1538 0.5534
Ge12 Ge 0.8947 0.1027 0.6698
N3 N 0.8897 0.1039 0.1860
N4 N 0.6720 0.0848 0.1319
O30 O 0.9130 0.1986 0.5429
O31 O 0.8661 0.1619 0.6295
O36 O 0.9545 0.1045 0.4396
O37 O 0.7795 0.0757 0.5033
O38 O 0.8555 0.0292 0.6117
O43 O 0.7678 0.1577 0.4301
O44 O 0.6377 0.2092 0.4009
O45 O 0.6217 0.0786 0.5663
O47 O 0.9618 0.0312 0.7210
O61 O 0.9597 0.0943 0.2955
O62 O 0.7940 0.0812 0.3102
O68 O 0.5913 0.0599 0.3631
H32 H 0.9773 0.2981 0.1644
C28 C 0.9298 0.2525 0.4390
H41 H 0.9817 0.2917 0.4584
H42 H 0.9324 0.2371 0.3964
C29 C 0.8168 0.2685 0.4434
H43 H 0.8183 0.2923 0.4853
H44 H 0.7964 0.2964 0.4185
C30 C 0.7334 0.2081 0.4227
C31 C 0.6782 0.2017 0.5555
H45 H 0.6762 0.2214 0.5977
H46 H 0.6899 0.2365 0.5380
C32 C 0.5696 0.1604 0.5214
H47 H 0.5138 0.1864 0.5303
H48 H 0.5654 0.1499 0.4780
C33 C 0.5470 0.0983 0.5359
C34 C 0.8284 0.1229 0.7381
H49 H 0.8281 0.1695 0.7521
H50 H 0.7545 0.1017 0.7248
C35 C 0.8851 0.1016 0.7909
H51 H 0.9435 0.1355 0.8162
H52 H 0.8352 0.0959 0.8156
C36 C 0.9291 0.0386 0.7695
C48 C 0.8549 0.1097 0.1310
H64 H 0.9051 0.1208 0.1106
C49 C 0.7472 0.1000 0.1024
H65 H 0.7263 0.1039 0.0635
C50 C 0.7075 0.0807 0.1899
H66 H 0.6584 0.0715 0.2117
C51 C 0.8153 0.0902 0.2153
C52 C 0.8579 0.0886 0.2787
O77 O 0.9994 0.3080 0.6486
H77 H 0.58628 0.075978 0.32716
H78 H 0.544157 0.0174083 0.351237
H19 H 0.9541 0.3986 0.7305
O48 O 0.9323 0.9985 0.7987
Tb17 Tb 0.9095 0.8806 0.7581
Tb18 Tb 0.9373 0.9416 0.6254
Tb20 Tb 0.7141 0.9886 0.5307
O83 O 0.9070 0.9843 0.3641
O84 O 0.7323 0.9564 0.4311
O89 O 0.7022 0.9579 0.3081
O20 O 0.0006 0.6920 0.3514
H19_2 H 0.0459 0.6014 0.2695
Ge10_2 Ge 0.0320 0.8128 0.5228
Ge11_2 Ge 0.2031 0.8462 0.4466
Ge12_2 Ge 0.1053 0.8973 0.3302
N3_2 N 0.1103 0.8961 0.8140
N4_2 N 0.3280 0.9152 0.8681
O30_2 O 0.0870 0.8014 0.4571
O31_2 O 0.1339 0.8381 0.3705
O36_2 O 0.0455 0.8955 0.5604
O43_2 O 0.2322 0.8423 0.5699
O44_2 O 0.3623 0.7908 0.5991
O46 O 0.5471 0.9315 0.4838
O61_2 O 0.0403 0.9057 0.7045
O62_2 O 0.2060 0.9188 0.6898
O68_2 O 0.4087 0.9401 0.6369
H32_2 H 0.0227 0.7019 0.8356
C28_2 C 0.0702 0.7475 0.5610
H41_2 H 0.0183 0.7083 0.5416
H42_2 H 0.0676 0.7629 0.6036
C29_2 C 0.1832 0.7315 0.5566
H43_2 H 0.1817 0.7077 0.5147
H44_2 H 0.2036 0.7036 0.5815
C30_2 C 0.2666 0.7919 0.5773
C31_2 C 0.3218 0.7983 0.4445
H45_2 H 0.3238 0.7786 0.4023
H46_2 H 0.3101 0.7635 0.4620
C32_2 C 0.4304 0.8396 0.4786
H47_2 H 0.4862 0.8136 0.4697
H48_2 H 0.4346 0.8501 0.5220
C33_2 C 0.4530 0.9017 0.4641
C34_2 C 0.1716 0.8771 0.2619
H49_2 H 0.1719 0.8305 0.2479
H50_2 H 0.2455 0.8983 0.2752
C35_2 C 0.1149 0.8984 0.2091
H51_2 H 0.0565 0.8645 0.1838
H52_2 H 0.1648 0.9041 0.1844
C36_2 C 0.0709 0.9614 0.2305
C48_2 C 0.1451 0.8903 0.8690
H64_2 H 0.0949 0.8792 0.8894
C49_2 C 0.2528 0.9000 0.8976
H65_2 H 0.2737 0.8961 0.9365
C50_2 C 0.2925 0.9193 0.8101
H66_2 H 0.3416 0.9285 0.7883
C51_2 C 0.1847 0.9098 0.7847
C52_2 C 0.1421 0.9114 0.7213
H77_2 H 0.41372 0.924022 0.67284
H78_2 H 0.455843 0.982592 0.648763
Tb1 Tb 0.5563 0.6652 0.1689
Ge1_2 Ge 0.2998 0.6377 0.0906
Ge2_2 Ge 0.4814 0.7034 0.0383
Ge3_2 Ge 0.7309 0.6892 0.0625
Ge4_2 Ge 0.8081 0.5936 0.1423
Ge5_2 Ge 0.6322 0.5261 0.1923
Ge6_2 Ge 0.3807 0.5433 0.1733
O1_2 O 0.4206 0.6902 0.0969
O2_2 O 0.6116 0.7070 0.0886
O3_2 O 0.8045 0.6679 0.1252
O4_2 O 0.7054 0.5977 0.1845
O5_2 O 0.5215 0.5723 0.2001
O6_2 O 0.3625 0.6194 0.1575
O7_2 O 0.2836 0.5746 0.0237
O13_2 O 0.1289 0.5546 0.0824
O19 O 0.9302 0.7196 0.2717
O22_2 O 0.9036 0.4340 0.2258
O63_2 O 0.7197 0.7418 0.2205
O64_2 O 0.5301 0.5742 0.0760
C1_2 C 0.1873 0.6877 0.1071
H5_2 H 0.2027 0.7291 0.0999
H6_2 H 0.1863 0.6965 0.1497
C2_2 C 0.0774 0.6540 0.0684
H7_2 H 0.0235 0.6768 0.0852
H8_2 H 0.0715 0.6574 0.0276
C3_2 C 0.0533 0.5826 0.0640
C4_2 C 0.4525 0.7851 0.0251
H10_2 H 0.4998 0.8202 0.0574
C5_2 C 0.3381 0.7975 0.0228
H11_2 H 0.3265 0.8328 0.0056
H12_2 H 0.3284 0.8115 0.0642
C7_2 C 0.8182 0.7661 0.0625
H13_2 H 0.8750 0.7528 0.0422
H14_2 H 0.8517 0.7911 0.1044
C8_2 C 0.7573 0.8104 0.0313
H15_2 H 0.8083 0.8408 0.0235
H16_2 H 0.7176 0.8353 0.0584
C10_2 C 0.9525 0.5982 0.1880
H17_2 H 0.9974 0.6319 0.1804
H18_2 H 0.9768 0.5573 0.1709
C11_2 C 0.9746 0.6110 0.2561
H20_2 H 0.9244 0.5804 0.2643
C12_2 C 0.9680 0.6778 0.2945
C13_2 C 0.6767 0.5122 0.2702
H21_2 H 0.6172 0.4868 0.2770
H22_2 H 0.6916 0.5541 0.3014
C14_2 C 0.7732 0.4785 0.2779
H23_2 H 0.7524 0.4382 0.2860
H24_2 H 0.8263 0.5057 0.3134
C15_2 C 0.8244 0.4630 0.2246
C16_2 C 0.3043 0.5375 0.2347
H25_2 H 0.2303 0.5186 0.2150
H26_2 H 0.3046 0.5810 0.2610
C17_2 C 0.3528 0.4964 0.2738
H27_2 H 0.2982 0.4801 0.2912
H28_2 H 0.4101 0.5237 0.3071
C18_2 C 0.3968 0.4395 0.2369
Tb22 Tb 0.9449 0.7973 0.3741
O90 O 0.5486 0.7022 0.2773
O91 O 0.4995 0.7641 0.2206
H67_2 H 0.757912 0.749756 0.18986
H68_2 H 0.766596 0.723489 0.248563
H79_2 H 0.454588 0.552345 0.0641525
H80_2 H 0.578868 0.542658 0.0832786
Ge7_2 Ge 0.8471 0.6509 0.8863
Ge8_2 Ge 0.6811 0.9188 0.6725
Ge9_2 Ge 0.7809 0.8218 0.4950
Ge13_2 Ge 0.8530 0.9105 0.3071
Ge14_2 Ge 0.6881 0.8774 0.3826
N1_2 N 0.4299 0.7304 0.7744
N2_2 N 0.2149 0.7483 0.7426
O8_2 O 0.4681 0.6300 0.9810
O15_2 O 0.2831 0.6857 0.9865
O16_2 O 0.1629 0.7451 0.9616
O17_2 O 0.6262 0.7218 0.9742
O18_2 O 0.6733 0.7894 0.9252
O25_2 O 0.9378 0.7914 0.7908
O26_2 O 0.8102 0.7431 0.8218
O27_2 O 0.7311 0.8533 0.7585
O28_2 O 0.6272 0.8291 0.8166
O29_2 O 0.8987 0.7953 0.4713
O32_2 O 0.9658 0.8651 0.3125
O33_2 O 0.7840 0.8537 0.3366
O34_2 O 0.6994 0.8187 0.4222
O35_2 O 0.8025 0.9040 0.5371
O41_2 O 0.8613 0.7847 0.6688
O42_2 O 0.8941 0.8230 0.5945
O50_2 O 0.5699 0.9781 0.2437
O53_2 O 0.6050 0.8403 0.6362
H1_2 H 0.5515 0.8429 0.6118
O54_2 O 0.6466 0.9625 0.6178
H2_2 H 0.5854 0.9813 0.6229
O55_2 O 0.8163 0.9144 0.6793
O56_2 O 0.7132 0.6583 0.8785
H3_2 H 0.9389 0.5745 0.9173
O58_2 O 0.9230 0.7229 0.9411
H4_2 H 0.9870 0.7199 0.9457
O59_2 O 0.3267 0.6511 0.8667
O60_2 O 0.4932 0.6722 0.8561
O65_2 O 0.1099 0.6046 0.8989
O66_2 O 0.6353 0.7208 0.7154
O67_2 O 0.9039 0.9198 0.8638
O69_2 O 0.9691 0.9086 0.4420
O70_2 O 0.7811 0.7189 0.3495
H9_2 H 0.4697 0.7861 0.9869
C6_2 C 0.2544 0.7393 0.9861
C9_2 C 0.6808 0.7716 0.9722
C19_2 C 0.8935 0.6302 0.8115
H29_2 H 0.8312 0.6140 0.7777
H30_2 H 0.9372 0.5957 0.8104
C20_2 C 0.9576 0.6880 0.8035
H31_2 H 0.9782 0.6744 0.7649
C21_2 C 0.8980 0.7448 0.8049
C22_2 C 0.6462 0.9630 0.7487
H33_2 H 0.5983 0.9936 0.7415
H34_2 H 0.7115 0.9877 0.7773
C23_2 C 0.5937 0.9176 0.7777
H35_2 H 0.5225 0.8988 0.7525
H36_2 H 0.5856 0.9430 0.8172
C24_2 C 0.6556 0.8627 0.7857
C25_2 C 0.6978 0.7582 0.5175
H37_2 H 0.6666 0.7218 0.4813
H38_2 H 0.6392 0.7775 0.5324
C26_2 C 0.7600 0.7322 0.5659
H39_2 H 0.7945 0.6968 0.5463
H40_2 H 0.7099 0.7147 0.5854
C27_2 C 0.8443 0.7835 0.6143
C37_2 C 0.8013 0.8985 0.2213
H53_2 H 0.8160 0.8568 0.1982
H54_2 H 0.8400 0.9322 0.2103
C38_2 C 0.6816 0.9009 0.2039
H55_2 H 0.6420 0.8581 0.1963
H56_2 H 0.6651 0.9128 0.1667
C39_2 C 0.6471 0.9499 0.2543
C40_2 C 0.5400 0.8653 0.3372
H57_2 H 0.5400 0.8751 0.2994
H58_2 H 0.5032 0.8968 0.3606
C41_2 C 0.4758 0.7980 0.3219
H59_2 H 0.3999 0.8001 0.3099
H60_2 H 0.4877 0.7829 0.3575
C42_2 C 0.5095 0.7520 0.2713
C43_2 C 0.3922 0.6742 0.8444
C44_2 C 0.3544 0.7089 0.7991
C45_2 C 0.2487 0.7164 0.7852
H61_2 H 0.2001 0.7003 0.8039
C46_2 C 0.2920 0.7719 0.7178
H62_2 H 0.2734 0.7950 0.6903
C47_2 C 0.3960 0.7616 0.7334
H63_2 H 0.4458 0.7768 0.7148
H69_2 H 0.64925 0.811052 0.614299
H70_2 H 0.90879 0.760982 0.926689
H71_2 H 0.0566612 0.569136 0.899882
H72_2 H 0.0971104 0.608719 0.857137
H73_2 H 0.795915 0.684062 0.368549
H74_2 H 0.757002 0.699394 0.304601
H75_2 H 0.584524 0.683192 0.68574
H76_2 H 0.708841 0.717343 0.709037
H81_2 H 0.932794 0.889209 0.885244
H82_2 H 0.828609 0.922899 0.866956
H83_2 H 0.899814 0.918527 0.452091
H84_2 H 0.994075 0.939394 0.421475
loop_
_geom_bond_atom_site_label_1
_geom_bond_atom_site_label_2
_geom_bond_site_symmetry_1
_geom_bond_site_symmetry_2
Tb4 O8 1_555 1_555
Tb5 N1 1_555 1_555
Tb7 O35 1_555 1_555
Tb8 O35 1_555 1_555
Tb10 O29 1_555 1_555
Ge7 O56 1_555 1_555
Ge8 O53 1_555 1_555
Ge9 O29 1_555 1_555
Ge13 O32 1_555 1_555
Ge14 O33 1_555 1_555
N1 C44 1_555 1_555
N2 C45 1_555 1_555
O8 Tb3 1_555 1_555
O15 Tb3 1_555 1_555
O16 C6 1_555 1_555
O17 Tb4 1_555 1_555
O18 Tb5 1_555 1_555
O25 Tb6 1_555 1_555
O26 Tb5 1_555 1_555
O27 Tb6 1_555 1_555
O28 Tb5 1_555 1_555
O32 Tb10 1_555 1_555
O33 Tb10 1_555 1_555
O34 Ge9 1_555 1_555
O35 Ge9 1_555 1_555
O39 Ge13 1_555 1_555
O40 Tb8 1_555 1_555
O41 Tb6 1_555 1_555
O42 Tb7 1_555 1_555
O49 Ge13 1_555 1_555
O50 C39 1_555 1_555
O51 C42 1_555 1_555
O52 C42 1_555 1_555
O53 H1 1_555 1_555
O54 Tb8 1_555 1_555
H2 O54 1_555 1_555
O55 Tb6 1_555 1_555
O56 Tb4 1_555 1_555
O57 Ge7 1_555 1_555
H3 O57 1_555 1_555
O58 Ge7 1_555 1_555
H4 O58 1_555 1_555
O59 Tb3 1_555 1_555
O60 Tb4 1_555 1_555
O65 Tb3 1_555 1_555
O66 Tb5 1_555 1_555
O67 Tb6 1_555 1_555
O69 Tb10 1_555 1_555
O70 Tb10 1_555 1_555
C6 O15 1_555 1_555
C9 O17 1_555 1_555
C19 Ge7 1_555 1_555
H29 C19 1_555 1_555
H30 C19 1_555 1_555
C20 C19 1_555 1_555
H31 C20 1_555 1_555
C21 O25 1_555 1_555
C22 Ge8 1_555 1_555
H33 C22 1_555 1_555
H34 C22 1_555 1_555
C23 C22 1_555 1_555
H35 C23 1_555 1_555
H36 C23 1_555 1_555
C24 O27 1_555 1_555
C25 Ge9 1_555 1_555
H37 C25 1_555 1_555
H38 C25 1_555 1_555
C26 C25 1_555 1_555
H39 C26 1_555 1_555
H40 C26 1_555 1_555
C27 O41 1_555 1_555
C37 Ge13 1_555 1_555
H53 C37 1_555 1_555
H54 C37 1_555 1_555
C38 C37 1_555 1_555
H55 C38 1_555 1_555
H56 C38 1_555 1_555
C39 O49 1_555 1_555
C40 Ge14 1_555 1_555
H57 C40 1_555 1_555
H58 C40 1_555 1_555
C41 C40 1_555 1_555
H59 C41 1_555 1_555
H60 C41 1_555 1_555
C42 C41 1_555 1_555
C43 O59 1_555 1_555
C44 C43 1_555 1_555
C45 C44 1_555 1_555
H61 C45 1_555 1_555
C46 N2 1_555 1_555
H62 C46 1_555 1_555
C47 N1 1_555 1_555
H63 C47 1_555 1_555
Tb11 O51 1_555 1_555
O73 Tb3 1_555 1_555
O74 Tb4 1_555 1_555
O76 Tb10 1_555 1_555
O78 Tb3 1_555 1_555
O79 Tb4 1_555 1_555
O80 Tb5 1_555 1_555
O86 Tb8 1_555 1_555
O88 Tb6 1_555 1_555
Tb3 O72 1_555 1_555
Tb4 O73 1_555 1_555
Tb5 O56 1_555 1_555
Tb5 O60 1_555 1_555
Tb7 O55 1_555 1_555
Ge8 O54 1_555 1_555
Ge8 O55 1_555 1_555
Ge13 O33 1_555 1_555
Ge14 O34 1_555 1_555
Ge14 O40 1_555 1_555
O18 C9 1_555 1_555
O26 C21 1_555 1_555
O28 C24 1_555 1_555
O42 C27 1_555 1_555
O52 Tb11 1_555 1_555
O57 Tb13 1_555 1_555
O60 C43 1_555 1_555
C20 C21 1_555 1_555
C23 C24 1_555 1_555
C26 C27 1_555 1_555
C38 C39 1_555 1_555
C46 C47 1_555 1_555
Tb13 O74 1_555 1_555
O53 H69 1_555 1_555
O58 H70 1_555 1_555
O65 H71 1_555 1_555
O65 H72 1_555 1_555
O70 H73 1_555 1_555
O70 H74 1_555 1_555
O66 H75 1_555 1_555
O66 H76 1_555 1_555
O67 H81 1_555 1_555
O67 H82 1_555 1_555
O69 H83 1_555 1_555
O69 H84 1_555 1_555
Tb11 O1 1_555 1_555
Tb2 O7 1_555 1_555
Ge1 O1 1_555 1_555
Ge2 O1 1_555 1_555
Ge3 O2 1_555 1_555
Ge4 O3 1_555 1_555
Ge5 O4 1_555 1_555
Ge6 O5 1_555 1_555
O2 Tb11 1_555 1_555
O3 Ge3 1_555 1_555
O4 Tb11 1_555 1_555
O5 Tb11 1_555 1_555
O6 Tb11 1_555 1_555
O7 Ge1 1_555 1_555
O10 Ge4 1_555 1_555
O11 Ge5 1_555 1_555
O12 Tb2 1_555 1_555
O13 Tb2 1_555 1_555
O76 C12 1_555 1_555
O21 Ge5 1_555 1_555
O22 C15 1_555 1_555
O23 C18 1_555 1_555
O24 C18 1_555 1_555
O63 Tb11 1_555 1_555
O64 Tb11 1_555 1_555
C1 Ge1 1_555 1_555
H5 C1 1_555 1_555
H6 C1 1_555 1_555
C2 C1 1_555 1_555
H7 C2 1_555 1_555
H8 C2 1_555 1_555
C3 O13 1_555 1_555
C4 Ge2 1_555 1_555
H10 C4 1_555 1_555
C5 C4 1_555 1_555
H11 C5 1_555 1_555
H12 C5 1_555 1_555
C7 Ge3 1_555 1_555
H13 C7 1_555 1_555
H14 C7 1_555 1_555
C8 C7 1_555 1_555
H15 C8 1_555 1_555
H16 C8 1_555 1_555
C10 Ge4 1_555 1_555
H17 C10 1_555 1_555
H18 C10 1_555 1_555
C11 C10 1_555 1_555
H20 C11 1_555 1_555
C12 C11 1_555 1_555
C13 Ge5 1_555 1_555
H21 C13 1_555 1_555
H22 C13 1_555 1_555
C14 C13 1_555 1_555
H23 C14 1_555 1_555
H24 C14 1_555 1_555
C15 O21 1_555 1_555
C16 Ge6 1_555 1_555
H25 C16 1_555 1_555
H26 C16 1_555 1_555
C17 C16 1_555 1_555
H27 C17 1_555 1_555
H28 C17 1_555 1_555
C18 C17 1_555 1_555
Tb14 O10 1_555 1_555
Tb15 O11 1_555 1_555
Tb16 O24 1_555 1_555
O92 Tb2 1_555 1_555
Ge1 O6 1_555 1_555
Ge2 O2 1_555 1_555
Ge3 O9 1_555 1_555
Ge4 O4 1_555 1_555
Ge5 O5 1_555 1_555
Ge6 O6 1_555 1_555
Ge6 O12 1_555 1_555
O11 Tb14 1_555 1_555
O12 Tb15 1_555 1_555
O21 Tb14 1_555 1_555
O23 Tb15 1_555 1_555
C2 C3 1_555 1_555
C14 C15 1_555 1_555
O63 H67 1_555 1_555
O63 H68 1_555 1_555
O64 H79 1_555 1_555
O64 H80 1_555 1_555
Tb21 O81 1_555 1_555
Tb9 O36 1_555 1_555
Ge11 O30 1_555 1_555
Ge12 O31 1_555 1_555
N3 C48 1_555 1_555
N4 C49 1_555 1_555
O37 Tb9 1_555 1_555
O38 Ge12 1_555 1_555
O43 Tb9 1_555 1_555
O44 C30 1_555 1_555
O45 C33 1_555 1_555
O86 C33 1_555 1_555
O47 C36 1_555 1_555
O62 Tb9 1_555 1_555
O68 Tb9 1_555 1_555
C28 Ge10 1_555 1_555
H41 C28 1_555 1_555
H42 C28 1_555 1_555
C29 C28 1_555 1_555
H43 C29 1_555 1_555
H44 C29 1_555 1_555
C30 O43 1_555 1_555
C31 Ge11 1_555 1_555
H45 C31 1_555 1_555
H46 C31 1_555 1_555
C32 C31 1_555 1_555
H47 C32 1_555 1_555
H48 C32 1_555 1_555
C33 C32 1_555 1_555
C34 Ge12 1_555 1_555
H49 C34 1_555 1_555
H50 C34 1_555 1_555
C35 C34 1_555 1_555
H51 C35 1_555 1_555
H52 C35 1_555 1_555
C36 C35 1_555 1_555
C48 H64 1_555 1_555
C49 C48 1_555 1_555
H65 C49 1_555 1_555
C50 N4 1_555 1_555
H66 C50 1_555 1_555
C51 N3 1_555 1_555
C52 O61 1_555 1_555
Ge10 O30 1_555 1_555
Ge10 O36 1_555 1_555
Ge11 O31 1_555 1_555
Ge11 O37 1_555 1_555
O62 C52 1_555 1_555
C29 C30 1_555 1_555
C50 C51 1_555 1_555
C51 C52 1_555 1_555
O68 H77 1_555 1_555
O68 H78 1_555 1_555
Tb17 O48 1_555 1_555
Tb20 O84 1_555 1_555
Tb21 O36_2 1_555 1_555
Ge11_2 O30_2 1_555 1_555
Ge12_2 O31_2 1_555 1_555
N3_2 C48_2 1_555 1_555
N4_2 C49_2 1_555 1_555
O82 Ge12_2 1_555 1_555
O43_2 Tb21 1_555 1_555
O44_2 C30_2 1_555 1_555
O85 C33_2 1_555 1_555
O46 C33_2 1_555 1_555
O87 C36_2 1_555 1_555
O62_2 Tb21 1_555 1_555
O68_2 Tb21 1_555 1_555
C28_2 Ge10_2 1_555 1_555
H41_2 C28_2 1_555 1_555
H42_2 C28_2 1_555 1_555
C29_2 C28_2 1_555 1_555
H43_2 C29_2 1_555 1_555
H44_2 C29_2 1_555 1_555
C30_2 O43_2 1_555 1_555
C31_2 Ge11_2 1_555 1_555
H45_2 C31_2 1_555 1_555
H46_2 C31_2 1_555 1_555
C32_2 C31_2 1_555 1_555
H47_2 C32_2 1_555 1_555
H48_2 C32_2 1_555 1_555
C33_2 C32_2 1_555 1_555
C34_2 Ge12_2 1_555 1_555
H49_2 C34_2 1_555 1_555
H50_2 C34_2 1_555 1_555
C35_2 C34_2 1_555 1_555
H51_2 C35_2 1_555 1_555
H52_2 C35_2 1_555 1_555
C36_2 C35_2 1_555 1_555
C48_2 H64_2 1_555 1_555
C49_2 C48_2 1_555 1_555
H65_2 C49_2 1_555 1_555
C50_2 N4_2 1_555 1_555
H66_2 C50_2 1_555 1_555
C51_2 N3_2 1_555 1_555
C52_2 O61_2 1_555 1_555
Tb20 O46 1_555 1_555
Ge10_2 O30_2 1_555 1_555
Ge10_2 O36_2 1_555 1_555
Ge11_2 O31_2 1_555 1_555
Ge11_2 O81 1_555 1_555
O62_2 C52_2 1_555 1_555
C29_2 C30_2 1_555 1_555
C50_2 C51_2 1_555 1_555
C51_2 C52_2 1_555 1_555
O68_2 H77_2 1_555 1_555
O68_2 H78_2 1_555 1_555
Tb1 O1_2 1_555 1_555
Tb13 O7_2 1_555 1_555
Ge1_2 O1_2 1_555 1_555
Ge2_2 O1_2 1_555 1_555
Ge3_2 O2_2 1_555 1_555
Ge4_2 O3_2 1_555 1_555
Ge5_2 O4_2 1_555 1_555
Ge6_2 O5_2 1_555 1_555
O2_2 Tb1 1_555 1_555
O3_2 Ge3_2 1_555 1_555
O4_2 Tb1 1_555 1_555
O5_2 Tb1 1_555 1_555
O6_2 Tb1 1_555 1_555
O7_2 Ge1_2 1_555 1_555
O72 Ge4_2 1_555 1_555
O73 Ge5_2 1_555 1_555
O13_2 Tb13 1_555 1_555
O19 C12_2 1_555 1_555
O78 Ge5_2 1_555 1_555
O22_2 C15_2 1_555 1_555
O79 C18_2 1_555 1_555
O80 C18_2 1_555 1_555
O63_2 Tb1 1_555 1_555
O64_2 Tb1 1_555 1_555
C1_2 Ge1_2 1_555 1_555
H5_2 C1_2 1_555 1_555
H6_2 C1_2 1_555 1_555
C2_2 C1_2 1_555 1_555
H7_2 C2_2 1_555 1_555
H8_2 C2_2 1_555 1_555
C3_2 O13_2 1_555 1_555
C4_2 Ge2_2 1_555 1_555
H10_2 C4_2 1_555 1_555
C5_2 C4_2 1_555 1_555
H11_2 C5_2 1_555 1_555
H12_2 C5_2 1_555 1_555
C7_2 Ge3_2 1_555 1_555
H13_2 C7_2 1_555 1_555
H14_2 C7_2 1_555 1_555
C8_2 C7_2 1_555 1_555
H15_2 C8_2 1_555 1_555
H16_2 C8_2 1_555 1_555
C10_2 Ge4_2 1_555 1_555
H17_2 C10_2 1_555 1_555
H18_2 C10_2 1_555 1_555
C11_2 C10_2 1_555 1_555
H20_2 C11_2 1_555 1_555
C12_2 C11_2 1_555 1_555
C13_2 Ge5_2 1_555 1_555
H21_2 C13_2 1_555 1_555
H22_2 C13_2 1_555 1_555
C14_2 C13_2 1_555 1_555
H23_2 C14_2 1_555 1_555
H24_2 C14_2 1_555 1_555
C15_2 O78 1_555 1_555
C16_2 Ge6_2 1_555 1_555
H25_2 C16_2 1_555 1_555
H26_2 C16_2 1_555 1_555
C17_2 C16_2 1_555 1_555
H27_2 C17_2 1_555 1_555
H28_2 C17_2 1_555 1_555
C18_2 C17_2 1_555 1_555
Tb22 O19 1_555 1_555
O90 Tb1 1_555 1_555
O91 Tb1 1_555 1_555
Ge1_2 O6_2 1_555 1_555
Ge2_2 O2_2 1_555 1_555
Ge3_2 O71 1_555 1_555
Ge4_2 O4_2 1_555 1_555
Ge5_2 O5_2 1_555 1_555
Ge6_2 O6_2 1_555 1_555
Ge6_2 O74 1_555 1_555
C2_2 C3_2 1_555 1_555
C14_2 C15_2 1_555 1_555
O63_2 H67_2 1_555 1_555
O63_2 H68_2 1_555 1_555
O64_2 H79_2 1_555 1_555
O64_2 H80_2 1_555 1_555
Tb15 O8_2 1_555 1_555
Tb16 N1_2 1_555 1_555
Tb18 O35_2 1_555 1_555
Tb20 O35_2 1_555 1_555
Tb22 O29_2 1_555 1_555
Ge7_2 O56_2 1_555 1_555
Ge8_2 O53_2 1_555 1_555
Ge9_2 O29_2 1_555 1_555
Ge13_2 O32_2 1_555 1_555
Ge14_2 O33_2 1_555 1_555
N1_2 C44_2 1_555 1_555
N2_2 C45_2 1_555 1_555
O8_2 Tb14 1_555 1_555
O15_2 Tb14 1_555 1_555
O16_2 C6_2 1_555 1_555
O17_2 Tb15 1_555 1_555
O18_2 Tb16 1_555 1_555
O25_2 Tb17 1_555 1_555
O26_2 Tb16 1_555 1_555
O27_2 Tb17 1_555 1_555
O28_2 Tb16 1_555 1_555
O32_2 Tb22 1_555 1_555
O33_2 Tb22 1_555 1_555
O34_2 Ge9_2 1_555 1_555
O35_2 Ge9_2 1_555 1_555
O83 Ge13_2 1_555 1_555
O41_2 Tb17 1_555 1_555
O42_2 Tb18 1_555 1_555
O89 Ge13_2 1_555 1_555
O50_2 C39_2 1_555 1_555
O90 C42_2 1_555 1_555
O91 C42_2 1_555 1_555
O53_2 H1_2 1_555 1_555
O54_2 Tb20 1_555 1_555
H2_2 O54_2 1_555 1_555
O55_2 Tb17 1_555 1_555
O56_2 Tb15 1_555 1_555
O92 Ge7_2 1_555 1_555
H3_2 O92 1_555 1_555
O58_2 Ge7_2 1_555 1_555
H4_2 O58_2 1_555 1_555
O59_2 Tb14 1_555 1_555
O60_2 Tb15 1_555 1_555
O65_2 Tb14 1_555 1_555
O66_2 Tb16 1_555 1_555
O67_2 Tb17 1_555 1_555
O69_2 Tb22 1_555 1_555
O70_2 Tb22 1_555 1_555
C6_2 O15_2 1_555 1_555
C9_2 O17_2 1_555 1_555
C19_2 Ge7_2 1_555 1_555
H29_2 C19_2 1_555 1_555
H30_2 C19_2 1_555 1_555
C20_2 C19_2 1_555 1_555
H31_2 C20_2 1_555 1_555
C21_2 O25_2 1_555 1_555
C22_2 Ge8_2 1_555 1_555
H33_2 C22_2 1_555 1_555
H34_2 C22_2 1_555 1_555
C23_2 C22_2 1_555 1_555
H35_2 C23_2 1_555 1_555
H36_2 C23_2 1_555 1_555
C24_2 O27_2 1_555 1_555
C25_2 Ge9_2 1_555 1_555
H37_2 C25_2 1_555 1_555
H38_2 C25_2 1_555 1_555
C26_2 C25_2 1_555 1_555
H39_2 C26_2 1_555 1_555
H40_2 C26_2 1_555 1_555
C27_2 O41_2 1_555 1_555
C37_2 Ge13_2 1_555 1_555
H53_2 C37_2 1_555 1_555
H54_2 C37_2 1_555 1_555
C38_2 C37_2 1_555 1_555
H55_2 C38_2 1_555 1_555
H56_2 C38_2 1_555 1_555
C39_2 O89 1_555 1_555
C40_2 Ge14_2 1_555 1_555
H57_2 C40_2 1_555 1_555
H58_2 C40_2 1_555 1_555
C41_2 C40_2 1_555 1_555
H59_2 C41_2 1_555 1_555
H60_2 C41_2 1_555 1_555
C42_2 C41_2 1_555 1_555
C43_2 O59_2 1_555 1_555
C44_2 C43_2 1_555 1_555
C45_2 C44_2 1_555 1_555
H61_2 C45_2 1_555 1_555
C46_2 N2_2 1_555 1_555
H62_2 C46_2 1_555 1_555
C47_2 N1_2 1_555 1_555
H63_2 C47_2 1_555 1_555
Tb16 O56_2 1_555 1_555
Tb16 O60_2 1_555 1_555
Tb18 O55_2 1_555 1_555
Ge8_2 O54_2 1_555 1_555
Ge8_2 O55_2 1_555 1_555
Ge13_2 O33_2 1_555 1_555
Ge14_2 O34_2 1_555 1_555
Ge14_2 O84 1_555 1_555
O18_2 C9_2 1_555 1_555
O26_2 C21_2 1_555 1_555
O28_2 C24_2 1_555 1_555
O42_2 C27_2 1_555 1_555
O60_2 C43_2 1_555 1_555
C20_2 C21_2 1_555 1_555
C23_2 C24_2 1_555 1_555
C26_2 C27_2 1_555 1_555
C38_2 C39_2 1_555 1_555
C46_2 C47_2 1_555 1_555
O53_2 H69_2 1_555 1_555
O58_2 H70_2 1_555 1_555
O65_2 H71_2 1_555 1_555
O65_2 H72_2 1_555 1_555
O70_2 H73_2 1_555 1_555
O70_2 H74_2 1_555 1_555
O66_2 H75_2 1_555 1_555
O66_2 H76_2 1_555 1_555
O67_2 H81_2 1_555 1_555
O67_2 H82_2 1_555 1_555
O69_2 H83_2 1_555 1_555
O69_2 H84_2 1_555 1_555

#END
