
###############################################################################
#
# This file contains modified crystal structure data generated from the
# MOF subset of the Cambridge Structural Database (CSD) v543 
# hosted by the Cambridge Crystallographic Data Centre (CCDC).
#
# This work is licensed under the Creative Commons
# Attribution-NonCommercial-ShareAlike 4.0 International License.
# To view a copy of this license, visit
# http://creativecommons.org/licenses/by-nc-sa/4.0/
# or send a letter to
# Creative Commons, PO Box 1866, Mountain View, CA 94042, USA.
#
# CIF created using the CSD Python API on 29 September 2022
# The structure has been converted into the P1 space group
# The structure has a 3D framework
# The original CSD entry INIREE is in the monoclinic crystal system
# The framework has been calculated to contain at least 10.0% void space
# The void calculation uses a probe of radius 1.32A, grid spacing 0.4
# H atom positions have been added when not included in the experimental data
#
###############################################################################

data_INIREE
_chemical_formula_moiety         '(C84 H164 Dy20 Ge24 O141)n'
_symmetry_cell_setting           triclinic
_symmetry_space_group_name_H-M   'P 1'
_symmetry_Int_Tables_number      1
_space_group_name_Hall           'P 1'
loop_
_symmetry_equiv_pos_site_id
_symmetry_equiv_pos_as_xyz
1 x,y,z
_cell_length_a                   14.7192(3)
_cell_length_b                   16.5170(3)
_cell_length_c                   21.7274(5)
_cell_angle_alpha                90
_cell_angle_beta                 94.451(2)
_cell_angle_gamma                90
_cell_volume                     5266.37
loop_
_atom_site_label
_atom_site_type_symbol
_atom_site_fract_x
_atom_site_fract_y
_atom_site_fract_z
Dy3 Dy 0.28948(3) 0.03870(3) 0.06875(2)
Dy5 Dy 0.08564(4) 0.13951(4) 0.17133(3)
O7 O 0.1387(6) 0.0370(6) 0.0369(4)
O8 O 0.0340(6) 0.1226(5) 0.0653(4)
O17 O 0.4347(6) 0.2954(5) 0.0589(4)
O18 O 0.4315(7) 0.4051(5) 0.1178(4)
O23 O 0.5602(5) 0.1872(4) 0.0224(3)
O24 O 0.3682(5) 0.1452(4) 0.0347(3)
O25 O 0.2215(6) 0.2035(6) 0.2124(4)
O26 O 0.2255(5) 0.1446(5) 0.1244(4)
O27 O 0.3475(5) 0.2168(5) 0.1624(4)
O28 O 0.0410(7) 0.2326(6) 0.2533(5)
O29 O 0.0819(8) 0.1074(7) 0.2779(5)
O36 O 0.0676(8) 0.2708(7) 0.1261(5)
C3 C 0.0763(8) 0.0879(8) 0.0234(6)
H18 H 0.5782 0.3819 0.0157
C16 C 0.2595(9) 0.3140(8) 0.0096(7)
H22 H 0.2189 0.2951 0.0396
C17 C 0.3134(10) 0.3848(9) 0.0371(7)
H23 H 0.3295 0.4199 0.0038
H24 H 0.2747 0.4156 0.0626
C18 C 0.3993(9) 0.3621(7) 0.0755(6)
C19 C 0.2661(7) 0.1907(6) 0.1666(5)
C20 C 0.0545(11) 0.1764(10) 0.2929(7)
C21 C 0.0398(17) 0.1933(14) 0.3593(8)
H25 H 0.0719 0.1538 0.3851
H27 H 0.0622 0.2464 0.3702
Dy6 Dy 0.48095(3) 0.17209(3) 0.10972(2)
Dy7 Dy 0.70351(3) 0.13557(3) 0.04074(2)
O43 O 0.4160(5) 0.0513(4) 0.1315(3)
H28 H 0.00321057 0.2784 0.109906
H29 H 0.0841088 0.312658 0.157821
Dy4 Dy 0.42662(3) 0.15784(3) 0.83856(2)
Ge1 Ge 0.22781(7) 0.06929(7) 0.91445(5)
Ge4 Ge 0.65579(7) 0.14767(7) 0.87100(5)
Ge5 Ge 0.53988(8) 0.25600(6) 0.96219(5)
Ge6 Ge 0.33141(8) 0.22323(7) 0.98473(5)
O1 O 0.2897(5) 0.0590(5) 0.8463(3)
O2 O 0.4315(5) 0.0216(4) 0.7960(3)
O3 O 0.5743(5) 0.1026(4) 0.8158(3)
O4 O 0.5690(5) 0.2176(4) 0.8896(3)
O5 O 0.4198(5) 0.2440(4) 0.9348(3)
O6 O 0.2510(5) 0.1728(5) 0.9309(4)
O13 O 0.7508(5) 0.0249(5) 0.8375(4)
O14 O 0.8968(6) 0.0045(6) 0.8221(5)
O15 O 0.7099(6) 0.2555(5) 0.9771(4)
O16 O 0.8191(8) 0.3419(7) 0.9621(8)
O19 O 0.2862(5) 0.0047(4) 0.9670(3)
O22 O 0.6816(5) 0.0939(4) 0.9393(3)
O30 O 0.4608(5) 0.0721(4) 0.9285(3)
O31 O 0.2963(6) 0.2441(5) 0.8219(4)
O32 O 0.3620(6) 0.1466(5) 0.7305(4)
C1 C 0.0961(8) 0.0630(8) 0.9069(6)
H1 H 0.0742 0.0833 0.8666
H2 H 0.0785 0.0065 0.9089
C2 C 0.0487(9) 0.1097(9) 0.9559(6)
H4 H 0.0604 0.1670 0.9504
H9 H 0.5959 0.0169 0.6961
C10 C 0.7566(8) 0.1930(8) 0.8304(6)
H13 H 0.7369 0.2023 0.7873
H14 H 0.7722 0.2451 0.8489
C11 C 0.8420(10) 0.1402(9) 0.8337(9)
H15 H 0.8785 0.1564 0.8005
H16 H 0.8773 0.1521 0.8722
C12 C 0.8288(9) 0.0498(9) 0.8297(6)
C13 C 0.5731(9) 0.3683(7) 0.9722(6)
H17 H 0.5256 0.4019 0.9519
C14 C 0.6629(10) 0.3859(9) 0.9449(8)
H19 H 0.6833 0.4396 0.9575
H20 H 0.6532 0.3857 0.9002
C15 C 0.7380(9) 0.3248(8) 0.9645(7)
H21 H 0.2220 0.3330 0.9738
O38 O 0.4815(6) 0.2629(5) 0.7801(4)
H34 H 0.297774 0.16552 0.727486
H35 H 0.398067 0.180522 0.70358
H38 H 0.461925 0.0145467 0.91537
H39 H 0.521188 0.0871647 0.948824
H40 H 0.260142 0.242252 0.858604
H41 H 0.316651 0.300516 0.81519
O39 O 0.2492(5) 0.9751(5) 0.1625(4)
O40 O 0.1032(6) 0.9955(6) 0.1779(5)
O41 O 0.2901(6) 0.7445(5) 0.0229(4)
O44 O 0.3184(5) 0.9061(4) 0.0607(3)
H37 H 0.138737 0.803885 0.015472
Dy1 Dy 0.51905(3) 0.82791(3) 0.89028(2)
Dy2 Dy 0.29649(3) 0.86443(3) 0.95926(2)
Ge2 Ge 0.33705(7) 0.96430(7) 0.82309(5)
Ge3 Ge 0.54942(7) 0.99655(6) 0.79944(5)
O9 O 0.2067(5) 0.9131(5) 0.8655(3)
O10 O 0.0676(6) 0.8739(7) 0.8314(4)
O11 O 0.4894(5) 0.8640(4) 0.7811(3)
O12 O 0.5185(6) 0.7629(5) 0.7199(4)
O20 O 0.3876(5) 0.9057(4) 0.8827(3)
O21 O 0.5840(5) 0.9487(4) 0.8685(3)
O33 O 0.1414(6) 0.8311(6) 0.9749(5)
O34 O 0.2774(6) 0.7481(5) 0.8874(5)
O35 O 0.4465(6) 0.7101(5) 0.8334(4)
C4 C 0.2738(8) 0.9158(8) 0.7515(5)
H5 H 0.2809 0.9504 0.7162
H6 H 0.3024 0.8643 0.7436
C5 C 0.1728(8) 0.9015(10) 0.7569(6)
H7 H 0.1387 0.9453 0.7361
H8 H 0.1552 0.8516 0.7357
C6 C 0.1469(8) 0.8963(8) 0.8224(6)
C7 C 0.6003(8) 0.9699(7) 0.7229(5)
H10 H 0.6645 0.9574 0.7314
C8 C 0.5535(11) 0.8984(8) 0.6890(7)
H11 H 0.5026 0.9182 0.6622
H12 H 0.5962 0.8727 0.6633
C9 C 0.5195(8) 0.8364(7) 0.7326(5)
Dy8 Dy 0.71052(3) 0.96130(3) 0.93125(2)
Dy9 Dy 0.57338(3) 0.65784(3) 0.66144(2)
Dy11 Dy 0.91436(4) 0.86049(4) 0.82867(3)
O42 O 0.5653(6) 0.7046(5) 0.9411(4)
O45 O 0.4398(5) 0.8128(4) 0.9776(3)
O46 O 0.6318(5) 0.8548(4) 0.9653(3)
O47 O 0.6525(5) 0.7832(5) 0.8376(4)
H30 H 0.485531 0.692561 0.800581
H31 H 0.439494 0.664701 0.862616
H32 H 0.304892 0.7614 0.848327
H33 H 0.308168 0.699781 0.906559
H36 H 0.116885 0.794229 0.941534
H26 H 0.9759 0.1905 0.3651
O37 O 0.9324(6) 0.1261(7) 0.1686(4)
H3 H 0.0164 0.6015 0.5515
H26_2 H 0.0241 0.6905 0.1349
Dy10 Dy 0.08564(4) 0.36049(4) 0.67133(3)
O37_2 O 0.0676(6) 0.6261(7) 0.3314(4)
Dy1_2 Dy 0.48095(3) 0.32791(3) 0.60972(2)
Dy2_2 Dy 0.70351(3) 0.36443(3) 0.54074(2)
Dy3_2 Dy 0.71052(3) 0.53870(3) 0.43125(2)
Dy5_2 Dy 0.91436(4) 0.63951(4) 0.32867(3)
Ge1_2 Ge 0.77219(7) 0.56929(7) 0.58555(5)
Ge2_2 Ge 0.66295(7) 0.46430(7) 0.67691(5)
Ge3_2 Ge 0.45058(7) 0.49655(6) 0.70056(5)
Ge4_2 Ge 0.34421(7) 0.64767(7) 0.62900(5)
Ge5_2 Ge 0.46012(8) 0.75600(6) 0.53781(5)
Ge6_2 Ge 0.66859(8) 0.72323(7) 0.51527(5)
O1_2 O 0.7103(5) 0.5590(5) 0.6537(3)
O2_2 O 0.5685(5) 0.5216(4) 0.7040(3)
O3_2 O 0.4257(5) 0.6026(4) 0.6842(3)
O4_2 O 0.4310(5) 0.7176(4) 0.6104(3)
O5_2 O 0.5802(5) 0.7440(4) 0.5652(3)
O6_2 O 0.7490(5) 0.6728(5) 0.5691(4)
O7_2 O 0.8613(6) 0.5370(6) 0.4631(4)
O8_2 O 0.9660(6) 0.6226(5) 0.4347(4)
O9_2 O 0.7933(5) 0.4131(5) 0.6345(3)
O10_2 O 0.9324(6) 0.3739(7) 0.6686(4)
O11_2 O 0.5106(5) 0.3640(4) 0.7189(3)
O13_2 O 0.2492(5) 0.5249(5) 0.6625(4)
O14_2 O 0.1032(6) 0.5045(6) 0.6779(5)
O15_2 O 0.2901(6) 0.7555(5) 0.5229(4)
O16_2 O 0.1809(8) 0.8419(7) 0.5379(8)
O17_2 O 0.5653(6) 0.7954(5) 0.4411(4)
O18_2 O 0.5685(7) 0.9051(5) 0.3822(4)
O19_2 O 0.7138(5) 0.5047(4) 0.5330(3)
O20_2 O 0.6124(5) 0.4057(4) 0.6173(3)
O21_2 O 0.4160(5) 0.4487(4) 0.6315(3)
O22_2 O 0.3184(5) 0.5939(4) 0.5607(3)
O23_2 O 0.4398(5) 0.6872(4) 0.4776(3)
O24_2 O 0.6318(5) 0.6452(4) 0.4653(3)
O25_2 O 0.7785(6) 0.7035(6) 0.2876(4)
O26_2 O 0.7745(5) 0.6446(5) 0.3756(4)
O27_2 O 0.6525(5) 0.7168(5) 0.3376(4)
O28_2 O 0.9590(7) 0.7326(6) 0.2467(5)
O29_2 O 0.9181(8) 0.6074(7) 0.2221(5)
O30_2 O 0.5392(5) 0.5721(4) 0.5715(3)
O31_2 O 0.7037(6) 0.7441(5) 0.6781(4)
O32_2 O 0.6380(6) 0.6466(5) 0.7695(4)
O33_2 O 0.8586(6) 0.3311(6) 0.5251(5)
O34_2 O 0.7226(6) 0.2481(5) 0.6126(5)
O35_2 O 0.5535(6) 0.2101(5) 0.6666(4)
O36_2 O 0.9324(8) 0.7708(7) 0.3739(5)
C1_2 C 0.9039(8) 0.5630(8) 0.5931(6)
H1_2 H 0.9258 0.5833 0.6334
H2_2 H 0.9215 0.5065 0.5911
C2_2 C 0.9513(9) 0.6097(9) 0.5441(6)
H4_2 H 0.9396 0.6670 0.5496
C3_2 C 0.9237(8) 0.5879(8) 0.4766(6)
C4_2 C 0.7262(8) 0.4158(8) 0.7485(5)
H5_2 H 0.7191 0.4504 0.7838
H6_2 H 0.6976 0.3643 0.7564
C5_2 C 0.8272(8) 0.4015(10) 0.7431(6)
H7_2 H 0.8613 0.4453 0.7639
H8_2 H 0.8448 0.3516 0.7643
C6_2 C 0.8531(8) 0.3963(8) 0.6776(6)
C7_2 C 0.3997(8) 0.4699(7) 0.7771(5)
H9_2 H 0.4041 0.5169 0.8039
H10_2 H 0.3355 0.4574 0.7686
C8_2 C 0.4465(11) 0.3984(8) 0.8110(7)
H11_2 H 0.4974 0.4182 0.8378
H12_2 H 0.4038 0.3727 0.8367
C9_2 C 0.4805(8) 0.3364(7) 0.7674(5)
C10_2 C 0.2434(8) 0.6930(8) 0.6696(6)
H13_2 H 0.2631 0.7023 0.7127
H14_2 H 0.2278 0.7451 0.6511
C11_2 C 0.1580(10) 0.6402(9) 0.6663(9)
H15_2 H 0.1215 0.6564 0.6995
H16_2 H 0.1227 0.6521 0.6278
C12_2 C 0.1712(9) 0.5498(9) 0.6703(6)
C13_2 C 0.4269(9) 0.8683(7) 0.5278(6)
H17_2 H 0.4744 0.9019 0.5481
H18_2 H 0.4218 0.8819 0.4843
C14_2 C 0.3371(10) 0.8859(9) 0.5551(8)
H19_2 H 0.3167 0.9396 0.5425
H20_2 H 0.3468 0.8857 0.5998
C15_2 C 0.2620(9) 0.8248(8) 0.5355(7)
C16_2 C 0.7405(9) 0.8140(8) 0.4904(7)
H21_2 H 0.7780 0.8330 0.5262
H22_2 H 0.7811 0.7951 0.4604
C17_2 C 0.6866(10) 0.8848(9) 0.4629(7)
H23_2 H 0.6705 0.9199 0.4962
H24_2 H 0.7253 0.9156 0.4374
C18_2 C 0.6007(9) 0.8621(7) 0.4245(6)
C19_2 C 0.7339(7) 0.6907(6) 0.3334(5)
C20_2 C 0.9455(11) 0.6764(10) 0.2071(7)
C21_2 C 0.9602(17) 0.6933(14) 0.1407(8)
H25_2 H 0.9281 0.6538 0.1149
H27_2 H 0.9378 0.7464 0.1298
Dy6_2 Dy 0.51905(3) 0.67209(3) 0.39028(2)
Dy7_2 Dy 0.29649(3) 0.63557(3) 0.45926(2)
Dy8_2 Dy 0.28948(3) 0.46130(3) 0.56875(2)
O39_2 O 0.7508(5) 0.4751(5) 0.3375(4)
O40_2 O 0.8968(6) 0.4955(6) 0.3221(5)
O41_2 O 0.7099(6) 0.2445(5) 0.4771(4)
O42_2 O 0.4347(6) 0.2046(5) 0.5589(4)
O43_2 O 0.5840(5) 0.5513(4) 0.3685(3)
O44_2 O 0.6816(5) 0.4061(4) 0.4393(3)
O45_2 O 0.5602(5) 0.3128(4) 0.5224(3)
O46_2 O 0.3682(5) 0.3548(4) 0.5347(3)
O47_2 O 0.3475(5) 0.2832(5) 0.6624(4)
H28_2 H 0.996789 0.7784 0.390094
H29_2 H 0.915891 0.812658 0.342179
H30_2 H 0.514469 0.192561 0.699419
H31_2 H 0.560506 0.164701 0.637384
H32_2 H 0.695108 0.2614 0.651673
H33_2 H 0.691832 0.199781 0.593441
H34_2 H 0.702226 0.66552 0.772514
H35_2 H 0.601933 0.680522 0.79642
H36_2 H 0.883115 0.294229 0.558466
H37_2 H 0.861263 0.303885 0.484528
H38_2 H 0.538075 0.514547 0.58463
H39_2 H 0.478812 0.587165 0.551176
H40_2 H 0.739858 0.742252 0.641396
H41_2 H 0.683349 0.800516 0.68481
H26_3 H 0.0241 0.8095 0.6349
Ge2_3 Ge 0.66295(7) 0.03570(7) 0.17691(5)
Ge3_3 Ge 0.45058(7) 0.00345(6) 0.20056(5)
O9_3 O 0.7933(5) 0.0869(5) 0.1345(3)
O11_3 O 0.5106(5) 0.1360(4) 0.2189(3)
O12_2 O 0.4815(6) 0.2371(5) 0.2801(4)
O20_3 O 0.6124(5) 0.0943(4) 0.1173(3)
O33_3 O 0.8586(6) 0.1689(6) 0.0251(5)
O34_3 O 0.7226(6) 0.2519(5) 0.1126(5)
O35_3 O 0.5535(6) 0.2899(5) 0.1666(4)
C4_3 C 0.7262(8) 0.0842(8) 0.2485(5)
H5_3 H 0.7191 0.0496 0.2838
H6_3 H 0.6976 0.1357 0.2564
C5_3 C 0.8272(8) 0.0985(10) 0.2431(6)
H7_3 H 0.8613 0.0547 0.2639
H8_3 H 0.8448 0.1484 0.2643
C6_3 C 0.8531(8) 0.1037(8) 0.1776(6)
C7_3 C 0.3997(8) 0.0301(7) 0.2771(5)
H10_3 H 0.3355 0.0426 0.2686
C8_3 C 0.4465(11) 0.1016(8) 0.3110(7)
H11_3 H 0.4974 0.0818 0.3378
H12_3 H 0.4038 0.1273 0.3367
C9_3 C 0.4805(8) 0.1636(7) 0.2674(5)
Dy9_2 Dy 0.42662(3) 0.34216(3) 0.33856(2)
H30_3 H 0.514469 0.307439 0.199419
H31_3 H 0.560506 0.335299 0.137384
H32_3 H 0.695108 0.2386 0.151673
H33_3 H 0.691832 0.300219 0.0934414
H36_3 H 0.883115 0.205771 0.058466
H37_3 H 0.861263 0.196115 0.984528
Dy4_2 Dy 0.57338(3) 0.84216(3) 0.16144(2)
Ge1_3 Ge 0.77219(7) 0.93071(7) 0.08555(5)
Ge4_3 Ge 0.34421(7) 0.85233(7) 0.12900(5)
Ge5_3 Ge 0.46012(8) 0.74400(6) 0.03781(5)
Ge6_3 Ge 0.66859(8) 0.77677(7) 0.01527(5)
O1_3 O 0.7103(5) 0.9410(5) 0.1537(3)
O2_3 O 0.5685(5) 0.9784(4) 0.2040(3)
O3_3 O 0.4257(5) 0.8974(4) 0.1842(3)
O4_3 O 0.4310(5) 0.7824(4) 0.1104(3)
O5_3 O 0.5802(5) 0.7560(4) 0.0652(3)
O6_3 O 0.7490(5) 0.8272(5) 0.0691(4)
O16_3 O 0.1809(8) 0.6581(7) 0.0379(8)
O19_3 O 0.7138(5) 0.9953(4) 0.0330(3)
O30_3 O 0.5392(5) 0.9279(4) 0.0715(3)
O31_3 O 0.7037(6) 0.7559(5) 0.1781(4)
O32_3 O 0.6380(6) 0.8534(5) 0.2695(4)
C1_3 C 0.9039(8) 0.9370(8) 0.0931(6)
H1_3 H 0.9258 0.9167 0.1334
H2_3 H 0.9215 0.9935 0.0911
C2_3 C 0.9513(9) 0.8903(9) 0.0441(6)
H4_3 H 0.9396 0.8330 0.0496
H9_3 H 0.4041 0.9831 0.3039
C10_3 C 0.2434(8) 0.8070(8) 0.1696(6)
H13_3 H 0.2631 0.7977 0.2127
H14_3 H 0.2278 0.7549 0.1511
C11_3 C 0.1580(10) 0.8598(9) 0.1663(9)
H15_3 H 0.1215 0.8436 0.1995
H16_3 H 0.1227 0.8479 0.1278
C12_3 C 0.1712(9) 0.9502(9) 0.1703(6)
C13_3 C 0.4269(9) 0.6317(7) 0.0278(6)
H17_3 H 0.4744 0.5981 0.0481
C14_3 C 0.3371(10) 0.6141(9) 0.0551(8)
H19_3 H 0.3167 0.5604 0.0425
H20_3 H 0.3468 0.6143 0.0998
C15_3 C 0.2620(9) 0.6752(8) 0.0355(7)
H21_3 H 0.7780 0.6670 0.0262
O38_2 O 0.5185(6) 0.7371(5) 0.2199(4)
H34_3 H 0.702226 0.83448 0.272514
H35_3 H 0.601933 0.819478 0.29642
H38_3 H 0.538075 0.985453 0.0846302
H39_3 H 0.478812 0.912835 0.0511764
H40_3 H 0.739858 0.757748 0.141396
H41_3 H 0.683349 0.699484 0.18481
O7_3 O 0.8613(6) 0.9630(6) 0.9631(4)
O8_3 O 0.9660(6) 0.8774(5) 0.9347(4)
O18_3 O 0.5685(7) 0.5949(5) 0.8822(4)
O25_3 O 0.7785(6) 0.7965(6) 0.7876(4)
O26_3 O 0.7745(5) 0.8554(5) 0.8756(4)
O28_3 O 0.9590(7) 0.7674(6) 0.7467(5)
O29_3 O 0.9181(8) 0.8926(7) 0.7221(5)
O36_3 O 0.9324(8) 0.7292(7) 0.8739(5)
C3_3 C 0.9237(8) 0.9121(8) 0.9766(6)
H18_3 H 0.4218 0.6181 0.9843
C16_3 C 0.7405(9) 0.6860(8) 0.9904(7)
H22_3 H 0.7811 0.7049 0.9604
C17_3 C 0.6866(10) 0.6152(9) 0.9629(7)
H23_3 H 0.6705 0.5801 0.9962
H24_3 H 0.7253 0.5844 0.9374
C18_3 C 0.6007(9) 0.6379(7) 0.9245(6)
C19_3 C 0.7339(7) 0.8093(6) 0.8334(5)
C20_3 C 0.9455(11) 0.8236(10) 0.7071(7)
C21_3 C 0.9602(17) 0.8067(14) 0.6407(8)
H25_3 H 0.9281 0.8462 0.6149
H27_3 H 0.9378 0.7536 0.6298
H28_3 H 0.996789 0.7216 0.890094
H29_3 H 0.915891 0.687342 0.842179
Ge1_4 Ge 0.22781(7) 0.43071(7) 0.41445(5)
Ge2_4 Ge 0.33705(7) 0.53570(7) 0.32309(5)
Ge3_4 Ge 0.54942(7) 0.50345(6) 0.29944(5)
Ge4_4 Ge 0.65579(7) 0.35233(7) 0.37100(5)
Ge5_4 Ge 0.53988(8) 0.24400(6) 0.46219(5)
Ge6_4 Ge 0.33141(8) 0.27677(7) 0.48473(5)
O1_4 O 0.2897(5) 0.4410(5) 0.3463(3)
O2_4 O 0.4315(5) 0.4784(4) 0.2960(3)
O3_4 O 0.5743(5) 0.3974(4) 0.3158(3)
O4_4 O 0.5690(5) 0.2824(4) 0.3896(3)
O5_4 O 0.4198(5) 0.2560(4) 0.4348(3)
O6_4 O 0.2510(5) 0.3272(5) 0.4309(4)
O7_4 O 0.1387(6) 0.4630(6) 0.5369(4)
O8_4 O 0.0340(6) 0.3774(5) 0.5653(4)
O9_4 O 0.2067(5) 0.5869(5) 0.3655(3)
O11_4 O 0.4894(5) 0.6360(4) 0.2811(3)
O16_4 O 0.8191(8) 0.1581(7) 0.4621(8)
O18_4 O 0.4315(7) 0.0949(5) 0.6178(4)
O19_4 O 0.2862(5) 0.4953(4) 0.4670(3)
O20_4 O 0.3876(5) 0.5943(4) 0.3827(3)
O25_4 O 0.2215(6) 0.2965(6) 0.7124(4)
O26_4 O 0.2255(5) 0.3554(5) 0.6244(4)
O28_4 O 0.0410(7) 0.2674(6) 0.7533(5)
O29_4 O 0.0819(8) 0.3926(7) 0.7779(5)
O30_4 O 0.4608(5) 0.4279(4) 0.4285(3)
O31_4 O 0.2963(6) 0.2559(5) 0.3219(4)
O32_4 O 0.3620(6) 0.3534(5) 0.2305(4)
O33_4 O 0.1414(6) 0.6689(6) 0.4749(5)
O34_4 O 0.2774(6) 0.7519(5) 0.3874(5)
O35_4 O 0.4465(6) 0.7899(5) 0.3334(4)
O36_4 O 0.0676(8) 0.2292(7) 0.6261(5)
C1_4 C 0.0961(8) 0.4370(8) 0.4069(6)
H1_4 H 0.0742 0.4167 0.3666
H2_4 H 0.0785 0.4935 0.4089
C2_4 C 0.0487(9) 0.3903(9) 0.4559(6)
H4_4 H 0.0604 0.3330 0.4504
C3_4 C 0.0763(8) 0.4121(8) 0.5234(6)
C4_4 C 0.2738(8) 0.5842(8) 0.2515(5)
H5_4 H 0.2809 0.5496 0.2162
H6_4 H 0.3024 0.6357 0.2436
C5_4 C 0.1728(8) 0.5985(10) 0.2569(6)
H7_4 H 0.1387 0.5547 0.2361
H8_4 H 0.1552 0.6484 0.2357
C6_4 C 0.1469(8) 0.6037(8) 0.3224(6)
C7_4 C 0.6003(8) 0.5301(7) 0.2229(5)
H9_4 H 0.5959 0.4831 0.1961
H10_4 H 0.6645 0.5426 0.2314
C8_4 C 0.5535(11) 0.6016(8) 0.1890(7)
H11_4 H 0.5026 0.5818 0.1622
H12_4 H 0.5962 0.6273 0.1633
C9_4 C 0.5195(8) 0.6636(7) 0.2326(5)
C10_4 C 0.7566(8) 0.3070(8) 0.3304(6)
H13_4 H 0.7369 0.2977 0.2873
H14_4 H 0.7722 0.2549 0.3489
C11_4 C 0.8420(10) 0.3598(9) 0.3337(9)
H15_4 H 0.8785 0.3436 0.3005
H16_4 H 0.8773 0.3479 0.3722
C12_4 C 0.8288(9) 0.4502(9) 0.3297(6)
C13_4 C 0.5731(9) 0.1317(7) 0.4722(6)
H17_4 H 0.5256 0.0981 0.4519
H18_4 H 0.5782 0.1181 0.5157
C14_4 C 0.6629(10) 0.1141(9) 0.4449(8)
H19_4 H 0.6833 0.0604 0.4575
H20_4 H 0.6532 0.1143 0.4002
C15_4 C 0.7380(9) 0.1752(8) 0.4645(7)
C16_4 C 0.2595(9) 0.1860(8) 0.5096(7)
H21_4 H 0.2220 0.1670 0.4738
H22_4 H 0.2189 0.2049 0.5396
C17_4 C 0.3134(10) 0.1152(9) 0.5371(7)
H23_4 H 0.3295 0.0801 0.5038
H24_4 H 0.2747 0.0844 0.5626
C18_4 C 0.3993(9) 0.1379(7) 0.5755(6)
C19_4 C 0.2661(7) 0.3093(6) 0.6666(5)
C20_4 C 0.0545(11) 0.3236(10) 0.7929(7)
C21_4 C 0.0398(17) 0.3067(14) 0.8593(8)
H25_4 H 0.0719 0.3462 0.8851
H27_4 H 0.0622 0.2536 0.8702
H28_4 H 0.00321057 0.2216 0.609906
H29_4 H 0.0841088 0.187342 0.657821
H30_4 H 0.485531 0.807439 0.300581
H31_4 H 0.439494 0.835299 0.362616
H32_4 H 0.304892 0.7386 0.348327
H33_4 H 0.308168 0.800219 0.406559
H34_4 H 0.297774 0.33448 0.227486
H35_4 H 0.398067 0.319478 0.20358
H36_4 H 0.116885 0.705771 0.441534
H37_4 H 0.138737 0.696115 0.515472
H38_4 H 0.461925 0.485453 0.41537
H39_4 H 0.521188 0.412835 0.448824
H40_4 H 0.260142 0.257748 0.358604
H41_4 H 0.316651 0.199484 0.31519
H3_2 H 0.9836 0.3985 0.4485
H26_4 H 0.9759 0.3095 0.8651
H3_3 H 0.9836 0.1015 0.9485
H3_4 H 0.0164 0.8985 0.0515
loop_
_geom_bond_atom_site_label_1
_geom_bond_atom_site_label_2
_geom_bond_site_symmetry_1
_geom_bond_site_symmetry_2
Dy3 O7 1_555 1_555
Dy5 O8 1_555 1_555
O7 C3 1_555 1_555
O8 C3 1_555 1_555
O17 C18 1_555 1_555
O18 C18 1_555 1_555
O24 Dy3 1_555 1_555
O25 Dy5 1_555 1_555
O26 Dy3 1_555 1_555
O27 C19 1_555 1_555
O28 Dy5 1_555 1_555
O29 Dy5 1_555 1_555
O36 Dy5 1_555 1_555
H22 C16 1_555 1_555
C17 C16 1_555 1_555
H23 C17 1_555 1_555
H24 C17 1_555 1_555
C18 C17 1_555 1_555
C19 O25 1_555 1_555
C20 O28 1_555 1_555
C21 C20 1_555 1_555
H25 C21 1_555 1_555
H27 C21 1_555 1_555
Dy6 O17 1_555 1_555
O43 Dy3 1_555 1_555
Dy5 O26 1_555 1_555
O23 Dy6 1_555 1_555
O23 Dy7 1_555 1_555
O24 Dy6 1_555 1_555
O26 C19 1_555 1_555
O27 Dy6 1_555 1_555
O29 C20 1_555 1_555
Dy6 O43 1_555 1_555
O36 H28 1_555 1_555
O36 H29 1_555 1_555
Dy4 O1 1_555 1_555
Ge1 O1 1_555 1_555
Ge4 O3 1_555 1_555
Ge5 O4 1_555 1_555
Ge6 O5 1_555 1_555
O2 Dy4 1_555 1_555
O3 Dy4 1_555 1_555
O4 Dy4 1_555 1_555
O5 Dy4 1_555 1_555
O6 Ge1 1_555 1_555
O13 C12 1_555 1_555
O14 C12 1_555 1_555
O15 C15 1_555 1_555
O16 C15 1_555 1_555
O22 Ge4 1_555 1_555
O30 Dy4 1_555 1_555
O31 Dy4 1_555 1_555
O32 Dy4 1_555 1_555
C1 Ge1 1_555 1_555
H1 C1 1_555 1_555
H2 C1 1_555 1_555
C2 C1 1_555 1_555
H4 C2 1_555 1_555
C10 Ge4 1_555 1_555
H13 C10 1_555 1_555
H14 C10 1_555 1_555
C11 C10 1_555 1_555
H15 C11 1_555 1_555
H16 C11 1_555 1_555
C12 C11 1_555 1_555
C13 Ge5 1_555 1_555
H17 C13 1_555 1_555
C14 C13 1_555 1_555
H19 C14 1_555 1_555
H20 C14 1_555 1_555
C15 C14 1_555 1_555
O38 Dy4 1_555 1_555
Ge1 O19 1_555 1_555
Ge4 O4 1_555 1_555
Ge5 O5 1_555 1_555
Ge6 O6 1_555 1_555
O32 H34 1_555 1_555
O32 H35 1_555 1_555
O30 H38 1_555 1_555
O30 H39 1_555 1_555
O31 H40 1_555 1_555
O31 H41 1_555 1_555
Dy1 O11 1_555 1_555
Dy2 O9 1_555 1_555
O9 C6 1_555 1_555
O10 C6 1_555 1_555
O11 C9 1_555 1_555
O12 C9 1_555 1_555
O20 Dy1 1_555 1_555
O21 Dy1 1_555 1_555
O33 Dy2 1_555 1_555
O34 Dy2 1_555 1_555
O35 Dy1 1_555 1_555
C4 Ge2 1_555 1_555
H5 C4 1_555 1_555
H6 C4 1_555 1_555
C5 C4 1_555 1_555
H7 C5 1_555 1_555
H8 C5 1_555 1_555
C6 C5 1_555 1_555
C7 Ge3 1_555 1_555
H10 C7 1_555 1_555
C8 C7 1_555 1_555
H11 C8 1_555 1_555
H12 C8 1_555 1_555
C9 C8 1_555 1_555
Dy9 O12 1_555 1_555
O42 Dy1 1_555 1_555
O45 Dy1 1_555 1_555
O46 Dy1 1_555 1_555
O47 Dy1 1_555 1_555
Dy2 O20 1_555 1_555
Dy2 O45 1_555 1_555
Ge2 O20 1_555 1_555
Ge3 O21 1_555 1_555
O21 Dy8 1_555 1_555
Dy8 O46 1_555 1_555
O35 H30 1_555 1_555
O35 H31 1_555 1_555
O34 H32 1_555 1_555
O34 H33 1_555 1_555
O33 H36 1_555 1_555
Dy1_2 O11_2 1_555 1_555
Dy2_2 O9_2 1_555 1_555
Dy3_2 O7_2 1_555 1_555
Dy9 O1_2 1_555 1_555
Dy5_2 O8_2 1_555 1_555
Ge1_2 O1_2 1_555 1_555
Ge2_2 O1_2 1_555 1_555
Ge3_2 O2_2 1_555 1_555
Ge4_2 O3_2 1_555 1_555
Ge5_2 O4_2 1_555 1_555
Ge6_2 O5_2 1_555 1_555
O2_2 Dy9 1_555 1_555
O3_2 Dy9 1_555 1_555
O4_2 Dy9 1_555 1_555
O5_2 Dy9 1_555 1_555
O6_2 Ge1_2 1_555 1_555
O7_2 C3_2 1_555 1_555
O8_2 C3_2 1_555 1_555
O9_2 C6_2 1_555 1_555
O10_2 C6_2 1_555 1_555
O11_2 C9_2 1_555 1_555
O38 C9_2 1_555 1_555
O13_2 C12_2 1_555 1_555
O14_2 C12_2 1_555 1_555
O15_2 C15_2 1_555 1_555
O16_2 C15_2 1_555 1_555
O17_2 C18_2 1_555 1_555
O18_2 C18_2 1_555 1_555
O19_2 Dy2_2 1_555 1_555
O20_2 Dy1_2 1_555 1_555
O21_2 Dy1_2 1_555 1_555
O22_2 Ge4_2 1_555 1_555
O23_2 Ge5_2 1_555 1_555
O24_2 Dy3_2 1_555 1_555
O25_2 Dy5_2 1_555 1_555
O26_2 Dy3_2 1_555 1_555
O27_2 C19_2 1_555 1_555
O28_2 Dy5_2 1_555 1_555
O29_2 Dy5_2 1_555 1_555
O30_2 Dy9 1_555 1_555
O31_2 Dy9 1_555 1_555
O32_2 Dy9 1_555 1_555
O33_2 Dy2_2 1_555 1_555
O34_2 Dy2_2 1_555 1_555
O35_2 Dy1_2 1_555 1_555
O36_2 Dy5_2 1_555 1_555
C1_2 Ge1_2 1_555 1_555
H1_2 C1_2 1_555 1_555
H2_2 C1_2 1_555 1_555
C2_2 C1_2 1_555 1_555
H4_2 C2_2 1_555 1_555
C3_2 C2_2 1_555 1_555
C4_2 Ge2_2 1_555 1_555
H5_2 C4_2 1_555 1_555
H6_2 C4_2 1_555 1_555
C5_2 C4_2 1_555 1_555
H7_2 C5_2 1_555 1_555
H8_2 C5_2 1_555 1_555
C6_2 C5_2 1_555 1_555
C7_2 Ge3_2 1_555 1_555
H9_2 C7_2 1_555 1_555
H10_2 C7_2 1_555 1_555
C8_2 C7_2 1_555 1_555
H11_2 C8_2 1_555 1_555
H12_2 C8_2 1_555 1_555
C9_2 C8_2 1_555 1_555
C10_2 Ge4_2 1_555 1_555
H13_2 C10_2 1_555 1_555
H14_2 C10_2 1_555 1_555
C11_2 C10_2 1_555 1_555
H15_2 C11_2 1_555 1_555
H16_2 C11_2 1_555 1_555
C12_2 C11_2 1_555 1_555
C13_2 Ge5_2 1_555 1_555
H17_2 C13_2 1_555 1_555
H18_2 C13_2 1_555 1_555
C14_2 C13_2 1_555 1_555
H19_2 C14_2 1_555 1_555
H20_2 C14_2 1_555 1_555
C15_2 C14_2 1_555 1_555
C16_2 Ge6_2 1_555 1_555
H21_2 C16_2 1_555 1_555
H22_2 C16_2 1_555 1_555
C17_2 C16_2 1_555 1_555
H23_2 C17_2 1_555 1_555
H24_2 C17_2 1_555 1_555
C18_2 C17_2 1_555 1_555
C19_2 O25_2 1_555 1_555
C20_2 O28_2 1_555 1_555
C21_2 C20_2 1_555 1_555
H25_2 C21_2 1_555 1_555
H27_2 C21_2 1_555 1_555
Dy6_2 O17_2 1_555 1_555
Dy7_2 O15_2 1_555 1_555
Dy8_2 O13_2 1_555 1_555
Dy10 O14_2 1_555 1_555
O39_2 Dy3_2 1_555 1_555
O40_2 Dy5_2 1_555 1_555
O41_2 Dy2_2 1_555 1_555
O42_2 Dy1_2 1_555 1_555
O43_2 Dy3_2 1_555 1_555
O44_2 Dy2_2 1_555 1_555
O45_2 Dy1_2 1_555 1_555
O46_2 Dy1_2 1_555 1_555
O47_2 Dy1_2 1_555 1_555
Dy2_2 O20_2 1_555 1_555
Dy2_2 O45_2 1_555 1_555
Dy3_2 O19_2 1_555 1_555
Dy3_2 O44_2 1_555 1_555
Dy5_2 O26_2 1_555 1_555
Ge1_2 O19_2 1_555 1_555
Ge2_2 O2_2 1_555 1_555
Ge2_2 O20_2 1_555 1_555
Ge3_2 O3_2 1_555 1_555
Ge3_2 O21_2 1_555 1_555
Ge4_2 O4_2 1_555 1_555
Ge5_2 O5_2 1_555 1_555
Ge6_2 O6_2 1_555 1_555
Ge6_2 O24_2 1_555 1_555
O21_2 Dy8_2 1_555 1_555
O22_2 Dy7_2 1_555 1_555
O22_2 Dy8_2 1_555 1_555
O23_2 Dy6_2 1_555 1_555
O23_2 Dy7_2 1_555 1_555
O24_2 Dy6_2 1_555 1_555
O26_2 C19_2 1_555 1_555
O27_2 Dy6_2 1_555 1_555
O29_2 C20_2 1_555 1_555
Dy6_2 O43_2 1_555 1_555
Dy8_2 O46_2 1_555 1_555
O36_2 H28_2 1_555 1_555
O36_2 H29_2 1_555 1_555
O35_2 H30_2 1_555 1_555
O35_2 H31_2 1_555 1_555
O34_2 H32_2 1_555 1_555
O34_2 H33_2 1_555 1_555
O32_2 H34_2 1_555 1_555
O32_2 H35_2 1_555 1_555
O33_2 H36_2 1_555 1_555
O33_2 H37_2 1_555 1_555
O30_2 H38_2 1_555 1_555
O30_2 H39_2 1_555 1_555
O31_2 H40_2 1_555 1_555
O31_2 H41_2 1_555 1_555
Dy6 O11_3 1_555 1_555
Dy7 O9_3 1_555 1_555
O9_3 C6_3 1_555 1_555
O37 C6_3 1_555 1_555
O11_3 C9_3 1_555 1_555
O12_2 C9_3 1_555 1_555
O20_3 Dy6 1_555 1_555
O33_3 Dy7 1_555 1_555
O34_3 Dy7 1_555 1_555
O35_3 Dy6 1_555 1_555
C4_3 Ge2_3 1_555 1_555
H5_3 C4_3 1_555 1_555
H6_3 C4_3 1_555 1_555
C5_3 C4_3 1_555 1_555
H7_3 C5_3 1_555 1_555
H8_3 C5_3 1_555 1_555
C6_3 C5_3 1_555 1_555
C7_3 Ge3_3 1_555 1_555
H10_3 C7_3 1_555 1_555
C8_3 C7_3 1_555 1_555
H11_3 C8_3 1_555 1_555
H12_3 C8_3 1_555 1_555
C9_3 C8_3 1_555 1_555
Dy9_2 O12_2 1_555 1_555
Dy7 O20_3 1_555 1_555
Ge2_3 O20_3 1_555 1_555
Ge3_3 O43 1_555 1_555
O35_3 H30_3 1_555 1_555
O35_3 H31_3 1_555 1_555
O34_3 H32_3 1_555 1_555
O34_3 H33_3 1_555 1_555
O33_3 H36_3 1_555 1_555
Dy4_2 O1_3 1_555 1_555
Ge1_3 O1_3 1_555 1_555
Ge4_3 O3_3 1_555 1_555
Ge5_3 O4_3 1_555 1_555
Ge6_3 O5_3 1_555 1_555
O2_3 Dy4_2 1_555 1_555
O3_3 Dy4_2 1_555 1_555
O4_3 Dy4_2 1_555 1_555
O5_3 Dy4_2 1_555 1_555
O6_3 Ge1_3 1_555 1_555
O39 C12_3 1_555 1_555
O40 C12_3 1_555 1_555
O41 C15_3 1_555 1_555
O16_3 C15_3 1_555 1_555
O44 Ge4_3 1_555 1_555
O30_3 Dy4_2 1_555 1_555
O31_3 Dy4_2 1_555 1_555
O32_3 Dy4_2 1_555 1_555
C1_3 Ge1_3 1_555 1_555
H1_3 C1_3 1_555 1_555
H2_3 C1_3 1_555 1_555
C2_3 C1_3 1_555 1_555
H4_3 C2_3 1_555 1_555
C10_3 Ge4_3 1_555 1_555
H13_3 C10_3 1_555 1_555
H14_3 C10_3 1_555 1_555
C11_3 C10_3 1_555 1_555
H15_3 C11_3 1_555 1_555
H16_3 C11_3 1_555 1_555
C12_3 C11_3 1_555 1_555
C13_3 Ge5_3 1_555 1_555
H17_3 C13_3 1_555 1_555
C14_3 C13_3 1_555 1_555
H19_3 C14_3 1_555 1_555
H20_3 C14_3 1_555 1_555
C15_3 C14_3 1_555 1_555
O38_2 Dy4_2 1_555 1_555
Ge1_3 O19_3 1_555 1_555
Ge4_3 O4_3 1_555 1_555
Ge5_3 O5_3 1_555 1_555
Ge6_3 O6_3 1_555 1_555
O32_3 H34_3 1_555 1_555
O32_3 H35_3 1_555 1_555
O30_3 H38_3 1_555 1_555
O30_3 H39_3 1_555 1_555
O31_3 H40_3 1_555 1_555
O31_3 H41_3 1_555 1_555
Dy8 O7_3 1_555 1_555
Dy11 O8_3 1_555 1_555
O7_3 C3_3 1_555 1_555
O8_3 C3_3 1_555 1_555
O42 C18_3 1_555 1_555
O18_3 C18_3 1_555 1_555
O25_3 Dy11 1_555 1_555
O26_3 Dy8 1_555 1_555
O47 C19_3 1_555 1_555
O28_3 Dy11 1_555 1_555
O29_3 Dy11 1_555 1_555
O36_3 Dy11 1_555 1_555
H22_3 C16_3 1_555 1_555
C17_3 C16_3 1_555 1_555
H23_3 C17_3 1_555 1_555
H24_3 C17_3 1_555 1_555
C18_3 C17_3 1_555 1_555
C19_3 O25_3 1_555 1_555
C20_3 O28_3 1_555 1_555
C21_3 C20_3 1_555 1_555
H25_3 C21_3 1_555 1_555
H27_3 C21_3 1_555 1_555
Dy11 O26_3 1_555 1_555
O26_3 C19_3 1_555 1_555
O29_3 C20_3 1_555 1_555
O36_3 H28_3 1_555 1_555
O36_3 H29_3 1_555 1_555
Dy6_2 O11_4 1_555 1_555
Dy7_2 O9_4 1_555 1_555
Dy8_2 O7_4 1_555 1_555
Dy9_2 O1_4 1_555 1_555
Dy10 O8_4 1_555 1_555
Ge1_4 O1_4 1_555 1_555
Ge2_4 O1_4 1_555 1_555
Ge3_4 O2_4 1_555 1_555
Ge4_4 O3_4 1_555 1_555
Ge5_4 O4_4 1_555 1_555
Ge6_4 O5_4 1_555 1_555
O2_4 Dy9_2 1_555 1_555
O3_4 Dy9_2 1_555 1_555
O4_4 Dy9_2 1_555 1_555
O5_4 Dy9_2 1_555 1_555
O6_4 Ge1_4 1_555 1_555
O7_4 C3_4 1_555 1_555
O8_4 C3_4 1_555 1_555
O9_4 C6_4 1_555 1_555
O37_2 C6_4 1_555 1_555
O11_4 C9_4 1_555 1_555
O38_2 C9_4 1_555 1_555
O39_2 C12_4 1_555 1_555
O40_2 C12_4 1_555 1_555
O41_2 C15_4 1_555 1_555
O16_4 C15_4 1_555 1_555
O42_2 C18_4 1_555 1_555
O18_4 C18_4 1_555 1_555
O19_4 Dy7_2 1_555 1_555
O20_4 Dy6_2 1_555 1_555
O44_2 Ge4_4 1_555 1_555
O45_2 Ge5_4 1_555 1_555
O25_4 Dy10 1_555 1_555
O26_4 Dy8_2 1_555 1_555
O47_2 C19_4 1_555 1_555
O28_4 Dy10 1_555 1_555
O29_4 Dy10 1_555 1_555
O30_4 Dy9_2 1_555 1_555
O31_4 Dy9_2 1_555 1_555
O32_4 Dy9_2 1_555 1_555
O33_4 Dy7_2 1_555 1_555
O34_4 Dy7_2 1_555 1_555
O35_4 Dy6_2 1_555 1_555
O36_4 Dy10 1_555 1_555
C1_4 Ge1_4 1_555 1_555
H1_4 C1_4 1_555 1_555
H2_4 C1_4 1_555 1_555
C2_4 C1_4 1_555 1_555
H4_4 C2_4 1_555 1_555
C3_4 C2_4 1_555 1_555
C4_4 Ge2_4 1_555 1_555
H5_4 C4_4 1_555 1_555
H6_4 C4_4 1_555 1_555
C5_4 C4_4 1_555 1_555
H7_4 C5_4 1_555 1_555
H8_4 C5_4 1_555 1_555
C6_4 C5_4 1_555 1_555
C7_4 Ge3_4 1_555 1_555
H9_4 C7_4 1_555 1_555
H10_4 C7_4 1_555 1_555
C8_4 C7_4 1_555 1_555
H11_4 C8_4 1_555 1_555
H12_4 C8_4 1_555 1_555
C9_4 C8_4 1_555 1_555
C10_4 Ge4_4 1_555 1_555
H13_4 C10_4 1_555 1_555
H14_4 C10_4 1_555 1_555
C11_4 C10_4 1_555 1_555
H15_4 C11_4 1_555 1_555
H16_4 C11_4 1_555 1_555
C12_4 C11_4 1_555 1_555
C13_4 Ge5_4 1_555 1_555
H17_4 C13_4 1_555 1_555
H18_4 C13_4 1_555 1_555
C14_4 C13_4 1_555 1_555
H19_4 C14_4 1_555 1_555
H20_4 C14_4 1_555 1_555
C15_4 C14_4 1_555 1_555
C16_4 Ge6_4 1_555 1_555
H21_4 C16_4 1_555 1_555
H22_4 C16_4 1_555 1_555
C17_4 C16_4 1_555 1_555
H23_4 C17_4 1_555 1_555
H24_4 C17_4 1_555 1_555
C18_4 C17_4 1_555 1_555
C19_4 O25_4 1_555 1_555
C20_4 O28_4 1_555 1_555
C21_4 C20_4 1_555 1_555
H25_4 C21_4 1_555 1_555
H27_4 C21_4 1_555 1_555
Dy7_2 O20_4 1_555 1_555
Dy8_2 O19_4 1_555 1_555
Dy10 O26_4 1_555 1_555
Ge1_4 O19_4 1_555 1_555
Ge2_4 O2_4 1_555 1_555
Ge2_4 O20_4 1_555 1_555
Ge3_4 O3_4 1_555 1_555
Ge3_4 O43_2 1_555 1_555
Ge4_4 O4_4 1_555 1_555
Ge5_4 O5_4 1_555 1_555
Ge6_4 O6_4 1_555 1_555
Ge6_4 O46_2 1_555 1_555
O26_4 C19_4 1_555 1_555
O29_4 C20_4 1_555 1_555
O36_4 H28_4 1_555 1_555
O36_4 H29_4 1_555 1_555
O35_4 H30_4 1_555 1_555
O35_4 H31_4 1_555 1_555
O34_4 H32_4 1_555 1_555
O34_4 H33_4 1_555 1_555
O32_4 H34_4 1_555 1_555
O32_4 H35_4 1_555 1_555
O33_4 H36_4 1_555 1_555
O33_4 H37_4 1_555 1_555
O30_4 H38_4 1_555 1_555
O30_4 H39_4 1_555 1_555
O31_4 H40_4 1_555 1_555
O31_4 H41_4 1_555 1_555

#END
