
###############################################################################
#
# This file contains modified crystal structure data generated from the
# MOF subset of the Cambridge Structural Database (CSD) v543 
# hosted by the Cambridge Crystallographic Data Centre (CCDC).
#
# This work is licensed under the Creative Commons
# Attribution-NonCommercial-ShareAlike 4.0 International License.
# To view a copy of this license, visit
# http://creativecommons.org/licenses/by-nc-sa/4.0/
# or send a letter to
# Creative Commons, PO Box 1866, Mountain View, CA 94042, USA.
#
# CIF created using the CSD Python API on 29 September 2022
# The structure has been converted into the P1 space group
# The structure has a 3D framework
# The original CSD entry INISAB is in the orthorhombic crystal system
# The original CSD entry INISAB is in a Sohncke space group
# The framework has been calculated to contain at least 10.0% void space
# The void calculation uses a probe of radius 1.32A, grid spacing 0.4
# H atom positions have been added when not included in the experimental data
#
###############################################################################

data_INISAB
_chemical_formula_moiety         '(C308 H372 Dy44 Ge48 N64 O304)n'
_symmetry_cell_setting           triclinic
_symmetry_space_group_name_H-M   'P 1'
_symmetry_Int_Tables_number      1
_space_group_name_Hall           'P 1'
loop_
_symmetry_equiv_pos_site_id
_symmetry_equiv_pos_as_xyz
1 x,y,z
_cell_length_a                   19.3746(2)
_cell_length_b                   21.4307(3)
_cell_length_c                   33.7110(4)
_cell_angle_alpha                90
_cell_angle_beta                 90
_cell_angle_gamma                90
_cell_volume                     13997.2
loop_
_atom_site_label
_atom_site_type_symbol
_atom_site_fract_x
_atom_site_fract_y
_atom_site_fract_z
Dy10 Dy 0.06918(3) 0.05456(3) 0.009475(16)
O46 O 0.0172(4) 0.1582(4) 0.0026(2)
H56 H 0.0062 0.1190 0.1646
C51 C 0.0224(9) 0.0958(9) 0.1097(4)
H57 H 0.0702 0.0963 0.1123
O79 O 0.1490(4) 0.1184(4) 0.0445(2)
N5 N 0.9950(5) 0.0784(6) 0.0750(3)
N6 N 0.9142(10) 0.1196(9) 0.1379(5)
N11 N 0.4020(5) 0.0506(5) 0.0124(3)
N12 N 0.4324(8) 0.1250(6) 0.0773(4)
O47 O 0.7010(4) 0.1109(4) 0.0192(2)
O48 O 0.6674(8) 0.1292(6) 0.0807(3)
O55 O 0.9380(4) 0.0437(4) 0.0068(2)
O56 O 0.8333(4) 0.0390(4) 0.0350(2)
O58 O 0.5813(5) 0.0147(5) 0.0203(2)
C31 C 0.8441(6) 0.2159(6) 0.0030(3)
H41 H 0.8202 0.2555 0.0054
H42 H 0.8323 0.1909 0.0260
C32 C 0.9190(7) 0.2278(6) 0.0035(4)
H43 H 0.9332 0.2361 0.0306
C35 C 0.6251(7) 0.1961(5) 0.0308(3)
H47 H 0.6562 0.2311 0.0272
H48 H 0.5917 0.2078 0.0509
C36 C 0.6656(7) 0.1418(7) 0.0456(4)
C47 C 0.8967(6) 0.0501(5) 0.0351(3)
C48 C 0.9271(7) 0.0770(6) 0.0734(3)
C49 C 0.8867(8) 0.0994(11) 0.1035(4)
H55 H 0.8391 0.1008 0.1001
C50 C 0.9846(11) 0.1122(9) 0.1403(6)
C62 C 0.5220(7) 0.0175(5) 0.0054(3)
C63 C 0.4658(7) 0.0537(6) 0.0274(3)
C64 C 0.4797(8) 0.0922(7) 0.0597(4)
H64 H 0.5248 0.0946 0.0690
C65 C 0.3708(9) 0.1228(7) 0.0619(5)
H65 H 0.3363 0.1480 0.0724
C66 C 0.3561(8) 0.0852(8) 0.0315(5)
H66 H 0.3104 0.0832 0.0232
Dy1 Dy 0.73379(3) 0.02066(2) 0.982091(14)
Dy2 Dy 0.57908(3) 0.00363(2) 0.912645(14)
Dy3 Dy 0.59703(3) 0.00925(2) 0.800247(14)
Dy4 Dy 0.77880(3) 0.03156(2) 0.760453(14)
Dy5 Dy 0.94182(3) 0.04877(3) 0.821857(14)
Dy6 Dy 0.90837(3) 0.03910(2) 0.933844(14)
Dy8 Dy 0.72869(3) 0.23287(3) 0.870904(17)
Dy9 Dy 0.80480(3) 0.04947(3) 0.642401(14)
Ge7 Ge 0.56928(6) 0.14923(5) 0.86403(3)
Ge8 Ge 0.66240(6) 0.16125(5) 0.78465(3)
Ge9 Ge 0.82641(6) 0.18212(5) 0.79016(3)
Ge10 Ge 0.90122(6) 0.18558(5) 0.87536(3)
Ge11 Ge 0.81027(6) 0.17322(5) 0.95543(3)
Ge12 Ge 0.64370(5) 0.15469(5) 0.94958(3)
N1 N 0.6684(5) 0.0670(6) 0.6288(3)
N2 N 0.5254(8) 0.0699(7) 0.6182(5)
N3 N 0.9248(6) 0.1156(7) 0.6494(3)
N10 N 0.2652(7) 0.0206(8) 0.8042(4)
O25 O 0.6181(4) 0.1878(3) 0.9023(2)
O26 O 0.6196(4) 0.1901(4) 0.8276(2)
O27 O 0.7389(4) 0.2047(3) 0.7987(2)
O28 O 0.8486(4) 0.2173(3) 0.8374(2)
O29 O 0.8355(4) 0.2112(3) 0.9108(2)
O30 O 0.7228(4) 0.1968(3) 0.9476(2)
O31 O 0.5900(4) 0.0712(3) 0.8587(2)
O32 O 0.6866(3) 0.0827(3) 0.7903(2)
O33 O 0.8434(4) 0.1028(3) 0.7962(2)
O34 O 0.8964(4) 0.1045(3) 0.87798(18)
O35 O 0.8091(4) 0.0917(3) 0.9539(2)
O36 O 0.6520(4) 0.0749(3) 0.9444(2)
O37 O 0.5062(4) 0.1022(4) 0.9213(2)
O38 O 0.3938(4) 0.0875(4) 0.9308(2)
O39 O 0.5458(5) 0.1031(4) 0.7760(3)
O40 O 0.4570(6) 0.1144(6) 0.7356(4)
O41 O 0.7726(4) 0.1402(3) 0.7315(2)
O42 O 0.7833(5) 0.1532(4) 0.6668(2)
O43 O 0.9749(4) 0.1588(4) 0.8189(2)
O45 O 0.9350(4) 0.1476(3) 0.9563(2)
O49 O 0.6167(4) 0.0163(4) 0.7233(2)
O50 O 0.7204(4) 0.0275(3) 0.69566(19)
O51 O 0.8664(3) 0.0511(4) 0.70731(19)
O52 O 0.9586(4) 0.0620(4) 0.7463(2)
O59 O 0.2738(4) 0.0098(4) 0.9686(3)
O63 O 0.7030(5) 0.3189(4) 0.9153(3)
O64 O 0.6490(4) 0.3816(4) 0.9555(2)
O67 O 0.7450(4) 0.1175(3) 0.8688(2)
O68 O 0.7857(7) 0.3301(5) 0.8480(4)
O69 O 0.6437(7) 0.3095(6) 0.8385(4)
O73 O 0.9065(5) 0.0045(7) 0.6038(3)
C19 C 0.4769(6) 0.1802(6) 0.8568(4)
H25 H 0.4796 0.2235 0.8485
H26 H 0.4554 0.1570 0.8354
C20 C 0.4306(8) 0.1760(6) 0.8933(4)
H27 H 0.4390 0.2118 0.9103
H28 H 0.3826 0.1772 0.8851
C21 C 0.4439(5) 0.1164(6) 0.9166(3)
C22 C 0.6207(7) 0.1927(7) 0.7362(3)
H29 H 0.6373 0.2347 0.7315
H30 H 0.6358 0.1670 0.7142
C23 C 0.5436(7) 0.1937(7) 0.7368(4)
H31 H 0.5269 0.2040 0.7105
H32 H 0.5283 0.2262 0.7547
C24 C 0.5117(7) 0.1318(7) 0.7497(4)
C25 C 0.8703(7) 0.2288(6) 0.7482(3)
H33 H 0.8790 0.2710 0.7574
H34 H 0.9146 0.2098 0.7422
C26 C 0.8274(8) 0.2318(6) 0.7103(3)
H35 H 0.7932 0.2646 0.7129
H36 H 0.8572 0.2423 0.6882
C27 C 0.7914(6) 0.1706(5) 0.7018(3)
C28 C 0.9863(6) 0.2301(6) 0.8855(4)
H37 H 0.9761 0.2681 0.9001
H44 H 0.9286 0.2648 0.9879
C33 C 0.9617(6) 0.1734(5) 0.9872(3)
C34 C 0.5864(6) 0.1845(5) 0.9914(3)
H45 H 0.5649 0.2232 0.9830
H46 H 0.5499 0.1544 0.9961
C37 C 0.6554(6) 0.0284(6) 0.6957(3)
C38 C 0.6236(6) 0.0501(7) 0.6567(3)
C39 C 0.5530(8) 0.0498(7) 0.6515(4)
H49 H 0.5246 0.0353 0.6718
C40 C 0.5694(8) 0.0859(12) 0.5900(5)
H50 H 0.5519 0.0985 0.5656
C41 C 0.6399(9) 0.0850(8) 0.5951(5)
H51 H 0.6683 0.0974 0.5743
C42 C 0.9273(5) 0.0716(6) 0.7163(3)
C43 C 0.9580(6) 0.1127(7) 0.6845(4)
C45 C 0.9548(10) 0.1534(10) 0.6226(5)
H53 H 0.9353 0.1559 0.5974
C59 C 0.3347(8) 0.0131(10) 0.8102(4)
H61 H 0.3647 0.0171 0.7888
C60 C 0.2249(7) 0.0087(8) 0.8352(4)
H62 H 0.1771 0.0095 0.8323
C72 C 0.6539(7) 0.3324(6) 0.9365(4)
H70 H 0.6180 0.3037 0.9385
Dy14 Dy 0.56918(3) 0.44544(3) 0.990525(16)
O77 O 0.8066(5) 0.1070(4) 0.5830(2)
H80 H 0.913218 0.0287338 0.578992
H81 H 0.94891 0.00705456 0.62026
H82 H 0.707512 0.0983115 0.852841
H83 H 0.790312 0.107713 0.856521
H90 H 0.790221 0.359509 0.870614
H91 H 0.832224 0.320036 0.837428
H92 H 0.618721 0.332953 0.859459
H93 H 0.669504 0.339195 0.82143
O15 O 0.7232(4) 0.9297(4) 0.0238(2)
O16 O 0.6934(5) 0.8930(4) 0.0830(2)
O75 O 0.3752(6) 0.9211(5) 0.0115(3)
H1 H 0.8768 0.8578 0.0195
H4 H 0.9902 0.8380 0.0190
C5 C 0.6737(8) 0.8298(7) 0.0276(4)
H7 H 0.7156 0.8056 0.0241
H8 H 0.6454 0.8079 0.0468
C6 C 0.6934(7) 0.8915(6) 0.0453(4)
Dy12 Dy 0.69520(3) 0.95053(3) 0.142401(14)
H86 H 0.376739 0.875597 0.00601213
H87 H 0.413911 0.932563 0.029377
Dy11 Dy 0.11422(3) 0.02110(3) 0.448988(17)
N9 N 0.1798(5) 0.0071(5) 0.3775(3)
N13 N 0.2165(5) 0.1052(5) 0.4414(3)
N14 N 0.3324(6) 0.1847(7) 0.4415(6)
O18 O 0.0689(4) 0.1212(4) 0.4337(3)
O20 O 0.0158(5) 0.1326(6) 0.2399(3)
O60 O 0.3341(5) 0.0047(5) 0.4880(4)
O61 O 0.0425(4) 0.0123(4) 0.3878(2)
O62 O 0.0267(4) 0.0031(4) 0.3226(2)
O75_2 O 0.1248(6) 0.0789(5) 0.5115(3)
H9 H 0.0042 0.1615 0.3359
C8 C 0.0088(7) 0.1973(6) 0.3932(4)
H11 H 0.0550 0.2130 0.3885
C9 C 0.0125(6) 0.1375(6) 0.4172(4)
C57 C 0.0623(6) 0.0079(5) 0.3523(3)
C58 C 0.1397(6) 0.0001(6) 0.3463(3)
C61 C 0.2470(7) 0.0044(9) 0.3711(5)
H63 H 0.2766 0.0120 0.3923
C67 C 0.2783(6) 0.0214(6) 0.4721(4)
C68 C 0.2756(7) 0.0883(7) 0.4557(4)
C69 C 0.3316(7) 0.1268(7) 0.4572(5)
H67 H 0.3714 0.1123 0.4696
C70 C 0.2159(8) 0.1591(8) 0.4253(6)
H68 H 0.1754 0.1731 0.4134
C71 C 0.2743(11) 0.1977(9) 0.4248(6)
H69 H 0.2708 0.2356 0.4115
H86_2 H 0.123261 0.124403 0.506012
H87_2 H 0.0860892 0.0674368 0.529377
N10_2 N 0.2348(7) 0.9794(8) 0.3042(4)
N11_2 N 0.0980(5) 0.9494(5) 0.5124(3)
N12_2 N 0.0676(8) 0.8750(6) 0.5773(4)
O38_2 O 0.1062(4) 0.9125(4) 0.4308(2)
O40_2 O 0.0430(6) 0.8856(6) 0.2356(4)
O59_2 O 0.2262(4) 0.9902(4) 0.4686(3)
C19_2 C 0.0231(6) 0.8198(6) 0.3568(4)
H25_2 H 0.0204 0.7765 0.3485
H26_2 H 0.0446 0.8430 0.3354
C20_2 C 0.0694(8) 0.8240(6) 0.3933(4)
H27_2 H 0.0610 0.7882 0.4103
H28_2 H 0.1174 0.8228 0.3851
C21_2 C 0.0561(5) 0.8836(6) 0.4166(3)
C59_2 C 0.1653(8) 0.9869(10) 0.3102(4)
H61_2 H 0.1353 0.9829 0.2888
C60_2 C 0.2751(7) 0.9913(8) 0.3352(4)
H62_2 H 0.3229 0.9905 0.3323
C63_2 C 0.0342(7) 0.9463(6) 0.5274(3)
C64_2 C 0.0203(8) 0.9078(7) 0.5597(4)
C65_2 C 0.1292(9) 0.8772(7) 0.5619(5)
H65_2 H 0.1637 0.8520 0.5724
C66_2 C 0.1439(8) 0.9148(8) 0.5315(5)
H66_2 H 0.1896 0.9168 0.5232
Dy13 Dy 0.43082(3) 0.94544(3) 0.509475(16)
Dy7 Dy 0.71242(3) 0.18045(2) 0.364575(15)
Ge1 Ge 0.65102(6) 0.11242(5) 0.45188(3)
Ge2 Ge 0.81786(5) 0.12811(5) 0.44565(3)
Ge3 Ge 0.88881(5) 0.13514(5) 0.35957(3)
Ge4 Ge 0.79634(6) 0.12135(5) 0.28065(3)
Ge5 Ge 0.63094(6) 0.10366(5) 0.28510(3)
Ge6 Ge 0.55985(6) 0.09630(5) 0.37106(3)
N15 N 0.7807(7) 0.2821(5) 0.3818(5)
N16 N 0.8552(14) 0.3741(12) 0.4194(7)
O1 O 0.6197(4) 0.1346(3) 0.4049(2)
O2 O 0.7315(4) 0.1524(3) 0.4441(2)
O3 O 0.8343(4) 0.1622(3) 0.39796(19)
O4 O 0.8268(4) 0.1617(3) 0.32334(19)
O5 O 0.7099(4) 0.1452(3) 0.29216(19)
O6 O 0.5999(4) 0.1368(3) 0.33136(19)
O7 O 0.6736(3) 0.0343(3) 0.4553(2)
O8 O 0.8293(3) 0.0480(3) 0.44296(18)
O9 O 0.8898(4) 0.0540(3) 0.3567(2)
O10 O 0.7972(4) 0.0412(3) 0.28922(19)
O11 O 0.6379(4) 0.0232(3) 0.29529(19)
O12 O 0.5826(4) 0.0179(3) 0.37563(19)
O13 O 0.5382(4) 0.0611(3) 0.4547(2)
O14 O 0.4657(4) 0.0554(4) 0.5059(2)
O15_2 O 0.7768(4) 0.0703(4) 0.5238(2)
O17 O 0.9584(4) 0.1070(4) 0.4202(2)
O19 O 0.9296(5) 0.0926(4) 0.2746(2)
O21 O 0.6925(4) 0.0694(4) 0.2278(2)
O22 O 0.6632(5) 0.0546(4) 0.1642(2)
O23 O 0.4914(4) 0.0478(4) 0.3148(2)
O24 O 0.3988(6) 0.0787(6) 0.2817(3)
O57 O 0.9965(4) 0.0065(4) 0.4726(2)
O65 O 0.6555(6) 0.2572(4) 0.4067(3)
O66 O 0.6703(9) 0.3119(8) 0.4622(5)
O70 O 0.7304(4) 0.0656(3) 0.3655(2)
O71 O 0.6739(5) 0.2642(4) 0.3215(3)
O74 O 0.7398(5) 0.0278(4) 0.0973(2)
O76 O 0.3897(8) 0.0051(6) 0.5677(3)
C1 C 0.6057(5) 0.1571(5) 0.4943(3)
H1_2 H 0.6232 0.1422 0.5195
H2 H 0.6169 0.2011 0.4922
C2 C 0.5287(6) 0.1495(5) 0.4935(3)
H3 H 0.5093 0.1766 0.4734
H4_2 H 0.5098 0.1620 0.5190
C3 C 0.5082(5) 0.0828(5) 0.4850(3)
C4 C 0.8633(6) 0.1698(5) 0.4898(3)
H5 H 0.9078 0.1501 0.4940
H6 H 0.8720 0.2128 0.4822
C5_2 C 0.8263(8) 0.1702(7) 0.5276(4)
H7_2 H 0.7844 0.1944 0.5241
H8_2 H 0.8546 0.1921 0.5468
C6_2 C 0.8066(7) 0.1085(6) 0.5453(4)
C7 C 0.9726(6) 0.1839(5) 0.3531(3)
H10 H 0.9613 0.2232 0.3404
H12 H 0.9832 0.2287 0.4078
C10 C 0.8308(6) 0.1556(6) 0.2323(3)
H13 H 0.8284 0.1240 0.2118
H14 H 0.8014 0.1900 0.2243
C11 C 0.9042(7) 0.1787(6) 0.2356(4)
H15 H 0.9194 0.1925 0.2096
H16 H 0.9051 0.2146 0.2531
C12 C 0.9544(7) 0.1311(6) 0.2508(4)
C13 C 0.5734(6) 0.1350(6) 0.2434(3)
H17 H 0.5296 0.1132 0.2443
H18 H 0.5643 0.1788 0.2484
C14 C 0.6026(9) 0.1287(8) 0.2024(5)
H19 H 0.5650 0.1202 0.1842
H20 H 0.6229 0.1683 0.1948
C15 C 0.6559(6) 0.0788(6) 0.1977(3)
C16 C 0.4657(6) 0.1219(6) 0.3799(4)
H21 H 0.4414 0.0898 0.3946
H22 H 0.4650 0.1599 0.3955
C17 C 0.4297(7) 0.1331(7) 0.3399(4)
H23 H 0.3807 0.1390 0.3446
H24 H 0.4475 0.1714 0.3285
C18 C 0.4391(6) 0.0809(6) 0.3103(4)
C73 C 0.6894(8) 0.2908(9) 0.4292(6)
C74 C 0.7584(8) 0.3097(10) 0.4130(6)
C75 C 0.7961(16) 0.3582(14) 0.4348(9)
H71 H 0.7792 0.3762 0.4580
C76 C 0.8785(19) 0.3519(16) 0.3849(10)
H72 H 0.9183 0.3688 0.3738
C77 C 0.8412(13) 0.2997(11) 0.3636(7)
H73 H 0.8576 0.2813 0.3404
H74 H 0.740569 0.0518492 0.393015
H75 H 0.688023 0.0443856 0.355877
H76 H 0.713539 0.279893 0.305716
H77 H 0.637601 0.248304 0.303325
H84 H 0.758699 0.0068146 0.0733893
H85 H 0.702082 0.0565681 0.0893449
H88 H 0.427504 0.0321507 0.577694
H89 H 0.349772 0.03141 0.559868
Dy1_2 Dy 0.76621(3) 0.97934(2) 0.482091(14)
Dy2_2 Dy 0.92092(3) 0.99637(2) 0.412645(14)
Dy3_2 Dy 0.90297(3) 0.99075(2) 0.300247(14)
Dy4_2 Dy 0.72120(3) 0.96844(2) 0.260453(14)
Dy5_2 Dy 0.55818(3) 0.95123(3) 0.321857(14)
Dy6_2 Dy 0.59163(3) 0.96090(2) 0.433844(14)
Dy8_2 Dy 0.77131(3) 0.76713(3) 0.370904(17)
Ge7_2 Ge 0.93072(6) 0.85077(5) 0.36403(3)
Ge8_2 Ge 0.83760(6) 0.83875(5) 0.28465(3)
Ge9_2 Ge 0.67359(6) 0.81788(5) 0.29016(3)
Ge10_2 Ge 0.59878(6) 0.81442(5) 0.37536(3)
Ge11_2 Ge 0.68973(6) 0.82678(5) 0.45543(3)
Ge12_2 Ge 0.85630(5) 0.84531(5) 0.44958(3)
N1_2 N 0.8316(5) 0.9330(6) 0.1288(3)
N2_2 N 0.9746(8) 0.9301(7) 0.1182(5)
N3_2 N 0.5752(6) 0.8844(7) 0.1494(3)
N4 N 0.4544(9) 0.8184(8) 0.1635(5)
N5_2 N 0.5050(5) 0.9216(6) 0.5750(3)
N6_2 N 0.5858(10) 0.8804(9) 0.6379(5)
N7 N 0.3521(5) 0.8841(5) 0.4554(3)
N8 N 0.2734(7) 0.8345(7) 0.3923(4)
O25_2 O 0.8819(4) 0.8122(3) 0.4023(2)
O26_2 O 0.8804(4) 0.8099(4) 0.3276(2)
O27_2 O 0.7611(4) 0.7953(3) 0.2987(2)
O28_2 O 0.6514(4) 0.7827(3) 0.3374(2)
O29_2 O 0.6645(4) 0.7888(3) 0.4108(2)
O30_2 O 0.7772(4) 0.8032(3) 0.4476(2)
O31_2 O 0.9100(4) 0.9288(3) 0.3587(2)
O32_2 O 0.8134(3) 0.9173(3) 0.2903(2)
O33_2 O 0.6566(4) 0.8972(3) 0.2962(2)
O34_2 O 0.6036(4) 0.8955(3) 0.37798(18)
O35_2 O 0.6909(4) 0.9083(3) 0.4539(2)
O36_2 O 0.8480(4) 0.9251(3) 0.4444(2)
O37_2 O 0.9938(4) 0.8978(4) 0.4213(2)
O39_2 O 0.9542(5) 0.8969(4) 0.2760(3)
O41_2 O 0.7274(4) 0.8598(3) 0.2315(2)
O42_2 O 0.7167(5) 0.8468(4) 0.1668(2)
O43_2 O 0.5251(4) 0.8412(4) 0.3189(2)
O44 O 0.4243(6) 0.8127(6) 0.2961(3)
O45_2 O 0.5650(4) 0.8524(3) 0.4563(2)
O46_2 O 0.4828(4) 0.8418(4) 0.5026(2)
O47_2 O 0.7990(4) 0.8891(4) 0.5192(2)
O48_2 O 0.8326(8) 0.8708(6) 0.5807(3)
O49_2 O 0.8833(4) 0.9837(4) 0.2233(2)
O50_2 O 0.7796(4) 0.9725(3) 0.19566(19)
O51_2 O 0.6336(3) 0.9489(4) 0.20731(19)
O52_2 O 0.5414(4) 0.9380(4) 0.2463(2)
O53 O 0.4577(5) 0.9310(4) 0.3752(2)
O54 O 0.4653(4) 0.9495(4) 0.4400(2)
O55_2 O 0.5620(4) 0.9563(4) 0.5068(2)
O56_2 O 0.6667(4) 0.9610(4) 0.5350(2)
O58_2 O 0.9187(5) 0.9853(5) 0.5203(2)
O63_2 O 0.7970(5) 0.6811(4) 0.4153(3)
O64_2 O 0.8510(4) 0.6184(4) 0.4555(2)
O67_2 O 0.7550(4) 0.8825(3) 0.3688(2)
O68_2 O 0.7143(7) 0.6699(5) 0.3480(4)
O69_2 O 0.8563(7) 0.6905(6) 0.3385(4)
O72 O 0.4296(6) 0.9368(7) 0.2959(4)
O73_2 O 0.5935(5) 0.9955(7) 0.1038(3)
C22_2 C 0.8793(7) 0.8073(7) 0.2362(3)
H29_2 H 0.8627 0.7653 0.2315
H30_2 H 0.8642 0.8330 0.2142
C23_2 C 0.9564(7) 0.8063(7) 0.2368(4)
H31_2 H 0.9731 0.7960 0.2105
H32_2 H 0.9717 0.7738 0.2547
C24_2 C 0.9883(7) 0.8682(7) 0.2497(4)
C25_2 C 0.6297(7) 0.7712(6) 0.2482(3)
H33_2 H 0.6210 0.7290 0.2574
H34_2 H 0.5854 0.7902 0.2422
C26_2 C 0.6726(8) 0.7682(6) 0.2103(3)
H35_2 H 0.7068 0.7354 0.2129
H36_2 H 0.6428 0.7577 0.1882
C27_2 C 0.7086(6) 0.8294(5) 0.2018(3)
C28_2 C 0.5137(6) 0.7699(6) 0.3855(4)
H37_2 H 0.5239 0.7319 0.4001
H38 H 0.4839 0.7955 0.4019
C29 C 0.4758(7) 0.7531(6) 0.3473(4)
H39 H 0.4977 0.7170 0.3354
H40 H 0.4286 0.7418 0.3537
C30 C 0.4751(6) 0.8052(6) 0.3179(4)
C31_2 C 0.6559(6) 0.7841(6) 0.5030(3)
H41_2 H 0.6798 0.7445 0.5054
H42_2 H 0.6677 0.8091 0.5260
C32_2 C 0.5810(7) 0.7722(6) 0.5035(4)
H43_2 H 0.5668 0.7639 0.5306
H44_2 H 0.5714 0.7352 0.4879
C33_2 C 0.5383(6) 0.8266(5) 0.4872(3)
C34_2 C 0.9136(6) 0.8155(5) 0.4914(3)
H45_2 H 0.9351 0.7768 0.4830
H46_2 H 0.9501 0.8456 0.4961
C35_2 C 0.8749(7) 0.8039(5) 0.5308(3)
H47_2 H 0.8438 0.7689 0.5272
H48_2 H 0.9083 0.7922 0.5509
C36_2 C 0.8344(7) 0.8582(7) 0.5456(4)
C37_2 C 0.8446(6) 0.9716(6) 0.1957(3)
C38_2 C 0.8764(6) 0.9499(7) 0.1567(3)
C39_2 C 0.9470(8) 0.9502(7) 0.1515(4)
H49_2 H 0.9754 0.9647 0.1718
C40_2 C 0.9306(8) 0.9141(12) 0.0900(5)
H50_2 H 0.9481 0.9015 0.0656
C41_2 C 0.8601(9) 0.9150(8) 0.0951(5)
H51_2 H 0.8317 0.9026 0.0743
C42_2 C 0.5727(5) 0.9284(6) 0.2163(3)
C43_2 C 0.5420(6) 0.8873(7) 0.1845(4)
C44 C 0.4820(9) 0.8551(8) 0.1903(4)
H52 H 0.4596 0.8593 0.2146
C45_2 C 0.5452(10) 0.8466(10) 0.1226(5)
H53_2 H 0.5647 0.8441 0.0974
C46 C 0.4860(10) 0.8107(11) 0.1304(6)
H54 H 0.4701 0.7819 0.1119
C47_2 C 0.6033(6) 0.9499(5) 0.5351(3)
C48_2 C 0.5729(7) 0.9230(6) 0.5734(3)
C49_2 C 0.6133(8) 0.9006(11) 0.6035(4)
H55_2 H 0.6609 0.8992 0.6001
C50_2 C 0.5154(11) 0.8878(9) 0.6403(6)
H56_2 H 0.4938 0.8810 0.6646
C51_2 C 0.4776(9) 0.9042(9) 0.6097(4)
H57_2 H 0.4298 0.9037 0.6123
C52 C 0.4369(6) 0.9259(6) 0.4094(4)
C53 C 0.3711(6) 0.8899(6) 0.4166(4)
C54 C 0.3344(7) 0.8633(7) 0.3877(4)
H58 H 0.3526 0.8649 0.3621
C55 C 0.2927(6) 0.8524(7) 0.4609(4)
H59 H 0.2764 0.8468 0.4866
C56 C 0.2557(7) 0.8282(7) 0.4298(4)
H60 H 0.2156 0.8060 0.4356
C62_2 C 0.9780(7) 0.9825(5) 0.5054(3)
H64_2 H 0.9752 0.9054 0.5690
C72_2 C 0.8461(7) 0.6676(6) 0.4365(4)
H70_2 H 0.8820 0.6963 0.4385
Dy14_2 Dy 0.93082(3) 0.55456(3) 0.490525(16)
O79_2 O 0.3510(4) 0.8816(4) 0.5445(2)
H78 H 0.430415 0.924384 0.267525
H79 H 0.406237 0.90388 0.311692
H80_2 H 0.586782 0.971266 0.0789922
H81_2 H 0.55109 0.992945 0.12026
H82_2 H 0.792488 0.901688 0.352841
H83_2 H 0.709688 0.892287 0.356521
H90_2 H 0.709779 0.640491 0.370614
H91_2 H 0.667776 0.679964 0.337428
H92_2 H 0.881279 0.667047 0.359459
H93_2 H 0.830496 0.660805 0.32143
Dy1_3 Dy 0.26621(3) 0.52066(2) 0.517909(14)
Dy2_3 Dy 0.42092(3) 0.50363(2) 0.587355(14)
Dy3_3 Dy 0.40297(3) 0.50925(2) 0.699753(14)
Dy4_3 Dy 0.22120(3) 0.53156(2) 0.739547(14)
Dy5_3 Dy 0.05818(3) 0.54877(3) 0.678143(14)
Dy6_3 Dy 0.09163(3) 0.53910(2) 0.566156(14)
Dy7_2 Dy 0.21242(3) 0.31955(2) 0.635425(15)
Dy8_3 Dy 0.27131(3) 0.73287(3) 0.629096(17)
Dy9_2 Dy 0.19520(3) 0.54947(3) 0.857599(14)
Dy11_2 Dy 0.61422(3) 0.47890(3) 0.551012(17)
Ge1_2 Ge 0.15102(6) 0.38758(5) 0.54812(3)
Ge2_2 Ge 0.31786(5) 0.37189(5) 0.55435(3)
Ge3_2 Ge 0.38881(5) 0.36486(5) 0.64043(3)
Ge4_2 Ge 0.29634(6) 0.37865(5) 0.71935(3)
Ge5_2 Ge 0.13094(6) 0.39634(5) 0.71490(3)
Ge6_2 Ge 0.05985(6) 0.40370(5) 0.62894(3)
Ge7_3 Ge 0.43072(6) 0.64923(5) 0.63597(3)
Ge8_3 Ge 0.33760(6) 0.66125(5) 0.71535(3)
Ge9_3 Ge 0.17359(6) 0.68212(5) 0.70984(3)
Ge10_3 Ge 0.09878(6) 0.68558(5) 0.62464(3)
Ge11_3 Ge 0.18973(6) 0.67322(5) 0.54457(3)
Ge12_3 Ge 0.35630(5) 0.65469(5) 0.55042(3)
N1_3 N 0.3316(5) 0.5670(6) 0.8712(3)
N2_3 N 0.4746(8) 0.5699(7) 0.8818(5)
N3_3 N 0.0752(6) 0.6156(7) 0.8506(3)
N5_3 N 0.0050(5) 0.5784(6) 0.4250(3)
N6_3 N 0.0858(10) 0.6196(9) 0.3621(5)
N9_2 N 0.6798(5) 0.4929(5) 0.6225(3)
N10_3 N 0.7348(7) 0.5206(8) 0.6958(4)
N11_3 N 0.5980(5) 0.5506(5) 0.4876(3)
N12_3 N 0.5676(8) 0.6250(6) 0.4227(4)
N13_2 N 0.7165(5) 0.3948(5) 0.5586(3)
N14_2 N 0.8324(6) 0.3153(7) 0.5585(6)
N15_2 N 0.2807(7) 0.2179(5) 0.6182(5)
N16_2 N 0.3552(14) 0.1259(12) 0.5806(7)
O1_2 O 0.1197(4) 0.3654(3) 0.5951(2)
O2_2 O 0.2315(4) 0.3476(3) 0.5559(2)
O3_2 O 0.3343(4) 0.3378(3) 0.60204(19)
O4_2 O 0.3268(4) 0.3383(3) 0.67666(19)
O5_2 O 0.2099(4) 0.3548(3) 0.70784(19)
O6_2 O 0.0999(4) 0.3632(3) 0.66864(19)
O7_2 O 0.1736(3) 0.4657(3) 0.5447(2)
O8_2 O 0.3293(3) 0.4520(3) 0.55704(18)
O9_2 O 0.3898(4) 0.4460(3) 0.6433(2)
O10_2 O 0.2972(4) 0.4588(3) 0.71078(19)
O11_2 O 0.1379(4) 0.4768(3) 0.70471(19)
O12_2 O 0.0826(4) 0.4821(3) 0.62437(19)
O13_2 O 0.0382(4) 0.4389(3) 0.5453(2)
O15_3 O 0.2768(4) 0.4297(4) 0.4762(2)
O16_2 O 0.3066(5) 0.3930(4) 0.4170(2)
O17_2 O 0.4584(4) 0.3930(4) 0.5798(2)
O18_2 O 0.5689(4) 0.3788(4) 0.5663(3)
O19_2 O 0.4296(5) 0.4074(4) 0.7254(2)
O20_2 O 0.5158(5) 0.3674(6) 0.7601(3)
O21_2 O 0.1925(4) 0.4306(4) 0.7722(2)
O22_2 O 0.1632(5) 0.4454(4) 0.8358(2)
O25_3 O 0.3819(4) 0.6878(3) 0.5977(2)
O26_3 O 0.3804(4) 0.6901(4) 0.6724(2)
O27_3 O 0.2611(4) 0.7047(3) 0.7013(2)
O28_3 O 0.1514(4) 0.7173(3) 0.6626(2)
O29_3 O 0.1645(4) 0.7112(3) 0.5892(2)
O30_3 O 0.2772(4) 0.6968(3) 0.5524(2)
O31_3 O 0.4100(4) 0.5712(3) 0.6413(2)
O32_3 O 0.3134(3) 0.5827(3) 0.7097(2)
O33_3 O 0.1566(4) 0.6028(3) 0.7038(2)
O34_3 O 0.1036(4) 0.6045(3) 0.62202(18)
O35_3 O 0.1909(4) 0.5917(3) 0.5461(2)
O36_3 O 0.3480(4) 0.5749(3) 0.5556(2)
O37_3 O 0.4938(4) 0.6022(4) 0.5787(2)
O38_3 O 0.6062(4) 0.5875(4) 0.5692(2)
O39_3 O 0.4542(5) 0.6031(4) 0.7240(3)
O40_3 O 0.5430(6) 0.6144(6) 0.7644(4)
O41_3 O 0.2274(4) 0.6402(3) 0.7685(2)
O42_3 O 0.2167(5) 0.6532(4) 0.8332(2)
O43_3 O 0.0251(4) 0.6588(4) 0.6811(2)
O45_3 O 0.0650(4) 0.6476(3) 0.5437(2)
O47_3 O 0.2990(4) 0.6109(4) 0.4808(2)
O48_3 O 0.3326(8) 0.6292(6) 0.4193(3)
O49_3 O 0.3833(4) 0.5163(4) 0.7767(2)
O50_3 O 0.2796(4) 0.5275(3) 0.80434(19)
O51_3 O 0.1336(3) 0.5511(4) 0.79269(19)
O52_3 O 0.0414(4) 0.5620(4) 0.7537(2)
O55_3 O 0.0620(4) 0.5437(4) 0.4932(2)
O56_3 O 0.1667(4) 0.5390(4) 0.4650(2)
O57_2 O 0.4965(4) 0.4935(4) 0.5274(2)
O58_3 O 0.4187(5) 0.5147(5) 0.4797(2)
O59_3 O 0.7262(4) 0.5098(4) 0.5314(3)
O60_2 O 0.8341(5) 0.4953(5) 0.5120(4)
O61_2 O 0.5425(4) 0.4877(4) 0.6122(2)
O62_2 O 0.5267(4) 0.4969(4) 0.6774(2)
O63_3 O 0.2970(5) 0.8189(4) 0.5847(3)
O65_2 O 0.1555(6) 0.2428(4) 0.5933(3)
O66_2 O 0.1703(9) 0.1881(8) 0.5378(5)
O67_3 O 0.2550(4) 0.6175(3) 0.6312(2)
O68_3 O 0.2143(7) 0.8301(5) 0.6520(4)
O69_3 O 0.3563(7) 0.8095(6) 0.6615(4)
O70_2 O 0.2304(4) 0.4344(3) 0.6345(2)
O71_2 O 0.1739(5) 0.2358(4) 0.6785(3)
O73_3 O 0.0935(5) 0.5045(7) 0.8962(3)
O74_2 O 0.2398(5) 0.4722(4) 0.9027(2)
O75_3 O 0.6248(6) 0.4211(5) 0.4885(3)
C1_2 C 0.1057(5) 0.3429(5) 0.5057(3)
H1_3 H 0.1232 0.3578 0.4805
H2_2 H 0.1169 0.2989 0.5078
C2_2 C 0.0287(6) 0.3505(5) 0.5065(3)
H3_2 H 0.0093 0.3234 0.5266
H4_3 H 0.0098 0.3380 0.4810
C3_2 C 0.0082(5) 0.4172(5) 0.5150(3)
C4_2 C 0.3633(6) 0.3302(5) 0.5102(3)
H5_2 H 0.4078 0.3499 0.5060
H6_2 H 0.3720 0.2872 0.5178
C5_3 C 0.3263(8) 0.3298(7) 0.4724(4)
H7_3 H 0.2844 0.3056 0.4759
H8_3 H 0.3546 0.3079 0.4532
C6_3 C 0.3066(7) 0.3915(6) 0.4547(4)
C7_2 C 0.4726(6) 0.3161(5) 0.6469(3)
H9_2 H 0.5042 0.3385 0.6641
H10_2 H 0.4613 0.2768 0.6596
C8_2 C 0.5088(7) 0.3027(6) 0.6068(4)
H11_2 H 0.5550 0.2870 0.6115
H12_2 H 0.4832 0.2713 0.5922
C9_2 C 0.5125(6) 0.3625(6) 0.5828(4)
C10_2 C 0.3308(6) 0.3444(6) 0.7677(3)
H13_2 H 0.3284 0.3760 0.7882
H14_2 H 0.3014 0.3100 0.7757
C11_2 C 0.4042(7) 0.3213(6) 0.7644(4)
H15_2 H 0.4194 0.3075 0.7904
H16_2 H 0.4051 0.2854 0.7469
C12_2 C 0.4544(7) 0.3689(6) 0.7492(4)
C13_2 C 0.0734(6) 0.3650(6) 0.7566(3)
H17_2 H 0.0296 0.3868 0.7557
H18_2 H 0.0643 0.3212 0.7516
C14_2 C 0.1026(9) 0.3713(8) 0.7976(5)
H19_2 H 0.0650 0.3798 0.8158
H20_2 H 0.1229 0.3317 0.8052
C15_2 C 0.1559(6) 0.4212(6) 0.8023(3)
C19_3 C 0.5231(6) 0.6802(6) 0.6432(4)
H25_3 H 0.5204 0.7235 0.6515
H26_3 H 0.5446 0.6570 0.6646
C20_3 C 0.5694(8) 0.6760(6) 0.6067(4)
H27_3 H 0.5610 0.7118 0.5897
H28_3 H 0.6174 0.6772 0.6149
C21_3 C 0.5561(5) 0.6164(6) 0.5834(3)
C22_3 C 0.3793(7) 0.6927(7) 0.7638(3)
H29_3 H 0.3627 0.7347 0.7685
H30_3 H 0.3642 0.6670 0.7858
C23_3 C 0.4564(7) 0.6937(7) 0.7632(4)
H31_3 H 0.4731 0.7040 0.7895
H32_3 H 0.4717 0.7262 0.7453
C24_3 C 0.4883(7) 0.6318(7) 0.7503(4)
C25_3 C 0.1297(7) 0.7288(6) 0.7518(3)
H33_3 H 0.1210 0.7710 0.7426
H34_3 H 0.0854 0.7098 0.7578
C26_3 C 0.1726(8) 0.7318(6) 0.7897(3)
H35_3 H 0.2068 0.7646 0.7871
H36_3 H 0.1428 0.7423 0.8118
C27_3 C 0.2086(6) 0.6706(5) 0.7982(3)
C28_3 C 0.0137(6) 0.7301(6) 0.6145(4)
H37_3 H 0.0239 0.7681 0.5999
C31_3 C 0.1559(6) 0.7159(6) 0.4970(3)
H41_3 H 0.1798 0.7555 0.4946
H42_3 H 0.1677 0.6909 0.4740
C32_3 C 0.0810(7) 0.7278(6) 0.4965(4)
H43_3 H 0.0668 0.7361 0.4694
H44_3 H 0.0714 0.7648 0.5121
C33_3 C 0.0383(6) 0.6734(5) 0.5128(3)
C34_3 C 0.4136(6) 0.6845(5) 0.5086(3)
H45_3 H 0.4351 0.7232 0.5170
H46_3 H 0.4501 0.6544 0.5039
C35_3 C 0.3749(7) 0.6961(5) 0.4692(3)
H47_3 H 0.3438 0.7311 0.4728
H48_3 H 0.4083 0.7078 0.4491
C36_3 C 0.3344(7) 0.6418(7) 0.4544(4)
C37_3 C 0.3446(6) 0.5284(6) 0.8043(3)
C38_3 C 0.3764(6) 0.5501(7) 0.8433(3)
C39_3 C 0.4470(8) 0.5498(7) 0.8485(4)
H49_3 H 0.4754 0.5353 0.8282
C40_3 C 0.4306(8) 0.5859(12) 0.9100(5)
H50_3 H 0.4481 0.5985 0.9344
C41_3 C 0.3601(9) 0.5850(8) 0.9049(5)
H51_3 H 0.3317 0.5974 0.9257
C42_3 C 0.0727(5) 0.5716(6) 0.7837(3)
C43_3 C 0.0420(6) 0.6127(7) 0.8155(4)
C45_3 C 0.0452(10) 0.6534(10) 0.8774(5)
H53_3 H 0.0647 0.6559 0.9026
C47_3 C 0.1033(6) 0.5501(5) 0.4649(3)
C48_3 C 0.0729(7) 0.5770(6) 0.4266(3)
C49_3 C 0.1133(8) 0.5994(11) 0.3965(4)
H55_3 H 0.1609 0.6008 0.3999
C50_3 C 0.0154(11) 0.6122(9) 0.3597(6)
C57_2 C 0.5623(6) 0.4921(5) 0.6477(3)
C58_2 C 0.6397(6) 0.4999(6) 0.6537(3)
C59_3 C 0.6653(8) 0.5131(10) 0.6898(4)
H61_3 H 0.6353 0.5171 0.7112
C60_3 C 0.7751(7) 0.5087(8) 0.6648(4)
H62_3 H 0.8229 0.5095 0.6677
C61_2 C 0.7470(7) 0.4956(9) 0.6289(5)
H63_2 H 0.7766 0.4880 0.6077
C62_3 C 0.4780(7) 0.5175(5) 0.4946(3)
C63_3 C 0.5342(7) 0.5537(6) 0.4726(3)
C64_3 C 0.5203(8) 0.5922(7) 0.4403(4)
H64_3 H 0.4752 0.5946 0.4310
C65_3 C 0.6292(9) 0.6228(7) 0.4381(5)
H65_3 H 0.6637 0.6480 0.4276
C66_3 C 0.6439(8) 0.5852(8) 0.4685(5)
H66_3 H 0.6896 0.5832 0.4768
C67_2 C 0.7783(6) 0.4786(6) 0.5279(4)
C68_2 C 0.7756(7) 0.4117(7) 0.5443(4)
C69_2 C 0.8316(7) 0.3732(7) 0.5428(5)
H67_2 H 0.8714 0.3877 0.5304
C70_2 C 0.7159(8) 0.3409(8) 0.5747(6)
H68_2 H 0.6754 0.3269 0.5866
C71_2 C 0.7743(11) 0.3023(9) 0.5752(6)
H69_2 H 0.7708 0.2644 0.5885
C72_3 C 0.3461(7) 0.8324(6) 0.5635(4)
H70_3 H 0.3820 0.8037 0.5615
C73_2 C 0.1894(8) 0.2092(9) 0.5708(6)
C74_2 C 0.2584(8) 0.1903(10) 0.5870(6)
C75_2 C 0.2961(16) 0.1418(14) 0.5652(9)
H71_2 H 0.2792 0.1238 0.5420
C76_2 C 0.3785(19) 0.1481(16) 0.6151(10)
H72_2 H 0.4183 0.1312 0.6262
C77_2 C 0.3412(13) 0.2003(11) 0.6364(7)
H73_2 H 0.3576 0.2187 0.6596
Dy12_2 Dy 0.30480(3) 0.45053(3) 0.357599(14)
O77_2 O 0.1934(5) 0.6070(4) 0.9170(2)
H74_2 H 0.240569 0.448151 0.606985
H75_2 H 0.188023 0.455614 0.644123
H76_2 H 0.213539 0.220107 0.694284
H77_2 H 0.137601 0.251696 0.696675
H80_3 H 0.0867824 0.528734 0.921008
H81_3 H 0.0510903 0.507055 0.87974
H82_3 H 0.292488 0.598312 0.647159
H83_3 H 0.209688 0.607713 0.643479
H84_2 H 0.258699 0.493185 0.926611
H85_2 H 0.202082 0.443432 0.910655
H86_3 H 0.623261 0.375597 0.493988
H87_3 H 0.586089 0.432563 0.470623
H90_3 H 0.209779 0.859509 0.629386
H91_3 H 0.167776 0.820036 0.662572
H92_3 H 0.381279 0.832953 0.640541
H93_3 H 0.330496 0.839195 0.67857
N4_2 N 0.9544(9) 0.6816(8) 0.8365(5)
N7_2 N 0.8521(5) 0.6159(5) 0.5446(3)
N8_2 N 0.7734(7) 0.6655(7) 0.6077(4)
O14_2 O 0.9657(4) 0.4446(4) 0.4941(2)
O23_2 O 0.9914(4) 0.4522(4) 0.6852(2)
O24_2 O 0.8988(6) 0.4213(6) 0.7183(3)
O44_2 O 0.9243(6) 0.6873(6) 0.7039(3)
O46_3 O 0.9828(4) 0.6582(4) 0.4974(2)
O53_2 O 0.9577(5) 0.5690(4) 0.6248(2)
O54_2 O 0.9653(4) 0.5505(4) 0.5600(2)
O72_2 O 0.9296(6) 0.5632(7) 0.7041(4)
O76_2 O 0.8897(8) 0.4949(6) 0.4323(3)
C16_2 C 0.9657(6) 0.3781(6) 0.6201(4)
H21_2 H 0.9414 0.4102 0.6054
H22_2 H 0.9650 0.3401 0.6045
C17_2 C 0.9297(7) 0.3669(7) 0.6601(4)
H23_2 H 0.8807 0.3610 0.6554
H24_2 H 0.9475 0.3286 0.6715
C18_2 C 0.9391(6) 0.4191(6) 0.6897(4)
H38_2 H 0.9839 0.7045 0.5981
C29_2 C 0.9758(7) 0.7469(6) 0.6527(4)
H39_2 H 0.9977 0.7830 0.6646
H40_2 H 0.9286 0.7582 0.6463
C30_2 C 0.9751(6) 0.6948(6) 0.6821(4)
C44_2 C 0.9820(9) 0.6449(8) 0.8097(4)
H52_2 H 0.9596 0.6407 0.7854
C46_2 C 0.9860(10) 0.6893(11) 0.8696(6)
H54_2 H 0.9701 0.7181 0.8881
H56_3 H 0.9938 0.6190 0.3354
C51_3 C 0.9776(9) 0.5958(9) 0.3903(4)
H57_3 H 0.9298 0.5963 0.3877
C52_2 C 0.9369(6) 0.5741(6) 0.5906(4)
C53_2 C 0.8711(6) 0.6101(6) 0.5834(4)
C54_2 C 0.8344(7) 0.6367(7) 0.6123(4)
H58_2 H 0.8526 0.6351 0.6379
C55_2 C 0.7927(6) 0.6476(7) 0.5391(4)
H59_2 H 0.7764 0.6532 0.5134
C56_2 C 0.7557(7) 0.6718(7) 0.5702(4)
H60_2 H 0.7156 0.6940 0.5644
H78_2 H 0.930415 0.575616 0.732475
H79_2 H 0.906237 0.59612 0.688308
H88_2 H 0.927504 0.467849 0.422306
H89_2 H 0.849772 0.46859 0.440132
Dy1_4 Dy 0.23379(3) 0.47934(2) 0.017909(14)
Dy2_4 Dy 0.07908(3) 0.49637(2) 0.087355(14)
Dy3_4 Dy 0.09703(3) 0.49075(2) 0.199753(14)
Dy4_4 Dy 0.27880(3) 0.46844(2) 0.239547(14)
Dy5_4 Dy 0.44182(3) 0.45123(3) 0.178143(14)
Dy6_4 Dy 0.40837(3) 0.46090(2) 0.066156(14)
Dy7_3 Dy 0.28758(3) 0.68045(2) 0.135425(15)
Dy8_4 Dy 0.22869(3) 0.26713(3) 0.129096(17)
Ge1_3 Ge 0.34898(6) 0.61242(5) 0.04812(3)
Ge2_3 Ge 0.18214(5) 0.62811(5) 0.05435(3)
Ge3_3 Ge 0.11119(5) 0.63514(5) 0.14043(3)
Ge4_3 Ge 0.20366(6) 0.62135(5) 0.21935(3)
Ge5_3 Ge 0.36906(6) 0.60366(5) 0.21490(3)
Ge6_3 Ge 0.44015(6) 0.59630(5) 0.12894(3)
Ge7_4 Ge 0.06928(6) 0.35077(5) 0.13597(3)
Ge8_4 Ge 0.16240(6) 0.33875(5) 0.21535(3)
Ge9_4 Ge 0.32641(6) 0.31788(5) 0.20984(3)
Ge10_4 Ge 0.40122(6) 0.31442(5) 0.12464(3)
Ge11_4 Ge 0.31027(6) 0.32678(5) 0.04457(3)
Ge12_4 Ge 0.14370(5) 0.34531(5) 0.05042(3)
N1_4 N 0.1684(5) 0.4330(6) 0.3712(3)
N2_4 N 0.0254(8) 0.4301(7) 0.3818(5)
N3_4 N 0.4248(6) 0.3844(7) 0.3506(3)
N4_3 N 0.5456(9) 0.3184(8) 0.3365(5)
N7_3 N 0.6479(5) 0.3841(5) 0.0446(3)
N8_3 N 0.7266(7) 0.3345(7) 0.1077(4)
N15_3 N 0.2193(7) 0.7821(5) 0.1182(5)
N16_3 N 0.1448(14) 0.8741(12) 0.0806(7)
O1_3 O 0.3803(4) 0.6346(3) 0.0951(2)
O2_3 O 0.2685(4) 0.6524(3) 0.0559(2)
O3_3 O 0.1657(4) 0.6622(3) 0.10204(19)
O4_3 O 0.1732(4) 0.6617(3) 0.17666(19)
O5_3 O 0.2901(4) 0.6452(3) 0.20784(19)
O6_3 O 0.4001(4) 0.6368(3) 0.16864(19)
O7_3 O 0.3264(3) 0.5343(3) 0.0447(2)
O8_3 O 0.1707(3) 0.5480(3) 0.05704(18)
O9_3 O 0.1102(4) 0.5540(3) 0.1433(2)
O10_3 O 0.2028(4) 0.5412(3) 0.21078(19)
O11_3 O 0.3621(4) 0.5232(3) 0.20471(19)
O12_3 O 0.4174(4) 0.5179(3) 0.12437(19)
O13_3 O 0.4618(4) 0.5611(3) 0.0453(2)
O17_3 O 0.0416(4) 0.6070(4) 0.0798(2)
O19_3 O 0.0704(5) 0.5926(4) 0.2254(2)
O21_3 O 0.3075(4) 0.5694(4) 0.2722(2)
O22_3 O 0.3368(5) 0.5546(4) 0.3358(2)
O23_3 O 0.5086(4) 0.5478(4) 0.1852(2)
O24_3 O 0.6012(6) 0.5787(6) 0.2183(3)
O25_4 O 0.1181(4) 0.3122(3) 0.0977(2)
O26_4 O 0.1196(4) 0.3099(4) 0.1724(2)
O27_4 O 0.2389(4) 0.2953(3) 0.2013(2)
O28_4 O 0.3486(4) 0.2827(3) 0.1626(2)
O29_4 O 0.3355(4) 0.2888(3) 0.0892(2)
O30_4 O 0.2228(4) 0.3032(3) 0.0524(2)
O31_4 O 0.0900(4) 0.4288(3) 0.1413(2)
O32_4 O 0.1866(3) 0.4173(3) 0.2097(2)
O33_4 O 0.3434(4) 0.3972(3) 0.2038(2)
O34_4 O 0.3964(4) 0.3955(3) 0.12202(18)
O35_4 O 0.3091(4) 0.4083(3) 0.0461(2)
O36_4 O 0.1520(4) 0.4251(3) 0.0556(2)
O37_4 O 0.0062(4) 0.3978(4) 0.0787(2)
O39_4 O 0.0458(5) 0.3969(4) 0.2240(3)
O41_4 O 0.2726(4) 0.3598(3) 0.2685(2)
O42_4 O 0.2833(5) 0.3468(4) 0.3332(2)
O43_4 O 0.4749(4) 0.3412(4) 0.1811(2)
O44_3 O 0.5757(6) 0.3127(6) 0.2039(3)
O45_4 O 0.4350(4) 0.3524(3) 0.0437(2)
O49_4 O 0.1167(4) 0.4837(4) 0.2767(2)
O50_4 O 0.2204(4) 0.4725(3) 0.30434(19)
O51_4 O 0.3664(3) 0.4489(4) 0.29269(19)
O52_4 O 0.4586(4) 0.4380(4) 0.2537(2)
O53_3 O 0.5423(5) 0.4310(4) 0.1248(2)
O54_3 O 0.5347(4) 0.4495(4) 0.0600(2)
O57_3 O 0.0035(4) 0.5065(4) 0.0274(2)
O63_4 O 0.2030(5) 0.1811(4) 0.0847(3)
O65_3 O 0.3445(6) 0.7572(4) 0.0933(3)
O66_3 O 0.3297(9) 0.8119(8) 0.0378(5)
O67_4 O 0.2450(4) 0.3825(3) 0.1312(2)
O68_4 O 0.2857(7) 0.1699(5) 0.1520(4)
O69_4 O 0.1437(7) 0.1905(6) 0.1615(4)
O70_3 O 0.2696(4) 0.5656(3) 0.1345(2)
O71_3 O 0.3261(5) 0.7642(4) 0.1785(3)
O72_3 O 0.5704(6) 0.4368(7) 0.2041(4)
O73_4 O 0.4065(5) 0.4955(7) 0.3962(3)
O74_3 O 0.2602(5) 0.5278(4) 0.4027(2)
C1_3 C 0.3943(5) 0.6571(5) 0.0057(3)
H2_3 H 0.3831 0.7011 0.0078
C2_3 C 0.4713(6) 0.6495(5) 0.0065(3)
H3_3 H 0.4907 0.6766 0.0266
C3_3 C 0.4918(5) 0.5828(5) 0.0150(3)
C4_3 C 0.1367(6) 0.6698(5) 0.0102(3)
H5_3 H 0.0922 0.6501 0.0060
H6_3 H 0.1280 0.7128 0.0178
C7_3 C 0.0274(6) 0.6839(5) 0.1469(3)
H10_3 H 0.0387 0.7232 0.1596
H12_3 H 0.0168 0.7287 0.0922
C10_3 C 0.1692(6) 0.6556(6) 0.2677(3)
H13_3 H 0.1716 0.6240 0.2882
H14_3 H 0.1986 0.6900 0.2757
C11_3 C 0.0958(7) 0.6787(6) 0.2644(4)
H15_3 H 0.0806 0.6925 0.2904
H16_3 H 0.0949 0.7146 0.2469
C12_3 C 0.0456(7) 0.6311(6) 0.2492(4)
C13_3 C 0.4266(6) 0.6350(6) 0.2566(3)
H17_3 H 0.4704 0.6132 0.2557
H18_3 H 0.4357 0.6788 0.2516
C14_3 C 0.3974(9) 0.6287(8) 0.2976(5)
H19_3 H 0.4350 0.6202 0.3158
H20_3 H 0.3771 0.6683 0.3052
C15_3 C 0.3441(6) 0.5788(6) 0.3023(3)
C16_3 C 0.5343(6) 0.6219(6) 0.1201(4)
H21_3 H 0.5586 0.5898 0.1054
H22_3 H 0.5350 0.6599 0.1045
C17_3 C 0.5703(7) 0.6331(7) 0.1601(4)
H23_3 H 0.6193 0.6390 0.1554
H24_3 H 0.5525 0.6714 0.1715
C18_3 C 0.5609(6) 0.5809(6) 0.1897(4)
C22_4 C 0.1207(7) 0.3073(7) 0.2638(3)
H29_4 H 0.1373 0.2653 0.2685
H30_4 H 0.1358 0.3330 0.2858
C23_4 C 0.0436(7) 0.3063(7) 0.2632(4)
H31_4 H 0.0269 0.2960 0.2895
H32_4 H 0.0283 0.2738 0.2453
C24_4 C 0.0117(7) 0.3682(7) 0.2503(4)
C25_4 C 0.3703(7) 0.2712(6) 0.2518(3)
H33_4 H 0.3790 0.2290 0.2426
H34_4 H 0.4146 0.2902 0.2578
C26_4 C 0.3274(8) 0.2682(6) 0.2897(3)
H35_4 H 0.2932 0.2354 0.2871
H36_4 H 0.3572 0.2577 0.3118
C27_4 C 0.2914(6) 0.3294(5) 0.2982(3)
C28_4 C 0.4863(6) 0.2699(6) 0.1145(4)
H37_4 H 0.4761 0.2319 0.0999
H38_3 H 0.5161 0.2955 0.0981
C29_3 C 0.5242(7) 0.2531(6) 0.1527(4)
H39_3 H 0.5023 0.2170 0.1646
H40_3 H 0.5714 0.2418 0.1463
C30_3 C 0.5249(6) 0.3052(6) 0.1821(4)
H44_4 H 0.4286 0.2352 0.0121
C33_4 C 0.4617(6) 0.3266(5) 0.0128(3)
C34_4 C 0.0864(6) 0.3155(5) 0.0086(3)
H45_4 H 0.0649 0.2768 0.0170
H46_4 H 0.0499 0.3456 0.0039
C37_4 C 0.1554(6) 0.4716(6) 0.3043(3)
C38_4 C 0.1236(6) 0.4499(7) 0.3433(3)
C39_4 C 0.0530(8) 0.4502(7) 0.3485(4)
H49_4 H 0.0246 0.4647 0.3282
C40_4 C 0.0694(8) 0.4141(12) 0.4100(5)
H50_4 H 0.0519 0.4015 0.4344
C41_4 C 0.1399(9) 0.4150(8) 0.4049(5)
H51_4 H 0.1683 0.4026 0.4257
C42_4 C 0.4273(5) 0.4284(6) 0.2837(3)
C43_4 C 0.4580(6) 0.3873(7) 0.3155(4)
C44_3 C 0.5180(9) 0.3551(8) 0.3097(4)
H52_3 H 0.5404 0.3593 0.2854
C45_4 C 0.4548(10) 0.3466(10) 0.3774(5)
H53_4 H 0.4353 0.3441 0.4026
C46_3 C 0.5140(10) 0.3107(11) 0.3696(6)
H54_3 H 0.5299 0.2819 0.3881
C52_3 C 0.5631(6) 0.4259(6) 0.0906(4)
C53_3 C 0.6289(6) 0.3899(6) 0.0834(4)
C54_3 C 0.6656(7) 0.3633(7) 0.1123(4)
H58_3 H 0.6474 0.3649 0.1379
C55_3 C 0.7073(6) 0.3524(7) 0.0391(4)
H59_3 H 0.7236 0.3468 0.0134
C56_3 C 0.7443(7) 0.3282(7) 0.0702(4)
H60_3 H 0.7844 0.3060 0.0644
C72_4 C 0.1539(7) 0.1676(6) 0.0635(4)
H70_4 H 0.1180 0.1963 0.0615
C73_3 C 0.3106(8) 0.7908(9) 0.0708(6)
C74_3 C 0.2416(8) 0.8097(10) 0.0870(6)
C75_3 C 0.2039(16) 0.8582(14) 0.0652(9)
H71_3 H 0.2208 0.8762 0.0420
C76_3 C 0.1215(19) 0.8519(16) 0.1151(10)
H72_3 H 0.0817 0.8688 0.1262
C77_3 C 0.1588(13) 0.7997(11) 0.1364(7)
H73_3 H 0.1424 0.7813 0.1596
O78 O 0.6659(5) 0.5047(5) 0.0120(4)
H74_3 H 0.259431 0.551849 0.106985
H75_3 H 0.311977 0.544386 0.144123
H76_3 H 0.286461 0.779893 0.194284
H77_3 H 0.362399 0.748304 0.196675
H78_3 H 0.569585 0.424384 0.232475
H79_3 H 0.593763 0.40388 0.188308
H80_4 H 0.413218 0.471266 0.421008
H81_4 H 0.44891 0.492945 0.37974
H82_4 H 0.207512 0.401688 0.147159
H83_4 H 0.290312 0.392287 0.143479
H84_3 H 0.241301 0.506815 0.426611
H85_3 H 0.297918 0.556568 0.410655
H90_4 H 0.290221 0.140491 0.129386
H91_4 H 0.332224 0.179964 0.162572
H92_4 H 0.118721 0.167047 0.140541
H93_4 H 0.169504 0.160805 0.17857
N5_4 N 0.4950(5) 0.4216(6) 0.9250(3)
N6_4 N 0.4142(10) 0.3804(9) 0.8621(5)
O14_3 O 0.5343(4) 0.5554(4) 0.9941(2)
O15_4 O 0.2232(4) 0.5703(4) 0.9762(2)
O46_4 O 0.5172(4) 0.3418(4) 0.9974(2)
O47_4 O 0.2010(4) 0.3891(4) 0.9808(2)
O48_4 O 0.1674(8) 0.3708(6) 0.9193(3)
O55_4 O 0.4380(4) 0.4563(4) 0.9932(2)
O56_4 O 0.3333(4) 0.4610(4) 0.9650(2)
O58_4 O 0.0813(5) 0.4853(5) 0.9797(2)
O76_3 O 0.6103(8) 0.5051(6) 0.9323(3)
H1_4 H 0.3768 0.6422 0.9805
H4_4 H 0.4902 0.6620 0.9810
C5_4 C 0.1737(8) 0.6702(7) 0.9724(4)
H7_4 H 0.2156 0.6944 0.9759
H8_4 H 0.1454 0.6921 0.9532
C6_4 C 0.1934(7) 0.6085(6) 0.9547(4)
C31_4 C 0.3441(6) 0.2841(6) 0.9970(3)
H41_4 H 0.3202 0.2445 0.9946
H42_4 H 0.3323 0.3091 0.9740
C32_4 C 0.4190(7) 0.2722(6) 0.9965(4)
H43_4 H 0.4332 0.2639 0.9694
C35_4 C 0.1251(7) 0.3039(5) 0.9692(3)
H47_4 H 0.1562 0.2689 0.9728
H48_4 H 0.0917 0.2922 0.9491
C36_4 C 0.1656(7) 0.3582(7) 0.9544(4)
C47_4 C 0.3967(6) 0.4499(5) 0.9649(3)
C48_4 C 0.4271(7) 0.4230(6) 0.9266(3)
C49_4 C 0.3867(8) 0.4006(11) 0.8965(4)
H55_4 H 0.3391 0.3992 0.8999
C50_4 C 0.4846(11) 0.3878(9) 0.8597(6)
H56_4 H 0.5062 0.3810 0.8354
C51_4 C 0.5224(9) 0.4042(9) 0.8903(4)
H57_4 H 0.5702 0.4037 0.8877
C62_4 C 0.0220(7) 0.4825(5) 0.9946(3)
H64_4 H 0.0248 0.4054 0.9310
H88_3 H 0.572496 0.532151 0.922306
H89_3 H 0.650228 0.53141 0.940132
Dy11_3 Dy 0.88578(3) 0.52110(3) 0.051012(17)
N9_3 N 0.8202(5) 0.5071(5) 0.1225(3)
N10_4 N 0.7652(7) 0.4794(8) 0.1958(4)
N13_3 N 0.7835(5) 0.6052(5) 0.0586(3)
N14_3 N 0.6676(6) 0.6847(7) 0.0585(6)
O18_3 O 0.9311(4) 0.6212(4) 0.0663(3)
O20_3 O 0.9842(5) 0.6326(6) 0.2601(3)
O38_4 O 0.8938(4) 0.4125(4) 0.0692(2)
O40_4 O 0.9570(6) 0.3856(6) 0.2644(4)
O59_4 O 0.7738(4) 0.4902(4) 0.0314(3)
O61_3 O 0.9575(4) 0.5123(4) 0.1122(2)
O62_3 O 0.9733(4) 0.5031(4) 0.1774(2)
H9_3 H 0.9958 0.6615 0.1641
C8_3 C 0.9912(7) 0.6973(6) 0.1068(4)
H11_3 H 0.9450 0.7130 0.1115
C9_3 C 0.9875(6) 0.6375(6) 0.0828(4)
C19_4 C 0.9769(6) 0.3198(6) 0.1432(4)
H25_4 H 0.9796 0.2765 0.1515
H26_4 H 0.9554 0.3430 0.1646
C20_4 C 0.9306(8) 0.3240(6) 0.1067(4)
H27_4 H 0.9390 0.2882 0.0897
H28_4 H 0.8826 0.3228 0.1149
C21_4 C 0.9439(5) 0.3836(6) 0.0834(3)
C57_3 C 0.9377(6) 0.5079(5) 0.1477(3)
C58_3 C 0.8603(6) 0.5001(6) 0.1537(3)
C59_4 C 0.8347(8) 0.4869(10) 0.1898(4)
H61_4 H 0.8647 0.4829 0.2112
C60_4 C 0.7249(7) 0.4913(8) 0.1648(4)
H62_4 H 0.6771 0.4905 0.1677
C61_3 C 0.7530(7) 0.5044(9) 0.1289(5)
H63_3 H 0.7234 0.5120 0.1077
C67_3 C 0.7217(6) 0.5214(6) 0.0279(4)
C68_3 C 0.7244(7) 0.5883(7) 0.0443(4)
C69_3 C 0.6684(7) 0.6268(7) 0.0428(5)
H67_3 H 0.6286 0.6123 0.0304
C70_3 C 0.7841(8) 0.6591(8) 0.0747(6)
H68_3 H 0.8246 0.6731 0.0866
C71_3 C 0.7257(11) 0.6977(9) 0.0752(6)
H69_3 H 0.7292 0.7356 0.0885
N11_4 N 0.9020(5) 0.4494(5) 0.9876(3)
N12_4 N 0.9324(8) 0.3750(6) 0.9227(4)
O75_4 O 0.8752(6) 0.5789(5) 0.9885(3)
C63_4 C 0.9658(7) 0.4463(6) 0.9726(3)
C64_4 C 0.9797(8) 0.4078(7) 0.9403(4)
C65_4 C 0.8708(9) 0.3772(7) 0.9381(5)
H65_4 H 0.8363 0.3520 0.9276
C66_4 C 0.8561(8) 0.4148(8) 0.9685(5)
H66_4 H 0.8104 0.4168 0.9768
H86_4 H 0.876739 0.624403 0.993988
H87_4 H 0.913911 0.567437 0.970623
N4_4 N 0.0456(9) 0.1816(8) 0.6635(5)
N7_4 N 0.1479(5) 0.1159(5) 0.9554(3)
N8_4 N 0.2266(7) 0.1655(7) 0.8923(4)
O44_4 O 0.0757(6) 0.1873(6) 0.7961(3)
O53_4 O 0.0423(5) 0.0690(4) 0.8752(2)
O54_4 O 0.0347(4) 0.0505(4) 0.9400(2)
O72_4 O 0.0704(6) 0.0632(7) 0.7959(4)
H38_4 H 0.0161 0.2045 0.9019
C29_4 C 0.0242(7) 0.2469(6) 0.8473(4)
H39_4 H 0.0023 0.2830 0.8354
H40_4 H 0.0714 0.2582 0.8537
C30_4 C 0.0249(6) 0.1948(6) 0.8179(4)
C44_4 C 0.0180(9) 0.1449(8) 0.6903(4)
H52_4 H 0.0404 0.1407 0.7146
C46_4 C 0.0140(10) 0.1893(11) 0.6304(6)
H54_4 H 0.0299 0.2181 0.6119
C52_4 C 0.0631(6) 0.0741(6) 0.9094(4)
C53_4 C 0.1289(6) 0.1101(6) 0.9166(4)
C54_4 C 0.1656(7) 0.1367(7) 0.8877(4)
H58_4 H 0.1474 0.1351 0.8621
C55_4 C 0.2073(6) 0.1476(7) 0.9609(4)
H59_4 H 0.2236 0.1532 0.9866
C56_4 C 0.2443(7) 0.1718(7) 0.9298(4)
H60_4 H 0.2844 0.1940 0.9356
H78_4 H 0.0695845 0.0756159 0.767525
H79_4 H 0.0937628 0.0961201 0.811692
O14_4 O 0.0343(4) 0.9446(4) 0.0059(2)
O76_4 O 0.1103(8) 0.9949(6) 0.0677(3)
H88_4 H 0.072496 0.967849 0.0776943
H89_4 H 0.150228 0.96859 0.0598683
O23_4 O 0.0086(4) 0.9522(4) 0.8148(2)
O24_4 O 0.1012(6) 0.9213(6) 0.7817(3)
C16_4 C 0.0343(6) 0.8781(6) 0.8799(4)
H21_4 H 0.0586 0.9102 0.8946
H22_4 H 0.0350 0.8401 0.8955
C17_4 C 0.0703(7) 0.8669(7) 0.8399(4)
H23_4 H 0.1193 0.8610 0.8446
H24_4 H 0.0525 0.8286 0.8285
C18_4 C 0.0609(6) 0.9191(6) 0.8103(4)
O78_2 O 0.1659(5) 0.9953(5) 0.9880(4)
Dy7_4 Dy 0.78758(3) 0.81955(2) 0.864575(15)
Dy11_4 Dy 0.38578(3) 0.97890(3) 0.948988(17)
Ge1_4 Ge 0.84898(6) 0.88758(5) 0.95188(3)
Ge2_4 Ge 0.68214(5) 0.87189(5) 0.94565(3)
Ge3_4 Ge 0.61119(5) 0.86486(5) 0.85957(3)
Ge4_4 Ge 0.70366(6) 0.87865(5) 0.78065(3)
Ge5_4 Ge 0.86906(6) 0.89634(5) 0.78510(3)
Ge6_4 Ge 0.94015(6) 0.90370(5) 0.87106(3)
N9_4 N 0.3202(5) 0.9929(5) 0.8775(3)
N13_4 N 0.2835(5) 0.8948(5) 0.9414(3)
N14_4 N 0.1676(6) 0.8153(7) 0.9415(6)
N15_4 N 0.7193(7) 0.7179(5) 0.8818(5)
N16_4 N 0.6448(14) 0.6259(12) 0.9194(7)
O1_4 O 0.8803(4) 0.8654(3) 0.9049(2)
O2_4 O 0.7685(4) 0.8476(3) 0.9441(2)
O3_4 O 0.6657(4) 0.8378(3) 0.89796(19)
O4_4 O 0.6732(4) 0.8383(3) 0.82334(19)
O5_4 O 0.7901(4) 0.8548(3) 0.79216(19)
O6_4 O 0.9001(4) 0.8632(3) 0.83136(19)
O7_4 O 0.8264(3) 0.9657(3) 0.9553(2)
O8_4 O 0.6707(3) 0.9520(3) 0.94296(18)
O9_4 O 0.6102(4) 0.9460(3) 0.8567(2)
O10_4 O 0.7028(4) 0.9588(3) 0.78922(19)
O11_4 O 0.8621(4) 0.9768(3) 0.79529(19)
O12_4 O 0.9174(4) 0.9821(3) 0.87563(19)
O13_4 O 0.9618(4) 0.9389(3) 0.9547(2)
O17_4 O 0.5416(4) 0.8930(4) 0.9202(2)
O18_4 O 0.4311(4) 0.8788(4) 0.9337(3)
O19_4 O 0.5704(5) 0.9074(4) 0.7746(2)
O20_4 O 0.4842(5) 0.8674(6) 0.7399(3)
O21_4 O 0.8075(4) 0.9306(4) 0.7278(2)
O22_4 O 0.8368(5) 0.9454(4) 0.6642(2)
O57_4 O 0.5035(4) 0.9935(4) 0.9726(2)
O61_4 O 0.4575(4) 0.9877(4) 0.8878(2)
O62_4 O 0.4733(4) 0.9969(4) 0.8226(2)
O65_4 O 0.8445(6) 0.7428(4) 0.9067(3)
O66_4 O 0.8297(9) 0.6881(8) 0.9622(5)
O70_4 O 0.7696(4) 0.9344(3) 0.8655(2)
O71_4 O 0.8261(5) 0.7358(4) 0.8215(3)
O74_4 O 0.7602(5) 0.9722(4) 0.5973(2)
C1_4 C 0.8943(5) 0.8429(5) 0.9943(3)
H2_4 H 0.8831 0.7989 0.9922
C2_4 C 0.9713(6) 0.8505(5) 0.9935(3)
H3_4 H 0.9907 0.8234 0.9734
C3_4 C 0.9918(5) 0.9172(5) 0.9850(3)
C4_4 C 0.6367(6) 0.8302(5) 0.9898(3)
H5_4 H 0.5922 0.8499 0.9940
H6_4 H 0.6280 0.7872 0.9822
C7_4 C 0.5274(6) 0.8161(5) 0.8531(3)
H9_4 H 0.4958 0.8385 0.8359
H10_4 H 0.5387 0.7768 0.8404
C8_4 C 0.4912(7) 0.8027(6) 0.8932(4)
H11_4 H 0.4450 0.7870 0.8885
H12_4 H 0.5168 0.7713 0.9078
C9_4 C 0.4875(6) 0.8625(6) 0.9172(4)
C10_4 C 0.6692(6) 0.8444(6) 0.7323(3)
H13_4 H 0.6716 0.8760 0.7118
H14_4 H 0.6986 0.8100 0.7243
C11_4 C 0.5958(7) 0.8213(6) 0.7356(4)
H15_4 H 0.5806 0.8075 0.7096
H16_4 H 0.5949 0.7854 0.7531
C12_4 C 0.5456(7) 0.8689(6) 0.7508(4)
C13_4 C 0.9266(6) 0.8650(6) 0.7434(3)
H17_4 H 0.9704 0.8868 0.7443
H18_4 H 0.9357 0.8212 0.7484
C14_4 C 0.8974(9) 0.8713(8) 0.7024(5)
H19_4 H 0.9350 0.8798 0.6842
H20_4 H 0.8771 0.8317 0.6948
C15_4 C 0.8441(6) 0.9212(6) 0.6977(3)
C57_4 C 0.4377(6) 0.9921(5) 0.8523(3)
C58_4 C 0.3603(6) 0.9999(6) 0.8463(3)
C61_4 C 0.2530(7) 0.9956(9) 0.8711(5)
H63_4 H 0.2234 0.9880 0.8923
C67_4 C 0.2217(6) 0.9786(6) 0.9721(4)
C68_4 C 0.2244(7) 0.9117(7) 0.9557(4)
C69_4 C 0.1684(7) 0.8732(7) 0.9572(5)
H67_4 H 0.1286 0.8877 0.9696
C70_4 C 0.2841(8) 0.8409(8) 0.9253(6)
H68_4 H 0.3246 0.8269 0.9134
C71_4 C 0.2257(11) 0.8023(9) 0.9248(6)
H69_4 H 0.2292 0.7644 0.9115
C73_4 C 0.8106(8) 0.7092(9) 0.9292(6)
C74_4 C 0.7416(8) 0.6903(10) 0.9130(6)
C75_4 C 0.7039(16) 0.6418(14) 0.9348(9)
H71_4 H 0.7208 0.6238 0.9580
C76_4 C 0.6215(19) 0.6481(16) 0.8849(10)
H72_4 H 0.5817 0.6312 0.8738
C77_4 C 0.6588(13) 0.7003(11) 0.8636(7)
H73_4 H 0.6424 0.7187 0.8404
H74_4 H 0.759431 0.948151 0.893015
H75_4 H 0.811977 0.955614 0.855877
H76_4 H 0.786461 0.720107 0.805716
H77_4 H 0.862399 0.751696 0.803325
H84_4 H 0.741301 0.993185 0.573389
H85_4 H 0.797918 0.943432 0.589345
loop_
_geom_bond_atom_site_label_1
_geom_bond_atom_site_label_2
_geom_bond_site_symmetry_1
_geom_bond_site_symmetry_2
O46 Dy10 1_555 1_555
H57 C51 1_555 1_555
O79 Dy10 1_555 1_555
N5 C48 1_555 1_555
N6 C49 1_555 1_555
N12 C64 1_555 1_555
O48 C36 1_555 1_555
O58 C62 1_555 1_555
H41 C31 1_555 1_555
H42 C31 1_555 1_555
C32 C31 1_555 1_555
H43 C32 1_555 1_555
H47 C35 1_555 1_555
H48 C35 1_555 1_555
C36 O47 1_555 1_555
C47 O55 1_555 1_555
C48 C47 1_555 1_555
C49 C48 1_555 1_555
H55 C49 1_555 1_555
C50 N6 1_555 1_555
C63 N11 1_555 1_555
C64 C63 1_555 1_555
H64 C64 1_555 1_555
C65 N12 1_555 1_555
H65 C65 1_555 1_555
C66 N11 1_555 1_555
H66 C66 1_555 1_555
O56 C47 1_555 1_555
C35 C36 1_555 1_555
C62 C63 1_555 1_555
C65 C66 1_555 1_555
Dy8 O25 1_555 1_555
Dy9 N1 1_555 1_555
Ge7 O25 1_555 1_555
Ge8 O26 1_555 1_555
Ge9 O27 1_555 1_555
Ge10 O28 1_555 1_555
Ge11 O29 1_555 1_555
Ge12 O25 1_555 1_555
N1 C38 1_555 1_555
N2 C39 1_555 1_555
N3 Dy9 1_555 1_555
N10 C59 1_555 1_555
O26 Dy8 1_555 1_555
O27 Dy8 1_555 1_555
O28 Dy8 1_555 1_555
O29 Dy8 1_555 1_555
O30 Dy8 1_555 1_555
O31 Dy2 1_555 1_555
O32 Dy3 1_555 1_555
O33 Dy4 1_555 1_555
O34 Dy5 1_555 1_555
O35 Dy1 1_555 1_555
O36 Dy1 1_555 1_555
O37 Dy2 1_555 1_555
O39 Dy3 1_555 1_555
O40 C24 1_555 1_555
O41 Dy4 1_555 1_555
O42 Dy9 1_555 1_555
O43 Dy5 1_555 1_555
O45 Dy6 1_555 1_555
O49 Dy3 1_555 1_555
O50 Dy4 1_555 1_555
O51 Dy4 1_555 1_555
O52 Dy5 1_555 1_555
O63 Dy8 1_555 1_555
O64 C72 1_555 1_555
O67 Dy8 1_555 1_555
O68 Dy8 1_555 1_555
O69 Dy8 1_555 1_555
O73 Dy9 1_555 1_555
C19 Ge7 1_555 1_555
H25 C19 1_555 1_555
H26 C19 1_555 1_555
C20 C19 1_555 1_555
H27 C20 1_555 1_555
H28 C20 1_555 1_555
C21 O37 1_555 1_555
C22 Ge8 1_555 1_555
H29 C22 1_555 1_555
H30 C22 1_555 1_555
C23 C22 1_555 1_555
H31 C23 1_555 1_555
H32 C23 1_555 1_555
C24 O39 1_555 1_555
C25 Ge9 1_555 1_555
H33 C25 1_555 1_555
H34 C25 1_555 1_555
C26 C25 1_555 1_555
H35 C26 1_555 1_555
H36 C26 1_555 1_555
C27 O41 1_555 1_555
C28 Ge10 1_555 1_555
H37 C28 1_555 1_555
C33 O45 1_555 1_555
C34 Ge12 1_555 1_555
H45 C34 1_555 1_555
H46 C34 1_555 1_555
C37 O49 1_555 1_555
C38 C37 1_555 1_555
C39 C38 1_555 1_555
H49 C39 1_555 1_555
C40 N2 1_555 1_555
H50 C40 1_555 1_555
C41 N1 1_555 1_555
H51 C41 1_555 1_555
C42 O51 1_555 1_555
C43 N3 1_555 1_555
C45 N3 1_555 1_555
H53 C45 1_555 1_555
H61 C59 1_555 1_555
C60 N10 1_555 1_555
H62 C60 1_555 1_555
C72 O63 1_555 1_555
H70 C72 1_555 1_555
Dy14 O64 1_555 1_555
O77 Dy9 1_555 1_555
Dy2 O36 1_555 1_555
Dy3 O31 1_555 1_555
Dy4 O32 1_555 1_555
Dy5 O33 1_555 1_555
Dy6 O34 1_555 1_555
Dy6 O35 1_555 1_555
Dy9 O50 1_555 1_555
Dy9 O51 1_555 1_555
Ge7 O26 1_555 1_555
Ge7 O31 1_555 1_555
Ge8 O27 1_555 1_555
Ge8 O32 1_555 1_555
Ge9 O28 1_555 1_555
Ge9 O33 1_555 1_555
Ge10 O29 1_555 1_555
Ge10 O34 1_555 1_555
Ge11 O30 1_555 1_555
Ge11 O35 1_555 1_555
Ge12 O30 1_555 1_555
Ge12 O36 1_555 1_555
O38 C21 1_555 1_555
O42 C27 1_555 1_555
O50 C37 1_555 1_555
O52 C42 1_555 1_555
C20 C21 1_555 1_555
C23 C24 1_555 1_555
C26 C27 1_555 1_555
C40 C41 1_555 1_555
C42 C43 1_555 1_555
O73 H80 1_555 1_555
O73 H81 1_555 1_555
O67 H82 1_555 1_555
O67 H83 1_555 1_555
O68 H90 1_555 1_555
O68 H91 1_555 1_555
O69 H92 1_555 1_555
O69 H93 1_555 1_555
O16 C6 1_555 1_555
H7 C5 1_555 1_555
H8 C5 1_555 1_555
C6 O15 1_555 1_555
Dy12 O16 1_555 1_555
C5 C6 1_555 1_555
O75 H86 1_555 1_555
O75 H87 1_555 1_555
Dy11 N9 1_555 1_555
N9 C58 1_555 1_555
N13 Dy11 1_555 1_555
N14 C69 1_555 1_555
O18 Dy11 1_555 1_555
O60 C67 1_555 1_555
O75_2 Dy11 1_555 1_555
H11 C8 1_555 1_555
C57 O61 1_555 1_555
C58 C57 1_555 1_555
C61 N9 1_555 1_555
H63 C61 1_555 1_555
C68 N13 1_555 1_555
C69 C68 1_555 1_555
H67 C69 1_555 1_555
C70 N13 1_555 1_555
H68 C70 1_555 1_555
C71 N14 1_555 1_555
H69 C71 1_555 1_555
Dy11 O61 1_555 1_555
O18 C9 1_555 1_555
O62 C57 1_555 1_555
C8 C9 1_555 1_555
C67 C68 1_555 1_555
C70 C71 1_555 1_555
O75_2 H86_2 1_555 1_555
O75_2 H87_2 1_555 1_555
N10_2 C59_2 1_555 1_555
N12_2 C64_2 1_555 1_555
H25_2 C19_2 1_555 1_555
H26_2 C19_2 1_555 1_555
C20_2 C19_2 1_555 1_555
H27_2 C20_2 1_555 1_555
H28_2 C20_2 1_555 1_555
H61_2 C59_2 1_555 1_555
C60_2 N10_2 1_555 1_555
H62_2 C60_2 1_555 1_555
C63_2 N11_2 1_555 1_555
C64_2 C63_2 1_555 1_555
C65_2 N12_2 1_555 1_555
H65_2 C65_2 1_555 1_555
C66_2 N11_2 1_555 1_555
H66_2 C66_2 1_555 1_555
O38_2 C21_2 1_555 1_555
C20_2 C21_2 1_555 1_555
C65_2 C66_2 1_555 1_555
Dy7 N15 1_555 1_555
Ge1 O1 1_555 1_555
Ge2 O2 1_555 1_555
Ge3 O3 1_555 1_555
Ge4 O4 1_555 1_555
Ge5 O5 1_555 1_555
Ge6 O1 1_555 1_555
N15 C74 1_555 1_555
N16 C75 1_555 1_555
O1 Dy7 1_555 1_555
O2 Dy7 1_555 1_555
O3 Dy7 1_555 1_555
O4 Dy7 1_555 1_555
O5 Dy7 1_555 1_555
O6 Dy7 1_555 1_555
O7 Ge1 1_555 1_555
O77 C6_2 1_555 1_555
O24 C18 1_555 1_555
O65 Dy7 1_555 1_555
O66 C73 1_555 1_555
O70 Dy7 1_555 1_555
O71 Dy7 1_555 1_555
C1 Ge1 1_555 1_555
H1_2 C1 1_555 1_555
H2 C1 1_555 1_555
C2 C1 1_555 1_555
H3 C2 1_555 1_555
H4_2 C2 1_555 1_555
C3 O13 1_555 1_555
C4 Ge2 1_555 1_555
H5 C4 1_555 1_555
H6 C4 1_555 1_555
C5_2 C4 1_555 1_555
H7_2 C5_2 1_555 1_555
H8_2 C5_2 1_555 1_555
C6_2 O15_2 1_555 1_555
C7 Ge3 1_555 1_555
H10 C7 1_555 1_555
C10 Ge4 1_555 1_555
H13 C10 1_555 1_555
H14 C10 1_555 1_555
C11 C10 1_555 1_555
H15 C11 1_555 1_555
H16 C11 1_555 1_555
C12 O19 1_555 1_555
C13 Ge5 1_555 1_555
H17 C13 1_555 1_555
H18 C13 1_555 1_555
C14 C13 1_555 1_555
H19 C14 1_555 1_555
H20 C14 1_555 1_555
C15 O21 1_555 1_555
C16 Ge6 1_555 1_555
H21 C16 1_555 1_555
H22 C16 1_555 1_555
C17 C16 1_555 1_555
H23 C17 1_555 1_555
H24 C17 1_555 1_555
C18 O23 1_555 1_555
C73 O65 1_555 1_555
C74 C73 1_555 1_555
C75 C74 1_555 1_555
H71 C75 1_555 1_555
C76 N16 1_555 1_555
H72 C76 1_555 1_555
C77 N15 1_555 1_555
H73 C77 1_555 1_555
Ge1 O2 1_555 1_555
Ge2 O3 1_555 1_555
Ge2 O8 1_555 1_555
Ge3 O4 1_555 1_555
Ge3 O9 1_555 1_555
Ge4 O5 1_555 1_555
Ge4 O10 1_555 1_555
Ge5 O6 1_555 1_555
Ge5 O11 1_555 1_555
Ge6 O6 1_555 1_555
Ge6 O12 1_555 1_555
O14 C3 1_555 1_555
O22 C15 1_555 1_555
C2 C3 1_555 1_555
C5_2 C6_2 1_555 1_555
C11 C12 1_555 1_555
C14 C15 1_555 1_555
C17 C18 1_555 1_555
C76 C77 1_555 1_555
O70 H74 1_555 1_555
O70 H75 1_555 1_555
O71 H76 1_555 1_555
O71 H77 1_555 1_555
O74 H84 1_555 1_555
O74 H85 1_555 1_555
O76 H88 1_555 1_555
O76 H89 1_555 1_555
Dy8_2 O25_2 1_555 1_555
Dy12 N1_2 1_555 1_555
Dy13 N5_2 1_555 1_555
Ge7_2 O25_2 1_555 1_555
Ge8_2 O26_2 1_555 1_555
Ge9_2 O27_2 1_555 1_555
Ge10_2 O28_2 1_555 1_555
Ge11_2 O29_2 1_555 1_555
Ge12_2 O25_2 1_555 1_555
N1_2 C38_2 1_555 1_555
N2_2 C39_2 1_555 1_555
N3_2 Dy12 1_555 1_555
N4 C44 1_555 1_555
N5_2 C48_2 1_555 1_555
N6_2 C49_2 1_555 1_555
N7 Dy13 1_555 1_555
N8 C54 1_555 1_555
O26_2 Dy8_2 1_555 1_555
O27_2 Dy8_2 1_555 1_555
O28_2 Dy8_2 1_555 1_555
O29_2 Dy8_2 1_555 1_555
O30_2 Dy8_2 1_555 1_555
O31_2 Dy2_2 1_555 1_555
O32_2 Dy3_2 1_555 1_555
O33_2 Dy4_2 1_555 1_555
O34_2 Dy5_2 1_555 1_555
O35_2 Dy1_2 1_555 1_555
O36_2 Dy1_2 1_555 1_555
O37_2 Dy2_2 1_555 1_555
O39_2 Dy3_2 1_555 1_555
O41_2 Dy4_2 1_555 1_555
O42_2 Dy12 1_555 1_555
O43_2 Dy5_2 1_555 1_555
O44 C30 1_555 1_555
O45_2 Dy6_2 1_555 1_555
O46_2 Dy13 1_555 1_555
O47_2 Dy1_2 1_555 1_555
O48_2 C36_2 1_555 1_555
O49_2 Dy3_2 1_555 1_555
O50_2 Dy4_2 1_555 1_555
O51_2 Dy4_2 1_555 1_555
O52_2 Dy5_2 1_555 1_555
O53 Dy5_2 1_555 1_555
O54 Dy6_2 1_555 1_555
O55_2 Dy6_2 1_555 1_555
O56_2 Dy1_2 1_555 1_555
O58_2 C62_2 1_555 1_555
O63_2 Dy8_2 1_555 1_555
O64_2 C72_2 1_555 1_555
O67_2 Dy8_2 1_555 1_555
O68_2 Dy8_2 1_555 1_555
O69_2 Dy8_2 1_555 1_555
O72 Dy5_2 1_555 1_555
O73_2 Dy12 1_555 1_555
C22_2 Ge8_2 1_555 1_555
H29_2 C22_2 1_555 1_555
H30_2 C22_2 1_555 1_555
C23_2 C22_2 1_555 1_555
H31_2 C23_2 1_555 1_555
H32_2 C23_2 1_555 1_555
C24_2 O39_2 1_555 1_555
C25_2 Ge9_2 1_555 1_555
H33_2 C25_2 1_555 1_555
H34_2 C25_2 1_555 1_555
C26_2 C25_2 1_555 1_555
H35_2 C26_2 1_555 1_555
H36_2 C26_2 1_555 1_555
C27_2 O41_2 1_555 1_555
C28_2 Ge10_2 1_555 1_555
H37_2 C28_2 1_555 1_555
H38 C28_2 1_555 1_555
C29 C28_2 1_555 1_555
H39 C29 1_555 1_555
H40 C29 1_555 1_555
C30 O43_2 1_555 1_555
C31_2 Ge11_2 1_555 1_555
H41_2 C31_2 1_555 1_555
H42_2 C31_2 1_555 1_555
C32_2 C31_2 1_555 1_555
H43_2 C32_2 1_555 1_555
H44_2 C32_2 1_555 1_555
C33_2 O45_2 1_555 1_555
C34_2 Ge12_2 1_555 1_555
H45_2 C34_2 1_555 1_555
H46_2 C34_2 1_555 1_555
C35_2 C34_2 1_555 1_555
H47_2 C35_2 1_555 1_555
H48_2 C35_2 1_555 1_555
C36_2 O47_2 1_555 1_555
C37_2 O49_2 1_555 1_555
C38_2 C37_2 1_555 1_555
C39_2 C38_2 1_555 1_555
H49_2 C39_2 1_555 1_555
C40_2 N2_2 1_555 1_555
H50_2 C40_2 1_555 1_555
C41_2 N1_2 1_555 1_555
H51_2 C41_2 1_555 1_555
C42_2 O51_2 1_555 1_555
C43_2 N3_2 1_555 1_555
C44 C43_2 1_555 1_555
H52 C44 1_555 1_555
C45_2 N3_2 1_555 1_555
H53_2 C45_2 1_555 1_555
C46 N4 1_555 1_555
H54 C46 1_555 1_555
C47_2 O55_2 1_555 1_555
C48_2 C47_2 1_555 1_555
C49_2 C48_2 1_555 1_555
H55_2 C49_2 1_555 1_555
C50_2 N6_2 1_555 1_555
H56_2 C50_2 1_555 1_555
C51_2 N5_2 1_555 1_555
H57_2 C51_2 1_555 1_555
C52 O53 1_555 1_555
C53 N7 1_555 1_555
C54 C53 1_555 1_555
H58 C54 1_555 1_555
C55 N7 1_555 1_555
H59 C55 1_555 1_555
C56 N8 1_555 1_555
H60 C56 1_555 1_555
C72_2 O63_2 1_555 1_555
H70_2 C72_2 1_555 1_555
Dy14_2 O64_2 1_555 1_555
O79_2 Dy13 1_555 1_555
Dy2_2 O36_2 1_555 1_555
Dy3_2 O31_2 1_555 1_555
Dy4_2 O32_2 1_555 1_555
Dy5_2 O33_2 1_555 1_555
Dy6_2 O34_2 1_555 1_555
Dy6_2 O35_2 1_555 1_555
Dy12 O50_2 1_555 1_555
Dy12 O51_2 1_555 1_555
Dy13 O54 1_555 1_555
Dy13 O55_2 1_555 1_555
Ge7_2 O26_2 1_555 1_555
Ge7_2 O31_2 1_555 1_555
Ge8_2 O27_2 1_555 1_555
Ge8_2 O32_2 1_555 1_555
Ge9_2 O28_2 1_555 1_555
Ge9_2 O33_2 1_555 1_555
Ge10_2 O29_2 1_555 1_555
Ge10_2 O34_2 1_555 1_555
Ge11_2 O30_2 1_555 1_555
Ge11_2 O35_2 1_555 1_555
Ge12_2 O30_2 1_555 1_555
Ge12_2 O36_2 1_555 1_555
O42_2 C27_2 1_555 1_555
O46_2 C33_2 1_555 1_555
O50_2 C37_2 1_555 1_555
O52_2 C42_2 1_555 1_555
O54 C52 1_555 1_555
O56_2 C47_2 1_555 1_555
C23_2 C24_2 1_555 1_555
C26_2 C27_2 1_555 1_555
C29 C30 1_555 1_555
C32_2 C33_2 1_555 1_555
C35_2 C36_2 1_555 1_555
C40_2 C41_2 1_555 1_555
C42_2 C43_2 1_555 1_555
C45_2 C46 1_555 1_555
C50_2 C51_2 1_555 1_555
C52 C53 1_555 1_555
C55 C56 1_555 1_555
O72 H78 1_555 1_555
O72 H79 1_555 1_555
O73_2 H80_2 1_555 1_555
O73_2 H81_2 1_555 1_555
O67_2 H82_2 1_555 1_555
O67_2 H83_2 1_555 1_555
O68_2 H90_2 1_555 1_555
O68_2 H91_2 1_555 1_555
O69_2 H92_2 1_555 1_555
O69_2 H93_2 1_555 1_555
Dy1_3 O7_2 1_555 1_555
Dy2_3 O8_2 1_555 1_555
Dy3_3 O9_2 1_555 1_555
Dy4_3 O10_2 1_555 1_555
Dy5_3 O11_2 1_555 1_555
Dy6_3 O7_2 1_555 1_555
Dy7_2 N15_2 1_555 1_555
Dy8_3 O25_3 1_555 1_555
Dy9_2 N1_3 1_555 1_555
Dy11_2 N9_2 1_555 1_555
Ge1_2 O1_2 1_555 1_555
Ge2_2 O2_2 1_555 1_555
Ge3_2 O3_2 1_555 1_555
Ge4_2 O4_2 1_555 1_555
Ge5_2 O5_2 1_555 1_555
Ge6_2 O1_2 1_555 1_555
Ge7_3 O25_3 1_555 1_555
Ge8_3 O26_3 1_555 1_555
Ge9_3 O27_3 1_555 1_555
Ge10_3 O28_3 1_555 1_555
Ge11_3 O29_3 1_555 1_555
Ge12_3 O25_3 1_555 1_555
N1_3 C38_3 1_555 1_555
N2_3 C39_3 1_555 1_555
N3_3 Dy9_2 1_555 1_555
N5_3 C48_3 1_555 1_555
N6_3 C49_3 1_555 1_555
N9_2 C58_2 1_555 1_555
N10_3 C59_3 1_555 1_555
N11_3 Dy11_2 1_555 1_555
N12_3 C64_3 1_555 1_555
N13_2 Dy11_2 1_555 1_555
N14_2 C69_2 1_555 1_555
N15_2 C74_2 1_555 1_555
N16_2 C75_2 1_555 1_555
O1_2 Dy7_2 1_555 1_555
O2_2 Dy7_2 1_555 1_555
O3_2 Dy7_2 1_555 1_555
O4_2 Dy7_2 1_555 1_555
O5_2 Dy7_2 1_555 1_555
O6_2 Dy7_2 1_555 1_555
O7_2 Ge1_2 1_555 1_555
O8_2 Dy1_3 1_555 1_555
O9_2 Dy2_3 1_555 1_555
O10_2 Dy3_3 1_555 1_555
O11_2 Dy4_3 1_555 1_555
O12_2 Dy5_3 1_555 1_555
O13_2 Dy6_3 1_555 1_555
O15_3 Dy1_3 1_555 1_555
O16_2 C6_3 1_555 1_555
O17_2 Dy2_3 1_555 1_555
O18_2 Dy11_2 1_555 1_555
O19_2 Dy3_3 1_555 1_555
O20_2 C12_2 1_555 1_555
O21_2 Dy4_3 1_555 1_555
O22_2 Dy9_2 1_555 1_555
O26_3 Dy8_3 1_555 1_555
O27_3 Dy8_3 1_555 1_555
O28_3 Dy8_3 1_555 1_555
O29_3 Dy8_3 1_555 1_555
O30_3 Dy8_3 1_555 1_555
O31_3 Dy2_3 1_555 1_555
O32_3 Dy3_3 1_555 1_555
O33_3 Dy4_3 1_555 1_555
O34_3 Dy5_3 1_555 1_555
O35_3 Dy1_3 1_555 1_555
O36_3 Dy1_3 1_555 1_555
O37_3 Dy2_3 1_555 1_555
O38_3 Dy11_2 1_555 1_555
O39_3 Dy3_3 1_555 1_555
O40_3 C24_3 1_555 1_555
O41_3 Dy4_3 1_555 1_555
O42_3 Dy9_2 1_555 1_555
O43_3 Dy5_3 1_555 1_555
O45_3 Dy6_3 1_555 1_555
O47_3 Dy1_3 1_555 1_555
O48_3 C36_3 1_555 1_555
O49_3 Dy3_3 1_555 1_555
O50_3 Dy4_3 1_555 1_555
O51_3 Dy4_3 1_555 1_555
O52_3 Dy5_3 1_555 1_555
O55_3 Dy6_3 1_555 1_555
O56_3 Dy1_3 1_555 1_555
O57_2 Dy2_3 1_555 1_555
O58_3 C62_3 1_555 1_555
O59_3 Dy11_2 1_555 1_555
O60_2 C67_2 1_555 1_555
O61_2 Dy2_3 1_555 1_555
O62_2 Dy3_3 1_555 1_555
O63_3 Dy8_3 1_555 1_555
O79_2 C72_3 1_555 1_555
O65_2 Dy7_2 1_555 1_555
O66_2 C73_2 1_555 1_555
O67_3 Dy8_3 1_555 1_555
O68_3 Dy8_3 1_555 1_555
O69_3 Dy8_3 1_555 1_555
O70_2 Dy7_2 1_555 1_555
O71_2 Dy7_2 1_555 1_555
O73_3 Dy9_2 1_555 1_555
O74_2 Dy9_2 1_555 1_555
O75_3 Dy11_2 1_555 1_555
C1_2 Ge1_2 1_555 1_555
H1_3 C1_2 1_555 1_555
H2_2 C1_2 1_555 1_555
C2_2 C1_2 1_555 1_555
H3_2 C2_2 1_555 1_555
H4_3 C2_2 1_555 1_555
C3_2 O13_2 1_555 1_555
C4_2 Ge2_2 1_555 1_555
H5_2 C4_2 1_555 1_555
H6_2 C4_2 1_555 1_555
C5_3 C4_2 1_555 1_555
H7_3 C5_3 1_555 1_555
H8_3 C5_3 1_555 1_555
C6_3 O15_3 1_555 1_555
C7_2 Ge3_2 1_555 1_555
H9_2 C7_2 1_555 1_555
H10_2 C7_2 1_555 1_555
C8_2 C7_2 1_555 1_555
H11_2 C8_2 1_555 1_555
H12_2 C8_2 1_555 1_555
C9_2 O17_2 1_555 1_555
C10_2 Ge4_2 1_555 1_555
H13_2 C10_2 1_555 1_555
H14_2 C10_2 1_555 1_555
C11_2 C10_2 1_555 1_555
H15_2 C11_2 1_555 1_555
H16_2 C11_2 1_555 1_555
C12_2 O19_2 1_555 1_555
C13_2 Ge5_2 1_555 1_555
H17_2 C13_2 1_555 1_555
H18_2 C13_2 1_555 1_555
C14_2 C13_2 1_555 1_555
H19_2 C14_2 1_555 1_555
H20_2 C14_2 1_555 1_555
C15_2 O21_2 1_555 1_555
C19_3 Ge7_3 1_555 1_555
H25_3 C19_3 1_555 1_555
H26_3 C19_3 1_555 1_555
C20_3 C19_3 1_555 1_555
H27_3 C20_3 1_555 1_555
H28_3 C20_3 1_555 1_555
C21_3 O37_3 1_555 1_555
C22_3 Ge8_3 1_555 1_555
H29_3 C22_3 1_555 1_555
H30_3 C22_3 1_555 1_555
C23_3 C22_3 1_555 1_555
H31_3 C23_3 1_555 1_555
H32_3 C23_3 1_555 1_555
C24_3 O39_3 1_555 1_555
C25_3 Ge9_3 1_555 1_555
H33_3 C25_3 1_555 1_555
H34_3 C25_3 1_555 1_555
C26_3 C25_3 1_555 1_555
H35_3 C26_3 1_555 1_555
H36_3 C26_3 1_555 1_555
C27_3 O41_3 1_555 1_555
C28_3 Ge10_3 1_555 1_555
H37_3 C28_3 1_555 1_555
C31_3 Ge11_3 1_555 1_555
H41_3 C31_3 1_555 1_555
H42_3 C31_3 1_555 1_555
C32_3 C31_3 1_555 1_555
H43_3 C32_3 1_555 1_555
H44_3 C32_3 1_555 1_555
C33_3 O45_3 1_555 1_555
C34_3 Ge12_3 1_555 1_555
H45_3 C34_3 1_555 1_555
H46_3 C34_3 1_555 1_555
C35_3 C34_3 1_555 1_555
H47_3 C35_3 1_555 1_555
H48_3 C35_3 1_555 1_555
C36_3 O47_3 1_555 1_555
C37_3 O49_3 1_555 1_555
C38_3 C37_3 1_555 1_555
C39_3 C38_3 1_555 1_555
H49_3 C39_3 1_555 1_555
C40_3 N2_3 1_555 1_555
H50_3 C40_3 1_555 1_555
C41_3 N1_3 1_555 1_555
H51_3 C41_3 1_555 1_555
C42_3 O51_3 1_555 1_555
C43_3 N3_3 1_555 1_555
C45_3 N3_3 1_555 1_555
H53_3 C45_3 1_555 1_555
C47_3 O55_3 1_555 1_555
C48_3 C47_3 1_555 1_555
C49_3 C48_3 1_555 1_555
H55_3 C49_3 1_555 1_555
C50_3 N6_3 1_555 1_555
C57_2 O61_2 1_555 1_555
C58_2 C57_2 1_555 1_555
C59_3 C58_2 1_555 1_555
H61_3 C59_3 1_555 1_555
C60_3 N10_3 1_555 1_555
H62_3 C60_3 1_555 1_555
C61_2 N9_2 1_555 1_555
H63_2 C61_2 1_555 1_555
C62_3 O57_2 1_555 1_555
C63_3 N11_3 1_555 1_555
C64_3 C63_3 1_555 1_555
H64_3 C64_3 1_555 1_555
C65_3 N12_3 1_555 1_555
H65_3 C65_3 1_555 1_555
C66_3 N11_3 1_555 1_555
H66_3 C66_3 1_555 1_555
C67_2 O59_3 1_555 1_555
C68_2 N13_2 1_555 1_555
C69_2 C68_2 1_555 1_555
H67_2 C69_2 1_555 1_555
C70_2 N13_2 1_555 1_555
H68_2 C70_2 1_555 1_555
C71_2 N14_2 1_555 1_555
H69_2 C71_2 1_555 1_555
C72_3 O63_3 1_555 1_555
H70_3 C72_3 1_555 1_555
C73_2 O65_2 1_555 1_555
C74_2 C73_2 1_555 1_555
C75_2 C74_2 1_555 1_555
H71_2 C75_2 1_555 1_555
C76_2 N16_2 1_555 1_555
H72_2 C76_2 1_555 1_555
C77_2 N15_2 1_555 1_555
H73_2 C77_2 1_555 1_555
Dy12_2 O16_2 1_555 1_555
Dy14_2 O60_2 1_555 1_555
O77_2 Dy9_2 1_555 1_555
Dy2_3 O36_3 1_555 1_555
Dy3_3 O31_3 1_555 1_555
Dy4_3 O32_3 1_555 1_555
Dy5_3 O33_3 1_555 1_555
Dy6_3 O12_2 1_555 1_555
Dy6_3 O34_3 1_555 1_555
Dy6_3 O35_3 1_555 1_555
Dy9_2 O50_3 1_555 1_555
Dy9_2 O51_3 1_555 1_555
Dy11_2 O57_2 1_555 1_555
Dy11_2 O61_2 1_555 1_555
Ge1_2 O2_2 1_555 1_555
Ge2_2 O3_2 1_555 1_555
Ge2_2 O8_2 1_555 1_555
Ge3_2 O4_2 1_555 1_555
Ge3_2 O9_2 1_555 1_555
Ge4_2 O5_2 1_555 1_555
Ge4_2 O10_2 1_555 1_555
Ge5_2 O6_2 1_555 1_555
Ge5_2 O11_2 1_555 1_555
Ge6_2 O6_2 1_555 1_555
Ge6_2 O12_2 1_555 1_555
Ge7_3 O26_3 1_555 1_555
Ge7_3 O31_3 1_555 1_555
Ge8_3 O27_3 1_555 1_555
Ge8_3 O32_3 1_555 1_555
Ge9_3 O28_3 1_555 1_555
Ge9_3 O33_3 1_555 1_555
Ge10_3 O29_3 1_555 1_555
Ge10_3 O34_3 1_555 1_555
Ge11_3 O30_3 1_555 1_555
Ge11_3 O35_3 1_555 1_555
Ge12_3 O30_3 1_555 1_555
Ge12_3 O36_3 1_555 1_555
O18_2 C9_2 1_555 1_555
O22_2 C15_2 1_555 1_555
O38_3 C21_3 1_555 1_555
O42_3 C27_3 1_555 1_555
O50_3 C37_3 1_555 1_555
O52_3 C42_3 1_555 1_555
O56_3 C47_3 1_555 1_555
O62_2 C57_2 1_555 1_555
C2_2 C3_2 1_555 1_555
C5_3 C6_3 1_555 1_555
C8_2 C9_2 1_555 1_555
C11_2 C12_2 1_555 1_555
C14_2 C15_2 1_555 1_555
C20_3 C21_3 1_555 1_555
C23_3 C24_3 1_555 1_555
C26_3 C27_3 1_555 1_555
C32_3 C33_3 1_555 1_555
C35_3 C36_3 1_555 1_555
C40_3 C41_3 1_555 1_555
C42_3 C43_3 1_555 1_555
C60_3 C61_2 1_555 1_555
C62_3 C63_3 1_555 1_555
C65_3 C66_3 1_555 1_555
C67_2 C68_2 1_555 1_555
C70_2 C71_2 1_555 1_555
C76_2 C77_2 1_555 1_555
O70_2 H74_2 1_555 1_555
O70_2 H75_2 1_555 1_555
O71_2 H76_2 1_555 1_555
O71_2 H77_2 1_555 1_555
O73_3 H80_3 1_555 1_555
O73_3 H81_3 1_555 1_555
O67_3 H82_3 1_555 1_555
O67_3 H83_3 1_555 1_555
O74_2 H84_2 1_555 1_555
O74_2 H85_2 1_555 1_555
O75_3 H86_3 1_555 1_555
O75_3 H87_3 1_555 1_555
O68_3 H90_3 1_555 1_555
O68_3 H91_3 1_555 1_555
O69_3 H92_3 1_555 1_555
O69_3 H93_3 1_555 1_555
N4_2 C44_2 1_555 1_555
N7_2 Dy14_2 1_555 1_555
N8_2 C54_2 1_555 1_555
O14_2 Dy14_2 1_555 1_555
O24_2 C18_2 1_555 1_555
O44_2 C30_2 1_555 1_555
O46_3 Dy14_2 1_555 1_555
O76_2 Dy14_2 1_555 1_555
H21_2 C16_2 1_555 1_555
H22_2 C16_2 1_555 1_555
C17_2 C16_2 1_555 1_555
H23_2 C17_2 1_555 1_555
H24_2 C17_2 1_555 1_555
C18_2 O23_2 1_555 1_555
H39_2 C29_2 1_555 1_555
H40_2 C29_2 1_555 1_555
H52_2 C44_2 1_555 1_555
C46_2 N4_2 1_555 1_555
H54_2 C46_2 1_555 1_555
H57_3 C51_3 1_555 1_555
C52_2 O53_2 1_555 1_555
C53_2 N7_2 1_555 1_555
C54_2 C53_2 1_555 1_555
H58_2 C54_2 1_555 1_555
C55_2 N7_2 1_555 1_555
H59_2 C55_2 1_555 1_555
C56_2 N8_2 1_555 1_555
H60_2 C56_2 1_555 1_555
Dy14_2 O54_2 1_555 1_555
O54_2 C52_2 1_555 1_555
C17_2 C18_2 1_555 1_555
C29_2 C30_2 1_555 1_555
C52_2 C53_2 1_555 1_555
C55_2 C56_2 1_555 1_555
O72_2 H78_2 1_555 1_555
O72_2 H79_2 1_555 1_555
O76_2 H88_2 1_555 1_555
O76_2 H89_2 1_555 1_555
Dy1_4 O7_3 1_555 1_555
Dy2_4 O8_3 1_555 1_555
Dy3_4 O9_3 1_555 1_555
Dy4_4 O10_3 1_555 1_555
Dy5_4 O11_3 1_555 1_555
Dy6_4 O7_3 1_555 1_555
Dy7_3 N15_3 1_555 1_555
Dy8_4 O25_4 1_555 1_555
Dy12_2 N1_4 1_555 1_555
Ge1_3 O1_3 1_555 1_555
Ge2_3 O2_3 1_555 1_555
Ge3_3 O3_3 1_555 1_555
Ge4_3 O4_3 1_555 1_555
Ge5_3 O5_3 1_555 1_555
Ge6_3 O1_3 1_555 1_555
Ge7_4 O25_4 1_555 1_555
Ge8_4 O26_4 1_555 1_555
Ge9_4 O27_4 1_555 1_555
Ge10_4 O28_4 1_555 1_555
Ge11_4 O29_4 1_555 1_555
Ge12_4 O25_4 1_555 1_555
N1_4 C38_4 1_555 1_555
N2_4 C39_4 1_555 1_555
N3_4 Dy12_2 1_555 1_555
N4_3 C44_3 1_555 1_555
N8_3 C54_3 1_555 1_555
N15_3 C74_3 1_555 1_555
N16_3 C75_3 1_555 1_555
O1_3 Dy7_3 1_555 1_555
O2_3 Dy7_3 1_555 1_555
O3_3 Dy7_3 1_555 1_555
O4_3 Dy7_3 1_555 1_555
O5_3 Dy7_3 1_555 1_555
O6_3 Dy7_3 1_555 1_555
O7_3 Ge1_3 1_555 1_555
O8_3 Dy1_4 1_555 1_555
O9_3 Dy2_4 1_555 1_555
O10_3 Dy3_4 1_555 1_555
O11_3 Dy4_4 1_555 1_555
O12_3 Dy5_4 1_555 1_555
O13_3 Dy6_4 1_555 1_555
O17_3 Dy2_4 1_555 1_555
O19_3 Dy3_4 1_555 1_555
O21_3 Dy4_4 1_555 1_555
O22_3 Dy12_2 1_555 1_555
O23_3 Dy5_4 1_555 1_555
O24_3 C18_3 1_555 1_555
O26_4 Dy8_4 1_555 1_555
O27_4 Dy8_4 1_555 1_555
O28_4 Dy8_4 1_555 1_555
O29_4 Dy8_4 1_555 1_555
O30_4 Dy8_4 1_555 1_555
O31_4 Dy2_4 1_555 1_555
O32_4 Dy3_4 1_555 1_555
O33_4 Dy4_4 1_555 1_555
O34_4 Dy5_4 1_555 1_555
O35_4 Dy1_4 1_555 1_555
O36_4 Dy1_4 1_555 1_555
O37_4 Dy2_4 1_555 1_555
O39_4 Dy3_4 1_555 1_555
O41_4 Dy4_4 1_555 1_555
O42_4 Dy12_2 1_555 1_555
O43_4 Dy5_4 1_555 1_555
O44_3 C30_3 1_555 1_555
O45_4 Dy6_4 1_555 1_555
O49_4 Dy3_4 1_555 1_555
O50_4 Dy4_4 1_555 1_555
O51_4 Dy4_4 1_555 1_555
O52_4 Dy5_4 1_555 1_555
O53_3 Dy5_4 1_555 1_555
O54_3 Dy6_4 1_555 1_555
O57_3 Dy2_4 1_555 1_555
O63_4 Dy8_4 1_555 1_555
O79 C72_4 1_555 1_555
O65_3 Dy7_3 1_555 1_555
O66_3 C73_3 1_555 1_555
O67_4 Dy8_4 1_555 1_555
O68_4 Dy8_4 1_555 1_555
O69_4 Dy8_4 1_555 1_555
O70_3 Dy7_3 1_555 1_555
O71_3 Dy7_3 1_555 1_555
O72_3 Dy5_4 1_555 1_555
O73_4 Dy12_2 1_555 1_555
O74_3 Dy12_2 1_555 1_555
C1_3 Ge1_3 1_555 1_555
H2_3 C1_3 1_555 1_555
C2_3 C1_3 1_555 1_555
H3_3 C2_3 1_555 1_555
C3_3 O13_3 1_555 1_555
C4_3 Ge2_3 1_555 1_555
H5_3 C4_3 1_555 1_555
H6_3 C4_3 1_555 1_555
C7_3 Ge3_3 1_555 1_555
H10_3 C7_3 1_555 1_555
C10_3 Ge4_3 1_555 1_555
H13_3 C10_3 1_555 1_555
H14_3 C10_3 1_555 1_555
C11_3 C10_3 1_555 1_555
H15_3 C11_3 1_555 1_555
H16_3 C11_3 1_555 1_555
C12_3 O19_3 1_555 1_555
C13_3 Ge5_3 1_555 1_555
H17_3 C13_3 1_555 1_555
H18_3 C13_3 1_555 1_555
C14_3 C13_3 1_555 1_555
H19_3 C14_3 1_555 1_555
H20_3 C14_3 1_555 1_555
C15_3 O21_3 1_555 1_555
C16_3 Ge6_3 1_555 1_555
H21_3 C16_3 1_555 1_555
H22_3 C16_3 1_555 1_555
C17_3 C16_3 1_555 1_555
H23_3 C17_3 1_555 1_555
H24_3 C17_3 1_555 1_555
C18_3 O23_3 1_555 1_555
C22_4 Ge8_4 1_555 1_555
H29_4 C22_4 1_555 1_555
H30_4 C22_4 1_555 1_555
C23_4 C22_4 1_555 1_555
H31_4 C23_4 1_555 1_555
H32_4 C23_4 1_555 1_555
C24_4 O39_4 1_555 1_555
C25_4 Ge9_4 1_555 1_555
H33_4 C25_4 1_555 1_555
H34_4 C25_4 1_555 1_555
C26_4 C25_4 1_555 1_555
H35_4 C26_4 1_555 1_555
H36_4 C26_4 1_555 1_555
C27_4 O41_4 1_555 1_555
C28_4 Ge10_4 1_555 1_555
H37_4 C28_4 1_555 1_555
H38_3 C28_4 1_555 1_555
C29_3 C28_4 1_555 1_555
H39_3 C29_3 1_555 1_555
H40_3 C29_3 1_555 1_555
C30_3 O43_4 1_555 1_555
C33_4 O45_4 1_555 1_555
C34_4 Ge12_4 1_555 1_555
H45_4 C34_4 1_555 1_555
H46_4 C34_4 1_555 1_555
C37_4 O49_4 1_555 1_555
C38_4 C37_4 1_555 1_555
C39_4 C38_4 1_555 1_555
H49_4 C39_4 1_555 1_555
C40_4 N2_4 1_555 1_555
H50_4 C40_4 1_555 1_555
C41_4 N1_4 1_555 1_555
H51_4 C41_4 1_555 1_555
C42_4 O51_4 1_555 1_555
C43_4 N3_4 1_555 1_555
C44_3 C43_4 1_555 1_555
H52_3 C44_3 1_555 1_555
C45_4 N3_4 1_555 1_555
H53_4 C45_4 1_555 1_555
C46_3 N4_3 1_555 1_555
H54_3 C46_3 1_555 1_555
C52_3 O53_3 1_555 1_555
C53_3 N7_3 1_555 1_555
C54_3 C53_3 1_555 1_555
H58_3 C54_3 1_555 1_555
C55_3 N7_3 1_555 1_555
H59_3 C55_3 1_555 1_555
C56_3 N8_3 1_555 1_555
H60_3 C56_3 1_555 1_555
C72_4 O63_4 1_555 1_555
H70_4 C72_4 1_555 1_555
C73_3 O65_3 1_555 1_555
C74_3 C73_3 1_555 1_555
C75_3 C74_3 1_555 1_555
H71_3 C75_3 1_555 1_555
C76_3 N16_3 1_555 1_555
H72_3 C76_3 1_555 1_555
C77_3 N15_3 1_555 1_555
H73_3 C77_3 1_555 1_555
Dy2_4 O36_4 1_555 1_555
Dy3_4 O31_4 1_555 1_555
Dy4_4 O32_4 1_555 1_555
Dy5_4 O33_4 1_555 1_555
Dy6_4 O12_3 1_555 1_555
Dy6_4 O34_4 1_555 1_555
Dy6_4 O35_4 1_555 1_555
Dy12_2 O50_4 1_555 1_555
Dy12_2 O51_4 1_555 1_555
Ge1_3 O2_3 1_555 1_555
Ge2_3 O3_3 1_555 1_555
Ge2_3 O8_3 1_555 1_555
Ge3_3 O4_3 1_555 1_555
Ge3_3 O9_3 1_555 1_555
Ge4_3 O5_3 1_555 1_555
Ge4_3 O10_3 1_555 1_555
Ge5_3 O6_3 1_555 1_555
Ge5_3 O11_3 1_555 1_555
Ge6_3 O6_3 1_555 1_555
Ge6_3 O12_3 1_555 1_555
Ge7_4 O26_4 1_555 1_555
Ge7_4 O31_4 1_555 1_555
Ge8_4 O27_4 1_555 1_555
Ge8_4 O32_4 1_555 1_555
Ge9_4 O28_4 1_555 1_555
Ge9_4 O33_4 1_555 1_555
Ge10_4 O29_4 1_555 1_555
Ge10_4 O34_4 1_555 1_555
Ge11_4 O30_4 1_555 1_555
Ge11_4 O35_4 1_555 1_555
Ge12_4 O30_4 1_555 1_555
Ge12_4 O36_4 1_555 1_555
O22_3 C15_3 1_555 1_555
O42_4 C27_4 1_555 1_555
O50_4 C37_4 1_555 1_555
O52_4 C42_4 1_555 1_555
O54_3 C52_3 1_555 1_555
C2_3 C3_3 1_555 1_555
C11_3 C12_3 1_555 1_555
C14_3 C15_3 1_555 1_555
C17_3 C18_3 1_555 1_555
C23_4 C24_4 1_555 1_555
C26_4 C27_4 1_555 1_555
C29_3 C30_3 1_555 1_555
C40_4 C41_4 1_555 1_555
C42_4 C43_4 1_555 1_555
C45_4 C46_3 1_555 1_555
C52_3 C53_3 1_555 1_555
C55_3 C56_3 1_555 1_555
C76_3 C77_3 1_555 1_555
O70_3 H74_3 1_555 1_555
O70_3 H75_3 1_555 1_555
O71_3 H76_3 1_555 1_555
O71_3 H77_3 1_555 1_555
O72_3 H78_3 1_555 1_555
O72_3 H79_3 1_555 1_555
O73_4 H80_4 1_555 1_555
O73_4 H81_4 1_555 1_555
O67_4 H82_4 1_555 1_555
O67_4 H83_4 1_555 1_555
O74_3 H84_3 1_555 1_555
O74_3 H85_3 1_555 1_555
O68_4 H90_4 1_555 1_555
O68_4 H91_4 1_555 1_555
O69_4 H92_4 1_555 1_555
O69_4 H93_4 1_555 1_555
Dy14 N5_4 1_555 1_555
N5_4 C48_4 1_555 1_555
N6_4 C49_4 1_555 1_555
O14_3 Dy14 1_555 1_555
O77_2 C6_4 1_555 1_555
O46_4 Dy14 1_555 1_555
O48_4 C36_4 1_555 1_555
O58_4 C62_4 1_555 1_555
O76_3 Dy14 1_555 1_555
H7_4 C5_4 1_555 1_555
H8_4 C5_4 1_555 1_555
C6_4 O15_4 1_555 1_555
H41_4 C31_4 1_555 1_555
H42_4 C31_4 1_555 1_555
C32_4 C31_4 1_555 1_555
H43_4 C32_4 1_555 1_555
H47_4 C35_4 1_555 1_555
H48_4 C35_4 1_555 1_555
C36_4 O47_4 1_555 1_555
C47_4 O55_4 1_555 1_555
C48_4 C47_4 1_555 1_555
C49_4 C48_4 1_555 1_555
H55_4 C49_4 1_555 1_555
C50_4 N6_4 1_555 1_555
H56_4 C50_4 1_555 1_555
C51_4 N5_4 1_555 1_555
H57_4 C51_4 1_555 1_555
Dy14 O55_4 1_555 1_555
O56_4 C47_4 1_555 1_555
C5_4 C6_4 1_555 1_555
C35_4 C36_4 1_555 1_555
C50_4 C51_4 1_555 1_555
O76_3 H88_3 1_555 1_555
O76_3 H89_3 1_555 1_555
Dy11_3 N9_3 1_555 1_555
N9_3 C58_3 1_555 1_555
N10_4 C59_4 1_555 1_555
N13_3 Dy11_3 1_555 1_555
N14_3 C69_3 1_555 1_555
O18_3 Dy11_3 1_555 1_555
O38_4 Dy11_3 1_555 1_555
O59_4 Dy11_3 1_555 1_555
O78 C67_3 1_555 1_555
H11_3 C8_3 1_555 1_555
H25_4 C19_4 1_555 1_555
H26_4 C19_4 1_555 1_555
C20_4 C19_4 1_555 1_555
H27_4 C20_4 1_555 1_555
H28_4 C20_4 1_555 1_555
C57_3 O61_3 1_555 1_555
C58_3 C57_3 1_555 1_555
C59_4 C58_3 1_555 1_555
H61_4 C59_4 1_555 1_555
C60_4 N10_4 1_555 1_555
H62_4 C60_4 1_555 1_555
C61_3 N9_3 1_555 1_555
H63_3 C61_3 1_555 1_555
C67_3 O59_4 1_555 1_555
C68_3 N13_3 1_555 1_555
C69_3 C68_3 1_555 1_555
H67_3 C69_3 1_555 1_555
C70_3 N13_3 1_555 1_555
H68_3 C70_3 1_555 1_555
C71_3 N14_3 1_555 1_555
H69_3 C71_3 1_555 1_555
Dy11_3 O61_3 1_555 1_555
O18_3 C9_3 1_555 1_555
O38_4 C21_4 1_555 1_555
O62_3 C57_3 1_555 1_555
C8_3 C9_3 1_555 1_555
C20_4 C21_4 1_555 1_555
C60_4 C61_3 1_555 1_555
C67_3 C68_3 1_555 1_555
C70_3 C71_3 1_555 1_555
N12_4 C64_4 1_555 1_555
C63_4 N11_4 1_555 1_555
C64_4 C63_4 1_555 1_555
C65_4 N12_4 1_555 1_555
H65_4 C65_4 1_555 1_555
C66_4 N11_4 1_555 1_555
H66_4 C66_4 1_555 1_555
C65_4 C66_4 1_555 1_555
O75_4 H86_4 1_555 1_555
O75_4 H87_4 1_555 1_555
N4_4 C44_4 1_555 1_555
N8_4 C54_4 1_555 1_555
O44_4 C30_4 1_555 1_555
H39_4 C29_4 1_555 1_555
H40_4 C29_4 1_555 1_555
H52_4 C44_4 1_555 1_555
C46_4 N4_4 1_555 1_555
H54_4 C46_4 1_555 1_555
C52_4 O53_4 1_555 1_555
C53_4 N7_4 1_555 1_555
C54_4 C53_4 1_555 1_555
H58_4 C54_4 1_555 1_555
C55_4 N7_4 1_555 1_555
H59_4 C55_4 1_555 1_555
C56_4 N8_4 1_555 1_555
H60_4 C56_4 1_555 1_555
O54_4 C52_4 1_555 1_555
C29_4 C30_4 1_555 1_555
C52_4 C53_4 1_555 1_555
C55_4 C56_4 1_555 1_555
O72_4 H78_4 1_555 1_555
O72_4 H79_4 1_555 1_555
O76_4 H88_4 1_555 1_555
O76_4 H89_4 1_555 1_555
O24_4 C18_4 1_555 1_555
H21_4 C16_4 1_555 1_555
H22_4 C16_4 1_555 1_555
C17_4 C16_4 1_555 1_555
H23_4 C17_4 1_555 1_555
H24_4 C17_4 1_555 1_555
C18_4 O23_4 1_555 1_555
C17_4 C18_4 1_555 1_555
Dy7_4 N15_4 1_555 1_555
Dy11_4 N9_4 1_555 1_555
Ge1_4 O1_4 1_555 1_555
Ge2_4 O2_4 1_555 1_555
Ge3_4 O3_4 1_555 1_555
Ge4_4 O4_4 1_555 1_555
Ge5_4 O5_4 1_555 1_555
Ge6_4 O1_4 1_555 1_555
N9_4 C58_4 1_555 1_555
N13_4 Dy11_4 1_555 1_555
N14_4 C69_4 1_555 1_555
N15_4 C74_4 1_555 1_555
N16_4 C75_4 1_555 1_555
O1_4 Dy7_4 1_555 1_555
O2_4 Dy7_4 1_555 1_555
O3_4 Dy7_4 1_555 1_555
O4_4 Dy7_4 1_555 1_555
O5_4 Dy7_4 1_555 1_555
O6_4 Dy7_4 1_555 1_555
O7_4 Ge1_4 1_555 1_555
O18_4 Dy11_4 1_555 1_555
O20_4 C12_4 1_555 1_555
O78_2 C67_4 1_555 1_555
O65_4 Dy7_4 1_555 1_555
O66_4 C73_4 1_555 1_555
O70_4 Dy7_4 1_555 1_555
O71_4 Dy7_4 1_555 1_555
C1_4 Ge1_4 1_555 1_555
H2_4 C1_4 1_555 1_555
C2_4 C1_4 1_555 1_555
H3_4 C2_4 1_555 1_555
C3_4 O13_4 1_555 1_555
C4_4 Ge2_4 1_555 1_555
H5_4 C4_4 1_555 1_555
H6_4 C4_4 1_555 1_555
C7_4 Ge3_4 1_555 1_555
H9_4 C7_4 1_555 1_555
H10_4 C7_4 1_555 1_555
C8_4 C7_4 1_555 1_555
H11_4 C8_4 1_555 1_555
H12_4 C8_4 1_555 1_555
C9_4 O17_4 1_555 1_555
C10_4 Ge4_4 1_555 1_555
H13_4 C10_4 1_555 1_555
H14_4 C10_4 1_555 1_555
C11_4 C10_4 1_555 1_555
H15_4 C11_4 1_555 1_555
H16_4 C11_4 1_555 1_555
C12_4 O19_4 1_555 1_555
C13_4 Ge5_4 1_555 1_555
H17_4 C13_4 1_555 1_555
H18_4 C13_4 1_555 1_555
C14_4 C13_4 1_555 1_555
H19_4 C14_4 1_555 1_555
H20_4 C14_4 1_555 1_555
C15_4 O21_4 1_555 1_555
C57_4 O61_4 1_555 1_555
C58_4 C57_4 1_555 1_555
C61_4 N9_4 1_555 1_555
H63_4 C61_4 1_555 1_555
C68_4 N13_4 1_555 1_555
C69_4 C68_4 1_555 1_555
H67_4 C69_4 1_555 1_555
C70_4 N13_4 1_555 1_555
H68_4 C70_4 1_555 1_555
C71_4 N14_4 1_555 1_555
H69_4 C71_4 1_555 1_555
C73_4 O65_4 1_555 1_555
C74_4 C73_4 1_555 1_555
C75_4 C74_4 1_555 1_555
H71_4 C75_4 1_555 1_555
C76_4 N16_4 1_555 1_555
H72_4 C76_4 1_555 1_555
C77_4 N15_4 1_555 1_555
H73_4 C77_4 1_555 1_555
Dy11_4 O57_4 1_555 1_555
Dy11_4 O61_4 1_555 1_555
Ge1_4 O2_4 1_555 1_555
Ge2_4 O3_4 1_555 1_555
Ge2_4 O8_4 1_555 1_555
Ge3_4 O4_4 1_555 1_555
Ge3_4 O9_4 1_555 1_555
Ge4_4 O5_4 1_555 1_555
Ge4_4 O10_4 1_555 1_555
Ge5_4 O6_4 1_555 1_555
Ge5_4 O11_4 1_555 1_555
Ge6_4 O6_4 1_555 1_555
Ge6_4 O12_4 1_555 1_555
O18_4 C9_4 1_555 1_555
O22_4 C15_4 1_555 1_555
O62_4 C57_4 1_555 1_555
C2_4 C3_4 1_555 1_555
C8_4 C9_4 1_555 1_555
C11_4 C12_4 1_555 1_555
C14_4 C15_4 1_555 1_555
C67_4 C68_4 1_555 1_555
C70_4 C71_4 1_555 1_555
C76_4 C77_4 1_555 1_555
O70_4 H74_4 1_555 1_555
O70_4 H75_4 1_555 1_555
O71_4 H76_4 1_555 1_555
O71_4 H77_4 1_555 1_555
O74_4 H84_4 1_555 1_555
O74_4 H85_4 1_555 1_555

#END
