
###############################################################################
#
# This file contains modified crystal structure data generated from the
# MOF subset of the Cambridge Structural Database (CSD) v543 
# hosted by the Cambridge Crystallographic Data Centre (CCDC).
#
# This work is licensed under the Creative Commons
# Attribution-NonCommercial-ShareAlike 4.0 International License.
# To view a copy of this license, visit
# http://creativecommons.org/licenses/by-nc-sa/4.0/
# or send a letter to
# Creative Commons, PO Box 1866, Mountain View, CA 94042, USA.
#
# CIF created using the CSD Python API on 29 September 2022
# The structure has been converted into the P1 space group
# The structure has a 3D framework
# The original CSD entry INIYEM is in the monoclinic crystal system
# The framework has been calculated to contain at least 10.0% void space
# The void calculation uses a probe of radius 1.32A, grid spacing 0.4
#
###############################################################################

data_INIYEM
_chemical_formula_moiety         '(C424 H288 Cu16 N32 O128 S16)n'
_symmetry_cell_setting           triclinic
_symmetry_space_group_name_H-M   'P 1'
_symmetry_Int_Tables_number      1
_space_group_name_Hall           'P 1'
loop_
_symmetry_equiv_pos_site_id
_symmetry_equiv_pos_as_xyz
1 x,y,z
_cell_length_a                   34.629(4)
_cell_length_b                   29.150(3)
_cell_length_c                   15.7233(17)
_cell_angle_alpha                90
_cell_angle_beta                 116.313(7)
_cell_angle_gamma                90
_cell_volume                     14227.1
loop_
_atom_site_label
_atom_site_type_symbol
_atom_site_fract_x
_atom_site_fract_y
_atom_site_fract_z
S2 S 0.81719(10) 0.45454(7) 0.14054(19)
O1 O 0.8061(2) 0.64209(19) 0.1810(4)
O7 O 0.8198(3) 0.1623(2) 0.1106(6)
O8 O 0.8112(3) 0.6707(2) 0.0565(5)
O11 O 0.8626(3) 0.4488(2) 0.2067(5)
O12 O 0.7869(3) 0.4475(2) 0.1761(5)
C1 C 0.8091(3) 0.6377(3) 0.1024(7)
C3 C 0.8152(3) 0.0857(2) 0.0605(7)
C4 C 0.8120(3) 0.5514(3) 0.1236(7)
H3 H 0.816581 0.554542 0.187507
C7 C 0.8071(3) 0.3779(3) 0.0233(6)
H5 H 0.811216 0.358121 0.074607
C10 C 0.8183(3) 0.0200(3) 0.1535(7)
C15 C 0.8073(3) 0.5900(3) 0.0665(7)
C23 C 0.8194(3) 0.0672(3) 0.1450(7)
H14 H 0.822979 0.086577 0.196575
C30 C 0.8059(3) 0.4250(3) 0.0337(6)
C31 C 0.8096(3) 0.5086(3) 0.0838(7)
C37 C 0.8159(3) 0.1377(3) 0.0457(8)
Cu4 Cu 0.80684(3) 0.71053(3) 0.20007(8)
N5 N 0.8725(2) 0.2224(2) 0.0082(6)
Cu1 Cu 0.80684(3) 0.28947(3) 0.70007(8)
Cu2 Cu 0.80811(3) 0.21608(3) 0.94578(8)
O3 O 0.8123(2) 0.14925(19) 0.9666(5)
O4 O 0.8031(2) 0.28150(18) 0.9782(4)
O6 O 0.8042(3) 0.2984(2) 0.8432(5)
O13 O 0.5057(3) 0.1990(4) 0.3994(8)
O14 O 0.5019(3) 0.2544(4) 0.5959(8)
O15 O 0.5806(3) 0.2487(4) 0.4933(8)
O16 O 0.5871(3) 0.2278(4) 0.6576(8)
N1 N 0.7414(2) 0.2887(2) 0.6394(5)
N2 N 0.7444(2) 0.2090(2) 0.8621(5)
N3 N 0.3725(2) 0.2776(2) 0.5082(6)
C2 C 0.6187(2) 0.1941(3) 0.6598(7)
H1 H 0.608977 0.163219 0.668203
H2 H 0.619491 0.194437 0.597595
C11 C 0.6892(3) 0.1662(3) 0.7405(7)
H6 H 0.680492 0.138915 0.703723
C12 C 0.8020(3) 0.3597(3) 0.9364(6)
C14 C 0.7176(3) 0.2557(3) 0.5810(7)
H8 H 0.731739 0.232604 0.562606
C16 C 0.8030(3) 0.3093(3) 0.9173(7)
C18 C 0.6519(3) 0.2864(3) 0.5708(8)
C19 C 0.7151(3) 0.2405(3) 0.8525(7)
H9 H 0.724647 0.266584 0.892845
C20 C 0.7982(3) 0.4392(3) 0.8773(7)
H10 H 0.796145 0.459853 0.828795
C21 C 0.6099(3) 0.2874(3) 0.5468(9)
H11 H 0.598200 0.315535 0.508797
H12 H 0.606961 0.291374 0.606253
C22 C 0.8110(4) 0.0077(3) 0.9983(8)
C24 C 0.8005(4) 0.5836(3) 0.9731(7)
H15 H 0.797515 0.610019 0.935326
C25 C 0.8022(3) 0.4545(3) 0.9635(7)
C26 C 0.6716(3) 0.2387(3) 0.7886(7)
H16 H 0.651715 0.261793 0.785926
C27 C 0.6730(3) 0.2536(3) 0.5456(7)
H17 H 0.657375 0.229409 0.504119
C28 C 0.7191(3) 0.3218(3) 0.6623(7)
H18 H 0.734852 0.346101 0.703101
C32 C 0.7303(3) 0.1722(3) 0.8045(7)
H19 H 0.750639 0.149185 0.809613
C33 C 0.6757(3) 0.3212(3) 0.6293(8)
H20 H 0.661715 0.344882 0.646760
C34 C 0.7973(4) 0.3912(3) 0.8645(7)
H21 H 0.793317 0.379586 0.804721
C35 C 0.8119(4) 0.0557(3) 0.9885(7)
H22 H 0.810285 0.068032 0.931028
C36 C 0.6594(3) 0.2009(4) 0.7292(8)
C39 C 0.7980(4) 0.5421(3) 0.9333(8)
H24 H 0.792744 0.539070 0.868856
C40 C 0.8036(3) 0.5030(3) 0.9913(7)
C41 C 0.3947(3) 0.2469(4) 0.5710(8)
H25 H 0.379640 0.230033 0.598688
C42 C 0.3943(3) 0.3053(4) 0.4770(9)
H26 H 0.379410 0.329014 0.433353
C43 C 0.5554(3) 0.2336(5) 0.5481(8)
C44 C 0.4608(3) 0.2663(4) 0.5679(9)
C45 C 0.5312(3) 0.1908(5) 0.5005(9)
H27 H 0.551885 0.165527 0.510073
H28 H 0.512088 0.181511 0.529108
C46 C 0.4388(3) 0.2998(3) 0.5076(9)
H29 H 0.453591 0.320296 0.485116
C47 C 0.4371(4) 0.2362(5) 0.6016(10)
H30 H 0.450204 0.210810 0.642186
C48 C 0.5248(3) 0.2697(4) 0.5428(10)
H31 H 0.540446 0.298615 0.570167
H32 H 0.504205 0.275490 0.475807
C49 C 0.44163(19) 0.2300(3) 0.2808(5)
H33 H 0.458352 0.247033 0.257513
C50 C 0.3969(2) 0.2328(3) 0.2351(4)
H34 H 0.383114 0.251668 0.180609
N4 N 0.37247(14) 0.2079(2) 0.2691(4)
C51 C 0.39270(18) 0.1803(2) 0.3489(5)
H35 H 0.375976 0.163274 0.372113
C52 C 0.43739(18) 0.1775(3) 0.3945(5)
H36 H 0.451214 0.158640 0.449018
C53 C 0.46186(14) 0.2024(3) 0.3605(5)
Cu5 Cu 0.30684(3) 0.21053(3) 0.20007(8)
Cu7 Cu 0.30811(3) 0.28392(3) 0.44578(8)
O17 O 0.8061(2) 0.35791(19) 0.6810(4)
O18 O 0.8076(2) 0.22628(18) 0.6648(4)
O19 O 0.8145(2) 0.19575(19) 0.8007(5)
O20 O 0.8112(3) 0.3293(2) 0.5565(5)
N6 N 0.87247(14) 0.2921(2) 0.7691(4)
S1 S 0.82295(11) 0.98984(8) 0.25456(18)
O2 O 0.8076(2) 0.77372(18) 0.1648(4)
O5 O 0.8145(2) 0.80425(19) 0.3007(5)
O9 O 0.7869(3) 0.9989(2) 0.2736(5)
O10 O 0.8650(3) 0.9947(3) 0.3335(6)
C5 C 0.8110(3) 0.8084(2) 0.2204(7)
C6 C 0.8074(3) 0.8595(3) 0.0889(7)
H4 H 0.804760 0.833074 0.051347
C8 C 0.8111(3) 0.8546(2) 0.1785(7)
C9 C 0.8128(3) 0.9910(2) 0.0812(6)
C13 C 0.8161(3) 0.8945(3) 0.2365(7)
H7 H 0.818973 0.892327 0.299374
C17 C 0.8124(3) 0.9405(3) 0.1057(6)
C29 C 0.8165(3) 0.9347(3) 0.1960(6)
C38 C 0.8076(3) 0.9040(3) 0.0510(7)
Cu6 Cu 0.80811(3) 0.78392(3) 0.44578(8)
O1_2 O 0.3061(2) 0.14209(19) 0.1810(4)
O8_2 O 0.3112(3) 0.1707(2) 0.0565(5)
C1_2 C 0.3091(3) 0.1377(3) 0.1024(7)
C4_2 C 0.3120(3) 0.0514(3) 0.1236(7)
H3_2 H 0.316581 0.054542 0.187507
C15_2 C 0.3073(3) 0.0900(3) 0.0665(7)
C31_2 C 0.3096(3) 0.0086(3) 0.0838(7)
S1_2 S 0.32295(11) 0.48984(8) 0.25456(18)
S2_2 S 0.31719(10) 0.95454(7) 0.14054(19)
O2_2 O 0.3076(2) 0.27372(18) 0.1648(4)
O5_2 O 0.3145(2) 0.30425(19) 0.3007(5)
O7_2 O 0.3198(3) 0.6623(2) 0.1106(6)
O9_2 O 0.2869(3) 0.4989(2) 0.2736(5)
O10_2 O 0.3650(3) 0.4947(3) 0.3335(6)
O11_2 O 0.3626(3) 0.9488(2) 0.2067(5)
O12_2 O 0.2869(3) 0.9475(2) 0.1761(5)
C3_2 C 0.3152(3) 0.5857(2) 0.0605(7)
C5_2 C 0.3110(3) 0.3084(2) 0.2204(7)
C6_2 C 0.3074(3) 0.3595(3) 0.0889(7)
H4_2 H 0.304760 0.333074 0.051347
C7_2 C 0.3071(3) 0.8779(3) 0.0233(6)
H5_2 H 0.311216 0.858121 0.074607
C8_2 C 0.3111(3) 0.3546(2) 0.1785(7)
C9_2 C 0.3128(3) 0.4910(2) 0.0812(6)
C10_2 C 0.3183(3) 0.5200(3) 0.1535(7)
C13_2 C 0.3161(3) 0.3945(3) 0.2365(7)
H7_2 H 0.318973 0.392327 0.299374
C17_2 C 0.3124(3) 0.4405(3) 0.1057(6)
C23_2 C 0.3194(3) 0.5672(3) 0.1450(7)
H14_2 H 0.322979 0.586577 0.196575
C29_2 C 0.3165(3) 0.4347(3) 0.1960(6)
C30_2 C 0.3059(3) 0.9250(3) 0.0337(6)
C37_2 C 0.3159(3) 0.6377(3) 0.0457(8)
C38_2 C 0.3076(3) 0.4040(3) 0.0510(7)
N5_2 N 0.3725(2) 0.7224(2) 0.0082(6)
Cu1_2 Cu 0.30684(3) 0.78947(3) 0.70007(8)
Cu2_2 Cu 0.30811(3) 0.71608(3) 0.94578(8)
O3_2 O 0.3123(2) 0.64925(19) 0.9666(5)
O4_2 O 0.3031(2) 0.78150(18) 0.9782(4)
O6_2 O 0.3042(3) 0.7984(2) 0.8432(5)
O13_2 O 0.0057(3) 0.6990(4) 0.3994(8)
O14_2 O 0.0019(3) 0.7544(4) 0.5959(8)
O15_2 O 0.0806(3) 0.7487(4) 0.4933(8)
O16_2 O 0.0871(3) 0.7278(4) 0.6576(8)
N1_2 N 0.2414(2) 0.7887(2) 0.6394(5)
N2_2 N 0.2444(2) 0.7090(2) 0.8621(5)
C2_2 C 0.1187(2) 0.6941(3) 0.6598(7)
H1_2 H 0.108977 0.663219 0.668203
H2_2 H 0.119491 0.694437 0.597595
C11_2 C 0.1892(3) 0.6662(3) 0.7405(7)
H6_2 H 0.180492 0.638915 0.703723
C12_2 C 0.3020(3) 0.8597(3) 0.9364(6)
C14_2 C 0.2176(3) 0.7557(3) 0.5810(7)
H8_2 H 0.231739 0.732604 0.562606
C16_2 C 0.3030(3) 0.8093(3) 0.9173(7)
C18_2 C 0.1519(3) 0.7864(3) 0.5708(8)
C19_2 C 0.2151(3) 0.7405(3) 0.8525(7)
H9_2 H 0.224647 0.766584 0.892845
C20_2 C 0.2982(3) 0.9392(3) 0.8773(7)
H10_2 H 0.296145 0.959853 0.828795
C21_2 C 0.1099(3) 0.7874(3) 0.5468(9)
H11_2 H 0.098200 0.815535 0.508797
H12_2 H 0.106961 0.791374 0.606253
C22_2 C 0.3110(4) 0.5077(3) 0.9983(8)
H13 H 0.309274 0.487649 0.949008
C25_2 C 0.3022(3) 0.9545(3) 0.9635(7)
C26_2 C 0.1716(3) 0.7387(3) 0.7886(7)
H16_2 H 0.151715 0.761793 0.785926
C27_2 C 0.1730(3) 0.7536(3) 0.5456(7)
H17_2 H 0.157375 0.729409 0.504119
C28_2 C 0.2191(3) 0.8218(3) 0.6623(7)
H18_2 H 0.234852 0.846101 0.703101
C32_2 C 0.2303(3) 0.6722(3) 0.8045(7)
H19_2 H 0.250639 0.649185 0.809613
C33_2 C 0.1757(3) 0.8212(3) 0.6293(8)
H20_2 H 0.161715 0.844882 0.646760
C34_2 C 0.2973(4) 0.8912(3) 0.8645(7)
H21_2 H 0.293317 0.879586 0.804721
C35_2 C 0.3119(4) 0.5557(3) 0.9885(7)
H22_2 H 0.310285 0.568032 0.931028
C36_2 C 0.1594(3) 0.7009(4) 0.7292(8)
H23 H 0.304372 0.407453 0.988112
C43_2 C 0.0554(3) 0.7336(5) 0.5481(8)
C45_2 C 0.0312(3) 0.6908(5) 0.5005(9)
H27_2 H 0.051885 0.665527 0.510073
H28_2 H 0.012088 0.681511 0.529108
C48_2 C 0.0248(3) 0.7697(4) 0.5428(10)
H31_2 H 0.040446 0.798615 0.570167
H32_2 H 0.004205 0.775490 0.475807
O17_2 O 0.3061(2) 0.85791(19) 0.6810(4)
O18_2 O 0.3076(2) 0.72628(18) 0.6648(4)
O19_2 O 0.3145(2) 0.69575(19) 0.8007(5)
O20_2 O 0.3112(3) 0.8293(2) 0.5565(5)
N6_2 N 0.37247(14) 0.7921(2) 0.7691(4)
N3_2 N 0.8725(2) 0.7776(2) 0.5082(6)
C41_2 C 0.8947(3) 0.7469(4) 0.5710(8)
H25_2 H 0.879640 0.730033 0.598688
C42_2 C 0.8943(3) 0.8053(4) 0.4770(9)
H26_2 H 0.879410 0.829014 0.433353
C44_2 C 0.9608(3) 0.7663(4) 0.5679(9)
C46_2 C 0.9388(3) 0.7998(3) 0.5076(9)
H29_2 H 0.953591 0.820296 0.485116
C47_2 C 0.9371(4) 0.7362(5) 0.6016(10)
H30_2 H 0.950204 0.710810 0.642186
C49_2 C 0.94163(19) 0.7300(3) 0.2808(5)
H33_2 H 0.958352 0.747033 0.257513
C50_2 C 0.8969(2) 0.7328(3) 0.2351(4)
H34_2 H 0.883114 0.751668 0.180609
N4_2 N 0.87247(14) 0.7079(2) 0.2691(4)
C51_2 C 0.89270(18) 0.6803(2) 0.3489(5)
H35_2 H 0.875976 0.663274 0.372113
C52_2 C 0.93739(18) 0.6775(3) 0.3945(5)
H36_2 H 0.951214 0.658640 0.449018
C53_2 C 0.96186(14) 0.7024(3) 0.3605(5)
S1_3 S 0.82295(11) 0.01016(8) 0.75456(18)
O9_3 O 0.7869(3) 0.0011(2) 0.7736(5)
O10_3 O 0.8650(3) 0.0053(3) 0.8335(6)
C5_3 C 0.8110(3) 0.1916(2) 0.7204(7)
C6_3 C 0.8074(3) 0.1405(3) 0.5889(7)
H4_3 H 0.804760 0.166926 0.551347
C8_3 C 0.8111(3) 0.1454(2) 0.6785(7)
C9_3 C 0.8128(3) 0.0090(2) 0.5812(6)
C13_3 C 0.8161(3) 0.1055(3) 0.7365(7)
H7_3 H 0.818973 0.107673 0.799374
C17_3 C 0.8124(3) 0.0595(3) 0.6057(6)
H13_2 H 0.809274 0.012351 0.449008
C29_3 C 0.8165(3) 0.0653(3) 0.6960(6)
C38_3 C 0.8076(3) 0.0960(3) 0.5510(7)
H23_2 H 0.804372 0.092547 0.488112
S2_3 S 0.81719(10) 0.54546(7) 0.64054(19)
O3_3 O 0.8123(2) 0.85075(19) 0.4666(5)
O4_3 O 0.8031(2) 0.71850(18) 0.4782(4)
O6_3 O 0.8042(3) 0.7016(2) 0.3432(5)
O7_3 O 0.8198(3) 0.8377(2) 0.6106(6)
O11_3 O 0.8626(3) 0.5512(2) 0.7067(5)
O12_3 O 0.7869(3) 0.5525(2) 0.6761(5)
O14_3 O 0.5019(3) 0.7456(4) 0.0959(8)
O16_3 O 0.5871(3) 0.7722(4) 0.1576(8)
N1_3 N 0.7414(2) 0.7113(2) 0.1394(5)
N2_3 N 0.7444(2) 0.7910(2) 0.3621(5)
C1_3 C 0.8091(3) 0.3623(3) 0.6024(7)
C2_3 C 0.6187(2) 0.8059(3) 0.1598(7)
H1_3 H 0.608977 0.836781 0.168203
H2_3 H 0.619491 0.805563 0.097595
C3_3 C 0.8152(3) 0.9143(2) 0.5605(7)
C4_3 C 0.8120(3) 0.4486(3) 0.6236(7)
H3_3 H 0.816581 0.445458 0.687507
C7_3 C 0.8071(3) 0.6221(3) 0.5233(6)
H5_3 H 0.811216 0.641879 0.574607
C10_3 C 0.8183(3) 0.9800(3) 0.6535(7)
C11_3 C 0.6892(3) 0.8338(3) 0.2405(7)
H6_3 H 0.680492 0.861085 0.203723
C12_3 C 0.8020(3) 0.6403(3) 0.4364(6)
C14_3 C 0.7176(3) 0.7443(3) 0.0810(7)
H8_3 H 0.731739 0.767396 0.062606
C15_3 C 0.8073(3) 0.4100(3) 0.5665(7)
C16_3 C 0.8030(3) 0.6907(3) 0.4173(7)
C18_3 C 0.6519(3) 0.7136(3) 0.0708(8)
C19_3 C 0.7151(3) 0.7595(3) 0.3525(7)
H9_3 H 0.724647 0.733416 0.392845
C20_3 C 0.7982(3) 0.5608(3) 0.3773(7)
H10_3 H 0.796145 0.540147 0.328795
C21_3 C 0.6099(3) 0.7126(3) 0.0468(9)
H11_3 H 0.598200 0.684465 0.008797
H12_3 H 0.606961 0.708626 0.106253
C22_3 C 0.8110(4) 0.9923(3) 0.4983(8)
C23_3 C 0.8194(3) 0.9328(3) 0.6450(7)
H14_3 H 0.822979 0.913423 0.696575
C24_2 C 0.8005(4) 0.4164(3) 0.4731(7)
H15_2 H 0.797515 0.389981 0.435326
C25_3 C 0.8022(3) 0.5455(3) 0.4635(7)
C26_3 C 0.6716(3) 0.7613(3) 0.2886(7)
H16_3 H 0.651715 0.738207 0.285926
C27_3 C 0.6730(3) 0.7464(3) 0.0456(7)
H17_3 H 0.657375 0.770591 0.004119
C28_3 C 0.7191(3) 0.6782(3) 0.1623(7)
H18_3 H 0.734852 0.653899 0.203101
C30_3 C 0.8059(3) 0.5750(3) 0.5337(6)
C31_3 C 0.8096(3) 0.4914(3) 0.5838(7)
C32_3 C 0.7303(3) 0.8278(3) 0.3045(7)
H19_3 H 0.750639 0.850815 0.309613
C33_3 C 0.6757(3) 0.6788(3) 0.1293(8)
H20_3 H 0.661715 0.655118 0.146760
C34_3 C 0.7973(4) 0.6088(3) 0.3645(7)
H21_3 H 0.793317 0.620414 0.304721
C35_3 C 0.8119(4) 0.9443(3) 0.4885(7)
H22_3 H 0.810285 0.931968 0.431028
C36_3 C 0.6594(3) 0.7991(4) 0.2292(8)
C37_3 C 0.8159(3) 0.8623(3) 0.5457(8)
C39_2 C 0.7980(4) 0.4579(3) 0.4333(8)
H24_2 H 0.792744 0.460930 0.368856
C40_2 C 0.8036(3) 0.4970(3) 0.4913(7)
C41_3 C 0.3947(3) 0.7531(4) 0.0710(8)
H25_3 H 0.379640 0.769967 0.098688
C43_3 C 0.5554(3) 0.7664(5) 0.0481(8)
C44_3 C 0.4608(3) 0.7337(4) 0.0679(9)
C45_3 C 0.5312(3) 0.8092(5) 0.0005(9)
H27_3 H 0.551885 0.834473 0.010073
H28_3 H 0.512088 0.818489 0.029108
C46_3 C 0.4388(3) 0.7002(3) 0.0076(9)
C47_3 C 0.4371(4) 0.7638(5) 0.1016(10)
H30_3 H 0.450204 0.789190 0.142186
C48_3 C 0.5248(3) 0.7303(4) 0.0428(10)
H31_3 H 0.540446 0.701385 0.070167
O13_3 O 0.5057(3) 0.8010(4) 0.8994(8)
O15_3 O 0.5806(3) 0.7513(4) 0.9933(8)
C42_3 C 0.3943(3) 0.6947(4) 0.9770(9)
H26_3 H 0.379410 0.670986 0.933353
H29_3 H 0.453591 0.679704 0.985116
H32_3 H 0.504205 0.724510 0.975807
C49_3 C 0.44163(19) 0.7700(3) 0.7808(5)
H33_3 H 0.458352 0.752967 0.757513
C50_3 C 0.3969(2) 0.7672(3) 0.7351(4)
H34_3 H 0.383114 0.748332 0.680609
C51_3 C 0.39270(18) 0.8197(2) 0.8489(5)
H35_3 H 0.375976 0.836726 0.872113
C52_3 C 0.43739(18) 0.8225(3) 0.8945(5)
H36_3 H 0.451214 0.841360 0.949018
C53_3 C 0.46186(14) 0.7976(3) 0.8605(5)
S1_4 S 0.32295(11) 0.51016(8) 0.75456(18)
S2_4 S 0.31719(10) 0.04546(7) 0.64054(19)
O3_4 O 0.3123(2) 0.35075(19) 0.4666(5)
O4_4 O 0.3031(2) 0.21850(18) 0.4782(4)
O6_4 O 0.3042(3) 0.2016(2) 0.3432(5)
O7_4 O 0.3198(3) 0.3377(2) 0.6106(6)
O9_4 O 0.2869(3) 0.5011(2) 0.7736(5)
O10_4 O 0.3650(3) 0.5053(3) 0.8335(6)
O11_4 O 0.3626(3) 0.0512(2) 0.7067(5)
O12_4 O 0.2869(3) 0.0525(2) 0.6761(5)
O14_4 O 0.0019(3) 0.2456(4) 0.0959(8)
O16_4 O 0.0871(3) 0.2722(4) 0.1576(8)
N1_4 N 0.2414(2) 0.2113(2) 0.1394(5)
N2_4 N 0.2444(2) 0.2910(2) 0.3621(5)
C2_4 C 0.1187(2) 0.3059(3) 0.1598(7)
H1_4 H 0.108977 0.336781 0.168203
H2_4 H 0.119491 0.305563 0.097595
C3_4 C 0.3152(3) 0.4143(2) 0.5605(7)
C5_4 C 0.3110(3) 0.6916(2) 0.7204(7)
C6_4 C 0.3074(3) 0.6405(3) 0.5889(7)
H4_4 H 0.304760 0.666926 0.551347
C7_4 C 0.3071(3) 0.1221(3) 0.5233(6)
H5_4 H 0.311216 0.141879 0.574607
C8_4 C 0.3111(3) 0.6454(2) 0.6785(7)
C9_4 C 0.3128(3) 0.5090(2) 0.5812(6)
C10_4 C 0.3183(3) 0.4800(3) 0.6535(7)
C11_4 C 0.1892(3) 0.3338(3) 0.2405(7)
H6_4 H 0.180492 0.361085 0.203723
C12_4 C 0.3020(3) 0.1403(3) 0.4364(6)
C13_4 C 0.3161(3) 0.6055(3) 0.7365(7)
H7_4 H 0.318973 0.607673 0.799374
C14_4 C 0.2176(3) 0.2443(3) 0.0810(7)
H8_4 H 0.231739 0.267396 0.062606
C16_4 C 0.3030(3) 0.1907(3) 0.4173(7)
C17_4 C 0.3124(3) 0.5595(3) 0.6057(6)
C18_4 C 0.1519(3) 0.2136(3) 0.0708(8)
C19_4 C 0.2151(3) 0.2595(3) 0.3525(7)
H9_4 H 0.224647 0.233416 0.392845
C20_4 C 0.2982(3) 0.0608(3) 0.3773(7)
H10_4 H 0.296145 0.040147 0.328795
C21_4 C 0.1099(3) 0.2126(3) 0.0468(9)
H11_4 H 0.098200 0.184465 0.008797
H12_4 H 0.106961 0.208626 0.106253
C22_4 C 0.3110(4) 0.4923(3) 0.4983(8)
H13_3 H 0.309274 0.512351 0.449008
C23_4 C 0.3194(3) 0.4328(3) 0.6450(7)
H14_4 H 0.322979 0.413423 0.696575
C25_4 C 0.3022(3) 0.0455(3) 0.4635(7)
C26_4 C 0.1716(3) 0.2613(3) 0.2886(7)
H16_4 H 0.151715 0.238207 0.285926
C27_4 C 0.1730(3) 0.2464(3) 0.0456(7)
H17_4 H 0.157375 0.270591 0.004119
C28_4 C 0.2191(3) 0.1782(3) 0.1623(7)
H18_4 H 0.234852 0.153899 0.203101
C29_4 C 0.3165(3) 0.5653(3) 0.6960(6)
C30_4 C 0.3059(3) 0.0750(3) 0.5337(6)
C32_4 C 0.2303(3) 0.3278(3) 0.3045(7)
H19_4 H 0.250639 0.350815 0.309613
C33_4 C 0.1757(3) 0.1788(3) 0.1293(8)
H20_4 H 0.161715 0.155118 0.146760
C34_4 C 0.2973(4) 0.1088(3) 0.3645(7)
H21_4 H 0.293317 0.120414 0.304721
C35_4 C 0.3119(4) 0.4443(3) 0.4885(7)
H22_4 H 0.310285 0.431968 0.431028
C36_4 C 0.1594(3) 0.2991(4) 0.2292(8)
C37_4 C 0.3159(3) 0.3623(3) 0.5457(8)
C38_4 C 0.3076(3) 0.5960(3) 0.5510(7)
H23_3 H 0.304372 0.592547 0.488112
C43_4 C 0.0554(3) 0.2664(5) 0.0481(8)
C45_4 C 0.0312(3) 0.3092(5) 0.0005(9)
H27_4 H 0.051885 0.334473 0.010073
H28_4 H 0.012088 0.318489 0.029108
C48_4 C 0.0248(3) 0.2303(4) 0.0428(10)
H31_4 H 0.040446 0.201385 0.070167
C1_4 C 0.3091(3) 0.8623(3) 0.6024(7)
C4_4 C 0.3120(3) 0.9486(3) 0.6236(7)
H3_4 H 0.316581 0.945458 0.687507
C15_4 C 0.3073(3) 0.9100(3) 0.5665(7)
C24_3 C 0.3005(4) 0.9164(3) 0.4731(7)
H15_3 H 0.297515 0.889981 0.435326
C31_4 C 0.3096(3) 0.9914(3) 0.5838(7)
C39_3 C 0.2980(4) 0.9579(3) 0.4333(8)
H24_3 H 0.292744 0.960930 0.368856
C40_3 C 0.3036(3) 0.9970(3) 0.4913(7)
C41_4 C 0.8947(3) 0.2531(4) 0.0710(8)
H25_4 H 0.879640 0.269967 0.098688
C44_4 C 0.9608(3) 0.2337(4) 0.0679(9)
C46_4 C 0.9388(3) 0.2002(3) 0.0076(9)
C47_4 C 0.9371(4) 0.2638(5) 0.1016(10)
H30_4 H 0.950204 0.289190 0.142186
C42_4 C 0.8943(3) 0.1947(4) 0.9770(9)
H26_4 H 0.879410 0.170986 0.933353
H29_4 H 0.953591 0.179704 0.985116
C49_4 C 0.94163(19) 0.2700(3) 0.7808(5)
H33_4 H 0.958352 0.252967 0.757513
C50_4 C 0.8969(2) 0.2672(3) 0.7351(4)
H34_4 H 0.883114 0.248332 0.680609
C51_4 C 0.89270(18) 0.3197(2) 0.8489(5)
H35_4 H 0.875976 0.336726 0.872113
C52_4 C 0.93739(18) 0.3225(3) 0.8945(5)
H36_4 H 0.951214 0.341360 0.949018
C53_4 C 0.96186(14) 0.2976(3) 0.8605(5)
H13_4 H 0.809274 0.987649 0.949008
H23_4 H 0.804372 0.907453 0.988112
O13_4 O 0.4943(3) 0.1990(4) 0.1006(8)
O15_4 O 0.4194(3) 0.2487(4) 0.0067(8)
C42_5 C 0.6057(3) 0.3053(4) 0.0230(9)
H26_5 H 0.620590 0.329014 0.066647
H29_5 H 0.546409 0.320296 0.014884
H32_4 H 0.495795 0.275490 0.024193
C49_5 C 0.55837(19) 0.2300(3) 0.2192(5)
H33_5 H 0.541648 0.247033 0.242487
C50_5 C 0.6031(2) 0.2328(3) 0.2649(4)
H34_5 H 0.616886 0.251668 0.319391
N4_3 N 0.62753(14) 0.2079(2) 0.2309(4)
C51_5 C 0.60730(18) 0.1803(2) 0.1511(5)
H35_5 H 0.624024 0.163274 0.127887
C52_5 C 0.56261(18) 0.1775(3) 0.1055(5)
H36_5 H 0.548786 0.158640 0.050982
C53_5 C 0.53814(14) 0.2024(3) 0.1395(5)
Cu5_2 Cu 0.69316(3) 0.21053(3) 0.29993(8)
Cu7_2 Cu 0.69189(3) 0.28392(3) 0.05422(8)
Cu1_3 Cu 0.19316(3) 0.28947(3) 0.79993(8)
Cu2_3 Cu 0.19189(3) 0.21608(3) 0.55422(8)
S2_5 S 0.18281(10) 0.45454(7) 0.35946(19)
O1_3 O 0.1939(2) 0.64209(19) 0.3190(4)
O3_5 O 0.1877(2) 0.14925(19) 0.5334(5)
O4_5 O 0.1969(2) 0.28150(18) 0.5218(4)
O6_5 O 0.1958(3) 0.2984(2) 0.6568(5)
O7_5 O 0.1802(3) 0.1623(2) 0.3894(6)
O8_3 O 0.1888(3) 0.6707(2) 0.4435(5)
O11_5 O 0.1374(3) 0.4488(2) 0.2933(5)
O12_5 O 0.2131(3) 0.4475(2) 0.3239(5)
O14_5 O 0.4981(3) 0.2544(4) 0.9041(8)
O16_5 O 0.4129(3) 0.2278(4) 0.8424(8)
N1_5 N 0.2586(2) 0.2887(2) 0.8606(5)
N2_5 N 0.2556(2) 0.2090(2) 0.6379(5)
N3_3 N 0.6275(2) 0.2776(2) 0.9918(6)
C1_5 C 0.1909(3) 0.6377(3) 0.3976(7)
C2_5 C 0.3813(2) 0.1941(3) 0.8402(7)
H1_5 H 0.391023 0.163219 0.831797
H2_5 H 0.380509 0.194437 0.902405
C3_5 C 0.1848(3) 0.0857(2) 0.4395(7)
C4_5 C 0.1880(3) 0.5514(3) 0.3764(7)
H3_5 H 0.183419 0.554542 0.312493
C7_5 C 0.1929(3) 0.3779(3) 0.4767(6)
H5_5 H 0.188784 0.358121 0.425393
C10_5 C 0.1817(3) 0.0200(3) 0.3465(7)
C11_5 C 0.3108(3) 0.1662(3) 0.7595(7)
H6_5 H 0.319508 0.138915 0.796277
C12_5 C 0.1980(3) 0.3597(3) 0.5636(6)
C14_5 C 0.2824(3) 0.2557(3) 0.9190(7)
H8_5 H 0.268261 0.232604 0.937394
C15_5 C 0.1927(3) 0.5900(3) 0.4335(7)
C16_5 C 0.1970(3) 0.3093(3) 0.5827(7)
C18_5 C 0.3481(3) 0.2864(3) 0.9292(8)
C19_5 C 0.2849(3) 0.2405(3) 0.6475(7)
H9_5 H 0.275353 0.266584 0.607155
C20_5 C 0.2018(3) 0.4392(3) 0.6227(7)
H10_5 H 0.203855 0.459853 0.671205
C21_5 C 0.3901(3) 0.2874(3) 0.9532(9)
H11_5 H 0.401800 0.315535 0.991203
H12_5 H 0.393039 0.291374 0.893747
C22_5 C 0.1890(4) 0.0077(3) 0.5017(8)
C23_5 C 0.1806(3) 0.0672(3) 0.3550(7)
H14_5 H 0.177021 0.086577 0.303425
C24_4 C 0.1995(4) 0.5836(3) 0.5269(7)
H15_4 H 0.202485 0.610019 0.564674
C25_5 C 0.1978(3) 0.4545(3) 0.5365(7)
C26_5 C 0.3284(3) 0.2387(3) 0.7114(7)
H16_5 H 0.348285 0.261793 0.714074
C27_5 C 0.3270(3) 0.2536(3) 0.9544(7)
H17_5 H 0.342625 0.229409 0.995881
C28_5 C 0.2809(3) 0.3218(3) 0.8377(7)
H18_5 H 0.265148 0.346101 0.796899
C30_5 C 0.1941(3) 0.4250(3) 0.4663(6)
C31_5 C 0.1904(3) 0.5086(3) 0.4162(7)
C32_5 C 0.2697(3) 0.1722(3) 0.6955(7)
H19_5 H 0.249361 0.149185 0.690387
C33_5 C 0.3243(3) 0.3212(3) 0.8707(8)
H20_5 H 0.338285 0.344882 0.853240
C34_5 C 0.2027(4) 0.3912(3) 0.6355(7)
H21_5 H 0.206683 0.379586 0.695279
C35_5 C 0.1881(4) 0.0557(3) 0.5115(7)
H22_5 H 0.189715 0.068032 0.568972
C36_5 C 0.3406(3) 0.2009(4) 0.7708(8)
C37_5 C 0.1841(3) 0.1377(3) 0.4543(8)
C39_4 C 0.2020(4) 0.5421(3) 0.5667(8)
H24_4 H 0.207256 0.539070 0.631144
C40_4 C 0.1964(3) 0.5030(3) 0.5087(7)
C41_5 C 0.6053(3) 0.2469(4) 0.9290(8)
H25_5 H 0.620360 0.230033 0.901312
C43_5 C 0.4446(3) 0.2336(5) 0.9519(8)
C44_5 C 0.5392(3) 0.2663(4) 0.9321(9)
C45_5 C 0.4688(3) 0.1908(5) 0.9995(9)
H27_5 H 0.448115 0.165527 0.989927
H28_5 H 0.487912 0.181511 0.970892
C46_5 C 0.5612(3) 0.2998(3) 0.9924(9)
C47_5 C 0.5629(4) 0.2362(5) 0.8984(10)
H30_5 H 0.549796 0.210810 0.857814
C48_5 C 0.4752(3) 0.2697(4) 0.9572(10)
H31_5 H 0.459554 0.298615 0.929833
Cu4_2 Cu 0.19316(3) 0.71053(3) 0.29993(8)
O17_3 O 0.1939(2) 0.35791(19) 0.8190(4)
O18_3 O 0.1924(2) 0.22628(18) 0.8352(4)
O19_3 O 0.1855(2) 0.19575(19) 0.6993(5)
O20_3 O 0.1888(3) 0.3293(2) 0.9435(5)
N5_3 N 0.1275(2) 0.2224(2) 0.4918(6)
N6_3 N 0.12753(14) 0.2921(2) 0.7309(4)
S1_5 S 0.17705(11) 0.98984(8) 0.24544(18)
O2_3 O 0.1924(2) 0.77372(18) 0.3352(4)
O5_3 O 0.1855(2) 0.80425(19) 0.1993(5)
O9_5 O 0.2131(3) 0.9989(2) 0.2264(5)
O10_5 O 0.1350(3) 0.9947(3) 0.1665(6)
C5_5 C 0.1890(3) 0.8084(2) 0.2796(7)
C6_5 C 0.1926(3) 0.8595(3) 0.4111(7)
H4_5 H 0.195240 0.833074 0.448653
C8_5 C 0.1889(3) 0.8546(2) 0.3215(7)
C9_5 C 0.1872(3) 0.9910(2) 0.4188(6)
C13_5 C 0.1839(3) 0.8945(3) 0.2635(7)
H7_5 H 0.181027 0.892327 0.200626
C17_5 C 0.1876(3) 0.9405(3) 0.3943(6)
H13_5 H 0.190726 0.987649 0.550992
C29_5 C 0.1835(3) 0.9347(3) 0.3040(6)
C38_5 C 0.1924(3) 0.9040(3) 0.4490(7)
H23_5 H 0.195628 0.907453 0.511888
Cu6_2 Cu 0.19189(3) 0.78392(3) 0.05422(8)
C42_6 C 0.1057(3) 0.8053(4) 0.0230(9)
H26_6 H 0.120590 0.829014 0.066647
H29_6 H 0.046409 0.820296 0.014884
C49_6 C 0.05837(19) 0.7300(3) 0.2192(5)
H33_6 H 0.041648 0.747033 0.242487
C50_6 C 0.1031(2) 0.7328(3) 0.2649(4)
H34_6 H 0.116886 0.751668 0.319391
N4_4 N 0.12753(14) 0.7079(2) 0.2309(4)
C51_6 C 0.10730(18) 0.6803(2) 0.1511(5)
H35_6 H 0.124024 0.663274 0.127887
C52_6 C 0.06261(18) 0.6775(3) 0.1055(5)
H36_6 H 0.048786 0.658640 0.050982
C53_6 C 0.03814(14) 0.7024(3) 0.1395(5)
N3_4 N 0.1275(2) 0.7776(2) 0.9918(6)
C41_6 C 0.1053(3) 0.7469(4) 0.9290(8)
H25_6 H 0.120360 0.730033 0.901312
C44_6 C 0.0392(3) 0.7663(4) 0.9321(9)
C46_6 C 0.0612(3) 0.7998(3) 0.9924(9)
C47_6 C 0.0629(4) 0.7362(5) 0.8984(10)
H30_6 H 0.049796 0.710810 0.857814
O1_4 O 0.6939(2) 0.14209(19) 0.3190(4)
O8_4 O 0.6888(3) 0.1707(2) 0.4435(5)
C1_6 C 0.6909(3) 0.1377(3) 0.3976(7)
C4_6 C 0.6880(3) 0.0514(3) 0.3764(7)
H3_6 H 0.683419 0.054542 0.312493
C15_6 C 0.6927(3) 0.0900(3) 0.4335(7)
C24_5 C 0.6995(4) 0.0836(3) 0.5269(7)
H15_5 H 0.702485 0.110019 0.564674
C31_6 C 0.6904(3) 0.0086(3) 0.4162(7)
C39_5 C 0.7020(4) 0.0421(3) 0.5667(8)
H24_5 H 0.707256 0.039070 0.631144
C40_5 C 0.6964(3) 0.0030(3) 0.5087(7)
Cu1_4 Cu 0.69316(3) 0.78947(3) 0.79993(8)
Cu2_4 Cu 0.69189(3) 0.71608(3) 0.55422(8)
S1_6 S 0.67705(11) 0.48984(8) 0.24544(18)
S2_6 S 0.68281(10) 0.95454(7) 0.35946(19)
O2_4 O 0.6924(2) 0.27372(18) 0.3352(4)
O3_6 O 0.6877(2) 0.64925(19) 0.5334(5)
O4_6 O 0.6969(2) 0.78150(18) 0.5218(4)
O5_4 O 0.6855(2) 0.30425(19) 0.1993(5)
O6_6 O 0.6958(3) 0.7984(2) 0.6568(5)
O7_6 O 0.6802(3) 0.6623(2) 0.3894(6)
O9_6 O 0.7131(3) 0.4989(2) 0.2264(5)
O10_6 O 0.6350(3) 0.4947(3) 0.1665(6)
O11_6 O 0.6374(3) 0.9488(2) 0.2933(5)
O12_6 O 0.7131(3) 0.9475(2) 0.3239(5)
O14_6 O 0.9981(3) 0.7544(4) 0.9041(8)
O16_6 O 0.9129(3) 0.7278(4) 0.8424(8)
N1_6 N 0.7586(2) 0.7887(2) 0.8606(5)
N2_6 N 0.7556(2) 0.7090(2) 0.6379(5)
C2_6 C 0.8813(2) 0.6941(3) 0.8402(7)
H1_6 H 0.891023 0.663219 0.831797
H2_6 H 0.880509 0.694437 0.902405
C3_6 C 0.6848(3) 0.5857(2) 0.4395(7)
C5_6 C 0.6890(3) 0.3084(2) 0.2796(7)
C6_6 C 0.6926(3) 0.3595(3) 0.4111(7)
H4_6 H 0.695240 0.333074 0.448653
C7_6 C 0.6929(3) 0.8779(3) 0.4767(6)
H5_6 H 0.688784 0.858121 0.425393
C8_6 C 0.6889(3) 0.3546(2) 0.3215(7)
C9_6 C 0.6872(3) 0.4910(2) 0.4188(6)
C10_6 C 0.6817(3) 0.5200(3) 0.3465(7)
C11_6 C 0.8108(3) 0.6662(3) 0.7595(7)
H6_6 H 0.819508 0.638915 0.796277
C12_6 C 0.6980(3) 0.8597(3) 0.5636(6)
C13_6 C 0.6839(3) 0.3945(3) 0.2635(7)
H7_6 H 0.681027 0.392327 0.200626
C14_6 C 0.7824(3) 0.7557(3) 0.9190(7)
H8_6 H 0.768261 0.732604 0.937394
C16_6 C 0.6970(3) 0.8093(3) 0.5827(7)
C17_6 C 0.6876(3) 0.4405(3) 0.3943(6)
C18_6 C 0.8481(3) 0.7864(3) 0.9292(8)
C19_6 C 0.7849(3) 0.7405(3) 0.6475(7)
H9_6 H 0.775353 0.766584 0.607155
C20_6 C 0.7018(3) 0.9392(3) 0.6227(7)
H10_6 H 0.703855 0.959853 0.671205
C21_6 C 0.8901(3) 0.7874(3) 0.9532(9)
H11_6 H 0.901800 0.815535 0.991203
H12_6 H 0.893039 0.791374 0.893747
C22_6 C 0.6890(4) 0.5077(3) 0.5017(8)
H13_6 H 0.690726 0.487649 0.550992
C23_6 C 0.6806(3) 0.5672(3) 0.3550(7)
H14_6 H 0.677021 0.586577 0.303425
C25_6 C 0.6978(3) 0.9545(3) 0.5365(7)
C26_6 C 0.8284(3) 0.7387(3) 0.7114(7)
H16_6 H 0.848285 0.761793 0.714074
C27_6 C 0.8270(3) 0.7536(3) 0.9544(7)
H17_6 H 0.842625 0.729409 0.995881
C28_6 C 0.7809(3) 0.8218(3) 0.8377(7)
H18_6 H 0.765148 0.846101 0.796899
C29_6 C 0.6835(3) 0.4347(3) 0.3040(6)
C30_6 C 0.6941(3) 0.9250(3) 0.4663(6)
C32_6 C 0.7697(3) 0.6722(3) 0.6955(7)
H19_6 H 0.749361 0.649185 0.690387
C33_6 C 0.8243(3) 0.8212(3) 0.8707(8)
H20_6 H 0.838285 0.844882 0.853240
C34_6 C 0.7027(4) 0.8912(3) 0.6355(7)
H21_6 H 0.706683 0.879586 0.695279
C35_6 C 0.6881(4) 0.5557(3) 0.5115(7)
H22_6 H 0.689715 0.568032 0.568972
C36_6 C 0.8406(3) 0.7009(4) 0.7708(8)
C37_6 C 0.6841(3) 0.6377(3) 0.4543(8)
C38_6 C 0.6924(3) 0.4040(3) 0.4490(7)
H23_6 H 0.695628 0.407453 0.511888
C43_6 C 0.9446(3) 0.7336(5) 0.9519(8)
C45_6 C 0.9688(3) 0.6908(5) 0.9995(9)
H27_6 H 0.948115 0.665527 0.989927
H28_6 H 0.987912 0.681511 0.970892
C48_6 C 0.9752(3) 0.7697(4) 0.9572(10)
H31_6 H 0.959554 0.798615 0.929833
O17_4 O 0.6939(2) 0.85791(19) 0.8190(4)
O18_4 O 0.6924(2) 0.72628(18) 0.8352(4)
O19_4 O 0.6855(2) 0.69575(19) 0.6993(5)
O20_4 O 0.6888(3) 0.8293(2) 0.9435(5)
N5_4 N 0.6275(2) 0.7224(2) 0.4918(6)
N6_4 N 0.62753(14) 0.7921(2) 0.7309(4)
S1_7 S 0.17705(11) 0.01016(8) 0.74544(18)
O9_7 O 0.2131(3) 0.0011(2) 0.7264(5)
O10_7 O 0.1350(3) 0.0053(3) 0.6665(6)
C5_7 C 0.1890(3) 0.1916(2) 0.7796(7)
C6_7 C 0.1926(3) 0.1405(3) 0.9111(7)
H4_7 H 0.195240 0.166926 0.948653
C8_7 C 0.1889(3) 0.1454(2) 0.8215(7)
C9_7 C 0.1872(3) 0.0090(2) 0.9188(6)
C13_7 C 0.1839(3) 0.1055(3) 0.7635(7)
H7_7 H 0.181027 0.107673 0.700626
C17_7 C 0.1876(3) 0.0595(3) 0.8943(6)
C29_7 C 0.1835(3) 0.0653(3) 0.8040(6)
C38_7 C 0.1924(3) 0.0960(3) 0.9490(7)
O3_7 O 0.1877(2) 0.85075(19) 0.0334(5)
O4_7 O 0.1969(2) 0.71850(18) 0.0218(4)
O6_7 O 0.1958(3) 0.7016(2) 0.1568(5)
O13_5 O 0.4943(3) 0.8010(4) 0.6006(8)
O14_7 O 0.4981(3) 0.7456(4) 0.4041(8)
O15_5 O 0.4194(3) 0.7513(4) 0.5067(8)
O16_7 O 0.4129(3) 0.7722(4) 0.3424(8)
N1_7 N 0.2586(2) 0.7113(2) 0.3606(5)
N2_7 N 0.2556(2) 0.7910(2) 0.1379(5)
C2_7 C 0.3813(2) 0.8059(3) 0.3402(7)
H1_7 H 0.391023 0.836781 0.331797
H2_7 H 0.380509 0.805563 0.402405
C11_7 C 0.3108(3) 0.8338(3) 0.2595(7)
H6_7 H 0.319508 0.861085 0.296277
C12_7 C 0.1980(3) 0.6403(3) 0.0636(6)
C14_7 C 0.2824(3) 0.7443(3) 0.4190(7)
H8_7 H 0.268261 0.767396 0.437394
C16_7 C 0.1970(3) 0.6907(3) 0.0827(7)
C18_7 C 0.3481(3) 0.7136(3) 0.4292(8)
C19_7 C 0.2849(3) 0.7595(3) 0.1475(7)
H9_7 H 0.275353 0.733416 0.107155
C20_7 C 0.2018(3) 0.5608(3) 0.1227(7)
H10_7 H 0.203855 0.540147 0.171205
C21_7 C 0.3901(3) 0.7126(3) 0.4532(9)
H11_7 H 0.401800 0.684465 0.491203
H12_7 H 0.393039 0.708626 0.393747
C22_7 C 0.1890(4) 0.9923(3) 0.0017(8)
C24_6 C 0.1995(4) 0.4164(3) 0.0269(7)
H15_6 H 0.202485 0.389981 0.064674
C25_7 C 0.1978(3) 0.5455(3) 0.0365(7)
C26_7 C 0.3284(3) 0.7613(3) 0.2114(7)
H16_7 H 0.348285 0.738207 0.214074
C27_7 C 0.3270(3) 0.7464(3) 0.4544(7)
H17_7 H 0.342625 0.770591 0.495881
C28_7 C 0.2809(3) 0.6782(3) 0.3377(7)
H18_7 H 0.265148 0.653899 0.296899
C32_7 C 0.2697(3) 0.8278(3) 0.1955(7)
H19_7 H 0.249361 0.850815 0.190387
C33_7 C 0.3243(3) 0.6788(3) 0.3707(8)
H20_7 H 0.338285 0.655118 0.353240
C34_7 C 0.2027(4) 0.6088(3) 0.1355(7)
H21_7 H 0.206683 0.620414 0.195279
C35_7 C 0.1881(4) 0.9443(3) 0.0115(7)
H22_7 H 0.189715 0.931968 0.068972
C36_7 C 0.3406(3) 0.7991(4) 0.2708(8)
C39_6 C 0.2020(4) 0.4579(3) 0.0667(8)
H24_6 H 0.207256 0.460930 0.131144
C40_6 C 0.1964(3) 0.4970(3) 0.0087(7)
C41_7 C 0.6053(3) 0.7531(4) 0.4290(8)
H25_7 H 0.620360 0.769967 0.401312
C42_7 C 0.6057(3) 0.6947(4) 0.5230(9)
H26_7 H 0.620590 0.670986 0.566647
C43_7 C 0.4446(3) 0.7664(5) 0.4519(8)
C44_7 C 0.5392(3) 0.7337(4) 0.4321(9)
C45_7 C 0.4688(3) 0.8092(5) 0.4995(9)
H27_7 H 0.448115 0.834473 0.489927
H28_7 H 0.487912 0.818489 0.470892
C46_7 C 0.5612(3) 0.7002(3) 0.4924(9)
H29_7 H 0.546409 0.679704 0.514884
C47_7 C 0.5629(4) 0.7638(5) 0.3984(10)
H30_7 H 0.549796 0.789190 0.357814
C48_7 C 0.4752(3) 0.7303(4) 0.4572(10)
H31_7 H 0.459554 0.701385 0.429833
H32_5 H 0.495795 0.724510 0.524193
C49_7 C 0.55837(19) 0.7700(3) 0.7192(5)
H33_7 H 0.541648 0.752967 0.742487
C50_7 C 0.6031(2) 0.7672(3) 0.7649(4)
H34_7 H 0.616886 0.748332 0.819391
C51_7 C 0.60730(18) 0.8197(2) 0.6511(5)
H35_7 H 0.624024 0.836726 0.627887
C52_7 C 0.56261(18) 0.8225(3) 0.6055(5)
H36_7 H 0.548786 0.841360 0.550982
C53_7 C 0.53814(14) 0.7976(3) 0.6395(5)
S2_7 S 0.18281(10) 0.54546(7) 0.85946(19)
O7_7 O 0.1802(3) 0.8377(2) 0.8894(6)
O11_7 O 0.1374(3) 0.5512(2) 0.7933(5)
O12_7 O 0.2131(3) 0.5525(2) 0.8239(5)
C1_7 C 0.1909(3) 0.3623(3) 0.8976(7)
C3_7 C 0.1848(3) 0.9143(2) 0.9395(7)
C4_7 C 0.1880(3) 0.4486(3) 0.8764(7)
H3_7 H 0.183419 0.445458 0.812493
C7_7 C 0.1929(3) 0.6221(3) 0.9767(6)
H5_7 H 0.188784 0.641879 0.925393
C10_7 C 0.1817(3) 0.9800(3) 0.8465(7)
C15_7 C 0.1927(3) 0.4100(3) 0.9335(7)
C23_7 C 0.1806(3) 0.9328(3) 0.8550(7)
H14_7 H 0.177021 0.913423 0.803425
C30_7 C 0.1941(3) 0.5750(3) 0.9663(6)
C31_7 C 0.1904(3) 0.4914(3) 0.9162(7)
C37_7 C 0.1841(3) 0.8623(3) 0.9543(8)
C41_8 C 0.1053(3) 0.2531(4) 0.4290(8)
H25_8 H 0.120360 0.269967 0.401312
C42_8 C 0.1057(3) 0.1947(4) 0.5230(9)
H26_8 H 0.120590 0.170986 0.566647
C44_8 C 0.0392(3) 0.2337(4) 0.4321(9)
C46_8 C 0.0612(3) 0.2002(3) 0.4924(9)
H29_8 H 0.046409 0.179704 0.514884
C47_8 C 0.0629(4) 0.2638(5) 0.3984(10)
H30_8 H 0.049796 0.289190 0.357814
C49_8 C 0.05837(19) 0.2700(3) 0.7192(5)
H33_8 H 0.041648 0.252967 0.742487
C50_8 C 0.1031(2) 0.2672(3) 0.7649(4)
H34_8 H 0.116886 0.248332 0.819391
C51_8 C 0.10730(18) 0.3197(2) 0.6511(5)
H35_8 H 0.124024 0.336726 0.627887
C52_8 C 0.06261(18) 0.3225(3) 0.6055(5)
H36_8 H 0.048786 0.341360 0.550982
C53_8 C 0.03814(14) 0.2976(3) 0.6395(5)
O3_8 O 0.6877(2) 0.35075(19) 0.0334(5)
O4_8 O 0.6969(2) 0.21850(18) 0.0218(4)
O6_8 O 0.6958(3) 0.2016(2) 0.1568(5)
O13_6 O 0.9943(3) 0.3010(4) 0.6006(8)
O14_8 O 0.9981(3) 0.2456(4) 0.4041(8)
O15_6 O 0.9194(3) 0.2513(4) 0.5067(8)
O16_8 O 0.9129(3) 0.2722(4) 0.3424(8)
N1_8 N 0.7586(2) 0.2113(2) 0.3606(5)
N2_8 N 0.7556(2) 0.2910(2) 0.1379(5)
C2_8 C 0.8813(2) 0.3059(3) 0.3402(7)
H1_8 H 0.891023 0.336781 0.331797
H2_8 H 0.880509 0.305563 0.402405
C11_8 C 0.8108(3) 0.3338(3) 0.2595(7)
H6_8 H 0.819508 0.361085 0.296277
C12_8 C 0.6980(3) 0.1403(3) 0.0636(6)
C14_8 C 0.7824(3) 0.2443(3) 0.4190(7)
H8_8 H 0.768261 0.267396 0.437394
C16_8 C 0.6970(3) 0.1907(3) 0.0827(7)
C18_8 C 0.8481(3) 0.2136(3) 0.4292(8)
C19_8 C 0.7849(3) 0.2595(3) 0.1475(7)
H9_8 H 0.775353 0.233416 0.107155
C20_8 C 0.7018(3) 0.0608(3) 0.1227(7)
H10_8 H 0.703855 0.040147 0.171205
C21_8 C 0.8901(3) 0.2126(3) 0.4532(9)
H11_8 H 0.901800 0.184465 0.491203
H12_8 H 0.893039 0.208626 0.393747
C22_8 C 0.6890(4) 0.4923(3) 0.0017(8)
H13_7 H 0.690726 0.512351 0.050992
C25_8 C 0.6978(3) 0.0455(3) 0.0365(7)
C26_8 C 0.8284(3) 0.2613(3) 0.2114(7)
H16_8 H 0.848285 0.238207 0.214074
C27_8 C 0.8270(3) 0.2464(3) 0.4544(7)
H17_8 H 0.842625 0.270591 0.495881
C28_8 C 0.7809(3) 0.1782(3) 0.3377(7)
H18_8 H 0.765148 0.153899 0.296899
C32_8 C 0.7697(3) 0.3278(3) 0.1955(7)
H19_8 H 0.749361 0.350815 0.190387
C33_8 C 0.8243(3) 0.1788(3) 0.3707(8)
H20_8 H 0.838285 0.155118 0.353240
C34_8 C 0.7027(4) 0.1088(3) 0.1355(7)
H21_8 H 0.706683 0.120414 0.195279
C35_8 C 0.6881(4) 0.4443(3) 0.0115(7)
H22_8 H 0.689715 0.431968 0.068972
C36_8 C 0.8406(3) 0.2991(4) 0.2708(8)
H23_7 H 0.695628 0.592547 0.011888
C43_8 C 0.9446(3) 0.2664(5) 0.4519(8)
C45_8 C 0.9688(3) 0.3092(5) 0.4995(9)
H27_8 H 0.948115 0.334473 0.489927
H28_8 H 0.987912 0.318489 0.470892
C48_8 C 0.9752(3) 0.2303(4) 0.4572(10)
H31_8 H 0.959554 0.201385 0.429833
H32_6 H 0.995795 0.224510 0.524193
S1_8 S 0.67705(11) 0.51016(8) 0.74544(18)
S2_8 S 0.68281(10) 0.04546(7) 0.85946(19)
O7_8 O 0.6802(3) 0.3377(2) 0.8894(6)
O9_8 O 0.7131(3) 0.5011(2) 0.7264(5)
O10_8 O 0.6350(3) 0.5053(3) 0.6665(6)
O11_8 O 0.6374(3) 0.0512(2) 0.7933(5)
O12_8 O 0.7131(3) 0.0525(2) 0.8239(5)
C3_8 C 0.6848(3) 0.4143(2) 0.9395(7)
C5_8 C 0.6890(3) 0.6916(2) 0.7796(7)
C6_8 C 0.6926(3) 0.6405(3) 0.9111(7)
H4_8 H 0.695240 0.666926 0.948653
C7_8 C 0.6929(3) 0.1221(3) 0.9767(6)
H5_8 H 0.688784 0.141879 0.925393
C8_8 C 0.6889(3) 0.6454(2) 0.8215(7)
C9_8 C 0.6872(3) 0.5090(2) 0.9188(6)
C10_8 C 0.6817(3) 0.4800(3) 0.8465(7)
C13_8 C 0.6839(3) 0.6055(3) 0.7635(7)
H7_8 H 0.681027 0.607673 0.700626
C17_8 C 0.6876(3) 0.5595(3) 0.8943(6)
C23_8 C 0.6806(3) 0.4328(3) 0.8550(7)
H14_8 H 0.677021 0.413423 0.803425
C29_8 C 0.6835(3) 0.5653(3) 0.8040(6)
C30_8 C 0.6941(3) 0.0750(3) 0.9663(6)
C37_8 C 0.6841(3) 0.3623(3) 0.9543(8)
C38_8 C 0.6924(3) 0.5960(3) 0.9490(7)
C1_8 C 0.6909(3) 0.8623(3) 0.8976(7)
C4_8 C 0.6880(3) 0.9486(3) 0.8764(7)
H3_8 H 0.683419 0.945458 0.812493
C15_8 C 0.6927(3) 0.9100(3) 0.9335(7)
C31_8 C 0.6904(3) 0.9914(3) 0.9162(7)
C24_7 C 0.3005(4) 0.0836(3) 0.9731(7)
H15_7 H 0.297515 0.110019 0.935326
C39_7 C 0.2980(4) 0.0421(3) 0.9333(8)
H24_7 H 0.292744 0.039070 0.868856
C40_7 C 0.3036(3) 0.0030(3) 0.9913(7)
O13_7 O 0.9943(3) 0.6990(4) 0.1006(8)
O15_7 O 0.9194(3) 0.7487(4) 0.0067(8)
H32_7 H 0.995795 0.775490 0.024193
H13_8 H 0.190726 0.012351 0.050992
H23_8 H 0.195628 0.092547 0.011888
C24_8 C 0.6995(4) 0.9164(3) 0.0269(7)
H15_8 H 0.702485 0.889981 0.064674
C39_8 C 0.7020(4) 0.9579(3) 0.0667(8)
H24_8 H 0.707256 0.960930 0.131144
C40_8 C 0.6964(3) 0.9970(3) 0.0087(7)
O13_8 O 0.0057(3) 0.3010(4) 0.8994(8)
O15_8 O 0.0806(3) 0.2513(4) 0.9933(8)
H32_8 H 0.004205 0.224510 0.975807
loop_
_geom_bond_atom_site_label_1
_geom_bond_atom_site_label_2
_geom_bond_site_symmetry_1
_geom_bond_site_symmetry_2
S2 O11 1_555 1_555
O1 C1 1_555 1_555
O7 C37 1_555 1_555
O8 C1 1_555 1_555
O12 S2 1_555 1_555
C1 C15 1_555 1_555
C3 C23 1_555 1_555
C4 H3 1_555 1_555
C7 H5 1_555 1_555
C15 C4 1_555 1_555
C23 C10 1_555 1_555
H14 C23 1_555 1_555
C30 S2 1_555 1_555
C31 S2 1_555 1_555
C37 C3 1_555 1_555
Cu4 O1 1_555 1_555
O8 Cu4 1_555 1_555
C4 C31 1_555 1_555
C7 C30 1_555 1_555
Cu1 O6 1_555 1_555
Cu2 O3 1_555 1_555
O4 Cu2 1_555 1_555
O6 C16 1_555 1_555
O13 C45 1_555 1_555
O14 C44 1_555 1_555
O15 C21 1_555 1_555
O16 C2 1_555 1_555
N1 Cu1 1_555 1_555
N2 Cu2 1_555 1_555
N3 C41 1_555 1_555
C2 H1 1_555 1_555
H2 C2 1_555 1_555
C11 H6 1_555 1_555
C14 N1 1_555 1_555
H8 C14 1_555 1_555
C16 O4 1_555 1_555
C18 C21 1_555 1_555
C19 N2 1_555 1_555
H9 C19 1_555 1_555
C20 H10 1_555 1_555
C21 H11 1_555 1_555
H12 C21 1_555 1_555
H15 C24 1_555 1_555
C25 C20 1_555 1_555
C26 C19 1_555 1_555
H16 C26 1_555 1_555
C27 C14 1_555 1_555
H17 C27 1_555 1_555
C28 N1 1_555 1_555
H18 C28 1_555 1_555
C32 N2 1_555 1_555
H19 C32 1_555 1_555
C33 C18 1_555 1_555
H20 C33 1_555 1_555
C34 C12 1_555 1_555
H21 C34 1_555 1_555
H22 C35 1_555 1_555
C36 C2 1_555 1_555
C39 C24 1_555 1_555
H24 C39 1_555 1_555
C40 C25 1_555 1_555
C41 H25 1_555 1_555
C42 N3 1_555 1_555
H26 C42 1_555 1_555
C43 O15 1_555 1_555
C44 C46 1_555 1_555
C45 C43 1_555 1_555
H27 C45 1_555 1_555
H28 C45 1_555 1_555
C46 C42 1_555 1_555
H29 C46 1_555 1_555
C47 C41 1_555 1_555
H30 C47 1_555 1_555
C48 O14 1_555 1_555
H31 C48 1_555 1_555
H32 C48 1_555 1_555
C49 H33 1_555 1_555
C50 C49 1_555 1_555
H34 C50 1_555 1_555
N4 C50 1_555 1_555
C51 N4 1_555 1_555
H35 C51 1_555 1_555
C52 C51 1_555 1_555
H36 C52 1_555 1_555
C53 O13 1_555 1_555
Cu5 N4 1_555 1_555
Cu7 N3 1_555 1_555
O17 Cu1 1_555 1_555
O18 Cu1 1_555 1_555
O19 Cu2 1_555 1_555
O20 Cu1 1_555 1_555
N6 Cu1 1_555 1_555
O16 C43 1_555 1_555
C11 C32 1_555 1_555
C11 C36 1_555 1_555
C12 C16 1_555 1_555
C18 C27 1_555 1_555
C20 C34 1_555 1_555
C22 C35 1_555 1_555
C26 C36 1_555 1_555
C28 C33 1_555 1_555
C39 C40 1_555 1_555
C43 C48 1_555 1_555
C44 C47 1_555 1_555
C49 C53 1_555 1_555
C52 C53 1_555 1_555
S1 O9 1_555 1_555
O2 C5 1_555 1_555
O5 C5 1_555 1_555
O10 S1 1_555 1_555
C5 C8 1_555 1_555
C6 H4 1_555 1_555
C8 C6 1_555 1_555
C13 C8 1_555 1_555
H7 C13 1_555 1_555
C17 C9 1_555 1_555
C29 S1 1_555 1_555
C38 C6 1_555 1_555
Cu4 O2 1_555 1_555
Cu6 O5 1_555 1_555
C13 C29 1_555 1_555
C17 C29 1_555 1_555
C17 C38 1_555 1_555
O1_2 C1_2 1_555 1_555
O8_2 C1_2 1_555 1_555
C1_2 C15_2 1_555 1_555
C4_2 H3_2 1_555 1_555
C15_2 C4_2 1_555 1_555
Cu5 O1_2 1_555 1_555
O8_2 Cu5 1_555 1_555
C4_2 C31_2 1_555 1_555
S1_2 O9_2 1_555 1_555
S2_2 O11_2 1_555 1_555
O2_2 C5_2 1_555 1_555
O5_2 C5_2 1_555 1_555
O7_2 C37_2 1_555 1_555
O10_2 S1_2 1_555 1_555
O12_2 S2_2 1_555 1_555
C3_2 C23_2 1_555 1_555
C5_2 C8_2 1_555 1_555
C6_2 H4_2 1_555 1_555
C7_2 H5_2 1_555 1_555
C8_2 C6_2 1_555 1_555
C9_2 C10_2 1_555 1_555
C10_2 S1_2 1_555 1_555
C13_2 C8_2 1_555 1_555
H7_2 C13_2 1_555 1_555
C17_2 C9_2 1_555 1_555
C23_2 C10_2 1_555 1_555
H14_2 C23_2 1_555 1_555
C29_2 S1_2 1_555 1_555
C30_2 S2_2 1_555 1_555
C37_2 C3_2 1_555 1_555
C38_2 C6_2 1_555 1_555
Cu5 O2_2 1_555 1_555
Cu7 O5_2 1_555 1_555
C7_2 C30_2 1_555 1_555
C13_2 C29_2 1_555 1_555
C17_2 C29_2 1_555 1_555
C17_2 C38_2 1_555 1_555
Cu1_2 O6_2 1_555 1_555
Cu2_2 O3_2 1_555 1_555
O4_2 Cu2_2 1_555 1_555
O6_2 C16_2 1_555 1_555
O13_2 C45_2 1_555 1_555
O15_2 C21_2 1_555 1_555
O16_2 C2_2 1_555 1_555
N1_2 Cu1_2 1_555 1_555
N2_2 Cu2_2 1_555 1_555
C2_2 H1_2 1_555 1_555
H2_2 C2_2 1_555 1_555
C11_2 H6_2 1_555 1_555
C14_2 N1_2 1_555 1_555
H8_2 C14_2 1_555 1_555
C16_2 O4_2 1_555 1_555
C18_2 C21_2 1_555 1_555
C19_2 N2_2 1_555 1_555
H9_2 C19_2 1_555 1_555
C20_2 H10_2 1_555 1_555
C21_2 H11_2 1_555 1_555
H12_2 C21_2 1_555 1_555
H13 C22_2 1_555 1_555
C25_2 C20_2 1_555 1_555
C26_2 C19_2 1_555 1_555
H16_2 C26_2 1_555 1_555
C27_2 C14_2 1_555 1_555
H17_2 C27_2 1_555 1_555
C28_2 N1_2 1_555 1_555
H18_2 C28_2 1_555 1_555
C32_2 N2_2 1_555 1_555
H19_2 C32_2 1_555 1_555
C33_2 C18_2 1_555 1_555
H20_2 C33_2 1_555 1_555
C34_2 C12_2 1_555 1_555
H21_2 C34_2 1_555 1_555
H22_2 C35_2 1_555 1_555
C36_2 C2_2 1_555 1_555
C43_2 O15_2 1_555 1_555
C45_2 C43_2 1_555 1_555
H27_2 C45_2 1_555 1_555
H28_2 C45_2 1_555 1_555
C48_2 O14_2 1_555 1_555
H31_2 C48_2 1_555 1_555
H32_2 C48_2 1_555 1_555
O17_2 Cu1_2 1_555 1_555
O18_2 Cu1_2 1_555 1_555
O19_2 Cu2_2 1_555 1_555
O20_2 Cu1_2 1_555 1_555
N6_2 Cu1_2 1_555 1_555
O16_2 C43_2 1_555 1_555
C11_2 C32_2 1_555 1_555
C11_2 C36_2 1_555 1_555
C12_2 C16_2 1_555 1_555
C18_2 C27_2 1_555 1_555
C20_2 C34_2 1_555 1_555
C22_2 C35_2 1_555 1_555
C26_2 C36_2 1_555 1_555
C28_2 C33_2 1_555 1_555
C43_2 C48_2 1_555 1_555
N3_2 C41_2 1_555 1_555
C41_2 H25_2 1_555 1_555
C42_2 N3_2 1_555 1_555
H26_2 C42_2 1_555 1_555
C44_2 C46_2 1_555 1_555
C46_2 C42_2 1_555 1_555
H29_2 C46_2 1_555 1_555
C47_2 C41_2 1_555 1_555
H30_2 C47_2 1_555 1_555
C49_2 H33_2 1_555 1_555
C50_2 C49_2 1_555 1_555
H34_2 C50_2 1_555 1_555
N4_2 C50_2 1_555 1_555
C51_2 N4_2 1_555 1_555
H35_2 C51_2 1_555 1_555
C52_2 C51_2 1_555 1_555
H36_2 C52_2 1_555 1_555
Cu4 N4_2 1_555 1_555
Cu6 N3_2 1_555 1_555
C44_2 C47_2 1_555 1_555
C49_2 C53_2 1_555 1_555
C52_2 C53_2 1_555 1_555
S1_3 O9_3 1_555 1_555
O18 C5_3 1_555 1_555
O19 C5_3 1_555 1_555
O10_3 S1_3 1_555 1_555
C5_3 C8_3 1_555 1_555
C6_3 H4_3 1_555 1_555
C8_3 C6_3 1_555 1_555
C13_3 C8_3 1_555 1_555
H7_3 C13_3 1_555 1_555
C17_3 C9_3 1_555 1_555
C29_3 S1_3 1_555 1_555
C38_3 C6_3 1_555 1_555
H23_2 C38_3 1_555 1_555
C13_3 C29_3 1_555 1_555
C17_3 C29_3 1_555 1_555
C17_3 C38_3 1_555 1_555
Cu4 O6_3 1_555 1_555
Cu6 O3_3 1_555 1_555
S2_3 O11_3 1_555 1_555
O17 C1_3 1_555 1_555
O3_3 C37_3 1_555 1_555
O4_3 Cu6 1_555 1_555
O6_3 C16_3 1_555 1_555
O7_3 C37_3 1_555 1_555
O20 C1_3 1_555 1_555
O12_3 S2_3 1_555 1_555
O14_3 C44_3 1_555 1_555
O16_3 C2_3 1_555 1_555
N1_3 Cu4 1_555 1_555
N2_3 Cu6 1_555 1_555
N5_2 C41_3 1_555 1_555
C1_3 C15_3 1_555 1_555
C2_3 H1_3 1_555 1_555
H2_3 C2_3 1_555 1_555
C3_3 C23_3 1_555 1_555
C4_3 H3_3 1_555 1_555
C7_3 H5_3 1_555 1_555
C11_3 H6_3 1_555 1_555
C12_3 C7_3 1_555 1_555
C14_3 N1_3 1_555 1_555
H8_3 C14_3 1_555 1_555
C15_3 C4_3 1_555 1_555
C16_3 O4_3 1_555 1_555
C18_3 C21_3 1_555 1_555
C19_3 N2_3 1_555 1_555
H9_3 C19_3 1_555 1_555
C20_3 H10_3 1_555 1_555
C21_3 H11_3 1_555 1_555
H12_3 C21_3 1_555 1_555
C23_3 C10_3 1_555 1_555
H14_3 C23_3 1_555 1_555
C24_2 C15_3 1_555 1_555
H15_2 C24_2 1_555 1_555
C25_3 C20_3 1_555 1_555
C26_3 C19_3 1_555 1_555
H16_3 C26_3 1_555 1_555
C27_3 C14_3 1_555 1_555
H17_3 C27_3 1_555 1_555
C28_3 N1_3 1_555 1_555
H18_3 C28_3 1_555 1_555
C30_3 S2_3 1_555 1_555
C31_3 S2_3 1_555 1_555
C32_3 N2_3 1_555 1_555
H19_3 C32_3 1_555 1_555
C33_3 C18_3 1_555 1_555
H20_3 C33_3 1_555 1_555
C34_3 C12_3 1_555 1_555
H21_3 C34_3 1_555 1_555
C35_3 C3_3 1_555 1_555
H22_3 C35_3 1_555 1_555
C36_3 C2_3 1_555 1_555
C37_3 C3_3 1_555 1_555
C39_2 C24_2 1_555 1_555
H24_2 C39_2 1_555 1_555
C40_2 C25_3 1_555 1_555
C41_3 H25_3 1_555 1_555
C44_3 C46_3 1_555 1_555
C45_3 C43_3 1_555 1_555
H27_3 C45_3 1_555 1_555
H28_3 C45_3 1_555 1_555
C47_3 C41_3 1_555 1_555
H30_3 C47_3 1_555 1_555
C48_3 O14_3 1_555 1_555
H31_3 C48_3 1_555 1_555
O16_3 C43_3 1_555 1_555
C4_3 C31_3 1_555 1_555
C7_3 C30_3 1_555 1_555
C11_3 C32_3 1_555 1_555
C11_3 C36_3 1_555 1_555
C12_3 C16_3 1_555 1_555
C18_3 C27_3 1_555 1_555
C20_3 C34_3 1_555 1_555
C22_3 C35_3 1_555 1_555
C25_3 C30_3 1_555 1_555
C26_3 C36_3 1_555 1_555
C28_3 C33_3 1_555 1_555
C31_3 C40_2 1_555 1_555
C39_2 C40_2 1_555 1_555
C43_3 C48_3 1_555 1_555
C44_3 C47_3 1_555 1_555
H26_3 C42_3 1_555 1_555
C49_3 H33_3 1_555 1_555
C50_3 C49_3 1_555 1_555
H34_3 C50_3 1_555 1_555
N6_2 C50_3 1_555 1_555
C51_3 N6_2 1_555 1_555
H35_3 C51_3 1_555 1_555
C52_3 C51_3 1_555 1_555
H36_3 C52_3 1_555 1_555
C53_3 O13_3 1_555 1_555
C49_3 C53_3 1_555 1_555
C52_3 C53_3 1_555 1_555
Cu5 O6_4 1_555 1_555
Cu7 O3_4 1_555 1_555
S1_4 O9_4 1_555 1_555
S2_4 O11_4 1_555 1_555
O18_2 C5_4 1_555 1_555
O3_4 C37_4 1_555 1_555
O4_4 Cu7 1_555 1_555
O19_2 C5_4 1_555 1_555
O6_4 C16_4 1_555 1_555
O7_4 C37_4 1_555 1_555
O10_4 S1_4 1_555 1_555
O12_4 S2_4 1_555 1_555
O16_4 C2_4 1_555 1_555
N1_4 Cu5 1_555 1_555
N2_4 Cu7 1_555 1_555
C2_4 H1_4 1_555 1_555
H2_4 C2_4 1_555 1_555
C3_4 C23_4 1_555 1_555
C5_4 C8_4 1_555 1_555
C6_4 H4_4 1_555 1_555
C7_4 H5_4 1_555 1_555
C8_4 C6_4 1_555 1_555
C9_4 C10_4 1_555 1_555
C10_4 S1_4 1_555 1_555
C11_4 H6_4 1_555 1_555
C12_4 C7_4 1_555 1_555
C13_4 C8_4 1_555 1_555
H7_4 C13_4 1_555 1_555
C14_4 N1_4 1_555 1_555
H8_4 C14_4 1_555 1_555
C16_4 O4_4 1_555 1_555
C17_4 C9_4 1_555 1_555
C18_4 C21_4 1_555 1_555
C19_4 N2_4 1_555 1_555
H9_4 C19_4 1_555 1_555
C20_4 H10_4 1_555 1_555
C21_4 H11_4 1_555 1_555
H12_4 C21_4 1_555 1_555
C22_4 C9_4 1_555 1_555
H13_3 C22_4 1_555 1_555
C23_4 C10_4 1_555 1_555
H14_4 C23_4 1_555 1_555
C25_4 C20_4 1_555 1_555
C26_4 C19_4 1_555 1_555
H16_4 C26_4 1_555 1_555
C27_4 C14_4 1_555 1_555
H17_4 C27_4 1_555 1_555
C28_4 N1_4 1_555 1_555
H18_4 C28_4 1_555 1_555
C29_4 S1_4 1_555 1_555
C30_4 S2_4 1_555 1_555
C32_4 N2_4 1_555 1_555
H19_4 C32_4 1_555 1_555
C33_4 C18_4 1_555 1_555
H20_4 C33_4 1_555 1_555
C34_4 C12_4 1_555 1_555
H21_4 C34_4 1_555 1_555
C35_4 C3_4 1_555 1_555
H22_4 C35_4 1_555 1_555
C36_4 C2_4 1_555 1_555
C37_4 C3_4 1_555 1_555
C38_4 C6_4 1_555 1_555
H23_3 C38_4 1_555 1_555
C45_4 C43_4 1_555 1_555
H27_4 C45_4 1_555 1_555
H28_4 C45_4 1_555 1_555
C48_4 O14_4 1_555 1_555
H31_4 C48_4 1_555 1_555
O16_4 C43_4 1_555 1_555
C7_4 C30_4 1_555 1_555
C11_4 C32_4 1_555 1_555
C11_4 C36_4 1_555 1_555
C12_4 C16_4 1_555 1_555
C13_4 C29_4 1_555 1_555
C17_4 C29_4 1_555 1_555
C17_4 C38_4 1_555 1_555
C18_4 C27_4 1_555 1_555
C20_4 C34_4 1_555 1_555
C22_4 C35_4 1_555 1_555
C25_4 C30_4 1_555 1_555
C26_4 C36_4 1_555 1_555
C28_4 C33_4 1_555 1_555
C43_4 C48_4 1_555 1_555
O17_2 C1_4 1_555 1_555
O20_2 C1_4 1_555 1_555
C1_4 C15_4 1_555 1_555
C4_4 H3_4 1_555 1_555
C15_4 C4_4 1_555 1_555
C24_3 C15_4 1_555 1_555
H15_3 C24_3 1_555 1_555
C39_3 C24_3 1_555 1_555
H24_3 C39_3 1_555 1_555
C4_4 C31_4 1_555 1_555
C31_4 C40_3 1_555 1_555
C39_3 C40_3 1_555 1_555
N5 C41_4 1_555 1_555
C41_4 H25_4 1_555 1_555
C44_4 C46_4 1_555 1_555
C47_4 C41_4 1_555 1_555
H30_4 C47_4 1_555 1_555
C44_4 C47_4 1_555 1_555
H26_4 C42_4 1_555 1_555
C49_4 H33_4 1_555 1_555
C50_4 C49_4 1_555 1_555
H34_4 C50_4 1_555 1_555
N6 C50_4 1_555 1_555
C51_4 N6 1_555 1_555
H35_4 C51_4 1_555 1_555
C52_4 C51_4 1_555 1_555
H36_4 C52_4 1_555 1_555
C49_4 C53_4 1_555 1_555
C52_4 C53_4 1_555 1_555
H26_5 C42_5 1_555 1_555
C49_5 H33_5 1_555 1_555
C50_5 C49_5 1_555 1_555
H34_5 C50_5 1_555 1_555
N4_3 C50_5 1_555 1_555
C51_5 N4_3 1_555 1_555
H35_5 C51_5 1_555 1_555
C52_5 C51_5 1_555 1_555
H36_5 C52_5 1_555 1_555
C53_5 O13_4 1_555 1_555
Cu5_2 N4_3 1_555 1_555
C49_5 C53_5 1_555 1_555
C52_5 C53_5 1_555 1_555
Cu1_3 O6_5 1_555 1_555
Cu2_3 O3_5 1_555 1_555
S2_5 O11_5 1_555 1_555
O1_3 C1_5 1_555 1_555
O3_5 C37_5 1_555 1_555
O4_5 Cu2_3 1_555 1_555
O6_5 C16_5 1_555 1_555
O7_5 C37_5 1_555 1_555
O8_3 C1_5 1_555 1_555
O12_5 S2_5 1_555 1_555
O14_5 C44_5 1_555 1_555
O16_5 C2_5 1_555 1_555
N1_5 Cu1_3 1_555 1_555
N2_5 Cu2_3 1_555 1_555
N3_3 C41_5 1_555 1_555
C1_5 C15_5 1_555 1_555
C2_5 H1_5 1_555 1_555
H2_5 C2_5 1_555 1_555
C3_5 C23_5 1_555 1_555
C4_5 H3_5 1_555 1_555
C7_5 H5_5 1_555 1_555
C11_5 H6_5 1_555 1_555
C12_5 C7_5 1_555 1_555
C14_5 N1_5 1_555 1_555
H8_5 C14_5 1_555 1_555
C15_5 C4_5 1_555 1_555
C16_5 O4_5 1_555 1_555
C18_5 C21_5 1_555 1_555
C19_5 N2_5 1_555 1_555
H9_5 C19_5 1_555 1_555
C20_5 H10_5 1_555 1_555
C21_5 H11_5 1_555 1_555
H12_5 C21_5 1_555 1_555
C23_5 C10_5 1_555 1_555
H14_5 C23_5 1_555 1_555
C24_4 C15_5 1_555 1_555
H15_4 C24_4 1_555 1_555
C25_5 C20_5 1_555 1_555
C26_5 C19_5 1_555 1_555
H16_5 C26_5 1_555 1_555
C27_5 C14_5 1_555 1_555
H17_5 C27_5 1_555 1_555
C28_5 N1_5 1_555 1_555
H18_5 C28_5 1_555 1_555
C30_5 S2_5 1_555 1_555
C31_5 S2_5 1_555 1_555
C32_5 N2_5 1_555 1_555
H19_5 C32_5 1_555 1_555
C33_5 C18_5 1_555 1_555
H20_5 C33_5 1_555 1_555
C34_5 C12_5 1_555 1_555
H21_5 C34_5 1_555 1_555
C35_5 C3_5 1_555 1_555
H22_5 C35_5 1_555 1_555
C36_5 C2_5 1_555 1_555
C37_5 C3_5 1_555 1_555
C39_4 C24_4 1_555 1_555
H24_4 C39_4 1_555 1_555
C40_4 C25_5 1_555 1_555
C41_5 H25_5 1_555 1_555
C44_5 C46_5 1_555 1_555
C45_5 C43_5 1_555 1_555
H27_5 C45_5 1_555 1_555
H28_5 C45_5 1_555 1_555
C47_5 C41_5 1_555 1_555
H30_5 C47_5 1_555 1_555
C48_5 O14_5 1_555 1_555
H31_5 C48_5 1_555 1_555
Cu4_2 O1_3 1_555 1_555
O17_3 Cu1_3 1_555 1_555
O18_3 Cu1_3 1_555 1_555
O19_3 Cu2_3 1_555 1_555
O20_3 Cu1_3 1_555 1_555
N5_3 Cu2_3 1_555 1_555
N6_3 Cu1_3 1_555 1_555
O8_3 Cu4_2 1_555 1_555
O16_5 C43_5 1_555 1_555
C4_5 C31_5 1_555 1_555
C7_5 C30_5 1_555 1_555
C11_5 C32_5 1_555 1_555
C11_5 C36_5 1_555 1_555
C12_5 C16_5 1_555 1_555
C18_5 C27_5 1_555 1_555
C20_5 C34_5 1_555 1_555
C22_5 C35_5 1_555 1_555
C25_5 C30_5 1_555 1_555
C26_5 C36_5 1_555 1_555
C28_5 C33_5 1_555 1_555
C31_5 C40_4 1_555 1_555
C39_4 C40_4 1_555 1_555
C43_5 C48_5 1_555 1_555
C44_5 C47_5 1_555 1_555
S1_5 O9_5 1_555 1_555
O2_3 C5_5 1_555 1_555
O5_3 C5_5 1_555 1_555
O10_5 S1_5 1_555 1_555
C5_5 C8_5 1_555 1_555
C6_5 H4_5 1_555 1_555
C8_5 C6_5 1_555 1_555
C13_5 C8_5 1_555 1_555
H7_5 C13_5 1_555 1_555
C17_5 C9_5 1_555 1_555
C29_5 S1_5 1_555 1_555
C38_5 C6_5 1_555 1_555
H23_5 C38_5 1_555 1_555
Cu4_2 O2_3 1_555 1_555
Cu6_2 O5_3 1_555 1_555
C13_5 C29_5 1_555 1_555
C17_5 C29_5 1_555 1_555
C17_5 C38_5 1_555 1_555
H26_6 C42_6 1_555 1_555
C49_6 H33_6 1_555 1_555
C50_6 C49_6 1_555 1_555
H34_6 C50_6 1_555 1_555
N4_4 C50_6 1_555 1_555
C51_6 N4_4 1_555 1_555
H35_6 C51_6 1_555 1_555
C52_6 C51_6 1_555 1_555
H36_6 C52_6 1_555 1_555
Cu4_2 N4_4 1_555 1_555
C49_6 C53_6 1_555 1_555
C52_6 C53_6 1_555 1_555
N3_4 C41_6 1_555 1_555
C41_6 H25_6 1_555 1_555
C44_6 C46_6 1_555 1_555
C47_6 C41_6 1_555 1_555
H30_6 C47_6 1_555 1_555
C44_6 C47_6 1_555 1_555
O1_4 C1_6 1_555 1_555
O8_4 C1_6 1_555 1_555
C1_6 C15_6 1_555 1_555
C4_6 H3_6 1_555 1_555
C15_6 C4_6 1_555 1_555
C24_5 C15_6 1_555 1_555
H15_5 C24_5 1_555 1_555
C39_5 C24_5 1_555 1_555
H24_5 C39_5 1_555 1_555
Cu5_2 O1_4 1_555 1_555
O8_4 Cu5_2 1_555 1_555
C4_6 C31_6 1_555 1_555
C31_6 C40_5 1_555 1_555
C39_5 C40_5 1_555 1_555
Cu1_4 O6_6 1_555 1_555
Cu2_4 O3_6 1_555 1_555
S1_6 O9_6 1_555 1_555
S2_6 O11_6 1_555 1_555
O2_4 C5_6 1_555 1_555
O3_6 C37_6 1_555 1_555
O4_6 Cu2_4 1_555 1_555
O5_4 C5_6 1_555 1_555
O6_6 C16_6 1_555 1_555
O7_6 C37_6 1_555 1_555
O10_6 S1_6 1_555 1_555
O12_6 S2_6 1_555 1_555
O16_6 C2_6 1_555 1_555
N1_6 Cu1_4 1_555 1_555
N2_6 Cu2_4 1_555 1_555
C2_6 H1_6 1_555 1_555
H2_6 C2_6 1_555 1_555
C3_6 C23_6 1_555 1_555
C5_6 C8_6 1_555 1_555
C6_6 H4_6 1_555 1_555
C7_6 H5_6 1_555 1_555
C8_6 C6_6 1_555 1_555
C9_6 C10_6 1_555 1_555
C10_6 S1_6 1_555 1_555
C11_6 H6_6 1_555 1_555
C12_6 C7_6 1_555 1_555
C13_6 C8_6 1_555 1_555
H7_6 C13_6 1_555 1_555
C14_6 N1_6 1_555 1_555
H8_6 C14_6 1_555 1_555
C16_6 O4_6 1_555 1_555
C17_6 C9_6 1_555 1_555
C18_6 C21_6 1_555 1_555
C19_6 N2_6 1_555 1_555
H9_6 C19_6 1_555 1_555
C20_6 H10_6 1_555 1_555
C21_6 H11_6 1_555 1_555
H12_6 C21_6 1_555 1_555
C22_6 C9_6 1_555 1_555
H13_6 C22_6 1_555 1_555
C23_6 C10_6 1_555 1_555
H14_6 C23_6 1_555 1_555
C25_6 C20_6 1_555 1_555
C26_6 C19_6 1_555 1_555
H16_6 C26_6 1_555 1_555
C27_6 C14_6 1_555 1_555
H17_6 C27_6 1_555 1_555
C28_6 N1_6 1_555 1_555
H18_6 C28_6 1_555 1_555
C29_6 S1_6 1_555 1_555
C30_6 S2_6 1_555 1_555
C32_6 N2_6 1_555 1_555
H19_6 C32_6 1_555 1_555
C33_6 C18_6 1_555 1_555
H20_6 C33_6 1_555 1_555
C34_6 C12_6 1_555 1_555
H21_6 C34_6 1_555 1_555
C35_6 C3_6 1_555 1_555
H22_6 C35_6 1_555 1_555
C36_6 C2_6 1_555 1_555
C37_6 C3_6 1_555 1_555
C38_6 C6_6 1_555 1_555
H23_6 C38_6 1_555 1_555
C45_6 C43_6 1_555 1_555
H27_6 C45_6 1_555 1_555
H28_6 C45_6 1_555 1_555
C48_6 O14_6 1_555 1_555
H31_6 C48_6 1_555 1_555
Cu5_2 O2_4 1_555 1_555
Cu7_2 O5_4 1_555 1_555
O17_4 Cu1_4 1_555 1_555
O18_4 Cu1_4 1_555 1_555
O19_4 Cu2_4 1_555 1_555
O20_4 Cu1_4 1_555 1_555
N5_4 Cu2_4 1_555 1_555
N6_4 Cu1_4 1_555 1_555
O16_6 C43_6 1_555 1_555
C7_6 C30_6 1_555 1_555
C11_6 C32_6 1_555 1_555
C11_6 C36_6 1_555 1_555
C12_6 C16_6 1_555 1_555
C13_6 C29_6 1_555 1_555
C17_6 C29_6 1_555 1_555
C17_6 C38_6 1_555 1_555
C18_6 C27_6 1_555 1_555
C20_6 C34_6 1_555 1_555
C22_6 C35_6 1_555 1_555
C25_6 C30_6 1_555 1_555
C26_6 C36_6 1_555 1_555
C28_6 C33_6 1_555 1_555
C43_6 C48_6 1_555 1_555
S1_7 O9_7 1_555 1_555
O18_3 C5_7 1_555 1_555
O19_3 C5_7 1_555 1_555
O10_7 S1_7 1_555 1_555
C5_7 C8_7 1_555 1_555
C6_7 H4_7 1_555 1_555
C8_7 C6_7 1_555 1_555
C13_7 C8_7 1_555 1_555
H7_7 C13_7 1_555 1_555
C17_7 C9_7 1_555 1_555
C29_7 S1_7 1_555 1_555
C38_7 C6_7 1_555 1_555
C13_7 C29_7 1_555 1_555
C17_7 C29_7 1_555 1_555
C17_7 C38_7 1_555 1_555
Cu4_2 O6_7 1_555 1_555
Cu6_2 O3_7 1_555 1_555
O4_7 Cu6_2 1_555 1_555
O6_7 C16_7 1_555 1_555
O13_5 C45_7 1_555 1_555
O14_7 C44_7 1_555 1_555
O15_5 C21_7 1_555 1_555
O16_7 C2_7 1_555 1_555
N1_7 Cu4_2 1_555 1_555
N2_7 Cu6_2 1_555 1_555
N5_4 C41_7 1_555 1_555
C2_7 H1_7 1_555 1_555
H2_7 C2_7 1_555 1_555
C11_7 H6_7 1_555 1_555
C14_7 N1_7 1_555 1_555
H8_7 C14_7 1_555 1_555
C16_7 O4_7 1_555 1_555
C18_7 C21_7 1_555 1_555
C19_7 N2_7 1_555 1_555
H9_7 C19_7 1_555 1_555
C20_7 H10_7 1_555 1_555
C21_7 H11_7 1_555 1_555
H12_7 C21_7 1_555 1_555
H15_6 C24_6 1_555 1_555
C25_7 C20_7 1_555 1_555
C26_7 C19_7 1_555 1_555
H16_7 C26_7 1_555 1_555
C27_7 C14_7 1_555 1_555
H17_7 C27_7 1_555 1_555
C28_7 N1_7 1_555 1_555
H18_7 C28_7 1_555 1_555
C32_7 N2_7 1_555 1_555
H19_7 C32_7 1_555 1_555
C33_7 C18_7 1_555 1_555
H20_7 C33_7 1_555 1_555
C34_7 C12_7 1_555 1_555
H21_7 C34_7 1_555 1_555
H22_7 C35_7 1_555 1_555
C36_7 C2_7 1_555 1_555
C39_6 C24_6 1_555 1_555
H24_6 C39_6 1_555 1_555
C40_6 C25_7 1_555 1_555
C41_7 H25_7 1_555 1_555
C42_7 N5_4 1_555 1_555
H26_7 C42_7 1_555 1_555
C43_7 O15_5 1_555 1_555
C44_7 C46_7 1_555 1_555
C45_7 C43_7 1_555 1_555
H27_7 C45_7 1_555 1_555
H28_7 C45_7 1_555 1_555
C46_7 C42_7 1_555 1_555
H29_7 C46_7 1_555 1_555
C47_7 C41_7 1_555 1_555
H30_7 C47_7 1_555 1_555
C48_7 O14_7 1_555 1_555
H31_7 C48_7 1_555 1_555
H32_5 C48_7 1_555 1_555
C49_7 H33_7 1_555 1_555
C50_7 C49_7 1_555 1_555
H34_7 C50_7 1_555 1_555
N6_4 C50_7 1_555 1_555
C51_7 N6_4 1_555 1_555
H35_7 C51_7 1_555 1_555
C52_7 C51_7 1_555 1_555
H36_7 C52_7 1_555 1_555
C53_7 O13_5 1_555 1_555
O16_7 C43_7 1_555 1_555
C11_7 C32_7 1_555 1_555
C11_7 C36_7 1_555 1_555
C12_7 C16_7 1_555 1_555
C18_7 C27_7 1_555 1_555
C20_7 C34_7 1_555 1_555
C22_7 C35_7 1_555 1_555
C26_7 C36_7 1_555 1_555
C28_7 C33_7 1_555 1_555
C39_6 C40_6 1_555 1_555
C43_7 C48_7 1_555 1_555
C44_7 C47_7 1_555 1_555
C49_7 C53_7 1_555 1_555
C52_7 C53_7 1_555 1_555
S2_7 O11_7 1_555 1_555
O17_3 C1_7 1_555 1_555
O7_7 C37_7 1_555 1_555
O20_3 C1_7 1_555 1_555
O12_7 S2_7 1_555 1_555
C1_7 C15_7 1_555 1_555
C3_7 C23_7 1_555 1_555
C4_7 H3_7 1_555 1_555
C7_7 H5_7 1_555 1_555
C15_7 C4_7 1_555 1_555
C23_7 C10_7 1_555 1_555
H14_7 C23_7 1_555 1_555
C30_7 S2_7 1_555 1_555
C31_7 S2_7 1_555 1_555
C37_7 C3_7 1_555 1_555
C4_7 C31_7 1_555 1_555
C7_7 C30_7 1_555 1_555
N5_3 C41_8 1_555 1_555
C41_8 H25_8 1_555 1_555
C42_8 N5_3 1_555 1_555
H26_8 C42_8 1_555 1_555
C44_8 C46_8 1_555 1_555
C46_8 C42_8 1_555 1_555
H29_8 C46_8 1_555 1_555
C47_8 C41_8 1_555 1_555
H30_8 C47_8 1_555 1_555
C49_8 H33_8 1_555 1_555
C50_8 C49_8 1_555 1_555
H34_8 C50_8 1_555 1_555
N6_3 C50_8 1_555 1_555
C51_8 N6_3 1_555 1_555
H35_8 C51_8 1_555 1_555
C52_8 C51_8 1_555 1_555
H36_8 C52_8 1_555 1_555
C44_8 C47_8 1_555 1_555
C49_8 C53_8 1_555 1_555
C52_8 C53_8 1_555 1_555
Cu5_2 O6_8 1_555 1_555
Cu7_2 O3_8 1_555 1_555
O4_8 Cu7_2 1_555 1_555
O6_8 C16_8 1_555 1_555
O13_6 C45_8 1_555 1_555
O15_6 C21_8 1_555 1_555
O16_8 C2_8 1_555 1_555
N1_8 Cu5_2 1_555 1_555
N2_8 Cu7_2 1_555 1_555
C2_8 H1_8 1_555 1_555
H2_8 C2_8 1_555 1_555
C11_8 H6_8 1_555 1_555
C14_8 N1_8 1_555 1_555
H8_8 C14_8 1_555 1_555
C16_8 O4_8 1_555 1_555
C18_8 C21_8 1_555 1_555
C19_8 N2_8 1_555 1_555
H9_8 C19_8 1_555 1_555
C20_8 H10_8 1_555 1_555
C21_8 H11_8 1_555 1_555
H12_8 C21_8 1_555 1_555
H13_7 C22_8 1_555 1_555
C25_8 C20_8 1_555 1_555
C26_8 C19_8 1_555 1_555
H16_8 C26_8 1_555 1_555
C27_8 C14_8 1_555 1_555
H17_8 C27_8 1_555 1_555
C28_8 N1_8 1_555 1_555
H18_8 C28_8 1_555 1_555
C32_8 N2_8 1_555 1_555
H19_8 C32_8 1_555 1_555
C33_8 C18_8 1_555 1_555
H20_8 C33_8 1_555 1_555
C34_8 C12_8 1_555 1_555
H21_8 C34_8 1_555 1_555
H22_8 C35_8 1_555 1_555
C36_8 C2_8 1_555 1_555
C43_8 O15_6 1_555 1_555
C45_8 C43_8 1_555 1_555
H27_8 C45_8 1_555 1_555
H28_8 C45_8 1_555 1_555
C48_8 O14_8 1_555 1_555
H31_8 C48_8 1_555 1_555
H32_6 C48_8 1_555 1_555
O16_8 C43_8 1_555 1_555
C11_8 C32_8 1_555 1_555
C11_8 C36_8 1_555 1_555
C12_8 C16_8 1_555 1_555
C18_8 C27_8 1_555 1_555
C20_8 C34_8 1_555 1_555
C22_8 C35_8 1_555 1_555
C26_8 C36_8 1_555 1_555
C28_8 C33_8 1_555 1_555
C43_8 C48_8 1_555 1_555
S1_8 O9_8 1_555 1_555
S2_8 O11_8 1_555 1_555
O18_4 C5_8 1_555 1_555
O19_4 C5_8 1_555 1_555
O7_8 C37_8 1_555 1_555
O10_8 S1_8 1_555 1_555
O12_8 S2_8 1_555 1_555
C3_8 C23_8 1_555 1_555
C5_8 C8_8 1_555 1_555
C6_8 H4_8 1_555 1_555
C7_8 H5_8 1_555 1_555
C8_8 C6_8 1_555 1_555
C9_8 C10_8 1_555 1_555
C10_8 S1_8 1_555 1_555
C13_8 C8_8 1_555 1_555
H7_8 C13_8 1_555 1_555
C17_8 C9_8 1_555 1_555
C23_8 C10_8 1_555 1_555
H14_8 C23_8 1_555 1_555
C29_8 S1_8 1_555 1_555
C30_8 S2_8 1_555 1_555
C37_8 C3_8 1_555 1_555
C38_8 C6_8 1_555 1_555
C7_8 C30_8 1_555 1_555
C13_8 C29_8 1_555 1_555
C17_8 C29_8 1_555 1_555
C17_8 C38_8 1_555 1_555
O17_4 C1_8 1_555 1_555
O20_4 C1_8 1_555 1_555
C1_8 C15_8 1_555 1_555
C4_8 H3_8 1_555 1_555
C15_8 C4_8 1_555 1_555
C4_8 C31_8 1_555 1_555
H15_7 C24_7 1_555 1_555
C39_7 C24_7 1_555 1_555
H24_7 C39_7 1_555 1_555
C39_7 C40_7 1_555 1_555
H15_8 C24_8 1_555 1_555
C39_8 C24_8 1_555 1_555
H24_8 C39_8 1_555 1_555
C39_8 C40_8 1_555 1_555

#END
