
###############################################################################
#
# This file contains modified crystal structure data generated from the
# MOF subset of the Cambridge Structural Database (CSD) v543 
# hosted by the Cambridge Crystallographic Data Centre (CCDC).
#
# This work is licensed under the Creative Commons
# Attribution-NonCommercial-ShareAlike 4.0 International License.
# To view a copy of this license, visit
# http://creativecommons.org/licenses/by-nc-sa/4.0/
# or send a letter to
# Creative Commons, PO Box 1866, Mountain View, CA 94042, USA.
#
# CIF created using the CSD Python API on 29 September 2022
# The structure has been converted into the P1 space group
# The structure has a 3D framework
# The original CSD entry INOCUM is in the tetragonal crystal system
# The framework has been calculated to contain at least 10.0% void space
# The void calculation uses a probe of radius 1.32A, grid spacing 0.4
# The framework is charged, counterions have been retained in the structure
# H atom positions have been added when not included in the experimental data
#
###############################################################################

data_INOCUM
_chemical_formula_moiety         '(C136 H52 Al23 N52 O190 3+)n'
_symmetry_cell_setting           triclinic
_symmetry_space_group_name_H-M   'P 1'
_symmetry_Int_Tables_number      1
_space_group_name_Hall           'P 1'
loop_
_symmetry_equiv_pos_site_id
_symmetry_equiv_pos_as_xyz
1 x,y,z
_cell_length_a                   21.5030(9)
_cell_length_b                   21.5030(9)
_cell_length_c                   10.2953(6)
_cell_angle_alpha                90
_cell_angle_beta                 90
_cell_angle_gamma                90
_cell_volume                     4760.33
loop_
_atom_site_label
_atom_site_type_symbol
_atom_site_fract_x
_atom_site_fract_y
_atom_site_fract_z
_atom_site_U_iso_or_equiv
_atom_site_thermal_displace_type
Al1 Al 0.250 0.0702(4) 0.250 0.0158 Uiso
O1 O 0.2447(4) 0.1377(4) 0.3643(9) 0.0158 Uiso
O2 O 0.1773(5) 0.0897(4) 0.5158(10) 0.0158 Uiso
C1 C 0.2085(6) 0.1326(6) 0.4596(15) 0.0158 Uiso
O3 O 0.250 -0.000 0.375 0.0158 Uiso
O4 O 0.140(2) 0.250 0.8528(14) 0.0158 Uiso
C2 C 0.1724(18) 0.19307 0.6537(15) 0.0158 Uiso
C3 C 0.1970(16) 0.19279 0.5292(16) 0.0158 Uiso
C4 C 0.2057(15) 0.250 0.4628(17) 0.0158 Uiso
C5 C 0.1647(18) 0.250 0.7201(15) 0.0158 Uiso
N1 N 0.1499(19) 0.14627 0.7316(14) 0.0158 Uiso
O5 O 0.0941(19) 0.13005 0.7363(12) 0.0158 Uiso
O6 O 0.1916(19) 0.1192 0.7930(16) 0.0158 Uiso
N2 N 0.2265(14) 0.250 0.3357(18) 0.0158 Uiso
O7 O 0.1847(14) 0.250 0.2497(16) 0.0158 Uiso
O8 O 0.2815(14) 0.250 0.303(2) 0.0158 Uiso
O9 O 0.2553(4) 0.1377(4) 0.1357(9) 0.0158 Uiso
C6 C 0.2915(6) 0.1326(6) 0.0404(15) 0.0158 Uiso
C9 C 0.2943(15) 0.250 0.0372(17) 0.0158 Uiso
O12 O 0.2553(4) 0.3623(4) 0.1357(9) 0.0158 Uiso
C11 C 0.2915(6) 0.3674(6) 0.0404(15) 0.0158 Uiso
O14 O 0.2447(4) 0.3623(4) 0.3643(9) 0.0158 Uiso
O15 O 0.1773(5) 0.4103(4) 0.5158(10) 0.0158 Uiso
C14 C 0.2085(6) 0.3674(6) 0.4596(15) 0.0158 Uiso
C15 C 0.1724(18) 0.30693 0.6537(15) 0.0158 Uiso
C16 C 0.1970(16) 0.30721 0.5292(16) 0.0158 Uiso
Al2 Al 0.250 0.4298(4) 0.250 0.0158 Uiso
O16 O 0.250 0.500 0.375 0.0158 Uiso
Al3 Al 0.1798(4) 0.000 0.500 0.0158 Uiso
Al4 Al 0.3202(4) 0.000 0.000 0.0158 Uiso
Al5 Al 0.1798(4) 0.500 0.500 0.0158 Uiso
Al6 Al 0.3202(4) 0.500 0.000 0.0158 Uiso
O17 O 0.1603(4) 0.0727(5) 0.2342(10) 0.0158 Uiso
O18 O 0.3397(4) 0.0727(5) 0.2658(10) 0.0158 Uiso
O19 O 0.1603(4) 0.4273(5) 0.2342(10) 0.0158 Uiso
O20 O 0.3397(4) 0.4273(5) 0.2658(10) 0.0158 Uiso
O21 O 0.250 0.000 0.125 0.0158 Uiso
O22 O 0.250 0.500 0.125 0.0158 Uiso
H1 H 0.159072 0.350451 0.700078 . .
H4 H 0.280932 0.25 0.139225 . .
O10 O 0.3227(5) 0.0897(4) 0.9842(10) 0.0158 Uiso
O11 O 0.360(2) 0.250 0.6472(14) 0.0158 Uiso
C7 C 0.3276(18) 0.19307 0.8463(15) 0.0158 Uiso
C8 C 0.3030(16) 0.19279 0.9708(16) 0.0158 Uiso
C10 C 0.3353(18) 0.250 0.7799(15) 0.0158 Uiso
O13 O 0.3227(5) 0.4103(4) 0.9842(10) 0.0158 Uiso
C12 C 0.3276(18) 0.30693 0.8463(15) 0.0158 Uiso
C13 C 0.3030(16) 0.30721 0.9708(16) 0.0158 Uiso
Al4_2 Al 0.3202(4) 0.000 1.000 0.0158 Uiso
Al6_2 Al 0.3202(4) 0.500 1.000 0.0158 Uiso
H2 H 0.340928 0.149549 0.799922 . .
H3 H 0.340928 0.350451 0.799922 . .
O3_2 O 0.250 1.000 0.375 0.0158 Uiso
Al3_2 Al 0.1798(4) 1.000 0.500 0.0158 Uiso
Al4_3 Al 0.3202(4) 1.000 0.000 0.0158 Uiso
O21_2 O 0.250 1.000 0.125 0.0158 Uiso
Al4_4 Al 0.3202(4) 1.000 1.000 0.0158 Uiso
O3_3 O 0.250 -0.000 0.875 0.0158 Uiso
O21_3 O 0.250 0.000 0.625 0.0158 Uiso
O2_2 O 0.3227(5) 0.9103(4) 0.0158(10) 0.0158 Uiso
O4_2 O 0.360(2) 0.750 0.3528(14) 0.0158 Uiso
C2_2 C 0.3276(18) 0.80693 0.1537(15) 0.0158 Uiso
C3_2 C 0.3030(16) 0.80721 0.0292(16) 0.0158 Uiso
C5_2 C 0.3353(18) 0.750 0.2201(15) 0.0158 Uiso
N1_2 N 0.3501(19) 0.85373 0.2316(14) 0.0158 Uiso
O5_2 O 0.4059(19) 0.86995 0.2363(12) 0.0158 Uiso
O6_2 O 0.3084(19) 0.8808 0.2930(16) 0.0158 Uiso
O15_2 O 0.3227(5) 0.5897(4) 0.0158(10) 0.0158 Uiso
C15_2 C 0.3276(18) 0.69307 0.1537(15) 0.0158 Uiso
C16_2 C 0.3030(16) 0.69279 0.0292(16) 0.0158 Uiso
H1_2 H 0.340928 0.649549 0.200078 . .
Al1_2 Al 0.250 0.9298(4) 0.750 0.0158 Uiso
O1_2 O 0.2553(4) 0.8623(4) 0.8643(9) 0.0158 Uiso
C1_2 C 0.2915(6) 0.8674(6) 0.9596(15) 0.0158 Uiso
O3_4 O 0.250 1.000 0.875 0.0158 Uiso
C4_2 C 0.2943(15) 0.750 0.9628(17) 0.0158 Uiso
N2_2 N 0.2735(14) 0.750 0.8357(18) 0.0158 Uiso
O7_2 O 0.3153(14) 0.750 0.7497(16) 0.0158 Uiso
O8_2 O 0.2185(14) 0.750 0.803(2) 0.0158 Uiso
O9_2 O 0.2447(4) 0.8623(4) 0.6357(9) 0.0158 Uiso
O10_2 O 0.1773(5) 0.9103(4) 0.4842(10) 0.0158 Uiso
C6_2 C 0.2085(6) 0.8674(6) 0.5404(15) 0.0158 Uiso
O11_2 O 0.140(2) 0.750 0.1472(14) 0.0158 Uiso
C7_2 C 0.1724(18) 0.80693 0.3463(15) 0.0158 Uiso
C8_2 C 0.1970(16) 0.80721 0.4708(16) 0.0158 Uiso
C9_2 C 0.2057(15) 0.750 0.5372(17) 0.0158 Uiso
C10_2 C 0.1647(18) 0.750 0.2799(15) 0.0158 Uiso
O12_2 O 0.2447(4) 0.6377(4) 0.6357(9) 0.0158 Uiso
O13_2 O 0.1773(5) 0.5897(4) 0.4842(10) 0.0158 Uiso
C11_2 C 0.2085(6) 0.6326(6) 0.5404(15) 0.0158 Uiso
C12_2 C 0.1724(18) 0.69307 0.3463(15) 0.0158 Uiso
C13_2 C 0.1970(16) 0.69279 0.4708(16) 0.0158 Uiso
O14_2 O 0.2553(4) 0.6377(4) 0.8643(9) 0.0158 Uiso
C14_2 C 0.2915(6) 0.6326(6) 0.9596(15) 0.0158 Uiso
Al2_2 Al 0.250 0.5702(4) 0.750 0.0158 Uiso
O16_2 O 0.250 0.500 0.875 0.0158 Uiso
O17_2 O 0.3397(4) 0.9273(5) 0.7342(10) 0.0158 Uiso
O18_2 O 0.1603(4) 0.9273(5) 0.7658(10) 0.0158 Uiso
O19_2 O 0.3397(4) 0.5727(5) 0.7342(10) 0.0158 Uiso
O20_2 O 0.1603(4) 0.5727(5) 0.7658(10) 0.0158 Uiso
O21_4 O 0.250 1.000 0.625 0.0158 Uiso
O22_2 O 0.250 0.500 0.625 0.0158 Uiso
H2_2 H 0.159072 0.850451 0.299922 . .
H3_2 H 0.159072 0.649549 0.299922 . .
H4_2 H 0.219068 0.75 0.639225 . .
N2_3 N 0.2735(14) 0.250 0.1643(18) 0.0158 Uiso
O7_3 O 0.3153(14) 0.250 0.2503(16) 0.0158 Uiso
O8_3 O 0.2185(14) 0.250 0.197(2) 0.0158 Uiso
H2_3 H 0.159072 0.149549 0.700078 . .
H4_3 H 0.219068 0.25 0.360775 . .
N1_3 N 0.3501(19) 0.14627 0.7684(14) 0.0158 Uiso
O5_3 O 0.4059(19) 0.13005 0.7637(12) 0.0158 Uiso
O6_3 O 0.3084(19) 0.1192 0.7070(16) 0.0158 Uiso
O1_3 O 0.1123(4) 0.0053(4) 0.3857(9) 0.0158 Uiso
C1_3 C 0.1174(6) 0.0415(6) 0.2904(15) 0.0158 Uiso
C2_3 C 0.05693 0.0776(18) 0.0963(15) 0.0158 Uiso
C3_3 C 0.05721 0.0530(16) 0.2208(16) 0.0158 Uiso
C4_3 C 0.000 0.0443(15) 0.2872(17) 0.0158 Uiso
C5_3 C -0.000 0.0853(18) 0.0299(15) 0.0158 Uiso
N1_4 N 0.10373 0.1001(19) 0.0184(14) 0.0158 Uiso
O5_4 O 0.11995 0.1559(19) 0.0137(12) 0.0158 Uiso
N2_4 N 0.000 0.0235(14) 0.4143(18) 0.0158 Uiso
O7_4 O 0.000 0.0653(14) 0.5003(16) 0.0158 Uiso
O8_4 O -0.000 0.9685(14) 0.447(2) 0.0158 Uiso
O9_3 O 0.1123(4) 0.9947(4) 0.6143(9) 0.0158 Uiso
C6_3 C 0.1174(6) 0.9585(6) 0.7096(15) 0.0158 Uiso
C7_3 C 0.05693 0.9224(18) 0.9037(15) 0.0158 Uiso
C8_3 C 0.05721 0.9470(16) 0.7792(16) 0.0158 Uiso
C9_3 C 0.000 0.9557(15) 0.7128(17) 0.0158 Uiso
C10_3 C 0.000 0.9147(18) 0.9701(15) 0.0158 Uiso
H2_4 H 0.100451 0.909072 0.950078 . .
H4_4 H 3.08149e-33 0.969068 0.610775 . .
C4_4 C 1.000 0.0443(15) 0.2872(17) 0.0158 Uiso
C5_4 C 1.000 0.0853(18) 0.0299(15) 0.0158 Uiso
N2_5 N 1.000 0.0235(14) 0.4143(18) 0.0158 Uiso
O7_5 O 1.000 0.0653(14) 0.5003(16) 0.0158 Uiso
O14_3 O 0.8877(4) 0.0053(4) 0.3857(9) 0.0158 Uiso
O15_3 O 0.8397(4) 0.0727(5) 0.2342(10) 0.0158 Uiso
C14_3 C 0.8826(6) 0.0415(6) 0.2904(15) 0.0158 Uiso
C15_3 C 0.94307 0.0776(18) 0.0963(15) 0.0158 Uiso
C16_3 C 0.94279 0.0530(16) 0.2208(16) 0.0158 Uiso
Al2_3 Al 0.8202(4) -0.000 0.500 0.0158 Uiso
O16_3 O 0.750 0.000 0.375 0.0158 Uiso
Al5_2 Al 0.750 0.0702(4) 0.250 0.0158 Uiso
O19_3 O 0.8227(5) 0.0897(4) 0.5158(10) 0.0158 Uiso
O22_3 O 0.750 0.000 0.625 0.0158 Uiso
H1_3 H 0.899549 0.0909282 0.0499217 . .
O8_5 O 1.000 0.9685(14) 0.447(2) 0.0158 Uiso
C9_4 C 1.000 0.9557(15) 0.7128(17) 0.0158 Uiso
C10_4 C 1.000 0.9147(18) 0.9701(15) 0.0158 Uiso
O12_3 O 0.8877(4) 0.9947(4) 0.6143(9) 0.0158 Uiso
O13_3 O 0.8397(4) 0.9273(5) 0.7658(10) 0.0158 Uiso
C11_3 C 0.8826(6) 0.9585(6) 0.7096(15) 0.0158 Uiso
C12_3 C 0.94307 0.9224(18) 0.9037(15) 0.0158 Uiso
C13_3 C 0.94279 0.9470(16) 0.7792(16) 0.0158 Uiso
Al2_4 Al 0.8202(4) 1.000 0.500 0.0158 Uiso
O16_4 O 0.750 1.000 0.375 0.0158 Uiso
Al6_3 Al 0.750 0.9298(4) 0.750 0.0158 Uiso
O20_3 O 0.8227(5) 0.9103(4) 0.4842(10) 0.0158 Uiso
O22_4 O 0.750 1.000 0.625 0.0158 Uiso
H3_3 H 0.899549 0.909072 0.950078 . .
H4_5 H 1 0.969068 0.610775 . .
O8_6 O -0.000 0.0315(14) 0.553(2) 0.0158 Uiso
H2_5 H 0.100451 0.0909282 0.0499217 . .
H4_6 H 1.54074e-33 0.0309323 0.389225 . .
N1_5 N 0.10373 0.8999(19) 0.9816(14) 0.0158 Uiso
O5_5 O 0.11995 0.8441(19) 0.9863(12) 0.0158 Uiso
N2_6 N -0.000 0.9765(14) 0.5857(18) 0.0158 Uiso
O7_6 O -0.000 0.9347(14) 0.4997(16) 0.0158 Uiso
O8_7 O 1.000 0.0315(14) 0.553(2) 0.0158 Uiso
H4_7 H 1 0.0309323 0.389225 . .
N2_7 N 1.000 0.9765(14) 0.5857(18) 0.0158 Uiso
O7_7 O 1.000 0.9347(14) 0.4997(16) 0.0158 Uiso
O1_4 O 0.3877(4) 0.0053(4) 0.1143(9) 0.0158 Uiso
C1_4 C 0.3826(6) 0.0415(6) 0.2096(15) 0.0158 Uiso
O4_3 O 0.500 0.110(2) 0.6028(14) 0.0158 Uiso
C2_4 C 0.44307 0.0776(18) 0.4037(15) 0.0158 Uiso
C3_4 C 0.44279 0.0530(16) 0.2792(16) 0.0158 Uiso
C4_5 C 0.500 0.0443(15) 0.2128(17) 0.0158 Uiso
C5_5 C 0.500 0.0853(18) 0.4701(15) 0.0158 Uiso
N1_6 N 0.39627 0.1001(19) 0.4816(14) 0.0158 Uiso
O5_6 O 0.38005 0.1559(19) 0.4863(12) 0.0158 Uiso
O6_4 O 0.3692 0.0584(19) 0.5430(16) 0.0158 Uiso
N2_8 N 0.500 0.0235(14) 0.0857(18) 0.0158 Uiso
O14_4 O 0.6123(4) 0.0053(4) 0.1143(9) 0.0158 Uiso
O15_4 O 0.6603(4) 0.0727(5) 0.2658(10) 0.0158 Uiso
C14_4 C 0.6174(6) 0.0415(6) 0.2096(15) 0.0158 Uiso
C15_4 C 0.55693 0.0776(18) 0.4037(15) 0.0158 Uiso
C16_4 C 0.55721 0.0530(16) 0.2792(16) 0.0158 Uiso
Al2_5 Al 0.6798(4) -0.000 0.000 0.0158 Uiso
O16_5 O 0.750 0.000 0.125 0.0158 Uiso
H1_4 H 0.600451 0.0909282 0.450078 . .
O7_8 O 0.500 0.0653(14) 0.9997(16) 0.0158 Uiso
Al2_6 Al 0.6798(4) -0.000 1.000 0.0158 Uiso
O19_4 O 0.6773(5) 0.0897(4) 0.9842(10) 0.0158 Uiso
O22_5 O 0.750 -0.000 0.875 0.0158 Uiso
O8_8 O 0.500 0.9685(14) 0.053(2) 0.0158 Uiso
Al2_7 Al 0.6798(4) 1.000 0.000 0.0158 Uiso
O16_6 O 0.750 1.000 0.125 0.0158 Uiso
O20_4 O 0.6773(5) 0.9103(4) 0.0158(10) 0.0158 Uiso
O9_4 O 0.3877(4) 0.9947(4) 0.8857(9) 0.0158 Uiso
C6_4 C 0.3826(6) 0.9585(6) 0.7904(15) 0.0158 Uiso
O11_3 O 0.500 0.890(2) 0.3972(14) 0.0158 Uiso
C7_4 C 0.44307 0.9224(18) 0.5963(15) 0.0158 Uiso
C8_4 C 0.44279 0.9470(16) 0.7208(16) 0.0158 Uiso
C9_5 C 0.500 0.9557(15) 0.7872(17) 0.0158 Uiso
C10_5 C 0.500 0.9147(18) 0.5299(15) 0.0158 Uiso
O12_4 O 0.6123(4) 0.9947(4) 0.8857(9) 0.0158 Uiso
O13_4 O 0.6603(4) 0.9273(5) 0.7342(10) 0.0158 Uiso
C11_4 C 0.6174(6) 0.9585(6) 0.7904(15) 0.0158 Uiso
C12_4 C 0.55693 0.9224(18) 0.5963(15) 0.0158 Uiso
C13_4 C 0.55721 0.9470(16) 0.7208(16) 0.0158 Uiso
Al2_8 Al 0.6798(4) 1.000 1.000 0.0158 Uiso
O22_6 O 0.750 1.000 0.875 0.0158 Uiso
H2_6 H 0.399549 0.909072 0.549922 . .
H3_4 H 0.600451 0.909072 0.549922 . .
H4_8 H 0.5 0.969068 0.889225 . .
H2_7 H 0.399549 0.0909282 0.450078 . .
H4_9 H 0.5 0.0309323 0.110775 . .
O8_9 O 0.500 0.0315(14) 0.947(2) 0.0158 Uiso
O7_9 O 0.500 0.9347(14) 0.0003(16) 0.0158 Uiso
N1_7 N 0.39627 0.8999(19) 0.5184(14) 0.0158 Uiso
O5_7 O 0.38005 0.8441(19) 0.5137(12) 0.0158 Uiso
O6_5 O 0.3692 0.9416(19) 0.4570(16) 0.0158 Uiso
N2_9 N 0.500 0.9765(14) 0.9143(18) 0.0158 Uiso
H2_8 H 0.340928 0.850451 0.200078 . .
N1_8 N 0.1499(19) 0.85373 0.2684(14) 0.0158 Uiso
O5_8 O 0.0941(19) 0.86995 0.2637(12) 0.0158 Uiso
O6_6 O 0.1916(19) 0.8808 0.2070(16) 0.0158 Uiso
N2_10 N 0.2265(14) 0.750 0.6643(18) 0.0158 Uiso
O7_10 O 0.1847(14) 0.750 0.7503(16) 0.0158 Uiso
O8_10 O 0.2815(14) 0.750 0.697(2) 0.0158 Uiso
H4_10 H 0.280932 0.75 0.860775 . .
O2_3 O 0.6773(5) 0.5897(4) 0.0158(10) 0.0158 Uiso
O4_4 O 0.640(2) 0.750 0.3528(14) 0.0158 Uiso
C2_5 C 0.6724(18) 0.69307 0.1537(15) 0.0158 Uiso
C3_5 C 0.6970(16) 0.69279 0.0292(16) 0.0158 Uiso
C5_6 C 0.6647(18) 0.750 0.2201(15) 0.0158 Uiso
N1_9 N 0.6499(19) 0.64627 0.2316(14) 0.0158 Uiso
O5_9 O 0.5941(19) 0.63005 0.2363(12) 0.0158 Uiso
O6_7 O 0.6916(19) 0.6192 0.2930(16) 0.0158 Uiso
C15_5 C 0.6724(18) 0.80693 0.1537(15) 0.0158 Uiso
C16_5 C 0.6970(16) 0.80721 0.0292(16) 0.0158 Uiso
Al3_3 Al 0.6798(4) 0.500 0.000 0.0158 Uiso
H1_5 H 0.659072 0.850451 0.200078 . .
Al1_3 Al 0.750 0.5702(4) 0.750 0.0158 Uiso
O1_5 O 0.7447(4) 0.6377(4) 0.8643(9) 0.0158 Uiso
C1_5 C 0.7085(6) 0.6326(6) 0.9596(15) 0.0158 Uiso
O3_5 O 0.750 0.500 0.875 0.0158 Uiso
C4_6 C 0.7057(15) 0.750 0.9628(17) 0.0158 Uiso
N2_11 N 0.7265(14) 0.750 0.8357(18) 0.0158 Uiso
O7_11 O 0.6847(14) 0.750 0.7497(16) 0.0158 Uiso
O8_11 O 0.7815(14) 0.750 0.803(2) 0.0158 Uiso
O9_5 O 0.7553(4) 0.6377(4) 0.6357(9) 0.0158 Uiso
O10_3 O 0.8227(5) 0.5897(4) 0.4842(10) 0.0158 Uiso
C6_5 C 0.7915(6) 0.6326(6) 0.5404(15) 0.0158 Uiso
O11_4 O 0.860(2) 0.750 0.1472(14) 0.0158 Uiso
C7_5 C 0.8276(18) 0.69307 0.3463(15) 0.0158 Uiso
C8_5 C 0.8030(16) 0.69279 0.4708(16) 0.0158 Uiso
C9_6 C 0.7943(15) 0.750 0.5372(17) 0.0158 Uiso
C10_6 C 0.8353(18) 0.750 0.2799(15) 0.0158 Uiso
O12_5 O 0.7553(4) 0.8623(4) 0.6357(9) 0.0158 Uiso
C11_5 C 0.7915(6) 0.8674(6) 0.5404(15) 0.0158 Uiso
C12_5 C 0.8276(18) 0.80693 0.3463(15) 0.0158 Uiso
C13_5 C 0.8030(16) 0.80721 0.4708(16) 0.0158 Uiso
O14_5 O 0.7447(4) 0.8623(4) 0.8643(9) 0.0158 Uiso
C14_5 C 0.7085(6) 0.8674(6) 0.9596(15) 0.0158 Uiso
Al3_4 Al 0.6798(4) 0.500 1.000 0.0158 Uiso
Al4_5 Al 0.8202(4) 0.500 0.500 0.0158 Uiso
O17_3 O 0.6603(4) 0.5727(5) 0.7342(10) 0.0158 Uiso
O18_3 O 0.8397(4) 0.5727(5) 0.7658(10) 0.0158 Uiso
O21_5 O 0.750 0.500 0.625 0.0158 Uiso
H2_9 H 0.840928 0.649549 0.299922 . .
H3_5 H 0.840928 0.850451 0.299922 . .
H4_11 H 0.780932 0.75 0.639225 . .
Al1_4 Al 0.750 0.4298(4) 0.250 0.0158 Uiso
O1_6 O 0.7553(4) 0.3623(4) 0.3643(9) 0.0158 Uiso
O2_4 O 0.8227(5) 0.4103(4) 0.5158(10) 0.0158 Uiso
C1_6 C 0.7915(6) 0.3674(6) 0.4596(15) 0.0158 Uiso
O3_6 O 0.750 0.500 0.375 0.0158 Uiso
O4_5 O 0.860(2) 0.250 0.8528(14) 0.0158 Uiso
C2_6 C 0.8276(18) 0.30693 0.6537(15) 0.0158 Uiso
C3_6 C 0.8030(16) 0.30721 0.5292(16) 0.0158 Uiso
C4_7 C 0.7943(15) 0.250 0.4628(17) 0.0158 Uiso
C5_7 C 0.8353(18) 0.250 0.7201(15) 0.0158 Uiso
N1_10 N 0.8501(19) 0.35373 0.7316(14) 0.0158 Uiso
O5_10 O 0.9059(19) 0.36995 0.7363(12) 0.0158 Uiso
O6_8 O 0.8084(19) 0.3808 0.7930(16) 0.0158 Uiso
N2_12 N 0.7735(14) 0.250 0.3357(18) 0.0158 Uiso
O7_12 O 0.8153(14) 0.250 0.2497(16) 0.0158 Uiso
O8_12 O 0.7185(14) 0.250 0.303(2) 0.0158 Uiso
O9_6 O 0.7447(4) 0.3623(4) 0.1357(9) 0.0158 Uiso
C6_6 C 0.7085(6) 0.3674(6) 0.0404(15) 0.0158 Uiso
C9_7 C 0.7057(15) 0.250 0.0372(17) 0.0158 Uiso
O12_6 O 0.7447(4) 0.1377(4) 0.1357(9) 0.0158 Uiso
C11_6 C 0.7085(6) 0.1326(6) 0.0404(15) 0.0158 Uiso
O14_6 O 0.7553(4) 0.1377(4) 0.3643(9) 0.0158 Uiso
C14_6 C 0.7915(6) 0.1326(6) 0.4596(15) 0.0158 Uiso
C15_6 C 0.8276(18) 0.19307 0.6537(15) 0.0158 Uiso
C16_6 C 0.8030(16) 0.19279 0.5292(16) 0.0158 Uiso
O17_4 O 0.8397(4) 0.4273(5) 0.2342(10) 0.0158 Uiso
O18_4 O 0.6603(4) 0.4273(5) 0.2658(10) 0.0158 Uiso
O21_6 O 0.750 0.500 0.125 0.0158 Uiso
H1_6 H 0.840928 0.149549 0.700078 . .
H4_12 H 0.719068 0.25 0.139225 . .
O10_4 O 0.6773(5) 0.4103(4) 0.9842(10) 0.0158 Uiso
O11_5 O 0.640(2) 0.250 0.6472(14) 0.0158 Uiso
C7_6 C 0.6724(18) 0.30693 0.8463(15) 0.0158 Uiso
C8_6 C 0.6970(16) 0.30721 0.9708(16) 0.0158 Uiso
C10_7 C 0.6647(18) 0.250 0.7799(15) 0.0158 Uiso
C12_6 C 0.6724(18) 0.19307 0.8463(15) 0.0158 Uiso
C13_6 C 0.6970(16) 0.19279 0.9708(16) 0.0158 Uiso
H2_10 H 0.659072 0.350451 0.799922 . .
H3_6 H 0.659072 0.149549 0.799922 . .
H2_11 H 0.659072 0.649549 0.200078 . .
N1_11 N 0.8501(19) 0.64627 0.2684(14) 0.0158 Uiso
O5_11 O 0.9059(19) 0.63005 0.2637(12) 0.0158 Uiso
O6_9 O 0.8084(19) 0.6192 0.2070(16) 0.0158 Uiso
N2_13 N 0.7735(14) 0.750 0.6643(18) 0.0158 Uiso
O7_13 O 0.8153(14) 0.750 0.7503(16) 0.0158 Uiso
O8_13 O 0.7185(14) 0.750 0.697(2) 0.0158 Uiso
H4_13 H 0.719068 0.75 0.860775 . .
O7_14 O 0.500 0.5653(14) 0.0003(16) 0.0158 Uiso
O9_7 O 0.6123(4) 0.4947(4) 0.1143(9) 0.0158 Uiso
C6_7 C 0.6174(6) 0.4585(6) 0.2096(15) 0.0158 Uiso
O11_6 O 0.500 0.390(2) 0.6028(14) 0.0158 Uiso
C7_7 C 0.55693 0.4224(18) 0.4037(15) 0.0158 Uiso
C8_7 C 0.55721 0.4470(16) 0.2792(16) 0.0158 Uiso
C9_8 C 0.500 0.4557(15) 0.2128(17) 0.0158 Uiso
C10_8 C 0.500 0.4147(18) 0.4701(15) 0.0158 Uiso
O12_7 O 0.3877(4) 0.4947(4) 0.1143(9) 0.0158 Uiso
C11_7 C 0.3826(6) 0.4585(6) 0.2096(15) 0.0158 Uiso
C12_7 C 0.44307 0.4224(18) 0.4037(15) 0.0158 Uiso
C13_7 C 0.44279 0.4470(16) 0.2792(16) 0.0158 Uiso
H2_12 H 0.600451 0.409072 0.450078 . .
H3_7 H 0.399549 0.409072 0.450078 . .
H4_14 H 0.5 0.469068 0.110775 . .
O1_7 O 0.6123(4) 0.5053(4) 0.8857(9) 0.0158 Uiso
C1_7 C 0.6174(6) 0.5415(6) 0.7904(15) 0.0158 Uiso
O4_6 O 0.500 0.610(2) 0.3972(14) 0.0158 Uiso
C2_7 C 0.55693 0.5776(18) 0.5963(15) 0.0158 Uiso
C3_7 C 0.55721 0.5530(16) 0.7208(16) 0.0158 Uiso
C4_8 C 0.500 0.5443(15) 0.7872(17) 0.0158 Uiso
C5_8 C 0.500 0.5853(18) 0.5299(15) 0.0158 Uiso
N1_12 N 0.60373 0.6001(19) 0.5184(14) 0.0158 Uiso
O5_12 O 0.61995 0.6559(19) 0.5137(12) 0.0158 Uiso
O6_10 O 0.6308 0.5584(19) 0.4570(16) 0.0158 Uiso
N2_14 N 0.500 0.5235(14) 0.9143(18) 0.0158 Uiso
O8_14 O 0.500 0.4685(14) 0.947(2) 0.0158 Uiso
O14_7 O 0.3877(4) 0.5053(4) 0.8857(9) 0.0158 Uiso
C14_7 C 0.3826(6) 0.5415(6) 0.7904(15) 0.0158 Uiso
C15_7 C 0.44307 0.5776(18) 0.5963(15) 0.0158 Uiso
C16_7 C 0.44279 0.5530(16) 0.7208(16) 0.0158 Uiso
H1_7 H 0.399549 0.590928 0.549922 . .
N1_13 N 0.60373 0.3999(19) 0.4816(14) 0.0158 Uiso
O5_13 O 0.61995 0.3441(19) 0.4863(12) 0.0158 Uiso
O6_11 O 0.6308 0.4416(19) 0.5430(16) 0.0158 Uiso
N2_15 N 0.500 0.4765(14) 0.0857(18) 0.0158 Uiso
O8_15 O 0.500 0.5315(14) 0.053(2) 0.0158 Uiso
O7_15 O 0.500 0.4347(14) 0.9997(16) 0.0158 Uiso
H2_13 H 0.600451 0.590928 0.549922 . .
H4_15 H 0.5 0.530932 0.889225 . .
C4_9 C -0.000 0.5443(15) 0.7128(17) 0.0158 Uiso
C5_9 C 0.000 0.5853(18) 0.9701(15) 0.0158 Uiso
N2_16 N -0.000 0.5235(14) 0.5857(18) 0.0158 Uiso
O7_16 O 0.000 0.5653(14) 0.4997(16) 0.0158 Uiso
O8_16 O -0.000 0.4685(14) 0.553(2) 0.0158 Uiso
C9_9 C -0.000 0.4557(15) 0.2872(17) 0.0158 Uiso
C10_9 C -0.000 0.4147(18) 0.0299(15) 0.0158 Uiso
O12_8 O 0.1123(4) 0.4947(4) 0.3857(9) 0.0158 Uiso
C11_8 C 0.1174(6) 0.4585(6) 0.2904(15) 0.0158 Uiso
C12_8 C 0.05693 0.4224(18) 0.0963(15) 0.0158 Uiso
C13_8 C 0.05721 0.4470(16) 0.2208(16) 0.0158 Uiso
O14_8 O 0.1123(4) 0.5053(4) 0.6143(9) 0.0158 Uiso
C14_8 C 0.1174(6) 0.5415(6) 0.7096(15) 0.0158 Uiso
C15_8 C 0.05693 0.5776(18) 0.9037(15) 0.0158 Uiso
C16_8 C 0.05721 0.5530(16) 0.7792(16) 0.0158 Uiso
H1_8 H 0.100451 0.590928 0.950078 . .
H3_8 H 0.100451 0.409072 0.0499217 . .
H4_16 H 1.54074e-33 0.469068 0.389225 . .
O1_8 O 0.8877(4) 0.5053(4) 0.6143(9) 0.0158 Uiso
C1_8 C 0.8826(6) 0.5415(6) 0.7096(15) 0.0158 Uiso
C2_8 C 0.94307 0.5776(18) 0.9037(15) 0.0158 Uiso
C3_8 C 0.94279 0.5530(16) 0.7792(16) 0.0158 Uiso
C4_10 C 1.000 0.5443(15) 0.7128(17) 0.0158 Uiso
C5_10 C 1.000 0.5853(18) 0.9701(15) 0.0158 Uiso
N1_14 N 0.89627 0.6001(19) 0.9816(14) 0.0158 Uiso
O5_14 O 0.88005 0.6559(19) 0.9863(12) 0.0158 Uiso
N2_17 N 1.000 0.5235(14) 0.5857(18) 0.0158 Uiso
O7_17 O 1.000 0.5653(14) 0.4997(16) 0.0158 Uiso
O8_17 O 1.000 0.4685(14) 0.553(2) 0.0158 Uiso
O9_8 O 0.8877(4) 0.4947(4) 0.3857(9) 0.0158 Uiso
C6_8 C 0.8826(6) 0.4585(6) 0.2904(15) 0.0158 Uiso
C7_8 C 0.94307 0.4224(18) 0.0963(15) 0.0158 Uiso
C8_8 C 0.94279 0.4470(16) 0.2208(16) 0.0158 Uiso
C9_10 C 1.000 0.4557(15) 0.2872(17) 0.0158 Uiso
C10_10 C 1.000 0.4147(18) 0.0299(15) 0.0158 Uiso
H2_14 H 0.899549 0.409072 0.0499217 . .
H4_17 H 1 0.469068 0.389225 . .
N2_18 N 0.000 0.4765(14) 0.4143(18) 0.0158 Uiso
O7_18 O 0.000 0.4347(14) 0.5003(16) 0.0158 Uiso
O8_18 O -0.000 0.5315(14) 0.447(2) 0.0158 Uiso
H4_18 H 3.08149e-33 0.530932 0.610775 . .
N1_15 N 0.89627 0.3999(19) 0.0184(14) 0.0158 Uiso
O5_15 O 0.88005 0.3441(19) 0.0137(12) 0.0158 Uiso
N2_19 N 1.000 0.4765(14) 0.4143(18) 0.0158 Uiso
O7_19 O 1.000 0.4347(14) 0.5003(16) 0.0158 Uiso
O8_19 O 1.000 0.5315(14) 0.447(2) 0.0158 Uiso
H2_15 H 0.899549 0.590928 0.950078 . .
H4_19 H 1 0.530932 0.610775 . .
N2_20 N 0.7265(14) 0.250 0.1643(18) 0.0158 Uiso
O7_20 O 0.6847(14) 0.250 0.2503(16) 0.0158 Uiso
O8_20 O 0.7815(14) 0.250 0.197(2) 0.0158 Uiso
H2_16 H 0.840928 0.350451 0.700078 . .
H4_20 H 0.780932 0.25 0.360775 . .
N1_16 N 0.6499(19) 0.35373 0.7684(14) 0.0158 Uiso
O5_16 O 0.5941(19) 0.36995 0.7637(12) 0.0158 Uiso
O6_12 O 0.6916(19) 0.3808 0.7070(16) 0.0158 Uiso
N1_17 N 0.8501(19) 0.85373 0.2684(14) 0.0158 Uiso
O5_17 O 0.9059(19) 0.86995 0.2637(12) 0.0158 Uiso
O6_13 O 0.8084(19) 0.8808 0.2070(16) 0.0158 Uiso
N1_18 N 0.6499(19) 0.14627 0.7684(14) 0.0158 Uiso
O5_18 O 0.5941(19) 0.13005 0.7637(12) 0.0158 Uiso
O6_14 O 0.6916(19) 0.1192 0.7070(16) 0.0158 Uiso
N1_19 N 0.6499(19) 0.85373 0.2316(14) 0.0158 Uiso
O5_19 O 0.5941(19) 0.86995 0.2363(12) 0.0158 Uiso
O6_15 O 0.6916(19) 0.8808 0.2930(16) 0.0158 Uiso
N1_20 N 0.89627 0.8999(19) 0.9816(14) 0.0158 Uiso
O5_20 O 0.88005 0.8441(19) 0.9863(12) 0.0158 Uiso
N1_21 N 0.89627 0.1001(19) 0.0184(14) 0.0158 Uiso
O5_21 O 0.88005 0.1559(19) 0.0137(12) 0.0158 Uiso
N1_22 N 0.60373 0.8999(19) 0.5184(14) 0.0158 Uiso
O5_22 O 0.61995 0.8441(19) 0.5137(12) 0.0158 Uiso
O6_16 O 0.6308 0.9416(19) 0.4570(16) 0.0158 Uiso
N1_23 N 0.60373 0.1001(19) 0.4816(14) 0.0158 Uiso
O5_23 O 0.61995 0.1559(19) 0.4863(12) 0.0158 Uiso
O6_17 O 0.6308 0.0584(19) 0.5430(16) 0.0158 Uiso
N1_24 N 0.8501(19) 0.14627 0.7316(14) 0.0158 Uiso
O5_24 O 0.9059(19) 0.13005 0.7363(12) 0.0158 Uiso
O6_18 O 0.8084(19) 0.1192 0.7930(16) 0.0158 Uiso
N1_25 N 0.3501(19) 0.35373 0.7684(14) 0.0158 Uiso
O5_25 O 0.4059(19) 0.36995 0.7637(12) 0.0158 Uiso
O6_19 O 0.3084(19) 0.3808 0.7070(16) 0.0158 Uiso
N1_26 N 0.1499(19) 0.64627 0.2684(14) 0.0158 Uiso
O5_26 O 0.0941(19) 0.63005 0.2637(12) 0.0158 Uiso
O6_20 O 0.1916(19) 0.6192 0.2070(16) 0.0158 Uiso
N1_27 N 0.1499(19) 0.35373 0.7316(14) 0.0158 Uiso
O5_27 O 0.0941(19) 0.36995 0.7363(12) 0.0158 Uiso
O6_21 O 0.1916(19) 0.3808 0.7930(16) 0.0158 Uiso
N1_28 N 0.39627 0.3999(19) 0.4816(14) 0.0158 Uiso
O5_28 O 0.38005 0.3441(19) 0.4863(12) 0.0158 Uiso
O6_22 O 0.3692 0.4416(19) 0.5430(16) 0.0158 Uiso
N1_29 N 0.39627 0.6001(19) 0.5184(14) 0.0158 Uiso
O5_29 O 0.38005 0.6559(19) 0.5137(12) 0.0158 Uiso
O6_23 O 0.3692 0.5584(19) 0.4570(16) 0.0158 Uiso
N1_30 N 0.10373 0.3999(19) 0.0184(14) 0.0158 Uiso
O5_30 O 0.11995 0.3441(19) 0.0137(12) 0.0158 Uiso
N1_31 N 0.10373 0.6001(19) 0.9816(14) 0.0158 Uiso
O5_31 O 0.11995 0.6559(19) 0.9863(12) 0.0158 Uiso
N1_32 N 0.3501(19) 0.64627 0.2316(14) 0.0158 Uiso
O5_32 O 0.4059(19) 0.63005 0.2363(12) 0.0158 Uiso
O6_24 O 0.3084(19) 0.6192 0.2930(16) 0.0158 Uiso
O4_7 O -0.000 0.110(2) 0.8972(14) 0.0158 Uiso
O6_25 O 0.1308 0.0584(19) 0.9570(16) 0.0158 Uiso
O11_7 O -0.000 0.890(2) 0.1028(14) 0.0158 Uiso
O6_26 O 0.1308 0.9416(19) 0.0430(16) 0.0158 Uiso
O4_8 O 1.000 0.110(2) 0.8972(14) 0.0158 Uiso
O6_27 O 0.8692 0.0584(19) 0.9570(16) 0.0158 Uiso
O11_8 O 1.000 0.890(2) 0.1028(14) 0.0158 Uiso
O6_28 O 0.8692 0.9416(19) 0.0430(16) 0.0158 Uiso
O4_9 O 0.000 0.610(2) 0.1028(14) 0.0158 Uiso
O6_29 O 0.1308 0.5584(19) 0.0430(16) 0.0158 Uiso
O11_9 O -0.000 0.390(2) 0.8972(14) 0.0158 Uiso
O6_30 O 0.1308 0.4416(19) 0.9570(16) 0.0158 Uiso
O4_10 O 1.000 0.610(2) 0.1028(14) 0.0158 Uiso
O6_31 O 0.8692 0.5584(19) 0.0430(16) 0.0158 Uiso
O11_10 O 1.000 0.390(2) 0.8972(14) 0.0158 Uiso
O6_32 O 0.8692 0.4416(19) 0.9570(16) 0.0158 Uiso
loop_
_geom_bond_atom_site_label_1
_geom_bond_atom_site_label_2
_geom_bond_site_symmetry_1
_geom_bond_site_symmetry_2
Al1 O1 1_555 1_555
O1 C1 1_555 1_555
O2 C1 1_555 1_555
C1 C3 1_555 1_555
O3 Al1 1_555 1_555
O4 C5 1_555 1_555
C2 C3 1_555 1_555
C3 C4 1_555 1_555
C4 N2 1_555 1_555
C5 C2 1_555 1_555
N1 C2 1_555 1_555
O5 N1 1_555 1_555
O6 N1 1_555 1_555
N2 O7 1_555 1_555
O8 N2 1_555 1_555
O9 Al1 1_555 1_555
C6 O9 1_555 1_555
O12 C11 1_555 1_555
O14 C14 1_555 1_555
O15 C14 1_555 1_555
C14 C16 1_555 1_555
C15 C5 1_555 1_555
C16 C4 1_555 1_555
Al2 O12 1_555 1_555
O16 Al2 1_555 1_555
Al3 O2 1_555 1_555
Al5 O15 1_555 1_555
O17 Al1 1_555 1_555
O18 Al1 1_555 1_555
O19 Al2 1_555 1_555
O20 Al2 1_555 1_555
O21 Al1 1_555 1_555
O22 Al2 1_555 1_555
O3 Al3 1_555 1_555
O14 Al2 1_555 1_555
C15 C16 1_555 1_555
O16 Al5 1_555 1_555
Al4 O21 1_555 1_555
Al6 O22 1_555 1_555
C15 H1 1_555 1_555
C9 H4 1_555 1_555
O11 C10 1_555 1_555
C7 C8 1_555 1_555
C10 C7 1_555 1_555
C12 C10 1_555 1_555
Al4_2 O10 1_555 1_555
Al6_2 O13 1_555 1_555
C12 C13 1_555 1_555
C7 H2 1_555 1_555
C12 H3 1_555 1_555
O3_2 Al3_2 1_555 1_555
Al4_3 O21_2 1_555 1_555
O3_3 Al4_2 1_555 1_555
Al3 O21_3 1_555 1_555
O4_2 C5_2 1_555 1_555
C2_2 C3_2 1_555 1_555
C5_2 C2_2 1_555 1_555
N1_2 C2_2 1_555 1_555
O5_2 N1_2 1_555 1_555
O6_2 N1_2 1_555 1_555
C15_2 C5_2 1_555 1_555
Al4_3 O2_2 1_555 1_555
Al6 O15_2 1_555 1_555
C15_2 C16_2 1_555 1_555
C15_2 H1_2 1_555 1_555
Al1_2 O1_2 1_555 1_555
O1_2 C1_2 1_555 1_555
O3_4 Al1_2 1_555 1_555
C4_2 N2_2 1_555 1_555
N2_2 O7_2 1_555 1_555
O8_2 N2_2 1_555 1_555
O9_2 Al1_2 1_555 1_555
O10_2 C6_2 1_555 1_555
C6_2 O9_2 1_555 1_555
O11_2 C10_2 1_555 1_555
C7_2 C8_2 1_555 1_555
C8_2 C6_2 1_555 1_555
C9_2 C8_2 1_555 1_555
C10_2 C7_2 1_555 1_555
O12_2 C11_2 1_555 1_555
O13_2 C11_2 1_555 1_555
C11_2 C13_2 1_555 1_555
C12_2 C10_2 1_555 1_555
C13_2 C9_2 1_555 1_555
O14_2 C14_2 1_555 1_555
Al2_2 O12_2 1_555 1_555
O16_2 Al2_2 1_555 1_555
Al3_2 O10_2 1_555 1_555
Al5 O13_2 1_555 1_555
O17_2 Al1_2 1_555 1_555
O18_2 Al1_2 1_555 1_555
O19_2 Al2_2 1_555 1_555
O20_2 Al2_2 1_555 1_555
O21_4 Al1_2 1_555 1_555
O22_2 Al2_2 1_555 1_555
O3_4 Al4_4 1_555 1_555
C12_2 C13_2 1_555 1_555
O14_2 Al2_2 1_555 1_555
O16_2 Al6_2 1_555 1_555
Al3_2 O21_4 1_555 1_555
Al5 O22_2 1_555 1_555
C7_2 H2_2 1_555 1_555
C12_2 H3_2 1_555 1_555
C9_2 H4_2 1_555 1_555
C9 N2_3 1_555 1_555
N2_3 O7_3 1_555 1_555
O8_3 N2_3 1_555 1_555
C2 H2_3 1_555 1_555
C4 H4_3 1_555 1_555
N1_3 C7 1_555 1_555
O5_3 N1_3 1_555 1_555
O6_3 N1_3 1_555 1_555
Al3 O1_3 1_555 1_555
O1_3 C1_3 1_555 1_555
O17 C1_3 1_555 1_555
C1_3 C3_3 1_555 1_555
C2_3 C3_3 1_555 1_555
C3_3 C4_3 1_555 1_555
C4_3 N2_4 1_555 1_555
C5_3 C2_3 1_555 1_555
N1_4 C2_3 1_555 1_555
O5_4 N1_4 1_555 1_555
N2_4 O7_4 1_555 1_555
O9_3 Al3_2 1_555 1_555
O18_2 C6_3 1_555 1_555
C6_3 O9_3 1_555 1_555
C7_3 C8_3 1_555 1_555
C8_3 C6_3 1_555 1_555
C9_3 C8_3 1_555 1_555
C10_3 C7_3 1_555 1_555
C7_3 H2_4 1_555 1_555
C9_3 H4_4 1_555 1_555
C4_4 N2_5 1_555 1_555
N2_5 O7_5 1_555 1_555
O14_3 C14_3 1_555 1_555
O15_3 C14_3 1_555 1_555
C14_3 C16_3 1_555 1_555
C15_3 C5_4 1_555 1_555
C16_3 C4_4 1_555 1_555
O16_3 Al2_3 1_555 1_555
Al5_2 O15_3 1_555 1_555
O19_3 Al2_3 1_555 1_555
O22_3 Al2_3 1_555 1_555
O14_3 Al2_3 1_555 1_555
C15_3 C16_3 1_555 1_555
O16_3 Al5_2 1_555 1_555
C15_3 H1_3 1_555 1_555
O12_3 C11_3 1_555 1_555
O13_3 C11_3 1_555 1_555
C11_3 C13_3 1_555 1_555
C12_3 C10_4 1_555 1_555
C13_3 C9_4 1_555 1_555
Al2_4 O12_3 1_555 1_555
O16_4 Al2_4 1_555 1_555
Al6_3 O13_3 1_555 1_555
O20_3 Al2_4 1_555 1_555
O22_4 Al2_4 1_555 1_555
C12_3 C13_3 1_555 1_555
Al6_3 O22_4 1_555 1_555
C12_3 H3_3 1_555 1_555
C9_4 H4_5 1_555 1_555
C2_3 H2_5 1_555 1_555
C4_3 H4_6 1_555 1_555
C9_3 N2_6 1_555 1_555
N1_5 C7_3 1_555 1_555
O5_5 N1_5 1_555 1_555
N2_6 O7_6 1_555 1_555
C4_4 H4_7 1_555 1_555
C9_4 N2_7 1_555 1_555
N2_7 O7_7 1_555 1_555
Al4 O1_4 1_555 1_555
O1_4 C1_4 1_555 1_555
O18 C1_4 1_555 1_555
C1_4 C3_4 1_555 1_555
O4_3 C5_5 1_555 1_555
C2_4 C3_4 1_555 1_555
C3_4 C4_5 1_555 1_555
C4_5 N2_8 1_555 1_555
C5_5 C2_4 1_555 1_555
N1_6 C2_4 1_555 1_555
O5_6 N1_6 1_555 1_555
O6_4 N1_6 1_555 1_555
O14_4 C14_4 1_555 1_555
O15_4 C14_4 1_555 1_555
C14_4 C16_4 1_555 1_555
C15_4 C5_5 1_555 1_555
C16_4 C4_5 1_555 1_555
O16_5 Al2_5 1_555 1_555
Al5_2 O15_4 1_555 1_555
O14_4 Al2_5 1_555 1_555
C15_4 C16_4 1_555 1_555
O16_5 Al5_2 1_555 1_555
C15_4 H1_4 1_555 1_555
O19_4 Al2_6 1_555 1_555
O22_5 Al2_6 1_555 1_555
O16_6 Al2_7 1_555 1_555
O20_4 Al2_7 1_555 1_555
O9_4 Al4_4 1_555 1_555
O17_2 C6_4 1_555 1_555
C6_4 O9_4 1_555 1_555
O11_3 C10_5 1_555 1_555
C7_4 C8_4 1_555 1_555
C8_4 C6_4 1_555 1_555
C9_5 C8_4 1_555 1_555
C10_5 C7_4 1_555 1_555
O12_4 C11_4 1_555 1_555
O13_4 C11_4 1_555 1_555
C11_4 C13_4 1_555 1_555
C12_4 C10_5 1_555 1_555
C13_4 C9_5 1_555 1_555
Al2_8 O12_4 1_555 1_555
Al6_3 O13_4 1_555 1_555
O22_6 Al2_8 1_555 1_555
C12_4 C13_4 1_555 1_555
Al6_3 O22_6 1_555 1_555
C7_4 H2_6 1_555 1_555
C12_4 H3_4 1_555 1_555
C9_5 H4_8 1_555 1_555
C2_4 H2_7 1_555 1_555
C4_5 H4_9 1_555 1_555
C9_5 N2_9 1_555 1_555
N1_7 C7_4 1_555 1_555
O5_7 N1_7 1_555 1_555
O6_5 N1_7 1_555 1_555
C2_2 H2_8 1_555 1_555
C9_2 N2_10 1_555 1_555
N1_8 C7_2 1_555 1_555
O5_8 N1_8 1_555 1_555
O6_6 N1_8 1_555 1_555
N2_10 O7_10 1_555 1_555
O8_10 N2_10 1_555 1_555
C4_2 H4_10 1_555 1_555
O4_4 C5_6 1_555 1_555
C2_5 C3_5 1_555 1_555
C5_6 C2_5 1_555 1_555
N1_9 C2_5 1_555 1_555
O5_9 N1_9 1_555 1_555
O6_7 N1_9 1_555 1_555
C15_5 C5_6 1_555 1_555
Al3_3 O2_3 1_555 1_555
C15_5 C16_5 1_555 1_555
C15_5 H1_5 1_555 1_555
Al1_3 O1_5 1_555 1_555
O1_5 C1_5 1_555 1_555
O3_5 Al1_3 1_555 1_555
C4_6 N2_11 1_555 1_555
N2_11 O7_11 1_555 1_555
O8_11 N2_11 1_555 1_555
O9_5 Al1_3 1_555 1_555
O10_3 C6_5 1_555 1_555
C6_5 O9_5 1_555 1_555
O11_4 C10_6 1_555 1_555
C7_5 C8_5 1_555 1_555
C8_5 C6_5 1_555 1_555
C9_6 C8_5 1_555 1_555
C10_6 C7_5 1_555 1_555
O12_5 C11_5 1_555 1_555
O20_3 C11_5 1_555 1_555
C11_5 C13_5 1_555 1_555
C12_5 C10_6 1_555 1_555
C13_5 C9_6 1_555 1_555
O14_5 C14_5 1_555 1_555
Al6_3 O12_5 1_555 1_555
Al4_5 O10_3 1_555 1_555
O17_3 Al1_3 1_555 1_555
O18_3 Al1_3 1_555 1_555
O21_5 Al1_3 1_555 1_555
O3_5 Al3_4 1_555 1_555
C12_5 C13_5 1_555 1_555
O14_5 Al6_3 1_555 1_555
Al4_5 O21_5 1_555 1_555
C7_5 H2_9 1_555 1_555
C12_5 H3_5 1_555 1_555
C9_6 H4_11 1_555 1_555
Al1_4 O1_6 1_555 1_555
O1_6 C1_6 1_555 1_555
O2_4 C1_6 1_555 1_555
C1_6 C3_6 1_555 1_555
O3_6 Al1_4 1_555 1_555
O4_5 C5_7 1_555 1_555
C2_6 C3_6 1_555 1_555
C3_6 C4_7 1_555 1_555
C4_7 N2_12 1_555 1_555
C5_7 C2_6 1_555 1_555
N1_10 C2_6 1_555 1_555
O5_10 N1_10 1_555 1_555
O6_8 N1_10 1_555 1_555
N2_12 O7_12 1_555 1_555
O8_12 N2_12 1_555 1_555
O9_6 Al1_4 1_555 1_555
C6_6 O9_6 1_555 1_555
O12_6 C11_6 1_555 1_555
O14_6 C14_6 1_555 1_555
O19_3 C14_6 1_555 1_555
C14_6 C16_6 1_555 1_555
C15_6 C5_7 1_555 1_555
C16_6 C4_7 1_555 1_555
Al5_2 O12_6 1_555 1_555
Al4_5 O2_4 1_555 1_555
O17_4 Al1_4 1_555 1_555
O18_4 Al1_4 1_555 1_555
O21_6 Al1_4 1_555 1_555
O3_6 Al4_5 1_555 1_555
O14_6 Al5_2 1_555 1_555
C15_6 C16_6 1_555 1_555
Al3_3 O21_6 1_555 1_555
C15_6 H1_6 1_555 1_555
C9_7 H4_12 1_555 1_555
O11_5 C10_7 1_555 1_555
C7_6 C8_6 1_555 1_555
C10_7 C7_6 1_555 1_555
C12_6 C10_7 1_555 1_555
Al3_4 O10_4 1_555 1_555
C12_6 C13_6 1_555 1_555
C7_6 H2_10 1_555 1_555
C12_6 H3_6 1_555 1_555
C2_5 H2_11 1_555 1_555
C9_6 N2_13 1_555 1_555
N1_11 C7_5 1_555 1_555
O5_11 N1_11 1_555 1_555
O6_9 N1_11 1_555 1_555
N2_13 O7_13 1_555 1_555
O8_13 N2_13 1_555 1_555
C4_6 H4_13 1_555 1_555
O9_7 Al3_3 1_555 1_555
O18_4 C6_7 1_555 1_555
C6_7 O9_7 1_555 1_555
O11_6 C10_8 1_555 1_555
C7_7 C8_7 1_555 1_555
C8_7 C6_7 1_555 1_555
C9_8 C8_7 1_555 1_555
C10_8 C7_7 1_555 1_555
O12_7 C11_7 1_555 1_555
O20 C11_7 1_555 1_555
C11_7 C13_7 1_555 1_555
C12_7 C10_8 1_555 1_555
C13_7 C9_8 1_555 1_555
Al6 O12_7 1_555 1_555
C12_7 C13_7 1_555 1_555
C7_7 H2_12 1_555 1_555
C12_7 H3_7 1_555 1_555
C9_8 H4_14 1_555 1_555
Al3_4 O1_7 1_555 1_555
O1_7 C1_7 1_555 1_555
O17_3 C1_7 1_555 1_555
C1_7 C3_7 1_555 1_555
O4_6 C5_8 1_555 1_555
C2_7 C3_7 1_555 1_555
C3_7 C4_8 1_555 1_555
C4_8 N2_14 1_555 1_555
C5_8 C2_7 1_555 1_555
N1_12 C2_7 1_555 1_555
O5_12 N1_12 1_555 1_555
O6_10 N1_12 1_555 1_555
O8_14 N2_14 1_555 1_555
O14_7 C14_7 1_555 1_555
O19_2 C14_7 1_555 1_555
C14_7 C16_7 1_555 1_555
C15_7 C5_8 1_555 1_555
C16_7 C4_8 1_555 1_555
O14_7 Al6_2 1_555 1_555
C15_7 C16_7 1_555 1_555
C15_7 H1_7 1_555 1_555
C9_8 N2_15 1_555 1_555
N1_13 C7_7 1_555 1_555
O5_13 N1_13 1_555 1_555
O6_11 N1_13 1_555 1_555
O8_15 N2_15 1_555 1_555
C2_7 H2_13 1_555 1_555
C4_8 H4_15 1_555 1_555
C4_9 N2_16 1_555 1_555
N2_16 O7_16 1_555 1_555
O8_16 N2_16 1_555 1_555
O12_8 C11_8 1_555 1_555
O19 C11_8 1_555 1_555
C11_8 C13_8 1_555 1_555
C12_8 C10_9 1_555 1_555
C13_8 C9_9 1_555 1_555
O14_8 C14_8 1_555 1_555
O20_2 C14_8 1_555 1_555
C14_8 C16_8 1_555 1_555
C15_8 C5_9 1_555 1_555
C16_8 C4_9 1_555 1_555
Al5 O12_8 1_555 1_555
C12_8 C13_8 1_555 1_555
O14_8 Al5 1_555 1_555
C15_8 C16_8 1_555 1_555
C15_8 H1_8 1_555 1_555
C12_8 H3_8 1_555 1_555
C9_9 H4_16 1_555 1_555
Al4_5 O1_8 1_555 1_555
O1_8 C1_8 1_555 1_555
O18_3 C1_8 1_555 1_555
C1_8 C3_8 1_555 1_555
C2_8 C3_8 1_555 1_555
C3_8 C4_10 1_555 1_555
C4_10 N2_17 1_555 1_555
C5_10 C2_8 1_555 1_555
N1_14 C2_8 1_555 1_555
O5_14 N1_14 1_555 1_555
N2_17 O7_17 1_555 1_555
O8_17 N2_17 1_555 1_555
O9_8 Al4_5 1_555 1_555
O17_4 C6_8 1_555 1_555
C6_8 O9_8 1_555 1_555
C7_8 C8_8 1_555 1_555
C8_8 C6_8 1_555 1_555
C9_10 C8_8 1_555 1_555
C10_10 C7_8 1_555 1_555
C7_8 H2_14 1_555 1_555
C9_10 H4_17 1_555 1_555
C9_9 N2_18 1_555 1_555
N2_18 O7_18 1_555 1_555
O8_18 N2_18 1_555 1_555
C4_9 H4_18 1_555 1_555
C9_10 N2_19 1_555 1_555
N1_15 C7_8 1_555 1_555
O5_15 N1_15 1_555 1_555
N2_19 O7_19 1_555 1_555
O8_19 N2_19 1_555 1_555
C2_8 H2_15 1_555 1_555
C4_10 H4_19 1_555 1_555
C9_7 N2_20 1_555 1_555
N2_20 O7_20 1_555 1_555
O8_20 N2_20 1_555 1_555
C2_6 H2_16 1_555 1_555
C4_7 H4_20 1_555 1_555
N1_16 C7_6 1_555 1_555
O5_16 N1_16 1_555 1_555
O6_12 N1_16 1_555 1_555
N1_17 C12_5 1_555 1_555
O5_17 N1_17 1_555 1_555
O6_13 N1_17 1_555 1_555
N1_18 C12_6 1_555 1_555
O5_18 N1_18 1_555 1_555
O6_14 N1_18 1_555 1_555
N1_19 C15_5 1_555 1_555
O5_19 N1_19 1_555 1_555
O6_15 N1_19 1_555 1_555
N1_20 C12_3 1_555 1_555
O5_20 N1_20 1_555 1_555
N1_21 C15_3 1_555 1_555
O5_21 N1_21 1_555 1_555
N1_22 C12_4 1_555 1_555
O5_22 N1_22 1_555 1_555
O6_16 N1_22 1_555 1_555
N1_23 C15_4 1_555 1_555
O5_23 N1_23 1_555 1_555
O6_17 N1_23 1_555 1_555
N1_24 C15_6 1_555 1_555
O5_24 N1_24 1_555 1_555
O6_18 N1_24 1_555 1_555
N1_25 C12 1_555 1_555
O5_25 N1_25 1_555 1_555
O6_19 N1_25 1_555 1_555
N1_26 C12_2 1_555 1_555
O5_26 N1_26 1_555 1_555
O6_20 N1_26 1_555 1_555
N1_27 C15 1_555 1_555
O5_27 N1_27 1_555 1_555
O6_21 N1_27 1_555 1_555
N1_28 C12_7 1_555 1_555
O5_28 N1_28 1_555 1_555
O6_22 N1_28 1_555 1_555
N1_29 C15_7 1_555 1_555
O5_29 N1_29 1_555 1_555
O6_23 N1_29 1_555 1_555
N1_30 C12_8 1_555 1_555
O5_30 N1_30 1_555 1_555
N1_31 C15_8 1_555 1_555
O5_31 N1_31 1_555 1_555
N1_32 C15_2 1_555 1_555
O5_32 N1_32 1_555 1_555
O6_24 N1_32 1_555 1_555

#END
