
###############################################################################
#
# This file contains modified crystal structure data generated from the
# MOF subset of the Cambridge Structural Database (CSD) v543 
# hosted by the Cambridge Crystallographic Data Centre (CCDC).
#
# This work is licensed under the Creative Commons
# Attribution-NonCommercial-ShareAlike 4.0 International License.
# To view a copy of this license, visit
# http://creativecommons.org/licenses/by-nc-sa/4.0/
# or send a letter to
# Creative Commons, PO Box 1866, Mountain View, CA 94042, USA.
#
# CIF created using the CSD Python API on 29 September 2022
# The structure has been converted into the P1 space group
# The structure has a 3D framework
# The original CSD entry INOMIJ is in the orthorhombic crystal system
# The framework has been calculated to contain at least 10.0% void space
# The void calculation uses a probe of radius 1.32A, grid spacing 0.4
#
###############################################################################

data_INOMIJ
_chemical_formula_moiety         '(C80 H96 Ca8 N8 O42 S8)n'
_symmetry_cell_setting           triclinic
_symmetry_space_group_name_H-M   'P 1'
_symmetry_Int_Tables_number      1
_space_group_name_Hall           'P 1'
loop_
_symmetry_equiv_pos_site_id
_symmetry_equiv_pos_as_xyz
1 x,y,z
_cell_length_a                   22.6505(6)
_cell_length_b                   11.2352(3)
_cell_length_c                   12.7961(3)
_cell_angle_alpha                90
_cell_angle_beta                 90
_cell_angle_gamma                90
_cell_volume                     3256.39
loop_
_atom_site_label
_atom_site_type_symbol
_atom_site_fract_x
_atom_site_fract_y
_atom_site_fract_z
S1 S 0.50879(5) 0.03255(10) 0.22685(8)
O3 O 0.50929(16) 0.2907(3) 0.2528(2)
O8 O 0.52925(14) 0.2987(3) 0.4228(2)
C8 C 0.5209(2) 0.1096(4) 0.3413(3)
C12 C 0.5234(2) 0.0349(4) 0.4261(4)
H9 H 0.5301 0.0612 0.4957
C13 C 0.5207(2) 0.2415(4) 0.3381(4)
Ca3 Ca 0.56595(3) 0.37790(8) 0.57690(7)
Ca5 Ca 0.50857(3) 0.49376(7) 0.31274(7)
Ca1 Ca 0.43405(3) 0.62210(8) 0.07690(7)
S2 S 0.27489(4) 0.48743(12) 0.40768(9)
C1 C 0.2830(2) 0.4997(5) 0.2079(4)
H1 H 0.2985 0.5028 0.1389
C2 C 0.22239(19) 0.5095(4) 0.2317(4)
H2 H 0.1925 0.5179 0.1801
O2 O 0.41051(12) 0.4961(3) 0.2170(2)
C3 C 0.49555(19) 0.7862(4) 0.2357(4)
C4 C 0.38205(18) 0.4735(4) 0.2995(3)
O4 O 0.49504(14) 0.7899(3) 0.1369(2)
O5 O 0.48640(16) 0.6948(3) 0.2893(3)
O6 O 0.53030(13) 0.5232(3) 0.1296(2)
C5 C 0.31680(18) 0.4851(4) 0.2953(3)
O7 O 0.40658(12) 0.4433(3) 0.3832(2)
O9 O 0.10931(13) 0.4948(3) 0.3266(3)
O10 O 0.14891(13) 0.5485(3) 0.4803(2)
O11 O 0.36387(14) 0.7545(3) 0.1434(3)
C6 C 0.50683(19) 0.8993(4) 0.2930(4)
C7 C 0.21089(18) 0.5059(4) 0.3367(3)
C9 C 0.2658(3) 0.7844(5) 0.0663(5)
H3 H 0.2574 0.8660 0.0438
H4 H 0.2293 0.7467 0.0908
H5 H 0.2818 0.7391 0.0073
N1 N 0.2923(2) 0.8261(5) 0.2461(4)
C10 C 0.15150(18) 0.5174(5) 0.3861(3)
C11 C 0.3346(3) 0.8236(6) 0.3339(5)
H6 H 0.3257 0.7558 0.3794
H7 H 0.3314 0.8977 0.3739
H8 H 0.3748 0.8157 0.3065
C14 C 0.5148(2) 0.9145(4) 0.3985(4)
H10 H 0.5146 0.8510 0.4475
C15 C 0.3126(3) 0.7866(6) 0.1581(5)
C16 C 0.2294(3) 0.8577(6) 0.2641(6)
H11 H 0.2074 0.7862 0.2842
H12 H 0.2126 0.8907 0.1997
H13 H 0.2268 0.9169 0.3201
C17 C 0.52744(17) 0.4474(4) 0.0566(3)
C18 C 0.5742(2) 0.3529(4) 0.0465(4)
H14 H 0.6127 0.3864 0.0656
H16 H 0.5648 0.2864 0.0931
Ca4 Ca 0.06595(3) 0.62210(8) 0.57690(7)
Ca7 Ca 0.00857(3) 0.50624(7) 0.31274(7)
O12 O 0.51490(13) 0.5507(3) 0.4920(2)
O16 O 0.60931(13) 0.5052(3) 0.3266(3)
O1 O 0.48510(13) 0.4493(3) 0.9920(2)
H15 H 0.5755 0.3244 0.9741
Ca6 Ca 0.49143(3) 0.50624(7) 0.81274(7)
O15 O 0.47075(14) 0.7013(3) 0.9228(2)
O17 O 0.35109(13) 0.5485(3) 0.9803(2)
Ca4_2 Ca 0.93405(3) 0.37790(8) 0.07690(7)
S2_2 S 0.72511(4) 0.51257(12) 0.90768(9)
C1_2 C 0.7170(2) 0.5003(5) 0.7079(4)
H1_2 H 0.7015 0.4972 0.6389
C2_2 C 0.77761(19) 0.4905(4) 0.7317(4)
H2_2 H 0.8075 0.4821 0.6801
O2_2 O 0.58949(12) 0.5039(3) 0.7170(2)
C3_2 C 0.50445(19) 0.2138(4) 0.7357(4)
C4_2 C 0.61795(18) 0.5265(4) 0.7995(3)
O4_2 O 0.50496(14) 0.2101(3) 0.6369(2)
O5_2 O 0.51360(16) 0.3052(3) 0.7893(3)
O6_2 O 0.46970(13) 0.4768(3) 0.6296(2)
C5_2 C 0.68320(18) 0.5149(4) 0.7953(3)
O7_2 O 0.59342(12) 0.5567(3) 0.8832(2)
O9_2 O 0.89069(13) 0.5052(3) 0.8266(3)
O10_2 O 0.85109(13) 0.4515(3) 0.9803(2)
O11_2 O 0.63613(14) 0.2455(3) 0.6434(3)
C6_2 C 0.49317(19) 0.1007(4) 0.7930(4)
C7_2 C 0.78911(18) 0.4941(4) 0.8367(3)
C9_2 C 0.7342(3) 0.2156(5) 0.5663(5)
H3_2 H 0.7426 0.1340 0.5438
H4_2 H 0.7707 0.2533 0.5908
H5_2 H 0.7182 0.2609 0.5073
N1_2 N 0.7077(2) 0.1739(5) 0.7461(4)
C10_2 C 0.84850(18) 0.4826(5) 0.8861(3)
C11_2 C 0.6654(3) 0.1764(6) 0.8339(5)
H6_2 H 0.6743 0.2442 0.8794
H7_2 H 0.6686 0.1023 0.8739
H8_2 H 0.6252 0.1843 0.8065
C14_2 C 0.4852(2) 0.0855(4) 0.8985(4)
H10_2 H 0.4854 0.1490 0.9475
C15_2 C 0.6874(3) 0.2134(6) 0.6581(5)
C16_2 C 0.7706(3) 0.1423(6) 0.7641(6)
H11_2 H 0.7926 0.2138 0.7842
H12_2 H 0.7874 0.1093 0.6997
H13_2 H 0.7732 0.0831 0.8201
C17_2 C 0.47256(17) 0.5526(4) 0.5566(3)
C18_2 C 0.4258(2) 0.6471(4) 0.5465(4)
H14_2 H 0.3873 0.6136 0.5656
H15_2 H 0.4245 0.6756 0.4741
H16_2 H 0.4352 0.7136 0.5931
Ca7_2 Ca 0.99143(3) 0.49376(7) 0.81274(7)
O13 O 0.49071(16) 0.7093(3) 0.7528(2)
O16_2 O 0.39069(13) 0.4948(3) 0.8266(3)
O17_2 O 0.64891(13) 0.4515(3) 0.4803(2)
S1_2 S 0.49121(5) 0.96745(10) 0.72685(8)
C8_2 C 0.4791(2) 0.8904(4) 0.8413(3)
C12_2 C 0.4766(2) 0.9651(4) 0.9261(4)
H9_2 H 0.4699 0.9388 0.9957
C13_2 C 0.4793(2) 0.7585(4) 0.8381(4)
S2_3 S 0.22511(4) 0.48743(12) 0.90768(9)
C1_3 C 0.2170(2) 0.4997(5) 0.7079(4)
H1_3 H 0.2015 0.5028 0.6389
C2_3 C 0.27761(19) 0.5095(4) 0.7317(4)
H2_3 H 0.3075 0.5179 0.6801
O1_2 O 0.01490(13) 0.4493(3) 0.4920(2)
O2_3 O 0.08949(12) 0.4961(3) 0.7170(2)
C3_3 C 0.00445(19) 0.7862(4) 0.7357(4)
C4_3 C 0.11795(18) 0.4735(4) 0.7995(3)
O4_3 O 0.00496(14) 0.7899(3) 0.6369(2)
O5_3 O 0.01360(16) 0.6948(3) 0.7893(3)
C5_3 C 0.18320(18) 0.4851(4) 0.7953(3)
O7_3 O 0.09342(12) 0.4433(3) 0.8832(2)
O11_3 O 0.13613(14) 0.7545(3) 0.6434(3)
C7_3 C 0.28911(18) 0.5059(4) 0.8367(3)
C9_3 C 0.2342(3) 0.7844(5) 0.5663(5)
H3_3 H 0.2426 0.8660 0.5438
H4_3 H 0.2707 0.7467 0.5908
H5_3 H 0.2182 0.7391 0.5073
N1_3 N 0.2077(2) 0.8261(5) 0.7461(4)
C10_3 C 0.34850(18) 0.5174(5) 0.8861(3)
C11_3 C 0.1654(3) 0.8236(6) 0.8339(5)
H6_3 H 0.1743 0.7558 0.8794
H7_3 H 0.1686 0.8977 0.8739
H8_3 H 0.1252 0.8157 0.8065
C15_3 C 0.1874(3) 0.7866(6) 0.6581(5)
C16_3 C 0.2706(3) 0.8577(6) 0.7641(6)
H11_3 H 0.2926 0.7862 0.7842
H12_3 H 0.2874 0.8907 0.6997
H13_3 H 0.2732 0.9169 0.8201
O15_2 O 0.02925(14) 0.7013(3) 0.4228(2)
S1_3 S 0.99121(5) 0.03255(10) 0.72685(8)
O3_2 O 0.99071(16) 0.2907(3) 0.7528(2)
O8_2 O 0.97075(14) 0.2987(3) 0.9228(2)
C8_3 C 0.9791(2) 0.1096(4) 0.8413(3)
C12_3 C 0.9766(2) 0.0349(4) 0.9261(4)
H9_3 H 0.9699 0.0612 0.9957
C13_3 C 0.9793(2) 0.2415(4) 0.8381(4)
O6_3 O 0.96970(13) 0.5232(3) 0.6296(2)
C6_3 C 0.99317(19) 0.8993(4) 0.7930(4)
C14_3 C 0.9852(2) 0.9145(4) 0.8985(4)
H10_3 H 0.9854 0.8510 0.9475
C17_3 C 0.97256(17) 0.4474(4) 0.5566(3)
C18_3 C 0.9258(2) 0.3529(4) 0.5465(4)
H14_3 H 0.8873 0.3864 0.5656
H15_3 H 0.9245 0.3244 0.4741
H16_3 H 0.9352 0.2864 0.5931
O12_2 O 0.98510(13) 0.5507(3) 0.9920(2)
O6_4 O 0.03030(13) 0.4768(3) 0.1296(2)
C6_4 C 0.00683(19) 0.1007(4) 0.2930(4)
C14_4 C 0.0148(2) 0.0855(4) 0.3985(4)
H10_4 H 0.0146 0.1490 0.4475
C17_4 C 0.02744(17) 0.5526(4) 0.0566(3)
C18_4 C 0.0742(2) 0.6471(4) 0.0465(4)
H14_4 H 0.1127 0.6136 0.0656
H16_4 H 0.0648 0.7136 0.0931
O13_2 O 0.00929(16) 0.7093(3) 0.2528(2)
S1_4 S 0.00879(5) 0.96745(10) 0.22685(8)
C8_4 C 0.0209(2) 0.8904(4) 0.3413(3)
C12_4 C 0.0234(2) 0.9651(4) 0.4261(4)
H9_4 H 0.0301 0.9388 0.4957
C13_4 C 0.0207(2) 0.7585(4) 0.3381(4)
S2_4 S 0.77489(4) 0.51257(12) 0.40768(9)
C1_4 C 0.7830(2) 0.5003(5) 0.2079(4)
H1_4 H 0.7985 0.4972 0.1389
C2_4 C 0.72239(19) 0.4905(4) 0.2317(4)
H2_4 H 0.6925 0.4821 0.1801
O2_4 O 0.91051(12) 0.5039(3) 0.2170(2)
C3_4 C 0.99555(19) 0.2138(4) 0.2357(4)
C4_4 C 0.88205(18) 0.5265(4) 0.2995(3)
O4_4 O 0.99504(14) 0.2101(3) 0.1369(2)
O5_4 O 0.98640(16) 0.3052(3) 0.2893(3)
C5_4 C 0.81680(18) 0.5149(4) 0.2953(3)
O7_4 O 0.90658(12) 0.5567(3) 0.3832(2)
O11_4 O 0.86387(14) 0.2455(3) 0.1434(3)
C7_4 C 0.71089(18) 0.4941(4) 0.3367(3)
C9_4 C 0.7658(3) 0.2156(5) 0.0663(5)
H3_4 H 0.7574 0.1340 0.0438
H4_4 H 0.7293 0.2533 0.0908
H5_4 H 0.7818 0.2609 0.0073
N1_4 N 0.7923(2) 0.1739(5) 0.2461(4)
C10_4 C 0.65150(18) 0.4826(5) 0.3861(3)
C11_4 C 0.8346(3) 0.1764(6) 0.3339(5)
H6_4 H 0.8257 0.2442 0.3794
H7_4 H 0.8314 0.1023 0.3739
H8_4 H 0.8748 0.1843 0.3065
C15_4 C 0.8126(3) 0.2134(6) 0.1581(5)
C16_4 C 0.7294(3) 0.1423(6) 0.2641(6)
H11_4 H 0.7074 0.2138 0.2842
H12_4 H 0.7126 0.1093 0.1997
H13_4 H 0.7268 0.0831 0.3201
H15_4 H 0.0755 0.6756 0.9741
N2 N 0.40101(17) 0.2605(4) 0.5277(3)
H17 H 0.4396 0.2494 0.5479
H18 H 0.3994 0.3285 0.4877
C19 C 0.3817(2) 0.1570(6) 0.4635(5)
H19 H 0.4036 0.1562 0.3975
H20 H 0.3393 0.1636 0.4490
H21 H 0.3894 0.0831 0.5018
C20 C 0.3638(2) 0.2765(5) 0.6218(4)
H22 H 0.3232 0.2943 0.6006
H23 H 0.3793 0.3425 0.6638
H24 H 0.3643 0.2033 0.6634
N2_2 N 0.59899(17) 0.7395(4) 0.0277(3)
H17_2 H 0.5604 0.7506 0.0479
H21_2 H 0.6106 0.9169 0.0018
C20_2 C 0.6362(2) 0.7235(5) 0.1218(4)
H22_2 H 0.6768 0.7057 0.1006
H23_2 H 0.6207 0.6575 0.1638
H24_2 H 0.6357 0.7967 0.1634
H18_2 H 0.6006 0.6715 0.9877
C19_2 C 0.6183(2) 0.8430(6) 0.9635(5)
H19_2 H 0.5964 0.8438 0.8975
H20_2 H 0.6607 0.8364 0.9490
N2_3 N 0.09899(17) 0.2605(4) 0.0277(3)
H17_3 H 0.0604 0.2494 0.0479
H21_3 H 0.1106 0.0831 0.0018
C20_3 C 0.1362(2) 0.2765(5) 0.1218(4)
H22_3 H 0.1768 0.2943 0.1006
H23_3 H 0.1207 0.3425 0.1638
H24_3 H 0.1357 0.2033 0.1634
H18_3 H 0.1006 0.3285 0.9877
C19_3 C 0.1183(2) 0.1570(6) 0.9635(5)
H19_3 H 0.0964 0.1562 0.8975
H20_3 H 0.1607 0.1636 0.9490
N2_4 N 0.90101(17) 0.7395(4) 0.5277(3)
H17_4 H 0.9396 0.7506 0.5479
H18_4 H 0.8994 0.6715 0.4877
C19_4 C 0.8817(2) 0.8430(6) 0.4635(5)
H19_4 H 0.9036 0.8438 0.3975
H20_4 H 0.8393 0.8364 0.4490
H21_4 H 0.8894 0.9169 0.5018
C20_4 C 0.8638(2) 0.7235(5) 0.6218(4)
H22_4 H 0.8232 0.7057 0.6006
H23_4 H 0.8793 0.6575 0.6638
H24_4 H 0.8643 0.7967 0.6634
loop_
_geom_bond_atom_site_label_1
_geom_bond_atom_site_label_2
_geom_bond_site_symmetry_1
_geom_bond_site_symmetry_2
O3 C13 1_555 1_555
O8 C13 1_555 1_555
C8 S1 1_555 1_555
C12 C8 1_555 1_555
H9 C12 1_555 1_555
C13 C8 1_555 1_555
Ca3 O8 1_555 1_555
Ca5 O3 1_555 1_555
O8 Ca5 1_555 1_555
Ca5 O2 1_555 1_555
S2 C5 1_555 1_555
C1 H1 1_555 1_555
C2 C1 1_555 1_555
H2 C2 1_555 1_555
O2 Ca1 1_555 1_555
C3 O4 1_555 1_555
C4 O2 1_555 1_555
O4 Ca1 1_555 1_555
O5 Ca5 1_555 1_555
O6 Ca1 1_555 1_555
C5 C1 1_555 1_555
O7 Ca5 1_555 1_555
O9 C10 1_555 1_555
O10 C10 1_555 1_555
O11 Ca1 1_555 1_555
C6 C3 1_555 1_555
C7 S2 1_555 1_555
C9 H3 1_555 1_555
H4 C9 1_555 1_555
H5 C9 1_555 1_555
N1 C11 1_555 1_555
C10 C7 1_555 1_555
C11 H6 1_555 1_555
H7 C11 1_555 1_555
H8 C11 1_555 1_555
C14 C6 1_555 1_555
H10 C14 1_555 1_555
C15 O11 1_555 1_555
C16 N1 1_555 1_555
H11 C16 1_555 1_555
H12 C16 1_555 1_555
H13 C16 1_555 1_555
C17 O6 1_555 1_555
C18 C17 1_555 1_555
H14 C18 1_555 1_555
H16 C18 1_555 1_555
Ca4 O10 1_555 1_555
Ca7 O9 1_555 1_555
O12 Ca5 1_555 1_555
O16 Ca5 1_555 1_555
Ca5 O6 1_555 1_555
C2 C7 1_555 1_555
C3 O5 1_555 1_555
C4 C5 1_555 1_555
C4 O7 1_555 1_555
C9 C15 1_555 1_555
N1 C15 1_555 1_555
Ca6 O1 1_555 1_555
Ca6 O15 1_555 1_555
Ca3 O12 1_555 1_555
Ca6 O2_2 1_555 1_555
S2_2 C5_2 1_555 1_555
C1_2 H1_2 1_555 1_555
C2_2 C1_2 1_555 1_555
H2_2 C2_2 1_555 1_555
O12 C17_2 1_555 1_555
O2_2 Ca3 1_555 1_555
C3_2 O4_2 1_555 1_555
C4_2 O2_2 1_555 1_555
O4_2 Ca3 1_555 1_555
O5_2 Ca6 1_555 1_555
O6_2 Ca3 1_555 1_555
C5_2 C1_2 1_555 1_555
O7_2 Ca6 1_555 1_555
O9_2 C10_2 1_555 1_555
O10_2 C10_2 1_555 1_555
O11_2 Ca3 1_555 1_555
C6_2 C3_2 1_555 1_555
C7_2 S2_2 1_555 1_555
C9_2 H3_2 1_555 1_555
H4_2 C9_2 1_555 1_555
H5_2 C9_2 1_555 1_555
N1_2 C11_2 1_555 1_555
C10_2 C7_2 1_555 1_555
C11_2 H6_2 1_555 1_555
H7_2 C11_2 1_555 1_555
H8_2 C11_2 1_555 1_555
C14_2 C6_2 1_555 1_555
H10_2 C14_2 1_555 1_555
C15_2 O11_2 1_555 1_555
C16_2 N1_2 1_555 1_555
H11_2 C16_2 1_555 1_555
H12_2 C16_2 1_555 1_555
H13_2 C16_2 1_555 1_555
C17_2 O6_2 1_555 1_555
C18_2 C17_2 1_555 1_555
H14_2 C18_2 1_555 1_555
H15_2 C18_2 1_555 1_555
H16_2 C18_2 1_555 1_555
Ca7_2 O9_2 1_555 1_555
O13 Ca6 1_555 1_555
O16_2 Ca6 1_555 1_555
O17_2 Ca3 1_555 1_555
Ca6 O6_2 1_555 1_555
C2_2 C7_2 1_555 1_555
C3_2 O5_2 1_555 1_555
C4_2 C5_2 1_555 1_555
C4_2 O7_2 1_555 1_555
C9_2 C15_2 1_555 1_555
N1_2 C15_2 1_555 1_555
O13 C13_2 1_555 1_555
O15 C13_2 1_555 1_555
C8_2 S1_2 1_555 1_555
C12_2 C8_2 1_555 1_555
H9_2 C12_2 1_555 1_555
C13_2 C8_2 1_555 1_555
Ca4 O1_2 1_555 1_555
S2_3 C5_3 1_555 1_555
C1_3 H1_3 1_555 1_555
C2_3 C1_3 1_555 1_555
H2_3 C2_3 1_555 1_555
O2_3 Ca4 1_555 1_555
C3_3 O4_3 1_555 1_555
C4_3 O2_3 1_555 1_555
O4_3 Ca4 1_555 1_555
C5_3 C1_3 1_555 1_555
O16_2 C10_3 1_555 1_555
O17 C10_3 1_555 1_555
O11_3 Ca4 1_555 1_555
C7_3 S2_3 1_555 1_555
C9_3 H3_3 1_555 1_555
H4_3 C9_3 1_555 1_555
H5_3 C9_3 1_555 1_555
N1_3 C11_3 1_555 1_555
C10_3 C7_3 1_555 1_555
C11_3 H6_3 1_555 1_555
H7_3 C11_3 1_555 1_555
H8_3 C11_3 1_555 1_555
C15_3 O11_3 1_555 1_555
C16_3 N1_3 1_555 1_555
H11_3 C16_3 1_555 1_555
H12_3 C16_3 1_555 1_555
H13_3 C16_3 1_555 1_555
Ca7 O1_2 1_555 1_555
O15_2 Ca4 1_555 1_555
C2_3 C7_3 1_555 1_555
C3_3 O5_3 1_555 1_555
C4_3 C5_3 1_555 1_555
C4_3 O7_3 1_555 1_555
C9_3 C15_3 1_555 1_555
N1_3 C15_3 1_555 1_555
Ca7 O15_2 1_555 1_555
O3_2 C13_3 1_555 1_555
O8_2 C13_3 1_555 1_555
C8_3 S1_3 1_555 1_555
C12_3 C8_3 1_555 1_555
H9_3 C12_3 1_555 1_555
C13_3 C8_3 1_555 1_555
Ca7_2 O3_2 1_555 1_555
O8_2 Ca7_2 1_555 1_555
C14_3 C6_3 1_555 1_555
H10_3 C14_3 1_555 1_555
C17_3 O6_3 1_555 1_555
C18_3 C17_3 1_555 1_555
H14_3 C18_3 1_555 1_555
H15_3 C18_3 1_555 1_555
H16_3 C18_3 1_555 1_555
O12_2 Ca7_2 1_555 1_555
Ca7_2 O6_3 1_555 1_555
C14_4 C6_4 1_555 1_555
H10_4 C14_4 1_555 1_555
C17_4 O6_4 1_555 1_555
C18_4 C17_4 1_555 1_555
H14_4 C18_4 1_555 1_555
H16_4 C18_4 1_555 1_555
O13_2 Ca7 1_555 1_555
Ca7 O6_4 1_555 1_555
O13_2 C13_4 1_555 1_555
O15_2 C13_4 1_555 1_555
C8_4 S1_4 1_555 1_555
C12_4 C8_4 1_555 1_555
H9_4 C12_4 1_555 1_555
C13_4 C8_4 1_555 1_555
S2_4 C5_4 1_555 1_555
C1_4 H1_4 1_555 1_555
C2_4 C1_4 1_555 1_555
H2_4 C2_4 1_555 1_555
O2_4 Ca4_2 1_555 1_555
C3_4 O4_4 1_555 1_555
C4_4 O2_4 1_555 1_555
O4_4 Ca4_2 1_555 1_555
C5_4 C1_4 1_555 1_555
O16 C10_4 1_555 1_555
O17_2 C10_4 1_555 1_555
O11_4 Ca4_2 1_555 1_555
C7_4 S2_4 1_555 1_555
C9_4 H3_4 1_555 1_555
H4_4 C9_4 1_555 1_555
H5_4 C9_4 1_555 1_555
N1_4 C11_4 1_555 1_555
C10_4 C7_4 1_555 1_555
C11_4 H6_4 1_555 1_555
H7_4 C11_4 1_555 1_555
H8_4 C11_4 1_555 1_555
C15_4 O11_4 1_555 1_555
C16_4 N1_4 1_555 1_555
H11_4 C16_4 1_555 1_555
H12_4 C16_4 1_555 1_555
H13_4 C16_4 1_555 1_555
C2_4 C7_4 1_555 1_555
C3_4 O5_4 1_555 1_555
C4_4 C5_4 1_555 1_555
C4_4 O7_4 1_555 1_555
C9_4 C15_4 1_555 1_555
N1_4 C15_4 1_555 1_555
N2 H17 1_555 1_555
H18 N2 1_555 1_555
C19 N2 1_555 1_555
H19 C19 1_555 1_555
H20 C19 1_555 1_555
H21 C19 1_555 1_555
C20 N2 1_555 1_555
H22 C20 1_555 1_555
H23 C20 1_555 1_555
H24 C20 1_555 1_555
N2_2 H17_2 1_555 1_555
C20_2 N2_2 1_555 1_555
H22_2 C20_2 1_555 1_555
H23_2 C20_2 1_555 1_555
H24_2 C20_2 1_555 1_555
H19_2 C19_2 1_555 1_555
H20_2 C19_2 1_555 1_555
N2_3 H17_3 1_555 1_555
C20_3 N2_3 1_555 1_555
H22_3 C20_3 1_555 1_555
H23_3 C20_3 1_555 1_555
H24_3 C20_3 1_555 1_555
H19_3 C19_3 1_555 1_555
H20_3 C19_3 1_555 1_555
N2_4 H17_4 1_555 1_555
H18_4 N2_4 1_555 1_555
C19_4 N2_4 1_555 1_555
H19_4 C19_4 1_555 1_555
H20_4 C19_4 1_555 1_555
H21_4 C19_4 1_555 1_555
C20_4 N2_4 1_555 1_555
H22_4 C20_4 1_555 1_555
H23_4 C20_4 1_555 1_555
H24_4 C20_4 1_555 1_555

#END
