
###############################################################################
#
# This file contains modified crystal structure data generated from the
# MOF subset of the Cambridge Structural Database (CSD) v543 
# hosted by the Cambridge Crystallographic Data Centre (CCDC).
#
# This work is licensed under the Creative Commons
# Attribution-NonCommercial-ShareAlike 4.0 International License.
# To view a copy of this license, visit
# http://creativecommons.org/licenses/by-nc-sa/4.0/
# or send a letter to
# Creative Commons, PO Box 1866, Mountain View, CA 94042, USA.
#
# CIF created using the CSD Python API on 29 September 2022
# The structure has been converted into the P1 space group
# The structure has a 3D framework
# The original CSD entry INOVEN is in the monoclinic crystal system
# The framework has been calculated to contain at least 10.0% void space
# The void calculation uses a probe of radius 1.32A, grid spacing 0.4
#
###############################################################################

data_INOVEN
_chemical_formula_moiety         '(C144 H132 Gd8 N24 O60)n'
_symmetry_cell_setting           triclinic
_symmetry_space_group_name_H-M   'P 1'
_symmetry_Int_Tables_number      1
_space_group_name_Hall           'P 1'
loop_
_symmetry_equiv_pos_site_id
_symmetry_equiv_pos_as_xyz
1 x,y,z
_cell_length_a                   28.620(2)
_cell_length_b                   14.4797(12)
_cell_length_c                   13.6159(11)
_cell_angle_alpha                90
_cell_angle_beta                 96.990(1)
_cell_angle_gamma                90
_cell_volume                     5600.61
loop_
_atom_site_label
_atom_site_type_symbol
_atom_site_fract_x
_atom_site_fract_y
_atom_site_fract_z
O5 O 0.20869(19) 0.0774(4) 0.0700(5)
C6 C 0.2524(3) 0.0903(6) 0.0831(6)
O6 O 0.27070(18) 0.1608(4) 0.0497(4)
C7 C 0.2832(3) 0.0185(6) 0.1381(6)
C8 C 0.3288(3) 0.0060(6) 0.1190(7)
H5 H 0.3414 0.0441 0.0740
Gd5 Gd 0.316900(11) 0.29105(2) 0.03438(3)
Gd4 Gd 0.183100(11) 0.20895(2) 0.96562(3)
O1 O 0.3005(2) 0.7742(4) 0.3737(4)
C1 C 0.2740(3) 0.8348(6) 0.3339(6)
O2 O 0.23319(18) 0.8499(4) 0.3515(4)
O3 O 0.6098(2) 0.6792(4) 0.0360(6)
C2 C 0.5963(3) 0.7611(7) 0.0269(8)
C3 C 0.5507(3) 0.7888(6) 0.0641(8)
C4 C 0.5217(3) 0.7188(7) 0.0946(9)
H1 H 0.5306 0.6571 0.0936
C5 C 0.5362(3) 0.8776(7) 0.0652(7)
H2 H 0.5555 0.9235 0.0443
Gd1 Gd 0.316900(11) 0.70895(2) 0.53438(3)
O7 O 0.3503(4) 0.7654(7) 0.6954(7)
H3 H 0.3727 0.8024 0.6887
H4 H 0.3289 0.7936 0.7218
N1 N 0.4025(2) 0.9271(6) 0.1372(6)
N2 N 0.4191(3) 0.8495(6) 0.1558(6)
C9 C 0.2647(3) 0.9607(6) 0.2059(6)
H6 H 0.2334 0.9669 0.2170
C10 C 0.2928(3) 0.8943(5) 0.2566(6)
C11 C 0.3556(3) 0.9374(6) 0.1664(7)
C12 C 0.4657(3) 0.8352(6) 0.1260(7)
C13 C 0.4940(3) 0.9023(7) 0.0961(7)
H7 H 0.4849 0.9640 0.0966
C14 C 0.3382(3) 0.8831(6) 0.2362(6)
H8 H 0.3573 0.8385 0.2698
O8 O 0.3578(3) 0.5825(6) 0.6180(8)
C15 C 0.4793(3) 0.7449(7) 0.1263(8)
H9 H 0.4598 0.6998 0.1482
C16 C 0.3490(5) 0.5216(10) 0.6314(10)
H10 H 0.3215 0.5000 0.5954
C17 C 0.3792(10) 0.4937(19) 0.805(2)
H11 H 0.3793 0.5580 0.7882
H12 H 0.4066 0.4798 0.8508
H13 H 0.3514 0.4798 0.8354
C18 C 0.3418(8) 0.3613(16) 0.7122(17)
H14 H 0.3325 0.3468 0.6438
H15 H 0.3148 0.3813 0.7420
H16 H 0.3550 0.3074 0.7459
N3 N 0.3797(12) 0.441(3) 0.720(3)
O9 O 0.26681(18) 0.6501(4) 0.6485(4)
O10 O 0.3902(2) 0.6792(4) 0.4640(6)
O11 O 0.3811(2) 0.8220(5) 0.5124(6)
Gd2 Gd 0.183100(11) 0.79105(2) 0.46562(3)
O12 O 0.29131(19) 0.5774(4) 0.4300(5)
O13 O 0.22930(18) 0.6608(4) 0.4503(4)
O14 O 0.27070(18) 0.8392(4) 0.5497(4)
O4 O 0.6189(2) 0.8220(5) 0.9876(6)
Gd3 Gd 0.683100(11) 0.70895(2) 0.96562(3)
O5_2 O 0.79131(19) 0.0774(4) 0.4300(5)
C6_2 C 0.7476(3) 0.0903(6) 0.4169(6)
O6_2 O 0.72930(18) 0.1608(4) 0.4503(4)
C7_2 C 0.7168(3) 0.0185(6) 0.3619(6)
C8_2 C 0.6712(3) 0.0060(6) 0.3810(7)
H5_2 H 0.6586 0.0441 0.4260
Gd4_2 Gd 0.816900(11) 0.20895(2) 0.53438(3)
Gd5_2 Gd 0.683100(11) 0.29105(2) 0.46562(3)
O1_2 O 0.6995(2) 0.7742(4) 0.1263(4)
C1_2 C 0.7260(3) 0.8348(6) 0.1661(6)
O2_2 O 0.76681(18) 0.8499(4) 0.1485(4)
C2_2 C 0.4037(3) 0.7611(7) 0.4731(8)
C3_2 C 0.4493(3) 0.7888(6) 0.4359(8)
C4_2 C 0.4783(3) 0.7188(7) 0.4054(9)
H1_2 H 0.4694 0.6571 0.4064
C5_2 C 0.4638(3) 0.8776(7) 0.4348(7)
H2_2 H 0.4445 0.9235 0.4557
N1_2 N 0.5975(2) 0.9271(6) 0.3628(6)
N2_2 N 0.5809(3) 0.8495(6) 0.3442(6)
C9_2 C 0.7353(3) 0.9607(6) 0.2941(6)
H6_2 H 0.7666 0.9669 0.2830
C10_2 C 0.7072(3) 0.8943(5) 0.2434(6)
C11_2 C 0.6444(3) 0.9374(6) 0.3336(7)
C12_2 C 0.5343(3) 0.8352(6) 0.3740(7)
C13_2 C 0.5060(3) 0.9023(7) 0.4039(7)
H7_2 H 0.5151 0.9640 0.4034
C14_2 C 0.6618(3) 0.8831(6) 0.2638(6)
H8_2 H 0.6427 0.8385 0.2302
C15_2 C 0.5207(3) 0.7449(7) 0.3737(8)
H9_2 H 0.5402 0.6998 0.3518
Gd2_2 Gd 0.816900(11) 0.79105(2) 0.03438(3)
O12_2 O 0.70869(19) 0.5774(4) 0.0700(5)
O13_2 O 0.77070(18) 0.6608(4) 0.0497(4)
O7_2 O 0.6497(4) 0.7654(7) 0.8046(7)
H3_2 H 0.6273 0.8024 0.8113
H4_2 H 0.6711 0.7936 0.7782
O8_2 O 0.6422(3) 0.5825(6) 0.8820(8)
C16_2 C 0.6510(5) 0.5216(10) 0.8686(10)
H10_2 H 0.6785 0.5000 0.9046
C17_2 C 0.6208(10) 0.4937(19) 0.695(2)
H11_2 H 0.6207 0.5580 0.7118
H12_2 H 0.5934 0.4798 0.6492
H13_2 H 0.6486 0.4798 0.6646
C18_2 C 0.6582(8) 0.3613(16) 0.7878(17)
H14_2 H 0.6675 0.3468 0.8562
H15_2 H 0.6852 0.3813 0.7580
H16_2 H 0.6450 0.3074 0.7541
N3_2 N 0.6203(12) 0.441(3) 0.780(3)
O9_2 O 0.73319(18) 0.6501(4) 0.8515(4)
O14_2 O 0.72930(18) 0.8392(4) 0.9503(4)
O3_2 O 0.1098(2) 0.1792(4) 0.0360(6)
C2_3 C 0.0963(3) 0.2611(7) 0.0269(8)
C3_3 C 0.0507(3) 0.2888(6) 0.0641(8)
C4_3 C 0.0217(3) 0.2188(7) 0.0946(9)
H1_3 H 0.0306 0.1571 0.0936
C5_3 C 0.0362(3) 0.3776(7) 0.0652(7)
H2_3 H 0.0555 0.4235 0.0443
O4_2 O 0.1189(2) 0.3220(5) 0.9876(6)
O1_3 O 0.8005(2) 0.2742(4) 0.3737(4)
C1_3 C 0.7740(3) 0.3348(6) 0.3339(6)
O2_3 O 0.73319(18) 0.3499(4) 0.3515(4)
C6_3 C 0.7524(3) 0.5903(6) 0.0831(6)
O7_3 O 0.8503(4) 0.2654(7) 0.6954(7)
H3_3 H 0.8727 0.3024 0.6887
H4_3 H 0.8289 0.2936 0.7218
C7_3 C 0.7832(3) 0.5185(6) 0.1381(6)
C8_3 C 0.8288(3) 0.5060(6) 0.1190(7)
H5_3 H 0.8414 0.5441 0.0740
N1_3 N 0.9025(2) 0.4271(6) 0.1372(6)
N2_3 N 0.9191(3) 0.3495(6) 0.1558(6)
C9_3 C 0.7647(3) 0.4607(6) 0.2059(6)
H6_3 H 0.7334 0.4669 0.2170
C10_3 C 0.7928(3) 0.3943(5) 0.2566(6)
C11_3 C 0.8556(3) 0.4374(6) 0.1664(7)
C12_3 C 0.9657(3) 0.3352(6) 0.1260(7)
C13_3 C 0.9940(3) 0.4023(7) 0.0961(7)
H7_3 H 0.9849 0.4640 0.0966
C14_3 C 0.8382(3) 0.3831(6) 0.2362(6)
H8_3 H 0.8573 0.3385 0.2698
O8_3 O 0.8578(3) 0.0825(6) 0.6180(8)
C15_3 C 0.9793(3) 0.2449(7) 0.1263(8)
H9_3 H 0.9598 0.1998 0.1482
C16_3 C 0.8490(5) 0.0216(10) 0.6314(10)
H10_3 H 0.8215 0.0000 0.5954
H11_3 H 0.8793 0.0580 0.7882
O9_3 O 0.76681(18) 0.1501(4) 0.6485(4)
O10_2 O 0.8902(2) 0.1792(4) 0.4640(6)
O11_2 O 0.8811(2) 0.3220(5) 0.5124(6)
O14_3 O 0.77070(18) 0.3392(4) 0.5497(4)
O1_4 O 0.1995(2) 0.2742(4) 0.1263(4)
C1_4 C 0.2260(3) 0.3348(6) 0.1661(6)
O2_4 O 0.26681(18) 0.3499(4) 0.1485(4)
C6_4 C 0.2476(3) 0.5903(6) 0.4169(6)
C7_4 C 0.2168(3) 0.5185(6) 0.3619(6)
C8_4 C 0.1712(3) 0.5060(6) 0.3810(7)
H5_4 H 0.1586 0.5441 0.4260
N1_4 N 0.0975(2) 0.4271(6) 0.3628(6)
N2_4 N 0.0809(3) 0.3495(6) 0.3442(6)
C9_4 C 0.2353(3) 0.4607(6) 0.2941(6)
H6_4 H 0.2666 0.4669 0.2830
C10_4 C 0.2072(3) 0.3943(5) 0.2434(6)
C11_4 C 0.1444(3) 0.4374(6) 0.3336(7)
C12_4 C 0.0343(3) 0.3352(6) 0.3740(7)
C13_4 C 0.0060(3) 0.4023(7) 0.4039(7)
H7_4 H 0.0151 0.4640 0.4034
C14_4 C 0.1618(3) 0.3831(6) 0.2638(6)
H8_4 H 0.1427 0.3385 0.2302
C15_4 C 0.0207(3) 0.2449(7) 0.3737(8)
H9_4 H 0.0402 0.1998 0.3518
O7_4 O 0.1497(4) 0.2654(7) 0.8046(7)
H3_4 H 0.1273 0.3024 0.8113
H4_4 H 0.1711 0.2936 0.7782
O8_4 O 0.1422(3) 0.0825(6) 0.8820(8)
C16_4 C 0.1510(5) 0.0216(10) 0.8686(10)
H10_4 H 0.1785 0.0000 0.9046
H11_4 H 0.1207 0.0580 0.7118
O9_4 O 0.23319(18) 0.1501(4) 0.8515(4)
O14_4 O 0.22930(18) 0.3392(4) 0.9503(4)
C2_4 C 0.9037(3) 0.2611(7) 0.4731(8)
C3_4 C 0.9493(3) 0.2888(6) 0.4359(8)
C4_4 C 0.9783(3) 0.2188(7) 0.4054(9)
H1_4 H 0.9694 0.1571 0.4064
C5_4 C 0.9638(3) 0.3776(7) 0.4348(7)
H2_4 H 0.9445 0.4235 0.4557
O4_3 O 0.3811(2) 0.1780(5) 0.0124(6)
O1_5 O 0.6995(2) 0.2258(4) 0.6263(4)
C1_5 C 0.7260(3) 0.1652(6) 0.6661(6)
O3_3 O 0.3902(2) 0.3208(4) 0.9640(6)
C2_5 C 0.4037(3) 0.2389(7) 0.9731(8)
C3_5 C 0.4493(3) 0.2112(6) 0.9359(8)
C4_5 C 0.4783(3) 0.2812(7) 0.9054(9)
H1_5 H 0.4694 0.3429 0.9064
C5_5 C 0.4638(3) 0.1224(7) 0.9348(7)
H2_5 H 0.4445 0.0765 0.9557
O7_5 O 0.6497(4) 0.2346(7) 0.3046(7)
H3_5 H 0.6273 0.1976 0.3113
H4_5 H 0.6711 0.2064 0.2782
N1_5 N 0.5975(2) 0.0729(6) 0.8628(6)
N2_5 N 0.5809(3) 0.1505(6) 0.8442(6)
C9_5 C 0.7353(3) 0.0393(6) 0.7941(6)
H6_5 H 0.7666 0.0331 0.7830
C10_5 C 0.7072(3) 0.1057(5) 0.7434(6)
C11_5 C 0.6444(3) 0.0626(6) 0.8336(7)
C12_5 C 0.5343(3) 0.1648(6) 0.8740(7)
C13_5 C 0.5060(3) 0.0977(7) 0.9039(7)
H7_5 H 0.5151 0.0360 0.9034
C14_5 C 0.6618(3) 0.1169(6) 0.7638(6)
H8_5 H 0.6427 0.1615 0.7302
O8_5 O 0.6422(3) 0.4175(6) 0.3820(8)
C15_5 C 0.5207(3) 0.2551(7) 0.8737(8)
H9_5 H 0.5402 0.3002 0.8518
C16_5 C 0.6510(5) 0.4784(10) 0.3686(10)
H10_5 H 0.6785 0.5000 0.4046
C17_3 C 0.6208(10) 0.5063(19) 0.195(2)
H11_5 H 0.6207 0.4420 0.2118
H12_3 H 0.5934 0.5202 0.1492
H13_3 H 0.6486 0.5202 0.1646
C18_3 C 0.6582(8) 0.6387(16) 0.2878(17)
H14_3 H 0.6675 0.6532 0.3562
H15_3 H 0.6852 0.6187 0.2580
H16_3 H 0.6450 0.6926 0.2541
N3_3 N 0.6203(12) 0.559(3) 0.280(3)
O10_3 O 0.6098(2) 0.3208(4) 0.5360(6)
O11_3 O 0.6189(2) 0.1780(5) 0.4876(6)
O12_3 O 0.70869(19) 0.4226(4) 0.5700(5)
O5_3 O 0.79131(19) 0.9226(4) 0.9300(5)
C6_5 C 0.7476(3) 0.9097(6) 0.9169(6)
C7_5 C 0.7168(3) 0.9815(6) 0.8619(6)
C8_5 C 0.6712(3) 0.9940(6) 0.8810(7)
H5_5 H 0.6586 0.9559 0.9260
O7_6 O 0.3503(4) 0.2346(7) 0.1954(7)
H3_6 H 0.3727 0.1976 0.1887
H4_6 H 0.3289 0.2064 0.2218
O8_6 O 0.3578(3) 0.4175(6) 0.1180(8)
C16_6 C 0.3490(5) 0.4784(10) 0.1314(10)
H10_6 H 0.3215 0.5000 0.0954
C17_4 C 0.3792(10) 0.5063(19) 0.305(2)
H11_6 H 0.3793 0.4420 0.2882
H12_4 H 0.4066 0.5202 0.3508
H13_4 H 0.3514 0.5202 0.3354
C18_4 C 0.3418(8) 0.6387(16) 0.2122(17)
H14_4 H 0.3325 0.6532 0.1438
H15_4 H 0.3148 0.6187 0.2420
H16_4 H 0.3550 0.6926 0.2459
N3_4 N 0.3797(12) 0.559(3) 0.220(3)
O1_6 O 0.3005(2) 0.2258(4) 0.8737(4)
C1_6 C 0.2740(3) 0.1652(6) 0.8339(6)
C2_6 C 0.5963(3) 0.2389(7) 0.5269(8)
C3_6 C 0.5507(3) 0.2112(6) 0.5641(8)
C4_6 C 0.5217(3) 0.2812(7) 0.5946(9)
H1_6 H 0.5306 0.3429 0.5936
C5_6 C 0.5362(3) 0.1224(7) 0.5652(7)
H2_6 H 0.5555 0.0765 0.5443
N1_6 N 0.4025(2) 0.0729(6) 0.6372(6)
N2_6 N 0.4191(3) 0.1505(6) 0.6558(6)
C9_6 C 0.2647(3) 0.0393(6) 0.7059(6)
H6_6 H 0.2334 0.0331 0.7170
C10_6 C 0.2928(3) 0.1057(5) 0.7566(6)
C11_6 C 0.3556(3) 0.0626(6) 0.6664(7)
C12_6 C 0.4657(3) 0.1648(6) 0.6260(7)
C13_6 C 0.4940(3) 0.0977(7) 0.5961(7)
H7_6 H 0.4849 0.0360 0.5966
C14_6 C 0.3382(3) 0.1169(6) 0.7362(6)
H8_6 H 0.3573 0.1615 0.7698
C15_6 C 0.4793(3) 0.2551(7) 0.6263(8)
H9_6 H 0.4598 0.3002 0.6482
O12_4 O 0.29131(19) 0.4226(4) 0.9300(5)
O5_4 O 0.20869(19) 0.9226(4) 0.5700(5)
C6_6 C 0.2524(3) 0.9097(6) 0.5831(6)
C7_6 C 0.2832(3) 0.9815(6) 0.6381(6)
C8_6 C 0.3288(3) 0.9940(6) 0.6190(7)
H5_6 H 0.3414 0.9559 0.5740
O1_7 O 0.1995(2) 0.7258(4) 0.6263(4)
C1_7 C 0.2260(3) 0.6652(6) 0.6661(6)
C6_7 C 0.2476(3) 0.4097(6) 0.9169(6)
O7_7 O 0.1497(4) 0.7346(7) 0.3046(7)
H3_7 H 0.1273 0.6976 0.3113
H4_7 H 0.1711 0.7064 0.2782
C7_7 C 0.2168(3) 0.4815(6) 0.8619(6)
C8_7 C 0.1712(3) 0.4940(6) 0.8810(7)
H5_7 H 0.1586 0.4559 0.9260
N1_7 N 0.0975(2) 0.5729(6) 0.8628(6)
N2_7 N 0.0809(3) 0.6505(6) 0.8442(6)
C9_7 C 0.2353(3) 0.5393(6) 0.7941(6)
H6_7 H 0.2666 0.5331 0.7830
C10_7 C 0.2072(3) 0.6057(5) 0.7434(6)
C11_7 C 0.1444(3) 0.5626(6) 0.8336(7)
C12_7 C 0.0343(3) 0.6648(6) 0.8740(7)
C13_7 C 0.0060(3) 0.5977(7) 0.9039(7)
H7_7 H 0.0151 0.5360 0.9034
C14_7 C 0.1618(3) 0.6169(6) 0.7638(6)
H8_7 H 0.1427 0.6615 0.7302
O8_7 O 0.1422(3) 0.9175(6) 0.3820(8)
C15_7 C 0.0207(3) 0.7551(7) 0.8737(8)
H9_7 H 0.0402 0.8002 0.8518
C16_7 C 0.1510(5) 0.9784(10) 0.3686(10)
H10_7 H 0.1785 1.0000 0.4046
H11_7 H 0.1207 0.9420 0.2118
O10_4 O 0.1098(2) 0.8208(4) 0.5360(6)
O11_4 O 0.1189(2) 0.6780(5) 0.4876(6)
O4_4 O 0.8811(2) 0.6780(5) 0.0124(6)
O3_4 O 0.8902(2) 0.8208(4) 0.9640(6)
C2_7 C 0.9037(3) 0.7389(7) 0.9731(8)
C3_7 C 0.9493(3) 0.7112(6) 0.9359(8)
C4_7 C 0.9783(3) 0.7812(7) 0.9054(9)
H1_7 H 0.9694 0.8429 0.9064
C5_7 C 0.9638(3) 0.6224(7) 0.9348(7)
H2_7 H 0.9445 0.5765 0.9557
C2_8 C 0.0963(3) 0.7389(7) 0.5269(8)
C3_8 C 0.0507(3) 0.7112(6) 0.5641(8)
C4_8 C 0.0217(3) 0.7812(7) 0.5946(9)
H1_8 H 0.0306 0.8429 0.5936
C5_8 C 0.0362(3) 0.6224(7) 0.5652(7)
H2_8 H 0.0555 0.5765 0.5443
O7_8 O 0.8503(4) 0.7346(7) 0.1954(7)
H3_8 H 0.8727 0.6976 0.1887
H4_8 H 0.8289 0.7064 0.2218
O8_8 O 0.8578(3) 0.9175(6) 0.1180(8)
C16_8 C 0.8490(5) 0.9784(10) 0.1314(10)
H10_8 H 0.8215 1.0000 0.0954
H11_8 H 0.8793 0.9420 0.2882
O1_8 O 0.8005(2) 0.7258(4) 0.8737(4)
C1_8 C 0.7740(3) 0.6652(6) 0.8339(6)
C6_8 C 0.7524(3) 0.4097(6) 0.5831(6)
C7_8 C 0.7832(3) 0.4815(6) 0.6381(6)
C8_8 C 0.8288(3) 0.4940(6) 0.6190(7)
H5_8 H 0.8414 0.4559 0.5740
N1_8 N 0.9025(2) 0.5729(6) 0.6372(6)
N2_8 N 0.9191(3) 0.6505(6) 0.6558(6)
C9_8 C 0.7647(3) 0.5393(6) 0.7059(6)
H6_8 H 0.7334 0.5331 0.7170
C10_8 C 0.7928(3) 0.6057(5) 0.7566(6)
C11_8 C 0.8556(3) 0.5626(6) 0.6664(7)
C12_8 C 0.9657(3) 0.6648(6) 0.6260(7)
C13_8 C 0.9940(3) 0.5977(7) 0.5961(7)
H7_8 H 0.9849 0.5360 0.5966
C14_8 C 0.8382(3) 0.6169(6) 0.7362(6)
H8_8 H 0.8573 0.6615 0.7698
C15_8 C 0.9793(3) 0.7551(7) 0.6263(8)
H9_8 H 0.9598 0.8002 0.6482
H10_9 H 0.8215 1.0000 0.5954
C17_5 C 0.8792(10) 0.9937(19) 0.805(2)
H12_5 H 0.9066 0.9798 0.8508
H13_5 H 0.8514 0.9798 0.8354
C18_5 C 0.8418(8) 0.8613(16) 0.7122(17)
H14_5 H 0.8325 0.8468 0.6438
H15_5 H 0.8148 0.8813 0.7420
H16_5 H 0.8550 0.8074 0.7459
N3_5 N 0.8797(12) 0.941(3) 0.720(3)
H10_10 H 0.1785 1.0000 0.9046
C17_6 C 0.1208(10) 0.9937(19) 0.695(2)
H12_6 H 0.0934 0.9798 0.6492
H13_6 H 0.1486 0.9798 0.6646
C18_6 C 0.1582(8) 0.8613(16) 0.7878(17)
H14_6 H 0.1675 0.8468 0.8562
H15_6 H 0.1852 0.8813 0.7580
H16_6 H 0.1450 0.8074 0.7541
N3_6 N 0.1203(12) 0.941(3) 0.780(3)
H10_11 H 0.1785 -0.0000 0.4046
C17_7 C 0.1208(10) 0.0063(19) 0.195(2)
H12_7 H 0.0934 0.0202 0.1492
H13_7 H 0.1486 0.0202 0.1646
C18_7 C 0.1582(8) 0.1387(16) 0.2878(17)
H14_7 H 0.1675 0.1532 0.3562
H15_7 H 0.1852 0.1187 0.2580
H16_7 H 0.1450 0.1926 0.2541
N3_7 N 0.1203(12) 0.059(3) 0.280(3)
H10_12 H 0.8215 0.0000 0.0954
C17_8 C 0.8792(10) 0.0063(19) 0.305(2)
H12_8 H 0.9066 0.0202 0.3508
H13_8 H 0.8514 0.0202 0.3354
C18_8 C 0.8418(8) 0.1387(16) 0.2122(17)
H14_8 H 0.8325 0.1532 0.1438
H15_8 H 0.8148 0.1187 0.2420
H16_8 H 0.8550 0.1926 0.2459
N3_8 N 0.8797(12) 0.059(3) 0.220(3)
loop_
_geom_bond_atom_site_label_1
_geom_bond_atom_site_label_2
_geom_bond_site_symmetry_1
_geom_bond_site_symmetry_2
O5 C6 1_555 1_555
C6 O6 1_555 1_555
C7 C6 1_555 1_555
C8 C7 1_555 1_555
H5 C8 1_555 1_555
Gd5 O6 1_555 1_555
O1 C1 1_555 1_555
C1 O2 1_555 1_555
O2 Gd2 1_555 1_555
O3 C2 1_555 1_555
C2 C3 1_555 1_555
C3 C4 1_555 1_555
C4 H1 1_555 1_555
C5 C3 1_555 1_555
H2 C5 1_555 1_555
Gd1 O1 1_555 1_555
O7 Gd1 1_555 1_555
H3 O7 1_555 1_555
H4 O7 1_555 1_555
N1 N2 1_555 1_555
N2 C12 1_555 1_555
H6 C9 1_555 1_555
C10 C1 1_555 1_555
C12 C13 1_555 1_555
C13 C5 1_555 1_555
H7 C13 1_555 1_555
C14 C10 1_555 1_555
H8 C14 1_555 1_555
O8 Gd1 1_555 1_555
C15 C4 1_555 1_555
H9 C15 1_555 1_555
C16 O8 1_555 1_555
H10 C16 1_555 1_555
C17 H11 1_555 1_555
H12 C17 1_555 1_555
H13 C17 1_555 1_555
C18 H14 1_555 1_555
H15 C18 1_555 1_555
H16 C18 1_555 1_555
N3 C16 1_555 1_555
O9 Gd1 1_555 1_555
O10 Gd1 1_555 1_555
O11 Gd1 1_555 1_555
Gd2 O13 1_555 1_555
O12 Gd1 1_555 1_555
O13 Gd1 1_555 1_555
O14 Gd1 1_555 1_555
N1 C11 1_555 1_555
C9 C10 1_555 1_555
C11 C14 1_555 1_555
C12 C15 1_555 1_555
C17 N3 1_555 1_555
C18 N3 1_555 1_555
Gd2 O14 1_555 1_555
O4 Gd3 1_555 1_555
O5_2 C6_2 1_555 1_555
C6_2 O6_2 1_555 1_555
O6_2 Gd4_2 1_555 1_555
C7_2 C6_2 1_555 1_555
C8_2 C7_2 1_555 1_555
H5_2 C8_2 1_555 1_555
Gd4_2 O5_2 1_555 1_555
Gd5_2 O6_2 1_555 1_555
O1_2 C1_2 1_555 1_555
C1_2 O2_2 1_555 1_555
O2_2 Gd2_2 1_555 1_555
O10 C2_2 1_555 1_555
O11 C2_2 1_555 1_555
C2_2 C3_2 1_555 1_555
C3_2 C4_2 1_555 1_555
C4_2 H1_2 1_555 1_555
C5_2 C3_2 1_555 1_555
H2_2 C5_2 1_555 1_555
N1_2 N2_2 1_555 1_555
N2_2 C12_2 1_555 1_555
H6_2 C9_2 1_555 1_555
C10_2 C1_2 1_555 1_555
C12_2 C13_2 1_555 1_555
C13_2 C5_2 1_555 1_555
H7_2 C13_2 1_555 1_555
C14_2 C10_2 1_555 1_555
H8_2 C14_2 1_555 1_555
C15_2 C4_2 1_555 1_555
H9_2 C15_2 1_555 1_555
Gd2_2 O13_2 1_555 1_555
N1_2 C11_2 1_555 1_555
C9_2 C10_2 1_555 1_555
C11_2 C14_2 1_555 1_555
C12_2 C15_2 1_555 1_555
O7_2 Gd3 1_555 1_555
H3_2 O7_2 1_555 1_555
H4_2 O7_2 1_555 1_555
O8_2 Gd3 1_555 1_555
C16_2 O8_2 1_555 1_555
H10_2 C16_2 1_555 1_555
C17_2 H11_2 1_555 1_555
H12_2 C17_2 1_555 1_555
H13_2 C17_2 1_555 1_555
C18_2 H14_2 1_555 1_555
H15_2 C18_2 1_555 1_555
H16_2 C18_2 1_555 1_555
N3_2 C16_2 1_555 1_555
O9_2 Gd3 1_555 1_555
O14_2 Gd3 1_555 1_555
C17_2 N3_2 1_555 1_555
C18_2 N3_2 1_555 1_555
O3_2 C2_3 1_555 1_555
C2_3 C3_3 1_555 1_555
C3_3 C4_3 1_555 1_555
C4_3 H1_3 1_555 1_555
C5_3 C3_3 1_555 1_555
H2_3 C5_3 1_555 1_555
O4_2 Gd4 1_555 1_555
O1_3 C1_3 1_555 1_555
C1_3 O2_3 1_555 1_555
O2_3 Gd5_2 1_555 1_555
Gd4_2 O1_3 1_555 1_555
O12_2 C6_3 1_555 1_555
C6_3 O13_2 1_555 1_555
O7_3 Gd4_2 1_555 1_555
H3_3 O7_3 1_555 1_555
H4_3 O7_3 1_555 1_555
C7_3 C6_3 1_555 1_555
C8_3 C7_3 1_555 1_555
H5_3 C8_3 1_555 1_555
N1_3 N2_3 1_555 1_555
N2_3 C12_3 1_555 1_555
C9_3 C7_3 1_555 1_555
H6_3 C9_3 1_555 1_555
C10_3 C1_3 1_555 1_555
C11_3 C8_3 1_555 1_555
C12_3 C13_3 1_555 1_555
H7_3 C13_3 1_555 1_555
C14_3 C10_3 1_555 1_555
H8_3 C14_3 1_555 1_555
O8_3 Gd4_2 1_555 1_555
H9_3 C15_3 1_555 1_555
C16_3 O8_3 1_555 1_555
H10_3 C16_3 1_555 1_555
O9_3 Gd4_2 1_555 1_555
O10_2 Gd4_2 1_555 1_555
O11_2 Gd4_2 1_555 1_555
O14_3 Gd4_2 1_555 1_555
N1_3 C11_3 1_555 1_555
C9_3 C10_3 1_555 1_555
C11_3 C14_3 1_555 1_555
C12_3 C15_3 1_555 1_555
Gd5_2 O14_3 1_555 1_555
O1_4 C1_4 1_555 1_555
C1_4 O2_4 1_555 1_555
O2_4 Gd5 1_555 1_555
O12 C6_4 1_555 1_555
C6_4 O13 1_555 1_555
C7_4 C6_4 1_555 1_555
C8_4 C7_4 1_555 1_555
H5_4 C8_4 1_555 1_555
N1_4 N2_4 1_555 1_555
N2_4 C12_4 1_555 1_555
C9_4 C7_4 1_555 1_555
H6_4 C9_4 1_555 1_555
C10_4 C1_4 1_555 1_555
C11_4 C8_4 1_555 1_555
C12_4 C13_4 1_555 1_555
H7_4 C13_4 1_555 1_555
C14_4 C10_4 1_555 1_555
H8_4 C14_4 1_555 1_555
H9_4 C15_4 1_555 1_555
N1_4 C11_4 1_555 1_555
C9_4 C10_4 1_555 1_555
C11_4 C14_4 1_555 1_555
C12_4 C15_4 1_555 1_555
O7_4 Gd4 1_555 1_555
H3_4 O7_4 1_555 1_555
H4_4 O7_4 1_555 1_555
O8_4 Gd4 1_555 1_555
C16_4 O8_4 1_555 1_555
H10_4 C16_4 1_555 1_555
O9_4 Gd4 1_555 1_555
O14_4 Gd4 1_555 1_555
O10_2 C2_4 1_555 1_555
O11_2 C2_4 1_555 1_555
C2_4 C3_4 1_555 1_555
C3_4 C4_4 1_555 1_555
C4_4 H1_4 1_555 1_555
C5_4 C3_4 1_555 1_555
H2_4 C5_4 1_555 1_555
O4_3 Gd5 1_555 1_555
O1_5 C1_5 1_555 1_555
C1_5 O9_3 1_555 1_555
O3_3 C2_5 1_555 1_555
C2_5 C3_5 1_555 1_555
C3_5 C4_5 1_555 1_555
C4_5 H1_5 1_555 1_555
C5_5 C3_5 1_555 1_555
H2_5 C5_5 1_555 1_555
Gd5_2 O1_5 1_555 1_555
O7_5 Gd5_2 1_555 1_555
H3_5 O7_5 1_555 1_555
H4_5 O7_5 1_555 1_555
N1_5 N2_5 1_555 1_555
N2_5 C12_5 1_555 1_555
H6_5 C9_5 1_555 1_555
C10_5 C1_5 1_555 1_555
C12_5 C13_5 1_555 1_555
C13_5 C5_5 1_555 1_555
H7_5 C13_5 1_555 1_555
C14_5 C10_5 1_555 1_555
H8_5 C14_5 1_555 1_555
O8_5 Gd5_2 1_555 1_555
C15_5 C4_5 1_555 1_555
H9_5 C15_5 1_555 1_555
C16_5 O8_5 1_555 1_555
H10_5 C16_5 1_555 1_555
C17_3 H11_5 1_555 1_555
H12_3 C17_3 1_555 1_555
H13_3 C17_3 1_555 1_555
C18_3 H14_3 1_555 1_555
H15_3 C18_3 1_555 1_555
H16_3 C18_3 1_555 1_555
N3_3 C16_5 1_555 1_555
O10_3 Gd5_2 1_555 1_555
O11_3 Gd5_2 1_555 1_555
O12_3 Gd5_2 1_555 1_555
N1_5 C11_5 1_555 1_555
C9_5 C10_5 1_555 1_555
C11_5 C14_5 1_555 1_555
C12_5 C15_5 1_555 1_555
C17_3 N3_3 1_555 1_555
C18_3 N3_3 1_555 1_555
O5_3 C6_5 1_555 1_555
C6_5 O14_2 1_555 1_555
C7_5 C6_5 1_555 1_555
C8_5 C7_5 1_555 1_555
H5_5 C8_5 1_555 1_555
O7_6 Gd5 1_555 1_555
H3_6 O7_6 1_555 1_555
H4_6 O7_6 1_555 1_555
O8_6 Gd5 1_555 1_555
C16_6 O8_6 1_555 1_555
H10_6 C16_6 1_555 1_555
C17_4 H11_6 1_555 1_555
H12_4 C17_4 1_555 1_555
H13_4 C17_4 1_555 1_555
C18_4 H14_4 1_555 1_555
H15_4 C18_4 1_555 1_555
H16_4 C18_4 1_555 1_555
N3_4 C16_6 1_555 1_555
C17_4 N3_4 1_555 1_555
C18_4 N3_4 1_555 1_555
O1_6 C1_6 1_555 1_555
C1_6 O9_4 1_555 1_555
O10_3 C2_6 1_555 1_555
O11_3 C2_6 1_555 1_555
C2_6 C3_6 1_555 1_555
C3_6 C4_6 1_555 1_555
C4_6 H1_6 1_555 1_555
C5_6 C3_6 1_555 1_555
H2_6 C5_6 1_555 1_555
N1_6 N2_6 1_555 1_555
N2_6 C12_6 1_555 1_555
H6_6 C9_6 1_555 1_555
C10_6 C1_6 1_555 1_555
C12_6 C13_6 1_555 1_555
C13_6 C5_6 1_555 1_555
H7_6 C13_6 1_555 1_555
C14_6 C10_6 1_555 1_555
H8_6 C14_6 1_555 1_555
C15_6 C4_6 1_555 1_555
H9_6 C15_6 1_555 1_555
N1_6 C11_6 1_555 1_555
C9_6 C10_6 1_555 1_555
C11_6 C14_6 1_555 1_555
C12_6 C15_6 1_555 1_555
O5_4 C6_6 1_555 1_555
C6_6 O14 1_555 1_555
C7_6 C6_6 1_555 1_555
C8_6 C7_6 1_555 1_555
H5_6 C8_6 1_555 1_555
Gd2 O5_4 1_555 1_555
O1_7 C1_7 1_555 1_555
C1_7 O9 1_555 1_555
Gd2 O1_7 1_555 1_555
O12_4 C6_7 1_555 1_555
C6_7 O14_4 1_555 1_555
O7_7 Gd2 1_555 1_555
H3_7 O7_7 1_555 1_555
H4_7 O7_7 1_555 1_555
C7_7 C6_7 1_555 1_555
C8_7 C7_7 1_555 1_555
H5_7 C8_7 1_555 1_555
N1_7 N2_7 1_555 1_555
N2_7 C12_7 1_555 1_555
C9_7 C7_7 1_555 1_555
H6_7 C9_7 1_555 1_555
C10_7 C1_7 1_555 1_555
C11_7 C8_7 1_555 1_555
C12_7 C13_7 1_555 1_555
H7_7 C13_7 1_555 1_555
C14_7 C10_7 1_555 1_555
H8_7 C14_7 1_555 1_555
O8_7 Gd2 1_555 1_555
H9_7 C15_7 1_555 1_555
C16_7 O8_7 1_555 1_555
H10_7 C16_7 1_555 1_555
O10_4 Gd2 1_555 1_555
O11_4 Gd2 1_555 1_555
N1_7 C11_7 1_555 1_555
C9_7 C10_7 1_555 1_555
C11_7 C14_7 1_555 1_555
C12_7 C15_7 1_555 1_555
O4_4 Gd2_2 1_555 1_555
O3_4 C2_7 1_555 1_555
C2_7 C3_7 1_555 1_555
C3_7 C4_7 1_555 1_555
C4_7 H1_7 1_555 1_555
C5_7 C3_7 1_555 1_555
H2_7 C5_7 1_555 1_555
O10_4 C2_8 1_555 1_555
O11_4 C2_8 1_555 1_555
C2_8 C3_8 1_555 1_555
C3_8 C4_8 1_555 1_555
C4_8 H1_8 1_555 1_555
C5_8 C3_8 1_555 1_555
H2_8 C5_8 1_555 1_555
O7_8 Gd2_2 1_555 1_555
H3_8 O7_8 1_555 1_555
H4_8 O7_8 1_555 1_555
O8_8 Gd2_2 1_555 1_555
C16_8 O8_8 1_555 1_555
H10_8 C16_8 1_555 1_555
O1_8 C1_8 1_555 1_555
C1_8 O9_2 1_555 1_555
O12_3 C6_8 1_555 1_555
C6_8 O14_3 1_555 1_555
C7_8 C6_8 1_555 1_555
C8_8 C7_8 1_555 1_555
H5_8 C8_8 1_555 1_555
N1_8 N2_8 1_555 1_555
N2_8 C12_8 1_555 1_555
C9_8 C7_8 1_555 1_555
H6_8 C9_8 1_555 1_555
C10_8 C1_8 1_555 1_555
C11_8 C8_8 1_555 1_555
C12_8 C13_8 1_555 1_555
H7_8 C13_8 1_555 1_555
C14_8 C10_8 1_555 1_555
H8_8 C14_8 1_555 1_555
H9_8 C15_8 1_555 1_555
N1_8 C11_8 1_555 1_555
C9_8 C10_8 1_555 1_555
C11_8 C14_8 1_555 1_555
C12_8 C15_8 1_555 1_555
H12_5 C17_5 1_555 1_555
H13_5 C17_5 1_555 1_555
C18_5 H14_5 1_555 1_555
H15_5 C18_5 1_555 1_555
H16_5 C18_5 1_555 1_555
C17_5 N3_5 1_555 1_555
C18_5 N3_5 1_555 1_555
H12_6 C17_6 1_555 1_555
H13_6 C17_6 1_555 1_555
C18_6 H14_6 1_555 1_555
H15_6 C18_6 1_555 1_555
H16_6 C18_6 1_555 1_555
C17_6 N3_6 1_555 1_555
C18_6 N3_6 1_555 1_555
H12_7 C17_7 1_555 1_555
H13_7 C17_7 1_555 1_555
C18_7 H14_7 1_555 1_555
H15_7 C18_7 1_555 1_555
H16_7 C18_7 1_555 1_555
C17_7 N3_7 1_555 1_555
C18_7 N3_7 1_555 1_555
H12_8 C17_8 1_555 1_555
H13_8 C17_8 1_555 1_555
C18_8 H14_8 1_555 1_555
H15_8 C18_8 1_555 1_555
H16_8 C18_8 1_555 1_555
C17_8 N3_8 1_555 1_555
C18_8 N3_8 1_555 1_555

#END
