
###############################################################################
#
# This file contains modified crystal structure data generated from the
# MOF subset of the Cambridge Structural Database (CSD) v543 
# hosted by the Cambridge Crystallographic Data Centre (CCDC).
#
# This work is licensed under the Creative Commons
# Attribution-NonCommercial-ShareAlike 4.0 International License.
# To view a copy of this license, visit
# http://creativecommons.org/licenses/by-nc-sa/4.0/
# or send a letter to
# Creative Commons, PO Box 1866, Mountain View, CA 94042, USA.
#
# CIF created using the CSD Python API on 29 September 2022
# The structure has been converted into the P1 space group
# The structure has a 3D framework
# The original CSD entry INURIS is in the rhombohedral crystal system
# The framework has been calculated to contain at least 10.0% void space
# The void calculation uses a probe of radius 1.32A, grid spacing 0.4
#
###############################################################################

data_INURIS
_chemical_formula_moiety         '(C1080 H792 Cu66 N72 O216)n'
_symmetry_cell_setting           triclinic
_symmetry_space_group_name_H-M   'P 1'
_symmetry_Int_Tables_number      1
_space_group_name_Hall           'P 1'
loop_
_symmetry_equiv_pos_site_id
_symmetry_equiv_pos_as_xyz
1 x,y,z
_cell_length_a                   53.643(7)
_cell_length_b                   53.643(7)
_cell_length_c                   11.920(10)
_cell_angle_alpha                90
_cell_angle_beta                 90
_cell_angle_gamma                120.00
_cell_volume                     29705.2
loop_
_atom_site_label
_atom_site_type_symbol
_atom_site_fract_x
_atom_site_fract_y
_atom_site_fract_z
O12 O 0.00235(10) 0.22899(9) 0.5438(3)
C30 C 0.00840(12) 0.27277(14) 0.2300(6)
H17 H 0.0167 0.2684 0.2898
C31 C 0.02410(14) 0.28521(16) 0.1359(7)
H18 H 0.0431 0.2892 0.1322
C32 C 0.01231(15) 0.29212(16) 0.0447(6)
H39 H 0.0010 0.3052 0.6019
H41 H 0.0057 0.3065 0.4718
C60 C 0.0034(2) 0.20302(15) 0.5518(7)
H42 H 0.0151 0.2042 0.6147
H43 H 0.0115 0.2003 0.4843
Cu6 Cu 0.018560(13) 0.261400(19) 0.64123(5)
Cu3 Cu 0.980800(14) 0.237508(13) 0.43890(5)
Cu4 Cu 0.757160(14) 0.018560(13) 0.35877(5)
O3 O 0.97021(8) 0.20522(8) 0.3403(3)
O4 O 0.92694(11) 0.17722(12) 0.4120(4)
O5 O 0.93117(8) 0.30325(8) 0.0720(3)
O7 O 0.87840(8) 0.07782(8) 0.0230(3)
O11 O 0.99684(10) 0.26994(8) 0.5387(3)
N2 N 0.92833(9) 0.12946(9) 0.0504(3)
N3 N 0.96373(9) 0.25294(9) 0.3303(3)
N4 N 0.79075(9) 0.03775(9) 0.2530(3)
C15 C 0.94036(11) 0.12504(11) 0.1417(5)
C16 C 0.94789(15) 0.10346(14) 0.1428(6)
H9 H 0.9450 0.0925 0.0786
C17 C 0.95930(18) 0.09826(18) 0.2358(7)
H10 H 0.9637 0.0836 0.2350
C18 C 0.96444(18) 0.11500(18) 0.3331(7)
H11 H 0.9720 0.1111 0.3964
C19 C 0.95860(14) 0.13640(15) 0.3358(5)
H12 H 0.9626 0.1475 0.4004
C20 C 0.94625(11) 0.14249(11) 0.2403(4)
C21 C 0.93872(10) 0.16388(10) 0.2403(4)
C22 C 0.94525(13) 0.18314(12) 0.3413(4)
C23 C 0.92548(10) 0.16785(10) 0.1466(4)
C24 C 0.91611(12) 0.18839(12) 0.1407(5)
H13 H 0.9187 0.2000 0.2027
C25 C 0.90361(15) 0.19154(13) 0.0481(5)
H14 H 0.8974 0.2050 0.0467
C28 C 0.92106(10) 0.15014(10) 0.0505(4)
C29 C 0.97932(11) 0.26643(11) 0.2371(4)
C33 C 0.98529(13) 0.28727(13) 0.0495(5)
C34 C 0.96760(11) 0.27431(11) 0.1451(4)
C35 C 0.93929(11) 0.26852(10) 0.1527(4)
C36 C 0.92668(12) 0.27783(12) 0.0601(4)
C37 C 0.92286(11) 0.25441(10) 0.2474(4)
C38 C 0.89366(12) 0.24683(13) 0.2584(5)
H21 H 0.8849 0.2514 0.2012
C39 C 0.87833(14) 0.23299(15) 0.3508(6)
H22 H 0.8591 0.2280 0.3563
C40 C 0.89155(15) 0.22615(15) 0.4390(5)
H23 H 0.8810 0.2170 0.5030
C41 C 0.91928(13) 0.23268(13) 0.4315(4)
H24 H 0.9275 0.2277 0.4897
C42 C 0.93593(11) 0.24702(10) 0.3355(4)
C43 C 0.81223(10) 0.06491(11) 0.2705(4)
C44 C 0.81414(12) 0.07936(14) 0.3727(4)
H25 H 0.8009 0.0695 0.4293
C45 C 0.83470(14) 0.10693(15) 0.3897(5)
H26 H 0.8352 0.1160 0.4568
C46 C 0.85567(13) 0.12228(14) 0.3058(5)
H27 H 0.8697 0.1413 0.3179
C47 C 0.85519(12) 0.10918(12) 0.2082(5)
H28 H 0.8690 0.1194 0.1538
C48 C 0.83384(10) 0.08010(11) 0.1876(4)
C49 C 0.83270(10) 0.06568(11) 0.0883(4)
C50 C 0.85623(12) 0.07997(12) 0.0015(4)
C51 C 0.80992(11) 0.03772(11) 0.0692(4)
C56 C 0.78884(11) 0.02408(11) 0.1558(4)
C59 C 0.9943(2) 0.29463(16) 0.5330(7)
H40 H 0.9745 0.2892 0.5212
H44 H 0.9843 0.1871 0.5617
O13 O 0.73550(8) 0.03008(8) 0.2613(3)
O15 O 0.77336(13) 0.00235(10) 0.4562(3)
C54 C 0.76349(15) 0.98239(13) 0.0381(6)
H31 H 0.7482 0.9639 0.0268
C55 C 0.76600(13) 0.99586(12) 0.1366(5)
H32 H 0.7524 0.9864 0.1928
O14 O 0.72690(13) 0.99684(10) 0.4613(3)
C54_2 C 0.01761(13) 0.78110(20) 0.0381(6)
H31_2 H 0.0361 0.7843 0.0268
C55_2 C 0.00414(12) 0.77014(18) 0.1366(5)
H32_2 H 0.0136 0.7660 0.1928
O14_2 O 0.00316(10) 0.73006(16) 0.4613(3)
Cu3_2 Cu 0.762492(13) 0.743292(19) 0.43890(5)
Cu4_2 Cu 0.981440(13) 0.738600(19) 0.35877(5)
O3_2 O 0.79478(8) 0.76499(11) 0.3403(3)
O4_2 O 0.82278(12) 0.74972(16) 0.4120(4)
O5_2 O 0.69675(8) 0.62792(11) 0.0720(3)
O7_2 O 0.92218(8) 0.80058(11) 0.0230(3)
O11_2 O 0.73006(8) 0.72690(13) 0.5387(3)
O12_2 O 0.77101(9) 0.77336(13) 0.5438(3)
N2_2 N 0.87054(9) 0.79887(13) 0.0504(3)
N3_2 N 0.74706(9) 0.71079(13) 0.3303(3)
N4_2 N 0.96225(9) 0.75300(13) 0.2530(3)
C15_2 C 0.87496(11) 0.81532(16) 0.1417(5)
C16_2 C 0.89654(14) 0.84443(21) 0.1428(6)
H9_2 H 0.9075 0.8525 0.0786
C17_2 C 0.90174(18) 0.86104(25) 0.2358(7)
H10_2 H 0.9164 0.8801 0.2350
C18_2 C 0.88500(18) 0.84944(25) 0.3331(7)
H11_2 H 0.8889 0.8609 0.3964
C19_2 C 0.86360(15) 0.82220(21) 0.3358(5)
H12_2 H 0.8525 0.8151 0.4004
C20_2 C 0.85751(11) 0.80376(16) 0.2403(4)
C21_2 C 0.83612(10) 0.77484(14) 0.2403(4)
C22_2 C 0.81686(12) 0.76211(18) 0.3413(4)
C23_2 C 0.83215(10) 0.75763(14) 0.1466(4)
C24_2 C 0.81161(12) 0.72772(17) 0.1407(5)
H13_2 H 0.8000 0.7187 0.2027
C25_2 C 0.80846(13) 0.71207(20) 0.0481(5)
H14_2 H 0.7950 0.6924 0.0467
C28_2 C 0.84986(10) 0.77092(14) 0.0505(4)
C29_2 C 0.73357(11) 0.71289(16) 0.2371(4)
C30_2 C 0.72723(14) 0.73563(18) 0.2300(6)
H17_2 H 0.7316 0.7483 0.2898
C31_2 C 0.71479(16) 0.73889(21) 0.1359(7)
H18_2 H 0.7108 0.7539 0.1322
C32_2 C 0.70788(16) 0.72019(22) 0.0447(6)
C33_2 C 0.71273(13) 0.69802(18) 0.0495(5)
C34_2 C 0.72569(11) 0.69329(16) 0.1451(4)
C35_2 C 0.73148(10) 0.67077(15) 0.1527(4)
C36_2 C 0.72217(12) 0.64885(17) 0.0601(4)
C37_2 C 0.74559(10) 0.66845(15) 0.2474(4)
C38_2 C 0.75317(13) 0.64683(18) 0.2584(5)
H21_2 H 0.7486 0.6335 0.2012
C39_2 C 0.76701(15) 0.64534(21) 0.3508(6)
H22_2 H 0.7720 0.6311 0.3563
C40_2 C 0.77385(15) 0.66540(21) 0.4390(5)
H23_2 H 0.7830 0.6640 0.5030
C41_2 C 0.76732(13) 0.68660(18) 0.4315(4)
H24_2 H 0.7723 0.6998 0.4897
C42_2 C 0.75298(10) 0.68891(15) 0.3355(4)
C43_2 C 0.93509(11) 0.74732(15) 0.2705(4)
C44_2 C 0.92064(14) 0.73478(18) 0.3727(4)
H25_2 H 0.9305 0.7314 0.4293
C45_2 C 0.89307(15) 0.72777(21) 0.3897(5)
H26_2 H 0.8840 0.7192 0.4568
C46_2 C 0.87772(14) 0.73339(19) 0.3058(5)
H27_2 H 0.8587 0.7284 0.3179
C47_2 C 0.89082(12) 0.74601(17) 0.2082(5)
H28_2 H 0.8806 0.7496 0.1538
C48_2 C 0.91990(11) 0.75374(15) 0.1876(4)
C49_2 C 0.93432(11) 0.76702(15) 0.0883(4)
C50_2 C 0.92003(12) 0.77626(17) 0.0015(4)
C51_2 C 0.96228(11) 0.77220(16) 0.0692(4)
C56_2 C 0.97592(11) 0.76476(16) 0.1558(4)
C59_2 C 0.70537(16) 0.69967(26) 0.5330(7)
H39_2 H 0.6948 0.6958 0.6019
H40_2 H 0.7108 0.6853 0.5212
H41_2 H 0.6935 0.6992 0.4718
C60_2 C 0.79698(15) 0.80038(25) 0.5518(7)
H42_2 H 0.7958 0.8109 0.6147
H43_2 H 0.7997 0.8112 0.4843
H44_2 H 0.8129 0.7972 0.5617
O13_2 O 0.96992(8) 0.70541(11) 0.2613(3)
O15_2 O 0.99765(10) 0.77101(16) 0.4562(3)
Cu6_2 Cu 0.738600(19) 0.757160(23) 0.64123(5)
Cu3_3 Cu 0.256708(19) 0.019200(14) 0.43890(5)
Cu4_3 Cu 0.261400(19) 0.242840(14) 0.35877(5)
O3_3 O 0.23501(11) 0.02979(8) 0.3403(3)
O4_3 O 0.25028(16) 0.07306(11) 0.4120(4)
O5_3 O 0.37208(11) 0.06883(8) 0.0720(3)
O7_3 O 0.19942(11) 0.12160(8) 0.0230(3)
O11_3 O 0.27310(13) 0.00316(10) 0.5387(3)
N2_3 N 0.20113(13) 0.07167(9) 0.0504(3)
N3_3 N 0.28921(13) 0.03627(9) 0.3303(3)
N4_3 N 0.24700(13) 0.20925(9) 0.2530(3)
C15_3 C 0.18468(16) 0.05964(11) 0.1417(5)
C16_3 C 0.15557(21) 0.05211(15) 0.1428(6)
H9_3 H 0.1475 0.0550 0.0786
C17_3 C 0.13896(25) 0.04070(18) 0.2358(7)
H10_3 H 0.1199 0.0363 0.2350
C18_3 C 0.15056(25) 0.03556(18) 0.3331(7)
H11_3 H 0.1391 0.0280 0.3964
C19_3 C 0.17780(21) 0.04140(14) 0.3358(5)
H12_3 H 0.1849 0.0374 0.4004
C20_3 C 0.19624(16) 0.05375(11) 0.2403(4)
C21_3 C 0.22516(14) 0.06128(10) 0.2403(4)
C22_3 C 0.23789(18) 0.05475(13) 0.3413(4)
C23_3 C 0.24237(14) 0.07452(10) 0.1466(4)
C24_3 C 0.27228(17) 0.08389(12) 0.1407(5)
H13_3 H 0.2813 0.0813 0.2027
C25_3 C 0.28793(20) 0.09639(15) 0.0481(5)
H14_3 H 0.3076 0.1026 0.0467
C28_3 C 0.22908(14) 0.07894(10) 0.0505(4)
C29_3 C 0.28711(16) 0.02068(11) 0.2371(4)
C33_3 C 0.30198(18) 0.01471(13) 0.0495(5)
C34_3 C 0.30671(16) 0.03240(11) 0.1451(4)
C35_3 C 0.32923(15) 0.06071(11) 0.1527(4)
C36_3 C 0.35115(17) 0.07332(12) 0.0601(4)
C37_3 C 0.33155(15) 0.07714(11) 0.2474(4)
C38_3 C 0.35317(18) 0.10634(12) 0.2584(5)
H21_3 H 0.3665 0.1151 0.2012
C39_3 C 0.35466(21) 0.12167(14) 0.3508(6)
H22_3 H 0.3689 0.1409 0.3563
C40_3 C 0.33460(21) 0.10845(15) 0.4390(5)
H23_3 H 0.3360 0.1190 0.5030
C41_3 C 0.31340(18) 0.08072(13) 0.4315(4)
H24_3 H 0.3002 0.0725 0.4897
C42_3 C 0.31109(15) 0.06407(11) 0.3355(4)
C43_3 C 0.25268(15) 0.18777(10) 0.2705(4)
C44_3 C 0.26522(18) 0.18586(12) 0.3727(4)
H25_3 H 0.2686 0.1991 0.4293
C45_3 C 0.27223(21) 0.16530(14) 0.3897(5)
H26_3 H 0.2808 0.1648 0.4568
C46_3 C 0.26661(19) 0.14433(13) 0.3058(5)
H27_3 H 0.2716 0.1303 0.3179
C47_3 C 0.25399(17) 0.14481(12) 0.2082(5)
H28_3 H 0.2504 0.1310 0.1538
C48_3 C 0.24626(15) 0.16616(10) 0.1876(4)
C49_3 C 0.23298(15) 0.16730(10) 0.0883(4)
C50_3 C 0.22374(17) 0.14377(12) 0.0015(4)
C51_3 C 0.22780(16) 0.19008(11) 0.0692(4)
C54_3 C 0.21890(20) 0.23651(15) 0.0381(6)
H31_3 H 0.2157 0.2518 0.0268
C55_3 C 0.22986(18) 0.23400(13) 0.1366(5)
H32_3 H 0.2340 0.2476 0.1928
C56_3 C 0.23524(16) 0.21116(11) 0.1558(4)
C59_3 C 0.30033(26) 0.0057(2) 0.5330(7)
H40_3 H 0.3147 0.0255 0.5212
H44_3 H 0.2028 0.0157 0.5617
O13_3 O 0.29459(11) 0.26450(8) 0.2613(3)
O14_3 O 0.26994(16) 0.27310(13) 0.4613(3)
O15_3 O 0.22899(16) 0.22664(13) 0.4562(3)
O12_3 O 0.22664(13) 0.99765(10) 0.5438(3)
C30_3 C 0.26437(18) 0.99160(12) 0.2300(6)
H17_3 H 0.2517 0.9833 0.2898
C31_3 C 0.26111(21) 0.97590(14) 0.1359(7)
H18_3 H 0.2461 0.9569 0.1322
C32_3 C 0.27981(22) 0.98769(15) 0.0447(6)
H39_3 H 0.3042 0.9990 0.6019
H41_3 H 0.3008 0.9943 0.4718
C60_3 C 0.19962(25) 0.9966(2) 0.5518(7)
H42_3 H 0.1891 0.9849 0.6147
H43_3 H 0.1888 0.9885 0.4843
Cu6_3 Cu 0.242840(23) 0.981440(13) 0.64123(5)
O1 O 0.63742(9) 0.43795(8) 0.9714(3)
N1 N 0.71931(9) 0.46589(9) 0.7117(3)
C1 C 0.69622(10) 0.43863(10) 0.7082(4)
C2 C 0.69230(12) 0.42132(13) 0.6116(4)
H1 H 0.7051 0.4289 0.5517
C3 C 0.67037(14) 0.39414(14) 0.6064(5)
H2 H 0.6683 0.3831 0.5431
C4 C 0.65029(15) 0.38193(13) 0.6961(5)
H3 H 0.6352 0.3630 0.6911
C5 C 0.65314(13) 0.39759(12) 0.7875(5)
H4 H 0.6400 0.3893 0.8458
C6 C 0.67597(11) 0.42677(11) 0.7974(4)
C7 C 0.67955(11) 0.44390(11) 0.8912(4)
C8 C 0.65785(13) 0.43271(12) 0.9857(4)
C9 C 0.70336(11) 0.47198(12) 0.8971(4)
C10 C 0.70943(14) 0.49017(14) 0.9915(5)
C11 C 0.73310(16) 0.51685(16) 0.9944(7)
C12 C 0.75145(17) 0.52700(17) 0.9013(7)
H7 H 0.7672 0.5455 0.9031
C13 C 0.74695(15) 0.51058(15) 0.8083(6)
H8 H 0.7596 0.5178 0.7479
C14 C 0.72272(12) 0.48217(12) 0.8042(5)
N5 N 0.58675(13) 0.38597(9) 0.9549(3)
Cu7 Cu 0.750902(14) 0.480609(20) 0.60023(5)
O1_2 O 0.56205(8) 0.19946(12) 0.9714(3)
N1_2 N 0.53411(9) 0.25341(13) 0.7117(3)
C1_2 C 0.56137(10) 0.25758(14) 0.7082(4)
C2_2 C 0.57868(13) 0.27097(18) 0.6116(4)
H1_2 H 0.5711 0.2761 0.5517
C3_2 C 0.60586(14) 0.27622(20) 0.6064(5)
H2_2 H 0.6169 0.2851 0.5431
C4_2 C 0.61807(13) 0.26835(20) 0.6961(5)
H3_2 H 0.6370 0.2721 0.6911
C5_2 C 0.60241(12) 0.25554(18) 0.7875(5)
H4_2 H 0.6107 0.2506 0.8458
C6_2 C 0.57323(11) 0.24919(16) 0.7974(4)
C7_2 C 0.55610(11) 0.23564(16) 0.8912(4)
C8_2 C 0.56729(12) 0.22513(18) 0.9857(4)
C9_2 C 0.52802(12) 0.23137(16) 0.8971(4)
C10_2 C 0.50983(14) 0.21925(20) 0.9915(5)
C11_2 C 0.48315(16) 0.21624(23) 0.9944(7)
C12_2 C 0.47300(17) 0.22444(24) 0.9013(7)
H7_2 H 0.4545 0.2216 0.9031
C13_2 C 0.48942(15) 0.23636(21) 0.8083(6)
H8_2 H 0.4822 0.2417 0.7479
C14_2 C 0.51783(12) 0.24054(17) 0.8042(5)
N5_2 N 0.61403(9) 0.20077(16) 0.9549(3)
Cu7_2 Cu 0.519391(20) 0.270292(24) 0.60023(5)
O1_3 O 0.80054(12) 0.36258(9) 0.9714(3)
N1_3 N 0.74659(13) 0.28069(9) 0.7117(3)
C1_3 C 0.74242(14) 0.30378(10) 0.7082(4)
C2_3 C 0.72903(18) 0.30770(12) 0.6116(4)
H1_3 H 0.7239 0.2949 0.5517
C3_3 C 0.72378(20) 0.32963(14) 0.6064(5)
H2_3 H 0.7149 0.3317 0.5431
C4_3 C 0.73165(20) 0.34971(15) 0.6961(5)
H3_3 H 0.7279 0.3648 0.6911
C5_3 C 0.74446(18) 0.34686(13) 0.7875(5)
H4_3 H 0.7494 0.3600 0.8458
C6_3 C 0.75081(16) 0.32403(11) 0.7974(4)
C7_3 C 0.76436(16) 0.32045(11) 0.8912(4)
C8_3 C 0.77487(18) 0.34215(13) 0.9857(4)
C9_3 C 0.76863(16) 0.29664(11) 0.8971(4)
C10_3 C 0.78075(20) 0.29057(14) 0.9915(5)
C11_3 C 0.78376(23) 0.26690(16) 0.9944(7)
C12_3 C 0.77556(24) 0.24855(17) 0.9013(7)
H7_3 H 0.7784 0.2328 0.9031
C13_3 C 0.76364(21) 0.25305(15) 0.8083(6)
H8_3 H 0.7583 0.2404 0.7479
C14_3 C 0.75946(17) 0.27728(12) 0.8042(5)
N5_3 N 0.79923(16) 0.41325(13) 0.9549(3)
Cu7_3 Cu 0.729708(24) 0.249098(14) 0.60023(5)
Cu1 Cu 0.270292(14) 0.750902(14) 0.39977(5)
Cu2 Cu 0.246240(14) 0.764797(14) 0.60124(5)
O1_4 O 0.30408(9) 0.77129(8) 0.3048(3)
O2 O 0.32753(12) 0.75310(11) 0.3959(4)
O5_4 O 0.26450(8) 0.96992(8) 0.7387(3)
O6 O 0.24702(12) 0.92788(11) 0.6504(4)
O7_4 O 0.21173(8) 0.74449(8) 0.6897(3)
O8 O 0.18636(10) 0.75874(11) 0.5865(4)
O9 O 0.23791(8) 0.73481(8) 0.4970(3)
O10 O 0.27966(8) 0.78084(8) 0.5067(3)
N1_4 N 0.38597(9) 0.79923(9) 0.0451(3)
N2_4 N 0.26166(9) 0.79613(9) 0.7171(3)
N3_4 N 0.29706(9) 0.91961(9) 0.9970(3)
N4_4 N 0.12408(9) 0.70442(9) 0.9197(3)
C1_4 C 0.36288(10) 0.77197(10) 0.0416(4)
C4_4 C 0.31695(15) 0.71527(13) 0.0295(5)
H3_4 H 0.3018 0.6964 0.0245
C5_4 C 0.31980(13) 0.73093(12) 0.1209(5)
H4_4 H 0.3066 0.7227 0.1792
C6_4 C 0.34263(11) 0.76011(11) 0.1308(4)
C7_4 C 0.34621(11) 0.77724(11) 0.2246(4)
C8_4 C 0.32451(13) 0.76605(12) 0.3191(4)
C9_4 C 0.37002(11) 0.80532(12) 0.2305(4)
C10_4 C 0.37609(14) 0.82351(14) 0.3249(5)
H5 H 0.3636 0.8171 0.3860
C11_4 C 0.39976(16) 0.85019(16) 0.3278(7)
H6 H 0.4037 0.8617 0.3913
C12_4 C 0.41811(17) 0.86034(17) 0.2347(7)
H7_4 H 0.4338 0.8789 0.2365
C13_4 C 0.41361(15) 0.84392(15) 0.1417(6)
H8_4 H 0.4262 0.8512 0.0813
C14_4 C 0.38938(12) 0.81551(12) 0.1376(5)
C15_4 C 0.27369(11) 0.79171(11) 0.8084(5)
C16_4 C 0.28122(15) 0.77013(14) 0.8095(6)
H9_4 H 0.2783 0.7592 0.7453
C17_4 C 0.29263(18) 0.76493(18) 0.9025(7)
H10_4 H 0.2970 0.7503 0.9017
C18_4 C 0.29777(18) 0.78167(18) 0.9998(7)
C20_4 C 0.27958(11) 0.80916(11) 0.9070(4)
C21_4 C 0.27205(10) 0.83055(10) 0.9070(4)
C23_4 C 0.25881(10) 0.83452(10) 0.8133(4)
C24_4 C 0.24944(12) 0.85506(12) 0.8074(5)
H13_4 H 0.2520 0.8667 0.8694
C25_4 C 0.23694(15) 0.85821(13) 0.7148(5)
H14_4 H 0.2307 0.8717 0.7134
C26 C 0.23320(15) 0.84080(14) 0.6187(5)
H15 H 0.2249 0.8432 0.5541
C27 C 0.24148(13) 0.82114(12) 0.6206(4)
H16 H 0.2387 0.8100 0.5571
C28_4 C 0.25439(10) 0.81681(10) 0.7172(4)
C29_4 C 0.31265(11) 0.93310(11) 0.9038(4)
C30_4 C 0.34173(12) 0.93944(14) 0.8967(6)
H17_4 H 0.3500 0.9351 0.9565
C31_4 C 0.35743(14) 0.95188(16) 0.8026(7)
H18_4 H 0.3764 0.9559 0.7989
C32_4 C 0.34564(15) 0.95879(16) 0.7114(6)
H19 H 0.3566 0.9668 0.6471
C33_4 C 0.31862(13) 0.95394(13) 0.7162(5)
H20 H 0.3112 0.9592 0.6556
C34_4 C 0.30093(11) 0.94098(11) 0.8118(4)
C35_4 C 0.27262(11) 0.93519(10) 0.8194(4)
C36_4 C 0.26001(12) 0.94450(12) 0.7268(4)
C37_4 C 0.25619(11) 0.92108(10) 0.9141(4)
C38_4 C 0.22699(12) 0.91350(13) 0.9251(5)
H21_4 H 0.2182 0.9181 0.8679
C43_4 C 0.14556(10) 0.73158(11) 0.9372(4)
C46_4 C 0.18900(13) 0.78895(14) 0.9725(5)
H27_4 H 0.2030 0.8080 0.9846
C47_4 C 0.18852(12) 0.77585(12) 0.8749(5)
H28_4 H 0.2023 0.7861 0.8205
C48_4 C 0.16717(10) 0.74677(11) 0.8543(4)
C49_4 C 0.16603(10) 0.73235(11) 0.7550(4)
C50_4 C 0.18956(12) 0.74664(12) 0.6682(4)
C51_4 C 0.14325(11) 0.70439(11) 0.7359(4)
C52 C 0.13973(13) 0.68913(13) 0.6338(5)
H29 H 0.1532 0.6976 0.5768
C53 C 0.11707(15) 0.66271(14) 0.6195(6)
H30 H 0.1147 0.6533 0.5516
C54_4 C 0.09682(15) 0.64906(13) 0.7048(6)
H31_4 H 0.0815 0.6306 0.6935
C55_4 C 0.09933(13) 0.66253(12) 0.8033(5)
H32_4 H 0.0857 0.6531 0.8595
C56_4 C 0.12217(11) 0.69075(11) 0.8225(4)
C57 C 0.21246(15) 0.70740(16) 0.4914(8)
H33 H 0.2174 0.6930 0.4726
H34 H 0.1998 0.7078 0.4351
H35 H 0.2029 0.7030 0.5629
C58 C 0.30440(16) 0.80787(15) 0.5121(7)
H36 H 0.3161 0.8107 0.4474
H37 H 0.3150 0.8091 0.5787
H38 H 0.2990 0.8225 0.5140
N5_4 N 0.25341(13) 0.71931(9) 0.2883(3)
O13_4 O 0.06883(8) 0.69675(8) 0.9280(3)
Cu2_2 Cu 0.764797(14) 0.518556(20) 0.39876(5)
O1_5 O 0.77129(8) 0.46720(12) 0.6952(3)
O2_2 O 0.75310(11) 0.42556(16) 0.6041(4)
O6_2 O 0.92788(11) 0.68085(16) 0.3496(4)
O7_5 O 0.74449(8) 0.53275(11) 0.3103(3)
O8_2 O 0.75874(11) 0.57237(15) 0.4135(4)
O9_2 O 0.73481(8) 0.49689(11) 0.5030(3)
O10_2 O 0.78084(8) 0.50117(11) 0.4933(3)
N2_5 N 0.79613(9) 0.53446(13) 0.2829(3)
N3_5 N 0.91961(9) 0.62254(13) 0.0030(3)
N4_5 N 0.70442(9) 0.58033(13) 0.0803(3)
C1_5 C 0.77197(10) 0.40908(14) 0.9584(4)
C4_5 C 0.71527(13) 0.39831(20) 0.9705(5)
H3_5 H 0.6964 0.3945 0.9755
C5_5 C 0.73093(12) 0.41112(18) 0.8791(5)
H4_5 H 0.7227 0.4160 0.8208
C6_5 C 0.76011(11) 0.41747(16) 0.8692(4)
C7_5 C 0.77724(11) 0.43102(16) 0.7754(4)
C8_5 C 0.76605(12) 0.44153(18) 0.6809(4)
C9_5 C 0.80532(12) 0.43529(16) 0.7695(4)
C10_5 C 0.82351(14) 0.44741(20) 0.6751(5)
H5_2 H 0.8171 0.4534 0.6140
C11_5 C 0.85019(16) 0.45042(23) 0.6722(7)
H6_2 H 0.8617 0.4579 0.6087
C12_5 C 0.86034(17) 0.44222(24) 0.7653(7)
H7_5 H 0.8789 0.4450 0.7635
C13_5 C 0.84392(15) 0.43030(21) 0.8583(6)
H8_5 H 0.8512 0.4249 0.9187
C14_5 C 0.81551(12) 0.42612(17) 0.8624(5)
C15_5 C 0.79171(11) 0.51801(16) 0.1916(5)
C16_5 C 0.77013(14) 0.48890(21) 0.1905(6)
H9_5 H 0.7592 0.4808 0.2547
C17_5 C 0.76493(18) 0.47229(25) 0.0975(7)
H10_5 H 0.7503 0.4532 0.0983
C18_5 C 0.78167(18) 0.48389(25) 0.0002(7)
C20_5 C 0.80916(11) 0.52957(16) 0.0930(4)
C21_5 C 0.83055(10) 0.55849(14) 0.0930(4)
C23_5 C 0.83452(10) 0.57570(14) 0.1867(4)
C24_5 C 0.85506(12) 0.60561(17) 0.1926(5)
H13_5 H 0.8667 0.6146 0.1306
C25_5 C 0.85821(13) 0.62126(20) 0.2852(5)
H14_5 H 0.8717 0.6409 0.2866
C26_2 C 0.84080(14) 0.60759(21) 0.3813(5)
H15_2 H 0.8432 0.6182 0.4459
C27_2 C 0.82114(12) 0.57965(18) 0.3794(4)
H16_2 H 0.8100 0.5712 0.4429
C28_5 C 0.81681(10) 0.56241(14) 0.2828(4)
C29_5 C 0.93310(11) 0.62044(16) 0.0962(4)
C30_5 C 0.93944(14) 0.59770(18) 0.1033(6)
H17_5 H 0.9351 0.5850 0.0435
C31_5 C 0.95188(16) 0.59444(21) 0.1974(7)
H18_5 H 0.9559 0.5794 0.2011
C32_5 C 0.95879(16) 0.61314(22) 0.2886(6)
H19_2 H 0.9668 0.6101 0.3529
C33_5 C 0.95394(13) 0.63531(18) 0.2838(5)
H20_2 H 0.9592 0.6479 0.3444
C34_5 C 0.94098(11) 0.64004(16) 0.1882(4)
C35_5 C 0.93519(10) 0.66256(15) 0.1806(4)
C36_5 C 0.94450(12) 0.68448(17) 0.2732(4)
C37_5 C 0.92108(10) 0.66488(15) 0.0859(4)
C38_5 C 0.91350(13) 0.68650(18) 0.0749(5)
H21_5 H 0.9181 0.6998 0.1321
C43_5 C 0.73158(11) 0.58601(15) 0.0628(4)
C46_5 C 0.78895(14) 0.59994(19) 0.0275(5)
H27_5 H 0.8080 0.6049 0.0154
C47_5 C 0.77585(12) 0.58732(17) 0.1251(5)
H28_5 H 0.7861 0.5837 0.1795
C48_5 C 0.74677(11) 0.57959(15) 0.1457(4)
C49_5 C 0.73235(11) 0.56631(15) 0.2450(4)
C50_5 C 0.74664(12) 0.55707(17) 0.3318(4)
C51_5 C 0.70439(11) 0.56113(16) 0.2641(4)
C52_2 C 0.68913(13) 0.54939(18) 0.3662(5)
H29_2 H 0.6976 0.5443 0.4232
C53_2 C 0.66271(14) 0.54563(21) 0.3805(6)
H30_2 H 0.6533 0.5385 0.4484
C54_5 C 0.64906(13) 0.55223(20) 0.2952(6)
H31_5 H 0.6306 0.5490 0.3065
C55_5 C 0.66253(12) 0.56319(18) 0.1967(5)
H32_5 H 0.6531 0.5673 0.1405
C56_5 C 0.69075(11) 0.56857(16) 0.1775(4)
C57_2 C 0.70740(16) 0.49493(22) 0.5086(8)
H33_2 H 0.6930 0.4755 0.5274
H34_2 H 0.7078 0.5079 0.5649
H35_2 H 0.7030 0.5000 0.4371
C58_2 C 0.80787(15) 0.50346(22) 0.4879(7)
H36_2 H 0.8107 0.4945 0.5526
H37_2 H 0.8091 0.4940 0.4213
H38_2 H 0.8225 0.5234 0.4860
Cu2_3 Cu 0.481444(20) 0.246240(14) 0.39876(5)
O1_6 O 0.53280(12) 0.30408(9) 0.6952(3)
O2_3 O 0.57444(16) 0.32753(12) 0.6041(4)
O6_3 O 0.31915(16) 0.24702(12) 0.3496(4)
O7_6 O 0.46725(11) 0.21173(8) 0.3103(3)
O8_3 O 0.42763(15) 0.18636(10) 0.4135(4)
O9_3 O 0.50311(11) 0.23791(8) 0.5030(3)
O10_3 O 0.49883(11) 0.27966(8) 0.4933(3)
N2_6 N 0.46554(13) 0.26166(9) 0.2829(3)
N3_6 N 0.37746(13) 0.29706(9) 0.0030(3)
N4_6 N 0.41967(13) 0.12408(9) 0.0803(3)
C1_6 C 0.59092(14) 0.36288(10) 0.9584(4)
C4_6 C 0.60169(20) 0.31695(15) 0.9705(5)
H3_6 H 0.6055 0.3018 0.9755
C5_6 C 0.58888(18) 0.31980(13) 0.8791(5)
H4_6 H 0.5840 0.3066 0.8208
C6_6 C 0.58253(16) 0.34263(11) 0.8692(4)
C7_6 C 0.56898(16) 0.34621(11) 0.7754(4)
C8_6 C 0.55847(18) 0.32451(13) 0.6809(4)
C9_6 C 0.56471(16) 0.37002(11) 0.7695(4)
C10_6 C 0.55259(20) 0.37609(14) 0.6751(5)
H5_3 H 0.5466 0.3636 0.6140
C11_6 C 0.54958(23) 0.39976(16) 0.6722(7)
H6_3 H 0.5421 0.4037 0.6087
C12_6 C 0.55778(24) 0.41811(17) 0.7653(7)
H7_6 H 0.5550 0.4338 0.7635
C13_6 C 0.56970(21) 0.41361(15) 0.8583(6)
H8_6 H 0.5751 0.4262 0.9187
C14_6 C 0.57388(17) 0.38938(12) 0.8624(5)
C15_6 C 0.48199(16) 0.27369(11) 0.1916(5)
C16_6 C 0.51110(21) 0.28122(15) 0.1905(6)
H9_6 H 0.5192 0.2783 0.2547
C17_6 C 0.52771(25) 0.29263(18) 0.0975(7)
H10_6 H 0.5468 0.2970 0.0983
C18_6 C 0.51611(25) 0.29777(18) 0.0002(7)
C20_6 C 0.47043(16) 0.27958(11) 0.0930(4)
C21_6 C 0.44151(14) 0.27205(10) 0.0930(4)
C23_6 C 0.42430(14) 0.25881(10) 0.1867(4)
C24_6 C 0.39439(17) 0.24944(12) 0.1926(5)
H13_6 H 0.3854 0.2520 0.1306
C25_6 C 0.37874(20) 0.23694(15) 0.2852(5)
H14_6 H 0.3591 0.2307 0.2866
C26_3 C 0.39241(21) 0.23320(15) 0.3813(5)
H15_3 H 0.3818 0.2249 0.4459
C27_3 C 0.42035(18) 0.24148(13) 0.3794(4)
H16_3 H 0.4288 0.2387 0.4429
C28_6 C 0.43759(14) 0.25439(10) 0.2828(4)
C29_6 C 0.37956(16) 0.31265(11) 0.0962(4)
C30_6 C 0.40230(18) 0.34173(12) 0.1033(6)
H17_6 H 0.4150 0.3500 0.0435
C31_6 C 0.40556(21) 0.35743(14) 0.1974(7)
H18_6 H 0.4206 0.3764 0.2011
C32_6 C 0.38686(22) 0.34564(15) 0.2886(6)
H19_3 H 0.3899 0.3566 0.3529
C33_6 C 0.36469(18) 0.31862(13) 0.2838(5)
H20_3 H 0.3521 0.3112 0.3444
C34_6 C 0.35996(16) 0.30093(11) 0.1882(4)
C35_6 C 0.33744(15) 0.27262(11) 0.1806(4)
C36_6 C 0.31552(17) 0.26001(12) 0.2732(4)
C37_6 C 0.33512(15) 0.25619(11) 0.0859(4)
C38_6 C 0.31350(18) 0.22699(12) 0.0749(5)
H21_6 H 0.3002 0.2182 0.1321
C43_6 C 0.41399(15) 0.14556(10) 0.0628(4)
C46_6 C 0.40006(19) 0.18900(13) 0.0275(5)
H27_6 H 0.3951 0.2030 0.0154
C47_6 C 0.41268(17) 0.18852(12) 0.1251(5)
H28_6 H 0.4163 0.2023 0.1795
C48_6 C 0.42041(15) 0.16717(10) 0.1457(4)
C49_6 C 0.43369(15) 0.16603(10) 0.2450(4)
C50_6 C 0.44293(17) 0.18956(12) 0.3318(4)
C51_6 C 0.43887(16) 0.14325(11) 0.2641(4)
C52_3 C 0.45061(18) 0.13973(13) 0.3662(5)
H29_3 H 0.4557 0.1532 0.4232
C53_3 C 0.45437(21) 0.11707(15) 0.3805(6)
H30_3 H 0.4615 0.1147 0.4484
C54_6 C 0.44777(20) 0.09682(15) 0.2952(6)
H31_6 H 0.4510 0.0815 0.3065
C55_6 C 0.43681(18) 0.09933(13) 0.1967(5)
H32_6 H 0.4327 0.0857 0.1405
C56_6 C 0.43143(16) 0.12217(11) 0.1775(4)
C57_3 C 0.50507(22) 0.21246(15) 0.5086(8)
H33_3 H 0.5245 0.2174 0.5274
H34_3 H 0.4921 0.1998 0.5649
H35_3 H 0.5000 0.2029 0.4371
C58_3 C 0.49654(22) 0.30440(16) 0.4879(7)
H36_3 H 0.5055 0.3161 0.5526
H37_3 H 0.5060 0.3150 0.4213
H38_3 H 0.4766 0.2990 0.4860
C54_7 C 0.23651(15) 0.01761(13) 0.9619(6)
H31_7 H 0.2518 0.0361 0.9732
C55_7 C 0.23400(13) 0.00414(12) 0.8634(5)
H32_7 H 0.2476 0.0136 0.8072
Cu3_4 Cu 0.019200(14) 0.762492(13) 0.56110(5)
O3_4 O 0.02979(8) 0.79478(8) 0.6597(3)
O4_4 O 0.07306(11) 0.82278(12) 0.5880(4)
O7_7 O 0.12160(8) 0.92218(8) 0.9770(3)
N2_7 N 0.07167(9) 0.87054(9) 0.9496(3)
N3_7 N 0.03627(9) 0.74706(9) 0.6697(3)
N4_7 N 0.20925(9) 0.96225(9) 0.7470(3)
C15_7 C 0.05964(11) 0.87496(11) 0.8583(5)
C16_7 C 0.05211(15) 0.89654(14) 0.8572(6)
H9_7 H 0.0550 0.9075 0.9214
C17_7 C 0.04070(18) 0.90174(18) 0.7642(7)
H10_7 H 0.0363 0.9164 0.7650
C18_7 C 0.03556(18) 0.88500(18) 0.6669(7)
H11_4 H 0.0280 0.8889 0.6036
C19_4 C 0.04140(14) 0.86360(15) 0.6642(5)
H12_4 H 0.0374 0.8525 0.5996
C20_7 C 0.05375(11) 0.85751(11) 0.7597(4)
C21_7 C 0.06128(10) 0.83612(10) 0.7597(4)
C22_4 C 0.05475(13) 0.81686(12) 0.6587(4)
C23_7 C 0.07452(10) 0.83215(10) 0.8534(4)
C24_7 C 0.08389(12) 0.81161(12) 0.8593(5)
H13_7 H 0.0813 0.8000 0.7973
C25_7 C 0.09639(15) 0.80846(13) 0.9519(5)
H14_7 H 0.1026 0.7950 0.9533
C28_7 C 0.07894(10) 0.84986(10) 0.9495(4)
C29_7 C 0.02068(11) 0.73357(11) 0.7629(4)
C33_7 C 0.01471(13) 0.71273(13) 0.9505(5)
C34_7 C 0.03240(11) 0.72569(11) 0.8549(4)
C35_7 C 0.06071(11) 0.73148(10) 0.8473(4)
C36_7 C 0.07332(12) 0.72217(12) 0.9399(4)
C37_7 C 0.07714(11) 0.74559(10) 0.7526(4)
C38_7 C 0.10634(12) 0.75317(13) 0.7416(5)
H21_7 H 0.1151 0.7486 0.7988
C39_4 C 0.12167(14) 0.76701(15) 0.6492(6)
H22_4 H 0.1409 0.7720 0.6437
C40_4 C 0.10845(15) 0.77385(15) 0.5610(5)
H23_4 H 0.1190 0.7830 0.4970
C41_4 C 0.08072(13) 0.76732(13) 0.5685(4)
H24_4 H 0.0725 0.7723 0.5103
C42_4 C 0.06407(11) 0.75298(10) 0.6645(4)
C43_7 C 0.18777(10) 0.93509(11) 0.7295(4)
C44_4 C 0.18586(12) 0.92064(14) 0.6273(4)
H25_4 H 0.1991 0.9305 0.5707
C45_4 C 0.16530(14) 0.89307(15) 0.6103(5)
H26_4 H 0.1648 0.8840 0.5432
C46_7 C 0.14433(13) 0.87772(14) 0.6942(5)
H27_7 H 0.1303 0.8587 0.6821
C47_7 C 0.14481(12) 0.89082(12) 0.7918(5)
H28_7 H 0.1310 0.8806 0.8462
C48_7 C 0.16616(10) 0.91990(11) 0.8124(4)
C49_7 C 0.16730(10) 0.93432(11) 0.9117(4)
C50_7 C 0.14377(12) 0.92003(12) 0.9985(4)
C51_7 C 0.19008(11) 0.96228(11) 0.9308(4)
C56_7 C 0.21116(11) 0.97592(11) 0.8442(4)
C59_4 C 0.0057(2) 0.70537(16) 0.4670(7)
H40_4 H 0.0255 0.7108 0.4788
H44_4 H 0.0157 0.8129 0.4383
C30_7 C 0.99160(12) 0.72723(14) 0.7700(6)
H17_7 H 0.9833 0.7316 0.7102
C31_7 C 0.97590(14) 0.71479(16) 0.8641(7)
H18_7 H 0.9569 0.7108 0.8678
C32_7 C 0.98769(15) 0.70788(16) 0.9553(6)
H39_4 H 0.9990 0.6948 0.3981
H41_4 H 0.9943 0.6935 0.5282
C60_4 C 0.9966(2) 0.79698(15) 0.4482(7)
H42_4 H 0.9849 0.7958 0.3853
H43_4 H 0.9885 0.7997 0.5157
Cu3_5 Cu 0.237508(13) 0.256708(19) 0.56110(5)
O3_5 O 0.20522(8) 0.23501(11) 0.6597(3)
O4_5 O 0.17722(12) 0.25028(16) 0.5880(4)
O5_5 O 0.30325(8) 0.37208(11) 0.9280(3)
O7_8 O 0.07782(8) 0.19942(11) 0.9770(3)
N2_8 N 0.12946(9) 0.20113(13) 0.9496(3)
N3_8 N 0.25294(9) 0.28921(13) 0.6697(3)
N4_8 N 0.03775(9) 0.24700(13) 0.7470(3)
C15_8 C 0.12504(11) 0.18468(16) 0.8583(5)
C16_8 C 0.10346(14) 0.15557(21) 0.8572(6)
H9_8 H 0.0925 0.1475 0.9214
C17_8 C 0.09826(18) 0.13896(25) 0.7642(7)
H10_8 H 0.0836 0.1199 0.7650
C18_8 C 0.11500(18) 0.15056(25) 0.6669(7)
H11_5 H 0.1111 0.1391 0.6036
C19_5 C 0.13640(15) 0.17780(21) 0.6642(5)
H12_5 H 0.1475 0.1849 0.5996
C20_8 C 0.14249(11) 0.19624(16) 0.7597(4)
C21_8 C 0.16388(10) 0.22516(14) 0.7597(4)
C22_5 C 0.18314(12) 0.23789(18) 0.6587(4)
C23_8 C 0.16785(10) 0.24237(14) 0.8534(4)
C24_8 C 0.18839(12) 0.27228(17) 0.8593(5)
H13_8 H 0.2000 0.2813 0.7973
C25_8 C 0.19154(13) 0.28793(20) 0.9519(5)
H14_8 H 0.2050 0.3076 0.9533
C28_8 C 0.15014(10) 0.22908(14) 0.9495(4)
C29_8 C 0.26643(11) 0.28711(16) 0.7629(4)
C30_8 C 0.27277(14) 0.26437(18) 0.7700(6)
H17_8 H 0.2684 0.2517 0.7102
C31_8 C 0.28521(16) 0.26111(21) 0.8641(7)
H18_8 H 0.2892 0.2461 0.8678
C32_8 C 0.29212(16) 0.27981(22) 0.9553(6)
C33_8 C 0.28727(13) 0.30198(18) 0.9505(5)
C34_8 C 0.27431(11) 0.30671(16) 0.8549(4)
C35_8 C 0.26852(10) 0.32923(15) 0.8473(4)
C36_8 C 0.27783(12) 0.35115(17) 0.9399(4)
C37_8 C 0.25441(10) 0.33155(15) 0.7526(4)
C38_8 C 0.24683(13) 0.35317(18) 0.7416(5)
H21_8 H 0.2514 0.3665 0.7988
C39_5 C 0.23299(15) 0.35466(21) 0.6492(6)
H22_5 H 0.2280 0.3689 0.6437
C40_5 C 0.22615(15) 0.33460(21) 0.5610(5)
H23_5 H 0.2170 0.3360 0.4970
C41_5 C 0.23268(13) 0.31340(18) 0.5685(4)
H24_5 H 0.2277 0.3002 0.5103
C42_5 C 0.24702(10) 0.31109(15) 0.6645(4)
C43_8 C 0.06491(11) 0.25268(15) 0.7295(4)
C44_5 C 0.07936(14) 0.26522(18) 0.6273(4)
H25_5 H 0.0695 0.2686 0.5707
C45_5 C 0.10693(15) 0.27223(21) 0.6103(5)
H26_5 H 0.1160 0.2808 0.5432
C46_8 C 0.12228(14) 0.26661(19) 0.6942(5)
H27_8 H 0.1413 0.2716 0.6821
C47_8 C 0.10918(12) 0.25399(17) 0.7918(5)
H28_8 H 0.1194 0.2504 0.8462
C48_8 C 0.08010(11) 0.24626(15) 0.8124(4)
C49_8 C 0.06568(11) 0.23298(15) 0.9117(4)
C50_8 C 0.07997(12) 0.22374(17) 0.9985(4)
C51_8 C 0.03772(11) 0.22780(16) 0.9308(4)
C56_8 C 0.02408(11) 0.23524(16) 0.8442(4)
C59_5 C 0.29463(16) 0.30033(26) 0.4670(7)
H39_5 H 0.3052 0.3042 0.3981
H40_5 H 0.2892 0.3147 0.4788
H41_5 H 0.3065 0.3008 0.5282
C60_5 C 0.20302(15) 0.19962(25) 0.4482(7)
H42_5 H 0.2042 0.1891 0.3853
H43_5 H 0.2003 0.1888 0.5157
H44_5 H 0.1871 0.2028 0.4383
O13_5 O 0.03008(8) 0.29459(11) 0.7387(3)
C54_8 C 0.98239(13) 0.21890(20) 0.9619(6)
H31_8 H 0.9639 0.2157 0.9732
C55_8 C 0.99586(12) 0.22986(18) 0.8634(5)
H32_8 H 0.9864 0.2340 0.8072
C30_9 C 0.73563(18) 0.00840(12) 0.7700(6)
H17_9 H 0.7483 0.0167 0.7102
C31_9 C 0.73889(21) 0.02410(14) 0.8641(7)
H18_9 H 0.7539 0.0431 0.8678
C32_9 C 0.72019(22) 0.01231(15) 0.9553(6)
H39_6 H 0.6958 0.0010 0.3981
H41_6 H 0.6992 0.0057 0.5282
C60_6 C 0.80038(25) 0.0034(2) 0.4482(7)
H42_6 H 0.8109 0.0151 0.3853
H43_6 H 0.8112 0.0115 0.5157
Cu3_6 Cu 0.743292(19) 0.980800(14) 0.56110(5)
O3_6 O 0.76499(11) 0.97021(8) 0.6597(3)
O4_6 O 0.74972(16) 0.92694(11) 0.5880(4)
O5_6 O 0.62792(11) 0.93117(8) 0.9280(3)
O7_9 O 0.80058(11) 0.87840(8) 0.9770(3)
N2_9 N 0.79887(13) 0.92833(9) 0.9496(3)
N3_9 N 0.71079(13) 0.96373(9) 0.6697(3)
N4_9 N 0.75300(13) 0.79075(9) 0.7470(3)
C15_9 C 0.81532(16) 0.94036(11) 0.8583(5)
C16_9 C 0.84443(21) 0.94789(15) 0.8572(6)
H9_9 H 0.8525 0.9450 0.9214
C17_9 C 0.86104(25) 0.95930(18) 0.7642(7)
H10_9 H 0.8801 0.9637 0.7650
C18_9 C 0.84944(25) 0.96444(18) 0.6669(7)
H11_6 H 0.8609 0.9720 0.6036
C19_6 C 0.82220(21) 0.95860(14) 0.6642(5)
H12_6 H 0.8151 0.9626 0.5996
C20_9 C 0.80376(16) 0.94625(11) 0.7597(4)
C21_9 C 0.77484(14) 0.93872(10) 0.7597(4)
C22_6 C 0.76211(18) 0.94525(13) 0.6587(4)
C23_9 C 0.75763(14) 0.92548(10) 0.8534(4)
C24_9 C 0.72772(17) 0.91611(12) 0.8593(5)
H13_9 H 0.7187 0.9187 0.7973
C25_9 C 0.71207(20) 0.90361(15) 0.9519(5)
H14_9 H 0.6924 0.8974 0.9533
C28_9 C 0.77092(14) 0.92106(10) 0.9495(4)
C29_9 C 0.71289(16) 0.97932(11) 0.7629(4)
C33_9 C 0.69802(18) 0.98529(13) 0.9505(5)
C34_9 C 0.69329(16) 0.96760(11) 0.8549(4)
C35_9 C 0.67077(15) 0.93929(11) 0.8473(4)
C36_9 C 0.64885(17) 0.92668(12) 0.9399(4)
C37_9 C 0.66845(15) 0.92286(11) 0.7526(4)
C38_9 C 0.64683(18) 0.89366(12) 0.7416(5)
H21_9 H 0.6335 0.8849 0.7988
C39_6 C 0.64534(21) 0.87833(14) 0.6492(6)
H22_6 H 0.6311 0.8591 0.6437
C40_6 C 0.66540(21) 0.89155(15) 0.5610(5)
H23_6 H 0.6640 0.8810 0.4970
C41_6 C 0.68660(18) 0.91928(13) 0.5685(4)
H24_6 H 0.6998 0.9275 0.5103
C42_6 C 0.68891(15) 0.93593(11) 0.6645(4)
C43_9 C 0.74732(15) 0.81223(10) 0.7295(4)
C44_6 C 0.73478(18) 0.81414(12) 0.6273(4)
H25_6 H 0.7314 0.8009 0.5707
C45_6 C 0.72777(21) 0.83470(14) 0.6103(5)
H26_6 H 0.7192 0.8352 0.5432
C46_9 C 0.73339(19) 0.85567(13) 0.6942(5)
H27_9 H 0.7284 0.8697 0.6821
C47_9 C 0.74601(17) 0.85519(12) 0.7918(5)
H28_9 H 0.7496 0.8690 0.8462
C48_9 C 0.75374(15) 0.83384(10) 0.8124(4)
C49_9 C 0.76702(15) 0.83270(10) 0.9117(4)
C50_9 C 0.77626(17) 0.85623(12) 0.9985(4)
C51_9 C 0.77220(16) 0.80992(11) 0.9308(4)
C54_9 C 0.78110(20) 0.76349(15) 0.9619(6)
H31_9 H 0.7843 0.7482 0.9732
C55_9 C 0.77014(18) 0.76600(13) 0.8634(5)
H32_9 H 0.7660 0.7524 0.8072
C56_9 C 0.76476(16) 0.78884(11) 0.8442(4)
C59_6 C 0.69967(26) 0.9943(2) 0.4670(7)
H40_6 H 0.6853 0.9745 0.4788
H44_6 H 0.7972 0.9843 0.4383
O13_6 O 0.70541(11) 0.73550(8) 0.7387(3)
O1_7 O 0.36258(9) 0.56205(8) 0.0286(3)
N1_5 N 0.28069(9) 0.53411(9) 0.2883(3)
C1_7 C 0.30378(10) 0.56137(10) 0.2918(4)
C2_4 C 0.30770(12) 0.57868(13) 0.3884(4)
H1_4 H 0.2949 0.5711 0.4483
C3_4 C 0.32963(14) 0.60586(14) 0.3936(5)
H2_4 H 0.3317 0.6169 0.4569
C4_7 C 0.34971(15) 0.61807(13) 0.3039(5)
H3_7 H 0.3648 0.6370 0.3089
C5_7 C 0.34686(13) 0.60241(12) 0.2125(5)
H4_7 H 0.3600 0.6107 0.1542
C6_7 C 0.32403(11) 0.57323(11) 0.2026(4)
C7_7 C 0.32045(11) 0.55610(11) 0.1088(4)
C8_7 C 0.34215(13) 0.56729(12) 0.0143(4)
C9_7 C 0.29664(11) 0.52802(12) 0.1029(4)
C10_7 C 0.29057(14) 0.50983(14) 0.0085(5)
C11_7 C 0.26690(16) 0.48315(16) 0.0056(7)
C12_7 C 0.24855(17) 0.47300(17) 0.0987(7)
H7_7 H 0.2328 0.4545 0.0969
C13_7 C 0.25305(15) 0.48942(15) 0.1917(6)
H8_7 H 0.2404 0.4822 0.2521
C14_7 C 0.27728(12) 0.51783(12) 0.1958(5)
N5_5 N 0.41325(13) 0.61403(9) 0.0451(3)
Cu7_4 Cu 0.249098(14) 0.519391(20) 0.39977(5)
O1_8 O 0.43795(8) 0.80054(12) 0.0286(3)
N1_6 N 0.46589(9) 0.74659(13) 0.2883(3)
C1_8 C 0.43863(10) 0.74242(14) 0.2918(4)
C2_5 C 0.42132(13) 0.72903(18) 0.3884(4)
H1_5 H 0.4289 0.7239 0.4483
C3_5 C 0.39414(14) 0.72378(20) 0.3936(5)
H2_5 H 0.3831 0.7149 0.4569
C4_8 C 0.38193(13) 0.73165(20) 0.3039(5)
H3_8 H 0.3630 0.7279 0.3089
C5_8 C 0.39759(12) 0.74446(18) 0.2125(5)
H4_8 H 0.3893 0.7494 0.1542
C6_8 C 0.42677(11) 0.75081(16) 0.2026(4)
C7_8 C 0.44390(11) 0.76436(16) 0.1088(4)
C8_8 C 0.43271(12) 0.77487(18) 0.0143(4)
C9_8 C 0.47198(12) 0.76863(16) 0.1029(4)
C10_8 C 0.49017(14) 0.78075(20) 0.0085(5)
C11_8 C 0.51685(16) 0.78376(23) 0.0056(7)
C12_8 C 0.52700(17) 0.77556(24) 0.0987(7)
H7_8 H 0.5455 0.7784 0.0969
C13_8 C 0.51058(15) 0.76364(21) 0.1917(6)
H8_8 H 0.5178 0.7583 0.2521
C14_8 C 0.48217(12) 0.75946(17) 0.1958(5)
Cu7_5 Cu 0.480609(20) 0.729708(24) 0.39977(5)
O1_9 O 0.19946(12) 0.63742(9) 0.0286(3)
C1_9 C 0.25758(14) 0.69622(10) 0.2918(4)
C2_6 C 0.27097(18) 0.69230(12) 0.3884(4)
H1_6 H 0.2761 0.7051 0.4483
C3_6 C 0.27622(20) 0.67037(14) 0.3936(5)
H2_6 H 0.2851 0.6683 0.4569
C4_9 C 0.26835(20) 0.65029(15) 0.3039(5)
H3_9 H 0.2721 0.6352 0.3089
C5_9 C 0.25554(18) 0.65314(13) 0.2125(5)
H4_9 H 0.2506 0.6400 0.1542
C6_9 C 0.24919(16) 0.67597(11) 0.2026(4)
C7_9 C 0.23564(16) 0.67955(11) 0.1088(4)
C8_9 C 0.22513(18) 0.65785(13) 0.0143(4)
C9_9 C 0.23137(16) 0.70336(11) 0.1029(4)
C10_9 C 0.21925(20) 0.70943(14) 0.0085(5)
C11_9 C 0.21624(23) 0.73310(16) 0.0056(7)
C12_9 C 0.22444(24) 0.75145(17) 0.0987(7)
H7_9 H 0.2216 0.7672 0.0969
C13_9 C 0.23636(21) 0.74695(15) 0.1917(6)
H8_9 H 0.2417 0.7596 0.2521
C14_9 C 0.24054(17) 0.72272(12) 0.1958(5)
N5_6 N 0.20077(16) 0.58675(13) 0.0451(3)
Cu2_4 Cu 0.753760(14) 0.235203(14) 0.39876(5)
O1_10 O 0.69592(9) 0.22871(8) 0.6952(3)
O2_4 O 0.67247(12) 0.24690(11) 0.6041(4)
O6_4 O 0.75298(12) 0.07212(11) 0.3496(4)
O7_10 O 0.78827(8) 0.25551(8) 0.3103(3)
O8_4 O 0.81364(10) 0.24126(11) 0.4135(4)
O9_4 O 0.76209(8) 0.26519(8) 0.5030(3)
O10_4 O 0.72034(8) 0.21916(8) 0.4933(3)
N2_10 N 0.73834(9) 0.20387(9) 0.2829(3)
N3_10 N 0.70294(9) 0.08039(9) 0.0030(3)
N4_10 N 0.87592(9) 0.29558(9) 0.0803(3)
C1_10 C 0.63712(10) 0.22803(10) 0.9584(4)
C4_10 C 0.68305(15) 0.28473(13) 0.9705(5)
H3_10 H 0.6982 0.3036 0.9755
C5_10 C 0.68020(13) 0.26907(12) 0.8791(5)
H4_10 H 0.6934 0.2773 0.8208
C6_10 C 0.65737(11) 0.23989(11) 0.8692(4)
C7_10 C 0.65379(11) 0.22276(11) 0.7754(4)
C8_10 C 0.67549(13) 0.23395(12) 0.6809(4)
C9_10 C 0.62998(11) 0.19468(12) 0.7695(4)
C10_10 C 0.62391(14) 0.17649(14) 0.6751(5)
H5_4 H 0.6364 0.1829 0.6140
C11_10 C 0.60024(16) 0.14981(16) 0.6722(7)
H6_4 H 0.5963 0.1383 0.6087
C12_10 C 0.58189(17) 0.13966(17) 0.7653(7)
H7_10 H 0.5662 0.1211 0.7635
C13_10 C 0.58639(15) 0.15608(15) 0.8583(6)
H8_10 H 0.5738 0.1488 0.9187
C14_10 C 0.61062(12) 0.18449(12) 0.8624(5)
C15_10 C 0.72631(11) 0.20829(11) 0.1916(5)
C16_10 C 0.71878(15) 0.22987(14) 0.1905(6)
H9_10 H 0.7217 0.2408 0.2547
C17_10 C 0.70737(18) 0.23507(18) 0.0975(7)
H10_10 H 0.7030 0.2497 0.0983
C18_10 C 0.70223(18) 0.21833(18) 0.0002(7)
C20_10 C 0.72042(11) 0.19084(11) 0.0930(4)
C21_10 C 0.72795(10) 0.16945(10) 0.0930(4)
C23_10 C 0.74119(10) 0.16548(10) 0.1867(4)
C24_10 C 0.75056(12) 0.14494(12) 0.1926(5)
H13_10 H 0.7480 0.1333 0.1306
C25_10 C 0.76306(15) 0.14179(13) 0.2852(5)
H14_10 H 0.7693 0.1283 0.2866
C26_4 C 0.76680(15) 0.15920(14) 0.3813(5)
H15_4 H 0.7751 0.1568 0.4459
C27_4 C 0.75852(13) 0.17886(12) 0.3794(4)
H16_4 H 0.7613 0.1900 0.4429
C28_10 C 0.74561(10) 0.18319(10) 0.2828(4)
C29_10 C 0.68735(11) 0.06690(11) 0.0962(4)
C30_10 C 0.65827(12) 0.06056(14) 0.1033(6)
H17_10 H 0.6500 0.0649 0.0435
C31_10 C 0.64257(14) 0.04812(16) 0.1974(7)
H18_10 H 0.6236 0.0441 0.2011
C32_10 C 0.65436(15) 0.04121(16) 0.2886(6)
H19_4 H 0.6434 0.0332 0.3529
C33_10 C 0.68138(13) 0.04606(13) 0.2838(5)
H20_4 H 0.6888 0.0408 0.3444
C34_10 C 0.69907(11) 0.05902(11) 0.1882(4)
C35_10 C 0.72738(11) 0.06481(10) 0.1806(4)
C36_10 C 0.73999(12) 0.05550(12) 0.2732(4)
C37_10 C 0.74381(11) 0.07892(10) 0.0859(4)
C38_10 C 0.77301(12) 0.08650(13) 0.0749(5)
H21_10 H 0.7818 0.0819 0.1321
C43_10 C 0.85444(10) 0.26842(11) 0.0628(4)
C46_10 C 0.81100(13) 0.21105(14) 0.0275(5)
H27_10 H 0.7970 0.1920 0.0154
C47_10 C 0.81148(12) 0.22415(12) 0.1251(5)
H28_10 H 0.7977 0.2139 0.1795
C48_10 C 0.83283(10) 0.25323(11) 0.1457(4)
C49_10 C 0.83397(10) 0.26765(11) 0.2450(4)
C50_10 C 0.81044(12) 0.25336(12) 0.3318(4)
C51_10 C 0.85675(11) 0.29561(11) 0.2641(4)
C52_4 C 0.86027(13) 0.31087(13) 0.3662(5)
H29_4 H 0.8468 0.3024 0.4232
C53_4 C 0.88293(15) 0.33729(14) 0.3805(6)
H30_4 H 0.8853 0.3467 0.4484
C54_10 C 0.90318(15) 0.35094(13) 0.2952(6)
H31_10 H 0.9185 0.3694 0.3065
C55_10 C 0.90067(13) 0.33747(12) 0.1967(5)
H32_10 H 0.9143 0.3469 0.1405
C56_10 C 0.87783(11) 0.30925(11) 0.1775(4)
C57_4 C 0.78754(15) 0.29260(16) 0.5086(8)
H33_4 H 0.7826 0.3070 0.5274
H34_4 H 0.8002 0.2922 0.5649
H35_4 H 0.7971 0.2970 0.4371
C58_4 C 0.69560(16) 0.19213(15) 0.4879(7)
H36_4 H 0.6839 0.1893 0.5526
H37_4 H 0.6850 0.1909 0.4213
H38_4 H 0.7010 0.1775 0.4860
Cu2_5 Cu 0.235203(14) 0.481444(20) 0.60124(5)
O1_11 O 0.22871(8) 0.53280(12) 0.3048(3)
O2_5 O 0.24690(11) 0.57444(16) 0.3959(4)
O6_5 O 0.07212(11) 0.31915(16) 0.6504(4)
O7_11 O 0.25551(8) 0.46725(11) 0.6897(3)
O8_5 O 0.24126(11) 0.42763(15) 0.5865(4)
O9_5 O 0.26519(8) 0.50311(11) 0.4970(3)
O10_5 O 0.21916(8) 0.49883(11) 0.5067(3)
N2_11 N 0.20387(9) 0.46554(13) 0.7171(3)
N3_11 N 0.08039(9) 0.37746(13) 0.9970(3)
N4_11 N 0.29558(9) 0.41967(13) 0.9197(3)
C1_11 C 0.22803(10) 0.59092(14) 0.0416(4)
C4_11 C 0.28473(13) 0.60169(20) 0.0295(5)
H3_11 H 0.3036 0.6055 0.0245
C5_11 C 0.26907(12) 0.58888(18) 0.1209(5)
H4_11 H 0.2773 0.5840 0.1792
C6_11 C 0.23989(11) 0.58253(16) 0.1308(4)
C7_11 C 0.22276(11) 0.56898(16) 0.2246(4)
C8_11 C 0.23395(12) 0.55847(18) 0.3191(4)
C9_11 C 0.19468(12) 0.56471(16) 0.2305(4)
C10_11 C 0.17649(14) 0.55259(20) 0.3249(5)
H5_5 H 0.1829 0.5466 0.3860
C11_11 C 0.14981(16) 0.54958(23) 0.3278(7)
H6_5 H 0.1383 0.5421 0.3913
C12_11 C 0.13966(17) 0.55778(24) 0.2347(7)
H7_11 H 0.1211 0.5550 0.2365
C13_11 C 0.15608(15) 0.56970(21) 0.1417(6)
H8_11 H 0.1488 0.5751 0.0813
C14_11 C 0.18449(12) 0.57388(17) 0.1376(5)
C15_11 C 0.20829(11) 0.48199(16) 0.8084(5)
C16_11 C 0.22987(14) 0.51110(21) 0.8095(6)
H9_11 H 0.2408 0.5192 0.7453
C17_11 C 0.23507(18) 0.52771(25) 0.9025(7)
H10_11 H 0.2497 0.5468 0.9017
C18_11 C 0.21833(18) 0.51611(25) 0.9998(7)
C20_11 C 0.19084(11) 0.47043(16) 0.9070(4)
C21_11 C 0.16945(10) 0.44151(14) 0.9070(4)
C23_11 C 0.16548(10) 0.42430(14) 0.8133(4)
C24_11 C 0.14494(12) 0.39439(17) 0.8074(5)
H13_11 H 0.1333 0.3854 0.8694
C25_11 C 0.14179(13) 0.37874(20) 0.7148(5)
H14_11 H 0.1283 0.3591 0.7134
C26_5 C 0.15920(14) 0.39241(21) 0.6187(5)
H15_5 H 0.1568 0.3818 0.5541
C27_5 C 0.17886(12) 0.42035(18) 0.6206(4)
H16_5 H 0.1900 0.4288 0.5571
C28_11 C 0.18319(10) 0.43759(14) 0.7172(4)
C29_11 C 0.06690(11) 0.37956(16) 0.9038(4)
C30_11 C 0.06056(14) 0.40230(18) 0.8967(6)
H17_11 H 0.0649 0.4150 0.9565
C31_11 C 0.04812(16) 0.40556(21) 0.8026(7)
H18_11 H 0.0441 0.4206 0.7989
C32_11 C 0.04121(16) 0.38686(22) 0.7114(6)
H19_5 H 0.0332 0.3899 0.6471
C33_11 C 0.04606(13) 0.36469(18) 0.7162(5)
H20_5 H 0.0408 0.3521 0.6556
C34_11 C 0.05902(11) 0.35996(16) 0.8118(4)
C35_11 C 0.06481(10) 0.33744(15) 0.8194(4)
C36_11 C 0.05550(12) 0.31552(17) 0.7268(4)
C37_11 C 0.07892(10) 0.33512(15) 0.9141(4)
C38_11 C 0.08650(13) 0.31350(18) 0.9251(5)
H21_11 H 0.0819 0.3002 0.8679
C43_11 C 0.26842(11) 0.41399(15) 0.9372(4)
C46_11 C 0.21105(14) 0.40006(19) 0.9725(5)
H27_11 H 0.1920 0.3951 0.9846
C47_11 C 0.22415(12) 0.41268(17) 0.8749(5)
H28_11 H 0.2139 0.4163 0.8205
C48_11 C 0.25323(11) 0.42041(15) 0.8543(4)
C49_11 C 0.26765(11) 0.43369(15) 0.7550(4)
C50_11 C 0.25336(12) 0.44293(17) 0.6682(4)
C51_11 C 0.29561(11) 0.43887(16) 0.7359(4)
C52_5 C 0.31087(13) 0.45061(18) 0.6338(5)
H29_5 H 0.3024 0.4557 0.5768
C53_5 C 0.33729(14) 0.45437(21) 0.6195(6)
H30_5 H 0.3467 0.4615 0.5516
C54_11 C 0.35094(13) 0.44777(20) 0.7048(6)
H31_11 H 0.3694 0.4510 0.6935
C55_11 C 0.33747(12) 0.43681(18) 0.8033(5)
H32_11 H 0.3469 0.4327 0.8595
C56_11 C 0.30925(11) 0.43143(16) 0.8225(4)
C57_5 C 0.29260(16) 0.50507(22) 0.4914(8)
H33_5 H 0.3070 0.5245 0.4726
H34_5 H 0.2922 0.4921 0.4351
H35_5 H 0.2970 0.5000 0.5629
C58_5 C 0.19213(15) 0.49654(22) 0.5121(7)
H36_5 H 0.1893 0.5055 0.4474
H37_5 H 0.1909 0.5060 0.5787
H38_5 H 0.1775 0.4766 0.5140
Cu2_6 Cu 0.518556(20) 0.753760(14) 0.60124(5)
O1_12 O 0.46720(12) 0.69592(9) 0.3048(3)
O2_6 O 0.42556(16) 0.67247(12) 0.3959(4)
O6_6 O 0.68085(16) 0.75298(12) 0.6504(4)
O7_12 O 0.53275(11) 0.78827(8) 0.6897(3)
O8_6 O 0.57237(15) 0.81364(10) 0.5865(4)
O9_6 O 0.49689(11) 0.76209(8) 0.4970(3)
O10_6 O 0.50117(11) 0.72034(8) 0.5067(3)
N2_12 N 0.53446(13) 0.73834(9) 0.7171(3)
N3_12 N 0.62254(13) 0.70294(9) 0.9970(3)
N4_12 N 0.58033(13) 0.87592(9) 0.9197(3)
C1_12 C 0.40908(14) 0.63712(10) 0.0416(4)
C4_12 C 0.39831(20) 0.68305(15) 0.0295(5)
H3_12 H 0.3945 0.6982 0.0245
C5_12 C 0.41112(18) 0.68020(13) 0.1209(5)
H4_12 H 0.4160 0.6934 0.1792
C6_12 C 0.41747(16) 0.65737(11) 0.1308(4)
C7_12 C 0.43102(16) 0.65379(11) 0.2246(4)
C8_12 C 0.44153(18) 0.67549(13) 0.3191(4)
C9_12 C 0.43529(16) 0.62998(11) 0.2305(4)
C10_12 C 0.44741(20) 0.62391(14) 0.3249(5)
H5_6 H 0.4534 0.6364 0.3860
C11_12 C 0.45042(23) 0.60024(16) 0.3278(7)
H6_6 H 0.4579 0.5963 0.3913
C12_12 C 0.44222(24) 0.58189(17) 0.2347(7)
H7_12 H 0.4450 0.5662 0.2365
C13_12 C 0.43030(21) 0.58639(15) 0.1417(6)
H8_12 H 0.4249 0.5738 0.0813
C14_12 C 0.42612(17) 0.61062(12) 0.1376(5)
C15_12 C 0.51801(16) 0.72631(11) 0.8084(5)
C16_12 C 0.48890(21) 0.71878(15) 0.8095(6)
H9_12 H 0.4808 0.7217 0.7453
C17_12 C 0.47229(25) 0.70737(18) 0.9025(7)
H10_12 H 0.4532 0.7030 0.9017
C18_12 C 0.48389(25) 0.70223(18) 0.9998(7)
C20_12 C 0.52957(16) 0.72042(11) 0.9070(4)
C21_12 C 0.55849(14) 0.72795(10) 0.9070(4)
C23_12 C 0.57570(14) 0.74119(10) 0.8133(4)
C24_12 C 0.60561(17) 0.75056(12) 0.8074(5)
H13_12 H 0.6146 0.7480 0.8694
C25_12 C 0.62126(20) 0.76306(15) 0.7148(5)
H14_12 H 0.6409 0.7693 0.7134
C26_6 C 0.60759(21) 0.76680(15) 0.6187(5)
H15_6 H 0.6182 0.7751 0.5541
C27_6 C 0.57965(18) 0.75852(13) 0.6206(4)
H16_6 H 0.5712 0.7613 0.5571
C28_12 C 0.56241(14) 0.74561(10) 0.7172(4)
C29_12 C 0.62044(16) 0.68735(11) 0.9038(4)
C30_12 C 0.59770(18) 0.65827(12) 0.8967(6)
H17_12 H 0.5850 0.6500 0.9565
C31_12 C 0.59444(21) 0.64257(14) 0.8026(7)
H18_12 H 0.5794 0.6236 0.7989
C32_12 C 0.61314(22) 0.65436(15) 0.7114(6)
H19_6 H 0.6101 0.6434 0.6471
C33_12 C 0.63531(18) 0.68138(13) 0.7162(5)
H20_6 H 0.6479 0.6888 0.6556
C34_12 C 0.64004(16) 0.69907(11) 0.8118(4)
C35_12 C 0.66256(15) 0.72738(11) 0.8194(4)
C36_12 C 0.68448(17) 0.73999(12) 0.7268(4)
C37_12 C 0.66488(15) 0.74381(11) 0.9141(4)
C38_12 C 0.68650(18) 0.77301(12) 0.9251(5)
H21_12 H 0.6998 0.7818 0.8679
C43_12 C 0.58601(15) 0.85444(10) 0.9372(4)
C46_12 C 0.59994(19) 0.81100(13) 0.9725(5)
H27_12 H 0.6049 0.7970 0.9846
C47_12 C 0.58732(17) 0.81148(12) 0.8749(5)
H28_12 H 0.5837 0.7977 0.8205
C48_12 C 0.57959(15) 0.83283(10) 0.8543(4)
C49_12 C 0.56631(15) 0.83397(10) 0.7550(4)
C50_12 C 0.55707(17) 0.81044(12) 0.6682(4)
C51_12 C 0.56113(16) 0.85675(11) 0.7359(4)
C52_6 C 0.54939(18) 0.86027(13) 0.6338(5)
H29_6 H 0.5443 0.8468 0.5768
C53_6 C 0.54563(21) 0.88293(15) 0.6195(6)
H30_6 H 0.5385 0.8853 0.5516
C54_12 C 0.55223(20) 0.90318(15) 0.7048(6)
H31_12 H 0.5490 0.9185 0.6935
C55_12 C 0.56319(18) 0.90067(13) 0.8033(5)
H32_12 H 0.5673 0.9143 0.8595
C56_12 C 0.56857(16) 0.87783(11) 0.8225(4)
C57_6 C 0.49493(22) 0.78754(15) 0.4914(8)
H33_6 H 0.4755 0.7826 0.4726
H34_6 H 0.5079 0.8002 0.4351
H35_6 H 0.5000 0.7971 0.5629
C58_6 C 0.50346(22) 0.69560(16) 0.5121(7)
H36_6 H 0.4945 0.6839 0.4474
H37_6 H 0.4940 0.6850 0.5787
H38_6 H 0.5234 0.7010 0.5140
N1_7 N 0.05264(9) 0.13256(9) 0.3784(3)
C1_13 C 0.02955(10) 0.10530(10) 0.3749(4)
C2_7 C 0.02563(12) 0.08799(13) 0.2783(4)
H1_7 H 0.0384 0.0956 0.2184
C3_7 C 0.00370(14) 0.06081(14) 0.2731(5)
H2_7 H 0.0016 0.0498 0.2098
C6_13 C 0.00930(11) 0.09344(11) 0.4641(4)
C7_13 C 0.01288(11) 0.11057(11) 0.5579(4)
C9_13 C 0.03669(11) 0.13865(12) 0.5638(4)
C10_13 C 0.04276(14) 0.15684(14) 0.6582(5)
H5_7 H 0.0303 0.1504 0.7193
C11_13 C 0.06643(16) 0.18352(16) 0.6611(7)
H6_7 H 0.0704 0.1950 0.7246
C12_13 C 0.08478(17) 0.19367(17) 0.5680(7)
H7_13 H 0.1005 0.2122 0.5698
C13_13 C 0.08028(15) 0.17725(15) 0.4750(6)
H8_13 H 0.0929 0.1845 0.4146
C14_13 C 0.05605(12) 0.14884(12) 0.4709(5)
H19_7 H 0.0233 0.3001 0.9804
Cu7_6 Cu 0.084235(14) 0.147276(20) 0.26690(5)
Cu1_2 Cu 0.936959(14) 0.084235(14) 0.73310(5)
Cu2_7 Cu 0.912907(14) 0.098130(14) 0.93457(5)
O1_13 O 0.97075(9) 0.10462(8) 0.6381(3)
O2_7 O 0.99420(12) 0.08643(11) 0.7292(4)
O6_7 O 0.91369(12) 0.26121(11) 0.9837(4)
O8_7 O 0.85303(10) 0.09207(11) 0.9198(4)
O9_7 O 0.90458(8) 0.06814(8) 0.8303(3)
O10_7 O 0.94633(8) 0.11417(8) 0.8400(3)
C4_13 C 0.98362(15) 0.04860(13) 0.3628(5)
H3_13 H 0.9685 0.0297 0.3578
C5_13 C 0.98647(13) 0.06426(12) 0.4542(5)
H4_13 H 0.9733 0.0560 0.5125
C8_13 C 0.99118(13) 0.09938(12) 0.6524(4)
C26_7 C 0.89987(15) 0.17413(14) 0.9520(5)
H15_7 H 0.8916 0.1765 0.8874
C27_7 C 0.90815(13) 0.15447(12) 0.9539(4)
H16_7 H 0.9054 0.1433 0.8904
H20_7 H 0.9779 0.2925 0.9889
C52_7 C 0.80640(13) 0.02246(13) 0.9671(5)
H29_7 H 0.8199 0.0309 0.9101
C57_7 C 0.87913(15) 0.04073(16) 0.8247(8)
H33_7 H 0.8841 0.0263 0.8059
H34_7 H 0.8665 0.0411 0.7684
H35_7 H 0.8696 0.0363 0.8962
C58_7 C 0.97107(16) 0.14120(15) 0.8454(7)
H36_7 H 0.9828 0.1440 0.7807
H37_7 H 0.9817 0.1424 0.9120
H38_7 H 0.9657 0.1558 0.8473
N5_7 N 0.92008(13) 0.05264(9) 0.6216(3)
Cu5 Cu 0.909507(14) 0.314773(13) 0.97456(5)
Cu1_3 Cu 0.915765(14) 0.852724(20) 0.73310(5)
Cu2_8 Cu 0.901870(14) 0.814777(20) 0.93457(5)
O1_14 O 0.89538(8) 0.86613(12) 0.6381(3)
O2_8 O 0.91357(11) 0.90777(16) 0.7292(4)
O6_8 O 0.73879(11) 0.65248(16) 0.9837(4)
O8_8 O 0.90793(11) 0.76096(15) 0.9198(4)
O9_8 O 0.93186(8) 0.83644(11) 0.8303(3)
O10_8 O 0.88583(8) 0.83216(11) 0.8400(3)
N1_8 N 0.86744(9) 0.92008(13) 0.3784(3)
C1_14 C 0.89470(10) 0.92425(14) 0.3749(4)
C2_8 C 0.91201(13) 0.93764(18) 0.2783(4)
H1_8 H 0.9044 0.9428 0.2184
C3_8 C 0.93919(14) 0.94289(20) 0.2731(5)
H2_8 H 0.9502 0.9518 0.2098
C4_14 C 0.95140(13) 0.93502(20) 0.3628(5)
H3_14 H 0.9703 0.9388 0.3578
C5_14 C 0.93574(12) 0.92221(18) 0.4542(5)
H4_14 H 0.9440 0.9173 0.5125
C6_14 C 0.90656(11) 0.91586(16) 0.4641(4)
C7_14 C 0.88943(11) 0.90231(16) 0.5579(4)
C8_14 C 0.90062(12) 0.89180(18) 0.6524(4)
C9_14 C 0.86135(12) 0.89804(16) 0.5638(4)
C10_14 C 0.84316(14) 0.88592(20) 0.6582(5)
H5_8 H 0.8496 0.8799 0.7193
C11_14 C 0.81648(16) 0.88291(23) 0.6611(7)
H6_8 H 0.8050 0.8754 0.7246
C12_14 C 0.80633(17) 0.89111(24) 0.5680(7)
H7_14 H 0.7878 0.8883 0.5698
C13_14 C 0.82275(15) 0.90303(21) 0.4750(6)
H8_14 H 0.8155 0.9084 0.4146
C14_14 C 0.85116(12) 0.90721(17) 0.4709(5)
C26_8 C 0.82587(14) 0.72574(21) 0.9520(5)
H15_8 H 0.8235 0.7151 0.8874
C27_8 C 0.84553(12) 0.75368(18) 0.9539(4)
H16_8 H 0.8567 0.7621 0.8904
H19_8 H 0.6999 0.7232 0.9804
H20_8 H 0.7075 0.6854 0.9889
C52_8 C 0.97754(13) 0.78394(18) 0.9671(5)
H29_8 H 0.9691 0.7890 0.9101
C57_8 C 0.95927(16) 0.83840(22) 0.8247(8)
H33_8 H 0.9737 0.8578 0.8059
H34_8 H 0.9589 0.8254 0.7684
H35_8 H 0.9637 0.8333 0.8962
C58_8 C 0.85880(15) 0.82987(22) 0.8454(7)
H36_8 H 0.8560 0.8388 0.7807
H37_8 H 0.8576 0.8393 0.9120
H38_8 H 0.8442 0.8099 0.8473
N5_8 N 0.94736(9) 0.86744(16) 0.6216(3)
Cu5_2 Cu 0.685227(13) 0.594733(19) 0.97456(5)
Cu7_7 Cu 0.852724(20) 0.936959(24) 0.26690(5)
Cu1_4 Cu 0.147276(20) 0.063041(14) 0.73310(5)
Cu2_9 Cu 0.185223(20) 0.087093(14) 0.93457(5)
O1_15 O 0.13387(12) 0.02925(9) 0.6381(3)
O2_9 O 0.09223(16) 0.00580(12) 0.7292(4)
O6_9 O 0.34752(16) 0.08631(12) 0.9837(4)
O8_9 O 0.23904(15) 0.14697(10) 0.9198(4)
O9_9 O 0.16356(11) 0.09542(8) 0.8303(3)
O10_9 O 0.16784(11) 0.05367(8) 0.8400(3)
C4_15 C 0.06498(20) 0.01638(15) 0.3628(5)
H3_15 H 0.0612 0.0315 0.3578
C5_15 C 0.07779(18) 0.01353(13) 0.4542(5)
H4_15 H 0.0827 0.0267 0.5125
C8_15 C 0.10820(18) 0.00882(13) 0.6524(4)
C26_9 C 0.27426(21) 0.10013(15) 0.9520(5)
H15_9 H 0.2849 0.1084 0.8874
C27_9 C 0.24632(18) 0.09185(13) 0.9539(4)
H16_9 H 0.2379 0.0946 0.8904
H20_9 H 0.3146 0.0221 0.9889
C52_9 C 0.21606(18) 0.19360(13) 0.9671(5)
H29_9 H 0.2110 0.1801 0.9101
C53_7 C 0.21230(21) 0.21626(15) 0.9528(6)
H30_7 H 0.2052 0.2186 0.8849
C57_9 C 0.16160(22) 0.12087(15) 0.8247(8)
H33_9 H 0.1422 0.1159 0.8059
H34_9 H 0.1746 0.1335 0.7684
H35_9 H 0.1667 0.1304 0.8962
C58_9 C 0.17013(22) 0.02893(16) 0.8454(7)
H36_9 H 0.1612 0.0172 0.7807
H37_9 H 0.1607 0.0183 0.9120
H38_9 H 0.1901 0.0343 0.8473
N5_9 N 0.13256(16) 0.07992(13) 0.6216(3)
Cu5_3 Cu 0.405267(19) 0.090493(14) 0.97456(5)
N1_9 N 0.07992(13) 0.94736(9) 0.3784(3)
C1_15 C 0.07575(14) 0.97045(10) 0.3749(4)
C2_9 C 0.06236(18) 0.97437(12) 0.2783(4)
H1_9 H 0.0572 0.9616 0.2184
C3_9 C 0.05711(20) 0.99630(14) 0.2731(5)
H2_9 H 0.0482 0.9984 0.2098
C6_15 C 0.08414(16) 0.99070(11) 0.4641(4)
C7_15 C 0.09769(16) 0.98712(11) 0.5579(4)
C9_15 C 0.10196(16) 0.96331(11) 0.5638(4)
C10_15 C 0.11408(20) 0.95724(14) 0.6582(5)
H5_9 H 0.1201 0.9697 0.7193
C11_15 C 0.11709(23) 0.93357(16) 0.6611(7)
H6_9 H 0.1246 0.9296 0.7246
C12_15 C 0.10889(24) 0.91522(17) 0.5680(7)
H7_15 H 0.1117 0.8995 0.5698
C13_15 C 0.09697(21) 0.91972(15) 0.4750(6)
H8_15 H 0.0916 0.9071 0.4146
C14_15 C 0.09279(17) 0.94395(12) 0.4709(5)
H19_9 H 0.2768 0.9767 0.9804
Cu7_8 Cu 0.063041(24) 0.915765(14) 0.26690(5)
Cu1_5 Cu 0.603626(14) 0.417568(14) 0.06643(5)
Cu2_10 Cu 0.579574(14) 0.431463(14) 0.26790(5)
Cu3_7 Cu 0.647467(14) 0.570841(13) 0.77223(5)
Cu4_4 Cu 0.423827(14) 0.351893(13) 0.69210(5)
O2_10 O 0.66087(12) 0.41976(11) 0.0625(4)
O3_7 O 0.63688(8) 0.53855(8) 0.6736(3)
O4_7 O 0.59361(11) 0.51055(12) 0.7453(4)
O5_7 O 0.59784(8) 0.63658(8) 0.4053(3)
O6_10 O 0.58036(12) 0.59454(11) 0.3170(4)
O7_13 O 0.54507(8) 0.41115(8) 0.3563(3)
O8_10 O 0.51970(10) 0.42540(11) 0.2531(4)
O9_10 O 0.57125(8) 0.40147(8) 0.1636(3)
O10_10 O 0.61300(8) 0.44750(8) 0.1733(3)
O11_4 O 0.66351(10) 0.60327(8) 0.8720(3)
O12_4 O 0.66902(10) 0.56232(9) 0.8771(3)
N2_13 N 0.59500(9) 0.46279(9) 0.3837(3)
N3_13 N 0.63040(9) 0.58627(9) 0.6636(3)
N4_13 N 0.45742(9) 0.37108(9) 0.5863(3)
H5_10 H 0.6970 0.4837 0.0526
H6_10 H 0.7371 0.5283 0.0579
C15_13 C 0.60703(11) 0.45837(11) 0.4750(5)
C16_13 C 0.61456(15) 0.43679(14) 0.4761(6)
H9_13 H 0.6117 0.4258 0.4119
C17_13 C 0.62597(18) 0.43159(18) 0.5691(7)
H10_13 H 0.6304 0.4169 0.5683
C18_13 C 0.63111(18) 0.44833(18) 0.6664(7)
H11_7 H 0.6387 0.4444 0.7297
C19_7 C 0.62527(14) 0.46973(15) 0.6691(5)
H12_7 H 0.6293 0.4808 0.7337
C20_13 C 0.61292(11) 0.47582(11) 0.5736(4)
C21_13 C 0.60539(10) 0.49721(10) 0.5736(4)
C22_7 C 0.61192(13) 0.51647(12) 0.6746(4)
C23_13 C 0.59215(10) 0.50118(10) 0.4799(4)
C24_13 C 0.58278(12) 0.52172(12) 0.4740(5)
H13_13 H 0.5854 0.5333 0.5360
C25_13 C 0.57028(15) 0.52487(13) 0.3814(5)
H14_13 H 0.5641 0.5383 0.3800
C26_10 C 0.56654(15) 0.50746(14) 0.2853(5)
H15_10 H 0.5583 0.5098 0.2207
C27_10 C 0.57482(13) 0.48780(12) 0.2872(4)
H16_10 H 0.5721 0.4766 0.2237
C28_13 C 0.58773(10) 0.48347(10) 0.3838(4)
C29_13 C 0.64599(11) 0.59976(11) 0.5704(4)
C30_13 C 0.67507(12) 0.60610(14) 0.5633(6)
H17_13 H 0.6834 0.6017 0.6231
C31_13 C 0.69077(14) 0.61854(16) 0.4692(7)
H18_13 H 0.7098 0.6225 0.4655
C32_13 C 0.67898(15) 0.62545(16) 0.3780(6)
H19_10 H 0.6900 0.6334 0.3137
C33_13 C 0.65196(13) 0.62060(13) 0.3828(5)
H20_10 H 0.6446 0.6258 0.3222
C34_13 C 0.63427(11) 0.60764(11) 0.4784(4)
C35_13 C 0.60596(11) 0.60185(10) 0.4860(4)
C36_13 C 0.59335(12) 0.61116(12) 0.3934(4)
C37_13 C 0.58953(11) 0.58774(10) 0.5807(4)
C38_13 C 0.56033(12) 0.58016(13) 0.5917(5)
H21_13 H 0.5516 0.5847 0.5345
C39_7 C 0.54500(14) 0.56632(15) 0.6841(6)
H22_7 H 0.5258 0.5613 0.6896
C40_7 C 0.55822(15) 0.55948(15) 0.7723(5)
H23_7 H 0.5477 0.5503 0.8363
C41_7 C 0.58595(13) 0.56601(13) 0.7648(4)
H24_7 H 0.5942 0.5610 0.8230
C42_7 C 0.60260(11) 0.58035(10) 0.6688(4)
C43_13 C 0.47890(10) 0.39824(11) 0.6038(4)
C44_7 C 0.48081(12) 0.41269(14) 0.7060(4)
H25_7 H 0.4676 0.4028 0.7626
C45_7 C 0.50137(14) 0.44026(15) 0.7230(5)
H26_7 H 0.5019 0.4493 0.7901
C46_13 C 0.52234(13) 0.45561(14) 0.6391(5)
H27_13 H 0.5364 0.4746 0.6512
C47_13 C 0.52186(12) 0.44251(12) 0.5415(5)
H28_13 H 0.5357 0.4527 0.4871
C48_13 C 0.50051(10) 0.41343(11) 0.5209(4)
C49_13 C 0.49937(10) 0.39901(11) 0.4216(4)
C50_13 C 0.52290(12) 0.41330(12) 0.3348(4)
C51_13 C 0.47659(11) 0.37105(11) 0.4025(4)
C52_10 C 0.47307(13) 0.35579(13) 0.3004(5)
H29_10 H 0.4866 0.3642 0.2434
C53_8 C 0.45041(15) 0.32937(14) 0.2861(6)
H30_8 H 0.4481 0.3199 0.2182
C54_13 C 0.43016(15) 0.31572(13) 0.3714(6)
H31_13 H 0.4149 0.2972 0.3601
C55_13 C 0.43267(13) 0.32919(12) 0.4699(5)
H32_13 H 0.4191 0.3197 0.5261
C56_13 C 0.45551(11) 0.35741(11) 0.4891(4)
C57_10 C 0.54580(15) 0.37406(16) 0.1580(8)
H33_10 H 0.5508 0.3596 0.1392
H34_10 H 0.5332 0.3744 0.1017
H35_10 H 0.5363 0.3696 0.2295
C58_10 C 0.63774(16) 0.47453(15) 0.1787(7)
H36_10 H 0.6495 0.4773 0.1140
H37_10 H 0.6484 0.4757 0.2453
H38_10 H 0.6324 0.4891 0.1806
C59_7 C 0.6610(2) 0.62796(16) 0.8663(7)
H39_7 H 0.6677 0.6385 0.9352
H40_7 H 0.6412 0.6225 0.8545
H41_7 H 0.6724 0.6398 0.8051
C60_7 C 0.6701(2) 0.53635(15) 0.8851(7)
H42_7 H 0.6818 0.5375 0.9480
H43_7 H 0.6782 0.5336 0.8176
H44_7 H 0.6510 0.5204 0.8950
O13_7 O 0.40216(8) 0.36342(8) 0.5947(3)
O14_4 O 0.39357(13) 0.33017(10) 0.7946(3)
O15_4 O 0.44003(13) 0.33568(10) 0.7895(3)
Cu5_4 Cu 0.576173(14) 0.648107(13) 0.30790(5)
Cu1_6 Cu 0.582432(14) 0.186057(20) 0.06643(5)
Cu2_11 Cu 0.568537(14) 0.148110(20) 0.26790(5)
Cu3_8 Cu 0.429159(13) 0.076625(19) 0.77223(5)
Cu4_5 Cu 0.648107(13) 0.071933(19) 0.69210(5)
O2_11 O 0.58024(11) 0.24110(16) 0.0625(4)
O3_8 O 0.46145(8) 0.09832(11) 0.6736(3)
O4_8 O 0.48945(12) 0.08305(16) 0.7453(4)
O7_14 O 0.58885(8) 0.13391(11) 0.3563(3)
O8_11 O 0.57460(11) 0.09429(15) 0.2531(4)
O9_11 O 0.59853(8) 0.16977(11) 0.1636(3)
O10_11 O 0.55250(8) 0.16549(11) 0.1733(3)
O11_5 O 0.39673(8) 0.06023(13) 0.8720(3)
O12_5 O 0.43768(9) 0.10669(13) 0.8771(3)
N2_14 N 0.53721(9) 0.13220(13) 0.3837(3)
N3_14 N 0.41373(9) 0.04412(13) 0.6636(3)
N4_14 N 0.62892(9) 0.08633(13) 0.5863(3)
H5_11 H 0.5163 0.2132 0.0526
H6_11 H 0.4717 0.2087 0.0579
C15_14 C 0.54163(11) 0.14865(16) 0.4750(5)
C16_14 C 0.56321(14) 0.17776(21) 0.4761(6)
H9_14 H 0.5742 0.1858 0.4119
C17_14 C 0.56841(18) 0.19437(25) 0.5691(7)
H10_14 H 0.5831 0.2134 0.5683
C18_14 C 0.55167(18) 0.18277(25) 0.6664(7)
H11_8 H 0.5556 0.1942 0.7297
C19_8 C 0.53027(15) 0.15553(21) 0.6691(5)
H12_8 H 0.5192 0.1484 0.7337
C20_14 C 0.52418(11) 0.13709(16) 0.5736(4)
C21_14 C 0.50279(10) 0.10817(14) 0.5736(4)
C22_8 C 0.48353(12) 0.09544(18) 0.6746(4)
C23_14 C 0.49882(10) 0.09096(14) 0.4799(4)
C24_14 C 0.47828(12) 0.06105(17) 0.4740(5)
H13_14 H 0.4667 0.0520 0.5360
C25_14 C 0.47513(13) 0.04540(20) 0.3814(5)
H14_14 H 0.4617 0.0257 0.3800
C26_11 C 0.49254(14) 0.05907(21) 0.2853(5)
H15_11 H 0.4902 0.0484 0.2207
C27_11 C 0.51220(12) 0.08701(18) 0.2872(4)
H16_11 H 0.5234 0.0954 0.2237
C28_14 C 0.51653(10) 0.10425(14) 0.3838(4)
C29_14 C 0.40024(11) 0.04622(16) 0.5704(4)
C30_14 C 0.39390(14) 0.06896(18) 0.5633(6)
H17_14 H 0.3983 0.0816 0.6231
C31_14 C 0.38146(16) 0.07222(21) 0.4692(7)
H18_14 H 0.3775 0.0872 0.4655
C32_14 C 0.37455(16) 0.05352(22) 0.3780(6)
H19_11 H 0.3666 0.0565 0.3137
C33_14 C 0.37940(13) 0.03135(18) 0.3828(5)
H20_11 H 0.3742 0.0187 0.3222
C34_14 C 0.39236(11) 0.02662(16) 0.4784(4)
C35_14 C 0.39815(10) 0.00410(15) 0.4860(4)
C37_14 C 0.41226(10) 0.00178(15) 0.5807(4)
C41_8 C 0.43399(13) 0.01993(18) 0.7648(4)
H24_8 H 0.4390 0.0331 0.8230
C42_8 C 0.41965(10) 0.02224(15) 0.6688(4)
C43_14 C 0.60176(11) 0.08065(15) 0.6038(4)
C44_8 C 0.58731(14) 0.06811(18) 0.7060(4)
H25_8 H 0.5972 0.0647 0.7626
C45_8 C 0.55974(15) 0.06110(21) 0.7230(5)
H26_8 H 0.5507 0.0525 0.7901
C46_14 C 0.54439(14) 0.06672(19) 0.6391(5)
H27_14 H 0.5254 0.0617 0.6512
C47_14 C 0.55749(12) 0.07934(17) 0.5415(5)
H28_14 H 0.5473 0.0829 0.4871
C48_14 C 0.58657(11) 0.08707(15) 0.5209(4)
C49_14 C 0.60099(11) 0.10035(15) 0.4216(4)
C50_14 C 0.58670(12) 0.10959(17) 0.3348(4)
C51_14 C 0.62895(11) 0.10553(16) 0.4025(4)
C52_11 C 0.64421(13) 0.11727(18) 0.3004(5)
H29_11 H 0.6358 0.1223 0.2434
C53_9 C 0.67063(14) 0.12103(21) 0.2861(6)
H30_9 H 0.6801 0.1281 0.2182
C54_14 C 0.68428(13) 0.11443(20) 0.3714(6)
H31_14 H 0.7028 0.1176 0.3601
C55_14 C 0.67081(12) 0.10347(18) 0.4699(5)
H32_14 H 0.6803 0.0993 0.5261
C56_14 C 0.64259(11) 0.09809(16) 0.4891(4)
C57_11 C 0.62594(16) 0.17173(22) 0.1580(8)
H33_11 H 0.6404 0.1911 0.1392
H34_11 H 0.6256 0.1587 0.1017
H35_11 H 0.6304 0.1666 0.2295
C58_11 C 0.52547(15) 0.16320(22) 0.1787(7)
H36_11 H 0.5227 0.1721 0.1140
H37_11 H 0.5243 0.1726 0.2453
H38_11 H 0.5109 0.1432 0.1806
C59_8 C 0.37204(16) 0.03300(26) 0.8663(7)
H39_8 H 0.3615 0.0291 0.9352
H40_8 H 0.3775 0.0186 0.8545
H41_8 H 0.3602 0.0325 0.8051
C60_8 C 0.46365(15) 0.13371(25) 0.8851(7)
H42_8 H 0.4625 0.1442 0.9480
H43_8 H 0.4664 0.1445 0.8176
H44_8 H 0.4796 0.1305 0.8950
O13_8 O 0.63658(8) 0.03875(11) 0.5947(3)
O14_5 O 0.66983(10) 0.06339(16) 0.7946(3)
O15_5 O 0.66432(10) 0.10434(16) 0.7895(3)
O5_8 O 0.36342(8) 0.96125(11) 0.4053(3)
O6_11 O 0.40546(11) 0.98581(16) 0.3170(4)
C36_14 C 0.38884(12) 0.98218(17) 0.3934(4)
C38_14 C 0.41984(13) 0.98016(18) 0.5917(5)
H21_14 H 0.4153 0.9668 0.5345
C39_8 C 0.43368(15) 0.97867(21) 0.6841(6)
H22_8 H 0.4387 0.9644 0.6896
C40_8 C 0.44052(15) 0.99873(21) 0.7723(5)
H23_8 H 0.4497 0.9973 0.8363
Cu5_5 Cu 0.351893(13) 0.928067(19) 0.30790(5)
O5_9 O 0.03875(11) 0.40216(8) 0.4053(3)
O6_12 O 0.01419(16) 0.41964(12) 0.3170(4)
C36_15 C 0.01782(17) 0.40665(12) 0.3934(4)
C38_15 C 0.01984(18) 0.43967(12) 0.5917(5)
H21_15 H 0.0332 0.4484 0.5345
C39_9 C 0.02133(21) 0.45500(14) 0.6841(6)
H22_9 H 0.0356 0.4742 0.6896
C40_9 C 0.00127(21) 0.44178(15) 0.7723(5)
H23_9 H 0.0027 0.4523 0.8363
Cu5_6 Cu 0.071933(19) 0.423827(14) 0.30790(5)
Cu1_7 Cu 0.813943(20) 0.396374(14) 0.06643(5)
Cu2_12 Cu 0.851890(20) 0.420426(14) 0.26790(5)
Cu3_9 Cu 0.923375(19) 0.352533(14) 0.77223(5)
Cu4_6 Cu 0.928067(19) 0.576173(14) 0.69210(5)
O2_12 O 0.75890(16) 0.33913(12) 0.0625(4)
O3_9 O 0.90168(11) 0.36312(8) 0.6736(3)
O4_9 O 0.91695(16) 0.40639(11) 0.7453(4)
O7_15 O 0.86609(11) 0.45493(8) 0.3563(3)
O8_12 O 0.90571(15) 0.48030(10) 0.2531(4)
O9_12 O 0.83023(11) 0.42875(8) 0.1636(3)
O10_12 O 0.83451(11) 0.38700(8) 0.1733(3)
O11_6 O 0.93977(13) 0.33649(10) 0.8720(3)
O12_6 O 0.89331(13) 0.33098(10) 0.8771(3)
N2_15 N 0.86780(13) 0.40500(9) 0.3837(3)
N3_15 N 0.95588(13) 0.36960(9) 0.6636(3)
N4_15 N 0.91367(13) 0.54258(9) 0.5863(3)
H5_12 H 0.7868 0.3030 0.0526
H6_12 H 0.7913 0.2629 0.0579
C15_15 C 0.85135(16) 0.39297(11) 0.4750(5)
C16_15 C 0.82224(21) 0.38544(15) 0.4761(6)
H9_15 H 0.8142 0.3883 0.4119
C17_15 C 0.80563(25) 0.37403(18) 0.5691(7)
H10_15 H 0.7866 0.3696 0.5683
C18_15 C 0.81723(25) 0.36889(18) 0.6664(7)
H11_9 H 0.8058 0.3613 0.7297
C19_9 C 0.84447(21) 0.37473(14) 0.6691(5)
H12_9 H 0.8516 0.3707 0.7337
C20_15 C 0.86291(16) 0.38708(11) 0.5736(4)
C21_15 C 0.89183(14) 0.39461(10) 0.5736(4)
C22_9 C 0.90456(18) 0.38808(13) 0.6746(4)
C23_15 C 0.90904(14) 0.40785(10) 0.4799(4)
C24_15 C 0.93895(17) 0.41722(12) 0.4740(5)
H13_15 H 0.9480 0.4146 0.5360
C25_15 C 0.95460(20) 0.42972(15) 0.3814(5)
H14_15 H 0.9743 0.4359 0.3800
C26_12 C 0.94093(21) 0.43346(15) 0.2853(5)
H15_12 H 0.9516 0.4417 0.2207
C27_12 C 0.91299(18) 0.42518(13) 0.2872(4)
H16_12 H 0.9046 0.4279 0.2237
C28_15 C 0.89575(14) 0.41227(10) 0.3838(4)
C29_15 C 0.95378(16) 0.35401(11) 0.5704(4)
C30_15 C 0.93104(18) 0.32493(12) 0.5633(6)
H17_15 H 0.9184 0.3166 0.6231
C31_15 C 0.92778(21) 0.30923(14) 0.4692(7)
H18_15 H 0.9128 0.2902 0.4655
C32_15 C 0.94648(22) 0.32102(15) 0.3780(6)
H19_12 H 0.9435 0.3100 0.3137
C33_15 C 0.96865(18) 0.34804(13) 0.3828(5)
H20_12 H 0.9813 0.3554 0.3222
C34_15 C 0.97338(16) 0.36573(11) 0.4784(4)
C35_15 C 0.99590(15) 0.39404(11) 0.4860(4)
C37_15 C 0.99822(15) 0.41047(11) 0.5807(4)
C41_9 C 0.98007(18) 0.41405(13) 0.7648(4)
H24_9 H 0.9669 0.4058 0.8230
C42_9 C 0.97776(15) 0.39740(11) 0.6688(4)
C43_15 C 0.91935(15) 0.52110(10) 0.6038(4)
C44_9 C 0.93189(18) 0.51919(12) 0.7060(4)
H25_9 H 0.9353 0.5324 0.7626
C45_9 C 0.93890(21) 0.49863(14) 0.7230(5)
H26_9 H 0.9475 0.4981 0.7901
C46_15 C 0.93328(19) 0.47766(13) 0.6391(5)
H27_15 H 0.9383 0.4636 0.6512
C47_15 C 0.92066(17) 0.47814(12) 0.5415(5)
H28_15 H 0.9171 0.4643 0.4871
C48_15 C 0.91293(15) 0.49949(10) 0.5209(4)
C49_15 C 0.89965(15) 0.50063(10) 0.4216(4)
C50_15 C 0.89041(17) 0.47710(12) 0.3348(4)
C51_15 C 0.89447(16) 0.52341(11) 0.4025(4)
C52_12 C 0.88273(18) 0.52693(13) 0.3004(5)
H29_12 H 0.8777 0.5134 0.2434
C53_10 C 0.87897(21) 0.54959(15) 0.2861(6)
H30_10 H 0.8719 0.5519 0.2182
C54_15 C 0.88557(20) 0.56984(15) 0.3714(6)
H31_15 H 0.8824 0.5851 0.3601
C55_15 C 0.89653(18) 0.56733(13) 0.4699(5)
H32_15 H 0.9007 0.5809 0.5261
C56_15 C 0.90191(16) 0.54449(11) 0.4891(4)
C57_12 C 0.82827(22) 0.45420(15) 0.1580(8)
H33_12 H 0.8089 0.4492 0.1392
H34_12 H 0.8413 0.4668 0.1017
H35_12 H 0.8334 0.4637 0.2295
C58_12 C 0.83680(22) 0.36226(16) 0.1787(7)
H36_12 H 0.8279 0.3505 0.1140
H37_12 H 0.8274 0.3516 0.2453
H38_12 H 0.8568 0.3676 0.1806
C59_9 C 0.96700(26) 0.3390(2) 0.8663(7)
H39_9 H 0.9709 0.3323 0.9352
H40_9 H 0.9814 0.3588 0.8545
H41_9 H 0.9675 0.3276 0.8051
C60_9 C 0.86629(25) 0.3299(2) 0.8851(7)
H42_9 H 0.8558 0.3182 0.9480
H43_9 H 0.8555 0.3218 0.8176
H44_9 H 0.8695 0.3490 0.8950
O13_9 O 0.96125(11) 0.59784(8) 0.5947(3)
O14_6 O 0.93661(16) 0.60643(13) 0.7946(3)
O15_6 O 0.89566(16) 0.55997(13) 0.7895(3)
Cu3_10 Cu 0.314133(14) 0.904175(13) 0.10557(5)
Cu4_7 Cu 0.090493(14) 0.685227(13) 0.02544(5)
O3_10 O 0.30354(8) 0.87189(8) 0.0070(3)
O4_10 O 0.26027(11) 0.84389(12) 0.0787(4)
O11_7 O 0.33017(10) 0.93661(8) 0.2054(3)
O12_7 O 0.33568(10) 0.89566(9) 0.2105(3)
H11_10 H 0.3053 0.7778 0.0631
C19_10 C 0.29193(14) 0.80307(15) 0.0025(5)
H12_10 H 0.2959 0.8142 0.0671
C22_10 C 0.27858(13) 0.84981(12) 0.0080(4)
C39_10 C 0.21166(14) 0.89966(15) 0.0175(6)
H22_10 H 0.1924 0.8947 0.0230
C40_10 C 0.22488(15) 0.89282(15) 0.1057(5)
H23_10 H 0.2143 0.8837 0.1697
C41_10 C 0.25261(13) 0.89935(13) 0.0982(4)
H24_10 H 0.2608 0.8944 0.1564
C42_10 C 0.26926(11) 0.91369(10) 0.0022(4)
C44_10 C 0.14747(12) 0.74603(14) 0.0394(4)
H25_10 H 0.1342 0.7362 0.0960
C45_10 C 0.16803(14) 0.77360(15) 0.0564(5)
H26_10 H 0.1685 0.7827 0.1235
C59_10 C 0.3276(2) 0.96130(16) 0.1997(7)
H39_10 H 0.3343 0.9719 0.2686
H40_10 H 0.3078 0.9559 0.1879
H41_10 H 0.3390 0.9732 0.1385
C60_10 C 0.3367(2) 0.86969(15) 0.2185(7)
H42_10 H 0.3484 0.8709 0.2814
H43_10 H 0.3448 0.8670 0.1510
H44_10 H 0.3176 0.8538 0.2284
O14_7 O 0.06023(13) 0.66351(10) 0.1280(3)
O15_7 O 0.10669(13) 0.66902(10) 0.1229(3)
C2_10 C 0.35896(12) 0.75466(13) 0.9450(4)
H1_10 H 0.3717 0.7623 0.8851
C3_10 C 0.33703(14) 0.72748(14) 0.9398(5)
H2_10 H 0.3349 0.7165 0.8765
Cu7_9 Cu 0.417568(14) 0.813943(20) 0.93357(5)
C2_11 C 0.75466(13) 0.39569(18) 0.0550(4)
H1_11 H 0.7623 0.3905 0.1149
C3_11 C 0.72748(14) 0.39044(20) 0.0602(5)
H2_11 H 0.7165 0.3815 0.1235
Cu3_11 Cu 0.904175(13) 0.590041(19) 0.89443(5)
O3_11 O 0.87189(8) 0.56834(11) 0.9930(3)
O4_11 O 0.84389(12) 0.58361(16) 0.9213(4)
H11_11 H 0.7778 0.4724 0.9369
C19_11 C 0.80307(15) 0.51113(21) 0.9975(5)
H12_11 H 0.8142 0.5182 0.9329
C22_11 C 0.84981(12) 0.57122(18) 0.9920(4)
C39_11 C 0.89966(15) 0.68799(21) 0.9825(6)
H22_11 H 0.8947 0.7022 0.9770
C40_11 C 0.89282(15) 0.66793(21) 0.8943(5)
H23_11 H 0.8837 0.6693 0.8303
C41_11 C 0.89935(13) 0.64673(18) 0.9018(4)
H24_11 H 0.8944 0.6335 0.8436
C42_11 C 0.91369(10) 0.64442(15) 0.9978(4)
C44_11 C 0.74603(14) 0.59855(18) 0.9606(4)
H25_11 H 0.7362 0.6019 0.9040
C45_11 C 0.77360(15) 0.60556(21) 0.9436(5)
H26_11 H 0.7827 0.6141 0.8765
C59_11 C 0.96130(16) 0.63366(26) 0.8003(7)
H39_11 H 0.9719 0.6375 0.7314
H40_11 H 0.9559 0.6480 0.8121
H41_11 H 0.9732 0.6341 0.8615
C60_11 C 0.86969(15) 0.53295(25) 0.7815(7)
H42_11 H 0.8709 0.5224 0.7186
H43_11 H 0.8670 0.5221 0.8490
H44_11 H 0.8538 0.5361 0.7716
C2_12 C 0.60431(18) 0.35896(12) 0.0550(4)
H1_12 H 0.6095 0.3717 0.1149
C3_12 C 0.60956(20) 0.33703(14) 0.0602(5)
H2_12 H 0.6185 0.3349 0.1235
Cu3_12 Cu 0.409959(19) 0.314133(14) 0.89443(5)
O3_12 O 0.43166(11) 0.30354(8) 0.9930(3)
O4_12 O 0.41639(16) 0.26027(11) 0.9213(4)
H11_12 H 0.5276 0.3053 0.9369
C19_12 C 0.48887(21) 0.29193(14) 0.9975(5)
H12_12 H 0.4818 0.2959 0.9329
C22_12 C 0.42878(18) 0.27858(13) 0.9920(4)
C39_12 C 0.31201(21) 0.21166(14) 0.9825(6)
H22_12 H 0.2978 0.1924 0.9770
C40_12 C 0.33207(21) 0.22488(15) 0.8943(5)
H23_12 H 0.3307 0.2143 0.8303
C41_12 C 0.35327(18) 0.25261(13) 0.9018(4)
H24_12 H 0.3665 0.2608 0.8436
C42_12 C 0.35558(15) 0.26926(11) 0.9978(4)
C44_12 C 0.40145(18) 0.14747(12) 0.9606(4)
H25_12 H 0.3981 0.1342 0.9040
C45_12 C 0.39444(21) 0.16803(14) 0.9436(5)
H26_12 H 0.3859 0.1685 0.8765
C59_12 C 0.36634(26) 0.3276(2) 0.8003(7)
H39_12 H 0.3625 0.3343 0.7314
H40_12 H 0.3520 0.3078 0.8121
H41_12 H 0.3659 0.3390 0.8615
C60_12 C 0.46705(25) 0.3367(2) 0.7815(7)
H42_12 H 0.4776 0.3484 0.7186
H43_12 H 0.4779 0.3448 0.8490
H44_12 H 0.4639 0.3176 0.7716
Cu2_13 Cu 0.087093(14) 0.901870(14) 0.06543(5)
O1_16 O 0.02925(9) 0.89538(8) 0.3619(3)
O2_13 O 0.00580(12) 0.91357(11) 0.2708(4)
O6_13 O 0.08631(12) 0.73879(11) 0.0163(4)
O8_13 O 0.14697(10) 0.90793(11) 0.0802(4)
O9_13 O 0.09542(8) 0.93186(8) 0.1697(3)
O10_13 O 0.05367(8) 0.88583(8) 0.1600(3)
C4_16 C 0.01638(15) 0.95140(13) 0.6372(5)
H3_16 H 0.0315 0.9703 0.6422
C5_16 C 0.01353(13) 0.93574(12) 0.5458(5)
H4_16 H 0.0267 0.9440 0.4875
C8_16 C 0.00882(13) 0.90062(12) 0.3476(4)
C26_13 C 0.10013(15) 0.82587(14) 0.0480(5)
H15_13 H 0.1084 0.8235 0.1126
C27_13 C 0.09185(13) 0.84553(12) 0.0461(4)
H16_13 H 0.0946 0.8567 0.1096
H20_13 H 0.0221 0.7075 0.0111
C52_13 C 0.19360(13) 0.97754(13) 0.0329(5)
H29_13 H 0.1801 0.9691 0.0899
C57_13 C 0.12087(15) 0.95927(16) 0.1753(8)
H33_13 H 0.1159 0.9737 0.1941
H34_13 H 0.1335 0.9589 0.2316
H35_13 H 0.1304 0.9637 0.1038
C58_13 C 0.02893(16) 0.85880(15) 0.1546(7)
H36_13 H 0.0172 0.8560 0.2193
H37_13 H 0.0183 0.8576 0.0880
H38_13 H 0.0343 0.8442 0.1527
C1_16 C 0.97045(10) 0.89470(10) 0.6251(4)
C2_13 C 0.97437(12) 0.91201(13) 0.7217(4)
H1_13 H 0.9616 0.9044 0.7816
C3_13 C 0.99630(14) 0.93919(14) 0.7269(5)
H2_13 H 0.9984 0.9502 0.7902
C6_16 C 0.99070(11) 0.90656(11) 0.5359(4)
C7_16 C 0.98712(11) 0.88943(11) 0.4421(4)
C9_16 C 0.96331(11) 0.86135(12) 0.4362(4)
C10_16 C 0.95724(14) 0.84316(14) 0.3418(5)
H5_13 H 0.9697 0.8496 0.2807
C11_16 C 0.93357(16) 0.81648(16) 0.3389(7)
H6_13 H 0.9296 0.8050 0.2754
C12_16 C 0.91522(17) 0.80633(17) 0.4320(7)
H7_16 H 0.8995 0.7878 0.4302
C13_16 C 0.91972(15) 0.82275(15) 0.5250(6)
H8_16 H 0.9071 0.8155 0.5854
C14_16 C 0.94395(12) 0.85116(12) 0.5291(5)
H19_13 H 0.9767 0.6999 0.0196
Cu2_14 Cu 0.098130(14) 0.185223(20) 0.06543(5)
O1_17 O 0.10462(8) 0.13387(12) 0.3619(3)
O2_14 O 0.08643(11) 0.09223(16) 0.2708(4)
O6_14 O 0.26121(11) 0.34752(16) 0.0163(4)
O8_14 O 0.09207(11) 0.23904(15) 0.0802(4)
O9_14 O 0.06814(8) 0.16356(11) 0.1697(3)
O10_14 O 0.11417(8) 0.16784(11) 0.1600(3)
C1_17 C 0.10530(10) 0.07575(14) 0.6251(4)
C2_14 C 0.08799(13) 0.06236(18) 0.7217(4)
H1_14 H 0.0956 0.0572 0.7816
C3_14 C 0.06081(14) 0.05711(20) 0.7269(5)
H2_14 H 0.0498 0.0482 0.7902
C4_17 C 0.04860(13) 0.06498(20) 0.6372(5)
H3_17 H 0.0297 0.0612 0.6422
C5_17 C 0.06426(12) 0.07779(18) 0.5458(5)
H4_17 H 0.0560 0.0827 0.4875
C6_17 C 0.09344(11) 0.08414(16) 0.5359(4)
C7_17 C 0.11057(11) 0.09769(16) 0.4421(4)
C8_17 C 0.09938(12) 0.10820(18) 0.3476(4)
C9_17 C 0.13865(12) 0.10196(16) 0.4362(4)
C10_17 C 0.15684(14) 0.11408(20) 0.3418(5)
H5_14 H 0.1504 0.1201 0.2807
C11_17 C 0.18352(16) 0.11709(23) 0.3389(7)
H6_14 H 0.1950 0.1246 0.2754
C12_17 C 0.19367(17) 0.10889(24) 0.4320(7)
H7_17 H 0.2122 0.1117 0.4302
C13_17 C 0.17725(15) 0.09697(21) 0.5250(6)
H8_17 H 0.1845 0.0916 0.5854
C14_17 C 0.14884(12) 0.09279(17) 0.5291(5)
C26_14 C 0.17413(14) 0.27426(21) 0.0480(5)
H15_14 H 0.1765 0.2849 0.1126
C27_14 C 0.15447(12) 0.24632(18) 0.0461(4)
H16_14 H 0.1433 0.2379 0.1096
H19_14 H 0.3001 0.2768 0.0196
H20_14 H 0.2925 0.3146 0.0111
C52_14 C 0.02246(13) 0.21606(18) 0.0329(5)
H29_14 H 0.0309 0.2110 0.0899
C57_14 C 0.04073(16) 0.16160(22) 0.1753(8)
H33_14 H 0.0263 0.1422 0.1941
H34_14 H 0.0411 0.1746 0.2316
H35_14 H 0.0363 0.1667 0.1038
C58_14 C 0.14120(15) 0.17013(22) 0.1546(7)
H36_14 H 0.1440 0.1612 0.2193
H37_14 H 0.1424 0.1607 0.0880
H38_14 H 0.1558 0.1901 0.1527
Cu5_7 Cu 0.314773(13) 0.405267(19) 0.02544(5)
C1_18 C 0.92425(14) 0.02955(10) 0.6251(4)
C2_15 C 0.93764(18) 0.02563(12) 0.7217(4)
H1_15 H 0.9428 0.0384 0.7816
C3_15 C 0.94289(20) 0.00370(14) 0.7269(5)
H2_15 H 0.9518 0.0016 0.7902
C6_18 C 0.91586(16) 0.00930(11) 0.5359(4)
C7_18 C 0.90231(16) 0.01288(11) 0.4421(4)
C9_18 C 0.89804(16) 0.03669(11) 0.4362(4)
C10_18 C 0.88592(20) 0.04276(14) 0.3418(5)
H5_15 H 0.8799 0.0303 0.2807
C11_18 C 0.88291(23) 0.06643(16) 0.3389(7)
H6_15 H 0.8754 0.0704 0.2754
C12_18 C 0.89111(24) 0.08478(17) 0.4320(7)
H7_18 H 0.8883 0.1005 0.4302
C13_18 C 0.90303(21) 0.08028(15) 0.5250(6)
H8_18 H 0.9084 0.0929 0.5854
C14_18 C 0.90721(17) 0.05605(12) 0.5291(5)
H19_15 H 0.7232 0.0233 0.0196
Cu2_15 Cu 0.814777(20) 0.912907(14) 0.06543(5)
O1_18 O 0.86613(12) 0.97075(9) 0.3619(3)
O2_15 O 0.90777(16) 0.99420(12) 0.2708(4)
O6_15 O 0.65248(16) 0.91369(12) 0.0163(4)
O8_15 O 0.76096(15) 0.85303(10) 0.0802(4)
O9_15 O 0.83644(11) 0.90458(8) 0.1697(3)
O10_15 O 0.83216(11) 0.94633(8) 0.1600(3)
C4_18 C 0.93502(20) 0.98362(15) 0.6372(5)
H3_18 H 0.9388 0.9685 0.6422
C5_18 C 0.92221(18) 0.98647(13) 0.5458(5)
H4_18 H 0.9173 0.9733 0.4875
C8_18 C 0.89180(18) 0.99118(13) 0.3476(4)
C26_15 C 0.72574(21) 0.89987(15) 0.0480(5)
H15_15 H 0.7151 0.8916 0.1126
C27_15 C 0.75368(18) 0.90815(13) 0.0461(4)
H16_15 H 0.7621 0.9054 0.1096
H20_15 H 0.6854 0.9779 0.0111
C52_15 C 0.78394(18) 0.80640(13) 0.0329(5)
H29_15 H 0.7890 0.8199 0.0899
C53_11 C 0.78770(21) 0.78374(15) 0.0472(6)
H30_11 H 0.7948 0.7814 0.1151
C57_15 C 0.83840(22) 0.87913(15) 0.1753(8)
H33_15 H 0.8578 0.8841 0.1941
H34_15 H 0.8254 0.8665 0.2316
H35_15 H 0.8333 0.8696 0.1038
C58_15 C 0.82987(22) 0.97107(16) 0.1546(7)
H36_15 H 0.8388 0.9828 0.2193
H37_15 H 0.8393 0.9817 0.0880
H38_15 H 0.8099 0.9657 0.1527
Cu5_8 Cu 0.594733(19) 0.909507(14) 0.02544(5)
Cu1_8 Cu 0.396374(14) 0.582432(14) 0.93357(5)
Cu2_16 Cu 0.420426(14) 0.568537(14) 0.73210(5)
Cu3_13 Cu 0.352533(14) 0.429159(13) 0.22777(5)
O2_16 O 0.33913(12) 0.58024(11) 0.9375(4)
O3_13 O 0.36312(8) 0.46145(8) 0.3264(3)
O4_13 O 0.40639(11) 0.48945(12) 0.2547(4)
O6_16 O 0.41964(12) 0.40546(11) 0.6830(4)
O7_16 O 0.45493(8) 0.58885(8) 0.6437(3)
O8_16 O 0.48030(10) 0.57460(11) 0.7469(4)
O9_16 O 0.42875(8) 0.59853(8) 0.8364(3)
O10_16 O 0.38700(8) 0.55250(8) 0.8267(3)
O11_8 O 0.33649(10) 0.39673(8) 0.1280(3)
O12_8 O 0.33098(10) 0.43768(9) 0.1229(3)
N2_16 N 0.40500(9) 0.53721(9) 0.6163(3)
N3_16 N 0.36960(9) 0.41373(9) 0.3364(3)
N4_16 N 0.54258(9) 0.62892(9) 0.4137(3)
H5_16 H 0.3030 0.5163 0.9474
H6_16 H 0.2629 0.4717 0.9421
C15_16 C 0.39297(11) 0.54163(11) 0.5250(5)
C16_16 C 0.38544(15) 0.56321(14) 0.5239(6)
H9_16 H 0.3883 0.5742 0.5881
C17_16 C 0.37403(18) 0.56841(18) 0.4309(7)
H10_16 H 0.3696 0.5831 0.4317
C18_16 C 0.36889(18) 0.55167(18) 0.3336(7)
H11_13 H 0.3613 0.5556 0.2703
C19_13 C 0.37473(14) 0.53027(15) 0.3309(5)
H12_13 H 0.3707 0.5192 0.2663
C20_16 C 0.38708(11) 0.52418(11) 0.4264(4)
C21_16 C 0.39461(10) 0.50279(10) 0.4264(4)
C22_13 C 0.38808(13) 0.48353(12) 0.3254(4)
C23_16 C 0.40785(10) 0.49882(10) 0.5201(4)
C24_16 C 0.41722(12) 0.47828(12) 0.5260(5)
H13_16 H 0.4146 0.4667 0.4640
C25_16 C 0.42972(15) 0.47513(13) 0.6186(5)
H14_16 H 0.4359 0.4617 0.6200
C26_16 C 0.43346(15) 0.49254(14) 0.7147(5)
H15_16 H 0.4417 0.4902 0.7793
C27_16 C 0.42518(13) 0.51220(12) 0.7128(4)
H16_16 H 0.4279 0.5234 0.7763
C28_16 C 0.41227(10) 0.51653(10) 0.6162(4)
C29_16 C 0.35401(11) 0.40024(11) 0.4296(4)
C30_16 C 0.32493(12) 0.39390(14) 0.4367(6)
H17_16 H 0.3166 0.3983 0.3769
C31_16 C 0.30923(14) 0.38146(16) 0.5308(7)
H18_16 H 0.2902 0.3775 0.5345
C32_16 C 0.32102(15) 0.37455(16) 0.6220(6)
H19_16 H 0.3100 0.3666 0.6863
C33_16 C 0.34804(13) 0.37940(13) 0.6172(5)
H20_16 H 0.3554 0.3742 0.6778
C34_16 C 0.36573(11) 0.39236(11) 0.5216(4)
C35_16 C 0.39404(11) 0.39815(10) 0.5140(4)
C36_16 C 0.40665(12) 0.38884(12) 0.6066(4)
C37_16 C 0.41047(11) 0.41226(10) 0.4193(4)
C38_16 C 0.43967(12) 0.41984(13) 0.4083(5)
H21_16 H 0.4484 0.4153 0.4655
C39_13 C 0.45500(14) 0.43368(15) 0.3159(6)
H22_13 H 0.4742 0.4387 0.3104
C40_13 C 0.44178(15) 0.44052(15) 0.2277(5)
H23_13 H 0.4523 0.4497 0.1637
C41_13 C 0.41405(13) 0.43399(13) 0.2352(4)
H24_13 H 0.4058 0.4390 0.1770
C42_13 C 0.39740(11) 0.41965(10) 0.3312(4)
C43_16 C 0.52110(10) 0.60176(11) 0.3962(4)
C44_13 C 0.51919(12) 0.58731(14) 0.2940(4)
H25_13 H 0.5324 0.5972 0.2374
C45_13 C 0.49863(14) 0.55974(15) 0.2770(5)
H26_13 H 0.4981 0.5507 0.2099
C46_16 C 0.47766(13) 0.54439(14) 0.3609(5)
H27_16 H 0.4636 0.5254 0.3488
C47_16 C 0.47814(12) 0.55749(12) 0.4585(5)
H28_16 H 0.4643 0.5473 0.5129
C48_16 C 0.49949(10) 0.58657(11) 0.4791(4)
C49_16 C 0.50063(10) 0.60099(11) 0.5784(4)
C50_16 C 0.47710(12) 0.58670(12) 0.6652(4)
C51_16 C 0.52341(11) 0.62895(11) 0.5975(4)
C52_16 C 0.52693(13) 0.64421(13) 0.6996(5)
H29_16 H 0.5134 0.6358 0.7566
C53_12 C 0.54959(15) 0.67063(14) 0.7139(6)
H30_12 H 0.5519 0.6801 0.7818
C54_16 C 0.56984(15) 0.68428(13) 0.6286(6)
H31_16 H 0.5851 0.7028 0.6399
C55_16 C 0.56733(13) 0.67081(12) 0.5301(5)
H32_16 H 0.5809 0.6803 0.4739
C56_16 C 0.54449(11) 0.64259(11) 0.5109(4)
C57_16 C 0.45420(15) 0.62594(16) 0.8420(8)
H33_16 H 0.4492 0.6404 0.8608
H34_16 H 0.4668 0.6256 0.8983
H35_16 H 0.4637 0.6304 0.7705
C58_16 C 0.36226(16) 0.52547(15) 0.8213(7)
H36_16 H 0.3505 0.5227 0.8860
H37_16 H 0.3516 0.5243 0.7547
H38_16 H 0.3676 0.5109 0.8194
C59_13 C 0.3390(2) 0.37204(16) 0.1337(7)
H39_13 H 0.3323 0.3615 0.0648
H40_13 H 0.3588 0.3775 0.1455
H41_13 H 0.3276 0.3602 0.1949
C60_13 C 0.3299(2) 0.46365(15) 0.1149(7)
H42_13 H 0.3182 0.4625 0.0520
H43_13 H 0.3218 0.4664 0.1824
H44_13 H 0.3490 0.4796 0.1050
O14_8 O 0.60643(13) 0.66983(10) 0.2054(3)
O15_8 O 0.55997(13) 0.66432(10) 0.2105(3)
O6_17 O 0.59454(11) 0.01419(16) 0.6830(4)
C36_17 C 0.61116(12) 0.01782(17) 0.6066(4)
C38_17 C 0.58016(13) 0.01984(18) 0.4083(5)
H21_17 H 0.5847 0.0332 0.4655
C39_14 C 0.56632(15) 0.02133(21) 0.3159(6)
H22_14 H 0.5613 0.0356 0.3104
C40_14 C 0.55948(15) 0.00127(21) 0.2277(5)
H23_14 H 0.5503 0.0027 0.1637
Cu2_17 Cu 0.431463(14) 0.851890(20) 0.73210(5)
Cu3_14 Cu 0.570841(13) 0.923375(19) 0.22777(5)
O2_17 O 0.41976(11) 0.75890(16) 0.9375(4)
O3_14 O 0.53855(8) 0.90168(11) 0.3264(3)
O4_14 O 0.51055(12) 0.91695(16) 0.2547(4)
O7_17 O 0.41115(8) 0.86609(11) 0.6437(3)
O8_17 O 0.42540(11) 0.90571(15) 0.7469(4)
O9_17 O 0.40147(8) 0.83023(11) 0.8364(3)
O10_17 O 0.44750(8) 0.83451(11) 0.8267(3)
O11_9 O 0.60327(8) 0.93977(13) 0.1280(3)
O12_9 O 0.56232(9) 0.89331(13) 0.1229(3)
N2_17 N 0.46279(9) 0.86780(13) 0.6163(3)
N3_17 N 0.58627(9) 0.95588(13) 0.3364(3)
N4_17 N 0.37108(9) 0.91367(13) 0.4137(3)
H5_17 H 0.4837 0.7868 0.9474
H6_17 H 0.5283 0.7913 0.9421
C15_17 C 0.45837(11) 0.85135(16) 0.5250(5)
C16_17 C 0.43679(14) 0.82224(21) 0.5239(6)
H9_17 H 0.4258 0.8142 0.5881
C17_17 C 0.43159(18) 0.80563(25) 0.4309(7)
H10_17 H 0.4169 0.7866 0.4317
C18_17 C 0.44833(18) 0.81723(25) 0.3336(7)
H11_14 H 0.4444 0.8058 0.2703
C19_14 C 0.46973(15) 0.84447(21) 0.3309(5)
H12_14 H 0.4808 0.8516 0.2663
C20_17 C 0.47582(11) 0.86291(16) 0.4264(4)
C21_17 C 0.49721(10) 0.89183(14) 0.4264(4)
C22_14 C 0.51647(12) 0.90456(18) 0.3254(4)
C23_17 C 0.50118(10) 0.90904(14) 0.5201(4)
C24_17 C 0.52172(12) 0.93895(17) 0.5260(5)
H13_17 H 0.5333 0.9480 0.4640
C25_17 C 0.52487(13) 0.95460(20) 0.6186(5)
H14_17 H 0.5383 0.9743 0.6200
C26_17 C 0.50746(14) 0.94093(21) 0.7147(5)
H15_17 H 0.5098 0.9516 0.7793
C27_17 C 0.48780(12) 0.91299(18) 0.7128(4)
H16_17 H 0.4766 0.9046 0.7763
C28_17 C 0.48347(10) 0.89575(14) 0.6162(4)
C29_17 C 0.59976(11) 0.95378(16) 0.4296(4)
C30_17 C 0.60610(14) 0.93104(18) 0.4367(6)
H17_17 H 0.6017 0.9184 0.3769
C31_17 C 0.61854(16) 0.92778(21) 0.5308(7)
H18_17 H 0.6225 0.9128 0.5345
C32_17 C 0.62545(16) 0.94648(22) 0.6220(6)
H19_17 H 0.6334 0.9435 0.6863
C33_17 C 0.62060(13) 0.96865(18) 0.6172(5)
H20_17 H 0.6258 0.9813 0.6778
C34_17 C 0.60764(11) 0.97338(16) 0.5216(4)
C35_17 C 0.60185(10) 0.99590(15) 0.5140(4)
C37_17 C 0.58774(10) 0.99822(15) 0.4193(4)
C41_14 C 0.56601(13) 0.98007(18) 0.2352(4)
H24_14 H 0.5610 0.9669 0.1770
C42_14 C 0.58035(10) 0.97776(15) 0.3312(4)
C43_17 C 0.39824(11) 0.91935(15) 0.3962(4)
C44_14 C 0.41269(14) 0.93189(18) 0.2940(4)
H25_14 H 0.4028 0.9353 0.2374
C45_14 C 0.44026(15) 0.93890(21) 0.2770(5)
H26_14 H 0.4493 0.9475 0.2099
C46_17 C 0.45561(14) 0.93328(19) 0.3609(5)
H27_17 H 0.4746 0.9383 0.3488
C47_17 C 0.44251(12) 0.92066(17) 0.4585(5)
H28_17 H 0.4527 0.9171 0.5129
C48_17 C 0.41343(11) 0.91293(15) 0.4791(4)
C49_17 C 0.39901(11) 0.89965(15) 0.5784(4)
C50_17 C 0.41330(12) 0.89041(17) 0.6652(4)
C51_17 C 0.37105(11) 0.89447(16) 0.5975(4)
C52_17 C 0.35579(13) 0.88273(18) 0.6996(5)
H29_17 H 0.3642 0.8777 0.7566
C53_13 C 0.32937(14) 0.87897(21) 0.7139(6)
H30_13 H 0.3199 0.8719 0.7818
C54_17 C 0.31572(13) 0.88557(20) 0.6286(6)
H31_17 H 0.2972 0.8824 0.6399
C55_17 C 0.32919(12) 0.89653(18) 0.5301(5)
H32_17 H 0.3197 0.9007 0.4739
C56_17 C 0.35741(11) 0.90191(16) 0.5109(4)
C57_17 C 0.37406(16) 0.82827(22) 0.8420(8)
H33_17 H 0.3596 0.8089 0.8608
H34_17 H 0.3744 0.8413 0.8983
H35_17 H 0.3696 0.8334 0.7705
C58_17 C 0.47453(15) 0.83680(22) 0.8213(7)
H36_17 H 0.4773 0.8279 0.8860
H37_17 H 0.4757 0.8274 0.7547
H38_17 H 0.4891 0.8568 0.8194
C59_14 C 0.62796(16) 0.96700(26) 0.1337(7)
H39_14 H 0.6385 0.9709 0.0648
H40_14 H 0.6225 0.9814 0.1455
H41_14 H 0.6398 0.9675 0.1949
C60_14 C 0.53635(15) 0.86629(25) 0.1149(7)
H42_14 H 0.5375 0.8558 0.0520
H43_14 H 0.5336 0.8555 0.1824
H44_14 H 0.5204 0.8695 0.1050
Cu1_9 Cu 0.186057(20) 0.603626(14) 0.93357(5)
Cu2_18 Cu 0.148110(20) 0.579574(14) 0.73210(5)
Cu3_15 Cu 0.076625(19) 0.647467(14) 0.22777(5)
O2_18 O 0.24110(16) 0.66087(12) 0.9375(4)
O3_15 O 0.09832(11) 0.63688(8) 0.3264(3)
O4_15 O 0.08305(16) 0.59361(11) 0.2547(4)
O7_18 O 0.13391(11) 0.54507(8) 0.6437(3)
O8_18 O 0.09429(15) 0.51970(10) 0.7469(4)
O9_18 O 0.16977(11) 0.57125(8) 0.8364(3)
O10_18 O 0.16549(11) 0.61300(8) 0.8267(3)
N2_18 N 0.13220(13) 0.59500(9) 0.6163(3)
N3_18 N 0.04412(13) 0.63040(9) 0.3364(3)
N4_18 N 0.08633(13) 0.45742(9) 0.4137(3)
H5_18 H 0.2132 0.6970 0.9474
H6_18 H 0.2087 0.7371 0.9421
C15_18 C 0.14865(16) 0.60703(11) 0.5250(5)
C16_18 C 0.17776(21) 0.61456(15) 0.5239(6)
H9_18 H 0.1858 0.6117 0.5881
C17_18 C 0.19437(25) 0.62597(18) 0.4309(7)
H10_18 H 0.2134 0.6304 0.4317
C18_18 C 0.18277(25) 0.63111(18) 0.3336(7)
H11_15 H 0.1942 0.6387 0.2703
C19_15 C 0.15553(21) 0.62527(14) 0.3309(5)
H12_15 H 0.1484 0.6293 0.2663
C20_18 C 0.13709(16) 0.61292(11) 0.4264(4)
C21_18 C 0.10817(14) 0.60539(10) 0.4264(4)
C22_15 C 0.09544(18) 0.61192(13) 0.3254(4)
C23_18 C 0.09096(14) 0.59215(10) 0.5201(4)
C24_18 C 0.06105(17) 0.58278(12) 0.5260(5)
H13_18 H 0.0520 0.5854 0.4640
C25_18 C 0.04540(20) 0.57028(15) 0.6186(5)
H14_18 H 0.0257 0.5641 0.6200
C26_18 C 0.05907(21) 0.56654(15) 0.7147(5)
H15_18 H 0.0484 0.5583 0.7793
C27_18 C 0.08701(18) 0.57482(13) 0.7128(4)
H16_18 H 0.0954 0.5721 0.7763
C28_18 C 0.10425(14) 0.58773(10) 0.6162(4)
C29_18 C 0.04622(16) 0.64599(11) 0.4296(4)
C30_18 C 0.06896(18) 0.67507(12) 0.4367(6)
H17_18 H 0.0816 0.6834 0.3769
C31_18 C 0.07222(21) 0.69077(14) 0.5308(7)
H18_18 H 0.0872 0.7098 0.5345
C32_18 C 0.05352(22) 0.67898(15) 0.6220(6)
H19_18 H 0.0565 0.6900 0.6863
C33_18 C 0.03135(18) 0.65196(13) 0.6172(5)
H20_18 H 0.0187 0.6446 0.6778
C34_18 C 0.02662(16) 0.63427(11) 0.5216(4)
C35_18 C 0.00410(15) 0.60596(11) 0.5140(4)
C37_18 C 0.00178(15) 0.58953(11) 0.4193(4)
C41_15 C 0.01993(18) 0.58595(13) 0.2352(4)
H24_15 H 0.0331 0.5942 0.1770
C42_15 C 0.02224(15) 0.60260(11) 0.3312(4)
C43_18 C 0.08065(15) 0.47890(10) 0.3962(4)
C44_15 C 0.06811(18) 0.48081(12) 0.2940(4)
H25_15 H 0.0647 0.4676 0.2374
C45_15 C 0.06110(21) 0.50137(14) 0.2770(5)
H26_15 H 0.0525 0.5019 0.2099
C46_18 C 0.06672(19) 0.52234(13) 0.3609(5)
H27_18 H 0.0617 0.5364 0.3488
C47_18 C 0.07934(17) 0.52186(12) 0.4585(5)
H28_18 H 0.0829 0.5357 0.5129
C48_18 C 0.08707(15) 0.50051(10) 0.4791(4)
C49_18 C 0.10035(15) 0.49937(10) 0.5784(4)
C50_18 C 0.10959(17) 0.52290(12) 0.6652(4)
C51_18 C 0.10553(16) 0.47659(11) 0.5975(4)
C52_18 C 0.11727(18) 0.47307(13) 0.6996(5)
H29_18 H 0.1223 0.4866 0.7566
C53_14 C 0.12103(21) 0.45041(15) 0.7139(6)
H30_14 H 0.1281 0.4481 0.7818
C54_18 C 0.11443(20) 0.43016(15) 0.6286(6)
H31_18 H 0.1176 0.4149 0.6399
C55_18 C 0.10347(18) 0.43267(13) 0.5301(5)
H32_18 H 0.0993 0.4191 0.4739
C56_18 C 0.09809(16) 0.45551(11) 0.5109(4)
C57_18 C 0.17173(22) 0.54580(15) 0.8420(8)
H33_18 H 0.1911 0.5508 0.8608
H34_18 H 0.1587 0.5332 0.8983
H35_18 H 0.1666 0.5363 0.7705
C58_18 C 0.16320(22) 0.63774(16) 0.8213(7)
H36_18 H 0.1721 0.6495 0.8860
H37_18 H 0.1726 0.6484 0.7547
H38_18 H 0.1432 0.6324 0.8194
C59_15 C 0.03300(26) 0.6610(2) 0.1337(7)
H39_15 H 0.0291 0.6677 0.0648
H40_15 H 0.0186 0.6412 0.1455
H41_15 H 0.0325 0.6724 0.1949
C60_15 C 0.13371(25) 0.6701(2) 0.1149(7)
H42_15 H 0.1442 0.6818 0.0520
H43_15 H 0.1445 0.6782 0.1824
H44_15 H 0.1305 0.6510 0.1050
O14_9 O 0.06339(16) 0.39357(13) 0.2054(3)
O15_9 O 0.10434(16) 0.44003(13) 0.2105(3)
O6_18 O 0.98581(16) 0.58036(12) 0.6830(4)
C36_18 C 0.98218(17) 0.59335(12) 0.6066(4)
C38_18 C 0.98016(18) 0.56033(12) 0.4083(5)
H21_18 H 0.9668 0.5516 0.4655
C39_15 C 0.97867(21) 0.54500(14) 0.3159(6)
H22_15 H 0.9644 0.5258 0.3104
C40_15 C 0.99873(21) 0.55822(15) 0.2277(5)
H23_15 H 0.9973 0.5477 0.1637
C2_16 C 0.64104(12) 0.24534(13) 0.0550(4)
H1_16 H 0.6283 0.2377 0.1149
C3_16 C 0.66297(14) 0.27252(14) 0.0602(5)
H2_16 H 0.6651 0.2835 0.1235
Cu3_16 Cu 0.685867(14) 0.095825(13) 0.89443(5)
O3_16 O 0.69646(8) 0.12811(8) 0.9930(3)
O4_16 O 0.73973(11) 0.15611(12) 0.9213(4)
H11_16 H 0.6947 0.2222 0.9369
C19_16 C 0.70807(14) 0.19693(15) 0.9975(5)
H12_16 H 0.7041 0.1858 0.9329
C22_16 C 0.72142(13) 0.15019(12) 0.9920(4)
C39_16 C 0.78834(14) 0.10034(15) 0.9825(6)
H22_16 H 0.8076 0.1053 0.9770
C40_16 C 0.77512(15) 0.10718(15) 0.8943(5)
H23_16 H 0.7857 0.1163 0.8303
C41_16 C 0.74739(13) 0.10065(13) 0.9018(4)
H24_16 H 0.7392 0.1056 0.8436
C42_16 C 0.73074(11) 0.08631(10) 0.9978(4)
C44_16 C 0.85253(12) 0.25397(14) 0.9606(4)
H25_16 H 0.8658 0.2638 0.9040
C45_16 C 0.83197(14) 0.22640(15) 0.9436(5)
H26_16 H 0.8315 0.2173 0.8765
C59_16 C 0.6724(2) 0.03870(16) 0.8003(7)
H39_16 H 0.6657 0.0281 0.7314
H40_16 H 0.6922 0.0441 0.8121
H41_16 H 0.6610 0.0268 0.8615
C60_16 C 0.6633(2) 0.13031(15) 0.7815(7)
H42_16 H 0.6516 0.1291 0.7186
H43_16 H 0.6552 0.1330 0.8490
H44_16 H 0.6824 0.1462 0.7716
Cu3_17 Cu 0.095825(13) 0.409959(19) 0.10557(5)
O3_17 O 0.12811(8) 0.43166(11) 0.0070(3)
O4_17 O 0.15611(12) 0.41639(16) 0.0787(4)
H11_17 H 0.2222 0.5276 0.0631
C19_17 C 0.19693(15) 0.48887(21) 0.0025(5)
H12_17 H 0.1858 0.4818 0.0671
C22_17 C 0.15019(12) 0.42878(18) 0.0080(4)
C39_17 C 0.10034(15) 0.31201(21) 0.0175(6)
H22_17 H 0.1053 0.2978 0.0230
C40_17 C 0.10718(15) 0.33207(21) 0.1057(5)
H23_17 H 0.1163 0.3307 0.1697
C41_17 C 0.10065(13) 0.35327(18) 0.0982(4)
H24_17 H 0.1056 0.3665 0.1564
C42_17 C 0.08631(10) 0.35558(15) 0.0022(4)
C44_17 C 0.25397(14) 0.40145(18) 0.0394(4)
H25_17 H 0.2638 0.3981 0.0960
C45_17 C 0.22640(15) 0.39444(21) 0.0564(5)
H26_17 H 0.2173 0.3859 0.1235
C59_17 C 0.03870(16) 0.36634(26) 0.1997(7)
H39_17 H 0.0281 0.3625 0.2686
H40_17 H 0.0441 0.3520 0.1879
H41_17 H 0.0268 0.3659 0.1385
C60_17 C 0.13031(15) 0.46705(25) 0.2185(7)
H42_17 H 0.1291 0.4776 0.2814
H43_17 H 0.1330 0.4779 0.1510
H44_17 H 0.1462 0.4639 0.2284
C2_17 C 0.24534(13) 0.60431(18) 0.9450(4)
H1_17 H 0.2377 0.6095 0.8851
C3_17 C 0.27252(14) 0.60956(20) 0.9398(5)
H2_17 H 0.2835 0.6185 0.8765
Cu3_18 Cu 0.590041(19) 0.685867(14) 0.10557(5)
O3_18 O 0.56834(11) 0.69646(8) 0.0070(3)
O4_18 O 0.58361(16) 0.73973(11) 0.0787(4)
H11_18 H 0.4724 0.6947 0.0631
C19_18 C 0.51113(21) 0.70807(14) 0.0025(5)
H12_18 H 0.5182 0.7041 0.0671
C22_18 C 0.57122(18) 0.72142(13) 0.0080(4)
C39_18 C 0.68799(21) 0.78834(14) 0.0175(6)
H22_18 H 0.7022 0.8076 0.0230
C40_18 C 0.66793(21) 0.77512(15) 0.1057(5)
H23_18 H 0.6693 0.7857 0.1697
C41_18 C 0.64673(18) 0.74739(13) 0.0982(4)
H24_18 H 0.6335 0.7392 0.1564
C42_18 C 0.64442(15) 0.73074(11) 0.0022(4)
C44_18 C 0.59855(18) 0.85253(12) 0.0394(4)
H25_18 H 0.6019 0.8658 0.0960
C45_18 C 0.60556(21) 0.83197(14) 0.0564(5)
H26_18 H 0.6141 0.8315 0.1235
C59_18 C 0.63366(26) 0.6724(2) 0.1997(7)
H39_18 H 0.6375 0.6657 0.2686
H40_18 H 0.6480 0.6922 0.1879
H41_18 H 0.6341 0.6610 0.1385
C60_18 C 0.53295(25) 0.6633(2) 0.2185(7)
H42_18 H 0.5224 0.6516 0.2814
H43_18 H 0.5221 0.6552 0.1510
H44_18 H 0.5361 0.6824 0.2284
C2_18 C 0.39569(18) 0.64104(12) 0.9450(4)
H1_18 H 0.3905 0.6283 0.8851
C3_18 C 0.39044(20) 0.66297(14) 0.9398(5)
H2_18 H 0.3815 0.6651 0.8765
C53_15 C 0.78374(15) 0.99604(14) 0.9528(6)
H30_15 H 0.7814 0.9866 0.8849
C53_16 C 0.00396(14) 0.78770(21) 0.9528(6)
H30_16 H 0.0134 0.7948 0.8849
C53_17 C 0.21626(15) 0.00396(14) 0.0472(6)
H30_17 H 0.2186 0.0134 0.1151
C53_18 C 0.99604(14) 0.21230(21) 0.0472(6)
H30_18 H 0.9866 0.2052 0.1151
loop_
_geom_bond_atom_site_label_1
_geom_bond_atom_site_label_2
_geom_bond_site_symmetry_1
_geom_bond_site_symmetry_2
H17 C30 1_555 1_555
C31 C30 1_555 1_555
H18 C31 1_555 1_555
C32 C31 1_555 1_555
C60 O12 1_555 1_555
H42 C60 1_555 1_555
H43 C60 1_555 1_555
O12 Cu6 1_555 1_555
Cu3 O3 1_555 1_555
Cu4 N4 1_555 1_555
O3 C22 1_555 1_555
O4 C22 1_555 1_555
O5 C36 1_555 1_555
O7 C50 1_555 1_555
O11 Cu3 1_555 1_555
N3 Cu3 1_555 1_555
N4 C43 1_555 1_555
C15 N2 1_555 1_555
C16 C15 1_555 1_555
H9 C16 1_555 1_555
C17 C16 1_555 1_555
H10 C17 1_555 1_555
C18 C17 1_555 1_555
H11 C18 1_555 1_555
C19 C18 1_555 1_555
H12 C19 1_555 1_555
C20 C15 1_555 1_555
C21 C20 1_555 1_555
C22 C21 1_555 1_555
C23 C21 1_555 1_555
C24 C23 1_555 1_555
H13 C24 1_555 1_555
C25 C24 1_555 1_555
H14 C25 1_555 1_555
C28 N2 1_555 1_555
C29 N3 1_555 1_555
C34 C29 1_555 1_555
C35 C34 1_555 1_555
C36 C35 1_555 1_555
C37 C35 1_555 1_555
C38 C37 1_555 1_555
H21 C38 1_555 1_555
C39 C38 1_555 1_555
H22 C39 1_555 1_555
C40 C39 1_555 1_555
H23 C40 1_555 1_555
C41 C40 1_555 1_555
H24 C41 1_555 1_555
C42 N3 1_555 1_555
C43 C44 1_555 1_555
C44 H25 1_555 1_555
C45 C44 1_555 1_555
H26 C45 1_555 1_555
C46 C45 1_555 1_555
H27 C46 1_555 1_555
C47 C46 1_555 1_555
H28 C47 1_555 1_555
C48 C43 1_555 1_555
C49 C48 1_555 1_555
C50 C49 1_555 1_555
C51 C49 1_555 1_555
C56 N4 1_555 1_555
C59 O11 1_555 1_555
H40 C59 1_555 1_555
O13 Cu4 1_555 1_555
O15 Cu4 1_555 1_555
C19 C20 1_555 1_555
C23 C28 1_555 1_555
C33 C34 1_555 1_555
C37 C42 1_555 1_555
C41 C42 1_555 1_555
C47 C48 1_555 1_555
C51 C56 1_555 1_555
H31 C54 1_555 1_555
C55 C54 1_555 1_555
H32 C55 1_555 1_555
H31_2 C54_2 1_555 1_555
C55_2 C54_2 1_555 1_555
H32_2 C55_2 1_555 1_555
Cu3_2 O3_2 1_555 1_555
Cu4_2 N4_2 1_555 1_555
O3_2 C22_2 1_555 1_555
O4_2 C22_2 1_555 1_555
O5_2 C36_2 1_555 1_555
O7_2 C50_2 1_555 1_555
O11_2 Cu3_2 1_555 1_555
O12_2 Cu3_2 1_555 1_555
N3_2 Cu3_2 1_555 1_555
N4_2 C43_2 1_555 1_555
C15_2 N2_2 1_555 1_555
C16_2 C15_2 1_555 1_555
H9_2 C16_2 1_555 1_555
C17_2 C16_2 1_555 1_555
H10_2 C17_2 1_555 1_555
C18_2 C17_2 1_555 1_555
H11_2 C18_2 1_555 1_555
C19_2 C18_2 1_555 1_555
H12_2 C19_2 1_555 1_555
C20_2 C15_2 1_555 1_555
C21_2 C20_2 1_555 1_555
C22_2 C21_2 1_555 1_555
C23_2 C21_2 1_555 1_555
C24_2 C23_2 1_555 1_555
H13_2 C24_2 1_555 1_555
C25_2 C24_2 1_555 1_555
H14_2 C25_2 1_555 1_555
C28_2 N2_2 1_555 1_555
C29_2 N3_2 1_555 1_555
C30_2 C29_2 1_555 1_555
H17_2 C30_2 1_555 1_555
C31_2 C30_2 1_555 1_555
H18_2 C31_2 1_555 1_555
C32_2 C31_2 1_555 1_555
C33_2 C32_2 1_555 1_555
C34_2 C29_2 1_555 1_555
C35_2 C34_2 1_555 1_555
C36_2 C35_2 1_555 1_555
C37_2 C35_2 1_555 1_555
C38_2 C37_2 1_555 1_555
H21_2 C38_2 1_555 1_555
C39_2 C38_2 1_555 1_555
H22_2 C39_2 1_555 1_555
C40_2 C39_2 1_555 1_555
H23_2 C40_2 1_555 1_555
C41_2 C40_2 1_555 1_555
H24_2 C41_2 1_555 1_555
C42_2 N3_2 1_555 1_555
C43_2 C44_2 1_555 1_555
C44_2 H25_2 1_555 1_555
C45_2 C44_2 1_555 1_555
H26_2 C45_2 1_555 1_555
C46_2 C45_2 1_555 1_555
H27_2 C46_2 1_555 1_555
C47_2 C46_2 1_555 1_555
H28_2 C47_2 1_555 1_555
C48_2 C43_2 1_555 1_555
C49_2 C48_2 1_555 1_555
C50_2 C49_2 1_555 1_555
C51_2 C49_2 1_555 1_555
C56_2 N4_2 1_555 1_555
C59_2 O11_2 1_555 1_555
H39_2 C59_2 1_555 1_555
H40_2 C59_2 1_555 1_555
H41_2 C59_2 1_555 1_555
C60_2 O12_2 1_555 1_555
H42_2 C60_2 1_555 1_555
H43_2 C60_2 1_555 1_555
H44_2 C60_2 1_555 1_555
O13_2 Cu4_2 1_555 1_555
O15_2 Cu4_2 1_555 1_555
Cu6_2 O11_2 1_555 1_555
O12_2 Cu6_2 1_555 1_555
C19_2 C20_2 1_555 1_555
C23_2 C28_2 1_555 1_555
C33_2 C34_2 1_555 1_555
C37_2 C42_2 1_555 1_555
C41_2 C42_2 1_555 1_555
C47_2 C48_2 1_555 1_555
C51_2 C56_2 1_555 1_555
Cu3_3 O3_3 1_555 1_555
Cu4_3 N4_3 1_555 1_555
O3_3 C22_3 1_555 1_555
O4_3 C22_3 1_555 1_555
O5_3 C36_3 1_555 1_555
O7_3 C50_3 1_555 1_555
O11_3 Cu3_3 1_555 1_555
N3_3 Cu3_3 1_555 1_555
N4_3 C43_3 1_555 1_555
C15_3 N2_3 1_555 1_555
C16_3 C15_3 1_555 1_555
H9_3 C16_3 1_555 1_555
C17_3 C16_3 1_555 1_555
H10_3 C17_3 1_555 1_555
C18_3 C17_3 1_555 1_555
H11_3 C18_3 1_555 1_555
C19_3 C18_3 1_555 1_555
H12_3 C19_3 1_555 1_555
C20_3 C15_3 1_555 1_555
C21_3 C20_3 1_555 1_555
C22_3 C21_3 1_555 1_555
C23_3 C21_3 1_555 1_555
C24_3 C23_3 1_555 1_555
H13_3 C24_3 1_555 1_555
C25_3 C24_3 1_555 1_555
H14_3 C25_3 1_555 1_555
C28_3 N2_3 1_555 1_555
C29_3 N3_3 1_555 1_555
C34_3 C29_3 1_555 1_555
C35_3 C34_3 1_555 1_555
C36_3 C35_3 1_555 1_555
C37_3 C35_3 1_555 1_555
C38_3 C37_3 1_555 1_555
H21_3 C38_3 1_555 1_555
C39_3 C38_3 1_555 1_555
H22_3 C39_3 1_555 1_555
C40_3 C39_3 1_555 1_555
H23_3 C40_3 1_555 1_555
C41_3 C40_3 1_555 1_555
H24_3 C41_3 1_555 1_555
C42_3 N3_3 1_555 1_555
C43_3 C44_3 1_555 1_555
C44_3 H25_3 1_555 1_555
C45_3 C44_3 1_555 1_555
H26_3 C45_3 1_555 1_555
C46_3 C45_3 1_555 1_555
H27_3 C46_3 1_555 1_555
C47_3 C46_3 1_555 1_555
H28_3 C47_3 1_555 1_555
C48_3 C43_3 1_555 1_555
C49_3 C48_3 1_555 1_555
C50_3 C49_3 1_555 1_555
C51_3 C49_3 1_555 1_555
H31_3 C54_3 1_555 1_555
C55_3 C54_3 1_555 1_555
H32_3 C55_3 1_555 1_555
C56_3 N4_3 1_555 1_555
C59_3 O11_3 1_555 1_555
H40_3 C59_3 1_555 1_555
O13_3 Cu4_3 1_555 1_555
O14_3 Cu4_3 1_555 1_555
O15_3 Cu4_3 1_555 1_555
C19_3 C20_3 1_555 1_555
C23_3 C28_3 1_555 1_555
C33_3 C34_3 1_555 1_555
C37_3 C42_3 1_555 1_555
C41_3 C42_3 1_555 1_555
C47_3 C48_3 1_555 1_555
C51_3 C56_3 1_555 1_555
C55_3 C56_3 1_555 1_555
H17_3 C30_3 1_555 1_555
C31_3 C30_3 1_555 1_555
H18_3 C31_3 1_555 1_555
C32_3 C31_3 1_555 1_555
C60_3 O12_3 1_555 1_555
H42_3 C60_3 1_555 1_555
H43_3 C60_3 1_555 1_555
O12_3 Cu6_3 1_555 1_555
O1 C8 1_555 1_555
N1 C1 1_555 1_555
C1 C2 1_555 1_555
C2 H1 1_555 1_555
C3 C2 1_555 1_555
H2 C3 1_555 1_555
C4 C3 1_555 1_555
H3 C4 1_555 1_555
C5 C4 1_555 1_555
H4 C5 1_555 1_555
C6 C1 1_555 1_555
C7 C6 1_555 1_555
C8 C7 1_555 1_555
C9 C7 1_555 1_555
C10 C9 1_555 1_555
C11 C10 1_555 1_555
C12 C11 1_555 1_555
H7 C12 1_555 1_555
C13 C12 1_555 1_555
H8 C13 1_555 1_555
C14 N1 1_555 1_555
Cu7 N1 1_555 1_555
C5 C6 1_555 1_555
C9 C14 1_555 1_555
C13 C14 1_555 1_555
O1_2 C8_2 1_555 1_555
N1_2 C1_2 1_555 1_555
C1_2 C2_2 1_555 1_555
C2_2 H1_2 1_555 1_555
C3_2 C2_2 1_555 1_555
H2_2 C3_2 1_555 1_555
C4_2 C3_2 1_555 1_555
H3_2 C4_2 1_555 1_555
C5_2 C4_2 1_555 1_555
H4_2 C5_2 1_555 1_555
C6_2 C1_2 1_555 1_555
C7_2 C6_2 1_555 1_555
C8_2 C7_2 1_555 1_555
C9_2 C7_2 1_555 1_555
C10_2 C9_2 1_555 1_555
C11_2 C10_2 1_555 1_555
C12_2 C11_2 1_555 1_555
H7_2 C12_2 1_555 1_555
C13_2 C12_2 1_555 1_555
H8_2 C13_2 1_555 1_555
C14_2 N1_2 1_555 1_555
Cu7_2 N1_2 1_555 1_555
C5_2 C6_2 1_555 1_555
C9_2 C14_2 1_555 1_555
C13_2 C14_2 1_555 1_555
O1_3 C8_3 1_555 1_555
N1_3 C1_3 1_555 1_555
C1_3 C2_3 1_555 1_555
C2_3 H1_3 1_555 1_555
C3_3 C2_3 1_555 1_555
H2_3 C3_3 1_555 1_555
C4_3 C3_3 1_555 1_555
H3_3 C4_3 1_555 1_555
C5_3 C4_3 1_555 1_555
H4_3 C5_3 1_555 1_555
C6_3 C1_3 1_555 1_555
C7_3 C6_3 1_555 1_555
C8_3 C7_3 1_555 1_555
C9_3 C7_3 1_555 1_555
C10_3 C9_3 1_555 1_555
C11_3 C10_3 1_555 1_555
C12_3 C11_3 1_555 1_555
H7_3 C12_3 1_555 1_555
C13_3 C12_3 1_555 1_555
H8_3 C13_3 1_555 1_555
C14_3 N1_3 1_555 1_555
Cu7_3 N1_3 1_555 1_555
C5_3 C6_3 1_555 1_555
C9_3 C14_3 1_555 1_555
C13_3 C14_3 1_555 1_555
Cu1 O1_4 1_555 1_555
Cu2 O7_4 1_555 1_555
O1_4 C8_4 1_555 1_555
O2 C8_4 1_555 1_555
O5_4 C36_4 1_555 1_555
O6 C36_4 1_555 1_555
O7_4 C50_4 1_555 1_555
O8 C50_4 1_555 1_555
O9 Cu1 1_555 1_555
O10 Cu1 1_555 1_555
N1_4 C1_4 1_555 1_555
N2_4 Cu2 1_555 1_555
N4_4 C43_4 1_555 1_555
H3_4 C4_4 1_555 1_555
C5_4 C4_4 1_555 1_555
H4_4 C5_4 1_555 1_555
C6_4 C1_4 1_555 1_555
C7_4 C6_4 1_555 1_555
C8_4 C7_4 1_555 1_555
C9_4 C7_4 1_555 1_555
C10_4 C9_4 1_555 1_555
H5 C10_4 1_555 1_555
C11_4 C10_4 1_555 1_555
H6 C11_4 1_555 1_555
C12_4 C11_4 1_555 1_555
H7_4 C12_4 1_555 1_555
C13_4 C12_4 1_555 1_555
H8_4 C13_4 1_555 1_555
C14_4 N1_4 1_555 1_555
C15_4 N2_4 1_555 1_555
C16_4 C15_4 1_555 1_555
H9_4 C16_4 1_555 1_555
C17_4 C16_4 1_555 1_555
H10_4 C17_4 1_555 1_555
C18_4 C17_4 1_555 1_555
C20_4 C15_4 1_555 1_555
C21_4 C20_4 1_555 1_555
C23_4 C21_4 1_555 1_555
C24_4 C23_4 1_555 1_555
H13_4 C24_4 1_555 1_555
C25_4 C24_4 1_555 1_555
H14_4 C25_4 1_555 1_555
C26 C25_4 1_555 1_555
H15 C26 1_555 1_555
C27 C26 1_555 1_555
H16 C27 1_555 1_555
C28_4 N2_4 1_555 1_555
C29_4 N3_4 1_555 1_555
C30_4 C29_4 1_555 1_555
H17_4 C30_4 1_555 1_555
C31_4 C30_4 1_555 1_555
H18_4 C31_4 1_555 1_555
C32_4 C31_4 1_555 1_555
H19 C32_4 1_555 1_555
C33_4 C32_4 1_555 1_555
H20 C33_4 1_555 1_555
C34_4 C29_4 1_555 1_555
C35_4 C34_4 1_555 1_555
C36_4 C35_4 1_555 1_555
C37_4 C35_4 1_555 1_555
C38_4 C37_4 1_555 1_555
H21_4 C38_4 1_555 1_555
H27_4 C46_4 1_555 1_555
C47_4 C46_4 1_555 1_555
H28_4 C47_4 1_555 1_555
C48_4 C43_4 1_555 1_555
C49_4 C48_4 1_555 1_555
C50_4 C49_4 1_555 1_555
C51_4 C49_4 1_555 1_555
C52 C51_4 1_555 1_555
H29 C52 1_555 1_555
C53 C52 1_555 1_555
H30 C53 1_555 1_555
C54_4 C53 1_555 1_555
H31_4 C54_4 1_555 1_555
C55_4 C54_4 1_555 1_555
H32_4 C55_4 1_555 1_555
C56_4 N4_4 1_555 1_555
C57 O9 1_555 1_555
H33 C57 1_555 1_555
H34 C57 1_555 1_555
H35 C57 1_555 1_555
C58 O10 1_555 1_555
H36 C58 1_555 1_555
H37 C58 1_555 1_555
H38 C58 1_555 1_555
N5_4 Cu1 1_555 1_555
Cu6_3 O5_4 1_555 1_555
Cu2 O9 1_555 1_555
Cu2 O10 1_555 1_555
C5_4 C6_4 1_555 1_555
C9_4 C14_4 1_555 1_555
C13_4 C14_4 1_555 1_555
C23_4 C28_4 1_555 1_555
C27 C28_4 1_555 1_555
C33_4 C34_4 1_555 1_555
C47_4 C48_4 1_555 1_555
C51_4 C56_4 1_555 1_555
C55_4 C56_4 1_555 1_555
Cu7 O1_5 1_555 1_555
Cu2_2 O7_5 1_555 1_555
O1_5 C8_5 1_555 1_555
O2_2 C8_5 1_555 1_555
O13_2 C36_5 1_555 1_555
O6_2 C36_5 1_555 1_555
O7_5 C50_5 1_555 1_555
O8_2 C50_5 1_555 1_555
O9_2 Cu7 1_555 1_555
O10_2 Cu7 1_555 1_555
N5_3 C1_5 1_555 1_555
N2_5 Cu2_2 1_555 1_555
N4_5 C43_5 1_555 1_555
H3_5 C4_5 1_555 1_555
C5_5 C4_5 1_555 1_555
H4_5 C5_5 1_555 1_555
C6_5 C1_5 1_555 1_555
C7_5 C6_5 1_555 1_555
C8_5 C7_5 1_555 1_555
C9_5 C7_5 1_555 1_555
C10_5 C9_5 1_555 1_555
H5_2 C10_5 1_555 1_555
C11_5 C10_5 1_555 1_555
H6_2 C11_5 1_555 1_555
C12_5 C11_5 1_555 1_555
H7_5 C12_5 1_555 1_555
C13_5 C12_5 1_555 1_555
H8_5 C13_5 1_555 1_555
C14_5 N5_3 1_555 1_555
C15_5 N2_5 1_555 1_555
C16_5 C15_5 1_555 1_555
H9_5 C16_5 1_555 1_555
C17_5 C16_5 1_555 1_555
H10_5 C17_5 1_555 1_555
C18_5 C17_5 1_555 1_555
C20_5 C15_5 1_555 1_555
C21_5 C20_5 1_555 1_555
C23_5 C21_5 1_555 1_555
C24_5 C23_5 1_555 1_555
H13_5 C24_5 1_555 1_555
C25_5 C24_5 1_555 1_555
H14_5 C25_5 1_555 1_555
C26_2 C25_5 1_555 1_555
H15_2 C26_2 1_555 1_555
C27_2 C26_2 1_555 1_555
H16_2 C27_2 1_555 1_555
C28_5 N2_5 1_555 1_555
C29_5 N3_5 1_555 1_555
C30_5 C29_5 1_555 1_555
H17_5 C30_5 1_555 1_555
C31_5 C30_5 1_555 1_555
H18_5 C31_5 1_555 1_555
C32_5 C31_5 1_555 1_555
H19_2 C32_5 1_555 1_555
C33_5 C32_5 1_555 1_555
H20_2 C33_5 1_555 1_555
C34_5 C29_5 1_555 1_555
C35_5 C34_5 1_555 1_555
C36_5 C35_5 1_555 1_555
C37_5 C35_5 1_555 1_555
C38_5 C37_5 1_555 1_555
H21_5 C38_5 1_555 1_555
H27_5 C46_5 1_555 1_555
C47_5 C46_5 1_555 1_555
H28_5 C47_5 1_555 1_555
C48_5 C43_5 1_555 1_555
C49_5 C48_5 1_555 1_555
C50_5 C49_5 1_555 1_555
C51_5 C49_5 1_555 1_555
C52_2 C51_5 1_555 1_555
H29_2 C52_2 1_555 1_555
C53_2 C52_2 1_555 1_555
H30_2 C53_2 1_555 1_555
C54_5 C53_2 1_555 1_555
H31_5 C54_5 1_555 1_555
C55_5 C54_5 1_555 1_555
H32_5 C55_5 1_555 1_555
C56_5 N4_5 1_555 1_555
C57_2 O9_2 1_555 1_555
H33_2 C57_2 1_555 1_555
H34_2 C57_2 1_555 1_555
H35_2 C57_2 1_555 1_555
C58_2 O10_2 1_555 1_555
H36_2 C58_2 1_555 1_555
H37_2 C58_2 1_555 1_555
H38_2 C58_2 1_555 1_555
Cu2_2 O9_2 1_555 1_555
Cu2_2 O10_2 1_555 1_555
C5_5 C6_5 1_555 1_555
C9_5 C14_5 1_555 1_555
C13_5 C14_5 1_555 1_555
C23_5 C28_5 1_555 1_555
C27_2 C28_5 1_555 1_555
C33_5 C34_5 1_555 1_555
C47_5 C48_5 1_555 1_555
C51_5 C56_5 1_555 1_555
C55_5 C56_5 1_555 1_555
Cu7_2 O1_6 1_555 1_555
Cu2_3 O7_6 1_555 1_555
O1_6 C8_6 1_555 1_555
O2_3 C8_6 1_555 1_555
O13_3 C36_6 1_555 1_555
O6_3 C36_6 1_555 1_555
O7_6 C50_6 1_555 1_555
O8_3 C50_6 1_555 1_555
O9_3 Cu7_2 1_555 1_555
O10_3 Cu7_2 1_555 1_555
N5 C1_6 1_555 1_555
N2_6 Cu2_3 1_555 1_555
N4_6 C43_6 1_555 1_555
H3_6 C4_6 1_555 1_555
C5_6 C4_6 1_555 1_555
H4_6 C5_6 1_555 1_555
C6_6 C1_6 1_555 1_555
C7_6 C6_6 1_555 1_555
C8_6 C7_6 1_555 1_555
C9_6 C7_6 1_555 1_555
C10_6 C9_6 1_555 1_555
H5_3 C10_6 1_555 1_555
C11_6 C10_6 1_555 1_555
H6_3 C11_6 1_555 1_555
C12_6 C11_6 1_555 1_555
H7_6 C12_6 1_555 1_555
C13_6 C12_6 1_555 1_555
H8_6 C13_6 1_555 1_555
C14_6 N5 1_555 1_555
C15_6 N2_6 1_555 1_555
C16_6 C15_6 1_555 1_555
H9_6 C16_6 1_555 1_555
C17_6 C16_6 1_555 1_555
H10_6 C17_6 1_555 1_555
C18_6 C17_6 1_555 1_555
C20_6 C15_6 1_555 1_555
C21_6 C20_6 1_555 1_555
C23_6 C21_6 1_555 1_555
C24_6 C23_6 1_555 1_555
H13_6 C24_6 1_555 1_555
C25_6 C24_6 1_555 1_555
H14_6 C25_6 1_555 1_555
C26_3 C25_6 1_555 1_555
H15_3 C26_3 1_555 1_555
C27_3 C26_3 1_555 1_555
H16_3 C27_3 1_555 1_555
C28_6 N2_6 1_555 1_555
C29_6 N3_6 1_555 1_555
C30_6 C29_6 1_555 1_555
H17_6 C30_6 1_555 1_555
C31_6 C30_6 1_555 1_555
H18_6 C31_6 1_555 1_555
C32_6 C31_6 1_555 1_555
H19_3 C32_6 1_555 1_555
C33_6 C32_6 1_555 1_555
H20_3 C33_6 1_555 1_555
C34_6 C29_6 1_555 1_555
C35_6 C34_6 1_555 1_555
C36_6 C35_6 1_555 1_555
C37_6 C35_6 1_555 1_555
C38_6 C37_6 1_555 1_555
H21_6 C38_6 1_555 1_555
H27_6 C46_6 1_555 1_555
C47_6 C46_6 1_555 1_555
H28_6 C47_6 1_555 1_555
C48_6 C43_6 1_555 1_555
C49_6 C48_6 1_555 1_555
C50_6 C49_6 1_555 1_555
C51_6 C49_6 1_555 1_555
C52_3 C51_6 1_555 1_555
H29_3 C52_3 1_555 1_555
C53_3 C52_3 1_555 1_555
H30_3 C53_3 1_555 1_555
C54_6 C53_3 1_555 1_555
H31_6 C54_6 1_555 1_555
C55_6 C54_6 1_555 1_555
H32_6 C55_6 1_555 1_555
C56_6 N4_6 1_555 1_555
C57_3 O9_3 1_555 1_555
H33_3 C57_3 1_555 1_555
H34_3 C57_3 1_555 1_555
H35_3 C57_3 1_555 1_555
C58_3 O10_3 1_555 1_555
H36_3 C58_3 1_555 1_555
H37_3 C58_3 1_555 1_555
H38_3 C58_3 1_555 1_555
Cu2_3 O9_3 1_555 1_555
Cu2_3 O10_3 1_555 1_555
C5_6 C6_6 1_555 1_555
C9_6 C14_6 1_555 1_555
C13_6 C14_6 1_555 1_555
C23_6 C28_6 1_555 1_555
C27_3 C28_6 1_555 1_555
C33_6 C34_6 1_555 1_555
C47_6 C48_6 1_555 1_555
C51_6 C56_6 1_555 1_555
C55_6 C56_6 1_555 1_555
H31_7 C54_7 1_555 1_555
C55_7 C54_7 1_555 1_555
H32_7 C55_7 1_555 1_555
Cu3_4 O3_4 1_555 1_555
Cu6_3 N4_7 1_555 1_555
O3_4 C22_4 1_555 1_555
O4_4 C22_4 1_555 1_555
O13_4 C36_7 1_555 1_555
O7_7 C50_7 1_555 1_555
O14_2 Cu3_4 1_555 1_555
N3_7 Cu3_4 1_555 1_555
N4_7 C43_7 1_555 1_555
C15_7 N2_7 1_555 1_555
C16_7 C15_7 1_555 1_555
H9_7 C16_7 1_555 1_555
C17_7 C16_7 1_555 1_555
H10_7 C17_7 1_555 1_555
C18_7 C17_7 1_555 1_555
H11_4 C18_7 1_555 1_555
C19_4 C18_7 1_555 1_555
H12_4 C19_4 1_555 1_555
C20_7 C15_7 1_555 1_555
C21_7 C20_7 1_555 1_555
C22_4 C21_7 1_555 1_555
C23_7 C21_7 1_555 1_555
C24_7 C23_7 1_555 1_555
H13_7 C24_7 1_555 1_555
C25_7 C24_7 1_555 1_555
H14_7 C25_7 1_555 1_555
C28_7 N2_7 1_555 1_555
C29_7 N3_7 1_555 1_555
C34_7 C29_7 1_555 1_555
C35_7 C34_7 1_555 1_555
C36_7 C35_7 1_555 1_555
C37_7 C35_7 1_555 1_555
C38_7 C37_7 1_555 1_555
H21_7 C38_7 1_555 1_555
C39_4 C38_7 1_555 1_555
H22_4 C39_4 1_555 1_555
C40_4 C39_4 1_555 1_555
H23_4 C40_4 1_555 1_555
C41_4 C40_4 1_555 1_555
H24_4 C41_4 1_555 1_555
C42_4 N3_7 1_555 1_555
C43_7 C44_4 1_555 1_555
C44_4 H25_4 1_555 1_555
C45_4 C44_4 1_555 1_555
H26_4 C45_4 1_555 1_555
C46_7 C45_4 1_555 1_555
H27_7 C46_7 1_555 1_555
C47_7 C46_7 1_555 1_555
H28_7 C47_7 1_555 1_555
C48_7 C43_7 1_555 1_555
C49_7 C48_7 1_555 1_555
C50_7 C49_7 1_555 1_555
C51_7 C49_7 1_555 1_555
C56_7 N4_7 1_555 1_555
C59_4 O14_2 1_555 1_555
H40_4 C59_4 1_555 1_555
C19_4 C20_7 1_555 1_555
C23_7 C28_7 1_555 1_555
C33_7 C34_7 1_555 1_555
C37_7 C42_4 1_555 1_555
C41_4 C42_4 1_555 1_555
C47_7 C48_7 1_555 1_555
C51_7 C56_7 1_555 1_555
H17_7 C30_7 1_555 1_555
C31_7 C30_7 1_555 1_555
H18_7 C31_7 1_555 1_555
C32_7 C31_7 1_555 1_555
C60_4 O15_2 1_555 1_555
H42_4 C60_4 1_555 1_555
H43_4 C60_4 1_555 1_555
Cu3_5 O3_5 1_555 1_555
Cu6 N4_8 1_555 1_555
O3_5 C22_5 1_555 1_555
O4_5 C22_5 1_555 1_555
O5_5 C36_8 1_555 1_555
O7_8 C50_8 1_555 1_555
O14_3 Cu3_5 1_555 1_555
O15_3 Cu3_5 1_555 1_555
N3_8 Cu3_5 1_555 1_555
N4_8 C43_8 1_555 1_555
C15_8 N2_8 1_555 1_555
C16_8 C15_8 1_555 1_555
H9_8 C16_8 1_555 1_555
C17_8 C16_8 1_555 1_555
H10_8 C17_8 1_555 1_555
C18_8 C17_8 1_555 1_555
H11_5 C18_8 1_555 1_555
C19_5 C18_8 1_555 1_555
H12_5 C19_5 1_555 1_555
C20_8 C15_8 1_555 1_555
C21_8 C20_8 1_555 1_555
C22_5 C21_8 1_555 1_555
C23_8 C21_8 1_555 1_555
C24_8 C23_8 1_555 1_555
H13_8 C24_8 1_555 1_555
C25_8 C24_8 1_555 1_555
H14_8 C25_8 1_555 1_555
C28_8 N2_8 1_555 1_555
C29_8 N3_8 1_555 1_555
C30_8 C29_8 1_555 1_555
H17_8 C30_8 1_555 1_555
C31_8 C30_8 1_555 1_555
H18_8 C31_8 1_555 1_555
C32_8 C31_8 1_555 1_555
C33_8 C32_8 1_555 1_555
C34_8 C29_8 1_555 1_555
C35_8 C34_8 1_555 1_555
C36_8 C35_8 1_555 1_555
C37_8 C35_8 1_555 1_555
C38_8 C37_8 1_555 1_555
H21_8 C38_8 1_555 1_555
C39_5 C38_8 1_555 1_555
H22_5 C39_5 1_555 1_555
C40_5 C39_5 1_555 1_555
H23_5 C40_5 1_555 1_555
C41_5 C40_5 1_555 1_555
H24_5 C41_5 1_555 1_555
C42_5 N3_8 1_555 1_555
C43_8 C44_5 1_555 1_555
C44_5 H25_5 1_555 1_555
C45_5 C44_5 1_555 1_555
H26_5 C45_5 1_555 1_555
C46_8 C45_5 1_555 1_555
H27_8 C46_8 1_555 1_555
C47_8 C46_8 1_555 1_555
H28_8 C47_8 1_555 1_555
C48_8 C43_8 1_555 1_555
C49_8 C48_8 1_555 1_555
C50_8 C49_8 1_555 1_555
C51_8 C49_8 1_555 1_555
C56_8 N4_8 1_555 1_555
C59_5 O14_3 1_555 1_555
H39_5 C59_5 1_555 1_555
H40_5 C59_5 1_555 1_555
H41_5 C59_5 1_555 1_555
C60_5 O15_3 1_555 1_555
H42_5 C60_5 1_555 1_555
H43_5 C60_5 1_555 1_555
H44_5 C60_5 1_555 1_555
O13_5 Cu6 1_555 1_555
C19_5 C20_8 1_555 1_555
C23_8 C28_8 1_555 1_555
C33_8 C34_8 1_555 1_555
C37_8 C42_5 1_555 1_555
C41_5 C42_5 1_555 1_555
C47_8 C48_8 1_555 1_555
C51_8 C56_8 1_555 1_555
H31_8 C54_8 1_555 1_555
C55_8 C54_8 1_555 1_555
H32_8 C55_8 1_555 1_555
H17_9 C30_9 1_555 1_555
C31_9 C30_9 1_555 1_555
H18_9 C31_9 1_555 1_555
C32_9 C31_9 1_555 1_555
C60_6 O15 1_555 1_555
H42_6 C60_6 1_555 1_555
H43_6 C60_6 1_555 1_555
Cu3_6 O3_6 1_555 1_555
Cu6_2 N4_9 1_555 1_555
O3_6 C22_6 1_555 1_555
O4_6 C22_6 1_555 1_555
O5_6 C36_9 1_555 1_555
O7_9 C50_9 1_555 1_555
O14 Cu3_6 1_555 1_555
N3_9 Cu3_6 1_555 1_555
N4_9 C43_9 1_555 1_555
C15_9 N2_9 1_555 1_555
C16_9 C15_9 1_555 1_555
H9_9 C16_9 1_555 1_555
C17_9 C16_9 1_555 1_555
H10_9 C17_9 1_555 1_555
C18_9 C17_9 1_555 1_555
H11_6 C18_9 1_555 1_555
C19_6 C18_9 1_555 1_555
H12_6 C19_6 1_555 1_555
C20_9 C15_9 1_555 1_555
C21_9 C20_9 1_555 1_555
C22_6 C21_9 1_555 1_555
C23_9 C21_9 1_555 1_555
C24_9 C23_9 1_555 1_555
H13_9 C24_9 1_555 1_555
C25_9 C24_9 1_555 1_555
H14_9 C25_9 1_555 1_555
C28_9 N2_9 1_555 1_555
C29_9 N3_9 1_555 1_555
C34_9 C29_9 1_555 1_555
C35_9 C34_9 1_555 1_555
C36_9 C35_9 1_555 1_555
C37_9 C35_9 1_555 1_555
C38_9 C37_9 1_555 1_555
H21_9 C38_9 1_555 1_555
C39_6 C38_9 1_555 1_555
H22_6 C39_6 1_555 1_555
C40_6 C39_6 1_555 1_555
H23_6 C40_6 1_555 1_555
C41_6 C40_6 1_555 1_555
H24_6 C41_6 1_555 1_555
C42_6 N3_9 1_555 1_555
C43_9 C44_6 1_555 1_555
C44_6 H25_6 1_555 1_555
C45_6 C44_6 1_555 1_555
H26_6 C45_6 1_555 1_555
C46_9 C45_6 1_555 1_555
H27_9 C46_9 1_555 1_555
C47_9 C46_9 1_555 1_555
H28_9 C47_9 1_555 1_555
C48_9 C43_9 1_555 1_555
C49_9 C48_9 1_555 1_555
C50_9 C49_9 1_555 1_555
C51_9 C49_9 1_555 1_555
H31_9 C54_9 1_555 1_555
C55_9 C54_9 1_555 1_555
H32_9 C55_9 1_555 1_555
C56_9 N4_9 1_555 1_555
C59_6 O14 1_555 1_555
H40_6 C59_6 1_555 1_555
O13_6 Cu6_2 1_555 1_555
C19_6 C20_9 1_555 1_555
C23_9 C28_9 1_555 1_555
C33_9 C34_9 1_555 1_555
C37_9 C42_6 1_555 1_555
C41_6 C42_6 1_555 1_555
C47_9 C48_9 1_555 1_555
C51_9 C56_9 1_555 1_555
C55_9 C56_9 1_555 1_555
O1_7 C8_7 1_555 1_555
N1_5 C1_7 1_555 1_555
C1_7 C2_4 1_555 1_555
C2_4 H1_4 1_555 1_555
C3_4 C2_4 1_555 1_555
H2_4 C3_4 1_555 1_555
C4_7 C3_4 1_555 1_555
H3_7 C4_7 1_555 1_555
C5_7 C4_7 1_555 1_555
H4_7 C5_7 1_555 1_555
C6_7 C1_7 1_555 1_555
C7_7 C6_7 1_555 1_555
C8_7 C7_7 1_555 1_555
C9_7 C7_7 1_555 1_555
C10_7 C9_7 1_555 1_555
C11_7 C10_7 1_555 1_555
C12_7 C11_7 1_555 1_555
H7_7 C12_7 1_555 1_555
C13_7 C12_7 1_555 1_555
H8_7 C13_7 1_555 1_555
C14_7 N1_5 1_555 1_555
Cu7_4 N1_5 1_555 1_555
C5_7 C6_7 1_555 1_555
C9_7 C14_7 1_555 1_555
C13_7 C14_7 1_555 1_555
O1_8 C8_8 1_555 1_555
N1_6 C1_8 1_555 1_555
C1_8 C2_5 1_555 1_555
C2_5 H1_5 1_555 1_555
C3_5 C2_5 1_555 1_555
H2_5 C3_5 1_555 1_555
C4_8 C3_5 1_555 1_555
H3_8 C4_8 1_555 1_555
C5_8 C4_8 1_555 1_555
H4_8 C5_8 1_555 1_555
C6_8 C1_8 1_555 1_555
C7_8 C6_8 1_555 1_555
C8_8 C7_8 1_555 1_555
C9_8 C7_8 1_555 1_555
C10_8 C9_8 1_555 1_555
C11_8 C10_8 1_555 1_555
C12_8 C11_8 1_555 1_555
H7_8 C12_8 1_555 1_555
C13_8 C12_8 1_555 1_555
H8_8 C13_8 1_555 1_555
C14_8 N1_6 1_555 1_555
Cu7_5 N1_6 1_555 1_555
C5_8 C6_8 1_555 1_555
C9_8 C14_8 1_555 1_555
C13_8 C14_8 1_555 1_555
O1_9 C8_9 1_555 1_555
N5_4 C1_9 1_555 1_555
C1_9 C2_6 1_555 1_555
C2_6 H1_6 1_555 1_555
C3_6 C2_6 1_555 1_555
H2_6 C3_6 1_555 1_555
C4_9 C3_6 1_555 1_555
H3_9 C4_9 1_555 1_555
C5_9 C4_9 1_555 1_555
H4_9 C5_9 1_555 1_555
C6_9 C1_9 1_555 1_555
C7_9 C6_9 1_555 1_555
C8_9 C7_9 1_555 1_555
C9_9 C7_9 1_555 1_555
C10_9 C9_9 1_555 1_555
C11_9 C10_9 1_555 1_555
C12_9 C11_9 1_555 1_555
H7_9 C12_9 1_555 1_555
C13_9 C12_9 1_555 1_555
H8_9 C13_9 1_555 1_555
C14_9 N5_4 1_555 1_555
C5_9 C6_9 1_555 1_555
C9_9 C14_9 1_555 1_555
C13_9 C14_9 1_555 1_555
Cu7_3 O1_10 1_555 1_555
Cu2_4 O7_10 1_555 1_555
O1_10 C8_10 1_555 1_555
O2_4 C8_10 1_555 1_555
O13 C36_10 1_555 1_555
O6_4 C36_10 1_555 1_555
O7_10 C50_10 1_555 1_555
O8_4 C50_10 1_555 1_555
O9_4 Cu7_3 1_555 1_555
O10_4 Cu7_3 1_555 1_555
N5_2 C1_10 1_555 1_555
N2_10 Cu2_4 1_555 1_555
N4_10 C43_10 1_555 1_555
H3_10 C4_10 1_555 1_555
C5_10 C4_10 1_555 1_555
H4_10 C5_10 1_555 1_555
C6_10 C1_10 1_555 1_555
C7_10 C6_10 1_555 1_555
C8_10 C7_10 1_555 1_555
C9_10 C7_10 1_555 1_555
C10_10 C9_10 1_555 1_555
H5_4 C10_10 1_555 1_555
C11_10 C10_10 1_555 1_555
H6_4 C11_10 1_555 1_555
C12_10 C11_10 1_555 1_555
H7_10 C12_10 1_555 1_555
C13_10 C12_10 1_555 1_555
H8_10 C13_10 1_555 1_555
C14_10 N5_2 1_555 1_555
C15_10 N2_10 1_555 1_555
C16_10 C15_10 1_555 1_555
H9_10 C16_10 1_555 1_555
C17_10 C16_10 1_555 1_555
H10_10 C17_10 1_555 1_555
C18_10 C17_10 1_555 1_555
C20_10 C15_10 1_555 1_555
C21_10 C20_10 1_555 1_555
C23_10 C21_10 1_555 1_555
C24_10 C23_10 1_555 1_555
H13_10 C24_10 1_555 1_555
C25_10 C24_10 1_555 1_555
H14_10 C25_10 1_555 1_555
C26_4 C25_10 1_555 1_555
H15_4 C26_4 1_555 1_555
C27_4 C26_4 1_555 1_555
H16_4 C27_4 1_555 1_555
C28_10 N2_10 1_555 1_555
C29_10 N3_10 1_555 1_555
C30_10 C29_10 1_555 1_555
H17_10 C30_10 1_555 1_555
C31_10 C30_10 1_555 1_555
H18_10 C31_10 1_555 1_555
C32_10 C31_10 1_555 1_555
H19_4 C32_10 1_555 1_555
C33_10 C32_10 1_555 1_555
H20_4 C33_10 1_555 1_555
C34_10 C29_10 1_555 1_555
C35_10 C34_10 1_555 1_555
C36_10 C35_10 1_555 1_555
C37_10 C35_10 1_555 1_555
C38_10 C37_10 1_555 1_555
H21_10 C38_10 1_555 1_555
H27_10 C46_10 1_555 1_555
C47_10 C46_10 1_555 1_555
H28_10 C47_10 1_555 1_555
C48_10 C43_10 1_555 1_555
C49_10 C48_10 1_555 1_555
C50_10 C49_10 1_555 1_555
C51_10 C49_10 1_555 1_555
C52_4 C51_10 1_555 1_555
H29_4 C52_4 1_555 1_555
C53_4 C52_4 1_555 1_555
H30_4 C53_4 1_555 1_555
C54_10 C53_4 1_555 1_555
H31_10 C54_10 1_555 1_555
C55_10 C54_10 1_555 1_555
H32_10 C55_10 1_555 1_555
C56_10 N4_10 1_555 1_555
C57_4 O9_4 1_555 1_555
H33_4 C57_4 1_555 1_555
H34_4 C57_4 1_555 1_555
H35_4 C57_4 1_555 1_555
C58_4 O10_4 1_555 1_555
H36_4 C58_4 1_555 1_555
H37_4 C58_4 1_555 1_555
H38_4 C58_4 1_555 1_555
Cu2_4 O9_4 1_555 1_555
Cu2_4 O10_4 1_555 1_555
C5_10 C6_10 1_555 1_555
C9_10 C14_10 1_555 1_555
C13_10 C14_10 1_555 1_555
C23_10 C28_10 1_555 1_555
C27_4 C28_10 1_555 1_555
C33_10 C34_10 1_555 1_555
C47_10 C48_10 1_555 1_555
C51_10 C56_10 1_555 1_555
C55_10 C56_10 1_555 1_555
Cu7_4 O1_11 1_555 1_555
Cu2_5 O7_11 1_555 1_555
O1_11 C8_11 1_555 1_555
O2_5 C8_11 1_555 1_555
O13_5 C36_11 1_555 1_555
O6_5 C36_11 1_555 1_555
O7_11 C50_11 1_555 1_555
O8_5 C50_11 1_555 1_555
O9_5 Cu7_4 1_555 1_555
O10_5 Cu7_4 1_555 1_555
N5_6 C1_11 1_555 1_555
N2_11 Cu2_5 1_555 1_555
N4_11 C43_11 1_555 1_555
H3_11 C4_11 1_555 1_555
C5_11 C4_11 1_555 1_555
H4_11 C5_11 1_555 1_555
C6_11 C1_11 1_555 1_555
C7_11 C6_11 1_555 1_555
C8_11 C7_11 1_555 1_555
C9_11 C7_11 1_555 1_555
C10_11 C9_11 1_555 1_555
H5_5 C10_11 1_555 1_555
C11_11 C10_11 1_555 1_555
H6_5 C11_11 1_555 1_555
C12_11 C11_11 1_555 1_555
H7_11 C12_11 1_555 1_555
C13_11 C12_11 1_555 1_555
H8_11 C13_11 1_555 1_555
C14_11 N5_6 1_555 1_555
C15_11 N2_11 1_555 1_555
C16_11 C15_11 1_555 1_555
H9_11 C16_11 1_555 1_555
C17_11 C16_11 1_555 1_555
H10_11 C17_11 1_555 1_555
C18_11 C17_11 1_555 1_555
C20_11 C15_11 1_555 1_555
C21_11 C20_11 1_555 1_555
C23_11 C21_11 1_555 1_555
C24_11 C23_11 1_555 1_555
H13_11 C24_11 1_555 1_555
C25_11 C24_11 1_555 1_555
H14_11 C25_11 1_555 1_555
C26_5 C25_11 1_555 1_555
H15_5 C26_5 1_555 1_555
C27_5 C26_5 1_555 1_555
H16_5 C27_5 1_555 1_555
C28_11 N2_11 1_555 1_555
C29_11 N3_11 1_555 1_555
C30_11 C29_11 1_555 1_555
H17_11 C30_11 1_555 1_555
C31_11 C30_11 1_555 1_555
H18_11 C31_11 1_555 1_555
C32_11 C31_11 1_555 1_555
H19_5 C32_11 1_555 1_555
C33_11 C32_11 1_555 1_555
H20_5 C33_11 1_555 1_555
C34_11 C29_11 1_555 1_555
C35_11 C34_11 1_555 1_555
C36_11 C35_11 1_555 1_555
C37_11 C35_11 1_555 1_555
C38_11 C37_11 1_555 1_555
H21_11 C38_11 1_555 1_555
H27_11 C46_11 1_555 1_555
C47_11 C46_11 1_555 1_555
H28_11 C47_11 1_555 1_555
C48_11 C43_11 1_555 1_555
C49_11 C48_11 1_555 1_555
C50_11 C49_11 1_555 1_555
C51_11 C49_11 1_555 1_555
C52_5 C51_11 1_555 1_555
H29_5 C52_5 1_555 1_555
C53_5 C52_5 1_555 1_555
H30_5 C53_5 1_555 1_555
C54_11 C53_5 1_555 1_555
H31_11 C54_11 1_555 1_555
C55_11 C54_11 1_555 1_555
H32_11 C55_11 1_555 1_555
C56_11 N4_11 1_555 1_555
C57_5 O9_5 1_555 1_555
H33_5 C57_5 1_555 1_555
H34_5 C57_5 1_555 1_555
H35_5 C57_5 1_555 1_555
C58_5 O10_5 1_555 1_555
H36_5 C58_5 1_555 1_555
H37_5 C58_5 1_555 1_555
H38_5 C58_5 1_555 1_555
Cu2_5 O9_5 1_555 1_555
Cu2_5 O10_5 1_555 1_555
C5_11 C6_11 1_555 1_555
C9_11 C14_11 1_555 1_555
C13_11 C14_11 1_555 1_555
C23_11 C28_11 1_555 1_555
C27_5 C28_11 1_555 1_555
C33_11 C34_11 1_555 1_555
C47_11 C48_11 1_555 1_555
C51_11 C56_11 1_555 1_555
C55_11 C56_11 1_555 1_555
Cu7_5 O1_12 1_555 1_555
Cu2_6 O7_12 1_555 1_555
O1_12 C8_12 1_555 1_555
O2_6 C8_12 1_555 1_555
O13_6 C36_12 1_555 1_555
O6_6 C36_12 1_555 1_555
O7_12 C50_12 1_555 1_555
O8_6 C50_12 1_555 1_555
O9_6 Cu7_5 1_555 1_555
O10_6 Cu7_5 1_555 1_555
N5_5 C1_12 1_555 1_555
N2_12 Cu2_6 1_555 1_555
N4_12 C43_12 1_555 1_555
H3_12 C4_12 1_555 1_555
C5_12 C4_12 1_555 1_555
H4_12 C5_12 1_555 1_555
C6_12 C1_12 1_555 1_555
C7_12 C6_12 1_555 1_555
C8_12 C7_12 1_555 1_555
C9_12 C7_12 1_555 1_555
C10_12 C9_12 1_555 1_555
H5_6 C10_12 1_555 1_555
C11_12 C10_12 1_555 1_555
H6_6 C11_12 1_555 1_555
C12_12 C11_12 1_555 1_555
H7_12 C12_12 1_555 1_555
C13_12 C12_12 1_555 1_555
H8_12 C13_12 1_555 1_555
C14_12 N5_5 1_555 1_555
C15_12 N2_12 1_555 1_555
C16_12 C15_12 1_555 1_555
H9_12 C16_12 1_555 1_555
C17_12 C16_12 1_555 1_555
H10_12 C17_12 1_555 1_555
C18_12 C17_12 1_555 1_555
C20_12 C15_12 1_555 1_555
C21_12 C20_12 1_555 1_555
C23_12 C21_12 1_555 1_555
C24_12 C23_12 1_555 1_555
H13_12 C24_12 1_555 1_555
C25_12 C24_12 1_555 1_555
H14_12 C25_12 1_555 1_555
C26_6 C25_12 1_555 1_555
H15_6 C26_6 1_555 1_555
C27_6 C26_6 1_555 1_555
H16_6 C27_6 1_555 1_555
C28_12 N2_12 1_555 1_555
C29_12 N3_12 1_555 1_555
C30_12 C29_12 1_555 1_555
H17_12 C30_12 1_555 1_555
C31_12 C30_12 1_555 1_555
H18_12 C31_12 1_555 1_555
C32_12 C31_12 1_555 1_555
H19_6 C32_12 1_555 1_555
C33_12 C32_12 1_555 1_555
H20_6 C33_12 1_555 1_555
C34_12 C29_12 1_555 1_555
C35_12 C34_12 1_555 1_555
C36_12 C35_12 1_555 1_555
C37_12 C35_12 1_555 1_555
C38_12 C37_12 1_555 1_555
H21_12 C38_12 1_555 1_555
H27_12 C46_12 1_555 1_555
C47_12 C46_12 1_555 1_555
H28_12 C47_12 1_555 1_555
C48_12 C43_12 1_555 1_555
C49_12 C48_12 1_555 1_555
C50_12 C49_12 1_555 1_555
C51_12 C49_12 1_555 1_555
C52_6 C51_12 1_555 1_555
H29_6 C52_6 1_555 1_555
C53_6 C52_6 1_555 1_555
H30_6 C53_6 1_555 1_555
C54_12 C53_6 1_555 1_555
H31_12 C54_12 1_555 1_555
C55_12 C54_12 1_555 1_555
H32_12 C55_12 1_555 1_555
C56_12 N4_12 1_555 1_555
C57_6 O9_6 1_555 1_555
H33_6 C57_6 1_555 1_555
H34_6 C57_6 1_555 1_555
H35_6 C57_6 1_555 1_555
C58_6 O10_6 1_555 1_555
H36_6 C58_6 1_555 1_555
H37_6 C58_6 1_555 1_555
H38_6 C58_6 1_555 1_555
Cu2_6 O9_6 1_555 1_555
Cu2_6 O10_6 1_555 1_555
C5_12 C6_12 1_555 1_555
C9_12 C14_12 1_555 1_555
C13_12 C14_12 1_555 1_555
C23_12 C28_12 1_555 1_555
C27_6 C28_12 1_555 1_555
C33_12 C34_12 1_555 1_555
C47_12 C48_12 1_555 1_555
C51_12 C56_12 1_555 1_555
C55_12 C56_12 1_555 1_555
N1_7 C1_13 1_555 1_555
C1_13 C2_7 1_555 1_555
C2_7 H1_7 1_555 1_555
C3_7 C2_7 1_555 1_555
H2_7 C3_7 1_555 1_555
C6_13 C1_13 1_555 1_555
C7_13 C6_13 1_555 1_555
C9_13 C7_13 1_555 1_555
C10_13 C9_13 1_555 1_555
H5_7 C10_13 1_555 1_555
C11_13 C10_13 1_555 1_555
H6_7 C11_13 1_555 1_555
C12_13 C11_13 1_555 1_555
H7_13 C12_13 1_555 1_555
C13_13 C12_13 1_555 1_555
H8_13 C13_13 1_555 1_555
C14_13 N1_7 1_555 1_555
Cu7_6 N1_7 1_555 1_555
C9_13 C14_13 1_555 1_555
C13_13 C14_13 1_555 1_555
Cu1_2 O1_13 1_555 1_555
O1_13 C8_13 1_555 1_555
O2_7 C8_13 1_555 1_555
O9_7 Cu1_2 1_555 1_555
O10_7 Cu1_2 1_555 1_555
H3_13 C4_13 1_555 1_555
C5_13 C4_13 1_555 1_555
H4_13 C5_13 1_555 1_555
H15_7 C26_7 1_555 1_555
C27_7 C26_7 1_555 1_555
H16_7 C27_7 1_555 1_555
H29_7 C52_7 1_555 1_555
C57_7 O9_7 1_555 1_555
H33_7 C57_7 1_555 1_555
H34_7 C57_7 1_555 1_555
H35_7 C57_7 1_555 1_555
C58_7 O10_7 1_555 1_555
H36_7 C58_7 1_555 1_555
H37_7 C58_7 1_555 1_555
H38_7 C58_7 1_555 1_555
N5_7 Cu1_2 1_555 1_555
Cu2_7 O9_7 1_555 1_555
Cu2_7 O10_7 1_555 1_555
Cu1_3 O1_14 1_555 1_555
O1_14 C8_14 1_555 1_555
O2_8 C8_14 1_555 1_555
O9_8 Cu1_3 1_555 1_555
O10_8 Cu1_3 1_555 1_555
N1_8 C1_14 1_555 1_555
C1_14 C2_8 1_555 1_555
C2_8 H1_8 1_555 1_555
C3_8 C2_8 1_555 1_555
H2_8 C3_8 1_555 1_555
C4_14 C3_8 1_555 1_555
H3_14 C4_14 1_555 1_555
C5_14 C4_14 1_555 1_555
H4_14 C5_14 1_555 1_555
C6_14 C1_14 1_555 1_555
C7_14 C6_14 1_555 1_555
C8_14 C7_14 1_555 1_555
C9_14 C7_14 1_555 1_555
C10_14 C9_14 1_555 1_555
H5_8 C10_14 1_555 1_555
C11_14 C10_14 1_555 1_555
H6_8 C11_14 1_555 1_555
C12_14 C11_14 1_555 1_555
H7_14 C12_14 1_555 1_555
C13_14 C12_14 1_555 1_555
H8_14 C13_14 1_555 1_555
C14_14 N1_8 1_555 1_555
H15_8 C26_8 1_555 1_555
C27_8 C26_8 1_555 1_555
H16_8 C27_8 1_555 1_555
H29_8 C52_8 1_555 1_555
C57_8 O9_8 1_555 1_555
H33_8 C57_8 1_555 1_555
H34_8 C57_8 1_555 1_555
H35_8 C57_8 1_555 1_555
C58_8 O10_8 1_555 1_555
H36_8 C58_8 1_555 1_555
H37_8 C58_8 1_555 1_555
H38_8 C58_8 1_555 1_555
N5_8 Cu1_3 1_555 1_555
Cu7_7 N1_8 1_555 1_555
Cu2_8 O9_8 1_555 1_555
Cu2_8 O10_8 1_555 1_555
C5_14 C6_14 1_555 1_555
C9_14 C14_14 1_555 1_555
C13_14 C14_14 1_555 1_555
Cu1_4 O1_15 1_555 1_555
O1_15 C8_15 1_555 1_555
O2_9 C8_15 1_555 1_555
O9_9 Cu1_4 1_555 1_555
O10_9 Cu1_4 1_555 1_555
H3_15 C4_15 1_555 1_555
C5_15 C4_15 1_555 1_555
H4_15 C5_15 1_555 1_555
H15_9 C26_9 1_555 1_555
C27_9 C26_9 1_555 1_555
H16_9 C27_9 1_555 1_555
H29_9 C52_9 1_555 1_555
C53_7 C52_9 1_555 1_555
H30_7 C53_7 1_555 1_555
C57_9 O9_9 1_555 1_555
H33_9 C57_9 1_555 1_555
H34_9 C57_9 1_555 1_555
H35_9 C57_9 1_555 1_555
C58_9 O10_9 1_555 1_555
H36_9 C58_9 1_555 1_555
H37_9 C58_9 1_555 1_555
H38_9 C58_9 1_555 1_555
N5_9 Cu1_4 1_555 1_555
Cu2_9 O9_9 1_555 1_555
Cu2_9 O10_9 1_555 1_555
N1_9 C1_15 1_555 1_555
C1_15 C2_9 1_555 1_555
C2_9 H1_9 1_555 1_555
C3_9 C2_9 1_555 1_555
H2_9 C3_9 1_555 1_555
C6_15 C1_15 1_555 1_555
C7_15 C6_15 1_555 1_555
C9_15 C7_15 1_555 1_555
C10_15 C9_15 1_555 1_555
H5_9 C10_15 1_555 1_555
C11_15 C10_15 1_555 1_555
H6_9 C11_15 1_555 1_555
C12_15 C11_15 1_555 1_555
H7_15 C12_15 1_555 1_555
C13_15 C12_15 1_555 1_555
H8_15 C13_15 1_555 1_555
C14_15 N1_9 1_555 1_555
Cu7_8 N1_9 1_555 1_555
C9_15 C14_15 1_555 1_555
C13_15 C14_15 1_555 1_555
Cu2_10 O7_13 1_555 1_555
Cu3_7 O3_7 1_555 1_555
Cu4_4 N4_13 1_555 1_555
O3_7 C22_7 1_555 1_555
O4_7 C22_7 1_555 1_555
O5_7 C36_13 1_555 1_555
O6_10 C36_13 1_555 1_555
O7_13 C50_13 1_555 1_555
O8_10 C50_13 1_555 1_555
O9_10 Cu1_5 1_555 1_555
O10_10 Cu1_5 1_555 1_555
O11_4 Cu3_7 1_555 1_555
O12_4 Cu3_7 1_555 1_555
N2_13 Cu2_10 1_555 1_555
N3_13 Cu3_7 1_555 1_555
N4_13 C43_13 1_555 1_555
C15_13 N2_13 1_555 1_555
C16_13 C15_13 1_555 1_555
H9_13 C16_13 1_555 1_555
C17_13 C16_13 1_555 1_555
H10_13 C17_13 1_555 1_555
C18_13 C17_13 1_555 1_555
H11_7 C18_13 1_555 1_555
C19_7 C18_13 1_555 1_555
H12_7 C19_7 1_555 1_555
C20_13 C15_13 1_555 1_555
C21_13 C20_13 1_555 1_555
C22_7 C21_13 1_555 1_555
C23_13 C21_13 1_555 1_555
C24_13 C23_13 1_555 1_555
H13_13 C24_13 1_555 1_555
C25_13 C24_13 1_555 1_555
H14_13 C25_13 1_555 1_555
C26_10 C25_13 1_555 1_555
H15_10 C26_10 1_555 1_555
C27_10 C26_10 1_555 1_555
H16_10 C27_10 1_555 1_555
C28_13 N2_13 1_555 1_555
C29_13 N3_13 1_555 1_555
C30_13 C29_13 1_555 1_555
H17_13 C30_13 1_555 1_555
C31_13 C30_13 1_555 1_555
H18_13 C31_13 1_555 1_555
C32_13 C31_13 1_555 1_555
H19_10 C32_13 1_555 1_555
C33_13 C32_13 1_555 1_555
H20_10 C33_13 1_555 1_555
C34_13 C29_13 1_555 1_555
C35_13 C34_13 1_555 1_555
C36_13 C35_13 1_555 1_555
C37_13 C35_13 1_555 1_555
C38_13 C37_13 1_555 1_555
H21_13 C38_13 1_555 1_555
C39_7 C38_13 1_555 1_555
H22_7 C39_7 1_555 1_555
C40_7 C39_7 1_555 1_555
H23_7 C40_7 1_555 1_555
C41_7 C40_7 1_555 1_555
H24_7 C41_7 1_555 1_555
C42_7 N3_13 1_555 1_555
C43_13 C44_7 1_555 1_555
C44_7 H25_7 1_555 1_555
C45_7 C44_7 1_555 1_555
H26_7 C45_7 1_555 1_555
C46_13 C45_7 1_555 1_555
H27_13 C46_13 1_555 1_555
C47_13 C46_13 1_555 1_555
H28_13 C47_13 1_555 1_555
C48_13 C43_13 1_555 1_555
C49_13 C48_13 1_555 1_555
C50_13 C49_13 1_555 1_555
C51_13 C49_13 1_555 1_555
C52_10 C51_13 1_555 1_555
H29_10 C52_10 1_555 1_555
C53_8 C52_10 1_555 1_555
H30_8 C53_8 1_555 1_555
C54_13 C53_8 1_555 1_555
H31_13 C54_13 1_555 1_555
C55_13 C54_13 1_555 1_555
H32_13 C55_13 1_555 1_555
C56_13 N4_13 1_555 1_555
C57_10 O9_10 1_555 1_555
H33_10 C57_10 1_555 1_555
H34_10 C57_10 1_555 1_555
H35_10 C57_10 1_555 1_555
C58_10 O10_10 1_555 1_555
H36_10 C58_10 1_555 1_555
H37_10 C58_10 1_555 1_555
H38_10 C58_10 1_555 1_555
C59_7 O11_4 1_555 1_555
H39_7 C59_7 1_555 1_555
H40_7 C59_7 1_555 1_555
H41_7 C59_7 1_555 1_555
C60_7 O12_4 1_555 1_555
H42_7 C60_7 1_555 1_555
H43_7 C60_7 1_555 1_555
H44_7 C60_7 1_555 1_555
O13_7 Cu4_4 1_555 1_555
O14_4 Cu4_4 1_555 1_555
O15_4 Cu4_4 1_555 1_555
Cu5_4 O5_7 1_555 1_555
Cu5_2 O11_4 1_555 1_555
Cu2_10 O9_10 1_555 1_555
Cu2_10 O10_10 1_555 1_555
O12_4 Cu5_2 1_555 1_555
C19_7 C20_13 1_555 1_555
C23_13 C28_13 1_555 1_555
C27_10 C28_13 1_555 1_555
C33_13 C34_13 1_555 1_555
C37_13 C42_7 1_555 1_555
C41_7 C42_7 1_555 1_555
C47_13 C48_13 1_555 1_555
C51_13 C56_13 1_555 1_555
C55_13 C56_13 1_555 1_555
Cu2_11 O7_14 1_555 1_555
Cu3_8 O3_8 1_555 1_555
Cu4_5 N4_14 1_555 1_555
O3_8 C22_8 1_555 1_555
O4_8 C22_8 1_555 1_555
O7_14 C50_14 1_555 1_555
O8_11 C50_14 1_555 1_555
O9_11 Cu1_6 1_555 1_555
O10_11 Cu1_6 1_555 1_555
O11_5 Cu3_8 1_555 1_555
O12_5 Cu3_8 1_555 1_555
N2_14 Cu2_11 1_555 1_555
N3_14 Cu3_8 1_555 1_555
N4_14 C43_14 1_555 1_555
C15_14 N2_14 1_555 1_555
C16_14 C15_14 1_555 1_555
H9_14 C16_14 1_555 1_555
C17_14 C16_14 1_555 1_555
H10_14 C17_14 1_555 1_555
C18_14 C17_14 1_555 1_555
H11_8 C18_14 1_555 1_555
C19_8 C18_14 1_555 1_555
H12_8 C19_8 1_555 1_555
C20_14 C15_14 1_555 1_555
C21_14 C20_14 1_555 1_555
C22_8 C21_14 1_555 1_555
C23_14 C21_14 1_555 1_555
C24_14 C23_14 1_555 1_555
H13_14 C24_14 1_555 1_555
C25_14 C24_14 1_555 1_555
H14_14 C25_14 1_555 1_555
C26_11 C25_14 1_555 1_555
H15_11 C26_11 1_555 1_555
C27_11 C26_11 1_555 1_555
H16_11 C27_11 1_555 1_555
C28_14 N2_14 1_555 1_555
C29_14 N3_14 1_555 1_555
C30_14 C29_14 1_555 1_555
H17_14 C30_14 1_555 1_555
C31_14 C30_14 1_555 1_555
H18_14 C31_14 1_555 1_555
C32_14 C31_14 1_555 1_555
H19_11 C32_14 1_555 1_555
C33_14 C32_14 1_555 1_555
H20_11 C33_14 1_555 1_555
C34_14 C29_14 1_555 1_555
C35_14 C34_14 1_555 1_555
C37_14 C35_14 1_555 1_555
H24_8 C41_8 1_555 1_555
C42_8 N3_14 1_555 1_555
C43_14 C44_8 1_555 1_555
C44_8 H25_8 1_555 1_555
C45_8 C44_8 1_555 1_555
H26_8 C45_8 1_555 1_555
C46_14 C45_8 1_555 1_555
H27_14 C46_14 1_555 1_555
C47_14 C46_14 1_555 1_555
H28_14 C47_14 1_555 1_555
C48_14 C43_14 1_555 1_555
C49_14 C48_14 1_555 1_555
C50_14 C49_14 1_555 1_555
C51_14 C49_14 1_555 1_555
C52_11 C51_14 1_555 1_555
H29_11 C52_11 1_555 1_555
C53_9 C52_11 1_555 1_555
H30_9 C53_9 1_555 1_555
C54_14 C53_9 1_555 1_555
H31_14 C54_14 1_555 1_555
C55_14 C54_14 1_555 1_555
H32_14 C55_14 1_555 1_555
C56_14 N4_14 1_555 1_555
C57_11 O9_11 1_555 1_555
H33_11 C57_11 1_555 1_555
H34_11 C57_11 1_555 1_555
H35_11 C57_11 1_555 1_555
C58_11 O10_11 1_555 1_555
H36_11 C58_11 1_555 1_555
H37_11 C58_11 1_555 1_555
H38_11 C58_11 1_555 1_555
C59_8 O11_5 1_555 1_555
H39_8 C59_8 1_555 1_555
H40_8 C59_8 1_555 1_555
H41_8 C59_8 1_555 1_555
C60_8 O12_5 1_555 1_555
H42_8 C60_8 1_555 1_555
H43_8 C60_8 1_555 1_555
H44_8 C60_8 1_555 1_555
O13_8 Cu4_5 1_555 1_555
O14_5 Cu4_5 1_555 1_555
O15_5 Cu4_5 1_555 1_555
Cu5_3 O11_5 1_555 1_555
Cu2_11 O9_11 1_555 1_555
Cu2_11 O10_11 1_555 1_555
O12_5 Cu5_3 1_555 1_555
C19_8 C20_14 1_555 1_555
C23_14 C28_14 1_555 1_555
C27_11 C28_14 1_555 1_555
C33_14 C34_14 1_555 1_555
C37_14 C42_8 1_555 1_555
C41_8 C42_8 1_555 1_555
C47_14 C48_14 1_555 1_555
C51_14 C56_14 1_555 1_555
C55_14 C56_14 1_555 1_555
O5_8 C36_14 1_555 1_555
O6_11 C36_14 1_555 1_555
H21_14 C38_14 1_555 1_555
C39_8 C38_14 1_555 1_555
H22_8 C39_8 1_555 1_555
C40_8 C39_8 1_555 1_555
H23_8 C40_8 1_555 1_555
Cu5_5 O5_8 1_555 1_555
O5_9 C36_15 1_555 1_555
O6_12 C36_15 1_555 1_555
H21_15 C38_15 1_555 1_555
C39_9 C38_15 1_555 1_555
H22_9 C39_9 1_555 1_555
C40_9 C39_9 1_555 1_555
H23_9 C40_9 1_555 1_555
Cu5_6 O5_9 1_555 1_555
Cu2_12 O7_15 1_555 1_555
Cu3_9 O3_9 1_555 1_555
Cu4_6 N4_15 1_555 1_555
O3_9 C22_9 1_555 1_555
O4_9 C22_9 1_555 1_555
O7_15 C50_15 1_555 1_555
O8_12 C50_15 1_555 1_555
O9_12 Cu1_7 1_555 1_555
O10_12 Cu1_7 1_555 1_555
O11_6 Cu3_9 1_555 1_555
O12_6 Cu3_9 1_555 1_555
N2_15 Cu2_12 1_555 1_555
N3_15 Cu3_9 1_555 1_555
N4_15 C43_15 1_555 1_555
C15_15 N2_15 1_555 1_555
C16_15 C15_15 1_555 1_555
H9_15 C16_15 1_555 1_555
C17_15 C16_15 1_555 1_555
H10_15 C17_15 1_555 1_555
C18_15 C17_15 1_555 1_555
H11_9 C18_15 1_555 1_555
C19_9 C18_15 1_555 1_555
H12_9 C19_9 1_555 1_555
C20_15 C15_15 1_555 1_555
C21_15 C20_15 1_555 1_555
C22_9 C21_15 1_555 1_555
C23_15 C21_15 1_555 1_555
C24_15 C23_15 1_555 1_555
H13_15 C24_15 1_555 1_555
C25_15 C24_15 1_555 1_555
H14_15 C25_15 1_555 1_555
C26_12 C25_15 1_555 1_555
H15_12 C26_12 1_555 1_555
C27_12 C26_12 1_555 1_555
H16_12 C27_12 1_555 1_555
C28_15 N2_15 1_555 1_555
C29_15 N3_15 1_555 1_555
C30_15 C29_15 1_555 1_555
H17_15 C30_15 1_555 1_555
C31_15 C30_15 1_555 1_555
H18_15 C31_15 1_555 1_555
C32_15 C31_15 1_555 1_555
H19_12 C32_15 1_555 1_555
C33_15 C32_15 1_555 1_555
H20_12 C33_15 1_555 1_555
C34_15 C29_15 1_555 1_555
C35_15 C34_15 1_555 1_555
C37_15 C35_15 1_555 1_555
H24_9 C41_9 1_555 1_555
C42_9 N3_15 1_555 1_555
C43_15 C44_9 1_555 1_555
C44_9 H25_9 1_555 1_555
C45_9 C44_9 1_555 1_555
H26_9 C45_9 1_555 1_555
C46_15 C45_9 1_555 1_555
H27_15 C46_15 1_555 1_555
C47_15 C46_15 1_555 1_555
H28_15 C47_15 1_555 1_555
C48_15 C43_15 1_555 1_555
C49_15 C48_15 1_555 1_555
C50_15 C49_15 1_555 1_555
C51_15 C49_15 1_555 1_555
C52_12 C51_15 1_555 1_555
H29_12 C52_12 1_555 1_555
C53_10 C52_12 1_555 1_555
H30_10 C53_10 1_555 1_555
C54_15 C53_10 1_555 1_555
H31_15 C54_15 1_555 1_555
C55_15 C54_15 1_555 1_555
H32_15 C55_15 1_555 1_555
C56_15 N4_15 1_555 1_555
C57_12 O9_12 1_555 1_555
H33_12 C57_12 1_555 1_555
H34_12 C57_12 1_555 1_555
H35_12 C57_12 1_555 1_555
C58_12 O10_12 1_555 1_555
H36_12 C58_12 1_555 1_555
H37_12 C58_12 1_555 1_555
H38_12 C58_12 1_555 1_555
C59_9 O11_6 1_555 1_555
H39_9 C59_9 1_555 1_555
H40_9 C59_9 1_555 1_555
H41_9 C59_9 1_555 1_555
C60_9 O12_6 1_555 1_555
H42_9 C60_9 1_555 1_555
H43_9 C60_9 1_555 1_555
H44_9 C60_9 1_555 1_555
O13_9 Cu4_6 1_555 1_555
O14_6 Cu4_6 1_555 1_555
O15_6 Cu4_6 1_555 1_555
Cu5 O11_6 1_555 1_555
Cu2_12 O9_12 1_555 1_555
Cu2_12 O10_12 1_555 1_555
O12_6 Cu5 1_555 1_555
C19_9 C20_15 1_555 1_555
C23_15 C28_15 1_555 1_555
C27_12 C28_15 1_555 1_555
C33_15 C34_15 1_555 1_555
C37_15 C42_9 1_555 1_555
C41_9 C42_9 1_555 1_555
C47_15 C48_15 1_555 1_555
C51_15 C56_15 1_555 1_555
C55_15 C56_15 1_555 1_555
Cu3_10 O3_10 1_555 1_555
O3_10 C22_10 1_555 1_555
O4_10 C22_10 1_555 1_555
O11_7 Cu3_10 1_555 1_555
O12_7 Cu3_10 1_555 1_555
H12_10 C19_10 1_555 1_555
H22_10 C39_10 1_555 1_555
C40_10 C39_10 1_555 1_555
H23_10 C40_10 1_555 1_555
C41_10 C40_10 1_555 1_555
H24_10 C41_10 1_555 1_555
C44_10 H25_10 1_555 1_555
C45_10 C44_10 1_555 1_555
H26_10 C45_10 1_555 1_555
C59_10 O11_7 1_555 1_555
H39_10 C59_10 1_555 1_555
H40_10 C59_10 1_555 1_555
H41_10 C59_10 1_555 1_555
C60_10 O12_7 1_555 1_555
H42_10 C60_10 1_555 1_555
H43_10 C60_10 1_555 1_555
H44_10 C60_10 1_555 1_555
O14_7 Cu4_7 1_555 1_555
O15_7 Cu4_7 1_555 1_555
Cu5_5 O11_7 1_555 1_555
O12_7 Cu5_5 1_555 1_555
C41_10 C42_10 1_555 1_555
C2_10 H1_10 1_555 1_555
C3_10 C2_10 1_555 1_555
H2_10 C3_10 1_555 1_555
C2_11 H1_11 1_555 1_555
C3_11 C2_11 1_555 1_555
H2_11 C3_11 1_555 1_555
Cu3_11 O3_11 1_555 1_555
O3_11 C22_11 1_555 1_555
O4_11 C22_11 1_555 1_555
O14_6 Cu3_11 1_555 1_555
O15_6 Cu3_11 1_555 1_555
H12_11 C19_11 1_555 1_555
H22_11 C39_11 1_555 1_555
C40_11 C39_11 1_555 1_555
H23_11 C40_11 1_555 1_555
C41_11 C40_11 1_555 1_555
H24_11 C41_11 1_555 1_555
C44_11 H25_11 1_555 1_555
C45_11 C44_11 1_555 1_555
H26_11 C45_11 1_555 1_555
C59_11 O14_6 1_555 1_555
H39_11 C59_11 1_555 1_555
H40_11 C59_11 1_555 1_555
H41_11 C59_11 1_555 1_555
C60_11 O15_6 1_555 1_555
H42_11 C60_11 1_555 1_555
H43_11 C60_11 1_555 1_555
H44_11 C60_11 1_555 1_555
C41_11 C42_11 1_555 1_555
C2_12 H1_12 1_555 1_555
C3_12 C2_12 1_555 1_555
H2_12 C3_12 1_555 1_555
Cu3_12 O3_12 1_555 1_555
O3_12 C22_12 1_555 1_555
O4_12 C22_12 1_555 1_555
O14_4 Cu3_12 1_555 1_555
O15_4 Cu3_12 1_555 1_555
H12_12 C19_12 1_555 1_555
H22_12 C39_12 1_555 1_555
C40_12 C39_12 1_555 1_555
H23_12 C40_12 1_555 1_555
C41_12 C40_12 1_555 1_555
H24_12 C41_12 1_555 1_555
C44_12 H25_12 1_555 1_555
C45_12 C44_12 1_555 1_555
H26_12 C45_12 1_555 1_555
C59_12 O14_4 1_555 1_555
H39_12 C59_12 1_555 1_555
H40_12 C59_12 1_555 1_555
H41_12 C59_12 1_555 1_555
C60_12 O15_4 1_555 1_555
H42_12 C60_12 1_555 1_555
H43_12 C60_12 1_555 1_555
H44_12 C60_12 1_555 1_555
C41_12 C42_12 1_555 1_555
Cu7_8 O1_16 1_555 1_555
O1_16 C8_16 1_555 1_555
O2_13 C8_16 1_555 1_555
O9_13 Cu7_8 1_555 1_555
O10_13 Cu7_8 1_555 1_555
H3_16 C4_16 1_555 1_555
C5_16 C4_16 1_555 1_555
H4_16 C5_16 1_555 1_555
H15_13 C26_13 1_555 1_555
C27_13 C26_13 1_555 1_555
H16_13 C27_13 1_555 1_555
H29_13 C52_13 1_555 1_555
C57_13 O9_13 1_555 1_555
H33_13 C57_13 1_555 1_555
H34_13 C57_13 1_555 1_555
H35_13 C57_13 1_555 1_555
C58_13 O10_13 1_555 1_555
H36_13 C58_13 1_555 1_555
H37_13 C58_13 1_555 1_555
H38_13 C58_13 1_555 1_555
Cu2_13 O9_13 1_555 1_555
Cu2_13 O10_13 1_555 1_555
N5_8 C1_16 1_555 1_555
C1_16 C2_13 1_555 1_555
C2_13 H1_13 1_555 1_555
C3_13 C2_13 1_555 1_555
H2_13 C3_13 1_555 1_555
C6_16 C1_16 1_555 1_555
C7_16 C6_16 1_555 1_555
C9_16 C7_16 1_555 1_555
C10_16 C9_16 1_555 1_555
H5_13 C10_16 1_555 1_555
C11_16 C10_16 1_555 1_555
H6_13 C11_16 1_555 1_555
C12_16 C11_16 1_555 1_555
H7_16 C12_16 1_555 1_555
C13_16 C12_16 1_555 1_555
H8_16 C13_16 1_555 1_555
C14_16 N5_8 1_555 1_555
C9_16 C14_16 1_555 1_555
C13_16 C14_16 1_555 1_555
Cu7_6 O1_17 1_555 1_555
O1_17 C8_17 1_555 1_555
O2_14 C8_17 1_555 1_555
O9_14 Cu7_6 1_555 1_555
O10_14 Cu7_6 1_555 1_555
N5_9 C1_17 1_555 1_555
C1_17 C2_14 1_555 1_555
C2_14 H1_14 1_555 1_555
C3_14 C2_14 1_555 1_555
H2_14 C3_14 1_555 1_555
C4_17 C3_14 1_555 1_555
H3_17 C4_17 1_555 1_555
C5_17 C4_17 1_555 1_555
H4_17 C5_17 1_555 1_555
C6_17 C1_17 1_555 1_555
C7_17 C6_17 1_555 1_555
C8_17 C7_17 1_555 1_555
C9_17 C7_17 1_555 1_555
C10_17 C9_17 1_555 1_555
H5_14 C10_17 1_555 1_555
C11_17 C10_17 1_555 1_555
H6_14 C11_17 1_555 1_555
C12_17 C11_17 1_555 1_555
H7_17 C12_17 1_555 1_555
C13_17 C12_17 1_555 1_555
H8_17 C13_17 1_555 1_555
C14_17 N5_9 1_555 1_555
H15_14 C26_14 1_555 1_555
C27_14 C26_14 1_555 1_555
H16_14 C27_14 1_555 1_555
H29_14 C52_14 1_555 1_555
C57_14 O9_14 1_555 1_555
H33_14 C57_14 1_555 1_555
H34_14 C57_14 1_555 1_555
H35_14 C57_14 1_555 1_555
C58_14 O10_14 1_555 1_555
H36_14 C58_14 1_555 1_555
H37_14 C58_14 1_555 1_555
H38_14 C58_14 1_555 1_555
Cu2_14 O9_14 1_555 1_555
Cu2_14 O10_14 1_555 1_555
C5_17 C6_17 1_555 1_555
C9_17 C14_17 1_555 1_555
C13_17 C14_17 1_555 1_555
N5_7 C1_18 1_555 1_555
C1_18 C2_15 1_555 1_555
C2_15 H1_15 1_555 1_555
C3_15 C2_15 1_555 1_555
H2_15 C3_15 1_555 1_555
C6_18 C1_18 1_555 1_555
C7_18 C6_18 1_555 1_555
C9_18 C7_18 1_555 1_555
C10_18 C9_18 1_555 1_555
H5_15 C10_18 1_555 1_555
C11_18 C10_18 1_555 1_555
H6_15 C11_18 1_555 1_555
C12_18 C11_18 1_555 1_555
H7_18 C12_18 1_555 1_555
C13_18 C12_18 1_555 1_555
H8_18 C13_18 1_555 1_555
C14_18 N5_7 1_555 1_555
C9_18 C14_18 1_555 1_555
C13_18 C14_18 1_555 1_555
Cu7_7 O1_18 1_555 1_555
O1_18 C8_18 1_555 1_555
O2_15 C8_18 1_555 1_555
O9_15 Cu7_7 1_555 1_555
O10_15 Cu7_7 1_555 1_555
H3_18 C4_18 1_555 1_555
C5_18 C4_18 1_555 1_555
H4_18 C5_18 1_555 1_555
H15_15 C26_15 1_555 1_555
C27_15 C26_15 1_555 1_555
H16_15 C27_15 1_555 1_555
H29_15 C52_15 1_555 1_555
C53_11 C52_15 1_555 1_555
H30_11 C53_11 1_555 1_555
C57_15 O9_15 1_555 1_555
H33_15 C57_15 1_555 1_555
H34_15 C57_15 1_555 1_555
H35_15 C57_15 1_555 1_555
C58_15 O10_15 1_555 1_555
H36_15 C58_15 1_555 1_555
H37_15 C58_15 1_555 1_555
H38_15 C58_15 1_555 1_555
Cu2_15 O9_15 1_555 1_555
Cu2_15 O10_15 1_555 1_555
Cu2_16 O7_16 1_555 1_555
Cu3_13 O3_13 1_555 1_555
Cu5_4 N4_16 1_555 1_555
O3_13 C22_13 1_555 1_555
O4_13 C22_13 1_555 1_555
O13_7 C36_16 1_555 1_555
O6_16 C36_16 1_555 1_555
O7_16 C50_16 1_555 1_555
O8_16 C50_16 1_555 1_555
O9_16 Cu1_8 1_555 1_555
O10_16 Cu1_8 1_555 1_555
O11_8 Cu3_13 1_555 1_555
O12_8 Cu3_13 1_555 1_555
N2_16 Cu2_16 1_555 1_555
N3_16 Cu3_13 1_555 1_555
N4_16 C43_16 1_555 1_555
C15_16 N2_16 1_555 1_555
C16_16 C15_16 1_555 1_555
H9_16 C16_16 1_555 1_555
C17_16 C16_16 1_555 1_555
H10_16 C17_16 1_555 1_555
C18_16 C17_16 1_555 1_555
H11_13 C18_16 1_555 1_555
C19_13 C18_16 1_555 1_555
H12_13 C19_13 1_555 1_555
C20_16 C15_16 1_555 1_555
C21_16 C20_16 1_555 1_555
C22_13 C21_16 1_555 1_555
C23_16 C21_16 1_555 1_555
C24_16 C23_16 1_555 1_555
H13_16 C24_16 1_555 1_555
C25_16 C24_16 1_555 1_555
H14_16 C25_16 1_555 1_555
C26_16 C25_16 1_555 1_555
H15_16 C26_16 1_555 1_555
C27_16 C26_16 1_555 1_555
H16_16 C27_16 1_555 1_555
C28_16 N2_16 1_555 1_555
C29_16 N3_16 1_555 1_555
C30_16 C29_16 1_555 1_555
H17_16 C30_16 1_555 1_555
C31_16 C30_16 1_555 1_555
H18_16 C31_16 1_555 1_555
C32_16 C31_16 1_555 1_555
H19_16 C32_16 1_555 1_555
C33_16 C32_16 1_555 1_555
H20_16 C33_16 1_555 1_555
C34_16 C29_16 1_555 1_555
C35_16 C34_16 1_555 1_555
C36_16 C35_16 1_555 1_555
C37_16 C35_16 1_555 1_555
C38_16 C37_16 1_555 1_555
H21_16 C38_16 1_555 1_555
C39_13 C38_16 1_555 1_555
H22_13 C39_13 1_555 1_555
C40_13 C39_13 1_555 1_555
H23_13 C40_13 1_555 1_555
C41_13 C40_13 1_555 1_555
H24_13 C41_13 1_555 1_555
C42_13 N3_16 1_555 1_555
C43_16 C44_13 1_555 1_555
C44_13 H25_13 1_555 1_555
C45_13 C44_13 1_555 1_555
H26_13 C45_13 1_555 1_555
C46_16 C45_13 1_555 1_555
H27_16 C46_16 1_555 1_555
C47_16 C46_16 1_555 1_555
H28_16 C47_16 1_555 1_555
C48_16 C43_16 1_555 1_555
C49_16 C48_16 1_555 1_555
C50_16 C49_16 1_555 1_555
C51_16 C49_16 1_555 1_555
C52_16 C51_16 1_555 1_555
H29_16 C52_16 1_555 1_555
C53_12 C52_16 1_555 1_555
H30_12 C53_12 1_555 1_555
C54_16 C53_12 1_555 1_555
H31_16 C54_16 1_555 1_555
C55_16 C54_16 1_555 1_555
H32_16 C55_16 1_555 1_555
C56_16 N4_16 1_555 1_555
C57_16 O9_16 1_555 1_555
H33_16 C57_16 1_555 1_555
H34_16 C57_16 1_555 1_555
H35_16 C57_16 1_555 1_555
C58_16 O10_16 1_555 1_555
H36_16 C58_16 1_555 1_555
H37_16 C58_16 1_555 1_555
H38_16 C58_16 1_555 1_555
C59_13 O11_8 1_555 1_555
H39_13 C59_13 1_555 1_555
H40_13 C59_13 1_555 1_555
H41_13 C59_13 1_555 1_555
C60_13 O12_8 1_555 1_555
H42_13 C60_13 1_555 1_555
H43_13 C60_13 1_555 1_555
H44_13 C60_13 1_555 1_555
O14_8 Cu5_4 1_555 1_555
O15_8 Cu5_4 1_555 1_555
Cu5_7 O11_8 1_555 1_555
Cu2_16 O9_16 1_555 1_555
Cu2_16 O10_16 1_555 1_555
O12_8 Cu5_7 1_555 1_555
C19_13 C20_16 1_555 1_555
C23_16 C28_16 1_555 1_555
C27_16 C28_16 1_555 1_555
C33_16 C34_16 1_555 1_555
C37_16 C42_13 1_555 1_555
C41_13 C42_13 1_555 1_555
C47_16 C48_16 1_555 1_555
C51_16 C56_16 1_555 1_555
C55_16 C56_16 1_555 1_555
O13_8 C36_17 1_555 1_555
O6_17 C36_17 1_555 1_555
H21_17 C38_17 1_555 1_555
C39_14 C38_17 1_555 1_555
H22_14 C39_14 1_555 1_555
C40_14 C39_14 1_555 1_555
H23_14 C40_14 1_555 1_555
Cu2_17 O7_17 1_555 1_555
Cu3_14 O3_14 1_555 1_555
Cu5_5 N4_17 1_555 1_555
O3_14 C22_14 1_555 1_555
O4_14 C22_14 1_555 1_555
O7_17 C50_17 1_555 1_555
O8_17 C50_17 1_555 1_555
O9_17 Cu7_9 1_555 1_555
O10_17 Cu7_9 1_555 1_555
O11_9 Cu3_14 1_555 1_555
O12_9 Cu3_14 1_555 1_555
N2_17 Cu2_17 1_555 1_555
N3_17 Cu3_14 1_555 1_555
N4_17 C43_17 1_555 1_555
C15_17 N2_17 1_555 1_555
C16_17 C15_17 1_555 1_555
H9_17 C16_17 1_555 1_555
C17_17 C16_17 1_555 1_555
H10_17 C17_17 1_555 1_555
C18_17 C17_17 1_555 1_555
H11_14 C18_17 1_555 1_555
C19_14 C18_17 1_555 1_555
H12_14 C19_14 1_555 1_555
C20_17 C15_17 1_555 1_555
C21_17 C20_17 1_555 1_555
C22_14 C21_17 1_555 1_555
C23_17 C21_17 1_555 1_555
C24_17 C23_17 1_555 1_555
H13_17 C24_17 1_555 1_555
C25_17 C24_17 1_555 1_555
H14_17 C25_17 1_555 1_555
C26_17 C25_17 1_555 1_555
H15_17 C26_17 1_555 1_555
C27_17 C26_17 1_555 1_555
H16_17 C27_17 1_555 1_555
C28_17 N2_17 1_555 1_555
C29_17 N3_17 1_555 1_555
C30_17 C29_17 1_555 1_555
H17_17 C30_17 1_555 1_555
C31_17 C30_17 1_555 1_555
H18_17 C31_17 1_555 1_555
C32_17 C31_17 1_555 1_555
H19_17 C32_17 1_555 1_555
C33_17 C32_17 1_555 1_555
H20_17 C33_17 1_555 1_555
C34_17 C29_17 1_555 1_555
C35_17 C34_17 1_555 1_555
C37_17 C35_17 1_555 1_555
H24_14 C41_14 1_555 1_555
C42_14 N3_17 1_555 1_555
C43_17 C44_14 1_555 1_555
C44_14 H25_14 1_555 1_555
C45_14 C44_14 1_555 1_555
H26_14 C45_14 1_555 1_555
C46_17 C45_14 1_555 1_555
H27_17 C46_17 1_555 1_555
C47_17 C46_17 1_555 1_555
H28_17 C47_17 1_555 1_555
C48_17 C43_17 1_555 1_555
C49_17 C48_17 1_555 1_555
C50_17 C49_17 1_555 1_555
C51_17 C49_17 1_555 1_555
C52_17 C51_17 1_555 1_555
H29_17 C52_17 1_555 1_555
C53_13 C52_17 1_555 1_555
H30_13 C53_13 1_555 1_555
C54_17 C53_13 1_555 1_555
H31_17 C54_17 1_555 1_555
C55_17 C54_17 1_555 1_555
H32_17 C55_17 1_555 1_555
C56_17 N4_17 1_555 1_555
C57_17 O9_17 1_555 1_555
H33_17 C57_17 1_555 1_555
H34_17 C57_17 1_555 1_555
H35_17 C57_17 1_555 1_555
C58_17 O10_17 1_555 1_555
H36_17 C58_17 1_555 1_555
H37_17 C58_17 1_555 1_555
H38_17 C58_17 1_555 1_555
C59_14 O11_9 1_555 1_555
H39_14 C59_14 1_555 1_555
H40_14 C59_14 1_555 1_555
H41_14 C59_14 1_555 1_555
C60_14 O12_9 1_555 1_555
H42_14 C60_14 1_555 1_555
H43_14 C60_14 1_555 1_555
H44_14 C60_14 1_555 1_555
Cu5_8 O11_9 1_555 1_555
Cu2_17 O9_17 1_555 1_555
Cu2_17 O10_17 1_555 1_555
O12_9 Cu5_8 1_555 1_555
C19_14 C20_17 1_555 1_555
C23_17 C28_17 1_555 1_555
C27_17 C28_17 1_555 1_555
C33_17 C34_17 1_555 1_555
C37_17 C42_14 1_555 1_555
C41_14 C42_14 1_555 1_555
C47_17 C48_17 1_555 1_555
C51_17 C56_17 1_555 1_555
C55_17 C56_17 1_555 1_555
Cu2_18 O7_18 1_555 1_555
Cu3_15 O3_15 1_555 1_555
Cu5_6 N4_18 1_555 1_555
O3_15 C22_15 1_555 1_555
O4_15 C22_15 1_555 1_555
O7_18 C50_18 1_555 1_555
O8_18 C50_18 1_555 1_555
O9_18 Cu1_9 1_555 1_555
O10_18 Cu1_9 1_555 1_555
O14_7 Cu3_15 1_555 1_555
O15_7 Cu3_15 1_555 1_555
N2_18 Cu2_18 1_555 1_555
N3_18 Cu3_15 1_555 1_555
N4_18 C43_18 1_555 1_555
C15_18 N2_18 1_555 1_555
C16_18 C15_18 1_555 1_555
H9_18 C16_18 1_555 1_555
C17_18 C16_18 1_555 1_555
H10_18 C17_18 1_555 1_555
C18_18 C17_18 1_555 1_555
H11_15 C18_18 1_555 1_555
C19_15 C18_18 1_555 1_555
H12_15 C19_15 1_555 1_555
C20_18 C15_18 1_555 1_555
C21_18 C20_18 1_555 1_555
C22_15 C21_18 1_555 1_555
C23_18 C21_18 1_555 1_555
C24_18 C23_18 1_555 1_555
H13_18 C24_18 1_555 1_555
C25_18 C24_18 1_555 1_555
H14_18 C25_18 1_555 1_555
C26_18 C25_18 1_555 1_555
H15_18 C26_18 1_555 1_555
C27_18 C26_18 1_555 1_555
H16_18 C27_18 1_555 1_555
C28_18 N2_18 1_555 1_555
C29_18 N3_18 1_555 1_555
C30_18 C29_18 1_555 1_555
H17_18 C30_18 1_555 1_555
C31_18 C30_18 1_555 1_555
H18_18 C31_18 1_555 1_555
C32_18 C31_18 1_555 1_555
H19_18 C32_18 1_555 1_555
C33_18 C32_18 1_555 1_555
H20_18 C33_18 1_555 1_555
C34_18 C29_18 1_555 1_555
C35_18 C34_18 1_555 1_555
C37_18 C35_18 1_555 1_555
H24_15 C41_15 1_555 1_555
C42_15 N3_18 1_555 1_555
C43_18 C44_15 1_555 1_555
C44_15 H25_15 1_555 1_555
C45_15 C44_15 1_555 1_555
H26_15 C45_15 1_555 1_555
C46_18 C45_15 1_555 1_555
H27_18 C46_18 1_555 1_555
C47_18 C46_18 1_555 1_555
H28_18 C47_18 1_555 1_555
C48_18 C43_18 1_555 1_555
C49_18 C48_18 1_555 1_555
C50_18 C49_18 1_555 1_555
C51_18 C49_18 1_555 1_555
C52_18 C51_18 1_555 1_555
H29_18 C52_18 1_555 1_555
C53_14 C52_18 1_555 1_555
H30_14 C53_14 1_555 1_555
C54_18 C53_14 1_555 1_555
H31_18 C54_18 1_555 1_555
C55_18 C54_18 1_555 1_555
H32_18 C55_18 1_555 1_555
C56_18 N4_18 1_555 1_555
C57_18 O9_18 1_555 1_555
H33_18 C57_18 1_555 1_555
H34_18 C57_18 1_555 1_555
H35_18 C57_18 1_555 1_555
C58_18 O10_18 1_555 1_555
H36_18 C58_18 1_555 1_555
H37_18 C58_18 1_555 1_555
H38_18 C58_18 1_555 1_555
C59_15 O14_7 1_555 1_555
H39_15 C59_15 1_555 1_555
H40_15 C59_15 1_555 1_555
H41_15 C59_15 1_555 1_555
C60_15 O15_7 1_555 1_555
H42_15 C60_15 1_555 1_555
H43_15 C60_15 1_555 1_555
H44_15 C60_15 1_555 1_555
O14_9 Cu5_6 1_555 1_555
O15_9 Cu5_6 1_555 1_555
Cu2_18 O9_18 1_555 1_555
Cu2_18 O10_18 1_555 1_555
C19_15 C20_18 1_555 1_555
C23_18 C28_18 1_555 1_555
C27_18 C28_18 1_555 1_555
C33_18 C34_18 1_555 1_555
C37_18 C42_15 1_555 1_555
C41_15 C42_15 1_555 1_555
C47_18 C48_18 1_555 1_555
C51_18 C56_18 1_555 1_555
C55_18 C56_18 1_555 1_555
O13_9 C36_18 1_555 1_555
O6_18 C36_18 1_555 1_555
H21_18 C38_18 1_555 1_555
C39_15 C38_18 1_555 1_555
H22_15 C39_15 1_555 1_555
C40_15 C39_15 1_555 1_555
H23_15 C40_15 1_555 1_555
C2_16 H1_16 1_555 1_555
C3_16 C2_16 1_555 1_555
H2_16 C3_16 1_555 1_555
Cu3_16 O3_16 1_555 1_555
O3_16 C22_16 1_555 1_555
O4_16 C22_16 1_555 1_555
O14_5 Cu3_16 1_555 1_555
O15_5 Cu3_16 1_555 1_555
H12_16 C19_16 1_555 1_555
H22_16 C39_16 1_555 1_555
C40_16 C39_16 1_555 1_555
H23_16 C40_16 1_555 1_555
C41_16 C40_16 1_555 1_555
H24_16 C41_16 1_555 1_555
C44_16 H25_16 1_555 1_555
C45_16 C44_16 1_555 1_555
H26_16 C45_16 1_555 1_555
C59_16 O14_5 1_555 1_555
H39_16 C59_16 1_555 1_555
H40_16 C59_16 1_555 1_555
H41_16 C59_16 1_555 1_555
C60_16 O15_5 1_555 1_555
H42_16 C60_16 1_555 1_555
H43_16 C60_16 1_555 1_555
H44_16 C60_16 1_555 1_555
C41_16 C42_16 1_555 1_555
Cu3_17 O3_17 1_555 1_555
O3_17 C22_17 1_555 1_555
O4_17 C22_17 1_555 1_555
O14_9 Cu3_17 1_555 1_555
O15_9 Cu3_17 1_555 1_555
H12_17 C19_17 1_555 1_555
H22_17 C39_17 1_555 1_555
C40_17 C39_17 1_555 1_555
H23_17 C40_17 1_555 1_555
C41_17 C40_17 1_555 1_555
H24_17 C41_17 1_555 1_555
C44_17 H25_17 1_555 1_555
C45_17 C44_17 1_555 1_555
H26_17 C45_17 1_555 1_555
C59_17 O14_9 1_555 1_555
H39_17 C59_17 1_555 1_555
H40_17 C59_17 1_555 1_555
H41_17 C59_17 1_555 1_555
C60_17 O15_9 1_555 1_555
H42_17 C60_17 1_555 1_555
H43_17 C60_17 1_555 1_555
H44_17 C60_17 1_555 1_555
C41_17 C42_17 1_555 1_555
C2_17 H1_17 1_555 1_555
C3_17 C2_17 1_555 1_555
H2_17 C3_17 1_555 1_555
Cu3_18 O3_18 1_555 1_555
O3_18 C22_18 1_555 1_555
O4_18 C22_18 1_555 1_555
O14_8 Cu3_18 1_555 1_555
O15_8 Cu3_18 1_555 1_555
H12_18 C19_18 1_555 1_555
H22_18 C39_18 1_555 1_555
C40_18 C39_18 1_555 1_555
H23_18 C40_18 1_555 1_555
C41_18 C40_18 1_555 1_555
H24_18 C41_18 1_555 1_555
C44_18 H25_18 1_555 1_555
C45_18 C44_18 1_555 1_555
H26_18 C45_18 1_555 1_555
C59_18 O14_8 1_555 1_555
H39_18 C59_18 1_555 1_555
H40_18 C59_18 1_555 1_555
H41_18 C59_18 1_555 1_555
C60_18 O15_8 1_555 1_555
H42_18 C60_18 1_555 1_555
H43_18 C60_18 1_555 1_555
H44_18 C60_18 1_555 1_555
C41_18 C42_18 1_555 1_555
C2_18 H1_18 1_555 1_555
C3_18 C2_18 1_555 1_555
H2_18 C3_18 1_555 1_555
H30_15 C53_15 1_555 1_555
H30_16 C53_16 1_555 1_555
H30_17 C53_17 1_555 1_555
H30_18 C53_18 1_555 1_555

#END
