
###############################################################################
#
# This file contains modified crystal structure data generated from the
# MOF subset of the Cambridge Structural Database (CSD) v543 
# hosted by the Cambridge Crystallographic Data Centre (CCDC).
#
# This work is licensed under the Creative Commons
# Attribution-NonCommercial-ShareAlike 4.0 International License.
# To view a copy of this license, visit
# http://creativecommons.org/licenses/by-nc-sa/4.0/
# or send a letter to
# Creative Commons, PO Box 1866, Mountain View, CA 94042, USA.
#
# CIF created using the CSD Python API on 29 September 2022
# The structure has been converted into the P1 space group
# The structure has a 3D framework
# The original CSD entry IPAQOI is in the hexagonal crystal system
# The framework has been calculated to contain at least 10.0% void space
# The void calculation uses a probe of radius 1.32A, grid spacing 0.4
# H atom positions have been added when not included in the experimental data
# Generated hydrogen atom positions removed from atoms on special positions
#
###############################################################################

data_IPAQOI
_chemical_formula_moiety         '(C336 H372 O100 Zr26)n'
_symmetry_cell_setting           triclinic
_symmetry_space_group_name_H-M   'P 1'
_symmetry_Int_Tables_number      1
_space_group_name_Hall           'P 1'
loop_
_symmetry_equiv_pos_site_id
_symmetry_equiv_pos_as_xyz
1 x,y,z
_cell_length_a                   50.5058(8)
_cell_length_b                   50.5058(8)
_cell_length_c                   14.8247(6)
_cell_angle_alpha                90
_cell_angle_beta                 90
_cell_angle_gamma                120
_cell_volume                     32749.1
loop_
_atom_site_label
_atom_site_type_symbol
_atom_site_fract_x
_atom_site_fract_y
_atom_site_fract_z
Zr1 Zr 0.52793(2) 0.47207(2) 0.500000
Zr2 Zr 0.46496(2) 0.46496(2) 0.38106(3)
O1 O 0.51458(6) 0.43302(5) 0.41163(16)
O2 O 0.47363(7) 0.42787(6) 0.3362(2)
O3 O 0.42143(9) 0.42143(9) 0.3873(3)
O4 O 0.46594(11) 0.46594(11) 0.2324(3)
O5 O 0.48627(3) 0.51373(3) 0.3813(3)
O6 O 0.54937(11) 0.52199(8) 0.500000
C1 C 0.49173(10) 0.41852(9) 0.3600(3)
C2 C 0.48580(11) 0.38884(10) 0.3226(3)
C3 C 0.50236(9) 0.37595(8) 0.3574(3)
H1 H 0.516856 0.385855 0.402347
C4 C 0.49673(11) 0.34749(9) 0.3229(3)
C5 C 0.47571(13) 0.33393(10) 0.2509(3)
C6 C 0.45909(14) 0.34773(12) 0.2189(4)
H2 H 0.444360 0.338257 0.174198
C7 C 0.46482(13) 0.37481(12) 0.2537(4)
H3 H 0.454436 0.384238 0.230954
C8 C 0.47326(13) 0.30729(11) 0.2087(3)
H4 H 0.460371 0.298789 0.159281
C9 C 0.48947(12) 0.29409(10) 0.2395(3)
C10 C 0.50871(12) 0.30697(9) 0.3138(3)
H5 H 0.518637 0.297210 0.337481
C11 C 0.51341(11) 0.33352(9) 0.3527(3)
H6 H 0.527629 0.342416 0.398998
C12 C 0.48764(12) 0.26767(9) 0.1913(3)
C13 C 0.48873(16) 0.24436(8) 0.2368(4)
H7 H 0.490224 0.245112 0.299376
C14 C 0.48539(12) 0.26588(8) 0.0994(3)
H8 H 0.484232 0.281319 0.068631
C15 C 0.48474(15) 0.24237(8) 0.0494(4)
O11 O 0.51458(6) 0.08156(8) 0.41163(16)
O12 O 0.47363(7) 0.04576(9) 0.3362(2)
C44 C 0.49173(10) 0.07321(13) 0.3600(3)
C45 C 0.48580(11) 0.09696(15) 0.3226(3)
C46 C 0.50236(9) 0.12641(12) 0.3574(3)
H24 H 0.516856 0.131001 0.402347
C47 C 0.49673(11) 0.14924(14) 0.3229(3)
C48 C 0.47571(13) 0.14178(16) 0.2509(3)
C49 C 0.45909(14) 0.11136(18) 0.2189(4)
H25 H 0.444360 0.106103 0.174198
C50 C 0.46482(13) 0.09001(18) 0.2537(4)
H26 H 0.454436 0.070198 0.230954
C51 C 0.47326(13) 0.16597(17) 0.2087(3)
H27 H 0.460371 0.161582 0.159281
C52 C 0.48947(12) 0.19538(16) 0.2395(3)
C53 C 0.50871(12) 0.20174(15) 0.3138(3)
H28 H 0.518637 0.221427 0.337481
C54 C 0.51341(11) 0.17989(14) 0.3527(3)
H29 H 0.527629 0.185213 0.398998
C55 C 0.48764(12) 0.21997(15) 0.1913(3)
C56 C 0.48539(12) 0.21951(14) 0.0994(3)
H30 H 0.484232 0.202913 0.068631
Zr3 Zr 0.53504(2) 0.53504(2) 0.38106(3)
O13 O 0.57857(9) 0.57857(9) 0.3873(3)
O14 O 0.53406(11) 0.53406(11) 0.2324(3)
O15 O 0.51373(3) 0.48627(3) 0.3813(3)
O16 O 0.47801(8) 0.45063(11) 0.500000
Zr6 Zr 0.52793(2) 0.05586(3) 0.500000
Zr7 Zr 0.47207(2) 0.52793(2) 0.500000
Zr8 Zr 0.46496(2) 0.00000(3) 0.38106(3)
Zr10 Zr 0.46496(2) 0.46496(2) 0.61894(3)
Zr11 Zr 0.53504(2) 0.53504(2) 0.61894(3)
O17 O 0.56698(5) 0.48542(6) 0.58837(16)
O18 O 0.51458(6) 0.43302(5) 0.58837(16)
O19 O 0.56698(5) 0.48542(6) 0.41163(16)
O20 O 0.52637(7) 0.57213(6) 0.3362(2)
O21 O 0.57213(6) 0.52637(7) 0.3362(2)
O22 O 0.42787(6) 0.47363(7) 0.3362(2)
O23 O 0.51373(3) 0.48627(3) 0.6187(3)
O24 O 0.45063(11) 0.47801(8) 0.500000
O25 O 0.52199(8) 0.54937(11) 0.500000
O7 O 0.51458(6) 0.08156(8) 0.58837(16)
O8 O 0.47363(7) 0.04576(9) 0.6638(2)
C16 C 0.49173(10) 0.07321(13) 0.6400(3)
C17 C 0.48580(11) 0.09696(15) 0.6774(3)
C18 C 0.50236(9) 0.12641(12) 0.6426(3)
H9 H 0.516856 0.131001 0.597653
C19 C 0.49673(11) 0.14924(14) 0.6771(3)
C20 C 0.47571(13) 0.14178(16) 0.7491(3)
C21 C 0.45909(14) 0.11136(18) 0.7811(4)
H10 H 0.444360 0.106103 0.825802
C22 C 0.46482(13) 0.09001(18) 0.7463(4)
H11 H 0.454436 0.070198 0.769046
C23 C 0.47326(13) 0.16597(17) 0.7913(3)
H12 H 0.460371 0.161582 0.840719
C24 C 0.48947(12) 0.19538(16) 0.7605(3)
C25 C 0.50871(12) 0.20174(15) 0.6862(3)
H13 H 0.518637 0.221427 0.662519
C26 C 0.51341(11) 0.17989(14) 0.6473(3)
H14 H 0.527629 0.185213 0.601002
C27 C 0.48764(12) 0.21997(15) 0.8087(3)
C28 C 0.48873(16) 0.24437(18) 0.7632(4)
H15 H 0.490224 0.245112 0.700624
C29 C 0.48539(12) 0.21951(14) 0.9006(3)
H16 H 0.484232 0.202913 0.931369
C30 C 0.48474(15) 0.24237(17) 0.9506(4)
O10 O 0.47363(7) 0.42787(6) 0.6638(2)
C31 C 0.49173(10) 0.41852(9) 0.6400(3)
C32 C 0.48580(11) 0.38884(10) 0.6774(3)
C33 C 0.50236(9) 0.37595(8) 0.6426(3)
H17 H 0.516856 0.385855 0.597653
C34 C 0.49673(11) 0.34749(9) 0.6771(3)
C35 C 0.47571(13) 0.33393(10) 0.7491(3)
C36 C 0.45909(14) 0.34773(12) 0.7811(4)
H18 H 0.444360 0.338257 0.825802
C37 C 0.46482(13) 0.37481(12) 0.7463(4)
H19 H 0.454436 0.384238 0.769046
C38 C 0.47326(13) 0.30729(11) 0.7913(3)
H20 H 0.460371 0.298789 0.840719
C39 C 0.48947(12) 0.29409(10) 0.7605(3)
C40 C 0.50871(12) 0.30697(9) 0.6862(3)
H21 H 0.518637 0.297210 0.662519
C41 C 0.51341(11) 0.33352(9) 0.6473(3)
H22 H 0.527629 0.342416 0.601002
C42 C 0.48764(12) 0.26767(9) 0.8087(3)
C43 C 0.48539(12) 0.26588(8) 0.9006(3)
H23 H 0.484232 0.281319 0.931369
Zr12 Zr 0.46496(2) -0.00000(3) 0.61894(3)
Zr8_2 Zr 0.46496(2) 1.00000(3) 0.38106(3)
Zr12_2 Zr 0.46496(2) 1.00000(3) 0.61894(3)
Zr8_3 Zr -0.00000(3) 0.46496(4) 0.38106(3)
Zr12_3 Zr -0.00000(3) 0.46496(4) 0.61894(3)
Zr2_2 Zr 0.53504(2) 0.00000(3) 0.38106(3)
O1_2 O 0.56698(5) 0.08156(8) 0.41163(16)
O2_2 O 0.57213(6) 0.04576(9) 0.3362(2)
O3_2 O 0.57857(9) 0.00000(13) 0.3873(3)
O4_2 O 0.53406(11) -0.00000(16) 0.2324(3)
O6_2 O 0.47801(8) 0.02738(14) 0.500000
C1_2 C 0.58148(9) 0.07321(13) 0.3600(3)
C2_2 C 0.61116(10) 0.09696(15) 0.3226(3)
C3_2 C 0.62405(8) 0.12641(12) 0.3574(3)
H1_2 H 0.614145 0.131001 0.402347
C4_2 C 0.65251(9) 0.14924(14) 0.3229(3)
C5_2 C 0.66607(10) 0.14178(16) 0.2509(3)
C6_2 C 0.65227(12) 0.11136(18) 0.2189(4)
H2_2 H 0.661743 0.106103 0.174198
C7_2 C 0.62519(12) 0.09001(18) 0.2537(4)
H3_2 H 0.615762 0.070198 0.230954
C8_2 C 0.69271(11) 0.16597(17) 0.2087(3)
H4_2 H 0.701211 0.161582 0.159281
C9_2 C 0.70591(10) 0.19538(16) 0.2395(3)
C10_2 C 0.69303(9) 0.20174(15) 0.3138(3)
H5_2 H 0.702790 0.221427 0.337481
C11_2 C 0.66648(9) 0.17989(14) 0.3527(3)
H6_2 H 0.657584 0.185213 0.398998
C12_2 C 0.73233(9) 0.21997(15) 0.1913(3)
C13_2 C 0.75564(8) 0.24437(18) 0.2368(4)
H7_2 H 0.754888 0.245112 0.299376
C14_2 C 0.73412(8) 0.21951(14) 0.0994(3)
H8_2 H 0.718681 0.202913 0.068631
C15_2 C 0.75763(8) 0.24237(17) 0.0494(4)
O11_2 O 0.91844(8) 0.43302(10) 0.41163(16)
O12_2 O 0.95424(9) 0.42787(11) 0.3362(2)
C44_2 C 0.92679(13) 0.41852(16) 0.3600(3)
C45_2 C 0.90304(15) 0.38884(19) 0.3226(3)
C46_2 C 0.87359(12) 0.37595(15) 0.3574(3)
H24_2 H 0.868999 0.385855 0.402347
C47_2 C 0.85076(14) 0.34749(18) 0.3229(3)
C48_2 C 0.85822(16) 0.33393(21) 0.2509(3)
C49_2 C 0.88864(18) 0.34773(23) 0.2189(4)
H25_2 H 0.893897 0.338257 0.174198
C50_2 C 0.90999(18) 0.37481(22) 0.2537(4)
H26_2 H 0.929802 0.384238 0.230954
C51_2 C 0.83403(17) 0.30729(21) 0.2087(3)
H27_2 H 0.838418 0.298789 0.159281
C52_2 C 0.80462(16) 0.29409(20) 0.2395(3)
C53_2 C 0.79826(15) 0.30697(19) 0.3138(3)
H28_2 H 0.778573 0.297210 0.337481
C54_2 C 0.82011(14) 0.33352(18) 0.3527(3)
H29_2 H 0.814787 0.342416 0.398998
C55_2 C 0.78003(15) 0.26767(19) 0.1913(3)
C56_2 C 0.78049(14) 0.26588(18) 0.0994(3)
H30_2 H 0.797087 0.281319 0.068631
O13_2 O 0.42143(9) -0.00000(13) 0.3873(3)
O14_2 O 0.46594(11) 0.00000(16) 0.2324(3)
O15_2 O 0.51373(3) 0.02746(4) 0.3813(3)
O16_2 O 0.54937(11) 0.02738(14) 0.500000
Zr6_2 Zr 0.94414(3) 0.47207(4) 0.500000
Zr8_4 Zr 1.00000(3) 0.46496(4) 0.38106(3)
Zr10_2 Zr 0.53504(2) -0.00000(3) 0.61894(3)
O18_2 O 0.56698(5) 0.08156(8) 0.58837(16)
O23_2 O 0.51373(3) 0.02746(4) 0.6187(3)
O7_2 O 0.91844(8) 0.43302(10) 0.58837(16)
O8_2 O 0.95424(9) 0.42787(11) 0.6638(2)
C16_2 C 0.92679(13) 0.41852(16) 0.6400(3)
C17_2 C 0.90304(15) 0.38884(19) 0.6774(3)
C18_2 C 0.87359(12) 0.37595(15) 0.6426(3)
H9_2 H 0.868999 0.385855 0.597653
C19_2 C 0.85076(14) 0.34749(18) 0.6771(3)
C20_2 C 0.85822(16) 0.33393(21) 0.7491(3)
C21_2 C 0.88864(18) 0.34773(23) 0.7811(4)
H10_2 H 0.893897 0.338257 0.825802
C22_2 C 0.90999(18) 0.37481(22) 0.7463(4)
H11_2 H 0.929802 0.384238 0.769046
C23_2 C 0.83403(17) 0.30729(21) 0.7913(3)
H12_2 H 0.838418 0.298789 0.840719
C24_2 C 0.80462(16) 0.29409(20) 0.7605(3)
C25_2 C 0.79826(15) 0.30697(19) 0.6862(3)
H13_2 H 0.778573 0.297210 0.662519
C26_2 C 0.82011(14) 0.33352(18) 0.6473(3)
H14_2 H 0.814787 0.342416 0.601002
C27_2 C 0.78003(15) 0.26767(19) 0.8087(3)
C28_2 C 0.75563(18) 0.24436(24) 0.7632(4)
H15_2 H 0.754888 0.245112 0.700624
C29_2 C 0.78049(14) 0.26588(18) 0.9006(3)
H16_2 H 0.797087 0.281319 0.931369
C30_2 C 0.75763(17) 0.24237(23) 0.9506(4)
O10_2 O 0.57213(6) 0.04576(9) 0.6638(2)
C31_2 C 0.58148(9) 0.07321(13) 0.6400(3)
C32_2 C 0.61116(10) 0.09696(15) 0.6774(3)
C33_2 C 0.62405(8) 0.12641(12) 0.6426(3)
H17_2 H 0.614145 0.131001 0.597653
C34_2 C 0.65251(9) 0.14924(14) 0.6771(3)
C35_2 C 0.66607(10) 0.14178(16) 0.7491(3)
C36_2 C 0.65227(12) 0.11136(18) 0.7811(4)
H18_2 H 0.661743 0.106103 0.825802
C37_2 C 0.62519(12) 0.09001(18) 0.7463(4)
H19_2 H 0.615762 0.070198 0.769046
C38_2 C 0.69271(11) 0.16597(17) 0.7913(3)
H20_2 H 0.701211 0.161582 0.840719
C39_2 C 0.70591(10) 0.19538(16) 0.7605(3)
C40_2 C 0.69303(9) 0.20174(15) 0.6862(3)
H21_2 H 0.702790 0.221427 0.662519
C41_2 C 0.66648(9) 0.17989(14) 0.6473(3)
H22_2 H 0.657584 0.185213 0.601002
C42_2 C 0.73233(9) 0.21997(15) 0.8087(3)
C43_2 C 0.73412(8) 0.21951(14) 0.9006(3)
H23_2 H 0.718681 0.202913 0.931369
Zr12_4 Zr 1.00000(3) 0.46496(4) 0.61894(3)
Zr2_3 Zr 0.53504(2) 1.00000(3) 0.38106(3)
O3_3 O 0.57857(9) 1.00000(13) 0.3873(3)
O4_3 O 0.53406(11) 1.00000(16) 0.2324(3)
O5_2 O 0.48627(3) 0.97254(4) 0.3813(3)
O13_3 O 0.42143(9) 1.00000(13) 0.3873(3)
O14_3 O 0.46594(11) 1.00000(16) 0.2324(3)
Zr7_2 Zr 0.47207(2) 0.94414(3) 0.500000
Zr10_3 Zr 0.53504(2) 1.00000(3) 0.61894(3)
O20_2 O 0.42787(6) 0.95424(9) 0.3362(2)
O22_2 O 0.52637(7) 0.95424(9) 0.3362(2)
O24_2 O 0.52199(8) 0.97262(14) 0.500000
O25_2 O 0.45063(11) 0.97262(14) 0.500000
Zr2_4 Zr -0.00000(3) 0.53504(2) 0.38106(3)
O3_4 O -0.00000(13) 0.57857(9) 0.3873(3)
O4_4 O 0.00000(16) 0.53406(11) 0.2324(3)
O5_3 O 0.02746(4) 0.51373(3) 0.3813(3)
O13_4 O 0.00000(13) 0.42143(9) 0.3873(3)
O14_4 O -0.00000(16) 0.46594(11) 0.2324(3)
Zr7_3 Zr 0.05586(3) 0.52793(2) 0.500000
Zr10_4 Zr -0.00000(3) 0.53504(2) 0.61894(3)
O20_3 O 0.04576(9) 0.47363(7) 0.3362(2)
O22_3 O 0.04576(9) 0.57213(6) 0.3362(2)
O24_3 O 0.02738(14) 0.54937(11) 0.500000
O25_3 O 0.02738(14) 0.47801(8) 0.500000
Zr2_5 Zr 1.00000(3) 0.53504(2) 0.38106(3)
O1_3 O 0.91844(8) 0.48542(6) 0.41163(16)
O2_3 O 0.95424(9) 0.52637(7) 0.3362(2)
O3_5 O 1.00000(13) 0.57857(9) 0.3873(3)
O4_5 O 1.00000(16) 0.53406(11) 0.2324(3)
O6_3 O 0.97262(14) 0.45063(11) 0.500000
C1_3 C 0.92679(13) 0.50827(10) 0.3600(3)
C2_3 C 0.90304(15) 0.51420(11) 0.3226(3)
C3_3 C 0.87359(12) 0.49764(9) 0.3574(3)
H1_3 H 0.868999 0.483144 0.402347
C4_3 C 0.85076(14) 0.50327(11) 0.3229(3)
C5_3 C 0.85822(16) 0.52429(13) 0.2509(3)
C6_3 C 0.88864(18) 0.54091(14) 0.2189(4)
H2_3 H 0.893897 0.555640 0.174198
C7_3 C 0.90999(18) 0.53518(13) 0.2537(4)
H3_3 H 0.929802 0.545564 0.230954
C8_3 C 0.83403(17) 0.52674(13) 0.2087(3)
H4_3 H 0.838418 0.539629 0.159281
C9_3 C 0.80462(16) 0.51053(12) 0.2395(3)
C10_3 C 0.79826(15) 0.49129(12) 0.3138(3)
H5_3 H 0.778573 0.481363 0.337481
C11_3 C 0.82011(14) 0.48659(11) 0.3527(3)
H6_3 H 0.814787 0.472371 0.398998
C12_3 C 0.78003(15) 0.51236(12) 0.1913(3)
C13_3 C 0.75563(18) 0.51127(16) 0.2368(4)
H7_3 H 0.754888 0.509776 0.299376
C14_3 C 0.78049(14) 0.51461(12) 0.0994(3)
H8_3 H 0.797087 0.515768 0.068631
C15_3 C 0.75763(17) 0.51526(15) 0.0494(4)
C44_3 C 0.58148(16) 0.50827(10) 0.3600(3)
C45_3 C 0.61116(19) 0.51420(11) 0.3226(3)
C46_3 C 0.62405(15) 0.49764(9) 0.3574(3)
H24_3 H 0.614145 0.483144 0.402347
C47_3 C 0.65251(18) 0.50327(11) 0.3229(3)
C48_3 C 0.66607(21) 0.52429(13) 0.2509(3)
C49_3 C 0.65227(23) 0.54091(14) 0.2189(4)
H25_3 H 0.661743 0.555640 0.174198
C50_3 C 0.62519(22) 0.53518(13) 0.2537(4)
H26_3 H 0.615762 0.545564 0.230954
C51_3 C 0.69271(21) 0.52674(13) 0.2087(3)
H27_3 H 0.701211 0.539629 0.159281
C52_3 C 0.70591(20) 0.51053(12) 0.2395(3)
C53_3 C 0.69303(19) 0.49129(12) 0.3138(3)
H28_3 H 0.702790 0.481363 0.337481
C54_3 C 0.66648(18) 0.48659(11) 0.3527(3)
H29_3 H 0.657584 0.472371 0.398998
C55_3 C 0.73233(19) 0.51236(12) 0.1913(3)
C56_3 C 0.73412(18) 0.51461(12) 0.0994(3)
H30_3 H 0.718681 0.515768 0.068631
O13_5 O 1.00000(13) 0.42143(9) 0.3873(3)
O14_5 O 1.00000(16) 0.46594(11) 0.2324(3)
O15_3 O 0.97254(4) 0.48627(3) 0.3813(3)
O16_3 O 0.97262(14) 0.52199(8) 0.500000
Zr10_5 Zr 1.00000(3) 0.53504(2) 0.61894(3)
O18_3 O 0.91844(8) 0.48542(6) 0.58837(16)
O23_3 O 0.97254(4) 0.48627(3) 0.6187(3)
O8_3 O 0.57213(11) 0.52637(7) 0.6638(2)
C16_3 C 0.58148(16) 0.50827(10) 0.6400(3)
C17_3 C 0.61116(19) 0.51420(11) 0.6774(3)
C18_3 C 0.62405(15) 0.49764(9) 0.6426(3)
H9_3 H 0.614145 0.483144 0.597653
C19_3 C 0.65251(18) 0.50327(11) 0.6771(3)
C20_3 C 0.66607(21) 0.52429(13) 0.7491(3)
C21_3 C 0.65227(23) 0.54091(14) 0.7811(4)
H10_3 H 0.661743 0.555640 0.825802
C22_3 C 0.62519(22) 0.53518(13) 0.7463(4)
H11_3 H 0.615762 0.545564 0.769046
C23_3 C 0.69271(21) 0.52674(13) 0.7913(3)
H12_3 H 0.701211 0.539629 0.840719
C24_3 C 0.70591(20) 0.51053(12) 0.7605(3)
C25_3 C 0.69303(19) 0.49129(12) 0.6862(3)
H13_3 H 0.702790 0.481363 0.662519
C26_3 C 0.66648(18) 0.48659(11) 0.6473(3)
H14_3 H 0.657584 0.472371 0.601002
C27_3 C 0.73233(19) 0.51236(12) 0.8087(3)
C28_3 C 0.75564(24) 0.51127(16) 0.7632(4)
H15_3 H 0.754888 0.509776 0.700624
C29_3 C 0.73412(18) 0.51461(12) 0.9006(3)
H16_3 H 0.718681 0.515768 0.931369
C30_3 C 0.75763(23) 0.51526(15) 0.9506(4)
O10_3 O 0.95424(9) 0.52637(7) 0.6638(2)
C31_3 C 0.92679(13) 0.50827(10) 0.6400(3)
C32_3 C 0.90304(15) 0.51420(11) 0.6774(3)
C33_3 C 0.87359(12) 0.49764(9) 0.6426(3)
H17_3 H 0.868999 0.483144 0.597653
C34_3 C 0.85076(14) 0.50327(11) 0.6771(3)
C35_3 C 0.85822(16) 0.52429(13) 0.7491(3)
C36_3 C 0.88864(18) 0.54091(14) 0.7811(4)
H18_3 H 0.893897 0.555640 0.825802
C37_3 C 0.90999(18) 0.53518(13) 0.7463(4)
H19_3 H 0.929802 0.545564 0.769046
C38_3 C 0.83403(17) 0.52674(13) 0.7913(3)
H20_3 H 0.838418 0.539629 0.840719
C39_3 C 0.80462(16) 0.51053(12) 0.7605(3)
C40_3 C 0.79826(15) 0.49129(12) 0.6862(3)
H21_3 H 0.778573 0.481363 0.662519
C41_3 C 0.82011(14) 0.48659(11) 0.6473(3)
H22_3 H 0.814787 0.472371 0.601002
C42_3 C 0.78003(15) 0.51236(12) 0.8087(3)
C43_3 C 0.78049(14) 0.51461(12) 0.9006(3)
H23_3 H 0.797087 0.515768 0.931369
O1_4 O 0.48542(6) 0.56698(5) 0.41163(16)
C1_4 C 0.50827(10) 0.58148(9) 0.3600(3)
C2_4 C 0.51420(11) 0.61116(10) 0.3226(3)
C3_4 C 0.49764(9) 0.62405(8) 0.3574(3)
H1_4 H 0.483144 0.614145 0.402347
C4_4 C 0.50327(11) 0.65251(9) 0.3229(3)
C5_4 C 0.52429(13) 0.66607(10) 0.2509(3)
C6_4 C 0.54091(14) 0.65227(12) 0.2189(4)
H2_4 H 0.555640 0.661743 0.174198
C7_4 C 0.53518(13) 0.62519(12) 0.2537(4)
H3_4 H 0.545564 0.615762 0.230954
C8_4 C 0.52674(13) 0.69271(11) 0.2087(3)
H4_4 H 0.539629 0.701211 0.159281
C9_4 C 0.51053(12) 0.70591(10) 0.2395(3)
C10_4 C 0.49129(12) 0.69303(9) 0.3138(3)
H5_4 H 0.481363 0.702790 0.337481
C11_4 C 0.48659(11) 0.66648(9) 0.3527(3)
H6_4 H 0.472371 0.657584 0.398998
C12_4 C 0.51236(12) 0.73233(9) 0.1913(3)
C13_4 C 0.51127(16) 0.75564(8) 0.2368(4)
H7_4 H 0.509776 0.754888 0.299376
C14_4 C 0.51461(12) 0.73412(8) 0.0994(3)
H8_4 H 0.515768 0.718681 0.068631
C15_4 C 0.51526(15) 0.75763(8) 0.0494(4)
O11_3 O 0.48542(6) 0.91844(8) 0.41163(16)
C44_4 C 0.50827(10) 0.92679(13) 0.3600(3)
C45_4 C 0.51420(11) 0.90304(15) 0.3226(3)
C46_4 C 0.49764(9) 0.87359(12) 0.3574(3)
H24_4 H 0.483144 0.868999 0.402347
C47_4 C 0.50327(11) 0.85076(14) 0.3229(3)
C48_4 C 0.52429(13) 0.85822(16) 0.2509(3)
C49_4 C 0.54091(14) 0.88864(18) 0.2189(4)
H25_4 H 0.555640 0.893897 0.174198
C50_4 C 0.53518(13) 0.90999(18) 0.2537(4)
H26_4 H 0.545564 0.929802 0.230954
C51_4 C 0.52674(13) 0.83403(17) 0.2087(3)
H27_4 H 0.539629 0.838418 0.159281
C52_4 C 0.51053(12) 0.80462(16) 0.2395(3)
C53_4 C 0.49129(12) 0.79826(15) 0.3138(3)
H28_4 H 0.481363 0.778573 0.337481
C54_4 C 0.48659(11) 0.82011(14) 0.3527(3)
H29_4 H 0.472371 0.814787 0.398998
C55_4 C 0.51236(12) 0.78003(15) 0.1913(3)
C56_4 C 0.51461(12) 0.78049(14) 0.0994(3)
H30_4 H 0.515768 0.797087 0.068631
O17_2 O 0.43302(5) 0.51458(6) 0.58837(16)
O18_4 O 0.48542(6) 0.56698(5) 0.58837(16)
O19_2 O 0.43302(5) 0.51458(6) 0.41163(16)
O23_4 O 0.48627(3) 0.51373(3) 0.6187(3)
O7_3 O 0.48542(6) 0.91844(8) 0.58837(16)
O8_4 O 0.52637(7) 0.95424(9) 0.6638(2)
C16_4 C 0.50827(10) 0.92679(13) 0.6400(3)
C17_4 C 0.51420(11) 0.90304(15) 0.6774(3)
C18_4 C 0.49764(9) 0.87359(12) 0.6426(3)
H9_4 H 0.483144 0.868999 0.597653
C19_4 C 0.50327(11) 0.85076(14) 0.6771(3)
C20_4 C 0.52429(13) 0.85822(16) 0.7491(3)
C21_4 C 0.54091(14) 0.88864(18) 0.7811(4)
H10_4 H 0.555640 0.893897 0.825802
C22_4 C 0.53518(13) 0.90999(18) 0.7463(4)
H11_4 H 0.545564 0.929802 0.769046
C23_4 C 0.52674(13) 0.83403(17) 0.7913(3)
H12_4 H 0.539629 0.838418 0.840719
C24_4 C 0.51053(12) 0.80462(16) 0.7605(3)
C25_4 C 0.49129(12) 0.79826(15) 0.6862(3)
H13_4 H 0.481363 0.778573 0.662519
C26_4 C 0.48659(11) 0.82011(14) 0.6473(3)
H14_4 H 0.472371 0.814787 0.601002
C27_4 C 0.51236(12) 0.78003(15) 0.8087(3)
C28_4 C 0.51127(16) 0.75563(18) 0.7632(4)
H15_4 H 0.509776 0.754888 0.700624
C29_4 C 0.51461(12) 0.78049(14) 0.9006(3)
H16_4 H 0.515768 0.797087 0.931369
C30_4 C 0.51526(15) 0.75763(17) 0.9506(4)
O10_4 O 0.52637(7) 0.57213(6) 0.6638(2)
C31_4 C 0.50827(10) 0.58148(9) 0.6400(3)
C32_4 C 0.51420(11) 0.61116(10) 0.6774(3)
C33_4 C 0.49764(9) 0.62405(8) 0.6426(3)
H17_4 H 0.483144 0.614145 0.597653
C34_4 C 0.50327(11) 0.65251(9) 0.6771(3)
C35_4 C 0.52429(13) 0.66607(10) 0.7491(3)
C36_4 C 0.54091(14) 0.65227(12) 0.7811(4)
H18_4 H 0.555640 0.661743 0.825802
C37_4 C 0.53518(13) 0.62519(12) 0.7463(4)
H19_4 H 0.545564 0.615762 0.769046
C38_4 C 0.52674(13) 0.69271(11) 0.7913(3)
H20_4 H 0.539629 0.701211 0.840719
C39_4 C 0.51053(12) 0.70591(10) 0.7605(3)
C40_4 C 0.49129(12) 0.69303(9) 0.6862(3)
H21_4 H 0.481363 0.702790 0.662519
C41_4 C 0.48659(11) 0.66648(9) 0.6473(3)
H22_4 H 0.472371 0.657584 0.601002
C42_4 C 0.51236(12) 0.73233(9) 0.8087(3)
C43_4 C 0.51461(12) 0.73412(8) 0.9006(3)
H23_4 H 0.515768 0.718681 0.931369
O1_5 O 0.43302(5) 0.91844(8) 0.41163(16)
C1_5 C 0.41852(9) 0.92679(13) 0.3600(3)
C2_5 C 0.38884(10) 0.90304(15) 0.3226(3)
C3_5 C 0.37595(8) 0.87359(12) 0.3574(3)
H1_5 H 0.385855 0.868999 0.402347
C4_5 C 0.34749(9) 0.85076(14) 0.3229(3)
C5_5 C 0.33393(10) 0.85822(16) 0.2509(3)
C6_5 C 0.34773(12) 0.88864(18) 0.2189(4)
H2_5 H 0.338257 0.893897 0.174198
C7_5 C 0.37481(12) 0.90999(18) 0.2537(4)
H3_5 H 0.384238 0.929802 0.230954
C8_5 C 0.30729(11) 0.83403(17) 0.2087(3)
H4_5 H 0.298789 0.838418 0.159281
C9_5 C 0.29409(10) 0.80462(16) 0.2395(3)
C10_5 C 0.30697(9) 0.79826(15) 0.3138(3)
H5_5 H 0.297210 0.778573 0.337481
C11_5 C 0.33352(9) 0.82011(14) 0.3527(3)
H6_5 H 0.342416 0.814787 0.398998
C12_5 C 0.26767(9) 0.78003(15) 0.1913(3)
C13_5 C 0.24436(8) 0.75563(18) 0.2368(4)
H7_5 H 0.245112 0.754888 0.299376
C14_5 C 0.26588(8) 0.78049(14) 0.0994(3)
H8_5 H 0.281319 0.797087 0.068631
C15_5 C 0.24237(8) 0.75763(17) 0.0494(4)
O11_4 O 0.08156(8) 0.56698(10) 0.41163(16)
C44_5 C 0.07321(13) 0.58148(16) 0.3600(3)
C45_5 C 0.09696(15) 0.61116(19) 0.3226(3)
C46_5 C 0.12641(12) 0.62405(15) 0.3574(3)
H24_5 H 0.131001 0.614145 0.402347
C47_5 C 0.14924(14) 0.65251(18) 0.3229(3)
C48_5 C 0.14178(16) 0.66607(21) 0.2509(3)
C49_5 C 0.11136(18) 0.65227(23) 0.2189(4)
H25_5 H 0.106103 0.661743 0.174198
C50_5 C 0.09001(18) 0.62519(22) 0.2537(4)
H26_5 H 0.070198 0.615762 0.230954
C51_5 C 0.16597(17) 0.69271(21) 0.2087(3)
H27_5 H 0.161582 0.701211 0.159281
C52_5 C 0.19538(16) 0.70591(20) 0.2395(3)
C53_5 C 0.20174(15) 0.69303(19) 0.3138(3)
H28_5 H 0.221427 0.702790 0.337481
C54_5 C 0.17989(14) 0.66648(18) 0.3527(3)
H29_5 H 0.185213 0.657584 0.398998
C55_5 C 0.21997(15) 0.73233(19) 0.1913(3)
C56_5 C 0.21951(14) 0.73412(18) 0.0994(3)
H30_5 H 0.202913 0.718681 0.068631
O18_5 O 0.43302(5) 0.91844(8) 0.58837(16)
O23_5 O 0.48627(3) 0.97254(4) 0.6187(3)
O7_4 O 0.08156(8) 0.56698(10) 0.58837(16)
O8_5 O 0.04576(9) 0.57213(11) 0.6638(2)
C16_5 C 0.07321(13) 0.58148(16) 0.6400(3)
C17_5 C 0.09696(15) 0.61116(19) 0.6774(3)
C18_5 C 0.12641(12) 0.62405(15) 0.6426(3)
H9_5 H 0.131001 0.614145 0.597653
C19_5 C 0.14924(14) 0.65251(18) 0.6771(3)
C20_5 C 0.14178(16) 0.66607(21) 0.7491(3)
C21_5 C 0.11136(18) 0.65227(23) 0.7811(4)
H10_5 H 0.106103 0.661743 0.825802
C22_5 C 0.09001(18) 0.62519(22) 0.7463(4)
H11_5 H 0.070198 0.615762 0.769046
C23_5 C 0.16597(17) 0.69271(21) 0.7913(3)
H12_5 H 0.161582 0.701211 0.840719
C24_5 C 0.19538(16) 0.70591(20) 0.7605(3)
C25_5 C 0.20174(15) 0.69303(19) 0.6862(3)
H13_5 H 0.221427 0.702790 0.662519
C26_5 C 0.17989(14) 0.66648(18) 0.6473(3)
H14_5 H 0.185213 0.657584 0.601002
C27_5 C 0.21997(15) 0.73233(19) 0.8087(3)
C28_5 C 0.24437(18) 0.75564(24) 0.7632(4)
H15_5 H 0.245112 0.754888 0.700624
C29_5 C 0.21951(14) 0.73412(18) 0.9006(3)
H16_5 H 0.202913 0.718681 0.931369
C30_5 C 0.24237(17) 0.75763(23) 0.9506(4)
O10_5 O 0.42787(6) 0.95424(9) 0.6638(2)
C31_5 C 0.41852(9) 0.92679(13) 0.6400(3)
C32_5 C 0.38884(10) 0.90304(15) 0.6774(3)
C33_5 C 0.37595(8) 0.87359(12) 0.6426(3)
H17_5 H 0.385855 0.868999 0.597653
C34_5 C 0.34749(9) 0.85076(14) 0.6771(3)
C35_5 C 0.33393(10) 0.85822(16) 0.7491(3)
C36_5 C 0.34773(12) 0.88864(18) 0.7811(4)
H18_5 H 0.338257 0.893897 0.825802
C37_5 C 0.37481(12) 0.90999(18) 0.7463(4)
H19_5 H 0.384238 0.929802 0.769046
C38_5 C 0.30729(11) 0.83403(17) 0.7913(3)
H20_5 H 0.298789 0.838418 0.840719
C39_5 C 0.29409(10) 0.80462(16) 0.7605(3)
C40_5 C 0.30697(9) 0.79826(15) 0.6862(3)
H21_5 H 0.297210 0.778573 0.662519
C41_5 C 0.33352(9) 0.82011(14) 0.6473(3)
H22_5 H 0.342416 0.814787 0.601002
C42_5 C 0.26767(9) 0.78003(15) 0.8087(3)
C43_5 C 0.26588(8) 0.78049(14) 0.9006(3)
H23_5 H 0.281319 0.797087 0.931369
O1_6 O 0.08156(8) 0.51458(6) 0.41163(16)
C1_6 C 0.07321(13) 0.49173(10) 0.3600(3)
C2_6 C 0.09696(15) 0.48580(11) 0.3226(3)
C3_6 C 0.12641(12) 0.50236(9) 0.3574(3)
H1_6 H 0.131001 0.516856 0.402347
C4_6 C 0.14924(14) 0.49673(11) 0.3229(3)
C5_6 C 0.14178(16) 0.47571(13) 0.2509(3)
C6_6 C 0.11136(18) 0.45909(14) 0.2189(4)
H2_6 H 0.106103 0.444360 0.174198
C7_6 C 0.09001(18) 0.46482(13) 0.2537(4)
H3_6 H 0.070198 0.454436 0.230954
C8_6 C 0.16597(17) 0.47326(13) 0.2087(3)
H4_6 H 0.161582 0.460371 0.159281
C9_6 C 0.19538(16) 0.48947(12) 0.2395(3)
C10_6 C 0.20174(15) 0.50871(12) 0.3138(3)
H5_6 H 0.221427 0.518637 0.337481
C11_6 C 0.17989(14) 0.51341(11) 0.3527(3)
H6_6 H 0.185213 0.527629 0.398998
C12_6 C 0.21997(15) 0.48764(12) 0.1913(3)
C13_6 C 0.24437(18) 0.48873(16) 0.2368(4)
H7_6 H 0.245112 0.490224 0.299376
C14_6 C 0.21951(14) 0.48539(12) 0.0994(3)
H8_6 H 0.202913 0.484232 0.068631
C15_6 C 0.24237(17) 0.48474(15) 0.0494(4)
C44_6 C 0.41852(16) 0.49173(10) 0.3600(3)
C45_6 C 0.38884(19) 0.48580(11) 0.3226(3)
C46_6 C 0.37595(15) 0.50236(9) 0.3574(3)
H24_6 H 0.385855 0.516856 0.402347
C47_6 C 0.34749(18) 0.49673(11) 0.3229(3)
C48_6 C 0.33393(21) 0.47571(13) 0.2509(3)
C49_6 C 0.34773(23) 0.45909(14) 0.2189(4)
H25_6 H 0.338257 0.444360 0.174198
C50_6 C 0.37481(22) 0.46482(13) 0.2537(4)
H26_6 H 0.384238 0.454436 0.230954
C51_6 C 0.30729(21) 0.47326(13) 0.2087(3)
H27_6 H 0.298789 0.460371 0.159281
C52_6 C 0.29409(20) 0.48947(12) 0.2395(3)
C53_6 C 0.30697(19) 0.50871(12) 0.3138(3)
H28_6 H 0.297210 0.518637 0.337481
C54_6 C 0.33352(18) 0.51341(11) 0.3527(3)
H29_6 H 0.342416 0.527629 0.398998
C55_6 C 0.26767(19) 0.48764(12) 0.1913(3)
C56_6 C 0.26588(18) 0.48539(12) 0.0994(3)
H30_6 H 0.281319 0.484232 0.068631
O18_6 O 0.08156(8) 0.51458(6) 0.58837(16)
O23_6 O 0.02746(4) 0.51373(3) 0.6187(3)
O8_6 O 0.42787(11) 0.47363(7) 0.6638(2)
C16_6 C 0.41852(16) 0.49173(10) 0.6400(3)
C17_6 C 0.38884(19) 0.48580(11) 0.6774(3)
C18_6 C 0.37595(15) 0.50236(9) 0.6426(3)
H9_6 H 0.385855 0.516856 0.597653
C19_6 C 0.34749(18) 0.49673(11) 0.6771(3)
C20_6 C 0.33393(21) 0.47571(13) 0.7491(3)
C21_6 C 0.34773(23) 0.45909(14) 0.7811(4)
H10_6 H 0.338257 0.444360 0.825802
C22_6 C 0.37481(22) 0.46482(13) 0.7463(4)
H11_6 H 0.384238 0.454436 0.769046
C23_6 C 0.30729(21) 0.47326(13) 0.7913(3)
H12_6 H 0.298789 0.460371 0.840719
C24_6 C 0.29409(20) 0.48947(12) 0.7605(3)
C25_6 C 0.30697(19) 0.50871(12) 0.6862(3)
H13_6 H 0.297210 0.518637 0.662519
C26_6 C 0.33352(18) 0.51341(11) 0.6473(3)
H14_6 H 0.342416 0.527629 0.601002
C27_6 C 0.26767(19) 0.48764(12) 0.8087(3)
C28_6 C 0.24436(24) 0.48873(16) 0.7632(4)
H15_6 H 0.245112 0.490224 0.700624
C29_6 C 0.26588(18) 0.48539(12) 0.9006(3)
H16_6 H 0.281319 0.484232 0.931369
C30_6 C 0.24237(23) 0.48474(15) 0.9506(4)
O10_6 O 0.04576(9) 0.47363(7) 0.6638(2)
C31_6 C 0.07321(13) 0.49173(10) 0.6400(3)
C32_6 C 0.09696(15) 0.48580(11) 0.6774(3)
C33_6 C 0.12641(12) 0.50236(9) 0.6426(3)
H17_6 H 0.131001 0.516856 0.597653
C34_6 C 0.14924(14) 0.49673(11) 0.6771(3)
C35_6 C 0.14178(16) 0.47571(13) 0.7491(3)
C36_6 C 0.11136(18) 0.45909(14) 0.7811(4)
H18_6 H 0.106103 0.444360 0.825802
C37_6 C 0.09001(18) 0.46482(13) 0.7463(4)
H19_6 H 0.070198 0.454436 0.769046
C38_6 C 0.16597(17) 0.47326(13) 0.7913(3)
H20_6 H 0.161582 0.460371 0.840719
C39_6 C 0.19538(16) 0.48947(12) 0.7605(3)
C40_6 C 0.20174(15) 0.50871(12) 0.6862(3)
H21_6 H 0.221427 0.518637 0.662519
C41_6 C 0.17989(14) 0.51341(11) 0.6473(3)
H22_6 H 0.185213 0.527629 0.601002
C42_6 C 0.21997(15) 0.48764(12) 0.8087(3)
C43_6 C 0.21951(14) 0.48539(12) 0.9006(3)
H23_6 H 0.202913 0.484232 0.931369
O3_6 O 0.42143(9) 0.42143(9) 0.6127(3)
O4_6 O 0.46594(11) 0.46594(11) 0.7676(3)
O13_6 O 0.57857(9) 0.57857(9) 0.6127(3)
O14_6 O 0.53406(11) 0.53406(11) 0.7676(3)
O3_7 O -0.00000(13) 0.57857(9) 0.6127(3)
O4_7 O -0.00000(16) 0.53406(11) 0.7676(3)
O13_7 O -0.00000(13) 0.42143(9) 0.6127(3)
O14_7 O -0.00000(16) 0.46594(11) 0.7676(3)
O3_8 O 1.00000(13) 0.57857(9) 0.6127(3)
O4_8 O 1.00000(16) 0.53406(11) 0.7676(3)
O13_8 O 1.00000(13) 0.42143(9) 0.6127(3)
O14_8 O 1.00000(16) 0.46594(11) 0.7676(3)
O3_9 O 0.57857(9) -0.00000(13) 0.6127(3)
O4_9 O 0.53406(11) 0.00000(16) 0.7676(3)
O13_9 O 0.42143(9) 0.00000(13) 0.6127(3)
O14_9 O 0.46594(11) -0.00000(16) 0.7676(3)
O3_10 O 0.57857(9) 1.00000(13) 0.6127(3)
O4_10 O 0.53406(11) 1.00000(16) 0.7676(3)
O13_10 O 0.42143(9) 1.00000(13) 0.6127(3)
O14_10 O 0.46594(11) 1.00000(16) 0.7676(3)
loop_
_geom_bond_atom_site_label_1
_geom_bond_atom_site_label_2
_geom_bond_site_symmetry_1
_geom_bond_site_symmetry_2
Zr1 O1 1_555 1_555
Zr2 O2 1_555 1_555
O1 C1 1_555 1_555
O2 C1 1_555 1_555
O3 Zr2 1_555 1_555
O4 Zr2 1_555 1_555
O5 Zr2 1_555 1_555
O6 Zr1 1_555 1_555
C1 C2 1_555 1_555
C2 C3 1_555 1_555
C3 H1 1_555 1_555
C4 C3 1_555 1_555
C5 C4 1_555 1_555
C6 C5 1_555 1_555
H2 C6 1_555 1_555
C7 C2 1_555 1_555
H3 C7 1_555 1_555
C8 C5 1_555 1_555
H4 C8 1_555 1_555
C9 C8 1_555 1_555
C10 C9 1_555 1_555
H5 C10 1_555 1_555
C11 C4 1_555 1_555
H6 C11 1_555 1_555
C12 C9 1_555 1_555
C13 C12 1_555 1_555
H7 C13 1_555 1_555
C14 C12 1_555 1_555
H8 C14 1_555 1_555
C15 C14 1_555 1_555
O11 C44 1_555 1_555
O12 C44 1_555 1_555
C44 C45 1_555 1_555
C45 C46 1_555 1_555
C46 H24 1_555 1_555
C47 C46 1_555 1_555
C48 C47 1_555 1_555
C49 C48 1_555 1_555
H25 C49 1_555 1_555
C50 C45 1_555 1_555
H26 C50 1_555 1_555
C51 C48 1_555 1_555
H27 C51 1_555 1_555
C52 C51 1_555 1_555
C53 C52 1_555 1_555
H28 C53 1_555 1_555
C54 C47 1_555 1_555
H29 C54 1_555 1_555
C55 C13 1_555 1_555
C56 C15 1_555 1_555
H30 C56 1_555 1_555
Zr3 O5 1_555 1_555
O13 Zr3 1_555 1_555
O14 Zr3 1_555 1_555
O15 Zr1 1_555 1_555
O16 Zr1 1_555 1_555
Zr6 O11 1_555 1_555
Zr7 O5 1_555 1_555
Zr8 O12 1_555 1_555
Zr10 O16 1_555 1_555
Zr11 O6 1_555 1_555
O17 Zr1 1_555 1_555
O18 Zr1 1_555 1_555
O19 Zr1 1_555 1_555
O20 Zr3 1_555 1_555
O21 Zr3 1_555 1_555
O22 Zr2 1_555 1_555
O23 Zr1 1_555 1_555
O24 Zr2 1_555 1_555
O25 Zr3 1_555 1_555
Zr2 O15 1_555 1_555
Zr2 O16 1_555 1_555
O6 Zr3 1_555 1_555
C6 C7 1_555 1_555
C10 C11 1_555 1_555
C49 C50 1_555 1_555
C52 C55 1_555 1_555
C53 C54 1_555 1_555
C55 C56 1_555 1_555
Zr3 O15 1_555 1_555
Zr7 O24 1_555 1_555
Zr7 O25 1_555 1_555
Zr10 O23 1_555 1_555
Zr10 O24 1_555 1_555
Zr11 O23 1_555 1_555
Zr11 O25 1_555 1_555
O7 C16 1_555 1_555
O8 C16 1_555 1_555
C16 C17 1_555 1_555
C17 C18 1_555 1_555
C18 H9 1_555 1_555
C19 C18 1_555 1_555
C20 C19 1_555 1_555
C21 C20 1_555 1_555
H10 C21 1_555 1_555
C22 C17 1_555 1_555
H11 C22 1_555 1_555
C23 C20 1_555 1_555
H12 C23 1_555 1_555
C24 C23 1_555 1_555
C25 C24 1_555 1_555
H13 C25 1_555 1_555
C26 C19 1_555 1_555
H14 C26 1_555 1_555
C27 C24 1_555 1_555
C28 C27 1_555 1_555
H15 C28 1_555 1_555
C29 C27 1_555 1_555
H16 C29 1_555 1_555
O18 C31 1_555 1_555
O10 C31 1_555 1_555
C31 C32 1_555 1_555
C32 C33 1_555 1_555
C33 H17 1_555 1_555
C34 C33 1_555 1_555
C35 C34 1_555 1_555
C36 C35 1_555 1_555
H18 C36 1_555 1_555
C37 C32 1_555 1_555
H19 C37 1_555 1_555
C38 C35 1_555 1_555
H20 C38 1_555 1_555
C39 C38 1_555 1_555
C40 C39 1_555 1_555
H21 C40 1_555 1_555
C41 C34 1_555 1_555
H22 C41 1_555 1_555
C42 C28 1_555 1_555
C43 C30 1_555 1_555
H23 C43 1_555 1_555
Zr6 O7 1_555 1_555
Zr10 O10 1_555 1_555
Zr12 O8 1_555 1_555
C21 C22 1_555 1_555
C25 C26 1_555 1_555
C29 C30 1_555 1_555
C36 C37 1_555 1_555
C39 C42 1_555 1_555
C40 C41 1_555 1_555
C42 C43 1_555 1_555
Zr6 O1_2 1_555 1_555
Zr2_2 O2_2 1_555 1_555
O1_2 C1_2 1_555 1_555
O2_2 C1_2 1_555 1_555
O3_2 Zr2_2 1_555 1_555
O4_2 Zr2_2 1_555 1_555
O6_2 Zr6 1_555 1_555
C1_2 C2_2 1_555 1_555
C2_2 C3_2 1_555 1_555
C3_2 H1_2 1_555 1_555
C4_2 C3_2 1_555 1_555
C5_2 C4_2 1_555 1_555
C6_2 C5_2 1_555 1_555
H2_2 C6_2 1_555 1_555
C7_2 C2_2 1_555 1_555
H3_2 C7_2 1_555 1_555
C8_2 C5_2 1_555 1_555
H4_2 C8_2 1_555 1_555
C9_2 C8_2 1_555 1_555
C10_2 C9_2 1_555 1_555
H5_2 C10_2 1_555 1_555
C11_2 C4_2 1_555 1_555
H6_2 C11_2 1_555 1_555
C12_2 C9_2 1_555 1_555
C13_2 C12_2 1_555 1_555
H7_2 C13_2 1_555 1_555
C14_2 C12_2 1_555 1_555
H8_2 C14_2 1_555 1_555
C15_2 C14_2 1_555 1_555
O11_2 C44_2 1_555 1_555
O12_2 C44_2 1_555 1_555
C44_2 C45_2 1_555 1_555
C45_2 C46_2 1_555 1_555
C46_2 H24_2 1_555 1_555
C47_2 C46_2 1_555 1_555
C48_2 C47_2 1_555 1_555
C49_2 C48_2 1_555 1_555
H25_2 C49_2 1_555 1_555
C50_2 C45_2 1_555 1_555
H26_2 C50_2 1_555 1_555
C51_2 C48_2 1_555 1_555
H27_2 C51_2 1_555 1_555
C52_2 C51_2 1_555 1_555
C53_2 C52_2 1_555 1_555
H28_2 C53_2 1_555 1_555
C54_2 C47_2 1_555 1_555
H29_2 C54_2 1_555 1_555
C55_2 C13_2 1_555 1_555
C56_2 C15_2 1_555 1_555
H30_2 C56_2 1_555 1_555
O13_2 Zr8 1_555 1_555
O14_2 Zr8 1_555 1_555
O15_2 Zr6 1_555 1_555
O16_2 Zr6 1_555 1_555
Zr6_2 O11_2 1_555 1_555
Zr8_4 O12_2 1_555 1_555
Zr10_2 O16_2 1_555 1_555
Zr12 O6_2 1_555 1_555
O18_2 Zr6 1_555 1_555
O23_2 Zr6 1_555 1_555
Zr2_2 O15_2 1_555 1_555
Zr2_2 O16_2 1_555 1_555
O6_2 Zr8 1_555 1_555
C6_2 C7_2 1_555 1_555
C10_2 C11_2 1_555 1_555
C49_2 C50_2 1_555 1_555
C52_2 C55_2 1_555 1_555
C53_2 C54_2 1_555 1_555
C55_2 C56_2 1_555 1_555
Zr8 O15_2 1_555 1_555
Zr10_2 O23_2 1_555 1_555
Zr12 O23_2 1_555 1_555
O7_2 C16_2 1_555 1_555
O8_2 C16_2 1_555 1_555
C16_2 C17_2 1_555 1_555
C17_2 C18_2 1_555 1_555
C18_2 H9_2 1_555 1_555
C19_2 C18_2 1_555 1_555
C20_2 C19_2 1_555 1_555
C21_2 C20_2 1_555 1_555
H10_2 C21_2 1_555 1_555
C22_2 C17_2 1_555 1_555
H11_2 C22_2 1_555 1_555
C23_2 C20_2 1_555 1_555
H12_2 C23_2 1_555 1_555
C24_2 C23_2 1_555 1_555
C25_2 C24_2 1_555 1_555
H13_2 C25_2 1_555 1_555
C26_2 C19_2 1_555 1_555
H14_2 C26_2 1_555 1_555
C27_2 C24_2 1_555 1_555
C28_2 C27_2 1_555 1_555
H15_2 C28_2 1_555 1_555
C29_2 C27_2 1_555 1_555
H16_2 C29_2 1_555 1_555
O18_2 C31_2 1_555 1_555
O10_2 C31_2 1_555 1_555
C31_2 C32_2 1_555 1_555
C32_2 C33_2 1_555 1_555
C33_2 H17_2 1_555 1_555
C34_2 C33_2 1_555 1_555
C35_2 C34_2 1_555 1_555
C36_2 C35_2 1_555 1_555
H18_2 C36_2 1_555 1_555
C37_2 C32_2 1_555 1_555
H19_2 C37_2 1_555 1_555
C38_2 C35_2 1_555 1_555
H20_2 C38_2 1_555 1_555
C39_2 C38_2 1_555 1_555
C40_2 C39_2 1_555 1_555
H21_2 C40_2 1_555 1_555
C41_2 C34_2 1_555 1_555
H22_2 C41_2 1_555 1_555
C42_2 C28_2 1_555 1_555
C43_2 C30_2 1_555 1_555
H23_2 C43_2 1_555 1_555
Zr6_2 O7_2 1_555 1_555
Zr10_2 O10_2 1_555 1_555
Zr12_4 O8_2 1_555 1_555
C21_2 C22_2 1_555 1_555
C25_2 C26_2 1_555 1_555
C29_2 C30_2 1_555 1_555
C36_2 C37_2 1_555 1_555
C39_2 C42_2 1_555 1_555
C40_2 C41_2 1_555 1_555
C42_2 C43_2 1_555 1_555
O3_3 Zr2_3 1_555 1_555
O4_3 Zr2_3 1_555 1_555
O5_2 Zr2_3 1_555 1_555
Zr8_2 O5_2 1_555 1_555
O13_3 Zr8_2 1_555 1_555
O14_3 Zr8_2 1_555 1_555
Zr7_2 O5_2 1_555 1_555
O20_2 Zr8_2 1_555 1_555
O22_2 Zr2_3 1_555 1_555
O24_2 Zr2_3 1_555 1_555
O25_2 Zr8_2 1_555 1_555
Zr7_2 O24_2 1_555 1_555
Zr7_2 O25_2 1_555 1_555
Zr10_3 O24_2 1_555 1_555
Zr12_2 O25_2 1_555 1_555
O3_4 Zr2_4 1_555 1_555
O4_4 Zr2_4 1_555 1_555
O5_3 Zr2_4 1_555 1_555
Zr8_3 O5_3 1_555 1_555
O13_4 Zr8_3 1_555 1_555
O14_4 Zr8_3 1_555 1_555
Zr7_3 O5_3 1_555 1_555
O20_3 Zr8_3 1_555 1_555
O22_3 Zr2_4 1_555 1_555
O24_3 Zr2_4 1_555 1_555
O25_3 Zr8_3 1_555 1_555
Zr7_3 O24_3 1_555 1_555
Zr7_3 O25_3 1_555 1_555
Zr10_4 O24_3 1_555 1_555
Zr12_3 O25_3 1_555 1_555
Zr6_2 O1_3 1_555 1_555
Zr2_5 O2_3 1_555 1_555
O1_3 C1_3 1_555 1_555
O2_3 C1_3 1_555 1_555
O3_5 Zr2_5 1_555 1_555
O4_5 Zr2_5 1_555 1_555
O6_3 Zr6_2 1_555 1_555
C1_3 C2_3 1_555 1_555
C2_3 C3_3 1_555 1_555
C3_3 H1_3 1_555 1_555
C4_3 C3_3 1_555 1_555
C5_3 C4_3 1_555 1_555
C6_3 C5_3 1_555 1_555
H2_3 C6_3 1_555 1_555
C7_3 C2_3 1_555 1_555
H3_3 C7_3 1_555 1_555
C8_3 C5_3 1_555 1_555
H4_3 C8_3 1_555 1_555
C9_3 C8_3 1_555 1_555
C10_3 C9_3 1_555 1_555
H5_3 C10_3 1_555 1_555
C11_3 C4_3 1_555 1_555
H6_3 C11_3 1_555 1_555
C12_3 C9_3 1_555 1_555
C13_3 C12_3 1_555 1_555
H7_3 C13_3 1_555 1_555
C14_3 C12_3 1_555 1_555
H8_3 C14_3 1_555 1_555
C15_3 C14_3 1_555 1_555
O19 C44_3 1_555 1_555
O21 C44_3 1_555 1_555
C44_3 C45_3 1_555 1_555
C45_3 C46_3 1_555 1_555
C46_3 H24_3 1_555 1_555
C47_3 C46_3 1_555 1_555
C48_3 C47_3 1_555 1_555
C49_3 C48_3 1_555 1_555
H25_3 C49_3 1_555 1_555
C50_3 C45_3 1_555 1_555
H26_3 C50_3 1_555 1_555
C51_3 C48_3 1_555 1_555
H27_3 C51_3 1_555 1_555
C52_3 C51_3 1_555 1_555
C53_3 C52_3 1_555 1_555
H28_3 C53_3 1_555 1_555
C54_3 C47_3 1_555 1_555
H29_3 C54_3 1_555 1_555
C55_3 C13_3 1_555 1_555
C56_3 C15_3 1_555 1_555
H30_3 C56_3 1_555 1_555
O13_5 Zr8_4 1_555 1_555
O14_5 Zr8_4 1_555 1_555
O15_3 Zr6_2 1_555 1_555
O16_3 Zr6_2 1_555 1_555
Zr10_5 O16_3 1_555 1_555
Zr12_4 O6_3 1_555 1_555
O18_3 Zr6_2 1_555 1_555
O23_3 Zr6_2 1_555 1_555
Zr2_5 O15_3 1_555 1_555
Zr2_5 O16_3 1_555 1_555
O6_3 Zr8_4 1_555 1_555
C6_3 C7_3 1_555 1_555
C10_3 C11_3 1_555 1_555
C49_3 C50_3 1_555 1_555
C52_3 C55_3 1_555 1_555
C53_3 C54_3 1_555 1_555
C55_3 C56_3 1_555 1_555
Zr8_4 O15_3 1_555 1_555
Zr10_5 O23_3 1_555 1_555
Zr12_4 O23_3 1_555 1_555
O17 C16_3 1_555 1_555
O8_3 C16_3 1_555 1_555
C16_3 C17_3 1_555 1_555
C17_3 C18_3 1_555 1_555
C18_3 H9_3 1_555 1_555
C19_3 C18_3 1_555 1_555
C20_3 C19_3 1_555 1_555
C21_3 C20_3 1_555 1_555
H10_3 C21_3 1_555 1_555
C22_3 C17_3 1_555 1_555
H11_3 C22_3 1_555 1_555
C23_3 C20_3 1_555 1_555
H12_3 C23_3 1_555 1_555
C24_3 C23_3 1_555 1_555
C25_3 C24_3 1_555 1_555
H13_3 C25_3 1_555 1_555
C26_3 C19_3 1_555 1_555
H14_3 C26_3 1_555 1_555
C27_3 C24_3 1_555 1_555
C28_3 C27_3 1_555 1_555
H15_3 C28_3 1_555 1_555
C29_3 C27_3 1_555 1_555
H16_3 C29_3 1_555 1_555
O18_3 C31_3 1_555 1_555
O10_3 C31_3 1_555 1_555
C31_3 C32_3 1_555 1_555
C32_3 C33_3 1_555 1_555
C33_3 H17_3 1_555 1_555
C34_3 C33_3 1_555 1_555
C35_3 C34_3 1_555 1_555
C36_3 C35_3 1_555 1_555
H18_3 C36_3 1_555 1_555
C37_3 C32_3 1_555 1_555
H19_3 C37_3 1_555 1_555
C38_3 C35_3 1_555 1_555
H20_3 C38_3 1_555 1_555
C39_3 C38_3 1_555 1_555
C40_3 C39_3 1_555 1_555
H21_3 C40_3 1_555 1_555
C41_3 C34_3 1_555 1_555
H22_3 C41_3 1_555 1_555
C42_3 C28_3 1_555 1_555
C43_3 C30_3 1_555 1_555
H23_3 C43_3 1_555 1_555
Zr10_5 O10_3 1_555 1_555
Zr11 O8_3 1_555 1_555
C21_3 C22_3 1_555 1_555
C25_3 C26_3 1_555 1_555
C29_3 C30_3 1_555 1_555
C36_3 C37_3 1_555 1_555
C39_3 C42_3 1_555 1_555
C40_3 C41_3 1_555 1_555
C42_3 C43_3 1_555 1_555
Zr7 O1_4 1_555 1_555
O1_4 C1_4 1_555 1_555
O20 C1_4 1_555 1_555
C1_4 C2_4 1_555 1_555
C2_4 C3_4 1_555 1_555
C3_4 H1_4 1_555 1_555
C4_4 C3_4 1_555 1_555
C5_4 C4_4 1_555 1_555
C6_4 C5_4 1_555 1_555
H2_4 C6_4 1_555 1_555
C7_4 C2_4 1_555 1_555
H3_4 C7_4 1_555 1_555
C8_4 C5_4 1_555 1_555
H4_4 C8_4 1_555 1_555
C9_4 C8_4 1_555 1_555
C10_4 C9_4 1_555 1_555
H5_4 C10_4 1_555 1_555
C11_4 C4_4 1_555 1_555
H6_4 C11_4 1_555 1_555
C12_4 C9_4 1_555 1_555
C13_4 C12_4 1_555 1_555
H7_4 C13_4 1_555 1_555
C14_4 C12_4 1_555 1_555
H8_4 C14_4 1_555 1_555
C15_4 C14_4 1_555 1_555
O11_3 C44_4 1_555 1_555
O22_2 C44_4 1_555 1_555
C44_4 C45_4 1_555 1_555
C45_4 C46_4 1_555 1_555
C46_4 H24_4 1_555 1_555
C47_4 C46_4 1_555 1_555
C48_4 C47_4 1_555 1_555
C49_4 C48_4 1_555 1_555
H25_4 C49_4 1_555 1_555
C50_4 C45_4 1_555 1_555
H26_4 C50_4 1_555 1_555
C51_4 C48_4 1_555 1_555
H27_4 C51_4 1_555 1_555
C52_4 C51_4 1_555 1_555
C53_4 C52_4 1_555 1_555
H28_4 C53_4 1_555 1_555
C54_4 C47_4 1_555 1_555
H29_4 C54_4 1_555 1_555
C55_4 C13_4 1_555 1_555
C56_4 C15_4 1_555 1_555
H30_4 C56_4 1_555 1_555
Zr7_2 O11_3 1_555 1_555
O17_2 Zr7 1_555 1_555
O18_4 Zr7 1_555 1_555
O19_2 Zr7 1_555 1_555
O23_4 Zr7 1_555 1_555
C6_4 C7_4 1_555 1_555
C10_4 C11_4 1_555 1_555
C49_4 C50_4 1_555 1_555
C52_4 C55_4 1_555 1_555
C53_4 C54_4 1_555 1_555
C55_4 C56_4 1_555 1_555
Zr11 O23_4 1_555 1_555
Zr10 O23_4 1_555 1_555
O7_3 C16_4 1_555 1_555
O8_4 C16_4 1_555 1_555
C16_4 C17_4 1_555 1_555
C17_4 C18_4 1_555 1_555
C18_4 H9_4 1_555 1_555
C19_4 C18_4 1_555 1_555
C20_4 C19_4 1_555 1_555
C21_4 C20_4 1_555 1_555
H10_4 C21_4 1_555 1_555
C22_4 C17_4 1_555 1_555
H11_4 C22_4 1_555 1_555
C23_4 C20_4 1_555 1_555
H12_4 C23_4 1_555 1_555
C24_4 C23_4 1_555 1_555
C25_4 C24_4 1_555 1_555
H13_4 C25_4 1_555 1_555
C26_4 C19_4 1_555 1_555
H14_4 C26_4 1_555 1_555
C27_4 C24_4 1_555 1_555
C28_4 C27_4 1_555 1_555
H15_4 C28_4 1_555 1_555
C29_4 C27_4 1_555 1_555
H16_4 C29_4 1_555 1_555
O18_4 C31_4 1_555 1_555
O10_4 C31_4 1_555 1_555
C31_4 C32_4 1_555 1_555
C32_4 C33_4 1_555 1_555
C33_4 H17_4 1_555 1_555
C34_4 C33_4 1_555 1_555
C35_4 C34_4 1_555 1_555
C36_4 C35_4 1_555 1_555
H18_4 C36_4 1_555 1_555
C37_4 C32_4 1_555 1_555
H19_4 C37_4 1_555 1_555
C38_4 C35_4 1_555 1_555
H20_4 C38_4 1_555 1_555
C39_4 C38_4 1_555 1_555
C40_4 C39_4 1_555 1_555
H21_4 C40_4 1_555 1_555
C41_4 C34_4 1_555 1_555
H22_4 C41_4 1_555 1_555
C42_4 C28_4 1_555 1_555
C43_4 C30_4 1_555 1_555
H23_4 C43_4 1_555 1_555
Zr7_2 O7_3 1_555 1_555
Zr11 O10_4 1_555 1_555
Zr10_3 O8_4 1_555 1_555
C21_4 C22_4 1_555 1_555
C25_4 C26_4 1_555 1_555
C29_4 C30_4 1_555 1_555
C36_4 C37_4 1_555 1_555
C39_4 C42_4 1_555 1_555
C40_4 C41_4 1_555 1_555
C42_4 C43_4 1_555 1_555
Zr7_2 O1_5 1_555 1_555
O1_5 C1_5 1_555 1_555
O20_2 C1_5 1_555 1_555
C1_5 C2_5 1_555 1_555
C2_5 C3_5 1_555 1_555
C3_5 H1_5 1_555 1_555
C4_5 C3_5 1_555 1_555
C5_5 C4_5 1_555 1_555
C6_5 C5_5 1_555 1_555
H2_5 C6_5 1_555 1_555
C7_5 C2_5 1_555 1_555
H3_5 C7_5 1_555 1_555
C8_5 C5_5 1_555 1_555
H4_5 C8_5 1_555 1_555
C9_5 C8_5 1_555 1_555
C10_5 C9_5 1_555 1_555
H5_5 C10_5 1_555 1_555
C11_5 C4_5 1_555 1_555
H6_5 C11_5 1_555 1_555
C12_5 C9_5 1_555 1_555
C13_5 C12_5 1_555 1_555
H7_5 C13_5 1_555 1_555
C14_5 C12_5 1_555 1_555
H8_5 C14_5 1_555 1_555
C15_5 C14_5 1_555 1_555
O11_4 C44_5 1_555 1_555
O22_3 C44_5 1_555 1_555
C44_5 C45_5 1_555 1_555
C45_5 C46_5 1_555 1_555
C46_5 H24_5 1_555 1_555
C47_5 C46_5 1_555 1_555
C48_5 C47_5 1_555 1_555
C49_5 C48_5 1_555 1_555
H25_5 C49_5 1_555 1_555
C50_5 C45_5 1_555 1_555
H26_5 C50_5 1_555 1_555
C51_5 C48_5 1_555 1_555
H27_5 C51_5 1_555 1_555
C52_5 C51_5 1_555 1_555
C53_5 C52_5 1_555 1_555
H28_5 C53_5 1_555 1_555
C54_5 C47_5 1_555 1_555
H29_5 C54_5 1_555 1_555
C55_5 C13_5 1_555 1_555
C56_5 C15_5 1_555 1_555
H30_5 C56_5 1_555 1_555
Zr7_3 O11_4 1_555 1_555
O18_5 Zr7_2 1_555 1_555
O23_5 Zr7_2 1_555 1_555
C6_5 C7_5 1_555 1_555
C10_5 C11_5 1_555 1_555
C49_5 C50_5 1_555 1_555
C52_5 C55_5 1_555 1_555
C53_5 C54_5 1_555 1_555
C55_5 C56_5 1_555 1_555
Zr12_2 O23_5 1_555 1_555
Zr10_3 O23_5 1_555 1_555
O7_4 C16_5 1_555 1_555
O8_5 C16_5 1_555 1_555
C16_5 C17_5 1_555 1_555
C17_5 C18_5 1_555 1_555
C18_5 H9_5 1_555 1_555
C19_5 C18_5 1_555 1_555
C20_5 C19_5 1_555 1_555
C21_5 C20_5 1_555 1_555
H10_5 C21_5 1_555 1_555
C22_5 C17_5 1_555 1_555
H11_5 C22_5 1_555 1_555
C23_5 C20_5 1_555 1_555
H12_5 C23_5 1_555 1_555
C24_5 C23_5 1_555 1_555
C25_5 C24_5 1_555 1_555
H13_5 C25_5 1_555 1_555
C26_5 C19_5 1_555 1_555
H14_5 C26_5 1_555 1_555
C27_5 C24_5 1_555 1_555
C28_5 C27_5 1_555 1_555
H15_5 C28_5 1_555 1_555
C29_5 C27_5 1_555 1_555
H16_5 C29_5 1_555 1_555
O18_5 C31_5 1_555 1_555
O10_5 C31_5 1_555 1_555
C31_5 C32_5 1_555 1_555
C32_5 C33_5 1_555 1_555
C33_5 H17_5 1_555 1_555
C34_5 C33_5 1_555 1_555
C35_5 C34_5 1_555 1_555
C36_5 C35_5 1_555 1_555
H18_5 C36_5 1_555 1_555
C37_5 C32_5 1_555 1_555
H19_5 C37_5 1_555 1_555
C38_5 C35_5 1_555 1_555
H20_5 C38_5 1_555 1_555
C39_5 C38_5 1_555 1_555
C40_5 C39_5 1_555 1_555
H21_5 C40_5 1_555 1_555
C41_5 C34_5 1_555 1_555
H22_5 C41_5 1_555 1_555
C42_5 C28_5 1_555 1_555
C43_5 C30_5 1_555 1_555
H23_5 C43_5 1_555 1_555
Zr7_3 O7_4 1_555 1_555
Zr12_2 O10_5 1_555 1_555
Zr10_4 O8_5 1_555 1_555
C21_5 C22_5 1_555 1_555
C25_5 C26_5 1_555 1_555
C29_5 C30_5 1_555 1_555
C36_5 C37_5 1_555 1_555
C39_5 C42_5 1_555 1_555
C40_5 C41_5 1_555 1_555
C42_5 C43_5 1_555 1_555
Zr7_3 O1_6 1_555 1_555
O1_6 C1_6 1_555 1_555
O20_3 C1_6 1_555 1_555
C1_6 C2_6 1_555 1_555
C2_6 C3_6 1_555 1_555
C3_6 H1_6 1_555 1_555
C4_6 C3_6 1_555 1_555
C5_6 C4_6 1_555 1_555
C6_6 C5_6 1_555 1_555
H2_6 C6_6 1_555 1_555
C7_6 C2_6 1_555 1_555
H3_6 C7_6 1_555 1_555
C8_6 C5_6 1_555 1_555
H4_6 C8_6 1_555 1_555
C9_6 C8_6 1_555 1_555
C10_6 C9_6 1_555 1_555
H5_6 C10_6 1_555 1_555
C11_6 C4_6 1_555 1_555
H6_6 C11_6 1_555 1_555
C12_6 C9_6 1_555 1_555
C13_6 C12_6 1_555 1_555
H7_6 C13_6 1_555 1_555
C14_6 C12_6 1_555 1_555
H8_6 C14_6 1_555 1_555
C15_6 C14_6 1_555 1_555
O19_2 C44_6 1_555 1_555
O22 C44_6 1_555 1_555
C44_6 C45_6 1_555 1_555
C45_6 C46_6 1_555 1_555
C46_6 H24_6 1_555 1_555
C47_6 C46_6 1_555 1_555
C48_6 C47_6 1_555 1_555
C49_6 C48_6 1_555 1_555
H25_6 C49_6 1_555 1_555
C50_6 C45_6 1_555 1_555
H26_6 C50_6 1_555 1_555
C51_6 C48_6 1_555 1_555
H27_6 C51_6 1_555 1_555
C52_6 C51_6 1_555 1_555
C53_6 C52_6 1_555 1_555
H28_6 C53_6 1_555 1_555
C54_6 C47_6 1_555 1_555
H29_6 C54_6 1_555 1_555
C55_6 C13_6 1_555 1_555
C56_6 C15_6 1_555 1_555
H30_6 C56_6 1_555 1_555
O18_6 Zr7_3 1_555 1_555
O23_6 Zr7_3 1_555 1_555
C6_6 C7_6 1_555 1_555
C10_6 C11_6 1_555 1_555
C49_6 C50_6 1_555 1_555
C52_6 C55_6 1_555 1_555
C53_6 C54_6 1_555 1_555
C55_6 C56_6 1_555 1_555
Zr12_3 O23_6 1_555 1_555
Zr10_4 O23_6 1_555 1_555
O17_2 C16_6 1_555 1_555
O8_6 C16_6 1_555 1_555
C16_6 C17_6 1_555 1_555
C17_6 C18_6 1_555 1_555
C18_6 H9_6 1_555 1_555
C19_6 C18_6 1_555 1_555
C20_6 C19_6 1_555 1_555
C21_6 C20_6 1_555 1_555
H10_6 C21_6 1_555 1_555
C22_6 C17_6 1_555 1_555
H11_6 C22_6 1_555 1_555
C23_6 C20_6 1_555 1_555
H12_6 C23_6 1_555 1_555
C24_6 C23_6 1_555 1_555
C25_6 C24_6 1_555 1_555
H13_6 C25_6 1_555 1_555
C26_6 C19_6 1_555 1_555
H14_6 C26_6 1_555 1_555
C27_6 C24_6 1_555 1_555
C28_6 C27_6 1_555 1_555
H15_6 C28_6 1_555 1_555
C29_6 C27_6 1_555 1_555
H16_6 C29_6 1_555 1_555
O18_6 C31_6 1_555 1_555
O10_6 C31_6 1_555 1_555
C31_6 C32_6 1_555 1_555
C32_6 C33_6 1_555 1_555
C33_6 H17_6 1_555 1_555
C34_6 C33_6 1_555 1_555
C35_6 C34_6 1_555 1_555
C36_6 C35_6 1_555 1_555
H18_6 C36_6 1_555 1_555
C37_6 C32_6 1_555 1_555
H19_6 C37_6 1_555 1_555
C38_6 C35_6 1_555 1_555
H20_6 C38_6 1_555 1_555
C39_6 C38_6 1_555 1_555
C40_6 C39_6 1_555 1_555
H21_6 C40_6 1_555 1_555
C41_6 C34_6 1_555 1_555
H22_6 C41_6 1_555 1_555
C42_6 C28_6 1_555 1_555
C43_6 C30_6 1_555 1_555
H23_6 C43_6 1_555 1_555
Zr12_3 O10_6 1_555 1_555
Zr10 O8_6 1_555 1_555
C21_6 C22_6 1_555 1_555
C25_6 C26_6 1_555 1_555
C29_6 C30_6 1_555 1_555
C36_6 C37_6 1_555 1_555
C39_6 C42_6 1_555 1_555
C40_6 C41_6 1_555 1_555
C42_6 C43_6 1_555 1_555
O3_6 Zr10 1_555 1_555
O4_6 Zr10 1_555 1_555
O13_6 Zr11 1_555 1_555
O14_6 Zr11 1_555 1_555
O3_7 Zr10_4 1_555 1_555
O4_7 Zr10_4 1_555 1_555
O13_7 Zr12_3 1_555 1_555
O14_7 Zr12_3 1_555 1_555
O3_8 Zr10_5 1_555 1_555
O4_8 Zr10_5 1_555 1_555
O13_8 Zr12_4 1_555 1_555
O14_8 Zr12_4 1_555 1_555
O3_9 Zr10_2 1_555 1_555
O4_9 Zr10_2 1_555 1_555
O13_9 Zr12 1_555 1_555
O14_9 Zr12 1_555 1_555
O3_10 Zr10_3 1_555 1_555
O4_10 Zr10_3 1_555 1_555
O13_10 Zr12_2 1_555 1_555
O14_10 Zr12_2 1_555 1_555

#END
