
###############################################################################
#
# This file contains modified crystal structure data generated from the
# MOF subset of the Cambridge Structural Database (CSD) v543 
# hosted by the Cambridge Crystallographic Data Centre (CCDC).
#
# This work is licensed under the Creative Commons
# Attribution-NonCommercial-ShareAlike 4.0 International License.
# To view a copy of this license, visit
# http://creativecommons.org/licenses/by-nc-sa/4.0/
# or send a letter to
# Creative Commons, PO Box 1866, Mountain View, CA 94042, USA.
#
# CIF created using the CSD Python API on 29 September 2022
# The structure has been converted into the P1 space group
# The structure has a 3D framework
# The original CSD entry IPAQUO is in the tetragonal crystal system
# The framework has been calculated to contain at least 10.0% void space
# The void calculation uses a probe of radius 1.32A, grid spacing 0.4
# H atom positions have been added when not included in the experimental data
# Generated hydrogen atom positions removed from atoms on special positions
#
###############################################################################

data_IPAQUO
_chemical_formula_moiety         '(C248 H304 O72 Zr22)n'
_symmetry_cell_setting           triclinic
_symmetry_space_group_name_H-M   'P 1'
_symmetry_Int_Tables_number      1
_space_group_name_Hall           'P 1'
loop_
_symmetry_equiv_pos_site_id
_symmetry_equiv_pos_as_xyz
1 x,y,z
_cell_length_a                   22.3176(5)
_cell_length_b                   22.3176(5)
_cell_length_c                   38.8607(8)
_cell_angle_alpha                90
_cell_angle_beta                 90
_cell_angle_gamma                90
_cell_volume                     19355.6
loop_
_atom_site_label
_atom_site_type_symbol
_atom_site_fract_x
_atom_site_fract_y
_atom_site_fract_z
Zr6 Zr 0.000000 0.000000 0.93645(2)
Zr10 Zr 0.03392(2) 0.10578(2) 0.000000
O6 O 0.41753(17) 0.47547(13) 0.59152(6)
O7 O 0.35010(14) 0.45201(15) 0.54990(8)
C18 C 0.3177(4) 0.4534(3) 0.60820(17)
C19 C 0.2640(4) 0.4311(4) 0.60138(19)
H7 H 0.257722 0.420946 0.578445
C20 C 0.2136(4) 0.4199(3) 0.62388(19)
H8 H 0.178588 0.402005 0.615996
C21 C 0.2198(4) 0.4355(4) 0.6542(2)
C22 C 0.2789(4) 0.4552(4) 0.66223(19)
C23 C 0.3290(4) 0.4657(3) 0.64126(18)
H9 H 0.365636 0.479529 0.649383
C24 C 0.2740(4) 0.4700(4) 0.6918(2)
H10 H 0.306023 0.488320 0.702912
C25 C 0.2207(4) 0.4600(4) 0.7095(2)
H11 H 0.223791 0.470405 0.732571
C26 C 0.1653(4) 0.4386(3) 0.70148(17)
C27 C 0.1597(3) 0.4227(3) 0.67007(18)
H12 H 0.125951 0.406796 0.659405
C28 C 0.1139(2) 0.4354(2) 0.72691(12)
C29 C 0.0712(2) 0.4804(2) 0.72745(10)
C30 C 0.0762(2) 0.5344(2) 0.70179(12)
C31 C 0.02312(17) 0.47688(17) 0.750000
C32 C 0.1121(2) 0.3879(2) 0.750000
C33 C 0.1633(2) 0.3367(2) 0.750000
C34 C 0.3645(3) 0.4591(2) 0.58027(17)
O8 O 0.02453(13) 0.08247(17) 0.90848(6)
O9 O 0.04799(15) 0.14990(14) 0.95010(8)
C35 C 0.0466(3) 0.1823(4) 0.89180(17)
C36 C 0.0689(4) 0.2360(4) 0.89862(19)
H13 H 0.079054 0.242278 0.921555
C37 C 0.0801(3) 0.2864(4) 0.87612(19)
H14 H 0.097995 0.321412 0.884004
C38 C 0.0645(4) 0.2802(4) 0.8458(2)
C39 C 0.0448(4) 0.2211(4) 0.83777(19)
C40 C 0.0343(3) 0.1710(4) 0.85874(18)
H15 H 0.020471 0.134364 0.850617
C41 C 0.0300(4) 0.2260(4) 0.8082(2)
H16 H 0.011680 0.193977 0.797088
C42 C 0.0400(4) 0.2793(4) 0.7905(2)
H17 H 0.029595 0.276209 0.767429
C43 C 0.0614(3) 0.3347(4) 0.79852(17)
C44 C 0.0773(3) 0.3403(3) 0.82993(18)
H18 H 0.093204 0.374049 0.840595
C45 C 0.0646(2) 0.3861(2) 0.77309(12)
C46 C 0.0196(2) 0.4288(2) 0.77255(10)
C48 C 0.0409(2) 0.1355(3) 0.91973(17)
C61 C 0.0344(2) 0.5762(2) 0.79821(12)
Zr4 Zr 0.500000 0.500000 0.56355(2)
Zr6_2 Zr 0.000000 1.000000 0.93645(2)
Zr7 Zr 0.39422(2) 0.46608(2) 0.500000
Zr10_2 Zr 0.03392(2) 0.10578(2) 1.000000
H27 H 0.0748288 0.517756 0.675459
H28 H 0.0389417 0.565052 0.705981
H29 H 0.118302 0.557891 0.706111
H38 H 0.206742 0.357139 0.755008
H39 H 0.153491 0.303888 0.769962
H40 H 0.164171 0.314569 0.72503
H45 H 0.0761603 0.578435 0.783771
H46 H 0.0294897 0.616548 0.813715
H47 H 0.0350495 0.537089 0.814963
Zr6_3 Zr 1.000000 0.000000 0.93645(2)
Zr11 Zr 0.96608(2) 0.89422(2) 0.000000
Zr2 Zr 0.60578(2) 0.53392(2) 0.500000
O1 O 0.58247(17) 0.52453(13) 0.59152(6)
O2 O 0.53493(11) 0.56839(14) 0.53088(6)
O3 O 0.6292(2) 0.6317(3) 0.500000
O4 O 0.68256(18) 0.4678(3) 0.500000
O5 O 0.64990(14) 0.54799(15) 0.54990(8)
C1 C 0.6823(4) 0.5466(3) 0.60820(17)
C2 C 0.7360(4) 0.5689(4) 0.60138(19)
H1 H 0.742278 0.579054 0.578445
C3 C 0.7864(4) 0.5801(3) 0.62388(19)
H2 H 0.821412 0.597995 0.615996
C4 C 0.7802(4) 0.5645(4) 0.6542(2)
C5 C 0.7211(4) 0.5448(4) 0.66223(19)
C6 C 0.6710(4) 0.5343(3) 0.64126(18)
H3 H 0.634364 0.520471 0.649383
C7 C 0.7260(4) 0.5300(4) 0.6918(2)
H4 H 0.693977 0.511680 0.702912
C8 C 0.7793(4) 0.5400(4) 0.7095(2)
H5 H 0.776209 0.529595 0.732571
C9 C 0.8347(4) 0.5614(3) 0.70148(17)
C10 C 0.8403(3) 0.5773(3) 0.67007(18)
H6 H 0.874049 0.593204 0.659405
C11 C 0.8861(2) 0.5646(2) 0.72691(12)
C12 C 0.9288(2) 0.5196(2) 0.72745(10)
C13 C 0.9238(2) 0.4656(2) 0.70179(12)
C14 C 0.97688(17) 0.52312(17) 0.750000
C15 C 0.8879(2) 0.6121(2) 0.750000
C16 C 0.8367(2) 0.6633(2) 0.750000
C17 C 0.6355(3) 0.5409(2) 0.58027(17)
C47 C 0.9656(2) 0.4238(2) 0.79821(12)
O10 O 0.97547(13) 0.91753(17) 0.90848(6)
O11 O 0.95201(15) 0.85010(14) 0.95010(8)
C49 C 0.9534(3) 0.8177(4) 0.89180(17)
C50 C 0.9311(4) 0.7640(4) 0.89862(19)
H19 H 0.920946 0.757722 0.921555
C51 C 0.9199(3) 0.7136(4) 0.87612(19)
H20 H 0.902005 0.678588 0.884004
C52 C 0.9355(4) 0.7198(4) 0.8458(2)
C53 C 0.9552(4) 0.7789(4) 0.83777(19)
C54 C 0.9657(3) 0.8290(4) 0.85874(18)
H21 H 0.979529 0.865636 0.850617
C55 C 0.9700(4) 0.7740(4) 0.8082(2)
H22 H 0.988320 0.806023 0.797088
C56 C 0.9600(4) 0.7207(4) 0.7905(2)
H23 H 0.970405 0.723791 0.767429
C57 C 0.9386(3) 0.6653(4) 0.79852(17)
C58 C 0.9227(3) 0.6597(3) 0.82993(18)
H24 H 0.906796 0.625951 0.840595
C59 C 0.9354(2) 0.6139(2) 0.77309(12)
C60 C 0.9804(2) 0.5712(2) 0.77255(10)
C62 C 0.9591(2) 0.8645(3) 0.91973(17)
O12 O 0.46507(11) 0.43161(14) 0.53088(6)
O13 O 0.3708(2) 0.3683(3) 0.500000
O14 O 0.31744(18) 0.5322(3) 0.500000
O15 O 0.56839(14) 0.46507(11) 0.53088(6)
O16 O 0.43161(14) 0.53493(11) 0.53088(6)
Zr6_4 Zr 1.000000 1.000000 0.93645(2)
Zr8 Zr 0.46608(2) 0.60578(2) 0.500000
Zr9 Zr 0.53392(2) 0.39422(2) 0.500000
Zr11_2 Zr 0.96608(2) 0.89422(2) 1.000000
O18 O 0.47547(13) 0.58247(17) 0.59152(6)
O19 O 0.52453(13) 0.41753(17) 0.59152(6)
O20 O 0.46507(11) 0.43161(14) 0.46912(6)
O21 O 0.53493(11) 0.56839(14) 0.46912(6)
O22 O 0.56839(14) 0.46507(11) 0.46912(6)
O23 O 0.43161(14) 0.53493(11) 0.46912(6)
O25 O 0.35010(14) 0.45201(15) 0.45010(8)
O26 O 0.64990(14) 0.54799(15) 0.45010(8)
H30 H 0.793258 0.642861 0.755008
H31 H 0.846509 0.696112 0.769962
H32 H 0.835829 0.685431 0.72503
H33 H 0.925171 0.482244 0.675459
H34 H 0.961058 0.434948 0.705981
H35 H 0.881698 0.442109 0.706111
H48 H 0.92384 0.421565 0.783771
H49 H 0.97051 0.383452 0.813715
H50 H 0.96495 0.462911 0.814963
Zr10_3 Zr 0.89422(2) 0.03392(2) 0.000000
O7_2 O 0.54799(15) 0.35010(14) 0.54990(8)
C18_2 C 0.5466(3) 0.3177(4) 0.60820(17)
C19_2 C 0.5689(4) 0.2640(4) 0.60138(19)
H7_2 H 0.579054 0.257722 0.578445
C20_2 C 0.5801(3) 0.2136(4) 0.62388(19)
H8_2 H 0.597995 0.178588 0.615996
C21_2 C 0.5645(4) 0.2198(4) 0.6542(2)
C22_2 C 0.5448(4) 0.2789(4) 0.66223(19)
C23_2 C 0.5343(3) 0.3290(4) 0.64126(18)
H9_2 H 0.520471 0.365636 0.649383
C24_2 C 0.5300(4) 0.2740(4) 0.6918(2)
H10_2 H 0.511680 0.306023 0.702912
C25_2 C 0.5400(4) 0.2207(4) 0.7095(2)
H11_2 H 0.529595 0.223791 0.732571
C26_2 C 0.5614(3) 0.1653(4) 0.70148(17)
C27_2 C 0.5773(3) 0.1597(3) 0.67007(18)
H12_2 H 0.593204 0.125951 0.659405
C28_2 C 0.5646(2) 0.1139(2) 0.72691(12)
C29_2 C 0.5196(2) 0.0712(2) 0.72745(10)
C30_2 C 0.4656(2) 0.0762(2) 0.70179(12)
C31_2 C 0.52312(17) 0.02312(17) 0.750000
C32_2 C 0.6121(2) 0.1121(2) 0.750000
C33_2 C 0.6633(2) 0.1633(2) 0.750000
C34_2 C 0.5409(2) 0.3645(3) 0.58027(17)
O8_2 O 0.91753(17) 0.02453(13) 0.90848(6)
O9_2 O 0.85010(14) 0.04799(15) 0.95010(8)
C35_2 C 0.8177(4) 0.0466(3) 0.89180(17)
C36_2 C 0.7640(4) 0.0689(4) 0.89862(19)
H13_2 H 0.757722 0.079054 0.921555
C37_2 C 0.7136(4) 0.0801(3) 0.87612(19)
H14_2 H 0.678588 0.097995 0.884004
C38_2 C 0.7198(4) 0.0645(4) 0.8458(2)
C39_2 C 0.7789(4) 0.0448(4) 0.83777(19)
C40_2 C 0.8290(4) 0.0343(3) 0.85874(18)
H15_2 H 0.865636 0.020471 0.850617
C41_2 C 0.7740(4) 0.0300(4) 0.8082(2)
H16_2 H 0.806023 0.011680 0.797088
C42_2 C 0.7207(4) 0.0400(4) 0.7905(2)
H17_2 H 0.723791 0.029595 0.767429
C43_2 C 0.6653(4) 0.0614(3) 0.79852(17)
C44_2 C 0.6597(3) 0.0773(3) 0.82993(18)
H18_2 H 0.625951 0.093204 0.840595
C45_2 C 0.6139(2) 0.0646(2) 0.77309(12)
C46_2 C 0.5712(2) 0.0196(2) 0.77255(10)
C48_2 C 0.8645(3) 0.0409(2) 0.91973(17)
C61_2 C 0.4238(2) 0.0344(2) 0.79821(12)
Zr10_4 Zr 0.89422(2) 0.03392(2) 1.000000
H27_2 H 0.482244 0.0748288 0.675459
H28_2 H 0.434948 0.0389417 0.705981
H29_2 H 0.442109 0.118302 0.706111
H38_2 H 0.642861 0.206742 0.755008
H39_2 H 0.696112 0.153491 0.769962
H40_2 H 0.685431 0.164171 0.72503
H45_2 H 0.421565 0.0761603 0.783771
H46_2 H 0.383452 0.0294897 0.813715
H47_2 H 0.462911 0.0350495 0.814963
Zr11_3 Zr 0.10578(2) 0.96608(2) 0.000000
O3_2 O 0.3683(3) 0.6292(2) 0.500000
O4_2 O 0.5322(3) 0.68256(18) 0.500000
O5_2 O 0.45201(15) 0.64990(14) 0.54990(8)
C1_2 C 0.4534(3) 0.6823(4) 0.60820(17)
C2_2 C 0.4311(4) 0.7360(4) 0.60138(19)
H1_2 H 0.420946 0.742278 0.578445
C3_2 C 0.4199(3) 0.7864(4) 0.62388(19)
H2_2 H 0.402005 0.821412 0.615996
C4_2 C 0.4355(4) 0.7802(4) 0.6542(2)
C5_2 C 0.4552(4) 0.7211(4) 0.66223(19)
C6_2 C 0.4657(3) 0.6710(4) 0.64126(18)
H3_2 H 0.479529 0.634364 0.649383
C7_2 C 0.4700(4) 0.7260(4) 0.6918(2)
H4_2 H 0.488320 0.693977 0.702912
C8_2 C 0.4600(4) 0.7793(4) 0.7095(2)
H5_2 H 0.470405 0.776209 0.732571
C9_2 C 0.4386(3) 0.8347(4) 0.70148(17)
C10_2 C 0.4227(3) 0.8403(3) 0.67007(18)
H6_2 H 0.406796 0.874049 0.659405
C11_2 C 0.4354(2) 0.8861(2) 0.72691(12)
C12_2 C 0.4804(2) 0.9288(2) 0.72745(10)
C13_2 C 0.5344(2) 0.9238(2) 0.70179(12)
C14_2 C 0.47688(17) 0.97688(17) 0.750000
C15_2 C 0.3879(2) 0.8879(2) 0.750000
C16_2 C 0.3367(2) 0.8367(2) 0.750000
C17_2 C 0.4591(2) 0.6355(3) 0.58027(17)
C47_2 C 0.5762(2) 0.9656(2) 0.79821(12)
O10_2 O 0.08247(17) 0.97547(13) 0.90848(6)
O11_2 O 0.14990(14) 0.95201(15) 0.95010(8)
C49_2 C 0.1823(4) 0.9534(3) 0.89180(17)
C50_2 C 0.2360(4) 0.9311(4) 0.89862(19)
H19_2 H 0.242278 0.920946 0.921555
C51_2 C 0.2864(4) 0.9199(3) 0.87612(19)
H20_2 H 0.321412 0.902005 0.884004
C52_2 C 0.2802(4) 0.9355(4) 0.8458(2)
C53_2 C 0.2211(4) 0.9552(4) 0.83777(19)
C54_2 C 0.1710(4) 0.9657(3) 0.85874(18)
H21_2 H 0.134364 0.979529 0.850617
C55_2 C 0.2260(4) 0.9700(4) 0.8082(2)
H22_2 H 0.193977 0.988320 0.797088
C56_2 C 0.2793(4) 0.9600(4) 0.7905(2)
H23_2 H 0.276209 0.970405 0.767429
C57_2 C 0.3347(4) 0.9386(3) 0.79852(17)
C58_2 C 0.3403(3) 0.9227(3) 0.82993(18)
H24_2 H 0.374049 0.906796 0.840595
C59_2 C 0.3861(2) 0.9354(2) 0.77309(12)
C60_2 C 0.4288(2) 0.9804(2) 0.77255(10)
C62_2 C 0.1355(3) 0.9591(2) 0.91973(17)
O13_2 O 0.6317(3) 0.3708(2) 0.500000
O14_2 O 0.4678(3) 0.31744(18) 0.500000
Zr11_4 Zr 0.10578(2) 0.96608(2) 1.000000
O25_2 O 0.54799(15) 0.35010(14) 0.45010(8)
O26_2 O 0.45201(15) 0.64990(14) 0.45010(8)
H30_2 H 0.357139 0.793258 0.755008
H31_2 H 0.303888 0.846509 0.769962
H32_2 H 0.314569 0.835829 0.72503
H33_2 H 0.517756 0.925171 0.675459
H34_2 H 0.565052 0.961058 0.705981
H35_2 H 0.557891 0.881698 0.706111
H48_2 H 0.578435 0.92384 0.783771
H49_2 H 0.616548 0.97051 0.813715
H50_2 H 0.537089 0.96495 0.814963
O14_3 O 0.18256(18) 0.0322(3) 0.000000
O23_2 O 0.06839(14) 0.03493(11) 0.03088(6)
H42 H 0.203389 0.0307415 0.0225645
O14_4 O 0.18256(18) 0.0322(3) 1.000000
O16_2 O 0.06839(14) 0.03493(11) 0.96912(6)
H41 H 0.166799 0.0732301 0.996027
O13_3 O 0.1292(2) 0.8683(3) 0.000000
O20_2 O 0.03493(11) 0.93161(14) 0.03088(6)
O25_3 O 0.14990(14) 0.95201(15) 0.04990(8)
H44 H 0.166092 0.861885 0.0138015
O12_2 O 0.03493(11) 0.93161(14) 0.96912(6)
O13_4 O 0.1292(2) 0.8683(3) 1.000000
H43 H 0.136176 0.85472 0.975998
O3_3 O 0.8708(2) 0.1317(3) 0.000000
O21_2 O 0.96507(11) 0.06839(14) 0.03088(6)
O26_3 O 0.85010(14) 0.04799(15) 0.04990(8)
H26 H 0.833908 0.138115 0.0138015
O2_2 O 0.96507(11) 0.06839(14) 0.96912(6)
O3_4 O 0.8708(2) 0.1317(3) 1.000000
H25 H 0.863824 0.14528 0.975998
H27_3 H 0.425171 0.0177557 0.824541
H28_3 H 0.461058 0.0650525 0.794019
H29_3 H 0.381698 0.0578915 0.793889
H30_3 H 0.706742 0.142861 0.744992
H31_3 H 0.653491 0.196112 0.730038
H32_3 H 0.664171 0.185431 0.77497
H45_3 H 0.42384 0.0784346 0.716229
H46_3 H 0.47051 0.116548 0.686285
H47_3 H 0.46495 0.0370893 0.685037
O4_3 O 0.81744(18) 0.9678(3) 0.000000
O22_2 O 0.93161(14) 0.96507(11) 0.03088(6)
H37 H 0.796611 0.969259 0.0225645
O4_4 O 0.81744(18) 0.9678(3) 1.000000
O15_2 O 0.93161(14) 0.96507(11) 0.96912(6)
H33_3 H 0.574829 0.982244 0.824541
H34_3 H 0.538942 0.934948 0.794019
H35_3 H 0.618302 0.942109 0.793889
H36 H 0.833201 0.92677 0.996027
H38_3 H 0.293258 0.857139 0.744992
H39_3 H 0.346509 0.803888 0.730038
H40_3 H 0.335829 0.814569 0.77497
H48_3 H 0.57616 0.921565 0.716229
H49_3 H 0.52949 0.883452 0.686285
H50_3 H 0.53505 0.962911 0.685037
O3_5 O 0.1317(3) 0.1292(2) 0.000000
O26_4 O 0.04799(15) 0.14990(14) 0.04990(8)
H26_2 H 0.138115 0.166092 0.0138015
O3_6 O 0.1317(3) 0.1292(2) 1.000000
H25_2 H 0.14528 0.136176 0.975998
H27_4 H 0.0177557 0.574829 0.824541
H28_4 H 0.0650525 0.538942 0.794019
H29_4 H 0.0578915 0.618302 0.793889
H30_4 H 0.142861 0.293258 0.744992
H31_4 H 0.196112 0.346509 0.730038
H32_4 H 0.185431 0.335829 0.77497
H45_4 H 0.0784346 0.57616 0.716229
H46_4 H 0.116548 0.52949 0.686285
H47_4 H 0.0370893 0.53505 0.685037
O14_5 O 0.0322(3) 0.81744(18) 0.000000
H42_2 H 0.0307415 0.796611 0.0225645
O14_6 O 0.0322(3) 0.81744(18) 1.000000
H41_2 H 0.0732301 0.833201 0.996027
O4_5 O 0.9678(3) 0.18256(18) 0.000000
H37_2 H 0.969259 0.203389 0.0225645
O4_6 O 0.9678(3) 0.18256(18) 1.000000
H33_4 H 0.982244 0.425171 0.824541
H34_4 H 0.934948 0.461058 0.794019
H35_4 H 0.942109 0.381698 0.793889
H36_2 H 0.92677 0.166799 0.996027
H38_4 H 0.857139 0.706742 0.744992
H39_4 H 0.803888 0.653491 0.730038
H40_4 H 0.814569 0.664171 0.77497
H48_4 H 0.921565 0.42384 0.716229
H49_4 H 0.883452 0.47051 0.686285
H50_4 H 0.962911 0.46495 0.685037
O13_5 O 0.8683(3) 0.8708(2) 0.000000
O25_4 O 0.95201(15) 0.85010(14) 0.04990(8)
H44_2 H 0.861885 0.833908 0.0138015
O13_6 O 0.8683(3) 0.8708(2) 1.000000
H43_2 H 0.85472 0.863824 0.975998
Zr5 Zr -0.000000 -0.000000 0.06355(2)
Zr1 Zr 0.500000 0.500000 0.43645(2)
O1_2 O 0.41753(17) 0.47547(13) 0.40848(6)
C1_3 C 0.3177(4) 0.4534(3) 0.39180(17)
C2_3 C 0.2640(4) 0.4311(4) 0.39862(19)
H1_3 H 0.257722 0.420946 0.421555
C3_3 C 0.2136(4) 0.4199(3) 0.37612(19)
H2_3 H 0.178588 0.402005 0.384004
C4_3 C 0.2198(4) 0.4355(4) 0.3458(2)
C5_3 C 0.2789(4) 0.4552(4) 0.33777(19)
C6_3 C 0.3290(4) 0.4657(3) 0.35874(18)
H3_3 H 0.365636 0.479529 0.350617
C7_3 C 0.2740(4) 0.4700(4) 0.3082(2)
H4_3 H 0.306023 0.488320 0.297088
C8_3 C 0.2207(4) 0.4600(4) 0.2905(2)
H5_3 H 0.223791 0.470405 0.267429
C9_3 C 0.1653(4) 0.4386(3) 0.29852(17)
C10_3 C 0.1597(3) 0.4227(3) 0.32993(18)
H6_3 H 0.125951 0.406796 0.340595
C11_3 C 0.1139(2) 0.4354(2) 0.27309(12)
C12_3 C 0.0712(2) 0.4804(2) 0.27255(10)
C13_3 C 0.0762(2) 0.5344(2) 0.29821(12)
C14_3 C 0.02312(17) 0.47688(17) 0.250000
C15_3 C 0.1121(2) 0.3879(2) 0.250000
C16_3 C 0.1633(2) 0.3367(2) 0.250000
C17_3 C 0.3645(3) 0.4591(2) 0.41973(17)
C47_3 C 0.0344(2) 0.5762(2) 0.20179(12)
O10_3 O 0.02453(13) 0.08247(17) 0.09152(6)
C49_3 C 0.0466(3) 0.1823(4) 0.10820(17)
C50_3 C 0.0689(4) 0.2360(4) 0.10138(19)
H19_3 H 0.079054 0.242278 0.078445
C51_3 C 0.0801(3) 0.2864(4) 0.12388(19)
H20_3 H 0.097995 0.321412 0.115996
C52_3 C 0.0645(4) 0.2802(4) 0.1542(2)
C53_3 C 0.0448(4) 0.2211(4) 0.16223(19)
C54_3 C 0.0343(3) 0.1710(4) 0.14126(18)
H21_3 H 0.020471 0.134364 0.149383
C55_3 C 0.0300(4) 0.2260(4) 0.1918(2)
H22_3 H 0.011680 0.193977 0.202912
C56_3 C 0.0400(4) 0.2793(4) 0.2095(2)
H23_3 H 0.029595 0.276209 0.232571
C57_3 C 0.0614(3) 0.3347(4) 0.20148(17)
C58_3 C 0.0773(3) 0.3403(3) 0.17007(18)
H24_3 H 0.093204 0.374049 0.159405
C59_3 C 0.0646(2) 0.3861(2) 0.22691(12)
C60_3 C 0.0196(2) 0.4288(2) 0.22745(10)
C62_3 C 0.0409(2) 0.1355(3) 0.08027(17)
Zr5_2 Zr -0.000000 1.000000 0.06355(2)
O17 O 0.58247(17) 0.52453(13) 0.40848(6)
O18_2 O 0.52453(13) 0.41753(17) 0.40848(6)
O19_2 O 0.47547(13) 0.58247(17) 0.40848(6)
H30_5 H 0.206742 0.357139 0.244992
H31_5 H 0.153491 0.303888 0.230038
H32_5 H 0.164171 0.314569 0.27497
H33_5 H 0.0748288 0.517756 0.324541
H34_5 H 0.0389417 0.565052 0.294019
H35_5 H 0.118302 0.557891 0.293889
H48_5 H 0.0761603 0.578435 0.216229
H49_5 H 0.0294897 0.616548 0.186285
H50_5 H 0.0350495 0.537089 0.185037
Zr5_3 Zr 1.000000 -0.000000 0.06355(2)
C18_3 C 0.6823(4) 0.5466(3) 0.39180(17)
C19_3 C 0.7360(4) 0.5689(4) 0.39862(19)
H7_3 H 0.742278 0.579054 0.421555
C20_3 C 0.7864(4) 0.5801(3) 0.37612(19)
H8_3 H 0.821412 0.597995 0.384004
C21_3 C 0.7802(4) 0.5645(4) 0.3458(2)
C22_3 C 0.7211(4) 0.5448(4) 0.33777(19)
C23_3 C 0.6710(4) 0.5343(3) 0.35874(18)
H9_3 H 0.634364 0.520471 0.350617
C24_3 C 0.7260(4) 0.5300(4) 0.3082(2)
H10_3 H 0.693977 0.511680 0.297088
C25_3 C 0.7793(4) 0.5400(4) 0.2905(2)
H11_3 H 0.776209 0.529595 0.267429
C26_3 C 0.8347(4) 0.5614(3) 0.29852(17)
C27_3 C 0.8403(3) 0.5773(3) 0.32993(18)
H12_3 H 0.874049 0.593204 0.340595
C28_3 C 0.8861(2) 0.5646(2) 0.27309(12)
C29_3 C 0.9288(2) 0.5196(2) 0.27255(10)
C30_3 C 0.9238(2) 0.4656(2) 0.29821(12)
C31_3 C 0.97688(17) 0.52312(17) 0.250000
C32_3 C 0.8879(2) 0.6121(2) 0.250000
C33_3 C 0.8367(2) 0.6633(2) 0.250000
C34_3 C 0.6355(3) 0.5409(2) 0.41973(17)
O8_3 O 0.97547(13) 0.91753(17) 0.09152(6)
C35_3 C 0.9534(3) 0.8177(4) 0.10820(17)
C36_3 C 0.9311(4) 0.7640(4) 0.10138(19)
H13_3 H 0.920946 0.757722 0.078445
C37_3 C 0.9199(3) 0.7136(4) 0.12388(19)
H14_3 H 0.902005 0.678588 0.115996
C38_3 C 0.9355(4) 0.7198(4) 0.1542(2)
C39_3 C 0.9552(4) 0.7789(4) 0.16223(19)
C40_3 C 0.9657(3) 0.8290(4) 0.14126(18)
H15_3 H 0.979529 0.865636 0.149383
C41_3 C 0.9700(4) 0.7740(4) 0.1918(2)
H16_3 H 0.988320 0.806023 0.202912
C42_3 C 0.9600(4) 0.7207(4) 0.2095(2)
H17_3 H 0.970405 0.723791 0.232571
C43_3 C 0.9386(3) 0.6653(4) 0.20148(17)
C44_3 C 0.9227(3) 0.6597(3) 0.17007(18)
H18_3 H 0.906796 0.625951 0.159405
C45_3 C 0.9354(2) 0.6139(2) 0.22691(12)
C46_3 C 0.9804(2) 0.5712(2) 0.22745(10)
C48_3 C 0.9591(2) 0.8645(3) 0.08027(17)
C61_3 C 0.9656(2) 0.4238(2) 0.20179(12)
Zr5_4 Zr 1.000000 1.000000 0.06355(2)
H27_5 H 0.925171 0.482244 0.324541
H28_5 H 0.961058 0.434948 0.294019
H29_5 H 0.881698 0.442109 0.293889
H38_5 H 0.793258 0.642861 0.244992
H39_5 H 0.846509 0.696112 0.230038
H40_5 H 0.835829 0.685431 0.27497
H45_5 H 0.92384 0.421565 0.216229
H46_5 H 0.97051 0.383452 0.186285
H47_5 H 0.96495 0.462911 0.185037
C1_4 C 0.5466(3) 0.3177(4) 0.39180(17)
C2_4 C 0.5689(4) 0.2640(4) 0.39862(19)
H1_4 H 0.579054 0.257722 0.421555
C3_4 C 0.5801(3) 0.2136(4) 0.37612(19)
H2_4 H 0.597995 0.178588 0.384004
C4_4 C 0.5645(4) 0.2198(4) 0.3458(2)
C5_4 C 0.5448(4) 0.2789(4) 0.33777(19)
C6_4 C 0.5343(3) 0.3290(4) 0.35874(18)
H3_4 H 0.520471 0.365636 0.350617
C7_4 C 0.5300(4) 0.2740(4) 0.3082(2)
H4_4 H 0.511680 0.306023 0.297088
C8_4 C 0.5400(4) 0.2207(4) 0.2905(2)
H5_4 H 0.529595 0.223791 0.267429
C9_4 C 0.5614(3) 0.1653(4) 0.29852(17)
C10_4 C 0.5773(3) 0.1597(3) 0.32993(18)
H6_4 H 0.593204 0.125951 0.340595
C11_4 C 0.5646(2) 0.1139(2) 0.27309(12)
C12_4 C 0.5196(2) 0.0712(2) 0.27255(10)
C13_4 C 0.4656(2) 0.0762(2) 0.29821(12)
C14_4 C 0.52312(17) 0.02312(17) 0.250000
C15_4 C 0.6121(2) 0.1121(2) 0.250000
C16_4 C 0.6633(2) 0.1633(2) 0.250000
C17_4 C 0.5409(2) 0.3645(3) 0.41973(17)
C47_4 C 0.4238(2) 0.0344(2) 0.20179(12)
O10_4 O 0.91753(17) 0.02453(13) 0.09152(6)
C49_4 C 0.8177(4) 0.0466(3) 0.10820(17)
C50_4 C 0.7640(4) 0.0689(4) 0.10138(19)
H19_4 H 0.757722 0.079054 0.078445
C51_4 C 0.7136(4) 0.0801(3) 0.12388(19)
H20_4 H 0.678588 0.097995 0.115996
C52_4 C 0.7198(4) 0.0645(4) 0.1542(2)
C53_4 C 0.7789(4) 0.0448(4) 0.16223(19)
C54_4 C 0.8290(4) 0.0343(3) 0.14126(18)
H21_4 H 0.865636 0.020471 0.149383
C55_4 C 0.7740(4) 0.0300(4) 0.1918(2)
H22_4 H 0.806023 0.011680 0.202912
C56_4 C 0.7207(4) 0.0400(4) 0.2095(2)
H23_4 H 0.723791 0.029595 0.232571
C57_4 C 0.6653(4) 0.0614(3) 0.20148(17)
C58_4 C 0.6597(3) 0.0773(3) 0.17007(18)
H24_4 H 0.625951 0.093204 0.159405
C59_4 C 0.6139(2) 0.0646(2) 0.22691(12)
C60_4 C 0.5712(2) 0.0196(2) 0.22745(10)
C62_4 C 0.8645(3) 0.0409(2) 0.08027(17)
H30_6 H 0.642861 0.206742 0.244992
H31_6 H 0.696112 0.153491 0.230038
H32_6 H 0.685431 0.164171 0.27497
H33_6 H 0.482244 0.0748288 0.324541
H34_6 H 0.434948 0.0389417 0.294019
H35_6 H 0.442109 0.118302 0.293889
H48_6 H 0.421565 0.0761603 0.216229
H49_6 H 0.383452 0.0294897 0.186285
H50_6 H 0.462911 0.0350495 0.185037
C18_4 C 0.4534(3) 0.6823(4) 0.39180(17)
C19_4 C 0.4311(4) 0.7360(4) 0.39862(19)
H7_4 H 0.420946 0.742278 0.421555
C20_4 C 0.4199(3) 0.7864(4) 0.37612(19)
H8_4 H 0.402005 0.821412 0.384004
C21_4 C 0.4355(4) 0.7802(4) 0.3458(2)
C22_4 C 0.4552(4) 0.7211(4) 0.33777(19)
C23_4 C 0.4657(3) 0.6710(4) 0.35874(18)
H9_4 H 0.479529 0.634364 0.350617
C24_4 C 0.4700(4) 0.7260(4) 0.3082(2)
H10_4 H 0.488320 0.693977 0.297088
C25_4 C 0.4600(4) 0.7793(4) 0.2905(2)
H11_4 H 0.470405 0.776209 0.267429
C26_4 C 0.4386(3) 0.8347(4) 0.29852(17)
C27_4 C 0.4227(3) 0.8403(3) 0.32993(18)
H12_4 H 0.406796 0.874049 0.340595
C28_4 C 0.4354(2) 0.8861(2) 0.27309(12)
C29_4 C 0.4804(2) 0.9288(2) 0.27255(10)
C30_4 C 0.5344(2) 0.9238(2) 0.29821(12)
C31_4 C 0.47688(17) 0.97688(17) 0.250000
C32_4 C 0.3879(2) 0.8879(2) 0.250000
C33_4 C 0.3367(2) 0.8367(2) 0.250000
C34_4 C 0.4591(2) 0.6355(3) 0.41973(17)
O8_4 O 0.08247(17) 0.97547(13) 0.09152(6)
C35_4 C 0.1823(4) 0.9534(3) 0.10820(17)
C36_4 C 0.2360(4) 0.9311(4) 0.10138(19)
H13_4 H 0.242278 0.920946 0.078445
C37_4 C 0.2864(4) 0.9199(3) 0.12388(19)
H14_4 H 0.321412 0.902005 0.115996
C38_4 C 0.2802(4) 0.9355(4) 0.1542(2)
C39_4 C 0.2211(4) 0.9552(4) 0.16223(19)
C40_4 C 0.1710(4) 0.9657(3) 0.14126(18)
H15_4 H 0.134364 0.979529 0.149383
C41_4 C 0.2260(4) 0.9700(4) 0.1918(2)
H16_4 H 0.193977 0.988320 0.202912
C42_4 C 0.2793(4) 0.9600(4) 0.2095(2)
H17_4 H 0.276209 0.970405 0.232571
C43_4 C 0.3347(4) 0.9386(3) 0.20148(17)
C44_4 C 0.3403(3) 0.9227(3) 0.17007(18)
H18_4 H 0.374049 0.906796 0.159405
C45_4 C 0.3861(2) 0.9354(2) 0.22691(12)
C46_4 C 0.4288(2) 0.9804(2) 0.22745(10)
C48_4 C 0.1355(3) 0.9591(2) 0.08027(17)
C61_4 C 0.5762(2) 0.9656(2) 0.20179(12)
H27_6 H 0.517756 0.925171 0.324541
H28_6 H 0.565052 0.961058 0.294019
H29_6 H 0.557891 0.881698 0.293889
H38_6 H 0.357139 0.793258 0.244992
H39_6 H 0.303888 0.846509 0.230038
H40_6 H 0.314569 0.835829 0.27497
H45_6 H 0.578435 0.92384 0.216229
H46_6 H 0.616548 0.97051 0.186285
H47_6 H 0.537089 0.96495 0.185037
H33_7 H 0.425171 0.0177557 0.175459
H34_7 H 0.461058 0.0650525 0.205981
H35_7 H 0.381698 0.0578915 0.206111
H36_3 H 0.166799 0.0732301 0.00397259
H38_7 H 0.706742 0.142861 0.255008
H39_7 H 0.653491 0.196112 0.269962
H40_7 H 0.664171 0.185431 0.22503
H48_7 H 0.42384 0.0784346 0.283771
H49_7 H 0.47051 0.116548 0.313715
H50_7 H 0.46495 0.0370893 0.314963
H37_3 H 0.203389 0.0307415 0.977436
H25_3 H 0.136176 0.85472 0.0240015
H27_7 H 0.574829 0.982244 0.175459
H28_7 H 0.538942 0.934948 0.205981
H29_7 H 0.618302 0.942109 0.206111
H30_7 H 0.293258 0.857139 0.255008
H31_7 H 0.346509 0.803888 0.269962
H32_7 H 0.335829 0.814569 0.22503
H45_7 H 0.57616 0.921565 0.283771
H46_7 H 0.52949 0.883452 0.313715
H47_7 H 0.53505 0.962911 0.314963
H26_3 H 0.166092 0.861885 0.986198
H43_3 H 0.863824 0.14528 0.0240015
H44_3 H 0.833908 0.138115 0.986198
H41_3 H 0.833201 0.92677 0.00397259
H42_3 H 0.796611 0.969259 0.977436
H43_4 H 0.14528 0.136176 0.0240015
H44_4 H 0.138115 0.166092 0.986198
H33_8 H 0.0177557 0.574829 0.175459
H34_8 H 0.0650525 0.538942 0.205981
H35_8 H 0.0578915 0.618302 0.206111
H36_4 H 0.0732301 0.833201 0.00397259
H38_8 H 0.142861 0.293258 0.255008
H39_8 H 0.196112 0.346509 0.269962
H40_8 H 0.185431 0.335829 0.22503
H48_8 H 0.0784346 0.57616 0.283771
H49_8 H 0.116548 0.52949 0.313715
H50_8 H 0.0370893 0.53505 0.314963
H37_4 H 0.0307415 0.796611 0.977436
H41_4 H 0.92677 0.166799 0.00397259
H42_4 H 0.969259 0.203389 0.977436
H25_4 H 0.85472 0.863824 0.0240015
H27_8 H 0.982244 0.425171 0.175459
H28_8 H 0.934948 0.461058 0.205981
H29_8 H 0.942109 0.381698 0.206111
H30_8 H 0.857139 0.706742 0.255008
H31_8 H 0.803888 0.653491 0.269962
H32_8 H 0.814569 0.664171 0.22503
H45_8 H 0.921565 0.42384 0.283771
H46_8 H 0.883452 0.47051 0.313715
H47_8 H 0.962911 0.46495 0.314963
H26_4 H 0.861885 0.833908 0.986198
loop_
_geom_bond_atom_site_label_1
_geom_bond_atom_site_label_2
_geom_bond_site_symmetry_1
_geom_bond_site_symmetry_2
O6 C34 1_555 1_555
O7 C34 1_555 1_555
C18 C19 1_555 1_555
C19 H7 1_555 1_555
C20 C19 1_555 1_555
H8 C20 1_555 1_555
C21 C20 1_555 1_555
C22 C21 1_555 1_555
C23 C18 1_555 1_555
H9 C23 1_555 1_555
C24 C22 1_555 1_555
H10 C24 1_555 1_555
C25 C24 1_555 1_555
H11 C25 1_555 1_555
C26 C25 1_555 1_555
C27 C21 1_555 1_555
H12 C27 1_555 1_555
C28 C26 1_555 1_555
C29 C28 1_555 1_555
C30 C29 1_555 1_555
C32 C28 1_555 1_555
C33 C32 1_555 1_555
C34 C18 1_555 1_555
O8 C48 1_555 1_555
O9 C48 1_555 1_555
C35 C36 1_555 1_555
C36 H13 1_555 1_555
C37 C36 1_555 1_555
H14 C37 1_555 1_555
C38 C37 1_555 1_555
C39 C38 1_555 1_555
C40 C35 1_555 1_555
H15 C40 1_555 1_555
C41 C39 1_555 1_555
H16 C41 1_555 1_555
C42 C41 1_555 1_555
H17 C42 1_555 1_555
C43 C42 1_555 1_555
C44 C38 1_555 1_555
H18 C44 1_555 1_555
C45 C32 1_555 1_555
C46 C31 1_555 1_555
C48 C35 1_555 1_555
Zr4 O6 1_555 1_555
Zr6 O8 1_555 1_555
Zr7 O7 1_555 1_555
Zr10_2 O9 1_555 1_555
C22 C23 1_555 1_555
C26 C27 1_555 1_555
C29 C31 1_555 1_555
C39 C40 1_555 1_555
C43 C44 1_555 1_555
C43 C45 1_555 1_555
C45 C46 1_555 1_555
C30 H27 1_555 1_555
C30 H28 1_555 1_555
C30 H29 1_555 1_555
C33 H38 1_555 1_555
C33 H39 1_555 1_555
C33 H40 1_555 1_555
C61 H45 1_555 1_555
C61 H46 1_555 1_555
C61 H47 1_555 1_555
Zr4 O1 1_555 1_555
Zr2 O2 1_555 1_555
O1 C17 1_555 1_555
O2 Zr4 1_555 1_555
O3 Zr2 1_555 1_555
O4 Zr2 1_555 1_555
O5 Zr2 1_555 1_555
C1 C2 1_555 1_555
C2 H1 1_555 1_555
C3 C2 1_555 1_555
H2 C3 1_555 1_555
C4 C3 1_555 1_555
C5 C4 1_555 1_555
C6 C1 1_555 1_555
H3 C6 1_555 1_555
C7 C5 1_555 1_555
H4 C7 1_555 1_555
C8 C7 1_555 1_555
H5 C8 1_555 1_555
C9 C8 1_555 1_555
C10 C4 1_555 1_555
H6 C10 1_555 1_555
C11 C9 1_555 1_555
C12 C11 1_555 1_555
C13 C12 1_555 1_555
C14 C12 1_555 1_555
C15 C11 1_555 1_555
C16 C15 1_555 1_555
C17 O5 1_555 1_555
O10 C62 1_555 1_555
O11 C62 1_555 1_555
C49 C50 1_555 1_555
C50 H19 1_555 1_555
C51 C50 1_555 1_555
H20 C51 1_555 1_555
C52 C51 1_555 1_555
C53 C52 1_555 1_555
C54 C49 1_555 1_555
H21 C54 1_555 1_555
C55 C53 1_555 1_555
H22 C55 1_555 1_555
C56 C55 1_555 1_555
H23 C56 1_555 1_555
C57 C56 1_555 1_555
C58 C52 1_555 1_555
H24 C58 1_555 1_555
C59 C15 1_555 1_555
C60 C14 1_555 1_555
C62 C49 1_555 1_555
Zr7 O12 1_555 1_555
O12 Zr4 1_555 1_555
O13 Zr7 1_555 1_555
O14 Zr7 1_555 1_555
O15 Zr4 1_555 1_555
O16 Zr4 1_555 1_555
Zr6_4 O10 1_555 1_555
Zr8 O2 1_555 1_555
Zr9 O12 1_555 1_555
Zr11_2 O11 1_555 1_555
O18 Zr4 1_555 1_555
O19 Zr4 1_555 1_555
O20 Zr7 1_555 1_555
O21 Zr2 1_555 1_555
O22 Zr2 1_555 1_555
O23 Zr7 1_555 1_555
O25 Zr7 1_555 1_555
O26 Zr2 1_555 1_555
Zr2 O15 1_555 1_555
C1 C17 1_555 1_555
C5 C6 1_555 1_555
C9 C10 1_555 1_555
C53 C54 1_555 1_555
C57 C58 1_555 1_555
C57 C59 1_555 1_555
C59 C60 1_555 1_555
Zr7 O16 1_555 1_555
O15 Zr9 1_555 1_555
O16 Zr8 1_555 1_555
Zr8 O21 1_555 1_555
Zr8 O23 1_555 1_555
Zr9 O20 1_555 1_555
Zr9 O22 1_555 1_555
C16 H30 1_555 1_555
C16 H31 1_555 1_555
C16 H32 1_555 1_555
C13 H33 1_555 1_555
C13 H34 1_555 1_555
C13 H35 1_555 1_555
C47 H48 1_555 1_555
C47 H49 1_555 1_555
C47 H50 1_555 1_555
O19 C34_2 1_555 1_555
O7_2 C34_2 1_555 1_555
C18_2 C19_2 1_555 1_555
C19_2 H7_2 1_555 1_555
C20_2 C19_2 1_555 1_555
H8_2 C20_2 1_555 1_555
C21_2 C20_2 1_555 1_555
C22_2 C21_2 1_555 1_555
C23_2 C18_2 1_555 1_555
H9_2 C23_2 1_555 1_555
C24_2 C22_2 1_555 1_555
H10_2 C24_2 1_555 1_555
C25_2 C24_2 1_555 1_555
H11_2 C25_2 1_555 1_555
C26_2 C25_2 1_555 1_555
C27_2 C21_2 1_555 1_555
H12_2 C27_2 1_555 1_555
C28_2 C26_2 1_555 1_555
C29_2 C28_2 1_555 1_555
C30_2 C29_2 1_555 1_555
C32_2 C28_2 1_555 1_555
C33_2 C32_2 1_555 1_555
C34_2 C18_2 1_555 1_555
O8_2 C48_2 1_555 1_555
O9_2 C48_2 1_555 1_555
C35_2 C36_2 1_555 1_555
C36_2 H13_2 1_555 1_555
C37_2 C36_2 1_555 1_555
H14_2 C37_2 1_555 1_555
C38_2 C37_2 1_555 1_555
C39_2 C38_2 1_555 1_555
C40_2 C35_2 1_555 1_555
H15_2 C40_2 1_555 1_555
C41_2 C39_2 1_555 1_555
H16_2 C41_2 1_555 1_555
C42_2 C41_2 1_555 1_555
H17_2 C42_2 1_555 1_555
C43_2 C42_2 1_555 1_555
C44_2 C38_2 1_555 1_555
H18_2 C44_2 1_555 1_555
C45_2 C32_2 1_555 1_555
C46_2 C31_2 1_555 1_555
C48_2 C35_2 1_555 1_555
Zr6_3 O8_2 1_555 1_555
Zr9 O7_2 1_555 1_555
Zr10_4 O9_2 1_555 1_555
C22_2 C23_2 1_555 1_555
C26_2 C27_2 1_555 1_555
C29_2 C31_2 1_555 1_555
C39_2 C40_2 1_555 1_555
C43_2 C44_2 1_555 1_555
C43_2 C45_2 1_555 1_555
C45_2 C46_2 1_555 1_555
C30_2 H27_2 1_555 1_555
C30_2 H28_2 1_555 1_555
C30_2 H29_2 1_555 1_555
C33_2 H38_2 1_555 1_555
C33_2 H39_2 1_555 1_555
C33_2 H40_2 1_555 1_555
C61_2 H45_2 1_555 1_555
C61_2 H46_2 1_555 1_555
C61_2 H47_2 1_555 1_555
O18 C17_2 1_555 1_555
O3_2 Zr8 1_555 1_555
O4_2 Zr8 1_555 1_555
O5_2 Zr8 1_555 1_555
C1_2 C2_2 1_555 1_555
C2_2 H1_2 1_555 1_555
C3_2 C2_2 1_555 1_555
H2_2 C3_2 1_555 1_555
C4_2 C3_2 1_555 1_555
C5_2 C4_2 1_555 1_555
C6_2 C1_2 1_555 1_555
H3_2 C6_2 1_555 1_555
C7_2 C5_2 1_555 1_555
H4_2 C7_2 1_555 1_555
C8_2 C7_2 1_555 1_555
H5_2 C8_2 1_555 1_555
C9_2 C8_2 1_555 1_555
C10_2 C4_2 1_555 1_555
H6_2 C10_2 1_555 1_555
C11_2 C9_2 1_555 1_555
C12_2 C11_2 1_555 1_555
C13_2 C12_2 1_555 1_555
C14_2 C12_2 1_555 1_555
C15_2 C11_2 1_555 1_555
C16_2 C15_2 1_555 1_555
C17_2 O5_2 1_555 1_555
O10_2 C62_2 1_555 1_555
O11_2 C62_2 1_555 1_555
C49_2 C50_2 1_555 1_555
C50_2 H19_2 1_555 1_555
C51_2 C50_2 1_555 1_555
H20_2 C51_2 1_555 1_555
C52_2 C51_2 1_555 1_555
C53_2 C52_2 1_555 1_555
C54_2 C49_2 1_555 1_555
H21_2 C54_2 1_555 1_555
C55_2 C53_2 1_555 1_555
H22_2 C55_2 1_555 1_555
C56_2 C55_2 1_555 1_555
H23_2 C56_2 1_555 1_555
C57_2 C56_2 1_555 1_555
C58_2 C52_2 1_555 1_555
H24_2 C58_2 1_555 1_555
C59_2 C15_2 1_555 1_555
C60_2 C14_2 1_555 1_555
C62_2 C49_2 1_555 1_555
O13_2 Zr9 1_555 1_555
O14_2 Zr9 1_555 1_555
Zr6_2 O10_2 1_555 1_555
Zr11_4 O11_2 1_555 1_555
O25_2 Zr9 1_555 1_555
O26_2 Zr8 1_555 1_555
C1_2 C17_2 1_555 1_555
C5_2 C6_2 1_555 1_555
C9_2 C10_2 1_555 1_555
C53_2 C54_2 1_555 1_555
C57_2 C58_2 1_555 1_555
C57_2 C59_2 1_555 1_555
C59_2 C60_2 1_555 1_555
C16_2 H30_2 1_555 1_555
C16_2 H31_2 1_555 1_555
C16_2 H32_2 1_555 1_555
C13_2 H33_2 1_555 1_555
C13_2 H34_2 1_555 1_555
C13_2 H35_2 1_555 1_555
C47_2 H48_2 1_555 1_555
C47_2 H49_2 1_555 1_555
C47_2 H50_2 1_555 1_555
Zr10 O23_2 1_555 1_555
O14_3 H42 1_555 1_555
O16_2 Zr6 1_555 1_555
O16_2 Zr10_2 1_555 1_555
O14_4 H41 1_555 1_555
O13_3 Zr11_3 1_555 1_555
O20_2 Zr11_3 1_555 1_555
O25_3 Zr11_3 1_555 1_555
O13_3 H44 1_555 1_555
Zr11_4 O12_2 1_555 1_555
O12_2 Zr6_2 1_555 1_555
O13_4 Zr11_4 1_555 1_555
O13_4 H43 1_555 1_555
O3_3 Zr10_3 1_555 1_555
O21_2 Zr10_3 1_555 1_555
O26_3 Zr10_3 1_555 1_555
O3_3 H26 1_555 1_555
Zr10_4 O2_2 1_555 1_555
O2_2 Zr6_3 1_555 1_555
O3_4 Zr10_4 1_555 1_555
O3_4 H25 1_555 1_555
C61_2 H27_3 1_555 1_555
C61_2 H28_3 1_555 1_555
C61_2 H29_3 1_555 1_555
C33_2 H30_3 1_555 1_555
C33_2 H31_3 1_555 1_555
C33_2 H32_3 1_555 1_555
C30_2 H45_3 1_555 1_555
C30_2 H46_3 1_555 1_555
C30_2 H47_3 1_555 1_555
Zr11 O22_2 1_555 1_555
O4_3 H37 1_555 1_555
O15_2 Zr6_4 1_555 1_555
O15_2 Zr11_2 1_555 1_555
C47_2 H33_3 1_555 1_555
C47_2 H34_3 1_555 1_555
C47_2 H35_3 1_555 1_555
O4_4 H36 1_555 1_555
C16_2 H38_3 1_555 1_555
C16_2 H39_3 1_555 1_555
C16_2 H40_3 1_555 1_555
C13_2 H48_3 1_555 1_555
C13_2 H49_3 1_555 1_555
C13_2 H50_3 1_555 1_555
O3_5 Zr10 1_555 1_555
O26_4 Zr10 1_555 1_555
O3_5 H26_2 1_555 1_555
O3_6 Zr10_2 1_555 1_555
O3_6 H25_2 1_555 1_555
C61 H27_4 1_555 1_555
C61 H28_4 1_555 1_555
C61 H29_4 1_555 1_555
C33 H30_4 1_555 1_555
C33 H31_4 1_555 1_555
C33 H32_4 1_555 1_555
C30 H45_4 1_555 1_555
C30 H46_4 1_555 1_555
C30 H47_4 1_555 1_555
O14_5 H42_2 1_555 1_555
O14_6 H41_2 1_555 1_555
O4_5 H37_2 1_555 1_555
C47 H33_4 1_555 1_555
C47 H34_4 1_555 1_555
C47 H35_4 1_555 1_555
O4_6 H36_2 1_555 1_555
C16 H38_4 1_555 1_555
C16 H39_4 1_555 1_555
C16 H40_4 1_555 1_555
C13 H48_4 1_555 1_555
C13 H49_4 1_555 1_555
C13 H50_4 1_555 1_555
O13_5 Zr11 1_555 1_555
O25_4 Zr11 1_555 1_555
O13_5 H44_2 1_555 1_555
O13_6 Zr11_2 1_555 1_555
O13_6 H43_2 1_555 1_555
Zr1 O1_2 1_555 1_555
O1_2 C17_3 1_555 1_555
O20 Zr1 1_555 1_555
C1_3 C2_3 1_555 1_555
C2_3 H1_3 1_555 1_555
C3_3 C2_3 1_555 1_555
H2_3 C3_3 1_555 1_555
C4_3 C3_3 1_555 1_555
C5_3 C4_3 1_555 1_555
C6_3 C1_3 1_555 1_555
H3_3 C6_3 1_555 1_555
C7_3 C5_3 1_555 1_555
H4_3 C7_3 1_555 1_555
C8_3 C7_3 1_555 1_555
H5_3 C8_3 1_555 1_555
C9_3 C8_3 1_555 1_555
C10_3 C4_3 1_555 1_555
H6_3 C10_3 1_555 1_555
C11_3 C9_3 1_555 1_555
C12_3 C11_3 1_555 1_555
C13_3 C12_3 1_555 1_555
C14_3 C12_3 1_555 1_555
C15_3 C11_3 1_555 1_555
C16_3 C15_3 1_555 1_555
C17_3 O25 1_555 1_555
O10_3 C62_3 1_555 1_555
O26_4 C62_3 1_555 1_555
C49_3 C50_3 1_555 1_555
C50_3 H19_3 1_555 1_555
C51_3 C50_3 1_555 1_555
H20_3 C51_3 1_555 1_555
C52_3 C51_3 1_555 1_555
C53_3 C52_3 1_555 1_555
C54_3 C49_3 1_555 1_555
H21_3 C54_3 1_555 1_555
C55_3 C53_3 1_555 1_555
H22_3 C55_3 1_555 1_555
C56_3 C55_3 1_555 1_555
H23_3 C56_3 1_555 1_555
C57_3 C56_3 1_555 1_555
C58_3 C52_3 1_555 1_555
H24_3 C58_3 1_555 1_555
C59_3 C15_3 1_555 1_555
C60_3 C14_3 1_555 1_555
C62_3 C49_3 1_555 1_555
O21 Zr1 1_555 1_555
O23 Zr1 1_555 1_555
O22 Zr1 1_555 1_555
Zr5 O10_3 1_555 1_555
O17 Zr1 1_555 1_555
O18_2 Zr1 1_555 1_555
O19_2 Zr1 1_555 1_555
C1_3 C17_3 1_555 1_555
C5_3 C6_3 1_555 1_555
C9_3 C10_3 1_555 1_555
C53_3 C54_3 1_555 1_555
C57_3 C58_3 1_555 1_555
C57_3 C59_3 1_555 1_555
C59_3 C60_3 1_555 1_555
C16_3 H30_5 1_555 1_555
C16_3 H31_5 1_555 1_555
C16_3 H32_5 1_555 1_555
C13_3 H33_5 1_555 1_555
C13_3 H34_5 1_555 1_555
C13_3 H35_5 1_555 1_555
C47_3 H48_5 1_555 1_555
C47_3 H49_5 1_555 1_555
C47_3 H50_5 1_555 1_555
O17 C34_3 1_555 1_555
O26 C34_3 1_555 1_555
C18_3 C19_3 1_555 1_555
C19_3 H7_3 1_555 1_555
C20_3 C19_3 1_555 1_555
H8_3 C20_3 1_555 1_555
C21_3 C20_3 1_555 1_555
C22_3 C21_3 1_555 1_555
C23_3 C18_3 1_555 1_555
H9_3 C23_3 1_555 1_555
C24_3 C22_3 1_555 1_555
H10_3 C24_3 1_555 1_555
C25_3 C24_3 1_555 1_555
H11_3 C25_3 1_555 1_555
C26_3 C25_3 1_555 1_555
C27_3 C21_3 1_555 1_555
H12_3 C27_3 1_555 1_555
C28_3 C26_3 1_555 1_555
C29_3 C28_3 1_555 1_555
C30_3 C29_3 1_555 1_555
C32_3 C28_3 1_555 1_555
C33_3 C32_3 1_555 1_555
C34_3 C18_3 1_555 1_555
O8_3 C48_3 1_555 1_555
O25_4 C48_3 1_555 1_555
C35_3 C36_3 1_555 1_555
C36_3 H13_3 1_555 1_555
C37_3 C36_3 1_555 1_555
H14_3 C37_3 1_555 1_555
C38_3 C37_3 1_555 1_555
C39_3 C38_3 1_555 1_555
C40_3 C35_3 1_555 1_555
H15_3 C40_3 1_555 1_555
C41_3 C39_3 1_555 1_555
H16_3 C41_3 1_555 1_555
C42_3 C41_3 1_555 1_555
H17_3 C42_3 1_555 1_555
C43_3 C42_3 1_555 1_555
C44_3 C38_3 1_555 1_555
H18_3 C44_3 1_555 1_555
C45_3 C32_3 1_555 1_555
C46_3 C31_3 1_555 1_555
C48_3 C35_3 1_555 1_555
Zr5_4 O8_3 1_555 1_555
C22_3 C23_3 1_555 1_555
C26_3 C27_3 1_555 1_555
C29_3 C31_3 1_555 1_555
C39_3 C40_3 1_555 1_555
C43_3 C44_3 1_555 1_555
C43_3 C45_3 1_555 1_555
C45_3 C46_3 1_555 1_555
C30_3 H27_5 1_555 1_555
C30_3 H28_5 1_555 1_555
C30_3 H29_5 1_555 1_555
C33_3 H38_5 1_555 1_555
C33_3 H39_5 1_555 1_555
C33_3 H40_5 1_555 1_555
C61_3 H45_5 1_555 1_555
C61_3 H46_5 1_555 1_555
C61_3 H47_5 1_555 1_555
O18_2 C17_4 1_555 1_555
C1_4 C2_4 1_555 1_555
C2_4 H1_4 1_555 1_555
C3_4 C2_4 1_555 1_555
H2_4 C3_4 1_555 1_555
C4_4 C3_4 1_555 1_555
C5_4 C4_4 1_555 1_555
C6_4 C1_4 1_555 1_555
H3_4 C6_4 1_555 1_555
C7_4 C5_4 1_555 1_555
H4_4 C7_4 1_555 1_555
C8_4 C7_4 1_555 1_555
H5_4 C8_4 1_555 1_555
C9_4 C8_4 1_555 1_555
C10_4 C4_4 1_555 1_555
H6_4 C10_4 1_555 1_555
C11_4 C9_4 1_555 1_555
C12_4 C11_4 1_555 1_555
C13_4 C12_4 1_555 1_555
C14_4 C12_4 1_555 1_555
C15_4 C11_4 1_555 1_555
C16_4 C15_4 1_555 1_555
C17_4 O25_2 1_555 1_555
O10_4 C62_4 1_555 1_555
O26_3 C62_4 1_555 1_555
C49_4 C50_4 1_555 1_555
C50_4 H19_4 1_555 1_555
C51_4 C50_4 1_555 1_555
H20_4 C51_4 1_555 1_555
C52_4 C51_4 1_555 1_555
C53_4 C52_4 1_555 1_555
C54_4 C49_4 1_555 1_555
H21_4 C54_4 1_555 1_555
C55_4 C53_4 1_555 1_555
H22_4 C55_4 1_555 1_555
C56_4 C55_4 1_555 1_555
H23_4 C56_4 1_555 1_555
C57_4 C56_4 1_555 1_555
C58_4 C52_4 1_555 1_555
H24_4 C58_4 1_555 1_555
C59_4 C15_4 1_555 1_555
C60_4 C14_4 1_555 1_555
C62_4 C49_4 1_555 1_555
Zr5_3 O10_4 1_555 1_555
C1_4 C17_4 1_555 1_555
C5_4 C6_4 1_555 1_555
C9_4 C10_4 1_555 1_555
C53_4 C54_4 1_555 1_555
C57_4 C58_4 1_555 1_555
C57_4 C59_4 1_555 1_555
C59_4 C60_4 1_555 1_555
C16_4 H30_6 1_555 1_555
C16_4 H31_6 1_555 1_555
C16_4 H32_6 1_555 1_555
C13_4 H33_6 1_555 1_555
C13_4 H34_6 1_555 1_555
C13_4 H35_6 1_555 1_555
C47_4 H48_6 1_555 1_555
C47_4 H49_6 1_555 1_555
C47_4 H50_6 1_555 1_555
O19_2 C34_4 1_555 1_555
O26_2 C34_4 1_555 1_555
C18_4 C19_4 1_555 1_555
C19_4 H7_4 1_555 1_555
C20_4 C19_4 1_555 1_555
H8_4 C20_4 1_555 1_555
C21_4 C20_4 1_555 1_555
C22_4 C21_4 1_555 1_555
C23_4 C18_4 1_555 1_555
H9_4 C23_4 1_555 1_555
C24_4 C22_4 1_555 1_555
H10_4 C24_4 1_555 1_555
C25_4 C24_4 1_555 1_555
H11_4 C25_4 1_555 1_555
C26_4 C25_4 1_555 1_555
C27_4 C21_4 1_555 1_555
H12_4 C27_4 1_555 1_555
C28_4 C26_4 1_555 1_555
C29_4 C28_4 1_555 1_555
C30_4 C29_4 1_555 1_555
C32_4 C28_4 1_555 1_555
C33_4 C32_4 1_555 1_555
C34_4 C18_4 1_555 1_555
O8_4 C48_4 1_555 1_555
O25_3 C48_4 1_555 1_555
C35_4 C36_4 1_555 1_555
C36_4 H13_4 1_555 1_555
C37_4 C36_4 1_555 1_555
H14_4 C37_4 1_555 1_555
C38_4 C37_4 1_555 1_555
C39_4 C38_4 1_555 1_555
C40_4 C35_4 1_555 1_555
H15_4 C40_4 1_555 1_555
C41_4 C39_4 1_555 1_555
H16_4 C41_4 1_555 1_555
C42_4 C41_4 1_555 1_555
H17_4 C42_4 1_555 1_555
C43_4 C42_4 1_555 1_555
C44_4 C38_4 1_555 1_555
H18_4 C44_4 1_555 1_555
C45_4 C32_4 1_555 1_555
C46_4 C31_4 1_555 1_555
C48_4 C35_4 1_555 1_555
Zr5_2 O8_4 1_555 1_555
C22_4 C23_4 1_555 1_555
C26_4 C27_4 1_555 1_555
C29_4 C31_4 1_555 1_555
C39_4 C40_4 1_555 1_555
C43_4 C44_4 1_555 1_555
C43_4 C45_4 1_555 1_555
C45_4 C46_4 1_555 1_555
C30_4 H27_6 1_555 1_555
C30_4 H28_6 1_555 1_555
C30_4 H29_6 1_555 1_555
C33_4 H38_6 1_555 1_555
C33_4 H39_6 1_555 1_555
C33_4 H40_6 1_555 1_555
C61_4 H45_6 1_555 1_555
C61_4 H46_6 1_555 1_555
C61_4 H47_6 1_555 1_555
O23_2 Zr5 1_555 1_555
C47_4 H33_7 1_555 1_555
C47_4 H34_7 1_555 1_555
C47_4 H35_7 1_555 1_555
O14_3 H36_3 1_555 1_555
C16_4 H38_7 1_555 1_555
C16_4 H39_7 1_555 1_555
C16_4 H40_7 1_555 1_555
C13_4 H48_7 1_555 1_555
C13_4 H49_7 1_555 1_555
C13_4 H50_7 1_555 1_555
O14_4 H37_3 1_555 1_555
O20_2 Zr5_2 1_555 1_555
O13_3 H25_3 1_555 1_555
C61_4 H27_7 1_555 1_555
C61_4 H28_7 1_555 1_555
C61_4 H29_7 1_555 1_555
C33_4 H30_7 1_555 1_555
C33_4 H31_7 1_555 1_555
C33_4 H32_7 1_555 1_555
C30_4 H45_7 1_555 1_555
C30_4 H46_7 1_555 1_555
C30_4 H47_7 1_555 1_555
O13_4 H26_3 1_555 1_555
O21_2 Zr5_3 1_555 1_555
O3_3 H43_3 1_555 1_555
O3_4 H44_3 1_555 1_555
O22_2 Zr5_4 1_555 1_555
O4_3 H41_3 1_555 1_555
O4_4 H42_3 1_555 1_555
O3_5 H43_4 1_555 1_555
O3_6 H44_4 1_555 1_555
C47_3 H33_8 1_555 1_555
C47_3 H34_8 1_555 1_555
C47_3 H35_8 1_555 1_555
O14_5 H36_4 1_555 1_555
C16_3 H38_8 1_555 1_555
C16_3 H39_8 1_555 1_555
C16_3 H40_8 1_555 1_555
C13_3 H48_8 1_555 1_555
C13_3 H49_8 1_555 1_555
C13_3 H50_8 1_555 1_555
O14_6 H37_4 1_555 1_555
O4_5 H41_4 1_555 1_555
O4_6 H42_4 1_555 1_555
O13_5 H25_4 1_555 1_555
C61_3 H27_8 1_555 1_555
C61_3 H28_8 1_555 1_555
C61_3 H29_8 1_555 1_555
C33_3 H30_8 1_555 1_555
C33_3 H31_8 1_555 1_555
C33_3 H32_8 1_555 1_555
C30_3 H45_8 1_555 1_555
C30_3 H46_8 1_555 1_555
C30_3 H47_8 1_555 1_555
O13_6 H26_4 1_555 1_555

#END
