
###############################################################################
#
# This file contains modified crystal structure data generated from the
# MOF subset of the Cambridge Structural Database (CSD) v543 
# hosted by the Cambridge Crystallographic Data Centre (CCDC).
#
# This work is licensed under the Creative Commons
# Attribution-NonCommercial-ShareAlike 4.0 International License.
# To view a copy of this license, visit
# http://creativecommons.org/licenses/by-nc-sa/4.0/
# or send a letter to
# Creative Commons, PO Box 1866, Mountain View, CA 94042, USA.
#
# CIF created using the CSD Python API on 29 September 2022
# The structure has been converted into the P1 space group
# The structure has a 3D framework
# The original CSD entry IPAQIC is in the orthorhombic crystal system
# The framework has been calculated to contain at least 10.0% void space
# The void calculation uses a probe of radius 1.32A, grid spacing 0.4
# H atom positions have been added when not included in the experimental data
# Generated hydrogen atom positions removed from atoms on special positions
#
###############################################################################

data_IPAQIC
_chemical_formula_moiety         '(C320 H432 O132 Zr34)n'
_symmetry_cell_setting           triclinic
_symmetry_space_group_name_H-M   'P 1'
_symmetry_Int_Tables_number      1
_space_group_name_Hall           'P 1'
loop_
_symmetry_equiv_pos_site_id
_symmetry_equiv_pos_as_xyz
1 x,y,z
_cell_length_a                   19.721(5)
_cell_length_b                   31.9499(15)
_cell_length_c                   34.8650(15)
_cell_angle_alpha                90
_cell_angle_beta                 90
_cell_angle_gamma                90
_cell_volume                     21967.9
loop_
_atom_site_label
_atom_site_type_symbol
_atom_site_fract_x
_atom_site_fract_y
_atom_site_fract_z
Zr1 Zr -0.000000 0.500000 0.57001(2)
O4 O 0.000000 0.4447(3) 0.4654(2)
Zr3 Zr 0.08920(7) 0.55556(2) 0.500000
O13 O 0.0892(6) 0.500000 0.5342(2)
O14 O 0.000000 0.5553(3) 0.4654(2)
O15 O 0.2001(7) 0.5526(3) 0.500000
O16 O 0.0764(5) 0.6242(2) 0.500000
Zr4 Zr -0.000000 0.500000 0.42999(2)
Zr5 Zr 0.000000 -0.000000 0.92999(2)
Zr9 Zr 0.08920(7) 0.44444(2) 0.500000
O17 O 0.1245(4) 0.57874(16) 0.55828(11)
O18 O 0.1245(4) 0.57874(16) 0.44172(11)
O20 O 0.0682(3) 0.54129(14) 0.60193(12)
O21 O 0.0682(3) 0.45871(14) 0.60193(12)
O24 O 0.0892(6) 0.500000 0.4658(2)
O25 O -0.000000 0.5553(3) 0.5346(2)
O26 O -0.000000 0.4447(3) 0.5346(2)
Zr5_2 Zr 0.000000 1.000000 0.92999(2)
Zr10 Zr 0.91080(7) 0.05556(2) 0.000000
Zr11 Zr 0.58920(7) 0.44444(2) 0.000000
Zr1_2 Zr 1.000000 0.500000 0.57001(2)
Zr2 Zr 0.91080(7) 0.44444(2) 0.500000
O1 O 0.8755(4) 0.42126(16) 0.55828(11)
O2 O 0.9318(3) 0.45871(14) 0.60193(12)
O3 O 0.9108(6) 0.500000 0.5342(2)
O4_2 O 1.000000 0.4447(3) 0.4654(2)
O5 O 0.7999(7) 0.4474(3) 0.500000
O6 O 0.9236(5) 0.3758(2) 0.500000
C1 C 0.8921(5) 0.4310(2) 0.59230(18)
C2 C 0.8595(6) 0.4066(2) 0.62407(16)
C3 C 0.8697(7) 0.4201(3) 0.66201(18)
H1 H 0.896260 0.443416 0.667352
C4 C 0.8393(6) 0.3978(3) 0.69091(18)
H2 H 0.844440 0.407347 0.715938
C5 C 0.8022(6) 0.3625(2) 0.68502(16)
C6 C 0.7911(6) 0.3502(2) 0.64747(18)
H3 H 0.764500 0.326835 0.642195
C7 C 0.8201(6) 0.3728(2) 0.61785(15)
H4 H 0.812075 0.364460 0.592714
C8 C 0.7731(6) 0.3387(2) 0.71760(17)
C9 C 0.750000 0.3605(3) 0.750000
H5 H 0.750000 0.389648 0.749999
C10 C 0.7741(5) 0.2953(2) 0.71787(16)
H6 H 0.790839 0.280851 0.696749
C11 C 0.750000 0.2731(3) 0.750000
O7 O 0.8755(4) 0.07874(16) 0.94172(11)
O8 O 0.9318(3) 0.04129(14) 0.89807(12)
C12 C 0.8921(5) 0.0690(2) 0.90770(18)
C13 C 0.8595(6) 0.0934(2) 0.87593(16)
C14 C 0.8697(7) 0.0799(3) 0.83799(18)
H7 H 0.896260 0.056584 0.832648
C15 C 0.8393(6) 0.1022(3) 0.80909(18)
H8 H 0.844440 0.092653 0.784062
C16 C 0.8022(6) 0.1375(2) 0.81498(16)
C17 C 0.7911(6) 0.1498(2) 0.85253(18)
H9 H 0.764500 0.173165 0.857805
C18 C 0.8201(6) 0.1272(2) 0.88215(15)
H10 H 0.812075 0.135540 0.907286
C19 C 0.7731(6) 0.1613(2) 0.78240(17)
C20 C 0.750000 0.1395(3) 0.750000
H11 H 0.750000 0.110352 0.750001
C21 C 0.7741(5) 0.2047(2) 0.78213(16)
H12 H 0.790839 0.219149 0.803251
C22 C 0.750000 0.2269(3) 0.750000
O9 O 0.6245(4) 0.42126(16) 0.94172(11)
O10 O 0.5682(3) 0.45871(14) 0.89807(12)
C23 C 0.6079(5) 0.4310(2) 0.90770(18)
C24 C 0.6405(6) 0.4066(2) 0.87593(16)
C25 C 0.6303(7) 0.4201(3) 0.83799(18)
H13 H 0.603740 0.443416 0.832648
C26 C 0.6607(6) 0.3978(3) 0.80909(18)
H14 H 0.655560 0.407347 0.784062
C27 C 0.6978(6) 0.3625(2) 0.81498(16)
C28 C 0.7089(6) 0.3502(2) 0.85253(18)
H15 H 0.735500 0.326835 0.857805
C29 C 0.6799(6) 0.3728(2) 0.88215(15)
H16 H 0.687925 0.364460 0.907286
C30 C 0.7269(6) 0.3387(2) 0.78240(17)
C31 C 0.7259(5) 0.2953(2) 0.78213(16)
H17 H 0.709161 0.280851 0.803251
O11 O 0.6245(4) 0.07874(16) 0.55828(11)
O12 O 0.5682(3) 0.04129(14) 0.60193(12)
C32 C 0.6079(5) 0.0690(2) 0.59230(18)
C33 C 0.6405(6) 0.0934(2) 0.62407(16)
C34 C 0.6303(7) 0.0799(3) 0.66201(18)
H18 H 0.603740 0.056584 0.667352
C35 C 0.6607(6) 0.1022(3) 0.69091(18)
H19 H 0.655560 0.092653 0.715938
C36 C 0.6978(6) 0.1375(2) 0.68502(16)
C37 C 0.7089(6) 0.1498(2) 0.64747(18)
H20 H 0.735500 0.173165 0.642195
C38 C 0.6799(6) 0.1272(2) 0.61785(15)
H21 H 0.687925 0.135540 0.592714
C39 C 0.7269(6) 0.1613(2) 0.71760(17)
C40 C 0.7259(5) 0.2047(2) 0.71787(16)
H22 H 0.709161 0.219149 0.696749
O14_2 O 1.000000 0.5553(3) 0.4654(2)
Zr4_2 Zr 1.000000 0.500000 0.42999(2)
Zr5_3 Zr 1.000000 -0.000000 0.92999(2)
Zr6 Zr 0.500000 0.500000 0.92999(2)
Zr7 Zr 0.500000 -0.000000 0.57001(2)
Zr8 Zr 0.91080(7) 0.55556(2) 0.500000
Zr10_2 Zr 0.91080(7) 0.05556(2) 1.000000
Zr11_2 Zr 0.58920(7) 0.44444(2) 1.000000
Zr12 Zr 0.58920(7) 0.05556(2) 0.500000
O19 O 0.8755(4) 0.42126(16) 0.44172(11)
O22 O 0.9318(3) 0.54129(14) 0.60193(12)
O23 O 0.9108(6) 0.500000 0.4658(2)
O25_2 O 1.000000 0.5553(3) 0.5346(2)
O26_2 O 1.000000 0.4447(3) 0.5346(2)
Zr5_4 Zr 1.000000 1.000000 0.92999(2)
Zr7_2 Zr 0.500000 1.000000 0.57001(2)
Zr10_3 Zr 0.08920(7) 0.94444(2) 0.000000
Zr11_3 Zr 0.41080(7) 0.55556(2) 0.000000
C1_2 C 0.1079(5) 0.5690(2) 0.59230(18)
C2_2 C 0.1405(6) 0.5934(2) 0.62407(16)
C3_2 C 0.1303(7) 0.5799(3) 0.66201(18)
H1_2 H 0.103740 0.556584 0.667352
C4_2 C 0.1607(6) 0.6022(3) 0.69091(18)
H2_2 H 0.155560 0.592653 0.715938
C5_2 C 0.1978(6) 0.6375(2) 0.68502(16)
C6_2 C 0.2089(6) 0.6498(2) 0.64747(18)
H3_2 H 0.235500 0.673165 0.642195
C7_2 C 0.1799(6) 0.6272(2) 0.61785(15)
H4_2 H 0.187925 0.635540 0.592714
C8_2 C 0.2269(6) 0.6613(2) 0.71760(17)
C9_2 C 0.250000 0.6395(3) 0.750000
H5_2 H 0.250000 0.610352 0.749999
C10_2 C 0.2259(5) 0.7047(2) 0.71787(16)
H6_2 H 0.209161 0.719149 0.696749
C11_2 C 0.250000 0.7269(3) 0.750000
O7_2 O 0.1245(4) 0.92126(16) 0.94172(11)
O8_2 O 0.0682(3) 0.95871(14) 0.89807(12)
C12_2 C 0.1079(5) 0.9310(2) 0.90770(18)
C13_2 C 0.1405(6) 0.9066(2) 0.87593(16)
C14_2 C 0.1303(7) 0.9201(3) 0.83799(18)
H7_2 H 0.103740 0.943416 0.832648
C15_2 C 0.1607(6) 0.8978(3) 0.80909(18)
H8_2 H 0.155560 0.907347 0.784062
C16_2 C 0.1978(6) 0.8625(2) 0.81498(16)
C17_2 C 0.2089(6) 0.8502(2) 0.85253(18)
H9_2 H 0.235500 0.826835 0.857805
C18_2 C 0.1799(6) 0.8728(2) 0.88215(15)
H10_2 H 0.187925 0.864460 0.907286
C19_2 C 0.2269(6) 0.8387(2) 0.78240(17)
C20_2 C 0.250000 0.8605(3) 0.750000
H11_2 H 0.250000 0.889648 0.750001
C21_2 C 0.2259(5) 0.7953(2) 0.78213(16)
H12_2 H 0.209161 0.780851 0.803251
C22_2 C 0.250000 0.7731(3) 0.750000
O9_2 O 0.3755(4) 0.57874(16) 0.94172(11)
O10_2 O 0.4318(3) 0.54129(14) 0.89807(12)
C23_2 C 0.3921(5) 0.5690(2) 0.90770(18)
C24_2 C 0.3595(6) 0.5934(2) 0.87593(16)
C25_2 C 0.3697(7) 0.5799(3) 0.83799(18)
H13_2 H 0.396260 0.556584 0.832648
C26_2 C 0.3393(6) 0.6022(3) 0.80909(18)
H14_2 H 0.344440 0.592653 0.784062
C27_2 C 0.3022(6) 0.6375(2) 0.81498(16)
C28_2 C 0.2911(6) 0.6498(2) 0.85253(18)
H15_2 H 0.264500 0.673165 0.857805
C29_2 C 0.3201(6) 0.6272(2) 0.88215(15)
H16_2 H 0.312075 0.635540 0.907286
C30_2 C 0.2731(6) 0.6613(2) 0.78240(17)
C31_2 C 0.2741(5) 0.7047(2) 0.78213(16)
H17_2 H 0.290839 0.719149 0.803251
O11_2 O 0.3755(4) 0.92126(16) 0.55828(11)
O12_2 O 0.4318(3) 0.95871(14) 0.60193(12)
C32_2 C 0.3921(5) 0.9310(2) 0.59230(18)
C33_2 C 0.3595(6) 0.9066(2) 0.62407(16)
C34_2 C 0.3697(7) 0.9201(3) 0.66201(18)
H18_2 H 0.396260 0.943416 0.667352
C35_2 C 0.3393(6) 0.8978(3) 0.69091(18)
H19_2 H 0.344440 0.907347 0.715938
C36_2 C 0.3022(6) 0.8625(2) 0.68502(16)
C37_2 C 0.2911(6) 0.8502(2) 0.64747(18)
H20_2 H 0.264500 0.826835 0.642195
C38_2 C 0.3201(6) 0.8728(2) 0.61785(15)
H21_2 H 0.312075 0.864460 0.592714
C39_2 C 0.2731(6) 0.8387(2) 0.71760(17)
C40_2 C 0.2741(5) 0.7953(2) 0.71787(16)
H22_2 H 0.290839 0.780851 0.696749
Zr10_4 Zr 0.08920(7) 0.94444(2) 1.000000
Zr11_4 Zr 0.41080(7) 0.55556(2) 1.000000
Zr12_2 Zr 0.41080(7) 0.94444(2) 0.500000
Zr5_5 Zr 0.000000 0.000000 0.07001(2)
O15_2 O 0.2001(7) 0.4474(3) 0.500000
O16_2 O 0.0764(5) 0.3758(2) 0.500000
Zr5_6 Zr 0.000000 1.000000 0.07001(2)
O17_2 O 0.1245(4) 0.42126(16) 0.44172(11)
O18_2 O 0.1245(4) 0.42126(16) 0.55828(11)
O20_2 O 0.0682(3) 0.45871(14) 0.39807(12)
O21_2 O 0.0682(3) 0.54129(14) 0.39807(12)
Zr5_7 Zr 1.000000 0.000000 0.07001(2)
Zr7_3 Zr 0.500000 0.000000 0.42999(2)
O1_2 O 0.8755(4) 0.57874(16) 0.44172(11)
O2_2 O 0.9318(3) 0.54129(14) 0.39807(12)
O5_2 O 0.7999(7) 0.5526(3) 0.500000
O6_2 O 0.9236(5) 0.6242(2) 0.500000
C1_3 C 0.8921(5) 0.5690(2) 0.40770(18)
C2_3 C 0.8595(6) 0.5934(2) 0.37593(16)
C3_3 C 0.8697(7) 0.5799(3) 0.33799(18)
H1_3 H 0.896260 0.556584 0.332648
C4_3 C 0.8393(6) 0.6022(3) 0.30909(18)
H2_3 H 0.844440 0.592653 0.284062
C5_3 C 0.8022(6) 0.6375(2) 0.31498(16)
C6_3 C 0.7911(6) 0.6498(2) 0.35253(18)
H3_3 H 0.764500 0.673165 0.357805
C7_3 C 0.8201(6) 0.6272(2) 0.38215(15)
H4_3 H 0.812075 0.635540 0.407286
C8_3 C 0.7731(6) 0.6613(2) 0.28240(17)
C9_3 C 0.750000 0.6395(3) 0.250000
H5_3 H 0.750000 0.610352 0.250001
C10_3 C 0.7741(5) 0.7047(2) 0.28213(16)
H6_3 H 0.790839 0.719149 0.303251
C11_3 C 0.750000 0.7269(3) 0.250000
O7_3 O 0.8755(4) 0.92126(16) 0.05828(11)
O8_3 O 0.9318(3) 0.95871(14) 0.10193(12)
C12_3 C 0.8921(5) 0.9310(2) 0.09230(18)
C13_3 C 0.8595(6) 0.9066(2) 0.12407(16)
C14_3 C 0.8697(7) 0.9201(3) 0.16201(18)
H7_3 H 0.896260 0.943416 0.167352
C15_3 C 0.8393(6) 0.8978(3) 0.19091(18)
H8_3 H 0.844440 0.907347 0.215938
C16_3 C 0.8022(6) 0.8625(2) 0.18502(16)
C17_3 C 0.7911(6) 0.8502(2) 0.14747(18)
H9_3 H 0.764500 0.826835 0.142195
C18_3 C 0.8201(6) 0.8728(2) 0.11785(15)
H10_3 H 0.812075 0.864460 0.092714
C19_3 C 0.7731(6) 0.8387(2) 0.21760(17)
C20_3 C 0.750000 0.8605(3) 0.250000
H11_3 H 0.750000 0.889648 0.249999
C21_3 C 0.7741(5) 0.7953(2) 0.21787(16)
H12_3 H 0.790839 0.780851 0.196749
C22_3 C 0.750000 0.7731(3) 0.250000
O9_3 O 0.6245(4) 0.57874(16) 0.05828(11)
O10_3 O 0.5682(3) 0.54129(14) 0.10193(12)
C23_3 C 0.6079(5) 0.5690(2) 0.09230(18)
C24_3 C 0.6405(6) 0.5934(2) 0.12407(16)
C25_3 C 0.6303(7) 0.5799(3) 0.16201(18)
H13_3 H 0.603740 0.556584 0.167352
C26_3 C 0.6607(6) 0.6022(3) 0.19091(18)
H14_3 H 0.655560 0.592653 0.215938
C27_3 C 0.6978(6) 0.6375(2) 0.18502(16)
C28_3 C 0.7089(6) 0.6498(2) 0.14747(18)
H15_3 H 0.735500 0.673165 0.142195
C29_3 C 0.6799(6) 0.6272(2) 0.11785(15)
H16_3 H 0.687925 0.635540 0.092714
C30_3 C 0.7269(6) 0.6613(2) 0.21760(17)
C31_3 C 0.7259(5) 0.7047(2) 0.21787(16)
H17_3 H 0.709161 0.719149 0.196749
O11_3 O 0.6245(4) 0.92126(16) 0.44172(11)
O12_3 O 0.5682(3) 0.95871(14) 0.39807(12)
C32_3 C 0.6079(5) 0.9310(2) 0.40770(18)
C33_3 C 0.6405(6) 0.9066(2) 0.37593(16)
C34_3 C 0.6303(7) 0.9201(3) 0.33799(18)
H18_3 H 0.603740 0.943416 0.332648
C35_3 C 0.6607(6) 0.8978(3) 0.30909(18)
H19_3 H 0.655560 0.907347 0.284062
C36_3 C 0.6978(6) 0.8625(2) 0.31498(16)
C37_3 C 0.7089(6) 0.8502(2) 0.35253(18)
H20_3 H 0.735500 0.826835 0.357805
C38_3 C 0.6799(6) 0.8728(2) 0.38215(15)
H21_3 H 0.687925 0.864460 0.407286
C39_3 C 0.7269(6) 0.8387(2) 0.28240(17)
C40_3 C 0.7259(5) 0.7953(2) 0.28213(16)
H22_3 H 0.709161 0.780851 0.303251
Zr5_8 Zr 1.000000 1.000000 0.07001(2)
Zr6_2 Zr 0.500000 0.500000 0.07001(2)
Zr7_4 Zr 0.500000 1.000000 0.42999(2)
Zr10_5 Zr 0.91080(7) 0.94444(2) 0.000000
Zr11_5 Zr 0.58920(7) 0.55556(2) 0.000000
Zr12_3 Zr 0.58920(7) 0.94444(2) 0.500000
O19_2 O 0.8755(4) 0.57874(16) 0.55828(11)
O22_2 O 0.9318(3) 0.45871(14) 0.39807(12)
Zr10_6 Zr 0.91080(7) 0.94444(2) 1.000000
Zr11_6 Zr 0.58920(7) 0.55556(2) 1.000000
C1_4 C 0.1079(5) 0.4310(2) 0.40770(18)
C2_4 C 0.1405(6) 0.4066(2) 0.37593(16)
C3_4 C 0.1303(7) 0.4201(3) 0.33799(18)
H1_4 H 0.103740 0.443416 0.332648
C4_4 C 0.1607(6) 0.3978(3) 0.30909(18)
H2_4 H 0.155560 0.407347 0.284062
C5_4 C 0.1978(6) 0.3625(2) 0.31498(16)
C6_4 C 0.2089(6) 0.3502(2) 0.35253(18)
H3_4 H 0.235500 0.326835 0.357805
C7_4 C 0.1799(6) 0.3728(2) 0.38215(15)
H4_4 H 0.187925 0.364460 0.407286
C8_4 C 0.2269(6) 0.3387(2) 0.28240(17)
C9_4 C 0.250000 0.3605(3) 0.250000
H5_4 H 0.250000 0.389648 0.250001
C10_4 C 0.2259(5) 0.2953(2) 0.28213(16)
H6_4 H 0.209161 0.280851 0.303251
C11_4 C 0.250000 0.2731(3) 0.250000
O7_4 O 0.1245(4) 0.07874(16) 0.05828(11)
O8_4 O 0.0682(3) 0.04129(14) 0.10193(12)
C12_4 C 0.1079(5) 0.0690(2) 0.09230(18)
C13_4 C 0.1405(6) 0.0934(2) 0.12407(16)
C14_4 C 0.1303(7) 0.0799(3) 0.16201(18)
H7_4 H 0.103740 0.056584 0.167352
C15_4 C 0.1607(6) 0.1022(3) 0.19091(18)
H8_4 H 0.155560 0.092653 0.215938
C16_4 C 0.1978(6) 0.1375(2) 0.18502(16)
C17_4 C 0.2089(6) 0.1498(2) 0.14747(18)
H9_4 H 0.235500 0.173165 0.142195
C18_4 C 0.1799(6) 0.1272(2) 0.11785(15)
H10_4 H 0.187925 0.135540 0.092714
C19_4 C 0.2269(6) 0.1613(2) 0.21760(17)
C20_4 C 0.250000 0.1395(3) 0.250000
H11_4 H 0.250000 0.110352 0.249999
C21_4 C 0.2259(5) 0.2047(2) 0.21787(16)
H12_4 H 0.209161 0.219149 0.196749
C22_4 C 0.250000 0.2269(3) 0.250000
O9_4 O 0.3755(4) 0.42126(16) 0.05828(11)
O10_4 O 0.4318(3) 0.45871(14) 0.10193(12)
C23_4 C 0.3921(5) 0.4310(2) 0.09230(18)
C24_4 C 0.3595(6) 0.4066(2) 0.12407(16)
C25_4 C 0.3697(7) 0.4201(3) 0.16201(18)
H13_4 H 0.396260 0.443416 0.167352
C26_4 C 0.3393(6) 0.3978(3) 0.19091(18)
H14_4 H 0.344440 0.407347 0.215938
C27_4 C 0.3022(6) 0.3625(2) 0.18502(16)
C28_4 C 0.2911(6) 0.3502(2) 0.14747(18)
H15_4 H 0.264500 0.326835 0.142195
C29_4 C 0.3201(6) 0.3728(2) 0.11785(15)
H16_4 H 0.312075 0.364460 0.092714
C30_4 C 0.2731(6) 0.3387(2) 0.21760(17)
C31_4 C 0.2741(5) 0.2953(2) 0.21787(16)
H17_4 H 0.290839 0.280851 0.196749
O11_4 O 0.3755(4) 0.07874(16) 0.44172(11)
O12_4 O 0.4318(3) 0.04129(14) 0.39807(12)
C32_4 C 0.3921(5) 0.0690(2) 0.40770(18)
C33_4 C 0.3595(6) 0.0934(2) 0.37593(16)
C34_4 C 0.3697(7) 0.0799(3) 0.33799(18)
H18_4 H 0.396260 0.056584 0.332648
C35_4 C 0.3393(6) 0.1022(3) 0.30909(18)
H19_4 H 0.344440 0.092653 0.284062
C36_4 C 0.3022(6) 0.1375(2) 0.31498(16)
C37_4 C 0.2911(6) 0.1498(2) 0.35253(18)
H20_4 H 0.264500 0.173165 0.357805
C38_4 C 0.3201(6) 0.1272(2) 0.38215(15)
H21_4 H 0.312075 0.135540 0.407286
C39_4 C 0.2731(6) 0.1613(2) 0.28240(17)
C40_4 C 0.2741(5) 0.2047(2) 0.28213(16)
H22_4 H 0.290839 0.219149 0.303251
Zr10_7 Zr 0.08920(7) 0.05556(2) 0.000000
Zr11_7 Zr 0.41080(7) 0.44444(2) 0.000000
Zr12_4 Zr 0.41080(7) 0.05556(2) 0.500000
Zr10_8 Zr 0.08920(7) 0.05556(2) 1.000000
Zr11_8 Zr 0.41080(7) 0.44444(2) 1.000000
O13_2 O 0.0892(6) 0.000000 0.0342(2)
O15_3 O 0.2001(7) 0.0526(3) 0.000000
O16_3 O 0.0764(5) 0.1242(2) 0.000000
O25_3 O -0.000000 0.0553(3) 0.0346(2)
O14_3 O -0.000000 0.0553(3) 0.9654(2)
O15_4 O 0.2001(7) 0.0526(3) 1.000000
O16_4 O 0.0764(5) 0.1242(2) 1.000000
O18_3 O 0.1245(4) 0.07874(16) 0.94172(11)
O24_2 O 0.0892(6) 0.000000 0.9658(2)
O13_3 O 0.0892(6) 1.000000 0.0342(2)
O21_3 O 0.0682(3) 0.95871(14) 0.10193(12)
O26_3 O -0.000000 0.9447(3) 0.0346(2)
O4_3 O -0.000000 0.9447(3) 0.9654(2)
O24_3 O 0.0892(6) 1.000000 0.9658(2)
O3_2 O 0.9108(6) 0.000000 0.0342(2)
O22_3 O 0.9318(3) 0.04129(14) 0.10193(12)
O25_4 O 1.000000 0.0553(3) 0.0346(2)
O14_4 O 1.000000 0.0553(3) 0.9654(2)
O23_2 O 0.9108(6) 0.000000 0.9658(2)
O3_3 O 0.9108(6) 1.000000 0.0342(2)
O5_3 O 0.7999(7) 0.9474(3) 0.000000
O6_3 O 0.9236(5) 0.8758(2) 0.000000
O26_4 O 1.000000 0.9447(3) 0.0346(2)
O4_4 O 1.000000 0.9447(3) 0.9654(2)
O5_4 O 0.7999(7) 0.9474(3) 1.000000
O6_4 O 0.9236(5) 0.8758(2) 1.000000
O19_3 O 0.8755(4) 0.92126(16) 0.94172(11)
O23_3 O 0.9108(6) 1.000000 0.9658(2)
O21_4 O 0.0682(3) 0.04129(14) 0.89807(12)
O15_5 O 0.2001(7) 0.9474(3) 0.000000
O16_5 O 0.0764(5) 0.8758(2) 0.000000
O18_4 O 0.1245(4) 0.92126(16) 0.05828(11)
O15_6 O 0.2001(7) 0.9474(3) 1.000000
O16_6 O 0.0764(5) 0.8758(2) 1.000000
O5_5 O 0.7999(7) 0.0526(3) 0.000000
O6_5 O 0.9236(5) 0.1242(2) 0.000000
O19_4 O 0.8755(4) 0.07874(16) 0.05828(11)
O5_6 O 0.7999(7) 0.0526(3) 1.000000
O6_6 O 0.9236(5) 0.1242(2) 1.000000
O22_4 O 0.9318(3) 0.95871(14) 0.89807(12)
O3_4 O 0.4108(6) 0.500000 0.0342(2)
O5_7 O 0.2999(7) 0.4474(3) 0.000000
O6_7 O 0.4236(5) 0.3758(2) 0.000000
O13_4 O 0.5892(6) 0.500000 0.0342(2)
O15_7 O 0.7001(7) 0.5526(3) 0.000000
O16_7 O 0.5764(5) 0.6242(2) 0.000000
O21_5 O 0.5682(3) 0.45871(14) 0.10193(12)
O22_5 O 0.4318(3) 0.54129(14) 0.10193(12)
O25_5 O 0.500000 0.5553(3) 0.0346(2)
O26_5 O 0.500000 0.4447(3) 0.0346(2)
O4_5 O 0.500000 0.4447(3) 0.9654(2)
O5_8 O 0.2999(7) 0.4474(3) 1.000000
O6_8 O 0.4236(5) 0.3758(2) 1.000000
O14_5 O 0.500000 0.5553(3) 0.9654(2)
O15_8 O 0.7001(7) 0.5526(3) 1.000000
O16_8 O 0.5764(5) 0.6242(2) 1.000000
O18_5 O 0.6245(4) 0.57874(16) 0.94172(11)
O19_5 O 0.3755(4) 0.42126(16) 0.94172(11)
O23_4 O 0.4108(6) 0.500000 0.9658(2)
O24_4 O 0.5892(6) 0.500000 0.9658(2)
O5_9 O 0.2999(7) 0.5526(3) 0.000000
O6_9 O 0.4236(5) 0.6242(2) 0.000000
O15_9 O 0.7001(7) 0.4474(3) 0.000000
O16_9 O 0.5764(5) 0.3758(2) 0.000000
O18_6 O 0.6245(4) 0.42126(16) 0.05828(11)
O19_6 O 0.3755(4) 0.57874(16) 0.05828(11)
O5_10 O 0.2999(7) 0.5526(3) 1.000000
O6_10 O 0.4236(5) 0.6242(2) 1.000000
O15_10 O 0.7001(7) 0.4474(3) 1.000000
O16_10 O 0.5764(5) 0.3758(2) 1.000000
O21_6 O 0.5682(3) 0.54129(14) 0.89807(12)
O22_6 O 0.4318(3) 0.45871(14) 0.89807(12)
O3_5 O 0.4108(6) 0.000000 0.5342(2)
O13_5 O 0.5892(6) 0.000000 0.5342(2)
O14_6 O 0.500000 0.0553(3) 0.4654(2)
O15_11 O 0.7001(7) 0.0526(3) 0.500000
O16_11 O 0.5764(5) 0.1242(2) 0.500000
O18_7 O 0.6245(4) 0.07874(16) 0.44172(11)
O22_7 O 0.4318(3) 0.04129(14) 0.60193(12)
O23_5 O 0.4108(6) 0.000000 0.4658(2)
O24_5 O 0.5892(6) 0.000000 0.4658(2)
O25_6 O 0.500000 0.0553(3) 0.5346(2)
O3_6 O 0.4108(6) 1.000000 0.5342(2)
O4_6 O 0.500000 0.9447(3) 0.4654(2)
O5_11 O 0.2999(7) 0.9474(3) 0.500000
O6_11 O 0.4236(5) 0.8758(2) 0.500000
O13_6 O 0.5892(6) 1.000000 0.5342(2)
O19_7 O 0.3755(4) 0.92126(16) 0.44172(11)
O21_7 O 0.5682(3) 0.95871(14) 0.60193(12)
O23_6 O 0.4108(6) 1.000000 0.4658(2)
O24_6 O 0.5892(6) 1.000000 0.4658(2)
O26_6 O 0.500000 0.9447(3) 0.5346(2)
O5_12 O 0.2999(7) 0.0526(3) 0.500000
O6_12 O 0.4236(5) 0.1242(2) 0.500000
O19_8 O 0.3755(4) 0.07874(16) 0.55828(11)
O21_8 O 0.5682(3) 0.04129(14) 0.39807(12)
O15_12 O 0.7001(7) 0.9474(3) 0.500000
O16_12 O 0.5764(5) 0.8758(2) 0.500000
O18_8 O 0.6245(4) 0.92126(16) 0.55828(11)
O22_8 O 0.4318(3) 0.95871(14) 0.39807(12)
C1_5 C 0.1079(5) 0.5690(2) 0.40770(18)
C2_5 C 0.1405(6) 0.5934(2) 0.37593(16)
C3_5 C 0.1303(7) 0.5799(3) 0.33799(18)
H1_5 H 0.103740 0.556584 0.332648
C4_5 C 0.1607(6) 0.6022(3) 0.30909(18)
H2_5 H 0.155560 0.592653 0.284062
C5_5 C 0.1978(6) 0.6375(2) 0.31498(16)
C6_5 C 0.2089(6) 0.6498(2) 0.35253(18)
H3_5 H 0.235500 0.673165 0.357805
C7_5 C 0.1799(6) 0.6272(2) 0.38215(15)
H4_5 H 0.187925 0.635540 0.407286
C8_5 C 0.2269(6) 0.6613(2) 0.28240(17)
C9_5 C 0.250000 0.6395(3) 0.250000
H5_5 H 0.250000 0.610352 0.250001
C10_5 C 0.2259(5) 0.7047(2) 0.28213(16)
H6_5 H 0.209161 0.719149 0.303251
C11_5 C 0.250000 0.7269(3) 0.250000
C12_5 C 0.1079(5) 0.9310(2) 0.09230(18)
C13_5 C 0.1405(6) 0.9066(2) 0.12407(16)
C14_5 C 0.1303(7) 0.9201(3) 0.16201(18)
H7_5 H 0.103740 0.943416 0.167352
C15_5 C 0.1607(6) 0.8978(3) 0.19091(18)
H8_5 H 0.155560 0.907347 0.215938
C16_5 C 0.1978(6) 0.8625(2) 0.18502(16)
C17_5 C 0.2089(6) 0.8502(2) 0.14747(18)
H9_5 H 0.235500 0.826835 0.142195
C18_5 C 0.1799(6) 0.8728(2) 0.11785(15)
H10_5 H 0.187925 0.864460 0.092714
C19_5 C 0.2269(6) 0.8387(2) 0.21760(17)
C20_5 C 0.250000 0.8605(3) 0.250000
H11_5 H 0.250000 0.889648 0.249999
C21_5 C 0.2259(5) 0.7953(2) 0.21787(16)
H12_5 H 0.209161 0.780851 0.196749
C22_5 C 0.250000 0.7731(3) 0.250000
C23_5 C 0.3921(5) 0.5690(2) 0.09230(18)
C24_5 C 0.3595(6) 0.5934(2) 0.12407(16)
C25_5 C 0.3697(7) 0.5799(3) 0.16201(18)
H13_5 H 0.396260 0.556584 0.167352
C26_5 C 0.3393(6) 0.6022(3) 0.19091(18)
H14_5 H 0.344440 0.592653 0.215938
C27_5 C 0.3022(6) 0.6375(2) 0.18502(16)
C28_5 C 0.2911(6) 0.6498(2) 0.14747(18)
H15_5 H 0.264500 0.673165 0.142195
C29_5 C 0.3201(6) 0.6272(2) 0.11785(15)
H16_5 H 0.312075 0.635540 0.092714
C30_5 C 0.2731(6) 0.6613(2) 0.21760(17)
C31_5 C 0.2741(5) 0.7047(2) 0.21787(16)
H17_5 H 0.290839 0.719149 0.196749
C32_5 C 0.3921(5) 0.9310(2) 0.40770(18)
C33_5 C 0.3595(6) 0.9066(2) 0.37593(16)
C34_5 C 0.3697(7) 0.9201(3) 0.33799(18)
H18_5 H 0.396260 0.943416 0.332648
C35_5 C 0.3393(6) 0.8978(3) 0.30909(18)
H19_5 H 0.344440 0.907347 0.284062
C36_5 C 0.3022(6) 0.8625(2) 0.31498(16)
C37_5 C 0.2911(6) 0.8502(2) 0.35253(18)
H20_5 H 0.264500 0.826835 0.357805
C38_5 C 0.3201(6) 0.8728(2) 0.38215(15)
H21_5 H 0.312075 0.864460 0.407286
C39_5 C 0.2731(6) 0.8387(2) 0.28240(17)
C40_5 C 0.2741(5) 0.7953(2) 0.28213(16)
H22_5 H 0.290839 0.780851 0.303251
C1_6 C 0.8921(5) 0.4310(2) 0.40770(18)
C2_6 C 0.8595(6) 0.4066(2) 0.37593(16)
C3_6 C 0.8697(7) 0.4201(3) 0.33799(18)
H1_6 H 0.896260 0.443416 0.332648
C4_6 C 0.8393(6) 0.3978(3) 0.30909(18)
H2_6 H 0.844440 0.407347 0.284062
C5_6 C 0.8022(6) 0.3625(2) 0.31498(16)
C6_6 C 0.7911(6) 0.3502(2) 0.35253(18)
H3_6 H 0.764500 0.326835 0.357805
C7_6 C 0.8201(6) 0.3728(2) 0.38215(15)
H4_6 H 0.812075 0.364460 0.407286
C8_6 C 0.7731(6) 0.3387(2) 0.28240(17)
C9_6 C 0.750000 0.3605(3) 0.250000
H5_6 H 0.750000 0.389648 0.250001
C10_6 C 0.7741(5) 0.2953(2) 0.28213(16)
H6_6 H 0.790839 0.280851 0.303251
C11_6 C 0.750000 0.2731(3) 0.250000
C12_6 C 0.8921(5) 0.0690(2) 0.09230(18)
C13_6 C 0.8595(6) 0.0934(2) 0.12407(16)
C14_6 C 0.8697(7) 0.0799(3) 0.16201(18)
H7_6 H 0.896260 0.056584 0.167352
C15_6 C 0.8393(6) 0.1022(3) 0.19091(18)
H8_6 H 0.844440 0.092653 0.215938
C16_6 C 0.8022(6) 0.1375(2) 0.18502(16)
C17_6 C 0.7911(6) 0.1498(2) 0.14747(18)
H9_6 H 0.764500 0.173165 0.142195
C18_6 C 0.8201(6) 0.1272(2) 0.11785(15)
H10_6 H 0.812075 0.135540 0.092714
C19_6 C 0.7731(6) 0.1613(2) 0.21760(17)
C20_6 C 0.750000 0.1395(3) 0.250000
H11_6 H 0.750000 0.110352 0.249999
C21_6 C 0.7741(5) 0.2047(2) 0.21787(16)
H12_6 H 0.790839 0.219149 0.196749
C22_6 C 0.750000 0.2269(3) 0.250000
C23_6 C 0.6079(5) 0.4310(2) 0.09230(18)
C24_6 C 0.6405(6) 0.4066(2) 0.12407(16)
C25_6 C 0.6303(7) 0.4201(3) 0.16201(18)
H13_6 H 0.603740 0.443416 0.167352
C26_6 C 0.6607(6) 0.3978(3) 0.19091(18)
H14_6 H 0.655560 0.407347 0.215938
C27_6 C 0.6978(6) 0.3625(2) 0.18502(16)
C28_6 C 0.7089(6) 0.3502(2) 0.14747(18)
H15_6 H 0.735500 0.326835 0.142195
C29_6 C 0.6799(6) 0.3728(2) 0.11785(15)
H16_6 H 0.687925 0.364460 0.092714
C30_6 C 0.7269(6) 0.3387(2) 0.21760(17)
C31_6 C 0.7259(5) 0.2953(2) 0.21787(16)
H17_6 H 0.709161 0.280851 0.196749
C32_6 C 0.6079(5) 0.0690(2) 0.40770(18)
C33_6 C 0.6405(6) 0.0934(2) 0.37593(16)
C34_6 C 0.6303(7) 0.0799(3) 0.33799(18)
H18_6 H 0.603740 0.056584 0.332648
C35_6 C 0.6607(6) 0.1022(3) 0.30909(18)
H19_6 H 0.655560 0.092653 0.284062
C36_6 C 0.6978(6) 0.1375(2) 0.31498(16)
C37_6 C 0.7089(6) 0.1498(2) 0.35253(18)
H20_6 H 0.735500 0.173165 0.357805
C38_6 C 0.6799(6) 0.1272(2) 0.38215(15)
H21_6 H 0.687925 0.135540 0.407286
C39_6 C 0.7269(6) 0.1613(2) 0.28240(17)
C40_6 C 0.7259(5) 0.2047(2) 0.28213(16)
H22_6 H 0.709161 0.219149 0.303251
C1_7 C 0.1079(5) 0.4310(2) 0.59230(18)
C2_7 C 0.1405(6) 0.4066(2) 0.62407(16)
C3_7 C 0.1303(7) 0.4201(3) 0.66201(18)
H1_7 H 0.103740 0.443416 0.667352
C4_7 C 0.1607(6) 0.3978(3) 0.69091(18)
H2_7 H 0.155560 0.407347 0.715938
C5_7 C 0.1978(6) 0.3625(2) 0.68502(16)
C6_7 C 0.2089(6) 0.3502(2) 0.64747(18)
H3_7 H 0.235500 0.326835 0.642195
C7_7 C 0.1799(6) 0.3728(2) 0.61785(15)
H4_7 H 0.187925 0.364460 0.592714
C8_7 C 0.2269(6) 0.3387(2) 0.71760(17)
C9_7 C 0.250000 0.3605(3) 0.750000
H5_7 H 0.250000 0.389648 0.749999
C10_7 C 0.2259(5) 0.2953(2) 0.71787(16)
H6_7 H 0.209161 0.280851 0.696749
C11_7 C 0.250000 0.2731(3) 0.750000
C12_7 C 0.1079(5) 0.0690(2) 0.90770(18)
C13_7 C 0.1405(6) 0.0934(2) 0.87593(16)
C14_7 C 0.1303(7) 0.0799(3) 0.83799(18)
H7_7 H 0.103740 0.056584 0.832648
C15_7 C 0.1607(6) 0.1022(3) 0.80909(18)
H8_7 H 0.155560 0.092653 0.784062
C16_7 C 0.1978(6) 0.1375(2) 0.81498(16)
C17_7 C 0.2089(6) 0.1498(2) 0.85253(18)
H9_7 H 0.235500 0.173165 0.857805
C18_7 C 0.1799(6) 0.1272(2) 0.88215(15)
H10_7 H 0.187925 0.135540 0.907286
C19_7 C 0.2269(6) 0.1613(2) 0.78240(17)
C20_7 C 0.250000 0.1395(3) 0.750000
H11_7 H 0.250000 0.110352 0.750001
C21_7 C 0.2259(5) 0.2047(2) 0.78213(16)
H12_7 H 0.209161 0.219149 0.803251
C22_7 C 0.250000 0.2269(3) 0.750000
C23_7 C 0.3921(5) 0.4310(2) 0.90770(18)
C24_7 C 0.3595(6) 0.4066(2) 0.87593(16)
C25_7 C 0.3697(7) 0.4201(3) 0.83799(18)
H13_7 H 0.396260 0.443416 0.832648
C26_7 C 0.3393(6) 0.3978(3) 0.80909(18)
H14_7 H 0.344440 0.407347 0.784062
C27_7 C 0.3022(6) 0.3625(2) 0.81498(16)
C28_7 C 0.2911(6) 0.3502(2) 0.85253(18)
H15_7 H 0.264500 0.326835 0.857805
C29_7 C 0.3201(6) 0.3728(2) 0.88215(15)
H16_7 H 0.312075 0.364460 0.907286
C30_7 C 0.2731(6) 0.3387(2) 0.78240(17)
C31_7 C 0.2741(5) 0.2953(2) 0.78213(16)
H17_7 H 0.290839 0.280851 0.803251
C32_7 C 0.3921(5) 0.0690(2) 0.59230(18)
C33_7 C 0.3595(6) 0.0934(2) 0.62407(16)
C34_7 C 0.3697(7) 0.0799(3) 0.66201(18)
H18_7 H 0.396260 0.056584 0.667352
C35_7 C 0.3393(6) 0.1022(3) 0.69091(18)
H19_7 H 0.344440 0.092653 0.715938
C36_7 C 0.3022(6) 0.1375(2) 0.68502(16)
C37_7 C 0.2911(6) 0.1498(2) 0.64747(18)
H20_7 H 0.264500 0.173165 0.642195
C38_7 C 0.3201(6) 0.1272(2) 0.61785(15)
H21_7 H 0.312075 0.135540 0.592714
C39_7 C 0.2731(6) 0.1613(2) 0.71760(17)
C40_7 C 0.2741(5) 0.2047(2) 0.71787(16)
H22_7 H 0.290839 0.219149 0.696749
C1_8 C 0.8921(5) 0.5690(2) 0.59230(18)
C2_8 C 0.8595(6) 0.5934(2) 0.62407(16)
C3_8 C 0.8697(7) 0.5799(3) 0.66201(18)
H1_8 H 0.896260 0.556584 0.667352
C4_8 C 0.8393(6) 0.6022(3) 0.69091(18)
H2_8 H 0.844440 0.592653 0.715938
C5_8 C 0.8022(6) 0.6375(2) 0.68502(16)
C6_8 C 0.7911(6) 0.6498(2) 0.64747(18)
H3_8 H 0.764500 0.673165 0.642195
C7_8 C 0.8201(6) 0.6272(2) 0.61785(15)
H4_8 H 0.812075 0.635540 0.592714
C8_8 C 0.7731(6) 0.6613(2) 0.71760(17)
C9_8 C 0.750000 0.6395(3) 0.750000
H5_8 H 0.750000 0.610352 0.749999
C10_8 C 0.7741(5) 0.7047(2) 0.71787(16)
H6_8 H 0.790839 0.719149 0.696749
C11_8 C 0.750000 0.7269(3) 0.750000
C12_8 C 0.8921(5) 0.9310(2) 0.90770(18)
C13_8 C 0.8595(6) 0.9066(2) 0.87593(16)
C14_8 C 0.8697(7) 0.9201(3) 0.83799(18)
H7_8 H 0.896260 0.943416 0.832648
C15_8 C 0.8393(6) 0.8978(3) 0.80909(18)
H8_8 H 0.844440 0.907347 0.784062
C16_8 C 0.8022(6) 0.8625(2) 0.81498(16)
C17_8 C 0.7911(6) 0.8502(2) 0.85253(18)
H9_8 H 0.764500 0.826835 0.857805
C18_8 C 0.8201(6) 0.8728(2) 0.88215(15)
H10_8 H 0.812075 0.864460 0.907286
C19_8 C 0.7731(6) 0.8387(2) 0.78240(17)
C20_8 C 0.750000 0.8605(3) 0.750000
H11_8 H 0.750000 0.889648 0.750001
C21_8 C 0.7741(5) 0.7953(2) 0.78213(16)
H12_8 H 0.790839 0.780851 0.803251
C22_8 C 0.750000 0.7731(3) 0.750000
C23_8 C 0.6079(5) 0.5690(2) 0.90770(18)
C24_8 C 0.6405(6) 0.5934(2) 0.87593(16)
C25_8 C 0.6303(7) 0.5799(3) 0.83799(18)
H13_8 H 0.603740 0.556584 0.832648
C26_8 C 0.6607(6) 0.6022(3) 0.80909(18)
H14_8 H 0.655560 0.592653 0.784062
C27_8 C 0.6978(6) 0.6375(2) 0.81498(16)
C28_8 C 0.7089(6) 0.6498(2) 0.85253(18)
H15_8 H 0.735500 0.673165 0.857805
C29_8 C 0.6799(6) 0.6272(2) 0.88215(15)
H16_8 H 0.687925 0.635540 0.907286
C30_8 C 0.7269(6) 0.6613(2) 0.78240(17)
C31_8 C 0.7259(5) 0.7047(2) 0.78213(16)
H17_8 H 0.709161 0.719149 0.803251
C32_8 C 0.6079(5) 0.9310(2) 0.59230(18)
C33_8 C 0.6405(6) 0.9066(2) 0.62407(16)
C34_8 C 0.6303(7) 0.9201(3) 0.66201(18)
H18_8 H 0.603740 0.943416 0.667352
C35_8 C 0.6607(6) 0.8978(3) 0.69091(18)
H19_8 H 0.655560 0.907347 0.715938
C36_8 C 0.6978(6) 0.8625(2) 0.68502(16)
C37_8 C 0.7089(6) 0.8502(2) 0.64747(18)
H20_8 H 0.735500 0.826835 0.642195
C38_8 C 0.6799(6) 0.8728(2) 0.61785(15)
H21_8 H 0.687925 0.864460 0.592714
C39_8 C 0.7269(6) 0.8387(2) 0.71760(17)
C40_8 C 0.7259(5) 0.7953(2) 0.71787(16)
H22_8 H 0.709161 0.780851 0.696749
loop_
_geom_bond_atom_site_label_1
_geom_bond_atom_site_label_2
_geom_bond_site_symmetry_1
_geom_bond_site_symmetry_2
Zr3 O13 1_555 1_555
O13 Zr1 1_555 1_555
O14 Zr3 1_555 1_555
O15 Zr3 1_555 1_555
O16 Zr3 1_555 1_555
Zr4 O4 1_555 1_555
Zr9 O4 1_555 1_555
O17 Zr3 1_555 1_555
O18 Zr3 1_555 1_555
O20 Zr1 1_555 1_555
O21 Zr1 1_555 1_555
O24 Zr3 1_555 1_555
O25 Zr1 1_555 1_555
O26 Zr1 1_555 1_555
Zr3 O25 1_555 1_555
O13 Zr9 1_555 1_555
O14 Zr4 1_555 1_555
Zr4 O24 1_555 1_555
Zr9 O24 1_555 1_555
Zr9 O26 1_555 1_555
Zr1_2 O2 1_555 1_555
Zr2 O1 1_555 1_555
O1 C1 1_555 1_555
O2 C1 1_555 1_555
O3 Zr1_2 1_555 1_555
O4_2 Zr2 1_555 1_555
O5 Zr2 1_555 1_555
O6 Zr2 1_555 1_555
C1 C2 1_555 1_555
C2 C3 1_555 1_555
C3 H1 1_555 1_555
C4 C3 1_555 1_555
H2 C4 1_555 1_555
C5 C4 1_555 1_555
C6 C5 1_555 1_555
H3 C6 1_555 1_555
C7 C2 1_555 1_555
H4 C7 1_555 1_555
C8 C5 1_555 1_555
C9 C8 1_555 1_555
H5 C9 1_555 1_555
C10 C8 1_555 1_555
H6 C10 1_555 1_555
C11 C10 1_555 1_555
O7 C12 1_555 1_555
O8 C12 1_555 1_555
C12 C13 1_555 1_555
C13 C14 1_555 1_555
C14 H7 1_555 1_555
C15 C14 1_555 1_555
H8 C15 1_555 1_555
C16 C15 1_555 1_555
C17 C16 1_555 1_555
H9 C17 1_555 1_555
C18 C13 1_555 1_555
H10 C18 1_555 1_555
C19 C16 1_555 1_555
C20 C19 1_555 1_555
H11 C20 1_555 1_555
C21 C19 1_555 1_555
H12 C21 1_555 1_555
C22 C11 1_555 1_555
O9 C23 1_555 1_555
O10 C23 1_555 1_555
C23 C24 1_555 1_555
C24 C25 1_555 1_555
C25 H13 1_555 1_555
C26 C25 1_555 1_555
H14 C26 1_555 1_555
C27 C26 1_555 1_555
C28 C27 1_555 1_555
H15 C28 1_555 1_555
C29 C24 1_555 1_555
H16 C29 1_555 1_555
C30 C9 1_555 1_555
C31 C11 1_555 1_555
H17 C31 1_555 1_555
O11 C32 1_555 1_555
O12 C32 1_555 1_555
C32 C33 1_555 1_555
C33 C34 1_555 1_555
C34 H18 1_555 1_555
C35 C34 1_555 1_555
H19 C35 1_555 1_555
C36 C35 1_555 1_555
C37 C36 1_555 1_555
H20 C37 1_555 1_555
C38 C33 1_555 1_555
H21 C38 1_555 1_555
C39 C20 1_555 1_555
C40 C22 1_555 1_555
H22 C40 1_555 1_555
Zr4_2 O4_2 1_555 1_555
Zr5_3 O8 1_555 1_555
Zr6 O10 1_555 1_555
Zr7 O12 1_555 1_555
Zr8 O3 1_555 1_555
Zr10_2 O7 1_555 1_555
Zr11_2 O9 1_555 1_555
Zr12 O11 1_555 1_555
O19 Zr2 1_555 1_555
O22 Zr1_2 1_555 1_555
O23 Zr2 1_555 1_555
O25_2 Zr1_2 1_555 1_555
O26_2 Zr1_2 1_555 1_555
Zr2 O3 1_555 1_555
Zr2 O26_2 1_555 1_555
C6 C7 1_555 1_555
C17 C18 1_555 1_555
C21 C22 1_555 1_555
C27 C30 1_555 1_555
C28 C29 1_555 1_555
C30 C31 1_555 1_555
C36 C39 1_555 1_555
C37 C38 1_555 1_555
C39 C40 1_555 1_555
O14_2 Zr4_2 1_555 1_555
O14_2 Zr8 1_555 1_555
Zr4_2 O23 1_555 1_555
Zr8 O23 1_555 1_555
Zr8 O25_2 1_555 1_555
O17 C1_2 1_555 1_555
O20 C1_2 1_555 1_555
C1_2 C2_2 1_555 1_555
C2_2 C3_2 1_555 1_555
C3_2 H1_2 1_555 1_555
C4_2 C3_2 1_555 1_555
H2_2 C4_2 1_555 1_555
C5_2 C4_2 1_555 1_555
C6_2 C5_2 1_555 1_555
H3_2 C6_2 1_555 1_555
C7_2 C2_2 1_555 1_555
H4_2 C7_2 1_555 1_555
C8_2 C5_2 1_555 1_555
C9_2 C8_2 1_555 1_555
H5_2 C9_2 1_555 1_555
C10_2 C8_2 1_555 1_555
H6_2 C10_2 1_555 1_555
C11_2 C10_2 1_555 1_555
O7_2 C12_2 1_555 1_555
O8_2 C12_2 1_555 1_555
C12_2 C13_2 1_555 1_555
C13_2 C14_2 1_555 1_555
C14_2 H7_2 1_555 1_555
C15_2 C14_2 1_555 1_555
H8_2 C15_2 1_555 1_555
C16_2 C15_2 1_555 1_555
C17_2 C16_2 1_555 1_555
H9_2 C17_2 1_555 1_555
C18_2 C13_2 1_555 1_555
H10_2 C18_2 1_555 1_555
C19_2 C16_2 1_555 1_555
C20_2 C19_2 1_555 1_555
H11_2 C20_2 1_555 1_555
C21_2 C19_2 1_555 1_555
H12_2 C21_2 1_555 1_555
C22_2 C11_2 1_555 1_555
O9_2 C23_2 1_555 1_555
O10_2 C23_2 1_555 1_555
C23_2 C24_2 1_555 1_555
C24_2 C25_2 1_555 1_555
C25_2 H13_2 1_555 1_555
C26_2 C25_2 1_555 1_555
H14_2 C26_2 1_555 1_555
C27_2 C26_2 1_555 1_555
C28_2 C27_2 1_555 1_555
H15_2 C28_2 1_555 1_555
C29_2 C24_2 1_555 1_555
H16_2 C29_2 1_555 1_555
C30_2 C9_2 1_555 1_555
C31_2 C11_2 1_555 1_555
H17_2 C31_2 1_555 1_555
O11_2 C32_2 1_555 1_555
O12_2 C32_2 1_555 1_555
C32_2 C33_2 1_555 1_555
C33_2 C34_2 1_555 1_555
C34_2 H18_2 1_555 1_555
C35_2 C34_2 1_555 1_555
H19_2 C35_2 1_555 1_555
C36_2 C35_2 1_555 1_555
C37_2 C36_2 1_555 1_555
H20_2 C37_2 1_555 1_555
C38_2 C33_2 1_555 1_555
H21_2 C38_2 1_555 1_555
C39_2 C20_2 1_555 1_555
C40_2 C22_2 1_555 1_555
H22_2 C40_2 1_555 1_555
Zr5_2 O8_2 1_555 1_555
Zr6 O10_2 1_555 1_555
Zr7_2 O12_2 1_555 1_555
Zr10_4 O7_2 1_555 1_555
Zr11_4 O9_2 1_555 1_555
Zr12_2 O11_2 1_555 1_555
C6_2 C7_2 1_555 1_555
C17_2 C18_2 1_555 1_555
C21_2 C22_2 1_555 1_555
C27_2 C30_2 1_555 1_555
C28_2 C29_2 1_555 1_555
C30_2 C31_2 1_555 1_555
C36_2 C39_2 1_555 1_555
C37_2 C38_2 1_555 1_555
C39_2 C40_2 1_555 1_555
O15_2 Zr9 1_555 1_555
O16_2 Zr9 1_555 1_555
O17_2 Zr9 1_555 1_555
O18_2 Zr9 1_555 1_555
O20_2 Zr4 1_555 1_555
O21_2 Zr4 1_555 1_555
Zr4_2 O2_2 1_555 1_555
Zr8 O1_2 1_555 1_555
O1_2 C1_3 1_555 1_555
O2_2 C1_3 1_555 1_555
O5_2 Zr8 1_555 1_555
O6_2 Zr8 1_555 1_555
C1_3 C2_3 1_555 1_555
C2_3 C3_3 1_555 1_555
C3_3 H1_3 1_555 1_555
C4_3 C3_3 1_555 1_555
H2_3 C4_3 1_555 1_555
C5_3 C4_3 1_555 1_555
C6_3 C5_3 1_555 1_555
H3_3 C6_3 1_555 1_555
C7_3 C2_3 1_555 1_555
H4_3 C7_3 1_555 1_555
C8_3 C5_3 1_555 1_555
C9_3 C8_3 1_555 1_555
H5_3 C9_3 1_555 1_555
C10_3 C8_3 1_555 1_555
H6_3 C10_3 1_555 1_555
C11_3 C10_3 1_555 1_555
O7_3 C12_3 1_555 1_555
O8_3 C12_3 1_555 1_555
C12_3 C13_3 1_555 1_555
C13_3 C14_3 1_555 1_555
C14_3 H7_3 1_555 1_555
C15_3 C14_3 1_555 1_555
H8_3 C15_3 1_555 1_555
C16_3 C15_3 1_555 1_555
C17_3 C16_3 1_555 1_555
H9_3 C17_3 1_555 1_555
C18_3 C13_3 1_555 1_555
H10_3 C18_3 1_555 1_555
C19_3 C16_3 1_555 1_555
C20_3 C19_3 1_555 1_555
H11_3 C20_3 1_555 1_555
C21_3 C19_3 1_555 1_555
H12_3 C21_3 1_555 1_555
C22_3 C11_3 1_555 1_555
O9_3 C23_3 1_555 1_555
O10_3 C23_3 1_555 1_555
C23_3 C24_3 1_555 1_555
C24_3 C25_3 1_555 1_555
C25_3 H13_3 1_555 1_555
C26_3 C25_3 1_555 1_555
H14_3 C26_3 1_555 1_555
C27_3 C26_3 1_555 1_555
C28_3 C27_3 1_555 1_555
H15_3 C28_3 1_555 1_555
C29_3 C24_3 1_555 1_555
H16_3 C29_3 1_555 1_555
C30_3 C9_3 1_555 1_555
C31_3 C11_3 1_555 1_555
H17_3 C31_3 1_555 1_555
O11_3 C32_3 1_555 1_555
O12_3 C32_3 1_555 1_555
C32_3 C33_3 1_555 1_555
C33_3 C34_3 1_555 1_555
C34_3 H18_3 1_555 1_555
C35_3 C34_3 1_555 1_555
H19_3 C35_3 1_555 1_555
C36_3 C35_3 1_555 1_555
C37_3 C36_3 1_555 1_555
H20_3 C37_3 1_555 1_555
C38_3 C33_3 1_555 1_555
H21_3 C38_3 1_555 1_555
C39_3 C20_3 1_555 1_555
C40_3 C22_3 1_555 1_555
H22_3 C40_3 1_555 1_555
Zr5_8 O8_3 1_555 1_555
Zr6_2 O10_3 1_555 1_555
Zr7_4 O12_3 1_555 1_555
Zr10_5 O7_3 1_555 1_555
Zr11_5 O9_3 1_555 1_555
Zr12_3 O11_3 1_555 1_555
O19_2 Zr8 1_555 1_555
O22_2 Zr4_2 1_555 1_555
C6_3 C7_3 1_555 1_555
C17_3 C18_3 1_555 1_555
C21_3 C22_3 1_555 1_555
C27_3 C30_3 1_555 1_555
C28_3 C29_3 1_555 1_555
C30_3 C31_3 1_555 1_555
C36_3 C39_3 1_555 1_555
C37_3 C38_3 1_555 1_555
C39_3 C40_3 1_555 1_555
O17_2 C1_4 1_555 1_555
O20_2 C1_4 1_555 1_555
C1_4 C2_4 1_555 1_555
C2_4 C3_4 1_555 1_555
C3_4 H1_4 1_555 1_555
C4_4 C3_4 1_555 1_555
H2_4 C4_4 1_555 1_555
C5_4 C4_4 1_555 1_555
C6_4 C5_4 1_555 1_555
H3_4 C6_4 1_555 1_555
C7_4 C2_4 1_555 1_555
H4_4 C7_4 1_555 1_555
C8_4 C5_4 1_555 1_555
C9_4 C8_4 1_555 1_555
H5_4 C9_4 1_555 1_555
C10_4 C8_4 1_555 1_555
H6_4 C10_4 1_555 1_555
C11_4 C10_4 1_555 1_555
O7_4 C12_4 1_555 1_555
O8_4 C12_4 1_555 1_555
C12_4 C13_4 1_555 1_555
C13_4 C14_4 1_555 1_555
C14_4 H7_4 1_555 1_555
C15_4 C14_4 1_555 1_555
H8_4 C15_4 1_555 1_555
C16_4 C15_4 1_555 1_555
C17_4 C16_4 1_555 1_555
H9_4 C17_4 1_555 1_555
C18_4 C13_4 1_555 1_555
H10_4 C18_4 1_555 1_555
C19_4 C16_4 1_555 1_555
C20_4 C19_4 1_555 1_555
H11_4 C20_4 1_555 1_555
C21_4 C19_4 1_555 1_555
H12_4 C21_4 1_555 1_555
C22_4 C11_4 1_555 1_555
O9_4 C23_4 1_555 1_555
O10_4 C23_4 1_555 1_555
C23_4 C24_4 1_555 1_555
C24_4 C25_4 1_555 1_555
C25_4 H13_4 1_555 1_555
C26_4 C25_4 1_555 1_555
H14_4 C26_4 1_555 1_555
C27_4 C26_4 1_555 1_555
C28_4 C27_4 1_555 1_555
H15_4 C28_4 1_555 1_555
C29_4 C24_4 1_555 1_555
H16_4 C29_4 1_555 1_555
C30_4 C9_4 1_555 1_555
C31_4 C11_4 1_555 1_555
H17_4 C31_4 1_555 1_555
O11_4 C32_4 1_555 1_555
O12_4 C32_4 1_555 1_555
C32_4 C33_4 1_555 1_555
C33_4 C34_4 1_555 1_555
C34_4 H18_4 1_555 1_555
C35_4 C34_4 1_555 1_555
H19_4 C35_4 1_555 1_555
C36_4 C35_4 1_555 1_555
C37_4 C36_4 1_555 1_555
H20_4 C37_4 1_555 1_555
C38_4 C33_4 1_555 1_555
H21_4 C38_4 1_555 1_555
C39_4 C20_4 1_555 1_555
C40_4 C22_4 1_555 1_555
H22_4 C40_4 1_555 1_555
Zr5_5 O8_4 1_555 1_555
Zr6_2 O10_4 1_555 1_555
Zr7_3 O12_4 1_555 1_555
Zr10_7 O7_4 1_555 1_555
Zr11_7 O9_4 1_555 1_555
Zr12_4 O11_4 1_555 1_555
C6_4 C7_4 1_555 1_555
C17_4 C18_4 1_555 1_555
C21_4 C22_4 1_555 1_555
C27_4 C30_4 1_555 1_555
C28_4 C29_4 1_555 1_555
C30_4 C31_4 1_555 1_555
C36_4 C39_4 1_555 1_555
C37_4 C38_4 1_555 1_555
C39_4 C40_4 1_555 1_555
Zr10_7 O13_2 1_555 1_555
O13_2 Zr5_5 1_555 1_555
O15_3 Zr10_7 1_555 1_555
O16_3 Zr10_7 1_555 1_555
O25_3 Zr5_5 1_555 1_555
Zr10_7 O25_3 1_555 1_555
O14_3 Zr10_8 1_555 1_555
O15_4 Zr10_8 1_555 1_555
O16_4 Zr10_8 1_555 1_555
O18_3 Zr10_8 1_555 1_555
O24_2 Zr10_8 1_555 1_555
O14_3 Zr5 1_555 1_555
Zr5 O24_2 1_555 1_555
O13_3 Zr5_6 1_555 1_555
O21_3 Zr5_6 1_555 1_555
O26_3 Zr5_6 1_555 1_555
O13_3 Zr10_3 1_555 1_555
Zr10_3 O26_3 1_555 1_555
Zr5_2 O4_3 1_555 1_555
Zr10_4 O4_3 1_555 1_555
Zr5_2 O24_3 1_555 1_555
Zr10_4 O24_3 1_555 1_555
O3_2 Zr5_7 1_555 1_555
Zr10 O3_2 1_555 1_555
O22_3 Zr5_7 1_555 1_555
O25_4 Zr5_7 1_555 1_555
Zr10 O25_4 1_555 1_555
O14_4 Zr5_3 1_555 1_555
O14_4 Zr10_2 1_555 1_555
Zr5_3 O23_2 1_555 1_555
Zr10_2 O23_2 1_555 1_555
O3_3 Zr5_8 1_555 1_555
O5_3 Zr10_5 1_555 1_555
O6_3 Zr10_5 1_555 1_555
O26_4 Zr5_8 1_555 1_555
Zr10_5 O3_3 1_555 1_555
Zr10_5 O26_4 1_555 1_555
O4_4 Zr10_6 1_555 1_555
O5_4 Zr10_6 1_555 1_555
O6_4 Zr10_6 1_555 1_555
Zr5_4 O4_4 1_555 1_555
O19_3 Zr10_6 1_555 1_555
O23_3 Zr10_6 1_555 1_555
Zr5_4 O23_3 1_555 1_555
O21_4 Zr5 1_555 1_555
O15_5 Zr10_3 1_555 1_555
O16_5 Zr10_3 1_555 1_555
O18_4 Zr10_3 1_555 1_555
O15_6 Zr10_4 1_555 1_555
O16_6 Zr10_4 1_555 1_555
O5_5 Zr10 1_555 1_555
O6_5 Zr10 1_555 1_555
O19_4 Zr10 1_555 1_555
O5_6 Zr10_2 1_555 1_555
O6_6 Zr10_2 1_555 1_555
O22_4 Zr5_4 1_555 1_555
O3_4 Zr6_2 1_555 1_555
O5_7 Zr11_7 1_555 1_555
O6_7 Zr11_7 1_555 1_555
Zr11_5 O13_4 1_555 1_555
O13_4 Zr6_2 1_555 1_555
O15_7 Zr11_5 1_555 1_555
O16_7 Zr11_5 1_555 1_555
Zr11_3 O3_4 1_555 1_555
O21_5 Zr6_2 1_555 1_555
O22_5 Zr6_2 1_555 1_555
O25_5 Zr6_2 1_555 1_555
O26_5 Zr6_2 1_555 1_555
Zr11_7 O3_4 1_555 1_555
Zr11_7 O26_5 1_555 1_555
Zr11_5 O25_5 1_555 1_555
O13_4 Zr11 1_555 1_555
Zr11_3 O25_5 1_555 1_555
Zr11 O26_5 1_555 1_555
O4_5 Zr11_8 1_555 1_555
O5_8 Zr11_8 1_555 1_555
O6_8 Zr11_8 1_555 1_555
O14_5 Zr11_6 1_555 1_555
O15_8 Zr11_6 1_555 1_555
O16_8 Zr11_6 1_555 1_555
Zr6 O4_5 1_555 1_555
Zr11_2 O4_5 1_555 1_555
O18_5 Zr11_6 1_555 1_555
O19_5 Zr11_8 1_555 1_555
O23_4 Zr11_8 1_555 1_555
O24_4 Zr11_6 1_555 1_555
O14_5 Zr6 1_555 1_555
O14_5 Zr11_4 1_555 1_555
Zr6 O23_4 1_555 1_555
Zr6 O24_4 1_555 1_555
Zr11_4 O23_4 1_555 1_555
Zr11_2 O24_4 1_555 1_555
O5_9 Zr11_3 1_555 1_555
O6_9 Zr11_3 1_555 1_555
O15_9 Zr11 1_555 1_555
O16_9 Zr11 1_555 1_555
O18_6 Zr11 1_555 1_555
O19_6 Zr11_3 1_555 1_555
O5_10 Zr11_4 1_555 1_555
O6_10 Zr11_4 1_555 1_555
O15_10 Zr11_2 1_555 1_555
O16_10 Zr11_2 1_555 1_555
O21_6 Zr6 1_555 1_555
O22_6 Zr6 1_555 1_555
O3_5 Zr7 1_555 1_555
Zr12 O13_5 1_555 1_555
O13_5 Zr7 1_555 1_555
O14_6 Zr12 1_555 1_555
O15_11 Zr12 1_555 1_555
O16_11 Zr12 1_555 1_555
Zr12_4 O3_5 1_555 1_555
O18_7 Zr12 1_555 1_555
O22_7 Zr7 1_555 1_555
O24_5 Zr12 1_555 1_555
O25_6 Zr7 1_555 1_555
Zr12 O25_6 1_555 1_555
O14_6 Zr7_3 1_555 1_555
O14_6 Zr12_4 1_555 1_555
Zr7_3 O23_5 1_555 1_555
Zr7_3 O24_5 1_555 1_555
Zr12_4 O23_5 1_555 1_555
Zr12_4 O25_6 1_555 1_555
O3_6 Zr7_2 1_555 1_555
O4_6 Zr12_2 1_555 1_555
O5_11 Zr12_2 1_555 1_555
O6_11 Zr12_2 1_555 1_555
O13_6 Zr7_2 1_555 1_555
Zr7_4 O4_6 1_555 1_555
Zr12_3 O4_6 1_555 1_555
O19_7 Zr12_2 1_555 1_555
O21_7 Zr7_2 1_555 1_555
O23_6 Zr12_2 1_555 1_555
O26_6 Zr7_2 1_555 1_555
Zr12_2 O3_6 1_555 1_555
Zr12_2 O26_6 1_555 1_555
O13_6 Zr12_3 1_555 1_555
Zr7_4 O23_6 1_555 1_555
Zr7_4 O24_6 1_555 1_555
Zr12_3 O24_6 1_555 1_555
Zr12_3 O26_6 1_555 1_555
O5_12 Zr12_4 1_555 1_555
O6_12 Zr12_4 1_555 1_555
O19_8 Zr12_4 1_555 1_555
O21_8 Zr7_3 1_555 1_555
O15_12 Zr12_3 1_555 1_555
O16_12 Zr12_3 1_555 1_555
O18_8 Zr12_3 1_555 1_555
O22_8 Zr7_4 1_555 1_555
O18 C1_5 1_555 1_555
O21_2 C1_5 1_555 1_555
C1_5 C2_5 1_555 1_555
C2_5 C3_5 1_555 1_555
C3_5 H1_5 1_555 1_555
C4_5 C3_5 1_555 1_555
H2_5 C4_5 1_555 1_555
C5_5 C4_5 1_555 1_555
C6_5 C5_5 1_555 1_555
H3_5 C6_5 1_555 1_555
C7_5 C2_5 1_555 1_555
H4_5 C7_5 1_555 1_555
C8_5 C5_5 1_555 1_555
C9_5 C8_5 1_555 1_555
H5_5 C9_5 1_555 1_555
C10_5 C8_5 1_555 1_555
H6_5 C10_5 1_555 1_555
C11_5 C10_5 1_555 1_555
O18_4 C12_5 1_555 1_555
O21_3 C12_5 1_555 1_555
C12_5 C13_5 1_555 1_555
C13_5 C14_5 1_555 1_555
C14_5 H7_5 1_555 1_555
C15_5 C14_5 1_555 1_555
H8_5 C15_5 1_555 1_555
C16_5 C15_5 1_555 1_555
C17_5 C16_5 1_555 1_555
H9_5 C17_5 1_555 1_555
C18_5 C13_5 1_555 1_555
H10_5 C18_5 1_555 1_555
C19_5 C16_5 1_555 1_555
C20_5 C19_5 1_555 1_555
H11_5 C20_5 1_555 1_555
C21_5 C19_5 1_555 1_555
H12_5 C21_5 1_555 1_555
C22_5 C11_5 1_555 1_555
O19_6 C23_5 1_555 1_555
O22_5 C23_5 1_555 1_555
C23_5 C24_5 1_555 1_555
C24_5 C25_5 1_555 1_555
C25_5 H13_5 1_555 1_555
C26_5 C25_5 1_555 1_555
H14_5 C26_5 1_555 1_555
C27_5 C26_5 1_555 1_555
C28_5 C27_5 1_555 1_555
H15_5 C28_5 1_555 1_555
C29_5 C24_5 1_555 1_555
H16_5 C29_5 1_555 1_555
C30_5 C9_5 1_555 1_555
C31_5 C11_5 1_555 1_555
H17_5 C31_5 1_555 1_555
O19_7 C32_5 1_555 1_555
O22_8 C32_5 1_555 1_555
C32_5 C33_5 1_555 1_555
C33_5 C34_5 1_555 1_555
C34_5 H18_5 1_555 1_555
C35_5 C34_5 1_555 1_555
H19_5 C35_5 1_555 1_555
C36_5 C35_5 1_555 1_555
C37_5 C36_5 1_555 1_555
H20_5 C37_5 1_555 1_555
C38_5 C33_5 1_555 1_555
H21_5 C38_5 1_555 1_555
C39_5 C20_5 1_555 1_555
C40_5 C22_5 1_555 1_555
H22_5 C40_5 1_555 1_555
C6_5 C7_5 1_555 1_555
C17_5 C18_5 1_555 1_555
C21_5 C22_5 1_555 1_555
C27_5 C30_5 1_555 1_555
C28_5 C29_5 1_555 1_555
C30_5 C31_5 1_555 1_555
C36_5 C39_5 1_555 1_555
C37_5 C38_5 1_555 1_555
C39_5 C40_5 1_555 1_555
O19 C1_6 1_555 1_555
O22_2 C1_6 1_555 1_555
C1_6 C2_6 1_555 1_555
C2_6 C3_6 1_555 1_555
C3_6 H1_6 1_555 1_555
C4_6 C3_6 1_555 1_555
H2_6 C4_6 1_555 1_555
C5_6 C4_6 1_555 1_555
C6_6 C5_6 1_555 1_555
H3_6 C6_6 1_555 1_555
C7_6 C2_6 1_555 1_555
H4_6 C7_6 1_555 1_555
C8_6 C5_6 1_555 1_555
C9_6 C8_6 1_555 1_555
H5_6 C9_6 1_555 1_555
C10_6 C8_6 1_555 1_555
H6_6 C10_6 1_555 1_555
C11_6 C10_6 1_555 1_555
O19_4 C12_6 1_555 1_555
O22_3 C12_6 1_555 1_555
C12_6 C13_6 1_555 1_555
C13_6 C14_6 1_555 1_555
C14_6 H7_6 1_555 1_555
C15_6 C14_6 1_555 1_555
H8_6 C15_6 1_555 1_555
C16_6 C15_6 1_555 1_555
C17_6 C16_6 1_555 1_555
H9_6 C17_6 1_555 1_555
C18_6 C13_6 1_555 1_555
H10_6 C18_6 1_555 1_555
C19_6 C16_6 1_555 1_555
C20_6 C19_6 1_555 1_555
H11_6 C20_6 1_555 1_555
C21_6 C19_6 1_555 1_555
H12_6 C21_6 1_555 1_555
C22_6 C11_6 1_555 1_555
O18_6 C23_6 1_555 1_555
O21_5 C23_6 1_555 1_555
C23_6 C24_6 1_555 1_555
C24_6 C25_6 1_555 1_555
C25_6 H13_6 1_555 1_555
C26_6 C25_6 1_555 1_555
H14_6 C26_6 1_555 1_555
C27_6 C26_6 1_555 1_555
C28_6 C27_6 1_555 1_555
H15_6 C28_6 1_555 1_555
C29_6 C24_6 1_555 1_555
H16_6 C29_6 1_555 1_555
C30_6 C9_6 1_555 1_555
C31_6 C11_6 1_555 1_555
H17_6 C31_6 1_555 1_555
O18_7 C32_6 1_555 1_555
O21_8 C32_6 1_555 1_555
C32_6 C33_6 1_555 1_555
C33_6 C34_6 1_555 1_555
C34_6 H18_6 1_555 1_555
C35_6 C34_6 1_555 1_555
H19_6 C35_6 1_555 1_555
C36_6 C35_6 1_555 1_555
C37_6 C36_6 1_555 1_555
H20_6 C37_6 1_555 1_555
C38_6 C33_6 1_555 1_555
H21_6 C38_6 1_555 1_555
C39_6 C20_6 1_555 1_555
C40_6 C22_6 1_555 1_555
H22_6 C40_6 1_555 1_555
C6_6 C7_6 1_555 1_555
C17_6 C18_6 1_555 1_555
C21_6 C22_6 1_555 1_555
C27_6 C30_6 1_555 1_555
C28_6 C29_6 1_555 1_555
C30_6 C31_6 1_555 1_555
C36_6 C39_6 1_555 1_555
C37_6 C38_6 1_555 1_555
C39_6 C40_6 1_555 1_555
O18_2 C1_7 1_555 1_555
O21 C1_7 1_555 1_555
C1_7 C2_7 1_555 1_555
C2_7 C3_7 1_555 1_555
C3_7 H1_7 1_555 1_555
C4_7 C3_7 1_555 1_555
H2_7 C4_7 1_555 1_555
C5_7 C4_7 1_555 1_555
C6_7 C5_7 1_555 1_555
H3_7 C6_7 1_555 1_555
C7_7 C2_7 1_555 1_555
H4_7 C7_7 1_555 1_555
C8_7 C5_7 1_555 1_555
C9_7 C8_7 1_555 1_555
H5_7 C9_7 1_555 1_555
C10_7 C8_7 1_555 1_555
H6_7 C10_7 1_555 1_555
C11_7 C10_7 1_555 1_555
O18_3 C12_7 1_555 1_555
O21_4 C12_7 1_555 1_555
C12_7 C13_7 1_555 1_555
C13_7 C14_7 1_555 1_555
C14_7 H7_7 1_555 1_555
C15_7 C14_7 1_555 1_555
H8_7 C15_7 1_555 1_555
C16_7 C15_7 1_555 1_555
C17_7 C16_7 1_555 1_555
H9_7 C17_7 1_555 1_555
C18_7 C13_7 1_555 1_555
H10_7 C18_7 1_555 1_555
C19_7 C16_7 1_555 1_555
C20_7 C19_7 1_555 1_555
H11_7 C20_7 1_555 1_555
C21_7 C19_7 1_555 1_555
H12_7 C21_7 1_555 1_555
C22_7 C11_7 1_555 1_555
O19_5 C23_7 1_555 1_555
O22_6 C23_7 1_555 1_555
C23_7 C24_7 1_555 1_555
C24_7 C25_7 1_555 1_555
C25_7 H13_7 1_555 1_555
C26_7 C25_7 1_555 1_555
H14_7 C26_7 1_555 1_555
C27_7 C26_7 1_555 1_555
C28_7 C27_7 1_555 1_555
H15_7 C28_7 1_555 1_555
C29_7 C24_7 1_555 1_555
H16_7 C29_7 1_555 1_555
C30_7 C9_7 1_555 1_555
C31_7 C11_7 1_555 1_555
H17_7 C31_7 1_555 1_555
O19_8 C32_7 1_555 1_555
O22_7 C32_7 1_555 1_555
C32_7 C33_7 1_555 1_555
C33_7 C34_7 1_555 1_555
C34_7 H18_7 1_555 1_555
C35_7 C34_7 1_555 1_555
H19_7 C35_7 1_555 1_555
C36_7 C35_7 1_555 1_555
C37_7 C36_7 1_555 1_555
H20_7 C37_7 1_555 1_555
C38_7 C33_7 1_555 1_555
H21_7 C38_7 1_555 1_555
C39_7 C20_7 1_555 1_555
C40_7 C22_7 1_555 1_555
H22_7 C40_7 1_555 1_555
C6_7 C7_7 1_555 1_555
C17_7 C18_7 1_555 1_555
C21_7 C22_7 1_555 1_555
C27_7 C30_7 1_555 1_555
C28_7 C29_7 1_555 1_555
C30_7 C31_7 1_555 1_555
C36_7 C39_7 1_555 1_555
C37_7 C38_7 1_555 1_555
C39_7 C40_7 1_555 1_555
O19_2 C1_8 1_555 1_555
O22 C1_8 1_555 1_555
C1_8 C2_8 1_555 1_555
C2_8 C3_8 1_555 1_555
C3_8 H1_8 1_555 1_555
C4_8 C3_8 1_555 1_555
H2_8 C4_8 1_555 1_555
C5_8 C4_8 1_555 1_555
C6_8 C5_8 1_555 1_555
H3_8 C6_8 1_555 1_555
C7_8 C2_8 1_555 1_555
H4_8 C7_8 1_555 1_555
C8_8 C5_8 1_555 1_555
C9_8 C8_8 1_555 1_555
H5_8 C9_8 1_555 1_555
C10_8 C8_8 1_555 1_555
H6_8 C10_8 1_555 1_555
C11_8 C10_8 1_555 1_555
O19_3 C12_8 1_555 1_555
O22_4 C12_8 1_555 1_555
C12_8 C13_8 1_555 1_555
C13_8 C14_8 1_555 1_555
C14_8 H7_8 1_555 1_555
C15_8 C14_8 1_555 1_555
H8_8 C15_8 1_555 1_555
C16_8 C15_8 1_555 1_555
C17_8 C16_8 1_555 1_555
H9_8 C17_8 1_555 1_555
C18_8 C13_8 1_555 1_555
H10_8 C18_8 1_555 1_555
C19_8 C16_8 1_555 1_555
C20_8 C19_8 1_555 1_555
H11_8 C20_8 1_555 1_555
C21_8 C19_8 1_555 1_555
H12_8 C21_8 1_555 1_555
C22_8 C11_8 1_555 1_555
O18_5 C23_8 1_555 1_555
O21_6 C23_8 1_555 1_555
C23_8 C24_8 1_555 1_555
C24_8 C25_8 1_555 1_555
C25_8 H13_8 1_555 1_555
C26_8 C25_8 1_555 1_555
H14_8 C26_8 1_555 1_555
C27_8 C26_8 1_555 1_555
C28_8 C27_8 1_555 1_555
H15_8 C28_8 1_555 1_555
C29_8 C24_8 1_555 1_555
H16_8 C29_8 1_555 1_555
C30_8 C9_8 1_555 1_555
C31_8 C11_8 1_555 1_555
H17_8 C31_8 1_555 1_555
O18_8 C32_8 1_555 1_555
O21_7 C32_8 1_555 1_555
C32_8 C33_8 1_555 1_555
C33_8 C34_8 1_555 1_555
C34_8 H18_8 1_555 1_555
C35_8 C34_8 1_555 1_555
H19_8 C35_8 1_555 1_555
C36_8 C35_8 1_555 1_555
C37_8 C36_8 1_555 1_555
H20_8 C37_8 1_555 1_555
C38_8 C33_8 1_555 1_555
H21_8 C38_8 1_555 1_555
C39_8 C20_8 1_555 1_555
C40_8 C22_8 1_555 1_555
H22_8 C40_8 1_555 1_555
C6_8 C7_8 1_555 1_555
C17_8 C18_8 1_555 1_555
C21_8 C22_8 1_555 1_555
C27_8 C30_8 1_555 1_555
C28_8 C29_8 1_555 1_555
C30_8 C31_8 1_555 1_555
C36_8 C39_8 1_555 1_555
C37_8 C38_8 1_555 1_555
C39_8 C40_8 1_555 1_555

#END
