
###############################################################################
#
# This file contains modified crystal structure data generated from the
# MOF subset of the Cambridge Structural Database (CSD) v543 
# hosted by the Cambridge Crystallographic Data Centre (CCDC).
#
# This work is licensed under the Creative Commons
# Attribution-NonCommercial-ShareAlike 4.0 International License.
# To view a copy of this license, visit
# http://creativecommons.org/licenses/by-nc-sa/4.0/
# or send a letter to
# Creative Commons, PO Box 1866, Mountain View, CA 94042, USA.
#
# CIF created using the CSD Python API on 29 September 2022
# The structure has been converted into the P1 space group
# The structure has a 3D framework
# The original CSD entry IPAQAU is in the hexagonal crystal system
# The original CSD entry IPAQAU is in a Sohncke space group
# The framework has been calculated to contain at least 10.0% void space
# The void calculation uses a probe of radius 1.32A, grid spacing 0.4
#
###############################################################################

data_IPAQAU
_chemical_formula_moiety         '(C216 H120 Ba24 N24 O132)n'
_symmetry_cell_setting           triclinic
_symmetry_space_group_name_H-M   'P 1'
_symmetry_Int_Tables_number      1
_space_group_name_Hall           'P 1'
loop_
_symmetry_equiv_pos_site_id
_symmetry_equiv_pos_as_xyz
1 x,y,z
_cell_length_a                   13.841(4)
_cell_length_b                   13.841(4)
_cell_length_c                   47.743(14)
_cell_angle_alpha                90
_cell_angle_beta                 90
_cell_angle_gamma                120
_cell_volume                     7920.91
loop_
_atom_site_label
_atom_site_type_symbol
_atom_site_fract_x
_atom_site_fract_y
_atom_site_fract_z
Ba1 Ba 0.30536(12) 0.65268(6) 0.0833
N2 N 0.0119(13) 0.3837(10) 0.0448(2)
H2 H 0.0824 0.4127 0.0477
O7 O 0.2940(12) 0.5000(13) 0.2125(2)
O8 O 0.3223(15) 0.452(2) 0.1695(3)
O9 O 0.1177(11) 0.4528(13) 0.0946(2)
H3 H 0.1311 0.4684 0.0013
C11 C 0.0599(15) 0.3915(15) 0.2020(3)
H6 H 0.0827 0.4062 0.2206
C12 C 0.1364(15) 0.4129(18) 0.1821(4)
C13 C 0.1067(16) 0.4024(16) 0.1535(3)
H7 H 0.1603 0.4208 0.1396
C16 C 0.2590(15) 0.4596(17) 0.1881(3)
C17 C 0.0157(15) 0.3906(13) 0.0948(3)
Ba11 Ba 0.32685(7) 0.65370(10) 0.2500
Ba14 Ba 0.46822(11) 0.45493(15) 0.21141(2)
Ba17 Ba 0.45493(15) 0.46822(11) 0.12192(2)
O25 O 0.4676(15) 0.6750(11) 0.1165(2)
O26 O 0.4676(15) 0.7926(10) 0.0502(2)
O27 O 0.2525(9) 0.5009(14) 0.0421(2)
O28 O 0.2525(9) 0.7516(11) 0.1245(2)
O30 O 0.3493(12) 0.4684(16) 0.0754(2)
O32 O 0.3493(12) 0.8809(11) 0.0912(2)
O40 O 0.1177(11) 0.6649(17) 0.0721(2)
Ba2 Ba 0.32685(7) 0.67315(7) 0.9167
O1 O 0.2178(13) 0.5045(11) 0.9539(2)
O2 O 0.0955(11) 0.4920(10) 0.92215(19)
C1 C 0.1149(16) 0.4742(14) 0.9470(3)
C2 C 0.0251(13) 0.4061(12) 0.9673(3)
C3 C 0.0572(13) 0.4217(13) 0.9961(3)
H9 H 0.0319 0.7856 0.8699
O23 O 0.4955(11) 0.7822(13) 0.8794(2)
O24 O 0.5080(10) 0.9045(11) 0.91118(19)
O33 O 0.2060(18) 0.7060(12) 0.8792(2)
O35 O 0.2940(12) 0.7940(18) 0.9542(2)
O36 O 0.1297(25) 0.6777(15) 0.8362(3)
O41 O 0.3188(14) 0.4718(17) 0.9013(2)
O42 O 0.5282(17) 0.6812(14) 0.9320(2)
N1 N 0.9564(12) 0.3495(11) 0.1178(2)
H1 H 0.8855 0.3090 0.1155
O5 O 0.7516(11) 0.2525(9) 0.2088(2)
O6 O 0.8809(11) 0.3493(12) 0.2421(2)
O10 O 0.8470(10) 0.3188(14) 0.0680(2)
C4 C 0.9736(14) 0.3642(12) 0.0164(3)
C5 C 0.8614(16) 0.2906(15) 0.0087(3)
H4 H 0.8053 0.2534 0.0219
C9 C 0.8547(15) 0.3155(14) 0.2160(3)
C10 C 0.9479(16) 0.3481(14) 0.1957(3)
C14 C 0.9950(16) 0.3638(14) 0.1464(3)
C15 C 0.9157(15) 0.3349(15) 0.1669(3)
H8 H 0.8413 0.3068 0.1620
C18 C 0.9445(17) 0.3596(13) 0.0675(3)
Ba5 Ba 0.65268(13) 0.30536(12) 0.2500
Ba10 Ba 0.65370(10) 0.32685(7) 0.0834
Ba18 Ba 0.98671(10) 0.45493(15) 0.28859(2)
O37 O 0.452(2) 0.1297(25) 0.0028(3)
Ba3 Ba 0.98671(10) 0.53178(11) 0.87808(2)
O3 O 0.6750(11) 0.2074(10) 0.9498(2)
O4 O 0.6518(17) 0.1189(17) 0.9904(4)
C6 C 0.8400(18) 0.2771(14) 0.9795(4)
C7 C 0.9159(17) 0.3374(15) 0.9599(3)
H5 H 0.8943 0.3324 0.9413
C8 C 0.720(2) 0.1976(16) 0.9725(4)
O11 O 0.978(2) 0.736(3) 0.8795(4)
H10 H 0.9839 0.7574 0.8964
Ba4 Ba 0.46822(11) 0.01329(10) 0.95525(2)
N3 N 0.6505(11) 0.0436(12) 0.7155(2)
H11 H 0.6910 0.1145 0.7178
O14 O 0.7926(10) 0.3250(11) 0.8835(2)
O15 O 0.8811(17) 0.3482(17) 0.8429(4)
O16 O 0.7475(9) 0.2484(11) 0.6245(2)
O17 O 0.6507(12) 0.1191(11) 0.5912(2)
O21 O 0.6812(14) 0.1530(10) 0.7653(2)
C22 C 0.6358(12) 0.0264(14) 0.8169(3)
C23 C 0.7094(15) 0.1386(16) 0.8246(3)
H14 H 0.7466 0.1947 0.8114
C24 C 0.7229(14) 0.1600(18) 0.8538(4)
C25 C 0.6626(15) 0.0841(17) 0.8734(3)
H15 H 0.6676 0.1057 0.8920
C26 C 0.8024(16) 0.280(2) 0.8608(4)
C27 C 0.6845(14) 0.1453(15) 0.6173(3)
C28 C 0.6519(14) 0.0521(16) 0.6376(3)
C32 C 0.6362(14) 0.0050(16) 0.6869(3)
C33 C 0.6651(15) 0.0843(15) 0.6664(3)
H18 H 0.6932 0.1587 0.6713
C36 C 0.6404(13) 0.0555(17) 0.7658(3)
O22 O 0.264(3) 0.022(2) 0.9538(4)
H20 H 0.2426 0.0161 0.9369
Ba6 Ba 0.69464(12) 0.34732(6) 0.5833
Ba8 Ba 0.65268(6) 0.34732(13) 0.9166
Ba13 Ba 0.67315(7) 0.34630(10) 0.7500
Ba15 Ba 0.54507(15) 0.01329(10) 0.54475(2)
O29 O 0.4684(16) 0.1191(11) 0.9088(2)
O31 O 0.8809(11) 0.5316(16) 0.9246(2)
O38 O 0.8703(25) 0.548(2) 0.8305(3)
N4 N 0.6163(10) 0.9881(13) 0.7885(2)
H12 H 0.5873 0.9176 0.7856
O18 O 0.5000(13) 0.7060(12) 0.6208(2)
O19 O 0.548(2) 0.6777(15) 0.6638(3)
O20 O 0.5472(13) 0.8823(11) 0.7387(2)
C19 C 0.5258(14) 0.8851(16) 0.8863(3)
C20 C 0.5939(12) 0.9749(13) 0.8660(3)
C21 C 0.5783(13) 0.9428(13) 0.8372(3)
H13 H 0.5316 0.8689 0.8320
C29 C 0.6085(15) 0.9401(15) 0.6313(3)
H16 H 0.5938 0.9173 0.6127
C30 C 0.5871(18) 0.8636(15) 0.6512(4)
C31 C 0.5976(16) 0.8933(16) 0.6798(3)
H17 H 0.5792 0.8397 0.6937
C34 C 0.5404(17) 0.7410(15) 0.6452(3)
C35 C 0.6094(13) 0.9843(15) 0.7385(3)
H19 H 0.2144 0.9681 0.9634
Ba7 Ba 0.34732(13) 0.69464(12) 0.7500
Ba12 Ba 0.34630(10) 0.67315(7) 0.5834
Ba16 Ba 0.53178(11) 0.54507(15) 0.71141(2)
Ba19 Ba 0.54507(15) 0.53178(11) 0.62192(2)
O39 O 0.3223(15) 0.8703(25) 0.9972(3)
Ba14_2 Ba 0.01329(19) 0.46822(11) 0.37808(2)
Ba19_2 Ba 0.01329(19) 0.54507(15) 0.78859(2)
N2_2 N 0.6282(16) 0.0119(13) 0.2115(2)
H2_2 H 0.6697 0.0824 0.2144
O1_2 O 0.7133(17) 0.2178(13) 0.1206(2)
O2_2 O 0.6035(15) 0.0955(11) 0.08882(19)
O7_2 O 0.7940(18) 0.2940(12) 0.3792(2)
O8_2 O 0.8703(25) 0.3223(15) 0.3362(3)
O9_2 O 0.6649(17) 0.1177(11) 0.2613(2)
C1_2 C 0.6407(21) 0.1149(16) 0.1137(3)
C2_2 C 0.6190(18) 0.0251(13) 0.1340(3)
C3_2 C 0.6355(18) 0.0572(13) 0.1628(3)
H3_2 H 0.6627 0.1311 0.1680
C11_2 C 0.6684(21) 0.0599(15) 0.3687(3)
H6_2 H 0.6765 0.0827 0.3873
C12_2 C 0.7235(23) 0.1364(15) 0.3488(4)
C13_2 C 0.7043(23) 0.1067(16) 0.3202(3)
H7_2 H 0.7395 0.1603 0.3063
C16_2 C 0.7994(23) 0.2590(15) 0.3548(3)
C17_2 C 0.6251(20) 0.0157(15) 0.2615(3)
H9_2 H 0.2463 0.0319 0.0366
Ba11_2 Ba 0.67315(12) 0.32685(7) 0.4167
O23_2 O 0.7133(17) 0.4955(11) 0.0461(2)
O24_2 O 0.6035(15) 0.5080(10) 0.07785(19)
O25_2 O 0.7926(19) 0.4676(15) 0.2831(2)
O26_2 O 0.6750(18) 0.4676(15) 0.2169(2)
O28_2 O 0.5009(14) 0.2525(9) 0.2912(2)
O32_2 O 0.4684(16) 0.3493(12) 0.2579(2)
O33_2 O 0.5000(22) 0.2060(18) 0.0458(2)
O35_2 O 0.5000(22) 0.2940(12) 0.1208(2)
O40_2 O 0.4528(20) 0.1177(11) 0.2387(2)
O42_2 O 0.8470(22) 0.5282(17) 0.0987(2)
Ba3_2 Ba 0.45493(15) 0.98671(10) 0.04475(2)
N1_2 N 0.6069(16) 0.9564(12) 0.2845(2)
H1_2 H 0.5765 0.8855 0.2822
O4_2 O 0.5329(24) 0.6518(17) 0.1571(4)
O5_2 O 0.4991(14) 0.7516(11) 0.3755(2)
O6_2 O 0.5316(16) 0.8809(11) 0.4088(2)
O10_2 O 0.5282(17) 0.8470(10) 0.2347(2)
C4_2 C 0.6094(18) 0.9736(14) 0.1831(3)
C5_2 C 0.5708(22) 0.8614(16) 0.1754(3)
H4_2 H 0.5519 0.8053 0.1886
C6_2 C 0.5629(23) 0.8400(18) 0.1462(4)
C7_2 C 0.5785(23) 0.9159(17) 0.1266(3)
H5_2 H 0.5619 0.8943 0.1080
C8_2 C 0.5224(26) 0.720(2) 0.1392(4)
C9_2 C 0.5392(21) 0.8547(15) 0.3827(3)
C10_2 C 0.5998(21) 0.9479(16) 0.3624(3)
C14_2 C 0.6312(21) 0.9950(16) 0.3131(3)
C15_2 C 0.5808(21) 0.9157(15) 0.3336(3)
H8_2 H 0.5345 0.8413 0.3287
C18_2 C 0.5849(21) 0.9445(17) 0.2342(3)
O11_2 O 0.242(4) 0.978(2) 0.0462(4)
H10_2 H 0.2265 0.9839 0.0631
O15_2 O 0.5329(24) 0.8811(17) 0.0096(4)
C19_2 C 0.6407(21) 0.5258(14) 0.0530(3)
C20_2 C 0.6190(18) 0.5939(12) 0.0327(3)
C21_2 C 0.6355(18) 0.5783(13) 0.0039(3)
C24_2 C 0.5629(23) 0.7229(14) 0.0205(4)
C25_2 C 0.5785(23) 0.6626(15) 0.0401(3)
H15_2 H 0.5619 0.6676 0.0587
C26_2 C 0.5224(26) 0.8024(16) 0.0275(4)
O22_2 O 0.242(4) 0.264(3) 0.1205(4)
H19_2 H 0.2463 0.2144 0.1301
H20_2 H 0.2265 0.2426 0.1036
Ba5_2 Ba 0.34732(18) 0.65268(13) 0.4166
Ba18_2 Ba 0.53178(18) 0.98671(10) 0.45525(2)
O39_2 O 0.4520(29) 0.3223(15) 0.1638(3)
N3_2 N 0.6069(16) 0.6505(11) 0.8822(2)
H11_2 H 0.5765 0.6910 0.8845
N4_2 N 0.6282(16) 0.6163(10) 0.9552(2)
H12_2 H 0.6697 0.5873 0.9523
O16_2 O 0.4991(14) 0.7475(9) 0.7912(2)
O17_2 O 0.5316(16) 0.6507(12) 0.7579(2)
O18_2 O 0.7940(18) 0.5000(13) 0.7875(2)
O20_2 O 0.6649(17) 0.5472(13) 0.9054(2)
H13_2 H 0.6627 0.5316 0.9987
C22_2 C 0.6094(18) 0.6358(12) 0.9836(3)
C23_2 C 0.5708(22) 0.7094(15) 0.9913(3)
H14_2 H 0.5519 0.7466 0.9781
C27_2 C 0.5392(21) 0.6845(14) 0.7840(3)
C28_2 C 0.5998(21) 0.6519(14) 0.8043(3)
C29_2 C 0.6684(21) 0.6085(15) 0.7980(3)
H16_2 H 0.6765 0.5938 0.7794
C30_2 C 0.7235(23) 0.5871(18) 0.8179(4)
C31_2 C 0.7043(23) 0.5976(16) 0.8465(3)
H17_2 H 0.7395 0.5792 0.8604
C32_2 C 0.6312(21) 0.6362(14) 0.8536(3)
C33_2 C 0.5808(21) 0.6651(15) 0.8331(3)
H18_2 H 0.5345 0.6932 0.8380
C34_2 C 0.7994(23) 0.5404(17) 0.8119(3)
C35_2 C 0.6251(20) 0.6094(13) 0.9052(3)
C36_2 C 0.5849(21) 0.6404(13) 0.9325(3)
N4_3 N 0.0119(13) 0.6282(16) 0.1219(2)
H12_3 H 0.0824 0.6697 0.1190
O12 O 0.2178(13) 0.7133(17) 0.2128(2)
O13 O 0.0955(11) 0.6035(15) 0.24452(19)
C19_3 C 0.1149(16) 0.6407(21) 0.2197(3)
C20_3 C 0.0251(13) 0.6190(18) 0.1994(3)
C21_3 C 0.0572(13) 0.6355(18) 0.1706(3)
H13_3 H 0.1311 0.6627 0.1654
C31_3 C 0.1067(16) 0.7043(23) 0.0132(3)
H17_3 H 0.1603 0.7395 0.0271
C35_3 C 0.0157(15) 0.6251(20) 0.0719(3)
H19_3 H 0.0319 0.2463 0.2968
O34 O 0.2060(18) 0.5000(22) 0.2875(2)
O39_3 O 0.1297(25) 0.4520(29) 0.3305(3)
C29_3 C 0.0599(15) 0.6684(21) 0.9647(3)
H16_3 H 0.0827 0.6765 0.9461
C30_3 C 0.1364(15) 0.7235(23) 0.9846(4)
C34_3 C 0.2590(15) 0.7994(23) 0.9786(3)
N1_3 N 0.6505(11) 0.6069(16) 0.4511(2)
H1_3 H 0.6910 0.5765 0.4488
N2_3 N 0.6163(10) 0.6282(16) 0.3781(2)
H2_3 H 0.5873 0.6697 0.3810
O1_3 O 0.4955(11) 0.7133(17) 0.2872(2)
O2_3 O 0.5080(10) 0.6035(15) 0.25548(19)
O4_3 O 0.8811(17) 0.5329(24) 0.3237(4)
O5_3 O 0.7475(9) 0.4991(14) 0.5421(2)
O6_3 O 0.6507(12) 0.5316(16) 0.5754(2)
O7_3 O 0.5000(13) 0.7940(18) 0.5458(2)
O8_3 O 0.548(2) 0.8703(25) 0.5028(3)
O9_3 O 0.5472(13) 0.6649(17) 0.4279(2)
O10_3 O 0.6812(14) 0.5282(17) 0.4013(2)
C1_3 C 0.5258(14) 0.6407(21) 0.2803(3)
C2_3 C 0.5939(12) 0.6190(18) 0.3006(3)
C3_3 C 0.5783(13) 0.6355(18) 0.3294(3)
H3_3 H 0.5316 0.6627 0.3346
C4_3 C 0.6358(12) 0.6094(18) 0.3497(3)
C5_3 C 0.7094(15) 0.5708(22) 0.3420(3)
H4_3 H 0.7466 0.5519 0.3552
C6_3 C 0.7229(14) 0.5629(23) 0.3128(4)
C7_3 C 0.6626(15) 0.5785(23) 0.2932(3)
H5_3 H 0.6676 0.5619 0.2746
C8_3 C 0.8024(16) 0.5224(26) 0.3058(4)
C9_3 C 0.6845(14) 0.5392(21) 0.5493(3)
C10_3 C 0.6519(14) 0.5998(21) 0.5290(3)
C11_3 C 0.6085(15) 0.6684(21) 0.5353(3)
H6_3 H 0.5938 0.6765 0.5539
C12_3 C 0.5871(18) 0.7235(23) 0.5154(4)
C13_3 C 0.5976(16) 0.7043(23) 0.4868(3)
H7_3 H 0.5792 0.7395 0.4729
C14_3 C 0.6362(14) 0.6312(21) 0.4797(3)
C15_3 C 0.6651(15) 0.5808(21) 0.5002(3)
H8_3 H 0.6932 0.5345 0.4953
C16_3 C 0.5404(17) 0.7994(23) 0.5214(3)
C17_3 C 0.6094(13) 0.6251(20) 0.4281(3)
C18_3 C 0.6404(13) 0.5849(21) 0.4008(3)
O11_3 O 0.264(3) 0.242(4) 0.2128(4)
H9_3 H 0.2144 0.2463 0.2032
H10_3 H 0.2426 0.2265 0.2297
N3_3 N 0.9564(12) 0.6069(16) 0.0489(2)
H11_3 H 0.8855 0.5765 0.0512
O15_3 O 0.6518(17) 0.5329(24) 0.1763(4)
C22_3 C 0.9736(14) 0.6094(18) 0.1503(3)
C23_3 C 0.8614(16) 0.5708(22) 0.1580(3)
H14_3 H 0.8053 0.5519 0.1448
C24_3 C 0.8400(18) 0.5629(23) 0.1872(4)
C25_3 C 0.9159(17) 0.5785(23) 0.2068(3)
H15_3 H 0.8943 0.5619 0.2254
C26_3 C 0.720(2) 0.5224(26) 0.1942(4)
C32_3 C 0.9950(16) 0.6312(21) 0.0203(3)
H18_3 H 0.8413 0.5345 0.0047
C36_3 C 0.9445(17) 0.5849(21) 0.0992(3)
O22_3 O 0.978(2) 0.242(4) 0.2872(4)
H20_3 H 0.9839 0.2265 0.2703
O25_3 O 0.3250(11) 0.7926(19) 0.4498(2)
O26_3 O 0.2074(10) 0.6750(18) 0.3835(2)
O28_3 O 0.2484(11) 0.5009(14) 0.4579(2)
O32_3 O 0.1191(11) 0.4684(16) 0.4246(2)
O40_3 O 0.3351(17) 0.4528(20) 0.4054(2)
O42_3 O 0.3188(14) 0.8470(22) 0.2653(2)
O16_3 O 0.7516(11) 0.4991(14) 0.9579(2)
C27_3 C 0.8547(15) 0.5392(21) 0.9507(3)
C28_3 C 0.9479(16) 0.5998(21) 0.9710(3)
C33_3 C 0.9157(15) 0.5808(21) 0.9998(3)
N4_4 N 0.3837(10) 0.0119(13) 0.2885(2)
H12_4 H 0.4127 0.0824 0.2856
O12_2 O 0.5045(11) 0.2178(13) 0.3794(2)
O13_2 O 0.4920(10) 0.0955(11) 0.41118(19)
C19_4 C 0.4742(14) 0.1149(16) 0.3863(3)
C20_4 C 0.4061(12) 0.0251(13) 0.3660(3)
C21_4 C 0.4217(13) 0.0572(13) 0.3372(3)
H13_4 H 0.4684 0.1311 0.3320
C29_4 C 0.3915(15) 0.0599(15) 0.1313(3)
H16_4 H 0.4062 0.0827 0.1127
C30_4 C 0.4129(18) 0.1364(15) 0.1512(4)
C31_4 C 0.4024(16) 0.1067(16) 0.1798(3)
H17_4 H 0.4208 0.1603 0.1937
C34_4 C 0.4596(17) 0.2590(15) 0.1452(3)
C35_4 C 0.3906(13) 0.0157(15) 0.2385(3)
H19_4 H 0.7856 0.0319 0.4634
O34_2 O 0.7060(12) 0.2060(18) 0.4542(2)
O39_4 O 0.6777(15) 0.1297(25) 0.4972(3)
N1_4 N 0.0436(12) 0.6505(11) 0.6178(2)
H1_4 H 0.1145 0.6910 0.6155
O4_4 O 0.3482(17) 0.8811(17) 0.4904(4)
O5_4 O 0.2484(11) 0.7475(9) 0.7088(2)
O6_4 O 0.1191(11) 0.6507(12) 0.7421(2)
O10_4 O 0.1530(10) 0.6812(14) 0.5680(2)
C4_4 C 0.0264(14) 0.6358(12) 0.5164(3)
C5_4 C 0.1386(16) 0.7094(15) 0.5087(3)
H4_4 H 0.1947 0.7466 0.5219
C6_4 C 0.1600(18) 0.7229(14) 0.4795(4)
C7_4 C 0.0841(17) 0.6626(15) 0.4599(3)
H5_4 H 0.1057 0.6676 0.4413
C8_4 C 0.280(2) 0.8024(16) 0.4725(4)
C9_4 C 0.1453(15) 0.6845(14) 0.7160(3)
C10_4 C 0.0521(16) 0.6519(14) 0.6957(3)
C14_4 C 0.0050(16) 0.6362(14) 0.6464(3)
C15_4 C 0.0843(15) 0.6651(15) 0.6669(3)
H8_4 H 0.1587 0.6932 0.6620
C18_4 C 0.0555(17) 0.6404(13) 0.5675(3)
O11_4 O 0.022(2) 0.264(3) 0.3795(4)
H10_4 H 0.0161 0.2426 0.3964
N3_4 N 0.3495(11) 0.9564(12) 0.2155(2)
H11_4 H 0.3090 0.8855 0.2178
O15_4 O 0.1189(17) 0.6518(17) 0.3429(4)
C22_4 C 0.3642(12) 0.9736(14) 0.3169(3)
C23_4 C 0.2906(15) 0.8614(16) 0.3246(3)
H14_4 H 0.2534 0.8053 0.3114
C24_4 C 0.2771(14) 0.8400(18) 0.3538(4)
C25_4 C 0.3374(15) 0.9159(17) 0.3734(3)
H15_4 H 0.3324 0.8943 0.3920
C26_4 C 0.1976(16) 0.720(2) 0.3608(4)
C27_4 C 0.3155(14) 0.8547(15) 0.1173(3)
C28_4 C 0.3481(14) 0.9479(16) 0.1376(3)
C32_4 C 0.3638(14) 0.9950(16) 0.1869(3)
C33_4 C 0.3349(15) 0.9157(15) 0.1664(3)
H18_4 H 0.3068 0.8413 0.1713
C36_4 C 0.3596(13) 0.9445(17) 0.2658(3)
O22_4 O 0.736(3) 0.978(2) 0.4538(4)
H20_4 H 0.7574 0.9839 0.4369
N2_4 N 0.9881(13) 0.6163(10) 0.5448(2)
H2_4 H 0.9176 0.5873 0.5477
O1_4 O 0.7822(13) 0.4955(11) 0.4539(2)
O2_4 O 0.9045(11) 0.5080(10) 0.42215(19)
O7_4 O 0.7060(12) 0.5000(13) 0.7125(2)
O8_4 O 0.6777(15) 0.548(2) 0.6695(3)
O9_4 O 0.8823(11) 0.5472(13) 0.5946(2)
C1_4 C 0.8851(16) 0.5258(14) 0.4470(3)
C2_4 C 0.9749(13) 0.5939(12) 0.4673(3)
C3_4 C 0.9428(13) 0.5783(13) 0.4961(3)
H3_4 H 0.8689 0.5316 0.5013
C11_4 C 0.9401(15) 0.6085(15) 0.7020(3)
H6_4 H 0.9173 0.5938 0.7206
C12_4 C 0.8636(15) 0.5871(18) 0.6821(4)
C13_4 C 0.8933(16) 0.5976(16) 0.6535(3)
H7_4 H 0.8397 0.5792 0.6396
C16_4 C 0.7410(15) 0.5404(17) 0.6881(3)
C17_4 C 0.9843(15) 0.6094(13) 0.5948(3)
H9_4 H 0.9681 0.2144 0.3699
O25_4 O 0.5324(15) 0.3250(11) 0.6165(2)
O26_4 O 0.5324(15) 0.2074(10) 0.5502(2)
O40_4 O 0.8823(11) 0.3351(17) 0.5721(2)
O42_4 O 0.4718(17) 0.3188(14) 0.4320(2)
N1_5 N 0.3931(16) 0.0436(12) 0.7845(2)
H1_5 H 0.4235 0.1145 0.7822
O4_5 O 0.4671(24) 0.3482(17) 0.6571(4)
O5_5 O 0.5009(14) 0.2484(11) 0.8755(2)
O10_5 O 0.4718(17) 0.1530(10) 0.7347(2)
C4_5 C 0.3906(18) 0.0264(14) 0.6831(3)
C5_5 C 0.4292(22) 0.1386(16) 0.6754(3)
H4_5 H 0.4481 0.1947 0.6886
C6_5 C 0.4371(23) 0.1600(18) 0.6462(4)
C7_5 C 0.4215(23) 0.0841(17) 0.6266(3)
H5_5 H 0.4381 0.1057 0.6080
C8_5 C 0.4776(26) 0.280(2) 0.6392(4)
C9_5 C 0.4608(21) 0.1453(15) 0.8827(3)
C10_5 C 0.4002(21) 0.0521(16) 0.8624(3)
C14_5 C 0.3688(21) 0.0050(16) 0.8131(3)
C15_5 C 0.4192(21) 0.0843(15) 0.8336(3)
H8_5 H 0.4655 0.1587 0.8287
C18_5 C 0.4151(21) 0.0555(17) 0.7342(3)
O11_5 O 0.758(4) 0.022(2) 0.5462(4)
H10_5 H 0.7735 0.0161 0.5631
N3_5 N 0.3931(16) 0.3495(11) 0.3822(2)
H11_5 H 0.4235 0.3090 0.3845
N4_5 N 0.3718(16) 0.3837(10) 0.4552(2)
H12_5 H 0.3303 0.4127 0.4523
O12_3 O 0.2867(17) 0.5045(11) 0.5461(2)
O13_3 O 0.3965(15) 0.4920(10) 0.57785(19)
O15_5 O 0.4671(24) 0.1189(17) 0.5096(4)
C19_5 C 0.3593(21) 0.4742(14) 0.5530(3)
C20_5 C 0.3810(18) 0.4061(12) 0.5327(3)
C21_5 C 0.3645(18) 0.4217(13) 0.5039(3)
H13_5 H 0.3373 0.4684 0.4987
C22_5 C 0.3906(18) 0.3642(12) 0.4836(3)
C23_5 C 0.4292(22) 0.2906(15) 0.4913(3)
H14_5 H 0.4481 0.2534 0.4781
C24_5 C 0.4371(23) 0.2771(14) 0.5205(4)
C25_5 C 0.4215(23) 0.3374(15) 0.5401(3)
H15_5 H 0.4381 0.3324 0.5587
C26_5 C 0.4776(26) 0.1976(16) 0.5275(4)
C27_5 C 0.4608(21) 0.3155(14) 0.2840(3)
C28_5 C 0.4002(21) 0.3481(14) 0.3043(3)
C29_5 C 0.3316(21) 0.3915(15) 0.2980(3)
H16_5 H 0.3235 0.4062 0.2794
C30_5 C 0.2765(23) 0.4129(18) 0.3179(4)
C31_5 C 0.2957(23) 0.4024(16) 0.3465(3)
H17_5 H 0.2605 0.4208 0.3604
C32_5 C 0.3688(21) 0.3638(14) 0.3536(3)
C33_5 C 0.4192(21) 0.3349(15) 0.3331(3)
H18_5 H 0.4655 0.3068 0.3380
C34_5 C 0.2006(23) 0.4596(17) 0.3119(3)
C35_5 C 0.3749(20) 0.3906(13) 0.4052(3)
C36_5 C 0.4151(21) 0.3596(13) 0.4325(3)
O22_5 O 0.758(4) 0.736(3) 0.6205(4)
H19_5 H 0.7537 0.7856 0.6301
H20_5 H 0.7735 0.7574 0.6036
N2_5 N 0.3718(16) 0.9881(13) 0.7115(2)
H2_5 H 0.3303 0.9176 0.7144
O1_5 O 0.2867(17) 0.7822(13) 0.6206(2)
O2_5 O 0.3965(15) 0.9045(11) 0.58882(19)
O9_5 O 0.3351(17) 0.8823(11) 0.7613(2)
C1_5 C 0.3593(21) 0.8851(16) 0.6137(3)
C2_5 C 0.3810(18) 0.9749(13) 0.6340(3)
C3_5 C 0.3645(18) 0.9428(13) 0.6628(3)
H3_5 H 0.3373 0.8689 0.6680
C11_5 C 0.3316(21) 0.9401(15) 0.8687(3)
H6_5 H 0.3235 0.9173 0.8873
C12_5 C 0.2765(23) 0.8636(15) 0.8488(4)
C13_5 C 0.2957(23) 0.8933(16) 0.8202(3)
H7_5 H 0.2605 0.8397 0.8063
C16_5 C 0.2006(23) 0.7410(15) 0.8548(3)
C17_5 C 0.3749(20) 0.9843(15) 0.7615(3)
H9_5 H 0.7537 0.9681 0.5366
O25_5 O 0.2074(19) 0.5324(15) 0.7831(2)
O26_5 O 0.3250(18) 0.5324(15) 0.7169(2)
O42_5 O 0.1530(22) 0.4718(17) 0.5987(2)
C9_6 C 0.3155(14) 0.4608(21) 0.0493(3)
C10_6 C 0.3481(14) 0.4002(21) 0.0290(3)
C11_6 C 0.3915(15) 0.3316(21) 0.0353(3)
H6_6 H 0.4062 0.3235 0.0539
C12_6 C 0.4129(18) 0.2765(23) 0.0154(4)
C15_6 C 0.3349(15) 0.4192(21) 0.0002(3)
C16_6 C 0.4596(17) 0.2006(23) 0.0214(3)
N1_6 N 0.3495(11) 0.3931(16) 0.9511(2)
H1_6 H 0.3090 0.4235 0.9488
N2_6 N 0.3837(10) 0.3718(16) 0.8781(2)
H2_6 H 0.4127 0.3303 0.8810
O1_6 O 0.5045(11) 0.2867(17) 0.7872(2)
O2_6 O 0.4920(10) 0.3965(15) 0.75548(19)
O4_6 O 0.1189(17) 0.4671(24) 0.8237(4)
O9_6 O 0.4528(13) 0.3351(17) 0.9279(2)
C1_6 C 0.4742(14) 0.3593(21) 0.7803(3)
C2_6 C 0.4061(12) 0.3810(18) 0.8006(3)
C3_6 C 0.4217(13) 0.3645(18) 0.8294(3)
H3_6 H 0.4684 0.3373 0.8346
C4_6 C 0.3642(12) 0.3906(18) 0.8497(3)
C5_6 C 0.2906(15) 0.4292(22) 0.8420(3)
H4_6 H 0.2534 0.4481 0.8552
C6_6 C 0.2771(14) 0.4371(23) 0.8128(4)
C7_6 C 0.3374(15) 0.4215(23) 0.7932(3)
H5_6 H 0.3324 0.4381 0.7746
C8_6 C 0.1976(16) 0.4776(26) 0.8058(4)
C13_6 C 0.4024(16) 0.2957(23) 0.9868(3)
H7_6 H 0.4208 0.2605 0.9729
C14_6 C 0.3638(14) 0.3688(21) 0.9797(3)
H8_6 H 0.3068 0.4655 0.9953
C17_6 C 0.3906(13) 0.3749(20) 0.9281(3)
C18_6 C 0.3596(13) 0.4151(21) 0.9008(3)
O11_6 O 0.736(3) 0.758(4) 0.7128(4)
H9_6 H 0.7856 0.7537 0.7032
H10_6 H 0.7574 0.7735 0.7297
N3_6 N 0.0436(12) 0.3931(16) 0.5489(2)
H11_6 H 0.1145 0.4235 0.5512
O15_6 O 0.3482(17) 0.4671(24) 0.6763(4)
C22_6 C 0.0264(14) 0.3906(18) 0.6503(3)
C23_6 C 0.1386(16) 0.4292(22) 0.6580(3)
H14_6 H 0.1947 0.4481 0.6448
C24_6 C 0.1600(18) 0.4371(23) 0.6872(4)
C25_6 C 0.0841(17) 0.4215(23) 0.7068(3)
H15_6 H 0.1057 0.4381 0.7254
C26_6 C 0.280(2) 0.4776(26) 0.6942(4)
C27_6 C 0.1453(15) 0.4608(21) 0.4507(3)
C28_6 C 0.0521(16) 0.4002(21) 0.4710(3)
C32_6 C 0.0050(16) 0.3688(21) 0.5203(3)
C33_6 C 0.0843(15) 0.4192(21) 0.4998(3)
H18_6 H 0.1587 0.4655 0.5047
C36_6 C 0.0555(17) 0.4151(21) 0.5992(3)
O22_6 O 0.022(2) 0.758(4) 0.7872(4)
H20_6 H 0.0161 0.7735 0.7703
O23_3 O 0.7822(13) 0.2867(17) 0.7128(2)
O24_3 O 0.9045(11) 0.3965(15) 0.74452(19)
N4_6 N 0.9881(13) 0.3718(16) 0.6219(2)
H12_6 H 0.9176 0.3303 0.6190
C19_6 C 0.8851(16) 0.3593(21) 0.7197(3)
C20_6 C 0.9749(13) 0.3810(18) 0.6994(3)
C21_6 C 0.9428(13) 0.3645(18) 0.6706(3)
H13_6 H 0.8689 0.3373 0.6654
C29_6 C 0.9401(15) 0.3316(21) 0.4647(3)
H16_6 H 0.9173 0.3235 0.4461
C30_6 C 0.8636(15) 0.2765(23) 0.4846(4)
C31_6 C 0.8933(16) 0.2957(23) 0.5132(3)
H17_6 H 0.8397 0.2605 0.5271
C34_6 C 0.7410(15) 0.2006(23) 0.4786(3)
C35_6 C 0.9843(15) 0.3749(20) 0.5719(3)
H19_6 H 0.9681 0.7537 0.7968
loop_
_geom_bond_atom_site_label_1
_geom_bond_atom_site_label_2
_geom_bond_site_symmetry_1
_geom_bond_site_symmetry_2
Ba1 O9 1_555 1_555
N2 H2 1_555 1_555
O7 C16 1_555 1_555
O8 C16 1_555 1_555
O9 C17 1_555 1_555
C11 H6 1_555 1_555
C12 C11 1_555 1_555
C13 C12 1_555 1_555
H7 C13 1_555 1_555
C16 C12 1_555 1_555
Ba11 O7 1_555 1_555
Ba14 O7 1_555 1_555
Ba17 O8 1_555 1_555
O25 Ba1 1_555 1_555
O26 Ba1 1_555 1_555
O27 Ba1 1_555 1_555
O28 Ba1 1_555 1_555
O30 Ba1 1_555 1_555
O32 Ba1 1_555 1_555
O40 Ba1 1_555 1_555
O8 Ba14 1_555 1_555
Ba17 O25 1_555 1_555
Ba17 O30 1_555 1_555
Ba2 O1 1_555 1_555
O1 C1 1_555 1_555
O2 Ba2 1_555 1_555
C1 O2 1_555 1_555
C2 C1 1_555 1_555
C3 C2 1_555 1_555
O23 Ba2 1_555 1_555
O24 Ba2 1_555 1_555
O33 Ba2 1_555 1_555
O35 Ba2 1_555 1_555
O41 Ba2 1_555 1_555
O42 Ba2 1_555 1_555
N1 H1 1_555 1_555
O5 C9 1_555 1_555
O6 C9 1_555 1_555
O10 C18 1_555 1_555
C5 C4 1_555 1_555
H4 C5 1_555 1_555
C9 C10 1_555 1_555
C14 N1 1_555 1_555
C15 C10 1_555 1_555
H8 C15 1_555 1_555
Ba5 O5 1_555 1_555
Ba10 O10 1_555 1_555
Ba18 O6 1_555 1_555
O6 Ba5 1_555 1_555
C14 C15 1_555 1_555
O3 C8 1_555 1_555
O4 C8 1_555 1_555
H5 C7 1_555 1_555
C8 C6 1_555 1_555
O11 Ba3 1_555 1_555
H10 O11 1_555 1_555
Ba4 O3 1_555 1_555
N3 H11 1_555 1_555
O14 Ba3 1_555 1_555
O15 Ba3 1_555 1_555
O16 C27 1_555 1_555
O17 C27 1_555 1_555
O21 C36 1_555 1_555
C23 C22 1_555 1_555
H14 C23 1_555 1_555
C24 C23 1_555 1_555
H15 C25 1_555 1_555
C26 O14 1_555 1_555
C27 C28 1_555 1_555
C32 N3 1_555 1_555
C33 C28 1_555 1_555
H18 C33 1_555 1_555
O22 Ba4 1_555 1_555
H20 O22 1_555 1_555
Ba6 O16 1_555 1_555
Ba8 O3 1_555 1_555
Ba13 O21 1_555 1_555
Ba15 O17 1_555 1_555
O29 Ba4 1_555 1_555
O31 Ba3 1_555 1_555
O38 Ba3 1_555 1_555
O4 Ba4 1_555 1_555
C6 C7 1_555 1_555
O14 Ba8 1_555 1_555
O15 C26 1_555 1_555
O17 Ba6 1_555 1_555
C24 C25 1_555 1_555
C24 C26 1_555 1_555
C32 C33 1_555 1_555
Ba8 O29 1_555 1_555
Ba8 O31 1_555 1_555
N4 H12 1_555 1_555
O23 C19 1_555 1_555
O18 C34 1_555 1_555
O19 C34 1_555 1_555
O20 C35 1_555 1_555
C19 O24 1_555 1_555
C20 C19 1_555 1_555
C21 C20 1_555 1_555
H13 C21 1_555 1_555
C29 H16 1_555 1_555
C30 C29 1_555 1_555
C31 C30 1_555 1_555
H17 C31 1_555 1_555
C34 C30 1_555 1_555
Ba7 O20 1_555 1_555
Ba12 O18 1_555 1_555
Ba16 O19 1_555 1_555
Ba19 O18 1_555 1_555
O19 Ba19 1_555 1_555
Ba5 O9_2 1_555 1_555
Ba10 O1_2 1_555 1_555
N2_2 H2_2 1_555 1_555
O1_2 C1_2 1_555 1_555
O2_2 Ba10 1_555 1_555
O7_2 C16_2 1_555 1_555
O8_2 C16_2 1_555 1_555
O9_2 C17_2 1_555 1_555
C1_2 O2_2 1_555 1_555
C2_2 C1_2 1_555 1_555
C3_2 C2_2 1_555 1_555
H3_2 C3_2 1_555 1_555
C11_2 H6_2 1_555 1_555
C12_2 C11_2 1_555 1_555
C13_2 C12_2 1_555 1_555
H7_2 C13_2 1_555 1_555
C16_2 C12_2 1_555 1_555
Ba11_2 O7_2 1_555 1_555
Ba18 O8_2 1_555 1_555
O23_2 Ba10 1_555 1_555
O24_2 Ba10 1_555 1_555
O25_2 Ba5 1_555 1_555
O26_2 Ba5 1_555 1_555
O28_2 Ba5 1_555 1_555
O32_2 Ba5 1_555 1_555
O33_2 Ba10 1_555 1_555
O35_2 Ba10 1_555 1_555
O40_2 Ba5 1_555 1_555
O42_2 Ba10 1_555 1_555
Ba18 O25_2 1_555 1_555
N1_2 H1_2 1_555 1_555
O25 C8_2 1_555 1_555
O4_2 C8_2 1_555 1_555
O5_2 C9_2 1_555 1_555
O6_2 C9_2 1_555 1_555
O10_2 C18_2 1_555 1_555
C5_2 C4_2 1_555 1_555
H4_2 C5_2 1_555 1_555
C6_2 C5_2 1_555 1_555
H5_2 C7_2 1_555 1_555
C8_2 C6_2 1_555 1_555
C9_2 C10_2 1_555 1_555
C14_2 N1_2 1_555 1_555
C15_2 C10_2 1_555 1_555
H8_2 C15_2 1_555 1_555
O11_2 Ba3_2 1_555 1_555
H10_2 O11_2 1_555 1_555
O23_2 C19_2 1_555 1_555
O24_2 Ba17 1_555 1_555
O26 Ba3_2 1_555 1_555
O15_2 Ba3_2 1_555 1_555
C19_2 O24_2 1_555 1_555
C20_2 C19_2 1_555 1_555
C21_2 C20_2 1_555 1_555
C25_2 C20_2 1_555 1_555
H15_2 C25_2 1_555 1_555
C26_2 O26 1_555 1_555
O22_2 Ba17 1_555 1_555
H19_2 O22_2 1_555 1_555
H20_2 O22_2 1_555 1_555
Ba5_2 O5_2 1_555 1_555
Ba11 O10_2 1_555 1_555
Ba18_2 O6_2 1_555 1_555
O32 Ba3_2 1_555 1_555
O35_2 Ba17 1_555 1_555
O39_2 Ba17 1_555 1_555
O4_2 Ba17 1_555 1_555
O6_2 Ba5_2 1_555 1_555
C6_2 C7_2 1_555 1_555
C14_2 C15_2 1_555 1_555
O15_2 C26_2 1_555 1_555
C24_2 C25_2 1_555 1_555
C24_2 C26_2 1_555 1_555
N3_2 H11_2 1_555 1_555
N4_2 H12_2 1_555 1_555
O16_2 C27_2 1_555 1_555
O17_2 C27_2 1_555 1_555
O18_2 C34_2 1_555 1_555
O38 C34_2 1_555 1_555
O20_2 C35_2 1_555 1_555
O42 C36_2 1_555 1_555
C22_2 N4_2 1_555 1_555
C23_2 C22_2 1_555 1_555
H14_2 C23_2 1_555 1_555
C27_2 C28_2 1_555 1_555
C28_2 C29_2 1_555 1_555
C29_2 H16_2 1_555 1_555
C30_2 C29_2 1_555 1_555
C31_2 C30_2 1_555 1_555
H17_2 C31_2 1_555 1_555
C32_2 N3_2 1_555 1_555
C33_2 C28_2 1_555 1_555
H18_2 C33_2 1_555 1_555
C34_2 C30_2 1_555 1_555
C35_2 N3_2 1_555 1_555
C36_2 N4_2 1_555 1_555
Ba7 O16_2 1_555 1_555
Ba8 O20_2 1_555 1_555
Ba13 O18_2 1_555 1_555
Ba16 O17_2 1_555 1_555
O17_2 Ba7 1_555 1_555
C31_2 C32_2 1_555 1_555
C32_2 C33_2 1_555 1_555
C35_2 C36_2 1_555 1_555
N4_3 H12_3 1_555 1_555
O12 C19_3 1_555 1_555
O40 C35_3 1_555 1_555
C19_3 O13 1_555 1_555
C20_3 C19_3 1_555 1_555
C21_3 C20_3 1_555 1_555
H13_3 C21_3 1_555 1_555
H17_3 C31_3 1_555 1_555
Ba11 O12 1_555 1_555
O13 Ba11 1_555 1_555
Ba11 O34 1_555 1_555
O35 C34_3 1_555 1_555
O39 C34_3 1_555 1_555
C29_3 H16_3 1_555 1_555
C30_3 C29_3 1_555 1_555
C34_3 C30_3 1_555 1_555
Ba5_2 O9_3 1_555 1_555
Ba11 O1_3 1_555 1_555
Ba14 O2_3 1_555 1_555
N1_3 H1_3 1_555 1_555
N2_3 H2_3 1_555 1_555
O1_3 C1_3 1_555 1_555
O2_3 Ba11 1_555 1_555
O25_2 C8_3 1_555 1_555
O4_3 C8_3 1_555 1_555
O5_3 C9_3 1_555 1_555
O6_3 C9_3 1_555 1_555
O7_3 C16_3 1_555 1_555
O8_3 C16_3 1_555 1_555
O9_3 C17_3 1_555 1_555
O10_3 C18_3 1_555 1_555
C1_3 O2_3 1_555 1_555
C2_3 C1_3 1_555 1_555
C3_3 C2_3 1_555 1_555
H3_3 C3_3 1_555 1_555
C4_3 N2_3 1_555 1_555
C5_3 C4_3 1_555 1_555
H4_3 C5_3 1_555 1_555
C6_3 C5_3 1_555 1_555
C7_3 C2_3 1_555 1_555
H5_3 C7_3 1_555 1_555
C8_3 C6_3 1_555 1_555
C9_3 C10_3 1_555 1_555
C10_3 C11_3 1_555 1_555
C11_3 H6_3 1_555 1_555
C12_3 C11_3 1_555 1_555
C13_3 C12_3 1_555 1_555
H7_3 C13_3 1_555 1_555
C14_3 N1_3 1_555 1_555
C15_3 C10_3 1_555 1_555
H8_3 C15_3 1_555 1_555
C16_3 C12_3 1_555 1_555
C17_3 N1_3 1_555 1_555
C18_3 N2_3 1_555 1_555
O11_3 Ba14 1_555 1_555
H9_3 O11_3 1_555 1_555
H10_3 O11_3 1_555 1_555
N3_3 H11_3 1_555 1_555
O26_2 Ba14 1_555 1_555
O15_3 Ba14 1_555 1_555
O42_2 C36_3 1_555 1_555
C23_3 C22_3 1_555 1_555
H14_3 C23_3 1_555 1_555
C24_3 C23_3 1_555 1_555
H15_3 C25_3 1_555 1_555
C26_3 O26_2 1_555 1_555
C32_3 N3_3 1_555 1_555
O22_3 Ba18 1_555 1_555
H20_3 O22_3 1_555 1_555
Ba6 O5_3 1_555 1_555
Ba11_2 O10_3 1_555 1_555
Ba12 O7_3 1_555 1_555
Ba18_2 O8_3 1_555 1_555
Ba19 O6_3 1_555 1_555
O25_3 Ba5_2 1_555 1_555
O26_3 Ba5_2 1_555 1_555
O28_3 Ba5_2 1_555 1_555
O32_2 Ba14 1_555 1_555
O32_3 Ba5_2 1_555 1_555
O39_2 Ba14 1_555 1_555
O40_3 Ba5_2 1_555 1_555
O42_3 Ba11 1_555 1_555
O4_3 Ba18 1_555 1_555
O6_3 Ba6 1_555 1_555
C3_3 C4_3 1_555 1_555
C6_3 C7_3 1_555 1_555
C13_3 C14_3 1_555 1_555
C14_3 C15_3 1_555 1_555
C17_3 C18_3 1_555 1_555
O15_3 C26_3 1_555 1_555
C24_3 C25_3 1_555 1_555
C24_3 C26_3 1_555 1_555
Ba18_2 O25_3 1_555 1_555
O16_3 C27_3 1_555 1_555
O31 C27_3 1_555 1_555
C27_3 C28_3 1_555 1_555
C33_3 C28_3 1_555 1_555
Ba8 O16_3 1_555 1_555
N4_4 H12_4 1_555 1_555
O12_2 C19_4 1_555 1_555
O35_2 C34_4 1_555 1_555
O39_2 C34_4 1_555 1_555
O40_2 C35_4 1_555 1_555
C19_4 O13_2 1_555 1_555
C20_4 C19_4 1_555 1_555
C21_4 C20_4 1_555 1_555
H13_4 C21_4 1_555 1_555
C29_4 H16_4 1_555 1_555
C30_4 C29_4 1_555 1_555
C31_4 C30_4 1_555 1_555
H17_4 C31_4 1_555 1_555
C34_4 C30_4 1_555 1_555
Ba11_2 O12_2 1_555 1_555
O13_2 Ba11_2 1_555 1_555
Ba11_2 O34_2 1_555 1_555
N1_4 H1_4 1_555 1_555
O25_3 C8_4 1_555 1_555
O4_4 C8_4 1_555 1_555
O5_4 C9_4 1_555 1_555
O6_4 C9_4 1_555 1_555
O10_4 C18_4 1_555 1_555
C5_4 C4_4 1_555 1_555
H4_4 C5_4 1_555 1_555
C6_4 C5_4 1_555 1_555
H5_4 C7_4 1_555 1_555
C8_4 C6_4 1_555 1_555
C9_4 C10_4 1_555 1_555
C14_4 N1_4 1_555 1_555
C15_4 C10_4 1_555 1_555
H8_4 C15_4 1_555 1_555
O11_4 Ba14_2 1_555 1_555
H10_4 O11_4 1_555 1_555
N3_4 H11_4 1_555 1_555
O26_3 Ba14_2 1_555 1_555
O15_4 Ba14_2 1_555 1_555
O28 C27_4 1_555 1_555
O32 C27_4 1_555 1_555
O42_3 C36_4 1_555 1_555
C23_4 C22_4 1_555 1_555
H14_4 C23_4 1_555 1_555
C24_4 C23_4 1_555 1_555
H15_4 C25_4 1_555 1_555
C26_4 O26_3 1_555 1_555
C27_4 C28_4 1_555 1_555
C32_4 N3_4 1_555 1_555
C33_4 C28_4 1_555 1_555
H18_4 C33_4 1_555 1_555
O22_4 Ba18_2 1_555 1_555
H20_4 O22_4 1_555 1_555
Ba7 O5_4 1_555 1_555
Ba12 O10_4 1_555 1_555
Ba19_2 O6_4 1_555 1_555
O32_3 Ba14_2 1_555 1_555
O39_3 Ba14_2 1_555 1_555
O4_4 Ba18_2 1_555 1_555
O6_4 Ba7 1_555 1_555
C6_4 C7_4 1_555 1_555
C14_4 C15_4 1_555 1_555
O15_4 C26_4 1_555 1_555
C24_4 C25_4 1_555 1_555
C24_4 C26_4 1_555 1_555
C32_4 C33_4 1_555 1_555
Ba6 O9_4 1_555 1_555
Ba11_2 O1_4 1_555 1_555
N2_4 H2_4 1_555 1_555
O1_4 C1_4 1_555 1_555
O2_4 Ba11_2 1_555 1_555
O7_4 C16_4 1_555 1_555
O8_4 C16_4 1_555 1_555
O9_4 C17_4 1_555 1_555
C1_4 O2_4 1_555 1_555
C2_4 C1_4 1_555 1_555
C3_4 C2_4 1_555 1_555
H3_4 C3_4 1_555 1_555
C11_4 H6_4 1_555 1_555
C12_4 C11_4 1_555 1_555
C13_4 C12_4 1_555 1_555
H7_4 C13_4 1_555 1_555
C16_4 C12_4 1_555 1_555
Ba13 O7_4 1_555 1_555
Ba16 O7_4 1_555 1_555
Ba19 O8_4 1_555 1_555
O25_4 Ba6 1_555 1_555
O26_4 Ba6 1_555 1_555
O40_4 Ba6 1_555 1_555
O42_4 Ba11_2 1_555 1_555
O8_4 Ba16 1_555 1_555
Ba19 O25_4 1_555 1_555
N1_5 H1_5 1_555 1_555
O25_4 C8_5 1_555 1_555
O4_5 C8_5 1_555 1_555
O5_5 C9_5 1_555 1_555
O29 C9_5 1_555 1_555
O10_5 C18_5 1_555 1_555
C5_5 C4_5 1_555 1_555
H4_5 C5_5 1_555 1_555
C6_5 C5_5 1_555 1_555
H5_5 C7_5 1_555 1_555
C8_5 C6_5 1_555 1_555
C9_5 C10_5 1_555 1_555
C14_5 N1_5 1_555 1_555
C15_5 C10_5 1_555 1_555
H8_5 C15_5 1_555 1_555
O11_5 Ba15 1_555 1_555
H10_5 O11_5 1_555 1_555
N3_5 H11_5 1_555 1_555
N4_5 H12_5 1_555 1_555
O12_3 C19_5 1_555 1_555
O13_3 Ba19 1_555 1_555
O26_4 Ba15 1_555 1_555
O15_5 Ba15 1_555 1_555
O28_2 C27_5 1_555 1_555
O32_2 C27_5 1_555 1_555
O34 C34_5 1_555 1_555
O39_3 C34_5 1_555 1_555
O40_3 C35_5 1_555 1_555
O42_4 C36_5 1_555 1_555
C19_5 O13_3 1_555 1_555
C20_5 C19_5 1_555 1_555
C21_5 C20_5 1_555 1_555
H13_5 C21_5 1_555 1_555
C22_5 N4_5 1_555 1_555
C23_5 C22_5 1_555 1_555
H14_5 C23_5 1_555 1_555
C24_5 C23_5 1_555 1_555
C25_5 C20_5 1_555 1_555
H15_5 C25_5 1_555 1_555
C26_5 O26_4 1_555 1_555
C27_5 C28_5 1_555 1_555
C28_5 C29_5 1_555 1_555
C29_5 H16_5 1_555 1_555
C30_5 C29_5 1_555 1_555
C31_5 C30_5 1_555 1_555
H17_5 C31_5 1_555 1_555
C32_5 N3_5 1_555 1_555
C33_5 C28_5 1_555 1_555
H18_5 C33_5 1_555 1_555
C34_5 C30_5 1_555 1_555
C35_5 N3_5 1_555 1_555
C36_5 N4_5 1_555 1_555
O22_5 Ba19 1_555 1_555
H19_5 O22_5 1_555 1_555
H20_5 O22_5 1_555 1_555
Ba8 O5_5 1_555 1_555
Ba12 O12_3 1_555 1_555
Ba13 O10_5 1_555 1_555
O39_4 Ba15 1_555 1_555
O4_5 Ba19 1_555 1_555
C6_5 C7_5 1_555 1_555
C14_5 C15_5 1_555 1_555
O13_3 Ba12 1_555 1_555
O15_5 C26_5 1_555 1_555
C21_5 C22_5 1_555 1_555
C24_5 C25_5 1_555 1_555
C24_5 C26_5 1_555 1_555
C31_5 C32_5 1_555 1_555
C32_5 C33_5 1_555 1_555
C35_5 C36_5 1_555 1_555
Ba7 O9_5 1_555 1_555
Ba12 O1_5 1_555 1_555
N2_5 H2_5 1_555 1_555
O1_5 C1_5 1_555 1_555
O2_5 Ba12 1_555 1_555
O33 C16_5 1_555 1_555
O36 C16_5 1_555 1_555
O9_5 C17_5 1_555 1_555
C1_5 O2_5 1_555 1_555
C2_5 C1_5 1_555 1_555
C3_5 C2_5 1_555 1_555
H3_5 C3_5 1_555 1_555
C11_5 H6_5 1_555 1_555
C12_5 C11_5 1_555 1_555
C13_5 C12_5 1_555 1_555
H7_5 C13_5 1_555 1_555
C16_5 C12_5 1_555 1_555
Ba19_2 O36 1_555 1_555
O25_5 Ba7 1_555 1_555
O26_5 Ba7 1_555 1_555
O42_5 Ba12 1_555 1_555
Ba19_2 O25_5 1_555 1_555
O27 C9_6 1_555 1_555
O30 C9_6 1_555 1_555
O33_2 C16_6 1_555 1_555
O37 C16_6 1_555 1_555
C9_6 C10_6 1_555 1_555
C10_6 C11_6 1_555 1_555
C11_6 H6_6 1_555 1_555
C12_6 C11_6 1_555 1_555
C15_6 C10_6 1_555 1_555
C16_6 C12_6 1_555 1_555
Ba8 O9_6 1_555 1_555
Ba13 O1_6 1_555 1_555
Ba16 O2_6 1_555 1_555
N1_6 H1_6 1_555 1_555
N2_6 H2_6 1_555 1_555
O1_6 C1_6 1_555 1_555
O2_6 Ba13 1_555 1_555
O25_5 C8_6 1_555 1_555
O4_6 C8_6 1_555 1_555
O9_6 C17_6 1_555 1_555
O41 C18_6 1_555 1_555
C1_6 O2_6 1_555 1_555
C2_6 C1_6 1_555 1_555
C3_6 C2_6 1_555 1_555
H3_6 C3_6 1_555 1_555
C4_6 N2_6 1_555 1_555
C5_6 C4_6 1_555 1_555
H4_6 C5_6 1_555 1_555
C6_6 C5_6 1_555 1_555
C7_6 C2_6 1_555 1_555
H5_6 C7_6 1_555 1_555
C8_6 C6_6 1_555 1_555
H7_6 C13_6 1_555 1_555
C14_6 N1_6 1_555 1_555
C17_6 N1_6 1_555 1_555
C18_6 N2_6 1_555 1_555
O11_6 Ba16 1_555 1_555
H9_6 O11_6 1_555 1_555
H10_6 O11_6 1_555 1_555
N3_6 H11_6 1_555 1_555
O26_5 Ba16 1_555 1_555
O15_6 Ba16 1_555 1_555
O28_3 C27_6 1_555 1_555
O32_3 C27_6 1_555 1_555
O42_5 C36_6 1_555 1_555
C23_6 C22_6 1_555 1_555
H14_6 C23_6 1_555 1_555
C24_6 C23_6 1_555 1_555
H15_6 C25_6 1_555 1_555
C26_6 O26_5 1_555 1_555
C27_6 C28_6 1_555 1_555
C32_6 N3_6 1_555 1_555
C33_6 C28_6 1_555 1_555
H18_6 C33_6 1_555 1_555
O22_6 Ba19_2 1_555 1_555
H20_6 O22_6 1_555 1_555
O23_3 Ba13 1_555 1_555
O24_3 Ba13 1_555 1_555
O4_6 Ba19_2 1_555 1_555
C3_6 C4_6 1_555 1_555
C6_6 C7_6 1_555 1_555
C13_6 C14_6 1_555 1_555
C17_6 C18_6 1_555 1_555
O15_6 C26_6 1_555 1_555
C24_6 C25_6 1_555 1_555
C24_6 C26_6 1_555 1_555
C32_6 C33_6 1_555 1_555
N4_6 H12_6 1_555 1_555
O23_3 C19_6 1_555 1_555
O34_2 C34_6 1_555 1_555
O39_4 C34_6 1_555 1_555
O40_4 C35_6 1_555 1_555
C19_6 O24_3 1_555 1_555
C20_6 C19_6 1_555 1_555
C21_6 C20_6 1_555 1_555
H13_6 C21_6 1_555 1_555
C29_6 H16_6 1_555 1_555
C30_6 C29_6 1_555 1_555
C31_6 C30_6 1_555 1_555
H17_6 C31_6 1_555 1_555
C34_6 C30_6 1_555 1_555

#END
