
###############################################################################
#
# This file contains modified crystal structure data generated from the
# MOF subset of the Cambridge Structural Database (CSD) v543 
# hosted by the Cambridge Crystallographic Data Centre (CCDC).
#
# This work is licensed under the Creative Commons
# Attribution-NonCommercial-ShareAlike 4.0 International License.
# To view a copy of this license, visit
# http://creativecommons.org/licenses/by-nc-sa/4.0/
# or send a letter to
# Creative Commons, PO Box 1866, Mountain View, CA 94042, USA.
#
# CIF created using the CSD Python API on 29 September 2022
# The structure has been converted into the P1 space group
# The structure has a 3D framework
# The original CSD entry IPICUG is in the tetragonal crystal system
# The framework has been calculated to contain at least 10.0% void space
# The void calculation uses a probe of radius 1.32A, grid spacing 0.4
# The framework is charged, counterions have been retained in the structure
#
###############################################################################

data_IPICUG
_chemical_formula_moiety         '(C112 H80 Cl12 Cu13 N48 O48 4+)n'
_symmetry_cell_setting           triclinic
_symmetry_space_group_name_H-M   'P 1'
_symmetry_Int_Tables_number      1
_space_group_name_Hall           'P 1'
loop_
_symmetry_equiv_pos_site_id
_symmetry_equiv_pos_as_xyz
1 x,y,z
_cell_length_a                   14.8030(10)
_cell_length_b                   14.8030(10)
_cell_length_c                   19.9010(10)
_cell_angle_alpha                90
_cell_angle_beta                 90
_cell_angle_gamma                90
_cell_volume                     4360.88
loop_
_atom_site_label
_atom_site_type_symbol
_atom_site_fract_x
_atom_site_fract_y
_atom_site_fract_z
Cl1 Cl 0.2500 0.2500 0.0200(3)
O2 O 0.1914(4) 0.1914(4) 0.0510(4)
O4 O 0.3086(4) 0.3086(4) 0.0510(4)
O1 O 0.1982(7) 0.3018(7) 0.9694(7)
O3 O 0.3018(7) 0.1982(7) 0.9694(7)
Cl1_2 Cl 0.2500 0.2500 0.5200(3)
O1_2 O 0.1982(7) 0.1982(7) 0.4694(7)
O2_2 O 0.3086(4) 0.1914(4) 0.5510(4)
O3_2 O 0.3018(7) 0.3018(7) 0.4694(7)
O4_2 O 0.1914(4) 0.3086(4) 0.5510(4)
Cl1_3 Cl 0.7500 0.7500 0.4800(3)
O1_3 O 0.6982(7) 0.6982(7) 0.5306(7)
O2_3 O 0.6914(4) 0.8086(4) 0.4490(4)
O3_3 O 0.8018(7) 0.8018(7) 0.5306(7)
O4_3 O 0.8086(4) 0.6914(4) 0.4490(4)
O1_4 O 0.8018(7) 0.6982(7) 0.0306(7)
O3_4 O 0.6982(7) 0.8018(7) 0.0306(7)
Cl1_4 Cl 0.7500 0.7500 0.9800(3)
O2_4 O 0.6914(4) 0.6914(4) 0.9490(4)
O4_4 O 0.8086(4) 0.8086(4) 0.9490(4)
Cl2 Cl 0.51398(15) 0.51398(15) 0.27198(14)
O5 O 0.5472(6) 0.5472(6) 0.2077(5)
O6 O 0.5660(6) 0.5660(6) 0.3212(6)
O7 O 0.5377(4) 0.4257(4) 0.2706(4)
O8 O 0.4257(4) 0.5377(4) 0.2706(4)
O7_2 O 0.0743(4) 0.5377(4) 0.7706(4)
Cl2_2 Cl 0.98602(15) 0.51398(15) 0.77198(14)
O5_2 O 0.9528(6) 0.5472(6) 0.7077(5)
O6_2 O 0.9340(6) 0.5660(6) 0.8212(6)
O8_2 O 0.9623(4) 0.4257(4) 0.7706(4)
O8_3 O 0.0743(4) 0.9623(4) 0.2706(4)
O7_3 O 0.9623(4) 0.0743(4) 0.2706(4)
Cl2_3 Cl 0.98602(15) 0.98602(15) 0.27198(14)
O5_3 O 0.9528(6) 0.9528(6) 0.2077(5)
O6_3 O 0.9340(6) 0.9340(6) 0.3212(6)
O8_4 O 0.5377(4) 0.0743(4) 0.7706(4)
Cl2_4 Cl 0.51398(15) 0.98602(15) 0.77198(14)
O5_4 O 0.5472(6) 0.9528(6) 0.7077(5)
O6_4 O 0.5660(6) 0.9340(6) 0.8212(6)
O7_4 O 0.4257(4) 0.9623(4) 0.7706(4)
Cl2_5 Cl 0.01398(15) 0.48602(15) 0.22802(14)
O5_5 O 0.0472(6) 0.4528(6) 0.2923(5)
O6_5 O 0.0660(6) 0.4340(6) 0.1788(6)
O7_5 O 0.0377(4) 0.5743(4) 0.2294(4)
O8_5 O 0.9257(4) 0.4623(4) 0.2294(4)
Cl2_6 Cl 0.01398(15) 0.01398(15) 0.72802(14)
O5_6 O 0.0472(6) 0.0472(6) 0.7923(5)
O6_6 O 0.0660(6) 0.0660(6) 0.6788(6)
O8_6 O 0.0377(4) 0.9257(4) 0.7294(4)
O7_6 O 0.9257(4) 0.0377(4) 0.7294(4)
Cl2_7 Cl 0.48602(15) 0.01398(15) 0.22802(14)
O5_7 O 0.4528(6) 0.0472(6) 0.2923(5)
O6_7 O 0.4340(6) 0.0660(6) 0.1788(6)
O8_7 O 0.5743(4) 0.0377(4) 0.2294(4)
O7_7 O 0.4623(4) 0.9257(4) 0.2294(4)
Cl2_8 Cl 0.48602(15) 0.48602(15) 0.72802(14)
O5_8 O 0.4528(6) 0.4528(6) 0.7923(5)
O6_8 O 0.4340(6) 0.4340(6) 0.6788(6)
O7_8 O 0.5743(4) 0.4623(4) 0.7294(4)
O8_8 O 0.4623(4) 0.5743(4) 0.7294(4)
Cu3 Cu 0.0000 0.5000 0.5000
C16 C 0.0188(4) 0.3184(4) 0.4363(3)
H14 H 0.0694 0.3109 0.4651
H17 H 0.0327 0.1957 0.3897
Cu1 Cu 0.5000 0.5000 0.0000
Cu2 Cu 0.7500 0.2500 0.2500
N1 N 0.6504(3) 0.2977(3) 0.1856(2)
C1 C 0.5716(4) 0.2554(4) 0.1786(3)
H1 H 0.5602 0.2038 0.2057
C2 C 0.5048(4) 0.2834(4) 0.1333(3)
H2 H 0.4502 0.2499 0.1305
N2 N 0.5155(3) 0.3554(3) 0.0940(2)
N3 N 0.6059(3) 0.4716(3) 0.0603(2)
C3 C 0.6816(4) 0.5188(4) 0.0637(3)
H3 H 0.6891 0.5694 0.0349
C4 C 0.7512(4) 0.4967(4) 0.1085(3)
H4 H 0.8043 0.5327 0.1103
C5 C 0.7427(4) 0.4232(4) 0.1497(3)
H5 H 0.7897 0.4073 0.1800
C6 C 0.6626(4) 0.3713(4) 0.1463(3)
C7 C 0.5955(4) 0.3987(4) 0.1008(2)
Cu3_2 Cu 1.0000 0.5000 0.5000
N6 N 0.8496(3) 0.2023(3) 0.1856(2)
N7 N 0.7977(3) 0.3496(3) 0.3144(2)
N8 N 0.7023(3) 0.1504(3) 0.3144(2)
C10 C 0.7554(4) 0.4284(4) 0.3214(3)
H8 H 0.7038 0.4398 0.2943
C13 C 0.7834(4) 0.4952(4) 0.3667(3)
H11 H 0.7499 0.5498 0.3695
N11 N 0.8554(3) 0.4845(3) 0.4060(2)
N14 N 0.4716(3) 0.6059(3) 0.0603(2)
N15 N 0.9716(3) 0.3941(3) 0.4397(2)
C19 C 0.9967(4) 0.2488(4) 0.3915(3)
C22 C 0.9232(4) 0.2573(4) 0.3503(3)
H20 H 0.9073 0.2103 0.3200
C25 C 0.8713(4) 0.3374(4) 0.3537(3)
C28 C 0.8987(4) 0.4045(4) 0.3992(2)
Cu1_2 Cu 0.5000 0.5000 1.0000
Cu4 Cu 0.7500 0.2500 0.7500
Cu5 Cu 0.2500 0.7500 0.7500
N4 N 0.7023(3) 0.3496(3) 0.8144(2)
N5 N 0.3496(3) 0.7023(3) 0.8144(2)
C8 C 0.7446(4) 0.4284(4) 0.8214(3)
C9 C 0.4284(4) 0.7446(4) 0.8214(3)
H6 H 0.7962 0.4398 0.7943
H7 H 0.4398 0.7962 0.7943
C11 C 0.7166(4) 0.4952(4) 0.8667(3)
C12 C 0.4952(4) 0.7166(4) 0.8667(3)
H9 H 0.7501 0.5498 0.8695
H10 H 0.5498 0.7501 0.8695
N9 N 0.6446(3) 0.4845(3) 0.9060(2)
N10 N 0.4845(3) 0.6446(3) 0.9060(2)
N12 N 0.5284(3) 0.3941(3) 0.9397(2)
N13 N 0.3941(3) 0.5284(3) 0.9397(2)
C14 C 0.4812(4) 0.3184(4) 0.9363(3)
C15 C 0.3184(4) 0.4812(4) 0.9363(3)
H12 H 0.4306 0.3109 0.9651
H13 H 0.3109 0.4306 0.9651
C17 C 0.5033(4) 0.2488(4) 0.8915(3)
C18 C 0.2488(4) 0.5033(4) 0.8915(3)
H15 H 0.4673 0.1957 0.8897
H16 H 0.1957 0.4673 0.8897
C20 C 0.5768(4) 0.2573(4) 0.8503(3)
C21 C 0.2573(4) 0.5768(4) 0.8503(3)
H18 H 0.5927 0.2103 0.8200
H19 H 0.2103 0.5927 0.8200
C23 C 0.6287(4) 0.3374(4) 0.8537(3)
C24 C 0.3374(4) 0.6287(4) 0.8537(3)
C26 C 0.6013(4) 0.4045(4) 0.8992(2)
C27 C 0.4045(4) 0.6013(4) 0.8992(2)
Cu3_3 Cu -0.0000 0.0000 0.0000
Cu3_4 Cu -0.0000 0.0000 1.0000
C16_2 C 0.1816(4) 0.0188(4) 0.9363(3)
H14_2 H 0.1891 0.0694 0.9651
H17_2 H 0.3043 0.0327 0.8897
Cu3_5 Cu -0.0000 1.0000 0.0000
N1_2 N 0.2023(3) 0.6504(3) 0.6856(2)
C1_2 C 0.2446(4) 0.5716(4) 0.6786(3)
H1_2 H 0.2962 0.5602 0.7057
C2_2 C 0.2166(4) 0.5048(4) 0.6333(3)
H2_2 H 0.2501 0.4502 0.6305
N2_2 N 0.1446(3) 0.5155(3) 0.5940(2)
N3_2 N 0.0284(3) 0.6059(3) 0.5603(2)
C4_2 C 0.0033(4) 0.7512(4) 0.6085(3)
C5_2 C 0.0768(4) 0.7427(4) 0.6497(3)
H5_2 H 0.0927 0.7897 0.6800
C6_2 C 0.1287(4) 0.6626(4) 0.6463(3)
C7_2 C 0.1013(4) 0.5955(4) 0.6008(2)
Cu3_6 Cu -0.0000 1.0000 1.0000
Cu4_2 Cu 0.2500 0.7500 0.2500
N4_2 N 0.1504(3) 0.7023(3) 0.3144(2)
N6_2 N 0.2977(3) 0.8496(3) 0.6856(2)
N7_2 N 0.1504(3) 0.7977(3) 0.8144(2)
C8_2 C 0.0716(4) 0.7446(4) 0.3214(3)
C10_2 C 0.0716(4) 0.7554(4) 0.8214(3)
H6_2 H 0.0602 0.7962 0.2943
H8_2 H 0.0602 0.7038 0.7943
C11_2 C 0.0048(4) 0.7166(4) 0.3667(3)
C13_2 C 0.0048(4) 0.7834(4) 0.8667(3)
N9_2 N 0.0155(3) 0.6446(3) 0.4060(2)
N11_2 N 0.0155(3) 0.8554(3) 0.9060(2)
N12_2 N 0.1059(3) 0.5284(3) 0.4397(2)
N15_2 N 0.1059(3) 0.9716(3) 0.9397(2)
C14_2 C 0.1816(4) 0.4812(4) 0.4363(3)
H12_2 H 0.1891 0.4306 0.4651
C17_2 C 0.2512(4) 0.5033(4) 0.3915(3)
C19_2 C 0.2512(4) 0.9967(4) 0.8915(3)
H15_2 H 0.3043 0.4673 0.3897
C20_2 C 0.2427(4) 0.5768(4) 0.3503(3)
C22_2 C 0.2427(4) 0.9232(4) 0.8503(3)
H18_2 H 0.2897 0.5927 0.3200
H20_2 H 0.2897 0.9073 0.8200
C23_2 C 0.1626(4) 0.6287(4) 0.3537(3)
C25_2 C 0.1626(4) 0.8713(4) 0.8537(3)
C26_2 C 0.0955(4) 0.6013(4) 0.3992(2)
C28_2 C 0.0955(4) 0.8987(4) 0.8992(2)
Cu3_7 Cu 1.0000 0.0000 0.0000
Cu3_8 Cu 1.0000 0.0000 1.0000
Cu3_9 Cu 1.0000 1.0000 0.0000
C3_2 C 0.9812(4) 0.6816(4) 0.5637(3)
H3_2 H 0.9306 0.6891 0.5349
H4_2 H 0.9673 0.8043 0.6103
Cu3_10 Cu 1.0000 1.0000 1.0000
H9_2 H 0.9502 0.7501 0.3695
H11_2 H 0.9502 0.7499 0.8695
N14_2 N 0.8941(3) 0.4716(3) 0.5603(2)
H2_3 H 0.0498 0.2501 0.1305
C14_3 C 0.0188(4) 0.1816(4) 0.9363(3)
H12_3 H 0.0694 0.1891 0.9651
H15_3 H 0.0327 0.3043 0.8897
N14_3 N 0.0284(3) 0.8941(3) 0.0603(2)
C1_3 C 0.9284(4) 0.2446(4) 0.1786(3)
H1_3 H 0.9398 0.2962 0.2057
C2_3 C 0.9952(4) 0.2166(4) 0.1333(3)
N2_3 N 0.9845(3) 0.1446(3) 0.0940(2)
N3_3 N 0.8941(3) 0.0284(3) 0.0603(2)
C4_3 C 0.7488(4) 0.0033(4) 0.1085(3)
C5_3 C 0.7573(4) 0.0768(4) 0.1497(3)
H5_3 H 0.7103 0.0927 0.1800
C6_3 C 0.8374(4) 0.1287(4) 0.1463(3)
C7_3 C 0.9045(4) 0.1013(4) 0.1008(2)
Cu3_11 Cu 0.5000 -0.0000 0.5000
C10_3 C 0.7446(4) 0.0716(4) 0.3214(3)
H8_3 H 0.7962 0.0602 0.2943
C13_3 C 0.7166(4) 0.0048(4) 0.3667(3)
N11_3 N 0.6446(3) 0.0155(3) 0.4060(2)
N15_3 N 0.5284(3) 0.1059(3) 0.4397(2)
C16_3 C 0.4812(4) 0.1816(4) 0.4363(3)
H14_3 H 0.4306 0.1891 0.4651
C19_3 C 0.5033(4) 0.2512(4) 0.3915(3)
H17_3 H 0.4673 0.3043 0.3897
C22_3 C 0.5768(4) 0.2427(4) 0.3503(3)
H20_3 H 0.5927 0.2897 0.3200
C25_3 C 0.6287(4) 0.1626(4) 0.3537(3)
C28_3 C 0.6013(4) 0.0955(4) 0.3992(2)
N4_3 N 0.7977(3) 0.1504(3) 0.8144(2)
C8_3 C 0.7554(4) 0.0716(4) 0.8214(3)
H6_3 H 0.7038 0.0602 0.7943
C11_3 C 0.7834(4) 0.0048(4) 0.8667(3)
N9_3 N 0.8554(3) 0.0155(3) 0.9060(2)
N12_3 N 0.9716(3) 0.1059(3) 0.9397(2)
C17_3 C 0.9967(4) 0.2512(4) 0.8915(3)
C20_3 C 0.9232(4) 0.2427(4) 0.8503(3)
H18_3 H 0.9073 0.2897 0.8200
C23_3 C 0.8713(4) 0.1626(4) 0.8537(3)
C26_3 C 0.8987(4) 0.0955(4) 0.8992(2)
C3_3 C 0.8184(4) 0.9812(4) 0.0637(3)
H3_3 H 0.8109 0.9306 0.0349
H4_3 H 0.6957 0.9673 0.1103
Cu3_12 Cu 0.5000 1.0000 0.5000
H11_3 H 0.7501 0.9502 0.3695
H9_3 H 0.7499 0.9502 0.8695
H2_4 H 0.2499 0.0498 0.6305
N14_4 N 0.6059(3) 0.0284(3) 0.5603(2)
C14_4 C 0.3184(4) 0.0188(4) 0.4363(3)
H12_4 H 0.3109 0.0694 0.4651
H15_4 H 0.1957 0.0327 0.3897
C1_4 C 0.2554(4) 0.9284(4) 0.6786(3)
H1_4 H 0.2038 0.9398 0.7057
C2_4 C 0.2834(4) 0.9952(4) 0.6333(3)
N2_4 N 0.3554(3) 0.9845(3) 0.5940(2)
N3_4 N 0.4716(3) 0.8941(3) 0.5603(2)
C3_4 C 0.5188(4) 0.8184(4) 0.5637(3)
H3_4 H 0.5694 0.8109 0.5349
C4_4 C 0.4967(4) 0.7488(4) 0.6085(3)
H4_4 H 0.5327 0.6957 0.6103
C5_4 C 0.4232(4) 0.7573(4) 0.6497(3)
H5_4 H 0.4073 0.7103 0.6800
C6_4 C 0.3713(4) 0.8374(4) 0.6463(3)
C7_4 C 0.3987(4) 0.9045(4) 0.6008(2)
N4_4 N 0.3496(3) 0.7977(3) 0.3144(2)
C8_4 C 0.4284(4) 0.7554(4) 0.3214(3)
H6_4 H 0.4398 0.7038 0.2943
C11_4 C 0.4952(4) 0.7834(4) 0.3667(3)
H9_4 H 0.5498 0.7499 0.3695
N9_4 N 0.4845(3) 0.8554(3) 0.4060(2)
N12_4 N 0.3941(3) 0.9716(3) 0.4397(2)
C17_4 C 0.2488(4) 0.9967(4) 0.3915(3)
C20_4 C 0.2573(4) 0.9232(4) 0.3503(3)
H18_4 H 0.2103 0.9073 0.3200
C23_4 C 0.3374(4) 0.8713(4) 0.3537(3)
C26_4 C 0.4045(4) 0.8987(4) 0.3992(2)
N7_3 N 0.2977(3) 0.6504(3) 0.1856(2)
N8_2 N 0.2023(3) 0.8496(3) 0.1856(2)
C10_4 C 0.2554(4) 0.5716(4) 0.1786(3)
H8_4 H 0.2038 0.5602 0.2057
C13_4 C 0.2834(4) 0.5048(4) 0.1333(3)
H10_2 H 0.0498 0.2499 0.6305
H11_4 H 0.2499 0.4502 0.1305
N11_4 N 0.3554(3) 0.5155(3) 0.0940(2)
C16_4 C 0.5188(4) 0.6816(4) 0.0637(3)
H14_4 H 0.5694 0.6891 0.0349
C19_4 C 0.4967(4) 0.7512(4) 0.1085(3)
H17_4 H 0.5327 0.8043 0.1103
C22_4 C 0.4232(4) 0.7427(4) 0.1497(3)
H20_4 H 0.4073 0.7897 0.1800
C25_4 C 0.3713(4) 0.6626(4) 0.1463(3)
C28_4 C 0.3987(4) 0.5955(4) 0.1008(2)
N5_2 N 0.8496(3) 0.2977(3) 0.6856(2)
C9_2 C 0.9284(4) 0.2554(4) 0.6786(3)
H7_2 H 0.9398 0.2038 0.7057
C12_2 C 0.9952(4) 0.2834(4) 0.6333(3)
N10_2 N 0.9845(3) 0.3554(3) 0.5940(2)
C15_2 C 0.8184(4) 0.5188(4) 0.5637(3)
H13_2 H 0.8109 0.5694 0.5349
C18_2 C 0.7488(4) 0.4967(4) 0.6085(3)
H16_2 H 0.6957 0.5327 0.6103
C21_2 C 0.7573(4) 0.4232(4) 0.6497(3)
H19_2 H 0.7103 0.4073 0.6800
C24_2 C 0.8374(4) 0.3713(4) 0.6463(3)
C27_2 C 0.9045(4) 0.3987(4) 0.6008(2)
H10_3 H 0.2501 0.0498 0.1305
C9_3 C 0.2446(4) 0.9284(4) 0.1786(3)
H7_3 H 0.2962 0.9398 0.2057
C12_3 C 0.2166(4) 0.9952(4) 0.1333(3)
N10_3 N 0.1446(3) 0.9845(3) 0.0940(2)
C18_3 C 0.0033(4) 0.7488(4) 0.1085(3)
C21_3 C 0.0768(4) 0.7573(4) 0.1497(3)
H19_3 H 0.0927 0.7103 0.1800
C24_3 C 0.1287(4) 0.8374(4) 0.1463(3)
C27_3 C 0.1013(4) 0.9045(4) 0.1008(2)
N8_3 N 0.6504(3) 0.2023(3) 0.6856(2)
C15_3 C 0.9812(4) 0.8184(4) 0.0637(3)
H13_3 H 0.9306 0.8109 0.0349
H16_3 H 0.9673 0.6957 0.1103
C9_4 C 0.5716(4) 0.2446(4) 0.6786(3)
H7_4 H 0.5602 0.2962 0.7057
C12_4 C 0.5048(4) 0.2166(4) 0.6333(3)
H10_4 H 0.4502 0.2501 0.6305
N10_4 N 0.5155(3) 0.1446(3) 0.5940(2)
C18_4 C 0.7512(4) 0.0033(4) 0.6085(3)
C21_4 C 0.7427(4) 0.0768(4) 0.6497(3)
H19_4 H 0.7897 0.0927 0.6800
C24_4 C 0.6626(4) 0.1287(4) 0.6463(3)
C27_4 C 0.5955(4) 0.1013(4) 0.6008(2)
C15_4 C 0.6816(4) 0.9812(4) 0.5637(3)
H13_4 H 0.6891 0.9306 0.5349
H16_4 H 0.8043 0.9673 0.6103
loop_
_geom_bond_atom_site_label_1
_geom_bond_atom_site_label_2
_geom_bond_site_symmetry_1
_geom_bond_site_symmetry_2
O2 Cl1 1_555 1_555
O4 Cl1 1_555 1_555
Cl1_2 O1_2 1_555 1_555
O2_2 Cl1_2 1_555 1_555
O3_2 Cl1_2 1_555 1_555
O4_2 Cl1_2 1_555 1_555
Cl1_3 O1_3 1_555 1_555
O2_3 Cl1_3 1_555 1_555
O3_3 Cl1_3 1_555 1_555
O4_3 Cl1_3 1_555 1_555
O2_4 Cl1_4 1_555 1_555
O4_4 Cl1_4 1_555 1_555
Cl2 O5 1_555 1_555
O6 Cl2 1_555 1_555
O7 Cl2 1_555 1_555
O8 Cl2 1_555 1_555
Cl2_2 O5_2 1_555 1_555
O6_2 Cl2_2 1_555 1_555
O8_2 Cl2_2 1_555 1_555
Cl2_3 O5_3 1_555 1_555
O6_3 Cl2_3 1_555 1_555
Cl2_4 O5_4 1_555 1_555
O6_4 Cl2_4 1_555 1_555
O7_4 Cl2_4 1_555 1_555
Cl2_5 O5_5 1_555 1_555
O6_5 Cl2_5 1_555 1_555
O7_5 Cl2_5 1_555 1_555
Cl2_6 O5_6 1_555 1_555
O6_6 Cl2_6 1_555 1_555
Cl2_7 O5_7 1_555 1_555
O6_7 Cl2_7 1_555 1_555
O8_7 Cl2_7 1_555 1_555
Cl2_8 O5_8 1_555 1_555
O6_8 Cl2_8 1_555 1_555
O7_8 Cl2_8 1_555 1_555
O8_8 Cl2_8 1_555 1_555
C16 H14 1_555 1_555
Cu1 N3 1_555 1_555
Cu2 N1 1_555 1_555
N1 C1 1_555 1_555
C1 H1 1_555 1_555
C2 C1 1_555 1_555
H2 C2 1_555 1_555
N2 C2 1_555 1_555
N3 C3 1_555 1_555
C3 H3 1_555 1_555
C4 C3 1_555 1_555
H4 C4 1_555 1_555
C5 C4 1_555 1_555
H5 C5 1_555 1_555
C6 N1 1_555 1_555
C7 N2 1_555 1_555
Cu3_2 N15 1_555 1_555
N6 Cu2 1_555 1_555
N7 Cu2 1_555 1_555
N8 Cu2 1_555 1_555
C10 N7 1_555 1_555
H8 C10 1_555 1_555
C13 C10 1_555 1_555
H11 C13 1_555 1_555
N11 C13 1_555 1_555
N14 Cu1 1_555 1_555
C22 C19 1_555 1_555
H20 C22 1_555 1_555
C25 N7 1_555 1_555
C28 N11 1_555 1_555
N3 C7 1_555 1_555
C5 C6 1_555 1_555
C6 C7 1_555 1_555
N15 C28 1_555 1_555
C22 C25 1_555 1_555
C25 C28 1_555 1_555
Cu4 N4 1_555 1_555
Cu5 N5 1_555 1_555
N4 C8 1_555 1_555
N5 C9 1_555 1_555
C8 H6 1_555 1_555
C9 H7 1_555 1_555
C11 C8 1_555 1_555
C12 C9 1_555 1_555
H9 C11 1_555 1_555
H10 C12 1_555 1_555
N9 C11 1_555 1_555
N10 C12 1_555 1_555
N12 Cu1_2 1_555 1_555
N13 Cu1_2 1_555 1_555
C14 N12 1_555 1_555
C15 N13 1_555 1_555
H12 C14 1_555 1_555
H13 C15 1_555 1_555
C17 C14 1_555 1_555
C18 C15 1_555 1_555
H15 C17 1_555 1_555
H16 C18 1_555 1_555
C20 C17 1_555 1_555
C21 C18 1_555 1_555
H18 C20 1_555 1_555
H19 C21 1_555 1_555
C23 N4 1_555 1_555
C24 N5 1_555 1_555
C26 N9 1_555 1_555
C27 N10 1_555 1_555
N12 C26 1_555 1_555
N13 C27 1_555 1_555
C20 C23 1_555 1_555
C21 C24 1_555 1_555
C23 C26 1_555 1_555
C24 C27 1_555 1_555
C16_2 H14_2 1_555 1_555
Cu3 N3_2 1_555 1_555
Cu5 N1_2 1_555 1_555
N1_2 C1_2 1_555 1_555
C1_2 H1_2 1_555 1_555
C2_2 C1_2 1_555 1_555
H2_2 C2_2 1_555 1_555
N2_2 C2_2 1_555 1_555
C5_2 C4_2 1_555 1_555
H5_2 C5_2 1_555 1_555
C6_2 N1_2 1_555 1_555
C7_2 N2_2 1_555 1_555
Cu3_6 N15_2 1_555 1_555
Cu4_2 N4_2 1_555 1_555
N4_2 C8_2 1_555 1_555
N6_2 Cu5 1_555 1_555
N7_2 Cu5 1_555 1_555
C8_2 H6_2 1_555 1_555
C10_2 N7_2 1_555 1_555
H8_2 C10_2 1_555 1_555
C11_2 C8_2 1_555 1_555
C13_2 C10_2 1_555 1_555
N9_2 C11_2 1_555 1_555
N11_2 C13_2 1_555 1_555
N12_2 Cu3 1_555 1_555
C14_2 N12_2 1_555 1_555
H12_2 C14_2 1_555 1_555
C17_2 C14_2 1_555 1_555
H15_2 C17_2 1_555 1_555
C20_2 C17_2 1_555 1_555
C22_2 C19_2 1_555 1_555
H18_2 C20_2 1_555 1_555
H20_2 C22_2 1_555 1_555
C23_2 N4_2 1_555 1_555
C25_2 N7_2 1_555 1_555
C26_2 N9_2 1_555 1_555
C28_2 N11_2 1_555 1_555
N3_2 C7_2 1_555 1_555
C5_2 C6_2 1_555 1_555
C6_2 C7_2 1_555 1_555
N12_2 C26_2 1_555 1_555
N15_2 C28_2 1_555 1_555
C20_2 C23_2 1_555 1_555
C22_2 C25_2 1_555 1_555
C23_2 C26_2 1_555 1_555
C25_2 C28_2 1_555 1_555
C3_2 H3_2 1_555 1_555
N14_2 Cu3_2 1_555 1_555
H12_3 C14_3 1_555 1_555
N14_3 Cu3_5 1_555 1_555
Cu3_7 N3_3 1_555 1_555
N6 C1_3 1_555 1_555
C1_3 H1_3 1_555 1_555
C2_3 C1_3 1_555 1_555
N2_3 C2_3 1_555 1_555
C5_3 C4_3 1_555 1_555
H5_3 C5_3 1_555 1_555
C6_3 N6 1_555 1_555
C7_3 N2_3 1_555 1_555
Cu3_11 N15_3 1_555 1_555
C10_3 N8 1_555 1_555
H8_3 C10_3 1_555 1_555
C13_3 C10_3 1_555 1_555
N11_3 C13_3 1_555 1_555
N15_3 C16_3 1_555 1_555
C16_3 H14_3 1_555 1_555
C19_3 C16_3 1_555 1_555
H17_3 C19_3 1_555 1_555
C22_3 C19_3 1_555 1_555
H20_3 C22_3 1_555 1_555
C25_3 N8 1_555 1_555
C28_3 N11_3 1_555 1_555
N3_3 C7_3 1_555 1_555
C5_3 C6_3 1_555 1_555
C6_3 C7_3 1_555 1_555
N15_3 C28_3 1_555 1_555
C22_3 C25_3 1_555 1_555
C25_3 C28_3 1_555 1_555
Cu4 N4_3 1_555 1_555
N4_3 C8_3 1_555 1_555
C8_3 H6_3 1_555 1_555
C11_3 C8_3 1_555 1_555
N9_3 C11_3 1_555 1_555
N12_3 Cu3_8 1_555 1_555
C20_3 C17_3 1_555 1_555
H18_3 C20_3 1_555 1_555
C23_3 N4_3 1_555 1_555
C26_3 N9_3 1_555 1_555
N12_3 C26_3 1_555 1_555
C20_3 C23_3 1_555 1_555
C23_3 C26_3 1_555 1_555
C3_3 H3_3 1_555 1_555
N14_4 Cu3_11 1_555 1_555
H12_4 C14_4 1_555 1_555
Cu3_12 N3_4 1_555 1_555
N6_2 C1_4 1_555 1_555
C1_4 H1_4 1_555 1_555
C2_4 C1_4 1_555 1_555
N2_4 C2_4 1_555 1_555
N3_4 C3_4 1_555 1_555
C3_4 H3_4 1_555 1_555
C4_4 C3_4 1_555 1_555
H4_4 C4_4 1_555 1_555
C5_4 C4_4 1_555 1_555
H5_4 C5_4 1_555 1_555
C6_4 N6_2 1_555 1_555
C7_4 N2_4 1_555 1_555
Cu4_2 N4_4 1_555 1_555
N4_4 C8_4 1_555 1_555
C8_4 H6_4 1_555 1_555
C11_4 C8_4 1_555 1_555
H9_4 C11_4 1_555 1_555
N9_4 C11_4 1_555 1_555
N12_4 Cu3_12 1_555 1_555
C20_4 C17_4 1_555 1_555
H18_4 C20_4 1_555 1_555
C23_4 N4_4 1_555 1_555
C26_4 N9_4 1_555 1_555
N3_4 C7_4 1_555 1_555
C5_4 C6_4 1_555 1_555
C6_4 C7_4 1_555 1_555
N12_4 C26_4 1_555 1_555
C20_4 C23_4 1_555 1_555
C23_4 C26_4 1_555 1_555
N7_3 Cu4_2 1_555 1_555
N8_2 Cu4_2 1_555 1_555
C10_4 N7_3 1_555 1_555
H8_4 C10_4 1_555 1_555
C13_4 C10_4 1_555 1_555
H11_4 C13_4 1_555 1_555
N11_4 C13_4 1_555 1_555
N14 C16_4 1_555 1_555
C16_4 H14_4 1_555 1_555
C19_4 C16_4 1_555 1_555
H17_4 C19_4 1_555 1_555
C22_4 C19_4 1_555 1_555
H20_4 C22_4 1_555 1_555
C25_4 N7_3 1_555 1_555
C28_4 N11_4 1_555 1_555
N14 C28_4 1_555 1_555
C22_4 C25_4 1_555 1_555
C25_4 C28_4 1_555 1_555
Cu4 N5_2 1_555 1_555
N5_2 C9_2 1_555 1_555
C9_2 H7_2 1_555 1_555
C12_2 C9_2 1_555 1_555
N10_2 C12_2 1_555 1_555
C15_2 N14_2 1_555 1_555
H13_2 C15_2 1_555 1_555
C18_2 C15_2 1_555 1_555
H16_2 C18_2 1_555 1_555
C21_2 C18_2 1_555 1_555
H19_2 C21_2 1_555 1_555
C24_2 N5_2 1_555 1_555
C27_2 N10_2 1_555 1_555
N14_2 C27_2 1_555 1_555
C21_2 C24_2 1_555 1_555
C24_2 C27_2 1_555 1_555
N8_2 C9_3 1_555 1_555
C9_3 H7_3 1_555 1_555
C12_3 C9_3 1_555 1_555
N10_3 C12_3 1_555 1_555
C21_3 C18_3 1_555 1_555
H19_3 C21_3 1_555 1_555
C24_3 N8_2 1_555 1_555
C27_3 N10_3 1_555 1_555
N14_3 C27_3 1_555 1_555
C21_3 C24_3 1_555 1_555
C24_3 C27_3 1_555 1_555
N8_3 Cu4 1_555 1_555
H13_3 C15_3 1_555 1_555
N8_3 C9_4 1_555 1_555
C9_4 H7_4 1_555 1_555
C12_4 C9_4 1_555 1_555
H10_4 C12_4 1_555 1_555
N10_4 C12_4 1_555 1_555
C21_4 C18_4 1_555 1_555
H19_4 C21_4 1_555 1_555
C24_4 N8_3 1_555 1_555
C27_4 N10_4 1_555 1_555
N14_4 C27_4 1_555 1_555
C21_4 C24_4 1_555 1_555
C24_4 C27_4 1_555 1_555
H13_4 C15_4 1_555 1_555

#END
