
###############################################################################
#
# This file contains modified crystal structure data generated from the
# MOF subset of the Cambridge Structural Database (CSD) v543 
# hosted by the Cambridge Crystallographic Data Centre (CCDC).
#
# This work is licensed under the Creative Commons
# Attribution-NonCommercial-ShareAlike 4.0 International License.
# To view a copy of this license, visit
# http://creativecommons.org/licenses/by-nc-sa/4.0/
# or send a letter to
# Creative Commons, PO Box 1866, Mountain View, CA 94042, USA.
#
# CIF created using the CSD Python API on 29 September 2022
# The structure has been converted into the P1 space group
# The structure has a 3D framework
# The original CSD entry IPIDAN is in the tetragonal crystal system
# The framework has been calculated to contain at least 10.0% void space
# The void calculation uses a probe of radius 1.32A, grid spacing 0.4
# The framework is charged, counterions have been retained in the structure
#
###############################################################################

data_IPIDAN
_chemical_formula_moiety         '(C112 H80 Cl12 Cu12 N48 O48 2+)n'
_symmetry_cell_setting           triclinic
_symmetry_space_group_name_H-M   'P 1'
_symmetry_Int_Tables_number      1
_space_group_name_Hall           'P 1'
loop_
_symmetry_equiv_pos_site_id
_symmetry_equiv_pos_as_xyz
1 x,y,z
_cell_length_a                   14.7632(14)
_cell_length_b                   14.7632(14)
_cell_length_c                   20.021(2)
_cell_angle_alpha                90
_cell_angle_beta                 90
_cell_angle_gamma                90
_cell_volume                     4363.62
loop_
_atom_site_label
_atom_site_type_symbol
_atom_site_fract_x
_atom_site_fract_y
_atom_site_fract_z
Cu1 Cu 0.0000 0.0000 0.5000
H2 H 0.2411 0.0544 0.6358
C15 C 0.1866(6) 0.0162(6) 0.4407(4)
C16 C 0.0162(6) 0.1866(6) 0.4407(4)
H13 H 0.1947 0.0659 0.4702
H14 H 0.0659 0.1947 0.4702
H16 H 0.3123 0.0270 0.3975
H17 H 0.0270 0.3123 0.3975
H11 H 0.0544 0.2411 0.6358
Cu1_2 Cu 0.0000 1.0000 0.5000
N1 N 0.2014(4) 0.8488(5) 0.6864(3)
Cu2 Cu 0.2500 0.7500 0.7500
C1 C 0.2401(6) 0.9300(6) 0.6816(4)
H1 H 0.2901 0.9432 0.7098
C2 C 0.2102(7) 0.9979(6) 0.6364(4)
N2 N 0.1417(5) 0.9860(5) 0.5955(4)
N3 N 0.0281(4) 0.8919(4) 0.5581(3)
C4 C 0.0073(6) 0.7421(6) 0.6023(5)
C5 C 0.0803(6) 0.7520(6) 0.6442(4)
H5 H 0.0983 0.7037 0.6726
C6 C 0.1283(6) 0.8347(6) 0.6445(4)
C7 C 0.0998(5) 0.9034(6) 0.6003(4)
Cu3 Cu 0.5000 0.5000 0.5000
N4 N 0.2986(4) 0.6512(5) 0.6864(3)
N5 N 0.3488(5) 0.7986(4) 0.8136(3)
N6 N 0.1512(5) 0.7014(4) 0.8136(3)
N7 N 0.1512(5) 0.7986(4) 0.3136(3)
Cu4 Cu 0.2500 0.7500 0.2500
C8 C 0.2599(6) 0.5700(6) 0.6816(4)
C9 C 0.0700(6) 0.7599(6) 0.3184(4)
H6 H 0.2099 0.5568 0.7098
H7 H 0.0568 0.7099 0.2902
C11 C 0.2898(7) 0.5021(6) 0.6364(4)
C12 C 0.0021(6) 0.7898(7) 0.3636(4)
H9 H 0.2589 0.4456 0.6358
N9 N 0.3583(5) 0.5140(5) 0.5955(4)
N10 N 0.0140(5) 0.8583(5) 0.4045(4)
N12 N 0.4719(4) 0.6081(4) 0.5581(3)
N15 N 0.1081(4) 0.9719(4) 0.4419(3)
C14 C 0.5162(6) 0.6866(6) 0.5593(4)
H12 H 0.5659 0.6947 0.5298
C17 C 0.4927(6) 0.7579(6) 0.6023(5)
C18 C 0.2579(6) 0.9927(6) 0.3977(5)
H15 H 0.5270 0.8123 0.6025
C20 C 0.4197(6) 0.7480(6) 0.6442(4)
C21 C 0.2480(6) 0.9197(6) 0.3558(4)
H18 H 0.4017 0.7963 0.6726
H19 H 0.2963 0.9017 0.3274
C23 C 0.3717(6) 0.6653(6) 0.6445(4)
C24 C 0.1653(6) 0.8717(6) 0.3555(4)
C26 C 0.4002(5) 0.5966(6) 0.6003(4)
C27 C 0.0966(6) 0.9002(5) 0.3997(4)
Cu1_3 Cu 1.0000 0.0000 0.5000
N8 N 0.7986(4) 0.1512(5) 0.3136(3)
Cu5 Cu 0.7500 0.2500 0.2500
C10 C 0.7599(6) 0.0700(6) 0.3184(4)
H8 H 0.7099 0.0568 0.2902
C13 C 0.7898(7) 0.0021(6) 0.3636(4)
N11 N 0.8583(5) 0.0140(5) 0.4045(4)
N13 N 0.8919(4) 0.0281(4) 0.5581(3)
N14 N 0.9719(4) 0.1081(4) 0.4419(3)
C19 C 0.9927(6) 0.2579(6) 0.3977(5)
C22 C 0.9197(6) 0.2480(6) 0.3558(4)
H20 H 0.9017 0.2963 0.3274
C25 C 0.8717(6) 0.1653(6) 0.3555(4)
C28 C 0.9002(5) 0.0966(6) 0.3997(4)
Cu3_2 Cu 0.0000 0.5000 0.0000
H9_2 H 0.0544 0.2589 0.1358
Cu3_3 Cu -0.0000 0.5000 1.0000
Cu1_4 Cu 0.5000 0.0000 0.0000
N1_2 N 0.6512(5) 0.2014(4) 0.1864(3)
C1_2 C 0.5700(6) 0.2401(6) 0.1816(4)
H1_2 H 0.5568 0.2901 0.2098
C2_2 C 0.5021(6) 0.2102(7) 0.1364(4)
H2_2 H 0.4456 0.2411 0.1358
N2_2 N 0.5140(5) 0.1417(5) 0.0955(4)
N3_2 N 0.6081(4) 0.0281(4) 0.0581(3)
C4_2 C 0.7579(6) 0.0073(6) 0.1023(5)
C5_2 C 0.7480(6) 0.0803(6) 0.1442(4)
H5_2 H 0.7963 0.0983 0.1726
C6_2 C 0.6653(6) 0.1283(6) 0.1445(4)
C7_2 C 0.5966(6) 0.0998(5) 0.1003(4)
Cu3_4 Cu 1.0000 0.5000 0.0000
N4_2 N 0.8488(5) 0.2986(4) 0.1864(3)
N5_2 N 0.7014(4) 0.3488(5) 0.3136(3)
C8_2 C 0.9300(6) 0.2599(6) 0.1816(4)
H6_2 H 0.9432 0.2099 0.2098
C11_2 C 0.9979(6) 0.2898(7) 0.1364(4)
N9_2 N 0.9860(5) 0.3583(5) 0.0955(4)
N12_2 N 0.8919(4) 0.4719(4) 0.0581(3)
C14_2 C 0.8134(6) 0.5162(6) 0.0593(4)
H12_2 H 0.8053 0.5659 0.0298
C17_2 C 0.7421(6) 0.4927(6) 0.1023(5)
H15_2 H 0.6877 0.5270 0.1025
C20_2 C 0.7520(6) 0.4197(6) 0.1442(4)
H18_2 H 0.7037 0.4017 0.1726
C23_2 C 0.8347(6) 0.3717(6) 0.1445(4)
C26_2 C 0.9034(6) 0.4002(5) 0.1003(4)
Cu1_5 Cu 0.5000 0.0000 1.0000
Cu3_5 Cu 1.0000 0.5000 1.0000
N7_2 N 0.7014(4) 0.1512(5) 0.8136(3)
Cu4_2 Cu 0.7500 0.2500 0.7500
C9_2 C 0.7401(6) 0.0700(6) 0.8184(4)
H7_2 H 0.7901 0.0568 0.7902
C12_2 C 0.7102(7) 0.0021(6) 0.8636(4)
N10_2 N 0.6417(5) 0.0140(5) 0.9045(4)
N15_2 N 0.5281(4) 0.1081(4) 0.9419(3)
C15_2 C 0.4838(6) 0.1866(6) 0.9407(4)
C16_2 C 0.3134(6) 0.0162(6) 0.9407(4)
H13_2 H 0.4341 0.1947 0.9702
H14_2 H 0.3053 0.0659 0.9702
C18_2 C 0.5073(6) 0.2579(6) 0.8977(5)
H16_2 H 0.4730 0.3123 0.8975
H17_2 H 0.1877 0.0270 0.8975
C21_2 C 0.5803(6) 0.2480(6) 0.8558(4)
H19_2 H 0.5983 0.2963 0.8274
C24_2 C 0.6283(6) 0.1653(6) 0.8555(4)
C27_2 C 0.5998(5) 0.0966(6) 0.8997(4)
Cu1_6 Cu 0.5000 1.0000 0.0000
C3 C 0.6866(6) 0.9838(6) 0.0593(4)
H3 H 0.6947 0.9341 0.0298
H4 H 0.8123 0.9730 0.1025
N13_2 N 0.4719(4) 0.8919(4) 0.0581(3)
Cu1_7 Cu 0.5000 1.0000 1.0000
C10_2 C 0.4300(6) 0.7599(6) 0.8184(4)
H8_2 H 0.4432 0.7099 0.7902
C13_2 C 0.4979(6) 0.7898(7) 0.8636(4)
H10 H 0.7411 0.9456 0.8642
H11_2 H 0.5544 0.7589 0.8642
N11_2 N 0.4860(5) 0.8583(5) 0.9045(4)
N14_2 N 0.3919(4) 0.9719(4) 0.9419(3)
C19_2 C 0.2421(6) 0.9927(6) 0.8977(5)
C22_2 C 0.2520(6) 0.9197(6) 0.8558(4)
H20_2 H 0.2037 0.9017 0.8274
C25_2 C 0.3347(6) 0.8717(6) 0.8555(4)
C28_2 C 0.4034(6) 0.9002(5) 0.8997(4)
N7_3 N 0.3488(5) 0.7014(4) 0.3136(3)
C9_3 C 0.4300(6) 0.7401(6) 0.3184(4)
C10_3 C 0.7401(6) 0.4300(6) 0.3184(4)
H7_3 H 0.4432 0.7901 0.2902
H8_3 H 0.7901 0.4432 0.2902
C12_3 C 0.4979(6) 0.7102(7) 0.3636(4)
C13_3 C 0.7102(7) 0.4979(6) 0.3636(4)
H10_2 H 0.5544 0.7411 0.3642
H11_3 H 0.7411 0.5544 0.3642
N10_3 N 0.4860(5) 0.6417(5) 0.4045(4)
N11_3 N 0.6417(5) 0.4860(5) 0.4045(4)
N13_3 N 0.6081(4) 0.4719(4) 0.5581(3)
N14_3 N 0.5281(4) 0.3919(4) 0.4419(3)
N15_3 N 0.3919(4) 0.5281(4) 0.4419(3)
C15_3 C 0.3134(6) 0.4838(6) 0.4407(4)
C16_3 C 0.4838(6) 0.3134(6) 0.4407(4)
H13_3 H 0.3053 0.4341 0.4702
H14_3 H 0.4341 0.3053 0.4702
C18_3 C 0.2421(6) 0.5073(6) 0.3977(5)
C19_3 C 0.5073(6) 0.2421(6) 0.3977(5)
H16_3 H 0.1877 0.4730 0.3975
H17_3 H 0.4730 0.1877 0.3975
C21_3 C 0.2520(6) 0.5803(6) 0.3558(4)
C22_3 C 0.5803(6) 0.2520(6) 0.3558(4)
H19_3 H 0.2037 0.5983 0.3274
H20_3 H 0.5983 0.2037 0.3274
C24_3 C 0.3347(6) 0.6283(6) 0.3555(4)
C25_3 C 0.6283(6) 0.3347(6) 0.3555(4)
C27_3 C 0.4034(6) 0.5998(5) 0.3997(4)
C28_3 C 0.5998(5) 0.4034(6) 0.3997(4)
N13_4 N 0.0281(4) 0.6081(4) 0.0581(3)
C10_4 C 0.0700(6) 0.7401(6) 0.8184(4)
H8_4 H 0.0568 0.7901 0.7902
C13_4 C 0.0021(6) 0.7102(7) 0.8636(4)
N11_4 N 0.0140(5) 0.6417(5) 0.9045(4)
N14_4 N 0.1081(4) 0.5281(4) 0.9419(3)
C15_4 C 0.0162(6) 0.3134(6) 0.9407(4)
C16_4 C 0.1866(6) 0.4838(6) 0.9407(4)
H13_4 H 0.0659 0.3053 0.9702
H14_4 H 0.1947 0.4341 0.9702
C19_4 C 0.2579(6) 0.5073(6) 0.8977(5)
H16_4 H 0.0270 0.1877 0.8975
H17_4 H 0.3123 0.4730 0.8975
C22_4 C 0.2480(6) 0.5803(6) 0.8558(4)
H20_4 H 0.2963 0.5983 0.8274
C25_4 C 0.1653(6) 0.6283(6) 0.8555(4)
C28_4 C 0.0966(6) 0.5998(5) 0.8997(4)
N7_4 N 0.7986(4) 0.3488(5) 0.8136(3)
C9_4 C 0.7599(6) 0.4300(6) 0.8184(4)
H7_4 H 0.7099 0.4432 0.7902
C12_4 C 0.7898(7) 0.4979(6) 0.8636(4)
H10_3 H 0.7589 0.5544 0.8642
H11_4 H 0.9456 0.7411 0.8642
N10_4 N 0.8583(5) 0.4860(5) 0.9045(4)
N15_4 N 0.9719(4) 0.3919(4) 0.9419(3)
C18_4 C 0.9927(6) 0.2421(6) 0.8977(5)
C21_4 C 0.9197(6) 0.2520(6) 0.8558(4)
H19_4 H 0.9017 0.2037 0.8274
C24_4 C 0.8717(6) 0.3347(6) 0.8555(4)
C27_4 C 0.9002(5) 0.4034(6) 0.8997(4)
H11_5 H 0.2589 0.0544 0.1358
N5_3 N 0.8488(5) 0.2014(4) 0.6864(3)
N6_2 N 0.6512(5) 0.2986(4) 0.6864(3)
N8_2 N 0.2986(4) 0.8488(5) 0.1864(3)
C10_5 C 0.2599(6) 0.9300(6) 0.1816(4)
H8_5 H 0.2099 0.9432 0.2098
C13_5 C 0.2898(7) 0.9979(6) 0.1364(4)
N11_5 N 0.3583(5) 0.9860(5) 0.0955(4)
C16_5 C 0.5162(6) 0.8134(6) 0.0593(4)
H14_5 H 0.5659 0.8053 0.0298
C19_5 C 0.4927(6) 0.7421(6) 0.1023(5)
H17_5 H 0.5270 0.6877 0.1025
C22_5 C 0.4197(6) 0.7520(6) 0.1442(4)
H20_5 H 0.4017 0.7037 0.1726
C25_5 C 0.3717(6) 0.8347(6) 0.1445(4)
C28_5 C 0.4002(5) 0.9034(6) 0.1003(4)
N5_4 N 0.2014(4) 0.6512(5) 0.1864(3)
C10_6 C 0.9300(6) 0.2401(6) 0.6816(4)
H8_6 H 0.9432 0.2901 0.7098
C13_6 C 0.9979(6) 0.2102(7) 0.6364(4)
N11_6 N 0.9860(5) 0.1417(5) 0.5955(4)
C19_6 C 0.7421(6) 0.0073(6) 0.6023(5)
C22_6 C 0.7520(6) 0.0803(6) 0.6442(4)
H20_6 H 0.7037 0.0983 0.6726
C25_6 C 0.8347(6) 0.1283(6) 0.6445(4)
C28_6 C 0.9034(6) 0.0998(5) 0.6003(4)
C10_7 C 0.2401(6) 0.5700(6) 0.1816(4)
H8_7 H 0.2901 0.5568 0.2098
C13_7 C 0.2102(7) 0.5021(6) 0.1364(4)
H11_6 H 0.2411 0.4456 0.1358
N11_7 N 0.1417(5) 0.5140(5) 0.0955(4)
C19_7 C 0.0073(6) 0.7579(6) 0.1023(5)
C22_7 C 0.0803(6) 0.7480(6) 0.1442(4)
H20_7 H 0.0983 0.7963 0.1726
C25_7 C 0.1283(6) 0.6653(6) 0.1445(4)
C28_7 C 0.0998(5) 0.5966(6) 0.1003(4)
C16_6 C 0.9838(6) 0.6866(6) 0.0593(4)
H14_6 H 0.9341 0.6947 0.0298
H17_6 H 0.9730 0.8123 0.1025
C10_8 C 0.5700(6) 0.2599(6) 0.6816(4)
H8_8 H 0.5568 0.2099 0.7098
C13_8 C 0.5021(6) 0.2898(7) 0.6364(4)
H11_7 H 0.4456 0.2589 0.6358
N11_8 N 0.5140(5) 0.3583(5) 0.5955(4)
C16_7 C 0.6866(6) 0.5162(6) 0.5593(4)
H14_7 H 0.6947 0.5659 0.5298
C19_8 C 0.7579(6) 0.4927(6) 0.6023(5)
H17_7 H 0.8123 0.5270 0.6025
C22_8 C 0.7480(6) 0.4197(6) 0.6442(4)
H20_8 H 0.7963 0.4017 0.6726
C25_8 C 0.6653(6) 0.3717(6) 0.6445(4)
C28_8 C 0.5966(6) 0.4002(5) 0.6003(4)
Cu1_8 Cu 1.0000 1.0000 0.5000
C3_2 C 0.9838(6) 0.8134(6) 0.5593(4)
H3_2 H 0.9341 0.8053 0.5298
H4_2 H 0.9730 0.6877 0.6025
H10_4 H 0.9456 0.7589 0.3642
H11_8 H 0.7589 0.9456 0.3642
C16_8 C 0.8134(6) 0.9838(6) 0.5593(4)
H14_8 H 0.8053 0.9341 0.5298
H17_8 H 0.6877 0.9730 0.6025
Cl1 Cl 0.7500 0.7500 0.4818(3)
O1 O 0.8048(5) 0.6952(5) 0.5234(7)
O2 O 0.8066(4) 0.8066(4) 0.4446(5)
O3 O 0.6952(5) 0.8048(5) 0.5234(7)
O4 O 0.6934(4) 0.6934(4) 0.4446(5)
O1_2 O 0.8048(5) 0.8048(5) 0.0234(7)
O3_2 O 0.6952(5) 0.6952(5) 0.0234(7)
Cl1_2 Cl 0.7500 0.7500 0.9818(3)
O2_2 O 0.6934(4) 0.8066(4) 0.9446(5)
O4_2 O 0.8066(4) 0.6934(4) 0.9446(5)
Cl1_3 Cl 0.2500 0.2500 0.0182(3)
O2_3 O 0.3066(4) 0.1934(4) 0.0554(5)
O4_3 O 0.1934(4) 0.3066(4) 0.0554(5)
O1_3 O 0.3048(5) 0.3048(5) 0.9766(7)
O3_3 O 0.1952(5) 0.1952(5) 0.9766(7)
Cl1_4 Cl 0.2500 0.2500 0.5182(3)
O1_4 O 0.3048(5) 0.1952(5) 0.4766(7)
O2_4 O 0.1934(4) 0.1934(4) 0.5554(5)
O3_4 O 0.1952(5) 0.3048(5) 0.4766(7)
O4_4 O 0.3066(4) 0.3066(4) 0.5554(5)
O5 O 0.0703(5) 0.9578(6) 0.7716(6)
O8 O 0.9578(6) 0.0703(5) 0.7716(6)
Cl2 Cl 0.9819(2) 0.9819(2) 0.7761(3)
O6 O 0.9506(10) 0.9506(10) 0.7051(7)
O7 O 0.9272(7) 0.9272(7) 0.8154(7)
O5_2 O 0.5422(6) 0.0703(5) 0.2716(6)
Cl2_2 Cl 0.5181(2) 0.9819(2) 0.2761(3)
O6_2 O 0.5494(10) 0.9506(10) 0.2051(7)
O7_2 O 0.5728(7) 0.9272(7) 0.3154(7)
O8_2 O 0.4297(5) 0.9578(6) 0.2716(6)
Cl2_3 Cl 0.5181(2) 0.5181(2) 0.7761(3)
O5_3 O 0.4297(5) 0.5422(6) 0.7716(6)
O6_3 O 0.5494(10) 0.5494(10) 0.7051(7)
O7_3 O 0.5728(7) 0.5728(7) 0.8154(7)
O8_3 O 0.5422(6) 0.4297(5) 0.7716(6)
O8_4 O 0.0703(5) 0.5422(6) 0.2716(6)
Cl2_4 Cl 0.9819(2) 0.5181(2) 0.2761(3)
O5_4 O 0.9578(6) 0.4297(5) 0.2716(6)
O6_4 O 0.9506(10) 0.5494(10) 0.2051(7)
O7_4 O 0.9272(7) 0.5728(7) 0.3154(7)
Cl2_5 Cl 0.4819(2) 0.0181(2) 0.7239(3)
O5_5 O 0.5703(5) 0.0422(6) 0.7284(6)
O6_5 O 0.4506(10) 0.0494(10) 0.7949(7)
O7_5 O 0.4272(7) 0.0728(7) 0.6846(7)
O8_5 O 0.4578(6) 0.9297(5) 0.7284(6)
Cl2_6 Cl 0.0181(2) 0.0181(2) 0.2239(3)
O6_6 O 0.0494(10) 0.0494(10) 0.2949(7)
O7_6 O 0.0728(7) 0.0728(7) 0.1846(7)
O5_6 O 0.0422(6) 0.9297(5) 0.2284(6)
O8_6 O 0.9297(5) 0.0422(6) 0.2284(6)
Cl2_7 Cl 0.0181(2) 0.4819(2) 0.7239(3)
O6_7 O 0.0494(10) 0.4506(10) 0.7949(7)
O7_7 O 0.0728(7) 0.4272(7) 0.6846(7)
O8_7 O 0.0422(6) 0.5703(5) 0.7284(6)
O5_7 O 0.9297(5) 0.4578(6) 0.7284(6)
Cl2_8 Cl 0.4819(2) 0.4819(2) 0.2239(3)
O5_8 O 0.4578(6) 0.5703(5) 0.2284(6)
O6_8 O 0.4506(10) 0.4506(10) 0.2949(7)
O7_8 O 0.4272(7) 0.4272(7) 0.1846(7)
O8_8 O 0.5703(5) 0.4578(6) 0.2284(6)
loop_
_geom_bond_atom_site_label_1
_geom_bond_atom_site_label_2
_geom_bond_site_symmetry_1
_geom_bond_site_symmetry_2
H13 C15 1_555 1_555
H14 C16 1_555 1_555
Cu1_2 N3 1_555 1_555
N1 Cu2 1_555 1_555
Cu2 N4 1_555 1_555
C1 N1 1_555 1_555
H1 C1 1_555 1_555
C2 C1 1_555 1_555
N2 C2 1_555 1_555
C5 C4 1_555 1_555
H5 C5 1_555 1_555
C6 N1 1_555 1_555
C7 N2 1_555 1_555
Cu3 N12 1_555 1_555
N4 C8 1_555 1_555
N5 Cu2 1_555 1_555
N6 Cu2 1_555 1_555
N7 Cu4 1_555 1_555
C8 H6 1_555 1_555
C9 N7 1_555 1_555
H7 C9 1_555 1_555
C11 C8 1_555 1_555
C12 C9 1_555 1_555
H9 C11 1_555 1_555
N9 C11 1_555 1_555
N10 C12 1_555 1_555
N12 C14 1_555 1_555
N15 Cu1_2 1_555 1_555
C14 H12 1_555 1_555
C17 C14 1_555 1_555
H15 C17 1_555 1_555
C20 C17 1_555 1_555
C21 C18 1_555 1_555
H18 C20 1_555 1_555
H19 C21 1_555 1_555
C23 N4 1_555 1_555
C24 N7 1_555 1_555
C26 N9 1_555 1_555
C27 N10 1_555 1_555
N3 C7 1_555 1_555
C5 C6 1_555 1_555
C6 C7 1_555 1_555
N12 C26 1_555 1_555
N15 C27 1_555 1_555
C20 C23 1_555 1_555
C21 C24 1_555 1_555
C23 C26 1_555 1_555
C24 C27 1_555 1_555
N8 Cu5 1_555 1_555
C10 N8 1_555 1_555
H8 C10 1_555 1_555
C13 C10 1_555 1_555
N11 C13 1_555 1_555
N13 Cu1_3 1_555 1_555
N14 Cu1_3 1_555 1_555
C22 C19 1_555 1_555
H20 C22 1_555 1_555
C25 N8 1_555 1_555
C28 N11 1_555 1_555
N14 C28 1_555 1_555
C22 C25 1_555 1_555
C25 C28 1_555 1_555
Cu1_4 N3_2 1_555 1_555
N1_2 Cu5 1_555 1_555
Cu5 N4_2 1_555 1_555
C1_2 N1_2 1_555 1_555
H1_2 C1_2 1_555 1_555
C2_2 C1_2 1_555 1_555
H2_2 C2_2 1_555 1_555
N2_2 C2_2 1_555 1_555
C5_2 C4_2 1_555 1_555
H5_2 C5_2 1_555 1_555
C6_2 N1_2 1_555 1_555
C7_2 N2_2 1_555 1_555
Cu3_4 N12_2 1_555 1_555
N4_2 C8_2 1_555 1_555
N5_2 Cu5 1_555 1_555
C8_2 H6_2 1_555 1_555
C11_2 C8_2 1_555 1_555
N9_2 C11_2 1_555 1_555
N12_2 C14_2 1_555 1_555
C14_2 H12_2 1_555 1_555
C17_2 C14_2 1_555 1_555
H15_2 C17_2 1_555 1_555
C20_2 C17_2 1_555 1_555
H18_2 C20_2 1_555 1_555
C23_2 N4_2 1_555 1_555
C26_2 N9_2 1_555 1_555
N3_2 C7_2 1_555 1_555
C5_2 C6_2 1_555 1_555
C6_2 C7_2 1_555 1_555
N12_2 C26_2 1_555 1_555
C20_2 C23_2 1_555 1_555
C23_2 C26_2 1_555 1_555
N7_2 Cu4_2 1_555 1_555
C9_2 N7_2 1_555 1_555
H7_2 C9_2 1_555 1_555
C12_2 C9_2 1_555 1_555
N10_2 C12_2 1_555 1_555
N15_2 Cu1_5 1_555 1_555
C15_2 N15_2 1_555 1_555
H13_2 C15_2 1_555 1_555
H14_2 C16_2 1_555 1_555
C18_2 C15_2 1_555 1_555
H16_2 C18_2 1_555 1_555
C21_2 C18_2 1_555 1_555
H19_2 C21_2 1_555 1_555
C24_2 N7_2 1_555 1_555
C27_2 N10_2 1_555 1_555
N15_2 C27_2 1_555 1_555
C21_2 C24_2 1_555 1_555
C24_2 C27_2 1_555 1_555
C3 H3 1_555 1_555
N13_2 Cu1_6 1_555 1_555
C10_2 N5 1_555 1_555
H8_2 C10_2 1_555 1_555
C13_2 C10_2 1_555 1_555
H11_2 C13_2 1_555 1_555
N11_2 C13_2 1_555 1_555
N14_2 Cu1_7 1_555 1_555
C22_2 C19_2 1_555 1_555
H20_2 C22_2 1_555 1_555
C25_2 N5 1_555 1_555
C28_2 N11_2 1_555 1_555
N14_2 C28_2 1_555 1_555
C22_2 C25_2 1_555 1_555
C25_2 C28_2 1_555 1_555
N7_3 Cu4 1_555 1_555
C9_3 N7_3 1_555 1_555
C10_3 N5_2 1_555 1_555
H7_3 C9_3 1_555 1_555
H8_3 C10_3 1_555 1_555
C12_3 C9_3 1_555 1_555
C13_3 C10_3 1_555 1_555
H10_2 C12_3 1_555 1_555
H11_3 C13_3 1_555 1_555
N10_3 C12_3 1_555 1_555
N11_3 C13_3 1_555 1_555
N13_3 Cu3 1_555 1_555
N14_3 Cu3 1_555 1_555
N15_3 Cu3 1_555 1_555
C15_3 N15_3 1_555 1_555
C16_3 N14_3 1_555 1_555
H13_3 C15_3 1_555 1_555
H14_3 C16_3 1_555 1_555
C18_3 C15_3 1_555 1_555
C19_3 C16_3 1_555 1_555
H16_3 C18_3 1_555 1_555
H17_3 C19_3 1_555 1_555
C21_3 C18_3 1_555 1_555
C22_3 C19_3 1_555 1_555
H19_3 C21_3 1_555 1_555
H20_3 C22_3 1_555 1_555
C24_3 N7_3 1_555 1_555
C25_3 N5_2 1_555 1_555
C27_3 N10_3 1_555 1_555
C28_3 N11_3 1_555 1_555
N14_3 C28_3 1_555 1_555
N15_3 C27_3 1_555 1_555
C21_3 C24_3 1_555 1_555
C22_3 C25_3 1_555 1_555
C24_3 C27_3 1_555 1_555
C25_3 C28_3 1_555 1_555
N13_4 Cu3_2 1_555 1_555
C10_4 N6 1_555 1_555
H8_4 C10_4 1_555 1_555
C13_4 C10_4 1_555 1_555
N11_4 C13_4 1_555 1_555
N14_4 Cu3_3 1_555 1_555
C16_4 N14_4 1_555 1_555
H13_4 C15_4 1_555 1_555
H14_4 C16_4 1_555 1_555
C19_4 C16_4 1_555 1_555
H17_4 C19_4 1_555 1_555
C22_4 C19_4 1_555 1_555
H20_4 C22_4 1_555 1_555
C25_4 N6 1_555 1_555
C28_4 N11_4 1_555 1_555
N14_4 C28_4 1_555 1_555
C22_4 C25_4 1_555 1_555
C25_4 C28_4 1_555 1_555
N7_4 Cu4_2 1_555 1_555
C9_4 N7_4 1_555 1_555
H7_4 C9_4 1_555 1_555
C12_4 C9_4 1_555 1_555
H10_3 C12_4 1_555 1_555
N10_4 C12_4 1_555 1_555
N15_4 Cu3_5 1_555 1_555
C21_4 C18_4 1_555 1_555
H19_4 C21_4 1_555 1_555
C24_4 N7_4 1_555 1_555
C27_4 N10_4 1_555 1_555
N15_4 C27_4 1_555 1_555
C21_4 C24_4 1_555 1_555
C24_4 C27_4 1_555 1_555
N5_3 Cu4_2 1_555 1_555
N6_2 Cu4_2 1_555 1_555
N8_2 Cu4 1_555 1_555
C10_5 N8_2 1_555 1_555
H8_5 C10_5 1_555 1_555
C13_5 C10_5 1_555 1_555
N11_5 C13_5 1_555 1_555
C16_5 N13_2 1_555 1_555
H14_5 C16_5 1_555 1_555
C19_5 C16_5 1_555 1_555
H17_5 C19_5 1_555 1_555
C22_5 C19_5 1_555 1_555
H20_5 C22_5 1_555 1_555
C25_5 N8_2 1_555 1_555
C28_5 N11_5 1_555 1_555
N13_2 C28_5 1_555 1_555
C22_5 C25_5 1_555 1_555
C25_5 C28_5 1_555 1_555
N5_4 Cu4 1_555 1_555
C10_6 N5_3 1_555 1_555
H8_6 C10_6 1_555 1_555
C13_6 C10_6 1_555 1_555
N11_6 C13_6 1_555 1_555
C22_6 C19_6 1_555 1_555
H20_6 C22_6 1_555 1_555
C25_6 N5_3 1_555 1_555
C28_6 N11_6 1_555 1_555
N13 C28_6 1_555 1_555
C22_6 C25_6 1_555 1_555
C25_6 C28_6 1_555 1_555
C10_7 N5_4 1_555 1_555
H8_7 C10_7 1_555 1_555
C13_7 C10_7 1_555 1_555
H11_6 C13_7 1_555 1_555
N11_7 C13_7 1_555 1_555
C22_7 C19_7 1_555 1_555
H20_7 C22_7 1_555 1_555
C25_7 N5_4 1_555 1_555
C28_7 N11_7 1_555 1_555
N13_4 C28_7 1_555 1_555
C22_7 C25_7 1_555 1_555
C25_7 C28_7 1_555 1_555
H14_6 C16_6 1_555 1_555
C10_8 N6_2 1_555 1_555
H8_8 C10_8 1_555 1_555
C13_8 C10_8 1_555 1_555
H11_7 C13_8 1_555 1_555
N11_8 C13_8 1_555 1_555
C16_7 N13_3 1_555 1_555
H14_7 C16_7 1_555 1_555
C19_8 C16_7 1_555 1_555
H17_7 C19_8 1_555 1_555
C22_8 C19_8 1_555 1_555
H20_8 C22_8 1_555 1_555
C25_8 N6_2 1_555 1_555
C28_8 N11_8 1_555 1_555
N13_3 C28_8 1_555 1_555
C22_8 C25_8 1_555 1_555
C25_8 C28_8 1_555 1_555
C3_2 H3_2 1_555 1_555
H14_8 C16_8 1_555 1_555
Cl1 O1 1_555 1_555
O2 Cl1 1_555 1_555
O3 Cl1 1_555 1_555
O4 Cl1 1_555 1_555
O2_2 Cl1_2 1_555 1_555
O4_2 Cl1_2 1_555 1_555
O2_3 Cl1_3 1_555 1_555
O4_3 Cl1_3 1_555 1_555
Cl1_4 O1_4 1_555 1_555
O2_4 Cl1_4 1_555 1_555
O3_4 Cl1_4 1_555 1_555
O4_4 Cl1_4 1_555 1_555
O6 Cl2 1_555 1_555
O7 Cl2 1_555 1_555
O6_2 Cl2_2 1_555 1_555
O7_2 Cl2_2 1_555 1_555
O8_2 Cl2_2 1_555 1_555
Cl2_3 O5_3 1_555 1_555
O6_3 Cl2_3 1_555 1_555
O7_3 Cl2_3 1_555 1_555
O8_3 Cl2_3 1_555 1_555
Cl2_4 O5_4 1_555 1_555
O6_4 Cl2_4 1_555 1_555
O7_4 Cl2_4 1_555 1_555
Cl2_5 O5_5 1_555 1_555
O6_5 Cl2_5 1_555 1_555
O7_5 Cl2_5 1_555 1_555
O6_6 Cl2_6 1_555 1_555
O7_6 Cl2_6 1_555 1_555
O6_7 Cl2_7 1_555 1_555
O7_7 Cl2_7 1_555 1_555
O8_7 Cl2_7 1_555 1_555
Cl2_8 O5_8 1_555 1_555
O6_8 Cl2_8 1_555 1_555
O7_8 Cl2_8 1_555 1_555
O8_8 Cl2_8 1_555 1_555

#END
