
###############################################################################
#
# This file contains modified crystal structure data generated from the
# MOF subset of the Cambridge Structural Database (CSD) v543 
# hosted by the Cambridge Crystallographic Data Centre (CCDC).
#
# This work is licensed under the Creative Commons
# Attribution-NonCommercial-ShareAlike 4.0 International License.
# To view a copy of this license, visit
# http://creativecommons.org/licenses/by-nc-sa/4.0/
# or send a letter to
# Creative Commons, PO Box 1866, Mountain View, CA 94042, USA.
#
# CIF created using the CSD Python API on 29 September 2022
# The structure has been converted into the P1 space group
# The structure has a 3D framework
# The original CSD entry IPIFAP is in the orthorhombic crystal system
# The framework has been calculated to contain at least 10.0% void space
# The void calculation uses a probe of radius 1.32A, grid spacing 0.4
#
###############################################################################

data_IPIFAP
_chemical_formula_moiety         '(C76 H118 Ag14 N32 O34)n'
_symmetry_cell_setting           triclinic
_symmetry_space_group_name_H-M   'P 1'
_symmetry_Int_Tables_number      1
_space_group_name_Hall           'P 1'
loop_
_symmetry_equiv_pos_site_id
_symmetry_equiv_pos_as_xyz
1 x,y,z
_cell_length_a                   20.837(5)
_cell_length_b                   11.759(5)
_cell_length_c                   11.346(5)
_cell_angle_alpha                90
_cell_angle_beta                 90
_cell_angle_gamma                90
_cell_volume                     2780.02
loop_
_atom_site_label
_atom_site_type_symbol
_atom_site_fract_x
_atom_site_fract_y
_atom_site_fract_z
H7 H 0.1095 0.0193 0.3336
H11 H 0.2036 0.0371 0.2075
Ag4 Ag 0.246310(11) 0.10518(2) 0.47508(4)
C1 C 0.22760(17) 0.7648(3) 0.2264(4)
H1 H 0.2143 0.6989 0.1812
H2 H 0.2741 0.7681 0.2249
C2 C 0.22489(16) 0.8528(3) 0.4170(4)
H3 H 0.2714 0.8577 0.4188
H4 H 0.2099 0.8450 0.4975
C3 C 0.13526(15) 0.7462(3) 0.3486(3)
H5 H 0.1199 0.7380 0.4288
H6 H 0.1217 0.6798 0.3044
C4 C 0.12783(15) 0.9502(3) 0.3661(3)
H8 H 0.1126 0.9422 0.4465
C5 C 0.13052(15) 0.8618(3) 0.1736(4)
H9 H 0.1125 0.9297 0.1380
H10 H 0.1167 0.7969 0.1274
C6 C 0.22102(16) 0.9684(3) 0.2424(3)
H12 H 0.2674 0.9744 0.2416
C7 C 0.12367(17) 0.5229(3) 0.5640(5)
C8 C 0.05898(15) 0.5061(4) 0.6236(4)
H13 H 0.0550 0.5618 0.6862
H14 H 0.0587 0.4314 0.6601
C9 C 0.0000 0.5156(5) 0.5440(6)
C10 C 0.0000 0.6320(4) 0.4767(7)
N1 N 0.20578(12) 0.7519(2) 0.3491(3)
N2 N 0.10620(12) 0.85042(18) 0.2949(3)
N3 N 0.19850(13) 0.9589(2) 0.3658(3)
N4 N 0.20125(13) 0.8690(2) 0.1708(3)
O1 O 0.0000 0.7213(3) 0.5366(4)
O2 O 0.0000 0.6264(3) 0.3666(4)
O3 O 0.1456(2) 0.4501(4) 0.5052(9)
O4 O 0.15280(13) 0.6122(3) 0.5817(3)
O5 O 0.0000 0.4273(3) 0.4607(5)
Ag1 Ag 0.253690(11) 0.60518(2) 0.47508(4)
Ag2 Ag 0.0000 0.82608(3) 0.29824(4)
H15 H -0.0000 0.4474 0.3891
N8 N 0.30150(13) 0.4589(2) 0.3658(3)
N11 N 0.29875(13) 0.6310(2) 0.6708(3)
Ag5 Ag 0.246310(11) 0.89482(2) 0.97508(4)
H22 H 0.8905 0.0193 0.3336
H26 H 0.7964 0.0371 0.2075
Ag6 Ag 0.753690(11) 0.10518(2) 0.47508(4)
C9_2 C 1.0000 0.5156(5) 0.5440(6)
C10_2 C 1.0000 0.6320(4) 0.4767(7)
O1_2 O 1.0000 0.7213(3) 0.5366(4)
O2_2 O 1.0000 0.6264(3) 0.3666(4)
O5_2 O 1.0000 0.4273(3) 0.4607(5)
Ag2_2 Ag 1.0000 0.82608(3) 0.29824(4)
H15_2 H 1.0000 0.4474 0.3891
C11 C 0.77240(17) 0.7648(3) 0.2264(4)
H16 H 0.7857 0.6989 0.1812
H17 H 0.7259 0.7681 0.2249
C12 C 0.77511(16) 0.8528(3) 0.4170(4)
H18 H 0.7286 0.8577 0.4188
H19 H 0.7901 0.8450 0.4975
C13 C 0.86474(15) 0.7462(3) 0.3486(3)
H20 H 0.8801 0.7380 0.4288
H21 H 0.8783 0.6798 0.3044
C14 C 0.87217(15) 0.9502(3) 0.3661(3)
H23 H 0.8874 0.9422 0.4465
C15 C 0.86948(15) 0.8618(3) 0.1736(4)
H24 H 0.8875 0.9297 0.1380
H25 H 0.8833 0.7969 0.1274
C16 C 0.77898(16) 0.9684(3) 0.2424(3)
H27 H 0.7326 0.9744 0.2416
C17 C 0.87633(17) 0.5229(3) 0.5640(5)
C18 C 0.94102(15) 0.5061(4) 0.6236(4)
H28 H 0.9450 0.5618 0.6862
H29 H 0.9413 0.4314 0.6601
N5 N 0.79422(12) 0.7519(2) 0.3491(3)
N6 N 0.89380(12) 0.85042(18) 0.2949(3)
N7 N 0.80150(13) 0.9589(2) 0.3658(3)
N9 N 0.69850(13) 0.4589(2) 0.3658(3)
N10 N 0.79875(13) 0.8690(2) 0.1708(3)
N12 N 0.70125(13) 0.6310(2) 0.6708(3)
O6 O 0.8544(2) 0.4501(4) 0.5052(9)
O7 O 0.84720(13) 0.6122(3) 0.5817(3)
Ag3 Ag 0.746310(11) 0.60518(2) 0.47508(4)
Ag7 Ag 0.753690(11) 0.89482(2) 0.97508(4)
C9_3 C 0.0000 0.4844(5) 0.0440(6)
O1_3 O 0.0000 0.2787(3) 0.0366(4)
C17_2 C 0.12367(17) 0.4771(3) 0.0640(5)
C18_2 C 0.05898(15) 0.4939(4) 0.1236(4)
H28_2 H 0.0550 0.4382 0.1862
H29_2 H 0.0587 0.5686 0.1601
N12_2 N 0.29875(13) 0.3690(2) 0.1708(3)
O6_2 O 0.1456(2) 0.5499(4) 0.0052(9)
O7_2 O 0.15280(13) 0.3878(3) 0.0817(3)
C10_3 C -0.0000 0.3680(4) 0.9767(7)
O2_3 O -0.0000 0.3736(3) 0.8666(4)
O5_3 O 0.0000 0.5727(3) 0.9607(5)
Ag2_3 Ag 0.0000 0.17392(3) 0.79824(4)
H15_3 H 0.0000 0.5526 0.8891
C11_2 C 0.22760(17) 0.2352(3) 0.7264(4)
H16_2 H 0.2143 0.3011 0.6812
H17_2 H 0.2741 0.2319 0.7249
C12_2 C 0.22489(16) 0.1472(3) 0.9170(4)
H18_2 H 0.2714 0.1423 0.9188
H19_2 H 0.2099 0.1550 0.9975
C13_2 C 0.13526(15) 0.2538(3) 0.8486(3)
H20_2 H 0.1199 0.2620 0.9288
H21_2 H 0.1217 0.3202 0.8044
C14_2 C 0.12783(15) 0.0498(3) 0.8661(3)
H23_2 H 0.1126 0.0578 0.9465
C15_2 C 0.13052(15) 0.1382(3) 0.6736(4)
H24_2 H 0.1125 0.0703 0.6380
H25_2 H 0.1167 0.2031 0.6274
C16_2 C 0.22102(16) 0.0316(3) 0.7424(3)
H27_2 H 0.2674 0.0256 0.7416
N5_2 N 0.20578(12) 0.2481(2) 0.8491(3)
N6_2 N 0.10620(12) 0.14958(18) 0.7949(3)
N7_2 N 0.19850(13) 0.0411(2) 0.8658(3)
N9_2 N 0.30150(13) 0.5411(2) 0.8658(3)
N10_2 N 0.20125(13) 0.1310(2) 0.6708(3)
Ag3_2 Ag 0.253690(11) 0.39482(2) 0.97508(4)
H22_2 H 0.1095 0.9807 0.8336
H26_2 H 0.2036 0.9629 0.7075
C7_2 C 0.87633(17) 0.4771(3) 0.0640(5)
C8_2 C 0.94102(15) 0.4939(4) 0.1236(4)
H13_2 H 0.9450 0.4382 0.1862
H14_2 H 0.9413 0.5686 0.1601
C9_4 C 1.0000 0.4844(5) 0.0440(6)
O1_4 O 1.0000 0.2787(3) 0.0366(4)
O3_2 O 0.8544(2) 0.5499(4) 0.0052(9)
O4_2 O 0.84720(13) 0.3878(3) 0.0817(3)
N11_2 N 0.70125(13) 0.3690(2) 0.1708(3)
C1_2 C 0.77240(17) 0.2352(3) 0.7264(4)
H1_2 H 0.7857 0.3011 0.6812
H2_2 H 0.7259 0.2319 0.7249
C2_2 C 0.77511(16) 0.1472(3) 0.9170(4)
H3_2 H 0.7286 0.1423 0.9188
H4_2 H 0.7901 0.1550 0.9975
C3_2 C 0.86474(15) 0.2538(3) 0.8486(3)
H5_2 H 0.8801 0.2620 0.9288
H6_2 H 0.8783 0.3202 0.8044
C4_2 C 0.87217(15) 0.0498(3) 0.8661(3)
H8_2 H 0.8874 0.0578 0.9465
C5_2 C 0.86948(15) 0.1382(3) 0.6736(4)
H9_2 H 0.8875 0.0703 0.6380
H10_2 H 0.8833 0.2031 0.6274
C6_2 C 0.77898(16) 0.0316(3) 0.7424(3)
H12_2 H 0.7326 0.0256 0.7416
C10_4 C 1.0000 0.3680(4) 0.9767(7)
N1_2 N 0.79422(12) 0.2481(2) 0.8491(3)
N2_2 N 0.89380(12) 0.14958(18) 0.7949(3)
N3_2 N 0.80150(13) 0.0411(2) 0.8658(3)
N4_2 N 0.79875(13) 0.1310(2) 0.6708(3)
O2_4 O 1.0000 0.3736(3) 0.8666(4)
O5_4 O 1.0000 0.5727(3) 0.9607(5)
Ag1_2 Ag 0.746310(11) 0.39482(2) 0.97508(4)
Ag2_4 Ag 1.0000 0.17392(3) 0.79824(4)
H15_4 H 1.0000 0.5526 0.8891
N8_2 N 0.69850(13) 0.5411(2) 0.8658(3)
H7_2 H 0.8905 0.9807 0.8336
H11_2 H 0.7964 0.9629 0.7075
C1_3 C 0.72760(17) 0.2648(3) 0.2264(4)
H1_3 H 0.7143 0.1989 0.1812
H2_3 H 0.7741 0.2681 0.2249
C2_3 C 0.72489(16) 0.3528(3) 0.4170(4)
H3_3 H 0.7714 0.3577 0.4188
H4_3 H 0.7099 0.3450 0.4975
C3_3 C 0.63526(15) 0.2462(3) 0.3486(3)
H5_3 H 0.6199 0.2380 0.4288
H6_3 H 0.6217 0.1798 0.3044
C4_3 C 0.62783(15) 0.4502(3) 0.3661(3)
H7_3 H 0.6095 0.5193 0.3336
H8_3 H 0.6126 0.4422 0.4465
C5_3 C 0.63052(15) 0.3618(3) 0.1736(4)
H9_3 H 0.6125 0.4297 0.1380
H10_3 H 0.6167 0.2969 0.1274
C6_3 C 0.72102(16) 0.4684(3) 0.2424(3)
H11_3 H 0.7036 0.5371 0.2075
H12_3 H 0.7674 0.4744 0.2416
C7_3 C 0.62367(17) 0.0229(3) 0.5640(5)
C8_3 C 0.55898(15) 0.0061(4) 0.6236(4)
H13_3 H 0.5550 0.0618 0.6862
C9_5 C 0.5000 0.0156(5) 0.5440(6)
C10_5 C 0.5000 0.1320(4) 0.4767(7)
N1_3 N 0.70578(12) 0.2519(2) 0.3491(3)
N2_3 N 0.60620(12) 0.35042(18) 0.2949(3)
O1_5 O 0.5000 0.2213(3) 0.5366(4)
O2_5 O 0.5000 0.1264(3) 0.3666(4)
O4_3 O 0.65280(13) 0.1122(3) 0.5817(3)
Ag2_5 Ag 0.5000 0.32608(3) 0.29824(4)
C11_3 C 0.27240(17) 0.2648(3) 0.2264(4)
H16_3 H 0.2857 0.1989 0.1812
H17_3 H 0.2259 0.2681 0.2249
C12_3 C 0.27511(16) 0.3528(3) 0.4170(4)
H18_3 H 0.2286 0.3577 0.4188
H19_3 H 0.2901 0.3450 0.4975
C13_3 C 0.36474(15) 0.2462(3) 0.3486(3)
H20_3 H 0.3801 0.2380 0.4288
H21_3 H 0.3783 0.1798 0.3044
C14_3 C 0.37217(15) 0.4502(3) 0.3661(3)
H22_3 H 0.3905 0.5193 0.3336
H23_3 H 0.3874 0.4422 0.4465
C15_3 C 0.36948(15) 0.3618(3) 0.1736(4)
H24_3 H 0.3875 0.4297 0.1380
H25_3 H 0.3833 0.2969 0.1274
C16_3 C 0.27898(16) 0.4684(3) 0.2424(3)
H26_3 H 0.2964 0.5371 0.2075
H27_3 H 0.2326 0.4744 0.2416
C17_3 C 0.37633(17) 0.0229(3) 0.5640(5)
C18_3 C 0.44102(15) 0.0061(4) 0.6236(4)
H28_3 H 0.4450 0.0618 0.6862
N5_3 N 0.29422(12) 0.2519(2) 0.3491(3)
N6_3 N 0.39380(12) 0.35042(18) 0.2949(3)
O7_3 O 0.34720(13) 0.1122(3) 0.5817(3)
H14_3 H 0.5587 0.9314 0.6601
O3_3 O 0.6456(2) 0.9501(4) 0.5052(9)
O5_5 O 0.5000 0.9273(3) 0.4607(5)
H15_5 H 0.5000 0.9474 0.3891
H29_3 H 0.4413 0.9314 0.6601
O6_3 O 0.3544(2) 0.9501(4) 0.5052(9)
O5_6 O 0.5000 0.0727(3) 0.9607(5)
H15_6 H 0.5000 0.0526 0.8891
C7_4 C 0.37633(17) 0.9771(3) 0.0640(5)
C8_4 C 0.44102(15) 0.9939(4) 0.1236(4)
H13_4 H 0.4450 0.9382 0.1862
C9_6 C 0.5000 0.9844(5) 0.0440(6)
O1_6 O 0.5000 0.7787(3) 0.0366(4)
O4_4 O 0.34720(13) 0.8878(3) 0.0817(3)
C17_4 C 0.62367(17) 0.9771(3) 0.0640(5)
C18_4 C 0.55898(15) 0.9939(4) 0.1236(4)
H28_4 H 0.5550 0.9382 0.1862
O7_4 O 0.65280(13) 0.8878(3) 0.0817(3)
C1_4 C 0.27240(17) 0.7352(3) 0.7264(4)
H1_4 H 0.2857 0.8011 0.6812
H2_4 H 0.2259 0.7319 0.7249
C2_4 C 0.27511(16) 0.6472(3) 0.9170(4)
H3_4 H 0.2286 0.6423 0.9188
H4_4 H 0.2901 0.6550 0.9975
C3_4 C 0.36474(15) 0.7538(3) 0.8486(3)
H5_4 H 0.3801 0.7620 0.9288
H6_4 H 0.3783 0.8202 0.8044
C4_4 C 0.37217(15) 0.5498(3) 0.8661(3)
H7_4 H 0.3905 0.4807 0.8336
H8_4 H 0.3874 0.5578 0.9465
C5_4 C 0.36948(15) 0.6382(3) 0.6736(4)
H9_4 H 0.3875 0.5703 0.6380
H10_4 H 0.3833 0.7031 0.6274
C6_4 C 0.27898(16) 0.5316(3) 0.7424(3)
H11_4 H 0.2964 0.4629 0.7075
H12_4 H 0.2326 0.5256 0.7416
C10_6 C 0.5000 0.8680(4) 0.9767(7)
N1_4 N 0.29422(12) 0.7481(2) 0.8491(3)
N2_4 N 0.39380(12) 0.64958(18) 0.7949(3)
O2_6 O 0.5000 0.8736(3) 0.8666(4)
Ag2_6 Ag 0.5000 0.67392(3) 0.79824(4)
C11_4 C 0.72760(17) 0.7352(3) 0.7264(4)
H16_4 H 0.7143 0.8011 0.6812
H17_4 H 0.7741 0.7319 0.7249
C12_4 C 0.72489(16) 0.6472(3) 0.9170(4)
H18_4 H 0.7714 0.6423 0.9188
H19_4 H 0.7099 0.6550 0.9975
C13_4 C 0.63526(15) 0.7538(3) 0.8486(3)
H20_4 H 0.6199 0.7620 0.9288
H21_4 H 0.6217 0.8202 0.8044
C14_4 C 0.62783(15) 0.5498(3) 0.8661(3)
H22_4 H 0.6095 0.4807 0.8336
H23_4 H 0.6126 0.5578 0.9465
C15_4 C 0.63052(15) 0.6382(3) 0.6736(4)
H24_4 H 0.6125 0.5703 0.6380
H25_4 H 0.6167 0.7031 0.6274
C16_4 C 0.72102(16) 0.5316(3) 0.7424(3)
H26_4 H 0.7036 0.4629 0.7075
H27_4 H 0.7674 0.5256 0.7416
N5_4 N 0.70578(12) 0.7481(2) 0.8491(3)
N6_4 N 0.60620(12) 0.64958(18) 0.7949(3)
H14_4 H 0.4413 0.0686 0.1601
O3_4 O 0.3544(2) 0.0499(4) 0.0052(9)
H29_4 H 0.5587 0.0686 0.1601
O6_4 O 0.6456(2) 0.0499(4) 0.0052(9)
loop_
_geom_bond_atom_site_label_1
_geom_bond_atom_site_label_2
_geom_bond_site_symmetry_1
_geom_bond_site_symmetry_2
C1 H1 1_555 1_555
H2 C1 1_555 1_555
C2 H3 1_555 1_555
H4 C2 1_555 1_555
C3 H5 1_555 1_555
H6 C3 1_555 1_555
H8 C4 1_555 1_555
C5 H9 1_555 1_555
H10 C5 1_555 1_555
H12 C6 1_555 1_555
C7 C8 1_555 1_555
C8 H13 1_555 1_555
H14 C8 1_555 1_555
C9 C8 1_555 1_555
C10 C9 1_555 1_555
N1 C1 1_555 1_555
N2 C3 1_555 1_555
N3 C2 1_555 1_555
N4 C1 1_555 1_555
O1 C10 1_555 1_555
O2 C10 1_555 1_555
O3 C7 1_555 1_555
O4 C7 1_555 1_555
O5 C9 1_555 1_555
Ag1 N1 1_555 1_555
Ag2 N2 1_555 1_555
H15 O5 1_555 1_555
N8 Ag1 1_555 1_555
N11 Ag1 1_555 1_555
C2 N1 1_555 1_555
C3 N1 1_555 1_555
C4 N2 1_555 1_555
C4 N3 1_555 1_555
C5 N2 1_555 1_555
C5 N4 1_555 1_555
C6 N3 1_555 1_555
C6 N4 1_555 1_555
O2 Ag2 1_555 1_555
O4 Ag1 1_555 1_555
C10_2 C9_2 1_555 1_555
O1_2 C10_2 1_555 1_555
O2_2 C10_2 1_555 1_555
O5_2 C9_2 1_555 1_555
H15_2 O5_2 1_555 1_555
C11 H16 1_555 1_555
H17 C11 1_555 1_555
C12 H18 1_555 1_555
H19 C12 1_555 1_555
C13 H20 1_555 1_555
H21 C13 1_555 1_555
H23 C14 1_555 1_555
C15 H24 1_555 1_555
H25 C15 1_555 1_555
H27 C16 1_555 1_555
C17 C18 1_555 1_555
C18 C9_2 1_555 1_555
H28 C18 1_555 1_555
H29 C18 1_555 1_555
N5 C11 1_555 1_555
N6 Ag2_2 1_555 1_555
N7 C12 1_555 1_555
N9 Ag3 1_555 1_555
N10 C11 1_555 1_555
N12 Ag3 1_555 1_555
O6 C17 1_555 1_555
O7 C17 1_555 1_555
Ag3 N5 1_555 1_555
O2_2 Ag2_2 1_555 1_555
C12 N5 1_555 1_555
C13 N5 1_555 1_555
C13 N6 1_555 1_555
C14 N6 1_555 1_555
C14 N7 1_555 1_555
C15 N6 1_555 1_555
C15 N10 1_555 1_555
C16 N7 1_555 1_555
C16 N10 1_555 1_555
O7 Ag3 1_555 1_555
C17_2 C18_2 1_555 1_555
C18_2 C9_3 1_555 1_555
H28_2 C18_2 1_555 1_555
H29_2 C18_2 1_555 1_555
O6_2 C17_2 1_555 1_555
O7_2 C17_2 1_555 1_555
O2_3 C10_3 1_555 1_555
H15_3 O5_3 1_555 1_555
C11_2 H16_2 1_555 1_555
H17_2 C11_2 1_555 1_555
C12_2 H18_2 1_555 1_555
H19_2 C12_2 1_555 1_555
C13_2 H20_2 1_555 1_555
H21_2 C13_2 1_555 1_555
H23_2 C14_2 1_555 1_555
C15_2 H24_2 1_555 1_555
H25_2 C15_2 1_555 1_555
H27_2 C16_2 1_555 1_555
N5_2 C11_2 1_555 1_555
N6_2 Ag2_3 1_555 1_555
N7_2 C12_2 1_555 1_555
N9_2 Ag3_2 1_555 1_555
N10_2 C11_2 1_555 1_555
Ag3_2 N5_2 1_555 1_555
Ag4 N10_2 1_555 1_555
O2_3 Ag2_3 1_555 1_555
C12_2 N5_2 1_555 1_555
C13_2 N5_2 1_555 1_555
C13_2 N6_2 1_555 1_555
C14_2 N6_2 1_555 1_555
C14_2 N7_2 1_555 1_555
C15_2 N6_2 1_555 1_555
C15_2 N10_2 1_555 1_555
C16_2 N7_2 1_555 1_555
C16_2 N10_2 1_555 1_555
C7_2 C8_2 1_555 1_555
C8_2 H13_2 1_555 1_555
H14_2 C8_2 1_555 1_555
C9_4 C8_2 1_555 1_555
O3_2 C7_2 1_555 1_555
O4_2 C7_2 1_555 1_555
C1_2 H1_2 1_555 1_555
H2_2 C1_2 1_555 1_555
C2_2 H3_2 1_555 1_555
H4_2 C2_2 1_555 1_555
C3_2 H5_2 1_555 1_555
H6_2 C3_2 1_555 1_555
H8_2 C4_2 1_555 1_555
C5_2 H9_2 1_555 1_555
H10_2 C5_2 1_555 1_555
H12_2 C6_2 1_555 1_555
N1_2 C1_2 1_555 1_555
N2_2 C3_2 1_555 1_555
N3_2 C2_2 1_555 1_555
N4_2 C1_2 1_555 1_555
O2_4 C10_4 1_555 1_555
Ag1_2 N1_2 1_555 1_555
Ag2_4 N2_2 1_555 1_555
H15_4 O5_4 1_555 1_555
N8_2 Ag1_2 1_555 1_555
Ag6 N4_2 1_555 1_555
C2_2 N1_2 1_555 1_555
C3_2 N1_2 1_555 1_555
C4_2 N2_2 1_555 1_555
C4_2 N3_2 1_555 1_555
C5_2 N2_2 1_555 1_555
C5_2 N4_2 1_555 1_555
C6_2 N3_2 1_555 1_555
C6_2 N4_2 1_555 1_555
O2_4 Ag2_4 1_555 1_555
C1_3 H1_3 1_555 1_555
H2_3 C1_3 1_555 1_555
C2_3 H3_3 1_555 1_555
H4_3 C2_3 1_555 1_555
C3_3 H5_3 1_555 1_555
H6_3 C3_3 1_555 1_555
C4_3 H7_3 1_555 1_555
H8_3 C4_3 1_555 1_555
C5_3 H9_3 1_555 1_555
H10_3 C5_3 1_555 1_555
C6_3 H11_3 1_555 1_555
H12_3 C6_3 1_555 1_555
C7_3 C8_3 1_555 1_555
C8_3 H13_3 1_555 1_555
C9_5 C8_3 1_555 1_555
C10_5 C9_5 1_555 1_555
N1_3 C1_3 1_555 1_555
N2_3 C3_3 1_555 1_555
N9 C2_3 1_555 1_555
N11_2 C1_3 1_555 1_555
O1_5 C10_5 1_555 1_555
O2_5 C10_5 1_555 1_555
O4_3 C7_3 1_555 1_555
Ag6 N1_3 1_555 1_555
Ag2_5 N2_3 1_555 1_555
C11_3 H16_3 1_555 1_555
H17_3 C11_3 1_555 1_555
C12_3 H18_3 1_555 1_555
H19_3 C12_3 1_555 1_555
C13_3 H20_3 1_555 1_555
H21_3 C13_3 1_555 1_555
C14_3 H22_3 1_555 1_555
H23_3 C14_3 1_555 1_555
C15_3 H24_3 1_555 1_555
H25_3 C15_3 1_555 1_555
C16_3 H26_3 1_555 1_555
H27_3 C16_3 1_555 1_555
C17_3 C18_3 1_555 1_555
C18_3 C9_5 1_555 1_555
H28_3 C18_3 1_555 1_555
N5_3 C11_3 1_555 1_555
N6_3 Ag2_5 1_555 1_555
N8 C12_3 1_555 1_555
N12_2 C11_3 1_555 1_555
O7_3 C17_3 1_555 1_555
Ag4 N5_3 1_555 1_555
C2_3 N1_3 1_555 1_555
C3_3 N1_3 1_555 1_555
C4_3 N2_3 1_555 1_555
C4_3 N9 1_555 1_555
C5_3 N2_3 1_555 1_555
C5_3 N11_2 1_555 1_555
C6_3 N9 1_555 1_555
C6_3 N11_2 1_555 1_555
O2_5 Ag2_5 1_555 1_555
O4_3 Ag6 1_555 1_555
C12_3 N5_3 1_555 1_555
C13_3 N5_3 1_555 1_555
C13_3 N6_3 1_555 1_555
C14_3 N6_3 1_555 1_555
C14_3 N8 1_555 1_555
C15_3 N6_3 1_555 1_555
C15_3 N12_2 1_555 1_555
C16_3 N8 1_555 1_555
C16_3 N12_2 1_555 1_555
O7_3 Ag4 1_555 1_555
H15_5 O5_5 1_555 1_555
H15_6 O5_6 1_555 1_555
C7_4 C8_4 1_555 1_555
C8_4 H13_4 1_555 1_555
C9_6 C8_4 1_555 1_555
O4_4 C7_4 1_555 1_555
C17_4 C18_4 1_555 1_555
C18_4 C9_6 1_555 1_555
H28_4 C18_4 1_555 1_555
O7_4 C17_4 1_555 1_555
C1_4 H1_4 1_555 1_555
H2_4 C1_4 1_555 1_555
C2_4 H3_4 1_555 1_555
H4_4 C2_4 1_555 1_555
C3_4 H5_4 1_555 1_555
H6_4 C3_4 1_555 1_555
C4_4 H7_4 1_555 1_555
H8_4 C4_4 1_555 1_555
C5_4 H9_4 1_555 1_555
H10_4 C5_4 1_555 1_555
C6_4 H11_4 1_555 1_555
H12_4 C6_4 1_555 1_555
N1_4 C1_4 1_555 1_555
N2_4 C3_4 1_555 1_555
N9_2 C2_4 1_555 1_555
N11 C1_4 1_555 1_555
O2_6 C10_6 1_555 1_555
Ag5 N1_4 1_555 1_555
Ag2_6 N2_4 1_555 1_555
C11_4 H16_4 1_555 1_555
H17_4 C11_4 1_555 1_555
C12_4 H18_4 1_555 1_555
H19_4 C12_4 1_555 1_555
C13_4 H20_4 1_555 1_555
H21_4 C13_4 1_555 1_555
C14_4 H22_4 1_555 1_555
H23_4 C14_4 1_555 1_555
C15_4 H24_4 1_555 1_555
H25_4 C15_4 1_555 1_555
C16_4 H26_4 1_555 1_555
H27_4 C16_4 1_555 1_555
N5_4 C11_4 1_555 1_555
N6_4 Ag2_6 1_555 1_555
N8_2 C12_4 1_555 1_555
N12 C11_4 1_555 1_555
Ag7 N5_4 1_555 1_555
C2_4 N1_4 1_555 1_555
C3_4 N1_4 1_555 1_555
C4_4 N2_4 1_555 1_555
C4_4 N9_2 1_555 1_555
C5_4 N2_4 1_555 1_555
C5_4 N11 1_555 1_555
C6_4 N9_2 1_555 1_555
C6_4 N11 1_555 1_555
O2_6 Ag2_6 1_555 1_555
C12_4 N5_4 1_555 1_555
C13_4 N5_4 1_555 1_555
C13_4 N6_4 1_555 1_555
C14_4 N6_4 1_555 1_555
C14_4 N8_2 1_555 1_555
C15_4 N6_4 1_555 1_555
C15_4 N12 1_555 1_555
C16_4 N8_2 1_555 1_555
C16_4 N12 1_555 1_555

#END
