
###############################################################################
#
# This file contains modified crystal structure data generated from the
# MOF subset of the Cambridge Structural Database (CSD) v543 
# hosted by the Cambridge Crystallographic Data Centre (CCDC).
#
# This work is licensed under the Creative Commons
# Attribution-NonCommercial-ShareAlike 4.0 International License.
# To view a copy of this license, visit
# http://creativecommons.org/licenses/by-nc-sa/4.0/
# or send a letter to
# Creative Commons, PO Box 1866, Mountain View, CA 94042, USA.
#
# CIF created using the CSD Python API on 29 September 2022
# The structure has been converted into the P1 space group
# The structure has a 3D framework
# The original CSD entry IPIHIA is in the monoclinic crystal system
# The framework has been calculated to contain at least 10.0% void space
# The void calculation uses a probe of radius 1.32A, grid spacing 0.4
#
###############################################################################

data_IPIHIA
_chemical_formula_moiety         '(C136 H120 Cd8 N48 O36)n'
_symmetry_cell_setting           triclinic
_symmetry_space_group_name_H-M   'P 1'
_symmetry_Int_Tables_number      1
_space_group_name_Hall           'P 1'
loop_
_symmetry_equiv_pos_site_id
_symmetry_equiv_pos_as_xyz
1 x,y,z
_cell_length_a                   27.108(8)
_cell_length_b                   10.673(2)
_cell_length_c                   16.641(5)
_cell_angle_alpha                90
_cell_angle_beta                 104.241(8)
_cell_angle_gamma                90
_cell_volume                     4666.68
loop_
_atom_site_label
_atom_site_type_symbol
_atom_site_fract_x
_atom_site_fract_y
_atom_site_fract_z
C25 C 0.4983(4) 0.0328(13) 0.1346(7)
H19 H 0.5318 0.0549 0.1592
C26 C 0.4595(5) 0.1114(13) 0.1439(8)
H20 H 0.4669 0.1851 0.1743
C27 C 0.4099(4) 0.0796(13) 0.1078(7)
H21 H 0.3834 0.1309 0.1141
O6 O 0.2705(2) 0.0864(5) 0.5425(3)
Cd5 Cd 0.28708(2) 0.20995(5) 0.66713(3)
O13 O 0.2817(2) 0.0092(6) 0.1619(3)
N10 N 0.5658(3) 0.8062(8) 0.1610(5)
N11 N 0.5528(4) 0.7121(9) 0.2054(7)
N12 N 0.6277(3) 0.7891(7) 0.2711(5)
C23 C 0.4386(3) 0.8923(10) 0.0517(6)
C24 C 0.4889(4) 0.9230(11) 0.0901(6)
C28 C 0.3998(4) 0.9701(11) 0.0617(7)
H22 H 0.3662 0.9486 0.0371
H23 H 0.4271 0.7053 0.0337
C30 C 0.5330(3) 0.8428(12) 0.0798(6)
H25 H 0.5530 0.8889 0.0488
H26 H 0.5199 0.7681 0.0485
C33 C 0.5914(4) 0.7048(11) 0.2720(7)
H29 H 0.5930 0.6474 0.3146
C34 C 0.6102(3) 0.8500(9) 0.2003(6)
H30 H 0.6272 0.9149 0.1812
Cd3 Cd 0.71292(2) 0.79005(5) 0.33287(3)
Cd1 Cd 0.28708(2) 0.79005(5) 0.16713(3)
O1 O 0.2295(2) 0.4136(5) 0.4575(3)
O2 O 0.2183(2) 0.5092(6) 0.3381(3)
O3 O 0.2707(2) 0.7900(6) 0.2943(3)
O4 O 0.3186(3) 0.6283(6) 0.3518(4)
O5 O 0.3025(2) 0.6134(6) 0.1007(4)
H1 H 0.305(3) 0.557(2) 0.1414(19)
H2 H 0.2706(15) 0.603(8) 0.070(4)
N1 N 0.1227(3) 0.7168(8) 0.0607(5)
N2 N 0.1297(3) 0.6382(10) 0.1275(6)
N3 N 0.2019(3) 0.7401(7) 0.1273(4)
C7 C 0.0736(4) 0.7222(11) 0.0017(7)
H8 H 0.0475 0.7335 0.0316
C9 C 0.1781(4) 0.6581(10) 0.1641(7)
H11 H 0.1944 0.6171 0.2127
C10 C 0.1658(4) 0.7735(9) 0.0628(6)
H12 H 0.1703 0.8308 0.0231
C13 C 0.2415(3) 0.6342(8) 0.4590(5)
C14 C 0.2664(3) 0.7305(7) 0.4275(5)
C15 C 0.2736(3) 0.8428(8) 0.4686(5)
H15 H 0.2895 0.9071 0.4468
C16 C 0.2291(3) 0.5126(7) 0.4151(5)
C17 C 0.2867(3) 0.7114(8) 0.3519(5)
O7 O 0.2817(2) 0.9908(6) 0.6619(3)
O8 O 0.2293(2) 0.7100(6) 0.7057(3)
O9 O 0.1814(3) 0.8717(6) 0.6482(4)
C18 C 0.2585(3) 0.8658(8) 0.5410(5)
C19 C 0.2336(3) 0.7695(7) 0.5725(5)
C20 C 0.2264(3) 0.6572(8) 0.5314(5)
H16 H 0.2105 0.5929 0.5532
C21 C 0.2709(3) 0.9874(7) 0.5849(5)
C22 C 0.2133(3) 0.7886(8) 0.6481(5)
Cd2 Cd 0.21292(2) 0.70995(5) 0.83287(3)
O10 O 0.1975(2) 0.8866(6) 0.8993(4)
H17 H 0.195(3) 0.943(2) 0.8586(19)
H18 H 0.2294(15) 0.897(8) 0.930(4)
N7 N 0.3773(3) 0.7832(8) 0.9393(5)
N8 N 0.3703(3) 0.8618(10) 0.8725(6)
N9 N 0.2981(3) 0.7599(7) 0.8727(4)
C29 C 0.4264(4) 0.7778(11) 0.9983(7)
H24 H 0.4525 0.7665 0.9684
C31 C 0.3219(4) 0.8419(10) 0.8359(7)
H27 H 0.3056 0.8829 0.7873
C32 C 0.3342(4) 0.7265(9) 0.9372(6)
H28 H 0.3297 0.6692 0.9769
Cd4 Cd 0.21292(2) 0.29005(5) 0.33287(3)
O11 O 0.2705(2) 0.9136(5) 0.0425(3)
O12 O 0.2295(2) 0.5864(5) 0.9575(3)
O14 O 0.2183(2) 0.4908(6) 0.8381(3)
N13 N 0.1277(3) 0.7109(7) 0.7711(5)
N14 N 0.3723(3) 0.7891(7) 0.2289(5)
N4 N 0.9342(3) 0.6938(8) 0.8390(5)
N5 N 0.9472(4) 0.7879(9) 0.7946(7)
N6 N 0.8723(3) 0.7109(7) 0.7289(5)
H3 H 0.9682 0.4451 0.8408
C8 C 0.9670(3) 0.6572(12) 0.9202(6)
H9 H 0.9470 0.6111 0.9512
H10 H 0.9801 0.7319 0.9515
C11 C 0.9086(4) 0.7952(11) 0.7280(7)
H13 H 0.9070 0.8526 0.6854
C12 C 0.8898(3) 0.6500(9) 0.7997(6)
H14 H 0.8728 0.5851 0.8188
Cd6 Cd 0.78708(2) 0.70995(5) 0.66713(3)
N4_2 N 0.0658(3) 0.6938(8) 0.6610(5)
N5_2 N 0.0528(4) 0.7879(9) 0.7054(7)
H3_2 H 0.0318 0.4451 0.6592
C8_2 C 0.0330(3) 0.6572(12) 0.5798(6)
H9_2 H 0.0530 0.6111 0.5488
H10_2 H 0.0199 0.7319 0.5485
C11_2 C 0.0914(4) 0.7952(11) 0.7720(7)
H13_2 H 0.0930 0.8526 0.8146
C12_2 C 0.1102(3) 0.6500(9) 0.7003(6)
H14_2 H 0.1272 0.5851 0.6812
O13_2 O 0.7183(2) 0.0092(6) 0.3381(3)
O6_2 O 0.7295(2) 0.0864(5) 0.9575(3)
C25_2 C 0.5017(4) 0.0328(13) 0.3654(7)
H19_2 H 0.4682 0.0549 0.3408
C26_2 C 0.5405(5) 0.1114(13) 0.3561(8)
H20_2 H 0.5331 0.1851 0.3257
C27_2 C 0.5901(4) 0.0796(13) 0.3922(7)
H21_2 H 0.6166 0.1309 0.3859
Cd5_2 Cd 0.71292(2) 0.20995(5) 0.83287(3)
O1_2 O 0.7705(2) 0.4136(5) 0.0425(3)
O2_2 O 0.7817(2) 0.5092(6) 0.1619(3)
O3_2 O 0.7293(2) 0.7900(6) 0.2057(3)
O4_2 O 0.6814(3) 0.6283(6) 0.1482(4)
O5_2 O 0.6975(2) 0.6134(6) 0.3993(4)
H1_2 H 0.695(3) 0.557(2) 0.3586(19)
H2_2 H 0.7294(15) 0.603(8) 0.430(4)
N1_2 N 0.8773(3) 0.7168(8) 0.4393(5)
N2_2 N 0.8703(3) 0.6382(10) 0.3725(6)
N3_2 N 0.7981(3) 0.7401(7) 0.3727(4)
C1 C 0.9386(3) 0.6077(10) 0.5517(6)
C2 C 0.9889(4) 0.5770(11) 0.5901(6)
C3 C 0.9983(4) 0.4672(13) 0.6346(7)
C4 C 0.9595(5) 0.3886(13) 0.6439(8)
H4 H 0.9669 0.3149 0.6743
C5 C 0.9099(4) 0.4204(13) 0.6078(7)
H5 H 0.8834 0.3691 0.6141
C6 C 0.8998(4) 0.5299(11) 0.5617(7)
H6 H 0.8662 0.5514 0.5371
C7_2 C 0.9264(4) 0.7222(11) 0.4983(7)
H7 H 0.9271 0.7947 0.5337
H8_2 H 0.9525 0.7335 0.4684
C9_2 C 0.8219(4) 0.6581(10) 0.3359(7)
H11_2 H 0.8056 0.6171 0.2873
C10_2 C 0.8342(4) 0.7735(9) 0.4372(6)
H12_2 H 0.8297 0.8308 0.4769
C13_2 C 0.7585(3) 0.6342(8) 0.0410(5)
C14_2 C 0.7336(3) 0.7305(7) 0.0725(5)
C15_2 C 0.7264(3) 0.8428(8) 0.0314(5)
H15_2 H 0.7105 0.9071 0.0532
C16_2 C 0.7709(3) 0.5126(7) 0.0849(5)
C17_2 C 0.7133(3) 0.7114(8) 0.1481(5)
Cd4_2 Cd 0.78708(2) 0.29005(5) 0.16713(3)
O11_2 O 0.7295(2) 0.9136(5) 0.4575(3)
O7_2 O 0.7183(2) 0.9908(6) 0.8381(3)
O8_2 O 0.7707(2) 0.7100(6) 0.7943(3)
O9_2 O 0.8186(3) 0.8717(6) 0.8518(4)
C18_2 C 0.7415(3) 0.8658(8) 0.9590(5)
C19_2 C 0.7664(3) 0.7695(7) 0.9275(5)
C20_2 C 0.7736(3) 0.6572(8) 0.9686(5)
H16_2 H 0.7895 0.5929 0.9468
C21_2 C 0.7291(3) 0.9874(7) 0.9151(5)
C22_2 C 0.7867(3) 0.7886(8) 0.8519(5)
O10_2 O 0.8025(2) 0.8866(6) 0.6007(4)
H17_2 H 0.805(3) 0.943(2) 0.6414(19)
H18_2 H 0.7706(15) 0.897(8) 0.570(4)
N7_2 N 0.6227(3) 0.7832(8) 0.5607(5)
N8_2 N 0.6297(3) 0.8618(10) 0.6275(6)
N9_2 N 0.7019(3) 0.7599(7) 0.6273(4)
N10_2 N 0.4342(3) 0.8062(8) 0.3390(5)
N11_2 N 0.4472(4) 0.7121(9) 0.2946(7)
C23_2 C 0.5614(3) 0.8923(10) 0.4483(6)
C24_2 C 0.5111(4) 0.9230(11) 0.4099(6)
C28_2 C 0.6002(4) 0.9701(11) 0.4383(7)
H22_2 H 0.6338 0.9486 0.4629
C29_2 C 0.5736(4) 0.7778(11) 0.5017(7)
H23_2 H 0.5729 0.7053 0.4663
H24_2 H 0.5475 0.7665 0.5316
C30_2 C 0.4670(3) 0.8428(12) 0.4202(6)
H25_2 H 0.4470 0.8889 0.4512
H26_2 H 0.4801 0.7681 0.4515
C31_2 C 0.6781(4) 0.8419(10) 0.6641(7)
H27_2 H 0.6944 0.8829 0.7127
C32_2 C 0.6658(4) 0.7265(9) 0.5628(6)
H28_2 H 0.6703 0.6692 0.5231
C33_2 C 0.4086(4) 0.7048(11) 0.2280(7)
H29_2 H 0.4070 0.6474 0.1854
C34_2 C 0.3898(3) 0.8500(9) 0.2997(6)
H30_2 H 0.3728 0.9149 0.3188
O12_2 O 0.7705(2) 0.5864(5) 0.5425(3)
O14_2 O 0.7817(2) 0.4908(6) 0.6619(3)
N10_3 N 0.0658(3) 0.3062(8) 0.1610(5)
N11_3 N 0.0528(4) 0.2121(9) 0.2054(7)
N12_2 N 0.1277(3) 0.2891(7) 0.2711(5)
H19_3 H 0.0318 0.5549 0.1592
C30_3 C 0.0330(3) 0.3428(12) 0.0798(6)
H25_3 H 0.0530 0.3889 0.0488
H26_3 H 0.0199 0.2681 0.0485
C33_3 C 0.0914(4) 0.2048(11) 0.2720(7)
H29_3 H 0.0930 0.1474 0.3146
C34_3 C 0.1102(3) 0.3500(9) 0.2003(6)
H30_3 H 0.1272 0.4149 0.1812
O3_3 O 0.7707(2) 0.2900(6) 0.2943(3)
O4_3 O 0.8186(3) 0.1283(6) 0.3518(4)
O5_3 O 0.8025(2) 0.1134(6) 0.1007(4)
H1_3 H 0.805(3) 0.057(2) 0.1414(19)
H2_3 H 0.7706(15) 0.103(8) 0.070(4)
N1_3 N 0.6227(3) 0.2168(8) 0.0607(5)
N2_3 N 0.6297(3) 0.1382(10) 0.1275(6)
N3_3 N 0.7019(3) 0.2401(7) 0.1273(4)
C7_3 C 0.5736(4) 0.2222(11) 0.0017(7)
H8_3 H 0.5475 0.2335 0.0316
C9_3 C 0.6781(4) 0.1581(10) 0.1641(7)
H11_3 H 0.6944 0.1171 0.2127
C10_3 C 0.6658(4) 0.2735(9) 0.0628(6)
H12_3 H 0.6703 0.3308 0.0231
C13_3 C 0.7415(3) 0.1342(8) 0.4590(5)
C14_3 C 0.7664(3) 0.2305(7) 0.4275(5)
C15_3 C 0.7736(3) 0.3428(8) 0.4686(5)
H15_3 H 0.7895 0.4071 0.4468
C16_3 C 0.7291(3) 0.0126(7) 0.4151(5)
C17_3 C 0.7867(3) 0.2114(8) 0.3519(5)
O8_3 O 0.7293(2) 0.2100(6) 0.7057(3)
O9_3 O 0.6814(3) 0.3717(6) 0.6482(4)
C18_3 C 0.7585(3) 0.3658(8) 0.5410(5)
C19_3 C 0.7336(3) 0.2695(7) 0.5725(5)
C20_3 C 0.7264(3) 0.1572(8) 0.5314(5)
H16_3 H 0.7105 0.0929 0.5532
C21_3 C 0.7709(3) 0.4874(7) 0.5849(5)
C22_3 C 0.7133(3) 0.2886(8) 0.6481(5)
O10_3 O 0.6975(2) 0.3866(6) 0.8993(4)
H17_3 H 0.695(3) 0.443(2) 0.8586(19)
H18_3 H 0.7294(15) 0.397(8) 0.930(4)
N7_3 N 0.8773(3) 0.2832(8) 0.9393(5)
N8_3 N 0.8703(3) 0.3618(10) 0.8725(6)
N9_3 N 0.7981(3) 0.2599(7) 0.8727(4)
C29_3 C 0.9264(4) 0.2778(11) 0.9983(7)
H24_3 H 0.9525 0.2665 0.9684
C31_3 C 0.8219(4) 0.3419(10) 0.8359(7)
H27_3 H 0.8056 0.3829 0.7873
C32_3 C 0.8342(4) 0.2265(9) 0.9372(6)
H28_3 H 0.8297 0.1692 0.9769
N13_2 N 0.6277(3) 0.2109(7) 0.7711(5)
N14_2 N 0.8723(3) 0.2891(7) 0.2289(5)
N4_3 N 0.4342(3) 0.1938(8) 0.8390(5)
N5_3 N 0.4472(4) 0.2879(9) 0.7946(7)
N6_2 N 0.3723(3) 0.2109(7) 0.7289(5)
C1_2 C 0.5614(3) 0.1077(10) 0.9483(6)
C2_2 C 0.5111(4) 0.0770(11) 0.9099(6)
C6_2 C 0.6002(4) 0.0299(11) 0.9383(7)
H6_2 H 0.6338 0.0514 0.9629
H7_2 H 0.5729 0.2947 0.9663
C8_3 C 0.4670(3) 0.1572(12) 0.9202(6)
H9_3 H 0.4470 0.1111 0.9512
H10_3 H 0.4801 0.2319 0.9515
C11_3 C 0.4086(4) 0.2952(11) 0.7280(7)
H13_3 H 0.4070 0.3526 0.6854
C12_3 C 0.3898(3) 0.1500(9) 0.7997(6)
H14_3 H 0.3728 0.0851 0.8188
O3_4 O 0.2293(2) 0.2900(6) 0.2057(3)
O4_4 O 0.1814(3) 0.1283(6) 0.1482(4)
O5_4 O 0.1975(2) 0.1134(6) 0.3993(4)
H1_4 H 0.195(3) 0.057(2) 0.3586(19)
H2_4 H 0.2294(15) 0.103(8) 0.430(4)
N1_4 N 0.3773(3) 0.2168(8) 0.4393(5)
N2_4 N 0.3703(3) 0.1382(10) 0.3725(6)
N3_4 N 0.2981(3) 0.2401(7) 0.3727(4)
N4_4 N 0.5658(3) 0.1938(8) 0.6610(5)
N5_4 N 0.5528(4) 0.2879(9) 0.7054(7)
C1_3 C 0.4386(3) 0.1077(10) 0.5517(6)
C2_3 C 0.4889(4) 0.0770(11) 0.5901(6)
C6_3 C 0.3998(4) 0.0299(11) 0.5617(7)
H6_3 H 0.3662 0.0514 0.5371
C7_4 C 0.4264(4) 0.2222(11) 0.4983(7)
H7_3 H 0.4271 0.2947 0.5337
H8_4 H 0.4525 0.2335 0.4684
C8_4 C 0.5330(3) 0.1572(12) 0.5798(6)
H9_4 H 0.5530 0.1111 0.5488
H10_4 H 0.5199 0.2319 0.5485
C9_4 C 0.3219(4) 0.1581(10) 0.3359(7)
H11_4 H 0.3056 0.1171 0.2873
C10_4 C 0.3342(4) 0.2735(9) 0.4372(6)
H12_4 H 0.3297 0.3308 0.4769
C11_4 C 0.5914(4) 0.2952(11) 0.7720(7)
H13_4 H 0.5930 0.3526 0.8146
C12_4 C 0.6102(3) 0.1500(9) 0.7003(6)
H14_4 H 0.6272 0.0851 0.6812
C13_4 C 0.2585(3) 0.1342(8) 0.0410(5)
C14_4 C 0.2336(3) 0.2305(7) 0.0725(5)
C15_4 C 0.2264(3) 0.3428(8) 0.0314(5)
H15_4 H 0.2105 0.4071 0.0532
C16_4 C 0.2709(3) 0.0126(7) 0.0849(5)
C17_4 C 0.2133(3) 0.2114(8) 0.1481(5)
O8_4 O 0.2707(2) 0.2100(6) 0.7943(3)
O9_4 O 0.3186(3) 0.3717(6) 0.8518(4)
C18_4 C 0.2415(3) 0.3658(8) 0.9590(5)
C19_4 C 0.2664(3) 0.2695(7) 0.9275(5)
C20_4 C 0.2736(3) 0.1572(8) 0.9686(5)
H16_4 H 0.2895 0.0929 0.9468
C21_4 C 0.2291(3) 0.4874(7) 0.9151(5)
C22_4 C 0.2867(3) 0.2886(8) 0.8519(5)
O10_4 O 0.3025(2) 0.3866(6) 0.6007(4)
H17_4 H 0.305(3) 0.443(2) 0.6414(19)
H18_4 H 0.2706(15) 0.397(8) 0.570(4)
N7_4 N 0.1227(3) 0.2832(8) 0.5607(5)
N8_4 N 0.1297(3) 0.3618(10) 0.6275(6)
N9_4 N 0.2019(3) 0.2599(7) 0.6273(4)
C23_3 C 0.0614(3) 0.3923(10) 0.4483(6)
C24_3 C 0.0111(4) 0.4230(11) 0.4099(6)
C25_3 C 0.0017(4) 0.5328(13) 0.3654(7)
C26_3 C 0.0405(5) 0.6114(13) 0.3561(8)
H20_3 H 0.0331 0.6851 0.3257
C27_3 C 0.0901(4) 0.5796(13) 0.3922(7)
H21_3 H 0.1166 0.6309 0.3859
C28_3 C 0.1002(4) 0.4701(11) 0.4383(7)
H22_3 H 0.1338 0.4486 0.4629
C29_4 C 0.0736(4) 0.2778(11) 0.5017(7)
H23_3 H 0.0729 0.2053 0.4663
H24_4 H 0.0475 0.2665 0.5316
C31_4 C 0.1781(4) 0.3419(10) 0.6641(7)
H27_4 H 0.1944 0.3829 0.7127
C32_4 C 0.1658(4) 0.2265(9) 0.5628(6)
H28_4 H 0.1703 0.1692 0.5231
C3_2 C 0.4983(4) 0.9672(13) 0.6346(7)
H3_3 H 0.5318 0.9451 0.6592
C4_2 C 0.4595(5) 0.8886(13) 0.6439(8)
H4_2 H 0.4669 0.8149 0.6743
C5_2 C 0.4099(4) 0.9204(13) 0.6078(7)
H5_2 H 0.3834 0.8691 0.6141
N10_4 N 0.9342(3) 0.3062(8) 0.3390(5)
N11_4 N 0.9472(4) 0.2121(9) 0.2946(7)
H19_4 H 0.9682 0.5549 0.3408
C30_4 C 0.9670(3) 0.3428(12) 0.4202(6)
H25_4 H 0.9470 0.3889 0.4512
H26_4 H 0.9801 0.2681 0.4515
C33_4 C 0.9086(4) 0.2048(11) 0.2280(7)
H29_4 H 0.9070 0.1474 0.1854
C34_4 C 0.8898(3) 0.3500(9) 0.2997(6)
H30_4 H 0.8728 0.4149 0.3188
C1_4 C 0.0614(3) 0.6077(10) 0.9483(6)
C2_4 C 0.0111(4) 0.5770(11) 0.9099(6)
C3_3 C 0.0017(4) 0.4672(13) 0.8654(7)
C4_3 C 0.0405(5) 0.3886(13) 0.8561(8)
H4_3 H 0.0331 0.3149 0.8257
C5_3 C 0.0901(4) 0.4204(13) 0.8922(7)
H5_3 H 0.1166 0.3691 0.8859
C6_4 C 0.1002(4) 0.5299(11) 0.9383(7)
H6_4 H 0.1338 0.5514 0.9629
H7_4 H 0.0729 0.7947 0.9663
C23_4 C 0.9386(3) 0.3923(10) 0.0517(6)
C24_4 C 0.9889(4) 0.4230(11) 0.0901(6)
C25_4 C 0.9983(4) 0.5328(13) 0.1346(7)
C26_4 C 0.9595(5) 0.6114(13) 0.1439(8)
H20_4 H 0.9669 0.6851 0.1743
C27_4 C 0.9099(4) 0.5796(13) 0.1078(7)
H21_4 H 0.8834 0.6309 0.1141
C28_4 C 0.8998(4) 0.4701(11) 0.0617(7)
H22_4 H 0.8662 0.4486 0.0371
H23_4 H 0.9271 0.2053 0.0337
C3_4 C 0.5017(4) 0.9672(13) 0.8654(7)
H3_4 H 0.4682 0.9451 0.8408
C4_4 C 0.5405(5) 0.8886(13) 0.8561(8)
H4_4 H 0.5331 0.8149 0.8257
C5_4 C 0.5901(4) 0.9204(13) 0.8922(7)
H5_4 H 0.6166 0.8691 0.8859
loop_
_geom_bond_atom_site_label_1
_geom_bond_atom_site_label_2
_geom_bond_site_symmetry_1
_geom_bond_site_symmetry_2
C25 H19 1_555 1_555
C26 C25 1_555 1_555
H20 C26 1_555 1_555
C27 C26 1_555 1_555
H21 C27 1_555 1_555
Cd5 O6 1_555 1_555
N10 N11 1_555 1_555
N11 C33 1_555 1_555
N12 C33 1_555 1_555
C23 C24 1_555 1_555
C28 C23 1_555 1_555
H22 C28 1_555 1_555
C30 N10 1_555 1_555
H25 C30 1_555 1_555
H26 C30 1_555 1_555
C33 H29 1_555 1_555
C34 N10 1_555 1_555
H30 C34 1_555 1_555
Cd3 N12 1_555 1_555
N12 C34 1_555 1_555
C24 C30 1_555 1_555
Cd1 O3 1_555 1_555
O1 C16 1_555 1_555
O2 C16 1_555 1_555
O3 C17 1_555 1_555
O4 C17 1_555 1_555
O5 Cd1 1_555 1_555
H1 O5 1_555 1_555
H2 O5 1_555 1_555
N1 N2 1_555 1_555
N2 C9 1_555 1_555
N3 Cd1 1_555 1_555
C7 N1 1_555 1_555
H8 C7 1_555 1_555
C9 N3 1_555 1_555
H11 C9 1_555 1_555
C10 N1 1_555 1_555
H12 C10 1_555 1_555
C13 C14 1_555 1_555
C14 C15 1_555 1_555
C15 H15 1_555 1_555
C16 C13 1_555 1_555
C17 C14 1_555 1_555
O7 C21 1_555 1_555
O8 C22 1_555 1_555
O9 C22 1_555 1_555
C18 C15 1_555 1_555
C19 C18 1_555 1_555
C20 C13 1_555 1_555
H16 C20 1_555 1_555
C21 C18 1_555 1_555
C22 C19 1_555 1_555
Cd2 O8 1_555 1_555
O10 Cd2 1_555 1_555
H17 O10 1_555 1_555
H18 O10 1_555 1_555
N7 N8 1_555 1_555
N8 C31 1_555 1_555
N9 Cd2 1_555 1_555
C29 N7 1_555 1_555
H24 C29 1_555 1_555
C31 N9 1_555 1_555
H27 C31 1_555 1_555
C32 N7 1_555 1_555
H28 C32 1_555 1_555
Cd4 O1 1_555 1_555
O11 Cd1 1_555 1_555
O12 Cd2 1_555 1_555
O14 Cd2 1_555 1_555
N13 Cd2 1_555 1_555
N14 Cd1 1_555 1_555
O2 Cd4 1_555 1_555
N3 C10 1_555 1_555
C19 C20 1_555 1_555
N9 C32 1_555 1_555
N4 N5 1_555 1_555
N5 C11 1_555 1_555
N6 C11 1_555 1_555
C8 N4 1_555 1_555
H9 C8 1_555 1_555
H10 C8 1_555 1_555
C11 H13 1_555 1_555
C12 N4 1_555 1_555
H14 C12 1_555 1_555
Cd6 N6 1_555 1_555
N6 C12 1_555 1_555
N4_2 N5_2 1_555 1_555
N5_2 C11_2 1_555 1_555
N13 C11_2 1_555 1_555
C8_2 N4_2 1_555 1_555
H9_2 C8_2 1_555 1_555
H10_2 C8_2 1_555 1_555
C11_2 H13_2 1_555 1_555
C12_2 N4_2 1_555 1_555
H14_2 C12_2 1_555 1_555
N13 C12_2 1_555 1_555
C25_2 H19_2 1_555 1_555
C26_2 C25_2 1_555 1_555
H20_2 C26_2 1_555 1_555
C27_2 C26_2 1_555 1_555
H21_2 C27_2 1_555 1_555
Cd5_2 O6_2 1_555 1_555
Cd3 O3_2 1_555 1_555
O1_2 C16_2 1_555 1_555
O2_2 C16_2 1_555 1_555
O3_2 C17_2 1_555 1_555
O4_2 C17_2 1_555 1_555
O5_2 Cd3 1_555 1_555
H1_2 O5_2 1_555 1_555
H2_2 O5_2 1_555 1_555
N1_2 N2_2 1_555 1_555
N2_2 C9_2 1_555 1_555
N3_2 Cd3 1_555 1_555
C1 C2 1_555 1_555
C2 C3 1_555 1_555
C4 C3 1_555 1_555
H4 C4 1_555 1_555
C5 C4 1_555 1_555
H5 C5 1_555 1_555
C6 C1 1_555 1_555
H6 C6 1_555 1_555
C7_2 N1_2 1_555 1_555
H7 C7_2 1_555 1_555
H8_2 C7_2 1_555 1_555
C9_2 N3_2 1_555 1_555
H11_2 C9_2 1_555 1_555
C10_2 N1_2 1_555 1_555
H12_2 C10_2 1_555 1_555
C13_2 C14_2 1_555 1_555
C14_2 C15_2 1_555 1_555
C15_2 H15_2 1_555 1_555
C16_2 C13_2 1_555 1_555
C17_2 C14_2 1_555 1_555
Cd4_2 O1_2 1_555 1_555
O11_2 Cd3 1_555 1_555
O2_2 Cd4_2 1_555 1_555
N3_2 C10_2 1_555 1_555
C1 C7_2 1_555 1_555
C5 C6 1_555 1_555
O7_2 C21_2 1_555 1_555
O8_2 C22_2 1_555 1_555
O9_2 C22_2 1_555 1_555
C19_2 C18_2 1_555 1_555
H16_2 C20_2 1_555 1_555
C21_2 C18_2 1_555 1_555
C22_2 C19_2 1_555 1_555
Cd6 O8_2 1_555 1_555
O10_2 Cd6 1_555 1_555
H17_2 O10_2 1_555 1_555
H18_2 O10_2 1_555 1_555
N7_2 N8_2 1_555 1_555
N8_2 C31_2 1_555 1_555
N9_2 Cd6 1_555 1_555
N10_2 N11_2 1_555 1_555
N11_2 C33_2 1_555 1_555
N14 C33_2 1_555 1_555
C23_2 C24_2 1_555 1_555
C28_2 C23_2 1_555 1_555
H22_2 C28_2 1_555 1_555
C29_2 N7_2 1_555 1_555
H23_2 C29_2 1_555 1_555
H24_2 C29_2 1_555 1_555
C30_2 N10_2 1_555 1_555
H25_2 C30_2 1_555 1_555
H26_2 C30_2 1_555 1_555
C31_2 N9_2 1_555 1_555
H27_2 C31_2 1_555 1_555
C32_2 N7_2 1_555 1_555
H28_2 C32_2 1_555 1_555
C33_2 H29_2 1_555 1_555
C34_2 N10_2 1_555 1_555
H30_2 C34_2 1_555 1_555
O12_2 Cd6 1_555 1_555
O14_2 Cd6 1_555 1_555
C19_2 C20_2 1_555 1_555
N9_2 C32_2 1_555 1_555
N14 C34_2 1_555 1_555
C23_2 C29_2 1_555 1_555
C24_2 C30_2 1_555 1_555
N10_3 N11_3 1_555 1_555
N11_3 C33_3 1_555 1_555
N12_2 C33_3 1_555 1_555
C30_3 N10_3 1_555 1_555
H25_3 C30_3 1_555 1_555
H26_3 C30_3 1_555 1_555
C33_3 H29_3 1_555 1_555
C34_3 N10_3 1_555 1_555
H30_3 C34_3 1_555 1_555
Cd4 N12_2 1_555 1_555
N12_2 C34_3 1_555 1_555
Cd4_2 O3_3 1_555 1_555
O13_2 C16_3 1_555 1_555
O3_3 C17_3 1_555 1_555
O4_3 C17_3 1_555 1_555
O5_3 Cd4_2 1_555 1_555
H1_3 O5_3 1_555 1_555
H2_3 O5_3 1_555 1_555
N1_3 N2_3 1_555 1_555
N2_3 C9_3 1_555 1_555
N3_3 Cd4_2 1_555 1_555
C7_3 N1_3 1_555 1_555
H8_3 C7_3 1_555 1_555
C9_3 N3_3 1_555 1_555
H11_3 C9_3 1_555 1_555
C10_3 N1_3 1_555 1_555
H12_3 C10_3 1_555 1_555
C13_3 C14_3 1_555 1_555
C14_3 C15_3 1_555 1_555
C15_3 H15_3 1_555 1_555
C16_3 C13_3 1_555 1_555
C17_3 C14_3 1_555 1_555
O12_2 C21_3 1_555 1_555
O14_2 C21_3 1_555 1_555
O8_3 C22_3 1_555 1_555
O9_3 C22_3 1_555 1_555
C18_3 C15_3 1_555 1_555
C19_3 C18_3 1_555 1_555
C20_3 C13_3 1_555 1_555
H16_3 C20_3 1_555 1_555
C21_3 C18_3 1_555 1_555
C22_3 C19_3 1_555 1_555
Cd5_2 O8_3 1_555 1_555
O10_3 Cd5_2 1_555 1_555
H17_3 O10_3 1_555 1_555
H18_3 O10_3 1_555 1_555
N7_3 N8_3 1_555 1_555
N8_3 C31_3 1_555 1_555
N9_3 Cd5_2 1_555 1_555
C29_3 N7_3 1_555 1_555
H24_3 C29_3 1_555 1_555
C31_3 N9_3 1_555 1_555
H27_3 C31_3 1_555 1_555
C32_3 N7_3 1_555 1_555
H28_3 C32_3 1_555 1_555
N13_2 Cd5_2 1_555 1_555
N14_2 Cd4_2 1_555 1_555
N3_3 C10_3 1_555 1_555
C19_3 C20_3 1_555 1_555
N9_3 C32_3 1_555 1_555
N4_3 N5_3 1_555 1_555
N5_3 C11_3 1_555 1_555
N6_2 C11_3 1_555 1_555
C1_2 C2_2 1_555 1_555
C6_2 C1_2 1_555 1_555
H6_2 C6_2 1_555 1_555
C8_3 N4_3 1_555 1_555
H9_3 C8_3 1_555 1_555
H10_3 C8_3 1_555 1_555
C11_3 H13_3 1_555 1_555
C12_3 N4_3 1_555 1_555
H14_3 C12_3 1_555 1_555
Cd5 N6_2 1_555 1_555
N6_2 C12_3 1_555 1_555
C2_2 C8_3 1_555 1_555
Cd4 O3_4 1_555 1_555
O13 C16_4 1_555 1_555
O3_4 C17_4 1_555 1_555
O4_4 C17_4 1_555 1_555
O5_4 Cd4 1_555 1_555
H1_4 O5_4 1_555 1_555
H2_4 O5_4 1_555 1_555
N1_4 N2_4 1_555 1_555
N2_4 C9_4 1_555 1_555
N3_4 Cd4 1_555 1_555
N4_4 N5_4 1_555 1_555
N5_4 C11_4 1_555 1_555
N13_2 C11_4 1_555 1_555
C1_3 C2_3 1_555 1_555
C6_3 C1_3 1_555 1_555
H6_3 C6_3 1_555 1_555
C7_4 N1_4 1_555 1_555
H7_3 C7_4 1_555 1_555
H8_4 C7_4 1_555 1_555
C8_4 N4_4 1_555 1_555
H9_4 C8_4 1_555 1_555
H10_4 C8_4 1_555 1_555
C9_4 N3_4 1_555 1_555
H11_4 C9_4 1_555 1_555
C10_4 N1_4 1_555 1_555
H12_4 C10_4 1_555 1_555
C11_4 H13_4 1_555 1_555
C12_4 N4_4 1_555 1_555
H14_4 C12_4 1_555 1_555
C13_4 C14_4 1_555 1_555
C14_4 C15_4 1_555 1_555
C15_4 H15_4 1_555 1_555
C16_4 C13_4 1_555 1_555
C17_4 C14_4 1_555 1_555
N3_4 C10_4 1_555 1_555
N13_2 C12_4 1_555 1_555
C1_3 C7_4 1_555 1_555
C2_3 C8_4 1_555 1_555
O12 C21_4 1_555 1_555
O14 C21_4 1_555 1_555
O8_4 C22_4 1_555 1_555
O9_4 C22_4 1_555 1_555
C19_4 C18_4 1_555 1_555
H16_4 C20_4 1_555 1_555
C21_4 C18_4 1_555 1_555
C22_4 C19_4 1_555 1_555
Cd5 O8_4 1_555 1_555
O10_4 Cd5 1_555 1_555
H17_4 O10_4 1_555 1_555
H18_4 O10_4 1_555 1_555
N7_4 N8_4 1_555 1_555
N8_4 C31_4 1_555 1_555
N9_4 Cd5 1_555 1_555
C23_3 C24_3 1_555 1_555
C24_3 C25_3 1_555 1_555
C26_3 C25_3 1_555 1_555
H20_3 C26_3 1_555 1_555
C27_3 C26_3 1_555 1_555
H21_3 C27_3 1_555 1_555
C28_3 C23_3 1_555 1_555
H22_3 C28_3 1_555 1_555
C29_4 N7_4 1_555 1_555
H23_3 C29_4 1_555 1_555
H24_4 C29_4 1_555 1_555
C31_4 N9_4 1_555 1_555
H27_4 C31_4 1_555 1_555
C32_4 N7_4 1_555 1_555
H28_4 C32_4 1_555 1_555
C19_4 C20_4 1_555 1_555
N9_4 C32_4 1_555 1_555
C23_3 C29_4 1_555 1_555
C27_3 C28_3 1_555 1_555
C3_2 H3_3 1_555 1_555
C4_2 C3_2 1_555 1_555
H4_2 C4_2 1_555 1_555
C5_2 C4_2 1_555 1_555
H5_2 C5_2 1_555 1_555
N10_4 N11_4 1_555 1_555
N11_4 C33_4 1_555 1_555
N14_2 C33_4 1_555 1_555
C30_4 N10_4 1_555 1_555
H25_4 C30_4 1_555 1_555
H26_4 C30_4 1_555 1_555
C33_4 H29_4 1_555 1_555
C34_4 N10_4 1_555 1_555
H30_4 C34_4 1_555 1_555
N14_2 C34_4 1_555 1_555
C1_4 C2_4 1_555 1_555
C2_4 C3_3 1_555 1_555
C4_3 C3_3 1_555 1_555
H4_3 C4_3 1_555 1_555
C5_3 C4_3 1_555 1_555
H5_3 C5_3 1_555 1_555
C6_4 C1_4 1_555 1_555
H6_4 C6_4 1_555 1_555
C5_3 C6_4 1_555 1_555
C23_4 C24_4 1_555 1_555
C24_4 C25_4 1_555 1_555
C26_4 C25_4 1_555 1_555
H20_4 C26_4 1_555 1_555
C27_4 C26_4 1_555 1_555
H21_4 C27_4 1_555 1_555
C28_4 C23_4 1_555 1_555
H22_4 C28_4 1_555 1_555
C27_4 C28_4 1_555 1_555
C3_4 H3_4 1_555 1_555
C4_4 C3_4 1_555 1_555
H4_4 C4_4 1_555 1_555
C5_4 C4_4 1_555 1_555
H5_4 C5_4 1_555 1_555

#END
