
###############################################################################
#
# This file contains modified crystal structure data generated from the
# MOF subset of the Cambridge Structural Database (CSD) v543 
# hosted by the Cambridge Crystallographic Data Centre (CCDC).
#
# This work is licensed under the Creative Commons
# Attribution-NonCommercial-ShareAlike 4.0 International License.
# To view a copy of this license, visit
# http://creativecommons.org/licenses/by-nc-sa/4.0/
# or send a letter to
# Creative Commons, PO Box 1866, Mountain View, CA 94042, USA.
#
# CIF created using the CSD Python API on 29 September 2022
# The structure has been converted into the P1 space group
# The structure has a 3D framework
# The original CSD entry IPIHUM is in the rhombohedral crystal system
# The framework has been calculated to contain at least 10.0% void space
# The void calculation uses a probe of radius 1.32A, grid spacing 0.4
#
###############################################################################

data_IPIHUM
_chemical_formula_moiety         '(C108 H108 Co18 N72 O36)n'
_symmetry_cell_setting           triclinic
_symmetry_space_group_name_H-M   'P 1'
_symmetry_Int_Tables_number      1
_space_group_name_Hall           'P 1'
loop_
_symmetry_equiv_pos_site_id
_symmetry_equiv_pos_as_xyz
1 x,y,z
_cell_length_a                   17.7780(13)
_cell_length_b                   17.7780(13)
_cell_length_c                   18.6529(13)
_cell_angle_alpha                90
_cell_angle_beta                 90
_cell_angle_gamma                120
_cell_volume                     5105.55
loop_
_atom_site_label
_atom_site_type_symbol
_atom_site_fract_x
_atom_site_fract_y
_atom_site_fract_z
O1 O 0.7344(2) 0.0748(2) 0.20491(13)
O2 O 0.8899(3) 0.1822(2) 0.41462(13)
N3 N 0.8472(3) 0.1756(3) 0.26940(19)
H1 H 0.875(4) 0.189(4) 0.312(3)
H2 H 0.881(4) 0.215(4) 0.235(4)
N4 N 0.8187(3) 0.0936(4) 0.51193(16)
H3 H 0.858(3) 0.128(4) 0.536(3)
C2 C 0.7755(4) 0.1009(4) 0.26358(19)
C3 C 0.7379(3) 0.0430(3) 0.32613(19)
C4 C 0.7599(3) 0.0474(4) 0.39800(18)
C5 C 0.8290(3) 0.1135(4) 0.4438(2)
Co3 Co 0.99208(6) 0.28473(4) 0.45745(2)
Co1 Co 0.61806(4) 0.95931(4) 0.20922(2)
N1 N 0.6980(2) 0.9722(3) 0.43003(15)
N2 N 0.6638(3) 0.9655(3) 0.31390(15)
C1 C 0.6412(3) 0.9249(3) 0.37681(18)
C6 C 0.5635(3) 0.8365(3) 0.3875(2)
H4 H 0.5174 0.8297 0.3565
H5 H 0.5448 0.8301 0.4365
H6 H 0.5786 0.7930 0.3762
Co2 Co 0.70736(4) 0.99208(6) 0.54255(2)
O3 O 0.5155(2) 0.9590(4) 0.25205(13)
N5 N 0.6075(4) 0.9687(2) 0.09670(15)
N6 N 0.6082(5) 0.8480(3) 0.17860(16)
Co1_2 Co 0.04069(4) 0.65875(6) 0.20922(2)
N1_2 N 0.0278(3) 0.7258(4) 0.43003(15)
N2_2 N 0.0345(3) 0.6983(4) 0.31390(15)
C1_2 C 0.0751(3) 0.7163(4) 0.37681(18)
C6_2 C 0.1635(3) 0.7270(4) 0.3875(2)
H4_2 H 0.1703 0.6877 0.3565
H5_2 H 0.1699 0.7147 0.4365
H6_2 H 0.2070 0.7856 0.3762
Co2_2 Co 0.00792(6) 0.71527(7) 0.54255(2)
O3_2 O 0.0410(4) 0.5566(4) 0.25205(13)
N5_2 N 0.0313(2) 0.6389(4) 0.09670(15)
N6_2 N 0.1520(3) 0.7603(6) 0.17860(16)
O1_2 O 0.9252(2) 0.6596(3) 0.20491(13)
O2_2 O 0.8178(2) 0.7077(4) 0.41462(13)
N3_2 N 0.8244(3) 0.6716(4) 0.26940(19)
H1_2 H 0.811(4) 0.686(6) 0.312(3)
H2_2 H 0.785(4) 0.666(6) 0.235(4)
N4_2 N 0.9064(4) 0.7251(5) 0.51193(16)
H3_2 H 0.872(4) 0.730(5) 0.536(3)
C2_2 C 0.8991(4) 0.6746(6) 0.26358(19)
C3_2 C 0.9570(3) 0.6949(4) 0.32613(19)
C4_2 C 0.9526(4) 0.7125(5) 0.39800(18)
C5_2 C 0.8865(4) 0.7155(5) 0.4438(2)
Co3_2 Co 0.71527(4) 0.70736(7) 0.45745(2)
Co1_3 Co 0.34125(6) 0.38194(4) 0.20922(2)
O1_3 O 0.3404(3) 0.2656(2) 0.20491(13)
O2_3 O 0.2923(4) 0.1101(3) 0.41462(13)
N1_3 N 0.2742(4) 0.3020(2) 0.43003(15)
N2_3 N 0.3017(4) 0.3362(3) 0.31390(15)
N3_3 N 0.3284(4) 0.1528(3) 0.26940(19)
H1_3 H 0.314(6) 0.125(4) 0.312(3)
H2_3 H 0.334(6) 0.119(4) 0.235(4)
N4_3 N 0.2749(5) 0.1813(3) 0.51193(16)
H3_3 H 0.270(5) 0.142(3) 0.536(3)
C1_3 C 0.2837(4) 0.3588(3) 0.37681(18)
C2_3 C 0.3254(6) 0.2245(4) 0.26358(19)
C3_3 C 0.3051(4) 0.2621(3) 0.32613(19)
C4_3 C 0.2875(5) 0.2401(3) 0.39800(18)
C5_3 C 0.2845(5) 0.1710(3) 0.4438(2)
C6_3 C 0.2730(4) 0.4365(3) 0.3875(2)
H4_3 H 0.3123 0.4826 0.3565
H5_3 H 0.2853 0.4552 0.4365
H6_3 H 0.2144 0.4214 0.3762
Co2_3 Co 0.28473(7) 0.29264(4) 0.54255(2)
Co3_3 Co 0.29264(7) 0.00792(6) 0.45745(2)
O3_3 O 0.4434(4) 0.4845(2) 0.25205(13)
N5_3 N 0.3611(4) 0.3925(4) 0.09670(15)
N6_3 N 0.2397(6) 0.3918(5) 0.17860(16)
O1_4 O 0.4011(2) 0.4081(2) 0.53824(13)
O2_4 O 0.5566(3) 0.5155(2) 0.74795(13)
N1_4 N 0.3647(2) 0.3055(3) 0.76336(15)
N2_4 N 0.3305(3) 0.2988(3) 0.64723(15)
N3_4 N 0.5139(3) 0.5089(3) 0.60273(19)
H1_4 H 0.542(4) 0.522(4) 0.645(3)
H2_4 H 0.548(4) 0.548(4) 0.568(4)
N4_4 N 0.4854(3) 0.4269(4) 0.84526(16)
H3_4 H 0.525(3) 0.461(4) 0.869(3)
C1_4 C 0.3079(3) 0.2582(3) 0.71014(18)
C2_4 C 0.4422(4) 0.4342(4) 0.59691(19)
C3_4 C 0.4046(3) 0.3763(3) 0.65946(19)
C4_4 C 0.4266(3) 0.3807(4) 0.73133(18)
C5_4 C 0.4957(3) 0.4468(4) 0.7771(2)
C6_4 C 0.2302(3) 0.1698(3) 0.7208(2)
H4_4 H 0.1841 0.1630 0.6898
H5_4 H 0.2115 0.1634 0.7698
H6_4 H 0.2453 0.1263 0.7095
Co2_4 Co 0.37402(4) 0.32542(6) 0.87589(2)
Co3_4 Co 0.65875(6) 0.61806(4) 0.79078(2)
O3_4 O 0.1822(2) 0.2923(4) 0.58538(13)
O2_5 O 0.4845(2) 0.0410(4) 0.74795(13)
N1_5 N 0.6945(3) 0.0591(4) 0.76336(15)
N2_5 N 0.7012(3) 0.0316(4) 0.64723(15)
N3_5 N 0.4911(3) 0.0049(4) 0.60273(19)
H1_5 H 0.478(4) 0.019(6) 0.645(3)
N4_5 N 0.5731(4) 0.0584(5) 0.84526(16)
H3_5 H 0.539(4) 0.063(5) 0.869(3)
C1_5 C 0.7418(3) 0.0496(4) 0.71014(18)
C2_5 C 0.5658(4) 0.0079(6) 0.59691(19)
C3_5 C 0.6237(3) 0.0282(4) 0.65946(19)
C4_5 C 0.6193(4) 0.0458(5) 0.73133(18)
C5_5 C 0.5532(4) 0.0488(5) 0.7771(2)
C6_5 C 0.8302(3) 0.0603(4) 0.7208(2)
H4_5 H 0.8370 0.0210 0.6898
H5_5 H 0.8366 0.0480 0.7698
H6_5 H 0.8737 0.1189 0.7095
Co2_5 Co 0.67458(6) 0.04861(7) 0.87589(2)
Co3_5 Co 0.38194(4) 0.04069(7) 0.79078(2)
O1_5 O 0.5919(2) 0.9929(3) 0.53824(13)
H2_5 H 0.452(4) 0.999(6) 0.568(4)
O3_5 O 0.7077(4) 0.8899(4) 0.58538(13)
O1_6 O 0.0071(3) 0.5989(2) 0.53824(13)
H2_6 H 0.001(6) 0.452(4) 0.568(4)
O3_6 O 0.1101(4) 0.8178(2) 0.58538(13)
O2_6 O 0.9590(4) 0.4434(3) 0.74795(13)
N1_6 N 0.9409(4) 0.6353(2) 0.76336(15)
N2_6 N 0.9684(4) 0.6695(3) 0.64723(15)
N3_6 N 0.9951(4) 0.4861(3) 0.60273(19)
H1_6 H 0.981(6) 0.458(4) 0.645(3)
N4_6 N 0.9416(5) 0.5146(3) 0.84526(16)
H3_6 H 0.937(5) 0.475(3) 0.869(3)
C1_6 C 0.9504(4) 0.6921(3) 0.71014(18)
C2_6 C 0.9921(6) 0.5578(4) 0.59691(19)
C3_6 C 0.9718(4) 0.5954(3) 0.65946(19)
C4_6 C 0.9542(5) 0.5734(3) 0.73133(18)
C5_6 C 0.9512(5) 0.5043(3) 0.7771(2)
C6_6 C 0.9397(4) 0.7698(3) 0.7208(2)
H4_6 H 0.9790 0.8159 0.6898
H5_6 H 0.9520 0.7885 0.7698
H6_6 H 0.8811 0.7547 0.7095
Co2_6 Co 0.95139(7) 0.62598(4) 0.87589(2)
Co3_6 Co 0.95931(7) 0.34125(6) 0.79078(2)
O2_7 O 0.2232(3) 0.8489(2) 0.08129(13)
H3_7 H 0.191(3) 0.795(4) 0.203(3)
C4_7 C 0.0932(3) 0.7141(4) 0.06467(18)
C5_7 C 0.1623(3) 0.7802(4) 0.1105(2)
Co3_7 Co 0.32542(6) 0.95139(4) 0.12411(2)
N2_7 N 0.9971(3) 0.6322(3) 0.98057(15)
O3_7 O 0.8489(2) 0.6256(4) 0.91871(13)
O2_8 O 0.1511(2) 0.3744(4) 0.08129(13)
H3_8 H 0.205(4) 0.397(5) 0.203(3)
C1_7 C 0.4084(3) 0.3830(4) 0.04348(18)
C4_8 C 0.2859(4) 0.3792(5) 0.06467(18)
C5_8 C 0.2198(4) 0.3822(5) 0.1105(2)
C6_7 C 0.4968(3) 0.3937(4) 0.0542(2)
H4_7 H 0.5036 0.3544 0.0232
H5_7 H 0.5032 0.3814 0.1032
H6_7 H 0.5403 0.4523 0.0429
Co3_8 Co 0.04861(4) 0.37402(7) 0.12411(2)
O1_7 O 0.2585(2) 0.3263(3) 0.87158(13)
N2_8 N 0.3678(3) 0.3650(4) 0.98057(15)
N3_7 N 0.1577(3) 0.3383(4) 0.93607(19)
H1_7 H 0.144(4) 0.353(6) 0.979(3)
H2_7 H 0.118(4) 0.333(6) 0.902(4)
C2_7 C 0.2324(4) 0.3413(6) 0.93025(19)
C3_7 C 0.2903(3) 0.3616(4) 0.99280(19)
O3_8 O 0.3744(4) 0.2232(4) 0.91871(13)
N2_9 N 0.6350(4) 0.0029(3) 0.98057(15)
O3_9 O 0.7768(4) 0.1511(2) 0.91871(13)
O2_9 O 0.6256(4) 0.7768(3) 0.08129(13)
H3_9 H 0.603(5) 0.809(3) 0.203(3)
C4_9 C 0.6208(5) 0.9068(3) 0.06467(18)
C5_9 C 0.6178(5) 0.8377(3) 0.1105(2)
Co3_9 Co 0.62598(7) 0.67458(6) 0.12411(2)
N1_7 N 0.3020(2) 0.0278(3) 0.56997(15)
N2_10 N 0.3362(3) 0.0345(3) 0.68610(15)
C1_8 C 0.3588(3) 0.0751(3) 0.62319(18)
C6_8 C 0.4365(3) 0.1635(3) 0.6125(2)
H4_8 H 0.4826 0.1703 0.6435
H5_8 H 0.4552 0.1699 0.5635
H6_8 H 0.4214 0.2070 0.6238
N5_4 N 0.3925(4) 0.0313(2) 0.90330(15)
N6_4 N 0.3918(5) 0.1520(3) 0.82140(16)
O1_8 O 0.2656(2) 0.9252(2) 0.79509(13)
N3_8 N 0.1528(3) 0.8244(3) 0.73060(19)
H1_8 H 0.125(4) 0.811(4) 0.688(3)
H2_8 H 0.119(4) 0.785(4) 0.765(4)
N4_7 N 0.1813(3) 0.9064(4) 0.48807(16)
H3_10 H 0.142(3) 0.872(4) 0.464(3)
C2_8 C 0.2245(4) 0.8991(4) 0.73642(19)
C3_8 C 0.2621(3) 0.9570(3) 0.67387(19)
C4_10 C 0.2401(3) 0.9526(4) 0.60200(18)
C5_10 C 0.1710(3) 0.8865(4) 0.5562(2)
O1_9 O 0.0748(2) 0.3404(3) 0.79509(13)
N3_9 N 0.1756(3) 0.3284(4) 0.73060(19)
H1_9 H 0.189(4) 0.314(6) 0.688(3)
H2_9 H 0.215(4) 0.334(6) 0.765(4)
N4_8 N 0.0936(4) 0.2749(5) 0.48807(16)
H3_11 H 0.128(4) 0.270(5) 0.464(3)
C2_9 C 0.1009(4) 0.3254(6) 0.73642(19)
C3_9 C 0.0430(3) 0.3051(4) 0.67387(19)
C4_11 C 0.0474(4) 0.2875(5) 0.60200(18)
C5_11 C 0.1135(4) 0.2845(5) 0.5562(2)
N1_8 N 0.9722(3) 0.2742(4) 0.56997(15)
N2_11 N 0.9655(3) 0.3017(4) 0.68610(15)
C1_9 C 0.9249(3) 0.2837(4) 0.62319(18)
C6_9 C 0.8365(3) 0.2730(4) 0.6125(2)
H4_9 H 0.8297 0.3123 0.6435
H5_9 H 0.8301 0.2853 0.5635
H6_9 H 0.7930 0.2144 0.6238
N5_5 N 0.9687(2) 0.3611(4) 0.90330(15)
N6_5 N 0.8480(3) 0.2397(6) 0.82140(16)
O1_10 O 0.6596(3) 0.7344(2) 0.79509(13)
N1_9 N 0.7258(4) 0.6980(2) 0.56997(15)
N2_12 N 0.6983(4) 0.6638(3) 0.68610(15)
N3_10 N 0.6716(4) 0.8472(3) 0.73060(19)
H1_10 H 0.686(6) 0.875(4) 0.688(3)
H2_10 H 0.666(6) 0.881(4) 0.765(4)
N4_9 N 0.7251(5) 0.8187(3) 0.48807(16)
H3_12 H 0.730(5) 0.858(3) 0.464(3)
C1_10 C 0.7163(4) 0.6412(3) 0.62319(18)
C2_10 C 0.6746(6) 0.7755(4) 0.73642(19)
C3_10 C 0.6949(4) 0.7379(3) 0.67387(19)
C4_12 C 0.7125(5) 0.7599(3) 0.60200(18)
C5_12 C 0.7155(5) 0.8290(3) 0.5562(2)
C6_10 C 0.7270(4) 0.5635(3) 0.6125(2)
H4_10 H 0.6877 0.5174 0.6435
H5_10 H 0.7147 0.5448 0.5635
H6_10 H 0.7856 0.5786 0.6238
N5_6 N 0.6389(4) 0.6075(4) 0.90330(15)
N6_6 N 0.7603(6) 0.6082(5) 0.82140(16)
O1_11 O 0.5989(2) 0.5919(2) 0.46176(13)
N1_10 N 0.6353(2) 0.6945(3) 0.23664(15)
N2_13 N 0.6695(3) 0.7012(3) 0.35277(15)
N3_11 N 0.4861(3) 0.4911(3) 0.39727(19)
H1_11 H 0.458(4) 0.478(4) 0.355(3)
H2_11 H 0.452(4) 0.452(4) 0.432(4)
N4_10 N 0.5146(3) 0.5731(4) 0.15474(16)
H3_13 H 0.475(3) 0.539(4) 0.131(3)
C1_11 C 0.6921(3) 0.7418(3) 0.28986(18)
C2_11 C 0.5578(4) 0.5658(4) 0.40309(19)
C3_11 C 0.5954(3) 0.6237(3) 0.34054(19)
C4_13 C 0.5734(3) 0.6193(4) 0.26867(18)
C5_13 C 0.5043(3) 0.5532(4) 0.2229(2)
C6_11 C 0.7698(3) 0.8302(3) 0.2792(2)
H4_11 H 0.8159 0.8370 0.3102
H5_11 H 0.7885 0.8366 0.2302
H6_11 H 0.7547 0.8737 0.2905
O1_12 O 0.4081(2) 0.0071(3) 0.46176(13)
H2_12 H 0.548(4) 0.001(6) 0.432(4)
N1_11 N 0.3055(3) 0.9409(4) 0.23664(15)
N2_14 N 0.2988(3) 0.9684(4) 0.35277(15)
N3_12 N 0.5089(3) 0.9951(4) 0.39727(19)
H1_12 H 0.522(4) 0.981(6) 0.355(3)
N4_11 N 0.4269(4) 0.9416(5) 0.15474(16)
H3_14 H 0.461(4) 0.937(5) 0.131(3)
C1_12 C 0.2582(3) 0.9504(4) 0.28986(18)
C2_12 C 0.4342(4) 0.9921(6) 0.40309(19)
C3_12 C 0.3763(3) 0.9718(4) 0.34054(19)
C4_14 C 0.3807(4) 0.9542(5) 0.26867(18)
C5_14 C 0.4468(4) 0.9512(5) 0.2229(2)
C6_12 C 0.1698(3) 0.9397(4) 0.2792(2)
H4_12 H 0.1630 0.9790 0.3102
H5_12 H 0.1634 0.9520 0.2302
H6_12 H 0.1263 0.8811 0.2905
N1_12 N 0.0591(4) 0.3647(2) 0.23664(15)
N2_15 N 0.0316(4) 0.3305(3) 0.35277(15)
N3_13 N 0.0049(4) 0.5139(3) 0.39727(19)
H1_13 H 0.019(6) 0.542(4) 0.355(3)
N4_12 N 0.0584(5) 0.4854(3) 0.15474(16)
H3_15 H 0.063(5) 0.525(3) 0.131(3)
C1_13 C 0.0496(4) 0.3079(3) 0.28986(18)
C2_13 C 0.0079(6) 0.4422(4) 0.40309(19)
C3_13 C 0.0282(4) 0.4046(3) 0.34054(19)
C4_15 C 0.0458(5) 0.4266(3) 0.26867(18)
C5_15 C 0.0488(5) 0.4957(3) 0.2229(2)
C6_13 C 0.0603(4) 0.2302(3) 0.2792(2)
H4_13 H 0.0210 0.1841 0.3102
H5_13 H 0.0480 0.2115 0.2302
H6_13 H 0.1189 0.2453 0.2905
O1_13 O 0.9929(3) 0.4011(2) 0.46176(13)
H2_13 H 0.999(6) 0.548(4) 0.432(4)
N2_16 N 0.0029(3) 0.3678(3) 0.01943(15)
H3_16 H 0.809(3) 0.205(4) 0.797(3)
C4_16 C 0.9068(3) 0.2859(4) 0.93533(18)
C5_16 C 0.8377(3) 0.2198(4) 0.8895(2)
O1_14 O 0.7415(2) 0.6737(3) 0.12842(13)
N2_17 N 0.6322(3) 0.6350(4) 0.01943(15)
N3_14 N 0.8423(3) 0.6617(4) 0.06393(19)
H1_14 H 0.856(4) 0.647(6) 0.021(3)
H2_14 H 0.882(4) 0.667(6) 0.098(4)
C2_14 C 0.7676(4) 0.6587(6) 0.06975(19)
C3_14 C 0.7097(3) 0.6384(4) 0.00720(19)
H3_17 H 0.795(4) 0.603(5) 0.797(3)
C1_14 C 0.5916(3) 0.6170(4) 0.95652(18)
C4_17 C 0.7141(4) 0.6208(5) 0.93533(18)
C5_17 C 0.7802(4) 0.6178(5) 0.8895(2)
C6_14 C 0.5032(3) 0.6063(4) 0.9458(2)
H4_14 H 0.4964 0.6456 0.9768
H5_14 H 0.4968 0.6186 0.8968
H6_14 H 0.4597 0.5477 0.9571
H3_18 H 0.397(5) 0.191(3) 0.797(3)
C4_18 C 0.3792(5) 0.0932(3) 0.93533(18)
C5_18 C 0.3822(5) 0.1623(3) 0.8895(2)
N2_18 N 0.3650(4) 0.9971(3) 0.01943(15)
O1_15 O 0.0677(2) 0.7415(2) 0.87158(13)
N3_15 N 0.1805(3) 0.8423(3) 0.93607(19)
H1_15 H 0.208(4) 0.856(4) 0.979(3)
H2_15 H 0.214(4) 0.882(4) 0.902(4)
C2_15 C 0.1088(4) 0.7676(4) 0.93025(19)
C3_15 C 0.0712(3) 0.7097(3) 0.99280(19)
C1_15 C 0.9745(3) 0.5916(3) 0.04348(18)
C6_15 C 0.8968(3) 0.5032(3) 0.0542(2)
H4_15 H 0.8507 0.4964 0.0232
H5_15 H 0.8781 0.4968 0.1032
H6_15 H 0.9119 0.4597 0.0429
C1_16 C 0.6170(4) 0.0255(3) 0.04348(18)
C6_16 C 0.6063(4) 0.1032(3) 0.0542(2)
H4_16 H 0.6456 0.1493 0.0232
H5_16 H 0.6186 0.1219 0.1032
H6_16 H 0.5477 0.0881 0.0429
O1_16 O 0.6737(3) 0.9323(2) 0.87158(13)
N3_16 N 0.6617(4) 0.8195(3) 0.93607(19)
H1_16 H 0.647(6) 0.792(4) 0.979(3)
H2_16 H 0.667(6) 0.786(4) 0.902(4)
C2_16 C 0.6587(6) 0.8912(4) 0.93025(19)
C3_16 C 0.6384(4) 0.9288(3) 0.99280(19)
C1_17 C 0.0255(3) 0.4084(3) 0.95652(18)
C6_17 C 0.1032(3) 0.4968(3) 0.9458(2)
H4_17 H 0.1493 0.5036 0.9768
H5_17 H 0.1219 0.5032 0.8968
H6_17 H 0.0881 0.5403 0.9571
O1_17 O 0.9323(2) 0.2585(2) 0.12842(13)
N3_17 N 0.8195(3) 0.1577(3) 0.06393(19)
H1_17 H 0.792(4) 0.144(4) 0.021(3)
H2_17 H 0.786(4) 0.118(4) 0.098(4)
C2_17 C 0.8912(4) 0.2324(4) 0.06975(19)
C3_17 C 0.9288(3) 0.2903(3) 0.00720(19)
O1_18 O 0.3263(3) 0.0677(2) 0.12842(13)
N3_18 N 0.3383(4) 0.1805(3) 0.06393(19)
H1_18 H 0.353(6) 0.208(4) 0.021(3)
H2_18 H 0.333(6) 0.214(4) 0.098(4)
C2_18 C 0.3413(6) 0.1088(4) 0.06975(19)
C3_18 C 0.3616(4) 0.0712(3) 0.00720(19)
C1_18 C 0.3830(4) 0.9745(3) 0.95652(18)
C6_18 C 0.3937(4) 0.8968(3) 0.9458(2)
H4_18 H 0.3544 0.8507 0.9768
H5_18 H 0.3814 0.8781 0.8968
H6_18 H 0.4523 0.9119 0.9571
loop_
_geom_bond_atom_site_label_1
_geom_bond_atom_site_label_2
_geom_bond_site_symmetry_1
_geom_bond_site_symmetry_2
O1 C2 1_555 1_555
O2 C5 1_555 1_555
N3 H1 1_555 1_555
H2 N3 1_555 1_555
N4 H3 1_555 1_555
C2 N3 1_555 1_555
C5 N4 1_555 1_555
Co3 O2 1_555 1_555
C2 C3 1_555 1_555
C3 C4 1_555 1_555
C4 C5 1_555 1_555
N1 C1 1_555 1_555
N2 Co1 1_555 1_555
C1 N2 1_555 1_555
C6 C1 1_555 1_555
H4 C6 1_555 1_555
H5 C6 1_555 1_555
H6 C6 1_555 1_555
Co2 N1 1_555 1_555
O3 Co1 1_555 1_555
N5 Co1 1_555 1_555
N6 Co1 1_555 1_555
N1_2 C1_2 1_555 1_555
N2_2 Co1_2 1_555 1_555
C1_2 N2_2 1_555 1_555
C6_2 C1_2 1_555 1_555
H4_2 C6_2 1_555 1_555
H5_2 C6_2 1_555 1_555
H6_2 C6_2 1_555 1_555
Co2_2 N1_2 1_555 1_555
O3_2 Co1_2 1_555 1_555
N5_2 Co1_2 1_555 1_555
N6_2 Co1_2 1_555 1_555
O1_2 C2_2 1_555 1_555
O2_2 C5_2 1_555 1_555
N3_2 H1_2 1_555 1_555
H2_2 N3_2 1_555 1_555
N4_2 H3_2 1_555 1_555
C2_2 N3_2 1_555 1_555
C5_2 N4_2 1_555 1_555
Co3_2 O2_2 1_555 1_555
C2_2 C3_2 1_555 1_555
C3_2 C4_2 1_555 1_555
C4_2 C5_2 1_555 1_555
Co1_3 O1_3 1_555 1_555
O1_3 C2_3 1_555 1_555
O2_3 C5_3 1_555 1_555
N1_3 C1_3 1_555 1_555
N2_3 Co1_3 1_555 1_555
N3_3 H1_3 1_555 1_555
H2_3 N3_3 1_555 1_555
N4_3 H3_3 1_555 1_555
C1_3 N2_3 1_555 1_555
C2_3 N3_3 1_555 1_555
C3_3 N2_3 1_555 1_555
C4_3 N1_3 1_555 1_555
C5_3 N4_3 1_555 1_555
C6_3 C1_3 1_555 1_555
H4_3 C6_3 1_555 1_555
H5_3 C6_3 1_555 1_555
H6_3 C6_3 1_555 1_555
Co2_3 N1_3 1_555 1_555
Co3_3 O2_3 1_555 1_555
O3_3 Co1_3 1_555 1_555
N5_3 Co1_3 1_555 1_555
N6_3 Co1_3 1_555 1_555
N4_3 Co2_3 1_555 1_555
C2_3 C3_3 1_555 1_555
C3_3 C4_3 1_555 1_555
C4_3 C5_3 1_555 1_555
Co2_3 O1_4 1_555 1_555
O1_4 C2_4 1_555 1_555
O2_4 C5_4 1_555 1_555
N1_4 C1_4 1_555 1_555
N2_4 Co2_3 1_555 1_555
N3_4 H1_4 1_555 1_555
H2_4 N3_4 1_555 1_555
N4_4 H3_4 1_555 1_555
C1_4 N2_4 1_555 1_555
C2_4 N3_4 1_555 1_555
C3_4 N2_4 1_555 1_555
C4_4 N1_4 1_555 1_555
C5_4 N4_4 1_555 1_555
C6_4 C1_4 1_555 1_555
H4_4 C6_4 1_555 1_555
H5_4 C6_4 1_555 1_555
H6_4 C6_4 1_555 1_555
Co2_4 N1_4 1_555 1_555
Co3_4 O2_4 1_555 1_555
O3_4 Co2_3 1_555 1_555
N4_4 Co2_4 1_555 1_555
C2_4 C3_4 1_555 1_555
C3_4 C4_4 1_555 1_555
C4_4 C5_4 1_555 1_555
O2_5 C5_5 1_555 1_555
N1_5 C1_5 1_555 1_555
N3_5 H1_5 1_555 1_555
N4_5 H3_5 1_555 1_555
C1_5 N2_5 1_555 1_555
C2_5 N3_5 1_555 1_555
C3_5 N2_5 1_555 1_555
C4_5 N1_5 1_555 1_555
C5_5 N4_5 1_555 1_555
C6_5 C1_5 1_555 1_555
H4_5 C6_5 1_555 1_555
H5_5 C6_5 1_555 1_555
H6_5 C6_5 1_555 1_555
Co2_5 N1_5 1_555 1_555
Co3_5 O2_5 1_555 1_555
N4_5 Co2_5 1_555 1_555
C2_5 C3_5 1_555 1_555
C3_5 C4_5 1_555 1_555
C4_5 C5_5 1_555 1_555
Co2 O1_5 1_555 1_555
O3_5 Co2 1_555 1_555
Co2_2 O1_6 1_555 1_555
O3_6 Co2_2 1_555 1_555
O2_6 C5_6 1_555 1_555
N1_6 C1_6 1_555 1_555
N3_6 H1_6 1_555 1_555
N4_6 H3_6 1_555 1_555
C1_6 N2_6 1_555 1_555
C2_6 N3_6 1_555 1_555
C3_6 N2_6 1_555 1_555
C4_6 N1_6 1_555 1_555
C5_6 N4_6 1_555 1_555
C6_6 C1_6 1_555 1_555
H4_6 C6_6 1_555 1_555
H5_6 C6_6 1_555 1_555
H6_6 C6_6 1_555 1_555
Co2_6 N1_6 1_555 1_555
Co3_6 O2_6 1_555 1_555
N4_6 Co2_6 1_555 1_555
C2_6 C3_6 1_555 1_555
C3_6 C4_6 1_555 1_555
C4_6 C5_6 1_555 1_555
O2_7 C5_7 1_555 1_555
N6_2 H3_7 1_555 1_555
C4_7 N5_2 1_555 1_555
C5_7 N6_2 1_555 1_555
Co3_7 O2_7 1_555 1_555
C4_7 C5_7 1_555 1_555
N2_7 Co2_6 1_555 1_555
O3_7 Co2_6 1_555 1_555
O2_8 C5_8 1_555 1_555
N5_3 C1_7 1_555 1_555
N6_3 H3_8 1_555 1_555
C4_8 N5_3 1_555 1_555
C5_8 N6_3 1_555 1_555
C6_7 C1_7 1_555 1_555
H4_7 C6_7 1_555 1_555
H5_7 C6_7 1_555 1_555
H6_7 C6_7 1_555 1_555
Co3_8 O2_8 1_555 1_555
C4_8 C5_8 1_555 1_555
Co2_4 O1_7 1_555 1_555
O1_7 C2_7 1_555 1_555
N2_8 Co2_4 1_555 1_555
N3_7 H1_7 1_555 1_555
H2_7 N3_7 1_555 1_555
C2_7 N3_7 1_555 1_555
C3_7 N2_8 1_555 1_555
O3_8 Co2_4 1_555 1_555
C2_7 C3_7 1_555 1_555
N2_9 Co2_5 1_555 1_555
O3_9 Co2_5 1_555 1_555
O2_9 C5_9 1_555 1_555
N6 H3_9 1_555 1_555
C4_9 N5 1_555 1_555
C5_9 N6 1_555 1_555
Co3_9 O2_9 1_555 1_555
C4_9 C5_9 1_555 1_555
N1_7 C1_8 1_555 1_555
N2_10 Co3_5 1_555 1_555
C1_8 N2_10 1_555 1_555
C6_8 C1_8 1_555 1_555
H4_8 C6_8 1_555 1_555
H5_8 C6_8 1_555 1_555
H6_8 C6_8 1_555 1_555
Co3_3 N1_7 1_555 1_555
N5_4 Co3_5 1_555 1_555
N6_4 Co3_5 1_555 1_555
O1_8 C2_8 1_555 1_555
O3_6 C5_10 1_555 1_555
N3_8 H1_8 1_555 1_555
H2_8 N3_8 1_555 1_555
N4_7 H3_10 1_555 1_555
C2_8 N3_8 1_555 1_555
C5_10 N4_7 1_555 1_555
C2_8 C3_8 1_555 1_555
C3_8 C4_10 1_555 1_555
C4_10 C5_10 1_555 1_555
O1_9 C2_9 1_555 1_555
O3_4 C5_11 1_555 1_555
N3_9 H1_9 1_555 1_555
H2_9 N3_9 1_555 1_555
N4_8 H3_11 1_555 1_555
C2_9 N3_9 1_555 1_555
C5_11 N4_8 1_555 1_555
C2_9 C3_9 1_555 1_555
C3_9 C4_11 1_555 1_555
C4_11 C5_11 1_555 1_555
N1_8 C1_9 1_555 1_555
N2_11 Co3_6 1_555 1_555
C1_9 N2_11 1_555 1_555
C6_9 C1_9 1_555 1_555
H4_9 C6_9 1_555 1_555
H5_9 C6_9 1_555 1_555
H6_9 C6_9 1_555 1_555
Co3 N1_8 1_555 1_555
N5_5 Co3_6 1_555 1_555
N6_5 Co3_6 1_555 1_555
Co3_4 O1_10 1_555 1_555
O1_10 C2_10 1_555 1_555
O3_5 C5_12 1_555 1_555
N1_9 C1_10 1_555 1_555
N2_12 Co3_4 1_555 1_555
N3_10 H1_10 1_555 1_555
H2_10 N3_10 1_555 1_555
N4_9 H3_12 1_555 1_555
C1_10 N2_12 1_555 1_555
C2_10 N3_10 1_555 1_555
C3_10 N2_12 1_555 1_555
C4_12 N1_9 1_555 1_555
C5_12 N4_9 1_555 1_555
C6_10 C1_10 1_555 1_555
H4_10 C6_10 1_555 1_555
H5_10 C6_10 1_555 1_555
H6_10 C6_10 1_555 1_555
Co3_2 N1_9 1_555 1_555
N5_6 Co3_4 1_555 1_555
N6_6 Co3_4 1_555 1_555
N4_9 Co3_2 1_555 1_555
C2_10 C3_10 1_555 1_555
C3_10 C4_12 1_555 1_555
C4_12 C5_12 1_555 1_555
Co3_2 O1_11 1_555 1_555
O1_11 C2_11 1_555 1_555
O3_3 C5_13 1_555 1_555
N1_10 C1_11 1_555 1_555
N2_13 Co3_2 1_555 1_555
N3_11 H1_11 1_555 1_555
H2_11 N3_11 1_555 1_555
N4_10 H3_13 1_555 1_555
C1_11 N2_13 1_555 1_555
C2_11 N3_11 1_555 1_555
C3_11 N2_13 1_555 1_555
C4_13 N1_10 1_555 1_555
C5_13 N4_10 1_555 1_555
C6_11 C1_11 1_555 1_555
H4_11 C6_11 1_555 1_555
H5_11 C6_11 1_555 1_555
H6_11 C6_11 1_555 1_555
Co3_9 N1_10 1_555 1_555
N4_10 Co3_9 1_555 1_555
C2_11 C3_11 1_555 1_555
C3_11 C4_13 1_555 1_555
C4_13 C5_13 1_555 1_555
Co3_3 O1_12 1_555 1_555
O3 C5_14 1_555 1_555
N1_11 C1_12 1_555 1_555
N3_12 H1_12 1_555 1_555
N4_11 H3_14 1_555 1_555
C1_12 N2_14 1_555 1_555
C2_12 N3_12 1_555 1_555
C3_12 N2_14 1_555 1_555
C4_14 N1_11 1_555 1_555
C5_14 N4_11 1_555 1_555
C6_12 C1_12 1_555 1_555
H4_12 C6_12 1_555 1_555
H5_12 C6_12 1_555 1_555
H6_12 C6_12 1_555 1_555
Co3_7 N1_11 1_555 1_555
N4_11 Co3_7 1_555 1_555
C2_12 C3_12 1_555 1_555
C3_12 C4_14 1_555 1_555
C4_14 C5_14 1_555 1_555
O3_2 C5_15 1_555 1_555
N1_12 C1_13 1_555 1_555
N3_13 H1_13 1_555 1_555
N4_12 H3_15 1_555 1_555
C1_13 N2_15 1_555 1_555
C2_13 N3_13 1_555 1_555
C3_13 N2_15 1_555 1_555
C4_15 N1_12 1_555 1_555
C5_15 N4_12 1_555 1_555
C6_13 C1_13 1_555 1_555
H4_13 C6_13 1_555 1_555
H5_13 C6_13 1_555 1_555
H6_13 C6_13 1_555 1_555
Co3_8 N1_12 1_555 1_555
N4_12 Co3_8 1_555 1_555
C2_13 C3_13 1_555 1_555
C3_13 C4_15 1_555 1_555
C4_15 C5_15 1_555 1_555
Co3 O1_13 1_555 1_555
N2_16 Co3_8 1_555 1_555
O3_9 C5_16 1_555 1_555
N6_5 H3_16 1_555 1_555
C4_16 N5_5 1_555 1_555
C5_16 N6_5 1_555 1_555
C4_16 C5_16 1_555 1_555
Co3_9 O1_14 1_555 1_555
O1_14 C2_14 1_555 1_555
N2_17 Co3_9 1_555 1_555
N3_14 H1_14 1_555 1_555
H2_14 N3_14 1_555 1_555
C2_14 N3_14 1_555 1_555
C3_14 N2_17 1_555 1_555
C2_14 C3_14 1_555 1_555
O3_7 C5_17 1_555 1_555
N5_6 C1_14 1_555 1_555
N6_6 H3_17 1_555 1_555
C4_17 N5_6 1_555 1_555
C5_17 N6_6 1_555 1_555
C6_14 C1_14 1_555 1_555
H4_14 C6_14 1_555 1_555
H5_14 C6_14 1_555 1_555
H6_14 C6_14 1_555 1_555
C4_17 C5_17 1_555 1_555
O3_8 C5_18 1_555 1_555
N6_4 H3_18 1_555 1_555
C4_18 N5_4 1_555 1_555
C5_18 N6_4 1_555 1_555
C4_18 C5_18 1_555 1_555
N2_18 Co3_7 1_555 1_555
O1_15 C2_15 1_555 1_555
N3_15 H1_15 1_555 1_555
H2_15 N3_15 1_555 1_555
C2_15 N3_15 1_555 1_555
C2_15 C3_15 1_555 1_555
C6_15 C1_15 1_555 1_555
H4_15 C6_15 1_555 1_555
H5_15 C6_15 1_555 1_555
H6_15 C6_15 1_555 1_555
C6_16 C1_16 1_555 1_555
H4_16 C6_16 1_555 1_555
H5_16 C6_16 1_555 1_555
H6_16 C6_16 1_555 1_555
O1_16 C2_16 1_555 1_555
N3_16 H1_16 1_555 1_555
H2_16 N3_16 1_555 1_555
C2_16 N3_16 1_555 1_555
C2_16 C3_16 1_555 1_555
C6_17 C1_17 1_555 1_555
H4_17 C6_17 1_555 1_555
H5_17 C6_17 1_555 1_555
H6_17 C6_17 1_555 1_555
O1_17 C2_17 1_555 1_555
N3_17 H1_17 1_555 1_555
H2_17 N3_17 1_555 1_555
C2_17 N3_17 1_555 1_555
C2_17 C3_17 1_555 1_555
O1_18 C2_18 1_555 1_555
N3_18 H1_18 1_555 1_555
H2_18 N3_18 1_555 1_555
C2_18 N3_18 1_555 1_555
C2_18 C3_18 1_555 1_555
C6_18 C1_18 1_555 1_555
H4_18 C6_18 1_555 1_555
H5_18 C6_18 1_555 1_555
H6_18 C6_18 1_555 1_555

#END
