
###############################################################################
#
# This file contains modified crystal structure data generated from the
# MOF subset of the Cambridge Structural Database (CSD) v543 
# hosted by the Cambridge Crystallographic Data Centre (CCDC).
#
# This work is licensed under the Creative Commons
# Attribution-NonCommercial-ShareAlike 4.0 International License.
# To view a copy of this license, visit
# http://creativecommons.org/licenses/by-nc-sa/4.0/
# or send a letter to
# Creative Commons, PO Box 1866, Mountain View, CA 94042, USA.
#
# CIF created using the CSD Python API on 29 September 2022
# The structure has been converted into the P1 space group
# The structure has a 3D framework
# The original CSD entry IPIJEY is in the orthorhombic crystal system
# The framework has been calculated to contain at least 10.0% void space
# The void calculation uses a probe of radius 1.32A, grid spacing 0.4
#
###############################################################################

data_IPIJEY
_chemical_formula_moiety         '(C196 H128 N64 O36 Zn16)n'
_symmetry_cell_setting           triclinic
_symmetry_space_group_name_H-M   'P 1'
_symmetry_Int_Tables_number      1
_space_group_name_Hall           'P 1'
loop_
_symmetry_equiv_pos_site_id
_symmetry_equiv_pos_as_xyz
1 x,y,z
_cell_length_a                   18.580(4)
_cell_length_b                   9.962(2)
_cell_length_c                   32.732(8)
_cell_angle_alpha                90
_cell_angle_beta                 90
_cell_angle_gamma                90
_cell_volume                     6058.5
loop_
_atom_site_label
_atom_site_type_symbol
_atom_site_fract_x
_atom_site_fract_y
_atom_site_fract_z
Zn1 Zn 0.080698(18) 0.27461(3) 0.058596(8)
Zn2 Zn 0.064300(11) 0.02828(2) 0.218912(7)
O1 O 0.15914(8) 0.00156(17) 0.24001(6)
N1 N 0.14542(13) 0.4030(2) 0.09246(7)
N2 N 0.19015(14) 0.2225(2) 0.03979(7)
N3 N 0.05760(12) 0.12564(19) 0.09857(6)
N4 N 0.07054(11) 0.14159(19) 0.13808(6)
N5 N 0.05257(11) 0.03129(18) 0.15851(6)
C1 C 0.2086(2) 0.1289(4) 0.01243(10)
C2 C 0.2793(3) 0.1015(5) 0.00306(13)
C3 C 0.3318(3) 0.1718(5) 0.02205(15)
H5 H 0.3800 0.1554 0.0160
C4 C 0.3136(2) 0.2667(4) 0.05004(14)
H6 H 0.3493 0.3153 0.0634
C5 C 0.24212(18) 0.2910(3) 0.05865(9)
C6 C 0.21660(17) 0.3913(3) 0.08866(9)
C7 C 0.2630(2) 0.4684(4) 0.11187(11)
H7 H 0.3126 0.4582 0.1093
C8 C 0.2353(2) 0.5592(4) 0.13847(11)
H8 H 0.2660 0.6136 0.1536
C9 C 0.1634(2) 0.5708(3) 0.14301(10)
H9 H 0.1439 0.6314 0.1616
C10 C 0.1194(2) 0.4901(3) 0.11933(10)
H10 H 0.0698 0.4973 0.1224
C11 C 0.02949(13) -0.0001(2) 0.09312(7)
C20 C 0.30405(12) 0.0299(2) 0.25218(9)
H14 H 0.2734 0.1011 0.2580
C21 C 0.37572(12) 0.0425(2) 0.26062(9)
H15 H 0.3950 0.1217 0.2710
Zn4 Zn 0.564300(11) 0.02828(2) 0.281088(7)
O6 O 0.04453(13) 0.20054(19) 0.00712(6)
N9 N 0.05466(9) 0.22338(18) 0.23467(6)
O3 O 0.17325(10) 0.8240(2) 0.20044(7)
N6 N 0.44534(9) 0.72338(18) 0.23467(6)
N7 N 0.50436(10) 0.78284(17) 0.24718(6)
N8 N 0.49020(9) 0.90833(17) 0.25846(6)
C11_2 C 0.02949(13) 0.9999(2) 0.09312(7)
C12 C 0.00680(14) 0.9332(2) 0.05807(7)
H11 H 0.0085 0.9743 0.0326
C16 C 0.00147(16) 0.8083(2) 0.13587(8)
C17 C 0.02683(13) 0.9398(2) 0.13121(7)
C18 C 0.19630(11) 0.9087(2) 0.22382(8)
C19 C 0.27520(11) 0.9120(2) 0.23485(7)
C22 C 0.41850(11) 0.9303(2) 0.25292(7)
C23 C 0.38985(11) 0.8126(2) 0.23717(7)
C24 C 0.31716(11) 0.8039(2) 0.22659(7)
H16 H 0.2983 0.7273 0.2144
Zn5 Zn 0.435700(11) 0.52828(2) 0.218912(7)
O4 O 0.93818(13) 0.61195(19) 0.02699(6)
C13 C 0.98187(14) 0.8047(2) 0.06252(7)
C14 C 0.95691(15) 0.7302(2) 0.02500(8)
C15 C 0.97957(16) 0.7436(2) 0.10121(8)
H12 H 0.9626 0.6561 0.1033
H13 H 0.9996 0.7670 0.1613
N10 N 0.99020(9) 0.90833(17) 0.24154(6)
O5 O 0.95547(13) 0.79946(19) 0.99288(6)
Zn3 Zn 0.919302(18) 0.72539(3) 0.941404(8)
O3_2 O 0.32675(10) 0.1760(2) 0.70044(7)
O4_2 O 0.56182(13) 0.38805(19) 0.52699(6)
O5_2 O 0.54453(13) 0.20054(19) 0.49288(6)
N6_2 N 0.05466(9) 0.27662(18) 0.73467(6)
N8_2 N 0.00980(9) 0.09167(17) 0.75846(6)
C11_3 C 0.47051(13) 0.0001(2) 0.59312(7)
C12_2 C 0.49320(14) 0.0668(2) 0.55807(7)
H11_2 H 0.4915 0.0257 0.5326
C13_2 C 0.51813(14) 0.1953(2) 0.56252(7)
C14_2 C 0.54309(15) 0.2698(2) 0.52500(8)
C15_2 C 0.52043(16) 0.2564(2) 0.60121(8)
H12_2 H 0.5374 0.3439 0.6033
C16_2 C 0.49853(16) 0.1917(2) 0.63587(8)
H13_2 H 0.5004 0.2330 0.6613
C17_2 C 0.47317(13) 0.0602(2) 0.63121(7)
C18_2 C 0.30370(11) 0.0913(2) 0.72382(8)
C19_2 C 0.22480(11) 0.0880(2) 0.73485(7)
C22_2 C 0.08150(11) 0.0697(2) 0.75292(7)
C23_2 C 0.11015(11) 0.1874(2) 0.73717(7)
C24_2 C 0.18284(11) 0.1961(2) 0.72659(7)
H16_2 H 0.2017 0.2727 0.7144
Zn3_2 Zn 0.580698(18) 0.27461(3) 0.441404(8)
Zn5_2 Zn 0.064300(11) 0.47172(2) 0.718912(7)
N10_2 N 0.50980(9) 0.09167(17) 0.74154(6)
Zn1_2 Zn 0.419302(18) 0.72539(3) 0.558596(8)
Zn2_2 Zn 0.435700(11) 0.97172(2) 0.718912(7)
O1_2 O 0.34086(8) 0.99844(17) 0.74001(6)
O2 O 0.50977(12) 0.6061(2) 0.56896(7)
H1 H 0.5489 0.6547 0.5696
H2 H 0.5147 0.5469 0.5494
N1_2 N 0.35458(13) 0.5970(2) 0.59246(7)
N2_2 N 0.30985(14) 0.7775(2) 0.53979(7)
N3_2 N 0.44240(12) 0.87436(19) 0.59857(6)
N4_2 N 0.42946(11) 0.85841(19) 0.63808(6)
N5_2 N 0.44743(11) 0.96871(18) 0.65851(6)
C1_2 C 0.2914(2) 0.8711(4) 0.51243(10)
H3 H 0.3275 0.9193 0.4993
C2_2 C 0.2207(3) 0.8985(5) 0.50306(13)
H4 H 0.2093 0.9643 0.4840
C3_2 C 0.1682(3) 0.8282(5) 0.52205(15)
H5_2 H 0.1200 0.8446 0.5160
C4_2 C 0.1864(2) 0.7333(4) 0.55004(14)
H6_2 H 0.1507 0.6847 0.5634
C5_2 C 0.25788(18) 0.7090(3) 0.55865(9)
C6_2 C 0.28340(17) 0.6087(3) 0.58866(9)
C7_2 C 0.2370(2) 0.5316(4) 0.61187(11)
H7_2 H 0.1874 0.5418 0.6093
C8_2 C 0.2647(2) 0.4408(4) 0.63847(11)
H8_2 H 0.2340 0.3864 0.6536
C9_2 C 0.3366(2) 0.4292(3) 0.64301(10)
H9_2 H 0.3561 0.3686 0.6616
C10_2 C 0.3806(2) 0.5099(3) 0.61933(10)
H10_2 H 0.4302 0.5027 0.6224
C11_4 C 0.47051(13) 1.0001(2) 0.59312(7)
C20_2 C 0.19595(12) 0.9701(2) 0.75218(9)
H14_2 H 0.2266 0.8989 0.7580
C21_2 C 0.12428(12) 0.9575(2) 0.76062(9)
H15_2 H 0.1050 0.8783 0.7710
O6_2 O 0.45547(13) 0.79946(19) 0.50712(6)
N9_2 N 0.44534(9) 0.77662(18) 0.73467(6)
Zn4_2 Zn 0.935700(11) 0.97172(2) 0.781088(7)
N7_2 N 0.00436(10) 0.71716(17) 0.75282(6)
O5_3 O 0.45547(13) 0.70054(19) 0.00712(6)
H3_2 H 0.6725 0.4193 0.0007
H4_2 H 0.7907 0.4643 0.0160
Zn3_3 Zn 0.419302(18) 0.77461(3) 0.058596(8)
Zn1_3 Zn 0.580698(18) 0.22539(3) 0.941404(8)
Zn2_3 Zn 0.564300(11) 0.47172(2) 0.781088(7)
O1_3 O 0.65914(8) 0.49844(17) 0.75999(6)
O2_2 O 0.49023(12) 0.1061(2) 0.93104(7)
H1_2 H 0.4511 0.1547 0.9304
H2_2 H 0.4853 0.0469 0.9506
O3_3 O 0.67325(10) 0.6760(2) 0.79956(7)
O4_3 O 0.43818(13) 0.88805(19) 0.97301(6)
N1_3 N 0.64542(13) 0.0970(2) 0.90754(7)
N2_3 N 0.69015(14) 0.2775(2) 0.96021(7)
N3_3 N 0.55760(12) 0.37436(19) 0.90143(6)
N4_3 N 0.57054(11) 0.35841(19) 0.86192(6)
N5_3 N 0.55257(11) 0.46871(18) 0.84149(6)
N6_3 N 0.94534(9) 0.77662(18) 0.76533(6)
N8_3 N 0.99020(9) 0.59167(17) 0.74154(6)
C1_3 C 0.7086(2) 0.3711(4) 0.98757(10)
C2_3 C 0.7793(3) 0.3985(5) 0.99694(13)
C3_3 C 0.8318(3) 0.3282(5) 0.97795(15)
H5_3 H 0.8800 0.3446 0.9840
C4_3 C 0.8136(2) 0.2333(4) 0.94996(14)
H6_3 H 0.8493 0.1847 0.9366
C5_3 C 0.74212(18) 0.2090(3) 0.94135(9)
C6_3 C 0.71660(17) 0.1087(3) 0.91134(9)
C7_3 C 0.7630(2) 0.0316(4) 0.88813(11)
H7_3 H 0.8126 0.0418 0.8907
C10_3 C 0.6194(2) 0.0099(3) 0.88067(10)
H10_3 H 0.5698 0.0027 0.8776
C11_5 C 0.52949(13) 0.5001(2) 0.90688(7)
C12_3 C 0.50680(14) 0.5668(2) 0.94193(7)
H11_3 H 0.5085 0.5257 0.9674
C13_3 C 0.48187(14) 0.6953(2) 0.93748(7)
C14_3 C 0.45691(15) 0.7698(2) 0.97500(8)
C15_3 C 0.47957(16) 0.7564(2) 0.89879(8)
H12_3 H 0.4626 0.8439 0.8967
C16_3 C 0.50147(16) 0.6917(2) 0.86413(8)
H13_3 H 0.4996 0.7330 0.8387
C17_3 C 0.52683(13) 0.5602(2) 0.86879(7)
C18_3 C 0.69630(11) 0.5913(2) 0.77618(8)
C19_3 C 0.77520(11) 0.5880(2) 0.76515(7)
C20_3 C 0.80405(12) 0.4701(2) 0.74782(9)
H14_3 H 0.7734 0.3989 0.7420
C21_3 C 0.87572(12) 0.4575(2) 0.73938(9)
H15_3 H 0.8950 0.3783 0.7290
C22_3 C 0.91850(11) 0.5697(2) 0.74708(7)
C23_3 C 0.88985(11) 0.6874(2) 0.76283(7)
C24_3 C 0.81716(11) 0.6961(2) 0.77341(7)
H16_3 H 0.7983 0.7727 0.7856
O6_3 O 0.54453(13) 0.29946(19) 0.99288(6)
N9_3 N 0.55466(9) 0.27662(18) 0.76533(6)
N10_3 N 0.49020(9) 0.59167(17) 0.75846(6)
O2_3 O 0.00977(12) 0.8939(2) 0.43104(7)
H1_3 H 0.0489 0.8453 0.4304
H2_3 H 0.0147 0.9531 0.4506
O4_4 O 0.06182(13) 0.11195(19) 0.47301(6)
O5_4 O 0.04453(13) 0.29946(19) 0.50712(6)
C13_4 C 0.01813(14) 0.3047(2) 0.43748(7)
C14_4 C 0.04309(15) 0.2302(2) 0.47500(8)
C15_4 C 0.02043(16) 0.2436(2) 0.39879(8)
H12_4 H 0.0374 0.1561 0.3967
H13_4 H 0.0004 0.2670 0.3387
Zn3_4 Zn 0.080698(18) 0.22539(3) 0.558596(8)
N10_4 N 0.00980(9) 0.40833(17) 0.25846(6)
Zn1_4 Zn 0.919302(18) 0.77461(3) 0.441404(8)
Zn2_4 Zn 0.935700(11) 0.52828(2) 0.281088(7)
O1_4 O 0.84086(8) 0.50156(17) 0.25999(6)
O3_4 O 0.82675(10) 0.3240(2) 0.29956(7)
N1_4 N 0.85458(13) 0.9030(2) 0.40754(7)
N2_4 N 0.80985(14) 0.7225(2) 0.46021(7)
N3_4 N 0.94240(12) 0.62564(19) 0.40143(6)
N4_4 N 0.92946(11) 0.64159(19) 0.36192(6)
N5_4 N 0.94743(11) 0.53129(18) 0.34149(6)
N6_4 N 0.55466(9) 0.22338(18) 0.26533(6)
N7_3 N 0.49564(10) 0.28284(17) 0.25282(6)
N8_4 N 0.50980(9) 0.40833(17) 0.24154(6)
C1_4 C 0.7914(2) 0.6289(4) 0.48757(10)
H3_3 H 0.8275 0.5807 0.5007
C2_4 C 0.7207(3) 0.6015(5) 0.49694(13)
H4_3 H 0.7093 0.5357 0.5160
C3_4 C 0.6682(3) 0.6718(5) 0.47795(15)
H5_4 H 0.6200 0.6554 0.4840
C4_4 C 0.6864(2) 0.7667(4) 0.44996(14)
H6_4 H 0.6507 0.8153 0.4366
C5_4 C 0.75788(18) 0.7910(3) 0.44135(9)
C6_4 C 0.78340(17) 0.8913(3) 0.41134(9)
C7_4 C 0.7370(2) 0.9684(4) 0.38813(11)
H7_4 H 0.6874 0.9582 0.3907
C10_4 C 0.8806(2) 0.9901(3) 0.38067(10)
H10_4 H 0.9302 0.9973 0.3776
C11_6 C 0.97051(13) 0.4999(2) 0.40688(7)
C12_4 C 0.99320(14) 0.4332(2) 0.44193(7)
H11_4 H 0.9915 0.4743 0.4674
C16_4 C 0.99853(16) 0.3083(2) 0.36413(8)
C17_4 C 0.97317(13) 0.4398(2) 0.36879(7)
C18_4 C 0.80370(11) 0.4087(2) 0.27618(8)
C19_4 C 0.72480(11) 0.4120(2) 0.26515(7)
C20_4 C 0.69595(12) 0.5299(2) 0.24782(9)
H14_4 H 0.7266 0.6011 0.2420
C21_4 C 0.62428(12) 0.5425(2) 0.23938(9)
H15_4 H 0.6050 0.6217 0.2290
C22_4 C 0.58150(11) 0.4303(2) 0.24708(7)
C23_4 C 0.61015(11) 0.3126(2) 0.26283(7)
C24_4 C 0.68284(11) 0.3039(2) 0.27341(7)
H16_4 H 0.7017 0.2273 0.2856
O6_4 O 0.95547(13) 0.70054(19) 0.49288(6)
N9_4 N 0.94534(9) 0.72338(18) 0.26533(6)
O4_5 O 0.06182(13) 0.38805(19) 0.97301(6)
C13_5 C 0.01813(14) 0.1953(2) 0.93748(7)
C14_5 C 0.04309(15) 0.2698(2) 0.97500(8)
C15_5 C 0.02043(16) 0.2564(2) 0.89879(8)
H12_5 H 0.0374 0.3439 0.8967
H13_5 H 0.0004 0.2330 0.8387
O3_5 O 0.82675(10) 0.1760(2) 0.79956(7)
N7_4 N 0.49564(10) 0.21716(17) 0.75282(6)
C11_7 C 0.97051(13) 0.0001(2) 0.90688(7)
C12_5 C 0.99320(14) 0.0668(2) 0.94193(7)
H11_5 H 0.9915 0.0257 0.9674
C16_5 C 0.99853(16) 0.1917(2) 0.86413(8)
C17_5 C 0.97317(13) 0.0602(2) 0.86879(7)
C18_5 C 0.80370(11) 0.0913(2) 0.77618(8)
C19_5 C 0.72480(11) 0.0880(2) 0.76515(7)
C22_5 C 0.58150(11) 0.0697(2) 0.74708(7)
C23_5 C 0.61015(11) 0.1874(2) 0.76283(7)
C24_5 C 0.68284(11) 0.1961(2) 0.77341(7)
H16_5 H 0.7017 0.2727 0.7856
O1_5 O 0.84086(8) 0.99844(17) 0.75999(6)
N1_5 N 0.85458(13) 0.5970(2) 0.90754(7)
N2_5 N 0.80985(14) 0.7775(2) 0.96021(7)
N3_5 N 0.94240(12) 0.87436(19) 0.90143(6)
N4_5 N 0.92946(11) 0.85841(19) 0.86192(6)
N5_5 N 0.94743(11) 0.96871(18) 0.84149(6)
C1_5 C 0.7914(2) 0.8711(4) 0.98757(10)
C2_5 C 0.7207(3) 0.8985(5) 0.99694(13)
C3_5 C 0.6682(3) 0.8282(5) 0.97795(15)
H5_5 H 0.6200 0.8446 0.9840
C4_5 C 0.6864(2) 0.7333(4) 0.94996(14)
H6_5 H 0.6507 0.6847 0.9366
C5_5 C 0.75788(18) 0.7090(3) 0.94135(9)
C6_5 C 0.78340(17) 0.6087(3) 0.91134(9)
C7_5 C 0.7370(2) 0.5316(4) 0.88813(11)
H7_5 H 0.6874 0.5418 0.8907
C8_3 C 0.7647(2) 0.4408(4) 0.86153(11)
H8_3 H 0.7340 0.3864 0.8464
C9_3 C 0.8366(2) 0.4292(3) 0.85699(10)
H9_3 H 0.8561 0.3686 0.8384
C10_5 C 0.8806(2) 0.5099(3) 0.88067(10)
H10_5 H 0.9302 0.5027 0.8776
C11_8 C 0.97051(13) 1.0001(2) 0.90688(7)
C20_5 C 0.69595(12) 0.9701(2) 0.74782(9)
H14_5 H 0.7266 0.8989 0.7420
C21_5 C 0.62428(12) 0.9575(2) 0.73938(9)
H15_5 H 0.6050 0.8783 0.7290
O1_6 O 0.65914(8) 0.00156(17) 0.25999(6)
O2_4 O 0.49023(12) 0.3939(2) 0.43104(7)
H1_4 H 0.4511 0.3453 0.4304
H2_4 H 0.4853 0.4531 0.4506
N1_6 N 0.64542(13) 0.4030(2) 0.40754(7)
N2_6 N 0.69015(14) 0.2225(2) 0.46021(7)
N3_6 N 0.55760(12) 0.12564(19) 0.40143(6)
N4_6 N 0.57054(11) 0.14159(19) 0.36192(6)
N5_6 N 0.55257(11) 0.03129(18) 0.34149(6)
C1_6 C 0.7086(2) 0.1289(4) 0.48757(10)
H3_4 H 0.6725 0.0807 0.5007
C2_6 C 0.7793(3) 0.1015(5) 0.49694(13)
H4_4 H 0.7907 0.0357 0.5160
C3_6 C 0.8318(3) 0.1718(5) 0.47795(15)
H5_6 H 0.8800 0.1554 0.4840
C4_6 C 0.8136(2) 0.2667(4) 0.44996(14)
H6_6 H 0.8493 0.3153 0.4366
C5_6 C 0.74212(18) 0.2910(3) 0.44135(9)
C6_6 C 0.71660(17) 0.3913(3) 0.41134(9)
C7_6 C 0.7630(2) 0.4684(4) 0.38813(11)
H7_6 H 0.8126 0.4582 0.3907
C8_4 C 0.7353(2) 0.5592(4) 0.36153(11)
H8_4 H 0.7660 0.6136 0.3464
C9_4 C 0.6634(2) 0.5708(3) 0.35699(10)
H9_4 H 0.6439 0.6314 0.3384
C10_6 C 0.6194(2) 0.4901(3) 0.38067(10)
H10_6 H 0.5698 0.4973 0.3776
C11_9 C 0.52949(13) -0.0001(2) 0.40688(7)
C20_6 C 0.80405(12) 0.0299(2) 0.24782(9)
H14_6 H 0.7734 0.1011 0.2420
C21_6 C 0.87572(12) 0.0425(2) 0.23938(9)
H15_6 H 0.8950 0.1217 0.2290
O3_6 O 0.67325(10) 0.8240(2) 0.29956(7)
O4_6 O 0.43818(13) 0.61195(19) 0.47301(6)
C11_10 C 0.52949(13) 0.9999(2) 0.40688(7)
C12_6 C 0.50680(14) 0.9332(2) 0.44193(7)
H11_6 H 0.5085 0.9743 0.4674
C13_6 C 0.48187(14) 0.8047(2) 0.43748(7)
C14_6 C 0.45691(15) 0.7302(2) 0.47500(8)
C15_6 C 0.47957(16) 0.7436(2) 0.39879(8)
H12_6 H 0.4626 0.6561 0.3967
C16_6 C 0.50147(16) 0.8083(2) 0.36413(8)
H13_6 H 0.4996 0.7670 0.3387
C17_6 C 0.52683(13) 0.9398(2) 0.36879(7)
C18_6 C 0.69630(11) 0.9087(2) 0.27618(8)
C19_6 C 0.77520(11) 0.9120(2) 0.26515(7)
C22_6 C 0.91850(11) 0.9303(2) 0.24708(7)
C23_6 C 0.88985(11) 0.8126(2) 0.26283(7)
C24_6 C 0.81716(11) 0.8039(2) 0.27341(7)
H16_6 H 0.7983 0.7273 0.2856
O1_7 O 0.34086(8) 0.50156(17) 0.24001(6)
O2_5 O 0.50977(12) 0.8939(2) 0.06896(7)
H1_5 H 0.5489 0.8453 0.0696
H2_5 H 0.5147 0.9531 0.0494
O3_7 O 0.32675(10) 0.3240(2) 0.20044(7)
O4_7 O 0.56182(13) 0.11195(19) 0.02699(6)
N1_7 N 0.35458(13) 0.9030(2) 0.09246(7)
N2_7 N 0.30985(14) 0.7225(2) 0.03979(7)
N3_7 N 0.44240(12) 0.62564(19) 0.09857(6)
N4_7 N 0.42946(11) 0.64159(19) 0.13808(6)
N5_7 N 0.44743(11) 0.53129(18) 0.15851(6)
C1_7 C 0.2914(2) 0.6289(4) 0.01243(10)
C2_7 C 0.2207(3) 0.6015(5) 0.00306(13)
C3_7 C 0.1682(3) 0.6718(5) 0.02205(15)
H5_7 H 0.1200 0.6554 0.0160
C4_7 C 0.1864(2) 0.7667(4) 0.05004(14)
H6_7 H 0.1507 0.8153 0.0634
C5_7 C 0.25788(18) 0.7910(3) 0.05865(9)
C6_7 C 0.28340(17) 0.8913(3) 0.08866(9)
C7_7 C 0.2370(2) 0.9684(4) 0.11187(11)
H7_7 H 0.1874 0.9582 0.1093
C10_7 C 0.3806(2) 0.9901(3) 0.11933(10)
H10_7 H 0.4302 0.9973 0.1224
C11_11 C 0.47051(13) 0.4999(2) 0.09312(7)
C12_7 C 0.49320(14) 0.4332(2) 0.05807(7)
H11_7 H 0.4915 0.4743 0.0326
C13_7 C 0.51813(14) 0.3047(2) 0.06252(7)
C14_7 C 0.54309(15) 0.2302(2) 0.02500(8)
C15_7 C 0.52043(16) 0.2436(2) 0.10121(8)
H12_7 H 0.5374 0.1561 0.1033
C16_7 C 0.49853(16) 0.3083(2) 0.13587(8)
H13_7 H 0.5004 0.2670 0.1613
C17_7 C 0.47317(13) 0.4398(2) 0.13121(7)
C18_7 C 0.30370(11) 0.4087(2) 0.22382(8)
C19_7 C 0.22480(11) 0.4120(2) 0.23485(7)
C20_7 C 0.19595(12) 0.5299(2) 0.25218(9)
H14_7 H 0.2266 0.6011 0.2580
C21_7 C 0.12428(12) 0.5425(2) 0.26062(9)
H15_7 H 0.1050 0.6217 0.2710
C22_7 C 0.08150(11) 0.4303(2) 0.25292(7)
C23_7 C 0.11015(11) 0.3126(2) 0.23717(7)
C24_7 C 0.18284(11) 0.3039(2) 0.22659(7)
H16_7 H 0.2017 0.2273 0.2144
H3_5 H 0.3275 0.5807 0.9993
H4_5 H 0.2093 0.5357 0.9840
N7_5 N 0.99564(10) 0.28284(17) 0.24718(6)
O1_8 O 0.15914(8) 0.49844(17) 0.74001(6)
O3_8 O 0.17325(10) 0.6760(2) 0.70044(7)
N1_8 N 0.14542(13) 0.0970(2) 0.59246(7)
N2_8 N 0.19015(14) 0.2775(2) 0.53979(7)
N3_8 N 0.05760(12) 0.37436(19) 0.59857(6)
N4_8 N 0.07054(11) 0.35841(19) 0.63808(6)
N5_8 N 0.05257(11) 0.46871(18) 0.65851(6)
N7_6 N 0.50436(10) 0.71716(17) 0.74718(6)
C1_8 C 0.2086(2) 0.3711(4) 0.51243(10)
H3_6 H 0.1725 0.4193 0.4993
C2_8 C 0.2793(3) 0.3985(5) 0.50306(13)
H4_6 H 0.2907 0.4643 0.4840
C3_8 C 0.3318(3) 0.3282(5) 0.52205(15)
H5_8 H 0.3800 0.3446 0.5160
C4_8 C 0.3136(2) 0.2333(4) 0.55004(14)
H6_8 H 0.3493 0.1847 0.5634
C5_8 C 0.24212(18) 0.2090(3) 0.55865(9)
C6_8 C 0.21660(17) 0.1087(3) 0.58866(9)
C7_8 C 0.2630(2) 0.0316(4) 0.61187(11)
H7_8 H 0.3126 0.0418 0.6093
C10_8 C 0.1194(2) 0.0099(3) 0.61933(10)
H10_8 H 0.0698 0.0027 0.6224
C11_12 C 0.02949(13) 0.5001(2) 0.59312(7)
C12_8 C 0.00680(14) 0.5668(2) 0.55807(7)
H11_8 H 0.0085 0.5257 0.5326
C16_8 C 0.00147(16) 0.6917(2) 0.63587(8)
C17_8 C 0.02683(13) 0.5602(2) 0.63121(7)
C18_8 C 0.19630(11) 0.5913(2) 0.72382(8)
C19_8 C 0.27520(11) 0.5880(2) 0.73485(7)
C20_8 C 0.30405(12) 0.4701(2) 0.75218(9)
H14_8 H 0.2734 0.3989 0.7580
C21_8 C 0.37572(12) 0.4575(2) 0.76062(9)
H15_8 H 0.3950 0.3783 0.7710
C22_8 C 0.41850(11) 0.5697(2) 0.75292(7)
C23_8 C 0.38985(11) 0.6874(2) 0.73717(7)
C24_8 C 0.31716(11) 0.6961(2) 0.72659(7)
H16_8 H 0.2983 0.7727 0.7144
O2_6 O 0.99023(12) 0.1061(2) 0.56896(7)
H1_6 H 0.9511 0.1547 0.5696
H2_6 H 0.9853 0.0469 0.5494
O4_8 O 0.93818(13) 0.88805(19) 0.52699(6)
C13_8 C 0.98187(14) 0.6953(2) 0.56252(7)
C14_8 C 0.95691(15) 0.7698(2) 0.52500(8)
C15_8 C 0.97957(16) 0.7564(2) 0.60121(8)
H12_8 H 0.9626 0.8439 0.6033
H13_8 H 0.9996 0.7330 0.6613
H3_7 H 0.1725 0.0807 0.9993
H4_7 H 0.2907 0.0357 0.9840
O2_7 O 0.99023(12) 0.3939(2) 0.06896(7)
H1_7 H 0.9511 0.3453 0.0696
H2_7 H 0.9853 0.4531 0.0494
N7_7 N 0.99564(10) 0.21716(17) 0.74718(6)
C8_5 C 0.7353(2) 0.9408(4) 0.86153(11)
H8_5 H 0.7660 0.8864 0.8464
C9_5 C 0.6634(2) 0.9292(3) 0.85699(10)
H9_5 H 0.6439 0.8686 0.8384
C8_6 C 0.7647(2) 0.0592(4) 0.36153(11)
H8_6 H 0.7340 0.1136 0.3464
C9_6 C 0.8366(2) 0.0708(3) 0.35699(10)
H9_6 H 0.8561 0.1314 0.3384
O2_8 O 0.00977(12) 0.6061(2) 0.93104(7)
H1_8 H 0.0489 0.6547 0.9304
H2_8 H 0.0147 0.5469 0.9506
H3_8 H 0.8275 0.9193 0.0007
H4_8 H 0.7093 0.9643 0.0160
N7_8 N 0.00436(10) 0.78284(17) 0.25282(6)
C8_7 C 0.2647(2) 0.0592(4) 0.13847(11)
H8_7 H 0.2340 0.1136 0.1536
C9_7 C 0.3366(2) 0.0708(3) 0.14301(10)
H9_7 H 0.3561 0.1314 0.1616
C8_8 C 0.2353(2) 0.9408(4) 0.63847(11)
H8_8 H 0.2660 0.8864 0.6536
C9_8 C 0.1634(2) 0.9292(3) 0.64301(10)
H9_8 H 0.1439 0.8686 0.6616
loop_
_geom_bond_atom_site_label_1
_geom_bond_atom_site_label_2
_geom_bond_site_symmetry_1
_geom_bond_site_symmetry_2
Zn2 O1 1_555 1_555
N1 Zn1 1_555 1_555
N2 Zn1 1_555 1_555
N3 Zn1 1_555 1_555
N4 N3 1_555 1_555
N5 Zn2 1_555 1_555
C1 N2 1_555 1_555
C2 C1 1_555 1_555
C3 C2 1_555 1_555
H5 C3 1_555 1_555
C4 C3 1_555 1_555
H6 C4 1_555 1_555
C5 N2 1_555 1_555
C6 N1 1_555 1_555
C7 C6 1_555 1_555
H7 C7 1_555 1_555
C8 C7 1_555 1_555
H8 C8 1_555 1_555
C9 C8 1_555 1_555
H9 C9 1_555 1_555
C10 N1 1_555 1_555
H10 C10 1_555 1_555
C11 N3 1_555 1_555
C20 H14 1_555 1_555
C21 C20 1_555 1_555
H15 C21 1_555 1_555
O6 Zn1 1_555 1_555
N9 Zn2 1_555 1_555
N4 N5 1_555 1_555
C4 C5 1_555 1_555
C5 C6 1_555 1_555
C9 C10 1_555 1_555
O3 C18 1_555 1_555
N6 N7 1_555 1_555
N7 N8 1_555 1_555
N8 C22 1_555 1_555
C12 C11_2 1_555 1_555
H11 C12 1_555 1_555
C18 C19 1_555 1_555
C23 N6 1_555 1_555
C24 C19 1_555 1_555
H16 C24 1_555 1_555
Zn5 N6 1_555 1_555
C11_2 C17 1_555 1_555
C16 C17 1_555 1_555
C22 C23 1_555 1_555
C23 C24 1_555 1_555
O4 C14 1_555 1_555
C14 C13 1_555 1_555
C15 C13 1_555 1_555
H12 C15 1_555 1_555
Zn3 O5 1_555 1_555
O3_2 C18_2 1_555 1_555
O4_2 C14_2 1_555 1_555
O5_2 C14_2 1_555 1_555
N8_2 C22_2 1_555 1_555
C12_2 C11_3 1_555 1_555
H11_2 C12_2 1_555 1_555
C13_2 C12_2 1_555 1_555
C14_2 C13_2 1_555 1_555
C15_2 C13_2 1_555 1_555
H12_2 C15_2 1_555 1_555
C16_2 C15_2 1_555 1_555
H13_2 C16_2 1_555 1_555
C18_2 C19_2 1_555 1_555
C23_2 N6_2 1_555 1_555
C24_2 C19_2 1_555 1_555
H16_2 C24_2 1_555 1_555
Zn3_2 O5_2 1_555 1_555
Zn5_2 N6_2 1_555 1_555
C11_3 C17_2 1_555 1_555
C16_2 C17_2 1_555 1_555
C22_2 C23_2 1_555 1_555
C23_2 C24_2 1_555 1_555
Zn1_2 O2 1_555 1_555
Zn2_2 O1_2 1_555 1_555
O2 H1 1_555 1_555
H2 O2 1_555 1_555
N1_2 Zn1_2 1_555 1_555
N2_2 Zn1_2 1_555 1_555
N3_2 Zn1_2 1_555 1_555
N4_2 N3_2 1_555 1_555
N5_2 Zn2_2 1_555 1_555
C1_2 N2_2 1_555 1_555
H3 C1_2 1_555 1_555
C2_2 C1_2 1_555 1_555
H4 C2_2 1_555 1_555
C3_2 C2_2 1_555 1_555
H5_2 C3_2 1_555 1_555
C4_2 C3_2 1_555 1_555
H6_2 C4_2 1_555 1_555
C5_2 N2_2 1_555 1_555
C6_2 N1_2 1_555 1_555
C7_2 C6_2 1_555 1_555
H7_2 C7_2 1_555 1_555
C8_2 C7_2 1_555 1_555
H8_2 C8_2 1_555 1_555
C9_2 C8_2 1_555 1_555
H9_2 C9_2 1_555 1_555
C10_2 N1_2 1_555 1_555
H10_2 C10_2 1_555 1_555
C11_4 N3_2 1_555 1_555
C20_2 H14_2 1_555 1_555
C21_2 C20_2 1_555 1_555
H15_2 C21_2 1_555 1_555
O6_2 Zn1_2 1_555 1_555
N9_2 Zn2_2 1_555 1_555
N4_2 N5_2 1_555 1_555
C4_2 C5_2 1_555 1_555
C5_2 C6_2 1_555 1_555
C9_2 C10_2 1_555 1_555
Zn3_3 O5_3 1_555 1_555
Zn1_3 O2_2 1_555 1_555
Zn2_3 O1_3 1_555 1_555
O1_3 C18_3 1_555 1_555
O2_2 H1_2 1_555 1_555
H2_2 O2_2 1_555 1_555
O3_3 C18_3 1_555 1_555
O4_3 C14_3 1_555 1_555
N1_3 Zn1_3 1_555 1_555
N2_3 Zn1_3 1_555 1_555
N3_3 Zn1_3 1_555 1_555
N4_3 N3_3 1_555 1_555
N5_3 Zn2_3 1_555 1_555
N8_3 C22_3 1_555 1_555
C1_3 N2_3 1_555 1_555
C2_3 C1_3 1_555 1_555
C3_3 C2_3 1_555 1_555
H5_3 C3_3 1_555 1_555
C4_3 C3_3 1_555 1_555
H6_3 C4_3 1_555 1_555
C5_3 N2_3 1_555 1_555
C6_3 N1_3 1_555 1_555
C7_3 C6_3 1_555 1_555
H7_3 C7_3 1_555 1_555
C10_3 N1_3 1_555 1_555
H10_3 C10_3 1_555 1_555
C11_5 N3_3 1_555 1_555
C12_3 C11_5 1_555 1_555
H11_3 C12_3 1_555 1_555
C13_3 C12_3 1_555 1_555
C14_3 C13_3 1_555 1_555
C15_3 C13_3 1_555 1_555
H12_3 C15_3 1_555 1_555
C16_3 C15_3 1_555 1_555
H13_3 C16_3 1_555 1_555
C17_3 N5_3 1_555 1_555
C18_3 C19_3 1_555 1_555
C19_3 C20_3 1_555 1_555
C20_3 H14_3 1_555 1_555
C21_3 C20_3 1_555 1_555
H15_3 C21_3 1_555 1_555
C22_3 C21_3 1_555 1_555
C23_3 N6_3 1_555 1_555
C24_3 C19_3 1_555 1_555
H16_3 C24_3 1_555 1_555
Zn4_2 N6_3 1_555 1_555
O6_3 Zn1_3 1_555 1_555
N9_3 Zn2_3 1_555 1_555
N10_3 Zn2_3 1_555 1_555
N4_3 N5_3 1_555 1_555
C4_3 C5_3 1_555 1_555
C5_3 C6_3 1_555 1_555
C11_5 C17_3 1_555 1_555
C16_3 C17_3 1_555 1_555
C22_3 C23_3 1_555 1_555
C23_3 C24_3 1_555 1_555
O2_3 H1_3 1_555 1_555
H2_3 O2_3 1_555 1_555
O4_4 C14_4 1_555 1_555
O5_4 C14_4 1_555 1_555
C14_4 C13_4 1_555 1_555
C15_4 C13_4 1_555 1_555
H12_4 C15_4 1_555 1_555
Zn3_4 O5_4 1_555 1_555
Zn2_4 O1_4 1_555 1_555
O1_4 C18_4 1_555 1_555
O3_4 C18_4 1_555 1_555
N1_4 Zn1_4 1_555 1_555
N2_4 Zn1_4 1_555 1_555
N3_4 Zn1_4 1_555 1_555
N4_4 N3_4 1_555 1_555
N5_4 Zn2_4 1_555 1_555
N6_4 N7_3 1_555 1_555
N7_3 N8_4 1_555 1_555
N8_4 C22_4 1_555 1_555
C1_4 N2_4 1_555 1_555
H3_3 C1_4 1_555 1_555
C2_4 C1_4 1_555 1_555
H4_3 C2_4 1_555 1_555
C3_4 C2_4 1_555 1_555
H5_4 C3_4 1_555 1_555
C4_4 C3_4 1_555 1_555
H6_4 C4_4 1_555 1_555
C5_4 N2_4 1_555 1_555
C6_4 N1_4 1_555 1_555
C7_4 C6_4 1_555 1_555
H7_4 C7_4 1_555 1_555
C10_4 N1_4 1_555 1_555
H10_4 C10_4 1_555 1_555
C11_6 N3_4 1_555 1_555
C12_4 C11_6 1_555 1_555
H11_4 C12_4 1_555 1_555
C17_4 N5_4 1_555 1_555
C18_4 C19_4 1_555 1_555
C19_4 C20_4 1_555 1_555
C20_4 H14_4 1_555 1_555
C21_4 C20_4 1_555 1_555
H15_4 C21_4 1_555 1_555
C22_4 C21_4 1_555 1_555
C23_4 N6_4 1_555 1_555
C24_4 C19_4 1_555 1_555
H16_4 C24_4 1_555 1_555
Zn5 N8_4 1_555 1_555
Zn4 N6_4 1_555 1_555
O6_4 Zn1_4 1_555 1_555
N9_4 Zn2_4 1_555 1_555
N4_4 N5_4 1_555 1_555
C4_4 C5_4 1_555 1_555
C5_4 C6_4 1_555 1_555
C11_6 C17_4 1_555 1_555
C16_4 C17_4 1_555 1_555
C22_4 C23_4 1_555 1_555
C23_4 C24_4 1_555 1_555
O4_5 C14_5 1_555 1_555
C14_5 C13_5 1_555 1_555
C15_5 C13_5 1_555 1_555
H12_5 C15_5 1_555 1_555
O3_5 C18_5 1_555 1_555
N9_3 N7_4 1_555 1_555
N7_4 N10_2 1_555 1_555
N10_2 C22_5 1_555 1_555
C12_5 C11_7 1_555 1_555
H11_5 C12_5 1_555 1_555
C18_5 C19_5 1_555 1_555
C23_5 N9_3 1_555 1_555
C24_5 C19_5 1_555 1_555
H16_5 C24_5 1_555 1_555
C11_7 C17_5 1_555 1_555
C16_5 C17_5 1_555 1_555
C22_5 C23_5 1_555 1_555
C23_5 C24_5 1_555 1_555
Zn4_2 O1_5 1_555 1_555
N1_5 Zn3 1_555 1_555
N2_5 Zn3 1_555 1_555
N3_5 Zn3 1_555 1_555
N4_5 N3_5 1_555 1_555
N5_5 Zn4_2 1_555 1_555
C1_5 N2_5 1_555 1_555
C2_5 C1_5 1_555 1_555
C3_5 C2_5 1_555 1_555
H5_5 C3_5 1_555 1_555
C4_5 C3_5 1_555 1_555
H6_5 C4_5 1_555 1_555
C5_5 N2_5 1_555 1_555
C6_5 N1_5 1_555 1_555
C7_5 C6_5 1_555 1_555
H7_5 C7_5 1_555 1_555
C8_3 C7_5 1_555 1_555
H8_3 C8_3 1_555 1_555
C9_3 C8_3 1_555 1_555
H9_3 C9_3 1_555 1_555
C10_5 N1_5 1_555 1_555
H10_5 C10_5 1_555 1_555
C11_8 N3_5 1_555 1_555
C20_5 H14_5 1_555 1_555
C21_5 C20_5 1_555 1_555
H15_5 C21_5 1_555 1_555
N4_5 N5_5 1_555 1_555
C4_5 C5_5 1_555 1_555
C5_5 C6_5 1_555 1_555
C9_3 C10_5 1_555 1_555
Zn3_2 O2_4 1_555 1_555
Zn4 O1_6 1_555 1_555
O2_4 H1_4 1_555 1_555
H2_4 O2_4 1_555 1_555
N1_6 Zn3_2 1_555 1_555
N2_6 Zn3_2 1_555 1_555
N3_6 Zn3_2 1_555 1_555
N4_6 N3_6 1_555 1_555
N5_6 Zn4 1_555 1_555
C1_6 N2_6 1_555 1_555
H3_4 C1_6 1_555 1_555
C2_6 C1_6 1_555 1_555
H4_4 C2_6 1_555 1_555
C3_6 C2_6 1_555 1_555
H5_6 C3_6 1_555 1_555
C4_6 C3_6 1_555 1_555
H6_6 C4_6 1_555 1_555
C5_6 N2_6 1_555 1_555
C6_6 N1_6 1_555 1_555
C7_6 C6_6 1_555 1_555
H7_6 C7_6 1_555 1_555
C8_4 C7_6 1_555 1_555
H8_4 C8_4 1_555 1_555
C9_4 C8_4 1_555 1_555
H9_4 C9_4 1_555 1_555
C10_6 N1_6 1_555 1_555
H10_6 C10_6 1_555 1_555
C11_9 N3_6 1_555 1_555
C20_6 H14_6 1_555 1_555
C21_6 C20_6 1_555 1_555
H15_6 C21_6 1_555 1_555
N4_6 N5_6 1_555 1_555
C4_6 C5_6 1_555 1_555
C5_6 C6_6 1_555 1_555
C9_4 C10_6 1_555 1_555
O3_6 C18_6 1_555 1_555
O4_6 C14_6 1_555 1_555
O6_2 C14_6 1_555 1_555
N10 C22_6 1_555 1_555
C12_6 C11_10 1_555 1_555
H11_6 C12_6 1_555 1_555
C13_6 C12_6 1_555 1_555
C14_6 C13_6 1_555 1_555
C15_6 C13_6 1_555 1_555
H12_6 C15_6 1_555 1_555
C16_6 C15_6 1_555 1_555
H13_6 C16_6 1_555 1_555
C18_6 C19_6 1_555 1_555
C23_6 N9_4 1_555 1_555
C24_6 C19_6 1_555 1_555
H16_6 C24_6 1_555 1_555
C11_10 C17_6 1_555 1_555
C16_6 C17_6 1_555 1_555
C22_6 C23_6 1_555 1_555
C23_6 C24_6 1_555 1_555
Zn3_3 O2_5 1_555 1_555
Zn5 O1_7 1_555 1_555
O1_7 C18_7 1_555 1_555
O2_5 H1_5 1_555 1_555
H2_5 O2_5 1_555 1_555
O3_7 C18_7 1_555 1_555
O4_7 C14_7 1_555 1_555
N1_7 Zn3_3 1_555 1_555
N2_7 Zn3_3 1_555 1_555
N3_7 Zn3_3 1_555 1_555
N4_7 N3_7 1_555 1_555
N5_7 Zn5 1_555 1_555
N10_4 C22_7 1_555 1_555
C1_7 N2_7 1_555 1_555
C2_7 C1_7 1_555 1_555
C3_7 C2_7 1_555 1_555
H5_7 C3_7 1_555 1_555
C4_7 C3_7 1_555 1_555
H6_7 C4_7 1_555 1_555
C5_7 N2_7 1_555 1_555
C6_7 N1_7 1_555 1_555
C7_7 C6_7 1_555 1_555
H7_7 C7_7 1_555 1_555
C10_7 N1_7 1_555 1_555
H10_7 C10_7 1_555 1_555
C11_11 N3_7 1_555 1_555
C12_7 C11_11 1_555 1_555
H11_7 C12_7 1_555 1_555
C13_7 C12_7 1_555 1_555
C14_7 C13_7 1_555 1_555
C15_7 C13_7 1_555 1_555
H12_7 C15_7 1_555 1_555
C16_7 C15_7 1_555 1_555
H13_7 C16_7 1_555 1_555
C17_7 N5_7 1_555 1_555
C18_7 C19_7 1_555 1_555
C19_7 C20_7 1_555 1_555
C20_7 H14_7 1_555 1_555
C21_7 C20_7 1_555 1_555
H15_7 C21_7 1_555 1_555
C22_7 C21_7 1_555 1_555
C23_7 N9 1_555 1_555
C24_7 C19_7 1_555 1_555
H16_7 C24_7 1_555 1_555
N4_7 N5_7 1_555 1_555
C4_7 C5_7 1_555 1_555
C5_7 C6_7 1_555 1_555
C11_11 C17_7 1_555 1_555
C16_7 C17_7 1_555 1_555
C22_7 C23_7 1_555 1_555
C23_7 C24_7 1_555 1_555
Zn5_2 O1_8 1_555 1_555
O1_8 C18_8 1_555 1_555
O3_8 C18_8 1_555 1_555
N1_8 Zn3_4 1_555 1_555
N2_8 Zn3_4 1_555 1_555
N3_8 Zn3_4 1_555 1_555
N4_8 N3_8 1_555 1_555
N5_8 Zn5_2 1_555 1_555
N9_2 N7_6 1_555 1_555
N7_6 N10_3 1_555 1_555
N10_3 C22_8 1_555 1_555
C1_8 N2_8 1_555 1_555
H3_6 C1_8 1_555 1_555
C2_8 C1_8 1_555 1_555
H4_6 C2_8 1_555 1_555
C3_8 C2_8 1_555 1_555
H5_8 C3_8 1_555 1_555
C4_8 C3_8 1_555 1_555
H6_8 C4_8 1_555 1_555
C5_8 N2_8 1_555 1_555
C6_8 N1_8 1_555 1_555
C7_8 C6_8 1_555 1_555
H7_8 C7_8 1_555 1_555
C10_8 N1_8 1_555 1_555
H10_8 C10_8 1_555 1_555
C11_12 N3_8 1_555 1_555
C12_8 C11_12 1_555 1_555
H11_8 C12_8 1_555 1_555
C17_8 N5_8 1_555 1_555
C18_8 C19_8 1_555 1_555
C19_8 C20_8 1_555 1_555
C20_8 H14_8 1_555 1_555
C21_8 C20_8 1_555 1_555
H15_8 C21_8 1_555 1_555
C22_8 C21_8 1_555 1_555
C23_8 N9_2 1_555 1_555
C24_8 C19_8 1_555 1_555
H16_8 C24_8 1_555 1_555
N4_8 N5_8 1_555 1_555
C4_8 C5_8 1_555 1_555
C5_8 C6_8 1_555 1_555
C11_12 C17_8 1_555 1_555
C16_8 C17_8 1_555 1_555
C22_8 C23_8 1_555 1_555
C23_8 C24_8 1_555 1_555
O2_6 H1_6 1_555 1_555
H2_6 O2_6 1_555 1_555
O4_8 C14_8 1_555 1_555
O6_4 C14_8 1_555 1_555
C14_8 C13_8 1_555 1_555
C15_8 C13_8 1_555 1_555
H12_8 C15_8 1_555 1_555
O2_7 H1_7 1_555 1_555
H2_7 O2_7 1_555 1_555
H8_5 C8_5 1_555 1_555
C9_5 C8_5 1_555 1_555
H9_5 C9_5 1_555 1_555
H8_6 C8_6 1_555 1_555
C9_6 C8_6 1_555 1_555
H9_6 C9_6 1_555 1_555
O2_8 H1_8 1_555 1_555
H2_8 O2_8 1_555 1_555
H8_7 C8_7 1_555 1_555
C9_7 C8_7 1_555 1_555
H9_7 C9_7 1_555 1_555
H8_8 C8_8 1_555 1_555
C9_8 C8_8 1_555 1_555
H9_8 C9_8 1_555 1_555

#END
