
###############################################################################
#
# This file contains modified crystal structure data generated from the
# MOF subset of the Cambridge Structural Database (CSD) v543 
# hosted by the Cambridge Crystallographic Data Centre (CCDC).
#
# This work is licensed under the Creative Commons
# Attribution-NonCommercial-ShareAlike 4.0 International License.
# To view a copy of this license, visit
# http://creativecommons.org/licenses/by-nc-sa/4.0/
# or send a letter to
# Creative Commons, PO Box 1866, Mountain View, CA 94042, USA.
#
# CIF created using the CSD Python API on 29 September 2022
# The structure has been converted into the P1 space group
# The structure has a 3D framework
# The original CSD entry IPINEC is in the orthorhombic crystal system
# The framework has been calculated to contain at least 10.0% void space
# The void calculation uses a probe of radius 1.32A, grid spacing 0.4
#
###############################################################################

data_IPINEC
_chemical_formula_moiety         '(C208 H148 Co8 N32 O36)n'
_symmetry_cell_setting           triclinic
_symmetry_space_group_name_H-M   'P 1'
_symmetry_Int_Tables_number      1
_space_group_name_Hall           'P 1'
loop_
_symmetry_equiv_pos_site_id
_symmetry_equiv_pos_as_xyz
1 x,y,z
_cell_length_a                   21.638(5)
_cell_length_b                   20.983(5)
_cell_length_c                   12.364(5)
_cell_angle_alpha                90
_cell_angle_beta                 90
_cell_angle_gamma                90
_cell_volume                     5613.63
loop_
_atom_site_label
_atom_site_type_symbol
_atom_site_fract_x
_atom_site_fract_y
_atom_site_fract_z
C16 C 0.11410(14) 0.01121(14) 0.2603(2)
H8 H 0.0824 0.0401 0.2470
N3 N 0.07871(14) 0.03592(16) 0.0443(2)
C20 C 0.12566(17) 0.00031(16) 0.0622(2)
Co2 Co 0.082309(15) 0.049492(17) 0.49106(3)
Co3 Co 0.417691(15) 0.549492(17) 0.00894(3)
O1 O 0.38036(11) 0.29133(12) 0.50607(15)
O2 O 0.41512(8) 0.46966(9) 0.91715(15)
O3 O 0.17007(8) 0.08065(10) 0.56263(17)
O4 O 0.51159(8) 0.43572(10) 0.88964(15)
O5 O 0.13050(9) 0.13610(10) 0.43106(18)
C1 C 0.37555(12) 0.40618(13) 0.7303(2)
H1 H 0.3490 0.4367 0.7590
C2 C 0.43392(11) 0.39735(12) 0.77505(19)
C3 C 0.32811(13) 0.25267(15) 0.5098(2)
C4 C 0.17302(12) 0.12731(14) 0.4986(2)
N1 N 0.03254(10) 0.09858(11) 0.61717(18)
C5 C 0.22718(13) 0.17185(13) 0.5033(2)
C6 C 0.39571(13) 0.32489(13) 0.6009(2)
C8 C 0.45494(12) 0.43712(11) 0.86839(19)
C9 C 0.04369(13) 0.08255(14) 0.7200(2)
H2 H 0.0765 0.0551 0.7338
C10 C 0.35677(13) 0.36946(14) 0.6426(2)
H3 H 0.3178 0.3754 0.6126
C11 C 0.00958(15) 0.10418(15) 0.8072(2)
C12 C 0.23783(13) 0.21457(14) 0.4200(2)
H4 H 0.2106 0.2163 0.3619
C13 C 0.31828(14) 0.21115(15) 0.5934(2)
H5 H 0.3451 0.2102 0.6522
C14 C 0.28877(15) 0.25492(14) 0.4220(2)
H6 H 0.2962 0.2830 0.3653
C15 C 0.47183(13) 0.35118(14) 0.7317(2)
H7 H 0.5106 0.3444 0.7621
C17 C 0.26763(13) 0.17032(14) 0.5893(2)
H9 H 0.2610 0.1416 0.6454
C19 C 0.45351(14) 0.31459(14) 0.6440(2)
H11 H 0.4797 0.2838 0.6150
N4 N 0.07027(15) 0.04787(14) 0.9350(2)
C25 C 0.02444(17) 0.08395(17) 0.9168(2)
H17 H 0.0000 0.0977 0.9742
Co4 Co 0.582309(15) 0.450508(17) 0.99106(3)
O7 O 0.01159(8) 0.06428(10) 0.38964(15)
N2 N 0.12842(11) 0.99836(10) 0.36309(17)
C7 C 0.14372(15) 0.98391(14) 0.1719(2)
H12 H 0.1485 0.9847 0.0042
C21 C 0.17436(14) 0.95681(14) 0.3803(3)
H13 H 0.1848 0.9469 0.4513
C24 C 0.19106(17) 0.94189(16) 0.1923(3)
H16 H 0.2124 0.9229 0.1355
C26 C 0.20661(17) 0.92821(18) 0.2987(3)
H18 H 0.2385 0.9000 0.3142
O6 O 0.08488(8) 0.96966(9) 0.58285(15)
O5_2 O 0.36950(9) 0.63610(10) 0.06894(18)
C4_2 C 0.32698(12) 0.62731(14) 0.0014(2)
C12_2 C 0.26217(13) 0.71457(14) 0.0800(2)
H4_2 H 0.2894 0.7163 0.1381
C14_2 C 0.21123(15) 0.75492(14) 0.0780(2)
H6_2 H 0.2038 0.7830 0.1347
O7_2 O 0.48841(8) 0.56428(10) 0.11036(15)
N5 N 0.37158(11) 0.49836(10) 0.13691(17)
O1_2 O 0.11964(11) 0.79133(12) 0.99393(15)
O3_2 O 0.32993(8) 0.58065(10) 0.93737(17)
C1_2 C 0.12445(12) 0.90618(13) 0.7697(2)
H1_2 H 0.1510 0.9367 0.7410
C2_2 C 0.06608(11) 0.89735(12) 0.72495(19)
C3_2 C 0.17189(13) 0.75267(15) 0.9902(2)
N1_2 N 0.46746(10) 0.59858(11) 0.88283(18)
C5_2 C 0.27282(13) 0.67185(13) 0.9967(2)
C6_2 C 0.10429(13) 0.82489(13) 0.8991(2)
C7_2 C 0.35628(15) 0.48391(14) 0.3281(2)
C8_2 C 0.04506(12) 0.93712(11) 0.63161(19)
C9_2 C 0.45631(13) 0.58255(14) 0.7800(2)
H2_2 H 0.4235 0.5551 0.7662
C10_2 C 0.14323(13) 0.86946(14) 0.8574(2)
H3_2 H 0.1822 0.8754 0.8874
C11_2 C 0.49042(15) 0.60418(15) 0.6928(2)
C13_2 C 0.18172(14) 0.71115(15) 0.9066(2)
H5_2 H 0.1549 0.7102 0.8478
C15_2 C 0.02817(13) 0.85118(14) 0.7683(2)
C16_2 C 0.38590(14) 0.51121(14) 0.2397(2)
H8_2 H 0.4176 0.5401 0.2530
C17_2 C 0.23237(13) 0.67032(14) 0.9107(2)
H9_2 H 0.2390 0.6416 0.8546
N3_2 N 0.42129(14) 0.53592(16) 0.4557(2)
C18 C 0.51403(14) 0.63988(14) 0.8998(2)
H10 H 0.5218 0.6529 0.9705
C19_2 C 0.04649(14) 0.81459(14) 0.8560(2)
H11_2 H 0.0203 0.7838 0.8850
N4_2 N 0.42973(15) 0.54787(14) 0.5650(2)
C20_2 C 0.37434(17) 0.50031(16) 0.4378(2)
H12_2 H 0.3515 0.4847 0.4958
C21_2 C 0.32564(14) 0.45681(14) 0.1197(3)
H13_2 H 0.3152 0.4469 0.0487
C22 C 0.53887(17) 0.64536(17) 0.7136(3)
H14 H 0.5633 0.6605 0.6574
C23 C 0.55058(16) 0.66384(17) 0.8196(3)
H15 H 0.5826 0.6919 0.8355
C24_2 C 0.30894(17) 0.44189(16) 0.3077(3)
H16_2 H 0.2876 0.4229 0.3645
C25_2 C 0.47556(17) 0.58395(17) 0.5832(2)
H17_2 H 0.5000 0.5977 0.5258
C26_2 C 0.29339(17) 0.42821(18) 0.2013(3)
H18_2 H 0.2615 0.4000 0.1858
O4_2 O 0.98841(8) 0.93572(10) 0.61036(15)
H7_2 H 0.9894 0.8444 0.7379
Co4_2 Co 0.917691(15) 0.950508(17) 0.50894(3)
O6_2 O 0.91512(8) 0.03034(9) 0.41715(15)
N5_2 N 0.87158(11) 0.00164(10) 0.63691(17)
C7_3 C 0.85628(15) 0.01609(14) 0.8281(2)
H12_3 H 0.8515 0.0153 0.9958
C21_3 C 0.82564(14) 0.04319(14) 0.6197(3)
H13_3 H 0.8152 0.0531 0.5487
C24_3 C 0.80894(17) 0.05811(16) 0.8077(3)
H16_3 H 0.7876 0.0771 0.8645
C26_3 C 0.79339(17) 0.07179(18) 0.7013(3)
H18_3 H 0.7615 0.1000 0.6858
O1_3 O 0.61964(11) 0.70867(12) 0.49393(15)
O2_2 O 0.58488(8) 0.53034(9) 0.08285(15)
O3_3 O 0.82993(8) 0.91935(10) 0.43737(17)
O5_3 O 0.86950(9) 0.86390(10) 0.56894(18)
C1_3 C 0.62445(12) 0.59382(13) 0.2697(2)
H1_3 H 0.6510 0.5633 0.2410
C2_3 C 0.56608(11) 0.60265(12) 0.22495(19)
C3_3 C 0.67189(13) 0.74733(15) 0.4902(2)
C4_3 C 0.82698(12) 0.87269(14) 0.5014(2)
N1_3 N 0.96746(10) 0.90142(11) 0.38283(18)
C5_3 C 0.77282(13) 0.82815(13) 0.4967(2)
C6_3 C 0.60429(13) 0.67511(13) 0.3991(2)
C8_3 C 0.54506(12) 0.56288(11) 0.13161(19)
C9_3 C 0.95631(13) 0.91745(14) 0.2800(2)
H2_3 H 0.9235 0.9449 0.2662
C10_3 C 0.64323(13) 0.63054(14) 0.3574(2)
H3_3 H 0.6822 0.6246 0.3874
C11_3 C 0.99042(15) 0.89582(15) 0.1928(2)
C12_3 C 0.76217(13) 0.78543(14) 0.5800(2)
H4_3 H 0.7894 0.7837 0.6381
C13_3 C 0.68172(14) 0.78885(15) 0.4066(2)
H5_3 H 0.6549 0.7898 0.3478
C14_3 C 0.71123(15) 0.74508(14) 0.5780(2)
H6_3 H 0.7038 0.7170 0.6347
C15_3 C 0.52817(13) 0.64882(14) 0.2683(2)
H7_3 H 0.4894 0.6556 0.2379
C17_3 C 0.73237(13) 0.82968(14) 0.4107(2)
H9_3 H 0.7390 0.8584 0.3546
C19_3 C 0.54649(14) 0.68541(14) 0.3560(2)
H11_3 H 0.5203 0.7162 0.3850
N4_3 N 0.92973(15) 0.95213(14) 0.0650(2)
C25_3 C 0.97556(17) 0.91605(17) 0.0832(2)
H17_3 H 1.0000 0.9023 0.0258
C16_3 C 0.88590(14) 0.98879(14) 0.7397(2)
H8_3 H 0.9176 0.9599 0.7530
N3_3 N 0.92129(14) 0.96408(16) 0.9557(2)
C20_3 C 0.87434(17) 0.99969(16) 0.9378(2)
H7_4 H 0.0106 0.1556 0.2621
O1_4 O 0.88036(11) 0.20867(12) 0.00607(15)
O3_4 O 0.67007(8) 0.41935(10) 0.06263(17)
C1_4 C 0.87555(12) 0.09382(13) 0.2303(2)
H1_4 H 0.8490 0.0633 0.2590
C2_4 C 0.93392(11) 0.10265(12) 0.27505(19)
C3_4 C 0.82811(13) 0.24733(15) 0.0098(2)
N1_4 N 0.53254(10) 0.40142(11) 0.11717(18)
C5_4 C 0.72718(13) 0.32815(13) 0.0033(2)
N2_2 N 0.62842(11) 0.50164(10) 0.86309(17)
C6_4 C 0.89571(13) 0.17511(13) 0.1009(2)
C7_4 C 0.64372(15) 0.51609(14) 0.6719(2)
C8_4 C 0.95494(12) 0.06288(11) 0.36839(19)
C9_4 C 0.54369(13) 0.41745(14) 0.2200(2)
H2_4 H 0.5765 0.4449 0.2338
C10_4 C 0.85677(13) 0.13054(14) 0.1426(2)
H3_4 H 0.8178 0.1246 0.1126
C11_4 C 0.50958(15) 0.39582(15) 0.3072(2)
C13_4 C 0.81828(14) 0.28885(15) 0.0934(2)
H5_4 H 0.8451 0.2898 0.1522
C15_4 C 0.97183(13) 0.14882(14) 0.2317(2)
C16_4 C 0.61410(14) 0.48879(14) 0.7603(2)
H8_4 H 0.5824 0.4599 0.7470
C17_4 C 0.76763(13) 0.32968(14) 0.0893(2)
H9_4 H 0.7610 0.3584 0.1454
N3_4 N 0.57871(14) 0.46408(16) 0.5443(2)
C18_2 C 0.48597(14) 0.36012(14) 0.1002(2)
H10_2 H 0.4782 0.3471 0.0295
C19_4 C 0.95351(14) 0.18541(14) 0.1440(2)
H11_4 H 0.9797 0.2162 0.1150
N4_4 N 0.57027(15) 0.45213(14) 0.4350(2)
C20_4 C 0.62566(17) 0.49969(16) 0.5622(2)
H12_4 H 0.6485 0.5153 0.5042
C21_4 C 0.67436(14) 0.54319(14) 0.8803(3)
H13_4 H 0.6848 0.5531 0.9513
C22_2 C 0.46113(17) 0.35464(17) 0.2864(3)
H14_2 H 0.4367 0.3395 0.3426
C23_2 C 0.44942(16) 0.33616(17) 0.1804(3)
H15_2 H 0.4174 0.3081 0.1645
C24_4 C 0.69106(17) 0.55811(16) 0.6923(3)
H16_4 H 0.7124 0.5771 0.6355
C25_4 C 0.52444(17) 0.41605(17) 0.4168(2)
H17_4 H 0.5000 0.4023 0.4742
C26_4 C 0.70661(17) 0.57179(18) 0.7987(3)
H18_4 H 0.7385 0.6000 0.8142
O5_4 O 0.63050(9) 0.36390(10) 0.93106(18)
C4_4 C 0.67302(12) 0.37269(14) 0.9986(2)
C12_4 C 0.73783(13) 0.28543(14) 0.9200(2)
H4_4 H 0.7106 0.2837 0.8619
C14_4 C 0.78877(15) 0.24508(14) 0.9220(2)
H6_4 H 0.7962 0.2170 0.8653
C18_3 C 0.98597(14) 0.13988(14) 0.6002(2)
H10_3 H 0.9782 0.1529 0.5295
C22_3 C 0.96113(17) 0.14536(17) 0.7864(3)
H14_3 H 0.9367 0.1605 0.8426
C23_3 C 0.94942(16) 0.16384(17) 0.6804(3)
H15_3 H 0.9174 0.1919 0.6645
H17_5 H 1.0000 0.0977 0.9742
N2_3 N 0.37158(11) 0.00164(10) 0.36309(17)
C7_5 C 0.35628(15) 0.01609(14) 0.1719(2)
H12_5 H 0.3515 0.0153 0.0042
C21_5 C 0.32564(14) 0.04319(14) 0.3803(3)
H13_5 H 0.3152 0.0531 0.4513
C24_5 C 0.30894(17) 0.05811(16) 0.1923(3)
H16_5 H 0.2876 0.0771 0.1355
C26_5 C 0.29339(17) 0.07179(18) 0.2987(3)
H18_5 H 0.2615 0.1000 0.3142
O6_3 O 0.41512(8) 0.03034(9) 0.58285(15)
C16_5 C 0.38590(14) 0.98879(14) 0.2603(2)
H8_5 H 0.4176 0.9599 0.2470
N3_5 N 0.42129(14) 0.96408(16) 0.0443(2)
C20_5 C 0.37434(17) 0.99969(16) 0.0622(2)
Co2_2 Co 0.417691(15) 0.950508(17) 0.49106(3)
Co3_2 Co 0.082309(15) 0.450508(17) 0.00894(3)
O1_5 O 0.11964(11) 0.70867(12) 0.50607(15)
O2_3 O 0.08488(8) 0.53034(9) 0.91715(15)
O3_5 O 0.32993(8) 0.91935(10) 0.56263(17)
O5_5 O 0.36950(9) 0.86390(10) 0.43106(18)
C1_5 C 0.12445(12) 0.59382(13) 0.7303(2)
H1_5 H 0.1510 0.5633 0.7590
C2_5 C 0.06608(11) 0.60265(12) 0.77505(19)
C3_5 C 0.17189(13) 0.74733(15) 0.5098(2)
C4_5 C 0.32698(12) 0.87269(14) 0.4986(2)
N1_5 N 0.46746(10) 0.90142(11) 0.61717(18)
C5_5 C 0.27282(13) 0.82815(13) 0.5033(2)
C6_5 C 0.10429(13) 0.67511(13) 0.6009(2)
C8_5 C 0.04506(12) 0.56288(11) 0.86839(19)
C9_5 C 0.45631(13) 0.91745(14) 0.7200(2)
H2_5 H 0.4235 0.9449 0.7338
C10_5 C 0.14323(13) 0.63054(14) 0.6426(2)
H3_5 H 0.1822 0.6246 0.6126
C11_5 C 0.49042(15) 0.89582(15) 0.8072(2)
C12_5 C 0.26217(13) 0.78543(14) 0.4200(2)
H4_5 H 0.2894 0.7837 0.3619
C13_5 C 0.18172(14) 0.78885(15) 0.5934(2)
H5_5 H 0.1549 0.7898 0.6522
C14_5 C 0.21123(15) 0.74508(14) 0.4220(2)
H6_5 H 0.2038 0.7170 0.3653
C15_5 C 0.02817(13) 0.64882(14) 0.7317(2)
C17_5 C 0.23237(13) 0.82968(14) 0.5893(2)
H9_5 H 0.2390 0.8584 0.6454
C18_4 C 0.51403(14) 0.86012(14) 0.6002(2)
H10_4 H 0.5218 0.8471 0.5295
C19_5 C 0.04649(14) 0.68541(14) 0.6440(2)
H11_5 H 0.0203 0.7162 0.6150
N4_5 N 0.42973(15) 0.95213(14) 0.9350(2)
C22_4 C 0.53887(17) 0.85464(17) 0.7864(3)
H14_4 H 0.5633 0.8395 0.8426
C23_4 C 0.55058(16) 0.83616(17) 0.6804(3)
H15_4 H 0.5826 0.8081 0.6645
C25_5 C 0.47556(17) 0.91605(17) 0.9168(2)
H17_6 H 0.5000 0.9023 0.9742
O7_3 O 0.48841(8) 0.93572(10) 0.38964(15)
O4_3 O 0.98841(8) 0.56428(10) 0.88964(15)
H7_5 H 0.9894 0.6556 0.7621
Co4_3 Co 0.917691(15) 0.549492(17) 0.99106(3)
O5_6 O 0.13050(9) 0.36390(10) 0.06894(18)
C4_6 C 0.17302(12) 0.37269(14) 0.0014(2)
C12_6 C 0.23783(13) 0.28543(14) 0.0800(2)
H4_6 H 0.2106 0.2837 0.1381
C14_6 C 0.28877(15) 0.24508(14) 0.0780(2)
H6_6 H 0.2962 0.2170 0.1347
O7_4 O 0.01159(8) 0.43572(10) 0.11036(15)
N5_3 N 0.12842(11) 0.50164(10) 0.13691(17)
O1_6 O 0.38036(11) 0.20867(12) 0.99393(15)
O3_6 O 0.17007(8) 0.41935(10) 0.93737(17)
O4_4 O 0.51159(8) 0.06428(10) 0.61036(15)
C1_6 C 0.37555(12) 0.09382(13) 0.7697(2)
H1_6 H 0.3490 0.0633 0.7410
C2_6 C 0.43392(11) 0.10265(12) 0.72495(19)
C3_6 C 0.32811(13) 0.24733(15) 0.9902(2)
N1_6 N 0.03254(10) 0.40142(11) 0.88283(18)
C5_6 C 0.22718(13) 0.32815(13) 0.9967(2)
C6_6 C 0.39571(13) 0.17511(13) 0.8991(2)
C7_6 C 0.14372(15) 0.51609(14) 0.3281(2)
C8_6 C 0.45494(12) 0.06288(11) 0.63161(19)
C9_6 C 0.04369(13) 0.41745(14) 0.7800(2)
H2_6 H 0.0765 0.4449 0.7662
C10_6 C 0.35677(13) 0.13054(14) 0.8574(2)
H3_6 H 0.3178 0.1246 0.8874
C11_6 C 0.00958(15) 0.39582(15) 0.6928(2)
C13_6 C 0.31828(14) 0.28885(15) 0.9066(2)
H5_6 H 0.3451 0.2898 0.8478
C15_6 C 0.47183(13) 0.14882(14) 0.7683(2)
H7_6 H 0.5106 0.1556 0.7379
C16_6 C 0.11410(14) 0.48879(14) 0.2397(2)
H8_6 H 0.0824 0.4599 0.2530
C17_6 C 0.26763(13) 0.32968(14) 0.9107(2)
H9_6 H 0.2610 0.3584 0.8546
N3_6 N 0.07871(14) 0.46408(16) 0.4557(2)
C19_6 C 0.45351(14) 0.18541(14) 0.8560(2)
H11_6 H 0.4797 0.2162 0.8850
N4_6 N 0.07027(15) 0.45213(14) 0.5650(2)
C20_6 C 0.12566(17) 0.49969(16) 0.4378(2)
H12_6 H 0.1485 0.5153 0.4958
C21_6 C 0.17436(14) 0.54319(14) 0.1197(3)
H13_6 H 0.1848 0.5531 0.0487
C24_6 C 0.19106(17) 0.55811(16) 0.3077(3)
H16_6 H 0.2124 0.5771 0.3645
C25_6 C 0.02444(17) 0.41605(17) 0.5832(2)
H17_7 H 0.0000 0.4023 0.5258
C26_6 C 0.20661(17) 0.57179(18) 0.2013(3)
H18_6 H 0.2385 0.6000 0.1858
Co4_4 Co 0.582309(15) 0.049492(17) 0.50894(3)
H7_7 H 0.0106 0.3444 0.2379
O1_7 O 0.88036(11) 0.29133(12) 0.49393(15)
O2_4 O 0.91512(8) 0.46966(9) 0.08285(15)
O3_7 O 0.67007(8) 0.08065(10) 0.43737(17)
O5_7 O 0.63050(9) 0.13610(10) 0.56894(18)
C1_7 C 0.87555(12) 0.40618(13) 0.2697(2)
H1_7 H 0.8490 0.4367 0.2410
C2_7 C 0.93392(11) 0.39735(12) 0.22495(19)
C3_7 C 0.82811(13) 0.25267(15) 0.4902(2)
C4_7 C 0.67302(12) 0.12731(14) 0.5014(2)
N1_7 N 0.53254(10) 0.09858(11) 0.38283(18)
C5_7 C 0.72718(13) 0.17185(13) 0.4967(2)
C6_7 C 0.89571(13) 0.32489(13) 0.3991(2)
C8_7 C 0.95494(12) 0.43712(11) 0.13161(19)
C9_7 C 0.54369(13) 0.08255(14) 0.2800(2)
H2_7 H 0.5765 0.0551 0.2662
C10_7 C 0.85677(13) 0.36946(14) 0.3574(2)
H3_7 H 0.8178 0.3754 0.3874
C11_7 C 0.50958(15) 0.10418(15) 0.1928(2)
C12_7 C 0.73783(13) 0.21457(14) 0.5800(2)
H4_7 H 0.7106 0.2163 0.6381
C13_7 C 0.81828(14) 0.21115(15) 0.4066(2)
H5_7 H 0.8451 0.2102 0.3478
C14_7 C 0.78877(15) 0.25492(14) 0.5780(2)
H6_7 H 0.7962 0.2830 0.6347
C15_7 C 0.97183(13) 0.35118(14) 0.2683(2)
C17_7 C 0.76763(13) 0.17032(14) 0.4107(2)
H9_7 H 0.7610 0.1416 0.3546
C18_5 C 0.48597(14) 0.13988(14) 0.3998(2)
H10_5 H 0.4782 0.1529 0.4705
C19_7 C 0.95351(14) 0.31459(14) 0.3560(2)
H11_7 H 0.9797 0.2838 0.3850
N4_7 N 0.57027(15) 0.04787(14) 0.0650(2)
C22_5 C 0.46113(17) 0.14536(17) 0.2136(3)
H14_5 H 0.4367 0.1605 0.1574
C23_5 C 0.44942(16) 0.16384(17) 0.3196(3)
H15_5 H 0.4174 0.1919 0.3355
C25_7 C 0.52444(17) 0.08395(17) 0.0832(2)
H17_8 H 0.5000 0.0977 0.0258
C16_7 C 0.61410(14) 0.01121(14) 0.7397(2)
H8_7 H 0.5824 0.0401 0.7530
N3_7 N 0.57871(14) 0.03592(16) 0.9557(2)
C20_7 C 0.62566(17) 0.00031(16) 0.9378(2)
O6_4 O 0.58488(8) 0.96966(9) 0.41715(15)
N5_4 N 0.62842(11) 0.99836(10) 0.63691(17)
C7_7 C 0.64372(15) 0.98391(14) 0.8281(2)
H12_7 H 0.6485 0.9847 0.9958
C21_7 C 0.67436(14) 0.95681(14) 0.6197(3)
H13_7 H 0.6848 0.9469 0.5487
C24_7 C 0.69106(17) 0.94189(16) 0.8077(3)
H16_7 H 0.7124 0.9229 0.8645
C26_7 C 0.70661(17) 0.92821(18) 0.7013(3)
H18_7 H 0.7385 0.9000 0.6858
O1_8 O 0.61964(11) 0.79133(12) 0.00607(15)
O3_8 O 0.82993(8) 0.58065(10) 0.06263(17)
C1_8 C 0.62445(12) 0.90618(13) 0.2303(2)
H1_8 H 0.6510 0.9367 0.2590
C2_8 C 0.56608(11) 0.89735(12) 0.27505(19)
C3_8 C 0.67189(13) 0.75267(15) 0.0098(2)
N1_8 N 0.96746(10) 0.59858(11) 0.11717(18)
C5_8 C 0.77282(13) 0.67185(13) 0.0033(2)
N2_4 N 0.87158(11) 0.49836(10) 0.86309(17)
C6_8 C 0.60429(13) 0.82489(13) 0.1009(2)
C7_8 C 0.85628(15) 0.48391(14) 0.6719(2)
C8_8 C 0.54506(12) 0.93712(11) 0.36839(19)
C9_8 C 0.95631(13) 0.58255(14) 0.2200(2)
H2_8 H 0.9235 0.5551 0.2338
C10_8 C 0.64323(13) 0.86946(14) 0.1426(2)
H3_8 H 0.6822 0.8754 0.1126
C11_8 C 0.99042(15) 0.60418(15) 0.3072(2)
C13_8 C 0.68172(14) 0.71115(15) 0.0934(2)
H5_8 H 0.6549 0.7102 0.1522
C15_8 C 0.52817(13) 0.85118(14) 0.2317(2)
H7_8 H 0.4894 0.8444 0.2621
C16_8 C 0.88590(14) 0.51121(14) 0.7603(2)
H8_8 H 0.9176 0.5401 0.7470
C17_8 C 0.73237(13) 0.67032(14) 0.0893(2)
H9_8 H 0.7390 0.6416 0.1454
N3_8 N 0.92129(14) 0.53592(16) 0.5443(2)
C19_8 C 0.54649(14) 0.81459(14) 0.1440(2)
H11_8 H 0.5203 0.7838 0.1150
N4_8 N 0.92973(15) 0.54787(14) 0.4350(2)
C20_8 C 0.87434(17) 0.50031(16) 0.5622(2)
H12_8 H 0.8515 0.4847 0.5042
C21_8 C 0.82564(14) 0.45681(14) 0.8803(3)
H13_8 H 0.8152 0.4469 0.9513
C24_8 C 0.80894(17) 0.44189(16) 0.6923(3)
H16_8 H 0.7876 0.4229 0.6355
C25_8 C 0.97556(17) 0.58395(17) 0.4168(2)
H17_9 H 1.0000 0.5977 0.4742
C26_8 C 0.79339(17) 0.42821(18) 0.7987(3)
H18_8 H 0.7615 0.4000 0.8142
O5_8 O 0.86950(9) 0.63610(10) 0.93106(18)
C4_8 C 0.82698(12) 0.62731(14) 0.9986(2)
C12_8 C 0.76217(13) 0.71457(14) 0.9200(2)
H4_8 H 0.7894 0.7163 0.8619
C14_8 C 0.71123(15) 0.75492(14) 0.9220(2)
H6_8 H 0.7038 0.7830 0.8653
C18_6 C 0.98597(14) 0.36012(14) 0.8998(2)
H10_6 H 0.9782 0.3471 0.9705
C22_6 C 0.96113(17) 0.35464(17) 0.7136(3)
H14_6 H 0.9367 0.3395 0.6574
C23_6 C 0.94942(16) 0.33616(17) 0.8196(3)
H15_6 H 0.9174 0.3081 0.8355
H17_10 H 1.0000 0.4023 0.5258
C18_7 C 0.01403(14) 0.86012(14) 0.3998(2)
H10_7 H 0.0218 0.8471 0.4705
C22_7 C 0.03887(17) 0.85464(17) 0.2136(3)
H14_7 H 0.0633 0.8395 0.1574
C23_7 C 0.05058(16) 0.83616(17) 0.3196(3)
H15_7 H 0.0826 0.8081 0.3355
H17_11 H 0.0000 0.9023 0.0258
C18_8 C 0.01403(14) 0.63988(14) 0.1002(2)
H10_8 H 0.0218 0.6529 0.0295
C22_8 C 0.03887(17) 0.64536(17) 0.2864(3)
H14_8 H 0.0633 0.6605 0.3426
C23_8 C 0.05058(16) 0.66384(17) 0.1804(3)
H15_8 H 0.0826 0.6919 0.1645
H17_12 H -0.0000 0.5977 0.4742
loop_
_geom_bond_atom_site_label_1
_geom_bond_atom_site_label_2
_geom_bond_site_symmetry_1
_geom_bond_site_symmetry_2
C16 H8 1_555 1_555
N3 C20 1_555 1_555
Co2 O3 1_555 1_555
O1 C3 1_555 1_555
O2 C8 1_555 1_555
O3 C4 1_555 1_555
O4 C8 1_555 1_555
O5 Co2 1_555 1_555
C1 H1 1_555 1_555
C2 C1 1_555 1_555
C3 C13 1_555 1_555
C4 O5 1_555 1_555
N1 Co2 1_555 1_555
C5 C4 1_555 1_555
C6 O1 1_555 1_555
C8 C2 1_555 1_555
C9 N1 1_555 1_555
H2 C9 1_555 1_555
C10 C1 1_555 1_555
H3 C10 1_555 1_555
C11 C9 1_555 1_555
C12 C5 1_555 1_555
H4 C12 1_555 1_555
C13 H5 1_555 1_555
C14 C3 1_555 1_555
H6 C14 1_555 1_555
C15 C2 1_555 1_555
H7 C15 1_555 1_555
C17 C5 1_555 1_555
H9 C17 1_555 1_555
C19 C6 1_555 1_555
H11 C19 1_555 1_555
N4 C25 1_555 1_555
C25 C11 1_555 1_555
H17 C25 1_555 1_555
Co4 O4 1_555 1_555
O7 Co2 1_555 1_555
C6 C10 1_555 1_555
C12 C14 1_555 1_555
C13 C17 1_555 1_555
C15 C19 1_555 1_555
C21 N2 1_555 1_555
H13 C21 1_555 1_555
C24 C7 1_555 1_555
H16 C24 1_555 1_555
C26 C21 1_555 1_555
H18 C26 1_555 1_555
C24 C26 1_555 1_555
O5_2 Co3 1_555 1_555
C4_2 O5_2 1_555 1_555
H4_2 C12_2 1_555 1_555
H6_2 C14_2 1_555 1_555
O7_2 Co3 1_555 1_555
N5 Co3 1_555 1_555
C12_2 C14_2 1_555 1_555
O1_2 C3_2 1_555 1_555
O6 C8_2 1_555 1_555
C1_2 H1_2 1_555 1_555
C2_2 C1_2 1_555 1_555
C3_2 C13_2 1_555 1_555
N5 C16_2 1_555 1_555
C6_2 O1_2 1_555 1_555
C7_2 C16_2 1_555 1_555
C8_2 C2_2 1_555 1_555
C9_2 N1_2 1_555 1_555
H2_2 C9_2 1_555 1_555
C10_2 C1_2 1_555 1_555
H3_2 C10_2 1_555 1_555
C11_2 C9_2 1_555 1_555
C13_2 H5_2 1_555 1_555
C15_2 C2_2 1_555 1_555
C16_2 H8_2 1_555 1_555
C17_2 C5_2 1_555 1_555
H9_2 C17_2 1_555 1_555
N3_2 N4_2 1_555 1_555
C18 N1_2 1_555 1_555
H10 C18 1_555 1_555
C19_2 C6_2 1_555 1_555
H11_2 C19_2 1_555 1_555
N4_2 C25_2 1_555 1_555
C20_2 C7_2 1_555 1_555
H12_2 C20_2 1_555 1_555
C21_2 N5 1_555 1_555
H13_2 C21_2 1_555 1_555
C22 C11_2 1_555 1_555
H14 C22 1_555 1_555
C23 C18 1_555 1_555
H15 C23 1_555 1_555
C24_2 C7_2 1_555 1_555
H16_2 C24_2 1_555 1_555
C25_2 C11_2 1_555 1_555
H17_2 C25_2 1_555 1_555
C26_2 C21_2 1_555 1_555
H18_2 C26_2 1_555 1_555
C6_2 C10_2 1_555 1_555
C13_2 C17_2 1_555 1_555
C15_2 C19_2 1_555 1_555
N3_2 C20_2 1_555 1_555
C22 C23 1_555 1_555
C24_2 C26_2 1_555 1_555
Co4_2 O4_2 1_555 1_555
C21_3 N5_2 1_555 1_555
H13_3 C21_3 1_555 1_555
C24_3 C7_3 1_555 1_555
H16_3 C24_3 1_555 1_555
C26_3 C21_3 1_555 1_555
H18_3 C26_3 1_555 1_555
C24_3 C26_3 1_555 1_555
Co4_2 O3_3 1_555 1_555
O1_3 C3_3 1_555 1_555
O2_2 C8_3 1_555 1_555
O3_3 C4_3 1_555 1_555
O7_2 C8_3 1_555 1_555
O5_3 Co4_2 1_555 1_555
C1_3 H1_3 1_555 1_555
C2_3 C1_3 1_555 1_555
C3_3 C13_3 1_555 1_555
C4_3 O5_3 1_555 1_555
N1_3 Co4_2 1_555 1_555
C5_3 C4_3 1_555 1_555
C6_3 O1_3 1_555 1_555
C8_3 C2_3 1_555 1_555
C9_3 N1_3 1_555 1_555
H2_3 C9_3 1_555 1_555
C10_3 C1_3 1_555 1_555
H3_3 C10_3 1_555 1_555
C11_3 C9_3 1_555 1_555
C12_3 C5_3 1_555 1_555
H4_3 C12_3 1_555 1_555
C13_3 H5_3 1_555 1_555
C14_3 C3_3 1_555 1_555
H6_3 C14_3 1_555 1_555
C15_3 C2_3 1_555 1_555
H7_3 C15_3 1_555 1_555
C17_3 C5_3 1_555 1_555
H9_3 C17_3 1_555 1_555
C19_3 C6_3 1_555 1_555
H11_3 C19_3 1_555 1_555
N4_3 C25_3 1_555 1_555
C25_3 C11_3 1_555 1_555
H17_3 C25_3 1_555 1_555
C6_3 C10_3 1_555 1_555
C12_3 C14_3 1_555 1_555
C13_3 C17_3 1_555 1_555
C15_3 C19_3 1_555 1_555
C16_3 H8_3 1_555 1_555
N3_3 C20_3 1_555 1_555
O1_4 C3_4 1_555 1_555
O6_2 C8_4 1_555 1_555
C1_4 H1_4 1_555 1_555
C2_4 C1_4 1_555 1_555
C3_4 C13_4 1_555 1_555
N2_2 C16_4 1_555 1_555
C6_4 O1_4 1_555 1_555
C7_4 C16_4 1_555 1_555
C8_4 C2_4 1_555 1_555
C9_4 N1_4 1_555 1_555
H2_4 C9_4 1_555 1_555
C10_4 C1_4 1_555 1_555
H3_4 C10_4 1_555 1_555
C11_4 C9_4 1_555 1_555
C13_4 H5_4 1_555 1_555
C15_4 C2_4 1_555 1_555
C16_4 H8_4 1_555 1_555
C17_4 C5_4 1_555 1_555
H9_4 C17_4 1_555 1_555
N3_4 N4_4 1_555 1_555
C18_2 N1_4 1_555 1_555
H10_2 C18_2 1_555 1_555
C19_4 C6_4 1_555 1_555
H11_4 C19_4 1_555 1_555
N4_4 C25_4 1_555 1_555
C20_4 C7_4 1_555 1_555
H12_4 C20_4 1_555 1_555
C21_4 N2_2 1_555 1_555
H13_4 C21_4 1_555 1_555
C22_2 C11_4 1_555 1_555
H14_2 C22_2 1_555 1_555
C23_2 C18_2 1_555 1_555
H15_2 C23_2 1_555 1_555
C24_4 C7_4 1_555 1_555
H16_4 C24_4 1_555 1_555
C25_4 C11_4 1_555 1_555
H17_4 C25_4 1_555 1_555
C26_4 C21_4 1_555 1_555
H18_4 C26_4 1_555 1_555
Co4 N2_2 1_555 1_555
C6_4 C10_4 1_555 1_555
C13_4 C17_4 1_555 1_555
C15_4 C19_4 1_555 1_555
N3_4 C20_4 1_555 1_555
C22_2 C23_2 1_555 1_555
C24_4 C26_4 1_555 1_555
O5_4 Co4 1_555 1_555
C4_4 O5_4 1_555 1_555
H4_4 C12_4 1_555 1_555
H6_4 C14_4 1_555 1_555
C12_4 C14_4 1_555 1_555
H10_3 C18_3 1_555 1_555
H14_3 C22_3 1_555 1_555
C23_3 C18_3 1_555 1_555
H15_3 C23_3 1_555 1_555
C22_3 C23_3 1_555 1_555
C21_5 N2_3 1_555 1_555
H13_5 C21_5 1_555 1_555
C24_5 C7_5 1_555 1_555
H16_5 C24_5 1_555 1_555
C26_5 C21_5 1_555 1_555
H18_5 C26_5 1_555 1_555
C24_5 C26_5 1_555 1_555
C16_5 H8_5 1_555 1_555
N3_5 C20_5 1_555 1_555
Co2_2 O3_5 1_555 1_555
O1_5 C3_5 1_555 1_555
O2_3 C8_5 1_555 1_555
O3_5 C4_5 1_555 1_555
O5_5 Co2_2 1_555 1_555
C1_5 H1_5 1_555 1_555
C2_5 C1_5 1_555 1_555
C3_5 C13_5 1_555 1_555
C4_5 O5_5 1_555 1_555
N1_5 Co2_2 1_555 1_555
C5_5 C4_5 1_555 1_555
C6_5 O1_5 1_555 1_555
C8_5 C2_5 1_555 1_555
C9_5 N1_5 1_555 1_555
H2_5 C9_5 1_555 1_555
C10_5 C1_5 1_555 1_555
H3_5 C10_5 1_555 1_555
C11_5 C9_5 1_555 1_555
C12_5 C5_5 1_555 1_555
H4_5 C12_5 1_555 1_555
C13_5 H5_5 1_555 1_555
C14_5 C3_5 1_555 1_555
H6_5 C14_5 1_555 1_555
C15_5 C2_5 1_555 1_555
C17_5 C5_5 1_555 1_555
H9_5 C17_5 1_555 1_555
C18_4 N1_5 1_555 1_555
H10_4 C18_4 1_555 1_555
C19_5 C6_5 1_555 1_555
H11_5 C19_5 1_555 1_555
N4_5 C25_5 1_555 1_555
C22_4 C11_5 1_555 1_555
H14_4 C22_4 1_555 1_555
C23_4 C18_4 1_555 1_555
H15_4 C23_4 1_555 1_555
C25_5 C11_5 1_555 1_555
H17_6 C25_5 1_555 1_555
O7_3 Co2_2 1_555 1_555
C6_5 C10_5 1_555 1_555
C12_5 C14_5 1_555 1_555
C13_5 C17_5 1_555 1_555
C15_5 C19_5 1_555 1_555
C22_4 C23_4 1_555 1_555
Co4_3 O4_3 1_555 1_555
O5_6 Co3_2 1_555 1_555
C4_6 O5_6 1_555 1_555
H4_6 C12_6 1_555 1_555
H6_6 C14_6 1_555 1_555
O7_4 Co3_2 1_555 1_555
N5_3 Co3_2 1_555 1_555
C12_6 C14_6 1_555 1_555
O1_6 C3_6 1_555 1_555
O6_3 C8_6 1_555 1_555
O4_4 C8_6 1_555 1_555
C1_6 H1_6 1_555 1_555
C2_6 C1_6 1_555 1_555
C3_6 C13_6 1_555 1_555
N5_3 C16_6 1_555 1_555
C6_6 O1_6 1_555 1_555
C7_6 C16_6 1_555 1_555
C8_6 C2_6 1_555 1_555
C9_6 N1_6 1_555 1_555
H2_6 C9_6 1_555 1_555
C10_6 C1_6 1_555 1_555
H3_6 C10_6 1_555 1_555
C11_6 C9_6 1_555 1_555
C13_6 H5_6 1_555 1_555
C15_6 C2_6 1_555 1_555
H7_6 C15_6 1_555 1_555
C16_6 H8_6 1_555 1_555
C17_6 C5_6 1_555 1_555
H9_6 C17_6 1_555 1_555
N3_6 N4_6 1_555 1_555
C19_6 C6_6 1_555 1_555
H11_6 C19_6 1_555 1_555
N4_6 C25_6 1_555 1_555
C20_6 C7_6 1_555 1_555
H12_6 C20_6 1_555 1_555
C21_6 N5_3 1_555 1_555
H13_6 C21_6 1_555 1_555
C24_6 C7_6 1_555 1_555
H16_6 C24_6 1_555 1_555
C25_6 C11_6 1_555 1_555
H17_7 C25_6 1_555 1_555
C26_6 C21_6 1_555 1_555
H18_6 C26_6 1_555 1_555
Co4_4 O4_4 1_555 1_555
C6_6 C10_6 1_555 1_555
C13_6 C17_6 1_555 1_555
C15_6 C19_6 1_555 1_555
N3_6 C20_6 1_555 1_555
C24_6 C26_6 1_555 1_555
Co4_4 O3_7 1_555 1_555
O1_7 C3_7 1_555 1_555
O2_4 C8_7 1_555 1_555
O3_7 C4_7 1_555 1_555
O5_7 Co4_4 1_555 1_555
C1_7 H1_7 1_555 1_555
C2_7 C1_7 1_555 1_555
C3_7 C13_7 1_555 1_555
C4_7 O5_7 1_555 1_555
N1_7 Co4_4 1_555 1_555
C5_7 C4_7 1_555 1_555
C6_7 O1_7 1_555 1_555
C8_7 C2_7 1_555 1_555
C9_7 N1_7 1_555 1_555
H2_7 C9_7 1_555 1_555
C10_7 C1_7 1_555 1_555
H3_7 C10_7 1_555 1_555
C11_7 C9_7 1_555 1_555
C12_7 C5_7 1_555 1_555
H4_7 C12_7 1_555 1_555
C13_7 H5_7 1_555 1_555
C14_7 C3_7 1_555 1_555
H6_7 C14_7 1_555 1_555
C15_7 C2_7 1_555 1_555
C17_7 C5_7 1_555 1_555
H9_7 C17_7 1_555 1_555
C18_5 N1_7 1_555 1_555
H10_5 C18_5 1_555 1_555
C19_7 C6_7 1_555 1_555
H11_7 C19_7 1_555 1_555
N4_7 C25_7 1_555 1_555
C22_5 C11_7 1_555 1_555
H14_5 C22_5 1_555 1_555
C23_5 C18_5 1_555 1_555
H15_5 C23_5 1_555 1_555
C25_7 C11_7 1_555 1_555
H17_8 C25_7 1_555 1_555
C6_7 C10_7 1_555 1_555
C12_7 C14_7 1_555 1_555
C13_7 C17_7 1_555 1_555
C15_7 C19_7 1_555 1_555
C22_5 C23_5 1_555 1_555
C16_7 H8_7 1_555 1_555
N3_7 C20_7 1_555 1_555
C21_7 N5_4 1_555 1_555
H13_7 C21_7 1_555 1_555
C24_7 C7_7 1_555 1_555
H16_7 C24_7 1_555 1_555
C26_7 C21_7 1_555 1_555
H18_7 C26_7 1_555 1_555
C24_7 C26_7 1_555 1_555
O1_8 C3_8 1_555 1_555
O6_4 C8_8 1_555 1_555
O7_3 C8_8 1_555 1_555
C1_8 H1_8 1_555 1_555
C2_8 C1_8 1_555 1_555
C3_8 C13_8 1_555 1_555
N2_4 C16_8 1_555 1_555
C6_8 O1_8 1_555 1_555
C7_8 C16_8 1_555 1_555
C8_8 C2_8 1_555 1_555
C9_8 N1_8 1_555 1_555
H2_8 C9_8 1_555 1_555
C10_8 C1_8 1_555 1_555
H3_8 C10_8 1_555 1_555
C11_8 C9_8 1_555 1_555
C13_8 H5_8 1_555 1_555
C15_8 C2_8 1_555 1_555
H7_8 C15_8 1_555 1_555
C16_8 H8_8 1_555 1_555
C17_8 C5_8 1_555 1_555
H9_8 C17_8 1_555 1_555
N3_8 N4_8 1_555 1_555
C19_8 C6_8 1_555 1_555
H11_8 C19_8 1_555 1_555
N4_8 C25_8 1_555 1_555
C20_8 C7_8 1_555 1_555
H12_8 C20_8 1_555 1_555
C21_8 N2_4 1_555 1_555
H13_8 C21_8 1_555 1_555
C24_8 C7_8 1_555 1_555
H16_8 C24_8 1_555 1_555
C25_8 C11_8 1_555 1_555
H17_9 C25_8 1_555 1_555
C26_8 C21_8 1_555 1_555
H18_8 C26_8 1_555 1_555
Co4_3 N2_4 1_555 1_555
C6_8 C10_8 1_555 1_555
C13_8 C17_8 1_555 1_555
C15_8 C19_8 1_555 1_555
N3_8 C20_8 1_555 1_555
C24_8 C26_8 1_555 1_555
O5_8 Co4_3 1_555 1_555
C4_8 O5_8 1_555 1_555
H4_8 C12_8 1_555 1_555
H6_8 C14_8 1_555 1_555
C12_8 C14_8 1_555 1_555
H10_6 C18_6 1_555 1_555
H14_6 C22_6 1_555 1_555
C23_6 C18_6 1_555 1_555
H15_6 C23_6 1_555 1_555
C22_6 C23_6 1_555 1_555
H10_7 C18_7 1_555 1_555
H14_7 C22_7 1_555 1_555
C23_7 C18_7 1_555 1_555
H15_7 C23_7 1_555 1_555
C22_7 C23_7 1_555 1_555
H10_8 C18_8 1_555 1_555
H14_8 C22_8 1_555 1_555
C23_8 C18_8 1_555 1_555
H15_8 C23_8 1_555 1_555
C22_8 C23_8 1_555 1_555

#END
