
###############################################################################
#
# This file contains modified crystal structure data generated from the
# MOF subset of the Cambridge Structural Database (CSD) v543 
# hosted by the Cambridge Crystallographic Data Centre (CCDC).
#
# This work is licensed under the Creative Commons
# Attribution-NonCommercial-ShareAlike 4.0 International License.
# To view a copy of this license, visit
# http://creativecommons.org/licenses/by-nc-sa/4.0/
# or send a letter to
# Creative Commons, PO Box 1866, Mountain View, CA 94042, USA.
#
# CIF created using the CSD Python API on 29 September 2022
# The structure has been converted into the P1 space group
# The structure has a 3D framework
# The original CSD entry IPOWOA is in the monoclinic crystal system
# The framework has been calculated to contain at least 10.0% void space
# The void calculation uses a probe of radius 1.32A, grid spacing 0.4
#
###############################################################################

data_IPOWOA
_chemical_formula_moiety         '(C96 H136 Cu22 O134)n'
_symmetry_cell_setting           triclinic
_symmetry_space_group_name_H-M   'P 1'
_symmetry_Int_Tables_number      1
_space_group_name_Hall           'P 1'
loop_
_symmetry_equiv_pos_site_id
_symmetry_equiv_pos_as_xyz
1 x,y,z
_cell_length_a                   17.101(3)
_cell_length_b                   8.3971(17)
_cell_length_c                   27.654(6)
_cell_angle_alpha                90
_cell_angle_beta                 104.63(3)
_cell_angle_gamma                90
_cell_volume                     3842.33
loop_
_atom_site_label
_atom_site_type_symbol
_atom_site_fract_x
_atom_site_fract_y
_atom_site_fract_z
Cu1 Cu 0.179972(18) 0.21399(4) 0.224407(11)
Cu2 Cu 0.564456(19) 0.48275(4) 0.418184(11)
Cu3 Cu 0.5000 0.23789(5) 0.2500
C1 C 0.30284(14) 0.2454(3) 0.33145(8)
H1 H 0.3057 0.1576 0.3086
C2 C 0.38574(14) 0.2481(3) 0.37015(8)
H2 H 0.3932 0.1380 0.3823
C3 C 0.39158(14) 0.3474(3) 0.41816(8)
H3 H 0.4417 0.3143 0.4420
C4 C 0.32200(14) 0.2994(3) 0.44143(8)
H4 H 0.3328 0.1876 0.4509
C5 C 0.23689(14) 0.2976(3) 0.40487(8)
H5 H 0.2023 0.2399 0.4223
C6 C 0.23797(14) 0.1962(3) 0.35862(8)
H6 H 0.2562 0.0914 0.3726
C7 C 0.28860(14) 0.3962(3) 0.29911(8)
O1 O 0.23313(11) 0.4001(2) 0.25903(6)
O2 O 0.33673(11) 0.5112(2) 0.31264(6)
C8 C 0.45341(14) 0.2724(3) 0.34408(9)
O3 O 0.43915(11) 0.2207(2) 0.30064(7)
O4 O 0.52146(11) 0.3287(2) 0.36700(7)
C9 C 0.39667(15) 0.5290(3) 0.41348(8)
O5 O 0.46365(11) 0.5912(2) 0.41051(7)
O6 O 0.33755(11) 0.6112(2) 0.41598(7)
C10 C 0.32774(15) 0.3850(3) 0.49095(9)
O7 O 0.39674(11) 0.3893(2) 0.52088(7)
O8 O 0.26503(11) 0.4414(2) 0.50076(7)
C11 C 0.19375(15) 0.4539(3) 0.38813(9)
O9 O 0.17007(12) 0.5413(2) 0.42193(7)
H7 H 0.1941 0.5148 0.4503
O10 O 0.17299(13) 0.4902(2) 0.34436(7)
C12 C 0.15215(15) 0.1654(3) 0.32712(9)
O11 O 0.09777(11) 0.1509(2) 0.34984(7)
O12 O 0.13819(11) 0.1426(2) 0.27996(6)
O13 O 0.05004(12) 0.3064(3) 0.18618(8)
H8 H 0.0469 0.3582 0.1612
H9 H 0.0151 0.2391 0.1803
O14 O 0.20855(12) 0.3108(2) 0.16534(7)
H10 H 0.2577 0.3127 0.1704
H11 H 0.1983 0.2515 0.1409
O15 O 0.66894(12) 0.3788(2) 0.42274(7)
H12 H 0.7025 0.4091 0.4476
H13 H 0.6683 0.2811 0.4256
O16 O 0.37139(12) 0.2792(2) 0.19117(7)
H14 H 0.3621 0.1864 0.1829
H15 H 0.3979 0.3129 0.1725
O17 O 0.5000 0.4705(3) 0.2500
H16 H 0.4567 0.5161 0.2400
O18 O 0.5000 0.0074(4) 0.2500
Cu4 Cu 0.820028(18) 0.21399(4) 0.275593(11)
Cu5 Cu 0.320028(18) 0.71399(4) 0.275593(11)
Cu6 Cu 0.679972(18) 0.71399(4) 0.224407(11)
Cu7 Cu 0.435544(19) 0.48275(4) 0.081816(11)
Cu8 Cu 0.435544(19) 0.51725(4) 0.581816(11)
C13 C 0.69716(14) 0.2454(3) 0.16855(8)
H18 H 0.6943 0.1576 0.1914
C14 C 0.61426(14) 0.2481(3) 0.12985(8)
H19 H 0.6068 0.1380 0.1177
C15 C 0.60842(14) 0.3474(3) 0.08184(8)
H20 H 0.5583 0.3143 0.0580
C16 C 0.67800(14) 0.2994(3) 0.05857(8)
H21 H 0.6672 0.1876 0.0491
C17 C 0.76311(14) 0.2976(3) 0.09513(8)
H22 H 0.7977 0.2399 0.0777
C18 C 0.76203(14) 0.1962(3) 0.14138(8)
H23 H 0.7438 0.0914 0.1274
C19 C 0.71140(14) 0.3962(3) 0.20089(8)
O19 O 0.76687(11) 0.4001(2) 0.24097(6)
O20 O 0.66327(11) 0.5112(2) 0.18736(6)
O21 O 0.16327(11) 0.0112(2) 0.18736(6)
O22 O 0.83673(11) 0.0112(2) 0.31264(6)
C20 C 0.54659(14) 0.2724(3) 0.15592(9)
O23 O 0.56085(11) 0.2207(2) 0.19936(7)
O24 O 0.47854(11) 0.3287(2) 0.13300(7)
C21 C 0.60333(15) 0.5290(3) 0.08652(8)
O25 O 0.53635(11) 0.5912(2) 0.08949(7)
O26 O 0.66245(11) 0.6112(2) 0.08402(7)
C22 C 0.67226(15) 0.3850(3) 0.00905(9)
O28 O 0.60326(11) 0.6107(2) 0.47912(7)
O29 O 0.39674(11) 0.6107(2) 0.02088(7)
C23 C 0.80625(15) 0.4539(3) 0.11187(9)
O31 O 0.82993(12) 0.5413(2) 0.07807(7)
H24 H 0.8059 0.5148 0.0497
O32 O 0.82701(13) 0.4902(2) 0.15564(7)
C24 C 0.84785(15) 0.1654(3) 0.17288(9)
O33 O 0.90223(11) 0.1509(2) 0.15016(7)
O34 O 0.59777(11) 0.6509(2) 0.34984(7)
O35 O 0.40223(11) 0.6509(2) 0.15016(7)
O36 O 0.86181(11) 0.1426(2) 0.22004(6)
O37 O 0.94996(12) 0.3064(3) 0.31382(8)
H25 H 0.9531 0.3582 0.3388
H26 H 0.9849 0.2391 0.3197
O38 O 0.79145(12) 0.3108(2) 0.33466(7)
H27 H 0.7423 0.3127 0.3296
H28 H 0.8017 0.2515 0.3591
O39 O 0.33106(12) 0.3788(2) 0.07726(7)
H29 H 0.2975 0.4091 0.0524
H30 H 0.3317 0.2811 0.0744
O40 O 0.62861(12) 0.2792(2) 0.30883(7)
H31 H 0.6379 0.1864 0.3171
H32 H 0.6021 0.3129 0.3275
H33 H 0.5433 0.5161 0.2600
Cu10 Cu 0.564456(19) 0.51725(4) 0.918184(11)
O27 O 0.60326(11) 0.3893(2) 0.97912(7)
O30 O 0.73497(11) 0.4414(2) 0.99924(7)
H17 H 0.4871 0.9484 0.2697
Cu9 Cu 0.064456(19) 0.98275(4) 0.418184(11)
Cu11 Cu 0.935544(19) 0.98275(4) 0.081816(11)
H34 H 0.5129 0.9484 0.2303
C21_2 C 0.10333(15) 0.0290(3) 0.08652(8)
O25_2 O 0.03635(11) 0.0912(2) 0.08949(7)
O26_2 O 0.16245(11) 0.1112(2) 0.08402(7)
O28_2 O 0.10326(11) 0.1107(2) 0.47912(7)
O31_2 O 0.32993(12) 0.0413(2) 0.07807(7)
H24_2 H 0.3059 0.0148 0.0497
H33_2 H 0.0433 0.0161 0.2600
Cu10_2 Cu 0.064456(19) 0.01725(4) 0.918184(11)
Cu3_2 Cu -0.0000 0.73789(5) 0.2500
O4_2 O 0.02146(11) 0.8287(2) 0.36700(7)
O15_2 O 0.16894(12) 0.8788(2) 0.42274(7)
H12_2 H 0.2025 0.9091 0.4476
H13_2 H 0.1683 0.7811 0.4256
O17_2 O -0.0000 0.9705(3) 0.2500
O18_2 O -0.0000 0.5074(4) 0.2500
C13_2 C 0.19716(14) 0.7454(3) 0.16855(8)
H18_2 H 0.1943 0.6576 0.1914
C14_2 C 0.11426(14) 0.7481(3) 0.12985(8)
H19_2 H 0.1068 0.6380 0.1177
C15_2 C 0.10842(14) 0.8474(3) 0.08184(8)
H20_2 H 0.0583 0.8143 0.0580
C16_2 C 0.17800(14) 0.7994(3) 0.05857(8)
H21_2 H 0.1672 0.6876 0.0491
C17_2 C 0.26311(14) 0.7976(3) 0.09513(8)
H22_2 H 0.2977 0.7399 0.0777
C18_2 C 0.26203(14) 0.6962(3) 0.14138(8)
H23_2 H 0.2438 0.5914 0.1274
C19_2 C 0.21140(14) 0.8962(3) 0.20089(8)
O19_2 O 0.26687(11) 0.9001(2) 0.24097(6)
C20_2 C 0.04659(14) 0.7724(3) 0.15592(9)
O23_2 O 0.06085(11) 0.7207(2) 0.19936(7)
C22_2 C 0.17226(15) 0.8850(3) 0.00905(9)
C23_2 C 0.30625(15) 0.9539(3) 0.11187(9)
O32_2 O 0.32701(13) 0.9902(2) 0.15564(7)
C24_2 C 0.34785(15) 0.6654(3) 0.17288(9)
O36_2 O 0.36181(11) 0.6426(2) 0.22004(6)
O37_2 O 0.44996(12) 0.8064(3) 0.31382(8)
H25_2 H 0.4531 0.8582 0.3388
H26_2 H 0.4849 0.7391 0.3197
O38_2 O 0.29145(12) 0.8108(2) 0.33466(7)
H27_2 H 0.2423 0.8127 0.3296
H28_2 H 0.3017 0.7515 0.3591
O40_2 O 0.12861(12) 0.7792(2) 0.30883(7)
H31_2 H 0.1379 0.6864 0.3171
H32_2 H 0.1021 0.8129 0.3275
H34_2 H 0.0129 0.4484 0.2303
O27_2 O 0.10326(11) 0.8893(2) 0.97912(7)
O30_2 O 0.23497(11) 0.9414(2) 0.99924(7)
C9_2 C 0.89667(15) 0.0290(3) 0.41348(8)
O5_2 O 0.96365(11) 0.0912(2) 0.41051(7)
O6_2 O 0.83755(11) 0.1112(2) 0.41598(7)
O9_2 O 0.67007(12) 0.0413(2) 0.42193(7)
H7_2 H 0.6941 0.0148 0.4503
H16_2 H 0.9567 0.0161 0.2400
Cu8_2 Cu 0.935544(19) 0.01725(4) 0.581816(11)
O29_2 O 0.89674(11) 0.1107(2) 0.02088(7)
Cu3_3 Cu 1.0000 0.73789(5) 0.2500
C1_2 C 0.80284(14) 0.7454(3) 0.33145(8)
H1_2 H 0.8057 0.6576 0.3086
C2_2 C 0.88574(14) 0.7481(3) 0.37015(8)
H2_2 H 0.8932 0.6380 0.3823
C3_2 C 0.89158(14) 0.8474(3) 0.41816(8)
H3_2 H 0.9417 0.8143 0.4420
C4_2 C 0.82200(14) 0.7994(3) 0.44143(8)
H4_2 H 0.8328 0.6876 0.4509
C5_2 C 0.73689(14) 0.7976(3) 0.40487(8)
H5_2 H 0.7023 0.7399 0.4223
C6_2 C 0.73797(14) 0.6962(3) 0.35862(8)
H6_2 H 0.7562 0.5914 0.3726
C7_2 C 0.78860(14) 0.8962(3) 0.29911(8)
O1_2 O 0.73313(11) 0.9001(2) 0.25903(6)
C8_2 C 0.95341(14) 0.7724(3) 0.34408(9)
O3_2 O 0.93915(11) 0.7207(2) 0.30064(7)
C10_2 C 0.82774(15) 0.8850(3) 0.49095(9)
O7_2 O 0.89674(11) 0.8893(2) 0.52088(7)
O8_2 O 0.76503(11) 0.9414(2) 0.50076(7)
C11_2 C 0.69375(15) 0.9539(3) 0.38813(9)
O10_2 O 0.67299(13) 0.9902(2) 0.34436(7)
C12_2 C 0.65215(15) 0.6654(3) 0.32712(9)
O12_2 O 0.63819(11) 0.6426(2) 0.27996(6)
O13_2 O 0.55004(12) 0.8064(3) 0.18618(8)
H8_2 H 0.5469 0.8582 0.1612
H9_2 H 0.5151 0.7391 0.1803
O14_2 O 0.70855(12) 0.8108(2) 0.16534(7)
H10_2 H 0.7577 0.8127 0.1704
H11_2 H 0.6983 0.7515 0.1409
O16_2 O 0.87139(12) 0.7792(2) 0.19117(7)
H14_2 H 0.8621 0.6864 0.1829
H15_2 H 0.8979 0.8129 0.1725
O17_3 O 1.0000 0.9705(3) 0.2500
O18_3 O 1.0000 0.5074(4) 0.2500
H17_2 H 0.9871 0.4484 0.2697
O24_2 O 0.97854(11) 0.8287(2) 0.13300(7)
O39_2 O 0.83106(12) 0.8788(2) 0.07726(7)
H29_2 H 0.7975 0.9091 0.0524
H30_2 H 0.8317 0.7811 0.0744
H17_3 H 0.5129 0.0516 0.7303
H34_3 H 0.4871 0.0516 0.7697
O30_3 O 0.26503(11) 0.5586(2) 0.00076(7)
Cu1_2 Cu 0.820028(18) 0.78601(4) 0.775593(11)
Cu3_4 Cu 0.5000 0.76211(5) 0.7500
C1_3 C 0.69716(14) 0.7546(3) 0.66855(8)
H1_3 H 0.6943 0.8424 0.6914
C2_3 C 0.61426(14) 0.7519(3) 0.62985(8)
H2_3 H 0.6068 0.8620 0.6177
C3_3 C 0.60842(14) 0.6526(3) 0.58184(8)
H3_3 H 0.5583 0.6857 0.5580
C4_3 C 0.67800(14) 0.7006(3) 0.55857(8)
H4_3 H 0.6672 0.8124 0.5491
C5_3 C 0.76311(14) 0.7024(3) 0.59513(8)
H5_3 H 0.7977 0.7601 0.5777
C6_3 C 0.76203(14) 0.8038(3) 0.64138(8)
H6_3 H 0.7438 0.9086 0.6274
C7_3 C 0.71140(14) 0.6038(3) 0.70089(8)
O1_3 O 0.76687(11) 0.5999(2) 0.74097(6)
O2_2 O 0.66327(11) 0.4888(2) 0.68736(6)
C8_3 C 0.54659(14) 0.7276(3) 0.65592(9)
O3_3 O 0.56085(11) 0.7793(2) 0.69936(7)
O4_3 O 0.47854(11) 0.6713(2) 0.63300(7)
C9_3 C 0.60333(15) 0.4710(3) 0.58652(8)
O5_3 O 0.53635(11) 0.4088(2) 0.58949(7)
O6_3 O 0.66245(11) 0.3888(2) 0.58402(7)
C10_3 C 0.67226(15) 0.6150(3) 0.50905(9)
O8_3 O 0.73497(11) 0.5586(2) 0.49924(7)
C11_3 C 0.80625(15) 0.5461(3) 0.61187(9)
O9_3 O 0.82993(12) 0.4587(2) 0.57807(7)
H7_3 H 0.8059 0.4852 0.5497
O10_3 O 0.82701(13) 0.5098(2) 0.65564(7)
C12_3 C 0.84785(15) 0.8346(3) 0.67288(9)
O11_2 O 0.90223(11) 0.8491(2) 0.65016(7)
O12_3 O 0.86181(11) 0.8574(2) 0.72004(6)
O13_3 O 0.94996(12) 0.6936(3) 0.81382(8)
H8_3 H 0.9531 0.6418 0.8388
H9_3 H 0.9849 0.7609 0.8197
O14_3 O 0.79145(12) 0.6892(2) 0.83466(7)
H10_3 H 0.7423 0.6873 0.8296
H11_3 H 0.8017 0.7485 0.8591
O15_3 O 0.33106(12) 0.6212(2) 0.57726(7)
H12_3 H 0.2975 0.5909 0.5524
H13_3 H 0.3317 0.7189 0.5744
O16_3 O 0.62861(12) 0.7208(2) 0.80883(7)
H14_3 H 0.6379 0.8136 0.8171
H15_3 H 0.6021 0.6871 0.8275
O17_4 O 0.5000 0.5295(3) 0.7500
H16_3 H 0.5433 0.4839 0.7600
O18_4 O 0.5000 0.9926(4) 0.7500
Cu4_2 Cu 0.179972(18) 0.78601(4) 0.724407(11)
Cu5_2 Cu 0.679972(18) 0.28601(4) 0.724407(11)
Cu6_2 Cu 0.320028(18) 0.28601(4) 0.775593(11)
C13_3 C 0.30284(14) 0.7546(3) 0.83145(8)
H18_3 H 0.3057 0.8424 0.8086
C14_3 C 0.38574(14) 0.7519(3) 0.87015(8)
H19_3 H 0.3932 0.8620 0.8823
C15_3 C 0.39158(14) 0.6526(3) 0.91816(8)
H20_3 H 0.4417 0.6857 0.9420
C16_3 C 0.32200(14) 0.7006(3) 0.94143(8)
H21_3 H 0.3328 0.8124 0.9509
C17_3 C 0.23689(14) 0.7024(3) 0.90487(8)
H22_3 H 0.2023 0.7601 0.9223
C18_3 C 0.23797(14) 0.8038(3) 0.85862(8)
H23_3 H 0.2562 0.9086 0.8726
C19_3 C 0.28860(14) 0.6038(3) 0.79911(8)
O19_3 O 0.23313(11) 0.5999(2) 0.75903(6)
O20_2 O 0.33673(11) 0.4888(2) 0.81264(6)
O21_2 O 0.83673(11) 0.9888(2) 0.81264(6)
O22_2 O 0.16327(11) 0.9888(2) 0.68736(6)
C20_3 C 0.45341(14) 0.7276(3) 0.84408(9)
O23_3 O 0.43915(11) 0.7793(2) 0.80064(7)
O24_3 O 0.52146(11) 0.6713(2) 0.86700(7)
C21_3 C 0.39667(15) 0.4710(3) 0.91348(8)
O25_3 O 0.46365(11) 0.4088(2) 0.91051(7)
O26_3 O 0.33755(11) 0.3888(2) 0.91598(7)
C22_3 C 0.32774(15) 0.6150(3) 0.99095(9)
C23_3 C 0.19375(15) 0.5461(3) 0.88813(9)
O31_3 O 0.17007(12) 0.4587(2) 0.92193(7)
H24_3 H 0.1941 0.4852 0.9503
O32_3 O 0.17299(13) 0.5098(2) 0.84436(7)
C24_3 C 0.15215(15) 0.8346(3) 0.82712(9)
O33_2 O 0.09777(11) 0.8491(2) 0.84984(7)
O34_2 O 0.40223(11) 0.3491(2) 0.65016(7)
O35_2 O 0.59777(11) 0.3491(2) 0.84984(7)
O36_3 O 0.13819(11) 0.8574(2) 0.77996(6)
O37_3 O 0.05004(12) 0.6936(3) 0.68618(8)
H25_3 H 0.0469 0.6418 0.6612
H26_3 H 0.0151 0.7609 0.6803
O38_3 O 0.20855(12) 0.6892(2) 0.66534(7)
H27_3 H 0.2577 0.6873 0.6704
H28_3 H 0.1983 0.7485 0.6409
O39_3 O 0.66894(12) 0.6212(2) 0.92274(7)
H29_3 H 0.7025 0.5909 0.9476
H30_3 H 0.6683 0.7189 0.9256
O40_3 O 0.37139(12) 0.7208(2) 0.69117(7)
H31_3 H 0.3621 0.8136 0.6829
H32_3 H 0.3979 0.6871 0.6725
H33_3 H 0.4567 0.4839 0.7400
Cu3_5 Cu 0.0000 0.26211(5) 0.7500
C1_4 C 0.19716(14) 0.2546(3) 0.66855(8)
H1_4 H 0.1943 0.3424 0.6914
C2_4 C 0.11426(14) 0.2519(3) 0.62985(8)
H2_4 H 0.1068 0.3620 0.6177
C3_4 C 0.10842(14) 0.1526(3) 0.58184(8)
H3_4 H 0.0583 0.1857 0.5580
C4_4 C 0.17800(14) 0.2006(3) 0.55857(8)
H4_4 H 0.1672 0.3124 0.5491
C5_4 C 0.26311(14) 0.2024(3) 0.59513(8)
H5_4 H 0.2977 0.2601 0.5777
C6_4 C 0.26203(14) 0.3038(3) 0.64138(8)
H6_4 H 0.2438 0.4086 0.6274
C7_4 C 0.21140(14) 0.1038(3) 0.70089(8)
O1_4 O 0.26687(11) 0.0999(2) 0.74097(6)
C8_4 C 0.04659(14) 0.2276(3) 0.65592(9)
O3_4 O 0.06085(11) 0.2793(2) 0.69936(7)
C10_4 C 0.17226(15) 0.1150(3) 0.50905(9)
O8_4 O 0.23497(11) 0.0586(2) 0.49924(7)
C11_4 C 0.30625(15) 0.0461(3) 0.61187(9)
O10_4 O 0.32701(13) 0.0098(2) 0.65564(7)
C12_4 C 0.34785(15) 0.3346(3) 0.67288(9)
O12_4 O 0.36181(11) 0.3574(2) 0.72004(6)
O13_4 O 0.44996(12) 0.1936(3) 0.81382(8)
H8_4 H 0.4531 0.1418 0.8388
H9_4 H 0.4849 0.2609 0.8197
O14_4 O 0.29145(12) 0.1892(2) 0.83466(7)
H10_4 H 0.2423 0.1873 0.8296
H11_4 H 0.3017 0.2485 0.8591
O16_4 O 0.12861(12) 0.2208(2) 0.80883(7)
H14_4 H 0.1379 0.3136 0.8171
H15_4 H 0.1021 0.1871 0.8275
O17_5 O 0.0000 0.0295(3) 0.7500
O18_5 O 0.0000 0.4926(4) 0.7500
H17_4 H 0.0129 0.5516 0.7303
O24_4 O 0.02146(11) 0.1713(2) 0.86700(7)
O39_4 O 0.16894(12) 0.1212(2) 0.92274(7)
H29_4 H 0.2025 0.0909 0.9476
H30_4 H 0.1683 0.2189 0.9256
C9_4 C 0.10333(15) 0.9710(3) 0.58652(8)
O5_4 O 0.03635(11) 0.9088(2) 0.58949(7)
O6_4 O 0.16245(11) 0.8888(2) 0.58402(7)
O9_4 O 0.32993(12) 0.9587(2) 0.57807(7)
H7_4 H 0.3059 0.9852 0.5497
H16_4 H 0.0433 0.9839 0.7600
O30_4 O 0.76503(11) 0.0586(2) 0.00076(7)
Cu3_6 Cu 1.0000 0.26211(5) 0.7500
O4_4 O 0.97854(11) 0.1713(2) 0.63300(7)
O15_4 O 0.83106(12) 0.1212(2) 0.57726(7)
H12_4 H 0.7975 0.0909 0.5524
H13_4 H 0.8317 0.2189 0.5744
O17_6 O 1.0000 0.0295(3) 0.7500
O18_6 O 1.0000 0.4926(4) 0.7500
C13_4 C 0.80284(14) 0.2546(3) 0.83145(8)
H18_4 H 0.8057 0.3424 0.8086
C14_4 C 0.88574(14) 0.2519(3) 0.87015(8)
H19_4 H 0.8932 0.3620 0.8823
C15_4 C 0.89158(14) 0.1526(3) 0.91816(8)
H20_4 H 0.9417 0.1857 0.9420
C16_4 C 0.82200(14) 0.2006(3) 0.94143(8)
H21_4 H 0.8328 0.3124 0.9509
C17_4 C 0.73689(14) 0.2024(3) 0.90487(8)
H22_4 H 0.7023 0.2601 0.9223
C18_4 C 0.73797(14) 0.3038(3) 0.85862(8)
H23_4 H 0.7562 0.4086 0.8726
C19_4 C 0.78860(14) 0.1038(3) 0.79911(8)
O19_4 O 0.73313(11) 0.0999(2) 0.75903(6)
C20_4 C 0.95341(14) 0.2276(3) 0.84408(9)
O23_4 O 0.93915(11) 0.2793(2) 0.80064(7)
C22_4 C 0.82774(15) 0.1150(3) 0.99095(9)
C23_4 C 0.69375(15) 0.0461(3) 0.88813(9)
O32_4 O 0.67299(13) 0.0098(2) 0.84436(7)
C24_4 C 0.65215(15) 0.3346(3) 0.82712(9)
O36_4 O 0.63819(11) 0.3574(2) 0.77996(6)
O37_4 O 0.55004(12) 0.1936(3) 0.68618(8)
H25_4 H 0.5469 0.1418 0.6612
H26_4 H 0.5151 0.2609 0.6803
O38_4 O 0.70855(12) 0.1892(2) 0.66534(7)
H27_4 H 0.7577 0.1873 0.6704
H28_4 H 0.6983 0.2485 0.6409
O40_4 O 0.87139(12) 0.2208(2) 0.69117(7)
H31_4 H 0.8621 0.3136 0.6829
H32_4 H 0.8979 0.1871 0.6725
H34_4 H 0.9871 0.5516 0.7697
C21_4 C 0.89667(15) 0.9710(3) 0.91348(8)
O25_4 O 0.96365(11) 0.9088(2) 0.91051(7)
O26_4 O 0.83755(11) 0.8888(2) 0.91598(7)
O31_4 O 0.67007(12) 0.9587(2) 0.92193(7)
H24_4 H 0.6941 0.9852 0.9503
H33_4 H 0.9567 0.9839 0.7400
loop_
_geom_bond_atom_site_label_1
_geom_bond_atom_site_label_2
_geom_bond_site_symmetry_1
_geom_bond_site_symmetry_2
Cu1 O1 1_555 1_555
Cu2 O4 1_555 1_555
Cu3 O3 1_555 1_555
C1 H1 1_555 1_555
C2 C1 1_555 1_555
H2 C2 1_555 1_555
C3 C2 1_555 1_555
H3 C3 1_555 1_555
C4 C3 1_555 1_555
H4 C4 1_555 1_555
C5 C4 1_555 1_555
H5 C5 1_555 1_555
C6 C1 1_555 1_555
H6 C6 1_555 1_555
C7 C1 1_555 1_555
O1 C7 1_555 1_555
O2 C7 1_555 1_555
C8 C2 1_555 1_555
O3 C8 1_555 1_555
O4 C8 1_555 1_555
C9 C3 1_555 1_555
O5 Cu2 1_555 1_555
O6 C9 1_555 1_555
C10 C4 1_555 1_555
O7 C10 1_555 1_555
O8 C10 1_555 1_555
C11 C5 1_555 1_555
O9 C11 1_555 1_555
H7 O9 1_555 1_555
O10 C11 1_555 1_555
C12 C6 1_555 1_555
O11 C12 1_555 1_555
O12 Cu1 1_555 1_555
O13 Cu1 1_555 1_555
H8 O13 1_555 1_555
H9 O13 1_555 1_555
O14 Cu1 1_555 1_555
H10 O14 1_555 1_555
H11 O14 1_555 1_555
O15 Cu2 1_555 1_555
H12 O15 1_555 1_555
H13 O15 1_555 1_555
O16 Cu3 1_555 1_555
H14 O16 1_555 1_555
H15 O16 1_555 1_555
O17 Cu3 1_555 1_555
H16 O17 1_555 1_555
O18 Cu3 1_555 1_555
Cu4 O19 1_555 1_555
Cu5 O2 1_555 1_555
Cu6 O20 1_555 1_555
Cu7 O24 1_555 1_555
Cu8 O7 1_555 1_555
C13 H18 1_555 1_555
C14 C13 1_555 1_555
H19 C14 1_555 1_555
C15 C14 1_555 1_555
H20 C15 1_555 1_555
C16 C15 1_555 1_555
H21 C16 1_555 1_555
C17 C16 1_555 1_555
H22 C17 1_555 1_555
C18 C13 1_555 1_555
H23 C18 1_555 1_555
C19 C13 1_555 1_555
O19 C19 1_555 1_555
O20 C19 1_555 1_555
O21 Cu1 1_555 1_555
O22 Cu4 1_555 1_555
C20 C14 1_555 1_555
O23 Cu3 1_555 1_555
O24 C20 1_555 1_555
C21 C15 1_555 1_555
O25 Cu7 1_555 1_555
O26 C21 1_555 1_555
C22 C16 1_555 1_555
O28 Cu2 1_555 1_555
O29 Cu7 1_555 1_555
C23 C17 1_555 1_555
O31 C23 1_555 1_555
H24 O31 1_555 1_555
O32 C23 1_555 1_555
C24 C18 1_555 1_555
O33 C24 1_555 1_555
O34 Cu2 1_555 1_555
O35 Cu7 1_555 1_555
O36 Cu4 1_555 1_555
O37 Cu4 1_555 1_555
H25 O37 1_555 1_555
H26 O37 1_555 1_555
O38 Cu4 1_555 1_555
H27 O38 1_555 1_555
H28 O38 1_555 1_555
O39 Cu7 1_555 1_555
H29 O39 1_555 1_555
H30 O39 1_555 1_555
O40 Cu3 1_555 1_555
H31 O40 1_555 1_555
H32 O40 1_555 1_555
H33 O17 1_555 1_555
C5 C6 1_555 1_555
C9 O5 1_555 1_555
C12 O12 1_555 1_555
C17 C18 1_555 1_555
C20 O23 1_555 1_555
C21 O25 1_555 1_555
C24 O36 1_555 1_555
Cu10 O27 1_555 1_555
O26_2 C21_2 1_555 1_555
H24_2 O31_2 1_555 1_555
C21_2 O25_2 1_555 1_555
Cu9 O4_2 1_555 1_555
O15_2 Cu9 1_555 1_555
H12_2 O15_2 1_555 1_555
H13_2 O15_2 1_555 1_555
O17_2 Cu3_2 1_555 1_555
O18_2 Cu3_2 1_555 1_555
Cu5 O19_2 1_555 1_555
C13_2 H18_2 1_555 1_555
C14_2 C13_2 1_555 1_555
H19_2 C14_2 1_555 1_555
C15_2 C14_2 1_555 1_555
H20_2 C15_2 1_555 1_555
C16_2 C15_2 1_555 1_555
H21_2 C16_2 1_555 1_555
C17_2 C16_2 1_555 1_555
H22_2 C17_2 1_555 1_555
C18_2 C13_2 1_555 1_555
H23_2 C18_2 1_555 1_555
C19_2 C13_2 1_555 1_555
O19_2 C19_2 1_555 1_555
C20_2 C14_2 1_555 1_555
O23_2 Cu3_2 1_555 1_555
C22_2 C16_2 1_555 1_555
C23_2 C17_2 1_555 1_555
O32_2 C23_2 1_555 1_555
C24_2 C18_2 1_555 1_555
O35 C24_2 1_555 1_555
O36_2 Cu5 1_555 1_555
O37_2 Cu5 1_555 1_555
H25_2 O37_2 1_555 1_555
H26_2 O37_2 1_555 1_555
O38_2 Cu5 1_555 1_555
H27_2 O38_2 1_555 1_555
H28_2 O38_2 1_555 1_555
O40_2 Cu3_2 1_555 1_555
H31_2 O40_2 1_555 1_555
H32_2 O40_2 1_555 1_555
H34_2 O18_2 1_555 1_555
C17_2 C18_2 1_555 1_555
C20_2 O23_2 1_555 1_555
C24_2 O36_2 1_555 1_555
O6_2 C9_2 1_555 1_555
H7_2 O9_2 1_555 1_555
C9_2 O5_2 1_555 1_555
Cu6 O1_2 1_555 1_555
Cu3_3 O3_2 1_555 1_555
C1_2 H1_2 1_555 1_555
C2_2 C1_2 1_555 1_555
H2_2 C2_2 1_555 1_555
C3_2 C2_2 1_555 1_555
H3_2 C3_2 1_555 1_555
C4_2 C3_2 1_555 1_555
H4_2 C4_2 1_555 1_555
C5_2 C4_2 1_555 1_555
H5_2 C5_2 1_555 1_555
C6_2 C1_2 1_555 1_555
H6_2 C6_2 1_555 1_555
C7_2 C1_2 1_555 1_555
O1_2 C7_2 1_555 1_555
C8_2 C2_2 1_555 1_555
O3_2 C8_2 1_555 1_555
C10_2 C4_2 1_555 1_555
O7_2 C10_2 1_555 1_555
O8_2 C10_2 1_555 1_555
C11_2 C5_2 1_555 1_555
O10_2 C11_2 1_555 1_555
C12_2 C6_2 1_555 1_555
O34 C12_2 1_555 1_555
O12_2 Cu6 1_555 1_555
O13_2 Cu6 1_555 1_555
H8_2 O13_2 1_555 1_555
H9_2 O13_2 1_555 1_555
O14_2 Cu6 1_555 1_555
H10_2 O14_2 1_555 1_555
H11_2 O14_2 1_555 1_555
O16_2 Cu3_3 1_555 1_555
H14_2 O16_2 1_555 1_555
H15_2 O16_2 1_555 1_555
O17_3 Cu3_3 1_555 1_555
O18_3 Cu3_3 1_555 1_555
H17_2 O18_3 1_555 1_555
Cu11 O24_2 1_555 1_555
O39_2 Cu11 1_555 1_555
H29_2 O39_2 1_555 1_555
H30_2 O39_2 1_555 1_555
C5_2 C6_2 1_555 1_555
C12_2 O12_2 1_555 1_555
Cu1_2 O1_3 1_555 1_555
Cu8 O4_3 1_555 1_555
Cu3_4 O3_3 1_555 1_555
C1_3 H1_3 1_555 1_555
C2_3 C1_3 1_555 1_555
H2_3 C2_3 1_555 1_555
C3_3 C2_3 1_555 1_555
H3_3 C3_3 1_555 1_555
C4_3 C3_3 1_555 1_555
H4_3 C4_3 1_555 1_555
C5_3 C4_3 1_555 1_555
H5_3 C5_3 1_555 1_555
C6_3 C1_3 1_555 1_555
H6_3 C6_3 1_555 1_555
C7_3 C1_3 1_555 1_555
O1_3 C7_3 1_555 1_555
O2_2 C7_3 1_555 1_555
C8_3 C2_3 1_555 1_555
O3_3 C8_3 1_555 1_555
O4_3 C8_3 1_555 1_555
C9_3 C3_3 1_555 1_555
O5_3 Cu8 1_555 1_555
O6_3 C9_3 1_555 1_555
C10_3 C4_3 1_555 1_555
O28 C10_3 1_555 1_555
O8_3 C10_3 1_555 1_555
C11_3 C5_3 1_555 1_555
O9_3 C11_3 1_555 1_555
H7_3 O9_3 1_555 1_555
O10_3 C11_3 1_555 1_555
C12_3 C6_3 1_555 1_555
O11_2 C12_3 1_555 1_555
O12_3 Cu1_2 1_555 1_555
O13_3 Cu1_2 1_555 1_555
H8_3 O13_3 1_555 1_555
H9_3 O13_3 1_555 1_555
O14_3 Cu1_2 1_555 1_555
H10_3 O14_3 1_555 1_555
H11_3 O14_3 1_555 1_555
O15_3 Cu8 1_555 1_555
H12_3 O15_3 1_555 1_555
H13_3 O15_3 1_555 1_555
O16_3 Cu3_4 1_555 1_555
H14_3 O16_3 1_555 1_555
H15_3 O16_3 1_555 1_555
O17_4 Cu3_4 1_555 1_555
H16_3 O17_4 1_555 1_555
O18_4 Cu3_4 1_555 1_555
Cu4_2 O19_3 1_555 1_555
Cu5_2 O2_2 1_555 1_555
Cu6_2 O20_2 1_555 1_555
Cu10 O24_3 1_555 1_555
C13_3 H18_3 1_555 1_555
C14_3 C13_3 1_555 1_555
H19_3 C14_3 1_555 1_555
C15_3 C14_3 1_555 1_555
H20_3 C15_3 1_555 1_555
C16_3 C15_3 1_555 1_555
H21_3 C16_3 1_555 1_555
C17_3 C16_3 1_555 1_555
H22_3 C17_3 1_555 1_555
C18_3 C13_3 1_555 1_555
H23_3 C18_3 1_555 1_555
C19_3 C13_3 1_555 1_555
O19_3 C19_3 1_555 1_555
O20_2 C19_3 1_555 1_555
O21_2 Cu1_2 1_555 1_555
O22_2 Cu4_2 1_555 1_555
C20_3 C14_3 1_555 1_555
O23_3 Cu3_4 1_555 1_555
O24_3 C20_3 1_555 1_555
C21_3 C15_3 1_555 1_555
O25_3 Cu10 1_555 1_555
O26_3 C21_3 1_555 1_555
C22_3 C16_3 1_555 1_555
C23_3 C17_3 1_555 1_555
O31_3 C23_3 1_555 1_555
H24_3 O31_3 1_555 1_555
O32_3 C23_3 1_555 1_555
C24_3 C18_3 1_555 1_555
O33_2 C24_3 1_555 1_555
O34_2 Cu8 1_555 1_555
O35_2 Cu10 1_555 1_555
O36_3 Cu4_2 1_555 1_555
O37_3 Cu4_2 1_555 1_555
H25_3 O37_3 1_555 1_555
H26_3 O37_3 1_555 1_555
O38_3 Cu4_2 1_555 1_555
H27_3 O38_3 1_555 1_555
H28_3 O38_3 1_555 1_555
O39_3 Cu10 1_555 1_555
H29_3 O39_3 1_555 1_555
H30_3 O39_3 1_555 1_555
O40_3 Cu3_4 1_555 1_555
H31_3 O40_3 1_555 1_555
H32_3 O40_3 1_555 1_555
H33_3 O17_4 1_555 1_555
C5_3 C6_3 1_555 1_555
C9_3 O5_3 1_555 1_555
C12_3 O12_3 1_555 1_555
C17_3 C18_3 1_555 1_555
C20_3 O23_3 1_555 1_555
C21_3 O25_3 1_555 1_555
C24_3 O36_3 1_555 1_555
Cu6_2 O1_4 1_555 1_555
Cu3_5 O3_4 1_555 1_555
C1_4 H1_4 1_555 1_555
C2_4 C1_4 1_555 1_555
H2_4 C2_4 1_555 1_555
C3_4 C2_4 1_555 1_555
H3_4 C3_4 1_555 1_555
C4_4 C3_4 1_555 1_555
H4_4 C4_4 1_555 1_555
C5_4 C4_4 1_555 1_555
H5_4 C5_4 1_555 1_555
C6_4 C1_4 1_555 1_555
H6_4 C6_4 1_555 1_555
C7_4 C1_4 1_555 1_555
O1_4 C7_4 1_555 1_555
C8_4 C2_4 1_555 1_555
O3_4 C8_4 1_555 1_555
C10_4 C4_4 1_555 1_555
O28_2 C10_4 1_555 1_555
O8_4 C10_4 1_555 1_555
C11_4 C5_4 1_555 1_555
O10_4 C11_4 1_555 1_555
C12_4 C6_4 1_555 1_555
O34_2 C12_4 1_555 1_555
O12_4 Cu6_2 1_555 1_555
O13_4 Cu6_2 1_555 1_555
H8_4 O13_4 1_555 1_555
H9_4 O13_4 1_555 1_555
O14_4 Cu6_2 1_555 1_555
H10_4 O14_4 1_555 1_555
H11_4 O14_4 1_555 1_555
O16_4 Cu3_5 1_555 1_555
H14_4 O16_4 1_555 1_555
H15_4 O16_4 1_555 1_555
O17_5 Cu3_5 1_555 1_555
O18_5 Cu3_5 1_555 1_555
H17_4 O18_5 1_555 1_555
Cu10_2 O24_4 1_555 1_555
O39_4 Cu10_2 1_555 1_555
H29_4 O39_4 1_555 1_555
H30_4 O39_4 1_555 1_555
C5_4 C6_4 1_555 1_555
C12_4 O12_4 1_555 1_555
O6_4 C9_4 1_555 1_555
H7_4 O9_4 1_555 1_555
C9_4 O5_4 1_555 1_555
Cu8_2 O4_4 1_555 1_555
O15_4 Cu8_2 1_555 1_555
H12_4 O15_4 1_555 1_555
H13_4 O15_4 1_555 1_555
O17_6 Cu3_6 1_555 1_555
O18_6 Cu3_6 1_555 1_555
Cu5_2 O19_4 1_555 1_555
C13_4 H18_4 1_555 1_555
C14_4 C13_4 1_555 1_555
H19_4 C14_4 1_555 1_555
C15_4 C14_4 1_555 1_555
H20_4 C15_4 1_555 1_555
C16_4 C15_4 1_555 1_555
H21_4 C16_4 1_555 1_555
C17_4 C16_4 1_555 1_555
H22_4 C17_4 1_555 1_555
C18_4 C13_4 1_555 1_555
H23_4 C18_4 1_555 1_555
C19_4 C13_4 1_555 1_555
O19_4 C19_4 1_555 1_555
C20_4 C14_4 1_555 1_555
O23_4 Cu3_6 1_555 1_555
C22_4 C16_4 1_555 1_555
C23_4 C17_4 1_555 1_555
O32_4 C23_4 1_555 1_555
C24_4 C18_4 1_555 1_555
O35_2 C24_4 1_555 1_555
O36_4 Cu5_2 1_555 1_555
O37_4 Cu5_2 1_555 1_555
H25_4 O37_4 1_555 1_555
H26_4 O37_4 1_555 1_555
O38_4 Cu5_2 1_555 1_555
H27_4 O38_4 1_555 1_555
H28_4 O38_4 1_555 1_555
O40_4 Cu3_6 1_555 1_555
H31_4 O40_4 1_555 1_555
H32_4 O40_4 1_555 1_555
H34_4 O18_6 1_555 1_555
C17_4 C18_4 1_555 1_555
C20_4 O23_4 1_555 1_555
C24_4 O36_4 1_555 1_555
O26_4 C21_4 1_555 1_555
H24_4 O31_4 1_555 1_555
C21_4 O25_4 1_555 1_555

#END
