
###############################################################################
#
# This file contains modified crystal structure data generated from the
# MOF subset of the Cambridge Structural Database (CSD) v543 
# hosted by the Cambridge Crystallographic Data Centre (CCDC).
#
# This work is licensed under the Creative Commons
# Attribution-NonCommercial-ShareAlike 4.0 International License.
# To view a copy of this license, visit
# http://creativecommons.org/licenses/by-nc-sa/4.0/
# or send a letter to
# Creative Commons, PO Box 1866, Mountain View, CA 94042, USA.
#
# CIF created using the CSD Python API on 29 September 2022
# The structure has been converted into the P1 space group
# The structure has a 3D framework
# The original CSD entry IPUGIM is in the monoclinic crystal system
# The framework has been calculated to contain at least 10.0% void space
# The void calculation uses a probe of radius 1.32A, grid spacing 0.4
#
###############################################################################

data_IPUGIM
_chemical_formula_moiety         '(C368 H248 Dy24 O198)n'
_symmetry_cell_setting           triclinic
_symmetry_space_group_name_H-M   'P 1'
_symmetry_Int_Tables_number      1
_space_group_name_Hall           'P 1'
loop_
_symmetry_equiv_pos_site_id
_symmetry_equiv_pos_as_xyz
1 x,y,z
_cell_length_a                   31.6433(6)
_cell_length_b                   13.7287(2)
_cell_length_c                   30.1057(5)
_cell_angle_alpha                90
_cell_angle_beta                 100.160(2)
_cell_angle_gamma                90
_cell_volume                     12873.5
loop_
_atom_site_label
_atom_site_type_symbol
_atom_site_fract_x
_atom_site_fract_y
_atom_site_fract_z
Dy6 Dy 0.54762(2) 0.01602(4) 0.05586(2)
O15 O 0.5632(2) 0.8557(5) 0.0336(2)
O1 O 0.1469(2) 0.2035(6) 0.4917(3)
O2 O 0.4826(2) 0.0308(6) 0.5733(2)
Dy1 Dy 0.39659(2) 0.37704(4) 0.56031(2)
Dy2 Dy 0.45238(2) 0.01602(4) 0.44414(2)
Dy3 Dy 0.36826(2) 0.41421(4) 0.68560(2)
C2 C 0.4594(3) 0.5695(8) 0.7817(3)
C3 C 0.2437(3) 0.2655(7) 0.5708(3)
H2 H 0.235048 0.324820 0.581061
O3 O 0.5792(2) 0.4490(5) 0.8601(2)
O4 O 0.3499(2) 0.3205(5) 0.6073(2)
O5 O 0.4346(2) 0.0811(5) 0.8762(2)
C4 C 0.7549(4) 0.7346(8) 0.9335(4)
O6 O 0.4049(3) 0.2597(5) 0.6882(2)
O7 O 0.3033(2) 0.3263(5) 0.6526(2)
O8 O 0.1588(2) 0.3231(6) 0.5424(3)
C5 C 0.4250(3) 0.0202(7) 0.8013(3)
O9 O 0.6662(2) 0.5232(5) 0.8678(2)
C6 C 0.3406(3) 0.1016(7) 0.5920(3)
C7 C 0.3147(3) 0.2956(6) 0.6177(3)
O10 O 0.4307(2) 0.0328(5) 0.5127(2)
O11 O 0.4230(2) 0.1833(5) 0.4464(2)
H3 H 0.437511 0.161610 0.427288
H4 H 0.439061 0.219140 0.465248
C8 C 0.6191(3) 0.7362(7) 0.9283(3)
O12 O 0.3625(3) 0.2747(5) 0.7385(3)
O13 O 0.4010(3) 0.5679(5) 0.7187(3)
C9 C 0.6021(3) 0.7817(7) 0.9621(3)
H5 H 0.620482 0.805481 0.987277
C10 C 0.2699(3) 0.0893(7) 0.5400(3)
H6 H 0.278474 0.029551 0.530020
O14 O 0.5050(2) 0.8855(5) 0.9861(2)
C11 C 0.2148(3) 0.2114(7) 0.5391(3)
C12 C 0.5190(3) 0.5575(7) 0.8429(3)
C13 C 0.3925(3) 0.0551(7) 0.6574(3)
C14 C 0.3695(3) 0.0746(6) 0.5645(3)
H7 H 0.361354 0.076661 0.533299
C15 C 0.2974(3) 0.1415(7) 0.5713(3)
O16 O 0.6470(2) 0.5110(5) 0.9356(2)
C16 C 0.4360(3) 0.0079(7) 0.8513(3)
C17 C 0.1711(3) 0.2495(6) 0.5239(3)
C18 C 0.5169(3) 0.6586(7) 0.8503(3)
C19 C 0.2844(3) 0.2320(6) 0.5866(3)
C20 C 0.5463(3) 0.7040(6) 0.8889(3)
C21 C 0.4274(3) 0.5209(7) 0.7466(4)
C22 C 0.5909(3) 0.6969(7) 0.8918(3)
H8 H 0.601948 0.665330 0.868985
C23 C 0.6876(3) 0.6469(7) 0.9197(4)
C24 C 0.3518(3) 0.0891(7) 0.6384(3)
H9 H 0.332036 0.103637 0.656901
C25 C 0.5302(3) 0.7547(7) 0.9216(3)
H10 H 0.500740 0.764093 0.918916
C26 C 0.4573(4) 0.6689(7) 0.7881(4)
H11 H 0.437722 0.706812 0.768777
C27 C 0.4048(3) 0.0448(8) 0.7075(3)
C28 C 0.5491(3) 0.4930(6) 0.8733(3)
C29 C 0.4905(3) 0.5149(7) 0.8084(3)
H12 H 0.492402 0.448414 0.803068
C30 C 0.4000(3) 0.1237(7) 0.7368(3)
C31 C 0.4098(3) 0.1103(7) 0.7831(3)
H13 H 0.406211 0.161506 0.802341
C32 C 0.5407(3) 0.8467(6) 0.9953(3)
C33 C 0.5585(3) 0.7926(6) 0.9592(3)
C34 C 0.4220(3) 0.0338(6) 0.6305(3)
H14 H 0.449296 0.012230 0.643318
O18 O 0.4267(3) 0.4282(6) 0.7456(3)
C35 C 0.4852(4) 0.7112(7) 0.8241(4)
H15 H 0.482094 0.776887 0.830369
O19 O 0.5440(3) 0.4835(6) 0.9134(3)
C37 C 0.3885(3) 0.2248(7) 0.7199(3)
C38 C 0.6645(3) 0.5533(7) 0.9065(3)
C39 C 0.2286(3) 0.1256(7) 0.5228(3)
H17 H 0.210624 0.091556 0.500307
O20 O 0.3740(2) 0.0040(5) 0.4245(2)
H19 H 0.370571 0.063937 0.430203
O21 O 0.4341(3) 0.2577(6) 0.6072(3)
H20 H 0.426029 0.236448 0.630760
H21 H 0.433419 0.319508 0.608000
O22 O 0.3180(3) 0.4719(6) 0.7281(3)
H22 H 0.312891 0.430081 0.707070
H23 H 0.341421 0.500521 0.726220
C40 C 0.4445(3) 0.0353(7) 0.5537(3)
O23 O 0.4000(3) 0.4861(6) 0.4967(3)
H24 H 0.385409 0.434413 0.497512
H25 H 0.417049 0.491583 0.521822
O24 O 0.8191(3) 0.8149(7) 0.9365(4)
H26 H 0.844980 0.809999 0.936483
C41 C 0.6668(3) 0.7313(7) 0.9306(3)
O25 O 0.8222(3) 0.6579(7) 0.9297(5)
C42 C 0.4108(3) 0.0447(6) 0.5835(3)
C43 C 0.6904(4) 0.8143(9) 0.9429(5)
H27 H 0.676469 0.869995 0.950377
C44 C 0.7318(3) 0.6497(7) 0.9211(4)
H28 H 0.746003 0.594354 0.913719
C45 C 0.7349(4) 0.8166(8) 0.9443(5)
H29 H 0.750388 0.873314 0.952488
C46 C 0.8027(4) 0.7322(9) 0.9343(5)
O26 O 0.4511(3) 0.3028(6) 0.5214(3)
H30 H 0.434935 0.349332 0.508637
H31 H 0.476315 0.311502 0.518977
O27 O 0.3531(2) 0.2965(6) 0.5083(3)
Dy4 Dy 0.60341(2) 0.37704(4) 0.93969(2)
Dy5 Dy 0.10341(2) 0.12296(4) 0.43969(2)
Dy9 Dy 0.45238(2) 0.98398(4) 0.94414(2)
Dy10 Dy 0.63174(2) 0.41421(4) 0.81440(2)
O29 O 0.4208(2) 0.4490(5) 0.6399(2)
O31 O 0.3338(2) 0.5232(5) 0.6322(2)
O32 O 0.5050(2) 0.1145(5) 0.4861(2)
O34 O 0.3530(2) 0.5110(5) 0.5644(2)
O35 O 0.4448(2) 0.0757(5) 0.3678(2)
O36 O 0.4560(3) 0.4835(6) 0.5866(3)
C1 C 0.4297(4) 0.9441(8) 0.7717(3)
H1 H 0.439829 0.883805 0.783039
O17 O 0.4448(2) 0.9243(5) 0.8678(2)
C36 C 0.4192(4) 0.9582(8) 0.7263(3)
H16 H 0.422061 0.906200 0.707201
H18 H 0.394211 0.998597 0.409503
O28 O 0.5174(2) 0.9692(6) 0.4267(2)
Dy7 Dy 0.54762(2) 0.98398(4) 0.55586(2)
O30 O 0.4346(2) 0.9189(5) 0.3762(2)
O33 O 0.4368(2) 0.8557(5) 0.4664(2)
O1_2 O 0.8531(2) 0.2035(6) 0.0083(3)
O11_2 O 0.5770(2) 0.1833(5) 0.0536(2)
H3_2 H 0.562489 0.161610 0.072712
H4_2 H 0.560939 0.219140 0.034752
O20_2 O 0.6260(2) 0.0040(5) 0.0755(2)
H19_2 H 0.629429 0.063937 0.069797
O23_2 O 0.6000(3) 0.4861(6) 0.0033(3)
H24_2 H 0.614591 0.434413 0.002488
Dy5_2 Dy 0.89659(2) 0.12296(4) 0.06031(2)
O32_2 O 0.4950(2) 0.1145(5) 0.0139(2)
O35_2 O 0.5552(2) 0.0757(5) 0.1322(2)
O2_2 O 0.5174(2) 0.0308(6) 0.9267(2)
C2_2 C 0.5406(3) 0.5695(8) 0.7183(3)
C3_2 C 0.7563(3) 0.2655(7) 0.9292(3)
H2_2 H 0.764952 0.324820 0.918939
O4_2 O 0.6501(2) 0.3205(5) 0.8927(2)
O5_2 O 0.5654(2) 0.0811(5) 0.6238(2)
C4_2 C 0.2451(4) 0.7346(8) 0.5665(4)
O6_2 O 0.5951(3) 0.2597(5) 0.8118(2)
O7_2 O 0.6967(2) 0.3263(5) 0.8474(2)
O8_2 O 0.8412(2) 0.3231(6) 0.9576(3)
C5_2 C 0.5750(3) 0.0202(7) 0.6987(3)
C6_2 C 0.6594(3) 0.1016(7) 0.9080(3)
C7_2 C 0.6853(3) 0.2956(6) 0.8823(3)
O10_2 O 0.5693(2) 0.0328(5) 0.9873(2)
C8_2 C 0.3809(3) 0.7362(7) 0.5717(3)
O12_2 O 0.6375(3) 0.2747(5) 0.7615(3)
O13_2 O 0.5990(3) 0.5679(5) 0.7813(3)
C9_2 C 0.3979(3) 0.7817(7) 0.5379(3)
H5_2 H 0.379518 0.805481 0.512723
C10_2 C 0.7301(3) 0.0893(7) 0.9600(3)
H6_2 H 0.721526 0.029551 0.969980
O14_2 O 0.4950(2) 0.8855(5) 0.5139(2)
C11_2 C 0.7852(3) 0.2114(7) 0.9609(3)
C12_2 C 0.4810(3) 0.5575(7) 0.6571(3)
C13_2 C 0.6075(3) 0.0551(7) 0.8426(3)
C14_2 C 0.6305(3) 0.0746(6) 0.9355(3)
H7_2 H 0.638646 0.076661 0.966701
C15_2 C 0.7026(3) 0.1415(7) 0.9287(3)
C16_2 C 0.5640(3) 0.0079(7) 0.6487(3)
C17_2 C 0.8289(3) 0.2495(6) 0.9761(3)
C18_2 C 0.4831(3) 0.6586(7) 0.6497(3)
C19_2 C 0.7156(3) 0.2320(6) 0.9134(3)
C20_2 C 0.4537(3) 0.7040(6) 0.6111(3)
C21_2 C 0.5726(3) 0.5209(7) 0.7534(4)
C22_2 C 0.4091(3) 0.6969(7) 0.6082(3)
H8_2 H 0.398052 0.665330 0.631015
C23_2 C 0.3124(3) 0.6469(7) 0.5803(4)
C24_2 C 0.6482(3) 0.0891(7) 0.8616(3)
H9_2 H 0.667964 0.103637 0.843099
C25_2 C 0.4698(3) 0.7547(7) 0.5784(3)
H10_2 H 0.499260 0.764093 0.581084
C26_2 C 0.5427(4) 0.6689(7) 0.7119(4)
H11_2 H 0.562278 0.706812 0.731223
C27_2 C 0.5952(3) 0.0448(8) 0.7925(3)
C28_2 C 0.4509(3) 0.4930(6) 0.6267(3)
C29_2 C 0.5095(3) 0.5149(7) 0.6916(3)
H12_2 H 0.507598 0.448414 0.696932
C30_2 C 0.6000(3) 0.1237(7) 0.7632(3)
C31_2 C 0.5902(3) 0.1103(7) 0.7169(3)
H13_2 H 0.593789 0.161506 0.697659
C32_2 C 0.4593(3) 0.8467(6) 0.5047(3)
C33_2 C 0.4415(3) 0.7926(6) 0.5408(3)
C34_2 C 0.5780(3) 0.0338(6) 0.8695(3)
H14_2 H 0.550704 0.012230 0.856682
O18_2 O 0.5733(3) 0.4282(6) 0.7544(3)
C35_2 C 0.5148(4) 0.7112(7) 0.6759(4)
H15_2 H 0.517906 0.776887 0.669631
C37_2 C 0.6115(3) 0.2248(7) 0.7801(3)
C38_2 C 0.3355(3) 0.5533(7) 0.5935(3)
C39_2 C 0.7714(3) 0.1256(7) 0.9772(3)
H17_2 H 0.789376 0.091556 0.999693
O21_2 O 0.5659(3) 0.2577(6) 0.8928(3)
H20_2 H 0.573971 0.236448 0.869240
H21_2 H 0.566581 0.319508 0.892000
O22_2 O 0.6820(3) 0.4719(6) 0.7719(3)
H22_2 H 0.687109 0.430081 0.792930
H23_2 H 0.658579 0.500521 0.773780
C40_2 C 0.5555(3) 0.0353(7) 0.9463(3)
H25_2 H 0.582951 0.491583 0.978178
O24_2 O 0.1809(3) 0.8149(7) 0.5635(4)
H26_2 H 0.155020 0.809999 0.563517
C41_2 C 0.3332(3) 0.7313(7) 0.5694(3)
O25_2 O 0.1778(3) 0.6579(7) 0.5703(5)
C42_2 C 0.5892(3) 0.0447(6) 0.9165(3)
C43_2 C 0.3096(4) 0.8143(9) 0.5571(5)
H27_2 H 0.323531 0.869995 0.549623
C44_2 C 0.2682(3) 0.6497(7) 0.5789(4)
H28_2 H 0.253997 0.594354 0.586281
C45_2 C 0.2651(4) 0.8166(8) 0.5557(5)
H29_2 H 0.249612 0.873314 0.547512
C46_2 C 0.1973(4) 0.7322(9) 0.5657(5)
O26_2 O 0.5489(3) 0.3028(6) 0.9786(3)
H30_2 H 0.565065 0.349332 0.991363
H31_2 H 0.523685 0.311502 0.981023
O27_2 O 0.6469(2) 0.2965(6) 0.9917(3)
H18_2 H 0.605789 0.998597 0.090497
O28_2 O 0.4826(2) 0.9692(6) 0.0733(2)
O30_2 O 0.5654(2) 0.9189(5) 0.1238(2)
C1_2 C 0.5703(4) 0.9441(8) 0.7283(3)
H1_2 H 0.560171 0.883805 0.716961
O17_2 O 0.5552(2) 0.9243(5) 0.6322(2)
C36_2 C 0.5808(4) 0.9582(8) 0.7737(3)
H16_2 H 0.577939 0.906200 0.792799
O15_2 O 0.0632(2) 0.3557(5) 0.0336(2)
Dy6_2 Dy 0.04762(2) 0.51602(4) 0.05586(2)
C4_3 C 0.2549(4) 0.2346(8) 0.9335(4)
O9_2 O 0.1662(2) 0.0232(5) 0.8678(2)
C8_3 C 0.1191(3) 0.2362(7) 0.9283(3)
C9_3 C 0.1021(3) 0.2817(7) 0.9621(3)
H5_3 H 0.120482 0.305481 0.987277
O14_3 O 0.0050(2) 0.3855(5) 0.9861(2)
C12_3 C 0.0190(3) 0.0575(7) 0.8429(3)
O16_2 O 0.1470(2) 0.0110(5) 0.9356(2)
C18_3 C 0.0169(3) 0.1586(7) 0.8503(3)
C20_3 C 0.0463(3) 0.2040(6) 0.8889(3)
C22_3 C 0.0909(3) 0.1969(7) 0.8918(3)
H8_3 H 0.101948 0.165330 0.868985
C23_3 C 0.1876(3) 0.1469(7) 0.9197(4)
C25_3 C 0.0302(3) 0.2547(7) 0.9216(3)
H10_3 H 0.000740 0.264093 0.918916
C32_3 C 0.0407(3) 0.3467(6) 0.9953(3)
C33_3 C 0.0585(3) 0.2926(6) 0.9592(3)
C38_3 C 0.1645(3) 0.0533(7) 0.9065(3)
O24_3 O 0.3191(3) 0.3149(7) 0.9365(4)
H26_3 H 0.344980 0.309999 0.936483
C41_3 C 0.1668(3) 0.2313(7) 0.9306(3)
O25_3 O 0.3222(3) 0.1579(7) 0.9297(5)
C43_3 C 0.1904(4) 0.3143(9) 0.9429(5)
H27_3 H 0.176469 0.369995 0.950377
C44_3 C 0.2318(3) 0.1497(7) 0.9211(4)
H28_3 H 0.246003 0.094354 0.913719
C45_3 C 0.2349(4) 0.3166(8) 0.9443(5)
H29_3 H 0.250388 0.373314 0.952488
C46_3 C 0.3027(4) 0.2322(9) 0.9343(5)
O3_2 O 0.0792(2) 0.9490(5) 0.8601(2)
C28_3 C 0.0491(3) 0.9930(6) 0.8733(3)
O19_2 O 0.0440(3) 0.9835(6) 0.9134(3)
O28_3 O 0.0174(2) 0.4692(6) 0.4267(2)
Dy4_2 Dy 0.10341(2) 0.87704(4) 0.93969(2)
Dy7_2 Dy 0.04762(2) 0.48398(4) 0.55586(2)
Dy10_2 Dy 0.13174(2) 0.91421(4) 0.81440(2)
O32_3 O 0.0050(2) 0.6145(5) 0.4861(2)
C2_3 C 0.9594(3) 0.0695(8) 0.7817(3)
O13_3 O 0.9010(3) 0.0679(5) 0.7187(3)
C21_3 C 0.9274(3) 0.0209(7) 0.7466(4)
C26_3 C 0.9573(4) 0.1689(7) 0.7881(4)
H11_3 H 0.937722 0.206812 0.768777
C29_3 C 0.9905(3) 0.0149(7) 0.8084(3)
C35_3 C 0.9852(4) 0.2112(7) 0.8241(4)
H15_3 H 0.982094 0.276887 0.830369
H23_3 H 0.841421 0.000521 0.726220
Dy9_2 Dy 0.95238(2) 0.48398(4) 0.94414(2)
O31_2 O 0.8338(2) 0.0232(5) 0.6322(2)
O34_2 O 0.8530(2) 0.0110(5) 0.5644(2)
C1_3 C 0.9297(4) 0.4441(8) 0.7717(3)
H1_3 H 0.939829 0.383805 0.783039
O1_3 O 0.6469(2) 0.7035(6) 0.4917(3)
O2_3 O 0.9826(2) 0.5308(6) 0.5733(2)
Dy1_2 Dy 0.89659(2) 0.87704(4) 0.56031(2)
Dy2_2 Dy 0.95238(2) 0.51602(4) 0.44414(2)
Dy3_2 Dy 0.86826(2) 0.91421(4) 0.68560(2)
C3_3 C 0.7437(3) 0.7655(7) 0.5708(3)
H2_3 H 0.735048 0.824820 0.581061
O4_3 O 0.8499(2) 0.8205(5) 0.6073(2)
O5_3 O 0.9346(2) 0.5811(5) 0.8762(2)
O6_3 O 0.9049(3) 0.7597(5) 0.6882(2)
O7_3 O 0.8033(2) 0.8263(5) 0.6526(2)
O8_3 O 0.6588(2) 0.8231(6) 0.5424(3)
C5_3 C 0.9250(3) 0.5202(7) 0.8013(3)
C6_3 C 0.8406(3) 0.6016(7) 0.5920(3)
C7_3 C 0.8147(3) 0.7956(6) 0.6177(3)
O10_3 O 0.9307(2) 0.5328(5) 0.5127(2)
O11_3 O 0.9230(2) 0.6833(5) 0.4464(2)
H3_3 H 0.937511 0.661610 0.427288
H4_3 H 0.939061 0.719140 0.465248
O12_3 O 0.8625(3) 0.7747(5) 0.7385(3)
C10_3 C 0.7699(3) 0.5893(7) 0.5400(3)
H6_3 H 0.778474 0.529551 0.530020
C11_3 C 0.7148(3) 0.7114(7) 0.5391(3)
C13_3 C 0.8925(3) 0.5551(7) 0.6574(3)
C14_3 C 0.8695(3) 0.5746(6) 0.5645(3)
H7_3 H 0.861354 0.576661 0.533299
C15_3 C 0.7974(3) 0.6415(7) 0.5713(3)
C16_3 C 0.9360(3) 0.5079(7) 0.8513(3)
O17_3 O 0.9448(2) 0.4243(5) 0.8678(2)
C17_3 C 0.6711(3) 0.7495(6) 0.5239(3)
C19_3 C 0.7844(3) 0.7320(6) 0.5866(3)
C24_3 C 0.8518(3) 0.5891(7) 0.6384(3)
H9_3 H 0.832036 0.603637 0.656901
C27_3 C 0.9048(3) 0.5448(8) 0.7075(3)
H12_3 H 0.992402 0.948414 0.803068
C30_3 C 0.9000(3) 0.6237(7) 0.7368(3)
C31_3 C 0.9098(3) 0.6103(7) 0.7831(3)
H13_3 H 0.906211 0.661506 0.802341
C34_3 C 0.9220(3) 0.5338(6) 0.6305(3)
H14_3 H 0.949296 0.512230 0.643318
O18_3 O 0.9267(3) 0.9282(6) 0.7456(3)
C36_3 C 0.9192(4) 0.4582(8) 0.7263(3)
H16_3 H 0.922061 0.406200 0.707201
C37_3 C 0.8885(3) 0.7248(7) 0.7199(3)
C39_3 C 0.7286(3) 0.6256(7) 0.5228(3)
H17_3 H 0.710624 0.591556 0.500307
O20_3 O 0.8740(2) 0.5040(5) 0.4245(2)
H18_3 H 0.894211 0.498597 0.409503
H19_3 H 0.870571 0.563937 0.430203
O21_3 O 0.9341(3) 0.7577(6) 0.6072(3)
H20_3 H 0.926029 0.736448 0.630760
H21_3 H 0.933419 0.819508 0.608000
O22_3 O 0.8180(3) 0.9719(6) 0.7281(3)
H22_3 H 0.812891 0.930081 0.707070
C40_3 C 0.9445(3) 0.5353(7) 0.5537(3)
O23_3 O 0.9000(3) 0.9861(6) 0.4967(3)
H24_3 H 0.885409 0.934413 0.497512
H25_3 H 0.917049 0.991583 0.521822
C42_3 C 0.9108(3) 0.5447(6) 0.5835(3)
O26_3 O 0.9511(3) 0.8028(6) 0.5214(3)
H30_3 H 0.934935 0.849332 0.508637
H31_3 H 0.976315 0.811502 0.518977
O27_3 O 0.8531(2) 0.7965(6) 0.5083(3)
Dy5_3 Dy 0.60341(2) 0.62296(4) 0.43969(2)
O29_2 O 0.9208(2) 0.9490(5) 0.6399(2)
O30_3 O 0.9346(2) 0.4189(5) 0.3762(2)
O33_2 O 0.9368(2) 0.3557(5) 0.4664(2)
O35_3 O 0.9448(2) 0.5757(5) 0.3678(2)
O36_2 O 0.9560(3) 0.9835(6) 0.5866(3)
C2_4 C 0.0406(3) 0.0695(8) 0.7183(3)
O13_4 O 0.0990(3) 0.0679(5) 0.7813(3)
C21_4 C 0.0726(3) 0.0209(7) 0.7534(4)
C26_4 C 0.0427(4) 0.1689(7) 0.7119(4)
H11_4 H 0.062278 0.206812 0.731223
C29_4 C 0.0095(3) 0.0149(7) 0.6916(3)
C35_4 C 0.0148(4) 0.2112(7) 0.6759(4)
H15_4 H 0.017906 0.276887 0.669631
H23_4 H 0.158579 0.000521 0.773780
O1_4 O 0.3531(2) 0.7035(6) 0.0083(3)
O11_4 O 0.0770(2) 0.6833(5) 0.0536(2)
H3_4 H 0.062489 0.661610 0.072712
H4_4 H 0.060939 0.719140 0.034752
O20_4 O 0.1260(2) 0.5040(5) 0.0755(2)
H18_4 H 0.105789 0.498597 0.090497
H19_4 H 0.129429 0.563937 0.069797
O23_4 O 0.1000(3) 0.9861(6) 0.0033(3)
H24_4 H 0.114591 0.934413 0.002488
Dy5_4 Dy 0.39659(2) 0.62296(4) 0.06031(2)
O30_4 O 0.0654(2) 0.4189(5) 0.1238(2)
O35_4 O 0.0552(2) 0.5757(5) 0.1322(2)
C1_4 C 0.0703(4) 0.4441(8) 0.7283(3)
H1_4 H 0.060171 0.383805 0.716961
O2_4 O 0.0174(2) 0.5308(6) 0.9267(2)
C3_4 C 0.2563(3) 0.7655(7) 0.9292(3)
H2_4 H 0.264952 0.824820 0.918939
O4_4 O 0.1501(2) 0.8205(5) 0.8927(2)
O5_4 O 0.0654(2) 0.5811(5) 0.6238(2)
O6_4 O 0.0951(3) 0.7597(5) 0.8118(2)
O7_4 O 0.1967(2) 0.8263(5) 0.8474(2)
O8_4 O 0.3412(2) 0.8231(6) 0.9576(3)
C5_4 C 0.0750(3) 0.5202(7) 0.6987(3)
C6_4 C 0.1594(3) 0.6016(7) 0.9080(3)
C7_4 C 0.1853(3) 0.7956(6) 0.8823(3)
O10_4 O 0.0693(2) 0.5328(5) 0.9873(2)
O12_4 O 0.1375(3) 0.7747(5) 0.7615(3)
C10_4 C 0.2301(3) 0.5893(7) 0.9600(3)
H6_4 H 0.221526 0.529551 0.969980
C11_4 C 0.2852(3) 0.7114(7) 0.9609(3)
C13_4 C 0.1075(3) 0.5551(7) 0.8426(3)
C14_4 C 0.1305(3) 0.5746(6) 0.9355(3)
H7_4 H 0.138646 0.576661 0.966701
C15_4 C 0.2026(3) 0.6415(7) 0.9287(3)
C16_4 C 0.0640(3) 0.5079(7) 0.6487(3)
O17_4 O 0.0552(2) 0.4243(5) 0.6322(2)
C17_4 C 0.3289(3) 0.7495(6) 0.9761(3)
C19_4 C 0.2156(3) 0.7320(6) 0.9134(3)
C24_4 C 0.1482(3) 0.5891(7) 0.8616(3)
H9_4 H 0.167964 0.603637 0.843099
C27_4 C 0.0952(3) 0.5448(8) 0.7925(3)
H12_4 H 0.007598 0.948414 0.696932
C30_4 C 0.1000(3) 0.6237(7) 0.7632(3)
C31_4 C 0.0902(3) 0.6103(7) 0.7169(3)
H13_4 H 0.093789 0.661506 0.697659
C34_4 C 0.0780(3) 0.5338(6) 0.8695(3)
H14_4 H 0.050704 0.512230 0.856682
O18_4 O 0.0733(3) 0.9282(6) 0.7544(3)
C36_4 C 0.0808(4) 0.4582(8) 0.7737(3)
H16_4 H 0.077939 0.406200 0.792799
C37_4 C 0.1115(3) 0.7248(7) 0.7801(3)
C39_4 C 0.2714(3) 0.6256(7) 0.9772(3)
H17_4 H 0.289376 0.591556 0.999693
O21_4 O 0.0659(3) 0.7577(6) 0.8928(3)
H20_4 H 0.073971 0.736448 0.869240
H21_4 H 0.066581 0.819508 0.892000
O22_4 O 0.1820(3) 0.9719(6) 0.7719(3)
H22_4 H 0.187109 0.930081 0.792930
C40_4 C 0.0555(3) 0.5353(7) 0.9463(3)
H25_4 H 0.082951 0.991583 0.978178
C42_4 C 0.0892(3) 0.5447(6) 0.9165(3)
O26_4 O 0.0489(3) 0.8028(6) 0.9786(3)
H30_4 H 0.065065 0.849332 0.991363
H31_4 H 0.023685 0.811502 0.981023
O27_4 O 0.1469(2) 0.7965(6) 0.9917(3)
C4_4 C 0.7451(4) 0.2346(8) 0.5665(4)
C8_4 C 0.8809(3) 0.2362(7) 0.5717(3)
C9_4 C 0.8979(3) 0.2817(7) 0.5379(3)
H5_4 H 0.879518 0.305481 0.512723
O14_4 O 0.9950(2) 0.3855(5) 0.5139(2)
C12_4 C 0.9810(3) 0.0575(7) 0.6571(3)
C18_4 C 0.9831(3) 0.1586(7) 0.6497(3)
C20_4 C 0.9537(3) 0.2040(6) 0.6111(3)
C22_4 C 0.9091(3) 0.1969(7) 0.6082(3)
H8_4 H 0.898052 0.165330 0.631015
C23_4 C 0.8124(3) 0.1469(7) 0.5803(4)
C25_4 C 0.9698(3) 0.2547(7) 0.5784(3)
H10_4 H 0.999260 0.264093 0.581084
C32_4 C 0.9593(3) 0.3467(6) 0.5047(3)
C33_4 C 0.9415(3) 0.2926(6) 0.5408(3)
C38_4 C 0.8355(3) 0.0533(7) 0.5935(3)
O24_4 O 0.6809(3) 0.3149(7) 0.5635(4)
H26_4 H 0.655020 0.309999 0.563517
C41_4 C 0.8332(3) 0.2313(7) 0.5694(3)
O25_4 O 0.6778(3) 0.1579(7) 0.5703(5)
C43_4 C 0.8096(4) 0.3143(9) 0.5571(5)
H27_4 H 0.823531 0.369995 0.549623
C44_4 C 0.7682(3) 0.1497(7) 0.5789(4)
H28_4 H 0.753997 0.094354 0.586281
C45_4 C 0.7651(4) 0.3166(8) 0.5557(5)
H29_4 H 0.749612 0.373314 0.547512
C46_4 C 0.6973(4) 0.2322(9) 0.5657(5)
O28_4 O 0.9826(2) 0.4692(6) 0.0733(2)
O32_4 O 0.9950(2) 0.6145(5) 0.0139(2)
C28_4 C 0.9509(3) 0.9930(6) 0.6267(3)
C1_5 C 0.5703(4) 0.0559(8) 0.2283(3)
H1_5 H 0.560171 0.116195 0.216961
C36_5 C 0.5808(4) 0.0418(8) 0.2737(3)
H16_5 H 0.577939 0.093800 0.292799
H18_5 H 0.605789 0.001403 0.590497
O33_3 O 0.5632(2) 0.1443(5) 0.5336(2)
Dy3_3 Dy 0.63174(2) 0.58579(4) 0.31440(2)
C2_5 C 0.5406(3) 0.4305(8) 0.2183(3)
C3_5 C 0.7563(3) 0.7345(7) 0.4292(3)
H2_5 H 0.764952 0.675180 0.418939
O3_3 O 0.4208(2) 0.5510(5) 0.1399(2)
O4_5 O 0.6501(2) 0.6795(5) 0.3927(2)
C4_5 C 0.2451(4) 0.2654(8) 0.0665(4)
O6_5 O 0.5951(3) 0.7403(5) 0.3118(2)
O7_5 O 0.6967(2) 0.6737(5) 0.3474(2)
O8_5 O 0.8412(2) 0.6769(6) 0.4576(3)
C5_5 C 0.5750(3) 0.9798(7) 0.1987(3)
O9_3 O 0.3338(2) 0.4768(5) 0.1322(2)
C6_5 C 0.6594(3) 0.8984(7) 0.4080(3)
C7_5 C 0.6853(3) 0.7044(6) 0.3823(3)
O10_5 O 0.5693(2) 0.9672(5) 0.4873(2)
O11_5 O 0.5770(2) 0.8167(5) 0.5536(2)
H3_5 H 0.562489 0.838390 0.572712
H4_5 H 0.560939 0.780860 0.534752
C8_5 C 0.3809(3) 0.2638(7) 0.0717(3)
O12_5 O 0.6375(3) 0.7253(5) 0.2615(3)
O13_5 O 0.5990(3) 0.4321(5) 0.2813(3)
C9_5 C 0.3979(3) 0.2183(7) 0.0379(3)
H5_5 H 0.379518 0.194519 0.012723
C10_5 C 0.7301(3) 0.9107(7) 0.4600(3)
H6_5 H 0.721526 0.970449 0.469980
C11_5 C 0.7852(3) 0.7886(7) 0.4609(3)
C12_5 C 0.4810(3) 0.4425(7) 0.1571(3)
C13_5 C 0.6075(3) 0.9449(7) 0.3426(3)
C14_5 C 0.6305(3) 0.9254(6) 0.4355(3)
H7_5 H 0.638646 0.923339 0.466701
C15_5 C 0.7026(3) 0.8585(7) 0.4287(3)
O16_3 O 0.3530(2) 0.4890(5) 0.0644(2)
C16_5 C 0.5640(3) 0.9921(7) 0.1487(3)
C17_5 C 0.8289(3) 0.7505(6) 0.4761(3)
C18_5 C 0.4831(3) 0.3414(7) 0.1497(3)
C19_5 C 0.7156(3) 0.7680(6) 0.4134(3)
C20_5 C 0.4537(3) 0.2960(6) 0.1111(3)
C21_5 C 0.5726(3) 0.4791(7) 0.2534(4)
C22_5 C 0.4091(3) 0.3031(7) 0.1082(3)
H8_5 H 0.398052 0.334670 0.131015
C23_5 C 0.3124(3) 0.3531(7) 0.0803(4)
C24_5 C 0.6482(3) 0.9109(7) 0.3616(3)
H9_5 H 0.667964 0.896363 0.343099
C25_5 C 0.4698(3) 0.2453(7) 0.0784(3)
H10_5 H 0.499260 0.235907 0.081084
C26_5 C 0.5427(4) 0.3311(7) 0.2119(4)
H11_5 H 0.562278 0.293188 0.231223
C27_5 C 0.5952(3) 0.9552(8) 0.2925(3)
C28_5 C 0.4509(3) 0.5070(6) 0.1267(3)
C29_5 C 0.5095(3) 0.4851(7) 0.1916(3)
H12_5 H 0.507598 0.551586 0.196932
C30_5 C 0.6000(3) 0.8763(7) 0.2632(3)
C31_5 C 0.5902(3) 0.8897(7) 0.2169(3)
H13_5 H 0.593789 0.838494 0.197659
C32_5 C 0.4593(3) 0.1533(6) 0.0047(3)
C33_5 C 0.4415(3) 0.2074(6) 0.0408(3)
C34_5 C 0.5780(3) 0.9662(6) 0.3695(3)
H14_5 H 0.550704 0.987770 0.356682
O18_5 O 0.5733(3) 0.5718(6) 0.2544(3)
C35_5 C 0.5148(4) 0.2888(7) 0.1759(4)
H15_5 H 0.517906 0.223113 0.169631
O19_3 O 0.4560(3) 0.5165(6) 0.0866(3)
C37_5 C 0.6115(3) 0.7752(7) 0.2801(3)
C38_5 C 0.3355(3) 0.4467(7) 0.0935(3)
C39_5 C 0.7714(3) 0.8744(7) 0.4772(3)
H17_5 H 0.789376 0.908444 0.499693
O20_5 O 0.6260(2) 0.9960(5) 0.5755(2)
H19_5 H 0.629429 0.936063 0.569797
O21_5 O 0.5659(3) 0.7423(6) 0.3928(3)
H20_5 H 0.573971 0.763552 0.369240
H21_5 H 0.566581 0.680492 0.392000
O22_5 O 0.6820(3) 0.5281(6) 0.2719(3)
H22_5 H 0.687109 0.569919 0.292930
H23_5 H 0.658579 0.499479 0.273780
C40_5 C 0.5555(3) 0.9647(7) 0.4463(3)
O23_5 O 0.6000(3) 0.5139(6) 0.5033(3)
H24_5 H 0.614591 0.565587 0.502488
H25_5 H 0.582951 0.508417 0.478178
O24_5 O 0.1809(3) 0.1851(7) 0.0635(4)
H26_5 H 0.155020 0.190001 0.063517
C41_5 C 0.3332(3) 0.2687(7) 0.0694(3)
O25_5 O 0.1778(3) 0.3421(7) 0.0703(5)
C42_5 C 0.5892(3) 0.9553(6) 0.4165(3)
C43_5 C 0.3096(4) 0.1857(9) 0.0571(5)
H27_5 H 0.323531 0.130005 0.049623
C44_5 C 0.2682(3) 0.3503(7) 0.0789(4)
H28_5 H 0.253997 0.405646 0.086281
C45_5 C 0.2651(4) 0.1834(8) 0.0557(5)
H29_5 H 0.249612 0.126686 0.047512
C46_5 C 0.1973(4) 0.2678(9) 0.0657(5)
O26_5 O 0.5489(3) 0.6972(6) 0.4786(3)
H30_5 H 0.565065 0.650668 0.491363
H31_5 H 0.523685 0.688498 0.481023
Dy10_3 Dy 0.36826(2) 0.58579(4) 0.18560(2)
O29_3 O 0.5792(2) 0.5510(5) 0.3601(2)
O31_3 O 0.6662(2) 0.4768(5) 0.3678(2)
O34_3 O 0.6470(2) 0.4890(5) 0.4356(2)
O36_3 O 0.5440(3) 0.5165(6) 0.4134(3)
O15_3 O 0.4368(2) 0.1443(5) 0.9664(2)
C1_6 C 0.4297(4) 0.0559(8) 0.2717(3)
H1_6 H 0.439829 0.116195 0.283039
C36_6 C 0.4192(4) 0.0418(8) 0.2263(3)
H16_6 H 0.422061 0.093800 0.207201
H18_6 H 0.394211 0.001403 0.909503
C2_6 C 0.4594(3) 0.4305(8) 0.2817(3)
C3_6 C 0.2437(3) 0.7345(7) 0.0708(3)
H2_6 H 0.235048 0.675180 0.081061
O4_6 O 0.3499(2) 0.6795(5) 0.1073(2)
C4_6 C 0.7549(4) 0.2654(8) 0.4335(4)
O6_6 O 0.4049(3) 0.7403(5) 0.1882(2)
O7_6 O 0.3033(2) 0.6737(5) 0.1526(2)
O8_6 O 0.1588(2) 0.6769(6) 0.0424(3)
C5_6 C 0.4250(3) 0.9798(7) 0.3013(3)
C6_6 C 0.3406(3) 0.8984(7) 0.0920(3)
C7_6 C 0.3147(3) 0.7044(6) 0.1177(3)
O10_6 O 0.4307(2) 0.9672(5) 0.0127(2)
C8_6 C 0.6191(3) 0.2638(7) 0.4283(3)
O12_6 O 0.3625(3) 0.7253(5) 0.2385(3)
O13_6 O 0.4010(3) 0.4321(5) 0.2187(3)
C9_6 C 0.6021(3) 0.2183(7) 0.4621(3)
H5_6 H 0.620482 0.194519 0.487277
C10_6 C 0.2699(3) 0.9107(7) 0.0400(3)
H6_6 H 0.278474 0.970449 0.030020
C11_6 C 0.2148(3) 0.7886(7) 0.0391(3)
C12_6 C 0.5190(3) 0.4425(7) 0.3429(3)
C13_6 C 0.3925(3) 0.9449(7) 0.1574(3)
C14_6 C 0.3695(3) 0.9254(6) 0.0645(3)
H7_6 H 0.361354 0.923339 0.033299
C15_6 C 0.2974(3) 0.8585(7) 0.0713(3)
C16_6 C 0.4360(3) 0.9921(7) 0.3513(3)
C17_6 C 0.1711(3) 0.7505(6) 0.0239(3)
C18_6 C 0.5169(3) 0.3414(7) 0.3503(3)
C19_6 C 0.2844(3) 0.7680(6) 0.0866(3)
C20_6 C 0.5463(3) 0.2960(6) 0.3889(3)
C21_6 C 0.4274(3) 0.4791(7) 0.2466(4)
C22_6 C 0.5909(3) 0.3031(7) 0.3918(3)
H8_6 H 0.601948 0.334670 0.368985
C23_6 C 0.6876(3) 0.3531(7) 0.4197(4)
C24_6 C 0.3518(3) 0.9109(7) 0.1384(3)
H9_6 H 0.332036 0.896363 0.156901
C25_6 C 0.5302(3) 0.2453(7) 0.4216(3)
H10_6 H 0.500740 0.235907 0.418916
C26_6 C 0.4573(4) 0.3311(7) 0.2881(4)
H11_6 H 0.437722 0.293188 0.268777
C27_6 C 0.4048(3) 0.9552(8) 0.2075(3)
C28_6 C 0.5491(3) 0.5070(6) 0.3733(3)
C29_6 C 0.4905(3) 0.4851(7) 0.3084(3)
H12_6 H 0.492402 0.551586 0.303068
C30_6 C 0.4000(3) 0.8763(7) 0.2368(3)
C31_6 C 0.4098(3) 0.8897(7) 0.2831(3)
H13_6 H 0.406211 0.838494 0.302341
C32_6 C 0.5407(3) 0.1533(6) 0.4953(3)
C33_6 C 0.5585(3) 0.2074(6) 0.4592(3)
C34_6 C 0.4220(3) 0.9662(6) 0.1305(3)
H14_6 H 0.449296 0.987770 0.143318
O18_6 O 0.4267(3) 0.5718(6) 0.2456(3)
C35_6 C 0.4852(4) 0.2888(7) 0.3241(4)
H15_6 H 0.482094 0.223113 0.330369
C37_6 C 0.3885(3) 0.7752(7) 0.2199(3)
C38_6 C 0.6645(3) 0.4467(7) 0.4065(3)
C39_6 C 0.2286(3) 0.8744(7) 0.0228(3)
H17_6 H 0.210624 0.908444 0.000307
O21_6 O 0.4341(3) 0.7423(6) 0.1072(3)
H20_6 H 0.426029 0.763552 0.130760
H21_6 H 0.433419 0.680492 0.108000
O22_6 O 0.3180(3) 0.5281(6) 0.2281(3)
H22_6 H 0.312891 0.569919 0.207070
H23_6 H 0.341421 0.499479 0.226220
C40_6 C 0.4445(3) 0.9647(7) 0.0537(3)
H25_6 H 0.417049 0.508417 0.021822
O24_6 O 0.8191(3) 0.1851(7) 0.4365(4)
H26_6 H 0.844980 0.190001 0.436483
C41_6 C 0.6668(3) 0.2687(7) 0.4306(3)
O25_6 O 0.8222(3) 0.3421(7) 0.4297(5)
C42_6 C 0.4108(3) 0.9553(6) 0.0835(3)
C43_6 C 0.6904(4) 0.1857(9) 0.4429(5)
H27_6 H 0.676469 0.130005 0.450377
C44_6 C 0.7318(3) 0.3503(7) 0.4211(4)
H28_6 H 0.746003 0.405646 0.413719
C45_6 C 0.7349(4) 0.1834(8) 0.4443(5)
H29_6 H 0.750388 0.126686 0.452488
C46_6 C 0.8027(4) 0.2678(9) 0.4343(5)
O26_6 O 0.4511(3) 0.6972(6) 0.0214(3)
H30_6 H 0.434935 0.650668 0.008637
H31_6 H 0.476315 0.688498 0.018977
O11_6 O 0.4230(2) 0.8167(5) 0.9464(2)
H3_6 H 0.437511 0.838390 0.927288
H4_6 H 0.439061 0.780860 0.965248
O20_6 O 0.3740(2) 0.9960(5) 0.9245(2)
H19_6 H 0.370571 0.936063 0.930203
O23_6 O 0.4000(3) 0.5139(6) 0.9967(3)
H24_6 H 0.385409 0.565587 0.997512
C1_7 C 0.0703(4) 0.5559(8) 0.2283(3)
H1_7 H 0.060171 0.616195 0.216961
Dy3_4 Dy 0.13174(2) 0.08579(4) 0.31440(2)
C3_7 C 0.2563(3) 0.2345(7) 0.4292(3)
H2_7 H 0.264952 0.175180 0.418939
O4_7 O 0.1501(2) 0.1795(5) 0.3927(2)
O6_7 O 0.0951(3) 0.2403(5) 0.3118(2)
O7_7 O 0.1967(2) 0.1737(5) 0.3474(2)
O8_7 O 0.3412(2) 0.1769(6) 0.4576(3)
C5_7 C 0.0750(3) 0.4798(7) 0.1987(3)
C6_7 C 0.1594(3) 0.3984(7) 0.4080(3)
C7_7 C 0.1853(3) 0.2044(6) 0.3823(3)
O10_7 O 0.0693(2) 0.4672(5) 0.4873(2)
O11_7 O 0.0770(2) 0.3167(5) 0.5536(2)
H3_7 H 0.062489 0.338390 0.572712
H4_7 H 0.060939 0.280860 0.534752
O12_7 O 0.1375(3) 0.2253(5) 0.2615(3)
C10_7 C 0.2301(3) 0.4107(7) 0.4600(3)
H6_7 H 0.221526 0.470449 0.469980
C11_7 C 0.2852(3) 0.2886(7) 0.4609(3)
C13_7 C 0.1075(3) 0.4449(7) 0.3426(3)
C14_7 C 0.1305(3) 0.4254(6) 0.4355(3)
H7_7 H 0.138646 0.423339 0.466701
C15_7 C 0.2026(3) 0.3585(7) 0.4287(3)
C16_7 C 0.0640(3) 0.4921(7) 0.1487(3)
C17_7 C 0.3289(3) 0.2505(6) 0.4761(3)
C19_7 C 0.2156(3) 0.2680(6) 0.4134(3)
C24_7 C 0.1482(3) 0.4109(7) 0.3616(3)
H9_7 H 0.167964 0.396363 0.343099
C27_7 C 0.0952(3) 0.4552(8) 0.2925(3)
H12_7 H 0.007598 0.051586 0.196932
C30_7 C 0.1000(3) 0.3763(7) 0.2632(3)
C31_7 C 0.0902(3) 0.3897(7) 0.2169(3)
H13_7 H 0.093789 0.338494 0.197659
C34_7 C 0.0780(3) 0.4662(6) 0.3695(3)
H14_7 H 0.050704 0.487770 0.356682
O18_7 O 0.0733(3) 0.0718(6) 0.2544(3)
C36_7 C 0.0808(4) 0.5418(8) 0.2737(3)
H16_7 H 0.077939 0.593800 0.292799
C37_7 C 0.1115(3) 0.2752(7) 0.2801(3)
C39_7 C 0.2714(3) 0.3744(7) 0.4772(3)
H17_7 H 0.289376 0.408444 0.499693
O20_7 O 0.1260(2) 0.4960(5) 0.5755(2)
H18_7 H 0.105789 0.501403 0.590497
H19_7 H 0.129429 0.436063 0.569797
O21_7 O 0.0659(3) 0.2423(6) 0.3928(3)
H20_7 H 0.073971 0.263552 0.369240
H21_7 H 0.066581 0.180492 0.392000
O22_7 O 0.1820(3) 0.0281(6) 0.2719(3)
H22_7 H 0.187109 0.069919 0.292930
C40_7 C 0.0555(3) 0.4647(7) 0.4463(3)
O23_7 O 0.1000(3) 0.0139(6) 0.5033(3)
H24_7 H 0.114591 0.065587 0.502488
H25_7 H 0.082951 0.008417 0.478178
C42_7 C 0.0892(3) 0.4553(6) 0.4165(3)
O26_7 O 0.0489(3) 0.1972(6) 0.4786(3)
H30_7 H 0.065065 0.150668 0.491363
H31_7 H 0.023685 0.188498 0.481023
O29_4 O 0.0792(2) 0.0510(5) 0.3601(2)
O33_4 O 0.0632(2) 0.6443(5) 0.5336(2)
O36_4 O 0.0440(3) 0.0165(6) 0.4134(3)
C2_7 C 0.0406(3) 0.9305(8) 0.2183(3)
O13_7 O 0.0990(3) 0.9321(5) 0.2813(3)
C21_7 C 0.0726(3) 0.9791(7) 0.2534(4)
C26_7 C 0.0427(4) 0.8311(7) 0.2119(4)
H11_7 H 0.062278 0.793188 0.231223
C29_7 C 0.0095(3) 0.9851(7) 0.1916(3)
C35_7 C 0.0148(4) 0.7888(7) 0.1759(4)
H15_7 H 0.017906 0.723113 0.169631
H23_7 H 0.158579 0.999479 0.273780
O31_4 O 0.1662(2) 0.9768(5) 0.3678(2)
O34_4 O 0.1470(2) 0.9890(5) 0.4356(2)
O3_4 O 0.9208(2) 0.0510(5) 0.1399(2)
C28_7 C 0.9509(3) 0.0070(6) 0.1267(3)
O19_4 O 0.9560(3) 0.0165(6) 0.0866(3)
Dy10_4 Dy 0.86826(2) 0.08579(4) 0.18560(2)
C4_7 C 0.7451(4) 0.7654(8) 0.0665(4)
O9_4 O 0.8338(2) 0.9768(5) 0.1322(2)
C8_7 C 0.8809(3) 0.7638(7) 0.0717(3)
C9_7 C 0.8979(3) 0.7183(7) 0.0379(3)
H5_7 H 0.879518 0.694519 0.012723
C12_7 C 0.9810(3) 0.9425(7) 0.1571(3)
O16_4 O 0.8530(2) 0.9890(5) 0.0644(2)
C18_7 C 0.9831(3) 0.8414(7) 0.1497(3)
C20_7 C 0.9537(3) 0.7960(6) 0.1111(3)
C22_7 C 0.9091(3) 0.8031(7) 0.1082(3)
H8_7 H 0.898052 0.834670 0.131015
C23_7 C 0.8124(3) 0.8531(7) 0.0803(4)
C25_7 C 0.9698(3) 0.7453(7) 0.0784(3)
H10_7 H 0.999260 0.735907 0.081084
C32_7 C 0.9593(3) 0.6533(6) 0.0047(3)
C33_7 C 0.9415(3) 0.7074(6) 0.0408(3)
C38_7 C 0.8355(3) 0.9467(7) 0.0935(3)
O24_7 O 0.6809(3) 0.6851(7) 0.0635(4)
H26_7 H 0.655020 0.690001 0.063517
C41_7 C 0.8332(3) 0.7687(7) 0.0694(3)
O25_7 O 0.6778(3) 0.8421(7) 0.0703(5)
C43_7 C 0.8096(4) 0.6857(9) 0.0571(5)
H27_7 H 0.823531 0.630005 0.049623
C44_7 C 0.7682(3) 0.8503(7) 0.0789(4)
H28_7 H 0.753997 0.905646 0.086281
C45_7 C 0.7651(4) 0.6834(8) 0.0557(5)
H29_7 H 0.749612 0.626686 0.047512
C46_7 C 0.6973(4) 0.7678(9) 0.0657(5)
O15_4 O 0.9368(2) 0.6443(5) 0.9664(2)
C28_8 C 0.0491(3) 0.0070(6) 0.3733(3)
C4_8 C 0.2549(4) 0.7654(8) 0.4335(4)
C8_8 C 0.1191(3) 0.7638(7) 0.4283(3)
C9_8 C 0.1021(3) 0.7183(7) 0.4621(3)
H5_8 H 0.120482 0.694519 0.487277
C12_8 C 0.0190(3) 0.9425(7) 0.3429(3)
C18_8 C 0.0169(3) 0.8414(7) 0.3503(3)
C20_8 C 0.0463(3) 0.7960(6) 0.3889(3)
C22_8 C 0.0909(3) 0.8031(7) 0.3918(3)
H8_8 H 0.101948 0.834670 0.368985
C23_8 C 0.1876(3) 0.8531(7) 0.4197(4)
C25_8 C 0.0302(3) 0.7453(7) 0.4216(3)
H10_8 H 0.000740 0.735907 0.418916
C32_8 C 0.0407(3) 0.6533(6) 0.4953(3)
C33_8 C 0.0585(3) 0.7074(6) 0.4592(3)
C38_8 C 0.1645(3) 0.9467(7) 0.4065(3)
O24_8 O 0.3191(3) 0.6851(7) 0.4365(4)
H26_8 H 0.344980 0.690001 0.436483
C41_8 C 0.1668(3) 0.7687(7) 0.4306(3)
O25_8 O 0.3222(3) 0.8421(7) 0.4297(5)
C43_8 C 0.1904(4) 0.6857(9) 0.4429(5)
H27_8 H 0.176469 0.630005 0.450377
C44_8 C 0.2318(3) 0.8503(7) 0.4211(4)
H28_8 H 0.246003 0.905646 0.413719
C45_8 C 0.2349(4) 0.6834(8) 0.4443(5)
H29_8 H 0.250388 0.626686 0.452488
C46_8 C 0.3027(4) 0.7678(9) 0.4343(5)
C1_8 C 0.9297(4) 0.5559(8) 0.2717(3)
H1_8 H 0.939829 0.616195 0.283039
C3_8 C 0.7437(3) 0.2345(7) 0.0708(3)
H2_8 H 0.735048 0.175180 0.081061
O4_8 O 0.8499(2) 0.1795(5) 0.1073(2)
O6_8 O 0.9049(3) 0.2403(5) 0.1882(2)
O7_8 O 0.8033(2) 0.1737(5) 0.1526(2)
O8_8 O 0.6588(2) 0.1769(6) 0.0424(3)
C5_8 C 0.9250(3) 0.4798(7) 0.3013(3)
C6_8 C 0.8406(3) 0.3984(7) 0.0920(3)
C7_8 C 0.8147(3) 0.2044(6) 0.1177(3)
O10_8 O 0.9307(2) 0.4672(5) 0.0127(2)
O12_8 O 0.8625(3) 0.2253(5) 0.2385(3)
C10_8 C 0.7699(3) 0.4107(7) 0.0400(3)
H6_8 H 0.778474 0.470449 0.030020
C11_8 C 0.7148(3) 0.2886(7) 0.0391(3)
C13_8 C 0.8925(3) 0.4449(7) 0.1574(3)
C14_8 C 0.8695(3) 0.4254(6) 0.0645(3)
H7_8 H 0.861354 0.423339 0.033299
C15_8 C 0.7974(3) 0.3585(7) 0.0713(3)
C16_8 C 0.9360(3) 0.4921(7) 0.3513(3)
C17_8 C 0.6711(3) 0.2505(6) 0.0239(3)
C19_8 C 0.7844(3) 0.2680(6) 0.0866(3)
C24_8 C 0.8518(3) 0.4109(7) 0.1384(3)
H9_8 H 0.832036 0.396363 0.156901
C27_8 C 0.9048(3) 0.4552(8) 0.2075(3)
H12_8 H 0.992402 0.051586 0.303068
C30_8 C 0.9000(3) 0.3763(7) 0.2368(3)
C31_8 C 0.9098(3) 0.3897(7) 0.2831(3)
H13_8 H 0.906211 0.338494 0.302341
C34_8 C 0.9220(3) 0.4662(6) 0.1305(3)
H14_8 H 0.949296 0.487770 0.143318
O18_8 O 0.9267(3) 0.0718(6) 0.2456(3)
C36_8 C 0.9192(4) 0.5418(8) 0.2263(3)
H16_8 H 0.922061 0.593800 0.207201
C37_8 C 0.8885(3) 0.2752(7) 0.2199(3)
C39_8 C 0.7286(3) 0.3744(7) 0.0228(3)
H17_8 H 0.710624 0.408444 0.000307
O21_8 O 0.9341(3) 0.2423(6) 0.1072(3)
H20_8 H 0.926029 0.263552 0.130760
H21_8 H 0.933419 0.180492 0.108000
O22_8 O 0.8180(3) 0.0281(6) 0.2281(3)
H22_8 H 0.812891 0.069919 0.207070
C40_8 C 0.9445(3) 0.4647(7) 0.0537(3)
H25_8 H 0.917049 0.008417 0.021822
C42_8 C 0.9108(3) 0.4553(6) 0.0835(3)
O26_8 O 0.9511(3) 0.1972(6) 0.0214(3)
H30_8 H 0.934935 0.150668 0.008637
H31_8 H 0.976315 0.188498 0.018977
O11_8 O 0.9230(2) 0.3167(5) 0.9464(2)
H3_8 H 0.937511 0.338390 0.927288
H4_8 H 0.939061 0.280860 0.965248
O20_8 O 0.8740(2) 0.4960(5) 0.9245(2)
H18_8 H 0.894211 0.501403 0.909503
H19_8 H 0.870571 0.436063 0.930203
O23_8 O 0.9000(3) 0.0139(6) 0.9967(3)
H24_8 H 0.885409 0.065587 0.997512
C2_8 C 0.9594(3) 0.9305(8) 0.2817(3)
O13_8 O 0.9010(3) 0.9321(5) 0.2187(3)
C21_8 C 0.9274(3) 0.9791(7) 0.2466(4)
C26_8 C 0.9573(4) 0.8311(7) 0.2881(4)
H11_8 H 0.937722 0.793188 0.268777
C29_8 C 0.9905(3) 0.9851(7) 0.3084(3)
C35_8 C 0.9852(4) 0.7888(7) 0.3241(4)
H15_8 H 0.982094 0.723113 0.330369
H23_8 H 0.841421 0.999479 0.226220
loop_
_geom_bond_atom_site_label_1
_geom_bond_atom_site_label_2
_geom_bond_site_symmetry_1
_geom_bond_site_symmetry_2
O1 C17 1_555 1_555
O2 C40 1_555 1_555
Dy1 O4 1_555 1_555
Dy2 O10 1_555 1_555
Dy3 O4 1_555 1_555
C2 C21 1_555 1_555
C3 H2 1_555 1_555
O3 C28 1_555 1_555
O4 C7 1_555 1_555
O5 C16 1_555 1_555
C4 C44 1_555 1_555
O6 Dy3 1_555 1_555
O7 Dy3 1_555 1_555
O8 C17 1_555 1_555
O9 C38 1_555 1_555
C6 C14 1_555 1_555
C7 O7 1_555 1_555
O10 C40 1_555 1_555
O11 Dy2 1_555 1_555
H3 O11 1_555 1_555
H4 O11 1_555 1_555
C8 C9 1_555 1_555
O12 Dy3 1_555 1_555
O13 Dy3 1_555 1_555
C9 H5 1_555 1_555
C10 H6 1_555 1_555
O14 C32 1_555 1_555
C11 C3 1_555 1_555
C12 C18 1_555 1_555
C13 C24 1_555 1_555
C14 H7 1_555 1_555
C15 C6 1_555 1_555
O16 C38 1_555 1_555
C16 C5 1_555 1_555
C17 C11 1_555 1_555
C18 C20 1_555 1_555
C19 C3 1_555 1_555
C20 C22 1_555 1_555
C21 O13 1_555 1_555
C22 C8 1_555 1_555
H8 C22 1_555 1_555
C23 C38 1_555 1_555
C24 C6 1_555 1_555
H9 C24 1_555 1_555
C25 C20 1_555 1_555
H10 C25 1_555 1_555
C26 C2 1_555 1_555
H11 C26 1_555 1_555
C27 C13 1_555 1_555
C28 C12 1_555 1_555
C29 C2 1_555 1_555
H12 C29 1_555 1_555
C30 C27 1_555 1_555
C31 C5 1_555 1_555
H13 C31 1_555 1_555
C32 C33 1_555 1_555
C33 C9 1_555 1_555
C34 C13 1_555 1_555
H14 C34 1_555 1_555
O18 Dy3 1_555 1_555
C35 C18 1_555 1_555
H15 C35 1_555 1_555
O19 C28 1_555 1_555
C37 O6 1_555 1_555
C39 C10 1_555 1_555
H17 C39 1_555 1_555
O20 Dy2 1_555 1_555
H19 O20 1_555 1_555
O21 Dy1 1_555 1_555
H20 O21 1_555 1_555
H21 O21 1_555 1_555
O22 Dy3 1_555 1_555
H22 O22 1_555 1_555
H23 O22 1_555 1_555
C40 C42 1_555 1_555
O23 Dy1 1_555 1_555
H24 O23 1_555 1_555
H25 O23 1_555 1_555
O24 H26 1_555 1_555
C41 C8 1_555 1_555
O25 C46 1_555 1_555
C42 C14 1_555 1_555
C43 C41 1_555 1_555
H27 C43 1_555 1_555
C44 C23 1_555 1_555
H28 C44 1_555 1_555
C45 C4 1_555 1_555
H29 C45 1_555 1_555
C46 C4 1_555 1_555
O26 Dy1 1_555 1_555
H30 O26 1_555 1_555
H31 O26 1_555 1_555
O27 Dy1 1_555 1_555
Dy4 O3 1_555 1_555
Dy5 O1 1_555 1_555
Dy9 O14 1_555 1_555
Dy10 O3 1_555 1_555
O29 Dy1 1_555 1_555
O31 Dy3 1_555 1_555
O32 Dy2 1_555 1_555
O34 Dy1 1_555 1_555
O35 Dy2 1_555 1_555
O36 Dy1 1_555 1_555
Dy3 O29 1_555 1_555
O9 Dy10 1_555 1_555
C7 C19 1_555 1_555
O12 C37 1_555 1_555
C10 C15 1_555 1_555
C11 C39 1_555 1_555
C12 C29 1_555 1_555
C15 C19 1_555 1_555
O16 Dy4 1_555 1_555
C21 O18 1_555 1_555
C23 C41 1_555 1_555
C25 C33 1_555 1_555
C26 C35 1_555 1_555
C30 C31 1_555 1_555
C30 C37 1_555 1_555
C34 C42 1_555 1_555
O19 Dy4 1_555 1_555
O24 C46 1_555 1_555
C43 C45 1_555 1_555
C1 H1 1_555 1_555
C36 C1 1_555 1_555
H16 C36 1_555 1_555
O17 Dy9 1_555 1_555
O11_2 Dy6 1_555 1_555
H3_2 O11_2 1_555 1_555
H4_2 O11_2 1_555 1_555
O20_2 Dy6 1_555 1_555
H19_2 O20_2 1_555 1_555
H24_2 O23_2 1_555 1_555
Dy5_2 O1_2 1_555 1_555
O32_2 Dy6 1_555 1_555
O35_2 Dy6 1_555 1_555
O2_2 C40_2 1_555 1_555
Dy4 O4_2 1_555 1_555
Dy10 O4_2 1_555 1_555
C2_2 C21_2 1_555 1_555
C3_2 H2_2 1_555 1_555
O29 C28_2 1_555 1_555
O4_2 C7_2 1_555 1_555
O5_2 C16_2 1_555 1_555
C4_2 C44_2 1_555 1_555
O6_2 Dy10 1_555 1_555
O7_2 Dy10 1_555 1_555
O8_2 C17_2 1_555 1_555
O31 C38_2 1_555 1_555
C6_2 C14_2 1_555 1_555
C7_2 O7_2 1_555 1_555
O10_2 C40_2 1_555 1_555
C8_2 C9_2 1_555 1_555
O12_2 Dy10 1_555 1_555
O13_2 Dy10 1_555 1_555
C9_2 H5_2 1_555 1_555
C10_2 H6_2 1_555 1_555
O14_2 C32_2 1_555 1_555
C11_2 C3_2 1_555 1_555
C12_2 C18_2 1_555 1_555
C13_2 C24_2 1_555 1_555
C14_2 H7_2 1_555 1_555
C15_2 C6_2 1_555 1_555
O33 C32_2 1_555 1_555
O34 C38_2 1_555 1_555
C16_2 C5_2 1_555 1_555
C17_2 C11_2 1_555 1_555
C18_2 C20_2 1_555 1_555
C19_2 C3_2 1_555 1_555
C20_2 C22_2 1_555 1_555
C21_2 O13_2 1_555 1_555
C22_2 C8_2 1_555 1_555
H8_2 C22_2 1_555 1_555
C23_2 C38_2 1_555 1_555
C24_2 C6_2 1_555 1_555
H9_2 C24_2 1_555 1_555
C25_2 C20_2 1_555 1_555
H10_2 C25_2 1_555 1_555
C26_2 C2_2 1_555 1_555
H11_2 C26_2 1_555 1_555
C27_2 C13_2 1_555 1_555
C28_2 C12_2 1_555 1_555
C29_2 C2_2 1_555 1_555
H12_2 C29_2 1_555 1_555
C30_2 C27_2 1_555 1_555
C31_2 C5_2 1_555 1_555
H13_2 C31_2 1_555 1_555
C32_2 C33_2 1_555 1_555
C33_2 C9_2 1_555 1_555
C34_2 C13_2 1_555 1_555
H14_2 C34_2 1_555 1_555
O18_2 Dy10 1_555 1_555
C35_2 C18_2 1_555 1_555
H15_2 C35_2 1_555 1_555
O36 C28_2 1_555 1_555
C37_2 O6_2 1_555 1_555
C39_2 C10_2 1_555 1_555
H17_2 C39_2 1_555 1_555
O21_2 Dy4 1_555 1_555
H20_2 O21_2 1_555 1_555
H21_2 O21_2 1_555 1_555
O22_2 Dy10 1_555 1_555
H22_2 O22_2 1_555 1_555
H23_2 O22_2 1_555 1_555
C40_2 C42_2 1_555 1_555
O24_2 H26_2 1_555 1_555
C41_2 C8_2 1_555 1_555
O25_2 C46_2 1_555 1_555
C42_2 C14_2 1_555 1_555
C43_2 C41_2 1_555 1_555
H27_2 C43_2 1_555 1_555
C44_2 C23_2 1_555 1_555
H28_2 C44_2 1_555 1_555
C45_2 C4_2 1_555 1_555
H29_2 C45_2 1_555 1_555
C46_2 C4_2 1_555 1_555
O26_2 Dy4 1_555 1_555
H30_2 O26_2 1_555 1_555
H31_2 O26_2 1_555 1_555
O27_2 Dy4 1_555 1_555
Dy7 O14_2 1_555 1_555
C7_2 C19_2 1_555 1_555
O12_2 C37_2 1_555 1_555
C10_2 C15_2 1_555 1_555
C11_2 C39_2 1_555 1_555
C12_2 C29_2 1_555 1_555
C15_2 C19_2 1_555 1_555
C21_2 O18_2 1_555 1_555
C23_2 C41_2 1_555 1_555
C25_2 C33_2 1_555 1_555
C26_2 C35_2 1_555 1_555
C30_2 C31_2 1_555 1_555
C30_2 C37_2 1_555 1_555
C34_2 C42_2 1_555 1_555
O24_2 C46_2 1_555 1_555
C43_2 C45_2 1_555 1_555
C1_2 H1_2 1_555 1_555
C36_2 C1_2 1_555 1_555
H16_2 C36_2 1_555 1_555
O17_2 Dy7 1_555 1_555
Dy6_2 O15_2 1_555 1_555
C4_3 C44_3 1_555 1_555
O9_2 C38_3 1_555 1_555
C8_3 C9_3 1_555 1_555
C9_3 H5_3 1_555 1_555
O14_3 C32_3 1_555 1_555
C12_3 C18_3 1_555 1_555
O16_2 C38_3 1_555 1_555
C18_3 C20_3 1_555 1_555
C20_3 C22_3 1_555 1_555
C22_3 C8_3 1_555 1_555
H8_3 C22_3 1_555 1_555
C23_3 C38_3 1_555 1_555
C25_3 C20_3 1_555 1_555
H10_3 C25_3 1_555 1_555
C32_3 C33_3 1_555 1_555
C33_3 C9_3 1_555 1_555
O24_3 H26_3 1_555 1_555
C41_3 C8_3 1_555 1_555
O25_3 C46_3 1_555 1_555
C43_3 C41_3 1_555 1_555
H27_3 C43_3 1_555 1_555
C44_3 C23_3 1_555 1_555
H28_3 C44_3 1_555 1_555
C45_3 C4_3 1_555 1_555
H29_3 C45_3 1_555 1_555
C46_3 C4_3 1_555 1_555
C23_3 C41_3 1_555 1_555
C25_3 C33_3 1_555 1_555
O24_3 C46_3 1_555 1_555
C43_3 C45_3 1_555 1_555
O3_2 C28_3 1_555 1_555
O19_2 C28_3 1_555 1_555
Dy4_2 O3_2 1_555 1_555
Dy10_2 O3_2 1_555 1_555
O19_2 Dy4_2 1_555 1_555
C2_3 C21_3 1_555 1_555
C21_3 O13_3 1_555 1_555
C26_3 C2_3 1_555 1_555
H11_3 C26_3 1_555 1_555
C29_3 C2_3 1_555 1_555
H15_3 C35_3 1_555 1_555
C26_3 C35_3 1_555 1_555
C1_3 H1_3 1_555 1_555
O1_3 C17_3 1_555 1_555
O2_3 C40_3 1_555 1_555
Dy1_2 O4_3 1_555 1_555
Dy2_2 O10_3 1_555 1_555
Dy3_2 O4_3 1_555 1_555
C3_3 H2_3 1_555 1_555
O4_3 C7_3 1_555 1_555
O5_3 C16_3 1_555 1_555
O6_3 Dy3_2 1_555 1_555
O7_3 Dy3_2 1_555 1_555
O8_3 C17_3 1_555 1_555
C5_3 C1_3 1_555 1_555
C6_3 C14_3 1_555 1_555
C7_3 O7_3 1_555 1_555
O10_3 C40_3 1_555 1_555
O11_3 Dy2_2 1_555 1_555
H3_3 O11_3 1_555 1_555
H4_3 O11_3 1_555 1_555
O12_3 Dy3_2 1_555 1_555
C10_3 H6_3 1_555 1_555
C11_3 C3_3 1_555 1_555
C13_3 C24_3 1_555 1_555
C14_3 H7_3 1_555 1_555
C15_3 C6_3 1_555 1_555
C16_3 C5_3 1_555 1_555
O17_3 C16_3 1_555 1_555
C17_3 C11_3 1_555 1_555
C19_3 C3_3 1_555 1_555
C24_3 C6_3 1_555 1_555
H9_3 C24_3 1_555 1_555
C27_3 C13_3 1_555 1_555
C30_3 C27_3 1_555 1_555
C31_3 C5_3 1_555 1_555
H13_3 C31_3 1_555 1_555
C34_3 C13_3 1_555 1_555
H14_3 C34_3 1_555 1_555
O18_3 Dy3_2 1_555 1_555
C36_3 C1_3 1_555 1_555
H16_3 C36_3 1_555 1_555
C37_3 O6_3 1_555 1_555
C39_3 C10_3 1_555 1_555
H17_3 C39_3 1_555 1_555
O20_3 Dy2_2 1_555 1_555
H18_3 O20_3 1_555 1_555
H19_3 O20_3 1_555 1_555
O21_3 Dy1_2 1_555 1_555
H20_3 O21_3 1_555 1_555
H21_3 O21_3 1_555 1_555
O22_3 Dy3_2 1_555 1_555
H22_3 O22_3 1_555 1_555
C40_3 C42_3 1_555 1_555
O23_3 Dy1_2 1_555 1_555
H24_3 O23_3 1_555 1_555
H25_3 O23_3 1_555 1_555
C42_3 C14_3 1_555 1_555
O26_3 Dy1_2 1_555 1_555
H30_3 O26_3 1_555 1_555
H31_3 O26_3 1_555 1_555
O27_3 Dy1_2 1_555 1_555
Dy5_3 O1_3 1_555 1_555
Dy9_2 O5_3 1_555 1_555
O29_2 Dy1_2 1_555 1_555
O30_3 Dy2_2 1_555 1_555
O33_2 Dy2_2 1_555 1_555
O35_3 Dy2_2 1_555 1_555
O36_2 Dy1_2 1_555 1_555
Dy3_2 O29_2 1_555 1_555
C7_3 C19_3 1_555 1_555
O12_3 C37_3 1_555 1_555
C10_3 C15_3 1_555 1_555
C11_3 C39_3 1_555 1_555
C15_3 C19_3 1_555 1_555
O17_3 Dy9_2 1_555 1_555
C27_3 C36_3 1_555 1_555
C30_3 C31_3 1_555 1_555
C30_3 C37_3 1_555 1_555
C34_3 C42_3 1_555 1_555
C2_4 C21_4 1_555 1_555
C21_4 O13_4 1_555 1_555
C26_4 C2_4 1_555 1_555
H11_4 C26_4 1_555 1_555
C29_4 C2_4 1_555 1_555
H15_4 C35_4 1_555 1_555
C26_4 C35_4 1_555 1_555
O11_4 Dy6_2 1_555 1_555
H3_4 O11_4 1_555 1_555
H4_4 O11_4 1_555 1_555
O20_4 Dy6_2 1_555 1_555
H18_4 O20_4 1_555 1_555
H19_4 O20_4 1_555 1_555
H24_4 O23_4 1_555 1_555
Dy5_4 O1_4 1_555 1_555
O30_4 Dy6_2 1_555 1_555
O35_4 Dy6_2 1_555 1_555
C1_4 H1_4 1_555 1_555
O2_4 C40_4 1_555 1_555
Dy4_2 O4_4 1_555 1_555
Dy10_2 O4_4 1_555 1_555
C3_4 H2_4 1_555 1_555
O4_4 C7_4 1_555 1_555
O5_4 C16_4 1_555 1_555
O6_4 Dy10_2 1_555 1_555
O7_4 Dy10_2 1_555 1_555
O8_4 C17_4 1_555 1_555
C5_4 C1_4 1_555 1_555
C6_4 C14_4 1_555 1_555
C7_4 O7_4 1_555 1_555
O10_4 C40_4 1_555 1_555
O12_4 Dy10_2 1_555 1_555
C10_4 H6_4 1_555 1_555
C11_4 C3_4 1_555 1_555
C13_4 C24_4 1_555 1_555
C14_4 H7_4 1_555 1_555
C15_4 C6_4 1_555 1_555
C16_4 C5_4 1_555 1_555
O17_4 C16_4 1_555 1_555
C17_4 C11_4 1_555 1_555
C19_4 C3_4 1_555 1_555
C24_4 C6_4 1_555 1_555
H9_4 C24_4 1_555 1_555
C27_4 C13_4 1_555 1_555
C30_4 C27_4 1_555 1_555
C31_4 C5_4 1_555 1_555
H13_4 C31_4 1_555 1_555
C34_4 C13_4 1_555 1_555
H14_4 C34_4 1_555 1_555
O18_4 Dy10_2 1_555 1_555
C36_4 C1_4 1_555 1_555
H16_4 C36_4 1_555 1_555
C37_4 O6_4 1_555 1_555
C39_4 C10_4 1_555 1_555
H17_4 C39_4 1_555 1_555
O21_4 Dy4_2 1_555 1_555
H20_4 O21_4 1_555 1_555
H21_4 O21_4 1_555 1_555
O22_4 Dy10_2 1_555 1_555
H22_4 O22_4 1_555 1_555
C40_4 C42_4 1_555 1_555
C42_4 C14_4 1_555 1_555
O26_4 Dy4_2 1_555 1_555
H30_4 O26_4 1_555 1_555
H31_4 O26_4 1_555 1_555
O27_4 Dy4_2 1_555 1_555
Dy7_2 O5_4 1_555 1_555
C7_4 C19_4 1_555 1_555
O12_4 C37_4 1_555 1_555
C10_4 C15_4 1_555 1_555
C11_4 C39_4 1_555 1_555
C15_4 C19_4 1_555 1_555
O17_4 Dy7_2 1_555 1_555
C27_4 C36_4 1_555 1_555
C30_4 C31_4 1_555 1_555
C30_4 C37_4 1_555 1_555
C34_4 C42_4 1_555 1_555
C4_4 C44_4 1_555 1_555
O31_2 C38_4 1_555 1_555
C8_4 C9_4 1_555 1_555
C9_4 H5_4 1_555 1_555
O14_4 C32_4 1_555 1_555
C12_4 C18_4 1_555 1_555
O33_2 C32_4 1_555 1_555
O34_2 C38_4 1_555 1_555
C18_4 C20_4 1_555 1_555
C20_4 C22_4 1_555 1_555
C22_4 C8_4 1_555 1_555
H8_4 C22_4 1_555 1_555
C23_4 C38_4 1_555 1_555
C25_4 C20_4 1_555 1_555
H10_4 C25_4 1_555 1_555
C32_4 C33_4 1_555 1_555
C33_4 C9_4 1_555 1_555
O24_4 H26_4 1_555 1_555
C41_4 C8_4 1_555 1_555
O25_4 C46_4 1_555 1_555
C43_4 C41_4 1_555 1_555
H27_4 C43_4 1_555 1_555
C44_4 C23_4 1_555 1_555
H28_4 C44_4 1_555 1_555
C45_4 C4_4 1_555 1_555
H29_4 C45_4 1_555 1_555
C46_4 C4_4 1_555 1_555
C23_4 C41_4 1_555 1_555
C25_4 C33_4 1_555 1_555
O24_4 C46_4 1_555 1_555
C43_4 C45_4 1_555 1_555
O29_2 C28_4 1_555 1_555
O36_2 C28_4 1_555 1_555
C1_5 H1_5 1_555 1_555
C36_5 C1_5 1_555 1_555
H16_5 C36_5 1_555 1_555
O27_3 C17_5 1_555 1_555
O28 C40_5 1_555 1_555
Dy5_3 O4_5 1_555 1_555
Dy7 O10_5 1_555 1_555
Dy3_3 O4_5 1_555 1_555
C2_5 C21_5 1_555 1_555
C3_5 H2_5 1_555 1_555
O3_3 C28_5 1_555 1_555
O4_5 C7_5 1_555 1_555
O30_2 C16_5 1_555 1_555
C4_5 C44_5 1_555 1_555
O6_5 Dy3_3 1_555 1_555
O7_5 Dy3_3 1_555 1_555
O8_5 C17_5 1_555 1_555
O9_3 C38_5 1_555 1_555
C6_5 C14_5 1_555 1_555
C7_5 O7_5 1_555 1_555
O10_5 C40_5 1_555 1_555
O11_5 Dy7 1_555 1_555
H3_5 O11_5 1_555 1_555
H4_5 O11_5 1_555 1_555
C8_5 C9_5 1_555 1_555
O12_5 Dy3_3 1_555 1_555
O13_5 Dy3_3 1_555 1_555
C9_5 H5_5 1_555 1_555
C10_5 H6_5 1_555 1_555
O32_2 C32_5 1_555 1_555
C11_5 C3_5 1_555 1_555
C12_5 C18_5 1_555 1_555
C13_5 C24_5 1_555 1_555
C14_5 H7_5 1_555 1_555
C15_5 C6_5 1_555 1_555
O16_3 C38_5 1_555 1_555
C16_5 C5_5 1_555 1_555
C17_5 C11_5 1_555 1_555
C18_5 C20_5 1_555 1_555
C19_5 C3_5 1_555 1_555
C20_5 C22_5 1_555 1_555
C21_5 O13_5 1_555 1_555
C22_5 C8_5 1_555 1_555
H8_5 C22_5 1_555 1_555
C23_5 C38_5 1_555 1_555
C24_5 C6_5 1_555 1_555
H9_5 C24_5 1_555 1_555
C25_5 C20_5 1_555 1_555
H10_5 C25_5 1_555 1_555
C26_5 C2_5 1_555 1_555
H11_5 C26_5 1_555 1_555
C27_5 C13_5 1_555 1_555
C28_5 C12_5 1_555 1_555
C29_5 C2_5 1_555 1_555
H12_5 C29_5 1_555 1_555
C30_5 C27_5 1_555 1_555
C31_5 C5_5 1_555 1_555
H13_5 C31_5 1_555 1_555
C32_5 C33_5 1_555 1_555
C33_5 C9_5 1_555 1_555
C34_5 C13_5 1_555 1_555
H14_5 C34_5 1_555 1_555
O18_5 Dy3_3 1_555 1_555
C35_5 C18_5 1_555 1_555
H15_5 C35_5 1_555 1_555
O19_3 C28_5 1_555 1_555
C37_5 O6_5 1_555 1_555
C39_5 C10_5 1_555 1_555
H17_5 C39_5 1_555 1_555
O20_5 Dy7 1_555 1_555
H19_5 O20_5 1_555 1_555
O21_5 Dy5_3 1_555 1_555
H20_5 O21_5 1_555 1_555
H21_5 O21_5 1_555 1_555
O22_5 Dy3_3 1_555 1_555
H22_5 O22_5 1_555 1_555
H23_5 O22_5 1_555 1_555
C40_5 C42_5 1_555 1_555
O23_5 Dy5_3 1_555 1_555
H24_5 O23_5 1_555 1_555
H25_5 O23_5 1_555 1_555
O24_5 H26_5 1_555 1_555
C41_5 C8_5 1_555 1_555
O25_5 C46_5 1_555 1_555
C42_5 C14_5 1_555 1_555
C43_5 C41_5 1_555 1_555
H27_5 C43_5 1_555 1_555
C44_5 C23_5 1_555 1_555
H28_5 C44_5 1_555 1_555
C45_5 C4_5 1_555 1_555
H29_5 C45_5 1_555 1_555
C46_5 C4_5 1_555 1_555
O26_5 Dy5_3 1_555 1_555
H30_5 O26_5 1_555 1_555
H31_5 O26_5 1_555 1_555
Dy5_4 O3_3 1_555 1_555
Dy10_3 O3_3 1_555 1_555
O29_3 Dy5_3 1_555 1_555
O31_3 Dy3_3 1_555 1_555
O34_3 Dy5_3 1_555 1_555
O36_3 Dy5_3 1_555 1_555
Dy3_3 O29_3 1_555 1_555
O9_3 Dy10_3 1_555 1_555
C7_5 C19_5 1_555 1_555
O12_5 C37_5 1_555 1_555
C10_5 C15_5 1_555 1_555
C11_5 C39_5 1_555 1_555
C12_5 C29_5 1_555 1_555
C15_5 C19_5 1_555 1_555
O16_3 Dy5_4 1_555 1_555
C21_5 O18_5 1_555 1_555
C23_5 C41_5 1_555 1_555
C25_5 C33_5 1_555 1_555
C26_5 C35_5 1_555 1_555
C30_5 C31_5 1_555 1_555
C30_5 C37_5 1_555 1_555
C34_5 C42_5 1_555 1_555
O19_3 Dy5_4 1_555 1_555
O24_5 C46_5 1_555 1_555
C43_5 C45_5 1_555 1_555
C1_6 H1_6 1_555 1_555
C36_6 C1_6 1_555 1_555
H16_6 C36_6 1_555 1_555
O28_2 C40_6 1_555 1_555
Dy5_4 O4_6 1_555 1_555
Dy10_3 O4_6 1_555 1_555
C2_6 C21_6 1_555 1_555
C3_6 H2_6 1_555 1_555
O29_3 C28_6 1_555 1_555
O4_6 C7_6 1_555 1_555
O30 C16_6 1_555 1_555
C4_6 C44_6 1_555 1_555
O6_6 Dy10_3 1_555 1_555
O7_6 Dy10_3 1_555 1_555
O8_6 C17_6 1_555 1_555
O31_3 C38_6 1_555 1_555
C6_6 C14_6 1_555 1_555
C7_6 O7_6 1_555 1_555
O10_6 C40_6 1_555 1_555
C8_6 C9_6 1_555 1_555
O12_6 Dy10_3 1_555 1_555
O13_6 Dy10_3 1_555 1_555
C9_6 H5_6 1_555 1_555
C10_6 H6_6 1_555 1_555
O32 C32_6 1_555 1_555
C11_6 C3_6 1_555 1_555
C12_6 C18_6 1_555 1_555
C13_6 C24_6 1_555 1_555
C14_6 H7_6 1_555 1_555
C15_6 C6_6 1_555 1_555
O33_3 C32_6 1_555 1_555
O34_3 C38_6 1_555 1_555
C16_6 C5_6 1_555 1_555
C17_6 C11_6 1_555 1_555
C18_6 C20_6 1_555 1_555
C19_6 C3_6 1_555 1_555
C20_6 C22_6 1_555 1_555
C21_6 O13_6 1_555 1_555
C22_6 C8_6 1_555 1_555
H8_6 C22_6 1_555 1_555
C23_6 C38_6 1_555 1_555
C24_6 C6_6 1_555 1_555
H9_6 C24_6 1_555 1_555
C25_6 C20_6 1_555 1_555
H10_6 C25_6 1_555 1_555
C26_6 C2_6 1_555 1_555
H11_6 C26_6 1_555 1_555
C27_6 C13_6 1_555 1_555
C28_6 C12_6 1_555 1_555
C29_6 C2_6 1_555 1_555
H12_6 C29_6 1_555 1_555
C30_6 C27_6 1_555 1_555
C31_6 C5_6 1_555 1_555
H13_6 C31_6 1_555 1_555
C32_6 C33_6 1_555 1_555
C33_6 C9_6 1_555 1_555
C34_6 C13_6 1_555 1_555
H14_6 C34_6 1_555 1_555
O18_6 Dy10_3 1_555 1_555
C35_6 C18_6 1_555 1_555
H15_6 C35_6 1_555 1_555
O36_3 C28_6 1_555 1_555
C37_6 O6_6 1_555 1_555
C39_6 C10_6 1_555 1_555
H17_6 C39_6 1_555 1_555
O21_6 Dy5_4 1_555 1_555
H20_6 O21_6 1_555 1_555
H21_6 O21_6 1_555 1_555
O22_6 Dy10_3 1_555 1_555
H22_6 O22_6 1_555 1_555
H23_6 O22_6 1_555 1_555
C40_6 C42_6 1_555 1_555
O24_6 H26_6 1_555 1_555
C41_6 C8_6 1_555 1_555
O25_6 C46_6 1_555 1_555
C42_6 C14_6 1_555 1_555
C43_6 C41_6 1_555 1_555
H27_6 C43_6 1_555 1_555
C44_6 C23_6 1_555 1_555
H28_6 C44_6 1_555 1_555
C45_6 C4_6 1_555 1_555
H29_6 C45_6 1_555 1_555
C46_6 C4_6 1_555 1_555
O26_6 Dy5_4 1_555 1_555
H30_6 O26_6 1_555 1_555
H31_6 O26_6 1_555 1_555
C7_6 C19_6 1_555 1_555
O12_6 C37_6 1_555 1_555
C10_6 C15_6 1_555 1_555
C11_6 C39_6 1_555 1_555
C12_6 C29_6 1_555 1_555
C15_6 C19_6 1_555 1_555
C21_6 O18_6 1_555 1_555
C23_6 C41_6 1_555 1_555
C25_6 C33_6 1_555 1_555
C26_6 C35_6 1_555 1_555
C30_6 C31_6 1_555 1_555
C30_6 C37_6 1_555 1_555
C34_6 C42_6 1_555 1_555
O24_6 C46_6 1_555 1_555
C43_6 C45_6 1_555 1_555
O11_6 Dy9 1_555 1_555
H3_6 O11_6 1_555 1_555
H4_6 O11_6 1_555 1_555
O20_6 Dy9 1_555 1_555
H19_6 O20_6 1_555 1_555
H24_6 O23_6 1_555 1_555
C1_7 H1_7 1_555 1_555
O27 C17_7 1_555 1_555
O28_3 C40_7 1_555 1_555
Dy5 O4_7 1_555 1_555
Dy7_2 O10_7 1_555 1_555
Dy3_4 O4_7 1_555 1_555
C3_7 H2_7 1_555 1_555
O4_7 C7_7 1_555 1_555
O30_4 C16_7 1_555 1_555
O6_7 Dy3_4 1_555 1_555
O7_7 Dy3_4 1_555 1_555
O8_7 C17_7 1_555 1_555
C5_7 C1_7 1_555 1_555
C6_7 C14_7 1_555 1_555
C7_7 O7_7 1_555 1_555
O10_7 C40_7 1_555 1_555
O11_7 Dy7_2 1_555 1_555
H3_7 O11_7 1_555 1_555
H4_7 O11_7 1_555 1_555
O12_7 Dy3_4 1_555 1_555
C10_7 H6_7 1_555 1_555
C11_7 C3_7 1_555 1_555
C13_7 C24_7 1_555 1_555
C14_7 H7_7 1_555 1_555
C15_7 C6_7 1_555 1_555
C16_7 C5_7 1_555 1_555
O35_4 C16_7 1_555 1_555
C17_7 C11_7 1_555 1_555
C19_7 C3_7 1_555 1_555
C24_7 C6_7 1_555 1_555
H9_7 C24_7 1_555 1_555
C27_7 C13_7 1_555 1_555
C30_7 C27_7 1_555 1_555
C31_7 C5_7 1_555 1_555
H13_7 C31_7 1_555 1_555
C34_7 C13_7 1_555 1_555
H14_7 C34_7 1_555 1_555
O18_7 Dy3_4 1_555 1_555
C36_7 C1_7 1_555 1_555
H16_7 C36_7 1_555 1_555
C37_7 O6_7 1_555 1_555
C39_7 C10_7 1_555 1_555
H17_7 C39_7 1_555 1_555
O20_7 Dy7_2 1_555 1_555
H18_7 O20_7 1_555 1_555
H19_7 O20_7 1_555 1_555
O21_7 Dy5 1_555 1_555
H20_7 O21_7 1_555 1_555
H21_7 O21_7 1_555 1_555
O22_7 Dy3_4 1_555 1_555
H22_7 O22_7 1_555 1_555
C40_7 C42_7 1_555 1_555
O23_7 Dy5 1_555 1_555
H24_7 O23_7 1_555 1_555
H25_7 O23_7 1_555 1_555
C42_7 C14_7 1_555 1_555
O26_7 Dy5 1_555 1_555
H30_7 O26_7 1_555 1_555
H31_7 O26_7 1_555 1_555
O29_4 Dy5 1_555 1_555
O33_4 Dy7_2 1_555 1_555
O36_4 Dy5 1_555 1_555
Dy3_4 O29_4 1_555 1_555
C7_7 C19_7 1_555 1_555
O12_7 C37_7 1_555 1_555
C10_7 C15_7 1_555 1_555
C11_7 C39_7 1_555 1_555
C15_7 C19_7 1_555 1_555
C27_7 C36_7 1_555 1_555
C30_7 C31_7 1_555 1_555
C30_7 C37_7 1_555 1_555
C34_7 C42_7 1_555 1_555
C2_7 C21_7 1_555 1_555
C21_7 O13_7 1_555 1_555
C26_7 C2_7 1_555 1_555
H11_7 C26_7 1_555 1_555
C29_7 C2_7 1_555 1_555
H15_7 C35_7 1_555 1_555
C26_7 C35_7 1_555 1_555
O3_4 C28_7 1_555 1_555
O19_4 C28_7 1_555 1_555
Dy5_2 O3_4 1_555 1_555
Dy10_4 O3_4 1_555 1_555
O19_4 Dy5_2 1_555 1_555
C4_7 C44_7 1_555 1_555
O9_4 C38_7 1_555 1_555
C8_7 C9_7 1_555 1_555
C9_7 H5_7 1_555 1_555
O32_4 C32_7 1_555 1_555
C12_7 C18_7 1_555 1_555
O16_4 C38_7 1_555 1_555
C18_7 C20_7 1_555 1_555
C20_7 C22_7 1_555 1_555
C22_7 C8_7 1_555 1_555
H8_7 C22_7 1_555 1_555
C23_7 C38_7 1_555 1_555
C25_7 C20_7 1_555 1_555
H10_7 C25_7 1_555 1_555
C32_7 C33_7 1_555 1_555
C33_7 C9_7 1_555 1_555
O24_7 H26_7 1_555 1_555
C41_7 C8_7 1_555 1_555
O25_7 C46_7 1_555 1_555
C43_7 C41_7 1_555 1_555
H27_7 C43_7 1_555 1_555
C44_7 C23_7 1_555 1_555
H28_7 C44_7 1_555 1_555
C45_7 C4_7 1_555 1_555
H29_7 C45_7 1_555 1_555
C46_7 C4_7 1_555 1_555
C23_7 C41_7 1_555 1_555
C25_7 C33_7 1_555 1_555
O24_7 C46_7 1_555 1_555
C43_7 C45_7 1_555 1_555
Dy9_2 O15_4 1_555 1_555
O29_4 C28_8 1_555 1_555
O36_4 C28_8 1_555 1_555
C4_8 C44_8 1_555 1_555
O31_4 C38_8 1_555 1_555
C8_8 C9_8 1_555 1_555
C9_8 H5_8 1_555 1_555
O32_3 C32_8 1_555 1_555
C12_8 C18_8 1_555 1_555
O33_4 C32_8 1_555 1_555
O34_4 C38_8 1_555 1_555
C18_8 C20_8 1_555 1_555
C20_8 C22_8 1_555 1_555
C22_8 C8_8 1_555 1_555
H8_8 C22_8 1_555 1_555
C23_8 C38_8 1_555 1_555
C25_8 C20_8 1_555 1_555
H10_8 C25_8 1_555 1_555
C32_8 C33_8 1_555 1_555
C33_8 C9_8 1_555 1_555
O24_8 H26_8 1_555 1_555
C41_8 C8_8 1_555 1_555
O25_8 C46_8 1_555 1_555
C43_8 C41_8 1_555 1_555
H27_8 C43_8 1_555 1_555
C44_8 C23_8 1_555 1_555
H28_8 C44_8 1_555 1_555
C45_8 C4_8 1_555 1_555
H29_8 C45_8 1_555 1_555
C46_8 C4_8 1_555 1_555
C23_8 C41_8 1_555 1_555
C25_8 C33_8 1_555 1_555
O24_8 C46_8 1_555 1_555
C43_8 C45_8 1_555 1_555
C1_8 H1_8 1_555 1_555
O28_4 C40_8 1_555 1_555
Dy5_2 O4_8 1_555 1_555
Dy10_4 O4_8 1_555 1_555
C3_8 H2_8 1_555 1_555
O4_8 C7_8 1_555 1_555
O30_3 C16_8 1_555 1_555
O6_8 Dy10_4 1_555 1_555
O7_8 Dy10_4 1_555 1_555
O8_8 C17_8 1_555 1_555
C5_8 C1_8 1_555 1_555
C6_8 C14_8 1_555 1_555
C7_8 O7_8 1_555 1_555
O10_8 C40_8 1_555 1_555
O12_8 Dy10_4 1_555 1_555
C10_8 H6_8 1_555 1_555
C11_8 C3_8 1_555 1_555
C13_8 C24_8 1_555 1_555
C14_8 H7_8 1_555 1_555
C15_8 C6_8 1_555 1_555
C16_8 C5_8 1_555 1_555
O35_3 C16_8 1_555 1_555
C17_8 C11_8 1_555 1_555
C19_8 C3_8 1_555 1_555
C24_8 C6_8 1_555 1_555
H9_8 C24_8 1_555 1_555
C27_8 C13_8 1_555 1_555
C30_8 C27_8 1_555 1_555
C31_8 C5_8 1_555 1_555
H13_8 C31_8 1_555 1_555
C34_8 C13_8 1_555 1_555
H14_8 C34_8 1_555 1_555
O18_8 Dy10_4 1_555 1_555
C36_8 C1_8 1_555 1_555
H16_8 C36_8 1_555 1_555
C37_8 O6_8 1_555 1_555
C39_8 C10_8 1_555 1_555
H17_8 C39_8 1_555 1_555
O21_8 Dy5_2 1_555 1_555
H20_8 O21_8 1_555 1_555
H21_8 O21_8 1_555 1_555
O22_8 Dy10_4 1_555 1_555
H22_8 O22_8 1_555 1_555
C40_8 C42_8 1_555 1_555
C42_8 C14_8 1_555 1_555
O26_8 Dy5_2 1_555 1_555
H30_8 O26_8 1_555 1_555
H31_8 O26_8 1_555 1_555
C7_8 C19_8 1_555 1_555
O12_8 C37_8 1_555 1_555
C10_8 C15_8 1_555 1_555
C11_8 C39_8 1_555 1_555
C15_8 C19_8 1_555 1_555
C27_8 C36_8 1_555 1_555
C30_8 C31_8 1_555 1_555
C30_8 C37_8 1_555 1_555
C34_8 C42_8 1_555 1_555
O11_8 Dy9_2 1_555 1_555
H3_8 O11_8 1_555 1_555
H4_8 O11_8 1_555 1_555
O20_8 Dy9_2 1_555 1_555
H18_8 O20_8 1_555 1_555
H19_8 O20_8 1_555 1_555
H24_8 O23_8 1_555 1_555
C2_8 C21_8 1_555 1_555
C21_8 O13_8 1_555 1_555
C26_8 C2_8 1_555 1_555
H11_8 C26_8 1_555 1_555
C29_8 C2_8 1_555 1_555
H15_8 C35_8 1_555 1_555
C26_8 C35_8 1_555 1_555

#END
