
###############################################################################
#
# This file contains modified crystal structure data generated from the
# MOF subset of the Cambridge Structural Database (CSD) v543 
# hosted by the Cambridge Crystallographic Data Centre (CCDC).
#
# This work is licensed under the Creative Commons
# Attribution-NonCommercial-ShareAlike 4.0 International License.
# To view a copy of this license, visit
# http://creativecommons.org/licenses/by-nc-sa/4.0/
# or send a letter to
# Creative Commons, PO Box 1866, Mountain View, CA 94042, USA.
#
# CIF created using the CSD Python API on 29 September 2022
# The structure has been converted into the P1 space group
# The structure has a 3D framework
# The original CSD entry IPUGOS is in the monoclinic crystal system
# The framework has been calculated to contain at least 10.0% void space
# The void calculation uses a probe of radius 1.32A, grid spacing 0.4
#
###############################################################################

data_IPUGOS
_chemical_formula_moiety         '(C368 H248 Eu24 O198)n'
_symmetry_cell_setting           triclinic
_symmetry_space_group_name_H-M   'P 1'
_symmetry_Int_Tables_number      1
_space_group_name_Hall           'P 1'
loop_
_symmetry_equiv_pos_site_id
_symmetry_equiv_pos_as_xyz
1 x,y,z
_cell_length_a                   31.688(3)
_cell_length_b                   13.7769(12)
_cell_length_c                   30.231(3)
_cell_angle_alpha                90
_cell_angle_beta                 99.836(2)
_cell_angle_gamma                90
_cell_volume                     13003.7
loop_
_atom_site_label
_atom_site_type_symbol
_atom_site_fract_x
_atom_site_fract_y
_atom_site_fract_z
Eu3 Eu 0.45273(2) 0.01520(3) 0.44454(2)
O6 O 0.42311(15) 0.1833(4) 0.44656(17)
H2 H 0.404890 0.138865 0.448361
H3 H 0.435360 0.170135 0.424371
O7 O 0.44413(15) 0.0761(4) 0.36707(16)
O11 O 0.37330(14) 0.0039(4) 0.42478(18)
H7 H 0.362665 0.053502 0.435518
C25 C 0.4281(3) 0.0550(6) 0.2721(3)
H13 H 0.438189 0.114922 0.283518
C33 C 0.4177(3) 0.0427(6) 0.2267(3)
H20 H 0.420095 0.094733 0.207666
Eu7 Eu 0.54727(2) 0.01520(3) 0.05546(2)
O31 O 0.50598(14) 0.1137(4) 0.48820(17)
O33 O 0.42988(14) 0.0341(4) 0.51375(16)
Eu1 Eu 0.39630(2) 0.62309(3) 0.06083(2)
Eu2 Eu 0.36727(2) 0.58321(3) 0.18697(2)
C1 C 0.5408(2) 0.4259(5) 0.2164(3)
C2 C 0.24289(18) 0.7328(5) 0.0711(2)
H1 H 0.234100 0.673777 0.081344
O1 O 0.34925(14) 0.6775(3) 0.10928(16)
O2 O 0.43539(15) 0.9191(4) 0.37574(16)
O3 O 0.40442(17) 0.7395(4) 0.18944(19)
O4 O 0.42001(15) 0.5482(4) 0.14126(17)
O5 O 0.30150(14) 0.6738(4) 0.15381(17)
C3 C 0.3690(2) 0.9229(5) 0.0656(2)
H4 H 0.361156 0.918657 0.034536
C4 C 0.3804(2) 0.2631(5) 0.0728(3)
C5 C 0.4239(2) 0.9798(5) 0.3016(2)
C6 C 0.33980(19) 0.8978(5) 0.0932(2)
C7 C 0.3513(2) 0.9068(5) 0.1390(2)
H5 H 0.331913 0.888264 0.157299
C8 C 0.4199(2) 0.9652(5) 0.1310(2)
H6 H 0.446877 0.988098 0.143682
C9 C 0.21497(19) 0.7866(5) 0.0396(2)
C10 C 0.3912(2) 0.9431(5) 0.1586(2)
O8 O 0.59895(17) 0.4302(4) 0.27932(19)
O9 O 0.48108(14) 0.9727(4) 0.07459(17)
C11 C 0.4800(2) 0.4397(5) 0.1566(2)
C12 C 0.3989(2) 0.8757(5) 0.2376(2)
O10 O 0.36189(18) 0.7253(4) 0.23886(19)
H8 H 0.357175 0.955512 0.427068
C13 C 0.2695(2) 0.9069(5) 0.0408(2)
H9 H 0.278336 0.965497 0.030040
C14 C 0.4034(2) 0.9515(6) 0.2083(2)
C15 C 0.4416(2) 0.2086(5) 0.0407(2)
C16 C 0.4093(2) 0.8902(5) 0.2832(2)
H10 H 0.406583 0.838794 0.302457
C17 C 0.3129(2) 0.7028(5) 0.1190(2)
C18 C 0.2836(2) 0.7674(5) 0.0870(2)
C19 C 0.4530(2) 0.2935(5) 0.1106(3)
C20 C 0.3976(2) 0.2178(5) 0.0384(3)
H11 H 0.379272 0.193341 0.013611
C21 C 0.4830(2) 0.3401(5) 0.1486(3)
C22 C 0.4092(2) 0.3005(5) 0.1088(3)
H12 H 0.398736 0.330881 0.132104
C23 C 0.4504(2) 0.5038(5) 0.1263(3)
C24 C 0.2974(2) 0.8563(5) 0.0729(2)
O13 O 0.45604(17) 0.5137(4) 0.0869(2)
C26 C 0.4687(2) 0.2447(5) 0.0783(3)
H14 H 0.498035 0.234961 0.081189
C27 C 0.3876(2) 0.7742(6) 0.2215(3)
C28 C 0.5090(2) 0.4836(5) 0.1911(2)
H15 H 0.507168 0.549507 0.197138
C29 C 0.4352(2) 0.9934(6) 0.3507(2)
C30 C 0.5732(2) 0.4772(7) 0.2515(3)
O14 O 0.57333(19) 0.5692(4) 0.2519(2)
C31 C 0.5141(2) 0.2867(6) 0.1753(3)
H16 H 0.516039 0.220461 0.170093
C32 C 0.5431(3) 0.3296(6) 0.2102(3)
H17 H 0.563410 0.292160 0.228572
O15 O 0.45319(18) 0.6904(5) 0.0241(2)
H18 H 0.443778 0.730589 0.003396
H19 H 0.446218 0.710199 0.048466
O16 O 0.3143(2) 0.5236(5) 0.2290(2)
H21 H 0.309635 0.565920 0.208242
H22 H 0.338025 0.495970 0.227532
C34 C 0.2292(2) 0.8726(5) 0.0244(2)
H23 H 0.211232 0.908039 0.002745
O17 O 0.49402(14) 0.1137(4) 0.01180(17)
O18 O 0.33341(15) 0.4727(4) 0.13256(18)
O19 O 0.15887(15) 0.6735(4) 0.04147(19)
O20 O 0.42988(14) 0.9659(4) 0.01375(16)
O21 O 0.43478(16) 0.7419(4) 0.1088(2)
H24 H 0.435586 0.749620 0.136867
H25 H 0.410076 0.720280 0.097867
O22 O 0.35226(16) 0.4871(4) 0.06475(18)
H26 H 0.415294 0.566792 0.002365
H27 H 0.385094 0.506122 0.015425
C35 C 0.1707(2) 0.7470(6) 0.0237(3)
C36 C 0.4580(2) 0.1541(5) 0.0040(2)
C37 C 0.4423(2) 0.9657(5) 0.0557(2)
C38 C 0.3349(2) 0.4459(6) 0.0935(3)
C39 C 0.3116(2) 0.3498(5) 0.0795(3)
C40 C 0.3336(2) 0.2654(6) 0.0705(3)
C41 C 0.4100(2) 0.9546(5) 0.0843(2)
O25 O 0.1791(2) 0.1800(5) 0.0612(3)
H28 H 0.179055 0.159748 0.035699
C42 C 0.2446(2) 0.2636(6) 0.0661(3)
O26 O 0.1778(2) 0.3393(5) 0.0690(3)
C43 C 0.2680(2) 0.3486(6) 0.0779(3)
H29 H 0.253917 0.404536 0.084661
C44 C 0.2658(3) 0.1813(7) 0.0557(4)
H30 H 0.250404 0.125054 0.046961
C45 C 0.3093(3) 0.1823(6) 0.0582(3)
H31 H 0.323079 0.125921 0.051429
C46 C 0.1972(3) 0.2666(7) 0.0656(3)
Eu5 Eu 0.63273(2) 0.58321(3) 0.31303(2)
O27 O 0.40105(17) 0.4302(4) 0.22068(19)
O28 O 0.51892(14) 0.9727(4) 0.42541(17)
O29 O 0.35230(14) 0.7057(4) 0.00842(18)
O30 O 0.42667(19) 0.5692(4) 0.2481(2)
O32 O 0.49402(14) 0.8863(4) 0.51180(17)
O34 O 0.43510(15) 0.8531(4) 0.46581(17)
O12 O 0.14770(14) 0.7943(4) 0.99158(18)
O23 O 0.43510(15) 0.1469(4) 0.96581(17)
O24 O 0.3999(2) 0.5170(5) 0.9950(2)
Eu4 Eu 0.10370(2) 0.87691(3) 0.93917(2)
Eu9 Eu 0.45273(2) 0.98480(3) 0.94454(2)
O6_2 O 0.57689(15) 0.1833(4) 0.05344(17)
H2_2 H 0.595110 0.138865 0.051639
H3_2 H 0.564640 0.170135 0.075629
O7_2 O 0.55587(15) 0.0761(4) 0.13293(16)
O11_2 O 0.62670(14) 0.0039(4) 0.07522(18)
H7_2 H 0.637335 0.053502 0.064482
C25_2 C 0.5719(3) 0.0550(6) 0.2279(3)
H13_2 H 0.561811 0.114922 0.216482
C33_2 C 0.5823(3) 0.0427(6) 0.2733(3)
H20_2 H 0.579905 0.094733 0.292334
O33_2 O 0.57012(14) 0.0341(4) 0.98625(16)
Eu1_2 Eu 0.60370(2) 0.62309(3) 0.43917(2)
C1_2 C 0.4592(2) 0.4259(5) 0.2836(3)
C2_2 C 0.75711(18) 0.7328(5) 0.4289(2)
H1_2 H 0.765900 0.673777 0.418656
O1_2 O 0.65075(14) 0.6775(3) 0.39072(16)
O2_2 O 0.56461(15) 0.9191(4) 0.12426(16)
O3_2 O 0.59558(17) 0.7395(4) 0.31056(19)
O4_2 O 0.57999(15) 0.5482(4) 0.35874(17)
O5_2 O 0.69850(14) 0.6738(4) 0.34619(17)
C3_2 C 0.6310(2) 0.9229(5) 0.4344(2)
H4_2 H 0.638844 0.918657 0.465464
C4_2 C 0.6196(2) 0.2631(5) 0.4272(3)
C5_2 C 0.5761(2) 0.9798(5) 0.1984(2)
C6_2 C 0.66020(19) 0.8978(5) 0.4068(2)
C7_2 C 0.6487(2) 0.9068(5) 0.3610(2)
H5_2 H 0.668087 0.888264 0.342701
C8_2 C 0.5801(2) 0.9652(5) 0.3690(2)
H6_2 H 0.553123 0.988098 0.356318
C9_2 C 0.78503(19) 0.7866(5) 0.4604(2)
C10_2 C 0.6088(2) 0.9431(5) 0.3414(2)
C11_2 C 0.5200(2) 0.4397(5) 0.3434(2)
C12_2 C 0.6011(2) 0.8757(5) 0.2624(2)
O10_2 O 0.63811(18) 0.7253(4) 0.26114(19)
H8_2 H 0.642825 0.955512 0.072932
C13_2 C 0.7305(2) 0.9069(5) 0.4592(2)
H9_2 H 0.721664 0.965497 0.469960
C14_2 C 0.5966(2) 0.9515(6) 0.2917(2)
C15_2 C 0.5584(2) 0.2086(5) 0.4593(2)
C16_2 C 0.5907(2) 0.8902(5) 0.2168(2)
H10_2 H 0.593417 0.838794 0.197543
C17_2 C 0.6871(2) 0.7028(5) 0.3810(2)
C18_2 C 0.7164(2) 0.7674(5) 0.4130(2)
O12_2 O 0.85230(14) 0.7943(4) 0.50842(18)
C19_2 C 0.5470(2) 0.2935(5) 0.3894(3)
C20_2 C 0.6024(2) 0.2178(5) 0.4616(3)
H11_2 H 0.620728 0.193341 0.486389
C21_2 C 0.5170(2) 0.3401(5) 0.3514(3)
C22_2 C 0.5908(2) 0.3005(5) 0.3912(3)
H12_2 H 0.601264 0.330881 0.367896
C23_2 C 0.5496(2) 0.5038(5) 0.3737(3)
C24_2 C 0.7026(2) 0.8563(5) 0.4271(2)
O13_2 O 0.54396(17) 0.5137(4) 0.4131(2)
C26_2 C 0.5313(2) 0.2447(5) 0.4217(3)
H14_2 H 0.501965 0.234961 0.418811
C27_2 C 0.6124(2) 0.7742(6) 0.2785(3)
C28_2 C 0.4910(2) 0.4836(5) 0.3089(2)
H15_2 H 0.492832 0.549507 0.302862
C29_2 C 0.5648(2) 0.9934(6) 0.1493(2)
C30_2 C 0.4268(2) 0.4772(7) 0.2485(3)
C31_2 C 0.4859(2) 0.2867(6) 0.3247(3)
H16_2 H 0.483961 0.220461 0.329907
C32_2 C 0.4569(3) 0.3296(6) 0.2898(3)
H17_2 H 0.436590 0.292160 0.271428
O15_2 O 0.54681(18) 0.6904(5) 0.4759(2)
H18_2 H 0.556222 0.730589 0.496604
H19_2 H 0.553782 0.710199 0.451534
O16_2 O 0.6857(2) 0.5236(5) 0.2710(2)
H21_2 H 0.690365 0.565920 0.291758
H22_2 H 0.661975 0.495970 0.272468
C34_2 C 0.7708(2) 0.8726(5) 0.4756(2)
H23_2 H 0.788768 0.908039 0.497255
O18_2 O 0.66659(15) 0.4727(4) 0.36744(18)
O19_2 O 0.84113(15) 0.6735(4) 0.45853(19)
O20_2 O 0.57012(14) 0.9659(4) 0.48625(16)
O21_2 O 0.56522(16) 0.7419(4) 0.3912(2)
H24_2 H 0.564414 0.749620 0.363133
H25_2 H 0.589924 0.720280 0.402133
O22_2 O 0.64774(16) 0.4871(4) 0.43525(18)
O23_2 O 0.56490(15) 0.1469(4) 0.53419(17)
O24_2 O 0.6001(2) 0.5170(5) 0.5050(2)
H26_2 H 0.584706 0.566792 0.497635
H27_2 H 0.614906 0.506122 0.484575
C35_2 C 0.8293(2) 0.7470(6) 0.4763(3)
C36_2 C 0.5420(2) 0.1541(5) 0.4960(2)
C37_2 C 0.5577(2) 0.9657(5) 0.4443(2)
C38_2 C 0.6651(2) 0.4459(6) 0.4065(3)
C39_2 C 0.6884(2) 0.3498(5) 0.4205(3)
C40_2 C 0.6664(2) 0.2654(6) 0.4295(3)
C41_2 C 0.5900(2) 0.9546(5) 0.4157(2)
O25_2 O 0.8209(2) 0.1800(5) 0.4388(3)
H28_2 H 0.820945 0.159748 0.464301
C42_2 C 0.7554(2) 0.2636(6) 0.4339(3)
O26_2 O 0.8222(2) 0.3393(5) 0.4310(3)
C43_2 C 0.7320(2) 0.3486(6) 0.4221(3)
H29_2 H 0.746083 0.404536 0.415339
C44_2 C 0.7342(3) 0.1813(7) 0.4443(4)
H30_2 H 0.749596 0.125054 0.453039
C45_2 C 0.6907(3) 0.1823(6) 0.4418(3)
H31_2 H 0.676921 0.125921 0.448571
C46_2 C 0.8028(3) 0.2666(7) 0.4344(3)
Eu4_2 Eu 0.89630(2) 0.87691(3) 0.56083(2)
Eu9_2 Eu 0.54727(2) 0.98480(3) 0.55546(2)
O29_2 O 0.64770(14) 0.7057(4) 0.49158(18)
O34_2 O 0.56490(15) 0.8531(4) 0.03419(17)
O32_2 O 0.50598(14) 0.8863(4) 0.98820(17)
H15_3 H 0.007168 0.049507 0.197138
O14_2 O 0.07333(19) 0.0692(4) 0.2519(2)
Eu5_2 Eu 0.13273(2) 0.08321(3) 0.31303(2)
Eu7_2 Eu 0.04727(2) 0.51520(3) 0.05546(2)
O28_2 O 0.01892(14) 0.4727(4) 0.42541(17)
O31_2 O 0.00598(14) 0.6137(4) 0.48820(17)
C1_3 C 0.0408(2) 0.9259(5) 0.2164(3)
O8_2 O 0.09895(17) 0.9302(4) 0.27932(19)
C28_3 C 0.0090(2) 0.9836(5) 0.1911(2)
C30_3 C 0.0732(2) 0.9772(7) 0.2515(3)
C31_3 C 0.0141(2) 0.7867(6) 0.1753(3)
H16_3 H 0.016039 0.720461 0.170093
C32_3 C 0.0431(3) 0.8296(6) 0.2102(3)
H17_3 H 0.063410 0.792160 0.228572
Eu1_3 Eu 0.89630(2) 0.12309(3) 0.06083(2)
Eu2_2 Eu 0.86727(2) 0.08321(3) 0.18697(2)
Eu3_2 Eu 0.95273(2) 0.51520(3) 0.44454(2)
C2_3 C 0.74289(18) 0.2328(5) 0.0711(2)
H1_3 H 0.734100 0.173777 0.081344
O1_3 O 0.84925(14) 0.1775(3) 0.10928(16)
O2_3 O 0.93539(15) 0.4191(4) 0.37574(16)
O3_3 O 0.90442(17) 0.2395(4) 0.18944(19)
O4_3 O 0.92001(15) 0.0482(4) 0.14126(17)
O5_3 O 0.80150(14) 0.1738(4) 0.15381(17)
O6_3 O 0.92311(15) 0.6833(4) 0.44656(17)
H2_3 H 0.904890 0.638865 0.448361
H3_3 H 0.935360 0.670135 0.424371
C3_3 C 0.8690(2) 0.4229(5) 0.0656(2)
H4_3 H 0.861156 0.418657 0.034536
C5_3 C 0.9239(2) 0.4798(5) 0.3016(2)
O7_3 O 0.94413(15) 0.5761(4) 0.36707(16)
C6_3 C 0.83980(19) 0.3978(5) 0.0932(2)
C7_3 C 0.8513(2) 0.4068(5) 0.1390(2)
H5_3 H 0.831913 0.388264 0.157299
C8_3 C 0.9199(2) 0.4652(5) 0.1310(2)
H6_3 H 0.946877 0.488098 0.143682
C9_3 C 0.71497(19) 0.2866(5) 0.0396(2)
C10_3 C 0.8912(2) 0.4431(5) 0.1586(2)
O9_2 O 0.98108(14) 0.4727(4) 0.07459(17)
C12_3 C 0.8989(2) 0.3757(5) 0.2376(2)
O10_3 O 0.86189(18) 0.2253(4) 0.23886(19)
O11_3 O 0.87330(14) 0.5039(4) 0.42478(18)
H7_3 H 0.862665 0.553502 0.435518
H8_3 H 0.857175 0.455512 0.427068
C13_3 C 0.7695(2) 0.4069(5) 0.0408(2)
H9_3 H 0.778336 0.465497 0.030040
C14_3 C 0.9034(2) 0.4515(6) 0.2083(2)
C16_3 C 0.9093(2) 0.3902(5) 0.2832(2)
H10_3 H 0.906583 0.338794 0.302457
C17_3 C 0.8129(2) 0.2028(5) 0.1190(2)
C18_3 C 0.7836(2) 0.2674(5) 0.0870(2)
C23_3 C 0.9504(2) 0.0038(5) 0.1263(3)
C24_3 C 0.7974(2) 0.3563(5) 0.0729(2)
O13_3 O 0.95604(17) 0.0137(4) 0.0869(2)
C25_3 C 0.9281(3) 0.5550(6) 0.2721(3)
H13_3 H 0.938189 0.614922 0.283518
C27_3 C 0.8876(2) 0.2742(6) 0.2215(3)
C29_3 C 0.9352(2) 0.4934(6) 0.3507(2)
O15_3 O 0.95319(18) 0.1904(5) 0.0241(2)
H18_3 H 0.943778 0.230589 0.003396
H19_3 H 0.946218 0.210199 0.048466
C33_3 C 0.9177(3) 0.5427(6) 0.2267(3)
H20_3 H 0.920095 0.594733 0.207666
O16_3 O 0.8143(2) 0.0236(5) 0.2290(2)
H21_3 H 0.809635 0.065920 0.208242
C34_3 C 0.7292(2) 0.3726(5) 0.0244(2)
H23_3 H 0.711232 0.408039 0.002745
O19_3 O 0.65887(15) 0.1735(4) 0.04147(19)
O20_3 O 0.92988(14) 0.4659(4) 0.01375(16)
O21_3 O 0.93478(16) 0.2419(4) 0.1088(2)
H24_3 H 0.935586 0.249620 0.136867
H25_3 H 0.910076 0.220280 0.097867
H26_3 H 0.915294 0.066792 0.002365
H27_3 H 0.885094 0.006122 0.015425
C35_3 C 0.6707(2) 0.2470(6) 0.0237(3)
C37_3 C 0.9423(2) 0.4657(5) 0.0557(2)
C41_3 C 0.9100(2) 0.4546(5) 0.0843(2)
O29_3 O 0.85230(14) 0.2057(4) 0.00842(18)
O30_2 O 0.92667(19) 0.0692(4) 0.2481(2)
O32_3 O 0.99402(14) 0.3863(4) 0.51180(17)
O33_3 O 0.92988(14) 0.5341(4) 0.51375(16)
O34_3 O 0.93510(15) 0.3531(4) 0.46581(17)
O12_3 O 0.64770(14) 0.2943(4) 0.99158(18)
O24_3 O 0.8999(2) 0.0170(5) 0.9950(2)
Eu4_3 Eu 0.60370(2) 0.37691(3) 0.93917(2)
Eu9_3 Eu 0.95273(2) 0.48480(3) 0.94454(2)
C4_3 C 0.8804(2) 0.7631(5) 0.0728(3)
C11_3 C 0.9800(2) 0.9397(5) 0.1566(2)
C15_3 C 0.9416(2) 0.7086(5) 0.0407(2)
C19_3 C 0.9530(2) 0.7935(5) 0.1106(3)
C20_3 C 0.8976(2) 0.7178(5) 0.0384(3)
H11_3 H 0.879272 0.693341 0.013611
C21_3 C 0.9830(2) 0.8401(5) 0.1486(3)
C22_3 C 0.9092(2) 0.8005(5) 0.1088(3)
H12_3 H 0.898736 0.830881 0.132104
C26_3 C 0.9687(2) 0.7447(5) 0.0783(3)
H14_3 H 0.998035 0.734961 0.081189
H22_3 H 0.838025 0.995970 0.227532
O17_2 O 0.99402(14) 0.6137(4) 0.01180(17)
O18_3 O 0.83341(15) 0.9727(4) 0.13256(18)
O22_3 O 0.85226(16) 0.9871(4) 0.06475(18)
C36_3 C 0.9580(2) 0.6541(5) 0.0040(2)
C38_3 C 0.8349(2) 0.9459(6) 0.0935(3)
C39_3 C 0.8116(2) 0.8498(5) 0.0795(3)
C40_3 C 0.8336(2) 0.7654(6) 0.0705(3)
O25_3 O 0.6791(2) 0.6800(5) 0.0612(3)
H28_3 H 0.679055 0.659748 0.035699
C42_3 C 0.7446(2) 0.7636(6) 0.0661(3)
O26_3 O 0.6778(2) 0.8393(5) 0.0690(3)
C43_3 C 0.7680(2) 0.8486(6) 0.0779(3)
H29_3 H 0.753917 0.904536 0.084661
C44_3 C 0.7658(3) 0.6813(7) 0.0557(4)
H30_3 H 0.750404 0.625054 0.046961
C45_3 C 0.8093(3) 0.6823(6) 0.0582(3)
H31_3 H 0.823079 0.625921 0.051429
C46_3 C 0.6972(3) 0.7666(7) 0.0656(3)
O27_2 O 0.90105(17) 0.9302(4) 0.22068(19)
O23_3 O 0.93510(15) 0.6469(4) 0.96581(17)
Eu1_4 Eu 0.10370(2) 0.12309(3) 0.43917(2)
C2_4 C 0.25711(18) 0.2328(5) 0.4289(2)
H1_4 H 0.265900 0.173777 0.418656
O1_4 O 0.15075(14) 0.1775(3) 0.39072(16)
O2_4 O 0.06461(15) 0.4191(4) 0.12426(16)
O3_4 O 0.09558(17) 0.2395(4) 0.31056(19)
O4_4 O 0.07999(15) 0.0482(4) 0.35874(17)
O5_4 O 0.19850(14) 0.1738(4) 0.34619(17)
O6_4 O 0.07689(15) 0.6833(4) 0.05344(17)
H2_4 H 0.095110 0.638865 0.051639
H3_4 H 0.064640 0.670135 0.075629
C3_4 C 0.1310(2) 0.4229(5) 0.4344(2)
H4_4 H 0.138844 0.418657 0.465464
C5_4 C 0.0761(2) 0.4798(5) 0.1984(2)
O7_4 O 0.05587(15) 0.5761(4) 0.13293(16)
C6_4 C 0.16020(19) 0.3978(5) 0.4068(2)
C7_4 C 0.1487(2) 0.4068(5) 0.3610(2)
H5_4 H 0.168087 0.388264 0.342701
C8_4 C 0.0801(2) 0.4652(5) 0.3690(2)
H6_4 H 0.053123 0.488098 0.356318
C9_4 C 0.28503(19) 0.2866(5) 0.4604(2)
C10_4 C 0.1088(2) 0.4431(5) 0.3414(2)
C12_4 C 0.1011(2) 0.3757(5) 0.2624(2)
O10_4 O 0.13811(18) 0.2253(4) 0.26114(19)
O11_4 O 0.12670(14) 0.5039(4) 0.07522(18)
H7_4 H 0.137335 0.553502 0.064482
H8_4 H 0.142825 0.455512 0.072932
C13_4 C 0.2305(2) 0.4069(5) 0.4592(2)
H9_4 H 0.221664 0.465497 0.469960
C14_4 C 0.0966(2) 0.4515(6) 0.2917(2)
C16_4 C 0.0907(2) 0.3902(5) 0.2168(2)
H10_4 H 0.093417 0.338794 0.197543
C17_4 C 0.1871(2) 0.2028(5) 0.3810(2)
C18_4 C 0.2164(2) 0.2674(5) 0.4130(2)
O12_4 O 0.35230(14) 0.2943(4) 0.50842(18)
C23_4 C 0.0496(2) 0.0038(5) 0.3737(3)
C24_4 C 0.2026(2) 0.3563(5) 0.4271(2)
O13_4 O 0.04396(17) 0.0137(4) 0.4131(2)
C25_4 C 0.0719(3) 0.5550(6) 0.2279(3)
H13_4 H 0.061811 0.614922 0.216482
C27_4 C 0.1124(2) 0.2742(6) 0.2785(3)
C29_4 C 0.0648(2) 0.4934(6) 0.1493(2)
O15_4 O 0.04681(18) 0.1904(5) 0.4759(2)
H18_4 H 0.056222 0.230589 0.496604
H19_4 H 0.053782 0.210199 0.451534
C33_4 C 0.0823(3) 0.5427(6) 0.2733(3)
H20_4 H 0.079905 0.594733 0.292334
O16_4 O 0.1857(2) 0.0236(5) 0.2710(2)
H21_4 H 0.190365 0.065920 0.291758
C34_4 C 0.2708(2) 0.3726(5) 0.4756(2)
H23_4 H 0.288768 0.408039 0.497255
O19_4 O 0.34113(15) 0.1735(4) 0.45853(19)
O20_4 O 0.07012(14) 0.4659(4) 0.48625(16)
O21_4 O 0.06522(16) 0.2419(4) 0.3912(2)
H24_4 H 0.064414 0.249620 0.363133
H25_4 H 0.089924 0.220280 0.402133
O24_4 O 0.1001(2) 0.0170(5) 0.5050(2)
H26_4 H 0.084706 0.066792 0.497635
H27_4 H 0.114906 0.006122 0.484575
C35_4 C 0.3293(2) 0.2470(6) 0.4763(3)
C37_4 C 0.0577(2) 0.4657(5) 0.4443(2)
C41_4 C 0.0900(2) 0.4546(5) 0.4157(2)
Eu4_4 Eu 0.39630(2) 0.37691(3) 0.56083(2)
Eu9_4 Eu 0.04727(2) 0.48480(3) 0.55546(2)
O29_4 O 0.14770(14) 0.2057(4) 0.49158(18)
O34_4 O 0.06490(15) 0.3531(4) 0.03419(17)
O32_4 O 0.00598(14) 0.3863(4) 0.98820(17)
O33_4 O 0.07012(14) 0.5341(4) 0.98625(16)
C4_4 C 0.1196(2) 0.7631(5) 0.4272(3)
C11_4 C 0.0200(2) 0.9397(5) 0.3434(2)
C15_4 C 0.0584(2) 0.7086(5) 0.4593(2)
C19_4 C 0.0470(2) 0.7935(5) 0.3894(3)
C20_4 C 0.1024(2) 0.7178(5) 0.4616(3)
H11_4 H 0.120728 0.693341 0.486389
C21_4 C 0.0170(2) 0.8401(5) 0.3514(3)
C22_4 C 0.0908(2) 0.8005(5) 0.3912(3)
H12_4 H 0.101264 0.830881 0.367896
C26_4 C 0.0313(2) 0.7447(5) 0.4217(3)
H14_4 H 0.001965 0.734961 0.418811
H22_4 H 0.161975 0.995970 0.272468
O18_4 O 0.16659(15) 0.9727(4) 0.36744(18)
O22_4 O 0.14774(16) 0.9871(4) 0.43525(18)
O23_4 O 0.06490(15) 0.6469(4) 0.53419(17)
C36_4 C 0.0420(2) 0.6541(5) 0.4960(2)
C38_4 C 0.1651(2) 0.9459(6) 0.4065(3)
C39_4 C 0.1884(2) 0.8498(5) 0.4205(3)
C40_4 C 0.1664(2) 0.7654(6) 0.4295(3)
O25_4 O 0.3209(2) 0.6800(5) 0.4388(3)
H28_4 H 0.320945 0.659748 0.464301
C42_4 C 0.2554(2) 0.7636(6) 0.4339(3)
O26_4 O 0.3222(2) 0.8393(5) 0.4310(3)
C43_4 C 0.2320(2) 0.8486(6) 0.4221(3)
H29_4 H 0.246083 0.904536 0.415339
C44_4 C 0.2342(3) 0.6813(7) 0.4443(4)
H30_4 H 0.249596 0.625054 0.453039
C45_4 C 0.1907(3) 0.6823(6) 0.4418(3)
H31_4 H 0.176921 0.625921 0.448571
C46_4 C 0.3028(3) 0.7666(7) 0.4344(3)
H15_4 H 0.992832 0.049507 0.302862
C1_4 C 0.9592(2) 0.9259(5) 0.2836(3)
C28_4 C 0.9910(2) 0.9836(5) 0.3089(2)
C30_4 C 0.9268(2) 0.9772(7) 0.2485(3)
C31_4 C 0.9859(2) 0.7867(6) 0.3247(3)
H16_4 H 0.983961 0.720461 0.329907
C32_4 C 0.9569(3) 0.8296(6) 0.2898(3)
H17_4 H 0.936590 0.792160 0.271428
O24_5 O 0.6001(2) 0.4830(5) 0.0050(2)
Eu2_3 Eu 0.63273(2) 0.41679(3) 0.81303(2)
C1_5 C 0.4592(2) 0.5741(5) 0.7836(3)
C2_5 C 0.75711(18) 0.2672(5) 0.9289(2)
H1_5 H 0.765900 0.326223 0.918656
O1_5 O 0.65075(14) 0.3225(3) 0.89072(16)
O2_5 O 0.56461(15) 0.0809(4) 0.62426(16)
O3_5 O 0.59558(17) 0.2605(4) 0.81056(19)
O4_5 O 0.57999(15) 0.4518(4) 0.85874(17)
O5_5 O 0.69850(14) 0.3262(4) 0.84619(17)
C3_5 C 0.6310(2) 0.0771(5) 0.9344(2)
H4_5 H 0.638844 0.081343 0.965464
C4_5 C 0.6196(2) 0.7369(5) 0.9272(3)
C5_5 C 0.5761(2) 0.0202(5) 0.6984(2)
C6_5 C 0.66020(19) 0.1022(5) 0.9068(2)
C7_5 C 0.6487(2) 0.0932(5) 0.8610(2)
H5_5 H 0.668087 0.111736 0.842701
C8_5 C 0.5801(2) 0.0348(5) 0.8690(2)
H6_5 H 0.553123 0.011902 0.856318
C9_5 C 0.78503(19) 0.2134(5) 0.9604(2)
C10_5 C 0.6088(2) 0.0569(5) 0.8414(2)
O8_3 O 0.40105(17) 0.5698(4) 0.72068(19)
O9_3 O 0.51892(14) 0.0273(4) 0.92541(17)
C11_5 C 0.5200(2) 0.5603(5) 0.8434(2)
C12_5 C 0.6011(2) 0.1243(5) 0.7624(2)
O10_5 O 0.63811(18) 0.2747(4) 0.76114(19)
H8_5 H 0.642825 0.044488 0.572932
C13_5 C 0.7305(2) 0.0931(5) 0.9592(2)
H9_5 H 0.721664 0.034503 0.969960
C14_5 C 0.5966(2) 0.0485(6) 0.7917(2)
C15_5 C 0.5584(2) 0.7914(5) 0.9593(2)
C16_5 C 0.5907(2) 0.1098(5) 0.7168(2)
H10_5 H 0.593417 0.161206 0.697543
C17_5 C 0.6871(2) 0.2972(5) 0.8810(2)
C18_5 C 0.7164(2) 0.2326(5) 0.9130(2)
C19_5 C 0.5470(2) 0.7065(5) 0.8894(3)
C20_5 C 0.6024(2) 0.7822(5) 0.9616(3)
H11_5 H 0.620728 0.806659 0.986389
C21_5 C 0.5170(2) 0.6599(5) 0.8514(3)
C22_5 C 0.5908(2) 0.6995(5) 0.8912(3)
H12_5 H 0.601264 0.669119 0.867896
C23_5 C 0.5496(2) 0.4962(5) 0.8737(3)
C24_5 C 0.7026(2) 0.1437(5) 0.9271(2)
O13_5 O 0.54396(17) 0.4863(4) 0.9131(2)
C26_5 C 0.5313(2) 0.7553(5) 0.9217(3)
H14_5 H 0.501965 0.765039 0.918811
C27_5 C 0.6124(2) 0.2258(6) 0.7785(3)
C28_5 C 0.4910(2) 0.5164(5) 0.8089(2)
H15_5 H 0.492832 0.450493 0.802862
C29_5 C 0.5648(2) 0.0066(6) 0.6493(2)
C30_5 C 0.4268(2) 0.5228(7) 0.7485(3)
O14_3 O 0.42667(19) 0.4308(4) 0.7481(2)
C31_5 C 0.4859(2) 0.7133(6) 0.8247(3)
H16_5 H 0.483961 0.779539 0.829907
C32_5 C 0.4569(3) 0.6704(6) 0.7898(3)
H17_5 H 0.436590 0.707840 0.771428
O15_5 O 0.54681(18) 0.3096(5) 0.9759(2)
H18_5 H 0.556222 0.269411 0.996604
H19_5 H 0.553782 0.289801 0.951534
O16_5 O 0.6857(2) 0.4764(5) 0.7710(2)
H21_5 H 0.690365 0.434080 0.791758
H22_5 H 0.661975 0.504030 0.772468
C34_5 C 0.7708(2) 0.1274(5) 0.9756(2)
H23_5 H 0.788768 0.091961 0.997255
O18_5 O 0.66659(15) 0.5273(4) 0.86744(18)
O19_5 O 0.84113(15) 0.3265(4) 0.95853(19)
O21_5 O 0.56522(16) 0.2581(4) 0.8912(2)
H24_5 H 0.564414 0.250380 0.863133
H25_5 H 0.589924 0.279720 0.902133
O22_5 O 0.64774(16) 0.5129(4) 0.93525(18)
H26_5 H 0.584706 0.433208 0.997635
H27_5 H 0.614906 0.493878 0.984575
C35_5 C 0.8293(2) 0.2530(6) 0.9763(3)
C36_5 C 0.5420(2) 0.8459(5) 0.9960(2)
C37_5 C 0.5577(2) 0.0343(5) 0.9443(2)
C38_5 C 0.6651(2) 0.5541(6) 0.9065(3)
C39_5 C 0.6884(2) 0.6502(5) 0.9205(3)
C40_5 C 0.6664(2) 0.7346(6) 0.9295(3)
C41_5 C 0.5900(2) 0.0454(5) 0.9157(2)
O25_5 O 0.8209(2) 0.8200(5) 0.9388(3)
H28_5 H 0.820945 0.840252 0.964301
C42_5 C 0.7554(2) 0.7364(6) 0.9339(3)
O26_5 O 0.8222(2) 0.6607(5) 0.9310(3)
C43_5 C 0.7320(2) 0.6514(6) 0.9221(3)
H29_5 H 0.746083 0.595464 0.915339
C44_5 C 0.7342(3) 0.8187(7) 0.9443(4)
H30_5 H 0.749596 0.874946 0.953039
C45_5 C 0.6907(3) 0.8177(6) 0.9418(3)
H31_5 H 0.676921 0.874079 0.948571
C46_5 C 0.8028(3) 0.7334(7) 0.9344(3)
Eu5_3 Eu 0.36727(2) 0.41679(3) 0.68697(2)
O27_3 O 0.59895(17) 0.5698(4) 0.77932(19)
O28_3 O 0.48108(14) 0.0273(4) 0.57459(17)
O30_3 O 0.57333(19) 0.4308(4) 0.7519(2)
O6_5 O 0.57689(15) 0.8167(4) 0.55344(17)
H2_5 H 0.595110 0.861135 0.551639
H3_5 H 0.564640 0.829865 0.575629
O7_5 O 0.55587(15) 0.9239(4) 0.63293(16)
O11_5 O 0.62670(14) 0.9961(4) 0.57522(18)
H7_5 H 0.637335 0.946498 0.564482
C25_5 C 0.5719(3) 0.9450(6) 0.7279(3)
H13_5 H 0.561811 0.885078 0.716482
C33_5 C 0.5823(3) 0.9573(6) 0.7733(3)
H20_5 H 0.579905 0.905267 0.792334
C1_6 C 0.5408(2) 0.5741(5) 0.7164(3)
C2_6 C 0.24289(18) 0.2672(5) 0.5711(2)
H1_6 H 0.234100 0.326223 0.581344
O1_6 O 0.34925(14) 0.3225(3) 0.60928(16)
O2_6 O 0.43539(15) 0.0809(4) 0.87574(16)
O3_6 O 0.40442(17) 0.2605(4) 0.68944(19)
O4_6 O 0.42001(15) 0.4518(4) 0.64126(17)
O5_6 O 0.30150(14) 0.3262(4) 0.65381(17)
C3_6 C 0.3690(2) 0.0771(5) 0.5656(2)
H4_6 H 0.361156 0.081343 0.534536
C4_6 C 0.3804(2) 0.7369(5) 0.5728(3)
C5_6 C 0.4239(2) 0.0202(5) 0.8016(2)
C6_6 C 0.33980(19) 0.1022(5) 0.5932(2)
C7_6 C 0.3513(2) 0.0932(5) 0.6390(2)
H5_6 H 0.331913 0.111736 0.657299
C8_6 C 0.4199(2) 0.0348(5) 0.6310(2)
H6_6 H 0.446877 0.011902 0.643682
C9_6 C 0.21497(19) 0.2134(5) 0.5396(2)
C10_6 C 0.3912(2) 0.0569(5) 0.6586(2)
C11_6 C 0.4800(2) 0.5603(5) 0.6566(2)
C12_6 C 0.3989(2) 0.1243(5) 0.7376(2)
O10_6 O 0.36189(18) 0.2747(4) 0.73886(19)
H8_6 H 0.357175 0.044488 0.927068
C13_6 C 0.2695(2) 0.0931(5) 0.5408(2)
H9_6 H 0.278336 0.034503 0.530040
C14_6 C 0.4034(2) 0.0485(6) 0.7083(2)
C15_6 C 0.4416(2) 0.7914(5) 0.5407(2)
C16_6 C 0.4093(2) 0.1098(5) 0.7832(2)
H10_6 H 0.406583 0.161206 0.802457
C17_6 C 0.3129(2) 0.2972(5) 0.6190(2)
C18_6 C 0.2836(2) 0.2326(5) 0.5870(2)
C19_6 C 0.4530(2) 0.7065(5) 0.6106(3)
C20_6 C 0.3976(2) 0.7822(5) 0.5384(3)
H11_6 H 0.379272 0.806659 0.513611
C21_6 C 0.4830(2) 0.6599(5) 0.6486(3)
C22_6 C 0.4092(2) 0.6995(5) 0.6088(3)
H12_6 H 0.398736 0.669119 0.632104
C23_6 C 0.4504(2) 0.4962(5) 0.6263(3)
C24_6 C 0.2974(2) 0.1437(5) 0.5729(2)
O13_6 O 0.45604(17) 0.4863(4) 0.5869(2)
C26_6 C 0.4687(2) 0.7553(5) 0.5783(3)
H14_6 H 0.498035 0.765039 0.581189
C27_6 C 0.3876(2) 0.2258(6) 0.7215(3)
C28_6 C 0.5090(2) 0.5164(5) 0.6911(2)
H15_6 H 0.507168 0.450493 0.697138
C29_6 C 0.4352(2) 0.0066(6) 0.8507(2)
C30_6 C 0.5732(2) 0.5228(7) 0.7515(3)
C31_6 C 0.5141(2) 0.7133(6) 0.6753(3)
H16_6 H 0.516039 0.779539 0.670093
C32_6 C 0.5431(3) 0.6704(6) 0.7102(3)
H17_6 H 0.563410 0.707840 0.728572
O15_6 O 0.45319(18) 0.3096(5) 0.5241(2)
H18_6 H 0.443778 0.269411 0.503396
H19_6 H 0.446218 0.289801 0.548466
O16_6 O 0.3143(2) 0.4764(5) 0.7290(2)
H21_6 H 0.309635 0.434080 0.708242
H22_6 H 0.338025 0.504030 0.727532
C34_6 C 0.2292(2) 0.1274(5) 0.5244(2)
H23_6 H 0.211232 0.091961 0.502745
O18_6 O 0.33341(15) 0.5273(4) 0.63256(18)
O19_6 O 0.15887(15) 0.3265(4) 0.54147(19)
O21_6 O 0.43478(16) 0.2581(4) 0.6088(2)
H24_6 H 0.435586 0.250380 0.636867
H25_6 H 0.410076 0.279720 0.597867
O22_6 O 0.35226(16) 0.5129(4) 0.56475(18)
O24_6 O 0.3999(2) 0.4830(5) 0.4950(2)
H26_6 H 0.415294 0.433208 0.502365
H27_6 H 0.385094 0.493878 0.515425
C35_6 C 0.1707(2) 0.2530(6) 0.5237(3)
C36_6 C 0.4580(2) 0.8459(5) 0.5040(2)
C37_6 C 0.4423(2) 0.0343(5) 0.5557(2)
C38_6 C 0.3349(2) 0.5541(6) 0.5935(3)
C39_6 C 0.3116(2) 0.6502(5) 0.5795(3)
C40_6 C 0.3336(2) 0.7346(6) 0.5705(3)
C41_6 C 0.4100(2) 0.0454(5) 0.5843(2)
O25_6 O 0.1791(2) 0.8200(5) 0.5612(3)
H28_6 H 0.179055 0.840252 0.535699
C42_6 C 0.2446(2) 0.7364(6) 0.5661(3)
O26_6 O 0.1778(2) 0.6607(5) 0.5690(3)
C43_6 C 0.2680(2) 0.6514(6) 0.5779(3)
H29_6 H 0.253917 0.595464 0.584661
C44_6 C 0.2658(3) 0.8187(7) 0.5557(4)
H30_6 H 0.250404 0.874946 0.546961
C45_6 C 0.3093(3) 0.8177(6) 0.5582(3)
H31_6 H 0.323079 0.874079 0.551429
C46_6 C 0.1972(3) 0.7334(7) 0.5656(3)
O6_6 O 0.42311(15) 0.8167(4) 0.94656(17)
H2_6 H 0.404890 0.861135 0.948361
H3_6 H 0.435360 0.829865 0.924371
O7_6 O 0.44413(15) 0.9239(4) 0.86707(16)
O11_6 O 0.37330(14) 0.9961(4) 0.92478(18)
H7_6 H 0.362665 0.946498 0.935518
C25_6 C 0.4281(3) 0.9450(6) 0.7721(3)
H13_6 H 0.438189 0.885078 0.783518
C33_6 C 0.4177(3) 0.9573(6) 0.7267(3)
H20_6 H 0.420095 0.905267 0.707666
C4_7 C 0.1196(2) 0.2369(5) 0.9272(3)
C11_7 C 0.0200(2) 0.0603(5) 0.8434(2)
C15_7 C 0.0584(2) 0.2914(5) 0.9593(2)
C19_7 C 0.0470(2) 0.2065(5) 0.8894(3)
C20_7 C 0.1024(2) 0.2822(5) 0.9616(3)
H11_7 H 0.120728 0.306659 0.986389
C21_7 C 0.0170(2) 0.1599(5) 0.8514(3)
C22_7 C 0.0908(2) 0.1995(5) 0.8912(3)
H12_7 H 0.101264 0.169119 0.867896
C26_7 C 0.0313(2) 0.2553(5) 0.9217(3)
H14_7 H 0.001965 0.265039 0.918811
H22_7 H 0.161975 0.004030 0.772468
O18_7 O 0.16659(15) 0.0273(4) 0.86744(18)
O22_7 O 0.14774(16) 0.0129(4) 0.93525(18)
C36_7 C 0.0420(2) 0.3459(5) 0.9960(2)
C38_7 C 0.1651(2) 0.0541(6) 0.9065(3)
C39_7 C 0.1884(2) 0.1502(5) 0.9205(3)
C40_7 C 0.1664(2) 0.2346(6) 0.9295(3)
O25_7 O 0.3209(2) 0.3200(5) 0.9388(3)
H28_7 H 0.320945 0.340252 0.964301
C42_7 C 0.2554(2) 0.2364(6) 0.9339(3)
O26_7 O 0.3222(2) 0.1607(5) 0.9310(3)
C43_7 C 0.2320(2) 0.1514(6) 0.9221(3)
H29_7 H 0.246083 0.095464 0.915339
C44_7 C 0.2342(3) 0.3187(7) 0.9443(4)
H30_7 H 0.249596 0.374946 0.953039
C45_7 C 0.1907(3) 0.3177(6) 0.9418(3)
H31_7 H 0.176921 0.374079 0.948571
C46_7 C 0.3028(3) 0.2334(7) 0.9344(3)
O27_4 O 0.09895(17) 0.0698(4) 0.77932(19)
O24_7 O 0.1001(2) 0.9830(5) 0.0050(2)
Eu2_4 Eu 0.13273(2) 0.91679(3) 0.81303(2)
C2_7 C 0.25711(18) 0.7672(5) 0.9289(2)
H1_7 H 0.265900 0.826223 0.918656
O1_7 O 0.15075(14) 0.8225(3) 0.89072(16)
O2_7 O 0.06461(15) 0.5809(4) 0.62426(16)
O3_7 O 0.09558(17) 0.7605(4) 0.81056(19)
O4_7 O 0.07999(15) 0.9518(4) 0.85874(17)
O5_7 O 0.19850(14) 0.8262(4) 0.84619(17)
O6_7 O 0.07689(15) 0.3167(4) 0.55344(17)
H2_7 H 0.095110 0.361135 0.551639
H3_7 H 0.064640 0.329865 0.575629
C3_7 C 0.1310(2) 0.5771(5) 0.9344(2)
H4_7 H 0.138844 0.581343 0.965464
C5_7 C 0.0761(2) 0.5202(5) 0.6984(2)
O7_7 O 0.05587(15) 0.4239(4) 0.63293(16)
C6_7 C 0.16020(19) 0.6022(5) 0.9068(2)
C7_7 C 0.1487(2) 0.5932(5) 0.8610(2)
H5_7 H 0.168087 0.611736 0.842701
C8_7 C 0.0801(2) 0.5348(5) 0.8690(2)
H6_7 H 0.053123 0.511902 0.856318
C9_7 C 0.28503(19) 0.7134(5) 0.9604(2)
C10_7 C 0.1088(2) 0.5569(5) 0.8414(2)
O9_4 O 0.01892(14) 0.5273(4) 0.92541(17)
C12_7 C 0.1011(2) 0.6243(5) 0.7624(2)
O10_7 O 0.13811(18) 0.7747(4) 0.76114(19)
O11_7 O 0.12670(14) 0.4961(4) 0.57522(18)
H7_7 H 0.137335 0.446498 0.564482
H8_7 H 0.142825 0.544488 0.572932
C13_7 C 0.2305(2) 0.5931(5) 0.9592(2)
H9_7 H 0.221664 0.534503 0.969960
C14_7 C 0.0966(2) 0.5485(6) 0.7917(2)
C16_7 C 0.0907(2) 0.6098(5) 0.7168(2)
H10_7 H 0.093417 0.661206 0.697543
C17_7 C 0.1871(2) 0.7972(5) 0.8810(2)
C18_7 C 0.2164(2) 0.7326(5) 0.9130(2)
C23_7 C 0.0496(2) 0.9962(5) 0.8737(3)
C24_7 C 0.2026(2) 0.6437(5) 0.9271(2)
O13_7 O 0.04396(17) 0.9863(4) 0.9131(2)
C25_7 C 0.0719(3) 0.4450(6) 0.7279(3)
H13_7 H 0.061811 0.385078 0.716482
C27_7 C 0.1124(2) 0.7258(6) 0.7785(3)
C29_7 C 0.0648(2) 0.5066(6) 0.6493(2)
O15_7 O 0.04681(18) 0.8096(5) 0.9759(2)
H18_7 H 0.056222 0.769411 0.996604
H19_7 H 0.053782 0.789801 0.951534
C33_7 C 0.0823(3) 0.4573(6) 0.7733(3)
H20_7 H 0.079905 0.405267 0.792334
O16_7 O 0.1857(2) 0.9764(5) 0.7710(2)
H21_7 H 0.190365 0.934080 0.791758
C34_7 C 0.2708(2) 0.6274(5) 0.9756(2)
H23_7 H 0.288768 0.591961 0.997255
O19_7 O 0.34113(15) 0.8265(4) 0.95853(19)
O21_7 O 0.06522(16) 0.7581(4) 0.8912(2)
H24_7 H 0.064414 0.750380 0.863133
H25_7 H 0.089924 0.779720 0.902133
H26_7 H 0.084706 0.933208 0.997635
H27_7 H 0.114906 0.993878 0.984575
C35_7 C 0.3293(2) 0.7530(6) 0.9763(3)
C37_7 C 0.0577(2) 0.5343(5) 0.9443(2)
C41_7 C 0.0900(2) 0.5454(5) 0.9157(2)
O30_4 O 0.07333(19) 0.9308(4) 0.7519(2)
C1_7 C 0.9592(2) 0.0741(5) 0.7836(3)
O8_4 O 0.90105(17) 0.0698(4) 0.72068(19)
C28_7 C 0.9910(2) 0.0164(5) 0.8089(2)
C30_7 C 0.9268(2) 0.0228(7) 0.7485(3)
C31_7 C 0.9859(2) 0.2133(6) 0.8247(3)
H16_7 H 0.983961 0.279539 0.829907
C32_7 C 0.9569(3) 0.1704(6) 0.7898(3)
H17_7 H 0.936590 0.207840 0.771428
H15_7 H 0.992832 0.950493 0.802862
O14_4 O 0.92667(19) 0.9308(4) 0.7481(2)
Eu5_4 Eu 0.86727(2) 0.91679(3) 0.68697(2)
O28_4 O 0.98108(14) 0.5273(4) 0.57459(17)
C1_8 C 0.0408(2) 0.0741(5) 0.7164(3)
C28_8 C 0.0090(2) 0.0164(5) 0.6911(2)
C30_8 C 0.0732(2) 0.0228(7) 0.7515(3)
C31_8 C 0.0141(2) 0.2133(6) 0.6753(3)
H16_8 H 0.016039 0.279539 0.670093
C32_8 C 0.0431(3) 0.1704(6) 0.7102(3)
H17_8 H 0.063410 0.207840 0.728572
H15_8 H 0.007168 0.950493 0.697138
C4_8 C 0.8804(2) 0.2369(5) 0.5728(3)
C11_8 C 0.9800(2) 0.0603(5) 0.6566(2)
C15_8 C 0.9416(2) 0.2914(5) 0.5407(2)
C19_8 C 0.9530(2) 0.2065(5) 0.6106(3)
C20_8 C 0.8976(2) 0.2822(5) 0.5384(3)
H11_8 H 0.879272 0.306659 0.513611
C21_8 C 0.9830(2) 0.1599(5) 0.6486(3)
C22_8 C 0.9092(2) 0.1995(5) 0.6088(3)
H12_8 H 0.898736 0.169119 0.632104
C26_8 C 0.9687(2) 0.2553(5) 0.5783(3)
H14_8 H 0.998035 0.265039 0.581189
H22_8 H 0.838025 0.004030 0.727532
O18_8 O 0.83341(15) 0.0273(4) 0.63256(18)
O22_8 O 0.85226(16) 0.0129(4) 0.56475(18)
C36_8 C 0.9580(2) 0.3459(5) 0.5040(2)
C38_8 C 0.8349(2) 0.0541(6) 0.5935(3)
C39_8 C 0.8116(2) 0.1502(5) 0.5795(3)
C40_8 C 0.8336(2) 0.2346(6) 0.5705(3)
O25_8 O 0.6791(2) 0.3200(5) 0.5612(3)
H28_8 H 0.679055 0.340252 0.535699
C42_8 C 0.7446(2) 0.2364(6) 0.5661(3)
O26_8 O 0.6778(2) 0.1607(5) 0.5690(3)
C43_8 C 0.7680(2) 0.1514(6) 0.5779(3)
H29_8 H 0.753917 0.095464 0.584661
C44_8 C 0.7658(3) 0.3187(7) 0.5557(4)
H30_8 H 0.750404 0.374946 0.546961
C45_8 C 0.8093(3) 0.3177(6) 0.5582(3)
H31_8 H 0.823079 0.374079 0.551429
C46_8 C 0.6972(3) 0.2334(7) 0.5656(3)
C2_8 C 0.74289(18) 0.7672(5) 0.5711(2)
H1_8 H 0.734100 0.826223 0.581344
O1_8 O 0.84925(14) 0.8225(3) 0.60928(16)
O2_8 O 0.93539(15) 0.5809(4) 0.87574(16)
O3_8 O 0.90442(17) 0.7605(4) 0.68944(19)
O4_8 O 0.92001(15) 0.9518(4) 0.64126(17)
O5_8 O 0.80150(14) 0.8262(4) 0.65381(17)
O6_8 O 0.92311(15) 0.3167(4) 0.94656(17)
H2_8 H 0.904890 0.361135 0.948361
H3_8 H 0.935360 0.329865 0.924371
C3_8 C 0.8690(2) 0.5771(5) 0.5656(2)
H4_8 H 0.861156 0.581343 0.534536
C5_8 C 0.9239(2) 0.5202(5) 0.8016(2)
O7_8 O 0.94413(15) 0.4239(4) 0.86707(16)
C6_8 C 0.83980(19) 0.6022(5) 0.5932(2)
C7_8 C 0.8513(2) 0.5932(5) 0.6390(2)
H5_8 H 0.831913 0.611736 0.657299
C8_8 C 0.9199(2) 0.5348(5) 0.6310(2)
H6_8 H 0.946877 0.511902 0.643682
C9_8 C 0.71497(19) 0.7134(5) 0.5396(2)
C10_8 C 0.8912(2) 0.5569(5) 0.6586(2)
C12_8 C 0.8989(2) 0.6243(5) 0.7376(2)
O10_8 O 0.86189(18) 0.7747(4) 0.73886(19)
O11_8 O 0.87330(14) 0.4961(4) 0.92478(18)
H7_8 H 0.862665 0.446498 0.935518
H8_8 H 0.857175 0.544488 0.927068
C13_8 C 0.7695(2) 0.5931(5) 0.5408(2)
H9_8 H 0.778336 0.534503 0.530040
C14_8 C 0.9034(2) 0.5485(6) 0.7083(2)
C16_8 C 0.9093(2) 0.6098(5) 0.7832(2)
H10_8 H 0.906583 0.661206 0.802457
C17_8 C 0.8129(2) 0.7972(5) 0.6190(2)
C18_8 C 0.7836(2) 0.7326(5) 0.5870(2)
C23_8 C 0.9504(2) 0.9962(5) 0.6263(3)
C24_8 C 0.7974(2) 0.6437(5) 0.5729(2)
O13_8 O 0.95604(17) 0.9863(4) 0.5869(2)
C25_8 C 0.9281(3) 0.4450(6) 0.7721(3)
H13_8 H 0.938189 0.385078 0.783518
C27_8 C 0.8876(2) 0.7258(6) 0.7215(3)
C29_8 C 0.9352(2) 0.5066(6) 0.8507(2)
O15_8 O 0.95319(18) 0.8096(5) 0.5241(2)
H18_8 H 0.943778 0.769411 0.503396
H19_8 H 0.946218 0.789801 0.548466
C33_8 C 0.9177(3) 0.4573(6) 0.7267(3)
H20_8 H 0.920095 0.405267 0.707666
O16_8 O 0.8143(2) 0.9764(5) 0.7290(2)
H21_8 H 0.809635 0.934080 0.708242
C34_8 C 0.7292(2) 0.6274(5) 0.5244(2)
H23_8 H 0.711232 0.591961 0.502745
O19_8 O 0.65887(15) 0.8265(4) 0.54147(19)
O21_8 O 0.93478(16) 0.7581(4) 0.6088(2)
H24_8 H 0.935586 0.750380 0.636867
H25_8 H 0.910076 0.779720 0.597867
O24_8 O 0.8999(2) 0.9830(5) 0.4950(2)
H26_8 H 0.915294 0.933208 0.502365
H27_8 H 0.885094 0.993878 0.515425
C35_8 C 0.6707(2) 0.7530(6) 0.5237(3)
C37_8 C 0.9423(2) 0.5343(5) 0.5557(2)
C41_8 C 0.9100(2) 0.5454(5) 0.5843(2)
loop_
_geom_bond_atom_site_label_1
_geom_bond_atom_site_label_2
_geom_bond_site_symmetry_1
_geom_bond_site_symmetry_2
O6 Eu3 1_555 1_555
H2 O6 1_555 1_555
H3 O6 1_555 1_555
O7 Eu3 1_555 1_555
O11 Eu3 1_555 1_555
H7 O11 1_555 1_555
H13 C25 1_555 1_555
H20 C33 1_555 1_555
O31 Eu3 1_555 1_555
O33 Eu3 1_555 1_555
C25 C33 1_555 1_555
Eu1 O1 1_555 1_555
Eu2 O1 1_555 1_555
C1 C28 1_555 1_555
C2 H1 1_555 1_555
O1 C17 1_555 1_555
O2 C29 1_555 1_555
O3 Eu2 1_555 1_555
O4 Eu1 1_555 1_555
O5 Eu2 1_555 1_555
C3 H4 1_555 1_555
C4 C20 1_555 1_555
C5 C16 1_555 1_555
C6 C3 1_555 1_555
C7 C6 1_555 1_555
H5 C7 1_555 1_555
C8 H6 1_555 1_555
C9 C2 1_555 1_555
C10 C7 1_555 1_555
O8 C30 1_555 1_555
O9 C37 1_555 1_555
C11 C21 1_555 1_555
C12 C14 1_555 1_555
O10 Eu2 1_555 1_555
C13 H9 1_555 1_555
C14 C10 1_555 1_555
C15 C20 1_555 1_555
C16 C12 1_555 1_555
H10 C16 1_555 1_555
C17 O5 1_555 1_555
C18 C2 1_555 1_555
C19 C21 1_555 1_555
C20 H11 1_555 1_555
C21 C31 1_555 1_555
C22 C4 1_555 1_555
H12 C22 1_555 1_555
C23 O4 1_555 1_555
C24 C6 1_555 1_555
O13 Eu1 1_555 1_555
C26 C15 1_555 1_555
H14 C26 1_555 1_555
C27 O3 1_555 1_555
C28 C11 1_555 1_555
H15 C28 1_555 1_555
C29 C5 1_555 1_555
C30 C1 1_555 1_555
O14 C30 1_555 1_555
C31 H16 1_555 1_555
C32 C1 1_555 1_555
H17 C32 1_555 1_555
O15 Eu1 1_555 1_555
H18 O15 1_555 1_555
H19 O15 1_555 1_555
O16 Eu2 1_555 1_555
H21 O16 1_555 1_555
H22 O16 1_555 1_555
C34 C9 1_555 1_555
H23 C34 1_555 1_555
O17 C36 1_555 1_555
O18 Eu2 1_555 1_555
O19 C35 1_555 1_555
O20 C37 1_555 1_555
O21 Eu1 1_555 1_555
H24 O21 1_555 1_555
H25 O21 1_555 1_555
O22 Eu1 1_555 1_555
C35 C9 1_555 1_555
C36 C15 1_555 1_555
C37 C41 1_555 1_555
C38 O18 1_555 1_555
C39 C38 1_555 1_555
C40 C4 1_555 1_555
C41 C3 1_555 1_555
O25 H28 1_555 1_555
C42 C43 1_555 1_555
O26 C46 1_555 1_555
C43 C39 1_555 1_555
H29 C43 1_555 1_555
C44 C42 1_555 1_555
H30 C44 1_555 1_555
C45 C40 1_555 1_555
H31 C45 1_555 1_555
C46 O25 1_555 1_555
Eu5 O8 1_555 1_555
Eu7 O17 1_555 1_555
O27 Eu2 1_555 1_555
O29 Eu1 1_555 1_555
O30 Eu2 1_555 1_555
Eu2 O4 1_555 1_555
C8 C10 1_555 1_555
C8 C41 1_555 1_555
C11 C23 1_555 1_555
C12 C27 1_555 1_555
O10 C27 1_555 1_555
C13 C24 1_555 1_555
C13 C34 1_555 1_555
C17 C18 1_555 1_555
C18 C24 1_555 1_555
C19 C22 1_555 1_555
C19 C26 1_555 1_555
C23 O13 1_555 1_555
O14 Eu5 1_555 1_555
C31 C32 1_555 1_555
O22 C38 1_555 1_555
C39 C40 1_555 1_555
C42 C46 1_555 1_555
C44 C45 1_555 1_555
Eu4 O12 1_555 1_555
O6_2 Eu7 1_555 1_555
H2_2 O6_2 1_555 1_555
H3_2 O6_2 1_555 1_555
O7_2 Eu7 1_555 1_555
O11_2 Eu7 1_555 1_555
H7_2 O11_2 1_555 1_555
H13_2 C25_2 1_555 1_555
H20_2 C33_2 1_555 1_555
C25_2 C33_2 1_555 1_555
Eu1_2 O1_2 1_555 1_555
Eu5 O1_2 1_555 1_555
C1_2 C28_2 1_555 1_555
C2_2 H1_2 1_555 1_555
O1_2 C17_2 1_555 1_555
O2_2 C29_2 1_555 1_555
O3_2 Eu5 1_555 1_555
O4_2 Eu1_2 1_555 1_555
O5_2 Eu5 1_555 1_555
C3_2 H4_2 1_555 1_555
C4_2 C20_2 1_555 1_555
C5_2 C16_2 1_555 1_555
C6_2 C3_2 1_555 1_555
C7_2 C6_2 1_555 1_555
H5_2 C7_2 1_555 1_555
C8_2 H6_2 1_555 1_555
C9_2 C2_2 1_555 1_555
C10_2 C7_2 1_555 1_555
O27 C30_2 1_555 1_555
O28 C37_2 1_555 1_555
C11_2 C21_2 1_555 1_555
C12_2 C14_2 1_555 1_555
O10_2 Eu5 1_555 1_555
C13_2 H9_2 1_555 1_555
C14_2 C10_2 1_555 1_555
C15_2 C20_2 1_555 1_555
C16_2 C12_2 1_555 1_555
H10_2 C16_2 1_555 1_555
C17_2 O5_2 1_555 1_555
C18_2 C2_2 1_555 1_555
O12_2 C35_2 1_555 1_555
C19_2 C21_2 1_555 1_555
C20_2 H11_2 1_555 1_555
C21_2 C31_2 1_555 1_555
C22_2 C4_2 1_555 1_555
H12_2 C22_2 1_555 1_555
C23_2 O4_2 1_555 1_555
C24_2 C6_2 1_555 1_555
O13_2 Eu1_2 1_555 1_555
C26_2 C15_2 1_555 1_555
H14_2 C26_2 1_555 1_555
C27_2 O3_2 1_555 1_555
C28_2 C11_2 1_555 1_555
H15_2 C28_2 1_555 1_555
C29_2 C5_2 1_555 1_555
C30_2 C1_2 1_555 1_555
O30 C30_2 1_555 1_555
C31_2 H16_2 1_555 1_555
C32_2 C1_2 1_555 1_555
H17_2 C32_2 1_555 1_555
O15_2 Eu1_2 1_555 1_555
H18_2 O15_2 1_555 1_555
H19_2 O15_2 1_555 1_555
O16_2 Eu5 1_555 1_555
H21_2 O16_2 1_555 1_555
H22_2 O16_2 1_555 1_555
C34_2 C9_2 1_555 1_555
H23_2 C34_2 1_555 1_555
O31 C36_2 1_555 1_555
O18_2 Eu5 1_555 1_555
O19_2 C35_2 1_555 1_555
O20_2 C37_2 1_555 1_555
O21_2 Eu1_2 1_555 1_555
H24_2 O21_2 1_555 1_555
H25_2 O21_2 1_555 1_555
O22_2 Eu1_2 1_555 1_555
O23_2 C36_2 1_555 1_555
O24_2 Eu1_2 1_555 1_555
H26_2 O24_2 1_555 1_555
H27_2 O24_2 1_555 1_555
C35_2 C9_2 1_555 1_555
C36_2 C15_2 1_555 1_555
C37_2 C41_2 1_555 1_555
C38_2 O18_2 1_555 1_555
C39_2 C38_2 1_555 1_555
C40_2 C4_2 1_555 1_555
C41_2 C3_2 1_555 1_555
O25_2 H28_2 1_555 1_555
C42_2 C43_2 1_555 1_555
O26_2 C46_2 1_555 1_555
C43_2 C39_2 1_555 1_555
H29_2 C43_2 1_555 1_555
C44_2 C42_2 1_555 1_555
H30_2 C44_2 1_555 1_555
C45_2 C40_2 1_555 1_555
H31_2 C45_2 1_555 1_555
C46_2 O25_2 1_555 1_555
Eu4_2 O12_2 1_555 1_555
Eu9_2 O20_2 1_555 1_555
O29_2 Eu1_2 1_555 1_555
Eu5 O4_2 1_555 1_555
C8_2 C10_2 1_555 1_555
C8_2 C41_2 1_555 1_555
C11_2 C23_2 1_555 1_555
C12_2 C27_2 1_555 1_555
O10_2 C27_2 1_555 1_555
C13_2 C24_2 1_555 1_555
C13_2 C34_2 1_555 1_555
C17_2 C18_2 1_555 1_555
C18_2 C24_2 1_555 1_555
C19_2 C22_2 1_555 1_555
C19_2 C26_2 1_555 1_555
C23_2 O13_2 1_555 1_555
C31_2 C32_2 1_555 1_555
O22_2 C38_2 1_555 1_555
C39_2 C40_2 1_555 1_555
C42_2 C46_2 1_555 1_555
C44_2 C45_2 1_555 1_555
O14_2 Eu5_2 1_555 1_555
C1_3 C28_3 1_555 1_555
O8_2 C30_3 1_555 1_555
C30_3 C1_3 1_555 1_555
C31_3 H16_3 1_555 1_555
C32_3 C1_3 1_555 1_555
H17_3 C32_3 1_555 1_555
C31_3 C32_3 1_555 1_555
Eu1_3 O1_3 1_555 1_555
Eu2_2 O1_3 1_555 1_555
Eu3_2 O2_3 1_555 1_555
C2_3 H1_3 1_555 1_555
O1_3 C17_3 1_555 1_555
O2_3 C29_3 1_555 1_555
O3_3 Eu2_2 1_555 1_555
O4_3 Eu1_3 1_555 1_555
O5_3 Eu2_2 1_555 1_555
O6_3 Eu3_2 1_555 1_555
H2_3 O6_3 1_555 1_555
H3_3 O6_3 1_555 1_555
C3_3 H4_3 1_555 1_555
C5_3 C16_3 1_555 1_555
O7_3 Eu3_2 1_555 1_555
C6_3 C3_3 1_555 1_555
C7_3 C6_3 1_555 1_555
H5_3 C7_3 1_555 1_555
C8_3 H6_3 1_555 1_555
C9_3 C2_3 1_555 1_555
C10_3 C7_3 1_555 1_555
O9_2 C37_3 1_555 1_555
C12_3 C14_3 1_555 1_555
O10_3 Eu2_2 1_555 1_555
O11_3 Eu3_2 1_555 1_555
H7_3 O11_3 1_555 1_555
H8_3 O11_3 1_555 1_555
C13_3 H9_3 1_555 1_555
C14_3 C10_3 1_555 1_555
C16_3 C12_3 1_555 1_555
H10_3 C16_3 1_555 1_555
C17_3 O5_3 1_555 1_555
C18_3 C2_3 1_555 1_555
C23_3 O4_3 1_555 1_555
C24_3 C6_3 1_555 1_555
O13_3 Eu1_3 1_555 1_555
C25_3 C5_3 1_555 1_555
H13_3 C25_3 1_555 1_555
C27_3 O3_3 1_555 1_555
C29_3 C5_3 1_555 1_555
O15_3 Eu1_3 1_555 1_555
H18_3 O15_3 1_555 1_555
H19_3 O15_3 1_555 1_555
C33_3 C14_3 1_555 1_555
H20_3 C33_3 1_555 1_555
O16_3 Eu2_2 1_555 1_555
H21_3 O16_3 1_555 1_555
C34_3 C9_3 1_555 1_555
H23_3 C34_3 1_555 1_555
O19_3 C35_3 1_555 1_555
O20_3 C37_3 1_555 1_555
O21_3 Eu1_3 1_555 1_555
H24_3 O21_3 1_555 1_555
H25_3 O21_3 1_555 1_555
C35_3 C9_3 1_555 1_555
C37_3 C41_3 1_555 1_555
C41_3 C3_3 1_555 1_555
O29_3 Eu1_3 1_555 1_555
O30_2 Eu2_2 1_555 1_555
O32_3 Eu3_2 1_555 1_555
O33_3 Eu3_2 1_555 1_555
O34_3 Eu3_2 1_555 1_555
Eu2_2 O4_3 1_555 1_555
O7_3 C29_3 1_555 1_555
C8_3 C10_3 1_555 1_555
C8_3 C41_3 1_555 1_555
C12_3 C27_3 1_555 1_555
O10_3 C27_3 1_555 1_555
C13_3 C24_3 1_555 1_555
C13_3 C34_3 1_555 1_555
C17_3 C18_3 1_555 1_555
C18_3 C24_3 1_555 1_555
C23_3 O13_3 1_555 1_555
C25_3 C33_3 1_555 1_555
Eu4_3 O12_3 1_555 1_555
C4_3 C20_3 1_555 1_555
C11_3 C21_3 1_555 1_555
C15_3 C20_3 1_555 1_555
C19_3 C21_3 1_555 1_555
C20_3 H11_3 1_555 1_555
C22_3 C4_3 1_555 1_555
H12_3 C22_3 1_555 1_555
C26_3 C15_3 1_555 1_555
H14_3 C26_3 1_555 1_555
O17_2 C36_3 1_555 1_555
C36_3 C15_3 1_555 1_555
C38_3 O18_3 1_555 1_555
C39_3 C38_3 1_555 1_555
C40_3 C4_3 1_555 1_555
O25_3 H28_3 1_555 1_555
C42_3 C43_3 1_555 1_555
O26_3 C46_3 1_555 1_555
C43_3 C39_3 1_555 1_555
H29_3 C43_3 1_555 1_555
C44_3 C42_3 1_555 1_555
H30_3 C44_3 1_555 1_555
C45_3 C40_3 1_555 1_555
H31_3 C45_3 1_555 1_555
C46_3 O25_3 1_555 1_555
C19_3 C22_3 1_555 1_555
C19_3 C26_3 1_555 1_555
O22_3 C38_3 1_555 1_555
C39_3 C40_3 1_555 1_555
C42_3 C46_3 1_555 1_555
C44_3 C45_3 1_555 1_555
O23_3 Eu9_3 1_555 1_555
Eu1_4 O1_4 1_555 1_555
Eu5_2 O1_4 1_555 1_555
Eu7_2 O2_4 1_555 1_555
C2_4 H1_4 1_555 1_555
O1_4 C17_4 1_555 1_555
O2_4 C29_4 1_555 1_555
O3_4 Eu5_2 1_555 1_555
O4_4 Eu1_4 1_555 1_555
O5_4 Eu5_2 1_555 1_555
O6_4 Eu7_2 1_555 1_555
H2_4 O6_4 1_555 1_555
H3_4 O6_4 1_555 1_555
C3_4 H4_4 1_555 1_555
C5_4 C16_4 1_555 1_555
O7_4 Eu7_2 1_555 1_555
C6_4 C3_4 1_555 1_555
C7_4 C6_4 1_555 1_555
H5_4 C7_4 1_555 1_555
C8_4 H6_4 1_555 1_555
C9_4 C2_4 1_555 1_555
C10_4 C7_4 1_555 1_555
O28_2 C37_4 1_555 1_555
C12_4 C14_4 1_555 1_555
O10_4 Eu5_2 1_555 1_555
O11_4 Eu7_2 1_555 1_555
H7_4 O11_4 1_555 1_555
H8_4 O11_4 1_555 1_555
C13_4 H9_4 1_555 1_555
C14_4 C10_4 1_555 1_555
C16_4 C12_4 1_555 1_555
H10_4 C16_4 1_555 1_555
C17_4 O5_4 1_555 1_555
C18_4 C2_4 1_555 1_555
O12_4 C35_4 1_555 1_555
C23_4 O4_4 1_555 1_555
C24_4 C6_4 1_555 1_555
O13_4 Eu1_4 1_555 1_555
C25_4 C5_4 1_555 1_555
H13_4 C25_4 1_555 1_555
C27_4 O3_4 1_555 1_555
C29_4 C5_4 1_555 1_555
O15_4 Eu1_4 1_555 1_555
H18_4 O15_4 1_555 1_555
H19_4 O15_4 1_555 1_555
C33_4 C14_4 1_555 1_555
H20_4 C33_4 1_555 1_555
O16_4 Eu5_2 1_555 1_555
H21_4 O16_4 1_555 1_555
C34_4 C9_4 1_555 1_555
H23_4 C34_4 1_555 1_555
O19_4 C35_4 1_555 1_555
O20_4 C37_4 1_555 1_555
O21_4 Eu1_4 1_555 1_555
H24_4 O21_4 1_555 1_555
H25_4 O21_4 1_555 1_555
O24_4 Eu1_4 1_555 1_555
H26_4 O24_4 1_555 1_555
H27_4 O24_4 1_555 1_555
C35_4 C9_4 1_555 1_555
C37_4 C41_4 1_555 1_555
C41_4 C3_4 1_555 1_555
Eu4_4 O12_4 1_555 1_555
Eu9_4 O20_4 1_555 1_555
O29_4 Eu1_4 1_555 1_555
O34_4 Eu7_2 1_555 1_555
Eu5_2 O4_4 1_555 1_555
O7_4 C29_4 1_555 1_555
C8_4 C10_4 1_555 1_555
C8_4 C41_4 1_555 1_555
C12_4 C27_4 1_555 1_555
O10_4 C27_4 1_555 1_555
C13_4 C24_4 1_555 1_555
C13_4 C34_4 1_555 1_555
C17_4 C18_4 1_555 1_555
C18_4 C24_4 1_555 1_555
C23_4 O13_4 1_555 1_555
C25_4 C33_4 1_555 1_555
C4_4 C20_4 1_555 1_555
C11_4 C21_4 1_555 1_555
C15_4 C20_4 1_555 1_555
C19_4 C21_4 1_555 1_555
C20_4 H11_4 1_555 1_555
C22_4 C4_4 1_555 1_555
H12_4 C22_4 1_555 1_555
C26_4 C15_4 1_555 1_555
H14_4 C26_4 1_555 1_555
O31_2 C36_4 1_555 1_555
O23_4 C36_4 1_555 1_555
C36_4 C15_4 1_555 1_555
C38_4 O18_4 1_555 1_555
C39_4 C38_4 1_555 1_555
C40_4 C4_4 1_555 1_555
O25_4 H28_4 1_555 1_555
C42_4 C43_4 1_555 1_555
O26_4 C46_4 1_555 1_555
C43_4 C39_4 1_555 1_555
H29_4 C43_4 1_555 1_555
C44_4 C42_4 1_555 1_555
H30_4 C44_4 1_555 1_555
C45_4 C40_4 1_555 1_555
H31_4 C45_4 1_555 1_555
C46_4 O25_4 1_555 1_555
Eu9_4 O31_2 1_555 1_555
C19_4 C22_4 1_555 1_555
C19_4 C26_4 1_555 1_555
O22_4 C38_4 1_555 1_555
O23_4 Eu9_4 1_555 1_555
C39_4 C40_4 1_555 1_555
C42_4 C46_4 1_555 1_555
C44_4 C45_4 1_555 1_555
C1_4 C28_4 1_555 1_555
O27_2 C30_4 1_555 1_555
C30_4 C1_4 1_555 1_555
C31_4 H16_4 1_555 1_555
C32_4 C1_4 1_555 1_555
H17_4 C32_4 1_555 1_555
C31_4 C32_4 1_555 1_555
Eu4_3 O1_5 1_555 1_555
Eu2_3 O1_5 1_555 1_555
C1_5 C28_5 1_555 1_555
C2_5 H1_5 1_555 1_555
O1_5 C17_5 1_555 1_555
O2_5 C29_5 1_555 1_555
O3_5 Eu2_3 1_555 1_555
O4_5 Eu4_3 1_555 1_555
O5_5 Eu2_3 1_555 1_555
C3_5 H4_5 1_555 1_555
C4_5 C20_5 1_555 1_555
C5_5 C16_5 1_555 1_555
C6_5 C3_5 1_555 1_555
C7_5 C6_5 1_555 1_555
H5_5 C7_5 1_555 1_555
C8_5 H6_5 1_555 1_555
C9_5 C2_5 1_555 1_555
C10_5 C7_5 1_555 1_555
O8_3 C30_5 1_555 1_555
O9_3 C37_5 1_555 1_555
C11_5 C21_5 1_555 1_555
C12_5 C14_5 1_555 1_555
O10_5 Eu2_3 1_555 1_555
C13_5 H9_5 1_555 1_555
C14_5 C10_5 1_555 1_555
C15_5 C20_5 1_555 1_555
C16_5 C12_5 1_555 1_555
H10_5 C16_5 1_555 1_555
C17_5 O5_5 1_555 1_555
C18_5 C2_5 1_555 1_555
C19_5 C21_5 1_555 1_555
C20_5 H11_5 1_555 1_555
C21_5 C31_5 1_555 1_555
C22_5 C4_5 1_555 1_555
H12_5 C22_5 1_555 1_555
C23_5 O4_5 1_555 1_555
C24_5 C6_5 1_555 1_555
O13_5 Eu4_3 1_555 1_555
C26_5 C15_5 1_555 1_555
H14_5 C26_5 1_555 1_555
C27_5 O3_5 1_555 1_555
C28_5 C11_5 1_555 1_555
H15_5 C28_5 1_555 1_555
C29_5 C5_5 1_555 1_555
C30_5 C1_5 1_555 1_555
O14_3 C30_5 1_555 1_555
C31_5 H16_5 1_555 1_555
C32_5 C1_5 1_555 1_555
H17_5 C32_5 1_555 1_555
O15_5 Eu4_3 1_555 1_555
H18_5 O15_5 1_555 1_555
H19_5 O15_5 1_555 1_555
O16_5 Eu2_3 1_555 1_555
H21_5 O16_5 1_555 1_555
H22_5 O16_5 1_555 1_555
C34_5 C9_5 1_555 1_555
H23_5 C34_5 1_555 1_555
O32_2 C36_5 1_555 1_555
O18_5 Eu2_3 1_555 1_555
O19_5 C35_5 1_555 1_555
O33_2 C37_5 1_555 1_555
O21_5 Eu4_3 1_555 1_555
H24_5 O21_5 1_555 1_555
H25_5 O21_5 1_555 1_555
O22_5 Eu4_3 1_555 1_555
C35_5 C9_5 1_555 1_555
C36_5 C15_5 1_555 1_555
C37_5 C41_5 1_555 1_555
C38_5 O18_5 1_555 1_555
C39_5 C38_5 1_555 1_555
C40_5 C4_5 1_555 1_555
C41_5 C3_5 1_555 1_555
O25_5 H28_5 1_555 1_555
C42_5 C43_5 1_555 1_555
O26_5 C46_5 1_555 1_555
C43_5 C39_5 1_555 1_555
H29_5 C43_5 1_555 1_555
C44_5 C42_5 1_555 1_555
H30_5 C44_5 1_555 1_555
C45_5 C40_5 1_555 1_555
H31_5 C45_5 1_555 1_555
C46_5 O25_5 1_555 1_555
Eu5_3 O8_3 1_555 1_555
Eu9 O32_2 1_555 1_555
O27_3 Eu2_3 1_555 1_555
O30_3 Eu2_3 1_555 1_555
Eu2_3 O4_5 1_555 1_555
C8_5 C10_5 1_555 1_555
C8_5 C41_5 1_555 1_555
C11_5 C23_5 1_555 1_555
C12_5 C27_5 1_555 1_555
O10_5 C27_5 1_555 1_555
C13_5 C24_5 1_555 1_555
C13_5 C34_5 1_555 1_555
C17_5 C18_5 1_555 1_555
C18_5 C24_5 1_555 1_555
C19_5 C22_5 1_555 1_555
C19_5 C26_5 1_555 1_555
C23_5 O13_5 1_555 1_555
O14_3 Eu5_3 1_555 1_555
C31_5 C32_5 1_555 1_555
O22_5 C38_5 1_555 1_555
C39_5 C40_5 1_555 1_555
C42_5 C46_5 1_555 1_555
C44_5 C45_5 1_555 1_555
O6_5 Eu9_2 1_555 1_555
H2_5 O6_5 1_555 1_555
H3_5 O6_5 1_555 1_555
O7_5 Eu9_2 1_555 1_555
O11_5 Eu9_2 1_555 1_555
H7_5 O11_5 1_555 1_555
H13_5 C25_5 1_555 1_555
H20_5 C33_5 1_555 1_555
O32 Eu9_2 1_555 1_555
C25_5 C33_5 1_555 1_555
Eu4_4 O1_6 1_555 1_555
Eu5_3 O1_6 1_555 1_555
C1_6 C28_6 1_555 1_555
C2_6 H1_6 1_555 1_555
O1_6 C17_6 1_555 1_555
O2_6 C29_6 1_555 1_555
O3_6 Eu5_3 1_555 1_555
O4_6 Eu4_4 1_555 1_555
O5_6 Eu5_3 1_555 1_555
C3_6 H4_6 1_555 1_555
C4_6 C20_6 1_555 1_555
C5_6 C16_6 1_555 1_555
C6_6 C3_6 1_555 1_555
C7_6 C6_6 1_555 1_555
H5_6 C7_6 1_555 1_555
C8_6 H6_6 1_555 1_555
C9_6 C2_6 1_555 1_555
C10_6 C7_6 1_555 1_555
O27_3 C30_6 1_555 1_555
O28_3 C37_6 1_555 1_555
C11_6 C21_6 1_555 1_555
C12_6 C14_6 1_555 1_555
O10_6 Eu5_3 1_555 1_555
C13_6 H9_6 1_555 1_555
C14_6 C10_6 1_555 1_555
C15_6 C20_6 1_555 1_555
C16_6 C12_6 1_555 1_555
H10_6 C16_6 1_555 1_555
C17_6 O5_6 1_555 1_555
C18_6 C2_6 1_555 1_555
O29_4 C35_6 1_555 1_555
C19_6 C21_6 1_555 1_555
C20_6 H11_6 1_555 1_555
C21_6 C31_6 1_555 1_555
C22_6 C4_6 1_555 1_555
H12_6 C22_6 1_555 1_555
C23_6 O4_6 1_555 1_555
C24_6 C6_6 1_555 1_555
O13_6 Eu4_4 1_555 1_555
C26_6 C15_6 1_555 1_555
H14_6 C26_6 1_555 1_555
C27_6 O3_6 1_555 1_555
C28_6 C11_6 1_555 1_555
H15_6 C28_6 1_555 1_555
C29_6 C5_6 1_555 1_555
C30_6 C1_6 1_555 1_555
O30_3 C30_6 1_555 1_555
C31_6 H16_6 1_555 1_555
C32_6 C1_6 1_555 1_555
H17_6 C32_6 1_555 1_555
O15_6 Eu4_4 1_555 1_555
H18_6 O15_6 1_555 1_555
H19_6 O15_6 1_555 1_555
O16_6 Eu5_3 1_555 1_555
H21_6 O16_6 1_555 1_555
H22_6 O16_6 1_555 1_555
C34_6 C9_6 1_555 1_555
H23_6 C34_6 1_555 1_555
O32 C36_6 1_555 1_555
O18_6 Eu5_3 1_555 1_555
O19_6 C35_6 1_555 1_555
O33 C37_6 1_555 1_555
O21_6 Eu4_4 1_555 1_555
H24_6 O21_6 1_555 1_555
H25_6 O21_6 1_555 1_555
O22_6 Eu4_4 1_555 1_555
O34 C36_6 1_555 1_555
O24_6 Eu4_4 1_555 1_555
H26_6 O24_6 1_555 1_555
H27_6 O24_6 1_555 1_555
C35_6 C9_6 1_555 1_555
C36_6 C15_6 1_555 1_555
C37_6 C41_6 1_555 1_555
C38_6 O18_6 1_555 1_555
C39_6 C38_6 1_555 1_555
C40_6 C4_6 1_555 1_555
C41_6 C3_6 1_555 1_555
O25_6 H28_6 1_555 1_555
C42_6 C43_6 1_555 1_555
O26_6 C46_6 1_555 1_555
C43_6 C39_6 1_555 1_555
H29_6 C43_6 1_555 1_555
C44_6 C42_6 1_555 1_555
H30_6 C44_6 1_555 1_555
C45_6 C40_6 1_555 1_555
H31_6 C45_6 1_555 1_555
C46_6 O25_6 1_555 1_555
Eu5_3 O4_6 1_555 1_555
C8_6 C10_6 1_555 1_555
C8_6 C41_6 1_555 1_555
C11_6 C23_6 1_555 1_555
C12_6 C27_6 1_555 1_555
O10_6 C27_6 1_555 1_555
C13_6 C24_6 1_555 1_555
C13_6 C34_6 1_555 1_555
C17_6 C18_6 1_555 1_555
C18_6 C24_6 1_555 1_555
C19_6 C22_6 1_555 1_555
C19_6 C26_6 1_555 1_555
C23_6 O13_6 1_555 1_555
C31_6 C32_6 1_555 1_555
O22_6 C38_6 1_555 1_555
C39_6 C40_6 1_555 1_555
C42_6 C46_6 1_555 1_555
C44_6 C45_6 1_555 1_555
O6_6 Eu9 1_555 1_555
H2_6 O6_6 1_555 1_555
H3_6 O6_6 1_555 1_555
O7_6 Eu9 1_555 1_555
O11_6 Eu9 1_555 1_555
H7_6 O11_6 1_555 1_555
H13_6 C25_6 1_555 1_555
H20_6 C33_6 1_555 1_555
C25_6 C33_6 1_555 1_555
C4_7 C20_7 1_555 1_555
C11_7 C21_7 1_555 1_555
C15_7 C20_7 1_555 1_555
C19_7 C21_7 1_555 1_555
C20_7 H11_7 1_555 1_555
C22_7 C4_7 1_555 1_555
H12_7 C22_7 1_555 1_555
C26_7 C15_7 1_555 1_555
H14_7 C26_7 1_555 1_555
O32_4 C36_7 1_555 1_555
C36_7 C15_7 1_555 1_555
C38_7 O18_7 1_555 1_555
C39_7 C38_7 1_555 1_555
C40_7 C4_7 1_555 1_555
O25_7 H28_7 1_555 1_555
C42_7 C43_7 1_555 1_555
O26_7 C46_7 1_555 1_555
C43_7 C39_7 1_555 1_555
H29_7 C43_7 1_555 1_555
C44_7 C42_7 1_555 1_555
H30_7 C44_7 1_555 1_555
C45_7 C40_7 1_555 1_555
H31_7 C45_7 1_555 1_555
C46_7 O25_7 1_555 1_555
C19_7 C22_7 1_555 1_555
C19_7 C26_7 1_555 1_555
O22_7 C38_7 1_555 1_555
C39_7 C40_7 1_555 1_555
C42_7 C46_7 1_555 1_555
C44_7 C45_7 1_555 1_555
Eu4 O1_7 1_555 1_555
Eu2_4 O1_7 1_555 1_555
Eu9_4 O2_7 1_555 1_555
C2_7 H1_7 1_555 1_555
O1_7 C17_7 1_555 1_555
O2_7 C29_7 1_555 1_555
O3_7 Eu2_4 1_555 1_555
O4_7 Eu4 1_555 1_555
O5_7 Eu2_4 1_555 1_555
O6_7 Eu9_4 1_555 1_555
H2_7 O6_7 1_555 1_555
H3_7 O6_7 1_555 1_555
C3_7 H4_7 1_555 1_555
C5_7 C16_7 1_555 1_555
O7_7 Eu9_4 1_555 1_555
C6_7 C3_7 1_555 1_555
C7_7 C6_7 1_555 1_555
H5_7 C7_7 1_555 1_555
C8_7 H6_7 1_555 1_555
C9_7 C2_7 1_555 1_555
C10_7 C7_7 1_555 1_555
O9_4 C37_7 1_555 1_555
C12_7 C14_7 1_555 1_555
O10_7 Eu2_4 1_555 1_555
O11_7 Eu9_4 1_555 1_555
H7_7 O11_7 1_555 1_555
H8_7 O11_7 1_555 1_555
C13_7 H9_7 1_555 1_555
C14_7 C10_7 1_555 1_555
C16_7 C12_7 1_555 1_555
H10_7 C16_7 1_555 1_555
C17_7 O5_7 1_555 1_555
C18_7 C2_7 1_555 1_555
C23_7 O4_7 1_555 1_555
C24_7 C6_7 1_555 1_555
O13_7 Eu4 1_555 1_555
C25_7 C5_7 1_555 1_555
H13_7 C25_7 1_555 1_555
C27_7 O3_7 1_555 1_555
C29_7 C5_7 1_555 1_555
O15_7 Eu4 1_555 1_555
H18_7 O15_7 1_555 1_555
H19_7 O15_7 1_555 1_555
C33_7 C14_7 1_555 1_555
H20_7 C33_7 1_555 1_555
O16_7 Eu2_4 1_555 1_555
H21_7 O16_7 1_555 1_555
C34_7 C9_7 1_555 1_555
H23_7 C34_7 1_555 1_555
O19_7 C35_7 1_555 1_555
O33_4 C37_7 1_555 1_555
O21_7 Eu4 1_555 1_555
H24_7 O21_7 1_555 1_555
H25_7 O21_7 1_555 1_555
C35_7 C9_7 1_555 1_555
C37_7 C41_7 1_555 1_555
C41_7 C3_7 1_555 1_555
O30_4 Eu2_4 1_555 1_555
Eu2_4 O4_7 1_555 1_555
O7_7 C29_7 1_555 1_555
C8_7 C10_7 1_555 1_555
C8_7 C41_7 1_555 1_555
C12_7 C27_7 1_555 1_555
O10_7 C27_7 1_555 1_555
C13_7 C24_7 1_555 1_555
C13_7 C34_7 1_555 1_555
C17_7 C18_7 1_555 1_555
C18_7 C24_7 1_555 1_555
C23_7 O13_7 1_555 1_555
C25_7 C33_7 1_555 1_555
C1_7 C28_7 1_555 1_555
O8_4 C30_7 1_555 1_555
C30_7 C1_7 1_555 1_555
C31_7 H16_7 1_555 1_555
C32_7 C1_7 1_555 1_555
H17_7 C32_7 1_555 1_555
C31_7 C32_7 1_555 1_555
O14_4 Eu5_4 1_555 1_555
C1_8 C28_8 1_555 1_555
O27_4 C30_8 1_555 1_555
C30_8 C1_8 1_555 1_555
C31_8 H16_8 1_555 1_555
C32_8 C1_8 1_555 1_555
H17_8 C32_8 1_555 1_555
C31_8 C32_8 1_555 1_555
C4_8 C20_8 1_555 1_555
C11_8 C21_8 1_555 1_555
C15_8 C20_8 1_555 1_555
C19_8 C21_8 1_555 1_555
C20_8 H11_8 1_555 1_555
C22_8 C4_8 1_555 1_555
H12_8 C22_8 1_555 1_555
C26_8 C15_8 1_555 1_555
H14_8 C26_8 1_555 1_555
O32_3 C36_8 1_555 1_555
O34_3 C36_8 1_555 1_555
C36_8 C15_8 1_555 1_555
C38_8 O18_8 1_555 1_555
C39_8 C38_8 1_555 1_555
C40_8 C4_8 1_555 1_555
O25_8 H28_8 1_555 1_555
C42_8 C43_8 1_555 1_555
O26_8 C46_8 1_555 1_555
C43_8 C39_8 1_555 1_555
H29_8 C43_8 1_555 1_555
C44_8 C42_8 1_555 1_555
H30_8 C44_8 1_555 1_555
C45_8 C40_8 1_555 1_555
H31_8 C45_8 1_555 1_555
C46_8 O25_8 1_555 1_555
C19_8 C22_8 1_555 1_555
C19_8 C26_8 1_555 1_555
O22_8 C38_8 1_555 1_555
C39_8 C40_8 1_555 1_555
C42_8 C46_8 1_555 1_555
C44_8 C45_8 1_555 1_555
Eu4_2 O1_8 1_555 1_555
Eu5_4 O1_8 1_555 1_555
Eu9_3 O2_8 1_555 1_555
C2_8 H1_8 1_555 1_555
O1_8 C17_8 1_555 1_555
O2_8 C29_8 1_555 1_555
O3_8 Eu5_4 1_555 1_555
O4_8 Eu4_2 1_555 1_555
O5_8 Eu5_4 1_555 1_555
O6_8 Eu9_3 1_555 1_555
H2_8 O6_8 1_555 1_555
H3_8 O6_8 1_555 1_555
C3_8 H4_8 1_555 1_555
C5_8 C16_8 1_555 1_555
O7_8 Eu9_3 1_555 1_555
C6_8 C3_8 1_555 1_555
C7_8 C6_8 1_555 1_555
H5_8 C7_8 1_555 1_555
C8_8 H6_8 1_555 1_555
C9_8 C2_8 1_555 1_555
C10_8 C7_8 1_555 1_555
O28_4 C37_8 1_555 1_555
C12_8 C14_8 1_555 1_555
O10_8 Eu5_4 1_555 1_555
O11_8 Eu9_3 1_555 1_555
H7_8 O11_8 1_555 1_555
H8_8 O11_8 1_555 1_555
C13_8 H9_8 1_555 1_555
C14_8 C10_8 1_555 1_555
C16_8 C12_8 1_555 1_555
H10_8 C16_8 1_555 1_555
C17_8 O5_8 1_555 1_555
C18_8 C2_8 1_555 1_555
O29_2 C35_8 1_555 1_555
C23_8 O4_8 1_555 1_555
C24_8 C6_8 1_555 1_555
O13_8 Eu4_2 1_555 1_555
C25_8 C5_8 1_555 1_555
H13_8 C25_8 1_555 1_555
C27_8 O3_8 1_555 1_555
C29_8 C5_8 1_555 1_555
O15_8 Eu4_2 1_555 1_555
H18_8 O15_8 1_555 1_555
H19_8 O15_8 1_555 1_555
C33_8 C14_8 1_555 1_555
H20_8 C33_8 1_555 1_555
O16_8 Eu5_4 1_555 1_555
H21_8 O16_8 1_555 1_555
C34_8 C9_8 1_555 1_555
H23_8 C34_8 1_555 1_555
O19_8 C35_8 1_555 1_555
O33_3 C37_8 1_555 1_555
O21_8 Eu4_2 1_555 1_555
H24_8 O21_8 1_555 1_555
H25_8 O21_8 1_555 1_555
O24_8 Eu4_2 1_555 1_555
H26_8 O24_8 1_555 1_555
H27_8 O24_8 1_555 1_555
C35_8 C9_8 1_555 1_555
C37_8 C41_8 1_555 1_555
C41_8 C3_8 1_555 1_555
Eu5_4 O4_8 1_555 1_555
O7_8 C29_8 1_555 1_555
C8_8 C10_8 1_555 1_555
C8_8 C41_8 1_555 1_555
C12_8 C27_8 1_555 1_555
O10_8 C27_8 1_555 1_555
C13_8 C24_8 1_555 1_555
C13_8 C34_8 1_555 1_555
C17_8 C18_8 1_555 1_555
C18_8 C24_8 1_555 1_555
C23_8 O13_8 1_555 1_555
C25_8 C33_8 1_555 1_555

#END
