
###############################################################################
#
# This file contains modified crystal structure data generated from the
# MOF subset of the Cambridge Structural Database (CSD) v543 
# hosted by the Cambridge Crystallographic Data Centre (CCDC).
#
# This work is licensed under the Creative Commons
# Attribution-NonCommercial-ShareAlike 4.0 International License.
# To view a copy of this license, visit
# http://creativecommons.org/licenses/by-nc-sa/4.0/
# or send a letter to
# Creative Commons, PO Box 1866, Mountain View, CA 94042, USA.
#
# CIF created using the CSD Python API on 29 September 2022
# The structure has been converted into the P1 space group
# The structure has a 3D framework
# The original CSD entry IPUGUY is in the monoclinic crystal system
# The framework has been calculated to contain at least 10.0% void space
# The void calculation uses a probe of radius 1.32A, grid spacing 0.4
#
###############################################################################

data_IPUGUY
_chemical_formula_moiety         '(C368 H248 Gd24 O198)n'
_symmetry_cell_setting           triclinic
_symmetry_space_group_name_H-M   'P 1'
_symmetry_Int_Tables_number      1
_space_group_name_Hall           'P 1'
loop_
_symmetry_equiv_pos_site_id
_symmetry_equiv_pos_as_xyz
1 x,y,z
_cell_length_a                   31.737(3)
_cell_length_b                   13.7773(12)
_cell_length_c                   30.233(3)
_cell_angle_alpha                90
_cell_angle_beta                 100.051(2)
_cell_angle_gamma                90
_cell_volume                     13016.5
loop_
_atom_site_label
_atom_site_type_symbol
_atom_site_fract_x
_atom_site_fract_y
_atom_site_fract_z
Gd6 Gd 0.54749(2) 0.01543(3) 0.05571(2)
O15 O 0.56534(16) 0.8543(4) 0.03373(15)
O1 O 0.14740(16) 0.2057(4) 0.49188(15)
O2 O 0.48142(16) 0.0295(4) 0.57419(15)
Gd1 Gd 0.39636(2) 0.37707(3) 0.56049(2)
Gd2 Gd 0.45251(2) 0.01543(3) 0.44429(2)
Gd3 Gd 0.36797(2) 0.41632(3) 0.68623(2)
C2 C 0.4590(3) 0.5721(5) 0.7829(2)
C3 C 0.2434(2) 0.2656(5) 0.5709(2)
H2 H 0.234616 0.324485 0.581341
O3 O 0.57942(16) 0.4506(3) 0.85939(15)
O4 O 0.34992(16) 0.3226(3) 0.60845(15)
O5 O 0.43511(16) 0.0812(3) 0.87562(14)
C4 C 0.7552(2) 0.7354(6) 0.9335(3)
O6 O 0.40520(18) 0.2615(4) 0.68913(17)
O7 O 0.30247(17) 0.3271(4) 0.65332(16)
O8 O 0.15891(17) 0.3247(4) 0.54236(17)
C5 C 0.4245(2) 0.0214(5) 0.8018(2)
O9 O 0.66626(16) 0.5265(3) 0.86755(16)
C6 C 0.3400(2) 0.1029(5) 0.5922(2)
C7 C 0.3134(3) 0.2967(5) 0.6181(2)
O10 O 0.43010(16) 0.0342(4) 0.51349(14)
O11 O 0.42224(16) 0.1827(3) 0.44602(15)
H3 H 0.424106 0.140968 0.467005
H4 H 0.428386 0.154968 0.422885
C8 C 0.6194(2) 0.7369(5) 0.9278(2)
O12 O 0.36269(19) 0.2746(4) 0.73829(18)
O13 O 0.40138(17) 0.5697(4) 0.71977(17)
C9 C 0.6022(2) 0.7821(5) 0.9617(3)
H5 H 0.620454 0.805713 0.986820
C10 C 0.2699(2) 0.0925(5) 0.5406(2)
H6 H 0.278501 0.033587 0.530116
O14 O 0.50561(16) 0.8864(4) 0.98756(15)
C11 C 0.2152(2) 0.2137(5) 0.5402(2)
C12 C 0.5198(2) 0.5610(5) 0.8435(2)
C13 C 0.3919(2) 0.0577(5) 0.6582(2)
C14 C 0.3694(2) 0.0772(5) 0.5651(2)
H7 H 0.361609 0.081185 0.534024
C15 C 0.2978(2) 0.1429(5) 0.5722(2)
O16 O 0.64723(17) 0.5126(4) 0.93547(16)
C16 C 0.4349(2) 0.0073(5) 0.8506(2)
C17 C 0.1710(2) 0.2509(6) 0.5240(2)
C18 C 0.5168(2) 0.6603(5) 0.8512(2)
C19 C 0.2844(2) 0.2327(5) 0.5869(2)
C20 C 0.5471(2) 0.7064(5) 0.8895(2)
C21 C 0.4271(3) 0.5219(6) 0.7475(2)
C22 C 0.5908(3) 0.6992(5) 0.8920(2)
H8 H 0.601444 0.668021 0.869004
C23 C 0.6883(3) 0.6485(5) 0.9202(2)
C24 C 0.3518(2) 0.0919(5) 0.6386(2)
H9 H 0.332161 0.107826 0.656963
C25 C 0.5309(2) 0.7551(5) 0.9218(2)
H10 H 0.501540 0.763662 0.919383
C26 C 0.4567(3) 0.6693(6) 0.7892(3)
H11 H 0.436307 0.706576 0.770837
C27 C 0.4045(2) 0.0480(5) 0.7081(2)
C28 C 0.5500(2) 0.4964(5) 0.8736(3)
C29 C 0.4909(2) 0.5166(6) 0.8090(2)
H12 H 0.493002 0.450512 0.803470
C30 C 0.3999(2) 0.1252(5) 0.7366(2)
C31 C 0.4098(2) 0.1095(5) 0.7832(2)
H13 H 0.406449 0.160496 0.802428
C32 C 0.5416(3) 0.8457(5) 0.9960(2)
C33 C 0.5589(2) 0.7923(5) 0.9589(2)
C34 C 0.4212(2) 0.0342(5) 0.6308(2)
H14 H 0.448135 0.010887 0.643418
O18 O 0.4266(2) 0.4304(4) 0.74758(18)
C35 C 0.4857(3) 0.7124(6) 0.8238(3)
H15 H 0.483899 0.778890 0.828371
O19 O 0.45341(19) 0.3063(4) 0.52520(19)
H16 H 0.446298 0.266443 0.503756
H17 H 0.439148 0.358253 0.518876
O20 O 0.54460(18) 0.4872(4) 0.91340(18)
C37 C 0.3885(3) 0.2257(6) 0.7205(2)
C38 C 0.6644(2) 0.5545(6) 0.9072(3)
C39 C 0.2299(2) 0.1265(5) 0.5242(2)
H19 H 0.212150 0.091628 0.502038
O21 O 0.37321(15) 0.0035(4) 0.42557(15)
H21 H 0.362396 0.060916 0.422727
O22 O 0.43546(17) 0.2575(4) 0.60855(17)
H22 H 0.408321 0.253850 0.604145
H23 H 0.442451 0.313410 0.619225
O23 O 0.3154(2) 0.4752(5) 0.7283(2)
H24 H 0.322965 0.431515 0.711447
H25 H 0.335135 0.517635 0.732657
C40 C 0.4431(2) 0.0350(5) 0.5555(2)
O24 O 0.3995(2) 0.4804(5) 0.4942(2)
H26 H 0.378324 0.490288 0.507336
H27 H 0.421914 0.478588 0.514216
O25 O 0.8213(2) 0.8181(5) 0.9390(3)
H28 H 0.804523 0.857829 0.946360
C41 C 0.6663(2) 0.7333(6) 0.9302(2)
O26 O 0.8221(2) 0.6582(5) 0.9314(3)
C42 C 0.4102(2) 0.0455(5) 0.5839(2)
C43 C 0.6904(3) 0.8154(6) 0.9422(3)
H29 H 0.676573 0.871736 0.948749
C44 C 0.7321(3) 0.6506(6) 0.9218(3)
H30 H 0.746219 0.594890 0.915001
C45 C 0.7342(3) 0.8176(7) 0.9450(3)
H31 H 0.749597 0.873506 0.954469
C46 C 0.8028(3) 0.7304(7) 0.9348(3)
O27 O 0.35260(16) 0.2943(4) 0.50812(15)
Gd4 Gd 0.60364(2) 0.37707(3) 0.93951(2)
Gd5 Gd 0.10364(2) 0.12293(3) 0.43951(2)
Gd9 Gd 0.45251(2) 0.98457(3) 0.94429(2)
Gd10 Gd 0.63203(2) 0.41632(3) 0.81377(2)
O29 O 0.42058(16) 0.4506(3) 0.64061(15)
O31 O 0.33374(16) 0.5265(3) 0.63245(16)
O33 O 0.50561(16) 0.1136(4) 0.48756(15)
O35 O 0.35277(17) 0.5126(4) 0.56453(16)
O36 O 0.44434(16) 0.0752(4) 0.36682(14)
O37 O 0.45540(18) 0.4872(4) 0.58660(18)
C1 C 0.4297(3) 0.9456(6) 0.7718(2)
H1 H 0.440217 0.885813 0.782972
O17 O 0.44434(16) 0.9248(4) 0.86682(14)
C36 C 0.4194(3) 0.9593(6) 0.7264(2)
H18 H 0.422385 0.907920 0.707299
H20 H 0.365755 0.978050 0.399403
O28 O 0.51858(16) 0.9705(4) 0.42581(15)
Gd7 Gd 0.54749(2) 0.98457(3) 0.55571(2)
O30 O 0.43511(16) 0.9188(3) 0.37562(14)
O32 O 0.49439(16) 0.8864(4) 0.51244(15)
O34 O 0.43466(16) 0.8543(4) 0.46627(15)
O1_2 O 0.85260(16) 0.2057(4) 0.00812(15)
O11_2 O 0.57776(16) 0.1827(3) 0.05398(15)
H3_2 H 0.575894 0.140968 0.032995
H4_2 H 0.571614 0.154968 0.077115
O21_2 O 0.62679(15) 0.0035(4) 0.07443(15)
H21_2 H 0.637604 0.060916 0.077273
O24_2 O 0.6005(2) 0.4804(5) 0.0058(2)
Gd5_2 Gd 0.89636(2) 0.12293(3) 0.06049(2)
O33_2 O 0.49439(16) 0.1136(4) 0.01244(15)
O36_2 O 0.55566(16) 0.0752(4) 0.13318(14)
O2_2 O 0.51858(16) 0.0295(4) 0.92581(15)
C2_2 C 0.5410(3) 0.5721(5) 0.7171(2)
C3_2 C 0.7566(2) 0.2656(5) 0.9291(2)
H2_2 H 0.765384 0.324485 0.918659
O4_2 O 0.65008(16) 0.3226(3) 0.89155(15)
O5_2 O 0.56489(16) 0.0812(3) 0.62438(14)
C4_2 C 0.2448(2) 0.7354(6) 0.5665(3)
O6_2 O 0.59480(18) 0.2615(4) 0.81087(17)
O7_2 O 0.69753(17) 0.3271(4) 0.84668(16)
O8_2 O 0.84109(17) 0.3247(4) 0.95764(17)
C5_2 C 0.5755(2) 0.0214(5) 0.6982(2)
C6_2 C 0.6600(2) 0.1029(5) 0.9078(2)
C7_2 C 0.6866(3) 0.2967(5) 0.8819(2)
O10_2 O 0.56990(16) 0.0342(4) 0.98651(14)
C8_2 C 0.3806(2) 0.7369(5) 0.5722(2)
O12_2 O 0.63731(19) 0.2746(4) 0.76171(18)
O13_2 O 0.59862(17) 0.5697(4) 0.78023(17)
C9_2 C 0.3978(2) 0.7821(5) 0.5383(3)
H5_2 H 0.379546 0.805713 0.513180
C10_2 C 0.7301(2) 0.0925(5) 0.9594(2)
H6_2 H 0.721499 0.033587 0.969884
C11_2 C 0.7848(2) 0.2137(5) 0.9598(2)
C12_2 C 0.4802(2) 0.5610(5) 0.6565(2)
C13_2 C 0.6081(2) 0.0577(5) 0.8418(2)
C14_2 C 0.6306(2) 0.0772(5) 0.9349(2)
H7_2 H 0.638391 0.081185 0.965976
C15_2 C 0.7022(2) 0.1429(5) 0.9278(2)
C16_2 C 0.5651(2) 0.0073(5) 0.6494(2)
C17_2 C 0.8290(2) 0.2509(6) 0.9760(2)
C18_2 C 0.4832(2) 0.6603(5) 0.6488(2)
C19_2 C 0.7156(2) 0.2327(5) 0.9131(2)
C20_2 C 0.4529(2) 0.7064(5) 0.6105(2)
C21_2 C 0.5729(3) 0.5219(6) 0.7525(2)
C22_2 C 0.4092(3) 0.6992(5) 0.6080(2)
H8_2 H 0.398556 0.668021 0.630996
C23_2 C 0.3117(3) 0.6485(5) 0.5798(2)
C24_2 C 0.6482(2) 0.0919(5) 0.8614(2)
H9_2 H 0.667839 0.107826 0.843037
C25_2 C 0.4691(2) 0.7551(5) 0.5782(2)
H10_2 H 0.498460 0.763662 0.580617
C26_2 C 0.5433(3) 0.6693(6) 0.7108(3)
H11_2 H 0.563693 0.706576 0.729163
C27_2 C 0.5955(2) 0.0480(5) 0.7919(2)
C28_2 C 0.4500(2) 0.4964(5) 0.6264(3)
C29_2 C 0.5091(2) 0.5166(6) 0.6910(2)
H12_2 H 0.506998 0.450512 0.696530
C30_2 C 0.6001(2) 0.1252(5) 0.7634(2)
C31_2 C 0.5902(2) 0.1095(5) 0.7168(2)
H13_2 H 0.593551 0.160496 0.697572
C32_2 C 0.4584(3) 0.8457(5) 0.5040(2)
C33_2 C 0.4411(2) 0.7923(5) 0.5411(2)
C34_2 C 0.5788(2) 0.0342(5) 0.8692(2)
H14_2 H 0.551865 0.010887 0.856582
O18_2 O 0.5734(2) 0.4304(4) 0.75242(18)
C35_2 C 0.5143(3) 0.7124(6) 0.6762(3)
H15_2 H 0.516101 0.778890 0.671629
O19_2 O 0.54659(19) 0.3063(4) 0.97480(19)
H16_2 H 0.553702 0.266443 0.996244
H17_2 H 0.560852 0.358253 0.981124
C37_2 C 0.6115(3) 0.2257(6) 0.7795(2)
C38_2 C 0.3356(2) 0.5545(6) 0.5928(3)
C39_2 C 0.7701(2) 0.1265(5) 0.9758(2)
H19_2 H 0.787850 0.091628 0.997962
O22_2 O 0.56454(17) 0.2575(4) 0.89145(17)
H22_2 H 0.591679 0.253850 0.895855
H23_2 H 0.557549 0.313410 0.880775
O23_2 O 0.6846(2) 0.4752(5) 0.7717(2)
H24_2 H 0.677035 0.431515 0.788553
H25_2 H 0.664865 0.517635 0.767343
C40_2 C 0.5569(2) 0.0350(5) 0.9445(2)
H26_2 H 0.621676 0.490288 0.992664
H27_2 H 0.578086 0.478588 0.985784
O25_2 O 0.1787(2) 0.8181(5) 0.5610(3)
H28_2 H 0.195477 0.857829 0.553640
C41_2 C 0.3337(2) 0.7333(6) 0.5698(2)
O26_2 O 0.1779(2) 0.6582(5) 0.5686(3)
C42_2 C 0.5898(2) 0.0455(5) 0.9161(2)
C43_2 C 0.3096(3) 0.8154(6) 0.5578(3)
H29_2 H 0.323427 0.871736 0.551251
C44_2 C 0.2679(3) 0.6506(6) 0.5782(3)
H30_2 H 0.253781 0.594890 0.584999
C45_2 C 0.2658(3) 0.8176(7) 0.5550(3)
H31_2 H 0.250403 0.873506 0.545531
C46_2 C 0.1972(3) 0.7304(7) 0.5652(3)
O27_2 O 0.64740(16) 0.2943(4) 0.99188(15)
H20_2 H 0.634245 0.978050 0.100597
O28_2 O 0.48142(16) 0.9705(4) 0.07419(15)
O30_2 O 0.56489(16) 0.9188(3) 0.12438(14)
C1_2 C 0.5703(3) 0.9456(6) 0.7282(2)
H1_2 H 0.559783 0.885813 0.717028
O17_2 O 0.55566(16) 0.9248(4) 0.63318(14)
C36_2 C 0.5806(3) 0.9593(6) 0.7736(2)
H18_2 H 0.577615 0.907920 0.792701
O15_2 O 0.06534(16) 0.3543(4) 0.03373(15)
Gd6_2 Gd 0.04749(2) 0.51543(3) 0.05571(2)
C4_3 C 0.2552(2) 0.2354(6) 0.9335(3)
O9_2 O 0.16626(16) 0.0265(3) 0.86755(16)
C8_3 C 0.1194(2) 0.2369(5) 0.9278(2)
C9_3 C 0.1022(2) 0.2821(5) 0.9617(3)
H5_3 H 0.120454 0.305713 0.986820
O14_2 O 0.00561(16) 0.3864(4) 0.98756(15)
C12_3 C 0.0198(2) 0.0610(5) 0.8435(2)
O16_2 O 0.14723(17) 0.0126(4) 0.93547(16)
C18_3 C 0.0168(2) 0.1603(5) 0.8512(2)
C20_3 C 0.0471(2) 0.2064(5) 0.8895(2)
C22_3 C 0.0908(3) 0.1992(5) 0.8920(2)
H8_3 H 0.101444 0.168021 0.869004
C23_3 C 0.1883(3) 0.1485(5) 0.9202(2)
C25_3 C 0.0309(2) 0.2551(5) 0.9218(2)
H10_3 H 0.001540 0.263662 0.919383
C32_3 C 0.0416(3) 0.3457(5) 0.9960(2)
C33_3 C 0.0589(2) 0.2923(5) 0.9589(2)
C38_3 C 0.1644(2) 0.0545(6) 0.9072(3)
O25_3 O 0.3213(2) 0.3181(5) 0.9390(3)
H28_3 H 0.304523 0.357829 0.946360
C41_3 C 0.1663(2) 0.2333(6) 0.9302(2)
O26_3 O 0.3221(2) 0.1582(5) 0.9314(3)
C43_3 C 0.1904(3) 0.3154(6) 0.9422(3)
H29_3 H 0.176573 0.371736 0.948749
C44_3 C 0.2321(3) 0.1506(6) 0.9218(3)
H30_3 H 0.246219 0.094890 0.915001
C45_3 C 0.2342(3) 0.3176(7) 0.9450(3)
H31_3 H 0.249597 0.373506 0.954469
C46_3 C 0.3028(3) 0.2304(7) 0.9348(3)
O3_2 O 0.07942(16) 0.9506(3) 0.85939(15)
C28_3 C 0.0500(2) 0.9964(5) 0.8736(3)
O20_2 O 0.04460(18) 0.9872(4) 0.91340(18)
O28_3 O 0.01858(16) 0.4705(4) 0.42581(15)
Gd4_2 Gd 0.10364(2) 0.87707(3) 0.93951(2)
Gd7_2 Gd 0.04749(2) 0.48457(3) 0.55571(2)
Gd10_2 Gd 0.13203(2) 0.91632(3) 0.81377(2)
O33_3 O 0.00561(16) 0.6136(4) 0.48756(15)
C2_3 C 0.9590(3) 0.0721(5) 0.7829(2)
O13_3 O 0.90138(17) 0.0697(4) 0.71977(17)
C21_3 C 0.9271(3) 0.0219(6) 0.7475(2)
C26_3 C 0.9567(3) 0.1693(6) 0.7892(3)
H11_3 H 0.936307 0.206576 0.770837
C29_3 C 0.9909(2) 0.0166(6) 0.8090(2)
C35_3 C 0.9857(3) 0.2124(6) 0.8238(3)
H15_3 H 0.983899 0.278890 0.828371
H25_3 H 0.835135 0.017635 0.732657
Gd9_2 Gd 0.95251(2) 0.48457(3) 0.94429(2)
O31_2 O 0.83374(16) 0.0265(3) 0.63245(16)
O35_2 O 0.85277(17) 0.0126(4) 0.56453(16)
C1_3 C 0.9297(3) 0.4456(6) 0.7718(2)
H1_3 H 0.940217 0.385813 0.782972
O1_3 O 0.64740(16) 0.7057(4) 0.49188(15)
O2_3 O 0.98142(16) 0.5295(4) 0.57419(15)
Gd1_2 Gd 0.89636(2) 0.87707(3) 0.56049(2)
Gd2_2 Gd 0.95251(2) 0.51543(3) 0.44429(2)
Gd3_2 Gd 0.86797(2) 0.91632(3) 0.68623(2)
C3_3 C 0.7434(2) 0.7656(5) 0.5709(2)
H2_3 H 0.734616 0.824485 0.581341
O4_3 O 0.84992(16) 0.8226(3) 0.60845(15)
O5_3 O 0.93511(16) 0.5812(3) 0.87562(14)
O6_3 O 0.90520(18) 0.7615(4) 0.68913(17)
O7_3 O 0.80247(17) 0.8271(4) 0.65332(16)
O8_3 O 0.65891(17) 0.8247(4) 0.54236(17)
C5_3 C 0.9245(2) 0.5214(5) 0.8018(2)
C6_3 C 0.8400(2) 0.6029(5) 0.5922(2)
C7_3 C 0.8134(3) 0.7967(5) 0.6181(2)
O10_3 O 0.93010(16) 0.5342(4) 0.51349(14)
O11_3 O 0.92224(16) 0.6827(3) 0.44602(15)
H3_3 H 0.924106 0.640968 0.467005
H4_3 H 0.928386 0.654968 0.422885
O12_3 O 0.86269(19) 0.7746(4) 0.73829(18)
C10_3 C 0.7699(2) 0.5925(5) 0.5406(2)
H6_3 H 0.778501 0.533587 0.530116
C11_3 C 0.7152(2) 0.7137(5) 0.5402(2)
C13_3 C 0.8919(2) 0.5577(5) 0.6582(2)
C14_3 C 0.8694(2) 0.5772(5) 0.5651(2)
H7_3 H 0.861609 0.581185 0.534024
C15_3 C 0.7978(2) 0.6429(5) 0.5722(2)
C16_3 C 0.9349(2) 0.5073(5) 0.8506(2)
O17_3 O 0.94434(16) 0.4248(4) 0.86682(14)
C17_3 C 0.6710(2) 0.7509(6) 0.5240(2)
C19_3 C 0.7844(2) 0.7327(5) 0.5869(2)
C24_3 C 0.8518(2) 0.5919(5) 0.6386(2)
H9_3 H 0.832161 0.607826 0.656963
C27_3 C 0.9045(2) 0.5480(5) 0.7081(2)
H12_3 H 0.993002 0.950512 0.803470
C30_3 C 0.8999(2) 0.6252(5) 0.7366(2)
C31_3 C 0.9098(2) 0.6095(5) 0.7832(2)
H13_3 H 0.906449 0.660496 0.802428
C34_3 C 0.9212(2) 0.5342(5) 0.6308(2)
H14_3 H 0.948135 0.510887 0.643418
O18_3 O 0.9266(2) 0.9304(4) 0.74758(18)
O19_3 O 0.95341(19) 0.8063(4) 0.52520(19)
H16_3 H 0.946298 0.766443 0.503756
H17_3 H 0.939148 0.858253 0.518876
C36_3 C 0.9194(3) 0.4593(6) 0.7264(2)
H18_3 H 0.922385 0.407920 0.707299
C37_3 C 0.8885(3) 0.7257(6) 0.7205(2)
C39_3 C 0.7299(2) 0.6265(5) 0.5242(2)
H19_3 H 0.712150 0.591628 0.502038
O21_3 O 0.87321(15) 0.5035(4) 0.42557(15)
H20_3 H 0.865755 0.478050 0.399403
H21_3 H 0.862396 0.560916 0.422727
O22_3 O 0.93546(17) 0.7575(4) 0.60855(17)
H22_3 H 0.908321 0.753850 0.604145
H23_3 H 0.942451 0.813410 0.619225
O23_3 O 0.8154(2) 0.9752(5) 0.7283(2)
H24_3 H 0.822965 0.931515 0.711447
C40_3 C 0.9431(2) 0.5350(5) 0.5555(2)
O24_3 O 0.8995(2) 0.9804(5) 0.4942(2)
H26_3 H 0.878324 0.990288 0.507336
H27_3 H 0.921914 0.978588 0.514216
C42_3 C 0.9102(2) 0.5455(5) 0.5839(2)
O27_3 O 0.85260(16) 0.7943(4) 0.50812(15)
Gd5_3 Gd 0.60364(2) 0.62293(3) 0.43951(2)
O29_2 O 0.92058(16) 0.9506(3) 0.64061(15)
O30_3 O 0.93511(16) 0.4188(3) 0.37562(14)
O32_2 O 0.99439(16) 0.3864(4) 0.51244(15)
O34_2 O 0.93466(16) 0.3543(4) 0.46627(15)
O36_3 O 0.94434(16) 0.5752(4) 0.36682(14)
O37_2 O 0.95540(18) 0.9872(4) 0.58660(18)
C2_4 C 0.0410(3) 0.0721(5) 0.7171(2)
O13_4 O 0.09862(17) 0.0697(4) 0.78023(17)
C21_4 C 0.0729(3) 0.0219(6) 0.7525(2)
C26_4 C 0.0433(3) 0.1693(6) 0.7108(3)
H11_4 H 0.063693 0.206576 0.729163
C29_4 C 0.0091(2) 0.0166(6) 0.6910(2)
C35_4 C 0.0143(3) 0.2124(6) 0.6762(3)
H15_4 H 0.016101 0.278890 0.671629
H25_4 H 0.164865 0.017635 0.767343
O1_4 O 0.35260(16) 0.7057(4) 0.00812(15)
O11_4 O 0.07776(16) 0.6827(3) 0.05398(15)
H3_4 H 0.075894 0.640968 0.032995
H4_4 H 0.071614 0.654968 0.077115
O21_4 O 0.12679(15) 0.5035(4) 0.07443(15)
H20_4 H 0.134245 0.478050 0.100597
H21_4 H 0.137604 0.560916 0.077273
O24_4 O 0.1005(2) 0.9804(5) 0.0058(2)
Gd5_4 Gd 0.39636(2) 0.62293(3) 0.06049(2)
O30_4 O 0.06489(16) 0.4188(3) 0.12438(14)
O36_4 O 0.05566(16) 0.5752(4) 0.13318(14)
C1_4 C 0.0703(3) 0.4456(6) 0.7282(2)
H1_4 H 0.059783 0.385813 0.717028
O2_4 O 0.01858(16) 0.5295(4) 0.92581(15)
C3_4 C 0.2566(2) 0.7656(5) 0.9291(2)
H2_4 H 0.265384 0.824485 0.918659
O4_4 O 0.15008(16) 0.8226(3) 0.89155(15)
O5_4 O 0.06489(16) 0.5812(3) 0.62438(14)
O6_4 O 0.09480(18) 0.7615(4) 0.81087(17)
O7_4 O 0.19753(17) 0.8271(4) 0.84668(16)
O8_4 O 0.34109(17) 0.8247(4) 0.95764(17)
C5_4 C 0.0755(2) 0.5214(5) 0.6982(2)
C6_4 C 0.1600(2) 0.6029(5) 0.9078(2)
C7_4 C 0.1866(3) 0.7967(5) 0.8819(2)
O10_4 O 0.06990(16) 0.5342(4) 0.98651(14)
O12_4 O 0.13731(19) 0.7746(4) 0.76171(18)
C10_4 C 0.2301(2) 0.5925(5) 0.9594(2)
H6_4 H 0.221499 0.533587 0.969884
C11_4 C 0.2848(2) 0.7137(5) 0.9598(2)
C13_4 C 0.1081(2) 0.5577(5) 0.8418(2)
C14_4 C 0.1306(2) 0.5772(5) 0.9349(2)
H7_4 H 0.138391 0.581185 0.965976
C15_4 C 0.2022(2) 0.6429(5) 0.9278(2)
C16_4 C 0.0651(2) 0.5073(5) 0.6494(2)
O17_4 O 0.05566(16) 0.4248(4) 0.63318(14)
C17_4 C 0.3290(2) 0.7509(6) 0.9760(2)
C19_4 C 0.2156(2) 0.7327(5) 0.9131(2)
C24_4 C 0.1482(2) 0.5919(5) 0.8614(2)
H9_4 H 0.167839 0.607826 0.843037
C27_4 C 0.0955(2) 0.5480(5) 0.7919(2)
H12_4 H 0.006998 0.950512 0.696530
C30_4 C 0.1001(2) 0.6252(5) 0.7634(2)
C31_4 C 0.0902(2) 0.6095(5) 0.7168(2)
H13_4 H 0.093551 0.660496 0.697572
C34_4 C 0.0788(2) 0.5342(5) 0.8692(2)
H14_4 H 0.051865 0.510887 0.856582
O18_4 O 0.0734(2) 0.9304(4) 0.75242(18)
O19_4 O 0.04659(19) 0.8063(4) 0.97480(19)
H16_4 H 0.053702 0.766443 0.996244
H17_4 H 0.060852 0.858253 0.981124
C36_4 C 0.0806(3) 0.4593(6) 0.7736(2)
H18_4 H 0.077615 0.407920 0.792701
C37_4 C 0.1115(3) 0.7257(6) 0.7795(2)
C39_4 C 0.2701(2) 0.6265(5) 0.9758(2)
H19_4 H 0.287850 0.591628 0.997962
O22_4 O 0.06454(17) 0.7575(4) 0.89145(17)
H22_4 H 0.091679 0.753850 0.895855
H23_4 H 0.057549 0.813410 0.880775
O23_4 O 0.1846(2) 0.9752(5) 0.7717(2)
H24_4 H 0.177035 0.931515 0.788553
C40_4 C 0.0569(2) 0.5350(5) 0.9445(2)
H26_4 H 0.121676 0.990288 0.992664
H27_4 H 0.078086 0.978588 0.985784
C42_4 C 0.0898(2) 0.5455(5) 0.9161(2)
O27_4 O 0.14740(16) 0.7943(4) 0.99188(15)
C4_4 C 0.7448(2) 0.2354(6) 0.5665(3)
C8_4 C 0.8806(2) 0.2369(5) 0.5722(2)
C9_4 C 0.8978(2) 0.2821(5) 0.5383(3)
H5_4 H 0.879546 0.305713 0.513180
C12_4 C 0.9802(2) 0.0610(5) 0.6565(2)
C18_4 C 0.9832(2) 0.1603(5) 0.6488(2)
C20_4 C 0.9529(2) 0.2064(5) 0.6105(2)
C22_4 C 0.9092(3) 0.1992(5) 0.6080(2)
H8_4 H 0.898556 0.168021 0.630996
C23_4 C 0.8117(3) 0.1485(5) 0.5798(2)
C25_4 C 0.9691(2) 0.2551(5) 0.5782(2)
H10_4 H 0.998460 0.263662 0.580617
C32_4 C 0.9584(3) 0.3457(5) 0.5040(2)
C33_4 C 0.9411(2) 0.2923(5) 0.5411(2)
C38_4 C 0.8356(2) 0.0545(6) 0.5928(3)
O25_4 O 0.6787(2) 0.3181(5) 0.5610(3)
H28_4 H 0.695477 0.357829 0.553640
C41_4 C 0.8337(2) 0.2333(6) 0.5698(2)
O26_4 O 0.6779(2) 0.1582(5) 0.5686(3)
C43_4 C 0.8096(3) 0.3154(6) 0.5578(3)
H29_4 H 0.823427 0.371736 0.551251
C44_4 C 0.7679(3) 0.1506(6) 0.5782(3)
H30_4 H 0.753781 0.094890 0.584999
C45_4 C 0.7658(3) 0.3176(7) 0.5550(3)
H31_4 H 0.750403 0.373506 0.545531
C46_4 C 0.6972(3) 0.2304(7) 0.5652(3)
O28_4 O 0.98142(16) 0.4705(4) 0.07419(15)
O33_4 O 0.99439(16) 0.6136(4) 0.01244(15)
C28_4 C 0.9500(2) 0.9964(5) 0.6264(3)
C1_5 C 0.5703(3) 0.0544(6) 0.2282(2)
H1_5 H 0.559783 0.114187 0.217028
C36_5 C 0.5806(3) 0.0407(6) 0.2736(2)
H18_5 H 0.577615 0.092080 0.292701
H20_5 H 0.634245 0.021950 0.600597
O34_3 O 0.56534(16) 0.1457(4) 0.53373(15)
Gd3_3 Gd 0.63203(2) 0.58368(3) 0.31377(2)
C2_5 C 0.5410(3) 0.4279(5) 0.2171(2)
C3_5 C 0.7566(2) 0.7344(5) 0.4291(2)
H2_5 H 0.765384 0.675515 0.418659
O3_3 O 0.42058(16) 0.5494(3) 0.14061(15)
O4_5 O 0.65008(16) 0.6774(3) 0.39155(15)
C4_5 C 0.2448(2) 0.2646(6) 0.0665(3)
O6_5 O 0.59480(18) 0.7385(4) 0.31087(17)
O7_5 O 0.69753(17) 0.6729(4) 0.34668(16)
O8_5 O 0.84109(17) 0.6753(4) 0.45764(17)
C5_5 C 0.5755(2) 0.9786(5) 0.1982(2)
O9_3 O 0.33374(16) 0.4735(3) 0.13245(16)
C6_5 C 0.6600(2) 0.8971(5) 0.4078(2)
C7_5 C 0.6866(3) 0.7033(5) 0.3819(2)
O10_5 O 0.56990(16) 0.9658(4) 0.48651(14)
O11_5 O 0.57776(16) 0.8173(3) 0.55398(15)
H3_5 H 0.575894 0.859032 0.532995
H4_5 H 0.571614 0.845032 0.577115
C8_5 C 0.3806(2) 0.2631(5) 0.0722(2)
O12_5 O 0.63731(19) 0.7254(4) 0.26171(18)
O13_5 O 0.59862(17) 0.4303(4) 0.28023(17)
C9_5 C 0.3978(2) 0.2179(5) 0.0383(3)
H5_5 H 0.379546 0.194287 0.013180
C10_5 C 0.7301(2) 0.9075(5) 0.4594(2)
H6_5 H 0.721499 0.966413 0.469884
C11_5 C 0.7848(2) 0.7863(5) 0.4598(2)
C12_5 C 0.4802(2) 0.4390(5) 0.1565(2)
C13_5 C 0.6081(2) 0.9423(5) 0.3418(2)
C14_5 C 0.6306(2) 0.9228(5) 0.4349(2)
H7_5 H 0.638391 0.918815 0.465976
C15_5 C 0.7022(2) 0.8571(5) 0.4278(2)
O16_3 O 0.35277(17) 0.4874(4) 0.06453(16)
C16_5 C 0.5651(2) 0.9927(5) 0.1494(2)
C17_5 C 0.8290(2) 0.7491(6) 0.4760(2)
C18_5 C 0.4832(2) 0.3397(5) 0.1488(2)
C19_5 C 0.7156(2) 0.7673(5) 0.4131(2)
C20_5 C 0.4529(2) 0.2936(5) 0.1105(2)
C21_5 C 0.5729(3) 0.4781(6) 0.2525(2)
C22_5 C 0.4092(3) 0.3008(5) 0.1080(2)
H8_5 H 0.398556 0.331979 0.130996
C23_5 C 0.3117(3) 0.3515(5) 0.0798(2)
C24_5 C 0.6482(2) 0.9081(5) 0.3614(2)
H9_5 H 0.667839 0.892174 0.343037
C25_5 C 0.4691(2) 0.2449(5) 0.0782(2)
H10_5 H 0.498460 0.236338 0.080617
C26_5 C 0.5433(3) 0.3307(6) 0.2108(3)
H11_5 H 0.563693 0.293424 0.229163
C27_5 C 0.5955(2) 0.9520(5) 0.2919(2)
C28_5 C 0.4500(2) 0.5036(5) 0.1264(3)
C29_5 C 0.5091(2) 0.4834(6) 0.1910(2)
H12_5 H 0.506998 0.549488 0.196530
C30_5 C 0.6001(2) 0.8748(5) 0.2634(2)
C31_5 C 0.5902(2) 0.8905(5) 0.2168(2)
H13_5 H 0.593551 0.839504 0.197572
C32_5 C 0.4584(3) 0.1543(5) 0.0040(2)
C33_5 C 0.4411(2) 0.2077(5) 0.0411(2)
C34_5 C 0.5788(2) 0.9658(5) 0.3692(2)
H14_5 H 0.551865 0.989113 0.356582
O18_5 O 0.5734(2) 0.5696(4) 0.25242(18)
C35_5 C 0.5143(3) 0.2876(6) 0.1762(3)
H15_5 H 0.516101 0.221110 0.171629
O19_5 O 0.54659(19) 0.6937(4) 0.47480(19)
H16_5 H 0.553702 0.733557 0.496244
H17_5 H 0.560852 0.641747 0.481124
O20_3 O 0.45540(18) 0.5128(4) 0.08660(18)
C37_5 C 0.6115(3) 0.7743(6) 0.2795(2)
C38_5 C 0.3356(2) 0.4455(6) 0.0928(3)
C39_5 C 0.7701(2) 0.8735(5) 0.4758(2)
H19_5 H 0.787850 0.908372 0.497962
O21_5 O 0.62679(15) 0.9965(4) 0.57443(15)
H21_5 H 0.637604 0.939084 0.577273
O22_5 O 0.56454(17) 0.7425(4) 0.39145(17)
H22_5 H 0.591679 0.746150 0.395855
H23_5 H 0.557549 0.686590 0.380775
O23_5 O 0.6846(2) 0.5248(5) 0.2717(2)
H24_5 H 0.677035 0.568485 0.288553
H25_5 H 0.664865 0.482365 0.267343
C40_5 C 0.5569(2) 0.9650(5) 0.4445(2)
O24_5 O 0.6005(2) 0.5196(5) 0.5058(2)
H26_5 H 0.621676 0.509712 0.492664
H27_5 H 0.578086 0.521412 0.485784
O25_5 O 0.1787(2) 0.1819(5) 0.0610(3)
H28_5 H 0.195477 0.142171 0.053640
C41_5 C 0.3337(2) 0.2667(6) 0.0698(2)
O26_5 O 0.1779(2) 0.3418(5) 0.0686(3)
C42_5 C 0.5898(2) 0.9545(5) 0.4161(2)
C43_5 C 0.3096(3) 0.1846(6) 0.0578(3)
H29_5 H 0.323427 0.128264 0.051251
C44_5 C 0.2679(3) 0.3494(6) 0.0782(3)
H30_5 H 0.253781 0.405110 0.084999
C45_5 C 0.2658(3) 0.1824(7) 0.0550(3)
H31_5 H 0.250403 0.126494 0.045531
C46_5 C 0.1972(3) 0.2696(7) 0.0652(3)
Gd10_3 Gd 0.36797(2) 0.58368(3) 0.18623(2)
O29_3 O 0.57942(16) 0.5494(3) 0.35939(15)
O31_3 O 0.66626(16) 0.4735(3) 0.36755(16)
O35_3 O 0.64723(17) 0.4874(4) 0.43547(16)
O37_3 O 0.54460(18) 0.5128(4) 0.41340(18)
O15_3 O 0.43466(16) 0.1457(4) 0.96627(15)
C1_6 C 0.4297(3) 0.0544(6) 0.2718(2)
H1_6 H 0.440217 0.114187 0.282972
C36_6 C 0.4194(3) 0.0407(6) 0.2264(2)
H18_6 H 0.422385 0.092080 0.207299
H20_6 H 0.365755 0.021950 0.899403
C2_6 C 0.4590(3) 0.4279(5) 0.2829(2)
C3_6 C 0.2434(2) 0.7344(5) 0.0709(2)
H2_6 H 0.234616 0.675515 0.081341
O4_6 O 0.34992(16) 0.6774(3) 0.10845(15)
C4_6 C 0.7552(2) 0.2646(6) 0.4335(3)
O6_6 O 0.40520(18) 0.7385(4) 0.18913(17)
O7_6 O 0.30247(17) 0.6729(4) 0.15332(16)
O8_6 O 0.15891(17) 0.6753(4) 0.04236(17)
C5_6 C 0.4245(2) 0.9786(5) 0.3018(2)
C6_6 C 0.3400(2) 0.8971(5) 0.0922(2)
C7_6 C 0.3134(3) 0.7033(5) 0.1181(2)
O10_6 O 0.43010(16) 0.9658(4) 0.01349(14)
C8_6 C 0.6194(2) 0.2631(5) 0.4278(2)
O12_6 O 0.36269(19) 0.7254(4) 0.23829(18)
O13_6 O 0.40138(17) 0.4303(4) 0.21977(17)
C9_6 C 0.6022(2) 0.2179(5) 0.4617(3)
H5_6 H 0.620454 0.194287 0.486820
C10_6 C 0.2699(2) 0.9075(5) 0.0406(2)
H6_6 H 0.278501 0.966413 0.030116
C11_6 C 0.2152(2) 0.7863(5) 0.0402(2)
C12_6 C 0.5198(2) 0.4390(5) 0.3435(2)
C13_6 C 0.3919(2) 0.9423(5) 0.1582(2)
C14_6 C 0.3694(2) 0.9228(5) 0.0651(2)
H7_6 H 0.361609 0.918815 0.034024
C15_6 C 0.2978(2) 0.8571(5) 0.0722(2)
C16_6 C 0.4349(2) 0.9927(5) 0.3506(2)
C17_6 C 0.1710(2) 0.7491(6) 0.0240(2)
C18_6 C 0.5168(2) 0.3397(5) 0.3512(2)
C19_6 C 0.2844(2) 0.7673(5) 0.0869(2)
C20_6 C 0.5471(2) 0.2936(5) 0.3895(2)
C21_6 C 0.4271(3) 0.4781(6) 0.2475(2)
C22_6 C 0.5908(3) 0.3008(5) 0.3920(2)
H8_6 H 0.601444 0.331979 0.369004
C23_6 C 0.6883(3) 0.3515(5) 0.4202(2)
C24_6 C 0.3518(2) 0.9081(5) 0.1386(2)
H9_6 H 0.332161 0.892174 0.156963
C25_6 C 0.5309(2) 0.2449(5) 0.4218(2)
H10_6 H 0.501540 0.236338 0.419383
C26_6 C 0.4567(3) 0.3307(6) 0.2892(3)
H11_6 H 0.436307 0.293424 0.270837
C27_6 C 0.4045(2) 0.9520(5) 0.2081(2)
C28_6 C 0.5500(2) 0.5036(5) 0.3736(3)
C29_6 C 0.4909(2) 0.4834(6) 0.3090(2)
H12_6 H 0.493002 0.549488 0.303470
C30_6 C 0.3999(2) 0.8748(5) 0.2366(2)
C31_6 C 0.4098(2) 0.8905(5) 0.2832(2)
H13_6 H 0.406449 0.839504 0.302428
C32_6 C 0.5416(3) 0.1543(5) 0.4960(2)
C33_6 C 0.5589(2) 0.2077(5) 0.4589(2)
C34_6 C 0.4212(2) 0.9658(5) 0.1308(2)
H14_6 H 0.448135 0.989113 0.143418
O18_6 O 0.4266(2) 0.5696(4) 0.24758(18)
C35_6 C 0.4857(3) 0.2876(6) 0.3238(3)
H15_6 H 0.483899 0.221110 0.328371
O19_6 O 0.45341(19) 0.6937(4) 0.02520(19)
H16_6 H 0.446298 0.733557 0.003756
H17_6 H 0.439148 0.641747 0.018876
C37_6 C 0.3885(3) 0.7743(6) 0.2205(2)
C38_6 C 0.6644(2) 0.4455(6) 0.4072(3)
C39_6 C 0.2299(2) 0.8735(5) 0.0242(2)
H19_6 H 0.212150 0.908372 0.002038
O22_6 O 0.43546(17) 0.7425(4) 0.10855(17)
H22_6 H 0.408321 0.746150 0.104145
H23_6 H 0.442451 0.686590 0.119225
O23_6 O 0.3154(2) 0.5248(5) 0.2283(2)
H24_6 H 0.322965 0.568485 0.211447
H25_6 H 0.335135 0.482365 0.232657
C40_6 C 0.4431(2) 0.9650(5) 0.0555(2)
H26_6 H 0.378324 0.509712 0.007336
H27_6 H 0.421914 0.521412 0.014216
O25_6 O 0.8213(2) 0.1819(5) 0.4390(3)
H28_6 H 0.804523 0.142171 0.446360
C41_6 C 0.6663(2) 0.2667(6) 0.4302(2)
O26_6 O 0.8221(2) 0.3418(5) 0.4314(3)
C42_6 C 0.4102(2) 0.9545(5) 0.0839(2)
C43_6 C 0.6904(3) 0.1846(6) 0.4422(3)
H29_6 H 0.676573 0.128264 0.448749
C44_6 C 0.7321(3) 0.3494(6) 0.4218(3)
H30_6 H 0.746219 0.405110 0.415001
C45_6 C 0.7342(3) 0.1824(7) 0.4450(3)
H31_6 H 0.749597 0.126494 0.454469
C46_6 C 0.8028(3) 0.2696(7) 0.4348(3)
O11_6 O 0.42224(16) 0.8173(3) 0.94602(15)
H3_6 H 0.424106 0.859032 0.967005
H4_6 H 0.428386 0.845032 0.922885
O21_6 O 0.37321(15) 0.9965(4) 0.92557(15)
H21_6 H 0.362396 0.939084 0.922727
O24_6 O 0.3995(2) 0.5196(5) 0.9942(2)
C1_7 C 0.0703(3) 0.5544(6) 0.2282(2)
H1_7 H 0.059783 0.614187 0.217028
Gd3_4 Gd 0.13203(2) 0.08368(3) 0.31377(2)
C3_7 C 0.2566(2) 0.2344(5) 0.4291(2)
H2_7 H 0.265384 0.175515 0.418659
O4_7 O 0.15008(16) 0.1774(3) 0.39155(15)
O6_7 O 0.09480(18) 0.2385(4) 0.31087(17)
O7_7 O 0.19753(17) 0.1729(4) 0.34668(16)
O8_7 O 0.34109(17) 0.1753(4) 0.45764(17)
C5_7 C 0.0755(2) 0.4786(5) 0.1982(2)
C6_7 C 0.1600(2) 0.3971(5) 0.4078(2)
C7_7 C 0.1866(3) 0.2033(5) 0.3819(2)
O10_7 O 0.06990(16) 0.4658(4) 0.48651(14)
O11_7 O 0.07776(16) 0.3173(3) 0.55398(15)
H3_7 H 0.075894 0.359032 0.532995
H4_7 H 0.071614 0.345032 0.577115
O12_7 O 0.13731(19) 0.2254(4) 0.26171(18)
C10_7 C 0.2301(2) 0.4075(5) 0.4594(2)
H6_7 H 0.221499 0.466413 0.469884
C11_7 C 0.2848(2) 0.2863(5) 0.4598(2)
C13_7 C 0.1081(2) 0.4423(5) 0.3418(2)
C14_7 C 0.1306(2) 0.4228(5) 0.4349(2)
H7_7 H 0.138391 0.418815 0.465976
C15_7 C 0.2022(2) 0.3571(5) 0.4278(2)
C16_7 C 0.0651(2) 0.4927(5) 0.1494(2)
C17_7 C 0.3290(2) 0.2491(6) 0.4760(2)
C19_7 C 0.2156(2) 0.2673(5) 0.4131(2)
C24_7 C 0.1482(2) 0.4081(5) 0.3614(2)
H9_7 H 0.167839 0.392174 0.343037
C27_7 C 0.0955(2) 0.4520(5) 0.2919(2)
H12_7 H 0.006998 0.049488 0.196530
C30_7 C 0.1001(2) 0.3748(5) 0.2634(2)
C31_7 C 0.0902(2) 0.3905(5) 0.2168(2)
H13_7 H 0.093551 0.339504 0.197572
C34_7 C 0.0788(2) 0.4658(5) 0.3692(2)
H14_7 H 0.051865 0.489113 0.356582
O18_7 O 0.0734(2) 0.0696(4) 0.25242(18)
O19_7 O 0.04659(19) 0.1937(4) 0.47480(19)
H16_7 H 0.053702 0.233557 0.496244
H17_7 H 0.060852 0.141747 0.481124
C36_7 C 0.0806(3) 0.5407(6) 0.2736(2)
H18_7 H 0.077615 0.592080 0.292701
C37_7 C 0.1115(3) 0.2743(6) 0.2795(2)
C39_7 C 0.2701(2) 0.3735(5) 0.4758(2)
H19_7 H 0.287850 0.408372 0.497962
O21_7 O 0.12679(15) 0.4965(4) 0.57443(15)
H20_7 H 0.134245 0.521950 0.600597
H21_7 H 0.137604 0.439084 0.577273
O22_7 O 0.06454(17) 0.2425(4) 0.39145(17)
H22_7 H 0.091679 0.246150 0.395855
H23_7 H 0.057549 0.186590 0.380775
O23_7 O 0.1846(2) 0.0248(5) 0.2717(2)
H24_7 H 0.177035 0.068485 0.288553
C40_7 C 0.0569(2) 0.4650(5) 0.4445(2)
O24_7 O 0.1005(2) 0.0196(5) 0.5058(2)
H26_7 H 0.121676 0.009712 0.492664
H27_7 H 0.078086 0.021412 0.485784
C42_7 C 0.0898(2) 0.4545(5) 0.4161(2)
O29_4 O 0.07942(16) 0.0494(3) 0.35939(15)
O34_4 O 0.06534(16) 0.6457(4) 0.53373(15)
O37_4 O 0.04460(18) 0.0128(4) 0.41340(18)
C2_7 C 0.0410(3) 0.9279(5) 0.2171(2)
O13_7 O 0.09862(17) 0.9303(4) 0.28023(17)
C21_7 C 0.0729(3) 0.9781(6) 0.2525(2)
C26_7 C 0.0433(3) 0.8307(6) 0.2108(3)
H11_7 H 0.063693 0.793424 0.229163
C29_7 C 0.0091(2) 0.9834(6) 0.1910(2)
C35_7 C 0.0143(3) 0.7876(6) 0.1762(3)
H15_7 H 0.016101 0.721110 0.171629
H25_7 H 0.164865 0.982365 0.267343
O31_4 O 0.16626(16) 0.9735(3) 0.36755(16)
O35_4 O 0.14723(17) 0.9874(4) 0.43547(16)
O3_4 O 0.92058(16) 0.0494(3) 0.14061(15)
C28_7 C 0.9500(2) 0.0036(5) 0.1264(3)
O20_4 O 0.95540(18) 0.0128(4) 0.08660(18)
Gd10_4 Gd 0.86797(2) 0.08368(3) 0.18623(2)
C4_7 C 0.7448(2) 0.7646(6) 0.0665(3)
O9_4 O 0.83374(16) 0.9735(3) 0.13245(16)
C8_7 C 0.8806(2) 0.7631(5) 0.0722(2)
C9_7 C 0.8978(2) 0.7179(5) 0.0383(3)
H5_7 H 0.879546 0.694287 0.013180
C12_7 C 0.9802(2) 0.9390(5) 0.1565(2)
O16_4 O 0.85277(17) 0.9874(4) 0.06453(16)
C18_7 C 0.9832(2) 0.8397(5) 0.1488(2)
C20_7 C 0.9529(2) 0.7936(5) 0.1105(2)
C22_7 C 0.9092(3) 0.8008(5) 0.1080(2)
H8_7 H 0.898556 0.831979 0.130996
C23_7 C 0.8117(3) 0.8515(5) 0.0798(2)
C25_7 C 0.9691(2) 0.7449(5) 0.0782(2)
H10_7 H 0.998460 0.736338 0.080617
C32_7 C 0.9584(3) 0.6543(5) 0.0040(2)
C33_7 C 0.9411(2) 0.7077(5) 0.0411(2)
C38_7 C 0.8356(2) 0.9455(6) 0.0928(3)
O25_7 O 0.6787(2) 0.6819(5) 0.0610(3)
H28_7 H 0.695477 0.642171 0.053640
C41_7 C 0.8337(2) 0.7667(6) 0.0698(2)
O26_7 O 0.6779(2) 0.8418(5) 0.0686(3)
C43_7 C 0.8096(3) 0.6846(6) 0.0578(3)
H29_7 H 0.823427 0.628264 0.051251
C44_7 C 0.7679(3) 0.8494(6) 0.0782(3)
H30_7 H 0.753781 0.905110 0.084999
C45_7 C 0.7658(3) 0.6824(7) 0.0550(3)
H31_7 H 0.750403 0.626494 0.045531
C46_7 C 0.6972(3) 0.7696(7) 0.0652(3)
O15_4 O 0.93466(16) 0.6457(4) 0.96627(15)
C28_8 C 0.0500(2) 0.0036(5) 0.3736(3)
C4_8 C 0.2552(2) 0.7646(6) 0.4335(3)
C8_8 C 0.1194(2) 0.7631(5) 0.4278(2)
C9_8 C 0.1022(2) 0.7179(5) 0.4617(3)
H5_8 H 0.120454 0.694287 0.486820
C12_8 C 0.0198(2) 0.9390(5) 0.3435(2)
C18_8 C 0.0168(2) 0.8397(5) 0.3512(2)
C20_8 C 0.0471(2) 0.7936(5) 0.3895(2)
C22_8 C 0.0908(3) 0.8008(5) 0.3920(2)
H8_8 H 0.101444 0.831979 0.369004
C23_8 C 0.1883(3) 0.8515(5) 0.4202(2)
C25_8 C 0.0309(2) 0.7449(5) 0.4218(2)
H10_8 H 0.001540 0.736338 0.419383
C32_8 C 0.0416(3) 0.6543(5) 0.4960(2)
C33_8 C 0.0589(2) 0.7077(5) 0.4589(2)
C38_8 C 0.1644(2) 0.9455(6) 0.4072(3)
O25_8 O 0.3213(2) 0.6819(5) 0.4390(3)
H28_8 H 0.304523 0.642171 0.446360
C41_8 C 0.1663(2) 0.7667(6) 0.4302(2)
O26_8 O 0.3221(2) 0.8418(5) 0.4314(3)
C43_8 C 0.1904(3) 0.6846(6) 0.4422(3)
H29_8 H 0.176573 0.628264 0.448749
C44_8 C 0.2321(3) 0.8494(6) 0.4218(3)
H30_8 H 0.246219 0.905110 0.415001
C45_8 C 0.2342(3) 0.6824(7) 0.4450(3)
H31_8 H 0.249597 0.626494 0.454469
C46_8 C 0.3028(3) 0.7696(7) 0.4348(3)
C1_8 C 0.9297(3) 0.5544(6) 0.2718(2)
H1_8 H 0.940217 0.614187 0.282972
C3_8 C 0.7434(2) 0.2344(5) 0.0709(2)
H2_8 H 0.734616 0.175515 0.081341
O4_8 O 0.84992(16) 0.1774(3) 0.10845(15)
O6_8 O 0.90520(18) 0.2385(4) 0.18913(17)
O7_8 O 0.80247(17) 0.1729(4) 0.15332(16)
O8_8 O 0.65891(17) 0.1753(4) 0.04236(17)
C5_8 C 0.9245(2) 0.4786(5) 0.3018(2)
C6_8 C 0.8400(2) 0.3971(5) 0.0922(2)
C7_8 C 0.8134(3) 0.2033(5) 0.1181(2)
O10_8 O 0.93010(16) 0.4658(4) 0.01349(14)
O12_8 O 0.86269(19) 0.2254(4) 0.23829(18)
C10_8 C 0.7699(2) 0.4075(5) 0.0406(2)
H6_8 H 0.778501 0.466413 0.030116
C11_8 C 0.7152(2) 0.2863(5) 0.0402(2)
C13_8 C 0.8919(2) 0.4423(5) 0.1582(2)
C14_8 C 0.8694(2) 0.4228(5) 0.0651(2)
H7_8 H 0.861609 0.418815 0.034024
C15_8 C 0.7978(2) 0.3571(5) 0.0722(2)
C16_8 C 0.9349(2) 0.4927(5) 0.3506(2)
C17_8 C 0.6710(2) 0.2491(6) 0.0240(2)
C19_8 C 0.7844(2) 0.2673(5) 0.0869(2)
C24_8 C 0.8518(2) 0.4081(5) 0.1386(2)
H9_8 H 0.832161 0.392174 0.156963
C27_8 C 0.9045(2) 0.4520(5) 0.2081(2)
H12_8 H 0.993002 0.049488 0.303470
C30_8 C 0.8999(2) 0.3748(5) 0.2366(2)
C31_8 C 0.9098(2) 0.3905(5) 0.2832(2)
H13_8 H 0.906449 0.339504 0.302428
C34_8 C 0.9212(2) 0.4658(5) 0.1308(2)
H14_8 H 0.948135 0.489113 0.143418
O18_8 O 0.9266(2) 0.0696(4) 0.24758(18)
O19_8 O 0.95341(19) 0.1937(4) 0.02520(19)
H16_8 H 0.946298 0.233557 0.003756
H17_8 H 0.939148 0.141747 0.018876
C36_8 C 0.9194(3) 0.5407(6) 0.2264(2)
H18_8 H 0.922385 0.592080 0.207299
C37_8 C 0.8885(3) 0.2743(6) 0.2205(2)
C39_8 C 0.7299(2) 0.3735(5) 0.0242(2)
H19_8 H 0.712150 0.408372 0.002038
O22_8 O 0.93546(17) 0.2425(4) 0.10855(17)
H22_8 H 0.908321 0.246150 0.104145
H23_8 H 0.942451 0.186590 0.119225
O23_8 O 0.8154(2) 0.0248(5) 0.2283(2)
H24_8 H 0.822965 0.068485 0.211447
C40_8 C 0.9431(2) 0.4650(5) 0.0555(2)
H26_8 H 0.878324 0.009712 0.007336
H27_8 H 0.921914 0.021412 0.014216
C42_8 C 0.9102(2) 0.4545(5) 0.0839(2)
O11_8 O 0.92224(16) 0.3173(3) 0.94602(15)
H3_8 H 0.924106 0.359032 0.967005
H4_8 H 0.928386 0.345032 0.922885
O21_8 O 0.87321(15) 0.4965(4) 0.92557(15)
H20_8 H 0.865755 0.521950 0.899403
H21_8 H 0.862396 0.439084 0.922727
O24_8 O 0.8995(2) 0.0196(5) 0.9942(2)
C2_8 C 0.9590(3) 0.9279(5) 0.2829(2)
O13_8 O 0.90138(17) 0.9303(4) 0.21977(17)
C21_8 C 0.9271(3) 0.9781(6) 0.2475(2)
C26_8 C 0.9567(3) 0.8307(6) 0.2892(3)
H11_8 H 0.936307 0.793424 0.270837
C29_8 C 0.9909(2) 0.9834(6) 0.3090(2)
C35_8 C 0.9857(3) 0.7876(6) 0.3238(3)
H15_8 H 0.983899 0.721110 0.328371
H25_8 H 0.835135 0.982365 0.232657
loop_
_geom_bond_atom_site_label_1
_geom_bond_atom_site_label_2
_geom_bond_site_symmetry_1
_geom_bond_site_symmetry_2
O1 C17 1_555 1_555
O2 C40 1_555 1_555
Gd1 O4 1_555 1_555
Gd2 O10 1_555 1_555
Gd3 O4 1_555 1_555
C2 C21 1_555 1_555
C3 H2 1_555 1_555
O3 C28 1_555 1_555
O4 C7 1_555 1_555
O5 C16 1_555 1_555
C4 C44 1_555 1_555
O6 Gd3 1_555 1_555
O7 Gd3 1_555 1_555
O8 C17 1_555 1_555
O9 C38 1_555 1_555
C6 C14 1_555 1_555
C7 O7 1_555 1_555
O10 C40 1_555 1_555
O11 Gd2 1_555 1_555
H3 O11 1_555 1_555
H4 O11 1_555 1_555
C8 C9 1_555 1_555
O12 Gd3 1_555 1_555
O13 Gd3 1_555 1_555
C9 H5 1_555 1_555
C10 H6 1_555 1_555
O14 C32 1_555 1_555
C11 C3 1_555 1_555
C12 C18 1_555 1_555
C13 C24 1_555 1_555
C14 H7 1_555 1_555
C15 C6 1_555 1_555
O16 C38 1_555 1_555
C16 C5 1_555 1_555
C17 C11 1_555 1_555
C18 C20 1_555 1_555
C19 C3 1_555 1_555
C20 C22 1_555 1_555
C21 O13 1_555 1_555
C22 C8 1_555 1_555
H8 C22 1_555 1_555
C23 C38 1_555 1_555
C24 C6 1_555 1_555
H9 C24 1_555 1_555
C25 C20 1_555 1_555
H10 C25 1_555 1_555
C26 C2 1_555 1_555
H11 C26 1_555 1_555
C27 C13 1_555 1_555
C28 C12 1_555 1_555
C29 C2 1_555 1_555
H12 C29 1_555 1_555
C30 C27 1_555 1_555
C31 C5 1_555 1_555
H13 C31 1_555 1_555
C32 C33 1_555 1_555
C33 C9 1_555 1_555
C34 C13 1_555 1_555
H14 C34 1_555 1_555
O18 Gd3 1_555 1_555
C35 C18 1_555 1_555
H15 C35 1_555 1_555
O19 Gd1 1_555 1_555
H16 O19 1_555 1_555
H17 O19 1_555 1_555
O20 C28 1_555 1_555
C37 O6 1_555 1_555
C39 C10 1_555 1_555
H19 C39 1_555 1_555
O21 Gd2 1_555 1_555
H21 O21 1_555 1_555
O22 Gd1 1_555 1_555
H22 O22 1_555 1_555
H23 O22 1_555 1_555
O23 Gd3 1_555 1_555
H24 O23 1_555 1_555
H25 O23 1_555 1_555
C40 C42 1_555 1_555
O24 Gd1 1_555 1_555
H26 O24 1_555 1_555
H27 O24 1_555 1_555
O25 H28 1_555 1_555
C41 C8 1_555 1_555
O26 C46 1_555 1_555
C42 C14 1_555 1_555
C43 C41 1_555 1_555
H29 C43 1_555 1_555
C44 C23 1_555 1_555
H30 C44 1_555 1_555
C45 C4 1_555 1_555
H31 C45 1_555 1_555
C46 C4 1_555 1_555
O27 Gd1 1_555 1_555
Gd4 O3 1_555 1_555
Gd5 O1 1_555 1_555
Gd9 O14 1_555 1_555
Gd10 O3 1_555 1_555
O29 Gd1 1_555 1_555
O31 Gd3 1_555 1_555
O33 Gd2 1_555 1_555
O35 Gd1 1_555 1_555
O36 Gd2 1_555 1_555
O37 Gd1 1_555 1_555
Gd3 O29 1_555 1_555
O9 Gd10 1_555 1_555
C7 C19 1_555 1_555
O12 C37 1_555 1_555
C10 C15 1_555 1_555
C11 C39 1_555 1_555
C12 C29 1_555 1_555
C15 C19 1_555 1_555
O16 Gd4 1_555 1_555
C21 O18 1_555 1_555
C23 C41 1_555 1_555
C25 C33 1_555 1_555
C26 C35 1_555 1_555
C30 C31 1_555 1_555
C30 C37 1_555 1_555
C34 C42 1_555 1_555
O20 Gd4 1_555 1_555
O25 C46 1_555 1_555
C43 C45 1_555 1_555
C1 H1 1_555 1_555
C36 C1 1_555 1_555
H18 C36 1_555 1_555
O17 Gd9 1_555 1_555
Gd7 O32 1_555 1_555
O11_2 Gd6 1_555 1_555
H3_2 O11_2 1_555 1_555
H4_2 O11_2 1_555 1_555
O21_2 Gd6 1_555 1_555
H21_2 O21_2 1_555 1_555
Gd5_2 O1_2 1_555 1_555
O33_2 Gd6 1_555 1_555
O36_2 Gd6 1_555 1_555
O2_2 C40_2 1_555 1_555
Gd4 O4_2 1_555 1_555
Gd10 O4_2 1_555 1_555
C2_2 C21_2 1_555 1_555
C3_2 H2_2 1_555 1_555
O29 C28_2 1_555 1_555
O4_2 C7_2 1_555 1_555
O5_2 C16_2 1_555 1_555
C4_2 C44_2 1_555 1_555
O6_2 Gd10 1_555 1_555
O7_2 Gd10 1_555 1_555
O8_2 C17_2 1_555 1_555
O31 C38_2 1_555 1_555
C6_2 C14_2 1_555 1_555
C7_2 O7_2 1_555 1_555
O10_2 C40_2 1_555 1_555
C8_2 C9_2 1_555 1_555
O12_2 Gd10 1_555 1_555
O13_2 Gd10 1_555 1_555
C9_2 H5_2 1_555 1_555
C10_2 H6_2 1_555 1_555
O32 C32_2 1_555 1_555
C11_2 C3_2 1_555 1_555
C12_2 C18_2 1_555 1_555
C13_2 C24_2 1_555 1_555
C14_2 H7_2 1_555 1_555
C15_2 C6_2 1_555 1_555
O34 C32_2 1_555 1_555
O35 C38_2 1_555 1_555
C16_2 C5_2 1_555 1_555
C17_2 C11_2 1_555 1_555
C18_2 C20_2 1_555 1_555
C19_2 C3_2 1_555 1_555
C20_2 C22_2 1_555 1_555
C21_2 O13_2 1_555 1_555
C22_2 C8_2 1_555 1_555
H8_2 C22_2 1_555 1_555
C23_2 C38_2 1_555 1_555
C24_2 C6_2 1_555 1_555
H9_2 C24_2 1_555 1_555
C25_2 C20_2 1_555 1_555
H10_2 C25_2 1_555 1_555
C26_2 C2_2 1_555 1_555
H11_2 C26_2 1_555 1_555
C27_2 C13_2 1_555 1_555
C28_2 C12_2 1_555 1_555
C29_2 C2_2 1_555 1_555
H12_2 C29_2 1_555 1_555
C30_2 C27_2 1_555 1_555
C31_2 C5_2 1_555 1_555
H13_2 C31_2 1_555 1_555
C32_2 C33_2 1_555 1_555
C33_2 C9_2 1_555 1_555
C34_2 C13_2 1_555 1_555
H14_2 C34_2 1_555 1_555
O18_2 Gd10 1_555 1_555
C35_2 C18_2 1_555 1_555
H15_2 C35_2 1_555 1_555
O19_2 Gd4 1_555 1_555
H16_2 O19_2 1_555 1_555
H17_2 O19_2 1_555 1_555
O37 C28_2 1_555 1_555
C37_2 O6_2 1_555 1_555
C39_2 C10_2 1_555 1_555
H19_2 C39_2 1_555 1_555
O22_2 Gd4 1_555 1_555
H22_2 O22_2 1_555 1_555
H23_2 O22_2 1_555 1_555
O23_2 Gd10 1_555 1_555
H24_2 O23_2 1_555 1_555
H25_2 O23_2 1_555 1_555
C40_2 C42_2 1_555 1_555
O25_2 H28_2 1_555 1_555
C41_2 C8_2 1_555 1_555
O26_2 C46_2 1_555 1_555
C42_2 C14_2 1_555 1_555
C43_2 C41_2 1_555 1_555
H29_2 C43_2 1_555 1_555
C44_2 C23_2 1_555 1_555
H30_2 C44_2 1_555 1_555
C45_2 C4_2 1_555 1_555
H31_2 C45_2 1_555 1_555
C46_2 C4_2 1_555 1_555
O27_2 Gd4 1_555 1_555
C7_2 C19_2 1_555 1_555
O12_2 C37_2 1_555 1_555
C10_2 C15_2 1_555 1_555
C11_2 C39_2 1_555 1_555
C12_2 C29_2 1_555 1_555
C15_2 C19_2 1_555 1_555
C21_2 O18_2 1_555 1_555
C23_2 C41_2 1_555 1_555
C25_2 C33_2 1_555 1_555
C26_2 C35_2 1_555 1_555
C30_2 C31_2 1_555 1_555
C30_2 C37_2 1_555 1_555
C34_2 C42_2 1_555 1_555
O25_2 C46_2 1_555 1_555
C43_2 C45_2 1_555 1_555
C1_2 H1_2 1_555 1_555
C36_2 C1_2 1_555 1_555
H18_2 C36_2 1_555 1_555
O17_2 Gd7 1_555 1_555
O15_2 Gd6_2 1_555 1_555
C4_3 C44_3 1_555 1_555
O9_2 C38_3 1_555 1_555
C8_3 C9_3 1_555 1_555
C9_3 H5_3 1_555 1_555
O14_2 C32_3 1_555 1_555
C12_3 C18_3 1_555 1_555
O16_2 C38_3 1_555 1_555
C18_3 C20_3 1_555 1_555
C20_3 C22_3 1_555 1_555
C22_3 C8_3 1_555 1_555
H8_3 C22_3 1_555 1_555
C23_3 C38_3 1_555 1_555
C25_3 C20_3 1_555 1_555
H10_3 C25_3 1_555 1_555
C32_3 C33_3 1_555 1_555
C33_3 C9_3 1_555 1_555
O25_3 H28_3 1_555 1_555
C41_3 C8_3 1_555 1_555
O26_3 C46_3 1_555 1_555
C43_3 C41_3 1_555 1_555
H29_3 C43_3 1_555 1_555
C44_3 C23_3 1_555 1_555
H30_3 C44_3 1_555 1_555
C45_3 C4_3 1_555 1_555
H31_3 C45_3 1_555 1_555
C46_3 C4_3 1_555 1_555
C23_3 C41_3 1_555 1_555
C25_3 C33_3 1_555 1_555
O25_3 C46_3 1_555 1_555
C43_3 C45_3 1_555 1_555
O3_2 C28_3 1_555 1_555
O20_2 C28_3 1_555 1_555
Gd4_2 O3_2 1_555 1_555
Gd10_2 O3_2 1_555 1_555
O20_2 Gd4_2 1_555 1_555
Gd7_2 O33_3 1_555 1_555
C2_3 C21_3 1_555 1_555
C21_3 O13_3 1_555 1_555
C26_3 C2_3 1_555 1_555
H11_3 C26_3 1_555 1_555
C29_3 C2_3 1_555 1_555
H15_3 C35_3 1_555 1_555
C26_3 C35_3 1_555 1_555
C1_3 H1_3 1_555 1_555
O1_3 C17_3 1_555 1_555
O2_3 C40_3 1_555 1_555
Gd1_2 O4_3 1_555 1_555
Gd2_2 O10_3 1_555 1_555
Gd3_2 O4_3 1_555 1_555
C3_3 H2_3 1_555 1_555
O4_3 C7_3 1_555 1_555
O5_3 C16_3 1_555 1_555
O6_3 Gd3_2 1_555 1_555
O7_3 Gd3_2 1_555 1_555
O8_3 C17_3 1_555 1_555
C5_3 C1_3 1_555 1_555
C6_3 C14_3 1_555 1_555
C7_3 O7_3 1_555 1_555
O10_3 C40_3 1_555 1_555
O11_3 Gd2_2 1_555 1_555
H3_3 O11_3 1_555 1_555
H4_3 O11_3 1_555 1_555
O12_3 Gd3_2 1_555 1_555
C10_3 H6_3 1_555 1_555
C11_3 C3_3 1_555 1_555
C13_3 C24_3 1_555 1_555
C14_3 H7_3 1_555 1_555
C15_3 C6_3 1_555 1_555
C16_3 C5_3 1_555 1_555
O17_3 C16_3 1_555 1_555
C17_3 C11_3 1_555 1_555
C19_3 C3_3 1_555 1_555
C24_3 C6_3 1_555 1_555
H9_3 C24_3 1_555 1_555
C27_3 C13_3 1_555 1_555
C30_3 C27_3 1_555 1_555
C31_3 C5_3 1_555 1_555
H13_3 C31_3 1_555 1_555
C34_3 C13_3 1_555 1_555
H14_3 C34_3 1_555 1_555
O18_3 Gd3_2 1_555 1_555
O19_3 Gd1_2 1_555 1_555
H16_3 O19_3 1_555 1_555
H17_3 O19_3 1_555 1_555
C36_3 C1_3 1_555 1_555
H18_3 C36_3 1_555 1_555
C37_3 O6_3 1_555 1_555
C39_3 C10_3 1_555 1_555
H19_3 C39_3 1_555 1_555
O21_3 Gd2_2 1_555 1_555
H20_3 O21_3 1_555 1_555
H21_3 O21_3 1_555 1_555
O22_3 Gd1_2 1_555 1_555
H22_3 O22_3 1_555 1_555
H23_3 O22_3 1_555 1_555
O23_3 Gd3_2 1_555 1_555
H24_3 O23_3 1_555 1_555
C40_3 C42_3 1_555 1_555
O24_3 Gd1_2 1_555 1_555
H26_3 O24_3 1_555 1_555
H27_3 O24_3 1_555 1_555
C42_3 C14_3 1_555 1_555
O27_3 Gd1_2 1_555 1_555
Gd5_3 O1_3 1_555 1_555
Gd9_2 O5_3 1_555 1_555
O29_2 Gd1_2 1_555 1_555
O30_3 Gd2_2 1_555 1_555
O32_2 Gd2_2 1_555 1_555
O34_2 Gd2_2 1_555 1_555
O36_3 Gd2_2 1_555 1_555
O37_2 Gd1_2 1_555 1_555
Gd3_2 O29_2 1_555 1_555
C7_3 C19_3 1_555 1_555
O12_3 C37_3 1_555 1_555
C10_3 C15_3 1_555 1_555
C11_3 C39_3 1_555 1_555
C15_3 C19_3 1_555 1_555
O17_3 Gd9_2 1_555 1_555
C27_3 C36_3 1_555 1_555
C30_3 C31_3 1_555 1_555
C30_3 C37_3 1_555 1_555
C34_3 C42_3 1_555 1_555
C2_4 C21_4 1_555 1_555
C21_4 O13_4 1_555 1_555
C26_4 C2_4 1_555 1_555
H11_4 C26_4 1_555 1_555
C29_4 C2_4 1_555 1_555
H15_4 C35_4 1_555 1_555
C26_4 C35_4 1_555 1_555
O11_4 Gd6_2 1_555 1_555
H3_4 O11_4 1_555 1_555
H4_4 O11_4 1_555 1_555
O21_4 Gd6_2 1_555 1_555
H20_4 O21_4 1_555 1_555
H21_4 O21_4 1_555 1_555
Gd5_4 O1_4 1_555 1_555
O30_4 Gd6_2 1_555 1_555
O36_4 Gd6_2 1_555 1_555
C1_4 H1_4 1_555 1_555
O2_4 C40_4 1_555 1_555
Gd4_2 O4_4 1_555 1_555
Gd10_2 O4_4 1_555 1_555
C3_4 H2_4 1_555 1_555
O4_4 C7_4 1_555 1_555
O5_4 C16_4 1_555 1_555
O6_4 Gd10_2 1_555 1_555
O7_4 Gd10_2 1_555 1_555
O8_4 C17_4 1_555 1_555
C5_4 C1_4 1_555 1_555
C6_4 C14_4 1_555 1_555
C7_4 O7_4 1_555 1_555
O10_4 C40_4 1_555 1_555
O12_4 Gd10_2 1_555 1_555
C10_4 H6_4 1_555 1_555
C11_4 C3_4 1_555 1_555
C13_4 C24_4 1_555 1_555
C14_4 H7_4 1_555 1_555
C15_4 C6_4 1_555 1_555
C16_4 C5_4 1_555 1_555
O17_4 C16_4 1_555 1_555
C17_4 C11_4 1_555 1_555
C19_4 C3_4 1_555 1_555
C24_4 C6_4 1_555 1_555
H9_4 C24_4 1_555 1_555
C27_4 C13_4 1_555 1_555
C30_4 C27_4 1_555 1_555
C31_4 C5_4 1_555 1_555
H13_4 C31_4 1_555 1_555
C34_4 C13_4 1_555 1_555
H14_4 C34_4 1_555 1_555
O18_4 Gd10_2 1_555 1_555
O19_4 Gd4_2 1_555 1_555
H16_4 O19_4 1_555 1_555
H17_4 O19_4 1_555 1_555
C36_4 C1_4 1_555 1_555
H18_4 C36_4 1_555 1_555
C37_4 O6_4 1_555 1_555
C39_4 C10_4 1_555 1_555
H19_4 C39_4 1_555 1_555
O22_4 Gd4_2 1_555 1_555
H22_4 O22_4 1_555 1_555
H23_4 O22_4 1_555 1_555
O23_4 Gd10_2 1_555 1_555
H24_4 O23_4 1_555 1_555
C40_4 C42_4 1_555 1_555
C42_4 C14_4 1_555 1_555
O27_4 Gd4_2 1_555 1_555
Gd7_2 O5_4 1_555 1_555
C7_4 C19_4 1_555 1_555
O12_4 C37_4 1_555 1_555
C10_4 C15_4 1_555 1_555
C11_4 C39_4 1_555 1_555
C15_4 C19_4 1_555 1_555
O17_4 Gd7_2 1_555 1_555
C27_4 C36_4 1_555 1_555
C30_4 C31_4 1_555 1_555
C30_4 C37_4 1_555 1_555
C34_4 C42_4 1_555 1_555
C4_4 C44_4 1_555 1_555
O31_2 C38_4 1_555 1_555
C8_4 C9_4 1_555 1_555
C9_4 H5_4 1_555 1_555
O32_2 C32_4 1_555 1_555
C12_4 C18_4 1_555 1_555
O34_2 C32_4 1_555 1_555
O35_2 C38_4 1_555 1_555
C18_4 C20_4 1_555 1_555
C20_4 C22_4 1_555 1_555
C22_4 C8_4 1_555 1_555
H8_4 C22_4 1_555 1_555
C23_4 C38_4 1_555 1_555
C25_4 C20_4 1_555 1_555
H10_4 C25_4 1_555 1_555
C32_4 C33_4 1_555 1_555
C33_4 C9_4 1_555 1_555
O25_4 H28_4 1_555 1_555
C41_4 C8_4 1_555 1_555
O26_4 C46_4 1_555 1_555
C43_4 C41_4 1_555 1_555
H29_4 C43_4 1_555 1_555
C44_4 C23_4 1_555 1_555
H30_4 C44_4 1_555 1_555
C45_4 C4_4 1_555 1_555
H31_4 C45_4 1_555 1_555
C46_4 C4_4 1_555 1_555
C23_4 C41_4 1_555 1_555
C25_4 C33_4 1_555 1_555
O25_4 C46_4 1_555 1_555
C43_4 C45_4 1_555 1_555
O29_2 C28_4 1_555 1_555
O37_2 C28_4 1_555 1_555
C1_5 H1_5 1_555 1_555
C36_5 C1_5 1_555 1_555
H18_5 C36_5 1_555 1_555
O27_3 C17_5 1_555 1_555
O28 C40_5 1_555 1_555
Gd5_3 O4_5 1_555 1_555
Gd7 O10_5 1_555 1_555
Gd3_3 O4_5 1_555 1_555
C2_5 C21_5 1_555 1_555
C3_5 H2_5 1_555 1_555
O3_3 C28_5 1_555 1_555
O4_5 C7_5 1_555 1_555
O30_2 C16_5 1_555 1_555
C4_5 C44_5 1_555 1_555
O6_5 Gd3_3 1_555 1_555
O7_5 Gd3_3 1_555 1_555
O8_5 C17_5 1_555 1_555
O9_3 C38_5 1_555 1_555
C6_5 C14_5 1_555 1_555
C7_5 O7_5 1_555 1_555
O10_5 C40_5 1_555 1_555
O11_5 Gd7 1_555 1_555
H3_5 O11_5 1_555 1_555
H4_5 O11_5 1_555 1_555
C8_5 C9_5 1_555 1_555
O12_5 Gd3_3 1_555 1_555
O13_5 Gd3_3 1_555 1_555
C9_5 H5_5 1_555 1_555
C10_5 H6_5 1_555 1_555
O33_2 C32_5 1_555 1_555
C11_5 C3_5 1_555 1_555
C12_5 C18_5 1_555 1_555
C13_5 C24_5 1_555 1_555
C14_5 H7_5 1_555 1_555
C15_5 C6_5 1_555 1_555
O16_3 C38_5 1_555 1_555
C16_5 C5_5 1_555 1_555
C17_5 C11_5 1_555 1_555
C18_5 C20_5 1_555 1_555
C19_5 C3_5 1_555 1_555
C20_5 C22_5 1_555 1_555
C21_5 O13_5 1_555 1_555
C22_5 C8_5 1_555 1_555
H8_5 C22_5 1_555 1_555
C23_5 C38_5 1_555 1_555
C24_5 C6_5 1_555 1_555
H9_5 C24_5 1_555 1_555
C25_5 C20_5 1_555 1_555
H10_5 C25_5 1_555 1_555
C26_5 C2_5 1_555 1_555
H11_5 C26_5 1_555 1_555
C27_5 C13_5 1_555 1_555
C28_5 C12_5 1_555 1_555
C29_5 C2_5 1_555 1_555
H12_5 C29_5 1_555 1_555
C30_5 C27_5 1_555 1_555
C31_5 C5_5 1_555 1_555
H13_5 C31_5 1_555 1_555
C32_5 C33_5 1_555 1_555
C33_5 C9_5 1_555 1_555
C34_5 C13_5 1_555 1_555
H14_5 C34_5 1_555 1_555
O18_5 Gd3_3 1_555 1_555
C35_5 C18_5 1_555 1_555
H15_5 C35_5 1_555 1_555
O19_5 Gd5_3 1_555 1_555
H16_5 O19_5 1_555 1_555
H17_5 O19_5 1_555 1_555
O20_3 C28_5 1_555 1_555
C37_5 O6_5 1_555 1_555
C39_5 C10_5 1_555 1_555
H19_5 C39_5 1_555 1_555
O21_5 Gd7 1_555 1_555
H21_5 O21_5 1_555 1_555
O22_5 Gd5_3 1_555 1_555
H22_5 O22_5 1_555 1_555
H23_5 O22_5 1_555 1_555
O23_5 Gd3_3 1_555 1_555
H24_5 O23_5 1_555 1_555
H25_5 O23_5 1_555 1_555
C40_5 C42_5 1_555 1_555
O24_5 Gd5_3 1_555 1_555
H26_5 O24_5 1_555 1_555
H27_5 O24_5 1_555 1_555
O25_5 H28_5 1_555 1_555
C41_5 C8_5 1_555 1_555
O26_5 C46_5 1_555 1_555
C42_5 C14_5 1_555 1_555
C43_5 C41_5 1_555 1_555
H29_5 C43_5 1_555 1_555
C44_5 C23_5 1_555 1_555
H30_5 C44_5 1_555 1_555
C45_5 C4_5 1_555 1_555
H31_5 C45_5 1_555 1_555
C46_5 C4_5 1_555 1_555
Gd5_4 O3_3 1_555 1_555
Gd10_3 O3_3 1_555 1_555
O29_3 Gd5_3 1_555 1_555
O31_3 Gd3_3 1_555 1_555
O35_3 Gd5_3 1_555 1_555
O37_3 Gd5_3 1_555 1_555
Gd3_3 O29_3 1_555 1_555
O9_3 Gd10_3 1_555 1_555
C7_5 C19_5 1_555 1_555
O12_5 C37_5 1_555 1_555
C10_5 C15_5 1_555 1_555
C11_5 C39_5 1_555 1_555
C12_5 C29_5 1_555 1_555
C15_5 C19_5 1_555 1_555
O16_3 Gd5_4 1_555 1_555
C21_5 O18_5 1_555 1_555
C23_5 C41_5 1_555 1_555
C25_5 C33_5 1_555 1_555
C26_5 C35_5 1_555 1_555
C30_5 C31_5 1_555 1_555
C30_5 C37_5 1_555 1_555
C34_5 C42_5 1_555 1_555
O20_3 Gd5_4 1_555 1_555
O25_5 C46_5 1_555 1_555
C43_5 C45_5 1_555 1_555
C1_6 H1_6 1_555 1_555
C36_6 C1_6 1_555 1_555
H18_6 C36_6 1_555 1_555
O28_2 C40_6 1_555 1_555
Gd5_4 O4_6 1_555 1_555
Gd10_3 O4_6 1_555 1_555
C2_6 C21_6 1_555 1_555
C3_6 H2_6 1_555 1_555
O29_3 C28_6 1_555 1_555
O4_6 C7_6 1_555 1_555
O30 C16_6 1_555 1_555
C4_6 C44_6 1_555 1_555
O6_6 Gd10_3 1_555 1_555
O7_6 Gd10_3 1_555 1_555
O8_6 C17_6 1_555 1_555
O31_3 C38_6 1_555 1_555
C6_6 C14_6 1_555 1_555
C7_6 O7_6 1_555 1_555
O10_6 C40_6 1_555 1_555
C8_6 C9_6 1_555 1_555
O12_6 Gd10_3 1_555 1_555
O13_6 Gd10_3 1_555 1_555
C9_6 H5_6 1_555 1_555
C10_6 H6_6 1_555 1_555
O33 C32_6 1_555 1_555
C11_6 C3_6 1_555 1_555
C12_6 C18_6 1_555 1_555
C13_6 C24_6 1_555 1_555
C14_6 H7_6 1_555 1_555
C15_6 C6_6 1_555 1_555
O34_3 C32_6 1_555 1_555
O35_3 C38_6 1_555 1_555
C16_6 C5_6 1_555 1_555
C17_6 C11_6 1_555 1_555
C18_6 C20_6 1_555 1_555
C19_6 C3_6 1_555 1_555
C20_6 C22_6 1_555 1_555
C21_6 O13_6 1_555 1_555
C22_6 C8_6 1_555 1_555
H8_6 C22_6 1_555 1_555
C23_6 C38_6 1_555 1_555
C24_6 C6_6 1_555 1_555
H9_6 C24_6 1_555 1_555
C25_6 C20_6 1_555 1_555
H10_6 C25_6 1_555 1_555
C26_6 C2_6 1_555 1_555
H11_6 C26_6 1_555 1_555
C27_6 C13_6 1_555 1_555
C28_6 C12_6 1_555 1_555
C29_6 C2_6 1_555 1_555
H12_6 C29_6 1_555 1_555
C30_6 C27_6 1_555 1_555
C31_6 C5_6 1_555 1_555
H13_6 C31_6 1_555 1_555
C32_6 C33_6 1_555 1_555
C33_6 C9_6 1_555 1_555
C34_6 C13_6 1_555 1_555
H14_6 C34_6 1_555 1_555
O18_6 Gd10_3 1_555 1_555
C35_6 C18_6 1_555 1_555
H15_6 C35_6 1_555 1_555
O19_6 Gd5_4 1_555 1_555
H16_6 O19_6 1_555 1_555
H17_6 O19_6 1_555 1_555
O37_3 C28_6 1_555 1_555
C37_6 O6_6 1_555 1_555
C39_6 C10_6 1_555 1_555
H19_6 C39_6 1_555 1_555
O22_6 Gd5_4 1_555 1_555
H22_6 O22_6 1_555 1_555
H23_6 O22_6 1_555 1_555
O23_6 Gd10_3 1_555 1_555
H24_6 O23_6 1_555 1_555
H25_6 O23_6 1_555 1_555
C40_6 C42_6 1_555 1_555
O25_6 H28_6 1_555 1_555
C41_6 C8_6 1_555 1_555
O26_6 C46_6 1_555 1_555
C42_6 C14_6 1_555 1_555
C43_6 C41_6 1_555 1_555
H29_6 C43_6 1_555 1_555
C44_6 C23_6 1_555 1_555
H30_6 C44_6 1_555 1_555
C45_6 C4_6 1_555 1_555
H31_6 C45_6 1_555 1_555
C46_6 C4_6 1_555 1_555
C7_6 C19_6 1_555 1_555
O12_6 C37_6 1_555 1_555
C10_6 C15_6 1_555 1_555
C11_6 C39_6 1_555 1_555
C12_6 C29_6 1_555 1_555
C15_6 C19_6 1_555 1_555
C21_6 O18_6 1_555 1_555
C23_6 C41_6 1_555 1_555
C25_6 C33_6 1_555 1_555
C26_6 C35_6 1_555 1_555
C30_6 C31_6 1_555 1_555
C30_6 C37_6 1_555 1_555
C34_6 C42_6 1_555 1_555
O25_6 C46_6 1_555 1_555
C43_6 C45_6 1_555 1_555
O11_6 Gd9 1_555 1_555
H3_6 O11_6 1_555 1_555
H4_6 O11_6 1_555 1_555
O21_6 Gd9 1_555 1_555
H21_6 O21_6 1_555 1_555
C1_7 H1_7 1_555 1_555
O27 C17_7 1_555 1_555
O28_3 C40_7 1_555 1_555
Gd5 O4_7 1_555 1_555
Gd7_2 O10_7 1_555 1_555
Gd3_4 O4_7 1_555 1_555
C3_7 H2_7 1_555 1_555
O4_7 C7_7 1_555 1_555
O30_4 C16_7 1_555 1_555
O6_7 Gd3_4 1_555 1_555
O7_7 Gd3_4 1_555 1_555
O8_7 C17_7 1_555 1_555
C5_7 C1_7 1_555 1_555
C6_7 C14_7 1_555 1_555
C7_7 O7_7 1_555 1_555
O10_7 C40_7 1_555 1_555
O11_7 Gd7_2 1_555 1_555
H3_7 O11_7 1_555 1_555
H4_7 O11_7 1_555 1_555
O12_7 Gd3_4 1_555 1_555
C10_7 H6_7 1_555 1_555
C11_7 C3_7 1_555 1_555
C13_7 C24_7 1_555 1_555
C14_7 H7_7 1_555 1_555
C15_7 C6_7 1_555 1_555
C16_7 C5_7 1_555 1_555
O36_4 C16_7 1_555 1_555
C17_7 C11_7 1_555 1_555
C19_7 C3_7 1_555 1_555
C24_7 C6_7 1_555 1_555
H9_7 C24_7 1_555 1_555
C27_7 C13_7 1_555 1_555
C30_7 C27_7 1_555 1_555
C31_7 C5_7 1_555 1_555
H13_7 C31_7 1_555 1_555
C34_7 C13_7 1_555 1_555
H14_7 C34_7 1_555 1_555
O18_7 Gd3_4 1_555 1_555
O19_7 Gd5 1_555 1_555
H16_7 O19_7 1_555 1_555
H17_7 O19_7 1_555 1_555
C36_7 C1_7 1_555 1_555
H18_7 C36_7 1_555 1_555
C37_7 O6_7 1_555 1_555
C39_7 C10_7 1_555 1_555
H19_7 C39_7 1_555 1_555
O21_7 Gd7_2 1_555 1_555
H20_7 O21_7 1_555 1_555
H21_7 O21_7 1_555 1_555
O22_7 Gd5 1_555 1_555
H22_7 O22_7 1_555 1_555
H23_7 O22_7 1_555 1_555
O23_7 Gd3_4 1_555 1_555
H24_7 O23_7 1_555 1_555
C40_7 C42_7 1_555 1_555
O24_7 Gd5 1_555 1_555
H26_7 O24_7 1_555 1_555
H27_7 O24_7 1_555 1_555
C42_7 C14_7 1_555 1_555
O29_4 Gd5 1_555 1_555
O34_4 Gd7_2 1_555 1_555
O37_4 Gd5 1_555 1_555
Gd3_4 O29_4 1_555 1_555
C7_7 C19_7 1_555 1_555
O12_7 C37_7 1_555 1_555
C10_7 C15_7 1_555 1_555
C11_7 C39_7 1_555 1_555
C15_7 C19_7 1_555 1_555
C27_7 C36_7 1_555 1_555
C30_7 C31_7 1_555 1_555
C30_7 C37_7 1_555 1_555
C34_7 C42_7 1_555 1_555
C2_7 C21_7 1_555 1_555
C21_7 O13_7 1_555 1_555
C26_7 C2_7 1_555 1_555
H11_7 C26_7 1_555 1_555
C29_7 C2_7 1_555 1_555
H15_7 C35_7 1_555 1_555
C26_7 C35_7 1_555 1_555
O3_4 C28_7 1_555 1_555
O20_4 C28_7 1_555 1_555
Gd5_2 O3_4 1_555 1_555
Gd10_4 O3_4 1_555 1_555
O20_4 Gd5_2 1_555 1_555
C4_7 C44_7 1_555 1_555
O9_4 C38_7 1_555 1_555
C8_7 C9_7 1_555 1_555
C9_7 H5_7 1_555 1_555
O33_4 C32_7 1_555 1_555
C12_7 C18_7 1_555 1_555
O16_4 C38_7 1_555 1_555
C18_7 C20_7 1_555 1_555
C20_7 C22_7 1_555 1_555
C22_7 C8_7 1_555 1_555
H8_7 C22_7 1_555 1_555
C23_7 C38_7 1_555 1_555
C25_7 C20_7 1_555 1_555
H10_7 C25_7 1_555 1_555
C32_7 C33_7 1_555 1_555
C33_7 C9_7 1_555 1_555
O25_7 H28_7 1_555 1_555
C41_7 C8_7 1_555 1_555
O26_7 C46_7 1_555 1_555
C43_7 C41_7 1_555 1_555
H29_7 C43_7 1_555 1_555
C44_7 C23_7 1_555 1_555
H30_7 C44_7 1_555 1_555
C45_7 C4_7 1_555 1_555
H31_7 C45_7 1_555 1_555
C46_7 C4_7 1_555 1_555
C23_7 C41_7 1_555 1_555
C25_7 C33_7 1_555 1_555
O25_7 C46_7 1_555 1_555
C43_7 C45_7 1_555 1_555
O15_4 Gd9_2 1_555 1_555
O29_4 C28_8 1_555 1_555
O37_4 C28_8 1_555 1_555
C4_8 C44_8 1_555 1_555
O31_4 C38_8 1_555 1_555
C8_8 C9_8 1_555 1_555
C9_8 H5_8 1_555 1_555
O33_3 C32_8 1_555 1_555
C12_8 C18_8 1_555 1_555
O34_4 C32_8 1_555 1_555
O35_4 C38_8 1_555 1_555
C18_8 C20_8 1_555 1_555
C20_8 C22_8 1_555 1_555
C22_8 C8_8 1_555 1_555
H8_8 C22_8 1_555 1_555
C23_8 C38_8 1_555 1_555
C25_8 C20_8 1_555 1_555
H10_8 C25_8 1_555 1_555
C32_8 C33_8 1_555 1_555
C33_8 C9_8 1_555 1_555
O25_8 H28_8 1_555 1_555
C41_8 C8_8 1_555 1_555
O26_8 C46_8 1_555 1_555
C43_8 C41_8 1_555 1_555
H29_8 C43_8 1_555 1_555
C44_8 C23_8 1_555 1_555
H30_8 C44_8 1_555 1_555
C45_8 C4_8 1_555 1_555
H31_8 C45_8 1_555 1_555
C46_8 C4_8 1_555 1_555
C23_8 C41_8 1_555 1_555
C25_8 C33_8 1_555 1_555
O25_8 C46_8 1_555 1_555
C43_8 C45_8 1_555 1_555
C1_8 H1_8 1_555 1_555
O28_4 C40_8 1_555 1_555
Gd5_2 O4_8 1_555 1_555
Gd10_4 O4_8 1_555 1_555
C3_8 H2_8 1_555 1_555
O4_8 C7_8 1_555 1_555
O30_3 C16_8 1_555 1_555
O6_8 Gd10_4 1_555 1_555
O7_8 Gd10_4 1_555 1_555
O8_8 C17_8 1_555 1_555
C5_8 C1_8 1_555 1_555
C6_8 C14_8 1_555 1_555
C7_8 O7_8 1_555 1_555
O10_8 C40_8 1_555 1_555
O12_8 Gd10_4 1_555 1_555
C10_8 H6_8 1_555 1_555
C11_8 C3_8 1_555 1_555
C13_8 C24_8 1_555 1_555
C14_8 H7_8 1_555 1_555
C15_8 C6_8 1_555 1_555
C16_8 C5_8 1_555 1_555
O36_3 C16_8 1_555 1_555
C17_8 C11_8 1_555 1_555
C19_8 C3_8 1_555 1_555
C24_8 C6_8 1_555 1_555
H9_8 C24_8 1_555 1_555
C27_8 C13_8 1_555 1_555
C30_8 C27_8 1_555 1_555
C31_8 C5_8 1_555 1_555
H13_8 C31_8 1_555 1_555
C34_8 C13_8 1_555 1_555
H14_8 C34_8 1_555 1_555
O18_8 Gd10_4 1_555 1_555
O19_8 Gd5_2 1_555 1_555
H16_8 O19_8 1_555 1_555
H17_8 O19_8 1_555 1_555
C36_8 C1_8 1_555 1_555
H18_8 C36_8 1_555 1_555
C37_8 O6_8 1_555 1_555
C39_8 C10_8 1_555 1_555
H19_8 C39_8 1_555 1_555
O22_8 Gd5_2 1_555 1_555
H22_8 O22_8 1_555 1_555
H23_8 O22_8 1_555 1_555
O23_8 Gd10_4 1_555 1_555
H24_8 O23_8 1_555 1_555
C40_8 C42_8 1_555 1_555
C42_8 C14_8 1_555 1_555
C7_8 C19_8 1_555 1_555
O12_8 C37_8 1_555 1_555
C10_8 C15_8 1_555 1_555
C11_8 C39_8 1_555 1_555
C15_8 C19_8 1_555 1_555
C27_8 C36_8 1_555 1_555
C30_8 C31_8 1_555 1_555
C30_8 C37_8 1_555 1_555
C34_8 C42_8 1_555 1_555
O11_8 Gd9_2 1_555 1_555
H3_8 O11_8 1_555 1_555
H4_8 O11_8 1_555 1_555
O21_8 Gd9_2 1_555 1_555
H20_8 O21_8 1_555 1_555
H21_8 O21_8 1_555 1_555
C2_8 C21_8 1_555 1_555
C21_8 O13_8 1_555 1_555
C26_8 C2_8 1_555 1_555
H11_8 C26_8 1_555 1_555
C29_8 C2_8 1_555 1_555
H15_8 C35_8 1_555 1_555
C26_8 C35_8 1_555 1_555

#END
