
###############################################################################
#
# This file contains modified crystal structure data generated from the
# MOF subset of the Cambridge Structural Database (CSD) v543 
# hosted by the Cambridge Crystallographic Data Centre (CCDC).
#
# This work is licensed under the Creative Commons
# Attribution-NonCommercial-ShareAlike 4.0 International License.
# To view a copy of this license, visit
# http://creativecommons.org/licenses/by-nc-sa/4.0/
# or send a letter to
# Creative Commons, PO Box 1866, Mountain View, CA 94042, USA.
#
# CIF created using the CSD Python API on 29 September 2022
# The structure has been converted into the P1 space group
# The structure has a 3D framework
# The original CSD entry IPUPIU is in the rhombohedral crystal system
# The framework has been calculated to contain at least 10.0% void space
# The void calculation uses a probe of radius 1.32A, grid spacing 0.4
# H atom positions have been added when not included in the experimental data
# Generated hydrogen atom positions removed from atoms on special positions
#
###############################################################################

data_IPUPIU
_chemical_formula_moiety         '(C792 H666 Cu72 O360)n'
_symmetry_cell_setting           triclinic
_symmetry_space_group_name_H-M   'P 1'
_symmetry_Int_Tables_number      1
_space_group_name_Hall           'P 1'
loop_
_symmetry_equiv_pos_site_id
_symmetry_equiv_pos_as_xyz
1 x,y,z
_cell_length_a                   42.321(5)
_cell_length_b                   42.321(5)
_cell_length_c                   30.872(6)
_cell_angle_alpha                90
_cell_angle_beta                 90
_cell_angle_gamma                120
_cell_volume                     47885.9
loop_
_atom_site_label
_atom_site_type_symbol
_atom_site_fract_x
_atom_site_fract_y
_atom_site_fract_z
C1 C 0.07954(15) 0.24246(16) 0.39508(19)
C2 C 0.05035(16) 0.23512(15) 0.36324(19)
C3 C 0.05284(15) 0.26377(16) 0.33847(19)
H1 H 0.0743 0.2870 0.3399
C4 C 0.02451(16) 0.25877(16) 0.3119(2)
C7 C 0.02014(16) 0.20072(16) 0.3596(2)
H3 H 0.0187 0.1809 0.3756
C9 C 0.02727(17) 0.29107(17) 0.2890(2)
C10 C 0.06054(18) 0.31770(17) 0.2724(2)
H4 H 0.0813 0.3147 0.2748
C11 C 0.06401(18) 0.34828(17) 0.2525(2)
H5 H 0.0869 0.3661 0.2409
C12 C 0.03398(19) 0.35313(18) 0.2495(2)
C13 C 0.00101(19) 0.32699(18) 0.2656(2)
C15 C 0.03882(18) 0.38734(17) 0.2304(2)
C16 C 0.07120(19) 0.41964(18) 0.2349(2)
H8 H 0.0903 0.4201 0.2516
C17 C 0.0766(2) 0.45141(19) 0.2156(3)
H9 H 0.0991 0.4735 0.2196
C18 C 0.04958(17) 0.45116(17) 0.1908(2)
C19 C 0.01560(19) 0.41896(18) 0.1869(2)
C20 C 0.01032(19) 0.38762(18) 0.2080(2)
C21 C 0.05609(18) 0.48410(17) 0.1658(2)
Cu3 Cu 0.11320(2) 0.22641(3) 0.46249(3)
Cu4 Cu 0.14720(2) 0.29441(3) 0.43501(3)
O1 O 0.08687(12) 0.1737(2) 0.4924(3)
O2 O 0.17472(9) 0.34944(17) 0.4113(2)
O7 O 0.07654(10) 0.21717(11) 0.41758(13)
O8 O 0.10548(11) 0.27534(11) 0.39617(13)
O9 O 0.08822(12) 0.51127(12) 0.16774(14)
O10 O 0.03053(12) 0.48222(11) 0.14442(15)
Cu7 Cu 0.10692(3) 0.55346(4) 0.12916(3)
Cu10 Cu 0.03892(3) 0.51946(4) 0.10168(3)
O21 O 0.14063(15) 0.21717(11) 0.41758(13)
O22 O 0.16986(16) 0.27534(11) 0.39617(13)
O23 O 0.08972(17) 0.24511(12) 0.50107(14)
O24 O 0.15540(12) 0.24511(12) 0.50107(14)
O25 O 0.11836(16) 0.30280(12) 0.47775(15)
O26 O 0.18445(11) 0.30280(12) 0.47775(15)
C24 C 0.75754(16) 0.92046(15) 0.39508(19)
C25 C 0.76488(15) 0.94965(16) 0.36324(19)
C26 C 0.73623(16) 0.94716(15) 0.33847(19)
H14 H 0.7130 0.9257 0.3399
C27 C 0.74123(16) 0.97549(16) 0.3119(2)
C30 C 0.79928(16) 0.97986(16) 0.3596(2)
H16 H 0.8191 0.9813 0.3756
C32 C 0.70893(17) 0.97273(17) 0.2890(2)
C33 C 0.68230(17) 0.93946(18) 0.2724(2)
H17 H 0.6853 0.9187 0.2748
C34 C 0.65172(17) 0.93599(18) 0.2525(2)
H18 H 0.6339 0.9131 0.2409
C35 C 0.64687(18) 0.96602(19) 0.2495(2)
C36 C 0.67301(18) 0.99899(19) 0.2656(2)
C38 C 0.61266(17) 0.96118(18) 0.2304(2)
C39 C 0.58036(18) 0.92880(19) 0.2349(2)
H21 H 0.5799 0.9097 0.2516
C40 C 0.54859(19) 0.9234(2) 0.2156(3)
H22 H 0.5265 0.9009 0.2196
C41 C 0.54884(17) 0.95042(17) 0.1908(2)
C42 C 0.58104(18) 0.98440(19) 0.1869(2)
C43 C 0.61238(18) 0.98968(19) 0.2080(2)
C44 C 0.51590(17) 0.94391(18) 0.1658(2)
O17 O 0.78283(11) 0.92346(10) 0.41758(13)
O18 O 0.72466(11) 0.89452(11) 0.39617(13)
O19 O 0.48873(12) 0.91178(12) 0.16774(14)
O20 O 0.51778(11) 0.96947(12) 0.14442(15)
Cu5 Cu 0.77359(3) 0.88679(4) 0.46249(3)
Cu6 Cu 0.44653(2) 0.89308(3) 0.12916(3)
Cu8 Cu 0.70559(3) 0.85279(4) 0.43501(3)
Cu9 Cu 0.48053(2) 0.96108(3) 0.10168(3)
C24_2 C 0.07954(15) 0.83708(22) 0.39508(19)
C25_2 C 0.05035(16) 0.81523(22) 0.36324(19)
C26_2 C 0.05284(15) 0.78907(22) 0.33847(19)
H14_2 H 0.0743 0.7873 0.3399
C27_2 C 0.02451(16) 0.76574(23) 0.3119(2)
C30_2 C 0.02014(16) 0.81942(23) 0.3596(2)
H16_2 H 0.0187 0.8378 0.3756
C32_2 C 0.02727(17) 0.73620(24) 0.2890(2)
C33_2 C 0.06054(18) 0.74284(25) 0.2724(2)
H17_2 H 0.0813 0.7666 0.2748
C34_2 C 0.06401(18) 0.71573(25) 0.2525(2)
H18_2 H 0.0869 0.7208 0.2409
C35_2 C 0.03398(19) 0.68085(26) 0.2495(2)
C36_2 C 0.00101(19) 0.67402(26) 0.2656(2)
C38_2 C 0.03882(18) 0.65148(25) 0.2304(2)
C39_2 C 0.07120(19) 0.65156(26) 0.2349(2)
H21_2 H 0.0903 0.6702 0.2516
C40_2 C 0.0766(2) 0.62519(28) 0.2156(3)
H22_2 H 0.0991 0.6256 0.2196
C41_2 C 0.04958(17) 0.59842(24) 0.1908(2)
C42_2 C 0.01560(19) 0.59664(26) 0.1869(2)
C43_2 C 0.01032(19) 0.62270(26) 0.2080(2)
C44_2 C 0.05609(18) 0.57199(25) 0.1658(2)
O17_2 O 0.07654(10) 0.85937(15) 0.41758(13)
O18_2 O 0.10548(11) 0.83014(16) 0.39617(13)
O19_2 O 0.08822(12) 0.57695(17) 0.16774(14)
O20_2 O 0.03053(12) 0.54831(16) 0.14442(15)
Cu5_2 Cu 0.11321(4) 0.88680(5) 0.46249(3)
Cu8_2 Cu 0.14721(4) 0.85280(5) 0.43501(3)
C1_2 C 0.75754(16) 0.83708(22) 0.39508(19)
C2_2 C 0.76488(15) 0.81523(22) 0.36324(19)
C3_2 C 0.73623(16) 0.78907(22) 0.33847(19)
H1_2 H 0.7130 0.7873 0.3399
C4_2 C 0.74123(16) 0.76574(23) 0.3119(2)
C5 C 0.77518(17) 0.76903(23) 0.3099(2)
H2 H 0.7786 0.7523 0.2928
C6 C 0.80450(15) 0.79630(22) 0.3323(2)
C7_2 C 0.79928(16) 0.81942(23) 0.3596(2)
H3_2 H 0.8191 0.8378 0.3756
C8 C 0.84138(17) 0.79983(24) 0.3283(2)
C9_2 C 0.70893(17) 0.73620(24) 0.2890(2)
C10_2 C 0.68230(17) 0.74284(25) 0.2724(2)
H4_2 H 0.6853 0.7666 0.2748
C11_2 C 0.65172(17) 0.71573(25) 0.2525(2)
H5_2 H 0.6339 0.7208 0.2409
C12_2 C 0.64687(18) 0.68085(26) 0.2495(2)
C13_2 C 0.67301(18) 0.67402(26) 0.2656(2)
H6 H 0.6698 0.6502 0.2636
C14 C 0.70440(18) 0.70192(26) 0.2849(2)
H7 H 0.7227 0.6971 0.2953
C15_2 C 0.61266(17) 0.65148(25) 0.2304(2)
C16_2 C 0.58036(18) 0.65156(26) 0.2349(2)
H8_2 H 0.5799 0.6702 0.2516
C17_2 C 0.54859(19) 0.62519(28) 0.2156(3)
H9_2 H 0.5265 0.6256 0.2196
C18_2 C 0.54884(17) 0.59842(24) 0.1908(2)
C19_2 C 0.58104(18) 0.59664(26) 0.1869(2)
H10 H 0.5814 0.5780 0.1701
C20_2 C 0.61238(18) 0.62270(26) 0.2080(2)
H11 H 0.6339 0.6209 0.2071
C21_2 C 0.51590(17) 0.57199(25) 0.1658(2)
C22 C 0.88350(18) 0.76700(25) 0.3973(4)
H12 H 0.8765 0.7530 0.4232
C23 C 0.9207(2) 0.8414(3) 0.2609(5)
H13 H 0.9282 0.8564 0.2358
Cu1 Cu 0.88639(2) 0.77278(3) 0.30338(4)
Cu2 Cu 0.91613(2) 0.83226(3) 0.35140(5)
O1_2 O 0.8263(2) 0.91317(23) 0.4924(3)
O2_2 O 0.65056(17) 0.82528(19) 0.4113(2)
O3 O 0.86214(11) 0.72428(16) 0.2648(3)
O4 O 0.94097(11) 0.88194(16) 0.3895(3)
O5 O 0.84256(12) 0.77600(17) 0.30620(16)
O6 O 0.86663(12) 0.82544(17) 0.34814(17)
O7_2 O 0.78283(11) 0.85937(15) 0.41758(13)
O8_2 O 0.72466(11) 0.83014(16) 0.39617(13)
O9_2 O 0.48873(12) 0.57695(17) 0.16774(14)
O10_2 O 0.51778(11) 0.54831(16) 0.14442(15)
O11 O 0.90008(11) 0.80016(16) 0.4021(2)
O12 O 0.87480(10) 0.74960(14) 0.3631(3)
O13 O 0.90426(12) 0.80852(17) 0.2547(3)
O14 O 0.92907(12) 0.85814(17) 0.2972(3)
C28 C 0.99385(16) 0.76903(23) 0.3099(2)
H15 H 0.9737 0.7523 0.2928
C29 C 0.99180(16) 0.79630(22) 0.3323(2)
C31 C 0.95845(17) 0.79983(24) 0.3283(2)
H19 H 0.9804 0.6502 0.2636
C37 C 0.99752(19) 0.70192(26) 0.2849(2)
H20 H 0.9744 0.6971 0.2953
H23 H 0.9966 0.5780 0.1701
H24 H 0.9870 0.6209 0.2071
O15 O 0.93344(12) 0.77600(17) 0.30620(16)
O16 O 0.95881(12) 0.82544(17) 0.34814(17)
Cu7_2 Cu 0.44654(4) 0.55347(5) 0.12916(3)
Cu10_2 Cu 0.48054(4) 0.51947(5) 0.10168(3)
O23_2 O 0.75489(12) 0.84460(21) 0.50107(14)
O24_2 O 0.75489(12) 0.91028(17) 0.50107(14)
O25_2 O 0.69720(12) 0.81555(20) 0.47775(15)
O26_2 O 0.69720(12) 0.88164(16) 0.47775(15)
C5_2 C 0.23097(23) 0.00615(16) 0.3099(2)
H2_2 H 0.2477 0.0263 0.2928
C6_2 C 0.20370(22) 0.00820(16) 0.3323(2)
C8_2 C 0.20017(24) 0.04155(17) 0.3283(2)
H6_2 H 0.3498 0.0196 0.2636
C14_2 C 0.29808(26) 0.00248(19) 0.2849(2)
H7_2 H 0.3029 0.0256 0.2953
H10_2 H 0.4220 0.0034 0.1701
H11_2 H 0.3791 0.0130 0.2071
C22_2 C 0.23300(25) 0.11650(18) 0.3973(4)
H12_2 H 0.2470 0.1235 0.4232
C23_2 C 0.1586(3) 0.0793(2) 0.2609(5)
H13_2 H 0.1436 0.0718 0.2358
Cu1_2 Cu 0.22722(3) 0.11361(2) 0.30338(4)
Cu2_2 Cu 0.16774(3) 0.08387(2) 0.35140(5)
O3_2 O 0.27572(16) 0.13786(11) 0.2648(3)
O4_2 O 0.11806(16) 0.05903(11) 0.3895(3)
O5_2 O 0.22400(17) 0.06656(12) 0.30620(16)
O6_2 O 0.17456(17) 0.04119(12) 0.34814(17)
O11_2 O 0.19984(16) 0.09992(11) 0.4021(2)
O12_2 O 0.25040(14) 0.12520(10) 0.3631(3)
O13_2 O 0.19148(17) 0.09574(12) 0.2547(3)
O14_2 O 0.14186(17) 0.07093(12) 0.2972(3)
C24_3 C 0.16292(22) 0.24246(16) 0.39508(19)
C25_3 C 0.18477(22) 0.23512(15) 0.36324(19)
C26_3 C 0.21093(22) 0.26377(16) 0.33847(19)
H14_3 H 0.2127 0.2870 0.3399
C27_3 C 0.23426(23) 0.25877(16) 0.3119(2)
C28_2 C 0.23097(23) 0.22482(17) 0.3099(2)
H15_2 H 0.2477 0.2214 0.2928
C29_2 C 0.20370(22) 0.19550(15) 0.3323(2)
C30_3 C 0.18058(23) 0.20072(16) 0.3596(2)
H16_3 H 0.1622 0.1809 0.3756
C31_2 C 0.20017(24) 0.15862(17) 0.3283(2)
C32_3 C 0.26380(24) 0.29107(17) 0.2890(2)
C33_3 C 0.25716(25) 0.31770(17) 0.2724(2)
H17_3 H 0.2334 0.3147 0.2748
C34_3 C 0.28427(25) 0.34828(17) 0.2525(2)
H18_3 H 0.2792 0.3661 0.2409
C35_3 C 0.31915(26) 0.35313(18) 0.2495(2)
C36_3 C 0.32598(26) 0.32699(18) 0.2656(2)
H19_2 H 0.3498 0.3302 0.2636
C37_2 C 0.29808(26) 0.29560(18) 0.2849(2)
H20_2 H 0.3029 0.2773 0.2953
C38_3 C 0.34852(25) 0.38734(17) 0.2304(2)
C39_3 C 0.34844(26) 0.41964(18) 0.2349(2)
H21_3 H 0.3298 0.4201 0.2516
C40_3 C 0.37481(28) 0.45141(19) 0.2156(3)
H22_3 H 0.3744 0.4735 0.2196
C41_3 C 0.40158(24) 0.45116(17) 0.1908(2)
C42_3 C 0.40336(26) 0.41896(18) 0.1869(2)
H23_2 H 0.4220 0.4186 0.1701
C43_3 C 0.37730(26) 0.38762(18) 0.2080(2)
H24_2 H 0.3791 0.3661 0.2071
C44_3 C 0.42801(25) 0.48410(17) 0.1658(2)
O15_2 O 0.22400(17) 0.15744(12) 0.30620(16)
O16_2 O 0.17456(17) 0.13337(12) 0.34814(17)
O19_3 O 0.42305(17) 0.51127(12) 0.16774(14)
O20_3 O 0.45169(16) 0.48222(11) 0.14442(15)
C1_3 C 0.16292(22) 0.92046(15) 0.39508(19)
C2_3 C 0.18477(22) 0.94965(16) 0.36324(19)
C3_3 C 0.21093(22) 0.94716(15) 0.33847(19)
H1_3 H 0.2127 0.9257 0.3399
C4_3 C 0.23426(23) 0.97549(16) 0.3119(2)
C7_3 C 0.18058(23) 0.97986(16) 0.3596(2)
H3_3 H 0.1622 0.9813 0.3756
C9_3 C 0.26380(24) 0.97273(17) 0.2890(2)
C10_3 C 0.25716(25) 0.93946(18) 0.2724(2)
H4_3 H 0.2334 0.9187 0.2748
C11_3 C 0.28427(25) 0.93599(18) 0.2525(2)
H5_3 H 0.2792 0.9131 0.2409
C12_3 C 0.31915(26) 0.96602(19) 0.2495(2)
C13_3 C 0.32598(26) 0.99899(19) 0.2656(2)
C15_3 C 0.34852(25) 0.96118(18) 0.2304(2)
C16_3 C 0.34844(26) 0.92880(19) 0.2349(2)
H8_3 H 0.3298 0.9097 0.2516
C17_3 C 0.37481(28) 0.9234(2) 0.2156(3)
H9_3 H 0.3744 0.9009 0.2196
C18_3 C 0.40158(24) 0.95042(17) 0.1908(2)
C19_3 C 0.40336(26) 0.98440(19) 0.1869(2)
C20_3 C 0.37730(26) 0.98968(19) 0.2080(2)
C21_3 C 0.42801(25) 0.94391(18) 0.1658(2)
O1_3 O 0.08683(23) 0.91313(12) 0.4924(3)
O2_3 O 0.17472(19) 0.82528(9) 0.4113(2)
O7_3 O 0.14063(15) 0.92346(10) 0.41758(13)
O8_3 O 0.16986(16) 0.89452(11) 0.39617(13)
O9_3 O 0.42305(17) 0.91178(12) 0.16774(14)
O10_3 O 0.45169(16) 0.96947(12) 0.14442(15)
O23_3 O 0.15540(21) 0.91028(17) 0.50107(14)
O24_3 O 0.08972(17) 0.84460(12) 0.50107(14)
O25_3 O 0.18445(20) 0.88164(16) 0.47775(15)
O26_3 O 0.11836(16) 0.81555(11) 0.47775(15)
C1_4 C 0.74621(15) 0.57579(16) 0.72841(19)
C2_4 C 0.71702(16) 0.56845(15) 0.69657(19)
C3_4 C 0.71951(15) 0.59710(16) 0.67180(19)
H1_4 H 0.7410 0.6203 0.6732
C4_4 C 0.69118(16) 0.59210(16) 0.6452(2)
C5_3 C 0.66052(16) 0.55815(17) 0.6432(2)
H2_3 H 0.6404 0.5547 0.6261
C6_3 C 0.65847(16) 0.52883(15) 0.6656(2)
C7_4 C 0.68681(16) 0.53405(16) 0.6929(2)
H3_4 H 0.6854 0.5142 0.7089
C8_3 C 0.62512(17) 0.49195(17) 0.6616(2)
C9_4 C 0.69394(17) 0.62440(17) 0.6223(2)
C10_4 C 0.72721(18) 0.65103(17) 0.6057(2)
H4_4 H 0.7480 0.6480 0.6081
C11_4 C 0.73068(18) 0.68161(17) 0.5858(2)
H5_4 H 0.7536 0.6994 0.5742
C12_4 C 0.70065(19) 0.68646(18) 0.5828(2)
C13_4 C 0.66768(19) 0.66032(18) 0.5989(2)
H6_3 H 0.6471 0.6635 0.5969
C14_3 C 0.66419(19) 0.62893(18) 0.6182(2)
H7_3 H 0.6411 0.6106 0.6286
C15_4 C 0.70549(18) 0.72067(17) 0.5637(2)
C16_4 C 0.73787(19) 0.75297(18) 0.5682(2)
H8_4 H 0.7570 0.7534 0.5849
C17_4 C 0.7433(2) 0.78474(19) 0.5489(3)
H9_4 H 0.7658 0.8068 0.5529
C18_4 C 0.71625(17) 0.78449(17) 0.5241(2)
C19_4 C 0.68227(19) 0.75229(18) 0.5202(2)
H10_3 H 0.6633 0.7519 0.5034
C20_4 C 0.67699(19) 0.72095(18) 0.5413(2)
H11_3 H 0.6537 0.6994 0.5404
C21_4 C 0.72276(18) 0.81743(17) 0.4991(2)
C22_3 C 0.55017(18) 0.44983(18) 0.7306(4)
H12_3 H 0.5432 0.4568 0.7565
C23_3 C 0.5874(2) 0.4126(2) 0.5942(5)
H13_3 H 0.5949 0.4051 0.5691
Cu1_3 Cu 0.55306(2) 0.44694(2) 0.63671(4)
Cu2_3 Cu 0.58280(2) 0.41720(2) 0.68473(5)
Cu3_2 Cu 0.77987(2) 0.55974(3) 0.79582(3)
Cu4_2 Cu 0.81387(2) 0.62774(3) 0.76834(3)
O1_4 O 0.75354(12) 0.5070(2) 0.8257(3)
O2_4 O 0.84139(9) 0.68277(17) 0.7446(2)
O3_3 O 0.52881(11) 0.47119(11) 0.5981(3)
O4_3 O 0.60764(11) 0.39236(11) 0.7228(3)
O5_3 O 0.60011(12) 0.49077(12) 0.63953(16)
O6_3 O 0.62548(12) 0.46670(12) 0.68147(17)
O7_4 O 0.74321(10) 0.55050(11) 0.75091(13)
O8_4 O 0.77215(11) 0.60867(11) 0.72950(13)
O11_3 O 0.56675(11) 0.43325(11) 0.7354(2)
O12_3 O 0.54147(10) 0.45853(10) 0.6964(3)
O13_3 O 0.57093(12) 0.42907(12) 0.5880(3)
O14_3 O 0.59574(12) 0.40426(12) 0.6305(3)
C24_4 C 0.42421(16) 0.25379(15) 0.72841(19)
C25_4 C 0.43155(15) 0.28298(16) 0.69657(19)
C26_4 C 0.40290(16) 0.28049(15) 0.67180(19)
H14_4 H 0.3797 0.2590 0.6732
C27_4 C 0.40790(16) 0.30882(16) 0.6452(2)
C28_3 C 0.44185(17) 0.33948(16) 0.6432(2)
H15_3 H 0.4453 0.3596 0.6261
C29_3 C 0.47117(15) 0.34153(16) 0.6656(2)
C30_4 C 0.46595(16) 0.31319(16) 0.6929(2)
H16_4 H 0.4858 0.3146 0.7089
C31_3 C 0.50805(17) 0.37488(17) 0.6616(2)
C32_4 C 0.37560(17) 0.30606(17) 0.6223(2)
C33_4 C 0.34897(17) 0.27279(18) 0.6057(2)
H17_4 H 0.3520 0.2520 0.6081
C34_4 C 0.31839(17) 0.26932(18) 0.5858(2)
H18_4 H 0.3006 0.2464 0.5742
C35_4 C 0.31354(18) 0.29935(19) 0.5828(2)
C36_4 C 0.33968(18) 0.33232(19) 0.5989(2)
H19_3 H 0.3365 0.3529 0.5969
C37_3 C 0.37107(18) 0.33581(19) 0.6182(2)
H20_3 H 0.3894 0.3589 0.6286
C38_4 C 0.27933(17) 0.29451(18) 0.5637(2)
C39_4 C 0.24703(18) 0.26213(19) 0.5682(2)
H21_4 H 0.2466 0.2430 0.5849
C40_4 C 0.21526(19) 0.2567(2) 0.5489(3)
H22_4 H 0.1932 0.2342 0.5529
C41_4 C 0.21551(17) 0.28375(17) 0.5241(2)
C42_4 C 0.24771(18) 0.31773(19) 0.5202(2)
H23_3 H 0.2481 0.3367 0.5034
C43_4 C 0.27905(18) 0.32301(19) 0.5413(2)
H24_3 H 0.3006 0.3463 0.5404
C44_4 C 0.18257(17) 0.27724(18) 0.4991(2)
O15_3 O 0.50923(12) 0.39989(12) 0.63953(16)
O16_3 O 0.53330(12) 0.37452(12) 0.68147(17)
O17_3 O 0.44950(11) 0.25679(10) 0.75091(13)
O18_3 O 0.39133(11) 0.22785(11) 0.72950(13)
Cu5_3 Cu 0.44026(3) 0.22012(4) 0.79582(3)
Cu8_3 Cu 0.37226(3) 0.18612(4) 0.76834(3)
O21_2 O 0.80730(15) 0.55050(11) 0.75091(13)
O22_2 O 0.83653(16) 0.60867(11) 0.72950(13)
O23_4 O 0.75638(17) 0.57845(12) 0.83441(14)
O24_4 O 0.82206(12) 0.57845(12) 0.83441(14)
O25_4 O 0.78502(16) 0.63614(12) 0.81109(15)
O26_4 O 0.85111(11) 0.63614(12) 0.81109(15)
C1_5 C 0.42421(16) 0.17041(22) 0.72841(19)
C2_5 C 0.43155(15) 0.14856(22) 0.69657(19)
C3_5 C 0.40290(16) 0.12240(22) 0.67180(19)
H1_5 H 0.3797 0.1206 0.6732
C4_5 C 0.40790(16) 0.09907(23) 0.6452(2)
C5_4 C 0.44185(17) 0.10236(23) 0.6432(2)
H2_4 H 0.4453 0.0856 0.6261
C6_4 C 0.47117(15) 0.12963(22) 0.6656(2)
C7_5 C 0.46595(16) 0.15275(23) 0.6929(2)
H3_5 H 0.4858 0.1711 0.7089
C8_4 C 0.50805(17) 0.13316(24) 0.6616(2)
C9_5 C 0.37560(17) 0.06953(24) 0.6223(2)
C10_5 C 0.34897(17) 0.07617(25) 0.6057(2)
H4_5 H 0.3520 0.0999 0.6081
C11_5 C 0.31839(17) 0.04906(25) 0.5858(2)
H5_5 H 0.3006 0.0541 0.5742
C12_5 C 0.31354(18) 0.01418(26) 0.5828(2)
C13_5 C 0.33968(18) 0.00735(26) 0.5989(2)
C14_4 C 0.37107(18) 0.03525(26) 0.6182(2)
H7_4 H 0.3894 0.0304 0.6286
H8_5 H 0.2466 0.0035 0.5849
C22_4 C 0.55017(18) 0.10033(25) 0.7306(4)
H12_4 H 0.5432 0.0863 0.7565
C23_4 C 0.5874(2) 0.1747(3) 0.5942(5)
H13_4 H 0.5949 0.1897 0.5691
Cu1_4 Cu 0.55306(2) 0.10611(3) 0.63671(4)
Cu2_4 Cu 0.58280(2) 0.16559(3) 0.68473(5)
O1_5 O 0.4930(2) 0.24650(23) 0.8257(3)
O2_5 O 0.31723(17) 0.15861(19) 0.7446(2)
O3_4 O 0.52881(11) 0.05761(16) 0.5981(3)
O4_4 O 0.60764(11) 0.21527(16) 0.7228(3)
O5_4 O 0.50923(12) 0.10933(17) 0.63953(16)
O6_4 O 0.53330(12) 0.15877(17) 0.68147(17)
O7_5 O 0.44950(11) 0.19270(15) 0.75091(13)
O8_5 O 0.39133(11) 0.16347(16) 0.72950(13)
O11_4 O 0.56675(11) 0.13349(16) 0.7354(2)
O12_4 O 0.54147(10) 0.08293(14) 0.6964(3)
O13_4 O 0.57093(12) 0.14185(17) 0.5880(3)
O14_4 O 0.59574(12) 0.19147(17) 0.6305(3)
C24_5 C 0.74621(15) 0.17041(22) 0.72841(19)
C25_5 C 0.71702(16) 0.14856(22) 0.69657(19)
C26_5 C 0.71951(15) 0.12240(22) 0.67180(19)
H14_5 H 0.7410 0.1206 0.6732
C27_5 C 0.69118(16) 0.09907(23) 0.6452(2)
C28_4 C 0.66052(16) 0.10236(23) 0.6432(2)
H15_4 H 0.6404 0.0856 0.6261
C29_4 C 0.65847(16) 0.12963(22) 0.6656(2)
C30_5 C 0.68681(16) 0.15275(23) 0.6929(2)
H16_5 H 0.6854 0.1711 0.7089
C31_4 C 0.62512(17) 0.13316(24) 0.6616(2)
C32_5 C 0.69394(17) 0.06953(24) 0.6223(2)
C33_5 C 0.72721(18) 0.07617(25) 0.6057(2)
H17_5 H 0.7480 0.0999 0.6081
C34_5 C 0.73068(18) 0.04906(25) 0.5858(2)
H18_5 H 0.7536 0.0541 0.5742
C35_5 C 0.70065(19) 0.01418(26) 0.5828(2)
C36_5 C 0.66768(19) 0.00735(26) 0.5989(2)
C37_4 C 0.66419(19) 0.03525(26) 0.6182(2)
H20_4 H 0.6411 0.0304 0.6286
H21_5 H 0.7570 0.0035 0.5849
O15_4 O 0.60011(12) 0.10933(17) 0.63953(16)
O16_4 O 0.62548(12) 0.15877(17) 0.68147(17)
O17_4 O 0.74321(10) 0.19270(15) 0.75091(13)
O18_4 O 0.77215(11) 0.16347(16) 0.72950(13)
Cu5_4 Cu 0.77988(4) 0.22013(5) 0.79582(3)
Cu8_4 Cu 0.81388(4) 0.18613(5) 0.76834(3)
O23_5 O 0.42155(12) 0.17794(21) 0.83441(14)
O24_5 O 0.42155(12) 0.24362(17) 0.83441(14)
O25_5 O 0.36386(12) 0.14889(20) 0.81109(15)
O26_5 O 0.36386(12) 0.21498(16) 0.81109(15)
H6_4 H 0.3365 0.9835 0.5969
C15_5 C 0.27933(17) 0.98481(25) 0.5637(2)
C16_5 C 0.24703(18) 0.98489(26) 0.5682(2)
C17_5 C 0.21526(19) 0.95852(28) 0.5489(3)
H9_5 H 0.1932 0.9589 0.5529
C18_5 C 0.21551(17) 0.93175(24) 0.5241(2)
C19_5 C 0.24771(18) 0.92997(26) 0.5202(2)
H10_4 H 0.2481 0.9113 0.5034
C20_5 C 0.27905(18) 0.95603(26) 0.5413(2)
H11_4 H 0.3006 0.9542 0.5404
C21_5 C 0.18257(17) 0.90532(25) 0.4991(2)
H19_4 H 0.6471 0.9835 0.5969
C38_5 C 0.70549(18) 0.98481(25) 0.5637(2)
C39_5 C 0.73787(19) 0.98489(26) 0.5682(2)
C40_5 C 0.7433(2) 0.95852(28) 0.5489(3)
H22_5 H 0.7658 0.9589 0.5529
C41_5 C 0.71625(17) 0.93175(24) 0.5241(2)
C42_5 C 0.68227(19) 0.92997(26) 0.5202(2)
H23_4 H 0.6633 0.9113 0.5034
C43_5 C 0.67699(19) 0.95603(26) 0.5413(2)
H24_4 H 0.6537 0.9542 0.5404
C44_5 C 0.72276(18) 0.90532(25) 0.4991(2)
H6_5 H 0.0165 0.3529 0.5969
C15_6 C 0.01519(25) 0.29451(18) 0.5637(2)
C16_6 C 0.01511(26) 0.26213(19) 0.5682(2)
C17_6 C 0.04148(28) 0.2567(2) 0.5489(3)
H9_6 H 0.0411 0.2342 0.5529
C18_6 C 0.06825(24) 0.28375(17) 0.5241(2)
C19_6 C 0.07003(26) 0.31773(19) 0.5202(2)
H10_5 H 0.0887 0.3367 0.5034
C20_6 C 0.04397(26) 0.32301(19) 0.5413(2)
H11_5 H 0.0458 0.3463 0.5404
C21_6 C 0.09468(25) 0.27724(18) 0.4991(2)
H19_5 H 0.0165 0.6635 0.5969
C38_6 C 0.01519(25) 0.72067(17) 0.5637(2)
C39_6 C 0.01511(26) 0.75297(18) 0.5682(2)
C40_6 C 0.04148(28) 0.78474(19) 0.5489(3)
H22_6 H 0.0411 0.8068 0.5529
C41_6 C 0.06825(24) 0.78449(17) 0.5241(2)
C42_6 C 0.07003(26) 0.75229(18) 0.5202(2)
H23_5 H 0.0887 0.7519 0.5034
C43_6 C 0.04397(26) 0.72095(18) 0.5413(2)
H24_5 H 0.0458 0.6994 0.5404
C44_6 C 0.09468(25) 0.81743(17) 0.4991(2)
C1_6 C 0.82959(22) 0.25379(15) 0.72841(19)
C2_6 C 0.85144(22) 0.28298(16) 0.69657(19)
C3_6 C 0.87760(22) 0.28049(15) 0.67180(19)
H1_6 H 0.8794 0.2590 0.6732
C4_6 C 0.90093(23) 0.30882(16) 0.6452(2)
C5_5 C 0.89764(23) 0.33948(16) 0.6432(2)
H2_5 H 0.9144 0.3596 0.6261
C6_5 C 0.87037(22) 0.34153(16) 0.6656(2)
C7_6 C 0.84725(23) 0.31319(16) 0.6929(2)
H3_6 H 0.8289 0.3146 0.7089
C8_5 C 0.86684(24) 0.37488(17) 0.6616(2)
C9_6 C 0.93047(24) 0.30606(17) 0.6223(2)
C10_6 C 0.92383(25) 0.27279(18) 0.6057(2)
H4_6 H 0.9001 0.2520 0.6081
C11_6 C 0.95094(25) 0.26932(18) 0.5858(2)
H5_6 H 0.9459 0.2464 0.5742
C12_6 C 0.98582(26) 0.29935(19) 0.5828(2)
C13_6 C 0.99265(26) 0.33232(19) 0.5989(2)
C14_5 C 0.96475(26) 0.33581(19) 0.6182(2)
H7_5 H 0.9696 0.3589 0.6286
H8_6 H 0.9965 0.2430 0.5849
C22_5 C 0.89967(25) 0.44983(18) 0.7306(4)
H12_5 H 0.9137 0.4568 0.7565
C23_5 C 0.8253(3) 0.4126(2) 0.5942(5)
H13_5 H 0.8103 0.4051 0.5691
Cu1_5 Cu 0.89389(3) 0.44694(2) 0.63671(4)
Cu2_5 Cu 0.83441(3) 0.41720(2) 0.68473(5)
O1_6 O 0.75350(23) 0.24646(12) 0.8257(3)
O2_6 O 0.84139(19) 0.15861(9) 0.7446(2)
O3_5 O 0.94239(16) 0.47119(11) 0.5981(3)
O4_5 O 0.78473(16) 0.39236(11) 0.7228(3)
O5_5 O 0.89067(17) 0.39989(12) 0.63953(16)
O6_5 O 0.84123(17) 0.37452(12) 0.68147(17)
O7_6 O 0.80730(15) 0.25679(10) 0.75091(13)
O8_6 O 0.83653(16) 0.22785(11) 0.72950(13)
O11_5 O 0.86651(16) 0.43325(11) 0.7354(2)
O12_5 O 0.91707(14) 0.45853(10) 0.6964(3)
O13_5 O 0.85815(17) 0.42907(12) 0.5880(3)
O14_5 O 0.80853(17) 0.40426(12) 0.6305(3)
C24_6 C 0.82959(22) 0.57579(16) 0.72841(19)
C25_6 C 0.85144(22) 0.56845(15) 0.69657(19)
C26_6 C 0.87760(22) 0.59710(16) 0.67180(19)
H14_6 H 0.8794 0.6203 0.6732
C27_6 C 0.90093(23) 0.59210(16) 0.6452(2)
C28_5 C 0.89764(23) 0.55815(17) 0.6432(2)
H15_5 H 0.9144 0.5547 0.6261
C29_5 C 0.87037(22) 0.52883(15) 0.6656(2)
C30_6 C 0.84725(23) 0.53405(16) 0.6929(2)
H16_6 H 0.8289 0.5142 0.7089
C31_5 C 0.86684(24) 0.49195(17) 0.6616(2)
C32_6 C 0.93047(24) 0.62440(17) 0.6223(2)
C33_6 C 0.92383(25) 0.65103(17) 0.6057(2)
H17_6 H 0.9001 0.6480 0.6081
C34_6 C 0.95094(25) 0.68161(17) 0.5858(2)
H18_6 H 0.9459 0.6994 0.5742
C35_6 C 0.98582(26) 0.68646(18) 0.5828(2)
C36_6 C 0.99265(26) 0.66032(18) 0.5989(2)
C37_5 C 0.96475(26) 0.62893(18) 0.6182(2)
H20_5 H 0.9696 0.6106 0.6286
H21_6 H 0.9965 0.7534 0.5849
O15_5 O 0.89067(17) 0.49077(12) 0.63953(16)
O16_5 O 0.84123(17) 0.46670(12) 0.68147(17)
O23_6 O 0.82206(21) 0.24362(17) 0.83441(14)
O24_6 O 0.75638(17) 0.17794(12) 0.83441(14)
O25_6 O 0.85111(20) 0.21498(16) 0.81109(15)
O26_6 O 0.78502(16) 0.14889(11) 0.81109(15)
C11_7 C 0.39734(18) 0.01495(17) 0.9192(2)
H5_7 H 0.4202 0.0328 0.9076
C12_7 C 0.36731(19) 0.01980(18) 0.9162(2)
C15_7 C 0.37215(18) 0.05401(17) 0.8971(2)
C16_7 C 0.40453(19) 0.08631(18) 0.9016(2)
H8_7 H 0.4236 0.0868 0.9183
C17_7 C 0.4099(2) 0.11808(19) 0.8823(3)
H9_7 H 0.4324 0.1402 0.8863
C18_7 C 0.38291(17) 0.11783(17) 0.8575(2)
C19_7 C 0.34893(19) 0.08563(18) 0.8536(2)
H10_6 H 0.3299 0.0853 0.8368
C20_7 C 0.34365(19) 0.05429(18) 0.8747(2)
H11_6 H 0.3203 0.0328 0.8738
C21_7 C 0.38942(18) 0.15077(17) 0.8325(2)
C1_7 C 0.41287(15) 0.90913(16) 0.06175(19)
C2_7 C 0.38368(16) 0.90179(15) 0.02991(19)
C3_7 C 0.38617(15) 0.93044(16) 0.00514(19)
H1_7 H 0.4076 0.9537 0.0066
C7_7 C 0.35347(16) 0.86739(16) 0.0263(2)
H3_7 H 0.3520 0.8476 0.0423
C22_6 C 0.21683(18) 0.78317(18) 0.0640(4)
H12_6 H 0.2098 0.7902 0.0899
Cu2_6 Cu 0.24946(2) 0.75054(2) 0.01807(5)
O1_7 O 0.42020(12) 0.8404(2) 0.1591(3)
O4_6 O 0.27430(11) 0.72570(11) 0.0562(3)
O6_6 O 0.29214(12) 0.80004(12) 0.01481(17)
O7_7 O 0.40987(10) 0.88384(11) 0.08425(13)
O8_7 O 0.43881(11) 0.94201(11) 0.06284(13)
O11_6 O 0.23341(11) 0.76659(11) 0.0688(2)
O12_6 O 0.20813(10) 0.79187(10) 0.0298(3)
C24_7 C 0.09087(16) 0.58713(15) 0.06175(19)
C25_7 C 0.09821(15) 0.61632(16) 0.02991(19)
C26_7 C 0.06956(16) 0.61383(15) 0.00514(19)
H14_7 H 0.0463 0.5924 0.0066
C30_7 C 0.13261(16) 0.64653(16) 0.0263(2)
H16_7 H 0.1524 0.6480 0.0423
O16_6 O 0.19996(12) 0.70786(12) 0.01481(17)
O17_5 O 0.11616(11) 0.59013(10) 0.08425(13)
O18_5 O 0.05799(11) 0.56119(11) 0.06284(13)
O21_3 O 0.47396(15) 0.88384(11) 0.08425(13)
O22_3 O 0.50319(16) 0.94201(11) 0.06284(13)
C34_7 C 0.98505(17) 0.60266(18) 0.9192(2)
H18_7 H 0.9672 0.5798 0.9076
C35_7 C 0.98020(18) 0.63269(19) 0.9162(2)
C38_7 C 0.94599(17) 0.62785(18) 0.8971(2)
C39_7 C 0.91369(18) 0.59547(19) 0.9016(2)
H21_7 H 0.9132 0.5764 0.9183
C40_7 C 0.88192(19) 0.5901(2) 0.8823(3)
H22_7 H 0.8598 0.5676 0.8863
C41_7 C 0.88217(17) 0.61709(17) 0.8575(2)
C42_7 C 0.91437(18) 0.65107(19) 0.8536(2)
H23_6 H 0.9147 0.6701 0.8368
C43_7 C 0.94571(18) 0.65635(19) 0.8747(2)
H24_6 H 0.9672 0.6797 0.8738
C44_7 C 0.84923(17) 0.61058(18) 0.8325(2)
C1_8 C 0.09087(16) 0.50375(22) 0.06175(19)
C2_8 C 0.09821(15) 0.48190(22) 0.02991(19)
C3_8 C 0.06956(16) 0.45574(22) 0.00514(19)
H1_8 H 0.0463 0.4540 0.0066
C7_8 C 0.13261(16) 0.48609(23) 0.0263(2)
H3_8 H 0.1524 0.5045 0.0423
C22_7 C 0.21683(18) 0.43367(25) 0.0640(4)
H12_7 H 0.2098 0.4197 0.0899
Cu2_7 Cu 0.24946(2) 0.49893(3) 0.01807(5)
O1_8 O 0.1596(2) 0.57984(23) 0.1591(3)
O4_7 O 0.27430(11) 0.54861(16) 0.0562(3)
O6_7 O 0.19996(12) 0.49211(17) 0.01481(17)
O7_8 O 0.11616(11) 0.52604(15) 0.08425(13)
O8_8 O 0.05799(11) 0.49681(16) 0.06284(13)
O11_7 O 0.23341(11) 0.46683(16) 0.0688(2)
O12_7 O 0.20813(10) 0.41627(14) 0.0298(3)
C24_8 C 0.41287(15) 0.50375(22) 0.06175(19)
C25_8 C 0.38368(16) 0.48190(22) 0.02991(19)
C26_8 C 0.38617(15) 0.45574(22) 0.00514(19)
H14_8 H 0.4076 0.4540 0.0066
C30_8 C 0.35347(16) 0.48609(23) 0.0263(2)
H16_8 H 0.3520 0.5045 0.0423
O16_7 O 0.29214(12) 0.49211(17) 0.01481(17)
O17_6 O 0.40987(10) 0.52604(15) 0.08425(13)
O18_6 O 0.43881(11) 0.49681(16) 0.06284(13)
C4_7 C 0.07456(16) 0.43241(23) 0.9786(2)
C5_6 C 0.10851(17) 0.43570(23) 0.9766(2)
H2_6 H 0.1119 0.4190 0.9595
C6_6 C 0.13783(15) 0.46297(22) 0.9990(2)
C8_6 C 0.17471(17) 0.46650(24) 0.9950(2)
C9_7 C 0.04226(17) 0.40287(24) 0.9557(2)
C10_7 C 0.01563(17) 0.40951(25) 0.9391(2)
H4_7 H 0.0186 0.4333 0.9415
C13_7 C 0.00634(18) 0.34069(26) 0.9323(2)
H6_6 H 0.0031 0.3169 0.9303
C14_6 C 0.03773(18) 0.36859(26) 0.9516(2)
H7_6 H 0.0560 0.3638 0.9620
C23_6 C 0.2540(2) 0.5081(3) 0.9276(5)
H13_6 H 0.2615 0.5231 0.9025
Cu1_6 Cu 0.21972(2) 0.43945(3) 0.97005(4)
O3_6 O 0.19547(11) 0.39095(16) 0.9315(3)
O5_6 O 0.17589(12) 0.44267(17) 0.97287(16)
O13_6 O 0.23759(12) 0.47519(17) 0.9214(3)
O14_6 O 0.26240(12) 0.52481(17) 0.9639(3)
C27_7 C 0.35784(16) 0.43241(23) 0.9786(2)
C28_6 C 0.32718(16) 0.43570(23) 0.9766(2)
H15_6 H 0.3070 0.4190 0.9595
C29_6 C 0.32513(16) 0.46297(22) 0.9990(2)
C31_6 C 0.29178(17) 0.46650(24) 0.9950(2)
C32_7 C 0.36060(17) 0.40287(24) 0.9557(2)
C33_7 C 0.39387(18) 0.40951(25) 0.9391(2)
H17_7 H 0.4146 0.4333 0.9415
C34_8 C 0.39734(18) 0.38240(25) 0.9192(2)
H18_8 H 0.4202 0.3875 0.9076
C35_8 C 0.36731(19) 0.34752(26) 0.9162(2)
C36_7 C 0.33434(19) 0.34069(26) 0.9323(2)
H19_6 H 0.3137 0.3169 0.9303
C37_6 C 0.33085(19) 0.36859(26) 0.9516(2)
H20_6 H 0.3077 0.3638 0.9620
C38_8 C 0.37215(18) 0.31815(25) 0.8971(2)
C39_8 C 0.40453(19) 0.31823(26) 0.9016(2)
H21_8 H 0.4236 0.3369 0.9183
C40_8 C 0.4099(2) 0.29186(28) 0.8823(3)
H22_8 H 0.4324 0.2923 0.8863
C41_8 C 0.38291(17) 0.26509(24) 0.8575(2)
C42_8 C 0.34893(19) 0.26331(26) 0.8536(2)
H23_7 H 0.3299 0.2447 0.8368
C43_8 C 0.34365(19) 0.28937(26) 0.8747(2)
H24_7 H 0.3203 0.2876 0.8738
C44_8 C 0.38942(18) 0.23866(25) 0.8325(2)
O15_6 O 0.26677(12) 0.44267(17) 0.97287(16)
C11_8 C 0.98505(17) 0.38240(25) 0.9192(2)
H5_8 H 0.9672 0.3875 0.9076
C12_8 C 0.98020(18) 0.34752(26) 0.9162(2)
C15_8 C 0.94599(17) 0.31815(25) 0.8971(2)
C16_8 C 0.91369(18) 0.31823(26) 0.9016(2)
H8_8 H 0.9132 0.3369 0.9183
C17_8 C 0.88192(19) 0.29186(28) 0.8823(3)
H9_8 H 0.8598 0.2923 0.8863
C18_8 C 0.88217(17) 0.26509(24) 0.8575(2)
C19_8 C 0.91437(18) 0.26331(26) 0.8536(2)
H10_7 H 0.9147 0.2447 0.8368
C20_8 C 0.94571(18) 0.28937(26) 0.8747(2)
H11_7 H 0.9672 0.2876 0.8738
C21_8 C 0.84923(17) 0.23866(25) 0.8325(2)
C34_9 C 0.61760(25) 0.01495(17) 0.9192(2)
H18_9 H 0.6125 0.0328 0.9076
C35_9 C 0.65248(26) 0.01980(18) 0.9162(2)
C38_9 C 0.68185(25) 0.05401(17) 0.8971(2)
C39_9 C 0.68177(26) 0.08631(18) 0.9016(2)
H21_9 H 0.6631 0.0868 0.9183
C40_9 C 0.70814(28) 0.11808(19) 0.8823(3)
H22_9 H 0.7077 0.1402 0.8863
C41_9 C 0.73491(24) 0.11783(17) 0.8575(2)
C42_9 C 0.73669(26) 0.08563(18) 0.8536(2)
H23_8 H 0.7553 0.0853 0.8368
C43_9 C 0.71063(26) 0.05429(18) 0.8747(2)
H24_8 H 0.7124 0.0328 0.8738
C44_9 C 0.76134(25) 0.15077(17) 0.8325(2)
C1_9 C 0.49625(22) 0.58713(15) 0.06175(19)
C2_9 C 0.51810(22) 0.61632(16) 0.02991(19)
C3_9 C 0.54426(22) 0.61383(15) 0.00514(19)
H1_9 H 0.5460 0.5924 0.0066
C7_9 C 0.51391(23) 0.64653(16) 0.0263(2)
H3_9 H 0.4955 0.6480 0.0423
C22_8 C 0.56633(25) 0.78317(18) 0.0640(4)
H12_8 H 0.5803 0.7902 0.0899
Cu2_8 Cu 0.50107(3) 0.75054(2) 0.01807(5)
O1_9 O 0.42016(23) 0.57980(12) 0.1591(3)
O2_7 O 0.50805(19) 0.49195(9) 0.0780(2)
O4_8 O 0.45139(16) 0.72570(11) 0.0562(3)
O6_8 O 0.50789(17) 0.70786(12) 0.01481(17)
O7_9 O 0.47396(15) 0.59013(10) 0.08425(13)
O8_9 O 0.50319(16) 0.56119(11) 0.06284(13)
O11_8 O 0.53317(16) 0.76659(11) 0.0688(2)
O12_8 O 0.58373(14) 0.79187(10) 0.0298(3)
C24_9 C 0.49625(22) 0.90913(16) 0.06175(19)
C25_9 C 0.51810(22) 0.90179(15) 0.02991(19)
C26_9 C 0.54426(22) 0.93044(16) 0.00514(19)
H14_9 H 0.5460 0.9537 0.0066
C30_9 C 0.51391(23) 0.86739(16) 0.0263(2)
H16_9 H 0.4955 0.8476 0.0423
O16_8 O 0.50789(17) 0.80004(12) 0.01481(17)
C4_8 C 0.56759(23) 0.64216(16) 0.9786(2)
C5_7 C 0.56430(23) 0.67282(16) 0.9766(2)
H2_7 H 0.5810 0.6930 0.9595
C6_7 C 0.53703(22) 0.67487(16) 0.9990(2)
C8_7 C 0.53350(24) 0.70822(17) 0.9950(2)
C9_8 C 0.59713(24) 0.63940(17) 0.9557(2)
C10_8 C 0.59049(25) 0.60613(18) 0.9391(2)
H4_8 H 0.5667 0.5854 0.9415
C11_9 C 0.61760(25) 0.60266(18) 0.9192(2)
H5_9 H 0.6125 0.5798 0.9076
C12_9 C 0.65248(26) 0.63269(19) 0.9162(2)
C13_8 C 0.65931(26) 0.66566(19) 0.9323(2)
H6_7 H 0.6831 0.6863 0.9303
C14_7 C 0.63141(26) 0.66915(19) 0.9516(2)
H7_7 H 0.6362 0.6923 0.9620
C15_9 C 0.68185(25) 0.62785(18) 0.8971(2)
C16_9 C 0.68177(26) 0.59547(19) 0.9016(2)
H8_9 H 0.6631 0.5764 0.9183
C17_9 C 0.70814(28) 0.5901(2) 0.8823(3)
H9_9 H 0.7077 0.5676 0.8863
C18_9 C 0.73491(24) 0.61709(17) 0.8575(2)
C19_9 C 0.73669(26) 0.65107(19) 0.8536(2)
H10_8 H 0.7553 0.6701 0.8368
C20_9 C 0.71063(26) 0.65635(19) 0.8747(2)
H11_8 H 0.7124 0.6797 0.8738
C21_9 C 0.76134(25) 0.61058(18) 0.8325(2)
C23_7 C 0.4919(3) 0.7460(2) 0.9276(5)
H13_7 H 0.4769 0.7385 0.9025
Cu1_7 Cu 0.56055(3) 0.78028(2) 0.97005(4)
O3_7 O 0.60905(16) 0.80453(11) 0.9315(3)
O5_7 O 0.55733(17) 0.73323(12) 0.97287(16)
O13_7 O 0.52481(17) 0.76241(12) 0.9214(3)
O14_7 O 0.47519(17) 0.73760(12) 0.9639(3)
C27_8 C 0.56759(23) 0.92544(16) 0.9786(2)
C28_7 C 0.56430(23) 0.89149(17) 0.9766(2)
H15_7 H 0.5810 0.8881 0.9595
C29_7 C 0.53703(22) 0.86217(15) 0.9990(2)
C31_7 C 0.53350(24) 0.82529(17) 0.9950(2)
C32_8 C 0.59713(24) 0.95774(17) 0.9557(2)
C33_8 C 0.59049(25) 0.98437(17) 0.9391(2)
H17_8 H 0.5667 0.9814 0.9415
C36_8 C 0.65931(26) 0.99366(18) 0.9323(2)
H19_7 H 0.6831 0.9969 0.9303
C37_7 C 0.63141(26) 0.96227(18) 0.9516(2)
H20_7 H 0.6362 0.9440 0.9620
O15_7 O 0.55733(17) 0.82411(12) 0.97287(16)
C5_8 C 0.99385(16) 0.22482(17) 0.3099(2)
H2_8 H 0.9737 0.2214 0.2928
C6_8 C 0.99180(16) 0.19550(15) 0.3323(2)
C8_8 C 0.95845(17) 0.15862(17) 0.3283(2)
H6_8 H 0.9804 0.3302 0.2636
C14_8 C 0.99752(19) 0.29560(18) 0.2849(2)
H7_8 H 0.9744 0.2773 0.2953
H10_9 H 0.9966 0.4186 0.1701
H11_9 H 0.9870 0.3661 0.2071
C22_9 C 0.88350(18) 0.11650(18) 0.3973(4)
H12_9 H 0.8765 0.1235 0.4232
C23_8 C 0.9207(2) 0.0793(2) 0.2609(5)
H13_8 H 0.9282 0.0718 0.2358
Cu1_8 Cu 0.88639(2) 0.11361(2) 0.30338(4)
Cu2_9 Cu 0.91613(2) 0.08387(2) 0.35140(5)
O3_8 O 0.86214(11) 0.13786(11) 0.2648(3)
O4_9 O 0.94097(11) 0.05903(11) 0.3895(3)
O5_8 O 0.93344(12) 0.15744(12) 0.30620(16)
O6_9 O 0.95881(12) 0.13337(12) 0.34814(17)
O11_9 O 0.90008(11) 0.09992(11) 0.4021(2)
O12_9 O 0.87480(10) 0.12520(10) 0.3631(3)
O13_8 O 0.90426(12) 0.09574(12) 0.2547(3)
O14_8 O 0.92907(12) 0.07093(12) 0.2972(3)
C28_8 C 0.77518(17) 0.00615(16) 0.3099(2)
H15_8 H 0.7786 0.0263 0.2928
C29_8 C 0.80450(15) 0.00820(16) 0.3323(2)
C31_8 C 0.84138(17) 0.04155(17) 0.3283(2)
H19_8 H 0.6698 0.0196 0.2636
C37_8 C 0.70440(18) 0.00248(19) 0.2849(2)
H20_8 H 0.7227 0.0256 0.2953
H23_9 H 0.5814 0.0034 0.1701
H24_9 H 0.6339 0.0130 0.2071
O15_8 O 0.84256(12) 0.06656(12) 0.30620(16)
O16_9 O 0.86663(12) 0.04119(12) 0.34814(17)
C1_10 C 0.24246(16) 0.07954(15) 0.60492(19)
C2_10 C 0.23512(15) 0.05035(16) 0.63676(19)
C3_10 C 0.26377(16) 0.05284(15) 0.66153(19)
H1_10 H 0.2870 0.0743 0.6601
C4_9 C 0.25877(16) 0.02451(16) 0.6881(2)
C7_10 C 0.20072(16) 0.02014(16) 0.6404(2)
H3_10 H 0.1809 0.0187 0.6244
C9_9 C 0.29107(17) 0.02727(17) 0.7110(2)
C10_9 C 0.31770(17) 0.06054(18) 0.7276(2)
H4_9 H 0.3147 0.0813 0.7252
C11_10 C 0.34828(17) 0.06401(18) 0.7475(2)
H5_10 H 0.3661 0.0869 0.7591
C12_10 C 0.35313(18) 0.03398(19) 0.7505(2)
C13_9 C 0.32699(18) 0.00101(19) 0.7344(2)
C15_10 C 0.38734(17) 0.03882(18) 0.7696(2)
C16_10 C 0.41964(18) 0.07120(19) 0.7651(2)
H8_10 H 0.4201 0.0903 0.7484
C17_10 C 0.45141(19) 0.0766(2) 0.7844(3)
H9_10 H 0.4735 0.0991 0.7804
C18_10 C 0.45116(17) 0.04958(17) 0.8092(2)
C19_10 C 0.41896(18) 0.01560(19) 0.8131(2)
C20_10 C 0.38762(18) 0.01032(19) 0.7920(2)
C21_10 C 0.48410(17) 0.05609(18) 0.8342(2)
Cu3_3 Cu 0.22641(3) 0.11320(2) 0.53751(3)
Cu4_3 Cu 0.29441(3) 0.14720(2) 0.56499(3)
O1_10 O 0.1737(2) 0.08687(12) 0.5076(3)
O2_8 O 0.34944(17) 0.17472(9) 0.5887(2)
O7_10 O 0.21717(11) 0.07654(10) 0.58242(13)
O8_10 O 0.27534(11) 0.10548(11) 0.60383(13)
O9_4 O 0.51127(12) 0.08822(12) 0.83226(14)
O10_4 O 0.48222(11) 0.03053(12) 0.85558(15)
Cu7_3 Cu 0.55346(4) 0.10692(3) 0.87084(3)
Cu10_3 Cu 0.51946(4) 0.03892(3) 0.89832(3)
O21_4 O 0.21717(11) 0.14063(15) 0.58242(13)
O22_4 O 0.27534(11) 0.16986(16) 0.60383(13)
O23_7 O 0.24511(12) 0.08972(17) 0.49893(14)
O24_7 O 0.24511(12) 0.15540(12) 0.49893(14)
O25_7 O 0.30280(12) 0.11836(16) 0.52225(15)
O26_7 O 0.30280(12) 0.18445(11) 0.52225(15)
C24_10 C 0.92046(15) 0.75754(16) 0.60492(19)
C25_10 C 0.94965(16) 0.76488(15) 0.63676(19)
C26_10 C 0.94716(15) 0.73623(16) 0.66153(19)
H14_10 H 0.9257 0.7130 0.6601
C27_9 C 0.97549(16) 0.74123(16) 0.6881(2)
C30_10 C 0.97986(16) 0.79928(16) 0.6404(2)
H16_10 H 0.9813 0.8191 0.6244
C32_9 C 0.97273(17) 0.70893(17) 0.7110(2)
C33_9 C 0.93946(18) 0.68230(17) 0.7276(2)
H17_9 H 0.9187 0.6853 0.7252
C34_10 C 0.93599(18) 0.65172(17) 0.7475(2)
H18_10 H 0.9131 0.6339 0.7591
C35_10 C 0.96602(19) 0.64687(18) 0.7505(2)
C36_9 C 0.99899(19) 0.67301(18) 0.7344(2)
C38_10 C 0.96118(18) 0.61266(17) 0.7696(2)
C39_10 C 0.92880(19) 0.58036(18) 0.7651(2)
H21_10 H 0.9097 0.5799 0.7484
C40_10 C 0.9234(2) 0.54859(19) 0.7844(3)
H22_10 H 0.9009 0.5265 0.7804
C41_10 C 0.95042(17) 0.54884(17) 0.8092(2)
C42_10 C 0.98440(19) 0.58104(18) 0.8131(2)
C43_10 C 0.98968(19) 0.61238(18) 0.7920(2)
C44_10 C 0.94391(18) 0.51590(17) 0.8342(2)
O17_7 O 0.92346(10) 0.78283(11) 0.58242(13)
O18_7 O 0.89452(11) 0.72466(11) 0.60383(13)
O19_4 O 0.91178(12) 0.48873(12) 0.83226(14)
O20_4 O 0.96947(12) 0.51778(11) 0.85558(15)
Cu5_5 Cu 0.88679(4) 0.77359(3) 0.53751(3)
Cu6_2 Cu 0.89308(3) 0.44653(2) 0.87084(3)
Cu8_5 Cu 0.85279(4) 0.70559(3) 0.56499(3)
Cu9_2 Cu 0.96108(3) 0.48053(2) 0.89832(3)
C5_9 C 0.00615(16) 0.23097(23) 0.6901(2)
H2_9 H 0.0263 0.2477 0.7072
C6_9 C 0.00820(16) 0.20370(22) 0.6677(2)
C8_9 C 0.04155(17) 0.20017(24) 0.6717(2)
H6_9 H 0.0196 0.3498 0.7364
C14_9 C 0.00248(19) 0.29808(26) 0.7151(2)
H7_9 H 0.0256 0.3029 0.7047
H10_10 H 0.0034 0.4220 0.8299
H11_10 H 0.0130 0.3791 0.7929
C22_10 C 0.11650(18) 0.23300(25) 0.6027(4)
H12_10 H 0.1235 0.2470 0.5768
C23_9 C 0.0793(2) 0.1586(3) 0.7391(5)
H13_9 H 0.0718 0.1436 0.7642
Cu1_9 Cu 0.11361(2) 0.22722(3) 0.69662(4)
Cu2_10 Cu 0.08387(2) 0.16774(3) 0.64860(5)
O3_9 O 0.13786(11) 0.27572(16) 0.7352(3)
O4_10 O 0.05903(11) 0.11806(16) 0.6105(3)
O5_9 O 0.06656(12) 0.22400(17) 0.69380(16)
O6_10 O 0.04119(12) 0.17456(17) 0.65186(17)
O11_10 O 0.09992(11) 0.19984(16) 0.5979(2)
O12_10 O 0.12520(10) 0.25040(14) 0.6369(3)
O13_9 O 0.09574(12) 0.19148(17) 0.7453(3)
O14_9 O 0.07093(12) 0.14186(17) 0.7028(3)
C24_11 C 0.24246(16) 0.16292(22) 0.60492(19)
C25_11 C 0.23512(15) 0.18477(22) 0.63676(19)
C26_11 C 0.26377(16) 0.21093(22) 0.66153(19)
H14_11 H 0.2870 0.2127 0.6601
C27_10 C 0.25877(16) 0.23426(23) 0.6881(2)
C28_9 C 0.22482(17) 0.23097(23) 0.6901(2)
H15_9 H 0.2214 0.2477 0.7072
C29_9 C 0.19550(15) 0.20370(22) 0.6677(2)
C30_11 C 0.20072(16) 0.18058(23) 0.6404(2)
H16_11 H 0.1809 0.1622 0.6244
C31_9 C 0.15862(17) 0.20017(24) 0.6717(2)
C32_10 C 0.29107(17) 0.26380(24) 0.7110(2)
C33_10 C 0.31770(17) 0.25716(25) 0.7276(2)
H17_10 H 0.3147 0.2334 0.7252
C34_11 C 0.34828(17) 0.28427(25) 0.7475(2)
H18_11 H 0.3661 0.2792 0.7591
C35_11 C 0.35313(18) 0.31915(26) 0.7505(2)
C36_10 C 0.32699(18) 0.32598(26) 0.7344(2)
H19_9 H 0.3302 0.3498 0.7364
C37_9 C 0.29560(18) 0.29808(26) 0.7151(2)
H20_9 H 0.2773 0.3029 0.7047
C38_11 C 0.38734(17) 0.34852(25) 0.7696(2)
C39_11 C 0.41964(18) 0.34844(26) 0.7651(2)
H21_11 H 0.4201 0.3298 0.7484
C40_11 C 0.45141(19) 0.37481(28) 0.7844(3)
H22_11 H 0.4735 0.3744 0.7804
C41_11 C 0.45116(17) 0.40158(24) 0.8092(2)
C42_11 C 0.41896(18) 0.40336(26) 0.8131(2)
H23_10 H 0.4186 0.4220 0.8299
C43_11 C 0.38762(18) 0.37730(26) 0.7920(2)
H24_10 H 0.3661 0.3791 0.7929
C44_11 C 0.48410(17) 0.42801(25) 0.8342(2)
O15_9 O 0.15744(12) 0.22400(17) 0.69380(16)
O16_10 O 0.13337(12) 0.17456(17) 0.65186(17)
O19_5 O 0.51127(12) 0.42305(17) 0.83226(14)
O20_5 O 0.48222(11) 0.45169(16) 0.85558(15)
Cu6_3 Cu 0.55347(2) 0.44654(4) 0.87084(3)
Cu9_3 Cu 0.51947(2) 0.48054(4) 0.89832(3)
C1_11 C 0.92046(15) 0.16292(22) 0.60492(19)
C2_11 C 0.94965(16) 0.18477(22) 0.63676(19)
C3_11 C 0.94716(15) 0.21093(22) 0.66153(19)
H1_11 H 0.9257 0.2127 0.6601
C4_10 C 0.97549(16) 0.23426(23) 0.6881(2)
C7_11 C 0.97986(16) 0.18058(23) 0.6404(2)
H3_11 H 0.9813 0.1622 0.6244
C9_10 C 0.97273(17) 0.26380(24) 0.7110(2)
C10_10 C 0.93946(18) 0.25716(25) 0.7276(2)
H4_10 H 0.9187 0.2334 0.7252
C11_11 C 0.93599(18) 0.28427(25) 0.7475(2)
H5_11 H 0.9131 0.2792 0.7591
C12_11 C 0.96602(19) 0.31915(26) 0.7505(2)
C13_10 C 0.99899(19) 0.32598(26) 0.7344(2)
C15_11 C 0.96118(18) 0.34852(25) 0.7696(2)
C16_11 C 0.92880(19) 0.34844(26) 0.7651(2)
H8_11 H 0.9097 0.3298 0.7484
C17_11 C 0.9234(2) 0.37481(28) 0.7844(3)
H9_11 H 0.9009 0.3744 0.7804
C18_11 C 0.95042(17) 0.40158(24) 0.8092(2)
C19_11 C 0.98440(19) 0.40336(26) 0.8131(2)
C20_11 C 0.98968(19) 0.37730(26) 0.7920(2)
C21_11 C 0.94391(18) 0.42801(25) 0.8342(2)
Cu3_4 Cu 0.88680(2) 0.11321(4) 0.53751(3)
Cu4_4 Cu 0.85280(2) 0.14721(4) 0.56499(3)
O1_11 O 0.91313(12) 0.08683(23) 0.5076(3)
O2_9 O 0.82528(9) 0.17472(19) 0.5887(2)
O7_11 O 0.92346(10) 0.14063(15) 0.58242(13)
O8_11 O 0.89452(11) 0.16986(16) 0.60383(13)
O9_5 O 0.91178(12) 0.42305(17) 0.83226(14)
O10_5 O 0.96947(12) 0.45169(16) 0.85558(15)
O21_5 O 0.85937(15) 0.07654(19) 0.58242(13)
O22_5 O 0.83014(16) 0.10548(19) 0.60383(13)
O23_8 O 0.91028(17) 0.15540(21) 0.49893(14)
O24_8 O 0.84460(12) 0.08972(17) 0.49893(14)
O25_8 O 0.88164(16) 0.18445(20) 0.52225(15)
O26_8 O 0.81555(11) 0.11836(16) 0.52225(15)
C24_12 C 0.83708(22) 0.07954(15) 0.60492(19)
C25_12 C 0.81523(22) 0.05035(16) 0.63676(19)
C26_12 C 0.78907(22) 0.05284(15) 0.66153(19)
H14_12 H 0.7873 0.0743 0.6601
C27_11 C 0.76574(23) 0.02451(16) 0.6881(2)
C30_12 C 0.81942(23) 0.02014(16) 0.6404(2)
H16_12 H 0.8378 0.0187 0.6244
C32_11 C 0.73620(24) 0.02727(17) 0.7110(2)
C33_11 C 0.74284(25) 0.06054(18) 0.7276(2)
H17_11 H 0.7666 0.0813 0.7252
C34_12 C 0.71573(25) 0.06401(18) 0.7475(2)
H18_12 H 0.7208 0.0869 0.7591
C35_12 C 0.68085(26) 0.03398(19) 0.7505(2)
C36_11 C 0.67402(26) 0.00101(19) 0.7344(2)
C38_12 C 0.65148(25) 0.03882(18) 0.7696(2)
C39_12 C 0.65156(26) 0.07120(19) 0.7651(2)
H21_12 H 0.6702 0.0903 0.7484
C40_12 C 0.62519(28) 0.0766(2) 0.7844(3)
H22_12 H 0.6256 0.0991 0.7804
C41_12 C 0.59842(24) 0.04958(17) 0.8092(2)
C42_12 C 0.59664(26) 0.01560(19) 0.8131(2)
C43_12 C 0.62270(26) 0.01032(19) 0.7920(2)
C44_12 C 0.57199(25) 0.05609(18) 0.8342(2)
O19_6 O 0.57695(17) 0.08822(12) 0.83226(14)
O20_6 O 0.54831(16) 0.03053(12) 0.85558(15)
C1_12 C 0.83708(22) 0.75754(16) 0.60492(19)
C2_12 C 0.81523(22) 0.76488(15) 0.63676(19)
C3_12 C 0.78907(22) 0.73623(16) 0.66153(19)
H1_12 H 0.7873 0.7130 0.6601
C4_11 C 0.76574(23) 0.74123(16) 0.6881(2)
C5_10 C 0.76903(23) 0.77518(17) 0.6901(2)
H2_10 H 0.7523 0.7786 0.7072
C6_10 C 0.79630(22) 0.80450(15) 0.6677(2)
C7_12 C 0.81942(23) 0.79928(16) 0.6404(2)
H3_12 H 0.8378 0.8191 0.6244
C8_10 C 0.79983(24) 0.84138(17) 0.6717(2)
C9_11 C 0.73620(24) 0.70893(17) 0.7110(2)
C10_11 C 0.74284(25) 0.68230(17) 0.7276(2)
H4_11 H 0.7666 0.6853 0.7252
C11_12 C 0.71573(25) 0.65172(17) 0.7475(2)
H5_12 H 0.7208 0.6339 0.7591
C12_12 C 0.68085(26) 0.64687(18) 0.7505(2)
C13_11 C 0.67402(26) 0.67301(18) 0.7344(2)
H6_10 H 0.6502 0.6698 0.7364
C14_10 C 0.70192(26) 0.70440(18) 0.7151(2)
H7_10 H 0.6971 0.7227 0.7047
C15_12 C 0.65148(25) 0.61266(17) 0.7696(2)
C16_12 C 0.65156(26) 0.58036(18) 0.7651(2)
H8_12 H 0.6702 0.5799 0.7484
C17_12 C 0.62519(28) 0.54859(19) 0.7844(3)
H9_12 H 0.6256 0.5265 0.7804
C18_12 C 0.59842(24) 0.54884(17) 0.8092(2)
C19_12 C 0.59664(26) 0.58104(18) 0.8131(2)
H10_11 H 0.5780 0.5814 0.8299
C20_12 C 0.62270(26) 0.61238(18) 0.7920(2)
H11_11 H 0.6209 0.6339 0.7929
C21_12 C 0.57199(25) 0.51590(17) 0.8342(2)
C22_11 C 0.76700(25) 0.88350(18) 0.6027(4)
H12_11 H 0.7530 0.8765 0.5768
C23_10 C 0.8414(3) 0.9207(2) 0.7391(5)
H13_10 H 0.8564 0.9282 0.7642
Cu1_10 Cu 0.77278(3) 0.88639(2) 0.69662(4)
Cu2_11 Cu 0.83226(3) 0.91613(2) 0.64860(5)
O1_12 O 0.91317(23) 0.8263(2) 0.5076(3)
O2_10 O 0.82528(19) 0.65056(17) 0.5887(2)
O3_10 O 0.72428(16) 0.86214(11) 0.7352(3)
O4_11 O 0.88194(16) 0.94097(11) 0.6105(3)
O5_10 O 0.77600(17) 0.84256(12) 0.69380(16)
O6_11 O 0.82544(17) 0.86663(12) 0.65186(17)
O7_12 O 0.85937(15) 0.78283(11) 0.58242(13)
O8_12 O 0.83014(16) 0.72466(11) 0.60383(13)
O9_6 O 0.57695(17) 0.48873(12) 0.83226(14)
O10_6 O 0.54831(16) 0.51778(11) 0.85558(15)
O11_11 O 0.80016(16) 0.90008(11) 0.5979(2)
O12_11 O 0.74960(14) 0.87480(10) 0.6369(3)
O13_10 O 0.80852(17) 0.90426(12) 0.7453(3)
O14_10 O 0.85814(17) 0.92907(12) 0.7028(3)
C28_10 C 0.76903(23) 0.99385(16) 0.6901(2)
H15_10 H 0.7523 0.9737 0.7072
C29_10 C 0.79630(22) 0.99180(16) 0.6677(2)
C31_10 C 0.79983(24) 0.95845(17) 0.6717(2)
H19_10 H 0.6502 0.9804 0.7364
C37_10 C 0.70192(26) 0.99752(19) 0.7151(2)
H20_10 H 0.6971 0.9744 0.7047
H23_11 H 0.5780 0.9966 0.8299
H24_11 H 0.6209 0.9870 0.7929
O15_10 O 0.77600(17) 0.93344(12) 0.69380(16)
O16_11 O 0.82544(17) 0.95881(12) 0.65186(17)
O23_9 O 0.84460(21) 0.75489(12) 0.49893(14)
O24_9 O 0.91028(17) 0.75489(12) 0.49893(14)
O25_9 O 0.81555(20) 0.69720(12) 0.52225(15)
O26_9 O 0.88164(16) 0.69720(12) 0.52225(15)
C11_13 C 0.01495(17) 0.39734(18) 0.0808(2)
H5_13 H 0.0328 0.4202 0.0924
C12_13 C 0.01980(18) 0.36731(19) 0.0838(2)
C15_13 C 0.05401(17) 0.37215(18) 0.1029(2)
C16_13 C 0.08631(18) 0.40453(19) 0.0984(2)
H8_13 H 0.0868 0.4236 0.0817
C17_13 C 0.11808(19) 0.4099(2) 0.1177(3)
H9_13 H 0.1402 0.4324 0.1137
C18_13 C 0.11783(17) 0.38291(17) 0.1425(2)
C19_13 C 0.08563(18) 0.34893(19) 0.1464(2)
H10_12 H 0.0853 0.3299 0.1632
C20_13 C 0.05429(18) 0.34365(19) 0.1253(2)
H11_12 H 0.0328 0.3203 0.1262
C21_13 C 0.15077(17) 0.38942(18) 0.1675(2)
O9_7 O 0.17794(12) 0.42155(12) 0.16559(14)
O10_7 O 0.14889(11) 0.36386(12) 0.18891(15)
Cu7_4 Cu 0.22012(4) 0.44026(3) 0.20418(3)
Cu10_4 Cu 0.18612(4) 0.37226(3) 0.23166(3)
C1_13 C 0.90913(16) 0.41287(15) 0.93825(19)
C2_13 C 0.90179(15) 0.38368(16) 0.97009(19)
C3_13 C 0.93044(16) 0.38617(15) 0.99486(19)
H1_13 H 0.9537 0.4076 0.9934
C7_13 C 0.86739(16) 0.35347(16) 0.9737(2)
H3_13 H 0.8476 0.3520 0.9577
C22_12 C 0.78317(18) 0.21683(18) 0.9360(4)
H12_12 H 0.7902 0.2098 0.9101
Cu2_12 Cu 0.75054(2) 0.24946(2) 0.98193(5)
O1_13 O 0.8404(2) 0.42020(12) 0.8409(3)
O4_12 O 0.72570(11) 0.27430(11) 0.9438(3)
O6_12 O 0.80004(12) 0.29214(12) 0.98519(17)
O7_13 O 0.88384(11) 0.40987(10) 0.91575(13)
O8_13 O 0.94201(11) 0.43881(11) 0.93716(13)
O11_12 O 0.76659(11) 0.23341(11) 0.9312(2)
O12_12 O 0.79187(10) 0.20813(10) 0.9702(3)
C24_13 C 0.58713(15) 0.09087(16) 0.93825(19)
C25_13 C 0.61632(16) 0.09821(15) 0.97009(19)
C26_13 C 0.61383(15) 0.06956(16) 0.99486(19)
H14_13 H 0.5924 0.0463 0.9934
C30_13 C 0.64653(16) 0.13261(16) 0.9737(2)
H16_13 H 0.6480 0.1524 0.9577
O16_12 O 0.70786(12) 0.19996(12) 0.98519(17)
O17_8 O 0.59013(10) 0.11616(11) 0.91575(13)
O18_8 O 0.56119(11) 0.05799(11) 0.93716(13)
O21_6 O 0.88384(11) 0.47396(15) 0.91575(13)
O22_6 O 0.94201(11) 0.50319(16) 0.93716(13)
C34_13 C 0.60266(18) 0.98505(17) 0.0808(2)
H18_13 H 0.5798 0.9672 0.0924
C35_13 C 0.63269(19) 0.98020(18) 0.0838(2)
C38_13 C 0.62785(18) 0.94599(17) 0.1029(2)
C39_13 C 0.59547(19) 0.91369(18) 0.0984(2)
H21_13 H 0.5764 0.9132 0.0817
C40_13 C 0.5901(2) 0.88192(19) 0.1177(3)
H22_13 H 0.5676 0.8598 0.1137
C41_13 C 0.61709(17) 0.88217(17) 0.1425(2)
C42_13 C 0.65107(19) 0.91437(18) 0.1464(2)
H23_12 H 0.6701 0.9147 0.1632
C43_13 C 0.65635(19) 0.94571(18) 0.1253(2)
H24_12 H 0.6797 0.9672 0.1262
C44_13 C 0.61058(18) 0.84923(17) 0.1675(2)
O19_7 O 0.57845(12) 0.82206(12) 0.16559(14)
O20_7 O 0.63614(12) 0.85111(11) 0.18891(15)
Cu6_4 Cu 0.55974(3) 0.77987(2) 0.20418(3)
Cu9_4 Cu 0.62774(3) 0.81387(2) 0.23166(3)
C34_14 C 0.01495(17) 0.61760(25) 0.0808(2)
H18_14 H 0.0328 0.6125 0.0924
C35_14 C 0.01980(18) 0.65248(26) 0.0838(2)
C38_14 C 0.05401(17) 0.68185(25) 0.1029(2)
C39_14 C 0.08631(18) 0.68177(26) 0.0984(2)
H21_14 H 0.0868 0.6631 0.0817
C40_14 C 0.11808(19) 0.70814(28) 0.1177(3)
H22_14 H 0.1402 0.7077 0.1137
C41_14 C 0.11783(17) 0.73491(24) 0.1425(2)
C42_14 C 0.08563(18) 0.73669(26) 0.1464(2)
H23_13 H 0.0853 0.7553 0.1632
C43_14 C 0.05429(18) 0.71063(26) 0.1253(2)
H24_13 H 0.0328 0.7124 0.1262
C44_14 C 0.15077(17) 0.76134(25) 0.1675(2)
O19_8 O 0.17794(12) 0.75638(17) 0.16559(14)
O20_8 O 0.14889(11) 0.78502(16) 0.18891(15)
Cu6_5 Cu 0.22013(2) 0.77988(4) 0.20418(3)
Cu9_5 Cu 0.18613(2) 0.81388(4) 0.23166(3)
C4_12 C 0.64216(16) 0.56759(23) 0.0214(2)
C5_11 C 0.67282(16) 0.56430(23) 0.0234(2)
H2_11 H 0.6930 0.5810 0.0405
C6_11 C 0.67487(16) 0.53703(22) 0.0010(2)
C8_11 C 0.70822(17) 0.53350(24) 0.0050(2)
C9_12 C 0.63940(17) 0.59713(24) 0.0443(2)
C10_12 C 0.60613(18) 0.59049(25) 0.0609(2)
H4_12 H 0.5854 0.5667 0.0585
C11_14 C 0.60266(18) 0.61760(25) 0.0808(2)
H5_14 H 0.5798 0.6125 0.0924
C12_14 C 0.63269(19) 0.65248(26) 0.0838(2)
C13_12 C 0.66566(19) 0.65931(26) 0.0677(2)
H6_11 H 0.6863 0.6831 0.0697
C14_11 C 0.66915(19) 0.63141(26) 0.0484(2)
H7_11 H 0.6923 0.6362 0.0380
C15_14 C 0.62785(18) 0.68185(25) 0.1029(2)
C16_14 C 0.59547(19) 0.68177(26) 0.0984(2)
H8_14 H 0.5764 0.6631 0.0817
C17_14 C 0.5901(2) 0.70814(28) 0.1177(3)
H9_14 H 0.5676 0.7077 0.1137
C18_14 C 0.61709(17) 0.73491(24) 0.1425(2)
C19_14 C 0.65107(19) 0.73669(26) 0.1464(2)
H10_13 H 0.6701 0.7553 0.1632
C20_14 C 0.65635(19) 0.71063(26) 0.1253(2)
H11_13 H 0.6797 0.7124 0.1262
C21_14 C 0.61058(18) 0.76134(25) 0.1675(2)
C23_11 C 0.7460(2) 0.4919(3) 0.0724(5)
H13_11 H 0.7385 0.4769 0.0975
Cu1_11 Cu 0.78028(2) 0.56055(3) 0.02995(4)
O3_11 O 0.80453(11) 0.60905(16) 0.0685(3)
O5_11 O 0.73323(12) 0.55733(17) 0.02713(16)
O9_8 O 0.57845(12) 0.75638(17) 0.16559(14)
O10_8 O 0.63614(12) 0.78502(16) 0.18891(15)
O13_11 O 0.76241(12) 0.52481(17) 0.0786(3)
O14_11 O 0.73760(12) 0.47519(17) 0.0361(3)
C27_12 C 0.92544(16) 0.56759(23) 0.0214(2)
C28_11 C 0.89149(17) 0.56430(23) 0.0234(2)
H15_11 H 0.8881 0.5810 0.0405
C29_11 C 0.86217(15) 0.53703(22) 0.0010(2)
C31_11 C 0.82529(17) 0.53350(24) 0.0050(2)
C32_12 C 0.95774(17) 0.59713(24) 0.0443(2)
C33_12 C 0.98437(17) 0.59049(25) 0.0609(2)
H17_12 H 0.9814 0.5667 0.0585
C36_12 C 0.99366(18) 0.65931(26) 0.0677(2)
H19_11 H 0.9969 0.6831 0.0697
C37_11 C 0.96227(18) 0.63141(26) 0.0484(2)
H20_11 H 0.9440 0.6362 0.0380
O15_11 O 0.82411(12) 0.55733(17) 0.02713(16)
C1_14 C 0.58713(15) 0.49625(22) 0.93825(19)
C2_14 C 0.61632(16) 0.51810(22) 0.97009(19)
C3_14 C 0.61383(15) 0.54426(22) 0.99486(19)
H1_14 H 0.5924 0.5460 0.9934
C7_14 C 0.64653(16) 0.51391(23) 0.9737(2)
H3_14 H 0.6480 0.4955 0.9577
C22_13 C 0.78317(18) 0.56633(25) 0.9360(4)
H12_13 H 0.7902 0.5803 0.9101
Cu2_13 Cu 0.75054(2) 0.50107(3) 0.98193(5)
O1_14 O 0.57980(12) 0.42016(23) 0.8409(3)
O2_11 O 0.49195(9) 0.50805(19) 0.9220(2)
O4_13 O 0.72570(11) 0.45139(16) 0.9438(3)
O6_13 O 0.70786(12) 0.50789(17) 0.98519(17)
O7_14 O 0.59013(10) 0.47396(15) 0.91575(13)
O8_14 O 0.56119(11) 0.50319(16) 0.93716(13)
O11_13 O 0.76659(11) 0.53317(16) 0.9312(2)
O12_13 O 0.79187(10) 0.58373(14) 0.9702(3)
C24_14 C 0.90913(16) 0.49625(22) 0.93825(19)
C25_14 C 0.90179(15) 0.51810(22) 0.97009(19)
C26_14 C 0.93044(16) 0.54426(22) 0.99486(19)
H14_14 H 0.9537 0.5460 0.9934
C30_14 C 0.86739(16) 0.51391(23) 0.9737(2)
H16_14 H 0.8476 0.4955 0.9577
O16_13 O 0.80004(12) 0.50789(17) 0.98519(17)
O21_7 O 0.52604(15) 0.40987(19) 0.91575(13)
O22_7 O 0.49681(16) 0.43881(19) 0.93716(13)
C4_13 C 0.43241(23) 0.07456(16) 0.0214(2)
C5_12 C 0.43570(23) 0.10851(17) 0.0234(2)
H2_12 H 0.4190 0.1119 0.0405
C6_12 C 0.46297(22) 0.13783(15) 0.0010(2)
C8_12 C 0.46650(24) 0.17471(17) 0.0050(2)
C9_13 C 0.40287(24) 0.04226(17) 0.0443(2)
C10_13 C 0.40951(25) 0.01563(17) 0.0609(2)
H4_13 H 0.4333 0.0186 0.0585
C13_13 C 0.34069(26) 0.00634(18) 0.0677(2)
H6_12 H 0.3169 0.0031 0.0697
C14_12 C 0.36859(26) 0.03773(18) 0.0484(2)
H7_12 H 0.3638 0.0560 0.0380
C23_12 C 0.5081(3) 0.2540(2) 0.0724(5)
H13_12 H 0.5231 0.2615 0.0975
Cu1_12 Cu 0.43945(3) 0.21972(2) 0.02995(4)
O3_12 O 0.39095(16) 0.19547(11) 0.0685(3)
O5_12 O 0.44267(17) 0.17589(12) 0.02713(16)
O13_12 O 0.47519(17) 0.23759(12) 0.0786(3)
O14_12 O 0.52481(17) 0.26240(12) 0.0361(3)
C27_13 C 0.43241(23) 0.35784(16) 0.0214(2)
C28_12 C 0.43570(23) 0.32718(16) 0.0234(2)
H15_12 H 0.4190 0.3070 0.0405
C29_12 C 0.46297(22) 0.32513(16) 0.0010(2)
C31_12 C 0.46650(24) 0.29178(17) 0.0050(2)
C32_13 C 0.40287(24) 0.36060(17) 0.0443(2)
C33_13 C 0.40951(25) 0.39387(18) 0.0609(2)
H17_13 H 0.4333 0.4146 0.0585
C34_15 C 0.38240(25) 0.39734(18) 0.0808(2)
H18_15 H 0.3875 0.4202 0.0924
C35_15 C 0.34752(26) 0.36731(19) 0.0838(2)
C36_13 C 0.34069(26) 0.33434(19) 0.0677(2)
H19_12 H 0.3169 0.3137 0.0697
C37_12 C 0.36859(26) 0.33085(19) 0.0484(2)
H20_12 H 0.3638 0.3077 0.0380
C38_15 C 0.31815(25) 0.37215(18) 0.1029(2)
C39_15 C 0.31823(26) 0.40453(19) 0.0984(2)
H21_15 H 0.3369 0.4236 0.0817
C40_15 C 0.29186(28) 0.4099(2) 0.1177(3)
H22_15 H 0.2923 0.4324 0.1137
C41_15 C 0.26509(24) 0.38291(17) 0.1425(2)
C42_15 C 0.26331(26) 0.34893(19) 0.1464(2)
H23_14 H 0.2447 0.3299 0.1632
C43_15 C 0.28937(26) 0.34365(19) 0.1253(2)
H24_14 H 0.2876 0.3203 0.1262
C44_15 C 0.23866(25) 0.38942(18) 0.1675(2)
O15_12 O 0.44267(17) 0.26677(12) 0.02713(16)
O19_9 O 0.24362(17) 0.42155(12) 0.16559(14)
O20_9 O 0.21498(16) 0.36386(12) 0.18891(15)
C1_15 C 0.50375(22) 0.09087(16) 0.93825(19)
C2_15 C 0.48190(22) 0.09821(15) 0.97009(19)
C3_15 C 0.45574(22) 0.06956(16) 0.99486(19)
H1_15 H 0.4540 0.0463 0.9934
C7_15 C 0.48609(23) 0.13261(16) 0.9737(2)
H3_15 H 0.5045 0.1524 0.9577
C22_14 C 0.43367(25) 0.21683(18) 0.9360(4)
H12_14 H 0.4197 0.2098 0.9101
Cu2_14 Cu 0.49893(3) 0.24946(2) 0.98193(5)
O1_15 O 0.57984(23) 0.1596(2) 0.8409(3)
O4_14 O 0.54861(16) 0.27430(11) 0.9438(3)
O6_14 O 0.49211(17) 0.19996(12) 0.98519(17)
O7_15 O 0.52604(15) 0.11616(11) 0.91575(13)
O8_15 O 0.49681(16) 0.05799(11) 0.93716(13)
O11_14 O 0.46683(16) 0.23341(11) 0.9312(2)
O12_14 O 0.41627(14) 0.20813(10) 0.9702(3)
C24_15 C 0.50375(22) 0.41287(15) 0.93825(19)
C25_15 C 0.48190(22) 0.38368(16) 0.97009(19)
C26_15 C 0.45574(22) 0.38617(15) 0.99486(19)
H14_15 H 0.4540 0.4076 0.9934
C30_15 C 0.48609(23) 0.35347(16) 0.9737(2)
H16_15 H 0.5045 0.3520 0.9577
O16_14 O 0.49211(17) 0.29214(12) 0.98519(17)
C11_15 C 0.38240(25) 0.98505(17) 0.0808(2)
H5_15 H 0.3875 0.9672 0.0924
C12_15 C 0.34752(26) 0.98020(18) 0.0838(2)
C15_15 C 0.31815(25) 0.94599(17) 0.1029(2)
C16_15 C 0.31823(26) 0.91369(18) 0.0984(2)
H8_15 H 0.3369 0.9132 0.0817
C17_15 C 0.29186(28) 0.88192(19) 0.1177(3)
H9_15 H 0.2923 0.8598 0.1137
C18_15 C 0.26509(24) 0.88217(17) 0.1425(2)
C19_15 C 0.26331(26) 0.91437(18) 0.1464(2)
H10_14 H 0.2447 0.9147 0.1632
C20_15 C 0.28937(26) 0.94571(18) 0.1253(2)
H11_14 H 0.2876 0.9672 0.1262
C21_15 C 0.23866(25) 0.84923(17) 0.1675(2)
O9_9 O 0.24362(17) 0.82206(12) 0.16559(14)
O10_9 O 0.21498(16) 0.85111(11) 0.18891(15)
C1_16 C 0.57579(16) 0.74621(15) 0.27159(19)
C2_16 C 0.56845(15) 0.71702(16) 0.30343(19)
C3_16 C 0.59710(16) 0.71951(15) 0.32820(19)
H1_16 H 0.6203 0.7410 0.3268
C4_14 C 0.59210(16) 0.69118(16) 0.3548(2)
C5_13 C 0.55815(17) 0.66052(16) 0.3568(2)
H2_13 H 0.5547 0.6404 0.3739
C6_13 C 0.52883(15) 0.65847(16) 0.3344(2)
C7_16 C 0.53405(16) 0.68681(16) 0.3071(2)
H3_16 H 0.5142 0.6854 0.2911
C8_13 C 0.49195(17) 0.62512(17) 0.3384(2)
C9_14 C 0.62440(17) 0.69394(17) 0.3777(2)
C10_14 C 0.65103(17) 0.72721(18) 0.3943(2)
H4_14 H 0.6480 0.7480 0.3919
C11_16 C 0.68161(17) 0.73068(18) 0.4142(2)
H5_16 H 0.6994 0.7536 0.4258
C12_16 C 0.68646(18) 0.70065(19) 0.4172(2)
C13_14 C 0.66032(18) 0.66768(19) 0.4011(2)
H6_13 H 0.6635 0.6471 0.4031
C14_13 C 0.62893(18) 0.66419(19) 0.3818(2)
H7_13 H 0.6106 0.6411 0.3714
C15_16 C 0.72067(17) 0.70549(18) 0.4363(2)
C16_16 C 0.75297(18) 0.73787(19) 0.4318(2)
H8_16 H 0.7534 0.7570 0.4151
C17_16 C 0.78474(19) 0.7433(2) 0.4511(3)
H9_16 H 0.8068 0.7658 0.4471
C18_16 C 0.78449(17) 0.71625(17) 0.4759(2)
C19_16 C 0.75229(18) 0.68227(19) 0.4798(2)
H10_15 H 0.7519 0.6633 0.4966
C20_16 C 0.72095(18) 0.67699(19) 0.4587(2)
H11_15 H 0.6994 0.6537 0.4596
C21_16 C 0.81743(17) 0.72276(18) 0.5009(2)
C22_15 C 0.44983(18) 0.55017(18) 0.2694(4)
H12_15 H 0.4568 0.5432 0.2435
C23_13 C 0.4126(2) 0.5874(2) 0.4058(5)
H13_13 H 0.4051 0.5949 0.4309
Cu1_13 Cu 0.44694(2) 0.55306(2) 0.36329(4)
Cu2_15 Cu 0.41720(2) 0.58280(2) 0.31527(5)
O1_16 O 0.5070(2) 0.75354(12) 0.1743(3)
O2_12 O 0.68277(17) 0.84139(9) 0.2554(2)
O3_13 O 0.47119(11) 0.52881(11) 0.4019(3)
O4_15 O 0.39236(11) 0.60764(11) 0.2772(3)
O5_13 O 0.49077(12) 0.60011(12) 0.36047(16)
O6_15 O 0.46670(12) 0.62548(12) 0.31853(17)
O7_16 O 0.55050(11) 0.74321(10) 0.24909(13)
O8_16 O 0.60867(11) 0.77215(11) 0.27050(13)
O11_15 O 0.43325(11) 0.56675(11) 0.2646(2)
O12_15 O 0.45853(10) 0.54147(10) 0.3036(3)
O13_13 O 0.42907(12) 0.57093(12) 0.4120(3)
O14_13 O 0.40426(12) 0.59574(12) 0.3695(3)
C24_16 C 0.25379(15) 0.42421(16) 0.27159(19)
C25_16 C 0.28298(16) 0.43155(15) 0.30343(19)
C26_16 C 0.28049(15) 0.40290(16) 0.32820(19)
H14_16 H 0.2590 0.3797 0.3268
C27_14 C 0.30882(16) 0.40790(16) 0.3548(2)
C28_13 C 0.33948(16) 0.44185(17) 0.3568(2)
H15_13 H 0.3596 0.4453 0.3739
C29_13 C 0.34153(16) 0.47117(15) 0.3344(2)
C30_16 C 0.31319(16) 0.46595(16) 0.3071(2)
H16_16 H 0.3146 0.4858 0.2911
C31_13 C 0.37488(17) 0.50805(17) 0.3384(2)
C32_14 C 0.30606(17) 0.37560(17) 0.3777(2)
C33_14 C 0.27279(18) 0.34897(17) 0.3943(2)
H17_14 H 0.2520 0.3520 0.3919
C34_16 C 0.26932(18) 0.31839(17) 0.4142(2)
H18_16 H 0.2464 0.3006 0.4258
C35_16 C 0.29935(19) 0.31354(18) 0.4172(2)
C36_14 C 0.33232(19) 0.33968(18) 0.4011(2)
H19_13 H 0.3529 0.3365 0.4031
C37_13 C 0.33581(19) 0.37107(18) 0.3818(2)
H20_13 H 0.3589 0.3894 0.3714
C38_16 C 0.29451(18) 0.27933(17) 0.4363(2)
C39_16 C 0.26213(19) 0.24703(18) 0.4318(2)
H21_16 H 0.2430 0.2466 0.4151
C40_16 C 0.2567(2) 0.21526(19) 0.4511(3)
H22_16 H 0.2342 0.1932 0.4471
C41_16 C 0.28375(17) 0.21551(17) 0.4759(2)
C42_16 C 0.31773(19) 0.24771(18) 0.4798(2)
H23_15 H 0.3367 0.2481 0.4966
C43_16 C 0.32301(19) 0.27905(18) 0.4587(2)
H24_15 H 0.3463 0.3006 0.4596
C44_16 C 0.27724(18) 0.18257(17) 0.5009(2)
O15_13 O 0.39989(12) 0.50923(12) 0.36047(16)
O16_15 O 0.37452(12) 0.53330(12) 0.31853(17)
O17_9 O 0.25679(10) 0.44950(11) 0.24909(13)
O18_9 O 0.22785(11) 0.39133(11) 0.27050(13)
O21_8 O 0.55050(11) 0.80730(15) 0.24909(13)
O22_8 O 0.60867(11) 0.83653(16) 0.27050(13)
H6_14 H 0.3529 0.0165 0.4031
C15_17 C 0.29451(18) 0.01519(25) 0.4363(2)
C16_17 C 0.26213(19) 0.01511(26) 0.4318(2)
C17_17 C 0.2567(2) 0.04148(28) 0.4511(3)
H9_17 H 0.2342 0.0411 0.4471
C18_17 C 0.28375(17) 0.06825(24) 0.4759(2)
C19_17 C 0.31773(19) 0.07003(26) 0.4798(2)
H10_16 H 0.3367 0.0887 0.4966
C20_17 C 0.32301(19) 0.04397(26) 0.4587(2)
H11_16 H 0.3463 0.0458 0.4596
C21_17 C 0.27724(18) 0.09468(25) 0.5009(2)
H19_14 H 0.6635 0.0165 0.4031
C38_17 C 0.72067(17) 0.01519(25) 0.4363(2)
C39_17 C 0.75297(18) 0.01511(26) 0.4318(2)
C40_17 C 0.78474(19) 0.04148(28) 0.4511(3)
H22_17 H 0.8068 0.0411 0.4471
C41_17 C 0.78449(17) 0.06825(24) 0.4759(2)
C42_17 C 0.75229(18) 0.07003(26) 0.4798(2)
H23_16 H 0.7519 0.0887 0.4966
C43_17 C 0.72095(18) 0.04397(26) 0.4587(2)
H24_16 H 0.6994 0.0458 0.4596
C44_17 C 0.81743(17) 0.09468(25) 0.5009(2)
C1_17 C 0.25379(15) 0.82959(22) 0.27159(19)
C2_17 C 0.28298(16) 0.85144(22) 0.30343(19)
C3_17 C 0.28049(15) 0.87760(22) 0.32820(19)
H1_17 H 0.2590 0.8794 0.3268
C4_15 C 0.30882(16) 0.90093(23) 0.3548(2)
C5_14 C 0.33948(16) 0.89764(23) 0.3568(2)
H2_14 H 0.3596 0.9144 0.3739
C6_14 C 0.34153(16) 0.87037(22) 0.3344(2)
C7_17 C 0.31319(16) 0.84725(23) 0.3071(2)
H3_17 H 0.3146 0.8289 0.2911
C8_14 C 0.37488(17) 0.86684(24) 0.3384(2)
C9_15 C 0.30606(17) 0.93047(24) 0.3777(2)
C10_15 C 0.27279(18) 0.92383(25) 0.3943(2)
H4_15 H 0.2520 0.9001 0.3919
C11_17 C 0.26932(18) 0.95094(25) 0.4142(2)
H5_17 H 0.2464 0.9459 0.4258
C12_17 C 0.29935(19) 0.98582(26) 0.4172(2)
C13_15 C 0.33232(19) 0.99265(26) 0.4011(2)
C14_14 C 0.33581(19) 0.96475(26) 0.3818(2)
H7_14 H 0.3589 0.9696 0.3714
H8_17 H 0.2430 0.9965 0.4151
C22_16 C 0.44983(18) 0.89967(25) 0.2694(4)
H12_16 H 0.4568 0.9137 0.2435
C23_14 C 0.4126(2) 0.8253(3) 0.4058(5)
H13_14 H 0.4051 0.8103 0.4309
Cu1_14 Cu 0.44694(2) 0.89389(3) 0.36329(4)
Cu2_16 Cu 0.41720(2) 0.83441(3) 0.31527(5)
O1_17 O 0.24646(12) 0.75350(23) 0.1743(3)
O2_13 O 0.15861(9) 0.84139(19) 0.2554(2)
O3_14 O 0.47119(11) 0.94239(16) 0.4019(3)
O4_16 O 0.39236(11) 0.78473(16) 0.2772(3)
O5_14 O 0.39989(12) 0.89067(17) 0.36047(16)
O6_16 O 0.37452(12) 0.84123(17) 0.31853(17)
O7_17 O 0.25679(10) 0.80730(15) 0.24909(13)
O8_17 O 0.22785(11) 0.83653(16) 0.27050(13)
O11_16 O 0.43325(11) 0.86651(16) 0.2646(2)
O12_16 O 0.45853(10) 0.91707(14) 0.3036(3)
O13_14 O 0.42907(12) 0.85815(17) 0.4120(3)
O14_14 O 0.40426(12) 0.80853(17) 0.3695(3)
C24_17 C 0.57579(16) 0.82959(22) 0.27159(19)
C25_17 C 0.56845(15) 0.85144(22) 0.30343(19)
C26_17 C 0.59710(16) 0.87760(22) 0.32820(19)
H14_17 H 0.6203 0.8794 0.3268
C27_15 C 0.59210(16) 0.90093(23) 0.3548(2)
C28_14 C 0.55815(17) 0.89764(23) 0.3568(2)
H15_14 H 0.5547 0.9144 0.3739
C29_14 C 0.52883(15) 0.87037(22) 0.3344(2)
C30_17 C 0.53405(16) 0.84725(23) 0.3071(2)
H16_17 H 0.5142 0.8289 0.2911
C31_14 C 0.49195(17) 0.86684(24) 0.3384(2)
C32_15 C 0.62440(17) 0.93047(24) 0.3777(2)
C33_15 C 0.65103(17) 0.92383(25) 0.3943(2)
H17_15 H 0.6480 0.9001 0.3919
C34_17 C 0.68161(17) 0.95094(25) 0.4142(2)
H18_17 H 0.6994 0.9459 0.4258
C35_17 C 0.68646(18) 0.98582(26) 0.4172(2)
C36_15 C 0.66032(18) 0.99265(26) 0.4011(2)
C37_14 C 0.62893(18) 0.96475(26) 0.3818(2)
H20_14 H 0.6106 0.9696 0.3714
H21_17 H 0.7534 0.9965 0.4151
O15_14 O 0.49077(12) 0.89067(17) 0.36047(16)
O16_16 O 0.46670(12) 0.84123(17) 0.31853(17)
O21_9 O 0.19270(15) 0.74321(19) 0.24909(13)
O22_9 O 0.16347(16) 0.77215(19) 0.27050(13)
C1_18 C 0.17041(22) 0.42421(16) 0.27159(19)
C2_18 C 0.14856(22) 0.43155(15) 0.30343(19)
C3_18 C 0.12240(22) 0.40290(16) 0.32820(19)
H1_18 H 0.1206 0.3797 0.3268
C4_16 C 0.09907(23) 0.40790(16) 0.3548(2)
C5_15 C 0.10236(23) 0.44185(17) 0.3568(2)
H2_15 H 0.0856 0.4453 0.3739
C6_15 C 0.12963(22) 0.47117(15) 0.3344(2)
C7_18 C 0.15275(23) 0.46595(16) 0.3071(2)
H3_18 H 0.1711 0.4858 0.2911
C8_15 C 0.13316(24) 0.50805(17) 0.3384(2)
C9_16 C 0.06953(24) 0.37560(17) 0.3777(2)
C10_16 C 0.07617(25) 0.34897(17) 0.3943(2)
H4_16 H 0.0999 0.3520 0.3919
C11_18 C 0.04906(25) 0.31839(17) 0.4142(2)
H5_18 H 0.0541 0.3006 0.4258
C12_18 C 0.01418(26) 0.31354(18) 0.4172(2)
C13_16 C 0.00735(26) 0.33968(18) 0.4011(2)
C14_15 C 0.03525(26) 0.37107(18) 0.3818(2)
H7_15 H 0.0304 0.3894 0.3714
H8_18 H 0.0035 0.2466 0.4151
C22_17 C 0.10033(25) 0.55017(18) 0.2694(4)
H12_17 H 0.0863 0.5432 0.2435
C23_15 C 0.1747(3) 0.5874(2) 0.4058(5)
H13_15 H 0.1897 0.5949 0.4309
Cu1_15 Cu 0.10611(3) 0.55306(2) 0.36329(4)
Cu2_17 Cu 0.16559(3) 0.58280(2) 0.31527(5)
O1_18 O 0.24650(23) 0.4930(2) 0.1743(3)
O2_14 O 0.15861(19) 0.31723(17) 0.2554(2)
O3_15 O 0.05761(16) 0.52881(11) 0.4019(3)
O4_17 O 0.21527(16) 0.60764(11) 0.2772(3)
O5_15 O 0.10933(17) 0.50923(12) 0.36047(16)
O6_17 O 0.15877(17) 0.53330(12) 0.31853(17)
O7_18 O 0.19270(15) 0.44950(11) 0.24909(13)
O8_18 O 0.16347(16) 0.39133(11) 0.27050(13)
O11_17 O 0.13349(16) 0.56675(11) 0.2646(2)
O12_17 O 0.08293(14) 0.54147(10) 0.3036(3)
O13_15 O 0.14185(17) 0.57093(12) 0.4120(3)
O14_15 O 0.19147(17) 0.59574(12) 0.3695(3)
C24_18 C 0.17041(22) 0.74621(15) 0.27159(19)
C25_18 C 0.14856(22) 0.71702(16) 0.30343(19)
C26_18 C 0.12240(22) 0.71951(15) 0.32820(19)
H14_18 H 0.1206 0.7410 0.3268
C27_16 C 0.09907(23) 0.69118(16) 0.3548(2)
C28_15 C 0.10236(23) 0.66052(16) 0.3568(2)
H15_15 H 0.0856 0.6404 0.3739
C29_15 C 0.12963(22) 0.65847(16) 0.3344(2)
C30_18 C 0.15275(23) 0.68681(16) 0.3071(2)
H16_18 H 0.1711 0.6854 0.2911
C31_15 C 0.13316(24) 0.62512(17) 0.3384(2)
C32_16 C 0.06953(24) 0.69394(17) 0.3777(2)
C33_16 C 0.07617(25) 0.72721(18) 0.3943(2)
H17_16 H 0.0999 0.7480 0.3919
C34_18 C 0.04906(25) 0.73068(18) 0.4142(2)
H18_18 H 0.0541 0.7536 0.4258
C35_18 C 0.01418(26) 0.70065(19) 0.4172(2)
C36_16 C 0.00735(26) 0.66768(19) 0.4011(2)
C37_15 C 0.03525(26) 0.66419(19) 0.3818(2)
H20_15 H 0.0304 0.6411 0.3714
H21_18 H 0.0035 0.7570 0.4151
O15_15 O 0.10933(17) 0.60011(12) 0.36047(16)
O16_17 O 0.15877(17) 0.62548(12) 0.31853(17)
H6_15 H 0.9835 0.3365 0.4031
C15_18 C 0.98481(25) 0.27933(17) 0.4363(2)
C16_18 C 0.98489(26) 0.24703(18) 0.4318(2)
C17_18 C 0.95852(28) 0.21526(19) 0.4511(3)
H9_18 H 0.9589 0.1932 0.4471
C18_18 C 0.93175(24) 0.21551(17) 0.4759(2)
C19_18 C 0.92997(26) 0.24771(18) 0.4798(2)
H10_17 H 0.9113 0.2481 0.4966
C20_18 C 0.95603(26) 0.27905(18) 0.4587(2)
H11_17 H 0.9542 0.3006 0.4596
C21_18 C 0.90532(25) 0.18257(17) 0.5009(2)
H19_15 H 0.9835 0.6471 0.4031
C38_18 C 0.98481(25) 0.70549(18) 0.4363(2)
C39_18 C 0.98489(26) 0.73787(19) 0.4318(2)
C40_18 C 0.95852(28) 0.7433(2) 0.4511(3)
H22_18 H 0.9589 0.7658 0.4471
C41_18 C 0.93175(24) 0.71625(17) 0.4759(2)
C42_18 C 0.92997(26) 0.68227(19) 0.4798(2)
H23_17 H 0.9113 0.6633 0.4966
C43_18 C 0.95603(26) 0.67699(19) 0.4587(2)
H24_17 H 0.9542 0.6537 0.4596
C44_18 C 0.90532(25) 0.72276(18) 0.5009(2)
C5_16 C 0.22482(17) 0.99385(16) 0.6901(2)
H2_16 H 0.2214 0.9737 0.7072
C6_16 C 0.19550(15) 0.99180(16) 0.6677(2)
C8_16 C 0.15862(17) 0.95845(17) 0.6717(2)
H6_16 H 0.3302 0.9804 0.7364
C14_16 C 0.29560(18) 0.99752(19) 0.7151(2)
H7_16 H 0.2773 0.9744 0.7047
H10_18 H 0.4186 0.9966 0.8299
H11_18 H 0.3661 0.9870 0.7929
C22_18 C 0.11650(18) 0.88350(18) 0.6027(4)
H12_18 H 0.1235 0.8765 0.5768
C23_16 C 0.0793(2) 0.9207(2) 0.7391(5)
H13_16 H 0.0718 0.9282 0.7642
Cu1_16 Cu 0.11361(2) 0.88639(2) 0.69662(4)
Cu2_18 Cu 0.08387(2) 0.91613(2) 0.64860(5)
O3_16 O 0.13786(11) 0.86214(11) 0.7352(3)
O4_18 O 0.05903(11) 0.94097(11) 0.6105(3)
O5_16 O 0.15744(12) 0.93344(12) 0.69380(16)
O6_18 O 0.13337(12) 0.95881(12) 0.65186(17)
O11_18 O 0.09992(11) 0.90008(11) 0.5979(2)
O12_18 O 0.12520(10) 0.87480(10) 0.6369(3)
O13_16 O 0.09574(12) 0.90426(12) 0.7453(3)
O14_16 O 0.07093(12) 0.92907(12) 0.7028(3)
C28_16 C 0.00615(16) 0.77518(17) 0.6901(2)
H15_16 H 0.0263 0.7786 0.7072
C29_16 C 0.00820(16) 0.80450(15) 0.6677(2)
C31_16 C 0.04155(17) 0.84138(17) 0.6717(2)
H19_16 H 0.0196 0.6698 0.7364
C37_16 C 0.00248(19) 0.70440(18) 0.7151(2)
H20_16 H 0.0256 0.7227 0.7047
H23_18 H 0.0034 0.5814 0.8299
H24_18 H 0.0130 0.6339 0.7929
O15_16 O 0.06656(12) 0.84256(12) 0.69380(16)
O16_18 O 0.04119(12) 0.86663(12) 0.65186(17)
O2_15 O 0.01611(17) 0.50805(9) 0.9220(2)
C4_17 C 0.92544(16) 0.35784(16) 0.0214(2)
C5_17 C 0.89149(17) 0.32718(16) 0.0234(2)
H2_17 H 0.8881 0.3070 0.0405
C6_17 C 0.86217(15) 0.32513(16) 0.0010(2)
C8_17 C 0.82529(17) 0.29178(17) 0.0050(2)
C9_17 C 0.95774(17) 0.36060(17) 0.0443(2)
C10_17 C 0.98437(17) 0.39387(18) 0.0609(2)
H4_17 H 0.9814 0.4146 0.0585
C13_17 C 0.99366(18) 0.33434(19) 0.0677(2)
H6_17 H 0.9969 0.3137 0.0697
C14_17 C 0.96227(18) 0.33085(19) 0.0484(2)
H7_17 H 0.9440 0.3077 0.0380
C23_17 C 0.7460(2) 0.2540(2) 0.0724(5)
H13_17 H 0.7385 0.2615 0.0975
Cu1_17 Cu 0.78028(2) 0.21972(2) 0.02995(4)
O3_17 O 0.80453(11) 0.19547(11) 0.0685(3)
O5_17 O 0.82411(12) 0.26677(12) 0.02713(16)
O13_17 O 0.76241(12) 0.23759(12) 0.0786(3)
O14_17 O 0.73760(12) 0.26240(12) 0.0361(3)
C27_17 C 0.64216(16) 0.07456(16) 0.0214(2)
C28_17 C 0.67282(16) 0.10851(17) 0.0234(2)
H15_17 H 0.6930 0.1119 0.0405
C29_17 C 0.67487(16) 0.13783(15) 0.0010(2)
C31_17 C 0.70822(17) 0.17471(17) 0.0050(2)
C32_17 C 0.63940(17) 0.04226(17) 0.0443(2)
C33_17 C 0.60613(18) 0.01563(17) 0.0609(2)
H17_17 H 0.5854 0.0186 0.0585
C36_17 C 0.66566(19) 0.00634(18) 0.0677(2)
H19_17 H 0.6863 0.0031 0.0697
C37_17 C 0.66915(19) 0.03773(18) 0.0484(2)
H20_17 H 0.6923 0.0560 0.0380
O15_17 O 0.73323(12) 0.17589(12) 0.02713(16)
O2_16 O 0.49195(19) 0.98389(17) 0.9220(2)
O2_17 O 0.50805(9) 0.01611(17) 0.0780(2)
C4_18 C 0.35784(16) 0.92544(16) 0.9786(2)
C5_18 C 0.32718(16) 0.89149(17) 0.9766(2)
H2_18 H 0.3070 0.8881 0.9595
C6_18 C 0.32513(16) 0.86217(15) 0.9990(2)
C8_18 C 0.29178(17) 0.82529(17) 0.9950(2)
C9_18 C 0.36060(17) 0.95774(17) 0.9557(2)
C10_18 C 0.39387(18) 0.98437(17) 0.9391(2)
H4_18 H 0.4146 0.9814 0.9415
C13_18 C 0.33434(19) 0.99366(18) 0.9323(2)
H6_18 H 0.3137 0.9969 0.9303
C14_18 C 0.33085(19) 0.96227(18) 0.9516(2)
H7_18 H 0.3077 0.9440 0.9620
C23_18 C 0.2540(2) 0.7460(2) 0.9276(5)
H13_18 H 0.2615 0.7385 0.9025
Cu1_18 Cu 0.21972(2) 0.78028(2) 0.97005(4)
O3_18 O 0.19547(11) 0.80453(11) 0.9315(3)
O5_18 O 0.26677(12) 0.82411(12) 0.97287(16)
O13_18 O 0.23759(12) 0.76241(12) 0.9214(3)
O14_18 O 0.26240(12) 0.73760(12) 0.9639(3)
C27_18 C 0.07456(16) 0.64216(16) 0.9786(2)
C28_18 C 0.10851(17) 0.67282(16) 0.9766(2)
H15_18 H 0.1119 0.6930 0.9595
C29_18 C 0.13783(15) 0.67487(16) 0.9990(2)
C31_18 C 0.17471(17) 0.70822(17) 0.9950(2)
C32_18 C 0.04226(17) 0.63940(17) 0.9557(2)
C33_18 C 0.01563(17) 0.60613(18) 0.9391(2)
H17_18 H 0.0186 0.5854 0.9415
C36_18 C 0.00634(18) 0.66566(19) 0.9323(2)
H19_18 H 0.0031 0.6863 0.9303
C37_18 C 0.03773(18) 0.66915(19) 0.9516(2)
H20_18 H 0.0560 0.6923 0.9620
O15_18 O 0.17589(12) 0.73323(12) 0.97287(16)
O2_18 O 0.98389(17) 0.49195(19) 0.0780(2)
loop_
_geom_bond_atom_site_label_1
_geom_bond_atom_site_label_2
_geom_bond_site_symmetry_1
_geom_bond_site_symmetry_2
C1 C2 1_555 1_555
C2 C3 1_555 1_555
C3 H1 1_555 1_555
C4 C3 1_555 1_555
C7 C2 1_555 1_555
H3 C7 1_555 1_555
C9 C4 1_555 1_555
C10 C9 1_555 1_555
H4 C10 1_555 1_555
C11 C10 1_555 1_555
H5 C11 1_555 1_555
C12 C11 1_555 1_555
C13 C12 1_555 1_555
C15 C12 1_555 1_555
C16 C15 1_555 1_555
H8 C16 1_555 1_555
C17 C16 1_555 1_555
H9 C17 1_555 1_555
C18 C17 1_555 1_555
C19 C18 1_555 1_555
C20 C15 1_555 1_555
C21 C18 1_555 1_555
Cu3 Cu4 1_555 1_555
Cu4 O2 1_555 1_555
O1 Cu3 1_555 1_555
O7 C1 1_555 1_555
O8 C1 1_555 1_555
O9 C21 1_555 1_555
O10 C21 1_555 1_555
Cu7 O9 1_555 1_555
Cu10 O10 1_555 1_555
O21 Cu3 1_555 1_555
O22 Cu4 1_555 1_555
O23 Cu3 1_555 1_555
O24 Cu3 1_555 1_555
O25 Cu4 1_555 1_555
O26 Cu4 1_555 1_555
C19 C20 1_555 1_555
Cu3 O7 1_555 1_555
Cu4 O8 1_555 1_555
Cu7 Cu10 1_555 1_555
C24 C25 1_555 1_555
C25 C26 1_555 1_555
C26 H14 1_555 1_555
C27 C26 1_555 1_555
C30 C25 1_555 1_555
H16 C30 1_555 1_555
C32 C27 1_555 1_555
C33 C32 1_555 1_555
H17 C33 1_555 1_555
C34 C33 1_555 1_555
H18 C34 1_555 1_555
C35 C34 1_555 1_555
C36 C35 1_555 1_555
C38 C35 1_555 1_555
C39 C38 1_555 1_555
H21 C39 1_555 1_555
C40 C39 1_555 1_555
H22 C40 1_555 1_555
C41 C40 1_555 1_555
C42 C41 1_555 1_555
C43 C38 1_555 1_555
C44 C41 1_555 1_555
O17 C24 1_555 1_555
O18 C24 1_555 1_555
O19 C44 1_555 1_555
O20 C44 1_555 1_555
Cu5 O17 1_555 1_555
Cu6 O19 1_555 1_555
Cu8 O18 1_555 1_555
Cu9 O20 1_555 1_555
C42 C43 1_555 1_555
Cu5 Cu8 1_555 1_555
Cu6 Cu9 1_555 1_555
C24_2 C25_2 1_555 1_555
C25_2 C26_2 1_555 1_555
C26_2 H14_2 1_555 1_555
C27_2 C26_2 1_555 1_555
C30_2 C25_2 1_555 1_555
H16_2 C30_2 1_555 1_555
C32_2 C27_2 1_555 1_555
C33_2 C32_2 1_555 1_555
H17_2 C33_2 1_555 1_555
C34_2 C33_2 1_555 1_555
H18_2 C34_2 1_555 1_555
C35_2 C34_2 1_555 1_555
C36_2 C35_2 1_555 1_555
C38_2 C35_2 1_555 1_555
C39_2 C38_2 1_555 1_555
H21_2 C39_2 1_555 1_555
C40_2 C39_2 1_555 1_555
H22_2 C40_2 1_555 1_555
C41_2 C40_2 1_555 1_555
C42_2 C41_2 1_555 1_555
C43_2 C38_2 1_555 1_555
C44_2 C41_2 1_555 1_555
O17_2 C24_2 1_555 1_555
O18_2 C24_2 1_555 1_555
O19_2 C44_2 1_555 1_555
O20_2 C44_2 1_555 1_555
Cu5_2 O17_2 1_555 1_555
Cu7 O19_2 1_555 1_555
Cu8_2 O18_2 1_555 1_555
Cu10 O20_2 1_555 1_555
C42_2 C43_2 1_555 1_555
Cu5_2 Cu8_2 1_555 1_555
C1_2 C2_2 1_555 1_555
C2_2 C3_2 1_555 1_555
C3_2 H1_2 1_555 1_555
C4_2 C3_2 1_555 1_555
C5 C4_2 1_555 1_555
H2 C5 1_555 1_555
C6 C5 1_555 1_555
C7_2 C2_2 1_555 1_555
H3_2 C7_2 1_555 1_555
C8 C6 1_555 1_555
C9_2 C4_2 1_555 1_555
C10_2 C9_2 1_555 1_555
H4_2 C10_2 1_555 1_555
C11_2 C10_2 1_555 1_555
H5_2 C11_2 1_555 1_555
C12_2 C11_2 1_555 1_555
C13_2 C12_2 1_555 1_555
H6 C13_2 1_555 1_555
C14 C9_2 1_555 1_555
H7 C14 1_555 1_555
C15_2 C12_2 1_555 1_555
C16_2 C15_2 1_555 1_555
H8_2 C16_2 1_555 1_555
C17_2 C16_2 1_555 1_555
H9_2 C17_2 1_555 1_555
C18_2 C17_2 1_555 1_555
C19_2 C18_2 1_555 1_555
H10 C19_2 1_555 1_555
C20_2 C15_2 1_555 1_555
H11 C20_2 1_555 1_555
C21_2 C18_2 1_555 1_555
C22 H12 1_555 1_555
C23 H13 1_555 1_555
Cu1 Cu2 1_555 1_555
Cu2 O4 1_555 1_555
Cu8 O2_2 1_555 1_555
O1_2 Cu5 1_555 1_555
O3 Cu1 1_555 1_555
O5 C8 1_555 1_555
O6 C8 1_555 1_555
O7_2 C1_2 1_555 1_555
O8_2 C1_2 1_555 1_555
O9_2 C21_2 1_555 1_555
O10_2 C21_2 1_555 1_555
O11 C22 1_555 1_555
O12 C22 1_555 1_555
O13 C23 1_555 1_555
O14 C23 1_555 1_555
H15 C28 1_555 1_555
C29 C28 1_555 1_555
C31 C29 1_555 1_555
H20 C37 1_555 1_555
O15 Cu1 1_555 1_555
O16 Cu2 1_555 1_555
Cu7_2 O9_2 1_555 1_555
Cu10_2 O10_2 1_555 1_555
O23_2 Cu5 1_555 1_555
O24_2 Cu5 1_555 1_555
O25_2 Cu8 1_555 1_555
O26_2 Cu8 1_555 1_555
C6 C7_2 1_555 1_555
C13_2 C14 1_555 1_555
C19_2 C20_2 1_555 1_555
Cu1 O5 1_555 1_555
Cu1 O12 1_555 1_555
Cu1 O13 1_555 1_555
Cu2 O6 1_555 1_555
Cu2 O11 1_555 1_555
Cu2 O14 1_555 1_555
Cu5 O7_2 1_555 1_555
Cu8 O8_2 1_555 1_555
C31 O15 1_555 1_555
C31 O16 1_555 1_555
Cu7_2 Cu10_2 1_555 1_555
H2_2 C5_2 1_555 1_555
C6_2 C5_2 1_555 1_555
C8_2 C6_2 1_555 1_555
H7_2 C14_2 1_555 1_555
C22_2 H12_2 1_555 1_555
C23_2 H13_2 1_555 1_555
Cu1_2 Cu2_2 1_555 1_555
Cu2_2 O4_2 1_555 1_555
O3_2 Cu1_2 1_555 1_555
O5_2 C8_2 1_555 1_555
O6_2 C8_2 1_555 1_555
O11_2 C22_2 1_555 1_555
O12_2 C22_2 1_555 1_555
O13_2 C23_2 1_555 1_555
O14_2 C23_2 1_555 1_555
C24_3 C25_3 1_555 1_555
C25_3 C26_3 1_555 1_555
C26_3 H14_3 1_555 1_555
C27_3 C26_3 1_555 1_555
C28_2 C27_3 1_555 1_555
H15_2 C28_2 1_555 1_555
C29_2 C28_2 1_555 1_555
C30_3 C25_3 1_555 1_555
H16_3 C30_3 1_555 1_555
C31_2 C29_2 1_555 1_555
C32_3 C27_3 1_555 1_555
C33_3 C32_3 1_555 1_555
H17_3 C33_3 1_555 1_555
C34_3 C33_3 1_555 1_555
H18_3 C34_3 1_555 1_555
C35_3 C34_3 1_555 1_555
C36_3 C35_3 1_555 1_555
H19_2 C36_3 1_555 1_555
C37_2 C32_3 1_555 1_555
H20_2 C37_2 1_555 1_555
C38_3 C35_3 1_555 1_555
C39_3 C38_3 1_555 1_555
H21_3 C39_3 1_555 1_555
C40_3 C39_3 1_555 1_555
H22_3 C40_3 1_555 1_555
C41_3 C40_3 1_555 1_555
C42_3 C41_3 1_555 1_555
H23_2 C42_3 1_555 1_555
C43_3 C38_3 1_555 1_555
H24_2 C43_3 1_555 1_555
C44_3 C41_3 1_555 1_555
O15_2 Cu1_2 1_555 1_555
O16_2 Cu2_2 1_555 1_555
O21 C24_3 1_555 1_555
O22 C24_3 1_555 1_555
O19_3 C44_3 1_555 1_555
O20_3 C44_3 1_555 1_555
Cu7_2 O19_3 1_555 1_555
Cu10_2 O20_3 1_555 1_555
Cu1_2 O5_2 1_555 1_555
Cu1_2 O12_2 1_555 1_555
Cu1_2 O13_2 1_555 1_555
Cu2_2 O6_2 1_555 1_555
Cu2_2 O11_2 1_555 1_555
Cu2_2 O14_2 1_555 1_555
C29_2 C30_3 1_555 1_555
C31_2 O15_2 1_555 1_555
C31_2 O16_2 1_555 1_555
C36_3 C37_2 1_555 1_555
C42_3 C43_3 1_555 1_555
C1_3 C2_3 1_555 1_555
C2_3 C3_3 1_555 1_555
C3_3 H1_3 1_555 1_555
C4_3 C3_3 1_555 1_555
C7_3 C2_3 1_555 1_555
H3_3 C7_3 1_555 1_555
C9_3 C4_3 1_555 1_555
C10_3 C9_3 1_555 1_555
H4_3 C10_3 1_555 1_555
C11_3 C10_3 1_555 1_555
H5_3 C11_3 1_555 1_555
C12_3 C11_3 1_555 1_555
C13_3 C12_3 1_555 1_555
C15_3 C12_3 1_555 1_555
C16_3 C15_3 1_555 1_555
H8_3 C16_3 1_555 1_555
C17_3 C16_3 1_555 1_555
H9_3 C17_3 1_555 1_555
C18_3 C17_3 1_555 1_555
C19_3 C18_3 1_555 1_555
C20_3 C15_3 1_555 1_555
C21_3 C18_3 1_555 1_555
Cu8_2 O2_3 1_555 1_555
O1_3 Cu5_2 1_555 1_555
O7_3 C1_3 1_555 1_555
O8_3 C1_3 1_555 1_555
O9_3 C21_3 1_555 1_555
O10_3 C21_3 1_555 1_555
Cu6 O9_3 1_555 1_555
Cu9 O10_3 1_555 1_555
O23_3 Cu5_2 1_555 1_555
O24_3 Cu5_2 1_555 1_555
O25_3 Cu8_2 1_555 1_555
O26_3 Cu8_2 1_555 1_555
C19_3 C20_3 1_555 1_555
Cu5_2 O7_3 1_555 1_555
Cu8_2 O8_3 1_555 1_555
C1_4 C2_4 1_555 1_555
C2_4 C3_4 1_555 1_555
C3_4 H1_4 1_555 1_555
C4_4 C3_4 1_555 1_555
C5_3 C4_4 1_555 1_555
H2_3 C5_3 1_555 1_555
C6_3 C5_3 1_555 1_555
C7_4 C2_4 1_555 1_555
H3_4 C7_4 1_555 1_555
C8_3 C6_3 1_555 1_555
C9_4 C4_4 1_555 1_555
C10_4 C9_4 1_555 1_555
H4_4 C10_4 1_555 1_555
C11_4 C10_4 1_555 1_555
H5_4 C11_4 1_555 1_555
C12_4 C11_4 1_555 1_555
C13_4 C12_4 1_555 1_555
H6_3 C13_4 1_555 1_555
C14_3 C9_4 1_555 1_555
H7_3 C14_3 1_555 1_555
C15_4 C12_4 1_555 1_555
C16_4 C15_4 1_555 1_555
H8_4 C16_4 1_555 1_555
C17_4 C16_4 1_555 1_555
H9_4 C17_4 1_555 1_555
C18_4 C17_4 1_555 1_555
C19_4 C18_4 1_555 1_555
H10_3 C19_4 1_555 1_555
C20_4 C15_4 1_555 1_555
H11_3 C20_4 1_555 1_555
C21_4 C18_4 1_555 1_555
C22_3 H12_3 1_555 1_555
C23_3 H13_3 1_555 1_555
Cu1_3 Cu2_3 1_555 1_555
Cu2_3 O4_3 1_555 1_555
Cu3_2 Cu4_2 1_555 1_555
Cu4_2 O2_4 1_555 1_555
O1_4 Cu3_2 1_555 1_555
O3_3 Cu1_3 1_555 1_555
O5_3 C8_3 1_555 1_555
O6_3 C8_3 1_555 1_555
O7_4 C1_4 1_555 1_555
O8_4 C1_4 1_555 1_555
O23_2 C21_4 1_555 1_555
O25_2 C21_4 1_555 1_555
O11_3 C22_3 1_555 1_555
O12_3 C22_3 1_555 1_555
O13_3 C23_3 1_555 1_555
O14_3 C23_3 1_555 1_555
C24_4 C25_4 1_555 1_555
C25_4 C26_4 1_555 1_555
C26_4 H14_4 1_555 1_555
C27_4 C26_4 1_555 1_555
C28_3 C27_4 1_555 1_555
H15_3 C28_3 1_555 1_555
C29_3 C28_3 1_555 1_555
C30_4 C25_4 1_555 1_555
H16_4 C30_4 1_555 1_555
C31_3 C29_3 1_555 1_555
C32_4 C27_4 1_555 1_555
C33_4 C32_4 1_555 1_555
H17_4 C33_4 1_555 1_555
C34_4 C33_4 1_555 1_555
H18_4 C34_4 1_555 1_555
C35_4 C34_4 1_555 1_555
C36_4 C35_4 1_555 1_555
H19_3 C36_4 1_555 1_555
C37_3 C32_4 1_555 1_555
H20_3 C37_3 1_555 1_555
C38_4 C35_4 1_555 1_555
C39_4 C38_4 1_555 1_555
H21_4 C39_4 1_555 1_555
C40_4 C39_4 1_555 1_555
H22_4 C40_4 1_555 1_555
C41_4 C40_4 1_555 1_555
C42_4 C41_4 1_555 1_555
H23_3 C42_4 1_555 1_555
C43_4 C38_4 1_555 1_555
H24_3 C43_4 1_555 1_555
C44_4 C41_4 1_555 1_555
O15_3 Cu1_3 1_555 1_555
O16_3 Cu2_3 1_555 1_555
O17_3 C24_4 1_555 1_555
O18_3 C24_4 1_555 1_555
O24 C44_4 1_555 1_555
O26 C44_4 1_555 1_555
Cu5_3 O17_3 1_555 1_555
Cu8_3 O18_3 1_555 1_555
O21_2 Cu3_2 1_555 1_555
O22_2 Cu4_2 1_555 1_555
O23_4 Cu3_2 1_555 1_555
O24_4 Cu3_2 1_555 1_555
O25_4 Cu4_2 1_555 1_555
O26_4 Cu4_2 1_555 1_555
C6_3 C7_4 1_555 1_555
C13_4 C14_3 1_555 1_555
C19_4 C20_4 1_555 1_555
Cu1_3 O5_3 1_555 1_555
Cu1_3 O12_3 1_555 1_555
Cu1_3 O13_3 1_555 1_555
Cu2_3 O6_3 1_555 1_555
Cu2_3 O11_3 1_555 1_555
Cu2_3 O14_3 1_555 1_555
Cu3_2 O7_4 1_555 1_555
Cu4_2 O8_4 1_555 1_555
C29_3 C30_4 1_555 1_555
C31_3 O15_3 1_555 1_555
C31_3 O16_3 1_555 1_555
C36_4 C37_3 1_555 1_555
C42_4 C43_4 1_555 1_555
Cu5_3 Cu8_3 1_555 1_555
C1_5 C2_5 1_555 1_555
C2_5 C3_5 1_555 1_555
C3_5 H1_5 1_555 1_555
C4_5 C3_5 1_555 1_555
C5_4 C4_5 1_555 1_555
H2_4 C5_4 1_555 1_555
C6_4 C5_4 1_555 1_555
C7_5 C2_5 1_555 1_555
H3_5 C7_5 1_555 1_555
C8_4 C6_4 1_555 1_555
C9_5 C4_5 1_555 1_555
C10_5 C9_5 1_555 1_555
H4_5 C10_5 1_555 1_555
C11_5 C10_5 1_555 1_555
H5_5 C11_5 1_555 1_555
C12_5 C11_5 1_555 1_555
C13_5 C12_5 1_555 1_555
C14_4 C9_5 1_555 1_555
H7_4 C14_4 1_555 1_555
C22_4 H12_4 1_555 1_555
C23_4 H13_4 1_555 1_555
Cu1_4 Cu2_4 1_555 1_555
Cu2_4 O4_4 1_555 1_555
Cu8_3 O2_5 1_555 1_555
O1_5 Cu5_3 1_555 1_555
O3_4 Cu1_4 1_555 1_555
O5_4 C8_4 1_555 1_555
O6_4 C8_4 1_555 1_555
O7_5 C1_5 1_555 1_555
O8_5 C1_5 1_555 1_555
O11_4 C22_4 1_555 1_555
O12_4 C22_4 1_555 1_555
O13_4 C23_4 1_555 1_555
O14_4 C23_4 1_555 1_555
C24_5 C25_5 1_555 1_555
C25_5 C26_5 1_555 1_555
C26_5 H14_5 1_555 1_555
C27_5 C26_5 1_555 1_555
C28_4 C27_5 1_555 1_555
H15_4 C28_4 1_555 1_555
C29_4 C28_4 1_555 1_555
C30_5 C25_5 1_555 1_555
H16_5 C30_5 1_555 1_555
C31_4 C29_4 1_555 1_555
C32_5 C27_5 1_555 1_555
C33_5 C32_5 1_555 1_555
H17_5 C33_5 1_555 1_555
C34_5 C33_5 1_555 1_555
H18_5 C34_5 1_555 1_555
C35_5 C34_5 1_555 1_555
C36_5 C35_5 1_555 1_555
C37_4 C32_5 1_555 1_555
H20_4 C37_4 1_555 1_555
O15_4 Cu1_4 1_555 1_555
O16_4 Cu2_4 1_555 1_555
O17_4 C24_5 1_555 1_555
O18_4 C24_5 1_555 1_555
Cu5_4 O17_4 1_555 1_555
Cu8_4 O18_4 1_555 1_555
O23_5 Cu5_3 1_555 1_555
O24_5 Cu5_3 1_555 1_555
O25_5 Cu8_3 1_555 1_555
O26_5 Cu8_3 1_555 1_555
C6_4 C7_5 1_555 1_555
C13_5 C14_4 1_555 1_555
Cu1_4 O5_4 1_555 1_555
Cu1_4 O12_4 1_555 1_555
Cu1_4 O13_4 1_555 1_555
Cu2_4 O6_4 1_555 1_555
Cu2_4 O11_4 1_555 1_555
Cu2_4 O14_4 1_555 1_555
Cu5_3 O7_5 1_555 1_555
Cu8_3 O8_5 1_555 1_555
C29_4 C30_5 1_555 1_555
C31_4 O15_4 1_555 1_555
C31_4 O16_4 1_555 1_555
C36_5 C37_4 1_555 1_555
Cu5_4 Cu8_4 1_555 1_555
C16_5 C15_5 1_555 1_555
C17_5 C16_5 1_555 1_555
H9_5 C17_5 1_555 1_555
C18_5 C17_5 1_555 1_555
C19_5 C18_5 1_555 1_555
H10_4 C19_5 1_555 1_555
C20_5 C15_5 1_555 1_555
H11_4 C20_5 1_555 1_555
C21_5 C18_5 1_555 1_555
O23_3 C21_5 1_555 1_555
O25_3 C21_5 1_555 1_555
C39_5 C38_5 1_555 1_555
C40_5 C39_5 1_555 1_555
H22_5 C40_5 1_555 1_555
C41_5 C40_5 1_555 1_555
C42_5 C41_5 1_555 1_555
H23_4 C42_5 1_555 1_555
C43_5 C38_5 1_555 1_555
H24_4 C43_5 1_555 1_555
C44_5 C41_5 1_555 1_555
O24_2 C44_5 1_555 1_555
O26_2 C44_5 1_555 1_555
C19_5 C20_5 1_555 1_555
C42_5 C43_5 1_555 1_555
C16_6 C15_6 1_555 1_555
C17_6 C16_6 1_555 1_555
H9_6 C17_6 1_555 1_555
C18_6 C17_6 1_555 1_555
C19_6 C18_6 1_555 1_555
H10_5 C19_6 1_555 1_555
C20_6 C15_6 1_555 1_555
H11_5 C20_6 1_555 1_555
C21_6 C18_6 1_555 1_555
O23 C21_6 1_555 1_555
O25 C21_6 1_555 1_555
C39_6 C38_6 1_555 1_555
C40_6 C39_6 1_555 1_555
H22_6 C40_6 1_555 1_555
C41_6 C40_6 1_555 1_555
C42_6 C41_6 1_555 1_555
H23_5 C42_6 1_555 1_555
C43_6 C38_6 1_555 1_555
H24_5 C43_6 1_555 1_555
C44_6 C41_6 1_555 1_555
O24_3 C44_6 1_555 1_555
O26_3 C44_6 1_555 1_555
C19_6 C20_6 1_555 1_555
C42_6 C43_6 1_555 1_555
C1_6 C2_6 1_555 1_555
C2_6 C3_6 1_555 1_555
C3_6 H1_6 1_555 1_555
C4_6 C3_6 1_555 1_555
C5_5 C4_6 1_555 1_555
H2_5 C5_5 1_555 1_555
C6_5 C5_5 1_555 1_555
C7_6 C2_6 1_555 1_555
H3_6 C7_6 1_555 1_555
C8_5 C6_5 1_555 1_555
C9_6 C4_6 1_555 1_555
C10_6 C9_6 1_555 1_555
H4_6 C10_6 1_555 1_555
C11_6 C10_6 1_555 1_555
H5_6 C11_6 1_555 1_555
C12_6 C11_6 1_555 1_555
C13_6 C12_6 1_555 1_555
C14_5 C9_6 1_555 1_555
H7_5 C14_5 1_555 1_555
C22_5 H12_5 1_555 1_555
C23_5 H13_5 1_555 1_555
Cu1_5 Cu2_5 1_555 1_555
Cu2_5 O4_5 1_555 1_555
Cu8_4 O2_6 1_555 1_555
O1_6 Cu5_4 1_555 1_555
O3_5 Cu1_5 1_555 1_555
O5_5 C8_5 1_555 1_555
O6_5 C8_5 1_555 1_555
O7_6 C1_6 1_555 1_555
O8_6 C1_6 1_555 1_555
O11_5 C22_5 1_555 1_555
O12_5 C22_5 1_555 1_555
O13_5 C23_5 1_555 1_555
O14_5 C23_5 1_555 1_555
C24_6 C25_6 1_555 1_555
C25_6 C26_6 1_555 1_555
C26_6 H14_6 1_555 1_555
C27_6 C26_6 1_555 1_555
C28_5 C27_6 1_555 1_555
H15_5 C28_5 1_555 1_555
C29_5 C28_5 1_555 1_555
C30_6 C25_6 1_555 1_555
H16_6 C30_6 1_555 1_555
C31_5 C29_5 1_555 1_555
C32_6 C27_6 1_555 1_555
C33_6 C32_6 1_555 1_555
H17_6 C33_6 1_555 1_555
C34_6 C33_6 1_555 1_555
H18_6 C34_6 1_555 1_555
C35_6 C34_6 1_555 1_555
C36_6 C35_6 1_555 1_555
C37_5 C32_6 1_555 1_555
H20_5 C37_5 1_555 1_555
O15_5 Cu1_5 1_555 1_555
O16_5 Cu2_5 1_555 1_555
O21_2 C24_6 1_555 1_555
O22_2 C24_6 1_555 1_555
O23_6 Cu5_4 1_555 1_555
O24_6 Cu5_4 1_555 1_555
O25_6 Cu8_4 1_555 1_555
O26_6 Cu8_4 1_555 1_555
C6_5 C7_6 1_555 1_555
C13_6 C14_5 1_555 1_555
Cu1_5 O5_5 1_555 1_555
Cu1_5 O12_5 1_555 1_555
Cu1_5 O13_5 1_555 1_555
Cu2_5 O6_5 1_555 1_555
Cu2_5 O11_5 1_555 1_555
Cu2_5 O14_5 1_555 1_555
Cu5_4 O7_6 1_555 1_555
Cu8_4 O8_6 1_555 1_555
C29_5 C30_6 1_555 1_555
C31_5 O15_5 1_555 1_555
C31_5 O16_5 1_555 1_555
C36_6 C37_5 1_555 1_555
H5_7 C11_7 1_555 1_555
C12_7 C11_7 1_555 1_555
C15_7 C12_7 1_555 1_555
C16_7 C15_7 1_555 1_555
H8_7 C16_7 1_555 1_555
C17_7 C16_7 1_555 1_555
H9_7 C17_7 1_555 1_555
C18_7 C17_7 1_555 1_555
C19_7 C18_7 1_555 1_555
H10_6 C19_7 1_555 1_555
C20_7 C15_7 1_555 1_555
H11_6 C20_7 1_555 1_555
C21_7 C18_7 1_555 1_555
O23_5 C21_7 1_555 1_555
O25_5 C21_7 1_555 1_555
C19_7 C20_7 1_555 1_555
C1_7 C2_7 1_555 1_555
C2_7 C3_7 1_555 1_555
C3_7 H1_7 1_555 1_555
C7_7 C2_7 1_555 1_555
H3_7 C7_7 1_555 1_555
C22_6 H12_6 1_555 1_555
Cu2_6 O4_6 1_555 1_555
O1_7 Cu6 1_555 1_555
O7_7 C1_7 1_555 1_555
O8_7 C1_7 1_555 1_555
O11_6 C22_6 1_555 1_555
O12_6 C22_6 1_555 1_555
C24_7 C25_7 1_555 1_555
C25_7 C26_7 1_555 1_555
C26_7 H14_7 1_555 1_555
C30_7 C25_7 1_555 1_555
H16_7 C30_7 1_555 1_555
O16_6 Cu2_6 1_555 1_555
O17_5 C24_7 1_555 1_555
O18_5 C24_7 1_555 1_555
Cu7 O17_5 1_555 1_555
Cu10 O18_5 1_555 1_555
O21_3 Cu6 1_555 1_555
O22_3 Cu9 1_555 1_555
Cu2_6 O6_6 1_555 1_555
Cu2_6 O11_6 1_555 1_555
Cu6 O7_7 1_555 1_555
Cu9 O8_7 1_555 1_555
H18_7 C34_7 1_555 1_555
C35_7 C34_7 1_555 1_555
C38_7 C35_7 1_555 1_555
C39_7 C38_7 1_555 1_555
H21_7 C39_7 1_555 1_555
C40_7 C39_7 1_555 1_555
H22_7 C40_7 1_555 1_555
C41_7 C40_7 1_555 1_555
C42_7 C41_7 1_555 1_555
H23_6 C42_7 1_555 1_555
C43_7 C38_7 1_555 1_555
H24_6 C43_7 1_555 1_555
C44_7 C41_7 1_555 1_555
O24_4 C44_7 1_555 1_555
O26_4 C44_7 1_555 1_555
C42_7 C43_7 1_555 1_555
C1_8 C2_8 1_555 1_555
C2_8 C3_8 1_555 1_555
C3_8 H1_8 1_555 1_555
C7_8 C2_8 1_555 1_555
H3_8 C7_8 1_555 1_555
C22_7 H12_7 1_555 1_555
Cu2_7 O4_7 1_555 1_555
O1_8 Cu7 1_555 1_555
O7_8 C1_8 1_555 1_555
O8_8 C1_8 1_555 1_555
O11_7 C22_7 1_555 1_555
O12_7 C22_7 1_555 1_555
C24_8 C25_8 1_555 1_555
C25_8 C26_8 1_555 1_555
C26_8 H14_8 1_555 1_555
C30_8 C25_8 1_555 1_555
H16_8 C30_8 1_555 1_555
O16_7 Cu2_7 1_555 1_555
O17_6 C24_8 1_555 1_555
O18_6 C24_8 1_555 1_555
Cu7_2 O17_6 1_555 1_555
Cu10_2 O18_6 1_555 1_555
Cu2_7 O6_7 1_555 1_555
Cu2_7 O11_7 1_555 1_555
Cu7 O7_8 1_555 1_555
Cu10 O8_8 1_555 1_555
C5_6 C4_7 1_555 1_555
H2_6 C5_6 1_555 1_555
C6_6 C5_6 1_555 1_555
C8_6 C6_6 1_555 1_555
C9_7 C4_7 1_555 1_555
C10_7 C9_7 1_555 1_555
H4_7 C10_7 1_555 1_555
H6_6 C13_7 1_555 1_555
C14_6 C9_7 1_555 1_555
H7_6 C14_6 1_555 1_555
C23_6 H13_6 1_555 1_555
O3_6 Cu1_6 1_555 1_555
O5_6 C8_6 1_555 1_555
O13_6 C23_6 1_555 1_555
O14_6 C23_6 1_555 1_555
C28_6 C27_7 1_555 1_555
H15_6 C28_6 1_555 1_555
C29_6 C28_6 1_555 1_555
C31_6 C29_6 1_555 1_555
C32_7 C27_7 1_555 1_555
C33_7 C32_7 1_555 1_555
H17_7 C33_7 1_555 1_555
C34_8 C33_7 1_555 1_555
H18_8 C34_8 1_555 1_555
C35_8 C34_8 1_555 1_555
C36_7 C35_8 1_555 1_555
H19_6 C36_7 1_555 1_555
C37_6 C32_7 1_555 1_555
H20_6 C37_6 1_555 1_555
C38_8 C35_8 1_555 1_555
C39_8 C38_8 1_555 1_555
H21_8 C39_8 1_555 1_555
C40_8 C39_8 1_555 1_555
H22_8 C40_8 1_555 1_555
C41_8 C40_8 1_555 1_555
C42_8 C41_8 1_555 1_555
H23_7 C42_8 1_555 1_555
C43_8 C38_8 1_555 1_555
H24_7 C43_8 1_555 1_555
C44_8 C41_8 1_555 1_555
O15_6 Cu1_6 1_555 1_555
O24_5 C44_8 1_555 1_555
O26_5 C44_8 1_555 1_555
C13_7 C14_6 1_555 1_555
Cu1_6 O5_6 1_555 1_555
Cu1_6 O13_6 1_555 1_555
C31_6 O15_6 1_555 1_555
C36_7 C37_6 1_555 1_555
C42_8 C43_8 1_555 1_555
H5_8 C11_8 1_555 1_555
C12_8 C11_8 1_555 1_555
C15_8 C12_8 1_555 1_555
C16_8 C15_8 1_555 1_555
H8_8 C16_8 1_555 1_555
C17_8 C16_8 1_555 1_555
H9_8 C17_8 1_555 1_555
C18_8 C17_8 1_555 1_555
C19_8 C18_8 1_555 1_555
H10_7 C19_8 1_555 1_555
C20_8 C15_8 1_555 1_555
H11_7 C20_8 1_555 1_555
C21_8 C18_8 1_555 1_555
O23_6 C21_8 1_555 1_555
O25_6 C21_8 1_555 1_555
C19_8 C20_8 1_555 1_555
H18_9 C34_9 1_555 1_555
C35_9 C34_9 1_555 1_555
C38_9 C35_9 1_555 1_555
C39_9 C38_9 1_555 1_555
H21_9 C39_9 1_555 1_555
C40_9 C39_9 1_555 1_555
H22_9 C40_9 1_555 1_555
C41_9 C40_9 1_555 1_555
C42_9 C41_9 1_555 1_555
H23_8 C42_9 1_555 1_555
C43_9 C38_9 1_555 1_555
H24_8 C43_9 1_555 1_555
C44_9 C41_9 1_555 1_555
O24_6 C44_9 1_555 1_555
O26_6 C44_9 1_555 1_555
C42_9 C43_9 1_555 1_555
C1_9 C2_9 1_555 1_555
C2_9 C3_9 1_555 1_555
C3_9 H1_9 1_555 1_555
C7_9 C2_9 1_555 1_555
H3_9 C7_9 1_555 1_555
C22_8 H12_8 1_555 1_555
Cu2_8 O4_8 1_555 1_555
Cu10_2 O2_7 1_555 1_555
O1_9 Cu7_2 1_555 1_555
O7_9 C1_9 1_555 1_555
O8_9 C1_9 1_555 1_555
O11_8 C22_8 1_555 1_555
O12_8 C22_8 1_555 1_555
C24_9 C25_9 1_555 1_555
C25_9 C26_9 1_555 1_555
C26_9 H14_9 1_555 1_555
C30_9 C25_9 1_555 1_555
H16_9 C30_9 1_555 1_555
O16_8 Cu2_8 1_555 1_555
O21_3 C24_9 1_555 1_555
O22_3 C24_9 1_555 1_555
Cu2_8 O6_8 1_555 1_555
Cu2_8 O11_8 1_555 1_555
Cu7_2 O7_9 1_555 1_555
Cu10_2 O8_9 1_555 1_555
C5_7 C4_8 1_555 1_555
H2_7 C5_7 1_555 1_555
C6_7 C5_7 1_555 1_555
C8_7 C6_7 1_555 1_555
C9_8 C4_8 1_555 1_555
C10_8 C9_8 1_555 1_555
H4_8 C10_8 1_555 1_555
C11_9 C10_8 1_555 1_555
H5_9 C11_9 1_555 1_555
C12_9 C11_9 1_555 1_555
C13_8 C12_9 1_555 1_555
H6_7 C13_8 1_555 1_555
C14_7 C9_8 1_555 1_555
H7_7 C14_7 1_555 1_555
C15_9 C12_9 1_555 1_555
C16_9 C15_9 1_555 1_555
H8_9 C16_9 1_555 1_555
C17_9 C16_9 1_555 1_555
H9_9 C17_9 1_555 1_555
C18_9 C17_9 1_555 1_555
C19_9 C18_9 1_555 1_555
H10_8 C19_9 1_555 1_555
C20_9 C15_9 1_555 1_555
H11_8 C20_9 1_555 1_555
C21_9 C18_9 1_555 1_555
C23_7 H13_7 1_555 1_555
O3_7 Cu1_7 1_555 1_555
O5_7 C8_7 1_555 1_555
O23_4 C21_9 1_555 1_555
O25_4 C21_9 1_555 1_555
O13_7 C23_7 1_555 1_555
O14_7 C23_7 1_555 1_555
C28_7 C27_8 1_555 1_555
H15_7 C28_7 1_555 1_555
C29_7 C28_7 1_555 1_555
C31_7 C29_7 1_555 1_555
C32_8 C27_8 1_555 1_555
C33_8 C32_8 1_555 1_555
H17_8 C33_8 1_555 1_555
H19_7 C36_8 1_555 1_555
C37_7 C32_8 1_555 1_555
H20_7 C37_7 1_555 1_555
O15_7 Cu1_7 1_555 1_555
C13_8 C14_7 1_555 1_555
C19_9 C20_9 1_555 1_555
Cu1_7 O5_7 1_555 1_555
Cu1_7 O13_7 1_555 1_555
C31_7 O15_7 1_555 1_555
C36_8 C37_7 1_555 1_555
H2_8 C5_8 1_555 1_555
C6_8 C5_8 1_555 1_555
C8_8 C6_8 1_555 1_555
H7_8 C14_8 1_555 1_555
C22_9 H12_9 1_555 1_555
C23_8 H13_8 1_555 1_555
Cu1_8 Cu2_9 1_555 1_555
Cu2_9 O4_9 1_555 1_555
O3_8 Cu1_8 1_555 1_555
O5_8 C8_8 1_555 1_555
O6_9 C8_8 1_555 1_555
O11_9 C22_9 1_555 1_555
O12_9 C22_9 1_555 1_555
O13_8 C23_8 1_555 1_555
O14_8 C23_8 1_555 1_555
H15_8 C28_8 1_555 1_555
C29_8 C28_8 1_555 1_555
C31_8 C29_8 1_555 1_555
H20_8 C37_8 1_555 1_555
O15_8 Cu1_8 1_555 1_555
O16_9 Cu2_9 1_555 1_555
Cu1_8 O5_8 1_555 1_555
Cu1_8 O12_9 1_555 1_555
Cu1_8 O13_8 1_555 1_555
Cu2_9 O6_9 1_555 1_555
Cu2_9 O11_9 1_555 1_555
Cu2_9 O14_8 1_555 1_555
C31_8 O15_8 1_555 1_555
C31_8 O16_9 1_555 1_555
C1_10 C2_10 1_555 1_555
C2_10 C3_10 1_555 1_555
C3_10 H1_10 1_555 1_555
C4_9 C3_10 1_555 1_555
C7_10 C2_10 1_555 1_555
H3_10 C7_10 1_555 1_555
C9_9 C4_9 1_555 1_555
C10_9 C9_9 1_555 1_555
H4_9 C10_9 1_555 1_555
C11_10 C10_9 1_555 1_555
H5_10 C11_10 1_555 1_555
C12_10 C11_10 1_555 1_555
C13_9 C12_10 1_555 1_555
C15_10 C12_10 1_555 1_555
C16_10 C15_10 1_555 1_555
H8_10 C16_10 1_555 1_555
C17_10 C16_10 1_555 1_555
H9_10 C17_10 1_555 1_555
C18_10 C17_10 1_555 1_555
C19_10 C18_10 1_555 1_555
C20_10 C15_10 1_555 1_555
C21_10 C18_10 1_555 1_555
Cu3_3 Cu4_3 1_555 1_555
Cu4_3 O2_8 1_555 1_555
O1_10 Cu3_3 1_555 1_555
O7_10 C1_10 1_555 1_555
O8_10 C1_10 1_555 1_555
O9_4 C21_10 1_555 1_555
O10_4 C21_10 1_555 1_555
Cu7_3 O9_4 1_555 1_555
Cu10_3 O10_4 1_555 1_555
O21_4 Cu3_3 1_555 1_555
O22_4 Cu4_3 1_555 1_555
O23_7 Cu3_3 1_555 1_555
O24_7 Cu3_3 1_555 1_555
O25_7 Cu4_3 1_555 1_555
O26_7 Cu4_3 1_555 1_555
C19_10 C20_10 1_555 1_555
Cu3_3 O7_10 1_555 1_555
Cu4_3 O8_10 1_555 1_555
Cu7_3 Cu10_3 1_555 1_555
C24_10 C25_10 1_555 1_555
C25_10 C26_10 1_555 1_555
C26_10 H14_10 1_555 1_555
C27_9 C26_10 1_555 1_555
C30_10 C25_10 1_555 1_555
H16_10 C30_10 1_555 1_555
C32_9 C27_9 1_555 1_555
C33_9 C32_9 1_555 1_555
H17_9 C33_9 1_555 1_555
C34_10 C33_9 1_555 1_555
H18_10 C34_10 1_555 1_555
C35_10 C34_10 1_555 1_555
C36_9 C35_10 1_555 1_555
C38_10 C35_10 1_555 1_555
C39_10 C38_10 1_555 1_555
H21_10 C39_10 1_555 1_555
C40_10 C39_10 1_555 1_555
H22_10 C40_10 1_555 1_555
C41_10 C40_10 1_555 1_555
C42_10 C41_10 1_555 1_555
C43_10 C38_10 1_555 1_555
C44_10 C41_10 1_555 1_555
O17_7 C24_10 1_555 1_555
O18_7 C24_10 1_555 1_555
O19_4 C44_10 1_555 1_555
O20_4 C44_10 1_555 1_555
Cu5_5 O17_7 1_555 1_555
Cu6_2 O19_4 1_555 1_555
Cu8_5 O18_7 1_555 1_555
Cu9_2 O20_4 1_555 1_555
C42_10 C43_10 1_555 1_555
Cu5_5 Cu8_5 1_555 1_555
Cu6_2 Cu9_2 1_555 1_555
H2_9 C5_9 1_555 1_555
C6_9 C5_9 1_555 1_555
C8_9 C6_9 1_555 1_555
H7_9 C14_9 1_555 1_555
C22_10 H12_10 1_555 1_555
C23_9 H13_9 1_555 1_555
Cu1_9 Cu2_10 1_555 1_555
Cu2_10 O4_10 1_555 1_555
O3_9 Cu1_9 1_555 1_555
O5_9 C8_9 1_555 1_555
O6_10 C8_9 1_555 1_555
O11_10 C22_10 1_555 1_555
O12_10 C22_10 1_555 1_555
O13_9 C23_9 1_555 1_555
O14_9 C23_9 1_555 1_555
C24_11 C25_11 1_555 1_555
C25_11 C26_11 1_555 1_555
C26_11 H14_11 1_555 1_555
C27_10 C26_11 1_555 1_555
C28_9 C27_10 1_555 1_555
H15_9 C28_9 1_555 1_555
C29_9 C28_9 1_555 1_555
C30_11 C25_11 1_555 1_555
H16_11 C30_11 1_555 1_555
C31_9 C29_9 1_555 1_555
C32_10 C27_10 1_555 1_555
C33_10 C32_10 1_555 1_555
H17_10 C33_10 1_555 1_555
C34_11 C33_10 1_555 1_555
H18_11 C34_11 1_555 1_555
C35_11 C34_11 1_555 1_555
C36_10 C35_11 1_555 1_555
H19_9 C36_10 1_555 1_555
C37_9 C32_10 1_555 1_555
H20_9 C37_9 1_555 1_555
C38_11 C35_11 1_555 1_555
C39_11 C38_11 1_555 1_555
H21_11 C39_11 1_555 1_555
C40_11 C39_11 1_555 1_555
H22_11 C40_11 1_555 1_555
C41_11 C40_11 1_555 1_555
C42_11 C41_11 1_555 1_555
H23_10 C42_11 1_555 1_555
C43_11 C38_11 1_555 1_555
H24_10 C43_11 1_555 1_555
C44_11 C41_11 1_555 1_555
O15_9 Cu1_9 1_555 1_555
O16_10 Cu2_10 1_555 1_555
O21_4 C24_11 1_555 1_555
O22_4 C24_11 1_555 1_555
O19_5 C44_11 1_555 1_555
O20_5 C44_11 1_555 1_555
Cu6_3 O19_5 1_555 1_555
Cu9_3 O20_5 1_555 1_555
Cu1_9 O5_9 1_555 1_555
Cu1_9 O12_10 1_555 1_555
Cu1_9 O13_9 1_555 1_555
Cu2_10 O6_10 1_555 1_555
Cu2_10 O11_10 1_555 1_555
Cu2_10 O14_9 1_555 1_555
C29_9 C30_11 1_555 1_555
C31_9 O15_9 1_555 1_555
C31_9 O16_10 1_555 1_555
C36_10 C37_9 1_555 1_555
C42_11 C43_11 1_555 1_555
Cu6_3 Cu9_3 1_555 1_555
C1_11 C2_11 1_555 1_555
C2_11 C3_11 1_555 1_555
C3_11 H1_11 1_555 1_555
C4_10 C3_11 1_555 1_555
C7_11 C2_11 1_555 1_555
H3_11 C7_11 1_555 1_555
C9_10 C4_10 1_555 1_555
C10_10 C9_10 1_555 1_555
H4_10 C10_10 1_555 1_555
C11_11 C10_10 1_555 1_555
H5_11 C11_11 1_555 1_555
C12_11 C11_11 1_555 1_555
C13_10 C12_11 1_555 1_555
C15_11 C12_11 1_555 1_555
C16_11 C15_11 1_555 1_555
H8_11 C16_11 1_555 1_555
C17_11 C16_11 1_555 1_555
H9_11 C17_11 1_555 1_555
C18_11 C17_11 1_555 1_555
C19_11 C18_11 1_555 1_555
C20_11 C15_11 1_555 1_555
C21_11 C18_11 1_555 1_555
Cu3_4 Cu4_4 1_555 1_555
Cu4_4 O2_9 1_555 1_555
O1_11 Cu3_4 1_555 1_555
O7_11 C1_11 1_555 1_555
O8_11 C1_11 1_555 1_555
O9_5 C21_11 1_555 1_555
O10_5 C21_11 1_555 1_555
Cu6_2 O9_5 1_555 1_555
Cu9_2 O10_5 1_555 1_555
O21_5 Cu3_4 1_555 1_555
O22_5 Cu4_4 1_555 1_555
O23_8 Cu3_4 1_555 1_555
O24_8 Cu3_4 1_555 1_555
O25_8 Cu4_4 1_555 1_555
O26_8 Cu4_4 1_555 1_555
C19_11 C20_11 1_555 1_555
Cu3_4 O7_11 1_555 1_555
Cu4_4 O8_11 1_555 1_555
C24_12 C25_12 1_555 1_555
C25_12 C26_12 1_555 1_555
C26_12 H14_12 1_555 1_555
C27_11 C26_12 1_555 1_555
C30_12 C25_12 1_555 1_555
H16_12 C30_12 1_555 1_555
C32_11 C27_11 1_555 1_555
C33_11 C32_11 1_555 1_555
H17_11 C33_11 1_555 1_555
C34_12 C33_11 1_555 1_555
H18_12 C34_12 1_555 1_555
C35_12 C34_12 1_555 1_555
C36_11 C35_12 1_555 1_555
C38_12 C35_12 1_555 1_555
C39_12 C38_12 1_555 1_555
H21_12 C39_12 1_555 1_555
C40_12 C39_12 1_555 1_555
H22_12 C40_12 1_555 1_555
C41_12 C40_12 1_555 1_555
C42_12 C41_12 1_555 1_555
C43_12 C38_12 1_555 1_555
C44_12 C41_12 1_555 1_555
O21_5 C24_12 1_555 1_555
O22_5 C24_12 1_555 1_555
O19_6 C44_12 1_555 1_555
O20_6 C44_12 1_555 1_555
Cu7_3 O19_6 1_555 1_555
Cu10_3 O20_6 1_555 1_555
C42_12 C43_12 1_555 1_555
C1_12 C2_12 1_555 1_555
C2_12 C3_12 1_555 1_555
C3_12 H1_12 1_555 1_555
C4_11 C3_12 1_555 1_555
C5_10 C4_11 1_555 1_555
H2_10 C5_10 1_555 1_555
C6_10 C5_10 1_555 1_555
C7_12 C2_12 1_555 1_555
H3_12 C7_12 1_555 1_555
C8_10 C6_10 1_555 1_555
C9_11 C4_11 1_555 1_555
C10_11 C9_11 1_555 1_555
H4_11 C10_11 1_555 1_555
C11_12 C10_11 1_555 1_555
H5_12 C11_12 1_555 1_555
C12_12 C11_12 1_555 1_555
C13_11 C12_12 1_555 1_555
H6_10 C13_11 1_555 1_555
C14_10 C9_11 1_555 1_555
H7_10 C14_10 1_555 1_555
C15_12 C12_12 1_555 1_555
C16_12 C15_12 1_555 1_555
H8_12 C16_12 1_555 1_555
C17_12 C16_12 1_555 1_555
H9_12 C17_12 1_555 1_555
C18_12 C17_12 1_555 1_555
C19_12 C18_12 1_555 1_555
H10_11 C19_12 1_555 1_555
C20_12 C15_12 1_555 1_555
H11_11 C20_12 1_555 1_555
C21_12 C18_12 1_555 1_555
C22_11 H12_11 1_555 1_555
C23_10 H13_10 1_555 1_555
Cu1_10 Cu2_11 1_555 1_555
Cu2_11 O4_11 1_555 1_555
Cu8_5 O2_10 1_555 1_555
O1_12 Cu5_5 1_555 1_555
O3_10 Cu1_10 1_555 1_555
O5_10 C8_10 1_555 1_555
O6_11 C8_10 1_555 1_555
O7_12 C1_12 1_555 1_555
O8_12 C1_12 1_555 1_555
O9_6 C21_12 1_555 1_555
O10_6 C21_12 1_555 1_555
O11_11 C22_11 1_555 1_555
O12_11 C22_11 1_555 1_555
O13_10 C23_10 1_555 1_555
O14_10 C23_10 1_555 1_555
H15_10 C28_10 1_555 1_555
C29_10 C28_10 1_555 1_555
C31_10 C29_10 1_555 1_555
H20_10 C37_10 1_555 1_555
O15_10 Cu1_10 1_555 1_555
O16_11 Cu2_11 1_555 1_555
Cu6_3 O9_6 1_555 1_555
Cu9_3 O10_6 1_555 1_555
O23_9 Cu5_5 1_555 1_555
O24_9 Cu5_5 1_555 1_555
O25_9 Cu8_5 1_555 1_555
O26_9 Cu8_5 1_555 1_555
C6_10 C7_12 1_555 1_555
C13_11 C14_10 1_555 1_555
C19_12 C20_12 1_555 1_555
Cu1_10 O5_10 1_555 1_555
Cu1_10 O12_11 1_555 1_555
Cu1_10 O13_10 1_555 1_555
Cu2_11 O6_11 1_555 1_555
Cu2_11 O11_11 1_555 1_555
Cu2_11 O14_10 1_555 1_555
Cu5_5 O7_12 1_555 1_555
Cu8_5 O8_12 1_555 1_555
C31_10 O15_10 1_555 1_555
C31_10 O16_11 1_555 1_555
H5_13 C11_13 1_555 1_555
C12_13 C11_13 1_555 1_555
C15_13 C12_13 1_555 1_555
C16_13 C15_13 1_555 1_555
H8_13 C16_13 1_555 1_555
C17_13 C16_13 1_555 1_555
H9_13 C17_13 1_555 1_555
C18_13 C17_13 1_555 1_555
C19_13 C18_13 1_555 1_555
H10_12 C19_13 1_555 1_555
C20_13 C15_13 1_555 1_555
H11_12 C20_13 1_555 1_555
C21_13 C18_13 1_555 1_555
O9_7 C21_13 1_555 1_555
O10_7 C21_13 1_555 1_555
Cu7_4 O9_7 1_555 1_555
Cu10_4 O10_7 1_555 1_555
C19_13 C20_13 1_555 1_555
Cu7_4 Cu10_4 1_555 1_555
C1_13 C2_13 1_555 1_555
C2_13 C3_13 1_555 1_555
C3_13 H1_13 1_555 1_555
C7_13 C2_13 1_555 1_555
H3_13 C7_13 1_555 1_555
C22_12 H12_12 1_555 1_555
Cu2_12 O4_12 1_555 1_555
O1_13 Cu6_2 1_555 1_555
O7_13 C1_13 1_555 1_555
O8_13 C1_13 1_555 1_555
O11_12 C22_12 1_555 1_555
O12_12 C22_12 1_555 1_555
C24_13 C25_13 1_555 1_555
C25_13 C26_13 1_555 1_555
C26_13 H14_13 1_555 1_555
C30_13 C25_13 1_555 1_555
H16_13 C30_13 1_555 1_555
O16_12 Cu2_12 1_555 1_555
O17_8 C24_13 1_555 1_555
O18_8 C24_13 1_555 1_555
Cu7_3 O17_8 1_555 1_555
Cu10_3 O18_8 1_555 1_555
O21_6 Cu6_2 1_555 1_555
O22_6 Cu9_2 1_555 1_555
Cu2_12 O6_12 1_555 1_555
Cu2_12 O11_12 1_555 1_555
Cu6_2 O7_13 1_555 1_555
Cu9_2 O8_13 1_555 1_555
H18_13 C34_13 1_555 1_555
C35_13 C34_13 1_555 1_555
C38_13 C35_13 1_555 1_555
C39_13 C38_13 1_555 1_555
H21_13 C39_13 1_555 1_555
C40_13 C39_13 1_555 1_555
H22_13 C40_13 1_555 1_555
C41_13 C40_13 1_555 1_555
C42_13 C41_13 1_555 1_555
H23_12 C42_13 1_555 1_555
C43_13 C38_13 1_555 1_555
H24_12 C43_13 1_555 1_555
C44_13 C41_13 1_555 1_555
O19_7 C44_13 1_555 1_555
O20_7 C44_13 1_555 1_555
Cu6_4 O19_7 1_555 1_555
Cu9_4 O20_7 1_555 1_555
C42_13 C43_13 1_555 1_555
Cu6_4 Cu9_4 1_555 1_555
H18_14 C34_14 1_555 1_555
C35_14 C34_14 1_555 1_555
C38_14 C35_14 1_555 1_555
C39_14 C38_14 1_555 1_555
H21_14 C39_14 1_555 1_555
C40_14 C39_14 1_555 1_555
H22_14 C40_14 1_555 1_555
C41_14 C40_14 1_555 1_555
C42_14 C41_14 1_555 1_555
H23_13 C42_14 1_555 1_555
C43_14 C38_14 1_555 1_555
H24_13 C43_14 1_555 1_555
C44_14 C41_14 1_555 1_555
O19_8 C44_14 1_555 1_555
O20_8 C44_14 1_555 1_555
Cu6_5 O19_8 1_555 1_555
Cu9_5 O20_8 1_555 1_555
C42_14 C43_14 1_555 1_555
Cu6_5 Cu9_5 1_555 1_555
C5_11 C4_12 1_555 1_555
H2_11 C5_11 1_555 1_555
C6_11 C5_11 1_555 1_555
C8_11 C6_11 1_555 1_555
C9_12 C4_12 1_555 1_555
C10_12 C9_12 1_555 1_555
H4_12 C10_12 1_555 1_555
C11_14 C10_12 1_555 1_555
H5_14 C11_14 1_555 1_555
C12_14 C11_14 1_555 1_555
C13_12 C12_14 1_555 1_555
H6_11 C13_12 1_555 1_555
C14_11 C9_12 1_555 1_555
H7_11 C14_11 1_555 1_555
C15_14 C12_14 1_555 1_555
C16_14 C15_14 1_555 1_555
H8_14 C16_14 1_555 1_555
C17_14 C16_14 1_555 1_555
H9_14 C17_14 1_555 1_555
C18_14 C17_14 1_555 1_555
C19_14 C18_14 1_555 1_555
H10_13 C19_14 1_555 1_555
C20_14 C15_14 1_555 1_555
H11_13 C20_14 1_555 1_555
C21_14 C18_14 1_555 1_555
C23_11 H13_11 1_555 1_555
O3_11 Cu1_11 1_555 1_555
O5_11 C8_11 1_555 1_555
O9_8 C21_14 1_555 1_555
O10_8 C21_14 1_555 1_555
O13_11 C23_11 1_555 1_555
O14_11 C23_11 1_555 1_555
C28_11 C27_12 1_555 1_555
H15_11 C28_11 1_555 1_555
C29_11 C28_11 1_555 1_555
C31_11 C29_11 1_555 1_555
C32_12 C27_12 1_555 1_555
C33_12 C32_12 1_555 1_555
H17_12 C33_12 1_555 1_555
H19_11 C36_12 1_555 1_555
C37_11 C32_12 1_555 1_555
H20_11 C37_11 1_555 1_555
O15_11 Cu1_11 1_555 1_555
Cu6_4 O9_8 1_555 1_555
Cu9_4 O10_8 1_555 1_555
C13_12 C14_11 1_555 1_555
C19_14 C20_14 1_555 1_555
Cu1_11 O5_11 1_555 1_555
Cu1_11 O13_11 1_555 1_555
C31_11 O15_11 1_555 1_555
C36_12 C37_11 1_555 1_555
C1_14 C2_14 1_555 1_555
C2_14 C3_14 1_555 1_555
C3_14 H1_14 1_555 1_555
C7_14 C2_14 1_555 1_555
H3_14 C7_14 1_555 1_555
C22_13 H12_13 1_555 1_555
Cu2_13 O4_13 1_555 1_555
Cu9_3 O2_11 1_555 1_555
O1_14 Cu6_3 1_555 1_555
O7_14 C1_14 1_555 1_555
O8_14 C1_14 1_555 1_555
O11_13 C22_13 1_555 1_555
O12_13 C22_13 1_555 1_555
C24_14 C25_14 1_555 1_555
C25_14 C26_14 1_555 1_555
C26_14 H14_14 1_555 1_555
C30_14 C25_14 1_555 1_555
H16_14 C30_14 1_555 1_555
O16_13 Cu2_13 1_555 1_555
O21_6 C24_14 1_555 1_555
O22_6 C24_14 1_555 1_555
O21_7 Cu6_3 1_555 1_555
O22_7 Cu9_3 1_555 1_555
Cu2_13 O6_13 1_555 1_555
Cu2_13 O11_13 1_555 1_555
Cu6_3 O7_14 1_555 1_555
Cu9_3 O8_14 1_555 1_555
C5_12 C4_13 1_555 1_555
H2_12 C5_12 1_555 1_555
C6_12 C5_12 1_555 1_555
C8_12 C6_12 1_555 1_555
C9_13 C4_13 1_555 1_555
C10_13 C9_13 1_555 1_555
H4_13 C10_13 1_555 1_555
H6_12 C13_13 1_555 1_555
C14_12 C9_13 1_555 1_555
H7_12 C14_12 1_555 1_555
C23_12 H13_12 1_555 1_555
O3_12 Cu1_12 1_555 1_555
O5_12 C8_12 1_555 1_555
O13_12 C23_12 1_555 1_555
O14_12 C23_12 1_555 1_555
C28_12 C27_13 1_555 1_555
H15_12 C28_12 1_555 1_555
C29_12 C28_12 1_555 1_555
C31_12 C29_12 1_555 1_555
C32_13 C27_13 1_555 1_555
C33_13 C32_13 1_555 1_555
H17_13 C33_13 1_555 1_555
C34_15 C33_13 1_555 1_555
H18_15 C34_15 1_555 1_555
C35_15 C34_15 1_555 1_555
C36_13 C35_15 1_555 1_555
H19_12 C36_13 1_555 1_555
C37_12 C32_13 1_555 1_555
H20_12 C37_12 1_555 1_555
C38_15 C35_15 1_555 1_555
C39_15 C38_15 1_555 1_555
H21_15 C39_15 1_555 1_555
C40_15 C39_15 1_555 1_555
H22_15 C40_15 1_555 1_555
C41_15 C40_15 1_555 1_555
C42_15 C41_15 1_555 1_555
H23_14 C42_15 1_555 1_555
C43_15 C38_15 1_555 1_555
H24_14 C43_15 1_555 1_555
C44_15 C41_15 1_555 1_555
O15_12 Cu1_12 1_555 1_555
O19_9 C44_15 1_555 1_555
O20_9 C44_15 1_555 1_555
Cu7_4 O19_9 1_555 1_555
Cu10_4 O20_9 1_555 1_555
C13_13 C14_12 1_555 1_555
Cu1_12 O5_12 1_555 1_555
Cu1_12 O13_12 1_555 1_555
C31_12 O15_12 1_555 1_555
C36_13 C37_12 1_555 1_555
C42_15 C43_15 1_555 1_555
C1_15 C2_15 1_555 1_555
C2_15 C3_15 1_555 1_555
C3_15 H1_15 1_555 1_555
C7_15 C2_15 1_555 1_555
H3_15 C7_15 1_555 1_555
C22_14 H12_14 1_555 1_555
Cu2_14 O4_14 1_555 1_555
O1_15 Cu7_3 1_555 1_555
O7_15 C1_15 1_555 1_555
O8_15 C1_15 1_555 1_555
O11_14 C22_14 1_555 1_555
O12_14 C22_14 1_555 1_555
C24_15 C25_15 1_555 1_555
C25_15 C26_15 1_555 1_555
C26_15 H14_15 1_555 1_555
C30_15 C25_15 1_555 1_555
H16_15 C30_15 1_555 1_555
O16_14 Cu2_14 1_555 1_555
O21_7 C24_15 1_555 1_555
O22_7 C24_15 1_555 1_555
Cu2_14 O6_14 1_555 1_555
Cu2_14 O11_14 1_555 1_555
Cu7_3 O7_15 1_555 1_555
Cu10_3 O8_15 1_555 1_555
H5_15 C11_15 1_555 1_555
C12_15 C11_15 1_555 1_555
C15_15 C12_15 1_555 1_555
C16_15 C15_15 1_555 1_555
H8_15 C16_15 1_555 1_555
C17_15 C16_15 1_555 1_555
H9_15 C17_15 1_555 1_555
C18_15 C17_15 1_555 1_555
C19_15 C18_15 1_555 1_555
H10_14 C19_15 1_555 1_555
C20_15 C15_15 1_555 1_555
H11_14 C20_15 1_555 1_555
C21_15 C18_15 1_555 1_555
O9_9 C21_15 1_555 1_555
O10_9 C21_15 1_555 1_555
Cu6_5 O9_9 1_555 1_555
Cu9_5 O10_9 1_555 1_555
C19_15 C20_15 1_555 1_555
C1_16 C2_16 1_555 1_555
C2_16 C3_16 1_555 1_555
C3_16 H1_16 1_555 1_555
C4_14 C3_16 1_555 1_555
C5_13 C4_14 1_555 1_555
H2_13 C5_13 1_555 1_555
C6_13 C5_13 1_555 1_555
C7_16 C2_16 1_555 1_555
H3_16 C7_16 1_555 1_555
C8_13 C6_13 1_555 1_555
C9_14 C4_14 1_555 1_555
C10_14 C9_14 1_555 1_555
H4_14 C10_14 1_555 1_555
C11_16 C10_14 1_555 1_555
H5_16 C11_16 1_555 1_555
C12_16 C11_16 1_555 1_555
C13_14 C12_16 1_555 1_555
H6_13 C13_14 1_555 1_555
C14_13 C9_14 1_555 1_555
H7_13 C14_13 1_555 1_555
C15_16 C12_16 1_555 1_555
C16_16 C15_16 1_555 1_555
H8_16 C16_16 1_555 1_555
C17_16 C16_16 1_555 1_555
H9_16 C17_16 1_555 1_555
C18_16 C17_16 1_555 1_555
C19_16 C18_16 1_555 1_555
H10_15 C19_16 1_555 1_555
C20_16 C15_16 1_555 1_555
H11_15 C20_16 1_555 1_555
C21_16 C18_16 1_555 1_555
C22_15 H12_15 1_555 1_555
C23_13 H13_13 1_555 1_555
Cu1_13 Cu2_15 1_555 1_555
Cu2_15 O4_15 1_555 1_555
Cu9_4 O2_12 1_555 1_555
O1_16 Cu6_4 1_555 1_555
O3_13 Cu1_13 1_555 1_555
O5_13 C8_13 1_555 1_555
O6_15 C8_13 1_555 1_555
O7_16 C1_16 1_555 1_555
O8_16 C1_16 1_555 1_555
O23_9 C21_16 1_555 1_555
O25_9 C21_16 1_555 1_555
O11_15 C22_15 1_555 1_555
O12_15 C22_15 1_555 1_555
O13_13 C23_13 1_555 1_555
O14_13 C23_13 1_555 1_555
C24_16 C25_16 1_555 1_555
C25_16 C26_16 1_555 1_555
C26_16 H14_16 1_555 1_555
C27_14 C26_16 1_555 1_555
C28_13 C27_14 1_555 1_555
H15_13 C28_13 1_555 1_555
C29_13 C28_13 1_555 1_555
C30_16 C25_16 1_555 1_555
H16_16 C30_16 1_555 1_555
C31_13 C29_13 1_555 1_555
C32_14 C27_14 1_555 1_555
C33_14 C32_14 1_555 1_555
H17_14 C33_14 1_555 1_555
C34_16 C33_14 1_555 1_555
H18_16 C34_16 1_555 1_555
C35_16 C34_16 1_555 1_555
C36_14 C35_16 1_555 1_555
H19_13 C36_14 1_555 1_555
C37_13 C32_14 1_555 1_555
H20_13 C37_13 1_555 1_555
C38_16 C35_16 1_555 1_555
C39_16 C38_16 1_555 1_555
H21_16 C39_16 1_555 1_555
C40_16 C39_16 1_555 1_555
H22_16 C40_16 1_555 1_555
C41_16 C40_16 1_555 1_555
C42_16 C41_16 1_555 1_555
H23_15 C42_16 1_555 1_555
C43_16 C38_16 1_555 1_555
H24_15 C43_16 1_555 1_555
C44_16 C41_16 1_555 1_555
O15_13 Cu1_13 1_555 1_555
O16_15 Cu2_15 1_555 1_555
O17_9 C24_16 1_555 1_555
O18_9 C24_16 1_555 1_555
O24_7 C44_16 1_555 1_555
O26_7 C44_16 1_555 1_555
Cu7_4 O17_9 1_555 1_555
Cu10_4 O18_9 1_555 1_555
O21_8 Cu6_4 1_555 1_555
O22_8 Cu9_4 1_555 1_555
C6_13 C7_16 1_555 1_555
C13_14 C14_13 1_555 1_555
C19_16 C20_16 1_555 1_555
Cu1_13 O5_13 1_555 1_555
Cu1_13 O12_15 1_555 1_555
Cu1_13 O13_13 1_555 1_555
Cu2_15 O6_15 1_555 1_555
Cu2_15 O11_15 1_555 1_555
Cu2_15 O14_13 1_555 1_555
Cu6_4 O7_16 1_555 1_555
Cu9_4 O8_16 1_555 1_555
C29_13 C30_16 1_555 1_555
C31_13 O15_13 1_555 1_555
C31_13 O16_15 1_555 1_555
C36_14 C37_13 1_555 1_555
C42_16 C43_16 1_555 1_555
C16_17 C15_17 1_555 1_555
C17_17 C16_17 1_555 1_555
H9_17 C17_17 1_555 1_555
C18_17 C17_17 1_555 1_555
C19_17 C18_17 1_555 1_555
H10_16 C19_17 1_555 1_555
C20_17 C15_17 1_555 1_555
H11_16 C20_17 1_555 1_555
C21_17 C18_17 1_555 1_555
O23_7 C21_17 1_555 1_555
O25_7 C21_17 1_555 1_555
C39_17 C38_17 1_555 1_555
C40_17 C39_17 1_555 1_555
H22_17 C40_17 1_555 1_555
C41_17 C40_17 1_555 1_555
C42_17 C41_17 1_555 1_555
H23_16 C42_17 1_555 1_555
C43_17 C38_17 1_555 1_555
H24_16 C43_17 1_555 1_555
C44_17 C41_17 1_555 1_555
O24_8 C44_17 1_555 1_555
O26_8 C44_17 1_555 1_555
C19_17 C20_17 1_555 1_555
C42_17 C43_17 1_555 1_555
C1_17 C2_17 1_555 1_555
C2_17 C3_17 1_555 1_555
C3_17 H1_17 1_555 1_555
C4_15 C3_17 1_555 1_555
C5_14 C4_15 1_555 1_555
H2_14 C5_14 1_555 1_555
C6_14 C5_14 1_555 1_555
C7_17 C2_17 1_555 1_555
H3_17 C7_17 1_555 1_555
C8_14 C6_14 1_555 1_555
C9_15 C4_15 1_555 1_555
C10_15 C9_15 1_555 1_555
H4_15 C10_15 1_555 1_555
C11_17 C10_15 1_555 1_555
H5_17 C11_17 1_555 1_555
C12_17 C11_17 1_555 1_555
C13_15 C12_17 1_555 1_555
C14_14 C9_15 1_555 1_555
H7_14 C14_14 1_555 1_555
C22_16 H12_16 1_555 1_555
C23_14 H13_14 1_555 1_555
Cu1_14 Cu2_16 1_555 1_555
Cu2_16 O4_16 1_555 1_555
Cu9_5 O2_13 1_555 1_555
O1_17 Cu6_5 1_555 1_555
O3_14 Cu1_14 1_555 1_555
O5_14 C8_14 1_555 1_555
O6_16 C8_14 1_555 1_555
O7_17 C1_17 1_555 1_555
O8_17 C1_17 1_555 1_555
O11_16 C22_16 1_555 1_555
O12_16 C22_16 1_555 1_555
O13_14 C23_14 1_555 1_555
O14_14 C23_14 1_555 1_555
C24_17 C25_17 1_555 1_555
C25_17 C26_17 1_555 1_555
C26_17 H14_17 1_555 1_555
C27_15 C26_17 1_555 1_555
C28_14 C27_15 1_555 1_555
H15_14 C28_14 1_555 1_555
C29_14 C28_14 1_555 1_555
C30_17 C25_17 1_555 1_555
H16_17 C30_17 1_555 1_555
C31_14 C29_14 1_555 1_555
C32_15 C27_15 1_555 1_555
C33_15 C32_15 1_555 1_555
H17_15 C33_15 1_555 1_555
C34_17 C33_15 1_555 1_555
H18_17 C34_17 1_555 1_555
C35_17 C34_17 1_555 1_555
C36_15 C35_17 1_555 1_555
C37_14 C32_15 1_555 1_555
H20_14 C37_14 1_555 1_555
O15_14 Cu1_14 1_555 1_555
O16_16 Cu2_16 1_555 1_555
O21_8 C24_17 1_555 1_555
O22_8 C24_17 1_555 1_555
O21_9 Cu6_5 1_555 1_555
O22_9 Cu9_5 1_555 1_555
C6_14 C7_17 1_555 1_555
C13_15 C14_14 1_555 1_555
Cu1_14 O5_14 1_555 1_555
Cu1_14 O12_16 1_555 1_555
Cu1_14 O13_14 1_555 1_555
Cu2_16 O6_16 1_555 1_555
Cu2_16 O11_16 1_555 1_555
Cu2_16 O14_14 1_555 1_555
Cu6_5 O7_17 1_555 1_555
Cu9_5 O8_17 1_555 1_555
C29_14 C30_17 1_555 1_555
C31_14 O15_14 1_555 1_555
C31_14 O16_16 1_555 1_555
C36_15 C37_14 1_555 1_555
C1_18 C2_18 1_555 1_555
C2_18 C3_18 1_555 1_555
C3_18 H1_18 1_555 1_555
C4_16 C3_18 1_555 1_555
C5_15 C4_16 1_555 1_555
H2_15 C5_15 1_555 1_555
C6_15 C5_15 1_555 1_555
C7_18 C2_18 1_555 1_555
H3_18 C7_18 1_555 1_555
C8_15 C6_15 1_555 1_555
C9_16 C4_16 1_555 1_555
C10_16 C9_16 1_555 1_555
H4_16 C10_16 1_555 1_555
C11_18 C10_16 1_555 1_555
H5_18 C11_18 1_555 1_555
C12_18 C11_18 1_555 1_555
C13_16 C12_18 1_555 1_555
C14_15 C9_16 1_555 1_555
H7_15 C14_15 1_555 1_555
C22_17 H12_17 1_555 1_555
C23_15 H13_15 1_555 1_555
Cu1_15 Cu2_17 1_555 1_555
Cu2_17 O4_17 1_555 1_555
Cu10_4 O2_14 1_555 1_555
O1_18 Cu7_4 1_555 1_555
O3_15 Cu1_15 1_555 1_555
O5_15 C8_15 1_555 1_555
O6_17 C8_15 1_555 1_555
O7_18 C1_18 1_555 1_555
O8_18 C1_18 1_555 1_555
O11_17 C22_17 1_555 1_555
O12_17 C22_17 1_555 1_555
O13_15 C23_15 1_555 1_555
O14_15 C23_15 1_555 1_555
C24_18 C25_18 1_555 1_555
C25_18 C26_18 1_555 1_555
C26_18 H14_18 1_555 1_555
C27_16 C26_18 1_555 1_555
C28_15 C27_16 1_555 1_555
H15_15 C28_15 1_555 1_555
C29_15 C28_15 1_555 1_555
C30_18 C25_18 1_555 1_555
H16_18 C30_18 1_555 1_555
C31_15 C29_15 1_555 1_555
C32_16 C27_16 1_555 1_555
C33_16 C32_16 1_555 1_555
H17_16 C33_16 1_555 1_555
C34_18 C33_16 1_555 1_555
H18_18 C34_18 1_555 1_555
C35_18 C34_18 1_555 1_555
C36_16 C35_18 1_555 1_555
C37_15 C32_16 1_555 1_555
H20_15 C37_15 1_555 1_555
O15_15 Cu1_15 1_555 1_555
O16_17 Cu2_17 1_555 1_555
O21_9 C24_18 1_555 1_555
O22_9 C24_18 1_555 1_555
C6_15 C7_18 1_555 1_555
C13_16 C14_15 1_555 1_555
Cu1_15 O5_15 1_555 1_555
Cu1_15 O12_17 1_555 1_555
Cu1_15 O13_15 1_555 1_555
Cu2_17 O6_17 1_555 1_555
Cu2_17 O11_17 1_555 1_555
Cu2_17 O14_15 1_555 1_555
Cu7_4 O7_18 1_555 1_555
Cu10_4 O8_18 1_555 1_555
C29_15 C30_18 1_555 1_555
C31_15 O15_15 1_555 1_555
C31_15 O16_17 1_555 1_555
C36_16 C37_15 1_555 1_555
C16_18 C15_18 1_555 1_555
C17_18 C16_18 1_555 1_555
H9_18 C17_18 1_555 1_555
C18_18 C17_18 1_555 1_555
C19_18 C18_18 1_555 1_555
H10_17 C19_18 1_555 1_555
C20_18 C15_18 1_555 1_555
H11_17 C20_18 1_555 1_555
C21_18 C18_18 1_555 1_555
O23_8 C21_18 1_555 1_555
O25_8 C21_18 1_555 1_555
C39_18 C38_18 1_555 1_555
C40_18 C39_18 1_555 1_555
H22_18 C40_18 1_555 1_555
C41_18 C40_18 1_555 1_555
C42_18 C41_18 1_555 1_555
H23_17 C42_18 1_555 1_555
C43_18 C38_18 1_555 1_555
H24_17 C43_18 1_555 1_555
C44_18 C41_18 1_555 1_555
O24_9 C44_18 1_555 1_555
O26_9 C44_18 1_555 1_555
C19_18 C20_18 1_555 1_555
C42_18 C43_18 1_555 1_555
H2_16 C5_16 1_555 1_555
C6_16 C5_16 1_555 1_555
C8_16 C6_16 1_555 1_555
H7_16 C14_16 1_555 1_555
C22_18 H12_18 1_555 1_555
C23_16 H13_16 1_555 1_555
Cu1_16 Cu2_18 1_555 1_555
Cu2_18 O4_18 1_555 1_555
O3_16 Cu1_16 1_555 1_555
O5_16 C8_16 1_555 1_555
O6_18 C8_16 1_555 1_555
O11_18 C22_18 1_555 1_555
O12_18 C22_18 1_555 1_555
O13_16 C23_16 1_555 1_555
O14_16 C23_16 1_555 1_555
H15_16 C28_16 1_555 1_555
C29_16 C28_16 1_555 1_555
C31_16 C29_16 1_555 1_555
H20_16 C37_16 1_555 1_555
O15_16 Cu1_16 1_555 1_555
O16_18 Cu2_18 1_555 1_555
Cu1_16 O5_16 1_555 1_555
Cu1_16 O12_18 1_555 1_555
Cu1_16 O13_16 1_555 1_555
Cu2_18 O6_18 1_555 1_555
Cu2_18 O11_18 1_555 1_555
Cu2_18 O14_16 1_555 1_555
C31_16 O15_16 1_555 1_555
C31_16 O16_18 1_555 1_555
C5_17 C4_17 1_555 1_555
H2_17 C5_17 1_555 1_555
C6_17 C5_17 1_555 1_555
C8_17 C6_17 1_555 1_555
C9_17 C4_17 1_555 1_555
C10_17 C9_17 1_555 1_555
H4_17 C10_17 1_555 1_555
H6_17 C13_17 1_555 1_555
C14_17 C9_17 1_555 1_555
H7_17 C14_17 1_555 1_555
C23_17 H13_17 1_555 1_555
O3_17 Cu1_17 1_555 1_555
O5_17 C8_17 1_555 1_555
O13_17 C23_17 1_555 1_555
O14_17 C23_17 1_555 1_555
C28_17 C27_17 1_555 1_555
H15_17 C28_17 1_555 1_555
C29_17 C28_17 1_555 1_555
C31_17 C29_17 1_555 1_555
C32_17 C27_17 1_555 1_555
C33_17 C32_17 1_555 1_555
H17_17 C33_17 1_555 1_555
H19_17 C36_17 1_555 1_555
C37_17 C32_17 1_555 1_555
H20_17 C37_17 1_555 1_555
O15_17 Cu1_17 1_555 1_555
C13_17 C14_17 1_555 1_555
Cu1_17 O5_17 1_555 1_555
Cu1_17 O13_17 1_555 1_555
C31_17 O15_17 1_555 1_555
C36_17 C37_17 1_555 1_555
C5_18 C4_18 1_555 1_555
H2_18 C5_18 1_555 1_555
C6_18 C5_18 1_555 1_555
C8_18 C6_18 1_555 1_555
C9_18 C4_18 1_555 1_555
C10_18 C9_18 1_555 1_555
H4_18 C10_18 1_555 1_555
H6_18 C13_18 1_555 1_555
C14_18 C9_18 1_555 1_555
H7_18 C14_18 1_555 1_555
C23_18 H13_18 1_555 1_555
O3_18 Cu1_18 1_555 1_555
O5_18 C8_18 1_555 1_555
O13_18 C23_18 1_555 1_555
O14_18 C23_18 1_555 1_555
C28_18 C27_18 1_555 1_555
H15_18 C28_18 1_555 1_555
C29_18 C28_18 1_555 1_555
C31_18 C29_18 1_555 1_555
C32_18 C27_18 1_555 1_555
C33_18 C32_18 1_555 1_555
H17_18 C33_18 1_555 1_555
H19_18 C36_18 1_555 1_555
C37_18 C32_18 1_555 1_555
H20_18 C37_18 1_555 1_555
O15_18 Cu1_18 1_555 1_555
C13_18 C14_18 1_555 1_555
Cu1_18 O5_18 1_555 1_555
Cu1_18 O13_18 1_555 1_555
C31_18 O15_18 1_555 1_555
C36_18 C37_18 1_555 1_555

#END
