
###############################################################################
#
# This file contains modified crystal structure data generated from the
# MOF subset of the Cambridge Structural Database (CSD) v543 
# hosted by the Cambridge Crystallographic Data Centre (CCDC).
#
# This work is licensed under the Creative Commons
# Attribution-NonCommercial-ShareAlike 4.0 International License.
# To view a copy of this license, visit
# http://creativecommons.org/licenses/by-nc-sa/4.0/
# or send a letter to
# Creative Commons, PO Box 1866, Mountain View, CA 94042, USA.
#
# CIF created using the CSD Python API on 29 September 2022
# The structure has been converted into the P1 space group
# The structure has a 3D framework
# The original CSD entry IPUPOA is in the orthorhombic crystal system
# The framework has been calculated to contain at least 10.0% void space
# The void calculation uses a probe of radius 1.32A, grid spacing 0.4
#
###############################################################################

data_IPUPOA
_chemical_formula_moiety         '(C672 H448 Cu56 O248)n'
_symmetry_cell_setting           triclinic
_symmetry_space_group_name_H-M   'P 1'
_symmetry_Int_Tables_number      1
_space_group_name_Hall           'P 1'
loop_
_symmetry_equiv_pos_site_id
_symmetry_equiv_pos_as_xyz
1 x,y,z
_cell_length_a                   36.542(7)
_cell_length_b                   39.322(8)
_cell_length_c                   43.852(9)
_cell_angle_alpha                90
_cell_angle_beta                 90
_cell_angle_gamma                90
_cell_volume                     63011.1
loop_
_atom_site_label
_atom_site_type_symbol
_atom_site_fract_x
_atom_site_fract_y
_atom_site_fract_z
Cu27 Cu 0.0000 0.14848(3) 0.69762(2)
Cu30 Cu 0.0000 0.11890(3) 0.75206(2)
Cu7 Cu -0.0000 0.85152(3) 0.19762(2)
Cu8 Cu -0.0000 0.88110(3) 0.25206(2)
O7 O -0.0000 0.82931(17) 0.15347(15)
O8 O -0.0000 0.90267(18) 0.29825(15)
H55 H 0.0183 0.8359 0.1439
H56 H 0.0213 0.9057 0.3040
O65 O 0.03840(14) 0.91107(11) 0.23406(11)
O66 O 0.03783(15) 0.88706(12) 0.18940(12)
O79 O 0.03925(12) 0.82220(10) 0.21462(9)
O81 O 0.03854(13) 0.84713(11) 0.26120(11)
Cu1 Cu 0.5000 0.00060(2) 0.15728(2)
Cu2 Cu 0.5000 0.05611(2) 0.12263(2)
O1 O 0.5000 0.10060(16) 0.09409(15)
H1 H 0.5207 0.1035 0.0868
O9 O 0.53837(12) 0.03129(10) 0.09906(9)
O11 O 0.63933(12) 0.04887(10) 0.02483(9)
O12 O 0.68654(15) 0.01029(11) 0.02425(10)
O15 O 0.69030(13) 0.09884(10) 0.03805(9)
O16 O 0.73614(14) 0.06172(11) 0.03615(10)
O17 O 0.68394(13) 0.17164(9) 0.13488(8)
O18 O 0.72218(12) 0.15695(10) 0.17305(10)
O21 O 0.53773(12) 0.02598(10) 0.18072(9)
O22 O 0.53836(12) 0.07202(10) 0.15190(9)
O23 O 0.62711(12) 0.16409(10) 0.17617(10)
O24 O 0.66668(13) 0.15520(10) 0.21557(9)
C1 C 0.55068(18) 0.00359(16) 0.10890(14)
C3 C 0.60091(19) 0.01003(15) 0.06846(14)
H11 H 0.5899 0.0306 0.0624
C8 C 0.6553(2) 0.02173(18) 0.03237(15)
C21 C 0.7165(2) 0.08555(16) 0.04932(15)
C22 C 0.7315(2) 0.09403(16) 0.08024(14)
C23 C 0.7148(2) 0.11996(16) 0.09764(15)
H21 H 0.6953 0.1326 0.0893
C24 C 0.7273(2) 0.12707(17) 0.12764(15)
C25 C 0.7542(2) 0.10759(17) 0.14079(15)
H22 H 0.7617 0.1118 0.1609
C26 C 0.7709(2) 0.08047(18) 0.12325(17)
C27 C 0.7579(2) 0.07465(16) 0.09358(15)
H23 H 0.7679 0.0565 0.0824
C28 C 0.7086(2) 0.15500(16) 0.14707(16)
C29 C 0.7981(3) 0.0571(2) 0.1376(2)
C30 C 0.8001(3) 0.0485(3) 0.1657(2)
H24 H 0.7825 0.0578 0.1790
C31 C 0.8272(3) 0.0257(2) 0.1792(2)
H25 H 0.8278 0.0228 0.2004
C32 C 0.8507(3) 0.0090(2) 0.1618(2)
C33 C 0.8494(3) 0.0193(3) 0.1344(3)
H26 H 0.8674 0.0103 0.1214
C34 C 0.8239(3) 0.0429(2) 0.1203(2)
H27 H 0.8255 0.0480 0.0994
H28 H 0.8743 0.0028 0.2168
C42 C 0.54732(19) 0.05506(17) 0.17356(15)
C43 C 0.57398(19) 0.07090(15) 0.19684(14)
C44 C 0.5828(2) 0.05625(16) 0.22315(15)
H32 H 0.5715 0.0355 0.2280
C45 C 0.6084(2) 0.07005(17) 0.24466(16)
C46 C 0.6254(2) 0.09927(16) 0.23538(15)
H33 H 0.6436 0.1086 0.2480
C47 C 0.6170(2) 0.11571(16) 0.20844(15)
C48 C 0.5923(2) 0.10252(16) 0.18764(16)
H34 H 0.5876 0.1131 0.1688
C49 C 0.6392(2) 0.14939(16) 0.19970(17)
C50 C 0.6159(3) 0.0538(2) 0.2743(2)
C51 C 0.5952(4) 0.0355(3) 0.2888(3)
H35 H 0.5724 0.0306 0.2800
C52 C 0.6026(4) 0.0213(3) 0.3173(3)
H36 H 0.5844 0.0070 0.3253
C53 C 0.6311(4) 0.0253(3) 0.3337(2)
C54 C 0.6634(4) 0.0385(3) 0.3179(3)
H37 H 0.6878 0.0372 0.3246
C55 C 0.6500(4) 0.0546(3) 0.2883(3)
H38 H 0.6678 0.0673 0.2778
C56 C 0.6405(3) 0.0118(2) 0.3627(2)
C60 C 0.6780(3) 0.0113(2) 0.4099(2)
H41 H 0.6957 0.0217 0.4223
C61 C 0.6684(3) 0.0237(2) 0.3799(2)
H42 H 0.6826 0.0414 0.3717
H57 H 0.4793 0.1035 0.0868
O37 O 0.46163(12) 0.03129(10) 0.09906(9)
O39 O 0.36067(12) 0.04887(10) 0.02483(9)
O40 O 0.31346(15) 0.01029(11) 0.02425(10)
O43 O 0.30970(13) 0.09884(10) 0.03805(9)
O44 O 0.26386(14) 0.06172(11) 0.03615(10)
O45 O 0.31606(13) 0.17164(9) 0.13488(8)
O46 O 0.27782(12) 0.15695(10) 0.17305(10)
O49 O 0.46227(12) 0.02598(10) 0.18072(9)
O50 O 0.46164(12) 0.07202(10) 0.15190(9)
O51 O 0.37289(12) 0.16409(10) 0.17617(10)
O52 O 0.33332(13) 0.15520(10) 0.21557(9)
C85 C 0.44932(18) 0.00359(16) 0.10890(14)
C87 C 0.39909(19) 0.01003(15) 0.06846(14)
H69 H 0.4101 0.0306 0.0624
C92 C 0.3447(2) 0.02173(18) 0.03237(15)
C105 C 0.2835(2) 0.08555(16) 0.04932(15)
C106 C 0.2685(2) 0.09403(16) 0.08024(14)
C107 C 0.2852(2) 0.11996(16) 0.09764(15)
H79 H 0.3047 0.1326 0.0893
C108 C 0.2727(2) 0.12707(17) 0.12764(15)
C109 C 0.2458(2) 0.10759(17) 0.14079(15)
H80 H 0.2383 0.1118 0.1609
C110 C 0.2291(2) 0.08047(18) 0.12325(17)
C111 C 0.2421(2) 0.07465(16) 0.09358(15)
H81 H 0.2321 0.0565 0.0824
C112 C 0.2914(2) 0.15500(16) 0.14707(16)
C113 C 0.2019(3) 0.0571(2) 0.1376(2)
C114 C 0.1999(3) 0.0485(3) 0.1657(2)
H82 H 0.2175 0.0578 0.1790
C115 C 0.1728(3) 0.0257(2) 0.1792(2)
H83 H 0.1722 0.0228 0.2004
C116 C 0.1493(3) 0.0090(2) 0.1618(2)
C117 C 0.1506(3) 0.0193(3) 0.1344(3)
H84 H 0.1326 0.0103 0.1214
C118 C 0.1761(3) 0.0429(2) 0.1203(2)
H85 H 0.1745 0.0480 0.0994
H86 H 0.1257 0.0028 0.2168
C126 C 0.45268(19) 0.05506(17) 0.17356(15)
C127 C 0.42602(19) 0.07090(15) 0.19684(14)
C128 C 0.4172(2) 0.05625(16) 0.22315(15)
H90 H 0.4285 0.0355 0.2280
C129 C 0.3916(2) 0.07005(17) 0.24466(16)
C130 C 0.3746(2) 0.09927(16) 0.23538(15)
H91 H 0.3564 0.1086 0.2480
C131 C 0.3830(2) 0.11571(16) 0.20844(15)
C132 C 0.4077(2) 0.10252(16) 0.18764(16)
H92 H 0.4124 0.1131 0.1688
C133 C 0.3608(2) 0.14939(16) 0.19970(17)
C134 C 0.3841(3) 0.0538(2) 0.2743(2)
C135 C 0.4048(4) 0.0355(3) 0.2888(3)
H93 H 0.4276 0.0306 0.2800
C136 C 0.3974(4) 0.0213(3) 0.3173(3)
H94 H 0.4156 0.0070 0.3253
C137 C 0.3689(4) 0.0253(3) 0.3337(2)
C138 C 0.3366(4) 0.0385(3) 0.3179(3)
H95 H 0.3122 0.0372 0.3246
C139 C 0.3500(4) 0.0546(3) 0.2883(3)
H96 H 0.3322 0.0673 0.2778
C140 C 0.3595(3) 0.0118(2) 0.3627(2)
C144 C 0.3220(3) 0.0113(2) 0.4099(2)
H99 H 0.3043 0.0217 0.4223
C145 C 0.3316(3) 0.0237(2) 0.3799(2)
H100 H 0.3174 0.0414 0.3717
Cu19 Cu 0.34550(2) 0.20430(2) 0.16021(2)
Cu20 Cu 0.65450(2) 0.20430(2) 0.16021(2)
Cu23 Cu 0.29661(2) 0.19070(2) 0.20340(2)
Cu24 Cu 0.70339(2) 0.19070(2) 0.20340(2)
Cu3 Cu 0.66731(2) 0.08230(2) 0.99906(2)
Cu4 Cu 0.72109(2) 0.03679(2) 0.99955(2)
O3 O 0.62388(14) 0.11934(11) 0.99468(12)
H3 H 0.6319 0.1390 0.9992
H4 H 0.6166 0.1197 0.9763
O27 O 0.82268(14) 0.27551(10) 0.72849(10)
O28 O 0.86704(13) 0.26719(10) 0.69345(10)
O29 O 0.96075(12) 0.17780(10) 0.71462(9)
O30 O 0.96146(13) 0.15287(11) 0.76120(11)
O31 O 0.70246(15) 0.10965(11) 0.97407(10)
O32 O 0.74780(14) 0.07031(12) 0.97440(10)
C63 C 0.8513(2) 0.26220(17) 0.71780(17)
C64 C 0.8682(2) 0.23361(17) 0.74012(16)
C65 C 0.9001(2) 0.21804(17) 0.73238(15)
H43 H 0.9113 0.2236 0.7138
C66 C 0.9160(2) 0.19482(16) 0.75079(15)
C67 C 0.8984(2) 0.18838(17) 0.77865(16)
H44 H 0.9089 0.1722 0.7917
C68 C 0.8683(2) 0.20351(18) 0.78766(17)
C69 C 0.8519(2) 0.22781(16) 0.76713(16)
H45 H 0.8303 0.2393 0.7725
C70 C 0.9486(2) 0.17424(16) 0.74195(16)
C71 C 0.8487(3) 0.19589(19) 0.81797(19)
C72 C 0.8690(3) 0.1838(2) 0.8422(2)
H46 H 0.8947 0.1836 0.8416
C73 C 0.8490(3) 0.1713(2) 0.8688(2)
H47 H 0.8622 0.1645 0.8861
C74 C 0.8116(3) 0.1692(2) 0.8691(2)
C75 C 0.7921(3) 0.1833(2) 0.8470(2)
H48 H 0.7667 0.1864 0.8492
C76 C 0.8106(3) 0.1941(2) 0.8193(2)
H49 H 0.7967 0.1999 0.8020
C77 C 0.7922(3) 0.1536(2) 0.8965(2)
C78 C 0.8068(2) 0.1258(2) 0.9123(2)
H50 H 0.8302 0.1180 0.9067
C79 C 0.7899(3) 0.1102(2) 0.9341(2)
H51 H 0.8018 0.0921 0.9440
C80 C 0.7541(3) 0.1194(2) 0.94370(18)
C81 C 0.7397(2) 0.14874(19) 0.93060(17)
H52 H 0.7174 0.1580 0.9374
C82 C 0.7593(3) 0.1639(2) 0.90715(19)
H53 H 0.7488 0.1831 0.8979
C83 C 0.7332(3) 0.1004(2) 0.96796(17)
Cu9 Cu 0.33269(2) 0.08230(2) 0.99906(2)
Cu10 Cu 0.27891(2) 0.03679(2) 0.99955(2)
O33 O 0.37612(14) 0.11934(11) 0.99468(12)
H61 H 0.3681 0.1390 0.9992
H62 H 0.3834 0.1197 0.9763
O55 O 0.17732(14) 0.27551(10) 0.72849(10)
O56 O 0.13296(13) 0.26719(10) 0.69345(10)
O57 O 0.03925(12) 0.17780(10) 0.71462(9)
O58 O 0.03854(13) 0.15287(11) 0.76120(11)
O59 O 0.29754(15) 0.10965(11) 0.97407(10)
O60 O 0.25220(14) 0.07031(12) 0.97440(10)
C147 C 0.1487(2) 0.26220(17) 0.71780(17)
C148 C 0.1318(2) 0.23361(17) 0.74012(16)
C149 C 0.0999(2) 0.21804(17) 0.73238(15)
H101 H 0.0887 0.2236 0.7138
C150 C 0.0840(2) 0.19482(16) 0.75079(15)
C151 C 0.1016(2) 0.18838(17) 0.77865(16)
H102 H 0.0911 0.1722 0.7917
C152 C 0.1317(2) 0.20351(18) 0.78766(17)
C153 C 0.1481(2) 0.22781(16) 0.76713(16)
H103 H 0.1697 0.2393 0.7725
C154 C 0.0514(2) 0.17424(16) 0.74195(16)
C155 C 0.1513(3) 0.19589(19) 0.81797(19)
C156 C 0.1310(3) 0.1838(2) 0.8422(2)
H104 H 0.1053 0.1836 0.8416
C157 C 0.1510(3) 0.1713(2) 0.8688(2)
H105 H 0.1378 0.1645 0.8861
C158 C 0.1884(3) 0.1692(2) 0.8691(2)
C159 C 0.2079(3) 0.1833(2) 0.8470(2)
H106 H 0.2333 0.1864 0.8492
C160 C 0.1894(3) 0.1941(2) 0.8193(2)
H107 H 0.2033 0.1999 0.8020
C161 C 0.2078(3) 0.1536(2) 0.8965(2)
C162 C 0.1932(2) 0.1258(2) 0.9123(2)
H108 H 0.1698 0.1180 0.9067
C163 C 0.2101(3) 0.1102(2) 0.9341(2)
H109 H 0.1982 0.0921 0.9440
C164 C 0.2459(3) 0.1194(2) 0.94370(18)
C165 C 0.2603(2) 0.14874(19) 0.93060(17)
H110 H 0.2826 0.1580 0.9374
C166 C 0.2407(3) 0.1639(2) 0.90715(19)
H111 H 0.2512 0.1831 0.8979
C167 C 0.2668(3) 0.1004(2) 0.96796(17)
Cu17 Cu 0.15450(2) 0.29570(2) 0.66021(2)
Cu18 Cu 0.84550(2) 0.29570(2) 0.66021(2)
Cu21 Cu 0.20339(2) 0.30930(2) 0.70340(2)
Cu22 Cu 0.79661(2) 0.30930(2) 0.70340(2)
Cu27_2 Cu 1.0000 0.14848(3) 0.69762(2)
Cu30_2 Cu 1.0000 0.11890(3) 0.75206(2)
O71 O 0.30141(16) 0.01791(13) 0.96330(11)
O72 O 0.69859(16) 0.01791(13) 0.96330(11)
O73 O 0.34671(14) 0.05645(12) 0.96181(10)
O74 O 0.65329(14) 0.05645(12) 0.96181(10)
Cu5 Cu 0.84550(2) 0.70430(2) 0.16021(2)
Cu6 Cu 0.79661(2) 0.69070(2) 0.20340(2)
Cu7_2 Cu 1.0000 0.85152(3) 0.19762(2)
Cu8_2 Cu 1.0000 0.88110(3) 0.25206(2)
O2 O 0.5000 0.95516(16) 0.18547(14)
H2 H 0.5213 0.9505 0.1905
O4 O 0.76412(14) 0.99976(12) 0.00197(12)
H6 H 0.7651 0.9918 0.0200
O5 O 0.88507(15) 0.71883(12) 0.12610(11)
H7 H 0.8813 0.7393 0.1206
H8 H 0.8827 0.7061 0.1105
O6 O 0.75650(15) 0.67752(12) 0.23756(10)
H9 H 0.7605 0.6574 0.2438
H10 H 0.7583 0.6910 0.2527
O7_2 O 1.0000 0.82931(17) 0.15347(15)
O8_2 O 1.0000 0.90267(18) 0.29825(15)
O10 O 0.53911(12) 0.98482(10) 0.12880(9)
O13 O 0.76713(13) 0.72785(11) 0.18322(11)
O14 O 0.81117(15) 0.74057(10) 0.14930(10)
O19 O 0.96160(14) 0.91107(11) 0.23406(11)
O20 O 0.96217(15) 0.88706(12) 0.18940(12)
O25 O 0.69859(16) 0.98209(13) 0.46330(11)
O26 O 0.65329(14) 0.94355(12) 0.46181(10)
C2 C 0.5849(2) 0.98918(16) 0.09021(14)
C4 C 0.6347(2) 0.99894(16) 0.05568(14)
C5 C 0.6492(2) 0.96907(17) 0.06519(16)
H12 H 0.6713 0.9618 0.0562
C6 C 0.6336(2) 0.94822(19) 0.08760(17)
C7 C 0.6000(2) 0.95967(16) 0.10056(15)
H13 H 0.5884 0.9470 0.1160
C9 C 0.6521(3) 0.9166(2) 0.0985(2)
C10 C 0.6728(3) 0.8962(2) 0.0781(2)
H14 H 0.6712 0.9016 0.0572
C11 C 0.6963(3) 0.8675(2) 0.0864(2)
H15 H 0.7115 0.8561 0.0724
C12 C 0.6937(3) 0.8580(2) 0.11920(19)
C13 C 0.6697(3) 0.8780(2) 0.1358(2)
H16 H 0.6644 0.8696 0.1554
C14 C 0.6515(3) 0.9088(2) 0.1284(2)
H17 H 0.6401 0.9226 0.1431
C15 C 0.7158(3) 0.8294(2) 0.1293(2)
C16 C 0.7469(3) 0.8216(2) 0.1173(2)
H18 H 0.7554 0.8353 0.1012
C17 C 0.7578(3) 0.77313(19) 0.15198(19)
C18 C 0.7225(2) 0.7818(2) 0.16562(19)
H19 H 0.7129 0.7692 0.1820
C19 C 0.7036(3) 0.8090(2) 0.1535(2)
H20 H 0.6808 0.8143 0.1621
C20 C 0.7795(2) 0.74509(18) 0.16326(18)
C35 C 0.8755(3) 0.9843(2) 0.1735(2)
C36 C 0.8846(3) 0.9861(2) 0.2041(2)
C37 C 0.9113(3) 0.9606(2) 0.2166(2)
H29 H 0.9194 0.9621 0.2369
C38 C 0.9241(2) 0.9340(2) 0.19732(19)
C39 C 0.9129(3) 0.9337(2) 0.1668(2)
H30 H 0.9224 0.9171 0.1535
C40 C 0.8876(3) 0.9577(2) 0.1557(2)
H31 H 0.8787 0.9556 0.1356
C41 C 0.9519(2) 0.9089(2) 0.2072(2)
C57 C 0.6231(3) 0.9816(2) 0.3755(2)
H39 H 0.6059 0.9700 0.3633
C58 C 0.6302(2) 0.96877(19) 0.40419(18)
H40 H 0.6157 0.9515 0.4128
C59 C 0.6583(3) 0.9821(2) 0.41893(18)
C62 C 0.6720(3) 0.9682(2) 0.45136(18)
C84 C 0.7695(3) 0.7937(2) 0.1263(2)
H54 H 0.7913 0.7888 0.1159
H58 H 0.4787 0.9505 0.1905
H59 H 0.9817 0.8359 0.1439
H60 H 0.9787 0.9057 0.3040
Cu11 Cu 0.15450(2) 0.70430(2) 0.16021(2)
Cu12 Cu 0.20339(2) 0.69070(2) 0.20340(2)
O34 O 0.23588(14) 0.99976(12) 0.00197(12)
H64 H 0.2349 0.9918 0.0200
O35 O 0.11493(15) 0.71883(12) 0.12610(11)
H65 H 0.1187 0.7393 0.1206
H66 H 0.1173 0.7061 0.1105
O36 O 0.24350(15) 0.67752(12) 0.23756(10)
H67 H 0.2395 0.6574 0.2438
H68 H 0.2417 0.6910 0.2527
O38 O 0.46089(12) 0.98482(10) 0.12880(9)
O41 O 0.23287(13) 0.72785(11) 0.18322(11)
O42 O 0.18883(15) 0.74057(10) 0.14930(10)
O53 O 0.30141(16) 0.98209(13) 0.46330(11)
O54 O 0.34671(14) 0.94355(12) 0.46181(10)
C86 C 0.4151(2) 0.98918(16) 0.09021(14)
C88 C 0.3653(2) 0.99894(16) 0.05568(14)
C89 C 0.3508(2) 0.96907(17) 0.06519(16)
H70 H 0.3287 0.9618 0.0562
C90 C 0.3664(2) 0.94822(19) 0.08760(17)
C91 C 0.4000(2) 0.95967(16) 0.10056(15)
H71 H 0.4116 0.9470 0.1160
C93 C 0.3479(3) 0.9166(2) 0.0985(2)
C94 C 0.3272(3) 0.8962(2) 0.0781(2)
H72 H 0.3288 0.9016 0.0572
C95 C 0.3037(3) 0.8675(2) 0.0864(2)
H73 H 0.2885 0.8561 0.0724
C96 C 0.3063(3) 0.8580(2) 0.11920(19)
C97 C 0.3303(3) 0.8780(2) 0.1358(2)
H74 H 0.3356 0.8696 0.1554
C98 C 0.3485(3) 0.9088(2) 0.1284(2)
H75 H 0.3599 0.9226 0.1431
C99 C 0.2842(3) 0.8294(2) 0.1293(2)
C100 C 0.2531(3) 0.8216(2) 0.1173(2)
H76 H 0.2446 0.8353 0.1012
C101 C 0.2422(3) 0.77313(19) 0.15198(19)
C102 C 0.2775(2) 0.7818(2) 0.16562(19)
H77 H 0.2871 0.7692 0.1820
C103 C 0.2964(3) 0.8090(2) 0.1535(2)
H78 H 0.3192 0.8143 0.1621
C104 C 0.2205(2) 0.74509(18) 0.16326(18)
C119 C 0.1245(3) 0.9843(2) 0.1735(2)
C120 C 0.1154(3) 0.9861(2) 0.2041(2)
C121 C 0.0887(3) 0.9606(2) 0.2166(2)
H87 H 0.0806 0.9621 0.2369
C122 C 0.0759(2) 0.9340(2) 0.19732(19)
C123 C 0.0871(3) 0.9337(2) 0.1668(2)
H88 H 0.0776 0.9171 0.1535
C124 C 0.1124(3) 0.9577(2) 0.1557(2)
H89 H 0.1213 0.9556 0.1356
C125 C 0.0481(2) 0.9089(2) 0.2072(2)
C141 C 0.3769(3) 0.9816(2) 0.3755(2)
H97 H 0.3941 0.9700 0.3633
C142 C 0.3698(2) 0.96877(19) 0.40419(18)
H98 H 0.3843 0.9515 0.4128
C143 C 0.3417(3) 0.9821(2) 0.41893(18)
C146 C 0.3280(3) 0.9682(2) 0.45136(18)
C168 C 0.2305(3) 0.7937(2) 0.1263(2)
H112 H 0.2087 0.7888 0.1159
Cu13 Cu 0.33269(2) 0.91770(2) 0.49906(2)
Cu14 Cu 0.66731(2) 0.91770(2) 0.49906(2)
Cu15 Cu 0.27891(2) 0.96321(2) 0.49955(2)
Cu16 Cu 0.72109(2) 0.96321(2) 0.49955(2)
O61 O 0.18394(13) 0.67164(9) 0.13488(8)
O62 O 0.81606(13) 0.67164(9) 0.13488(8)
O63 O 0.22218(12) 0.65695(10) 0.17305(10)
O64 O 0.77782(12) 0.65695(10) 0.17305(10)
O67 O 0.12711(12) 0.66409(10) 0.17617(10)
O68 O 0.87289(12) 0.66409(10) 0.17617(10)
O69 O 0.16668(13) 0.65520(10) 0.21557(9)
O70 O 0.83332(13) 0.65520(10) 0.21557(9)
O75 O 0.17732(14) 0.72449(10) 0.22849(10)
O76 O 0.82268(14) 0.72449(10) 0.22849(10)
O77 O 0.13296(13) 0.73281(10) 0.19345(10)
O78 O 0.86704(13) 0.73281(10) 0.19345(10)
O80 O 0.96075(12) 0.82220(10) 0.21462(9)
O82 O 0.96146(13) 0.84713(11) 0.26120(11)
O2_2 O 0.5000 0.04484(16) 0.68547(14)
H2_2 H 0.4787 0.0495 0.6905
O4_2 O 0.23588(14) 0.00024(12) 0.50197(12)
H5 H 0.2405 0.0165 0.4898
H6_2 H 0.2349 0.0082 0.5200
O5_2 O 0.11493(15) 0.28117(12) 0.62610(11)
H7_2 H 0.1187 0.2607 0.6206
H8_2 H 0.1173 0.2939 0.6105
O6_2 O 0.24350(15) 0.32248(12) 0.73756(10)
H9_2 H 0.2395 0.3426 0.7438
H10_2 H 0.2417 0.3090 0.7527
O7_3 O -0.0000 0.17069(17) 0.65347(15)
O8_3 O 0.0000 0.09733(18) 0.79825(15)
O10_2 O 0.46089(12) 0.01518(10) 0.62880(9)
O13_2 O 0.23287(13) 0.27215(11) 0.68322(11)
O14_2 O 0.18883(15) 0.25943(10) 0.64930(10)
O19_2 O 0.03840(14) 0.08893(11) 0.73406(11)
O20_2 O 0.03783(15) 0.11294(12) 0.68940(12)
C2_2 C 0.4151(2) 0.01082(16) 0.59021(14)
C4_2 C 0.3653(2) 0.00106(16) 0.55568(14)
C5_2 C 0.3508(2) 0.03093(17) 0.56519(16)
H12_2 H 0.3287 0.0382 0.5562
C6_2 C 0.3664(2) 0.05178(19) 0.58760(17)
C7_2 C 0.4000(2) 0.04033(16) 0.60056(15)
H13_2 H 0.4116 0.0530 0.6160
C9_2 C 0.3479(3) 0.0834(2) 0.5985(2)
C10_2 C 0.3272(3) 0.1038(2) 0.5781(2)
H14_2 H 0.3288 0.0984 0.5572
C11_2 C 0.3037(3) 0.1325(2) 0.5864(2)
H15_2 H 0.2885 0.1439 0.5724
C12_2 C 0.3063(3) 0.1420(2) 0.61920(19)
C13_2 C 0.3303(3) 0.1220(2) 0.6358(2)
H16_2 H 0.3356 0.1304 0.6554
C14_2 C 0.3485(3) 0.0912(2) 0.6284(2)
H17_2 H 0.3599 0.0774 0.6431
C15_2 C 0.2842(3) 0.1706(2) 0.6293(2)
C16_2 C 0.2531(3) 0.1784(2) 0.6173(2)
H18_2 H 0.2446 0.1647 0.6012
C17_2 C 0.2422(3) 0.22687(19) 0.65198(19)
C18_2 C 0.2775(2) 0.2182(2) 0.66562(19)
H19_2 H 0.2871 0.2308 0.6820
C19_2 C 0.2964(3) 0.1910(2) 0.6535(2)
H20_2 H 0.3192 0.1857 0.6621
C20_2 C 0.2205(2) 0.25491(18) 0.66326(18)
C35_2 C 0.1245(3) 0.0157(2) 0.6735(2)
C36_2 C 0.1154(3) 0.0139(2) 0.7041(2)
C37_2 C 0.0887(3) 0.0394(2) 0.7166(2)
H29_2 H 0.0806 0.0379 0.7369
C38_2 C 0.0759(2) 0.0660(2) 0.69732(19)
C39_2 C 0.0871(3) 0.0663(2) 0.6668(2)
H30_2 H 0.0776 0.0829 0.6535
C40_2 C 0.1124(3) 0.0423(2) 0.6557(2)
H31_2 H 0.1213 0.0444 0.6356
C41_2 C 0.0481(2) 0.0911(2) 0.7072(2)
C57_2 C 0.3769(3) 0.0184(2) 0.8755(2)
H39_2 H 0.3941 0.0300 0.8633
C58_2 C 0.3698(2) 0.03123(19) 0.90419(18)
H40_2 H 0.3843 0.0485 0.9128
C59_2 C 0.3417(3) 0.0179(2) 0.91893(18)
C62_2 C 0.3280(3) 0.0318(2) 0.95136(18)
C84_2 C 0.2305(3) 0.2063(2) 0.6263(2)
H54_2 H 0.2087 0.2112 0.6159
H58_2 H 0.5213 0.0495 0.6905
H59_2 H 0.0183 0.1641 0.6439
H60_2 H 0.0213 0.0943 0.8040
O34_2 O 0.76412(14) 0.00024(12) 0.50197(12)
H63 H 0.7595 0.0165 0.4898
H64_2 H 0.7651 0.0082 0.5200
O35_2 O 0.88507(15) 0.28117(12) 0.62610(11)
H65_2 H 0.8813 0.2607 0.6206
H66_2 H 0.8827 0.2939 0.6105
O36_2 O 0.75650(15) 0.32248(12) 0.73756(10)
H67_2 H 0.7605 0.3426 0.7438
H68_2 H 0.7583 0.3090 0.7527
O38_2 O 0.53911(12) 0.01518(10) 0.62880(9)
O41_2 O 0.76713(13) 0.27215(11) 0.68322(11)
O42_2 O 0.81117(15) 0.25943(10) 0.64930(10)
O47 O 0.96160(14) 0.08893(11) 0.73406(11)
O48 O 0.96217(15) 0.11294(12) 0.68940(12)
C86_2 C 0.5849(2) 0.01082(16) 0.59021(14)
C88_2 C 0.6347(2) 0.00106(16) 0.55568(14)
C89_2 C 0.6492(2) 0.03093(17) 0.56519(16)
H70_2 H 0.6713 0.0382 0.5562
C90_2 C 0.6336(2) 0.05178(19) 0.58760(17)
C91_2 C 0.6000(2) 0.04033(16) 0.60056(15)
H71_2 H 0.5884 0.0530 0.6160
C93_2 C 0.6521(3) 0.0834(2) 0.5985(2)
C94_2 C 0.6728(3) 0.1038(2) 0.5781(2)
H72_2 H 0.6712 0.0984 0.5572
C95_2 C 0.6963(3) 0.1325(2) 0.5864(2)
H73_2 H 0.7115 0.1439 0.5724
C96_2 C 0.6937(3) 0.1420(2) 0.61920(19)
C97_2 C 0.6697(3) 0.1220(2) 0.6358(2)
H74_2 H 0.6644 0.1304 0.6554
C98_2 C 0.6515(3) 0.0912(2) 0.6284(2)
H75_2 H 0.6401 0.0774 0.6431
C99_2 C 0.7158(3) 0.1706(2) 0.6293(2)
C100_2 C 0.7469(3) 0.1784(2) 0.6173(2)
H76_2 H 0.7554 0.1647 0.6012
C101_2 C 0.7578(3) 0.22687(19) 0.65198(19)
C102_2 C 0.7225(2) 0.2182(2) 0.66562(19)
H77_2 H 0.7129 0.2308 0.6820
C103_2 C 0.7036(3) 0.1910(2) 0.6535(2)
H78_2 H 0.6808 0.1857 0.6621
C104_2 C 0.7795(2) 0.25491(18) 0.66326(18)
C119_2 C 0.8755(3) 0.0157(2) 0.6735(2)
C120_2 C 0.8846(3) 0.0139(2) 0.7041(2)
C121_2 C 0.9113(3) 0.0394(2) 0.7166(2)
H87_2 H 0.9194 0.0379 0.7369
C122_2 C 0.9241(2) 0.0660(2) 0.69732(19)
C123_2 C 0.9129(3) 0.0663(2) 0.6668(2)
H88_2 H 0.9224 0.0829 0.6535
C124_2 C 0.8876(3) 0.0423(2) 0.6557(2)
H89_2 H 0.8787 0.0444 0.6356
C125_2 C 0.9519(2) 0.0911(2) 0.7072(2)
C141_2 C 0.6231(3) 0.0184(2) 0.8755(2)
H97_2 H 0.6059 0.0300 0.8633
C142_2 C 0.6302(2) 0.03123(19) 0.90419(18)
H98_2 H 0.6157 0.0485 0.9128
C143_2 C 0.6583(3) 0.0179(2) 0.91893(18)
C146_2 C 0.6720(3) 0.0318(2) 0.95136(18)
C168_2 C 0.7695(3) 0.2063(2) 0.6263(2)
H112_2 H 0.7913 0.2112 0.6159
O61_2 O 0.81606(13) 0.32836(9) 0.63488(8)
O62_2 O 0.18394(13) 0.32836(9) 0.63488(8)
O63_2 O 0.77782(12) 0.34305(10) 0.67305(10)
O64_2 O 0.22218(12) 0.34305(10) 0.67305(10)
O67_2 O 0.87289(12) 0.33591(10) 0.67617(10)
O68_2 O 0.12711(12) 0.33591(10) 0.67617(10)
O69_2 O 0.83332(13) 0.34480(10) 0.71557(9)
O70_2 O 0.16668(13) 0.34480(10) 0.71557(9)
Cu1_2 Cu 0.5000 0.99940(2) 0.65728(2)
Cu2_2 Cu 0.5000 0.94389(2) 0.62263(2)
O1_2 O 0.5000 0.89940(16) 0.59409(15)
H1_2 H 0.4793 0.8965 0.5868
O3_2 O 0.37612(14) 0.88066(11) 0.49468(12)
H3_2 H 0.3681 0.8610 0.4992
H4_2 H 0.3834 0.8803 0.4763
O9_2 O 0.46163(12) 0.96871(10) 0.59906(9)
O11_2 O 0.36067(12) 0.95113(10) 0.52483(9)
O12_2 O 0.31346(15) 0.98971(11) 0.52425(10)
O15_2 O 0.30970(13) 0.90116(10) 0.53805(9)
O16_2 O 0.26386(14) 0.93828(11) 0.53615(10)
O17_2 O 0.31606(13) 0.82836(9) 0.63488(8)
O18_2 O 0.27782(12) 0.84305(10) 0.67305(10)
O21_2 O 0.46227(12) 0.97402(10) 0.68072(9)
O22_2 O 0.46164(12) 0.92798(10) 0.65190(9)
O23_2 O 0.37289(12) 0.83591(10) 0.67617(10)
O24_2 O 0.33332(13) 0.84480(10) 0.71557(9)
O31_2 O 0.29754(15) 0.89035(11) 0.47407(10)
O32_2 O 0.25220(14) 0.92969(12) 0.47440(10)
C1_2 C 0.44932(18) 0.99641(16) 0.60890(14)
C3_2 C 0.39909(19) 0.98997(15) 0.56846(14)
H11_2 H 0.4101 0.9694 0.5624
C8_2 C 0.3447(2) 0.97827(18) 0.53237(15)
C21_2 C 0.2835(2) 0.91445(16) 0.54932(15)
C22_2 C 0.2685(2) 0.90597(16) 0.58024(14)
C23_2 C 0.2852(2) 0.88004(16) 0.59764(15)
H21_2 H 0.3047 0.8674 0.5893
C24_2 C 0.2727(2) 0.87293(17) 0.62764(15)
C25_2 C 0.2458(2) 0.89241(17) 0.64079(15)
H22_2 H 0.2383 0.8882 0.6609
C26_2 C 0.2291(2) 0.91953(18) 0.62325(17)
C27_2 C 0.2421(2) 0.92535(16) 0.59358(15)
H23_2 H 0.2321 0.9435 0.5824
C28_2 C 0.2914(2) 0.84500(16) 0.64707(16)
C29_2 C 0.2019(3) 0.9429(2) 0.6376(2)
C30_2 C 0.1999(3) 0.9515(3) 0.6657(2)
H24_2 H 0.2175 0.9422 0.6790
C31_2 C 0.1728(3) 0.9743(2) 0.6792(2)
H25_2 H 0.1722 0.9772 0.7004
C32_2 C 0.1493(3) 0.9910(2) 0.6618(2)
C33_2 C 0.1506(3) 0.9807(3) 0.6344(3)
H26_2 H 0.1326 0.9897 0.6214
C34_2 C 0.1761(3) 0.9571(2) 0.6203(2)
H27_2 H 0.1745 0.9520 0.5994
H28_2 H 0.1257 0.9972 0.7168
C42_2 C 0.45268(19) 0.94494(17) 0.67356(15)
C43_2 C 0.42602(19) 0.92910(15) 0.69684(14)
C44_2 C 0.4172(2) 0.94375(16) 0.72315(15)
H32_2 H 0.4285 0.9645 0.7280
C45_2 C 0.3916(2) 0.92995(17) 0.74466(16)
C46_2 C 0.3746(2) 0.90073(16) 0.73538(15)
H33_2 H 0.3564 0.8914 0.7480
C47_2 C 0.3830(2) 0.88429(16) 0.70844(15)
C48_2 C 0.4077(2) 0.89748(16) 0.68764(16)
H34_2 H 0.4124 0.8869 0.6688
C49_2 C 0.3608(2) 0.85061(16) 0.69970(17)
C50_2 C 0.3841(3) 0.9462(2) 0.7743(2)
C51_2 C 0.4048(4) 0.9645(3) 0.7888(3)
H35_2 H 0.4276 0.9694 0.7800
C52_2 C 0.3974(4) 0.9787(3) 0.8173(3)
H36_2 H 0.4156 0.9930 0.8253
C53_2 C 0.3689(4) 0.9747(3) 0.8337(2)
C54_2 C 0.3366(4) 0.9615(3) 0.8179(3)
H37_2 H 0.3122 0.9628 0.8246
C55_2 C 0.3500(4) 0.9454(3) 0.7883(3)
H38_2 H 0.3322 0.9327 0.7778
C56_2 C 0.3595(3) 0.9882(2) 0.8627(2)
C60_2 C 0.3220(3) 0.9887(2) 0.9099(2)
H41_2 H 0.3043 0.9783 0.9223
C61_2 C 0.3316(3) 0.9763(2) 0.8799(2)
H42_2 H 0.3174 0.9586 0.8717
C63_2 C 0.1487(2) 0.73780(17) 0.21780(17)
C64_2 C 0.1318(2) 0.76639(17) 0.24012(16)
C65_2 C 0.0999(2) 0.78196(17) 0.23238(15)
H43_2 H 0.0887 0.7764 0.2138
C66_2 C 0.0840(2) 0.80518(16) 0.25079(15)
C67_2 C 0.1016(2) 0.81162(17) 0.27865(16)
H44_2 H 0.0911 0.8278 0.2917
C68_2 C 0.1317(2) 0.79649(18) 0.28766(17)
C69_2 C 0.1481(2) 0.77219(16) 0.26713(16)
H45_2 H 0.1697 0.7607 0.2725
C70_2 C 0.0514(2) 0.82576(16) 0.24195(16)
C71_2 C 0.1513(3) 0.80411(19) 0.31797(19)
C72_2 C 0.1310(3) 0.8162(2) 0.3422(2)
H46_2 H 0.1053 0.8164 0.3416
C73_2 C 0.1510(3) 0.8287(2) 0.3688(2)
H47_2 H 0.1378 0.8355 0.3861
C74_2 C 0.1884(3) 0.8308(2) 0.3691(2)
C75_2 C 0.2079(3) 0.8167(2) 0.3470(2)
H48_2 H 0.2333 0.8136 0.3492
C76_2 C 0.1894(3) 0.8059(2) 0.3193(2)
H49_2 H 0.2033 0.8001 0.3020
C77_2 C 0.2078(3) 0.8464(2) 0.3965(2)
C78_2 C 0.1932(2) 0.8742(2) 0.4123(2)
H50_2 H 0.1698 0.8820 0.4067
C79_2 C 0.2101(3) 0.8898(2) 0.4341(2)
H51_2 H 0.1982 0.9079 0.4440
C80_2 C 0.2459(3) 0.8806(2) 0.44370(18)
C81_2 C 0.2603(2) 0.85126(19) 0.43060(17)
H52_2 H 0.2826 0.8420 0.4374
C82_2 C 0.2407(3) 0.8361(2) 0.40715(19)
H53_2 H 0.2512 0.8169 0.3979
C83_2 C 0.2668(3) 0.8996(2) 0.46796(17)
H57_2 H 0.5207 0.8965 0.5868
O33_2 O 0.62388(14) 0.88066(11) 0.49468(12)
H61_2 H 0.6319 0.8610 0.4992
H62_2 H 0.6166 0.8803 0.4763
O37_2 O 0.53837(12) 0.96871(10) 0.59906(9)
O39_2 O 0.63933(12) 0.95113(10) 0.52483(9)
O40_2 O 0.68654(15) 0.98971(11) 0.52425(10)
O43_2 O 0.69030(13) 0.90116(10) 0.53805(9)
O44_2 O 0.73614(14) 0.93828(11) 0.53615(10)
O45_2 O 0.68394(13) 0.82836(9) 0.63488(8)
O46_2 O 0.72218(12) 0.84305(10) 0.67305(10)
O49_2 O 0.53773(12) 0.97402(10) 0.68072(9)
O50_2 O 0.53836(12) 0.92798(10) 0.65190(9)
O51_2 O 0.62711(12) 0.83591(10) 0.67617(10)
O52_2 O 0.66668(13) 0.84480(10) 0.71557(9)
O59_2 O 0.70246(15) 0.89035(11) 0.47407(10)
O60_2 O 0.74780(14) 0.92969(12) 0.47440(10)
C85_2 C 0.55068(18) 0.99641(16) 0.60890(14)
C87_2 C 0.60091(19) 0.98997(15) 0.56846(14)
H69_2 H 0.5899 0.9694 0.5624
C92_2 C 0.6553(2) 0.97827(18) 0.53237(15)
C105_2 C 0.7165(2) 0.91445(16) 0.54932(15)
C106_2 C 0.7315(2) 0.90597(16) 0.58024(14)
C107_2 C 0.7148(2) 0.88004(16) 0.59764(15)
H79_2 H 0.6953 0.8674 0.5893
C108_2 C 0.7273(2) 0.87293(17) 0.62764(15)
C109_2 C 0.7542(2) 0.89241(17) 0.64079(15)
H80_2 H 0.7617 0.8882 0.6609
C110_2 C 0.7709(2) 0.91953(18) 0.62325(17)
C111_2 C 0.7579(2) 0.92535(16) 0.59358(15)
H81_2 H 0.7679 0.9435 0.5824
C112_2 C 0.7086(2) 0.84500(16) 0.64707(16)
C113_2 C 0.7981(3) 0.9429(2) 0.6376(2)
C114_2 C 0.8001(3) 0.9515(3) 0.6657(2)
H82_2 H 0.7825 0.9422 0.6790
C115_2 C 0.8272(3) 0.9743(2) 0.6792(2)
H83_2 H 0.8278 0.9772 0.7004
C116_2 C 0.8507(3) 0.9910(2) 0.6618(2)
C117_2 C 0.8494(3) 0.9807(3) 0.6344(3)
H84_2 H 0.8674 0.9897 0.6214
C118_2 C 0.8239(3) 0.9571(2) 0.6203(2)
H85_2 H 0.8255 0.9520 0.5994
H86_2 H 0.8743 0.9972 0.7168
C126_2 C 0.54732(19) 0.94494(17) 0.67356(15)
C127_2 C 0.57398(19) 0.92910(15) 0.69684(14)
C128_2 C 0.5828(2) 0.94375(16) 0.72315(15)
H90_2 H 0.5715 0.9645 0.7280
C129_2 C 0.6084(2) 0.92995(17) 0.74466(16)
C130_2 C 0.6254(2) 0.90073(16) 0.73538(15)
H91_2 H 0.6436 0.8914 0.7480
C131_2 C 0.6170(2) 0.88429(16) 0.70844(15)
C132_2 C 0.5923(2) 0.89748(16) 0.68764(16)
H92_2 H 0.5876 0.8869 0.6688
C133_2 C 0.6392(2) 0.85061(16) 0.69970(17)
C134_2 C 0.6159(3) 0.9462(2) 0.7743(2)
C135_2 C 0.5952(4) 0.9645(3) 0.7888(3)
H93_2 H 0.5724 0.9694 0.7800
C136_2 C 0.6026(4) 0.9787(3) 0.8173(3)
H94_2 H 0.5844 0.9930 0.8253
C137_2 C 0.6311(4) 0.9747(3) 0.8337(2)
C138_2 C 0.6634(4) 0.9615(3) 0.8179(3)
H95_2 H 0.6878 0.9628 0.8246
C139_2 C 0.6500(4) 0.9454(3) 0.7883(3)
H96_2 H 0.6678 0.9327 0.7778
C140_2 C 0.6405(3) 0.9882(2) 0.8627(2)
C144_2 C 0.6780(3) 0.9887(2) 0.9099(2)
H99_2 H 0.6957 0.9783 0.9223
C145_2 C 0.6684(3) 0.9763(2) 0.8799(2)
H100_2 H 0.6826 0.9586 0.8717
C147_2 C 0.8513(2) 0.73780(17) 0.21780(17)
C148_2 C 0.8682(2) 0.76639(17) 0.24012(16)
C149_2 C 0.9001(2) 0.78196(17) 0.23238(15)
H101_2 H 0.9113 0.7764 0.2138
C150_2 C 0.9160(2) 0.80518(16) 0.25079(15)
C151_2 C 0.8984(2) 0.81162(17) 0.27865(16)
H102_2 H 0.9089 0.8278 0.2917
C152_2 C 0.8683(2) 0.79649(18) 0.28766(17)
C153_2 C 0.8519(2) 0.77219(16) 0.26713(16)
H103_2 H 0.8303 0.7607 0.2725
C154_2 C 0.9486(2) 0.82576(16) 0.24195(16)
C155_2 C 0.8487(3) 0.80411(19) 0.31797(19)
C156_2 C 0.8690(3) 0.8162(2) 0.3422(2)
H104_2 H 0.8947 0.8164 0.3416
C157_2 C 0.8490(3) 0.8287(2) 0.3688(2)
H105_2 H 0.8622 0.8355 0.3861
C158_2 C 0.8116(3) 0.8308(2) 0.3691(2)
C159_2 C 0.7921(3) 0.8167(2) 0.3470(2)
H106_2 H 0.7667 0.8136 0.3492
C160_2 C 0.8106(3) 0.8059(2) 0.3193(2)
H107_2 H 0.7967 0.8001 0.3020
C161_2 C 0.7922(3) 0.8464(2) 0.3965(2)
C162_2 C 0.8068(2) 0.8742(2) 0.4123(2)
H108_2 H 0.8302 0.8820 0.4067
C163_2 C 0.7899(3) 0.8898(2) 0.4341(2)
H109_2 H 0.8018 0.9079 0.4440
C164_2 C 0.7541(3) 0.8806(2) 0.44370(18)
C165_2 C 0.7397(2) 0.85126(19) 0.43060(17)
H110_2 H 0.7174 0.8420 0.4374
C166_2 C 0.7593(3) 0.8361(2) 0.40715(19)
H111_2 H 0.7488 0.8169 0.3979
C167_2 C 0.7332(3) 0.8996(2) 0.46796(17)
Cu19_2 Cu 0.65450(2) 0.79570(2) 0.66021(2)
Cu20_2 Cu 0.34550(2) 0.79570(2) 0.66021(2)
Cu23_2 Cu 0.70339(2) 0.80930(2) 0.70340(2)
Cu24_2 Cu 0.29661(2) 0.80930(2) 0.70340(2)
O7_4 O 1.0000 0.17069(17) 0.65347(15)
O8_4 O 1.0000 0.09733(18) 0.79825(15)
H55_2 H 0.9817 0.1641 0.6439
H56_2 H 0.9787 0.0943 0.8040
Cu1_3 Cu -0.0000 0.50060(2) 0.15728(2)
Cu2_3 Cu -0.0000 0.55611(2) 0.12263(2)
Cu7_3 Cu 0.5000 0.35152(3) 0.19762(2)
Cu8_3 Cu 0.5000 0.38110(3) 0.25206(2)
O1_3 O -0.0000 0.60060(16) 0.09409(15)
H1_3 H 0.0207 0.6035 0.0868
O2_3 O 0.0000 0.45516(16) 0.18547(14)
H2_3 H 0.0213 0.4505 0.1905
O4_3 O 0.26412(14) 0.49976(12) 0.00197(12)
H6_3 H 0.2651 0.4918 0.0200
O5_3 O 0.38507(15) 0.21883(12) 0.12610(11)
H7_3 H 0.3813 0.2393 0.1206
H8_3 H 0.3827 0.2061 0.1105
O6_3 O 0.25650(15) 0.17752(12) 0.23756(10)
H9_3 H 0.2605 0.1574 0.2438
H10_3 H 0.2583 0.1910 0.2527
O7_5 O 0.5000 0.32931(17) 0.15347(15)
O8_5 O 0.5000 0.40267(18) 0.29825(15)
O9_3 O 0.03837(12) 0.53129(10) 0.09906(9)
O10_3 O 0.03911(12) 0.48482(10) 0.12880(9)
O11_3 O 0.13933(12) 0.54887(10) 0.02483(9)
O12_3 O 0.18654(15) 0.51029(11) 0.02425(10)
O13_3 O 0.26713(13) 0.22785(11) 0.18322(11)
O14_3 O 0.31117(15) 0.24057(10) 0.14930(10)
O15_3 O 0.19030(13) 0.59884(10) 0.03805(9)
O16_3 O 0.23614(14) 0.56172(11) 0.03615(10)
O19_3 O 0.46160(14) 0.41107(11) 0.23406(11)
O20_3 O 0.46217(15) 0.38706(12) 0.18940(12)
O21_3 O 0.03773(12) 0.52598(10) 0.18072(9)
O22_3 O 0.03836(12) 0.57202(10) 0.15190(9)
O25_2 O 0.19859(16) 0.48209(13) 0.46330(11)
O26_2 O 0.15329(14) 0.44355(12) 0.46181(10)
C1_3 C 0.05068(18) 0.50359(16) 0.10890(14)
C2_3 C 0.0849(2) 0.48918(16) 0.09021(14)
C3_3 C 0.10091(19) 0.51003(15) 0.06846(14)
H11_3 H 0.0899 0.5306 0.0624
C4_3 C 0.1347(2) 0.49894(16) 0.05568(14)
C5_3 C 0.1492(2) 0.46907(17) 0.06519(16)
H12_3 H 0.1713 0.4618 0.0562
C6_3 C 0.1336(2) 0.44822(19) 0.08760(17)
C7_3 C 0.1000(2) 0.45967(16) 0.10056(15)
H13_3 H 0.0884 0.4470 0.1160
C8_3 C 0.1553(2) 0.52173(18) 0.03237(15)
C9_3 C 0.1521(3) 0.4166(2) 0.0985(2)
C10_3 C 0.1728(3) 0.3962(2) 0.0781(2)
H14_3 H 0.1712 0.4016 0.0572
C11_3 C 0.1963(3) 0.3675(2) 0.0864(2)
H15_3 H 0.2115 0.3561 0.0724
C12_3 C 0.1937(3) 0.3580(2) 0.11920(19)
C13_3 C 0.1697(3) 0.3780(2) 0.1358(2)
H16_3 H 0.1644 0.3696 0.1554
C14_3 C 0.1515(3) 0.4088(2) 0.1284(2)
H17_3 H 0.1401 0.4226 0.1431
C15_3 C 0.2158(3) 0.3294(2) 0.1293(2)
C16_3 C 0.2469(3) 0.3216(2) 0.1173(2)
H18_3 H 0.2554 0.3353 0.1012
C17_3 C 0.2578(3) 0.27313(19) 0.15198(19)
C18_3 C 0.2225(2) 0.2818(2) 0.16562(19)
H19_3 H 0.2129 0.2692 0.1820
C19_3 C 0.2036(3) 0.3090(2) 0.1535(2)
H20_3 H 0.1808 0.3143 0.1621
C20_3 C 0.2795(2) 0.24509(18) 0.16326(18)
C21_3 C 0.2165(2) 0.58555(16) 0.04932(15)
C22_3 C 0.2315(2) 0.59403(16) 0.08024(14)
C23_3 C 0.2148(2) 0.61996(16) 0.09764(15)
H21_3 H 0.1953 0.6326 0.0893
C24_3 C 0.2273(2) 0.62707(17) 0.12764(15)
C25_3 C 0.2542(2) 0.60759(17) 0.14079(15)
H22_3 H 0.2617 0.6118 0.1609
C26_3 C 0.2709(2) 0.58047(18) 0.12325(17)
C27_3 C 0.2579(2) 0.57465(16) 0.09358(15)
H23_3 H 0.2679 0.5565 0.0824
C28_3 C 0.2086(2) 0.65500(16) 0.14707(16)
C29_3 C 0.2981(3) 0.5571(2) 0.1376(2)
C30_3 C 0.3001(3) 0.5485(3) 0.1657(2)
H24_3 H 0.2825 0.5578 0.1790
C31_3 C 0.3272(3) 0.5257(2) 0.1792(2)
H25_3 H 0.3278 0.5228 0.2004
C32_3 C 0.3507(3) 0.5090(2) 0.1618(2)
C33_3 C 0.3494(3) 0.5193(3) 0.1344(3)
H26_3 H 0.3674 0.5103 0.1214
C34_3 C 0.3239(3) 0.5429(2) 0.1203(2)
H27_3 H 0.3255 0.5480 0.0994
C35_3 C 0.3755(3) 0.4843(2) 0.1735(2)
C36_3 C 0.3846(3) 0.4861(2) 0.2041(2)
H28_3 H 0.3743 0.5028 0.2168
C37_3 C 0.4113(3) 0.4606(2) 0.2166(2)
H29_3 H 0.4194 0.4621 0.2369
C38_3 C 0.4241(2) 0.4340(2) 0.19732(19)
C39_3 C 0.4129(3) 0.4337(2) 0.1668(2)
H30_3 H 0.4224 0.4171 0.1535
C40_3 C 0.3876(3) 0.4577(2) 0.1557(2)
H31_3 H 0.3787 0.4556 0.1356
C41_3 C 0.4519(2) 0.4089(2) 0.2072(2)
C42_3 C 0.04732(19) 0.55506(17) 0.17356(15)
C43_3 C 0.07398(19) 0.57090(15) 0.19684(14)
C44_3 C 0.0828(2) 0.55625(16) 0.22315(15)
H32_3 H 0.0715 0.5355 0.2280
C45_3 C 0.1084(2) 0.57005(17) 0.24466(16)
C46_3 C 0.1254(2) 0.59927(16) 0.23538(15)
H33_3 H 0.1436 0.6086 0.2480
C47_3 C 0.1170(2) 0.61571(16) 0.20844(15)
C48_3 C 0.0923(2) 0.60252(16) 0.18764(16)
H34_3 H 0.0876 0.6131 0.1688
C49_3 C 0.1392(2) 0.64939(16) 0.19970(17)
C50_3 C 0.1159(3) 0.5538(2) 0.2743(2)
C51_3 C 0.0952(4) 0.5355(3) 0.2888(3)
H35_3 H 0.0724 0.5306 0.2800
C52_3 C 0.1026(4) 0.5213(3) 0.3173(3)
H36_3 H 0.0844 0.5070 0.3253
C53_3 C 0.1311(4) 0.5253(3) 0.3337(2)
C54_3 C 0.1634(4) 0.5385(3) 0.3179(3)
H37_3 H 0.1878 0.5372 0.3246
C55_3 C 0.1500(4) 0.5546(3) 0.2883(3)
H38_3 H 0.1678 0.5673 0.2778
C56_3 C 0.1405(3) 0.5118(2) 0.3627(2)
C57_3 C 0.1231(3) 0.4816(2) 0.3755(2)
H39_3 H 0.1059 0.4700 0.3633
C58_3 C 0.1302(2) 0.46877(19) 0.40419(18)
H40_3 H 0.1157 0.4515 0.4128
C59_3 C 0.1583(3) 0.4821(2) 0.41893(18)
C60_3 C 0.1780(3) 0.5113(2) 0.4099(2)
H41_3 H 0.1957 0.5217 0.4223
C61_3 C 0.1684(3) 0.5237(2) 0.3799(2)
H42_3 H 0.1826 0.5414 0.3717
C62_3 C 0.1720(3) 0.4682(2) 0.45136(18)
C84_3 C 0.2695(3) 0.2937(2) 0.1263(2)
H54_3 H 0.2913 0.2888 0.1159
H55_3 H 0.5183 0.3359 0.1439
H56_3 H 0.5213 0.4057 0.3040
H59_3 H 0.4817 0.3359 0.1439
H60_3 H 0.4787 0.4057 0.3040
Cu14_2 Cu 0.16731(2) 0.41770(2) 0.49906(2)
Cu16_2 Cu 0.22109(2) 0.46321(2) 0.49955(2)
O65_2 O 0.53840(14) 0.41107(11) 0.23406(11)
O66_2 O 0.53783(15) 0.38706(12) 0.18940(12)
O76_2 O 0.32268(14) 0.22449(10) 0.22849(10)
O78_2 O 0.36704(13) 0.23281(10) 0.19345(10)
O79_2 O 0.53925(12) 0.32220(10) 0.21462(9)
O80_2 O 0.46075(12) 0.32220(10) 0.21462(9)
O81_2 O 0.53854(13) 0.34713(11) 0.26120(11)
O82_2 O 0.46146(13) 0.34713(11) 0.26120(11)
Cu3_2 Cu 0.16731(2) 0.58230(2) 0.99906(2)
Cu4_2 Cu 0.22109(2) 0.53679(2) 0.99955(2)
O3_3 O 0.12388(14) 0.61934(11) 0.99468(12)
H3_3 H 0.1319 0.6390 0.9992
H4_3 H 0.1166 0.6197 0.9763
H5_2 H 0.2595 0.4835 0.9898
O27_2 O 0.32268(14) 0.77551(10) 0.72849(10)
O28_2 O 0.36704(13) 0.76719(10) 0.69345(10)
O29_2 O 0.46075(12) 0.67780(10) 0.71462(9)
O30_2 O 0.46146(13) 0.65287(11) 0.76120(11)
O31_3 O 0.20246(15) 0.60965(11) 0.97407(10)
O32_3 O 0.24780(14) 0.57031(12) 0.97440(10)
C63_3 C 0.3513(2) 0.76220(17) 0.71780(17)
C64_3 C 0.3682(2) 0.73361(17) 0.74012(16)
C65_3 C 0.4001(2) 0.71804(17) 0.73238(15)
H43_3 H 0.4113 0.7236 0.7138
C66_3 C 0.4160(2) 0.69482(16) 0.75079(15)
C67_3 C 0.3984(2) 0.68838(17) 0.77865(16)
H44_3 H 0.4089 0.6722 0.7917
C68_3 C 0.3683(2) 0.70351(18) 0.78766(17)
C69_3 C 0.3519(2) 0.72781(16) 0.76713(16)
H45_3 H 0.3303 0.7393 0.7725
C70_3 C 0.4486(2) 0.67424(16) 0.74195(16)
C71_3 C 0.3487(3) 0.69589(19) 0.81797(19)
C72_3 C 0.3690(3) 0.6838(2) 0.8422(2)
H46_3 H 0.3947 0.6836 0.8416
C73_3 C 0.3490(3) 0.6713(2) 0.8688(2)
H47_3 H 0.3622 0.6645 0.8861
C74_3 C 0.3116(3) 0.6692(2) 0.8691(2)
C75_3 C 0.2921(3) 0.6833(2) 0.8470(2)
H48_3 H 0.2667 0.6864 0.8492
C76_3 C 0.3106(3) 0.6941(2) 0.8193(2)
H49_3 H 0.2967 0.6999 0.8020
C77_3 C 0.2922(3) 0.6536(2) 0.8965(2)
C78_3 C 0.3068(2) 0.6258(2) 0.9123(2)
H50_3 H 0.3302 0.6180 0.9067
C79_3 C 0.2899(3) 0.6102(2) 0.9341(2)
H51_3 H 0.3018 0.5921 0.9440
C80_3 C 0.2541(3) 0.6194(2) 0.94370(18)
C81_3 C 0.2397(2) 0.64874(19) 0.93060(17)
H52_3 H 0.2174 0.6580 0.9374
C82_3 C 0.2593(3) 0.6639(2) 0.90715(19)
H53_3 H 0.2488 0.6831 0.8979
C83_3 C 0.2332(3) 0.6004(2) 0.96796(17)
Cu27_3 Cu 0.5000 0.64848(3) 0.69762(2)
Cu30_3 Cu 0.5000 0.61890(3) 0.75206(2)
O72_2 O 0.19859(16) 0.51791(13) 0.96330(11)
O74_2 O 0.15329(14) 0.55645(12) 0.96181(10)
Cu1_4 Cu 1.0000 0.50060(2) 0.15728(2)
Cu2_4 Cu 1.0000 0.55611(2) 0.12263(2)
O1_4 O 1.0000 0.60060(16) 0.09409(15)
O2_4 O 1.0000 0.45516(16) 0.18547(14)
H57_3 H 0.9793 0.6035 0.0868
H58_3 H 0.9787 0.4505 0.1905
O34_3 O 0.73588(14) 0.49976(12) 0.00197(12)
H64_3 H 0.7349 0.4918 0.0200
O35_3 O 0.61493(15) 0.21883(12) 0.12610(11)
H65_3 H 0.6187 0.2393 0.1206
H66_3 H 0.6173 0.2061 0.1105
O36_3 O 0.74350(15) 0.17752(12) 0.23756(10)
H67_3 H 0.7395 0.1574 0.2438
H68_3 H 0.7417 0.1910 0.2527
O37_3 O 0.96163(12) 0.53129(10) 0.09906(9)
O38_3 O 0.96089(12) 0.48482(10) 0.12880(9)
O39_3 O 0.86067(12) 0.54887(10) 0.02483(9)
O40_3 O 0.81346(15) 0.51029(11) 0.02425(10)
O41_3 O 0.73287(13) 0.22785(11) 0.18322(11)
O42_3 O 0.68883(15) 0.24057(10) 0.14930(10)
O43_3 O 0.80970(13) 0.59884(10) 0.03805(9)
O44_3 O 0.76386(14) 0.56172(11) 0.03615(10)
O49_3 O 0.96227(12) 0.52598(10) 0.18072(9)
O50_3 O 0.96164(12) 0.57202(10) 0.15190(9)
O53_2 O 0.80141(16) 0.48209(13) 0.46330(11)
O54_2 O 0.84671(14) 0.44355(12) 0.46181(10)
C85_3 C 0.94932(18) 0.50359(16) 0.10890(14)
C86_3 C 0.9151(2) 0.48918(16) 0.09021(14)
C87_3 C 0.89909(19) 0.51003(15) 0.06846(14)
H69_3 H 0.9101 0.5306 0.0624
C88_3 C 0.8653(2) 0.49894(16) 0.05568(14)
C89_3 C 0.8508(2) 0.46907(17) 0.06519(16)
H70_3 H 0.8287 0.4618 0.0562
C90_3 C 0.8664(2) 0.44822(19) 0.08760(17)
C91_3 C 0.9000(2) 0.45967(16) 0.10056(15)
H71_3 H 0.9116 0.4470 0.1160
C92_3 C 0.8447(2) 0.52173(18) 0.03237(15)
C93_3 C 0.8479(3) 0.4166(2) 0.0985(2)
C94_3 C 0.8272(3) 0.3962(2) 0.0781(2)
H72_3 H 0.8288 0.4016 0.0572
C95_3 C 0.8037(3) 0.3675(2) 0.0864(2)
H73_3 H 0.7885 0.3561 0.0724
C96_3 C 0.8063(3) 0.3580(2) 0.11920(19)
C97_3 C 0.8303(3) 0.3780(2) 0.1358(2)
H74_3 H 0.8356 0.3696 0.1554
C98_3 C 0.8485(3) 0.4088(2) 0.1284(2)
H75_3 H 0.8599 0.4226 0.1431
C99_3 C 0.7842(3) 0.3294(2) 0.1293(2)
C100_3 C 0.7531(3) 0.3216(2) 0.1173(2)
H76_3 H 0.7446 0.3353 0.1012
C101_3 C 0.7422(3) 0.27313(19) 0.15198(19)
C102_3 C 0.7775(2) 0.2818(2) 0.16562(19)
H77_3 H 0.7871 0.2692 0.1820
C103_3 C 0.7964(3) 0.3090(2) 0.1535(2)
H78_3 H 0.8192 0.3143 0.1621
C104_3 C 0.7205(2) 0.24509(18) 0.16326(18)
C105_3 C 0.7835(2) 0.58555(16) 0.04932(15)
C106_3 C 0.7685(2) 0.59403(16) 0.08024(14)
C107_3 C 0.7852(2) 0.61996(16) 0.09764(15)
H79_3 H 0.8047 0.6326 0.0893
C108_3 C 0.7727(2) 0.62707(17) 0.12764(15)
C109_3 C 0.7458(2) 0.60759(17) 0.14079(15)
H80_3 H 0.7383 0.6118 0.1609
C110_3 C 0.7291(2) 0.58047(18) 0.12325(17)
C111_3 C 0.7421(2) 0.57465(16) 0.09358(15)
H81_3 H 0.7321 0.5565 0.0824
C112_3 C 0.7914(2) 0.65500(16) 0.14707(16)
C113_3 C 0.7019(3) 0.5571(2) 0.1376(2)
C114_3 C 0.6999(3) 0.5485(3) 0.1657(2)
H82_3 H 0.7175 0.5578 0.1790
C115_3 C 0.6728(3) 0.5257(2) 0.1792(2)
H83_3 H 0.6722 0.5228 0.2004
C116_3 C 0.6493(3) 0.5090(2) 0.1618(2)
C117_3 C 0.6506(3) 0.5193(3) 0.1344(3)
H84_3 H 0.6326 0.5103 0.1214
C118_3 C 0.6761(3) 0.5429(2) 0.1203(2)
H85_3 H 0.6745 0.5480 0.0994
C119_3 C 0.6245(3) 0.4843(2) 0.1735(2)
C120_3 C 0.6154(3) 0.4861(2) 0.2041(2)
H86_3 H 0.6257 0.5028 0.2168
C121_3 C 0.5887(3) 0.4606(2) 0.2166(2)
H87_3 H 0.5806 0.4621 0.2369
C122_3 C 0.5759(2) 0.4340(2) 0.19732(19)
C123_3 C 0.5871(3) 0.4337(2) 0.1668(2)
H88_3 H 0.5776 0.4171 0.1535
C124_3 C 0.6124(3) 0.4577(2) 0.1557(2)
H89_3 H 0.6213 0.4556 0.1356
C125_3 C 0.5481(2) 0.4089(2) 0.2072(2)
C126_3 C 0.95268(19) 0.55506(17) 0.17356(15)
C127_3 C 0.92602(19) 0.57090(15) 0.19684(14)
C128_3 C 0.9172(2) 0.55625(16) 0.22315(15)
H90_3 H 0.9285 0.5355 0.2280
C129_3 C 0.8916(2) 0.57005(17) 0.24466(16)
C130_3 C 0.8746(2) 0.59927(16) 0.23538(15)
H91_3 H 0.8564 0.6086 0.2480
C131_3 C 0.8830(2) 0.61571(16) 0.20844(15)
C132_3 C 0.9077(2) 0.60252(16) 0.18764(16)
H92_3 H 0.9124 0.6131 0.1688
C133_3 C 0.8608(2) 0.64939(16) 0.19970(17)
C134_3 C 0.8841(3) 0.5538(2) 0.2743(2)
C135_3 C 0.9048(4) 0.5355(3) 0.2888(3)
H93_3 H 0.9276 0.5306 0.2800
C136_3 C 0.8974(4) 0.5213(3) 0.3173(3)
H94_3 H 0.9156 0.5070 0.3253
C137_3 C 0.8689(4) 0.5253(3) 0.3337(2)
C138_3 C 0.8366(4) 0.5385(3) 0.3179(3)
H95_3 H 0.8122 0.5372 0.3246
C139_3 C 0.8500(4) 0.5546(3) 0.2883(3)
H96_3 H 0.8322 0.5673 0.2778
C140_3 C 0.8595(3) 0.5118(2) 0.3627(2)
C141_3 C 0.8769(3) 0.4816(2) 0.3755(2)
H97_3 H 0.8941 0.4700 0.3633
C142_3 C 0.8698(2) 0.46877(19) 0.40419(18)
H98_3 H 0.8843 0.4515 0.4128
C143_3 C 0.8417(3) 0.4821(2) 0.41893(18)
C144_3 C 0.8220(3) 0.5113(2) 0.4099(2)
H99_3 H 0.8043 0.5217 0.4223
C145_3 C 0.8316(3) 0.5237(2) 0.3799(2)
H100_3 H 0.8174 0.5414 0.3717
C146_3 C 0.8280(3) 0.4682(2) 0.45136(18)
C168_3 C 0.7305(3) 0.2937(2) 0.1263(2)
H112_3 H 0.7087 0.2888 0.1159
Cu13_2 Cu 0.83269(2) 0.41770(2) 0.49906(2)
Cu15_2 Cu 0.77891(2) 0.46321(2) 0.49955(2)
O75_2 O 0.67732(14) 0.22449(10) 0.22849(10)
O77_2 O 0.63296(13) 0.23281(10) 0.19345(10)
Cu9_2 Cu 0.83269(2) 0.58230(2) 0.99906(2)
Cu10_2 Cu 0.77891(2) 0.53679(2) 0.99955(2)
O33_3 O 0.87612(14) 0.61934(11) 0.99468(12)
H61_3 H 0.8681 0.6390 0.9992
H62_3 H 0.8834 0.6197 0.9763
H63_2 H 0.7405 0.4835 0.9898
O55_2 O 0.67732(14) 0.77551(10) 0.72849(10)
O56_2 O 0.63296(13) 0.76719(10) 0.69345(10)
O57_2 O 0.53925(12) 0.67780(10) 0.71462(9)
O58_2 O 0.53854(13) 0.65287(11) 0.76120(11)
O59_3 O 0.79754(15) 0.60965(11) 0.97407(10)
O60_3 O 0.75220(14) 0.57031(12) 0.97440(10)
C147_3 C 0.6487(2) 0.76220(17) 0.71780(17)
C148_3 C 0.6318(2) 0.73361(17) 0.74012(16)
C149_3 C 0.5999(2) 0.71804(17) 0.73238(15)
H101_3 H 0.5887 0.7236 0.7138
C150_3 C 0.5840(2) 0.69482(16) 0.75079(15)
C151_3 C 0.6016(2) 0.68838(17) 0.77865(16)
H102_3 H 0.5911 0.6722 0.7917
C152_3 C 0.6317(2) 0.70351(18) 0.78766(17)
C153_3 C 0.6481(2) 0.72781(16) 0.76713(16)
H103_3 H 0.6697 0.7393 0.7725
C154_3 C 0.5514(2) 0.67424(16) 0.74195(16)
C155_3 C 0.6513(3) 0.69589(19) 0.81797(19)
C156_3 C 0.6310(3) 0.6838(2) 0.8422(2)
H104_3 H 0.6053 0.6836 0.8416
C157_3 C 0.6510(3) 0.6713(2) 0.8688(2)
H105_3 H 0.6378 0.6645 0.8861
C158_3 C 0.6884(3) 0.6692(2) 0.8691(2)
C159_3 C 0.7079(3) 0.6833(2) 0.8470(2)
H106_3 H 0.7333 0.6864 0.8492
C160_3 C 0.6894(3) 0.6941(2) 0.8193(2)
H107_3 H 0.7033 0.6999 0.8020
C161_3 C 0.7078(3) 0.6536(2) 0.8965(2)
C162_3 C 0.6932(2) 0.6258(2) 0.9123(2)
H108_3 H 0.6698 0.6180 0.9067
C163_3 C 0.7101(3) 0.6102(2) 0.9341(2)
H109_3 H 0.6982 0.5921 0.9440
C164_3 C 0.7459(3) 0.6194(2) 0.94370(18)
C165_3 C 0.7603(2) 0.64874(19) 0.93060(17)
H110_3 H 0.7826 0.6580 0.9374
C166_3 C 0.7407(3) 0.6639(2) 0.90715(19)
H111_3 H 0.7512 0.6831 0.8979
C167_3 C 0.7668(3) 0.6004(2) 0.96796(17)
O71_2 O 0.80141(16) 0.51791(13) 0.96330(11)
O73_2 O 0.84671(14) 0.55645(12) 0.96181(10)
Cu1_5 Cu 0.0000 0.49940(2) 0.65728(2)
Cu2_5 Cu 0.0000 0.44389(2) 0.62263(2)
O1_5 O 0.0000 0.39940(16) 0.59409(15)
O2_5 O -0.0000 0.54484(16) 0.68547(14)
H57_4 H 0.0207 0.3965 0.5868
H58_4 H 0.0213 0.5495 0.6905
O33_4 O 0.12388(14) 0.38066(11) 0.49468(12)
H61_4 H 0.1319 0.3610 0.4992
H62_4 H 0.1166 0.3803 0.4763
O34_4 O 0.26412(14) 0.50024(12) 0.50197(12)
H63_3 H 0.2595 0.5165 0.4898
H64_4 H 0.2651 0.5082 0.5200
O35_4 O 0.38507(15) 0.78117(12) 0.62610(11)
H65_4 H 0.3813 0.7607 0.6206
H66_4 H 0.3827 0.7939 0.6105
O36_4 O 0.25650(15) 0.82248(12) 0.73756(10)
H67_4 H 0.2605 0.8426 0.7438
H68_4 H 0.2583 0.8090 0.7527
O37_4 O 0.03837(12) 0.46871(10) 0.59906(9)
O38_4 O 0.03911(12) 0.51518(10) 0.62880(9)
O39_4 O 0.13933(12) 0.45113(10) 0.52483(9)
O40_4 O 0.18654(15) 0.48971(11) 0.52425(10)
O41_4 O 0.26713(13) 0.77215(11) 0.68322(11)
O42_4 O 0.31117(15) 0.75943(10) 0.64930(10)
O43_4 O 0.19030(13) 0.40116(10) 0.53805(9)
O44_4 O 0.23614(14) 0.43828(11) 0.53615(10)
O47_2 O 0.46160(14) 0.58893(11) 0.73406(11)
O48_2 O 0.46217(15) 0.61294(12) 0.68940(12)
O49_4 O 0.03773(12) 0.47402(10) 0.68072(9)
O50_4 O 0.03836(12) 0.42798(10) 0.65190(9)
O59_4 O 0.20246(15) 0.39035(11) 0.47407(10)
O60_4 O 0.24780(14) 0.42969(12) 0.47440(10)
C85_4 C 0.05068(18) 0.49641(16) 0.60890(14)
C86_4 C 0.0849(2) 0.51082(16) 0.59021(14)
C87_4 C 0.10091(19) 0.48997(15) 0.56846(14)
H69_4 H 0.0899 0.4694 0.5624
C88_4 C 0.1347(2) 0.50106(16) 0.55568(14)
C89_4 C 0.1492(2) 0.53093(17) 0.56519(16)
H70_4 H 0.1713 0.5382 0.5562
C90_4 C 0.1336(2) 0.55178(19) 0.58760(17)
C91_4 C 0.1000(2) 0.54033(16) 0.60056(15)
H71_4 H 0.0884 0.5530 0.6160
C92_4 C 0.1553(2) 0.47827(18) 0.53237(15)
C93_4 C 0.1521(3) 0.5834(2) 0.5985(2)
C94_4 C 0.1728(3) 0.6038(2) 0.5781(2)
H72_4 H 0.1712 0.5984 0.5572
C95_4 C 0.1963(3) 0.6325(2) 0.5864(2)
H73_4 H 0.2115 0.6439 0.5724
C96_4 C 0.1937(3) 0.6420(2) 0.61920(19)
C97_4 C 0.1697(3) 0.6220(2) 0.6358(2)
H74_4 H 0.1644 0.6304 0.6554
C98_4 C 0.1515(3) 0.5912(2) 0.6284(2)
H75_4 H 0.1401 0.5774 0.6431
C99_4 C 0.2158(3) 0.6706(2) 0.6293(2)
C100_4 C 0.2469(3) 0.6784(2) 0.6173(2)
H76_4 H 0.2554 0.6647 0.6012
C101_4 C 0.2578(3) 0.72687(19) 0.65198(19)
C102_4 C 0.2225(2) 0.7182(2) 0.66562(19)
H77_4 H 0.2129 0.7308 0.6820
C103_4 C 0.2036(3) 0.6910(2) 0.6535(2)
H78_4 H 0.1808 0.6857 0.6621
C104_4 C 0.2795(2) 0.75491(18) 0.66326(18)
C105_4 C 0.2165(2) 0.41445(16) 0.54932(15)
C106_4 C 0.2315(2) 0.40597(16) 0.58024(14)
C107_4 C 0.2148(2) 0.38004(16) 0.59764(15)
H79_4 H 0.1953 0.3674 0.5893
C108_4 C 0.2273(2) 0.37293(17) 0.62764(15)
C109_4 C 0.2542(2) 0.39241(17) 0.64079(15)
H80_4 H 0.2617 0.3882 0.6609
C110_4 C 0.2709(2) 0.41953(18) 0.62325(17)
C111_4 C 0.2579(2) 0.42535(16) 0.59358(15)
H81_4 H 0.2679 0.4435 0.5824
C112_4 C 0.2086(2) 0.34500(16) 0.64707(16)
C113_4 C 0.2981(3) 0.4429(2) 0.6376(2)
C114_4 C 0.3001(3) 0.4515(3) 0.6657(2)
H82_4 H 0.2825 0.4422 0.6790
C115_4 C 0.3272(3) 0.4743(2) 0.6792(2)
H83_4 H 0.3278 0.4772 0.7004
C116_4 C 0.3507(3) 0.4910(2) 0.6618(2)
C117_4 C 0.3494(3) 0.4807(3) 0.6344(3)
H84_4 H 0.3674 0.4897 0.6214
C118_4 C 0.3239(3) 0.4571(2) 0.6203(2)
H85_4 H 0.3255 0.4520 0.5994
C119_4 C 0.3755(3) 0.5157(2) 0.6735(2)
C120_4 C 0.3846(3) 0.5139(2) 0.7041(2)
H86_4 H 0.3743 0.4972 0.7168
C121_4 C 0.4113(3) 0.5394(2) 0.7166(2)
H87_4 H 0.4194 0.5379 0.7369
C122_4 C 0.4241(2) 0.5660(2) 0.69732(19)
C123_4 C 0.4129(3) 0.5663(2) 0.6668(2)
H88_4 H 0.4224 0.5829 0.6535
C124_4 C 0.3876(3) 0.5423(2) 0.6557(2)
H89_4 H 0.3787 0.5444 0.6356
C125_4 C 0.4519(2) 0.5911(2) 0.7072(2)
C126_4 C 0.04732(19) 0.44494(17) 0.67356(15)
C127_4 C 0.07398(19) 0.42910(15) 0.69684(14)
C128_4 C 0.0828(2) 0.44375(16) 0.72315(15)
H90_4 H 0.0715 0.4645 0.7280
C129_4 C 0.1084(2) 0.42995(17) 0.74466(16)
C130_4 C 0.1254(2) 0.40073(16) 0.73538(15)
H91_4 H 0.1436 0.3914 0.7480
C131_4 C 0.1170(2) 0.38429(16) 0.70844(15)
C132_4 C 0.0923(2) 0.39748(16) 0.68764(16)
H92_4 H 0.0876 0.3869 0.6688
C133_4 C 0.1392(2) 0.35061(16) 0.69970(17)
C134_4 C 0.1159(3) 0.4462(2) 0.7743(2)
C135_4 C 0.0952(4) 0.4645(3) 0.7888(3)
H93_4 H 0.0724 0.4694 0.7800
C136_4 C 0.1026(4) 0.4787(3) 0.8173(3)
H94_4 H 0.0844 0.4930 0.8253
C137_4 C 0.1311(4) 0.4747(3) 0.8337(2)
C138_4 C 0.1634(4) 0.4615(3) 0.8179(3)
H95_4 H 0.1878 0.4628 0.8246
C139_4 C 0.1500(4) 0.4454(3) 0.7883(3)
H96_4 H 0.1678 0.4327 0.7778
C140_4 C 0.1405(3) 0.4882(2) 0.8627(2)
C141_4 C 0.1231(3) 0.5184(2) 0.8755(2)
H97_4 H 0.1059 0.5300 0.8633
C142_4 C 0.1302(2) 0.53123(19) 0.90419(18)
H98_4 H 0.1157 0.5485 0.9128
C143_4 C 0.1583(3) 0.5179(2) 0.91893(18)
C144_4 C 0.1780(3) 0.4887(2) 0.9099(2)
H99_4 H 0.1957 0.4783 0.9223
C145_4 C 0.1684(3) 0.4763(2) 0.8799(2)
H100_4 H 0.1826 0.4586 0.8717
C146_4 C 0.1720(3) 0.5318(2) 0.95136(18)
C147_4 C 0.3513(2) 0.23780(17) 0.21780(17)
C148_4 C 0.3682(2) 0.26639(17) 0.24012(16)
C149_4 C 0.4001(2) 0.28196(17) 0.23238(15)
H101_4 H 0.4113 0.2764 0.2138
C150_4 C 0.4160(2) 0.30518(16) 0.25079(15)
C151_4 C 0.3984(2) 0.31162(17) 0.27865(16)
H102_4 H 0.4089 0.3278 0.2917
C152_4 C 0.3683(2) 0.29649(18) 0.28766(17)
C153_4 C 0.3519(2) 0.27219(16) 0.26713(16)
H103_4 H 0.3303 0.2607 0.2725
C154_4 C 0.4486(2) 0.32576(16) 0.24195(16)
C155_4 C 0.3487(3) 0.30411(19) 0.31797(19)
C156_4 C 0.3690(3) 0.3162(2) 0.3422(2)
H104_4 H 0.3947 0.3164 0.3416
C157_4 C 0.3490(3) 0.3287(2) 0.3688(2)
H105_4 H 0.3622 0.3355 0.3861
C158_4 C 0.3116(3) 0.3308(2) 0.3691(2)
C159_4 C 0.2921(3) 0.3167(2) 0.3470(2)
H106_4 H 0.2667 0.3136 0.3492
C160_4 C 0.3106(3) 0.3059(2) 0.3193(2)
H107_4 H 0.2967 0.3001 0.3020
C161_4 C 0.2922(3) 0.3464(2) 0.3965(2)
C162_4 C 0.3068(2) 0.3742(2) 0.4123(2)
H108_4 H 0.3302 0.3820 0.4067
C163_4 C 0.2899(3) 0.3898(2) 0.4341(2)
H109_4 H 0.3018 0.4079 0.4440
C164_4 C 0.2541(3) 0.3806(2) 0.44370(18)
C165_4 C 0.2397(2) 0.35126(19) 0.43060(17)
H110_4 H 0.2174 0.3420 0.4374
C166_4 C 0.2593(3) 0.3361(2) 0.40715(19)
H111_4 H 0.2488 0.3169 0.3979
C167_4 C 0.2332(3) 0.3996(2) 0.46796(17)
C168_4 C 0.2695(3) 0.7063(2) 0.6263(2)
H112_4 H 0.2913 0.7112 0.6159
Cu1_6 Cu 1.0000 0.49940(2) 0.65728(2)
Cu2_6 Cu 1.0000 0.44389(2) 0.62263(2)
O1_6 O 1.0000 0.39940(16) 0.59409(15)
H1_4 H 0.9793 0.3965 0.5868
O2_6 O 1.0000 0.54484(16) 0.68547(14)
H2_4 H 0.9787 0.5495 0.6905
O3_4 O 0.87612(14) 0.38066(11) 0.49468(12)
H3_4 H 0.8681 0.3610 0.4992
H4_4 H 0.8834 0.3803 0.4763
O4_4 O 0.73588(14) 0.50024(12) 0.50197(12)
H5_3 H 0.7405 0.5165 0.4898
H6_4 H 0.7349 0.5082 0.5200
O5_4 O 0.61493(15) 0.78117(12) 0.62610(11)
H7_4 H 0.6187 0.7607 0.6206
H8_4 H 0.6173 0.7939 0.6105
O6_4 O 0.74350(15) 0.82248(12) 0.73756(10)
H9_4 H 0.7395 0.8426 0.7438
H10_4 H 0.7417 0.8090 0.7527
O7_6 O 0.5000 0.67069(17) 0.65347(15)
O8_6 O 0.5000 0.59733(18) 0.79825(15)
O9_4 O 0.96163(12) 0.46871(10) 0.59906(9)
O10_4 O 0.96089(12) 0.51518(10) 0.62880(9)
O11_4 O 0.86067(12) 0.45113(10) 0.52483(9)
O12_4 O 0.81346(15) 0.48971(11) 0.52425(10)
O13_4 O 0.73287(13) 0.77215(11) 0.68322(11)
O14_4 O 0.68883(15) 0.75943(10) 0.64930(10)
O15_4 O 0.80970(13) 0.40116(10) 0.53805(9)
O16_4 O 0.76386(14) 0.43828(11) 0.53615(10)
O19_4 O 0.53840(14) 0.58893(11) 0.73406(11)
O20_4 O 0.53783(15) 0.61294(12) 0.68940(12)
O21_4 O 0.96227(12) 0.47402(10) 0.68072(9)
O22_4 O 0.96164(12) 0.42798(10) 0.65190(9)
O31_4 O 0.79754(15) 0.39035(11) 0.47407(10)
O32_4 O 0.75220(14) 0.42969(12) 0.47440(10)
C1_4 C 0.94932(18) 0.49641(16) 0.60890(14)
C2_4 C 0.9151(2) 0.51082(16) 0.59021(14)
C3_4 C 0.89909(19) 0.48997(15) 0.56846(14)
H11_4 H 0.9101 0.4694 0.5624
C4_4 C 0.8653(2) 0.50106(16) 0.55568(14)
C5_4 C 0.8508(2) 0.53093(17) 0.56519(16)
H12_4 H 0.8287 0.5382 0.5562
C6_4 C 0.8664(2) 0.55178(19) 0.58760(17)
C7_4 C 0.9000(2) 0.54033(16) 0.60056(15)
H13_4 H 0.9116 0.5530 0.6160
C8_4 C 0.8447(2) 0.47827(18) 0.53237(15)
C9_4 C 0.8479(3) 0.5834(2) 0.5985(2)
C10_4 C 0.8272(3) 0.6038(2) 0.5781(2)
H14_4 H 0.8288 0.5984 0.5572
C11_4 C 0.8037(3) 0.6325(2) 0.5864(2)
H15_4 H 0.7885 0.6439 0.5724
C12_4 C 0.8063(3) 0.6420(2) 0.61920(19)
C13_4 C 0.8303(3) 0.6220(2) 0.6358(2)
H16_4 H 0.8356 0.6304 0.6554
C14_4 C 0.8485(3) 0.5912(2) 0.6284(2)
H17_4 H 0.8599 0.5774 0.6431
C15_4 C 0.7842(3) 0.6706(2) 0.6293(2)
C16_4 C 0.7531(3) 0.6784(2) 0.6173(2)
H18_4 H 0.7446 0.6647 0.6012
C17_4 C 0.7422(3) 0.72687(19) 0.65198(19)
C18_4 C 0.7775(2) 0.7182(2) 0.66562(19)
H19_4 H 0.7871 0.7308 0.6820
C19_4 C 0.7964(3) 0.6910(2) 0.6535(2)
H20_4 H 0.8192 0.6857 0.6621
C20_4 C 0.7205(2) 0.75491(18) 0.66326(18)
C21_4 C 0.7835(2) 0.41445(16) 0.54932(15)
C22_4 C 0.7685(2) 0.40597(16) 0.58024(14)
C23_4 C 0.7852(2) 0.38004(16) 0.59764(15)
H21_4 H 0.8047 0.3674 0.5893
C24_4 C 0.7727(2) 0.37293(17) 0.62764(15)
C25_4 C 0.7458(2) 0.39241(17) 0.64079(15)
H22_4 H 0.7383 0.3882 0.6609
C26_4 C 0.7291(2) 0.41953(18) 0.62325(17)
C27_4 C 0.7421(2) 0.42535(16) 0.59358(15)
H23_4 H 0.7321 0.4435 0.5824
C28_4 C 0.7914(2) 0.34500(16) 0.64707(16)
C29_4 C 0.7019(3) 0.4429(2) 0.6376(2)
C30_4 C 0.6999(3) 0.4515(3) 0.6657(2)
H24_4 H 0.7175 0.4422 0.6790
C31_4 C 0.6728(3) 0.4743(2) 0.6792(2)
H25_4 H 0.6722 0.4772 0.7004
C32_4 C 0.6493(3) 0.4910(2) 0.6618(2)
C33_4 C 0.6506(3) 0.4807(3) 0.6344(3)
H26_4 H 0.6326 0.4897 0.6214
C34_4 C 0.6761(3) 0.4571(2) 0.6203(2)
H27_4 H 0.6745 0.4520 0.5994
C35_4 C 0.6245(3) 0.5157(2) 0.6735(2)
C36_4 C 0.6154(3) 0.5139(2) 0.7041(2)
H28_4 H 0.6257 0.4972 0.7168
C37_4 C 0.5887(3) 0.5394(2) 0.7166(2)
H29_4 H 0.5806 0.5379 0.7369
C38_4 C 0.5759(2) 0.5660(2) 0.69732(19)
C39_4 C 0.5871(3) 0.5663(2) 0.6668(2)
H30_4 H 0.5776 0.5829 0.6535
C40_4 C 0.6124(3) 0.5423(2) 0.6557(2)
H31_4 H 0.6213 0.5444 0.6356
C41_4 C 0.5481(2) 0.5911(2) 0.7072(2)
C42_4 C 0.95268(19) 0.44494(17) 0.67356(15)
C43_4 C 0.92602(19) 0.42910(15) 0.69684(14)
C44_4 C 0.9172(2) 0.44375(16) 0.72315(15)
H32_4 H 0.9285 0.4645 0.7280
C45_4 C 0.8916(2) 0.42995(17) 0.74466(16)
C46_4 C 0.8746(2) 0.40073(16) 0.73538(15)
H33_4 H 0.8564 0.3914 0.7480
C47_4 C 0.8830(2) 0.38429(16) 0.70844(15)
C48_4 C 0.9077(2) 0.39748(16) 0.68764(16)
H34_4 H 0.9124 0.3869 0.6688
C49_4 C 0.8608(2) 0.35061(16) 0.69970(17)
C50_4 C 0.8841(3) 0.4462(2) 0.7743(2)
C51_4 C 0.9048(4) 0.4645(3) 0.7888(3)
H35_4 H 0.9276 0.4694 0.7800
C52_4 C 0.8974(4) 0.4787(3) 0.8173(3)
H36_4 H 0.9156 0.4930 0.8253
C53_4 C 0.8689(4) 0.4747(3) 0.8337(2)
C54_4 C 0.8366(4) 0.4615(3) 0.8179(3)
H37_4 H 0.8122 0.4628 0.8246
C55_4 C 0.8500(4) 0.4454(3) 0.7883(3)
H38_4 H 0.8322 0.4327 0.7778
C56_4 C 0.8595(3) 0.4882(2) 0.8627(2)
C57_4 C 0.8769(3) 0.5184(2) 0.8755(2)
H39_4 H 0.8941 0.5300 0.8633
C58_4 C 0.8698(2) 0.53123(19) 0.90419(18)
H40_4 H 0.8843 0.5485 0.9128
C59_4 C 0.8417(3) 0.5179(2) 0.91893(18)
C60_4 C 0.8220(3) 0.4887(2) 0.9099(2)
H41_4 H 0.8043 0.4783 0.9223
C61_4 C 0.8316(3) 0.4763(2) 0.8799(2)
H42_4 H 0.8174 0.4586 0.8717
C62_4 C 0.8280(3) 0.5318(2) 0.95136(18)
C63_4 C 0.6487(2) 0.23780(17) 0.21780(17)
C64_4 C 0.6318(2) 0.26639(17) 0.24012(16)
C65_4 C 0.5999(2) 0.28196(17) 0.23238(15)
H43_4 H 0.5887 0.2764 0.2138
C66_4 C 0.5840(2) 0.30518(16) 0.25079(15)
C67_4 C 0.6016(2) 0.31162(17) 0.27865(16)
H44_4 H 0.5911 0.3278 0.2917
C68_4 C 0.6317(2) 0.29649(18) 0.28766(17)
C69_4 C 0.6481(2) 0.27219(16) 0.26713(16)
H45_4 H 0.6697 0.2607 0.2725
C70_4 C 0.5514(2) 0.32576(16) 0.24195(16)
C71_4 C 0.6513(3) 0.30411(19) 0.31797(19)
C72_4 C 0.6310(3) 0.3162(2) 0.3422(2)
H46_4 H 0.6053 0.3164 0.3416
C73_4 C 0.6510(3) 0.3287(2) 0.3688(2)
H47_4 H 0.6378 0.3355 0.3861
C74_4 C 0.6884(3) 0.3308(2) 0.3691(2)
C75_4 C 0.7079(3) 0.3167(2) 0.3470(2)
H48_4 H 0.7333 0.3136 0.3492
C76_4 C 0.6894(3) 0.3059(2) 0.3193(2)
H49_4 H 0.7033 0.3001 0.3020
C77_4 C 0.7078(3) 0.3464(2) 0.3965(2)
C78_4 C 0.6932(2) 0.3742(2) 0.4123(2)
H50_4 H 0.6698 0.3820 0.4067
C79_4 C 0.7101(3) 0.3898(2) 0.4341(2)
H51_4 H 0.6982 0.4079 0.4440
C80_4 C 0.7459(3) 0.3806(2) 0.44370(18)
C81_4 C 0.7603(2) 0.35126(19) 0.43060(17)
H52_4 H 0.7826 0.3420 0.4374
C82_4 C 0.7407(3) 0.3361(2) 0.40715(19)
H53_4 H 0.7512 0.3169 0.3979
C83_4 C 0.7668(3) 0.3996(2) 0.46796(17)
C84_4 C 0.7305(3) 0.7063(2) 0.6263(2)
H54_4 H 0.7087 0.7112 0.6159
H55_4 H 0.4817 0.6641 0.6439
H56_4 H 0.4787 0.5943 0.8040
H59_4 H 0.5183 0.6641 0.6439
H60_4 H 0.5213 0.5943 0.8040
H5_4 H 0.7595 0.9835 0.9898
H63_4 H 0.2405 0.9835 0.9898
loop_
_geom_bond_atom_site_label_1
_geom_bond_atom_site_label_2
_geom_bond_site_symmetry_1
_geom_bond_site_symmetry_2
Cu27 Cu30 1_555 1_555
Cu7 Cu8 1_555 1_555
Cu8 O8 1_555 1_555
O7 Cu7 1_555 1_555
O8 H56 1_555 1_555
H55 O7 1_555 1_555
O65 Cu8 1_555 1_555
O66 Cu7 1_555 1_555
O79 Cu7 1_555 1_555
O81 Cu8 1_555 1_555
Cu1 Cu2 1_555 1_555
Cu2 O1 1_555 1_555
O1 H1 1_555 1_555
O9 Cu2 1_555 1_555
O17 C28 1_555 1_555
O18 C28 1_555 1_555
O21 Cu1 1_555 1_555
O22 Cu2 1_555 1_555
O23 C49 1_555 1_555
O24 C49 1_555 1_555
C1 O9 1_555 1_555
H11 C3 1_555 1_555
C8 O11 1_555 1_555
C21 O15 1_555 1_555
C22 C21 1_555 1_555
C23 C22 1_555 1_555
H21 C23 1_555 1_555
C24 C23 1_555 1_555
C25 C24 1_555 1_555
H22 C25 1_555 1_555
C26 C25 1_555 1_555
C27 C22 1_555 1_555
H23 C27 1_555 1_555
C28 C24 1_555 1_555
C29 C26 1_555 1_555
C30 C29 1_555 1_555
H24 C30 1_555 1_555
C31 C30 1_555 1_555
H25 C31 1_555 1_555
C32 C31 1_555 1_555
C33 C32 1_555 1_555
H26 C33 1_555 1_555
C34 C29 1_555 1_555
H27 C34 1_555 1_555
C42 O21 1_555 1_555
C43 C42 1_555 1_555
C44 C43 1_555 1_555
H32 C44 1_555 1_555
C45 C44 1_555 1_555
C46 C45 1_555 1_555
H33 C46 1_555 1_555
C47 C46 1_555 1_555
C48 C43 1_555 1_555
H34 C48 1_555 1_555
C49 C47 1_555 1_555
C50 C45 1_555 1_555
C51 C50 1_555 1_555
H35 C51 1_555 1_555
C52 C51 1_555 1_555
H36 C52 1_555 1_555
C53 C52 1_555 1_555
C54 C53 1_555 1_555
H37 C54 1_555 1_555
C55 C50 1_555 1_555
H38 C55 1_555 1_555
C56 C53 1_555 1_555
H41 C60 1_555 1_555
C61 C56 1_555 1_555
H42 C61 1_555 1_555
H57 O1 1_555 1_555
O37 Cu2 1_555 1_555
O45 C112 1_555 1_555
O46 C112 1_555 1_555
O49 Cu1 1_555 1_555
O50 Cu2 1_555 1_555
O51 C133 1_555 1_555
O52 C133 1_555 1_555
C85 O37 1_555 1_555
H69 C87 1_555 1_555
C92 O39 1_555 1_555
C105 O43 1_555 1_555
C106 C105 1_555 1_555
C107 C106 1_555 1_555
H79 C107 1_555 1_555
C108 C107 1_555 1_555
C109 C108 1_555 1_555
H80 C109 1_555 1_555
C110 C109 1_555 1_555
C111 C106 1_555 1_555
H81 C111 1_555 1_555
C112 C108 1_555 1_555
C113 C110 1_555 1_555
C114 C113 1_555 1_555
H82 C114 1_555 1_555
C115 C114 1_555 1_555
H83 C115 1_555 1_555
C116 C115 1_555 1_555
C117 C116 1_555 1_555
H84 C117 1_555 1_555
C118 C113 1_555 1_555
H85 C118 1_555 1_555
C126 O49 1_555 1_555
C127 C126 1_555 1_555
C128 C127 1_555 1_555
H90 C128 1_555 1_555
C129 C128 1_555 1_555
C130 C129 1_555 1_555
H91 C130 1_555 1_555
C131 C130 1_555 1_555
C132 C127 1_555 1_555
H92 C132 1_555 1_555
C133 C131 1_555 1_555
C134 C129 1_555 1_555
C135 C134 1_555 1_555
H93 C135 1_555 1_555
C136 C135 1_555 1_555
H94 C136 1_555 1_555
C137 C136 1_555 1_555
C138 C137 1_555 1_555
H95 C138 1_555 1_555
C139 C134 1_555 1_555
H96 C139 1_555 1_555
C140 C137 1_555 1_555
H99 C144 1_555 1_555
C145 C140 1_555 1_555
H100 C145 1_555 1_555
Cu19 O45 1_555 1_555
Cu20 O17 1_555 1_555
Cu23 O46 1_555 1_555
Cu24 O18 1_555 1_555
O12 C8 1_555 1_555
O16 C21 1_555 1_555
O22 C42 1_555 1_555
O23 Cu20 1_555 1_555
O24 Cu24 1_555 1_555
C26 C27 1_555 1_555
C33 C34 1_555 1_555
C47 C48 1_555 1_555
C54 C55 1_555 1_555
C60 C61 1_555 1_555
O40 C92 1_555 1_555
O44 C105 1_555 1_555
O50 C126 1_555 1_555
O51 Cu19 1_555 1_555
O52 Cu23 1_555 1_555
C110 C111 1_555 1_555
C117 C118 1_555 1_555
C131 C132 1_555 1_555
C138 C139 1_555 1_555
C144 C145 1_555 1_555
Cu19 Cu23 1_555 1_555
Cu20 Cu24 1_555 1_555
Cu3 Cu4 1_555 1_555
O3 Cu3 1_555 1_555
H3 O3 1_555 1_555
H4 O3 1_555 1_555
O27 C63 1_555 1_555
O28 C63 1_555 1_555
O29 C70 1_555 1_555
O30 C70 1_555 1_555
O31 Cu3 1_555 1_555
O32 Cu4 1_555 1_555
C63 C64 1_555 1_555
C64 C65 1_555 1_555
C65 H43 1_555 1_555
C66 C65 1_555 1_555
C67 C66 1_555 1_555
H44 C67 1_555 1_555
C68 C67 1_555 1_555
C69 C64 1_555 1_555
H45 C69 1_555 1_555
C70 C66 1_555 1_555
C71 C68 1_555 1_555
C72 C71 1_555 1_555
H46 C72 1_555 1_555
C73 C72 1_555 1_555
H47 C73 1_555 1_555
C74 C73 1_555 1_555
C75 C74 1_555 1_555
H48 C75 1_555 1_555
C76 C71 1_555 1_555
H49 C76 1_555 1_555
C77 C74 1_555 1_555
C78 C77 1_555 1_555
H50 C78 1_555 1_555
C79 C78 1_555 1_555
H51 C79 1_555 1_555
C80 C79 1_555 1_555
C81 C80 1_555 1_555
H52 C81 1_555 1_555
C82 C77 1_555 1_555
H53 C82 1_555 1_555
C83 O31 1_555 1_555
Cu9 Cu10 1_555 1_555
O33 Cu9 1_555 1_555
H61 O33 1_555 1_555
H62 O33 1_555 1_555
O55 C147 1_555 1_555
O56 C147 1_555 1_555
O57 C154 1_555 1_555
O58 C154 1_555 1_555
O59 Cu9 1_555 1_555
O60 Cu10 1_555 1_555
C147 C148 1_555 1_555
C148 C149 1_555 1_555
C149 H101 1_555 1_555
C150 C149 1_555 1_555
C151 C150 1_555 1_555
H102 C151 1_555 1_555
C152 C151 1_555 1_555
C153 C148 1_555 1_555
H103 C153 1_555 1_555
C154 C150 1_555 1_555
C155 C152 1_555 1_555
C156 C155 1_555 1_555
H104 C156 1_555 1_555
C157 C156 1_555 1_555
H105 C157 1_555 1_555
C158 C157 1_555 1_555
C159 C158 1_555 1_555
H106 C159 1_555 1_555
C160 C155 1_555 1_555
H107 C160 1_555 1_555
C161 C158 1_555 1_555
C162 C161 1_555 1_555
H108 C162 1_555 1_555
C163 C162 1_555 1_555
H109 C163 1_555 1_555
C164 C163 1_555 1_555
C165 C164 1_555 1_555
H110 C165 1_555 1_555
C166 C161 1_555 1_555
H111 C166 1_555 1_555
C167 O59 1_555 1_555
Cu17 O56 1_555 1_555
Cu18 O28 1_555 1_555
Cu21 O55 1_555 1_555
Cu22 O27 1_555 1_555
Cu27 O57 1_555 1_555
Cu27_2 O29 1_555 1_555
Cu30 O58 1_555 1_555
Cu30_2 O30 1_555 1_555
O71 Cu10 1_555 1_555
O72 Cu4 1_555 1_555
O73 Cu9 1_555 1_555
O74 Cu3 1_555 1_555
O32 C83 1_555 1_555
C68 C69 1_555 1_555
C75 C76 1_555 1_555
C80 C83 1_555 1_555
C81 C82 1_555 1_555
O60 C167 1_555 1_555
C152 C153 1_555 1_555
C159 C160 1_555 1_555
C164 C167 1_555 1_555
C165 C166 1_555 1_555
Cu17 Cu21 1_555 1_555
Cu18 Cu22 1_555 1_555
Cu27_2 Cu30_2 1_555 1_555
Cu5 Cu6 1_555 1_555
Cu6 O6 1_555 1_555
Cu7_2 Cu8_2 1_555 1_555
Cu8_2 O8_2 1_555 1_555
H2 O2 1_555 1_555
H6 O4 1_555 1_555
O5 Cu5 1_555 1_555
H7 O5 1_555 1_555
H8 O5 1_555 1_555
O6 H9 1_555 1_555
H10 O6 1_555 1_555
O7_2 Cu7_2 1_555 1_555
O13 Cu6 1_555 1_555
O14 Cu5 1_555 1_555
O19 Cu8_2 1_555 1_555
O20 Cu7_2 1_555 1_555
O25 C62 1_555 1_555
O26 C62 1_555 1_555
C5 C4 1_555 1_555
H12 C5 1_555 1_555
C6 C5 1_555 1_555
C7 C2 1_555 1_555
H13 C7 1_555 1_555
C9 C6 1_555 1_555
C10 C9 1_555 1_555
H14 C10 1_555 1_555
C11 C10 1_555 1_555
H15 C11 1_555 1_555
C12 C11 1_555 1_555
C13 C12 1_555 1_555
H16 C13 1_555 1_555
C14 C9 1_555 1_555
H17 C14 1_555 1_555
C15 C12 1_555 1_555
C16 C15 1_555 1_555
H18 C16 1_555 1_555
C17 C18 1_555 1_555
C18 H19 1_555 1_555
C19 C15 1_555 1_555
H20 C19 1_555 1_555
C20 O13 1_555 1_555
C36 C35 1_555 1_555
C37 C36 1_555 1_555
H29 C37 1_555 1_555
C38 C37 1_555 1_555
C39 C38 1_555 1_555
H30 C39 1_555 1_555
C40 C35 1_555 1_555
H31 C40 1_555 1_555
C41 O19 1_555 1_555
H39 C57 1_555 1_555
C58 C57 1_555 1_555
H40 C58 1_555 1_555
C59 C58 1_555 1_555
C62 C59 1_555 1_555
C84 C16 1_555 1_555
H54 C84 1_555 1_555
H58 O2 1_555 1_555
H59 O7_2 1_555 1_555
H60 O8_2 1_555 1_555
Cu11 Cu12 1_555 1_555
Cu12 O36 1_555 1_555
H64 O34 1_555 1_555
O35 Cu11 1_555 1_555
H65 O35 1_555 1_555
H66 O35 1_555 1_555
O36 H67 1_555 1_555
H68 O36 1_555 1_555
O41 Cu12 1_555 1_555
O42 Cu11 1_555 1_555
O65 C125 1_555 1_555
O66 C125 1_555 1_555
O53 C146 1_555 1_555
O54 C146 1_555 1_555
C89 C88 1_555 1_555
H70 C89 1_555 1_555
C90 C89 1_555 1_555
C91 C86 1_555 1_555
H71 C91 1_555 1_555
C93 C90 1_555 1_555
C94 C93 1_555 1_555
H72 C94 1_555 1_555
C95 C94 1_555 1_555
H73 C95 1_555 1_555
C96 C95 1_555 1_555
C97 C96 1_555 1_555
H74 C97 1_555 1_555
C98 C93 1_555 1_555
H75 C98 1_555 1_555
C99 C96 1_555 1_555
C100 C99 1_555 1_555
H76 C100 1_555 1_555
C101 C102 1_555 1_555
C102 H77 1_555 1_555
C103 C99 1_555 1_555
H78 C103 1_555 1_555
C104 O41 1_555 1_555
C120 C119 1_555 1_555
C121 C120 1_555 1_555
H87 C121 1_555 1_555
C122 C121 1_555 1_555
C123 C122 1_555 1_555
H88 C123 1_555 1_555
C124 C119 1_555 1_555
H89 C124 1_555 1_555
C125 C122 1_555 1_555
H97 C141 1_555 1_555
C142 C141 1_555 1_555
H98 C142 1_555 1_555
C143 C142 1_555 1_555
C146 C143 1_555 1_555
C168 C100 1_555 1_555
H112 C168 1_555 1_555
Cu13 O54 1_555 1_555
Cu14 O26 1_555 1_555
Cu15 O53 1_555 1_555
Cu16 O25 1_555 1_555
O61 Cu11 1_555 1_555
O62 Cu5 1_555 1_555
O63 Cu12 1_555 1_555
O64 Cu6 1_555 1_555
O67 Cu11 1_555 1_555
O68 Cu5 1_555 1_555
O69 Cu12 1_555 1_555
O70 Cu6 1_555 1_555
O75 Cu12 1_555 1_555
O76 Cu6 1_555 1_555
O77 Cu11 1_555 1_555
O78 Cu5 1_555 1_555
O80 Cu7_2 1_555 1_555
O82 Cu8_2 1_555 1_555
O14 C20 1_555 1_555
O20 C41 1_555 1_555
C6 C7 1_555 1_555
C13 C14 1_555 1_555
C17 C20 1_555 1_555
C17 C84 1_555 1_555
C18 C19 1_555 1_555
C38 C41 1_555 1_555
C39 C40 1_555 1_555
O42 C104 1_555 1_555
C90 C91 1_555 1_555
C97 C98 1_555 1_555
C101 C104 1_555 1_555
C101 C168 1_555 1_555
C102 C103 1_555 1_555
C123 C124 1_555 1_555
Cu13 Cu15 1_555 1_555
Cu14 Cu16 1_555 1_555
Cu21 O6_2 1_555 1_555
Cu30 O8_3 1_555 1_555
H2_2 O2_2 1_555 1_555
O4_2 H5 1_555 1_555
H6_2 O4_2 1_555 1_555
O5_2 Cu17 1_555 1_555
H7_2 O5_2 1_555 1_555
H8_2 O5_2 1_555 1_555
O6_2 H9_2 1_555 1_555
H10_2 O6_2 1_555 1_555
O7_3 Cu27 1_555 1_555
O13_2 Cu21 1_555 1_555
O14_2 Cu17 1_555 1_555
O19_2 Cu30 1_555 1_555
O20_2 Cu27 1_555 1_555
O71 C62_2 1_555 1_555
O73 C62_2 1_555 1_555
C5_2 C4_2 1_555 1_555
H12_2 C5_2 1_555 1_555
C6_2 C5_2 1_555 1_555
C7_2 C2_2 1_555 1_555
H13_2 C7_2 1_555 1_555
C9_2 C6_2 1_555 1_555
C10_2 C9_2 1_555 1_555
H14_2 C10_2 1_555 1_555
C11_2 C10_2 1_555 1_555
H15_2 C11_2 1_555 1_555
C12_2 C11_2 1_555 1_555
C13_2 C12_2 1_555 1_555
H16_2 C13_2 1_555 1_555
C14_2 C9_2 1_555 1_555
H17_2 C14_2 1_555 1_555
C15_2 C12_2 1_555 1_555
C16_2 C15_2 1_555 1_555
H18_2 C16_2 1_555 1_555
C17_2 C18_2 1_555 1_555
C18_2 H19_2 1_555 1_555
C19_2 C15_2 1_555 1_555
H20_2 C19_2 1_555 1_555
C20_2 O13_2 1_555 1_555
C36_2 C35_2 1_555 1_555
C37_2 C36_2 1_555 1_555
H29_2 C37_2 1_555 1_555
C38_2 C37_2 1_555 1_555
C39_2 C38_2 1_555 1_555
H30_2 C39_2 1_555 1_555
C40_2 C35_2 1_555 1_555
H31_2 C40_2 1_555 1_555
C41_2 O19_2 1_555 1_555
H39_2 C57_2 1_555 1_555
C58_2 C57_2 1_555 1_555
H40_2 C58_2 1_555 1_555
C59_2 C58_2 1_555 1_555
C62_2 C59_2 1_555 1_555
C84_2 C16_2 1_555 1_555
H54_2 C84_2 1_555 1_555
H58_2 O2_2 1_555 1_555
H59_2 O7_3 1_555 1_555
H60_2 O8_3 1_555 1_555
Cu22 O36_2 1_555 1_555
O34_2 H63 1_555 1_555
H64_2 O34_2 1_555 1_555
O35_2 Cu18 1_555 1_555
H65_2 O35_2 1_555 1_555
H66_2 O35_2 1_555 1_555
O36_2 H67_2 1_555 1_555
H68_2 O36_2 1_555 1_555
O41_2 Cu22 1_555 1_555
O42_2 Cu18 1_555 1_555
O47 C125_2 1_555 1_555
O48 C125_2 1_555 1_555
O72 C146_2 1_555 1_555
O74 C146_2 1_555 1_555
C89_2 C88_2 1_555 1_555
H70_2 C89_2 1_555 1_555
C90_2 C89_2 1_555 1_555
C91_2 C86_2 1_555 1_555
H71_2 C91_2 1_555 1_555
C93_2 C90_2 1_555 1_555
C94_2 C93_2 1_555 1_555
H72_2 C94_2 1_555 1_555
C95_2 C94_2 1_555 1_555
H73_2 C95_2 1_555 1_555
C96_2 C95_2 1_555 1_555
C97_2 C96_2 1_555 1_555
H74_2 C97_2 1_555 1_555
C98_2 C93_2 1_555 1_555
H75_2 C98_2 1_555 1_555
C99_2 C96_2 1_555 1_555
C100_2 C99_2 1_555 1_555
H76_2 C100_2 1_555 1_555
C101_2 C102_2 1_555 1_555
C102_2 H77_2 1_555 1_555
C103_2 C99_2 1_555 1_555
H78_2 C103_2 1_555 1_555
C104_2 O41_2 1_555 1_555
C120_2 C119_2 1_555 1_555
C121_2 C120_2 1_555 1_555
H87_2 C121_2 1_555 1_555
C122_2 C121_2 1_555 1_555
C123_2 C122_2 1_555 1_555
H88_2 C123_2 1_555 1_555
C124_2 C119_2 1_555 1_555
H89_2 C124_2 1_555 1_555
C125_2 C122_2 1_555 1_555
H97_2 C141_2 1_555 1_555
C142_2 C141_2 1_555 1_555
H98_2 C142_2 1_555 1_555
C143_2 C142_2 1_555 1_555
C146_2 C143_2 1_555 1_555
C168_2 C100_2 1_555 1_555
H112_2 C168_2 1_555 1_555
Cu27_2 O48 1_555 1_555
Cu30_2 O47 1_555 1_555
O61_2 Cu18 1_555 1_555
O62_2 Cu17 1_555 1_555
O63_2 Cu22 1_555 1_555
O64_2 Cu21 1_555 1_555
O67_2 Cu18 1_555 1_555
O68_2 Cu17 1_555 1_555
O69_2 Cu22 1_555 1_555
O70_2 Cu21 1_555 1_555
O14_2 C20_2 1_555 1_555
O20_2 C41_2 1_555 1_555
C6_2 C7_2 1_555 1_555
C13_2 C14_2 1_555 1_555
C17_2 C20_2 1_555 1_555
C17_2 C84_2 1_555 1_555
C18_2 C19_2 1_555 1_555
C38_2 C41_2 1_555 1_555
C39_2 C40_2 1_555 1_555
O42_2 C104_2 1_555 1_555
C90_2 C91_2 1_555 1_555
C97_2 C98_2 1_555 1_555
C101_2 C104_2 1_555 1_555
C101_2 C168_2 1_555 1_555
C102_2 C103_2 1_555 1_555
C123_2 C124_2 1_555 1_555
Cu1_2 Cu2_2 1_555 1_555
Cu2_2 O1_2 1_555 1_555
O1_2 H1_2 1_555 1_555
O3_2 Cu13 1_555 1_555
H3_2 O3_2 1_555 1_555
H4_2 O3_2 1_555 1_555
O9_2 Cu2_2 1_555 1_555
O11_2 Cu13 1_555 1_555
O12_2 Cu15 1_555 1_555
O15_2 Cu13 1_555 1_555
O16_2 Cu15 1_555 1_555
O17_2 C28_2 1_555 1_555
O18_2 C28_2 1_555 1_555
O21_2 Cu1_2 1_555 1_555
O22_2 Cu2_2 1_555 1_555
O23_2 C49_2 1_555 1_555
O24_2 C49_2 1_555 1_555
O75 C63_2 1_555 1_555
O77 C63_2 1_555 1_555
O79 C70_2 1_555 1_555
O81 C70_2 1_555 1_555
O31_2 Cu13 1_555 1_555
O32_2 Cu15 1_555 1_555
C1_2 O9_2 1_555 1_555
H11_2 C3_2 1_555 1_555
C8_2 O11_2 1_555 1_555
C21_2 O15_2 1_555 1_555
C22_2 C21_2 1_555 1_555
C23_2 C22_2 1_555 1_555
H21_2 C23_2 1_555 1_555
C24_2 C23_2 1_555 1_555
C25_2 C24_2 1_555 1_555
H22_2 C25_2 1_555 1_555
C26_2 C25_2 1_555 1_555
C27_2 C22_2 1_555 1_555
H23_2 C27_2 1_555 1_555
C28_2 C24_2 1_555 1_555
C29_2 C26_2 1_555 1_555
C30_2 C29_2 1_555 1_555
H24_2 C30_2 1_555 1_555
C31_2 C30_2 1_555 1_555
H25_2 C31_2 1_555 1_555
C32_2 C31_2 1_555 1_555
C33_2 C32_2 1_555 1_555
H26_2 C33_2 1_555 1_555
C34_2 C29_2 1_555 1_555
H27_2 C34_2 1_555 1_555
C42_2 O21_2 1_555 1_555
C43_2 C42_2 1_555 1_555
C44_2 C43_2 1_555 1_555
H32_2 C44_2 1_555 1_555
C45_2 C44_2 1_555 1_555
C46_2 C45_2 1_555 1_555
H33_2 C46_2 1_555 1_555
C47_2 C46_2 1_555 1_555
C48_2 C43_2 1_555 1_555
H34_2 C48_2 1_555 1_555
C49_2 C47_2 1_555 1_555
C50_2 C45_2 1_555 1_555
C51_2 C50_2 1_555 1_555
H35_2 C51_2 1_555 1_555
C52_2 C51_2 1_555 1_555
H36_2 C52_2 1_555 1_555
C53_2 C52_2 1_555 1_555
C54_2 C53_2 1_555 1_555
H37_2 C54_2 1_555 1_555
C55_2 C50_2 1_555 1_555
H38_2 C55_2 1_555 1_555
C56_2 C53_2 1_555 1_555
H41_2 C60_2 1_555 1_555
C61_2 C56_2 1_555 1_555
H42_2 C61_2 1_555 1_555
C63_2 C64_2 1_555 1_555
C64_2 C65_2 1_555 1_555
C65_2 H43_2 1_555 1_555
C66_2 C65_2 1_555 1_555
C67_2 C66_2 1_555 1_555
H44_2 C67_2 1_555 1_555
C68_2 C67_2 1_555 1_555
C69_2 C64_2 1_555 1_555
H45_2 C69_2 1_555 1_555
C70_2 C66_2 1_555 1_555
C71_2 C68_2 1_555 1_555
C72_2 C71_2 1_555 1_555
H46_2 C72_2 1_555 1_555
C73_2 C72_2 1_555 1_555
H47_2 C73_2 1_555 1_555
C74_2 C73_2 1_555 1_555
C75_2 C74_2 1_555 1_555
H48_2 C75_2 1_555 1_555
C76_2 C71_2 1_555 1_555
H49_2 C76_2 1_555 1_555
C77_2 C74_2 1_555 1_555
C78_2 C77_2 1_555 1_555
H50_2 C78_2 1_555 1_555
C79_2 C78_2 1_555 1_555
H51_2 C79_2 1_555 1_555
C80_2 C79_2 1_555 1_555
C81_2 C80_2 1_555 1_555
H52_2 C81_2 1_555 1_555
C82_2 C77_2 1_555 1_555
H53_2 C82_2 1_555 1_555
C83_2 O31_2 1_555 1_555
H57_2 O1_2 1_555 1_555
O33_2 Cu14 1_555 1_555
H61_2 O33_2 1_555 1_555
H62_2 O33_2 1_555 1_555
O37_2 Cu2_2 1_555 1_555
O39_2 Cu14 1_555 1_555
O40_2 Cu16 1_555 1_555
O43_2 Cu14 1_555 1_555
O44_2 Cu16 1_555 1_555
O45_2 C112_2 1_555 1_555
O46_2 C112_2 1_555 1_555
O49_2 Cu1_2 1_555 1_555
O50_2 Cu2_2 1_555 1_555
O51_2 C133_2 1_555 1_555
O52_2 C133_2 1_555 1_555
O76 C147_2 1_555 1_555
O78 C147_2 1_555 1_555
O80 C154_2 1_555 1_555
O82 C154_2 1_555 1_555
O59_2 Cu14 1_555 1_555
O60_2 Cu16 1_555 1_555
C85_2 O37_2 1_555 1_555
H69_2 C87_2 1_555 1_555
C92_2 O39_2 1_555 1_555
C105_2 O43_2 1_555 1_555
C106_2 C105_2 1_555 1_555
C107_2 C106_2 1_555 1_555
H79_2 C107_2 1_555 1_555
C108_2 C107_2 1_555 1_555
C109_2 C108_2 1_555 1_555
H80_2 C109_2 1_555 1_555
C110_2 C109_2 1_555 1_555
C111_2 C106_2 1_555 1_555
H81_2 C111_2 1_555 1_555
C112_2 C108_2 1_555 1_555
C113_2 C110_2 1_555 1_555
C114_2 C113_2 1_555 1_555
H82_2 C114_2 1_555 1_555
C115_2 C114_2 1_555 1_555
H83_2 C115_2 1_555 1_555
C116_2 C115_2 1_555 1_555
C117_2 C116_2 1_555 1_555
H84_2 C117_2 1_555 1_555
C118_2 C113_2 1_555 1_555
H85_2 C118_2 1_555 1_555
C126_2 O49_2 1_555 1_555
C127_2 C126_2 1_555 1_555
C128_2 C127_2 1_555 1_555
H90_2 C128_2 1_555 1_555
C129_2 C128_2 1_555 1_555
C130_2 C129_2 1_555 1_555
H91_2 C130_2 1_555 1_555
C131_2 C130_2 1_555 1_555
C132_2 C127_2 1_555 1_555
H92_2 C132_2 1_555 1_555
C133_2 C131_2 1_555 1_555
C134_2 C129_2 1_555 1_555
C135_2 C134_2 1_555 1_555
H93_2 C135_2 1_555 1_555
C136_2 C135_2 1_555 1_555
H94_2 C136_2 1_555 1_555
C137_2 C136_2 1_555 1_555
C138_2 C137_2 1_555 1_555
H95_2 C138_2 1_555 1_555
C139_2 C134_2 1_555 1_555
H96_2 C139_2 1_555 1_555
C140_2 C137_2 1_555 1_555
H99_2 C144_2 1_555 1_555
C145_2 C140_2 1_555 1_555
H100_2 C145_2 1_555 1_555
C147_2 C148_2 1_555 1_555
C148_2 C149_2 1_555 1_555
C149_2 H101_2 1_555 1_555
C150_2 C149_2 1_555 1_555
C151_2 C150_2 1_555 1_555
H102_2 C151_2 1_555 1_555
C152_2 C151_2 1_555 1_555
C153_2 C148_2 1_555 1_555
H103_2 C153_2 1_555 1_555
C154_2 C150_2 1_555 1_555
C155_2 C152_2 1_555 1_555
C156_2 C155_2 1_555 1_555
H104_2 C156_2 1_555 1_555
C157_2 C156_2 1_555 1_555
H105_2 C157_2 1_555 1_555
C158_2 C157_2 1_555 1_555
C159_2 C158_2 1_555 1_555
H106_2 C159_2 1_555 1_555
C160_2 C155_2 1_555 1_555
H107_2 C160_2 1_555 1_555
C161_2 C158_2 1_555 1_555
C162_2 C161_2 1_555 1_555
H108_2 C162_2 1_555 1_555
C163_2 C162_2 1_555 1_555
H109_2 C163_2 1_555 1_555
C164_2 C163_2 1_555 1_555
C165_2 C164_2 1_555 1_555
H110_2 C165_2 1_555 1_555
C166_2 C161_2 1_555 1_555
H111_2 C166_2 1_555 1_555
C167_2 O59_2 1_555 1_555
Cu19_2 O45_2 1_555 1_555
Cu20_2 O17_2 1_555 1_555
Cu23_2 O46_2 1_555 1_555
Cu24_2 O18_2 1_555 1_555
O12_2 C8_2 1_555 1_555
O16_2 C21_2 1_555 1_555
O22_2 C42_2 1_555 1_555
O23_2 Cu20_2 1_555 1_555
O24_2 Cu24_2 1_555 1_555
O32_2 C83_2 1_555 1_555
C26_2 C27_2 1_555 1_555
C33_2 C34_2 1_555 1_555
C47_2 C48_2 1_555 1_555
C54_2 C55_2 1_555 1_555
C60_2 C61_2 1_555 1_555
C68_2 C69_2 1_555 1_555
C75_2 C76_2 1_555 1_555
C80_2 C83_2 1_555 1_555
C81_2 C82_2 1_555 1_555
O40_2 C92_2 1_555 1_555
O44_2 C105_2 1_555 1_555
O50_2 C126_2 1_555 1_555
O51_2 Cu19_2 1_555 1_555
O52_2 Cu23_2 1_555 1_555
O60_2 C167_2 1_555 1_555
C110_2 C111_2 1_555 1_555
C117_2 C118_2 1_555 1_555
C131_2 C132_2 1_555 1_555
C138_2 C139_2 1_555 1_555
C144_2 C145_2 1_555 1_555
C152_2 C153_2 1_555 1_555
C159_2 C160_2 1_555 1_555
C164_2 C167_2 1_555 1_555
C165_2 C166_2 1_555 1_555
Cu19_2 Cu23_2 1_555 1_555
Cu20_2 Cu24_2 1_555 1_555
Cu30_2 O8_4 1_555 1_555
O7_4 Cu27_2 1_555 1_555
O8_4 H56_2 1_555 1_555
H55_2 O7_4 1_555 1_555
Cu1_3 Cu2_3 1_555 1_555
Cu2_3 O1_3 1_555 1_555
Cu23 O6_3 1_555 1_555
Cu7_3 Cu8_3 1_555 1_555
Cu8_3 O8_5 1_555 1_555
O1_3 H1_3 1_555 1_555
O2_3 Cu1_3 1_555 1_555
H2_3 O2_3 1_555 1_555
H6_3 O4_3 1_555 1_555
O5_3 Cu19 1_555 1_555
H7_3 O5_3 1_555 1_555
H8_3 O5_3 1_555 1_555
O6_3 H9_3 1_555 1_555
H10_3 O6_3 1_555 1_555
O7_5 Cu7_3 1_555 1_555
O8_5 H56_3 1_555 1_555
O9_3 Cu2_3 1_555 1_555
O10_3 Cu1_3 1_555 1_555
O13_3 Cu23 1_555 1_555
O14_3 Cu19 1_555 1_555
O61 C28_3 1_555 1_555
O63 C28_3 1_555 1_555
O19_3 Cu8_3 1_555 1_555
O20_3 Cu7_3 1_555 1_555
O21_3 Cu1_3 1_555 1_555
O22_3 Cu2_3 1_555 1_555
O67 C49_3 1_555 1_555
O69 C49_3 1_555 1_555
O25_2 C62_3 1_555 1_555
O26_2 C62_3 1_555 1_555
C1_3 O9_3 1_555 1_555
C2_3 C1_3 1_555 1_555
C3_3 C2_3 1_555 1_555
H11_3 C3_3 1_555 1_555
C4_3 C3_3 1_555 1_555
C5_3 C4_3 1_555 1_555
H12_3 C5_3 1_555 1_555
C6_3 C5_3 1_555 1_555
C7_3 C2_3 1_555 1_555
H13_3 C7_3 1_555 1_555
C8_3 O11_3 1_555 1_555
C9_3 C6_3 1_555 1_555
C10_3 C9_3 1_555 1_555
H14_3 C10_3 1_555 1_555
C11_3 C10_3 1_555 1_555
H15_3 C11_3 1_555 1_555
C12_3 C11_3 1_555 1_555
C13_3 C12_3 1_555 1_555
H16_3 C13_3 1_555 1_555
C14_3 C9_3 1_555 1_555
H17_3 C14_3 1_555 1_555
C15_3 C12_3 1_555 1_555
C16_3 C15_3 1_555 1_555
H18_3 C16_3 1_555 1_555
C17_3 C18_3 1_555 1_555
C18_3 H19_3 1_555 1_555
C19_3 C15_3 1_555 1_555
H20_3 C19_3 1_555 1_555
C20_3 O13_3 1_555 1_555
C21_3 O15_3 1_555 1_555
C22_3 C21_3 1_555 1_555
C23_3 C22_3 1_555 1_555
H21_3 C23_3 1_555 1_555
C24_3 C23_3 1_555 1_555
C25_3 C24_3 1_555 1_555
H22_3 C25_3 1_555 1_555
C26_3 C25_3 1_555 1_555
C27_3 C22_3 1_555 1_555
H23_3 C27_3 1_555 1_555
C28_3 C24_3 1_555 1_555
C29_3 C26_3 1_555 1_555
C30_3 C29_3 1_555 1_555
H24_3 C30_3 1_555 1_555
C31_3 C30_3 1_555 1_555
H25_3 C31_3 1_555 1_555
C32_3 C31_3 1_555 1_555
C33_3 C32_3 1_555 1_555
H26_3 C33_3 1_555 1_555
C34_3 C29_3 1_555 1_555
H27_3 C34_3 1_555 1_555
C35_3 C32_3 1_555 1_555
C36_3 C35_3 1_555 1_555
H28_3 C36_3 1_555 1_555
C37_3 C36_3 1_555 1_555
H29_3 C37_3 1_555 1_555
C38_3 C37_3 1_555 1_555
C39_3 C38_3 1_555 1_555
H30_3 C39_3 1_555 1_555
C40_3 C35_3 1_555 1_555
H31_3 C40_3 1_555 1_555
C41_3 O19_3 1_555 1_555
C42_3 O21_3 1_555 1_555
C43_3 C42_3 1_555 1_555
C44_3 C43_3 1_555 1_555
H32_3 C44_3 1_555 1_555
C45_3 C44_3 1_555 1_555
C46_3 C45_3 1_555 1_555
H33_3 C46_3 1_555 1_555
C47_3 C46_3 1_555 1_555
C48_3 C43_3 1_555 1_555
H34_3 C48_3 1_555 1_555
C49_3 C47_3 1_555 1_555
C50_3 C45_3 1_555 1_555
C51_3 C50_3 1_555 1_555
H35_3 C51_3 1_555 1_555
C52_3 C51_3 1_555 1_555
H36_3 C52_3 1_555 1_555
C53_3 C52_3 1_555 1_555
C54_3 C53_3 1_555 1_555
H37_3 C54_3 1_555 1_555
C55_3 C50_3 1_555 1_555
H38_3 C55_3 1_555 1_555
C56_3 C53_3 1_555 1_555
C57_3 C56_3 1_555 1_555
H39_3 C57_3 1_555 1_555
C58_3 C57_3 1_555 1_555
H40_3 C58_3 1_555 1_555
C59_3 C58_3 1_555 1_555
C60_3 C59_3 1_555 1_555
H41_3 C60_3 1_555 1_555
C61_3 C56_3 1_555 1_555
H42_3 C61_3 1_555 1_555
C62_3 C59_3 1_555 1_555
C84_3 C16_3 1_555 1_555
H54_3 C84_3 1_555 1_555
H55_3 O7_5 1_555 1_555
H59_3 O7_5 1_555 1_555
H60_3 O8_5 1_555 1_555
Cu14_2 O26_2 1_555 1_555
Cu16_2 O25_2 1_555 1_555
O65_2 Cu8_3 1_555 1_555
O66_2 Cu7_3 1_555 1_555
O76_2 Cu23 1_555 1_555
O78_2 Cu19 1_555 1_555
O79_2 Cu7_3 1_555 1_555
O80_2 Cu7_3 1_555 1_555
O81_2 Cu8_3 1_555 1_555
O82_2 Cu8_3 1_555 1_555
O10_3 C1_3 1_555 1_555
O12_3 C8_3 1_555 1_555
O14_3 C20_3 1_555 1_555
O16_3 C21_3 1_555 1_555
O20_3 C41_3 1_555 1_555
O22_3 C42_3 1_555 1_555
C4_3 C8_3 1_555 1_555
C6_3 C7_3 1_555 1_555
C13_3 C14_3 1_555 1_555
C17_3 C20_3 1_555 1_555
C17_3 C84_3 1_555 1_555
C18_3 C19_3 1_555 1_555
C26_3 C27_3 1_555 1_555
C33_3 C34_3 1_555 1_555
C38_3 C41_3 1_555 1_555
C39_3 C40_3 1_555 1_555
C47_3 C48_3 1_555 1_555
C54_3 C55_3 1_555 1_555
C60_3 C61_3 1_555 1_555
Cu14_2 Cu16_2 1_555 1_555
Cu3_2 Cu4_2 1_555 1_555
O3_3 Cu3_2 1_555 1_555
H3_3 O3_3 1_555 1_555
H4_3 O3_3 1_555 1_555
O27_2 C63_3 1_555 1_555
O28_2 C63_3 1_555 1_555
O29_2 C70_3 1_555 1_555
O30_2 C70_3 1_555 1_555
O31_3 Cu3_2 1_555 1_555
O32_3 Cu4_2 1_555 1_555
C63_3 C64_3 1_555 1_555
C64_3 C65_3 1_555 1_555
C65_3 H43_3 1_555 1_555
C66_3 C65_3 1_555 1_555
C67_3 C66_3 1_555 1_555
H44_3 C67_3 1_555 1_555
C68_3 C67_3 1_555 1_555
C69_3 C64_3 1_555 1_555
H45_3 C69_3 1_555 1_555
C70_3 C66_3 1_555 1_555
C71_3 C68_3 1_555 1_555
C72_3 C71_3 1_555 1_555
H46_3 C72_3 1_555 1_555
C73_3 C72_3 1_555 1_555
H47_3 C73_3 1_555 1_555
C74_3 C73_3 1_555 1_555
C75_3 C74_3 1_555 1_555
H48_3 C75_3 1_555 1_555
C76_3 C71_3 1_555 1_555
H49_3 C76_3 1_555 1_555
C77_3 C74_3 1_555 1_555
C78_3 C77_3 1_555 1_555
H50_3 C78_3 1_555 1_555
C79_3 C78_3 1_555 1_555
H51_3 C79_3 1_555 1_555
C80_3 C79_3 1_555 1_555
C81_3 C80_3 1_555 1_555
H52_3 C81_3 1_555 1_555
C82_3 C77_3 1_555 1_555
H53_3 C82_3 1_555 1_555
C83_3 O31_3 1_555 1_555
Cu20_2 O28_2 1_555 1_555
Cu24_2 O27_2 1_555 1_555
Cu27_3 O29_2 1_555 1_555
Cu30_3 O30_2 1_555 1_555
O72_2 Cu4_2 1_555 1_555
O74_2 Cu3_2 1_555 1_555
O32_3 C83_3 1_555 1_555
C68_3 C69_3 1_555 1_555
C75_3 C76_3 1_555 1_555
C80_3 C83_3 1_555 1_555
C81_3 C82_3 1_555 1_555
Cu27_3 Cu30_3 1_555 1_555
Cu1_4 Cu2_4 1_555 1_555
Cu2_4 O1_4 1_555 1_555
O2_4 Cu1_4 1_555 1_555
H57_3 O1_4 1_555 1_555
H58_3 O2_4 1_555 1_555
Cu24 O36_3 1_555 1_555
H64_3 O34_3 1_555 1_555
O35_3 Cu20 1_555 1_555
H65_3 O35_3 1_555 1_555
H66_3 O35_3 1_555 1_555
O36_3 H67_3 1_555 1_555
H68_3 O36_3 1_555 1_555
O37_3 Cu2_4 1_555 1_555
O38_3 Cu1_4 1_555 1_555
O41_3 Cu24 1_555 1_555
O42_3 Cu20 1_555 1_555
O62 C112_3 1_555 1_555
O64 C112_3 1_555 1_555
O65_2 C125_3 1_555 1_555
O66_2 C125_3 1_555 1_555
O49_3 Cu1_4 1_555 1_555
O50_3 Cu2_4 1_555 1_555
O68 C133_3 1_555 1_555
O70 C133_3 1_555 1_555
O53_2 C146_3 1_555 1_555
O54_2 C146_3 1_555 1_555
C85_3 O37_3 1_555 1_555
C86_3 C85_3 1_555 1_555
C87_3 C86_3 1_555 1_555
H69_3 C87_3 1_555 1_555
C88_3 C87_3 1_555 1_555
C89_3 C88_3 1_555 1_555
H70_3 C89_3 1_555 1_555
C90_3 C89_3 1_555 1_555
C91_3 C86_3 1_555 1_555
H71_3 C91_3 1_555 1_555
C92_3 O39_3 1_555 1_555
C93_3 C90_3 1_555 1_555
C94_3 C93_3 1_555 1_555
H72_3 C94_3 1_555 1_555
C95_3 C94_3 1_555 1_555
H73_3 C95_3 1_555 1_555
C96_3 C95_3 1_555 1_555
C97_3 C96_3 1_555 1_555
H74_3 C97_3 1_555 1_555
C98_3 C93_3 1_555 1_555
H75_3 C98_3 1_555 1_555
C99_3 C96_3 1_555 1_555
C100_3 C99_3 1_555 1_555
H76_3 C100_3 1_555 1_555
C101_3 C102_3 1_555 1_555
C102_3 H77_3 1_555 1_555
C103_3 C99_3 1_555 1_555
H78_3 C103_3 1_555 1_555
C104_3 O41_3 1_555 1_555
C105_3 O43_3 1_555 1_555
C106_3 C105_3 1_555 1_555
C107_3 C106_3 1_555 1_555
H79_3 C107_3 1_555 1_555
C108_3 C107_3 1_555 1_555
C109_3 C108_3 1_555 1_555
H80_3 C109_3 1_555 1_555
C110_3 C109_3 1_555 1_555
C111_3 C106_3 1_555 1_555
H81_3 C111_3 1_555 1_555
C112_3 C108_3 1_555 1_555
C113_3 C110_3 1_555 1_555
C114_3 C113_3 1_555 1_555
H82_3 C114_3 1_555 1_555
C115_3 C114_3 1_555 1_555
H83_3 C115_3 1_555 1_555
C116_3 C115_3 1_555 1_555
C117_3 C116_3 1_555 1_555
H84_3 C117_3 1_555 1_555
C118_3 C113_3 1_555 1_555
H85_3 C118_3 1_555 1_555
C119_3 C116_3 1_555 1_555
C120_3 C119_3 1_555 1_555
H86_3 C120_3 1_555 1_555
C121_3 C120_3 1_555 1_555
H87_3 C121_3 1_555 1_555
C122_3 C121_3 1_555 1_555
C123_3 C122_3 1_555 1_555
H88_3 C123_3 1_555 1_555
C124_3 C119_3 1_555 1_555
H89_3 C124_3 1_555 1_555
C125_3 C122_3 1_555 1_555
C126_3 O49_3 1_555 1_555
C127_3 C126_3 1_555 1_555
C128_3 C127_3 1_555 1_555
H90_3 C128_3 1_555 1_555
C129_3 C128_3 1_555 1_555
C130_3 C129_3 1_555 1_555
H91_3 C130_3 1_555 1_555
C131_3 C130_3 1_555 1_555
C132_3 C127_3 1_555 1_555
H92_3 C132_3 1_555 1_555
C133_3 C131_3 1_555 1_555
C134_3 C129_3 1_555 1_555
C135_3 C134_3 1_555 1_555
H93_3 C135_3 1_555 1_555
C136_3 C135_3 1_555 1_555
H94_3 C136_3 1_555 1_555
C137_3 C136_3 1_555 1_555
C138_3 C137_3 1_555 1_555
H95_3 C138_3 1_555 1_555
C139_3 C134_3 1_555 1_555
H96_3 C139_3 1_555 1_555
C140_3 C137_3 1_555 1_555
C141_3 C140_3 1_555 1_555
H97_3 C141_3 1_555 1_555
C142_3 C141_3 1_555 1_555
H98_3 C142_3 1_555 1_555
C143_3 C142_3 1_555 1_555
C144_3 C143_3 1_555 1_555
H99_3 C144_3 1_555 1_555
C145_3 C140_3 1_555 1_555
H100_3 C145_3 1_555 1_555
C146_3 C143_3 1_555 1_555
C168_3 C100_3 1_555 1_555
H112_3 C168_3 1_555 1_555
Cu13_2 O54_2 1_555 1_555
Cu15_2 O53_2 1_555 1_555
O75_2 Cu24 1_555 1_555
O77_2 Cu20 1_555 1_555
O38_3 C85_3 1_555 1_555
O40_3 C92_3 1_555 1_555
O42_3 C104_3 1_555 1_555
O44_3 C105_3 1_555 1_555
O50_3 C126_3 1_555 1_555
C88_3 C92_3 1_555 1_555
C90_3 C91_3 1_555 1_555
C97_3 C98_3 1_555 1_555
C101_3 C104_3 1_555 1_555
C101_3 C168_3 1_555 1_555
C102_3 C103_3 1_555 1_555
C110_3 C111_3 1_555 1_555
C117_3 C118_3 1_555 1_555
C123_3 C124_3 1_555 1_555
C131_3 C132_3 1_555 1_555
C138_3 C139_3 1_555 1_555
C144_3 C145_3 1_555 1_555
Cu13_2 Cu15_2 1_555 1_555
Cu9_2 Cu10_2 1_555 1_555
O33_3 Cu9_2 1_555 1_555
H61_3 O33_3 1_555 1_555
H62_3 O33_3 1_555 1_555
O55_2 C147_3 1_555 1_555
O56_2 C147_3 1_555 1_555
O57_2 C154_3 1_555 1_555
O58_2 C154_3 1_555 1_555
O59_3 Cu9_2 1_555 1_555
O60_3 Cu10_2 1_555 1_555
C147_3 C148_3 1_555 1_555
C148_3 C149_3 1_555 1_555
C149_3 H101_3 1_555 1_555
C150_3 C149_3 1_555 1_555
C151_3 C150_3 1_555 1_555
H102_3 C151_3 1_555 1_555
C152_3 C151_3 1_555 1_555
C153_3 C148_3 1_555 1_555
H103_3 C153_3 1_555 1_555
C154_3 C150_3 1_555 1_555
C155_3 C152_3 1_555 1_555
C156_3 C155_3 1_555 1_555
H104_3 C156_3 1_555 1_555
C157_3 C156_3 1_555 1_555
H105_3 C157_3 1_555 1_555
C158_3 C157_3 1_555 1_555
C159_3 C158_3 1_555 1_555
H106_3 C159_3 1_555 1_555
C160_3 C155_3 1_555 1_555
H107_3 C160_3 1_555 1_555
C161_3 C158_3 1_555 1_555
C162_3 C161_3 1_555 1_555
H108_3 C162_3 1_555 1_555
C163_3 C162_3 1_555 1_555
H109_3 C163_3 1_555 1_555
C164_3 C163_3 1_555 1_555
C165_3 C164_3 1_555 1_555
H110_3 C165_3 1_555 1_555
C166_3 C161_3 1_555 1_555
H111_3 C166_3 1_555 1_555
C167_3 O59_3 1_555 1_555
Cu19_2 O56_2 1_555 1_555
Cu23_2 O55_2 1_555 1_555
Cu27_3 O57_2 1_555 1_555
Cu30_3 O58_2 1_555 1_555
O71_2 Cu10_2 1_555 1_555
O73_2 Cu9_2 1_555 1_555
O60_3 C167_3 1_555 1_555
C152_3 C153_3 1_555 1_555
C159_3 C160_3 1_555 1_555
C164_3 C167_3 1_555 1_555
C165_3 C166_3 1_555 1_555
Cu1_5 Cu2_5 1_555 1_555
Cu2_5 O1_5 1_555 1_555
O2_5 Cu1_5 1_555 1_555
H57_4 O1_5 1_555 1_555
H58_4 O2_5 1_555 1_555
Cu16_2 O34_4 1_555 1_555
Cu24_2 O36_4 1_555 1_555
O33_4 Cu14_2 1_555 1_555
H61_4 O33_4 1_555 1_555
H62_4 O33_4 1_555 1_555
O34_4 H63_3 1_555 1_555
H64_4 O34_4 1_555 1_555
O35_4 Cu20_2 1_555 1_555
H65_4 O35_4 1_555 1_555
H66_4 O35_4 1_555 1_555
O36_4 H67_4 1_555 1_555
H68_4 O36_4 1_555 1_555
O37_4 Cu2_5 1_555 1_555
O38_4 Cu1_5 1_555 1_555
O39_4 Cu14_2 1_555 1_555
O40_4 Cu16_2 1_555 1_555
O41_4 Cu24_2 1_555 1_555
O42_4 Cu20_2 1_555 1_555
O43_4 Cu14_2 1_555 1_555
O44_4 Cu16_2 1_555 1_555
O62_2 C112_4 1_555 1_555
O64_2 C112_4 1_555 1_555
O47_2 C125_4 1_555 1_555
O48_2 C125_4 1_555 1_555
O49_4 Cu1_5 1_555 1_555
O50_4 Cu2_5 1_555 1_555
O68_2 C133_4 1_555 1_555
O70_2 C133_4 1_555 1_555
O72_2 C146_4 1_555 1_555
O74_2 C146_4 1_555 1_555
O76_2 C147_4 1_555 1_555
O78_2 C147_4 1_555 1_555
O80_2 C154_4 1_555 1_555
O82_2 C154_4 1_555 1_555
O59_4 Cu14_2 1_555 1_555
O60_4 Cu16_2 1_555 1_555
C85_4 O37_4 1_555 1_555
C86_4 C85_4 1_555 1_555
C87_4 C86_4 1_555 1_555
H69_4 C87_4 1_555 1_555
C88_4 C87_4 1_555 1_555
C89_4 C88_4 1_555 1_555
H70_4 C89_4 1_555 1_555
C90_4 C89_4 1_555 1_555
C91_4 C86_4 1_555 1_555
H71_4 C91_4 1_555 1_555
C92_4 O39_4 1_555 1_555
C93_4 C90_4 1_555 1_555
C94_4 C93_4 1_555 1_555
H72_4 C94_4 1_555 1_555
C95_4 C94_4 1_555 1_555
H73_4 C95_4 1_555 1_555
C96_4 C95_4 1_555 1_555
C97_4 C96_4 1_555 1_555
H74_4 C97_4 1_555 1_555
C98_4 C93_4 1_555 1_555
H75_4 C98_4 1_555 1_555
C99_4 C96_4 1_555 1_555
C100_4 C99_4 1_555 1_555
H76_4 C100_4 1_555 1_555
C101_4 C102_4 1_555 1_555
C102_4 H77_4 1_555 1_555
C103_4 C99_4 1_555 1_555
H78_4 C103_4 1_555 1_555
C104_4 O41_4 1_555 1_555
C105_4 O43_4 1_555 1_555
C106_4 C105_4 1_555 1_555
C107_4 C106_4 1_555 1_555
H79_4 C107_4 1_555 1_555
C108_4 C107_4 1_555 1_555
C109_4 C108_4 1_555 1_555
H80_4 C109_4 1_555 1_555
C110_4 C109_4 1_555 1_555
C111_4 C106_4 1_555 1_555
H81_4 C111_4 1_555 1_555
C112_4 C108_4 1_555 1_555
C113_4 C110_4 1_555 1_555
C114_4 C113_4 1_555 1_555
H82_4 C114_4 1_555 1_555
C115_4 C114_4 1_555 1_555
H83_4 C115_4 1_555 1_555
C116_4 C115_4 1_555 1_555
C117_4 C116_4 1_555 1_555
H84_4 C117_4 1_555 1_555
C118_4 C113_4 1_555 1_555
H85_4 C118_4 1_555 1_555
C119_4 C116_4 1_555 1_555
C120_4 C119_4 1_555 1_555
H86_4 C120_4 1_555 1_555
C121_4 C120_4 1_555 1_555
H87_4 C121_4 1_555 1_555
C122_4 C121_4 1_555 1_555
C123_4 C122_4 1_555 1_555
H88_4 C123_4 1_555 1_555
C124_4 C119_4 1_555 1_555
H89_4 C124_4 1_555 1_555
C125_4 C122_4 1_555 1_555
C126_4 O49_4 1_555 1_555
C127_4 C126_4 1_555 1_555
C128_4 C127_4 1_555 1_555
H90_4 C128_4 1_555 1_555
C129_4 C128_4 1_555 1_555
C130_4 C129_4 1_555 1_555
H91_4 C130_4 1_555 1_555
C131_4 C130_4 1_555 1_555
C132_4 C127_4 1_555 1_555
H92_4 C132_4 1_555 1_555
C133_4 C131_4 1_555 1_555
C134_4 C129_4 1_555 1_555
C135_4 C134_4 1_555 1_555
H93_4 C135_4 1_555 1_555
C136_4 C135_4 1_555 1_555
H94_4 C136_4 1_555 1_555
C137_4 C136_4 1_555 1_555
C138_4 C137_4 1_555 1_555
H95_4 C138_4 1_555 1_555
C139_4 C134_4 1_555 1_555
H96_4 C139_4 1_555 1_555
C140_4 C137_4 1_555 1_555
C141_4 C140_4 1_555 1_555
H97_4 C141_4 1_555 1_555
C142_4 C141_4 1_555 1_555
H98_4 C142_4 1_555 1_555
C143_4 C142_4 1_555 1_555
C144_4 C143_4 1_555 1_555
H99_4 C144_4 1_555 1_555
C145_4 C140_4 1_555 1_555
H100_4 C145_4 1_555 1_555
C146_4 C143_4 1_555 1_555
C147_4 C148_4 1_555 1_555
C148_4 C149_4 1_555 1_555
C149_4 H101_4 1_555 1_555
C150_4 C149_4 1_555 1_555
C151_4 C150_4 1_555 1_555
H102_4 C151_4 1_555 1_555
C152_4 C151_4 1_555 1_555
C153_4 C148_4 1_555 1_555
H103_4 C153_4 1_555 1_555
C154_4 C150_4 1_555 1_555
C155_4 C152_4 1_555 1_555
C156_4 C155_4 1_555 1_555
H104_4 C156_4 1_555 1_555
C157_4 C156_4 1_555 1_555
H105_4 C157_4 1_555 1_555
C158_4 C157_4 1_555 1_555
C159_4 C158_4 1_555 1_555
H106_4 C159_4 1_555 1_555
C160_4 C155_4 1_555 1_555
H107_4 C160_4 1_555 1_555
C161_4 C158_4 1_555 1_555
C162_4 C161_4 1_555 1_555
H108_4 C162_4 1_555 1_555
C163_4 C162_4 1_555 1_555
H109_4 C163_4 1_555 1_555
C164_4 C163_4 1_555 1_555
C165_4 C164_4 1_555 1_555
H110_4 C165_4 1_555 1_555
C166_4 C161_4 1_555 1_555
H111_4 C166_4 1_555 1_555
C167_4 O59_4 1_555 1_555
C168_4 C100_4 1_555 1_555
H112_4 C168_4 1_555 1_555
Cu27_3 O48_2 1_555 1_555
Cu30_3 O47_2 1_555 1_555
O38_4 C85_4 1_555 1_555
O40_4 C92_4 1_555 1_555
O42_4 C104_4 1_555 1_555
O44_4 C105_4 1_555 1_555
O50_4 C126_4 1_555 1_555
O60_4 C167_4 1_555 1_555
C88_4 C92_4 1_555 1_555
C90_4 C91_4 1_555 1_555
C97_4 C98_4 1_555 1_555
C101_4 C104_4 1_555 1_555
C101_4 C168_4 1_555 1_555
C102_4 C103_4 1_555 1_555
C110_4 C111_4 1_555 1_555
C117_4 C118_4 1_555 1_555
C123_4 C124_4 1_555 1_555
C131_4 C132_4 1_555 1_555
C138_4 C139_4 1_555 1_555
C144_4 C145_4 1_555 1_555
C152_4 C153_4 1_555 1_555
C159_4 C160_4 1_555 1_555
C164_4 C167_4 1_555 1_555
C165_4 C166_4 1_555 1_555
Cu1_6 Cu2_6 1_555 1_555
Cu2_6 O1_6 1_555 1_555
Cu15_2 O4_4 1_555 1_555
Cu23_2 O6_4 1_555 1_555
Cu30_3 O8_6 1_555 1_555
O1_6 H1_4 1_555 1_555
O2_6 Cu1_6 1_555 1_555
H2_4 O2_6 1_555 1_555
O3_4 Cu13_2 1_555 1_555
H3_4 O3_4 1_555 1_555
H4_4 O3_4 1_555 1_555
O4_4 H5_3 1_555 1_555
H6_4 O4_4 1_555 1_555
O5_4 Cu19_2 1_555 1_555
H7_4 O5_4 1_555 1_555
H8_4 O5_4 1_555 1_555
O6_4 H9_4 1_555 1_555
H10_4 O6_4 1_555 1_555
O7_6 Cu27_3 1_555 1_555
O8_6 H56_4 1_555 1_555
O9_4 Cu2_6 1_555 1_555
O10_4 Cu1_6 1_555 1_555
O11_4 Cu13_2 1_555 1_555
O12_4 Cu15_2 1_555 1_555
O13_4 Cu23_2 1_555 1_555
O14_4 Cu19_2 1_555 1_555
O15_4 Cu13_2 1_555 1_555
O16_4 Cu15_2 1_555 1_555
O61_2 C28_4 1_555 1_555
O63_2 C28_4 1_555 1_555
O19_4 Cu30_3 1_555 1_555
O20_4 Cu27_3 1_555 1_555
O21_4 Cu1_6 1_555 1_555
O22_4 Cu2_6 1_555 1_555
O67_2 C49_4 1_555 1_555
O69_2 C49_4 1_555 1_555
O71_2 C62_4 1_555 1_555
O73_2 C62_4 1_555 1_555
O75_2 C63_4 1_555 1_555
O77_2 C63_4 1_555 1_555
O79_2 C70_4 1_555 1_555
O81_2 C70_4 1_555 1_555
O31_4 Cu13_2 1_555 1_555
O32_4 Cu15_2 1_555 1_555
C1_4 O9_4 1_555 1_555
C2_4 C1_4 1_555 1_555
C3_4 C2_4 1_555 1_555
H11_4 C3_4 1_555 1_555
C4_4 C3_4 1_555 1_555
C5_4 C4_4 1_555 1_555
H12_4 C5_4 1_555 1_555
C6_4 C5_4 1_555 1_555
C7_4 C2_4 1_555 1_555
H13_4 C7_4 1_555 1_555
C8_4 O11_4 1_555 1_555
C9_4 C6_4 1_555 1_555
C10_4 C9_4 1_555 1_555
H14_4 C10_4 1_555 1_555
C11_4 C10_4 1_555 1_555
H15_4 C11_4 1_555 1_555
C12_4 C11_4 1_555 1_555
C13_4 C12_4 1_555 1_555
H16_4 C13_4 1_555 1_555
C14_4 C9_4 1_555 1_555
H17_4 C14_4 1_555 1_555
C15_4 C12_4 1_555 1_555
C16_4 C15_4 1_555 1_555
H18_4 C16_4 1_555 1_555
C17_4 C18_4 1_555 1_555
C18_4 H19_4 1_555 1_555
C19_4 C15_4 1_555 1_555
H20_4 C19_4 1_555 1_555
C20_4 O13_4 1_555 1_555
C21_4 O15_4 1_555 1_555
C22_4 C21_4 1_555 1_555
C23_4 C22_4 1_555 1_555
H21_4 C23_4 1_555 1_555
C24_4 C23_4 1_555 1_555
C25_4 C24_4 1_555 1_555
H22_4 C25_4 1_555 1_555
C26_4 C25_4 1_555 1_555
C27_4 C22_4 1_555 1_555
H23_4 C27_4 1_555 1_555
C28_4 C24_4 1_555 1_555
C29_4 C26_4 1_555 1_555
C30_4 C29_4 1_555 1_555
H24_4 C30_4 1_555 1_555
C31_4 C30_4 1_555 1_555
H25_4 C31_4 1_555 1_555
C32_4 C31_4 1_555 1_555
C33_4 C32_4 1_555 1_555
H26_4 C33_4 1_555 1_555
C34_4 C29_4 1_555 1_555
H27_4 C34_4 1_555 1_555
C35_4 C32_4 1_555 1_555
C36_4 C35_4 1_555 1_555
H28_4 C36_4 1_555 1_555
C37_4 C36_4 1_555 1_555
H29_4 C37_4 1_555 1_555
C38_4 C37_4 1_555 1_555
C39_4 C38_4 1_555 1_555
H30_4 C39_4 1_555 1_555
C40_4 C35_4 1_555 1_555
H31_4 C40_4 1_555 1_555
C41_4 O19_4 1_555 1_555
C42_4 O21_4 1_555 1_555
C43_4 C42_4 1_555 1_555
C44_4 C43_4 1_555 1_555
H32_4 C44_4 1_555 1_555
C45_4 C44_4 1_555 1_555
C46_4 C45_4 1_555 1_555
H33_4 C46_4 1_555 1_555
C47_4 C46_4 1_555 1_555
C48_4 C43_4 1_555 1_555
H34_4 C48_4 1_555 1_555
C49_4 C47_4 1_555 1_555
C50_4 C45_4 1_555 1_555
C51_4 C50_4 1_555 1_555
H35_4 C51_4 1_555 1_555
C52_4 C51_4 1_555 1_555
H36_4 C52_4 1_555 1_555
C53_4 C52_4 1_555 1_555
C54_4 C53_4 1_555 1_555
H37_4 C54_4 1_555 1_555
C55_4 C50_4 1_555 1_555
H38_4 C55_4 1_555 1_555
C56_4 C53_4 1_555 1_555
C57_4 C56_4 1_555 1_555
H39_4 C57_4 1_555 1_555
C58_4 C57_4 1_555 1_555
H40_4 C58_4 1_555 1_555
C59_4 C58_4 1_555 1_555
C60_4 C59_4 1_555 1_555
H41_4 C60_4 1_555 1_555
C61_4 C56_4 1_555 1_555
H42_4 C61_4 1_555 1_555
C62_4 C59_4 1_555 1_555
C63_4 C64_4 1_555 1_555
C64_4 C65_4 1_555 1_555
C65_4 H43_4 1_555 1_555
C66_4 C65_4 1_555 1_555
C67_4 C66_4 1_555 1_555
H44_4 C67_4 1_555 1_555
C68_4 C67_4 1_555 1_555
C69_4 C64_4 1_555 1_555
H45_4 C69_4 1_555 1_555
C70_4 C66_4 1_555 1_555
C71_4 C68_4 1_555 1_555
C72_4 C71_4 1_555 1_555
H46_4 C72_4 1_555 1_555
C73_4 C72_4 1_555 1_555
H47_4 C73_4 1_555 1_555
C74_4 C73_4 1_555 1_555
C75_4 C74_4 1_555 1_555
H48_4 C75_4 1_555 1_555
C76_4 C71_4 1_555 1_555
H49_4 C76_4 1_555 1_555
C77_4 C74_4 1_555 1_555
C78_4 C77_4 1_555 1_555
H50_4 C78_4 1_555 1_555
C79_4 C78_4 1_555 1_555
H51_4 C79_4 1_555 1_555
C80_4 C79_4 1_555 1_555
C81_4 C80_4 1_555 1_555
H52_4 C81_4 1_555 1_555
C82_4 C77_4 1_555 1_555
H53_4 C82_4 1_555 1_555
C83_4 O31_4 1_555 1_555
C84_4 C16_4 1_555 1_555
H54_4 C84_4 1_555 1_555
H55_4 O7_6 1_555 1_555
H59_4 O7_6 1_555 1_555
H60_4 O8_6 1_555 1_555
O10_4 C1_4 1_555 1_555
O12_4 C8_4 1_555 1_555
O14_4 C20_4 1_555 1_555
O16_4 C21_4 1_555 1_555
O20_4 C41_4 1_555 1_555
O22_4 C42_4 1_555 1_555
O32_4 C83_4 1_555 1_555
C4_4 C8_4 1_555 1_555
C6_4 C7_4 1_555 1_555
C13_4 C14_4 1_555 1_555
C17_4 C20_4 1_555 1_555
C17_4 C84_4 1_555 1_555
C18_4 C19_4 1_555 1_555
C26_4 C27_4 1_555 1_555
C33_4 C34_4 1_555 1_555
C38_4 C41_4 1_555 1_555
C39_4 C40_4 1_555 1_555
C47_4 C48_4 1_555 1_555
C54_4 C55_4 1_555 1_555
C60_4 C61_4 1_555 1_555
C68_4 C69_4 1_555 1_555
C75_4 C76_4 1_555 1_555
C80_4 C83_4 1_555 1_555
C81_4 C82_4 1_555 1_555

#END
