
###############################################################################
#
# This file contains modified crystal structure data generated from the
# MOF subset of the Cambridge Structural Database (CSD) v543 
# hosted by the Cambridge Crystallographic Data Centre (CCDC).
#
# This work is licensed under the Creative Commons
# Attribution-NonCommercial-ShareAlike 4.0 International License.
# To view a copy of this license, visit
# http://creativecommons.org/licenses/by-nc-sa/4.0/
# or send a letter to
# Creative Commons, PO Box 1866, Mountain View, CA 94042, USA.
#
# CIF created using the CSD Python API on 29 September 2022
# The structure has been converted into the P1 space group
# The structure has a 3D framework
# The original CSD entry IQABEJ is in the triclinic crystal system
# The framework has been calculated to contain at least 10.0% void space
# The void calculation uses a probe of radius 1.32A, grid spacing 0.4
#
###############################################################################

data_IQABEJ
_chemical_formula_moiety         '(C40 H46 Co10 N12 O40 S4)n'
_symmetry_cell_setting           triclinic
_symmetry_space_group_name_H-M   'P 1'
_symmetry_Int_Tables_number      1
_space_group_name_Hall           'P 1'
loop_
_symmetry_equiv_pos_site_id
_symmetry_equiv_pos_as_xyz
1 x,y,z
_cell_length_a                   9.481(3)
_cell_length_b                   15.126(5)
_cell_length_c                   15.232(5)
_cell_angle_alpha                64.815(5)
_cell_angle_beta                 78.717(5)
_cell_angle_gamma                78.977(4)
_cell_volume                     1924.16
loop_
_atom_site_label
_atom_site_type_symbol
_atom_site_fract_x
_atom_site_fract_y
_atom_site_fract_z
Co1 Co 0.08969(12) 0.39744(8) 0.00843(8)
Co2 Co 0.59289(12) 0.00726(8) 0.39888(8)
Co4 Co 0.29800(13) 0.18547(9) 0.41906(8)
O1 O 0.0882(8) 0.2585(5) 0.0056(5)
O9 O 0.5948(7) 0.0037(5) 0.2621(5)
H5 H 0.2850 0.1749 0.0089
O21 O 0.3777(6) 0.0396(4) 0.4536(4)
H12 H 0.3108 0.0028 0.4450
O22 O 0.2398(8) 0.3266(5) 0.4268(5)
H13 H 0.1790 0.3613 0.3872
H14 H 0.3152 0.3554 0.4115
N1 N 0.1084(8) 0.3319(6) 0.1568(5)
N3 N 0.1729(8) 0.2391(6) 0.3041(5)
N4 N 0.4887(8) 0.2238(5) 0.3262(5)
N5 N 0.6068(8) 0.1559(5) 0.3321(5)
N6 N 0.6752(8) 0.3055(5) 0.2388(5)
C1 C 0.0314(9) 0.2717(7) 0.3097(6)
C2 C 0.2153(10) 0.2780(7) 0.2073(6)
H16 H 0.3099 0.2681 0.1789
C3 C 0.7163(10) 0.2075(7) 0.2790(6)
H17 H 0.8111 0.1789 0.2707
C4 C 0.5315(10) 0.3106(7) 0.2709(7)
H18 H 0.4697 0.3694 0.2555
C17 C 0.1016(11) 0.0159(7) 0.2740(7)
H23 H 0.0274 0.0595 0.2407
C18 C 0.2455(11) 0.0251(7) 0.2330(7)
H24 H 0.2661 0.0763 0.1725
Co10 Co 0.80015(13) 0.42110(9) 0.18581(8)
O27 O 0.4433(7) 0.1471(4) 0.5435(5)
O28 O 0.1073(7) 0.1460(5) 0.5125(5)
Co5 Co 0.24375(15) 0.09128(10) 0.90750(9)
O2 O 0.0337(7) 0.1534(5) 0.9534(5)
O3 O 0.0335(7) 0.3659(5) 0.7571(5)
O4 O 0.0551(7) 0.4547(5) 0.8526(5)
O17 O 0.3476(10) 0.1463(7) 0.9784(7)
H4 H 0.4025 0.1872 0.9360
O19 O 0.1363(11) 0.0358(7) 0.8389(7)
H9 H 0.1983 0.0134 0.8010
O20 O 0.2516(9) 0.2188(6) 0.7870(6)
H10 H 0.2401 0.2086 0.7382
H11 H 0.1842 0.2615 0.7953
C11 C 0.0033(10) 0.2260(6) 0.9735(6)
Co12 Co 0.19985(13) 0.57890(9) 0.81419(8)
O25 O 0.3137(7) 0.3573(5) 0.9878(5)
O26 O 0.4541(7) 0.0463(5) 0.8461(5)
O30 O 0.1225(6) 0.5459(4) 0.9592(4)
S2 S 0.4641(2) 0.79770(16) 0.43538(16)
O8 O 0.5459(7) 0.9537(5) 0.1539(5)
O10 O 0.5567(7) 0.8529(4) 0.4565(5)
O11 O 0.5414(8) 0.7554(5) 0.3679(5)
O12 O 0.3928(8) 0.7286(5) 0.5225(5)
O18 O 0.2049(14) 0.9600(7) 0.0282(8)
H6 H 0.2697 0.9441 0.0656
H7 H 0.2075 0.9149 0.0085
C13 C 0.3591(9) 0.9606(7) 0.2793(6)
C14 C 0.3255(10) 0.8873(7) 0.3726(6)
C15 C 0.1816(9) 0.8778(7) 0.4132(7)
H22 H 0.1603 0.8277 0.4742
C16 C 0.0695(10) 0.9413(7) 0.3647(6)
C19 C 0.5123(9) 0.9738(6) 0.2293(6)
Co9 Co 0.40711(12) 0.99274(8) 0.60112(8)
Co14 Co 0.70200(13) 0.81453(9) 0.58094(8)
Co15 Co 0.75625(15) 0.90872(10) 0.09250(9)
O29 O 0.8181(6) 0.9876(5) 0.3594(4)
O31 O 0.6223(6) 0.9604(4) 0.5464(4)
O15 O 0.8775(6) 0.4541(4) 0.0408(4)
H1 H 0.8092 0.4450 0.0055
O16 O 0.7406(8) 0.4291(5) 0.3248(5)
H2 H 0.8168 0.4262 0.3479
H3 H 0.6944 0.3811 0.3633
N2 N 0.9868(8) 0.3270(5) 0.2245(5)
H15 H 0.9703 0.2566 0.3686
C9 C 0.5961(11) 0.2727(7) 0.0194(7)
H20 H 0.5213 0.2402 0.0638
C10 C 0.7384(11) 0.2316(7) 0.0289(7)
H21 H 0.7581 0.1707 0.0796
O23 O 0.9449(7) 0.5453(5) 0.1474(5)
O24 O 0.6114(7) 0.5151(5) 0.1456(5)
S1 S 0.9595(2) 0.43360(16) 0.80013(16)
O5 O 0.8896(8) 0.5217(5) 0.7322(5)
O6 O 0.3886(7) 0.4849(5) 0.8544(5)
C5 C 0.8536(10) 0.2790(6) 0.9644(6)
C6 C 0.8221(10) 0.3703(6) 0.8906(6)
C7 C 0.6787(10) 0.4122(7) 0.8776(7)
H19 H 0.6589 0.4723 0.8258
C8 C 0.5657(10) 0.3632(7) 0.9429(7)
C12 C 0.4098(10) 0.4066(7) 0.9265(6)
Co7 Co 0.91031(12) 0.60256(8) 0.99157(8)
O13 O 0.8927(7) 0.8540(5) 0.4875(5)
C20 C 0.9143(10) 0.9264(7) 0.4079(7)
O14 O 0.1819(6) 0.0124(5) 0.6406(4)
C20_2 C 0.0857(10) 0.0736(7) 0.5921(7)
S1_2 S 0.0405(2) 0.56640(16) 0.19987(16)
O5_2 O 0.1104(8) 0.4783(5) 0.2678(5)
O7 O 0.6863(7) 0.6427(5) 0.0122(5)
C5_2 C 0.1464(10) 0.7210(6) 0.0356(6)
C6_2 C 0.1779(10) 0.6297(6) 0.1094(6)
C7_2 C 0.3213(10) 0.5878(7) 0.1224(7)
H19_2 H 0.3411 0.5277 0.1742
C8_2 C 0.4343(10) 0.6368(7) 0.0571(7)
C12_2 C 0.5902(10) 0.5934(7) 0.0735(6)
H1_2 H 0.1908 0.5550 0.9945
O16_2 O 0.2594(8) 0.5709(5) 0.6752(5)
H2_2 H 0.1832 0.5738 0.6521
H3_2 H 0.3056 0.6189 0.6367
N2_2 N 0.0132(8) 0.6730(5) 0.7755(5)
H15_2 H 0.0297 0.7434 0.6314
C9_2 C 0.4039(11) 0.7273(7) 0.9806(7)
H20_2 H 0.4787 0.7598 0.9362
C10_2 C 0.2616(11) 0.7684(7) 0.9711(7)
H21_2 H 0.2419 0.8293 0.9204
N7 N 0.3248(8) 0.6945(5) 0.7612(5)
S2_2 S 0.5359(2) 0.20230(16) 0.56462(16)
O11_2 O 0.4586(8) 0.2446(5) 0.6321(5)
O12_2 O 0.6072(8) 0.2714(5) 0.4775(5)
O18_2 O 0.7951(14) 0.0400(7) 0.9718(8)
H6_2 H 0.7303 0.0559 0.9344
H7_2 H 0.7925 0.0851 0.9915
C13_2 C 0.6409(9) 0.0394(7) 0.7207(6)
C14_2 C 0.6745(10) 0.1127(7) 0.6274(6)
C15_2 C 0.8184(9) 0.1222(7) 0.5868(7)
H22_2 H 0.8397 0.1723 0.5258
C16_2 C 0.9305(10) 0.0587(7) 0.6353(6)
C19_2 C 0.4877(9) 0.0262(6) 0.7707(6)
O2_2 O 0.9663(7) 0.8466(5) 0.0466(5)
O3_2 O 0.9665(7) 0.6341(5) 0.2429(5)
O17_2 O 0.6524(10) 0.8537(7) 0.0216(7)
H4_2 H 0.5975 0.8128 0.0640
O19_2 O 0.8637(11) 0.9642(7) 0.1611(7)
H9_2 H 0.8017 0.9866 0.1990
O20_2 O 0.7484(9) 0.7812(6) 0.2130(6)
H10_2 H 0.7599 0.7914 0.2618
H11_2 H 0.8158 0.7385 0.2047
C11_2 C 0.9967(10) 0.7740(6) 0.0265(6)
O1_2 O 0.9118(8) 0.7415(5) 0.9944(5)
O9_2 O 0.4052(7) 0.9963(5) 0.7379(5)
H5_2 H 0.7150 0.8251 0.9911
H12_2 H 0.6892 0.9972 0.5550
O22_2 O 0.7602(8) 0.6734(5) 0.5732(5)
H13_2 H 0.8210 0.6387 0.6128
H14_2 H 0.6848 0.6446 0.5885
N1_2 N 0.8916(8) 0.6681(6) 0.8432(5)
N3_2 N 0.8271(8) 0.7609(6) 0.6959(5)
N4_2 N 0.5113(8) 0.7762(5) 0.6738(5)
N5_2 N 0.3932(8) 0.8441(5) 0.6679(5)
C1_2 C 0.9686(9) 0.7283(7) 0.6903(6)
C2_2 C 0.7847(10) 0.7220(7) 0.7927(6)
H16_2 H 0.6901 0.7319 0.8211
C3_2 C 0.2837(10) 0.7925(7) 0.7210(6)
H17_2 H 0.1889 0.8211 0.7293
C4_2 C 0.4685(10) 0.6894(7) 0.7291(7)
H18_2 H 0.5303 0.6306 0.7445
C17_2 C 0.8984(11) 0.9841(7) 0.7260(7)
H23_2 H 0.9726 0.9405 0.7593
C18_2 C 0.7545(11) 0.9749(7) 0.7670(7)
H24_2 H 0.7339 0.9237 0.8275
H8 H 0.0897 0.9880 0.8816
H8_2 H 0.9103 0.0120 0.1184
loop_
_geom_bond_atom_site_label_1
_geom_bond_atom_site_label_2
_geom_bond_site_symmetry_1
_geom_bond_site_symmetry_2
Co1 O1 1_555 1_555
Co2 O9 1_555 1_555
Co4 O21 1_555 1_555
O21 Co2 1_555 1_555
H12 O21 1_555 1_555
O22 Co4 1_555 1_555
H13 O22 1_555 1_555
H14 O22 1_555 1_555
N1 Co1 1_555 1_555
N3 Co4 1_555 1_555
N4 Co4 1_555 1_555
N5 Co2 1_555 1_555
N6 C3 1_555 1_555
C2 N1 1_555 1_555
H16 C2 1_555 1_555
C3 N5 1_555 1_555
H17 C3 1_555 1_555
C4 N4 1_555 1_555
H18 C4 1_555 1_555
H23 C17 1_555 1_555
H24 C18 1_555 1_555
Co10 N6 1_555 1_555
O27 Co4 1_555 1_555
O28 Co4 1_555 1_555
N3 C1 1_555 1_555
N3 C2 1_555 1_555
N4 N5 1_555 1_555
N6 C4 1_555 1_555
C17 C18 1_555 1_555
Co5 O2 1_555 1_555
O2 C11 1_555 1_555
O17 Co5 1_555 1_555
H4 O17 1_555 1_555
O19 Co5 1_555 1_555
H9 O19 1_555 1_555
O20 Co5 1_555 1_555
H10 O20 1_555 1_555
H11 O20 1_555 1_555
Co12 O4 1_555 1_555
O26 Co5 1_555 1_555
Co12 O30 1_555 1_555
S2 O10 1_555 1_555
O8 C19 1_555 1_555
O11 S2 1_555 1_555
O12 S2 1_555 1_555
H6 O18 1_555 1_555
H7 O18 1_555 1_555
C13 C14 1_555 1_555
C14 S2 1_555 1_555
C15 C14 1_555 1_555
H22 C15 1_555 1_555
C16 C15 1_555 1_555
C19 C13 1_555 1_555
Co14 O10 1_555 1_555
Co15 O8 1_555 1_555
Co9 O31 1_555 1_555
Co14 O31 1_555 1_555
Co10 O15 1_555 1_555
H1 O15 1_555 1_555
O16 Co10 1_555 1_555
H2 O16 1_555 1_555
H3 O16 1_555 1_555
N2 Co10 1_555 1_555
H20 C9 1_555 1_555
H21 C10 1_555 1_555
O23 Co10 1_555 1_555
O24 Co10 1_555 1_555
C9 C10 1_555 1_555
O5 S1 1_555 1_555
O6 C12 1_555 1_555
O25 C12 1_555 1_555
C5 C6 1_555 1_555
C6 S1 1_555 1_555
C7 C6 1_555 1_555
H19 C7 1_555 1_555
C8 C7 1_555 1_555
C12 C8 1_555 1_555
Co12 O6 1_555 1_555
O13 C20 1_555 1_555
O29 C20 1_555 1_555
Co14 O13 1_555 1_555
O28 C20_2 1_555 1_555
O14 C20_2 1_555 1_555
O5_2 S1_2 1_555 1_555
O24 C12_2 1_555 1_555
O7 C12_2 1_555 1_555
C5_2 C6_2 1_555 1_555
C6_2 S1_2 1_555 1_555
C7_2 C6_2 1_555 1_555
H19_2 C7_2 1_555 1_555
C8_2 C7_2 1_555 1_555
C12_2 C8_2 1_555 1_555
H1_2 O30 1_555 1_555
O16_2 Co12 1_555 1_555
H2_2 O16_2 1_555 1_555
H3_2 O16_2 1_555 1_555
N2_2 Co12 1_555 1_555
H20_2 C9_2 1_555 1_555
H21_2 C10_2 1_555 1_555
N7 Co12 1_555 1_555
C9_2 C10_2 1_555 1_555
S2_2 O27 1_555 1_555
O26 C19_2 1_555 1_555
O11_2 S2_2 1_555 1_555
O12_2 S2_2 1_555 1_555
H6_2 O18_2 1_555 1_555
H7_2 O18_2 1_555 1_555
C13_2 C14_2 1_555 1_555
C14_2 S2_2 1_555 1_555
C15_2 C14_2 1_555 1_555
H22_2 C15_2 1_555 1_555
C16_2 C15_2 1_555 1_555
C19_2 C13_2 1_555 1_555
Co15 O2_2 1_555 1_555
O2_2 C11_2 1_555 1_555
O17_2 Co15 1_555 1_555
H4_2 O17_2 1_555 1_555
O19_2 Co15 1_555 1_555
H9_2 O19_2 1_555 1_555
O20_2 Co15 1_555 1_555
H10_2 O20_2 1_555 1_555
H11_2 O20_2 1_555 1_555
Co7 O1_2 1_555 1_555
Co9 O9_2 1_555 1_555
H12_2 O31 1_555 1_555
O22_2 Co14 1_555 1_555
H13_2 O22_2 1_555 1_555
H14_2 O22_2 1_555 1_555
N1_2 Co7 1_555 1_555
N3_2 Co14 1_555 1_555
N4_2 Co14 1_555 1_555
N5_2 Co9 1_555 1_555
N7 C3_2 1_555 1_555
C2_2 N1_2 1_555 1_555
H16_2 C2_2 1_555 1_555
C3_2 N5_2 1_555 1_555
H17_2 C3_2 1_555 1_555
C4_2 N4_2 1_555 1_555
H18_2 C4_2 1_555 1_555
H23_2 C17_2 1_555 1_555
H24_2 C18_2 1_555 1_555
N3_2 C1_2 1_555 1_555
N3_2 C2_2 1_555 1_555
N4_2 N5_2 1_555 1_555
N7 C4_2 1_555 1_555
C17_2 C18_2 1_555 1_555

#END
