
###############################################################################
#
# This file contains modified crystal structure data generated from the
# MOF subset of the Cambridge Structural Database (CSD) v543 
# hosted by the Cambridge Crystallographic Data Centre (CCDC).
#
# This work is licensed under the Creative Commons
# Attribution-NonCommercial-ShareAlike 4.0 International License.
# To view a copy of this license, visit
# http://creativecommons.org/licenses/by-nc-sa/4.0/
# or send a letter to
# Creative Commons, PO Box 1866, Mountain View, CA 94042, USA.
#
# CIF created using the CSD Python API on 29 September 2022
# The structure has been converted into the P1 space group
# The structure has a 3D framework
# The original CSD entry IQEKOG is in the orthorhombic crystal system
# The framework has been calculated to contain at least 10.0% void space
# The void calculation uses a probe of radius 1.32A, grid spacing 0.4
#
###############################################################################

data_IQEKOG
_chemical_formula_moiety         '(C208 H192 N64 O80 Zn16)n'
_symmetry_cell_setting           triclinic
_symmetry_space_group_name_H-M   'P 1'
_symmetry_Int_Tables_number      1
_space_group_name_Hall           'P 1'
loop_
_symmetry_equiv_pos_site_id
_symmetry_equiv_pos_as_xyz
1 x,y,z
_cell_length_a                   18.087(6)
_cell_length_b                   24.867(11)
_cell_length_c                   17.611(8)
_cell_angle_alpha                90
_cell_angle_beta                 90
_cell_angle_gamma                90
_cell_volume                     7920.89
loop_
_atom_site_label
_atom_site_type_symbol
_atom_site_fract_x
_atom_site_fract_y
_atom_site_fract_z
Zn1 Zn 0.03642(7) 0.56437(4) 0.18593(6)
C1 C 0.0247(6) 0.5171(4) 0.3419(5)
C6 C 0.0939(7) 0.1326(4) 0.3005(5)
C8 C 0.0296(6) 0.1683(3) 0.2909(5)
C10 C 0.0239(6) 0.2228(4) 0.2760(5)
C11 C 0.0041(5) 0.4741(3) 0.2884(5)
C14 C 0.0437(6) 0.4434(4) 0.0497(5)
H3 H 0.0894 0.4525 0.0729
C17 C 0.1906(8) 0.5345(5) 0.2216(7)
H6 H 0.1729 0.5303 0.2721
C18 C 0.0802(7) 0.2644(4) 0.2659(6)
C19 C 0.3075(9) 0.5057(10) 0.2684(12)
H7 H 0.2798 0.5045 0.3162
H8 H 0.3488 0.5310 0.2733
H9 H 0.3268 0.4698 0.2567
H14 H 0.0372 0.2959 0.1148
C24 C 0.2881(9) 0.5299(8) 0.1309(10)
H16 H 0.3139 0.4970 0.1153
H17 H 0.3226 0.5603 0.1298
H18 H 0.2470 0.5369 0.0961
H19 H 0.1103 0.2842 0.0127
N3 N 0.0093(4) 0.4842(3) 0.2118(4)
N7 N 0.2594(7) 0.5230(4) 0.2081(7)
O3 O 0.0450(4) 0.5609(2) 0.3169(3)
O4 O 0.0176(4) 0.5074(3) 0.4134(4)
O5 O 0.0806(4) 0.0845(2) 0.3085(4)
O6 O 0.1586(5) 0.1535(3) 0.3009(4)
O7 O 0.0632(4) 0.3101(3) 0.2462(5)
O8 O 0.1487(5) 0.2510(3) 0.2781(5)
H24 H 0.1709 0.2480 0.2364
O9 O 0.1466(4) 0.5506(3) 0.1727(4)
N9 N 0.0404(5) 0.6482(3) 0.2076(4)
N11 N 0.0278(5) 0.5704(3) 0.0645(4)
Zn2 Zn 0.93714(7) 0.31804(4) 0.24036(6)
C2 C 0.8353(6) 0.1839(3) 0.2683(5)
C3 C 0.9850(5) 0.4384(3) 0.1786(5)
C7 C 0.9667(6) 0.3902(4) 0.3675(5)
C9 C 0.9782(6) 0.4223(3) 0.2985(5)
C12 C 0.9131(6) 0.1892(3) 0.2768(5)
C13 C 0.9815(5) 0.4325(3) 0.0944(5)
C15 C 0.9174(6) 0.4180(4) 0.0577(5)
H4 H 0.8747 0.4082 0.0860
C16 C 0.7117(8) 0.1775(8) 0.3138(7)
H5 H 0.6812 0.1755 0.3576
C20 C 0.7998(14) 0.1839(8) 0.2030(13)
H10 H 0.8289 0.1848 0.1581
C22 C 0.9919(9) 0.2926(5) 0.0879(7)
C23 C 0.7214(10) 0.1828(11) 0.1935(8)
H15 H 0.7002 0.1863 0.1444
C26 C 0.7862(12) 0.1804(7) 0.3239(11)
H22 H 0.8043 0.1800 0.3746
N1 N 0.9966(9) 0.2799(5) 0.0170(6)
N2 N 0.9651(4) 0.4000(3) 0.2282(4)
N4 N 0.9596(5) 0.1482(3) 0.2924(4)
N5 N 0.9518(5) 0.2364(3) 0.2662(4)
N6 N 0.6812(5) 0.1772(3) 0.2501(4)
O1 O 0.9469(4) 0.3422(2) 0.3596(3)
O2 O 0.9778(4) 0.4126(3) 0.4320(3)
H23 H 0.9726 0.5034 0.4239
O10 O 0.9348(5) 0.3007(3) 0.1244(4)
Zn3 Zn 0.96358(7) 0.06437(4) 0.31407(6)
Zn5 Zn 0.56286(7) 0.18196(4) 0.24036(6)
N10 N 0.8188(5) 0.3228(3) 0.2501(4)
O11 O 0.9194(4) 0.5845(2) 0.1915(4)
C5 C 0.9156(7) 0.4177(4) 0.9789(5)
H2 H 0.8704 0.4083 0.9548
C21 C 0.9306(11) 0.2741(6) 0.9734(8)
H11 H 0.9187 0.2358 0.9681
H12 H 0.9380 0.2899 0.9230
H13 H 0.8898 0.2925 0.9992
N8 N 0.9722(5) 0.4296(3) 0.9355(4)
Zn4 Zn 0.96358(7) 0.43563(4) 0.81407(6)
C2_2 C 0.6647(6) 0.3161(3) 0.2683(5)
C3_2 C 0.5150(5) 0.0616(3) 0.1786(5)
C6_2 C 0.4061(7) 0.3674(4) 0.3005(5)
C7_2 C 0.5333(6) 0.1098(4) 0.3675(5)
C8_2 C 0.4704(6) 0.3317(3) 0.2909(5)
C9_2 C 0.5218(6) 0.0777(3) 0.2985(5)
C10_2 C 0.4761(6) 0.2772(4) 0.2760(5)
C11_2 C 0.4959(5) 0.0259(3) 0.2884(5)
C12_2 C 0.5869(6) 0.3108(3) 0.2768(5)
C13_2 C 0.5185(5) 0.0675(3) 0.0944(5)
C14_2 C 0.4563(6) 0.0566(4) 0.0497(5)
H3_2 H 0.4106 0.0475 0.0729
C15_2 C 0.5826(6) 0.0820(4) 0.0577(5)
H4_2 H 0.6253 0.0918 0.0860
C16_2 C 0.7883(8) 0.3225(8) 0.3138(7)
H5_2 H 0.8188 0.3245 0.3576
C18_2 C 0.4198(7) 0.2356(4) 0.2659(6)
H9_2 H 0.1732 0.0302 0.2567
C20_2 C 0.7002(14) 0.3161(8) 0.2030(13)
H10_2 H 0.6711 0.3152 0.1581
C22_2 C 0.5081(9) 0.2074(5) 0.0879(7)
H14_2 H 0.4628 0.2041 0.1148
C23_2 C 0.7786(10) 0.3172(11) 0.1935(8)
H15_2 H 0.7998 0.3137 0.1444
H16_2 H 0.1861 0.0030 0.1153
H19_2 H 0.3897 0.2158 0.0127
C26_2 C 0.7138(12) 0.3196(7) 0.3239(11)
H22_2 H 0.6957 0.3200 0.3746
N1_2 N 0.5034(9) 0.2201(5) 0.0170(6)
N2_2 N 0.5349(4) 0.1000(3) 0.2282(4)
N3_2 N 0.4907(4) 0.0158(3) 0.2118(4)
N4_2 N 0.5404(5) 0.3518(3) 0.2924(4)
N5_2 N 0.5482(5) 0.2636(3) 0.2662(4)
O1_2 O 0.5531(4) 0.1578(2) 0.3596(3)
O2_2 O 0.5222(4) 0.0874(3) 0.4320(3)
O5_2 O 0.4194(4) 0.4155(2) 0.3085(4)
O6_2 O 0.3414(5) 0.3465(3) 0.3009(4)
O7_2 O 0.4368(4) 0.1899(3) 0.2462(5)
O8_2 O 0.3513(5) 0.2490(3) 0.2781(5)
H24_2 H 0.3291 0.2520 0.2364
O10_2 O 0.5652(5) 0.1993(3) 0.1244(4)
Zn3_2 Zn 0.53642(7) 0.43563(4) 0.31407(6)
C4 C 0.4620(6) 0.0590(3) 0.9723(5)
H1 H 0.4190 0.0527 0.9426
C5_2 C 0.5844(7) 0.0823(4) 0.9789(5)
H2_2 H 0.6296 0.0917 0.9548
C21_2 C 0.5694(11) 0.2259(6) 0.9734(8)
H11_2 H 0.5813 0.2642 0.9681
H12_2 H 0.5620 0.2101 0.9230
H13_2 H 0.6102 0.2075 0.9992
C25 C 0.4293(12) 0.2264(11) 0.9778(11)
H20 H 0.4279 0.2034 0.9326
H21 H 0.4225 0.2640 0.9626
N8_2 N 0.5278(5) 0.0704(3) 0.9355(4)
Zn4_2 Zn 0.53642(7) 0.06437(4) 0.81407(6)
Zn1_2 Zn 0.46358(7) 0.93563(4) 0.18593(6)
C1_2 C 0.4753(6) 0.9829(4) 0.3419(5)
C17_2 C 0.3094(8) 0.9655(5) 0.2216(7)
H6_2 H 0.3271 0.9697 0.2721
C19_2 C 0.1925(9) 0.9943(10) 0.2684(12)
H7_2 H 0.2202 0.9955 0.3162
H8_2 H 0.1512 0.9690 0.2733
C24_2 C 0.2119(9) 0.9701(8) 0.1309(10)
H17_2 H 0.1774 0.9397 0.1298
H18_2 H 0.2530 0.9631 0.0961
N7_2 N 0.2406(7) 0.9770(4) 0.2081(7)
O3_2 O 0.4550(4) 0.9391(2) 0.3169(3)
O4_2 O 0.4824(4) 0.9926(3) 0.4134(4)
H23_2 H 0.5274 0.9966 0.4239
O9_2 O 0.3534(4) 0.9494(3) 0.1727(4)
N9_2 N 0.4596(5) 0.8518(3) 0.2076(4)
N11_2 N 0.4722(5) 0.9296(3) 0.0645(4)
O11_2 O 0.5806(4) 0.9155(2) 0.1915(4)
H23_3 H 0.0274 0.0034 0.0761
Zn2_2 Zn 0.06286(7) 0.81804(4) 0.25964(6)
C2_3 C 0.1647(6) 0.6839(3) 0.2317(5)
C3_3 C 0.0150(5) 0.9384(3) 0.3214(5)
C5_3 C 0.0844(7) 0.9177(4) 0.5211(5)
H2_3 H 0.1296 0.9083 0.5452
C7_3 C 0.0333(6) 0.8902(4) 0.1325(5)
C9_3 C 0.0218(6) 0.9223(3) 0.2015(5)
C12_3 C 0.0869(6) 0.6892(3) 0.2232(5)
C13_3 C 0.0185(5) 0.9325(3) 0.4056(5)
C15_3 C 0.0826(6) 0.9180(4) 0.4423(5)
H4_3 H 0.1253 0.9082 0.4140
C16_3 C 0.2883(8) 0.6775(8) 0.1862(7)
H5_3 H 0.3188 0.6755 0.1424
C20_3 C 0.2002(14) 0.6839(8) 0.2970(13)
H10_3 H 0.1711 0.6848 0.3419
C21_3 C 0.0694(11) 0.7741(6) 0.5266(8)
H11_3 H 0.0813 0.7358 0.5319
H12_3 H 0.0620 0.7899 0.5770
H13_3 H 0.1102 0.7925 0.5008
C22_3 C 0.0081(9) 0.7926(5) 0.4121(7)
C23_3 C 0.2786(10) 0.6828(11) 0.3065(8)
H15_3 H 0.2998 0.6863 0.3556
C26_3 C 0.2138(12) 0.6804(7) 0.1761(11)
H22_3 H 0.1957 0.6800 0.1254
N1_3 N 0.0034(9) 0.7799(5) 0.4830(6)
N2_3 N 0.0349(4) 0.9000(3) 0.2718(4)
N5_3 N 0.0482(5) 0.7364(3) 0.2338(4)
N6_2 N 0.3188(5) 0.6772(3) 0.2499(4)
N8_3 N 0.0278(5) 0.9296(3) 0.5645(4)
O1_3 O 0.0531(4) 0.8422(2) 0.1404(3)
O2_3 O 0.0222(4) 0.9126(3) 0.0680(3)
O10_3 O 0.0652(5) 0.8007(3) 0.3756(4)
Zn4_3 Zn 0.03642(7) 0.93563(4) 0.68593(6)
Zn5_2 Zn 0.43714(7) 0.68196(4) 0.25964(6)
N10_2 N 0.1812(5) 0.8228(3) 0.2499(4)
C1_3 C 0.9753(6) 0.0171(4) 0.1581(5)
C17_3 C 0.8094(8) 0.0345(5) 0.2784(7)
H6_3 H 0.8271 0.0303 0.2279
C19_3 C 0.6925(9) 0.0057(10) 0.2316(12)
H7_3 H 0.7202 0.0045 0.1838
H8_3 H 0.6512 0.0310 0.2267
C24_3 C 0.7119(9) 0.0299(8) 0.3691(10)
H17_3 H 0.6774 0.0603 0.3702
H18_3 H 0.7530 0.0369 0.4039
N7_3 N 0.7406(7) 0.0230(4) 0.2919(7)
O3_3 O 0.9550(4) 0.0609(2) 0.1831(3)
O4_3 O 0.9824(4) 0.0074(3) 0.0866(4)
O9_3 O 0.8534(4) 0.0506(3) 0.3273(4)
N11_3 N 0.9722(5) 0.0704(3) 0.4355(4)
C4_2 C 0.9620(6) 0.9410(3) 0.5277(5)
H1_2 H 0.9190 0.9473 0.5574
C6_3 C 0.9061(7) 0.6326(4) 0.1995(5)
C8_3 C 0.9704(6) 0.6683(3) 0.2091(5)
C10_3 C 0.9761(6) 0.7228(4) 0.2240(5)
C11_3 C 0.9959(5) 0.9741(3) 0.2116(5)
C14_3 C 0.9563(6) 0.9434(4) 0.4503(5)
H3_3 H 0.9106 0.9525 0.4271
C18_3 C 0.9198(7) 0.7644(4) 0.2341(6)
H9_3 H 0.6732 0.9698 0.2433
H14_3 H 0.9628 0.7959 0.3852
H16_3 H 0.6861 0.9970 0.3847
C25_2 C 0.9293(12) 0.7736(11) 0.5222(11)
H19_3 H 0.8897 0.7842 0.4873
H20_2 H 0.9279 0.7966 0.5674
H21_2 H 0.9225 0.7360 0.5374
N3_3 N 0.9907(4) 0.9842(3) 0.2882(4)
O6_3 O 0.8414(5) 0.6535(3) 0.1991(4)
O7_3 O 0.9368(4) 0.8101(3) 0.2538(5)
O8_3 O 0.8513(5) 0.7510(3) 0.2219(5)
H24_3 H 0.8291 0.7480 0.2636
C1_4 C 0.5247(6) 0.4829(4) 0.1581(5)
C2_4 C 0.3353(6) 0.8161(3) 0.2317(5)
C3_4 C 0.4850(5) 0.5616(3) 0.3214(5)
C4_3 C 0.5380(6) 0.5590(3) 0.5277(5)
H1_3 H 0.5810 0.5527 0.5574
C5_4 C 0.4156(7) 0.5823(4) 0.5211(5)
H2_4 H 0.3704 0.5917 0.5452
C6_4 C 0.5939(7) 0.8674(4) 0.1995(5)
C7_4 C 0.4667(6) 0.6098(4) 0.1325(5)
C8_4 C 0.5296(6) 0.8317(3) 0.2091(5)
C9_4 C 0.4782(6) 0.5777(3) 0.2015(5)
C10_4 C 0.5239(6) 0.7772(4) 0.2240(5)
C11_4 C 0.5041(5) 0.5259(3) 0.2116(5)
C12_4 C 0.4131(6) 0.8108(3) 0.2232(5)
C13_4 C 0.4815(5) 0.5675(3) 0.4056(5)
C14_4 C 0.5437(6) 0.5566(4) 0.4503(5)
H3_4 H 0.5894 0.5475 0.4271
C15_4 C 0.4174(6) 0.5820(4) 0.4423(5)
H4_4 H 0.3747 0.5918 0.4140
C16_4 C 0.2117(8) 0.8225(8) 0.1862(7)
H5_4 H 0.1812 0.8245 0.1424
C17_4 C 0.6906(8) 0.4655(5) 0.2784(7)
H6_4 H 0.6729 0.4697 0.2279
C18_4 C 0.5802(7) 0.7356(4) 0.2341(6)
C19_4 C 0.8075(9) 0.4943(10) 0.2316(12)
H7_4 H 0.7798 0.4955 0.1838
H8_4 H 0.8488 0.4690 0.2267
H9_4 H 0.8268 0.5302 0.2433
C20_4 C 0.2998(14) 0.8161(8) 0.2970(13)
H10_4 H 0.3289 0.8152 0.3419
C21_4 C 0.4306(11) 0.7259(6) 0.5266(8)
H11_4 H 0.4187 0.7642 0.5319
H12_4 H 0.4380 0.7101 0.5770
H13_4 H 0.3898 0.7075 0.5008
C22_4 C 0.4919(9) 0.7074(5) 0.4121(7)
H14_4 H 0.5372 0.7041 0.3852
C23_4 C 0.2214(10) 0.8172(11) 0.3065(8)
H15_4 H 0.2002 0.8137 0.3556
C24_4 C 0.7881(9) 0.4701(8) 0.3691(10)
H16_4 H 0.8139 0.5030 0.3847
H17_4 H 0.8226 0.4397 0.3702
H18_4 H 0.7470 0.4631 0.4039
C25_3 C 0.5707(12) 0.7264(11) 0.5222(11)
H19_4 H 0.6103 0.7158 0.4873
H20_3 H 0.5721 0.7034 0.5674
H21_3 H 0.5775 0.7640 0.5374
C26_4 C 0.2862(12) 0.8196(7) 0.1761(11)
H22_4 H 0.3043 0.8200 0.1254
N1_4 N 0.4966(9) 0.7201(5) 0.4830(6)
N2_4 N 0.4651(4) 0.6000(3) 0.2718(4)
N3_4 N 0.5093(4) 0.5158(3) 0.2882(4)
N5_4 N 0.4518(5) 0.7636(3) 0.2338(4)
N7_4 N 0.7594(7) 0.4770(4) 0.2919(7)
N8_4 N 0.4722(5) 0.5704(3) 0.5645(4)
O1_4 O 0.4469(4) 0.6578(2) 0.1404(3)
O2_4 O 0.4778(4) 0.5874(3) 0.0680(3)
O3_4 O 0.5450(4) 0.4391(2) 0.1831(3)
O4_4 O 0.5176(4) 0.4926(3) 0.0866(4)
H23_4 H 0.4726 0.4966 0.0761
O6_4 O 0.6586(5) 0.8465(3) 0.1991(4)
O7_4 O 0.5632(4) 0.6899(3) 0.2538(5)
O8_4 O 0.6487(5) 0.7490(3) 0.2219(5)
H24_4 H 0.6709 0.7520 0.2636
O9_4 O 0.6466(4) 0.4494(3) 0.3273(4)
O10_4 O 0.4348(5) 0.6993(3) 0.3756(4)
Zn4_4 Zn 0.46358(7) 0.56437(4) 0.68593(6)
N11_4 N 0.5278(5) 0.4296(3) 0.4355(4)
C5_5 C 0.0844(7) 0.5823(4) 0.0211(5)
H2_5 H 0.1296 0.5917 0.0452
C21_5 C 0.0694(11) 0.7259(6) 0.0266(8)
H11_5 H 0.0813 0.7642 0.0319
H12_5 H 0.0620 0.7101 0.0770
H13_5 H 0.1102 0.7075 0.0008
Zn2_3 Zn 0.06286(7) 0.68196(4) 0.75964(6)
C2_5 C 0.1647(6) 0.8161(3) 0.7317(5)
C3_5 C 0.0150(5) 0.5616(3) 0.8214(5)
C7_5 C 0.0333(6) 0.6098(4) 0.6325(5)
C9_5 C 0.0218(6) 0.5777(3) 0.7015(5)
C12_5 C 0.0869(6) 0.8108(3) 0.7232(5)
C13_5 C 0.0185(5) 0.5675(3) 0.9056(5)
C15_5 C 0.0826(6) 0.5820(4) 0.9423(5)
H4_5 H 0.1253 0.5918 0.9140
C16_5 C 0.2883(8) 0.8225(8) 0.6862(7)
H5_5 H 0.3188 0.8245 0.6424
C20_5 C 0.2002(14) 0.8161(8) 0.7970(13)
H10_5 H 0.1711 0.8152 0.8419
C22_5 C 0.0081(9) 0.7074(5) 0.9121(7)
C23_5 C 0.2786(10) 0.8172(11) 0.8065(8)
H15_5 H 0.2998 0.8137 0.8556
C26_5 C 0.2138(12) 0.8196(7) 0.6761(11)
H22_5 H 0.1957 0.8200 0.6254
N1_5 N 0.0034(9) 0.7201(5) 0.9830(6)
N2_5 N 0.0349(4) 0.6000(3) 0.7718(4)
N4_3 N 0.0404(5) 0.8518(3) 0.7076(4)
N5_5 N 0.0482(5) 0.7636(3) 0.7338(4)
N6_3 N 0.3188(5) 0.8228(3) 0.7499(4)
O1_5 O 0.0531(4) 0.6578(2) 0.6404(3)
O2_5 O 0.0222(4) 0.5874(3) 0.5680(3)
H23_5 H 0.0274 0.4966 0.5761
O10_5 O 0.0652(5) 0.6993(3) 0.8756(4)
Zn5_3 Zn 0.43714(7) 0.81804(4) 0.75964(6)
N10_3 N 0.1812(5) 0.6772(3) 0.7499(4)
O11_3 O 0.0806(4) 0.4155(2) 0.8085(4)
C1_5 C 0.9753(6) 0.4829(4) 0.6581(5)
C6_5 C 0.9061(7) 0.8674(4) 0.6995(5)
C8_5 C 0.9704(6) 0.8317(3) 0.7091(5)
C10_5 C 0.9761(6) 0.7772(4) 0.7240(5)
C11_5 C 0.9959(5) 0.5259(3) 0.7116(5)
C14_5 C 0.9563(6) 0.5566(4) 0.9503(5)
H3_5 H 0.9106 0.5475 0.9271
C17_5 C 0.8094(8) 0.4655(5) 0.7784(7)
H6_5 H 0.8271 0.4697 0.7279
C18_5 C 0.9198(7) 0.7356(4) 0.7341(6)
C19_5 C 0.6925(9) 0.4943(10) 0.7316(12)
H7_5 H 0.7202 0.4955 0.6838
H8_5 H 0.6512 0.4690 0.7267
H9_5 H 0.6732 0.5302 0.7433
H14_5 H 0.9628 0.7041 0.8852
C24_5 C 0.7119(9) 0.4701(8) 0.8691(10)
H16_5 H 0.6861 0.5030 0.8847
H17_5 H 0.6774 0.4397 0.8702
H18_5 H 0.7530 0.4631 0.9039
H19_5 H 0.8897 0.7158 0.9873
N3_5 N 0.9907(4) 0.5158(3) 0.7882(4)
N7_5 N 0.7406(7) 0.4770(4) 0.7919(7)
O3_5 O 0.9550(4) 0.4391(2) 0.6831(3)
O4_5 O 0.9824(4) 0.4926(3) 0.5866(4)
O5_3 O 0.9194(4) 0.9155(2) 0.6915(4)
O6_5 O 0.8414(5) 0.8465(3) 0.6991(4)
O7_5 O 0.9368(4) 0.6899(3) 0.7538(5)
O8_5 O 0.8513(5) 0.7490(3) 0.7219(5)
H24_5 H 0.8291 0.7520 0.7636
O9_5 O 0.8534(4) 0.4494(3) 0.8273(4)
N9_3 N 0.9596(5) 0.3518(3) 0.7924(4)
C1_6 C 0.5247(6) 0.0171(4) 0.6581(5)
C17_6 C 0.6906(8) 0.0345(5) 0.7784(7)
H6_6 H 0.6729 0.0303 0.7279
C19_6 C 0.8075(9) 0.0057(10) 0.7316(12)
H7_6 H 0.7798 0.0045 0.6838
H8_6 H 0.8488 0.0310 0.7267
C24_6 C 0.7881(9) 0.0299(8) 0.8691(10)
H17_6 H 0.8226 0.0603 0.8702
H18_6 H 0.7470 0.0369 0.9039
N7_6 N 0.7594(7) 0.0230(4) 0.7919(7)
O3_6 O 0.5450(4) 0.0609(2) 0.6831(3)
O4_6 O 0.5176(4) 0.0074(3) 0.5866(4)
H23_6 H 0.4726 0.0034 0.5761
O9_6 O 0.6466(4) 0.0506(3) 0.8273(4)
N9_4 N 0.5404(5) 0.1482(3) 0.7924(4)
O11_4 O 0.4194(4) 0.0845(2) 0.8085(4)
C4_4 C 0.5380(6) 0.9410(3) 0.0277(5)
H1_4 H 0.5810 0.9473 0.0574
C5_6 C 0.4156(7) 0.9177(4) 0.0211(5)
H2_6 H 0.3704 0.9083 0.0452
C21_6 C 0.4306(11) 0.7741(6) 0.0266(8)
H11_6 H 0.4187 0.7358 0.0319
H12_6 H 0.4380 0.7899 0.0770
H13_6 H 0.3898 0.7925 0.0008
C25_4 C 0.5707(12) 0.7736(11) 0.0222(11)
H20_4 H 0.5721 0.7966 0.0674
H21_4 H 0.5775 0.7360 0.0374
C2_6 C 0.3353(6) 0.6839(3) 0.7317(5)
C3_6 C 0.4850(5) 0.9384(3) 0.8214(5)
C6_6 C 0.5939(7) 0.6326(4) 0.6995(5)
C7_6 C 0.4667(6) 0.8902(4) 0.6325(5)
C8_6 C 0.5296(6) 0.6683(3) 0.7091(5)
C9_6 C 0.4782(6) 0.9223(3) 0.7015(5)
C10_6 C 0.5239(6) 0.7228(4) 0.7240(5)
C11_6 C 0.5041(5) 0.9741(3) 0.7116(5)
C12_6 C 0.4131(6) 0.6892(3) 0.7232(5)
C13_6 C 0.4815(5) 0.9325(3) 0.9056(5)
C14_6 C 0.5437(6) 0.9434(4) 0.9503(5)
H3_6 H 0.5894 0.9525 0.9271
C15_6 C 0.4174(6) 0.9180(4) 0.9423(5)
H4_6 H 0.3747 0.9082 0.9140
C16_6 C 0.2117(8) 0.6775(8) 0.6862(7)
H5_6 H 0.1812 0.6755 0.6424
C18_6 C 0.5802(7) 0.7644(4) 0.7341(6)
H9_6 H 0.8268 0.9698 0.7433
C20_6 C 0.2998(14) 0.6839(8) 0.7970(13)
H10_6 H 0.3289 0.6848 0.8419
C22_6 C 0.4919(9) 0.7926(5) 0.9121(7)
H14_6 H 0.5372 0.7959 0.8852
C23_6 C 0.2214(10) 0.6828(11) 0.8065(8)
H15_6 H 0.2002 0.6863 0.8556
H16_6 H 0.8139 0.9970 0.8847
H19_6 H 0.6103 0.7842 0.9873
C26_6 C 0.2862(12) 0.6804(7) 0.6761(11)
H22_6 H 0.3043 0.6800 0.6254
N1_6 N 0.4966(9) 0.7799(5) 0.9830(6)
N2_6 N 0.4651(4) 0.9000(3) 0.7718(4)
N3_6 N 0.5093(4) 0.9842(3) 0.7882(4)
N4_4 N 0.4596(5) 0.6482(3) 0.7076(4)
N5_6 N 0.4518(5) 0.7364(3) 0.7338(4)
O1_6 O 0.4469(4) 0.8422(2) 0.6404(3)
O2_6 O 0.4778(4) 0.9126(3) 0.5680(3)
O5_4 O 0.5806(4) 0.5845(2) 0.6915(4)
O6_6 O 0.6586(5) 0.6535(3) 0.6991(4)
O7_6 O 0.5632(4) 0.8101(3) 0.7538(5)
O8_6 O 0.6487(5) 0.7510(3) 0.7219(5)
H24_6 H 0.6709 0.7480 0.7636
O10_6 O 0.4348(5) 0.8007(3) 0.8756(4)
C4_5 C 0.0380(6) 0.0590(3) 0.4723(5)
H1_5 H 0.0810 0.0527 0.4426
C6_7 C 0.0939(7) 0.3674(4) 0.8005(5)
C8_7 C 0.0296(6) 0.3317(3) 0.7909(5)
C10_7 C 0.0239(6) 0.2772(4) 0.7760(5)
C11_7 C 0.0041(5) 0.0259(3) 0.7884(5)
C14_7 C 0.0437(6) 0.0566(4) 0.5497(5)
H3_7 H 0.0894 0.0475 0.5729
C18_7 C 0.0802(7) 0.2356(4) 0.7659(6)
H9_7 H 0.3268 0.0302 0.7567
H14_7 H 0.0372 0.2041 0.6148
H16_7 H 0.3139 0.0030 0.6153
C25_5 C 0.0707(12) 0.2264(11) 0.4778(11)
H19_7 H 0.1103 0.2158 0.5127
H20_5 H 0.0721 0.2034 0.4326
H21_5 H 0.0775 0.2640 0.4626
N3_7 N 0.0093(4) 0.0158(3) 0.7118(4)
O6_7 O 0.1586(5) 0.3465(3) 0.8009(4)
O7_7 O 0.0632(4) 0.1899(3) 0.7462(5)
O8_7 O 0.1487(5) 0.2490(3) 0.7781(5)
H24_7 H 0.1709 0.2520 0.7364
C1_7 C 0.0247(6) 0.9829(4) 0.8419(5)
C17_7 C 0.1906(8) 0.9655(5) 0.7216(7)
H6_7 H 0.1729 0.9697 0.7721
C19_7 C 0.3075(9) 0.9943(10) 0.7684(12)
H7_7 H 0.2798 0.9955 0.8162
H8_7 H 0.3488 0.9690 0.7733
C24_7 C 0.2881(9) 0.9701(8) 0.6309(10)
H17_7 H 0.3226 0.9397 0.6298
H18_7 H 0.2470 0.9631 0.5961
N7_7 N 0.2594(7) 0.9770(4) 0.7081(7)
O3_7 O 0.0450(4) 0.9391(2) 0.8169(3)
O4_7 O 0.0176(4) 0.9926(3) 0.9134(4)
O9_7 O 0.1466(4) 0.9494(3) 0.6727(4)
Zn2_4 Zn 0.93714(7) 0.18196(4) 0.74036(6)
C2_7 C 0.8353(6) 0.3161(3) 0.7683(5)
C3_7 C 0.9850(5) 0.0616(3) 0.6786(5)
C5_7 C 0.9156(7) 0.0823(4) 0.4789(5)
H2_7 H 0.8704 0.0917 0.4548
C7_7 C 0.9667(6) 0.1098(4) 0.8675(5)
C9_7 C 0.9782(6) 0.0777(3) 0.7985(5)
C12_7 C 0.9131(6) 0.3108(3) 0.7768(5)
C13_7 C 0.9815(5) 0.0675(3) 0.5944(5)
C15_7 C 0.9174(6) 0.0820(4) 0.5577(5)
H4_7 H 0.8747 0.0918 0.5860
C16_7 C 0.7117(8) 0.3225(8) 0.8138(7)
H5_7 H 0.6812 0.3245 0.8576
C20_7 C 0.7998(14) 0.3161(8) 0.7030(13)
H10_7 H 0.8289 0.3152 0.6581
C21_7 C 0.9306(11) 0.2259(6) 0.4734(8)
H11_7 H 0.9187 0.2642 0.4681
H12_7 H 0.9380 0.2101 0.4230
H13_7 H 0.8898 0.2075 0.4992
C22_7 C 0.9919(9) 0.2074(5) 0.5879(7)
C23_7 C 0.7214(10) 0.3172(11) 0.6935(8)
H15_7 H 0.7002 0.3137 0.6444
C26_7 C 0.7862(12) 0.3196(7) 0.8239(11)
H22_7 H 0.8043 0.3200 0.8746
N1_7 N 0.9966(9) 0.2201(5) 0.5170(6)
N2_7 N 0.9651(4) 0.1000(3) 0.7282(4)
N5_7 N 0.9518(5) 0.2636(3) 0.7662(4)
N6_4 N 0.6812(5) 0.3228(3) 0.7501(4)
O1_7 O 0.9469(4) 0.1578(2) 0.8596(3)
O2_7 O 0.9778(4) 0.0874(3) 0.9320(3)
O10_7 O 0.9348(5) 0.1993(3) 0.6244(4)
Zn5_4 Zn 0.56286(7) 0.31804(4) 0.74036(6)
N10_4 N 0.8188(5) 0.1772(3) 0.7501(4)
H23_7 H 0.9726 0.9966 0.9239
C1_8 C 0.4753(6) 0.5171(4) 0.8419(5)
C2_8 C 0.6647(6) 0.1839(3) 0.7683(5)
C3_8 C 0.5150(5) 0.4384(3) 0.6786(5)
C4_6 C 0.4620(6) 0.4410(3) 0.4723(5)
H1_6 H 0.4190 0.4473 0.4426
C5_8 C 0.5844(7) 0.4177(4) 0.4789(5)
H2_8 H 0.6296 0.4083 0.4548
C6_8 C 0.4061(7) 0.1326(4) 0.8005(5)
C7_8 C 0.5333(6) 0.3902(4) 0.8675(5)
C8_8 C 0.4704(6) 0.1683(3) 0.7909(5)
C9_8 C 0.5218(6) 0.4223(3) 0.7985(5)
C10_8 C 0.4761(6) 0.2228(4) 0.7760(5)
C11_8 C 0.4959(5) 0.4741(3) 0.7884(5)
C12_8 C 0.5869(6) 0.1892(3) 0.7768(5)
C13_8 C 0.5185(5) 0.4325(3) 0.5944(5)
C14_8 C 0.4563(6) 0.4434(4) 0.5497(5)
H3_8 H 0.4106 0.4525 0.5729
C15_8 C 0.5826(6) 0.4180(4) 0.5577(5)
H4_8 H 0.6253 0.4082 0.5860
C16_8 C 0.7883(8) 0.1775(8) 0.8138(7)
H5_8 H 0.8188 0.1755 0.8576
C17_8 C 0.3094(8) 0.5345(5) 0.7216(7)
H6_8 H 0.3271 0.5303 0.7721
C18_8 C 0.4198(7) 0.2644(4) 0.7659(6)
C19_8 C 0.1925(9) 0.5057(10) 0.7684(12)
H7_8 H 0.2202 0.5045 0.8162
H8_8 H 0.1512 0.5310 0.7733
H9_8 H 0.1732 0.4698 0.7567
C20_8 C 0.7002(14) 0.1839(8) 0.7030(13)
H10_8 H 0.6711 0.1848 0.6581
C21_8 C 0.5694(11) 0.2741(6) 0.4734(8)
H11_8 H 0.5813 0.2358 0.4681
H12_8 H 0.5620 0.2899 0.4230
H13_8 H 0.6102 0.2925 0.4992
C22_8 C 0.5081(9) 0.2926(5) 0.5879(7)
H14_8 H 0.4628 0.2959 0.6148
C23_8 C 0.7786(10) 0.1828(11) 0.6935(8)
H15_8 H 0.7998 0.1863 0.6444
C24_8 C 0.2119(9) 0.5299(8) 0.6309(10)
H16_8 H 0.1861 0.4970 0.6153
H17_8 H 0.1774 0.5603 0.6298
H18_8 H 0.2530 0.5369 0.5961
C25_6 C 0.4293(12) 0.2736(11) 0.4778(11)
H19_8 H 0.3897 0.2842 0.5127
H20_6 H 0.4279 0.2966 0.4326
H21_6 H 0.4225 0.2360 0.4626
C26_8 C 0.7138(12) 0.1804(7) 0.8239(11)
H22_8 H 0.6957 0.1800 0.8746
N1_8 N 0.5034(9) 0.2799(5) 0.5170(6)
N2_8 N 0.5349(4) 0.4000(3) 0.7282(4)
N3_8 N 0.4907(4) 0.4842(3) 0.7118(4)
N5_8 N 0.5482(5) 0.2364(3) 0.7662(4)
N7_8 N 0.2406(7) 0.5230(4) 0.7081(7)
O1_8 O 0.5531(4) 0.3422(2) 0.8596(3)
O2_8 O 0.5222(4) 0.4126(3) 0.9320(3)
O3_8 O 0.4550(4) 0.5609(2) 0.8169(3)
O4_8 O 0.4824(4) 0.5074(3) 0.9134(4)
H23_8 H 0.5274 0.5034 0.9239
O6_8 O 0.3414(5) 0.1535(3) 0.8009(4)
O7_8 O 0.4368(4) 0.3101(3) 0.7462(5)
O8_8 O 0.3513(5) 0.2510(3) 0.7781(5)
H24_8 H 0.3291 0.2480 0.7364
O9_8 O 0.3534(4) 0.5506(3) 0.6727(4)
O10_8 O 0.5652(5) 0.3007(3) 0.6244(4)
C4_7 C 0.0380(6) 0.4410(3) 0.9723(5)
H1_7 H 0.0810 0.4473 0.9426
C25_7 C 0.0707(12) 0.2736(11) 0.9778(11)
H20_7 H 0.0721 0.2966 0.9326
H21_7 H 0.0775 0.2360 0.9626
C4_8 C 0.9620(6) 0.5590(3) 0.0277(5)
H1_8 H 0.9190 0.5527 0.0574
C25_8 C 0.9293(12) 0.7264(11) 0.0222(11)
H20_8 H 0.9279 0.7034 0.0674
H21_8 H 0.9225 0.7640 0.0374
loop_
_geom_bond_atom_site_label_1
_geom_bond_atom_site_label_2
_geom_bond_site_symmetry_1
_geom_bond_site_symmetry_2
Zn1 N3 1_555 1_555
C1 C11 1_555 1_555
C6 C8 1_555 1_555
C8 C10 1_555 1_555
C10 C18 1_555 1_555
C11 N3 1_555 1_555
H3 C14 1_555 1_555
C17 H6 1_555 1_555
C18 O7 1_555 1_555
C19 H7 1_555 1_555
H8 C19 1_555 1_555
H9 C19 1_555 1_555
C24 H16 1_555 1_555
H17 C24 1_555 1_555
H18 C24 1_555 1_555
N7 C17 1_555 1_555
O3 Zn1 1_555 1_555
O4 C1 1_555 1_555
O5 C6 1_555 1_555
O6 C6 1_555 1_555
O8 C18 1_555 1_555
H24 O8 1_555 1_555
O9 Zn1 1_555 1_555
N9 Zn1 1_555 1_555
N11 Zn1 1_555 1_555
C1 O3 1_555 1_555
C17 O9 1_555 1_555
C19 N7 1_555 1_555
C24 N7 1_555 1_555
Zn2 N2 1_555 1_555
C2 C12 1_555 1_555
C3 C13 1_555 1_555
C7 C9 1_555 1_555
C12 N4 1_555 1_555
H4 C15 1_555 1_555
C16 H5 1_555 1_555
C20 C2 1_555 1_555
H10 C20 1_555 1_555
C23 C20 1_555 1_555
H15 C23 1_555 1_555
C26 C2 1_555 1_555
H22 C26 1_555 1_555
N2 C3 1_555 1_555
N5 Zn2 1_555 1_555
N6 C16 1_555 1_555
O1 Zn2 1_555 1_555
O2 C7 1_555 1_555
O10 Zn2 1_555 1_555
Zn3 N4 1_555 1_555
Zn5 N6 1_555 1_555
N10 Zn2 1_555 1_555
C7 O1 1_555 1_555
C9 N2 1_555 1_555
C12 N5 1_555 1_555
C13 C15 1_555 1_555
C16 C26 1_555 1_555
C22 N1 1_555 1_555
C22 O10 1_555 1_555
C23 N6 1_555 1_555
C5 H2 1_555 1_555
C21 H11 1_555 1_555
H12 C21 1_555 1_555
H13 C21 1_555 1_555
Zn4 N8 1_555 1_555
C5 N8 1_555 1_555
Zn5 N2_2 1_555 1_555
C2_2 C12_2 1_555 1_555
C3_2 C13_2 1_555 1_555
C6_2 C8_2 1_555 1_555
C7_2 C9_2 1_555 1_555
C8_2 C10_2 1_555 1_555
C9_2 C11_2 1_555 1_555
C10_2 C18_2 1_555 1_555
C11_2 N3_2 1_555 1_555
C12_2 N4_2 1_555 1_555
C13_2 C14_2 1_555 1_555
H3_2 C14_2 1_555 1_555
H4_2 C15_2 1_555 1_555
C16_2 H5_2 1_555 1_555
C18_2 O7_2 1_555 1_555
C20_2 C2_2 1_555 1_555
H10_2 C20_2 1_555 1_555
C22_2 H14_2 1_555 1_555
C23_2 C20_2 1_555 1_555
H15_2 C23_2 1_555 1_555
C26_2 C2_2 1_555 1_555
H22_2 C26_2 1_555 1_555
N2_2 C3_2 1_555 1_555
N3_2 C3_2 1_555 1_555
N4_2 C8_2 1_555 1_555
N5_2 Zn5 1_555 1_555
N10 C16_2 1_555 1_555
O1_2 Zn5 1_555 1_555
O2_2 C7_2 1_555 1_555
O5_2 C6_2 1_555 1_555
O6_2 C6_2 1_555 1_555
O7_2 Zn5 1_555 1_555
O8_2 C18_2 1_555 1_555
H24_2 O8_2 1_555 1_555
O10_2 Zn5 1_555 1_555
Zn3_2 N4_2 1_555 1_555
C7_2 O1_2 1_555 1_555
C9_2 N2_2 1_555 1_555
C10_2 N5_2 1_555 1_555
C12_2 N5_2 1_555 1_555
C13_2 C15_2 1_555 1_555
C16_2 C26_2 1_555 1_555
C22_2 N1_2 1_555 1_555
C22_2 O10_2 1_555 1_555
C23_2 N10 1_555 1_555
O5_2 Zn3_2 1_555 1_555
C4 H1 1_555 1_555
C5_2 H2_2 1_555 1_555
C21_2 H11_2 1_555 1_555
H12_2 C21_2 1_555 1_555
H13_2 C21_2 1_555 1_555
H20 C25 1_555 1_555
H21 C25 1_555 1_555
N8_2 C4 1_555 1_555
Zn4_2 N8_2 1_555 1_555
C5_2 N8_2 1_555 1_555
C17_2 H6_2 1_555 1_555
C19_2 H7_2 1_555 1_555
H8_2 C19_2 1_555 1_555
H17_2 C24_2 1_555 1_555
H18_2 C24_2 1_555 1_555
N7_2 C17_2 1_555 1_555
O3_2 Zn1_2 1_555 1_555
O4_2 C1_2 1_555 1_555
H23_2 O4_2 1_555 1_555
O9_2 Zn1_2 1_555 1_555
N9_2 Zn1_2 1_555 1_555
N11_2 Zn1_2 1_555 1_555
O11_2 Zn1_2 1_555 1_555
C1_2 O3_2 1_555 1_555
C17_2 O9_2 1_555 1_555
C19_2 N7_2 1_555 1_555
C24_2 N7_2 1_555 1_555
Zn2_2 N2_3 1_555 1_555
C2_3 C12_3 1_555 1_555
C3_3 C13_3 1_555 1_555
C5_3 H2_3 1_555 1_555
C7_3 C9_3 1_555 1_555
C12_3 N9 1_555 1_555
C15_3 C5_3 1_555 1_555
H4_3 C15_3 1_555 1_555
C16_3 H5_3 1_555 1_555
C20_3 C2_3 1_555 1_555
H10_3 C20_3 1_555 1_555
C21_3 H11_3 1_555 1_555
H12_3 C21_3 1_555 1_555
H13_3 C21_3 1_555 1_555
C23_3 C20_3 1_555 1_555
H15_3 C23_3 1_555 1_555
C26_3 C2_3 1_555 1_555
H22_3 C26_3 1_555 1_555
N1_3 C21_3 1_555 1_555
N2_3 C3_3 1_555 1_555
N5_3 Zn2_2 1_555 1_555
N6_2 C16_3 1_555 1_555
O1_3 Zn2_2 1_555 1_555
O2_3 C7_3 1_555 1_555
O10_3 Zn2_2 1_555 1_555
Zn4_3 N8_3 1_555 1_555
Zn5_2 N6_2 1_555 1_555
N10_2 Zn2_2 1_555 1_555
C5_3 N8_3 1_555 1_555
C7_3 O1_3 1_555 1_555
C9_3 N2_3 1_555 1_555
C12_3 N5_3 1_555 1_555
C13_3 C15_3 1_555 1_555
C16_3 C26_3 1_555 1_555
C22_3 N1_3 1_555 1_555
C22_3 O10_3 1_555 1_555
C23_3 N6_2 1_555 1_555
C17_3 H6_3 1_555 1_555
C19_3 H7_3 1_555 1_555
H8_3 C19_3 1_555 1_555
H17_3 C24_3 1_555 1_555
H18_3 C24_3 1_555 1_555
N7_3 C17_3 1_555 1_555
O3_3 Zn3 1_555 1_555
O4_3 C1_3 1_555 1_555
O9_3 Zn3 1_555 1_555
N11_3 Zn3 1_555 1_555
C1_3 O3_3 1_555 1_555
C17_3 O9_3 1_555 1_555
C19_3 N7_3 1_555 1_555
C24_3 N7_3 1_555 1_555
C4_2 H1_2 1_555 1_555
C6_3 C8_3 1_555 1_555
C8_3 C10_3 1_555 1_555
C10_3 C18_3 1_555 1_555
C11_3 N3_3 1_555 1_555
C14_3 C4_2 1_555 1_555
H3_3 C14_3 1_555 1_555
C18_3 O7_3 1_555 1_555
C25_2 H19_3 1_555 1_555
H20_2 C25_2 1_555 1_555
H21_2 C25_2 1_555 1_555
O11 C6_3 1_555 1_555
O6_3 C6_3 1_555 1_555
O8_3 C18_3 1_555 1_555
H24_3 O8_3 1_555 1_555
Zn3_2 N3_4 1_555 1_555
Zn5_2 N2_4 1_555 1_555
C1_4 C11_4 1_555 1_555
C2_4 C12_4 1_555 1_555
C3_4 C13_4 1_555 1_555
C4_3 H1_3 1_555 1_555
C5_4 H2_4 1_555 1_555
C6_4 C8_4 1_555 1_555
C7_4 C9_4 1_555 1_555
C8_4 C10_4 1_555 1_555
C9_4 C11_4 1_555 1_555
C10_4 C18_4 1_555 1_555
C11_4 N3_4 1_555 1_555
C12_4 N9_2 1_555 1_555
C13_4 C14_4 1_555 1_555
C14_4 C4_3 1_555 1_555
H3_4 C14_4 1_555 1_555
C15_4 C5_4 1_555 1_555
H4_4 C15_4 1_555 1_555
C16_4 H5_4 1_555 1_555
C17_4 H6_4 1_555 1_555
C18_4 O7_4 1_555 1_555
C19_4 H7_4 1_555 1_555
H8_4 C19_4 1_555 1_555
H9_4 C19_4 1_555 1_555
C20_4 C2_4 1_555 1_555
H10_4 C20_4 1_555 1_555
C21_4 H11_4 1_555 1_555
H12_4 C21_4 1_555 1_555
H13_4 C21_4 1_555 1_555
C22_4 H14_4 1_555 1_555
C23_4 C20_4 1_555 1_555
H15_4 C23_4 1_555 1_555
C24_4 H16_4 1_555 1_555
H17_4 C24_4 1_555 1_555
H18_4 C24_4 1_555 1_555
C25_3 H19_4 1_555 1_555
H20_3 C25_3 1_555 1_555
H21_3 C25_3 1_555 1_555
C26_4 C2_4 1_555 1_555
H22_4 C26_4 1_555 1_555
N1_4 C21_4 1_555 1_555
N2_4 C3_4 1_555 1_555
N3_4 C3_4 1_555 1_555
N9_2 C8_4 1_555 1_555
N5_4 Zn5_2 1_555 1_555
N10_2 C16_4 1_555 1_555
N7_4 C17_4 1_555 1_555
N8_4 C4_3 1_555 1_555
O1_4 Zn5_2 1_555 1_555
O2_4 C7_4 1_555 1_555
O3_4 Zn3_2 1_555 1_555
O4_4 C1_4 1_555 1_555
H23_4 O4_4 1_555 1_555
O11_2 C6_4 1_555 1_555
O6_4 C6_4 1_555 1_555
O7_4 Zn5_2 1_555 1_555
O8_4 C18_4 1_555 1_555
H24_4 O8_4 1_555 1_555
O9_4 Zn3_2 1_555 1_555
O10_4 Zn5_2 1_555 1_555
Zn4_4 N8_4 1_555 1_555
N11_4 Zn3_2 1_555 1_555
C1_4 O3_4 1_555 1_555
C5_4 N8_4 1_555 1_555
C7_4 O1_4 1_555 1_555
C9_4 N2_4 1_555 1_555
C10_4 N5_4 1_555 1_555
C12_4 N5_4 1_555 1_555
C13_4 C15_4 1_555 1_555
C16_4 C26_4 1_555 1_555
C17_4 O9_4 1_555 1_555
C19_4 N7_4 1_555 1_555
C22_4 N1_4 1_555 1_555
C22_4 O10_4 1_555 1_555
C23_4 N10_2 1_555 1_555
C24_4 N7_4 1_555 1_555
C25_3 N1_4 1_555 1_555
C5_5 H2_5 1_555 1_555
C21_5 H11_5 1_555 1_555
H12_5 C21_5 1_555 1_555
H13_5 C21_5 1_555 1_555
C5_5 N11 1_555 1_555
Zn2_3 N2_5 1_555 1_555
C2_5 C12_5 1_555 1_555
C3_5 C13_5 1_555 1_555
C7_5 C9_5 1_555 1_555
C12_5 N4_3 1_555 1_555
H4_5 C15_5 1_555 1_555
C16_5 H5_5 1_555 1_555
C20_5 C2_5 1_555 1_555
H10_5 C20_5 1_555 1_555
C23_5 C20_5 1_555 1_555
H15_5 C23_5 1_555 1_555
C26_5 C2_5 1_555 1_555
H22_5 C26_5 1_555 1_555
N2_5 C3_5 1_555 1_555
N5_5 Zn2_3 1_555 1_555
N6_3 C16_5 1_555 1_555
O1_5 Zn2_3 1_555 1_555
O2_5 C7_5 1_555 1_555
O10_5 Zn2_3 1_555 1_555
Zn4_3 N4_3 1_555 1_555
Zn5_3 N6_3 1_555 1_555
N10_3 Zn2_3 1_555 1_555
C7_5 O1_5 1_555 1_555
C9_5 N2_5 1_555 1_555
C12_5 N5_5 1_555 1_555
C13_5 C15_5 1_555 1_555
C16_5 C26_5 1_555 1_555
C22_5 N1_5 1_555 1_555
C22_5 O10_5 1_555 1_555
C23_5 N6_3 1_555 1_555
Zn4 N3_5 1_555 1_555
C1_5 C11_5 1_555 1_555
C6_5 C8_5 1_555 1_555
C8_5 C10_5 1_555 1_555
C10_5 C18_5 1_555 1_555
C11_5 N3_5 1_555 1_555
H3_5 C14_5 1_555 1_555
C17_5 H6_5 1_555 1_555
C18_5 O7_5 1_555 1_555
C19_5 H7_5 1_555 1_555
H8_5 C19_5 1_555 1_555
H9_5 C19_5 1_555 1_555
C24_5 H16_5 1_555 1_555
H17_5 C24_5 1_555 1_555
H18_5 C24_5 1_555 1_555
N7_5 C17_5 1_555 1_555
O3_5 Zn4 1_555 1_555
O4_5 C1_5 1_555 1_555
O5_3 C6_5 1_555 1_555
O6_5 C6_5 1_555 1_555
O8_5 C18_5 1_555 1_555
H24_5 O8_5 1_555 1_555
O9_5 Zn4 1_555 1_555
N9_3 Zn4 1_555 1_555
C1_5 O3_5 1_555 1_555
C17_5 O9_5 1_555 1_555
C19_5 N7_5 1_555 1_555
C24_5 N7_5 1_555 1_555
C17_6 H6_6 1_555 1_555
C19_6 H7_6 1_555 1_555
H8_6 C19_6 1_555 1_555
H17_6 C24_6 1_555 1_555
H18_6 C24_6 1_555 1_555
N7_6 C17_6 1_555 1_555
O3_6 Zn4_2 1_555 1_555
O4_6 C1_6 1_555 1_555
H23_6 O4_6 1_555 1_555
O9_6 Zn4_2 1_555 1_555
N9_4 Zn4_2 1_555 1_555
O11_4 Zn4_2 1_555 1_555
C1_6 O3_6 1_555 1_555
C17_6 O9_6 1_555 1_555
C19_6 N7_6 1_555 1_555
C24_6 N7_6 1_555 1_555
C4_4 H1_4 1_555 1_555
C5_6 H2_6 1_555 1_555
C21_6 H11_6 1_555 1_555
H12_6 C21_6 1_555 1_555
H13_6 C21_6 1_555 1_555
H20_4 C25_4 1_555 1_555
H21_4 C25_4 1_555 1_555
N11_2 C4_4 1_555 1_555
C5_6 N11_2 1_555 1_555
Zn5_3 N2_6 1_555 1_555
C2_6 C12_6 1_555 1_555
C3_6 C13_6 1_555 1_555
C6_6 C8_6 1_555 1_555
C7_6 C9_6 1_555 1_555
C8_6 C10_6 1_555 1_555
C9_6 C11_6 1_555 1_555
C10_6 C18_6 1_555 1_555
C11_6 N3_6 1_555 1_555
C12_6 N4_4 1_555 1_555
C13_6 C14_6 1_555 1_555
H3_6 C14_6 1_555 1_555
H4_6 C15_6 1_555 1_555
C16_6 H5_6 1_555 1_555
C18_6 O7_6 1_555 1_555
C20_6 C2_6 1_555 1_555
H10_6 C20_6 1_555 1_555
C22_6 H14_6 1_555 1_555
C23_6 C20_6 1_555 1_555
H15_6 C23_6 1_555 1_555
C26_6 C2_6 1_555 1_555
H22_6 C26_6 1_555 1_555
N2_6 C3_6 1_555 1_555
N3_6 C3_6 1_555 1_555
N4_4 C8_6 1_555 1_555
N5_6 Zn5_3 1_555 1_555
N10_3 C16_6 1_555 1_555
O1_6 Zn5_3 1_555 1_555
O2_6 C7_6 1_555 1_555
O5_4 C6_6 1_555 1_555
O6_6 C6_6 1_555 1_555
O7_6 Zn5_3 1_555 1_555
O8_6 C18_6 1_555 1_555
H24_6 O8_6 1_555 1_555
O10_6 Zn5_3 1_555 1_555
Zn4_4 N4_4 1_555 1_555
C7_6 O1_6 1_555 1_555
C9_6 N2_6 1_555 1_555
C10_6 N5_6 1_555 1_555
C12_6 N5_6 1_555 1_555
C13_6 C15_6 1_555 1_555
C16_6 C26_6 1_555 1_555
C22_6 N1_6 1_555 1_555
C22_6 O10_6 1_555 1_555
C23_6 N10_3 1_555 1_555
O5_4 Zn4_4 1_555 1_555
C4_5 H1_5 1_555 1_555
C6_7 C8_7 1_555 1_555
C8_7 C10_7 1_555 1_555
C10_7 C18_7 1_555 1_555
C11_7 N3_7 1_555 1_555
C14_7 C4_5 1_555 1_555
H3_7 C14_7 1_555 1_555
C18_7 O7_7 1_555 1_555
C25_5 H19_7 1_555 1_555
H20_5 C25_5 1_555 1_555
H21_5 C25_5 1_555 1_555
O11_3 C6_7 1_555 1_555
O6_7 C6_7 1_555 1_555
O8_7 C18_7 1_555 1_555
H24_7 O8_7 1_555 1_555
C17_7 H6_7 1_555 1_555
C19_7 H7_7 1_555 1_555
H8_7 C19_7 1_555 1_555
H17_7 C24_7 1_555 1_555
H18_7 C24_7 1_555 1_555
N7_7 C17_7 1_555 1_555
O3_7 Zn4_3 1_555 1_555
O4_7 C1_7 1_555 1_555
O9_7 Zn4_3 1_555 1_555
C1_7 O3_7 1_555 1_555
C17_7 O9_7 1_555 1_555
C19_7 N7_7 1_555 1_555
C24_7 N7_7 1_555 1_555
Zn2_4 N2_7 1_555 1_555
C2_7 C12_7 1_555 1_555
C3_7 C13_7 1_555 1_555
C5_7 H2_7 1_555 1_555
C7_7 C9_7 1_555 1_555
C12_7 N9_3 1_555 1_555
C15_7 C5_7 1_555 1_555
H4_7 C15_7 1_555 1_555
C16_7 H5_7 1_555 1_555
C20_7 C2_7 1_555 1_555
H10_7 C20_7 1_555 1_555
C21_7 H11_7 1_555 1_555
H12_7 C21_7 1_555 1_555
H13_7 C21_7 1_555 1_555
C23_7 C20_7 1_555 1_555
H15_7 C23_7 1_555 1_555
C26_7 C2_7 1_555 1_555
H22_7 C26_7 1_555 1_555
N1_7 C21_7 1_555 1_555
N2_7 C3_7 1_555 1_555
N5_7 Zn2_4 1_555 1_555
N6_4 C16_7 1_555 1_555
O1_7 Zn2_4 1_555 1_555
O2_7 C7_7 1_555 1_555
O10_7 Zn2_4 1_555 1_555
Zn5_4 N6_4 1_555 1_555
N10_4 Zn2_4 1_555 1_555
C5_7 N11_3 1_555 1_555
C7_7 O1_7 1_555 1_555
C9_7 N2_7 1_555 1_555
C12_7 N5_7 1_555 1_555
C13_7 C15_7 1_555 1_555
C16_7 C26_7 1_555 1_555
C22_7 N1_7 1_555 1_555
C22_7 O10_7 1_555 1_555
C23_7 N6_4 1_555 1_555
Zn4_4 N3_8 1_555 1_555
Zn5_4 N2_8 1_555 1_555
C1_8 C11_8 1_555 1_555
C2_8 C12_8 1_555 1_555
C3_8 C13_8 1_555 1_555
C4_6 H1_6 1_555 1_555
C5_8 H2_8 1_555 1_555
C6_8 C8_8 1_555 1_555
C7_8 C9_8 1_555 1_555
C8_8 C10_8 1_555 1_555
C9_8 C11_8 1_555 1_555
C10_8 C18_8 1_555 1_555
C11_8 N3_8 1_555 1_555
C12_8 N9_4 1_555 1_555
C13_8 C14_8 1_555 1_555
C14_8 C4_6 1_555 1_555
H3_8 C14_8 1_555 1_555
C15_8 C5_8 1_555 1_555
H4_8 C15_8 1_555 1_555
C16_8 H5_8 1_555 1_555
C17_8 H6_8 1_555 1_555
C18_8 O7_8 1_555 1_555
C19_8 H7_8 1_555 1_555
H8_8 C19_8 1_555 1_555
H9_8 C19_8 1_555 1_555
C20_8 C2_8 1_555 1_555
H10_8 C20_8 1_555 1_555
C21_8 H11_8 1_555 1_555
H12_8 C21_8 1_555 1_555
H13_8 C21_8 1_555 1_555
C22_8 H14_8 1_555 1_555
C23_8 C20_8 1_555 1_555
H15_8 C23_8 1_555 1_555
C24_8 H16_8 1_555 1_555
H17_8 C24_8 1_555 1_555
H18_8 C24_8 1_555 1_555
C25_6 H19_8 1_555 1_555
H20_6 C25_6 1_555 1_555
H21_6 C25_6 1_555 1_555
C26_8 C2_8 1_555 1_555
H22_8 C26_8 1_555 1_555
N1_8 C21_8 1_555 1_555
N2_8 C3_8 1_555 1_555
N3_8 C3_8 1_555 1_555
N9_4 C8_8 1_555 1_555
N5_8 Zn5_4 1_555 1_555
N10_4 C16_8 1_555 1_555
N7_8 C17_8 1_555 1_555
N11_4 C4_6 1_555 1_555
O1_8 Zn5_4 1_555 1_555
O2_8 C7_8 1_555 1_555
O3_8 Zn4_4 1_555 1_555
O4_8 C1_8 1_555 1_555
H23_8 O4_8 1_555 1_555
O11_4 C6_8 1_555 1_555
O6_8 C6_8 1_555 1_555
O7_8 Zn5_4 1_555 1_555
O8_8 C18_8 1_555 1_555
H24_8 O8_8 1_555 1_555
O9_8 Zn4_4 1_555 1_555
O10_8 Zn5_4 1_555 1_555
C1_8 O3_8 1_555 1_555
C5_8 N11_4 1_555 1_555
C7_8 O1_8 1_555 1_555
C9_8 N2_8 1_555 1_555
C10_8 N5_8 1_555 1_555
C12_8 N5_8 1_555 1_555
C13_8 C15_8 1_555 1_555
C16_8 C26_8 1_555 1_555
C17_8 O9_8 1_555 1_555
C19_8 N7_8 1_555 1_555
C22_8 N1_8 1_555 1_555
C22_8 O10_8 1_555 1_555
C23_8 N10_4 1_555 1_555
C24_8 N7_8 1_555 1_555
C25_6 N1_8 1_555 1_555
C4_7 H1_7 1_555 1_555
H20_7 C25_7 1_555 1_555
H21_7 C25_7 1_555 1_555
C4_8 H1_8 1_555 1_555
H20_8 C25_8 1_555 1_555
H21_8 C25_8 1_555 1_555

#END
