
###############################################################################
#
# This file contains modified crystal structure data generated from the
# MOF subset of the Cambridge Structural Database (CSD) v543 
# hosted by the Cambridge Crystallographic Data Centre (CCDC).
#
# This work is licensed under the Creative Commons
# Attribution-NonCommercial-ShareAlike 4.0 International License.
# To view a copy of this license, visit
# http://creativecommons.org/licenses/by-nc-sa/4.0/
# or send a letter to
# Creative Commons, PO Box 1866, Mountain View, CA 94042, USA.
#
# CIF created using the CSD Python API on 29 September 2022
# The structure has been converted into the P1 space group
# The structure has a 3D framework
# The original CSD entry IQEKAQ is in the orthorhombic crystal system
# The framework has been calculated to contain at least 10.0% void space
# The void calculation uses a probe of radius 1.32A, grid spacing 0.4
# The framework is charged, counterions have been retained in the structure
#
###############################################################################

data_IQEKAQ
_chemical_formula_moiety         '(C72 H120 Cl8 Cu9 N96 O32 10+)n'
_symmetry_cell_setting           triclinic
_symmetry_space_group_name_H-M   'P 1'
_symmetry_Int_Tables_number      1
_space_group_name_Hall           'P 1'
loop_
_symmetry_equiv_pos_site_id
_symmetry_equiv_pos_as_xyz
1 x,y,z
_cell_length_a                   12.2091(18)
_cell_length_b                   15.7787(19)
_cell_length_c                   20.281(3)
_cell_angle_alpha                90
_cell_angle_beta                 90
_cell_angle_gamma                90
_cell_volume                     3907.01
loop_
_atom_site_label
_atom_site_type_symbol
_atom_site_fract_x
_atom_site_fract_y
_atom_site_fract_z
Cu3 Cu -0.0000 0.0000 0.5000
Cu3_2 Cu -0.0000 1.0000 0.5000
N5 N 0.2915(2) 0.03252(18) 0.39463(14)
N6 N 0.3112(2) 0.06182(17) 0.45513(14)
N7 N 0.2292(2) 0.05423(17) 0.49629(14)
N8 N 0.1494(2) 0.01829(16) 0.46123(13)
C2 C 0.1897(3) 0.0055(2) 0.40041(17)
N9 N 0.0778(2) 0.26183(18) 0.07924(14)
N10 N 0.0646(2) 0.31203(17) 0.13158(13)
N11 N 0.0316(2) 0.38924(18) 0.11797(14)
N12 N 0.0208(2) 0.39082(17) 0.05278(13)
C3 C 0.0493(3) 0.3137(2) 0.03093(19)
C6 C 0.5086(3) 0.0347(2) 0.4743(2)
C7 C 0.4167(3) 0.1000(3) 0.4741(2)
C8 C 0.0948(3) 0.2866(2) 0.19962(17)
C9 C 0.0438(3) 0.2024(3) 0.2188(2)
H8 H 0.407(3) 0.124(2) 0.5117(18)
H9 H 0.430(3) 0.146(2) 0.4412(18)
H10 H 0.577(3) 0.0606(19) 0.4876(15)
H11 H 0.515(4) 0.015(3) 0.431(2)
H12 H 0.167(4) 0.282(3) 0.2019(19)
H13 H 0.071(3) 0.333(3) 0.2278(18)
H14 H 0.072(4) 0.191(3) 0.260(2)
H15 H 0.067(3) 0.154(2) 0.1921(18)
H16 H 0.852(2) 0.0196(19) 0.6357(14)
N26 N 0.0208(2) 0.10918(17) 0.55278(13)
Cu2 Cu 0.0000 0.5000 0.0000
Cu3_3 Cu 1.0000 0.0000 0.5000
H3 H 0.056(4) 0.301(3) 0.993(2)
Cu2_2 Cu -0.0000 0.5000 1.0000
H2 H 0.148(2) 0.9804(19) 0.3643(14)
C10 C 0.4914(3) 0.9653(2) 0.5257(2)
C11 C 0.5833(3) 0.9000(3) 0.5259(2)
N13 N 0.6888(2) 0.93818(17) 0.54487(14)
N14 N 0.7085(2) 0.96748(18) 0.60537(14)
C12 C 0.8103(3) 0.9945(2) 0.59959(17)
N15 N 0.8506(2) 0.98171(16) 0.53877(13)
N16 N 0.7708(2) 0.94577(17) 0.50371(14)
H17 H 0.593(3) 0.876(2) 0.4883(18)
H18 H 0.570(3) 0.854(2) 0.5588(18)
H19 H 0.423(3) 0.9394(19) 0.5124(15)
H20 H 0.485(4) 0.985(3) 0.569(2)
N17 N 0.1967(2) 0.8352(2) 0.64570(14)
N18 N 0.1265(2) 0.87806(19) 0.68363(14)
N19 N 0.0547(2) 0.92466(19) 0.65118(13)
N20 N 0.0786(2) 0.91249(19) 0.58738(13)
C13 C 0.1640(3) 0.8584(2) 0.58696(19)
C15 C 0.1331(3) 0.8761(3) 0.75574(18)
C16 C 0.0806(4) 0.7964(3) 0.7842(2)
H21 H 0.190(3) 0.840(2) 0.5537(17)
H23 H 0.100(3) 0.923(3) 0.7746(19)
H24 H 0.213(3) 0.883(2) 0.7674(16)
H25 H 0.101(3) 0.799(3) 0.828(2)
H26 H 0.103(4) 0.754(3) 0.762(2)
Cu3_4 Cu 1.0000 1.0000 0.5000
N1 N 0.8033(2) 0.1648(2) 0.35430(14)
N2 N 0.8735(2) 0.12194(19) 0.31637(14)
N3 N 0.9453(2) 0.07534(19) 0.34882(13)
N4 N 0.9214(2) 0.08751(19) 0.41262(13)
C1 C 0.8360(3) 0.1416(2) 0.41304(19)
C4 C 0.8669(3) 0.1239(3) 0.24426(18)
C5 C 0.9194(4) 0.2036(3) 0.2158(2)
H1 H 0.810(3) 0.160(2) 0.4463(17)
H4 H 0.900(3) 0.077(3) 0.2254(19)
H5 H 0.787(3) 0.117(2) 0.2326(16)
H6 H 0.899(3) 0.201(3) 0.172(2)
H7 H 0.897(4) 0.246(3) 0.238(2)
Cu2_3 Cu 1.0000 0.5000 0.0000
Cu2_4 Cu 1.0000 0.5000 1.0000
H22 H 0.944(4) 0.699(3) 0.007(2)
N21 N 0.9222(2) 0.73817(18) 0.92076(14)
N22 N 0.9354(2) 0.68797(17) 0.86842(13)
N23 N 0.9684(2) 0.61076(18) 0.88203(14)
N24 N 0.9792(2) 0.60918(17) 0.94722(13)
C14 C 0.9507(3) 0.6863(2) 0.96907(19)
C17 C 0.9052(3) 0.7134(2) 0.80038(17)
C18 C 0.9562(3) 0.7976(3) 0.7812(2)
H27 H 0.833(4) 0.718(3) 0.7981(19)
H28 H 0.929(3) 0.667(3) 0.7722(18)
H29 H 0.928(4) 0.809(3) 0.740(2)
H30 H 0.933(3) 0.846(2) 0.8079(18)
N27 N 0.9792(2) 0.89082(17) 0.44722(13)
H8_2 H 0.407(3) 0.376(2) 0.0117(18)
C10_2 C 0.4914(3) 0.5347(2) 0.0257(2)
C11_2 C 0.5833(3) 0.6000(3) 0.0259(2)
N13_2 N 0.6888(2) 0.56182(17) 0.04487(14)
N14_2 N 0.7085(2) 0.53252(18) 0.10537(14)
C12_2 C 0.8103(3) 0.5055(2) 0.09959(17)
N15_2 N 0.8506(2) 0.51829(16) 0.03877(13)
N16_2 N 0.7708(2) 0.55423(17) 0.00371(14)
H16_2 H 0.852(2) 0.4804(19) 0.1357(14)
H18_2 H 0.570(3) 0.646(2) 0.0588(18)
H19_2 H 0.423(3) 0.5606(19) 0.0124(15)
H20_2 H 0.485(4) 0.515(3) 0.069(2)
N17_2 N 0.1967(2) 0.6648(2) 0.14570(14)
N18_2 N 0.1265(2) 0.62194(19) 0.18363(14)
N19_2 N 0.0547(2) 0.57534(19) 0.15118(13)
N20_2 N 0.0786(2) 0.58751(19) 0.08738(13)
C13_2 C 0.1640(3) 0.6416(2) 0.08696(19)
C15_2 C 0.1331(3) 0.6239(3) 0.25574(18)
C16_2 C 0.0806(4) 0.7036(3) 0.2842(2)
H21_2 H 0.190(3) 0.660(2) 0.0537(17)
H23_2 H 0.100(3) 0.577(3) 0.2746(19)
H24_2 H 0.213(3) 0.617(2) 0.2674(16)
H25_2 H 0.101(3) 0.701(3) 0.328(2)
H26_2 H 0.103(4) 0.746(3) 0.262(2)
N5_2 N 0.2915(2) 0.46748(18) 0.89463(14)
N6_2 N 0.3112(2) 0.43818(17) 0.95513(14)
N7_2 N 0.2292(2) 0.44577(17) 0.99629(14)
N8_2 N 0.1494(2) 0.48171(16) 0.96123(13)
C2_2 C 0.1897(3) 0.4945(2) 0.90041(17)
N9_2 N 0.0778(2) 0.23817(18) 0.57924(14)
N10_2 N 0.0646(2) 0.18797(17) 0.63158(13)
N11_2 N 0.0316(2) 0.11076(18) 0.61797(14)
C3_2 C 0.0493(3) 0.1863(2) 0.53093(19)
C6_2 C 0.5086(3) 0.4653(2) 0.9743(2)
C7_2 C 0.4167(3) 0.4000(3) 0.9741(2)
C8_2 C 0.0948(3) 0.2134(2) 0.69962(17)
C9_2 C 0.0438(3) 0.2976(3) 0.7188(2)
H2_2 H 0.148(2) 0.5196(19) 0.8643(14)
H3_2 H 0.056(4) 0.199(3) 0.493(2)
H9_2 H 0.430(3) 0.354(2) 0.9412(18)
H10_2 H 0.577(3) 0.4394(19) 0.9876(15)
H11_2 H 0.515(4) 0.485(3) 0.931(2)
H12_2 H 0.167(4) 0.218(3) 0.7019(19)
H13_2 H 0.071(3) 0.167(3) 0.7278(18)
H14_2 H 0.072(4) 0.309(3) 0.760(2)
H15_2 H 0.067(3) 0.346(2) 0.6921(18)
H17_2 H 0.593(3) 0.624(2) 0.9883(18)
N21_2 N 0.9222(2) 0.76183(18) 0.42076(14)
N22_2 N 0.9354(2) 0.81203(17) 0.36842(13)
N23_2 N 0.9684(2) 0.88924(18) 0.38203(14)
C14_2 C 0.9507(3) 0.8137(2) 0.46907(19)
C17_2 C 0.9052(3) 0.7866(2) 0.30038(17)
C18_2 C 0.9562(3) 0.7024(3) 0.2812(2)
H22_2 H 0.944(4) 0.801(3) 0.507(2)
H27_2 H 0.833(4) 0.782(3) 0.2981(19)
H28_2 H 0.929(3) 0.833(3) 0.2722(18)
H29_2 H 0.928(4) 0.691(3) 0.240(2)
H30_2 H 0.933(3) 0.654(2) 0.3079(18)
N1_2 N 0.8033(2) 0.3352(2) 0.85430(14)
N2_2 N 0.8735(2) 0.37806(19) 0.81637(14)
N3_2 N 0.9453(2) 0.42466(19) 0.84882(13)
N4_2 N 0.9214(2) 0.41249(19) 0.91262(13)
C1_2 C 0.8360(3) 0.3584(2) 0.91304(19)
C4_2 C 0.8669(3) 0.3761(3) 0.74426(18)
C5_2 C 0.9194(4) 0.2964(3) 0.7158(2)
H1_2 H 0.810(3) 0.340(2) 0.9463(17)
H4_2 H 0.900(3) 0.423(3) 0.7254(19)
H5_2 H 0.787(3) 0.383(2) 0.7326(16)
H6_2 H 0.899(3) 0.299(3) 0.672(2)
H7_2 H 0.897(4) 0.254(3) 0.738(2)
C6_3 C 0.0086(3) 0.0347(2) 0.0257(2)
H10_3 H 0.077(3) 0.0606(19) 0.0124(15)
H11_3 H 0.015(4) 0.015(3) 0.069(2)
Cu3_5 Cu 0.5000 0.0000 0.0000
H16_3 H 0.352(2) 0.0196(19) 0.8643(14)
Cu3_6 Cu 0.5000 0.0000 1.0000
H17_3 H 0.093(3) 0.876(2) 0.0117(18)
Cu3_7 Cu 0.5000 1.0000 0.0000
C11_3 C 0.0833(3) 0.9000(3) 0.9741(2)
N13_3 N 0.1888(2) 0.93818(17) 0.95513(14)
N14_3 N 0.2085(2) 0.96748(18) 0.89463(14)
C12_3 C 0.3103(3) 0.9945(2) 0.90041(17)
N15_3 N 0.3506(2) 0.98171(16) 0.96123(13)
N16_3 N 0.2708(2) 0.94577(17) 0.99629(14)
H18_3 H 0.070(3) 0.854(2) 0.9412(18)
Cu3_8 Cu 0.5000 1.0000 1.0000
N1_3 N 0.3033(2) 0.1648(2) 0.14570(14)
N2_3 N 0.3735(2) 0.12194(19) 0.18363(14)
N3_3 N 0.4453(2) 0.07534(19) 0.15118(13)
N4_3 N 0.4214(2) 0.08751(19) 0.08738(13)
C1_3 C 0.3360(3) 0.1416(2) 0.08696(19)
N5_3 N 0.7915(2) 0.03252(18) 0.10537(14)
N6_3 N 0.8112(2) 0.06182(17) 0.04487(14)
N7_3 N 0.7292(2) 0.05423(17) 0.00371(14)
N8_3 N 0.6494(2) 0.01829(16) 0.03877(13)
C2_3 C 0.6897(3) 0.0055(2) 0.09959(17)
N9_3 N 0.5778(2) 0.26183(18) 0.42076(14)
N10_3 N 0.5646(2) 0.31203(17) 0.36842(13)
N11_3 N 0.5316(2) 0.38924(18) 0.38203(14)
N12_2 N 0.5208(2) 0.39082(17) 0.44722(13)
C3_3 C 0.5493(3) 0.3137(2) 0.46907(19)
C4_3 C 0.3669(3) 0.1239(3) 0.25574(18)
C5_3 C 0.4194(4) 0.2036(3) 0.2842(2)
C7_3 C 0.9167(3) 0.1000(3) 0.0259(2)
C8_3 C 0.5948(3) 0.2866(2) 0.30038(17)
C9_3 C 0.5438(3) 0.2024(3) 0.2812(2)
H1_3 H 0.310(3) 0.160(2) 0.0537(17)
H3_3 H 0.556(4) 0.301(3) 0.507(2)
H4_3 H 0.400(3) 0.077(3) 0.2746(19)
H5_3 H 0.287(3) 0.117(2) 0.2674(16)
H6_3 H 0.399(3) 0.201(3) 0.328(2)
H7_3 H 0.397(4) 0.246(3) 0.262(2)
H9_3 H 0.930(3) 0.146(2) 0.0588(18)
H12_3 H 0.667(4) 0.282(3) 0.2981(19)
H13_3 H 0.571(3) 0.333(3) 0.2722(18)
H14_3 H 0.572(4) 0.191(3) 0.240(2)
H15_3 H 0.567(3) 0.154(2) 0.3079(18)
Cu2_5 Cu 0.5000 0.5000 0.5000
H8_3 H 0.907(3) 0.124(2) 0.9883(18)
N26_2 N 0.5208(2) 0.10918(17) 0.94722(13)
H2_3 H 0.648(2) 0.9804(19) 0.1357(14)
N27_2 N 0.4792(2) 0.89082(17) 0.05278(13)
C10_3 C 0.9914(3) 0.9653(2) 0.9743(2)
H19_3 H 0.923(3) 0.9394(19) 0.9876(15)
H20_3 H 0.985(4) 0.985(3) 0.931(2)
N17_3 N 0.6967(2) 0.8352(2) 0.85430(14)
N18_3 N 0.6265(2) 0.87806(19) 0.81637(14)
N19_3 N 0.5547(2) 0.92466(19) 0.84882(13)
N20_3 N 0.5786(2) 0.91249(19) 0.91262(13)
C13_3 C 0.6640(3) 0.8584(2) 0.91304(19)
N21_3 N 0.4222(2) 0.73817(18) 0.57924(14)
N22_3 N 0.4354(2) 0.68797(17) 0.63158(13)
N23_3 N 0.4684(2) 0.61076(18) 0.61797(14)
N24_2 N 0.4792(2) 0.60918(17) 0.55278(13)
C14_3 C 0.4507(3) 0.6863(2) 0.53093(19)
C15_3 C 0.6331(3) 0.8761(3) 0.74426(18)
C16_3 C 0.5806(4) 0.7964(3) 0.7158(2)
C17_3 C 0.4052(3) 0.7134(2) 0.69962(17)
C18_3 C 0.4562(3) 0.7976(3) 0.7188(2)
H21_3 H 0.690(3) 0.840(2) 0.9463(17)
H22_3 H 0.444(4) 0.699(3) 0.493(2)
H23_3 H 0.600(3) 0.923(3) 0.7254(19)
H24_3 H 0.713(3) 0.883(2) 0.7326(16)
H25_3 H 0.601(3) 0.799(3) 0.672(2)
H26_3 H 0.603(4) 0.754(3) 0.738(2)
H27_3 H 0.333(4) 0.718(3) 0.7019(19)
H28_3 H 0.429(3) 0.667(3) 0.7278(18)
H29_3 H 0.428(4) 0.809(3) 0.760(2)
H30_3 H 0.433(3) 0.846(2) 0.6921(18)
H22_4 H 0.556(4) 0.199(3) 0.007(2)
N1_4 N 0.6967(2) 0.6648(2) 0.35430(14)
N2_4 N 0.6265(2) 0.62194(19) 0.31637(14)
N3_4 N 0.5547(2) 0.57534(19) 0.34882(13)
N4_4 N 0.5786(2) 0.58751(19) 0.41262(13)
C1_4 C 0.6640(3) 0.6416(2) 0.41304(19)
N5_4 N 0.2085(2) 0.53252(18) 0.39463(14)
N6_4 N 0.1888(2) 0.56182(17) 0.45513(14)
N7_4 N 0.2708(2) 0.55423(17) 0.49629(14)
N8_4 N 0.3506(2) 0.51829(16) 0.46123(13)
C2_4 C 0.3103(3) 0.5055(2) 0.40041(17)
N9_4 N 0.4222(2) 0.76183(18) 0.07924(14)
N10_4 N 0.4354(2) 0.81203(17) 0.13158(13)
N11_4 N 0.4684(2) 0.88924(18) 0.11797(14)
C3_4 C 0.4507(3) 0.8137(2) 0.03093(19)
C4_4 C 0.6331(3) 0.6239(3) 0.24426(18)
C5_4 C 0.5806(4) 0.7036(3) 0.2158(2)
C7_4 C 0.0833(3) 0.6000(3) 0.4741(2)
C8_4 C 0.4052(3) 0.7866(2) 0.19962(17)
C9_4 C 0.4562(3) 0.7024(3) 0.2188(2)
H1_4 H 0.690(3) 0.660(2) 0.4463(17)
H2_4 H 0.352(2) 0.4804(19) 0.3643(14)
H4_4 H 0.600(3) 0.577(3) 0.2254(19)
H5_4 H 0.713(3) 0.617(2) 0.2326(16)
H6_4 H 0.601(3) 0.701(3) 0.172(2)
H7_4 H 0.603(4) 0.746(3) 0.238(2)
H8_4 H 0.093(3) 0.624(2) 0.5117(18)
H9_4 H 0.070(3) 0.646(2) 0.4412(18)
H12_4 H 0.333(4) 0.782(3) 0.2019(19)
H13_4 H 0.429(3) 0.833(3) 0.2278(18)
H14_4 H 0.428(4) 0.691(3) 0.260(2)
H15_4 H 0.433(3) 0.654(2) 0.1921(18)
C10_4 C 0.0086(3) 0.4653(2) 0.5257(2)
H19_4 H 0.077(3) 0.4394(19) 0.5124(15)
H20_4 H 0.015(4) 0.485(3) 0.569(2)
N17_4 N 0.3033(2) 0.3352(2) 0.64570(14)
N18_4 N 0.3735(2) 0.37806(19) 0.68363(14)
N19_4 N 0.4453(2) 0.42466(19) 0.65118(13)
N20_4 N 0.4214(2) 0.41249(19) 0.58738(13)
C13_4 C 0.3360(3) 0.3584(2) 0.58696(19)
N21_4 N 0.5778(2) 0.23817(18) 0.92076(14)
N22_4 N 0.5646(2) 0.18797(17) 0.86842(13)
N23_4 N 0.5316(2) 0.11076(18) 0.88203(14)
C14_4 C 0.5493(3) 0.1863(2) 0.96907(19)
C15_4 C 0.3669(3) 0.3761(3) 0.75574(18)
C16_4 C 0.4194(4) 0.2964(3) 0.7842(2)
C17_4 C 0.5948(3) 0.2134(2) 0.80038(17)
C18_4 C 0.5438(3) 0.2976(3) 0.7812(2)
H21_4 H 0.310(3) 0.340(2) 0.5537(17)
H23_4 H 0.400(3) 0.423(3) 0.7746(19)
H24_4 H 0.287(3) 0.383(2) 0.7674(16)
H25_4 H 0.399(3) 0.299(3) 0.828(2)
H26_4 H 0.397(4) 0.254(3) 0.762(2)
H27_4 H 0.667(4) 0.218(3) 0.7981(19)
H28_4 H 0.571(3) 0.167(3) 0.7722(18)
H29_4 H 0.572(4) 0.309(3) 0.740(2)
H30_4 H 0.567(3) 0.346(2) 0.8079(18)
N25 N 0.6494(2) 0.48171(16) 0.53877(13)
H3_4 H 0.444(4) 0.801(3) 0.993(2)
C6_4 C 0.9914(3) 0.5347(2) 0.4743(2)
H10_4 H 0.923(3) 0.5606(19) 0.4876(15)
H11_4 H 0.985(4) 0.515(3) 0.431(2)
C11_4 C 0.9167(3) 0.4000(3) 0.5259(2)
N13_4 N 0.8112(2) 0.43818(17) 0.54487(14)
N14_4 N 0.7915(2) 0.46748(18) 0.60537(14)
C12_4 C 0.6897(3) 0.4945(2) 0.59959(17)
N16_4 N 0.7292(2) 0.44577(17) 0.50371(14)
H16_4 H 0.648(2) 0.5196(19) 0.6357(14)
H17_4 H 0.907(3) 0.376(2) 0.4883(18)
H18_4 H 0.930(3) 0.354(2) 0.5588(18)
Cl1 Cl 0.6925(3) 0.20830(17) 0.60908(13)
O1 O 0.7062(8) 0.1681(6) 0.6729(5)
O2 O 0.7857(5) 0.2019(4) 0.5670(3)
O3 O 0.6007(5) 0.1672(4) 0.5772(3)
O4 O 0.6613(6) 0.2962(4) 0.6196(3)
Cl1_2 Cl 0.1925(3) 0.20830(17) 0.89092(13)
O1_2 O 0.2062(8) 0.1681(6) 0.8271(5)
O2_2 O 0.2857(5) 0.2019(4) 0.9330(3)
O3_2 O 0.1007(5) 0.1672(4) 0.9228(3)
O4_2 O 0.1613(6) 0.2962(4) 0.8804(3)
Cl1_3 Cl 0.6925(3) 0.29170(17) 0.10908(13)
O1_3 O 0.7062(8) 0.3319(6) 0.1729(5)
O2_3 O 0.7857(5) 0.2981(4) 0.0670(3)
O3_3 O 0.6007(5) 0.3328(4) 0.0772(3)
O4_3 O 0.6613(6) 0.2038(4) 0.1196(3)
Cl1_4 Cl 0.8075(3) 0.70830(17) 0.60908(13)
O1_4 O 0.7938(8) 0.6681(6) 0.6729(5)
O2_4 O 0.7143(5) 0.7019(4) 0.5670(3)
O3_4 O 0.8993(5) 0.6672(4) 0.5772(3)
O4_4 O 0.8387(6) 0.7962(4) 0.6196(3)
Cl1_5 Cl 0.3075(3) 0.79170(17) 0.39092(13)
O1_5 O 0.2938(8) 0.8319(6) 0.3271(5)
O2_5 O 0.2143(5) 0.7981(4) 0.4330(3)
O3_5 O 0.3993(5) 0.8328(4) 0.4228(3)
O4_5 O 0.3387(6) 0.7038(4) 0.3804(3)
Cl1_6 Cl 0.8075(3) 0.79170(17) 0.10908(13)
O1_6 O 0.7938(8) 0.8319(6) 0.1729(5)
O2_6 O 0.7143(5) 0.7981(4) 0.0670(3)
O3_6 O 0.8993(5) 0.8328(4) 0.0772(3)
O4_6 O 0.8387(6) 0.7038(4) 0.1196(3)
Cl1_7 Cl 0.3075(3) 0.70830(17) 0.89092(13)
O1_7 O 0.2938(8) 0.6681(6) 0.8271(5)
O2_7 O 0.2143(5) 0.7019(4) 0.9330(3)
O3_7 O 0.3993(5) 0.6672(4) 0.9228(3)
O4_7 O 0.3387(6) 0.7962(4) 0.8804(3)
Cl1_8 Cl 0.1925(3) 0.29170(17) 0.39092(13)
O1_8 O 0.2062(8) 0.3319(6) 0.3271(5)
O2_8 O 0.2857(5) 0.2981(4) 0.4330(3)
O3_8 O 0.1007(5) 0.3328(4) 0.4228(3)
O4_8 O 0.1613(6) 0.2038(4) 0.3804(3)
loop_
_geom_bond_atom_site_label_1
_geom_bond_atom_site_label_2
_geom_bond_site_symmetry_1
_geom_bond_site_symmetry_2
N5 N6 1_555 1_555
N6 N7 1_555 1_555
N7 N8 1_555 1_555
N8 Cu3 1_555 1_555
C2 N5 1_555 1_555
N9 N10 1_555 1_555
N10 N11 1_555 1_555
N11 N12 1_555 1_555
N12 C3 1_555 1_555
C3 N9 1_555 1_555
C6 C7 1_555 1_555
C7 N6 1_555 1_555
C8 N10 1_555 1_555
H8 C7 1_555 1_555
H9 C7 1_555 1_555
H10 C6 1_555 1_555
H11 C6 1_555 1_555
H12 C8 1_555 1_555
H13 C8 1_555 1_555
H14 C9 1_555 1_555
H15 C9 1_555 1_555
N26 Cu3 1_555 1_555
Cu2 N12 1_555 1_555
N8 C2 1_555 1_555
C8 C9 1_555 1_555
C11 C10 1_555 1_555
N13 C11 1_555 1_555
N14 N13 1_555 1_555
C12 N14 1_555 1_555
N15 C12 1_555 1_555
N16 N13 1_555 1_555
H17 C11 1_555 1_555
H18 C11 1_555 1_555
H19 C10 1_555 1_555
H20 C10 1_555 1_555
N17 N18 1_555 1_555
N18 N19 1_555 1_555
N19 N20 1_555 1_555
N20 Cu3_2 1_555 1_555
C13 N17 1_555 1_555
C15 N18 1_555 1_555
C16 C15 1_555 1_555
H21 C13 1_555 1_555
H23 C15 1_555 1_555
H24 C15 1_555 1_555
H25 C16 1_555 1_555
H26 C16 1_555 1_555
Cu3_4 N15 1_555 1_555
N15 N16 1_555 1_555
N20 C13 1_555 1_555
Cu3_3 N4 1_555 1_555
N1 N2 1_555 1_555
N2 N3 1_555 1_555
N3 N4 1_555 1_555
N4 C1 1_555 1_555
C1 N1 1_555 1_555
C4 N2 1_555 1_555
C5 C4 1_555 1_555
H1 C1 1_555 1_555
H4 C4 1_555 1_555
H5 C4 1_555 1_555
H6 C5 1_555 1_555
H7 C5 1_555 1_555
N21 N22 1_555 1_555
N22 N23 1_555 1_555
N23 N24 1_555 1_555
N24 C14 1_555 1_555
C14 N21 1_555 1_555
C17 N22 1_555 1_555
H27 C17 1_555 1_555
H28 C17 1_555 1_555
H29 C18 1_555 1_555
H30 C18 1_555 1_555
N27 Cu3_4 1_555 1_555
Cu2_4 N24 1_555 1_555
C17 C18 1_555 1_555
C11_2 C10_2 1_555 1_555
N13_2 C11_2 1_555 1_555
N14_2 N13_2 1_555 1_555
C12_2 N14_2 1_555 1_555
N15_2 C12_2 1_555 1_555
N16_2 N13_2 1_555 1_555
H16_2 C12_2 1_555 1_555
H18_2 C11_2 1_555 1_555
H19_2 C10_2 1_555 1_555
H20_2 C10_2 1_555 1_555
N17_2 N18_2 1_555 1_555
N18_2 N19_2 1_555 1_555
N19_2 N20_2 1_555 1_555
N20_2 Cu2 1_555 1_555
C13_2 N17_2 1_555 1_555
C15_2 N18_2 1_555 1_555
C16_2 C15_2 1_555 1_555
H21_2 C13_2 1_555 1_555
H23_2 C15_2 1_555 1_555
H24_2 C15_2 1_555 1_555
H25_2 C16_2 1_555 1_555
H26_2 C16_2 1_555 1_555
Cu2_3 N15_2 1_555 1_555
N15_2 N16_2 1_555 1_555
N20_2 C13_2 1_555 1_555
N5_2 N6_2 1_555 1_555
N6_2 N7_2 1_555 1_555
N7_2 N8_2 1_555 1_555
N8_2 Cu2_2 1_555 1_555
C2_2 N5_2 1_555 1_555
N9_2 N10_2 1_555 1_555
N10_2 N11_2 1_555 1_555
N11_2 N26 1_555 1_555
N26 C3_2 1_555 1_555
C3_2 N9_2 1_555 1_555
C6_2 C7_2 1_555 1_555
C7_2 N6_2 1_555 1_555
C8_2 N10_2 1_555 1_555
H2_2 C2_2 1_555 1_555
H3_2 C3_2 1_555 1_555
H9_2 C7_2 1_555 1_555
H10_2 C6_2 1_555 1_555
H11_2 C6_2 1_555 1_555
H12_2 C8_2 1_555 1_555
H13_2 C8_2 1_555 1_555
H14_2 C9_2 1_555 1_555
H15_2 C9_2 1_555 1_555
N8_2 C2_2 1_555 1_555
C8_2 C9_2 1_555 1_555
N21_2 N22_2 1_555 1_555
N22_2 N23_2 1_555 1_555
N23_2 N27 1_555 1_555
N27 C14_2 1_555 1_555
C14_2 N21_2 1_555 1_555
C17_2 N22_2 1_555 1_555
H22_2 C14_2 1_555 1_555
H27_2 C17_2 1_555 1_555
H28_2 C17_2 1_555 1_555
H29_2 C18_2 1_555 1_555
H30_2 C18_2 1_555 1_555
C17_2 C18_2 1_555 1_555
Cu2_4 N4_2 1_555 1_555
N1_2 N2_2 1_555 1_555
N2_2 N3_2 1_555 1_555
N3_2 N4_2 1_555 1_555
N4_2 C1_2 1_555 1_555
C1_2 N1_2 1_555 1_555
C4_2 N2_2 1_555 1_555
C5_2 C4_2 1_555 1_555
H1_2 C1_2 1_555 1_555
H4_2 C4_2 1_555 1_555
H5_2 C4_2 1_555 1_555
H6_2 C5_2 1_555 1_555
H7_2 C5_2 1_555 1_555
H10_3 C6_3 1_555 1_555
H11_3 C6_3 1_555 1_555
N13_3 C11_3 1_555 1_555
N14_3 N13_3 1_555 1_555
C12_3 N14_3 1_555 1_555
N15_3 C12_3 1_555 1_555
N16_3 N13_3 1_555 1_555
H18_3 C11_3 1_555 1_555
Cu3_8 N15_3 1_555 1_555
N15_3 N16_3 1_555 1_555
Cu3_5 N4_3 1_555 1_555
N1_3 N2_3 1_555 1_555
N2_3 N3_3 1_555 1_555
N3_3 N4_3 1_555 1_555
N4_3 C1_3 1_555 1_555
C1_3 N1_3 1_555 1_555
N5_3 N6_3 1_555 1_555
N6_3 N7_3 1_555 1_555
N7_3 N8_3 1_555 1_555
N8_3 Cu3_5 1_555 1_555
C2_3 N5_3 1_555 1_555
N9_3 N10_3 1_555 1_555
N10_3 N11_3 1_555 1_555
N11_3 N12_2 1_555 1_555
N12_2 C3_3 1_555 1_555
C3_3 N9_3 1_555 1_555
C4_3 N2_3 1_555 1_555
C5_3 C4_3 1_555 1_555
C7_3 N6_3 1_555 1_555
C8_3 N10_3 1_555 1_555
C9_3 C5_3 1_555 1_555
H1_3 C1_3 1_555 1_555
H3_3 C3_3 1_555 1_555
H4_3 C4_3 1_555 1_555
H5_3 C4_3 1_555 1_555
H6_3 C5_3 1_555 1_555
H7_3 C5_3 1_555 1_555
H9_3 C7_3 1_555 1_555
H12_3 C8_3 1_555 1_555
H13_3 C8_3 1_555 1_555
H14_3 C9_3 1_555 1_555
H15_3 C9_3 1_555 1_555
Cu2_5 N12_2 1_555 1_555
N8_3 C2_3 1_555 1_555
C8_3 C9_3 1_555 1_555
N26_2 Cu3_6 1_555 1_555
N27_2 Cu3_7 1_555 1_555
H19_3 C10_3 1_555 1_555
H20_3 C10_3 1_555 1_555
N17_3 N18_3 1_555 1_555
N18_3 N19_3 1_555 1_555
N19_3 N20_3 1_555 1_555
N20_3 Cu3_8 1_555 1_555
C13_3 N17_3 1_555 1_555
N21_3 N22_3 1_555 1_555
N22_3 N23_3 1_555 1_555
N23_3 N24_2 1_555 1_555
N24_2 C14_3 1_555 1_555
C14_3 N21_3 1_555 1_555
C15_3 N18_3 1_555 1_555
C16_3 C15_3 1_555 1_555
C17_3 N22_3 1_555 1_555
C18_3 C16_3 1_555 1_555
H21_3 C13_3 1_555 1_555
H22_3 C14_3 1_555 1_555
H23_3 C15_3 1_555 1_555
H24_3 C15_3 1_555 1_555
H25_3 C16_3 1_555 1_555
H26_3 C16_3 1_555 1_555
H27_3 C17_3 1_555 1_555
H28_3 C17_3 1_555 1_555
H29_3 C18_3 1_555 1_555
H30_3 C18_3 1_555 1_555
Cu2_5 N24_2 1_555 1_555
N20_3 C13_3 1_555 1_555
C17_3 C18_3 1_555 1_555
Cu2_5 N4_4 1_555 1_555
N1_4 N2_4 1_555 1_555
N2_4 N3_4 1_555 1_555
N3_4 N4_4 1_555 1_555
N4_4 C1_4 1_555 1_555
C1_4 N1_4 1_555 1_555
N5_4 N6_4 1_555 1_555
N6_4 N7_4 1_555 1_555
N7_4 N8_4 1_555 1_555
N8_4 Cu2_5 1_555 1_555
C2_4 N5_4 1_555 1_555
N9_4 N10_4 1_555 1_555
N10_4 N11_4 1_555 1_555
N11_4 N27_2 1_555 1_555
N27_2 C3_4 1_555 1_555
C3_4 N9_4 1_555 1_555
C4_4 N2_4 1_555 1_555
C5_4 C4_4 1_555 1_555
C7_4 N6_4 1_555 1_555
C8_4 N10_4 1_555 1_555
C9_4 C5_4 1_555 1_555
H1_4 C1_4 1_555 1_555
H2_4 C2_4 1_555 1_555
H4_4 C4_4 1_555 1_555
H5_4 C4_4 1_555 1_555
H6_4 C5_4 1_555 1_555
H7_4 C5_4 1_555 1_555
H8_4 C7_4 1_555 1_555
H9_4 C7_4 1_555 1_555
H12_4 C8_4 1_555 1_555
H13_4 C8_4 1_555 1_555
H14_4 C9_4 1_555 1_555
H15_4 C9_4 1_555 1_555
H19_4 C10_4 1_555 1_555
H20_4 C10_4 1_555 1_555
N17_4 N18_4 1_555 1_555
N18_4 N19_4 1_555 1_555
N19_4 N20_4 1_555 1_555
N20_4 Cu2_5 1_555 1_555
C13_4 N17_4 1_555 1_555
N21_4 N22_4 1_555 1_555
N22_4 N23_4 1_555 1_555
N23_4 N26_2 1_555 1_555
N26_2 C14_4 1_555 1_555
C14_4 N21_4 1_555 1_555
C15_4 N18_4 1_555 1_555
C16_4 C15_4 1_555 1_555
C17_4 N22_4 1_555 1_555
C18_4 C16_4 1_555 1_555
H21_4 C13_4 1_555 1_555
H23_4 C15_4 1_555 1_555
H24_4 C15_4 1_555 1_555
H25_4 C16_4 1_555 1_555
H26_4 C16_4 1_555 1_555
H27_4 C17_4 1_555 1_555
H28_4 C17_4 1_555 1_555
H29_4 C18_4 1_555 1_555
H30_4 C18_4 1_555 1_555
N25 Cu2_5 1_555 1_555
N8_4 C2_4 1_555 1_555
C8_4 C9_4 1_555 1_555
N20_4 C13_4 1_555 1_555
C17_4 C18_4 1_555 1_555
H10_4 C6_4 1_555 1_555
H11_4 C6_4 1_555 1_555
N13_4 C11_4 1_555 1_555
N14_4 N13_4 1_555 1_555
C12_4 N14_4 1_555 1_555
N25 C12_4 1_555 1_555
N16_4 N13_4 1_555 1_555
H16_4 C12_4 1_555 1_555
H17_4 C11_4 1_555 1_555
H18_4 C11_4 1_555 1_555
N25 N16_4 1_555 1_555
Cl1 O1 1_555 1_555
O2 Cl1 1_555 1_555
O3 Cl1 1_555 1_555
O4 Cl1 1_555 1_555
Cl1_2 O1_2 1_555 1_555
O2_2 Cl1_2 1_555 1_555
O3_2 Cl1_2 1_555 1_555
O4_2 Cl1_2 1_555 1_555
Cl1_3 O1_3 1_555 1_555
O2_3 Cl1_3 1_555 1_555
O3_3 Cl1_3 1_555 1_555
O4_3 Cl1_3 1_555 1_555
Cl1_4 O1_4 1_555 1_555
O2_4 Cl1_4 1_555 1_555
O3_4 Cl1_4 1_555 1_555
O4_4 Cl1_4 1_555 1_555
Cl1_5 O1_5 1_555 1_555
O2_5 Cl1_5 1_555 1_555
O3_5 Cl1_5 1_555 1_555
O4_5 Cl1_5 1_555 1_555
Cl1_6 O1_6 1_555 1_555
O2_6 Cl1_6 1_555 1_555
O3_6 Cl1_6 1_555 1_555
O4_6 Cl1_6 1_555 1_555
Cl1_7 O1_7 1_555 1_555
O2_7 Cl1_7 1_555 1_555
O3_7 Cl1_7 1_555 1_555
O4_7 Cl1_7 1_555 1_555
Cl1_8 O1_8 1_555 1_555
O2_8 Cl1_8 1_555 1_555
O3_8 Cl1_8 1_555 1_555
O4_8 Cl1_8 1_555 1_555

#END
