
###############################################################################
#
# This file contains modified crystal structure data generated from the
# MOF subset of the Cambridge Structural Database (CSD) v543 
# hosted by the Cambridge Crystallographic Data Centre (CCDC).
#
# This work is licensed under the Creative Commons
# Attribution-NonCommercial-ShareAlike 4.0 International License.
# To view a copy of this license, visit
# http://creativecommons.org/licenses/by-nc-sa/4.0/
# or send a letter to
# Creative Commons, PO Box 1866, Mountain View, CA 94042, USA.
#
# CIF created using the CSD Python API on 29 September 2022
# The structure has been converted into the P1 space group
# The structure has a 3D framework
# The original CSD entry IQEKUM is in the monoclinic crystal system
# The framework has been calculated to contain at least 10.0% void space
# The void calculation uses a probe of radius 1.32A, grid spacing 0.4
#
###############################################################################

data_IQEKUM
_chemical_formula_moiety         '(C148 H112 N44 O56 Zn14)n'
_symmetry_cell_setting           triclinic
_symmetry_space_group_name_H-M   'P 1'
_symmetry_Int_Tables_number      1
_space_group_name_Hall           'P 1'
loop_
_symmetry_equiv_pos_site_id
_symmetry_equiv_pos_as_xyz
1 x,y,z
_cell_length_a                   18.206(5)
_cell_length_b                   18.320(5)
_cell_length_c                   14.765(4)
_cell_angle_alpha                90
_cell_angle_beta                 92.161(5)
_cell_angle_gamma                90
_cell_volume                     4921.13
loop_
_atom_site_label
_atom_site_type_symbol
_atom_site_fract_x
_atom_site_fract_y
_atom_site_fract_z
C5 C 0.1738(4) 0.2019(4) 0.0221(5)
H3 H 0.1877 0.1546 0.0430
C6 C 0.1360(4) 0.3191(4) 0.0518(5)
H4 H 0.1232 0.3557 0.0939
N1 N 0.1582(3) 0.2535(3) 0.0832(4)
Zn6 Zn 0.17265(5) 0.23848(5) 0.22552(6)
Zn1 Zn 0.0000 0.38173(7) 0.7500
Zn2 Zn 0.32735(5) 0.26152(5) 0.77448(6)
C1 C 0.1541(4) 0.3014(4) 0.8024(5)
C2 C 0.1498(4) 0.2832(5) 0.8980(5)
C3 C 0.1703(4) 0.2152(4) 0.9308(5)
H1 H 0.1819 0.1774 0.8897
C4 C 0.1311(4) 0.3345(4) 0.9625(6)
H2 H 0.1146 0.3813 0.9432
C7 C 0.1993(4) 0.3119(4) 0.6707(5)
C8 C 0.1304(4) 0.3404(4) 0.6662(5)
C9 C 0.0853(4) 0.3731(4) 0.5910(5)
C10 C 0.2555(4) 0.3076(4) 0.6027(5)
C11 C 0.4109(4) 0.3972(5) 0.7655(6)
C12 C 0.4620(4) 0.3384(4) 0.7554(6)
C13 C 0.5000 0.2274(6) 0.7500
C14 C 0.4757(4) 0.0333(4) 0.6772(5)
H5 H 0.4592 0.0074 0.6245
C15 C 0.4734(4) 0.1086(4) 0.6746(5)
H6 H 0.4540 0.1335 0.6225
C16 C 0.5000 0.1472(5) 0.7500
C17 C 0.2338(8) 0.0147(6) 0.6077(7)
H7 H 0.2208 0.0525 0.5630
C18 C 0.2873(6) 0.0028(6) 0.7630(9)
H10 H 0.2954 0.0326 0.8175
C19 C 0.2823(4) 0.1183(5) 0.6938(6)
H13 H 0.2689 0.1473 0.6425
N2 N 0.2153(3) 0.2867(3) 0.7557(4)
N3 N 0.1008(3) 0.3347(3) 0.7510(4)
N4 N 0.4396(3) 0.2681(3) 0.7566(4)
N6 N 0.2683(4) 0.0487(4) 0.6883(6)
O1 O 0.1139(3) 0.3817(3) 0.5163(4)
O2 O 0.3114(3) 0.1501(3) 0.7596(4)
O3 O 0.0200(3) 0.3883(3) 0.6085(3)
O4 O 0.2419(3) 0.3341(3) 0.5228(4)
H14 H 0.2009 0.3553 0.5216
O5 O 0.3160(3) 0.2793(3) 0.6245(4)
O6 O 0.3452(3) 0.3807(3) 0.7799(4)
O7 O 0.4333(3) 0.4635(3) 0.7601(4)
C20 C 0.5891(4) 0.3972(5) 0.7345(6)
C21 C 0.5380(4) 0.3384(4) 0.7446(6)
N7 N 0.5604(3) 0.2681(3) 0.7434(4)
O8 O 0.6548(3) 0.3807(3) 0.7201(4)
O9 O 0.5667(3) 0.4635(3) 0.7399(4)
C22 C 0.5243(4) 0.0333(4) 0.8228(5)
H15 H 0.5408 0.0074 0.8755
C23 C 0.5266(4) 0.1086(4) 0.8254(5)
H16 H 0.5460 0.1335 0.8775
Zn5 Zn 0.67265(5) 0.26152(5) 0.72552(6)
N12 N 0.3418(3) 0.2465(3) 0.9168(4)
N15 N 0.0000 0.4941(5) 0.7500
H8 H 0.1894 0.9887 0.6245
H9 H 0.2683 0.9802 0.5815
H11 H 0.3324 0.9759 0.7506
H12 H 0.2473 0.9682 0.7724
N5 N 0.5000 0.9941(5) 0.7500
Zn4 Zn 0.5000 0.88173(7) 0.7500
Zn1_2 Zn 1.0000 0.38173(7) 0.7500
C24 C 0.8459(4) 0.3014(4) 0.6976(5)
C25 C 0.8502(4) 0.2832(5) 0.6020(5)
C26 C 0.8297(4) 0.2152(4) 0.5692(5)
H17 H 0.8181 0.1774 0.6103
C27 C 0.8689(4) 0.3345(4) 0.5375(6)
H18 H 0.8854 0.3813 0.5568
C28 C 0.8262(4) 0.2019(4) 0.4779(5)
H19 H 0.8123 0.1546 0.4570
C29 C 0.8640(4) 0.3191(4) 0.4482(5)
H20 H 0.8768 0.3557 0.4061
C30 C 0.8007(4) 0.3119(4) 0.8293(5)
C31 C 0.8696(4) 0.3404(4) 0.8338(5)
C32 C 0.9147(4) 0.3731(4) 0.9090(5)
C33 C 0.7445(4) 0.3076(4) 0.8973(5)
C34 C 0.7662(8) 0.0147(6) 0.8923(7)
H21 H 0.7792 0.0525 0.9370
C35 C 0.7127(6) 0.0028(6) 0.7370(9)
H24 H 0.7046 0.0326 0.6825
C36 C 0.7177(4) 0.1183(5) 0.8062(6)
H27 H 0.7311 0.1473 0.8575
N8 N 0.8418(3) 0.2535(3) 0.4168(4)
N9 N 0.7847(3) 0.2867(3) 0.7443(4)
N10 N 0.8992(3) 0.3347(3) 0.7490(4)
N11 N 0.7317(4) 0.0487(4) 0.8117(6)
O10 O 0.8861(3) 0.3817(3) 0.9837(4)
O11 O 0.6886(3) 0.1501(3) 0.7404(4)
O12 O 0.9800(3) 0.3883(3) 0.8915(3)
O13 O 0.7581(3) 0.3341(3) 0.9772(4)
H28 H 0.7991 0.3553 0.9784
O14 O 0.6840(3) 0.2793(3) 0.8755(4)
Zn7 Zn 0.82735(5) 0.23848(5) 0.27448(6)
N13 N 0.6582(3) 0.2465(3) 0.5832(4)
N15_2 N 1.0000 0.4941(5) 0.7500
H22 H 0.8106 0.9887 0.8755
H23 H 0.7317 0.9802 0.9185
H25 H 0.6676 0.9759 0.7494
H26 H 0.7527 0.9682 0.7276
C13_2 C 0.0000 0.7274(6) 0.7500
C16_2 C 0.0000 0.6472(5) 0.7500
C20_2 C 0.0891(4) 0.8972(5) 0.7345(6)
C21_2 C 0.0380(4) 0.8384(4) 0.7446(6)
N7_2 N 0.0604(3) 0.7681(3) 0.7434(4)
O8_2 O 0.1548(3) 0.8807(3) 0.7201(4)
O9_2 O 0.0667(3) 0.9635(3) 0.7399(4)
C22_2 C 0.0243(4) 0.5333(4) 0.8228(5)
H15_2 H 0.0408 0.5074 0.8755
C23_2 C 0.0266(4) 0.6086(4) 0.8254(5)
H16_2 H 0.0460 0.6335 0.8775
Zn5_2 Zn 0.17265(5) 0.76152(5) 0.72552(6)
C5_2 C 0.6738(4) 0.7019(4) 0.0221(5)
H3_2 H 0.6877 0.6546 0.0430
C6_2 C 0.6360(4) 0.8191(4) 0.0518(5)
H4_2 H 0.6232 0.8557 0.0939
N1_2 N 0.6582(3) 0.7535(3) 0.0832(4)
Zn6_2 Zn 0.67265(5) 0.73848(5) 0.22552(6)
Zn2_2 Zn 0.82735(5) 0.76152(5) 0.77448(6)
C1_2 C 0.6541(4) 0.8014(4) 0.8024(5)
C2_2 C 0.6498(4) 0.7832(5) 0.8980(5)
C3_2 C 0.6703(4) 0.7152(4) 0.9308(5)
H1_2 H 0.6819 0.6774 0.8897
C4_2 C 0.6311(4) 0.8345(4) 0.9625(6)
H2_2 H 0.6146 0.8813 0.9432
C7_2 C 0.6993(4) 0.8119(4) 0.6707(5)
C8_2 C 0.6304(4) 0.8404(4) 0.6662(5)
C9_2 C 0.5853(4) 0.8731(4) 0.5910(5)
C10_2 C 0.7555(4) 0.8076(4) 0.6027(5)
C11_2 C 0.9109(4) 0.8972(5) 0.7655(6)
C12_2 C 0.9620(4) 0.8384(4) 0.7554(6)
C13_3 C 1.0000 0.7274(6) 0.7500
C14_2 C 0.9757(4) 0.5333(4) 0.6772(5)
H5_2 H 0.9592 0.5074 0.6245
C15_2 C 0.9734(4) 0.6086(4) 0.6746(5)
H6_2 H 0.9540 0.6335 0.6225
C16_3 C 1.0000 0.6472(5) 0.7500
C17_2 C 0.7338(8) 0.5147(6) 0.6077(7)
H7_2 H 0.7208 0.5525 0.5630
H8_2 H 0.6894 0.4887 0.6245
H9_2 H 0.7683 0.4802 0.5815
C18_2 C 0.7873(6) 0.5028(6) 0.7630(9)
H10_2 H 0.7954 0.5326 0.8175
H11_2 H 0.8324 0.4759 0.7506
H12_2 H 0.7473 0.4682 0.7724
C19_2 C 0.7823(4) 0.6183(5) 0.6938(6)
H13_2 H 0.7689 0.6473 0.6425
N2_2 N 0.7153(3) 0.7867(3) 0.7557(4)
N3_2 N 0.6008(3) 0.8347(3) 0.7510(4)
N4_2 N 0.9396(3) 0.7681(3) 0.7566(4)
N6_2 N 0.7683(4) 0.5487(4) 0.6883(6)
O1_2 O 0.6139(3) 0.8817(3) 0.5163(4)
O2_2 O 0.8114(3) 0.6501(3) 0.7596(4)
O3_2 O 0.5200(3) 0.8883(3) 0.6085(3)
O4_2 O 0.7419(3) 0.8341(3) 0.5228(4)
H14_2 H 0.7009 0.8553 0.5216
O5_2 O 0.8160(3) 0.7793(3) 0.6245(4)
O6_2 O 0.8452(3) 0.8807(3) 0.7799(4)
O7_2 O 0.9333(3) 0.9635(3) 0.7601(4)
C24_2 C 0.3459(4) 0.8014(4) 0.6976(5)
C25_2 C 0.3502(4) 0.7832(5) 0.6020(5)
C26_2 C 0.3297(4) 0.7152(4) 0.5692(5)
H17_2 H 0.3181 0.6774 0.6103
C27_2 C 0.3689(4) 0.8345(4) 0.5375(6)
H18_2 H 0.3854 0.8813 0.5568
C28_2 C 0.3262(4) 0.7019(4) 0.4779(5)
H19_2 H 0.3123 0.6546 0.4570
C29_2 C 0.3640(4) 0.8191(4) 0.4482(5)
H20_2 H 0.3768 0.8557 0.4061
C30_2 C 0.3007(4) 0.8119(4) 0.8293(5)
C31_2 C 0.3696(4) 0.8404(4) 0.8338(5)
C32_2 C 0.4147(4) 0.8731(4) 0.9090(5)
C33_2 C 0.2445(4) 0.8076(4) 0.8973(5)
C34_2 C 0.2662(8) 0.5147(6) 0.8923(7)
H21_2 H 0.2792 0.5525 0.9370
H22_2 H 0.3106 0.4887 0.8755
H23_2 H 0.2317 0.4802 0.9185
C35_2 C 0.2127(6) 0.5028(6) 0.7370(9)
H24_2 H 0.2046 0.5326 0.6825
H25_2 H 0.1676 0.4759 0.7494
H26_2 H 0.2527 0.4682 0.7276
C36_2 C 0.2177(4) 0.6183(5) 0.8062(6)
H27_2 H 0.2311 0.6473 0.8575
N8_2 N 0.3418(3) 0.7535(3) 0.4168(4)
N9_2 N 0.2847(3) 0.7867(3) 0.7443(4)
N10_2 N 0.3992(3) 0.8347(3) 0.7490(4)
N11_2 N 0.2317(4) 0.5487(4) 0.8117(6)
O10_2 O 0.3861(3) 0.8817(3) 0.9837(4)
O11_2 O 0.1886(3) 0.6501(3) 0.7404(4)
O12_2 O 0.4800(3) 0.8883(3) 0.8915(3)
O13_2 O 0.2581(3) 0.8341(3) 0.9772(4)
H28_2 H 0.2991 0.8553 0.9784
O14_2 O 0.1840(3) 0.7793(3) 0.8755(4)
Zn7_2 Zn 0.32735(5) 0.73848(5) 0.27448(6)
N12_2 N 0.8418(3) 0.7465(3) 0.9168(4)
N13_2 N 0.1582(3) 0.7465(3) 0.5832(4)
H22_3 H 0.1894 0.0113 0.1245
H23_3 H 0.2683 0.0198 0.0815
H25_3 H 0.3324 0.0241 0.2506
H26_3 H 0.2473 0.0318 0.2724
Zn1_3 Zn -0.0000 0.61827(7) 0.2500
C24_3 C 0.1541(4) 0.6986(4) 0.3024(5)
C25_3 C 0.1498(4) 0.7168(5) 0.3980(5)
C26_3 C 0.1703(4) 0.7848(4) 0.4308(5)
H17_3 H 0.1819 0.8226 0.3897
C27_3 C 0.1311(4) 0.6655(4) 0.4625(6)
H18_3 H 0.1146 0.6187 0.4432
C28_3 C 0.1738(4) 0.7981(4) 0.5221(5)
H19_3 H 0.1877 0.8454 0.5430
C29_3 C 0.1360(4) 0.6809(4) 0.5518(5)
H20_3 H 0.1232 0.6443 0.5939
C30_3 C 0.1993(4) 0.6881(4) 0.1707(5)
C31_3 C 0.1304(4) 0.6596(4) 0.1662(5)
C32_3 C 0.0853(4) 0.6269(4) 0.0910(5)
C33_3 C 0.2555(4) 0.6924(4) 0.1027(5)
C34_3 C 0.2338(8) 0.9853(6) 0.1077(7)
H21_3 H 0.2208 0.9475 0.0630
C35_3 C 0.2873(6) 0.9972(6) 0.2630(9)
H24_3 H 0.2954 0.9674 0.3175
C36_3 C 0.2823(4) 0.8817(5) 0.1938(6)
H27_3 H 0.2689 0.8527 0.1425
N9_3 N 0.2153(3) 0.7133(3) 0.2557(4)
N10_3 N 0.1008(3) 0.6653(3) 0.2510(4)
N11_3 N 0.2683(4) 0.9513(4) 0.1883(6)
O10_3 O 0.1139(3) 0.6183(3) 0.0163(4)
O11_3 O 0.3114(3) 0.8499(3) 0.2596(4)
O12_3 O 0.0200(3) 0.6117(3) 0.1085(3)
O13_3 O 0.2419(3) 0.6659(3) 0.0228(4)
H28_3 H 0.2009 0.6447 0.0216
O14_3 O 0.3160(3) 0.7207(3) 0.1245(4)
N14 N 0.4396(3) 0.7319(3) 0.2566(4)
N15_3 N -0.0000 0.5059(5) 0.2500
O15 O 0.3452(3) 0.6193(3) 0.2799(4)
H8_3 H 0.8106 0.0113 0.3755
H9_3 H 0.7317 0.0198 0.4185
H11_3 H 0.6676 0.0241 0.2494
H12_3 H 0.7527 0.0318 0.2276
N5_2 N 0.5000 0.0059(5) 0.2500
Zn4_2 Zn 0.5000 0.11827(7) 0.2500
Zn1_4 Zn 1.0000 0.61827(7) 0.2500
C1_3 C 0.8459(4) 0.6986(4) 0.1976(5)
C2_3 C 0.8502(4) 0.7168(5) 0.1020(5)
C3_3 C 0.8297(4) 0.7848(4) 0.0692(5)
H1_3 H 0.8181 0.8226 0.1103
C4_3 C 0.8689(4) 0.6655(4) 0.0375(6)
H2_3 H 0.8854 0.6187 0.0568
C7_3 C 0.8007(4) 0.6881(4) 0.3293(5)
C8_3 C 0.8696(4) 0.6596(4) 0.3338(5)
C9_3 C 0.9147(4) 0.6269(4) 0.4090(5)
C10_3 C 0.7445(4) 0.6924(4) 0.3973(5)
C11_3 C 0.5891(4) 0.6028(5) 0.2345(6)
C12_3 C 0.5380(4) 0.6616(4) 0.2446(6)
C13_4 C 0.5000 0.7726(6) 0.2500
C14_3 C 0.5243(4) 0.9667(4) 0.3228(5)
H5_3 H 0.5408 0.9926 0.3755
C15_3 C 0.5266(4) 0.8914(4) 0.3254(5)
H6_3 H 0.5460 0.8665 0.3775
C16_4 C 0.5000 0.8528(5) 0.2500
C17_3 C 0.7662(8) 0.9853(6) 0.3923(7)
H7_3 H 0.7792 0.9475 0.4370
C18_3 C 0.7127(6) 0.9972(6) 0.2370(9)
H10_3 H 0.7046 0.9674 0.1825
C19_3 C 0.7177(4) 0.8817(5) 0.3062(6)
H13_3 H 0.7311 0.8527 0.3575
N2_3 N 0.7847(3) 0.7133(3) 0.2443(4)
N3_3 N 0.8992(3) 0.6653(3) 0.2490(4)
N4_3 N 0.5604(3) 0.7319(3) 0.2434(4)
N6_3 N 0.7317(4) 0.9513(4) 0.3117(6)
O1_3 O 0.8861(3) 0.6183(3) 0.4837(4)
O2_3 O 0.6886(3) 0.8499(3) 0.2404(4)
O3_3 O 0.9800(3) 0.6117(3) 0.3915(3)
O4_3 O 0.7581(3) 0.6659(3) 0.4772(4)
H14_3 H 0.7991 0.6447 0.4784
O5_3 O 0.6840(3) 0.7207(3) 0.3755(4)
O6_3 O 0.6548(3) 0.6193(3) 0.2201(4)
O7_3 O 0.5667(3) 0.5365(3) 0.2399(4)
C20_3 C 0.4109(4) 0.6028(5) 0.2655(6)
C21_3 C 0.4620(4) 0.6616(4) 0.2554(6)
O9_3 O 0.4333(3) 0.5365(3) 0.2601(4)
C22_3 C 0.4757(4) 0.9667(4) 0.1772(5)
H15_3 H 0.4592 0.9926 0.1245
C23_3 C 0.4734(4) 0.8914(4) 0.1746(5)
H16_3 H 0.4540 0.8665 0.1225
N15_4 N 1.0000 0.5059(5) 0.2500
C5_3 C 0.8262(4) 0.7981(4) 0.9779(5)
H3_3 H 0.8123 0.8454 0.9570
C6_3 C 0.8640(4) 0.6809(4) 0.9482(5)
H4_3 H 0.8768 0.6443 0.9061
C1_4 C 0.3459(4) 0.1986(4) 0.1976(5)
C2_4 C 0.3502(4) 0.2168(5) 0.1020(5)
C3_4 C 0.3297(4) 0.2848(4) 0.0692(5)
H1_4 H 0.3181 0.3226 0.1103
C4_4 C 0.3689(4) 0.1655(4) 0.0375(6)
H2_4 H 0.3854 0.1187 0.0568
C7_4 C 0.3007(4) 0.1881(4) 0.3293(5)
C8_4 C 0.3696(4) 0.1596(4) 0.3338(5)
C9_4 C 0.4147(4) 0.1269(4) 0.4090(5)
C10_4 C 0.2445(4) 0.1924(4) 0.3973(5)
C11_4 C 0.0891(4) 0.1028(5) 0.2345(6)
C12_4 C 0.0380(4) 0.1616(4) 0.2446(6)
C13_5 C 0.0000 0.2726(6) 0.2500
C14_4 C 0.0243(4) 0.4667(4) 0.3228(5)
H5_4 H 0.0408 0.4926 0.3755
C15_4 C 0.0266(4) 0.3914(4) 0.3254(5)
H6_4 H 0.0460 0.3665 0.3775
C16_5 C -0.0000 0.3528(5) 0.2500
C17_4 C 0.2662(8) 0.4853(6) 0.3923(7)
H7_4 H 0.2792 0.4475 0.4370
H8_4 H 0.3106 0.5113 0.3755
H9_4 H 0.2317 0.5198 0.4185
C18_4 C 0.2127(6) 0.4972(6) 0.2370(9)
H10_4 H 0.2046 0.4674 0.1825
H11_4 H 0.1676 0.5241 0.2494
H12_4 H 0.2527 0.5318 0.2276
C19_4 C 0.2177(4) 0.3817(5) 0.3062(6)
H13_4 H 0.2311 0.3527 0.3575
N2_4 N 0.2847(3) 0.2133(3) 0.2443(4)
N3_4 N 0.3992(3) 0.1653(3) 0.2490(4)
N4_4 N 0.0604(3) 0.2319(3) 0.2434(4)
N6_4 N 0.2317(4) 0.4513(4) 0.3117(6)
O1_4 O 0.3861(3) 0.1183(3) 0.4837(4)
O2_4 O 0.1886(3) 0.3499(3) 0.2404(4)
O3_4 O 0.4800(3) 0.1117(3) 0.3915(3)
O4_4 O 0.2581(3) 0.1659(3) 0.4772(4)
H14_4 H 0.2991 0.1447 0.4784
O5_4 O 0.1840(3) 0.2207(3) 0.3755(4)
O6_4 O 0.1548(3) 0.1193(3) 0.2201(4)
O7_4 O 0.0667(3) 0.0365(3) 0.2399(4)
C24_4 C 0.6541(4) 0.1986(4) 0.3024(5)
C25_4 C 0.6498(4) 0.2168(5) 0.3980(5)
C26_4 C 0.6703(4) 0.2848(4) 0.4308(5)
H17_4 H 0.6819 0.3226 0.3897
C27_4 C 0.6311(4) 0.1655(4) 0.4625(6)
H18_4 H 0.6146 0.1187 0.4432
C28_4 C 0.6738(4) 0.2981(4) 0.5221(5)
H19_4 H 0.6877 0.3454 0.5430
C29_4 C 0.6360(4) 0.1809(4) 0.5518(5)
H20_4 H 0.6232 0.1443 0.5939
C30_4 C 0.6993(4) 0.1881(4) 0.1707(5)
C31_4 C 0.6304(4) 0.1596(4) 0.1662(5)
C32_4 C 0.5853(4) 0.1269(4) 0.0910(5)
C33_4 C 0.7555(4) 0.1924(4) 0.1027(5)
C34_4 C 0.7338(8) 0.4853(6) 0.1077(7)
H21_4 H 0.7208 0.4475 0.0630
H22_4 H 0.6894 0.5113 0.1245
H23_4 H 0.7683 0.5198 0.0815
C35_4 C 0.7873(6) 0.4972(6) 0.2630(9)
H24_4 H 0.7954 0.4674 0.3175
H25_4 H 0.8324 0.5241 0.2506
H26_4 H 0.7473 0.5318 0.2724
C36_4 C 0.7823(4) 0.3817(5) 0.1938(6)
H27_4 H 0.7689 0.3527 0.1425
N9_4 N 0.7153(3) 0.2133(3) 0.2557(4)
N10_4 N 0.6008(3) 0.1653(3) 0.2510(4)
N11_4 N 0.7683(4) 0.4513(4) 0.1883(6)
O10_4 O 0.6139(3) 0.1183(3) 0.0163(4)
O11_4 O 0.8114(3) 0.3499(3) 0.2596(4)
O12_4 O 0.5200(3) 0.1117(3) 0.1085(3)
O13_4 O 0.7419(3) 0.1659(3) 0.0228(4)
H28_4 H 0.7009 0.1447 0.0216
O14_4 O 0.8160(3) 0.2207(3) 0.1245(4)
N14_2 N 0.9396(3) 0.2319(3) 0.2566(4)
O15_2 O 0.8452(3) 0.1193(3) 0.2799(4)
C5_4 C 0.3262(4) 0.2981(4) 0.9779(5)
H3_4 H 0.3123 0.3454 0.9570
C6_4 C 0.3640(4) 0.1809(4) 0.9482(5)
H4_4 H 0.3768 0.1443 0.9061
C13_6 C 1.0000 0.2726(6) 0.2500
C16_6 C 1.0000 0.3528(5) 0.2500
C20_4 C 0.9109(4) 0.1028(5) 0.2655(6)
C21_4 C 0.9620(4) 0.1616(4) 0.2554(6)
O9_4 O 0.9333(3) 0.0365(3) 0.2601(4)
C22_4 C 0.9757(4) 0.4667(4) 0.1772(5)
H15_4 H 0.9592 0.4926 0.1245
C23_4 C 0.9734(4) 0.3914(4) 0.1746(5)
H16_4 H 0.9540 0.3665 0.1225
loop_
_geom_bond_atom_site_label_1
_geom_bond_atom_site_label_2
_geom_bond_site_symmetry_1
_geom_bond_site_symmetry_2
H3 C5 1_555 1_555
H4 C6 1_555 1_555
N1 C5 1_555 1_555
Zn6 N1 1_555 1_555
C6 N1 1_555 1_555
Zn1 N3 1_555 1_555
Zn2 N2 1_555 1_555
C1 C2 1_555 1_555
C2 C3 1_555 1_555
C3 H1 1_555 1_555
C4 C2 1_555 1_555
H2 C4 1_555 1_555
C7 C8 1_555 1_555
C8 C9 1_555 1_555
C9 O1 1_555 1_555
C10 C7 1_555 1_555
C11 C12 1_555 1_555
C12 N4 1_555 1_555
C13 C16 1_555 1_555
C14 H5 1_555 1_555
C15 C14 1_555 1_555
H6 C15 1_555 1_555
C16 C15 1_555 1_555
C17 H7 1_555 1_555
C18 H10 1_555 1_555
C19 H13 1_555 1_555
N2 C1 1_555 1_555
N3 C1 1_555 1_555
N4 Zn2 1_555 1_555
N6 C17 1_555 1_555
O2 Zn2 1_555 1_555
O3 Zn1 1_555 1_555
O4 C10 1_555 1_555
H14 O4 1_555 1_555
O5 Zn2 1_555 1_555
O6 Zn2 1_555 1_555
O7 C11 1_555 1_555
C20 C21 1_555 1_555
C21 C12 1_555 1_555
N7 C13 1_555 1_555
O8 C20 1_555 1_555
O9 C20 1_555 1_555
H15 C22 1_555 1_555
C23 C16 1_555 1_555
H16 C23 1_555 1_555
Zn5 N7 1_555 1_555
N12 Zn2 1_555 1_555
N15 Zn1 1_555 1_555
C7 N2 1_555 1_555
C8 N3 1_555 1_555
C9 O3 1_555 1_555
C10 O5 1_555 1_555
C11 O6 1_555 1_555
C13 N4 1_555 1_555
C18 N6 1_555 1_555
C19 N6 1_555 1_555
C19 O2 1_555 1_555
C21 N7 1_555 1_555
O8 Zn5 1_555 1_555
C22 C23 1_555 1_555
Zn4 N5 1_555 1_555
Zn5 N9 1_555 1_555
C24 C25 1_555 1_555
C25 C26 1_555 1_555
C26 H17 1_555 1_555
C27 C25 1_555 1_555
H18 C27 1_555 1_555
C28 C26 1_555 1_555
H19 C28 1_555 1_555
C29 C27 1_555 1_555
H20 C29 1_555 1_555
C30 C31 1_555 1_555
C31 C32 1_555 1_555
C32 O10 1_555 1_555
C33 C30 1_555 1_555
C34 H21 1_555 1_555
C35 H24 1_555 1_555
C36 H27 1_555 1_555
N8 C28 1_555 1_555
N9 C24 1_555 1_555
N10 Zn1_2 1_555 1_555
N11 C34 1_555 1_555
O11 Zn5 1_555 1_555
O12 Zn1_2 1_555 1_555
O13 C33 1_555 1_555
H28 O13 1_555 1_555
O14 Zn5 1_555 1_555
Zn7 N8 1_555 1_555
N13 Zn5 1_555 1_555
N15_2 Zn1_2 1_555 1_555
C24 N10 1_555 1_555
C29 N8 1_555 1_555
C30 N9 1_555 1_555
C31 N10 1_555 1_555
C32 O12 1_555 1_555
C33 O14 1_555 1_555
C35 N11 1_555 1_555
C36 N11 1_555 1_555
C36 O11 1_555 1_555
C13_2 C16_2 1_555 1_555
C20_2 C21_2 1_555 1_555
N7_2 C13_2 1_555 1_555
O8_2 C20_2 1_555 1_555
O9_2 C20_2 1_555 1_555
C22_2 N15 1_555 1_555
H15_2 C22_2 1_555 1_555
C23_2 C16_2 1_555 1_555
H16_2 C23_2 1_555 1_555
Zn5_2 N7_2 1_555 1_555
C21_2 N7_2 1_555 1_555
O8_2 Zn5_2 1_555 1_555
C22_2 C23_2 1_555 1_555
H3_2 C5_2 1_555 1_555
H4_2 C6_2 1_555 1_555
N1_2 C5_2 1_555 1_555
Zn6_2 N1_2 1_555 1_555
C6_2 N1_2 1_555 1_555
Zn4 N3_2 1_555 1_555
Zn2_2 N2_2 1_555 1_555
C1_2 C2_2 1_555 1_555
C2_2 C3_2 1_555 1_555
C3_2 H1_2 1_555 1_555
C4_2 C2_2 1_555 1_555
H2_2 C4_2 1_555 1_555
C7_2 C8_2 1_555 1_555
C8_2 C9_2 1_555 1_555
C9_2 O1_2 1_555 1_555
C10_2 C7_2 1_555 1_555
C11_2 C12_2 1_555 1_555
C12_2 N4_2 1_555 1_555
C13_3 C16_3 1_555 1_555
C14_2 H5_2 1_555 1_555
C15_2 C14_2 1_555 1_555
H6_2 C15_2 1_555 1_555
C16_3 C15_2 1_555 1_555
C17_2 H7_2 1_555 1_555
H8_2 C17_2 1_555 1_555
H9_2 C17_2 1_555 1_555
C18_2 H10_2 1_555 1_555
H11_2 C18_2 1_555 1_555
H12_2 C18_2 1_555 1_555
C19_2 H13_2 1_555 1_555
N2_2 C1_2 1_555 1_555
N3_2 C1_2 1_555 1_555
N4_2 Zn2_2 1_555 1_555
N15_2 C14_2 1_555 1_555
N6_2 C17_2 1_555 1_555
O2_2 Zn2_2 1_555 1_555
O3_2 Zn4 1_555 1_555
O4_2 C10_2 1_555 1_555
H14_2 O4_2 1_555 1_555
O5_2 Zn2_2 1_555 1_555
O6_2 Zn2_2 1_555 1_555
O7_2 C11_2 1_555 1_555
Zn5_2 N9_2 1_555 1_555
C24_2 C25_2 1_555 1_555
C25_2 C26_2 1_555 1_555
C26_2 H17_2 1_555 1_555
C27_2 C25_2 1_555 1_555
H18_2 C27_2 1_555 1_555
C28_2 C26_2 1_555 1_555
H19_2 C28_2 1_555 1_555
C29_2 C27_2 1_555 1_555
H20_2 C29_2 1_555 1_555
C30_2 C31_2 1_555 1_555
C31_2 C32_2 1_555 1_555
C32_2 O10_2 1_555 1_555
C33_2 C30_2 1_555 1_555
C34_2 H21_2 1_555 1_555
H22_2 C34_2 1_555 1_555
H23_2 C34_2 1_555 1_555
C35_2 H24_2 1_555 1_555
H25_2 C35_2 1_555 1_555
H26_2 C35_2 1_555 1_555
C36_2 H27_2 1_555 1_555
N8_2 C28_2 1_555 1_555
N9_2 C24_2 1_555 1_555
N10_2 Zn4 1_555 1_555
N11_2 C34_2 1_555 1_555
O11_2 Zn5_2 1_555 1_555
O12_2 Zn4 1_555 1_555
O13_2 C33_2 1_555 1_555
H28_2 O13_2 1_555 1_555
O14_2 Zn5_2 1_555 1_555
Zn7_2 N8_2 1_555 1_555
N12_2 Zn2_2 1_555 1_555
N13_2 Zn5_2 1_555 1_555
C7_2 N2_2 1_555 1_555
C8_2 N3_2 1_555 1_555
C9_2 O3_2 1_555 1_555
C10_2 O5_2 1_555 1_555
C11_2 O6_2 1_555 1_555
C13_3 N4_2 1_555 1_555
C18_2 N6_2 1_555 1_555
C19_2 N6_2 1_555 1_555
C19_2 O2_2 1_555 1_555
C24_2 N10_2 1_555 1_555
C29_2 N8_2 1_555 1_555
C30_2 N9_2 1_555 1_555
C31_2 N10_2 1_555 1_555
C32_2 O12_2 1_555 1_555
C33_2 O14_2 1_555 1_555
C35_2 N11_2 1_555 1_555
C36_2 N11_2 1_555 1_555
C36_2 O11_2 1_555 1_555
Zn7_2 N9_3 1_555 1_555
C24_3 C25_3 1_555 1_555
C25_3 C26_3 1_555 1_555
C26_3 H17_3 1_555 1_555
C27_3 C25_3 1_555 1_555
H18_3 C27_3 1_555 1_555
C28_3 C26_3 1_555 1_555
H19_3 C28_3 1_555 1_555
C29_3 C27_3 1_555 1_555
H20_3 C29_3 1_555 1_555
C30_3 C31_3 1_555 1_555
C31_3 C32_3 1_555 1_555
C32_3 O10_3 1_555 1_555
C33_3 C30_3 1_555 1_555
C34_3 H21_3 1_555 1_555
C35_3 H24_3 1_555 1_555
C36_3 H27_3 1_555 1_555
N13_2 C28_3 1_555 1_555
N9_3 C24_3 1_555 1_555
N10_3 Zn1_3 1_555 1_555
N11_3 C34_3 1_555 1_555
O11_3 Zn7_2 1_555 1_555
O12_3 Zn1_3 1_555 1_555
O13_3 C33_3 1_555 1_555
H28_3 O13_3 1_555 1_555
O14_3 Zn7_2 1_555 1_555
N14 Zn7_2 1_555 1_555
N15_3 Zn1_3 1_555 1_555
O15 Zn7_2 1_555 1_555
C24_3 N10_3 1_555 1_555
C29_3 N13_2 1_555 1_555
C30_3 N9_3 1_555 1_555
C31_3 N10_3 1_555 1_555
C32_3 O12_3 1_555 1_555
C33_3 O14_3 1_555 1_555
C35_3 N11_3 1_555 1_555
C36_3 N11_3 1_555 1_555
C36_3 O11_3 1_555 1_555
Zn4_2 N5_2 1_555 1_555
Zn1_4 N3_3 1_555 1_555
Zn6_2 N2_3 1_555 1_555
C1_3 C2_3 1_555 1_555
C2_3 C3_3 1_555 1_555
C3_3 H1_3 1_555 1_555
C4_3 C2_3 1_555 1_555
H2_3 C4_3 1_555 1_555
C7_3 C8_3 1_555 1_555
C8_3 C9_3 1_555 1_555
C9_3 O1_3 1_555 1_555
C10_3 C7_3 1_555 1_555
C11_3 C12_3 1_555 1_555
C12_3 N4_3 1_555 1_555
C13_4 C16_4 1_555 1_555
C14_3 H5_3 1_555 1_555
C15_3 C14_3 1_555 1_555
H6_3 C15_3 1_555 1_555
C16_4 C15_3 1_555 1_555
C17_3 H7_3 1_555 1_555
C18_3 H10_3 1_555 1_555
C19_3 H13_3 1_555 1_555
N2_3 C1_3 1_555 1_555
N3_3 C1_3 1_555 1_555
N4_3 Zn6_2 1_555 1_555
N6_3 C17_3 1_555 1_555
O2_3 Zn6_2 1_555 1_555
O3_3 Zn1_4 1_555 1_555
O4_3 C10_3 1_555 1_555
H14_3 O4_3 1_555 1_555
O5_3 Zn6_2 1_555 1_555
O6_3 Zn6_2 1_555 1_555
O7_3 C11_3 1_555 1_555
C20_3 C21_3 1_555 1_555
C21_3 C12_3 1_555 1_555
N14 C13_4 1_555 1_555
O15 C20_3 1_555 1_555
O9_3 C20_3 1_555 1_555
H15_3 C22_3 1_555 1_555
C23_3 C16_4 1_555 1_555
H16_3 C23_3 1_555 1_555
N15_4 Zn1_4 1_555 1_555
C7_3 N2_3 1_555 1_555
C8_3 N3_3 1_555 1_555
C9_3 O3_3 1_555 1_555
C10_3 O5_3 1_555 1_555
C11_3 O6_3 1_555 1_555
C13_4 N4_3 1_555 1_555
C18_3 N6_3 1_555 1_555
C19_3 N6_3 1_555 1_555
C19_3 O2_3 1_555 1_555
C21_3 N14 1_555 1_555
C22_3 C23_3 1_555 1_555
H3_3 C5_3 1_555 1_555
H4_3 C6_3 1_555 1_555
N12_2 C5_3 1_555 1_555
C6_3 N12_2 1_555 1_555
Zn4_2 N3_4 1_555 1_555
Zn6 N2_4 1_555 1_555
C1_4 C2_4 1_555 1_555
C2_4 C3_4 1_555 1_555
C3_4 H1_4 1_555 1_555
C4_4 C2_4 1_555 1_555
H2_4 C4_4 1_555 1_555
C7_4 C8_4 1_555 1_555
C8_4 C9_4 1_555 1_555
C9_4 O1_4 1_555 1_555
C10_4 C7_4 1_555 1_555
C11_4 C12_4 1_555 1_555
C12_4 N4_4 1_555 1_555
C13_5 C16_5 1_555 1_555
C14_4 H5_4 1_555 1_555
C15_4 C14_4 1_555 1_555
H6_4 C15_4 1_555 1_555
C16_5 C15_4 1_555 1_555
C17_4 H7_4 1_555 1_555
H8_4 C17_4 1_555 1_555
H9_4 C17_4 1_555 1_555
C18_4 H10_4 1_555 1_555
H11_4 C18_4 1_555 1_555
H12_4 C18_4 1_555 1_555
C19_4 H13_4 1_555 1_555
N2_4 C1_4 1_555 1_555
N3_4 C1_4 1_555 1_555
N4_4 Zn6 1_555 1_555
N15_3 C14_4 1_555 1_555
N6_4 C17_4 1_555 1_555
O2_4 Zn6 1_555 1_555
O3_4 Zn4_2 1_555 1_555
O4_4 C10_4 1_555 1_555
H14_4 O4_4 1_555 1_555
O5_4 Zn6 1_555 1_555
O6_4 Zn6 1_555 1_555
O7_4 C11_4 1_555 1_555
Zn7 N9_4 1_555 1_555
C24_4 C25_4 1_555 1_555
C25_4 C26_4 1_555 1_555
C26_4 H17_4 1_555 1_555
C27_4 C25_4 1_555 1_555
H18_4 C27_4 1_555 1_555
C28_4 C26_4 1_555 1_555
H19_4 C28_4 1_555 1_555
C29_4 C27_4 1_555 1_555
H20_4 C29_4 1_555 1_555
C30_4 C31_4 1_555 1_555
C31_4 C32_4 1_555 1_555
C32_4 O10_4 1_555 1_555
C33_4 C30_4 1_555 1_555
C34_4 H21_4 1_555 1_555
H22_4 C34_4 1_555 1_555
H23_4 C34_4 1_555 1_555
C35_4 H24_4 1_555 1_555
H25_4 C35_4 1_555 1_555
H26_4 C35_4 1_555 1_555
C36_4 H27_4 1_555 1_555
N13 C28_4 1_555 1_555
N9_4 C24_4 1_555 1_555
N10_4 Zn4_2 1_555 1_555
N11_4 C34_4 1_555 1_555
O11_4 Zn7 1_555 1_555
O12_4 Zn4_2 1_555 1_555
O13_4 C33_4 1_555 1_555
H28_4 O13_4 1_555 1_555
O14_4 Zn7 1_555 1_555
N14_2 Zn7 1_555 1_555
O15_2 Zn7 1_555 1_555
C7_4 N2_4 1_555 1_555
C8_4 N3_4 1_555 1_555
C9_4 O3_4 1_555 1_555
C10_4 O5_4 1_555 1_555
C11_4 O6_4 1_555 1_555
C13_5 N4_4 1_555 1_555
C18_4 N6_4 1_555 1_555
C19_4 N6_4 1_555 1_555
C19_4 O2_4 1_555 1_555
C24_4 N10_4 1_555 1_555
C29_4 N13 1_555 1_555
C30_4 N9_4 1_555 1_555
C31_4 N10_4 1_555 1_555
C32_4 O12_4 1_555 1_555
C33_4 O14_4 1_555 1_555
C35_4 N11_4 1_555 1_555
C36_4 N11_4 1_555 1_555
C36_4 O11_4 1_555 1_555
H3_4 C5_4 1_555 1_555
H4_4 C6_4 1_555 1_555
N12 C5_4 1_555 1_555
C6_4 N12 1_555 1_555
C13_6 C16_6 1_555 1_555
C20_4 C21_4 1_555 1_555
N14_2 C13_6 1_555 1_555
O15_2 C20_4 1_555 1_555
O9_4 C20_4 1_555 1_555
C22_4 N15_4 1_555 1_555
H15_4 C22_4 1_555 1_555
C23_4 C16_6 1_555 1_555
H16_4 C23_4 1_555 1_555
C21_4 N14_2 1_555 1_555
C22_4 C23_4 1_555 1_555

#END
