
###############################################################################
#
# This file contains modified crystal structure data generated from the
# MOF subset of the Cambridge Structural Database (CSD) v543 
# hosted by the Cambridge Crystallographic Data Centre (CCDC).
#
# This work is licensed under the Creative Commons
# Attribution-NonCommercial-ShareAlike 4.0 International License.
# To view a copy of this license, visit
# http://creativecommons.org/licenses/by-nc-sa/4.0/
# or send a letter to
# Creative Commons, PO Box 1866, Mountain View, CA 94042, USA.
#
# CIF created using the CSD Python API on 29 September 2022
# The structure has been converted into the P1 space group
# The structure has a 3D framework
# The original CSD entry IQEWOQ is in the monoclinic crystal system
# The framework has been calculated to contain at least 10.0% void space
# The void calculation uses a probe of radius 1.32A, grid spacing 0.4
#
###############################################################################

data_IQEWOQ
_chemical_formula_moiety         '(C24 H24 Mn21 O48)n'
_symmetry_cell_setting           triclinic
_symmetry_space_group_name_H-M   'P 1'
_symmetry_Int_Tables_number      1
_space_group_name_Hall           'P 1'
loop_
_symmetry_equiv_pos_site_id
_symmetry_equiv_pos_as_xyz
1 x,y,z
_cell_length_a                   11.715(2)
_cell_length_b                   10.248(2)
_cell_length_c                   15.159(3)
_cell_angle_alpha                90
_cell_angle_beta                 91.81(2)
_cell_angle_gamma                90
_cell_volume                     1819.01
loop_
_atom_site_label
_atom_site_type_symbol
_atom_site_fract_x
_atom_site_fract_y
_atom_site_fract_z
Mn4 Mn 0.0000 0.0000 0.0000
O27 O 0.1546(2) 0.0989(3) 0.0419(2)
Mn4_2 Mn 0.0000 0.0000 1.0000
O23 O 0.1496(2) 0.0845(2) 0.80496(16)
C12 C 0.0562(4) 0.1410(4) 0.8213(3)
H12 H 0.0322 0.2072 0.7820
Mn14 Mn 0.26155(5) 0.11206(5) 0.69035(3)
Mn4_3 Mn 0.0000 1.0000 0.0000
O12 O 0.0060(3) 0.8818(3) 0.1172(2)
Mn4_4 Mn 0.0000 1.0000 1.0000
O26 O 0.0980(2) 0.8446(2) 0.93512(16)
Mn13 Mn 0.24309(4) 0.92306(5) 0.86786(3)
Mn1 Mn 0.75691(4) 0.07694(5) 0.13214(3)
Mn3 Mn 0.5000 0.0000 0.0000
Mn4_5 Mn 1.0000 0.0000 0.0000
O3 O 0.8061(2) 0.1955(2) 0.24953(15)
O5 O 0.6560(2) 0.2554(2) 0.11025(15)
O6 O 0.8067(3) 0.0614(3) 0.36569(17)
O7 O 0.9020(2) 0.1554(2) 0.06488(16)
O8 O 0.5148(3) 0.2088(3) 0.0130(2)
O9 O 0.8982(2) 0.3662(3) 0.10213(18)
C2 C 0.9375(4) 0.2724(4) 0.0622(3)
H2 H 0.9998 0.2891 0.0262
C4 C 0.8235(3) 0.1681(4) 0.3309(2)
H4 H 0.8517 0.2354 0.3676
C6 C 0.5724(3) 0.2858(4) 0.0583(3)
H6 H 0.5531 0.3747 0.0542
C7 C 0.2582(3) 0.0909(4) 0.0367(3)
H7 H 0.3023 0.1381 0.0786
Mn7 Mn 0.76155(5) 0.38794(5) 0.19035(3)
Mn3_2 Mn 0.5000 0.0000 1.0000
Mn4_6 Mn 1.0000 0.0000 1.0000
O13 O 0.3125(2) 0.0254(3) 0.98059(16)
O17 O 0.3724(2) 0.0118(2) 0.78529(16)
O18 O 0.5365(2) 0.0144(3) 0.86213(19)
C9 C 0.4796(3) 0.0242(4) 0.7941(2)
H9 H 0.5193 0.0429 0.7426
O24 O 0.9940(3) 0.1182(3) 0.8828(2)
O31 O 0.3061(2) 0.3045(2) 0.74953(15)
O32 O 0.1560(2) 0.2446(2) 0.61025(15)
O34 O 0.3982(2) 0.1338(3) 0.60213(18)
Mn2 Mn 0.73845(5) 0.88794(5) 0.30965(3)
Mn3_3 Mn 0.5000 1.0000 0.0000
Mn4_7 Mn 1.0000 1.0000 0.0000
O1 O 0.8504(2) 0.9155(2) 0.19504(16)
O2 O 0.6276(2) 0.9882(2) 0.21471(16)
O4 O 0.6875(2) 0.9746(3) 0.01941(16)
O11 O 0.4635(2) 0.9856(3) 0.13787(19)
C1 C 0.5204(3) 0.9758(4) 0.2059(2)
H1 H 0.4807 0.9571 0.2574
C3 C 0.9438(4) 0.8590(4) 0.1787(3)
H3 H 0.9678 0.7928 0.2180
O19 O 0.6939(2) 0.6955(2) 0.25047(15)
O20 O 0.6933(3) 0.5614(3) 0.13431(17)
C10 C 0.6765(3) 0.6681(4) 0.1691(2)
H10 H 0.6483 0.7354 0.1324
O21 O 0.5980(2) 0.6554(2) 0.43512(16)
O22 O 0.6018(2) 0.8662(3) 0.39787(18)
C11 C 0.5625(4) 0.7724(4) 0.4378(3)
H11 H 0.5002 0.7891 0.4738
O25 O 0.8440(2) 0.7554(2) 0.38975(15)
Mn10 Mn 0.74309(4) 0.57694(5) 0.36786(3)
Mn12 Mn 0.5000 0.5000 0.5000
Mn3_4 Mn 0.5000 1.0000 1.0000
Mn4_8 Mn 1.0000 1.0000 1.0000
O10 O 0.8454(2) 0.9011(3) 0.9581(2)
C5 C 0.7418(3) 0.9091(4) 0.9633(3)
H5 H 0.6977 0.8619 0.9214
O15 O 0.3440(2) 0.7446(2) 0.88975(15)
O16 O 0.4852(3) 0.7912(3) 0.9870(2)
C8 C 0.4276(3) 0.7142(4) 0.9417(3)
H8 H 0.4469 0.6253 0.9458
Mn9 Mn 0.23845(5) 0.61206(5) 0.80965(3)
O29 O 0.1939(2) 0.8045(2) 0.75047(15)
O33 O 0.1933(3) 0.9386(3) 0.63431(17)
Mn3_5 Mn 0.0000 0.5000 0.5000
O11_2 O 0.0365(2) 0.4856(3) 0.36213(19)
H1_2 H 0.0193 0.4571 0.2426
O13_2 O 0.1875(2) 0.5254(3) 0.51941(16)
O14 O 0.3454(2) 0.5989(3) 0.4581(2)
C7_2 C 0.2418(3) 0.5909(4) 0.4633(3)
H7_2 H 0.1977 0.6381 0.4214
O16_2 O 0.0148(3) 0.2912(3) 0.5130(2)
C8_2 C 0.0724(3) 0.2142(4) 0.5583(3)
H8_2 H 0.0531 0.1253 0.5542
O17_2 O 0.1276(2) 0.5118(2) 0.71471(16)
C9_2 C 0.0204(3) 0.5242(4) 0.7059(2)
Mn5 Mn 0.25691(4) 0.42306(5) 0.63214(3)
O28 O 0.3504(2) 0.5845(2) 0.69504(16)
O30 O 0.4020(2) 0.3446(2) 0.56488(16)
O33_2 O 0.3067(3) 0.4386(3) 0.86569(17)
O34_2 O 0.1018(2) 0.6338(3) 0.89787(18)
Mn3_6 Mn 1.0000 0.5000 0.5000
O1_2 O 0.6496(2) 0.4155(2) 0.30496(16)
O2_2 O 0.8724(2) 0.4882(2) 0.28529(16)
O4_2 O 0.8125(2) 0.4746(3) 0.48059(16)
O8_2 O 0.9852(3) 0.7088(3) 0.4870(2)
O10_2 O 0.6546(2) 0.4011(3) 0.5419(2)
O12_2 O 0.4940(3) 0.3818(3) 0.3828(2)
C1_2 C 0.9796(3) 0.4758(4) 0.2941(2)
C3_2 C 0.5562(4) 0.3590(4) 0.3213(3)
H3_2 H 0.5322 0.2928 0.2820
C5_2 C 0.7582(3) 0.4091(4) 0.5367(3)
H5_2 H 0.8023 0.3619 0.5786
C6_2 C 0.9276(3) 0.7858(4) 0.4417(3)
H6_2 H 0.9469 0.8747 0.4458
O18_2 O 0.9635(2) 0.5144(3) 0.63787(19)
H9_2 H 0.9807 0.5429 0.7574
O24_2 O 0.5060(3) 0.6182(3) 0.6172(2)
C12_2 C 0.4438(4) 0.6410(4) 0.6787(3)
H12_2 H 0.4678 0.7072 0.7180
C10_2 C 0.3235(3) 0.3319(4) 0.8309(2)
H10_2 H 0.3517 0.2646 0.8676
C11_2 C 0.4375(4) 0.2276(4) 0.5622(3)
H11_2 H 0.4998 0.2109 0.5262
C2_2 C 0.0625(4) 0.7276(4) 0.9378(3)
H2_2 H 0.0002 0.7109 0.9738
C4_2 C 0.1765(3) 0.8319(4) 0.6691(2)
H4_2 H 0.1483 0.7646 0.6324
loop_
_geom_bond_atom_site_label_1
_geom_bond_atom_site_label_2
_geom_bond_site_symmetry_1
_geom_bond_site_symmetry_2
O27 Mn4 1_555 1_555
O23 C12 1_555 1_555
H12 C12 1_555 1_555
Mn14 O23 1_555 1_555
O12 Mn4_3 1_555 1_555
O26 Mn4_4 1_555 1_555
O26 Mn13 1_555 1_555
Mn4_5 O7 1_555 1_555
O3 Mn1 1_555 1_555
O5 Mn1 1_555 1_555
O7 Mn1 1_555 1_555
O8 Mn3 1_555 1_555
O9 C2 1_555 1_555
C2 O7 1_555 1_555
H2 C2 1_555 1_555
C4 O3 1_555 1_555
H4 C4 1_555 1_555
C6 O5 1_555 1_555
H6 C6 1_555 1_555
O27 C7 1_555 1_555
H7 C7 1_555 1_555
Mn7 O3 1_555 1_555
O5 Mn7 1_555 1_555
O6 C4 1_555 1_555
O8 C6 1_555 1_555
O9 Mn7 1_555 1_555
O13 Mn3_2 1_555 1_555
O17 C9 1_555 1_555
O18 Mn3_2 1_555 1_555
C9 O18 1_555 1_555
H9 C9 1_555 1_555
Mn14 O17 1_555 1_555
O24 Mn4_6 1_555 1_555
O31 Mn14 1_555 1_555
O32 Mn14 1_555 1_555
O34 Mn14 1_555 1_555
Mn2 O1 1_555 1_555
Mn3_3 O4 1_555 1_555
O1 C3 1_555 1_555
O11 Mn3_3 1_555 1_555
C1 O2 1_555 1_555
H1 C1 1_555 1_555
H3 C3 1_555 1_555
O19 Mn2 1_555 1_555
O20 C10 1_555 1_555
C10 O19 1_555 1_555
H10 C10 1_555 1_555
O21 C11 1_555 1_555
O22 Mn2 1_555 1_555
C11 O22 1_555 1_555
H11 C11 1_555 1_555
O25 Mn2 1_555 1_555
Mn10 O19 1_555 1_555
Mn7 O20 1_555 1_555
Mn12 O21 1_555 1_555
Mn2 O2 1_555 1_555
O11 C1 1_555 1_555
O21 Mn10 1_555 1_555
O25 Mn10 1_555 1_555
O10 Mn4_8 1_555 1_555
H5 C5 1_555 1_555
O15 C8 1_555 1_555
O16 Mn3_4 1_555 1_555
C8 O16 1_555 1_555
H8 C8 1_555 1_555
Mn9 O15 1_555 1_555
O29 Mn13 1_555 1_555
O10 C5 1_555 1_555
O15 Mn13 1_555 1_555
Mn9 O29 1_555 1_555
O11_2 Mn3_5 1_555 1_555
O13_2 Mn3_5 1_555 1_555
O14 C7_2 1_555 1_555
C7_2 O13_2 1_555 1_555
H7_2 C7_2 1_555 1_555
O32 C8_2 1_555 1_555
O16_2 Mn3_5 1_555 1_555
C8_2 O16_2 1_555 1_555
H8_2 C8_2 1_555 1_555
O17_2 C9_2 1_555 1_555
Mn5 O13_2 1_555 1_555
Mn9 O17_2 1_555 1_555
Mn12 O14 1_555 1_555
O28 Mn5 1_555 1_555
O31 Mn5 1_555 1_555
O30 Mn5 1_555 1_555
O33_2 Mn9 1_555 1_555
O34_2 Mn9 1_555 1_555
O32 Mn5 1_555 1_555
O17_2 Mn5 1_555 1_555
Mn9 O28 1_555 1_555
Mn12 O30 1_555 1_555
Mn10 O1_2 1_555 1_555
Mn7 O1_2 1_555 1_555
Mn3_6 O4_2 1_555 1_555
O1_2 C3_2 1_555 1_555
O2_2 Mn10 1_555 1_555
O4_2 Mn10 1_555 1_555
O8_2 Mn3_6 1_555 1_555
O10_2 Mn12 1_555 1_555
O12_2 Mn12 1_555 1_555
C1_2 O2_2 1_555 1_555
C3_2 O12_2 1_555 1_555
H3_2 C3_2 1_555 1_555
C5_2 O4_2 1_555 1_555
H5_2 C5_2 1_555 1_555
C6_2 O25 1_555 1_555
H6_2 C6_2 1_555 1_555
O18_2 Mn3_6 1_555 1_555
O28 C12_2 1_555 1_555
O24_2 Mn12 1_555 1_555
C12_2 O24_2 1_555 1_555
H12_2 C12_2 1_555 1_555
Mn7 O2_2 1_555 1_555
O8_2 C6_2 1_555 1_555
O10_2 C5_2 1_555 1_555
O33_2 C10_2 1_555 1_555
C10_2 O31 1_555 1_555
H10_2 C10_2 1_555 1_555
O30 C11_2 1_555 1_555
C11_2 O34 1_555 1_555
H11_2 C11_2 1_555 1_555
O34_2 C2_2 1_555 1_555
C2_2 O26 1_555 1_555
H2_2 C2_2 1_555 1_555
C4_2 O29 1_555 1_555
H4_2 C4_2 1_555 1_555
O33 C4_2 1_555 1_555

#END
