
###############################################################################
#
# This file contains modified crystal structure data generated from the
# MOF subset of the Cambridge Structural Database (CSD) v543 
# hosted by the Cambridge Crystallographic Data Centre (CCDC).
#
# This work is licensed under the Creative Commons
# Attribution-NonCommercial-ShareAlike 4.0 International License.
# To view a copy of this license, visit
# http://creativecommons.org/licenses/by-nc-sa/4.0/
# or send a letter to
# Creative Commons, PO Box 1866, Mountain View, CA 94042, USA.
#
# CIF created using the CSD Python API on 29 September 2022
# The structure has been converted into the P1 space group
# The structure has a 3D framework
# The original CSD entry IQIMUS is in the monoclinic crystal system
# The framework has been calculated to contain at least 10.0% void space
# The void calculation uses a probe of radius 1.32A, grid spacing 0.4
#
###############################################################################

data_IQIMUS
_chemical_formula_moiety         '(C156 H96 Cd6 N16 O20)n'
_symmetry_cell_setting           triclinic
_symmetry_space_group_name_H-M   'P 1'
_symmetry_Int_Tables_number      1
_space_group_name_Hall           'P 1'
loop_
_symmetry_equiv_pos_site_id
_symmetry_equiv_pos_as_xyz
1 x,y,z
_cell_length_a                   26.054(4)
_cell_length_b                   22.388(4)
_cell_length_c                   9.2545(14)
_cell_angle_alpha                90
_cell_angle_beta                 92.154(4)
_cell_angle_gamma                90
_cell_volume                     5394.31
loop_
_atom_site_label
_atom_site_type_symbol
_atom_site_fract_x
_atom_site_fract_y
_atom_site_fract_z
C11 C 0.2798(3) 0.1415(3) 0.1377(7)
H8 H 0.2992 0.1134 0.0895
C12 C 0.2648(2) 0.1963(2) 0.0633(6)
C30 C 0.2186(2) 0.3825(2) 0.2260(5)
H18 H 0.2538 0.3894 0.2307
C31 C 0.1444(3) 0.3406(3) 0.1774(7)
H19 H 0.1190 0.3144 0.1435
C32 C 0.1383(2) 0.3902(3) 0.2547(6)
H20 H 0.1068 0.4045 0.2839
C35 C 0.2236(2) 0.2920(2) 0.0752(6)
C36 C 0.2373(2) 0.2393(2) 0.1444(6)
C37 C 0.2249(2) 0.2258(3) 0.2868(6)
H22 H 0.2061 0.2531 0.3388
C38 C 0.2398(3) 0.1734(3) 0.3507(8)
H23 H 0.2323 0.1660 0.4465
C39 C 0.2667(3) 0.1303(3) 0.2717(8)
H24 H 0.2753 0.0938 0.3143
N3 N 0.18433(16) 0.41713(17) 0.2853(4)
N4 N 0.1961(2) 0.33649(18) 0.1585(4)
Cd5 Cd 0.20344(2) 0.5000 0.40990(5)
C52 C 0.7202(3) 0.1415(3) 0.8623(7)
H34 H 0.7008 0.1134 0.9105
C53 C 0.7352(2) 0.1963(2) 0.9367(6)
C59 C 0.7814(2) 0.3825(2) 0.7740(5)
H38 H 0.7462 0.3894 0.7693
C60 C 0.8556(3) 0.3406(3) 0.8226(7)
H39 H 0.8810 0.3144 0.8565
C61 C 0.8617(2) 0.3902(3) 0.7453(6)
H40 H 0.8932 0.4045 0.7161
C64 C 0.7764(2) 0.2920(2) 0.9248(6)
C65 C 0.7627(2) 0.2393(2) 0.8556(6)
C66 C 0.7751(2) 0.2258(3) 0.7132(6)
H42 H 0.7939 0.2531 0.6612
C67 C 0.7602(3) 0.1734(3) 0.6493(8)
H43 H 0.7677 0.1660 0.5535
C68 C 0.7333(3) 0.1303(3) 0.7283(8)
H44 H 0.7247 0.0938 0.6857
N7 N 0.81567(16) 0.41713(17) 0.7147(4)
N8 N 0.8039(2) 0.33649(18) 0.8415(4)
Cd4 Cd 0.79656(2) 0.5000 0.59010(5)
C23 C 0.1271(3) 0.5000 0.6006(9)
C24 C 0.0894(2) 0.5000 0.7187(8)
C25 C 0.1057(3) 0.5000 0.8617(7)
H14 H 0.1406 0.5000 0.8868
C26 C 0.0699(3) 0.5000 0.9677(8)
C27 C 0.0183(2) 0.5000 0.9411(7)
C28 C 0.0034(3) 0.5000 0.8028(8)
C29 C 0.0376(3) 0.5000 0.6852(8)
H17 H 0.0252 0.5000 0.5896
O4 O 0.17338(19) 0.5000 0.6340(6)
O5 O 0.10872(18) 0.5000 0.4691(7)
C1 C 0.8729(3) 0.5000 0.3994(9)
C2 C 0.9106(2) 0.5000 0.2813(8)
C3 C 0.8943(3) 0.5000 0.1383(7)
H1 H 0.8594 0.5000 0.1132
C4 C 0.9301(3) 0.5000 0.0323(8)
C5 C 0.9817(2) 0.5000 0.0589(7)
C6 C 0.9966(3) 0.5000 0.1972(8)
C7 C 0.9624(3) 0.5000 0.3148(8)
H4 H 0.9748 0.5000 0.4104
C8 C 0.7814(2) 0.6175(2) 0.7740(5)
H5 H 0.7462 0.6106 0.7693
C9 C 0.8556(3) 0.6594(3) 0.8226(7)
H6 H 0.8810 0.6856 0.8565
C10 C 0.8617(2) 0.6098(3) 0.7453(6)
H7 H 0.8932 0.5955 0.7161
C13 C 0.7764(2) 0.7080(2) 0.9248(6)
C14 C 0.7627(2) 0.7607(2) 0.8556(6)
C15 C 0.7751(2) 0.7742(3) 0.7132(6)
H9 H 0.7939 0.7469 0.6612
C16 C 0.7602(3) 0.8266(3) 0.6493(8)
H10 H 0.7677 0.8340 0.5535
C17 C 0.7333(3) 0.8697(3) 0.7283(8)
H11 H 0.7247 0.9062 0.6857
C18 C 0.6905(3) 0.5000 0.5478(9)
C19 C 0.6350(3) 0.5000 0.5322(9)
C20 C 0.6095(3) 0.5506(3) 0.5162(8)
H12 H 0.6272 0.5867 0.5157
C21 C 0.5551(2) 0.5503(3) 0.4997(7)
H13 H 0.5378 0.5862 0.4831
C22 C 0.5282(3) 0.5000 0.5074(10)
N1 N 0.81567(16) 0.58287(17) 0.7147(4)
N2 N 0.8039(2) 0.66351(18) 0.8415(4)
O1 O 0.82662(19) 0.5000 0.3660(6)
O2 O 0.89128(18) 0.5000 0.5309(7)
O3 O 0.71591(12) 0.54623(18) 0.5504(4)
C33 C 0.7202(3) 0.8585(3) 0.8623(7)
H21 H 0.7008 0.8866 0.9105
C34 C 0.7352(2) 0.8037(2) 0.9367(6)
C40 C 0.3095(3) 0.5000 0.4522(9)
C41 C 0.3650(3) 0.5000 0.4678(9)
C42 C 0.3905(3) 0.5506(3) 0.4838(8)
H25 H 0.3728 0.5867 0.4843
C43 C 0.4449(2) 0.5503(3) 0.5003(7)
H26 H 0.4622 0.5862 0.5169
C44 C 0.4718(3) 0.5000 0.4926(10)
O6 O 0.28409(12) 0.54623(18) 0.4496(4)
C45 C 0.3905(3) 0.4494(3) 0.4838(8)
H27 H 0.3728 0.4133 0.4843
C46 C 0.4449(2) 0.4497(3) 0.5003(7)
H28 H 0.4622 0.4138 0.5169
O7 O 0.28409(12) 0.45377(18) 0.4496(4)
C47 C 0.6095(3) 0.4494(3) 0.5162(8)
H29 H 0.6272 0.4133 0.5157
C48 C 0.5551(2) 0.4497(3) 0.4997(7)
H30 H 0.5378 0.4138 0.4831
O8 O 0.71591(12) 0.45377(18) 0.5504(4)
C49 C 0.2186(2) 0.6175(2) 0.2260(5)
H31 H 0.2538 0.6106 0.2307
C50 C 0.1444(3) 0.6594(3) 0.1774(7)
H32 H 0.1190 0.6856 0.1435
C51 C 0.1383(2) 0.6098(3) 0.2547(6)
H33 H 0.1068 0.5955 0.2839
C54 C 0.2236(2) 0.7080(2) 0.0752(6)
C55 C 0.2373(2) 0.7607(2) 0.1444(6)
C56 C 0.2249(2) 0.7742(3) 0.2868(6)
H35 H 0.2061 0.7469 0.3388
C57 C 0.2398(3) 0.8266(3) 0.3507(8)
H36 H 0.2323 0.8340 0.4465
C58 C 0.2667(3) 0.8697(3) 0.2717(8)
H37 H 0.2753 0.9062 0.3143
N5 N 0.18433(16) 0.58287(17) 0.2853(4)
N6 N 0.1961(2) 0.66351(18) 0.1585(4)
C62 C 0.2798(3) 0.8585(3) 0.1377(7)
H41 H 0.2992 0.8866 0.0895
C63 C 0.2648(2) 0.8037(2) 0.0633(6)
Cd1 Cd 0.29656(2) 0.0000 0.59010(5)
C1_2 C 0.3729(3) 0.0000 0.3994(9)
C2_2 C 0.4106(2) 0.0000 0.2813(8)
C3_2 C 0.3943(3) 0.0000 0.1383(7)
H1_2 H 0.3594 -0.0000 0.1132
C4_2 C 0.4301(3) 0.0000 0.0323(8)
C5_2 C 0.4817(2) 0.0000 0.0589(7)
C6_2 C 0.4966(3) -0.0000 0.1972(8)
H3 H 0.5317 -0.0000 0.2195
C7_2 C 0.4624(3) 0.0000 0.3148(8)
H4_2 H 0.4748 0.0000 0.4104
C8_2 C 0.2814(2) 0.1175(2) 0.7740(5)
H5_2 H 0.2462 0.1106 0.7693
C9_2 C 0.3556(3) 0.1594(3) 0.8226(7)
H6_2 H 0.3810 0.1856 0.8565
C10_2 C 0.3617(2) 0.1098(3) 0.7453(6)
H7_2 H 0.3932 0.0955 0.7161
C13_2 C 0.2764(2) 0.2080(2) 0.9248(6)
C14_2 C 0.2627(2) 0.2607(2) 0.8556(6)
C15_2 C 0.2751(2) 0.2742(3) 0.7132(6)
H9_2 H 0.2939 0.2469 0.6612
C16_2 C 0.2602(3) 0.3266(3) 0.6493(8)
H10_2 H 0.2677 0.3340 0.5535
C17_2 C 0.2333(3) 0.3697(3) 0.7283(8)
H11_2 H 0.2247 0.4062 0.6857
C18_2 C 0.1905(3) 0.0000 0.5478(9)
C19_2 C 0.1350(3) 0.0000 0.5322(9)
C20_2 C 0.1095(3) 0.0506(3) 0.5162(8)
H12_2 H 0.1272 0.0867 0.5157
C21_2 C 0.0551(2) 0.0503(3) 0.4997(7)
H13_2 H 0.0378 0.0862 0.4831
C22_2 C 0.0282(3) -0.0000 0.5074(10)
N1_2 N 0.31567(16) 0.08287(17) 0.7147(4)
N2_2 N 0.3039(2) 0.16351(18) 0.8415(4)
O1_2 O 0.32662(19) -0.0000 0.3660(6)
O2_2 O 0.39128(18) 0.0000 0.5309(7)
O3_2 O 0.21591(12) 0.04623(18) 0.5504(4)
H15 H 0.5818 -0.0000 0.0637
C33_2 C 0.2202(3) 0.3585(3) 0.8623(7)
H21_2 H 0.2008 0.3866 0.9105
C34_2 C 0.2352(2) 0.3037(2) 0.9367(6)
Cd1_2 Cd 0.29656(2) 1.0000 0.59010(5)
C1_3 C 0.3729(3) 1.0000 0.3994(9)
C2_3 C 0.4106(2) 1.0000 0.2813(8)
C3_3 C 0.3943(3) 1.0000 0.1383(7)
H1_3 H 0.3594 1.0000 0.1132
C4_3 C 0.4301(3) 1.0000 0.0323(8)
C5_3 C 0.4817(2) 1.0000 0.0589(7)
C6_3 C 0.4966(3) 1.0000 0.1972(8)
H3_2 H 0.5317 1.0000 0.2195
C7_3 C 0.4624(3) 1.0000 0.3148(8)
H4_3 H 0.4748 1.0000 0.4104
C18_3 C 0.1905(3) 1.0000 0.5478(9)
C19_3 C 0.1350(3) 1.0000 0.5322(9)
C22_3 C 0.0282(3) 1.0000 0.5074(10)
O1_3 O 0.32662(19) 1.0000 0.3660(6)
O2_3 O 0.39128(18) 1.0000 0.5309(7)
H15_2 H 0.5818 1.0000 0.0637
C47_2 C 0.1095(3) 0.9494(3) 0.5162(8)
H29_2 H 0.1272 0.9133 0.5157
C48_2 C 0.0551(2) 0.9497(3) 0.4997(7)
H30_2 H 0.0378 0.9138 0.4831
O8_2 O 0.21591(12) 0.95377(18) 0.5504(4)
N10 N 0.31567(16) 0.91713(17) 0.7147(4)
H2 H 0.9182 0.5000 0.9363
H16 H 0.9683 0.5000 0.7805
C52_2 C 0.2202(3) 0.6415(3) 0.8623(7)
H34_2 H 0.2008 0.6134 0.9105
C53_2 C 0.2352(2) 0.6963(2) 0.9367(6)
C59_2 C 0.2814(2) 0.8825(2) 0.7740(5)
H38_2 H 0.2462 0.8894 0.7693
C60_2 C 0.3556(3) 0.8406(3) 0.8226(7)
H39_2 H 0.3810 0.8144 0.8565
C61_2 C 0.3617(2) 0.8902(3) 0.7453(6)
H40_2 H 0.3932 0.9045 0.7161
C64_2 C 0.2764(2) 0.7920(2) 0.9248(6)
C65_2 C 0.2627(2) 0.7393(2) 0.8556(6)
C66_2 C 0.2751(2) 0.7258(3) 0.7132(6)
H42_2 H 0.2939 0.7531 0.6612
C67_2 C 0.2602(3) 0.6734(3) 0.6493(8)
H43_2 H 0.2677 0.6660 0.5535
C68_2 C 0.2333(3) 0.6303(3) 0.7283(8)
H44_2 H 0.2247 0.5938 0.6857
N8_2 N 0.3039(2) 0.83649(18) 0.8415(4)
H2_2 H 0.4182 0.0000 0.9363
C23_2 C 0.6271(3) 0.0000 0.6006(9)
C24_2 C 0.5894(2) 0.0000 0.7187(8)
C25_2 C 0.6057(3) 0.0000 0.8617(7)
H14_2 H 0.6406 0.0000 0.8868
C26_2 C 0.5699(3) -0.0000 0.9677(8)
C27_2 C 0.5183(2) 0.0000 0.9411(7)
C28_2 C 0.5034(3) 0.0000 0.8028(8)
H16_2 H 0.4683 0.0000 0.7805
C29_2 C 0.5376(3) 0.0000 0.6852(8)
H17_2 H 0.5252 0.0000 0.5896
O4_2 O 0.67338(19) 0.0000 0.6340(6)
O5_2 O 0.60872(18) 0.0000 0.4691(7)
Cd3 Cd 0.70344(2) 0.0000 0.40990(5)
H2_3 H 0.4182 1.0000 0.9363
C23_3 C 0.6271(3) 1.0000 0.6006(9)
C24_3 C 0.5894(2) 1.0000 0.7187(8)
C25_3 C 0.6057(3) 1.0000 0.8617(7)
H14_3 H 0.6406 1.0000 0.8868
C26_3 C 0.5699(3) 1.0000 0.9677(8)
C27_3 C 0.5183(2) 1.0000 0.9411(7)
C28_3 C 0.5034(3) 1.0000 0.8028(8)
H16_3 H 0.4683 1.0000 0.7805
C29_3 C 0.5376(3) 1.0000 0.6852(8)
H17_3 H 0.5252 1.0000 0.5896
O4_3 O 0.67338(19) 1.0000 0.6340(6)
O5_3 O 0.60872(18) 1.0000 0.4691(7)
Cd3_2 Cd 0.70344(2) 1.0000 0.40990(5)
C40_2 C 0.8095(3) -0.0000 0.4522(9)
C41_2 C 0.8650(3) 0.0000 0.4678(9)
C42_2 C 0.8905(3) 0.0506(3) 0.4838(8)
H25_2 H 0.8728 0.0867 0.4843
C43_2 C 0.9449(2) 0.0503(3) 0.5003(7)
H26_2 H 0.9622 0.0862 0.5169
C44_2 C 0.9718(3) 0.0000 0.4926(10)
O6_2 O 0.78409(12) 0.04623(18) 0.4496(4)
C49_2 C 0.7186(2) 0.1175(2) 0.2260(5)
H31_2 H 0.7538 0.1106 0.2307
C50_2 C 0.6444(3) 0.1594(3) 0.1774(7)
H32_2 H 0.6190 0.1856 0.1435
C51_2 C 0.6383(2) 0.1098(3) 0.2547(6)
H33_2 H 0.6068 0.0955 0.2839
C54_2 C 0.7236(2) 0.2080(2) 0.0752(6)
C55_2 C 0.7373(2) 0.2607(2) 0.1444(6)
C56_2 C 0.7249(2) 0.2742(3) 0.2868(6)
H35_2 H 0.7061 0.2469 0.3388
C57_2 C 0.7398(3) 0.3266(3) 0.3507(8)
H36_2 H 0.7323 0.3340 0.4465
C58_2 C 0.7667(3) 0.3697(3) 0.2717(8)
H37_2 H 0.7753 0.4062 0.3143
N5_2 N 0.68433(16) 0.08287(17) 0.2853(4)
N6_2 N 0.6961(2) 0.16351(18) 0.1585(4)
C62_2 C 0.7798(3) 0.3585(3) 0.1377(7)
H41_2 H 0.7992 0.3866 0.0895
C63_2 C 0.7648(2) 0.3037(2) 0.0633(6)
C40_3 C 0.8095(3) 1.0000 0.4522(9)
C41_3 C 0.8650(3) 1.0000 0.4678(9)
C44_3 C 0.9718(3) 1.0000 0.4926(10)
C45_2 C 0.8905(3) 0.9494(3) 0.4838(8)
H27_2 H 0.8728 0.9133 0.4843
C46_2 C 0.9449(2) 0.9497(3) 0.5003(7)
H28_2 H 0.9622 0.9138 0.5169
O7_2 O 0.78409(12) 0.95377(18) 0.4496(4)
N9 N 0.68433(16) 0.91713(17) 0.2853(4)
H3_3 H 0.0317 0.5000 0.2195
H15_3 H 0.0818 0.5000 0.0637
C11_2 C 0.7798(3) 0.6415(3) 0.1377(7)
H8_2 H 0.7992 0.6134 0.0895
C12_2 C 0.7648(2) 0.6963(2) 0.0633(6)
C30_2 C 0.7186(2) 0.8825(2) 0.2260(5)
H18_2 H 0.7538 0.8894 0.2307
C31_2 C 0.6444(3) 0.8406(3) 0.1774(7)
H19_2 H 0.6190 0.8144 0.1435
C32_2 C 0.6383(2) 0.8902(3) 0.2547(6)
H20_2 H 0.6068 0.9045 0.2839
C35_2 C 0.7236(2) 0.7920(2) 0.0752(6)
C36_2 C 0.7373(2) 0.7393(2) 0.1444(6)
C37_2 C 0.7249(2) 0.7258(3) 0.2868(6)
H22_2 H 0.7061 0.7531 0.3388
C38_2 C 0.7398(3) 0.6734(3) 0.3507(8)
H23_2 H 0.7323 0.6660 0.4465
C39_2 C 0.7667(3) 0.6303(3) 0.2717(8)
H24_2 H 0.7753 0.5938 0.3143
N4_2 N 0.6961(2) 0.83649(18) 0.1585(4)
loop_
_geom_bond_atom_site_label_1
_geom_bond_atom_site_label_2
_geom_bond_site_symmetry_1
_geom_bond_site_symmetry_2
C11 H8 1_555 1_555
C12 C11 1_555 1_555
C30 H18 1_555 1_555
C31 H19 1_555 1_555
C32 C31 1_555 1_555
H20 C32 1_555 1_555
C36 C12 1_555 1_555
C37 C36 1_555 1_555
H22 C37 1_555 1_555
C38 C37 1_555 1_555
H23 C38 1_555 1_555
C39 C11 1_555 1_555
H24 C39 1_555 1_555
N3 C30 1_555 1_555
N4 C30 1_555 1_555
Cd5 N3 1_555 1_555
C31 N4 1_555 1_555
C32 N3 1_555 1_555
C35 C36 1_555 1_555
C35 N4 1_555 1_555
C38 C39 1_555 1_555
C52 H34 1_555 1_555
C53 C52 1_555 1_555
C59 H38 1_555 1_555
C60 H39 1_555 1_555
C61 C60 1_555 1_555
H40 C61 1_555 1_555
C65 C53 1_555 1_555
C66 C65 1_555 1_555
H42 C66 1_555 1_555
C67 C66 1_555 1_555
H43 C67 1_555 1_555
C68 C52 1_555 1_555
H44 C68 1_555 1_555
N7 C59 1_555 1_555
N8 C59 1_555 1_555
Cd4 N7 1_555 1_555
C60 N8 1_555 1_555
C61 N7 1_555 1_555
C64 C65 1_555 1_555
C64 N8 1_555 1_555
C67 C68 1_555 1_555
C23 C24 1_555 1_555
C24 C25 1_555 1_555
C25 H14 1_555 1_555
C26 C25 1_555 1_555
C28 C27 1_555 1_555
C29 C24 1_555 1_555
H17 C29 1_555 1_555
O4 C23 1_555 1_555
O5 C23 1_555 1_555
Cd5 O4 1_555 1_555
C26 C27 1_555 1_555
C28 C29 1_555 1_555
O5 Cd5 1_555 1_555
Cd4 N1 1_555 1_555
C1 C2 1_555 1_555
C2 C3 1_555 1_555
C3 H1 1_555 1_555
C4 C3 1_555 1_555
C5 C4 1_555 1_555
C6 C5 1_555 1_555
C7 C2 1_555 1_555
H4 C7 1_555 1_555
C8 H5 1_555 1_555
C9 H6 1_555 1_555
C10 C9 1_555 1_555
H7 C10 1_555 1_555
C14 C13 1_555 1_555
C15 C14 1_555 1_555
H9 C15 1_555 1_555
C16 C15 1_555 1_555
H10 C16 1_555 1_555
C17 C16 1_555 1_555
H11 C17 1_555 1_555
C18 C19 1_555 1_555
C19 C20 1_555 1_555
C20 H12 1_555 1_555
C21 C20 1_555 1_555
H13 C21 1_555 1_555
C22 C21 1_555 1_555
N1 C8 1_555 1_555
N2 C8 1_555 1_555
O1 Cd4 1_555 1_555
O2 Cd4 1_555 1_555
O3 Cd4 1_555 1_555
C33 C17 1_555 1_555
H21 C33 1_555 1_555
C34 C14 1_555 1_555
C40 C41 1_555 1_555
C41 C42 1_555 1_555
C42 H25 1_555 1_555
C43 C42 1_555 1_555
H26 C43 1_555 1_555
C44 C22 1_555 1_555
O6 C40 1_555 1_555
C45 C41 1_555 1_555
H27 C45 1_555 1_555
C46 C44 1_555 1_555
H28 C46 1_555 1_555
O7 C40 1_555 1_555
C47 C19 1_555 1_555
H29 C47 1_555 1_555
C48 C22 1_555 1_555
H30 C48 1_555 1_555
O8 Cd4 1_555 1_555
Cd5 O6 1_555 1_555
C49 H31 1_555 1_555
C50 H32 1_555 1_555
C51 C50 1_555 1_555
H33 C51 1_555 1_555
C55 C54 1_555 1_555
C56 C55 1_555 1_555
H35 C56 1_555 1_555
C57 C56 1_555 1_555
H36 C57 1_555 1_555
C58 C57 1_555 1_555
H37 C58 1_555 1_555
N5 Cd5 1_555 1_555
N6 C49 1_555 1_555
C62 C58 1_555 1_555
H41 C62 1_555 1_555
C63 C55 1_555 1_555
C1 O1 1_555 1_555
C1 O2 1_555 1_555
C6 C7 1_555 1_555
C9 N2 1_555 1_555
C10 N1 1_555 1_555
C13 N2 1_555 1_555
C18 O3 1_555 1_555
C18 O8 1_555 1_555
C33 C34 1_555 1_555
C43 C44 1_555 1_555
C45 C46 1_555 1_555
O7 Cd5 1_555 1_555
C47 C48 1_555 1_555
C49 N5 1_555 1_555
C50 N6 1_555 1_555
C51 N5 1_555 1_555
C54 N6 1_555 1_555
C62 C63 1_555 1_555
Cd1 N1_2 1_555 1_555
C1_2 C2_2 1_555 1_555
C2_2 C3_2 1_555 1_555
C3_2 H1_2 1_555 1_555
C4_2 C3_2 1_555 1_555
C5_2 C4_2 1_555 1_555
C6_2 C5_2 1_555 1_555
H3 C6_2 1_555 1_555
C7_2 C2_2 1_555 1_555
H4_2 C7_2 1_555 1_555
C8_2 H5_2 1_555 1_555
C9_2 H6_2 1_555 1_555
C10_2 C9_2 1_555 1_555
H7_2 C10_2 1_555 1_555
C14_2 C13_2 1_555 1_555
C15_2 C14_2 1_555 1_555
H9_2 C15_2 1_555 1_555
C16_2 C15_2 1_555 1_555
H10_2 C16_2 1_555 1_555
C17_2 C16_2 1_555 1_555
H11_2 C17_2 1_555 1_555
C18_2 C19_2 1_555 1_555
C19_2 C20_2 1_555 1_555
C20_2 H12_2 1_555 1_555
C21_2 C20_2 1_555 1_555
H13_2 C21_2 1_555 1_555
C22_2 C21_2 1_555 1_555
N1_2 C8_2 1_555 1_555
N2_2 C8_2 1_555 1_555
O1_2 Cd1 1_555 1_555
O2_2 Cd1 1_555 1_555
O3_2 Cd1 1_555 1_555
C33_2 C17_2 1_555 1_555
H21_2 C33_2 1_555 1_555
C34_2 C14_2 1_555 1_555
C1_2 O1_2 1_555 1_555
C1_2 O2_2 1_555 1_555
C6_2 C7_2 1_555 1_555
C9_2 N2_2 1_555 1_555
C10_2 N1_2 1_555 1_555
C13_2 N2_2 1_555 1_555
C18_2 O3_2 1_555 1_555
C33_2 C34_2 1_555 1_555
C1_3 C2_3 1_555 1_555
C2_3 C3_3 1_555 1_555
C3_3 H1_3 1_555 1_555
C4_3 C3_3 1_555 1_555
C5_3 C4_3 1_555 1_555
C6_3 C5_3 1_555 1_555
H3_2 C6_3 1_555 1_555
C7_3 C2_3 1_555 1_555
H4_3 C7_3 1_555 1_555
C18_3 C19_3 1_555 1_555
O1_3 Cd1_2 1_555 1_555
O2_3 Cd1_2 1_555 1_555
C47_2 C19_3 1_555 1_555
H29_2 C47_2 1_555 1_555
C48_2 C22_3 1_555 1_555
H30_2 C48_2 1_555 1_555
O8_2 Cd1_2 1_555 1_555
N10 Cd1_2 1_555 1_555
C1_3 O1_3 1_555 1_555
C1_3 O2_3 1_555 1_555
C6_3 C7_3 1_555 1_555
C18_3 O8_2 1_555 1_555
C47_2 C48_2 1_555 1_555
C52_2 H34_2 1_555 1_555
C53_2 C52_2 1_555 1_555
C59_2 H38_2 1_555 1_555
C60_2 H39_2 1_555 1_555
C61_2 C60_2 1_555 1_555
H40_2 C61_2 1_555 1_555
C65_2 C53_2 1_555 1_555
C66_2 C65_2 1_555 1_555
H42_2 C66_2 1_555 1_555
C67_2 C66_2 1_555 1_555
H43_2 C67_2 1_555 1_555
C68_2 C52_2 1_555 1_555
H44_2 C68_2 1_555 1_555
N10 C59_2 1_555 1_555
N8_2 C59_2 1_555 1_555
C60_2 N8_2 1_555 1_555
C61_2 N10 1_555 1_555
C64_2 C65_2 1_555 1_555
C64_2 N8_2 1_555 1_555
C67_2 C68_2 1_555 1_555
C23_2 C24_2 1_555 1_555
C24_2 C25_2 1_555 1_555
C25_2 H14_2 1_555 1_555
C26_2 C25_2 1_555 1_555
C28_2 C27_2 1_555 1_555
H16_2 C28_2 1_555 1_555
C29_2 C24_2 1_555 1_555
H17_2 C29_2 1_555 1_555
O4_2 C23_2 1_555 1_555
O5_2 C23_2 1_555 1_555
Cd3 O4_2 1_555 1_555
C26_2 C27_2 1_555 1_555
C28_2 C29_2 1_555 1_555
O5_2 Cd3 1_555 1_555
C23_3 C24_3 1_555 1_555
C24_3 C25_3 1_555 1_555
C25_3 H14_3 1_555 1_555
C26_3 C25_3 1_555 1_555
C28_3 C27_3 1_555 1_555
H16_3 C28_3 1_555 1_555
C29_3 C24_3 1_555 1_555
H17_3 C29_3 1_555 1_555
O4_3 C23_3 1_555 1_555
O5_3 C23_3 1_555 1_555
Cd3_2 O4_3 1_555 1_555
C26_3 C27_3 1_555 1_555
C28_3 C29_3 1_555 1_555
O5_3 Cd3_2 1_555 1_555
C40_2 C41_2 1_555 1_555
C41_2 C42_2 1_555 1_555
C42_2 H25_2 1_555 1_555
C43_2 C42_2 1_555 1_555
H26_2 C43_2 1_555 1_555
O6_2 C40_2 1_555 1_555
Cd3 O6_2 1_555 1_555
C49_2 H31_2 1_555 1_555
C50_2 H32_2 1_555 1_555
C51_2 C50_2 1_555 1_555
H33_2 C51_2 1_555 1_555
C55_2 C54_2 1_555 1_555
C56_2 C55_2 1_555 1_555
H35_2 C56_2 1_555 1_555
C57_2 C56_2 1_555 1_555
H36_2 C57_2 1_555 1_555
C58_2 C57_2 1_555 1_555
H37_2 C58_2 1_555 1_555
N5_2 Cd3 1_555 1_555
N6_2 C49_2 1_555 1_555
C62_2 C58_2 1_555 1_555
H41_2 C62_2 1_555 1_555
C63_2 C55_2 1_555 1_555
C43_2 C44_2 1_555 1_555
C49_2 N5_2 1_555 1_555
C50_2 N6_2 1_555 1_555
C51_2 N5_2 1_555 1_555
C54_2 N6_2 1_555 1_555
C62_2 C63_2 1_555 1_555
C40_3 C41_3 1_555 1_555
C45_2 C41_3 1_555 1_555
H27_2 C45_2 1_555 1_555
C46_2 C44_3 1_555 1_555
H28_2 C46_2 1_555 1_555
O7_2 C40_3 1_555 1_555
N9 Cd3_2 1_555 1_555
C45_2 C46_2 1_555 1_555
O7_2 Cd3_2 1_555 1_555
C11_2 H8_2 1_555 1_555
C12_2 C11_2 1_555 1_555
C30_2 H18_2 1_555 1_555
C31_2 H19_2 1_555 1_555
C32_2 C31_2 1_555 1_555
H20_2 C32_2 1_555 1_555
C36_2 C12_2 1_555 1_555
C37_2 C36_2 1_555 1_555
H22_2 C37_2 1_555 1_555
C38_2 C37_2 1_555 1_555
H23_2 C38_2 1_555 1_555
C39_2 C11_2 1_555 1_555
H24_2 C39_2 1_555 1_555
N9 C30_2 1_555 1_555
N4_2 C30_2 1_555 1_555
C31_2 N4_2 1_555 1_555
C32_2 N9 1_555 1_555
C35_2 C36_2 1_555 1_555
C35_2 N4_2 1_555 1_555
C38_2 C39_2 1_555 1_555

#END
