
###############################################################################
#
# This file contains modified crystal structure data generated from the
# MOF subset of the Cambridge Structural Database (CSD) v543 
# hosted by the Cambridge Crystallographic Data Centre (CCDC).
#
# This work is licensed under the Creative Commons
# Attribution-NonCommercial-ShareAlike 4.0 International License.
# To view a copy of this license, visit
# http://creativecommons.org/licenses/by-nc-sa/4.0/
# or send a letter to
# Creative Commons, PO Box 1866, Mountain View, CA 94042, USA.
#
# CIF created using the CSD Python API on 29 September 2022
# The structure has been converted into the P1 space group
# The structure has a 3D framework
# The original CSD entry IQOHUT is in the triclinic crystal system
# The framework has been calculated to contain at least 10.0% void space
# The void calculation uses a probe of radius 1.32A, grid spacing 0.4
#
###############################################################################

data_IQOHUT
_chemical_formula_moiety         '(C60 H48 Co6 N5 O12)n'
_symmetry_cell_setting           triclinic
_symmetry_space_group_name_H-M   'P 1'
_symmetry_Int_Tables_number      1
_space_group_name_Hall           'P 1'
loop_
_symmetry_equiv_pos_site_id
_symmetry_equiv_pos_as_xyz
1 x,y,z
_cell_length_a                   11.2867(11)
_cell_length_b                   13.8357(13)
_cell_length_c                   14.8608(14)
_cell_angle_alpha                85.2090(10)
_cell_angle_beta                 69.7420(10)
_cell_angle_gamma                73.9090(10)
_cell_volume                     2091.61
loop_
_atom_site_label
_atom_site_type_symbol
_atom_site_fract_x
_atom_site_fract_y
_atom_site_fract_z
C15 C 0.2317(3) 0.5917(2) 0.1564(2)
H9 H 0.2223 0.5271 0.1553
C16 C 0.1254(3) 0.6649(2) 0.2119(2)
H10 H 0.0469 0.6496 0.2463
C17 C 0.1382(3) 0.7616(2) 0.2155(2)
C18 C 0.2596(3) 0.7779(2) 0.1656(2)
H11 H 0.2740 0.8404 0.1688
C19 C 0.3589(3) 0.7011(2) 0.1110(2)
H12 H 0.4389 0.7143 0.0768
C20 C 0.0261(3) 0.8450(2) 0.2689(2)
C25 C 0.0466(3) 0.9217(2) 0.3120(2)
H16 H 0.1307 0.9185 0.3104
N2 N 0.3471(2) 0.60890(18) 0.10415(17)
Co6 Co 0.5000 0.5000 0.0000
C1 C 0.4790(3) 0.3353(2) 0.15015(19)
C2 C 0.5351(3) 0.2737(2) 0.22208(19)
C3 C 0.4743(3) 0.2044(2) 0.2794(2)
H1 H 0.3966 0.1976 0.2755
C4 C 0.5299(3) 0.1454(2) 0.3424(2)
H2 H 0.4886 0.0998 0.3812
C5 C 0.6464(3) 0.1543(2) 0.34740(19)
C6 C 0.7063(3) 0.2241(2) 0.2919(2)
H3 H 0.7840 0.2308 0.2961
C7 C 0.6500(3) 0.2843(2) 0.2298(2)
H4 H 0.6895 0.3320 0.1932
C8 C 0.4968(3) 0.1050(2) 0.81511(19)
C9 C 0.5482(3) 0.1013(2) 0.70819(19)
C10 C 0.4925(3) 0.1737(2) 0.6534(2)
H5 H 0.4195 0.2254 0.6839
C11 C 0.5438(3) 0.1701(2) 0.5542(2)
H6 H 0.5050 0.2191 0.5187
C12 C 0.6542(3) 0.0926(2) 0.5068(2)
C13 C 0.7094(3) 0.0191(2) 0.5621(2)
C14 C 0.6571(3) 0.0241(2) 0.6607(2)
C23 C 0.8182(3) 0.0072(2) 0.35990(19)
C24 C 0.9434(3) 0.0027(2) 0.3573(2)
H15 H 0.9583 0.0536 0.3857
Co1 Co 0.5000 -0.0000 1.0000
N1 N 0.7101(3) 0.08977(19) 0.40751(17)
O1 O 0.3874(2) 0.31170(15) 0.13453(14)
O2 O 0.5288(2) 0.40474(15) 0.11071(14)
O3 O 0.4047(2) 0.17878(16) 0.85768(14)
O4 O 0.55050(18) 0.03242(15) 0.85725(13)
O6 O 0.64671(19) 0.56065(14) 0.00610(14)
H24 H 0.6248 0.5859 0.0616
H46 H 0.4308 0.1900 0.9956
H47 H 0.3431 0.3937 0.0357
N9 N 0.6839(2) 0.01234(18) 0.99755(16)
H7 H 0.7817 0.9667 0.5320
H8 H 0.6953 0.9750 0.6964
C21 C 0.8997(3) 0.8503(2) 0.2733(2)
H13 H 0.8843 0.7993 0.2456
C22 C 0.7958(3) 0.9313(2) 0.3188(2)
H14 H 0.7113 0.9342 0.3216
C29 C 0.1782(3) 0.9583(3) 0.9234(2)
H19 H 0.1714 0.9353 0.8689
C30 C 0.2991(3) 0.9548(3) 0.9274(2)
H20 H 0.3728 0.9281 0.8749
Co1_2 Co 0.5000 1.0000 1.0000
O5 O 0.6037(2) 0.84832(15) 0.96174(14)
H21 H 0.6831 0.8394 0.9574
C33 C 0.9336(3) 0.0036(2) 0.9990(2)
C31 C 0.7910(3) 0.9770(2) 0.9222(2)
H25 H 0.7810 0.9552 0.8684
C32 C 0.9149(3) 0.9715(2) 0.9203(2)
H26 H 0.9866 0.9462 0.8661
Co6_2 Co 0.5000 0.5000 1.0000
C26 C 0.2090(3) 0.0230(2) 0.0778(2)
H17 H 0.2190 0.0448 0.1316
C27 C 0.0851(3) 0.0285(2) 0.0797(2)
H18 H 0.0134 0.0538 0.1339
Co1_3 Co 0.5000 -0.0000 0.0000
H35 H 0.2183 0.0333 0.4680
H36 H 0.3047 0.0250 0.3036
C56 C 0.1003(3) 0.1497(2) 0.7267(2)
H41 H 0.1157 0.2007 0.7544
C57 C 0.2042(3) 0.0687(2) 0.6812(2)
H42 H 0.2887 0.0658 0.6784
O11 O 0.3963(2) 0.15168(15) 0.03826(14)
H45 H 0.3169 0.1606 0.0426
H23 H 0.6569 0.6063 0.9643
O12 O 0.35329(19) 0.43935(14) 0.99390(14)
H48 H 0.3752 0.4141 0.9384
N8 N 0.6529(2) 0.39110(18) 0.89585(17)
O13 O 0.4712(2) 0.59526(15) 0.88929(14)
C28 C 0.0664(3) 0.9964(2) 0.0010(2)
Co1_4 Co 0.5000 1.0000 0.0000
N3 N 0.3161(2) 0.98766(18) 0.00245(16)
H22 H 0.5692 0.8100 0.0044
C36 C 0.5210(3) 0.6647(2) 0.84985(19)
C37 C 0.4649(3) 0.7263(2) 0.77792(19)
C38 C 0.5257(3) 0.7956(2) 0.7206(2)
H29 H 0.6034 0.8024 0.7245
C39 C 0.4701(3) 0.8546(2) 0.6576(2)
H30 H 0.5114 0.9002 0.6188
C40 C 0.3536(3) 0.8457(2) 0.65260(19)
C41 C 0.2937(3) 0.7759(2) 0.7081(2)
H31 H 0.2160 0.7692 0.7039
C42 C 0.3500(3) 0.7157(2) 0.7702(2)
H32 H 0.3105 0.6680 0.8068
C43 C 0.5032(3) 0.8950(2) 0.18489(19)
C44 C 0.4518(3) 0.8987(2) 0.29181(19)
C45 C 0.5075(3) 0.8263(2) 0.3466(2)
H33 H 0.5805 0.7746 0.3161
C46 C 0.4562(3) 0.8299(2) 0.4458(2)
H34 H 0.4950 0.7809 0.4813
C47 C 0.3458(3) 0.9074(2) 0.4932(2)
C48 C 0.2906(3) 0.9809(2) 0.4379(2)
C49 C 0.3429(3) 0.9759(2) 0.3393(2)
C58 C 0.1818(3) 0.9928(2) 0.64010(19)
C59 C 0.0566(3) 0.9973(2) 0.6427(2)
H43 H 0.0417 0.9464 0.6143
N5 N 0.2899(3) 0.91023(19) 0.59249(17)
O7 O 0.6126(2) 0.68830(15) 0.86547(14)
O9 O 0.5953(2) 0.82122(16) 0.14232(14)
O10 O 0.44950(18) 0.96758(15) 0.14275(13)
C34 C 0.8218(3) 0.0417(3) 0.0766(2)
H27 H 0.8286 0.0647 0.1311
C35 C 0.7009(3) 0.0452(3) 0.0726(2)
H28 H 0.6272 0.0719 0.1251
C50 C 0.7683(3) 0.4083(2) 0.8436(2)
H37 H 0.7777 0.4729 0.8447
C51 C 0.8746(3) 0.3351(2) 0.7881(2)
H38 H 0.9531 0.3504 0.7537
C52 C 0.8618(3) 0.2384(2) 0.7845(2)
C53 C 0.7404(3) 0.2221(2) 0.8344(2)
H39 H 0.7260 0.1596 0.8312
C54 C 0.6411(3) 0.2989(2) 0.8890(2)
H40 H 0.5611 0.2857 0.9232
C55 C 0.9739(3) 0.1550(2) 0.7311(2)
C60 C 0.9534(3) 0.0783(2) 0.6880(2)
H44 H 0.8693 0.0815 0.6896
loop_
_geom_bond_atom_site_label_1
_geom_bond_atom_site_label_2
_geom_bond_site_symmetry_1
_geom_bond_site_symmetry_2
C15 H9 1_555 1_555
C16 C15 1_555 1_555
H10 C16 1_555 1_555
C17 C16 1_555 1_555
C18 C17 1_555 1_555
H11 C18 1_555 1_555
C19 C18 1_555 1_555
H12 C19 1_555 1_555
C20 C17 1_555 1_555
C25 C20 1_555 1_555
H16 C25 1_555 1_555
N2 C15 1_555 1_555
Co6 N2 1_555 1_555
C19 N2 1_555 1_555
C1 C2 1_555 1_555
C2 C3 1_555 1_555
C3 H1 1_555 1_555
C4 C3 1_555 1_555
H2 C4 1_555 1_555
C5 C4 1_555 1_555
C6 C5 1_555 1_555
H3 C6 1_555 1_555
C7 C2 1_555 1_555
H4 C7 1_555 1_555
C8 C9 1_555 1_555
C9 C10 1_555 1_555
C10 H5 1_555 1_555
C11 C10 1_555 1_555
H6 C11 1_555 1_555
C12 C11 1_555 1_555
C13 C12 1_555 1_555
C14 C9 1_555 1_555
C24 C23 1_555 1_555
H15 C24 1_555 1_555
Co6 O2 1_555 1_555
N1 C5 1_555 1_555
O1 C1 1_555 1_555
O2 C1 1_555 1_555
O3 C8 1_555 1_555
O4 C8 1_555 1_555
O6 Co6 1_555 1_555
H24 O6 1_555 1_555
N9 Co1 1_555 1_555
C6 C7 1_555 1_555
C12 N1 1_555 1_555
C13 C14 1_555 1_555
C23 N1 1_555 1_555
Co1 O4 1_555 1_555
H13 C21 1_555 1_555
C22 C21 1_555 1_555
H14 C22 1_555 1_555
H19 C29 1_555 1_555
C30 C29 1_555 1_555
H20 C30 1_555 1_555
O5 Co1_2 1_555 1_555
H21 O5 1_555 1_555
C31 H25 1_555 1_555
C32 C31 1_555 1_555
H26 C32 1_555 1_555
C26 H17 1_555 1_555
C27 C26 1_555 1_555
H18 C27 1_555 1_555
H41 C56 1_555 1_555
C57 C56 1_555 1_555
H42 C57 1_555 1_555
O11 Co1_3 1_555 1_555
H45 O11 1_555 1_555
O12 Co6_2 1_555 1_555
H48 O12 1_555 1_555
N8 Co6_2 1_555 1_555
O13 Co6_2 1_555 1_555
Co1_4 N3 1_555 1_555
C36 C37 1_555 1_555
C37 C38 1_555 1_555
C38 H29 1_555 1_555
C39 C38 1_555 1_555
H30 C39 1_555 1_555
C40 C39 1_555 1_555
C41 C40 1_555 1_555
H31 C41 1_555 1_555
C42 C37 1_555 1_555
H32 C42 1_555 1_555
C43 C44 1_555 1_555
C44 C45 1_555 1_555
C45 H33 1_555 1_555
C46 C45 1_555 1_555
H34 C46 1_555 1_555
C47 C46 1_555 1_555
C48 C47 1_555 1_555
C49 C44 1_555 1_555
C59 C58 1_555 1_555
H43 C59 1_555 1_555
N5 C40 1_555 1_555
O7 C36 1_555 1_555
O13 C36 1_555 1_555
O9 C43 1_555 1_555
O10 Co1_4 1_555 1_555
C41 C42 1_555 1_555
C43 O10 1_555 1_555
C47 N5 1_555 1_555
C48 C49 1_555 1_555
C58 N5 1_555 1_555
H27 C34 1_555 1_555
C35 C34 1_555 1_555
H28 C35 1_555 1_555
C50 H37 1_555 1_555
C51 C50 1_555 1_555
H38 C51 1_555 1_555
C52 C51 1_555 1_555
C53 C52 1_555 1_555
H39 C53 1_555 1_555
C54 C53 1_555 1_555
H40 C54 1_555 1_555
C55 C52 1_555 1_555
C60 C55 1_555 1_555
H44 C60 1_555 1_555
N8 C50 1_555 1_555
C54 N8 1_555 1_555

#END
