
###############################################################################
#
# This file contains modified crystal structure data generated from the
# MOF subset of the Cambridge Structural Database (CSD) v543 
# hosted by the Cambridge Crystallographic Data Centre (CCDC).
#
# This work is licensed under the Creative Commons
# Attribution-NonCommercial-ShareAlike 4.0 International License.
# To view a copy of this license, visit
# http://creativecommons.org/licenses/by-nc-sa/4.0/
# or send a letter to
# Creative Commons, PO Box 1866, Mountain View, CA 94042, USA.
#
# CIF created using the CSD Python API on 29 September 2022
# The structure has been converted into the P1 space group
# The structure has a 3D framework
# The original CSD entry IQOJEF is in the monoclinic crystal system
# The framework has been calculated to contain at least 10.0% void space
# The void calculation uses a probe of radius 1.32A, grid spacing 0.4
#
###############################################################################

data_IQOJEF
_chemical_formula_moiety         '(C248 H168 N32 O32 Zn8)n'
_symmetry_cell_setting           triclinic
_symmetry_space_group_name_H-M   'P 1'
_symmetry_Int_Tables_number      1
_space_group_name_Hall           'P 1'
loop_
_symmetry_equiv_pos_site_id
_symmetry_equiv_pos_as_xyz
1 x,y,z
_cell_length_a                   14.2232(7)
_cell_length_b                   26.5395(14)
_cell_length_c                   19.4670(10)
_cell_angle_alpha                90
_cell_angle_beta                 107.7010(10)
_cell_angle_gamma                90
_cell_volume                     7000.44
loop_
_atom_site_label
_atom_site_type_symbol
_atom_site_fract_x
_atom_site_fract_y
_atom_site_fract_z
Zn11 Zn 0.01396(2) 0.541444(12) 0.845612(18)
C29 C 0.0329(2) 0.59147(11) 0.04571(16)
H19 H 0.0742 0.5988 0.0180
C30 C 0.0321(2) 0.54438(11) 0.07251(17)
H20 H 0.0739 0.5204 0.0627
H31 H 0.1296 0.8245 0.0049
C52 C 0.1455(2) 0.47173(17) 0.3713(2)
H34 H 0.2039 0.4711 0.4093
C53 C 0.1354(2) 0.46489(16) 0.3016(2)
H35 H 0.1873 0.4592 0.2828
C54 C 0.0852(2) 0.52090(13) 0.49138(16)
H36 H 0.1421 0.5348 0.4852
C55 C 0.0254(2) 0.49005(12) 0.43921(15)
N5 N 0.03844(17) 0.46744(10) 0.26165(13)
N6 N 0.05183(17) 0.47986(10) 0.37550(13)
C63 C 0.0090(2) 0.52273(12) 0.69166(16)
H43 H 0.0769 0.5181 0.7040
C68 C 0.0597(2) 0.53086(12) 0.55270(17)
H47 H 0.0994 0.5515 0.5885
C75 C 0.1913(2) 0.57520(13) 0.87557(19)
C76 C 0.2835(2) 0.60463(12) 0.89230(17)
C77 C 0.3092(2) 0.63976(13) 0.9470(2)
H53 H 0.2666 0.6454 0.9743
C78 C 0.3950(2) 0.66643(13) 0.9625(2)
C79 C 0.4600(2) 0.65942(12) 0.92263(19)
C80 C 0.4346(2) 0.62473(14) 0.8667(2)
H55 H 0.4765 0.6195 0.8388
C81 C 0.3481(2) 0.59811(14) 0.85228(19)
H56 H 0.3323 0.5750 0.8146
C82 C 0.8685(2) 0.60638(12) 0.85177(17)
C83 C 0.78420(19) 0.62700(11) 0.87449(16)
C84 C 0.7466(2) 0.67402(12) 0.8513(2)
H57 H 0.7734 0.6929 0.8216
C85 C 0.6682(2) 0.69348(12) 0.8724(2)
H58 H 0.6422 0.7250 0.8561
C86 C 0.6297(2) 0.66607(12) 0.9171(2)
C87 C 0.6665(3) 0.61917(13) 0.9390(2)
H59 H 0.6397 0.6002 0.9687
C88 C 0.7432(2) 0.59967(13) 0.9176(2)
H60 H 0.7672 0.5676 0.9327
H62 H 0.5564 0.9197 0.9906
C95 C 0.5053(2) 0.81804(12) 0.98088(18)
H65 H 0.4602 0.8437 0.9623
C96 C 0.4931(2) 0.77203(12) 0.9465(2)
H66 H 0.4393 0.7667 0.9057
C97 C 0.5607(2) 0.73372(12) 0.9725(2)
C100 C 0.0831(3) 0.43407(13) 0.8740(2)
H69 H 0.1233 0.4425 0.8460
C101 C 0.0865(3) 0.38555(13) 0.8987(2)
H70 H 0.1284 0.3623 0.8874
C102 C 0.02758(19) 0.37093(11) 0.94074(15)
C105 C 0.0308(2) 0.31959(11) 0.97124(16)
C106 C 0.0805(2) 0.27996(13) 0.94965(19)
H73 H 0.1096 0.2855 0.9136
C107 C 0.0871(3) 0.23327(13) 0.9805(2)
H74 H 0.1203 0.2077 0.9648
N14 N 0.54946(19) 0.68595(10) 0.93811(19)
N15 N 0.02583(17) 0.46963(9) 0.88752(13)
O9 O 0.12903(16) 0.58445(9) 0.90705(15)
O10 O 0.1764(2) 0.53996(12) 0.82899(15)
O11 O 0.90031(14) 0.56306(9) 0.87567(12)
O12 O 0.90393(19) 0.63139(10) 0.81204(15)
O17 O 0.09969(14) 0.43694(9) 0.12433(12)
C1 C 0.8087(2) 0.42480(13) 0.12443(19)
C2 C 0.7165(2) 0.39537(12) 0.10770(17)
C3 C 0.6908(2) 0.36024(13) 0.0530(2)
H1 H 0.7334 0.3546 0.0257
C4 C 0.6050(2) 0.33357(13) 0.0375(2)
C5 C 0.5400(2) 0.34058(12) 0.07737(19)
C6 C 0.5654(2) 0.37527(14) 0.1333(2)
H3 H 0.5235 0.3805 0.1612
C7 C 0.6519(2) 0.40189(14) 0.14772(19)
H4 H 0.6677 0.4250 0.1854
C8 C 0.1315(2) 0.39362(12) 0.14823(17)
C9 C 0.21580(19) 0.37300(11) 0.12551(16)
C10 C 0.2534(2) 0.32598(12) 0.1487(2)
H5 H 0.2266 0.3071 0.1784
C11 C 0.3318(2) 0.30652(12) 0.1276(2)
H6 H 0.3578 0.2750 0.1439
C12 C 0.3703(2) 0.33393(12) 0.0829(2)
C13 C 0.3335(3) 0.38083(13) 0.0610(2)
H7 H 0.3603 0.3998 0.0313
C14 C 0.2568(2) 0.40033(13) 0.0824(2)
H8 H 0.2328 0.4324 0.0673
H10 H 0.4436 0.0803 0.0094
C21 C 0.4947(2) 0.18196(12) 0.01912(18)
H13 H 0.5398 0.1563 0.0377
C22 C 0.5069(2) 0.22797(12) 0.0535(2)
H14 H 0.5607 0.2333 0.0943
C23 C 0.4393(2) 0.26628(12) 0.0275(2)
C26 C 0.9169(3) 0.56593(13) 0.1260(2)
H17 H 0.8767 0.5575 0.1540
C27 C 0.9135(3) 0.61445(13) 0.1013(2)
H18 H 0.8716 0.6377 0.1126
C28 C 0.97242(19) 0.62907(11) 0.05926(15)
C31 C 0.9692(2) 0.68041(11) 0.02876(16)
C32 C 0.9195(2) 0.72004(13) 0.05035(19)
H21 H 0.8904 0.7145 0.0864
C33 C 0.9129(3) 0.76673(13) 0.0195(2)
H22 H 0.8797 0.7923 0.0352
C51 C 0.9910(2) 0.47727(12) 0.30834(16)
H33 H 0.9231 0.4819 0.2960
C56 C 0.9403(2) 0.46914(12) 0.44730(17)
H37 H 0.9006 0.4485 0.4115
N2 N 0.45054(19) 0.31405(10) 0.06189(19)
N3 N 0.97417(17) 0.53037(9) 0.11248(13)
O1 O 0.87097(16) 0.41555(9) 0.09295(15)
O2 O 0.8236(2) 0.46004(12) 0.17101(15)
O4 O 0.09607(19) 0.36861(10) 0.18796(15)
Zn2 Zn 0.98604(2) 0.458556(12) 0.154388(18)
C64 C 0.8545(2) 0.52827(17) 0.6287(2)
H44 H 0.7961 0.5289 0.5907
C65 C 0.8646(2) 0.53511(16) 0.6984(2)
H45 H 0.8127 0.5408 0.7172
C66 C 0.9148(2) 0.47910(13) 0.50862(16)
H46 H 0.8579 0.4652 0.5148
C67 C 0.9746(2) 0.50995(12) 0.56079(15)
N9 N 0.96156(17) 0.53256(10) 0.73835(13)
N10 N 0.94817(17) 0.52014(10) 0.62450(13)
C103 C 0.9671(2) 0.40853(11) 0.95429(16)
H71 H 0.9258 0.4012 0.9820
C104 C 0.9679(2) 0.45562(11) 0.92749(17)
H72 H 0.9261 0.4796 0.9373
H83 H 0.8704 0.1755 0.9951
Zn9 Zn 0.60667(2) 0.041820(12) 0.189305(16)
C60 C 0.3992(2) 0.00618(13) 0.48131(16)
H41 H 0.3311 0.0103 0.4688
C69 C 0.7095(2) 0.04753(13) 0.35012(16)
H48 H 0.7668 0.0604 0.3432
C70 C 0.6933(2) 0.04242(13) 0.41397(17)
H49 H 0.7369 0.0505 0.4589
C71 C 0.5651(2) 0.01658(12) 0.32886(15)
H50 H 0.5029 0.0035 0.3053
C73 C 0.5493(2) 0.01185(11) 0.45123(15)
C74 C 0.4484(2) 0.01804(13) 0.43267(16)
H52 H 0.4136 0.0302 0.3873
N11 N 0.62822(17) 0.03072(9) 0.29625(12)
N12 N 0.60048(18) 0.02316(10) 0.40052(12)
N17 N 0.39214(16) 0.03012(9) 0.85194(12)
H54 H 0.4101 0.6896 0.0002
C89 C 0.5834(2) 0.96552(12) 0.07631(17)
H61 H 0.5714 0.9949 0.0490
C90 C 0.5748(2) 0.92046(11) 0.04071(16)
C91 C 0.5937(2) 0.87596(11) 0.07984(16)
C92 C 0.6209(3) 0.88034(12) 0.15366(18)
H63 H 0.6357 0.8517 0.1824
C93 C 0.6262(2) 0.92725(13) 0.18510(16)
H64 H 0.6437 0.9290 0.2351
C94 C 0.5836(2) 0.82679(11) 0.04274(17)
C98 C 0.6402(2) 0.74288(13) 0.0317(2)
H67 H 0.6870 0.7177 0.0487
C99 C 0.6520(3) 0.78835(13) 0.0666(2)
H68 H 0.7067 0.7936 0.1068
C108 C 0.0454(2) 0.22357(12) 0.03419(18)
C111 C 0.4370(3) 0.0856(2) 0.1520(2)
C112 C 0.3351(2) 0.10735(18) 0.12928(19)
C113 C 0.3239(3) 0.15705(18) 0.1357(3)
H77 H 0.3798 0.1769 0.1544
C114 C 0.2335(2) 0.17967(15) 0.1160(3)
H78 H 0.2289 0.2143 0.1214
C115 C 0.1497(2) 0.15194(11) 0.08842(17)
C116 C 0.1582(2) 0.10131(14) 0.08042(19)
H79 H 0.1024 0.0814 0.0616
C117 C 0.2521(3) 0.07996(16) 0.1011(2)
H80 H 0.2579 0.0454 0.0952
H82 H 0.0516 0.1260 0.1827
N13 N 0.60786(16) 0.96988(9) 0.14806(12)
N16 N 0.05540(17) 0.17569(9) 0.06741(16)
O15 O 0.4497(3) 0.04260(16) 0.14064(18)
O16 O 0.5092(2) 0.10946(17) 0.1830(2)
C35 C 0.0039(2) 0.73811(12) 0.94352(19)
H23 H 0.0322 0.7439 0.9071
C36 C 0.0113(2) 0.69093(12) 0.97513(17)
H24 H 0.0456 0.6657 0.9598
C44 C 0.2717(2) 0.91306(11) 0.8657(2)
C45 C 0.18535(19) 0.88828(11) 0.88156(16)
C46 C 0.0912(2) 0.89200(13) 0.83362(17)
H29 H 0.0814 0.9087 0.7900
C47 C 0.0114(2) 0.87112(13) 0.84986(17)
C48 C 0.02479(19) 0.84600(11) 0.91434(17)
C49 C 0.1194(2) 0.84193(12) 0.96182(17)
C50 C 0.1987(2) 0.86346(11) 0.94579(17)
H32 H 0.2615 0.8611 0.9787
C57 C 0.2905(2) 0.95247(13) 0.64988(16)
H38 H 0.2332 0.9396 0.6568
C58 C 0.3067(2) 0.95758(13) 0.58603(17)
H39 H 0.2631 0.9495 0.5411
C59 C 0.4349(2) 0.98342(12) 0.67114(15)
H40 H 0.4971 0.9965 0.6947
C61 C 0.4507(2) 0.98815(11) 0.54877(15)
C62 C 0.5516(2) 0.98196(13) 0.56733(16)
H42 H 0.5864 0.9698 0.6127
N7 N 0.37178(17) 0.96928(9) 0.70375(12)
N8 N 0.39952(18) 0.97684(10) 0.59948(12)
O5 O 0.26378(15) 0.92456(9) 0.80080(13)
O6 O 0.34826(15) 0.92226(8) 0.91596(13)
Zn1 Zn 0.39333(2) 0.958180(12) 0.810695(16)
C72 C 0.6008(2) 0.99382(13) 0.51869(16)
H51 H 0.6689 0.9897 0.5312
O19 O 0.5503(3) 0.95740(16) 0.85936(18)
O21 O 0.4908(2) 0.89054(17) 0.8170(2)
C109 C 0.9961(2) 0.26189(12) 0.05648(19)
H75 H 0.9678 0.2561 0.0929
C110 C 0.9887(2) 0.30907(12) 0.02487(17)
H76 H 0.9544 0.3343 0.0402
C118 C 0.7283(2) 0.08694(11) 0.1343(2)
C119 C 0.81465(19) 0.11172(11) 0.11844(16)
C120 C 0.9088(2) 0.10800(13) 0.16638(17)
H81 H 0.9186 0.0913 0.2100
C121 C 0.9886(2) 0.12888(13) 0.15014(17)
C122 C 0.97521(19) 0.15400(11) 0.08566(17)
C123 C 0.8806(2) 0.15807(12) 0.03818(17)
C124 C 0.8013(2) 0.13654(11) 0.05421(17)
H84 H 0.7385 0.1389 0.0213
O13 O 0.73622(15) 0.07544(9) 0.19920(13)
O14 O 0.65174(15) 0.07774(8) 0.08404(13)
H2 H 0.5899 0.3104 0.9998
C15 C 0.4166(2) 0.03448(12) 0.92369(17)
H9 H 0.4286 0.0051 0.9510
C16 C 0.4252(2) 0.07954(11) 0.95929(16)
C17 C 0.4063(2) 0.12404(11) 0.92016(16)
C18 C 0.3791(3) 0.11966(12) 0.84634(18)
H11 H 0.3643 0.1483 0.8176
C19 C 0.3738(2) 0.07275(13) 0.81490(16)
H12 H 0.3563 0.0710 0.7649
C20 C 0.4164(2) 0.17321(11) 0.95726(17)
C24 C 0.3598(2) 0.25712(13) 0.9683(2)
H15 H 0.3130 0.2823 0.9513
C25 C 0.3480(3) 0.21165(13) 0.9334(2)
H16 H 0.2933 0.2064 0.8932
C34 C 0.9546(2) 0.77643(12) 0.96581(18)
C37 C 0.5630(3) 0.9144(2) 0.8480(2)
C38 C 0.6649(2) 0.89265(18) 0.87072(19)
C39 C 0.6761(3) 0.84295(18) 0.8643(3)
H25 H 0.6202 0.8231 0.8456
C40 C 0.7665(2) 0.82033(15) 0.8840(3)
H26 H 0.7711 0.7857 0.8786
C41 C 0.8503(2) 0.84806(11) 0.91158(17)
C42 C 0.8418(2) 0.89869(14) 0.91958(19)
H27 H 0.8976 0.9186 0.9384
C43 C 0.7479(3) 0.92004(16) 0.8989(2)
H28 H 0.7421 0.9546 0.9048
H30 H 0.9484 0.8740 0.8173
N4 N 0.94460(17) 0.82431(9) 0.93259(16)
Zn10 Zn 0.01396(2) 0.958556(12) 0.345612(18)
C26_2 C 0.0831(3) 0.06593(13) 0.3740(2)
H17_2 H 0.1233 0.0575 0.3460
C27_2 C 0.0865(3) 0.11445(13) 0.3987(2)
H18_2 H 0.1284 0.1377 0.3874
C28_2 C 0.02758(19) 0.12907(11) 0.44074(15)
C31_2 C 0.0308(2) 0.18041(11) 0.47124(16)
C32_2 C 0.0805(2) 0.22004(13) 0.44965(19)
H21_2 H 0.1096 0.2145 0.4136
C33_2 C 0.0871(3) 0.26673(13) 0.4805(2)
H22_2 H 0.1203 0.2923 0.4648
C34_2 C 0.0454(2) 0.27643(12) 0.53419(18)
C37_2 C 0.4370(3) 0.4144(2) 0.6520(2)
C38_2 C 0.3351(2) 0.39265(18) 0.62928(19)
C39_2 C 0.3239(3) 0.34295(18) 0.6357(3)
H25_2 H 0.3798 0.3231 0.6544
C40_2 C 0.2335(2) 0.32033(15) 0.6160(3)
H26_2 H 0.2289 0.2857 0.6214
C41_2 C 0.1497(2) 0.34806(11) 0.58842(17)
C42_2 C 0.1582(2) 0.39869(14) 0.58042(19)
H27_2 H 0.1024 0.4186 0.5616
C43_2 C 0.2521(3) 0.42004(16) 0.6011(2)
H28_2 H 0.2579 0.4546 0.5952
H30_2 H 0.0516 0.3740 0.6827
N3_2 N 0.02583(17) 0.03037(9) 0.38752(13)
N4_2 N 0.05540(17) 0.32431(9) 0.56741(16)
O7 O 0.4497(3) 0.45740(16) 0.64064(18)
O8 O 0.5092(2) 0.39054(17) 0.6830(2)
Zn6 Zn 0.60667(2) 0.458180(12) 0.689305(16)
C1_2 C 0.1913(2) 0.92480(13) 0.37557(19)
C2_2 C 0.2835(2) 0.89537(12) 0.39230(17)
C3_2 C 0.3092(2) 0.86024(13) 0.4470(2)
H1_2 H 0.2666 0.8546 0.4743
C4_2 C 0.3950(2) 0.83357(13) 0.4625(2)
H2_2 H 0.4101 0.8104 0.5002
C5_2 C 0.4600(2) 0.84058(12) 0.42263(19)
C6_2 C 0.4346(2) 0.87527(14) 0.3667(2)
H3_2 H 0.4765 0.8805 0.3388
C7_2 C 0.3481(2) 0.90189(14) 0.35228(19)
H4_2 H 0.3323 0.9250 0.3146
C8_2 C 0.8685(2) 0.89362(12) 0.35177(17)
C9_2 C 0.78420(19) 0.87300(11) 0.37449(16)
C10_2 C 0.7466(2) 0.82598(12) 0.3513(2)
H5_2 H 0.7734 0.8071 0.3216
C11_2 C 0.6682(2) 0.80652(12) 0.3724(2)
H6_2 H 0.6422 0.7750 0.3561
C12_2 C 0.6297(2) 0.83393(12) 0.4171(2)
C13_2 C 0.6665(3) 0.88083(13) 0.4390(2)
H7_2 H 0.6397 0.8998 0.4687
C14_2 C 0.7432(2) 0.90033(13) 0.4176(2)
H8_2 H 0.7672 0.9324 0.4327
C15_2 C 0.5834(2) 0.53448(12) 0.57631(17)
H9_2 H 0.5714 0.5051 0.5490
C16_2 C 0.5748(2) 0.57954(11) 0.54071(16)
H10_2 H 0.5564 0.5803 0.4906
C17_2 C 0.5937(2) 0.62404(11) 0.57984(16)
C18_2 C 0.6209(3) 0.61966(12) 0.65366(18)
H11_2 H 0.6357 0.6483 0.6824
C19_2 C 0.6262(2) 0.57275(13) 0.68510(16)
H12_2 H 0.6437 0.5710 0.7351
C20_2 C 0.5836(2) 0.67321(11) 0.54274(17)
C21_2 C 0.5053(2) 0.68196(12) 0.48088(18)
H13_2 H 0.4602 0.6563 0.4623
C22_2 C 0.4931(2) 0.72797(12) 0.4465(2)
H14_2 H 0.4393 0.7333 0.4057
C23_2 C 0.5607(2) 0.76628(12) 0.4725(2)
C24_2 C 0.6402(2) 0.75712(13) 0.5317(2)
H15_2 H 0.6870 0.7823 0.5487
C25_2 C 0.6520(3) 0.71165(13) 0.5666(2)
H16_2 H 0.7067 0.7064 0.6068
C51_2 C 0.0090(2) 0.97727(12) 0.19166(16)
H33_2 H 0.0769 0.9819 0.2040
C56_2 C 0.0597(2) 0.96914(12) 0.05270(17)
H37_2 H 0.0994 0.9485 0.0885
N1 N 0.60786(16) 0.53012(9) 0.64806(12)
N2_2 N 0.54946(19) 0.81405(10) 0.43811(19)
O1_2 O 0.12903(16) 0.91555(9) 0.40705(15)
O2_2 O 0.1764(2) 0.96004(12) 0.32899(15)
O3 O 0.90031(14) 0.93694(9) 0.37567(12)
O4_2 O 0.90393(19) 0.86861(10) 0.31204(15)
C29_2 C 0.9671(2) 0.09147(11) 0.45429(16)
H19_2 H 0.9258 0.0988 0.4820
C30_2 C 0.9679(2) 0.04438(11) 0.42749(17)
H20_2 H 0.9261 0.0204 0.4373
C35_2 C 0.9961(2) 0.23811(12) 0.55648(19)
H23_2 H 0.9678 0.2439 0.5929
C36_2 C 0.9887(2) 0.19093(12) 0.52487(17)
H24_2 H 0.9544 0.1657 0.5402
C44_2 C 0.7283(2) 0.41306(11) 0.6343(2)
C45_2 C 0.81465(19) 0.38828(11) 0.61844(16)
C46_2 C 0.9088(2) 0.39200(13) 0.66638(17)
H29_2 H 0.9186 0.4087 0.7100
C47_2 C 0.9886(2) 0.37112(13) 0.65014(17)
C48_2 C 0.97521(19) 0.34600(11) 0.58566(17)
C49_2 C 0.8806(2) 0.34193(12) 0.53818(17)
H31_2 H 0.8704 0.3245 0.4951
C50_2 C 0.8013(2) 0.36346(11) 0.55421(17)
H32_2 H 0.7385 0.3611 0.5213
C54_2 C 0.9148(2) 0.02090(13) 0.00862(16)
H36_2 H 0.8579 0.0348 0.0148
C57_2 C 0.7095(2) 0.45247(13) 0.85012(16)
H38_2 H 0.7668 0.4396 0.8432
C58_2 C 0.6933(2) 0.45758(13) 0.91397(17)
H39_2 H 0.7369 0.4495 0.9589
C59_2 C 0.5651(2) 0.48342(12) 0.82886(15)
H40_2 H 0.5029 0.4965 0.8053
C61_2 C 0.5493(2) 0.48815(11) 0.95123(15)
C62_2 C 0.4484(2) 0.48196(13) 0.93267(16)
H42_2 H 0.4136 0.4698 0.8873
N7_2 N 0.62822(17) 0.46928(9) 0.79625(12)
N8_2 N 0.60048(18) 0.47684(10) 0.90052(12)
O5_2 O 0.73622(15) 0.42456(9) 0.69920(13)
O6_2 O 0.65174(15) 0.42226(8) 0.58404(13)
C72_2 C 0.3992(2) 0.49382(13) 0.98131(16)
H51_2 H 0.3311 0.4897 0.9688
C52_2 C 0.8545(2) 0.97173(17) 0.1287(2)
H34_2 H 0.7961 0.9711 0.0907
C53_2 C 0.8646(2) 0.96489(16) 0.1984(2)
H35_2 H 0.8127 0.9592 0.2172
C55_2 C 0.9746(2) 0.99005(12) 0.06079(15)
N5_2 N 0.96156(17) 0.96744(10) 0.23835(13)
N6_2 N 0.94817(17) 0.97986(10) 0.12450(13)
C64_2 C 0.1455(2) 0.02827(17) 0.8713(2)
H44_2 H 0.2039 0.0289 0.9093
C65_2 C 0.1354(2) 0.03511(16) 0.8016(2)
H45_2 H 0.1873 0.0408 0.7828
C67_2 C 0.0254(2) 0.00995(12) 0.93921(15)
N9_2 N 0.03844(17) 0.03256(10) 0.76165(13)
N10_2 N 0.05183(17) 0.02014(10) 0.87550(13)
O18 O 0.09969(14) 0.06306(9) 0.62433(12)
C66_2 C 0.0852(2) 0.97910(13) 0.99138(16)
H46_2 H 0.1421 0.9652 0.9852
C103_2 C 0.0329(2) 0.90853(11) 0.54571(16)
H71_2 H 0.0742 0.9012 0.5180
C104_2 C 0.0321(2) 0.95562(11) 0.57251(17)
H72_2 H 0.0739 0.9796 0.5627
C109_2 C 0.0039(2) 0.76189(12) 0.44352(19)
H75_2 H 0.0322 0.7561 0.4071
C110_2 C 0.0113(2) 0.80907(12) 0.47513(17)
H76_2 H 0.0456 0.8343 0.4598
C118_2 C 0.2717(2) 0.58694(11) 0.3657(2)
C119_2 C 0.18535(19) 0.61172(11) 0.38156(16)
C120_2 C 0.0912(2) 0.60800(13) 0.33362(17)
H81_2 H 0.0814 0.5913 0.2900
C121_2 C 0.0114(2) 0.62888(13) 0.34986(17)
C122_2 C 0.02479(19) 0.65400(11) 0.41434(17)
C123_2 C 0.1194(2) 0.65807(12) 0.46182(17)
H83_2 H 0.1296 0.6755 0.5049
C124_2 C 0.1987(2) 0.63654(11) 0.44579(17)
H84_2 H 0.2615 0.6389 0.4787
O13_2 O 0.26378(15) 0.57544(9) 0.30080(13)
O14_2 O 0.34826(15) 0.57774(8) 0.41596(13)
Zn3 Zn 0.39333(2) 0.541820(12) 0.310695(16)
N18 N 0.39214(16) 0.46988(9) 0.35194(12)
N19 N 0.37178(17) 0.53072(9) 0.20375(12)
O20 O 0.5503(3) 0.54260(16) 0.35936(18)
O22 O 0.4908(2) 0.60946(17) 0.3170(2)
C60_2 C 0.6008(2) 0.50618(13) 0.01869(16)
H41_2 H 0.6689 0.5103 0.0312
C69_2 C 0.2905(2) 0.54753(13) 0.14988(16)
H48_2 H 0.2332 0.5604 0.1568
C70_2 C 0.3067(2) 0.54242(13) 0.08603(17)
H49_2 H 0.2631 0.5505 0.0411
C71_2 C 0.4349(2) 0.51658(12) 0.17114(15)
H50_2 H 0.4971 0.5035 0.1947
C73_2 C 0.4507(2) 0.51185(11) 0.04877(15)
C74_2 C 0.5516(2) 0.51804(13) 0.06733(16)
H52_2 H 0.5864 0.5302 0.1127
N12_2 N 0.39952(18) 0.52316(10) 0.09948(12)
C63_2 C 0.9910(2) 0.02273(12) 0.80834(16)
H43_2 H 0.9231 0.0181 0.7960
C68_2 C 0.9403(2) 0.03086(12) 0.94730(17)
H47_2 H 0.9006 0.0515 0.9115
C75_2 C 0.8087(2) 0.07520(13) 0.62443(19)
C76_2 C 0.7165(2) 0.10463(12) 0.60770(17)
C77_2 C 0.6908(2) 0.13976(13) 0.5530(2)
H53_2 H 0.7334 0.1454 0.5257
C78_2 C 0.6050(2) 0.16643(13) 0.5375(2)
H54_2 H 0.5899 0.1896 0.4998
C79_2 C 0.5400(2) 0.15942(12) 0.57737(19)
C80_2 C 0.5654(2) 0.12473(14) 0.6333(2)
H55_2 H 0.5235 0.1195 0.6612
C81_2 C 0.6519(2) 0.09811(14) 0.64772(19)
H56_2 H 0.6677 0.0750 0.6854
C82_2 C 0.1315(2) 0.10638(12) 0.64823(17)
C83_2 C 0.21580(19) 0.12700(11) 0.62551(16)
C84_2 C 0.2534(2) 0.17402(12) 0.6487(2)
H57_2 H 0.2266 0.1929 0.6784
C85_2 C 0.3318(2) 0.19348(12) 0.6276(2)
H58_2 H 0.3578 0.2250 0.6439
C86_2 C 0.3703(2) 0.16607(12) 0.5829(2)
C87_2 C 0.3335(3) 0.11917(13) 0.5610(2)
H59_2 H 0.3603 0.1002 0.5313
C88_2 C 0.2568(2) 0.09967(13) 0.5824(2)
H60_2 H 0.2328 0.0676 0.5673
C89_2 C 0.4166(2) 0.46552(12) 0.42369(17)
H61_2 H 0.4286 0.4949 0.4510
C90_2 C 0.4252(2) 0.42046(11) 0.45929(16)
H62_2 H 0.4436 0.4197 0.5094
C91_2 C 0.4063(2) 0.37596(11) 0.42016(16)
C92_2 C 0.3791(3) 0.38034(12) 0.34634(18)
H63_2 H 0.3643 0.3517 0.3176
C93_2 C 0.3738(2) 0.42725(13) 0.31490(16)
H64_2 H 0.3563 0.4290 0.2649
C94_2 C 0.4164(2) 0.32679(11) 0.45726(17)
C95_2 C 0.4947(2) 0.31804(12) 0.51912(18)
H65_2 H 0.5398 0.3437 0.5377
C96_2 C 0.5069(2) 0.27203(12) 0.5535(2)
H66_2 H 0.5607 0.2667 0.5943
C97_2 C 0.4393(2) 0.23372(12) 0.5275(2)
C98_2 C 0.3598(2) 0.24288(13) 0.4683(2)
H67_2 H 0.3130 0.2177 0.4513
C99_2 C 0.3480(3) 0.28835(13) 0.4334(2)
H68_2 H 0.2933 0.2936 0.3932
N14_2 N 0.45054(19) 0.18595(10) 0.56189(19)
O9_2 O 0.87097(16) 0.08445(9) 0.59295(15)
O10_2 O 0.8236(2) 0.03996(12) 0.67101(15)
O12_2 O 0.09607(19) 0.13139(10) 0.68796(15)
Zn4 Zn 0.98604(2) 0.041444(12) 0.654388(18)
C100_2 C 0.9169(3) 0.93407(13) 0.6260(2)
H69_2 H 0.8767 0.9425 0.6540
C101_2 C 0.9135(3) 0.88555(13) 0.6013(2)
H70_2 H 0.8716 0.8623 0.6126
C102_2 C 0.97242(19) 0.87093(11) 0.55926(15)
C105_2 C 0.9692(2) 0.81959(11) 0.52876(16)
C106_2 C 0.9195(2) 0.77996(13) 0.55035(19)
H73_2 H 0.8904 0.7855 0.5864
C107_2 C 0.9129(3) 0.73327(13) 0.5195(2)
H74_2 H 0.8797 0.7077 0.5352
C108_2 C 0.9546(2) 0.72357(12) 0.46581(18)
C111_2 C 0.5630(3) 0.5856(2) 0.3480(2)
C112_2 C 0.6649(2) 0.60735(18) 0.37072(19)
C113_2 C 0.6761(3) 0.65705(18) 0.3643(3)
H77_2 H 0.6202 0.6769 0.3456
C114_2 C 0.7665(2) 0.67967(15) 0.3840(3)
H78_2 H 0.7711 0.7143 0.3786
C115_2 C 0.8503(2) 0.65194(11) 0.41158(17)
C116_2 C 0.8418(2) 0.60131(14) 0.41958(19)
H79_2 H 0.8976 0.5814 0.4384
C117_2 C 0.7479(3) 0.57996(16) 0.3989(2)
H80_2 H 0.7421 0.5454 0.4048
H82_2 H 0.9484 0.6260 0.3173
N15_2 N 0.97417(17) 0.96963(9) 0.61248(13)
N16_2 N 0.94460(17) 0.67569(9) 0.43259(16)
loop_
_geom_bond_atom_site_label_1
_geom_bond_atom_site_label_2
_geom_bond_site_symmetry_1
_geom_bond_site_symmetry_2
H19 C29 1_555 1_555
C30 C29 1_555 1_555
H20 C30 1_555 1_555
C52 H34 1_555 1_555
C53 C52 1_555 1_555
H35 C53 1_555 1_555
C54 H36 1_555 1_555
C55 C54 1_555 1_555
C63 H43 1_555 1_555
C68 C54 1_555 1_555
H47 C68 1_555 1_555
C75 C76 1_555 1_555
C76 C77 1_555 1_555
C77 H53 1_555 1_555
C78 C77 1_555 1_555
C79 C78 1_555 1_555
C80 C79 1_555 1_555
H55 C80 1_555 1_555
C81 C76 1_555 1_555
H56 C81 1_555 1_555
C82 C83 1_555 1_555
C83 C84 1_555 1_555
C84 H57 1_555 1_555
C85 C84 1_555 1_555
H58 C85 1_555 1_555
C86 C85 1_555 1_555
C87 C86 1_555 1_555
H59 C87 1_555 1_555
C88 C83 1_555 1_555
H60 C88 1_555 1_555
H65 C95 1_555 1_555
C96 C95 1_555 1_555
H66 C96 1_555 1_555
C97 C96 1_555 1_555
C100 H69 1_555 1_555
C101 C100 1_555 1_555
H70 C101 1_555 1_555
C102 C101 1_555 1_555
C105 C102 1_555 1_555
C106 C105 1_555 1_555
H73 C106 1_555 1_555
C107 C106 1_555 1_555
H74 C107 1_555 1_555
N14 C79 1_555 1_555
N15 C100 1_555 1_555
O9 C75 1_555 1_555
O10 C75 1_555 1_555
O11 C82 1_555 1_555
O12 C82 1_555 1_555
C52 N6 1_555 1_555
C53 N5 1_555 1_555
C55 N6 1_555 1_555
C80 C81 1_555 1_555
C86 N14 1_555 1_555
C87 C88 1_555 1_555
C97 N14 1_555 1_555
N15 Zn11 1_555 1_555
O9 Zn11 1_555 1_555
O10 Zn11 1_555 1_555
C1 C2 1_555 1_555
C2 C3 1_555 1_555
C3 H1 1_555 1_555
C4 C3 1_555 1_555
C5 C4 1_555 1_555
C6 C5 1_555 1_555
H3 C6 1_555 1_555
C7 C2 1_555 1_555
H4 C7 1_555 1_555
C8 C9 1_555 1_555
C9 C10 1_555 1_555
C10 H5 1_555 1_555
C11 C10 1_555 1_555
H6 C11 1_555 1_555
C12 C11 1_555 1_555
C13 C12 1_555 1_555
H7 C13 1_555 1_555
C14 C9 1_555 1_555
H8 C14 1_555 1_555
H13 C21 1_555 1_555
C22 C21 1_555 1_555
H14 C22 1_555 1_555
C23 C22 1_555 1_555
C26 H17 1_555 1_555
C27 C26 1_555 1_555
H18 C27 1_555 1_555
C28 C27 1_555 1_555
C31 C28 1_555 1_555
C32 C31 1_555 1_555
H21 C32 1_555 1_555
C33 C32 1_555 1_555
H22 C33 1_555 1_555
C51 H33 1_555 1_555
H37 C56 1_555 1_555
N2 C5 1_555 1_555
N3 C26 1_555 1_555
O1 C1 1_555 1_555
O2 C1 1_555 1_555
O17 C8 1_555 1_555
O4 C8 1_555 1_555
Zn2 N3 1_555 1_555
C64 H44 1_555 1_555
C65 C64 1_555 1_555
H45 C65 1_555 1_555
C66 C56 1_555 1_555
H46 C66 1_555 1_555
C67 C66 1_555 1_555
H71 C103 1_555 1_555
C104 C103 1_555 1_555
H72 C104 1_555 1_555
C6 C7 1_555 1_555
C12 N2 1_555 1_555
C13 C14 1_555 1_555
C23 N2 1_555 1_555
O1 Zn2 1_555 1_555
O2 Zn2 1_555 1_555
C64 N10 1_555 1_555
C65 N9 1_555 1_555
C67 N10 1_555 1_555
C60 H41 1_555 1_555
C69 H48 1_555 1_555
C70 C69 1_555 1_555
H49 C70 1_555 1_555
C71 H50 1_555 1_555
C74 C60 1_555 1_555
H52 C74 1_555 1_555
N11 C69 1_555 1_555
N12 C70 1_555 1_555
Zn9 N11 1_555 1_555
C71 N11 1_555 1_555
C71 N12 1_555 1_555
C73 C74 1_555 1_555
C73 N12 1_555 1_555
C89 H61 1_555 1_555
C90 C89 1_555 1_555
C91 C90 1_555 1_555
C92 C91 1_555 1_555
H63 C92 1_555 1_555
C93 C92 1_555 1_555
H64 C93 1_555 1_555
C94 C91 1_555 1_555
H67 C98 1_555 1_555
C99 C94 1_555 1_555
H68 C99 1_555 1_555
C111 C112 1_555 1_555
C112 C113 1_555 1_555
C113 H77 1_555 1_555
C114 C113 1_555 1_555
H78 C114 1_555 1_555
C115 C114 1_555 1_555
C116 C115 1_555 1_555
H79 C116 1_555 1_555
C117 C112 1_555 1_555
H80 C117 1_555 1_555
N13 C89 1_555 1_555
N16 C108 1_555 1_555
O15 C111 1_555 1_555
O16 C111 1_555 1_555
Zn9 O15 1_555 1_555
C93 N13 1_555 1_555
C98 C99 1_555 1_555
C115 N16 1_555 1_555
C116 C117 1_555 1_555
O16 Zn9 1_555 1_555
H23 C35 1_555 1_555
H24 C36 1_555 1_555
C44 C45 1_555 1_555
C45 C46 1_555 1_555
C46 H29 1_555 1_555
C47 C46 1_555 1_555
C48 C47 1_555 1_555
C49 C48 1_555 1_555
C50 C45 1_555 1_555
H32 C50 1_555 1_555
C57 H38 1_555 1_555
C58 C57 1_555 1_555
H39 C58 1_555 1_555
C59 H40 1_555 1_555
C62 C61 1_555 1_555
H42 C62 1_555 1_555
N7 C57 1_555 1_555
N8 C58 1_555 1_555
O5 C44 1_555 1_555
O6 C44 1_555 1_555
Zn1 N7 1_555 1_555
C72 C62 1_555 1_555
H51 C72 1_555 1_555
O19 Zn1 1_555 1_555
O21 Zn1 1_555 1_555
C35 C36 1_555 1_555
C49 C50 1_555 1_555
C59 N7 1_555 1_555
C59 N8 1_555 1_555
C61 N8 1_555 1_555
O5 Zn1 1_555 1_555
O6 Zn1 1_555 1_555
H75 C109 1_555 1_555
H76 C110 1_555 1_555
C118 C119 1_555 1_555
C119 C120 1_555 1_555
C120 H81 1_555 1_555
C121 C120 1_555 1_555
C122 C121 1_555 1_555
C123 C122 1_555 1_555
C124 C119 1_555 1_555
H84 C124 1_555 1_555
O13 C118 1_555 1_555
O14 C118 1_555 1_555
Zn9 O13 1_555 1_555
C109 C110 1_555 1_555
C123 C124 1_555 1_555
O14 Zn9 1_555 1_555
C15 H9 1_555 1_555
C16 C15 1_555 1_555
C17 C16 1_555 1_555
C18 C17 1_555 1_555
H11 C18 1_555 1_555
C19 C18 1_555 1_555
H12 C19 1_555 1_555
C20 C17 1_555 1_555
H15 C24 1_555 1_555
C25 C20 1_555 1_555
H16 C25 1_555 1_555
C37 C38 1_555 1_555
C38 C39 1_555 1_555
C39 H25 1_555 1_555
C40 C39 1_555 1_555
H26 C40 1_555 1_555
C41 C40 1_555 1_555
C42 C41 1_555 1_555
H27 C42 1_555 1_555
C43 C38 1_555 1_555
H28 C43 1_555 1_555
N17 C15 1_555 1_555
N4 C34 1_555 1_555
O19 C37 1_555 1_555
O21 C37 1_555 1_555
C19 N17 1_555 1_555
C24 C25 1_555 1_555
C41 N4 1_555 1_555
C42 C43 1_555 1_555
C26_2 H17_2 1_555 1_555
C27_2 C26_2 1_555 1_555
H18_2 C27_2 1_555 1_555
C28_2 C27_2 1_555 1_555
C31_2 C28_2 1_555 1_555
C32_2 C31_2 1_555 1_555
H21_2 C32_2 1_555 1_555
C33_2 C32_2 1_555 1_555
H22_2 C33_2 1_555 1_555
C34_2 C33_2 1_555 1_555
C37_2 C38_2 1_555 1_555
C38_2 C39_2 1_555 1_555
C39_2 H25_2 1_555 1_555
C40_2 C39_2 1_555 1_555
H26_2 C40_2 1_555 1_555
C41_2 C40_2 1_555 1_555
C42_2 C41_2 1_555 1_555
H27_2 C42_2 1_555 1_555
C43_2 C38_2 1_555 1_555
H28_2 C43_2 1_555 1_555
N3_2 C26_2 1_555 1_555
N4_2 C34_2 1_555 1_555
O7 C37_2 1_555 1_555
O8 C37_2 1_555 1_555
Zn6 O7 1_555 1_555
C41_2 N4_2 1_555 1_555
C42_2 C43_2 1_555 1_555
O8 Zn6 1_555 1_555
C1_2 C2_2 1_555 1_555
C2_2 C3_2 1_555 1_555
C3_2 H1_2 1_555 1_555
C4_2 C3_2 1_555 1_555
H2_2 C4_2 1_555 1_555
C5_2 C4_2 1_555 1_555
C6_2 C5_2 1_555 1_555
H3_2 C6_2 1_555 1_555
C7_2 C2_2 1_555 1_555
H4_2 C7_2 1_555 1_555
C8_2 C9_2 1_555 1_555
C9_2 C10_2 1_555 1_555
C10_2 H5_2 1_555 1_555
C11_2 C10_2 1_555 1_555
H6_2 C11_2 1_555 1_555
C12_2 C11_2 1_555 1_555
C13_2 C12_2 1_555 1_555
H7_2 C13_2 1_555 1_555
C14_2 C9_2 1_555 1_555
H8_2 C14_2 1_555 1_555
C15_2 H9_2 1_555 1_555
C16_2 C15_2 1_555 1_555
H10_2 C16_2 1_555 1_555
C17_2 C16_2 1_555 1_555
C18_2 C17_2 1_555 1_555
H11_2 C18_2 1_555 1_555
C19_2 C18_2 1_555 1_555
H12_2 C19_2 1_555 1_555
C20_2 C17_2 1_555 1_555
C21_2 C20_2 1_555 1_555
H13_2 C21_2 1_555 1_555
C22_2 C21_2 1_555 1_555
H14_2 C22_2 1_555 1_555
C23_2 C22_2 1_555 1_555
C24_2 C23_2 1_555 1_555
H15_2 C24_2 1_555 1_555
C25_2 C20_2 1_555 1_555
H16_2 C25_2 1_555 1_555
C51_2 H33_2 1_555 1_555
H37_2 C56_2 1_555 1_555
N1 C15_2 1_555 1_555
N2_2 C5_2 1_555 1_555
O1_2 C1_2 1_555 1_555
O2_2 C1_2 1_555 1_555
O3 C8_2 1_555 1_555
O4_2 C8_2 1_555 1_555
Zn6 N1 1_555 1_555
C6_2 C7_2 1_555 1_555
C12_2 N2_2 1_555 1_555
C13_2 C14_2 1_555 1_555
C19_2 N1 1_555 1_555
C23_2 N2_2 1_555 1_555
C24_2 C25_2 1_555 1_555
O1_2 Zn10 1_555 1_555
O2_2 Zn10 1_555 1_555
H19_2 C29_2 1_555 1_555
C30_2 C29_2 1_555 1_555
H20_2 C30_2 1_555 1_555
H23_2 C35_2 1_555 1_555
H24_2 C36_2 1_555 1_555
C44_2 C45_2 1_555 1_555
C45_2 C46_2 1_555 1_555
C46_2 H29_2 1_555 1_555
C47_2 C46_2 1_555 1_555
C48_2 C47_2 1_555 1_555
C49_2 C48_2 1_555 1_555
H31_2 C49_2 1_555 1_555
C50_2 C45_2 1_555 1_555
H32_2 C50_2 1_555 1_555
C54_2 H36_2 1_555 1_555
C57_2 H38_2 1_555 1_555
C58_2 C57_2 1_555 1_555
H39_2 C58_2 1_555 1_555
C59_2 H40_2 1_555 1_555
C62_2 C61_2 1_555 1_555
H42_2 C62_2 1_555 1_555
N7_2 C57_2 1_555 1_555
N8_2 C58_2 1_555 1_555
O5_2 C44_2 1_555 1_555
O6_2 C44_2 1_555 1_555
Zn6 N7_2 1_555 1_555
C72_2 C62_2 1_555 1_555
H51_2 C72_2 1_555 1_555
C35_2 C36_2 1_555 1_555
C49_2 C50_2 1_555 1_555
C59_2 N7_2 1_555 1_555
C59_2 N8_2 1_555 1_555
C61_2 N8_2 1_555 1_555
O5_2 Zn6 1_555 1_555
O6_2 Zn6 1_555 1_555
C52_2 H34_2 1_555 1_555
C53_2 C52_2 1_555 1_555
H35_2 C53_2 1_555 1_555
C52_2 N6_2 1_555 1_555
C53_2 N5_2 1_555 1_555
C55_2 N6_2 1_555 1_555
C64_2 H44_2 1_555 1_555
C65_2 C64_2 1_555 1_555
H45_2 C65_2 1_555 1_555
C64_2 N10_2 1_555 1_555
C65_2 N9_2 1_555 1_555
C67_2 N10_2 1_555 1_555
H46_2 C66_2 1_555 1_555
H71_2 C103_2 1_555 1_555
C104_2 C103_2 1_555 1_555
H72_2 C104_2 1_555 1_555
H75_2 C109_2 1_555 1_555
H76_2 C110_2 1_555 1_555
C118_2 C119_2 1_555 1_555
C119_2 C120_2 1_555 1_555
C120_2 H81_2 1_555 1_555
C121_2 C120_2 1_555 1_555
C122_2 C121_2 1_555 1_555
C123_2 C122_2 1_555 1_555
H83_2 C123_2 1_555 1_555
C124_2 C119_2 1_555 1_555
H84_2 C124_2 1_555 1_555
O13_2 C118_2 1_555 1_555
O14_2 C118_2 1_555 1_555
Zn3 O13_2 1_555 1_555
N18 Zn3 1_555 1_555
N19 Zn3 1_555 1_555
O20 Zn3 1_555 1_555
O22 Zn3 1_555 1_555
C109_2 C110_2 1_555 1_555
C123_2 C124_2 1_555 1_555
O14_2 Zn3 1_555 1_555
C60_2 H41_2 1_555 1_555
C69_2 H48_2 1_555 1_555
C70_2 C69_2 1_555 1_555
H49_2 C70_2 1_555 1_555
C71_2 H50_2 1_555 1_555
C74_2 C60_2 1_555 1_555
H52_2 C74_2 1_555 1_555
N19 C69_2 1_555 1_555
N12_2 C70_2 1_555 1_555
C71_2 N19 1_555 1_555
C71_2 N12_2 1_555 1_555
C73_2 C74_2 1_555 1_555
C73_2 N12_2 1_555 1_555
C63_2 H43_2 1_555 1_555
H47_2 C68_2 1_555 1_555
C75_2 C76_2 1_555 1_555
C76_2 C77_2 1_555 1_555
C77_2 H53_2 1_555 1_555
C78_2 C77_2 1_555 1_555
H54_2 C78_2 1_555 1_555
C79_2 C78_2 1_555 1_555
C80_2 C79_2 1_555 1_555
H55_2 C80_2 1_555 1_555
C81_2 C76_2 1_555 1_555
H56_2 C81_2 1_555 1_555
C82_2 C83_2 1_555 1_555
C83_2 C84_2 1_555 1_555
C84_2 H57_2 1_555 1_555
C85_2 C84_2 1_555 1_555
H58_2 C85_2 1_555 1_555
C86_2 C85_2 1_555 1_555
C87_2 C86_2 1_555 1_555
H59_2 C87_2 1_555 1_555
C88_2 C83_2 1_555 1_555
H60_2 C88_2 1_555 1_555
C89_2 H61_2 1_555 1_555
C90_2 C89_2 1_555 1_555
H62_2 C90_2 1_555 1_555
C91_2 C90_2 1_555 1_555
C92_2 C91_2 1_555 1_555
H63_2 C92_2 1_555 1_555
C93_2 C92_2 1_555 1_555
H64_2 C93_2 1_555 1_555
C94_2 C91_2 1_555 1_555
C95_2 C94_2 1_555 1_555
H65_2 C95_2 1_555 1_555
C96_2 C95_2 1_555 1_555
H66_2 C96_2 1_555 1_555
C97_2 C96_2 1_555 1_555
C98_2 C97_2 1_555 1_555
H67_2 C98_2 1_555 1_555
C99_2 C94_2 1_555 1_555
H68_2 C99_2 1_555 1_555
N18 C89_2 1_555 1_555
N14_2 C79_2 1_555 1_555
O9_2 C75_2 1_555 1_555
O10_2 C75_2 1_555 1_555
O18 C82_2 1_555 1_555
O12_2 C82_2 1_555 1_555
C80_2 C81_2 1_555 1_555
C86_2 N14_2 1_555 1_555
C87_2 C88_2 1_555 1_555
C93_2 N18 1_555 1_555
C97_2 N14_2 1_555 1_555
C98_2 C99_2 1_555 1_555
O9_2 Zn4 1_555 1_555
O10_2 Zn4 1_555 1_555
C100_2 H69_2 1_555 1_555
C101_2 C100_2 1_555 1_555
H70_2 C101_2 1_555 1_555
C102_2 C101_2 1_555 1_555
C105_2 C102_2 1_555 1_555
C106_2 C105_2 1_555 1_555
H73_2 C106_2 1_555 1_555
C107_2 C106_2 1_555 1_555
H74_2 C107_2 1_555 1_555
C108_2 C107_2 1_555 1_555
C111_2 C112_2 1_555 1_555
C112_2 C113_2 1_555 1_555
C113_2 H77_2 1_555 1_555
C114_2 C113_2 1_555 1_555
H78_2 C114_2 1_555 1_555
C115_2 C114_2 1_555 1_555
C116_2 C115_2 1_555 1_555
H79_2 C116_2 1_555 1_555
C117_2 C112_2 1_555 1_555
H80_2 C117_2 1_555 1_555
N15_2 C100_2 1_555 1_555
N16_2 C108_2 1_555 1_555
O20 C111_2 1_555 1_555
O22 C111_2 1_555 1_555
C115_2 N16_2 1_555 1_555
C116_2 C117_2 1_555 1_555

#END
