
###############################################################################
#
# This file contains modified crystal structure data generated from the
# MOF subset of the Cambridge Structural Database (CSD) v543 
# hosted by the Cambridge Crystallographic Data Centre (CCDC).
#
# This work is licensed under the Creative Commons
# Attribution-NonCommercial-ShareAlike 4.0 International License.
# To view a copy of this license, visit
# http://creativecommons.org/licenses/by-nc-sa/4.0/
# or send a letter to
# Creative Commons, PO Box 1866, Mountain View, CA 94042, USA.
#
# CIF created using the CSD Python API on 29 September 2022
# The structure has been converted into the P1 space group
# The structure has a 3D framework
# The original CSD entry IQOJAB is in the monoclinic crystal system
# The framework has been calculated to contain at least 10.0% void space
# The void calculation uses a probe of radius 1.32A, grid spacing 0.4
#
###############################################################################

data_IQOJAB
_chemical_formula_moiety         '(C200 H128 N16 O32 Zn8)n'
_symmetry_cell_setting           triclinic
_symmetry_space_group_name_H-M   'P 1'
_symmetry_Int_Tables_number      1
_space_group_name_Hall           'P 1'
loop_
_symmetry_equiv_pos_site_id
_symmetry_equiv_pos_as_xyz
1 x,y,z
_cell_length_a                   16.3583(10)
_cell_length_b                   18.1336(11)
_cell_length_c                   22.5915(11)
_cell_angle_alpha                90
_cell_angle_beta                 114.105(3)
_cell_angle_gamma                90
_cell_volume                     6117.05
loop_
_atom_site_label
_atom_site_type_symbol
_atom_site_fract_x
_atom_site_fract_y
_atom_site_fract_z
H28 H 0.0024 0.6357 0.6990
Zn6 Zn 0.11957(2) 0.542628(18) 0.659472(16)
Zn5 Zn 0.27845(2) 0.052033(18) 0.220210(16)
Zn1 Zn 0.27845(2) 0.447967(18) 0.720210(16)
C1 C 0.1262(2) 0.38705(16) 0.61382(14)
C2 C 0.0802(2) 0.32714(17) 0.56632(14)
C5 C 0.0021(2) 0.22213(17) 0.47025(14)
C6 C 0.0820(2) 0.20615(18) 0.52284(15)
H3 H 0.1090 0.1603 0.5261
C7 C 0.1208(2) 0.25903(17) 0.57020(14)
H4 H 0.1748 0.2488 0.6050
C8 C 0.1572(2) 0.06250(18) 0.27721(15)
C9 C 0.1111(2) 0.08846(18) 0.31818(14)
C10 C 0.1424(2) 0.14872(18) 0.35916(15)
H5 H 0.1960 0.1710 0.3641
C11 C 0.0949(2) 0.17587(18) 0.39256(15)
H6 H 0.1164 0.2167 0.4194
C12 C 0.0147(2) 0.14279(18) 0.38662(14)
C14 C 0.0319(2) 0.05427(18) 0.31306(16)
H8 H 0.0104 0.0137 0.2860
C26 C 0.2557(2) 0.55377(16) 0.60991(15)
C27 C 0.3030(2) 0.59180(18) 0.57422(14)
C28 C 0.2840(2) 0.66488(18) 0.55498(15)
H17 H 0.2400 0.6898 0.5632
C29 C 0.3293(2) 0.70103(19) 0.52384(16)
H18 H 0.3158 0.7500 0.5114
C30 C 0.3947(2) 0.6650(2) 0.51103(16)
C31 C 0.4147(2) 0.5919(2) 0.53065(19)
H19 H 0.4587 0.5671 0.5224
C32 C 0.3699(3) 0.5562(2) 0.56208(19)
H20 H 0.3845 0.5076 0.5754
C33 C 0.2620(2) 0.89567(18) 0.26728(16)
C34 C 0.3099(2) 0.84356(18) 0.32191(15)
C35 C 0.3979(2) 0.8569(2) 0.36469(19)
H21 H 0.4276 0.8979 0.3585
C36 C 0.4421(2) 0.8100(2) 0.41646(19)
H22 H 0.5011 0.8197 0.4446
C37 C 0.3984(2) 0.74864(19) 0.42633(16)
C38 C 0.3108(2) 0.73526(19) 0.38380(16)
H23 H 0.2810 0.6943 0.3899
C39 C 0.2668(2) 0.78247(18) 0.33201(15)
H24 H 0.2078 0.7728 0.3039
C40 C 0.9305(2) 0.55647(17) 0.56433(16)
H25 H 0.9491 0.5252 0.5397
C41 C 0.8424(2) 0.57890(18) 0.53927(16)
H26 H 0.8032 0.5631 0.4983
C42 C 0.8121(2) 0.62500(18) 0.57509(15)
C43 C 0.8748(2) 0.64570(19) 0.63658(16)
H27 H 0.8577 0.6759 0.6628
C44 C 0.9617(2) 0.62133(19) 0.65807(16)
C45 C 0.7180(2) 0.65012(18) 0.55000(16)
C46 C 0.6653(2) 0.65363(19) 0.48352(16)
H29 H 0.6909 0.6435 0.4545
C47 C 0.5753(2) 0.67190(19) 0.45999(16)
H30 H 0.5411 0.6736 0.4155
C48 C 0.5364(2) 0.6877(2) 0.50252(17)
C49 C 0.5898(2) 0.6899(2) 0.56901(18)
H31 H 0.5650 0.7043 0.5976
C50 C 0.6792(2) 0.6708(2) 0.59252(18)
H32 H 0.7140 0.6716 0.6369
N3 N 0.44310(18) 0.70208(18) 0.48015(15)
N4 N 0.99052(16) 0.57779(14) 0.62268(12)
O1 O 0.09126(15) 0.45020(11) 0.60125(11)
O2 O 0.19695(14) 0.37024(11) 0.66212(10)
O3 O 0.23702(15) 0.08259(13) 0.29105(11)
O4 O 0.11141(15) 0.02288(14) 0.22944(11)
O5 O 0.28870(14) 0.49389(12) 0.63851(10)
O6 O 0.18708(14) 0.58475(12) 0.61018(10)
O7 O 0.30623(16) 0.94952(12) 0.26087(12)
O8 O 0.18144(15) 0.88213(13) 0.23143(11)
Zn8 Zn 0.11957(2) 0.957372(18) 0.159472(16)
N5 N 0.40294(17) 0.40243(15) 0.75444(13)
O9 O 0.23702(15) 0.41741(13) 0.79105(11)
O10 O 0.11141(15) 0.47712(14) 0.72944(11)
O11 O 0.30623(16) 0.55048(12) 0.76087(12)
O12 O 0.18144(15) 0.61787(13) 0.73143(11)
C3 C 0.9982(2) 0.34104(17) 0.51499(15)
H1 H 0.9691 0.3856 0.5132
C4 C 0.9594(2) 0.28919(17) 0.46669(15)
H2 H 0.9052 0.2992 0.4321
C13 C 0.9853(2) 0.08001(19) 0.34768(16)
H7 H 0.9340 0.0555 0.3451
C15 C 0.4425(2) 0.1253(2) 0.31452(17)
H9 H 0.4084 0.1316 0.3385
C16 C 0.5317(2) 0.1449(2) 0.34218(18)
H10 H 0.5564 0.1639 0.3841
C17 C 0.5848(2) 0.13653(19) 0.30790(16)
C18 C 0.5415(2) 0.1126(2) 0.24397(18)
H11 H 0.5729 0.1093 0.2178
C19 C 0.4519(2) 0.0938(2) 0.21943(18)
H12 H 0.4244 0.0777 0.1767
C20 C 0.6825(2) 0.14968(19) 0.33683(16)
C21 C 0.7272(2) 0.1701(2) 0.29868(17)
H13 H 0.6947 0.1788 0.2546
C22 C 0.8191(2) 0.1779(2) 0.32515(16)
H14 H 0.8479 0.1918 0.2989
C23 C 0.8689(2) 0.16509(17) 0.39053(15)
C24 C 0.8249(2) 0.1474(2) 0.42933(16)
H15 H 0.8574 0.1406 0.4736
C25 C 0.7326(2) 0.1397(2) 0.40277(16)
H16 H 0.7039 0.1276 0.4295
N1 N 0.96376(17) 0.17104(15) 0.41848(12)
N2 N 0.40294(17) 0.09757(15) 0.25444(13)
H28_2 H 0.0024 0.8643 0.1990
C1_2 C 0.1262(2) 0.11295(16) 0.11382(14)
C2_2 C 0.0802(2) 0.17286(17) 0.06632(14)
C6_2 C 0.0820(2) 0.29385(18) 0.02284(15)
H3_2 H 0.1090 0.3397 0.0261
C7_2 C 0.1208(2) 0.24097(17) 0.07020(14)
H4_2 H 0.1748 0.2512 0.1050
O1_2 O 0.09126(15) 0.04980(11) 0.10125(11)
O2_2 O 0.19695(14) 0.12976(11) 0.16212(10)
O5_2 O 0.28870(14) 0.00611(12) 0.13851(10)
C5_2 C 0.0021(2) 0.27787(17) 0.97025(14)
C8_2 C 0.1572(2) 0.43750(18) 0.77721(15)
C9_2 C 0.1111(2) 0.41154(18) 0.81818(14)
C10_2 C 0.1424(2) 0.35128(18) 0.85916(15)
H5_2 H 0.1960 0.3290 0.8641
C11_2 C 0.0949(2) 0.32413(18) 0.89256(15)
H6_2 H 0.1164 0.2833 0.9194
C12_2 C 0.0147(2) 0.35721(18) 0.88662(14)
C14_2 C 0.0319(2) 0.44573(18) 0.81306(16)
H8_2 H 0.0104 0.4863 0.7860
C26_2 C 0.2557(2) 0.94623(16) 0.10991(15)
C27_2 C 0.3030(2) 0.90820(18) 0.07422(14)
C28_2 C 0.2840(2) 0.83512(18) 0.05498(15)
H17_2 H 0.2400 0.8102 0.0632
C29_2 C 0.3293(2) 0.79897(19) 0.02384(16)
H18_2 H 0.3158 0.7500 0.0114
C30_2 C 0.3947(2) 0.8350(2) 0.01103(16)
C31_2 C 0.4147(2) 0.9081(2) 0.03065(19)
H19_2 H 0.4587 0.9329 0.0224
C32_2 C 0.3699(3) 0.9438(2) 0.06208(19)
H20_2 H 0.3845 0.9924 0.0754
C40_2 C 0.9305(2) 0.94353(17) 0.06433(16)
H25_2 H 0.9491 0.9748 0.0397
C41_2 C 0.8424(2) 0.92110(18) 0.03927(16)
C42_2 C 0.8121(2) 0.87500(18) 0.07509(15)
C43_2 C 0.8748(2) 0.85430(19) 0.13658(16)
H27_2 H 0.8577 0.8241 0.1628
C44_2 C 0.9617(2) 0.87867(19) 0.15807(16)
C45_2 C 0.7180(2) 0.84988(18) 0.05000(16)
C48_2 C 0.5364(2) 0.8123(2) 0.00252(17)
C49_2 C 0.5898(2) 0.8101(2) 0.06901(18)
H31_2 H 0.5650 0.7957 0.0976
C50_2 C 0.6792(2) 0.8292(2) 0.09252(18)
H32_2 H 0.7140 0.8284 0.1369
N4_2 N 0.99052(16) 0.92221(14) 0.12268(12)
O6_2 O 0.18708(14) 0.91525(12) 0.11018(10)
C33_2 C 0.2620(2) 0.60433(18) 0.76728(16)
C34_2 C 0.3099(2) 0.65644(18) 0.82191(15)
C35_2 C 0.3979(2) 0.6431(2) 0.86469(19)
H21_2 H 0.4276 0.6021 0.8585
C36_2 C 0.4421(2) 0.6900(2) 0.91646(19)
H22_2 H 0.5011 0.6803 0.9446
C37_2 C 0.3984(2) 0.75136(19) 0.92633(16)
C38_2 C 0.3108(2) 0.76474(19) 0.88380(16)
H23_2 H 0.2810 0.8057 0.8899
C39_2 C 0.2668(2) 0.71753(18) 0.83201(15)
H24_2 H 0.2078 0.7272 0.8039
H26_2 H 0.8032 0.9369 0.9983
C46_2 C 0.6653(2) 0.84637(19) 0.98352(16)
H29_2 H 0.6909 0.8565 0.9545
C47_2 C 0.5753(2) 0.82810(19) 0.95999(16)
H30_2 H 0.5411 0.8264 0.9155
N3_2 N 0.44310(18) 0.79792(18) 0.98015(15)
C4_2 C 0.9594(2) 0.21081(17) 0.96669(15)
H2_2 H 0.9052 0.2008 0.9321
C13_2 C 0.9853(2) 0.41999(19) 0.84768(16)
H7_2 H 0.9340 0.4445 0.8451
C15_2 C 0.4425(2) 0.3747(2) 0.81452(17)
H9_2 H 0.4084 0.3684 0.8385
C16_2 C 0.5317(2) 0.3551(2) 0.84218(18)
H10_2 H 0.5564 0.3361 0.8841
C17_2 C 0.5848(2) 0.36347(19) 0.80790(16)
C18_2 C 0.5415(2) 0.3874(2) 0.74397(18)
H11_2 H 0.5729 0.3907 0.7178
C19_2 C 0.4519(2) 0.4062(2) 0.71943(18)
H12_2 H 0.4244 0.4223 0.6767
C20_2 C 0.6825(2) 0.35032(19) 0.83683(16)
C21_2 C 0.7272(2) 0.3299(2) 0.79868(17)
H13_2 H 0.6947 0.3212 0.7546
C22_2 C 0.8191(2) 0.3221(2) 0.82515(16)
H14_2 H 0.8479 0.3082 0.7989
C23_2 C 0.8689(2) 0.33491(17) 0.89053(15)
C24_2 C 0.8249(2) 0.3526(2) 0.92933(16)
H15_2 H 0.8574 0.3594 0.9736
C25_2 C 0.7326(2) 0.3603(2) 0.90277(16)
H16_2 H 0.7039 0.3724 0.9295
N1_2 N 0.96376(17) 0.32896(15) 0.91848(12)
N6 N 0.00948(16) 0.07779(14) 0.87732(12)
C4_3 C 0.0406(2) 0.78919(17) 0.03331(15)
H2_3 H 0.0948 0.7992 0.0679
C13_3 C 0.0147(2) 0.58001(19) 0.15232(16)
H7_3 H 0.0660 0.5555 0.1549
C15_3 C 0.5575(2) 0.6253(2) 0.18548(17)
H9_3 H 0.5916 0.6316 0.1615
C16_3 C 0.4683(2) 0.6449(2) 0.15782(18)
H10_3 H 0.4436 0.6639 0.1159
C17_3 C 0.4152(2) 0.63653(19) 0.19210(16)
C18_3 C 0.4585(2) 0.6126(2) 0.25603(18)
H11_3 H 0.4271 0.6093 0.2822
C19_3 C 0.5481(2) 0.5938(2) 0.28057(18)
H12_3 H 0.5756 0.5777 0.3233
C20_3 C 0.3175(2) 0.64968(19) 0.16317(16)
C21_3 C 0.2728(2) 0.6701(2) 0.20132(17)
H13_3 H 0.3053 0.6788 0.2454
C22_3 C 0.1809(2) 0.6779(2) 0.17485(16)
H14_3 H 0.1521 0.6918 0.2011
C23_3 C 0.1311(2) 0.66509(17) 0.10947(15)
C24_3 C 0.1751(2) 0.6474(2) 0.07067(16)
H15_3 H 0.1426 0.6406 0.0264
C25_3 C 0.2674(2) 0.6397(2) 0.09723(16)
H16_3 H 0.2961 0.6276 0.0705
N1_3 N 0.03624(17) 0.67104(15) 0.08152(12)
N2_2 N 0.59706(17) 0.59757(15) 0.24556(13)
Zn3 Zn 0.72155(2) 0.552033(18) 0.279790(16)
C33_3 C 0.7380(2) 0.39567(18) 0.23272(16)
C34_3 C 0.6901(2) 0.34356(18) 0.17809(15)
C35_3 C 0.6021(2) 0.3569(2) 0.13531(19)
H21_3 H 0.5724 0.3979 0.1415
C36_3 C 0.5579(2) 0.3100(2) 0.08354(19)
H22_3 H 0.4989 0.3197 0.0554
C37_3 C 0.6016(2) 0.24864(19) 0.07367(16)
C38_3 C 0.6892(2) 0.23526(19) 0.11620(16)
H23_3 H 0.7190 0.1943 0.1101
C39_3 C 0.7332(2) 0.28247(18) 0.16799(15)
H24_3 H 0.7922 0.2728 0.1961
H26_3 H 0.1968 0.0631 0.0017
C46_3 C 0.3347(2) 0.15363(19) 0.01648(16)
H29_3 H 0.3091 0.1435 0.0455
C47_3 C 0.4247(2) 0.17190(19) 0.04001(16)
H30_3 H 0.4589 0.1736 0.0845
N3_3 N 0.55690(18) 0.20208(18) 0.01985(15)
O7_2 O 0.69377(16) 0.44952(12) 0.23913(12)
O8_2 O 0.81856(15) 0.38213(13) 0.26857(11)
Zn8_2 Zn 0.88043(2) 0.457372(18) 0.340528(16)
Zn2 Zn 0.88043(2) 0.042628(18) 0.840528(16)
C26_3 C 0.7443(2) 0.05377(16) 0.89009(15)
C27_3 C 0.6970(2) 0.09180(18) 0.92578(14)
C28_3 C 0.7160(2) 0.16488(18) 0.94502(15)
H17_3 H 0.7600 0.1898 0.9368
C29_3 C 0.6707(2) 0.20103(19) 0.97616(16)
H18_3 H 0.6842 0.2500 0.9886
C30_3 C 0.6053(2) 0.1650(2) 0.98897(16)
C31_3 C 0.5853(2) 0.0919(2) 0.96935(19)
H19_3 H 0.5413 0.0671 0.9776
C32_3 C 0.6301(3) 0.0562(2) 0.93792(19)
H20_3 H 0.6155 0.0076 0.9246
C40_3 C 0.0695(2) 0.05647(17) 0.93567(16)
H25_3 H 0.0509 0.0252 0.9603
C41_3 C 0.1576(2) 0.07890(18) 0.96073(16)
C42_3 C 0.1879(2) 0.12500(18) 0.92491(15)
C43_3 C 0.1252(2) 0.14570(19) 0.86342(16)
H27_3 H 0.1423 0.1759 0.8372
C44_3 C 0.0383(2) 0.12133(19) 0.84193(16)
C45_3 C 0.2820(2) 0.15012(18) 0.95000(16)
C48_3 C 0.4636(2) 0.1877(2) 0.99748(17)
C49_3 C 0.4102(2) 0.1899(2) 0.93099(18)
H31_3 H 0.4350 0.2043 0.9024
C50_3 C 0.3208(2) 0.1708(2) 0.90748(18)
H32_3 H 0.2860 0.1716 0.8631
O6_3 O 0.81292(14) 0.08475(12) 0.88982(10)
O11_2 O 0.69377(16) 0.05048(12) 0.73913(12)
O12_2 O 0.81856(15) 0.11787(13) 0.76857(11)
C5_3 C 0.9979(2) 0.72213(17) 0.02975(14)
C8_3 C 0.8428(2) 0.56250(18) 0.22279(15)
C9_3 C 0.8889(2) 0.58846(18) 0.18182(14)
C10_3 C 0.8576(2) 0.64872(18) 0.14084(15)
H5_3 H 0.8040 0.6710 0.1359
C11_3 C 0.9051(2) 0.67587(18) 0.10744(15)
H6_3 H 0.8836 0.7167 0.0806
C12_3 C 0.9853(2) 0.64279(18) 0.11338(14)
C14_3 C 0.9681(2) 0.55427(18) 0.18694(16)
H8_3 H 0.9896 0.5137 0.2140
O3_2 O 0.76298(15) 0.58259(13) 0.20895(11)
O4_2 O 0.88859(15) 0.52288(14) 0.27056(11)
Zn1_2 Zn 0.72155(2) 0.947967(18) 0.779790(16)
C1_3 C 0.8738(2) 0.88705(16) 0.88618(14)
C2_3 C 0.9198(2) 0.82714(17) 0.93368(14)
C6_3 C 0.9180(2) 0.70615(18) 0.97716(15)
H3_3 H 0.8910 0.6603 0.9739
C7_3 C 0.8792(2) 0.75903(17) 0.92980(14)
H4_3 H 0.8252 0.7488 0.8950
O1_3 O 0.90874(15) 0.95020(11) 0.89875(11)
O2_3 O 0.80305(14) 0.87024(11) 0.83788(10)
O5_3 O 0.71130(14) 0.99389(12) 0.86149(10)
N5_2 N 0.59706(17) 0.90243(15) 0.74556(13)
O9_2 O 0.76298(15) 0.91741(13) 0.70895(11)
O10_2 O 0.88859(15) 0.97712(14) 0.77056(11)
H28_3 H 0.9976 0.1357 0.8010
C3_2 C 0.0018(2) 0.65896(17) 0.48501(15)
H1_2 H 0.0309 0.6144 0.4868
C4_4 C 0.0406(2) 0.71081(17) 0.53331(15)
H2_4 H 0.0948 0.7008 0.5679
C13_4 C 0.0147(2) 0.91999(19) 0.65232(16)
H7_4 H 0.0660 0.9445 0.6549
C15_4 C 0.5575(2) 0.8747(2) 0.68548(17)
H9_4 H 0.5916 0.8684 0.6615
C16_4 C 0.4683(2) 0.8551(2) 0.65782(18)
H10_4 H 0.4436 0.8361 0.6159
C17_4 C 0.4152(2) 0.86347(19) 0.69210(16)
C18_4 C 0.4585(2) 0.8874(2) 0.75603(18)
H11_4 H 0.4271 0.8907 0.7822
C19_4 C 0.5481(2) 0.9062(2) 0.78057(18)
H12_4 H 0.5756 0.9223 0.8233
C20_4 C 0.3175(2) 0.85032(19) 0.66317(16)
C21_4 C 0.2728(2) 0.8299(2) 0.70132(17)
H13_4 H 0.3053 0.8212 0.7454
C22_4 C 0.1809(2) 0.8221(2) 0.67485(16)
H14_4 H 0.1521 0.8082 0.7011
C23_4 C 0.1311(2) 0.83491(17) 0.60947(15)
C24_4 C 0.1751(2) 0.8526(2) 0.57067(16)
H15_4 H 0.1426 0.8594 0.5264
C25_4 C 0.2674(2) 0.8603(2) 0.59723(16)
H16_4 H 0.2961 0.8724 0.5705
N1_4 N 0.03624(17) 0.82896(15) 0.58152(12)
N6_2 N 0.00948(16) 0.42221(14) 0.37732(12)
C1_4 C 0.8738(2) 0.61295(16) 0.38618(14)
C2_4 C 0.9198(2) 0.67286(17) 0.43368(14)
C5_4 C 0.9979(2) 0.77787(17) 0.52975(14)
C6_4 C 0.9180(2) 0.79385(18) 0.47716(15)
H3_4 H 0.8910 0.8397 0.4739
C7_4 C 0.8792(2) 0.74097(17) 0.42980(14)
H4_4 H 0.8252 0.7512 0.3950
C8_4 C 0.8428(2) 0.93750(18) 0.72279(15)
C9_4 C 0.8889(2) 0.91154(18) 0.68182(14)
C10_4 C 0.8576(2) 0.85128(18) 0.64084(15)
H5_4 H 0.8040 0.8290 0.6359
C11_4 C 0.9051(2) 0.82413(18) 0.60744(15)
H6_4 H 0.8836 0.7833 0.5806
C12_4 C 0.9853(2) 0.85721(18) 0.61338(14)
C14_4 C 0.9681(2) 0.94573(18) 0.68694(16)
H8_4 H 0.9896 0.9863 0.7140
C26_4 C 0.7443(2) 0.44623(16) 0.39009(15)
C27_4 C 0.6970(2) 0.40820(18) 0.42578(14)
C28_4 C 0.7160(2) 0.33512(18) 0.44502(15)
H17_4 H 0.7600 0.3102 0.4368
C29_4 C 0.6707(2) 0.29897(19) 0.47616(16)
H18_4 H 0.6842 0.2500 0.4886
C30_4 C 0.6053(2) 0.3350(2) 0.48897(16)
C31_4 C 0.5853(2) 0.4081(2) 0.46935(19)
H19_4 H 0.5413 0.4329 0.4776
C32_4 C 0.6301(3) 0.4438(2) 0.43792(19)
H20_4 H 0.6155 0.4924 0.4246
C33_4 C 0.7380(2) 0.10433(18) 0.73272(16)
C34_4 C 0.6901(2) 0.15644(18) 0.67809(15)
C35_4 C 0.6021(2) 0.1431(2) 0.63531(19)
H21_4 H 0.5724 0.1021 0.6415
C36_4 C 0.5579(2) 0.1900(2) 0.58354(19)
H22_4 H 0.4989 0.1803 0.5554
C37_4 C 0.6016(2) 0.25136(19) 0.57367(16)
C38_4 C 0.6892(2) 0.26474(19) 0.61620(16)
H23_4 H 0.7190 0.3057 0.6101
C39_4 C 0.7332(2) 0.21753(18) 0.66799(15)
H24_4 H 0.7922 0.2272 0.6961
C40_4 C 0.0695(2) 0.44353(17) 0.43567(16)
H25_4 H 0.0509 0.4748 0.4603
C41_4 C 0.1576(2) 0.42110(18) 0.46073(16)
H26_4 H 0.1968 0.4369 0.5017
C42_4 C 0.1879(2) 0.37500(18) 0.42491(15)
C43_4 C 0.1252(2) 0.35430(19) 0.36342(16)
H27_4 H 0.1423 0.3241 0.3372
C44_4 C 0.0383(2) 0.37867(19) 0.34193(16)
C45_4 C 0.2820(2) 0.34988(18) 0.45000(16)
C46_4 C 0.3347(2) 0.34637(19) 0.51648(16)
H29_4 H 0.3091 0.3565 0.5455
C47_4 C 0.4247(2) 0.32810(19) 0.54001(16)
H30_4 H 0.4589 0.3264 0.5845
C48_4 C 0.4636(2) 0.3123(2) 0.49748(17)
C49_4 C 0.4102(2) 0.3101(2) 0.43099(18)
H31_4 H 0.4350 0.2957 0.4024
C50_4 C 0.3208(2) 0.3292(2) 0.40748(18)
H32_4 H 0.2860 0.3284 0.3631
N3_4 N 0.55690(18) 0.29792(18) 0.51985(15)
O1_4 O 0.90874(15) 0.54980(11) 0.39875(11)
O2_4 O 0.80305(14) 0.62976(11) 0.33788(10)
O5_4 O 0.71130(14) 0.50611(12) 0.36149(10)
O6_4 O 0.81292(14) 0.41525(12) 0.38982(10)
H28_4 H 0.9976 0.3643 0.3010
C3_3 C 0.0018(2) 0.84104(17) 0.98501(15)
H1_3 H 0.0309 0.8856 0.9868
C3_4 C 0.9982(2) 0.15896(17) 0.01499(15)
H1_4 H 0.9691 0.1144 0.0132
loop_
_geom_bond_atom_site_label_1
_geom_bond_atom_site_label_2
_geom_bond_site_symmetry_1
_geom_bond_site_symmetry_2
Zn1 O2 1_555 1_555
Zn6 O1 1_555 1_555
C1 C2 1_555 1_555
C6 C5 1_555 1_555
H3 C6 1_555 1_555
C7 C2 1_555 1_555
H4 C7 1_555 1_555
C8 C9 1_555 1_555
C9 C10 1_555 1_555
C10 H5 1_555 1_555
C11 C10 1_555 1_555
H6 C11 1_555 1_555
C12 C11 1_555 1_555
C14 C9 1_555 1_555
H8 C14 1_555 1_555
C26 C27 1_555 1_555
C27 C28 1_555 1_555
C28 H17 1_555 1_555
C29 C28 1_555 1_555
H18 C29 1_555 1_555
C30 C29 1_555 1_555
C31 C30 1_555 1_555
H19 C31 1_555 1_555
C32 C27 1_555 1_555
H20 C32 1_555 1_555
C33 C34 1_555 1_555
C34 C35 1_555 1_555
C35 H21 1_555 1_555
C36 C35 1_555 1_555
H22 C36 1_555 1_555
C37 C36 1_555 1_555
C38 C37 1_555 1_555
H23 C38 1_555 1_555
C39 C34 1_555 1_555
H24 C39 1_555 1_555
C40 H25 1_555 1_555
C41 C40 1_555 1_555
H26 C41 1_555 1_555
C42 C41 1_555 1_555
C43 C42 1_555 1_555
H27 C43 1_555 1_555
C44 C43 1_555 1_555
C45 C42 1_555 1_555
C46 C45 1_555 1_555
H29 C46 1_555 1_555
C47 C46 1_555 1_555
H30 C47 1_555 1_555
C48 C47 1_555 1_555
C49 C48 1_555 1_555
H31 C49 1_555 1_555
C50 C45 1_555 1_555
H32 C50 1_555 1_555
N3 C30 1_555 1_555
N4 C40 1_555 1_555
O1 C1 1_555 1_555
O2 C1 1_555 1_555
O3 C8 1_555 1_555
O4 C8 1_555 1_555
O5 Zn1 1_555 1_555
O6 Zn6 1_555 1_555
O7 C33 1_555 1_555
O8 C33 1_555 1_555
Zn5 O3 1_555 1_555
Zn8 O8 1_555 1_555
N5 Zn1 1_555 1_555
O9 Zn1 1_555 1_555
O10 Zn6 1_555 1_555
O11 Zn1 1_555 1_555
O12 Zn6 1_555 1_555
C6 C7 1_555 1_555
C26 O5 1_555 1_555
C26 O6 1_555 1_555
C31 C32 1_555 1_555
C37 N3 1_555 1_555
C38 C39 1_555 1_555
C44 N4 1_555 1_555
C48 N3 1_555 1_555
C49 C50 1_555 1_555
C3 H1 1_555 1_555
C4 C3 1_555 1_555
H2 C4 1_555 1_555
H7 C13 1_555 1_555
C15 H9 1_555 1_555
C16 C15 1_555 1_555
H10 C16 1_555 1_555
C17 C16 1_555 1_555
C18 C17 1_555 1_555
H11 C18 1_555 1_555
C19 C18 1_555 1_555
H12 C19 1_555 1_555
C20 C17 1_555 1_555
C21 C20 1_555 1_555
H13 C21 1_555 1_555
C22 C21 1_555 1_555
H14 C22 1_555 1_555
C23 C22 1_555 1_555
C24 C23 1_555 1_555
H15 C24 1_555 1_555
C25 C20 1_555 1_555
H16 C25 1_555 1_555
N2 C15 1_555 1_555
Zn5 N2 1_555 1_555
C19 N2 1_555 1_555
C23 N1 1_555 1_555
C24 C25 1_555 1_555
Zn5 O2_2 1_555 1_555
C1_2 C2_2 1_555 1_555
H3_2 C6_2 1_555 1_555
C7_2 C2_2 1_555 1_555
H4_2 C7_2 1_555 1_555
O1_2 C1_2 1_555 1_555
O2_2 C1_2 1_555 1_555
O5_2 Zn5 1_555 1_555
C6_2 C7_2 1_555 1_555
C8_2 C9_2 1_555 1_555
C9_2 C10_2 1_555 1_555
C10_2 H5_2 1_555 1_555
C11_2 C10_2 1_555 1_555
H6_2 C11_2 1_555 1_555
C12_2 C11_2 1_555 1_555
C14_2 C9_2 1_555 1_555
H8_2 C14_2 1_555 1_555
O9 C8_2 1_555 1_555
O10 C8_2 1_555 1_555
C26_2 C27_2 1_555 1_555
C27_2 C28_2 1_555 1_555
C28_2 H17_2 1_555 1_555
C29_2 C28_2 1_555 1_555
H18_2 C29_2 1_555 1_555
C30_2 C29_2 1_555 1_555
C31_2 C30_2 1_555 1_555
H19_2 C31_2 1_555 1_555
C32_2 C27_2 1_555 1_555
H20_2 C32_2 1_555 1_555
C40_2 H25_2 1_555 1_555
C41_2 C40_2 1_555 1_555
C42_2 C41_2 1_555 1_555
C43_2 C42_2 1_555 1_555
H27_2 C43_2 1_555 1_555
C44_2 C43_2 1_555 1_555
C45_2 C42_2 1_555 1_555
C49_2 C48_2 1_555 1_555
H31_2 C49_2 1_555 1_555
C50_2 C45_2 1_555 1_555
H32_2 C50_2 1_555 1_555
N4_2 C40_2 1_555 1_555
O6_2 Zn8 1_555 1_555
C26_2 O6_2 1_555 1_555
C31_2 C32_2 1_555 1_555
C44_2 N4_2 1_555 1_555
C49_2 C50_2 1_555 1_555
C33_2 C34_2 1_555 1_555
C34_2 C35_2 1_555 1_555
C35_2 H21_2 1_555 1_555
C36_2 C35_2 1_555 1_555
H22_2 C36_2 1_555 1_555
C37_2 C36_2 1_555 1_555
C38_2 C37_2 1_555 1_555
H23_2 C38_2 1_555 1_555
C39_2 C34_2 1_555 1_555
H24_2 C39_2 1_555 1_555
H29_2 C46_2 1_555 1_555
C47_2 C46_2 1_555 1_555
H30_2 C47_2 1_555 1_555
O11 C33_2 1_555 1_555
O12 C33_2 1_555 1_555
C37_2 N3_2 1_555 1_555
C38_2 C39_2 1_555 1_555
H2_2 C4_2 1_555 1_555
H7_2 C13_2 1_555 1_555
C15_2 H9_2 1_555 1_555
C16_2 C15_2 1_555 1_555
H10_2 C16_2 1_555 1_555
C17_2 C16_2 1_555 1_555
C18_2 C17_2 1_555 1_555
H11_2 C18_2 1_555 1_555
C19_2 C18_2 1_555 1_555
H12_2 C19_2 1_555 1_555
C20_2 C17_2 1_555 1_555
C21_2 C20_2 1_555 1_555
H13_2 C21_2 1_555 1_555
C22_2 C21_2 1_555 1_555
H14_2 C22_2 1_555 1_555
C23_2 C22_2 1_555 1_555
C24_2 C23_2 1_555 1_555
H15_2 C24_2 1_555 1_555
C25_2 C20_2 1_555 1_555
H16_2 C25_2 1_555 1_555
N5 C15_2 1_555 1_555
C19_2 N5 1_555 1_555
C23_2 N1_2 1_555 1_555
C24_2 C25_2 1_555 1_555
H2_3 C4_3 1_555 1_555
H7_3 C13_3 1_555 1_555
C15_3 H9_3 1_555 1_555
C16_3 C15_3 1_555 1_555
H10_3 C16_3 1_555 1_555
C17_3 C16_3 1_555 1_555
C18_3 C17_3 1_555 1_555
H11_3 C18_3 1_555 1_555
C19_3 C18_3 1_555 1_555
H12_3 C19_3 1_555 1_555
C20_3 C17_3 1_555 1_555
C21_3 C20_3 1_555 1_555
H13_3 C21_3 1_555 1_555
C22_3 C21_3 1_555 1_555
H14_3 C22_3 1_555 1_555
C23_3 C22_3 1_555 1_555
C24_3 C23_3 1_555 1_555
H15_3 C24_3 1_555 1_555
C25_3 C20_3 1_555 1_555
H16_3 C25_3 1_555 1_555
N2_2 C15_3 1_555 1_555
Zn3 N2_2 1_555 1_555
C19_3 N2_2 1_555 1_555
C23_3 N1_3 1_555 1_555
C24_3 C25_3 1_555 1_555
C33_3 C34_3 1_555 1_555
C34_3 C35_3 1_555 1_555
C35_3 H21_3 1_555 1_555
C36_3 C35_3 1_555 1_555
H22_3 C36_3 1_555 1_555
C37_3 C36_3 1_555 1_555
C38_3 C37_3 1_555 1_555
H23_3 C38_3 1_555 1_555
C39_3 C34_3 1_555 1_555
H24_3 C39_3 1_555 1_555
H29_3 C46_3 1_555 1_555
C47_3 C46_3 1_555 1_555
H30_3 C47_3 1_555 1_555
O7_2 C33_3 1_555 1_555
O8_2 C33_3 1_555 1_555
Zn3 O7_2 1_555 1_555
Zn8_2 O8_2 1_555 1_555
C37_3 N3_3 1_555 1_555
C38_3 C39_3 1_555 1_555
C26_3 C27_3 1_555 1_555
C27_3 C28_3 1_555 1_555
C28_3 H17_3 1_555 1_555
C29_3 C28_3 1_555 1_555
H18_3 C29_3 1_555 1_555
C30_3 C29_3 1_555 1_555
C31_3 C30_3 1_555 1_555
H19_3 C31_3 1_555 1_555
C32_3 C27_3 1_555 1_555
H20_3 C32_3 1_555 1_555
C40_3 H25_3 1_555 1_555
C41_3 C40_3 1_555 1_555
C42_3 C41_3 1_555 1_555
C43_3 C42_3 1_555 1_555
H27_3 C43_3 1_555 1_555
C44_3 C43_3 1_555 1_555
C45_3 C42_3 1_555 1_555
C49_3 C48_3 1_555 1_555
H31_3 C49_3 1_555 1_555
C50_3 C45_3 1_555 1_555
H32_3 C50_3 1_555 1_555
N6 C40_3 1_555 1_555
O6_3 Zn2 1_555 1_555
O12_2 Zn2 1_555 1_555
C26_3 O6_3 1_555 1_555
C31_3 C32_3 1_555 1_555
C44_3 N6 1_555 1_555
C49_3 C50_3 1_555 1_555
C8_3 C9_3 1_555 1_555
C9_3 C10_3 1_555 1_555
C10_3 H5_3 1_555 1_555
C11_3 C10_3 1_555 1_555
H6_3 C11_3 1_555 1_555
C12_3 C11_3 1_555 1_555
C14_3 C9_3 1_555 1_555
H8_3 C14_3 1_555 1_555
O3_2 C8_3 1_555 1_555
O4_2 C8_3 1_555 1_555
Zn3 O3_2 1_555 1_555
Zn8_2 O4_2 1_555 1_555
Zn1_2 O2_3 1_555 1_555
C1_3 C2_3 1_555 1_555
H3_3 C6_3 1_555 1_555
C7_3 C2_3 1_555 1_555
H4_3 C7_3 1_555 1_555
O1_3 C1_3 1_555 1_555
O2_3 C1_3 1_555 1_555
O5_3 Zn1_2 1_555 1_555
N5_2 Zn1_2 1_555 1_555
O9_2 Zn1_2 1_555 1_555
C6_3 C7_3 1_555 1_555
C3_2 H1_2 1_555 1_555
C4_4 C3_2 1_555 1_555
H2_4 C4_4 1_555 1_555
H7_4 C13_4 1_555 1_555
C15_4 H9_4 1_555 1_555
C16_4 C15_4 1_555 1_555
H10_4 C16_4 1_555 1_555
C17_4 C16_4 1_555 1_555
C18_4 C17_4 1_555 1_555
H11_4 C18_4 1_555 1_555
C19_4 C18_4 1_555 1_555
H12_4 C19_4 1_555 1_555
C20_4 C17_4 1_555 1_555
C21_4 C20_4 1_555 1_555
H13_4 C21_4 1_555 1_555
C22_4 C21_4 1_555 1_555
H14_4 C22_4 1_555 1_555
C23_4 C22_4 1_555 1_555
C24_4 C23_4 1_555 1_555
H15_4 C24_4 1_555 1_555
C25_4 C20_4 1_555 1_555
H16_4 C25_4 1_555 1_555
N5_2 C15_4 1_555 1_555
C19_4 N5_2 1_555 1_555
C23_4 N1_4 1_555 1_555
C24_4 C25_4 1_555 1_555
Zn3 O2_4 1_555 1_555
Zn8_2 O1_4 1_555 1_555
C1_4 C2_4 1_555 1_555
C6_4 C5_4 1_555 1_555
H3_4 C6_4 1_555 1_555
C7_4 C2_4 1_555 1_555
H4_4 C7_4 1_555 1_555
C8_4 C9_4 1_555 1_555
C9_4 C10_4 1_555 1_555
C10_4 H5_4 1_555 1_555
C11_4 C10_4 1_555 1_555
H6_4 C11_4 1_555 1_555
C12_4 C11_4 1_555 1_555
C14_4 C9_4 1_555 1_555
H8_4 C14_4 1_555 1_555
C26_4 C27_4 1_555 1_555
C27_4 C28_4 1_555 1_555
C28_4 H17_4 1_555 1_555
C29_4 C28_4 1_555 1_555
H18_4 C29_4 1_555 1_555
C30_4 C29_4 1_555 1_555
C31_4 C30_4 1_555 1_555
H19_4 C31_4 1_555 1_555
C32_4 C27_4 1_555 1_555
H20_4 C32_4 1_555 1_555
C33_4 C34_4 1_555 1_555
C34_4 C35_4 1_555 1_555
C35_4 H21_4 1_555 1_555
C36_4 C35_4 1_555 1_555
H22_4 C36_4 1_555 1_555
C37_4 C36_4 1_555 1_555
C38_4 C37_4 1_555 1_555
H23_4 C38_4 1_555 1_555
C39_4 C34_4 1_555 1_555
H24_4 C39_4 1_555 1_555
C40_4 H25_4 1_555 1_555
C41_4 C40_4 1_555 1_555
H26_4 C41_4 1_555 1_555
C42_4 C41_4 1_555 1_555
C43_4 C42_4 1_555 1_555
H27_4 C43_4 1_555 1_555
C44_4 C43_4 1_555 1_555
C45_4 C42_4 1_555 1_555
C46_4 C45_4 1_555 1_555
H29_4 C46_4 1_555 1_555
C47_4 C46_4 1_555 1_555
H30_4 C47_4 1_555 1_555
C48_4 C47_4 1_555 1_555
C49_4 C48_4 1_555 1_555
H31_4 C49_4 1_555 1_555
C50_4 C45_4 1_555 1_555
H32_4 C50_4 1_555 1_555
N3_4 C30_4 1_555 1_555
N6_2 C40_4 1_555 1_555
O1_4 C1_4 1_555 1_555
O2_4 C1_4 1_555 1_555
O9_2 C8_4 1_555 1_555
O10_2 C8_4 1_555 1_555
O5_4 Zn3 1_555 1_555
O6_4 Zn8_2 1_555 1_555
O11_2 C33_4 1_555 1_555
O12_2 C33_4 1_555 1_555
C6_4 C7_4 1_555 1_555
C26_4 O5_4 1_555 1_555
C26_4 O6_4 1_555 1_555
C31_4 C32_4 1_555 1_555
C37_4 N3_4 1_555 1_555
C38_4 C39_4 1_555 1_555
C44_4 N6_2 1_555 1_555
C48_4 N3_4 1_555 1_555
C49_4 C50_4 1_555 1_555
C3_3 H1_3 1_555 1_555
C3_4 H1_4 1_555 1_555

#END
