
###############################################################################
#
# This file contains modified crystal structure data generated from the
# MOF subset of the Cambridge Structural Database (CSD) v543 
# hosted by the Cambridge Crystallographic Data Centre (CCDC).
#
# This work is licensed under the Creative Commons
# Attribution-NonCommercial-ShareAlike 4.0 International License.
# To view a copy of this license, visit
# http://creativecommons.org/licenses/by-nc-sa/4.0/
# or send a letter to
# Creative Commons, PO Box 1866, Mountain View, CA 94042, USA.
#
# CIF created using the CSD Python API on 29 September 2022
# The structure has been converted into the P1 space group
# The structure has a 3D framework
# The original CSD entry IQOKIK is in the triclinic crystal system
# The framework has been calculated to contain at least 10.0% void space
# The void calculation uses a probe of radius 1.32A, grid spacing 0.4
# H atom positions have been added when not included in the experimental data
# Generated hydrogen atom positions removed from atoms on special positions
#
###############################################################################

data_IQOKIK
_chemical_formula_moiety         '(C174 H120 Mn10 N2 O51 Si6)n'
_symmetry_cell_setting           triclinic
_symmetry_space_group_name_H-M   'P 1'
_symmetry_Int_Tables_number      1
_space_group_name_Hall           'P 1'
loop_
_symmetry_equiv_pos_site_id
_symmetry_equiv_pos_as_xyz
1 x,y,z
_cell_length_a                   13.736(16)
_cell_length_b                   22.64(3)
_cell_length_c                   23.01(3)
_cell_angle_alpha                65.026(15)
_cell_angle_beta                 75.118(15)
_cell_angle_gamma                87.591(15)
_cell_volume                     6251.04
loop_
_atom_site_label
_atom_site_type_symbol
_atom_site_fract_x
_atom_site_fract_y
_atom_site_fract_z
C12 C 0.0791(7) 0.0476(5) 0.0969(4)
C13 C 0.2018(6) 0.0422(5) 0.1569(5)
H7 H 0.0502 0.0711 0.0610
C16 C 0.1596(7) 0.0765(3) 0.1043(4)
H8 H 0.2569 0.0619 0.1619
Si2 Si 0.2090(4) 0.1621(2) 0.0387(2)
C26 C 0.1095(6) 0.2221(4) 0.0371(4)
C28 C 0.3257(6) 0.1894(4) 0.0517(5)
C38 C 0.1438(5) 0.2878(4) 0.0033(4)
C39 C 0.0065(7) 0.2042(3) 0.0605(4)
C42 C 0.3201(6) 0.2015(4) 0.1069(4)
C43 C 0.4177(8) 0.1991(4) 0.0048(4)
C52 C 0.4065(8) 0.2233(4) 0.1151(4)
H25 H 0.2572 0.1948 0.1389
C53 C 0.5041(6) 0.2209(4) 0.0131(4)
C57 C 0.1935(6) 0.0070(3) 0.6475(5)
H27 H 0.0985 0.0163 0.7268
C61 C 0.4985(6) 0.2330(4) 0.0682(5)
H35 H 0.4026 0.2315 0.1528
C68 C 0.2775(14) 0.0538(8) 0.6376(9)
C72 C 0.5942(10) 0.2568(7) 0.0754(10)
O15 O 0.3575(8) 0.0601(5) 0.5973(6)
O20 O 0.6685(8) 0.2765(4) 0.0228(6)
O21 O 0.5895(7) 0.2625(5) 0.1270(6)
O29 O 0.2610(7) 0.0853(4) 0.6724(5)
Mn7 Mn 0.41049(17) 0.11210(10) 0.66405(11)
Mn8 Mn 0.17825(17) 0.17598(10) 0.66710(11)
Mn9 Mn -0.0000 0.5000 0.0000
O39 O 0.0413(7) 0.4211(4) 0.0809(4)
O40 O 0.0725(6) 0.5718(4) 0.0192(4)
Mn24 Mn 0.04356(15) 0.75145(10) 0.34270(10)
C27 C 0.2414(8) 0.1550(5) 0.9562(4)
C40 C 0.1953(7) 0.1945(4) 0.9074(5)
C41 C 0.3090(7) 0.1113(4) 0.9445(4)
C48 C 0.0749(7) 0.3355(3) 0.9930(4)
H21 H 0.2142 0.3001 0.9873
C50 C 0.2167(7) 0.1903(4) 0.8469(4)
H23 H 0.1491 0.2243 0.9155
H24 H 0.3406 0.0843 0.9779
C51 C 0.3305(7) 0.1072(4) 0.8840(5)
H26 H 0.4215 0.1908 0.9671
H31 H 0.0983 0.3804 0.9700
C60 C 0.2844(8) 0.1467(5) 0.8352(4)
H33 H 0.1852 0.2173 0.8136
H34 H 0.3767 0.0773 0.8760
H36 H 0.5669 0.2276 0.9810
C71 C 0.3132(15) 0.1440(9) 0.7721(8)
O30 O 0.3819(8) 0.1093(5) 0.7559(5)
O31 O 0.2688(7) 0.1772(4) 0.7293(5)
Mn9_2 Mn -0.0000 0.5000 1.0000
O37 O 0.1400(8) 0.4972(4) 0.9351(5)
H112 H 0.648875 0.313487 0.98617
O1 O 0.0068(7) 0.7660(4) 0.4264(4)
O2 O 0.0896(7) 0.8445(4) 0.2742(5)
O5 O 0.1707(8) 0.7057(5) 0.3599(6)
C2 C 0.0307(16) 0.8816(9) 0.2447(8)
C4 C 0.0830(7) 0.9501(3) 0.1946(4)
C7 C 0.0408(6) 0.9844(5) 0.1420(5)
C8 C 0.1636(7) 0.9789(5) 0.2020(4)
H2 H 0.0233 0.7482 0.5382
H4 H 0.1924 0.9555 0.2379
H6 H 0.0128 0.7717 0.6292
C24 C 0.0367(6) 0.9228(3) 0.6639(5)
C34 C 0.0268(5) 0.9534(4) 0.7062(4)
C35 C 0.1249(7) 0.9343(4) 0.6135(4)
C44 C 0.1052(7) 0.9955(4) 0.6979(4)
H18 H 0.1317 0.9135 0.5847
C45 C 0.2033(5) 0.9764(4) 0.6053(4)
H20 H 0.0241 0.8038 0.7770
H28 H 0.2636 0.9843 0.5708
H30 H 0.0088 0.6980 0.8617
C22 C 0.3577(6) 0.0068(5) 0.3190(5)
C31 C 0.3683(6) 0.0742(5) 0.2822(5)
H14 H 0.4332 0.0957 0.2565
H15 H 0.8864 0.0098 0.6169
H22 H 0.9831 0.1593 0.0835
C49 C 0.9376(5) 0.2519(4) 0.0502(4)
C59 C 0.9718(6) 0.3176(4) 0.0164(4)
H32 H 0.8671 0.2396 0.0662
C70 C 0.8939(12) 0.3696(8) 0.0037(7)
O19 O 0.8052(7) 0.3518(4) 0.0185(4)
O25 O 0.8600(8) 0.5028(4) 0.0649(5)
C88 C 0.1784(6) 0.0116(5) 0.3574(5)
C89 C 0.2840(8) 0.1103(3) 0.2830(5)
C90 C 0.7372(8) 0.0245(3) 0.6434(4)
C92 C 0.1890(6) 0.0790(5) 0.3206(5)
H57 H 0.2912 0.1564 0.2579
H58 H 0.7445 0.0706 0.6183
Si4 Si 0.0756(3) 0.12756(19) 0.3286(2)
C94 C 0.5521(15) 0.0350(10) 0.6770(11)
C96 C 0.0594(8) 0.1448(5) 0.4039(4)
C97 C 0.0953(7) 0.2087(3) 0.2551(4)
O27 O 0.5657(8) 0.0926(5) 0.6410(6)
O28 O 0.4668(9) 0.0036(5) 0.7141(6)
C100 C 0.0986(7) 0.1035(4) 0.4557(5)
C101 C 0.0140(7) 0.2000(4) 0.4062(4)
C102 C 0.1716(6) 0.2536(4) 0.2443(4)
C103 C 0.0281(6) 0.2268(4) 0.2156(4)
Mn9_3 Mn 1.0000 0.5000 0.0000
H60 H 0.0335 0.0545 0.2594
C106 C 0.0924(7) 0.1174(4) 0.5098(4)
H62 H 0.1297 0.0657 0.4542
C107 C 0.0078(7) 0.2140(4) 0.4603(5)
C108 C 0.1807(5) 0.3164(4) 0.1940(4)
H64 H 0.2175 0.2412 0.2713
C109 C 0.0372(6) 0.2897(4) 0.1653(4)
O32 O 0.4438(7) 0.2039(5) 0.5874(5)
O41 O 0.7219(6) 0.4601(4) 0.0624(4)
C111 C 0.0470(8) 0.1727(5) 0.5121(4)
H68 H 0.1192 0.0892 0.5452
C112 C 0.1134(6) 0.3345(3) 0.1544(4)
H70 H 0.2328 0.3471 0.1866
C113 C 0.3781(16) 0.2489(9) 0.5649(10)
C114 C 0.7729(14) 0.4847(8) 0.0891(5)
C116 C 0.0491(13) 0.1908(8) 0.5680(8)
C117 C 0.1244(13) 0.4038(4) 0.1008(6)
O47 O 0.2892(9) 0.2365(5) 0.5860(5)
C118 C 0.4275(8) 0.3097(4) 0.5118(5)
O48 O 0.1024(7) 0.1592(4) 0.6063(5)
O49 O 0.0600(8) 0.1269(4) 0.7503(4)
O50 O 0.0982(8) 0.2651(5) 0.6688(6)
C119 C 0.7148(7) 0.4925(4) 0.1507(4)
O58 O 0.1961(7) 0.4399(3) 0.0864(4)
C120 C 0.3655(5) 0.3605(5) 0.4915(5)
C121 C 0.5313(7) 0.3203(4) 0.4837(5)
C123 C 0.6213(7) 0.4595(4) 0.1895(5)
C124 C 0.7613(5) 0.5323(4) 0.1696(4)
Mn23 Mn 0.22785(17) 0.54075(11) 0.03115(12)
H72 H 0.2946 0.3533 0.5107
C126 C 0.4074(7) 0.4219(4) 0.4431(5)
C127 C 0.5731(5) 0.3817(5) 0.4353(5)
H73 H 0.5736 0.2856 0.4975
O60 O 0.0484(8) 0.3539(4) 0.6036(6)
H74 H 0.5896 0.4324 0.1765
C129 C 0.5744(5) 0.4664(4) 0.2473(4)
C130 C 0.7143(7) 0.5391(4) 0.2274(5)
H75 H 0.8252 0.5548 0.1431
O63 O 0.1685(9) 0.5526(5) 0.1306(5)
O64 O 0.3755(8) 0.5573(5) 0.0307(6)
H76 H 0.3650 0.4566 0.4292
C132 C 0.5112(8) 0.4324(4) 0.4150(5)
H77 H 0.6440 0.3889 0.4161
H78 H 0.5105 0.4438 0.2738
C135 C 0.6208(7) 0.5062(4) 0.2662(4)
H79 H 0.7461 0.5663 0.2403
Si5 Si 0.5608(3) 0.51504(19) 0.3439(2)
H80 H 0.0142 0.0353 0.8630
N2 N 0.5262(9) 0.6002(6) 0.0312(8)
C143 C 0.6549(6) 0.5612(4) 0.3604(5)
C144 C 0.4473(6) 0.5658(4) 0.3342(6)
C147 C 0.6271(10) 0.6209(7) 0.0040(8)
C148 C 0.4690(13) 0.5917(8) 0.0943(8)
C149 C 0.6651(6) 0.6289(4) 0.3257(4)
C150 C 0.7220(7) 0.5294(3) 0.3977(4)
C151 C 0.4073(8) 0.5883(5) 0.3823(5)
C152 C 0.4062(8) 0.5821(5) 0.2806(5)
H90 H 0.6386 0.6636 0.0036
H91 H 0.6670 0.5892 0.0307
H92 H 0.3983 0.5798 0.1000
H93 H 0.4950 0.5567 0.1283
H94 H 0.4736 0.6324 0.0991
C153 C 0.7423(7) 0.6647(3) 0.3282(4)
H95 H 0.6192 0.6506 0.3002
H96 H 0.7150 0.4832 0.4215
C154 C 0.7992(6) 0.5653(4) 0.4002(4)
C155 C 0.3260(8) 0.6272(5) 0.3769(5)
H97 H 0.4354 0.5772 0.4189
H98 H 0.4335 0.5667 0.2477
C156 C 0.3249(8) 0.6210(5) 0.2751(4)
C159 C 0.8094(6) 0.6329(4) 0.3655(5)
H99 H 0.7493 0.7110 0.3044
H100 H 0.8450 0.5435 0.4257
C160 C 0.2849(6) 0.6436(4) 0.3233(6)
H101 H 0.2987 0.6427 0.4098
H102 H 0.2968 0.6322 0.2385
C165 C 0.8947(13) 0.6769(9) 0.3629(8)
C166 C 0.1964(14) 0.6861(9) 0.3157(10)
O67 O 0.9018(8) 0.7349(5) 0.3312(6)
O68 O 0.9516(8) 0.6461(4) 0.3964(6)
O69 O 0.1544(8) 0.6982(5) 0.2731(6)
Mn25 Mn 0.82175(17) 0.82402(10) 0.33290(11)
O18 O 0.9275(6) 0.4282(4) 0.9808(4)
Mn9_4 Mn 1.0000 0.5000 1.0000
Mn10 Mn 0.77215(17) 0.45925(11) 0.96885(12)
O38 O 0.9587(7) 0.5789(4) 0.9191(4)
O65 O 0.2781(6) 0.5399(4) 0.9376(4)
O66 O 0.1948(7) 0.6482(4) 0.9815(4)
C138 C 0.4829(15) 0.5838(8) 0.9927(8)
H84 H 0.5151 0.5882 0.9491
H89 H 0.6477 0.6248 0.9584
C85 C 0.5171(15) 0.4162(8) 0.0073(8)
H49 H 0.4849 0.4118 0.0509
H50 H 0.3523 0.3752 0.0416
C1 C 0.9509(13) 0.8092(8) 0.4320(8)
O6 O 0.8976(7) 0.8408(4) 0.3937(5)
C3 C 0.9530(8) 0.8273(5) 0.4879(4)
O7 O 0.9400(8) 0.8731(4) 0.2497(4)
O8 O 0.7108(9) 0.7635(5) 0.4140(5)
O9 O 0.7390(7) 0.9147(4) 0.3276(5)
O10 O 0.7312(7) 0.8228(4) 0.2707(5)
C5 C 0.9076(7) 0.8826(4) 0.4902(4)
C6 C 0.9922(7) 0.7860(4) 0.5397(5)
C9 C 0.6219(16) 0.7511(9) 0.4351(10)
Mn3 Mn 0.58951(17) 0.88790(10) 0.33595(11)
H1 H 0.8808 0.9108 0.4548
C10 C 0.9014(7) 0.8965(4) 0.5443(5)
C11 C 0.9860(7) 0.8000(4) 0.5938(4)
H3 H 0.9858 0.9647 0.1370
O11 O 0.5562(7) 0.7961(5) 0.4126(5)
C14 C 0.5725(8) 0.6903(4) 0.4882(5)
O12 O 0.4343(8) 0.9074(5) 0.3590(6)
O13 O 0.5332(9) 0.9964(5) 0.2859(6)
O14 O 0.6181(8) 0.8907(5) 0.2441(5)
H5 H 0.8703 0.9343 0.5458
C15 C 0.9406(8) 0.8552(5) 0.5961(4)
C17 C 0.6345(5) 0.6395(5) 0.5085(5)
C18 C 0.4687(7) 0.6797(4) 0.5163(5)
C19 C 0.4479(15) 0.9650(10) 0.3230(11)
Si1 Si 0.9244(3) 0.87244(19) 0.6714(2)
H9 H 0.7054 0.6467 0.4893
C20 C 0.5926(7) 0.5781(4) 0.5569(5)
C21 C 0.4269(5) 0.6183(5) 0.5647(5)
H10 H 0.4264 0.7144 0.5025
C23 C 0.8110(6) 0.9210(5) 0.6794(5)
C25 C 0.9047(7) 0.7913(3) 0.7449(4)
H11 H 0.6350 0.5434 0.5708
C29 C 0.4888(8) 0.5676(4) 0.5850(5)
H12 H 0.3560 0.6111 0.5839
C30 C 0.2628(8) 0.9755(3) 0.3566(4)
C32 C 0.8216(6) 0.9884(5) 0.6426(5)
C33 C 0.7160(8) 0.8897(3) 0.7170(5)
C36 C 0.8284(6) 0.7464(4) 0.7557(4)
C37 C 0.9719(6) 0.7732(4) 0.7844(4)
Si3 Si 0.4392(3) 0.48496(19) 0.6561(2)
H13 H 0.2555 0.9294 0.3817
H16 H 0.7088 0.8436 0.7421
H17 H 0.9665 0.9455 0.7406
C46 C 0.8193(5) 0.6836(4) 0.8060(4)
H19 H 0.7825 0.7588 0.7287
C47 C 0.9628(6) 0.7103(4) 0.8347(4)
C54 C 0.3792(7) 0.4938(4) 0.7338(4)
C55 C 0.3451(6) 0.4388(4) 0.6396(5)
C56 C 0.5527(6) 0.4342(4) 0.6658(6)
C58 C 0.8866(6) 0.6655(3) 0.8456(4)
H29 H 0.7672 0.6529 0.8134
C62 C 0.4256(5) 0.5336(4) 0.7527(4)
C63 C 0.2857(7) 0.4609(4) 0.7726(5)
C64 C 0.3349(6) 0.3711(4) 0.6743(4)
C65 C 0.2780(7) 0.4706(3) 0.6023(4)
C66 C 0.5927(8) 0.4117(5) 0.6177(5)
C67 C 0.5938(8) 0.4179(5) 0.7194(5)
C69 C 0.8756(13) 0.5962(4) 0.8992(6)
C73 C 0.3787(7) 0.5405(4) 0.8105(5)
H37 H 0.4895 0.5562 0.7262
H38 H 0.2539 0.4337 0.7597
C74 C 0.2387(5) 0.4677(4) 0.8304(4)
C75 C 0.2577(7) 0.3353(3) 0.6718(4)
H39 H 0.3808 0.3494 0.6998
H40 H 0.2850 0.5168 0.5785
C76 C 0.2008(6) 0.4347(4) 0.5998(4)
C77 C 0.6740(8) 0.3728(5) 0.6231(5)
H41 H 0.5646 0.4228 0.5811
H42 H 0.5665 0.4333 0.7523
C78 C 0.6751(8) 0.3790(5) 0.7249(4)
O17 O 0.8039(7) 0.5601(3) 0.9136(4)
C79 C 0.2852(7) 0.5075(4) 0.8493(4)
H43 H 0.4104 0.5676 0.8235
H44 H 0.1748 0.4452 0.8569
C80 C 0.1906(6) 0.3671(4) 0.6345(5)
H45 H 0.2507 0.2890 0.6956
H46 H 0.1550 0.4565 0.5743
C81 C 0.7151(6) 0.3564(4) 0.6767(6)
H47 H 0.7013 0.3573 0.5902
H48 H 0.7032 0.3678 0.7615
C82 C 0.2271(14) 0.5153(8) 0.9109(5)
C83 C 0.1053(13) 0.3231(9) 0.6371(8)
C84 C 0.8036(14) 0.3139(9) 0.6843(10)
O22 O 0.8315(9) 0.4474(5) 0.8694(5)
O23 O 0.6245(8) 0.4427(5) 0.9693(6)
O26 O 0.8456(8) 0.3018(5) 0.7269(6)
N1 N 0.4738(9) 0.3998(6) 0.9688(8)
C86 C 0.3729(10) 0.3791(7) 0.9960(8)
C87 C 0.5310(13) 0.4083(8) 0.9057(8)
H51 H 0.3614 0.3364 0.9964
H52 H 0.3330 0.4108 0.9693
H53 H 0.6017 0.4202 0.9000
H54 H 0.5050 0.4433 0.8717
H55 H 0.5264 0.3676 0.9009
C91 C 0.6317(6) 0.9258(5) 0.7178(5)
H56 H 0.1136 0.9902 0.3831
C93 C 0.6423(6) 0.9932(5) 0.6810(5)
H59 H 0.5668 0.9043 0.7435
O46 O 0.8293(8) 0.2943(5) 0.6401(6)
Mn18 Mn 0.95644(15) 0.24855(10) 0.65730(10)
C125 C 0.1061(12) 0.6304(8) 0.9963(7)
C131 C 0.0282(6) 0.6824(4) 0.9836(4)
C137 C 0.0624(5) 0.7481(4) 0.9498(4)
H83 H 0.1329 0.7604 0.9338
H88 H 0.0169 0.8407 0.9165
C95 C 0.9633(6) 0.0772(3) 0.3361(5)
C98 C 0.9732(5) 0.0466(4) 0.2938(4)
C99 C 0.8751(7) 0.0657(4) 0.3865(4)
C104 C 0.8948(7) 0.0045(4) 0.3021(4)
H61 H 0.8683 0.0865 0.4153
C105 C 0.7967(5) 0.0236(4) 0.3947(4)
H63 H 0.9872 0.2283 0.3708
H65 H 0.9759 0.1962 0.2230
H67 H 0.7364 0.0157 0.4292
H69 H 0.9767 0.2518 0.4618
H71 H 0.9912 0.3020 0.1383
O56 O 0.9932(7) 0.2340(4) 0.5736(4)
C122 C 0.9693(16) 0.1184(9) 0.7553(8)
O59 O 0.9104(7) 0.1555(4) 0.7258(5)
C128 C 0.9170(7) 0.0499(3) 0.8054(4)
C133 C 0.9592(6) 0.0156(5) 0.8580(5)
C134 C 0.8364(7) 0.0211(5) 0.7980(4)
H81 H 0.8076 0.0445 0.7621
C136 C 0.9251(7) 0.6645(3) 0.0070(4)
H82 H 0.9017 0.6196 0.0300
H87 H 0.7858 0.6999 0.0127
C157 C 0.7586(8) 0.8450(5) 0.0438(4)
C161 C 0.8047(7) 0.8055(4) 0.0926(5)
C162 C 0.6910(7) 0.8887(4) 0.0555(4)
C167 C 0.7833(7) 0.8097(4) 0.1531(4)
H103 H 0.8509 0.7757 0.0845
H104 H 0.6594 0.9157 0.0221
C168 C 0.6695(7) 0.8928(4) 0.1160(5)
H106 H 0.5785 0.8092 0.0329
C171 C 0.7156(8) 0.8533(5) 0.1648(4)
H107 H 0.8148 0.7827 0.1864
H108 H 0.6233 0.9227 0.1240
H110 H 0.4331 0.7724 0.0190
C173 C 0.6868(15) 0.8560(9) 0.2279(8)
C110 C 0.8065(6) 0.9930(3) 0.3525(5)
H66 H 0.9015 0.9837 0.2732
C115 C 0.7225(14) 0.9462(8) 0.3624(9)
O55 O 0.6425(8) 0.9399(5) 0.4027(6)
C139 C 0.9209(7) 0.9524(5) 0.9031(4)
C140 C 0.7982(6) 0.9578(5) 0.8431(5)
C141 C 0.8562(5) 0.7122(4) 0.9967(4)
C142 C 0.9935(7) 0.7958(3) 0.9395(4)
H85 H 0.9498 0.9289 0.9390
C145 C 0.8404(7) 0.9235(3) 0.8957(4)
H86 H 0.7431 0.9381 0.8381
C146 C 0.8905(6) 0.7779(4) 0.9629(4)
Si6 Si 0.7910(4) 0.8379(2) 0.9613(2)
C158 C 0.6743(6) 0.8106(4) 0.9483(5)
C163 C 0.6799(6) 0.7985(4) 0.8931(4)
C164 C 0.5823(8) 0.8009(4) 0.9952(4)
C169 C 0.5935(8) 0.7767(4) 0.8849(4)
H105 H 0.7428 0.8052 0.8611
C170 C 0.4959(6) 0.7791(4) 0.9869(4)
C172 C 0.5015(6) 0.7670(4) 0.9318(5)
H109 H 0.5974 0.7685 0.8472
C174 C 0.4058(10) 0.7432(7) 0.9246(10)
O73 O 0.3315(8) 0.7235(4) 0.9772(6)
O74 O 0.4105(7) 0.7375(5) 0.8730(6)
H111 H 0.313746 0.75991 0.990339
H111_2 H 0.686254 0.24009 0.00966143
H112_2 H 0.351125 0.686513 0.0138304
loop_
_geom_bond_atom_site_label_1
_geom_bond_atom_site_label_2
_geom_bond_site_symmetry_1
_geom_bond_site_symmetry_2
H7 C12 1_555 1_555
C16 C12 1_555 1_555
H8 C13 1_555 1_555
Si2 C16 1_555 1_555
C26 Si2 1_555 1_555
C28 Si2 1_555 1_555
C38 C26 1_555 1_555
C39 C26 1_555 1_555
C42 C28 1_555 1_555
C43 C28 1_555 1_555
C52 C42 1_555 1_555
H25 C42 1_555 1_555
C53 C43 1_555 1_555
C61 C52 1_555 1_555
H35 C52 1_555 1_555
C68 C57 1_555 1_555
C72 C61 1_555 1_555
O15 C68 1_555 1_555
O20 C72 1_555 1_555
O21 C72 1_555 1_555
O29 C68 1_555 1_555
Mn7 O29 1_555 1_555
Mn8 O29 1_555 1_555
O39 Mn9 1_555 1_555
O40 Mn9 1_555 1_555
C13 C16 1_555 1_555
C53 C61 1_555 1_555
C40 C27 1_555 1_555
C41 C27 1_555 1_555
C50 C40 1_555 1_555
H23 C40 1_555 1_555
H24 C41 1_555 1_555
C51 C41 1_555 1_555
H31 C48 1_555 1_555
C60 C50 1_555 1_555
H33 C50 1_555 1_555
H34 C51 1_555 1_555
C71 C60 1_555 1_555
O30 C71 1_555 1_555
O31 C71 1_555 1_555
Mn7 O30 1_555 1_555
Mn8 O31 1_555 1_555
O37 Mn9_2 1_555 1_555
C51 C60 1_555 1_555
Mn24 O1 1_555 1_555
O2 Mn24 1_555 1_555
O5 Mn24 1_555 1_555
C2 O2 1_555 1_555
C4 C2 1_555 1_555
C7 C4 1_555 1_555
C8 C4 1_555 1_555
H4 C8 1_555 1_555
C34 C24 1_555 1_555
C35 C24 1_555 1_555
C44 C34 1_555 1_555
H18 C35 1_555 1_555
C45 C35 1_555 1_555
H28 C45 1_555 1_555
C31 C22 1_555 1_555
H14 C31 1_555 1_555
H32 C49 1_555 1_555
C70 C59 1_555 1_555
O19 C70 1_555 1_555
O25 Mn9_3 1_555 1_555
C89 C31 1_555 1_555
C92 C88 1_555 1_555
H57 C89 1_555 1_555
H58 C90 1_555 1_555
Si4 C92 1_555 1_555
C96 Si4 1_555 1_555
C97 Si4 1_555 1_555
O27 C94 1_555 1_555
O28 C94 1_555 1_555
C100 C96 1_555 1_555
C101 C96 1_555 1_555
C102 C97 1_555 1_555
C103 C97 1_555 1_555
Mn7 O27 1_555 1_555
C106 C100 1_555 1_555
H62 C100 1_555 1_555
C107 C101 1_555 1_555
C108 C102 1_555 1_555
H64 C102 1_555 1_555
C109 C103 1_555 1_555
O32 Mn7 1_555 1_555
C111 C106 1_555 1_555
H68 C106 1_555 1_555
C112 C108 1_555 1_555
H70 C108 1_555 1_555
C113 O32 1_555 1_555
C114 O25 1_555 1_555
C116 C111 1_555 1_555
C117 C112 1_555 1_555
O47 C113 1_555 1_555
C118 C113 1_555 1_555
O48 Mn8 1_555 1_555
O49 Mn8 1_555 1_555
O50 Mn8 1_555 1_555
C119 C114 1_555 1_555
O39 C117 1_555 1_555
O58 C117 1_555 1_555
C120 C118 1_555 1_555
C121 C118 1_555 1_555
C123 C119 1_555 1_555
C124 C119 1_555 1_555
Mn23 O58 1_555 1_555
H72 C120 1_555 1_555
C126 C120 1_555 1_555
C127 C121 1_555 1_555
H73 C121 1_555 1_555
H74 C123 1_555 1_555
C129 C123 1_555 1_555
C130 C124 1_555 1_555
H75 C124 1_555 1_555
O63 Mn23 1_555 1_555
O64 Mn23 1_555 1_555
H76 C126 1_555 1_555
C132 C126 1_555 1_555
H77 C127 1_555 1_555
H78 C129 1_555 1_555
C135 C129 1_555 1_555
H79 C130 1_555 1_555
Si5 C132 1_555 1_555
C143 Si5 1_555 1_555
C144 Si5 1_555 1_555
C147 N2 1_555 1_555
C148 N2 1_555 1_555
C149 C143 1_555 1_555
C150 C143 1_555 1_555
C151 C144 1_555 1_555
C152 C144 1_555 1_555
H90 C147 1_555 1_555
H91 C147 1_555 1_555
H92 C148 1_555 1_555
H93 C148 1_555 1_555
H94 C148 1_555 1_555
C153 C149 1_555 1_555
H95 C149 1_555 1_555
H96 C150 1_555 1_555
C154 C150 1_555 1_555
C155 C151 1_555 1_555
H97 C151 1_555 1_555
H98 C152 1_555 1_555
C156 C152 1_555 1_555
C159 C153 1_555 1_555
H99 C153 1_555 1_555
H100 C154 1_555 1_555
C160 C155 1_555 1_555
H101 C155 1_555 1_555
H102 C156 1_555 1_555
C165 C159 1_555 1_555
C166 C160 1_555 1_555
O67 C165 1_555 1_555
O68 C165 1_555 1_555
O69 C166 1_555 1_555
O5 C166 1_555 1_555
Mn25 O67 1_555 1_555
C49 C59 1_555 1_555
C89 C92 1_555 1_555
O28 Mn7 1_555 1_555
C107 C111 1_555 1_555
C109 C112 1_555 1_555
O41 C114 1_555 1_555
Mn8 O47 1_555 1_555
C116 O48 1_555 1_555
Mn23 O40 1_555 1_555
C127 C132 1_555 1_555
C130 C135 1_555 1_555
C135 Si5 1_555 1_555
C154 C159 1_555 1_555
C156 C160 1_555 1_555
Mn9_4 O18 1_555 1_555
Mn10 O18 1_555 1_555
O38 Mn9_4 1_555 1_555
H84 C138 1_555 1_555
H49 C85 1_555 1_555
C1 O6 1_555 1_555
O6 Mn25 1_555 1_555
C3 C1 1_555 1_555
O8 Mn25 1_555 1_555
O9 Mn25 1_555 1_555
O10 Mn25 1_555 1_555
C5 C3 1_555 1_555
C6 C3 1_555 1_555
C9 O8 1_555 1_555
Mn3 O9 1_555 1_555
H1 C5 1_555 1_555
C10 C5 1_555 1_555
C11 C6 1_555 1_555
O11 C9 1_555 1_555
C14 C9 1_555 1_555
O12 Mn3 1_555 1_555
O13 Mn3 1_555 1_555
O14 Mn3 1_555 1_555
H5 C10 1_555 1_555
C15 C10 1_555 1_555
C17 C14 1_555 1_555
C18 C14 1_555 1_555
C19 O12 1_555 1_555
Si1 C15 1_555 1_555
H9 C17 1_555 1_555
C20 C17 1_555 1_555
C21 C18 1_555 1_555
H10 C18 1_555 1_555
C23 Si1 1_555 1_555
C25 Si1 1_555 1_555
H11 C20 1_555 1_555
C29 C20 1_555 1_555
H12 C21 1_555 1_555
C32 C23 1_555 1_555
C33 C23 1_555 1_555
C36 C25 1_555 1_555
C37 C25 1_555 1_555
Si3 C29 1_555 1_555
H13 C30 1_555 1_555
H16 C33 1_555 1_555
C46 C36 1_555 1_555
H19 C36 1_555 1_555
C47 C37 1_555 1_555
C54 Si3 1_555 1_555
C55 Si3 1_555 1_555
C56 Si3 1_555 1_555
C58 C46 1_555 1_555
H29 C46 1_555 1_555
C62 C54 1_555 1_555
C63 C54 1_555 1_555
C64 C55 1_555 1_555
C65 C55 1_555 1_555
C66 C56 1_555 1_555
C67 C56 1_555 1_555
C69 C58 1_555 1_555
C73 C62 1_555 1_555
H37 C62 1_555 1_555
H38 C63 1_555 1_555
C74 C63 1_555 1_555
C75 C64 1_555 1_555
H39 C64 1_555 1_555
H40 C65 1_555 1_555
C76 C65 1_555 1_555
C77 C66 1_555 1_555
H41 C66 1_555 1_555
H42 C67 1_555 1_555
C78 C67 1_555 1_555
O38 C69 1_555 1_555
O17 C69 1_555 1_555
C79 C73 1_555 1_555
H43 C73 1_555 1_555
H44 C74 1_555 1_555
C80 C75 1_555 1_555
H45 C75 1_555 1_555
H46 C76 1_555 1_555
C81 C77 1_555 1_555
H47 C77 1_555 1_555
H48 C78 1_555 1_555
Mn10 O17 1_555 1_555
C82 C79 1_555 1_555
C83 C80 1_555 1_555
C84 C81 1_555 1_555
O22 Mn10 1_555 1_555
O23 Mn10 1_555 1_555
O26 C84 1_555 1_555
C86 N1 1_555 1_555
C87 N1 1_555 1_555
H51 C86 1_555 1_555
H52 C86 1_555 1_555
H53 C87 1_555 1_555
H54 C87 1_555 1_555
H55 C87 1_555 1_555
C91 C33 1_555 1_555
H59 C91 1_555 1_555
O37 C82 1_555 1_555
O65 C82 1_555 1_555
O50 C83 1_555 1_555
O60 C83 1_555 1_555
O46 C84 1_555 1_555
Mn18 O46 1_555 1_555
C131 C125 1_555 1_555
C137 C131 1_555 1_555
H83 C137 1_555 1_555
Mn25 O7 1_555 1_555
Mn3 O11 1_555 1_555
C11 C15 1_555 1_555
O13 C19 1_555 1_555
C21 C29 1_555 1_555
C47 C58 1_555 1_555
C74 C79 1_555 1_555
C76 C80 1_555 1_555
C78 C81 1_555 1_555
C91 C93 1_555 1_555
O66 C125 1_555 1_555
C98 C95 1_555 1_555
C99 C95 1_555 1_555
C104 C98 1_555 1_555
H61 C99 1_555 1_555
C105 C99 1_555 1_555
H67 C105 1_555 1_555
O59 C122 1_555 1_555
C128 C122 1_555 1_555
C133 C128 1_555 1_555
C134 C128 1_555 1_555
H81 C134 1_555 1_555
O56 Mn18 1_555 1_555
Mn18 O59 1_555 1_555
H82 C136 1_555 1_555
C161 C157 1_555 1_555
C162 C157 1_555 1_555
C167 C161 1_555 1_555
H103 C161 1_555 1_555
H104 C162 1_555 1_555
C168 C162 1_555 1_555
C171 C167 1_555 1_555
H107 C167 1_555 1_555
H108 C168 1_555 1_555
C173 C171 1_555 1_555
O14 C173 1_555 1_555
O10 C173 1_555 1_555
C168 C171 1_555 1_555
C115 C110 1_555 1_555
O9 C115 1_555 1_555
O55 C115 1_555 1_555
H85 C139 1_555 1_555
C145 C139 1_555 1_555
H86 C140 1_555 1_555
C146 C141 1_555 1_555
Si6 C145 1_555 1_555
C158 Si6 1_555 1_555
C163 C158 1_555 1_555
C164 C158 1_555 1_555
C169 C163 1_555 1_555
H105 C163 1_555 1_555
C170 C164 1_555 1_555
C172 C169 1_555 1_555
H109 C169 1_555 1_555
C174 C172 1_555 1_555
O73 C174 1_555 1_555
O74 C174 1_555 1_555
C140 C145 1_555 1_555
C142 C146 1_555 1_555
C146 Si6 1_555 1_555
C170 C172 1_555 1_555
O73 H111 1_555 1_555
O20 H111_2 1_555 1_555

#END
