
###############################################################################
#
# This file contains modified crystal structure data generated from the
# MOF subset of the Cambridge Structural Database (CSD) v543 
# hosted by the Cambridge Crystallographic Data Centre (CCDC).
#
# This work is licensed under the Creative Commons
# Attribution-NonCommercial-ShareAlike 4.0 International License.
# To view a copy of this license, visit
# http://creativecommons.org/licenses/by-nc-sa/4.0/
# or send a letter to
# Creative Commons, PO Box 1866, Mountain View, CA 94042, USA.
#
# CIF created using the CSD Python API on 29 September 2022
# The structure has been converted into the P1 space group
# The structure has a 3D framework
# The original CSD entry IQOKEG is in the triclinic crystal system
# The framework has been calculated to contain at least 10.0% void space
# The void calculation uses a probe of radius 1.32A, grid spacing 0.4
#
###############################################################################

data_IQOKEG
_chemical_formula_moiety         '(C74 H74 Mn7 N6 O18 Si2 6+)n'
_symmetry_cell_setting           triclinic
_symmetry_space_group_name_H-M   'P 1'
_symmetry_Int_Tables_number      1
_space_group_name_Hall           'P 1'
loop_
_symmetry_equiv_pos_site_id
_symmetry_equiv_pos_as_xyz
1 x,y,z
_cell_length_a                   13.73(2)
_cell_length_b                   14.03(2)
_cell_length_c                   14.10(2)
_cell_angle_alpha                115.655(13)
_cell_angle_beta                 111.027(14)
_cell_angle_gamma                100.397(15)
_cell_volume                     2095.41
loop_
_atom_site_label
_atom_site_type_symbol
_atom_site_fract_x
_atom_site_fract_y
_atom_site_fract_z
O11 O 0.0210(16) 0.2950(18) 0.3051(17)
O12 O 0.0672(16) 0.3629(18) 0.203(2)
Mn9 Mn 0.2052(4) 0.3819(4) 0.3788(4)
O7 O 0.5920(16) 0.4115(16) 0.4290(18)
O8 O 0.7731(17) 0.4484(19) 0.5195(18)
C22 C 0.6709(18) 0.3749(14) 0.447(2)
C23 C 0.6403(17) 0.2470(12) 0.3724(17)
C24 C 0.5254(15) 0.1769(16) 0.2922(18)
H13 H 0.4705 0.2098 0.2886
C25 C 0.4908(13) 0.0586(16) 0.2171(16)
H14 H 0.4122 0.0107 0.1623
C26 C 0.5711(17) 0.0105(12) 0.2223(17)
C27 C 0.6861(15) 0.0806(16) 0.3026(18)
H15 H 0.7410 0.0477 0.3061
C28 C 0.7207(13) 0.1988(15) 0.3776(16)
H16 H 0.7992 0.2468 0.4324
Mn6 Mn 0.7948(4) 0.6181(4) 0.6212(4)
Mn13 Mn 0.5000 0.5000 0.5000
Si1 Si 0.5208(8) 0.8494(8) 0.1171(8)
O5 O 0.5599(18) 0.6290(18) 0.4679(18)
O6 O 0.7335(18) 0.6598(18) 0.4897(18)
C4 C 0.6682(17) 0.8877(13) 0.0228(16)
H2 H 0.6975 0.9669 0.0845
C5 C 0.5863(17) 0.8060(18) 0.0152(16)
C11 C 0.2801(16) 0.7482(19) 0.0355(16)
H6 H 0.3037 0.7407 0.1031
C12 C 0.3605(12) 0.7934(19) 0.0116(17)
C15 C 0.640(3) 0.661(3) 0.448(2)
C16 C 0.6056(17) 0.7005(17) 0.3615(16)
C17 C 0.6505(16) 0.6840(17) 0.2843(17)
H9 H 0.6999 0.6445 0.2832
C18 C 0.6231(18) 0.7252(18) 0.2089(16)
H10 H 0.6538 0.7139 0.1561
C19 C 0.5508(18) 0.7829(18) 0.2106(17)
C20 C 0.5059(17) 0.7994(18) 0.2877(19)
H11 H 0.4564 0.8389 0.2889
C21 C 0.5333(17) 0.7582(18) 0.3632(17)
H12 H 0.5026 0.7695 0.4159
O1 O 0.7833(16) 0.7744(16) 0.7693(17)
O2 O 0.6651(17) 0.5935(15) 0.6748(17)
C1 C 0.704(2) 0.6997(17) 0.758(2)
C2 C 0.6643(17) 0.7379(18) 0.8499(16)
C3 C 0.7072(15) 0.8537(16) 0.9401(18)
H1 H 0.7632 0.9096 0.9453
C6 C 0.5434(15) 0.6902(16) 0.9249(18)
H3 H 0.4874 0.6343 0.9197
C7 C 0.5824(17) 0.6561(13) 0.8423(16)
H4 H 0.5531 0.5770 0.7806
C8 C 0.0051(13) 0.685(3) 0.779(2)
C9 C 0.1303(12) 0.7248(19) 0.8613(17)
C10 C 0.1650(14) 0.7139(18) 0.9603(19)
H5 H 0.1100 0.6830 0.9766
C13 C 0.3258(14) 0.8043(18) 0.9126(19)
H7 H 0.3808 0.8352 0.8964
C14 C 0.2108(16) 0.7700(19) 0.8375(16)
H8 H 0.1871 0.7774 0.7698
O9 O 0.2167(16) 0.2256(16) 0.2307(17)
O10 O 0.3349(17) 0.4065(15) 0.3252(17)
C29 C 0.296(2) 0.3003(17) 0.242(2)
C30 C 0.3357(17) 0.2621(18) 0.1501(16)
C31 C 0.2928(15) 0.1463(16) 0.0599(18)
H17 H 0.2368 0.0904 0.0547
C34 C 0.4566(15) 0.3098(16) 0.0751(18)
H19 H 0.5126 0.3657 0.0803
C35 C 0.4176(17) 0.3439(13) 0.1577(16)
H20 H 0.4469 0.4230 0.2194
C36 C 0.9949(13) 0.315(3) 0.221(2)
C37 C 0.8697(12) 0.2752(19) 0.1387(17)
C38 C 0.8350(14) 0.2861(18) 0.0397(19)
H21 H 0.8900 0.3170 0.0234
C41 C 0.6742(14) 0.1957(18) 0.0874(19)
H23 H 0.6192 0.1648 0.1036
C42 C 0.7892(16) 0.2300(19) 0.1625(16)
H24 H 0.8129 0.2226 0.2302
O17 O 0.9790(16) 0.7050(18) 0.6949(17)
O19 O 0.9328(16) 0.6371(18) 0.797(2)
O22 O 0.4401(18) 0.3710(18) 0.5321(18)
O24 O 0.2665(18) 0.3402(18) 0.5103(18)
O26 O 0.4080(16) 0.5885(16) 0.5710(18)
O28 O 0.2269(17) 0.5516(19) 0.4805(18)
Si2 Si 0.4792(8) 0.1506(8) 0.8829(8)
C32 C 0.3318(17) 0.1123(13) 0.9772(16)
H18 H 0.3025 0.0331 0.9155
C33 C 0.4137(17) 0.1940(18) 0.9848(16)
C39 C 0.7199(16) 0.2518(19) 0.9645(16)
H22 H 0.6963 0.2593 0.8969
C40 C 0.6395(12) 0.2066(19) 0.9884(17)
C43 C 0.360(3) 0.339(3) 0.552(2)
C44 C 0.3944(17) 0.2995(17) 0.6385(16)
C45 C 0.3495(16) 0.3160(17) 0.7157(17)
H25 H 0.3001 0.3555 0.7168
C46 C 0.3769(18) 0.2748(18) 0.7911(16)
H26 H 0.3462 0.2861 0.8439
C47 C 0.4492(18) 0.2171(18) 0.7894(17)
C48 C 0.4941(17) 0.2006(18) 0.7123(19)
H27 H 0.5436 0.1611 0.7111
C49 C 0.4667(17) 0.2418(18) 0.6368(17)
H28 H 0.4974 0.2305 0.5841
C50 C 0.3291(18) 0.6251(14) 0.553(2)
C51 C 0.3597(17) 0.7530(12) 0.6276(17)
C52 C 0.4746(15) 0.8231(16) 0.7078(18)
H29 H 0.5295 0.7902 0.7114
C53 C 0.5092(13) 0.9414(16) 0.7829(16)
H30 H 0.5878 0.9893 0.8377
C54 C 0.4289(17) 0.9895(12) 0.7777(17)
C55 C 0.3139(15) 0.9194(16) 0.6974(18)
H31 H 0.2590 0.9523 0.6939
C56 C 0.2793(13) 0.8012(15) 0.6224(16)
H32 H 0.2008 0.7532 0.5676
Mn14 Mn -0.0000 0.0000 0.5000
H41 H 0.0103 0.0547 0.1379
H42 H 0.0450 0.1061 0.2766
O32 O 0.072(2) 0.020(2) 0.671(2)
O33 O 0.156(2) 0.002(2) 0.494(2)
O34 O 0.048(2) 0.183(2) 0.594(2)
C66 C 0.035(3) 0.242(3) 0.548(3)
H54 H 0.0124 0.2098 0.4645
C67 C 0.048(3) 0.436(3) 0.580(4)
H55 H 0.0287 0.3930 0.4944
H57 H 0.1216 0.5020 0.6266
C68 C 0.097(3) 0.412(3) 0.753(2)
H58 H 0.0974 0.3514 0.7711
H59 H 0.1736 0.4716 0.8002
H60 H 0.0456 0.4457 0.7754
C69 C 0.072(4) 0.100(3) 0.761(3)
H61 H 0.0992 0.1776 0.7832
C71 C 0.026(4) 0.158(3) 0.928(3)
H66 H 0.1029 0.2187 0.9860
C72 C 0.193(4) 0.047(3) 0.447(4)
H68 H 0.1836 0.1137 0.4500
C73 C 0.297(4) 0.033(4) 0.327(4)
H70 H 0.2346 0.0144 0.2521
H71 H 0.3398 0.1164 0.3813
N4 N 0.056(3) 0.362(2) 0.625(2)
N5 N 0.027(3) 0.067(2) 0.827(3)
Mn14_2 Mn -0.0000 1.0000 0.5000
H35 H 0.0108 0.5360 0.4133
H44 H 0.0006 0.8737 0.0317
H46 H 0.0255 0.8084 0.1011
C70 C 0.013(4) 0.954(3) 0.807(4)
H64 H 0.0857 0.9451 0.8230
H69 H 0.3480 0.9961 0.3092
C74 C 0.280(4) 0.899(3) 0.399(4)
H72 H 0.2431 0.8772 0.4387
H73 H 0.2549 0.8322 0.3195
H74 H 0.3631 0.9286 0.4491
N6 N 0.251(3) 0.989(3) 0.386(3)
Mn14_3 Mn 1.0000 0.0000 0.5000
C61 C 0.987(4) 0.046(3) 0.193(4)
H43 H 0.9143 0.0549 0.1770
H48 H 0.6520 0.0039 0.6908
C65 C 0.720(4) 0.101(3) 0.601(4)
H51 H 0.7569 0.1228 0.5613
H52 H 0.7451 0.1678 0.6805
H53 H 0.6369 0.0714 0.5509
N3 N 0.749(3) 0.011(3) 0.614(3)
H56 H 0.9892 0.4640 0.5867
H65 H 0.9994 0.1263 0.9683
H67 H 0.9745 0.1916 0.8989
Mn14_4 Mn 1.0000 1.0000 0.5000
O29 O 0.928(2) 0.980(2) 0.329(2)
O30 O 0.844(2) 0.998(2) 0.506(2)
O31 O 0.952(2) 0.817(2) 0.406(2)
C57 C 0.965(3) 0.758(3) 0.452(3)
H33 H 0.9876 0.7902 0.5355
C58 C 0.952(3) 0.564(3) 0.420(4)
H34 H 0.9713 0.6070 0.5056
H36 H 0.8784 0.4980 0.3734
C59 C 0.903(3) 0.588(3) 0.247(2)
H37 H 0.9026 0.6486 0.2289
H38 H 0.8264 0.5284 0.1998
H39 H 0.9544 0.5543 0.2246
C60 C 0.928(4) 0.900(3) 0.239(3)
H40 H 0.9008 0.8224 0.2168
C62 C 0.974(4) 0.842(3) 0.072(3)
H45 H 0.8971 0.7813 0.0140
C63 C 0.807(4) 0.953(3) 0.553(4)
H47 H 0.8164 0.8863 0.5500
C64 C 0.703(4) 0.967(4) 0.673(4)
H49 H 0.7654 0.9856 0.7479
H50 H 0.6602 0.8836 0.6187
N1 N 0.944(3) 0.638(2) 0.375(2)
N2 N 0.973(3) 0.933(2) 0.173(3)
H62 H 0.9897 0.9453 0.8621
H63 H 0.9550 0.8939 0.7234
loop_
_geom_bond_atom_site_label_1
_geom_bond_atom_site_label_2
_geom_bond_site_symmetry_1
_geom_bond_site_symmetry_2
Mn9 O11 1_555 1_555
O12 Mn9 1_555 1_555
O7 C22 1_555 1_555
O8 C22 1_555 1_555
C22 C23 1_555 1_555
C23 C24 1_555 1_555
C24 H13 1_555 1_555
C25 C24 1_555 1_555
H14 C25 1_555 1_555
C27 C26 1_555 1_555
H15 C27 1_555 1_555
C28 C23 1_555 1_555
H16 C28 1_555 1_555
Mn6 O8 1_555 1_555
Mn13 O7 1_555 1_555
C25 C26 1_555 1_555
C27 C28 1_555 1_555
Si1 C5 1_555 1_555
O5 C15 1_555 1_555
O6 C15 1_555 1_555
H2 C4 1_555 1_555
C5 C4 1_555 1_555
H6 C11 1_555 1_555
C12 Si1 1_555 1_555
C15 C16 1_555 1_555
C16 C17 1_555 1_555
C17 H9 1_555 1_555
C18 C17 1_555 1_555
H10 C18 1_555 1_555
C19 Si1 1_555 1_555
C20 C19 1_555 1_555
H11 C20 1_555 1_555
C21 C16 1_555 1_555
H12 C21 1_555 1_555
Mn6 O6 1_555 1_555
Mn13 O5 1_555 1_555
C11 C12 1_555 1_555
C18 C19 1_555 1_555
C20 C21 1_555 1_555
Mn6 O1 1_555 1_555
Mn13 O2 1_555 1_555
O1 C1 1_555 1_555
O2 Mn6 1_555 1_555
C1 O2 1_555 1_555
C2 C1 1_555 1_555
C3 C2 1_555 1_555
H1 C3 1_555 1_555
H3 C6 1_555 1_555
C7 C2 1_555 1_555
H4 C7 1_555 1_555
C8 C9 1_555 1_555
C9 C10 1_555 1_555
C10 H5 1_555 1_555
H7 C13 1_555 1_555
C14 C9 1_555 1_555
H8 C14 1_555 1_555
Mn9 O9 1_555 1_555
O9 C29 1_555 1_555
O10 Mn13 1_555 1_555
C29 O10 1_555 1_555
C30 C29 1_555 1_555
C31 C30 1_555 1_555
H17 C31 1_555 1_555
H19 C34 1_555 1_555
C35 C30 1_555 1_555
H20 C35 1_555 1_555
C36 C37 1_555 1_555
C37 C38 1_555 1_555
C38 H21 1_555 1_555
H23 C41 1_555 1_555
C42 C37 1_555 1_555
H24 C42 1_555 1_555
O17 Mn6 1_555 1_555
O19 Mn6 1_555 1_555
O22 Mn13 1_555 1_555
O24 Mn9 1_555 1_555
O26 Mn13 1_555 1_555
O28 Mn9 1_555 1_555
C6 C7 1_555 1_555
C13 C14 1_555 1_555
Mn9 O10 1_555 1_555
C34 C35 1_555 1_555
C41 C42 1_555 1_555
Si2 C33 1_555 1_555
O22 C43 1_555 1_555
O24 C43 1_555 1_555
H18 C32 1_555 1_555
C33 C32 1_555 1_555
H22 C39 1_555 1_555
C40 Si2 1_555 1_555
C43 C44 1_555 1_555
C44 C45 1_555 1_555
C45 H25 1_555 1_555
C46 C45 1_555 1_555
H26 C46 1_555 1_555
C47 Si2 1_555 1_555
C48 C47 1_555 1_555
H27 C48 1_555 1_555
C49 C44 1_555 1_555
H28 C49 1_555 1_555
C39 C40 1_555 1_555
C46 C47 1_555 1_555
C48 C49 1_555 1_555
O26 C50 1_555 1_555
O28 C50 1_555 1_555
C50 C51 1_555 1_555
C51 C52 1_555 1_555
C52 H29 1_555 1_555
C53 C52 1_555 1_555
H30 C53 1_555 1_555
C55 C54 1_555 1_555
H31 C55 1_555 1_555
C56 C51 1_555 1_555
H32 C56 1_555 1_555
C53 C54 1_555 1_555
C55 C56 1_555 1_555
O32 Mn14 1_555 1_555
O33 Mn14 1_555 1_555
O34 Mn14 1_555 1_555
C66 O34 1_555 1_555
H54 C66 1_555 1_555
C67 H55 1_555 1_555
H57 C67 1_555 1_555
C68 H58 1_555 1_555
H59 C68 1_555 1_555
H60 C68 1_555 1_555
C69 O32 1_555 1_555
H61 C69 1_555 1_555
H66 C71 1_555 1_555
C72 O33 1_555 1_555
H68 C72 1_555 1_555
H70 C73 1_555 1_555
H71 C73 1_555 1_555
N4 C66 1_555 1_555
N5 C69 1_555 1_555
C67 N4 1_555 1_555
C68 N4 1_555 1_555
C71 N5 1_555 1_555
H64 C70 1_555 1_555
C74 H72 1_555 1_555
H73 C74 1_555 1_555
H74 C74 1_555 1_555
C74 N6 1_555 1_555
H43 C61 1_555 1_555
C65 H51 1_555 1_555
H52 C65 1_555 1_555
H53 C65 1_555 1_555
C65 N3 1_555 1_555
Mn14_4 O29 1_555 1_555
O29 C60 1_555 1_555
O30 Mn14_4 1_555 1_555
O31 Mn14_4 1_555 1_555
C57 O31 1_555 1_555
H33 C57 1_555 1_555
C58 H34 1_555 1_555
H36 C58 1_555 1_555
C59 H37 1_555 1_555
H38 C59 1_555 1_555
H39 C59 1_555 1_555
C60 H40 1_555 1_555
H45 C62 1_555 1_555
C63 O30 1_555 1_555
H47 C63 1_555 1_555
H49 C64 1_555 1_555
H50 C64 1_555 1_555
N1 C57 1_555 1_555
N2 C60 1_555 1_555
C58 N1 1_555 1_555
C59 N1 1_555 1_555
C62 N2 1_555 1_555

#END
