
###############################################################################
#
# This file contains modified crystal structure data generated from the
# MOF subset of the Cambridge Structural Database (CSD) v543 
# hosted by the Cambridge Crystallographic Data Centre (CCDC).
#
# This work is licensed under the Creative Commons
# Attribution-NonCommercial-ShareAlike 4.0 International License.
# To view a copy of this license, visit
# http://creativecommons.org/licenses/by-nc-sa/4.0/
# or send a letter to
# Creative Commons, PO Box 1866, Mountain View, CA 94042, USA.
#
# CIF created using the CSD Python API on 29 September 2022
# The structure has been converted into the P1 space group
# The structure has a 3D framework
# The original CSD entry IREGOD is in the monoclinic crystal system
# The framework has been calculated to contain at least 10.0% void space
# The void calculation uses a probe of radius 1.32A, grid spacing 0.4
# The framework is charged, counterions have been retained in the structure
# H atom positions have been added when not included in the experimental data
#
###############################################################################

data_IREGOD
_chemical_formula_moiety         '(C172 H168 Mn22 N8 O116 4-)n'
_symmetry_cell_setting           triclinic
_symmetry_space_group_name_H-M   'P 1'
_symmetry_Int_Tables_number      1
_space_group_name_Hall           'P 1'
loop_
_symmetry_equiv_pos_site_id
_symmetry_equiv_pos_as_xyz
1 x,y,z
_cell_length_a                   24.544(5)
_cell_length_b                   15.455(3)
_cell_length_c                   19.431(7)
_cell_angle_alpha                90
_cell_angle_beta                 117.551(3)
_cell_angle_gamma                90
_cell_volume                     6534.87
loop_
_atom_site_label
_atom_site_type_symbol
_atom_site_fract_x
_atom_site_fract_y
_atom_site_fract_z
N1 N 0.3055(4) 0.1019(6) 0.0968(5)
H1 H 0.3122 0.0563 0.0729
H2 H 0.2668 0.1201 0.0664
C1 C 0.3092(7) 0.0700(9) 0.1738(9)
H3 H 0.2781 0.0270 0.1634
H4 H 0.3028 0.1178 0.2007
H5 H 0.3490 0.0452 0.2053
C2 C 0.3474(7) 0.1712(10) 0.1007(9)
H6 H 0.3406 0.1854 0.0492
H7 H 0.3891 0.1524 0.1311
H8 H 0.3401 0.2214 0.1244
N1_2 N 0.6945(4) 0.1019(6) 0.4032(5)
H1_2 H 0.6878 0.0563 0.4271
H2_2 H 0.7332 0.1201 0.4336
C1_2 C 0.6908(7) 0.0700(9) 0.3262(9)
H3_2 H 0.7219 0.0270 0.3366
H4_2 H 0.6972 0.1178 0.2993
H5_2 H 0.6510 0.0452 0.2947
C2_2 C 0.6526(7) 0.1712(10) 0.3993(9)
H6_2 H 0.6594 0.1854 0.4508
H7_2 H 0.6109 0.1524 0.3689
H8_2 H 0.6599 0.2214 0.3756
N1_3 N 0.8055(4) 0.6019(6) 0.0968(5)
H1_3 H 0.8122 0.5563 0.0729
H2_3 H 0.7668 0.6201 0.0664
C1_3 C 0.8092(7) 0.5700(9) 0.1738(9)
H3_3 H 0.7781 0.5270 0.1634
H4_3 H 0.8028 0.6178 0.2007
H5_3 H 0.8490 0.5452 0.2053
C2_3 C 0.8474(7) 0.6712(10) 0.1007(9)
H6_3 H 0.8406 0.6854 0.0492
H7_3 H 0.8891 0.6524 0.1311
H8_3 H 0.8401 0.7214 0.1244
N1_4 N 0.1945(4) 0.6019(6) 0.4032(5)
H1_4 H 0.1878 0.5563 0.4271
H2_4 H 0.2332 0.6201 0.4336
C1_4 C 0.1908(7) 0.5700(9) 0.3262(9)
H3_4 H 0.2219 0.5270 0.3366
H4_4 H 0.1972 0.6178 0.2993
H5_4 H 0.1510 0.5452 0.2947
C2_4 C 0.1526(7) 0.6712(10) 0.3993(9)
H6_4 H 0.1594 0.6854 0.4508
H7_4 H 0.1109 0.6524 0.3689
H8_4 H 0.1599 0.7214 0.3756
N1_5 N 0.6945(4) 0.8981(6) 0.9032(5)
H1_5 H 0.6878 0.9437 0.9271
H2_5 H 0.7332 0.8799 0.9336
C1_5 C 0.6908(7) 0.9300(9) 0.8262(9)
H3_5 H 0.7219 0.9730 0.8366
H4_5 H 0.6972 0.8822 0.7993
H5_5 H 0.6510 0.9548 0.7947
C2_5 C 0.6526(7) 0.8288(10) 0.8993(9)
H6_5 H 0.6594 0.8146 0.9508
H7_5 H 0.6109 0.8476 0.8689
H8_5 H 0.6599 0.7786 0.8756
N1_6 N 0.3055(4) 0.8981(6) 0.5968(5)
H1_6 H 0.3122 0.9437 0.5729
H2_6 H 0.2668 0.8799 0.5664
C1_6 C 0.3092(7) 0.9300(9) 0.6738(9)
H3_6 H 0.2781 0.9730 0.6634
H4_6 H 0.3028 0.8822 0.7007
H5_6 H 0.3490 0.9548 0.7053
C2_6 C 0.3474(7) 0.8288(10) 0.6007(9)
H6_6 H 0.3406 0.8146 0.5492
H7_6 H 0.3891 0.8476 0.6311
H8_6 H 0.3401 0.7786 0.6244
N1_7 N 0.1945(4) 0.3981(6) 0.9032(5)
H1_7 H 0.1878 0.4437 0.9271
H2_7 H 0.2332 0.3799 0.9336
C1_7 C 0.1908(7) 0.4300(9) 0.8262(9)
H3_7 H 0.2219 0.4730 0.8366
H4_7 H 0.1972 0.3822 0.7993
H5_7 H 0.1510 0.4548 0.7947
C2_7 C 0.1526(7) 0.3288(10) 0.8993(9)
H6_7 H 0.1594 0.3146 0.9508
H7_7 H 0.1109 0.3476 0.8689
H8_7 H 0.1599 0.2786 0.8756
N1_8 N 0.8055(4) 0.3981(6) 0.5968(5)
H1_8 H 0.8122 0.4437 0.5729
H2_8 H 0.7668 0.3799 0.5664
C1_8 C 0.8092(7) 0.4300(9) 0.6738(9)
H3_8 H 0.7781 0.4730 0.6634
H4_8 H 0.8028 0.3822 0.7007
H5_8 H 0.8490 0.4548 0.7053
C2_8 C 0.8474(7) 0.3288(10) 0.6007(9)
H6_8 H 0.8406 0.3146 0.5492
H7_8 H 0.8891 0.3476 0.6311
H8_8 H 0.8401 0.2786 0.6244
O20 O 0.1758(2) 0.1058(3) 0.0104(3)
Mn9 Mn 0.13868(4) 0.16136(6) 0.07861(6)
O19 O 0.2930(3) 0.2394(3) 0.8925(3)
O24 O 0.2962(2) 0.1805(3) 0.7904(3)
C26 C 0.2246(3) 0.0403(4) 0.7931(4)
C28 C 0.1779(3) 0.0478(4) 0.8990(4)
C29 C 0.2394(3) 0.1101(4) 0.8456(4)
H24 H 0.2393 0.0393 0.7568
C31 C 0.1513(4) 0.0503(5) 0.9553(5)
C32 C 0.2173(3) 0.1105(4) 0.8975(4)
C33 C 0.2790(3) 0.1827(4) 0.8426(4)
O29 O 0.1056(4) 0.0061(5) 0.9418(5)
H25 H 0.2292 0.1549 0.9338
Mn6 Mn 0.36132(4) 0.33864(6) 0.92139(6)
Mn12 Mn 0.38032(4) 0.20501(6) 0.78541(6)
O5 O 0.0712(2) 0.2459(3) 0.0967(3)
C22 C 0.0492(3) 0.2751(4) 0.0268(4)
Mn14 Mn 0.11968(4) 0.29499(6) 0.21459(6)
Mn17 Mn 0.0000 0.43198(9) 0.2500
O6 O 0.0696(3) 0.2473(4) 0.9824(3)
Mn3 Mn -0.0000 0.56802(9) 0.7500
C8 C -0.0000 0.7402(6) 0.7500
C12 C -0.0000 0.8364(8) 0.7500
H17 H 0.0057 0.3754 0.9030
O16 O 0.0349(2) 0.6997(3) 0.7298(3)
Mn4 Mn 0.13868(4) 0.83864(6) 0.57861(6)
O17 O 0.1823(2) 0.9032(3) 0.6848(3)
O18 O 0.0666(3) 0.9387(4) 0.5400(4)
C23 C 0.1691(3) 0.8988(4) 0.7402(4)
H19 H 0.0690 0.9795 0.5705
H20 H 0.0364 0.9363 0.4946
Mn5 Mn 0.11968(4) 0.70501(6) 0.71459(6)
O23 O 0.1427(3) 0.8375(3) 0.7523(3)
C24 C 0.1879(3) 0.9731(4) 0.7957(4)
O25 O 0.0996(2) 0.5738(3) 0.6732(3)
O26 O 0.1650(2) 0.6659(4) 0.8367(3)
C25 C 0.1629(4) 0.9770(5) 0.8476(4)
C27 C 0.0658(3) 0.5087(4) 0.6602(4)
H21 H 0.1440 0.6584 0.8609
H22 H 0.2037 0.6585 0.8601
H23 H 0.1368 0.9336 0.8480
O27 O 0.0389(2) 0.4866(3) 0.6980(3)
C30 C 0.0567(3) 0.4522(4) 0.5927(4)
O28 O 0.0836(2) 0.4238(3) 0.3651(3)
C34 C 0.0896(3) 0.4703(4) 0.5497(4)
C35 C 0.0147(3) 0.3884(4) 0.5681(4)
H26 H 0.1198 0.5129 0.5669
C36 C 0.0768(3) 0.4248(4) 0.4834(4)
C37 C 0.0006(3) 0.3406(4) 0.5007(4)
C38 C 0.0307(3) 0.3603(4) 0.4584(4)
C39 C 0.1072(3) 0.4463(5) 0.4360(4)
H28 H 0.0206 0.3308 0.4123
O30 O 0.1590(3) 0.4834(5) 0.4706(3)
O31 O 0.2070(3) 0.7394(3) 0.6075(3)
O33 O 0.1758(2) 0.8942(3) 0.5104(3)
O36 O 0.0712(2) 0.7541(3) 0.5967(3)
O38 O 0.0696(3) 0.7527(4) 0.4824(3)
O39 O 0.2038(2) 0.6805(3) 0.7096(3)
O41 O 0.0836(2) 0.5762(3) 0.8651(3)
H29 H 0.0130707 0.859888 0.808408
H30 H 0.0327265 0.859888 0.731058
O3 O 0.7070(3) 0.2394(3) 0.6075(3)
O4 O 0.8242(2) 0.1058(3) 0.4896(3)
O8 O 0.7038(2) 0.1805(3) 0.7096(3)
C6 C 0.7754(3) 0.0403(4) 0.7069(4)
C9 C 0.8221(3) 0.0478(4) 0.6010(4)
C10 C 0.7606(3) 0.1101(4) 0.6544(4)
H14 H 0.7607 0.0393 0.7432
C13 C 0.8487(4) 0.0503(5) 0.5447(5)
C14 C 0.7827(3) 0.1105(4) 0.6025(4)
C15 C 0.7210(3) 0.1827(4) 0.6574(4)
O14 O 0.8944(4) 0.0061(5) 0.5582(5)
H15 H 0.7708 0.1549 0.5662
Mn7 Mn 0.63868(4) 0.33864(6) 0.57861(6)
Mn11 Mn 0.86132(4) 0.16136(6) 0.42139(6)
Mn13 Mn 0.61968(4) 0.20501(6) 0.71459(6)
H10 H 0.9636 0.9363 0.0054
O13 O 0.9164(2) 0.4238(3) 0.1349(3)
C18 C 0.9232(3) 0.4248(4) 0.0166(4)
C20 C 0.9693(3) 0.3603(4) 0.0416(4)
C21 C 0.8928(3) 0.4463(5) 0.0640(4)
H18 H 0.9794 0.3308 0.0877
O15 O 0.8410(3) 0.4834(5) 0.0294(3)
O37 O 0.9304(3) 0.7527(4) 0.0176(3)
Mn17_2 Mn 1.0000 0.43198(9) 0.2500
Mn1 Mn 0.86132(4) 0.83864(6) 0.92139(6)
O1 O 0.8177(2) 0.9032(3) 0.8152(3)
O2 O 0.9334(3) 0.9387(4) 0.9600(4)
C3 C 0.8309(3) 0.8988(4) 0.7598(4)
H9 H 0.9310 0.9795 0.9295
Mn2 Mn 0.88032(4) 0.70501(6) 0.78541(6)
O7 O 0.8573(3) 0.8375(3) 0.7477(3)
C4 C 0.8121(3) 0.9731(4) 0.7043(4)
O9 O 0.9004(2) 0.5738(3) 0.8268(3)
O10 O 0.9651(2) 0.6997(3) 0.7702(3)
O11 O 0.8350(2) 0.6659(4) 0.6633(3)
C5 C 0.8371(4) 0.9770(5) 0.6524(4)
C7 C 0.9342(3) 0.5087(4) 0.8398(4)
Mn3_2 Mn 1.0000 0.56802(9) 0.7500
C8_2 C 1.0000 0.7402(6) 0.7500
H11 H 0.8560 0.6584 0.6391
H12 H 0.7963 0.6585 0.6399
H13 H 0.8632 0.9336 0.6520
O12 O 0.9611(2) 0.4866(3) 0.8020(3)
C11 C 0.9433(3) 0.4522(4) 0.9073(4)
C12_2 C 1.0000 0.8364(8) 0.7500
C16 C 0.9104(3) 0.4703(4) 0.9503(4)
C17 C 0.9853(3) 0.3884(4) 0.9319(4)
H16 H 0.8802 0.5129 0.9331
C19 C 0.9994(3) 0.3406(4) 0.9993(4)
O21 O 0.9288(2) 0.2459(3) 0.4033(3)
O22 O 0.9304(3) 0.2473(4) 0.5176(3)
H27 H 0.9943 0.3754 0.5970
C40 C 0.9508(3) 0.2751(4) 0.4732(4)
O32 O 0.7930(3) 0.7394(3) 0.8925(3)
O34 O 0.8242(2) 0.8942(3) 0.9896(3)
O35 O 0.9288(2) 0.7541(3) 0.9033(3)
Mn15 Mn 0.88032(4) 0.29499(6) 0.28541(6)
O40 O 0.7962(2) 0.6805(3) 0.7904(3)
O42 O 0.9164(2) 0.5762(3) 0.6349(3)
H31 H 0.954203 0.859888 0.710534
H31_2 H 0.0457972 0.859888 0.789466
H29_2 H 0.986929 0.859888 0.691592
H30_2 H 0.967274 0.859888 0.768942
H10_2 H 0.4636 0.4363 0.0054
O20_2 O 0.6758(2) 0.6058(3) 0.0104(3)
Mn9_2 Mn 0.63868(4) 0.66136(6) 0.07861(6)
O37_2 O 0.4304(3) 0.2527(4) 0.0176(3)
O1_2 O 0.3177(2) 0.4032(3) 0.8152(3)
O2_2 O 0.4334(3) 0.4387(4) 0.9600(4)
O4_2 O 0.3242(2) 0.6058(3) 0.4896(3)
C3_2 C 0.3309(3) 0.3988(4) 0.7598(4)
H9_2 H 0.4310 0.4795 0.9295
O7_2 O 0.3573(3) 0.3375(3) 0.7477(3)
C4_2 C 0.3121(3) 0.4731(4) 0.7043(4)
O9_2 O 0.4004(2) 0.0738(3) 0.8268(3)
O10_2 O 0.4651(2) 0.1997(3) 0.7702(3)
O11_2 O 0.3350(2) 0.1659(4) 0.6633(3)
C5_2 C 0.3371(4) 0.4770(5) 0.6524(4)
C6_2 C 0.2754(3) 0.5403(4) 0.7069(4)
C7_2 C 0.4342(3) 0.0087(4) 0.8398(4)
Mn3_3 Mn 0.5000 0.06802(9) 0.7500
C8_3 C 0.5000 0.2402(6) 0.7500
H11_2 H 0.3560 0.1584 0.6391
H12_2 H 0.2963 0.1585 0.6399
H13_2 H 0.3632 0.4336 0.6520
C9_2 C 0.3221(3) 0.5478(4) 0.6010(4)
C10_2 C 0.2606(3) 0.6101(4) 0.6544(4)
H14_2 H 0.2607 0.5393 0.7432
C12_3 C 0.5000 0.3364(8) 0.7500
C13_2 C 0.3487(4) 0.5503(5) 0.5447(5)
C14_2 C 0.2827(3) 0.6105(4) 0.6025(4)
C15_2 C 0.2210(3) 0.6827(4) 0.6574(4)
O14_2 O 0.3944(4) 0.5061(5) 0.5582(5)
H15_2 H 0.2708 0.6549 0.5662
H16_2 H 0.3802 0.0129 0.9331
O16_2 O 0.5349(2) 0.1997(3) 0.7298(3)
O17_2 O 0.6823(2) 0.4032(3) 0.6848(3)
O18_2 O 0.5666(3) 0.4387(4) 0.5400(4)
C23_2 C 0.6691(3) 0.3988(4) 0.7402(4)
H19_2 H 0.5690 0.4795 0.5705
H20_2 H 0.5364 0.4363 0.4946
O23_2 O 0.6427(3) 0.3375(3) 0.7523(3)
C24_2 C 0.6879(3) 0.4731(4) 0.7957(4)
O25_2 O 0.5996(2) 0.0738(3) 0.6732(3)
O26_2 O 0.6650(2) 0.1659(4) 0.8367(3)
C25_2 C 0.6629(4) 0.4770(5) 0.8476(4)
C26_2 C 0.7246(3) 0.5403(4) 0.7931(4)
C27_2 C 0.5658(3) 0.0087(4) 0.6602(4)
H21_2 H 0.6440 0.1584 0.8609
H22_2 H 0.7037 0.1585 0.8601
H23_2 H 0.6368 0.4336 0.8480
C28_2 C 0.6779(3) 0.5478(4) 0.8990(4)
C29_2 C 0.7394(3) 0.6101(4) 0.8456(4)
H24_2 H 0.7393 0.5393 0.7568
C31_2 C 0.6513(4) 0.5503(5) 0.9553(5)
C32_2 C 0.7173(3) 0.6105(4) 0.8975(4)
C33_2 C 0.7790(3) 0.6827(4) 0.8426(4)
O29_2 O 0.6056(4) 0.5061(5) 0.9418(5)
H25_2 H 0.7292 0.6549 0.9338
H26_2 H 0.6198 0.0129 0.5669
Mn11_2 Mn 0.36132(4) 0.66136(6) 0.42139(6)
O33_2 O 0.6758(2) 0.3942(3) 0.5104(3)
O34_2 O 0.3242(2) 0.3942(3) 0.9896(3)
O35_2 O 0.4288(2) 0.2541(3) 0.9033(3)
O36_2 O 0.5712(2) 0.2541(3) 0.5967(3)
O38_2 O 0.5696(3) 0.2527(4) 0.4824(3)
O41_2 O 0.5836(2) 0.0762(3) 0.8651(3)
O42_2 O 0.4164(2) 0.0762(3) 0.6349(3)
H29_3 H 0.513071 0.359888 0.808408
H30_3 H 0.532726 0.359888 0.731058
H31_3 H 0.454203 0.359888 0.710534
O5_2 O 0.5712(2) 0.7459(3) 0.0967(3)
O13_2 O 0.4164(2) 0.9238(3) 0.1349(3)
C18_2 C 0.4232(3) 0.9248(4) 0.0166(4)
C20_2 C 0.4693(3) 0.8603(4) 0.0416(4)
C21_2 C 0.3928(3) 0.9463(5) 0.0640(4)
C22_2 C 0.5492(3) 0.7751(4) 0.0268(4)
H18_2 H 0.4794 0.8308 0.0877
O15_2 O 0.3410(3) 0.9834(5) 0.0294(3)
Mn14_2 Mn 0.61968(4) 0.79499(6) 0.21459(6)
Mn17_3 Mn 0.5000 0.93198(9) 0.2500
O6_2 O 0.5696(3) 0.7473(4) 0.9824(3)
O12_2 O 0.4611(2) 0.9866(3) 0.8020(3)
C11_2 C 0.4433(3) 0.9522(4) 0.9073(4)
C16_2 C 0.4104(3) 0.9703(4) 0.9503(4)
C17_2 C 0.4853(3) 0.8884(4) 0.9319(4)
H17_2 H 0.5057 0.8754 0.9030
C19_2 C 0.4994(3) 0.8406(4) 0.9993(4)
O21_2 O 0.4288(2) 0.7459(3) 0.4033(3)
O22_2 O 0.4304(3) 0.7473(4) 0.5176(3)
O27_2 O 0.5389(2) 0.9866(3) 0.6980(3)
C30_2 C 0.5567(3) 0.9522(4) 0.5927(4)
O28_2 O 0.5836(2) 0.9238(3) 0.3651(3)
C34_2 C 0.5896(3) 0.9703(4) 0.5497(4)
C35_2 C 0.5147(3) 0.8884(4) 0.5681(4)
C36_2 C 0.5768(3) 0.9248(4) 0.4834(4)
H27_2 H 0.4943 0.8754 0.5970
C37_2 C 0.5006(3) 0.8406(4) 0.5007(4)
C38_2 C 0.5307(3) 0.8603(4) 0.4584(4)
C39_2 C 0.6072(3) 0.9463(5) 0.4360(4)
C40_2 C 0.4508(3) 0.7751(4) 0.4732(4)
H28_2 H 0.5206 0.8308 0.4123
O30_2 O 0.6590(3) 0.9834(5) 0.4706(3)
Mn15_2 Mn 0.38032(4) 0.79499(6) 0.28541(6)
H29_4 H 0.486929 0.359888 0.691592
H30_4 H 0.467274 0.359888 0.768942
H31_4 H 0.545797 0.359888 0.789466
O1_3 O 0.1823(2) 0.0968(3) 0.1848(3)
O2_3 O 0.0666(3) 0.0613(4) 0.0400(4)
C3_3 C 0.1691(3) 0.1012(4) 0.2402(4)
H9_3 H 0.0690 0.0205 0.0705
O7_3 O 0.1427(3) 0.1625(3) 0.2523(3)
C4_3 C 0.1879(3) 0.0269(4) 0.2957(4)
O9_3 O 0.0996(2) 0.4262(3) 0.1732(3)
O10_3 O 0.0349(2) 0.3003(3) 0.2298(3)
O11_3 O 0.1650(2) 0.3341(4) 0.3367(3)
C5_3 C 0.1629(4) 0.0230(5) 0.3476(4)
C7_3 C 0.0658(3) 0.4913(4) 0.1602(4)
C8_4 C -0.0000 0.2598(6) 0.2500
H11_3 H 0.1440 0.3416 0.3609
H12_3 H 0.2037 0.3415 0.3601
H13_3 H 0.1368 0.0664 0.3480
O12_3 O 0.0389(2) 0.5134(3) 0.1980(3)
C11_3 C 0.0567(3) 0.5478(4) 0.0927(4)
C12_4 C 0.0000 0.1636(8) 0.2500
C16_3 C 0.0896(3) 0.5297(4) 0.0497(4)
C17_3 C 0.0147(3) 0.6116(4) 0.0681(4)
H16_3 H 0.1198 0.4871 0.0669
C19_3 C 0.0006(3) 0.6594(4) 0.0007(4)
H27_3 H 0.0057 0.6246 0.4030
C40_3 C 0.0492(3) 0.7249(4) 0.5268(4)
O32_2 O 0.2070(3) 0.2606(3) 0.1075(3)
O40_2 O 0.2038(2) 0.3195(3) 0.2096(3)
H31_5 H 0.0457972 0.140112 0.289466
H10_3 H 0.0364 0.0637 0.9946
C18_3 C 0.0768(3) 0.5752(4) 0.9834(4)
C20_3 C 0.0307(3) 0.6397(4) 0.9584(4)
C21_3 C 0.1072(3) 0.5537(5) 0.9360(4)
H18_3 H 0.0206 0.6692 0.9123
O15_3 O 0.1590(3) 0.5166(5) 0.9706(3)
O3_2 O 0.2930(3) 0.7606(3) 0.3925(3)
O8_2 O 0.2962(2) 0.8195(3) 0.2904(3)
C6_3 C 0.2246(3) 0.9597(4) 0.2931(4)
C9_3 C 0.1779(3) 0.9522(4) 0.3990(4)
C10_3 C 0.2394(3) 0.8899(4) 0.3456(4)
H14_3 H 0.2393 0.9607 0.2568
C13_3 C 0.1513(4) 0.9497(5) 0.4553(5)
C14_3 C 0.2173(3) 0.8895(4) 0.3975(4)
C15_3 C 0.2790(3) 0.8173(4) 0.3426(4)
O14_3 O 0.1056(4) 0.9939(5) 0.4418(5)
H15_3 H 0.2292 0.8451 0.4338
C8_5 C 1.0000 0.2598(6) 0.2500
C12_5 C 1.0000 0.1636(8) 0.2500
H17_3 H 0.9943 0.6246 0.0970
O16_3 O 0.9651(2) 0.3003(3) 0.2702(3)
O17_3 O 0.8177(2) 0.0968(3) 0.3152(3)
O18_3 O 0.9334(3) 0.0613(4) 0.4600(4)
C23_3 C 0.8309(3) 0.1012(4) 0.2598(4)
H19_3 H 0.9310 0.0205 0.4295
H20_3 H 0.9636 0.0637 0.5054
O23_3 O 0.8573(3) 0.1625(3) 0.2477(3)
C24_3 C 0.8121(3) 0.0269(4) 0.2043(4)
O25_3 O 0.9004(2) 0.4262(3) 0.3268(3)
O26_3 O 0.8350(2) 0.3341(4) 0.1633(3)
C25_3 C 0.8371(4) 0.0230(5) 0.1524(4)
C27_3 C 0.9342(3) 0.4913(4) 0.3398(4)
H21_3 H 0.8560 0.3416 0.1391
H22_3 H 0.7963 0.3415 0.1399
H23_3 H 0.8632 0.0664 0.1520
O27_3 O 0.9611(2) 0.5134(3) 0.3020(3)
C30_3 C 0.9433(3) 0.5478(4) 0.4073(4)
C34_3 C 0.9104(3) 0.5297(4) 0.4503(4)
C35_3 C 0.9853(3) 0.6116(4) 0.4319(4)
H26_3 H 0.8802 0.4871 0.4331
C36_3 C 0.9232(3) 0.5752(4) 0.5166(4)
C37_3 C 0.9994(3) 0.6594(4) 0.4993(4)
C38_3 C 0.9693(3) 0.6397(4) 0.5416(4)
C39_3 C 0.8928(3) 0.5537(5) 0.5640(4)
H28_3 H 0.9794 0.6692 0.5877
O30_3 O 0.8410(3) 0.5166(5) 0.5294(3)
O31_2 O 0.7930(3) 0.2606(3) 0.3925(3)
O39_2 O 0.7962(2) 0.3195(3) 0.2904(3)
H29_5 H 0.986929 0.140112 0.191592
H30_5 H 0.967274 0.140112 0.268942
C22_3 C 0.9508(3) 0.7249(4) 0.9732(4)
O19_2 O 0.7070(3) 0.7606(3) 0.1075(3)
O24_2 O 0.7038(2) 0.8195(3) 0.2096(3)
C26_3 C 0.7754(3) 0.9597(4) 0.2069(4)
C28_3 C 0.8221(3) 0.9522(4) 0.1010(4)
C29_3 C 0.7606(3) 0.8899(4) 0.1544(4)
H24_3 H 0.7607 0.9607 0.2432
C31_3 C 0.8487(4) 0.9497(5) 0.0447(5)
C32_3 C 0.7827(3) 0.8895(4) 0.1025(4)
C33_3 C 0.7210(3) 0.8173(4) 0.1574(4)
O29_3 O 0.8944(4) 0.9939(5) 0.0582(5)
H25_3 H 0.7708 0.8451 0.0662
H29_6 H 0.0130707 0.140112 0.308408
H30_6 H 0.0327265 0.140112 0.231058
H31_6 H 0.954203 0.140112 0.210534
O12_4 O 0.5389(2) 0.0134(3) 0.1980(3)
C11_4 C 0.5567(3) 0.0478(4) 0.0927(4)
C16_4 C 0.5896(3) 0.0297(4) 0.0497(4)
C17_4 C 0.5147(3) 0.1116(4) 0.0681(4)
H17_4 H 0.4943 0.1246 0.0970
C19_4 C 0.5006(3) 0.1594(4) 0.0007(4)
O27_4 O 0.4611(2) 0.0134(3) 0.3020(3)
C30_4 C 0.4433(3) 0.0478(4) 0.4073(4)
C34_4 C 0.4104(3) 0.0297(4) 0.4503(4)
C35_4 C 0.4853(3) 0.1116(4) 0.4319(4)
C36_4 C 0.4232(3) 0.0752(4) 0.5166(4)
H27_4 H 0.5057 0.1246 0.4030
C37_4 C 0.4994(3) 0.1594(4) 0.4993(4)
C38_4 C 0.4693(3) 0.1397(4) 0.5416(4)
C39_4 C 0.3928(3) 0.0537(5) 0.5640(4)
C40_4 C 0.5492(3) 0.2249(4) 0.5268(4)
H28_4 H 0.4794 0.1692 0.5877
O30_4 O 0.3410(3) 0.0166(5) 0.5294(3)
C18_4 C 0.5768(3) 0.0752(4) 0.9834(4)
C20_4 C 0.5307(3) 0.1397(4) 0.9584(4)
C21_4 C 0.6072(3) 0.0537(5) 0.9360(4)
C22_4 C 0.4508(3) 0.2249(4) 0.9732(4)
H18_4 H 0.5206 0.1692 0.9123
O15_4 O 0.6590(3) 0.0166(5) 0.9706(3)
O1_4 O 0.6823(2) 0.5968(3) 0.1848(3)
O2_4 O 0.5666(3) 0.5613(4) 0.0400(4)
C3_4 C 0.6691(3) 0.6012(4) 0.2402(4)
H9_4 H 0.5690 0.5205 0.0705
O7_4 O 0.6427(3) 0.6625(3) 0.2523(3)
C4_4 C 0.6879(3) 0.5269(4) 0.2957(4)
O9_4 O 0.5996(2) 0.9262(3) 0.1732(3)
O10_4 O 0.5349(2) 0.8003(3) 0.2298(3)
O11_4 O 0.6650(2) 0.8341(4) 0.3367(3)
C5_4 C 0.6629(4) 0.5230(5) 0.3476(4)
C6_4 C 0.7246(3) 0.4597(4) 0.2931(4)
C7_4 C 0.5658(3) 0.9913(4) 0.1602(4)
C8_6 C 0.5000 0.7598(6) 0.2500
H11_4 H 0.6440 0.8416 0.3609
H12_4 H 0.7037 0.8415 0.3601
H13_4 H 0.6368 0.5664 0.3480
C9_4 C 0.6779(3) 0.4522(4) 0.3990(4)
C10_4 C 0.7394(3) 0.3899(4) 0.3456(4)
H14_4 H 0.7393 0.4607 0.2568
C12_6 C 0.5000 0.6636(8) 0.2500
C13_4 C 0.6513(4) 0.4497(5) 0.4553(5)
C14_4 C 0.7173(3) 0.3895(4) 0.3975(4)
C15_4 C 0.7790(3) 0.3173(4) 0.3426(4)
O14_4 O 0.6056(4) 0.4939(5) 0.4418(5)
H15_4 H 0.7292 0.3451 0.4338
H16_4 H 0.6198 0.9871 0.0669
O16_4 O 0.4651(2) 0.8003(3) 0.2702(3)
O17_4 O 0.3177(2) 0.5968(3) 0.3152(3)
O18_4 O 0.4334(3) 0.5613(4) 0.4600(4)
C23_4 C 0.3309(3) 0.6012(4) 0.2598(4)
H19_4 H 0.4310 0.5205 0.4295
H20_4 H 0.4636 0.5637 0.5054
O23_4 O 0.3573(3) 0.6625(3) 0.2477(3)
C24_4 C 0.3121(3) 0.5269(4) 0.2043(4)
O25_4 O 0.4004(2) 0.9262(3) 0.3268(3)
O26_4 O 0.3350(2) 0.8341(4) 0.1633(3)
C25_4 C 0.3371(4) 0.5230(5) 0.1524(4)
C26_4 C 0.2754(3) 0.4597(4) 0.2069(4)
C27_4 C 0.4342(3) 0.9913(4) 0.3398(4)
H21_4 H 0.3560 0.8416 0.1391
H22_4 H 0.2963 0.8415 0.1399
H23_4 H 0.3632 0.5664 0.1520
C28_4 C 0.3221(3) 0.4522(4) 0.1010(4)
C29_4 C 0.2606(3) 0.3899(4) 0.1544(4)
H24_4 H 0.2607 0.4607 0.2432
C31_4 C 0.3487(4) 0.4497(5) 0.0447(5)
C32_4 C 0.2827(3) 0.3895(4) 0.1025(4)
C33_4 C 0.2210(3) 0.3173(4) 0.1574(4)
O29_4 O 0.3944(4) 0.4939(5) 0.0582(5)
H25_4 H 0.2708 0.3451 0.0662
H26_4 H 0.3802 0.9871 0.4331
H29_7 H 0.486929 0.640112 0.191592
H30_7 H 0.467274 0.640112 0.268942
H31_7 H 0.545797 0.640112 0.289466
H10_4 H 0.5364 0.5637 0.9946
H29_8 H 0.513071 0.640112 0.308408
H30_8 H 0.532726 0.640112 0.231058
H31_8 H 0.454203 0.640112 0.210534
loop_
_geom_bond_atom_site_label_1
_geom_bond_atom_site_label_2
_geom_bond_site_symmetry_1
_geom_bond_site_symmetry_2
N1 H1 1_555 1_555
H2 N1 1_555 1_555
C1 N1 1_555 1_555
H3 C1 1_555 1_555
H4 C1 1_555 1_555
H5 C1 1_555 1_555
C2 N1 1_555 1_555
H6 C2 1_555 1_555
H7 C2 1_555 1_555
H8 C2 1_555 1_555
N1_2 H1_2 1_555 1_555
H2_2 N1_2 1_555 1_555
C1_2 N1_2 1_555 1_555
H3_2 C1_2 1_555 1_555
H4_2 C1_2 1_555 1_555
H5_2 C1_2 1_555 1_555
C2_2 N1_2 1_555 1_555
H6_2 C2_2 1_555 1_555
H7_2 C2_2 1_555 1_555
H8_2 C2_2 1_555 1_555
N1_3 H1_3 1_555 1_555
H2_3 N1_3 1_555 1_555
C1_3 N1_3 1_555 1_555
H3_3 C1_3 1_555 1_555
H4_3 C1_3 1_555 1_555
H5_3 C1_3 1_555 1_555
C2_3 N1_3 1_555 1_555
H6_3 C2_3 1_555 1_555
H7_3 C2_3 1_555 1_555
H8_3 C2_3 1_555 1_555
N1_4 H1_4 1_555 1_555
H2_4 N1_4 1_555 1_555
C1_4 N1_4 1_555 1_555
H3_4 C1_4 1_555 1_555
H4_4 C1_4 1_555 1_555
H5_4 C1_4 1_555 1_555
C2_4 N1_4 1_555 1_555
H6_4 C2_4 1_555 1_555
H7_4 C2_4 1_555 1_555
H8_4 C2_4 1_555 1_555
N1_5 H1_5 1_555 1_555
H2_5 N1_5 1_555 1_555
C1_5 N1_5 1_555 1_555
H3_5 C1_5 1_555 1_555
H4_5 C1_5 1_555 1_555
H5_5 C1_5 1_555 1_555
C2_5 N1_5 1_555 1_555
H6_5 C2_5 1_555 1_555
H7_5 C2_5 1_555 1_555
H8_5 C2_5 1_555 1_555
N1_6 H1_6 1_555 1_555
H2_6 N1_6 1_555 1_555
C1_6 N1_6 1_555 1_555
H3_6 C1_6 1_555 1_555
H4_6 C1_6 1_555 1_555
H5_6 C1_6 1_555 1_555
C2_6 N1_6 1_555 1_555
H6_6 C2_6 1_555 1_555
H7_6 C2_6 1_555 1_555
H8_6 C2_6 1_555 1_555
N1_7 H1_7 1_555 1_555
H2_7 N1_7 1_555 1_555
C1_7 N1_7 1_555 1_555
H3_7 C1_7 1_555 1_555
H4_7 C1_7 1_555 1_555
H5_7 C1_7 1_555 1_555
C2_7 N1_7 1_555 1_555
H6_7 C2_7 1_555 1_555
H7_7 C2_7 1_555 1_555
H8_7 C2_7 1_555 1_555
N1_8 H1_8 1_555 1_555
H2_8 N1_8 1_555 1_555
C1_8 N1_8 1_555 1_555
H3_8 C1_8 1_555 1_555
H4_8 C1_8 1_555 1_555
H5_8 C1_8 1_555 1_555
C2_8 N1_8 1_555 1_555
H6_8 C2_8 1_555 1_555
H7_8 C2_8 1_555 1_555
H8_8 C2_8 1_555 1_555
Mn9 O20 1_555 1_555
O19 C33 1_555 1_555
O24 C33 1_555 1_555
C29 C26 1_555 1_555
H24 C26 1_555 1_555
C31 C28 1_555 1_555
C32 C28 1_555 1_555
C33 C29 1_555 1_555
O29 C31 1_555 1_555
H25 C32 1_555 1_555
Mn6 O19 1_555 1_555
Mn12 O24 1_555 1_555
C29 C32 1_555 1_555
O5 C22 1_555 1_555
Mn9 O5 1_555 1_555
Mn14 O5 1_555 1_555
C12 C8 1_555 1_555
O16 Mn3 1_555 1_555
Mn4 O17 1_555 1_555
O17 C23 1_555 1_555
O18 Mn4 1_555 1_555
C23 O23 1_555 1_555
H19 O18 1_555 1_555
H20 O18 1_555 1_555
Mn5 O16 1_555 1_555
O23 Mn5 1_555 1_555
C24 C23 1_555 1_555
O25 Mn5 1_555 1_555
O26 Mn5 1_555 1_555
C25 C24 1_555 1_555
C27 O25 1_555 1_555
H21 O26 1_555 1_555
H22 O26 1_555 1_555
H23 C25 1_555 1_555
O27 Mn3 1_555 1_555
C30 C27 1_555 1_555
O28 C39 1_555 1_555
C34 C30 1_555 1_555
C35 C30 1_555 1_555
H26 C34 1_555 1_555
C36 C34 1_555 1_555
C37 C35 1_555 1_555
C38 C36 1_555 1_555
C39 C36 1_555 1_555
H28 C38 1_555 1_555
O30 C39 1_555 1_555
O31 Mn4 1_555 1_555
O33 Mn4 1_555 1_555
O36 Mn4 1_555 1_555
O38 Mn4 1_555 1_555
O39 Mn5 1_555 1_555
Mn17 O28 1_555 1_555
O41 Mn3 1_555 1_555
C8 O16 1_555 1_555
Mn5 O36 1_555 1_555
C27 O27 1_555 1_555
C37 C38 1_555 1_555
C12 H29 1_555 1_555
C12 H30 1_555 1_555
O3 C15 1_555 1_555
O4 C13 1_555 1_555
O8 C15 1_555 1_555
C10 C6 1_555 1_555
H14 C6 1_555 1_555
C13 C9 1_555 1_555
C14 C9 1_555 1_555
C15 C10 1_555 1_555
O14 C13 1_555 1_555
H15 C14 1_555 1_555
Mn7 O3 1_555 1_555
Mn11 O4 1_555 1_555
Mn13 O8 1_555 1_555
C10 C14 1_555 1_555
O13 C21 1_555 1_555
C20 C18 1_555 1_555
C21 C18 1_555 1_555
H18 C20 1_555 1_555
O15 C21 1_555 1_555
Mn17_2 O13 1_555 1_555
Mn1 O1 1_555 1_555
O1 C3 1_555 1_555
O2 Mn1 1_555 1_555
C3 O7 1_555 1_555
H9 O2 1_555 1_555
Mn2 O7 1_555 1_555
C4 C3 1_555 1_555
O9 Mn2 1_555 1_555
O10 Mn2 1_555 1_555
O11 Mn2 1_555 1_555
C5 C4 1_555 1_555
C7 O9 1_555 1_555
Mn3_2 O10 1_555 1_555
C8_2 O10 1_555 1_555
H11 O11 1_555 1_555
H12 O11 1_555 1_555
H13 C5 1_555 1_555
O12 C7 1_555 1_555
C11 C7 1_555 1_555
C12_2 C8_2 1_555 1_555
C16 C11 1_555 1_555
C17 C11 1_555 1_555
H16 C16 1_555 1_555
C19 C17 1_555 1_555
O21 C40 1_555 1_555
O22 C40 1_555 1_555
Mn11 O21 1_555 1_555
O32 Mn1 1_555 1_555
O34 Mn1 1_555 1_555
O35 Mn1 1_555 1_555
Mn15 O21 1_555 1_555
O40 Mn2 1_555 1_555
O42 Mn3_2 1_555 1_555
Mn2 O35 1_555 1_555
Mn3_2 O12 1_555 1_555
O22 Mn11 1_555 1_555
C12_2 H31 1_555 1_555
C12 H31_2 1_555 1_555
C12_2 H29_2 1_555 1_555
C12_2 H30_2 1_555 1_555
Mn9_2 O20_2 1_555 1_555
Mn6 O1_2 1_555 1_555
O1_2 C3_2 1_555 1_555
O2_2 Mn6 1_555 1_555
O31 C15_2 1_555 1_555
O4_2 C13_2 1_555 1_555
C3_2 O7_2 1_555 1_555
H9_2 O2_2 1_555 1_555
Mn12 O7_2 1_555 1_555
C4_2 C3_2 1_555 1_555
O39 C15_2 1_555 1_555
O9_2 Mn12 1_555 1_555
O10_2 Mn12 1_555 1_555
O11_2 Mn12 1_555 1_555
C5_2 C4_2 1_555 1_555
C6_2 C4_2 1_555 1_555
C7_2 O9_2 1_555 1_555
Mn3_3 O10_2 1_555 1_555
C8_3 O10_2 1_555 1_555
H11_2 O11_2 1_555 1_555
H12_2 O11_2 1_555 1_555
H13_2 C5_2 1_555 1_555
C9_2 C5_2 1_555 1_555
C10_2 C6_2 1_555 1_555
H14_2 C6_2 1_555 1_555
C12_3 C8_3 1_555 1_555
C13_2 C9_2 1_555 1_555
C14_2 C9_2 1_555 1_555
C15_2 C10_2 1_555 1_555
O14_2 C13_2 1_555 1_555
H15_2 C14_2 1_555 1_555
O16_2 Mn3_3 1_555 1_555
Mn7 O17_2 1_555 1_555
O17_2 C23_2 1_555 1_555
O18_2 Mn7 1_555 1_555
O32 C33_2 1_555 1_555
C23_2 O23_2 1_555 1_555
H19_2 O18_2 1_555 1_555
H20_2 O18_2 1_555 1_555
Mn13 O16_2 1_555 1_555
O23_2 Mn13 1_555 1_555
C24_2 C23_2 1_555 1_555
O40 C33_2 1_555 1_555
O25_2 Mn13 1_555 1_555
O26_2 Mn13 1_555 1_555
C25_2 C24_2 1_555 1_555
C26_2 C24_2 1_555 1_555
C27_2 O25_2 1_555 1_555
H21_2 O26_2 1_555 1_555
H22_2 O26_2 1_555 1_555
H23_2 C25_2 1_555 1_555
C28_2 C25_2 1_555 1_555
C29_2 C26_2 1_555 1_555
H24_2 C26_2 1_555 1_555
C31_2 C28_2 1_555 1_555
C32_2 C28_2 1_555 1_555
C33_2 C29_2 1_555 1_555
O29_2 C31_2 1_555 1_555
H25_2 C32_2 1_555 1_555
Mn11_2 O4_2 1_555 1_555
O33_2 Mn7 1_555 1_555
O34_2 Mn6 1_555 1_555
O35_2 Mn6 1_555 1_555
O36_2 Mn7 1_555 1_555
O38_2 Mn7 1_555 1_555
O41_2 Mn3_3 1_555 1_555
O42_2 Mn3_3 1_555 1_555
Mn12 O35_2 1_555 1_555
C8_3 O16_2 1_555 1_555
C10_2 C14_2 1_555 1_555
Mn13 O36_2 1_555 1_555
C29_2 C32_2 1_555 1_555
C12_3 H29_3 1_555 1_555
C12_3 H30_3 1_555 1_555
C12_3 H31_3 1_555 1_555
O5_2 C22_2 1_555 1_555
O13_2 C21_2 1_555 1_555
C20_2 C18_2 1_555 1_555
C21_2 C18_2 1_555 1_555
H18_2 C20_2 1_555 1_555
O15_2 C21_2 1_555 1_555
Mn9_2 O5_2 1_555 1_555
Mn14_2 O5_2 1_555 1_555
Mn17_3 O13_2 1_555 1_555
C16_2 C11_2 1_555 1_555
C17_2 C11_2 1_555 1_555
H17_2 C17_2 1_555 1_555
C19_2 C17_2 1_555 1_555
O21_2 C40_2 1_555 1_555
O22_2 C40_2 1_555 1_555
O28_2 C39_2 1_555 1_555
C34_2 C30_2 1_555 1_555
C35_2 C30_2 1_555 1_555
C36_2 C34_2 1_555 1_555
H27_2 C35_2 1_555 1_555
C37_2 C35_2 1_555 1_555
C38_2 C36_2 1_555 1_555
C39_2 C36_2 1_555 1_555
C40_2 C37_2 1_555 1_555
H28_2 C38_2 1_555 1_555
O30_2 C39_2 1_555 1_555
Mn11_2 O21_2 1_555 1_555
Mn15_2 O21_2 1_555 1_555
Mn17_3 O28_2 1_555 1_555
O22_2 Mn11_2 1_555 1_555
C37_2 C38_2 1_555 1_555
C12_3 H29_4 1_555 1_555
C12_3 H30_4 1_555 1_555
C12_3 H31_4 1_555 1_555
Mn9 O1_3 1_555 1_555
O1_3 C3_3 1_555 1_555
O2_3 Mn9 1_555 1_555
C3_3 O7_3 1_555 1_555
H9_3 O2_3 1_555 1_555
Mn14 O7_3 1_555 1_555
C4_3 C3_3 1_555 1_555
O9_3 Mn14 1_555 1_555
O10_3 Mn14 1_555 1_555
O11_3 Mn14 1_555 1_555
C5_3 C4_3 1_555 1_555
C7_3 O9_3 1_555 1_555
Mn17 O10_3 1_555 1_555
C8_4 O10_3 1_555 1_555
H11_3 O11_3 1_555 1_555
H12_3 O11_3 1_555 1_555
H13_3 C5_3 1_555 1_555
O12_3 C7_3 1_555 1_555
C11_3 C7_3 1_555 1_555
C12_4 C8_4 1_555 1_555
C16_3 C11_3 1_555 1_555
C17_3 C11_3 1_555 1_555
H16_3 C16_3 1_555 1_555
C19_3 C17_3 1_555 1_555
O36 C40_3 1_555 1_555
O38 C40_3 1_555 1_555
O32_2 Mn9 1_555 1_555
O40_2 Mn14 1_555 1_555
Mn17 O12_3 1_555 1_555
C12_4 H31_5 1_555 1_555
O41 C21_3 1_555 1_555
C20_3 C18_3 1_555 1_555
C21_3 C18_3 1_555 1_555
H18_3 C20_3 1_555 1_555
O15_3 C21_3 1_555 1_555
O3_2 C15_3 1_555 1_555
O33 C13_3 1_555 1_555
O8_2 C15_3 1_555 1_555
C10_3 C6_3 1_555 1_555
H14_3 C6_3 1_555 1_555
C13_3 C9_3 1_555 1_555
C14_3 C9_3 1_555 1_555
C15_3 C10_3 1_555 1_555
O14_3 C13_3 1_555 1_555
H15_3 C14_3 1_555 1_555
Mn11_2 O3_2 1_555 1_555
Mn15_2 O8_2 1_555 1_555
C10_3 C14_3 1_555 1_555
C12_5 C8_5 1_555 1_555
O16_3 Mn17_2 1_555 1_555
Mn11 O17_3 1_555 1_555
O17_3 C23_3 1_555 1_555
O18_3 Mn11 1_555 1_555
C23_3 O23_3 1_555 1_555
H19_3 O18_3 1_555 1_555
H20_3 O18_3 1_555 1_555
Mn15 O16_3 1_555 1_555
O23_3 Mn15 1_555 1_555
C24_3 C23_3 1_555 1_555
O25_3 Mn15 1_555 1_555
O26_3 Mn15 1_555 1_555
C25_3 C24_3 1_555 1_555
C27_3 O25_3 1_555 1_555
H21_3 O26_3 1_555 1_555
H22_3 O26_3 1_555 1_555
H23_3 C25_3 1_555 1_555
O27_3 Mn17_2 1_555 1_555
C30_3 C27_3 1_555 1_555
O42 C39_3 1_555 1_555
C34_3 C30_3 1_555 1_555
C35_3 C30_3 1_555 1_555
H26_3 C34_3 1_555 1_555
C36_3 C34_3 1_555 1_555
C37_3 C35_3 1_555 1_555
C38_3 C36_3 1_555 1_555
C39_3 C36_3 1_555 1_555
H28_3 C38_3 1_555 1_555
O30_3 C39_3 1_555 1_555
O31_2 Mn11 1_555 1_555
O39_2 Mn15 1_555 1_555
C8_5 O16_3 1_555 1_555
C27_3 O27_3 1_555 1_555
C37_3 C38_3 1_555 1_555
C12_5 H29_5 1_555 1_555
C12_5 H30_5 1_555 1_555
O35 C22_3 1_555 1_555
O19_2 C33_3 1_555 1_555
O24_2 C33_3 1_555 1_555
C29_3 C26_3 1_555 1_555
H24_3 C26_3 1_555 1_555
C31_3 C28_3 1_555 1_555
C32_3 C28_3 1_555 1_555
C33_3 C29_3 1_555 1_555
O29_3 C31_3 1_555 1_555
H25_3 C32_3 1_555 1_555
Mn9_2 O19_2 1_555 1_555
Mn14_2 O24_2 1_555 1_555
C29_3 C32_3 1_555 1_555
C12_4 H29_6 1_555 1_555
C12_4 H30_6 1_555 1_555
C12_5 H31_6 1_555 1_555
C16_4 C11_4 1_555 1_555
C17_4 C11_4 1_555 1_555
H17_4 C17_4 1_555 1_555
C19_4 C17_4 1_555 1_555
O36_2 C40_4 1_555 1_555
O38_2 C40_4 1_555 1_555
O42_2 C39_4 1_555 1_555
C34_4 C30_4 1_555 1_555
C35_4 C30_4 1_555 1_555
C36_4 C34_4 1_555 1_555
H27_4 C35_4 1_555 1_555
C37_4 C35_4 1_555 1_555
C38_4 C36_4 1_555 1_555
C39_4 C36_4 1_555 1_555
C40_4 C37_4 1_555 1_555
H28_4 C38_4 1_555 1_555
O30_4 C39_4 1_555 1_555
C37_4 C38_4 1_555 1_555
O35_2 C22_4 1_555 1_555
O41_2 C21_4 1_555 1_555
C20_4 C18_4 1_555 1_555
C21_4 C18_4 1_555 1_555
H18_4 C20_4 1_555 1_555
O15_4 C21_4 1_555 1_555
Mn9_2 O1_4 1_555 1_555
O1_4 C3_4 1_555 1_555
O2_4 Mn9_2 1_555 1_555
O31_2 C15_4 1_555 1_555
O33_2 C13_4 1_555 1_555
C3_4 O7_4 1_555 1_555
H9_4 O2_4 1_555 1_555
Mn14_2 O7_4 1_555 1_555
C4_4 C3_4 1_555 1_555
O39_2 C15_4 1_555 1_555
O9_4 Mn14_2 1_555 1_555
O10_4 Mn14_2 1_555 1_555
O11_4 Mn14_2 1_555 1_555
C5_4 C4_4 1_555 1_555
C6_4 C4_4 1_555 1_555
C7_4 O9_4 1_555 1_555
Mn17_3 O10_4 1_555 1_555
C8_6 O10_4 1_555 1_555
H11_4 O11_4 1_555 1_555
H12_4 O11_4 1_555 1_555
H13_4 C5_4 1_555 1_555
C9_4 C5_4 1_555 1_555
C10_4 C6_4 1_555 1_555
H14_4 C6_4 1_555 1_555
C12_6 C8_6 1_555 1_555
C13_4 C9_4 1_555 1_555
C14_4 C9_4 1_555 1_555
C15_4 C10_4 1_555 1_555
O14_4 C13_4 1_555 1_555
H15_4 C14_4 1_555 1_555
O16_4 Mn17_3 1_555 1_555
Mn11_2 O17_4 1_555 1_555
O17_4 C23_4 1_555 1_555
O18_4 Mn11_2 1_555 1_555
O32_2 C33_4 1_555 1_555
C23_4 O23_4 1_555 1_555
H19_4 O18_4 1_555 1_555
H20_4 O18_4 1_555 1_555
Mn15_2 O16_4 1_555 1_555
O23_4 Mn15_2 1_555 1_555
C24_4 C23_4 1_555 1_555
O40_2 C33_4 1_555 1_555
O25_4 Mn15_2 1_555 1_555
O26_4 Mn15_2 1_555 1_555
C25_4 C24_4 1_555 1_555
C26_4 C24_4 1_555 1_555
C27_4 O25_4 1_555 1_555
H21_4 O26_4 1_555 1_555
H22_4 O26_4 1_555 1_555
H23_4 C25_4 1_555 1_555
C28_4 C25_4 1_555 1_555
C29_4 C26_4 1_555 1_555
H24_4 C26_4 1_555 1_555
C31_4 C28_4 1_555 1_555
C32_4 C28_4 1_555 1_555
C33_4 C29_4 1_555 1_555
O29_4 C31_4 1_555 1_555
H25_4 C32_4 1_555 1_555
C8_6 O16_4 1_555 1_555
C10_4 C14_4 1_555 1_555
C29_4 C32_4 1_555 1_555
C12_6 H29_7 1_555 1_555
C12_6 H30_7 1_555 1_555
C12_6 H31_7 1_555 1_555
C12_6 H29_8 1_555 1_555
C12_6 H30_8 1_555 1_555
C12_6 H31_8 1_555 1_555

#END
