
###############################################################################
#
# This file contains modified crystal structure data generated from the
# MOF subset of the Cambridge Structural Database (CSD) v543 
# hosted by the Cambridge Crystallographic Data Centre (CCDC).
#
# This work is licensed under the Creative Commons
# Attribution-NonCommercial-ShareAlike 4.0 International License.
# To view a copy of this license, visit
# http://creativecommons.org/licenses/by-nc-sa/4.0/
# or send a letter to
# Creative Commons, PO Box 1866, Mountain View, CA 94042, USA.
#
# CIF created using the CSD Python API on 29 September 2022
# The structure has been converted into the P1 space group
# The structure has a 3D framework
# The original CSD entry IRELAU is in the monoclinic crystal system
# The framework has been calculated to contain at least 10.0% void space
# The void calculation uses a probe of radius 1.32A, grid spacing 0.4
# H atom positions have been added when not included in the experimental data
#
###############################################################################

data_IRELAU
_chemical_formula_moiety         '(C104 H84 N4 O38 Zn4)n'
_symmetry_cell_setting           triclinic
_symmetry_space_group_name_H-M   'P 1'
_symmetry_Int_Tables_number      1
_space_group_name_Hall           'P 1'
loop_
_symmetry_equiv_pos_site_id
_symmetry_equiv_pos_as_xyz
1 x,y,z
_cell_length_a                   12.206(11)
_cell_length_b                   17.833(15)
_cell_length_c                   15.309(13)
_cell_angle_alpha                90
_cell_angle_beta                 111.229(14)
_cell_angle_gamma                90
_cell_volume                     3106.18
loop_
_atom_site_label
_atom_site_type_symbol
_atom_site_fract_x
_atom_site_fract_y
_atom_site_fract_z
Zn1 Zn 0.26397(4) 0.37688(3) 0.22924(3)
Zn2 Zn 0.03388(5) 0.48662(3) 0.20590(3)
O2 O 0.1193(3) 0.34222(19) 0.1393(2)
C1 C 0.0316(4) 0.3703(2) 0.0838(3)
H1 H 0.0860 0.2469 0.0205
O11 O 0.1783(3) 0.54406(18) 0.2180(2)
O12 O 0.3120(3) 0.47163(17) 0.1988(3)
O13 O 0.3772(3) 0.3009(2) 0.2672(3)
O14 O 0.2489(3) 0.3948(2) 0.3491(2)
O15 O 0.0841(3) 0.4511(2) 0.3307(2)
O1 O 0.8217(3) 0.45594(18) 0.7820(2)
O4 O 0.6880(3) 0.52837(17) 0.8012(3)
O5 O 0.3772(3) 0.1991(2) 0.7672(3)
O6 O 0.3500(5) 0.2111(3) 0.6240(3)
C4 C 0.9505(5) 0.2227(3) 0.9045(4)
H2 H 0.9814 0.1785 0.8909
C5 C 0.8438(4) 0.2468(3) 0.8482(3)
H3 H 0.8017 0.2190 0.7954
C6 C 0.7961(4) 0.3113(2) 0.8670(3)
C7 C 0.8602(3) 0.3516(2) 0.9435(3)
H4 H 0.8299 0.3960 0.9572
C8 C 0.6768(4) 0.3322(2) 0.8065(3)
C9 C 0.6452(3) 0.4034(2) 0.7738(3)
C10 C 0.5312(4) 0.4170(3) 0.7179(3)
H5 H 0.5099 0.4656 0.6965
C11 C 0.4489(4) 0.3635(2) 0.6927(3)
C12 C 0.4817(4) 0.2922(2) 0.7283(3)
C13 C 0.5934(4) 0.2793(2) 0.7846(3)
H6 H 0.6137 0.2315 0.8095
C14 C 0.7277(4) 0.4667(2) 0.7888(3)
C15 C 0.3952(4) 0.2297(3) 0.7037(4)
C16 C 0.33290(19) 0.38265(18) 0.63159(16)
C17 C 0.3097(2) 0.38922(17) 0.53609(17)
H7 H 0.3672 0.3766 0.5121
C18 C 0.2006(2) 0.41460(18) 0.47644(14)
C19 C 0.11463(19) 0.4334(2) 0.51231(18)
H8 H 0.0416 0.4504 0.4724
C20 C 0.1378(2) 0.4268(2) 0.60781(19)
H9 H 0.0803 0.4394 0.6318
C21 C 0.2469(2) 0.4015(2) 0.66746(14)
H10 H 0.2624 0.3971 0.7314
C22 C 0.1761(4) 0.4205(2) 0.3782(3)
H12 H 0.7597 0.6035 0.9994
Zn4 Zn 0.73603(4) 0.62312(3) 0.77076(3)
Zn5 Zn 0.26397(4) 0.12312(3) 0.72924(3)
Zn7 Zn 0.96612(5) 0.51338(3) 0.79410(3)
O4_2 O 0.3120(3) 0.02837(17) 0.6988(3)
O10 O 0.0540(3) 0.0756(2) 0.3048(3)
N1 N 0.1723(5) 0.1698(3) 0.3508(3)
C23 C 0.1379(5) 0.1057(3) 0.3646(4)
C24 C 0.2022(6) 0.0671(4) 0.4530(4)
H11 H 0.1482 0.0381 0.4718
H12_2 H 0.2403 0.1035 0.5006
H13 H 0.2602 0.0345 0.4446
C25 C 0.2721(8) 0.2065(5) 0.4123(6)
H14 H 0.2483 0.2447 0.4459
H15 H 0.3146 0.2290 0.3772
H16 H 0.3216 0.1709 0.4559
C26 C 0.1021(8) 0.2113(4) 0.2665(5)
H17 H 0.1452 0.2156 0.2253
H18 H 0.0852 0.2604 0.2839
H19 H 0.0298 0.1850 0.2351
Zn7_2 Zn 0.03388(5) 0.01338(3) 0.70590(3)
O7 O 0.7511(3) 0.8948(2) 0.1509(2)
O8 O 0.9159(3) 0.9511(2) 0.1693(2)
C18_2 C 0.7994(2) 0.91460(18) 0.02356(14)
H8_2 H 0.9584 0.9504 0.0276
C22_2 C 0.8239(4) 0.9205(2) 0.1218(3)
Zn3 Zn 0.73603(4) 0.87688(3) 0.27076(3)
Zn6 Zn 0.96612(5) 0.98662(3) 0.29410(3)
O1_2 O 0.1783(3) 0.95594(18) 0.7180(2)
O3 O 0.0044(3) 0.9329(2) 0.4069(2)
O5_2 O 0.6228(3) 0.6991(2) 0.7328(3)
O6_2 O 0.6500(5) 0.7111(3) 0.8760(3)
O9 O 0.1388(7) 0.9248(5) 0.2985(5)
C2 C 0.0319(4) 0.8276(2) 0.4993(3)
C4_2 C 0.0495(5) 0.7227(3) 0.5955(4)
H2_2 H 0.0186 0.6785 0.6091
C5_2 C 0.1562(4) 0.7468(3) 0.6518(3)
H3_2 H 0.1983 0.7190 0.7046
C6_2 C 0.2039(4) 0.8113(2) 0.6330(3)
C7_2 C 0.1398(3) 0.8516(2) 0.5565(3)
H4_2 H 0.1701 0.8960 0.5428
C8_2 C 0.3232(4) 0.8322(2) 0.6935(3)
C9_2 C 0.3548(3) 0.9034(2) 0.7262(3)
C10_2 C 0.4688(4) 0.9170(3) 0.7821(3)
H5_2 H 0.4901 0.9656 0.8035
C11_2 C 0.5511(4) 0.8635(2) 0.8073(3)
C12_2 C 0.5183(4) 0.7922(2) 0.7717(3)
C13_2 C 0.4066(4) 0.7793(2) 0.7154(3)
H6_2 H 0.3863 0.7315 0.6905
C14_2 C 0.2723(4) 0.9667(2) 0.7112(3)
C15_2 C 0.6048(4) 0.7297(3) 0.7963(4)
C16_2 C 0.66710(19) 0.88265(18) 0.86841(16)
C17_2 C 0.6903(2) 0.88922(17) 0.96391(17)
H7_2 H 0.6328 0.8766 0.9879
C19_2 C 0.88537(19) 0.9334(2) 0.98769(18)
C20_2 C 0.8622(2) 0.9268(2) 0.89219(19)
H9_2 H 0.9197 0.9394 0.8682
C21_2 C 0.7531(2) 0.9015(2) 0.83254(14)
H10_2 H 0.7376 0.8971 0.7686
H20 H 0.127214 0.86972 0.299229
H21 H 0.156671 0.938688 0.242266
O11_2 O 0.8217(3) 0.04406(18) 0.2820(2)
O2_2 O 0.8807(3) 0.84222(19) 0.3607(2)
C1_2 C 0.9684(4) 0.8703(2) 0.4162(3)
C3 C 0.9876(4) 0.7634(3) 0.5189(4)
H1_2 H 0.9140 0.7469 0.4795
O12_2 O 0.6880(3) 0.97163(17) 0.3012(3)
O13_2 O 0.6228(3) 0.8009(2) 0.2328(3)
O6_3 O 0.6500(5) 0.7889(3) 0.3760(3)
O7_2 O 0.7511(3) 0.6052(2) 0.6509(2)
O8_2 O 0.9159(3) 0.5489(2) 0.6693(2)
C4_3 C 0.0495(5) 0.7773(3) 0.0955(4)
H2_3 H 0.0186 0.8215 0.1091
C5_3 C 0.1562(4) 0.7532(3) 0.1518(3)
H3_3 H 0.1983 0.7810 0.2046
C6_3 C 0.2039(4) 0.6887(2) 0.1330(3)
C7_3 C 0.1398(3) 0.6484(2) 0.0565(3)
H4_3 H 0.1701 0.6040 0.0428
C8_3 C 0.3232(4) 0.6678(2) 0.1935(3)
C9_3 C 0.3548(3) 0.5966(2) 0.2262(3)
C10_3 C 0.4688(4) 0.5830(3) 0.2821(3)
H5_3 H 0.4901 0.5344 0.3035
C11_3 C 0.5511(4) 0.6365(2) 0.3073(3)
C12_3 C 0.5183(4) 0.7078(2) 0.2717(3)
C13_3 C 0.4066(4) 0.7207(2) 0.2154(3)
H6_3 H 0.3863 0.7685 0.1905
C14_3 C 0.2723(4) 0.5333(2) 0.2112(3)
C15_3 C 0.6048(4) 0.7703(3) 0.2963(4)
C16_3 C 0.66710(19) 0.61735(18) 0.36841(16)
C17_3 C 0.6903(2) 0.61078(17) 0.46391(17)
H7_3 H 0.6328 0.6234 0.4879
C18_3 C 0.7994(2) 0.58540(18) 0.52356(14)
C19_3 C 0.88537(19) 0.5666(2) 0.48769(18)
H8_3 H 0.9584 0.5496 0.5276
C20_3 C 0.8622(2) 0.5732(2) 0.39219(19)
H9_3 H 0.9197 0.5606 0.3682
C21_3 C 0.7531(2) 0.5985(2) 0.33254(14)
H10_3 H 0.7376 0.6029 0.2686
C22_3 C 0.8239(4) 0.5795(2) 0.6218(3)
H12_3 H 0.2403 0.3965 0.0006
O2_3 O 0.8807(3) 0.65778(19) 0.8607(2)
C1_3 C 0.9684(4) 0.6297(2) 0.9162(3)
H1_3 H 0.9140 0.7531 0.9795
O2_4 O 0.1193(3) 0.15778(19) 0.6393(2)
C1_4 C 0.0316(4) 0.1297(2) 0.5838(3)
C3_2 C 0.0124(4) 0.2366(3) 0.4811(4)
H1_4 H 0.0860 0.2531 0.5205
O14_2 O 0.2489(3) 0.1052(2) 0.8491(2)
O15_2 O 0.0841(3) 0.0489(2) 0.8307(2)
O3_2 O 0.9956(3) 0.0671(2) 0.5931(2)
O6_4 O 0.3500(5) 0.2889(3) 0.1240(3)
O9_2 O 0.8612(7) 0.0752(5) 0.7015(5)
C2_2 C 0.9681(4) 0.1724(2) 0.5007(3)
C4_4 C 0.9505(5) 0.2773(3) 0.4045(4)
H2_4 H 0.9814 0.3215 0.3909
C5_4 C 0.8438(4) 0.2532(3) 0.3482(3)
H3_4 H 0.8017 0.2810 0.2954
C6_4 C 0.7961(4) 0.1887(2) 0.3670(3)
C7_4 C 0.8602(3) 0.1484(2) 0.4435(3)
H4_4 H 0.8299 0.1040 0.4572
C8_4 C 0.6768(4) 0.1678(2) 0.3065(3)
C9_4 C 0.6452(3) 0.0966(2) 0.2738(3)
C10_4 C 0.5312(4) 0.0830(3) 0.2179(3)
H5_4 H 0.5099 0.0344 0.1965
C11_4 C 0.4489(4) 0.1365(2) 0.1927(3)
C12_4 C 0.4817(4) 0.2078(2) 0.2283(3)
C13_4 C 0.5934(4) 0.2207(2) 0.2846(3)
H6_4 H 0.6137 0.2685 0.3095
C14_4 C 0.7277(4) 0.0333(2) 0.2888(3)
C15_4 C 0.3952(4) 0.2703(3) 0.2037(4)
C16_4 C 0.33290(19) 0.11735(18) 0.13159(16)
C17_4 C 0.3097(2) 0.11078(17) 0.03609(17)
H7_4 H 0.3672 0.1234 0.0121
C19_4 C 0.11463(19) 0.0666(2) 0.01231(18)
C20_4 C 0.1378(2) 0.0732(2) 0.10781(19)
H9_4 H 0.0803 0.0606 0.1318
C21_4 C 0.2469(2) 0.0985(2) 0.16746(14)
H10_4 H 0.2624 0.1029 0.2314
H20_2 H 0.872786 0.13028 0.700771
H21_2 H 0.843329 0.061312 0.757734
C18_4 C 0.2006(2) 0.08540(18) 0.97644(14)
H8_4 H 0.0416 0.0496 0.9724
C22_4 C 0.1761(4) 0.0795(2) 0.8782(3)
O10_2 O 0.9460(3) 0.9244(2) 0.6952(3)
N1_2 N 0.8277(5) 0.8302(3) 0.6492(3)
C23_2 C 0.8621(5) 0.8943(3) 0.6354(4)
C24_2 C 0.7978(6) 0.9329(4) 0.5470(4)
H11_2 H 0.8518 0.9619 0.5282
H12_4 H 0.7597 0.8965 0.4994
H13_2 H 0.7398 0.9655 0.5554
C25_2 C 0.7279(8) 0.7935(5) 0.5877(6)
H14_2 H 0.7517 0.7553 0.5541
H15_2 H 0.6854 0.7710 0.6228
H16_2 H 0.6784 0.8291 0.5441
C26_2 C 0.8979(8) 0.7887(4) 0.7335(5)
H17_2 H 0.8548 0.7844 0.7747
H18_2 H 0.9148 0.7396 0.7161
H19_2 H 0.9702 0.8150 0.7649
C3_3 C 0.0124(4) 0.2634(3) 0.9811(4)
O3_3 O 0.9956(3) 0.4329(2) 0.0931(2)
O9_3 O 0.8612(7) 0.4248(5) 0.2015(5)
O10_3 O 0.9460(3) 0.5756(2) 0.1952(3)
N1_3 N 0.8277(5) 0.6698(3) 0.1492(3)
C2_3 C 0.9681(4) 0.3276(2) 0.0007(3)
C23_3 C 0.8621(5) 0.6057(3) 0.1354(4)
C24_3 C 0.7978(6) 0.5671(4) 0.0470(4)
H11_3 H 0.8518 0.5381 0.0282
H13_3 H 0.7398 0.5345 0.0554
C25_3 C 0.7279(8) 0.7065(5) 0.0877(6)
H14_3 H 0.7517 0.7447 0.0541
H15_3 H 0.6854 0.7290 0.1228
H16_3 H 0.6784 0.6709 0.0441
C26_3 C 0.8979(8) 0.7113(4) 0.2335(5)
H17_3 H 0.8548 0.7156 0.2747
H18_3 H 0.9148 0.7604 0.2161
H19_3 H 0.9702 0.6850 0.2649
H20_3 H 0.872786 0.36972 0.200771
H21_3 H 0.843329 0.438688 0.257734
O3_4 O 0.0044(3) 0.5671(2) 0.9069(2)
O9_4 O 0.1388(7) 0.5752(5) 0.7985(5)
O10_4 O 0.0540(3) 0.4244(2) 0.8048(3)
N1_4 N 0.1723(5) 0.3302(3) 0.8508(3)
C2_4 C 0.0319(4) 0.6724(2) 0.9993(3)
C23_4 C 0.1379(5) 0.3943(3) 0.8646(4)
C24_4 C 0.2022(6) 0.4329(4) 0.9530(4)
H11_4 H 0.1482 0.4619 0.9718
H13_4 H 0.2602 0.4655 0.9446
C25_4 C 0.2721(8) 0.2935(5) 0.9123(6)
H14_4 H 0.2483 0.2553 0.9459
H15_4 H 0.3146 0.2710 0.8772
H16_4 H 0.3216 0.3291 0.9559
C26_4 C 0.1021(8) 0.2887(4) 0.7665(5)
H17_4 H 0.1452 0.2844 0.7253
H18_4 H 0.0852 0.2396 0.7839
H19_4 H 0.0298 0.3150 0.7351
H20_4 H 0.127214 0.63028 0.799229
H21_4 H 0.156671 0.561312 0.742266
C3_4 C 0.9876(4) 0.7366(3) 0.0189(4)
loop_
_geom_bond_atom_site_label_1
_geom_bond_atom_site_label_2
_geom_bond_site_symmetry_1
_geom_bond_site_symmetry_2
Zn1 O2 1_555 1_555
O2 C1 1_555 1_555
O11 Zn2 1_555 1_555
O12 Zn1 1_555 1_555
O13 Zn1 1_555 1_555
O14 Zn1 1_555 1_555
O15 Zn2 1_555 1_555
O1 C14 1_555 1_555
O4 C14 1_555 1_555
O5 C15 1_555 1_555
O6 C15 1_555 1_555
O14 C22 1_555 1_555
O15 C22 1_555 1_555
H2 C4 1_555 1_555
C5 C4 1_555 1_555
H3 C5 1_555 1_555
C6 C5 1_555 1_555
H4 C7 1_555 1_555
C8 C6 1_555 1_555
C9 C8 1_555 1_555
C10 C9 1_555 1_555
H5 C10 1_555 1_555
C11 C10 1_555 1_555
C12 C11 1_555 1_555
C13 C8 1_555 1_555
H6 C13 1_555 1_555
C14 C9 1_555 1_555
C15 C12 1_555 1_555
C16 C11 1_555 1_555
C17 C16 1_555 1_555
H7 C17 1_555 1_555
C18 C17 1_555 1_555
C19 C18 1_555 1_555
H8 C19 1_555 1_555
C20 C19 1_555 1_555
H9 C20 1_555 1_555
C21 C16 1_555 1_555
H10 C21 1_555 1_555
C22 C18 1_555 1_555
Zn4 O4 1_555 1_555
Zn5 O5 1_555 1_555
Zn7 O1 1_555 1_555
C6 C7 1_555 1_555
C12 C13 1_555 1_555
C20 C21 1_555 1_555
N1 C23 1_555 1_555
C23 O10 1_555 1_555
C24 C23 1_555 1_555
H11 C24 1_555 1_555
H12_2 C24 1_555 1_555
H13 C24 1_555 1_555
C25 N1 1_555 1_555
H14 C25 1_555 1_555
H15 C25 1_555 1_555
H16 C25 1_555 1_555
C26 N1 1_555 1_555
H17 C26 1_555 1_555
H18 C26 1_555 1_555
H19 C26 1_555 1_555
Zn5 O4_2 1_555 1_555
O7 C22_2 1_555 1_555
O8 C22_2 1_555 1_555
C22_2 C18_2 1_555 1_555
Zn3 O7 1_555 1_555
Zn6 O8 1_555 1_555
O1_2 C14_2 1_555 1_555
O5_2 C15_2 1_555 1_555
O6_2 C15_2 1_555 1_555
H2_2 C4_2 1_555 1_555
C5_2 C4_2 1_555 1_555
H3_2 C5_2 1_555 1_555
C6_2 C5_2 1_555 1_555
C7_2 C2 1_555 1_555
H4_2 C7_2 1_555 1_555
C8_2 C6_2 1_555 1_555
C9_2 C8_2 1_555 1_555
C10_2 C9_2 1_555 1_555
H5_2 C10_2 1_555 1_555
C11_2 C10_2 1_555 1_555
C12_2 C11_2 1_555 1_555
C13_2 C8_2 1_555 1_555
H6_2 C13_2 1_555 1_555
C14_2 C9_2 1_555 1_555
C15_2 C12_2 1_555 1_555
C16_2 C11_2 1_555 1_555
C17_2 C16_2 1_555 1_555
H7_2 C17_2 1_555 1_555
C20_2 C19_2 1_555 1_555
H9_2 C20_2 1_555 1_555
C21_2 C16_2 1_555 1_555
H10_2 C21_2 1_555 1_555
Zn4 O5_2 1_555 1_555
C6_2 C7_2 1_555 1_555
C12_2 C13_2 1_555 1_555
C20_2 C21_2 1_555 1_555
O9 H20 1_555 1_555
O9 H21 1_555 1_555
Zn3 O2_2 1_555 1_555
O2_2 C1_2 1_555 1_555
C3 H1_2 1_555 1_555
O12_2 Zn3 1_555 1_555
O13_2 Zn3 1_555 1_555
O11 C14_3 1_555 1_555
O12 C14_3 1_555 1_555
O13_2 C15_3 1_555 1_555
O6_3 C15_3 1_555 1_555
O7_2 C22_3 1_555 1_555
O8_2 C22_3 1_555 1_555
H2_3 C4_3 1_555 1_555
C5_3 C4_3 1_555 1_555
H3_3 C5_3 1_555 1_555
C6_3 C5_3 1_555 1_555
H4_3 C7_3 1_555 1_555
C8_3 C6_3 1_555 1_555
C9_3 C8_3 1_555 1_555
C10_3 C9_3 1_555 1_555
H5_3 C10_3 1_555 1_555
C11_3 C10_3 1_555 1_555
C12_3 C11_3 1_555 1_555
C13_3 C8_3 1_555 1_555
H6_3 C13_3 1_555 1_555
C14_3 C9_3 1_555 1_555
C15_3 C12_3 1_555 1_555
C16_3 C11_3 1_555 1_555
C17_3 C16_3 1_555 1_555
H7_3 C17_3 1_555 1_555
C18_3 C17_3 1_555 1_555
C19_3 C18_3 1_555 1_555
H8_3 C19_3 1_555 1_555
C20_3 C19_3 1_555 1_555
H9_3 C20_3 1_555 1_555
C21_3 C16_3 1_555 1_555
H10_3 C21_3 1_555 1_555
C22_3 C18_3 1_555 1_555
Zn4 O7_2 1_555 1_555
Zn7 O8_2 1_555 1_555
C6_3 C7_3 1_555 1_555
C12_3 C13_3 1_555 1_555
C20_3 C21_3 1_555 1_555
Zn4 O2_3 1_555 1_555
O2_3 C1_3 1_555 1_555
Zn5 O2_4 1_555 1_555
O2_4 C1_4 1_555 1_555
C3_2 H1_4 1_555 1_555
O14_2 Zn5 1_555 1_555
O15_2 Zn7_2 1_555 1_555
O11_2 C14_4 1_555 1_555
O13 C15_4 1_555 1_555
O6_4 C15_4 1_555 1_555
H2_4 C4_4 1_555 1_555
C5_4 C4_4 1_555 1_555
H3_4 C5_4 1_555 1_555
C6_4 C5_4 1_555 1_555
C7_4 C2_2 1_555 1_555
H4_4 C7_4 1_555 1_555
C8_4 C6_4 1_555 1_555
C9_4 C8_4 1_555 1_555
C10_4 C9_4 1_555 1_555
H5_4 C10_4 1_555 1_555
C11_4 C10_4 1_555 1_555
C12_4 C11_4 1_555 1_555
C13_4 C8_4 1_555 1_555
H6_4 C13_4 1_555 1_555
C14_4 C9_4 1_555 1_555
C15_4 C12_4 1_555 1_555
C16_4 C11_4 1_555 1_555
C17_4 C16_4 1_555 1_555
H7_4 C17_4 1_555 1_555
C20_4 C19_4 1_555 1_555
H9_4 C20_4 1_555 1_555
C21_4 C16_4 1_555 1_555
H10_4 C21_4 1_555 1_555
C6_4 C7_4 1_555 1_555
C12_4 C13_4 1_555 1_555
C20_4 C21_4 1_555 1_555
O9_2 H20_2 1_555 1_555
O9_2 H21_2 1_555 1_555
O14_2 C22_4 1_555 1_555
O15_2 C22_4 1_555 1_555
C22_4 C18_4 1_555 1_555
N1_2 C23_2 1_555 1_555
C23_2 O10_2 1_555 1_555
C24_2 C23_2 1_555 1_555
H11_2 C24_2 1_555 1_555
H12_4 C24_2 1_555 1_555
H13_2 C24_2 1_555 1_555
C25_2 N1_2 1_555 1_555
H14_2 C25_2 1_555 1_555
H15_2 C25_2 1_555 1_555
H16_2 C25_2 1_555 1_555
C26_2 N1_2 1_555 1_555
H17_2 C26_2 1_555 1_555
H18_2 C26_2 1_555 1_555
H19_2 C26_2 1_555 1_555
N1_3 C23_3 1_555 1_555
C23_3 O10_3 1_555 1_555
C24_3 C23_3 1_555 1_555
H11_3 C24_3 1_555 1_555
H13_3 C24_3 1_555 1_555
C25_3 N1_3 1_555 1_555
H14_3 C25_3 1_555 1_555
H15_3 C25_3 1_555 1_555
H16_3 C25_3 1_555 1_555
C26_3 N1_3 1_555 1_555
H17_3 C26_3 1_555 1_555
H18_3 C26_3 1_555 1_555
H19_3 C26_3 1_555 1_555
O9_3 H20_3 1_555 1_555
O9_3 H21_3 1_555 1_555
N1_4 C23_4 1_555 1_555
C23_4 O10_4 1_555 1_555
C24_4 C23_4 1_555 1_555
H11_4 C24_4 1_555 1_555
H13_4 C24_4 1_555 1_555
C25_4 N1_4 1_555 1_555
H14_4 C25_4 1_555 1_555
H15_4 C25_4 1_555 1_555
H16_4 C25_4 1_555 1_555
C26_4 N1_4 1_555 1_555
H17_4 C26_4 1_555 1_555
H18_4 C26_4 1_555 1_555
H19_4 C26_4 1_555 1_555
O9_4 H20_4 1_555 1_555
O9_4 H21_4 1_555 1_555

#END
