
###############################################################################
#
# This file contains modified crystal structure data generated from the
# MOF subset of the Cambridge Structural Database (CSD) v543 
# hosted by the Cambridge Crystallographic Data Centre (CCDC).
#
# This work is licensed under the Creative Commons
# Attribution-NonCommercial-ShareAlike 4.0 International License.
# To view a copy of this license, visit
# http://creativecommons.org/licenses/by-nc-sa/4.0/
# or send a letter to
# Creative Commons, PO Box 1866, Mountain View, CA 94042, USA.
#
# CIF created using the CSD Python API on 29 September 2022
# The structure has been converted into the P1 space group
# The structure has a 3D framework
# The original CSD entry IRISAD is in the tetragonal crystal system
# The framework has been calculated to contain at least 10.0% void space
# The void calculation uses a probe of radius 1.32A, grid spacing 0.4
# The framework is charged, counterions have been retained in the structure
# H atom positions have been added when not included in the experimental data
#
###############################################################################

data_IRISAD
_chemical_formula_moiety         '(C20 H72 Bi4 N6 O34 6-)n'
_symmetry_cell_setting           triclinic
_symmetry_space_group_name_H-M   'P 1'
_symmetry_Int_Tables_number      1
_space_group_name_Hall           'P 1'
loop_
_symmetry_equiv_pos_site_id
_symmetry_equiv_pos_as_xyz
1 x,y,z
_cell_length_a                   11.6896(2)
_cell_length_b                   11.6896(2)
_cell_length_c                   9.2357(3)
_cell_angle_alpha                90
_cell_angle_beta                 90
_cell_angle_gamma                90
_cell_volume                     1262.03
loop_
_atom_site_label
_atom_site_type_symbol
_atom_site_fract_x
_atom_site_fract_y
_atom_site_fract_z
_atom_site_U_iso_or_equiv
_atom_site_thermal_displace_type
Bi1 Bi 0.0000 0.7500 0.1250 2.2300 Uiso
C2 C -0.000(1) 0.4810 0.077(1) 4.8000 Uiso
O3 O 0.0000 0.3738(6) 0.0910(9) 4.9000 Uiso
O4 O -0.0000(7) 0.5464 0.180(1) 4.9000 Uiso
O10 O 0.1238(6) 0.7500 0.3410(9) 4.9000 Uiso
O11 O 0.2036 0.7500(7) 0.070(1) 4.9000 Uiso
O12 O 0.0000(7) 0.9536 0.180(1) 4.9000 Uiso
O1 O 0.0000 0.6262(6) 0.9090(9) 4.9000 Uiso
O2 O 0.0000(7) 0.4536 0.820(1) 4.9000 Uiso
C1 C 0.000(1) 0.5190 0.923(1) 4.8000 Uiso
O9 O 0.0000 0.8738(6) 0.9090(9) 4.9000 Uiso
Bi2 Bi 0.0000 0.2500 0.8750 2.2300 Uiso
Bi1_2 Bi 1.0000 0.7500 0.1250 2.2300 Uiso
C2_2 C 1.000(1) 0.4810 0.077(1) 4.8000 Uiso
O3_2 O 1.0000 0.3738(6) 0.0910(9) 4.9000 Uiso
O4_2 O 1.0000(7) 0.5464 0.180(1) 4.9000 Uiso
O5 O 0.8762(6) 0.7500 0.3410(9) 4.9000 Uiso
O6 O 0.7036 0.7500(7) 0.430(1) 4.9000 Uiso
C3 C 0.7690 0.750(1) 0.327(1) 4.8000 Uiso
C4 C 0.7310 0.750(1) 0.173(1) 4.8000 Uiso
O7 O 0.6238(6) 0.7500 0.1590(9) 4.9000 Uiso
O8 O 0.7964 0.7500(7) 0.070(1) 4.9000 Uiso
O12_2 O 1.0000(7) 0.9536 0.180(1) 4.9000 Uiso
Bi3 Bi 0.5000 0.7500 0.3750 2.2300 Uiso
O1_2 O 1.0000 0.6262(6) 0.9090(9) 4.9000 Uiso
O2_2 O 1.0000(7) 0.4536 0.820(1) 4.9000 Uiso
C1_2 C 1.000(1) 0.5190 0.923(1) 4.8000 Uiso
O9_2 O 1.0000 0.8738(6) 0.9090(9) 4.9000 Uiso
Bi2_2 Bi 1.0000 0.2500 0.8750 2.2300 Uiso
O5_2 O 0.5000 0.6262(6) 0.5910(9) 4.9000 Uiso
O6_2 O 0.5000(7) 0.4536 0.680(1) 4.9000 Uiso
C3_2 C 0.500(1) 0.5190 0.577(1) 4.8000 Uiso
C4_2 C 0.500(1) 0.4810 0.423(1) 4.8000 Uiso
O7_2 O 0.5000 0.3738(6) 0.4090(9) 4.9000 Uiso
O8_2 O 0.5000(7) 0.5464 0.320(1) 4.9000 Uiso
O9_3 O 0.3762(6) 0.7500 0.1590(9) 4.9000 Uiso
O10_2 O 0.5000 0.8738(6) 0.5910(9) 4.9000 Uiso
O11_2 O 0.5000(7) 0.9536 0.320(1) 4.9000 Uiso
O12_3 O 0.2964 0.7500(7) 0.430(1) 4.9000 Uiso
Bi3_2 Bi 0.5000 0.2500 0.6250 2.2300 Uiso
O9_4 O 0.0000 0.1262(6) 0.0910(9) 4.9000 Uiso
O10_3 O 0.1238(6) 0.2500 0.6590(9) 4.9000 Uiso
O11_3 O 0.2036 0.2500(7) 0.930(1) 4.9000 Uiso
O12_4 O 0.0000(7) 0.0464 0.820(1) 4.9000 Uiso
O9_5 O 1.0000 0.1262(6) 0.0910(9) 4.9000 Uiso
O5_3 O 0.8762(6) 0.2500 0.6590(9) 4.9000 Uiso
O6_3 O 0.7036 0.2500(7) 0.570(1) 4.9000 Uiso
C3_3 C 0.7690 0.250(1) 0.673(1) 4.8000 Uiso
C4_3 C 0.7310 0.250(1) 0.827(1) 4.8000 Uiso
O7_3 O 0.6238(6) 0.2500 0.8410(9) 4.9000 Uiso
O8_3 O 0.7964 0.2500(7) 0.930(1) 4.9000 Uiso
O12_5 O 1.0000(7) 0.0464 0.820(1) 4.9000 Uiso
O9_6 O 0.5000 0.1262(6) 0.4090(9) 4.9000 Uiso
O10_4 O 0.3762(6) 0.2500 0.8410(9) 4.9000 Uiso
O11_4 O 0.2964 0.2500(7) 0.570(1) 4.9000 Uiso
O12_6 O 0.5000(7) 0.0464 0.680(1) 4.9000 Uiso
C1_3 C 0.500(1) 0.0190 0.423(1) 4.8000 Uiso
C3_4 C 0.2690 0.250(1) 0.827(1) 4.8000 Uiso
C4_4 C 0.2310 0.250(1) 0.673(1) 4.8000 Uiso
C2_3 C 0.500(1) 0.9810 0.577(1) 4.8000 Uiso
C3_5 C -0.000(1) 0.0190 0.077(1) 4.8000 Uiso
C4_5 C -0.000(1) 0.9810 0.923(1) 4.8000 Uiso
C3_6 C 1.000(1) 0.0190 0.077(1) 4.8000 Uiso
C4_6 C 1.000(1) 0.9810 0.923(1) 4.8000 Uiso
C3_7 C 0.2690 0.750(1) 0.173(1) 4.8000 Uiso
C4_7 C 0.2310 0.750(1) 0.327(1) 4.8000 Uiso
N1 N 0.0000 0.2500 0.3750 6.4000 Uiso
H1 H 0.0868293 0.25 0.375 . .
H1_2 H -5.55112e-17 0.163171 0.375 . .
H3 H 0.0708958 0.278943 0.426807 . .
H4 H -5.55112e-17 0.278943 0.271386 . .
H2 H 0.0289431 0.179104 0.323193 . .
H3_2 H 0.0289431 0.320896 0.323193 . .
H4_2 H 0.0289431 0.25 0.478614 . .
H1_3 H 5.55112e-17 0.336829 0.375 . .
H2_2 H 0.0708958 0.221057 0.426807 . .
H4_3 H 5.55112e-17 0.221057 0.271386 . .
N1_2 N 1.0000 0.2500 0.3750 6.4000 Uiso
H2_3 H 0.971057 0.320896 0.323193 . .
H3_3 H 0.971057 0.179104 0.323193 . .
H4_4 H 0.971057 0.25 0.478614 . .
H1_4 H 1 0.163171 0.375 . .
H2_4 H 0.929104 0.278943 0.426807 . .
H4_5 H 1 0.278943 0.271386 . .
H1_5 H 0.913171 0.25 0.375 . .
H1_6 H 1 0.336829 0.375 . .
H3_4 H 0.929104 0.221057 0.426807 . .
H4_6 H 1 0.221057 0.271386 . .
N1_3 N -0.0000 0.7500 0.6250 6.4000 Uiso
H1_7 H -5.55112e-17 0.836829 0.625 . .
H3_5 H 0.0708958 0.721057 0.573193 . .
H4_7 H -5.55112e-17 0.721057 0.728614 . .
H1_8 H 0.0868293 0.75 0.625 . .
H1_9 H 5.55112e-17 0.663171 0.625 . .
H2_5 H 0.0708958 0.778943 0.573193 . .
H4_8 H 5.55112e-17 0.778943 0.728614 . .
H2_6 H 0.0289431 0.820896 0.676807 . .
H3_6 H 0.0289431 0.679104 0.676807 . .
H4_9 H 0.0289431 0.75 0.521386 . .
N1_4 N 1.0000 0.7500 0.6250 6.4000 Uiso
H1_10 H 1 0.836829 0.625 . .
H2_7 H 0.929104 0.721057 0.573193 . .
H4_10 H 1 0.721057 0.728614 . .
H2_8 H 0.971057 0.679104 0.676807 . .
H3_7 H 0.971057 0.820896 0.676807 . .
H4_11 H 0.971057 0.75 0.521386 . .
H1_11 H 1 0.663171 0.625 . .
H3_8 H 0.929104 0.778943 0.573193 . .
H4_12 H 1 0.778943 0.728614 . .
H1_12 H 0.913171 0.75 0.625 . .
N1_5 N 0.5000 0.7500 0.8750 6.4000 Uiso
H1_13 H 0.413171 0.75 0.875 . .
H2_9 H 0.528943 0.679104 0.823193 . .
H3_9 H 0.528943 0.820896 0.823193 . .
H4_13 H 0.528943 0.75 0.978614 . .
H1_14 H 0.5 0.836829 0.875 . .
H2_10 H 0.570896 0.721057 0.926807 . .
H3_10 H 0.429104 0.721057 0.926807 . .
H4_14 H 0.5 0.721057 0.771386 . .
H1_15 H 0.586829 0.75 0.875 . .
H2_11 H 0.471057 0.820896 0.823193 . .
H3_11 H 0.471057 0.679104 0.823193 . .
H4_15 H 0.471057 0.75 0.978614 . .
H1_16 H 0.5 0.663171 0.875 . .
H2_12 H 0.429104 0.778943 0.926807 . .
H3_12 H 0.570896 0.778943 0.926807 . .
H4_16 H 0.5 0.778943 0.771386 . .
N1_6 N 0.5000 0.2500 0.1250 6.4000 Uiso
H1_17 H 0.5 0.163171 0.125 . .
H2_13 H 0.570896 0.278943 0.0731928 . .
H3_13 H 0.429104 0.278943 0.0731928 . .
H4_17 H 0.5 0.278943 0.228614 . .
H1_18 H 0.413171 0.25 0.125 . .
H2_14 H 0.528943 0.320896 0.176807 . .
H3_14 H 0.528943 0.179104 0.176807 . .
H4_18 H 0.528943 0.25 0.0213856 . .
H1_19 H 0.5 0.336829 0.125 . .
H2_15 H 0.429104 0.221057 0.0731928 . .
H3_15 H 0.570896 0.221057 0.0731928 . .
H4_19 H 0.5 0.221057 0.228614 . .
H1_20 H 0.586829 0.25 0.125 . .
H2_16 H 0.471057 0.179104 0.176807 . .
H3_16 H 0.471057 0.320896 0.176807 . .
H4_20 H 0.471057 0.25 0.0213856 . .
loop_
_geom_bond_atom_site_label_1
_geom_bond_atom_site_label_2
_geom_bond_site_symmetry_1
_geom_bond_site_symmetry_2
C2 O3 1_555 1_555
O4 Bi1 1_555 1_555
O10 Bi1 1_555 1_555
O11 Bi1 1_555 1_555
O12 Bi1 1_555 1_555
C2 O4 1_555 1_555
O1 C1 1_555 1_555
O2 C1 1_555 1_555
Bi2 O2 1_555 1_555
C2_2 O3_2 1_555 1_555
O4_2 Bi1_2 1_555 1_555
O5 Bi1_2 1_555 1_555
O6 C3 1_555 1_555
C3 O5 1_555 1_555
C4 C3 1_555 1_555
O7 C4 1_555 1_555
O8 Bi1_2 1_555 1_555
O12_2 Bi1_2 1_555 1_555
Bi3 O6 1_555 1_555
C2_2 O4_2 1_555 1_555
C4 O8 1_555 1_555
O7 Bi3 1_555 1_555
O1_2 C1_2 1_555 1_555
O2_2 C1_2 1_555 1_555
Bi2_2 O2_2 1_555 1_555
O5_2 Bi3 1_555 1_555
O6_2 C3_2 1_555 1_555
C3_2 O5_2 1_555 1_555
C4_2 C3_2 1_555 1_555
O7_2 C4_2 1_555 1_555
O8_2 Bi3 1_555 1_555
O9_3 Bi3 1_555 1_555
O10_2 Bi3 1_555 1_555
O11_2 Bi3 1_555 1_555
O12_3 Bi3 1_555 1_555
Bi3_2 O6_2 1_555 1_555
C4_2 O8_2 1_555 1_555
O7_2 Bi3_2 1_555 1_555
O10_3 Bi2 1_555 1_555
O11_3 Bi2 1_555 1_555
O12_4 Bi2 1_555 1_555
O5_3 Bi2_2 1_555 1_555
O6_3 C3_3 1_555 1_555
C3_3 O5_3 1_555 1_555
C4_3 C3_3 1_555 1_555
O7_3 C4_3 1_555 1_555
O8_3 Bi2_2 1_555 1_555
O12_5 Bi2_2 1_555 1_555
Bi3_2 O6_3 1_555 1_555
C4_3 O8_3 1_555 1_555
O7_3 Bi3_2 1_555 1_555
O9_6 Bi3_2 1_555 1_555
O10_4 Bi3_2 1_555 1_555
O11_4 Bi3_2 1_555 1_555
O12_6 Bi3_2 1_555 1_555
O9_6 C1_3 1_555 1_555
O11_3 C3_4 1_555 1_555
C3_4 O10_4 1_555 1_555
C4_4 C3_4 1_555 1_555
O10_3 C4_4 1_555 1_555
C4_4 O11_4 1_555 1_555
C2_3 O10_2 1_555 1_555
C3_5 O9_4 1_555 1_555
O9 C4_5 1_555 1_555
C3_6 O9_5 1_555 1_555
O9_2 C4_6 1_555 1_555
O11 C3_7 1_555 1_555
C3_7 O9_3 1_555 1_555
C4_7 C3_7 1_555 1_555
O10 C4_7 1_555 1_555
C4_7 O12_3 1_555 1_555
N1 H1 1_555 1_555
N1 H1_2 1_555 1_555
N1 H3 1_555 1_555
N1 H4 1_555 1_555
N1 H2 1_555 1_555
N1 H3_2 1_555 1_555
N1 H4_2 1_555 1_555
N1 H1_3 1_555 1_555
N1 H2_2 1_555 1_555
N1 H4_3 1_555 1_555
N1_2 H2_3 1_555 1_555
N1_2 H3_3 1_555 1_555
N1_2 H4_4 1_555 1_555
N1_2 H1_4 1_555 1_555
N1_2 H2_4 1_555 1_555
N1_2 H4_5 1_555 1_555
N1_2 H1_5 1_555 1_555
N1_2 H1_6 1_555 1_555
N1_2 H3_4 1_555 1_555
N1_2 H4_6 1_555 1_555
N1_3 H1_7 1_555 1_555
N1_3 H3_5 1_555 1_555
N1_3 H4_7 1_555 1_555
N1_3 H1_8 1_555 1_555
N1_3 H1_9 1_555 1_555
N1_3 H2_5 1_555 1_555
N1_3 H4_8 1_555 1_555
N1_3 H2_6 1_555 1_555
N1_3 H3_6 1_555 1_555
N1_3 H4_9 1_555 1_555
N1_4 H1_10 1_555 1_555
N1_4 H2_7 1_555 1_555
N1_4 H4_10 1_555 1_555
N1_4 H2_8 1_555 1_555
N1_4 H3_7 1_555 1_555
N1_4 H4_11 1_555 1_555
N1_4 H1_11 1_555 1_555
N1_4 H3_8 1_555 1_555
N1_4 H4_12 1_555 1_555
N1_4 H1_12 1_555 1_555
N1_5 H1_13 1_555 1_555
N1_5 H2_9 1_555 1_555
N1_5 H3_9 1_555 1_555
N1_5 H4_13 1_555 1_555
N1_5 H1_14 1_555 1_555
N1_5 H2_10 1_555 1_555
N1_5 H3_10 1_555 1_555
N1_5 H4_14 1_555 1_555
N1_5 H1_15 1_555 1_555
N1_5 H2_11 1_555 1_555
N1_5 H3_11 1_555 1_555
N1_5 H4_15 1_555 1_555
N1_5 H1_16 1_555 1_555
N1_5 H2_12 1_555 1_555
N1_5 H3_12 1_555 1_555
N1_5 H4_16 1_555 1_555
N1_6 H1_17 1_555 1_555
N1_6 H2_13 1_555 1_555
N1_6 H3_13 1_555 1_555
N1_6 H4_17 1_555 1_555
N1_6 H1_18 1_555 1_555
N1_6 H2_14 1_555 1_555
N1_6 H3_14 1_555 1_555
N1_6 H4_18 1_555 1_555
N1_6 H1_19 1_555 1_555
N1_6 H2_15 1_555 1_555
N1_6 H3_15 1_555 1_555
N1_6 H4_19 1_555 1_555
N1_6 H1_20 1_555 1_555
N1_6 H2_16 1_555 1_555
N1_6 H3_16 1_555 1_555
N1_6 H4_20 1_555 1_555

#END
