
###############################################################################
#
# This file contains modified crystal structure data generated from the
# MOF subset of the Cambridge Structural Database (CSD) v543 
# hosted by the Cambridge Crystallographic Data Centre (CCDC).
#
# This work is licensed under the Creative Commons
# Attribution-NonCommercial-ShareAlike 4.0 International License.
# To view a copy of this license, visit
# http://creativecommons.org/licenses/by-nc-sa/4.0/
# or send a letter to
# Creative Commons, PO Box 1866, Mountain View, CA 94042, USA.
#
# CIF created using the CSD Python API on 29 September 2022
# The structure has been converted into the P1 space group
# The structure has a 3D framework
# The original CSD entry IROSAM is in the monoclinic crystal system
# The framework has been calculated to contain at least 10.0% void space
# The void calculation uses a probe of radius 1.32A, grid spacing 0.4
#
###############################################################################

data_IROSAM
_chemical_formula_moiety         '(C288 H192 Br48 N92 Zn24)n'
_symmetry_cell_setting           triclinic
_symmetry_space_group_name_H-M   'P 1'
_symmetry_Int_Tables_number      1
_space_group_name_Hall           'P 1'
loop_
_symmetry_equiv_pos_site_id
_symmetry_equiv_pos_as_xyz
1 x,y,z
_cell_length_a                   34.6296(7)
_cell_length_b                   14.6765(2)
_cell_length_c                   31.9586(6)
_cell_angle_alpha                90
_cell_angle_beta                 102.581(2)
_cell_angle_gamma                90
_cell_volume                     15852.7
loop_
_atom_site_label
_atom_site_type_symbol
_atom_site_fract_x
_atom_site_fract_y
_atom_site_fract_z
Br3 Br 0.23851(6) 0.29661(14) 0.66007(10)
Br4 Br 0.33094(8) 0.29699(11) 0.76273(6)
Br5 Br 0.59989(9) 0.74488(16) 0.59780(7)
Br6 Br 0.63760(10) 0.6028(3) 0.50103(9)
Zn2 Zn 0.29973(7) 0.35070(15) 0.69499(8)
Zn3 Zn 0.61584(10) 0.6115(2) 0.56504(9)
N2 N 0.41963(12) 0.2087(3) 0.55487(13)
N3 N 0.45246(12) 0.3448(3) 0.58213(14)
N4 N 0.47297(10) 0.2641(2) 0.52709(11)
N5 N 0.3419(2) 0.3292(4) 0.6588(2)
N6 N 0.56770(11) 0.5268(3) 0.55837(15)
N7 N 0.65762(11) 0.5430(2) 0.61249(13)
N8 N 0.75405(10) 0.3148(2) 0.69118(11)
N9 N 0.80989(10) 0.3177(2) 0.74916(11)
N10 N 0.77344(10) 0.4532(2) 0.72895(11)
N12 N 0.88360(13) 0.5500(2) 0.85077(13)
C1 C 0.46553(14) 0.0330(3) 0.44876(15)
H1 H 0.484667 0.023002 0.432870
C2 C 0.46982(13) 0.1059(3) 0.47684(15)
H2 H 0.491700 0.143976 0.479690
C3 C 0.44225(13) 0.1219(3) 0.50019(13)
C4 C 0.4120(2) 0.0613(5) 0.4965(2)
H3 H 0.393508 0.067242 0.513490
C6 C 0.44504(13) 0.2030(3) 0.52879(13)
C7 C 0.42443(15) 0.2817(3) 0.58003(16)
C8 C 0.47578(13) 0.3324(3) 0.55445(14)
C9 C 0.3324(3) 0.2775(5) 0.6239(3)
H5 H 0.307092 0.252577 0.616599
C10 C 0.3584(2) 0.2596(6) 0.5985(3)
H6 H 0.350882 0.221604 0.574813
C11 C 0.39566(18) 0.2972(4) 0.6074(2)
C12 C 0.4045(3) 0.3540(9) 0.6426(4)
H7 H 0.428813 0.383684 0.649331
C13 C 0.3773(4) 0.3664(9) 0.6677(4)
H8 H 0.384271 0.402821 0.691976
C14 C 0.56161(14) 0.4616(3) 0.52999(16)
H9 H 0.578040 0.457936 0.510586
C15 C 0.53159(14) 0.3971(3) 0.52738(15)
H10 H 0.528582 0.351313 0.506810
C16 C 0.50710(13) 0.4011(3) 0.55451(15)
C17 C 0.5115(2) 0.4734(6) 0.5829(3)
H11 H 0.494352 0.481016 0.601284
C18 C 0.5424(2) 0.5346(6) 0.5832(3)
H12 H 0.545153 0.583619 0.602002
C19 C 0.66130(16) 0.4533(3) 0.61114(19)
H13 H 0.643513 0.421240 0.590315
C20 C 0.68969(16) 0.4053(3) 0.63857(18)
H14 H 0.690568 0.342078 0.637147
C21 C 0.71747(12) 0.4532(3) 0.66893(13)
C22 C 0.71390(13) 0.5458(3) 0.67036(17)
H15 H 0.731523 0.579954 0.690436
C23 C 0.68361(13) 0.5878(3) 0.64142(18)
H16 H 0.681495 0.650873 0.642454
C24 C 0.74993(12) 0.4039(3) 0.69819(13)
C25 C 0.78408(12) 0.2755(3) 0.71817(14)
C26 C 0.80309(13) 0.4060(3) 0.75307(13)
C27 C 0.7684(2) 0.0347(4) 0.6804(3)
H17 H 0.750602 0.002195 0.659729
C28 C 0.7625(2) 0.1259(4) 0.6838(3)
H18 H 0.740993 0.154624 0.666268
C29 C 0.78961(14) 0.1752(3) 0.71412(15)
C30 C 0.8204(2) 0.1305(4) 0.7385(2)
H19 H 0.838929 0.161863 0.758826
C31 C 0.8242(3) 0.0382(4) 0.7333(2)
H20 H 0.845709 0.007965 0.750060
C32 C 0.85649(17) 0.5947(3) 0.82202(15)
H21 H 0.855336 0.657887 0.823820
C33 C 0.82997(15) 0.5507(3) 0.78956(14)
H22 H 0.811967 0.584009 0.769497
C34 C 0.83060(13) 0.4574(3) 0.78738(13)
C35 C 0.85762(18) 0.4110(3) 0.81761(18)
H23 H 0.858691 0.347724 0.817222
C36 C 0.8832(2) 0.4601(3) 0.84864(19)
H24 H 0.901252 0.428101 0.869232
Zn4 Zn 0.92626(11) 0.6188(3) 0.89493(15)
N13 N 0.29763(19) 0.4906(3) 0.70451(19)
N8_2 N 0.25405(10) 0.8148(2) 0.69118(11)
N9_2 N 0.30989(10) 0.8177(2) 0.74916(11)
N10_2 N 0.27344(10) 0.9532(2) 0.72895(11)
C14_2 C 0.06161(14) 0.9616(3) 0.52999(16)
H9_2 H 0.078040 0.957936 0.510586
C15_2 C 0.03159(14) 0.8971(3) 0.52738(15)
H10_2 H 0.028582 0.851313 0.506810
C16_2 C 0.00710(13) 0.9011(3) 0.55451(15)
C17_2 C 0.0115(2) 0.9734(6) 0.5829(3)
C19_2 C 0.16130(16) 0.9533(3) 0.61114(19)
H13_2 H 0.143513 0.921240 0.590315
C20_2 C 0.18969(16) 0.9053(3) 0.63857(18)
H14_2 H 0.190568 0.842078 0.637147
C21_2 C 0.21747(12) 0.9532(3) 0.66893(13)
C24_2 C 0.24993(12) 0.9039(3) 0.69819(13)
C25_2 C 0.28408(12) 0.7755(3) 0.71817(14)
C26_2 C 0.30309(13) 0.9060(3) 0.75307(13)
C27_2 C 0.2684(2) 0.5347(4) 0.6804(3)
H17_2 H 0.250602 0.502195 0.659729
C28_2 C 0.2625(2) 0.6259(4) 0.6838(3)
H18_2 H 0.240993 0.654624 0.666268
C29_2 C 0.28961(14) 0.6752(3) 0.71412(15)
C30_2 C 0.3204(2) 0.6305(4) 0.7385(2)
H19_2 H 0.338929 0.661863 0.758826
C31_2 C 0.3242(3) 0.5382(4) 0.7333(2)
H20_2 H 0.345709 0.507965 0.750060
C34_2 C 0.33060(13) 0.9574(3) 0.78738(13)
C35_2 C 0.35762(18) 0.9110(3) 0.81761(18)
H23_2 H 0.358691 0.847724 0.817222
C36_2 C 0.3832(2) 0.9601(3) 0.84864(19)
H24_2 H 0.401252 0.928101 0.869232
Br1 Br 0.89284(18) 0.7456(4) 0.9154(2)
Br2 Br 0.98473(15) 0.6347(5) 0.87043(17)
N1 N 0.93503(12) 0.5225(3) 0.94397(12)
C1_2 C 0.96553(14) 0.4670(3) 0.94876(15)
H1_2 H 0.984667 0.476998 0.932870
C2_2 C 0.96982(13) 0.3941(3) 0.97684(15)
H2_2 H 0.991700 0.356024 0.979690
C4_2 C 0.9120(2) 0.4387(5) 0.9965(2)
C5 C 0.9090(2) 0.5093(4) 0.9672(2)
H4 H 0.887562 0.548759 0.964027
Br1_2 Br 0.39284(18) 0.7544(4) 0.4154(2)
Br2_2 Br 0.48473(15) 0.8653(5) 0.37043(17)
Zn1 Zn 0.42626(11) 0.8812(3) 0.39493(15)
N1_2 N 0.43503(12) 0.9775(3) 0.44397(12)
N11 N 0.79763(19) 0.9906(3) 0.70451(19)
C5_2 C 0.4090(2) 0.9907(4) 0.4672(2)
H4_2 H 0.387562 0.951241 0.464027
Zn5 Zn 0.79973(7) 0.85070(15) 0.69499(8)
N14 N 0.38360(13) 0.9500(2) 0.35077(13)
Br1_3 Br 0.89284(18) 0.2544(4) 0.4154(2)
Br2_3 Br 0.98473(15) 0.3653(5) 0.37043(17)
Br3_2 Br 0.73851(6) 0.79661(14) 0.66007(10)
Br4_2 Br 0.83094(8) 0.79699(11) 0.76273(6)
Zn1_2 Zn 0.92626(11) 0.3812(3) 0.39493(15)
N1_3 N 0.93503(12) 0.4775(3) 0.44397(12)
N2_2 N 0.91963(12) 0.7087(3) 0.55487(13)
N3_2 N 0.95246(12) 0.8448(3) 0.58213(14)
N4_2 N 0.97297(10) 0.7641(2) 0.52709(11)
N5_2 N 0.8419(2) 0.8292(4) 0.6588(2)
C1_3 C 0.96553(14) 0.5330(3) 0.44876(15)
H1_3 H 0.984667 0.523002 0.432870
C2_3 C 0.96982(13) 0.6059(3) 0.47684(15)
H2_3 H 0.991700 0.643976 0.479690
C3_2 C 0.94225(13) 0.6219(3) 0.50019(13)
C4_3 C 0.9120(2) 0.5613(5) 0.4965(2)
H3_2 H 0.893508 0.567242 0.513490
C5_3 C 0.9090(2) 0.4907(4) 0.4672(2)
H4_3 H 0.887562 0.451241 0.464027
C6_2 C 0.94504(13) 0.7030(3) 0.52879(13)
C7_2 C 0.92443(15) 0.7817(3) 0.58003(16)
C8_2 C 0.97578(13) 0.8324(3) 0.55445(14)
C9_2 C 0.8324(3) 0.7775(5) 0.6239(3)
H5_2 H 0.807092 0.752577 0.616599
C10_2 C 0.8584(2) 0.7596(6) 0.5985(3)
H6_2 H 0.850882 0.721604 0.574813
C11_2 C 0.89566(18) 0.7972(4) 0.6074(2)
C12_2 C 0.9045(3) 0.8540(9) 0.6426(4)
H7_2 H 0.928813 0.883684 0.649331
C13_2 C 0.8773(4) 0.8664(9) 0.6677(4)
H8_2 H 0.884271 0.902821 0.691976
H11_2 H 0.994352 0.981016 0.601284
N14_2 N 0.88360(13) 0.4500(2) 0.35077(13)
Br3_3 Br 0.23851(6) 0.70339(14) 0.16007(10)
Br4_3 Br 0.33094(8) 0.70301(11) 0.26273(6)
Br5_2 Br 0.59989(9) 0.25512(16) 0.09780(7)
Br6_2 Br 0.63760(10) 0.3972(3) 0.00103(9)
Zn2_2 Zn 0.29973(7) 0.64930(15) 0.19499(8)
Zn3_2 Zn 0.61584(10) 0.3885(2) 0.06504(9)
N2_3 N 0.41963(12) 0.7913(3) 0.05487(13)
N3_3 N 0.45246(12) 0.6552(3) 0.08213(14)
N4_3 N 0.47297(10) 0.7359(2) 0.02709(11)
N5_3 N 0.3419(2) 0.6708(4) 0.1588(2)
N6_2 N 0.56770(11) 0.4732(3) 0.05837(15)
N7_2 N 0.65762(11) 0.4570(2) 0.11249(13)
N8_3 N 0.75405(10) 0.6852(2) 0.19118(11)
N9_3 N 0.80989(10) 0.6823(2) 0.24916(11)
N10_3 N 0.77344(10) 0.5468(2) 0.22895(11)
C3_3 C 0.44225(13) 0.8781(3) 0.00019(13)
H3_3 H 0.393508 0.932758 0.013490
C6_3 C 0.44504(13) 0.7970(3) 0.02879(13)
C7_3 C 0.42443(15) 0.7183(3) 0.08003(16)
C8_3 C 0.47578(13) 0.6676(3) 0.05445(14)
C9_3 C 0.3324(3) 0.7225(5) 0.1239(3)
H5_3 H 0.307092 0.747423 0.116599
C10_3 C 0.3584(2) 0.7404(6) 0.0985(3)
H6_3 H 0.350882 0.778396 0.074813
C11_3 C 0.39566(18) 0.7028(4) 0.1074(2)
C12_3 C 0.4045(3) 0.6460(9) 0.1426(4)
H7_3 H 0.428813 0.616316 0.149331
C13_3 C 0.3773(4) 0.6336(9) 0.1677(4)
H8_3 H 0.384271 0.597179 0.191976
C14_3 C 0.56161(14) 0.5384(3) 0.02999(16)
H9_3 H 0.578040 0.542064 0.010586
C15_3 C 0.53159(14) 0.6029(3) 0.02738(15)
H10_3 H 0.528582 0.648687 0.006810
C16_3 C 0.50710(13) 0.5989(3) 0.05451(15)
C17_3 C 0.5115(2) 0.5266(6) 0.0829(3)
H11_3 H 0.494352 0.518984 0.101284
C18_2 C 0.5424(2) 0.4654(6) 0.0832(3)
H12_2 H 0.545153 0.416381 0.102002
C19_3 C 0.66130(16) 0.5467(3) 0.11114(19)
H13_3 H 0.643513 0.578760 0.090315
C20_3 C 0.68969(16) 0.5947(3) 0.13857(18)
H14_3 H 0.690568 0.657922 0.137147
C21_3 C 0.71747(12) 0.5468(3) 0.16893(13)
C22_2 C 0.71390(13) 0.4542(3) 0.17036(17)
H15_2 H 0.731523 0.420046 0.190436
C23_2 C 0.68361(13) 0.4122(3) 0.14142(18)
H16_2 H 0.681495 0.349127 0.142454
C24_3 C 0.74993(12) 0.5961(3) 0.19819(13)
C25_3 C 0.78408(12) 0.7245(3) 0.21817(14)
C26_3 C 0.80309(13) 0.5940(3) 0.25307(13)
C27_3 C 0.7684(2) 0.9653(4) 0.1804(3)
H17_3 H 0.750602 0.997805 0.159729
C28_3 C 0.7625(2) 0.8741(4) 0.1838(3)
H18_3 H 0.740993 0.845376 0.166268
C29_3 C 0.78961(14) 0.8248(3) 0.21412(15)
C30_3 C 0.8204(2) 0.8695(4) 0.2385(2)
H19_3 H 0.838929 0.838137 0.258826
C31_3 C 0.8242(3) 0.9618(4) 0.2333(2)
H20_3 H 0.845709 0.992035 0.250060
C32_2 C 0.85649(17) 0.4053(3) 0.32202(15)
H21_2 H 0.855336 0.342113 0.323820
C33_2 C 0.82997(15) 0.4493(3) 0.28956(14)
H22_2 H 0.811967 0.415991 0.269497
C34_3 C 0.83060(13) 0.5426(3) 0.28738(13)
C35_3 C 0.85762(18) 0.5890(3) 0.31761(18)
H23_3 H 0.858691 0.652276 0.317222
C36_3 C 0.8832(2) 0.5399(3) 0.34864(19)
H24_3 H 0.901252 0.571899 0.369232
N13_2 N 0.29763(19) 0.5094(3) 0.20451(19)
N8_4 N 0.25405(10) 0.1852(2) 0.19118(11)
N9_4 N 0.30989(10) 0.1823(2) 0.24916(11)
N10_4 N 0.27344(10) 0.0468(2) 0.22895(11)
C14_4 C 0.06161(14) 0.0384(3) 0.02999(16)
H9_4 H 0.078040 0.042064 0.010586
C15_4 C 0.03159(14) 0.1029(3) 0.02738(15)
H10_4 H 0.028582 0.148687 0.006810
C16_4 C 0.00710(13) 0.0989(3) 0.05451(15)
C17_4 C 0.0115(2) 0.0266(6) 0.0829(3)
C19_4 C 0.16130(16) 0.0467(3) 0.11114(19)
H13_4 H 0.143513 0.078760 0.090315
C20_4 C 0.18969(16) 0.0947(3) 0.13857(18)
H14_4 H 0.190568 0.157922 0.137147
C21_4 C 0.21747(12) 0.0468(3) 0.16893(13)
C24_4 C 0.24993(12) 0.0961(3) 0.19819(13)
C25_4 C 0.28408(12) 0.2245(3) 0.21817(14)
C26_4 C 0.30309(13) 0.0940(3) 0.25307(13)
C27_4 C 0.2684(2) 0.4653(4) 0.1804(3)
H17_4 H 0.250602 0.497805 0.159729
C28_4 C 0.2625(2) 0.3741(4) 0.1838(3)
H18_4 H 0.240993 0.345376 0.166268
C29_4 C 0.28961(14) 0.3248(3) 0.21412(15)
C30_4 C 0.3204(2) 0.3695(4) 0.2385(2)
H19_4 H 0.338929 0.338137 0.258826
C31_4 C 0.3242(3) 0.4618(4) 0.2333(2)
H20_4 H 0.345709 0.492035 0.250060
C34_4 C 0.33060(13) 0.0426(3) 0.28738(13)
C35_4 C 0.35762(18) 0.0890(3) 0.31761(18)
H23_4 H 0.358691 0.152276 0.317222
C36_4 C 0.3832(2) 0.0399(3) 0.34864(19)
H24_4 H 0.401252 0.071899 0.369232
Br5_3 Br 0.09989(9) 0.75512(16) 0.09780(7)
Br6_3 Br 0.13760(10) 0.8972(3) 0.00103(9)
Zn3_3 Zn 0.11584(10) 0.8885(2) 0.06504(9)
N6_3 N 0.06770(11) 0.9732(3) 0.05837(15)
N7_3 N 0.15762(11) 0.9570(2) 0.11249(13)
C18_3 C 0.0424(2) 0.9654(6) 0.0832(3)
H12_3 H 0.045153 0.916381 0.102002
C22_3 C 0.21390(13) 0.9542(3) 0.17036(17)
H15_3 H 0.231523 0.920046 0.190436
C23_3 C 0.18361(13) 0.9122(3) 0.14142(18)
H16_3 H 0.181495 0.849127 0.142454
C32_3 C 0.35649(17) 0.9053(3) 0.32202(15)
H21_3 H 0.355336 0.842113 0.323820
C33_3 C 0.32997(15) 0.9493(3) 0.28956(14)
H22_3 H 0.311967 0.915991 0.269497
C1_4 C 0.53447(14) 0.0330(3) 0.05124(15)
H1_4 H 0.515333 0.023002 0.067130
C2_4 C 0.53018(13) 0.1059(3) 0.02316(15)
H2_4 H 0.508300 0.143976 0.020310
C4_4 C 0.5880(2) 0.0613(5) 0.0035(2)
Br3_4 Br 0.76149(6) 0.29661(14) 0.83993(10)
Br4_4 Br 0.66906(8) 0.29699(11) 0.73727(6)
Br5_4 Br 0.40011(9) 0.74488(16) 0.90220(7)
Br6_4 Br 0.36240(10) 0.6028(3) 0.99897(9)
Zn2_3 Zn 0.70027(7) 0.35070(15) 0.80501(8)
Zn3_4 Zn 0.38416(10) 0.6115(2) 0.93496(9)
N2_4 N 0.58037(12) 0.2087(3) 0.94513(13)
N3_4 N 0.54754(12) 0.3448(3) 0.91787(14)
N4_4 N 0.52703(10) 0.2641(2) 0.97291(11)
N5_4 N 0.6581(2) 0.3292(4) 0.8412(2)
N6_4 N 0.43230(11) 0.5268(3) 0.94163(15)
N7_4 N 0.34238(11) 0.5430(2) 0.88751(13)
N8_5 N 0.24595(10) 0.3148(2) 0.80882(11)
N9_5 N 0.19011(10) 0.3177(2) 0.75084(11)
N10_5 N 0.22656(10) 0.4532(2) 0.77105(11)
N12_2 N 0.11640(13) 0.5500(2) 0.64923(13)
C3_4 C 0.55775(13) 0.1219(3) 0.99981(13)
H3_4 H 0.606492 0.067242 0.986510
C6_4 C 0.55496(13) 0.2030(3) 0.97121(13)
C7_4 C 0.57557(15) 0.2817(3) 0.91997(16)
C8_4 C 0.52422(13) 0.3324(3) 0.94555(14)
C9_4 C 0.6676(3) 0.2775(5) 0.8761(3)
H5_4 H 0.692908 0.252577 0.883401
C10_4 C 0.6416(2) 0.2596(6) 0.9015(3)
H6_4 H 0.649118 0.221604 0.925187
C11_4 C 0.60434(18) 0.2972(4) 0.8926(2)
C12_4 C 0.5955(3) 0.3540(9) 0.8574(4)
H7_4 H 0.571187 0.383684 0.850669
C13_4 C 0.6227(4) 0.3664(9) 0.8323(4)
H8_4 H 0.615729 0.402821 0.808024
C14_5 C 0.43839(14) 0.4616(3) 0.97001(16)
H9_5 H 0.421960 0.457936 0.989414
C15_5 C 0.46841(14) 0.3971(3) 0.97262(15)
H10_5 H 0.471418 0.351313 0.993190
C16_5 C 0.49290(13) 0.4011(3) 0.94549(15)
C17_5 C 0.4885(2) 0.4734(6) 0.9171(3)
H11_4 H 0.505648 0.481016 0.898716
C18_4 C 0.4576(2) 0.5346(6) 0.9168(3)
H12_4 H 0.454847 0.583619 0.897998
C19_5 C 0.33870(16) 0.4533(3) 0.88886(19)
H13_5 H 0.356487 0.421240 0.909685
C20_5 C 0.31031(16) 0.4053(3) 0.86143(18)
H14_5 H 0.309432 0.342078 0.862853
C21_5 C 0.28253(12) 0.4532(3) 0.83107(13)
C22_4 C 0.28610(13) 0.5458(3) 0.82964(17)
H15_4 H 0.268477 0.579954 0.809564
C23_4 C 0.31639(13) 0.5878(3) 0.85858(18)
H16_4 H 0.318505 0.650873 0.857546
C24_5 C 0.25007(12) 0.4039(3) 0.80181(13)
C25_5 C 0.21592(12) 0.2755(3) 0.78183(14)
C26_5 C 0.19691(13) 0.4060(3) 0.74693(13)
C27_5 C 0.2316(2) 0.0347(4) 0.8196(3)
H17_5 H 0.249398 0.002195 0.840271
C28_5 C 0.2375(2) 0.1259(4) 0.8162(3)
H18_5 H 0.259007 0.154624 0.833732
C29_5 C 0.21039(14) 0.1752(3) 0.78588(15)
C30_5 C 0.1796(2) 0.1305(4) 0.7615(2)
H19_5 H 0.161071 0.161863 0.741174
C31_5 C 0.1758(3) 0.0382(4) 0.7667(2)
H20_5 H 0.154291 0.007965 0.749940
C32_4 C 0.14351(17) 0.5947(3) 0.67798(15)
H21_4 H 0.144664 0.657887 0.676180
C33_4 C 0.17003(15) 0.5507(3) 0.71044(14)
H22_4 H 0.188033 0.584009 0.730503
C34_5 C 0.16940(13) 0.4574(3) 0.71262(13)
C35_5 C 0.14238(18) 0.4110(3) 0.68239(18)
H23_5 H 0.141309 0.347724 0.682778
C36_5 C 0.1168(2) 0.4601(3) 0.65136(19)
H24_5 H 0.098748 0.428101 0.630768
Zn4_2 Zn 0.07374(11) 0.6188(3) 0.60507(15)
N13_3 N 0.70237(19) 0.4906(3) 0.79549(19)
Br5_5 Br 0.90011(9) 0.24488(16) 0.90220(7)
Br6_5 Br 0.86240(10) 0.1028(3) 0.99897(9)
Zn3_5 Zn 0.88416(10) 0.1115(2) 0.93496(9)
N6_5 N 0.93230(11) 0.0268(3) 0.94163(15)
N7_5 N 0.84238(11) 0.0430(2) 0.88751(13)
N12_3 N 0.61640(13) 0.0500(2) 0.64923(13)
C18_5 C 0.9576(2) 0.0346(6) 0.9168(3)
H12_5 H 0.954847 0.083619 0.897998
C22_5 C 0.78610(13) 0.0458(3) 0.82964(17)
H15_5 H 0.768477 0.079954 0.809564
C23_5 C 0.81639(13) 0.0878(3) 0.85858(18)
H16_5 H 0.818505 0.150873 0.857546
C32_5 C 0.64351(17) 0.0947(3) 0.67798(15)
H21_5 H 0.644664 0.157887 0.676180
C33_5 C 0.67003(15) 0.0507(3) 0.71044(14)
H22_5 H 0.688033 0.084009 0.730503
Zn4_3 Zn 0.57374(11) 0.1188(3) 0.60507(15)
N8_6 N 0.74595(10) 0.8148(2) 0.80882(11)
N9_6 N 0.69011(10) 0.8177(2) 0.75084(11)
N10_6 N 0.72656(10) 0.9532(2) 0.77105(11)
C14_6 C 0.93839(14) 0.9616(3) 0.97001(16)
H9_6 H 0.921960 0.957936 0.989414
C15_6 C 0.96841(14) 0.8971(3) 0.97262(15)
H10_6 H 0.971418 0.851313 0.993190
C16_6 C 0.99290(13) 0.9011(3) 0.94549(15)
C17_6 C 0.9885(2) 0.9734(6) 0.9171(3)
C19_6 C 0.83870(16) 0.9533(3) 0.88886(19)
H13_6 H 0.856487 0.921240 0.909685
C20_6 C 0.81031(16) 0.9053(3) 0.86143(18)
H14_6 H 0.809432 0.842078 0.862853
C21_6 C 0.78253(12) 0.9532(3) 0.83107(13)
C24_6 C 0.75007(12) 0.9039(3) 0.80181(13)
C25_6 C 0.71592(12) 0.7755(3) 0.78183(14)
C26_6 C 0.69691(13) 0.9060(3) 0.74693(13)
C27_6 C 0.7316(2) 0.5347(4) 0.8196(3)
H17_6 H 0.749398 0.502195 0.840271
C28_6 C 0.7375(2) 0.6259(4) 0.8162(3)
H18_6 H 0.759007 0.654624 0.833732
C29_6 C 0.71039(14) 0.6752(3) 0.78588(15)
C30_6 C 0.6796(2) 0.6305(4) 0.7615(2)
H19_6 H 0.661071 0.661863 0.741174
C31_6 C 0.6758(3) 0.5382(4) 0.7667(2)
H20_6 H 0.654291 0.507965 0.749940
C34_6 C 0.66940(13) 0.9574(3) 0.71262(13)
C35_6 C 0.64238(18) 0.9110(3) 0.68239(18)
H23_6 H 0.641309 0.847724 0.682778
C36_6 C 0.6168(2) 0.9601(3) 0.65136(19)
H24_6 H 0.598748 0.928101 0.630768
Br1_4 Br 0.60716(18) 0.2456(4) 0.5846(2)
Br2_4 Br 0.51527(15) 0.1347(5) 0.62957(17)
N1_4 N 0.56497(12) 0.0225(3) 0.55603(12)
N11_2 N 0.20237(19) 0.0094(3) 0.29549(19)
C5_4 C 0.5910(2) 0.0093(4) 0.5328(2)
H4_4 H 0.612438 0.048759 0.535973
Zn5_2 Zn 0.20027(7) 0.14930(15) 0.30501(8)
Br1_5 Br 0.10716(18) 0.7456(4) 0.5846(2)
Br2_5 Br 0.01527(15) 0.6347(5) 0.62957(17)
Br3_5 Br 0.26149(6) 0.20339(14) 0.33993(10)
Br4_5 Br 0.16906(8) 0.20301(11) 0.23727(6)
N1_5 N 0.06497(12) 0.5225(3) 0.55603(12)
N2_5 N 0.08037(12) 0.2913(3) 0.44513(13)
N3_5 N 0.04754(12) 0.1552(3) 0.41787(14)
N4_5 N 0.02703(10) 0.2359(2) 0.47291(11)
N5_5 N 0.1581(2) 0.1708(4) 0.3412(2)
C1_5 C 0.03447(14) 0.4670(3) 0.55124(15)
H1_5 H 0.015333 0.476998 0.567130
C2_5 C 0.03018(13) 0.3941(3) 0.52316(15)
H2_5 H 0.008300 0.356024 0.520310
C3_5 C 0.05775(13) 0.3781(3) 0.49981(13)
C4_5 C 0.0880(2) 0.4387(5) 0.5035(2)
H3_5 H 0.106492 0.432758 0.486510
C5_5 C 0.0910(2) 0.5093(4) 0.5328(2)
H4_5 H 0.112438 0.548759 0.535973
C6_5 C 0.05496(13) 0.2970(3) 0.47121(13)
C7_5 C 0.07557(15) 0.2183(3) 0.41997(16)
C8_5 C 0.02422(13) 0.1676(3) 0.44555(14)
C9_5 C 0.1676(3) 0.2225(5) 0.3761(3)
H5_5 H 0.192908 0.247423 0.383401
C10_5 C 0.1416(2) 0.2404(6) 0.4015(3)
H6_5 H 0.149118 0.278396 0.425187
C11_5 C 0.10434(18) 0.2028(4) 0.3926(2)
C12_5 C 0.0955(3) 0.1460(9) 0.3574(4)
H7_5 H 0.071187 0.116316 0.350669
C13_5 C 0.1227(4) 0.1336(9) 0.3323(4)
H8_5 H 0.115729 0.097179 0.308024
H11_5 H 0.005648 0.018984 0.398716
Br1_6 Br 0.60716(18) 0.7544(4) 0.0846(2)
Br2_6 Br 0.51527(15) 0.8653(5) 0.12957(17)
Zn1_3 Zn 0.57374(11) 0.8812(3) 0.10507(15)
N1_6 N 0.56497(12) 0.9775(3) 0.05603(12)
C5_6 C 0.5910(2) 0.9907(4) 0.0328(2)
H4_6 H 0.612438 0.951241 0.035973
N14_3 N 0.61640(13) 0.9500(2) 0.14923(13)
Br5_6 Br 0.90011(9) 0.75512(16) 0.40220(7)
Br6_6 Br 0.86240(10) 0.8972(3) 0.49897(9)
Zn3_6 Zn 0.88416(10) 0.8885(2) 0.43496(9)
N6_6 N 0.93230(11) 0.9732(3) 0.44163(15)
N7_6 N 0.84238(11) 0.9570(2) 0.38751(13)
C18_6 C 0.9576(2) 0.9654(6) 0.4168(3)
H12_6 H 0.954847 0.916381 0.397998
C22_6 C 0.78610(13) 0.9542(3) 0.32964(17)
H15_6 H 0.768477 0.920046 0.309564
C23_6 C 0.81639(13) 0.9122(3) 0.35858(18)
H16_6 H 0.818505 0.849127 0.357546
C32_6 C 0.64351(17) 0.9053(3) 0.17798(15)
H21_6 H 0.644664 0.842113 0.176180
C33_6 C 0.67003(15) 0.9493(3) 0.21044(14)
H22_6 H 0.688033 0.915991 0.230503
N11_3 N 0.20237(19) 0.9906(3) 0.79549(19)
Zn5_3 Zn 0.20027(7) 0.85070(15) 0.80501(8)
Br3_6 Br 0.26149(6) 0.79661(14) 0.83993(10)
Br4_6 Br 0.16906(8) 0.79699(11) 0.73727(6)
N2_6 N 0.08037(12) 0.7087(3) 0.94513(13)
N3_6 N 0.04754(12) 0.8448(3) 0.91787(14)
N4_6 N 0.02703(10) 0.7641(2) 0.97291(11)
N5_6 N 0.1581(2) 0.8292(4) 0.8412(2)
C3_6 C 0.05775(13) 0.6219(3) 0.99981(13)
H3_6 H 0.106492 0.567242 0.986510
C6_6 C 0.05496(13) 0.7030(3) 0.97121(13)
C7_6 C 0.07557(15) 0.7817(3) 0.91997(16)
C8_6 C 0.02422(13) 0.8324(3) 0.94555(14)
C9_6 C 0.1676(3) 0.7775(5) 0.8761(3)
H5_6 H 0.192908 0.752577 0.883401
C10_6 C 0.1416(2) 0.7596(6) 0.9015(3)
H6_6 H 0.149118 0.721604 0.925187
C11_6 C 0.10434(18) 0.7972(4) 0.8926(2)
C12_6 C 0.0955(3) 0.8540(9) 0.8574(4)
H7_6 H 0.071187 0.883684 0.850669
C13_6 C 0.1227(4) 0.8664(9) 0.8323(4)
H8_6 H 0.115729 0.902821 0.808024
H11_6 H 0.005648 0.981016 0.898716
Br5_7 Br 0.09989(9) 0.24488(16) 0.59780(7)
Br6_7 Br 0.13760(10) 0.1028(3) 0.50103(9)
Zn3_7 Zn 0.11584(10) 0.1115(2) 0.56504(9)
N6_7 N 0.06770(11) 0.0268(3) 0.55837(15)
N7_7 N 0.15762(11) 0.0430(2) 0.61249(13)
N12_4 N 0.38360(13) 0.0500(2) 0.85077(13)
C18_7 C 0.0424(2) 0.0346(6) 0.5832(3)
H12_7 H 0.045153 0.083619 0.602002
C22_7 C 0.21390(13) 0.0458(3) 0.67036(17)
H15_7 H 0.231523 0.079954 0.690436
C23_7 C 0.18361(13) 0.0878(3) 0.64142(18)
H16_7 H 0.181495 0.150873 0.642454
C32_7 C 0.35649(17) 0.0947(3) 0.82202(15)
H21_7 H 0.355336 0.157887 0.823820
C33_7 C 0.32997(15) 0.0507(3) 0.78956(14)
H22_7 H 0.311967 0.084009 0.769497
Zn4_4 Zn 0.42626(11) 0.1188(3) 0.89493(15)
Br1_7 Br 0.39284(18) 0.2456(4) 0.9154(2)
Br2_7 Br 0.48473(15) 0.1347(5) 0.87043(17)
N1_7 N 0.43503(12) 0.0225(3) 0.94397(12)
C5_7 C 0.4090(2) 0.0093(4) 0.9672(2)
H4_7 H 0.387562 0.048759 0.964027
Br1_8 Br 0.10716(18) 0.2544(4) 0.0846(2)
Br2_8 Br 0.01527(15) 0.3653(5) 0.12957(17)
Zn1_4 Zn 0.07374(11) 0.3812(3) 0.10507(15)
N1_8 N 0.06497(12) 0.4775(3) 0.05603(12)
C1_6 C 0.03447(14) 0.5330(3) 0.05124(15)
H1_6 H 0.015333 0.523002 0.067130
C2_6 C 0.03018(13) 0.6059(3) 0.02316(15)
H2_6 H 0.008300 0.643976 0.020310
C4_6 C 0.0880(2) 0.5613(5) 0.0035(2)
C5_8 C 0.0910(2) 0.4907(4) 0.0328(2)
H4_8 H 0.112438 0.451241 0.035973
N14_4 N 0.11640(13) 0.4500(2) 0.14923(13)
Br3_7 Br 0.76149(6) 0.70339(14) 0.33993(10)
Br4_7 Br 0.66906(8) 0.70301(11) 0.23727(6)
Br5_8 Br 0.40011(9) 0.25512(16) 0.40220(7)
Br6_8 Br 0.36240(10) 0.3972(3) 0.49897(9)
Zn2_4 Zn 0.70027(7) 0.64930(15) 0.30501(8)
Zn3_8 Zn 0.38416(10) 0.3885(2) 0.43496(9)
N2_7 N 0.58037(12) 0.7913(3) 0.44513(13)
N3_7 N 0.54754(12) 0.6552(3) 0.41787(14)
N4_7 N 0.52703(10) 0.7359(2) 0.47291(11)
N5_7 N 0.6581(2) 0.6708(4) 0.3412(2)
N6_8 N 0.43230(11) 0.4732(3) 0.44163(15)
N7_8 N 0.34238(11) 0.4570(2) 0.38751(13)
N8_7 N 0.24595(10) 0.6852(2) 0.30882(11)
N9_7 N 0.19011(10) 0.6823(2) 0.25084(11)
N10_7 N 0.22656(10) 0.5468(2) 0.27105(11)
C1_7 C 0.53447(14) 0.9670(3) 0.55124(15)
H1_7 H 0.515333 0.976998 0.567130
C2_7 C 0.53018(13) 0.8941(3) 0.52316(15)
H2_7 H 0.508300 0.856024 0.520310
C3_7 C 0.55775(13) 0.8781(3) 0.49981(13)
C4_7 C 0.5880(2) 0.9387(5) 0.5035(2)
H3_7 H 0.606492 0.932758 0.486510
C6_7 C 0.55496(13) 0.7970(3) 0.47121(13)
C7_7 C 0.57557(15) 0.7183(3) 0.41997(16)
C8_7 C 0.52422(13) 0.6676(3) 0.44555(14)
C9_7 C 0.6676(3) 0.7225(5) 0.3761(3)
H5_7 H 0.692908 0.747423 0.383401
C10_7 C 0.6416(2) 0.7404(6) 0.4015(3)
H6_7 H 0.649118 0.778396 0.425187
C11_7 C 0.60434(18) 0.7028(4) 0.3926(2)
C12_7 C 0.5955(3) 0.6460(9) 0.3574(4)
H7_7 H 0.571187 0.616316 0.350669
C13_7 C 0.6227(4) 0.6336(9) 0.3323(4)
H8_7 H 0.615729 0.597179 0.308024
C14_7 C 0.43839(14) 0.5384(3) 0.47001(16)
H9_7 H 0.421960 0.542064 0.489414
C15_7 C 0.46841(14) 0.6029(3) 0.47262(15)
H10_7 H 0.471418 0.648687 0.493190
C16_7 C 0.49290(13) 0.5989(3) 0.44549(15)
C17_7 C 0.4885(2) 0.5266(6) 0.4171(3)
H11_7 H 0.505648 0.518984 0.398716
C18_8 C 0.4576(2) 0.4654(6) 0.4168(3)
H12_8 H 0.454847 0.416381 0.397998
C19_7 C 0.33870(16) 0.5467(3) 0.38886(19)
H13_7 H 0.356487 0.578760 0.409685
C20_7 C 0.31031(16) 0.5947(3) 0.36143(18)
H14_7 H 0.309432 0.657922 0.362853
C21_7 C 0.28253(12) 0.5468(3) 0.33107(13)
C22_8 C 0.28610(13) 0.4542(3) 0.32964(17)
H15_8 H 0.268477 0.420046 0.309564
C23_8 C 0.31639(13) 0.4122(3) 0.35858(18)
H16_8 H 0.318505 0.349127 0.357546
C24_7 C 0.25007(12) 0.5961(3) 0.30181(13)
C25_7 C 0.21592(12) 0.7245(3) 0.28183(14)
C26_7 C 0.19691(13) 0.5940(3) 0.24693(13)
C27_7 C 0.2316(2) 0.9653(4) 0.3196(3)
H17_7 H 0.249398 0.997805 0.340271
C28_7 C 0.2375(2) 0.8741(4) 0.3162(3)
H18_7 H 0.259007 0.845376 0.333732
C29_7 C 0.21039(14) 0.8248(3) 0.28588(15)
C30_7 C 0.1796(2) 0.8695(4) 0.2615(2)
H19_7 H 0.161071 0.838137 0.241174
C31_7 C 0.1758(3) 0.9618(4) 0.2667(2)
H20_7 H 0.154291 0.992035 0.249940
C32_8 C 0.14351(17) 0.4053(3) 0.17798(15)
H21_8 H 0.144664 0.342113 0.176180
C33_8 C 0.17003(15) 0.4493(3) 0.21044(14)
H22_8 H 0.188033 0.415991 0.230503
C34_7 C 0.16940(13) 0.5426(3) 0.21262(13)
C35_7 C 0.14238(18) 0.5890(3) 0.18239(18)
H23_7 H 0.141309 0.652276 0.182778
C36_7 C 0.1168(2) 0.5399(3) 0.15136(19)
H24_7 H 0.098748 0.571899 0.130768
N13_4 N 0.70237(19) 0.5094(3) 0.29549(19)
N8_8 N 0.74595(10) 0.1852(2) 0.30882(11)
N9_8 N 0.69011(10) 0.1823(2) 0.25084(11)
N10_8 N 0.72656(10) 0.0468(2) 0.27105(11)
C14_8 C 0.93839(14) 0.0384(3) 0.47001(16)
H9_8 H 0.921960 0.042064 0.489414
C15_8 C 0.96841(14) 0.1029(3) 0.47262(15)
H10_8 H 0.971418 0.148687 0.493190
C16_8 C 0.99290(13) 0.0989(3) 0.44549(15)
C17_8 C 0.9885(2) 0.0266(6) 0.4171(3)
C19_8 C 0.83870(16) 0.0467(3) 0.38886(19)
H13_8 H 0.856487 0.078760 0.409685
C20_8 C 0.81031(16) 0.0947(3) 0.36143(18)
H14_8 H 0.809432 0.157922 0.362853
C21_8 C 0.78253(12) 0.0468(3) 0.33107(13)
C24_8 C 0.75007(12) 0.0961(3) 0.30181(13)
C25_8 C 0.71592(12) 0.2245(3) 0.28183(14)
C26_8 C 0.69691(13) 0.0940(3) 0.24693(13)
C27_8 C 0.7316(2) 0.4653(4) 0.3196(3)
H17_8 H 0.749398 0.497805 0.340271
C28_8 C 0.7375(2) 0.3741(4) 0.3162(3)
H18_8 H 0.759007 0.345376 0.333732
C29_8 C 0.71039(14) 0.3248(3) 0.28588(15)
C30_8 C 0.6796(2) 0.3695(4) 0.2615(2)
H19_8 H 0.661071 0.338137 0.241174
C31_8 C 0.6758(3) 0.4618(4) 0.2667(2)
H20_8 H 0.654291 0.492035 0.249940
C34_8 C 0.66940(13) 0.0426(3) 0.21262(13)
C35_8 C 0.64238(18) 0.0890(3) 0.18239(18)
H23_8 H 0.641309 0.152276 0.182778
C36_8 C 0.6168(2) 0.0399(3) 0.15136(19)
H24_8 H 0.598748 0.071899 0.130768
N11_4 N 0.79763(19) 0.0094(3) 0.20451(19)
Zn5_4 Zn 0.79973(7) 0.14930(15) 0.19499(8)
Br3_8 Br 0.73851(6) 0.20339(14) 0.16007(10)
Br4_8 Br 0.83094(8) 0.20301(11) 0.26273(6)
N2_8 N 0.91963(12) 0.2913(3) 0.05487(13)
N3_8 N 0.95246(12) 0.1552(3) 0.08213(14)
N4_8 N 0.97297(10) 0.2359(2) 0.02709(11)
N5_8 N 0.8419(2) 0.1708(4) 0.1588(2)
C3_8 C 0.94225(13) 0.3781(3) 0.00019(13)
H3_8 H 0.893508 0.432758 0.013490
C6_8 C 0.94504(13) 0.2970(3) 0.02879(13)
C7_8 C 0.92443(15) 0.2183(3) 0.08003(16)
C8_8 C 0.97578(13) 0.1676(3) 0.05445(14)
C9_8 C 0.8324(3) 0.2225(5) 0.1239(3)
H5_8 H 0.807092 0.247423 0.116599
C10_8 C 0.8584(2) 0.2404(6) 0.0985(3)
H6_8 H 0.850882 0.278396 0.074813
C11_8 C 0.89566(18) 0.2028(4) 0.1074(2)
C12_8 C 0.9045(3) 0.1460(9) 0.1426(4)
H7_8 H 0.928813 0.116316 0.149331
C13_8 C 0.8773(4) 0.1336(9) 0.1677(4)
H8_8 H 0.884271 0.097179 0.191976
H11_8 H 0.994352 0.018984 0.101284
C1_8 C 0.46553(14) 0.9670(3) 0.94876(15)
H1_8 H 0.484667 0.976998 0.932870
C2_8 C 0.46982(13) 0.8941(3) 0.97684(15)
H2_8 H 0.491700 0.856024 0.979690
C4_8 C 0.4120(2) 0.9387(5) 0.9965(2)
loop_
_geom_bond_atom_site_label_1
_geom_bond_atom_site_label_2
_geom_bond_site_symmetry_1
_geom_bond_site_symmetry_2
Br3 Zn2 1_555 1_555
Br4 Zn2 1_555 1_555
Br5 Zn3 1_555 1_555
Br6 Zn3 1_555 1_555
Zn2 N5 1_555 1_555
Zn3 N6 1_555 1_555
N2 C6 1_555 1_555
N3 C7 1_555 1_555
N4 C6 1_555 1_555
N5 C9 1_555 1_555
N6 C14 1_555 1_555
N7 Zn3 1_555 1_555
N8 C24 1_555 1_555
N9 C25 1_555 1_555
N10 C24 1_555 1_555
N12 C32 1_555 1_555
C1 H1 1_555 1_555
C2 C1 1_555 1_555
H2 C2 1_555 1_555
C3 C2 1_555 1_555
C4 C3 1_555 1_555
H3 C4 1_555 1_555
C6 C3 1_555 1_555
C7 N2 1_555 1_555
C8 N3 1_555 1_555
C9 H5 1_555 1_555
C10 C9 1_555 1_555
H6 C10 1_555 1_555
C11 C7 1_555 1_555
C12 C11 1_555 1_555
H7 C12 1_555 1_555
C13 N5 1_555 1_555
H8 C13 1_555 1_555
C14 H9 1_555 1_555
C15 C14 1_555 1_555
H10 C15 1_555 1_555
C16 C8 1_555 1_555
C17 C16 1_555 1_555
H11 C17 1_555 1_555
C18 N6 1_555 1_555
H12 C18 1_555 1_555
C19 N7 1_555 1_555
H13 C19 1_555 1_555
C20 C19 1_555 1_555
H14 C20 1_555 1_555
C21 C20 1_555 1_555
C22 C21 1_555 1_555
H15 C22 1_555 1_555
C23 N7 1_555 1_555
H16 C23 1_555 1_555
C24 C21 1_555 1_555
C25 N8 1_555 1_555
C26 N9 1_555 1_555
C27 H17 1_555 1_555
C28 C27 1_555 1_555
H18 C28 1_555 1_555
C29 C25 1_555 1_555
C30 C29 1_555 1_555
H19 C30 1_555 1_555
H20 C31 1_555 1_555
C32 H21 1_555 1_555
C33 C32 1_555 1_555
H22 C33 1_555 1_555
C34 C26 1_555 1_555
C35 C34 1_555 1_555
H23 C35 1_555 1_555
C36 N12 1_555 1_555
H24 C36 1_555 1_555
Zn4 N12 1_555 1_555
N13 Zn2 1_555 1_555
N4 C8 1_555 1_555
N10 C26 1_555 1_555
C10 C11 1_555 1_555
C12 C13 1_555 1_555
C15 C16 1_555 1_555
C17 C18 1_555 1_555
C22 C23 1_555 1_555
C28 C29 1_555 1_555
C30 C31 1_555 1_555
C33 C34 1_555 1_555
C35 C36 1_555 1_555
N8_2 C24_2 1_555 1_555
N9_2 C25_2 1_555 1_555
N10_2 C24_2 1_555 1_555
N13 C27_2 1_555 1_555
C14_2 H9_2 1_555 1_555
C15_2 C14_2 1_555 1_555
H10_2 C15_2 1_555 1_555
C17_2 C16_2 1_555 1_555
H13_2 C19_2 1_555 1_555
C20_2 C19_2 1_555 1_555
H14_2 C20_2 1_555 1_555
C21_2 C20_2 1_555 1_555
C24_2 C21_2 1_555 1_555
C25_2 N8_2 1_555 1_555
C26_2 N9_2 1_555 1_555
C27_2 H17_2 1_555 1_555
C28_2 C27_2 1_555 1_555
H18_2 C28_2 1_555 1_555
C29_2 C25_2 1_555 1_555
C30_2 C29_2 1_555 1_555
H19_2 C30_2 1_555 1_555
C31_2 N13 1_555 1_555
H20_2 C31_2 1_555 1_555
C34_2 C26_2 1_555 1_555
C35_2 C34_2 1_555 1_555
H23_2 C35_2 1_555 1_555
H24_2 C36_2 1_555 1_555
N10_2 C26_2 1_555 1_555
C15_2 C16_2 1_555 1_555
C28_2 C29_2 1_555 1_555
C30_2 C31_2 1_555 1_555
C35_2 C36_2 1_555 1_555
Br1 Zn4 1_555 1_555
Br2 Zn4 1_555 1_555
Zn4 N1 1_555 1_555
N1 C1_2 1_555 1_555
C1_2 H1_2 1_555 1_555
C2_2 C1_2 1_555 1_555
H2_2 C2_2 1_555 1_555
C5 N1 1_555 1_555
H4 C5 1_555 1_555
C4_2 C5 1_555 1_555
Br1_2 Zn1 1_555 1_555
Br2_2 Zn1 1_555 1_555
Zn1 N1_2 1_555 1_555
C5_2 N1_2 1_555 1_555
H4_2 C5_2 1_555 1_555
Zn5 N11 1_555 1_555
N14 Zn1 1_555 1_555
Br1_3 Zn1_2 1_555 1_555
Br2_3 Zn1_2 1_555 1_555
Br3_2 Zn5 1_555 1_555
Br4_2 Zn5 1_555 1_555
Zn1_2 N1_3 1_555 1_555
Zn5 N5_2 1_555 1_555
N1_3 C1_3 1_555 1_555
N2_2 C6_2 1_555 1_555
N3_2 C7_2 1_555 1_555
N4_2 C6_2 1_555 1_555
N5_2 C9_2 1_555 1_555
C1_3 H1_3 1_555 1_555
C2_3 C1_3 1_555 1_555
H2_3 C2_3 1_555 1_555
C3_2 C2_3 1_555 1_555
C4_3 C3_2 1_555 1_555
H3_2 C4_3 1_555 1_555
C5_3 N1_3 1_555 1_555
H4_3 C5_3 1_555 1_555
C6_2 C3_2 1_555 1_555
C7_2 N2_2 1_555 1_555
C8_2 N3_2 1_555 1_555
C9_2 H5_2 1_555 1_555
C10_2 C9_2 1_555 1_555
H6_2 C10_2 1_555 1_555
C11_2 C7_2 1_555 1_555
C12_2 C11_2 1_555 1_555
H7_2 C12_2 1_555 1_555
C13_2 N5_2 1_555 1_555
H8_2 C13_2 1_555 1_555
N14_2 Zn1_2 1_555 1_555
N4_2 C8_2 1_555 1_555
C4_3 C5_3 1_555 1_555
C10_2 C11_2 1_555 1_555
C12_2 C13_2 1_555 1_555
Br3_3 Zn2_2 1_555 1_555
Br4_3 Zn2_2 1_555 1_555
Br5_2 Zn3_2 1_555 1_555
Br6_2 Zn3_2 1_555 1_555
Zn2_2 N5_3 1_555 1_555
Zn3_2 N6_2 1_555 1_555
N2_3 C6_3 1_555 1_555
N3_3 C7_3 1_555 1_555
N4_3 C6_3 1_555 1_555
N5_3 C9_3 1_555 1_555
N6_2 C14_3 1_555 1_555
N7_2 Zn3_2 1_555 1_555
N8_3 C24_3 1_555 1_555
N9_3 C25_3 1_555 1_555
N10_3 C24_3 1_555 1_555
N14_2 C32_2 1_555 1_555
C6_3 C3_3 1_555 1_555
C7_3 N2_3 1_555 1_555
C8_3 N3_3 1_555 1_555
C9_3 H5_3 1_555 1_555
C10_3 C9_3 1_555 1_555
H6_3 C10_3 1_555 1_555
C11_3 C7_3 1_555 1_555
C12_3 C11_3 1_555 1_555
H7_3 C12_3 1_555 1_555
C13_3 N5_3 1_555 1_555
H8_3 C13_3 1_555 1_555
C14_3 H9_3 1_555 1_555
C15_3 C14_3 1_555 1_555
H10_3 C15_3 1_555 1_555
C16_3 C8_3 1_555 1_555
C17_3 C16_3 1_555 1_555
H11_3 C17_3 1_555 1_555
C18_2 N6_2 1_555 1_555
H12_2 C18_2 1_555 1_555
C19_3 N7_2 1_555 1_555
H13_3 C19_3 1_555 1_555
C20_3 C19_3 1_555 1_555
H14_3 C20_3 1_555 1_555
C21_3 C20_3 1_555 1_555
C22_2 C21_3 1_555 1_555
H15_2 C22_2 1_555 1_555
C23_2 N7_2 1_555 1_555
H16_2 C23_2 1_555 1_555
C24_3 C21_3 1_555 1_555
C25_3 N8_3 1_555 1_555
C26_3 N9_3 1_555 1_555
C27_3 H17_3 1_555 1_555
C28_3 C27_3 1_555 1_555
H18_3 C28_3 1_555 1_555
C29_3 C25_3 1_555 1_555
C30_3 C29_3 1_555 1_555
H19_3 C30_3 1_555 1_555
H20_3 C31_3 1_555 1_555
C32_2 H21_2 1_555 1_555
C33_2 C32_2 1_555 1_555
H22_2 C33_2 1_555 1_555
C34_3 C26_3 1_555 1_555
C35_3 C34_3 1_555 1_555
H23_3 C35_3 1_555 1_555
C36_3 N14_2 1_555 1_555
H24_3 C36_3 1_555 1_555
N13_2 Zn2_2 1_555 1_555
N4_3 C8_3 1_555 1_555
N10_3 C26_3 1_555 1_555
C10_3 C11_3 1_555 1_555
C12_3 C13_3 1_555 1_555
C15_3 C16_3 1_555 1_555
C17_3 C18_2 1_555 1_555
C22_2 C23_2 1_555 1_555
C28_3 C29_3 1_555 1_555
C30_3 C31_3 1_555 1_555
C33_2 C34_3 1_555 1_555
C35_3 C36_3 1_555 1_555
N8_4 C24_4 1_555 1_555
N9_4 C25_4 1_555 1_555
N10_4 C24_4 1_555 1_555
N13_2 C27_4 1_555 1_555
C14_4 H9_4 1_555 1_555
C15_4 C14_4 1_555 1_555
H10_4 C15_4 1_555 1_555
C17_4 C16_4 1_555 1_555
H13_4 C19_4 1_555 1_555
C20_4 C19_4 1_555 1_555
H14_4 C20_4 1_555 1_555
C21_4 C20_4 1_555 1_555
C24_4 C21_4 1_555 1_555
C25_4 N8_4 1_555 1_555
C26_4 N9_4 1_555 1_555
C27_4 H17_4 1_555 1_555
C28_4 C27_4 1_555 1_555
H18_4 C28_4 1_555 1_555
C29_4 C25_4 1_555 1_555
C30_4 C29_4 1_555 1_555
H19_4 C30_4 1_555 1_555
C31_4 N13_2 1_555 1_555
H20_4 C31_4 1_555 1_555
C34_4 C26_4 1_555 1_555
C35_4 C34_4 1_555 1_555
H23_4 C35_4 1_555 1_555
H24_4 C36_4 1_555 1_555
N10_4 C26_4 1_555 1_555
C15_4 C16_4 1_555 1_555
C28_4 C29_4 1_555 1_555
C30_4 C31_4 1_555 1_555
C35_4 C36_4 1_555 1_555
Br5_3 Zn3_3 1_555 1_555
Br6_3 Zn3_3 1_555 1_555
Zn3_3 N6_3 1_555 1_555
N7_3 Zn3_3 1_555 1_555
N14 C32_3 1_555 1_555
C18_3 N6_3 1_555 1_555
H12_3 C18_3 1_555 1_555
H15_3 C22_3 1_555 1_555
C23_3 N7_3 1_555 1_555
H16_3 C23_3 1_555 1_555
C32_3 H21_3 1_555 1_555
C33_3 C32_3 1_555 1_555
H22_3 C33_3 1_555 1_555
C22_3 C23_3 1_555 1_555
C1_4 H1_4 1_555 1_555
C2_4 C1_4 1_555 1_555
H2_4 C2_4 1_555 1_555
Br3_4 Zn2_3 1_555 1_555
Br4_4 Zn2_3 1_555 1_555
Br5_4 Zn3_4 1_555 1_555
Br6_4 Zn3_4 1_555 1_555
Zn2_3 N5_4 1_555 1_555
Zn3_4 N6_4 1_555 1_555
N2_4 C6_4 1_555 1_555
N3_4 C7_4 1_555 1_555
N4_4 C6_4 1_555 1_555
N5_4 C9_4 1_555 1_555
N6_4 C14_5 1_555 1_555
N7_4 Zn3_4 1_555 1_555
N8_5 C24_5 1_555 1_555
N9_5 C25_5 1_555 1_555
N10_5 C24_5 1_555 1_555
N12_2 C32_4 1_555 1_555
C6_4 C3_4 1_555 1_555
C7_4 N2_4 1_555 1_555
C8_4 N3_4 1_555 1_555
C9_4 H5_4 1_555 1_555
C10_4 C9_4 1_555 1_555
H6_4 C10_4 1_555 1_555
C11_4 C7_4 1_555 1_555
C12_4 C11_4 1_555 1_555
H7_4 C12_4 1_555 1_555
C13_4 N5_4 1_555 1_555
H8_4 C13_4 1_555 1_555
C14_5 H9_5 1_555 1_555
C15_5 C14_5 1_555 1_555
H10_5 C15_5 1_555 1_555
C16_5 C8_4 1_555 1_555
C17_5 C16_5 1_555 1_555
H11_4 C17_5 1_555 1_555
C18_4 N6_4 1_555 1_555
H12_4 C18_4 1_555 1_555
C19_5 N7_4 1_555 1_555
H13_5 C19_5 1_555 1_555
C20_5 C19_5 1_555 1_555
H14_5 C20_5 1_555 1_555
C21_5 C20_5 1_555 1_555
C22_4 C21_5 1_555 1_555
H15_4 C22_4 1_555 1_555
C23_4 N7_4 1_555 1_555
H16_4 C23_4 1_555 1_555
C24_5 C21_5 1_555 1_555
C25_5 N8_5 1_555 1_555
C26_5 N9_5 1_555 1_555
C27_5 H17_5 1_555 1_555
C28_5 C27_5 1_555 1_555
H18_5 C28_5 1_555 1_555
C29_5 C25_5 1_555 1_555
C30_5 C29_5 1_555 1_555
H19_5 C30_5 1_555 1_555
H20_5 C31_5 1_555 1_555
C32_4 H21_4 1_555 1_555
C33_4 C32_4 1_555 1_555
H22_4 C33_4 1_555 1_555
C34_5 C26_5 1_555 1_555
C35_5 C34_5 1_555 1_555
H23_5 C35_5 1_555 1_555
C36_5 N12_2 1_555 1_555
H24_5 C36_5 1_555 1_555
Zn4_2 N12_2 1_555 1_555
N13_3 Zn2_3 1_555 1_555
N4_4 C8_4 1_555 1_555
N10_5 C26_5 1_555 1_555
C10_4 C11_4 1_555 1_555
C12_4 C13_4 1_555 1_555
C15_5 C16_5 1_555 1_555
C17_5 C18_4 1_555 1_555
C22_4 C23_4 1_555 1_555
C28_5 C29_5 1_555 1_555
C30_5 C31_5 1_555 1_555
C33_4 C34_5 1_555 1_555
C35_5 C36_5 1_555 1_555
Br5_5 Zn3_5 1_555 1_555
Br6_5 Zn3_5 1_555 1_555
Zn3_5 N6_5 1_555 1_555
N7_5 Zn3_5 1_555 1_555
N12_3 C32_5 1_555 1_555
C18_5 N6_5 1_555 1_555
H12_5 C18_5 1_555 1_555
H15_5 C22_5 1_555 1_555
C23_5 N7_5 1_555 1_555
H16_5 C23_5 1_555 1_555
C32_5 H21_5 1_555 1_555
C33_5 C32_5 1_555 1_555
H22_5 C33_5 1_555 1_555
Zn4_3 N12_3 1_555 1_555
C22_5 C23_5 1_555 1_555
N8_6 C24_6 1_555 1_555
N9_6 C25_6 1_555 1_555
N10_6 C24_6 1_555 1_555
N13_3 C27_6 1_555 1_555
C14_6 H9_6 1_555 1_555
C15_6 C14_6 1_555 1_555
H10_6 C15_6 1_555 1_555
C17_6 C16_6 1_555 1_555
H13_6 C19_6 1_555 1_555
C20_6 C19_6 1_555 1_555
H14_6 C20_6 1_555 1_555
C21_6 C20_6 1_555 1_555
C24_6 C21_6 1_555 1_555
C25_6 N8_6 1_555 1_555
C26_6 N9_6 1_555 1_555
C27_6 H17_6 1_555 1_555
C28_6 C27_6 1_555 1_555
H18_6 C28_6 1_555 1_555
C29_6 C25_6 1_555 1_555
C30_6 C29_6 1_555 1_555
H19_6 C30_6 1_555 1_555
C31_6 N13_3 1_555 1_555
H20_6 C31_6 1_555 1_555
C34_6 C26_6 1_555 1_555
C35_6 C34_6 1_555 1_555
H23_6 C35_6 1_555 1_555
H24_6 C36_6 1_555 1_555
N10_6 C26_6 1_555 1_555
C15_6 C16_6 1_555 1_555
C28_6 C29_6 1_555 1_555
C30_6 C31_6 1_555 1_555
C35_6 C36_6 1_555 1_555
Br1_4 Zn4_3 1_555 1_555
Br2_4 Zn4_3 1_555 1_555
Zn4_3 N1_4 1_555 1_555
C5_4 N1_4 1_555 1_555
H4_4 C5_4 1_555 1_555
Zn5_2 N11_2 1_555 1_555
Br1_5 Zn4_2 1_555 1_555
Br2_5 Zn4_2 1_555 1_555
Br3_5 Zn5_2 1_555 1_555
Br4_5 Zn5_2 1_555 1_555
Zn4_2 N1_5 1_555 1_555
Zn5_2 N5_5 1_555 1_555
N1_5 C1_5 1_555 1_555
N2_5 C6_5 1_555 1_555
N3_5 C7_5 1_555 1_555
N4_5 C6_5 1_555 1_555
N5_5 C9_5 1_555 1_555
C1_5 H1_5 1_555 1_555
C2_5 C1_5 1_555 1_555
H2_5 C2_5 1_555 1_555
C3_5 C2_5 1_555 1_555
C4_5 C3_5 1_555 1_555
H3_5 C4_5 1_555 1_555
C5_5 N1_5 1_555 1_555
H4_5 C5_5 1_555 1_555
C6_5 C3_5 1_555 1_555
C7_5 N2_5 1_555 1_555
C8_5 N3_5 1_555 1_555
C9_5 H5_5 1_555 1_555
C10_5 C9_5 1_555 1_555
H6_5 C10_5 1_555 1_555
C11_5 C7_5 1_555 1_555
C12_5 C11_5 1_555 1_555
H7_5 C12_5 1_555 1_555
C13_5 N5_5 1_555 1_555
H8_5 C13_5 1_555 1_555
N4_5 C8_5 1_555 1_555
C4_5 C5_5 1_555 1_555
C10_5 C11_5 1_555 1_555
C12_5 C13_5 1_555 1_555
Br1_6 Zn1_3 1_555 1_555
Br2_6 Zn1_3 1_555 1_555
Zn1_3 N1_6 1_555 1_555
C5_6 N1_6 1_555 1_555
H4_6 C5_6 1_555 1_555
N14_3 Zn1_3 1_555 1_555
Br5_6 Zn3_6 1_555 1_555
Br6_6 Zn3_6 1_555 1_555
Zn3_6 N6_6 1_555 1_555
N7_6 Zn3_6 1_555 1_555
N14_3 C32_6 1_555 1_555
C18_6 N6_6 1_555 1_555
H12_6 C18_6 1_555 1_555
H15_6 C22_6 1_555 1_555
C23_6 N7_6 1_555 1_555
H16_6 C23_6 1_555 1_555
C32_6 H21_6 1_555 1_555
C33_6 C32_6 1_555 1_555
H22_6 C33_6 1_555 1_555
C22_6 C23_6 1_555 1_555
Zn5_3 N11_3 1_555 1_555
Br3_6 Zn5_3 1_555 1_555
Br4_6 Zn5_3 1_555 1_555
Zn5_3 N5_6 1_555 1_555
N2_6 C6_6 1_555 1_555
N3_6 C7_6 1_555 1_555
N4_6 C6_6 1_555 1_555
N5_6 C9_6 1_555 1_555
C6_6 C3_6 1_555 1_555
C7_6 N2_6 1_555 1_555
C8_6 N3_6 1_555 1_555
C9_6 H5_6 1_555 1_555
C10_6 C9_6 1_555 1_555
H6_6 C10_6 1_555 1_555
C11_6 C7_6 1_555 1_555
C12_6 C11_6 1_555 1_555
H7_6 C12_6 1_555 1_555
C13_6 N5_6 1_555 1_555
H8_6 C13_6 1_555 1_555
N4_6 C8_6 1_555 1_555
C10_6 C11_6 1_555 1_555
C12_6 C13_6 1_555 1_555
Br5_7 Zn3_7 1_555 1_555
Br6_7 Zn3_7 1_555 1_555
Zn3_7 N6_7 1_555 1_555
N7_7 Zn3_7 1_555 1_555
N12_4 C32_7 1_555 1_555
C18_7 N6_7 1_555 1_555
H12_7 C18_7 1_555 1_555
H15_7 C22_7 1_555 1_555
C23_7 N7_7 1_555 1_555
H16_7 C23_7 1_555 1_555
C32_7 H21_7 1_555 1_555
C33_7 C32_7 1_555 1_555
H22_7 C33_7 1_555 1_555
Zn4_4 N12_4 1_555 1_555
C22_7 C23_7 1_555 1_555
Br1_7 Zn4_4 1_555 1_555
Br2_7 Zn4_4 1_555 1_555
Zn4_4 N1_7 1_555 1_555
C5_7 N1_7 1_555 1_555
H4_7 C5_7 1_555 1_555
Br1_8 Zn1_4 1_555 1_555
Br2_8 Zn1_4 1_555 1_555
Zn1_4 N1_8 1_555 1_555
N1_8 C1_6 1_555 1_555
C1_6 H1_6 1_555 1_555
C2_6 C1_6 1_555 1_555
H2_6 C2_6 1_555 1_555
C5_8 N1_8 1_555 1_555
H4_8 C5_8 1_555 1_555
N14_4 Zn1_4 1_555 1_555
C4_6 C5_8 1_555 1_555
Br3_7 Zn2_4 1_555 1_555
Br4_7 Zn2_4 1_555 1_555
Br5_8 Zn3_8 1_555 1_555
Br6_8 Zn3_8 1_555 1_555
Zn2_4 N5_7 1_555 1_555
Zn3_8 N6_8 1_555 1_555
N2_7 C6_7 1_555 1_555
N3_7 C7_7 1_555 1_555
N4_7 C6_7 1_555 1_555
N5_7 C9_7 1_555 1_555
N6_8 C14_7 1_555 1_555
N7_8 Zn3_8 1_555 1_555
N8_7 C24_7 1_555 1_555
N9_7 C25_7 1_555 1_555
N10_7 C24_7 1_555 1_555
N14_4 C32_8 1_555 1_555
C1_7 H1_7 1_555 1_555
C2_7 C1_7 1_555 1_555
H2_7 C2_7 1_555 1_555
C3_7 C2_7 1_555 1_555
C4_7 C3_7 1_555 1_555
H3_7 C4_7 1_555 1_555
C6_7 C3_7 1_555 1_555
C7_7 N2_7 1_555 1_555
C8_7 N3_7 1_555 1_555
C9_7 H5_7 1_555 1_555
C10_7 C9_7 1_555 1_555
H6_7 C10_7 1_555 1_555
C11_7 C7_7 1_555 1_555
C12_7 C11_7 1_555 1_555
H7_7 C12_7 1_555 1_555
C13_7 N5_7 1_555 1_555
H8_7 C13_7 1_555 1_555
C14_7 H9_7 1_555 1_555
C15_7 C14_7 1_555 1_555
H10_7 C15_7 1_555 1_555
C16_7 C8_7 1_555 1_555
C17_7 C16_7 1_555 1_555
H11_7 C17_7 1_555 1_555
C18_8 N6_8 1_555 1_555
H12_8 C18_8 1_555 1_555
C19_7 N7_8 1_555 1_555
H13_7 C19_7 1_555 1_555
C20_7 C19_7 1_555 1_555
H14_7 C20_7 1_555 1_555
C21_7 C20_7 1_555 1_555
C22_8 C21_7 1_555 1_555
H15_8 C22_8 1_555 1_555
C23_8 N7_8 1_555 1_555
H16_8 C23_8 1_555 1_555
C24_7 C21_7 1_555 1_555
C25_7 N8_7 1_555 1_555
C26_7 N9_7 1_555 1_555
C27_7 H17_7 1_555 1_555
C28_7 C27_7 1_555 1_555
H18_7 C28_7 1_555 1_555
C29_7 C25_7 1_555 1_555
C30_7 C29_7 1_555 1_555
H19_7 C30_7 1_555 1_555
H20_7 C31_7 1_555 1_555
C32_8 H21_8 1_555 1_555
C33_8 C32_8 1_555 1_555
H22_8 C33_8 1_555 1_555
C34_7 C26_7 1_555 1_555
C35_7 C34_7 1_555 1_555
H23_7 C35_7 1_555 1_555
C36_7 N14_4 1_555 1_555
H24_7 C36_7 1_555 1_555
N13_4 Zn2_4 1_555 1_555
N4_7 C8_7 1_555 1_555
N10_7 C26_7 1_555 1_555
C10_7 C11_7 1_555 1_555
C12_7 C13_7 1_555 1_555
C15_7 C16_7 1_555 1_555
C17_7 C18_8 1_555 1_555
C22_8 C23_8 1_555 1_555
C28_7 C29_7 1_555 1_555
C30_7 C31_7 1_555 1_555
C33_8 C34_7 1_555 1_555
C35_7 C36_7 1_555 1_555
N8_8 C24_8 1_555 1_555
N9_8 C25_8 1_555 1_555
N10_8 C24_8 1_555 1_555
N13_4 C27_8 1_555 1_555
C14_8 H9_8 1_555 1_555
C15_8 C14_8 1_555 1_555
H10_8 C15_8 1_555 1_555
C17_8 C16_8 1_555 1_555
H13_8 C19_8 1_555 1_555
C20_8 C19_8 1_555 1_555
H14_8 C20_8 1_555 1_555
C21_8 C20_8 1_555 1_555
C24_8 C21_8 1_555 1_555
C25_8 N8_8 1_555 1_555
C26_8 N9_8 1_555 1_555
C27_8 H17_8 1_555 1_555
C28_8 C27_8 1_555 1_555
H18_8 C28_8 1_555 1_555
C29_8 C25_8 1_555 1_555
C30_8 C29_8 1_555 1_555
H19_8 C30_8 1_555 1_555
C31_8 N13_4 1_555 1_555
H20_8 C31_8 1_555 1_555
C34_8 C26_8 1_555 1_555
C35_8 C34_8 1_555 1_555
H23_8 C35_8 1_555 1_555
H24_8 C36_8 1_555 1_555
N10_8 C26_8 1_555 1_555
C15_8 C16_8 1_555 1_555
C28_8 C29_8 1_555 1_555
C30_8 C31_8 1_555 1_555
C35_8 C36_8 1_555 1_555
Zn5_4 N11_4 1_555 1_555
Br3_8 Zn5_4 1_555 1_555
Br4_8 Zn5_4 1_555 1_555
Zn5_4 N5_8 1_555 1_555
N2_8 C6_8 1_555 1_555
N3_8 C7_8 1_555 1_555
N4_8 C6_8 1_555 1_555
N5_8 C9_8 1_555 1_555
C6_8 C3_8 1_555 1_555
C7_8 N2_8 1_555 1_555
C8_8 N3_8 1_555 1_555
C9_8 H5_8 1_555 1_555
C10_8 C9_8 1_555 1_555
H6_8 C10_8 1_555 1_555
C11_8 C7_8 1_555 1_555
C12_8 C11_8 1_555 1_555
H7_8 C12_8 1_555 1_555
C13_8 N5_8 1_555 1_555
H8_8 C13_8 1_555 1_555
N4_8 C8_8 1_555 1_555
C10_8 C11_8 1_555 1_555
C12_8 C13_8 1_555 1_555
C1_8 H1_8 1_555 1_555
C2_8 C1_8 1_555 1_555
H2_8 C2_8 1_555 1_555

#END
