
###############################################################################
#
# This file contains modified crystal structure data generated from the
# MOF subset of the Cambridge Structural Database (CSD) v543 
# hosted by the Cambridge Crystallographic Data Centre (CCDC).
#
# This work is licensed under the Creative Commons
# Attribution-NonCommercial-ShareAlike 4.0 International License.
# To view a copy of this license, visit
# http://creativecommons.org/licenses/by-nc-sa/4.0/
# or send a letter to
# Creative Commons, PO Box 1866, Mountain View, CA 94042, USA.
#
# CIF created using the CSD Python API on 29 September 2022
# The structure has been converted into the P1 space group
# The structure has a 3D framework
# The original CSD entry ISACEN is in the orthorhombic crystal system
# The original CSD entry ISACEN is in a Sohncke space group
# The framework has been calculated to contain at least 10.0% void space
# The void calculation uses a probe of radius 1.32A, grid spacing 0.4
# The framework is charged, counterions have been retained in the structure
#
###############################################################################

data_ISACEN
_chemical_formula_moiety         '(C116 H60 Mn8 N4 O56 8-)n'
_symmetry_cell_setting           triclinic
_symmetry_space_group_name_H-M   'P 1'
_symmetry_Int_Tables_number      1
_space_group_name_Hall           'P 1'
loop_
_symmetry_equiv_pos_site_id
_symmetry_equiv_pos_as_xyz
1 x,y,z
_cell_length_a                   25.504(2)
_cell_length_b                   13.0676(13)
_cell_length_c                   17.5615(16)
_cell_angle_alpha                90
_cell_angle_beta                 90
_cell_angle_gamma                90
_cell_volume                     5852.83
loop_
_atom_site_label
_atom_site_type_symbol
_atom_site_fract_x
_atom_site_fract_y
_atom_site_fract_z
O14 O 0.74453(18) 0.0770(4) 0.2385(4)
H3 H 0.754468 0.140352 0.272286
H4 H 0.778629 0.068139 0.205688
Mn6 Mn 0.32638(3) 0.01093(5) 0.23723(4)
O17 O 0.62048(12) 0.1118(2) 0.2440(3)
Mn1 Mn 0.27617(2) 0.28218(4) 0.25160(3)
Mn2 Mn 0.67362(3) 0.98907(5) 0.23723(4)
O1 O 0.27823(17) 0.4107(3) 0.1765(2)
O2 O 0.19374(17) 0.4171(4) 0.1447(3)
O5 O 0.37952(12) 0.8882(2) 0.2440(3)
O6 O 0.42277(18) 0.9095(4) 0.1383(2)
O7 O 0.61412(13) 0.8795(3) 0.2346(3)
O8 O 0.63825(12) 0.7192(2) 0.2595(2)
O9 O 0.22853(16) 0.6403(3) 0.67983(19)
O10 O 0.18106(18) 0.5142(3) 0.6388(2)
O11 O 0.27383(17) 0.3889(3) 0.34508(19)
O12 O 0.18987(17) 0.4116(4) 0.3642(3)
O13 O 0.18790(12) 0.2772(3) 0.2517(2)
H1 H 0.175743 0.213108 0.252002
H2 H 0.174723 0.301880 0.208424
N1 N 0.28239(17) 0.6099(3) 0.2631(2)
C1 C 0.2397(2) 0.4522(4) 0.1441(3)
C2 C 0.2509(2) 0.5449(4) 0.0958(3)
C3 C 0.2309(2) 0.5457(3) 0.0232(2)
H5 H 0.210672 0.490896 0.006636
C6 C 0.2905(2) 0.7114(4) 0.0695(3)
H7 H 0.310170 0.767607 0.085025
C7 C 0.2822(2) 0.6291(4) 0.1206(2)
C9 C 0.30856(18) 0.6328(4) 0.1973(3)
C10 C 0.36006(18) 0.6632(3) 0.1980(3)
H8 H 0.376751 0.680489 0.152717
C11 C 0.38625(16) 0.6681(3) 0.2641(3)
C12 C 0.31031(18) 0.6188(4) 0.3313(2)
C13 C 0.36218(17) 0.6466(3) 0.3319(2)
H9 H 0.380632 0.650708 0.377487
C14 C 0.44221(18) 0.7028(3) 0.2612(3)
C15 C 0.45756(18) 0.7943(3) 0.2283(3)
C16 C 0.50969(17) 0.8201(3) 0.2245(3)
H10 H 0.519435 0.880732 0.200695
C17 C 0.54852(17) 0.7568(3) 0.2556(3)
C18 C 0.5334(2) 0.6648(4) 0.2896(3)
H11 H 0.558740 0.621601 0.310014
C19 C 0.48127(19) 0.6376(4) 0.2931(4)
H12 H 0.471537 0.576501 0.316258
C20 C 0.4170(2) 0.8701(4) 0.1992(3)
C21 C 0.60495(17) 0.7878(3) 0.2500(3)
C22 C 0.28375(19) 0.6051(3) 0.4059(2)
C23 C 0.2933(2) 0.6801(4) 0.4621(3)
H13 H 0.315582 0.734277 0.450800
C24 C 0.2704(2) 0.6754(4) 0.5334(3)
H14 H 0.277147 0.725717 0.569569
C25 C 0.2374(2) 0.5947(4) 0.5500(3)
C26 C 0.2263(2) 0.5199(4) 0.4949(2)
H15 H 0.203152 0.467155 0.506605
C27 C 0.2492(2) 0.5234(4) 0.4233(3)
C28 C 0.2128(2) 0.5835(4) 0.6277(3)
C29 C 0.2370(2) 0.4347(4) 0.3711(3)
Mn3 Mn 0.72383(2) 0.71782(4) 0.25160(3)
Mn5 Mn 0.22383(2) 0.78218(4) 0.74840(3)
Mn8 Mn 0.17362(3) 0.51093(5) 0.76277(4)
O15 O 0.6934(2) 0.9548(3) 0.1228(2)
O16 O 0.2688(2) 0.1902(3) 0.1497(2)
O18 O 0.36175(12) 0.2808(2) 0.2595(2)
O19 O 0.27147(16) 0.1403(3) 0.32017(19)
O20 O 0.68106(18) 0.9858(3) 0.3612(2)
O3 O 0.1934(2) 0.5452(3) 0.8772(2)
O4 O 0.2312(2) 0.6902(3) 0.8503(2)
C4 C 0.2403(2) 0.6262(4) 0.9745(2)
C5 C 0.2701(2) 0.7091(4) 0.9980(3)
H6 H 0.276075 0.763225 0.964775
C8 C 0.2198(2) 0.6192(4) 0.8934(3)
O1_2 O 0.72177(17) 0.5893(3) 0.1765(2)
O2_2 O 0.80626(17) 0.5829(4) 0.1447(3)
O6_2 O 0.57723(18) 0.0905(4) 0.1383(2)
O7_2 O 0.38588(13) 0.1205(3) 0.2346(3)
O9_2 O 0.77147(16) 0.3597(3) 0.67983(19)
O10_2 O 0.81894(18) 0.4858(3) 0.6388(2)
O11_2 O 0.72617(17) 0.6111(3) 0.34508(19)
O12_2 O 0.81013(17) 0.5884(4) 0.3642(3)
O13_2 O 0.81210(12) 0.7228(3) 0.2517(2)
H1_2 H 0.824257 0.786892 0.252002
H2_2 H 0.825277 0.698120 0.208424
N1_2 N 0.71761(17) 0.3901(3) 0.2631(2)
C1_2 C 0.7603(2) 0.5478(4) 0.1441(3)
C2_2 C 0.7491(2) 0.4551(4) 0.0958(3)
C3_2 C 0.7691(2) 0.4543(3) 0.0232(2)
H5_2 H 0.789328 0.509104 0.006636
C6_2 C 0.7095(2) 0.2886(4) 0.0695(3)
H7_2 H 0.689830 0.232393 0.085025
C7_2 C 0.7178(2) 0.3709(4) 0.1206(2)
C9_2 C 0.69144(18) 0.3672(4) 0.1973(3)
C10_2 C 0.63994(18) 0.3368(3) 0.1980(3)
H8_2 H 0.623249 0.319511 0.152717
C11_2 C 0.61375(16) 0.3319(3) 0.2641(3)
C12_2 C 0.68969(18) 0.3812(4) 0.3313(2)
C13_2 C 0.63782(17) 0.3534(3) 0.3319(2)
H9_2 H 0.619368 0.349292 0.377487
C14_2 C 0.55779(18) 0.2972(3) 0.2612(3)
C15_2 C 0.54244(18) 0.2057(3) 0.2283(3)
C16_2 C 0.49031(17) 0.1799(3) 0.2245(3)
H10_2 H 0.480565 0.119268 0.200695
C17_2 C 0.45148(17) 0.2432(3) 0.2556(3)
C18_2 C 0.4666(2) 0.3352(4) 0.2896(3)
H11_2 H 0.441260 0.378399 0.310014
C19_2 C 0.51873(19) 0.3624(4) 0.2931(4)
H12_2 H 0.528463 0.423499 0.316258
C20_2 C 0.5830(2) 0.1299(4) 0.1992(3)
C21_2 C 0.39505(17) 0.2122(3) 0.2500(3)
C22_2 C 0.71625(19) 0.3949(3) 0.4059(2)
C23_2 C 0.7067(2) 0.3199(4) 0.4621(3)
H13_2 H 0.684418 0.265723 0.450800
C24_2 C 0.7296(2) 0.3246(4) 0.5334(3)
H14_2 H 0.722853 0.274283 0.569569
C25_2 C 0.7626(2) 0.4053(4) 0.5500(3)
C26_2 C 0.7737(2) 0.4801(4) 0.4949(2)
H15_2 H 0.796848 0.532845 0.506605
C27_2 C 0.7508(2) 0.4766(4) 0.4233(3)
C28_2 C 0.7872(2) 0.4165(4) 0.6277(3)
C29_2 C 0.7630(2) 0.5653(4) 0.3711(3)
Mn5_2 Mn 0.77617(2) 0.21782(4) 0.74840(3)
Mn8_2 Mn 0.82638(3) 0.48907(5) 0.76277(4)
O15_2 O 0.3066(2) 0.0452(3) 0.1228(2)
O16_2 O 0.7312(2) 0.8098(3) 0.1497(2)
O19_2 O 0.72853(16) 0.8597(3) 0.32017(19)
O20_2 O 0.31894(18) 0.0142(3) 0.3612(2)
O3_2 O 0.8066(2) 0.4548(3) 0.8772(2)
O4_2 O 0.7688(2) 0.3098(3) 0.8503(2)
C4_2 C 0.7597(2) 0.3738(4) 0.9745(2)
C5_2 C 0.7299(2) 0.2909(4) 0.9980(3)
H6_2 H 0.723925 0.236775 0.964775
C8_2 C 0.7802(2) 0.3808(4) 0.8934(3)
O14_2 O 0.25547(18) 0.9230(4) 0.2385(4)
H3_2 H 0.245532 0.859648 0.272286
H4_2 H 0.221371 0.931861 0.205688
C4_3 C 0.2597(2) 0.1262(4) 0.0255(2)
C5_3 C 0.2299(2) 0.2091(4) 0.0020(3)
H6_3 H 0.223925 0.263225 0.035225
C8_3 C 0.2802(2) 0.1192(4) 0.1066(3)
O5_2 O 0.12048(12) 0.3882(2) 0.7560(3)
O6_3 O 0.07723(18) 0.4095(4) 0.8617(2)
N1_3 N 0.21761(17) 0.1099(3) 0.7369(2)
C2_3 C 0.2491(2) 0.0449(4) 0.9042(3)
C3_3 C 0.2691(2) 0.0457(3) 0.9768(2)
C6_3 C 0.2095(2) 0.2114(4) 0.9305(3)
H7_3 H 0.189830 0.267607 0.914975
C7_3 C 0.2178(2) 0.1291(4) 0.8794(2)
C9_3 C 0.19144(18) 0.1328(4) 0.8027(3)
C10_3 C 0.13994(18) 0.1632(3) 0.8020(3)
H8_3 H 0.123249 0.180489 0.847283
C11_3 C 0.11375(16) 0.1681(3) 0.7359(3)
C12_3 C 0.18969(18) 0.1188(4) 0.6687(2)
C13_3 C 0.13782(17) 0.1466(3) 0.6681(2)
H9_3 H 0.119368 0.150708 0.622513
C14_3 C 0.05779(18) 0.2028(3) 0.7388(3)
C15_3 C 0.04244(18) 0.2943(3) 0.7717(3)
C19_3 C 0.01873(19) 0.1376(4) 0.7069(4)
H12_3 H 0.028463 0.076501 0.683742
C20_3 C 0.0830(2) 0.3701(4) 0.8008(3)
C22_3 C 0.21625(19) 0.1051(3) 0.5941(2)
C23_3 C 0.2067(2) 0.1801(4) 0.5379(3)
H13_3 H 0.184418 0.234277 0.549200
C24_3 C 0.2296(2) 0.1754(4) 0.4666(3)
H14_3 H 0.222853 0.225717 0.430431
C25_3 C 0.2626(2) 0.0947(4) 0.4500(3)
C26_3 C 0.2737(2) 0.0199(4) 0.5051(2)
C27_3 C 0.2508(2) 0.0234(4) 0.5767(3)
C28_3 C 0.2872(2) 0.0835(4) 0.3723(3)
O1_3 O 0.22177(17) 0.9107(3) 0.8235(2)
O2_3 O 0.30626(17) 0.9171(4) 0.8553(3)
O11_3 O 0.22617(17) 0.8889(3) 0.65492(19)
O12_3 O 0.31013(17) 0.9116(4) 0.6358(3)
O13_3 O 0.31210(12) 0.7772(3) 0.7483(2)
H1_3 H 0.324257 0.713108 0.747998
H2_3 H 0.325277 0.801880 0.791576
C1_3 C 0.2603(2) 0.9522(4) 0.8559(3)
H5_3 H 0.289328 0.990896 0.993364
H15_3 H 0.296848 0.967155 0.493395
C29_3 C 0.2630(2) 0.9347(4) 0.6289(3)
O18_2 O 0.13825(12) 0.7808(2) 0.7405(2)
O7_3 O 0.88588(13) 0.3795(3) 0.7654(3)
O8_2 O 0.86175(12) 0.2192(2) 0.7405(2)
O14_3 O 0.75547(18) 0.5770(4) 0.7615(4)
H3_3 H 0.745532 0.640352 0.727714
H4_3 H 0.721371 0.568139 0.794312
C16_3 C 0.99031(17) 0.3201(3) 0.7755(3)
H10_3 H 0.980565 0.380732 0.799305
C17_3 C 0.95148(17) 0.2568(3) 0.7444(3)
C18_3 C 0.9666(2) 0.1648(4) 0.7104(3)
H11_3 H 0.941260 0.121601 0.689986
C21_3 C 0.89505(17) 0.2878(3) 0.7500(3)
O17_2 O 0.87952(12) 0.6118(2) 0.7560(3)
O7_4 O 0.11412(13) 0.6205(3) 0.7654(3)
O14_4 O 0.24453(18) 0.4230(4) 0.7615(4)
H3_4 H 0.254468 0.359648 0.727714
H4_4 H 0.278629 0.431861 0.794312
C16_4 C 0.00969(17) 0.6799(3) 0.7755(3)
H10_4 H 0.019435 0.619268 0.799305
C17_4 C 0.04852(17) 0.7432(3) 0.7444(3)
C18_4 C 0.0334(2) 0.8352(4) 0.7104(3)
H11_4 H 0.058740 0.878399 0.689986
C21_4 C 0.10495(17) 0.7122(3) 0.7500(3)
O1_4 O 0.77823(17) 0.0893(3) 0.8235(2)
O2_4 O 0.69374(17) 0.0829(4) 0.8553(3)
O11_4 O 0.77383(17) 0.1111(3) 0.65492(19)
O12_4 O 0.68987(17) 0.0884(4) 0.6358(3)
O13_4 O 0.68790(12) 0.2228(3) 0.7483(2)
H1_4 H 0.675743 0.286892 0.747998
H2_4 H 0.674723 0.198120 0.791576
C1_4 C 0.7397(2) 0.0478(4) 0.8559(3)
H5_4 H 0.710672 0.009104 0.993364
H15_4 H 0.703152 0.032845 0.493395
C29_4 C 0.7370(2) 0.0653(4) 0.6289(3)
C4_4 C 0.7403(2) 0.8738(4) 0.0255(2)
C5_4 C 0.7701(2) 0.7909(4) 0.0020(3)
H6_4 H 0.776075 0.736775 0.035225
C8_4 C 0.7198(2) 0.8808(4) 0.1066(3)
O6_4 O 0.92277(18) 0.5905(4) 0.8617(2)
N1_4 N 0.78239(17) 0.8901(3) 0.7369(2)
C2_4 C 0.7509(2) 0.9551(4) 0.9042(3)
C3_4 C 0.7309(2) 0.9543(3) 0.9768(2)
C6_4 C 0.7905(2) 0.7886(4) 0.9305(3)
H7_4 H 0.810170 0.732393 0.914975
C7_4 C 0.7822(2) 0.8709(4) 0.8794(2)
C9_4 C 0.80856(18) 0.8672(4) 0.8027(3)
C10_4 C 0.86006(18) 0.8368(3) 0.8020(3)
H8_4 H 0.876751 0.819511 0.847283
C11_4 C 0.88625(16) 0.8319(3) 0.7359(3)
C12_4 C 0.81031(18) 0.8812(4) 0.6687(2)
C13_4 C 0.86218(17) 0.8534(3) 0.6681(2)
H9_4 H 0.880632 0.849292 0.622513
C14_4 C 0.94221(18) 0.7972(3) 0.7388(3)
C15_4 C 0.95756(18) 0.7057(3) 0.7717(3)
C19_4 C 0.98127(19) 0.8624(4) 0.7069(4)
H12_4 H 0.971537 0.923499 0.683742
C20_4 C 0.9170(2) 0.6299(4) 0.8008(3)
C22_4 C 0.78375(19) 0.8949(3) 0.5941(2)
C23_4 C 0.7933(2) 0.8199(4) 0.5379(3)
H13_4 H 0.815582 0.765723 0.549200
C24_4 C 0.7704(2) 0.8246(4) 0.4666(3)
H14_4 H 0.777147 0.774283 0.430431
C25_4 C 0.7374(2) 0.9053(4) 0.4500(3)
C26_4 C 0.7263(2) 0.9801(4) 0.5051(2)
C27_4 C 0.7492(2) 0.9766(4) 0.5767(3)
C28_4 C 0.7128(2) 0.9165(4) 0.3723(3)
loop_
_geom_bond_atom_site_label_1
_geom_bond_atom_site_label_2
_geom_bond_site_symmetry_1
_geom_bond_site_symmetry_2
H3 O14 1_555 1_555
H4 O14 1_555 1_555
Mn1 O1 1_555 1_555
Mn2 O7 1_555 1_555
O1 C1 1_555 1_555
O2 C1 1_555 1_555
O5 C20 1_555 1_555
O6 C20 1_555 1_555
O7 C21 1_555 1_555
O8 C21 1_555 1_555
O9 C28 1_555 1_555
O10 C28 1_555 1_555
O11 Mn1 1_555 1_555
O12 C29 1_555 1_555
O13 Mn1 1_555 1_555
H1 O13 1_555 1_555
H2 O13 1_555 1_555
N1 C9 1_555 1_555
C1 C2 1_555 1_555
C2 C3 1_555 1_555
C3 H5 1_555 1_555
H7 C6 1_555 1_555
C7 C2 1_555 1_555
C9 C7 1_555 1_555
C10 C9 1_555 1_555
H8 C10 1_555 1_555
C11 C10 1_555 1_555
C12 N1 1_555 1_555
C13 C11 1_555 1_555
H9 C13 1_555 1_555
C14 C11 1_555 1_555
C15 C14 1_555 1_555
C16 C15 1_555 1_555
H10 C16 1_555 1_555
C17 C16 1_555 1_555
C18 C17 1_555 1_555
H11 C18 1_555 1_555
C19 C14 1_555 1_555
H12 C19 1_555 1_555
C20 C15 1_555 1_555
C21 C17 1_555 1_555
C22 C12 1_555 1_555
C23 C22 1_555 1_555
H13 C23 1_555 1_555
C24 C23 1_555 1_555
H14 C24 1_555 1_555
C25 C24 1_555 1_555
C26 C25 1_555 1_555
H15 C26 1_555 1_555
C27 C22 1_555 1_555
C28 C25 1_555 1_555
C29 O11 1_555 1_555
Mn3 O8 1_555 1_555
Mn5 O9 1_555 1_555
Mn8 O10 1_555 1_555
O15 Mn2 1_555 1_555
O16 Mn1 1_555 1_555
O18 Mn1 1_555 1_555
O19 Mn1 1_555 1_555
O20 Mn2 1_555 1_555
C6 C7 1_555 1_555
C12 C13 1_555 1_555
C18 C19 1_555 1_555
C26 C27 1_555 1_555
C27 C29 1_555 1_555
O3 C8 1_555 1_555
O4 C8 1_555 1_555
C5 C4 1_555 1_555
H6 C5 1_555 1_555
C8 C4 1_555 1_555
Mn5 O4 1_555 1_555
Mn8 O3 1_555 1_555
Mn3 O1_2 1_555 1_555
Mn6 O7_2 1_555 1_555
O1_2 C1_2 1_555 1_555
O2_2 C1_2 1_555 1_555
O17 C20_2 1_555 1_555
O6_2 C20_2 1_555 1_555
O7_2 C21_2 1_555 1_555
O18 C21_2 1_555 1_555
O9_2 C28_2 1_555 1_555
O10_2 C28_2 1_555 1_555
O11_2 Mn3 1_555 1_555
O12_2 C29_2 1_555 1_555
O13_2 Mn3 1_555 1_555
H1_2 O13_2 1_555 1_555
H2_2 O13_2 1_555 1_555
N1_2 C9_2 1_555 1_555
C1_2 C2_2 1_555 1_555
C2_2 C3_2 1_555 1_555
C3_2 H5_2 1_555 1_555
H7_2 C6_2 1_555 1_555
C7_2 C2_2 1_555 1_555
C9_2 C7_2 1_555 1_555
C10_2 C9_2 1_555 1_555
H8_2 C10_2 1_555 1_555
C11_2 C10_2 1_555 1_555
C12_2 N1_2 1_555 1_555
C13_2 C11_2 1_555 1_555
H9_2 C13_2 1_555 1_555
C14_2 C11_2 1_555 1_555
C15_2 C14_2 1_555 1_555
C16_2 C15_2 1_555 1_555
H10_2 C16_2 1_555 1_555
C17_2 C16_2 1_555 1_555
C18_2 C17_2 1_555 1_555
H11_2 C18_2 1_555 1_555
C19_2 C14_2 1_555 1_555
H12_2 C19_2 1_555 1_555
C20_2 C15_2 1_555 1_555
C21_2 C17_2 1_555 1_555
C22_2 C12_2 1_555 1_555
C23_2 C22_2 1_555 1_555
H13_2 C23_2 1_555 1_555
C24_2 C23_2 1_555 1_555
H14_2 C24_2 1_555 1_555
C25_2 C24_2 1_555 1_555
C26_2 C25_2 1_555 1_555
H15_2 C26_2 1_555 1_555
C27_2 C22_2 1_555 1_555
C28_2 C25_2 1_555 1_555
C29_2 O11_2 1_555 1_555
Mn5_2 O9_2 1_555 1_555
Mn8_2 O10_2 1_555 1_555
O15_2 Mn6 1_555 1_555
O16_2 Mn3 1_555 1_555
O19_2 Mn3 1_555 1_555
O20_2 Mn6 1_555 1_555
C6_2 C7_2 1_555 1_555
C12_2 C13_2 1_555 1_555
C18_2 C19_2 1_555 1_555
C26_2 C27_2 1_555 1_555
C27_2 C29_2 1_555 1_555
O3_2 C8_2 1_555 1_555
O4_2 C8_2 1_555 1_555
C5_2 C4_2 1_555 1_555
H6_2 C5_2 1_555 1_555
C8_2 C4_2 1_555 1_555
Mn5_2 O4_2 1_555 1_555
Mn8_2 O3_2 1_555 1_555
H3_2 O14_2 1_555 1_555
H4_2 O14_2 1_555 1_555
O15_2 C8_3 1_555 1_555
O16 C8_3 1_555 1_555
C5_3 C4_3 1_555 1_555
H6_3 C5_3 1_555 1_555
C8_3 C4_3 1_555 1_555
O5_2 C20_3 1_555 1_555
O6_3 C20_3 1_555 1_555
O19 C28_3 1_555 1_555
O20_2 C28_3 1_555 1_555
N1_3 C9_3 1_555 1_555
C2_3 C3_3 1_555 1_555
H7_3 C6_3 1_555 1_555
C7_3 C2_3 1_555 1_555
C9_3 C7_3 1_555 1_555
C10_3 C9_3 1_555 1_555
H8_3 C10_3 1_555 1_555
C11_3 C10_3 1_555 1_555
C12_3 N1_3 1_555 1_555
C13_3 C11_3 1_555 1_555
H9_3 C13_3 1_555 1_555
C14_3 C11_3 1_555 1_555
C15_3 C14_3 1_555 1_555
C19_3 C14_3 1_555 1_555
H12_3 C19_3 1_555 1_555
C20_3 C15_3 1_555 1_555
C22_3 C12_3 1_555 1_555
C23_3 C22_3 1_555 1_555
H13_3 C23_3 1_555 1_555
C24_3 C23_3 1_555 1_555
H14_3 C24_3 1_555 1_555
C25_3 C24_3 1_555 1_555
C26_3 C25_3 1_555 1_555
C27_3 C22_3 1_555 1_555
C28_3 C25_3 1_555 1_555
Mn8 O5_2 1_555 1_555
C6_3 C7_3 1_555 1_555
C12_3 C13_3 1_555 1_555
C26_3 C27_3 1_555 1_555
Mn5 O1_3 1_555 1_555
O1_3 C1_3 1_555 1_555
O2_3 C1_3 1_555 1_555
O11_3 Mn5 1_555 1_555
O12_3 C29_3 1_555 1_555
O13_3 Mn5 1_555 1_555
H1_3 O13_3 1_555 1_555
H2_3 O13_3 1_555 1_555
C29_3 O11_3 1_555 1_555
O18_2 Mn5 1_555 1_555
Mn8_2 O7_3 1_555 1_555
O7_3 C21_3 1_555 1_555
O8_2 C21_3 1_555 1_555
O14_3 Mn8_2 1_555 1_555
H3_3 O14_3 1_555 1_555
H4_3 O14_3 1_555 1_555
H10_3 C16_3 1_555 1_555
C17_3 C16_3 1_555 1_555
C18_3 C17_3 1_555 1_555
H11_3 C18_3 1_555 1_555
C21_3 C17_3 1_555 1_555
Mn5_2 O8_2 1_555 1_555
O17_2 Mn8_2 1_555 1_555
Mn8 O7_4 1_555 1_555
O7_4 C21_4 1_555 1_555
O18_2 C21_4 1_555 1_555
O14_4 Mn8 1_555 1_555
H3_4 O14_4 1_555 1_555
H4_4 O14_4 1_555 1_555
H10_4 C16_4 1_555 1_555
C17_4 C16_4 1_555 1_555
C18_4 C17_4 1_555 1_555
H11_4 C18_4 1_555 1_555
C21_4 C17_4 1_555 1_555
Mn5_2 O1_4 1_555 1_555
O1_4 C1_4 1_555 1_555
O2_4 C1_4 1_555 1_555
O11_4 Mn5_2 1_555 1_555
O12_4 C29_4 1_555 1_555
O13_4 Mn5_2 1_555 1_555
H1_4 O13_4 1_555 1_555
H2_4 O13_4 1_555 1_555
C29_4 O11_4 1_555 1_555
O15 C8_4 1_555 1_555
O16_2 C8_4 1_555 1_555
C5_4 C4_4 1_555 1_555
H6_4 C5_4 1_555 1_555
C8_4 C4_4 1_555 1_555
O17_2 C20_4 1_555 1_555
O6_4 C20_4 1_555 1_555
O19_2 C28_4 1_555 1_555
O20 C28_4 1_555 1_555
N1_4 C9_4 1_555 1_555
C2_4 C3_4 1_555 1_555
H7_4 C6_4 1_555 1_555
C7_4 C2_4 1_555 1_555
C9_4 C7_4 1_555 1_555
C10_4 C9_4 1_555 1_555
H8_4 C10_4 1_555 1_555
C11_4 C10_4 1_555 1_555
C12_4 N1_4 1_555 1_555
C13_4 C11_4 1_555 1_555
H9_4 C13_4 1_555 1_555
C14_4 C11_4 1_555 1_555
C15_4 C14_4 1_555 1_555
C19_4 C14_4 1_555 1_555
H12_4 C19_4 1_555 1_555
C20_4 C15_4 1_555 1_555
C22_4 C12_4 1_555 1_555
C23_4 C22_4 1_555 1_555
H13_4 C23_4 1_555 1_555
C24_4 C23_4 1_555 1_555
H14_4 C24_4 1_555 1_555
C25_4 C24_4 1_555 1_555
C26_4 C25_4 1_555 1_555
C27_4 C22_4 1_555 1_555
C28_4 C25_4 1_555 1_555
C6_4 C7_4 1_555 1_555
C12_4 C13_4 1_555 1_555
C26_4 C27_4 1_555 1_555

#END
