
###############################################################################
#
# This file contains modified crystal structure data generated from the
# MOF subset of the Cambridge Structural Database (CSD) v543 
# hosted by the Cambridge Crystallographic Data Centre (CCDC).
#
# This work is licensed under the Creative Commons
# Attribution-NonCommercial-ShareAlike 4.0 International License.
# To view a copy of this license, visit
# http://creativecommons.org/licenses/by-nc-sa/4.0/
# or send a letter to
# Creative Commons, PO Box 1866, Mountain View, CA 94042, USA.
#
# CIF created using the CSD Python API on 29 September 2022
# The structure has been converted into the P1 space group
# The structure has a 3D framework
# The original CSD entry ISAYOQ is in the tetragonal crystal system
# The framework has been calculated to contain at least 10.0% void space
# The void calculation uses a probe of radius 1.32A, grid spacing 0.4
# The framework is charged, counterions have been retained in the structure
# H atom positions have been added when not included in the experimental data
# Generated hydrogen atom positions removed from atoms on special positions
#
###############################################################################

data_ISAYOQ
_chemical_formula_moiety         '(C192 H192 Cu12 F96 N64 O32 P16 8+)n'
_symmetry_cell_setting           triclinic
_symmetry_space_group_name_H-M   'P 1'
_symmetry_Int_Tables_number      1
_space_group_name_Hall           'P 1'
loop_
_symmetry_equiv_pos_site_id
_symmetry_equiv_pos_as_xyz
1 x,y,z
_cell_length_a                   13.4623(16)
_cell_length_b                   13.4623(16)
_cell_length_c                   46.472(12)
_cell_angle_alpha                90
_cell_angle_beta                 90
_cell_angle_gamma                90
_cell_volume                     8422.28
loop_
_atom_site_label
_atom_site_type_symbol
_atom_site_fract_x
_atom_site_fract_y
_atom_site_fract_z
P1 P 0.1156(8) 0.4593(11) 0.0702(3)
F1 F 0.132(3) 0.453(3) 0.0368(4)
F2 F 0.0175(17) 0.400(2) 0.0651(6)
F3 F 0.100(2) 0.465(3) 0.1032(3)
F4 F 0.2127(15) 0.506(2) 0.0822(6)
F5 F 0.177(2) 0.3616(15) 0.0729(6)
F6 F 0.0648(19) 0.5623(13) 0.0680(5)
P1_2 P 0.2907(11) 0.3656(8) 0.3202(3)
F1_2 F 0.297(3) 0.382(3) 0.2868(4)
F2_2 F 0.350(2) 0.2675(17) 0.3151(6)
F3_2 F 0.285(3) 0.350(2) 0.3532(3)
F4_2 F 0.244(2) 0.4627(15) 0.3322(6)
F5_2 F 0.3884(15) 0.427(2) 0.3229(6)
F6_2 F 0.1877(13) 0.3148(19) 0.3180(5)
F4_3 F 0.7127(15) 0.006(2) 0.5822(6)
F6_3 F 0.5648(19) 0.0623(13) 0.5680(5)
P1_3 P 0.6156(8) 0.9593(11) 0.5702(3)
F1_3 F 0.632(3) 0.953(3) 0.5368(4)
F2_3 F 0.5175(17) 0.900(2) 0.5651(6)
F3_3 F 0.600(2) 0.965(3) 0.6032(3)
F5_3 F 0.677(2) 0.8616(15) 0.5729(6)
P1_4 P 0.7907(11) 0.8656(8) 0.8202(3)
F1_4 F 0.797(3) 0.882(3) 0.7868(4)
F2_4 F 0.850(2) 0.7675(17) 0.8151(6)
F3_4 F 0.785(3) 0.850(2) 0.8532(3)
F4_4 F 0.744(2) 0.9627(15) 0.8322(6)
F5_4 F 0.8884(15) 0.927(2) 0.8229(6)
F6_4 F 0.6877(13) 0.8148(19) 0.8180(5)
P1_5 P 0.7093(11) 0.1344(8) 0.3202(3)
F1_5 F 0.703(3) 0.118(3) 0.2868(4)
F2_5 F 0.650(2) 0.2325(17) 0.3151(6)
F3_5 F 0.715(3) 0.150(2) 0.3532(3)
F4_5 F 0.756(2) 0.0373(15) 0.3322(6)
F5_5 F 0.6116(15) 0.073(2) 0.3229(6)
F6_5 F 0.8123(13) 0.1852(19) 0.3180(5)
P1_6 P 0.6156(8) 0.4593(11) 0.4298(3)
F1_6 F 0.632(3) 0.453(3) 0.4632(4)
F2_6 F 0.5175(17) 0.400(2) 0.4349(6)
F3_6 F 0.600(2) 0.465(3) 0.3968(3)
F4_6 F 0.7127(15) 0.506(2) 0.4178(6)
F5_6 F 0.677(2) 0.3616(15) 0.4271(6)
F6_6 F 0.5648(19) 0.5623(13) 0.4320(5)
P1_7 P 0.7907(11) 0.3656(8) 0.1798(3)
F1_7 F 0.797(3) 0.382(3) 0.2132(4)
F2_7 F 0.850(2) 0.2675(17) 0.1849(6)
F3_7 F 0.785(3) 0.350(2) 0.1468(3)
F4_7 F 0.744(2) 0.4627(15) 0.1678(6)
F5_7 F 0.8884(15) 0.427(2) 0.1771(6)
F6_7 F 0.6877(13) 0.3148(19) 0.1820(5)
F4_8 F 0.2127(15) 0.006(2) 0.9178(6)
F6_8 F 0.0648(19) 0.0623(13) 0.9320(5)
P1_8 P 0.1156(8) 0.9593(11) 0.9298(3)
F1_8 F 0.132(3) 0.953(3) 0.9632(4)
F2_8 F 0.0175(17) 0.900(2) 0.9349(6)
F3_8 F 0.100(2) 0.965(3) 0.8968(3)
F5_8 F 0.177(2) 0.8616(15) 0.9271(6)
P1_9 P 0.8844(8) 0.5407(11) 0.9298(3)
F1_9 F 0.868(3) 0.547(3) 0.9632(4)
F2_9 F 0.9825(17) 0.600(2) 0.9349(6)
F3_9 F 0.900(2) 0.535(3) 0.8968(3)
F4_9 F 0.7873(15) 0.494(2) 0.9178(6)
F5_9 F 0.823(2) 0.6384(15) 0.9271(6)
F6_9 F 0.9352(19) 0.4377(13) 0.9320(5)
P1_10 P 0.7093(11) 0.6344(8) 0.6798(3)
F1_10 F 0.703(3) 0.618(3) 0.7132(4)
F2_10 F 0.650(2) 0.7325(17) 0.6849(6)
F3_10 F 0.715(3) 0.650(2) 0.6468(3)
F4_10 F 0.756(2) 0.5373(15) 0.6678(6)
F5_10 F 0.6116(15) 0.573(2) 0.6771(6)
F6_10 F 0.8123(13) 0.6852(19) 0.6820(5)
P1_11 P 0.3844(8) 0.0407(11) 0.4298(3)
F1_11 F 0.368(3) 0.047(3) 0.4632(4)
F2_11 F 0.4825(17) 0.100(2) 0.4349(6)
F3_11 F 0.400(2) 0.035(3) 0.3968(3)
F5_11 F 0.323(2) 0.1384(15) 0.4271(6)
F4_11 F 0.2873(15) 0.994(2) 0.4178(6)
F6_11 F 0.4352(19) 0.9377(13) 0.4320(5)
P1_12 P 0.2093(11) 0.1344(8) 0.1798(3)
F1_12 F 0.203(3) 0.118(3) 0.2132(4)
F2_12 F 0.150(2) 0.2325(17) 0.1849(6)
F3_12 F 0.215(3) 0.150(2) 0.1468(3)
F4_12 F 0.256(2) 0.0373(15) 0.1678(6)
F5_12 F 0.1116(15) 0.073(2) 0.1771(6)
F6_12 F 0.3123(13) 0.1852(19) 0.1820(5)
P1_13 P 0.2907(11) 0.8656(8) 0.6798(3)
F1_13 F 0.297(3) 0.882(3) 0.7132(4)
F2_13 F 0.350(2) 0.7675(17) 0.6849(6)
F3_13 F 0.285(3) 0.850(2) 0.6468(3)
F4_13 F 0.244(2) 0.9627(15) 0.6678(6)
F5_13 F 0.3884(15) 0.927(2) 0.6771(6)
F6_13 F 0.1877(13) 0.8148(19) 0.6820(5)
P1_14 P 0.3844(8) 0.5407(11) 0.5702(3)
F1_14 F 0.368(3) 0.547(3) 0.5368(4)
F2_14 F 0.4825(17) 0.600(2) 0.5651(6)
F3_14 F 0.400(2) 0.535(3) 0.6032(3)
F4_14 F 0.2873(15) 0.494(2) 0.5822(6)
F5_14 F 0.323(2) 0.6384(15) 0.5729(6)
F6_14 F 0.4352(19) 0.4377(13) 0.5680(5)
P1_15 P 0.2093(11) 0.6344(8) 0.8202(3)
F1_15 F 0.203(3) 0.618(3) 0.7868(4)
F2_15 F 0.150(2) 0.7325(17) 0.8151(6)
F3_15 F 0.215(3) 0.650(2) 0.8532(3)
F4_15 F 0.256(2) 0.5373(15) 0.8322(6)
F5_15 F 0.1116(15) 0.573(2) 0.8229(6)
F6_15 F 0.3123(13) 0.6852(19) 0.8180(5)
P1_16 P 0.8844(8) 0.0407(11) 0.0702(3)
F1_16 F 0.868(3) 0.047(3) 0.0368(4)
F2_16 F 0.9825(17) 0.100(2) 0.0651(6)
F3_16 F 0.900(2) 0.035(3) 0.1032(3)
F5_16 F 0.823(2) 0.1384(15) 0.0729(6)
F4_16 F 0.7873(15) 0.994(2) 0.0822(6)
F6_16 F 0.9352(19) 0.9377(13) 0.0680(5)
Cu1 Cu 0.5000 0.2500 0.097019(18)
O2 O 0.3633(4) 0.1284(4) 0.09950(9)
N1 N 0.4258(4) 0.3232(3) 0.06496(9)
C1 C 0.3784(6) 0.2671(5) 0.04511(12)
H1 H 0.3723 0.1992 0.0483
C2 C 0.3394(6) 0.3062(4) 0.02058(12)
H2 H 0.3074 0.2656 0.0073
C3 C 0.3478(5) 0.4062(4) 0.01574(10)
C4 C 0.3949(5) 0.4655(5) 0.03576(12)
H3 H 0.4007 0.5336 0.0330
C5 C 0.4328(5) 0.4206(4) 0.05991(12)
H4 H 0.4650 0.4600 0.0734
O3 O 0.6367(4) 0.3716(4) 0.09950(9)
N5 N 0.5742(4) 0.1768(3) 0.06496(9)
O4 O 0.3626(3) 0.5080(3) 0.22115(7)
N6 N 0.4268(3) 0.6758(4) 0.31496(9)
N7 N 0.2144(4) 0.5721(6) 0.22788(12)
N8 N 0.2173(4) 0.5210(6) 0.20107(11)
N9 N 0.4322(4) 0.3332(3) 0.12824(9)
C13 C 0.4829(5) 0.6284(6) 0.29511(12)
H9 H 0.5508 0.6223 0.2983
C14 C 0.4438(4) 0.5894(6) 0.27058(12)
H10 H 0.4844 0.5574 0.2573
C15 C 0.3438(4) 0.5978(5) 0.26574(10)
C16 C 0.2845(5) 0.6449(5) 0.28576(12)
H11 H 0.2164 0.6507 0.2830
C17 C 0.3294(4) 0.6828(5) 0.30991(12)
H12 H 0.2900 0.7150 0.3234
C18 C 0.3011(5) 0.5599(5) 0.23841(12)
C19 C 0.3021(5) 0.4860(5) 0.19823(12)
C20 C 0.3477(4) 0.4344(5) 0.17395(11)
C21 C 0.4499(5) 0.4181(5) 0.17297(13)
H13 H 0.4905 0.4408 0.1878
C22 C 0.4901(5) 0.3681(5) 0.14998(12)
H14 H 0.5584 0.3580 0.1493
C23 C 0.3363(5) 0.3480(5) 0.12943(12)
H15 H 0.2975 0.3245 0.1143
C24 C 0.2892(5) 0.3964(6) 0.15180(13)
H16 H 0.2205 0.4035 0.1521
N10 N 0.5678(4) 0.1668(3) 0.12824(9)
Cu2 Cu 0.5000 0.7500 0.347019(18)
N11 N 0.5732(3) 0.8242(4) 0.31496(9)
N12 N 0.5832(3) 0.8178(4) 0.37824(9)
N13 N 0.4168(3) 0.6822(4) 0.37824(9)
O1 O 0.2580(3) 0.3874(3) 0.97115(7)
N2 N 0.3221(6) 0.5356(4) 0.97788(12)
N3 N 0.2710(6) 0.5327(4) 0.95107(11)
N4 N 0.0832(3) 0.3178(4) 0.87824(9)
C6 C 0.3099(5) 0.4489(5) 0.98841(12)
C7 C 0.2360(5) 0.4479(5) 0.94823(12)
C8 C 0.1844(5) 0.4023(4) 0.92395(11)
C9 C 0.1681(5) 0.3001(5) 0.92297(13)
H5 H 0.1908 0.2595 0.9378
C10 C 0.1181(5) 0.2599(5) 0.89998(12)
H6 H 0.1080 0.1916 0.8993
C11 C 0.0980(5) 0.4137(5) 0.87943(12)
H7 H 0.0745 0.4525 0.8643
C12 C 0.1464(6) 0.4608(5) 0.90180(13)
H8 H 0.1535 0.5295 0.9021
Cu3 Cu -0.0000 0.2500 0.847019(18)
Cu3_2 Cu 1.0000 0.2500 0.847019(18)
O2_2 O 0.6216(4) 0.6133(4) 0.34950(9)
O3_2 O 0.3784(4) 0.8867(4) 0.34950(9)
O4_2 O 0.2420(3) 0.6126(3) 0.47115(7)
N6_2 N 0.0742(4) 0.6768(3) 0.56496(9)
N7_2 N 0.1779(6) 0.4644(4) 0.47788(12)
N8_2 N 0.2290(6) 0.4673(4) 0.45107(11)
C13_2 C 0.1216(6) 0.7329(5) 0.54511(12)
H9_2 H 0.1277 0.8008 0.5483
C14_2 C 0.1606(6) 0.6938(4) 0.52058(12)
H10_2 H 0.1926 0.7344 0.5073
C15_2 C 0.1522(5) 0.5938(4) 0.51574(10)
C16_2 C 0.1051(5) 0.5345(5) 0.53576(12)
H11_2 H 0.0993 0.4664 0.5330
C17_2 C 0.0672(5) 0.5794(4) 0.55991(12)
H12_2 H 0.0350 0.5400 0.5734
C18_2 C 0.1901(5) 0.5511(5) 0.48841(12)
C19_2 C 0.2640(5) 0.5521(5) 0.44823(12)
C20_2 C 0.3156(5) 0.5977(4) 0.42395(11)
C21_2 C 0.3319(5) 0.6999(5) 0.42297(13)
H13_2 H 0.3092 0.7405 0.4378
C22_2 C 0.3819(5) 0.7401(5) 0.39998(12)
H14_2 H 0.3920 0.8084 0.3993
C23_2 C 0.4020(5) 0.5863(5) 0.37943(12)
H15_2 H 0.4255 0.5475 0.3643
C24_2 C 0.3536(6) 0.5392(5) 0.40180(13)
H16_2 H 0.3465 0.4705 0.4021
Cu2_2 Cu 0.0000 0.7500 0.597019(18)
N13_2 N 0.0678(4) 0.6668(3) 0.62824(9)
Cu2_3 Cu 1.0000 0.7500 0.597019(18)
N11_2 N 0.9258(4) 0.8232(3) 0.56496(9)
N12_2 N 0.9322(4) 0.8332(3) 0.62824(9)
H9_3 H 0.0508 0.1223 0.7983
N11_3 N 0.0732(3) 0.3242(4) 0.81496(9)
O3_3 O 0.1367(4) 0.8716(4) 0.59950(9)
H14_3 H 0.0584 0.8580 0.6493
N2_2 N 0.8221(6) 0.0356(4) 0.47788(12)
N3_2 N 0.7710(6) 0.0327(4) 0.45107(11)
H3_2 H 0.9007 0.0336 0.5330
H8_2 H 0.6535 0.0295 0.4021
O4_3 O 0.8626(3) 0.0080(3) 0.72115(7)
N6_3 N 0.9268(3) 0.1758(4) 0.81496(9)
N7_3 N 0.7144(4) 0.0721(6) 0.72788(12)
N8_3 N 0.7173(4) 0.0210(6) 0.70107(11)
C13_3 C 0.9829(5) 0.1284(6) 0.79511(12)
C14_3 C 0.9438(4) 0.0894(6) 0.77058(12)
H10_3 H 0.9844 0.0574 0.7573
C15_3 C 0.8438(4) 0.0978(5) 0.76574(10)
C16_3 C 0.7845(5) 0.1449(5) 0.78576(12)
H11_3 H 0.7164 0.1507 0.7830
C17_3 C 0.8294(4) 0.1828(5) 0.80991(12)
H12_3 H 0.7900 0.2150 0.8234
C18_3 C 0.8011(5) 0.0599(5) 0.73841(12)
N13_3 N 0.9168(3) 0.1822(4) 0.87824(9)
O1_2 O 0.7580(3) 0.8874(3) 0.47115(7)
O2_3 O 0.8633(4) 0.6284(4) 0.59950(9)
C1_2 C 0.8784(6) 0.7671(5) 0.54511(12)
H1_2 H 0.8723 0.6992 0.5483
C2_2 C 0.8394(6) 0.8062(4) 0.52058(12)
H2_2 H 0.8074 0.7656 0.5073
C3_2 C 0.8478(5) 0.9062(4) 0.51574(10)
C4_2 C 0.8949(5) 0.9655(5) 0.53576(12)
C5_2 C 0.9328(5) 0.9206(4) 0.55991(12)
H4_2 H 0.9650 0.9600 0.5734
C6_2 C 0.8099(5) 0.9489(5) 0.48841(12)
C7_2 C 0.7360(5) 0.9479(5) 0.44823(12)
C8_2 C 0.6844(5) 0.9023(4) 0.42395(11)
C9_2 C 0.6681(5) 0.8001(5) 0.42297(13)
H5_2 H 0.6908 0.7595 0.4378
C10_2 C 0.6181(5) 0.7599(5) 0.39998(12)
H6_2 H 0.6080 0.6916 0.3993
C11_2 C 0.5980(5) 0.9137(5) 0.37943(12)
H7_2 H 0.5745 0.9525 0.3643
C12_2 C 0.6464(6) 0.9608(5) 0.40180(13)
C19_3 C 0.8021(5) 0.9860(5) 0.69823(12)
C20_3 C 0.8477(4) 0.9344(5) 0.67395(11)
C21_3 C 0.9499(5) 0.9181(5) 0.67297(13)
H13_3 H 0.9905 0.9408 0.6878
C22_3 C 0.9901(5) 0.8681(5) 0.64998(12)
C23_3 C 0.8363(5) 0.8480(5) 0.62943(12)
H15_3 H 0.7975 0.8245 0.6143
C24_3 C 0.7892(5) 0.8964(6) 0.65180(13)
H16_3 H 0.7205 0.9035 0.6521
O2_4 O 0.1216(4) 0.1133(4) 0.84950(9)
C13_4 C 0.6216(6) 0.2329(5) 0.04511(12)
H9_4 H 0.6277 0.3008 0.0483
C14_4 C 0.6606(6) 0.1938(4) 0.02058(12)
H10_4 H 0.6926 0.2344 0.0073
C15_4 C 0.6522(5) 0.0938(4) 0.01574(10)
C16_4 C 0.6051(5) 0.0345(5) 0.03576(12)
C17_4 C 0.5672(5) 0.0794(4) 0.05991(12)
H12_4 H 0.5350 0.0400 0.0734
O3_4 O 0.8784(4) 0.3867(4) 0.84950(9)
O4_4 O 0.7420(3) 0.1126(3) 0.97115(7)
C18_4 C 0.6901(5) 0.0511(5) 0.98841(12)
C19_4 C 0.7640(5) 0.0521(5) 0.94823(12)
C20_4 C 0.8156(5) 0.0977(4) 0.92395(11)
C21_4 C 0.8319(5) 0.1999(5) 0.92297(13)
H13_4 H 0.8092 0.2405 0.9378
C22_4 C 0.8819(5) 0.2401(5) 0.89998(12)
H14_4 H 0.8920 0.3084 0.8993
C23_4 C 0.9020(5) 0.0863(5) 0.87943(12)
H15_4 H 0.9255 0.0475 0.8643
C24_4 C 0.8536(6) 0.0392(5) 0.90180(13)
H11_4 H 0.5993 0.9664 0.0330
N7_4 N 0.6779(6) 0.9644(4) 0.97788(12)
N8_4 N 0.7290(6) 0.9673(4) 0.95107(11)
H16_4 H 0.8465 0.9705 0.9021
C7_3 C 0.6979(5) 0.0140(5) 0.19823(12)
C8_3 C 0.6523(4) 0.0656(5) 0.17395(11)
C9_3 C 0.5501(5) 0.0819(5) 0.17297(13)
H5_3 H 0.5095 0.0592 0.1878
C10_3 C 0.5099(5) 0.1319(5) 0.14998(12)
H6_3 H 0.4416 0.1420 0.1493
C11_3 C 0.6637(5) 0.1520(5) 0.12943(12)
H7_3 H 0.7025 0.1755 0.1143
C12_3 C 0.7108(5) 0.1036(6) 0.15180(13)
H8_3 H 0.7795 0.0965 0.1521
O1_3 O 0.6374(3) 0.9920(3) 0.22115(7)
N2_3 N 0.7856(4) 0.9279(6) 0.22788(12)
N3_3 N 0.7827(4) 0.9790(6) 0.20107(11)
C1_3 C 0.5171(5) 0.8716(6) 0.29511(12)
H1_3 H 0.4492 0.8777 0.2983
C2_3 C 0.5562(4) 0.9106(6) 0.27058(12)
H2_3 H 0.5156 0.9426 0.2573
C3_3 C 0.6562(4) 0.9022(5) 0.26574(10)
C4_3 C 0.7155(5) 0.8551(5) 0.28576(12)
H3_3 H 0.7836 0.8493 0.2830
C5_3 C 0.6706(4) 0.8172(5) 0.30991(12)
H4_3 H 0.7100 0.7850 0.3234
C6_3 C 0.6989(5) 0.9401(5) 0.23841(12)
O4_5 O 0.1374(3) 0.4920(3) 0.72115(7)
N7_5 N 0.2856(4) 0.4279(6) 0.72788(12)
N8_5 N 0.2827(4) 0.4790(6) 0.70107(11)
C13_5 C 0.0171(5) 0.3716(6) 0.79511(12)
C14_5 C 0.0562(4) 0.4106(6) 0.77058(12)
H10_5 H 0.0156 0.4426 0.7573
C15_5 C 0.1562(4) 0.4022(5) 0.76574(10)
C16_5 C 0.2155(5) 0.3551(5) 0.78576(12)
H11_5 H 0.2836 0.3493 0.7830
C17_5 C 0.1706(4) 0.3172(5) 0.80991(12)
H12_5 H 0.2100 0.2850 0.8234
C18_5 C 0.1989(5) 0.4401(5) 0.73841(12)
C19_5 C 0.1979(5) 0.5140(5) 0.69823(12)
C20_5 C 0.1523(4) 0.5656(5) 0.67395(11)
C21_5 C 0.0501(5) 0.5819(5) 0.67297(13)
H13_5 H 0.0095 0.5592 0.6878
C22_5 C 0.0099(5) 0.6319(5) 0.64998(12)
C23_5 C 0.1637(5) 0.6520(5) 0.62943(12)
H15_5 H 0.2025 0.6755 0.6143
C24_5 C 0.2108(5) 0.6036(6) 0.65180(13)
H16_5 H 0.2795 0.5965 0.6521
H9_5 H 0.9492 0.3777 0.7983
H14_5 H 0.9416 0.6420 0.6493
Cu1_2 Cu 0.0000 0.2500 0.402981(18)
O3_5 O 0.1367(4) 0.3716(4) 0.40050(9)
N5_2 N 0.0742(4) 0.1768(3) 0.43504(9)
H9_6 H 0.0508 0.6223 0.2017
H14_6 H 0.0584 0.3580 0.3507
N10_2 N 0.0678(4) 0.1668(3) 0.37176(9)
Cu2_4 Cu -0.0000 0.7500 0.152981(18)
N11_4 N 0.0732(3) 0.8242(4) 0.18504(9)
N12_3 N 0.0832(3) 0.8178(4) 0.12176(9)
Cu1_3 Cu 1.0000 0.2500 0.402981(18)
O1_4 O 0.7580(3) 0.3874(3) 0.52885(7)
O2_5 O 0.8633(4) 0.1284(4) 0.40050(9)
N1_2 N 0.9258(4) 0.3232(3) 0.43504(9)
N2_4 N 0.8221(6) 0.5356(4) 0.52212(12)
N3_4 N 0.7710(6) 0.5327(4) 0.54893(11)
N4_2 N 0.5832(3) 0.3178(4) 0.62176(9)
C1_4 C 0.8784(6) 0.2671(5) 0.45489(12)
H1_4 H 0.8723 0.1992 0.4517
C2_4 C 0.8394(6) 0.3062(4) 0.47942(12)
H2_4 H 0.8074 0.2656 0.4927
C3_4 C 0.8478(5) 0.4062(4) 0.48426(10)
C4_4 C 0.8949(5) 0.4655(5) 0.46424(12)
H3_4 H 0.9007 0.5336 0.4670
C5_4 C 0.9328(5) 0.4206(4) 0.44009(12)
H4_4 H 0.9650 0.4600 0.4266
C6_4 C 0.8099(5) 0.4489(5) 0.51159(12)
C7_4 C 0.7360(5) 0.4479(5) 0.55177(12)
C8_4 C 0.6844(5) 0.4023(4) 0.57605(11)
C9_4 C 0.6681(5) 0.3001(5) 0.57703(13)
H5_4 H 0.6908 0.2595 0.5622
C10_4 C 0.6181(5) 0.2599(5) 0.60002(12)
H6_4 H 0.6080 0.1916 0.6007
C11_4 C 0.5980(5) 0.4137(5) 0.62057(12)
H7_4 H 0.5745 0.4525 0.6357
C12_4 C 0.6464(6) 0.4608(5) 0.59820(13)
H8_4 H 0.6535 0.5295 0.5979
O4_6 O 0.8626(3) 0.5080(3) 0.27885(7)
N6_4 N 0.9268(3) 0.6758(4) 0.18504(9)
N7_6 N 0.7144(4) 0.5721(6) 0.27212(12)
N8_6 N 0.7173(4) 0.5210(6) 0.29893(11)
N9_2 N 0.9322(4) 0.3332(3) 0.37176(9)
C13_6 C 0.9829(5) 0.6284(6) 0.20489(12)
C14_6 C 0.9438(4) 0.5894(6) 0.22942(12)
H10_6 H 0.9844 0.5574 0.2427
C15_6 C 0.8438(4) 0.5978(5) 0.23426(10)
C16_6 C 0.7845(5) 0.6449(5) 0.21424(12)
H11_6 H 0.7164 0.6507 0.2170
C17_6 C 0.8294(4) 0.6828(5) 0.19009(12)
H12_6 H 0.7900 0.7150 0.1766
C18_6 C 0.8011(5) 0.5599(5) 0.26159(12)
C19_6 C 0.8021(5) 0.4860(5) 0.30177(12)
C20_6 C 0.8477(4) 0.4344(5) 0.32605(11)
C21_6 C 0.9499(5) 0.4181(5) 0.32703(13)
H13_6 H 0.9905 0.4408 0.3122
C22_6 C 0.9901(5) 0.3681(5) 0.35002(12)
C23_6 C 0.8363(5) 0.3480(5) 0.37057(12)
H15_6 H 0.7975 0.3245 0.3857
C24_6 C 0.7892(5) 0.3964(6) 0.34820(13)
H16_6 H 0.7205 0.4035 0.3479
Cu2_5 Cu 1.0000 0.7500 0.152981(18)
Cu3_3 Cu 0.5000 0.2500 0.652981(18)
N13_4 N 0.9168(3) 0.6822(4) 0.12176(9)
O2_6 O 0.1216(4) 0.6133(4) 0.15050(9)
O3_6 O 0.8784(4) 0.8867(4) 0.15050(9)
O4_7 O 0.7420(3) 0.6126(3) 0.02885(7)
N7_7 N 0.6779(6) 0.4644(4) 0.02212(12)
N8_7 N 0.7290(6) 0.4673(4) 0.04893(11)
C18_7 C 0.6901(5) 0.5511(5) 0.01159(12)
C19_7 C 0.7640(5) 0.5521(5) 0.05177(12)
C20_7 C 0.8156(5) 0.5977(4) 0.07605(11)
C21_7 C 0.8319(5) 0.6999(5) 0.07703(13)
H13_7 H 0.8092 0.7405 0.0622
C22_7 C 0.8819(5) 0.7401(5) 0.10002(12)
H14_7 H 0.8920 0.8084 0.1007
C23_7 C 0.9020(5) 0.5863(5) 0.12057(12)
H15_7 H 0.9255 0.5475 0.1357
C24_7 C 0.8536(6) 0.5392(5) 0.09820(13)
H16_7 H 0.8465 0.4705 0.0979
N6_5 N 0.5742(4) 0.6768(3) 0.93504(9)
C13_7 C 0.6216(6) 0.7329(5) 0.95489(12)
H9_7 H 0.6277 0.8008 0.9517
C14_7 C 0.6606(6) 0.6938(4) 0.97942(12)
H10_7 H 0.6926 0.7344 0.9927
C15_7 C 0.6522(5) 0.5938(4) 0.98426(10)
C16_7 C 0.6051(5) 0.5345(5) 0.96424(12)
H11_7 H 0.5993 0.4664 0.9670
C17_7 C 0.5672(5) 0.5794(4) 0.94009(12)
H12_7 H 0.5350 0.5400 0.9266
Cu2_6 Cu 0.5000 0.7500 0.902981(18)
N11_5 N 0.4258(4) 0.8232(3) 0.93504(9)
N12_4 N 0.4322(4) 0.8332(3) 0.87176(9)
N13_5 N 0.5678(4) 0.6668(3) 0.87176(9)
N2_5 N 0.3221(6) 0.0356(4) 0.02212(12)
N3_5 N 0.2710(6) 0.0327(4) 0.04893(11)
H8_5 H 0.1535 0.0295 0.0979
H3_5 H 0.4007 0.0336 0.9670
O4_8 O 0.3626(3) 0.0080(3) 0.77885(7)
N6_6 N 0.4268(3) 0.1758(4) 0.68504(9)
N7_8 N 0.2144(4) 0.0721(6) 0.77212(12)
N8_8 N 0.2173(4) 0.0210(6) 0.79893(11)
C13_8 C 0.4829(5) 0.1284(6) 0.70489(12)
H9_8 H 0.5508 0.1223 0.7017
C14_8 C 0.4438(4) 0.0894(6) 0.72942(12)
H10_8 H 0.4844 0.0574 0.7427
C15_8 C 0.3438(4) 0.0978(5) 0.73426(10)
C16_8 C 0.2845(5) 0.1449(5) 0.71424(12)
H11_8 H 0.2164 0.1507 0.7170
C17_8 C 0.3294(4) 0.1828(5) 0.69009(12)
H12_8 H 0.2900 0.2150 0.6766
C18_8 C 0.3011(5) 0.0599(5) 0.76159(12)
N11_6 N 0.5732(3) 0.3242(4) 0.68504(9)
N13_6 N 0.4168(3) 0.1822(4) 0.62176(9)
O1_5 O 0.2580(3) 0.8874(3) 0.02885(7)
C6_5 C 0.3099(5) 0.9489(5) 0.01159(12)
C7_5 C 0.2360(5) 0.9479(5) 0.05177(12)
C8_5 C 0.1844(5) 0.9023(4) 0.07605(11)
C9_5 C 0.1681(5) 0.8001(5) 0.07703(13)
H5_5 H 0.1908 0.7595 0.0622
C10_5 C 0.1181(5) 0.7599(5) 0.10002(12)
H6_5 H 0.1080 0.6916 0.1007
C11_5 C 0.0980(5) 0.9137(5) 0.12057(12)
H7_5 H 0.0745 0.9525 0.1357
C12_5 C 0.1464(6) 0.9608(5) 0.09820(13)
O2_7 O 0.3633(4) 0.6284(4) 0.90050(9)
C1_5 C 0.3784(6) 0.7671(5) 0.95489(12)
H1_5 H 0.3723 0.6992 0.9517
C2_5 C 0.3394(6) 0.8062(4) 0.97942(12)
H2_5 H 0.3074 0.7656 0.9927
C3_5 C 0.3478(5) 0.9062(4) 0.98426(10)
C4_5 C 0.3949(5) 0.9655(5) 0.96424(12)
C5_5 C 0.4328(5) 0.9206(4) 0.94009(12)
H4_5 H 0.4650 0.9600 0.9266
O3_7 O 0.6367(4) 0.8716(4) 0.90050(9)
C19_8 C 0.3021(5) 0.9860(5) 0.80177(12)
C20_8 C 0.3477(4) 0.9344(5) 0.82605(11)
C21_8 C 0.4499(5) 0.9181(5) 0.82703(13)
H13_8 H 0.4905 0.9408 0.8122
C22_8 C 0.4901(5) 0.8681(5) 0.85002(12)
H14_8 H 0.5584 0.8580 0.8507
C23_8 C 0.3363(5) 0.8480(5) 0.87057(12)
H15_8 H 0.2975 0.8245 0.8857
C24_8 C 0.2892(5) 0.8964(6) 0.84820(13)
H16_8 H 0.2205 0.9035 0.8479
O4_9 O 0.6374(3) 0.4920(3) 0.77885(7)
N7_9 N 0.7856(4) 0.4279(6) 0.77212(12)
N8_9 N 0.7827(4) 0.4790(6) 0.79893(11)
C13_9 C 0.5171(5) 0.3716(6) 0.70489(12)
H9_9 H 0.4492 0.3777 0.7017
C14_9 C 0.5562(4) 0.4106(6) 0.72942(12)
H10_9 H 0.5156 0.4426 0.7427
C15_9 C 0.6562(4) 0.4022(5) 0.73426(10)
C16_9 C 0.7155(5) 0.3551(5) 0.71424(12)
H11_9 H 0.7836 0.3493 0.7170
C17_9 C 0.6706(4) 0.3172(5) 0.69009(12)
H12_9 H 0.7100 0.2850 0.6766
C18_9 C 0.6989(5) 0.4401(5) 0.76159(12)
C19_9 C 0.6979(5) 0.5140(5) 0.80177(12)
C20_9 C 0.6523(4) 0.5656(5) 0.82605(11)
C21_9 C 0.5501(5) 0.5819(5) 0.82703(13)
H13_9 H 0.5095 0.5592 0.8122
C22_9 C 0.5099(5) 0.6319(5) 0.85002(12)
H14_9 H 0.4416 0.6420 0.8507
C23_9 C 0.6637(5) 0.6520(5) 0.87057(12)
H15_9 H 0.7025 0.6755 0.8857
C24_9 C 0.7108(5) 0.6036(6) 0.84820(13)
H16_9 H 0.7795 0.5965 0.8479
O2_8 O 0.3784(4) 0.3867(4) 0.65050(9)
O3_8 O 0.6216(4) 0.1133(4) 0.65050(9)
O1_6 O 0.2420(3) 0.1126(3) 0.52885(7)
C1_6 C 0.1216(6) 0.2329(5) 0.45489(12)
H1_6 H 0.1277 0.3008 0.4517
C2_6 C 0.1606(6) 0.1938(4) 0.47942(12)
H2_6 H 0.1926 0.2344 0.4927
C3_6 C 0.1522(5) 0.0938(4) 0.48426(10)
C4_6 C 0.1051(5) 0.0345(5) 0.46424(12)
C5_6 C 0.0672(5) 0.0794(4) 0.44009(12)
H4_6 H 0.0350 0.0400 0.4266
C6_6 C 0.1901(5) 0.0511(5) 0.51159(12)
C7_6 C 0.2640(5) 0.0521(5) 0.55177(12)
C8_6 C 0.3156(5) 0.0977(4) 0.57605(11)
C9_6 C 0.3319(5) 0.1999(5) 0.57703(13)
H5_6 H 0.3092 0.2405 0.5622
C10_6 C 0.3819(5) 0.2401(5) 0.60002(12)
H6_6 H 0.3920 0.3084 0.6007
C11_6 C 0.4020(5) 0.0863(5) 0.62057(12)
H7_6 H 0.4255 0.0475 0.6357
C12_6 C 0.3536(6) 0.0392(5) 0.59820(13)
C19_10 C 0.1979(5) 0.0140(5) 0.30177(12)
C20_10 C 0.1523(4) 0.0656(5) 0.32605(11)
C21_10 C 0.0501(5) 0.0819(5) 0.32703(13)
H13_10 H 0.0095 0.0592 0.3122
C22_10 C 0.0099(5) 0.1319(5) 0.35002(12)
C23_10 C 0.1637(5) 0.1520(5) 0.37057(12)
H15_10 H 0.2025 0.1755 0.3857
C24_10 C 0.2108(5) 0.1036(6) 0.34820(13)
H16_10 H 0.2795 0.0965 0.3479
N2_6 N 0.1779(6) 0.9644(4) 0.52212(12)
N3_6 N 0.2290(6) 0.9673(4) 0.54893(11)
H3_6 H 0.0993 0.9664 0.4670
H8_6 H 0.3465 0.9705 0.5979
O4_10 O 0.1374(3) 0.9920(3) 0.27885(7)
N7_10 N 0.2856(4) 0.9279(6) 0.27212(12)
N8_10 N 0.2827(4) 0.9790(6) 0.29893(11)
C13_10 C 0.0171(5) 0.8716(6) 0.20489(12)
C14_10 C 0.0562(4) 0.9106(6) 0.22942(12)
H10_10 H 0.0156 0.9426 0.2427
C15_10 C 0.1562(4) 0.9022(5) 0.23426(10)
C16_10 C 0.2155(5) 0.8551(5) 0.21424(12)
H11_10 H 0.2836 0.8493 0.2170
C17_10 C 0.1706(4) 0.8172(5) 0.19009(12)
H12_10 H 0.2100 0.7850 0.1766
C18_10 C 0.1989(5) 0.9401(5) 0.26159(12)
H14_10 H 0.9416 0.1420 0.3507
H9_10 H 0.9492 0.8777 0.2017
loop_
_geom_bond_atom_site_label_1
_geom_bond_atom_site_label_2
_geom_bond_site_symmetry_1
_geom_bond_site_symmetry_2
P1 F1 1_555 1_555
F2 P1 1_555 1_555
F3 P1 1_555 1_555
F4 P1 1_555 1_555
F5 P1 1_555 1_555
F6 P1 1_555 1_555
P1_2 F1_2 1_555 1_555
F2_2 P1_2 1_555 1_555
F3_2 P1_2 1_555 1_555
F4_2 P1_2 1_555 1_555
F5_2 P1_2 1_555 1_555
F6_2 P1_2 1_555 1_555
P1_3 F1_3 1_555 1_555
F2_3 P1_3 1_555 1_555
F3_3 P1_3 1_555 1_555
F5_3 P1_3 1_555 1_555
P1_4 F1_4 1_555 1_555
F2_4 P1_4 1_555 1_555
F3_4 P1_4 1_555 1_555
F4_4 P1_4 1_555 1_555
F5_4 P1_4 1_555 1_555
F6_4 P1_4 1_555 1_555
P1_5 F1_5 1_555 1_555
F2_5 P1_5 1_555 1_555
F3_5 P1_5 1_555 1_555
F4_5 P1_5 1_555 1_555
F5_5 P1_5 1_555 1_555
F6_5 P1_5 1_555 1_555
P1_6 F1_6 1_555 1_555
F2_6 P1_6 1_555 1_555
F3_6 P1_6 1_555 1_555
F4_6 P1_6 1_555 1_555
F5_6 P1_6 1_555 1_555
F6_6 P1_6 1_555 1_555
P1_7 F1_7 1_555 1_555
F2_7 P1_7 1_555 1_555
F3_7 P1_7 1_555 1_555
F4_7 P1_7 1_555 1_555
F5_7 P1_7 1_555 1_555
F6_7 P1_7 1_555 1_555
P1_8 F1_8 1_555 1_555
F2_8 P1_8 1_555 1_555
F3_8 P1_8 1_555 1_555
F5_8 P1_8 1_555 1_555
P1_9 F1_9 1_555 1_555
F2_9 P1_9 1_555 1_555
F3_9 P1_9 1_555 1_555
F4_9 P1_9 1_555 1_555
F5_9 P1_9 1_555 1_555
F6_9 P1_9 1_555 1_555
P1_10 F1_10 1_555 1_555
F2_10 P1_10 1_555 1_555
F3_10 P1_10 1_555 1_555
F4_10 P1_10 1_555 1_555
F5_10 P1_10 1_555 1_555
F6_10 P1_10 1_555 1_555
P1_11 F1_11 1_555 1_555
F2_11 P1_11 1_555 1_555
F3_11 P1_11 1_555 1_555
F5_11 P1_11 1_555 1_555
P1_12 F1_12 1_555 1_555
F2_12 P1_12 1_555 1_555
F3_12 P1_12 1_555 1_555
F4_12 P1_12 1_555 1_555
F5_12 P1_12 1_555 1_555
F6_12 P1_12 1_555 1_555
P1_13 F1_13 1_555 1_555
F2_13 P1_13 1_555 1_555
F3_13 P1_13 1_555 1_555
F4_13 P1_13 1_555 1_555
F5_13 P1_13 1_555 1_555
F6_13 P1_13 1_555 1_555
P1_14 F1_14 1_555 1_555
F2_14 P1_14 1_555 1_555
F3_14 P1_14 1_555 1_555
F4_14 P1_14 1_555 1_555
F5_14 P1_14 1_555 1_555
F6_14 P1_14 1_555 1_555
P1_15 F1_15 1_555 1_555
F2_15 P1_15 1_555 1_555
F3_15 P1_15 1_555 1_555
F4_15 P1_15 1_555 1_555
F5_15 P1_15 1_555 1_555
F6_15 P1_15 1_555 1_555
P1_16 F1_16 1_555 1_555
F2_16 P1_16 1_555 1_555
F3_16 P1_16 1_555 1_555
F5_16 P1_16 1_555 1_555
Cu1 O2 1_555 1_555
N1 Cu1 1_555 1_555
C1 N1 1_555 1_555
H1 C1 1_555 1_555
C2 C1 1_555 1_555
H2 C2 1_555 1_555
C3 C2 1_555 1_555
C4 C3 1_555 1_555
H3 C4 1_555 1_555
C5 N1 1_555 1_555
H4 C5 1_555 1_555
O3 Cu1 1_555 1_555
N5 Cu1 1_555 1_555
O4 C18 1_555 1_555
N6 C13 1_555 1_555
N7 N8 1_555 1_555
N8 C19 1_555 1_555
N9 Cu1 1_555 1_555
C13 H9 1_555 1_555
C14 C13 1_555 1_555
H10 C14 1_555 1_555
C15 C14 1_555 1_555
C16 C15 1_555 1_555
H11 C16 1_555 1_555
C17 N6 1_555 1_555
H12 C17 1_555 1_555
C18 N7 1_555 1_555
C19 O4 1_555 1_555
C20 C19 1_555 1_555
C21 C20 1_555 1_555
H13 C21 1_555 1_555
C22 N9 1_555 1_555
H14 C22 1_555 1_555
C23 N9 1_555 1_555
H15 C23 1_555 1_555
C24 C20 1_555 1_555
H16 C24 1_555 1_555
N10 Cu1 1_555 1_555
Cu2 N6 1_555 1_555
N11 Cu2 1_555 1_555
N12 Cu2 1_555 1_555
N13 Cu2 1_555 1_555
C4 C5 1_555 1_555
C15 C18 1_555 1_555
C16 C17 1_555 1_555
C21 C22 1_555 1_555
C23 C24 1_555 1_555
O1 C6 1_555 1_555
N2 N3 1_555 1_555
N3 C7 1_555 1_555
N4 C10 1_555 1_555
C6 N2 1_555 1_555
C7 O1 1_555 1_555
C8 C7 1_555 1_555
C9 C8 1_555 1_555
H5 C9 1_555 1_555
C10 C9 1_555 1_555
H6 C10 1_555 1_555
C11 N4 1_555 1_555
H7 C11 1_555 1_555
C12 C8 1_555 1_555
H8 C12 1_555 1_555
Cu3 N4 1_555 1_555
C11 C12 1_555 1_555
Cu2 O2_2 1_555 1_555
O3_2 Cu2 1_555 1_555
O4_2 C18_2 1_555 1_555
N6_2 C13_2 1_555 1_555
N7_2 N8_2 1_555 1_555
N8_2 C19_2 1_555 1_555
C13_2 H9_2 1_555 1_555
C14_2 C13_2 1_555 1_555
H10_2 C14_2 1_555 1_555
C15_2 C14_2 1_555 1_555
C16_2 C15_2 1_555 1_555
H11_2 C16_2 1_555 1_555
C17_2 N6_2 1_555 1_555
H12_2 C17_2 1_555 1_555
C18_2 N7_2 1_555 1_555
C19_2 O4_2 1_555 1_555
C20_2 C19_2 1_555 1_555
C21_2 C20_2 1_555 1_555
H13_2 C21_2 1_555 1_555
C22_2 N13 1_555 1_555
H14_2 C22_2 1_555 1_555
C23_2 N13 1_555 1_555
H15_2 C23_2 1_555 1_555
C24_2 C20_2 1_555 1_555
H16_2 C24_2 1_555 1_555
Cu2_2 N6_2 1_555 1_555
N13_2 Cu2_2 1_555 1_555
C15_2 C18_2 1_555 1_555
C16_2 C17_2 1_555 1_555
C21_2 C22_2 1_555 1_555
C23_2 C24_2 1_555 1_555
N11_2 Cu2_3 1_555 1_555
N12_2 Cu2_3 1_555 1_555
N11_3 Cu3 1_555 1_555
O3_3 Cu2_2 1_555 1_555
N2_2 N3_2 1_555 1_555
O4_3 C18_3 1_555 1_555
N6_3 C13_3 1_555 1_555
N7_3 N8_3 1_555 1_555
C14_3 C13_3 1_555 1_555
H10_3 C14_3 1_555 1_555
C15_3 C14_3 1_555 1_555
C16_3 C15_3 1_555 1_555
H11_3 C16_3 1_555 1_555
C17_3 N6_3 1_555 1_555
H12_3 C17_3 1_555 1_555
C18_3 N7_3 1_555 1_555
Cu3_2 N6_3 1_555 1_555
N13_3 Cu3_2 1_555 1_555
C15_3 C18_3 1_555 1_555
C16_3 C17_3 1_555 1_555
Cu2_3 O2_3 1_555 1_555
O1_2 C6_2 1_555 1_555
N12 C10_2 1_555 1_555
C1_2 N11_2 1_555 1_555
H1_2 C1_2 1_555 1_555
C2_2 C1_2 1_555 1_555
H2_2 C2_2 1_555 1_555
C3_2 C2_2 1_555 1_555
C4_2 C3_2 1_555 1_555
C5_2 N11_2 1_555 1_555
H4_2 C5_2 1_555 1_555
C7_2 O1_2 1_555 1_555
C8_2 C7_2 1_555 1_555
C9_2 C8_2 1_555 1_555
H5_2 C9_2 1_555 1_555
C10_2 C9_2 1_555 1_555
H6_2 C10_2 1_555 1_555
C11_2 N12 1_555 1_555
H7_2 C11_2 1_555 1_555
C12_2 C8_2 1_555 1_555
C20_3 C19_3 1_555 1_555
C21_3 C20_3 1_555 1_555
H13_3 C21_3 1_555 1_555
C22_3 N12_2 1_555 1_555
C23_3 N12_2 1_555 1_555
H15_3 C23_3 1_555 1_555
C24_3 C20_3 1_555 1_555
H16_3 C24_3 1_555 1_555
C3_2 C6_2 1_555 1_555
C4_2 C5_2 1_555 1_555
C11_2 C12_2 1_555 1_555
C21_3 C22_3 1_555 1_555
C23_3 C24_3 1_555 1_555
Cu3 O2_4 1_555 1_555
N5 C13_4 1_555 1_555
C13_4 H9_4 1_555 1_555
C14_4 C13_4 1_555 1_555
H10_4 C14_4 1_555 1_555
C15_4 C14_4 1_555 1_555
C16_4 C15_4 1_555 1_555
C17_4 N5 1_555 1_555
H12_4 C17_4 1_555 1_555
C16_4 C17_4 1_555 1_555
O3_4 Cu3_2 1_555 1_555
O4_4 C18_4 1_555 1_555
C19_4 O4_4 1_555 1_555
C20_4 C19_4 1_555 1_555
C21_4 C20_4 1_555 1_555
H13_4 C21_4 1_555 1_555
C22_4 N13_3 1_555 1_555
H14_4 C22_4 1_555 1_555
C23_4 N13_3 1_555 1_555
H15_4 C23_4 1_555 1_555
C24_4 C20_4 1_555 1_555
C21_4 C22_4 1_555 1_555
C23_4 C24_4 1_555 1_555
N7_4 N8_4 1_555 1_555
N10 C10_3 1_555 1_555
C8_3 C7_3 1_555 1_555
C9_3 C8_3 1_555 1_555
H5_3 C9_3 1_555 1_555
C10_3 C9_3 1_555 1_555
H6_3 C10_3 1_555 1_555
C11_3 N10 1_555 1_555
H7_3 C11_3 1_555 1_555
C12_3 C8_3 1_555 1_555
H8_3 C12_3 1_555 1_555
C11_3 C12_3 1_555 1_555
O1_3 C6_3 1_555 1_555
N2_3 N3_3 1_555 1_555
C1_3 N11 1_555 1_555
H1_3 C1_3 1_555 1_555
C2_3 C1_3 1_555 1_555
H2_3 C2_3 1_555 1_555
C3_3 C2_3 1_555 1_555
C4_3 C3_3 1_555 1_555
H3_3 C4_3 1_555 1_555
C5_3 N11 1_555 1_555
H4_3 C5_3 1_555 1_555
C6_3 N2_3 1_555 1_555
C3_3 C6_3 1_555 1_555
C4_3 C5_3 1_555 1_555
O4_5 C18_5 1_555 1_555
N11_3 C13_5 1_555 1_555
N7_5 N8_5 1_555 1_555
N8_5 C19_5 1_555 1_555
C14_5 C13_5 1_555 1_555
H10_5 C14_5 1_555 1_555
C15_5 C14_5 1_555 1_555
C16_5 C15_5 1_555 1_555
H11_5 C16_5 1_555 1_555
C17_5 N11_3 1_555 1_555
H12_5 C17_5 1_555 1_555
C18_5 N7_5 1_555 1_555
C19_5 O4_5 1_555 1_555
C20_5 C19_5 1_555 1_555
C21_5 C20_5 1_555 1_555
H13_5 C21_5 1_555 1_555
C22_5 N13_2 1_555 1_555
C23_5 N13_2 1_555 1_555
H15_5 C23_5 1_555 1_555
C24_5 C20_5 1_555 1_555
H16_5 C24_5 1_555 1_555
C15_5 C18_5 1_555 1_555
C16_5 C17_5 1_555 1_555
C21_5 C22_5 1_555 1_555
C23_5 C24_5 1_555 1_555
O3_5 Cu1_2 1_555 1_555
N5_2 Cu1_2 1_555 1_555
N10_2 Cu1_2 1_555 1_555
N11_4 Cu2_4 1_555 1_555
N12_3 Cu2_4 1_555 1_555
Cu1_3 O2_5 1_555 1_555
O1_4 C6_4 1_555 1_555
N1_2 Cu1_3 1_555 1_555
N2_4 N3_4 1_555 1_555
N3_4 C7_4 1_555 1_555
N4_2 C10_4 1_555 1_555
C1_4 N1_2 1_555 1_555
H1_4 C1_4 1_555 1_555
C2_4 C1_4 1_555 1_555
H2_4 C2_4 1_555 1_555
C3_4 C2_4 1_555 1_555
C4_4 C3_4 1_555 1_555
H3_4 C4_4 1_555 1_555
C5_4 N1_2 1_555 1_555
H4_4 C5_4 1_555 1_555
C6_4 N2_4 1_555 1_555
C7_4 O1_4 1_555 1_555
C8_4 C7_4 1_555 1_555
C9_4 C8_4 1_555 1_555
H5_4 C9_4 1_555 1_555
C10_4 C9_4 1_555 1_555
H6_4 C10_4 1_555 1_555
C11_4 N4_2 1_555 1_555
H7_4 C11_4 1_555 1_555
C12_4 C8_4 1_555 1_555
H8_4 C12_4 1_555 1_555
O4_6 C18_6 1_555 1_555
N6_4 C13_6 1_555 1_555
N7_6 N8_6 1_555 1_555
N8_6 C19_6 1_555 1_555
N9_2 Cu1_3 1_555 1_555
C14_6 C13_6 1_555 1_555
H10_6 C14_6 1_555 1_555
C15_6 C14_6 1_555 1_555
C16_6 C15_6 1_555 1_555
H11_6 C16_6 1_555 1_555
C17_6 N6_4 1_555 1_555
H12_6 C17_6 1_555 1_555
C18_6 N7_6 1_555 1_555
C19_6 O4_6 1_555 1_555
C20_6 C19_6 1_555 1_555
C21_6 C20_6 1_555 1_555
H13_6 C21_6 1_555 1_555
C22_6 N9_2 1_555 1_555
C23_6 N9_2 1_555 1_555
H15_6 C23_6 1_555 1_555
C24_6 C20_6 1_555 1_555
H16_6 C24_6 1_555 1_555
Cu2_5 N6_4 1_555 1_555
Cu3_3 N4_2 1_555 1_555
N13_4 Cu2_5 1_555 1_555
C3_4 C6_4 1_555 1_555
C4_4 C5_4 1_555 1_555
C11_4 C12_4 1_555 1_555
C15_6 C18_6 1_555 1_555
C16_6 C17_6 1_555 1_555
C21_6 C22_6 1_555 1_555
C23_6 C24_6 1_555 1_555
Cu2_4 O2_6 1_555 1_555
O3_6 Cu2_5 1_555 1_555
O4_7 C18_7 1_555 1_555
N7_7 N8_7 1_555 1_555
N8_7 C19_7 1_555 1_555
C18_7 N7_7 1_555 1_555
C19_7 O4_7 1_555 1_555
C20_7 C19_7 1_555 1_555
C21_7 C20_7 1_555 1_555
H13_7 C21_7 1_555 1_555
C22_7 N13_4 1_555 1_555
H14_7 C22_7 1_555 1_555
C23_7 N13_4 1_555 1_555
H15_7 C23_7 1_555 1_555
C24_7 C20_7 1_555 1_555
H16_7 C24_7 1_555 1_555
C21_7 C22_7 1_555 1_555
C23_7 C24_7 1_555 1_555
N6_5 C13_7 1_555 1_555
C13_7 H9_7 1_555 1_555
C14_7 C13_7 1_555 1_555
H10_7 C14_7 1_555 1_555
C15_7 C14_7 1_555 1_555
C16_7 C15_7 1_555 1_555
H11_7 C16_7 1_555 1_555
C17_7 N6_5 1_555 1_555
H12_7 C17_7 1_555 1_555
Cu2_6 N6_5 1_555 1_555
N11_5 Cu2_6 1_555 1_555
N12_4 Cu2_6 1_555 1_555
N13_5 Cu2_6 1_555 1_555
C16_7 C17_7 1_555 1_555
N2_5 N3_5 1_555 1_555
O4_8 C18_8 1_555 1_555
N6_6 C13_8 1_555 1_555
N7_8 N8_8 1_555 1_555
C13_8 H9_8 1_555 1_555
C14_8 C13_8 1_555 1_555
H10_8 C14_8 1_555 1_555
C15_8 C14_8 1_555 1_555
C16_8 C15_8 1_555 1_555
H11_8 C16_8 1_555 1_555
C17_8 N6_6 1_555 1_555
H12_8 C17_8 1_555 1_555
C18_8 N7_8 1_555 1_555
Cu3_3 N6_6 1_555 1_555
N11_6 Cu3_3 1_555 1_555
N13_6 Cu3_3 1_555 1_555
C15_8 C18_8 1_555 1_555
C16_8 C17_8 1_555 1_555
O1_5 C6_5 1_555 1_555
N12_3 C10_5 1_555 1_555
C7_5 O1_5 1_555 1_555
C8_5 C7_5 1_555 1_555
C9_5 C8_5 1_555 1_555
H5_5 C9_5 1_555 1_555
C10_5 C9_5 1_555 1_555
H6_5 C10_5 1_555 1_555
C11_5 N12_3 1_555 1_555
H7_5 C11_5 1_555 1_555
C12_5 C8_5 1_555 1_555
C11_5 C12_5 1_555 1_555
Cu2_6 O2_7 1_555 1_555
C1_5 N11_5 1_555 1_555
H1_5 C1_5 1_555 1_555
C2_5 C1_5 1_555 1_555
H2_5 C2_5 1_555 1_555
C3_5 C2_5 1_555 1_555
C4_5 C3_5 1_555 1_555
C5_5 N11_5 1_555 1_555
H4_5 C5_5 1_555 1_555
O3_7 Cu2_6 1_555 1_555
C20_8 C19_8 1_555 1_555
C21_8 C20_8 1_555 1_555
H13_8 C21_8 1_555 1_555
C22_8 N12_4 1_555 1_555
H14_8 C22_8 1_555 1_555
C23_8 N12_4 1_555 1_555
H15_8 C23_8 1_555 1_555
C24_8 C20_8 1_555 1_555
H16_8 C24_8 1_555 1_555
C4_5 C5_5 1_555 1_555
C21_8 C22_8 1_555 1_555
C23_8 C24_8 1_555 1_555
O4_9 C18_9 1_555 1_555
N11_6 C13_9 1_555 1_555
N7_9 N8_9 1_555 1_555
N8_9 C19_9 1_555 1_555
C13_9 H9_9 1_555 1_555
C14_9 C13_9 1_555 1_555
H10_9 C14_9 1_555 1_555
C15_9 C14_9 1_555 1_555
C16_9 C15_9 1_555 1_555
H11_9 C16_9 1_555 1_555
C17_9 N11_6 1_555 1_555
H12_9 C17_9 1_555 1_555
C18_9 N7_9 1_555 1_555
C19_9 O4_9 1_555 1_555
C20_9 C19_9 1_555 1_555
C21_9 C20_9 1_555 1_555
H13_9 C21_9 1_555 1_555
C22_9 N13_5 1_555 1_555
H14_9 C22_9 1_555 1_555
C23_9 N13_5 1_555 1_555
H15_9 C23_9 1_555 1_555
C24_9 C20_9 1_555 1_555
H16_9 C24_9 1_555 1_555
C15_9 C18_9 1_555 1_555
C16_9 C17_9 1_555 1_555
C21_9 C22_9 1_555 1_555
C23_9 C24_9 1_555 1_555
Cu3_3 O2_8 1_555 1_555
O3_8 Cu3_3 1_555 1_555
O1_6 C6_6 1_555 1_555
N13_6 C10_6 1_555 1_555
C1_6 N5_2 1_555 1_555
H1_6 C1_6 1_555 1_555
C2_6 C1_6 1_555 1_555
H2_6 C2_6 1_555 1_555
C3_6 C2_6 1_555 1_555
C4_6 C3_6 1_555 1_555
C5_6 N5_2 1_555 1_555
H4_6 C5_6 1_555 1_555
C7_6 O1_6 1_555 1_555
C8_6 C7_6 1_555 1_555
C9_6 C8_6 1_555 1_555
H5_6 C9_6 1_555 1_555
C10_6 C9_6 1_555 1_555
H6_6 C10_6 1_555 1_555
C11_6 N13_6 1_555 1_555
H7_6 C11_6 1_555 1_555
C12_6 C8_6 1_555 1_555
C20_10 C19_10 1_555 1_555
C21_10 C20_10 1_555 1_555
H13_10 C21_10 1_555 1_555
C22_10 N10_2 1_555 1_555
C23_10 N10_2 1_555 1_555
H15_10 C23_10 1_555 1_555
C24_10 C20_10 1_555 1_555
H16_10 C24_10 1_555 1_555
C3_6 C6_6 1_555 1_555
C4_6 C5_6 1_555 1_555
C11_6 C12_6 1_555 1_555
C21_10 C22_10 1_555 1_555
C23_10 C24_10 1_555 1_555
N2_6 N3_6 1_555 1_555
O4_10 C18_10 1_555 1_555
N11_4 C13_10 1_555 1_555
N7_10 N8_10 1_555 1_555
C14_10 C13_10 1_555 1_555
H10_10 C14_10 1_555 1_555
C15_10 C14_10 1_555 1_555
C16_10 C15_10 1_555 1_555
H11_10 C16_10 1_555 1_555
C17_10 N11_4 1_555 1_555
H12_10 C17_10 1_555 1_555
C18_10 N7_10 1_555 1_555
C15_10 C18_10 1_555 1_555
C16_10 C17_10 1_555 1_555

#END
