
###############################################################################
#
# This file contains modified crystal structure data generated from the
# MOF subset of the Cambridge Structural Database (CSD) v543 
# hosted by the Cambridge Crystallographic Data Centre (CCDC).
#
# This work is licensed under the Creative Commons
# Attribution-NonCommercial-ShareAlike 4.0 International License.
# To view a copy of this license, visit
# http://creativecommons.org/licenses/by-nc-sa/4.0/
# or send a letter to
# Creative Commons, PO Box 1866, Mountain View, CA 94042, USA.
#
# CIF created using the CSD Python API on 29 September 2022
# The structure has been converted into the P1 space group
# The structure has a 3D framework
# The original CSD entry ISAYUW is in the orthorhombic crystal system
# The framework has been calculated to contain at least 10.0% void space
# The void calculation uses a probe of radius 1.32A, grid spacing 0.4
#
###############################################################################

data_ISAYUW
_chemical_formula_moiety         '(C48 H32 Cu3 N40 O4)n'
_symmetry_cell_setting           triclinic
_symmetry_space_group_name_H-M   'P 1'
_symmetry_Int_Tables_number      1
_space_group_name_Hall           'P 1'
loop_
_symmetry_equiv_pos_site_id
_symmetry_equiv_pos_as_xyz
1 x,y,z
_cell_length_a                   6.379(2)
_cell_length_b                   10.060(3)
_cell_length_c                   27.232(9)
_cell_angle_alpha                90
_cell_angle_beta                 90
_cell_angle_gamma                90
_cell_volume                     1747.55
loop_
_atom_site_label
_atom_site_type_symbol
_atom_site_fract_x
_atom_site_fract_y
_atom_site_fract_z
N8 N 0.226(4) 0.367(2) 0.0150(9)
N12 N 0.208(4) 0.692(3) 0.0382(11)
Cu4 Cu 0.4986(7) 0.0002(4) 0.0006(4)
O1 O 0.2231(11) 0.5827(7) 0.7506(11)
N1 N 0.118(4) 0.542(2) 0.9339(7)
N2 N 0.535(4) 0.644(2) 0.7764(10)
N3 N 0.544(4) 0.627(2) 0.7245(10)
N4 N 0.115(4) 0.534(2) 0.5693(9)
N9 N 0.257(3) 0.277(2) 0.9877(7)
N10 N 0.280(4) 0.179(2) 0.9632(10)
C2 C 0.055(5) 0.553(4) 0.8475(12)
C3 C 0.272(5) 0.588(3) 0.8385(13)
C4 C 0.399(5) 0.604(3) 0.8800(11)
H3 H 0.5343 0.6372 0.8767
C5 C 0.324(4) 0.570(3) 0.9259(11)
H4 H 0.4167 0.5672 0.9522
C6 C 0.347(5) 0.613(2) 0.7917(10)
C7 C 0.358(5) 0.597(3) 0.7131(9)
C8 C 0.261(4) 0.588(3) 0.6617(10)
C9 C 0.061(5) 0.556(3) 0.6554(11)
C11 C 0.311(5) 0.573(3) 0.5762(11)
H7 H 0.3959 0.5866 0.5488
C12 C 0.395(5) 0.594(3) 0.6216(10)
H8 H 0.5376 0.6108 0.6256
Cu2 Cu 0.0014(7) 0.5002(4) 0.5006(4)
Cu1 Cu 0.9986(7) 0.4998(4) 0.0006(4)
N6 N 0.740(4) 0.719(3) 0.0147(9)
N7 N 0.708(4) 0.808(3) 0.0382(11)
N11 N 0.885(4) 0.466(2) 0.0693(9)
N5 N 0.761(4) 0.627(2) 0.9896(9)
C1 C 0.986(4) 0.522(2) 0.8944(10)
H1 H 0.8525 0.4878 0.8992
H2 H 0.9600 0.5524 0.8215
H5 H 0.9715 0.5427 0.6819
C10 C 0.994(4) 0.544(3) 0.6082(11)
H6 H 0.8497 0.5418 0.6030
N13 N 0.780(4) 0.321(2) 0.9632(10)
N5_2 N 0.239(4) 0.373(2) 0.4896(9)
N6_2 N 0.260(4) 0.281(3) 0.5147(9)
N7_2 N 0.292(4) 0.192(3) 0.5382(11)
C1_2 C 0.014(4) 0.478(2) 0.3944(10)
H1_2 H 0.1475 0.5122 0.3992
H2_2 H 0.0400 0.4476 0.3215
H5_2 H 0.0285 0.4573 0.1819
C10_2 C 0.006(4) 0.456(3) 0.1082(11)
H6_2 H 0.1503 0.4582 0.1030
N13_2 N 0.220(4) 0.679(2) 0.4632(10)
Cu3 Cu 0.5014(7) 0.9998(4) 0.5006(4)
O1_2 O 0.7769(11) 0.4173(7) 0.2506(11)
N1_2 N 0.882(4) 0.458(2) 0.4339(7)
N2_2 N 0.465(4) 0.356(2) 0.2764(10)
N3_2 N 0.456(4) 0.373(2) 0.2245(10)
N8_2 N 0.774(4) 0.633(2) 0.5150(9)
N9_2 N 0.743(3) 0.723(2) 0.4877(7)
N10_2 N 0.720(4) 0.821(2) 0.4632(10)
C2_2 C 0.945(5) 0.447(4) 0.3475(12)
C3_2 C 0.728(5) 0.412(3) 0.3385(13)
C4_2 C 0.601(5) 0.396(3) 0.3800(11)
H3_2 H 0.4657 0.3628 0.3767
C5_2 C 0.676(4) 0.430(3) 0.4259(11)
H4_2 H 0.5833 0.4328 0.4522
C6_2 C 0.653(5) 0.387(2) 0.2917(10)
C7_2 C 0.642(5) 0.403(3) 0.2131(9)
C8_2 C 0.739(4) 0.412(3) 0.1617(10)
C9_2 C 0.939(5) 0.444(3) 0.1554(11)
C11_2 C 0.689(5) 0.427(3) 0.0762(11)
H7_2 H 0.6041 0.4134 0.0488
C12_2 C 0.605(5) 0.406(3) 0.1216(10)
H8_2 H 0.4624 0.3892 0.1256
N12_2 N 0.792(4) 0.308(3) 0.5382(11)
N8_3 N 0.726(4) 0.133(2) 0.0150(9)
N11_2 N 0.385(4) 0.034(2) 0.0693(9)
N9_3 N 0.757(3) 0.223(2) 0.9877(7)
H1_3 H 0.3525 0.0122 0.8992
N6_3 N 0.240(4) 0.781(3) 0.0147(9)
O1_3 O 0.7231(11) 0.9173(7) 0.7506(11)
N1_3 N 0.618(4) 0.958(2) 0.9339(7)
N4_2 N 0.615(4) 0.966(2) 0.5693(9)
N5_3 N 0.261(4) 0.873(2) 0.9896(9)
C1_3 C 0.486(4) 0.978(2) 0.8944(10)
C2_3 C 0.555(5) 0.947(4) 0.8475(12)
H2_3 H 0.4600 0.9476 0.8215
C3_3 C 0.772(5) 0.912(3) 0.8385(13)
C4_3 C 0.899(5) 0.896(3) 0.8800(11)
C5_3 C 0.824(4) 0.930(3) 0.9259(11)
H4_3 H 0.9167 0.9328 0.9522
C6_3 C 0.847(5) 0.887(2) 0.7917(10)
C7_3 C 0.858(5) 0.903(3) 0.7131(9)
C8_3 C 0.761(4) 0.912(3) 0.6617(10)
C9_3 C 0.561(5) 0.944(3) 0.6554(11)
H5_3 H 0.4715 0.9573 0.6819
C10_3 C 0.494(4) 0.956(3) 0.6082(11)
H6_3 H 0.3497 0.9582 0.6030
C11_3 C 0.811(5) 0.927(3) 0.5762(11)
H7_3 H 0.8959 0.9134 0.5488
C12_3 C 0.895(5) 0.906(3) 0.6216(10)
O1_4 O 0.2769(11) 0.0827(7) 0.2506(11)
N1_4 N 0.382(4) 0.042(2) 0.4339(7)
N5_4 N 0.739(4) 0.127(2) 0.4896(9)
N6_4 N 0.760(4) 0.219(3) 0.5147(9)
C1_4 C 0.514(4) 0.022(2) 0.3944(10)
C2_4 C 0.445(5) 0.053(4) 0.3475(12)
H2_4 H 0.5400 0.0524 0.3215
C3_4 C 0.228(5) 0.088(3) 0.3385(13)
C4_4 C 0.101(5) 0.104(3) 0.3800(11)
C5_4 C 0.176(4) 0.070(3) 0.4259(11)
H4_4 H 0.0833 0.0672 0.4522
C6_4 C 0.153(5) 0.113(2) 0.2917(10)
C7_4 C 0.142(5) 0.097(3) 0.2131(9)
C8_4 C 0.239(4) 0.088(3) 0.1617(10)
C9_4 C 0.439(5) 0.056(3) 0.1554(11)
H5_4 H 0.5285 0.0427 0.1819
C10_4 C 0.506(4) 0.044(3) 0.1082(11)
H6_4 H 0.6503 0.0418 0.1030
C11_4 C 0.189(5) 0.073(3) 0.0762(11)
H7_4 H 0.1041 0.0866 0.0488
C12_4 C 0.105(5) 0.094(3) 0.1216(10)
N8_4 N 0.274(4) 0.867(2) 0.5150(9)
N9_4 N 0.243(3) 0.777(2) 0.4877(7)
H1_4 H 0.6475 0.9878 0.3992
N2_3 N 0.035(4) 0.856(2) 0.7764(10)
N3_3 N 0.044(4) 0.873(2) 0.7245(10)
H3_3 H 0.0343 0.8628 0.8767
H8_3 H 0.0376 0.8892 0.6256
N2_4 N 0.965(4) 0.144(2) 0.2764(10)
N3_4 N 0.956(4) 0.127(2) 0.2245(10)
H3_4 H 0.9657 0.1372 0.3767
H8_4 H 0.9624 0.1108 0.1256
loop_
_geom_bond_atom_site_label_1
_geom_bond_atom_site_label_2
_geom_bond_site_symmetry_1
_geom_bond_site_symmetry_2
O1 C6 1_555 1_555
N2 N3 1_555 1_555
N3 C7 1_555 1_555
N10 N9 1_555 1_555
C3 C2 1_555 1_555
C4 C3 1_555 1_555
H3 C4 1_555 1_555
C5 N1 1_555 1_555
H4 C5 1_555 1_555
C6 N2 1_555 1_555
C7 O1 1_555 1_555
C8 C7 1_555 1_555
C9 C8 1_555 1_555
C11 N4 1_555 1_555
H7 C11 1_555 1_555
C12 C8 1_555 1_555
H8 C12 1_555 1_555
Cu2 N4 1_555 1_555
C3 C6 1_555 1_555
C4 C5 1_555 1_555
C11 C12 1_555 1_555
N7 N6 1_555 1_555
N11 Cu1 1_555 1_555
C1 H1 1_555 1_555
H6 C10 1_555 1_555
N5_2 Cu2 1_555 1_555
N6_2 N5_2 1_555 1_555
N7_2 N6_2 1_555 1_555
C1_2 H1_2 1_555 1_555
H6_2 C10_2 1_555 1_555
N13_2 Cu2 1_555 1_555
O1_2 C6_2 1_555 1_555
N2_2 N3_2 1_555 1_555
N3_2 C7_2 1_555 1_555
N9_2 N8_2 1_555 1_555
N10_2 N9_2 1_555 1_555
C3_2 C2_2 1_555 1_555
C4_2 C3_2 1_555 1_555
H3_2 C4_2 1_555 1_555
C5_2 N1_2 1_555 1_555
H4_2 C5_2 1_555 1_555
C6_2 N2_2 1_555 1_555
C7_2 O1_2 1_555 1_555
C8_2 C7_2 1_555 1_555
C9_2 C8_2 1_555 1_555
C11_2 N11 1_555 1_555
H7_2 C11_2 1_555 1_555
C12_2 C8_2 1_555 1_555
H8_2 C12_2 1_555 1_555
Cu3 N10_2 1_555 1_555
C3_2 C6_2 1_555 1_555
C4_2 C5_2 1_555 1_555
C11_2 C12_2 1_555 1_555
N8_3 Cu4 1_555 1_555
N11_2 Cu4 1_555 1_555
N13 N9_3 1_555 1_555
N12 N6_3 1_555 1_555
O1_3 C6_3 1_555 1_555
N1_3 C1_3 1_555 1_555
N4_2 C10_3 1_555 1_555
C2_3 C1_3 1_555 1_555
H2_3 C2_3 1_555 1_555
C3_3 C2_3 1_555 1_555
C4_3 C3_3 1_555 1_555
C5_3 N1_3 1_555 1_555
H4_3 C5_3 1_555 1_555
C7_3 O1_3 1_555 1_555
C8_3 C7_3 1_555 1_555
C9_3 C8_3 1_555 1_555
H5_3 C9_3 1_555 1_555
C10_3 C9_3 1_555 1_555
H6_3 C10_3 1_555 1_555
C11_3 N4_2 1_555 1_555
H7_3 C11_3 1_555 1_555
C12_3 C8_3 1_555 1_555
Cu3 N4_2 1_555 1_555
C3_3 C6_3 1_555 1_555
C4_3 C5_3 1_555 1_555
C11_3 C12_3 1_555 1_555
O1_4 C6_4 1_555 1_555
N1_4 C1_4 1_555 1_555
N11_2 C10_4 1_555 1_555
N6_4 N5_4 1_555 1_555
N12_2 N6_4 1_555 1_555
C2_4 C1_4 1_555 1_555
H2_4 C2_4 1_555 1_555
C3_4 C2_4 1_555 1_555
C4_4 C3_4 1_555 1_555
C5_4 N1_4 1_555 1_555
H4_4 C5_4 1_555 1_555
C7_4 O1_4 1_555 1_555
C8_4 C7_4 1_555 1_555
C9_4 C8_4 1_555 1_555
H5_4 C9_4 1_555 1_555
C10_4 C9_4 1_555 1_555
H6_4 C10_4 1_555 1_555
C11_4 N11_2 1_555 1_555
H7_4 C11_4 1_555 1_555
C12_4 C8_4 1_555 1_555
C3_4 C6_4 1_555 1_555
C4_4 C5_4 1_555 1_555
C11_4 C12_4 1_555 1_555
N8_4 Cu3 1_555 1_555
N9_4 N8_4 1_555 1_555
N13_2 N9_4 1_555 1_555
N2_3 N3_3 1_555 1_555
N2_4 N3_4 1_555 1_555

#END
