
###############################################################################
#
# This file contains modified crystal structure data generated from the
# MOF subset of the Cambridge Structural Database (CSD) v543 
# hosted by the Cambridge Crystallographic Data Centre (CCDC).
#
# This work is licensed under the Creative Commons
# Attribution-NonCommercial-ShareAlike 4.0 International License.
# To view a copy of this license, visit
# http://creativecommons.org/licenses/by-nc-sa/4.0/
# or send a letter to
# Creative Commons, PO Box 1866, Mountain View, CA 94042, USA.
#
# CIF created using the CSD Python API on 29 September 2022
# The structure has been converted into the P1 space group
# The structure has a 3D framework
# The original CSD entry ISECUH is in the monoclinic crystal system
# The framework has been calculated to contain at least 10.0% void space
# The void calculation uses a probe of radius 1.32A, grid spacing 0.4
# The framework is charged, counterions have been retained in the structure
#
###############################################################################

data_ISECUH
_chemical_formula_moiety         '(C92 H74 Co6 N8 O34)n'
_symmetry_cell_setting           triclinic
_symmetry_space_group_name_H-M   'P 1'
_symmetry_Int_Tables_number      1
_space_group_name_Hall           'P 1'
loop_
_symmetry_equiv_pos_site_id
_symmetry_equiv_pos_as_xyz
1 x,y,z
_cell_length_a                   13.979(2)
_cell_length_b                   12.436(2)
_cell_length_c                   16.164(3)
_cell_angle_alpha                90
_cell_angle_beta                 90.613(3)
_cell_angle_gamma                90
_cell_volume                     2809.83
loop_
_atom_site_label
_atom_site_type_symbol
_atom_site_fract_x
_atom_site_fract_y
_atom_site_fract_z
Co8 Co -0.0000 0.5000 0.5000
Co1 Co 0.5000 0.0000 0.0000
O19 O 0.45422(17) 0.0291(2) 0.11626(14)
O22 O 0.63066(16) 0.09057(19) 0.01342(15)
Co1_2 Co 0.5000 0.0000 1.0000
O27 O 0.43888(16) 0.14270(19) 0.96150(14)
Co1_3 Co 0.5000 1.0000 0.0000
Co12 Co 0.24688(3) 0.01232(3) 0.00503(3)
O26 O 0.56112(16) 0.85730(19) 0.03850(14)
Co1_4 Co 0.5000 1.0000 1.0000
Co2 Co 0.74688(3) 0.48768(3) 0.50503(3)
O1 O 0.54578(17) 0.9709(2) 0.88374(14)
O2 O 0.69666(17) 0.9101(2) 0.88672(15)
O3 O 0.68682(17) 0.59940(19) 0.58417(15)
O4 O 0.86934(16) 0.59057(19) 0.48658(15)
H1 H 0.861(3) 0.619(3) 0.4418(16)
H2 H 0.860(3) 0.634(3) 0.5245(19)
O5 O 0.68773(17) 0.5708(2) 0.39871(15)
O6 O 0.79803(18) 0.6849(2) 0.35465(17)
O7 O 0.71156(17) 0.8750(2) 0.08338(15)
O9 O 0.79308(19) 0.7302(2) 0.5999(2)
N1 N 0.38403(19) 0.5941(2) 0.48643(17)
C1 C 0.6147(2) 0.9196(3) 0.8547(2)
C2 C 0.5929(2) 0.8637(3) 0.7739(2)
C3 C 0.6614(2) 0.8096(3) 0.7272(2)
H3 H 0.7263 0.8107 0.7452
C4 C 0.6373(2) 0.7540(3) 0.6552(2)
C5 C 0.7131(2) 0.6900(3) 0.6092(2)
C6 C 0.7144(2) 0.6479(3) 0.3556(2)
C7 C 0.6398(2) 0.6997(3) 0.2997(2)
C8 C 0.6685(2) 0.7447(3) 0.2246(2)
H4 H 0.7346 0.7490 0.2119
C9 C 0.6003(2) 0.7833(3) 0.1682(2)
C10 C 0.6271(2) 0.8421(3) 0.0902(2)
C11 C 0.5041(3) 0.7741(3) 0.1865(2)
H5 H 0.4573 0.7963 0.1471
C12 C 0.4760(2) 0.7331(3) 0.2615(2)
H6 H 0.4098 0.7286 0.2736
C13 C 0.5431(2) 0.6980(3) 0.3200(2)
C14 C 0.5071(2) 0.6718(3) 0.4039(2)
C15 C 0.4258(2) 0.6100(3) 0.41306(19)
H7 H 0.3983 0.5772 0.3653
C16 C 0.4246(2) 0.6390(3) 0.5534(2)
H8 H 0.3956 0.6273 0.6055
C17 C 0.5063(2) 0.7014(3) 0.5509(2)
C18 C 0.5412(2) 0.7555(3) 0.6276(2)
C19 C 0.4744(3) 0.8126(3) 0.6725(2)
H9 H 0.4100 0.8154 0.6532
C20 C 0.4991(3) 0.8662(3) 0.7454(2)
H10 H 0.4519 0.9043 0.7754
C21 C 0.5477(2) 0.7181(3) 0.4741(2)
H11 H 0.6036 0.7610 0.4696
Co3 Co 0.25312(3) 0.51232(3) 0.49497(3)
O11 O 0.30334(17) 0.0899(2) 0.11328(15)
O12 O 0.31318(17) 0.40060(19) 0.41583(15)
O13 O 0.13066(16) 0.40943(19) 0.51342(15)
H12 H 0.139(3) 0.381(3) 0.5582(16)
H13 H 0.140(3) 0.366(3) 0.4755(19)
O14 O 0.31227(17) 0.4292(2) 0.60129(15)
O15 O 0.20197(18) 0.3151(2) 0.64535(17)
O16 O 0.28844(17) 0.1250(2) 0.91662(15)
O18 O 0.20692(19) 0.2698(2) 0.4001(2)
N2 N 0.61597(19) 0.4059(2) 0.51357(17)
C22 C 0.3853(2) 0.0804(3) 0.1453(2)
C23 C 0.4071(2) 0.1363(3) 0.2261(2)
C24 C 0.3386(2) 0.1904(3) 0.2728(2)
H14 H 0.2737 0.1893 0.2548
C25 C 0.3627(2) 0.2460(3) 0.3448(2)
C26 C 0.2869(2) 0.3100(3) 0.3908(2)
C27 C 0.2856(2) 0.3521(3) 0.6444(2)
C28 C 0.3602(2) 0.3003(3) 0.7003(2)
C29 C 0.3315(2) 0.2553(3) 0.7754(2)
H15 H 0.2654 0.2510 0.7881
C30 C 0.3997(2) 0.2167(3) 0.8318(2)
C31 C 0.3729(2) 0.1579(3) 0.9098(2)
C32 C 0.4959(3) 0.2259(3) 0.8135(2)
H16 H 0.5427 0.2037 0.8529
C33 C 0.5240(2) 0.2669(3) 0.7385(2)
H17 H 0.5902 0.2714 0.7264
C34 C 0.4569(2) 0.3020(3) 0.6800(2)
C35 C 0.4929(2) 0.3282(3) 0.5961(2)
C36 C 0.5742(2) 0.3900(3) 0.58694(19)
H18 H 0.6017 0.4228 0.6347
C37 C 0.5754(2) 0.3610(3) 0.4466(2)
H19 H 0.6044 0.3727 0.3945
C38 C 0.4937(2) 0.2986(3) 0.4491(2)
C39 C 0.4588(2) 0.2445(3) 0.3724(2)
C40 C 0.5256(3) 0.1874(3) 0.3275(2)
H20 H 0.5900 0.1846 0.3468
C41 C 0.5009(3) 0.1338(3) 0.2546(2)
H21 H 0.5481 0.0957 0.2246
C42 C 0.4523(2) 0.2819(3) 0.5259(2)
H22 H 0.3964 0.2390 0.5304
Co8_2 Co 1.0000 0.5000 0.5000
Co10 Co 0.75312(3) 0.98768(3) 0.99497(3)
O20 O 0.80334(17) 0.4101(2) 0.61328(15)
O21 O 0.19666(17) 0.5899(2) 0.38672(15)
O23 O 0.36934(16) 0.90943(19) 0.98658(15)
O24 O 0.78844(17) 0.3750(2) 0.41662(15)
O25 O 0.21156(17) 0.6250(2) 0.58338(15)
N1_2 N 0.11597(19) 0.0941(2) 0.01357(17)
H5_2 H 0.0427 0.2963 0.3529
C12_2 C 0.0240(2) 0.2331(3) 0.2385(2)
H6_2 H 0.0902 0.2286 0.2264
C15_2 C 0.0742(2) 0.1100(3) 0.08694(19)
H7_2 H 0.1017 0.0772 0.1347
C16_2 C 0.0754(2) 0.1390(3) 0.9466(2)
H8_2 H 0.1044 0.1273 0.8945
C19_2 C 0.0256(3) 0.3126(3) 0.8275(2)
H9_2 H 0.0900 0.3154 0.8468
C20_2 C 0.0009(3) 0.3662(3) 0.7546(2)
H10_2 H 0.0481 0.4043 0.7246
O19_2 O 0.04578(17) 0.5291(2) 0.38374(14)
O27_2 O 0.06112(16) 0.64270(19) 0.53850(14)
O12_2 O 0.18682(17) 0.90060(19) 0.08417(15)
H13_2 H 0.360(3) 0.866(3) 0.0245(19)
O18_2 O 0.29308(19) 0.7698(2) 0.0999(2)
C22_2 C 0.1147(2) 0.5804(3) 0.3547(2)
C23_2 C 0.0929(2) 0.6363(3) 0.2739(2)
C24_2 C 0.1614(2) 0.6904(3) 0.2272(2)
H14_2 H 0.2263 0.6893 0.2452
C25_2 C 0.1373(2) 0.7460(3) 0.1552(2)
C26_2 C 0.2131(2) 0.8100(3) 0.1092(2)
C38_2 C 0.0063(2) 0.7986(3) 0.0509(2)
C39_2 C 0.0412(2) 0.7445(3) 0.1276(2)
H12_2 H 0.361(3) 0.881(3) 0.9418(16)
O14_2 O 0.18773(17) 0.9292(2) 0.89871(15)
O15_2 O 0.29803(18) 0.8151(2) 0.85465(17)
C27_2 C 0.2144(2) 0.8521(3) 0.8556(2)
C28_2 C 0.1398(2) 0.8003(3) 0.7997(2)
C29_2 C 0.1685(2) 0.7553(3) 0.7246(2)
H15_2 H 0.2346 0.7510 0.7119
C30_2 C 0.1003(2) 0.7167(3) 0.6682(2)
C31_2 C 0.1271(2) 0.6579(3) 0.5902(2)
C32_2 C 0.0041(3) 0.7259(3) 0.6865(2)
C34_2 C 0.0431(2) 0.8020(3) 0.8200(2)
C35_2 C 0.0071(2) 0.8282(3) 0.9039(2)
C42_2 C 0.0477(2) 0.7819(3) 0.9741(2)
H22_2 H 0.1036 0.7390 0.9696
H1_2 H 0.639(3) 0.119(3) 0.0582(16)
O5_2 O 0.81227(17) 0.0708(2) 0.10129(15)
O6_2 O 0.70197(18) 0.1849(2) 0.14535(17)
O8 O 0.93888(16) 0.35730(19) 0.46150(14)
C6_2 C 0.7856(2) 0.1479(3) 0.1444(2)
C7_2 C 0.8602(2) 0.1997(3) 0.2003(2)
C8_2 C 0.8315(2) 0.2447(3) 0.2754(2)
H4_2 H 0.7654 0.2490 0.2881
C9_2 C 0.8997(2) 0.2833(3) 0.3318(2)
C10_2 C 0.8729(2) 0.3421(3) 0.4098(2)
C11_2 C 0.9959(3) 0.2741(3) 0.3135(2)
C13_2 C 0.9569(2) 0.1980(3) 0.1800(2)
C14_2 C 0.9929(2) 0.1718(3) 0.0961(2)
C21_2 C 0.9523(2) 0.2181(3) 0.0259(2)
H11_2 H 0.8964 0.2610 0.0304
O1_2 O 0.95422(17) 0.4709(2) 0.61626(14)
O3_2 O 0.81318(17) 0.09940(19) 0.91583(15)
H2_2 H 0.640(3) 0.134(3) 0.9755(19)
O9_2 O 0.70692(19) 0.2302(2) 0.9001(2)
C1_2 C 0.8853(2) 0.4196(3) 0.6453(2)
C2_2 C 0.9071(2) 0.3637(3) 0.7261(2)
C3_2 C 0.8386(2) 0.3096(3) 0.7728(2)
H3_2 H 0.7737 0.3107 0.7548
C4_2 C 0.8627(2) 0.2540(3) 0.8448(2)
C5_2 C 0.7869(2) 0.1900(3) 0.8908(2)
C17_2 C 0.9937(2) 0.2014(3) 0.9491(2)
C18_2 C 0.9588(2) 0.2555(3) 0.8724(2)
C37_2 C 0.9246(2) 0.8610(3) 0.0534(2)
H19_2 H 0.8956 0.8727 0.1055
C40_2 C 0.9744(3) 0.6874(3) 0.1725(2)
H20_2 H 0.9100 0.6846 0.1532
C41_2 C 0.9991(3) 0.6338(3) 0.2454(2)
H21_2 H 0.9519 0.5957 0.2754
N2_2 N 0.88403(19) 0.9059(2) 0.98643(17)
H16_2 H 0.9573 0.7037 0.6471
C33_2 C 0.9760(2) 0.7669(3) 0.7615(2)
H17_2 H 0.9098 0.7714 0.7736
C36_2 C 0.9258(2) 0.8900(3) 0.91306(19)
H18_2 H 0.8983 0.9228 0.8653
H28 H 0.0082 0.7924 0.3967
H30 H 0.0127 0.9131 0.4309
H27 H 0.9241 0.0128 0.3130
N3 N 0.8810(6) 0.8819(5) 0.3643(4)
H23 H 0.8508 0.8207 0.3475
H24 H 0.8388 0.9212 0.3942
C43 C 0.9072(9) 0.9394(7) 0.2963(6)
H25 H 0.8538 0.9417 0.2566
H26 H 0.9625 0.9051 0.2706
C44 C 0.9716(10) 0.8500(9) 0.4230(9)
H29 H 0.9485 0.8253 0.4768
N3_2 N 0.6190(6) 0.3819(5) 0.1357(4)
H23_2 H 0.6492 0.3207 0.1525
H24_2 H 0.6612 0.4212 0.1058
C43_2 C 0.5928(9) 0.4394(7) 0.2037(6)
H25_2 H 0.6462 0.4417 0.2434
H26_2 H 0.5375 0.4051 0.2294
H27_2 H 0.5759 0.5128 0.1870
C44_2 C 0.5284(10) 0.3500(9) 0.0770(9)
H28_2 H 0.4918 0.2924 0.1033
H29_2 H 0.5515 0.3253 0.0232
H30_2 H 0.4873 0.4131 0.0691
N3_3 N 0.1190(6) 0.1181(5) 0.6357(4)
H23_3 H 0.1492 0.1793 0.6525
H24_3 H 0.1612 0.0788 0.6058
C43_3 C 0.0928(9) 0.0606(7) 0.7037(6)
H25_3 H 0.1462 0.0583 0.7434
H26_3 H 0.0375 0.0949 0.7294
C44_3 C 0.0284(10) 0.1500(9) 0.5770(9)
H29_3 H 0.0515 0.1747 0.5232
H27_3 H 0.0759 0.9872 0.6870
H28_3 H 0.9918 0.2076 0.6033
H30_3 H 0.9873 0.0869 0.5691
N3_4 N 0.3810(6) 0.6181(5) 0.8643(4)
H23_4 H 0.3508 0.6793 0.8475
H24_4 H 0.3388 0.5788 0.8942
C43_4 C 0.4072(9) 0.5606(7) 0.7963(6)
H25_4 H 0.3538 0.5583 0.7566
H26_4 H 0.4625 0.5949 0.7706
H27_4 H 0.4241 0.4872 0.8130
C44_4 C 0.4716(10) 0.6500(9) 0.9230(9)
H28_4 H 0.5082 0.7076 0.8967
H29_4 H 0.4485 0.6747 0.9768
H30_4 H 0.5127 0.5869 0.9309
loop_
_geom_bond_atom_site_label_1
_geom_bond_atom_site_label_2
_geom_bond_site_symmetry_1
_geom_bond_site_symmetry_2
O19 Co1 1_555 1_555
O22 Co1 1_555 1_555
O27 Co1_2 1_555 1_555
O26 Co1_3 1_555 1_555
Co1_4 O1 1_555 1_555
Co2 O3 1_555 1_555
O1 C1 1_555 1_555
O2 C1 1_555 1_555
O3 C5 1_555 1_555
O4 Co2 1_555 1_555
H1 O4 1_555 1_555
H2 O4 1_555 1_555
O5 Co2 1_555 1_555
O6 C6 1_555 1_555
O7 C10 1_555 1_555
O26 C10 1_555 1_555
O9 C5 1_555 1_555
N1 C15 1_555 1_555
C1 C2 1_555 1_555
C2 C3 1_555 1_555
C3 H3 1_555 1_555
C4 C3 1_555 1_555
C5 C4 1_555 1_555
C6 O5 1_555 1_555
C7 C6 1_555 1_555
C8 C7 1_555 1_555
H4 C8 1_555 1_555
C9 C8 1_555 1_555
C10 C9 1_555 1_555
C11 C9 1_555 1_555
H5 C11 1_555 1_555
C12 C11 1_555 1_555
H6 C12 1_555 1_555
C13 C7 1_555 1_555
C14 C13 1_555 1_555
C15 C14 1_555 1_555
H7 C15 1_555 1_555
C16 N1 1_555 1_555
H8 C16 1_555 1_555
C17 C16 1_555 1_555
C18 C4 1_555 1_555
C19 C18 1_555 1_555
H9 C19 1_555 1_555
C20 C2 1_555 1_555
H10 C20 1_555 1_555
C21 C14 1_555 1_555
H11 C21 1_555 1_555
Co3 N1 1_555 1_555
O19 C22 1_555 1_555
O11 C22 1_555 1_555
O12 Co3 1_555 1_555
O13 Co3 1_555 1_555
H12 O13 1_555 1_555
H13 O13 1_555 1_555
O14 Co3 1_555 1_555
O15 C27 1_555 1_555
O16 C31 1_555 1_555
O27 C31 1_555 1_555
O18 C26 1_555 1_555
N2 Co2 1_555 1_555
C22 C23 1_555 1_555
C23 C24 1_555 1_555
C24 H14 1_555 1_555
C25 C24 1_555 1_555
C26 O12 1_555 1_555
C27 O14 1_555 1_555
C28 C27 1_555 1_555
C29 C28 1_555 1_555
H15 C29 1_555 1_555
C30 C29 1_555 1_555
C31 C30 1_555 1_555
C32 C30 1_555 1_555
H16 C32 1_555 1_555
C33 C32 1_555 1_555
H17 C33 1_555 1_555
C34 C28 1_555 1_555
C35 C34 1_555 1_555
C36 N2 1_555 1_555
H18 C36 1_555 1_555
C37 N2 1_555 1_555
H19 C37 1_555 1_555
C38 C37 1_555 1_555
C39 C25 1_555 1_555
C40 C39 1_555 1_555
H20 C40 1_555 1_555
C41 C23 1_555 1_555
H21 C41 1_555 1_555
C42 C35 1_555 1_555
H22 C42 1_555 1_555
Co8 O13 1_555 1_555
Co8_2 O4 1_555 1_555
Co10 O2 1_555 1_555
Co12 O11 1_555 1_555
O20 Co2 1_555 1_555
O21 Co3 1_555 1_555
O23 Co1_4 1_555 1_555
O24 Co2 1_555 1_555
O25 Co3 1_555 1_555
C12 C13 1_555 1_555
C17 C18 1_555 1_555
C17 C21 1_555 1_555
C19 C20 1_555 1_555
C25 C26 1_555 1_555
C33 C34 1_555 1_555
C35 C36 1_555 1_555
C38 C39 1_555 1_555
C38 C42 1_555 1_555
C40 C41 1_555 1_555
N1_2 C15_2 1_555 1_555
H6_2 C12_2 1_555 1_555
H7_2 C15_2 1_555 1_555
Co12 N1_2 1_555 1_555
H8_2 C16_2 1_555 1_555
H9_2 C19_2 1_555 1_555
H10_2 C20_2 1_555 1_555
O19_2 Co8 1_555 1_555
O27_2 Co8 1_555 1_555
C19_2 C20_2 1_555 1_555
O19_2 C22_2 1_555 1_555
O21 C22_2 1_555 1_555
O18_2 C26_2 1_555 1_555
C22_2 C23_2 1_555 1_555
C23_2 C24_2 1_555 1_555
C24_2 H14_2 1_555 1_555
C25_2 C24_2 1_555 1_555
C26_2 O12_2 1_555 1_555
C39_2 C25_2 1_555 1_555
C25_2 C26_2 1_555 1_555
C38_2 C39_2 1_555 1_555
H12_2 O23 1_555 1_555
O15_2 C27_2 1_555 1_555
O25 C31_2 1_555 1_555
O27_2 C31_2 1_555 1_555
C27_2 O14_2 1_555 1_555
C28_2 C27_2 1_555 1_555
C29_2 C28_2 1_555 1_555
H15_2 C29_2 1_555 1_555
C30_2 C29_2 1_555 1_555
C31_2 C30_2 1_555 1_555
C32_2 C30_2 1_555 1_555
C34_2 C28_2 1_555 1_555
C35_2 C34_2 1_555 1_555
C42_2 C35_2 1_555 1_555
H22_2 C42_2 1_555 1_555
H1_2 O22 1_555 1_555
O6_2 C6_2 1_555 1_555
O24 C10_2 1_555 1_555
O8 C10_2 1_555 1_555
C6_2 O5_2 1_555 1_555
C7_2 C6_2 1_555 1_555
C8_2 C7_2 1_555 1_555
H4_2 C8_2 1_555 1_555
C9_2 C8_2 1_555 1_555
C10_2 C9_2 1_555 1_555
C11_2 C9_2 1_555 1_555
C13_2 C7_2 1_555 1_555
C14_2 C13_2 1_555 1_555
C21_2 C14_2 1_555 1_555
H11_2 C21_2 1_555 1_555
Co8_2 O8 1_555 1_555
Co8_2 O1_2 1_555 1_555
O1_2 C1_2 1_555 1_555
O20 C1_2 1_555 1_555
O3_2 C5_2 1_555 1_555
O9_2 C5_2 1_555 1_555
C1_2 C2_2 1_555 1_555
C2_2 C3_2 1_555 1_555
C3_2 H3_2 1_555 1_555
C4_2 C3_2 1_555 1_555
C5_2 C4_2 1_555 1_555
C18_2 C4_2 1_555 1_555
C17_2 C18_2 1_555 1_555
H19_2 C37_2 1_555 1_555
H20_2 C40_2 1_555 1_555
H21_2 C41_2 1_555 1_555
C40_2 C41_2 1_555 1_555
N2_2 Co10 1_555 1_555
H17_2 C33_2 1_555 1_555
C36_2 N2_2 1_555 1_555
H18_2 C36_2 1_555 1_555
N3 H23 1_555 1_555
H24 N3 1_555 1_555
C43 N3 1_555 1_555
H25 C43 1_555 1_555
H26 C43 1_555 1_555
C44 N3 1_555 1_555
H29 C44 1_555 1_555
N3_2 H23_2 1_555 1_555
H24_2 N3_2 1_555 1_555
C43_2 N3_2 1_555 1_555
H25_2 C43_2 1_555 1_555
H26_2 C43_2 1_555 1_555
H27_2 C43_2 1_555 1_555
C44_2 N3_2 1_555 1_555
H28_2 C44_2 1_555 1_555
H29_2 C44_2 1_555 1_555
H30_2 C44_2 1_555 1_555
N3_3 H23_3 1_555 1_555
H24_3 N3_3 1_555 1_555
C43_3 N3_3 1_555 1_555
H25_3 C43_3 1_555 1_555
H26_3 C43_3 1_555 1_555
C44_3 N3_3 1_555 1_555
H29_3 C44_3 1_555 1_555
N3_4 H23_4 1_555 1_555
H24_4 N3_4 1_555 1_555
C43_4 N3_4 1_555 1_555
H25_4 C43_4 1_555 1_555
H26_4 C43_4 1_555 1_555
H27_4 C43_4 1_555 1_555
C44_4 N3_4 1_555 1_555
H28_4 C44_4 1_555 1_555
H29_4 C44_4 1_555 1_555
H30_4 C44_4 1_555 1_555

#END
