
###############################################################################
#
# This file contains modified crystal structure data generated from the
# MOF subset of the Cambridge Structural Database (CSD) v543 
# hosted by the Cambridge Crystallographic Data Centre (CCDC).
#
# This work is licensed under the Creative Commons
# Attribution-NonCommercial-ShareAlike 4.0 International License.
# To view a copy of this license, visit
# http://creativecommons.org/licenses/by-nc-sa/4.0/
# or send a letter to
# Creative Commons, PO Box 1866, Mountain View, CA 94042, USA.
#
# CIF created using the CSD Python API on 29 September 2022
# The structure has been converted into the P1 space group
# The structure has a 3D framework
# The original CSD entry ISEFUI is in the rhombohedral crystal system
# The framework has been calculated to contain at least 10.0% void space
# The void calculation uses a probe of radius 1.32A, grid spacing 0.4
#
###############################################################################

data_ISEFUI
_chemical_formula_moiety         '(C108 H72 Co12 N18 Na12 O50)n'
_symmetry_cell_setting           triclinic
_symmetry_space_group_name_H-M   'P 1'
_symmetry_Int_Tables_number      1
_space_group_name_Hall           'P 1'
loop_
_symmetry_equiv_pos_site_id
_symmetry_equiv_pos_as_xyz
1 x,y,z
_cell_length_a                   9.9962(14)
_cell_length_b                   9.9962(14)
_cell_length_c                   37.368(8)
_cell_angle_alpha                90
_cell_angle_beta                 90
_cell_angle_gamma                120
_cell_volume                     3233.7
loop_
_atom_site_label
_atom_site_type_symbol
_atom_site_fract_x
_atom_site_fract_y
_atom_site_fract_z
Na3 Na 0.0000 0.0001 0.91626(11)
Na3_2 Na 0.0000 1.0001 0.91626(11)
N2 N 0.0520(7) 0.6449(11) 0.77404(17)
H5 H 0.0318 0.5835 0.7562
C11 C 0.1148(10) 0.8447(16) 0.8281(2)
H7 H 0.1381 0.9165 0.8463
C13 C 0.2123(12) 0.8867(18) 0.7976(3)
H9 H 0.2985 0.9849 0.7959
C15 C 0.1796(10) 0.7861(16) 0.7721(2)
H11 H 0.2447 0.8118 0.7524
Na3_3 Na 1.0000 0.0001 0.91626(11)
Co1 Co 0.6667 0.3333 0.83678(4)
Na1 Na 0.6667 0.3333 0.74959(11)
O1 O 0.6110(7) 0.1549(7) 0.80058(14)
C1 C 0.6410(8) 0.0484(8) 0.8029(2)
C2 C 0.7133(8) 0.0142(8) 0.83130(18)
O2 O 0.7609(6) 0.2311(6) 0.86721(14)
O3 O 0.8389(7) 0.0750(7) 0.88691(14)
C6 C 0.7757(8) 0.1138(8) 0.86404(18)
Na3_4 Na 1.0000 1.0001 0.91626(11)
N3 N 0.3551(11) 0.4071(8) 0.77404(17)
H6 H 0.4165 0.4483 0.7562
O4 O 0.8451(7) 0.4561(10) 0.80058(14)
O5 O 0.5439(10) 0.3890(7) 0.80058(14)
C7 C 0.9516(8) 0.5926(11) 0.8029(2)
C8 C 0.4074(11) 0.3590(8) 0.8029(2)
C9 C 0.9858(8) 0.6991(11) 0.83130(18)
C10 C 0.3009(11) 0.2867(8) 0.83130(18)
C12 C 0.1553(16) 0.2701(13) 0.8281(2)
H8 H 0.0835 0.2216 0.8463
C14 C 0.1133(18) 0.3256(14) 0.7976(3)
H10 H 0.0151 0.3136 0.7959
C16 C 0.2139(16) 0.3935(12) 0.7721(2)
H12 H 0.1882 0.4329 0.7524
O6 O 0.7689(6) 0.5298(8) 0.86721(14)
O7 O 0.4702(8) 0.2391(6) 0.86721(14)
O8 O 0.9250(7) 0.7639(10) 0.88691(14)
O9 O 0.2361(10) 0.1611(7) 0.88691(14)
O10 O 0.5917(7) 0.4944(7) 0.72024(14)
O11 O 0.9028(10) 0.4083(7) 0.72024(14)
O12 O 0.5056(7) 0.0972(10) 0.72024(14)
C17 C 0.8862(8) 0.6619(11) 0.86404(18)
C18 C 0.3381(11) 0.2243(8) 0.86404(18)
N1 N 0.5929(8) 0.9480(7) 0.77404(17)
H1 H 0.5517 0.9682 0.7562
C3 C 0.7299(13) 0.8852(10) 0.8281(2)
H2 H 0.7784 0.8619 0.8463
C4 C 0.6744(14) 0.7877(12) 0.7976(3)
H3 H 0.6864 0.7015 0.7959
C5 C 0.6065(12) 0.8204(10) 0.7721(2)
H4 H 0.5671 0.7553 0.7524
Na4 Na 0.0000 0.0001 0.41626(11)
N1_2 N 0.0520(7) 0.4071(8) 0.27404(17)
H1_2 H 0.0318 0.4483 0.2562
C3_2 C 0.1148(10) 0.2701(13) 0.3281(2)
H2_2 H 0.1381 0.2216 0.3463
C4_2 C 0.2123(12) 0.3256(14) 0.2976(3)
H3_2 H 0.2985 0.3136 0.2959
C5_2 C 0.1796(10) 0.3935(12) 0.2721(2)
H4_2 H 0.2447 0.4329 0.2524
Na4_2 Na 0.0000 1.0001 0.41626(11)
Na4_3 Na 1.0000 0.0001 0.41626(11)
Co1_2 Co 0.6667 0.3333 0.33678(4)
Na1_2 Na 0.6667 0.3333 0.24959(11)
O1_2 O 0.8451(7) 0.3890(7) 0.30058(14)
C1_2 C 0.9516(8) 0.3590(8) 0.3029(2)
C2_2 C 0.9858(8) 0.2867(8) 0.33130(18)
O2_2 O 0.7689(6) 0.2391(6) 0.36721(14)
O3_2 O 0.9250(7) 0.1611(7) 0.38691(14)
C6_2 C 0.8862(8) 0.2243(8) 0.36404(18)
Na4_4 Na 1.0000 1.0001 0.41626(11)
N3_2 N 0.5929(8) 0.6449(11) 0.27404(17)
H6_2 H 0.5517 0.5835 0.2562
O4_2 O 0.5439(10) 0.1549(7) 0.30058(14)
O5_2 O 0.6110(7) 0.4561(10) 0.30058(14)
C7_2 C 0.4074(11) 0.0484(8) 0.3029(2)
C8_2 C 0.6410(8) 0.5926(11) 0.3029(2)
C9_2 C 0.3009(11) 0.0142(8) 0.33130(18)
C10_2 C 0.7133(8) 0.6991(11) 0.33130(18)
C12_2 C 0.7299(13) 0.8447(16) 0.3281(2)
H8_2 H 0.7784 0.9165 0.3463
C14_2 C 0.6744(14) 0.8867(18) 0.2976(3)
H10_2 H 0.6864 0.9849 0.2959
C16_2 C 0.6065(12) 0.7861(16) 0.2721(2)
H12_2 H 0.5671 0.8118 0.2524
O6_2 O 0.4702(8) 0.2311(6) 0.36721(14)
O7_2 O 0.7609(6) 0.5298(8) 0.36721(14)
O8_2 O 0.2361(10) 0.0750(7) 0.38691(14)
O9_2 O 0.8389(7) 0.7639(10) 0.38691(14)
O10_2 O 0.5056(7) 0.4083(7) 0.22024(14)
O11_2 O 0.5917(7) 0.0972(10) 0.22024(14)
O12_2 O 0.9028(10) 0.4944(7) 0.22024(14)
C17_2 C 0.3381(11) 0.1138(8) 0.36404(18)
C18_2 C 0.7757(8) 0.6619(11) 0.36404(18)
N2_2 N 0.3551(11) 0.9480(7) 0.27404(17)
H5_2 H 0.4165 0.9682 0.2562
C11_2 C 0.1553(16) 0.8852(10) 0.3281(2)
H7_2 H 0.0835 0.8619 0.3463
C13_2 C 0.1133(18) 0.7877(12) 0.2976(3)
H9_2 H 0.0151 0.7015 0.2959
C15_2 C 0.2139(16) 0.8204(10) 0.2721(2)
H11_2 H 0.1882 0.7553 0.2524
C9_3 C 0.6525(8) 0.0324(11) 0.16463(18)
C11_3 C 0.7815(10) 0.1780(16) 0.1614(2)
H7_3 H 0.8048 0.2498 0.1796
C13_3 C 0.8790(12) 0.2200(18) 0.1309(3)
H9_3 H 0.9652 0.3182 0.1292
C15_3 C 0.8463(10) 0.1194(16) 0.1054(2)
H11_3 H 0.9114 0.1451 0.0857
Co1_3 Co 0.3334 0.6666 0.17011(4)
Na1_3 Na 0.3334 0.6666 0.08292(11)
N1_3 N 0.2596(8) 0.2813(7) 0.10737(17)
H1_3 H 0.2184 0.3015 0.0895
O1_3 O 0.2777(7) 0.4882(7) 0.13391(14)
C1_3 C 0.3077(8) 0.3817(8) 0.1362(2)
C2_3 C 0.3800(8) 0.3475(8) 0.16463(18)
C3_3 C 0.3966(13) 0.2185(10) 0.1614(2)
H2_3 H 0.4451 0.1952 0.1796
C4_3 C 0.3411(14) 0.1210(12) 0.1309(3)
H3_3 H 0.3531 0.0348 0.1292
C5_3 C 0.2732(12) 0.1537(10) 0.1054(2)
H4_3 H 0.2338 0.0886 0.0857
O2_3 O 0.4276(6) 0.5644(6) 0.20054(14)
C6_3 C 0.4424(8) 0.4471(8) 0.19737(18)
N2_3 N 0.7187(7) 0.9782(11) 0.10737(17)
N3_3 N 0.0218(11) 0.7404(8) 0.10737(17)
H5_3 H 0.6985 0.9168 0.0895
H6_3 H 0.0832 0.7816 0.0895
O4_3 O 0.5118(7) 0.7894(10) 0.13391(14)
O5_3 O 0.2106(10) 0.7223(7) 0.13391(14)
C7_3 C 0.6183(8) 0.9259(11) 0.1362(2)
C8_3 C 0.0741(11) 0.6923(8) 0.1362(2)
O6_3 O 0.4356(6) 0.8631(8) 0.20054(14)
O7_3 O 0.1369(8) 0.5724(6) 0.20054(14)
O10_3 O 0.2583(7) 0.8278(7) 0.05358(14)
O11_3 O 0.5694(10) 0.7417(7) 0.05358(14)
O12_3 O 0.1722(7) 0.4306(10) 0.05358(14)
C17_3 C 0.5529(8) 0.9952(11) 0.19737(18)
C18_3 C 0.0048(11) 0.5576(8) 0.19737(18)
C10_3 C 0.9676(11) 0.6200(8) 0.16463(18)
C12_3 C 0.8220(16) 0.6034(13) 0.1614(2)
H8_3 H 0.7502 0.5549 0.1796
C14_3 C 0.7800(18) 0.6589(14) 0.1309(3)
H10_3 H 0.6818 0.6469 0.1292
C16_3 C 0.8806(16) 0.7268(12) 0.1054(2)
H12_3 H 0.8549 0.7662 0.0857
C10_4 C 0.3800(8) 0.0324(11) 0.66463(18)
C12_4 C 0.3966(13) 0.1780(16) 0.6614(2)
H8_4 H 0.4451 0.2498 0.6796
C14_4 C 0.3411(14) 0.2200(18) 0.6309(3)
H10_4 H 0.3531 0.3182 0.6292
C16_4 C 0.2732(12) 0.1194(16) 0.6054(2)
H12_4 H 0.2338 0.1451 0.5857
Co1_4 Co 0.3334 0.6666 0.67011(4)
Na1_4 Na 0.3334 0.6666 0.58292(11)
N1_4 N 0.7187(7) 0.7404(8) 0.60737(17)
H1_4 H 0.6985 0.7816 0.5895
O1_4 O 0.5118(7) 0.7223(7) 0.63391(14)
C1_4 C 0.6183(8) 0.6923(8) 0.6362(2)
C2_4 C 0.6525(8) 0.6200(8) 0.66463(18)
C3_4 C 0.7815(10) 0.6034(13) 0.6614(2)
H2_4 H 0.8048 0.5549 0.6796
C4_4 C 0.8790(12) 0.6589(14) 0.6309(3)
H3_4 H 0.9652 0.6469 0.6292
C5_4 C 0.8463(10) 0.7268(12) 0.6054(2)
H4_4 H 0.9114 0.7662 0.5857
O2_4 O 0.4356(6) 0.5724(6) 0.70054(14)
C6_4 C 0.5529(8) 0.5576(8) 0.69737(18)
N2_4 N 0.0218(11) 0.2813(7) 0.60737(17)
N3_4 N 0.2596(8) 0.9782(11) 0.60737(17)
H5_4 H 0.0832 0.3015 0.5895
H6_4 H 0.2184 0.9168 0.5895
O4_4 O 0.2106(10) 0.4882(7) 0.63391(14)
O5_4 O 0.2777(7) 0.7894(10) 0.63391(14)
C7_4 C 0.0741(11) 0.3817(8) 0.6362(2)
C8_4 C 0.3077(8) 0.9259(11) 0.6362(2)
O6_4 O 0.1369(8) 0.5644(6) 0.70054(14)
O7_4 O 0.4276(6) 0.8631(8) 0.70054(14)
O10_4 O 0.1722(7) 0.7417(7) 0.55358(14)
O11_4 O 0.2583(7) 0.4306(10) 0.55358(14)
O12_4 O 0.5694(10) 0.8278(7) 0.55358(14)
C17_4 C 0.0048(11) 0.4471(8) 0.69737(18)
C18_4 C 0.4424(8) 0.9952(11) 0.69737(18)
C9_4 C 0.9676(11) 0.3475(8) 0.66463(18)
C11_4 C 0.8220(16) 0.2185(10) 0.6614(2)
H7_4 H 0.7502 0.1952 0.6796
C13_4 C 0.7800(18) 0.1210(12) 0.6309(3)
H9_4 H 0.6818 0.0348 0.6292
C15_4 C 0.8806(16) 0.1537(10) 0.6054(2)
H11_4 H 0.8549 0.0886 0.5857
Co1_5 Co 0.0000 -0.0000 0.50345(4)
N2_5 N 0.3853(7) 0.3116(11) 0.44071(17)
H5_5 H 0.3651 0.2502 0.4229
O4_5 O 0.1784(7) 0.1228(10) 0.46725(14)
C7_5 C 0.2849(8) 0.2593(11) 0.4696(2)
C9_5 C 0.3191(8) 0.3658(11) 0.49797(18)
C11_5 C 0.4481(10) 0.5114(16) 0.4948(2)
H7_5 H 0.4714 0.5832 0.5130
C13_5 C 0.5456(12) 0.5534(18) 0.4643(3)
H9_5 H 0.6318 0.6516 0.4626
C15_5 C 0.5129(10) 0.4528(16) 0.4388(2)
H11_5 H 0.5780 0.4785 0.4191
O6_5 O 0.1022(6) 0.1965(8) 0.53388(14)
C17_5 C 0.2195(8) 0.3286(11) 0.53071(18)
Co1_6 Co 0.0000 1.0000 0.50345(4)
C2_5 C 0.0466(8) 0.6809(8) 0.49797(18)
C3_5 C 0.0632(13) 0.5519(10) 0.4948(2)
H2_5 H 0.1117 0.5286 0.5130
C4_5 C 0.0077(14) 0.4544(12) 0.4643(3)
H3_5 H 0.0197 0.3682 0.4626
O2_5 O 0.0942(6) 0.8978(6) 0.53388(14)
C6_5 C 0.1090(8) 0.7805(8) 0.53071(18)
Co1_7 Co 1.0000 -0.0000 0.50345(4)
N3_5 N 0.6884(11) 0.0738(8) 0.44071(17)
H6_5 H 0.7498 0.1150 0.4229
O5_5 O 0.8772(10) 0.0557(7) 0.46725(14)
C8_5 C 0.7407(11) 0.0257(8) 0.4696(2)
C16_5 C 0.5472(16) 0.0602(12) 0.4388(2)
H12_5 H 0.5215 0.0996 0.4191
Co1_8 Co 1.0000 1.0000 0.50345(4)
N1_5 N 0.9262(8) 0.6147(7) 0.44071(17)
H1_5 H 0.8850 0.6349 0.4229
O1_5 O 0.9443(7) 0.8216(7) 0.46725(14)
C1_5 C 0.9743(8) 0.7151(8) 0.4696(2)
C5_5 C 0.9398(12) 0.4871(10) 0.4388(2)
H4_5 H 0.9004 0.4220 0.4191
C10_5 C 0.6342(11) 0.9534(8) 0.49797(18)
C12_5 C 0.4886(16) 0.9368(13) 0.4948(2)
H8_5 H 0.4168 0.8883 0.5130
C14_5 C 0.4466(18) 0.9923(14) 0.4643(3)
H10_5 H 0.3484 0.9803 0.4626
O7_5 O 0.8035(8) 0.9058(6) 0.53388(14)
C18_5 C 0.6714(11) 0.8910(8) 0.53071(18)
Co1_9 Co 0.0000 -0.0000 0.00345(4)
H8_6 H 0.1117 0.5832 0.0130
O7_6 O 0.0942(6) 0.1965(8) 0.03388(14)
C18_6 C 0.1090(8) 0.3286(11) 0.03071(18)
N1_6 N 0.3853(7) 0.0738(8) 0.94071(17)
H1_6 H 0.3651 0.1150 0.9229
O1_6 O 0.1784(7) 0.0557(7) 0.96725(14)
C1_6 C 0.2849(8) 0.0257(8) 0.9696(2)
C5_6 C 0.5129(10) 0.0602(12) 0.9388(2)
H4_6 H 0.5780 0.0996 0.9191
C10_6 C 0.0466(8) 0.3658(11) 0.99797(18)
C12_6 C 0.0632(13) 0.5114(16) 0.9948(2)
C14_6 C 0.0077(14) 0.5534(18) 0.9643(3)
H10_6 H 0.0197 0.6516 0.9626
Co1_10 Co 0.0000 1.0000 0.00345(4)
H2_6 H 0.4714 0.8883 0.0130
O2_6 O 0.1022(6) 0.9058(6) 0.03388(14)
C6_6 C 0.2195(8) 0.8910(8) 0.03071(18)
C2_6 C 0.3191(8) 0.9534(8) 0.99797(18)
C3_6 C 0.4481(10) 0.9368(13) 0.9948(2)
C4_6 C 0.5456(12) 0.9923(14) 0.9643(3)
H3_6 H 0.6318 0.9803 0.9626
N3_6 N 0.9262(8) 0.3116(11) 0.94071(17)
H6_6 H 0.8850 0.2502 0.9229
O5_6 O 0.9443(7) 0.1228(10) 0.96725(14)
C8_6 C 0.9743(8) 0.2593(11) 0.9696(2)
C16_6 C 0.9398(12) 0.4528(16) 0.9388(2)
H12_6 H 0.9004 0.4785 0.9191
Co1_11 Co 1.0000 1.0000 0.00345(4)
H7_6 H 0.4168 0.5286 0.0130
O6_6 O 0.8035(8) 0.8978(6) 0.03388(14)
C17_6 C 0.6714(11) 0.7805(8) 0.03071(18)
N2_6 N 0.6884(11) 0.6147(7) 0.94071(17)
H5_6 H 0.7498 0.6349 0.9229
O4_6 O 0.8772(10) 0.8216(7) 0.96725(14)
C7_6 C 0.7407(11) 0.7151(8) 0.9696(2)
C9_6 C 0.6342(11) 0.6809(8) 0.99797(18)
C11_6 C 0.4886(16) 0.5519(10) 0.9948(2)
C13_6 C 0.4466(18) 0.4544(12) 0.9643(3)
H9_6 H 0.3484 0.3682 0.9626
C15_6 C 0.5472(16) 0.4871(10) 0.9388(2)
H11_6 H 0.5215 0.4220 0.9191
Co1_12 Co 1.0000 -0.0000 0.00345(4)
loop_
_geom_bond_atom_site_label_1
_geom_bond_atom_site_label_2
_geom_bond_site_symmetry_1
_geom_bond_site_symmetry_2
N2 H5 1_555 1_555
H7 C11 1_555 1_555
C13 C11 1_555 1_555
H9 C13 1_555 1_555
C15 N2 1_555 1_555
H11 C15 1_555 1_555
C13 C15 1_555 1_555
Co1 O1 1_555 1_555
Na1 O1 1_555 1_555
O1 C1 1_555 1_555
C2 C1 1_555 1_555
O2 Co1 1_555 1_555
O3 C6 1_555 1_555
C6 C2 1_555 1_555
Na3_3 O3 1_555 1_555
Na3_4 O8 1_555 1_555
Na3 O9 1_555 1_555
N3 H6 1_555 1_555
O4 Co1 1_555 1_555
O5 Co1 1_555 1_555
C8 N3 1_555 1_555
C9 C7 1_555 1_555
C10 C8 1_555 1_555
C12 C10 1_555 1_555
H8 C12 1_555 1_555
C14 C12 1_555 1_555
H10 C14 1_555 1_555
C16 N3 1_555 1_555
H12 C16 1_555 1_555
O6 Co1 1_555 1_555
O7 Co1 1_555 1_555
O8 C17 1_555 1_555
O9 C18 1_555 1_555
O10 Na1 1_555 1_555
O11 Na1 1_555 1_555
O12 Na1 1_555 1_555
C17 C9 1_555 1_555
C18 C10 1_555 1_555
Na1 O4 1_555 1_555
Na1 O5 1_555 1_555
O2 C6 1_555 1_555
O4 C7 1_555 1_555
O5 C8 1_555 1_555
C14 C16 1_555 1_555
O6 C17 1_555 1_555
O7 C18 1_555 1_555
N1 H1 1_555 1_555
H2 C3 1_555 1_555
C4 C3 1_555 1_555
H3 C4 1_555 1_555
C5 N1 1_555 1_555
H4 C5 1_555 1_555
C4 C5 1_555 1_555
N1_2 H1_2 1_555 1_555
H2_2 C3_2 1_555 1_555
C4_2 C3_2 1_555 1_555
H3_2 C4_2 1_555 1_555
C5_2 N1_2 1_555 1_555
H4_2 C5_2 1_555 1_555
C4_2 C5_2 1_555 1_555
Co1_2 O1_2 1_555 1_555
Na1_2 O1_2 1_555 1_555
O1_2 C1_2 1_555 1_555
C2_2 C1_2 1_555 1_555
O2_2 Co1_2 1_555 1_555
O3_2 C6_2 1_555 1_555
C6_2 C2_2 1_555 1_555
Na4_3 O3_2 1_555 1_555
Na4 O8_2 1_555 1_555
Na4_4 O9_2 1_555 1_555
N3_2 H6_2 1_555 1_555
O4_2 Co1_2 1_555 1_555
O5_2 Co1_2 1_555 1_555
C8_2 N3_2 1_555 1_555
C9_2 C7_2 1_555 1_555
C10_2 C8_2 1_555 1_555
C12_2 C10_2 1_555 1_555
H8_2 C12_2 1_555 1_555
C14_2 C12_2 1_555 1_555
H10_2 C14_2 1_555 1_555
C16_2 N3_2 1_555 1_555
H12_2 C16_2 1_555 1_555
O6_2 Co1_2 1_555 1_555
O7_2 Co1_2 1_555 1_555
O8_2 C17_2 1_555 1_555
O9_2 C18_2 1_555 1_555
O10_2 Na1_2 1_555 1_555
O11_2 Na1_2 1_555 1_555
O12_2 Na1_2 1_555 1_555
C17_2 C9_2 1_555 1_555
C18_2 C10_2 1_555 1_555
Na1_2 O4_2 1_555 1_555
Na1_2 O5_2 1_555 1_555
O2_2 C6_2 1_555 1_555
O4_2 C7_2 1_555 1_555
O5_2 C8_2 1_555 1_555
C14_2 C16_2 1_555 1_555
O6_2 C17_2 1_555 1_555
O7_2 C18_2 1_555 1_555
N2_2 H5_2 1_555 1_555
H7_2 C11_2 1_555 1_555
C13_2 C11_2 1_555 1_555
H9_2 C13_2 1_555 1_555
C15_2 N2_2 1_555 1_555
H11_2 C15_2 1_555 1_555
C13_2 C15_2 1_555 1_555
C11_3 C9_3 1_555 1_555
H7_3 C11_3 1_555 1_555
C13_3 C11_3 1_555 1_555
H9_3 C13_3 1_555 1_555
H11_3 C15_3 1_555 1_555
C13_3 C15_3 1_555 1_555
Co1_3 O1_3 1_555 1_555
Na1_3 O1_3 1_555 1_555
N1_3 H1_3 1_555 1_555
O1_3 C1_3 1_555 1_555
C1_3 N1_3 1_555 1_555
C2_3 C1_3 1_555 1_555
C3_3 C2_3 1_555 1_555
H2_3 C3_3 1_555 1_555
C4_3 C3_3 1_555 1_555
H3_3 C4_3 1_555 1_555
C5_3 N1_3 1_555 1_555
H4_3 C5_3 1_555 1_555
O2_3 Co1_3 1_555 1_555
O10_2 C6_3 1_555 1_555
C6_3 C2_3 1_555 1_555
N2_3 H5_3 1_555 1_555
N3_3 H6_3 1_555 1_555
O4_3 Co1_3 1_555 1_555
O5_3 Co1_3 1_555 1_555
C7_3 N2_3 1_555 1_555
C8_3 N3_3 1_555 1_555
O6_3 Co1_3 1_555 1_555
O7_3 Co1_3 1_555 1_555
O10_3 Na1_3 1_555 1_555
O11_3 Na1_3 1_555 1_555
O12_3 Na1_3 1_555 1_555
Na1_3 O4_3 1_555 1_555
Na1_3 O5_3 1_555 1_555
C4_3 C5_3 1_555 1_555
O2_3 C6_3 1_555 1_555
O4_3 C7_3 1_555 1_555
O5_3 C8_3 1_555 1_555
O6_3 C17_3 1_555 1_555
O7_3 C18_3 1_555 1_555
C12_3 C10_3 1_555 1_555
H8_3 C12_3 1_555 1_555
C14_3 C12_3 1_555 1_555
H10_3 C14_3 1_555 1_555
H12_3 C16_3 1_555 1_555
C14_3 C16_3 1_555 1_555
C12_4 C10_4 1_555 1_555
H8_4 C12_4 1_555 1_555
C14_4 C12_4 1_555 1_555
H10_4 C14_4 1_555 1_555
H12_4 C16_4 1_555 1_555
C14_4 C16_4 1_555 1_555
Co1_4 O1_4 1_555 1_555
Na1_4 O1_4 1_555 1_555
N1_4 H1_4 1_555 1_555
O1_4 C1_4 1_555 1_555
C1_4 N1_4 1_555 1_555
C2_4 C1_4 1_555 1_555
C3_4 C2_4 1_555 1_555
H2_4 C3_4 1_555 1_555
C4_4 C3_4 1_555 1_555
H3_4 C4_4 1_555 1_555
C5_4 N1_4 1_555 1_555
H4_4 C5_4 1_555 1_555
O2_4 Co1_4 1_555 1_555
O10 C6_4 1_555 1_555
C6_4 C2_4 1_555 1_555
N2_4 H5_4 1_555 1_555
N3_4 H6_4 1_555 1_555
O4_4 Co1_4 1_555 1_555
O5_4 Co1_4 1_555 1_555
C7_4 N2_4 1_555 1_555
C8_4 N3_4 1_555 1_555
O6_4 Co1_4 1_555 1_555
O7_4 Co1_4 1_555 1_555
O10_4 Na1_4 1_555 1_555
O11_4 Na1_4 1_555 1_555
O12_4 Na1_4 1_555 1_555
Na1_4 O4_4 1_555 1_555
Na1_4 O5_4 1_555 1_555
C4_4 C5_4 1_555 1_555
O2_4 C6_4 1_555 1_555
O4_4 C7_4 1_555 1_555
O5_4 C8_4 1_555 1_555
O6_4 C17_4 1_555 1_555
O7_4 C18_4 1_555 1_555
C11_4 C9_4 1_555 1_555
H7_4 C11_4 1_555 1_555
C13_4 C11_4 1_555 1_555
H9_4 C13_4 1_555 1_555
H11_4 C15_4 1_555 1_555
C13_4 C15_4 1_555 1_555
N2_5 H5_5 1_555 1_555
O4_5 Co1_5 1_555 1_555
C7_5 N2_5 1_555 1_555
C9_5 C7_5 1_555 1_555
C11_5 C9_5 1_555 1_555
H7_5 C11_5 1_555 1_555
C13_5 C11_5 1_555 1_555
H9_5 C13_5 1_555 1_555
C15_5 N2_5 1_555 1_555
H11_5 C15_5 1_555 1_555
O6_5 Co1_5 1_555 1_555
O11_4 C17_5 1_555 1_555
C17_5 C9_5 1_555 1_555
Na4 O4_5 1_555 1_555
O4_5 C7_5 1_555 1_555
C13_5 C15_5 1_555 1_555
O6_5 C17_5 1_555 1_555
C3_5 C2_5 1_555 1_555
H2_5 C3_5 1_555 1_555
C4_5 C3_5 1_555 1_555
H3_5 C4_5 1_555 1_555
O2_5 Co1_6 1_555 1_555
O10_4 C6_5 1_555 1_555
C6_5 C2_5 1_555 1_555
O2_5 C6_5 1_555 1_555
N3_5 H6_5 1_555 1_555
O5_5 Co1_7 1_555 1_555
C8_5 N3_5 1_555 1_555
C16_5 N3_5 1_555 1_555
H12_5 C16_5 1_555 1_555
Na4_3 O5_5 1_555 1_555
O5_5 C8_5 1_555 1_555
Co1_8 O1_5 1_555 1_555
Na4_4 O1_5 1_555 1_555
N1_5 H1_5 1_555 1_555
O1_5 C1_5 1_555 1_555
C1_5 N1_5 1_555 1_555
C5_5 N1_5 1_555 1_555
H4_5 C5_5 1_555 1_555
C12_5 C10_5 1_555 1_555
H8_5 C12_5 1_555 1_555
C14_5 C12_5 1_555 1_555
H10_5 C14_5 1_555 1_555
O7_5 Co1_8 1_555 1_555
O12_4 C18_5 1_555 1_555
C18_5 C10_5 1_555 1_555
O7_5 C18_5 1_555 1_555
O7_6 Co1_9 1_555 1_555
O12_3 C18_6 1_555 1_555
O7_6 C18_6 1_555 1_555
Na3 O1_6 1_555 1_555
N1_6 H1_6 1_555 1_555
O1_6 C1_6 1_555 1_555
C1_6 N1_6 1_555 1_555
C5_6 N1_6 1_555 1_555
H4_6 C5_6 1_555 1_555
C12_6 C10_6 1_555 1_555
C14_6 C12_6 1_555 1_555
H10_6 C14_6 1_555 1_555
O2_6 Co1_10 1_555 1_555
O10_3 C6_6 1_555 1_555
O2_6 C6_6 1_555 1_555
C3_6 C2_6 1_555 1_555
C4_6 C3_6 1_555 1_555
H3_6 C4_6 1_555 1_555
N3_6 H6_6 1_555 1_555
C8_6 N3_6 1_555 1_555
C16_6 N3_6 1_555 1_555
H12_6 C16_6 1_555 1_555
Na3_3 O5_6 1_555 1_555
O5_6 C8_6 1_555 1_555
O6_6 Co1_11 1_555 1_555
O11_3 C17_6 1_555 1_555
O6_6 C17_6 1_555 1_555
N2_6 H5_6 1_555 1_555
C7_6 N2_6 1_555 1_555
C9_6 C7_6 1_555 1_555
C11_6 C9_6 1_555 1_555
C13_6 C11_6 1_555 1_555
H9_6 C13_6 1_555 1_555
C15_6 N2_6 1_555 1_555
H11_6 C15_6 1_555 1_555
Na3_4 O4_6 1_555 1_555
O4_6 C7_6 1_555 1_555
C13_6 C15_6 1_555 1_555

#END
