
###############################################################################
#
# This file contains modified crystal structure data generated from the
# MOF subset of the Cambridge Structural Database (CSD) v543 
# hosted by the Cambridge Crystallographic Data Centre (CCDC).
#
# This work is licensed under the Creative Commons
# Attribution-NonCommercial-ShareAlike 4.0 International License.
# To view a copy of this license, visit
# http://creativecommons.org/licenses/by-nc-sa/4.0/
# or send a letter to
# Creative Commons, PO Box 1866, Mountain View, CA 94042, USA.
#
# CIF created using the CSD Python API on 29 September 2022
# The structure has been converted into the P1 space group
# The structure has a 3D framework
# The original CSD entry ISELAW is in the tetragonal crystal system
# The framework has been calculated to contain at least 10.0% void space
# The void calculation uses a probe of radius 1.32A, grid spacing 0.4
#
###############################################################################

data_ISELAW
_chemical_formula_moiety         '(C264 H240 Br20 Cd10 N48)n'
_symmetry_cell_setting           triclinic
_symmetry_space_group_name_H-M   'P 1'
_symmetry_Int_Tables_number      1
_space_group_name_Hall           'P 1'
loop_
_symmetry_equiv_pos_site_id
_symmetry_equiv_pos_as_xyz
1 x,y,z
_cell_length_a                   22.450(3)
_cell_length_b                   22.450(3)
_cell_length_c                   13.047(4)
_cell_angle_alpha                90
_cell_angle_beta                 90
_cell_angle_gamma                90
_cell_volume                     6575.72
loop_
_atom_site_label
_atom_site_type_symbol
_atom_site_fract_x
_atom_site_fract_y
_atom_site_fract_z
N2 N 0.3002(3) 0.0908(3) 0.0771(5)
N3 N 0.5562(3) 0.0923(3) 0.1547(5)
N4 N 0.6266(3) 0.0296(3) 0.2000(6)
N5 N 0.3848(3) 0.0847(3) 0.5133(5)
N6 N 0.3227(3) 0.0341(3) 0.6097(6)
C2 C 0.3010(4) 0.0313(4) 0.1082(7)
C7 C 0.3085(5) 0.0043(5) 0.2033(7)
H5 H 0.314144 0.026688 0.262511
C8 C 0.3018(4) 0.1426(4) 0.1424(7)
H6 H 0.269253 0.140400 0.191203
H7 H 0.295995 0.177997 0.100953
C9 C 0.3611(4) 0.1480(3) 0.2012(6)
C10 C 0.4132(4) 0.1553(4) 0.1448(6)
C11 C 0.4678(4) 0.1524(4) 0.1962(6)
C12 C 0.5248(4) 0.1494(4) 0.1364(8)
H8 H 0.516081 0.153445 0.063874
H9 H 0.550364 0.182273 0.156263
C13 C 0.6122(4) 0.0847(4) 0.1845(7)
H10 H 0.638638 0.116145 0.193349
C15 C 0.5308(4) 0.0355(4) 0.1515(7)
C16 C 0.4745(4) 0.0145(4) 0.1249(7)
H11 H 0.444502 0.040714 0.105342
C20 C 0.4692(4) 0.1468(3) 0.3056(7)
C21 C 0.4156(4) 0.1428(4) 0.3594(6)
C22 C 0.4178(5) 0.1358(4) 0.4759(7)
H15 H 0.458998 0.132074 0.497122
H16 H 0.401745 0.171519 0.507347
C23 C 0.3443(4) 0.0850(4) 0.5875(6)
H17 H 0.332495 0.119726 0.620651
C25 C 0.3904(4) 0.0252(4) 0.4833(7)
H18 H 0.454312 0.017516 0.370139
C30 C 0.3610(4) 0.1453(3) 0.3056(7)
C31 C 0.3040(4) 0.1443(5) 0.3670(8)
H22 H 0.277365 0.174203 0.341367
H23 H 0.312815 0.152201 0.437717
H24 H 0.285688 0.105815 0.360983
C32 C 0.5283(4) 0.1455(4) 0.3581(8)
H25 H 0.537369 0.105418 0.378447
H26 H 0.527112 0.170643 0.417557
H27 H 0.558506 0.159593 0.311927
C33 C 0.4120(4) 0.1670(4) 0.0306(7)
H29 H 0.438503 0.199279 0.014727
H30 H 0.372246 0.177389 0.010161
N8 N 0.1998(3) 0.4092(3) 0.0771(5)
N11 N 0.1152(3) 0.4153(3) 0.5133(5)
N12 N 0.1773(3) 0.4659(3) 0.6097(6)
C35 C 0.1990(4) 0.4687(4) 0.1082(7)
C36 C 0.2074(4) 0.5019(4) 0.0185(7)
C37 C 0.2088(4) 0.5637(4) 0.0237(8)
C38 C 0.2019(5) 0.5885(5) 0.1171(8)
H33 H 0.203338 0.629810 0.122761
C39 C 0.1929(5) 0.5546(5) 0.2057(9)
H34 H 0.187608 0.574032 0.268066
C40 C 0.1915(5) 0.4957(5) 0.2033(7)
H35 H 0.185856 0.473312 0.262511
C41 C 0.1982(4) 0.3574(4) 0.1424(7)
H36 H 0.230747 0.359600 0.191203
H37 H 0.204005 0.322003 0.100953
C42 C 0.1389(4) 0.3520(3) 0.2012(6)
C43 C 0.0868(4) 0.3447(4) 0.1448(6)
C44 C 0.0322(4) 0.3476(4) 0.1962(6)
C49 C 0.0255(4) 0.4855(4) 0.1249(7)
H41 H 0.055498 0.459286 0.105342
C50 C 0.0354(4) 0.5441(4) 0.1281(8)
H42 H 0.072490 0.559109 0.109638
C53 C 0.0308(4) 0.3532(3) 0.3056(7)
C54 C 0.0844(4) 0.3572(4) 0.3594(6)
C55 C 0.0822(5) 0.3642(4) 0.4759(7)
H45 H 0.041002 0.367926 0.497122
H46 H 0.098255 0.328481 0.507347
C56 C 0.1557(4) 0.4150(4) 0.5875(6)
H47 H 0.167505 0.380274 0.620651
C57 C 0.1493(4) 0.5054(4) 0.5449(7)
C58 C 0.1096(4) 0.4748(4) 0.4833(7)
C59 C 0.0730(5) 0.5034(5) 0.4099(7)
H48 H 0.045688 0.482484 0.370139
C60 C 0.0801(5) 0.5627(5) 0.4011(7)
H49 H 0.056389 0.583960 0.355461
C61 C 0.1216(5) 0.5921(5) 0.4582(8)
H50 H 0.126263 0.632688 0.446057
C62 C 0.1567(5) 0.5671(4) 0.5316(7)
H51 H 0.183717 0.589225 0.570039
C63 C 0.1390(4) 0.3547(3) 0.3056(7)
C64 C 0.1960(4) 0.3557(5) 0.3670(8)
H52 H 0.222635 0.325797 0.341367
H53 H 0.187185 0.347799 0.437717
H54 H 0.214312 0.394185 0.360983
C66 C 0.0880(4) 0.3330(4) 0.0306(7)
H59 H 0.061497 0.300721 0.014727
H60 H 0.127754 0.322611 0.010161
Cd6 Cd 0.27886(3) 0.01243(3) 0.76489(5)
Cd8 Cd 0.22114(3) 0.48757(3) 0.76489(5)
Cd1 Cd 0.250000 0.250000 0.750000
Br1 Br 0.22016(5) 0.11909(5) 0.74493(8)
Br3 Br 0.250000 0.250000 0.93860(14)
N1 N 0.2849(3) 0.0351(3) 0.9367(5)
C1 C 0.2908(4) 0.0899(4) 0.9759(7)
H1 H 0.288571 0.124273 0.936278
H28 H 0.424439 0.131886 0.994619
Br4 Br 0.27984(5) 0.38091(5) 0.74493(8)
Br5 Br 0.28173(6) 0.58322(6) 0.74718(10)
N7 N 0.2151(3) 0.4649(3) 0.9367(5)
C34 C 0.2092(4) 0.4101(4) 0.9759(7)
H31 H 0.211429 0.375727 0.936278
H32 H 0.214180 0.586899 0.965406
H58 H 0.075561 0.368114 0.994619
Cd4 Cd 0.01243(3) 0.22114(3) 0.73511(5)
Br6 Br 0.11909(5) 0.27984(5) 0.75507(8)
Br8 Br 0.250000 0.250000 0.56140(14)
N13 N 0.0351(3) 0.2151(3) 0.5633(5)
N14 N 0.0908(3) 0.1998(3) 0.4229(5)
C67 C 0.0899(4) 0.2092(4) 0.5241(7)
H61 H 0.124273 0.211429 0.563722
C68 C 0.0313(4) 0.1990(4) 0.3918(7)
C73 C 0.0043(5) 0.1915(5) 0.2967(7)
H65 H 0.026688 0.185856 0.237489
C74 C 0.1426(4) 0.1982(4) 0.3576(7)
H66 H 0.140400 0.230747 0.308797
H67 H 0.177997 0.204005 0.399047
C75 C 0.1480(3) 0.1389(4) 0.2988(6)
C76 C 0.1553(4) 0.0868(4) 0.3552(6)
C77 C 0.1524(4) 0.0322(4) 0.3038(6)
C82 C 0.0145(4) 0.0255(4) 0.3751(7)
H71 H 0.040714 0.055498 0.394658
C86 C 0.1468(3) 0.0308(4) 0.1944(7)
C87 C 0.1428(4) 0.0844(4) 0.1406(6)
C88 C 0.1358(4) 0.0822(5) 0.0241(7)
H75 H 0.132074 0.041002 0.002878
C91 C 0.0252(4) 0.1096(4) 0.0167(7)
H78 H 0.017516 0.045688 0.129861
C96 C 0.1453(3) 0.1390(4) 0.1944(7)
C97 C 0.1443(5) 0.1960(4) 0.1330(8)
H82 H 0.174203 0.222635 0.158633
H83 H 0.152201 0.187185 0.062283
H84 H 0.105815 0.214312 0.139017
C99 C 0.1670(4) 0.0880(4) 0.4694(7)
H88 H 0.131886 0.075561 0.505381
H89 H 0.199279 0.061497 0.485273
H90 H 0.177389 0.127754 0.489839
Cd5 Cd 0.48757(3) 0.27886(3) 0.73511(5)
Br9 Br 0.38091(5) 0.22016(5) 0.75507(8)
Br10 Br 0.58322(6) 0.21827(6) 0.75282(10)
N19 N 0.4649(3) 0.2849(3) 0.5633(5)
N20 N 0.4092(3) 0.3002(3) 0.4229(5)
N21 N 0.4077(3) 0.5562(3) 0.3453(5)
N22 N 0.4704(3) 0.6266(3) 0.3000(6)
C100 C 0.4101(4) 0.2908(4) 0.5241(7)
H91 H 0.375727 0.288571 0.563722
C101 C 0.4687(4) 0.3010(4) 0.3918(7)
C102 C 0.5019(4) 0.2926(4) 0.4815(7)
C103 C 0.5637(4) 0.2912(4) 0.4763(8)
H92 H 0.586899 0.285820 0.534594
C104 C 0.5885(5) 0.2981(5) 0.3829(8)
H93 H 0.629810 0.296662 0.377239
C105 C 0.5546(5) 0.3071(5) 0.2943(9)
H94 H 0.574032 0.312392 0.231934
C106 C 0.4957(5) 0.3085(5) 0.2967(7)
H95 H 0.473312 0.314144 0.237489
C107 C 0.3574(4) 0.3018(4) 0.3576(7)
H96 H 0.359600 0.269253 0.308797
H97 H 0.322003 0.295995 0.399047
C108 C 0.3520(3) 0.3611(4) 0.2988(6)
C109 C 0.3447(4) 0.4132(4) 0.3552(6)
C110 C 0.3476(4) 0.4678(4) 0.3038(6)
C111 C 0.3506(4) 0.5248(4) 0.3636(8)
H98 H 0.346555 0.516081 0.436126
H99 H 0.317727 0.550364 0.343737
C112 C 0.4153(4) 0.6122(4) 0.3155(7)
H100 H 0.383855 0.638638 0.306651
C113 C 0.5027(4) 0.5763(4) 0.3203(7)
C114 C 0.4645(4) 0.5308(4) 0.3485(7)
C115 C 0.4855(4) 0.4745(4) 0.3751(7)
H101 H 0.459286 0.444502 0.394658
C116 C 0.5441(4) 0.4646(4) 0.3719(8)
H102 H 0.559109 0.427510 0.390362
C117 C 0.5828(4) 0.5096(5) 0.3409(8)
H103 H 0.623355 0.501398 0.337715
C118 C 0.5636(4) 0.5656(5) 0.3149(8)
H104 H 0.590196 0.595071 0.294477
C119 C 0.3532(3) 0.4692(4) 0.1944(7)
C120 C 0.3572(4) 0.4156(4) 0.1406(6)
C121 C 0.3642(4) 0.4178(5) 0.0241(7)
H105 H 0.367926 0.458998 0.002878
C124 C 0.4748(4) 0.3904(4) 0.0167(7)
C125 C 0.5034(5) 0.4270(5) 0.0901(7)
H108 H 0.482484 0.454312 0.129861
C126 C 0.5627(5) 0.4199(5) 0.0989(7)
H109 H 0.583960 0.443611 0.144539
C127 C 0.5921(5) 0.3784(5) 0.0418(8)
H110 H 0.632688 0.373737 0.053943
C129 C 0.3547(3) 0.3610(4) 0.1944(7)
C130 C 0.3557(5) 0.3040(4) 0.1330(8)
H112 H 0.325797 0.277365 0.158633
H113 H 0.347799 0.312815 0.062283
H114 H 0.394185 0.285688 0.139017
C131 C 0.3545(4) 0.5283(4) 0.1419(8)
H115 H 0.394582 0.537369 0.121553
H116 H 0.329357 0.527112 0.082443
H117 H 0.340407 0.558506 0.188073
C132 C 0.3330(4) 0.4120(4) 0.4694(7)
H118 H 0.368114 0.424439 0.505381
H119 H 0.300721 0.438503 0.485273
H120 H 0.322611 0.372246 0.489839
Cd9 Cd 0.51243(3) 0.72114(3) 0.26489(5)
N26 N 0.5296(3) 0.3734(3) 0.7000(6)
N28 N 0.1266(3) 0.5296(3) 0.8000(6)
N31 N 0.0341(3) 0.1773(3) 0.8903(6)
N32 N 0.4659(3) 0.3227(3) 0.8903(6)
N17 N 0.0847(3) 0.1152(3) 0.9867(5)
H76 H 0.171519 0.098255 0.992653
C89 C 0.0850(4) 0.1557(4) 0.9125(6)
H77 H 0.119726 0.167505 0.879349
N23 N 0.4153(3) 0.3848(3) 0.9867(5)
H106 H 0.328481 0.401745 0.992653
C122 C 0.4150(4) 0.3443(4) 0.9125(6)
H107 H 0.380274 0.332495 0.879349
C123 C 0.5054(4) 0.3507(4) 0.9551(7)
C128 C 0.5671(4) 0.3433(5) 0.9684(7)
H111 H 0.589225 0.316283 0.929961
C3 C 0.2926(4) 0.9981(4) 0.0185(7)
C4 C 0.2912(4) 0.9363(4) 0.0237(8)
C5 C 0.2981(5) 0.9115(5) 0.1171(8)
H3 H 0.296662 0.870190 0.122761
C6 C 0.3071(5) 0.9454(5) 0.2057(9)
H4 H 0.312392 0.925968 0.268066
C14 C 0.5763(4) 0.9973(4) 0.1797(7)
C17 C 0.4646(4) 0.9559(4) 0.1281(8)
H12 H 0.427510 0.940891 0.109638
C18 C 0.5096(5) 0.9172(4) 0.1591(8)
H13 H 0.501398 0.876645 0.162285
C19 C 0.5656(5) 0.9364(4) 0.1851(8)
H14 H 0.595071 0.909804 0.205523
C24 C 0.3507(4) 0.9946(4) 0.5449(7)
C26 C 0.4270(5) 0.9966(5) 0.4099(7)
C27 C 0.4199(5) 0.9373(5) 0.4011(7)
H19 H 0.443611 0.916040 0.355461
C28 C 0.3784(5) 0.9079(5) 0.4582(8)
H20 H 0.373737 0.867312 0.446057
C29 C 0.3433(5) 0.9329(4) 0.5316(7)
H21 H 0.316283 0.910775 0.570039
Cd10 Cd 0.72114(3) 0.98757(3) 0.23511(5)
Br2 Br 0.21827(6) 0.91678(6) 0.74718(10)
H2 H 0.285820 0.913101 0.965406
N15 N 0.0923(3) 0.9438(3) 0.3453(5)
N16 N 0.0296(3) 0.8734(3) 0.3000(6)
C78 C 0.1494(4) 0.9752(4) 0.3636(8)
H68 H 0.153445 0.983919 0.436126
H69 H 0.182273 0.949636 0.343737
C79 C 0.0847(4) 0.8878(4) 0.3155(7)
H70 H 0.116145 0.861362 0.306651
C81 C 0.0355(4) 0.9692(4) 0.3485(7)
C98 C 0.1455(4) 0.9717(4) 0.1419(8)
H85 H 0.105418 0.962631 0.121553
H86 H 0.170643 0.972888 0.082443
H87 H 0.159593 0.941494 0.188073
N27 N 0.3734(3) 0.9704(3) 0.8000(6)
N9 N 0.9438(3) 0.4077(3) 0.1547(5)
N10 N 0.8734(3) 0.4704(3) 0.2000(6)
C45 C 0.9752(4) 0.3506(4) 0.1364(8)
H38 H 0.983919 0.346555 0.063874
H39 H 0.949636 0.317727 0.156263
C46 C 0.8878(4) 0.4153(4) 0.1845(7)
H40 H 0.861362 0.383855 0.193349
C47 C 0.9237(4) 0.5027(4) 0.1797(7)
C48 C 0.9692(4) 0.4645(4) 0.1515(7)
C51 C 0.9904(5) 0.5828(4) 0.1591(8)
H43 H 0.998602 0.623355 0.162285
C52 C 0.9344(5) 0.5636(4) 0.1851(8)
H44 H 0.904929 0.590196 0.205523
C65 C 0.9717(4) 0.3545(4) 0.3581(8)
H55 H 0.962631 0.394582 0.378447
H56 H 0.972888 0.329357 0.417557
H57 H 0.941494 0.340407 0.311927
Cd12 Cd 0.77886(3) 0.51243(3) 0.23511(5)
Br7 Br 0.91678(6) 0.28173(6) 0.75282(10)
C69 C 0.9981(4) 0.2074(4) 0.4815(7)
C70 C 0.9363(4) 0.2088(4) 0.4763(8)
H62 H 0.913101 0.214180 0.534594
C71 C 0.9115(5) 0.2019(5) 0.3829(8)
H63 H 0.870190 0.203338 0.377239
C72 C 0.9454(5) 0.1929(5) 0.2943(9)
H64 H 0.925968 0.187608 0.231934
C83 C 0.9559(4) 0.0354(4) 0.3719(8)
H72 H 0.940891 0.072490 0.390362
C92 C 0.9966(5) 0.0730(5) 0.0901(7)
C93 C 0.9373(5) 0.0801(5) 0.0989(7)
H79 H 0.916040 0.056389 0.144539
C94 C 0.9079(5) 0.1216(5) 0.0418(8)
H80 H 0.867312 0.126263 0.053943
N25 N 0.9704(3) 0.1266(3) 0.7000(6)
C80 C 0.9973(4) 0.9237(4) 0.3203(7)
C84 C 0.9172(4) 0.9904(5) 0.3409(8)
H73 H 0.876645 0.998602 0.337715
C85 C 0.9364(4) 0.9344(5) 0.3149(8)
H74 H 0.909804 0.904929 0.294477
Cd7 Cd 0.98757(3) 0.77886(3) 0.26489(5)
C14_2 C 0.0027(4) 0.0763(4) 0.6797(7)
C18_2 C 0.0828(4) 0.0096(5) 0.6591(8)
H13_2 H 0.123355 0.001398 0.662285
C19_2 C 0.0636(4) 0.0656(5) 0.6851(8)
H14_2 H 0.090196 0.095071 0.705523
Br2_2 Br 0.08322(6) 0.71827(6) 0.24718(10)
C3_2 C 0.0019(4) 0.7926(4) 0.5185(7)
C4_2 C 0.0637(4) 0.7912(4) 0.5237(8)
H2_2 H 0.086899 0.785820 0.465406
C5_2 C 0.0885(5) 0.7981(5) 0.6171(8)
H3_2 H 0.129810 0.796662 0.622761
C6_2 C 0.0546(5) 0.8071(5) 0.7057(9)
H4_2 H 0.074032 0.812392 0.768066
C17_2 C 0.0441(4) 0.9646(4) 0.6281(8)
H12_2 H 0.059109 0.927510 0.609638
C26_2 C 0.0034(5) 0.9270(5) 0.9099(7)
C27_2 C 0.0627(5) 0.9199(5) 0.9011(7)
H19_2 H 0.083960 0.943611 0.855461
C28_2 C 0.0921(5) 0.8784(5) 0.9582(8)
H20_2 H 0.132688 0.873737 0.946057
N15_2 N 0.0562(3) 0.5923(3) 0.8453(5)
C78_2 C 0.0248(4) 0.6494(4) 0.8636(8)
H68_2 H 0.016081 0.653445 0.936126
H69_2 H 0.050364 0.682273 0.843737
C79_2 C 0.1122(4) 0.5847(4) 0.8155(7)
H70_2 H 0.138638 0.616145 0.806651
C80_2 C 0.0763(4) 0.4973(4) 0.8203(7)
C81_2 C 0.0308(4) 0.5355(4) 0.8485(7)
C84_2 C 0.0096(5) 0.4172(4) 0.8409(8)
H73_2 H 0.001398 0.376645 0.837715
C85_2 C 0.0656(5) 0.4364(4) 0.8149(8)
H74_2 H 0.095071 0.409804 0.794477
C98_2 C 0.0283(4) 0.6455(4) 0.6419(8)
H85_2 H 0.037369 0.605418 0.621553
H86_2 H 0.027112 0.670643 0.582443
H87_2 H 0.058506 0.659593 0.688073
N3_2 N 0.9077(3) 0.0562(3) 0.6547(5)
C12_2 C 0.8506(4) 0.0248(4) 0.6364(8)
H8_2 H 0.846555 0.016081 0.563874
H9_2 H 0.817727 0.050364 0.656263
C13_2 C 0.9153(4) 0.1122(4) 0.6845(7)
H10_2 H 0.883855 0.138638 0.693349
C15_2 C 0.9645(4) 0.0308(4) 0.6515(7)
C32_2 C 0.8545(4) 0.0283(4) 0.8581(8)
H25_2 H 0.894582 0.037369 0.878447
H26_2 H 0.829357 0.027112 0.917557
H27_2 H 0.840407 0.058506 0.811927
Br10_2 Br 0.78173(6) 0.08322(6) 0.25282(10)
H92_2 H 0.714180 0.086899 0.034594
C102_2 C 0.7074(4) 0.0019(4) 0.9815(7)
C103_2 C 0.7088(4) 0.0637(4) 0.9763(8)
C104_2 C 0.7019(5) 0.0885(5) 0.8829(8)
H93_2 H 0.703338 0.129810 0.877239
C105_2 C 0.6929(5) 0.0546(5) 0.7943(9)
H94_2 H 0.687608 0.074032 0.731934
C113_2 C 0.4237(4) 0.0027(4) 0.8203(7)
C116_2 C 0.5354(4) 0.0441(4) 0.8719(8)
H102_2 H 0.572490 0.059109 0.890362
C117_2 C 0.4904(5) 0.0828(4) 0.8409(8)
H103_2 H 0.498602 0.123355 0.837715
C118_2 C 0.4344(5) 0.0636(4) 0.8149(8)
H104_2 H 0.404929 0.090196 0.794477
C123_2 C 0.6493(4) 0.0054(4) 0.4551(7)
C125_2 C 0.5730(5) 0.0034(5) 0.5901(7)
C126_2 C 0.5801(5) 0.0627(5) 0.5989(7)
H109_2 H 0.556389 0.083960 0.644539
C127_2 C 0.6216(5) 0.0921(5) 0.5418(8)
H110_2 H 0.626263 0.132688 0.553943
C128_2 C 0.6567(5) 0.0671(4) 0.4684(7)
H111_2 H 0.683717 0.089225 0.429961
N5_2 N 0.9153(3) 0.8848(3) 0.0133(5)
N6_2 N 0.9659(3) 0.8227(3) 0.1097(6)
H16_2 H 0.828481 0.901745 0.007347
C23_2 C 0.9150(4) 0.8443(4) 0.0875(6)
H17_2 H 0.880274 0.832495 0.120651
N11_2 N 0.5847(3) 0.6152(3) 0.0133(5)
N12_2 N 0.5341(3) 0.6773(3) 0.1097(6)
H46_2 H 0.671519 0.598255 0.007347
C56_2 C 0.5850(4) 0.6557(4) 0.0875(6)
H47_2 H 0.619726 0.667505 0.120651
C57_2 C 0.4946(4) 0.6493(4) 0.0449(7)
C62_2 C 0.4329(4) 0.6567(5) 0.0316(7)
H51_2 H 0.410775 0.683717 0.070039
Cd1_2 Cd 0.750000 0.750000 0.250000
Br1_2 Br 0.88091(5) 0.72016(5) 0.24493(8)
Br3_2 Br 0.750000 0.750000 0.43860(14)
N1_2 N 0.9649(3) 0.7849(3) 0.4367(5)
N2_2 N 0.9092(3) 0.8002(3) 0.5771(5)
C1_2 C 0.9101(4) 0.7908(4) 0.4759(7)
H1_2 H 0.875727 0.788571 0.436278
C2_2 C 0.9687(4) 0.8010(4) 0.6082(7)
C7_2 C 0.9957(5) 0.8085(5) 0.7033(7)
H5_2 H 0.973312 0.814144 0.762511
C8_2 C 0.8574(4) 0.8018(4) 0.6424(7)
H6_2 H 0.859600 0.769253 0.691203
H7_2 H 0.822003 0.795995 0.600953
C9_2 C 0.8520(3) 0.8611(4) 0.7012(6)
C10_2 C 0.8447(4) 0.9132(4) 0.6448(6)
C11_2 C 0.8476(4) 0.9678(4) 0.6962(6)
C16_2 C 0.9855(4) 0.9745(4) 0.6249(7)
H11_2 H 0.959286 0.944502 0.605342
C20_2 C 0.8532(3) 0.9692(4) 0.8056(7)
C21_2 C 0.8572(4) 0.9156(4) 0.8594(6)
C22_2 C 0.8642(4) 0.9178(5) 0.9759(7)
H15_2 H 0.867926 0.958998 0.997122
C25_2 C 0.9748(4) 0.8904(4) 0.9833(7)
H18_2 H 0.982484 0.954312 0.870139
C30_2 C 0.8547(3) 0.8610(4) 0.8056(7)
C31_2 C 0.8557(5) 0.8040(4) 0.8670(8)
H22_2 H 0.825797 0.777365 0.841367
H23_2 H 0.847799 0.812815 0.937717
H24_2 H 0.894185 0.785688 0.860983
C33_2 C 0.8330(4) 0.9120(4) 0.5306(7)
H28_2 H 0.868114 0.924439 0.494619
H29_2 H 0.800721 0.938503 0.514727
H30_2 H 0.822611 0.872246 0.510161
Br4_2 Br 0.61909(5) 0.77984(5) 0.24493(8)
Br5_2 Br 0.41678(6) 0.78173(6) 0.24718(10)
N7_2 N 0.5351(3) 0.7151(3) 0.4367(5)
N8_2 N 0.5908(3) 0.6998(3) 0.5771(5)
N9_2 N 0.5923(3) 0.4438(3) 0.6547(5)
C34_2 C 0.5899(4) 0.7092(4) 0.4759(7)
H31_2 H 0.624273 0.711429 0.436278
C35_2 C 0.5313(4) 0.6990(4) 0.6082(7)
C36_2 C 0.4981(4) 0.7074(4) 0.5185(7)
C37_2 C 0.4363(4) 0.7088(4) 0.5237(8)
H32_2 H 0.413101 0.714180 0.465406
C38_2 C 0.4115(5) 0.7019(5) 0.6171(8)
H33_2 H 0.370190 0.703338 0.622761
C39_2 C 0.4454(5) 0.6929(5) 0.7057(9)
H34_2 H 0.425968 0.687608 0.768066
C40_2 C 0.5043(5) 0.6915(5) 0.7033(7)
H35_2 H 0.526688 0.685856 0.762511
C41_2 C 0.6426(4) 0.6982(4) 0.6424(7)
H36_2 H 0.640400 0.730747 0.691203
H37_2 H 0.677997 0.704005 0.600953
C42_2 C 0.6480(3) 0.6389(4) 0.7012(6)
C43_2 C 0.6553(4) 0.5868(4) 0.6448(6)
C44_2 C 0.6524(4) 0.5322(4) 0.6962(6)
C45_2 C 0.6494(4) 0.4752(4) 0.6364(8)
H38_2 H 0.653445 0.483919 0.563874
H39_2 H 0.682273 0.449636 0.656263
C46_2 C 0.5847(4) 0.3878(4) 0.6845(7)
H40_2 H 0.616145 0.361362 0.693349
C47_2 C 0.4973(4) 0.4237(4) 0.6797(7)
C48_2 C 0.5355(4) 0.4692(4) 0.6515(7)
C49_2 C 0.5145(4) 0.5255(4) 0.6249(7)
H41_2 H 0.540714 0.555498 0.605342
C50_2 C 0.4559(4) 0.5354(4) 0.6281(8)
H42_2 H 0.440891 0.572490 0.609638
C51_2 C 0.4172(4) 0.4904(5) 0.6591(8)
H43_2 H 0.376645 0.498602 0.662285
C52_2 C 0.4364(4) 0.4344(5) 0.6851(8)
H44_2 H 0.409804 0.404929 0.705523
C53_2 C 0.6468(3) 0.5308(4) 0.8056(7)
C54_2 C 0.6428(4) 0.5844(4) 0.8594(6)
C55_2 C 0.6358(4) 0.5822(5) 0.9759(7)
H45_2 H 0.632074 0.541002 0.997122
C58_2 C 0.5252(4) 0.6096(4) 0.9833(7)
C59_2 C 0.4966(5) 0.5730(5) 0.9099(7)
H48_2 H 0.517516 0.545688 0.870139
C60_2 C 0.4373(5) 0.5801(5) 0.9011(7)
H49_2 H 0.416040 0.556389 0.855461
C61_2 C 0.4079(5) 0.6216(5) 0.9582(8)
H50_2 H 0.367312 0.626263 0.946057
C63_2 C 0.6453(3) 0.6390(4) 0.8056(7)
C64_2 C 0.6443(5) 0.6960(4) 0.8670(8)
H52_2 H 0.674203 0.722635 0.841367
H53_2 H 0.652201 0.687185 0.937717
H54_2 H 0.605815 0.714312 0.860983
C65_2 C 0.6455(4) 0.4717(4) 0.8581(8)
H55_2 H 0.605418 0.462631 0.878447
H56_2 H 0.670643 0.472888 0.917557
H57_2 H 0.659593 0.441494 0.811927
C66_2 C 0.6670(4) 0.5880(4) 0.5306(7)
H58_2 H 0.631886 0.575561 0.494619
H59_2 H 0.699279 0.561497 0.514727
H60_2 H 0.677389 0.627754 0.510161
Br6_2 Br 0.72016(5) 0.61909(5) 0.25507(8)
Br7_2 Br 0.71827(6) 0.41678(6) 0.25282(10)
Br8_2 Br 0.750000 0.750000 0.06140(14)
N13_2 N 0.7849(3) 0.5351(3) 0.0633(5)
C67_2 C 0.7908(4) 0.5899(4) 0.0241(7)
H61_2 H 0.788571 0.624273 0.063722
H62_2 H 0.785820 0.413101 0.034594
H88_2 H 0.924439 0.631886 0.005381
Br9_2 Br 0.77984(5) 0.88091(5) 0.25507(8)
N19_2 N 0.7151(3) 0.9649(3) 0.0633(5)
C100_2 C 0.7092(4) 0.9101(4) 0.0241(7)
H91_2 H 0.711429 0.875727 0.063722
H118_2 H 0.575561 0.868114 0.005381
N31_2 N 0.8227(3) 0.5341(3) 0.3903(6)
N32_2 N 0.6773(3) 0.9659(3) 0.3903(6)
N14_2 N 0.8002(3) 0.5908(3) 0.9229(5)
N17_2 N 0.8848(3) 0.5847(3) 0.4867(5)
C68_2 C 0.8010(4) 0.5313(4) 0.8918(7)
C69_2 C 0.7926(4) 0.4981(4) 0.9815(7)
C70_2 C 0.7912(4) 0.4363(4) 0.9763(8)
C71_2 C 0.7981(5) 0.4115(5) 0.8829(8)
H63_2 H 0.796662 0.370190 0.877239
C72_2 C 0.8071(5) 0.4454(5) 0.7943(9)
H64_2 H 0.812392 0.425968 0.731934
C73_2 C 0.8085(5) 0.5043(5) 0.7967(7)
H65_2 H 0.814144 0.526688 0.737489
C74_2 C 0.8018(4) 0.6426(4) 0.8576(7)
H66_2 H 0.769253 0.640400 0.808797
H67_2 H 0.795995 0.677997 0.899047
C75_2 C 0.8611(4) 0.6480(3) 0.7988(6)
C76_2 C 0.9132(4) 0.6553(4) 0.8552(6)
C77_2 C 0.9678(4) 0.6524(4) 0.8038(6)
C82_2 C 0.9745(4) 0.5145(4) 0.8751(7)
H71_2 H 0.944502 0.540714 0.894658
C83_2 C 0.9646(4) 0.4559(4) 0.8719(8)
H72_2 H 0.927510 0.440891 0.890362
C86_2 C 0.9692(4) 0.6468(3) 0.6944(7)
C87_2 C 0.9156(4) 0.6428(4) 0.6406(6)
C88_2 C 0.9178(5) 0.6358(4) 0.5241(7)
H75_2 H 0.958998 0.632074 0.502878
H76_2 H 0.901745 0.671519 0.492653
C89_2 C 0.8443(4) 0.5850(4) 0.4125(6)
H77_2 H 0.832495 0.619726 0.379349
C90 C 0.8507(4) 0.4946(4) 0.4551(7)
C91_2 C 0.8904(4) 0.5252(4) 0.5167(7)
C92_2 C 0.9270(5) 0.4966(5) 0.5901(7)
H78_2 H 0.954312 0.517516 0.629861
C93_2 C 0.9199(5) 0.4373(5) 0.5989(7)
H79_2 H 0.943611 0.416040 0.644539
C94_2 C 0.8784(5) 0.4079(5) 0.5418(8)
H80_2 H 0.873737 0.367312 0.553943
C95 C 0.8433(5) 0.4329(4) 0.4684(7)
H81 H 0.816283 0.410775 0.429961
C96_2 C 0.8610(4) 0.6453(3) 0.6944(7)
C97_2 C 0.8040(4) 0.6443(5) 0.6330(8)
H82_2 H 0.777365 0.674203 0.658633
H83_2 H 0.812815 0.652201 0.562283
H84_2 H 0.785688 0.605815 0.639017
C99_2 C 0.9120(4) 0.6670(4) 0.9694(7)
H89_2 H 0.938503 0.699279 0.985273
H90_2 H 0.872246 0.677389 0.989839
N20_2 N 0.6998(3) 0.9092(3) 0.9229(5)
N21_2 N 0.4438(3) 0.9077(3) 0.8453(5)
N23_2 N 0.6152(3) 0.9153(3) 0.4867(5)
C101_2 C 0.6990(4) 0.9687(4) 0.8918(7)
C106_2 C 0.6915(5) 0.9957(5) 0.7967(7)
H95_2 H 0.685856 0.973312 0.737489
C107_2 C 0.6982(4) 0.8574(4) 0.8576(7)
H96_2 H 0.730747 0.859600 0.808797
H97_2 H 0.704005 0.822003 0.899047
C108_2 C 0.6389(4) 0.8520(3) 0.7988(6)
C109_2 C 0.5868(4) 0.8447(4) 0.8552(6)
C110_2 C 0.5322(4) 0.8476(4) 0.8038(6)
C111_2 C 0.4752(4) 0.8506(4) 0.8636(8)
H98_2 H 0.483919 0.846555 0.936126
H99_2 H 0.449636 0.817727 0.843737
C112_2 C 0.3878(4) 0.9153(4) 0.8155(7)
H100_2 H 0.361362 0.883855 0.806651
C114_2 C 0.4692(4) 0.9645(4) 0.8485(7)
C115_2 C 0.5255(4) 0.9855(4) 0.8751(7)
H101_2 H 0.555498 0.959286 0.894658
C119_2 C 0.5308(4) 0.8532(3) 0.6944(7)
C120_2 C 0.5844(4) 0.8572(4) 0.6406(6)
C121_2 C 0.5822(5) 0.8642(4) 0.5241(7)
H105_2 H 0.541002 0.867926 0.502878
H106_2 H 0.598255 0.828481 0.492653
C122_2 C 0.6557(4) 0.9150(4) 0.4125(6)
H107_2 H 0.667505 0.880274 0.379349
C124_2 C 0.6096(4) 0.9748(4) 0.5167(7)
H108_2 H 0.545688 0.982484 0.629861
C129_2 C 0.6390(4) 0.8547(3) 0.6944(7)
C130_2 C 0.6960(4) 0.8557(5) 0.6330(8)
H112_2 H 0.722635 0.825797 0.658633
H113_2 H 0.687185 0.847799 0.562283
H114_2 H 0.714312 0.894185 0.639017
C131_2 C 0.4717(4) 0.8545(4) 0.6419(8)
H115_2 H 0.462631 0.894582 0.621553
H116_2 H 0.472888 0.829357 0.582443
H117_2 H 0.441494 0.840407 0.688073
C132_2 C 0.5880(4) 0.8330(4) 0.9694(7)
H119_2 H 0.561497 0.800721 0.985273
H120_2 H 0.627754 0.822611 0.989839
C90_2 C 0.9946(4) 0.1493(4) 0.9551(7)
C95_2 C 0.9329(4) 0.1567(5) 0.9684(7)
H81_2 H 0.910775 0.183717 0.929961
C24_2 C 0.0054(4) 0.8507(4) 0.0449(7)
C29_2 C 0.0671(4) 0.8433(5) 0.0316(7)
H21_2 H 0.089225 0.816283 0.070039
loop_
_geom_bond_atom_site_label_1
_geom_bond_atom_site_label_2
_geom_bond_site_symmetry_1
_geom_bond_site_symmetry_2
N3 C12 1_555 1_555
N4 C13 1_555 1_555
N5 C22 1_555 1_555
N6 C23 1_555 1_555
C2 N2 1_555 1_555
C7 C2 1_555 1_555
H5 C7 1_555 1_555
C8 N2 1_555 1_555
H6 C8 1_555 1_555
H7 C8 1_555 1_555
C9 C8 1_555 1_555
C10 C9 1_555 1_555
C11 C10 1_555 1_555
C12 C11 1_555 1_555
H8 C12 1_555 1_555
H9 C12 1_555 1_555
C13 N3 1_555 1_555
H10 C13 1_555 1_555
C15 N3 1_555 1_555
C16 C15 1_555 1_555
H11 C16 1_555 1_555
C20 C11 1_555 1_555
C21 C20 1_555 1_555
C22 C21 1_555 1_555
H15 C22 1_555 1_555
H16 C22 1_555 1_555
C23 N5 1_555 1_555
H17 C23 1_555 1_555
C25 N5 1_555 1_555
C30 C9 1_555 1_555
C31 C30 1_555 1_555
H22 C31 1_555 1_555
H23 C31 1_555 1_555
H24 C31 1_555 1_555
C32 C20 1_555 1_555
H25 C32 1_555 1_555
H26 C32 1_555 1_555
H27 C32 1_555 1_555
C33 C10 1_555 1_555
H29 C33 1_555 1_555
H30 C33 1_555 1_555
N11 C55 1_555 1_555
N12 C56 1_555 1_555
C35 N8 1_555 1_555
C37 C36 1_555 1_555
C38 C37 1_555 1_555
H33 C38 1_555 1_555
C39 C38 1_555 1_555
H34 C39 1_555 1_555
C40 C35 1_555 1_555
H35 C40 1_555 1_555
C41 N8 1_555 1_555
H36 C41 1_555 1_555
H37 C41 1_555 1_555
C42 C41 1_555 1_555
C43 C42 1_555 1_555
C44 C43 1_555 1_555
H41 C49 1_555 1_555
C50 C49 1_555 1_555
H42 C50 1_555 1_555
C53 C44 1_555 1_555
C54 C53 1_555 1_555
C55 C54 1_555 1_555
H45 C55 1_555 1_555
H46 C55 1_555 1_555
C56 N11 1_555 1_555
H47 C56 1_555 1_555
C57 N12 1_555 1_555
C58 N11 1_555 1_555
C59 C58 1_555 1_555
H48 C59 1_555 1_555
C60 C59 1_555 1_555
H49 C60 1_555 1_555
C61 C60 1_555 1_555
H50 C61 1_555 1_555
C62 C57 1_555 1_555
H51 C62 1_555 1_555
C63 C42 1_555 1_555
C64 C63 1_555 1_555
H52 C64 1_555 1_555
H53 C64 1_555 1_555
H54 C64 1_555 1_555
C66 C43 1_555 1_555
H59 C66 1_555 1_555
H60 C66 1_555 1_555
Cd6 N6 1_555 1_555
Cd8 N12 1_555 1_555
C21 C30 1_555 1_555
C35 C36 1_555 1_555
C39 C40 1_555 1_555
C54 C63 1_555 1_555
C57 C58 1_555 1_555
C61 C62 1_555 1_555
Cd1 Br1 1_555 1_555
Cd6 Br1 1_555 1_555
Br3 Cd1 1_555 1_555
N1 Cd6 1_555 1_555
C1 N1 1_555 1_555
H1 C1 1_555 1_555
Cd8 Br4 1_555 1_555
Br4 Cd1 1_555 1_555
Br5 Cd8 1_555 1_555
N7 Cd8 1_555 1_555
C34 N7 1_555 1_555
H31 C34 1_555 1_555
Cd4 Br6 1_555 1_555
Br6 Cd1 1_555 1_555
Br8 Cd1 1_555 1_555
N13 Cd4 1_555 1_555
N14 C67 1_555 1_555
C67 N13 1_555 1_555
H61 C67 1_555 1_555
C68 N14 1_555 1_555
C73 C68 1_555 1_555
H65 C73 1_555 1_555
C74 N14 1_555 1_555
H66 C74 1_555 1_555
H67 C74 1_555 1_555
C75 C74 1_555 1_555
C76 C75 1_555 1_555
C77 C76 1_555 1_555
H71 C82 1_555 1_555
C86 C77 1_555 1_555
C87 C86 1_555 1_555
C88 C87 1_555 1_555
H75 C88 1_555 1_555
C96 C75 1_555 1_555
C97 C96 1_555 1_555
H82 C97 1_555 1_555
H83 C97 1_555 1_555
H84 C97 1_555 1_555
C99 C76 1_555 1_555
H88 C99 1_555 1_555
H89 C99 1_555 1_555
H90 C99 1_555 1_555
Cd5 Br9 1_555 1_555
Br9 Cd1 1_555 1_555
Br10 Cd5 1_555 1_555
N19 Cd5 1_555 1_555
N20 C100 1_555 1_555
N21 C111 1_555 1_555
N22 C112 1_555 1_555
C100 N19 1_555 1_555
H91 C100 1_555 1_555
C101 N20 1_555 1_555
C102 N19 1_555 1_555
C103 C102 1_555 1_555
H92 C103 1_555 1_555
C104 C103 1_555 1_555
H93 C104 1_555 1_555
C105 C104 1_555 1_555
H94 C105 1_555 1_555
C106 C101 1_555 1_555
H95 C106 1_555 1_555
C107 N20 1_555 1_555
H96 C107 1_555 1_555
H97 C107 1_555 1_555
C108 C107 1_555 1_555
C109 C108 1_555 1_555
C110 C109 1_555 1_555
C111 C110 1_555 1_555
H98 C111 1_555 1_555
H99 C111 1_555 1_555
C112 N21 1_555 1_555
H100 C112 1_555 1_555
C113 N22 1_555 1_555
C114 N21 1_555 1_555
C115 C114 1_555 1_555
H101 C115 1_555 1_555
C116 C115 1_555 1_555
H102 C116 1_555 1_555
C117 C116 1_555 1_555
H103 C117 1_555 1_555
C118 C113 1_555 1_555
H104 C118 1_555 1_555
C119 C110 1_555 1_555
C120 C119 1_555 1_555
C121 C120 1_555 1_555
H105 C121 1_555 1_555
C125 C124 1_555 1_555
H108 C125 1_555 1_555
C126 C125 1_555 1_555
H109 C126 1_555 1_555
C127 C126 1_555 1_555
H110 C127 1_555 1_555
C129 C108 1_555 1_555
C130 C129 1_555 1_555
H112 C130 1_555 1_555
H113 C130 1_555 1_555
H114 C130 1_555 1_555
C131 C119 1_555 1_555
H115 C131 1_555 1_555
H116 C131 1_555 1_555
H117 C131 1_555 1_555
C132 C109 1_555 1_555
H118 C132 1_555 1_555
H119 C132 1_555 1_555
H120 C132 1_555 1_555
Cd9 N22 1_555 1_555
N26 Cd5 1_555 1_555
N28 Cd8 1_555 1_555
N31 Cd4 1_555 1_555
N32 Cd5 1_555 1_555
C87 C96 1_555 1_555
C101 C102 1_555 1_555
C105 C106 1_555 1_555
C113 C114 1_555 1_555
C117 C118 1_555 1_555
C120 C129 1_555 1_555
N31 C89 1_555 1_555
C89 N17 1_555 1_555
H77 C89 1_555 1_555
N32 C122 1_555 1_555
C122 N23 1_555 1_555
H107 C122 1_555 1_555
C123 N32 1_555 1_555
C128 C123 1_555 1_555
H111 C128 1_555 1_555
C4 C3 1_555 1_555
C5 C4 1_555 1_555
H3 C5 1_555 1_555
C6 C5 1_555 1_555
H4 C6 1_555 1_555
H12 C17 1_555 1_555
C18 C17 1_555 1_555
H13 C18 1_555 1_555
C19 C14 1_555 1_555
H14 C19 1_555 1_555
C27 C26 1_555 1_555
H19 C27 1_555 1_555
C28 C27 1_555 1_555
H20 C28 1_555 1_555
C29 C24 1_555 1_555
H21 C29 1_555 1_555
C18 C19 1_555 1_555
C28 C29 1_555 1_555
N15 C78 1_555 1_555
N16 C79 1_555 1_555
H68 C78 1_555 1_555
H69 C78 1_555 1_555
C79 N15 1_555 1_555
H70 C79 1_555 1_555
C81 N15 1_555 1_555
H85 C98 1_555 1_555
H86 C98 1_555 1_555
H87 C98 1_555 1_555
N9 C45 1_555 1_555
N10 C46 1_555 1_555
H38 C45 1_555 1_555
H39 C45 1_555 1_555
C46 N9 1_555 1_555
H40 C46 1_555 1_555
C47 N10 1_555 1_555
C48 N9 1_555 1_555
H43 C51 1_555 1_555
C52 C47 1_555 1_555
H44 C52 1_555 1_555
H55 C65 1_555 1_555
H56 C65 1_555 1_555
H57 C65 1_555 1_555
Cd12 N10 1_555 1_555
C47 C48 1_555 1_555
C51 C52 1_555 1_555
C70 C69 1_555 1_555
H62 C70 1_555 1_555
C71 C70 1_555 1_555
H63 C71 1_555 1_555
C72 C71 1_555 1_555
H64 C72 1_555 1_555
H72 C83 1_555 1_555
C93 C92 1_555 1_555
H79 C93 1_555 1_555
C94 C93 1_555 1_555
H80 C94 1_555 1_555
H73 C84 1_555 1_555
C85 C80 1_555 1_555
H74 C85 1_555 1_555
C84 C85 1_555 1_555
H13_2 C18_2 1_555 1_555
C19_2 C14_2 1_555 1_555
H14_2 C19_2 1_555 1_555
C18_2 C19_2 1_555 1_555
C4_2 C3_2 1_555 1_555
H2_2 C4_2 1_555 1_555
C5_2 C4_2 1_555 1_555
H3_2 C5_2 1_555 1_555
C6_2 C5_2 1_555 1_555
H4_2 C6_2 1_555 1_555
H12_2 C17_2 1_555 1_555
C27_2 C26_2 1_555 1_555
H19_2 C27_2 1_555 1_555
C28_2 C27_2 1_555 1_555
H20_2 C28_2 1_555 1_555
N15_2 C78_2 1_555 1_555
N28 C79_2 1_555 1_555
H68_2 C78_2 1_555 1_555
H69_2 C78_2 1_555 1_555
C79_2 N15_2 1_555 1_555
H70_2 C79_2 1_555 1_555
C80_2 N28 1_555 1_555
C81_2 N15_2 1_555 1_555
H73_2 C84_2 1_555 1_555
C85_2 C80_2 1_555 1_555
H74_2 C85_2 1_555 1_555
H85_2 C98_2 1_555 1_555
H86_2 C98_2 1_555 1_555
H87_2 C98_2 1_555 1_555
C80_2 C81_2 1_555 1_555
C84_2 C85_2 1_555 1_555
N3_2 C12_2 1_555 1_555
N25 C13_2 1_555 1_555
H8_2 C12_2 1_555 1_555
H9_2 C12_2 1_555 1_555
C13_2 N3_2 1_555 1_555
H10_2 C13_2 1_555 1_555
C15_2 N3_2 1_555 1_555
H25_2 C32_2 1_555 1_555
H26_2 C32_2 1_555 1_555
H27_2 C32_2 1_555 1_555
C103_2 C102_2 1_555 1_555
C104_2 C103_2 1_555 1_555
H93_2 C104_2 1_555 1_555
C105_2 C104_2 1_555 1_555
H94_2 C105_2 1_555 1_555
H102_2 C116_2 1_555 1_555
C117_2 C116_2 1_555 1_555
H103_2 C117_2 1_555 1_555
C118_2 C113_2 1_555 1_555
H104_2 C118_2 1_555 1_555
C126_2 C125_2 1_555 1_555
H109_2 C126_2 1_555 1_555
C127_2 C126_2 1_555 1_555
H110_2 C127_2 1_555 1_555
C128_2 C123_2 1_555 1_555
H111_2 C128_2 1_555 1_555
C117_2 C118_2 1_555 1_555
C127_2 C128_2 1_555 1_555
N6_2 C23_2 1_555 1_555
C23_2 N5_2 1_555 1_555
H17_2 C23_2 1_555 1_555
N12_2 C56_2 1_555 1_555
C56_2 N11_2 1_555 1_555
H47_2 C56_2 1_555 1_555
C57_2 N12_2 1_555 1_555
C62_2 C57_2 1_555 1_555
H51_2 C62_2 1_555 1_555
Cd7 N6_2 1_555 1_555
Cd9 N12_2 1_555 1_555
Cd1_2 Br1_2 1_555 1_555
Cd7 Br1_2 1_555 1_555
Br3_2 Cd1_2 1_555 1_555
N1_2 Cd7 1_555 1_555
N2_2 C1_2 1_555 1_555
C1_2 N1_2 1_555 1_555
H1_2 C1_2 1_555 1_555
C2_2 N2_2 1_555 1_555
C7_2 C2_2 1_555 1_555
H5_2 C7_2 1_555 1_555
C8_2 N2_2 1_555 1_555
H6_2 C8_2 1_555 1_555
H7_2 C8_2 1_555 1_555
C9_2 C8_2 1_555 1_555
C10_2 C9_2 1_555 1_555
C11_2 C10_2 1_555 1_555
H11_2 C16_2 1_555 1_555
C20_2 C11_2 1_555 1_555
C21_2 C20_2 1_555 1_555
C22_2 C21_2 1_555 1_555
H15_2 C22_2 1_555 1_555
C30_2 C9_2 1_555 1_555
C31_2 C30_2 1_555 1_555
H22_2 C31_2 1_555 1_555
H23_2 C31_2 1_555 1_555
H24_2 C31_2 1_555 1_555
C33_2 C10_2 1_555 1_555
H28_2 C33_2 1_555 1_555
H29_2 C33_2 1_555 1_555
H30_2 C33_2 1_555 1_555
Cd9 Br4_2 1_555 1_555
Br4_2 Cd1_2 1_555 1_555
Br5_2 Cd9 1_555 1_555
N7_2 Cd9 1_555 1_555
N8_2 C34_2 1_555 1_555
N9_2 C45_2 1_555 1_555
N26 C46_2 1_555 1_555
C34_2 N7_2 1_555 1_555
H31_2 C34_2 1_555 1_555
C35_2 N8_2 1_555 1_555
C36_2 N7_2 1_555 1_555
C37_2 C36_2 1_555 1_555
H32_2 C37_2 1_555 1_555
C38_2 C37_2 1_555 1_555
H33_2 C38_2 1_555 1_555
C39_2 C38_2 1_555 1_555
H34_2 C39_2 1_555 1_555
C40_2 C35_2 1_555 1_555
H35_2 C40_2 1_555 1_555
C41_2 N8_2 1_555 1_555
H36_2 C41_2 1_555 1_555
H37_2 C41_2 1_555 1_555
C42_2 C41_2 1_555 1_555
C43_2 C42_2 1_555 1_555
C44_2 C43_2 1_555 1_555
C45_2 C44_2 1_555 1_555
H38_2 C45_2 1_555 1_555
H39_2 C45_2 1_555 1_555
C46_2 N9_2 1_555 1_555
H40_2 C46_2 1_555 1_555
C47_2 N26 1_555 1_555
C48_2 N9_2 1_555 1_555
C49_2 C48_2 1_555 1_555
H41_2 C49_2 1_555 1_555
C50_2 C49_2 1_555 1_555
H42_2 C50_2 1_555 1_555
C51_2 C50_2 1_555 1_555
H43_2 C51_2 1_555 1_555
C52_2 C47_2 1_555 1_555
H44_2 C52_2 1_555 1_555
C53_2 C44_2 1_555 1_555
C54_2 C53_2 1_555 1_555
C55_2 C54_2 1_555 1_555
H45_2 C55_2 1_555 1_555
C59_2 C58_2 1_555 1_555
H48_2 C59_2 1_555 1_555
C60_2 C59_2 1_555 1_555
H49_2 C60_2 1_555 1_555
C61_2 C60_2 1_555 1_555
H50_2 C61_2 1_555 1_555
C63_2 C42_2 1_555 1_555
C64_2 C63_2 1_555 1_555
H52_2 C64_2 1_555 1_555
H53_2 C64_2 1_555 1_555
H54_2 C64_2 1_555 1_555
C65_2 C53_2 1_555 1_555
H55_2 C65_2 1_555 1_555
H56_2 C65_2 1_555 1_555
H57_2 C65_2 1_555 1_555
C66_2 C43_2 1_555 1_555
H58_2 C66_2 1_555 1_555
H59_2 C66_2 1_555 1_555
H60_2 C66_2 1_555 1_555
Cd12 Br6_2 1_555 1_555
Br6_2 Cd1_2 1_555 1_555
Br7_2 Cd12 1_555 1_555
Br8_2 Cd1_2 1_555 1_555
N13_2 Cd12 1_555 1_555
C67_2 N13_2 1_555 1_555
H61_2 C67_2 1_555 1_555
Cd10 Br9_2 1_555 1_555
Br9_2 Cd1_2 1_555 1_555
N19_2 Cd10 1_555 1_555
C100_2 N19_2 1_555 1_555
H91_2 C100_2 1_555 1_555
N31_2 Cd12 1_555 1_555
N32_2 Cd10 1_555 1_555
C21_2 C30_2 1_555 1_555
C35_2 C36_2 1_555 1_555
C39_2 C40_2 1_555 1_555
C47_2 C48_2 1_555 1_555
C51_2 C52_2 1_555 1_555
C54_2 C63_2 1_555 1_555
N17_2 C88_2 1_555 1_555
N31_2 C89_2 1_555 1_555
C68_2 N14_2 1_555 1_555
C70_2 C69_2 1_555 1_555
C71_2 C70_2 1_555 1_555
H63_2 C71_2 1_555 1_555
C72_2 C71_2 1_555 1_555
H64_2 C72_2 1_555 1_555
C73_2 C68_2 1_555 1_555
H65_2 C73_2 1_555 1_555
C74_2 N14_2 1_555 1_555
H66_2 C74_2 1_555 1_555
H67_2 C74_2 1_555 1_555
C75_2 C74_2 1_555 1_555
C76_2 C75_2 1_555 1_555
C77_2 C76_2 1_555 1_555
H71_2 C82_2 1_555 1_555
C83_2 C82_2 1_555 1_555
H72_2 C83_2 1_555 1_555
C86_2 C77_2 1_555 1_555
C87_2 C86_2 1_555 1_555
C88_2 C87_2 1_555 1_555
H75_2 C88_2 1_555 1_555
H76_2 C88_2 1_555 1_555
C89_2 N17_2 1_555 1_555
H77_2 C89_2 1_555 1_555
C90 N31_2 1_555 1_555
C91_2 N17_2 1_555 1_555
C92_2 C91_2 1_555 1_555
H78_2 C92_2 1_555 1_555
C93_2 C92_2 1_555 1_555
H79_2 C93_2 1_555 1_555
C94_2 C93_2 1_555 1_555
H80_2 C94_2 1_555 1_555
C95 C90 1_555 1_555
H81 C95 1_555 1_555
C96_2 C75_2 1_555 1_555
C97_2 C96_2 1_555 1_555
H82_2 C97_2 1_555 1_555
H83_2 C97_2 1_555 1_555
H84_2 C97_2 1_555 1_555
C99_2 C76_2 1_555 1_555
H89_2 C99_2 1_555 1_555
H90_2 C99_2 1_555 1_555
N21_2 C111_2 1_555 1_555
N27 C112_2 1_555 1_555
N23_2 C121_2 1_555 1_555
N32_2 C122_2 1_555 1_555
C101_2 N20_2 1_555 1_555
C106_2 C101_2 1_555 1_555
H95_2 C106_2 1_555 1_555
C107_2 N20_2 1_555 1_555
H96_2 C107_2 1_555 1_555
H97_2 C107_2 1_555 1_555
C108_2 C107_2 1_555 1_555
C109_2 C108_2 1_555 1_555
C110_2 C109_2 1_555 1_555
C111_2 C110_2 1_555 1_555
H98_2 C111_2 1_555 1_555
H99_2 C111_2 1_555 1_555
C112_2 N21_2 1_555 1_555
H100_2 C112_2 1_555 1_555
C114_2 N21_2 1_555 1_555
C115_2 C114_2 1_555 1_555
H101_2 C115_2 1_555 1_555
C119_2 C110_2 1_555 1_555
C120_2 C119_2 1_555 1_555
C121_2 C120_2 1_555 1_555
H105_2 C121_2 1_555 1_555
H106_2 C121_2 1_555 1_555
C122_2 N23_2 1_555 1_555
H107_2 C122_2 1_555 1_555
C124_2 N23_2 1_555 1_555
C129_2 C108_2 1_555 1_555
C130_2 C129_2 1_555 1_555
H112_2 C130_2 1_555 1_555
H113_2 C130_2 1_555 1_555
H114_2 C130_2 1_555 1_555
C131_2 C119_2 1_555 1_555
H115_2 C131_2 1_555 1_555
H116_2 C131_2 1_555 1_555
H117_2 C131_2 1_555 1_555
C132_2 C109_2 1_555 1_555
H119_2 C132_2 1_555 1_555
H120_2 C132_2 1_555 1_555
C68_2 C69_2 1_555 1_555
C72_2 C73_2 1_555 1_555
C87_2 C96_2 1_555 1_555
C90 C91_2 1_555 1_555
C94_2 C95 1_555 1_555
C120_2 C129_2 1_555 1_555
C95_2 C90_2 1_555 1_555
H81_2 C95_2 1_555 1_555
C29_2 C24_2 1_555 1_555
H21_2 C29_2 1_555 1_555

#END
