
###############################################################################
#
# This file contains modified crystal structure data generated from the
# MOF subset of the Cambridge Structural Database (CSD) v543 
# hosted by the Cambridge Crystallographic Data Centre (CCDC).
#
# This work is licensed under the Creative Commons
# Attribution-NonCommercial-ShareAlike 4.0 International License.
# To view a copy of this license, visit
# http://creativecommons.org/licenses/by-nc-sa/4.0/
# or send a letter to
# Creative Commons, PO Box 1866, Mountain View, CA 94042, USA.
#
# CIF created using the CSD Python API on 29 September 2022
# The structure has been converted into the P1 space group
# The structure has a 3D framework
# The original CSD entry ISENUQ is in the monoclinic crystal system
# The original CSD entry ISENUQ is in a Sohncke space group
# The framework has been calculated to contain at least 10.0% void space
# The void calculation uses a probe of radius 1.32A, grid spacing 0.4
#
###############################################################################

data_ISENUQ
_chemical_formula_moiety         '(C203 H136 Dy4 N20 Ni4 O36)n'
_symmetry_cell_setting           triclinic
_symmetry_space_group_name_H-M   'P 1'
_symmetry_Int_Tables_number      1
_space_group_name_Hall           'P 1'
loop_
_symmetry_equiv_pos_site_id
_symmetry_equiv_pos_as_xyz
1 x,y,z
_cell_length_a                   8.76020(10)
_cell_length_b                   27.8308(8)
_cell_length_c                   21.2201(6)
_cell_angle_alpha                90
_cell_angle_beta                 97.6801(15)
_cell_angle_gamma                90
_cell_volume                     5127.12
loop_
_atom_site_label
_atom_site_type_symbol
_atom_site_fract_x
_atom_site_fract_y
_atom_site_fract_z
O1 O 0.1852(6) 0.00010(19) 0.7817(3)
Dy6 Dy 0.23006(4) 0.078300(13) 0.748343(17)
H9 H 0.0465 0.8428 0.8143
C23 C 0.0517(9) 0.9138(3) 0.7899(4)
H10 H 0.1506 0.9204 0.8124
C27 C 0.0474(8) 0.9976(3) 0.7557(4)
C29 C 0.0148(8) 0.6901(4) 0.5316(4)
H13 H 0.0794 0.7087 0.5618
C30 C 0.0524(8) 0.6857(3) 0.4694(3)
H14 H 0.1401 0.7019 0.4580
C34 C 0.0025(8) 0.6534(3) 0.3597(4)
O3 O 0.1170(6) 0.6768(2) 0.3467(3)
Dy3 Dy 0.18551(4) 0.688528(13) 0.246220(17)
O22 O 0.0191(6) 0.5333(2) 0.2719(3)
C43 C 0.5754(8) 0.6732(3) 0.0105(4)
H22 H 0.6481 0.6493 0.0026
C44 C 0.5242(8) 0.6750(3) 0.0707(4)
H23 H 0.5592 0.6519 0.1024
C45 C 0.4232(8) 0.7104(3) 0.0832(3)
C46 C 0.3739(8) 0.7439(3) 0.0365(4)
H24 H 0.3077 0.7693 0.0454
C48 C 0.3558(8) 0.7087(3) 0.1449(4)
O7 O 0.3794(5) 0.67180(19) 0.1795(3)
O8 O 0.2677(6) 0.7419(2) 0.1593(3)
C78 C 0.0812(8) 0.6527(3) 0.0471(4)
H39 H 0.1327 0.6761 0.0749
O11 O 0.0113(6) 0.6556(2) 0.1719(3)
O17 O 0.3943(7) 0.7155(3) 0.3086(3)
C97 C 0.5135(10) 0.7405(4) 0.3187(5)
H51 H 0.5531 0.7545 0.2834
N9 N 0.5861(9) 0.7485(3) 0.3753(4)
C98 C 0.7284(13) 0.7785(5) 0.3840(7)
H52 H 0.6999 0.8126 0.3847
H53 H 0.7878 0.7727 0.3488
H54 H 0.7909 0.7701 0.4243
C99 C 0.5260(17) 0.7274(5) 0.4316(6)
H55 H 0.5870 0.6991 0.4461
H56 H 0.4181 0.7181 0.4198
H57 H 0.5334 0.7513 0.4658
O19 O 0.2430(6) 0.6050(2) 0.2615(3)
H65 H 0.3408 0.5987 0.2771
H66 H 0.1712 0.5819 0.2651
O24 O 0.0176(7) 0.7481(2) 0.2466(3)
C79 C 0.0330(8) 0.1230(3) 0.9317(4)
C80 C 0.1130(8) 0.0909(3) 0.9765(4)
H40 H 0.1918 0.0712 0.9636
C82 C 0.0560(8) 0.1237(3) 0.8638(4)
O12 O 0.1378(6) 0.0912(2) 0.8446(3)
H34 H 0.0451 0.9156 0.2909
H35 H 0.0798 0.8327 0.2861
Ni1 Ni 0.27561(10) 0.18611(4) 0.24013(4)
C1 C 0.3504(8) 0.2385(3) 0.1240(4)
C2 C 0.3221(8) 0.2830(3) 0.0928(4)
H1 H 0.3440 0.2908 0.0514
C3 C 0.2580(8) 0.3125(3) 0.1326(4)
H2 H 0.2260 0.3448 0.1244
C4 C 0.2480(8) 0.2860(3) 0.1889(4)
C5 C 0.2087(9) 0.3060(3) 0.2457(4)
C6 C 0.2150(9) 0.2800(3) 0.3009(4)
C7 C 0.1944(10) 0.2998(3) 0.3617(4)
H3 H 0.1876 0.3329 0.3719
C8 C 0.1867(10) 0.2622(3) 0.4016(4)
H4 H 0.1777 0.2639 0.4457
C9 C 0.1948(9) 0.2192(3) 0.3651(4)
C10 C 0.1566(8) 0.1739(3) 0.3851(4)
C11 C 0.1641(9) 0.1340(3) 0.3484(4)
C12 C 0.1128(9) 0.0871(3) 0.3624(4)
H5 H 0.0606 0.0792 0.3975
C13 C 0.1496(9) 0.0554(3) 0.3182(4)
H6 H 0.1293 0.0219 0.3165
C14 C 0.2253(8) 0.0831(4) 0.2749(4)
C15 C 0.3014(9) 0.0637(3) 0.2274(4)
C16 C 0.3699(8) 0.0928(3) 0.1855(4)
C17 C 0.4672(8) 0.0755(3) 0.1419(4)
H7 H 0.5021 0.0433 0.1389
C18 C 0.5011(8) 0.1127(3) 0.1060(3)
H8 H 0.5604 0.1115 0.0716
C19 C 0.4307(9) 0.1544(3) 0.1293(4)
C20 C 0.4222(8) 0.1994(3) 0.0987(4)
N1 N 0.2994(7) 0.2395(3) 0.1839(3)
N2 N 0.2207(7) 0.2300(3) 0.3038(3)
N3 N 0.2260(7) 0.1322(2) 0.2917(3)
N4 N 0.3554(7) 0.1422(3) 0.1803(3)
C21 C 0.1568(9) 0.3571(3) 0.2436(4)
C22 C 0.0102(8) 0.3675(3) 0.2094(4)
C24 C 0.0306(8) 0.4496(3) 0.2433(4)
C25 C 0.1724(10) 0.4410(3) 0.2740(5)
H11 H 0.2295 0.4664 0.2960
C26 C 0.2378(9) 0.3938(3) 0.2738(4)
H12 H 0.3387 0.3882 0.2949
C28 C 0.1129(8) 0.1681(3) 0.4502(4)
C31 C 0.0352(9) 0.1585(3) 0.5743(4)
C32 C 0.1592(10) 0.1345(4) 0.5569(4)
H15 H 0.2198 0.1147 0.5870
C33 C 0.1978(11) 0.1389(4) 0.4955(4)
H16 H 0.2836 0.1216 0.4843
O4 O 0.0794(6) 0.1261(2) 0.6783(3)
C35 C 0.3087(8) 0.0103(3) 0.2230(4)
H17 H 0.1886 0.0041 0.1373
C42 C 0.4770(8) 0.2050(3) 0.0369(4)
C47 C 0.5792(8) 0.2405(3) 0.0230(4)
H25 H 0.6175 0.2629 0.0551
Ni2 Ni 0.77740(11) 0.09199(3) 0.26348(5)
C49 C 0.7019(9) 0.0360(3) 0.3755(4)
C56 C 0.8628(9) 0.0216(3) 0.0971(4)
H29 H 0.8775 0.0215 0.0536
C57 C 0.8664(8) 0.0632(3) 0.1374(4)
C58 C 0.9106(9) 0.1087(3) 0.1212(4)
C59 C 0.8987(8) 0.1484(3) 0.1596(4)
C60 C 0.9451(8) 0.1963(3) 0.1465(4)
C61 C 0.8948(8) 0.2247(3) 0.1887(4)
H31 H 0.9066 0.2586 0.1910
C62 C 0.8198(9) 0.1957(3) 0.2302(4)
C63 C 0.7413(8) 0.2135(3) 0.2783(4)
C64 C 0.6791(7) 0.1832(4) 0.3194(4)
C65 C 0.5891(8) 0.2005(3) 0.3688(4)
H32 H 0.5563 0.2326 0.3744
C66 C 0.5622(8) 0.1622(3) 0.4046(4)
H33 H 0.5072 0.1621 0.4403
C67 C 0.6334(9) 0.1210(3) 0.3784(4)
C68 C 0.6380(7) 0.0760(3) 0.4046(3)
N5 N 0.7463(8) 0.0373(2) 0.3163(3)
N6 N 0.8322(7) 0.0493(3) 0.1973(3)
N7 N 0.8281(7) 0.1476(2) 0.2149(3)
N8 N 0.6998(7) 0.1337(3) 0.3250(3)
C76 C 0.9611(8) 0.1154(3) 0.0572(3)
C77 C 0.8822(8) 0.1477(3) 0.0142(4)
H38 H 0.8017 0.1666 0.0272
C83 C 0.7227(9) 0.2661(3) 0.2834(4)
C84 C 0.7969(9) 0.2900(3) 0.3384(4)
H42 H 0.8576 0.2722 0.3708
C85 C 0.7799(9) 0.3403(3) 0.3446(4)
H43 H 0.8319 0.3565 0.3806
C86 C 0.6878(9) 0.3658(3) 0.2983(4)
C87 C 0.6148(8) 0.3424(3) 0.2443(4)
H44 H 0.5513 0.3600 0.2126
C88 C 0.6359(9) 0.2925(3) 0.2371(4)
H45 H 0.5891 0.2770 0.1996
C89 C 0.6600(9) 0.4174(3) 0.3066(4)
O13 O 0.5630(7) 0.4397(2) 0.2716(3)
O14 O 0.7488(7) 0.4381(2) 0.3534(3)
H46 H 0.7394 0.4711 0.3519
C90 C 0.5822(8) 0.0692(3) 0.4675(4)
C91 C 0.6476(9) 0.0961(3) 0.5223(4)
H47 H 0.7298 0.1179 0.5190
C92 C 0.5930(8) 0.0908(3) 0.5789(4)
H48 H 0.6371 0.1094 0.6142
C93 C 0.4737(8) 0.0588(3) 0.5868(4)
C94 C 0.4120(8) 0.0308(3) 0.5339(4)
H49 H 0.3323 0.0085 0.5385
C95 C 0.4653(8) 0.0353(3) 0.4750(4)
H50 H 0.4235 0.0157 0.4403
C96 C 0.4007(9) 0.0583(3) 0.6465(4)
O15 O 0.4534(5) 0.0864(2) 0.6901(2)
O16 O 0.2813(6) 0.0332(2) 0.6512(3)
O18 O 0.4514(6) 0.0574(2) 0.8196(3)
C100 C 0.5008(9) 0.0174(4) 0.8347(5)
N10 N 0.6367(7) 0.0086(3) 0.8700(4)
C101 C 0.7440(11) 0.0477(4) 0.8886(5)
H59 H 0.7526 0.0525 0.9347
H60 H 0.7062 0.0772 0.8667
H61 H 0.8454 0.0396 0.8769
O20 O 0.3248(6) 0.1540(2) 0.7734(3)
H67 H 0.4242 0.1605 0.7893
H68 H 0.2934 0.1850 0.7784
C36 C 0.2418(9) 0.9862(3) 0.1715(5)
C37 C 0.2467(11) 0.9378(3) 0.1659(5)
H18 H 0.1975 0.9221 0.1289
C38 C 0.3245(9) 0.9117(3) 0.2152(4)
C39 C 0.3921(10) 0.9349(3) 0.2667(5)
H19 H 0.4459 0.9169 0.3006
C40 C 0.3862(8) 0.9839(3) 0.2721(4)
H20 H 0.4350 0.9995 0.3092
C41 C 0.3328(10) 0.8572(4) 0.2130(4)
O5 O 0.2773(7) 0.8380(2) 0.1578(3)
H21 H 0.2741 0.8050 0.1587
O6 O 0.3848(7) 0.8326(2) 0.2593(3)
C50 C 0.7142(9) 0.9893(3) 0.4027(4)
H26 H 0.6901 0.9804 0.4434
C51 C 0.7667(9) 0.9600(3) 0.3598(4)
H27 H 0.7891 0.9267 0.3645
C52 C 0.7819(8) 0.9896(3) 0.3055(4)
C53 C 0.8121(8) 0.9712(3) 0.2474(4)
C54 C 0.8208(9) 0.9998(3) 0.1949(4)
C55 C 0.8349(9) 0.9823(3) 0.1321(4)
H28 H 0.8263 0.9499 0.1180
C69 C 0.8331(9) 0.9170(3) 0.2429(4)
C70 C 0.9655(9) 0.8962(3) 0.2695(4)
C71 C 0.9876(11) 0.8472(4) 0.2661(5)
C72 C 0.8682(9) 0.8188(3) 0.2319(5)
C73 C 0.7331(10) 0.8403(3) 0.2034(5)
H36 H 0.6525 0.8214 0.1814
C74 C 0.7183(10) 0.8895(3) 0.2076(4)
H37 H 0.6291 0.9048 0.1864
C75 C 0.8860(12) 0.7640(3) 0.2306(5)
O9 O 0.7653(8) 0.7416(2) 0.2113(4)
H58 H 0.4384 0.9906 0.8205
C102 C 0.6888(11) 0.9593(4) 0.8853(5)
H62 H 0.6035 0.9369 0.8734
H63 H 0.7235 0.9568 0.9310
H64 H 0.7743 0.9514 0.8617
O2 O 0.9809(6) 0.0333(2) 0.7281(3)
Dy2 Dy 0.76994(4) 0.578300(13) 0.251657(17)
Ni1_2 Ni 0.72439(10) 0.68611(4) 0.75987(4)
C1_2 C 0.6496(8) 0.7385(3) 0.8760(4)
C2_2 C 0.6779(8) 0.7830(3) 0.9072(4)
H1_2 H 0.6560 0.7908 0.9486
C3_2 C 0.7420(8) 0.8125(3) 0.8674(4)
H2_2 H 0.7740 0.8448 0.8756
C4_2 C 0.7520(8) 0.7860(3) 0.8111(4)
C5_2 C 0.7913(9) 0.8060(3) 0.7543(4)
C6_2 C 0.7850(9) 0.7800(3) 0.6991(4)
C7_2 C 0.8056(10) 0.7998(3) 0.6383(4)
H3_2 H 0.8124 0.8329 0.6281
C8_2 C 0.8133(10) 0.7622(3) 0.5984(4)
H4_2 H 0.8223 0.7639 0.5543
C9_2 C 0.8052(9) 0.7192(3) 0.6349(4)
C10_2 C 0.8434(8) 0.6739(3) 0.6149(4)
C11_2 C 0.8359(9) 0.6340(3) 0.6516(4)
C12_2 C 0.8872(9) 0.5871(3) 0.6376(4)
H5_2 H 0.9394 0.5792 0.6025
C13_2 C 0.8504(9) 0.5554(3) 0.6818(4)
H6_2 H 0.8707 0.5219 0.6835
C14_2 C 0.7747(8) 0.5831(4) 0.7251(4)
C15_2 C 0.6986(9) 0.5637(3) 0.7726(4)
C16_2 C 0.6301(8) 0.5928(3) 0.8145(4)
C17_2 C 0.5328(8) 0.5755(3) 0.8581(4)
H7_2 H 0.4979 0.5433 0.8611
C18_2 C 0.4989(8) 0.6127(3) 0.8940(3)
H8_2 H 0.4396 0.6115 0.9284
C19_2 C 0.5693(9) 0.6544(3) 0.8707(4)
C20_2 C 0.5778(8) 0.6994(3) 0.9013(4)
N1_2 N 0.7006(7) 0.7395(3) 0.8161(3)
N2_2 N 0.7793(7) 0.7300(3) 0.6962(3)
N3_2 N 0.7740(7) 0.6322(2) 0.7083(3)
N4_2 N 0.6446(7) 0.6422(3) 0.8197(3)
C21_2 C 0.8432(9) 0.8571(3) 0.7564(4)
C22_2 C 0.9898(8) 0.8675(3) 0.7906(4)
C24_2 C 0.9694(8) 0.9496(3) 0.7567(4)
C25_2 C 0.8276(10) 0.9410(3) 0.7260(5)
H11_2 H 0.7705 0.9664 0.7040
C26_2 C 0.7622(9) 0.8938(3) 0.7262(4)
H12_2 H 0.6613 0.8882 0.7051
C28_2 C 0.8871(8) 0.6681(3) 0.5498(4)
C31_2 C 0.9648(9) 0.6585(3) 0.4257(4)
C32_2 C 0.8408(10) 0.6345(4) 0.4431(4)
H15_2 H 0.7802 0.6147 0.4130
C33_2 C 0.8022(11) 0.6389(4) 0.5045(4)
H16_2 H 0.7164 0.6216 0.5157
O4_2 O 0.9206(6) 0.6261(2) 0.3217(3)
C35_2 C 0.6913(8) 0.5103(3) 0.7770(4)
C36_2 C 0.7582(9) 0.4862(3) 0.8285(5)
H17_2 H 0.8114 0.5041 0.8627
C37_2 C 0.7533(11) 0.4378(3) 0.8341(5)
H18_2 H 0.8025 0.4221 0.8711
C38_2 C 0.6755(9) 0.4117(3) 0.7848(4)
C39_2 C 0.6079(10) 0.4349(3) 0.7333(5)
H19_2 H 0.5541 0.4169 0.6994
C40_2 C 0.6138(8) 0.4839(3) 0.7279(4)
H20_2 H 0.5650 0.4995 0.6908
C41_2 C 0.6672(10) 0.3572(4) 0.7870(4)
O5_2 O 0.7227(7) 0.3380(2) 0.8422(3)
H21_2 H 0.7259 0.3050 0.8413
O6_2 O 0.6152(7) 0.3326(2) 0.7407(3)
C42_2 C 0.5230(8) 0.7050(3) 0.9631(4)
C47_2 C 0.4208(8) 0.7405(3) 0.9770(4)
H25_2 H 0.3825 0.7629 0.9449
Ni2_2 Ni 0.22260(11) 0.59199(3) 0.73652(5)
C49_2 C 0.2981(9) 0.5360(3) 0.6245(4)
C50_2 C 0.2858(9) 0.4893(3) 0.5973(4)
H26_2 H 0.3099 0.4804 0.5566
C51_2 C 0.2333(9) 0.4600(3) 0.6402(4)
H27_2 H 0.2109 0.4267 0.6355
C52_2 C 0.2181(8) 0.4896(3) 0.6945(4)
C53_2 C 0.1879(8) 0.4712(3) 0.7526(4)
C54_2 C 0.1792(9) 0.4998(3) 0.8051(4)
C55_2 C 0.1651(9) 0.4823(3) 0.8679(4)
H28_2 H 0.1737 0.4499 0.8820
C56_2 C 0.1372(9) 0.5216(3) 0.9029(4)
H29_2 H 0.1225 0.5215 0.9464
C57_2 C 0.1336(8) 0.5632(3) 0.8626(4)
C58_2 C 0.0894(9) 0.6087(3) 0.8788(4)
C59_2 C 0.1013(8) 0.6484(3) 0.8404(4)
C60_2 C 0.0549(8) 0.6963(3) 0.8535(4)
C61_2 C 0.1052(8) 0.7247(3) 0.8113(4)
H31_2 H 0.0934 0.7586 0.8090
C62_2 C 0.1802(9) 0.6957(3) 0.7698(4)
C63_2 C 0.2587(8) 0.7135(3) 0.7217(4)
C64_2 C 0.3209(7) 0.6832(4) 0.6806(4)
C65_2 C 0.4109(8) 0.7005(3) 0.6312(4)
H32_2 H 0.4437 0.7326 0.6256
C66_2 C 0.4378(8) 0.6622(3) 0.5954(4)
H33_2 H 0.4928 0.6621 0.5597
C67_2 C 0.3666(9) 0.6210(3) 0.6216(4)
C68_2 C 0.3620(7) 0.5760(3) 0.5954(3)
N5_2 N 0.2537(8) 0.5373(2) 0.6837(3)
N6_2 N 0.1678(7) 0.5493(3) 0.8027(3)
N7_2 N 0.1719(7) 0.6476(2) 0.7851(3)
N8_2 N 0.3002(7) 0.6337(3) 0.6750(3)
C69_2 C 0.1669(9) 0.4170(3) 0.7571(4)
C70_2 C 0.0345(9) 0.3962(3) 0.7305(4)
C71_2 C 0.0124(11) 0.3472(4) 0.7339(5)
C72_2 C 0.1318(9) 0.3188(3) 0.7681(5)
C73_2 C 0.2669(10) 0.3403(3) 0.7966(5)
H36_2 H 0.3475 0.3214 0.8186
C74_2 C 0.2817(10) 0.3895(3) 0.7924(4)
H37_2 H 0.3709 0.4048 0.8136
C75_2 C 0.1140(12) 0.2640(3) 0.7694(5)
O9_2 O 0.2347(8) 0.2416(2) 0.7887(4)
C76_2 C 0.0389(8) 0.6154(3) 0.9428(3)
C77_2 C 0.1178(8) 0.6477(3) 0.9858(4)
H38_2 H 0.1983 0.6666 0.9728
C83_2 C 0.2773(9) 0.7661(3) 0.7166(4)
C84_2 C 0.2031(9) 0.7900(3) 0.6616(4)
H42_2 H 0.1424 0.7722 0.6292
C85_2 C 0.2201(9) 0.8403(3) 0.6554(4)
H43_2 H 0.1681 0.8565 0.6194
C86_2 C 0.3122(9) 0.8658(3) 0.7017(4)
C87_2 C 0.3852(8) 0.8424(3) 0.7557(4)
H44_2 H 0.4487 0.8600 0.7874
C88_2 C 0.3641(9) 0.7925(3) 0.7629(4)
H45_2 H 0.4109 0.7770 0.8004
C89_2 C 0.3400(9) 0.9174(3) 0.6934(4)
O13_2 O 0.4370(7) 0.9397(2) 0.7284(3)
O14_2 O 0.2512(7) 0.9381(2) 0.6466(3)
H46_2 H 0.2606 0.9711 0.6481
C90_2 C 0.4178(8) 0.5692(3) 0.5325(4)
C91_2 C 0.3524(9) 0.5961(3) 0.4777(4)
H47_2 H 0.2702 0.6179 0.4810
C92_2 C 0.4070(8) 0.5908(3) 0.4211(4)
H48_2 H 0.3629 0.6094 0.3858
C93_2 C 0.5263(8) 0.5588(3) 0.4132(4)
C94_2 C 0.5880(8) 0.5308(3) 0.4661(4)
H49_2 H 0.6677 0.5085 0.4615
C95_2 C 0.5347(8) 0.5353(3) 0.5250(4)
H50_2 H 0.5765 0.5157 0.5597
C96_2 C 0.5993(9) 0.5583(3) 0.3535(4)
O15_2 O 0.5466(5) 0.5864(2) 0.3099(2)
O16_2 O 0.7187(6) 0.5332(2) 0.3488(3)
O18_2 O 0.5486(6) 0.5574(2) 0.1804(3)
C100_2 C 0.4992(9) 0.5174(4) 0.1653(5)
H58_2 H 0.5616 0.4906 0.1795
N10_2 N 0.3633(7) 0.5086(3) 0.1300(4)
C101_2 C 0.2560(11) 0.5477(4) 0.1114(5)
H59_2 H 0.2474 0.5525 0.0653
H60_2 H 0.2938 0.5772 0.1333
H61_2 H 0.1546 0.5396 0.1231
C102_2 C 0.3112(11) 0.4593(4) 0.1147(5)
H62_2 H 0.3965 0.4369 0.1266
H63_2 H 0.2765 0.4568 0.0690
H64_2 H 0.2257 0.4514 0.1383
O20_2 O 0.6752(6) 0.6540(2) 0.2266(3)
H67_2 H 0.5758 0.6605 0.2107
H68_2 H 0.7066 0.6850 0.2216
C103 C 0.9526(8) 0.4976(3) 0.2443(4)
O21 O 0.8148(6) 0.50010(19) 0.2183(3)
O25 O 0.8622(6) 0.5912(2) 0.1554(3)
C79_2 C 0.9670(8) 0.6230(3) 0.0683(4)
C80_2 C 0.8870(8) 0.5909(3) 0.0235(4)
H40_2 H 0.8082 0.5712 0.0364
C82_2 C 0.9440(8) 0.6237(3) 0.1362(4)
H30 H 0.9982 0.7057 0.8866
H34_2 H 0.9549 0.4156 0.7091
H35_2 H 0.9202 0.3327 0.7139
O10 O 0.9824(7) 0.2481(2) 0.7534(3)
C81 C 0.9194(8) 0.5872(3) 0.9626(4)
H41 H 0.8620 0.5659 0.9335
Dy4 Dy 0.81449(4) 0.188528(13) 0.753780(17)
C43_2 C 0.4246(8) 0.1732(3) 0.9895(4)
H22_2 H 0.3519 0.1493 0.9974
C44_2 C 0.4758(8) 0.1750(3) 0.9293(4)
H23_2 H 0.4408 0.1519 0.8976
C45_2 C 0.5768(8) 0.2104(3) 0.9168(3)
C46_2 C 0.6261(8) 0.2439(3) 0.9635(4)
H24_2 H 0.6923 0.2693 0.9546
C48_2 C 0.6442(8) 0.2087(3) 0.8551(4)
O7_2 O 0.6206(5) 0.17180(19) 0.8205(3)
O8_2 O 0.7323(6) 0.2419(2) 0.8407(3)
C78_2 C 0.9188(8) 0.1527(3) 0.9529(4)
H39_2 H 0.8673 0.1761 0.9251
O11_2 O 0.9887(6) 0.1556(2) 0.8281(3)
O17_2 O 0.6057(7) 0.2155(3) 0.6914(3)
C97_2 C 0.4865(10) 0.2405(4) 0.6813(5)
H51_2 H 0.4469 0.2545 0.7166
N9_2 N 0.4139(9) 0.2485(3) 0.6247(4)
C98_2 C 0.2716(13) 0.2785(5) 0.6160(7)
H52_2 H 0.3001 0.3126 0.6153
H53_2 H 0.2122 0.2727 0.6512
H54_2 H 0.2091 0.2701 0.5757
C99_2 C 0.4740(17) 0.2274(5) 0.5684(6)
H55_2 H 0.4130 0.1991 0.5539
H56_2 H 0.5819 0.2181 0.5802
H57_2 H 0.4666 0.2513 0.5342
O19_2 O 0.7570(6) 0.1050(2) 0.7385(3)
H65_2 H 0.6592 0.0987 0.7229
H66_2 H 0.8288 0.0819 0.7349
O23 O 0.8830(6) 0.1768(2) 0.6533(3)
H9_2 H 0.9535 0.3428 0.1857
C23_2 C 0.9483(9) 0.4138(3) 0.2101(4)
H10_2 H 0.8494 0.4204 0.1876
C29_2 C 0.9852(8) 0.1901(4) 0.4684(4)
H13_2 H 0.9206 0.2087 0.4382
C30_2 C 0.9476(8) 0.1857(3) 0.5306(3)
H14_2 H 0.8599 0.2019 0.5420
C34_2 C 0.9975(8) 0.1534(3) 0.6403(4)
H30_2 H 0.0018 0.2057 0.1134
C81_2 C 0.0806(8) 0.0872(3) 0.0374(4)
H41_2 H 0.1380 0.0659 0.0665
loop_
_geom_bond_atom_site_label_1
_geom_bond_atom_site_label_2
_geom_bond_site_symmetry_1
_geom_bond_site_symmetry_2
Dy6 O1 1_555 1_555
H10 C23 1_555 1_555
H13 C29 1_555 1_555
C30 C29 1_555 1_555
H14 C30 1_555 1_555
O3 C34 1_555 1_555
Dy3 O3 1_555 1_555
Dy3 O7 1_555 1_555
H22 C43 1_555 1_555
C44 C43 1_555 1_555
H23 C44 1_555 1_555
C45 C44 1_555 1_555
C46 C45 1_555 1_555
H24 C46 1_555 1_555
C48 C45 1_555 1_555
O7 C48 1_555 1_555
O8 Dy3 1_555 1_555
H39 C78 1_555 1_555
O11 Dy3 1_555 1_555
O17 Dy3 1_555 1_555
C97 O17 1_555 1_555
H51 C97 1_555 1_555
N9 C97 1_555 1_555
C98 N9 1_555 1_555
H52 C98 1_555 1_555
H53 C98 1_555 1_555
H54 C98 1_555 1_555
C99 N9 1_555 1_555
H55 C99 1_555 1_555
H56 C99 1_555 1_555
H57 C99 1_555 1_555
O19 Dy3 1_555 1_555
H65 O19 1_555 1_555
H66 O19 1_555 1_555
O24 Dy3 1_555 1_555
C48 O8 1_555 1_555
C80 C79 1_555 1_555
H40 C80 1_555 1_555
C82 C79 1_555 1_555
O12 C82 1_555 1_555
Dy6 O12 1_555 1_555
Dy6 O4 1_555 1_555
Ni1 N1 1_555 1_555
C1 C2 1_555 1_555
C2 H1 1_555 1_555
C3 C2 1_555 1_555
H2 C3 1_555 1_555
C4 C3 1_555 1_555
C5 C4 1_555 1_555
C6 C5 1_555 1_555
C7 C6 1_555 1_555
H3 C7 1_555 1_555
C8 C7 1_555 1_555
H4 C8 1_555 1_555
C9 C8 1_555 1_555
C10 C9 1_555 1_555
C11 C10 1_555 1_555
C12 C11 1_555 1_555
H5 C12 1_555 1_555
C13 C12 1_555 1_555
H6 C13 1_555 1_555
C14 C13 1_555 1_555
C15 C14 1_555 1_555
C16 C15 1_555 1_555
C17 C16 1_555 1_555
H7 C17 1_555 1_555
C18 C17 1_555 1_555
H8 C18 1_555 1_555
C19 C18 1_555 1_555
C20 C1 1_555 1_555
N1 C1 1_555 1_555
N2 Ni1 1_555 1_555
N3 Ni1 1_555 1_555
N4 Ni1 1_555 1_555
C21 C5 1_555 1_555
C22 C21 1_555 1_555
C25 C24 1_555 1_555
H11 C25 1_555 1_555
C26 C21 1_555 1_555
H12 C26 1_555 1_555
C28 C10 1_555 1_555
C32 C31 1_555 1_555
H15 C32 1_555 1_555
C33 C28 1_555 1_555
H16 C33 1_555 1_555
C35 C15 1_555 1_555
C42 C20 1_555 1_555
C47 C42 1_555 1_555
H25 C47 1_555 1_555
Ni2 N5 1_555 1_555
H29 C56 1_555 1_555
C57 C56 1_555 1_555
C58 C57 1_555 1_555
C59 C58 1_555 1_555
C60 C59 1_555 1_555
C61 C60 1_555 1_555
H31 C61 1_555 1_555
C62 C61 1_555 1_555
C63 C62 1_555 1_555
C64 C63 1_555 1_555
C65 C64 1_555 1_555
H32 C65 1_555 1_555
C66 C65 1_555 1_555
H33 C66 1_555 1_555
C67 C66 1_555 1_555
C68 C49 1_555 1_555
N5 C49 1_555 1_555
N6 Ni2 1_555 1_555
N7 Ni2 1_555 1_555
N8 Ni2 1_555 1_555
C76 C58 1_555 1_555
C77 C76 1_555 1_555
H38 C77 1_555 1_555
C83 C63 1_555 1_555
C84 C83 1_555 1_555
H42 C84 1_555 1_555
C85 C84 1_555 1_555
H43 C85 1_555 1_555
C86 C85 1_555 1_555
C87 C86 1_555 1_555
H44 C87 1_555 1_555
C88 C83 1_555 1_555
H45 C88 1_555 1_555
C89 C86 1_555 1_555
O13 C89 1_555 1_555
O14 C89 1_555 1_555
H46 O14 1_555 1_555
C90 C68 1_555 1_555
C91 C90 1_555 1_555
H47 C91 1_555 1_555
C92 C91 1_555 1_555
H48 C92 1_555 1_555
C93 C92 1_555 1_555
C94 C93 1_555 1_555
H49 C94 1_555 1_555
C95 C90 1_555 1_555
H50 C95 1_555 1_555
C96 C93 1_555 1_555
O15 Dy6 1_555 1_555
O16 Dy6 1_555 1_555
O18 Dy6 1_555 1_555
C100 O18 1_555 1_555
N10 C100 1_555 1_555
C101 N10 1_555 1_555
H59 C101 1_555 1_555
H60 C101 1_555 1_555
H61 C101 1_555 1_555
O20 Dy6 1_555 1_555
H67 O20 1_555 1_555
H68 O20 1_555 1_555
C4 N1 1_555 1_555
C6 N2 1_555 1_555
C9 N2 1_555 1_555
C11 N3 1_555 1_555
C14 N3 1_555 1_555
C16 N4 1_555 1_555
C19 C20 1_555 1_555
C19 N4 1_555 1_555
C25 C26 1_555 1_555
C32 C33 1_555 1_555
C57 N6 1_555 1_555
C59 N7 1_555 1_555
C62 N7 1_555 1_555
C64 N8 1_555 1_555
C67 C68 1_555 1_555
C67 N8 1_555 1_555
C87 C88 1_555 1_555
C94 C95 1_555 1_555
C96 O15 1_555 1_555
C96 O16 1_555 1_555
C37 C36 1_555 1_555
H18 C37 1_555 1_555
C38 C37 1_555 1_555
C39 C38 1_555 1_555
H19 C39 1_555 1_555
H20 C40 1_555 1_555
C41 C38 1_555 1_555
O5 C41 1_555 1_555
H21 O5 1_555 1_555
O6 C41 1_555 1_555
C50 H26 1_555 1_555
C51 C50 1_555 1_555
H27 C51 1_555 1_555
C52 C51 1_555 1_555
C53 C52 1_555 1_555
C54 C53 1_555 1_555
C55 C54 1_555 1_555
H28 C55 1_555 1_555
C69 C53 1_555 1_555
C70 C69 1_555 1_555
C71 C70 1_555 1_555
C72 C71 1_555 1_555
C73 C72 1_555 1_555
H36 C73 1_555 1_555
C74 C69 1_555 1_555
H37 C74 1_555 1_555
C75 C72 1_555 1_555
O9 C75 1_555 1_555
H62 C102 1_555 1_555
H63 C102 1_555 1_555
H64 C102 1_555 1_555
C39 C40 1_555 1_555
C73 C74 1_555 1_555
Dy2 O4_2 1_555 1_555
Ni1_2 N1_2 1_555 1_555
C1_2 C2_2 1_555 1_555
C2_2 H1_2 1_555 1_555
C3_2 C2_2 1_555 1_555
H2_2 C3_2 1_555 1_555
C4_2 C3_2 1_555 1_555
C5_2 C4_2 1_555 1_555
C6_2 C5_2 1_555 1_555
C7_2 C6_2 1_555 1_555
H3_2 C7_2 1_555 1_555
C8_2 C7_2 1_555 1_555
H4_2 C8_2 1_555 1_555
C9_2 C8_2 1_555 1_555
C10_2 C9_2 1_555 1_555
C11_2 C10_2 1_555 1_555
C12_2 C11_2 1_555 1_555
H5_2 C12_2 1_555 1_555
C13_2 C12_2 1_555 1_555
H6_2 C13_2 1_555 1_555
C14_2 C13_2 1_555 1_555
C15_2 C14_2 1_555 1_555
C16_2 C15_2 1_555 1_555
C17_2 C16_2 1_555 1_555
H7_2 C17_2 1_555 1_555
C18_2 C17_2 1_555 1_555
H8_2 C18_2 1_555 1_555
C19_2 C18_2 1_555 1_555
C20_2 C1_2 1_555 1_555
N1_2 C1_2 1_555 1_555
N2_2 Ni1_2 1_555 1_555
N3_2 Ni1_2 1_555 1_555
N4_2 Ni1_2 1_555 1_555
C21_2 C5_2 1_555 1_555
C22_2 C21_2 1_555 1_555
C25_2 C24_2 1_555 1_555
H11_2 C25_2 1_555 1_555
C26_2 C21_2 1_555 1_555
H12_2 C26_2 1_555 1_555
C28_2 C10_2 1_555 1_555
C32_2 C31_2 1_555 1_555
H15_2 C32_2 1_555 1_555
C33_2 C28_2 1_555 1_555
H16_2 C33_2 1_555 1_555
C35_2 C15_2 1_555 1_555
C36_2 C35_2 1_555 1_555
H17_2 C36_2 1_555 1_555
C37_2 C36_2 1_555 1_555
H18_2 C37_2 1_555 1_555
C38_2 C37_2 1_555 1_555
C39_2 C38_2 1_555 1_555
H19_2 C39_2 1_555 1_555
C40_2 C35_2 1_555 1_555
H20_2 C40_2 1_555 1_555
C41_2 C38_2 1_555 1_555
O5_2 C41_2 1_555 1_555
H21_2 O5_2 1_555 1_555
O6_2 C41_2 1_555 1_555
C42_2 C20_2 1_555 1_555
C47_2 C42_2 1_555 1_555
H25_2 C47_2 1_555 1_555
Ni2_2 N5_2 1_555 1_555
C49_2 C50_2 1_555 1_555
C50_2 H26_2 1_555 1_555
C51_2 C50_2 1_555 1_555
H27_2 C51_2 1_555 1_555
C52_2 C51_2 1_555 1_555
C53_2 C52_2 1_555 1_555
C54_2 C53_2 1_555 1_555
C55_2 C54_2 1_555 1_555
H28_2 C55_2 1_555 1_555
C56_2 C55_2 1_555 1_555
H29_2 C56_2 1_555 1_555
C57_2 C56_2 1_555 1_555
C58_2 C57_2 1_555 1_555
C59_2 C58_2 1_555 1_555
C60_2 C59_2 1_555 1_555
C61_2 C60_2 1_555 1_555
H31_2 C61_2 1_555 1_555
C62_2 C61_2 1_555 1_555
C63_2 C62_2 1_555 1_555
C64_2 C63_2 1_555 1_555
C65_2 C64_2 1_555 1_555
H32_2 C65_2 1_555 1_555
C66_2 C65_2 1_555 1_555
H33_2 C66_2 1_555 1_555
C67_2 C66_2 1_555 1_555
C68_2 C49_2 1_555 1_555
N5_2 C49_2 1_555 1_555
N6_2 Ni2_2 1_555 1_555
N7_2 Ni2_2 1_555 1_555
N8_2 Ni2_2 1_555 1_555
C69_2 C53_2 1_555 1_555
C70_2 C69_2 1_555 1_555
C71_2 C70_2 1_555 1_555
C72_2 C71_2 1_555 1_555
C73_2 C72_2 1_555 1_555
H36_2 C73_2 1_555 1_555
C74_2 C69_2 1_555 1_555
H37_2 C74_2 1_555 1_555
C75_2 C72_2 1_555 1_555
O9_2 C75_2 1_555 1_555
C76_2 C58_2 1_555 1_555
C77_2 C76_2 1_555 1_555
H38_2 C77_2 1_555 1_555
C83_2 C63_2 1_555 1_555
C84_2 C83_2 1_555 1_555
H42_2 C84_2 1_555 1_555
C85_2 C84_2 1_555 1_555
H43_2 C85_2 1_555 1_555
C86_2 C85_2 1_555 1_555
C87_2 C86_2 1_555 1_555
H44_2 C87_2 1_555 1_555
C88_2 C83_2 1_555 1_555
H45_2 C88_2 1_555 1_555
C89_2 C86_2 1_555 1_555
O13_2 C89_2 1_555 1_555
O14_2 C89_2 1_555 1_555
H46_2 O14_2 1_555 1_555
C90_2 C68_2 1_555 1_555
C91_2 C90_2 1_555 1_555
H47_2 C91_2 1_555 1_555
C92_2 C91_2 1_555 1_555
H48_2 C92_2 1_555 1_555
C93_2 C92_2 1_555 1_555
C94_2 C93_2 1_555 1_555
H49_2 C94_2 1_555 1_555
C95_2 C90_2 1_555 1_555
H50_2 C95_2 1_555 1_555
C96_2 C93_2 1_555 1_555
O15_2 Dy2 1_555 1_555
O16_2 Dy2 1_555 1_555
O18_2 Dy2 1_555 1_555
C100_2 O18_2 1_555 1_555
H58_2 C100_2 1_555 1_555
N10_2 C100_2 1_555 1_555
C101_2 N10_2 1_555 1_555
H59_2 C101_2 1_555 1_555
H60_2 C101_2 1_555 1_555
H61_2 C101_2 1_555 1_555
C102_2 N10_2 1_555 1_555
H62_2 C102_2 1_555 1_555
H63_2 C102_2 1_555 1_555
H64_2 C102_2 1_555 1_555
O20_2 Dy2 1_555 1_555
H67_2 O20_2 1_555 1_555
H68_2 O20_2 1_555 1_555
C103 O21 1_555 1_555
O21 Dy2 1_555 1_555
O25 Dy2 1_555 1_555
C4_2 N1_2 1_555 1_555
C6_2 N2_2 1_555 1_555
C9_2 N2_2 1_555 1_555
C11_2 N3_2 1_555 1_555
C14_2 N3_2 1_555 1_555
C16_2 N4_2 1_555 1_555
C19_2 C20_2 1_555 1_555
C19_2 N4_2 1_555 1_555
C25_2 C26_2 1_555 1_555
C32_2 C33_2 1_555 1_555
C39_2 C40_2 1_555 1_555
C52_2 N5_2 1_555 1_555
C54_2 N6_2 1_555 1_555
C57_2 N6_2 1_555 1_555
C59_2 N7_2 1_555 1_555
C62_2 N7_2 1_555 1_555
C64_2 N8_2 1_555 1_555
C67_2 C68_2 1_555 1_555
C67_2 N8_2 1_555 1_555
C73_2 C74_2 1_555 1_555
C87_2 C88_2 1_555 1_555
C94_2 C95_2 1_555 1_555
C96_2 O15_2 1_555 1_555
C96_2 O16_2 1_555 1_555
C80_2 C79_2 1_555 1_555
H40_2 C80_2 1_555 1_555
C82_2 C79_2 1_555 1_555
O25 C82_2 1_555 1_555
H41 C81 1_555 1_555
Dy4 O10 1_555 1_555
Dy4 O7_2 1_555 1_555
H22_2 C43_2 1_555 1_555
C44_2 C43_2 1_555 1_555
H23_2 C44_2 1_555 1_555
C45_2 C44_2 1_555 1_555
C46_2 C45_2 1_555 1_555
H24_2 C46_2 1_555 1_555
C48_2 C45_2 1_555 1_555
O7_2 C48_2 1_555 1_555
O8_2 Dy4 1_555 1_555
H39_2 C78_2 1_555 1_555
O11_2 Dy4 1_555 1_555
O17_2 Dy4 1_555 1_555
C97_2 O17_2 1_555 1_555
H51_2 C97_2 1_555 1_555
N9_2 C97_2 1_555 1_555
C98_2 N9_2 1_555 1_555
H52_2 C98_2 1_555 1_555
H53_2 C98_2 1_555 1_555
H54_2 C98_2 1_555 1_555
C99_2 N9_2 1_555 1_555
H55_2 C99_2 1_555 1_555
H56_2 C99_2 1_555 1_555
H57_2 C99_2 1_555 1_555
O19_2 Dy4 1_555 1_555
H65_2 O19_2 1_555 1_555
H66_2 O19_2 1_555 1_555
O23 Dy4 1_555 1_555
C48_2 O8_2 1_555 1_555
H10_2 C23_2 1_555 1_555
H13_2 C29_2 1_555 1_555
C30_2 C29_2 1_555 1_555
H14_2 C30_2 1_555 1_555
O23 C34_2 1_555 1_555
H41_2 C81_2 1_555 1_555

#END
