
###############################################################################
#
# This file contains modified crystal structure data generated from the
# MOF subset of the Cambridge Structural Database (CSD) v543 
# hosted by the Cambridge Crystallographic Data Centre (CCDC).
#
# This work is licensed under the Creative Commons
# Attribution-NonCommercial-ShareAlike 4.0 International License.
# To view a copy of this license, visit
# http://creativecommons.org/licenses/by-nc-sa/4.0/
# or send a letter to
# Creative Commons, PO Box 1866, Mountain View, CA 94042, USA.
#
# CIF created using the CSD Python API on 29 September 2022
# The structure has been converted into the P1 space group
# The structure has a 3D framework
# The original CSD entry ISIKIF is in the monoclinic crystal system
# The framework has been calculated to contain at least 10.0% void space
# The void calculation uses a probe of radius 1.32A, grid spacing 0.4
# H atom positions have been added when not included in the experimental data
#
###############################################################################

data_ISIKIF
_chemical_formula_moiety         '(C72 H64 Co8 O52)n'
_symmetry_cell_setting           triclinic
_symmetry_space_group_name_H-M   'P 1'
_symmetry_Int_Tables_number      1
_space_group_name_Hall           'P 1'
loop_
_symmetry_equiv_pos_site_id
_symmetry_equiv_pos_as_xyz
1 x,y,z
_cell_length_a                   13.2052(7)
_cell_length_b                   14.1208(5)
_cell_length_c                   14.5661(8)
_cell_angle_alpha                90
_cell_angle_beta                 114.031(6)
_cell_angle_gamma                90
_cell_volume                     2480.69
loop_
_atom_site_label
_atom_site_type_symbol
_atom_site_fract_x
_atom_site_fract_y
_atom_site_fract_z
Co2 Co 0.33761(6) 0.26693(5) 0.07533(6)
O2 O 0.2822(3) 0.4053(3) 0.0676(3)
O4 O 0.3856(3) 0.4834(3) 0.2086(3)
C3 C 0.3043(4) 0.4769(4) 0.1237(5)
C5 C 0.2056(4) 0.6162(4) 0.1553(5)
H5 H 0.2388 0.6026 0.2237
C7 C 0.2291(4) 0.5599(4) 0.0880(5)
C8 C 0.1338(4) 0.6916(4) 0.1221(5)
C11 C 0.0861(5) 0.7141(4) 0.0206(5)
O9 O 0.1765(3) 0.2146(3) 0.0248(4)
O11 O 0.3956(4) 0.1307(3) 0.0662(4)
C18 C 0.1032(4) 0.7479(4) 0.1934(4)
O12 O 0.1542(3) 0.7337(3) 0.2844(3)
O13 O 0.0259(3) 0.8077(3) 0.1575(3)
Co3 Co 0.51780(5) 0.39792(5) 0.26107(6)
Co7 Co 0.16239(6) 0.76693(5) 0.42467(6)
O17 O 0.5049(3) 0.3254(2) 0.1311(3)
O18 O 0.3458(3) 0.2337(3) 0.2156(3)
H12 H 0.17796 0.144439 0.0208993
H15 H 0.470711 0.135083 0.0663323
H16 H 0.399243 0.0926508 0.124796
O3 O 0.0677(3) 0.6773(3) 0.8511(4)
C1 C 0.1804(5) 0.5840(5) 0.9864(5)
H1 H 0.1947 0.5474 0.9400
H2 H 0.0286 0.8142 0.8497
C10 C 0.1111(4) 0.6616(4) 0.9537(4)
H7 H 0.0371 0.7647 0.9981
H9 H 0.0389 0.7627 0.6951
O10 O 0.3233(3) 0.2885(3) 0.9285(4)
H11 H 0.131268 0.240839 0.957133
H13 H 0.372249 0.341601 0.927734
H14 H 0.345641 0.229986 0.90377
Co5 Co 0.98220(5) 0.89792(5) 0.23893(6)
O1 O 0.8975(3) 0.6910(3) 0.6518(3)
O5 O 0.6362(3) 0.4988(3) 0.2682(4)
O6 O 0.6020(4) 0.4915(3) 0.3983(4)
C2 C 0.9940(5) 0.7570(4) 0.8137(5)
H3 H 0.9257 0.7462 0.8222
C4 C 0.7815(4) 0.6162(4) 0.5046(5)
H4 H 0.7545 0.5803 0.5433
C6 C 0.9009(4) 0.7384(4) 0.4929(5)
H6 H 0.9547 0.7843 0.5233
C9 C 0.8613(4) 0.6841(4) 0.5502(5)
C12 C 0.9704(5) 0.7665(4) 0.7046(5)
H8 H 0.9359 0.8272 0.6793
C13 C 0.7407(4) 0.6006(4) 0.4018(5)
C14 C 0.8600(4) 0.7242(4) 0.3901(4)
C15 C 0.7805(4) 0.6547(4) 0.3447(5)
H10 H 0.7541 0.6447 0.2758
C16 C 0.6566(4) 0.5264(4) 0.3541(4)
O7 O 0.8483(3) 0.7909(3) 0.2357(4)
C17 C 0.9030(4) 0.7813(4) 0.3289(4)
O8 O 0.9951(3) 0.8254(2) 0.3689(3)
O15 O 0.6517(3) 0.2909(3) 0.2643(4)
O19 O 0.4741(3) 0.3077(3) 0.3425(3)
O14 O 0.1144(3) 0.9834(3) 0.2914(3)
C6_2 C 0.5991(4) 0.2384(4) 0.0071(5)
C13_2 C 0.7593(4) 0.1006(4) 0.0982(5)
C14_2 C 0.6400(4) 0.2242(4) 0.1099(4)
C15_2 C 0.7195(4) 0.1547(4) 0.1553(5)
H10_2 H 0.7459 0.1447 0.2242
C16_2 C 0.8434(4) 0.0264(4) 0.1459(4)
C17_2 C 0.5970(4) 0.2813(4) 0.1711(4)
O1_2 O 0.6025(3) 0.1910(3) 0.8482(3)
O3_2 O 0.4323(3) 0.1773(3) 0.6489(4)
C1_2 C 0.3196(5) 0.0840(5) 0.5136(5)
H1_2 H 0.3053 0.0474 0.5600
C2_2 C 0.5060(5) 0.2570(4) 0.6863(5)
H2_2 H 0.4714 0.3142 0.6503
H3_2 H 0.5743 0.2462 0.6778
C4_2 C 0.7185(4) 0.1162(4) 0.9954(5)
H4_2 H 0.7455 0.0803 0.9567
C5_2 C 0.2944(4) 0.1162(4) 0.3447(5)
H5_2 H 0.2612 0.1026 0.2763
H6_2 H 0.5453 0.2843 0.9767
C7_2 C 0.2709(4) 0.0599(4) 0.4120(5)
C8_2 C 0.3662(4) 0.1916(4) 0.3779(5)
C9_2 C 0.6387(4) 0.1841(4) 0.9498(5)
C10_2 C 0.3889(4) 0.1616(4) 0.5463(4)
C11_2 C 0.4139(5) 0.2141(4) 0.4794(5)
H7_2 H 0.4629 0.2647 0.5019
C12_2 C 0.5296(5) 0.2665(4) 0.7954(5)
H8_2 H 0.5641 0.3272 0.8207
H9_2 H 0.4611 0.2627 0.8049
C18_2 C 0.3968(4) 0.2479(4) 0.3066(4)
O5_2 O 0.8638(3) 0.9988(3) 0.2318(4)
O6_2 O 0.8980(4) 0.9915(3) 0.1017(4)
O2_2 O 0.2178(3) 0.9053(3) 0.4324(3)
C3_2 C 0.1957(4) 0.9769(4) 0.3763(5)
O9_2 O 0.3235(3) 0.7146(3) 0.4752(4)
O10_2 O 0.1767(3) 0.7885(3) 0.5715(4)
O11_2 O 0.1044(4) 0.6307(3) 0.4338(4)
H11_2 H 0.368732 0.740839 0.542867
H12_2 H 0.32204 0.644439 0.479101
H13_2 H 0.127751 0.841601 0.572266
H14_2 H 0.154359 0.729986 0.59623
H15_2 H 0.0292892 0.635083 0.433668
H16_2 H 0.100757 0.592651 0.375204
Co1 Co 0.48220(5) 0.60208(5) 0.73893(6)
O1_3 O 0.1025(3) 0.3090(3) 0.3482(3)
O5_3 O 0.3638(3) 0.5012(3) 0.7318(4)
O6_3 O 0.3980(4) 0.5085(3) 0.6017(4)
C2_3 C 0.0060(5) 0.2430(4) 0.1863(5)
H3_3 H 0.0743 0.2538 0.1778
C4_3 C 0.2185(4) 0.3838(4) 0.4954(5)
H4_3 H 0.2455 0.4197 0.4567
C6_3 C 0.0991(4) 0.2616(4) 0.5071(5)
H6_3 H 0.0453 0.2157 0.4767
C9_3 C 0.1387(4) 0.3159(4) 0.4498(5)
C12_3 C 0.0296(5) 0.2335(4) 0.2954(5)
H8_3 H 0.0641 0.1728 0.3207
C13_3 C 0.2593(4) 0.3994(4) 0.5982(5)
C14_3 C 0.1400(4) 0.2758(4) 0.6099(4)
C15_3 C 0.2195(4) 0.3453(4) 0.6553(5)
H10_3 H 0.2459 0.3553 0.7242
C16_3 C 0.3434(4) 0.4736(4) 0.6459(4)
O7_2 O 0.1517(3) 0.2091(3) 0.7643(4)
C17_3 C 0.0970(4) 0.2187(4) 0.6711(4)
O8_2 O 0.0049(3) 0.1746(2) 0.6311(3)
Co4 Co 0.01780(5) 0.10208(5) 0.76107(6)
O14_2 O 0.6144(3) 0.5166(3) 0.7914(3)
O15_2 O 0.3483(3) 0.7091(3) 0.7357(4)
O16 O 0.4951(3) 0.6746(2) 0.8689(3)
O19_2 O 0.5259(3) 0.6923(3) 0.6575(3)
O3_3 O 0.9323(3) 0.3227(3) 0.1489(4)
C1_3 C 0.8196(5) 0.4160(5) 0.0136(5)
H1_3 H 0.8053 0.4526 0.0600
H2_3 H 0.9714 0.1858 0.1503
C10_3 C 0.8889(4) 0.3384(4) 0.0463(4)
H7_3 H 0.9629 0.2353 0.0019
H9_3 H 0.9611 0.2373 0.3049
O10_3 O 0.6767(3) 0.7115(3) 0.0715(4)
Co6 Co 0.83761(6) 0.23307(5) 0.57533(6)
H11_3 H 0.868732 0.759161 0.0428668
H13_3 H 0.627751 0.658399 0.072266
H14_3 H 0.654359 0.770014 0.0962296
Co2_2 Co 0.66239(6) 0.73307(5) 0.92467(6)
O2_3 O 0.7178(3) 0.5947(3) 0.9324(3)
C3_3 C 0.6957(4) 0.5231(4) 0.8763(5)
C5_3 C 0.7944(4) 0.3838(4) 0.8447(5)
H5_3 H 0.7612 0.3974 0.7763
C7_3 C 0.7709(4) 0.4401(4) 0.9120(5)
C8_3 C 0.8662(4) 0.3084(4) 0.8779(5)
C11_3 C 0.9139(5) 0.2859(4) 0.9794(5)
O9_3 O 0.8235(3) 0.7854(3) 0.9752(4)
O11_3 O 0.6044(4) 0.8693(3) 0.9338(4)
C18_3 C 0.8968(4) 0.2521(4) 0.8066(4)
O12_2 O 0.8458(3) 0.2663(3) 0.7156(3)
O13_2 O 0.9741(3) 0.1923(3) 0.8425(3)
O18_2 O 0.6542(3) 0.7663(3) 0.7844(3)
H12_3 H 0.82204 0.855561 0.979101
H15_3 H 0.529289 0.864917 0.933668
H16_3 H 0.600757 0.907349 0.875204
O2_4 O 0.7822(3) 0.0947(3) 0.5676(3)
O4_2 O 0.8856(3) 0.0166(3) 0.7086(3)
C3_4 C 0.8043(4) 0.0231(4) 0.6237(5)
O9_4 O 0.6765(3) 0.2854(3) 0.5248(4)
O10_4 O 0.8233(3) 0.2115(3) 0.4285(4)
O11_4 O 0.8956(4) 0.3693(3) 0.5662(4)
H11_4 H 0.631268 0.259161 0.457133
H12_4 H 0.67796 0.355561 0.520899
H13_4 H 0.872249 0.158399 0.427734
H14_4 H 0.845641 0.270014 0.40377
H15_4 H 0.970711 0.364917 0.566332
H16_4 H 0.899243 0.407349 0.624796
O5_4 O 0.1362(3) 0.0012(3) 0.7682(4)
O6_4 O 0.1020(4) 0.0085(3) 0.8983(4)
O1_4 O 0.3975(3) 0.8090(3) 0.1518(3)
O3_4 O 0.5677(3) 0.8227(3) 0.3511(4)
C1_4 C 0.6804(5) 0.9160(5) 0.4864(5)
H1_4 H 0.6947 0.9526 0.4400
C2_4 C 0.4940(5) 0.7430(4) 0.3137(5)
H2_4 H 0.5286 0.6858 0.3497
H3_4 H 0.4257 0.7538 0.3222
C4_4 C 0.2815(4) 0.8838(4) 0.0046(5)
H4_4 H 0.2545 0.9197 0.0433
C5_4 C 0.7056(4) 0.8838(4) 0.6553(5)
H5_4 H 0.7388 0.8974 0.7237
H6_4 H 0.4547 0.7157 0.0233
C7_4 C 0.7291(4) 0.9401(4) 0.5880(5)
C8_4 C 0.6338(4) 0.8084(4) 0.6221(5)
C9_4 C 0.3613(4) 0.8159(4) 0.0502(5)
C10_4 C 0.6111(4) 0.8384(4) 0.4537(4)
C11_4 C 0.5861(5) 0.7859(4) 0.5206(5)
H7_4 H 0.5371 0.7353 0.4981
C12_4 C 0.4704(5) 0.7335(4) 0.2046(5)
H8_4 H 0.4359 0.6728 0.1793
H9_4 H 0.5389 0.7373 0.1951
C18_4 C 0.6032(4) 0.7521(4) 0.6934(4)
C6_4 C 0.4009(4) 0.7616(4) 0.9929(5)
C13_4 C 0.2407(4) 0.8994(4) 0.9018(5)
C14_4 C 0.3600(4) 0.7758(4) 0.8901(4)
C15_4 C 0.2805(4) 0.8453(4) 0.8447(5)
H10_4 H 0.2541 0.8553 0.7758
C16_4 C 0.1566(4) 0.9736(4) 0.8541(4)
C17_4 C 0.4030(4) 0.7187(4) 0.8289(4)
loop_
_geom_bond_atom_site_label_1
_geom_bond_atom_site_label_2
_geom_bond_site_symmetry_1
_geom_bond_site_symmetry_2
Co2 O2 1_555 1_555
O2 C3 1_555 1_555
O4 C3 1_555 1_555
C3 C7 1_555 1_555
C5 H5 1_555 1_555
C8 C5 1_555 1_555
C11 C8 1_555 1_555
O9 Co2 1_555 1_555
O11 Co2 1_555 1_555
C18 C8 1_555 1_555
O12 C18 1_555 1_555
O13 C18 1_555 1_555
Co3 O4 1_555 1_555
Co7 O12 1_555 1_555
O17 Co2 1_555 1_555
O18 Co2 1_555 1_555
C5 C7 1_555 1_555
Co3 O17 1_555 1_555
O9 H12 1_555 1_555
O11 H15 1_555 1_555
O11 H16 1_555 1_555
C1 H1 1_555 1_555
C10 O3 1_555 1_555
C1 C10 1_555 1_555
O10 H13 1_555 1_555
O10 H14 1_555 1_555
Co3 O5 1_555 1_555
O1 C9 1_555 1_555
O5 C16 1_555 1_555
O6 Co3 1_555 1_555
H3 C2 1_555 1_555
C4 H4 1_555 1_555
C6 H6 1_555 1_555
C9 C4 1_555 1_555
C12 O1 1_555 1_555
H8 C12 1_555 1_555
C13 C4 1_555 1_555
C14 C6 1_555 1_555
C15 C13 1_555 1_555
H10 C15 1_555 1_555
C16 O6 1_555 1_555
O7 C17 1_555 1_555
C17 C14 1_555 1_555
O8 C17 1_555 1_555
Co5 O7 1_555 1_555
O15 Co3 1_555 1_555
O19 Co3 1_555 1_555
C2 C12 1_555 1_555
C6 C9 1_555 1_555
C13 C16 1_555 1_555
C14 C15 1_555 1_555
O8 Co5 1_555 1_555
C14_2 C6_2 1_555 1_555
C15_2 C13_2 1_555 1_555
H10_2 C15_2 1_555 1_555
O15 C17_2 1_555 1_555
C17_2 C14_2 1_555 1_555
O17 C17_2 1_555 1_555
C13_2 C16_2 1_555 1_555
C14_2 C15_2 1_555 1_555
O1_2 C9_2 1_555 1_555
O3_2 C2_2 1_555 1_555
C1_2 H1_2 1_555 1_555
C2_2 H2_2 1_555 1_555
H3_2 C2_2 1_555 1_555
C4_2 H4_2 1_555 1_555
C5_2 H5_2 1_555 1_555
C7_2 C1_2 1_555 1_555
C8_2 C5_2 1_555 1_555
C9_2 C4_2 1_555 1_555
C10_2 O3_2 1_555 1_555
C11_2 C8_2 1_555 1_555
H7_2 C11_2 1_555 1_555
C12_2 O1_2 1_555 1_555
H8_2 C12_2 1_555 1_555
H9_2 C12_2 1_555 1_555
C18_2 C8_2 1_555 1_555
O18 C18_2 1_555 1_555
O19 C18_2 1_555 1_555
C1_2 C10_2 1_555 1_555
C2_2 C12_2 1_555 1_555
C5_2 C7_2 1_555 1_555
C10_2 C11_2 1_555 1_555
Co5 O5_2 1_555 1_555
O6_2 Co5 1_555 1_555
Co7 O2_2 1_555 1_555
O2_2 C3_2 1_555 1_555
O14 C3_2 1_555 1_555
O9_2 Co7 1_555 1_555
O10_2 Co7 1_555 1_555
O11_2 Co7 1_555 1_555
O9_2 H11_2 1_555 1_555
O9_2 H12_2 1_555 1_555
O10_2 H13_2 1_555 1_555
O10_2 H14_2 1_555 1_555
O11_2 H15_2 1_555 1_555
O11_2 H16_2 1_555 1_555
Co1 O5_3 1_555 1_555
O1_3 C9_3 1_555 1_555
O5_3 C16_3 1_555 1_555
O6_3 Co1 1_555 1_555
H3_3 C2_3 1_555 1_555
C4_3 H4_3 1_555 1_555
C6_3 H6_3 1_555 1_555
C9_3 C4_3 1_555 1_555
C12_3 O1_3 1_555 1_555
H8_3 C12_3 1_555 1_555
C13_3 C4_3 1_555 1_555
C14_3 C6_3 1_555 1_555
C15_3 C13_3 1_555 1_555
H10_3 C15_3 1_555 1_555
C16_3 O6_3 1_555 1_555
O7_2 C17_3 1_555 1_555
C17_3 C14_3 1_555 1_555
O8_2 C17_3 1_555 1_555
Co4 O7_2 1_555 1_555
O14_2 Co1 1_555 1_555
O15_2 Co1 1_555 1_555
O16 Co1 1_555 1_555
O19_2 Co1 1_555 1_555
C2_3 C12_3 1_555 1_555
C6_3 C9_3 1_555 1_555
C13_3 C16_3 1_555 1_555
C14_3 C15_3 1_555 1_555
O8_2 Co4 1_555 1_555
C1_3 H1_3 1_555 1_555
C10_3 O3_3 1_555 1_555
C1_3 C10_3 1_555 1_555
O10_3 H13_3 1_555 1_555
O10_3 H14_3 1_555 1_555
Co2_2 O2_3 1_555 1_555
O2_3 C3_3 1_555 1_555
O14_2 C3_3 1_555 1_555
C3_3 C7_3 1_555 1_555
C5_3 H5_3 1_555 1_555
C8_3 C5_3 1_555 1_555
C11_3 C8_3 1_555 1_555
O9_3 Co2_2 1_555 1_555
O11_3 Co2_2 1_555 1_555
C18_3 C8_3 1_555 1_555
O12_2 C18_3 1_555 1_555
O13_2 C18_3 1_555 1_555
Co6 O12_2 1_555 1_555
O16 Co2_2 1_555 1_555
O18_2 Co2_2 1_555 1_555
C5_3 C7_3 1_555 1_555
O9_3 H12_3 1_555 1_555
O11_3 H15_3 1_555 1_555
O11_3 H16_3 1_555 1_555
Co6 O2_4 1_555 1_555
O2_4 C3_4 1_555 1_555
O4_2 C3_4 1_555 1_555
O9_4 Co6 1_555 1_555
O10_4 Co6 1_555 1_555
O11_4 Co6 1_555 1_555
O9_4 H11_4 1_555 1_555
O9_4 H12_4 1_555 1_555
O10_4 H13_4 1_555 1_555
O10_4 H14_4 1_555 1_555
O11_4 H15_4 1_555 1_555
O11_4 H16_4 1_555 1_555
Co4 O5_4 1_555 1_555
O6_4 Co4 1_555 1_555
O1_4 C9_4 1_555 1_555
O3_4 C2_4 1_555 1_555
C1_4 H1_4 1_555 1_555
C2_4 H2_4 1_555 1_555
H3_4 C2_4 1_555 1_555
C4_4 H4_4 1_555 1_555
C5_4 H5_4 1_555 1_555
C7_4 C1_4 1_555 1_555
C8_4 C5_4 1_555 1_555
C9_4 C4_4 1_555 1_555
C10_4 O3_4 1_555 1_555
C11_4 C8_4 1_555 1_555
H7_4 C11_4 1_555 1_555
C12_4 O1_4 1_555 1_555
H8_4 C12_4 1_555 1_555
H9_4 C12_4 1_555 1_555
C18_4 C8_4 1_555 1_555
O18_2 C18_4 1_555 1_555
O19_2 C18_4 1_555 1_555
C1_4 C10_4 1_555 1_555
C2_4 C12_4 1_555 1_555
C5_4 C7_4 1_555 1_555
C10_4 C11_4 1_555 1_555
C14_4 C6_4 1_555 1_555
C15_4 C13_4 1_555 1_555
H10_4 C15_4 1_555 1_555
O15_2 C17_4 1_555 1_555
C17_4 C14_4 1_555 1_555
O16 C17_4 1_555 1_555
C13_4 C16_4 1_555 1_555
C14_4 C15_4 1_555 1_555

#END
