
###############################################################################
#
# This file contains modified crystal structure data generated from the
# MOF subset of the Cambridge Structural Database (CSD) v543 
# hosted by the Cambridge Crystallographic Data Centre (CCDC).
#
# This work is licensed under the Creative Commons
# Attribution-NonCommercial-ShareAlike 4.0 International License.
# To view a copy of this license, visit
# http://creativecommons.org/licenses/by-nc-sa/4.0/
# or send a letter to
# Creative Commons, PO Box 1866, Mountain View, CA 94042, USA.
#
# CIF created using the CSD Python API on 29 September 2022
# The structure has been converted into the P1 space group
# The structure has a 3D framework
# The original CSD entry ISILIG is in the orthorhombic crystal system
# The framework has been calculated to contain at least 10.0% void space
# The void calculation uses a probe of radius 1.32A, grid spacing 0.4
#
###############################################################################

data_ISILIG
_chemical_formula_moiety         '(C248 H216 Co8 N32 O40)n'
_symmetry_cell_setting           triclinic
_symmetry_space_group_name_H-M   'P 1'
_symmetry_Int_Tables_number      1
_space_group_name_Hall           'P 1'
loop_
_symmetry_equiv_pos_site_id
_symmetry_equiv_pos_as_xyz
1 x,y,z
_cell_length_a                   17.3533(4)
_cell_length_b                   18.3104(7)
_cell_length_c                   18.9124(8)
_cell_angle_alpha                90
_cell_angle_beta                 90
_cell_angle_gamma                90
_cell_volume                     6009.34
loop_
_atom_site_label
_atom_site_type_symbol
_atom_site_fract_x
_atom_site_fract_y
_atom_site_fract_z
O1 O 0.20906(18) 0.2626(2) 0.0160(2)
O2 O 0.55961(19) 0.33175(19) 0.0313(2)
O3 O 0.49760(19) 0.2323(2) 0.0032(2)
O4 O 0.51823(19) 0.5771(2) 0.2839(2)
O5 O 0.38135(18) 0.4531(2) 0.2123(2)
O6 O 0.15774(19) 0.3342(2) 0.0970(2)
C1 C 0.4306(3) 0.3215(3) 0.0745(3)
C2 C 0.5002(3) 0.2936(3) 0.0339(3)
C3 C 0.3779(3) 0.3999(3) 0.1603(3)
C4 C 0.3579(3) 0.2955(3) 0.0567(3)
H1 H 0.3517 0.2593 0.0227
C9 C 0.4408(3) 0.3720(3) 0.1252(3)
H4 H 0.4901 0.3880 0.1366
C12 C 0.4453(3) 0.5507(4) 0.2709(4)
H6 H 0.4133 0.5878 0.2490
H7 H 0.4209 0.5346 0.3143
C14 C 0.3043(3) 0.3762(3) 0.1439(3)
H9 H 0.2619 0.3945 0.1683
C17 C 0.2946(3) 0.3255(3) 0.0916(3)
C25 C 0.4577(3) 0.4877(4) 0.2215(3)
H19 H 0.4775 0.5047 0.1765
H20 H 0.4941 0.4533 0.2416
C29 C 0.2128(3) 0.3052(3) 0.0670(4)
C55 C 0.6056(3) 0.6339(3) 0.3614(3)
H52 H 0.6452 0.6091 0.3386
C56 C 0.6214(3) 0.6786(3) 0.4169(3)
C57 C 0.5291(3) 0.6255(3) 0.3386(3)
C58 C 0.7006(3) 0.6819(3) 0.4466(4)
C59 C 0.4865(3) 0.7090(3) 0.4297(3)
C60 C 0.5617(3) 0.7180(3) 0.4505(3)
H53 H 0.5734 0.7502 0.4870
C61 C 0.4702(3) 0.6627(3) 0.3724(3)
H54 H 0.4196 0.6569 0.3572
O7 O 0.70937(19) 0.7173(2) 0.5046(2)
O8 O 0.7536(2) 0.6491(2) 0.4162(2)
C62 C 0.4206(3) 0.7425(4) 0.4683(3)
O9 O 0.3594(2) 0.71072(19) 0.4734(2)
O10 O 0.43132(19) 0.8049(2) 0.4965(2)
Co5 Co 0.81565(3) 0.69256(4) 0.53426(4)
Co6 Co 0.31565(3) 0.80744(4) 0.53426(4)
O11 O 0.05961(19) 0.16825(19) 0.0313(2)
Co1 Co 0.10881(3) 0.26867(3) 0.96805(4)
N1 N 0.2583(2) 0.0277(3) 0.5670(2)
N2 N 0.1245(2) 0.1330(3) 0.7876(3)
N4 N 0.3329(2) 0.6887(3) 0.7236(2)
N5 N 0.3309(2) 0.7601(2) 0.6306(2)
N6 N 0.1143(3) 0.3747(2) 0.9333(2)
N7 N 0.1084(3) 0.2133(2) 0.8737(2)
C5 C 0.2354(3) 0.6540(4) 0.6329(3)
C6 C 0.2080(3) 0.1166(4) 0.8938(3)
C7 C 0.1472(3) 0.1541(3) 0.8539(3)
C8 C 0.2086(3) 0.0886(3) 0.5842(3)
H2 H 0.1568 0.0702 0.5916
H3 H 0.2070 0.1213 0.5439
N8 N 0.1522(3) 0.4786(3) 0.8893(3)
C11 C 0.2776(3) 0.1532(4) 0.9041(3)
H5 H 0.2836 0.2012 0.8888
C15 C 0.1636(3) 0.6829(3) 0.6237(3)
H10 H 0.1556 0.7324 0.6320
C18 C 0.2317(3) 0.1314(3) 0.6478(3)
H11 H 0.1962 0.1718 0.6538
H12 H 0.2827 0.1517 0.6401
C19 C 0.1551(3) 0.0708(3) 0.7472(3)
H13 H 0.1188 0.0580 0.7103
H14 H 0.1602 0.0291 0.7784
C20 C 0.3317(3) 0.0358(3) 0.5381(3)
H15 H 0.3556 0.0793 0.5253
C21 C 0.3005(3) 0.7020(3) 0.6606(3)
C22 C 0.2300(3) 0.3722(3) 0.8558(4)
C23 C 0.0920(4) 0.4937(4) 0.9320(4)
H16 H 0.0710 0.5395 0.9410
C24 C 0.2327(3) 0.0871(4) 0.7140(3)
H17 H 0.2641 0.1124 0.7486
H18 H 0.2579 0.0409 0.7038
C26 C 0.2014(4) 0.0465(4) 0.9193(4)
H21 H 0.1553 0.0215 0.9126
C27 C 0.0679(3) 0.4287(3) 0.9595(3)
H22 H 0.0270 0.4222 0.9907
C28 C 0.3104(4) 0.6327(3) 0.7772(3)
H23 H 0.3517 0.6275 0.8114
H24 H 0.3037 0.5860 0.7539
C30 C 0.0688(3) 0.1829(4) 0.7673(4)
H25 H 0.0427 0.1825 0.7243
C31 C 0.0580(3) 0.2317(4) 0.8187(4)
H26 H 0.0236 0.2706 0.8181
C32 C 0.1662(3) 0.4068(3) 0.8922(3)
C33 C 0.3858(3) 0.7443(4) 0.7363(3)
H27 H 0.4160 0.7515 0.7764
C34 C 0.2495(4) 0.5810(4) 0.6182(3)
H28 H 0.2990 0.5617 0.6216
C37 C 0.1891(5) 0.5383(4) 0.5989(4)
H31 H 0.1968 0.4887 0.5914
C38 C 0.1189(5) 0.5662(5) 0.5907(4)
H32 H 0.0789 0.5357 0.5767
C40 C 0.3634(4) 0.3395(4) 0.8486(4)
H34 H 0.4126 0.3414 0.8681
C42 C 0.2582(5) 0.0133(4) 0.9530(4)
C43 C 0.3382(4) 0.1170(5) 0.9375(3)
H37 H 0.3855 0.1400 0.9438
C44 C 0.3523(4) 0.3055(4) 0.7844(4)
H38 H 0.3936 0.2848 0.7602
C45 C 0.3833(3) 0.7850(3) 0.6781(3)
H39 H 0.4141 0.8259 0.6707
C46 C 0.1035(4) 0.6403(5) 0.6025(3)
H40 H 0.0544 0.6596 0.5961
C47 C 0.3269(5) 0.0456(5) 0.9615(4)
H41 H 0.3669 0.0205 0.9834
C48 C 0.1871(4) 0.5323(4) 0.8374(5)
H42 H 0.2298 0.5090 0.8130
H43 H 0.1487 0.5452 0.8022
C49 C 0.2179(4) 0.3381(4) 0.7934(4)
H44 H 0.1686 0.3379 0.7742
C50 C 0.2372(4) 0.6523(3) 0.8154(4)
H45 H 0.1963 0.6589 0.7811
H46 H 0.2445 0.6984 0.8399
C51 C 0.2127(5) 0.5939(4) 0.8691(5)
H47 H 0.2563 0.5820 0.8991
H48 H 0.1722 0.6135 0.8989
C52 C 0.3022(4) 0.3710(4) 0.8846(3)
H49 H 0.3104 0.3915 0.9289
C54 C 0.2782(4) 0.3026(4) 0.7564(4)
H51 H 0.2684 0.2780 0.7143
Co3 Co 0.60881(3) 0.23133(3) 0.96805(4)
N3 N 0.3098(3) 0.9173(2) 0.5585(2)
C10 C 0.2497(3) 0.9550(3) 0.5798(3)
C13 C 0.3609(3) 0.9685(3) 0.5325(3)
H8 H 0.4090 0.9576 0.5136
C16 C 0.1818(3) 0.9246(3) 0.6144(3)
C35 C 0.1305(5) 0.8611(4) 0.7164(4)
H29 H 0.1370 0.8380 0.7597
C36 C 0.1093(4) 0.9292(3) 0.5856(3)
H30 H 0.1020 0.9523 0.5424
C39 C 0.1921(4) 0.8901(3) 0.6795(4)
H33 H 0.2414 0.8865 0.6985
C41 C 0.0456(4) 0.8985(5) 0.6220(5)
H36 H 0.2504 0.9666 0.9710
C53 C 0.0590(5) 0.8681(4) 0.6858(5)
H50 H 0.0168 0.8505 0.7110
O13 O 0.20937(19) 0.7827(2) 0.5046(2)
O12 O 0.99760(19) 0.2677(2) 0.0032(2)
C2_2 C 0.0002(3) 0.2064(3) 0.0339(3)
O4_2 O 0.01823(19) 0.9229(2) 0.2839(2)
C55_2 C 0.1056(3) 0.8661(3) 0.3614(3)
H52_2 H 0.1452 0.8909 0.3386
C56_2 C 0.1214(3) 0.8214(3) 0.4169(3)
C57_2 C 0.0291(3) 0.8745(3) 0.3386(3)
C58_2 C 0.2006(3) 0.8181(3) 0.4466(4)
C60_2 C 0.0617(3) 0.7820(3) 0.4505(3)
H53_2 H 0.0734 0.7498 0.4870
O8_2 O 0.2536(2) 0.8509(2) 0.4162(2)
O1_2 O 0.70906(18) 0.2374(2) 0.0160(2)
O5_2 O 0.88135(18) 0.0469(2) 0.2123(2)
O6_2 O 0.65774(19) 0.1658(2) 0.0970(2)
C1_2 C 0.9306(3) 0.1785(3) 0.0745(3)
C3_2 C 0.8779(3) 0.1001(3) 0.1603(3)
C4_2 C 0.8579(3) 0.2045(3) 0.0567(3)
H1_2 H 0.8517 0.2407 0.0227
C9_2 C 0.9408(3) 0.1280(3) 0.1252(3)
H4_2 H 0.9901 0.1120 0.1366
C14_2 C 0.8043(3) 0.1238(3) 0.1439(3)
H9_2 H 0.7619 0.1055 0.1683
C17_2 C 0.7946(3) 0.1745(3) 0.0916(3)
C25_2 C 0.9577(3) 0.0123(4) 0.2215(3)
H20_2 H 0.9941 0.0467 0.2416
C29_2 C 0.7128(3) 0.1948(3) 0.0670(4)
N1_2 N 0.7583(2) 0.4723(3) 0.5670(2)
N2_2 N 0.6245(2) 0.3670(3) 0.7876(3)
N3_2 N 0.8098(3) 0.5827(2) 0.5585(2)
N6_2 N 0.6143(3) 0.1253(2) 0.9333(2)
N7_2 N 0.6084(3) 0.2867(2) 0.8737(2)
C6_2 C 0.7080(3) 0.3834(4) 0.8938(3)
C7_2 C 0.6472(3) 0.3459(3) 0.8539(3)
C8_2 C 0.7086(3) 0.4114(3) 0.5842(3)
H2_2 H 0.6568 0.4298 0.5916
H3_2 H 0.7070 0.3787 0.5439
N8_2 N 0.6522(3) 0.0214(3) 0.8893(3)
C10_2 C 0.7497(3) 0.5450(3) 0.5798(3)
C11_2 C 0.7776(3) 0.3468(4) 0.9041(3)
H5_2 H 0.7836 0.2988 0.8888
C13_2 C 0.8609(3) 0.5315(3) 0.5325(3)
H8_2 H 0.9090 0.5424 0.5136
C16_2 C 0.6818(3) 0.5754(3) 0.6144(3)
C18_2 C 0.7317(3) 0.3686(3) 0.6478(3)
H11_2 H 0.6962 0.3282 0.6538
H12_2 H 0.7827 0.3483 0.6401
C19_2 C 0.6551(3) 0.4292(3) 0.7472(3)
H13_2 H 0.6188 0.4420 0.7103
H14_2 H 0.6602 0.4709 0.7784
C20_2 C 0.8317(3) 0.4642(3) 0.5381(3)
H15_2 H 0.8556 0.4207 0.5253
C22_2 C 0.7300(3) 0.1278(3) 0.8558(4)
C23_2 C 0.5920(4) 0.0063(4) 0.9320(4)
C24_2 C 0.7327(3) 0.4129(4) 0.7140(3)
H17_2 H 0.7641 0.3876 0.7486
H18_2 H 0.7579 0.4591 0.7038
C26_2 C 0.7014(4) 0.4535(4) 0.9193(4)
H21_2 H 0.6553 0.4785 0.9126
C27_2 C 0.5679(3) 0.0713(3) 0.9595(3)
H22_2 H 0.5270 0.0778 0.9907
C30_2 C 0.5688(3) 0.3171(4) 0.7673(4)
H25_2 H 0.5427 0.3175 0.7243
C31_2 C 0.5580(3) 0.2683(4) 0.8187(4)
H26_2 H 0.5236 0.2294 0.8181
C32_2 C 0.6662(3) 0.0932(3) 0.8922(3)
C35_2 C 0.6305(5) 0.6389(4) 0.7164(4)
H29_2 H 0.6370 0.6620 0.7597
C36_2 C 0.6093(4) 0.5708(3) 0.5856(3)
H30_2 H 0.6020 0.5477 0.5424
H31_2 H 0.6968 0.0113 0.5914
C39_2 C 0.6921(4) 0.6099(3) 0.6795(4)
H33_2 H 0.7414 0.6135 0.6985
C40_2 C 0.8634(4) 0.1605(4) 0.8486(4)
H34_2 H 0.9126 0.1586 0.8681
C41_2 C 0.5456(4) 0.6015(5) 0.6220(5)
H35 H 0.4963 0.6007 0.6026
C42_2 C 0.7582(5) 0.4867(4) 0.9530(4)
H36_2 H 0.7504 0.5334 0.9710
C43_2 C 0.8382(4) 0.3830(5) 0.9375(3)
H37_2 H 0.8855 0.3600 0.9438
C44_2 C 0.8523(4) 0.1945(4) 0.7844(4)
H38_2 H 0.8936 0.2152 0.7602
C47_2 C 0.8269(5) 0.4544(5) 0.9615(4)
H41_2 H 0.8669 0.4795 0.9834
C49_2 C 0.7179(4) 0.1619(4) 0.7934(4)
H44_2 H 0.6686 0.1621 0.7742
C52_2 C 0.8022(4) 0.1290(4) 0.8846(3)
H49_2 H 0.8104 0.1085 0.9289
C53_2 C 0.5590(5) 0.6319(4) 0.6858(5)
H50_2 H 0.5168 0.6495 0.7110
C54_2 C 0.7782(4) 0.1974(4) 0.7564(4)
H51_2 H 0.7684 0.2220 0.7143
N9 N 0.8309(2) 0.7399(2) 0.6306(2)
O14 O 0.8594(2) 0.78928(19) 0.4734(2)
O15 O 0.93132(19) 0.6951(2) 0.4965(2)
C12_2 C 0.9453(3) 0.9493(4) 0.2709(4)
H6_2 H 0.9133 0.9122 0.2490
H7_2 H 0.9209 0.9654 0.3143
H19_2 H 0.9775 0.9953 0.1765
C59_2 C 0.9865(3) 0.7910(3) 0.4297(3)
C61_2 C 0.9702(3) 0.8373(3) 0.3724(3)
H54_2 H 0.9196 0.8431 0.3572
C62_2 C 0.9206(3) 0.7575(4) 0.4683(3)
N4_2 N 0.8329(2) 0.8113(3) 0.7236(2)
C5_2 C 0.7354(3) 0.8460(4) 0.6329(3)
C15_2 C 0.6636(3) 0.8171(3) 0.6237(3)
H10_2 H 0.6556 0.7676 0.6320
C21_2 C 0.8005(3) 0.7980(3) 0.6606(3)
H16_2 H 0.5710 0.9605 0.9410
C28_2 C 0.8104(4) 0.8673(3) 0.7772(3)
H23_2 H 0.8517 0.8725 0.8114
H24_2 H 0.8037 0.9140 0.7539
C33_2 C 0.8858(3) 0.7557(4) 0.7363(3)
H27_2 H 0.9160 0.7485 0.7764
C34_2 C 0.7495(4) 0.9190(4) 0.6182(3)
H28_2 H 0.7990 0.9383 0.6216
C37_2 C 0.6891(5) 0.9617(4) 0.5989(4)
C38_2 C 0.6189(5) 0.9338(5) 0.5907(4)
H32_2 H 0.5789 0.9643 0.5767
C45_2 C 0.8833(3) 0.7150(3) 0.6781(3)
H39_2 H 0.9141 0.6741 0.6707
C46_2 C 0.6035(4) 0.8597(5) 0.6025(3)
H40_2 H 0.5544 0.8404 0.5961
C48_2 C 0.6871(4) 0.9677(4) 0.8374(5)
H42_2 H 0.7298 0.9910 0.8130
H43_2 H 0.6487 0.9548 0.8022
C50_2 C 0.7372(4) 0.8477(3) 0.8154(4)
H45_2 H 0.6963 0.8411 0.7811
H46_2 H 0.7445 0.8016 0.8399
C51_2 C 0.7127(5) 0.9061(4) 0.8691(5)
H47_2 H 0.7563 0.9180 0.8991
H48_2 H 0.6722 0.8865 0.8989
H35_2 H 0.9963 0.8993 0.6026
Co3_2 Co 0.10881(3) 0.76867(3) 0.03195(4)
O2_2 O 0.05961(19) 0.66825(19) 0.9687(2)
O4_3 O 0.01823(19) 0.4229(2) 0.7161(2)
C2_3 C 0.0002(3) 0.7064(3) 0.9661(3)
C55_3 C 0.1056(3) 0.3661(3) 0.6386(3)
H52_3 H 0.1452 0.3909 0.6614
C56_3 C 0.1214(3) 0.3214(3) 0.5831(3)
C57_3 C 0.0291(3) 0.3745(3) 0.6614(3)
C58_3 C 0.2006(3) 0.3181(3) 0.5534(4)
C60_3 C 0.0617(3) 0.2820(3) 0.5495(3)
H53_3 H 0.0734 0.2498 0.5130
O7_2 O 0.20937(19) 0.2827(2) 0.4954(2)
O8_3 O 0.2536(2) 0.3509(2) 0.5838(2)
Co5_2 Co 0.31565(3) 0.30744(4) 0.46574(4)
Co2 Co 0.81565(3) 0.19256(4) 0.46574(4)
N3_3 N 0.8098(3) 0.0827(2) 0.4415(2)
C10_3 C 0.7497(3) 0.0450(3) 0.4202(3)
C13_3 C 0.8609(3) 0.0315(3) 0.4675(3)
H8_3 H 0.9090 0.0424 0.4864
C16_3 C 0.6818(3) 0.0754(3) 0.3856(3)
C35_3 C 0.6305(5) 0.1389(4) 0.2836(4)
H29_3 H 0.6370 0.1620 0.2403
C36_3 C 0.6093(4) 0.0708(3) 0.4144(3)
H30_3 H 0.6020 0.0477 0.4576
C39_3 C 0.6921(4) 0.1099(3) 0.3205(4)
H33_3 H 0.7414 0.1135 0.3015
C41_3 C 0.5456(4) 0.1015(5) 0.3780(5)
H35_3 H 0.4963 0.1007 0.3974
H36_3 H 0.7504 0.0334 0.0290
C53_3 C 0.5590(5) 0.1319(4) 0.3142(5)
H50_3 H 0.5168 0.1495 0.2890
N9_2 N 0.8309(2) 0.2399(2) 0.3694(2)
O13_2 O 0.70937(19) 0.2173(2) 0.4954(2)
O14_2 O 0.8594(2) 0.28928(19) 0.5266(2)
O15_2 O 0.93132(19) 0.1951(2) 0.5035(2)
Co1_2 Co 0.60881(3) 0.73133(3) 0.03195(4)
N1_3 N 0.7583(2) 0.9723(3) 0.4330(2)
N2_3 N 0.6245(2) 0.8670(3) 0.2124(3)
N4_3 N 0.8329(2) 0.3113(3) 0.2764(2)
N6_3 N 0.6143(3) 0.6253(2) 0.0667(2)
N7_3 N 0.6084(3) 0.7867(2) 0.1263(2)
C5_3 C 0.7354(3) 0.3460(4) 0.3671(3)
C6_3 C 0.7080(3) 0.8834(4) 0.1062(3)
C7_3 C 0.6472(3) 0.8459(3) 0.1461(3)
C8_3 C 0.7086(3) 0.9114(3) 0.4158(3)
H2_3 H 0.6568 0.9298 0.4084
H3_3 H 0.7070 0.8787 0.4561
N8_3 N 0.6522(3) 0.5214(3) 0.1107(3)
C11_3 C 0.7776(3) 0.8468(4) 0.0959(3)
H5_3 H 0.7836 0.7988 0.1112
C15_3 C 0.6636(3) 0.3171(3) 0.3763(3)
H10_3 H 0.6556 0.2676 0.3680
C18_3 C 0.7317(3) 0.8686(3) 0.3522(3)
H11_3 H 0.6962 0.8282 0.3462
H12_3 H 0.7827 0.8483 0.3599
C19_3 C 0.6551(3) 0.9292(3) 0.2528(3)
H13_3 H 0.6188 0.9420 0.2897
H14_3 H 0.6602 0.9709 0.2216
C20_3 C 0.8317(3) 0.9642(3) 0.4619(3)
H15_3 H 0.8556 0.9207 0.4747
C21_3 C 0.8005(3) 0.2980(3) 0.3394(3)
C22_3 C 0.7300(3) 0.6278(3) 0.1442(4)
C23_3 C 0.5920(4) 0.5063(4) 0.0680(4)
H16_3 H 0.5710 0.4605 0.0590
C24_3 C 0.7327(3) 0.9129(4) 0.2860(3)
H17_3 H 0.7641 0.8876 0.2514
H18_3 H 0.7579 0.9591 0.2962
C26_3 C 0.7014(4) 0.9535(4) 0.0807(4)
H21_3 H 0.6553 0.9785 0.0874
C27_3 C 0.5679(3) 0.5713(3) 0.0405(3)
H22_3 H 0.5270 0.5778 0.0093
C28_3 C 0.8104(4) 0.3673(3) 0.2228(3)
H23_3 H 0.8517 0.3725 0.1886
H24_3 H 0.8037 0.4140 0.2461
C30_3 C 0.5688(3) 0.8171(4) 0.2327(4)
H25_3 H 0.5427 0.8175 0.2757
C31_3 C 0.5580(3) 0.7683(4) 0.1813(4)
H26_3 H 0.5236 0.7294 0.1819
C32_3 C 0.6662(3) 0.5932(3) 0.1078(3)
C33_3 C 0.8858(3) 0.2557(4) 0.2637(3)
H27_3 H 0.9160 0.2485 0.2236
C34_3 C 0.7495(4) 0.4190(4) 0.3818(3)
H28_3 H 0.7990 0.4383 0.3784
C37_3 C 0.6891(5) 0.4617(4) 0.4011(4)
H31_3 H 0.6968 0.5113 0.4086
C38_3 C 0.6189(5) 0.4338(5) 0.4093(4)
H32_3 H 0.5789 0.4643 0.4233
C40_3 C 0.8634(4) 0.6605(4) 0.1514(4)
H34_3 H 0.9126 0.6586 0.1319
C42_3 C 0.7582(5) 0.9867(4) 0.0470(4)
C43_3 C 0.8382(4) 0.8830(5) 0.0625(3)
H37_3 H 0.8855 0.8600 0.0562
C44_3 C 0.8523(4) 0.6945(4) 0.2156(4)
H38_3 H 0.8936 0.7152 0.2398
C45_3 C 0.8833(3) 0.2150(3) 0.3219(3)
H39_3 H 0.9141 0.1741 0.3293
C46_3 C 0.6035(4) 0.3597(5) 0.3975(3)
H40_3 H 0.5544 0.3404 0.4039
C47_3 C 0.8269(5) 0.9544(5) 0.0385(4)
H41_3 H 0.8669 0.9795 0.0166
C48_3 C 0.6871(4) 0.4677(4) 0.1626(5)
H42_3 H 0.7298 0.4910 0.1870
H43_3 H 0.6487 0.4548 0.1978
C49_3 C 0.7179(4) 0.6619(4) 0.2066(4)
H44_3 H 0.6686 0.6621 0.2258
C50_3 C 0.7372(4) 0.3477(3) 0.1846(4)
H45_3 H 0.6963 0.3411 0.2189
H46_3 H 0.7445 0.3016 0.1601
C51_3 C 0.7127(5) 0.4061(4) 0.1309(5)
H47_3 H 0.7563 0.4180 0.1009
H48_3 H 0.6722 0.3865 0.1011
C52_3 C 0.8022(4) 0.6290(4) 0.1154(3)
H49_3 H 0.8104 0.6085 0.0711
C54_3 C 0.7782(4) 0.6974(4) 0.2436(4)
H51_3 H 0.7684 0.7220 0.2857
O1_3 O 0.70906(18) 0.7374(2) 0.9840(2)
O3_2 O 0.99760(19) 0.7677(2) 0.9968(2)
O5_3 O 0.88135(18) 0.5469(2) 0.7877(2)
O6_3 O 0.65774(19) 0.6658(2) 0.9030(2)
C1_3 C 0.9306(3) 0.6785(3) 0.9255(3)
C3_3 C 0.8779(3) 0.6001(3) 0.8397(3)
C4_3 C 0.8579(3) 0.7045(3) 0.9433(3)
H1_3 H 0.8517 0.7407 0.9773
C9_3 C 0.9408(3) 0.6280(3) 0.8748(3)
H4_3 H 0.9901 0.6120 0.8634
C12_3 C 0.9453(3) 0.4493(4) 0.7291(4)
H6_3 H 0.9133 0.4122 0.7510
H7_3 H 0.9209 0.4654 0.6857
C14_3 C 0.8043(3) 0.6238(3) 0.8561(3)
H9_3 H 0.7619 0.6055 0.8317
C17_3 C 0.7946(3) 0.6745(3) 0.9084(3)
C25_3 C 0.9577(3) 0.5123(4) 0.7785(3)
H19_3 H 0.9775 0.4953 0.8235
H20_3 H 0.9941 0.5467 0.7584
C29_3 C 0.7128(3) 0.6948(3) 0.9330(4)
C59_3 C 0.9865(3) 0.2910(3) 0.5703(3)
C61_3 C 0.9702(3) 0.3373(3) 0.6276(3)
H54_3 H 0.9196 0.3431 0.6428
C62_3 C 0.9206(3) 0.2575(4) 0.5317(3)
O11_2 O 0.55961(19) 0.83175(19) 0.9687(2)
O12_2 O 0.49760(19) 0.7323(2) 0.9968(2)
N4_4 N 0.3329(2) 0.1887(3) 0.2764(2)
N5_2 N 0.3309(2) 0.2601(2) 0.3694(2)
C5_4 C 0.2354(3) 0.1540(4) 0.3671(3)
C15_4 C 0.1636(3) 0.1829(3) 0.3763(3)
H10_4 H 0.1556 0.2324 0.3680
C21_4 C 0.3005(3) 0.2020(3) 0.3394(3)
H16_4 H 0.0710 0.0395 0.0590
C28_4 C 0.3104(4) 0.1327(3) 0.2228(3)
H23_4 H 0.3517 0.1275 0.1886
H24_4 H 0.3037 0.0860 0.2461
C33_4 C 0.3858(3) 0.2443(4) 0.2637(3)
H27_4 H 0.4160 0.2515 0.2236
C34_4 C 0.2495(4) 0.0810(4) 0.3818(3)
H28_4 H 0.2990 0.0617 0.3784
C37_4 C 0.1891(5) 0.0383(4) 0.4011(4)
C38_4 C 0.1189(5) 0.0662(5) 0.4093(4)
H32_4 H 0.0789 0.0357 0.4233
C45_4 C 0.3833(3) 0.2850(3) 0.3219(3)
H39_4 H 0.4141 0.3259 0.3293
C46_4 C 0.1035(4) 0.1403(5) 0.3975(3)
H40_4 H 0.0544 0.1596 0.4039
C48_4 C 0.1871(4) 0.0323(4) 0.1626(5)
H42_4 H 0.2298 0.0090 0.1870
H43_4 H 0.1487 0.0452 0.1978
C50_4 C 0.2372(4) 0.1523(3) 0.1846(4)
H45_4 H 0.1963 0.1589 0.2189
H46_4 H 0.2445 0.1984 0.1601
C51_4 C 0.2127(5) 0.0939(4) 0.1309(5)
H47_4 H 0.2563 0.0820 0.1009
H48_4 H 0.1722 0.1135 0.1011
O4_4 O 0.51823(19) 0.0771(2) 0.7161(2)
C12_4 C 0.4453(3) 0.0507(4) 0.7291(4)
H6_4 H 0.4133 0.0878 0.7510
H7_4 H 0.4209 0.0346 0.6857
H19_4 H 0.4775 0.0047 0.8235
C55_4 C 0.6056(3) 0.1339(3) 0.6386(3)
H52_4 H 0.6452 0.1091 0.6614
C56_4 C 0.6214(3) 0.1786(3) 0.5831(3)
C57_4 C 0.5291(3) 0.1255(3) 0.6614(3)
C58_4 C 0.7006(3) 0.1819(3) 0.5534(4)
C59_4 C 0.4865(3) 0.2090(3) 0.5703(3)
C60_4 C 0.5617(3) 0.2180(3) 0.5495(3)
H53_4 H 0.5734 0.2502 0.5130
C61_4 C 0.4702(3) 0.1627(3) 0.6276(3)
H54_4 H 0.4196 0.1569 0.6428
O8_4 O 0.7536(2) 0.1491(2) 0.5838(2)
C62_4 C 0.4206(3) 0.2425(4) 0.5317(3)
O9_2 O 0.3594(2) 0.21072(19) 0.5266(2)
O10_2 O 0.43132(19) 0.3049(2) 0.5035(2)
N1_4 N 0.2583(2) 0.5277(3) 0.4330(2)
N2_4 N 0.1245(2) 0.6330(3) 0.2124(3)
N3_4 N 0.3098(3) 0.4173(2) 0.4415(2)
N6_4 N 0.1143(3) 0.8747(2) 0.0667(2)
N7_4 N 0.1084(3) 0.7133(2) 0.1263(2)
C6_4 C 0.2080(3) 0.6166(4) 0.1062(3)
C7_4 C 0.1472(3) 0.6541(3) 0.1461(3)
C8_4 C 0.2086(3) 0.5886(3) 0.4158(3)
H2_4 H 0.1568 0.5702 0.4084
H3_4 H 0.2070 0.6213 0.4561
N8_4 N 0.1522(3) 0.9786(3) 0.1107(3)
C10_4 C 0.2497(3) 0.4550(3) 0.4202(3)
C11_4 C 0.2776(3) 0.6532(4) 0.0959(3)
H5_4 H 0.2836 0.7012 0.1112
C13_4 C 0.3609(3) 0.4685(3) 0.4675(3)
H8_4 H 0.4090 0.4576 0.4864
C16_4 C 0.1818(3) 0.4246(3) 0.3856(3)
C18_4 C 0.2317(3) 0.6314(3) 0.3522(3)
H11_4 H 0.1962 0.6718 0.3462
H12_4 H 0.2827 0.6517 0.3599
C19_4 C 0.1551(3) 0.5708(3) 0.2528(3)
H13_4 H 0.1188 0.5580 0.2897
H14_4 H 0.1602 0.5291 0.2216
C20_4 C 0.3317(3) 0.5358(3) 0.4619(3)
H15_4 H 0.3556 0.5793 0.4747
C22_4 C 0.2300(3) 0.8722(3) 0.1442(4)
C23_4 C 0.0920(4) 0.9937(4) 0.0680(4)
C24_4 C 0.2327(3) 0.5871(4) 0.2860(3)
H17_4 H 0.2641 0.6124 0.2514
H18_4 H 0.2579 0.5409 0.2962
C26_4 C 0.2014(4) 0.5465(4) 0.0807(4)
H21_4 H 0.1553 0.5215 0.0874
C27_4 C 0.0679(3) 0.9287(3) 0.0405(3)
H22_4 H 0.0270 0.9222 0.0093
C30_4 C 0.0688(3) 0.6829(4) 0.2327(4)
H25_4 H 0.0427 0.6825 0.2757
C31_4 C 0.0580(3) 0.7317(4) 0.1813(4)
H26_4 H 0.0236 0.7706 0.1819
C32_4 C 0.1662(3) 0.9068(3) 0.1078(3)
C35_4 C 0.1305(5) 0.3611(4) 0.2836(4)
H29_4 H 0.1370 0.3380 0.2403
C36_4 C 0.1093(4) 0.4292(3) 0.4144(3)
H30_4 H 0.1020 0.4523 0.4576
H31_4 H 0.1968 0.9887 0.4086
C39_4 C 0.1921(4) 0.3901(3) 0.3205(4)
H33_4 H 0.2414 0.3865 0.3015
C40_4 C 0.3634(4) 0.8395(4) 0.1514(4)
H34_4 H 0.4126 0.8414 0.1319
C41_4 C 0.0456(4) 0.3985(5) 0.3780(5)
C42_4 C 0.2582(5) 0.5133(4) 0.0470(4)
H36_4 H 0.2504 0.4666 0.0290
C43_4 C 0.3382(4) 0.6170(5) 0.0625(3)
H37_4 H 0.3855 0.6400 0.0562
C44_4 C 0.3523(4) 0.8055(4) 0.2156(4)
H38_4 H 0.3936 0.7848 0.2398
C47_4 C 0.3269(5) 0.5456(5) 0.0385(4)
H41_4 H 0.3669 0.5205 0.0166
C49_4 C 0.2179(4) 0.8381(4) 0.2066(4)
H44_4 H 0.1686 0.8379 0.2258
C52_4 C 0.3022(4) 0.8710(4) 0.1154(3)
H49_4 H 0.3104 0.8915 0.0711
C53_4 C 0.0590(5) 0.3681(4) 0.3142(5)
H50_4 H 0.0168 0.3505 0.2890
C54_4 C 0.2782(4) 0.8026(4) 0.2436(4)
H51_4 H 0.2684 0.7780 0.2857
O1_4 O 0.20906(18) 0.7626(2) 0.9840(2)
O5_4 O 0.38135(18) 0.9531(2) 0.7877(2)
O6_4 O 0.15774(19) 0.8342(2) 0.9030(2)
C1_4 C 0.4306(3) 0.8215(3) 0.9255(3)
C2_4 C 0.5002(3) 0.7936(3) 0.9661(3)
C3_4 C 0.3779(3) 0.8999(3) 0.8397(3)
C4_4 C 0.3579(3) 0.7955(3) 0.9433(3)
H1_4 H 0.3517 0.7593 0.9773
C9_4 C 0.4408(3) 0.8720(3) 0.8748(3)
H4_4 H 0.4901 0.8880 0.8634
C14_4 C 0.3043(3) 0.8762(3) 0.8561(3)
H9_4 H 0.2619 0.8945 0.8317
C17_4 C 0.2946(3) 0.8255(3) 0.9084(3)
C25_4 C 0.4577(3) 0.9877(4) 0.7785(3)
H20_4 H 0.4941 0.9533 0.7584
C29_4 C 0.2128(3) 0.8052(3) 0.9330(4)
H35_4 H 0.9963 0.3993 0.3974
loop_
_geom_bond_atom_site_label_1
_geom_bond_atom_site_label_2
_geom_bond_site_symmetry_1
_geom_bond_site_symmetry_2
O1 C29 1_555 1_555
O2 C2 1_555 1_555
O3 C2 1_555 1_555
O4 C12 1_555 1_555
O5 C3 1_555 1_555
O6 C29 1_555 1_555
C1 C2 1_555 1_555
C3 C9 1_555 1_555
C4 C1 1_555 1_555
H1 C4 1_555 1_555
C9 C1 1_555 1_555
H4 C9 1_555 1_555
C12 H6 1_555 1_555
H7 C12 1_555 1_555
C14 C3 1_555 1_555
H9 C14 1_555 1_555
C17 C4 1_555 1_555
C25 O5 1_555 1_555
H19 C25 1_555 1_555
H20 C25 1_555 1_555
C29 C17 1_555 1_555
C55 H52 1_555 1_555
C56 C55 1_555 1_555
C57 O4 1_555 1_555
C58 C56 1_555 1_555
C59 C60 1_555 1_555
C60 C56 1_555 1_555
H53 C60 1_555 1_555
C61 C57 1_555 1_555
H54 C61 1_555 1_555
O7 C58 1_555 1_555
O8 C58 1_555 1_555
C62 C59 1_555 1_555
O9 C62 1_555 1_555
O10 C62 1_555 1_555
Co5 O7 1_555 1_555
Co6 O9 1_555 1_555
C12 C25 1_555 1_555
C14 C17 1_555 1_555
C55 C57 1_555 1_555
C59 C61 1_555 1_555
O10 Co6 1_555 1_555
N1 C8 1_555 1_555
N2 C7 1_555 1_555
N4 C21 1_555 1_555
N5 C21 1_555 1_555
N6 Co1 1_555 1_555
N7 Co1 1_555 1_555
C5 C15 1_555 1_555
C6 C7 1_555 1_555
C7 N7 1_555 1_555
C8 H2 1_555 1_555
H3 C8 1_555 1_555
N8 C23 1_555 1_555
C11 C6 1_555 1_555
H5 C11 1_555 1_555
C15 H10 1_555 1_555
C18 C8 1_555 1_555
H11 C18 1_555 1_555
H12 C18 1_555 1_555
C19 N2 1_555 1_555
H13 C19 1_555 1_555
H14 C19 1_555 1_555
C20 N1 1_555 1_555
H15 C20 1_555 1_555
C21 C5 1_555 1_555
C22 C32 1_555 1_555
C23 H16 1_555 1_555
C24 C18 1_555 1_555
H17 C24 1_555 1_555
H18 C24 1_555 1_555
C26 C6 1_555 1_555
H21 C26 1_555 1_555
C27 N6 1_555 1_555
H22 C27 1_555 1_555
C28 N4 1_555 1_555
H23 C28 1_555 1_555
H24 C28 1_555 1_555
C30 N2 1_555 1_555
H25 C30 1_555 1_555
C31 N7 1_555 1_555
H26 C31 1_555 1_555
C32 N6 1_555 1_555
C33 N4 1_555 1_555
H27 C33 1_555 1_555
C34 C5 1_555 1_555
H28 C34 1_555 1_555
C37 C34 1_555 1_555
H31 C37 1_555 1_555
C38 C37 1_555 1_555
H32 C38 1_555 1_555
C40 H34 1_555 1_555
C42 C26 1_555 1_555
C43 C11 1_555 1_555
H37 C43 1_555 1_555
C44 C40 1_555 1_555
H38 C44 1_555 1_555
C45 N5 1_555 1_555
H39 C45 1_555 1_555
C46 C15 1_555 1_555
H40 C46 1_555 1_555
C47 C42 1_555 1_555
H41 C47 1_555 1_555
C48 N8 1_555 1_555
H42 C48 1_555 1_555
H43 C48 1_555 1_555
C49 C22 1_555 1_555
H44 C49 1_555 1_555
C50 C28 1_555 1_555
H45 C50 1_555 1_555
H46 C50 1_555 1_555
C51 C48 1_555 1_555
H47 C51 1_555 1_555
H48 C51 1_555 1_555
C52 C22 1_555 1_555
H49 C52 1_555 1_555
C54 C44 1_555 1_555
H51 C54 1_555 1_555
Co6 N5 1_555 1_555
N8 C32 1_555 1_555
C19 C24 1_555 1_555
C23 C27 1_555 1_555
C30 C31 1_555 1_555
C33 C45 1_555 1_555
C38 C46 1_555 1_555
C40 C52 1_555 1_555
C43 C47 1_555 1_555
C49 C54 1_555 1_555
C50 C51 1_555 1_555
Co6 N3 1_555 1_555
N3 C10 1_555 1_555
C13 N3 1_555 1_555
H8 C13 1_555 1_555
C16 C10 1_555 1_555
C35 H29 1_555 1_555
C36 C16 1_555 1_555
H30 C36 1_555 1_555
C39 C16 1_555 1_555
H33 C39 1_555 1_555
C41 C36 1_555 1_555
C53 C35 1_555 1_555
H50 C53 1_555 1_555
O13 Co6 1_555 1_555
C35 C39 1_555 1_555
C41 C53 1_555 1_555
O11 C2_2 1_555 1_555
C55_2 H52_2 1_555 1_555
C56_2 C55_2 1_555 1_555
C57_2 O4_2 1_555 1_555
C58_2 C56_2 1_555 1_555
C60_2 C56_2 1_555 1_555
H53_2 C60_2 1_555 1_555
O13 C58_2 1_555 1_555
O8_2 C58_2 1_555 1_555
C55_2 C57_2 1_555 1_555
O1_2 C29_2 1_555 1_555
O5_2 C3_2 1_555 1_555
O6_2 C29_2 1_555 1_555
C3_2 C9_2 1_555 1_555
C4_2 C1_2 1_555 1_555
H1_2 C4_2 1_555 1_555
C9_2 C1_2 1_555 1_555
H4_2 C9_2 1_555 1_555
C14_2 C3_2 1_555 1_555
H9_2 C14_2 1_555 1_555
C17_2 C4_2 1_555 1_555
C25_2 O5_2 1_555 1_555
H20_2 C25_2 1_555 1_555
C29_2 C17_2 1_555 1_555
C14_2 C17_2 1_555 1_555
Co5 N3_2 1_555 1_555
N1_2 C8_2 1_555 1_555
N2_2 C7_2 1_555 1_555
N3_2 C10_2 1_555 1_555
N6_2 Co3 1_555 1_555
N7_2 Co3 1_555 1_555
C6_2 C7_2 1_555 1_555
C7_2 N7_2 1_555 1_555
C8_2 H2_2 1_555 1_555
H3_2 C8_2 1_555 1_555
N8_2 C23_2 1_555 1_555
C10_2 N1_2 1_555 1_555
C11_2 C6_2 1_555 1_555
H5_2 C11_2 1_555 1_555
C13_2 N3_2 1_555 1_555
H8_2 C13_2 1_555 1_555
C16_2 C10_2 1_555 1_555
C18_2 C8_2 1_555 1_555
H11_2 C18_2 1_555 1_555
H12_2 C18_2 1_555 1_555
C19_2 N2_2 1_555 1_555
H13_2 C19_2 1_555 1_555
H14_2 C19_2 1_555 1_555
C20_2 N1_2 1_555 1_555
H15_2 C20_2 1_555 1_555
C22_2 C32_2 1_555 1_555
C24_2 C18_2 1_555 1_555
H17_2 C24_2 1_555 1_555
H18_2 C24_2 1_555 1_555
C26_2 C6_2 1_555 1_555
H21_2 C26_2 1_555 1_555
C27_2 N6_2 1_555 1_555
H22_2 C27_2 1_555 1_555
C30_2 N2_2 1_555 1_555
H25_2 C30_2 1_555 1_555
C31_2 N7_2 1_555 1_555
H26_2 C31_2 1_555 1_555
C32_2 N6_2 1_555 1_555
C35_2 H29_2 1_555 1_555
C36_2 C16_2 1_555 1_555
H30_2 C36_2 1_555 1_555
C39_2 C16_2 1_555 1_555
H33_2 C39_2 1_555 1_555
C40_2 H34_2 1_555 1_555
C41_2 C36_2 1_555 1_555
H35 C41_2 1_555 1_555
C42_2 C26_2 1_555 1_555
H36_2 C42_2 1_555 1_555
C43_2 C11_2 1_555 1_555
H37_2 C43_2 1_555 1_555
C44_2 C40_2 1_555 1_555
H38_2 C44_2 1_555 1_555
C47_2 C42_2 1_555 1_555
H41_2 C47_2 1_555 1_555
C49_2 C22_2 1_555 1_555
H44_2 C49_2 1_555 1_555
C52_2 C22_2 1_555 1_555
H49_2 C52_2 1_555 1_555
C53_2 C35_2 1_555 1_555
H50_2 C53_2 1_555 1_555
C54_2 C44_2 1_555 1_555
H51_2 C54_2 1_555 1_555
N9 Co5 1_555 1_555
O14 Co5 1_555 1_555
O15 Co5 1_555 1_555
N8_2 C32_2 1_555 1_555
C13_2 C20_2 1_555 1_555
C19_2 C24_2 1_555 1_555
C23_2 C27_2 1_555 1_555
C30_2 C31_2 1_555 1_555
C35_2 C39_2 1_555 1_555
C40_2 C52_2 1_555 1_555
C41_2 C53_2 1_555 1_555
C43_2 C47_2 1_555 1_555
C49_2 C54_2 1_555 1_555
C12_2 H6_2 1_555 1_555
H7_2 C12_2 1_555 1_555
H54_2 C61_2 1_555 1_555
C62_2 C59_2 1_555 1_555
O14 C62_2 1_555 1_555
O15 C62_2 1_555 1_555
C59_2 C61_2 1_555 1_555
N4_2 C21_2 1_555 1_555
N9 C21_2 1_555 1_555
C5_2 C15_2 1_555 1_555
C15_2 H10_2 1_555 1_555
C21_2 C5_2 1_555 1_555
C28_2 N4_2 1_555 1_555
H23_2 C28_2 1_555 1_555
H24_2 C28_2 1_555 1_555
C33_2 N4_2 1_555 1_555
H27_2 C33_2 1_555 1_555
C34_2 C5_2 1_555 1_555
H28_2 C34_2 1_555 1_555
C37_2 C34_2 1_555 1_555
C38_2 C37_2 1_555 1_555
H32_2 C38_2 1_555 1_555
C45_2 N9 1_555 1_555
H39_2 C45_2 1_555 1_555
C46_2 C15_2 1_555 1_555
H40_2 C46_2 1_555 1_555
H42_2 C48_2 1_555 1_555
H43_2 C48_2 1_555 1_555
C50_2 C28_2 1_555 1_555
H45_2 C50_2 1_555 1_555
H46_2 C50_2 1_555 1_555
C51_2 C48_2 1_555 1_555
H47_2 C51_2 1_555 1_555
H48_2 C51_2 1_555 1_555
C33_2 C45_2 1_555 1_555
C38_2 C46_2 1_555 1_555
C50_2 C51_2 1_555 1_555
O2_2 C2_3 1_555 1_555
C55_3 H52_3 1_555 1_555
C56_3 C55_3 1_555 1_555
C57_3 O4_3 1_555 1_555
C58_3 C56_3 1_555 1_555
C60_3 C56_3 1_555 1_555
H53_3 C60_3 1_555 1_555
O7_2 C58_3 1_555 1_555
O8_3 C58_3 1_555 1_555
Co5_2 O7_2 1_555 1_555
C55_3 C57_3 1_555 1_555
Co2 N3_3 1_555 1_555
N3_3 C10_3 1_555 1_555
C13_3 N3_3 1_555 1_555
H8_3 C13_3 1_555 1_555
C16_3 C10_3 1_555 1_555
C35_3 H29_3 1_555 1_555
C36_3 C16_3 1_555 1_555
H30_3 C36_3 1_555 1_555
C39_3 C16_3 1_555 1_555
H33_3 C39_3 1_555 1_555
C41_3 C36_3 1_555 1_555
H35_3 C41_3 1_555 1_555
C53_3 C35_3 1_555 1_555
H50_3 C53_3 1_555 1_555
N9_2 Co2 1_555 1_555
O13_2 Co2 1_555 1_555
O14_2 Co2 1_555 1_555
O15_2 Co2 1_555 1_555
C35_3 C39_3 1_555 1_555
C41_3 C53_3 1_555 1_555
N1_3 C8_3 1_555 1_555
N2_3 C7_3 1_555 1_555
N4_3 C21_3 1_555 1_555
N9_2 C21_3 1_555 1_555
N6_3 Co1_2 1_555 1_555
N7_3 Co1_2 1_555 1_555
C5_3 C15_3 1_555 1_555
C6_3 C7_3 1_555 1_555
C7_3 N7_3 1_555 1_555
C8_3 H2_3 1_555 1_555
H3_3 C8_3 1_555 1_555
N8_3 C23_3 1_555 1_555
C11_3 C6_3 1_555 1_555
H5_3 C11_3 1_555 1_555
C15_3 H10_3 1_555 1_555
C18_3 C8_3 1_555 1_555
H11_3 C18_3 1_555 1_555
H12_3 C18_3 1_555 1_555
C19_3 N2_3 1_555 1_555
H13_3 C19_3 1_555 1_555
H14_3 C19_3 1_555 1_555
C20_3 N1_3 1_555 1_555
H15_3 C20_3 1_555 1_555
C21_3 C5_3 1_555 1_555
C22_3 C32_3 1_555 1_555
C23_3 H16_3 1_555 1_555
C24_3 C18_3 1_555 1_555
H17_3 C24_3 1_555 1_555
H18_3 C24_3 1_555 1_555
C26_3 C6_3 1_555 1_555
H21_3 C26_3 1_555 1_555
C27_3 N6_3 1_555 1_555
H22_3 C27_3 1_555 1_555
C28_3 N4_3 1_555 1_555
H23_3 C28_3 1_555 1_555
H24_3 C28_3 1_555 1_555
C30_3 N2_3 1_555 1_555
H25_3 C30_3 1_555 1_555
C31_3 N7_3 1_555 1_555
H26_3 C31_3 1_555 1_555
C32_3 N6_3 1_555 1_555
C33_3 N4_3 1_555 1_555
H27_3 C33_3 1_555 1_555
C34_3 C5_3 1_555 1_555
H28_3 C34_3 1_555 1_555
C37_3 C34_3 1_555 1_555
H31_3 C37_3 1_555 1_555
C38_3 C37_3 1_555 1_555
H32_3 C38_3 1_555 1_555
C40_3 H34_3 1_555 1_555
C42_3 C26_3 1_555 1_555
C43_3 C11_3 1_555 1_555
H37_3 C43_3 1_555 1_555
C44_3 C40_3 1_555 1_555
H38_3 C44_3 1_555 1_555
C45_3 N9_2 1_555 1_555
H39_3 C45_3 1_555 1_555
C46_3 C15_3 1_555 1_555
H40_3 C46_3 1_555 1_555
C47_3 C42_3 1_555 1_555
H41_3 C47_3 1_555 1_555
C48_3 N8_3 1_555 1_555
H42_3 C48_3 1_555 1_555
H43_3 C48_3 1_555 1_555
C49_3 C22_3 1_555 1_555
H44_3 C49_3 1_555 1_555
C50_3 C28_3 1_555 1_555
H45_3 C50_3 1_555 1_555
H46_3 C50_3 1_555 1_555
C51_3 C48_3 1_555 1_555
H47_3 C51_3 1_555 1_555
H48_3 C51_3 1_555 1_555
C52_3 C22_3 1_555 1_555
H49_3 C52_3 1_555 1_555
C54_3 C44_3 1_555 1_555
H51_3 C54_3 1_555 1_555
N8_3 C32_3 1_555 1_555
C19_3 C24_3 1_555 1_555
C23_3 C27_3 1_555 1_555
C30_3 C31_3 1_555 1_555
C33_3 C45_3 1_555 1_555
C38_3 C46_3 1_555 1_555
C40_3 C52_3 1_555 1_555
C43_3 C47_3 1_555 1_555
C49_3 C54_3 1_555 1_555
C50_3 C51_3 1_555 1_555
O1_3 C29_3 1_555 1_555
O5_3 C3_3 1_555 1_555
O6_3 C29_3 1_555 1_555
C3_3 C9_3 1_555 1_555
C4_3 C1_3 1_555 1_555
H1_3 C4_3 1_555 1_555
C9_3 C1_3 1_555 1_555
H4_3 C9_3 1_555 1_555
C12_3 H6_3 1_555 1_555
H7_3 C12_3 1_555 1_555
C14_3 C3_3 1_555 1_555
H9_3 C14_3 1_555 1_555
C17_3 C4_3 1_555 1_555
C25_3 O5_3 1_555 1_555
H19_3 C25_3 1_555 1_555
H20_3 C25_3 1_555 1_555
C29_3 C17_3 1_555 1_555
H54_3 C61_3 1_555 1_555
C62_3 C59_3 1_555 1_555
O14_2 C62_3 1_555 1_555
O15_2 C62_3 1_555 1_555
C12_3 C25_3 1_555 1_555
C14_3 C17_3 1_555 1_555
C59_3 C61_3 1_555 1_555
N4_4 C21_4 1_555 1_555
N5_2 C21_4 1_555 1_555
C5_4 C15_4 1_555 1_555
C15_4 H10_4 1_555 1_555
C21_4 C5_4 1_555 1_555
C28_4 N4_4 1_555 1_555
H23_4 C28_4 1_555 1_555
H24_4 C28_4 1_555 1_555
C33_4 N4_4 1_555 1_555
H27_4 C33_4 1_555 1_555
C34_4 C5_4 1_555 1_555
H28_4 C34_4 1_555 1_555
C37_4 C34_4 1_555 1_555
C38_4 C37_4 1_555 1_555
H32_4 C38_4 1_555 1_555
C45_4 N5_2 1_555 1_555
H39_4 C45_4 1_555 1_555
C46_4 C15_4 1_555 1_555
H40_4 C46_4 1_555 1_555
H42_4 C48_4 1_555 1_555
H43_4 C48_4 1_555 1_555
C50_4 C28_4 1_555 1_555
H45_4 C50_4 1_555 1_555
H46_4 C50_4 1_555 1_555
C51_4 C48_4 1_555 1_555
H47_4 C51_4 1_555 1_555
H48_4 C51_4 1_555 1_555
Co5_2 N5_2 1_555 1_555
C33_4 C45_4 1_555 1_555
C38_4 C46_4 1_555 1_555
C50_4 C51_4 1_555 1_555
O4_4 C12_4 1_555 1_555
C12_4 H6_4 1_555 1_555
H7_4 C12_4 1_555 1_555
C55_4 H52_4 1_555 1_555
C56_4 C55_4 1_555 1_555
C57_4 O4_4 1_555 1_555
C58_4 C56_4 1_555 1_555
C59_4 C60_4 1_555 1_555
C60_4 C56_4 1_555 1_555
H53_4 C60_4 1_555 1_555
C61_4 C57_4 1_555 1_555
H54_4 C61_4 1_555 1_555
O13_2 C58_4 1_555 1_555
O8_4 C58_4 1_555 1_555
C62_4 C59_4 1_555 1_555
O9_2 C62_4 1_555 1_555
O10_2 C62_4 1_555 1_555
Co5_2 O9_2 1_555 1_555
C55_4 C57_4 1_555 1_555
C59_4 C61_4 1_555 1_555
O10_2 Co5_2 1_555 1_555
Co5_2 N3_4 1_555 1_555
N1_4 C8_4 1_555 1_555
N2_4 C7_4 1_555 1_555
N3_4 C10_4 1_555 1_555
N6_4 Co3_2 1_555 1_555
N7_4 Co3_2 1_555 1_555
C6_4 C7_4 1_555 1_555
C7_4 N7_4 1_555 1_555
C8_4 H2_4 1_555 1_555
H3_4 C8_4 1_555 1_555
N8_4 C23_4 1_555 1_555
C10_4 N1_4 1_555 1_555
C11_4 C6_4 1_555 1_555
H5_4 C11_4 1_555 1_555
C13_4 N3_4 1_555 1_555
H8_4 C13_4 1_555 1_555
C16_4 C10_4 1_555 1_555
C18_4 C8_4 1_555 1_555
H11_4 C18_4 1_555 1_555
H12_4 C18_4 1_555 1_555
C19_4 N2_4 1_555 1_555
H13_4 C19_4 1_555 1_555
H14_4 C19_4 1_555 1_555
C20_4 N1_4 1_555 1_555
H15_4 C20_4 1_555 1_555
C22_4 C32_4 1_555 1_555
C24_4 C18_4 1_555 1_555
H17_4 C24_4 1_555 1_555
H18_4 C24_4 1_555 1_555
C26_4 C6_4 1_555 1_555
H21_4 C26_4 1_555 1_555
C27_4 N6_4 1_555 1_555
H22_4 C27_4 1_555 1_555
C30_4 N2_4 1_555 1_555
H25_4 C30_4 1_555 1_555
C31_4 N7_4 1_555 1_555
H26_4 C31_4 1_555 1_555
C32_4 N6_4 1_555 1_555
C35_4 H29_4 1_555 1_555
C36_4 C16_4 1_555 1_555
H30_4 C36_4 1_555 1_555
C39_4 C16_4 1_555 1_555
H33_4 C39_4 1_555 1_555
C40_4 H34_4 1_555 1_555
C41_4 C36_4 1_555 1_555
C42_4 C26_4 1_555 1_555
H36_4 C42_4 1_555 1_555
C43_4 C11_4 1_555 1_555
H37_4 C43_4 1_555 1_555
C44_4 C40_4 1_555 1_555
H38_4 C44_4 1_555 1_555
C47_4 C42_4 1_555 1_555
H41_4 C47_4 1_555 1_555
C49_4 C22_4 1_555 1_555
H44_4 C49_4 1_555 1_555
C52_4 C22_4 1_555 1_555
H49_4 C52_4 1_555 1_555
C53_4 C35_4 1_555 1_555
H50_4 C53_4 1_555 1_555
C54_4 C44_4 1_555 1_555
H51_4 C54_4 1_555 1_555
N8_4 C32_4 1_555 1_555
C13_4 C20_4 1_555 1_555
C19_4 C24_4 1_555 1_555
C23_4 C27_4 1_555 1_555
C30_4 C31_4 1_555 1_555
C35_4 C39_4 1_555 1_555
C40_4 C52_4 1_555 1_555
C41_4 C53_4 1_555 1_555
C43_4 C47_4 1_555 1_555
C49_4 C54_4 1_555 1_555
O1_4 C29_4 1_555 1_555
O11_2 C2_4 1_555 1_555
O12_2 C2_4 1_555 1_555
O5_4 C3_4 1_555 1_555
O6_4 C29_4 1_555 1_555
C1_4 C2_4 1_555 1_555
C3_4 C9_4 1_555 1_555
C4_4 C1_4 1_555 1_555
H1_4 C4_4 1_555 1_555
C9_4 C1_4 1_555 1_555
H4_4 C9_4 1_555 1_555
C14_4 C3_4 1_555 1_555
H9_4 C14_4 1_555 1_555
C17_4 C4_4 1_555 1_555
C25_4 O5_4 1_555 1_555
H20_4 C25_4 1_555 1_555
C29_4 C17_4 1_555 1_555
C14_4 C17_4 1_555 1_555

#END
