
###############################################################################
#
# This file contains modified crystal structure data generated from the
# MOF subset of the Cambridge Structural Database (CSD) v543 
# hosted by the Cambridge Crystallographic Data Centre (CCDC).
#
# This work is licensed under the Creative Commons
# Attribution-NonCommercial-ShareAlike 4.0 International License.
# To view a copy of this license, visit
# http://creativecommons.org/licenses/by-nc-sa/4.0/
# or send a letter to
# Creative Commons, PO Box 1866, Mountain View, CA 94042, USA.
#
# CIF created using the CSD Python API on 29 September 2022
# The structure has been converted into the P1 space group
# The structure has a 3D framework
# The original CSD entry ISIWOZ is in the tetragonal crystal system
# The framework has been calculated to contain at least 10.0% void space
# The void calculation uses a probe of radius 1.32A, grid spacing 0.4
#
###############################################################################

data_ISIWOZ
_chemical_formula_moiety         '(C144 H96 N90 O48 Zn16)n'
_symmetry_cell_setting           triclinic
_symmetry_space_group_name_H-M   'P 1'
_symmetry_Int_Tables_number      1
_space_group_name_Hall           'P 1'
loop_
_symmetry_equiv_pos_site_id
_symmetry_equiv_pos_as_xyz
1 x,y,z
_cell_length_a                   16.1705(7)
_cell_length_b                   16.1705(7)
_cell_length_c                   21.3336(11)
_cell_angle_alpha                90
_cell_angle_beta                 90
_cell_angle_gamma                90
_cell_volume                     5578.42
loop_
_atom_site_label
_atom_site_type_symbol
_atom_site_fract_x
_atom_site_fract_y
_atom_site_fract_z
Zn1 Zn 0.34382(6) 0.41725(5) 0.79356(4)
O1 O 0.4577(4) 0.3633(4) 0.7992(3)
O2 O 0.5819(4) 0.4128(5) 0.7881(3)
O3 O 0.4755(4) 0.4921(4) 0.7779(3)
N1 N 0.3076(4) 0.4462(4) 0.7073(3)
N2 N 0.2437(4) 0.4414(4) 0.6121(3)
N3 N 0.2612(4) 0.3149(4) 0.6702(3)
N4 N 0.3004(4) 0.1854(4) 0.6753(3)
N5 N 0.2159(5) 0.1909(4) 0.6840(3)
C1 C 0.2679(5) 0.4023(5) 0.6639(4)
C2 C 0.2704(5) 0.5225(5) 0.6223(4)
C3 C 0.2638(6) 0.5916(5) 0.5846(4)
H1 H 0.237906 0.589392 0.544698
C4 C 0.2974(6) 0.6654(6) 0.6085(5)
H2 H 0.293651 0.714584 0.584323
C5 C 0.3359(7) 0.6678(5) 0.6665(5)
H3 H 0.357529 0.718909 0.681159
C6 C 0.3439(5) 0.5975(5) 0.7042(4)
H4 H 0.371239 0.599240 0.743548
C7 C 0.3098(5) 0.5256(5) 0.6809(4)
N6 N 0.5072(5) 0.4248(5) 0.7883(3)
C8 C 0.3269(6) 0.2609(5) 0.6669(4)
H5 H 0.382776 0.276197 0.659623
C9 C 0.1934(5) 0.2679(5) 0.6813(4)
H6 H 0.138576 0.287975 0.686252
Zn2 Zn 0.16725(5) 0.40618(6) 0.54356(4)
Zn3 Zn 0.15618(6) 0.08275(5) 0.70644(4)
N7 N 0.3086(4) 0.4937(4) 0.8621(3)
N8 N 0.2841(5) 0.3091(4) 0.8160(3)
Zn1_2 Zn 0.15618(6) 0.58275(5) 0.29356(4)
O1_2 O 0.0423(4) 0.6367(4) 0.2992(3)
O3_2 O 0.0245(4) 0.5079(4) 0.2779(3)
N1_2 N 0.1924(4) 0.5538(4) 0.2073(3)
N2_2 N 0.2563(4) 0.5586(4) 0.1121(3)
N3_2 N 0.2388(4) 0.6851(4) 0.1702(3)
N4_2 N 0.1996(4) 0.8146(4) 0.1753(3)
N5_2 N 0.2841(5) 0.8091(4) 0.1840(3)
C1_2 C 0.2321(5) 0.5977(5) 0.1639(4)
C2_2 C 0.2296(5) 0.4775(5) 0.1223(4)
C3_2 C 0.2362(6) 0.4084(5) 0.0846(4)
H1_2 H 0.262094 0.410608 0.044698
C4_2 C 0.2026(6) 0.3346(6) 0.1085(5)
H2_2 H 0.206349 0.285416 0.084323
C5_2 C 0.1641(7) 0.3322(5) 0.1665(5)
H3_2 H 0.142471 0.281091 0.181159
C6_2 C 0.1561(5) 0.4025(5) 0.2042(4)
H4_2 H 0.128761 0.400760 0.243548
C7_2 C 0.1902(5) 0.4744(5) 0.1809(4)
C8_2 C 0.1731(6) 0.7391(5) 0.1669(4)
H5_2 H 0.117224 0.723803 0.159623
C9_2 C 0.3066(5) 0.7321(5) 0.1813(4)
H6_2 H 0.361424 0.712025 0.186252
Zn2_2 Zn 0.33275(5) 0.59382(6) 0.04356(4)
Zn3_2 Zn 0.34382(6) 0.91725(5) 0.20644(4)
N7_2 N 0.1914(4) 0.5063(4) 0.3621(3)
N8_2 N 0.2159(5) 0.6909(4) 0.3160(3)
O1_3 O 0.3867(4) 0.7077(4) 0.0492(3)
O2_2 O 0.3372(5) 0.8319(4) 0.0381(3)
O3_3 O 0.2579(4) 0.7255(4) 0.0279(3)
N6_2 N 0.3252(5) 0.7572(5) 0.0383(3)
N8_3 N 0.4409(4) 0.5341(5) 0.0660(3)
N1_3 N 0.3038(4) 0.5576(4) 0.9573(3)
N3_3 N 0.4351(4) 0.5112(4) 0.9202(3)
N4_3 N 0.5646(4) 0.5504(4) 0.9253(3)
N5_3 N 0.5591(4) 0.4659(5) 0.9340(3)
C1_3 C 0.3477(5) 0.5179(5) 0.9139(4)
C2_3 C 0.2275(5) 0.5204(5) 0.8723(4)
C3_3 C 0.1584(5) 0.5138(6) 0.8346(4)
H1_3 H 0.160608 0.487906 0.794698
C4_3 C 0.0846(6) 0.5474(6) 0.8585(5)
H2_3 H 0.035416 0.543651 0.834323
C5_3 C 0.0822(5) 0.5859(7) 0.9165(5)
H3_3 H 0.031091 0.607529 0.931159
C6_3 C 0.1525(5) 0.5939(5) 0.9542(4)
H4_3 H 0.150760 0.621239 0.993548
C7_3 C 0.2244(5) 0.5598(5) 0.9309(4)
C8_3 C 0.4891(5) 0.5769(6) 0.9169(4)
H5_3 H 0.473803 0.632776 0.909623
C9_3 C 0.4821(5) 0.4434(5) 0.9313(4)
H6_3 H 0.462025 0.388576 0.936252
Zn3_3 Zn 0.66725(5) 0.40618(6) 0.95644(4)
O1_4 O 0.1133(4) 0.2923(4) 0.5492(3)
O2_3 O 0.1628(5) 0.1681(4) 0.5381(3)
O3_4 O 0.2421(4) 0.2745(4) 0.5279(3)
N1_4 N 0.1962(4) 0.4424(4) 0.4573(3)
N3_4 N 0.0649(4) 0.4888(4) 0.4202(3)
C1_4 C 0.1523(5) 0.4821(5) 0.4139(4)
C2_4 C 0.2725(5) 0.4796(5) 0.3723(4)
C3_4 C 0.3416(5) 0.4862(6) 0.3346(4)
H1_4 H 0.339392 0.512094 0.294698
C4_4 C 0.4154(6) 0.4526(6) 0.3585(5)
H2_4 H 0.464584 0.456349 0.334323
C5_4 C 0.4178(5) 0.4141(7) 0.4165(5)
H3_4 H 0.468909 0.392471 0.431159
C6_4 C 0.3475(5) 0.4061(5) 0.4542(4)
H4_4 H 0.349240 0.378761 0.493548
C7_4 C 0.2756(5) 0.4402(5) 0.4309(4)
N6_3 N 0.1748(5) 0.2428(5) 0.5383(3)
C8_4 C 0.0109(5) 0.4231(6) 0.4169(4)
H5_4 H 0.026197 0.367224 0.409623
C9_4 C 0.0179(5) 0.5566(5) 0.4313(4)
H6_4 H 0.037975 0.611424 0.436252
N8_4 N 0.0591(4) 0.4659(5) 0.5660(3)
N4_4 N 0.9354(4) 0.4496(4) 0.4253(3)
N5_4 N 0.9409(4) 0.5341(5) 0.4340(3)
Zn3_4 Zn 0.83275(5) 0.59382(6) 0.45644(4)
Zn1_3 Zn 0.84382(6) 0.91725(5) 0.29356(4)
O1_5 O 0.9577(4) 0.8633(4) 0.2992(3)
O3_5 O 0.9755(4) 0.9921(4) 0.2779(3)
N1_5 N 0.8076(4) 0.9462(4) 0.2073(3)
N2_3 N 0.7437(4) 0.9414(4) 0.1121(3)
N3_5 N 0.7612(4) 0.8149(4) 0.1702(3)
N4_5 N 0.8004(4) 0.6854(4) 0.1753(3)
N5_5 N 0.7159(5) 0.6909(4) 0.1840(3)
C1_5 C 0.7679(5) 0.9023(5) 0.1639(4)
C8_5 C 0.8269(6) 0.7609(5) 0.1669(4)
H5_5 H 0.882776 0.776197 0.159623
C9_5 C 0.6934(5) 0.7679(5) 0.1813(4)
H6_5 H 0.638576 0.787975 0.186252
Zn2_3 Zn 0.66725(5) 0.90618(6) 0.04356(4)
Zn3_5 Zn 0.65618(6) 0.58275(5) 0.20644(4)
N7_3 N 0.8086(4) 0.9937(4) 0.3621(3)
N8_5 N 0.7841(5) 0.8091(4) 0.3160(3)
Zn1_4 Zn 0.65618(6) 0.08275(5) 0.79356(4)
O1_6 O 0.5423(4) 0.1367(4) 0.7992(3)
O2_4 O 0.4181(4) 0.0872(5) 0.7881(3)
O3_6 O 0.5245(4) 0.0079(4) 0.7779(3)
N1_6 N 0.6924(4) 0.0538(4) 0.7073(3)
N2_4 N 0.7563(4) 0.0586(4) 0.6121(3)
N3_6 N 0.7388(4) 0.1851(4) 0.6702(3)
N4_6 N 0.6996(4) 0.3146(4) 0.6753(3)
N5_6 N 0.7841(5) 0.3091(4) 0.6840(3)
C1_6 C 0.7321(5) 0.0977(5) 0.6639(4)
N6_4 N 0.4928(5) 0.0752(5) 0.7883(3)
C8_6 C 0.6731(6) 0.2391(5) 0.6669(4)
H5_6 H 0.617224 0.223803 0.659623
C9_6 C 0.8066(5) 0.2321(5) 0.6813(4)
H6_6 H 0.861424 0.212025 0.686252
Zn2_4 Zn 0.83275(5) 0.09382(6) 0.54356(4)
Zn3_6 Zn 0.84382(6) 0.41725(5) 0.70644(4)
N7_4 N 0.6914(4) 0.0063(4) 0.8621(3)
N8_6 N 0.7159(5) 0.1909(4) 0.8160(3)
N5_7 N 0.0591(4) 0.9659(5) 0.4340(3)
Zn3_7 Zn 0.16725(5) 0.90618(6) 0.45644(4)
O1_7 O 0.8867(4) 0.2077(4) 0.5492(3)
O2_5 O 0.8372(5) 0.3319(4) 0.5381(3)
O3_7 O 0.7579(4) 0.2255(4) 0.5279(3)
N1_7 N 0.8038(4) 0.0576(4) 0.4573(3)
N3_7 N 0.9351(4) 0.0112(4) 0.4202(3)
C1_7 C 0.8477(5) 0.0179(5) 0.4139(4)
C2_5 C 0.7275(5) 0.0204(5) 0.3723(4)
C3_5 C 0.6584(5) 0.0138(6) 0.3346(4)
C4_5 C 0.5846(6) 0.0474(6) 0.3585(5)
H2_5 H 0.535416 0.043651 0.334323
C5_5 C 0.5822(5) 0.0859(7) 0.4165(5)
H3_5 H 0.531091 0.107529 0.431159
C6_5 C 0.6525(5) 0.0939(5) 0.4542(4)
H4_5 H 0.650760 0.121239 0.493548
C7_5 C 0.7244(5) 0.0598(5) 0.4309(4)
N6_5 N 0.8252(5) 0.2572(5) 0.5383(3)
C8_7 C 0.9891(5) 0.0769(6) 0.4169(4)
H5_7 H 0.973803 0.132776 0.409623
N8_7 N 0.9409(4) 0.0341(5) 0.5660(3)
H1_5 H 0.660608 0.987906 0.294698
C9_7 C 0.9821(5) 0.9434(5) 0.4313(4)
H6_7 H 0.962025 0.888576 0.436252
N5_8 N 0.4409(4) 0.0341(5) 0.9340(3)
H1_6 H 0.839392 0.012094 0.794698
C9_8 C 0.5179(5) 0.0566(5) 0.9313(4)
H6_8 H 0.537975 0.111424 0.936252
Zn3_8 Zn 0.33275(5) 0.09382(6) 0.95644(4)
O1_8 O 0.6133(4) 0.7923(4) 0.0492(3)
O2_6 O 0.6628(5) 0.6681(4) 0.0381(3)
O3_8 O 0.7421(4) 0.7745(4) 0.0279(3)
N6_6 N 0.6748(5) 0.7428(5) 0.0383(3)
N8_8 N 0.5591(4) 0.9659(5) 0.0660(3)
O1_9 O 0.5423(4) 0.6367(4) 0.2008(3)
O2_7 O 0.4181(4) 0.5872(5) 0.2119(3)
O3_9 O 0.5245(4) 0.5079(4) 0.2221(3)
N1_8 N 0.6924(4) 0.5538(4) 0.2927(3)
N2_5 N 0.7563(4) 0.5586(4) 0.3879(3)
N3_8 N 0.7388(4) 0.6851(4) 0.3298(3)
N4_7 N 0.6996(4) 0.8146(4) 0.3247(3)
C1_8 C 0.7321(5) 0.5977(5) 0.3361(4)
C2_6 C 0.7296(5) 0.4775(5) 0.3777(4)
C3_6 C 0.7362(6) 0.4084(5) 0.4154(4)
H1_7 H 0.762094 0.410608 0.455302
C4_6 C 0.7026(6) 0.3346(6) 0.3915(5)
H2_6 H 0.706349 0.285416 0.415677
C5_6 C 0.6641(7) 0.3322(5) 0.3335(5)
H3_6 H 0.642471 0.281091 0.318841
C6_6 C 0.6561(5) 0.4025(5) 0.2958(4)
H4_6 H 0.628761 0.400760 0.256452
C7_6 C 0.6902(5) 0.4744(5) 0.3191(4)
N6_7 N 0.4928(5) 0.5752(5) 0.2117(3)
C8_8 C 0.6731(6) 0.7391(5) 0.3331(4)
H5_8 H 0.617224 0.723803 0.340377
C9_9 C 0.8066(5) 0.7321(5) 0.3187(4)
H6_9 H 0.861424 0.712025 0.313748
N7_5 N 0.6914(4) 0.5063(4) 0.1379(3)
O1_10 O 0.9577(4) 0.3633(4) 0.7008(3)
O3_10 O 0.9755(4) 0.4921(4) 0.7221(3)
N1_9 N 0.8076(4) 0.4462(4) 0.7927(3)
N2_6 N 0.7437(4) 0.4414(4) 0.8879(3)
N3_9 N 0.7612(4) 0.3149(4) 0.8298(3)
N4_8 N 0.8004(4) 0.1854(4) 0.8247(3)
C1_9 C 0.7679(5) 0.4023(5) 0.8361(4)
C2_7 C 0.7704(5) 0.5225(5) 0.8777(4)
C3_7 C 0.7638(6) 0.5916(5) 0.9154(4)
H1_8 H 0.737906 0.589392 0.955302
C4_7 C 0.7974(6) 0.6654(6) 0.8915(5)
H2_7 H 0.793651 0.714584 0.915677
C5_7 C 0.8359(7) 0.6678(5) 0.8335(5)
H3_7 H 0.857529 0.718909 0.818841
C6_7 C 0.8439(5) 0.5975(5) 0.7958(4)
H4_7 H 0.871239 0.599240 0.756452
C7_7 C 0.8098(5) 0.5256(5) 0.8191(4)
C8_9 C 0.8269(6) 0.2609(5) 0.8331(4)
H5_9 H 0.882776 0.276197 0.840377
C9_10 C 0.6934(5) 0.2679(5) 0.8187(4)
H6_10 H 0.638576 0.287975 0.813748
N7_6 N 0.8086(4) 0.4937(4) 0.6379(3)
N1_10 N 0.6962(4) 0.4424(4) 0.0427(3)
N3_10 N 0.5649(4) 0.4888(4) 0.0798(3)
N4_9 N 0.4354(4) 0.4496(4) 0.0747(3)
C1_10 C 0.6523(5) 0.4821(5) 0.0861(4)
C2_8 C 0.7725(5) 0.4796(5) 0.1277(4)
C3_8 C 0.8416(5) 0.4862(6) 0.1654(4)
H1_9 H 0.839392 0.512094 0.205302
C4_8 C 0.9154(6) 0.4526(6) 0.1415(5)
H2_8 H 0.964584 0.456349 0.165677
C5_8 C 0.9178(5) 0.4141(7) 0.0835(5)
H3_8 H 0.968909 0.392471 0.068841
C6_8 C 0.8475(5) 0.4061(5) 0.0458(4)
H4_8 H 0.849240 0.378761 0.006452
C7_8 C 0.7756(5) 0.4402(5) 0.0691(4)
C8_10 C 0.5109(5) 0.4231(6) 0.0831(4)
H5_10 H 0.526197 0.367224 0.090377
C9_11 C 0.5179(5) 0.5566(5) 0.0687(4)
H6_11 H 0.537975 0.611424 0.063748
O1_11 O 0.6133(4) 0.2923(4) 0.9508(3)
O2_8 O 0.6628(5) 0.1681(4) 0.9619(3)
O3_11 O 0.7421(4) 0.2745(4) 0.9721(3)
N6_8 N 0.6748(5) 0.2428(5) 0.9617(3)
N4_10 N 0.0646(4) 0.5504(4) 0.5747(3)
O1_12 O 0.8867(4) 0.7077(4) 0.4508(3)
O2_9 O 0.8372(5) 0.8319(4) 0.4619(3)
O3_12 O 0.7579(4) 0.7255(4) 0.4721(3)
N1_11 N 0.8038(4) 0.5576(4) 0.5427(3)
N3_11 N 0.9351(4) 0.5112(4) 0.5798(3)
C1_11 C 0.8477(5) 0.5179(5) 0.5861(4)
C2_9 C 0.7275(5) 0.5204(5) 0.6277(4)
C3_9 C 0.6584(5) 0.5138(6) 0.6654(4)
H1_10 H 0.660608 0.487906 0.705302
C4_9 C 0.5846(6) 0.5474(6) 0.6415(5)
H2_9 H 0.535416 0.543651 0.665677
C5_9 C 0.5822(5) 0.5859(7) 0.5835(5)
H3_9 H 0.531091 0.607529 0.568841
C6_9 C 0.6525(5) 0.5939(5) 0.5458(4)
H4_9 H 0.650760 0.621239 0.506452
C7_9 C 0.7244(5) 0.5598(5) 0.5691(4)
N6_9 N 0.8252(5) 0.7572(5) 0.4617(3)
C8_11 C 0.9891(5) 0.5769(6) 0.5831(4)
H5_11 H 0.973803 0.632776 0.590377
C9_12 C 0.9821(5) 0.4434(5) 0.5687(4)
H6_12 H 0.962025 0.388576 0.563748
O1_13 O 0.0423(4) 0.1367(4) 0.7008(3)
O3_13 O 0.0245(4) 0.0079(4) 0.7221(3)
N1_12 N 0.1924(4) 0.0538(4) 0.7927(3)
N2_7 N 0.2563(4) 0.0586(4) 0.8879(3)
N3_12 N 0.2388(4) 0.1851(4) 0.8298(3)
N4_11 N 0.1996(4) 0.3146(4) 0.8247(3)
C1_12 C 0.2321(5) 0.0977(5) 0.8361(4)
C8_12 C 0.1731(6) 0.2391(5) 0.8331(4)
H5_12 H 0.117224 0.223803 0.840377
C9_13 C 0.3066(5) 0.2321(5) 0.8187(4)
H6_13 H 0.361424 0.212025 0.813748
N7_7 N 0.1914(4) 0.0063(4) 0.6379(3)
O1_14 O 0.4577(4) 0.8633(4) 0.2008(3)
O2_10 O 0.5819(4) 0.9128(5) 0.2119(3)
O3_14 O 0.4755(4) 0.9921(4) 0.2221(3)
N1_13 N 0.3076(4) 0.9462(4) 0.2927(3)
N2_8 N 0.2437(4) 0.9414(4) 0.3879(3)
N3_13 N 0.2612(4) 0.8149(4) 0.3298(3)
N4_12 N 0.3004(4) 0.6854(4) 0.3247(3)
C1_13 C 0.2679(5) 0.9023(5) 0.3361(4)
N6_10 N 0.5072(5) 0.9248(5) 0.2117(3)
C8_13 C 0.3269(6) 0.7609(5) 0.3331(4)
H5_13 H 0.382776 0.776197 0.340377
C9_14 C 0.1934(5) 0.7679(5) 0.3187(4)
H6_14 H 0.138576 0.787975 0.313748
N7_8 N 0.3086(4) 0.9937(4) 0.1379(3)
H1_11 H 0.339392 0.012094 0.705302
C9_15 C 0.0179(5) 0.0566(5) 0.5687(4)
H6_15 H 0.037975 0.111424 0.563748
O1_15 O 0.1133(4) 0.7923(4) 0.4508(3)
O2_11 O 0.1628(5) 0.6681(4) 0.4619(3)
O3_15 O 0.2421(4) 0.7745(4) 0.4721(3)
N1_14 N 0.1962(4) 0.9424(4) 0.5427(3)
N3_14 N 0.0649(4) 0.9888(4) 0.5798(3)
C1_14 C 0.1523(5) 0.9821(5) 0.5861(4)
C2_10 C 0.2725(5) 0.9796(5) 0.6277(4)
C3_10 C 0.3416(5) 0.9862(6) 0.6654(4)
C4_10 C 0.4154(6) 0.9526(6) 0.6415(5)
H2_10 H 0.464584 0.956349 0.665677
C5_10 C 0.4178(5) 0.9141(7) 0.5835(5)
H3_10 H 0.468909 0.892471 0.568841
C6_10 C 0.3475(5) 0.9061(5) 0.5458(4)
H4_10 H 0.349240 0.878761 0.506452
C7_10 C 0.2756(5) 0.9402(5) 0.5691(4)
N6_11 N 0.1748(5) 0.7428(5) 0.4617(3)
C8_14 C 0.0109(5) 0.9231(6) 0.5831(4)
H5_14 H 0.026197 0.867224 0.590377
O1_16 O 0.3867(4) 0.2077(4) 0.9508(3)
O2_12 O 0.3372(5) 0.3319(4) 0.9619(3)
O3_16 O 0.2579(4) 0.2255(4) 0.9721(3)
N6_12 N 0.3252(5) 0.2572(5) 0.9617(3)
H1_12 H 0.160608 0.987906 0.205302
C9_16 C 0.4821(5) 0.9434(5) 0.0687(4)
H6_16 H 0.462025 0.888576 0.063748
O2_13 O 0.9181(4) 0.5872(5) 0.2881(3)
N6_13 N 0.9928(5) 0.5752(5) 0.2883(3)
O2_14 O 0.0819(4) 0.9128(5) 0.2881(3)
N6_14 N 0.0072(5) 0.9248(5) 0.2883(3)
C2_11 C 0.7704(5) 0.0225(5) 0.1223(4)
C3_11 C 0.7638(6) 0.0916(5) 0.0846(4)
H1_13 H 0.737906 0.089392 0.044698
C4_11 C 0.7974(6) 0.1654(6) 0.1085(5)
H2_11 H 0.793651 0.214584 0.084323
C5_11 C 0.8359(7) 0.1678(5) 0.1665(5)
H3_11 H 0.857529 0.218909 0.181159
C6_11 C 0.8439(5) 0.0975(5) 0.2042(4)
H4_11 H 0.871239 0.099240 0.243548
C7_11 C 0.8098(5) 0.0256(5) 0.1809(4)
C2_12 C 0.7296(5) 0.9775(5) 0.6223(4)
C3_12 C 0.7362(6) 0.9084(5) 0.5846(4)
H1_14 H 0.762094 0.910608 0.544698
C4_12 C 0.7026(6) 0.8346(6) 0.6085(5)
H2_12 H 0.706349 0.785416 0.584323
C5_12 C 0.6641(7) 0.8322(5) 0.6665(5)
H3_12 H 0.642471 0.781091 0.681159
C6_12 C 0.6561(5) 0.9025(5) 0.7042(4)
H4_12 H 0.628761 0.900760 0.743548
C7_12 C 0.6902(5) 0.9744(5) 0.6809(4)
N4_13 N 0.0646(4) 0.0504(4) 0.4253(3)
N1_15 N 0.6962(4) 0.9424(4) 0.9573(3)
N3_15 N 0.5649(4) 0.9888(4) 0.9202(3)
N4_14 N 0.4354(4) 0.9496(4) 0.9253(3)
C1_15 C 0.6523(5) 0.9821(5) 0.9139(4)
C2_13 C 0.7725(5) 0.9796(5) 0.8723(4)
C3_13 C 0.8416(5) 0.9862(6) 0.8346(4)
C4_13 C 0.9154(6) 0.9526(6) 0.8585(5)
H2_13 H 0.964584 0.956349 0.834323
C5_13 C 0.9178(5) 0.9141(7) 0.9165(5)
H3_13 H 0.968909 0.892471 0.931159
C6_13 C 0.8475(5) 0.9061(5) 0.9542(4)
H4_13 H 0.849240 0.878761 0.993548
C7_13 C 0.7756(5) 0.9402(5) 0.9309(4)
C8_15 C 0.5109(5) 0.9231(6) 0.9169(4)
H5_15 H 0.526197 0.867224 0.909623
O2_15 O 0.0819(4) 0.4128(5) 0.7119(3)
N6_15 N 0.0072(5) 0.4248(5) 0.7117(3)
C2_14 C 0.2296(5) 0.9775(5) 0.8777(4)
C3_14 C 0.2362(6) 0.9084(5) 0.9154(4)
H1_15 H 0.262094 0.910608 0.955302
C4_14 C 0.2026(6) 0.8346(6) 0.8915(5)
H2_14 H 0.206349 0.785416 0.915677
C5_14 C 0.1641(7) 0.8322(5) 0.8335(5)
H3_14 H 0.142471 0.781091 0.818841
C6_14 C 0.1561(5) 0.9025(5) 0.7958(4)
H4_14 H 0.128761 0.900760 0.756452
C7_14 C 0.1902(5) 0.9744(5) 0.8191(4)
O2_16 O 0.9181(4) 0.0872(5) 0.7119(3)
N6_16 N 0.9928(5) 0.0752(5) 0.7117(3)
C2_15 C 0.2704(5) 0.0225(5) 0.3777(4)
C3_15 C 0.2638(6) 0.0916(5) 0.4154(4)
H1_16 H 0.237906 0.089392 0.455302
C4_15 C 0.2974(6) 0.1654(6) 0.3915(5)
H2_15 H 0.293651 0.214584 0.415677
C5_15 C 0.3359(7) 0.1678(5) 0.3335(5)
H3_15 H 0.357529 0.218909 0.318841
C6_15 C 0.3439(5) 0.0975(5) 0.2958(4)
H4_15 H 0.371239 0.099240 0.256452
C7_15 C 0.3098(5) 0.0256(5) 0.3191(4)
N4_15 N 0.9354(4) 0.9496(4) 0.5747(3)
N1_16 N 0.3038(4) 0.0576(4) 0.0427(3)
N3_16 N 0.4351(4) 0.0112(4) 0.0798(3)
N4_16 N 0.5646(4) 0.0504(4) 0.0747(3)
C1_16 C 0.3477(5) 0.0179(5) 0.0861(4)
C2_16 C 0.2275(5) 0.0204(5) 0.1277(4)
C3_16 C 0.1584(5) 0.0138(6) 0.1654(4)
C4_16 C 0.0846(6) 0.0474(6) 0.1415(5)
H2_16 H 0.035416 0.043651 0.165677
C5_16 C 0.0822(5) 0.0859(7) 0.0835(5)
H3_16 H 0.031091 0.107529 0.068841
C6_16 C 0.1525(5) 0.0939(5) 0.0458(4)
H4_16 H 0.150760 0.121239 0.006452
C7_16 C 0.2244(5) 0.0598(5) 0.0691(4)
C8_16 C 0.4891(5) 0.0769(6) 0.0831(4)
H5_16 H 0.473803 0.132776 0.090377
loop_
_geom_bond_atom_site_label_1
_geom_bond_atom_site_label_2
_geom_bond_site_symmetry_1
_geom_bond_site_symmetry_2
Zn1 O1 1_555 1_555
O1 N6 1_555 1_555
O2 N6 1_555 1_555
O3 Zn1 1_555 1_555
N1 Zn1 1_555 1_555
N2 C1 1_555 1_555
N3 C1 1_555 1_555
N4 N5 1_555 1_555
N5 C9 1_555 1_555
C1 N1 1_555 1_555
C2 N2 1_555 1_555
C3 C2 1_555 1_555
H1 C3 1_555 1_555
C4 C3 1_555 1_555
H2 C4 1_555 1_555
C5 C4 1_555 1_555
H3 C5 1_555 1_555
C6 C5 1_555 1_555
H4 C6 1_555 1_555
C7 N1 1_555 1_555
N6 O3 1_555 1_555
C8 N3 1_555 1_555
H5 C8 1_555 1_555
C9 N3 1_555 1_555
H6 C9 1_555 1_555
Zn2 N2 1_555 1_555
Zn3 N5 1_555 1_555
N7 Zn1 1_555 1_555
N8 Zn1 1_555 1_555
N4 C8 1_555 1_555
C2 C7 1_555 1_555
C6 C7 1_555 1_555
Zn1_2 O1_2 1_555 1_555
O3_2 Zn1_2 1_555 1_555
N1_2 Zn1_2 1_555 1_555
N2_2 C1_2 1_555 1_555
N3_2 C1_2 1_555 1_555
N4_2 N5_2 1_555 1_555
N5_2 C9_2 1_555 1_555
C1_2 N1_2 1_555 1_555
C2_2 N2_2 1_555 1_555
C3_2 C2_2 1_555 1_555
H1_2 C3_2 1_555 1_555
C4_2 C3_2 1_555 1_555
H2_2 C4_2 1_555 1_555
C5_2 C4_2 1_555 1_555
H3_2 C5_2 1_555 1_555
C6_2 C5_2 1_555 1_555
H4_2 C6_2 1_555 1_555
C7_2 N1_2 1_555 1_555
C8_2 N3_2 1_555 1_555
H5_2 C8_2 1_555 1_555
C9_2 N3_2 1_555 1_555
H6_2 C9_2 1_555 1_555
Zn2_2 N2_2 1_555 1_555
Zn3_2 N5_2 1_555 1_555
N7_2 Zn1_2 1_555 1_555
N8_2 Zn1_2 1_555 1_555
N4_2 C8_2 1_555 1_555
C2_2 C7_2 1_555 1_555
C6_2 C7_2 1_555 1_555
Zn2_2 O1_3 1_555 1_555
O1_3 N6_2 1_555 1_555
O2_2 N6_2 1_555 1_555
O3_3 Zn2_2 1_555 1_555
N6_2 O3_3 1_555 1_555
N8_3 Zn2_2 1_555 1_555
N7 C1_3 1_555 1_555
N3_3 C1_3 1_555 1_555
N4_3 N5_3 1_555 1_555
N5_3 C9_3 1_555 1_555
C1_3 N1_3 1_555 1_555
C2_3 N7 1_555 1_555
C3_3 C2_3 1_555 1_555
H1_3 C3_3 1_555 1_555
C4_3 C3_3 1_555 1_555
H2_3 C4_3 1_555 1_555
C5_3 C4_3 1_555 1_555
H3_3 C5_3 1_555 1_555
C6_3 C5_3 1_555 1_555
H4_3 C6_3 1_555 1_555
C7_3 N1_3 1_555 1_555
C8_3 N3_3 1_555 1_555
H5_3 C8_3 1_555 1_555
C9_3 N3_3 1_555 1_555
H6_3 C9_3 1_555 1_555
Zn3_3 N5_3 1_555 1_555
N4_3 C8_3 1_555 1_555
C2_3 C7_3 1_555 1_555
C6_3 C7_3 1_555 1_555
Zn2 O1_4 1_555 1_555
O1_4 N6_3 1_555 1_555
O2_3 N6_3 1_555 1_555
O3_4 Zn2 1_555 1_555
N1_4 Zn2 1_555 1_555
N7_2 C1_4 1_555 1_555
N3_4 C1_4 1_555 1_555
C1_4 N1_4 1_555 1_555
C2_4 N7_2 1_555 1_555
C3_4 C2_4 1_555 1_555
H1_4 C3_4 1_555 1_555
C4_4 C3_4 1_555 1_555
H2_4 C4_4 1_555 1_555
C5_4 C4_4 1_555 1_555
H3_4 C5_4 1_555 1_555
C6_4 C5_4 1_555 1_555
H4_4 C6_4 1_555 1_555
C7_4 N1_4 1_555 1_555
N6_3 O3_4 1_555 1_555
C8_4 N3_4 1_555 1_555
H5_4 C8_4 1_555 1_555
C9_4 N3_4 1_555 1_555
H6_4 C9_4 1_555 1_555
N8_4 Zn2 1_555 1_555
C2_4 C7_4 1_555 1_555
C6_4 C7_4 1_555 1_555
N4_4 N5_4 1_555 1_555
Zn3_4 N5_4 1_555 1_555
Zn1_3 O1_5 1_555 1_555
O3_5 Zn1_3 1_555 1_555
N1_5 Zn1_3 1_555 1_555
N2_3 C1_5 1_555 1_555
N3_5 C1_5 1_555 1_555
N4_5 N5_5 1_555 1_555
N5_5 C9_5 1_555 1_555
C1_5 N1_5 1_555 1_555
C8_5 N3_5 1_555 1_555
H5_5 C8_5 1_555 1_555
C9_5 N3_5 1_555 1_555
H6_5 C9_5 1_555 1_555
Zn2_3 N2_3 1_555 1_555
Zn3_5 N5_5 1_555 1_555
N7_3 Zn1_3 1_555 1_555
N8_5 Zn1_3 1_555 1_555
N4_5 C8_5 1_555 1_555
Zn1_4 O1_6 1_555 1_555
O1_6 N6_4 1_555 1_555
O2_4 N6_4 1_555 1_555
O3_6 Zn1_4 1_555 1_555
N1_6 Zn1_4 1_555 1_555
N2_4 C1_6 1_555 1_555
N3_6 C1_6 1_555 1_555
N4_6 N5_6 1_555 1_555
N5_6 C9_6 1_555 1_555
C1_6 N1_6 1_555 1_555
N6_4 O3_6 1_555 1_555
C8_6 N3_6 1_555 1_555
H5_6 C8_6 1_555 1_555
C9_6 N3_6 1_555 1_555
H6_6 C9_6 1_555 1_555
Zn2_4 N2_4 1_555 1_555
Zn3_6 N5_6 1_555 1_555
N7_4 Zn1_4 1_555 1_555
N8_6 Zn1_4 1_555 1_555
N4_6 C8_6 1_555 1_555
Zn3_7 N5_7 1_555 1_555
Zn2_4 O1_7 1_555 1_555
O1_7 N6_5 1_555 1_555
O2_5 N6_5 1_555 1_555
O3_7 Zn2_4 1_555 1_555
N1_7 Zn2_4 1_555 1_555
N3_7 C1_7 1_555 1_555
C1_7 N1_7 1_555 1_555
C3_5 C2_5 1_555 1_555
C4_5 C3_5 1_555 1_555
H2_5 C4_5 1_555 1_555
C5_5 C4_5 1_555 1_555
H3_5 C5_5 1_555 1_555
C6_5 C5_5 1_555 1_555
H4_5 C6_5 1_555 1_555
C7_5 N1_7 1_555 1_555
N6_5 O3_7 1_555 1_555
C8_7 N3_7 1_555 1_555
H5_7 C8_7 1_555 1_555
N8_7 Zn2_4 1_555 1_555
C2_5 C7_5 1_555 1_555
C6_5 C7_5 1_555 1_555
H6_7 C9_7 1_555 1_555
N5_8 C9_8 1_555 1_555
H6_8 C9_8 1_555 1_555
Zn3_8 N5_8 1_555 1_555
Zn2_3 O1_8 1_555 1_555
O1_8 N6_6 1_555 1_555
O2_6 N6_6 1_555 1_555
O3_8 Zn2_3 1_555 1_555
N6_6 O3_8 1_555 1_555
N8_8 Zn2_3 1_555 1_555
Zn3_5 O1_9 1_555 1_555
O1_9 N6_7 1_555 1_555
O2_7 N6_7 1_555 1_555
O3_9 Zn3_5 1_555 1_555
N1_8 Zn3_5 1_555 1_555
N2_5 C1_8 1_555 1_555
N3_8 C1_8 1_555 1_555
N4_7 N8_5 1_555 1_555
N8_5 C9_9 1_555 1_555
C1_8 N1_8 1_555 1_555
C2_6 N2_5 1_555 1_555
C3_6 C2_6 1_555 1_555
H1_7 C3_6 1_555 1_555
C4_6 C3_6 1_555 1_555
H2_6 C4_6 1_555 1_555
C5_6 C4_6 1_555 1_555
H3_6 C5_6 1_555 1_555
C6_6 C5_6 1_555 1_555
H4_6 C6_6 1_555 1_555
C7_6 N1_8 1_555 1_555
N6_7 O3_9 1_555 1_555
C8_8 N3_8 1_555 1_555
H5_8 C8_8 1_555 1_555
C9_9 N3_8 1_555 1_555
H6_9 C9_9 1_555 1_555
Zn3_4 N2_5 1_555 1_555
N7_5 Zn3_5 1_555 1_555
N4_7 C8_8 1_555 1_555
C2_6 C7_6 1_555 1_555
C6_6 C7_6 1_555 1_555
Zn3_6 O1_10 1_555 1_555
O3_10 Zn3_6 1_555 1_555
N1_9 Zn3_6 1_555 1_555
N2_6 C1_9 1_555 1_555
N3_9 C1_9 1_555 1_555
N4_8 N8_6 1_555 1_555
N8_6 C9_10 1_555 1_555
C1_9 N1_9 1_555 1_555
C2_7 N2_6 1_555 1_555
C3_7 C2_7 1_555 1_555
H1_8 C3_7 1_555 1_555
C4_7 C3_7 1_555 1_555
H2_7 C4_7 1_555 1_555
C5_7 C4_7 1_555 1_555
H3_7 C5_7 1_555 1_555
C6_7 C5_7 1_555 1_555
H4_7 C6_7 1_555 1_555
C7_7 N1_9 1_555 1_555
C8_9 N3_9 1_555 1_555
H5_9 C8_9 1_555 1_555
C9_10 N3_9 1_555 1_555
H6_10 C9_10 1_555 1_555
Zn3_3 N2_6 1_555 1_555
N7_6 Zn3_6 1_555 1_555
N4_8 C8_9 1_555 1_555
C2_7 C7_7 1_555 1_555
C6_7 C7_7 1_555 1_555
N7_5 C1_10 1_555 1_555
N3_10 C1_10 1_555 1_555
N4_9 N8_3 1_555 1_555
N8_3 C9_11 1_555 1_555
C1_10 N1_10 1_555 1_555
C2_8 N7_5 1_555 1_555
C3_8 C2_8 1_555 1_555
H1_9 C3_8 1_555 1_555
C4_8 C3_8 1_555 1_555
H2_8 C4_8 1_555 1_555
C5_8 C4_8 1_555 1_555
H3_8 C5_8 1_555 1_555
C6_8 C5_8 1_555 1_555
H4_8 C6_8 1_555 1_555
C7_8 N1_10 1_555 1_555
C8_10 N3_10 1_555 1_555
H5_10 C8_10 1_555 1_555
C9_11 N3_10 1_555 1_555
H6_11 C9_11 1_555 1_555
N4_9 C8_10 1_555 1_555
C2_8 C7_8 1_555 1_555
C6_8 C7_8 1_555 1_555
Zn3_3 O1_11 1_555 1_555
O1_11 N6_8 1_555 1_555
O2_8 N6_8 1_555 1_555
O3_11 Zn3_3 1_555 1_555
N6_8 O3_11 1_555 1_555
N4_10 N8_4 1_555 1_555
Zn3_4 O1_12 1_555 1_555
O1_12 N6_9 1_555 1_555
O2_9 N6_9 1_555 1_555
O3_12 Zn3_4 1_555 1_555
N1_11 Zn3_4 1_555 1_555
N7_6 C1_11 1_555 1_555
N3_11 C1_11 1_555 1_555
C1_11 N1_11 1_555 1_555
C2_9 N7_6 1_555 1_555
C3_9 C2_9 1_555 1_555
H1_10 C3_9 1_555 1_555
C4_9 C3_9 1_555 1_555
H2_9 C4_9 1_555 1_555
C5_9 C4_9 1_555 1_555
H3_9 C5_9 1_555 1_555
C6_9 C5_9 1_555 1_555
H4_9 C6_9 1_555 1_555
C7_9 N1_11 1_555 1_555
N6_9 O3_12 1_555 1_555
C8_11 N3_11 1_555 1_555
H5_11 C8_11 1_555 1_555
C9_12 N3_11 1_555 1_555
H6_12 C9_12 1_555 1_555
C2_9 C7_9 1_555 1_555
C6_9 C7_9 1_555 1_555
Zn3 O1_13 1_555 1_555
O3_13 Zn3 1_555 1_555
N1_12 Zn3 1_555 1_555
N2_7 C1_12 1_555 1_555
N3_12 C1_12 1_555 1_555
N4_11 N8 1_555 1_555
N8 C9_13 1_555 1_555
C1_12 N1_12 1_555 1_555
C8_12 N3_12 1_555 1_555
H5_12 C8_12 1_555 1_555
C9_13 N3_12 1_555 1_555
H6_13 C9_13 1_555 1_555
Zn3_8 N2_7 1_555 1_555
N7_7 Zn3 1_555 1_555
N4_11 C8_12 1_555 1_555
Zn3_2 O1_14 1_555 1_555
O1_14 N6_10 1_555 1_555
O2_10 N6_10 1_555 1_555
O3_14 Zn3_2 1_555 1_555
N1_13 Zn3_2 1_555 1_555
N2_8 C1_13 1_555 1_555
N3_13 C1_13 1_555 1_555
N4_12 N8_2 1_555 1_555
N8_2 C9_14 1_555 1_555
C1_13 N1_13 1_555 1_555
N6_10 O3_14 1_555 1_555
C8_13 N3_13 1_555 1_555
H5_13 C8_13 1_555 1_555
C9_14 N3_13 1_555 1_555
H6_14 C9_14 1_555 1_555
Zn3_7 N2_8 1_555 1_555
N7_8 Zn3_2 1_555 1_555
N4_12 C8_13 1_555 1_555
H6_15 C9_15 1_555 1_555
Zn3_7 O1_15 1_555 1_555
O1_15 N6_11 1_555 1_555
O2_11 N6_11 1_555 1_555
O3_15 Zn3_7 1_555 1_555
N1_14 Zn3_7 1_555 1_555
N3_14 C1_14 1_555 1_555
C1_14 N1_14 1_555 1_555
C3_10 C2_10 1_555 1_555
C4_10 C3_10 1_555 1_555
H2_10 C4_10 1_555 1_555
C5_10 C4_10 1_555 1_555
H3_10 C5_10 1_555 1_555
C6_10 C5_10 1_555 1_555
H4_10 C6_10 1_555 1_555
C7_10 N1_14 1_555 1_555
N6_11 O3_15 1_555 1_555
C8_14 N3_14 1_555 1_555
H5_14 C8_14 1_555 1_555
C2_10 C7_10 1_555 1_555
C6_10 C7_10 1_555 1_555
Zn3_8 O1_16 1_555 1_555
O1_16 N6_12 1_555 1_555
O2_12 N6_12 1_555 1_555
O3_16 Zn3_8 1_555 1_555
N6_12 O3_16 1_555 1_555
N8_8 C9_16 1_555 1_555
H6_16 C9_16 1_555 1_555
O2_13 N6_13 1_555 1_555
O2_14 N6_14 1_555 1_555
C3_11 C2_11 1_555 1_555
H1_13 C3_11 1_555 1_555
C4_11 C3_11 1_555 1_555
H2_11 C4_11 1_555 1_555
C5_11 C4_11 1_555 1_555
H3_11 C5_11 1_555 1_555
C6_11 C5_11 1_555 1_555
H4_11 C6_11 1_555 1_555
C2_11 C7_11 1_555 1_555
C6_11 C7_11 1_555 1_555
C3_12 C2_12 1_555 1_555
H1_14 C3_12 1_555 1_555
C4_12 C3_12 1_555 1_555
H2_12 C4_12 1_555 1_555
C5_12 C4_12 1_555 1_555
H3_12 C5_12 1_555 1_555
C6_12 C5_12 1_555 1_555
H4_12 C6_12 1_555 1_555
C2_12 C7_12 1_555 1_555
C6_12 C7_12 1_555 1_555
N3_15 C1_15 1_555 1_555
C1_15 N1_15 1_555 1_555
C3_13 C2_13 1_555 1_555
C4_13 C3_13 1_555 1_555
H2_13 C4_13 1_555 1_555
C5_13 C4_13 1_555 1_555
H3_13 C5_13 1_555 1_555
C6_13 C5_13 1_555 1_555
H4_13 C6_13 1_555 1_555
C7_13 N1_15 1_555 1_555
C8_15 N3_15 1_555 1_555
H5_15 C8_15 1_555 1_555
N4_14 C8_15 1_555 1_555
C2_13 C7_13 1_555 1_555
C6_13 C7_13 1_555 1_555
O2_15 N6_15 1_555 1_555
C3_14 C2_14 1_555 1_555
H1_15 C3_14 1_555 1_555
C4_14 C3_14 1_555 1_555
H2_14 C4_14 1_555 1_555
C5_14 C4_14 1_555 1_555
H3_14 C5_14 1_555 1_555
C6_14 C5_14 1_555 1_555
H4_14 C6_14 1_555 1_555
C2_14 C7_14 1_555 1_555
C6_14 C7_14 1_555 1_555
O2_16 N6_16 1_555 1_555
C3_15 C2_15 1_555 1_555
H1_16 C3_15 1_555 1_555
C4_15 C3_15 1_555 1_555
H2_15 C4_15 1_555 1_555
C5_15 C4_15 1_555 1_555
H3_15 C5_15 1_555 1_555
C6_15 C5_15 1_555 1_555
H4_15 C6_15 1_555 1_555
C2_15 C7_15 1_555 1_555
C6_15 C7_15 1_555 1_555
N3_16 C1_16 1_555 1_555
C1_16 N1_16 1_555 1_555
C3_16 C2_16 1_555 1_555
C4_16 C3_16 1_555 1_555
H2_16 C4_16 1_555 1_555
C5_16 C4_16 1_555 1_555
H3_16 C5_16 1_555 1_555
C6_16 C5_16 1_555 1_555
H4_16 C6_16 1_555 1_555
C7_16 N1_16 1_555 1_555
C8_16 N3_16 1_555 1_555
H5_16 C8_16 1_555 1_555
N4_16 C8_16 1_555 1_555
C2_16 C7_16 1_555 1_555
C6_16 C7_16 1_555 1_555

#END
