
###############################################################################
#
# This file contains modified crystal structure data generated from the
# MOF subset of the Cambridge Structural Database (CSD) v543 
# hosted by the Cambridge Crystallographic Data Centre (CCDC).
#
# This work is licensed under the Creative Commons
# Attribution-NonCommercial-ShareAlike 4.0 International License.
# To view a copy of this license, visit
# http://creativecommons.org/licenses/by-nc-sa/4.0/
# or send a letter to
# Creative Commons, PO Box 1866, Mountain View, CA 94042, USA.
#
# CIF created using the CSD Python API on 29 September 2022
# The structure has been converted into the P1 space group
# The structure has a 3D framework
# The original CSD entry ISOHEE is in the monoclinic crystal system
# The framework has been calculated to contain at least 10.0% void space
# The void calculation uses a probe of radius 1.32A, grid spacing 0.4
#
###############################################################################

data_ISOHEE
_chemical_formula_moiety         '(C52 H28 N8 O16 Zn4)n'
_symmetry_cell_setting           triclinic
_symmetry_space_group_name_H-M   'P 1'
_symmetry_Int_Tables_number      1
_space_group_name_Hall           'P 1'
loop_
_symmetry_equiv_pos_site_id
_symmetry_equiv_pos_as_xyz
1 x,y,z
_cell_length_a                   10.070(8)
_cell_length_b                   11.383(8)
_cell_length_c                   13.936(10)
_cell_angle_alpha                90
_cell_angle_beta                 101.955(15)
_cell_angle_gamma                90
_cell_volume                     1562.79
loop_
_atom_site_label
_atom_site_type_symbol
_atom_site_fract_x
_atom_site_fract_y
_atom_site_fract_z
Zn7 Zn 0.62570(6) 0.0000 0.40046(4)
O1 O 0.4322(4) 0.0000 0.3199(3)
N1 N 0.0559(6) 0.0000 0.0276(4)
C1 C 0.3316(5) -0.0000 0.3612(4)
O2 O 0.3374(5) -0.0000 0.4491(3)
N2 N 0.6231(4) 0.1897(4) 0.4035(3)
C2 C 0.1936(6) 0.0000 0.2943(4)
C3 C 0.0769(6) 0.0000 0.3317(4)
H1 H 0.0839 0.0000 0.3993
C7 C 0.0553(7) 0.0000 0.1303(5)
C8 C 0.1813(6) 0.0000 0.1915(5)
H3 H 0.2589 0.0000 0.1650
C9 C 0.5390(10) 0.2516(6) 0.3383(7)
H4 H 0.4789 0.2111 0.2900
C10 C 0.5336(11) 0.3712(6) 0.3364(8)
H5 H 0.4689 0.4093 0.2894
C11 C 0.6242(5) 0.4363(6) 0.4043(4)
C12 C 0.7148(12) 0.3698(7) 0.4684(8)
H6 H 0.7815 0.4071 0.5144
C13 C 0.7100(10) 0.2518(7) 0.4668(7)
H7 H 0.7724 0.2114 0.5137
Zn3 Zn 0.37430(6) 0.0000 0.59954(4)
Zn7_2 Zn 0.62570(6) 1.0000 0.40046(4)
O7 O 0.6626(5) -0.0000 0.5509(3)
N4 N 0.6231(4) 0.8103(4) 0.4035(3)
O10 O 0.8356(5) 0.0000 0.4018(3)
O13 O 0.7088(5) 0.0000 0.2543(4)
C22 C 0.5390(10) 0.7484(6) 0.3383(7)
H11 H 0.4789 0.7889 0.2900
C25 C 0.5336(11) 0.6288(6) 0.3364(8)
H14 H 0.4689 0.5907 0.2894
C28 C 0.6242(5) 0.5637(6) 0.4043(4)
C31 C 0.7148(12) 0.6302(7) 0.4684(8)
H17 H 0.7815 0.5929 0.5144
C34 C 0.7100(10) 0.7482(7) 0.4668(7)
H20 H 0.7724 0.7886 0.5137
O9 O 0.1644(5) -0.0000 0.5982(3)
O12 O 0.2912(5) 0.0000 0.7457(4)
C17 C 0.0521(6) 0.0000 0.7306(4)
C18 C 0.1783(7) 0.0000 0.6890(5)
C19 C 0.0622(6) 0.0000 0.8308(5)
H9 H 0.1471 0.0000 0.8726
O1_2 O 0.4322(4) 1.0000 0.3199(3)
N1_2 N 0.0559(6) 1.0000 0.0276(4)
C1_2 C 0.3316(5) 1.0000 0.3612(4)
O2_2 O 0.3374(5) 1.0000 0.4491(3)
C2_2 C 0.1936(6) 1.0000 0.2943(4)
C3_2 C 0.0769(6) 1.0000 0.3317(4)
H1_2 H 0.0839 1.0000 0.3993
C7_2 C 0.0553(7) 1.0000 0.1303(5)
C8_2 C 0.1813(6) 1.0000 0.1915(5)
H3_2 H 0.2589 1.0000 0.1650
Zn3_2 Zn 0.37430(6) 1.0000 0.59954(4)
O7_2 O 0.6626(5) 1.0000 0.5509(3)
O10_2 O 0.8356(5) 1.0000 0.4018(3)
O13_2 O 0.7088(5) 1.0000 0.2543(4)
O9_2 O 0.1644(5) 1.0000 0.5982(3)
O12_2 O 0.2912(5) 1.0000 0.7457(4)
C17_2 C 0.0521(6) 1.0000 0.7306(4)
C18_2 C 0.1783(7) 1.0000 0.6890(5)
C19_2 C 0.0622(6) 1.0000 0.8308(5)
H9_2 H 0.1471 1.0000 0.8726
C4 C 0.9479(6) 0.0000 0.2694(4)
C5 C 0.8217(7) 0.0000 0.3110(5)
C6 C 0.9378(6) -0.0000 0.1692(5)
H2 H 0.8529 0.0000 0.1274
O5 O 0.5678(4) -0.0000 0.6801(3)
N3 N 0.9441(6) 0.0000 0.9724(4)
C14 C 0.6684(5) 0.0000 0.6388(4)
N7 N 0.3769(4) 0.1897(4) 0.5965(3)
C15 C 0.8064(6) 0.0000 0.7057(4)
C16 C 0.9231(6) 0.0000 0.6683(4)
H8 H 0.9161 0.0000 0.6007
C20 C 0.9447(7) 0.0000 0.8697(5)
C21 C 0.8187(6) -0.0000 0.8085(5)
H10 H 0.7411 -0.0000 0.8350
C4_2 C 0.9479(6) 1.0000 0.2694(4)
C5_2 C 0.8217(7) 1.0000 0.3110(5)
C6_2 C 0.9378(6) 1.0000 0.1692(5)
H2_2 H 0.8529 1.0000 0.1274
O5_2 O 0.5678(4) 1.0000 0.6801(3)
N3_2 N 0.9441(6) 1.0000 0.9724(4)
C14_2 C 0.6684(5) 1.0000 0.6388(4)
N8 N 0.3769(4) 0.8103(4) 0.5965(3)
C15_2 C 0.8064(6) 1.0000 0.7057(4)
C16_2 C 0.9231(6) 1.0000 0.6683(4)
H8_2 H 0.9161 1.0000 0.6007
C20_2 C 0.9447(7) 1.0000 0.8697(5)
C21_2 C 0.8187(6) 1.0000 0.8085(5)
H10_2 H 0.7411 1.0000 0.8350
C9_2 C 0.4610(10) 0.2516(6) 0.6617(7)
H4_2 H 0.5211 0.2111 0.7100
C10_2 C 0.4664(11) 0.3712(6) 0.6636(8)
H5_2 H 0.5311 0.4093 0.7106
C11_2 C 0.3758(5) 0.4363(6) 0.5957(4)
C12_2 C 0.2852(12) 0.3698(7) 0.5316(8)
H6_2 H 0.2185 0.4071 0.4856
C13_2 C 0.2900(10) 0.2518(7) 0.5332(7)
H7_2 H 0.2276 0.2114 0.4863
C22_2 C 0.4610(10) 0.7484(6) 0.6617(7)
H11_2 H 0.5211 0.7889 0.7100
C25_2 C 0.4664(11) 0.6288(6) 0.6636(8)
H14_2 H 0.5311 0.5907 0.7106
C28_2 C 0.3758(5) 0.5637(6) 0.5957(4)
C31_2 C 0.2852(12) 0.6302(7) 0.5316(8)
H17_2 H 0.2185 0.5929 0.4856
C34_2 C 0.2900(10) 0.7482(7) 0.5332(7)
H20_2 H 0.2276 0.7886 0.4863
loop_
_geom_bond_atom_site_label_1
_geom_bond_atom_site_label_2
_geom_bond_site_symmetry_1
_geom_bond_site_symmetry_2
Zn7 O1 1_555 1_555
O1 C1 1_555 1_555
N1 C7 1_555 1_555
C1 O2 1_555 1_555
O2 Zn3 1_555 1_555
N2 Zn7 1_555 1_555
C2 C1 1_555 1_555
C3 C2 1_555 1_555
H1 C3 1_555 1_555
C8 C2 1_555 1_555
H3 C8 1_555 1_555
C9 N2 1_555 1_555
H4 C9 1_555 1_555
C10 C9 1_555 1_555
H5 C10 1_555 1_555
C11 C10 1_555 1_555
C12 C11 1_555 1_555
H6 C12 1_555 1_555
C13 N2 1_555 1_555
H7 C13 1_555 1_555
Zn7_2 N4 1_555 1_555
O7 Zn7 1_555 1_555
N4 C22 1_555 1_555
O10 Zn7 1_555 1_555
O13 Zn7 1_555 1_555
C22 H11 1_555 1_555
C25 C22 1_555 1_555
H14 C25 1_555 1_555
C28 C11 1_555 1_555
C31 C28 1_555 1_555
H17 C31 1_555 1_555
C34 N4 1_555 1_555
H20 C34 1_555 1_555
C7 C8 1_555 1_555
C12 C13 1_555 1_555
C25 C28 1_555 1_555
C31 C34 1_555 1_555
Zn3 O9 1_555 1_555
O9 C18 1_555 1_555
O12 Zn3 1_555 1_555
C18 O12 1_555 1_555
C19 C17 1_555 1_555
H9 C19 1_555 1_555
C17 C18 1_555 1_555
Zn7_2 O1_2 1_555 1_555
O1_2 C1_2 1_555 1_555
N1_2 C7_2 1_555 1_555
C1_2 O2_2 1_555 1_555
O2_2 Zn3_2 1_555 1_555
C2_2 C1_2 1_555 1_555
C3_2 C2_2 1_555 1_555
H1_2 C3_2 1_555 1_555
C8_2 C2_2 1_555 1_555
H3_2 C8_2 1_555 1_555
O7_2 Zn7_2 1_555 1_555
O10_2 Zn7_2 1_555 1_555
O13_2 Zn7_2 1_555 1_555
C7_2 C8_2 1_555 1_555
Zn3_2 O9_2 1_555 1_555
O9_2 C18_2 1_555 1_555
O12_2 Zn3_2 1_555 1_555
C18_2 O12_2 1_555 1_555
C19_2 C17_2 1_555 1_555
H9_2 C19_2 1_555 1_555
C17_2 C18_2 1_555 1_555
O10 C5 1_555 1_555
O13 C5 1_555 1_555
C5 C4 1_555 1_555
C6 C4 1_555 1_555
H2 C6 1_555 1_555
Zn3 O5 1_555 1_555
O5 C14 1_555 1_555
C14 O7 1_555 1_555
N7 Zn3 1_555 1_555
C15 C14 1_555 1_555
C16 C15 1_555 1_555
H8 C16 1_555 1_555
C20 N3 1_555 1_555
C21 C15 1_555 1_555
H10 C21 1_555 1_555
C20 C21 1_555 1_555
O10_2 C5_2 1_555 1_555
O13_2 C5_2 1_555 1_555
C5_2 C4_2 1_555 1_555
C6_2 C4_2 1_555 1_555
H2_2 C6_2 1_555 1_555
Zn3_2 O5_2 1_555 1_555
O5_2 C14_2 1_555 1_555
C14_2 O7_2 1_555 1_555
N8 Zn3_2 1_555 1_555
C15_2 C14_2 1_555 1_555
C16_2 C15_2 1_555 1_555
H8_2 C16_2 1_555 1_555
C20_2 N3_2 1_555 1_555
C21_2 C15_2 1_555 1_555
H10_2 C21_2 1_555 1_555
C20_2 C21_2 1_555 1_555
C9_2 N7 1_555 1_555
H4_2 C9_2 1_555 1_555
C10_2 C9_2 1_555 1_555
H5_2 C10_2 1_555 1_555
C11_2 C10_2 1_555 1_555
C12_2 C11_2 1_555 1_555
H6_2 C12_2 1_555 1_555
C13_2 N7 1_555 1_555
H7_2 C13_2 1_555 1_555
N8 C22_2 1_555 1_555
C22_2 H11_2 1_555 1_555
C25_2 C22_2 1_555 1_555
H14_2 C25_2 1_555 1_555
C28_2 C11_2 1_555 1_555
C31_2 C28_2 1_555 1_555
H17_2 C31_2 1_555 1_555
C34_2 N8 1_555 1_555
H20_2 C34_2 1_555 1_555
C12_2 C13_2 1_555 1_555
C25_2 C28_2 1_555 1_555
C31_2 C34_2 1_555 1_555

#END
