
###############################################################################
#
# This file contains modified crystal structure data generated from the
# MOF subset of the Cambridge Structural Database (CSD) v543 
# hosted by the Cambridge Crystallographic Data Centre (CCDC).
#
# This work is licensed under the Creative Commons
# Attribution-NonCommercial-ShareAlike 4.0 International License.
# To view a copy of this license, visit
# http://creativecommons.org/licenses/by-nc-sa/4.0/
# or send a letter to
# Creative Commons, PO Box 1866, Mountain View, CA 94042, USA.
#
# CIF created using the CSD Python API on 29 September 2022
# The structure has been converted into the P1 space group
# The structure has a 3D framework
# The original CSD entry ISOJOQ is in the tetragonal crystal system
# The original CSD entry ISOJOQ is in a Sohncke space group
# The framework has been calculated to contain at least 10.0% void space
# The void calculation uses a probe of radius 1.32A, grid spacing 0.4
#
###############################################################################

data_ISOJOQ
_chemical_formula_moiety         '(C80 H112 In5 O32)n'
_symmetry_cell_setting           triclinic
_symmetry_space_group_name_H-M   'P 1'
_symmetry_Int_Tables_number      1
_space_group_name_Hall           'P 1'
loop_
_symmetry_equiv_pos_site_id
_symmetry_equiv_pos_as_xyz
1 x,y,z
_cell_length_a                   13.8954(15)
_cell_length_b                   13.8954(15)
_cell_length_c                   17.787(2)
_cell_angle_alpha                90
_cell_angle_beta                 90
_cell_angle_gamma                90
_cell_volume                     3434.35
loop_
_atom_site_label
_atom_site_type_symbol
_atom_site_fract_x
_atom_site_fract_y
_atom_site_fract_z
C1 C 0.2825(9) 0.2678(9) 0.3201(6)
C2 C 0.2923(8) 0.1645(8) 0.3414(7)
C3 C 0.4007(10) 0.1654(9) 0.3742(8)
H1 H 0.4000 0.1778 0.4279
H2 H 0.4316 0.1038 0.3655
C4 C 0.4521(9) 0.2412(10) 0.3353(9)
H3 H 0.5061 0.2144 0.3079
H4 H 0.4765 0.2877 0.3712
C5 C 0.3812(8) 0.2916(8) 0.2794(7)
H5 H 0.3835 0.2591 0.2305
C6 C 0.2165(11) 0.1341(8) 0.4006(8)
C7 C 0.2824(12) 0.0984(12) 0.2784(8)
H6 H 0.2887 0.0334 0.2960
H7 H 0.3317 0.1114 0.2419
H8 H 0.2203 0.1067 0.2556
C8 C 0.1997(11) 0.2901(12) 0.2714(10)
H9 H 0.2020 0.2504 0.2273
H10 H 0.2022 0.3567 0.2569
H11 H 0.1411 0.2779 0.2983
C9 C 0.2646(10) 0.3385(10) 0.3805(10)
H12 H 0.2645 0.4022 0.3598
H13 H 0.3143 0.3334 0.4178
H14 H 0.2033 0.3256 0.4033
C10 C 0.4011(9) 0.3990(8) 0.2692(6)
In1 In 0.08733(5) 0.08733(5) 0.5000
O1 O 0.2451(6) 0.1053(6) 0.4646(4)
O2 O 0.1322(6) 0.1350(6) 0.3852(5)
O3 O 0.4510(6) 0.4430(5) 0.3169(5)
O4 O 0.3655(6) 0.4417(6) 0.2145(5)
C11 C 0.2678(9) 0.2825(9) 0.6799(6)
C12 C 0.1645(8) 0.2923(8) 0.6586(7)
C13 C 0.1654(9) 0.4007(10) 0.6258(8)
H15 H 0.1778 0.4000 0.5721
H16 H 0.1038 0.4316 0.6345
C14 C 0.2412(10) 0.4521(9) 0.6647(9)
H17 H 0.2144 0.5061 0.6921
H18 H 0.2877 0.4765 0.6288
C15 C 0.2916(8) 0.3812(8) 0.7206(7)
H19 H 0.2591 0.3835 0.7695
C16 C 0.1341(8) 0.2165(11) 0.5994(8)
C17 C 0.0984(12) 0.2824(12) 0.7216(8)
H20 H 0.0334 0.2887 0.7040
H21 H 0.1114 0.3317 0.7581
H22 H 0.1067 0.2203 0.7444
C18 C 0.2901(12) 0.1997(11) 0.7286(10)
H23 H 0.2504 0.2020 0.7727
H24 H 0.3567 0.2022 0.7431
H25 H 0.2779 0.1411 0.7017
C19 C 0.3385(10) 0.2646(10) 0.6195(10)
H26 H 0.4022 0.2645 0.6402
H27 H 0.3334 0.3143 0.5822
H28 H 0.3256 0.2033 0.5967
C20 C 0.3990(8) 0.4011(9) 0.7308(6)
In2 In 0.41267(5) 0.58733(5) 0.2500
In3 In 0.58733(5) 0.41267(5) 0.7500
O5 O 0.1053(6) 0.2451(6) 0.5354(4)
O6 O 0.1350(6) 0.1322(6) 0.6148(5)
O7 O 0.4430(5) 0.4510(6) 0.6831(5)
O10 O 0.4417(6) 0.3655(6) 0.7855(5)
O9 O 0.0490(6) 0.9430(5) 0.4331(5)
O12 O 0.1345(6) 0.9417(6) 0.5355(5)
O8 O 0.9430(5) 0.0490(6) 0.5669(5)
O11 O 0.9417(6) 0.1345(6) 0.4645(5)
H3_2 H 0.2856 0.0061 0.0579
C1_2 C 0.2322(9) 0.7825(9) 0.0701(6)
C2_2 C 0.3355(8) 0.7923(8) 0.0914(7)
C3_2 C 0.3346(9) 0.9007(10) 0.1242(8)
H1_2 H 0.3222 0.9000 0.1779
H2_2 H 0.3962 0.9316 0.1155
C4_2 C 0.2588(10) 0.9521(9) 0.0853(9)
H4_2 H 0.2123 0.9765 0.1212
C5_2 C 0.2084(8) 0.8812(8) 0.0294(7)
C6_2 C 0.3659(8) 0.7165(11) 0.1506(8)
C7_2 C 0.4016(12) 0.7824(12) 0.0284(8)
H6_2 H 0.4666 0.7887 0.0460
H8_2 H 0.3933 0.7203 0.0056
C8_2 C 0.2099(12) 0.6997(11) 0.0214(10)
H10_2 H 0.1433 0.7022 0.0069
H11_2 H 0.2221 0.6411 0.0483
C9_2 C 0.1615(10) 0.7646(10) 0.1305(10)
H12_2 H 0.0978 0.7645 0.1098
H13_2 H 0.1666 0.8143 0.1678
H14_2 H 0.1744 0.7033 0.1533
C10_2 C 0.1010(8) 0.9011(9) 0.0192(6)
O1_2 O 0.3947(6) 0.7451(6) 0.2146(4)
O2_2 O 0.3650(6) 0.6322(6) 0.1352(5)
O3_2 O 0.0570(5) 0.9510(6) 0.0669(5)
C11_2 C 0.2175(9) 0.7678(9) 0.4299(6)
C12_2 C 0.2077(8) 0.6645(8) 0.4086(7)
C13_2 C 0.0993(10) 0.6654(9) 0.3758(8)
H15_2 H 0.1000 0.6778 0.3221
H16_2 H 0.0684 0.6038 0.3845
C14_2 C 0.0479(9) 0.7412(10) 0.4147(9)
H18_2 H 0.0235 0.7877 0.3788
C15_2 C 0.1188(8) 0.7916(8) 0.4706(7)
H19_2 H 0.1165 0.7591 0.5195
C16_2 C 0.2835(11) 0.6341(8) 0.3494(8)
C17_2 C 0.2176(12) 0.5984(12) 0.4716(8)
H20_2 H 0.2113 0.5334 0.4540
H21_2 H 0.1683 0.6114 0.5081
H22_2 H 0.2797 0.6067 0.4944
C18_2 C 0.3003(11) 0.7901(12) 0.4786(10)
H23_2 H 0.2980 0.7504 0.5227
H24_2 H 0.2978 0.8567 0.4931
H25_2 H 0.3589 0.7779 0.4517
C19_2 C 0.2354(10) 0.8385(10) 0.3695(10)
H26_2 H 0.2355 0.9022 0.3902
H27_2 H 0.1857 0.8334 0.3322
H28_2 H 0.2967 0.8256 0.3467
C20_2 C 0.0989(9) 0.8990(8) 0.4808(6)
O5_2 O 0.2549(6) 0.6053(6) 0.2854(4)
O6_2 O 0.3678(6) 0.6350(6) 0.3648(5)
O9_2 O 0.5570(5) 0.5490(6) 0.1831(5)
O12_2 O 0.5583(6) 0.6345(6) 0.2855(5)
H17_2 H 0.9939 0.7144 0.4421
In2_2 In 0.91267(5) 0.91267(5) 0.0000
In2_3 In 0.91267(5) 0.91267(5) 1.0000
O9_3 O 0.9510(6) 0.0570(5) 0.9331(5)
C11_3 C 0.7322(9) 0.7175(9) 0.1799(6)
C12_3 C 0.8355(8) 0.7077(8) 0.1586(7)
C13_3 C 0.8346(9) 0.5993(10) 0.1258(8)
H15_3 H 0.8222 0.6000 0.0721
H16_3 H 0.8962 0.5684 0.1345
C14_3 C 0.7588(10) 0.5479(9) 0.1647(9)
H17_3 H 0.7856 0.4939 0.1921
H18_3 H 0.7123 0.5235 0.1288
C15_3 C 0.7084(8) 0.6188(8) 0.2206(7)
H19_3 H 0.7409 0.6165 0.2695
C16_3 C 0.8659(8) 0.7835(11) 0.0994(8)
C17_3 C 0.9016(12) 0.7176(12) 0.2216(8)
H20_3 H 0.9666 0.7113 0.2040
H21_3 H 0.8886 0.6683 0.2581
H22_3 H 0.8933 0.7797 0.2444
C18_3 C 0.7099(12) 0.8003(11) 0.2286(10)
H23_3 H 0.7496 0.7980 0.2727
H24_3 H 0.6433 0.7978 0.2431
H25_3 H 0.7221 0.8589 0.2017
C19_3 C 0.6615(10) 0.7354(10) 0.1195(10)
H26_3 H 0.5978 0.7355 0.1402
H27_3 H 0.6666 0.6857 0.0822
H28_3 H 0.6744 0.7967 0.0967
C20_3 C 0.6010(8) 0.5989(9) 0.2308(6)
O5_3 O 0.8947(6) 0.7549(6) 0.0354(4)
O6_3 O 0.8650(6) 0.8678(6) 0.1148(5)
C1_3 C 0.7175(9) 0.7322(9) 0.8201(6)
C2_3 C 0.7077(8) 0.8355(8) 0.8414(7)
C3_3 C 0.5993(10) 0.8346(9) 0.8742(8)
H1_3 H 0.6000 0.8222 0.9279
H2_3 H 0.5684 0.8962 0.8655
C4_3 C 0.5479(9) 0.7588(10) 0.8353(9)
H3_3 H 0.4939 0.7856 0.8079
H4_3 H 0.5235 0.7123 0.8712
C5_3 C 0.6188(8) 0.7084(8) 0.7794(7)
H5_2 H 0.6165 0.7409 0.7305
C6_3 C 0.7835(11) 0.8659(8) 0.9006(8)
C7_3 C 0.7176(12) 0.9016(12) 0.7784(8)
H6_3 H 0.7113 0.9666 0.7960
H7_2 H 0.6683 0.8886 0.7419
H8_3 H 0.7797 0.8933 0.7556
C8_3 C 0.8003(11) 0.7099(12) 0.7714(10)
H9_2 H 0.7980 0.7496 0.7273
H10_3 H 0.7978 0.6433 0.7569
H11_3 H 0.8589 0.7221 0.7983
C9_3 C 0.7354(10) 0.6615(10) 0.8805(10)
H12_3 H 0.7355 0.5978 0.8598
H13_3 H 0.6857 0.6666 0.9178
H14_3 H 0.7967 0.6744 0.9033
C10_3 C 0.5989(9) 0.6010(8) 0.7692(6)
O1_3 O 0.7549(6) 0.8947(6) 0.9646(4)
O2_3 O 0.8678(6) 0.8650(6) 0.8852(5)
O3_3 O 0.5490(6) 0.5570(5) 0.8169(5)
O4_2 O 0.6345(6) 0.5583(6) 0.7145(5)
H17_4 H 0.0061 0.2856 0.9421
C1_4 C 0.7678(9) 0.2175(9) 0.5701(6)
C2_4 C 0.6645(8) 0.2077(8) 0.5914(7)
C3_4 C 0.6654(9) 0.0993(10) 0.6242(8)
H1_4 H 0.6778 0.1000 0.6779
H2_4 H 0.6038 0.0684 0.6155
C4_4 C 0.7412(10) 0.0479(9) 0.5853(9)
H4_4 H 0.7877 0.0235 0.6212
C5_4 C 0.7916(8) 0.1188(8) 0.5294(7)
H5_3 H 0.7591 0.1165 0.4805
C6_4 C 0.6341(8) 0.2835(11) 0.6506(8)
C7_4 C 0.5984(12) 0.2176(12) 0.5284(8)
H6_4 H 0.5334 0.2113 0.5460
H7_3 H 0.6114 0.1683 0.4919
H8_4 H 0.6067 0.2797 0.5056
C8_4 C 0.7901(12) 0.3003(11) 0.5214(10)
H9_3 H 0.7504 0.2980 0.4773
H10_4 H 0.8567 0.2978 0.5069
H11_4 H 0.7779 0.3589 0.5483
C9_4 C 0.8385(10) 0.2354(10) 0.6305(10)
H12_4 H 0.9022 0.2355 0.6098
H13_4 H 0.8334 0.1857 0.6678
H14_4 H 0.8256 0.2967 0.6533
C10_4 C 0.8990(8) 0.0989(9) 0.5192(6)
O1_4 O 0.6053(6) 0.2549(6) 0.7146(4)
O2_4 O 0.6350(6) 0.3678(6) 0.6352(5)
C11_4 C 0.7825(9) 0.2322(9) 0.9299(6)
C12_4 C 0.7923(8) 0.3355(8) 0.9086(7)
C13_4 C 0.9007(10) 0.3346(9) 0.8758(8)
H15_4 H 0.9000 0.3222 0.8221
H16_4 H 0.9316 0.3962 0.8845
C14_4 C 0.9521(9) 0.2588(10) 0.9147(9)
H18_4 H 0.9765 0.2123 0.8788
C15_4 C 0.8812(8) 0.2084(8) 0.9706(7)
C16_4 C 0.7165(11) 0.3659(8) 0.8494(8)
C17_4 C 0.7824(12) 0.4016(12) 0.9716(8)
H20_4 H 0.7887 0.4666 0.9540
H22_4 H 0.7203 0.3933 0.9944
C18_4 C 0.6997(11) 0.2099(12) 0.9786(10)
H24_4 H 0.7022 0.1433 0.9931
H25_4 H 0.6411 0.2221 0.9517
C19_4 C 0.7646(10) 0.1615(10) 0.8695(10)
H26_4 H 0.7645 0.0978 0.8902
H27_4 H 0.8143 0.1666 0.8322
H28_4 H 0.7033 0.1744 0.8467
C20_4 C 0.9011(9) 0.1010(8) 0.9808(6)
O5_4 O 0.7451(6) 0.3947(6) 0.7854(4)
O6_4 O 0.6322(6) 0.3650(6) 0.8648(5)
H3_4 H 0.7144 0.9939 0.5579
H5_4 H 0.2409 0.8835 0.9805
H7_4 H 0.3886 0.8317 0.9919
H9_4 H 0.2496 0.7020 0.9773
O4_3 O 0.0583(6) 0.8655(6) 0.9645(5)
O12_3 O 0.8655(6) 0.0583(6) 0.0355(5)
H19_4 H 0.8835 0.2409 0.0195
H21_4 H 0.8317 0.3886 0.0081
H23_4 H 0.7020 0.2496 0.0227
loop_
_geom_bond_atom_site_label_1
_geom_bond_atom_site_label_2
_geom_bond_site_symmetry_1
_geom_bond_site_symmetry_2
C1 C2 1_555 1_555
C2 C3 1_555 1_555
C3 H1 1_555 1_555
H2 C3 1_555 1_555
C4 C3 1_555 1_555
H3 C4 1_555 1_555
H4 C4 1_555 1_555
C5 C1 1_555 1_555
H5 C5 1_555 1_555
C6 C2 1_555 1_555
C7 C2 1_555 1_555
H6 C7 1_555 1_555
H7 C7 1_555 1_555
H8 C7 1_555 1_555
C8 C1 1_555 1_555
H9 C8 1_555 1_555
H10 C8 1_555 1_555
H11 C8 1_555 1_555
C9 C1 1_555 1_555
H12 C9 1_555 1_555
H13 C9 1_555 1_555
H14 C9 1_555 1_555
C10 C5 1_555 1_555
In1 O1 1_555 1_555
O1 C6 1_555 1_555
O2 C6 1_555 1_555
O3 C10 1_555 1_555
O4 C10 1_555 1_555
C11 C12 1_555 1_555
C12 C13 1_555 1_555
C13 H15 1_555 1_555
H16 C13 1_555 1_555
C14 C13 1_555 1_555
H17 C14 1_555 1_555
H18 C14 1_555 1_555
C15 C11 1_555 1_555
H19 C15 1_555 1_555
C16 C12 1_555 1_555
C17 C12 1_555 1_555
H20 C17 1_555 1_555
H21 C17 1_555 1_555
H22 C17 1_555 1_555
C18 C11 1_555 1_555
H23 C18 1_555 1_555
H24 C18 1_555 1_555
H25 C18 1_555 1_555
C19 C11 1_555 1_555
H26 C19 1_555 1_555
H27 C19 1_555 1_555
H28 C19 1_555 1_555
C20 C15 1_555 1_555
In2 O3 1_555 1_555
In3 O7 1_555 1_555
O5 In1 1_555 1_555
O6 In1 1_555 1_555
O7 C20 1_555 1_555
O10 C20 1_555 1_555
C4 C5 1_555 1_555
In1 O2 1_555 1_555
O4 In2 1_555 1_555
C14 C15 1_555 1_555
C16 O5 1_555 1_555
C16 O6 1_555 1_555
In3 O10 1_555 1_555
C1_2 C2_2 1_555 1_555
C2_2 C3_2 1_555 1_555
C3_2 H1_2 1_555 1_555
H2_2 C3_2 1_555 1_555
C4_2 C3_2 1_555 1_555
H4_2 C4_2 1_555 1_555
C5_2 C1_2 1_555 1_555
C6_2 C2_2 1_555 1_555
C7_2 C2_2 1_555 1_555
H6_2 C7_2 1_555 1_555
H8_2 C7_2 1_555 1_555
C8_2 C1_2 1_555 1_555
H10_2 C8_2 1_555 1_555
H11_2 C8_2 1_555 1_555
C9_2 C1_2 1_555 1_555
H12_2 C9_2 1_555 1_555
H13_2 C9_2 1_555 1_555
H14_2 C9_2 1_555 1_555
C10_2 C5_2 1_555 1_555
In2 O1_2 1_555 1_555
O1_2 C6_2 1_555 1_555
O2_2 C6_2 1_555 1_555
O3_2 C10_2 1_555 1_555
C11_2 C12_2 1_555 1_555
C12_2 C13_2 1_555 1_555
C13_2 H15_2 1_555 1_555
H16_2 C13_2 1_555 1_555
C14_2 C13_2 1_555 1_555
H18_2 C14_2 1_555 1_555
C15_2 C11_2 1_555 1_555
H19_2 C15_2 1_555 1_555
C16_2 C12_2 1_555 1_555
C17_2 C12_2 1_555 1_555
H20_2 C17_2 1_555 1_555
H21_2 C17_2 1_555 1_555
H22_2 C17_2 1_555 1_555
C18_2 C11_2 1_555 1_555
H23_2 C18_2 1_555 1_555
H24_2 C18_2 1_555 1_555
H25_2 C18_2 1_555 1_555
C19_2 C11_2 1_555 1_555
H26_2 C19_2 1_555 1_555
H27_2 C19_2 1_555 1_555
H28_2 C19_2 1_555 1_555
C20_2 C15_2 1_555 1_555
O5_2 In2 1_555 1_555
O6_2 In2 1_555 1_555
O9 C20_2 1_555 1_555
O9_2 In2 1_555 1_555
O12 C20_2 1_555 1_555
O12_2 In2 1_555 1_555
C4_2 C5_2 1_555 1_555
In2 O2_2 1_555 1_555
C14_2 C15_2 1_555 1_555
C16_2 O5_2 1_555 1_555
C16_2 O6_2 1_555 1_555
C11_3 C12_3 1_555 1_555
C12_3 C13_3 1_555 1_555
C13_3 H15_3 1_555 1_555
H16_3 C13_3 1_555 1_555
C14_3 C13_3 1_555 1_555
H17_3 C14_3 1_555 1_555
H18_3 C14_3 1_555 1_555
C15_3 C11_3 1_555 1_555
H19_3 C15_3 1_555 1_555
C16_3 C12_3 1_555 1_555
C17_3 C12_3 1_555 1_555
H20_3 C17_3 1_555 1_555
H21_3 C17_3 1_555 1_555
H22_3 C17_3 1_555 1_555
C18_3 C11_3 1_555 1_555
H23_3 C18_3 1_555 1_555
H24_3 C18_3 1_555 1_555
H25_3 C18_3 1_555 1_555
C19_3 C11_3 1_555 1_555
H26_3 C19_3 1_555 1_555
H27_3 C19_3 1_555 1_555
H28_3 C19_3 1_555 1_555
C20_3 C15_3 1_555 1_555
O5_3 In2_2 1_555 1_555
O6_3 In2_2 1_555 1_555
O9_2 C20_3 1_555 1_555
O12_2 C20_3 1_555 1_555
C14_3 C15_3 1_555 1_555
C16_3 O5_3 1_555 1_555
C16_3 O6_3 1_555 1_555
C1_3 C2_3 1_555 1_555
C2_3 C3_3 1_555 1_555
C3_3 H1_3 1_555 1_555
H2_3 C3_3 1_555 1_555
C4_3 C3_3 1_555 1_555
H3_3 C4_3 1_555 1_555
H4_3 C4_3 1_555 1_555
C5_3 C1_3 1_555 1_555
H5_2 C5_3 1_555 1_555
C6_3 C2_3 1_555 1_555
C7_3 C2_3 1_555 1_555
H6_3 C7_3 1_555 1_555
H7_2 C7_3 1_555 1_555
H8_3 C7_3 1_555 1_555
C8_3 C1_3 1_555 1_555
H9_2 C8_3 1_555 1_555
H10_3 C8_3 1_555 1_555
H11_3 C8_3 1_555 1_555
C9_3 C1_3 1_555 1_555
H12_3 C9_3 1_555 1_555
H13_3 C9_3 1_555 1_555
H14_3 C9_3 1_555 1_555
C10_3 C5_3 1_555 1_555
In2_3 O1_3 1_555 1_555
O1_3 C6_3 1_555 1_555
O2_3 C6_3 1_555 1_555
O3_3 C10_3 1_555 1_555
O4_2 C10_3 1_555 1_555
In3 O3_3 1_555 1_555
C4_3 C5_3 1_555 1_555
In2_3 O2_3 1_555 1_555
O4_2 In3 1_555 1_555
C1_4 C2_4 1_555 1_555
C2_4 C3_4 1_555 1_555
C3_4 H1_4 1_555 1_555
H2_4 C3_4 1_555 1_555
C4_4 C3_4 1_555 1_555
H4_4 C4_4 1_555 1_555
C5_4 C1_4 1_555 1_555
H5_3 C5_4 1_555 1_555
C6_4 C2_4 1_555 1_555
C7_4 C2_4 1_555 1_555
H6_4 C7_4 1_555 1_555
H7_3 C7_4 1_555 1_555
H8_4 C7_4 1_555 1_555
C8_4 C1_4 1_555 1_555
H9_3 C8_4 1_555 1_555
H10_4 C8_4 1_555 1_555
H11_4 C8_4 1_555 1_555
C9_4 C1_4 1_555 1_555
H12_4 C9_4 1_555 1_555
H13_4 C9_4 1_555 1_555
H14_4 C9_4 1_555 1_555
C10_4 C5_4 1_555 1_555
In3 O1_4 1_555 1_555
O1_4 C6_4 1_555 1_555
O2_4 C6_4 1_555 1_555
O8 C10_4 1_555 1_555
O11 C10_4 1_555 1_555
C11_4 C12_4 1_555 1_555
C12_4 C13_4 1_555 1_555
C13_4 H15_4 1_555 1_555
H16_4 C13_4 1_555 1_555
C14_4 C13_4 1_555 1_555
H18_4 C14_4 1_555 1_555
C15_4 C11_4 1_555 1_555
C16_4 C12_4 1_555 1_555
C17_4 C12_4 1_555 1_555
H20_4 C17_4 1_555 1_555
H22_4 C17_4 1_555 1_555
C18_4 C11_4 1_555 1_555
H24_4 C18_4 1_555 1_555
H25_4 C18_4 1_555 1_555
C19_4 C11_4 1_555 1_555
H26_4 C19_4 1_555 1_555
H27_4 C19_4 1_555 1_555
H28_4 C19_4 1_555 1_555
C20_4 C15_4 1_555 1_555
O5_4 In3 1_555 1_555
O6_4 In3 1_555 1_555
O9_3 C20_4 1_555 1_555
C4_4 C5_4 1_555 1_555
In3 O2_4 1_555 1_555
C14_4 C15_4 1_555 1_555
C16_4 O5_4 1_555 1_555
C16_4 O6_4 1_555 1_555

#END
