
###############################################################################
#
# This file contains modified crystal structure data generated from the
# MOF subset of the Cambridge Structural Database (CSD) v543 
# hosted by the Cambridge Crystallographic Data Centre (CCDC).
#
# This work is licensed under the Creative Commons
# Attribution-NonCommercial-ShareAlike 4.0 International License.
# To view a copy of this license, visit
# http://creativecommons.org/licenses/by-nc-sa/4.0/
# or send a letter to
# Creative Commons, PO Box 1866, Mountain View, CA 94042, USA.
#
# CIF created using the CSD Python API on 29 September 2022
# The structure has been converted into the P1 space group
# The structure has a 3D framework
# The original CSD entry ISOLIO is in the cubic crystal system
# The framework has been calculated to contain at least 10.0% void space
# The void calculation uses a probe of radius 1.32A, grid spacing 0.4
# The framework is charged, counterions have been retained in the structure
#
###############################################################################

data_ISOLIO
_chemical_formula_moiety         '(C3456 H3072 Ag192 B160 F640 N576 P192 32+)n'
_symmetry_cell_setting           triclinic
_symmetry_space_group_name_H-M   'P 1'
_symmetry_Int_Tables_number      1
_space_group_name_Hall           'P 1'
loop_
_symmetry_equiv_pos_site_id
_symmetry_equiv_pos_as_xyz
1 x,y,z
_cell_length_a                   49.0448(5)
_cell_length_b                   49.0448(5)
_cell_length_c                   49.0448(5)
_cell_angle_alpha                90
_cell_angle_beta                 90
_cell_angle_gamma                90
_cell_volume                     117972
loop_
_atom_site_label
_atom_site_type_symbol
_atom_site_fract_x
_atom_site_fract_y
_atom_site_fract_z
B1 B 0.375000 0.375000 0.56679(19)
F1 F 0.35433(9) 0.36603(10) 0.58242(11)
F2 F 0.36604(12) 0.39568(9) 0.55148(12)
F3 F 0.39567(9) 0.38397(10) 0.58242(11)
F4 F 0.38396(12) 0.35432(9) 0.55148(12)
B1_2 B 0.875000 0.375000 0.06679(19)
F1_2 F 0.89567(9) 0.38397(10) 0.08242(11)
F2_2 F 0.88396(12) 0.35432(9) 0.05148(12)
F3_2 F 0.85433(9) 0.36603(10) 0.08242(11)
F4_2 F 0.86604(12) 0.39568(9) 0.05148(12)
B1_3 B 0.375000 0.875000 0.68321(19)
F1_3 F 0.39567(9) 0.86603(10) 0.66758(11)
F2_3 F 0.38396(12) 0.89568(9) 0.69852(12)
F3_3 F 0.35433(9) 0.88397(10) 0.66758(11)
F4_3 F 0.36604(12) 0.85432(9) 0.69852(12)
B1_4 B 0.875000 0.875000 0.18321(19)
F1_4 F 0.85433(9) 0.88397(10) 0.16758(11)
F2_4 F 0.86604(12) 0.85432(9) 0.19852(12)
F3_4 F 0.89567(9) 0.86603(10) 0.16758(11)
F4_4 F 0.88396(12) 0.89568(9) 0.19852(12)
B1_5 B 0.56679(19) 0.375000 0.375000
F1_5 F 0.58242(11) 0.35433(9) 0.36603(10)
F2_5 F 0.55148(12) 0.36604(12) 0.39568(9)
F3_5 F 0.58242(11) 0.39567(9) 0.38397(10)
F4_5 F 0.55148(12) 0.38396(12) 0.35432(9)
B1_6 B 0.06679(19) 0.875000 0.375000
F1_6 F 0.08242(11) 0.89567(9) 0.38397(10)
F2_6 F 0.05148(12) 0.88396(12) 0.35432(9)
F3_6 F 0.08242(11) 0.85433(9) 0.36603(10)
F4_6 F 0.05148(12) 0.86604(12) 0.39568(9)
B1_7 B 0.68321(19) 0.375000 0.875000
F1_7 F 0.66758(11) 0.39567(9) 0.86603(10)
F2_7 F 0.69852(12) 0.38396(12) 0.89568(9)
F3_7 F 0.66758(11) 0.35433(9) 0.88397(10)
F4_7 F 0.69852(12) 0.36604(12) 0.85432(9)
B1_8 B 0.18321(19) 0.875000 0.875000
F1_8 F 0.16758(11) 0.85433(9) 0.88397(10)
F2_8 F 0.19852(12) 0.86604(12) 0.85432(9)
F3_8 F 0.16758(11) 0.89567(9) 0.86603(10)
F4_8 F 0.19852(12) 0.88396(12) 0.89568(9)
B1_9 B 0.375000 0.56679(19) 0.375000
F1_9 F 0.36603(10) 0.58242(11) 0.35433(9)
F2_9 F 0.39568(9) 0.55148(12) 0.36604(12)
F3_9 F 0.38397(10) 0.58242(11) 0.39567(9)
F4_9 F 0.35432(9) 0.55148(12) 0.38396(12)
B1_10 B 0.375000 0.06679(19) 0.875000
F1_10 F 0.38397(10) 0.08242(11) 0.89567(9)
F2_10 F 0.35432(9) 0.05148(12) 0.88396(12)
F3_10 F 0.36603(10) 0.08242(11) 0.85433(9)
F4_10 F 0.39568(9) 0.05148(12) 0.86604(12)
B1_11 B 0.875000 0.68321(19) 0.375000
F1_11 F 0.86603(10) 0.66758(11) 0.39567(9)
F2_11 F 0.89568(9) 0.69852(12) 0.38396(12)
F3_11 F 0.88397(10) 0.66758(11) 0.35433(9)
F4_11 F 0.85432(9) 0.69852(12) 0.36604(12)
B1_12 B 0.875000 0.18321(19) 0.875000
F1_12 F 0.88397(10) 0.16758(11) 0.85433(9)
F2_12 F 0.85432(9) 0.19852(12) 0.86604(12)
F3_12 F 0.86603(10) 0.16758(11) 0.89567(9)
F4_12 F 0.89568(9) 0.19852(12) 0.88396(12)
B1_13 B 0.125000 0.625000 0.43321(19)
F1_13 F 0.11603(10) 0.60433(9) 0.41758(11)
F2_13 F 0.14568(9) 0.61604(12) 0.44852(12)
F3_13 F 0.13397(10) 0.64567(9) 0.41758(11)
F4_13 F 0.10432(9) 0.63396(12) 0.44852(12)
B1_14 B 0.125000 0.125000 0.93321(19)
F1_14 F 0.13397(10) 0.14567(9) 0.91758(11)
F2_14 F 0.10432(9) 0.13396(12) 0.94852(12)
F3_14 F 0.11603(10) 0.10433(9) 0.91758(11)
F4_14 F 0.14568(9) 0.11604(12) 0.94852(12)
B1_15 B 0.625000 0.625000 0.31679(19)
F1_15 F 0.61603(10) 0.64567(9) 0.33242(11)
F2_15 F 0.64568(9) 0.63396(12) 0.30148(12)
F3_15 F 0.63397(10) 0.60433(9) 0.33242(11)
F4_15 F 0.60432(9) 0.61604(12) 0.30148(12)
B1_16 B 0.625000 0.125000 0.81679(19)
F1_16 F 0.63397(10) 0.10433(9) 0.83242(11)
F2_16 F 0.60432(9) 0.11604(12) 0.80148(12)
F3_16 F 0.61603(10) 0.14567(9) 0.83242(11)
F4_16 F 0.64568(9) 0.13396(12) 0.80148(12)
B1_17 B 0.125000 0.81679(19) 0.625000
F1_17 F 0.10433(9) 0.83242(11) 0.63397(10)
F2_17 F 0.11604(12) 0.80148(12) 0.60432(9)
F3_17 F 0.14567(9) 0.83242(11) 0.61603(10)
F4_17 F 0.13396(12) 0.80148(12) 0.64568(9)
B1_18 B 0.625000 0.31679(19) 0.625000
F1_18 F 0.64567(9) 0.33242(11) 0.61603(10)
F2_18 F 0.63396(12) 0.30148(12) 0.64568(9)
F3_18 F 0.60433(9) 0.33242(11) 0.63397(10)
F4_18 F 0.61604(12) 0.30148(12) 0.60432(9)
B1_19 B 0.125000 0.93321(19) 0.125000
F1_19 F 0.14567(9) 0.91758(11) 0.13397(10)
F2_19 F 0.13396(12) 0.94852(12) 0.10432(9)
F3_19 F 0.10433(9) 0.91758(11) 0.11603(10)
F4_19 F 0.11604(12) 0.94852(12) 0.14568(9)
B1_20 B 0.625000 0.43321(19) 0.125000
F1_20 F 0.60433(9) 0.41758(11) 0.11603(10)
F2_20 F 0.61604(12) 0.44852(12) 0.14568(9)
F3_20 F 0.64567(9) 0.41758(11) 0.13397(10)
F4_20 F 0.63396(12) 0.44852(12) 0.10432(9)
B1_21 B 0.31679(19) 0.625000 0.625000
F1_21 F 0.33242(11) 0.61603(10) 0.64567(9)
F2_21 F 0.30148(12) 0.64568(9) 0.63396(12)
F3_21 F 0.33242(11) 0.63397(10) 0.60433(9)
F4_21 F 0.30148(12) 0.60432(9) 0.61604(12)
B1_22 B 0.81679(19) 0.625000 0.125000
F1_22 F 0.83242(11) 0.63397(10) 0.10433(9)
F2_22 F 0.80148(12) 0.60432(9) 0.11604(12)
F3_22 F 0.83242(11) 0.61603(10) 0.14567(9)
F4_22 F 0.80148(12) 0.64568(9) 0.13396(12)
B1_23 B 0.43321(19) 0.125000 0.625000
F1_23 F 0.41758(11) 0.11603(10) 0.60433(9)
F2_23 F 0.44852(12) 0.14568(9) 0.61604(12)
F3_23 F 0.41758(11) 0.13397(10) 0.64567(9)
F4_23 F 0.44852(12) 0.10432(9) 0.63396(12)
B1_24 B 0.93321(19) 0.125000 0.125000
F1_24 F 0.91758(11) 0.13397(10) 0.14567(9)
F2_24 F 0.94852(12) 0.10432(9) 0.13396(12)
F3_24 F 0.91758(11) 0.11603(10) 0.10433(9)
F4_24 F 0.94852(12) 0.14568(9) 0.11604(12)
B1_25 B 0.375000 0.875000 0.06679(19)
F1_25 F 0.35433(9) 0.86603(10) 0.08242(11)
F2_25 F 0.36604(12) 0.89568(9) 0.05148(12)
F3_25 F 0.39567(9) 0.88397(10) 0.08242(11)
F4_25 F 0.38396(12) 0.85432(9) 0.05148(12)
B1_26 B 0.875000 0.875000 0.56679(19)
F1_26 F 0.89567(9) 0.88397(10) 0.58242(11)
F2_26 F 0.88396(12) 0.85432(9) 0.55148(12)
F3_26 F 0.85433(9) 0.86603(10) 0.58242(11)
F4_26 F 0.86604(12) 0.89568(9) 0.55148(12)
B1_27 B 0.375000 0.375000 0.18321(19)
F1_27 F 0.39567(9) 0.36603(10) 0.16758(11)
F2_27 F 0.38396(12) 0.39568(9) 0.19852(12)
F3_27 F 0.35433(9) 0.38397(10) 0.16758(11)
F4_27 F 0.36604(12) 0.35432(9) 0.19852(12)
B1_28 B 0.875000 0.375000 0.68321(19)
F1_28 F 0.85433(9) 0.38397(10) 0.66758(11)
F2_28 F 0.86604(12) 0.35432(9) 0.69852(12)
F3_28 F 0.89567(9) 0.36603(10) 0.66758(11)
F4_28 F 0.88396(12) 0.39568(9) 0.69852(12)
B1_29 B 0.56679(19) 0.875000 0.875000
F1_29 F 0.58242(11) 0.85433(9) 0.86603(10)
F2_29 F 0.55148(12) 0.86604(12) 0.89568(9)
F3_29 F 0.58242(11) 0.89567(9) 0.88397(10)
F4_29 F 0.55148(12) 0.88396(12) 0.85432(9)
B1_30 B 0.06679(19) 0.375000 0.875000
F1_30 F 0.08242(11) 0.39567(9) 0.88397(10)
F2_30 F 0.05148(12) 0.38396(12) 0.85432(9)
F3_30 F 0.08242(11) 0.35433(9) 0.86603(10)
F4_30 F 0.05148(12) 0.36604(12) 0.89568(9)
B1_31 B 0.68321(19) 0.875000 0.375000
F1_31 F 0.66758(11) 0.89567(9) 0.36603(10)
F2_31 F 0.69852(12) 0.88396(12) 0.39568(9)
F3_31 F 0.66758(11) 0.85433(9) 0.38397(10)
F4_31 F 0.69852(12) 0.86604(12) 0.35432(9)
B1_32 B 0.18321(19) 0.375000 0.375000
F1_32 F 0.16758(11) 0.35433(9) 0.38397(10)
F2_32 F 0.19852(12) 0.36604(12) 0.35432(9)
F3_32 F 0.16758(11) 0.39567(9) 0.36603(10)
F4_32 F 0.19852(12) 0.38396(12) 0.39568(9)
B1_33 B 0.125000 0.31679(19) 0.125000
F1_33 F 0.10433(9) 0.33242(11) 0.13397(10)
F2_33 F 0.11604(12) 0.30148(12) 0.10432(9)
F3_33 F 0.14567(9) 0.33242(11) 0.11603(10)
F4_33 F 0.13396(12) 0.30148(12) 0.14568(9)
B1_34 B 0.625000 0.81679(19) 0.125000
F1_34 F 0.64567(9) 0.83242(11) 0.11603(10)
F2_34 F 0.63396(12) 0.80148(12) 0.14568(9)
F3_34 F 0.60433(9) 0.83242(11) 0.13397(10)
F4_34 F 0.61604(12) 0.80148(12) 0.10432(9)
B1_35 B 0.125000 0.43321(19) 0.625000
F1_35 F 0.14567(9) 0.41758(11) 0.63397(10)
F2_35 F 0.13396(12) 0.44852(12) 0.60432(9)
F3_35 F 0.10433(9) 0.41758(11) 0.61603(10)
F4_35 F 0.11604(12) 0.44852(12) 0.64568(9)
B1_36 B 0.625000 0.93321(19) 0.625000
F1_36 F 0.60433(9) 0.91758(11) 0.61603(10)
F2_36 F 0.61604(12) 0.94852(12) 0.64568(9)
F3_36 F 0.64567(9) 0.91758(11) 0.63397(10)
F4_36 F 0.63396(12) 0.94852(12) 0.60432(9)
B1_37 B 0.31679(19) 0.125000 0.125000
F1_37 F 0.33242(11) 0.11603(10) 0.14567(9)
F2_37 F 0.30148(12) 0.14568(9) 0.13396(12)
F3_37 F 0.33242(11) 0.13397(10) 0.10433(9)
F4_37 F 0.30148(12) 0.10432(9) 0.11604(12)
B1_38 B 0.81679(19) 0.125000 0.625000
F1_38 F 0.83242(11) 0.13397(10) 0.60433(9)
F2_38 F 0.80148(12) 0.10432(9) 0.61604(12)
F3_38 F 0.83242(11) 0.11603(10) 0.64567(9)
F4_38 F 0.80148(12) 0.14568(9) 0.63396(12)
B1_39 B 0.43321(19) 0.625000 0.125000
F1_39 F 0.41758(11) 0.61603(10) 0.10433(9)
F2_39 F 0.44852(12) 0.64568(9) 0.11604(12)
F3_39 F 0.41758(11) 0.63397(10) 0.14567(9)
F4_39 F 0.44852(12) 0.60432(9) 0.13396(12)
B1_40 B 0.93321(19) 0.625000 0.625000
F1_40 F 0.91758(11) 0.63397(10) 0.64567(9)
F2_40 F 0.94852(12) 0.60432(9) 0.63396(12)
F3_40 F 0.91758(11) 0.61603(10) 0.60433(9)
F4_40 F 0.94852(12) 0.64568(9) 0.61604(12)
B1_41 B 0.875000 0.56679(19) 0.875000
F1_41 F 0.86603(10) 0.58242(11) 0.85433(9)
F2_41 F 0.89568(9) 0.55148(12) 0.86604(12)
F3_41 F 0.88397(10) 0.58242(11) 0.89567(9)
F4_41 F 0.85432(9) 0.55148(12) 0.88396(12)
B1_42 B 0.875000 0.06679(19) 0.375000
F1_42 F 0.88397(10) 0.08242(11) 0.39567(9)
F2_42 F 0.85432(9) 0.05148(12) 0.38396(12)
F3_42 F 0.86603(10) 0.08242(11) 0.35433(9)
F4_42 F 0.89568(9) 0.05148(12) 0.36604(12)
B1_43 B 0.375000 0.68321(19) 0.875000
F1_43 F 0.36603(10) 0.66758(11) 0.89567(9)
F2_43 F 0.39568(9) 0.69852(12) 0.88396(12)
F3_43 F 0.38397(10) 0.66758(11) 0.85433(9)
F4_43 F 0.35432(9) 0.69852(12) 0.86604(12)
B1_44 B 0.375000 0.18321(19) 0.375000
F1_44 F 0.38397(10) 0.16758(11) 0.35433(9)
F2_44 F 0.35432(9) 0.19852(12) 0.36604(12)
F3_44 F 0.36603(10) 0.16758(11) 0.39567(9)
F4_44 F 0.39568(9) 0.19852(12) 0.38396(12)
B1_45 B 0.625000 0.625000 0.93321(19)
F1_45 F 0.61603(10) 0.60433(9) 0.91758(11)
F2_45 F 0.64568(9) 0.61604(12) 0.94852(12)
F3_45 F 0.63397(10) 0.64567(9) 0.91758(11)
F4_45 F 0.60432(9) 0.63396(12) 0.94852(12)
B1_46 B 0.625000 0.125000 0.43321(19)
F1_46 F 0.63397(10) 0.14567(9) 0.41758(11)
F2_46 F 0.60432(9) 0.13396(12) 0.44852(12)
F3_46 F 0.61603(10) 0.10433(9) 0.41758(11)
F4_46 F 0.64568(9) 0.11604(12) 0.44852(12)
B1_47 B 0.125000 0.625000 0.81679(19)
F1_47 F 0.11603(10) 0.64567(9) 0.83242(11)
F2_47 F 0.14568(9) 0.63396(12) 0.80148(12)
F3_47 F 0.13397(10) 0.60433(9) 0.83242(11)
F4_47 F 0.10432(9) 0.61604(12) 0.80148(12)
B1_48 B 0.125000 0.125000 0.31679(19)
F1_48 F 0.13397(10) 0.10433(9) 0.33242(11)
F2_48 F 0.10432(9) 0.11604(12) 0.30148(12)
F3_48 F 0.11603(10) 0.14567(9) 0.33242(11)
F4_48 F 0.14568(9) 0.13396(12) 0.30148(12)
B1_49 B 0.625000 0.625000 0.43321(19)
F1_49 F 0.64567(9) 0.63397(10) 0.41758(11)
F2_49 F 0.63396(12) 0.60432(9) 0.44852(12)
F3_49 F 0.60433(9) 0.61603(10) 0.41758(11)
F4_49 F 0.61604(12) 0.64568(9) 0.44852(12)
B1_50 B 0.125000 0.625000 0.93321(19)
F1_50 F 0.10433(9) 0.61603(10) 0.91758(11)
F2_50 F 0.11604(12) 0.64568(9) 0.94852(12)
F3_50 F 0.14567(9) 0.63397(10) 0.91758(11)
F4_50 F 0.13396(12) 0.60432(9) 0.94852(12)
B1_51 B 0.625000 0.125000 0.31679(19)
F1_51 F 0.60433(9) 0.13397(10) 0.33242(11)
F2_51 F 0.61604(12) 0.10432(9) 0.30148(12)
F3_51 F 0.64567(9) 0.11603(10) 0.33242(11)
F4_51 F 0.63396(12) 0.14568(9) 0.30148(12)
B1_52 B 0.125000 0.125000 0.81679(19)
F1_52 F 0.14567(9) 0.11603(10) 0.83242(11)
F2_52 F 0.13396(12) 0.14568(9) 0.80148(12)
F3_52 F 0.10433(9) 0.13397(10) 0.83242(11)
F4_52 F 0.11604(12) 0.10432(9) 0.80148(12)
B1_53 B 0.43321(19) 0.625000 0.625000
F1_53 F 0.41758(11) 0.64567(9) 0.63397(10)
F2_53 F 0.44852(12) 0.63396(12) 0.60432(9)
F3_53 F 0.41758(11) 0.60433(9) 0.61603(10)
F4_53 F 0.44852(12) 0.61604(12) 0.64568(9)
B1_54 B 0.93321(19) 0.125000 0.625000
F1_54 F 0.91758(11) 0.10433(9) 0.61603(10)
F2_54 F 0.94852(12) 0.11604(12) 0.64568(9)
F3_54 F 0.91758(11) 0.14567(9) 0.63397(10)
F4_54 F 0.94852(12) 0.13396(12) 0.60432(9)
B1_55 B 0.31679(19) 0.625000 0.125000
F1_55 F 0.33242(11) 0.60433(9) 0.13397(10)
F2_55 F 0.30148(12) 0.61604(12) 0.10432(9)
F3_55 F 0.33242(11) 0.64567(9) 0.11603(10)
F4_55 F 0.30148(12) 0.63396(12) 0.14568(9)
B1_56 B 0.81679(19) 0.125000 0.125000
F1_56 F 0.83242(11) 0.14567(9) 0.11603(10)
F2_56 F 0.80148(12) 0.13396(12) 0.14568(9)
F3_56 F 0.83242(11) 0.10433(9) 0.13397(10)
F4_56 F 0.80148(12) 0.11604(12) 0.10432(9)
B1_57 B 0.625000 0.43321(19) 0.625000
F1_57 F 0.63397(10) 0.41758(11) 0.64567(9)
F2_57 F 0.60432(9) 0.44852(12) 0.63396(12)
F3_57 F 0.61603(10) 0.41758(11) 0.60433(9)
F4_57 F 0.64568(9) 0.44852(12) 0.61604(12)
B1_58 B 0.625000 0.93321(19) 0.125000
F1_58 F 0.61603(10) 0.91758(11) 0.10433(9)
F2_58 F 0.64568(9) 0.94852(12) 0.11604(12)
F3_58 F 0.63397(10) 0.91758(11) 0.14567(9)
F4_58 F 0.60432(9) 0.94852(12) 0.13396(12)
B1_59 B 0.125000 0.31679(19) 0.625000
F1_59 F 0.13397(10) 0.33242(11) 0.60433(9)
F2_59 F 0.10432(9) 0.30148(12) 0.61604(12)
F3_59 F 0.11603(10) 0.33242(11) 0.64567(9)
F4_59 F 0.14568(9) 0.30148(12) 0.63396(12)
B1_60 B 0.125000 0.81679(19) 0.125000
F1_60 F 0.11603(10) 0.83242(11) 0.14567(9)
F2_60 F 0.14568(9) 0.80148(12) 0.13396(12)
F3_60 F 0.13397(10) 0.83242(11) 0.10433(9)
F4_60 F 0.10432(9) 0.80148(12) 0.11604(12)
B1_61 B 0.875000 0.375000 0.56679(19)
F1_61 F 0.88397(10) 0.39567(9) 0.58242(11)
F2_61 F 0.85432(9) 0.38396(12) 0.55148(12)
F3_61 F 0.86603(10) 0.35433(9) 0.58242(11)
F4_61 F 0.89568(9) 0.36604(12) 0.55148(12)
B1_62 B 0.875000 0.875000 0.06679(19)
F1_62 F 0.86603(10) 0.85433(9) 0.08242(11)
F2_62 F 0.89568(9) 0.86604(12) 0.05148(12)
F3_62 F 0.88397(10) 0.89567(9) 0.08242(11)
F4_62 F 0.85432(9) 0.88396(12) 0.05148(12)
B1_63 B 0.375000 0.375000 0.68321(19)
F1_63 F 0.38397(10) 0.35433(9) 0.66758(11)
F2_63 F 0.35432(9) 0.36604(12) 0.69852(12)
F3_63 F 0.36603(10) 0.39567(9) 0.66758(11)
F4_63 F 0.39568(9) 0.38396(12) 0.69852(12)
B1_64 B 0.375000 0.875000 0.18321(19)
F1_64 F 0.36603(10) 0.89567(9) 0.16758(11)
F2_64 F 0.39568(9) 0.88396(12) 0.19852(12)
F3_64 F 0.38397(10) 0.85433(9) 0.16758(11)
F4_64 F 0.35432(9) 0.86604(12) 0.19852(12)
B1_65 B 0.875000 0.18321(19) 0.375000
F1_65 F 0.89567(9) 0.16758(11) 0.36603(10)
F2_65 F 0.88396(12) 0.19852(12) 0.39568(9)
F3_65 F 0.85433(9) 0.16758(11) 0.38397(10)
F4_65 F 0.86604(12) 0.19852(12) 0.35432(9)
B1_66 B 0.375000 0.68321(19) 0.375000
F1_66 F 0.35433(9) 0.66758(11) 0.38397(10)
F2_66 F 0.36604(12) 0.69852(12) 0.35432(9)
F3_66 F 0.39567(9) 0.66758(11) 0.36603(10)
F4_66 F 0.38396(12) 0.69852(12) 0.39568(9)
B1_67 B 0.875000 0.06679(19) 0.875000
F1_67 F 0.85433(9) 0.08242(11) 0.86603(10)
F2_67 F 0.86604(12) 0.05148(12) 0.89568(9)
F3_67 F 0.89567(9) 0.08242(11) 0.88397(10)
F4_67 F 0.88396(12) 0.05148(12) 0.85432(9)
B1_68 B 0.375000 0.56679(19) 0.875000
F1_68 F 0.39567(9) 0.58242(11) 0.88397(10)
F2_68 F 0.38396(12) 0.55148(12) 0.85432(9)
F3_68 F 0.35433(9) 0.58242(11) 0.86603(10)
F4_68 F 0.36604(12) 0.55148(12) 0.89568(9)
B1_69 B 0.68321(19) 0.375000 0.375000
F1_69 F 0.66758(11) 0.38397(10) 0.35433(9)
F2_69 F 0.69852(12) 0.35432(9) 0.36604(12)
F3_69 F 0.66758(11) 0.36603(10) 0.39567(9)
F4_69 F 0.69852(12) 0.39568(9) 0.38396(12)
B1_70 B 0.18321(19) 0.375000 0.875000
F1_70 F 0.16758(11) 0.36603(10) 0.89567(9)
F2_70 F 0.19852(12) 0.39568(9) 0.88396(12)
F3_70 F 0.16758(11) 0.38397(10) 0.85433(9)
F4_70 F 0.19852(12) 0.35432(9) 0.86604(12)
B1_71 B 0.56679(19) 0.875000 0.375000
F1_71 F 0.58242(11) 0.88397(10) 0.39567(9)
F2_71 F 0.55148(12) 0.85432(9) 0.38396(12)
F3_71 F 0.58242(11) 0.86603(10) 0.35433(9)
F4_71 F 0.55148(12) 0.89568(9) 0.36604(12)
B1_72 B 0.06679(19) 0.875000 0.875000
F1_72 F 0.08242(11) 0.86603(10) 0.85433(9)
F2_72 F 0.05148(12) 0.89568(9) 0.86604(12)
F3_72 F 0.08242(11) 0.88397(10) 0.89567(9)
F4_72 F 0.05148(12) 0.85432(9) 0.88396(12)
B1_73 B 0.625000 0.125000 0.93321(19)
F1_73 F 0.64567(9) 0.13397(10) 0.91758(11)
F2_73 F 0.63396(12) 0.10432(9) 0.94852(12)
F3_73 F 0.60433(9) 0.11603(10) 0.91758(11)
F4_73 F 0.61604(12) 0.14568(9) 0.94852(12)
B1_74 B 0.125000 0.125000 0.43321(19)
F1_74 F 0.10433(9) 0.11603(10) 0.41758(11)
F2_74 F 0.11604(12) 0.14568(9) 0.44852(12)
F3_74 F 0.14567(9) 0.13397(10) 0.41758(11)
F4_74 F 0.13396(12) 0.10432(9) 0.44852(12)
B1_75 B 0.625000 0.625000 0.81679(19)
F1_75 F 0.60433(9) 0.63397(10) 0.83242(11)
F2_75 F 0.61604(12) 0.60432(9) 0.80148(12)
F3_75 F 0.64567(9) 0.61603(10) 0.83242(11)
F4_75 F 0.63396(12) 0.64568(9) 0.80148(12)
B1_76 B 0.125000 0.625000 0.31679(19)
F1_76 F 0.14567(9) 0.61603(10) 0.33242(11)
F2_76 F 0.13396(12) 0.64568(9) 0.30148(12)
F3_76 F 0.10433(9) 0.63397(10) 0.33242(11)
F4_76 F 0.11604(12) 0.60432(9) 0.30148(12)
B1_77 B 0.43321(19) 0.125000 0.125000
F1_77 F 0.41758(11) 0.14567(9) 0.13397(10)
F2_77 F 0.44852(12) 0.13396(12) 0.10432(9)
F3_77 F 0.41758(11) 0.10433(9) 0.11603(10)
F4_77 F 0.44852(12) 0.11604(12) 0.14568(9)
B1_78 B 0.93321(19) 0.625000 0.125000
F1_78 F 0.91758(11) 0.60433(9) 0.11603(10)
F2_78 F 0.94852(12) 0.61604(12) 0.14568(9)
F3_78 F 0.91758(11) 0.64567(9) 0.13397(10)
F4_78 F 0.94852(12) 0.63396(12) 0.10432(9)
B1_79 B 0.31679(19) 0.125000 0.625000
F1_79 F 0.33242(11) 0.10433(9) 0.63397(10)
F2_79 F 0.30148(12) 0.11604(12) 0.60432(9)
F3_79 F 0.33242(11) 0.14567(9) 0.61603(10)
F4_79 F 0.30148(12) 0.13396(12) 0.64568(9)
B1_80 B 0.81679(19) 0.625000 0.625000
F1_80 F 0.83242(11) 0.64567(9) 0.61603(10)
F2_80 F 0.80148(12) 0.63396(12) 0.64568(9)
F3_80 F 0.83242(11) 0.60433(9) 0.63397(10)
F4_80 F 0.80148(12) 0.61604(12) 0.60432(9)
B1_81 B 0.875000 0.68321(19) 0.875000
F1_81 F 0.89567(9) 0.66758(11) 0.86603(10)
F2_81 F 0.88396(12) 0.69852(12) 0.89568(9)
F3_81 F 0.85433(9) 0.66758(11) 0.88397(10)
F4_81 F 0.86604(12) 0.69852(12) 0.85432(9)
B1_82 B 0.375000 0.18321(19) 0.875000
F1_82 F 0.35433(9) 0.16758(11) 0.88397(10)
F2_82 F 0.36604(12) 0.19852(12) 0.85432(9)
F3_82 F 0.39567(9) 0.16758(11) 0.86603(10)
F4_82 F 0.38396(12) 0.19852(12) 0.89568(9)
B1_83 B 0.875000 0.56679(19) 0.375000
F1_83 F 0.85433(9) 0.58242(11) 0.36603(10)
F2_83 F 0.86604(12) 0.55148(12) 0.39568(9)
F3_83 F 0.89567(9) 0.58242(11) 0.38397(10)
F4_83 F 0.88396(12) 0.55148(12) 0.35432(9)
B1_84 B 0.375000 0.06679(19) 0.375000
F1_84 F 0.39567(9) 0.08242(11) 0.38397(10)
F2_84 F 0.38396(12) 0.05148(12) 0.35432(9)
F3_84 F 0.35433(9) 0.08242(11) 0.36603(10)
F4_84 F 0.36604(12) 0.05148(12) 0.39568(9)
B1_85 B 0.68321(19) 0.875000 0.875000
F1_85 F 0.66758(11) 0.88397(10) 0.85433(9)
F2_85 F 0.69852(12) 0.85432(9) 0.86604(12)
F3_85 F 0.66758(11) 0.86603(10) 0.89567(9)
F4_85 F 0.69852(12) 0.89568(9) 0.88396(12)
B1_86 B 0.18321(19) 0.875000 0.375000
F1_86 F 0.16758(11) 0.86603(10) 0.39567(9)
F2_86 F 0.19852(12) 0.89568(9) 0.38396(12)
F3_86 F 0.16758(11) 0.88397(10) 0.35433(9)
F4_86 F 0.19852(12) 0.85432(9) 0.36604(12)
B1_87 B 0.56679(19) 0.375000 0.875000
F1_87 F 0.58242(11) 0.38397(10) 0.89567(9)
F2_87 F 0.55148(12) 0.35432(9) 0.88396(12)
F3_87 F 0.58242(11) 0.36603(10) 0.85433(9)
F4_87 F 0.55148(12) 0.39568(9) 0.86604(12)
B1_88 B 0.06679(19) 0.375000 0.375000
F1_88 F 0.08242(11) 0.36603(10) 0.35433(9)
F2_88 F 0.05148(12) 0.39568(9) 0.36604(12)
F3_88 F 0.08242(11) 0.38397(10) 0.39567(9)
F4_88 F 0.05148(12) 0.35432(9) 0.38396(12)
B1_89 B 0.125000 0.43321(19) 0.125000
F1_89 F 0.13397(10) 0.41758(11) 0.14567(9)
F2_89 F 0.10432(9) 0.44852(12) 0.13396(12)
F3_89 F 0.11603(10) 0.41758(11) 0.10433(9)
F4_89 F 0.14568(9) 0.44852(12) 0.11604(12)
B1_90 B 0.125000 0.93321(19) 0.625000
F1_90 F 0.11603(10) 0.91758(11) 0.60433(9)
F2_90 F 0.14568(9) 0.94852(12) 0.61604(12)
F3_90 F 0.13397(10) 0.91758(11) 0.64567(9)
F4_90 F 0.10432(9) 0.94852(12) 0.63396(12)
B1_91 B 0.625000 0.31679(19) 0.125000
F1_91 F 0.63397(10) 0.33242(11) 0.10433(9)
F2_91 F 0.60432(9) 0.30148(12) 0.11604(12)
F3_91 F 0.61603(10) 0.33242(11) 0.14567(9)
F4_91 F 0.64568(9) 0.30148(12) 0.13396(12)
B1_92 B 0.625000 0.81679(19) 0.625000
F1_92 F 0.61603(10) 0.83242(11) 0.64567(9)
F2_92 F 0.64568(9) 0.80148(12) 0.63396(12)
F3_92 F 0.63397(10) 0.83242(11) 0.60433(9)
F4_92 F 0.60432(9) 0.80148(12) 0.61604(12)
B1_93 B 0.375000 0.375000 0.06679(19)
F1_93 F 0.38397(10) 0.39567(9) 0.08242(11)
F2_93 F 0.35432(9) 0.38396(12) 0.05148(12)
F3_93 F 0.36603(10) 0.35433(9) 0.08242(11)
F4_93 F 0.39568(9) 0.36604(12) 0.05148(12)
B1_94 B 0.375000 0.875000 0.56679(19)
F1_94 F 0.36603(10) 0.85433(9) 0.58242(11)
F2_94 F 0.39568(9) 0.86604(12) 0.55148(12)
F3_94 F 0.38397(10) 0.89567(9) 0.58242(11)
F4_94 F 0.35432(9) 0.88396(12) 0.55148(12)
B1_95 B 0.875000 0.375000 0.18321(19)
F1_95 F 0.88397(10) 0.35433(9) 0.16758(11)
F2_95 F 0.85432(9) 0.36604(12) 0.19852(12)
F3_95 F 0.86603(10) 0.39567(9) 0.16758(11)
F4_95 F 0.89568(9) 0.38396(12) 0.19852(12)
B1_96 B 0.875000 0.875000 0.68321(19)
F1_96 F 0.86603(10) 0.89567(9) 0.66758(11)
F2_96 F 0.89568(9) 0.88396(12) 0.69852(12)
F3_96 F 0.88397(10) 0.85433(9) 0.66758(11)
F4_96 F 0.85432(9) 0.86604(12) 0.69852(12)
B2 B 0.3123(2) 0.3123(2) 0.4377(2)
F5 F 0.29652(19) 0.29652(19) 0.45348(19)
F6 F 0.3205(3) 0.2981(2) 0.4158(3)
F7 F 0.3342(3) 0.3205(3) 0.4519(2)
F8 F 0.2981(2) 0.3342(3) 0.4295(3)
B2_2 B 0.9377(2) 0.4377(2) 0.9377(2)
F5_2 F 0.95348(19) 0.45348(19) 0.95348(19)
F6_2 F 0.9295(3) 0.4519(2) 0.9158(3)
F7_2 F 0.9158(3) 0.4295(3) 0.9519(2)
F8_2 F 0.9519(2) 0.4158(3) 0.9295(3)
B2_3 B 0.4377(2) 0.8123(2) 0.8123(2)
F5_3 F 0.45348(19) 0.79652(19) 0.79652(19)
F6_3 F 0.4295(3) 0.7981(2) 0.8342(3)
F7_3 F 0.4158(3) 0.8205(3) 0.7981(2)
F8_3 F 0.4519(2) 0.8342(3) 0.8205(3)
B2_4 B 0.8123(2) 0.9377(2) 0.3123(2)
F5_4 F 0.79652(19) 0.95348(19) 0.29652(19)
F6_4 F 0.8205(3) 0.9519(2) 0.3342(3)
F7_4 F 0.8342(3) 0.9295(3) 0.2981(2)
F8_4 F 0.7981(2) 0.9158(3) 0.3205(3)
B2_5 B 0.4377(2) 0.3123(2) 0.3123(2)
F5_5 F 0.45348(19) 0.29652(19) 0.29652(19)
F6_5 F 0.4158(3) 0.3205(3) 0.2981(2)
F7_5 F 0.4519(2) 0.3342(3) 0.3205(3)
F8_5 F 0.4295(3) 0.2981(2) 0.3342(3)
B2_6 B 0.9377(2) 0.9377(2) 0.4377(2)
F5_6 F 0.95348(19) 0.95348(19) 0.45348(19)
F6_6 F 0.9158(3) 0.9295(3) 0.4519(2)
F7_6 F 0.9519(2) 0.9158(3) 0.4295(3)
F8_6 F 0.9295(3) 0.9519(2) 0.4158(3)
B2_7 B 0.8123(2) 0.4377(2) 0.8123(2)
F5_7 F 0.79652(19) 0.45348(19) 0.79652(19)
F6_7 F 0.8342(3) 0.4295(3) 0.7981(2)
F7_7 F 0.7981(2) 0.4158(3) 0.8205(3)
F8_7 F 0.8205(3) 0.4519(2) 0.8342(3)
B2_8 B 0.3123(2) 0.8123(2) 0.9377(2)
F5_8 F 0.29652(19) 0.79652(19) 0.95348(19)
F6_8 F 0.3342(3) 0.8205(3) 0.9519(2)
F7_8 F 0.2981(2) 0.8342(3) 0.9295(3)
F8_8 F 0.3205(3) 0.7981(2) 0.9158(3)
B2_9 B 0.3123(2) 0.4377(2) 0.3123(2)
F5_9 F 0.29652(19) 0.45348(19) 0.29652(19)
F6_9 F 0.2981(2) 0.4158(3) 0.3205(3)
F7_9 F 0.3205(3) 0.4519(2) 0.3342(3)
F8_9 F 0.3342(3) 0.4295(3) 0.2981(2)
B2_10 B 0.4377(2) 0.9377(2) 0.9377(2)
F5_10 F 0.45348(19) 0.95348(19) 0.95348(19)
F6_10 F 0.4519(2) 0.9158(3) 0.9295(3)
F7_10 F 0.4295(3) 0.9519(2) 0.9158(3)
F8_10 F 0.4158(3) 0.9295(3) 0.9519(2)
B2_11 B 0.8123(2) 0.8123(2) 0.4377(2)
F5_11 F 0.79652(19) 0.79652(19) 0.45348(19)
F6_11 F 0.7981(2) 0.8342(3) 0.4295(3)
F7_11 F 0.8205(3) 0.7981(2) 0.4158(3)
F8_11 F 0.8342(3) 0.8205(3) 0.4519(2)
B2_12 B 0.9377(2) 0.3123(2) 0.8123(2)
F5_12 F 0.95348(19) 0.29652(19) 0.79652(19)
F6_12 F 0.9519(2) 0.3342(3) 0.8205(3)
F7_12 F 0.9295(3) 0.2981(2) 0.8342(3)
F8_12 F 0.9158(3) 0.3205(3) 0.7981(2)
B2_13 B 0.0623(2) 0.5623(2) 0.5623(2)
F5_13 F 0.04652(19) 0.54652(19) 0.54652(19)
F6_13 F 0.0481(2) 0.5705(3) 0.5842(3)
F7_13 F 0.0705(3) 0.5842(3) 0.5481(2)
F8_13 F 0.0842(3) 0.5481(2) 0.5705(3)
B2_14 B 0.1877(2) 0.1877(2) 0.0623(2)
F5_14 F 0.20348(19) 0.20348(19) 0.04652(19)
F6_14 F 0.2019(2) 0.1795(3) 0.0842(3)
F7_14 F 0.1795(3) 0.1658(3) 0.0481(2)
F8_14 F 0.1658(3) 0.2019(2) 0.0705(3)
B2_15 B 0.5623(2) 0.6877(2) 0.1877(2)
F5_15 F 0.54652(19) 0.70348(19) 0.20348(19)
F6_15 F 0.5481(2) 0.6795(3) 0.1658(3)
F7_15 F 0.5705(3) 0.6658(3) 0.2019(2)
F8_15 F 0.5842(3) 0.7019(2) 0.1795(3)
B2_16 B 0.6877(2) 0.0623(2) 0.6877(2)
F5_16 F 0.70348(19) 0.04652(19) 0.70348(19)
F6_16 F 0.7019(2) 0.0705(3) 0.6658(3)
F7_16 F 0.6795(3) 0.0842(3) 0.7019(2)
F8_16 F 0.6658(3) 0.0481(2) 0.6795(3)
B2_17 B 0.0623(2) 0.6877(2) 0.6877(2)
F5_17 F 0.04652(19) 0.70348(19) 0.70348(19)
F6_17 F 0.0705(3) 0.6658(3) 0.7019(2)
F7_17 F 0.0842(3) 0.7019(2) 0.6795(3)
F8_17 F 0.0481(2) 0.6795(3) 0.6658(3)
B2_18 B 0.6877(2) 0.1877(2) 0.5623(2)
F5_18 F 0.70348(19) 0.20348(19) 0.54652(19)
F6_18 F 0.6795(3) 0.1658(3) 0.5481(2)
F7_18 F 0.6658(3) 0.2019(2) 0.5705(3)
F8_18 F 0.7019(2) 0.1795(3) 0.5842(3)
B2_19 B 0.1877(2) 0.0623(2) 0.1877(2)
F5_19 F 0.20348(19) 0.04652(19) 0.20348(19)
F6_19 F 0.1795(3) 0.0842(3) 0.2019(2)
F7_19 F 0.1658(3) 0.0481(2) 0.1795(3)
F8_19 F 0.2019(2) 0.0705(3) 0.1658(3)
B2_20 B 0.5623(2) 0.5623(2) 0.0623(2)
F5_20 F 0.54652(19) 0.54652(19) 0.04652(19)
F6_20 F 0.5705(3) 0.5842(3) 0.0481(2)
F7_20 F 0.5842(3) 0.5481(2) 0.0705(3)
F8_20 F 0.5481(2) 0.5705(3) 0.0842(3)
B2_21 B 0.1877(2) 0.5623(2) 0.6877(2)
F5_21 F 0.20348(19) 0.54652(19) 0.70348(19)
F6_21 F 0.1658(3) 0.5481(2) 0.6795(3)
F7_21 F 0.2019(2) 0.5705(3) 0.6658(3)
F8_21 F 0.1795(3) 0.5842(3) 0.7019(2)
B2_22 B 0.6877(2) 0.6877(2) 0.0623(2)
F5_22 F 0.70348(19) 0.70348(19) 0.04652(19)
F6_22 F 0.6658(3) 0.7019(2) 0.0705(3)
F7_22 F 0.7019(2) 0.6795(3) 0.0842(3)
F8_22 F 0.6795(3) 0.6658(3) 0.0481(2)
B2_23 B 0.5623(2) 0.0623(2) 0.5623(2)
F5_23 F 0.54652(19) 0.04652(19) 0.54652(19)
F6_23 F 0.5842(3) 0.0481(2) 0.5705(3)
F7_23 F 0.5481(2) 0.0705(3) 0.5842(3)
F8_23 F 0.5705(3) 0.0842(3) 0.5481(2)
B2_24 B 0.0623(2) 0.1877(2) 0.1877(2)
F5_24 F 0.04652(19) 0.20348(19) 0.20348(19)
F6_24 F 0.0842(3) 0.2019(2) 0.1795(3)
F7_24 F 0.0481(2) 0.1795(3) 0.1658(3)
F8_24 F 0.0705(3) 0.1658(3) 0.2019(2)
B2_25 B 0.3123(2) 0.9377(2) 0.8123(2)
F5_25 F 0.29652(19) 0.95348(19) 0.79652(19)
F6_25 F 0.2981(2) 0.9158(3) 0.8205(3)
F7_25 F 0.3205(3) 0.9519(2) 0.8342(3)
F8_25 F 0.3342(3) 0.9295(3) 0.7981(2)
B2_26 B 0.4377(2) 0.4377(2) 0.4377(2)
F5_26 F 0.45348(19) 0.45348(19) 0.45348(19)
F6_26 F 0.4519(2) 0.4158(3) 0.4295(3)
F7_26 F 0.4295(3) 0.4519(2) 0.4158(3)
F8_26 F 0.4158(3) 0.4295(3) 0.4519(2)
B2_27 B 0.8123(2) 0.3123(2) 0.9377(2)
F5_27 F 0.79652(19) 0.29652(19) 0.95348(19)
F6_27 F 0.7981(2) 0.3342(3) 0.9295(3)
F7_27 F 0.8205(3) 0.2981(2) 0.9158(3)
F8_27 F 0.8342(3) 0.3205(3) 0.9519(2)
B2_28 B 0.9377(2) 0.8123(2) 0.3123(2)
F5_28 F 0.95348(19) 0.79652(19) 0.29652(19)
F6_28 F 0.9519(2) 0.8342(3) 0.3205(3)
F7_28 F 0.9295(3) 0.7981(2) 0.3342(3)
F8_28 F 0.9158(3) 0.8205(3) 0.2981(2)
B2_29 B 0.0623(2) 0.0623(2) 0.0623(2)
F5_29 F 0.04652(19) 0.04652(19) 0.04652(19)
F6_29 F 0.0481(2) 0.0705(3) 0.0842(3)
F7_29 F 0.0705(3) 0.0842(3) 0.0481(2)
F8_29 F 0.0842(3) 0.0481(2) 0.0705(3)
B2_30 B 0.1877(2) 0.6877(2) 0.5623(2)
F5_30 F 0.20348(19) 0.70348(19) 0.54652(19)
F6_30 F 0.2019(2) 0.6795(3) 0.5842(3)
F7_30 F 0.1795(3) 0.6658(3) 0.5481(2)
F8_30 F 0.1658(3) 0.7019(2) 0.5705(3)
B2_31 B 0.5623(2) 0.1877(2) 0.6877(2)
F5_31 F 0.54652(19) 0.20348(19) 0.70348(19)
F6_31 F 0.5481(2) 0.1795(3) 0.6658(3)
F7_31 F 0.5705(3) 0.1658(3) 0.7019(2)
F8_31 F 0.5842(3) 0.2019(2) 0.6795(3)
B2_32 B 0.6877(2) 0.5623(2) 0.1877(2)
F5_32 F 0.70348(19) 0.54652(19) 0.20348(19)
F6_32 F 0.7019(2) 0.5705(3) 0.1658(3)
F7_32 F 0.6795(3) 0.5842(3) 0.2019(2)
F8_32 F 0.6658(3) 0.5481(2) 0.1795(3)
B2_33 B 0.6877(2) 0.6877(2) 0.5623(2)
F5_33 F 0.70348(19) 0.70348(19) 0.54652(19)
F6_33 F 0.6795(3) 0.7019(2) 0.5842(3)
F7_33 F 0.6658(3) 0.6795(3) 0.5481(2)
F8_33 F 0.7019(2) 0.6658(3) 0.5705(3)
B2_34 B 0.0623(2) 0.5623(2) 0.0623(2)
F5_34 F 0.04652(19) 0.54652(19) 0.04652(19)
F6_34 F 0.0705(3) 0.5481(2) 0.0842(3)
F7_34 F 0.0842(3) 0.5705(3) 0.0481(2)
F8_34 F 0.0481(2) 0.5842(3) 0.0705(3)
B2_35 B 0.5623(2) 0.1877(2) 0.1877(2)
F5_35 F 0.54652(19) 0.20348(19) 0.20348(19)
F6_35 F 0.5705(3) 0.2019(2) 0.1658(3)
F7_35 F 0.5842(3) 0.1795(3) 0.2019(2)
F8_35 F 0.5481(2) 0.1658(3) 0.1795(3)
B2_36 B 0.1877(2) 0.0623(2) 0.6877(2)
F5_36 F 0.20348(19) 0.04652(19) 0.70348(19)
F6_36 F 0.1795(3) 0.0481(2) 0.6658(3)
F7_36 F 0.1658(3) 0.0705(3) 0.7019(2)
F8_36 F 0.2019(2) 0.0842(3) 0.6795(3)
B2_37 B 0.5623(2) 0.6877(2) 0.6877(2)
F5_37 F 0.54652(19) 0.70348(19) 0.70348(19)
F6_37 F 0.5842(3) 0.6795(3) 0.7019(2)
F7_37 F 0.5481(2) 0.6658(3) 0.6795(3)
F8_37 F 0.5705(3) 0.7019(2) 0.6658(3)
B2_38 B 0.0623(2) 0.0623(2) 0.5623(2)
F5_38 F 0.04652(19) 0.04652(19) 0.54652(19)
F6_38 F 0.0842(3) 0.0705(3) 0.5481(2)
F7_38 F 0.0481(2) 0.0842(3) 0.5705(3)
F8_38 F 0.0705(3) 0.0481(2) 0.5842(3)
B2_39 B 0.1877(2) 0.5623(2) 0.1877(2)
F5_39 F 0.20348(19) 0.54652(19) 0.20348(19)
F6_39 F 0.1658(3) 0.5705(3) 0.2019(2)
F7_39 F 0.2019(2) 0.5842(3) 0.1795(3)
F8_39 F 0.1795(3) 0.5481(2) 0.1658(3)
B2_40 B 0.6877(2) 0.1877(2) 0.0623(2)
F5_40 F 0.70348(19) 0.20348(19) 0.04652(19)
F6_40 F 0.6658(3) 0.1795(3) 0.0481(2)
F7_40 F 0.7019(2) 0.1658(3) 0.0705(3)
F8_40 F 0.6795(3) 0.2019(2) 0.0842(3)
B2_41 B 0.6877(2) 0.5623(2) 0.6877(2)
F5_41 F 0.70348(19) 0.54652(19) 0.70348(19)
F6_41 F 0.7019(2) 0.5842(3) 0.6795(3)
F7_41 F 0.6795(3) 0.5481(2) 0.6658(3)
F8_41 F 0.6658(3) 0.5705(3) 0.7019(2)
B2_42 B 0.5623(2) 0.0623(2) 0.0623(2)
F5_42 F 0.54652(19) 0.04652(19) 0.04652(19)
F6_42 F 0.5481(2) 0.0842(3) 0.0705(3)
F7_42 F 0.5705(3) 0.0481(2) 0.0842(3)
F8_42 F 0.5842(3) 0.0705(3) 0.0481(2)
B2_43 B 0.1877(2) 0.1877(2) 0.5623(2)
F5_43 F 0.20348(19) 0.20348(19) 0.54652(19)
F6_43 F 0.2019(2) 0.1658(3) 0.5705(3)
F7_43 F 0.1795(3) 0.2019(2) 0.5842(3)
F8_43 F 0.1658(3) 0.1795(3) 0.5481(2)
B2_44 B 0.0623(2) 0.6877(2) 0.1877(2)
F5_44 F 0.04652(19) 0.70348(19) 0.20348(19)
F6_44 F 0.0481(2) 0.6658(3) 0.1795(3)
F7_44 F 0.0705(3) 0.7019(2) 0.1658(3)
F8_44 F 0.0842(3) 0.6795(3) 0.2019(2)
B2_45 B 0.9377(2) 0.4377(2) 0.4377(2)
F5_45 F 0.95348(19) 0.45348(19) 0.45348(19)
F6_45 F 0.9519(2) 0.4295(3) 0.4158(3)
F7_45 F 0.9295(3) 0.4158(3) 0.4519(2)
F8_45 F 0.9158(3) 0.4519(2) 0.4295(3)
B2_46 B 0.8123(2) 0.8123(2) 0.9377(2)
F5_46 F 0.79652(19) 0.79652(19) 0.95348(19)
F6_46 F 0.7981(2) 0.8205(3) 0.9158(3)
F7_46 F 0.8205(3) 0.8342(3) 0.9519(2)
F8_46 F 0.8342(3) 0.7981(2) 0.9295(3)
B2_47 B 0.4377(2) 0.3123(2) 0.8123(2)
F5_47 F 0.45348(19) 0.29652(19) 0.79652(19)
F6_47 F 0.4519(2) 0.3205(3) 0.8342(3)
F7_47 F 0.4295(3) 0.3342(3) 0.7981(2)
F8_47 F 0.4158(3) 0.2981(2) 0.8205(3)
B2_48 B 0.3123(2) 0.9377(2) 0.3123(2)
F5_48 F 0.29652(19) 0.95348(19) 0.29652(19)
F6_48 F 0.2981(2) 0.9295(3) 0.3342(3)
F7_48 F 0.3205(3) 0.9158(3) 0.2981(2)
F8_48 F 0.3342(3) 0.9519(2) 0.3205(3)
B2_49 B 0.9377(2) 0.3123(2) 0.3123(2)
F5_49 F 0.95348(19) 0.29652(19) 0.29652(19)
F6_49 F 0.9295(3) 0.3342(3) 0.2981(2)
F7_49 F 0.9158(3) 0.2981(2) 0.3205(3)
F8_49 F 0.9519(2) 0.3205(3) 0.3342(3)
B2_50 B 0.3123(2) 0.8123(2) 0.4377(2)
F5_50 F 0.29652(19) 0.79652(19) 0.45348(19)
F6_50 F 0.3205(3) 0.8342(3) 0.4519(2)
F7_50 F 0.3342(3) 0.7981(2) 0.4295(3)
F8_50 F 0.2981(2) 0.8205(3) 0.4158(3)
B2_51 B 0.8123(2) 0.9377(2) 0.8123(2)
F5_51 F 0.79652(19) 0.95348(19) 0.79652(19)
F6_51 F 0.8205(3) 0.9158(3) 0.7981(2)
F7_51 F 0.8342(3) 0.9519(2) 0.8205(3)
F8_51 F 0.7981(2) 0.9295(3) 0.8342(3)
B2_52 B 0.4377(2) 0.4377(2) 0.9377(2)
F5_52 F 0.45348(19) 0.45348(19) 0.95348(19)
F6_52 F 0.4295(3) 0.4158(3) 0.9519(2)
F7_52 F 0.4158(3) 0.4519(2) 0.9295(3)
F8_52 F 0.4519(2) 0.4295(3) 0.9158(3)
B2_53 B 0.8123(2) 0.4377(2) 0.3123(2)
F5_53 F 0.79652(19) 0.45348(19) 0.29652(19)
F6_53 F 0.8342(3) 0.4519(2) 0.3205(3)
F7_53 F 0.7981(2) 0.4295(3) 0.3342(3)
F8_53 F 0.8205(3) 0.4158(3) 0.2981(2)
B2_54 B 0.3123(2) 0.3123(2) 0.9377(2)
F5_54 F 0.29652(19) 0.29652(19) 0.95348(19)
F6_54 F 0.3342(3) 0.2981(2) 0.9295(3)
F7_54 F 0.2981(2) 0.3205(3) 0.9158(3)
F8_54 F 0.3205(3) 0.3342(3) 0.9519(2)
B2_55 B 0.4377(2) 0.9377(2) 0.4377(2)
F5_55 F 0.45348(19) 0.95348(19) 0.45348(19)
F6_55 F 0.4158(3) 0.9519(2) 0.4295(3)
F7_55 F 0.4519(2) 0.9295(3) 0.4158(3)
F8_55 F 0.4295(3) 0.9158(3) 0.4519(2)
B2_56 B 0.9377(2) 0.8123(2) 0.8123(2)
F5_56 F 0.95348(19) 0.79652(19) 0.79652(19)
F6_56 F 0.9158(3) 0.7981(2) 0.8205(3)
F7_56 F 0.9519(2) 0.8205(3) 0.8342(3)
F8_56 F 0.9295(3) 0.8342(3) 0.7981(2)
B2_57 B 0.6877(2) 0.0623(2) 0.1877(2)
F5_57 F 0.70348(19) 0.04652(19) 0.20348(19)
F6_57 F 0.7019(2) 0.0842(3) 0.1795(3)
F7_57 F 0.6795(3) 0.0481(2) 0.1658(3)
F8_57 F 0.6658(3) 0.0705(3) 0.2019(2)
B2_58 B 0.5623(2) 0.5623(2) 0.5623(2)
F5_58 F 0.54652(19) 0.54652(19) 0.54652(19)
F6_58 F 0.5481(2) 0.5842(3) 0.5705(3)
F7_58 F 0.5705(3) 0.5481(2) 0.5842(3)
F8_58 F 0.5842(3) 0.5705(3) 0.5481(2)
B2_59 B 0.1877(2) 0.6877(2) 0.0623(2)
F5_59 F 0.20348(19) 0.70348(19) 0.04652(19)
F6_59 F 0.2019(2) 0.6658(3) 0.0705(3)
F7_59 F 0.1795(3) 0.7019(2) 0.0842(3)
F8_59 F 0.1658(3) 0.6795(3) 0.0481(2)
B2_60 B 0.0623(2) 0.1877(2) 0.6877(2)
F5_60 F 0.04652(19) 0.20348(19) 0.70348(19)
F6_60 F 0.0481(2) 0.1658(3) 0.6795(3)
F7_60 F 0.0705(3) 0.2019(2) 0.6658(3)
F8_60 F 0.0842(3) 0.1795(3) 0.7019(2)
B2_61 B 0.9377(2) 0.9377(2) 0.9377(2)
F5_61 F 0.95348(19) 0.95348(19) 0.95348(19)
F6_61 F 0.9519(2) 0.9295(3) 0.9158(3)
F7_61 F 0.9295(3) 0.9158(3) 0.9519(2)
F8_61 F 0.9158(3) 0.9519(2) 0.9295(3)
B2_62 B 0.8123(2) 0.3123(2) 0.4377(2)
F5_62 F 0.79652(19) 0.29652(19) 0.45348(19)
F6_62 F 0.7981(2) 0.3205(3) 0.4158(3)
F7_62 F 0.8205(3) 0.3342(3) 0.4519(2)
F8_62 F 0.8342(3) 0.2981(2) 0.4295(3)
B2_63 B 0.4377(2) 0.8123(2) 0.3123(2)
F5_63 F 0.45348(19) 0.79652(19) 0.29652(19)
F6_63 F 0.4519(2) 0.8205(3) 0.3342(3)
F7_63 F 0.4295(3) 0.8342(3) 0.2981(2)
F8_63 F 0.4158(3) 0.7981(2) 0.3205(3)
B2_64 B 0.3123(2) 0.4377(2) 0.8123(2)
F5_64 F 0.29652(19) 0.45348(19) 0.79652(19)
F6_64 F 0.2981(2) 0.4295(3) 0.8342(3)
F7_64 F 0.3205(3) 0.4158(3) 0.7981(2)
F8_64 F 0.3342(3) 0.4519(2) 0.8205(3)
Ag1 Ag 0.27415(2) 0.41253(2) 0.61315(2)
P1 P 0.25937(3) 0.35388(3) 0.57545(3)
N1 N 0.29534(9) 0.36938(9) 0.61438(9)
N2 N 0.31765(9) 0.31772(9) 0.62300(10)
C1 C 0.28715(10) 0.34766(10) 0.59977(11)
C2 C 0.29870(10) 0.32224(11) 0.60405(12)
H1 H 0.292866 0.307419 0.593030
C3 C 0.32557(12) 0.33931(11) 0.63778(13)
H2 H 0.339017 0.337008 0.651532
C4 C 0.31448(11) 0.36500(11) 0.63334(12)
H3 H 0.320654 0.379889 0.644073
C5 C 0.24304(11) 0.32068(12) 0.57372(13)
C6 C 0.22553(16) 0.31413(16) 0.59544(17)
H4 H 0.223204 0.326612 0.610071
C7 C 0.21162(19) 0.28944(19) 0.5956(2)
H5 H 0.199038 0.285344 0.609725
C8 C 0.21628(16) 0.27103(17) 0.5750(2)
H6 H 0.207891 0.253582 0.575738
C9 C 0.23238(16) 0.27723(15) 0.55396(19)
H7 H 0.234619 0.264557 0.539484
C10 C 0.24632(15) 0.30289(13) 0.55310(16)
H8 H 0.257762 0.307304 0.538108
C11 C 0.27580(12) 0.35923(11) 0.54286(11)
C12 C 0.26031(16) 0.37214(18) 0.52264(14)
H9 H 0.242167 0.377772 0.526434
C13 C 0.27158(18) 0.3767(2) 0.49690(15)
H10 H 0.261098 0.385115 0.482933
C14 C 0.2981(2) 0.3689(2) 0.49207(17)
H11 H 0.305776 0.371614 0.474468
C15 C 0.3136(2) 0.35746(19) 0.51181(19)
H12 H 0.332086 0.353056 0.508274
C16 C 0.30225(16) 0.35206(15) 0.53758(16)
H13 H 0.312911 0.343461 0.551276
N3 N 0.28638(17) 0.42545(14) 0.57053(13)
C17 C 0.3013(3) 0.4290(2) 0.5532(2)
C18 C 0.3213(3) 0.4338(3) 0.5280(3)
H14 H 0.310605 0.436426 0.511307
H15 H 0.333193 0.417859 0.525789
H16 H 0.332513 0.450011 0.531312
Ag2 Ag 0.22585(2) 0.38685(2) 0.58747(2)
Ag3 Ag 0.33747(2) 0.27415(2) 0.63685(2)
P2 P 0.24063(3) 0.42455(3) 0.64612(3)
N4 N 0.31772(9) 0.43235(9) 0.62700(10)
C5_2 C 0.00696(11) 0.42932(12) 0.07372(13)
C6_2 C 0.02447(16) 0.43587(16) 0.09544(17)
H4_2 H 0.026796 0.423388 0.110071
C7_2 C 0.03838(19) 0.46056(19) 0.0956(2)
H5_2 H 0.050962 0.464656 0.109725
C8_2 C 0.03372(16) 0.47897(17) 0.0750(2)
H6_2 H 0.042109 0.496418 0.075738
C9_2 C 0.01762(16) 0.47277(15) 0.05396(19)
H7_2 H 0.015381 0.485443 0.039484
C10_2 C 0.00368(15) 0.44711(13) 0.05310(16)
H9_2 H 0.007833 0.372228 0.026434
Ag2_2 Ag 0.02415(2) 0.36315(2) 0.08747(2)
P2_2 P 0.00937(3) 0.32545(3) 0.14612(3)
Ag1_2 Ag 0.97585(2) 0.33747(2) 0.11315(2)
P1_2 P 0.99063(3) 0.39612(3) 0.07545(3)
N1_2 N 0.95466(9) 0.38062(9) 0.11438(9)
N2_2 N 0.93235(9) 0.43228(9) 0.12300(10)
C1_2 C 0.96285(10) 0.40234(10) 0.09977(11)
C2_2 C 0.95130(10) 0.42776(11) 0.10405(12)
H1_2 H 0.957134 0.442581 0.093030
C3_2 C 0.92443(12) 0.41069(11) 0.13778(13)
H2_2 H 0.910983 0.412992 0.151532
C4_2 C 0.93552(11) 0.38500(11) 0.13334(12)
H3_2 H 0.929346 0.370111 0.144073
H8_2 H 0.992238 0.442696 0.038108
C11_2 C 0.97420(12) 0.39077(11) 0.04286(11)
C12_2 C 0.98969(16) 0.37786(18) 0.02264(14)
C15_2 C 0.9364(2) 0.39254(19) 0.01181(19)
H12_2 H 0.917914 0.396944 0.008274
C16_2 C 0.94775(16) 0.39794(15) 0.03758(16)
H13_2 H 0.937089 0.406539 0.051276
N3_2 N 0.96362(17) 0.32455(14) 0.07053(13)
C17_2 C 0.9487(3) 0.3210(2) 0.0532(2)
C18_2 C 0.9287(3) 0.3162(3) 0.0280(3)
H14_2 H 0.939395 0.313574 0.011307
H15_2 H 0.916807 0.332141 0.025789
H16_2 H 0.917487 0.299989 0.031312
Ag3_2 Ag 0.91253(2) 0.47585(2) 0.13685(2)
N4_2 N 0.93228(9) 0.31765(9) 0.12700(10)
Ag1_3 Ag 0.47585(2) 0.91253(2) 0.63685(2)
P1_3 P 0.49063(3) 0.85388(3) 0.67455(3)
N1_3 N 0.45466(9) 0.86938(9) 0.63562(9)
N2_3 N 0.43235(9) 0.81772(9) 0.62700(10)
C1_3 C 0.46285(10) 0.84766(10) 0.65023(11)
C2_3 C 0.45130(10) 0.82224(11) 0.64595(12)
H1_3 H 0.457134 0.807419 0.656970
C3_3 C 0.42443(12) 0.83931(11) 0.61222(13)
H2_3 H 0.410983 0.837008 0.598468
C4_3 C 0.43552(11) 0.86500(11) 0.61666(12)
H3_3 H 0.429346 0.879889 0.605927
C5_3 C 0.50696(11) 0.82068(12) 0.67628(13)
C6_3 C 0.52447(16) 0.81413(16) 0.65456(17)
H4_3 H 0.526796 0.826612 0.639929
C7_3 C 0.53838(19) 0.78944(19) 0.6544(2)
H5_3 H 0.550962 0.785344 0.640275
C8_3 C 0.53372(16) 0.77103(17) 0.6750(2)
H6_3 H 0.542109 0.753582 0.674262
C9_3 C 0.51762(16) 0.77723(15) 0.69604(19)
H7_3 H 0.515381 0.764557 0.710516
C10_3 C 0.50368(15) 0.80289(13) 0.69690(16)
H8_3 H 0.492238 0.807304 0.711892
C11_3 C 0.47420(12) 0.85923(11) 0.70714(11)
C12_3 C 0.48969(16) 0.87214(18) 0.72736(14)
H9_3 H 0.507833 0.877772 0.723566
C13_2 C 0.47842(18) 0.8767(2) 0.75310(15)
H10_2 H 0.488902 0.885115 0.767067
C14_2 C 0.4519(2) 0.8689(2) 0.75793(17)
H11_2 H 0.444224 0.871614 0.775532
C15_3 C 0.4364(2) 0.85746(19) 0.73819(19)
H12_3 H 0.417914 0.853056 0.741726
C16_3 C 0.44775(16) 0.85206(15) 0.71242(16)
H13_3 H 0.437089 0.843461 0.698724
N3_3 N 0.46362(17) 0.92545(14) 0.67947(13)
C17_3 C 0.4487(3) 0.9290(2) 0.6968(2)
C18_3 C 0.4287(3) 0.9338(3) 0.7220(3)
H14_3 H 0.439395 0.936426 0.738693
H15_3 H 0.416807 0.917859 0.724211
H16_3 H 0.417487 0.950011 0.718688
Ag2_3 Ag 0.52415(2) 0.88685(2) 0.66253(2)
Ag3_3 Ag 0.41253(2) 0.77415(2) 0.61315(2)
P2_3 P 0.50937(3) 0.92455(3) 0.60388(3)
N4_3 N 0.43228(9) 0.93235(9) 0.62300(10)
Ag1_4 Ag 0.77415(2) 0.83747(2) 0.13685(2)
P1_4 P 0.75937(3) 0.89612(3) 0.17455(3)
N1_4 N 0.79534(9) 0.88062(9) 0.13562(9)
N2_4 N 0.81765(9) 0.93228(9) 0.12700(10)
C1_4 C 0.78715(10) 0.90234(10) 0.15023(11)
C2_4 C 0.79870(10) 0.92776(11) 0.14595(12)
H1_4 H 0.792866 0.942581 0.156970
C3_4 C 0.82557(12) 0.91069(11) 0.11222(13)
H2_4 H 0.839017 0.912992 0.098468
C4_4 C 0.81448(11) 0.88500(11) 0.11666(12)
H3_4 H 0.820654 0.870111 0.105927
C5_4 C 0.74304(11) 0.92932(12) 0.17628(13)
C6_4 C 0.72553(16) 0.93587(16) 0.15456(17)
H4_4 H 0.723204 0.923388 0.139929
C7_4 C 0.71162(19) 0.96056(19) 0.1544(2)
H5_4 H 0.699038 0.964656 0.140275
C8_4 C 0.71628(16) 0.97897(17) 0.1750(2)
H6_4 H 0.707891 0.996418 0.174262
C9_4 C 0.73238(16) 0.97277(15) 0.19604(19)
H7_4 H 0.734619 0.985443 0.210516
C10_4 C 0.74632(15) 0.94711(13) 0.19690(16)
H8_4 H 0.757762 0.942696 0.211892
C11_4 C 0.77580(12) 0.89077(11) 0.20714(11)
C12_4 C 0.76031(16) 0.87786(18) 0.22736(14)
H9_4 H 0.742167 0.872228 0.223566
C13_3 C 0.77158(18) 0.8733(2) 0.25310(15)
H10_3 H 0.761098 0.864885 0.267067
C14_3 C 0.7981(2) 0.8811(2) 0.25793(17)
H11_3 H 0.805776 0.878386 0.275532
C15_4 C 0.8136(2) 0.89254(19) 0.23819(19)
H12_4 H 0.832086 0.896944 0.241726
C16_4 C 0.80225(16) 0.89794(15) 0.21242(16)
H13_4 H 0.812911 0.906539 0.198724
N3_4 N 0.78638(17) 0.82455(14) 0.17947(13)
C17_4 C 0.8013(3) 0.8210(2) 0.1968(2)
C18_4 C 0.8213(3) 0.8162(3) 0.2220(3)
H14_4 H 0.810605 0.813574 0.238693
H15_4 H 0.833193 0.832141 0.224211
H16_4 H 0.832513 0.799989 0.218688
Ag2_4 Ag 0.72585(2) 0.86315(2) 0.16253(2)
Ag3_4 Ag 0.83747(2) 0.97585(2) 0.11315(2)
P2_4 P 0.74063(3) 0.82545(3) 0.10388(3)
N4_4 N 0.81772(9) 0.81765(9) 0.12300(10)
Ag1_5 Ag 0.61315(2) 0.27415(2) 0.41253(2)
P1_5 P 0.57545(3) 0.25937(3) 0.35388(3)
N1_5 N 0.61438(9) 0.29534(9) 0.36938(9)
N2_5 N 0.62300(10) 0.31765(9) 0.31772(9)
C1_5 C 0.59977(11) 0.28715(10) 0.34766(10)
C2_5 C 0.60405(12) 0.29870(10) 0.32224(11)
H1_5 H 0.593030 0.292866 0.307419
C3_5 C 0.63778(13) 0.32557(12) 0.33931(11)
H2_5 H 0.651532 0.339017 0.337008
C4_5 C 0.63334(12) 0.31448(11) 0.36500(11)
H3_5 H 0.644073 0.320654 0.379889
C5_5 C 0.57372(13) 0.24304(11) 0.32068(12)
C6_5 C 0.59544(17) 0.22553(16) 0.31413(16)
H4_5 H 0.610071 0.223204 0.326612
C7_5 C 0.5956(2) 0.21162(19) 0.28944(19)
H5_5 H 0.609725 0.199038 0.285344
C8_5 C 0.5750(2) 0.21628(16) 0.27103(17)
H6_5 H 0.575738 0.207891 0.253582
C9_5 C 0.55396(19) 0.23238(16) 0.27723(15)
H7_5 H 0.539484 0.234619 0.264557
C10_5 C 0.55310(16) 0.24632(15) 0.30289(13)
H8_5 H 0.538108 0.257762 0.307304
C11_5 C 0.54286(11) 0.27580(12) 0.35923(11)
C12_5 C 0.52264(14) 0.26031(16) 0.37214(18)
H9_5 H 0.526434 0.242167 0.377772
C13_4 C 0.49690(15) 0.27158(18) 0.3767(2)
H10_4 H 0.482933 0.261098 0.385115
C14_4 C 0.49207(17) 0.2981(2) 0.3689(2)
H11_4 H 0.474468 0.305776 0.371614
C15_5 C 0.51181(19) 0.3136(2) 0.35746(19)
H12_5 H 0.508274 0.332086 0.353056
C16_5 C 0.53758(16) 0.30225(16) 0.35206(15)
H13_5 H 0.551276 0.312911 0.343461
N3_5 N 0.57053(13) 0.28638(17) 0.42545(14)
C17_5 C 0.5532(2) 0.3013(3) 0.4290(2)
C18_5 C 0.5280(3) 0.3213(3) 0.4338(3)
H14_5 H 0.511307 0.310605 0.436426
H15_5 H 0.525789 0.333193 0.417859
H16_5 H 0.531312 0.332513 0.450011
Ag2_5 Ag 0.58747(2) 0.22585(2) 0.38685(2)
Ag3_5 Ag 0.63685(2) 0.33747(2) 0.27415(2)
P2_5 P 0.64612(3) 0.24063(3) 0.42455(3)
N4_5 N 0.62700(10) 0.31772(9) 0.43235(9)
C5_6 C 0.07372(13) 0.00696(11) 0.42932(12)
C6_6 C 0.09544(17) 0.02447(16) 0.43587(16)
H4_6 H 0.110071 0.026796 0.423388
C7_6 C 0.0956(2) 0.03838(19) 0.46056(19)
H5_6 H 0.109725 0.050962 0.464656
C8_6 C 0.0750(2) 0.03372(16) 0.47897(17)
H6_6 H 0.075738 0.042109 0.496418
C9_6 C 0.05396(19) 0.01762(16) 0.47277(15)
H7_6 H 0.039484 0.015381 0.485443
C10_6 C 0.05310(16) 0.00368(15) 0.44711(13)
H9_6 H 0.026434 0.007833 0.372228
Ag2_6 Ag 0.08747(2) 0.02415(2) 0.36315(2)
P2_6 P 0.14612(3) 0.00937(3) 0.32545(3)
Ag1_6 Ag 0.11315(2) 0.97585(2) 0.33747(2)
P1_6 P 0.07545(3) 0.99063(3) 0.39612(3)
N1_6 N 0.11438(9) 0.95466(9) 0.38062(9)
N2_6 N 0.12300(10) 0.93235(9) 0.43228(9)
C1_6 C 0.09977(11) 0.96285(10) 0.40234(10)
C2_6 C 0.10405(12) 0.95130(10) 0.42776(11)
H1_6 H 0.093030 0.957134 0.442581
C3_6 C 0.13778(13) 0.92443(12) 0.41069(11)
H2_6 H 0.151532 0.910983 0.412992
C4_6 C 0.13334(12) 0.93552(11) 0.38500(11)
H3_6 H 0.144073 0.929346 0.370111
H8_6 H 0.038108 0.992238 0.442696
C11_6 C 0.04286(11) 0.97420(12) 0.39077(11)
C12_6 C 0.02264(14) 0.98969(16) 0.37786(18)
C15_6 C 0.01181(19) 0.9364(2) 0.39254(19)
H12_6 H 0.008274 0.917914 0.396944
C16_6 C 0.03758(16) 0.94775(16) 0.39794(15)
H13_6 H 0.051276 0.937089 0.406539
N3_6 N 0.07053(13) 0.96362(17) 0.32455(14)
C17_6 C 0.0532(2) 0.9487(3) 0.3210(2)
C18_6 C 0.0280(3) 0.9287(3) 0.3162(3)
H14_6 H 0.011307 0.939395 0.313574
H15_6 H 0.025789 0.916807 0.332141
H16_6 H 0.031312 0.917487 0.299989
Ag3_6 Ag 0.13685(2) 0.91253(2) 0.47585(2)
N4_6 N 0.12700(10) 0.93228(9) 0.31765(9)
Ag1_7 Ag 0.63685(2) 0.47585(2) 0.91253(2)
P1_7 P 0.67455(3) 0.49063(3) 0.85388(3)
N1_7 N 0.63562(9) 0.45466(9) 0.86938(9)
N2_7 N 0.62700(10) 0.43235(9) 0.81772(9)
C1_7 C 0.65023(11) 0.46285(10) 0.84766(10)
C2_7 C 0.64595(12) 0.45130(10) 0.82224(11)
H1_7 H 0.656970 0.457134 0.807419
C3_7 C 0.61222(13) 0.42443(12) 0.83931(11)
H2_7 H 0.598468 0.410983 0.837008
C4_7 C 0.61666(12) 0.43552(11) 0.86500(11)
H3_7 H 0.605927 0.429346 0.879889
C5_7 C 0.67628(13) 0.50696(11) 0.82068(12)
C6_7 C 0.65456(17) 0.52447(16) 0.81413(16)
H4_7 H 0.639929 0.526796 0.826612
C7_7 C 0.6544(2) 0.53838(19) 0.78944(19)
H5_7 H 0.640275 0.550962 0.785344
C8_7 C 0.6750(2) 0.53372(16) 0.77103(17)
H6_7 H 0.674262 0.542109 0.753582
C9_7 C 0.69604(19) 0.51762(16) 0.77723(15)
H7_7 H 0.710516 0.515381 0.764557
C10_7 C 0.69690(16) 0.50368(15) 0.80289(13)
H8_7 H 0.711892 0.492238 0.807304
C11_7 C 0.70714(11) 0.47420(12) 0.85923(11)
C12_7 C 0.72736(14) 0.48969(16) 0.87214(18)
H9_7 H 0.723566 0.507833 0.877772
C13_5 C 0.75310(15) 0.47842(18) 0.8767(2)
H10_5 H 0.767067 0.488902 0.885115
C14_5 C 0.75793(17) 0.4519(2) 0.8689(2)
H11_5 H 0.775532 0.444224 0.871614
C15_7 C 0.73819(19) 0.4364(2) 0.85746(19)
H12_7 H 0.741726 0.417914 0.853056
C16_7 C 0.71242(16) 0.44775(16) 0.85206(15)
H13_7 H 0.698724 0.437089 0.843461
N3_7 N 0.67947(13) 0.46362(17) 0.92545(14)
C17_7 C 0.6968(2) 0.4487(3) 0.9290(2)
C18_7 C 0.7220(3) 0.4287(3) 0.9338(3)
H14_7 H 0.738693 0.439395 0.936426
H15_7 H 0.724211 0.416807 0.917859
H16_7 H 0.718688 0.417487 0.950011
Ag2_7 Ag 0.66253(2) 0.52415(2) 0.88685(2)
Ag3_7 Ag 0.61315(2) 0.41253(2) 0.77415(2)
P2_7 P 0.60388(3) 0.50937(3) 0.92455(3)
N4_7 N 0.62300(10) 0.43228(9) 0.93235(9)
Ag1_8 Ag 0.13685(2) 0.77415(2) 0.83747(2)
P1_8 P 0.17455(3) 0.75937(3) 0.89612(3)
N1_8 N 0.13562(9) 0.79534(9) 0.88062(9)
N2_8 N 0.12700(10) 0.81765(9) 0.93228(9)
C1_8 C 0.15023(11) 0.78715(10) 0.90234(10)
C2_8 C 0.14595(12) 0.79870(10) 0.92776(11)
H1_8 H 0.156970 0.792866 0.942581
C3_8 C 0.11222(13) 0.82557(12) 0.91069(11)
H2_8 H 0.098468 0.839017 0.912992
C4_8 C 0.11666(12) 0.81448(11) 0.88500(11)
H3_8 H 0.105927 0.820654 0.870111
C5_8 C 0.17628(13) 0.74304(11) 0.92932(12)
C6_8 C 0.15456(17) 0.72553(16) 0.93587(16)
H4_8 H 0.139929 0.723204 0.923388
C7_8 C 0.1544(2) 0.71162(19) 0.96056(19)
H5_8 H 0.140275 0.699038 0.964656
C8_8 C 0.1750(2) 0.71628(16) 0.97897(17)
H6_8 H 0.174262 0.707891 0.996418
C9_8 C 0.19604(19) 0.73238(16) 0.97277(15)
H7_8 H 0.210516 0.734619 0.985443
C10_8 C 0.19690(16) 0.74632(15) 0.94711(13)
H8_8 H 0.211892 0.757762 0.942696
C11_8 C 0.20714(11) 0.77580(12) 0.89077(11)
C12_8 C 0.22736(14) 0.76031(16) 0.87786(18)
H9_8 H 0.223566 0.742167 0.872228
C13_6 C 0.25310(15) 0.77158(18) 0.8733(2)
H10_6 H 0.267067 0.761098 0.864885
C14_6 C 0.25793(17) 0.7981(2) 0.8811(2)
H11_6 H 0.275532 0.805776 0.878386
C15_8 C 0.23819(19) 0.8136(2) 0.89254(19)
H12_8 H 0.241726 0.832086 0.896944
C16_8 C 0.21242(16) 0.80225(16) 0.89794(15)
H13_8 H 0.198724 0.812911 0.906539
N3_8 N 0.17947(13) 0.78638(17) 0.82455(14)
C17_8 C 0.1968(2) 0.8013(3) 0.8210(2)
C18_8 C 0.2220(3) 0.8213(3) 0.8162(3)
H14_8 H 0.238693 0.810605 0.813574
H15_8 H 0.224211 0.833193 0.832141
H16_8 H 0.218688 0.832513 0.799989
Ag2_8 Ag 0.16253(2) 0.72585(2) 0.86315(2)
Ag3_8 Ag 0.11315(2) 0.83747(2) 0.97585(2)
P2_8 P 0.10388(3) 0.74063(3) 0.82545(3)
N4_8 N 0.12300(10) 0.81772(9) 0.81765(9)
Ag1_9 Ag 0.41253(2) 0.61315(2) 0.27415(2)
P1_9 P 0.35388(3) 0.57545(3) 0.25937(3)
N1_9 N 0.36938(9) 0.61438(9) 0.29534(9)
N2_9 N 0.31772(9) 0.62300(10) 0.31765(9)
C1_9 C 0.34766(10) 0.59977(11) 0.28715(10)
C2_9 C 0.32224(11) 0.60405(12) 0.29870(10)
H1_9 H 0.307419 0.593030 0.292866
C3_9 C 0.33931(11) 0.63778(13) 0.32557(12)
H2_9 H 0.337008 0.651532 0.339017
C4_9 C 0.36500(11) 0.63334(12) 0.31448(11)
H3_9 H 0.379889 0.644073 0.320654
C5_9 C 0.32068(12) 0.57372(13) 0.24304(11)
C6_9 C 0.31413(16) 0.59544(17) 0.22553(16)
H4_9 H 0.326612 0.610071 0.223204
C7_9 C 0.28944(19) 0.5956(2) 0.21162(19)
H5_9 H 0.285344 0.609725 0.199038
C8_9 C 0.27103(17) 0.5750(2) 0.21628(16)
H6_9 H 0.253582 0.575738 0.207891
C9_9 C 0.27723(15) 0.55396(19) 0.23238(16)
H7_9 H 0.264557 0.539484 0.234619
C10_9 C 0.30289(13) 0.55310(16) 0.24632(15)
H8_9 H 0.307304 0.538108 0.257762
C11_9 C 0.35923(11) 0.54286(11) 0.27580(12)
C12_9 C 0.37214(18) 0.52264(14) 0.26031(16)
H9_9 H 0.377772 0.526434 0.242167
C13_7 C 0.3767(2) 0.49690(15) 0.27158(18)
H10_7 H 0.385115 0.482933 0.261098
C14_7 C 0.3689(2) 0.49207(17) 0.2981(2)
H11_7 H 0.371614 0.474468 0.305776
C15_9 C 0.35746(19) 0.51181(19) 0.3136(2)
H12_9 H 0.353056 0.508274 0.332086
C16_9 C 0.35206(15) 0.53758(16) 0.30225(16)
H13_9 H 0.343461 0.551276 0.312911
N3_9 N 0.42545(14) 0.57053(13) 0.28638(17)
C17_9 C 0.4290(2) 0.5532(2) 0.3013(3)
C18_9 C 0.4338(3) 0.5280(3) 0.3213(3)
H14_9 H 0.436426 0.511307 0.310605
H15_9 H 0.417859 0.525789 0.333193
H16_9 H 0.450011 0.531312 0.332513
Ag2_9 Ag 0.38685(2) 0.58747(2) 0.22585(2)
Ag3_9 Ag 0.27415(2) 0.63685(2) 0.33747(2)
P2_9 P 0.42455(3) 0.64612(3) 0.24063(3)
N4_9 N 0.43235(9) 0.62700(10) 0.31772(9)
C5_10 C 0.42932(12) 0.07372(13) 0.00696(11)
C6_10 C 0.43587(16) 0.09544(17) 0.02447(16)
H4_10 H 0.423388 0.110071 0.026796
C7_10 C 0.46056(19) 0.0956(2) 0.03838(19)
H5_10 H 0.464656 0.109725 0.050962
C8_10 C 0.47897(17) 0.0750(2) 0.03372(16)
H6_10 H 0.496418 0.075738 0.042109
C9_10 C 0.47277(15) 0.05396(19) 0.01762(16)
H7_10 H 0.485443 0.039484 0.015381
C10_10 C 0.44711(13) 0.05310(16) 0.00368(15)
H9_10 H 0.372228 0.026434 0.007833
Ag2_10 Ag 0.36315(2) 0.08747(2) 0.02415(2)
P2_10 P 0.32545(3) 0.14612(3) 0.00937(3)
Ag1_10 Ag 0.33747(2) 0.11315(2) 0.97585(2)
P1_10 P 0.39612(3) 0.07545(3) 0.99063(3)
N1_10 N 0.38062(9) 0.11438(9) 0.95466(9)
N2_10 N 0.43228(9) 0.12300(10) 0.93235(9)
C1_10 C 0.40234(10) 0.09977(11) 0.96285(10)
C2_10 C 0.42776(11) 0.10405(12) 0.95130(10)
H1_10 H 0.442581 0.093030 0.957134
C3_10 C 0.41069(11) 0.13778(13) 0.92443(12)
H2_10 H 0.412992 0.151532 0.910983
C4_10 C 0.38500(11) 0.13334(12) 0.93552(11)
H3_10 H 0.370111 0.144073 0.929346
H8_10 H 0.442696 0.038108 0.992238
C11_10 C 0.39077(11) 0.04286(11) 0.97420(12)
C12_10 C 0.37786(18) 0.02264(14) 0.98969(16)
C15_10 C 0.39254(19) 0.01181(19) 0.9364(2)
H12_10 H 0.396944 0.008274 0.917914
C16_10 C 0.39794(15) 0.03758(16) 0.94775(16)
H13_10 H 0.406539 0.051276 0.937089
N3_10 N 0.32455(14) 0.07053(13) 0.96362(17)
C17_10 C 0.3210(2) 0.0532(2) 0.9487(3)
C18_10 C 0.3162(3) 0.0280(3) 0.9287(3)
H14_10 H 0.313574 0.011307 0.939395
H15_10 H 0.332141 0.025789 0.916807
H16_10 H 0.299989 0.031312 0.917487
Ag3_10 Ag 0.47585(2) 0.13685(2) 0.91253(2)
N4_10 N 0.31765(9) 0.12700(10) 0.93228(9)
Ag1_11 Ag 0.91253(2) 0.63685(2) 0.47585(2)
P1_11 P 0.85388(3) 0.67455(3) 0.49063(3)
N1_11 N 0.86938(9) 0.63562(9) 0.45466(9)
N2_11 N 0.81772(9) 0.62700(10) 0.43235(9)
C1_11 C 0.84766(10) 0.65023(11) 0.46285(10)
C2_11 C 0.82224(11) 0.64595(12) 0.45130(10)
H1_11 H 0.807419 0.656970 0.457134
C3_11 C 0.83931(11) 0.61222(13) 0.42443(12)
H2_11 H 0.837008 0.598468 0.410983
C4_11 C 0.86500(11) 0.61666(12) 0.43552(11)
H3_11 H 0.879889 0.605927 0.429346
C5_11 C 0.82068(12) 0.67628(13) 0.50696(11)
C6_11 C 0.81413(16) 0.65456(17) 0.52447(16)
H4_11 H 0.826612 0.639929 0.526796
C7_11 C 0.78944(19) 0.6544(2) 0.53838(19)
H5_11 H 0.785344 0.640275 0.550962
C8_11 C 0.77103(17) 0.6750(2) 0.53372(16)
H6_11 H 0.753582 0.674262 0.542109
C9_11 C 0.77723(15) 0.69604(19) 0.51762(16)
H7_11 H 0.764557 0.710516 0.515381
C10_11 C 0.80289(13) 0.69690(16) 0.50368(15)
H8_11 H 0.807304 0.711892 0.492238
C11_11 C 0.85923(11) 0.70714(11) 0.47420(12)
C12_11 C 0.87214(18) 0.72736(14) 0.48969(16)
H9_11 H 0.877772 0.723566 0.507833
C13_8 C 0.8767(2) 0.75310(15) 0.47842(18)
H10_8 H 0.885115 0.767067 0.488902
C14_8 C 0.8689(2) 0.75793(17) 0.4519(2)
H11_8 H 0.871614 0.775532 0.444224
C15_11 C 0.85746(19) 0.73819(19) 0.4364(2)
H12_11 H 0.853056 0.741726 0.417914
C16_11 C 0.85206(15) 0.71242(16) 0.44775(16)
H13_11 H 0.843461 0.698724 0.437089
N3_11 N 0.92545(14) 0.67947(13) 0.46362(17)
C17_11 C 0.9290(2) 0.6968(2) 0.4487(3)
C18_11 C 0.9338(3) 0.7220(3) 0.4287(3)
H14_11 H 0.936426 0.738693 0.439395
H15_11 H 0.917859 0.724211 0.416807
H16_11 H 0.950011 0.718688 0.417487
Ag2_11 Ag 0.88685(2) 0.66253(2) 0.52415(2)
Ag3_11 Ag 0.77415(2) 0.61315(2) 0.41253(2)
P2_11 P 0.92455(3) 0.60388(3) 0.50937(3)
N4_11 N 0.93235(9) 0.62300(10) 0.43228(9)
Ag1_12 Ag 0.83747(2) 0.13685(2) 0.77415(2)
P1_12 P 0.89612(3) 0.17455(3) 0.75937(3)
N1_12 N 0.88062(9) 0.13562(9) 0.79534(9)
N2_12 N 0.93228(9) 0.12700(10) 0.81765(9)
C1_12 C 0.90234(10) 0.15023(11) 0.78715(10)
C2_12 C 0.92776(11) 0.14595(12) 0.79870(10)
H1_12 H 0.942581 0.156970 0.792866
C3_12 C 0.91069(11) 0.11222(13) 0.82557(12)
H2_12 H 0.912992 0.098468 0.839017
C4_12 C 0.88500(11) 0.11666(12) 0.81448(11)
H3_12 H 0.870111 0.105927 0.820654
C5_12 C 0.92932(12) 0.17628(13) 0.74304(11)
C6_12 C 0.93587(16) 0.15456(17) 0.72553(16)
H4_12 H 0.923388 0.139929 0.723204
C7_12 C 0.96056(19) 0.1544(2) 0.71162(19)
H5_12 H 0.964656 0.140275 0.699038
C8_12 C 0.97897(17) 0.1750(2) 0.71628(16)
H6_12 H 0.996418 0.174262 0.707891
C9_12 C 0.97277(15) 0.19604(19) 0.73238(16)
H7_12 H 0.985443 0.210516 0.734619
C10_12 C 0.94711(13) 0.19690(16) 0.74632(15)
H8_12 H 0.942696 0.211892 0.757762
C11_12 C 0.89077(11) 0.20714(11) 0.77580(12)
C12_12 C 0.87786(18) 0.22736(14) 0.76031(16)
H9_12 H 0.872228 0.223566 0.742167
C13_9 C 0.8733(2) 0.25310(15) 0.77158(18)
H10_9 H 0.864885 0.267067 0.761098
C14_9 C 0.8811(2) 0.25793(17) 0.7981(2)
H11_9 H 0.878386 0.275532 0.805776
C15_12 C 0.89254(19) 0.23819(19) 0.8136(2)
H12_12 H 0.896944 0.241726 0.832086
C16_12 C 0.89794(15) 0.21242(16) 0.80225(16)
H13_12 H 0.906539 0.198724 0.812911
N3_12 N 0.82455(14) 0.17947(13) 0.78638(17)
C17_12 C 0.8210(2) 0.1968(2) 0.8013(3)
C18_12 C 0.8162(3) 0.2220(3) 0.8213(3)
H14_12 H 0.813574 0.238693 0.810605
H15_12 H 0.832141 0.224211 0.833193
H16_12 H 0.799989 0.218688 0.832513
Ag2_12 Ag 0.86315(2) 0.16253(2) 0.72585(2)
Ag3_12 Ag 0.97585(2) 0.11315(2) 0.83747(2)
P2_12 P 0.82545(3) 0.10388(3) 0.74063(3)
N4_12 N 0.81765(9) 0.12300(10) 0.81772(9)
Ag1_13 Ag 0.16253(2) 0.52415(2) 0.38685(2)
P1_13 P 0.10388(3) 0.50937(3) 0.42455(3)
N1_13 N 0.11938(9) 0.54534(9) 0.38562(9)
N2_13 N 0.06772(9) 0.56765(9) 0.37700(10)
C1_13 C 0.09766(10) 0.53715(10) 0.40023(11)
C2_13 C 0.07224(11) 0.54870(10) 0.39595(12)
H1_13 H 0.057419 0.542866 0.406970
C3_13 C 0.08931(11) 0.57557(12) 0.36222(13)
H2_13 H 0.087008 0.589017 0.348468
C4_13 C 0.11500(11) 0.56448(11) 0.36666(12)
H3_13 H 0.129889 0.570654 0.355927
C5_13 C 0.07068(12) 0.49304(11) 0.42628(13)
C6_13 C 0.06413(16) 0.47553(16) 0.40456(17)
H4_13 H 0.076612 0.473204 0.389929
C7_13 C 0.03944(19) 0.46162(19) 0.4044(2)
H5_13 H 0.035344 0.449038 0.390275
C8_13 C 0.02103(17) 0.46628(16) 0.4250(2)
H6_13 H 0.003582 0.457891 0.424262
C9_13 C 0.02723(15) 0.48238(16) 0.44604(19)
H7_13 H 0.014557 0.484619 0.460516
C10_13 C 0.05289(13) 0.49632(15) 0.44690(16)
H8_13 H 0.057304 0.507762 0.461892
C11_13 C 0.10923(11) 0.52580(12) 0.45714(11)
C12_13 C 0.12214(18) 0.51031(16) 0.47736(14)
H9_13 H 0.127772 0.492167 0.473566
C13_10 C 0.1267(2) 0.52158(18) 0.50310(15)
H10_10 H 0.135115 0.511098 0.517067
C14_10 C 0.1189(2) 0.5481(2) 0.50793(17)
H11_10 H 0.121614 0.555776 0.525532
C15_13 C 0.10746(19) 0.5636(2) 0.48819(19)
H12_13 H 0.103056 0.582086 0.491726
C16_13 C 0.10206(15) 0.55225(16) 0.46242(16)
H13_13 H 0.093461 0.562911 0.448724
N3_13 N 0.17545(14) 0.53638(17) 0.42947(13)
C17_13 C 0.1790(2) 0.5513(3) 0.4468(2)
C18_13 C 0.1838(3) 0.5713(3) 0.4720(3)
H14_13 H 0.186426 0.560605 0.488693
H15_13 H 0.167859 0.583193 0.474211
H16_13 H 0.200011 0.582513 0.468688
Ag2_13 Ag 0.13685(2) 0.47585(2) 0.41253(2)
Ag3_13 Ag 0.02415(2) 0.58747(2) 0.36315(2)
P2_13 P 0.17455(3) 0.49063(3) 0.35388(3)
N4_13 N 0.18235(9) 0.56772(9) 0.37300(10)
Ag1_14 Ag 0.08747(2) 0.22585(2) 0.88685(2)
P1_14 P 0.14612(3) 0.24063(3) 0.92455(3)
N1_14 N 0.13062(9) 0.20466(9) 0.88562(9)
N2_14 N 0.18228(9) 0.18235(9) 0.87700(10)
C1_14 C 0.15234(10) 0.21285(10) 0.90023(11)
C2_14 C 0.17776(11) 0.20130(10) 0.89595(12)
H1_14 H 0.192581 0.207134 0.906970
C3_14 C 0.16069(11) 0.17443(12) 0.86222(13)
H2_14 H 0.162992 0.160983 0.848468
C4_14 C 0.13500(11) 0.18552(11) 0.86666(12)
H3_14 H 0.120111 0.179346 0.855927
C5_14 C 0.17932(12) 0.25696(11) 0.92628(13)
C6_14 C 0.18587(16) 0.27447(16) 0.90456(17)
H4_14 H 0.173388 0.276796 0.889929
C7_14 C 0.21056(19) 0.28838(19) 0.9044(2)
H5_14 H 0.214656 0.300962 0.890275
C8_14 C 0.22897(17) 0.28372(16) 0.9250(2)
H6_14 H 0.246418 0.292109 0.924262
C9_14 C 0.22277(15) 0.26762(16) 0.94604(19)
H7_14 H 0.235443 0.265381 0.960516
C10_14 C 0.19711(13) 0.25368(15) 0.94690(16)
H8_14 H 0.192696 0.242238 0.961892
C11_14 C 0.14077(11) 0.22420(12) 0.95714(11)
C12_14 C 0.12786(18) 0.23969(16) 0.97736(14)
H9_14 H 0.122228 0.257833 0.973566
C15_14 C 0.14254(19) 0.1864(2) 0.98819(19)
H12_14 H 0.146944 0.167914 0.991726
C16_14 C 0.14794(15) 0.19775(16) 0.96242(16)
H13_14 H 0.156539 0.187089 0.948724
N3_14 N 0.07455(14) 0.21362(17) 0.92947(13)
C17_14 C 0.0710(2) 0.1987(3) 0.9468(2)
C18_14 C 0.0662(3) 0.1787(3) 0.9720(3)
H14_14 H 0.063574 0.189395 0.988693
H15_14 H 0.082141 0.166807 0.974211
H16_14 H 0.049989 0.167487 0.968688
Ag2_14 Ag 0.11315(2) 0.27415(2) 0.91253(2)
Ag3_14 Ag 0.22585(2) 0.16253(2) 0.86315(2)
P2_14 P 0.07545(3) 0.25937(3) 0.85388(3)
N4_14 N 0.06765(9) 0.18228(9) 0.87300(10)
Ag1_15 Ag 0.66253(2) 0.72585(2) 0.36315(2)
P1_15 P 0.60388(3) 0.74063(3) 0.32545(3)
N1_15 N 0.61938(9) 0.70466(9) 0.36438(9)
N2_15 N 0.56772(9) 0.68235(9) 0.37300(10)
C1_15 C 0.59766(10) 0.71285(10) 0.34977(11)
C2_15 C 0.57224(11) 0.70130(10) 0.35405(12)
H1_15 H 0.557419 0.707134 0.343030
C3_15 C 0.58931(11) 0.67443(12) 0.38778(13)
H2_15 H 0.587008 0.660983 0.401532
C4_15 C 0.61500(11) 0.68552(11) 0.38334(12)
H3_15 H 0.629889 0.679346 0.394073
C5_15 C 0.57068(12) 0.75696(11) 0.32372(13)
C6_15 C 0.56413(16) 0.77447(16) 0.34544(17)
H4_15 H 0.576612 0.776796 0.360071
C7_15 C 0.53944(19) 0.78838(19) 0.3456(2)
H5_15 H 0.535344 0.800962 0.359725
C8_15 C 0.52103(17) 0.78372(16) 0.3250(2)
H6_15 H 0.503582 0.792109 0.325738
C9_15 C 0.52723(15) 0.76762(16) 0.30396(19)
H7_15 H 0.514557 0.765381 0.289484
C10_15 C 0.55289(13) 0.75368(15) 0.30310(16)
H8_15 H 0.557304 0.742238 0.288108
C11_15 C 0.60923(11) 0.72420(12) 0.29286(11)
C12_15 C 0.62214(18) 0.73969(16) 0.27264(14)
H9_15 H 0.627772 0.757833 0.276434
C13_11 C 0.6267(2) 0.72842(18) 0.24690(15)
H10_11 H 0.635115 0.738902 0.232933
C14_11 C 0.6189(2) 0.7019(2) 0.24207(17)
H11_11 H 0.621614 0.694224 0.224468
C15_15 C 0.60746(19) 0.6864(2) 0.26181(19)
H12_15 H 0.603056 0.667914 0.258274
C16_15 C 0.60206(15) 0.69775(16) 0.28758(16)
H13_15 H 0.593461 0.687089 0.301276
N3_15 N 0.67545(14) 0.71362(17) 0.32053(13)
C17_15 C 0.6790(2) 0.6987(3) 0.3032(2)
C18_15 C 0.6838(3) 0.6787(3) 0.2780(3)
H14_15 H 0.686426 0.689395 0.261307
H15_15 H 0.667859 0.666807 0.275789
H16_15 H 0.700011 0.667487 0.281312
Ag2_15 Ag 0.63685(2) 0.77415(2) 0.33747(2)
Ag3_15 Ag 0.52415(2) 0.66253(2) 0.38685(2)
P2_15 P 0.67455(3) 0.75937(3) 0.39612(3)
N4_15 N 0.68235(9) 0.68228(9) 0.37700(10)
Ag1_16 Ag 0.58747(2) 0.02415(2) 0.86315(2)
P1_16 P 0.64612(3) 0.00937(3) 0.82545(3)
N1_16 N 0.63062(9) 0.04534(9) 0.86438(9)
N2_16 N 0.68228(9) 0.06765(9) 0.87300(10)
C1_16 C 0.65234(10) 0.03715(10) 0.84977(11)
C2_16 C 0.67776(11) 0.04870(10) 0.85405(12)
H1_16 H 0.692581 0.042866 0.843030
C3_16 C 0.66069(11) 0.07557(12) 0.88778(13)
H2_16 H 0.662992 0.089017 0.901532
C4_16 C 0.63500(11) 0.06448(11) 0.88334(12)
H3_16 H 0.620111 0.070654 0.894073
H8_16 H 0.692696 0.007762 0.788108
C11_16 C 0.64077(11) 0.02580(12) 0.79286(11)
C12_16 C 0.62786(18) 0.01031(16) 0.77264(14)
C13_12 C 0.6233(2) 0.02158(18) 0.74690(15)
H10_12 H 0.614885 0.011098 0.732933
C14_12 C 0.6311(2) 0.0481(2) 0.74207(17)
H11_12 H 0.628386 0.055776 0.724468
C15_16 C 0.64254(19) 0.0636(2) 0.76181(19)
H12_16 H 0.646944 0.082086 0.758274
C16_16 C 0.64794(15) 0.05225(16) 0.78758(16)
H13_16 H 0.656539 0.062911 0.801276
N3_16 N 0.57455(14) 0.03638(17) 0.82053(13)
C17_16 C 0.5710(2) 0.0513(3) 0.8032(2)
C18_16 C 0.5662(3) 0.0713(3) 0.7780(3)
H14_16 H 0.563574 0.060605 0.761307
H15_16 H 0.582141 0.083193 0.775789
H16_16 H 0.549989 0.082513 0.781312
Ag3_16 Ag 0.72585(2) 0.08747(2) 0.88685(2)
N4_16 N 0.56765(9) 0.06772(9) 0.87700(10)
C5_16 C 0.67932(12) 0.99304(11) 0.82372(13)
C6_16 C 0.68587(16) 0.97553(16) 0.84544(17)
H4_16 H 0.673388 0.973204 0.860071
C7_16 C 0.71056(19) 0.96162(19) 0.8456(2)
H5_16 H 0.714656 0.949038 0.859725
C8_16 C 0.72897(17) 0.96628(16) 0.8250(2)
H6_16 H 0.746418 0.957891 0.825738
C9_16 C 0.72277(15) 0.98238(16) 0.80396(19)
H7_16 H 0.735443 0.984619 0.789484
C10_16 C 0.69711(13) 0.99632(15) 0.80310(16)
H9_16 H 0.622228 0.992167 0.776434
Ag2_16 Ag 0.61315(2) 0.97585(2) 0.83747(2)
P2_16 P 0.57545(3) 0.99063(3) 0.89612(3)
Ag1_17 Ag 0.02415(2) 0.86315(2) 0.58747(2)
P1_17 P 0.00937(3) 0.82545(3) 0.64612(3)
N1_17 N 0.04534(9) 0.86438(9) 0.63062(9)
N2_17 N 0.06765(9) 0.87300(10) 0.68228(9)
C1_17 C 0.03715(10) 0.84977(11) 0.65234(10)
C2_17 C 0.04870(10) 0.85405(12) 0.67776(11)
H1_17 H 0.042866 0.843030 0.692581
C3_17 C 0.07557(12) 0.88778(13) 0.66069(11)
H2_17 H 0.089017 0.901532 0.662992
C4_17 C 0.06448(11) 0.88334(12) 0.63500(11)
H3_17 H 0.070654 0.894073 0.620111
H8_17 H 0.007762 0.788108 0.692696
C11_17 C 0.02580(12) 0.79286(11) 0.64077(11)
C12_17 C 0.01031(16) 0.77264(14) 0.62786(18)
C13_13 C 0.02158(18) 0.74690(15) 0.6233(2)
H10_13 H 0.011098 0.732933 0.614885
C14_13 C 0.0481(2) 0.74207(17) 0.6311(2)
H11_13 H 0.055776 0.724468 0.628386
C15_17 C 0.0636(2) 0.76181(19) 0.64254(19)
H12_17 H 0.082086 0.758274 0.646944
C16_17 C 0.05225(16) 0.78758(16) 0.64794(15)
H13_17 H 0.062911 0.801276 0.656539
N3_17 N 0.03638(17) 0.82053(13) 0.57455(14)
C17_17 C 0.0513(3) 0.8032(2) 0.5710(2)
C18_17 C 0.0713(3) 0.7780(3) 0.5662(3)
H14_17 H 0.060605 0.761307 0.563574
H15_17 H 0.083193 0.775789 0.582141
H16_17 H 0.082513 0.781312 0.549989
Ag3_17 Ag 0.08747(2) 0.88685(2) 0.72585(2)
N4_17 N 0.06772(9) 0.87700(10) 0.56765(9)
C5_17 C 0.99304(11) 0.82372(13) 0.67932(12)
C6_17 C 0.97553(16) 0.84544(17) 0.68587(16)
H4_17 H 0.973204 0.860071 0.673388
C7_17 C 0.96162(19) 0.8456(2) 0.71056(19)
H5_17 H 0.949038 0.859725 0.714656
C8_17 C 0.96628(16) 0.8250(2) 0.72897(17)
H6_17 H 0.957891 0.825738 0.746418
C9_17 C 0.98238(16) 0.80396(19) 0.72277(15)
H7_17 H 0.984619 0.789484 0.735443
C10_17 C 0.99632(15) 0.80310(16) 0.69711(13)
H9_17 H 0.992167 0.776434 0.622228
Ag2_17 Ag 0.97585(2) 0.83747(2) 0.61315(2)
P2_17 P 0.99063(3) 0.89612(3) 0.57545(3)
Ag1_18 Ag 0.72585(2) 0.36315(2) 0.66253(2)
P1_18 P 0.74063(3) 0.32545(3) 0.60388(3)
N1_18 N 0.70466(9) 0.36438(9) 0.61938(9)
N2_18 N 0.68235(9) 0.37300(10) 0.56772(9)
C1_18 C 0.71285(10) 0.34977(11) 0.59766(10)
C2_18 C 0.70130(10) 0.35405(12) 0.57224(11)
H1_18 H 0.707134 0.343030 0.557419
C3_18 C 0.67443(12) 0.38778(13) 0.58931(11)
H2_18 H 0.660983 0.401532 0.587008
C4_18 C 0.68552(11) 0.38334(12) 0.61500(11)
H3_18 H 0.679346 0.394073 0.629889
C5_18 C 0.75696(11) 0.32372(13) 0.57068(12)
C6_18 C 0.77447(16) 0.34544(17) 0.56413(16)
H4_18 H 0.776796 0.360071 0.576612
C7_18 C 0.78838(19) 0.3456(2) 0.53944(19)
H5_18 H 0.800962 0.359725 0.535344
C8_18 C 0.78372(16) 0.3250(2) 0.52103(17)
H6_18 H 0.792109 0.325738 0.503582
C9_18 C 0.76762(16) 0.30396(19) 0.52723(15)
H7_18 H 0.765381 0.289484 0.514557
C10_18 C 0.75368(15) 0.30310(16) 0.55289(13)
H8_18 H 0.742238 0.288108 0.557304
C11_18 C 0.72420(12) 0.29286(11) 0.60923(11)
C12_18 C 0.73969(16) 0.27264(14) 0.62214(18)
H9_18 H 0.757833 0.276434 0.627772
C13_14 C 0.72842(18) 0.24690(15) 0.6267(2)
H10_14 H 0.738902 0.232933 0.635115
C14_14 C 0.7019(2) 0.24207(17) 0.6189(2)
H11_14 H 0.694224 0.224468 0.621614
C15_18 C 0.6864(2) 0.26181(19) 0.60746(19)
H12_18 H 0.667914 0.258274 0.603056
C16_18 C 0.69775(16) 0.28758(16) 0.60206(15)
H13_18 H 0.687089 0.301276 0.593461
N3_18 N 0.71362(17) 0.32053(13) 0.67545(14)
C17_18 C 0.6987(3) 0.3032(2) 0.6790(2)
C18_18 C 0.6787(3) 0.2780(3) 0.6838(3)
H14_18 H 0.689395 0.261307 0.686426
H15_18 H 0.666807 0.275789 0.667859
H16_18 H 0.667487 0.281312 0.700011
Ag2_18 Ag 0.77415(2) 0.33747(2) 0.63685(2)
Ag3_18 Ag 0.66253(2) 0.38685(2) 0.52415(2)
P2_18 P 0.75937(3) 0.39612(3) 0.67455(3)
N4_18 N 0.68228(9) 0.37700(10) 0.68235(9)
Ag1_19 Ag 0.22585(2) 0.88685(2) 0.08747(2)
P1_19 P 0.24063(3) 0.92455(3) 0.14612(3)
N1_19 N 0.20466(9) 0.88562(9) 0.13062(9)
N2_19 N 0.18235(9) 0.87700(10) 0.18228(9)
C1_19 C 0.21285(10) 0.90023(11) 0.15234(10)
C2_19 C 0.20130(10) 0.89595(12) 0.17776(11)
H1_19 H 0.207134 0.906970 0.192581
C3_19 C 0.17443(12) 0.86222(13) 0.16069(11)
H2_19 H 0.160983 0.848468 0.162992
C4_19 C 0.18552(11) 0.86666(12) 0.13500(11)
H3_19 H 0.179346 0.855927 0.120111
C5_19 C 0.25696(11) 0.92628(13) 0.17932(12)
C6_19 C 0.27447(16) 0.90456(17) 0.18587(16)
H4_19 H 0.276796 0.889929 0.173388
C7_19 C 0.28838(19) 0.9044(2) 0.21056(19)
H5_19 H 0.300962 0.890275 0.214656
C8_19 C 0.28372(16) 0.9250(2) 0.22897(17)
H6_19 H 0.292109 0.924262 0.246418
C9_19 C 0.26762(16) 0.94604(19) 0.22277(15)
H7_19 H 0.265381 0.960516 0.235443
C10_19 C 0.25368(15) 0.94690(16) 0.19711(13)
H8_19 H 0.242238 0.961892 0.192696
C11_19 C 0.22420(12) 0.95714(11) 0.14077(11)
C12_19 C 0.23969(16) 0.97736(14) 0.12786(18)
H9_19 H 0.257833 0.973566 0.122228
C15_19 C 0.1864(2) 0.98819(19) 0.14254(19)
H12_19 H 0.167914 0.991726 0.146944
C16_19 C 0.19775(16) 0.96242(16) 0.14794(15)
H13_19 H 0.187089 0.948724 0.156539
N3_19 N 0.21362(17) 0.92947(13) 0.07455(14)
C17_19 C 0.1987(3) 0.9468(2) 0.0710(2)
C18_19 C 0.1787(3) 0.9720(3) 0.0662(3)
H14_19 H 0.189395 0.988693 0.063574
H15_19 H 0.166807 0.974211 0.082141
H16_19 H 0.167487 0.968688 0.049989
Ag2_19 Ag 0.27415(2) 0.91253(2) 0.11315(2)
Ag3_19 Ag 0.16253(2) 0.86315(2) 0.22585(2)
P2_19 P 0.25937(3) 0.85388(3) 0.07545(3)
N4_19 N 0.18228(9) 0.87300(10) 0.06765(9)
Ag1_20 Ag 0.52415(2) 0.38685(2) 0.16253(2)
P1_20 P 0.50937(3) 0.42455(3) 0.10388(3)
N1_20 N 0.54534(9) 0.38562(9) 0.11938(9)
N2_20 N 0.56765(9) 0.37700(10) 0.06772(9)
C1_20 C 0.53715(10) 0.40023(11) 0.09766(10)
C2_20 C 0.54870(10) 0.39595(12) 0.07224(11)
H1_20 H 0.542866 0.406970 0.057419
C3_20 C 0.57557(12) 0.36222(13) 0.08931(11)
H2_20 H 0.589017 0.348468 0.087008
C4_20 C 0.56448(11) 0.36666(12) 0.11500(11)
H3_20 H 0.570654 0.355927 0.129889
C5_20 C 0.49304(11) 0.42628(13) 0.07068(12)
C6_20 C 0.47553(16) 0.40456(17) 0.06413(16)
H4_20 H 0.473204 0.389929 0.076612
C7_20 C 0.46162(19) 0.4044(2) 0.03944(19)
H5_20 H 0.449038 0.390275 0.035344
C8_20 C 0.46628(16) 0.4250(2) 0.02103(17)
H6_20 H 0.457891 0.424262 0.003582
C9_20 C 0.48238(16) 0.44604(19) 0.02723(15)
H7_20 H 0.484619 0.460516 0.014557
C10_20 C 0.49632(15) 0.44690(16) 0.05289(13)
H8_20 H 0.507762 0.461892 0.057304
C11_20 C 0.52580(12) 0.45714(11) 0.10923(11)
C12_20 C 0.51031(16) 0.47736(14) 0.12214(18)
H9_20 H 0.492167 0.473566 0.127772
C13_15 C 0.52158(18) 0.50310(15) 0.1267(2)
H10_15 H 0.511098 0.517067 0.135115
C14_15 C 0.5481(2) 0.50793(17) 0.1189(2)
H11_15 H 0.555776 0.525532 0.121614
C15_20 C 0.5636(2) 0.48819(19) 0.10746(19)
H12_20 H 0.582086 0.491726 0.103056
C16_20 C 0.55225(16) 0.46242(16) 0.10206(15)
H13_20 H 0.562911 0.448724 0.093461
N3_20 N 0.53638(17) 0.42947(13) 0.17545(14)
C17_20 C 0.5513(3) 0.4468(2) 0.1790(2)
C18_20 C 0.5713(3) 0.4720(3) 0.1838(3)
H14_20 H 0.560605 0.488693 0.186426
H15_20 H 0.583193 0.474211 0.167859
H16_20 H 0.582513 0.468688 0.200011
Ag2_20 Ag 0.47585(2) 0.41253(2) 0.13685(2)
Ag3_20 Ag 0.58747(2) 0.36315(2) 0.02415(2)
P2_20 P 0.49063(3) 0.35388(3) 0.17455(3)
N4_20 N 0.56772(9) 0.37300(10) 0.18235(9)
Ag1_21 Ag 0.36315(2) 0.66253(2) 0.72585(2)
P1_21 P 0.32545(3) 0.60388(3) 0.74063(3)
N1_21 N 0.36438(9) 0.61938(9) 0.70466(9)
N2_21 N 0.37300(10) 0.56772(9) 0.68235(9)
C1_21 C 0.34977(11) 0.59766(10) 0.71285(10)
C2_21 C 0.35405(12) 0.57224(11) 0.70130(10)
H1_21 H 0.343030 0.557419 0.707134
C3_21 C 0.38778(13) 0.58931(11) 0.67443(12)
H2_21 H 0.401532 0.587008 0.660983
C4_21 C 0.38334(12) 0.61500(11) 0.68552(11)
H3_21 H 0.394073 0.629889 0.679346
C5_21 C 0.32372(13) 0.57068(12) 0.75696(11)
C6_21 C 0.34544(17) 0.56413(16) 0.77447(16)
H4_21 H 0.360071 0.576612 0.776796
C7_21 C 0.3456(2) 0.53944(19) 0.78838(19)
H5_21 H 0.359725 0.535344 0.800962
C8_21 C 0.3250(2) 0.52103(17) 0.78372(16)
H6_21 H 0.325738 0.503582 0.792109
C9_21 C 0.30396(19) 0.52723(15) 0.76762(16)
H7_21 H 0.289484 0.514557 0.765381
C10_21 C 0.30310(16) 0.55289(13) 0.75368(15)
H8_21 H 0.288108 0.557304 0.742238
C11_21 C 0.29286(11) 0.60923(11) 0.72420(12)
C12_21 C 0.27264(14) 0.62214(18) 0.73969(16)
H9_21 H 0.276434 0.627772 0.757833
C13_16 C 0.24690(15) 0.6267(2) 0.72842(18)
H10_16 H 0.232933 0.635115 0.738902
C14_16 C 0.24207(17) 0.6189(2) 0.7019(2)
H11_16 H 0.224468 0.621614 0.694224
C15_21 C 0.26181(19) 0.60746(19) 0.6864(2)
H12_21 H 0.258274 0.603056 0.667914
C16_21 C 0.28758(16) 0.60206(15) 0.69775(16)
H13_21 H 0.301276 0.593461 0.687089
N3_21 N 0.32053(13) 0.67545(14) 0.71362(17)
C17_21 C 0.3032(2) 0.6790(2) 0.6987(3)
C18_21 C 0.2780(3) 0.6838(3) 0.6787(3)
H14_21 H 0.261307 0.686426 0.689395
H15_21 H 0.275789 0.667859 0.666807
H16_21 H 0.281312 0.700011 0.667487
Ag2_21 Ag 0.33747(2) 0.63685(2) 0.77415(2)
Ag3_21 Ag 0.38685(2) 0.52415(2) 0.66253(2)
P2_21 P 0.39612(3) 0.67455(3) 0.75937(3)
N4_21 N 0.37700(10) 0.68235(9) 0.68228(9)
Ag1_22 Ag 0.86315(2) 0.58747(2) 0.02415(2)
P1_22 P 0.82545(3) 0.64612(3) 0.00937(3)
N1_22 N 0.86438(9) 0.63062(9) 0.04534(9)
N2_22 N 0.87300(10) 0.68228(9) 0.06765(9)
C1_22 C 0.84977(11) 0.65234(10) 0.03715(10)
C2_22 C 0.85405(12) 0.67776(11) 0.04870(10)
H1_22 H 0.843030 0.692581 0.042866
C3_22 C 0.88778(13) 0.66069(11) 0.07557(12)
H2_22 H 0.901532 0.662992 0.089017
C4_22 C 0.88334(12) 0.63500(11) 0.06448(11)
H3_22 H 0.894073 0.620111 0.070654
H8_22 H 0.788108 0.692696 0.007762
C11_22 C 0.79286(11) 0.64077(11) 0.02580(12)
C12_22 C 0.77264(14) 0.62786(18) 0.01031(16)
C13_17 C 0.74690(15) 0.6233(2) 0.02158(18)
H10_17 H 0.732933 0.614885 0.011098
C14_17 C 0.74207(17) 0.6311(2) 0.0481(2)
H11_17 H 0.724468 0.628386 0.055776
C15_22 C 0.76181(19) 0.64254(19) 0.0636(2)
H12_22 H 0.758274 0.646944 0.082086
C16_22 C 0.78758(16) 0.64794(15) 0.05225(16)
H13_22 H 0.801276 0.656539 0.062911
N3_22 N 0.82053(13) 0.57455(14) 0.03638(17)
C17_22 C 0.8032(2) 0.5710(2) 0.0513(3)
C18_22 C 0.7780(3) 0.5662(3) 0.0713(3)
H14_22 H 0.761307 0.563574 0.060605
H15_22 H 0.775789 0.582141 0.083193
H16_22 H 0.781312 0.549989 0.082513
Ag3_22 Ag 0.88685(2) 0.72585(2) 0.08747(2)
N4_22 N 0.87700(10) 0.56765(9) 0.06772(9)
C5_22 C 0.82372(13) 0.67932(12) 0.99304(11)
C6_22 C 0.84544(17) 0.68587(16) 0.97553(16)
H4_22 H 0.860071 0.673388 0.973204
C7_22 C 0.8456(2) 0.71056(19) 0.96162(19)
H5_22 H 0.859725 0.714656 0.949038
C8_22 C 0.8250(2) 0.72897(17) 0.96628(16)
H6_22 H 0.825738 0.746418 0.957891
C9_22 C 0.80396(19) 0.72277(15) 0.98238(16)
H7_22 H 0.789484 0.735443 0.984619
C10_22 C 0.80310(16) 0.69711(13) 0.99632(15)
H9_22 H 0.776434 0.622228 0.992167
Ag2_22 Ag 0.83747(2) 0.61315(2) 0.97585(2)
P2_22 P 0.89612(3) 0.57545(3) 0.99063(3)
Ag1_23 Ag 0.38685(2) 0.16253(2) 0.52415(2)
P1_23 P 0.42455(3) 0.10388(3) 0.50937(3)
N1_23 N 0.38562(9) 0.11938(9) 0.54534(9)
N2_23 N 0.37700(10) 0.06772(9) 0.56765(9)
C1_23 C 0.40023(11) 0.09766(10) 0.53715(10)
C2_23 C 0.39595(12) 0.07224(11) 0.54870(10)
H1_23 H 0.406970 0.057419 0.542866
C3_23 C 0.36222(13) 0.08931(11) 0.57557(12)
H2_23 H 0.348468 0.087008 0.589017
C4_23 C 0.36666(12) 0.11500(11) 0.56448(11)
H3_23 H 0.355927 0.129889 0.570654
C5_23 C 0.42628(13) 0.07068(12) 0.49304(11)
C6_23 C 0.40456(17) 0.06413(16) 0.47553(16)
H4_23 H 0.389929 0.076612 0.473204
C7_23 C 0.4044(2) 0.03944(19) 0.46162(19)
H5_23 H 0.390275 0.035344 0.449038
C8_23 C 0.4250(2) 0.02103(17) 0.46628(16)
H6_23 H 0.424262 0.003582 0.457891
C9_23 C 0.44604(19) 0.02723(15) 0.48238(16)
H7_23 H 0.460516 0.014557 0.484619
C10_23 C 0.44690(16) 0.05289(13) 0.49632(15)
H8_23 H 0.461892 0.057304 0.507762
C11_23 C 0.45714(11) 0.10923(11) 0.52580(12)
C12_23 C 0.47736(14) 0.12214(18) 0.51031(16)
H9_23 H 0.473566 0.127772 0.492167
C13_18 C 0.50310(15) 0.1267(2) 0.52158(18)
H10_18 H 0.517067 0.135115 0.511098
C14_18 C 0.50793(17) 0.1189(2) 0.5481(2)
H11_18 H 0.525532 0.121614 0.555776
C15_23 C 0.48819(19) 0.10746(19) 0.5636(2)
H12_23 H 0.491726 0.103056 0.582086
C16_23 C 0.46242(16) 0.10206(15) 0.55225(16)
H13_23 H 0.448724 0.093461 0.562911
N3_23 N 0.42947(13) 0.17545(14) 0.53638(17)
C17_23 C 0.4468(2) 0.1790(2) 0.5513(3)
C18_23 C 0.4720(3) 0.1838(3) 0.5713(3)
H14_23 H 0.488693 0.186426 0.560605
H15_23 H 0.474211 0.167859 0.583193
H16_23 H 0.468688 0.200011 0.582513
Ag2_23 Ag 0.41253(2) 0.13685(2) 0.47585(2)
Ag3_23 Ag 0.36315(2) 0.02415(2) 0.58747(2)
P2_23 P 0.35388(3) 0.17455(3) 0.49063(3)
N4_23 N 0.37300(10) 0.18235(9) 0.56772(9)
Ag1_24 Ag 0.88685(2) 0.08747(2) 0.22585(2)
P1_24 P 0.92455(3) 0.14612(3) 0.24063(3)
N1_24 N 0.88562(9) 0.13062(9) 0.20466(9)
N2_24 N 0.87700(10) 0.18228(9) 0.18235(9)
C1_24 C 0.90023(11) 0.15234(10) 0.21285(10)
C2_24 C 0.89595(12) 0.17776(11) 0.20130(10)
H1_24 H 0.906970 0.192581 0.207134
C3_24 C 0.86222(13) 0.16069(11) 0.17443(12)
H2_24 H 0.848468 0.162992 0.160983
C4_24 C 0.86666(12) 0.13500(11) 0.18552(11)
H3_24 H 0.855927 0.120111 0.179346
C5_24 C 0.92628(13) 0.17932(12) 0.25696(11)
C6_24 C 0.90456(17) 0.18587(16) 0.27447(16)
H4_24 H 0.889929 0.173388 0.276796
C7_24 C 0.9044(2) 0.21056(19) 0.28838(19)
H5_24 H 0.890275 0.214656 0.300962
C8_24 C 0.9250(2) 0.22897(17) 0.28372(16)
H6_24 H 0.924262 0.246418 0.292109
C9_24 C 0.94604(19) 0.22277(15) 0.26762(16)
H7_24 H 0.960516 0.235443 0.265381
C10_24 C 0.94690(16) 0.19711(13) 0.25368(15)
H8_24 H 0.961892 0.192696 0.242238
C11_24 C 0.95714(11) 0.14077(11) 0.22420(12)
C12_24 C 0.97736(14) 0.12786(18) 0.23969(16)
H9_24 H 0.973566 0.122228 0.257833
C15_24 C 0.98819(19) 0.14254(19) 0.1864(2)
H12_24 H 0.991726 0.146944 0.167914
C16_24 C 0.96242(16) 0.14794(15) 0.19775(16)
H13_24 H 0.948724 0.156539 0.187089
N3_24 N 0.92947(13) 0.07455(14) 0.21362(17)
C17_24 C 0.9468(2) 0.0710(2) 0.1987(3)
C18_24 C 0.9720(3) 0.0662(3) 0.1787(3)
H14_24 H 0.988693 0.063574 0.189395
H15_24 H 0.974211 0.082141 0.166807
H16_24 H 0.968688 0.049989 0.167487
Ag2_24 Ag 0.91253(2) 0.11315(2) 0.27415(2)
Ag3_24 Ag 0.86315(2) 0.22585(2) 0.16253(2)
P2_24 P 0.85388(3) 0.07545(3) 0.25937(3)
N4_24 N 0.87300(10) 0.06765(9) 0.18228(9)
N1_25 N 0.29534(9) 0.86938(9) 0.11438(9)
N2_25 N 0.31765(9) 0.81772(9) 0.12300(10)
C1_25 C 0.28715(10) 0.84766(10) 0.09977(11)
C2_25 C 0.29870(10) 0.82224(11) 0.10405(12)
H1_25 H 0.292866 0.807419 0.093030
C3_25 C 0.32557(12) 0.83931(11) 0.13778(13)
H2_25 H 0.339017 0.837008 0.151532
C4_25 C 0.31448(11) 0.86500(11) 0.13334(12)
H3_25 H 0.320654 0.879889 0.144073
C5_25 C 0.24304(11) 0.82068(12) 0.07372(13)
C6_25 C 0.22553(16) 0.81413(16) 0.09544(17)
H4_25 H 0.223204 0.826612 0.110071
C7_25 C 0.21162(19) 0.78944(19) 0.0956(2)
H5_25 H 0.199038 0.785344 0.109725
C8_25 C 0.21628(16) 0.77103(17) 0.0750(2)
H6_25 H 0.207891 0.753582 0.075738
C9_25 C 0.23238(16) 0.77723(15) 0.05396(19)
H7_25 H 0.234619 0.764557 0.039484
C10_25 C 0.24632(15) 0.80289(13) 0.05310(16)
H8_25 H 0.257762 0.807304 0.038108
C11_25 C 0.27580(12) 0.85923(11) 0.04286(11)
C12_25 C 0.26031(16) 0.87214(18) 0.02264(14)
H9_25 H 0.242167 0.877772 0.026434
C15_25 C 0.3136(2) 0.85746(19) 0.01181(19)
H12_25 H 0.332086 0.853056 0.008274
C16_25 C 0.30225(16) 0.85206(15) 0.03758(16)
H13_25 H 0.312911 0.843461 0.051276
N3_25 N 0.28638(17) 0.92545(14) 0.07053(13)
C17_25 C 0.3013(3) 0.9290(2) 0.0532(2)
C18_25 C 0.3213(3) 0.9338(3) 0.0280(3)
H14_25 H 0.310605 0.936426 0.011307
H15_25 H 0.333193 0.917859 0.025789
H16_25 H 0.332513 0.950011 0.031312
Ag3_25 Ag 0.33747(2) 0.77415(2) 0.13685(2)
N4_25 N 0.31772(9) 0.93235(9) 0.12700(10)
C5_26 C 0.00696(11) 0.92932(12) 0.57372(13)
C6_26 C 0.02447(16) 0.93587(16) 0.59544(17)
H4_26 H 0.026796 0.923388 0.610071
C7_26 C 0.03838(19) 0.96056(19) 0.5956(2)
H5_26 H 0.050962 0.964656 0.609725
C8_26 C 0.03372(16) 0.97897(17) 0.5750(2)
H6_26 H 0.042109 0.996418 0.575738
C9_26 C 0.01762(16) 0.97277(15) 0.55396(19)
H7_26 H 0.015381 0.985443 0.539484
C10_26 C 0.00368(15) 0.94711(13) 0.55310(16)
H9_26 H 0.007833 0.872228 0.526434
N1_26 N 0.95466(9) 0.88062(9) 0.61438(9)
N2_26 N 0.93235(9) 0.93228(9) 0.62300(10)
C1_26 C 0.96285(10) 0.90234(10) 0.59977(11)
C2_26 C 0.95130(10) 0.92776(11) 0.60405(12)
H1_26 H 0.957134 0.942581 0.593030
C3_26 C 0.92443(12) 0.91069(11) 0.63778(13)
H2_26 H 0.910983 0.912992 0.651532
C4_26 C 0.93552(11) 0.88500(11) 0.63334(12)
H3_26 H 0.929346 0.870111 0.644073
H8_26 H 0.992238 0.942696 0.538108
C11_26 C 0.97420(12) 0.89077(11) 0.54286(11)
C12_26 C 0.98969(16) 0.87786(18) 0.52264(14)
C13_19 C 0.97842(18) 0.8733(2) 0.49690(15)
H10_19 H 0.988902 0.864885 0.482933
C14_19 C 0.9519(2) 0.8811(2) 0.49207(17)
H11_19 H 0.944224 0.878386 0.474468
C15_26 C 0.9364(2) 0.89254(19) 0.51181(19)
H12_26 H 0.917914 0.896944 0.508274
C16_26 C 0.94775(16) 0.89794(15) 0.53758(16)
H13_26 H 0.937089 0.906539 0.551276
N3_26 N 0.96362(17) 0.82455(14) 0.57053(13)
C17_26 C 0.9487(3) 0.8210(2) 0.5532(2)
C18_26 C 0.9287(3) 0.8162(3) 0.5280(3)
H14_26 H 0.939395 0.813574 0.511307
H15_26 H 0.916807 0.832141 0.525789
H16_26 H 0.917487 0.799989 0.531312
Ag3_26 Ag 0.91253(2) 0.97585(2) 0.63685(2)
N4_26 N 0.93228(9) 0.81765(9) 0.62700(10)
N1_27 N 0.45466(9) 0.36938(9) 0.13562(9)
N2_27 N 0.43235(9) 0.31772(9) 0.12700(10)
C1_27 C 0.46285(10) 0.34766(10) 0.15023(11)
C2_27 C 0.45130(10) 0.32224(11) 0.14595(12)
H1_27 H 0.457134 0.307419 0.156970
C3_27 C 0.42443(12) 0.33931(11) 0.11222(13)
H2_27 H 0.410983 0.337008 0.098468
C4_27 C 0.43552(11) 0.36500(11) 0.11666(12)
H3_27 H 0.429346 0.379889 0.105927
C5_27 C 0.50696(11) 0.32068(12) 0.17628(13)
C6_27 C 0.52447(16) 0.31413(16) 0.15456(17)
H4_27 H 0.526796 0.326612 0.139929
C7_27 C 0.53838(19) 0.28944(19) 0.1544(2)
H5_27 H 0.550962 0.285344 0.140275
C8_27 C 0.53372(16) 0.27103(17) 0.1750(2)
H6_27 H 0.542109 0.253582 0.174262
C9_27 C 0.51762(16) 0.27723(15) 0.19604(19)
H7_27 H 0.515381 0.264557 0.210516
C10_27 C 0.50368(15) 0.30289(13) 0.19690(16)
H8_27 H 0.492238 0.307304 0.211892
C11_27 C 0.47420(12) 0.35923(11) 0.20714(11)
C12_27 C 0.48969(16) 0.37214(18) 0.22736(14)
H9_27 H 0.507833 0.377772 0.223566
C13_20 C 0.47842(18) 0.3767(2) 0.25310(15)
H10_20 H 0.488902 0.385115 0.267067
C14_20 C 0.4519(2) 0.3689(2) 0.25793(17)
H11_20 H 0.444224 0.371614 0.275532
C15_27 C 0.4364(2) 0.35746(19) 0.23819(19)
H12_27 H 0.417914 0.353056 0.241726
C16_27 C 0.44775(16) 0.35206(15) 0.21242(16)
H13_27 H 0.437089 0.343461 0.198724
N3_27 N 0.46362(17) 0.42545(14) 0.17947(13)
C17_27 C 0.4487(3) 0.4290(2) 0.1968(2)
C18_27 C 0.4287(3) 0.4338(3) 0.2220(3)
H14_27 H 0.439395 0.436426 0.238693
H15_27 H 0.416807 0.417859 0.224211
H16_27 H 0.417487 0.450011 0.218688
Ag3_27 Ag 0.41253(2) 0.27415(2) 0.11315(2)
N4_27 N 0.43228(9) 0.43235(9) 0.12300(10)
N1_28 N 0.79534(9) 0.38062(9) 0.63562(9)
N2_28 N 0.81765(9) 0.43228(9) 0.62700(10)
C1_28 C 0.78715(10) 0.40234(10) 0.65023(11)
C2_28 C 0.79870(10) 0.42776(11) 0.64595(12)
H1_28 H 0.792866 0.442581 0.656970
C3_28 C 0.82557(12) 0.41069(11) 0.61222(13)
H2_28 H 0.839017 0.412992 0.598468
C4_28 C 0.81448(11) 0.38500(11) 0.61666(12)
H3_28 H 0.820654 0.370111 0.605927
C5_28 C 0.74304(11) 0.42932(12) 0.67628(13)
C6_28 C 0.72553(16) 0.43587(16) 0.65456(17)
H4_28 H 0.723204 0.423388 0.639929
C7_28 C 0.71162(19) 0.46056(19) 0.6544(2)
H5_28 H 0.699038 0.464656 0.640275
C8_28 C 0.71628(16) 0.47897(17) 0.6750(2)
H6_28 H 0.707891 0.496418 0.674262
C9_28 C 0.73238(16) 0.47277(15) 0.69604(19)
H7_28 H 0.734619 0.485443 0.710516
C10_28 C 0.74632(15) 0.44711(13) 0.69690(16)
H8_28 H 0.757762 0.442696 0.711892
C11_28 C 0.77580(12) 0.39077(11) 0.70714(11)
C12_28 C 0.76031(16) 0.37786(18) 0.72736(14)
H9_28 H 0.742167 0.372228 0.723566
C13_21 C 0.77158(18) 0.3733(2) 0.75310(15)
H10_21 H 0.761098 0.364885 0.767067
C14_21 C 0.7981(2) 0.3811(2) 0.75793(17)
H11_21 H 0.805776 0.378386 0.775532
C15_28 C 0.8136(2) 0.39254(19) 0.73819(19)
H12_28 H 0.832086 0.396944 0.741726
C16_28 C 0.80225(16) 0.39794(15) 0.71242(16)
H13_28 H 0.812911 0.406539 0.698724
N3_28 N 0.78638(17) 0.32455(14) 0.67947(13)
C17_28 C 0.8013(3) 0.3210(2) 0.6968(2)
C18_28 C 0.8213(3) 0.3162(3) 0.7220(3)
H14_28 H 0.810605 0.313574 0.738693
H15_28 H 0.833193 0.332141 0.724211
H16_28 H 0.832513 0.299989 0.718688
Ag3_28 Ag 0.83747(2) 0.47585(2) 0.61315(2)
N4_28 N 0.81772(9) 0.31765(9) 0.62300(10)
Ag1_25 Ag 0.61315(2) 0.77415(2) 0.91253(2)
P1_25 P 0.57545(3) 0.75937(3) 0.85388(3)
N1_29 N 0.61438(9) 0.79534(9) 0.86938(9)
N2_29 N 0.62300(10) 0.81765(9) 0.81772(9)
C1_29 C 0.59977(11) 0.78715(10) 0.84766(10)
C2_29 C 0.60405(12) 0.79870(10) 0.82224(11)
H1_29 H 0.593030 0.792866 0.807419
C3_29 C 0.63778(13) 0.82557(12) 0.83931(11)
H2_29 H 0.651532 0.839017 0.837008
C4_29 C 0.63334(12) 0.81448(11) 0.86500(11)
H3_29 H 0.644073 0.820654 0.879889
C5_29 C 0.57372(13) 0.74304(11) 0.82068(12)
C6_29 C 0.59544(17) 0.72553(16) 0.81413(16)
H4_29 H 0.610071 0.723204 0.826612
C7_29 C 0.5956(2) 0.71162(19) 0.78944(19)
H5_29 H 0.609725 0.699038 0.785344
C8_29 C 0.5750(2) 0.71628(16) 0.77103(17)
H6_29 H 0.575738 0.707891 0.753582
C9_29 C 0.55396(19) 0.73238(16) 0.77723(15)
H7_29 H 0.539484 0.734619 0.764557
C10_29 C 0.55310(16) 0.74632(15) 0.80289(13)
H8_29 H 0.538108 0.757762 0.807304
C11_29 C 0.54286(11) 0.77580(12) 0.85923(11)
C12_29 C 0.52264(14) 0.76031(16) 0.87214(18)
H9_29 H 0.526434 0.742167 0.877772
C13_22 C 0.49690(15) 0.77158(18) 0.8767(2)
H10_22 H 0.482933 0.761098 0.885115
C14_22 C 0.49207(17) 0.7981(2) 0.8689(2)
H11_22 H 0.474468 0.805776 0.871614
C15_29 C 0.51181(19) 0.8136(2) 0.85746(19)
H12_29 H 0.508274 0.832086 0.853056
C16_29 C 0.53758(16) 0.80225(16) 0.85206(15)
H13_29 H 0.551276 0.812911 0.843461
N3_29 N 0.57053(13) 0.78638(17) 0.92545(14)
C17_29 C 0.5532(2) 0.8013(3) 0.9290(2)
C18_29 C 0.5280(3) 0.8213(3) 0.9338(3)
H14_29 H 0.511307 0.810605 0.936426
H15_29 H 0.525789 0.833193 0.917859
H16_29 H 0.531312 0.832513 0.950011
Ag2_25 Ag 0.58747(2) 0.72585(2) 0.88685(2)
Ag3_29 Ag 0.63685(2) 0.83747(2) 0.77415(2)
P2_25 P 0.64612(3) 0.74063(3) 0.92455(3)
N4_29 N 0.62700(10) 0.81772(9) 0.93235(9)
Ag1_26 Ag 0.11315(2) 0.47585(2) 0.83747(2)
P1_26 P 0.07545(3) 0.49063(3) 0.89612(3)
N1_30 N 0.11438(9) 0.45466(9) 0.88062(9)
N2_30 N 0.12300(10) 0.43235(9) 0.93228(9)
C1_30 C 0.09977(11) 0.46285(10) 0.90234(10)
C2_30 C 0.10405(12) 0.45130(10) 0.92776(11)
H1_30 H 0.093030 0.457134 0.942581
C3_30 C 0.13778(13) 0.42443(12) 0.91069(11)
H2_30 H 0.151532 0.410983 0.912992
C4_30 C 0.13334(12) 0.43552(11) 0.88500(11)
H3_30 H 0.144073 0.429346 0.870111
C5_30 C 0.07372(13) 0.50696(11) 0.92932(12)
C6_30 C 0.09544(17) 0.52447(16) 0.93587(16)
H4_30 H 0.110071 0.526796 0.923388
C7_30 C 0.0956(2) 0.53838(19) 0.96056(19)
H5_30 H 0.109725 0.550962 0.964656
C8_30 C 0.0750(2) 0.53372(16) 0.97897(17)
H6_30 H 0.075738 0.542109 0.996418
C9_30 C 0.05396(19) 0.51762(16) 0.97277(15)
H7_30 H 0.039484 0.515381 0.985443
C10_30 C 0.05310(16) 0.50368(15) 0.94711(13)
H8_30 H 0.038108 0.492238 0.942696
C11_30 C 0.04286(11) 0.47420(12) 0.89077(11)
C12_30 C 0.02264(14) 0.48969(16) 0.87786(18)
H9_30 H 0.026434 0.507833 0.872228
C15_30 C 0.01181(19) 0.4364(2) 0.89254(19)
H12_30 H 0.008274 0.417914 0.896944
C16_30 C 0.03758(16) 0.44775(16) 0.89794(15)
H13_30 H 0.051276 0.437089 0.906539
N3_30 N 0.07053(13) 0.46362(17) 0.82455(14)
C17_30 C 0.0532(2) 0.4487(3) 0.8210(2)
C18_30 C 0.0280(3) 0.4287(3) 0.8162(3)
H14_30 H 0.011307 0.439395 0.813574
H15_30 H 0.025789 0.416807 0.832141
H16_30 H 0.031312 0.417487 0.799989
Ag2_26 Ag 0.08747(2) 0.52415(2) 0.86315(2)
Ag3_30 Ag 0.13685(2) 0.41253(2) 0.97585(2)
P2_26 P 0.14612(3) 0.50937(3) 0.82545(3)
N4_30 N 0.12700(10) 0.43228(9) 0.81765(9)
C5_31 C 0.67628(13) 0.00696(11) 0.32068(12)
C6_31 C 0.65456(17) 0.02447(16) 0.31413(16)
H4_31 H 0.639929 0.026796 0.326612
C7_31 C 0.6544(2) 0.03838(19) 0.28944(19)
H5_31 H 0.640275 0.050962 0.285344
C8_31 C 0.6750(2) 0.03372(16) 0.27103(17)
H6_31 H 0.674262 0.042109 0.253582
C9_31 C 0.69604(19) 0.01762(16) 0.27723(15)
H7_31 H 0.710516 0.015381 0.264557
C10_31 C 0.69690(16) 0.00368(15) 0.30289(13)
H9_31 H 0.723566 0.007833 0.377772
Ag2_27 Ag 0.66253(2) 0.02415(2) 0.38685(2)
P2_27 P 0.60388(3) 0.00937(3) 0.42455(3)
Ag1_27 Ag 0.63685(2) 0.97585(2) 0.41253(2)
P1_27 P 0.67455(3) 0.99063(3) 0.35388(3)
N1_31 N 0.63562(9) 0.95466(9) 0.36938(9)
N2_31 N 0.62700(10) 0.93235(9) 0.31772(9)
C1_31 C 0.65023(11) 0.96285(10) 0.34766(10)
C2_31 C 0.64595(12) 0.95130(10) 0.32224(11)
H1_31 H 0.656970 0.957134 0.307419
C3_31 C 0.61222(13) 0.92443(12) 0.33931(11)
H2_31 H 0.598468 0.910983 0.337008
C4_31 C 0.61666(12) 0.93552(11) 0.36500(11)
H3_31 H 0.605927 0.929346 0.379889
H8_31 H 0.711892 0.992238 0.307304
C11_31 C 0.70714(11) 0.97420(12) 0.35923(11)
C12_31 C 0.72736(14) 0.98969(16) 0.37214(18)
C13_23 C 0.75310(15) 0.97842(18) 0.3767(2)
H10_23 H 0.767067 0.988902 0.385115
C14_23 C 0.75793(17) 0.9519(2) 0.3689(2)
H11_23 H 0.775532 0.944224 0.371614
C15_31 C 0.73819(19) 0.9364(2) 0.35746(19)
H12_31 H 0.741726 0.917914 0.353056
C16_31 C 0.71242(16) 0.94775(16) 0.35206(15)
H13_31 H 0.698724 0.937089 0.343461
N3_31 N 0.67947(13) 0.96362(17) 0.42545(14)
C17_31 C 0.6968(2) 0.9487(3) 0.4290(2)
C18_31 C 0.7220(3) 0.9287(3) 0.4338(3)
H14_31 H 0.738693 0.939395 0.436426
H15_31 H 0.724211 0.916807 0.417859
H16_31 H 0.718688 0.917487 0.450011
Ag3_31 Ag 0.61315(2) 0.91253(2) 0.27415(2)
N4_31 N 0.62300(10) 0.93228(9) 0.43235(9)
Ag1_28 Ag 0.13685(2) 0.27415(2) 0.33747(2)
P1_28 P 0.17455(3) 0.25937(3) 0.39612(3)
N1_32 N 0.13562(9) 0.29534(9) 0.38062(9)
N2_32 N 0.12700(10) 0.31765(9) 0.43228(9)
C1_32 C 0.15023(11) 0.28715(10) 0.40234(10)
C2_32 C 0.14595(12) 0.29870(10) 0.42776(11)
H1_32 H 0.156970 0.292866 0.442581
C3_32 C 0.11222(13) 0.32557(12) 0.41069(11)
H2_32 H 0.098468 0.339017 0.412992
C4_32 C 0.11666(12) 0.31448(11) 0.38500(11)
H3_32 H 0.105927 0.320654 0.370111
C5_32 C 0.17628(13) 0.24304(11) 0.42932(12)
C6_32 C 0.15456(17) 0.22553(16) 0.43587(16)
H4_32 H 0.139929 0.223204 0.423388
C7_32 C 0.1544(2) 0.21162(19) 0.46056(19)
H5_32 H 0.140275 0.199038 0.464656
C8_32 C 0.1750(2) 0.21628(16) 0.47897(17)
H6_32 H 0.174262 0.207891 0.496418
C9_32 C 0.19604(19) 0.23238(16) 0.47277(15)
H7_32 H 0.210516 0.234619 0.485443
C10_32 C 0.19690(16) 0.24632(15) 0.44711(13)
H8_32 H 0.211892 0.257762 0.442696
C11_32 C 0.20714(11) 0.27580(12) 0.39077(11)
C12_32 C 0.22736(14) 0.26031(16) 0.37786(18)
H9_32 H 0.223566 0.242167 0.372228
C13_24 C 0.25310(15) 0.27158(18) 0.3733(2)
H10_24 H 0.267067 0.261098 0.364885
C14_24 C 0.25793(17) 0.2981(2) 0.3811(2)
H11_24 H 0.275532 0.305776 0.378386
C15_32 C 0.23819(19) 0.3136(2) 0.39254(19)
H12_32 H 0.241726 0.332086 0.396944
C16_32 C 0.21242(16) 0.30225(16) 0.39794(15)
H13_32 H 0.198724 0.312911 0.406539
N3_32 N 0.17947(13) 0.28638(17) 0.32455(14)
C17_32 C 0.1968(2) 0.3013(3) 0.3210(2)
C18_32 C 0.2220(3) 0.3213(3) 0.3162(3)
H14_32 H 0.238693 0.310605 0.313574
H15_32 H 0.224211 0.333193 0.332141
H16_32 H 0.218688 0.332513 0.299989
Ag2_28 Ag 0.16253(2) 0.22585(2) 0.36315(2)
Ag3_32 Ag 0.11315(2) 0.33747(2) 0.47585(2)
P2_28 P 0.10388(3) 0.24063(3) 0.32545(3)
N4_32 N 0.12300(10) 0.31772(9) 0.31765(9)
Ag1_29 Ag 0.41253(2) 0.11315(2) 0.77415(2)
P1_29 P 0.35388(3) 0.07545(3) 0.75937(3)
N1_33 N 0.36938(9) 0.11438(9) 0.79534(9)
N2_33 N 0.31772(9) 0.12300(10) 0.81765(9)
C1_33 C 0.34766(10) 0.09977(11) 0.78715(10)
C2_33 C 0.32224(11) 0.10405(12) 0.79870(10)
H1_33 H 0.307419 0.093030 0.792866
C3_33 C 0.33931(11) 0.13778(13) 0.82557(12)
H2_33 H 0.337008 0.151532 0.839017
C4_33 C 0.36500(11) 0.13334(12) 0.81448(11)
H3_33 H 0.379889 0.144073 0.820654
C5_33 C 0.32068(12) 0.07372(13) 0.74304(11)
C6_33 C 0.31413(16) 0.09544(17) 0.72553(16)
H4_33 H 0.326612 0.110071 0.723204
C7_33 C 0.28944(19) 0.0956(2) 0.71162(19)
H5_33 H 0.285344 0.109725 0.699038
C8_33 C 0.27103(17) 0.0750(2) 0.71628(16)
H6_33 H 0.253582 0.075738 0.707891
C9_33 C 0.27723(15) 0.05396(19) 0.73238(16)
H7_33 H 0.264557 0.039484 0.734619
C10_33 C 0.30289(13) 0.05310(16) 0.74632(15)
H8_33 H 0.307304 0.038108 0.757762
C11_33 C 0.35923(11) 0.04286(11) 0.77580(12)
C12_33 C 0.37214(18) 0.02264(14) 0.76031(16)
H9_33 H 0.377772 0.026434 0.742167
C15_33 C 0.35746(19) 0.01181(19) 0.8136(2)
H12_33 H 0.353056 0.008274 0.832086
C16_33 C 0.35206(15) 0.03758(16) 0.80225(16)
H13_33 H 0.343461 0.051276 0.812911
N3_33 N 0.42545(14) 0.07053(13) 0.78638(17)
C17_33 C 0.4290(2) 0.0532(2) 0.8013(3)
C18_33 C 0.4338(3) 0.0280(3) 0.8213(3)
H14_33 H 0.436426 0.011307 0.810605
H15_33 H 0.417859 0.025789 0.833193
H16_33 H 0.450011 0.031312 0.832513
Ag2_29 Ag 0.38685(2) 0.08747(2) 0.72585(2)
Ag3_33 Ag 0.27415(2) 0.13685(2) 0.83747(2)
P2_29 P 0.42455(3) 0.14612(3) 0.74063(3)
N4_33 N 0.43235(9) 0.12700(10) 0.81772(9)
Ag1_30 Ag 0.33747(2) 0.61315(2) 0.47585(2)
P1_30 P 0.39612(3) 0.57545(3) 0.49063(3)
N1_34 N 0.38062(9) 0.61438(9) 0.45466(9)
N2_34 N 0.43228(9) 0.62300(10) 0.43235(9)
C1_34 C 0.40234(10) 0.59977(11) 0.46285(10)
C2_34 C 0.42776(11) 0.60405(12) 0.45130(10)
H1_34 H 0.442581 0.593030 0.457134
C3_34 C 0.41069(11) 0.63778(13) 0.42443(12)
H2_34 H 0.412992 0.651532 0.410983
C4_34 C 0.38500(11) 0.63334(12) 0.43552(11)
H3_34 H 0.370111 0.644073 0.429346
C5_34 C 0.42932(12) 0.57372(13) 0.50696(11)
C6_34 C 0.43587(16) 0.59544(17) 0.52447(16)
H4_34 H 0.423388 0.610071 0.526796
C7_34 C 0.46056(19) 0.5956(2) 0.53838(19)
H5_34 H 0.464656 0.609725 0.550962
C8_34 C 0.47897(17) 0.5750(2) 0.53372(16)
H6_34 H 0.496418 0.575738 0.542109
C9_34 C 0.47277(15) 0.55396(19) 0.51762(16)
H7_34 H 0.485443 0.539484 0.515381
C10_34 C 0.44711(13) 0.55310(16) 0.50368(15)
H8_34 H 0.442696 0.538108 0.492238
C11_34 C 0.39077(11) 0.54286(11) 0.47420(12)
C12_34 C 0.37786(18) 0.52264(14) 0.48969(16)
H9_34 H 0.372228 0.526434 0.507833
C13_25 C 0.3733(2) 0.49690(15) 0.47842(18)
H10_25 H 0.364885 0.482933 0.488902
C14_25 C 0.3811(2) 0.49207(17) 0.4519(2)
H11_25 H 0.378386 0.474468 0.444224
C15_34 C 0.39254(19) 0.51181(19) 0.4364(2)
H12_34 H 0.396944 0.508274 0.417914
C16_34 C 0.39794(15) 0.53758(16) 0.44775(16)
H13_34 H 0.406539 0.551276 0.437089
N3_34 N 0.32455(14) 0.57053(13) 0.46362(17)
C17_34 C 0.3210(2) 0.5532(2) 0.4487(3)
C18_34 C 0.3162(3) 0.5280(3) 0.4287(3)
H14_34 H 0.313574 0.511307 0.439395
H15_34 H 0.332141 0.525789 0.416807
H16_34 H 0.299989 0.531312 0.417487
Ag2_30 Ag 0.36315(2) 0.58747(2) 0.52415(2)
Ag3_34 Ag 0.47585(2) 0.63685(2) 0.41253(2)
P2_30 P 0.32545(3) 0.64612(3) 0.50937(3)
N4_34 N 0.31765(9) 0.62700(10) 0.43228(9)
C5_35 C 0.82068(12) 0.17628(13) 0.00696(11)
C6_35 C 0.81413(16) 0.15456(17) 0.02447(16)
H4_35 H 0.826612 0.139929 0.026796
C7_35 C 0.78944(19) 0.1544(2) 0.03838(19)
H5_35 H 0.785344 0.140275 0.050962
C8_35 C 0.77103(17) 0.1750(2) 0.03372(16)
H6_35 H 0.753582 0.174262 0.042109
C9_35 C 0.77723(15) 0.19604(19) 0.01762(16)
H7_35 H 0.764557 0.210516 0.015381
C10_35 C 0.80289(13) 0.19690(16) 0.00368(15)
H9_35 H 0.877772 0.223566 0.007833
Ag2_31 Ag 0.88685(2) 0.16253(2) 0.02415(2)
P2_31 P 0.92455(3) 0.10388(3) 0.00937(3)
Ag1_31 Ag 0.91253(2) 0.13685(2) 0.97585(2)
P1_31 P 0.85388(3) 0.17455(3) 0.99063(3)
N1_35 N 0.86938(9) 0.13562(9) 0.95466(9)
N2_35 N 0.81772(9) 0.12700(10) 0.93235(9)
C1_35 C 0.84766(10) 0.15023(11) 0.96285(10)
C2_35 C 0.82224(11) 0.14595(12) 0.95130(10)
H1_35 H 0.807419 0.156970 0.957134
C3_35 C 0.83931(11) 0.11222(13) 0.92443(12)
H2_35 H 0.837008 0.098468 0.910983
C4_35 C 0.86500(11) 0.11666(12) 0.93552(11)
H3_35 H 0.879889 0.105927 0.929346
H8_35 H 0.807304 0.211892 0.992238
C11_35 C 0.85923(11) 0.20714(11) 0.97420(12)
C12_35 C 0.87214(18) 0.22736(14) 0.98969(16)
C13_26 C 0.8767(2) 0.25310(15) 0.97842(18)
H10_26 H 0.885115 0.267067 0.988902
C14_26 C 0.8689(2) 0.25793(17) 0.9519(2)
H11_26 H 0.871614 0.275532 0.944224
C15_35 C 0.85746(19) 0.23819(19) 0.9364(2)
H12_35 H 0.853056 0.241726 0.917914
C16_35 C 0.85206(15) 0.21242(16) 0.94775(16)
H13_35 H 0.843461 0.198724 0.937089
N3_35 N 0.92545(14) 0.17947(13) 0.96362(17)
C17_35 C 0.9290(2) 0.1968(2) 0.9487(3)
C18_35 C 0.9338(3) 0.2220(3) 0.9287(3)
H14_35 H 0.936426 0.238693 0.939395
H15_35 H 0.917859 0.224211 0.916807
H16_35 H 0.950011 0.218688 0.917487
Ag3_35 Ag 0.77415(2) 0.11315(2) 0.91253(2)
N4_35 N 0.93235(9) 0.12300(10) 0.93228(9)
Ag1_32 Ag 0.83747(2) 0.63685(2) 0.27415(2)
P1_32 P 0.89612(3) 0.67455(3) 0.25937(3)
N1_36 N 0.88062(9) 0.63562(9) 0.29534(9)
N2_36 N 0.93228(9) 0.62700(10) 0.31765(9)
C1_36 C 0.90234(10) 0.65023(11) 0.28715(10)
C2_36 C 0.92776(11) 0.64595(12) 0.29870(10)
H1_36 H 0.942581 0.656970 0.292866
C3_36 C 0.91069(11) 0.61222(13) 0.32557(12)
H2_36 H 0.912992 0.598468 0.339017
C4_36 C 0.88500(11) 0.61666(12) 0.31448(11)
H3_36 H 0.870111 0.605927 0.320654
C5_36 C 0.92932(12) 0.67628(13) 0.24304(11)
C6_36 C 0.93587(16) 0.65456(17) 0.22553(16)
H4_36 H 0.923388 0.639929 0.223204
C7_36 C 0.96056(19) 0.6544(2) 0.21162(19)
H5_36 H 0.964656 0.640275 0.199038
C8_36 C 0.97897(17) 0.6750(2) 0.21628(16)
H6_36 H 0.996418 0.674262 0.207891
C9_36 C 0.97277(15) 0.69604(19) 0.23238(16)
H7_36 H 0.985443 0.710516 0.234619
C10_36 C 0.94711(13) 0.69690(16) 0.24632(15)
H8_36 H 0.942696 0.711892 0.257762
C11_36 C 0.89077(11) 0.70714(11) 0.27580(12)
C12_36 C 0.87786(18) 0.72736(14) 0.26031(16)
H9_36 H 0.872228 0.723566 0.242167
C13_27 C 0.8733(2) 0.75310(15) 0.27158(18)
H10_27 H 0.864885 0.767067 0.261098
C14_27 C 0.8811(2) 0.75793(17) 0.2981(2)
H11_27 H 0.878386 0.775532 0.305776
C15_36 C 0.89254(19) 0.73819(19) 0.3136(2)
H12_36 H 0.896944 0.741726 0.332086
C16_36 C 0.89794(15) 0.71242(16) 0.30225(16)
H13_36 H 0.906539 0.698724 0.312911
N3_36 N 0.82455(14) 0.67947(13) 0.28638(17)
C17_36 C 0.8210(2) 0.6968(2) 0.3013(3)
C18_36 C 0.8162(3) 0.7220(3) 0.3213(3)
H14_36 H 0.813574 0.738693 0.310605
H15_36 H 0.832141 0.724211 0.333193
H16_36 H 0.799989 0.718688 0.332513
Ag2_32 Ag 0.86315(2) 0.66253(2) 0.22585(2)
Ag3_36 Ag 0.97585(2) 0.61315(2) 0.33747(2)
P2_32 P 0.82545(3) 0.60388(3) 0.24063(3)
N4_36 N 0.81765(9) 0.62300(10) 0.31772(9)
Ag1_33 Ag 0.16253(2) 0.02415(2) 0.88685(2)
P1_33 P 0.10388(3) 0.00937(3) 0.92455(3)
N1_37 N 0.11938(9) 0.04534(9) 0.88562(9)
N2_37 N 0.06772(9) 0.06765(9) 0.87700(10)
C1_37 C 0.09766(10) 0.03715(10) 0.90023(11)
C2_37 C 0.07224(11) 0.04870(10) 0.89595(12)
H1_37 H 0.057419 0.042866 0.906970
C3_37 C 0.08931(11) 0.07557(12) 0.86222(13)
H2_37 H 0.087008 0.089017 0.848468
C4_37 C 0.11500(11) 0.06448(11) 0.86666(12)
H3_37 H 0.129889 0.070654 0.855927
H8_37 H 0.057304 0.007762 0.961892
C11_37 C 0.10923(11) 0.02580(12) 0.95714(11)
C12_37 C 0.12214(18) 0.01031(16) 0.97736(14)
C15_37 C 0.10746(19) 0.0636(2) 0.98819(19)
H12_37 H 0.103056 0.082086 0.991726
C16_37 C 0.10206(15) 0.05225(16) 0.96242(16)
H13_37 H 0.093461 0.062911 0.948724
N3_37 N 0.17545(14) 0.03638(17) 0.92947(13)
C17_37 C 0.1790(2) 0.0513(3) 0.9468(2)
C18_37 C 0.1838(3) 0.0713(3) 0.9720(3)
H14_37 H 0.186426 0.060605 0.988693
H15_37 H 0.167859 0.083193 0.974211
H16_37 H 0.200011 0.082513 0.968688
Ag3_37 Ag 0.02415(2) 0.08747(2) 0.86315(2)
N4_37 N 0.18235(9) 0.06772(9) 0.87300(10)
C5_37 C 0.07068(12) 0.99304(11) 0.92628(13)
C6_37 C 0.06413(16) 0.97553(16) 0.90456(17)
H4_37 H 0.076612 0.973204 0.889929
C7_37 C 0.03944(19) 0.96162(19) 0.9044(2)
H5_37 H 0.035344 0.949038 0.890275
C8_37 C 0.02103(17) 0.96628(16) 0.9250(2)
H6_37 H 0.003582 0.957891 0.924262
C9_37 C 0.02723(15) 0.98238(16) 0.94604(19)
H7_37 H 0.014557 0.984619 0.960516
C10_37 C 0.05289(13) 0.99632(15) 0.94690(16)
H9_37 H 0.127772 0.992167 0.973566
Ag2_33 Ag 0.13685(2) 0.97585(2) 0.91253(2)
P2_33 P 0.17455(3) 0.99063(3) 0.85388(3)
Ag1_34 Ag 0.08747(2) 0.72585(2) 0.38685(2)
P1_34 P 0.14612(3) 0.74063(3) 0.42455(3)
N1_38 N 0.13062(9) 0.70466(9) 0.38562(9)
N2_38 N 0.18228(9) 0.68235(9) 0.37700(10)
C1_38 C 0.15234(10) 0.71285(10) 0.40023(11)
C2_38 C 0.17776(11) 0.70130(10) 0.39595(12)
H1_38 H 0.192581 0.707134 0.406970
C3_38 C 0.16069(11) 0.67443(12) 0.36222(13)
H2_38 H 0.162992 0.660983 0.348468
C4_38 C 0.13500(11) 0.68552(11) 0.36666(12)
H3_38 H 0.120111 0.679346 0.355927
C5_38 C 0.17932(12) 0.75696(11) 0.42628(13)
C6_38 C 0.18587(16) 0.77447(16) 0.40456(17)
H4_38 H 0.173388 0.776796 0.389929
C7_38 C 0.21056(19) 0.78838(19) 0.4044(2)
H5_38 H 0.214656 0.800962 0.390275
C8_38 C 0.22897(17) 0.78372(16) 0.4250(2)
H6_38 H 0.246418 0.792109 0.424262
C9_38 C 0.22277(15) 0.76762(16) 0.44604(19)
H7_38 H 0.235443 0.765381 0.460516
C10_38 C 0.19711(13) 0.75368(15) 0.44690(16)
H8_38 H 0.192696 0.742238 0.461892
C11_38 C 0.14077(11) 0.72420(12) 0.45714(11)
C12_38 C 0.12786(18) 0.73969(16) 0.47736(14)
H9_38 H 0.122228 0.757833 0.473566
C13_28 C 0.1233(2) 0.72842(18) 0.50310(15)
H10_28 H 0.114885 0.738902 0.517067
C14_28 C 0.1311(2) 0.7019(2) 0.50793(17)
H11_28 H 0.128386 0.694224 0.525532
C15_38 C 0.14254(19) 0.6864(2) 0.48819(19)
H12_38 H 0.146944 0.667914 0.491726
C16_38 C 0.14794(15) 0.69775(16) 0.46242(16)
H13_38 H 0.156539 0.687089 0.448724
N3_38 N 0.07455(14) 0.71362(17) 0.42947(13)
C17_38 C 0.0710(2) 0.6987(3) 0.4468(2)
C18_38 C 0.0662(3) 0.6787(3) 0.4720(3)
H14_38 H 0.063574 0.689395 0.488693
H15_38 H 0.082141 0.666807 0.474211
H16_38 H 0.049989 0.667487 0.468688
Ag2_34 Ag 0.11315(2) 0.77415(2) 0.41253(2)
Ag3_38 Ag 0.22585(2) 0.66253(2) 0.36315(2)
P2_34 P 0.07545(3) 0.75937(3) 0.35388(3)
N4_38 N 0.06765(9) 0.68228(9) 0.37300(10)
Ag1_35 Ag 0.66253(2) 0.22585(2) 0.86315(2)
P1_35 P 0.60388(3) 0.24063(3) 0.82545(3)
N1_39 N 0.61938(9) 0.20466(9) 0.86438(9)
N2_39 N 0.56772(9) 0.18235(9) 0.87300(10)
C1_39 C 0.59766(10) 0.21285(10) 0.84977(11)
C2_39 C 0.57224(11) 0.20130(10) 0.85405(12)
H1_39 H 0.557419 0.207134 0.843030
C3_39 C 0.58931(11) 0.17443(12) 0.88778(13)
H2_39 H 0.587008 0.160983 0.901532
C4_39 C 0.61500(11) 0.18552(11) 0.88334(12)
H3_39 H 0.629889 0.179346 0.894073
C5_39 C 0.57068(12) 0.25696(11) 0.82372(13)
C6_39 C 0.56413(16) 0.27447(16) 0.84544(17)
H4_39 H 0.576612 0.276796 0.860071
C7_39 C 0.53944(19) 0.28838(19) 0.8456(2)
H5_39 H 0.535344 0.300962 0.859725
C8_39 C 0.52103(17) 0.28372(16) 0.8250(2)
H6_39 H 0.503582 0.292109 0.825738
C9_39 C 0.52723(15) 0.26762(16) 0.80396(19)
H7_39 H 0.514557 0.265381 0.789484
C10_39 C 0.55289(13) 0.25368(15) 0.80310(16)
H8_39 H 0.557304 0.242238 0.788108
C11_39 C 0.60923(11) 0.22420(12) 0.79286(11)
C12_39 C 0.62214(18) 0.23969(16) 0.77264(14)
H9_39 H 0.627772 0.257833 0.776434
C13_29 C 0.6267(2) 0.22842(18) 0.74690(15)
H10_29 H 0.635115 0.238902 0.732933
C14_29 C 0.6189(2) 0.2019(2) 0.74207(17)
H11_29 H 0.621614 0.194224 0.724468
C15_39 C 0.60746(19) 0.1864(2) 0.76181(19)
H12_39 H 0.603056 0.167914 0.758274
C16_39 C 0.60206(15) 0.19775(16) 0.78758(16)
H13_39 H 0.593461 0.187089 0.801276
N3_39 N 0.67545(14) 0.21362(17) 0.82053(13)
C17_39 C 0.6790(2) 0.1987(3) 0.8032(2)
C18_39 C 0.6838(3) 0.1787(3) 0.7780(3)
H14_39 H 0.686426 0.189395 0.761307
H15_39 H 0.667859 0.166807 0.775789
H16_39 H 0.700011 0.167487 0.781312
Ag2_35 Ag 0.63685(2) 0.27415(2) 0.83747(2)
Ag3_39 Ag 0.52415(2) 0.16253(2) 0.88685(2)
P2_35 P 0.67455(3) 0.25937(3) 0.89612(3)
N4_39 N 0.68235(9) 0.18228(9) 0.87700(10)
Ag1_36 Ag 0.58747(2) 0.52415(2) 0.36315(2)
P1_36 P 0.64612(3) 0.50937(3) 0.32545(3)
N1_40 N 0.63062(9) 0.54534(9) 0.36438(9)
N2_40 N 0.68228(9) 0.56765(9) 0.37300(10)
C1_40 C 0.65234(10) 0.53715(10) 0.34977(11)
C2_40 C 0.67776(11) 0.54870(10) 0.35405(12)
H1_40 H 0.692581 0.542866 0.343030
C3_40 C 0.66069(11) 0.57557(12) 0.38778(13)
H2_40 H 0.662992 0.589017 0.401532
C4_40 C 0.63500(11) 0.56448(11) 0.38334(12)
H3_40 H 0.620111 0.570654 0.394073
C5_40 C 0.67932(12) 0.49304(11) 0.32372(13)
C6_40 C 0.68587(16) 0.47553(16) 0.34544(17)
H4_40 H 0.673388 0.473204 0.360071
C7_40 C 0.71056(19) 0.46162(19) 0.3456(2)
H5_40 H 0.714656 0.449038 0.359725
C8_40 C 0.72897(17) 0.46628(16) 0.3250(2)
H6_40 H 0.746418 0.457891 0.325738
C9_40 C 0.72277(15) 0.48238(16) 0.30396(19)
H7_40 H 0.735443 0.484619 0.289484
C10_40 C 0.69711(13) 0.49632(15) 0.30310(16)
H8_40 H 0.692696 0.507762 0.288108
C11_40 C 0.64077(11) 0.52580(12) 0.29286(11)
C12_40 C 0.62786(18) 0.51031(16) 0.27264(14)
H9_40 H 0.622228 0.492167 0.276434
C13_30 C 0.6233(2) 0.52158(18) 0.24690(15)
H10_30 H 0.614885 0.511098 0.232933
C14_30 C 0.6311(2) 0.5481(2) 0.24207(17)
H11_30 H 0.628386 0.555776 0.224468
C15_40 C 0.64254(19) 0.5636(2) 0.26181(19)
H12_40 H 0.646944 0.582086 0.258274
C16_40 C 0.64794(15) 0.55225(16) 0.28758(16)
H13_40 H 0.656539 0.562911 0.301276
N3_40 N 0.57455(14) 0.53638(17) 0.32053(13)
C17_40 C 0.5710(2) 0.5513(3) 0.3032(2)
C18_40 C 0.5662(3) 0.5713(3) 0.2780(3)
H14_40 H 0.563574 0.560605 0.261307
H15_40 H 0.582141 0.583193 0.275789
H16_40 H 0.549989 0.582513 0.281312
Ag2_36 Ag 0.61315(2) 0.47585(2) 0.33747(2)
Ag3_40 Ag 0.72585(2) 0.58747(2) 0.38685(2)
P2_36 P 0.57545(3) 0.49063(3) 0.39612(3)
N4_40 N 0.56765(9) 0.56772(9) 0.37700(10)
N1_41 N 0.04534(9) 0.36438(9) 0.13062(9)
N2_41 N 0.06765(9) 0.37300(10) 0.18228(9)
C1_41 C 0.03715(10) 0.34977(11) 0.15234(10)
C2_41 C 0.04870(10) 0.35405(12) 0.17776(11)
H1_41 H 0.042866 0.343030 0.192581
C3_41 C 0.07557(12) 0.38778(13) 0.16069(11)
H2_41 H 0.089017 0.401532 0.162992
C4_41 C 0.06448(11) 0.38334(12) 0.13500(11)
H3_41 H 0.070654 0.394073 0.120111
H8_41 H 0.007762 0.288108 0.192696
C11_41 C 0.02580(12) 0.29286(11) 0.14077(11)
C12_41 C 0.01031(16) 0.27264(14) 0.12786(18)
C13_31 C 0.02158(18) 0.24690(15) 0.1233(2)
H10_31 H 0.011098 0.232933 0.114885
C14_31 C 0.0481(2) 0.24207(17) 0.1311(2)
H11_31 H 0.055776 0.224468 0.128386
C15_41 C 0.0636(2) 0.26181(19) 0.14254(19)
H12_41 H 0.082086 0.258274 0.146944
C16_41 C 0.05225(16) 0.28758(16) 0.14794(15)
H13_41 H 0.062911 0.301276 0.156539
N3_41 N 0.03638(17) 0.32053(13) 0.07455(14)
C17_41 C 0.0513(3) 0.3032(2) 0.0710(2)
C18_41 C 0.0713(3) 0.2780(3) 0.0662(3)
H14_41 H 0.060605 0.261307 0.063574
H15_41 H 0.083193 0.275789 0.082141
H16_41 H 0.082513 0.281312 0.049989
Ag3_41 Ag 0.08747(2) 0.38685(2) 0.22585(2)
N4_41 N 0.06772(9) 0.37700(10) 0.06765(9)
C5_41 C 0.99304(11) 0.32372(13) 0.17932(12)
C6_41 C 0.97553(16) 0.34544(17) 0.18587(16)
H4_41 H 0.973204 0.360071 0.173388
C7_41 C 0.96162(19) 0.3456(2) 0.21056(19)
H5_41 H 0.949038 0.359725 0.214656
C8_41 C 0.96628(16) 0.3250(2) 0.22897(17)
H6_41 H 0.957891 0.325738 0.246418
C9_41 C 0.98238(16) 0.30396(19) 0.22277(15)
H7_41 H 0.984619 0.289484 0.235443
C10_41 C 0.99632(15) 0.30310(16) 0.19711(13)
H9_41 H 0.992167 0.276434 0.122228
N1_42 N 0.70466(9) 0.86438(9) 0.11938(9)
N2_42 N 0.68235(9) 0.87300(10) 0.06772(9)
C1_42 C 0.71285(10) 0.84977(11) 0.09766(10)
C2_42 C 0.70130(10) 0.85405(12) 0.07224(11)
H1_42 H 0.707134 0.843030 0.057419
C3_42 C 0.67443(12) 0.88778(13) 0.08931(11)
H2_42 H 0.660983 0.901532 0.087008
C4_42 C 0.68552(11) 0.88334(12) 0.11500(11)
H3_42 H 0.679346 0.894073 0.129889
C5_42 C 0.75696(11) 0.82372(13) 0.07068(12)
C6_42 C 0.77447(16) 0.84544(17) 0.06413(16)
H4_42 H 0.776796 0.860071 0.076612
C7_42 C 0.78838(19) 0.8456(2) 0.03944(19)
H5_42 H 0.800962 0.859725 0.035344
C8_42 C 0.78372(16) 0.8250(2) 0.02103(17)
H6_42 H 0.792109 0.825738 0.003582
C9_42 C 0.76762(16) 0.80396(19) 0.02723(15)
H7_42 H 0.765381 0.789484 0.014557
C10_42 C 0.75368(15) 0.80310(16) 0.05289(13)
H8_42 H 0.742238 0.788108 0.057304
C11_42 C 0.72420(12) 0.79286(11) 0.10923(11)
C12_42 C 0.73969(16) 0.77264(14) 0.12214(18)
H9_42 H 0.757833 0.776434 0.127772
C13_32 C 0.72842(18) 0.74690(15) 0.1267(2)
H10_32 H 0.738902 0.732933 0.135115
C14_32 C 0.7019(2) 0.74207(17) 0.1189(2)
H11_32 H 0.694224 0.724468 0.121614
C15_42 C 0.6864(2) 0.76181(19) 0.10746(19)
H12_42 H 0.667914 0.758274 0.103056
C16_42 C 0.69775(16) 0.78758(16) 0.10206(15)
H13_42 H 0.687089 0.801276 0.093461
N3_42 N 0.71362(17) 0.82053(13) 0.17545(14)
C17_42 C 0.6987(3) 0.8032(2) 0.1790(2)
C18_42 C 0.6787(3) 0.7780(3) 0.1838(3)
H14_42 H 0.689395 0.761307 0.186426
H15_42 H 0.666807 0.775789 0.167859
H16_42 H 0.667487 0.781312 0.200011
Ag3_42 Ag 0.66253(2) 0.88685(2) 0.02415(2)
N4_42 N 0.68228(9) 0.87700(10) 0.18235(9)
N1_43 N 0.20466(9) 0.38562(9) 0.63062(9)
N2_43 N 0.18235(9) 0.37700(10) 0.68228(9)
C1_43 C 0.21285(10) 0.40023(11) 0.65234(10)
C2_43 C 0.20130(10) 0.39595(12) 0.67776(11)
H1_43 H 0.207134 0.406970 0.692581
C3_43 C 0.17443(12) 0.36222(13) 0.66069(11)
H2_43 H 0.160983 0.348468 0.662992
C4_43 C 0.18552(11) 0.36666(12) 0.63500(11)
H3_43 H 0.179346 0.355927 0.620111
C5_43 C 0.25696(11) 0.42628(13) 0.67932(12)
C6_43 C 0.27447(16) 0.40456(17) 0.68587(16)
H4_43 H 0.276796 0.389929 0.673388
C7_43 C 0.28838(19) 0.4044(2) 0.71056(19)
H5_43 H 0.300962 0.390275 0.714656
C8_43 C 0.28372(16) 0.4250(2) 0.72897(17)
H6_43 H 0.292109 0.424262 0.746418
C9_43 C 0.26762(16) 0.44604(19) 0.72277(15)
H7_43 H 0.265381 0.460516 0.735443
C10_43 C 0.25368(15) 0.44690(16) 0.69711(13)
H8_43 H 0.242238 0.461892 0.692696
C11_43 C 0.22420(12) 0.45714(11) 0.64077(11)
C12_43 C 0.23969(16) 0.47736(14) 0.62786(18)
H9_43 H 0.257833 0.473566 0.622228
C13_33 C 0.22842(18) 0.50310(15) 0.6233(2)
H10_33 H 0.238902 0.517067 0.614885
C14_33 C 0.2019(2) 0.50793(17) 0.6311(2)
H11_33 H 0.194224 0.525532 0.628386
C15_43 C 0.1864(2) 0.48819(19) 0.64254(19)
H12_43 H 0.167914 0.491726 0.646944
C16_43 C 0.19775(16) 0.46242(16) 0.64794(15)
H13_43 H 0.187089 0.448724 0.656539
N3_43 N 0.21362(17) 0.42947(13) 0.57455(14)
C17_43 C 0.1987(3) 0.4468(2) 0.5710(2)
C18_43 C 0.1787(3) 0.4720(3) 0.5662(3)
H14_43 H 0.189395 0.488693 0.563574
H15_43 H 0.166807 0.474211 0.582141
H16_43 H 0.167487 0.468688 0.549989
Ag3_43 Ag 0.16253(2) 0.36315(2) 0.72585(2)
N4_43 N 0.18228(9) 0.37300(10) 0.56765(9)
N1_44 N 0.54534(9) 0.88562(9) 0.61938(9)
N2_44 N 0.56765(9) 0.87700(10) 0.56772(9)
C1_44 C 0.53715(10) 0.90023(11) 0.59766(10)
C2_44 C 0.54870(10) 0.89595(12) 0.57224(11)
H1_44 H 0.542866 0.906970 0.557419
C3_44 C 0.57557(12) 0.86222(13) 0.58931(11)
H2_44 H 0.589017 0.848468 0.587008
C4_44 C 0.56448(11) 0.86666(12) 0.61500(11)
H3_44 H 0.570654 0.855927 0.629889
C5_44 C 0.49304(11) 0.92628(13) 0.57068(12)
C6_44 C 0.47553(16) 0.90456(17) 0.56413(16)
H4_44 H 0.473204 0.889929 0.576612
C7_44 C 0.46162(19) 0.9044(2) 0.53944(19)
H5_44 H 0.449038 0.890275 0.535344
C8_44 C 0.46628(16) 0.9250(2) 0.52103(17)
H6_44 H 0.457891 0.924262 0.503582
C9_44 C 0.48238(16) 0.94604(19) 0.52723(15)
H7_44 H 0.484619 0.960516 0.514557
C10_44 C 0.49632(15) 0.94690(16) 0.55289(13)
H8_44 H 0.507762 0.961892 0.557304
C11_44 C 0.52580(12) 0.95714(11) 0.60923(11)
C12_44 C 0.51031(16) 0.97736(14) 0.62214(18)
H9_44 H 0.492167 0.973566 0.627772
C15_44 C 0.5636(2) 0.98819(19) 0.60746(19)
H12_44 H 0.582086 0.991726 0.603056
C16_44 C 0.55225(16) 0.96242(16) 0.60206(15)
H13_44 H 0.562911 0.948724 0.593461
N3_44 N 0.53638(17) 0.92947(13) 0.67545(14)
C17_44 C 0.5513(3) 0.9468(2) 0.6790(2)
C18_44 C 0.5713(3) 0.9720(3) 0.6838(3)
H14_44 H 0.560605 0.988693 0.686426
H15_44 H 0.583193 0.974211 0.667859
H16_44 H 0.582513 0.968688 0.700011
Ag3_44 Ag 0.58747(2) 0.86315(2) 0.52415(2)
N4_44 N 0.56772(9) 0.87300(10) 0.68235(9)
Ag1_37 Ag 0.36315(2) 0.16253(2) 0.22585(2)
P1_37 P 0.32545(3) 0.10388(3) 0.24063(3)
N1_45 N 0.36438(9) 0.11938(9) 0.20466(9)
N2_45 N 0.37300(10) 0.06772(9) 0.18235(9)
C1_45 C 0.34977(11) 0.09766(10) 0.21285(10)
C2_45 C 0.35405(12) 0.07224(11) 0.20130(10)
H1_45 H 0.343030 0.057419 0.207134
C3_45 C 0.38778(13) 0.08931(11) 0.17443(12)
H2_45 H 0.401532 0.087008 0.160983
C4_45 C 0.38334(12) 0.11500(11) 0.18552(11)
H3_45 H 0.394073 0.129889 0.179346
C5_45 C 0.32372(13) 0.07068(12) 0.25696(11)
C6_45 C 0.34544(17) 0.06413(16) 0.27447(16)
H4_45 H 0.360071 0.076612 0.276796
C7_45 C 0.3456(2) 0.03944(19) 0.28838(19)
H5_45 H 0.359725 0.035344 0.300962
C8_45 C 0.3250(2) 0.02103(17) 0.28372(16)
H6_45 H 0.325738 0.003582 0.292109
C9_45 C 0.30396(19) 0.02723(15) 0.26762(16)
H7_45 H 0.289484 0.014557 0.265381
C10_45 C 0.30310(16) 0.05289(13) 0.25368(15)
H8_45 H 0.288108 0.057304 0.242238
C11_45 C 0.29286(11) 0.10923(11) 0.22420(12)
C12_45 C 0.27264(14) 0.12214(18) 0.23969(16)
H9_45 H 0.276434 0.127772 0.257833
C13_34 C 0.24690(15) 0.1267(2) 0.22842(18)
H10_34 H 0.232933 0.135115 0.238902
C14_34 C 0.24207(17) 0.1189(2) 0.2019(2)
H11_34 H 0.224468 0.121614 0.194224
C15_45 C 0.26181(19) 0.10746(19) 0.1864(2)
H12_45 H 0.258274 0.103056 0.167914
C16_45 C 0.28758(16) 0.10206(15) 0.19775(16)
H13_45 H 0.301276 0.093461 0.187089
N3_45 N 0.32053(13) 0.17545(14) 0.21362(17)
C17_45 C 0.3032(2) 0.1790(2) 0.1987(3)
C18_45 C 0.2780(3) 0.1838(3) 0.1787(3)
H14_45 H 0.261307 0.186426 0.189395
H15_45 H 0.275789 0.167859 0.166807
H16_45 H 0.281312 0.200011 0.167487
Ag2_37 Ag 0.33747(2) 0.13685(2) 0.27415(2)
Ag3_45 Ag 0.38685(2) 0.02415(2) 0.16253(2)
P2_37 P 0.39612(3) 0.17455(3) 0.25937(3)
N4_45 N 0.37700(10) 0.18235(9) 0.18228(9)
Ag1_38 Ag 0.86315(2) 0.08747(2) 0.52415(2)
P1_38 P 0.82545(3) 0.14612(3) 0.50937(3)
N1_46 N 0.86438(9) 0.13062(9) 0.54534(9)
N2_46 N 0.87300(10) 0.18228(9) 0.56765(9)
C1_46 C 0.84977(11) 0.15234(10) 0.53715(10)
C2_46 C 0.85405(12) 0.17776(11) 0.54870(10)
H1_46 H 0.843030 0.192581 0.542866
C3_46 C 0.88778(13) 0.16069(11) 0.57557(12)
H2_46 H 0.901532 0.162992 0.589017
C4_46 C 0.88334(12) 0.13500(11) 0.56448(11)
H3_46 H 0.894073 0.120111 0.570654
C5_46 C 0.82372(13) 0.17932(12) 0.49304(11)
C6_46 C 0.84544(17) 0.18587(16) 0.47553(16)
H4_46 H 0.860071 0.173388 0.473204
C7_46 C 0.8456(2) 0.21056(19) 0.46162(19)
H5_46 H 0.859725 0.214656 0.449038
C8_46 C 0.8250(2) 0.22897(17) 0.46628(16)
H6_46 H 0.825738 0.246418 0.457891
C9_46 C 0.80396(19) 0.22277(15) 0.48238(16)
H7_46 H 0.789484 0.235443 0.484619
C10_46 C 0.80310(16) 0.19711(13) 0.49632(15)
H8_46 H 0.788108 0.192696 0.507762
C11_46 C 0.79286(11) 0.14077(11) 0.52580(12)
C12_46 C 0.77264(14) 0.12786(18) 0.51031(16)
H9_46 H 0.776434 0.122228 0.492167
C13_35 C 0.74690(15) 0.1233(2) 0.52158(18)
H10_35 H 0.732933 0.114885 0.511098
C14_35 C 0.74207(17) 0.1311(2) 0.5481(2)
H11_35 H 0.724468 0.128386 0.555776
C15_46 C 0.76181(19) 0.14254(19) 0.5636(2)
H12_46 H 0.758274 0.146944 0.582086
C16_46 C 0.78758(16) 0.14794(15) 0.55225(16)
H13_46 H 0.801276 0.156539 0.562911
N3_46 N 0.82053(13) 0.07455(14) 0.53638(17)
C17_46 C 0.8032(2) 0.0710(2) 0.5513(3)
C18_46 C 0.7780(3) 0.0662(3) 0.5713(3)
H14_46 H 0.761307 0.063574 0.560605
H15_46 H 0.775789 0.082141 0.583193
H16_46 H 0.781312 0.049989 0.582513
Ag2_38 Ag 0.83747(2) 0.11315(2) 0.47585(2)
Ag3_46 Ag 0.88685(2) 0.22585(2) 0.58747(2)
P2_38 P 0.89612(3) 0.07545(3) 0.49063(3)
N4_46 N 0.87700(10) 0.06765(9) 0.56772(9)
Ag1_39 Ag 0.38685(2) 0.66253(2) 0.02415(2)
P1_39 P 0.42455(3) 0.60388(3) 0.00937(3)
N1_47 N 0.38562(9) 0.61938(9) 0.04534(9)
N2_47 N 0.37700(10) 0.56772(9) 0.06765(9)
C1_47 C 0.40023(11) 0.59766(10) 0.03715(10)
C2_47 C 0.39595(12) 0.57224(11) 0.04870(10)
H1_47 H 0.406970 0.557419 0.042866
C3_47 C 0.36222(13) 0.58931(11) 0.07557(12)
H2_47 H 0.348468 0.587008 0.089017
C4_47 C 0.36666(12) 0.61500(11) 0.06448(11)
H3_47 H 0.355927 0.629889 0.070654
H8_47 H 0.461892 0.557304 0.007762
C11_47 C 0.45714(11) 0.60923(11) 0.02580(12)
C12_47 C 0.47736(14) 0.62214(18) 0.01031(16)
C13_36 C 0.50310(15) 0.6267(2) 0.02158(18)
H10_36 H 0.517067 0.635115 0.011098
C14_36 C 0.50793(17) 0.6189(2) 0.0481(2)
H11_36 H 0.525532 0.621614 0.055776
C15_47 C 0.48819(19) 0.60746(19) 0.0636(2)
H12_47 H 0.491726 0.603056 0.082086
C16_47 C 0.46242(16) 0.60206(15) 0.05225(16)
H13_47 H 0.448724 0.593461 0.062911
N3_47 N 0.42947(13) 0.67545(14) 0.03638(17)
C17_47 C 0.4468(2) 0.6790(2) 0.0513(3)
C18_47 C 0.4720(3) 0.6838(3) 0.0713(3)
H14_47 H 0.488693 0.686426 0.060605
H15_47 H 0.474211 0.667859 0.083193
H16_47 H 0.468688 0.700011 0.082513
Ag3_47 Ag 0.36315(2) 0.52415(2) 0.08747(2)
N4_47 N 0.37300(10) 0.68235(9) 0.06772(9)
C5_47 C 0.42628(13) 0.57068(12) 0.99304(11)
C6_47 C 0.40456(17) 0.56413(16) 0.97553(16)
H4_47 H 0.389929 0.576612 0.973204
C7_47 C 0.4044(2) 0.53944(19) 0.96162(19)
H5_47 H 0.390275 0.535344 0.949038
C8_47 C 0.4250(2) 0.52103(17) 0.96628(16)
H6_47 H 0.424262 0.503582 0.957891
C9_47 C 0.44604(19) 0.52723(15) 0.98238(16)
H7_47 H 0.460516 0.514557 0.984619
C10_47 C 0.44690(16) 0.55289(13) 0.99632(15)
H9_47 H 0.473566 0.627772 0.992167
Ag2_39 Ag 0.41253(2) 0.63685(2) 0.97585(2)
P2_39 P 0.35388(3) 0.67455(3) 0.99063(3)
Ag1_40 Ag 0.88685(2) 0.58747(2) 0.72585(2)
P1_40 P 0.92455(3) 0.64612(3) 0.74063(3)
N1_48 N 0.88562(9) 0.63062(9) 0.70466(9)
N2_48 N 0.87700(10) 0.68228(9) 0.68235(9)
C1_48 C 0.90023(11) 0.65234(10) 0.71285(10)
C2_48 C 0.89595(12) 0.67776(11) 0.70130(10)
H1_48 H 0.906970 0.692581 0.707134
C3_48 C 0.86222(13) 0.66069(11) 0.67443(12)
H2_48 H 0.848468 0.662992 0.660983
C4_48 C 0.86666(12) 0.63500(11) 0.68552(11)
H3_48 H 0.855927 0.620111 0.679346
C5_48 C 0.92628(13) 0.67932(12) 0.75696(11)
C6_48 C 0.90456(17) 0.68587(16) 0.77447(16)
H4_48 H 0.889929 0.673388 0.776796
C7_48 C 0.9044(2) 0.71056(19) 0.78838(19)
H5_48 H 0.890275 0.714656 0.800962
C8_48 C 0.9250(2) 0.72897(17) 0.78372(16)
H6_48 H 0.924262 0.746418 0.792109
C9_48 C 0.94604(19) 0.72277(15) 0.76762(16)
H7_48 H 0.960516 0.735443 0.765381
C10_48 C 0.94690(16) 0.69711(13) 0.75368(15)
H8_48 H 0.961892 0.692696 0.742238
C11_48 C 0.95714(11) 0.64077(11) 0.72420(12)
C12_48 C 0.97736(14) 0.62786(18) 0.73969(16)
H9_48 H 0.973566 0.622228 0.757833
C15_48 C 0.98819(19) 0.64254(19) 0.6864(2)
H12_48 H 0.991726 0.646944 0.667914
C16_48 C 0.96242(16) 0.64794(15) 0.69775(16)
H13_48 H 0.948724 0.656539 0.687089
N3_48 N 0.92947(13) 0.57455(14) 0.71362(17)
C17_48 C 0.9468(2) 0.5710(2) 0.6987(3)
C18_48 C 0.9720(3) 0.5662(3) 0.6787(3)
H14_48 H 0.988693 0.563574 0.689395
H15_48 H 0.974211 0.582141 0.666807
H16_48 H 0.968688 0.549989 0.667487
Ag2_40 Ag 0.91253(2) 0.61315(2) 0.77415(2)
Ag3_48 Ag 0.86315(2) 0.72585(2) 0.66253(2)
P2_40 P 0.85388(3) 0.57545(3) 0.75937(3)
N4_48 N 0.87300(10) 0.56765(9) 0.68228(9)
Ag1_41 Ag 0.77415(2) 0.41253(2) 0.11315(2)
P1_41 P 0.75937(3) 0.35388(3) 0.07545(3)
N1_49 N 0.79534(9) 0.36938(9) 0.11438(9)
N2_49 N 0.81765(9) 0.31772(9) 0.12300(10)
C1_49 C 0.78715(10) 0.34766(10) 0.09977(11)
C2_49 C 0.79870(10) 0.32224(11) 0.10405(12)
H1_49 H 0.792866 0.307419 0.093030
C3_49 C 0.82557(12) 0.33931(11) 0.13778(13)
H2_49 H 0.839017 0.337008 0.151532
C4_49 C 0.81448(11) 0.36500(11) 0.13334(12)
H3_49 H 0.820654 0.379889 0.144073
C5_49 C 0.74304(11) 0.32068(12) 0.07372(13)
C6_49 C 0.72553(16) 0.31413(16) 0.09544(17)
H4_49 H 0.723204 0.326612 0.110071
C7_49 C 0.71162(19) 0.28944(19) 0.0956(2)
H5_49 H 0.699038 0.285344 0.109725
C8_49 C 0.71628(16) 0.27103(17) 0.0750(2)
H6_49 H 0.707891 0.253582 0.075738
C9_49 C 0.73238(16) 0.27723(15) 0.05396(19)
H7_49 H 0.734619 0.264557 0.039484
C10_49 C 0.74632(15) 0.30289(13) 0.05310(16)
H8_49 H 0.757762 0.307304 0.038108
C11_49 C 0.77580(12) 0.35923(11) 0.04286(11)
C12_49 C 0.76031(16) 0.37214(18) 0.02264(14)
H9_49 H 0.742167 0.377772 0.026434
C15_49 C 0.8136(2) 0.35746(19) 0.01181(19)
H12_49 H 0.832086 0.353056 0.008274
C16_49 C 0.80225(16) 0.35206(15) 0.03758(16)
H13_49 H 0.812911 0.343461 0.051276
N3_49 N 0.78638(17) 0.42545(14) 0.07053(13)
C17_49 C 0.8013(3) 0.4290(2) 0.0532(2)
C18_49 C 0.8213(3) 0.4338(3) 0.0280(3)
H14_49 H 0.810605 0.436426 0.011307
H15_49 H 0.833193 0.417859 0.025789
H16_49 H 0.832513 0.450011 0.031312
Ag2_41 Ag 0.72585(2) 0.38685(2) 0.08747(2)
Ag3_49 Ag 0.83747(2) 0.27415(2) 0.13685(2)
P2_41 P 0.74063(3) 0.42455(3) 0.14612(3)
N4_49 N 0.81772(9) 0.43235(9) 0.12700(10)
Ag1_42 Ag 0.47585(2) 0.33747(2) 0.61315(2)
P1_42 P 0.49063(3) 0.39612(3) 0.57545(3)
N1_50 N 0.45466(9) 0.38062(9) 0.61438(9)
N2_50 N 0.43235(9) 0.43228(9) 0.62300(10)
C1_50 C 0.46285(10) 0.40234(10) 0.59977(11)
C2_50 C 0.45130(10) 0.42776(11) 0.60405(12)
H1_50 H 0.457134 0.442581 0.593030
C3_50 C 0.42443(12) 0.41069(11) 0.63778(13)
H2_50 H 0.410983 0.412992 0.651532
C4_50 C 0.43552(11) 0.38500(11) 0.63334(12)
H3_50 H 0.429346 0.370111 0.644073
C5_50 C 0.50696(11) 0.42932(12) 0.57372(13)
C6_50 C 0.52447(16) 0.43587(16) 0.59544(17)
H4_50 H 0.526796 0.423388 0.610071
C7_50 C 0.53838(19) 0.46056(19) 0.5956(2)
H5_50 H 0.550962 0.464656 0.609725
C8_50 C 0.53372(16) 0.47897(17) 0.5750(2)
H6_50 H 0.542109 0.496418 0.575738
C9_50 C 0.51762(16) 0.47277(15) 0.55396(19)
H7_50 H 0.515381 0.485443 0.539484
C10_50 C 0.50368(15) 0.44711(13) 0.55310(16)
H8_50 H 0.492238 0.442696 0.538108
C11_50 C 0.47420(12) 0.39077(11) 0.54286(11)
C12_50 C 0.48969(16) 0.37786(18) 0.52264(14)
H9_50 H 0.507833 0.372228 0.526434
C13_37 C 0.47842(18) 0.3733(2) 0.49690(15)
H10_37 H 0.488902 0.364885 0.482933
C14_37 C 0.4519(2) 0.3811(2) 0.49207(17)
H11_37 H 0.444224 0.378386 0.474468
C15_50 C 0.4364(2) 0.39254(19) 0.51181(19)
H12_50 H 0.417914 0.396944 0.508274
C16_50 C 0.44775(16) 0.39794(15) 0.53758(16)
H13_50 H 0.437089 0.406539 0.551276
N3_50 N 0.46362(17) 0.32455(14) 0.57053(13)
C17_50 C 0.4487(3) 0.3210(2) 0.5532(2)
C18_50 C 0.4287(3) 0.3162(3) 0.5280(3)
H14_50 H 0.439395 0.313574 0.511307
H15_50 H 0.416807 0.332141 0.525789
H16_50 H 0.417487 0.299989 0.531312
Ag2_42 Ag 0.52415(2) 0.36315(2) 0.58747(2)
Ag3_50 Ag 0.41253(2) 0.47585(2) 0.63685(2)
P2_42 P 0.50937(3) 0.32545(3) 0.64612(3)
N4_50 N 0.43228(9) 0.31765(9) 0.62700(10)
C5_51 C 0.00696(11) 0.82068(12) 0.17628(13)
C6_51 C 0.02447(16) 0.81413(16) 0.15456(17)
H4_51 H 0.026796 0.826612 0.139929
C7_51 C 0.03838(19) 0.78944(19) 0.1544(2)
H5_51 H 0.050962 0.785344 0.140275
C8_51 C 0.03372(16) 0.77103(17) 0.1750(2)
H6_51 H 0.042109 0.753582 0.174262
C9_51 C 0.01762(16) 0.77723(15) 0.19604(19)
H7_51 H 0.015381 0.764557 0.210516
C10_51 C 0.00368(15) 0.80289(13) 0.19690(16)
H9_51 H 0.007833 0.877772 0.223566
Ag2_43 Ag 0.02415(2) 0.88685(2) 0.16253(2)
P2_43 P 0.00937(3) 0.92455(3) 0.10388(3)
Ag1_43 Ag 0.97585(2) 0.91253(2) 0.13685(2)
P1_43 P 0.99063(3) 0.85388(3) 0.17455(3)
N1_51 N 0.95466(9) 0.86938(9) 0.13562(9)
N2_51 N 0.93235(9) 0.81772(9) 0.12700(10)
C1_51 C 0.96285(10) 0.84766(10) 0.15023(11)
C2_51 C 0.95130(10) 0.82224(11) 0.14595(12)
H1_51 H 0.957134 0.807419 0.156970
C3_51 C 0.92443(12) 0.83931(11) 0.11222(13)
H2_51 H 0.910983 0.837008 0.098468
C4_51 C 0.93552(11) 0.86500(11) 0.11666(12)
H3_51 H 0.929346 0.879889 0.105927
H8_51 H 0.992238 0.807304 0.211892
C11_51 C 0.97420(12) 0.85923(11) 0.20714(11)
C12_51 C 0.98969(16) 0.87214(18) 0.22736(14)
C13_38 C 0.97842(18) 0.8767(2) 0.25310(15)
H10_38 H 0.988902 0.885115 0.267067
C14_38 C 0.9519(2) 0.8689(2) 0.25793(17)
H11_38 H 0.944224 0.871614 0.275532
C15_51 C 0.9364(2) 0.85746(19) 0.23819(19)
H12_51 H 0.917914 0.853056 0.241726
C16_51 C 0.94775(16) 0.85206(15) 0.21242(16)
H13_51 H 0.937089 0.843461 0.198724
N3_51 N 0.96362(17) 0.92545(14) 0.17947(13)
C17_51 C 0.9487(3) 0.9290(2) 0.1968(2)
C18_51 C 0.9287(3) 0.9338(3) 0.2220(3)
H14_51 H 0.939395 0.936426 0.238693
H15_51 H 0.916807 0.917859 0.224211
H16_51 H 0.917487 0.950011 0.218688
Ag3_51 Ag 0.91253(2) 0.77415(2) 0.11315(2)
N4_51 N 0.93228(9) 0.93235(9) 0.12300(10)
Ag1_44 Ag 0.27415(2) 0.83747(2) 0.63685(2)
P1_44 P 0.25937(3) 0.89612(3) 0.67455(3)
N1_52 N 0.29534(9) 0.88062(9) 0.63562(9)
N2_52 N 0.31765(9) 0.93228(9) 0.62700(10)
C1_52 C 0.28715(10) 0.90234(10) 0.65023(11)
C2_52 C 0.29870(10) 0.92776(11) 0.64595(12)
H1_52 H 0.292866 0.942581 0.656970
C3_52 C 0.32557(12) 0.91069(11) 0.61222(13)
H2_52 H 0.339017 0.912992 0.598468
C4_52 C 0.31448(11) 0.88500(11) 0.61666(12)
H3_52 H 0.320654 0.870111 0.605927
C5_52 C 0.24304(11) 0.92932(12) 0.67628(13)
C6_52 C 0.22553(16) 0.93587(16) 0.65456(17)
H4_52 H 0.223204 0.923388 0.639929
C7_52 C 0.21162(19) 0.96056(19) 0.6544(2)
H5_52 H 0.199038 0.964656 0.640275
C8_52 C 0.21628(16) 0.97897(17) 0.6750(2)
H6_52 H 0.207891 0.996418 0.674262
C9_52 C 0.23238(16) 0.97277(15) 0.69604(19)
H7_52 H 0.234619 0.985443 0.710516
C10_52 C 0.24632(15) 0.94711(13) 0.69690(16)
H8_52 H 0.257762 0.942696 0.711892
C11_52 C 0.27580(12) 0.89077(11) 0.70714(11)
C12_52 C 0.26031(16) 0.87786(18) 0.72736(14)
H9_52 H 0.242167 0.872228 0.723566
C13_39 C 0.27158(18) 0.8733(2) 0.75310(15)
H10_39 H 0.261098 0.864885 0.767067
C14_39 C 0.2981(2) 0.8811(2) 0.75793(17)
H11_39 H 0.305776 0.878386 0.775532
C15_52 C 0.3136(2) 0.89254(19) 0.73819(19)
H12_52 H 0.332086 0.896944 0.741726
C16_52 C 0.30225(16) 0.89794(15) 0.71242(16)
H13_52 H 0.312911 0.906539 0.698724
N3_52 N 0.28638(17) 0.82455(14) 0.67947(13)
C17_52 C 0.3013(3) 0.8210(2) 0.6968(2)
C18_52 C 0.3213(3) 0.8162(3) 0.7220(3)
H14_52 H 0.310605 0.813574 0.738693
H15_52 H 0.333193 0.832141 0.724211
H16_52 H 0.332513 0.799989 0.718688
Ag2_44 Ag 0.22585(2) 0.86315(2) 0.66253(2)
Ag3_52 Ag 0.33747(2) 0.97585(2) 0.61315(2)
P2_44 P 0.24063(3) 0.82545(3) 0.60388(3)
N4_52 N 0.31772(9) 0.81765(9) 0.62300(10)
N1_53 N 0.11438(9) 0.29534(9) 0.86938(9)
N2_53 N 0.12300(10) 0.31765(9) 0.81772(9)
C1_53 C 0.09977(11) 0.28715(10) 0.84766(10)
C2_53 C 0.10405(12) 0.29870(10) 0.82224(11)
H1_53 H 0.093030 0.292866 0.807419
C3_53 C 0.13778(13) 0.32557(12) 0.83931(11)
H2_53 H 0.151532 0.339017 0.837008
C4_53 C 0.13334(12) 0.31448(11) 0.86500(11)
H3_53 H 0.144073 0.320654 0.879889
C5_53 C 0.07372(13) 0.24304(11) 0.82068(12)
C6_53 C 0.09544(17) 0.22553(16) 0.81413(16)
H4_53 H 0.110071 0.223204 0.826612
C7_53 C 0.0956(2) 0.21162(19) 0.78944(19)
H5_53 H 0.109725 0.199038 0.785344
C8_53 C 0.0750(2) 0.21628(16) 0.77103(17)
H6_53 H 0.075738 0.207891 0.753582
C9_53 C 0.05396(19) 0.23238(16) 0.77723(15)
H7_53 H 0.039484 0.234619 0.764557
C10_53 C 0.05310(16) 0.24632(15) 0.80289(13)
H8_53 H 0.038108 0.257762 0.807304
C11_53 C 0.04286(11) 0.27580(12) 0.85923(11)
C12_53 C 0.02264(14) 0.26031(16) 0.87214(18)
H9_53 H 0.026434 0.242167 0.877772
C15_53 C 0.01181(19) 0.3136(2) 0.85746(19)
H12_53 H 0.008274 0.332086 0.853056
C16_53 C 0.03758(16) 0.30225(16) 0.85206(15)
H13_53 H 0.051276 0.312911 0.843461
N3_53 N 0.07053(13) 0.28638(17) 0.92545(14)
C17_53 C 0.0532(2) 0.3013(3) 0.9290(2)
C18_53 C 0.0280(3) 0.3213(3) 0.9338(3)
H14_53 H 0.011307 0.310605 0.936426
H15_53 H 0.025789 0.333193 0.917859
H16_53 H 0.031312 0.332513 0.950011
Ag3_53 Ag 0.13685(2) 0.33747(2) 0.77415(2)
N4_53 N 0.12700(10) 0.31772(9) 0.93235(9)
C5_54 C 0.57372(13) 0.00696(11) 0.92932(12)
C6_54 C 0.59544(17) 0.02447(16) 0.93587(16)
H4_54 H 0.610071 0.026796 0.923388
C7_54 C 0.5956(2) 0.03838(19) 0.96056(19)
H5_54 H 0.609725 0.050962 0.964656
C8_54 C 0.5750(2) 0.03372(16) 0.97897(17)
H6_54 H 0.575738 0.042109 0.996418
C9_54 C 0.55396(19) 0.01762(16) 0.97277(15)
H7_54 H 0.539484 0.015381 0.985443
C10_54 C 0.55310(16) 0.00368(15) 0.94711(13)
H9_54 H 0.526434 0.007833 0.872228
N1_54 N 0.61438(9) 0.95466(9) 0.88062(9)
N2_54 N 0.62300(10) 0.93235(9) 0.93228(9)
C1_54 C 0.59977(11) 0.96285(10) 0.90234(10)
C2_54 C 0.60405(12) 0.95130(10) 0.92776(11)
H1_54 H 0.593030 0.957134 0.942581
C3_54 C 0.63778(13) 0.92443(12) 0.91069(11)
H2_54 H 0.651532 0.910983 0.912992
C4_54 C 0.63334(12) 0.93552(11) 0.88500(11)
H3_54 H 0.644073 0.929346 0.870111
H8_54 H 0.538108 0.992238 0.942696
C11_54 C 0.54286(11) 0.97420(12) 0.89077(11)
C12_54 C 0.52264(14) 0.98969(16) 0.87786(18)
C13_40 C 0.49690(15) 0.97842(18) 0.8733(2)
H10_40 H 0.482933 0.988902 0.864885
C14_40 C 0.49207(17) 0.9519(2) 0.8811(2)
H11_40 H 0.474468 0.944224 0.878386
C15_54 C 0.51181(19) 0.9364(2) 0.89254(19)
H12_54 H 0.508274 0.917914 0.896944
C16_54 C 0.53758(16) 0.94775(16) 0.89794(15)
H13_54 H 0.551276 0.937089 0.906539
N3_54 N 0.57053(13) 0.96362(17) 0.82455(14)
C17_54 C 0.5532(2) 0.9487(3) 0.8210(2)
C18_54 C 0.5280(3) 0.9287(3) 0.8162(3)
H14_54 H 0.511307 0.939395 0.813574
H15_54 H 0.525789 0.916807 0.832141
H16_54 H 0.531312 0.917487 0.799989
Ag3_54 Ag 0.63685(2) 0.91253(2) 0.97585(2)
N4_54 N 0.62700(10) 0.93228(9) 0.81765(9)
N1_55 N 0.13562(9) 0.45466(9) 0.36938(9)
N2_55 N 0.12700(10) 0.43235(9) 0.31772(9)
C1_55 C 0.15023(11) 0.46285(10) 0.34766(10)
C2_55 C 0.14595(12) 0.45130(10) 0.32224(11)
H1_55 H 0.156970 0.457134 0.307419
C3_55 C 0.11222(13) 0.42443(12) 0.33931(11)
H2_55 H 0.098468 0.410983 0.337008
C4_55 C 0.11666(12) 0.43552(11) 0.36500(11)
H3_55 H 0.105927 0.429346 0.379889
C5_55 C 0.17628(13) 0.50696(11) 0.32068(12)
C6_55 C 0.15456(17) 0.52447(16) 0.31413(16)
H4_55 H 0.139929 0.526796 0.326612
C7_55 C 0.1544(2) 0.53838(19) 0.28944(19)
H5_55 H 0.140275 0.550962 0.285344
C8_55 C 0.1750(2) 0.53372(16) 0.27103(17)
H6_55 H 0.174262 0.542109 0.253582
C9_55 C 0.19604(19) 0.51762(16) 0.27723(15)
H7_55 H 0.210516 0.515381 0.264557
C10_55 C 0.19690(16) 0.50368(15) 0.30289(13)
H8_55 H 0.211892 0.492238 0.307304
C11_55 C 0.20714(11) 0.47420(12) 0.35923(11)
C12_55 C 0.22736(14) 0.48969(16) 0.37214(18)
H9_55 H 0.223566 0.507833 0.377772
C13_41 C 0.25310(15) 0.47842(18) 0.3767(2)
H10_41 H 0.267067 0.488902 0.385115
C14_41 C 0.25793(17) 0.4519(2) 0.3689(2)
H11_41 H 0.275532 0.444224 0.371614
C15_55 C 0.23819(19) 0.4364(2) 0.35746(19)
H12_55 H 0.241726 0.417914 0.353056
C16_55 C 0.21242(16) 0.44775(16) 0.35206(15)
H13_55 H 0.198724 0.437089 0.343461
N3_55 N 0.17947(13) 0.46362(17) 0.42545(14)
C17_55 C 0.1968(2) 0.4487(3) 0.4290(2)
C18_55 C 0.2220(3) 0.4287(3) 0.4338(3)
H14_55 H 0.238693 0.439395 0.436426
H15_55 H 0.224211 0.416807 0.417859
H16_55 H 0.218688 0.417487 0.450011
Ag3_55 Ag 0.11315(2) 0.41253(2) 0.27415(2)
N4_55 N 0.12300(10) 0.43228(9) 0.43235(9)
N1_56 N 0.63562(9) 0.79534(9) 0.38062(9)
N2_56 N 0.62700(10) 0.81765(9) 0.43228(9)
C1_56 C 0.65023(11) 0.78715(10) 0.40234(10)
C2_56 C 0.64595(12) 0.79870(10) 0.42776(11)
H1_56 H 0.656970 0.792866 0.442581
C3_56 C 0.61222(13) 0.82557(12) 0.41069(11)
H2_56 H 0.598468 0.839017 0.412992
C4_56 C 0.61666(12) 0.81448(11) 0.38500(11)
H3_56 H 0.605927 0.820654 0.370111
C5_56 C 0.67628(13) 0.74304(11) 0.42932(12)
C6_56 C 0.65456(17) 0.72553(16) 0.43587(16)
H4_56 H 0.639929 0.723204 0.423388
C7_56 C 0.6544(2) 0.71162(19) 0.46056(19)
H5_56 H 0.640275 0.699038 0.464656
C8_56 C 0.6750(2) 0.71628(16) 0.47897(17)
H6_56 H 0.674262 0.707891 0.496418
C9_56 C 0.69604(19) 0.73238(16) 0.47277(15)
H7_56 H 0.710516 0.734619 0.485443
C10_56 C 0.69690(16) 0.74632(15) 0.44711(13)
H8_56 H 0.711892 0.757762 0.442696
C11_56 C 0.70714(11) 0.77580(12) 0.39077(11)
C12_56 C 0.72736(14) 0.76031(16) 0.37786(18)
H9_56 H 0.723566 0.742167 0.372228
C13_42 C 0.75310(15) 0.77158(18) 0.3733(2)
H10_42 H 0.767067 0.761098 0.364885
C14_42 C 0.75793(17) 0.7981(2) 0.3811(2)
H11_42 H 0.775532 0.805776 0.378386
C15_56 C 0.73819(19) 0.8136(2) 0.39254(19)
H12_56 H 0.741726 0.832086 0.396944
C16_56 C 0.71242(16) 0.80225(16) 0.39794(15)
H13_56 H 0.698724 0.812911 0.406539
N3_56 N 0.67947(13) 0.78638(17) 0.32455(14)
C17_56 C 0.6968(2) 0.8013(3) 0.3210(2)
C18_56 C 0.7220(3) 0.8213(3) 0.3162(3)
H14_56 H 0.738693 0.810605 0.313574
H15_56 H 0.724211 0.833193 0.332141
H16_56 H 0.718688 0.832513 0.299989
Ag3_56 Ag 0.61315(2) 0.83747(2) 0.47585(2)
N4_56 N 0.62300(10) 0.81772(9) 0.31765(9)
N1_57 N 0.86938(9) 0.61438(9) 0.79534(9)
N2_57 N 0.81772(9) 0.62300(10) 0.81765(9)
C1_57 C 0.84766(10) 0.59977(11) 0.78715(10)
C2_57 C 0.82224(11) 0.60405(12) 0.79870(10)
H1_57 H 0.807419 0.593030 0.792866
C3_57 C 0.83931(11) 0.63778(13) 0.82557(12)
H2_57 H 0.837008 0.651532 0.839017
C4_57 C 0.86500(11) 0.63334(12) 0.81448(11)
H3_57 H 0.879889 0.644073 0.820654
C5_57 C 0.82068(12) 0.57372(13) 0.74304(11)
C6_57 C 0.81413(16) 0.59544(17) 0.72553(16)
H4_57 H 0.826612 0.610071 0.723204
C7_57 C 0.78944(19) 0.5956(2) 0.71162(19)
H5_57 H 0.785344 0.609725 0.699038
C8_57 C 0.77103(17) 0.5750(2) 0.71628(16)
H6_57 H 0.753582 0.575738 0.707891
C9_57 C 0.77723(15) 0.55396(19) 0.73238(16)
H7_57 H 0.764557 0.539484 0.734619
C10_57 C 0.80289(13) 0.55310(16) 0.74632(15)
H8_57 H 0.807304 0.538108 0.757762
C11_57 C 0.85923(11) 0.54286(11) 0.77580(12)
C12_57 C 0.87214(18) 0.52264(14) 0.76031(16)
H9_57 H 0.877772 0.526434 0.742167
C13_43 C 0.8767(2) 0.49690(15) 0.77158(18)
H10_43 H 0.885115 0.482933 0.761098
C14_43 C 0.8689(2) 0.49207(17) 0.7981(2)
H11_43 H 0.871614 0.474468 0.805776
C15_57 C 0.85746(19) 0.51181(19) 0.8136(2)
H12_57 H 0.853056 0.508274 0.832086
C16_57 C 0.85206(15) 0.53758(16) 0.80225(16)
H13_57 H 0.843461 0.551276 0.812911
N3_57 N 0.92545(14) 0.57053(13) 0.78638(17)
C17_57 C 0.9290(2) 0.5532(2) 0.8013(3)
C18_57 C 0.9338(3) 0.5280(3) 0.8213(3)
H14_57 H 0.936426 0.511307 0.810605
H15_57 H 0.917859 0.525789 0.833193
H16_57 H 0.950011 0.531312 0.832513
Ag3_57 Ag 0.77415(2) 0.63685(2) 0.83747(2)
N4_57 N 0.93235(9) 0.62700(10) 0.81772(9)
N1_58 N 0.88062(9) 0.11438(9) 0.45466(9)
N2_58 N 0.93228(9) 0.12300(10) 0.43235(9)
C1_58 C 0.90234(10) 0.09977(11) 0.46285(10)
C2_58 C 0.92776(11) 0.10405(12) 0.45130(10)
H1_58 H 0.942581 0.093030 0.457134
C3_58 C 0.91069(11) 0.13778(13) 0.42443(12)
H2_58 H 0.912992 0.151532 0.410983
C4_58 C 0.88500(11) 0.13334(12) 0.43552(11)
H3_58 H 0.870111 0.144073 0.429346
C5_58 C 0.92932(12) 0.07372(13) 0.50696(11)
C6_58 C 0.93587(16) 0.09544(17) 0.52447(16)
H4_58 H 0.923388 0.110071 0.526796
C7_58 C 0.96056(19) 0.0956(2) 0.53838(19)
H5_58 H 0.964656 0.109725 0.550962
C8_58 C 0.97897(17) 0.0750(2) 0.53372(16)
H6_58 H 0.996418 0.075738 0.542109
C9_58 C 0.97277(15) 0.05396(19) 0.51762(16)
H7_58 H 0.985443 0.039484 0.515381
C10_58 C 0.94711(13) 0.05310(16) 0.50368(15)
H8_58 H 0.942696 0.038108 0.492238
C11_58 C 0.89077(11) 0.04286(11) 0.47420(12)
C12_58 C 0.87786(18) 0.02264(14) 0.48969(16)
H9_58 H 0.872228 0.026434 0.507833
C15_58 C 0.89254(19) 0.01181(19) 0.4364(2)
H12_58 H 0.896944 0.008274 0.417914
C16_58 C 0.89794(15) 0.03758(16) 0.44775(16)
H13_58 H 0.906539 0.051276 0.437089
N3_58 N 0.82455(14) 0.07053(13) 0.46362(17)
C17_58 C 0.8210(2) 0.0532(2) 0.4487(3)
C18_58 C 0.8162(3) 0.0280(3) 0.4287(3)
H14_58 H 0.813574 0.011307 0.439395
H15_58 H 0.832141 0.025789 0.416807
H16_58 H 0.799989 0.031312 0.417487
Ag3_58 Ag 0.97585(2) 0.13685(2) 0.41253(2)
N4_58 N 0.81765(9) 0.12700(10) 0.43228(9)
C5_59 C 0.32068(12) 0.67628(13) 0.00696(11)
C6_59 C 0.31413(16) 0.65456(17) 0.02447(16)
H4_59 H 0.326612 0.639929 0.026796
C7_59 C 0.28944(19) 0.6544(2) 0.03838(19)
H5_59 H 0.285344 0.640275 0.050962
C8_59 C 0.27103(17) 0.6750(2) 0.03372(16)
H6_59 H 0.253582 0.674262 0.042109
C9_59 C 0.27723(15) 0.69604(19) 0.01762(16)
H7_59 H 0.264557 0.710516 0.015381
C10_59 C 0.30289(13) 0.69690(16) 0.00368(15)
H9_59 H 0.377772 0.723566 0.007833
N1_59 N 0.36938(9) 0.63562(9) 0.95466(9)
N2_59 N 0.31772(9) 0.62700(10) 0.93235(9)
C1_59 C 0.34766(10) 0.65023(11) 0.96285(10)
C2_59 C 0.32224(11) 0.64595(12) 0.95130(10)
H1_59 H 0.307419 0.656970 0.957134
C3_59 C 0.33931(11) 0.61222(13) 0.92443(12)
H2_59 H 0.337008 0.598468 0.910983
C4_59 C 0.36500(11) 0.61666(12) 0.93552(11)
H3_59 H 0.379889 0.605927 0.929346
H8_59 H 0.307304 0.711892 0.992238
C11_59 C 0.35923(11) 0.70714(11) 0.97420(12)
C12_59 C 0.37214(18) 0.72736(14) 0.98969(16)
C13_44 C 0.3767(2) 0.75310(15) 0.97842(18)
H10_44 H 0.385115 0.767067 0.988902
C14_44 C 0.3689(2) 0.75793(17) 0.9519(2)
H11_44 H 0.371614 0.775532 0.944224
C15_59 C 0.35746(19) 0.73819(19) 0.9364(2)
H12_59 H 0.353056 0.741726 0.917914
C16_59 C 0.35206(15) 0.71242(16) 0.94775(16)
H13_59 H 0.343461 0.698724 0.937089
N3_59 N 0.42545(14) 0.67947(13) 0.96362(17)
C17_59 C 0.4290(2) 0.6968(2) 0.9487(3)
C18_59 C 0.4338(3) 0.7220(3) 0.9287(3)
H14_59 H 0.436426 0.738693 0.939395
H15_59 H 0.417859 0.724211 0.916807
H16_59 H 0.450011 0.718688 0.917487
Ag3_59 Ag 0.27415(2) 0.61315(2) 0.91253(2)
N4_59 N 0.43235(9) 0.62300(10) 0.93228(9)
N1_60 N 0.38062(9) 0.13562(9) 0.29534(9)
N2_60 N 0.43228(9) 0.12700(10) 0.31765(9)
C1_60 C 0.40234(10) 0.15023(11) 0.28715(10)
C2_60 C 0.42776(11) 0.14595(12) 0.29870(10)
H1_60 H 0.442581 0.156970 0.292866
C3_60 C 0.41069(11) 0.11222(13) 0.32557(12)
H2_60 H 0.412992 0.098468 0.339017
C4_60 C 0.38500(11) 0.11666(12) 0.31448(11)
H3_60 H 0.370111 0.105927 0.320654
C5_60 C 0.42932(12) 0.17628(13) 0.24304(11)
C6_60 C 0.43587(16) 0.15456(17) 0.22553(16)
H4_60 H 0.423388 0.139929 0.223204
C7_60 C 0.46056(19) 0.1544(2) 0.21162(19)
H5_60 H 0.464656 0.140275 0.199038
C8_60 C 0.47897(17) 0.1750(2) 0.21628(16)
H6_60 H 0.496418 0.174262 0.207891
C9_60 C 0.47277(15) 0.19604(19) 0.23238(16)
H7_60 H 0.485443 0.210516 0.234619
C10_60 C 0.44711(13) 0.19690(16) 0.24632(15)
H8_60 H 0.442696 0.211892 0.257762
C11_60 C 0.39077(11) 0.20714(11) 0.27580(12)
C12_60 C 0.37786(18) 0.22736(14) 0.26031(16)
H9_60 H 0.372228 0.223566 0.242167
C13_45 C 0.3733(2) 0.25310(15) 0.27158(18)
H10_45 H 0.364885 0.267067 0.261098
C14_45 C 0.3811(2) 0.25793(17) 0.2981(2)
H11_45 H 0.378386 0.275532 0.305776
C15_60 C 0.39254(19) 0.23819(19) 0.3136(2)
H12_60 H 0.396944 0.241726 0.332086
C16_60 C 0.39794(15) 0.21242(16) 0.30225(16)
H13_60 H 0.406539 0.198724 0.312911
N3_60 N 0.32455(14) 0.17947(13) 0.28638(17)
C17_60 C 0.3210(2) 0.1968(2) 0.3013(3)
C18_60 C 0.3162(3) 0.2220(3) 0.3213(3)
H14_60 H 0.313574 0.238693 0.310605
H15_60 H 0.332141 0.224211 0.333193
H16_60 H 0.299989 0.218688 0.332513
Ag3_60 Ag 0.47585(2) 0.11315(2) 0.33747(2)
N4_60 N 0.31765(9) 0.12300(10) 0.31772(9)
N1_61 N 0.61938(9) 0.54534(9) 0.88562(9)
N2_61 N 0.56772(9) 0.56765(9) 0.87700(10)
C1_61 C 0.59766(10) 0.53715(10) 0.90023(11)
C2_61 C 0.57224(11) 0.54870(10) 0.89595(12)
H1_61 H 0.557419 0.542866 0.906970
C3_61 C 0.58931(11) 0.57557(12) 0.86222(13)
H2_61 H 0.587008 0.589017 0.848468
C4_61 C 0.61500(11) 0.56448(11) 0.86666(12)
H3_61 H 0.629889 0.570654 0.855927
C5_61 C 0.57068(12) 0.49304(11) 0.92628(13)
C6_61 C 0.56413(16) 0.47553(16) 0.90456(17)
H4_61 H 0.576612 0.473204 0.889929
C7_61 C 0.53944(19) 0.46162(19) 0.9044(2)
H5_61 H 0.535344 0.449038 0.890275
C8_61 C 0.52103(17) 0.46628(16) 0.9250(2)
H6_61 H 0.503582 0.457891 0.924262
C9_61 C 0.52723(15) 0.48238(16) 0.94604(19)
H7_61 H 0.514557 0.484619 0.960516
C10_61 C 0.55289(13) 0.49632(15) 0.94690(16)
H8_61 H 0.557304 0.507762 0.961892
C11_61 C 0.60923(11) 0.52580(12) 0.95714(11)
C12_61 C 0.62214(18) 0.51031(16) 0.97736(14)
H9_61 H 0.627772 0.492167 0.973566
C15_61 C 0.60746(19) 0.5636(2) 0.98819(19)
H12_61 H 0.603056 0.582086 0.991726
C16_61 C 0.60206(15) 0.55225(16) 0.96242(16)
H13_61 H 0.593461 0.562911 0.948724
N3_61 N 0.67545(14) 0.53638(17) 0.92947(13)
C17_61 C 0.6790(2) 0.5513(3) 0.9468(2)
C18_61 C 0.6838(3) 0.5713(3) 0.9720(3)
H14_61 H 0.686426 0.560605 0.988693
H15_61 H 0.667859 0.583193 0.974211
H16_61 H 0.700011 0.582513 0.968688
Ag3_61 Ag 0.52415(2) 0.58747(2) 0.86315(2)
N4_61 N 0.68235(9) 0.56772(9) 0.87300(10)
N1_62 N 0.63062(9) 0.20466(9) 0.38562(9)
N2_62 N 0.68228(9) 0.18235(9) 0.37700(10)
C1_62 C 0.65234(10) 0.21285(10) 0.40023(11)
C2_62 C 0.67776(11) 0.20130(10) 0.39595(12)
H1_62 H 0.692581 0.207134 0.406970
C3_62 C 0.66069(11) 0.17443(12) 0.36222(13)
H2_62 H 0.662992 0.160983 0.348468
C4_62 C 0.63500(11) 0.18552(11) 0.36666(12)
H3_62 H 0.620111 0.179346 0.355927
C5_62 C 0.67932(12) 0.25696(11) 0.42628(13)
C6_62 C 0.68587(16) 0.27447(16) 0.40456(17)
H4_62 H 0.673388 0.276796 0.389929
C7_62 C 0.71056(19) 0.28838(19) 0.4044(2)
H5_62 H 0.714656 0.300962 0.390275
C8_62 C 0.72897(17) 0.28372(16) 0.4250(2)
H6_62 H 0.746418 0.292109 0.424262
C9_62 C 0.72277(15) 0.26762(16) 0.44604(19)
H7_62 H 0.735443 0.265381 0.460516
C10_62 C 0.69711(13) 0.25368(15) 0.44690(16)
H8_62 H 0.692696 0.242238 0.461892
C11_62 C 0.64077(11) 0.22420(12) 0.45714(11)
C12_62 C 0.62786(18) 0.23969(16) 0.47736(14)
H9_62 H 0.622228 0.257833 0.473566
C13_46 C 0.6233(2) 0.22842(18) 0.50310(15)
H10_46 H 0.614885 0.238902 0.517067
C14_46 C 0.6311(2) 0.2019(2) 0.50793(17)
H11_46 H 0.628386 0.194224 0.525532
C15_62 C 0.64254(19) 0.1864(2) 0.48819(19)
H12_62 H 0.646944 0.167914 0.491726
C16_62 C 0.64794(15) 0.19775(16) 0.46242(16)
H13_62 H 0.656539 0.187089 0.448724
N3_62 N 0.57455(14) 0.21362(17) 0.42947(13)
C17_62 C 0.5710(2) 0.1987(3) 0.4468(2)
C18_62 C 0.5662(3) 0.1787(3) 0.4720(3)
H14_62 H 0.563574 0.189395 0.488693
H15_62 H 0.582141 0.166807 0.474211
H16_62 H 0.549989 0.167487 0.468688
Ag3_62 Ag 0.72585(2) 0.16253(2) 0.36315(2)
N4_62 N 0.56765(9) 0.18228(9) 0.37300(10)
N1_63 N 0.11938(9) 0.70466(9) 0.86438(9)
N2_63 N 0.06772(9) 0.68235(9) 0.87300(10)
C1_63 C 0.09766(10) 0.71285(10) 0.84977(11)
C2_63 C 0.07224(11) 0.70130(10) 0.85405(12)
H1_63 H 0.057419 0.707134 0.843030
C3_63 C 0.08931(11) 0.67443(12) 0.88778(13)
H2_63 H 0.087008 0.660983 0.901532
C4_63 C 0.11500(11) 0.68552(11) 0.88334(12)
H3_63 H 0.129889 0.679346 0.894073
C5_63 C 0.07068(12) 0.75696(11) 0.82372(13)
C6_63 C 0.06413(16) 0.77447(16) 0.84544(17)
H4_63 H 0.076612 0.776796 0.860071
C7_63 C 0.03944(19) 0.78838(19) 0.8456(2)
H5_63 H 0.035344 0.800962 0.859725
C8_63 C 0.02103(17) 0.78372(16) 0.8250(2)
H6_63 H 0.003582 0.792109 0.825738
C9_63 C 0.02723(15) 0.76762(16) 0.80396(19)
H7_63 H 0.014557 0.765381 0.789484
C10_63 C 0.05289(13) 0.75368(15) 0.80310(16)
H8_63 H 0.057304 0.742238 0.788108
C11_63 C 0.10923(11) 0.72420(12) 0.79286(11)
C12_63 C 0.12214(18) 0.73969(16) 0.77264(14)
H9_63 H 0.127772 0.757833 0.776434
C13_47 C 0.1267(2) 0.72842(18) 0.74690(15)
H10_47 H 0.135115 0.738902 0.732933
C14_47 C 0.1189(2) 0.7019(2) 0.74207(17)
H11_47 H 0.121614 0.694224 0.724468
C15_63 C 0.10746(19) 0.6864(2) 0.76181(19)
H12_63 H 0.103056 0.667914 0.758274
C16_63 C 0.10206(15) 0.69775(16) 0.78758(16)
H13_63 H 0.093461 0.687089 0.801276
N3_63 N 0.17545(14) 0.71362(17) 0.82053(13)
C17_63 C 0.1790(2) 0.6987(3) 0.8032(2)
C18_63 C 0.1838(3) 0.6787(3) 0.7780(3)
H14_63 H 0.186426 0.689395 0.761307
H15_63 H 0.167859 0.666807 0.775789
H16_63 H 0.200011 0.667487 0.781312
Ag3_63 Ag 0.02415(2) 0.66253(2) 0.88685(2)
N4_63 N 0.18235(9) 0.68228(9) 0.87700(10)
N1_64 N 0.13062(9) 0.04534(9) 0.36438(9)
N2_64 N 0.18228(9) 0.06765(9) 0.37300(10)
C1_64 C 0.15234(10) 0.03715(10) 0.34977(11)
C2_64 C 0.17776(11) 0.04870(10) 0.35405(12)
H1_64 H 0.192581 0.042866 0.343030
C3_64 C 0.16069(11) 0.07557(12) 0.38778(13)
H2_64 H 0.162992 0.089017 0.401532
C4_64 C 0.13500(11) 0.06448(11) 0.38334(12)
H3_64 H 0.120111 0.070654 0.394073
H8_64 H 0.192696 0.007762 0.288108
C11_64 C 0.14077(11) 0.02580(12) 0.29286(11)
C12_64 C 0.12786(18) 0.01031(16) 0.27264(14)
C13_48 C 0.1233(2) 0.02158(18) 0.24690(15)
H10_48 H 0.114885 0.011098 0.232933
C14_48 C 0.1311(2) 0.0481(2) 0.24207(17)
H11_48 H 0.128386 0.055776 0.224468
C15_64 C 0.14254(19) 0.0636(2) 0.26181(19)
H12_64 H 0.146944 0.082086 0.258274
C16_64 C 0.14794(15) 0.05225(16) 0.28758(16)
H13_64 H 0.156539 0.062911 0.301276
N3_64 N 0.07455(14) 0.03638(17) 0.32053(13)
C17_64 C 0.0710(2) 0.0513(3) 0.3032(2)
C18_64 C 0.0662(3) 0.0713(3) 0.2780(3)
H14_64 H 0.063574 0.060605 0.261307
H15_64 H 0.082141 0.083193 0.275789
H16_64 H 0.049989 0.082513 0.281312
Ag3_64 Ag 0.22585(2) 0.08747(2) 0.38685(2)
N4_64 N 0.06765(9) 0.06772(9) 0.37700(10)
C5_64 C 0.17932(12) 0.99304(11) 0.32372(13)
C6_64 C 0.18587(16) 0.97553(16) 0.34544(17)
H4_64 H 0.173388 0.973204 0.360071
C7_64 C 0.21056(19) 0.96162(19) 0.3456(2)
H5_64 H 0.214656 0.949038 0.359725
C8_64 C 0.22897(17) 0.96628(16) 0.3250(2)
H6_64 H 0.246418 0.957891 0.325738
C9_64 C 0.22277(15) 0.98238(16) 0.30396(19)
H7_64 H 0.235443 0.984619 0.289484
C10_64 C 0.19711(13) 0.99632(15) 0.30310(16)
H9_64 H 0.122228 0.992167 0.276434
Ag1_45 Ag 0.52415(2) 0.86315(2) 0.08747(2)
P1_45 P 0.50937(3) 0.82545(3) 0.14612(3)
N1_65 N 0.54534(9) 0.86438(9) 0.13062(9)
N2_65 N 0.56765(9) 0.87300(10) 0.18228(9)
C1_65 C 0.53715(10) 0.84977(11) 0.15234(10)
C2_65 C 0.54870(10) 0.85405(12) 0.17776(11)
H1_65 H 0.542866 0.843030 0.192581
C3_65 C 0.57557(12) 0.88778(13) 0.16069(11)
H2_65 H 0.589017 0.901532 0.162992
C4_65 C 0.56448(11) 0.88334(12) 0.13500(11)
H3_65 H 0.570654 0.894073 0.120111
C5_65 C 0.49304(11) 0.82372(13) 0.17932(12)
C6_65 C 0.47553(16) 0.84544(17) 0.18587(16)
H4_65 H 0.473204 0.860071 0.173388
C7_65 C 0.46162(19) 0.8456(2) 0.21056(19)
H5_65 H 0.449038 0.859725 0.214656
C8_65 C 0.46628(16) 0.8250(2) 0.22897(17)
H6_65 H 0.457891 0.825738 0.246418
C9_65 C 0.48238(16) 0.80396(19) 0.22277(15)
H7_65 H 0.484619 0.789484 0.235443
C10_65 C 0.49632(15) 0.80310(16) 0.19711(13)
H8_65 H 0.507762 0.788108 0.192696
C11_65 C 0.52580(12) 0.79286(11) 0.14077(11)
C12_65 C 0.51031(16) 0.77264(14) 0.12786(18)
H9_65 H 0.492167 0.776434 0.122228
C13_49 C 0.52158(18) 0.74690(15) 0.1233(2)
H10_49 H 0.511098 0.732933 0.114885
C14_49 C 0.5481(2) 0.74207(17) 0.1311(2)
H11_49 H 0.555776 0.724468 0.128386
C15_65 C 0.5636(2) 0.76181(19) 0.14254(19)
H12_65 H 0.582086 0.758274 0.146944
C16_65 C 0.55225(16) 0.78758(16) 0.14794(15)
H13_65 H 0.562911 0.801276 0.156539
N3_65 N 0.53638(17) 0.82053(13) 0.07455(14)
C17_65 C 0.5513(3) 0.8032(2) 0.0710(2)
C18_65 C 0.5713(3) 0.7780(3) 0.0662(3)
H14_65 H 0.560605 0.761307 0.063574
H15_65 H 0.583193 0.775789 0.082141
H16_65 H 0.582513 0.781312 0.049989
Ag2_45 Ag 0.47585(2) 0.83747(2) 0.11315(2)
Ag3_65 Ag 0.58747(2) 0.88685(2) 0.22585(2)
P2_45 P 0.49063(3) 0.89612(3) 0.07545(3)
N4_65 N 0.56772(9) 0.87700(10) 0.06765(9)
Ag1_46 Ag 0.22585(2) 0.36315(2) 0.16253(2)
P1_46 P 0.24063(3) 0.32545(3) 0.10388(3)
N1_66 N 0.20466(9) 0.36438(9) 0.11938(9)
N2_66 N 0.18235(9) 0.37300(10) 0.06772(9)
C1_66 C 0.21285(10) 0.34977(11) 0.09766(10)
C2_66 C 0.20130(10) 0.35405(12) 0.07224(11)
H1_66 H 0.207134 0.343030 0.057419
C3_66 C 0.17443(12) 0.38778(13) 0.08931(11)
H2_66 H 0.160983 0.401532 0.087008
C4_66 C 0.18552(11) 0.38334(12) 0.11500(11)
H3_66 H 0.179346 0.394073 0.129889
C5_66 C 0.25696(11) 0.32372(13) 0.07068(12)
C6_66 C 0.27447(16) 0.34544(17) 0.06413(16)
H4_66 H 0.276796 0.360071 0.076612
C7_66 C 0.28838(19) 0.3456(2) 0.03944(19)
H5_66 H 0.300962 0.359725 0.035344
C8_66 C 0.28372(16) 0.3250(2) 0.02103(17)
H6_66 H 0.292109 0.325738 0.003582
C9_66 C 0.26762(16) 0.30396(19) 0.02723(15)
H7_66 H 0.265381 0.289484 0.014557
C10_66 C 0.25368(15) 0.30310(16) 0.05289(13)
H8_66 H 0.242238 0.288108 0.057304
C11_66 C 0.22420(12) 0.29286(11) 0.10923(11)
C12_66 C 0.23969(16) 0.27264(14) 0.12214(18)
H9_66 H 0.257833 0.276434 0.127772
C13_50 C 0.22842(18) 0.24690(15) 0.1267(2)
H10_50 H 0.238902 0.232933 0.135115
C14_50 C 0.2019(2) 0.24207(17) 0.1189(2)
H11_50 H 0.194224 0.224468 0.121614
C15_66 C 0.1864(2) 0.26181(19) 0.10746(19)
H12_66 H 0.167914 0.258274 0.103056
C16_66 C 0.19775(16) 0.28758(16) 0.10206(15)
H13_66 H 0.187089 0.301276 0.093461
N3_66 N 0.21362(17) 0.32053(13) 0.17545(14)
C17_66 C 0.1987(3) 0.3032(2) 0.1790(2)
C18_66 C 0.1787(3) 0.2780(3) 0.1838(3)
H14_66 H 0.189395 0.261307 0.186426
H15_66 H 0.166807 0.275789 0.167859
H16_66 H 0.167487 0.281312 0.200011
Ag2_46 Ag 0.27415(2) 0.33747(2) 0.13685(2)
Ag3_66 Ag 0.16253(2) 0.38685(2) 0.02415(2)
P2_46 P 0.25937(3) 0.39612(3) 0.17455(3)
N4_66 N 0.18228(9) 0.37700(10) 0.18235(9)
Ag1_47 Ag 0.72585(2) 0.88685(2) 0.58747(2)
P1_47 P 0.74063(3) 0.92455(3) 0.64612(3)
N1_67 N 0.70466(9) 0.88562(9) 0.63062(9)
N2_67 N 0.68235(9) 0.87700(10) 0.68228(9)
C1_67 C 0.71285(10) 0.90023(11) 0.65234(10)
C2_67 C 0.70130(10) 0.89595(12) 0.67776(11)
H1_67 H 0.707134 0.906970 0.692581
C3_67 C 0.67443(12) 0.86222(13) 0.66069(11)
H2_67 H 0.660983 0.848468 0.662992
C4_67 C 0.68552(11) 0.86666(12) 0.63500(11)
H3_67 H 0.679346 0.855927 0.620111
C5_67 C 0.75696(11) 0.92628(13) 0.67932(12)
C6_67 C 0.77447(16) 0.90456(17) 0.68587(16)
H4_67 H 0.776796 0.889929 0.673388
C7_67 C 0.78838(19) 0.9044(2) 0.71056(19)
H5_67 H 0.800962 0.890275 0.714656
C8_67 C 0.78372(16) 0.9250(2) 0.72897(17)
H6_67 H 0.792109 0.924262 0.746418
C9_67 C 0.76762(16) 0.94604(19) 0.72277(15)
H7_67 H 0.765381 0.960516 0.735443
C10_67 C 0.75368(15) 0.94690(16) 0.69711(13)
H8_67 H 0.742238 0.961892 0.692696
C11_67 C 0.72420(12) 0.95714(11) 0.64077(11)
C12_67 C 0.73969(16) 0.97736(14) 0.62786(18)
H9_67 H 0.757833 0.973566 0.622228
C15_67 C 0.6864(2) 0.98819(19) 0.64254(19)
H12_67 H 0.667914 0.991726 0.646944
C16_67 C 0.69775(16) 0.96242(16) 0.64794(15)
H13_67 H 0.687089 0.948724 0.656539
N3_67 N 0.71362(17) 0.92947(13) 0.57455(14)
C17_67 C 0.6987(3) 0.9468(2) 0.5710(2)
C18_67 C 0.6787(3) 0.9720(3) 0.5662(3)
H14_67 H 0.689395 0.988693 0.563574
H15_67 H 0.666807 0.974211 0.582141
H16_67 H 0.667487 0.968688 0.549989
Ag2_47 Ag 0.77415(2) 0.91253(2) 0.61315(2)
Ag3_67 Ag 0.66253(2) 0.86315(2) 0.72585(2)
P2_47 P 0.75937(3) 0.85388(3) 0.57545(3)
N4_67 N 0.68228(9) 0.87300(10) 0.56765(9)
Ag1_48 Ag 0.02415(2) 0.38685(2) 0.66253(2)
P1_48 P 0.00937(3) 0.42455(3) 0.60388(3)
N1_68 N 0.04534(9) 0.38562(9) 0.61938(9)
N2_68 N 0.06765(9) 0.37700(10) 0.56772(9)
C1_68 C 0.03715(10) 0.40023(11) 0.59766(10)
C2_68 C 0.04870(10) 0.39595(12) 0.57224(11)
H1_68 H 0.042866 0.406970 0.557419
C3_68 C 0.07557(12) 0.36222(13) 0.58931(11)
H2_68 H 0.089017 0.348468 0.587008
C4_68 C 0.06448(11) 0.36666(12) 0.61500(11)
H3_68 H 0.070654 0.355927 0.629889
H8_68 H 0.007762 0.461892 0.557304
C11_68 C 0.02580(12) 0.45714(11) 0.60923(11)
C12_68 C 0.01031(16) 0.47736(14) 0.62214(18)
C13_51 C 0.02158(18) 0.50310(15) 0.6267(2)
H10_51 H 0.011098 0.517067 0.635115
C14_51 C 0.0481(2) 0.50793(17) 0.6189(2)
H11_51 H 0.055776 0.525532 0.621614
C15_68 C 0.0636(2) 0.48819(19) 0.60746(19)
H12_68 H 0.082086 0.491726 0.603056
C16_68 C 0.05225(16) 0.46242(16) 0.60206(15)
H13_68 H 0.062911 0.448724 0.593461
N3_68 N 0.03638(17) 0.42947(13) 0.67545(14)
C17_68 C 0.0513(3) 0.4468(2) 0.6790(2)
C18_68 C 0.0713(3) 0.4720(3) 0.6838(3)
H14_68 H 0.060605 0.488693 0.686426
H15_68 H 0.083193 0.474211 0.667859
H16_68 H 0.082513 0.468688 0.700011
Ag3_68 Ag 0.08747(2) 0.36315(2) 0.52415(2)
N4_68 N 0.06772(9) 0.37300(10) 0.68235(9)
C5_68 C 0.99304(11) 0.42628(13) 0.57068(12)
C6_68 C 0.97553(16) 0.40456(17) 0.56413(16)
H4_68 H 0.973204 0.389929 0.576612
C7_68 C 0.96162(19) 0.4044(2) 0.53944(19)
H5_68 H 0.949038 0.390275 0.535344
C8_68 C 0.96628(16) 0.4250(2) 0.52103(17)
H6_68 H 0.957891 0.424262 0.503582
C9_68 C 0.98238(16) 0.44604(19) 0.52723(15)
H7_68 H 0.984619 0.460516 0.514557
C10_68 C 0.99632(15) 0.44690(16) 0.55289(13)
H9_68 H 0.992167 0.473566 0.627772
Ag2_48 Ag 0.97585(2) 0.41253(2) 0.63685(2)
P2_48 P 0.99063(3) 0.35388(3) 0.67455(3)
N1_69 N 0.86438(9) 0.61938(9) 0.20466(9)
N2_69 N 0.87300(10) 0.56772(9) 0.18235(9)
C1_69 C 0.84977(11) 0.59766(10) 0.21285(10)
C2_69 C 0.85405(12) 0.57224(11) 0.20130(10)
H1_69 H 0.843030 0.557419 0.207134
C3_69 C 0.88778(13) 0.58931(11) 0.17443(12)
H2_69 H 0.901532 0.587008 0.160983
C4_69 C 0.88334(12) 0.61500(11) 0.18552(11)
H3_69 H 0.894073 0.629889 0.179346
C5_69 C 0.82372(13) 0.57068(12) 0.25696(11)
C6_69 C 0.84544(17) 0.56413(16) 0.27447(16)
H4_69 H 0.860071 0.576612 0.276796
C7_69 C 0.8456(2) 0.53944(19) 0.28838(19)
H5_69 H 0.859725 0.535344 0.300962
C8_69 C 0.8250(2) 0.52103(17) 0.28372(16)
H6_69 H 0.825738 0.503582 0.292109
C9_69 C 0.80396(19) 0.52723(15) 0.26762(16)
H7_69 H 0.789484 0.514557 0.265381
C10_69 C 0.80310(16) 0.55289(13) 0.25368(15)
H8_69 H 0.788108 0.557304 0.242238
C11_69 C 0.79286(11) 0.60923(11) 0.22420(12)
C12_69 C 0.77264(14) 0.62214(18) 0.23969(16)
H9_69 H 0.776434 0.627772 0.257833
C13_52 C 0.74690(15) 0.6267(2) 0.22842(18)
H10_52 H 0.732933 0.635115 0.238902
C14_52 C 0.74207(17) 0.6189(2) 0.2019(2)
H11_52 H 0.724468 0.621614 0.194224
C15_69 C 0.76181(19) 0.60746(19) 0.1864(2)
H12_69 H 0.758274 0.603056 0.167914
C16_69 C 0.78758(16) 0.60206(15) 0.19775(16)
H13_69 H 0.801276 0.593461 0.187089
N3_69 N 0.82053(13) 0.67545(14) 0.21362(17)
C17_69 C 0.8032(2) 0.6790(2) 0.1987(3)
C18_69 C 0.7780(3) 0.6838(3) 0.1787(3)
H14_69 H 0.761307 0.686426 0.189395
H15_69 H 0.775789 0.667859 0.166807
H16_69 H 0.781312 0.700011 0.167487
Ag3_69 Ag 0.88685(2) 0.52415(2) 0.16253(2)
N4_69 N 0.87700(10) 0.68235(9) 0.18228(9)
N1_70 N 0.36438(9) 0.63062(9) 0.54534(9)
N2_70 N 0.37300(10) 0.68228(9) 0.56765(9)
C1_70 C 0.34977(11) 0.65234(10) 0.53715(10)
C2_70 C 0.35405(12) 0.67776(11) 0.54870(10)
H1_70 H 0.343030 0.692581 0.542866
C3_70 C 0.38778(13) 0.66069(11) 0.57557(12)
H2_70 H 0.401532 0.662992 0.589017
C4_70 C 0.38334(12) 0.63500(11) 0.56448(11)
H3_70 H 0.394073 0.620111 0.570654
C5_70 C 0.32372(13) 0.67932(12) 0.49304(11)
C6_70 C 0.34544(17) 0.68587(16) 0.47553(16)
H4_70 H 0.360071 0.673388 0.473204
C7_70 C 0.3456(2) 0.71056(19) 0.46162(19)
H5_70 H 0.359725 0.714656 0.449038
C8_70 C 0.3250(2) 0.72897(17) 0.46628(16)
H6_70 H 0.325738 0.746418 0.457891
C9_70 C 0.30396(19) 0.72277(15) 0.48238(16)
H7_70 H 0.289484 0.735443 0.484619
C10_70 C 0.30310(16) 0.69711(13) 0.49632(15)
H8_70 H 0.288108 0.692696 0.507762
C11_70 C 0.29286(11) 0.64077(11) 0.52580(12)
C12_70 C 0.27264(14) 0.62786(18) 0.51031(16)
H9_70 H 0.276434 0.622228 0.492167
C13_53 C 0.24690(15) 0.6233(2) 0.52158(18)
H10_53 H 0.232933 0.614885 0.511098
C14_53 C 0.24207(17) 0.6311(2) 0.5481(2)
H11_53 H 0.224468 0.628386 0.555776
C15_70 C 0.26181(19) 0.64254(19) 0.5636(2)
H12_70 H 0.258274 0.646944 0.582086
C16_70 C 0.28758(16) 0.64794(15) 0.55225(16)
H13_70 H 0.301276 0.656539 0.562911
N3_70 N 0.32053(13) 0.57455(14) 0.53638(17)
C17_70 C 0.3032(2) 0.5710(2) 0.5513(3)
C18_70 C 0.2780(3) 0.5662(3) 0.5713(3)
H14_70 H 0.261307 0.563574 0.560605
H15_70 H 0.275789 0.582141 0.583193
H16_70 H 0.281312 0.549989 0.582513
Ag3_70 Ag 0.38685(2) 0.72585(2) 0.58747(2)
N4_70 N 0.37700(10) 0.56765(9) 0.56772(9)
N1_71 N 0.88562(9) 0.11938(9) 0.04534(9)
N2_71 N 0.87700(10) 0.06772(9) 0.06765(9)
C1_71 C 0.90023(11) 0.09766(10) 0.03715(10)
C2_71 C 0.89595(12) 0.07224(11) 0.04870(10)
H1_71 H 0.906970 0.057419 0.042866
C3_71 C 0.86222(13) 0.08931(11) 0.07557(12)
H2_71 H 0.848468 0.087008 0.089017
C4_71 C 0.86666(12) 0.11500(11) 0.06448(11)
H3_71 H 0.855927 0.129889 0.070654
H8_71 H 0.961892 0.057304 0.007762
C11_71 C 0.95714(11) 0.10923(11) 0.02580(12)
C12_71 C 0.97736(14) 0.12214(18) 0.01031(16)
C15_71 C 0.98819(19) 0.10746(19) 0.0636(2)
H12_71 H 0.991726 0.103056 0.082086
C16_71 C 0.96242(16) 0.10206(15) 0.05225(16)
H13_71 H 0.948724 0.093461 0.062911
N3_71 N 0.92947(13) 0.17545(14) 0.03638(17)
C17_71 C 0.9468(2) 0.1790(2) 0.0513(3)
C18_71 C 0.9720(3) 0.1838(3) 0.0713(3)
H14_71 H 0.988693 0.186426 0.060605
H15_71 H 0.974211 0.167859 0.083193
H16_71 H 0.968688 0.200011 0.082513
Ag3_71 Ag 0.86315(2) 0.02415(2) 0.08747(2)
N4_71 N 0.87300(10) 0.18235(9) 0.06772(9)
C5_71 C 0.92628(13) 0.07068(12) 0.99304(11)
C6_71 C 0.90456(17) 0.06413(16) 0.97553(16)
H4_71 H 0.889929 0.076612 0.973204
C7_71 C 0.9044(2) 0.03944(19) 0.96162(19)
H5_71 H 0.890275 0.035344 0.949038
C8_71 C 0.9250(2) 0.02103(17) 0.96628(16)
H6_71 H 0.924262 0.003582 0.957891
C9_71 C 0.94604(19) 0.02723(15) 0.98238(16)
H7_71 H 0.960516 0.014557 0.984619
C10_71 C 0.94690(16) 0.05289(13) 0.99632(15)
H9_71 H 0.973566 0.127772 0.992167
N1_72 N 0.38562(9) 0.13062(9) 0.70466(9)
N2_72 N 0.37700(10) 0.18228(9) 0.68235(9)
C1_72 C 0.40023(11) 0.15234(10) 0.71285(10)
C2_72 C 0.39595(12) 0.17776(11) 0.70130(10)
H1_72 H 0.406970 0.192581 0.707134
C3_72 C 0.36222(13) 0.16069(11) 0.67443(12)
H2_72 H 0.348468 0.162992 0.660983
C4_72 C 0.36666(12) 0.13500(11) 0.68552(11)
H3_72 H 0.355927 0.120111 0.679346
C5_72 C 0.42628(13) 0.17932(12) 0.75696(11)
C6_72 C 0.40456(17) 0.18587(16) 0.77447(16)
H4_72 H 0.389929 0.173388 0.776796
C7_72 C 0.4044(2) 0.21056(19) 0.78838(19)
H5_72 H 0.390275 0.214656 0.800962
C8_72 C 0.4250(2) 0.22897(17) 0.78372(16)
H6_72 H 0.424262 0.246418 0.792109
C9_72 C 0.44604(19) 0.22277(15) 0.76762(16)
H7_72 H 0.460516 0.235443 0.765381
C10_72 C 0.44690(16) 0.19711(13) 0.75368(15)
H8_72 H 0.461892 0.192696 0.742238
C11_72 C 0.45714(11) 0.14077(11) 0.72420(12)
C12_72 C 0.47736(14) 0.12786(18) 0.73969(16)
H9_72 H 0.473566 0.122228 0.757833
C13_54 C 0.50310(15) 0.1233(2) 0.72842(18)
H10_54 H 0.517067 0.114885 0.738902
C14_54 C 0.50793(17) 0.1311(2) 0.7019(2)
H11_54 H 0.525532 0.128386 0.694224
C15_72 C 0.48819(19) 0.14254(19) 0.6864(2)
H12_72 H 0.491726 0.146944 0.667914
C16_72 C 0.46242(16) 0.14794(15) 0.69775(16)
H13_72 H 0.448724 0.156539 0.687089
N3_72 N 0.42947(13) 0.07455(14) 0.71362(17)
C17_72 C 0.4468(2) 0.0710(2) 0.6987(3)
C18_72 C 0.4720(3) 0.0662(3) 0.6787(3)
H14_72 H 0.488693 0.063574 0.689395
H15_72 H 0.474211 0.082141 0.666807
H16_72 H 0.468688 0.049989 0.667487
Ag3_72 Ag 0.36315(2) 0.22585(2) 0.66253(2)
N4_72 N 0.37300(10) 0.06765(9) 0.68228(9)
N1_73 N 0.79534(9) 0.86938(9) 0.61438(9)
N2_73 N 0.81765(9) 0.81772(9) 0.62300(10)
C1_73 C 0.78715(10) 0.84766(10) 0.59977(11)
C2_73 C 0.79870(10) 0.82224(11) 0.60405(12)
H1_73 H 0.792866 0.807419 0.593030
C3_73 C 0.82557(12) 0.83931(11) 0.63778(13)
H2_73 H 0.839017 0.837008 0.651532
C4_73 C 0.81448(11) 0.86500(11) 0.63334(12)
H3_73 H 0.820654 0.879889 0.644073
C5_73 C 0.74304(11) 0.82068(12) 0.57372(13)
C6_73 C 0.72553(16) 0.81413(16) 0.59544(17)
H4_73 H 0.723204 0.826612 0.610071
C7_73 C 0.71162(19) 0.78944(19) 0.5956(2)
H5_73 H 0.699038 0.785344 0.609725
C8_73 C 0.71628(16) 0.77103(17) 0.5750(2)
H6_73 H 0.707891 0.753582 0.575738
C9_73 C 0.73238(16) 0.77723(15) 0.55396(19)
H7_73 H 0.734619 0.764557 0.539484
C10_73 C 0.74632(15) 0.80289(13) 0.55310(16)
H8_73 H 0.757762 0.807304 0.538108
C11_73 C 0.77580(12) 0.85923(11) 0.54286(11)
C12_73 C 0.76031(16) 0.87214(18) 0.52264(14)
H9_73 H 0.742167 0.877772 0.526434
C13_55 C 0.77158(18) 0.8767(2) 0.49690(15)
H10_55 H 0.761098 0.885115 0.482933
C14_55 C 0.7981(2) 0.8689(2) 0.49207(17)
H11_55 H 0.805776 0.871614 0.474468
C15_73 C 0.8136(2) 0.85746(19) 0.51181(19)
H12_73 H 0.832086 0.853056 0.508274
C16_73 C 0.80225(16) 0.85206(15) 0.53758(16)
H13_73 H 0.812911 0.843461 0.551276
N3_73 N 0.78638(17) 0.92545(14) 0.57053(13)
C17_73 C 0.8013(3) 0.9290(2) 0.5532(2)
C18_73 C 0.8213(3) 0.9338(3) 0.5280(3)
H14_73 H 0.810605 0.936426 0.511307
H15_73 H 0.833193 0.917859 0.525789
H16_73 H 0.832513 0.950011 0.531312
Ag3_73 Ag 0.83747(2) 0.77415(2) 0.63685(2)
N4_73 N 0.81772(9) 0.93235(9) 0.62700(10)
N1_74 N 0.45466(9) 0.88062(9) 0.11438(9)
N2_74 N 0.43235(9) 0.93228(9) 0.12300(10)
C1_74 C 0.46285(10) 0.90234(10) 0.09977(11)
C2_74 C 0.45130(10) 0.92776(11) 0.10405(12)
H1_74 H 0.457134 0.942581 0.093030
C3_74 C 0.42443(12) 0.91069(11) 0.13778(13)
H2_74 H 0.410983 0.912992 0.151532
C4_74 C 0.43552(11) 0.88500(11) 0.13334(12)
H3_74 H 0.429346 0.870111 0.144073
C5_74 C 0.50696(11) 0.92932(12) 0.07372(13)
C6_74 C 0.52447(16) 0.93587(16) 0.09544(17)
H4_74 H 0.526796 0.923388 0.110071
C7_74 C 0.53838(19) 0.96056(19) 0.0956(2)
H5_74 H 0.550962 0.964656 0.109725
C8_74 C 0.53372(16) 0.97897(17) 0.0750(2)
H6_74 H 0.542109 0.996418 0.075738
C9_74 C 0.51762(16) 0.97277(15) 0.05396(19)
H7_74 H 0.515381 0.985443 0.039484
C10_74 C 0.50368(15) 0.94711(13) 0.05310(16)
H8_74 H 0.492238 0.942696 0.038108
C11_74 C 0.47420(12) 0.89077(11) 0.04286(11)
C12_74 C 0.48969(16) 0.87786(18) 0.02264(14)
H9_74 H 0.507833 0.872228 0.026434
C15_74 C 0.4364(2) 0.89254(19) 0.01181(19)
H12_74 H 0.417914 0.896944 0.008274
C16_74 C 0.44775(16) 0.89794(15) 0.03758(16)
H13_74 H 0.437089 0.906539 0.051276
N3_74 N 0.46362(17) 0.82455(14) 0.07053(13)
C17_74 C 0.4487(3) 0.8210(2) 0.0532(2)
C18_74 C 0.4287(3) 0.8162(3) 0.0280(3)
H14_74 H 0.439395 0.813574 0.011307
H15_74 H 0.416807 0.832141 0.025789
H16_74 H 0.417487 0.799989 0.031312
Ag3_74 Ag 0.41253(2) 0.97585(2) 0.13685(2)
N4_74 N 0.43228(9) 0.81765(9) 0.12700(10)
C5_75 C 0.00696(11) 0.32068(12) 0.67628(13)
C6_75 C 0.02447(16) 0.31413(16) 0.65456(17)
H4_75 H 0.026796 0.326612 0.639929
C7_75 C 0.03838(19) 0.28944(19) 0.6544(2)
H5_75 H 0.050962 0.285344 0.640275
C8_75 C 0.03372(16) 0.27103(17) 0.6750(2)
H6_75 H 0.042109 0.253582 0.674262
C9_75 C 0.01762(16) 0.27723(15) 0.69604(19)
H7_75 H 0.015381 0.264557 0.710516
C10_75 C 0.00368(15) 0.30289(13) 0.69690(16)
H9_75 H 0.007833 0.377772 0.723566
N1_75 N 0.95466(9) 0.36938(9) 0.63562(9)
N2_75 N 0.93235(9) 0.31772(9) 0.62700(10)
C1_75 C 0.96285(10) 0.34766(10) 0.65023(11)
C2_75 C 0.95130(10) 0.32224(11) 0.64595(12)
H1_75 H 0.957134 0.307419 0.656970
C3_75 C 0.92443(12) 0.33931(11) 0.61222(13)
H2_75 H 0.910983 0.337008 0.598468
C4_75 C 0.93552(11) 0.36500(11) 0.61666(12)
H3_75 H 0.929346 0.379889 0.605927
H8_75 H 0.992238 0.307304 0.711892
C11_75 C 0.97420(12) 0.35923(11) 0.70714(11)
C12_75 C 0.98969(16) 0.37214(18) 0.72736(14)
C13_56 C 0.97842(18) 0.3767(2) 0.75310(15)
H10_56 H 0.988902 0.385115 0.767067
C14_56 C 0.9519(2) 0.3689(2) 0.75793(17)
H11_56 H 0.944224 0.371614 0.775532
C15_75 C 0.9364(2) 0.35746(19) 0.73819(19)
H12_75 H 0.917914 0.353056 0.741726
C16_75 C 0.94775(16) 0.35206(15) 0.71242(16)
H13_75 H 0.937089 0.343461 0.698724
N3_75 N 0.96362(17) 0.42545(14) 0.67947(13)
C17_75 C 0.9487(3) 0.4290(2) 0.6968(2)
C18_75 C 0.9287(3) 0.4338(3) 0.7220(3)
H14_75 H 0.939395 0.436426 0.738693
H15_75 H 0.916807 0.417859 0.724211
H16_75 H 0.917487 0.450011 0.718688
Ag3_75 Ag 0.91253(2) 0.27415(2) 0.61315(2)
N4_75 N 0.93228(9) 0.43235(9) 0.62300(10)
N1_76 N 0.29534(9) 0.38062(9) 0.13562(9)
N2_76 N 0.31765(9) 0.43228(9) 0.12700(10)
C1_76 C 0.28715(10) 0.40234(10) 0.15023(11)
C2_76 C 0.29870(10) 0.42776(11) 0.14595(12)
H1_76 H 0.292866 0.442581 0.156970
C3_76 C 0.32557(12) 0.41069(11) 0.11222(13)
H2_76 H 0.339017 0.412992 0.098468
C4_76 C 0.31448(11) 0.38500(11) 0.11666(12)
H3_76 H 0.320654 0.370111 0.105927
C5_76 C 0.24304(11) 0.42932(12) 0.17628(13)
C6_76 C 0.22553(16) 0.43587(16) 0.15456(17)
H4_76 H 0.223204 0.423388 0.139929
C7_76 C 0.21162(19) 0.46056(19) 0.1544(2)
H5_76 H 0.199038 0.464656 0.140275
C8_76 C 0.21628(16) 0.47897(17) 0.1750(2)
H6_76 H 0.207891 0.496418 0.174262
C9_76 C 0.23238(16) 0.47277(15) 0.19604(19)
H7_76 H 0.234619 0.485443 0.210516
C10_76 C 0.24632(15) 0.44711(13) 0.19690(16)
H8_76 H 0.257762 0.442696 0.211892
C11_76 C 0.27580(12) 0.39077(11) 0.20714(11)
C12_76 C 0.26031(16) 0.37786(18) 0.22736(14)
H9_76 H 0.242167 0.372228 0.223566
C13_57 C 0.27158(18) 0.3733(2) 0.25310(15)
H10_57 H 0.261098 0.364885 0.267067
C14_57 C 0.2981(2) 0.3811(2) 0.25793(17)
H11_57 H 0.305776 0.378386 0.275532
C15_76 C 0.3136(2) 0.39254(19) 0.23819(19)
H12_76 H 0.332086 0.396944 0.241726
C16_76 C 0.30225(16) 0.39794(15) 0.21242(16)
H13_76 H 0.312911 0.406539 0.198724
N3_76 N 0.28638(17) 0.32455(14) 0.17947(13)
C17_76 C 0.3013(3) 0.3210(2) 0.1968(2)
C18_76 C 0.3213(3) 0.3162(3) 0.2220(3)
H14_76 H 0.310605 0.313574 0.238693
H15_76 H 0.333193 0.332141 0.224211
H16_76 H 0.332513 0.299989 0.218688
Ag3_76 Ag 0.33747(2) 0.47585(2) 0.11315(2)
N4_76 N 0.31772(9) 0.31765(9) 0.12300(10)
N1_77 N 0.11438(9) 0.79534(9) 0.36938(9)
N2_77 N 0.12300(10) 0.81765(9) 0.31772(9)
C1_77 C 0.09977(11) 0.78715(10) 0.34766(10)
C2_77 C 0.10405(12) 0.79870(10) 0.32224(11)
H1_77 H 0.093030 0.792866 0.307419
C3_77 C 0.13778(13) 0.82557(12) 0.33931(11)
H2_77 H 0.151532 0.839017 0.337008
C4_77 C 0.13334(12) 0.81448(11) 0.36500(11)
H3_77 H 0.144073 0.820654 0.379889
C5_77 C 0.07372(13) 0.74304(11) 0.32068(12)
C6_77 C 0.09544(17) 0.72553(16) 0.31413(16)
H4_77 H 0.110071 0.723204 0.326612
C7_77 C 0.0956(2) 0.71162(19) 0.28944(19)
H5_77 H 0.109725 0.699038 0.285344
C8_77 C 0.0750(2) 0.71628(16) 0.27103(17)
H6_77 H 0.075738 0.707891 0.253582
C9_77 C 0.05396(19) 0.73238(16) 0.27723(15)
H7_77 H 0.039484 0.734619 0.264557
C10_77 C 0.05310(16) 0.74632(15) 0.30289(13)
H8_77 H 0.038108 0.757762 0.307304
C11_77 C 0.04286(11) 0.77580(12) 0.35923(11)
C12_77 C 0.02264(14) 0.76031(16) 0.37214(18)
H9_77 H 0.026434 0.742167 0.377772
C15_77 C 0.01181(19) 0.8136(2) 0.35746(19)
H12_77 H 0.008274 0.832086 0.353056
C16_77 C 0.03758(16) 0.80225(16) 0.35206(15)
H13_77 H 0.051276 0.812911 0.343461
N3_77 N 0.07053(13) 0.78638(17) 0.42545(14)
C17_77 C 0.0532(2) 0.8013(3) 0.4290(2)
C18_77 C 0.0280(3) 0.8213(3) 0.4338(3)
H14_77 H 0.011307 0.810605 0.436426
H15_77 H 0.025789 0.833193 0.417859
H16_77 H 0.031312 0.832513 0.450011
Ag3_77 Ag 0.13685(2) 0.83747(2) 0.27415(2)
N4_77 N 0.12700(10) 0.81772(9) 0.43235(9)
N1_78 N 0.61438(9) 0.45466(9) 0.38062(9)
N2_78 N 0.62300(10) 0.43235(9) 0.43228(9)
C1_78 C 0.59977(11) 0.46285(10) 0.40234(10)
C2_78 C 0.60405(12) 0.45130(10) 0.42776(11)
H1_78 H 0.593030 0.457134 0.442581
C3_78 C 0.63778(13) 0.42443(12) 0.41069(11)
H2_78 H 0.651532 0.410983 0.412992
C4_78 C 0.63334(12) 0.43552(11) 0.38500(11)
H3_78 H 0.644073 0.429346 0.370111
C5_78 C 0.57372(13) 0.50696(11) 0.42932(12)
C6_78 C 0.59544(17) 0.52447(16) 0.43587(16)
H4_78 H 0.610071 0.526796 0.423388
C7_78 C 0.5956(2) 0.53838(19) 0.46056(19)
H5_78 H 0.609725 0.550962 0.464656
C8_78 C 0.5750(2) 0.53372(16) 0.47897(17)
H6_78 H 0.575738 0.542109 0.496418
C9_78 C 0.55396(19) 0.51762(16) 0.47277(15)
H7_78 H 0.539484 0.515381 0.485443
C10_78 C 0.55310(16) 0.50368(15) 0.44711(13)
H8_78 H 0.538108 0.492238 0.442696
C11_78 C 0.54286(11) 0.47420(12) 0.39077(11)
C12_78 C 0.52264(14) 0.48969(16) 0.37786(18)
H9_78 H 0.526434 0.507833 0.372228
C13_58 C 0.49690(15) 0.47842(18) 0.3733(2)
H10_58 H 0.482933 0.488902 0.364885
C14_58 C 0.49207(17) 0.4519(2) 0.3811(2)
H11_58 H 0.474468 0.444224 0.378386
C15_78 C 0.51181(19) 0.4364(2) 0.39254(19)
H12_78 H 0.508274 0.417914 0.396944
C16_78 C 0.53758(16) 0.44775(16) 0.39794(15)
H13_78 H 0.551276 0.437089 0.406539
N3_78 N 0.57053(13) 0.46362(17) 0.32455(14)
C17_78 C 0.5532(2) 0.4487(3) 0.3210(2)
C18_78 C 0.5280(3) 0.4287(3) 0.3162(3)
H14_78 H 0.511307 0.439395 0.313574
H15_78 H 0.525789 0.416807 0.332141
H16_78 H 0.531312 0.417487 0.299989
Ag3_78 Ag 0.63685(2) 0.41253(2) 0.47585(2)
N4_78 N 0.62700(10) 0.43228(9) 0.31765(9)
C5_79 C 0.17628(13) 0.00696(11) 0.82068(12)
C6_79 C 0.15456(17) 0.02447(16) 0.81413(16)
H4_79 H 0.139929 0.026796 0.826612
C7_79 C 0.1544(2) 0.03838(19) 0.78944(19)
H5_79 H 0.140275 0.050962 0.785344
C8_79 C 0.1750(2) 0.03372(16) 0.77103(17)
H6_79 H 0.174262 0.042109 0.753582
C9_79 C 0.19604(19) 0.01762(16) 0.77723(15)
H7_79 H 0.210516 0.015381 0.764557
C10_79 C 0.19690(16) 0.00368(15) 0.80289(13)
H9_79 H 0.223566 0.007833 0.877772
N1_79 N 0.13562(9) 0.95466(9) 0.86938(9)
N2_79 N 0.12700(10) 0.93235(9) 0.81772(9)
C1_79 C 0.15023(11) 0.96285(10) 0.84766(10)
C2_79 C 0.14595(12) 0.95130(10) 0.82224(11)
H1_79 H 0.156970 0.957134 0.807419
C3_79 C 0.11222(13) 0.92443(12) 0.83931(11)
H2_79 H 0.098468 0.910983 0.837008
C4_79 C 0.11666(12) 0.93552(11) 0.86500(11)
H3_79 H 0.105927 0.929346 0.879889
H8_79 H 0.211892 0.992238 0.807304
C11_79 C 0.20714(11) 0.97420(12) 0.85923(11)
C12_79 C 0.22736(14) 0.98969(16) 0.87214(18)
C13_59 C 0.25310(15) 0.97842(18) 0.8767(2)
H10_59 H 0.267067 0.988902 0.885115
C14_59 C 0.25793(17) 0.9519(2) 0.8689(2)
H11_59 H 0.275532 0.944224 0.871614
C15_79 C 0.23819(19) 0.9364(2) 0.85746(19)
H12_79 H 0.241726 0.917914 0.853056
C16_79 C 0.21242(16) 0.94775(16) 0.85206(15)
H13_79 H 0.198724 0.937089 0.843461
N3_79 N 0.17947(13) 0.96362(17) 0.92545(14)
C17_79 C 0.1968(2) 0.9487(3) 0.9290(2)
C18_79 C 0.2220(3) 0.9287(3) 0.9338(3)
H14_79 H 0.238693 0.939395 0.936426
H15_79 H 0.224211 0.916807 0.917859
H16_79 H 0.218688 0.917487 0.950011
Ag3_79 Ag 0.11315(2) 0.91253(2) 0.77415(2)
N4_79 N 0.12300(10) 0.93228(9) 0.93235(9)
N1_80 N 0.63562(9) 0.29534(9) 0.88062(9)
N2_80 N 0.62700(10) 0.31765(9) 0.93228(9)
C1_80 C 0.65023(11) 0.28715(10) 0.90234(10)
C2_80 C 0.64595(12) 0.29870(10) 0.92776(11)
H1_80 H 0.656970 0.292866 0.942581
C3_80 C 0.61222(13) 0.32557(12) 0.91069(11)
H2_80 H 0.598468 0.339017 0.912992
C4_80 C 0.61666(12) 0.31448(11) 0.88500(11)
H3_80 H 0.605927 0.320654 0.870111
C5_80 C 0.67628(13) 0.24304(11) 0.92932(12)
C6_80 C 0.65456(17) 0.22553(16) 0.93587(16)
H4_80 H 0.639929 0.223204 0.923388
C7_80 C 0.6544(2) 0.21162(19) 0.96056(19)
H5_80 H 0.640275 0.199038 0.964656
C8_80 C 0.6750(2) 0.21628(16) 0.97897(17)
H6_80 H 0.674262 0.207891 0.996418
C9_80 C 0.69604(19) 0.23238(16) 0.97277(15)
H7_80 H 0.710516 0.234619 0.985443
C10_80 C 0.69690(16) 0.24632(15) 0.94711(13)
H8_80 H 0.711892 0.257762 0.942696
C11_80 C 0.70714(11) 0.27580(12) 0.89077(11)
C12_80 C 0.72736(14) 0.26031(16) 0.87786(18)
H9_80 H 0.723566 0.242167 0.872228
C13_60 C 0.75310(15) 0.27158(18) 0.8733(2)
H10_60 H 0.767067 0.261098 0.864885
C14_60 C 0.75793(17) 0.2981(2) 0.8811(2)
H11_60 H 0.775532 0.305776 0.878386
C15_80 C 0.73819(19) 0.3136(2) 0.89254(19)
H12_80 H 0.741726 0.332086 0.896944
C16_80 C 0.71242(16) 0.30225(16) 0.89794(15)
H13_80 H 0.698724 0.312911 0.906539
N3_80 N 0.67947(13) 0.28638(17) 0.82455(14)
C17_80 C 0.6968(2) 0.3013(3) 0.8210(2)
C18_80 C 0.7220(3) 0.3213(3) 0.8162(3)
H14_80 H 0.738693 0.310605 0.813574
H15_80 H 0.724211 0.333193 0.832141
H16_80 H 0.718688 0.332513 0.799989
Ag3_80 Ag 0.61315(2) 0.33747(2) 0.97585(2)
N4_80 N 0.62300(10) 0.31772(9) 0.81765(9)
N1_81 N 0.86938(9) 0.11438(9) 0.29534(9)
N2_81 N 0.81772(9) 0.12300(10) 0.31765(9)
C1_81 C 0.84766(10) 0.09977(11) 0.28715(10)
C2_81 C 0.82224(11) 0.10405(12) 0.29870(10)
H1_81 H 0.807419 0.093030 0.292866
C3_81 C 0.83931(11) 0.13778(13) 0.32557(12)
H2_81 H 0.837008 0.151532 0.339017
C4_81 C 0.86500(11) 0.13334(12) 0.31448(11)
H3_81 H 0.879889 0.144073 0.320654
C5_81 C 0.82068(12) 0.07372(13) 0.24304(11)
C6_81 C 0.81413(16) 0.09544(17) 0.22553(16)
H4_81 H 0.826612 0.110071 0.223204
C7_81 C 0.78944(19) 0.0956(2) 0.21162(19)
H5_81 H 0.785344 0.109725 0.199038
C8_81 C 0.77103(17) 0.0750(2) 0.21628(16)
H6_81 H 0.753582 0.075738 0.207891
C9_81 C 0.77723(15) 0.05396(19) 0.23238(16)
H7_81 H 0.764557 0.039484 0.234619
C10_81 C 0.80289(13) 0.05310(16) 0.24632(15)
H8_81 H 0.807304 0.038108 0.257762
C11_81 C 0.85923(11) 0.04286(11) 0.27580(12)
C12_81 C 0.87214(18) 0.02264(14) 0.26031(16)
H9_81 H 0.877772 0.026434 0.242167
C15_81 C 0.85746(19) 0.01181(19) 0.3136(2)
H12_81 H 0.853056 0.008274 0.332086
C16_81 C 0.85206(15) 0.03758(16) 0.30225(16)
H13_81 H 0.843461 0.051276 0.312911
N3_81 N 0.92545(14) 0.07053(13) 0.28638(17)
C17_81 C 0.9290(2) 0.0532(2) 0.3013(3)
C18_81 C 0.9338(3) 0.0280(3) 0.3213(3)
H14_81 H 0.936426 0.011307 0.310605
H15_81 H 0.917859 0.025789 0.333193
H16_81 H 0.950011 0.031312 0.332513
Ag3_81 Ag 0.77415(2) 0.13685(2) 0.33747(2)
N4_81 N 0.93235(9) 0.12700(10) 0.31772(9)
C5_82 C 0.92932(12) 0.57372(13) 0.00696(11)
C6_82 C 0.93587(16) 0.59544(17) 0.02447(16)
H4_82 H 0.923388 0.610071 0.026796
C7_82 C 0.96056(19) 0.5956(2) 0.03838(19)
H5_82 H 0.964656 0.609725 0.050962
C8_82 C 0.97897(17) 0.5750(2) 0.03372(16)
H6_82 H 0.996418 0.575738 0.042109
C9_82 C 0.97277(15) 0.55396(19) 0.01762(16)
H7_82 H 0.985443 0.539484 0.015381
C10_82 C 0.94711(13) 0.55310(16) 0.00368(15)
H9_82 H 0.872228 0.526434 0.007833
N1_82 N 0.88062(9) 0.61438(9) 0.95466(9)
N2_82 N 0.93228(9) 0.62300(10) 0.93235(9)
C1_82 C 0.90234(10) 0.59977(11) 0.96285(10)
C2_82 C 0.92776(11) 0.60405(12) 0.95130(10)
H1_82 H 0.942581 0.593030 0.957134
C3_82 C 0.91069(11) 0.63778(13) 0.92443(12)
H2_82 H 0.912992 0.651532 0.910983
C4_82 C 0.88500(11) 0.63334(12) 0.93552(11)
H3_82 H 0.870111 0.644073 0.929346
H8_82 H 0.942696 0.538108 0.992238
C11_82 C 0.89077(11) 0.54286(11) 0.97420(12)
C12_82 C 0.87786(18) 0.52264(14) 0.98969(16)
C13_61 C 0.8733(2) 0.49690(15) 0.97842(18)
H10_61 H 0.864885 0.482933 0.988902
C14_61 C 0.8811(2) 0.49207(17) 0.9519(2)
H11_61 H 0.878386 0.474468 0.944224
C15_82 C 0.89254(19) 0.51181(19) 0.9364(2)
H12_82 H 0.896944 0.508274 0.917914
C16_82 C 0.89794(15) 0.53758(16) 0.94775(16)
H13_82 H 0.906539 0.551276 0.937089
N3_82 N 0.82455(14) 0.57053(13) 0.96362(17)
C17_82 C 0.8210(2) 0.5532(2) 0.9487(3)
C18_82 C 0.8162(3) 0.5280(3) 0.9287(3)
H14_82 H 0.813574 0.511307 0.939395
H15_82 H 0.832141 0.525789 0.916807
H16_82 H 0.799989 0.531312 0.917487
Ag3_82 Ag 0.97585(2) 0.63685(2) 0.91253(2)
N4_82 N 0.81765(9) 0.62700(10) 0.93228(9)
N1_83 N 0.36938(9) 0.13562(9) 0.45466(9)
N2_83 N 0.31772(9) 0.12700(10) 0.43235(9)
C1_83 C 0.34766(10) 0.15023(11) 0.46285(10)
C2_83 C 0.32224(11) 0.14595(12) 0.45130(10)
H1_83 H 0.307419 0.156970 0.457134
C3_83 C 0.33931(11) 0.11222(13) 0.42443(12)
H2_83 H 0.337008 0.098468 0.410983
C4_83 C 0.36500(11) 0.11666(12) 0.43552(11)
H3_83 H 0.379889 0.105927 0.429346
C5_83 C 0.32068(12) 0.17628(13) 0.50696(11)
C6_83 C 0.31413(16) 0.15456(17) 0.52447(16)
H4_83 H 0.326612 0.139929 0.526796
C7_83 C 0.28944(19) 0.1544(2) 0.53838(19)
H5_83 H 0.285344 0.140275 0.550962
C8_83 C 0.27103(17) 0.1750(2) 0.53372(16)
H6_83 H 0.253582 0.174262 0.542109
C9_83 C 0.27723(15) 0.19604(19) 0.51762(16)
H7_83 H 0.264557 0.210516 0.515381
C10_83 C 0.30289(13) 0.19690(16) 0.50368(15)
H8_83 H 0.307304 0.211892 0.492238
C11_83 C 0.35923(11) 0.20714(11) 0.47420(12)
C12_83 C 0.37214(18) 0.22736(14) 0.48969(16)
H9_83 H 0.377772 0.223566 0.507833
C13_62 C 0.3767(2) 0.25310(15) 0.47842(18)
H10_62 H 0.385115 0.267067 0.488902
C14_62 C 0.3689(2) 0.25793(17) 0.4519(2)
H11_62 H 0.371614 0.275532 0.444224
C15_83 C 0.35746(19) 0.23819(19) 0.4364(2)
H12_83 H 0.353056 0.241726 0.417914
C16_83 C 0.35206(15) 0.21242(16) 0.44775(16)
H13_83 H 0.343461 0.198724 0.437089
N3_83 N 0.42545(14) 0.17947(13) 0.46362(17)
C17_83 C 0.4290(2) 0.1968(2) 0.4487(3)
C18_83 C 0.4338(3) 0.2220(3) 0.4287(3)
H14_83 H 0.436426 0.238693 0.439395
H15_83 H 0.417859 0.224211 0.416807
H16_83 H 0.450011 0.218688 0.417487
Ag3_83 Ag 0.27415(2) 0.11315(2) 0.41253(2)
N4_83 N 0.43235(9) 0.12300(10) 0.43228(9)
N1_84 N 0.38062(9) 0.63562(9) 0.79534(9)
N2_84 N 0.43228(9) 0.62700(10) 0.81765(9)
C1_84 C 0.40234(10) 0.65023(11) 0.78715(10)
C2_84 C 0.42776(11) 0.64595(12) 0.79870(10)
H1_84 H 0.442581 0.656970 0.792866
C3_84 C 0.41069(11) 0.61222(13) 0.82557(12)
H2_84 H 0.412992 0.598468 0.839017
C4_84 C 0.38500(11) 0.61666(12) 0.81448(11)
H3_84 H 0.370111 0.605927 0.820654
C5_84 C 0.42932(12) 0.67628(13) 0.74304(11)
C6_84 C 0.43587(16) 0.65456(17) 0.72553(16)
H4_84 H 0.423388 0.639929 0.723204
C7_84 C 0.46056(19) 0.6544(2) 0.71162(19)
H5_84 H 0.464656 0.640275 0.699038
C8_84 C 0.47897(17) 0.6750(2) 0.71628(16)
H6_84 H 0.496418 0.674262 0.707891
C9_84 C 0.47277(15) 0.69604(19) 0.73238(16)
H7_84 H 0.485443 0.710516 0.734619
C10_84 C 0.44711(13) 0.69690(16) 0.74632(15)
H8_84 H 0.442696 0.711892 0.757762
C11_84 C 0.39077(11) 0.70714(11) 0.77580(12)
C12_84 C 0.37786(18) 0.72736(14) 0.76031(16)
H9_84 H 0.372228 0.723566 0.742167
C13_63 C 0.3733(2) 0.75310(15) 0.77158(18)
H10_63 H 0.364885 0.767067 0.761098
C14_63 C 0.3811(2) 0.75793(17) 0.7981(2)
H11_63 H 0.378386 0.775532 0.805776
C15_84 C 0.39254(19) 0.73819(19) 0.8136(2)
H12_84 H 0.396944 0.741726 0.832086
C16_84 C 0.39794(15) 0.71242(16) 0.80225(16)
H13_84 H 0.406539 0.698724 0.812911
N3_84 N 0.32455(14) 0.67947(13) 0.78638(17)
C17_84 C 0.3210(2) 0.6968(2) 0.8013(3)
C18_84 C 0.3162(3) 0.7220(3) 0.8213(3)
H14_84 H 0.313574 0.738693 0.810605
H15_84 H 0.332141 0.724211 0.833193
H16_84 H 0.299989 0.718688 0.832513
Ag3_84 Ag 0.47585(2) 0.61315(2) 0.83747(2)
N4_84 N 0.31765(9) 0.62300(10) 0.81772(9)
N1_85 N 0.61938(9) 0.04534(9) 0.38562(9)
N2_85 N 0.56772(9) 0.06765(9) 0.37700(10)
C1_85 C 0.59766(10) 0.03715(10) 0.40023(11)
C2_85 C 0.57224(11) 0.04870(10) 0.39595(12)
H1_85 H 0.557419 0.042866 0.406970
C3_85 C 0.58931(11) 0.07557(12) 0.36222(13)
H2_85 H 0.587008 0.089017 0.348468
C4_85 C 0.61500(11) 0.06448(11) 0.36666(12)
H3_85 H 0.629889 0.070654 0.355927
H8_85 H 0.557304 0.007762 0.461892
C11_85 C 0.60923(11) 0.02580(12) 0.45714(11)
C12_85 C 0.62214(18) 0.01031(16) 0.47736(14)
C13_64 C 0.6267(2) 0.02158(18) 0.50310(15)
H10_64 H 0.635115 0.011098 0.517067
C14_64 C 0.6189(2) 0.0481(2) 0.50793(17)
H11_64 H 0.621614 0.055776 0.525532
C15_85 C 0.60746(19) 0.0636(2) 0.48819(19)
H12_85 H 0.603056 0.082086 0.491726
C16_85 C 0.60206(15) 0.05225(16) 0.46242(16)
H13_85 H 0.593461 0.062911 0.448724
N3_85 N 0.67545(14) 0.03638(17) 0.42947(13)
C17_85 C 0.6790(2) 0.0513(3) 0.4468(2)
C18_85 C 0.6838(3) 0.0713(3) 0.4720(3)
H14_85 H 0.686426 0.060605 0.488693
H15_85 H 0.667859 0.083193 0.474211
H16_85 H 0.700011 0.082513 0.468688
Ag3_85 Ag 0.52415(2) 0.08747(2) 0.36315(2)
N4_85 N 0.68235(9) 0.06772(9) 0.37300(10)
C5_85 C 0.57068(12) 0.99304(11) 0.42628(13)
C6_85 C 0.56413(16) 0.97553(16) 0.40456(17)
H4_85 H 0.576612 0.973204 0.389929
C7_85 C 0.53944(19) 0.96162(19) 0.4044(2)
H5_85 H 0.535344 0.949038 0.390275
C8_85 C 0.52103(17) 0.96628(16) 0.4250(2)
H6_85 H 0.503582 0.957891 0.424262
C9_85 C 0.52723(15) 0.98238(16) 0.44604(19)
H7_85 H 0.514557 0.984619 0.460516
C10_85 C 0.55289(13) 0.99632(15) 0.44690(16)
H9_85 H 0.627772 0.992167 0.473566
N1_86 N 0.63062(9) 0.70466(9) 0.88562(9)
N2_86 N 0.68228(9) 0.68235(9) 0.87700(10)
C1_86 C 0.65234(10) 0.71285(10) 0.90023(11)
C2_86 C 0.67776(11) 0.70130(10) 0.89595(12)
H1_86 H 0.692581 0.707134 0.906970
C3_86 C 0.66069(11) 0.67443(12) 0.86222(13)
H2_86 H 0.662992 0.660983 0.848468
C4_86 C 0.63500(11) 0.68552(11) 0.86666(12)
H3_86 H 0.620111 0.679346 0.855927
C5_86 C 0.67932(12) 0.75696(11) 0.92628(13)
C6_86 C 0.68587(16) 0.77447(16) 0.90456(17)
H4_86 H 0.673388 0.776796 0.889929
C7_86 C 0.71056(19) 0.78838(19) 0.9044(2)
H5_86 H 0.714656 0.800962 0.890275
C8_86 C 0.72897(17) 0.78372(16) 0.9250(2)
H6_86 H 0.746418 0.792109 0.924262
C9_86 C 0.72277(15) 0.76762(16) 0.94604(19)
H7_86 H 0.735443 0.765381 0.960516
C10_86 C 0.69711(13) 0.75368(15) 0.94690(16)
H8_86 H 0.692696 0.742238 0.961892
C11_86 C 0.64077(11) 0.72420(12) 0.95714(11)
C12_86 C 0.62786(18) 0.73969(16) 0.97736(14)
H9_86 H 0.622228 0.757833 0.973566
C15_86 C 0.64254(19) 0.6864(2) 0.98819(19)
H12_86 H 0.646944 0.667914 0.991726
C16_86 C 0.64794(15) 0.69775(16) 0.96242(16)
H13_86 H 0.656539 0.687089 0.948724
N3_86 N 0.57455(14) 0.71362(17) 0.92947(13)
C17_86 C 0.5710(2) 0.6987(3) 0.9468(2)
C18_86 C 0.5662(3) 0.6787(3) 0.9720(3)
H14_86 H 0.563574 0.689395 0.988693
H15_86 H 0.582141 0.666807 0.974211
H16_86 H 0.549989 0.667487 0.968688
Ag3_86 Ag 0.72585(2) 0.66253(2) 0.86315(2)
N4_86 N 0.56765(9) 0.68228(9) 0.87300(10)
N1_87 N 0.11938(9) 0.20466(9) 0.36438(9)
N2_87 N 0.06772(9) 0.18235(9) 0.37300(10)
C1_87 C 0.09766(10) 0.21285(10) 0.34977(11)
C2_87 C 0.07224(11) 0.20130(10) 0.35405(12)
H1_87 H 0.057419 0.207134 0.343030
C3_87 C 0.08931(11) 0.17443(12) 0.38778(13)
H2_87 H 0.087008 0.160983 0.401532
C4_87 C 0.11500(11) 0.18552(11) 0.38334(12)
H3_87 H 0.129889 0.179346 0.394073
C5_87 C 0.07068(12) 0.25696(11) 0.32372(13)
C6_87 C 0.06413(16) 0.27447(16) 0.34544(17)
H4_87 H 0.076612 0.276796 0.360071
C7_87 C 0.03944(19) 0.28838(19) 0.3456(2)
H5_87 H 0.035344 0.300962 0.359725
C8_87 C 0.02103(17) 0.28372(16) 0.3250(2)
H6_87 H 0.003582 0.292109 0.325738
C9_87 C 0.02723(15) 0.26762(16) 0.30396(19)
H7_87 H 0.014557 0.265381 0.289484
C10_87 C 0.05289(13) 0.25368(15) 0.30310(16)
H8_87 H 0.057304 0.242238 0.288108
C11_87 C 0.10923(11) 0.22420(12) 0.29286(11)
C12_87 C 0.12214(18) 0.23969(16) 0.27264(14)
H9_87 H 0.127772 0.257833 0.276434
C13_65 C 0.1267(2) 0.22842(18) 0.24690(15)
H10_65 H 0.135115 0.238902 0.232933
C14_65 C 0.1189(2) 0.2019(2) 0.24207(17)
H11_65 H 0.121614 0.194224 0.224468
C15_87 C 0.10746(19) 0.1864(2) 0.26181(19)
H12_87 H 0.103056 0.167914 0.258274
C16_87 C 0.10206(15) 0.19775(16) 0.28758(16)
H13_87 H 0.093461 0.187089 0.301276
N3_87 N 0.17545(14) 0.21362(17) 0.32053(13)
C17_87 C 0.1790(2) 0.1987(3) 0.3032(2)
C18_87 C 0.1838(3) 0.1787(3) 0.2780(3)
H14_87 H 0.186426 0.189395 0.261307
H15_87 H 0.167859 0.166807 0.275789
H16_87 H 0.200011 0.167487 0.281312
Ag3_87 Ag 0.02415(2) 0.16253(2) 0.38685(2)
N4_87 N 0.18235(9) 0.18228(9) 0.37700(10)
N1_88 N 0.13062(9) 0.54534(9) 0.86438(9)
N2_88 N 0.18228(9) 0.56765(9) 0.87300(10)
C1_88 C 0.15234(10) 0.53715(10) 0.84977(11)
C2_88 C 0.17776(11) 0.54870(10) 0.85405(12)
H1_88 H 0.192581 0.542866 0.843030
C3_88 C 0.16069(11) 0.57557(12) 0.88778(13)
H2_88 H 0.162992 0.589017 0.901532
C4_88 C 0.13500(11) 0.56448(11) 0.88334(12)
H3_88 H 0.120111 0.570654 0.894073
C5_88 C 0.17932(12) 0.49304(11) 0.82372(13)
C6_88 C 0.18587(16) 0.47553(16) 0.84544(17)
H4_88 H 0.173388 0.473204 0.860071
C7_88 C 0.21056(19) 0.46162(19) 0.8456(2)
H5_88 H 0.214656 0.449038 0.859725
C8_88 C 0.22897(17) 0.46628(16) 0.8250(2)
H6_88 H 0.246418 0.457891 0.825738
C9_88 C 0.22277(15) 0.48238(16) 0.80396(19)
H7_88 H 0.235443 0.484619 0.789484
C10_88 C 0.19711(13) 0.49632(15) 0.80310(16)
H8_88 H 0.192696 0.507762 0.788108
C11_88 C 0.14077(11) 0.52580(12) 0.79286(11)
C12_88 C 0.12786(18) 0.51031(16) 0.77264(14)
H9_88 H 0.122228 0.492167 0.776434
C13_66 C 0.1233(2) 0.52158(18) 0.74690(15)
H10_66 H 0.114885 0.511098 0.732933
C14_66 C 0.1311(2) 0.5481(2) 0.74207(17)
H11_66 H 0.128386 0.555776 0.724468
C15_88 C 0.14254(19) 0.5636(2) 0.76181(19)
H12_88 H 0.146944 0.582086 0.758274
C16_88 C 0.14794(15) 0.55225(16) 0.78758(16)
H13_88 H 0.156539 0.562911 0.801276
N3_88 N 0.07455(14) 0.53638(17) 0.82053(13)
C17_88 C 0.0710(2) 0.5513(3) 0.8032(2)
C18_88 C 0.0662(3) 0.5713(3) 0.7780(3)
H14_88 H 0.063574 0.560605 0.761307
H15_88 H 0.082141 0.583193 0.775789
H16_88 H 0.049989 0.582513 0.781312
Ag3_88 Ag 0.22585(2) 0.58747(2) 0.88685(2)
N4_88 N 0.06765(9) 0.56772(9) 0.87700(10)
N1_89 N 0.54534(9) 0.36438(9) 0.63062(9)
N2_89 N 0.56765(9) 0.37300(10) 0.68228(9)
C1_89 C 0.53715(10) 0.34977(11) 0.65234(10)
C2_89 C 0.54870(10) 0.35405(12) 0.67776(11)
H1_89 H 0.542866 0.343030 0.692581
C3_89 C 0.57557(12) 0.38778(13) 0.66069(11)
H2_89 H 0.589017 0.401532 0.662992
C4_89 C 0.56448(11) 0.38334(12) 0.63500(11)
H3_89 H 0.570654 0.394073 0.620111
C5_89 C 0.49304(11) 0.32372(13) 0.67932(12)
C6_89 C 0.47553(16) 0.34544(17) 0.68587(16)
H4_89 H 0.473204 0.360071 0.673388
C7_89 C 0.46162(19) 0.3456(2) 0.71056(19)
H5_89 H 0.449038 0.359725 0.714656
C8_89 C 0.46628(16) 0.3250(2) 0.72897(17)
H6_89 H 0.457891 0.325738 0.746418
C9_89 C 0.48238(16) 0.30396(19) 0.72277(15)
H7_89 H 0.484619 0.289484 0.735443
C10_89 C 0.49632(15) 0.30310(16) 0.69711(13)
H8_89 H 0.507762 0.288108 0.692696
C11_89 C 0.52580(12) 0.29286(11) 0.64077(11)
C12_89 C 0.51031(16) 0.27264(14) 0.62786(18)
H9_89 H 0.492167 0.276434 0.622228
C13_67 C 0.52158(18) 0.24690(15) 0.6233(2)
H10_67 H 0.511098 0.232933 0.614885
C14_67 C 0.5481(2) 0.24207(17) 0.6311(2)
H11_67 H 0.555776 0.224468 0.628386
C15_89 C 0.5636(2) 0.26181(19) 0.64254(19)
H12_89 H 0.582086 0.258274 0.646944
C16_89 C 0.55225(16) 0.28758(16) 0.64794(15)
H13_89 H 0.562911 0.301276 0.656539
N3_89 N 0.53638(17) 0.32053(13) 0.57455(14)
C17_89 C 0.5513(3) 0.3032(2) 0.5710(2)
C18_89 C 0.5713(3) 0.2780(3) 0.5662(3)
H14_89 H 0.560605 0.261307 0.563574
H15_89 H 0.583193 0.275789 0.582141
H16_89 H 0.582513 0.281312 0.549989
Ag3_89 Ag 0.58747(2) 0.38685(2) 0.72585(2)
N4_89 N 0.56772(9) 0.37700(10) 0.56765(9)
N1_90 N 0.20466(9) 0.86438(9) 0.61938(9)
N2_90 N 0.18235(9) 0.87300(10) 0.56772(9)
C1_90 C 0.21285(10) 0.84977(11) 0.59766(10)
C2_90 C 0.20130(10) 0.85405(12) 0.57224(11)
H1_90 H 0.207134 0.843030 0.557419
C3_90 C 0.17443(12) 0.88778(13) 0.58931(11)
H2_90 H 0.160983 0.901532 0.587008
C4_90 C 0.18552(11) 0.88334(12) 0.61500(11)
H3_90 H 0.179346 0.894073 0.629889
C5_90 C 0.25696(11) 0.82372(13) 0.57068(12)
C6_90 C 0.27447(16) 0.84544(17) 0.56413(16)
H4_90 H 0.276796 0.860071 0.576612
C7_90 C 0.28838(19) 0.8456(2) 0.53944(19)
H5_90 H 0.300962 0.859725 0.535344
C8_90 C 0.28372(16) 0.8250(2) 0.52103(17)
H6_90 H 0.292109 0.825738 0.503582
C9_90 C 0.26762(16) 0.80396(19) 0.52723(15)
H7_90 H 0.265381 0.789484 0.514557
C10_90 C 0.25368(15) 0.80310(16) 0.55289(13)
H8_90 H 0.242238 0.788108 0.557304
C11_90 C 0.22420(12) 0.79286(11) 0.60923(11)
C12_90 C 0.23969(16) 0.77264(14) 0.62214(18)
H9_90 H 0.257833 0.776434 0.627772
C13_68 C 0.22842(18) 0.74690(15) 0.6267(2)
H10_68 H 0.238902 0.732933 0.635115
C14_68 C 0.2019(2) 0.74207(17) 0.6189(2)
H11_68 H 0.194224 0.724468 0.621614
C15_90 C 0.1864(2) 0.76181(19) 0.60746(19)
H12_90 H 0.167914 0.758274 0.603056
C16_90 C 0.19775(16) 0.78758(16) 0.60206(15)
H13_90 H 0.187089 0.801276 0.593461
N3_90 N 0.21362(17) 0.82053(13) 0.67545(14)
C17_90 C 0.1987(3) 0.8032(2) 0.6790(2)
C18_90 C 0.1787(3) 0.7780(3) 0.6838(3)
H14_90 H 0.189395 0.761307 0.686426
H15_90 H 0.166807 0.775789 0.667859
H16_90 H 0.167487 0.781312 0.700011
Ag3_90 Ag 0.16253(2) 0.88685(2) 0.52415(2)
N4_90 N 0.18228(9) 0.87700(10) 0.68235(9)
N1_91 N 0.70466(9) 0.38562(9) 0.13062(9)
N2_91 N 0.68235(9) 0.37700(10) 0.18228(9)
C1_91 C 0.71285(10) 0.40023(11) 0.15234(10)
C2_91 C 0.70130(10) 0.39595(12) 0.17776(11)
H1_91 H 0.707134 0.406970 0.192581
C3_91 C 0.67443(12) 0.36222(13) 0.16069(11)
H2_91 H 0.660983 0.348468 0.162992
C4_91 C 0.68552(11) 0.36666(12) 0.13500(11)
H3_91 H 0.679346 0.355927 0.120111
C5_91 C 0.75696(11) 0.42628(13) 0.17932(12)
C6_91 C 0.77447(16) 0.40456(17) 0.18587(16)
H4_91 H 0.776796 0.389929 0.173388
C7_91 C 0.78838(19) 0.4044(2) 0.21056(19)
H5_91 H 0.800962 0.390275 0.214656
C8_91 C 0.78372(16) 0.4250(2) 0.22897(17)
H6_91 H 0.792109 0.424262 0.246418
C9_91 C 0.76762(16) 0.44604(19) 0.22277(15)
H7_91 H 0.765381 0.460516 0.235443
C10_91 C 0.75368(15) 0.44690(16) 0.19711(13)
H8_91 H 0.742238 0.461892 0.192696
C11_91 C 0.72420(12) 0.45714(11) 0.14077(11)
C12_91 C 0.73969(16) 0.47736(14) 0.12786(18)
H9_91 H 0.757833 0.473566 0.122228
C13_69 C 0.72842(18) 0.50310(15) 0.1233(2)
H10_69 H 0.738902 0.517067 0.114885
C14_69 C 0.7019(2) 0.50793(17) 0.1311(2)
H11_69 H 0.694224 0.525532 0.128386
C15_91 C 0.6864(2) 0.48819(19) 0.14254(19)
H12_91 H 0.667914 0.491726 0.146944
C16_91 C 0.69775(16) 0.46242(16) 0.14794(15)
H13_91 H 0.687089 0.448724 0.156539
N3_91 N 0.71362(17) 0.42947(13) 0.07455(14)
C17_91 C 0.6987(3) 0.4468(2) 0.0710(2)
C18_91 C 0.6787(3) 0.4720(3) 0.0662(3)
H14_91 H 0.689395 0.488693 0.063574
H15_91 H 0.666807 0.474211 0.082141
H16_91 H 0.667487 0.468688 0.049989
Ag3_91 Ag 0.66253(2) 0.36315(2) 0.22585(2)
N4_91 N 0.68228(9) 0.37300(10) 0.06765(9)
N1_92 N 0.04534(9) 0.88562(9) 0.11938(9)
N2_92 N 0.06765(9) 0.87700(10) 0.06772(9)
C1_92 C 0.03715(10) 0.90023(11) 0.09766(10)
C2_92 C 0.04870(10) 0.89595(12) 0.07224(11)
H1_92 H 0.042866 0.906970 0.057419
C3_92 C 0.07557(12) 0.86222(13) 0.08931(11)
H2_92 H 0.089017 0.848468 0.087008
C4_92 C 0.06448(11) 0.86666(12) 0.11500(11)
H3_92 H 0.070654 0.855927 0.129889
H8_92 H 0.007762 0.961892 0.057304
C11_92 C 0.02580(12) 0.95714(11) 0.10923(11)
C12_92 C 0.01031(16) 0.97736(14) 0.12214(18)
C15_92 C 0.0636(2) 0.98819(19) 0.10746(19)
H12_92 H 0.082086 0.991726 0.103056
C16_92 C 0.05225(16) 0.96242(16) 0.10206(15)
H13_92 H 0.062911 0.948724 0.093461
N3_92 N 0.03638(17) 0.92947(13) 0.17545(14)
C17_92 C 0.0513(3) 0.9468(2) 0.1790(2)
C18_92 C 0.0713(3) 0.9720(3) 0.1838(3)
H14_92 H 0.060605 0.988693 0.186426
H15_92 H 0.083193 0.974211 0.167859
H16_92 H 0.082513 0.968688 0.200011
Ag3_92 Ag 0.08747(2) 0.86315(2) 0.02415(2)
N4_92 N 0.06772(9) 0.87300(10) 0.18235(9)
C5_92 C 0.99304(11) 0.92628(13) 0.07068(12)
C6_92 C 0.97553(16) 0.90456(17) 0.06413(16)
H4_92 H 0.973204 0.889929 0.076612
C7_92 C 0.96162(19) 0.9044(2) 0.03944(19)
H5_92 H 0.949038 0.890275 0.035344
C8_92 C 0.96628(16) 0.9250(2) 0.02103(17)
H6_92 H 0.957891 0.924262 0.003582
C9_92 C 0.98238(16) 0.94604(19) 0.02723(15)
H7_92 H 0.984619 0.960516 0.014557
C10_92 C 0.99632(15) 0.94690(16) 0.05289(13)
H9_92 H 0.992167 0.973566 0.127772
N1_93 N 0.86438(9) 0.11938(9) 0.70466(9)
N2_93 N 0.87300(10) 0.06772(9) 0.68235(9)
C1_93 C 0.84977(11) 0.09766(10) 0.71285(10)
C2_93 C 0.85405(12) 0.07224(11) 0.70130(10)
H1_93 H 0.843030 0.057419 0.707134
C3_93 C 0.88778(13) 0.08931(11) 0.67443(12)
H2_93 H 0.901532 0.087008 0.660983
C4_93 C 0.88334(12) 0.11500(11) 0.68552(11)
H3_93 H 0.894073 0.129889 0.679346
C5_93 C 0.82372(13) 0.07068(12) 0.75696(11)
C6_93 C 0.84544(17) 0.06413(16) 0.77447(16)
H4_93 H 0.860071 0.076612 0.776796
C7_93 C 0.8456(2) 0.03944(19) 0.78838(19)
H5_93 H 0.859725 0.035344 0.800962
C8_93 C 0.8250(2) 0.02103(17) 0.78372(16)
H6_93 H 0.825738 0.003582 0.792109
C9_93 C 0.80396(19) 0.02723(15) 0.76762(16)
H7_93 H 0.789484 0.014557 0.765381
C10_93 C 0.80310(16) 0.05289(13) 0.75368(15)
H8_93 H 0.788108 0.057304 0.742238
C11_93 C 0.79286(11) 0.10923(11) 0.72420(12)
C12_93 C 0.77264(14) 0.12214(18) 0.73969(16)
H9_93 H 0.776434 0.127772 0.757833
C13_70 C 0.74690(15) 0.1267(2) 0.72842(18)
H10_70 H 0.732933 0.135115 0.738902
C14_70 C 0.74207(17) 0.1189(2) 0.7019(2)
H11_70 H 0.724468 0.121614 0.694224
C15_93 C 0.76181(19) 0.10746(19) 0.6864(2)
H12_93 H 0.758274 0.103056 0.667914
C16_93 C 0.78758(16) 0.10206(15) 0.69775(16)
H13_93 H 0.801276 0.093461 0.687089
N3_93 N 0.82053(13) 0.17545(14) 0.71362(17)
C17_93 C 0.8032(2) 0.1790(2) 0.6987(3)
C18_93 C 0.7780(3) 0.1838(3) 0.6787(3)
H14_93 H 0.761307 0.186426 0.689395
H15_93 H 0.775789 0.167859 0.666807
H16_93 H 0.781312 0.200011 0.667487
Ag3_93 Ag 0.88685(2) 0.02415(2) 0.66253(2)
N4_93 N 0.87700(10) 0.18235(9) 0.68228(9)
N1_94 N 0.36438(9) 0.13062(9) 0.04534(9)
N2_94 N 0.37300(10) 0.18228(9) 0.06765(9)
C1_94 C 0.34977(11) 0.15234(10) 0.03715(10)
C2_94 C 0.35405(12) 0.17776(11) 0.04870(10)
H1_94 H 0.343030 0.192581 0.042866
C3_94 C 0.38778(13) 0.16069(11) 0.07557(12)
H2_94 H 0.401532 0.162992 0.089017
C4_94 C 0.38334(12) 0.13500(11) 0.06448(11)
H3_94 H 0.394073 0.120111 0.070654
H8_94 H 0.288108 0.192696 0.007762
C11_94 C 0.29286(11) 0.14077(11) 0.02580(12)
C12_94 C 0.27264(14) 0.12786(18) 0.01031(16)
C13_71 C 0.24690(15) 0.1233(2) 0.02158(18)
H10_71 H 0.232933 0.114885 0.011098
C14_71 C 0.24207(17) 0.1311(2) 0.0481(2)
H11_71 H 0.224468 0.128386 0.055776
C15_94 C 0.26181(19) 0.14254(19) 0.0636(2)
H12_94 H 0.258274 0.146944 0.082086
C16_94 C 0.28758(16) 0.14794(15) 0.05225(16)
H13_94 H 0.301276 0.156539 0.062911
N3_94 N 0.32053(13) 0.07455(14) 0.03638(17)
C17_94 C 0.3032(2) 0.0710(2) 0.0513(3)
C18_94 C 0.2780(3) 0.0662(3) 0.0713(3)
H14_94 H 0.261307 0.063574 0.060605
H15_94 H 0.275789 0.082141 0.083193
H16_94 H 0.281312 0.049989 0.082513
Ag3_94 Ag 0.38685(2) 0.22585(2) 0.08747(2)
N4_94 N 0.37700(10) 0.06765(9) 0.06772(9)
C5_94 C 0.32372(13) 0.17932(12) 0.99304(11)
C6_94 C 0.34544(17) 0.18587(16) 0.97553(16)
H4_94 H 0.360071 0.173388 0.973204
C7_94 C 0.3456(2) 0.21056(19) 0.96162(19)
H5_94 H 0.359725 0.214656 0.949038
C8_94 C 0.3250(2) 0.22897(17) 0.96628(16)
H6_94 H 0.325738 0.246418 0.957891
C9_94 C 0.30396(19) 0.22277(15) 0.98238(16)
H7_94 H 0.289484 0.235443 0.984619
C10_94 C 0.30310(16) 0.19711(13) 0.99632(15)
H9_94 H 0.276434 0.122228 0.992167
N1_95 N 0.88562(9) 0.61938(9) 0.54534(9)
N2_95 N 0.87700(10) 0.56772(9) 0.56765(9)
C1_95 C 0.90023(11) 0.59766(10) 0.53715(10)
C2_95 C 0.89595(12) 0.57224(11) 0.54870(10)
H1_95 H 0.906970 0.557419 0.542866
C3_95 C 0.86222(13) 0.58931(11) 0.57557(12)
H2_95 H 0.848468 0.587008 0.589017
C4_95 C 0.86666(12) 0.61500(11) 0.56448(11)
H3_95 H 0.855927 0.629889 0.570654
C5_95 C 0.92628(13) 0.57068(12) 0.49304(11)
C6_95 C 0.90456(17) 0.56413(16) 0.47553(16)
H4_95 H 0.889929 0.576612 0.473204
C7_95 C 0.9044(2) 0.53944(19) 0.46162(19)
H5_95 H 0.890275 0.535344 0.449038
C8_95 C 0.9250(2) 0.52103(17) 0.46628(16)
H6_95 H 0.924262 0.503582 0.457891
C9_95 C 0.94604(19) 0.52723(15) 0.48238(16)
H7_95 H 0.960516 0.514557 0.484619
C10_95 C 0.94690(16) 0.55289(13) 0.49632(15)
H8_95 H 0.961892 0.557304 0.507762
C11_95 C 0.95714(11) 0.60923(11) 0.52580(12)
C12_95 C 0.97736(14) 0.62214(18) 0.51031(16)
H9_95 H 0.973566 0.627772 0.492167
C15_95 C 0.98819(19) 0.60746(19) 0.5636(2)
H12_95 H 0.991726 0.603056 0.582086
C16_95 C 0.96242(16) 0.60206(15) 0.55225(16)
H13_95 H 0.948724 0.593461 0.562911
N3_95 N 0.92947(13) 0.67545(14) 0.53638(17)
C17_95 C 0.9468(2) 0.6790(2) 0.5513(3)
C18_95 C 0.9720(3) 0.6838(3) 0.5713(3)
H14_95 H 0.988693 0.686426 0.560605
H15_95 H 0.974211 0.667859 0.583193
H16_95 H 0.968688 0.700011 0.582513
Ag3_95 Ag 0.86315(2) 0.52415(2) 0.58747(2)
N4_95 N 0.87300(10) 0.68235(9) 0.56772(9)
N1_96 N 0.38562(9) 0.63062(9) 0.20466(9)
N2_96 N 0.37700(10) 0.68228(9) 0.18235(9)
C1_96 C 0.40023(11) 0.65234(10) 0.21285(10)
C2_96 C 0.39595(12) 0.67776(11) 0.20130(10)
H1_96 H 0.406970 0.692581 0.207134
C3_96 C 0.36222(13) 0.66069(11) 0.17443(12)
H2_96 H 0.348468 0.662992 0.160983
C4_96 C 0.36666(12) 0.63500(11) 0.18552(11)
H3_96 H 0.355927 0.620111 0.179346
C5_96 C 0.42628(13) 0.67932(12) 0.25696(11)
C6_96 C 0.40456(17) 0.68587(16) 0.27447(16)
H4_96 H 0.389929 0.673388 0.276796
C7_96 C 0.4044(2) 0.71056(19) 0.28838(19)
H5_96 H 0.390275 0.714656 0.300962
C8_96 C 0.4250(2) 0.72897(17) 0.28372(16)
H6_96 H 0.424262 0.746418 0.292109
C9_96 C 0.44604(19) 0.72277(15) 0.26762(16)
H7_96 H 0.460516 0.735443 0.265381
C10_96 C 0.44690(16) 0.69711(13) 0.25368(15)
H8_96 H 0.461892 0.692696 0.242238
C11_96 C 0.45714(11) 0.64077(11) 0.22420(12)
C12_96 C 0.47736(14) 0.62786(18) 0.23969(16)
H9_96 H 0.473566 0.622228 0.257833
C13_72 C 0.50310(15) 0.6233(2) 0.22842(18)
H10_72 H 0.517067 0.614885 0.238902
C14_72 C 0.50793(17) 0.6311(2) 0.2019(2)
H11_72 H 0.525532 0.628386 0.194224
C15_96 C 0.48819(19) 0.64254(19) 0.1864(2)
H12_96 H 0.491726 0.646944 0.167914
C16_96 C 0.46242(16) 0.64794(15) 0.19775(16)
H13_96 H 0.448724 0.656539 0.187089
N3_96 N 0.42947(13) 0.57455(14) 0.21362(17)
C17_96 C 0.4468(2) 0.5710(2) 0.1987(3)
C18_96 C 0.4720(3) 0.5662(3) 0.1787(3)
H14_96 H 0.488693 0.563574 0.189395
H15_96 H 0.474211 0.582141 0.166807
H16_96 H 0.468688 0.549989 0.167487
Ag3_96 Ag 0.36315(2) 0.72585(2) 0.16253(2)
N4_96 N 0.37300(10) 0.56765(9) 0.18228(9)
P1_49 P 0.74063(3) 0.64612(3) 0.42455(3)
N1_97 N 0.70466(9) 0.63062(9) 0.38562(9)
C1_97 C 0.71285(10) 0.65234(10) 0.40023(11)
C2_97 C 0.70130(10) 0.67776(11) 0.39595(12)
H1_97 H 0.707134 0.692581 0.406970
C3_97 C 0.67443(12) 0.66069(11) 0.36222(13)
H2_97 H 0.660983 0.662992 0.348468
C4_97 C 0.68552(11) 0.63500(11) 0.36666(12)
H3_97 H 0.679346 0.620111 0.355927
C5_97 C 0.75696(11) 0.67932(12) 0.42628(13)
C6_97 C 0.77447(16) 0.68587(16) 0.40456(17)
H4_97 H 0.776796 0.673388 0.389929
C7_97 C 0.78838(19) 0.71056(19) 0.4044(2)
H5_97 H 0.800962 0.714656 0.390275
C8_97 C 0.78372(16) 0.72897(17) 0.4250(2)
H6_97 H 0.792109 0.746418 0.424262
C9_97 C 0.76762(16) 0.72277(15) 0.44604(19)
H7_97 H 0.765381 0.735443 0.460516
C10_97 C 0.75368(15) 0.69711(13) 0.44690(16)
H8_97 H 0.742238 0.692696 0.461892
C11_97 C 0.72420(12) 0.64077(11) 0.45714(11)
C12_97 C 0.73969(16) 0.62786(18) 0.47736(14)
H9_97 H 0.757833 0.622228 0.473566
C13_73 C 0.72842(18) 0.6233(2) 0.50310(15)
H10_73 H 0.738902 0.614885 0.517067
C14_73 C 0.7019(2) 0.6311(2) 0.50793(17)
H11_73 H 0.694224 0.628386 0.525532
C15_97 C 0.6864(2) 0.64254(19) 0.48819(19)
H12_97 H 0.667914 0.646944 0.491726
C16_97 C 0.69775(16) 0.64794(15) 0.46242(16)
H13_97 H 0.687089 0.656539 0.448724
N3_97 N 0.71362(17) 0.57455(14) 0.42947(13)
C17_97 C 0.6987(3) 0.5710(2) 0.4468(2)
C18_97 C 0.6787(3) 0.5662(3) 0.4720(3)
H14_97 H 0.689395 0.563574 0.488693
H15_97 H 0.666807 0.582141 0.474211
H16_97 H 0.667487 0.549989 0.468688
P2_49 P 0.75937(3) 0.57545(3) 0.35388(3)
P1_50 P 0.00937(3) 0.60388(3) 0.92455(3)
N1_98 N 0.04534(9) 0.61938(9) 0.88562(9)
C1_98 C 0.03715(10) 0.59766(10) 0.90023(11)
C2_98 C 0.04870(10) 0.57224(11) 0.89595(12)
H1_98 H 0.042866 0.557419 0.906970
C3_98 C 0.07557(12) 0.58931(11) 0.86222(13)
H2_98 H 0.089017 0.587008 0.848468
C4_98 C 0.06448(11) 0.61500(11) 0.86666(12)
H3_98 H 0.070654 0.629889 0.855927
H8_98 H 0.007762 0.557304 0.961892
C11_98 C 0.02580(12) 0.60923(11) 0.95714(11)
C12_98 C 0.01031(16) 0.62214(18) 0.97736(14)
C15_98 C 0.0636(2) 0.60746(19) 0.98819(19)
H12_98 H 0.082086 0.603056 0.991726
C16_98 C 0.05225(16) 0.60206(15) 0.96242(16)
H13_98 H 0.062911 0.593461 0.948724
N3_98 N 0.03638(17) 0.67545(14) 0.92947(13)
C17_98 C 0.0513(3) 0.6790(2) 0.9468(2)
C18_98 C 0.0713(3) 0.6838(3) 0.9720(3)
H14_98 H 0.060605 0.686426 0.988693
H15_98 H 0.083193 0.667859 0.974211
H16_98 H 0.082513 0.700011 0.968688
C5_98 C 0.99304(11) 0.57068(12) 0.92628(13)
C6_98 C 0.97553(16) 0.56413(16) 0.90456(17)
H4_98 H 0.973204 0.576612 0.889929
C7_98 C 0.96162(19) 0.53944(19) 0.9044(2)
H5_98 H 0.949038 0.535344 0.890275
C8_98 C 0.96628(16) 0.52103(17) 0.9250(2)
H6_98 H 0.957891 0.503582 0.924262
C9_98 C 0.98238(16) 0.52723(15) 0.94604(19)
H7_98 H 0.984619 0.514557 0.960516
C10_98 C 0.99632(15) 0.55289(13) 0.94690(16)
H9_98 H 0.992167 0.627772 0.973566
P2_50 P 0.99063(3) 0.67455(3) 0.85388(3)
P1_51 P 0.50937(3) 0.14612(3) 0.32545(3)
N1_99 N 0.54534(9) 0.13062(9) 0.36438(9)
C1_99 C 0.53715(10) 0.15234(10) 0.34977(11)
C2_99 C 0.54870(10) 0.17776(11) 0.35405(12)
H1_99 H 0.542866 0.192581 0.343030
C3_99 C 0.57557(12) 0.16069(11) 0.38778(13)
H2_99 H 0.589017 0.162992 0.401532
C4_99 C 0.56448(11) 0.13500(11) 0.38334(12)
H3_99 H 0.570654 0.120111 0.394073
C5_99 C 0.49304(11) 0.17932(12) 0.32372(13)
C6_99 C 0.47553(16) 0.18587(16) 0.34544(17)
H4_99 H 0.473204 0.173388 0.360071
C7_99 C 0.46162(19) 0.21056(19) 0.3456(2)
H5_99 H 0.449038 0.214656 0.359725
C8_99 C 0.46628(16) 0.22897(17) 0.3250(2)
H6_99 H 0.457891 0.246418 0.325738
C9_99 C 0.48238(16) 0.22277(15) 0.30396(19)
H7_99 H 0.484619 0.235443 0.289484
C10_99 C 0.49632(15) 0.19711(13) 0.30310(16)
H8_99 H 0.507762 0.192696 0.288108
C11_99 C 0.52580(12) 0.14077(11) 0.29286(11)
C12_99 C 0.51031(16) 0.12786(18) 0.27264(14)
H9_99 H 0.492167 0.122228 0.276434
C13_74 C 0.52158(18) 0.1233(2) 0.24690(15)
H10_74 H 0.511098 0.114885 0.232933
C14_74 C 0.5481(2) 0.1311(2) 0.24207(17)
H11_74 H 0.555776 0.128386 0.224468
C15_99 C 0.5636(2) 0.14254(19) 0.26181(19)
H12_99 H 0.582086 0.146944 0.258274
C16_99 C 0.55225(16) 0.14794(15) 0.28758(16)
H13_99 H 0.562911 0.156539 0.301276
N3_99 N 0.53638(17) 0.07455(14) 0.32053(13)
C17_99 C 0.5513(3) 0.0710(2) 0.3032(2)
C18_99 C 0.5713(3) 0.0662(3) 0.2780(3)
H14_99 H 0.560605 0.063574 0.261307
H15_99 H 0.583193 0.082141 0.275789
H16_99 H 0.582513 0.049989 0.281312
P2_51 P 0.49063(3) 0.07545(3) 0.39612(3)
P1_52 P 0.24063(3) 0.10388(3) 0.82545(3)
N1_100 N 0.20466(9) 0.11938(9) 0.86438(9)
C1_100 C 0.21285(10) 0.09766(10) 0.84977(11)
C2_100 C 0.20130(10) 0.07224(11) 0.85405(12)
H1_100 H 0.207134 0.057419 0.843030
C3_100 C 0.17443(12) 0.08931(11) 0.88778(13)
H2_100 H 0.160983 0.087008 0.901532
C4_100 C 0.18552(11) 0.11500(11) 0.88334(12)
H3_100 H 0.179346 0.129889 0.894073
C5_100 C 0.25696(11) 0.07068(12) 0.82372(13)
C6_100 C 0.27447(16) 0.06413(16) 0.84544(17)
H4_100 H 0.276796 0.076612 0.860071
C7_100 C 0.28838(19) 0.03944(19) 0.8456(2)
H5_100 H 0.300962 0.035344 0.859725
C8_100 C 0.28372(16) 0.02103(17) 0.8250(2)
H6_100 H 0.292109 0.003582 0.825738
C9_100 C 0.26762(16) 0.02723(15) 0.80396(19)
H7_100 H 0.265381 0.014557 0.789484
C10_100 C 0.25368(15) 0.05289(13) 0.80310(16)
H8_100 H 0.242238 0.057304 0.788108
C11_100 C 0.22420(12) 0.10923(11) 0.79286(11)
C12_100 C 0.23969(16) 0.12214(18) 0.77264(14)
H9_100 H 0.257833 0.127772 0.776434
C13_75 C 0.22842(18) 0.1267(2) 0.74690(15)
H10_75 H 0.238902 0.135115 0.732933
C14_75 C 0.2019(2) 0.1189(2) 0.74207(17)
H11_75 H 0.194224 0.121614 0.724468
C15_100 C 0.1864(2) 0.10746(19) 0.76181(19)
H12_100 H 0.167914 0.103056 0.758274
C16_100 C 0.19775(16) 0.10206(15) 0.78758(16)
H13_100 H 0.187089 0.093461 0.801276
N3_100 N 0.21362(17) 0.17545(14) 0.82053(13)
C17_100 C 0.1987(3) 0.1790(2) 0.8032(2)
C18_100 C 0.1787(3) 0.1838(3) 0.7780(3)
H14_100 H 0.189395 0.186426 0.761307
H15_100 H 0.166807 0.167859 0.775789
H16_100 H 0.167487 0.200011 0.781312
P2_52 P 0.25937(3) 0.17455(3) 0.89612(3)
P1_53 P 0.42455(3) 0.74063(3) 0.64612(3)
N1_101 N 0.38562(9) 0.70466(9) 0.63062(9)
C1_101 C 0.40023(11) 0.71285(10) 0.65234(10)
C2_101 C 0.39595(12) 0.70130(10) 0.67776(11)
H1_101 H 0.406970 0.707134 0.692581
C3_101 C 0.36222(13) 0.67443(12) 0.66069(11)
H2_101 H 0.348468 0.660983 0.662992
C4_101 C 0.36666(12) 0.68552(11) 0.63500(11)
H3_101 H 0.355927 0.679346 0.620111
C5_101 C 0.42628(13) 0.75696(11) 0.67932(12)
C6_101 C 0.40456(17) 0.77447(16) 0.68587(16)
H4_101 H 0.389929 0.776796 0.673388
C7_101 C 0.4044(2) 0.78838(19) 0.71056(19)
H5_101 H 0.390275 0.800962 0.714656
C8_101 C 0.4250(2) 0.78372(16) 0.72897(17)
H6_101 H 0.424262 0.792109 0.746418
C9_101 C 0.44604(19) 0.76762(16) 0.72277(15)
H7_101 H 0.460516 0.765381 0.735443
C10_101 C 0.44690(16) 0.75368(15) 0.69711(13)
H8_101 H 0.461892 0.742238 0.692696
C11_101 C 0.45714(11) 0.72420(12) 0.64077(11)
C12_101 C 0.47736(14) 0.73969(16) 0.62786(18)
H9_101 H 0.473566 0.757833 0.622228
C13_76 C 0.50310(15) 0.72842(18) 0.6233(2)
H10_76 H 0.517067 0.738902 0.614885
C14_76 C 0.50793(17) 0.7019(2) 0.6311(2)
H11_76 H 0.525532 0.694224 0.628386
C15_101 C 0.48819(19) 0.6864(2) 0.64254(19)
H12_101 H 0.491726 0.667914 0.646944
C16_101 C 0.46242(16) 0.69775(16) 0.64794(15)
H13_101 H 0.448724 0.687089 0.656539
N3_101 N 0.42947(13) 0.71362(17) 0.57455(14)
C17_101 C 0.4468(2) 0.6987(3) 0.5710(2)
C18_101 C 0.4720(3) 0.6787(3) 0.5662(3)
H14_101 H 0.488693 0.689395 0.563574
H15_101 H 0.474211 0.666807 0.582141
H16_101 H 0.468688 0.667487 0.549989
P2_53 P 0.35388(3) 0.75937(3) 0.57545(3)
P1_54 P 0.92455(3) 0.00937(3) 0.60388(3)
N1_102 N 0.88562(9) 0.04534(9) 0.61938(9)
C1_102 C 0.90023(11) 0.03715(10) 0.59766(10)
C2_102 C 0.89595(12) 0.04870(10) 0.57224(11)
H1_102 H 0.906970 0.042866 0.557419
C3_102 C 0.86222(13) 0.07557(12) 0.58931(11)
H2_102 H 0.848468 0.089017 0.587008
C4_102 C 0.86666(12) 0.06448(11) 0.61500(11)
H3_102 H 0.855927 0.070654 0.629889
H8_102 H 0.961892 0.007762 0.557304
C11_102 C 0.95714(11) 0.02580(12) 0.60923(11)
C12_102 C 0.97736(14) 0.01031(16) 0.62214(18)
C15_102 C 0.98819(19) 0.0636(2) 0.60746(19)
H12_102 H 0.991726 0.082086 0.603056
C16_102 C 0.96242(16) 0.05225(16) 0.60206(15)
H13_102 H 0.948724 0.062911 0.593461
N3_102 N 0.92947(13) 0.03638(17) 0.67545(14)
C17_102 C 0.9468(2) 0.0513(3) 0.6790(2)
C18_102 C 0.9720(3) 0.0713(3) 0.6838(3)
H14_102 H 0.988693 0.060605 0.686426
H15_102 H 0.974211 0.083193 0.667859
H16_102 H 0.968688 0.082513 0.700011
C5_102 C 0.92628(13) 0.99304(11) 0.57068(12)
C6_102 C 0.90456(17) 0.97553(16) 0.56413(16)
H4_102 H 0.889929 0.973204 0.576612
C7_102 C 0.9044(2) 0.96162(19) 0.53944(19)
H5_102 H 0.890275 0.949038 0.535344
C8_102 C 0.9250(2) 0.96628(16) 0.52103(17)
H6_102 H 0.924262 0.957891 0.503582
C9_102 C 0.94604(19) 0.98238(16) 0.52723(15)
H7_102 H 0.960516 0.984619 0.514557
C10_102 C 0.94690(16) 0.99632(15) 0.55289(13)
H9_102 H 0.973566 0.992167 0.627772
P2_54 P 0.85388(3) 0.99063(3) 0.67455(3)
P1_55 P 0.32545(3) 0.50937(3) 0.14612(3)
N1_103 N 0.36438(9) 0.54534(9) 0.13062(9)
C1_103 C 0.34977(11) 0.53715(10) 0.15234(10)
C2_103 C 0.35405(12) 0.54870(10) 0.17776(11)
H1_103 H 0.343030 0.542866 0.192581
C3_103 C 0.38778(13) 0.57557(12) 0.16069(11)
H2_103 H 0.401532 0.589017 0.162992
C4_103 C 0.38334(12) 0.56448(11) 0.13500(11)
H3_103 H 0.394073 0.570654 0.120111
C5_103 C 0.32372(13) 0.49304(11) 0.17932(12)
C6_103 C 0.34544(17) 0.47553(16) 0.18587(16)
H4_103 H 0.360071 0.473204 0.173388
C7_103 C 0.3456(2) 0.46162(19) 0.21056(19)
H5_103 H 0.359725 0.449038 0.214656
C8_103 C 0.3250(2) 0.46628(16) 0.22897(17)
H6_103 H 0.325738 0.457891 0.246418
C9_103 C 0.30396(19) 0.48238(16) 0.22277(15)
H7_103 H 0.289484 0.484619 0.235443
C10_103 C 0.30310(16) 0.49632(15) 0.19711(13)
H8_103 H 0.288108 0.507762 0.192696
C11_103 C 0.29286(11) 0.52580(12) 0.14077(11)
C12_103 C 0.27264(14) 0.51031(16) 0.12786(18)
H9_103 H 0.276434 0.492167 0.122228
C13_77 C 0.24690(15) 0.52158(18) 0.1233(2)
H10_77 H 0.232933 0.511098 0.114885
C14_77 C 0.24207(17) 0.5481(2) 0.1311(2)
H11_77 H 0.224468 0.555776 0.128386
C15_103 C 0.26181(19) 0.5636(2) 0.14254(19)
H12_103 H 0.258274 0.582086 0.146944
C16_103 C 0.28758(16) 0.55225(16) 0.14794(15)
H13_103 H 0.301276 0.562911 0.156539
N3_103 N 0.32053(13) 0.53638(17) 0.07455(14)
C17_103 C 0.3032(2) 0.5513(3) 0.0710(2)
C18_103 C 0.2780(3) 0.5713(3) 0.0662(3)
H14_103 H 0.261307 0.560605 0.063574
H15_103 H 0.275789 0.583193 0.082141
H16_103 H 0.281312 0.582513 0.049989
P2_55 P 0.39612(3) 0.49063(3) 0.07545(3)
P1_56 P 0.82545(3) 0.24063(3) 0.10388(3)
N1_104 N 0.86438(9) 0.20466(9) 0.11938(9)
C1_104 C 0.84977(11) 0.21285(10) 0.09766(10)
C2_104 C 0.85405(12) 0.20130(10) 0.07224(11)
H1_104 H 0.843030 0.207134 0.057419
C3_104 C 0.88778(13) 0.17443(12) 0.08931(11)
H2_104 H 0.901532 0.160983 0.087008
C4_104 C 0.88334(12) 0.18552(11) 0.11500(11)
H3_104 H 0.894073 0.179346 0.129889
C5_104 C 0.82372(13) 0.25696(11) 0.07068(12)
C6_104 C 0.84544(17) 0.27447(16) 0.06413(16)
H4_104 H 0.860071 0.276796 0.076612
C7_104 C 0.8456(2) 0.28838(19) 0.03944(19)
H5_104 H 0.859725 0.300962 0.035344
C8_104 C 0.8250(2) 0.28372(16) 0.02103(17)
H6_104 H 0.825738 0.292109 0.003582
C9_104 C 0.80396(19) 0.26762(16) 0.02723(15)
H7_104 H 0.789484 0.265381 0.014557
C10_104 C 0.80310(16) 0.25368(15) 0.05289(13)
H8_104 H 0.788108 0.242238 0.057304
C11_104 C 0.79286(11) 0.22420(12) 0.10923(11)
C12_104 C 0.77264(14) 0.23969(16) 0.12214(18)
H9_104 H 0.776434 0.257833 0.127772
C13_78 C 0.74690(15) 0.22842(18) 0.1267(2)
H10_78 H 0.732933 0.238902 0.135115
C14_78 C 0.74207(17) 0.2019(2) 0.1189(2)
H11_78 H 0.724468 0.194224 0.121614
C15_104 C 0.76181(19) 0.1864(2) 0.10746(19)
H12_104 H 0.758274 0.167914 0.103056
C16_104 C 0.78758(16) 0.19775(16) 0.10206(15)
H13_104 H 0.801276 0.187089 0.093461
N3_104 N 0.82053(13) 0.21362(17) 0.17545(14)
C17_104 C 0.8032(2) 0.1987(3) 0.1790(2)
C18_104 C 0.7780(3) 0.1787(3) 0.1838(3)
H14_104 H 0.761307 0.189395 0.186426
H15_104 H 0.775789 0.166807 0.167859
H16_104 H 0.781312 0.167487 0.200011
P2_56 P 0.89612(3) 0.25937(3) 0.17455(3)
P1_57 P 0.64612(3) 0.42455(3) 0.74063(3)
N1_105 N 0.63062(9) 0.38562(9) 0.70466(9)
C1_105 C 0.65234(10) 0.40023(11) 0.71285(10)
C2_105 C 0.67776(11) 0.39595(12) 0.70130(10)
H1_105 H 0.692581 0.406970 0.707134
C3_105 C 0.66069(11) 0.36222(13) 0.67443(12)
H2_105 H 0.662992 0.348468 0.660983
C4_105 C 0.63500(11) 0.36666(12) 0.68552(11)
H3_105 H 0.620111 0.355927 0.679346
C5_105 C 0.67932(12) 0.42628(13) 0.75696(11)
C6_105 C 0.68587(16) 0.40456(17) 0.77447(16)
H4_105 H 0.673388 0.389929 0.776796
C7_105 C 0.71056(19) 0.4044(2) 0.78838(19)
H5_105 H 0.714656 0.390275 0.800962
C8_105 C 0.72897(17) 0.4250(2) 0.78372(16)
H6_105 H 0.746418 0.424262 0.792109
C9_105 C 0.72277(15) 0.44604(19) 0.76762(16)
H7_105 H 0.735443 0.460516 0.765381
C10_105 C 0.69711(13) 0.44690(16) 0.75368(15)
H8_105 H 0.692696 0.461892 0.742238
C11_105 C 0.64077(11) 0.45714(11) 0.72420(12)
C12_105 C 0.62786(18) 0.47736(14) 0.73969(16)
H9_105 H 0.622228 0.473566 0.757833
C13_79 C 0.6233(2) 0.50310(15) 0.72842(18)
H10_79 H 0.614885 0.517067 0.738902
C14_79 C 0.6311(2) 0.50793(17) 0.7019(2)
H11_79 H 0.628386 0.525532 0.694224
C15_105 C 0.64254(19) 0.48819(19) 0.6864(2)
H12_105 H 0.646944 0.491726 0.667914
C16_105 C 0.64794(15) 0.46242(16) 0.69775(16)
H13_105 H 0.656539 0.448724 0.687089
N3_105 N 0.57455(14) 0.42947(13) 0.71362(17)
C17_105 C 0.5710(2) 0.4468(2) 0.6987(3)
C18_105 C 0.5662(3) 0.4720(3) 0.6787(3)
H14_105 H 0.563574 0.488693 0.689395
H15_105 H 0.582141 0.474211 0.666807
H16_105 H 0.549989 0.468688 0.667487
P2_57 P 0.57545(3) 0.35388(3) 0.75937(3)
P1_58 P 0.60388(3) 0.92455(3) 0.00937(3)
N1_106 N 0.61938(9) 0.88562(9) 0.04534(9)
C1_106 C 0.59766(10) 0.90023(11) 0.03715(10)
C2_106 C 0.57224(11) 0.89595(12) 0.04870(10)
H1_106 H 0.557419 0.906970 0.042866
C3_106 C 0.58931(11) 0.86222(13) 0.07557(12)
H2_106 H 0.587008 0.848468 0.089017
C4_106 C 0.61500(11) 0.86666(12) 0.06448(11)
H3_106 H 0.629889 0.855927 0.070654
H8_106 H 0.557304 0.961892 0.007762
C11_106 C 0.60923(11) 0.95714(11) 0.02580(12)
C12_106 C 0.62214(18) 0.97736(14) 0.01031(16)
C15_106 C 0.60746(19) 0.98819(19) 0.0636(2)
H12_106 H 0.603056 0.991726 0.082086
C16_106 C 0.60206(15) 0.96242(16) 0.05225(16)
H13_106 H 0.593461 0.948724 0.062911
N3_106 N 0.67545(14) 0.92947(13) 0.03638(17)
C17_106 C 0.6790(2) 0.9468(2) 0.0513(3)
C18_106 C 0.6838(3) 0.9720(3) 0.0713(3)
H14_106 H 0.686426 0.988693 0.060605
H15_106 H 0.667859 0.974211 0.083193
H16_106 H 0.700011 0.968688 0.082513
C5_106 C 0.57068(12) 0.92628(13) 0.99304(11)
C6_106 C 0.56413(16) 0.90456(17) 0.97553(16)
H4_106 H 0.576612 0.889929 0.973204
C7_106 C 0.53944(19) 0.9044(2) 0.96162(19)
H5_106 H 0.535344 0.890275 0.949038
C8_106 C 0.52103(17) 0.9250(2) 0.96628(16)
H6_106 H 0.503582 0.924262 0.957891
C9_106 C 0.52723(15) 0.94604(19) 0.98238(16)
H7_106 H 0.514557 0.960516 0.984619
C10_106 C 0.55289(13) 0.94690(16) 0.99632(15)
H9_106 H 0.627772 0.973566 0.992167
P2_58 P 0.67455(3) 0.85388(3) 0.99063(3)
P1_59 P 0.14612(3) 0.32545(3) 0.50937(3)
N1_107 N 0.13062(9) 0.36438(9) 0.54534(9)
C1_107 C 0.15234(10) 0.34977(11) 0.53715(10)
C2_107 C 0.17776(11) 0.35405(12) 0.54870(10)
H1_107 H 0.192581 0.343030 0.542866
C3_107 C 0.16069(11) 0.38778(13) 0.57557(12)
H2_107 H 0.162992 0.401532 0.589017
C4_107 C 0.13500(11) 0.38334(12) 0.56448(11)
H3_107 H 0.120111 0.394073 0.570654
C5_107 C 0.17932(12) 0.32372(13) 0.49304(11)
C6_107 C 0.18587(16) 0.34544(17) 0.47553(16)
H4_107 H 0.173388 0.360071 0.473204
C7_107 C 0.21056(19) 0.3456(2) 0.46162(19)
H5_107 H 0.214656 0.359725 0.449038
C8_107 C 0.22897(17) 0.3250(2) 0.46628(16)
H6_107 H 0.246418 0.325738 0.457891
C9_107 C 0.22277(15) 0.30396(19) 0.48238(16)
H7_107 H 0.235443 0.289484 0.484619
C10_107 C 0.19711(13) 0.30310(16) 0.49632(15)
H8_107 H 0.192696 0.288108 0.507762
C11_107 C 0.14077(11) 0.29286(11) 0.52580(12)
C12_107 C 0.12786(18) 0.27264(14) 0.51031(16)
H9_107 H 0.122228 0.276434 0.492167
C13_80 C 0.1233(2) 0.24690(15) 0.52158(18)
H10_80 H 0.114885 0.232933 0.511098
C14_80 C 0.1311(2) 0.24207(17) 0.5481(2)
H11_80 H 0.128386 0.224468 0.555776
C15_107 C 0.14254(19) 0.26181(19) 0.5636(2)
H12_107 H 0.146944 0.258274 0.582086
C16_107 C 0.14794(15) 0.28758(16) 0.55225(16)
H13_107 H 0.156539 0.301276 0.562911
N3_107 N 0.07455(14) 0.32053(13) 0.53638(17)
C17_107 C 0.0710(2) 0.3032(2) 0.5513(3)
C18_107 C 0.0662(3) 0.2780(3) 0.5713(3)
H14_107 H 0.063574 0.261307 0.560605
H15_107 H 0.082141 0.275789 0.583193
H16_107 H 0.049989 0.281312 0.582513
P2_59 P 0.07545(3) 0.39612(3) 0.49063(3)
P1_60 P 0.10388(3) 0.82545(3) 0.24063(3)
N1_108 N 0.11938(9) 0.86438(9) 0.20466(9)
C1_108 C 0.09766(10) 0.84977(11) 0.21285(10)
C2_108 C 0.07224(11) 0.85405(12) 0.20130(10)
H1_108 H 0.057419 0.843030 0.207134
C3_108 C 0.08931(11) 0.88778(13) 0.17443(12)
H2_108 H 0.087008 0.901532 0.160983
C4_108 C 0.11500(11) 0.88334(12) 0.18552(11)
H3_108 H 0.129889 0.894073 0.179346
C5_108 C 0.07068(12) 0.82372(13) 0.25696(11)
C6_108 C 0.06413(16) 0.84544(17) 0.27447(16)
H4_108 H 0.076612 0.860071 0.276796
C7_108 C 0.03944(19) 0.8456(2) 0.28838(19)
H5_108 H 0.035344 0.859725 0.300962
C8_108 C 0.02103(17) 0.8250(2) 0.28372(16)
H6_108 H 0.003582 0.825738 0.292109
C9_108 C 0.02723(15) 0.80396(19) 0.26762(16)
H7_108 H 0.014557 0.789484 0.265381
C10_108 C 0.05289(13) 0.80310(16) 0.25368(15)
H8_108 H 0.057304 0.788108 0.242238
C11_108 C 0.10923(11) 0.79286(11) 0.22420(12)
C12_108 C 0.12214(18) 0.77264(14) 0.23969(16)
H9_108 H 0.127772 0.776434 0.257833
C13_81 C 0.1267(2) 0.74690(15) 0.22842(18)
H10_81 H 0.135115 0.732933 0.238902
C14_81 C 0.1189(2) 0.74207(17) 0.2019(2)
H11_81 H 0.121614 0.724468 0.194224
C15_108 C 0.10746(19) 0.76181(19) 0.1864(2)
H12_108 H 0.103056 0.758274 0.167914
C16_108 C 0.10206(15) 0.78758(16) 0.19775(16)
H13_108 H 0.093461 0.801276 0.187089
N3_108 N 0.17545(14) 0.82053(13) 0.21362(17)
C17_108 C 0.1790(2) 0.8032(2) 0.1987(3)
C18_108 C 0.1838(3) 0.7780(3) 0.1787(3)
H14_108 H 0.186426 0.761307 0.189395
H15_108 H 0.167859 0.775789 0.166807
H16_108 H 0.200011 0.781312 0.167487
P2_60 P 0.17455(3) 0.89612(3) 0.25937(3)
P1_61 P 0.89612(3) 0.49063(3) 0.57545(3)
N1_109 N 0.88062(9) 0.45466(9) 0.61438(9)
C1_109 C 0.90234(10) 0.46285(10) 0.59977(11)
C2_109 C 0.92776(11) 0.45130(10) 0.60405(12)
H1_109 H 0.942581 0.457134 0.593030
C3_109 C 0.91069(11) 0.42443(12) 0.63778(13)
H2_109 H 0.912992 0.410983 0.651532
C4_109 C 0.88500(11) 0.43552(11) 0.63334(12)
H3_109 H 0.870111 0.429346 0.644073
C5_109 C 0.92932(12) 0.50696(11) 0.57372(13)
C6_109 C 0.93587(16) 0.52447(16) 0.59544(17)
H4_109 H 0.923388 0.526796 0.610071
C7_109 C 0.96056(19) 0.53838(19) 0.5956(2)
H5_109 H 0.964656 0.550962 0.609725
C8_109 C 0.97897(17) 0.53372(16) 0.5750(2)
H6_109 H 0.996418 0.542109 0.575738
C9_109 C 0.97277(15) 0.51762(16) 0.55396(19)
H7_109 H 0.985443 0.515381 0.539484
C10_109 C 0.94711(13) 0.50368(15) 0.55310(16)
H8_109 H 0.942696 0.492238 0.538108
C11_109 C 0.89077(11) 0.47420(12) 0.54286(11)
C12_109 C 0.87786(18) 0.48969(16) 0.52264(14)
H9_109 H 0.872228 0.507833 0.526434
C13_82 C 0.8733(2) 0.47842(18) 0.49690(15)
H10_82 H 0.864885 0.488902 0.482933
C14_82 C 0.8811(2) 0.4519(2) 0.49207(17)
H11_82 H 0.878386 0.444224 0.474468
C15_109 C 0.89254(19) 0.4364(2) 0.51181(19)
H12_109 H 0.896944 0.417914 0.508274
C16_109 C 0.89794(15) 0.44775(16) 0.53758(16)
H13_109 H 0.906539 0.437089 0.551276
N3_109 N 0.82455(14) 0.46362(17) 0.57053(13)
C17_109 C 0.8210(2) 0.4487(3) 0.5532(2)
C18_109 C 0.8162(3) 0.4287(3) 0.5280(3)
H14_109 H 0.813574 0.439395 0.511307
H15_109 H 0.832141 0.416807 0.525789
H16_109 H 0.799989 0.417487 0.531312
P2_61 P 0.82545(3) 0.50937(3) 0.64612(3)
P1_62 P 0.85388(3) 0.75937(3) 0.07545(3)
N1_110 N 0.86938(9) 0.79534(9) 0.11438(9)
C1_110 C 0.84766(10) 0.78715(10) 0.09977(11)
C2_110 C 0.82224(11) 0.79870(10) 0.10405(12)
H1_110 H 0.807419 0.792866 0.093030
C3_110 C 0.83931(11) 0.82557(12) 0.13778(13)
H2_110 H 0.837008 0.839017 0.151532
C4_110 C 0.86500(11) 0.81448(11) 0.13334(12)
H3_110 H 0.879889 0.820654 0.144073
C5_110 C 0.82068(12) 0.74304(11) 0.07372(13)
C6_110 C 0.81413(16) 0.72553(16) 0.09544(17)
H4_110 H 0.826612 0.723204 0.110071
C7_110 C 0.78944(19) 0.71162(19) 0.0956(2)
H5_110 H 0.785344 0.699038 0.109725
C8_110 C 0.77103(17) 0.71628(16) 0.0750(2)
H6_110 H 0.753582 0.707891 0.075738
C9_110 C 0.77723(15) 0.73238(16) 0.05396(19)
H7_110 H 0.764557 0.734619 0.039484
C10_110 C 0.80289(13) 0.74632(15) 0.05310(16)
H8_110 H 0.807304 0.757762 0.038108
C11_110 C 0.85923(11) 0.77580(12) 0.04286(11)
C12_110 C 0.87214(18) 0.76031(16) 0.02264(14)
H9_110 H 0.877772 0.742167 0.026434
C15_110 C 0.85746(19) 0.8136(2) 0.01181(19)
H12_110 H 0.853056 0.832086 0.008274
C16_110 C 0.85206(15) 0.80225(16) 0.03758(16)
H13_110 H 0.843461 0.812911 0.051276
N3_110 N 0.92545(14) 0.78638(17) 0.07053(13)
C17_110 C 0.9290(2) 0.8013(3) 0.0532(2)
C18_110 C 0.9338(3) 0.8213(3) 0.0280(3)
H14_110 H 0.936426 0.810605 0.011307
H15_110 H 0.917859 0.833193 0.025789
H16_110 H 0.950011 0.832513 0.031312
P2_62 P 0.92455(3) 0.74063(3) 0.14612(3)
P1_63 P 0.39612(3) 0.25937(3) 0.67455(3)
N1_111 N 0.38062(9) 0.29534(9) 0.63562(9)
C1_111 C 0.40234(10) 0.28715(10) 0.65023(11)
C2_111 C 0.42776(11) 0.29870(10) 0.64595(12)
H1_111 H 0.442581 0.292866 0.656970
C3_111 C 0.41069(11) 0.32557(12) 0.61222(13)
H2_111 H 0.412992 0.339017 0.598468
C4_111 C 0.38500(11) 0.31448(11) 0.61666(12)
H3_111 H 0.370111 0.320654 0.605927
C5_111 C 0.42932(12) 0.24304(11) 0.67628(13)
C6_111 C 0.43587(16) 0.22553(16) 0.65456(17)
H4_111 H 0.423388 0.223204 0.639929
C7_111 C 0.46056(19) 0.21162(19) 0.6544(2)
H5_111 H 0.464656 0.199038 0.640275
C8_111 C 0.47897(17) 0.21628(16) 0.6750(2)
H6_111 H 0.496418 0.207891 0.674262
C9_111 C 0.47277(15) 0.23238(16) 0.69604(19)
H7_111 H 0.485443 0.234619 0.710516
C10_111 C 0.44711(13) 0.24632(15) 0.69690(16)
H8_111 H 0.442696 0.257762 0.711892
C11_111 C 0.39077(11) 0.27580(12) 0.70714(11)
C12_111 C 0.37786(18) 0.26031(16) 0.72736(14)
H9_111 H 0.372228 0.242167 0.723566
C13_83 C 0.3733(2) 0.27158(18) 0.75310(15)
H10_83 H 0.364885 0.261098 0.767067
C14_83 C 0.3811(2) 0.2981(2) 0.75793(17)
H11_83 H 0.378386 0.305776 0.775532
C15_111 C 0.39254(19) 0.3136(2) 0.73819(19)
H12_111 H 0.396944 0.332086 0.741726
C16_111 C 0.39794(15) 0.30225(16) 0.71242(16)
H13_111 H 0.406539 0.312911 0.698724
N3_111 N 0.32455(14) 0.28638(17) 0.67947(13)
C17_111 C 0.3210(2) 0.3013(3) 0.6968(2)
C18_111 C 0.3162(3) 0.3213(3) 0.7220(3)
H14_111 H 0.313574 0.310605 0.738693
H15_111 H 0.332141 0.333193 0.724211
H16_111 H 0.299989 0.332513 0.718688
P2_63 P 0.32545(3) 0.24063(3) 0.60388(3)
C5_112 C 0.32068(12) 0.00696(11) 0.17628(13)
C6_112 C 0.31413(16) 0.02447(16) 0.15456(17)
H4_112 H 0.326612 0.026796 0.139929
C7_112 C 0.28944(19) 0.03838(19) 0.1544(2)
H5_112 H 0.285344 0.050962 0.140275
C8_112 C 0.27103(17) 0.03372(16) 0.1750(2)
H6_112 H 0.253582 0.042109 0.174262
C9_112 C 0.27723(15) 0.01762(16) 0.19604(19)
H7_112 H 0.264557 0.015381 0.210516
C10_112 C 0.30289(13) 0.00368(15) 0.19690(16)
H9_112 H 0.377772 0.007833 0.223566
P2_64 P 0.42455(3) 0.00937(3) 0.10388(3)
P1_64 P 0.35388(3) 0.99063(3) 0.17455(3)
N1_112 N 0.36938(9) 0.95466(9) 0.13562(9)
C1_112 C 0.34766(10) 0.96285(10) 0.15023(11)
C2_112 C 0.32224(11) 0.95130(10) 0.14595(12)
H1_112 H 0.307419 0.957134 0.156970
C3_112 C 0.33931(11) 0.92443(12) 0.11222(13)
H2_112 H 0.337008 0.910983 0.098468
C4_112 C 0.36500(11) 0.93552(11) 0.11666(12)
H3_112 H 0.379889 0.929346 0.105927
H8_112 H 0.307304 0.992238 0.211892
C11_112 C 0.35923(11) 0.97420(12) 0.20714(11)
C12_112 C 0.37214(18) 0.98969(16) 0.22736(14)
C13_84 C 0.3767(2) 0.97842(18) 0.25310(15)
H10_84 H 0.385115 0.988902 0.267067
C14_84 C 0.3689(2) 0.9519(2) 0.25793(17)
H11_84 H 0.371614 0.944224 0.275532
C15_112 C 0.35746(19) 0.9364(2) 0.23819(19)
H12_112 H 0.353056 0.917914 0.241726
C16_112 C 0.35206(15) 0.94775(16) 0.21242(16)
H13_112 H 0.343461 0.937089 0.198724
N3_112 N 0.42545(14) 0.96362(17) 0.17947(13)
C17_112 C 0.4290(2) 0.9487(3) 0.1968(2)
C18_112 C 0.4338(3) 0.9287(3) 0.2220(3)
H14_112 H 0.436426 0.939395 0.238693
H15_112 H 0.417859 0.916807 0.224211
H16_112 H 0.450011 0.917487 0.218688
C5_113 C 0.00696(11) 0.17628(13) 0.32068(12)
C6_113 C 0.02447(16) 0.15456(17) 0.31413(16)
H4_113 H 0.026796 0.139929 0.326612
C7_113 C 0.03838(19) 0.1544(2) 0.28944(19)
H5_113 H 0.050962 0.140275 0.285344
C8_113 C 0.03372(16) 0.1750(2) 0.27103(17)
H6_113 H 0.042109 0.174262 0.253582
C9_113 C 0.01762(16) 0.19604(19) 0.27723(15)
H7_113 H 0.015381 0.210516 0.264557
C10_113 C 0.00368(15) 0.19690(16) 0.30289(13)
H9_113 H 0.007833 0.223566 0.377772
P2_65 P 0.00937(3) 0.10388(3) 0.42455(3)
P1_65 P 0.99063(3) 0.17455(3) 0.35388(3)
N1_113 N 0.95466(9) 0.13562(9) 0.36938(9)
C1_113 C 0.96285(10) 0.15023(11) 0.34766(10)
C2_113 C 0.95130(10) 0.14595(12) 0.32224(11)
H1_113 H 0.957134 0.156970 0.307419
C3_113 C 0.92443(12) 0.11222(13) 0.33931(11)
H2_113 H 0.910983 0.098468 0.337008
C4_113 C 0.93552(11) 0.11666(12) 0.36500(11)
H3_113 H 0.929346 0.105927 0.379889
H8_113 H 0.992238 0.211892 0.307304
C11_113 C 0.97420(12) 0.20714(11) 0.35923(11)
C12_113 C 0.98969(16) 0.22736(14) 0.37214(18)
C13_85 C 0.97842(18) 0.25310(15) 0.3767(2)
H10_85 H 0.988902 0.267067 0.385115
C14_85 C 0.9519(2) 0.25793(17) 0.3689(2)
H11_85 H 0.944224 0.275532 0.371614
C15_113 C 0.9364(2) 0.23819(19) 0.35746(19)
H12_113 H 0.917914 0.241726 0.353056
C16_113 C 0.94775(16) 0.21242(16) 0.35206(15)
H13_113 H 0.937089 0.198724 0.343461
N3_113 N 0.96362(17) 0.17947(13) 0.42545(14)
C17_113 C 0.9487(3) 0.1968(2) 0.4290(2)
C18_113 C 0.9287(3) 0.2220(3) 0.4338(3)
H14_113 H 0.939395 0.238693 0.436426
H15_113 H 0.916807 0.224211 0.417859
H16_113 H 0.917487 0.218688 0.450011
P1_66 P 0.25937(3) 0.67455(3) 0.39612(3)
N1_114 N 0.29534(9) 0.63562(9) 0.38062(9)
C1_114 C 0.28715(10) 0.65023(11) 0.40234(10)
C2_114 C 0.29870(10) 0.64595(12) 0.42776(11)
H1_114 H 0.292866 0.656970 0.442581
C3_114 C 0.32557(12) 0.61222(13) 0.41069(11)
H2_114 H 0.339017 0.598468 0.412992
C4_114 C 0.31448(11) 0.61666(12) 0.38500(11)
H3_114 H 0.320654 0.605927 0.370111
C5_114 C 0.24304(11) 0.67628(13) 0.42932(12)
C6_114 C 0.22553(16) 0.65456(17) 0.43587(16)
H4_114 H 0.223204 0.639929 0.423388
C7_114 C 0.21162(19) 0.6544(2) 0.46056(19)
H5_114 H 0.199038 0.640275 0.464656
C8_114 C 0.21628(16) 0.6750(2) 0.47897(17)
H6_114 H 0.207891 0.674262 0.496418
C9_114 C 0.23238(16) 0.69604(19) 0.47277(15)
H7_114 H 0.234619 0.710516 0.485443
C10_114 C 0.24632(15) 0.69690(16) 0.44711(13)
H8_114 H 0.257762 0.711892 0.442696
C11_114 C 0.27580(12) 0.70714(11) 0.39077(11)
C12_114 C 0.26031(16) 0.72736(14) 0.37786(18)
H9_114 H 0.242167 0.723566 0.372228
C13_86 C 0.27158(18) 0.75310(15) 0.3733(2)
H10_86 H 0.261098 0.767067 0.364885
C14_86 C 0.2981(2) 0.75793(17) 0.3811(2)
H11_86 H 0.305776 0.775532 0.378386
C15_114 C 0.3136(2) 0.73819(19) 0.39254(19)
H12_114 H 0.332086 0.741726 0.396944
C16_114 C 0.30225(16) 0.71242(16) 0.39794(15)
H13_114 H 0.312911 0.698724 0.406539
N3_114 N 0.28638(17) 0.67947(13) 0.32455(14)
C17_114 C 0.3013(3) 0.6968(2) 0.3210(2)
C18_114 C 0.3213(3) 0.7220(3) 0.3162(3)
H14_114 H 0.310605 0.738693 0.313574
H15_114 H 0.333193 0.724211 0.332141
H16_114 H 0.332513 0.718688 0.299989
P2_66 P 0.24063(3) 0.60388(3) 0.32545(3)
P1_67 P 0.75937(3) 0.07545(3) 0.85388(3)
N1_115 N 0.79534(9) 0.11438(9) 0.86938(9)
C1_115 C 0.78715(10) 0.09977(11) 0.84766(10)
C2_115 C 0.79870(10) 0.10405(12) 0.82224(11)
H1_115 H 0.792866 0.093030 0.807419
C3_115 C 0.82557(12) 0.13778(13) 0.83931(11)
H2_115 H 0.839017 0.151532 0.837008
C4_115 C 0.81448(11) 0.13334(12) 0.86500(11)
H3_115 H 0.820654 0.144073 0.879889
C5_115 C 0.74304(11) 0.07372(13) 0.82068(12)
C6_115 C 0.72553(16) 0.09544(17) 0.81413(16)
H4_115 H 0.723204 0.110071 0.826612
C7_115 C 0.71162(19) 0.0956(2) 0.78944(19)
H5_115 H 0.699038 0.109725 0.785344
C8_115 C 0.71628(16) 0.0750(2) 0.77103(17)
H6_115 H 0.707891 0.075738 0.753582
C9_115 C 0.73238(16) 0.05396(19) 0.77723(15)
H7_115 H 0.734619 0.039484 0.764557
C10_115 C 0.74632(15) 0.05310(16) 0.80289(13)
H8_115 H 0.757762 0.038108 0.807304
C11_115 C 0.77580(12) 0.04286(11) 0.85923(11)
C12_115 C 0.76031(16) 0.02264(14) 0.87214(18)
H9_115 H 0.742167 0.026434 0.877772
C15_115 C 0.8136(2) 0.01181(19) 0.85746(19)
H12_115 H 0.832086 0.008274 0.853056
C16_115 C 0.80225(16) 0.03758(16) 0.85206(15)
H13_115 H 0.812911 0.051276 0.843461
N3_115 N 0.78638(17) 0.07053(13) 0.92545(14)
C17_115 C 0.8013(3) 0.0532(2) 0.9290(2)
C18_115 C 0.8213(3) 0.0280(3) 0.9338(3)
H14_115 H 0.810605 0.011307 0.936426
H15_115 H 0.833193 0.025789 0.917859
H16_115 H 0.832513 0.031312 0.950011
P2_67 P 0.74063(3) 0.14612(3) 0.92455(3)
P1_68 P 0.49063(3) 0.57545(3) 0.89612(3)
N1_116 N 0.45466(9) 0.61438(9) 0.88062(9)
C1_116 C 0.46285(10) 0.59977(11) 0.90234(10)
C2_116 C 0.45130(10) 0.60405(12) 0.92776(11)
H1_116 H 0.457134 0.593030 0.942581
C3_116 C 0.42443(12) 0.63778(13) 0.91069(11)
H2_116 H 0.410983 0.651532 0.912992
C4_116 C 0.43552(11) 0.63334(12) 0.88500(11)
H3_116 H 0.429346 0.644073 0.870111
C5_116 C 0.50696(11) 0.57372(13) 0.92932(12)
C6_116 C 0.52447(16) 0.59544(17) 0.93587(16)
H4_116 H 0.526796 0.610071 0.923388
C7_116 C 0.53838(19) 0.5956(2) 0.96056(19)
H5_116 H 0.550962 0.609725 0.964656
C8_116 C 0.53372(16) 0.5750(2) 0.97897(17)
H6_116 H 0.542109 0.575738 0.996418
C9_116 C 0.51762(16) 0.55396(19) 0.97277(15)
H7_116 H 0.515381 0.539484 0.985443
C10_116 C 0.50368(15) 0.55310(16) 0.94711(13)
H8_116 H 0.492238 0.538108 0.942696
C11_116 C 0.47420(12) 0.54286(11) 0.89077(11)
C12_116 C 0.48969(16) 0.52264(14) 0.87786(18)
H9_116 H 0.507833 0.526434 0.872228
C13_87 C 0.47842(18) 0.49690(15) 0.8733(2)
H10_87 H 0.488902 0.482933 0.864885
C14_87 C 0.4519(2) 0.49207(17) 0.8811(2)
H11_87 H 0.444224 0.474468 0.878386
C15_116 C 0.4364(2) 0.51181(19) 0.89254(19)
H12_116 H 0.417914 0.508274 0.896944
C16_116 C 0.44775(16) 0.53758(16) 0.89794(15)
H13_116 H 0.437089 0.551276 0.906539
N3_116 N 0.46362(17) 0.57053(13) 0.82455(14)
C17_116 C 0.4487(3) 0.5532(2) 0.8210(2)
C18_116 C 0.4287(3) 0.5280(3) 0.8162(3)
H14_116 H 0.439395 0.511307 0.813574
H15_116 H 0.416807 0.525789 0.832141
H16_116 H 0.417487 0.531312 0.799989
P2_68 P 0.50937(3) 0.64612(3) 0.82545(3)
P1_69 P 0.67455(3) 0.39612(3) 0.25937(3)
N1_117 N 0.63562(9) 0.38062(9) 0.29534(9)
C1_117 C 0.65023(11) 0.40234(10) 0.28715(10)
C2_117 C 0.64595(12) 0.42776(11) 0.29870(10)
H1_117 H 0.656970 0.442581 0.292866
C3_117 C 0.61222(13) 0.41069(11) 0.32557(12)
H2_117 H 0.598468 0.412992 0.339017
C4_117 C 0.61666(12) 0.38500(11) 0.31448(11)
H3_117 H 0.605927 0.370111 0.320654
C5_117 C 0.67628(13) 0.42932(12) 0.24304(11)
C6_117 C 0.65456(17) 0.43587(16) 0.22553(16)
H4_117 H 0.639929 0.423388 0.223204
C7_117 C 0.6544(2) 0.46056(19) 0.21162(19)
H5_117 H 0.640275 0.464656 0.199038
C8_117 C 0.6750(2) 0.47897(17) 0.21628(16)
H6_117 H 0.674262 0.496418 0.207891
C9_117 C 0.69604(19) 0.47277(15) 0.23238(16)
H7_117 H 0.710516 0.485443 0.234619
C10_117 C 0.69690(16) 0.44711(13) 0.24632(15)
H8_117 H 0.711892 0.442696 0.257762
C11_117 C 0.70714(11) 0.39077(11) 0.27580(12)
C12_117 C 0.72736(14) 0.37786(18) 0.26031(16)
H9_117 H 0.723566 0.372228 0.242167
C13_88 C 0.75310(15) 0.3733(2) 0.27158(18)
H10_88 H 0.767067 0.364885 0.261098
C14_88 C 0.75793(17) 0.3811(2) 0.2981(2)
H11_88 H 0.775532 0.378386 0.305776
C15_117 C 0.73819(19) 0.39254(19) 0.3136(2)
H12_117 H 0.741726 0.396944 0.332086
C16_117 C 0.71242(16) 0.39794(15) 0.30225(16)
H13_117 H 0.698724 0.406539 0.312911
N3_117 N 0.67947(13) 0.32455(14) 0.28638(17)
C17_117 C 0.6968(2) 0.3210(2) 0.3013(3)
C18_117 C 0.7220(3) 0.3162(3) 0.3213(3)
H14_117 H 0.738693 0.313574 0.310605
H15_117 H 0.724211 0.332141 0.333193
H16_117 H 0.718688 0.299989 0.332513
P2_69 P 0.60388(3) 0.32545(3) 0.24063(3)
C5_118 C 0.17628(13) 0.32068(12) 0.00696(11)
C6_118 C 0.15456(17) 0.31413(16) 0.02447(16)
H4_118 H 0.139929 0.326612 0.026796
C7_118 C 0.1544(2) 0.28944(19) 0.03838(19)
H5_118 H 0.140275 0.285344 0.050962
C8_118 C 0.1750(2) 0.27103(17) 0.03372(16)
H6_118 H 0.174262 0.253582 0.042109
C9_118 C 0.19604(19) 0.27723(15) 0.01762(16)
H7_118 H 0.210516 0.264557 0.015381
C10_118 C 0.19690(16) 0.30289(13) 0.00368(15)
H9_118 H 0.223566 0.377772 0.007833
P2_70 P 0.10388(3) 0.42455(3) 0.00937(3)
P1_70 P 0.17455(3) 0.35388(3) 0.99063(3)
N1_118 N 0.13562(9) 0.36938(9) 0.95466(9)
C1_118 C 0.15023(11) 0.34766(10) 0.96285(10)
C2_118 C 0.14595(12) 0.32224(11) 0.95130(10)
H1_118 H 0.156970 0.307419 0.957134
C3_118 C 0.11222(13) 0.33931(11) 0.92443(12)
H2_118 H 0.098468 0.337008 0.910983
C4_118 C 0.11666(12) 0.36500(11) 0.93552(11)
H3_118 H 0.105927 0.379889 0.929346
H8_118 H 0.211892 0.307304 0.992238
C11_118 C 0.20714(11) 0.35923(11) 0.97420(12)
C12_118 C 0.22736(14) 0.37214(18) 0.98969(16)
C13_89 C 0.25310(15) 0.3767(2) 0.97842(18)
H10_89 H 0.267067 0.385115 0.988902
C14_89 C 0.25793(17) 0.3689(2) 0.9519(2)
H11_89 H 0.275532 0.371614 0.944224
C15_118 C 0.23819(19) 0.35746(19) 0.9364(2)
H12_118 H 0.241726 0.353056 0.917914
C16_118 C 0.21242(16) 0.35206(15) 0.94775(16)
H13_118 H 0.198724 0.343461 0.937089
N3_118 N 0.17947(13) 0.42545(14) 0.96362(17)
C17_118 C 0.1968(2) 0.4290(2) 0.9487(3)
C18_118 C 0.2220(3) 0.4338(3) 0.9287(3)
H14_118 H 0.238693 0.436426 0.939395
H15_118 H 0.224211 0.417859 0.916807
H16_118 H 0.218688 0.450011 0.917487
P1_71 P 0.57545(3) 0.89612(3) 0.49063(3)
N1_119 N 0.61438(9) 0.88062(9) 0.45466(9)
C1_119 C 0.59977(11) 0.90234(10) 0.46285(10)
C2_119 C 0.60405(12) 0.92776(11) 0.45130(10)
H1_119 H 0.593030 0.942581 0.457134
C3_119 C 0.63778(13) 0.91069(11) 0.42443(12)
H2_119 H 0.651532 0.912992 0.410983
C4_119 C 0.63334(12) 0.88500(11) 0.43552(11)
H3_119 H 0.644073 0.870111 0.429346
C5_119 C 0.57372(13) 0.92932(12) 0.50696(11)
C6_119 C 0.59544(17) 0.93587(16) 0.52447(16)
H4_119 H 0.610071 0.923388 0.526796
C7_119 C 0.5956(2) 0.96056(19) 0.53838(19)
H5_119 H 0.609725 0.964656 0.550962
C8_119 C 0.5750(2) 0.97897(17) 0.53372(16)
H6_119 H 0.575738 0.996418 0.542109
C9_119 C 0.55396(19) 0.97277(15) 0.51762(16)
H7_119 H 0.539484 0.985443 0.515381
C10_119 C 0.55310(16) 0.94711(13) 0.50368(15)
H8_119 H 0.538108 0.942696 0.492238
C11_119 C 0.54286(11) 0.89077(11) 0.47420(12)
C12_119 C 0.52264(14) 0.87786(18) 0.48969(16)
H9_119 H 0.526434 0.872228 0.507833
C13_90 C 0.49690(15) 0.8733(2) 0.47842(18)
H10_90 H 0.482933 0.864885 0.488902
C14_90 C 0.49207(17) 0.8811(2) 0.4519(2)
H11_90 H 0.474468 0.878386 0.444224
C15_119 C 0.51181(19) 0.89254(19) 0.4364(2)
H12_119 H 0.508274 0.896944 0.417914
C16_119 C 0.53758(16) 0.89794(15) 0.44775(16)
H13_119 H 0.551276 0.906539 0.437089
N3_119 N 0.57053(13) 0.82455(14) 0.46362(17)
C17_119 C 0.5532(2) 0.8210(2) 0.4487(3)
C18_119 C 0.5280(3) 0.8162(3) 0.4287(3)
H14_119 H 0.511307 0.813574 0.439395
H15_119 H 0.525789 0.832141 0.416807
H16_119 H 0.531312 0.799989 0.417487
P2_71 P 0.64612(3) 0.82545(3) 0.50937(3)
P1_72 P 0.07545(3) 0.85388(3) 0.75937(3)
N1_120 N 0.11438(9) 0.86938(9) 0.79534(9)
C1_120 C 0.09977(11) 0.84766(10) 0.78715(10)
C2_120 C 0.10405(12) 0.82224(11) 0.79870(10)
H1_120 H 0.093030 0.807419 0.792866
C3_120 C 0.13778(13) 0.83931(11) 0.82557(12)
H2_120 H 0.151532 0.837008 0.839017
C4_120 C 0.13334(12) 0.86500(11) 0.81448(11)
H3_120 H 0.144073 0.879889 0.820654
C5_120 C 0.07372(13) 0.82068(12) 0.74304(11)
C6_120 C 0.09544(17) 0.81413(16) 0.72553(16)
H4_120 H 0.110071 0.826612 0.723204
C7_120 C 0.0956(2) 0.78944(19) 0.71162(19)
H5_120 H 0.109725 0.785344 0.699038
C8_120 C 0.0750(2) 0.77103(17) 0.71628(16)
H6_120 H 0.075738 0.753582 0.707891
C9_120 C 0.05396(19) 0.77723(15) 0.73238(16)
H7_120 H 0.039484 0.764557 0.734619
C10_120 C 0.05310(16) 0.80289(13) 0.74632(15)
H8_120 H 0.038108 0.807304 0.757762
C11_120 C 0.04286(11) 0.85923(11) 0.77580(12)
C12_120 C 0.02264(14) 0.87214(18) 0.76031(16)
H9_120 H 0.026434 0.877772 0.742167
C15_120 C 0.01181(19) 0.85746(19) 0.8136(2)
H12_120 H 0.008274 0.853056 0.832086
C16_120 C 0.03758(16) 0.85206(15) 0.80225(16)
H13_120 H 0.051276 0.843461 0.812911
N3_120 N 0.07053(13) 0.92545(14) 0.78638(17)
C17_120 C 0.0532(2) 0.9290(2) 0.8013(3)
C18_120 C 0.0280(3) 0.9338(3) 0.8213(3)
H14_120 H 0.011307 0.936426 0.810605
H15_120 H 0.025789 0.917859 0.833193
H16_120 H 0.031312 0.950011 0.832513
P2_72 P 0.14612(3) 0.92455(3) 0.74063(3)
N1_121 N 0.70466(9) 0.13062(9) 0.88562(9)
C1_121 C 0.71285(10) 0.15234(10) 0.90023(11)
C2_121 C 0.70130(10) 0.17776(11) 0.89595(12)
H1_121 H 0.707134 0.192581 0.906970
C3_121 C 0.67443(12) 0.16069(11) 0.86222(13)
H2_121 H 0.660983 0.162992 0.848468
C4_121 C 0.68552(11) 0.13500(11) 0.86666(12)
H3_121 H 0.679346 0.120111 0.855927
C5_121 C 0.75696(11) 0.17932(12) 0.92628(13)
C6_121 C 0.77447(16) 0.18587(16) 0.90456(17)
H4_121 H 0.776796 0.173388 0.889929
C7_121 C 0.78838(19) 0.21056(19) 0.9044(2)
H5_121 H 0.800962 0.214656 0.890275
C8_121 C 0.78372(16) 0.22897(17) 0.9250(2)
H6_121 H 0.792109 0.246418 0.924262
C9_121 C 0.76762(16) 0.22277(15) 0.94604(19)
H7_121 H 0.765381 0.235443 0.960516
C10_121 C 0.75368(15) 0.19711(13) 0.94690(16)
H8_121 H 0.742238 0.192696 0.961892
C11_121 C 0.72420(12) 0.14077(11) 0.95714(11)
C12_121 C 0.73969(16) 0.12786(18) 0.97736(14)
H9_121 H 0.757833 0.122228 0.973566
C15_121 C 0.6864(2) 0.14254(19) 0.98819(19)
H12_121 H 0.667914 0.146944 0.991726
C16_121 C 0.69775(16) 0.14794(15) 0.96242(16)
H13_121 H 0.687089 0.156539 0.948724
N3_121 N 0.71362(17) 0.07455(14) 0.92947(13)
C17_121 C 0.6987(3) 0.0710(2) 0.9468(2)
C18_121 C 0.6787(3) 0.0662(3) 0.9720(3)
H14_121 H 0.689395 0.063574 0.988693
H15_121 H 0.666807 0.082141 0.974211
H16_121 H 0.667487 0.049989 0.968688
N1_122 N 0.04534(9) 0.11938(9) 0.38562(9)
C1_122 C 0.03715(10) 0.09766(10) 0.40023(11)
C2_122 C 0.04870(10) 0.07224(11) 0.39595(12)
H1_122 H 0.042866 0.057419 0.406970
C3_122 C 0.07557(12) 0.08931(11) 0.36222(13)
H2_122 H 0.089017 0.087008 0.348468
C4_122 C 0.06448(11) 0.11500(11) 0.36666(12)
H3_122 H 0.070654 0.129889 0.355927
H8_122 H 0.007762 0.057304 0.461892
C11_122 C 0.02580(12) 0.10923(11) 0.45714(11)
C12_122 C 0.01031(16) 0.12214(18) 0.47736(14)
C13_91 C 0.02158(18) 0.1267(2) 0.50310(15)
H10_91 H 0.011098 0.135115 0.517067
C14_91 C 0.0481(2) 0.1189(2) 0.50793(17)
H11_91 H 0.055776 0.121614 0.525532
C15_122 C 0.0636(2) 0.10746(19) 0.48819(19)
H12_122 H 0.082086 0.103056 0.491726
C16_122 C 0.05225(16) 0.10206(15) 0.46242(16)
H13_122 H 0.062911 0.093461 0.448724
N3_122 N 0.03638(17) 0.17545(14) 0.42947(13)
C17_122 C 0.0513(3) 0.1790(2) 0.4468(2)
C18_122 C 0.0713(3) 0.1838(3) 0.4720(3)
H14_122 H 0.060605 0.186426 0.488693
H15_122 H 0.083193 0.167859 0.474211
H16_122 H 0.082513 0.200011 0.468688
C5_122 C 0.99304(11) 0.07068(12) 0.42628(13)
C6_122 C 0.97553(16) 0.06413(16) 0.40456(17)
H4_122 H 0.973204 0.076612 0.389929
C7_122 C 0.96162(19) 0.03944(19) 0.4044(2)
H5_122 H 0.949038 0.035344 0.390275
C8_122 C 0.96628(16) 0.02103(17) 0.4250(2)
H6_122 H 0.957891 0.003582 0.424262
C9_122 C 0.98238(16) 0.02723(15) 0.44604(19)
H7_122 H 0.984619 0.014557 0.460516
C10_122 C 0.99632(15) 0.05289(13) 0.44690(16)
H9_122 H 0.992167 0.127772 0.473566
N1_123 N 0.54534(9) 0.63062(9) 0.86438(9)
C1_123 C 0.53715(10) 0.65234(10) 0.84977(11)
C2_123 C 0.54870(10) 0.67776(11) 0.85405(12)
H1_123 H 0.542866 0.692581 0.843030
C3_123 C 0.57557(12) 0.66069(11) 0.88778(13)
H2_123 H 0.589017 0.662992 0.901532
C4_123 C 0.56448(11) 0.63500(11) 0.88334(12)
H3_123 H 0.570654 0.620111 0.894073
C5_123 C 0.49304(11) 0.67932(12) 0.82372(13)
C6_123 C 0.47553(16) 0.68587(16) 0.84544(17)
H4_123 H 0.473204 0.673388 0.860071
C7_123 C 0.46162(19) 0.71056(19) 0.8456(2)
H5_123 H 0.449038 0.714656 0.859725
C8_123 C 0.46628(16) 0.72897(17) 0.8250(2)
H6_123 H 0.457891 0.746418 0.825738
C9_123 C 0.48238(16) 0.72277(15) 0.80396(19)
H7_123 H 0.484619 0.735443 0.789484
C10_123 C 0.49632(15) 0.69711(13) 0.80310(16)
H8_123 H 0.507762 0.692696 0.788108
C11_123 C 0.52580(12) 0.64077(11) 0.79286(11)
C12_123 C 0.51031(16) 0.62786(18) 0.77264(14)
H9_123 H 0.492167 0.622228 0.776434
C13_92 C 0.52158(18) 0.6233(2) 0.74690(15)
H10_92 H 0.511098 0.614885 0.732933
C14_92 C 0.5481(2) 0.6311(2) 0.74207(17)
H11_92 H 0.555776 0.628386 0.724468
C15_123 C 0.5636(2) 0.64254(19) 0.76181(19)
H12_123 H 0.582086 0.646944 0.758274
C16_123 C 0.55225(16) 0.64794(15) 0.78758(16)
H13_123 H 0.562911 0.656539 0.801276
N3_123 N 0.53638(17) 0.57455(14) 0.82053(13)
C17_123 C 0.5513(3) 0.5710(2) 0.8032(2)
C18_123 C 0.5713(3) 0.5662(3) 0.7780(3)
H14_123 H 0.560605 0.563574 0.761307
H15_123 H 0.583193 0.582141 0.775789
H16_123 H 0.582513 0.549989 0.781312
N1_124 N 0.20466(9) 0.61938(9) 0.36438(9)
C1_124 C 0.21285(10) 0.59766(10) 0.34977(11)
C2_124 C 0.20130(10) 0.57224(11) 0.35405(12)
H1_124 H 0.207134 0.557419 0.343030
C3_124 C 0.17443(12) 0.58931(11) 0.38778(13)
H2_124 H 0.160983 0.587008 0.401532
C4_124 C 0.18552(11) 0.61500(11) 0.38334(12)
H3_124 H 0.179346 0.629889 0.394073
C5_124 C 0.25696(11) 0.57068(12) 0.32372(13)
C6_124 C 0.27447(16) 0.56413(16) 0.34544(17)
H4_124 H 0.276796 0.576612 0.360071
C7_124 C 0.28838(19) 0.53944(19) 0.3456(2)
H5_124 H 0.300962 0.535344 0.359725
C8_124 C 0.28372(16) 0.52103(17) 0.3250(2)
H6_124 H 0.292109 0.503582 0.325738
C9_124 C 0.26762(16) 0.52723(15) 0.30396(19)
H7_124 H 0.265381 0.514557 0.289484
C10_124 C 0.25368(15) 0.55289(13) 0.30310(16)
H8_124 H 0.242238 0.557304 0.288108
C11_124 C 0.22420(12) 0.60923(11) 0.29286(11)
C12_124 C 0.23969(16) 0.62214(18) 0.27264(14)
H9_124 H 0.257833 0.627772 0.276434
C13_93 C 0.22842(18) 0.6267(2) 0.24690(15)
H10_93 H 0.238902 0.635115 0.232933
C14_93 C 0.2019(2) 0.6189(2) 0.24207(17)
H11_93 H 0.194224 0.621614 0.224468
C15_124 C 0.1864(2) 0.60746(19) 0.26181(19)
H12_124 H 0.167914 0.603056 0.258274
C16_124 C 0.19775(16) 0.60206(15) 0.28758(16)
H13_124 H 0.187089 0.593461 0.301276
N3_124 N 0.21362(17) 0.67545(14) 0.32053(13)
C17_124 C 0.1987(3) 0.6790(2) 0.3032(2)
C18_124 C 0.1787(3) 0.6838(3) 0.2780(3)
H14_124 H 0.189395 0.686426 0.261307
H15_124 H 0.166807 0.667859 0.275789
H16_124 H 0.167487 0.700011 0.281312
P1_73 P 0.42455(3) 0.24063(3) 0.14612(3)
N1_125 N 0.38562(9) 0.20466(9) 0.13062(9)
C1_125 C 0.40023(11) 0.21285(10) 0.15234(10)
C2_125 C 0.39595(12) 0.20130(10) 0.17776(11)
H1_125 H 0.406970 0.207134 0.192581
C3_125 C 0.36222(13) 0.17443(12) 0.16069(11)
H2_125 H 0.348468 0.160983 0.162992
C4_125 C 0.36666(12) 0.18552(11) 0.13500(11)
H3_125 H 0.355927 0.179346 0.120111
C5_125 C 0.42628(13) 0.25696(11) 0.17932(12)
C6_125 C 0.40456(17) 0.27447(16) 0.18587(16)
H4_125 H 0.389929 0.276796 0.173388
C7_125 C 0.4044(2) 0.28838(19) 0.21056(19)
H5_125 H 0.390275 0.300962 0.214656
C8_125 C 0.4250(2) 0.28372(16) 0.22897(17)
H6_125 H 0.424262 0.292109 0.246418
C9_125 C 0.44604(19) 0.26762(16) 0.22277(15)
H7_125 H 0.460516 0.265381 0.235443
C10_125 C 0.44690(16) 0.25368(15) 0.19711(13)
H8_125 H 0.461892 0.242238 0.192696
C11_125 C 0.45714(11) 0.22420(12) 0.14077(11)
C12_125 C 0.47736(14) 0.23969(16) 0.12786(18)
H9_125 H 0.473566 0.257833 0.122228
C13_94 C 0.50310(15) 0.22842(18) 0.1233(2)
H10_94 H 0.517067 0.238902 0.114885
C14_94 C 0.50793(17) 0.2019(2) 0.1311(2)
H11_94 H 0.525532 0.194224 0.128386
C15_125 C 0.48819(19) 0.1864(2) 0.14254(19)
H12_125 H 0.491726 0.167914 0.146944
C16_125 C 0.46242(16) 0.19775(16) 0.14794(15)
H13_125 H 0.448724 0.187089 0.156539
N3_125 N 0.42947(13) 0.21362(17) 0.07455(14)
C17_125 C 0.4468(2) 0.1987(3) 0.0710(2)
C18_125 C 0.4720(3) 0.1787(3) 0.0662(3)
H14_125 H 0.488693 0.189395 0.063574
H15_125 H 0.474211 0.166807 0.082141
H16_125 H 0.468688 0.167487 0.049989
P2_73 P 0.35388(3) 0.25937(3) 0.07545(3)
P1_74 P 0.92455(3) 0.50937(3) 0.10388(3)
N1_126 N 0.88562(9) 0.54534(9) 0.11938(9)
C1_126 C 0.90023(11) 0.53715(10) 0.09766(10)
C2_126 C 0.89595(12) 0.54870(10) 0.07224(11)
H1_126 H 0.906970 0.542866 0.057419
C3_126 C 0.86222(13) 0.57557(12) 0.08931(11)
H2_126 H 0.848468 0.589017 0.087008
C4_126 C 0.86666(12) 0.56448(11) 0.11500(11)
H3_126 H 0.855927 0.570654 0.129889
C5_126 C 0.92628(13) 0.49304(11) 0.07068(12)
C6_126 C 0.90456(17) 0.47553(16) 0.06413(16)
H4_126 H 0.889929 0.473204 0.076612
C7_126 C 0.9044(2) 0.46162(19) 0.03944(19)
H5_126 H 0.890275 0.449038 0.035344
C8_126 C 0.9250(2) 0.46628(16) 0.02103(17)
H6_126 H 0.924262 0.457891 0.003582
C9_126 C 0.94604(19) 0.48238(16) 0.02723(15)
H7_126 H 0.960516 0.484619 0.014557
C10_126 C 0.94690(16) 0.49632(15) 0.05289(13)
H8_126 H 0.961892 0.507762 0.057304
C11_126 C 0.95714(11) 0.52580(12) 0.10923(11)
C12_126 C 0.97736(14) 0.51031(16) 0.12214(18)
H9_126 H 0.973566 0.492167 0.127772
C15_126 C 0.98819(19) 0.5636(2) 0.10746(19)
H12_126 H 0.991726 0.582086 0.103056
C16_126 C 0.96242(16) 0.55225(16) 0.10206(15)
H13_126 H 0.948724 0.562911 0.093461
N3_126 N 0.92947(13) 0.53638(17) 0.17545(14)
C17_126 C 0.9468(2) 0.5513(3) 0.1790(2)
C18_126 C 0.9720(3) 0.5713(3) 0.1838(3)
H14_126 H 0.988693 0.560605 0.186426
H15_126 H 0.974211 0.583193 0.167859
H16_126 H 0.968688 0.582513 0.200011
P2_74 P 0.85388(3) 0.49063(3) 0.17455(3)
P1_75 P 0.32545(3) 0.00937(3) 0.64612(3)
N1_127 N 0.36438(9) 0.04534(9) 0.63062(9)
C1_127 C 0.34977(11) 0.03715(10) 0.65234(10)
C2_127 C 0.35405(12) 0.04870(10) 0.67776(11)
H1_127 H 0.343030 0.042866 0.692581
C3_127 C 0.38778(13) 0.07557(12) 0.66069(11)
H2_127 H 0.401532 0.089017 0.662992
C4_127 C 0.38334(12) 0.06448(11) 0.63500(11)
H3_127 H 0.394073 0.070654 0.620111
H8_127 H 0.288108 0.007762 0.692696
C11_127 C 0.29286(11) 0.02580(12) 0.64077(11)
C12_127 C 0.27264(14) 0.01031(16) 0.62786(18)
C13_95 C 0.24690(15) 0.02158(18) 0.6233(2)
H10_95 H 0.232933 0.011098 0.614885
C14_95 C 0.24207(17) 0.0481(2) 0.6311(2)
H11_95 H 0.224468 0.055776 0.628386
C15_127 C 0.26181(19) 0.0636(2) 0.64254(19)
H12_127 H 0.258274 0.082086 0.646944
C16_127 C 0.28758(16) 0.05225(16) 0.64794(15)
H13_127 H 0.301276 0.062911 0.656539
N3_127 N 0.32053(13) 0.03638(17) 0.57455(14)
C17_127 C 0.3032(2) 0.0513(3) 0.5710(2)
C18_127 C 0.2780(3) 0.0713(3) 0.5662(3)
H14_127 H 0.261307 0.060605 0.563574
H15_127 H 0.275789 0.083193 0.582141
H16_127 H 0.281312 0.082513 0.549989
C5_127 C 0.32372(13) 0.99304(11) 0.67932(12)
C6_127 C 0.34544(17) 0.97553(16) 0.68587(16)
H4_127 H 0.360071 0.973204 0.673388
C7_127 C 0.3456(2) 0.96162(19) 0.71056(19)
H5_127 H 0.359725 0.949038 0.714656
C8_127 C 0.3250(2) 0.96628(16) 0.72897(17)
H6_127 H 0.325738 0.957891 0.746418
C9_127 C 0.30396(19) 0.98238(16) 0.72277(15)
H7_127 H 0.289484 0.984619 0.735443
C10_127 C 0.30310(16) 0.99632(15) 0.69711(13)
H9_127 H 0.276434 0.992167 0.622228
P2_75 P 0.39612(3) 0.99063(3) 0.57545(3)
P1_76 P 0.82545(3) 0.74063(3) 0.60388(3)
N1_128 N 0.86438(9) 0.70466(9) 0.61938(9)
C1_128 C 0.84977(11) 0.71285(10) 0.59766(10)
C2_128 C 0.85405(12) 0.70130(10) 0.57224(11)
H1_128 H 0.843030 0.707134 0.557419
C3_128 C 0.88778(13) 0.67443(12) 0.58931(11)
H2_128 H 0.901532 0.660983 0.587008
C4_128 C 0.88334(12) 0.68552(11) 0.61500(11)
H3_128 H 0.894073 0.679346 0.629889
C5_128 C 0.82372(13) 0.75696(11) 0.57068(12)
C6_128 C 0.84544(17) 0.77447(16) 0.56413(16)
H4_128 H 0.860071 0.776796 0.576612
C7_128 C 0.8456(2) 0.78838(19) 0.53944(19)
H5_128 H 0.859725 0.800962 0.535344
C8_128 C 0.8250(2) 0.78372(16) 0.52103(17)
H6_128 H 0.825738 0.792109 0.503582
C9_128 C 0.80396(19) 0.76762(16) 0.52723(15)
H7_128 H 0.789484 0.765381 0.514557
C10_128 C 0.80310(16) 0.75368(15) 0.55289(13)
H8_128 H 0.788108 0.742238 0.557304
C11_128 C 0.79286(11) 0.72420(12) 0.60923(11)
C12_128 C 0.77264(14) 0.73969(16) 0.62214(18)
H9_128 H 0.776434 0.757833 0.627772
C13_96 C 0.74690(15) 0.72842(18) 0.6267(2)
H10_96 H 0.732933 0.738902 0.635115
C14_96 C 0.74207(17) 0.7019(2) 0.6189(2)
H11_96 H 0.724468 0.694224 0.621614
C15_128 C 0.76181(19) 0.6864(2) 0.60746(19)
H12_128 H 0.758274 0.667914 0.603056
C16_128 C 0.78758(16) 0.69775(16) 0.60206(15)
H13_128 H 0.801276 0.687089 0.593461
N3_128 N 0.82053(13) 0.71362(17) 0.67545(14)
C17_128 C 0.8032(2) 0.6987(3) 0.6790(2)
C18_128 C 0.7780(3) 0.6787(3) 0.6838(3)
H14_128 H 0.761307 0.689395 0.686426
H15_128 H 0.775789 0.666807 0.667859
H16_128 H 0.781312 0.667487 0.700011
P2_76 P 0.89612(3) 0.75937(3) 0.67455(3)
P1_77 P 0.64612(3) 0.92455(3) 0.24063(3)
N1_129 N 0.63062(9) 0.88562(9) 0.20466(9)
C1_129 C 0.65234(10) 0.90023(11) 0.21285(10)
C2_129 C 0.67776(11) 0.89595(12) 0.20130(10)
H1_129 H 0.692581 0.906970 0.207134
C3_129 C 0.66069(11) 0.86222(13) 0.17443(12)
H2_129 H 0.662992 0.848468 0.160983
C4_129 C 0.63500(11) 0.86666(12) 0.18552(11)
H3_129 H 0.620111 0.855927 0.179346
C5_129 C 0.67932(12) 0.92628(13) 0.25696(11)
C6_129 C 0.68587(16) 0.90456(17) 0.27447(16)
H4_129 H 0.673388 0.889929 0.276796
C7_129 C 0.71056(19) 0.9044(2) 0.28838(19)
H5_129 H 0.714656 0.890275 0.300962
C8_129 C 0.72897(17) 0.9250(2) 0.28372(16)
H6_129 H 0.746418 0.924262 0.292109
C9_129 C 0.72277(15) 0.94604(19) 0.26762(16)
H7_129 H 0.735443 0.960516 0.265381
C10_129 C 0.69711(13) 0.94690(16) 0.25368(15)
H8_129 H 0.692696 0.961892 0.242238
C11_129 C 0.64077(11) 0.95714(11) 0.22420(12)
C12_129 C 0.62786(18) 0.97736(14) 0.23969(16)
H9_129 H 0.622228 0.973566 0.257833
C15_129 C 0.64254(19) 0.98819(19) 0.1864(2)
H12_129 H 0.646944 0.991726 0.167914
C16_129 C 0.64794(15) 0.96242(16) 0.19775(16)
H13_129 H 0.656539 0.948724 0.187089
N3_129 N 0.57455(14) 0.92947(13) 0.21362(17)
C17_129 C 0.5710(2) 0.9468(2) 0.1987(3)
C18_129 C 0.5662(3) 0.9720(3) 0.1787(3)
H14_129 H 0.563574 0.988693 0.189395
H15_129 H 0.582141 0.974211 0.166807
H16_129 H 0.549989 0.968688 0.167487
P2_77 P 0.57545(3) 0.85388(3) 0.25937(3)
P1_78 P 0.60388(3) 0.42455(3) 0.50937(3)
N1_130 N 0.61938(9) 0.38562(9) 0.54534(9)
C1_130 C 0.59766(10) 0.40023(11) 0.53715(10)
C2_130 C 0.57224(11) 0.39595(12) 0.54870(10)
H1_130 H 0.557419 0.406970 0.542866
C3_130 C 0.58931(11) 0.36222(13) 0.57557(12)
H2_130 H 0.587008 0.348468 0.589017
C4_130 C 0.61500(11) 0.36666(12) 0.56448(11)
H3_130 H 0.629889 0.355927 0.570654
C5_130 C 0.57068(12) 0.42628(13) 0.49304(11)
C6_130 C 0.56413(16) 0.40456(17) 0.47553(16)
H4_130 H 0.576612 0.389929 0.473204
C7_130 C 0.53944(19) 0.4044(2) 0.46162(19)
H5_130 H 0.535344 0.390275 0.449038
C8_130 C 0.52103(17) 0.4250(2) 0.46628(16)
H6_130 H 0.503582 0.424262 0.457891
C9_130 C 0.52723(15) 0.44604(19) 0.48238(16)
H7_130 H 0.514557 0.460516 0.484619
C10_130 C 0.55289(13) 0.44690(16) 0.49632(15)
H8_130 H 0.557304 0.461892 0.507762
C11_130 C 0.60923(11) 0.45714(11) 0.52580(12)
C12_130 C 0.62214(18) 0.47736(14) 0.51031(16)
H9_130 H 0.627772 0.473566 0.492167
C13_97 C 0.6267(2) 0.50310(15) 0.52158(18)
H10_97 H 0.635115 0.517067 0.511098
C14_97 C 0.6189(2) 0.50793(17) 0.5481(2)
H11_97 H 0.621614 0.525532 0.555776
C15_130 C 0.60746(19) 0.48819(19) 0.5636(2)
H12_130 H 0.603056 0.491726 0.582086
C16_130 C 0.60206(15) 0.46242(16) 0.55225(16)
H13_130 H 0.593461 0.448724 0.562911
N3_130 N 0.67545(14) 0.42947(13) 0.53638(17)
C17_130 C 0.6790(2) 0.4468(2) 0.5513(3)
C18_130 C 0.6838(3) 0.4720(3) 0.5713(3)
H14_130 H 0.686426 0.488693 0.560605
H15_130 H 0.667859 0.474211 0.583193
H16_130 H 0.700011 0.468688 0.582513
P2_78 P 0.67455(3) 0.35388(3) 0.49063(3)
P1_79 P 0.14612(3) 0.82545(3) 0.00937(3)
N1_131 N 0.13062(9) 0.86438(9) 0.04534(9)
C1_131 C 0.15234(10) 0.84977(11) 0.03715(10)
C2_131 C 0.17776(11) 0.85405(12) 0.04870(10)
H1_131 H 0.192581 0.843030 0.042866
C3_131 C 0.16069(11) 0.88778(13) 0.07557(12)
H2_131 H 0.162992 0.901532 0.089017
C4_131 C 0.13500(11) 0.88334(12) 0.06448(11)
H3_131 H 0.120111 0.894073 0.070654
H8_131 H 0.192696 0.788108 0.007762
C11_131 C 0.14077(11) 0.79286(11) 0.02580(12)
C12_131 C 0.12786(18) 0.77264(14) 0.01031(16)
C13_98 C 0.1233(2) 0.74690(15) 0.02158(18)
H10_98 H 0.114885 0.732933 0.011098
C14_98 C 0.1311(2) 0.74207(17) 0.0481(2)
H11_98 H 0.128386 0.724468 0.055776
C15_131 C 0.14254(19) 0.76181(19) 0.0636(2)
H12_131 H 0.146944 0.758274 0.082086
C16_131 C 0.14794(15) 0.78758(16) 0.05225(16)
H13_131 H 0.156539 0.801276 0.062911
N3_131 N 0.07455(14) 0.82053(13) 0.03638(17)
C17_131 C 0.0710(2) 0.8032(2) 0.0513(3)
C18_131 C 0.0662(3) 0.7780(3) 0.0713(3)
H14_131 H 0.063574 0.761307 0.060605
H15_131 H 0.082141 0.775789 0.083193
H16_131 H 0.049989 0.781312 0.082513
C5_131 C 0.17932(12) 0.82372(13) 0.99304(11)
C6_131 C 0.18587(16) 0.84544(17) 0.97553(16)
H4_131 H 0.173388 0.860071 0.973204
C7_131 C 0.21056(19) 0.8456(2) 0.96162(19)
H5_131 H 0.214656 0.859725 0.949038
C8_131 C 0.22897(17) 0.8250(2) 0.96628(16)
H6_131 H 0.246418 0.825738 0.957891
C9_131 C 0.22277(15) 0.80396(19) 0.98238(16)
H7_131 H 0.235443 0.789484 0.984619
C10_131 C 0.19711(13) 0.80310(16) 0.99632(15)
H9_131 H 0.122228 0.776434 0.992167
P2_79 P 0.07545(3) 0.89612(3) 0.99063(3)
P1_80 P 0.10388(3) 0.32545(3) 0.74063(3)
N1_132 N 0.11938(9) 0.36438(9) 0.70466(9)
C1_132 C 0.09766(10) 0.34977(11) 0.71285(10)
C2_132 C 0.07224(11) 0.35405(12) 0.70130(10)
H1_132 H 0.057419 0.343030 0.707134
C3_132 C 0.08931(11) 0.38778(13) 0.67443(12)
H2_132 H 0.087008 0.401532 0.660983
C4_132 C 0.11500(11) 0.38334(12) 0.68552(11)
H3_132 H 0.129889 0.394073 0.679346
C5_132 C 0.07068(12) 0.32372(13) 0.75696(11)
C6_132 C 0.06413(16) 0.34544(17) 0.77447(16)
H4_132 H 0.076612 0.360071 0.776796
C7_132 C 0.03944(19) 0.3456(2) 0.78838(19)
H5_132 H 0.035344 0.359725 0.800962
C8_132 C 0.02103(17) 0.3250(2) 0.78372(16)
H6_132 H 0.003582 0.325738 0.792109
C9_132 C 0.02723(15) 0.30396(19) 0.76762(16)
H7_132 H 0.014557 0.289484 0.765381
C10_132 C 0.05289(13) 0.30310(16) 0.75368(15)
H8_132 H 0.057304 0.288108 0.742238
C11_132 C 0.10923(11) 0.29286(11) 0.72420(12)
C12_132 C 0.12214(18) 0.27264(14) 0.73969(16)
H9_132 H 0.127772 0.276434 0.757833
C13_99 C 0.1267(2) 0.24690(15) 0.72842(18)
H10_99 H 0.135115 0.232933 0.738902
C14_99 C 0.1189(2) 0.24207(17) 0.7019(2)
H11_99 H 0.121614 0.224468 0.694224
C15_132 C 0.10746(19) 0.26181(19) 0.6864(2)
H12_132 H 0.103056 0.258274 0.667914
C16_132 C 0.10206(15) 0.28758(16) 0.69775(16)
H13_132 H 0.093461 0.301276 0.687089
N3_132 N 0.17545(14) 0.32053(13) 0.71362(17)
C17_132 C 0.1790(2) 0.3032(2) 0.6987(3)
C18_132 C 0.1838(3) 0.2780(3) 0.6787(3)
H14_132 H 0.186426 0.261307 0.689395
H15_132 H 0.167859 0.275789 0.666807
H16_132 H 0.200011 0.281312 0.667487
P2_80 P 0.17455(3) 0.39612(3) 0.75937(3)
C5_133 C 0.92932(12) 0.00696(11) 0.07372(13)
C6_133 C 0.93587(16) 0.02447(16) 0.09544(17)
H4_133 H 0.923388 0.026796 0.110071
C7_133 C 0.96056(19) 0.03838(19) 0.0956(2)
H5_133 H 0.964656 0.050962 0.109725
C8_133 C 0.97897(17) 0.03372(16) 0.0750(2)
H6_133 H 0.996418 0.042109 0.075738
C9_133 C 0.97277(15) 0.01762(16) 0.05396(19)
H7_133 H 0.985443 0.015381 0.039484
C10_133 C 0.94711(13) 0.00368(15) 0.05310(16)
H9_133 H 0.872228 0.007833 0.026434
P2_81 P 0.82545(3) 0.00937(3) 0.14612(3)
P1_81 P 0.89612(3) 0.99063(3) 0.07545(3)
N1_133 N 0.88062(9) 0.95466(9) 0.11438(9)
C1_133 C 0.90234(10) 0.96285(10) 0.09977(11)
C2_133 C 0.92776(11) 0.95130(10) 0.10405(12)
H1_133 H 0.942581 0.957134 0.093030
C3_133 C 0.91069(11) 0.92443(12) 0.13778(13)
H2_133 H 0.912992 0.910983 0.151532
C4_133 C 0.88500(11) 0.93552(11) 0.13334(12)
H3_133 H 0.870111 0.929346 0.144073
H8_133 H 0.942696 0.992238 0.038108
C11_133 C 0.89077(11) 0.97420(12) 0.04286(11)
C12_133 C 0.87786(18) 0.98969(16) 0.02264(14)
C15_133 C 0.89254(19) 0.9364(2) 0.01181(19)
H12_133 H 0.896944 0.917914 0.008274
C16_133 C 0.89794(15) 0.94775(16) 0.03758(16)
H13_133 H 0.906539 0.937089 0.051276
N3_133 N 0.82455(14) 0.96362(17) 0.07053(13)
C17_133 C 0.8210(2) 0.9487(3) 0.0532(2)
C18_133 C 0.8162(3) 0.9287(3) 0.0280(3)
H14_133 H 0.813574 0.939395 0.011307
H15_133 H 0.832141 0.916807 0.025789
H16_133 H 0.799989 0.917487 0.031312
P1_82 P 0.85388(3) 0.25937(3) 0.57545(3)
N1_134 N 0.86938(9) 0.29534(9) 0.61438(9)
C1_134 C 0.84766(10) 0.28715(10) 0.59977(11)
C2_134 C 0.82224(11) 0.29870(10) 0.60405(12)
H1_134 H 0.807419 0.292866 0.593030
C3_134 C 0.83931(11) 0.32557(12) 0.63778(13)
H2_134 H 0.837008 0.339017 0.651532
C4_134 C 0.86500(11) 0.31448(11) 0.63334(12)
H3_134 H 0.879889 0.320654 0.644073
C5_134 C 0.82068(12) 0.24304(11) 0.57372(13)
C6_134 C 0.81413(16) 0.22553(16) 0.59544(17)
H4_134 H 0.826612 0.223204 0.610071
C7_134 C 0.78944(19) 0.21162(19) 0.5956(2)
H5_134 H 0.785344 0.199038 0.609725
C8_134 C 0.77103(17) 0.21628(16) 0.5750(2)
H6_134 H 0.753582 0.207891 0.575738
C9_134 C 0.77723(15) 0.23238(16) 0.55396(19)
H7_134 H 0.764557 0.234619 0.539484
C10_134 C 0.80289(13) 0.24632(15) 0.55310(16)
H8_134 H 0.807304 0.257762 0.538108
C11_134 C 0.85923(11) 0.27580(12) 0.54286(11)
C12_134 C 0.87214(18) 0.26031(16) 0.52264(14)
H9_134 H 0.877772 0.242167 0.526434
C13_100 C 0.8767(2) 0.27158(18) 0.49690(15)
H10_100 H 0.885115 0.261098 0.482933
C14_100 C 0.8689(2) 0.2981(2) 0.49207(17)
H11_100 H 0.871614 0.305776 0.474468
C15_134 C 0.85746(19) 0.3136(2) 0.51181(19)
H12_134 H 0.853056 0.332086 0.508274
C16_134 C 0.85206(15) 0.30225(16) 0.53758(16)
H13_134 H 0.843461 0.312911 0.551276
N3_134 N 0.92545(14) 0.28638(17) 0.57053(13)
C17_134 C 0.9290(2) 0.3013(3) 0.5532(2)
C18_134 C 0.9338(3) 0.3213(3) 0.5280(3)
H14_134 H 0.936426 0.310605 0.511307
H15_134 H 0.917859 0.333193 0.525789
H16_134 H 0.950011 0.332513 0.531312
P2_82 P 0.92455(3) 0.24063(3) 0.64612(3)
P1_83 P 0.39612(3) 0.75937(3) 0.17455(3)
N1_135 N 0.38062(9) 0.79534(9) 0.13562(9)
C1_135 C 0.40234(10) 0.78715(10) 0.15023(11)
C2_135 C 0.42776(11) 0.79870(10) 0.14595(12)
H1_135 H 0.442581 0.792866 0.156970
C3_135 C 0.41069(11) 0.82557(12) 0.11222(13)
H2_135 H 0.412992 0.839017 0.098468
C4_135 C 0.38500(11) 0.81448(11) 0.11666(12)
H3_135 H 0.370111 0.820654 0.105927
C5_135 C 0.42932(12) 0.74304(11) 0.17628(13)
C6_135 C 0.43587(16) 0.72553(16) 0.15456(17)
H4_135 H 0.423388 0.723204 0.139929
C7_135 C 0.46056(19) 0.71162(19) 0.1544(2)
H5_135 H 0.464656 0.699038 0.140275
C8_135 C 0.47897(17) 0.71628(16) 0.1750(2)
H6_135 H 0.496418 0.707891 0.174262
C9_135 C 0.47277(15) 0.73238(16) 0.19604(19)
H7_135 H 0.485443 0.734619 0.210516
C10_135 C 0.44711(13) 0.74632(15) 0.19690(16)
H8_135 H 0.442696 0.757762 0.211892
C11_135 C 0.39077(11) 0.77580(12) 0.20714(11)
C12_135 C 0.37786(18) 0.76031(16) 0.22736(14)
H9_135 H 0.372228 0.742167 0.223566
C13_101 C 0.3733(2) 0.77158(18) 0.25310(15)
H10_101 H 0.364885 0.761098 0.267067
C14_101 C 0.3811(2) 0.7981(2) 0.25793(17)
H11_101 H 0.378386 0.805776 0.275532
C15_135 C 0.39254(19) 0.8136(2) 0.23819(19)
H12_135 H 0.396944 0.832086 0.241726
C16_135 C 0.39794(15) 0.80225(16) 0.21242(16)
H13_135 H 0.406539 0.812911 0.198724
N3_135 N 0.32455(14) 0.78638(17) 0.17947(13)
C17_135 C 0.3210(2) 0.8013(3) 0.1968(2)
C18_135 C 0.3162(3) 0.8213(3) 0.2220(3)
H14_135 H 0.313574 0.810605 0.238693
H15_135 H 0.332141 0.833193 0.224211
H16_135 H 0.299989 0.832513 0.218688
P2_83 P 0.32545(3) 0.74063(3) 0.10388(3)
P1_84 P 0.35388(3) 0.49063(3) 0.67455(3)
N1_136 N 0.36938(9) 0.45466(9) 0.63562(9)
C1_136 C 0.34766(10) 0.46285(10) 0.65023(11)
C2_136 C 0.32224(11) 0.45130(10) 0.64595(12)
H1_136 H 0.307419 0.457134 0.656970
C3_136 C 0.33931(11) 0.42443(12) 0.61222(13)
H2_136 H 0.337008 0.410983 0.598468
C4_136 C 0.36500(11) 0.43552(11) 0.61666(12)
H3_136 H 0.379889 0.429346 0.605927
C5_136 C 0.32068(12) 0.50696(11) 0.67628(13)
C6_136 C 0.31413(16) 0.52447(16) 0.65456(17)
H4_136 H 0.326612 0.526796 0.639929
C7_136 C 0.28944(19) 0.53838(19) 0.6544(2)
H5_136 H 0.285344 0.550962 0.640275
C8_136 C 0.27103(17) 0.53372(16) 0.6750(2)
H6_136 H 0.253582 0.542109 0.674262
C9_136 C 0.27723(15) 0.51762(16) 0.69604(19)
H7_136 H 0.264557 0.515381 0.710516
C10_136 C 0.30289(13) 0.50368(15) 0.69690(16)
H8_136 H 0.307304 0.492238 0.711892
C11_136 C 0.35923(11) 0.47420(12) 0.70714(11)
C12_136 C 0.37214(18) 0.48969(16) 0.72736(14)
H9_136 H 0.377772 0.507833 0.723566
C13_102 C 0.3767(2) 0.47842(18) 0.75310(15)
H10_102 H 0.385115 0.488902 0.767067
C14_102 C 0.3689(2) 0.4519(2) 0.75793(17)
H11_102 H 0.371614 0.444224 0.775532
C15_136 C 0.35746(19) 0.4364(2) 0.73819(19)
H12_136 H 0.353056 0.417914 0.741726
C16_136 C 0.35206(15) 0.44775(16) 0.71242(16)
H13_136 H 0.343461 0.437089 0.698724
N3_136 N 0.42545(14) 0.46362(17) 0.67947(13)
C17_136 C 0.4290(2) 0.4487(3) 0.6968(2)
C18_136 C 0.4338(3) 0.4287(3) 0.7220(3)
H14_136 H 0.436426 0.439395 0.738693
H15_136 H 0.417859 0.416807 0.724211
H16_136 H 0.450011 0.417487 0.718688
P2_84 P 0.42455(3) 0.50937(3) 0.60388(3)
C5_137 C 0.00696(11) 0.67628(13) 0.82068(12)
C6_137 C 0.02447(16) 0.65456(17) 0.81413(16)
H4_137 H 0.026796 0.639929 0.826612
C7_137 C 0.03838(19) 0.6544(2) 0.78944(19)
H5_137 H 0.050962 0.640275 0.785344
C8_137 C 0.03372(16) 0.6750(2) 0.77103(17)
H6_137 H 0.042109 0.674262 0.753582
C9_137 C 0.01762(16) 0.69604(19) 0.77723(15)
H7_137 H 0.015381 0.710516 0.764557
C10_137 C 0.00368(15) 0.69690(16) 0.80289(13)
H9_137 H 0.007833 0.723566 0.877772
N1_137 N 0.95466(9) 0.63562(9) 0.86938(9)
C1_137 C 0.96285(10) 0.65023(11) 0.84766(10)
C2_137 C 0.95130(10) 0.64595(12) 0.82224(11)
H1_137 H 0.957134 0.656970 0.807419
C3_137 C 0.92443(12) 0.61222(13) 0.83931(11)
H2_137 H 0.910983 0.598468 0.837008
C4_137 C 0.93552(11) 0.61666(12) 0.86500(11)
H3_137 H 0.929346 0.605927 0.879889
H8_137 H 0.992238 0.711892 0.807304
C11_137 C 0.97420(12) 0.70714(11) 0.85923(11)
C12_137 C 0.98969(16) 0.72736(14) 0.87214(18)
C13_103 C 0.97842(18) 0.75310(15) 0.8767(2)
H10_103 H 0.988902 0.767067 0.885115
C14_103 C 0.9519(2) 0.75793(17) 0.8689(2)
H11_103 H 0.944224 0.775532 0.871614
C15_137 C 0.9364(2) 0.73819(19) 0.85746(19)
H12_137 H 0.917914 0.741726 0.853056
C16_137 C 0.94775(16) 0.71242(16) 0.85206(15)
H13_137 H 0.937089 0.698724 0.843461
N3_137 N 0.96362(17) 0.67947(13) 0.92545(14)
C17_137 C 0.9487(3) 0.6968(2) 0.9290(2)
C18_137 C 0.9287(3) 0.7220(3) 0.9338(3)
H14_137 H 0.939395 0.738693 0.936426
H15_137 H 0.916807 0.724211 0.917859
H16_137 H 0.917487 0.718688 0.950011
N1_138 N 0.29534(9) 0.13562(9) 0.88062(9)
C1_138 C 0.28715(10) 0.15023(11) 0.90234(10)
C2_138 C 0.29870(10) 0.14595(12) 0.92776(11)
H1_138 H 0.292866 0.156970 0.942581
C3_138 C 0.32557(12) 0.11222(13) 0.91069(11)
H2_138 H 0.339017 0.098468 0.912992
C4_138 C 0.31448(11) 0.11666(12) 0.88500(11)
H3_138 H 0.320654 0.105927 0.870111
C5_138 C 0.24304(11) 0.17628(13) 0.92932(12)
C6_138 C 0.22553(16) 0.15456(17) 0.93587(16)
H4_138 H 0.223204 0.139929 0.923388
C7_138 C 0.21162(19) 0.1544(2) 0.96056(19)
H5_138 H 0.199038 0.140275 0.964656
C8_138 C 0.21628(16) 0.1750(2) 0.97897(17)
H6_138 H 0.207891 0.174262 0.996418
C9_138 C 0.23238(16) 0.19604(19) 0.97277(15)
H7_138 H 0.234619 0.210516 0.985443
C10_138 C 0.24632(15) 0.19690(16) 0.94711(13)
H8_138 H 0.257762 0.211892 0.942696
C11_138 C 0.27580(12) 0.20714(11) 0.89077(11)
C12_138 C 0.26031(16) 0.22736(14) 0.87786(18)
H9_138 H 0.242167 0.223566 0.872228
C13_104 C 0.27158(18) 0.25310(15) 0.8733(2)
H10_104 H 0.261098 0.267067 0.864885
C14_104 C 0.2981(2) 0.25793(17) 0.8811(2)
H11_104 H 0.305776 0.275532 0.878386
C15_138 C 0.3136(2) 0.23819(19) 0.89254(19)
H12_138 H 0.332086 0.241726 0.896944
C16_138 C 0.30225(16) 0.21242(16) 0.89794(15)
H13_138 H 0.312911 0.198724 0.906539
N3_138 N 0.28638(17) 0.17947(13) 0.82455(14)
C17_138 C 0.3013(3) 0.1968(2) 0.8210(2)
C18_138 C 0.3213(3) 0.2220(3) 0.8162(3)
H14_138 H 0.310605 0.238693 0.813574
H15_138 H 0.333193 0.224211 0.832141
H16_138 H 0.332513 0.218688 0.799989
N1_139 N 0.79534(9) 0.61438(9) 0.36938(9)
C1_139 C 0.78715(10) 0.59977(11) 0.34766(10)
C2_139 C 0.79870(10) 0.60405(12) 0.32224(11)
H1_139 H 0.792866 0.593030 0.307419
C3_139 C 0.82557(12) 0.63778(13) 0.33931(11)
H2_139 H 0.839017 0.651532 0.337008
C4_139 C 0.81448(11) 0.63334(12) 0.36500(11)
H3_139 H 0.820654 0.644073 0.379889
C5_139 C 0.74304(11) 0.57372(13) 0.32068(12)
C6_139 C 0.72553(16) 0.59544(17) 0.31413(16)
H4_139 H 0.723204 0.610071 0.326612
C7_139 C 0.71162(19) 0.5956(2) 0.28944(19)
H5_139 H 0.699038 0.609725 0.285344
C8_139 C 0.71628(16) 0.5750(2) 0.27103(17)
H6_139 H 0.707891 0.575738 0.253582
C9_139 C 0.73238(16) 0.55396(19) 0.27723(15)
H7_139 H 0.734619 0.539484 0.264557
C10_139 C 0.74632(15) 0.55310(16) 0.30289(13)
H8_139 H 0.757762 0.538108 0.307304
C11_139 C 0.77580(12) 0.54286(11) 0.35923(11)
C12_139 C 0.76031(16) 0.52264(14) 0.37214(18)
H9_139 H 0.742167 0.526434 0.377772
C13_105 C 0.77158(18) 0.49690(15) 0.3767(2)
H10_105 H 0.761098 0.482933 0.385115
C14_105 C 0.7981(2) 0.49207(17) 0.3689(2)
H11_105 H 0.805776 0.474468 0.371614
C15_139 C 0.8136(2) 0.51181(19) 0.35746(19)
H12_139 H 0.832086 0.508274 0.353056
C16_139 C 0.80225(16) 0.53758(16) 0.35206(15)
H13_139 H 0.812911 0.551276 0.343461
N3_139 N 0.78638(17) 0.57053(13) 0.42545(14)
C17_139 C 0.8013(3) 0.5532(2) 0.4290(2)
C18_139 C 0.8213(3) 0.5280(3) 0.4338(3)
H14_139 H 0.810605 0.511307 0.436426
H15_139 H 0.833193 0.525789 0.417859
H16_139 H 0.832513 0.531312 0.450011
N1_140 N 0.45466(9) 0.11438(9) 0.38062(9)
C1_140 C 0.46285(10) 0.09977(11) 0.40234(10)
C2_140 C 0.45130(10) 0.10405(12) 0.42776(11)
H1_140 H 0.457134 0.093030 0.442581
C3_140 C 0.42443(12) 0.13778(13) 0.41069(11)
H2_140 H 0.410983 0.151532 0.412992
C4_140 C 0.43552(11) 0.13334(12) 0.38500(11)
H3_140 H 0.429346 0.144073 0.370111
C5_140 C 0.50696(11) 0.07372(13) 0.42932(12)
C6_140 C 0.52447(16) 0.09544(17) 0.43587(16)
H4_140 H 0.526796 0.110071 0.423388
C7_140 C 0.53838(19) 0.0956(2) 0.46056(19)
H5_140 H 0.550962 0.109725 0.464656
C8_140 C 0.53372(16) 0.0750(2) 0.47897(17)
H6_140 H 0.542109 0.075738 0.496418
C9_140 C 0.51762(16) 0.05396(19) 0.47277(15)
H7_140 H 0.515381 0.039484 0.485443
C10_140 C 0.50368(15) 0.05310(16) 0.44711(13)
H8_140 H 0.492238 0.038108 0.442696
C11_140 C 0.47420(12) 0.04286(11) 0.39077(11)
C12_140 C 0.48969(16) 0.02264(14) 0.37786(18)
H9_140 H 0.507833 0.026434 0.372228
C15_140 C 0.4364(2) 0.01181(19) 0.39254(19)
H12_140 H 0.417914 0.008274 0.396944
C16_140 C 0.44775(16) 0.03758(16) 0.39794(15)
H13_140 H 0.437089 0.051276 0.406539
N3_140 N 0.46362(17) 0.07053(13) 0.32455(14)
C17_140 C 0.4487(3) 0.0532(2) 0.3210(2)
C18_140 C 0.4287(3) 0.0280(3) 0.3162(3)
H14_140 H 0.439395 0.011307 0.313574
H15_140 H 0.416807 0.025789 0.332141
H16_140 H 0.417487 0.031312 0.299989
P1_85 P 0.67455(3) 0.89612(3) 0.75937(3)
N1_141 N 0.63562(9) 0.88062(9) 0.79534(9)
C1_141 C 0.65023(11) 0.90234(10) 0.78715(10)
C2_141 C 0.64595(12) 0.92776(11) 0.79870(10)
H1_141 H 0.656970 0.942581 0.792866
C3_141 C 0.61222(13) 0.91069(11) 0.82557(12)
H2_141 H 0.598468 0.912992 0.839017
C4_141 C 0.61666(12) 0.88500(11) 0.81448(11)
H3_141 H 0.605927 0.870111 0.820654
C5_141 C 0.67628(13) 0.92932(12) 0.74304(11)
C6_141 C 0.65456(17) 0.93587(16) 0.72553(16)
H4_141 H 0.639929 0.923388 0.723204
C7_141 C 0.6544(2) 0.96056(19) 0.71162(19)
H5_141 H 0.640275 0.964656 0.699038
C8_141 C 0.6750(2) 0.97897(17) 0.71628(16)
H6_141 H 0.674262 0.996418 0.707891
C9_141 C 0.69604(19) 0.97277(15) 0.73238(16)
H7_141 H 0.710516 0.985443 0.734619
C10_141 C 0.69690(16) 0.94711(13) 0.74632(15)
H8_141 H 0.711892 0.942696 0.757762
C11_141 C 0.70714(11) 0.89077(11) 0.77580(12)
C12_141 C 0.72736(14) 0.87786(18) 0.76031(16)
H9_141 H 0.723566 0.872228 0.742167
C13_106 C 0.75310(15) 0.8733(2) 0.77158(18)
H10_106 H 0.767067 0.864885 0.761098
C14_106 C 0.75793(17) 0.8811(2) 0.7981(2)
H11_106 H 0.775532 0.878386 0.805776
C15_141 C 0.73819(19) 0.89254(19) 0.8136(2)
H12_141 H 0.741726 0.896944 0.832086
C16_141 C 0.71242(16) 0.89794(15) 0.80225(16)
H13_141 H 0.698724 0.906539 0.812911
N3_141 N 0.67947(13) 0.82455(14) 0.78638(17)
C17_141 C 0.6968(2) 0.8210(2) 0.8013(3)
C18_141 C 0.7220(3) 0.8162(3) 0.8213(3)
H14_141 H 0.738693 0.813574 0.810605
H15_141 H 0.724211 0.832141 0.833193
H16_141 H 0.718688 0.799989 0.832513
P2_85 P 0.60388(3) 0.82545(3) 0.74063(3)
P1_86 P 0.17455(3) 0.85388(3) 0.49063(3)
N1_142 N 0.13562(9) 0.86938(9) 0.45466(9)
C1_142 C 0.15023(11) 0.84766(10) 0.46285(10)
C2_142 C 0.14595(12) 0.82224(11) 0.45130(10)
H1_142 H 0.156970 0.807419 0.457134
C3_142 C 0.11222(13) 0.83931(11) 0.42443(12)
H2_142 H 0.098468 0.837008 0.410983
C4_142 C 0.11666(12) 0.86500(11) 0.43552(11)
H3_142 H 0.105927 0.879889 0.429346
C5_142 C 0.17628(13) 0.82068(12) 0.50696(11)
C6_142 C 0.15456(17) 0.81413(16) 0.52447(16)
H4_142 H 0.139929 0.826612 0.526796
C7_142 C 0.1544(2) 0.78944(19) 0.53838(19)
H5_142 H 0.140275 0.785344 0.550962
C8_142 C 0.1750(2) 0.77103(17) 0.53372(16)
H6_142 H 0.174262 0.753582 0.542109
C9_142 C 0.19604(19) 0.77723(15) 0.51762(16)
H7_142 H 0.210516 0.764557 0.515381
C10_142 C 0.19690(16) 0.80289(13) 0.50368(15)
H8_142 H 0.211892 0.807304 0.492238
C11_142 C 0.20714(11) 0.85923(11) 0.47420(12)
C12_142 C 0.22736(14) 0.87214(18) 0.48969(16)
H9_142 H 0.223566 0.877772 0.507833
C13_107 C 0.25310(15) 0.8767(2) 0.47842(18)
H10_107 H 0.267067 0.885115 0.488902
C14_107 C 0.25793(17) 0.8689(2) 0.4519(2)
H11_107 H 0.275532 0.871614 0.444224
C15_142 C 0.23819(19) 0.85746(19) 0.4364(2)
H12_142 H 0.241726 0.853056 0.417914
C16_142 C 0.21242(16) 0.85206(15) 0.44775(16)
H13_142 H 0.198724 0.843461 0.437089
N3_142 N 0.17947(13) 0.92545(14) 0.46362(17)
C17_142 C 0.1968(2) 0.9290(2) 0.4487(3)
C18_142 C 0.2220(3) 0.9338(3) 0.4287(3)
H14_142 H 0.238693 0.936426 0.439395
H15_142 H 0.224211 0.917859 0.416807
H16_142 H 0.218688 0.950011 0.417487
P2_86 P 0.10388(3) 0.92455(3) 0.50937(3)
C5_143 C 0.57372(13) 0.42932(12) 0.00696(11)
C6_143 C 0.59544(17) 0.43587(16) 0.02447(16)
H4_143 H 0.610071 0.423388 0.026796
C7_143 C 0.5956(2) 0.46056(19) 0.03838(19)
H5_143 H 0.609725 0.464656 0.050962
C8_143 C 0.5750(2) 0.47897(17) 0.03372(16)
H6_143 H 0.575738 0.496418 0.042109
C9_143 C 0.55396(19) 0.47277(15) 0.01762(16)
H7_143 H 0.539484 0.485443 0.015381
C10_143 C 0.55310(16) 0.44711(13) 0.00368(15)
H9_143 H 0.526434 0.372228 0.007833
P2_87 P 0.64612(3) 0.32545(3) 0.00937(3)
P1_87 P 0.57545(3) 0.39612(3) 0.99063(3)
N1_143 N 0.61438(9) 0.38062(9) 0.95466(9)
C1_143 C 0.59977(11) 0.40234(10) 0.96285(10)
C2_143 C 0.60405(12) 0.42776(11) 0.95130(10)
H1_143 H 0.593030 0.442581 0.957134
C3_143 C 0.63778(13) 0.41069(11) 0.92443(12)
H2_143 H 0.651532 0.412992 0.910983
C4_143 C 0.63334(12) 0.38500(11) 0.93552(11)
H3_143 H 0.644073 0.370111 0.929346
H8_143 H 0.538108 0.442696 0.992238
C11_143 C 0.54286(11) 0.39077(11) 0.97420(12)
C12_143 C 0.52264(14) 0.37786(18) 0.98969(16)
C13_108 C 0.49690(15) 0.3733(2) 0.97842(18)
H10_108 H 0.482933 0.364885 0.988902
C14_108 C 0.49207(17) 0.3811(2) 0.9519(2)
H11_108 H 0.474468 0.378386 0.944224
C15_143 C 0.51181(19) 0.39254(19) 0.9364(2)
H12_143 H 0.508274 0.396944 0.917914
C16_143 C 0.53758(16) 0.39794(15) 0.94775(16)
H13_143 H 0.551276 0.406539 0.937089
N3_143 N 0.57053(13) 0.32455(14) 0.96362(17)
C17_143 C 0.5532(2) 0.3210(2) 0.9487(3)
C18_143 C 0.5280(3) 0.3162(3) 0.9287(3)
H14_143 H 0.511307 0.313574 0.939395
H15_143 H 0.525789 0.332141 0.916807
H16_143 H 0.531312 0.299989 0.917487
P1_88 P 0.07545(3) 0.35388(3) 0.25937(3)
N1_144 N 0.11438(9) 0.36938(9) 0.29534(9)
C1_144 C 0.09977(11) 0.34766(10) 0.28715(10)
C2_144 C 0.10405(12) 0.32224(11) 0.29870(10)
H1_144 H 0.093030 0.307419 0.292866
C3_144 C 0.13778(13) 0.33931(11) 0.32557(12)
H2_144 H 0.151532 0.337008 0.339017
C4_144 C 0.13334(12) 0.36500(11) 0.31448(11)
H3_144 H 0.144073 0.379889 0.320654
C5_144 C 0.07372(13) 0.32068(12) 0.24304(11)
C6_144 C 0.09544(17) 0.31413(16) 0.22553(16)
H4_144 H 0.110071 0.326612 0.223204
C7_144 C 0.0956(2) 0.28944(19) 0.21162(19)
H5_144 H 0.109725 0.285344 0.199038
C8_144 C 0.0750(2) 0.27103(17) 0.21628(16)
H6_144 H 0.075738 0.253582 0.207891
C9_144 C 0.05396(19) 0.27723(15) 0.23238(16)
H7_144 H 0.039484 0.264557 0.234619
C10_144 C 0.05310(16) 0.30289(13) 0.24632(15)
H8_144 H 0.038108 0.307304 0.257762
C11_144 C 0.04286(11) 0.35923(11) 0.27580(12)
C12_144 C 0.02264(14) 0.37214(18) 0.26031(16)
H9_144 H 0.026434 0.377772 0.242167
C15_144 C 0.01181(19) 0.35746(19) 0.3136(2)
H12_144 H 0.008274 0.353056 0.332086
C16_144 C 0.03758(16) 0.35206(15) 0.30225(16)
H13_144 H 0.051276 0.343461 0.312911
N3_144 N 0.07053(13) 0.42545(14) 0.28638(17)
C17_144 C 0.0532(2) 0.4290(2) 0.3013(3)
C18_144 C 0.0280(3) 0.4338(3) 0.3213(3)
H14_144 H 0.011307 0.436426 0.310605
H15_144 H 0.025789 0.417859 0.333193
H16_144 H 0.031312 0.450011 0.332513
P2_88 P 0.14612(3) 0.42455(3) 0.24063(3)
P1_89 P 0.24063(3) 0.64612(3) 0.92455(3)
N1_145 N 0.20466(9) 0.63062(9) 0.88562(9)
C1_145 C 0.21285(10) 0.65234(10) 0.90023(11)
C2_145 C 0.20130(10) 0.67776(11) 0.89595(12)
H1_145 H 0.207134 0.692581 0.906970
C3_145 C 0.17443(12) 0.66069(11) 0.86222(13)
H2_145 H 0.160983 0.662992 0.848468
C4_145 C 0.18552(11) 0.63500(11) 0.86666(12)
H3_145 H 0.179346 0.620111 0.855927
C5_145 C 0.25696(11) 0.67932(12) 0.92628(13)
C6_145 C 0.27447(16) 0.68587(16) 0.90456(17)
H4_145 H 0.276796 0.673388 0.889929
C7_145 C 0.28838(19) 0.71056(19) 0.9044(2)
H5_145 H 0.300962 0.714656 0.890275
C8_145 C 0.28372(16) 0.72897(17) 0.9250(2)
H6_145 H 0.292109 0.746418 0.924262
C9_145 C 0.26762(16) 0.72277(15) 0.94604(19)
H7_145 H 0.265381 0.735443 0.960516
C10_145 C 0.25368(15) 0.69711(13) 0.94690(16)
H8_145 H 0.242238 0.692696 0.961892
C11_145 C 0.22420(12) 0.64077(11) 0.95714(11)
C12_145 C 0.23969(16) 0.62786(18) 0.97736(14)
H9_145 H 0.257833 0.622228 0.973566
C15_145 C 0.1864(2) 0.64254(19) 0.98819(19)
H12_145 H 0.167914 0.646944 0.991726
C16_145 C 0.19775(16) 0.64794(15) 0.96242(16)
H13_145 H 0.187089 0.656539 0.948724
N3_145 N 0.21362(17) 0.57455(14) 0.92947(13)
C17_145 C 0.1987(3) 0.5710(2) 0.9468(2)
C18_145 C 0.1787(3) 0.5662(3) 0.9720(3)
H14_145 H 0.189395 0.563574 0.988693
H15_145 H 0.166807 0.582141 0.974211
H16_145 H 0.167487 0.549989 0.968688
P2_89 P 0.25937(3) 0.57545(3) 0.85388(3)
P1_90 P 0.50937(3) 0.60388(3) 0.42455(3)
N1_146 N 0.54534(9) 0.61938(9) 0.38562(9)
C1_146 C 0.53715(10) 0.59766(10) 0.40023(11)
C2_146 C 0.54870(10) 0.57224(11) 0.39595(12)
H1_146 H 0.542866 0.557419 0.406970
C3_146 C 0.57557(12) 0.58931(11) 0.36222(13)
H2_146 H 0.589017 0.587008 0.348468
C4_146 C 0.56448(11) 0.61500(11) 0.36666(12)
H3_146 H 0.570654 0.629889 0.355927
C5_146 C 0.49304(11) 0.57068(12) 0.42628(13)
C6_146 C 0.47553(16) 0.56413(16) 0.40456(17)
H4_146 H 0.473204 0.576612 0.389929
C7_146 C 0.46162(19) 0.53944(19) 0.4044(2)
H5_146 H 0.449038 0.535344 0.390275
C8_146 C 0.46628(16) 0.52103(17) 0.4250(2)
H6_146 H 0.457891 0.503582 0.424262
C9_146 C 0.48238(16) 0.52723(15) 0.44604(19)
H7_146 H 0.484619 0.514557 0.460516
C10_146 C 0.49632(15) 0.55289(13) 0.44690(16)
H8_146 H 0.507762 0.557304 0.461892
C11_146 C 0.52580(12) 0.60923(11) 0.45714(11)
C12_146 C 0.51031(16) 0.62214(18) 0.47736(14)
H9_146 H 0.492167 0.627772 0.473566
C13_109 C 0.52158(18) 0.6267(2) 0.50310(15)
H10_109 H 0.511098 0.635115 0.517067
C14_109 C 0.5481(2) 0.6189(2) 0.50793(17)
H11_109 H 0.555776 0.621614 0.525532
C15_146 C 0.5636(2) 0.60746(19) 0.48819(19)
H12_146 H 0.582086 0.603056 0.491726
C16_146 C 0.55225(16) 0.60206(15) 0.46242(16)
H13_146 H 0.562911 0.593461 0.448724
N3_146 N 0.53638(17) 0.67545(14) 0.42947(13)
C17_146 C 0.5513(3) 0.6790(2) 0.4468(2)
C18_146 C 0.5713(3) 0.6838(3) 0.4720(3)
H14_146 H 0.560605 0.686426 0.488693
H15_146 H 0.583193 0.667859 0.474211
H16_146 H 0.582513 0.700011 0.468688
P2_90 P 0.49063(3) 0.67455(3) 0.35388(3)
P1_91 P 0.00937(3) 0.14612(3) 0.82545(3)
N1_147 N 0.04534(9) 0.13062(9) 0.86438(9)
C1_147 C 0.03715(10) 0.15234(10) 0.84977(11)
C2_147 C 0.04870(10) 0.17776(11) 0.85405(12)
H1_147 H 0.042866 0.192581 0.843030
C3_147 C 0.07557(12) 0.16069(11) 0.88778(13)
H2_147 H 0.089017 0.162992 0.901532
C4_147 C 0.06448(11) 0.13500(11) 0.88334(12)
H3_147 H 0.070654 0.120111 0.894073
H8_147 H 0.007762 0.192696 0.788108
C11_147 C 0.02580(12) 0.14077(11) 0.79286(11)
C12_147 C 0.01031(16) 0.12786(18) 0.77264(14)
C13_110 C 0.02158(18) 0.1233(2) 0.74690(15)
H10_110 H 0.011098 0.114885 0.732933
C14_110 C 0.0481(2) 0.1311(2) 0.74207(17)
H11_110 H 0.055776 0.128386 0.724468
C15_147 C 0.0636(2) 0.14254(19) 0.76181(19)
H12_147 H 0.082086 0.146944 0.758274
C16_147 C 0.05225(16) 0.14794(15) 0.78758(16)
H13_147 H 0.062911 0.156539 0.801276
N3_147 N 0.03638(17) 0.07455(14) 0.82053(13)
C17_147 C 0.0513(3) 0.0710(2) 0.8032(2)
C18_147 C 0.0713(3) 0.0662(3) 0.7780(3)
H14_147 H 0.060605 0.063574 0.761307
H15_147 H 0.083193 0.082141 0.775789
H16_147 H 0.082513 0.049989 0.781312
C5_147 C 0.99304(11) 0.17932(12) 0.82372(13)
C6_147 C 0.97553(16) 0.18587(16) 0.84544(17)
H4_147 H 0.973204 0.173388 0.860071
C7_147 C 0.96162(19) 0.21056(19) 0.8456(2)
H5_147 H 0.949038 0.214656 0.859725
C8_147 C 0.96628(16) 0.22897(17) 0.8250(2)
H6_147 H 0.957891 0.246418 0.825738
C9_147 C 0.98238(16) 0.22277(15) 0.80396(19)
H7_147 H 0.984619 0.235443 0.789484
C10_147 C 0.99632(15) 0.19711(13) 0.80310(16)
H9_147 H 0.992167 0.122228 0.776434
P2_91 P 0.99063(3) 0.07545(3) 0.89612(3)
P1_92 P 0.74063(3) 0.10388(3) 0.32545(3)
N1_148 N 0.70466(9) 0.11938(9) 0.36438(9)
C1_148 C 0.71285(10) 0.09766(10) 0.34977(11)
C2_148 C 0.70130(10) 0.07224(11) 0.35405(12)
H1_148 H 0.707134 0.057419 0.343030
C3_148 C 0.67443(12) 0.08931(11) 0.38778(13)
H2_148 H 0.660983 0.087008 0.401532
C4_148 C 0.68552(11) 0.11500(11) 0.38334(12)
H3_148 H 0.679346 0.129889 0.394073
C5_148 C 0.75696(11) 0.07068(12) 0.32372(13)
C6_148 C 0.77447(16) 0.06413(16) 0.34544(17)
H4_148 H 0.776796 0.076612 0.360071
C7_148 C 0.78838(19) 0.03944(19) 0.3456(2)
H5_148 H 0.800962 0.035344 0.359725
C8_148 C 0.78372(16) 0.02103(17) 0.3250(2)
H6_148 H 0.792109 0.003582 0.325738
C9_148 C 0.76762(16) 0.02723(15) 0.30396(19)
H7_148 H 0.765381 0.014557 0.289484
C10_148 C 0.75368(15) 0.05289(13) 0.30310(16)
H8_148 H 0.742238 0.057304 0.288108
C11_148 C 0.72420(12) 0.10923(11) 0.29286(11)
C12_148 C 0.73969(16) 0.12214(18) 0.27264(14)
H9_148 H 0.757833 0.127772 0.276434
C13_111 C 0.72842(18) 0.1267(2) 0.24690(15)
H10_111 H 0.738902 0.135115 0.232933
C14_111 C 0.7019(2) 0.1189(2) 0.24207(17)
H11_111 H 0.694224 0.121614 0.224468
C15_148 C 0.6864(2) 0.10746(19) 0.26181(19)
H12_148 H 0.667914 0.103056 0.258274
C16_148 C 0.69775(16) 0.10206(15) 0.28758(16)
H13_148 H 0.687089 0.093461 0.301276
N3_148 N 0.71362(17) 0.17545(14) 0.32053(13)
C17_148 C 0.6987(3) 0.1790(2) 0.3032(2)
C18_148 C 0.6787(3) 0.1838(3) 0.2780(3)
H14_148 H 0.689395 0.186426 0.261307
H15_148 H 0.666807 0.167859 0.275789
H16_148 H 0.667487 0.200011 0.281312
P2_92 P 0.75937(3) 0.17455(3) 0.39612(3)
N1_149 N 0.88562(9) 0.70466(9) 0.13062(9)
C1_149 C 0.90023(11) 0.71285(10) 0.15234(10)
C2_149 C 0.89595(12) 0.70130(10) 0.17776(11)
H1_149 H 0.906970 0.707134 0.192581
C3_149 C 0.86222(13) 0.67443(12) 0.16069(11)
H2_149 H 0.848468 0.660983 0.162992
C4_149 C 0.86666(12) 0.68552(11) 0.13500(11)
H3_149 H 0.855927 0.679346 0.120111
C5_149 C 0.92628(13) 0.75696(11) 0.17932(12)
C6_149 C 0.90456(17) 0.77447(16) 0.18587(16)
H4_149 H 0.889929 0.776796 0.173388
C7_149 C 0.9044(2) 0.78838(19) 0.21056(19)
H5_149 H 0.890275 0.800962 0.214656
C8_149 C 0.9250(2) 0.78372(16) 0.22897(17)
H6_149 H 0.924262 0.792109 0.246418
C9_149 C 0.94604(19) 0.76762(16) 0.22277(15)
H7_149 H 0.960516 0.765381 0.235443
C10_149 C 0.94690(16) 0.75368(15) 0.19711(13)
H8_149 H 0.961892 0.742238 0.192696
C11_149 C 0.95714(11) 0.72420(12) 0.14077(11)
C12_149 C 0.97736(14) 0.73969(16) 0.12786(18)
H9_149 H 0.973566 0.757833 0.122228
C15_149 C 0.98819(19) 0.6864(2) 0.14254(19)
H12_149 H 0.991726 0.667914 0.146944
C16_149 C 0.96242(16) 0.69775(16) 0.14794(15)
H13_149 H 0.948724 0.687089 0.156539
N3_149 N 0.92947(13) 0.71362(17) 0.07455(14)
C17_149 C 0.9468(2) 0.6987(3) 0.0710(2)
C18_149 C 0.9720(3) 0.6787(3) 0.0662(3)
H14_149 H 0.988693 0.689395 0.063574
H15_149 H 0.974211 0.666807 0.082141
H16_149 H 0.968688 0.667487 0.049989
N1_150 N 0.38562(9) 0.04534(9) 0.11938(9)
C1_150 C 0.40023(11) 0.03715(10) 0.09766(10)
C2_150 C 0.39595(12) 0.04870(10) 0.07224(11)
H1_150 H 0.406970 0.042866 0.057419
C3_150 C 0.36222(13) 0.07557(12) 0.08931(11)
H2_150 H 0.348468 0.089017 0.087008
C4_150 C 0.36666(12) 0.06448(11) 0.11500(11)
H3_150 H 0.355927 0.070654 0.129889
H8_150 H 0.461892 0.007762 0.057304
C11_150 C 0.45714(11) 0.02580(12) 0.10923(11)
C12_150 C 0.47736(14) 0.01031(16) 0.12214(18)
C13_112 C 0.50310(15) 0.02158(18) 0.1267(2)
H10_112 H 0.517067 0.011098 0.135115
C14_112 C 0.50793(17) 0.0481(2) 0.1189(2)
H11_112 H 0.525532 0.055776 0.121614
C15_150 C 0.48819(19) 0.0636(2) 0.10746(19)
H12_150 H 0.491726 0.082086 0.103056
C16_150 C 0.46242(16) 0.05225(16) 0.10206(15)
H13_150 H 0.448724 0.062911 0.093461
N3_150 N 0.42947(13) 0.03638(17) 0.17545(14)
C17_150 C 0.4468(2) 0.0513(3) 0.1790(2)
C18_150 C 0.4720(3) 0.0713(3) 0.1838(3)
H14_150 H 0.488693 0.060605 0.186426
H15_150 H 0.474211 0.083193 0.167859
H16_150 H 0.468688 0.082513 0.200011
C5_150 C 0.42628(13) 0.99304(11) 0.07068(12)
C6_150 C 0.40456(17) 0.97553(16) 0.06413(16)
H4_150 H 0.389929 0.973204 0.076612
C7_150 C 0.4044(2) 0.96162(19) 0.03944(19)
H5_150 H 0.390275 0.949038 0.035344
C8_150 C 0.4250(2) 0.96628(16) 0.02103(17)
H6_150 H 0.424262 0.957891 0.003582
C9_150 C 0.44604(19) 0.98238(16) 0.02723(15)
H7_150 H 0.460516 0.984619 0.014557
C10_150 C 0.44690(16) 0.99632(15) 0.05289(13)
H9_150 H 0.473566 0.992167 0.127772
N1_151 N 0.86438(9) 0.54534(9) 0.63062(9)
C1_151 C 0.84977(11) 0.53715(10) 0.65234(10)
C2_151 C 0.85405(12) 0.54870(10) 0.67776(11)
H1_151 H 0.843030 0.542866 0.692581
C3_151 C 0.88778(13) 0.57557(12) 0.66069(11)
H2_151 H 0.901532 0.589017 0.662992
C4_151 C 0.88334(12) 0.56448(11) 0.63500(11)
H3_151 H 0.894073 0.570654 0.620111
C5_151 C 0.82372(13) 0.49304(11) 0.67932(12)
C6_151 C 0.84544(17) 0.47553(16) 0.68587(16)
H4_151 H 0.860071 0.473204 0.673388
C7_151 C 0.8456(2) 0.46162(19) 0.71056(19)
H5_151 H 0.859725 0.449038 0.714656
C8_151 C 0.8250(2) 0.46628(16) 0.72897(17)
H6_151 H 0.825738 0.457891 0.746418
C9_151 C 0.80396(19) 0.48238(16) 0.72277(15)
H7_151 H 0.789484 0.484619 0.735443
C10_151 C 0.80310(16) 0.49632(15) 0.69711(13)
H8_151 H 0.788108 0.507762 0.692696
C11_151 C 0.79286(11) 0.52580(12) 0.64077(11)
C12_151 C 0.77264(14) 0.51031(16) 0.62786(18)
H9_151 H 0.776434 0.492167 0.622228
C13_113 C 0.74690(15) 0.52158(18) 0.6233(2)
H10_113 H 0.732933 0.511098 0.614885
C14_113 C 0.74207(17) 0.5481(2) 0.6311(2)
H11_113 H 0.724468 0.555776 0.628386
C15_151 C 0.76181(19) 0.5636(2) 0.64254(19)
H12_151 H 0.758274 0.582086 0.646944
C16_151 C 0.78758(16) 0.55225(16) 0.64794(15)
H13_151 H 0.801276 0.562911 0.656539
N3_151 N 0.82053(13) 0.53638(17) 0.57455(14)
C17_151 C 0.8032(2) 0.5513(3) 0.5710(2)
C18_151 C 0.7780(3) 0.5713(3) 0.5662(3)
H14_151 H 0.761307 0.560605 0.563574
H15_151 H 0.775789 0.583193 0.582141
H16_151 H 0.781312 0.582513 0.549989
N1_152 N 0.36438(9) 0.20466(9) 0.61938(9)
C1_152 C 0.34977(11) 0.21285(10) 0.59766(10)
C2_152 C 0.35405(12) 0.20130(10) 0.57224(11)
H1_152 H 0.343030 0.207134 0.557419
C3_152 C 0.38778(13) 0.17443(12) 0.58931(11)
H2_152 H 0.401532 0.160983 0.587008
C4_152 C 0.38334(12) 0.18552(11) 0.61500(11)
H3_152 H 0.394073 0.179346 0.629889
C5_152 C 0.32372(13) 0.25696(11) 0.57068(12)
C6_152 C 0.34544(17) 0.27447(16) 0.56413(16)
H4_152 H 0.360071 0.276796 0.576612
C7_152 C 0.3456(2) 0.28838(19) 0.53944(19)
H5_152 H 0.359725 0.300962 0.535344
C8_152 C 0.3250(2) 0.28372(16) 0.52103(17)
H6_152 H 0.325738 0.292109 0.503582
C9_152 C 0.30396(19) 0.26762(16) 0.52723(15)
H7_152 H 0.289484 0.265381 0.514557
C10_152 C 0.30310(16) 0.25368(15) 0.55289(13)
H8_152 H 0.288108 0.242238 0.557304
C11_152 C 0.29286(11) 0.22420(12) 0.60923(11)
C12_152 C 0.27264(14) 0.23969(16) 0.62214(18)
H9_152 H 0.276434 0.257833 0.627772
C13_114 C 0.24690(15) 0.22842(18) 0.6267(2)
H10_114 H 0.232933 0.238902 0.635115
C14_114 C 0.24207(17) 0.2019(2) 0.6189(2)
H11_114 H 0.224468 0.194224 0.621614
C15_152 C 0.26181(19) 0.1864(2) 0.60746(19)
H12_152 H 0.258274 0.167914 0.603056
C16_152 C 0.28758(16) 0.19775(16) 0.60206(15)
H13_152 H 0.301276 0.187089 0.593461
N3_152 N 0.32053(13) 0.21362(17) 0.67545(14)
C17_152 C 0.3032(2) 0.1987(3) 0.6790(2)
C18_152 C 0.2780(3) 0.1787(3) 0.6838(3)
H14_152 H 0.261307 0.189395 0.686426
H15_152 H 0.275789 0.166807 0.667859
H16_152 H 0.281312 0.167487 0.700011
N1_153 N 0.13062(9) 0.38562(9) 0.20466(9)
C1_153 C 0.15234(10) 0.40023(11) 0.21285(10)
C2_153 C 0.17776(11) 0.39595(12) 0.20130(10)
H1_153 H 0.192581 0.406970 0.207134
C3_153 C 0.16069(11) 0.36222(13) 0.17443(12)
H2_153 H 0.162992 0.348468 0.160983
C4_153 C 0.13500(11) 0.36666(12) 0.18552(11)
H3_153 H 0.120111 0.355927 0.179346
C5_153 C 0.17932(12) 0.42628(13) 0.25696(11)
C6_153 C 0.18587(16) 0.40456(17) 0.27447(16)
H4_153 H 0.173388 0.389929 0.276796
C7_153 C 0.21056(19) 0.4044(2) 0.28838(19)
H5_153 H 0.214656 0.390275 0.300962
C8_153 C 0.22897(17) 0.4250(2) 0.28372(16)
H6_153 H 0.246418 0.424262 0.292109
C9_153 C 0.22277(15) 0.44604(19) 0.26762(16)
H7_153 H 0.235443 0.460516 0.265381
C10_153 C 0.19711(13) 0.44690(16) 0.25368(15)
H8_153 H 0.192696 0.461892 0.242238
C11_153 C 0.14077(11) 0.45714(11) 0.22420(12)
C12_153 C 0.12786(18) 0.47736(14) 0.23969(16)
H9_153 H 0.122228 0.473566 0.257833
C13_115 C 0.1233(2) 0.50310(15) 0.22842(18)
H10_115 H 0.114885 0.517067 0.238902
C14_115 C 0.1311(2) 0.50793(17) 0.2019(2)
H11_115 H 0.128386 0.525532 0.194224
C15_153 C 0.14254(19) 0.48819(19) 0.1864(2)
H12_153 H 0.146944 0.491726 0.167914
C16_153 C 0.14794(15) 0.46242(16) 0.19775(16)
H13_153 H 0.156539 0.448724 0.187089
N3_153 N 0.07455(14) 0.42947(13) 0.21362(17)
C17_153 C 0.0710(2) 0.4468(2) 0.1987(3)
C18_153 C 0.0662(3) 0.4720(3) 0.1787(3)
H14_153 H 0.063574 0.488693 0.189395
H15_153 H 0.082141 0.474211 0.166807
H16_153 H 0.049989 0.468688 0.167487
N1_154 N 0.11938(9) 0.88562(9) 0.54534(9)
C1_154 C 0.09766(10) 0.90023(11) 0.53715(10)
C2_154 C 0.07224(11) 0.89595(12) 0.54870(10)
H1_154 H 0.057419 0.906970 0.542866
C3_154 C 0.08931(11) 0.86222(13) 0.57557(12)
H2_154 H 0.087008 0.848468 0.589017
C4_154 C 0.11500(11) 0.86666(12) 0.56448(11)
H3_154 H 0.129889 0.855927 0.570654
C5_154 C 0.07068(12) 0.92628(13) 0.49304(11)
C6_154 C 0.06413(16) 0.90456(17) 0.47553(16)
H4_154 H 0.076612 0.889929 0.473204
C7_154 C 0.03944(19) 0.9044(2) 0.46162(19)
H5_154 H 0.035344 0.890275 0.449038
C8_154 C 0.02103(17) 0.9250(2) 0.46628(16)
H6_154 H 0.003582 0.924262 0.457891
C9_154 C 0.02723(15) 0.94604(19) 0.48238(16)
H7_154 H 0.014557 0.960516 0.484619
C10_154 C 0.05289(13) 0.94690(16) 0.49632(15)
H8_154 H 0.057304 0.961892 0.507762
C11_154 C 0.10923(11) 0.95714(11) 0.52580(12)
C12_154 C 0.12214(18) 0.97736(14) 0.51031(16)
H9_154 H 0.127772 0.973566 0.492167
C15_154 C 0.10746(19) 0.98819(19) 0.5636(2)
H12_154 H 0.103056 0.991726 0.582086
C16_154 C 0.10206(15) 0.96242(16) 0.55225(16)
H13_154 H 0.093461 0.948724 0.562911
N3_154 N 0.17545(14) 0.92947(13) 0.53638(17)
C17_154 C 0.1790(2) 0.9468(2) 0.5513(3)
C18_154 C 0.1838(3) 0.9720(3) 0.5713(3)
H14_154 H 0.186426 0.988693 0.560605
H15_154 H 0.167859 0.974211 0.583193
H16_154 H 0.200011 0.968688 0.582513
N1_155 N 0.63062(9) 0.36438(9) 0.04534(9)
C1_155 C 0.65234(10) 0.34977(11) 0.03715(10)
C2_155 C 0.67776(11) 0.35405(12) 0.04870(10)
H1_155 H 0.692581 0.343030 0.042866
C3_155 C 0.66069(11) 0.38778(13) 0.07557(12)
H2_155 H 0.662992 0.401532 0.089017
C4_155 C 0.63500(11) 0.38334(12) 0.06448(11)
H3_155 H 0.620111 0.394073 0.070654
H8_155 H 0.692696 0.288108 0.007762
C11_155 C 0.64077(11) 0.29286(11) 0.02580(12)
C12_155 C 0.62786(18) 0.27264(14) 0.01031(16)
C13_116 C 0.6233(2) 0.24690(15) 0.02158(18)
H10_116 H 0.614885 0.232933 0.011098
C14_116 C 0.6311(2) 0.24207(17) 0.0481(2)
H11_116 H 0.628386 0.224468 0.055776
C15_155 C 0.64254(19) 0.26181(19) 0.0636(2)
H12_155 H 0.646944 0.258274 0.082086
C16_155 C 0.64794(15) 0.28758(16) 0.05225(16)
H13_155 H 0.656539 0.301276 0.062911
N3_155 N 0.57455(14) 0.32053(13) 0.03638(17)
C17_155 C 0.5710(2) 0.3032(2) 0.0513(3)
C18_155 C 0.5662(3) 0.2780(3) 0.0713(3)
H14_155 H 0.563574 0.261307 0.060605
H15_155 H 0.582141 0.275789 0.083193
H16_155 H 0.549989 0.281312 0.082513
C5_155 C 0.67932(12) 0.32372(13) 0.99304(11)
C6_155 C 0.68587(16) 0.34544(17) 0.97553(16)
H4_155 H 0.673388 0.360071 0.973204
C7_155 C 0.71056(19) 0.3456(2) 0.96162(19)
H5_155 H 0.714656 0.359725 0.949038
C8_155 C 0.72897(17) 0.3250(2) 0.96628(16)
H6_155 H 0.746418 0.325738 0.957891
C9_155 C 0.72277(15) 0.30396(19) 0.98238(16)
H7_155 H 0.735443 0.289484 0.984619
C10_155 C 0.69711(13) 0.30310(16) 0.99632(15)
H9_155 H 0.622228 0.276434 0.992167
N1_156 N 0.61938(9) 0.86438(9) 0.70466(9)
C1_156 C 0.59766(10) 0.84977(11) 0.71285(10)
C2_156 C 0.57224(11) 0.85405(12) 0.70130(10)
H1_156 H 0.557419 0.843030 0.707134
C3_156 C 0.58931(11) 0.88778(13) 0.67443(12)
H2_156 H 0.587008 0.901532 0.660983
C4_156 C 0.61500(11) 0.88334(12) 0.68552(11)
H3_156 H 0.629889 0.894073 0.679346
C5_156 C 0.57068(12) 0.82372(13) 0.75696(11)
C6_156 C 0.56413(16) 0.84544(17) 0.77447(16)
H4_156 H 0.576612 0.860071 0.776796
C7_156 C 0.53944(19) 0.8456(2) 0.78838(19)
H5_156 H 0.535344 0.859725 0.800962
C8_156 C 0.52103(17) 0.8250(2) 0.78372(16)
H6_156 H 0.503582 0.825738 0.792109
C9_156 C 0.52723(15) 0.80396(19) 0.76762(16)
H7_156 H 0.514557 0.789484 0.765381
C10_156 C 0.55289(13) 0.80310(16) 0.75368(15)
H8_156 H 0.557304 0.788108 0.742238
C11_156 C 0.60923(11) 0.79286(11) 0.72420(12)
C12_156 C 0.62214(18) 0.77264(14) 0.73969(16)
H9_156 H 0.627772 0.776434 0.757833
C13_117 C 0.6267(2) 0.74690(15) 0.72842(18)
H10_117 H 0.635115 0.732933 0.738902
C14_117 C 0.6189(2) 0.74207(17) 0.7019(2)
H11_117 H 0.621614 0.724468 0.694224
C15_156 C 0.60746(19) 0.76181(19) 0.6864(2)
H12_156 H 0.603056 0.758274 0.667914
C16_156 C 0.60206(15) 0.78758(16) 0.69775(16)
H13_156 H 0.593461 0.801276 0.687089
N3_156 N 0.67545(14) 0.82053(13) 0.71362(17)
C17_156 C 0.6790(2) 0.8032(2) 0.6987(3)
C18_156 C 0.6838(3) 0.7780(3) 0.6787(3)
H14_156 H 0.686426 0.761307 0.689395
H15_156 H 0.667859 0.775789 0.666807
H16_156 H 0.700011 0.781312 0.667487
N1_157 N 0.38062(9) 0.45466(9) 0.11438(9)
C1_157 C 0.40234(10) 0.46285(10) 0.09977(11)
C2_157 C 0.42776(11) 0.45130(10) 0.10405(12)
H1_157 H 0.442581 0.457134 0.093030
C3_157 C 0.41069(11) 0.42443(12) 0.13778(13)
H2_157 H 0.412992 0.410983 0.151532
C4_157 C 0.38500(11) 0.43552(11) 0.13334(12)
H3_157 H 0.370111 0.429346 0.144073
C5_157 C 0.42932(12) 0.50696(11) 0.07372(13)
C6_157 C 0.43587(16) 0.52447(16) 0.09544(17)
H4_157 H 0.423388 0.526796 0.110071
C7_157 C 0.46056(19) 0.53838(19) 0.0956(2)
H5_157 H 0.464656 0.550962 0.109725
C8_157 C 0.47897(17) 0.53372(16) 0.0750(2)
H6_157 H 0.496418 0.542109 0.075738
C9_157 C 0.47277(15) 0.51762(16) 0.05396(19)
H7_157 H 0.485443 0.515381 0.039484
C10_157 C 0.44711(13) 0.50368(15) 0.05310(16)
H8_157 H 0.442696 0.492238 0.038108
C11_157 C 0.39077(11) 0.47420(12) 0.04286(11)
C12_157 C 0.37786(18) 0.48969(16) 0.02264(14)
H9_157 H 0.372228 0.507833 0.026434
C15_157 C 0.39254(19) 0.4364(2) 0.01181(19)
H12_157 H 0.396944 0.417914 0.008274
C16_157 C 0.39794(15) 0.44775(16) 0.03758(16)
H13_157 H 0.406539 0.437089 0.051276
N3_157 N 0.32455(14) 0.46362(17) 0.07053(13)
C17_157 C 0.3210(2) 0.4487(3) 0.0532(2)
C18_157 C 0.3162(3) 0.4287(3) 0.0280(3)
H14_157 H 0.313574 0.439395 0.011307
H15_157 H 0.332141 0.416807 0.025789
H16_157 H 0.299989 0.417487 0.031312
N1_158 N 0.36938(9) 0.79534(9) 0.61438(9)
C1_158 C 0.34766(10) 0.78715(10) 0.59977(11)
C2_158 C 0.32224(11) 0.79870(10) 0.60405(12)
H1_158 H 0.307419 0.792866 0.593030
C3_158 C 0.33931(11) 0.82557(12) 0.63778(13)
H2_158 H 0.337008 0.839017 0.651532
C4_158 C 0.36500(11) 0.81448(11) 0.63334(12)
H3_158 H 0.379889 0.820654 0.644073
C5_158 C 0.32068(12) 0.74304(11) 0.57372(13)
C6_158 C 0.31413(16) 0.72553(16) 0.59544(17)
H4_158 H 0.326612 0.723204 0.610071
C7_158 C 0.28944(19) 0.71162(19) 0.5956(2)
H5_158 H 0.285344 0.699038 0.609725
C8_158 C 0.27103(17) 0.71628(16) 0.5750(2)
H6_158 H 0.253582 0.707891 0.575738
C9_158 C 0.27723(15) 0.73238(16) 0.55396(19)
H7_158 H 0.264557 0.734619 0.539484
C10_158 C 0.30289(13) 0.74632(15) 0.55310(16)
H8_158 H 0.307304 0.757762 0.538108
C11_158 C 0.35923(11) 0.77580(12) 0.54286(11)
C12_158 C 0.37214(18) 0.76031(16) 0.52264(14)
H9_158 H 0.377772 0.742167 0.526434
C13_118 C 0.3767(2) 0.77158(18) 0.49690(15)
H10_118 H 0.385115 0.761098 0.482933
C14_118 C 0.3689(2) 0.7981(2) 0.49207(17)
H11_118 H 0.371614 0.805776 0.474468
C15_158 C 0.35746(19) 0.8136(2) 0.51181(19)
H12_158 H 0.353056 0.832086 0.508274
C16_158 C 0.35206(15) 0.80225(16) 0.53758(16)
H13_158 H 0.343461 0.812911 0.551276
N3_158 N 0.42545(14) 0.78638(17) 0.57053(13)
C17_158 C 0.4290(2) 0.8013(3) 0.5532(2)
C18_158 C 0.4338(3) 0.8213(3) 0.5280(3)
H14_158 H 0.436426 0.810605 0.511307
H15_158 H 0.417859 0.833193 0.525789
H16_158 H 0.450011 0.832513 0.531312
N1_159 N 0.88062(9) 0.29534(9) 0.13562(9)
C1_159 C 0.90234(10) 0.28715(10) 0.15023(11)
C2_159 C 0.92776(11) 0.29870(10) 0.14595(12)
H1_159 H 0.942581 0.292866 0.156970
C3_159 C 0.91069(11) 0.32557(12) 0.11222(13)
H2_159 H 0.912992 0.339017 0.098468
C4_159 C 0.88500(11) 0.31448(11) 0.11666(12)
H3_159 H 0.870111 0.320654 0.105927
C5_159 C 0.92932(12) 0.24304(11) 0.17628(13)
C6_159 C 0.93587(16) 0.22553(16) 0.15456(17)
H4_159 H 0.923388 0.223204 0.139929
C7_159 C 0.96056(19) 0.21162(19) 0.1544(2)
H5_159 H 0.964656 0.199038 0.140275
C8_159 C 0.97897(17) 0.21628(16) 0.1750(2)
H6_159 H 0.996418 0.207891 0.174262
C9_159 C 0.97277(15) 0.23238(16) 0.19604(19)
H7_159 H 0.985443 0.234619 0.210516
C10_159 C 0.94711(13) 0.24632(15) 0.19690(16)
H8_159 H 0.942696 0.257762 0.211892
C11_159 C 0.89077(11) 0.27580(12) 0.20714(11)
C12_159 C 0.87786(18) 0.26031(16) 0.22736(14)
H9_159 H 0.872228 0.242167 0.223566
C13_119 C 0.8733(2) 0.27158(18) 0.25310(15)
H10_119 H 0.864885 0.261098 0.267067
C14_119 C 0.8811(2) 0.2981(2) 0.25793(17)
H11_119 H 0.878386 0.305776 0.275532
C15_159 C 0.89254(19) 0.3136(2) 0.23819(19)
H12_159 H 0.896944 0.332086 0.241726
C16_159 C 0.89794(15) 0.30225(16) 0.21242(16)
H13_159 H 0.906539 0.312911 0.198724
N3_159 N 0.82455(14) 0.28638(17) 0.17947(13)
C17_159 C 0.8210(2) 0.3013(3) 0.1968(2)
C18_159 C 0.8162(3) 0.3213(3) 0.2220(3)
H14_159 H 0.813574 0.310605 0.238693
H15_159 H 0.832141 0.333193 0.224211
H16_159 H 0.799989 0.332513 0.218688
C5_160 C 0.82068(12) 0.00696(11) 0.67628(13)
C6_160 C 0.81413(16) 0.02447(16) 0.65456(17)
H4_160 H 0.826612 0.026796 0.639929
C7_160 C 0.78944(19) 0.03838(19) 0.6544(2)
H5_160 H 0.785344 0.050962 0.640275
C8_160 C 0.77103(17) 0.03372(16) 0.6750(2)
H6_160 H 0.753582 0.042109 0.674262
C9_160 C 0.77723(15) 0.01762(16) 0.69604(19)
H7_160 H 0.764557 0.015381 0.710516
C10_160 C 0.80289(13) 0.00368(15) 0.69690(16)
H9_160 H 0.877772 0.007833 0.723566
N1_160 N 0.86938(9) 0.95466(9) 0.63562(9)
C1_160 C 0.84766(10) 0.96285(10) 0.65023(11)
C2_160 C 0.82224(11) 0.95130(10) 0.64595(12)
H1_160 H 0.807419 0.957134 0.656970
C3_160 C 0.83931(11) 0.92443(12) 0.61222(13)
H2_160 H 0.837008 0.910983 0.598468
C4_160 C 0.86500(11) 0.93552(11) 0.61666(12)
H3_160 H 0.879889 0.929346 0.605927
H8_160 H 0.807304 0.992238 0.711892
C11_160 C 0.85923(11) 0.97420(12) 0.70714(11)
C12_160 C 0.87214(18) 0.98969(16) 0.72736(14)
C13_120 C 0.8767(2) 0.97842(18) 0.75310(15)
H10_120 H 0.885115 0.988902 0.767067
C14_120 C 0.8689(2) 0.9519(2) 0.75793(17)
H11_120 H 0.871614 0.944224 0.775532
C15_160 C 0.85746(19) 0.9364(2) 0.73819(19)
H12_160 H 0.853056 0.917914 0.741726
C16_160 C 0.85206(15) 0.94775(16) 0.71242(16)
H13_160 H 0.843461 0.937089 0.698724
N3_160 N 0.92545(14) 0.96362(17) 0.67947(13)
C17_160 C 0.9290(2) 0.9487(3) 0.6968(2)
C18_160 C 0.9338(3) 0.9287(3) 0.7220(3)
H14_160 H 0.936426 0.939395 0.738693
H15_160 H 0.917859 0.916807 0.724211
H16_160 H 0.950011 0.917487 0.718688
P1_93 P 0.49063(3) 0.17455(3) 0.85388(3)
N1_161 N 0.45466(9) 0.13562(9) 0.86938(9)
C1_161 C 0.46285(10) 0.15023(11) 0.84766(10)
C2_161 C 0.45130(10) 0.14595(12) 0.82224(11)
H1_161 H 0.457134 0.156970 0.807419
C3_161 C 0.42443(12) 0.11222(13) 0.83931(11)
H2_161 H 0.410983 0.098468 0.837008
C4_161 C 0.43552(11) 0.11666(12) 0.86500(11)
H3_161 H 0.429346 0.105927 0.879889
C5_161 C 0.50696(11) 0.17628(13) 0.82068(12)
C6_161 C 0.52447(16) 0.15456(17) 0.81413(16)
H4_161 H 0.526796 0.139929 0.826612
C7_161 C 0.53838(19) 0.1544(2) 0.78944(19)
H5_161 H 0.550962 0.140275 0.785344
C8_161 C 0.53372(16) 0.1750(2) 0.77103(17)
H6_161 H 0.542109 0.174262 0.753582
C9_161 C 0.51762(16) 0.19604(19) 0.77723(15)
H7_161 H 0.515381 0.210516 0.764557
C10_161 C 0.50368(15) 0.19690(16) 0.80289(13)
H8_161 H 0.492238 0.211892 0.807304
C11_161 C 0.47420(12) 0.20714(11) 0.85923(11)
C12_161 C 0.48969(16) 0.22736(14) 0.87214(18)
H9_161 H 0.507833 0.223566 0.877772
C13_121 C 0.47842(18) 0.25310(15) 0.8767(2)
H10_121 H 0.488902 0.267067 0.885115
C14_121 C 0.4519(2) 0.25793(17) 0.8689(2)
H11_121 H 0.444224 0.275532 0.871614
C15_161 C 0.4364(2) 0.23819(19) 0.85746(19)
H12_161 H 0.417914 0.241726 0.853056
C16_161 C 0.44775(16) 0.21242(16) 0.85206(15)
H13_161 H 0.437089 0.198724 0.843461
N3_161 N 0.46362(17) 0.17947(13) 0.92545(14)
C17_161 C 0.4487(3) 0.1968(2) 0.9290(2)
C18_161 C 0.4287(3) 0.2220(3) 0.9338(3)
H14_161 H 0.439395 0.238693 0.936426
H15_161 H 0.416807 0.224211 0.917859
H16_161 H 0.417487 0.218688 0.950011
P2_93 P 0.50937(3) 0.10388(3) 0.92455(3)
P1_94 P 0.75937(3) 0.67455(3) 0.89612(3)
N1_162 N 0.79534(9) 0.63562(9) 0.88062(9)
C1_162 C 0.78715(10) 0.65023(11) 0.90234(10)
C2_162 C 0.79870(10) 0.64595(12) 0.92776(11)
H1_162 H 0.792866 0.656970 0.942581
C3_162 C 0.82557(12) 0.61222(13) 0.91069(11)
H2_162 H 0.839017 0.598468 0.912992
C4_162 C 0.81448(11) 0.61666(12) 0.88500(11)
H3_162 H 0.820654 0.605927 0.870111
C5_162 C 0.74304(11) 0.67628(13) 0.92932(12)
C6_162 C 0.72553(16) 0.65456(17) 0.93587(16)
H4_162 H 0.723204 0.639929 0.923388
C7_162 C 0.71162(19) 0.6544(2) 0.96056(19)
H5_162 H 0.699038 0.640275 0.964656
C8_162 C 0.71628(16) 0.6750(2) 0.97897(17)
H6_162 H 0.707891 0.674262 0.996418
C9_162 C 0.73238(16) 0.69604(19) 0.97277(15)
H7_162 H 0.734619 0.710516 0.985443
C10_162 C 0.74632(15) 0.69690(16) 0.94711(13)
H8_162 H 0.757762 0.711892 0.942696
C11_162 C 0.77580(12) 0.70714(11) 0.89077(11)
C12_162 C 0.76031(16) 0.72736(14) 0.87786(18)
H9_162 H 0.742167 0.723566 0.872228
C13_122 C 0.77158(18) 0.75310(15) 0.8733(2)
H10_122 H 0.761098 0.767067 0.864885
C14_122 C 0.7981(2) 0.75793(17) 0.8811(2)
H11_122 H 0.805776 0.775532 0.878386
C15_162 C 0.8136(2) 0.73819(19) 0.89254(19)
H12_162 H 0.832086 0.741726 0.896944
C16_162 C 0.80225(16) 0.71242(16) 0.89794(15)
H13_162 H 0.812911 0.698724 0.906539
N3_162 N 0.78638(17) 0.67947(13) 0.82455(14)
C17_162 C 0.8013(3) 0.6968(2) 0.8210(2)
C18_162 C 0.8213(3) 0.7220(3) 0.8162(3)
H14_162 H 0.810605 0.738693 0.813574
H15_162 H 0.833193 0.724211 0.832141
H16_162 H 0.832513 0.718688 0.799989
P2_94 P 0.74063(3) 0.60388(3) 0.82545(3)
P1_95 P 0.25937(3) 0.07545(3) 0.35388(3)
N1_163 N 0.29534(9) 0.11438(9) 0.36938(9)
C1_163 C 0.28715(10) 0.09977(11) 0.34766(10)
C2_163 C 0.29870(10) 0.10405(12) 0.32224(11)
H1_163 H 0.292866 0.093030 0.307419
C3_163 C 0.32557(12) 0.13778(13) 0.33931(11)
H2_163 H 0.339017 0.151532 0.337008
C4_163 C 0.31448(11) 0.13334(12) 0.36500(11)
H3_163 H 0.320654 0.144073 0.379889
C5_163 C 0.24304(11) 0.07372(13) 0.32068(12)
C6_163 C 0.22553(16) 0.09544(17) 0.31413(16)
H4_163 H 0.223204 0.110071 0.326612
C7_163 C 0.21162(19) 0.0956(2) 0.28944(19)
H5_163 H 0.199038 0.109725 0.285344
C8_163 C 0.21628(16) 0.0750(2) 0.27103(17)
H6_163 H 0.207891 0.075738 0.253582
C9_163 C 0.23238(16) 0.05396(19) 0.27723(15)
H7_163 H 0.234619 0.039484 0.264557
C10_163 C 0.24632(15) 0.05310(16) 0.30289(13)
H8_163 H 0.257762 0.038108 0.307304
C11_163 C 0.27580(12) 0.04286(11) 0.35923(11)
C12_163 C 0.26031(16) 0.02264(14) 0.37214(18)
H9_163 H 0.242167 0.026434 0.377772
C15_163 C 0.3136(2) 0.01181(19) 0.35746(19)
H12_163 H 0.332086 0.008274 0.353056
C16_163 C 0.30225(16) 0.03758(16) 0.35206(15)
H13_163 H 0.312911 0.051276 0.343461
N3_163 N 0.28638(17) 0.07053(13) 0.42545(14)
C17_163 C 0.3013(3) 0.0532(2) 0.4290(2)
C18_163 C 0.3213(3) 0.0280(3) 0.4338(3)
H14_163 H 0.310605 0.011307 0.436426
H15_163 H 0.333193 0.025789 0.417859
H16_163 H 0.332513 0.031312 0.450011
P2_95 P 0.24063(3) 0.14612(3) 0.42455(3)
C5_164 C 0.00696(11) 0.57372(13) 0.42932(12)
C6_164 C 0.02447(16) 0.59544(17) 0.43587(16)
H4_164 H 0.026796 0.610071 0.423388
C7_164 C 0.03838(19) 0.5956(2) 0.46056(19)
H5_164 H 0.050962 0.609725 0.464656
C8_164 C 0.03372(16) 0.5750(2) 0.47897(17)
H6_164 H 0.042109 0.575738 0.496418
C9_164 C 0.01762(16) 0.55396(19) 0.47277(15)
H7_164 H 0.015381 0.539484 0.485443
C10_164 C 0.00368(15) 0.55310(16) 0.44711(13)
H9_164 H 0.007833 0.526434 0.372228
P2_96 P 0.00937(3) 0.64612(3) 0.32545(3)
P1_96 P 0.99063(3) 0.57545(3) 0.39612(3)
N1_164 N 0.95466(9) 0.61438(9) 0.38062(9)
C1_164 C 0.96285(10) 0.59977(11) 0.40234(10)
C2_164 C 0.95130(10) 0.60405(12) 0.42776(11)
H1_164 H 0.957134 0.593030 0.442581
C3_164 C 0.92443(12) 0.63778(13) 0.41069(11)
H2_164 H 0.910983 0.651532 0.412992
C4_164 C 0.93552(11) 0.63334(12) 0.38500(11)
H3_164 H 0.929346 0.644073 0.370111
H8_164 H 0.992238 0.538108 0.442696
C11_164 C 0.97420(12) 0.54286(11) 0.39077(11)
C12_164 C 0.98969(16) 0.52264(14) 0.37786(18)
C13_123 C 0.97842(18) 0.49690(15) 0.3733(2)
H10_123 H 0.988902 0.482933 0.364885
C14_123 C 0.9519(2) 0.49207(17) 0.3811(2)
H11_123 H 0.944224 0.474468 0.378386
C15_164 C 0.9364(2) 0.51181(19) 0.39254(19)
H12_164 H 0.917914 0.508274 0.396944
C16_164 C 0.94775(16) 0.53758(16) 0.39794(15)
H13_164 H 0.937089 0.551276 0.406539
N3_164 N 0.96362(17) 0.57053(13) 0.32455(14)
C17_164 C 0.9487(3) 0.5532(2) 0.3210(2)
C18_164 C 0.9287(3) 0.5280(3) 0.3162(3)
H14_164 H 0.939395 0.511307 0.313574
H15_164 H 0.916807 0.525789 0.332141
H16_164 H 0.917487 0.531312 0.299989
N1_165 N 0.13562(9) 0.38062(9) 0.79534(9)
C1_165 C 0.15023(11) 0.40234(10) 0.78715(10)
C2_165 C 0.14595(12) 0.42776(11) 0.79870(10)
H1_165 H 0.156970 0.442581 0.792866
C3_165 C 0.11222(13) 0.41069(11) 0.82557(12)
H2_165 H 0.098468 0.412992 0.839017
C4_165 C 0.11666(12) 0.38500(11) 0.81448(11)
H3_165 H 0.105927 0.370111 0.820654
C5_165 C 0.17628(13) 0.42932(12) 0.74304(11)
C6_165 C 0.15456(17) 0.43587(16) 0.72553(16)
H4_165 H 0.139929 0.423388 0.723204
C7_165 C 0.1544(2) 0.46056(19) 0.71162(19)
H5_165 H 0.140275 0.464656 0.699038
C8_165 C 0.1750(2) 0.47897(17) 0.71628(16)
H6_165 H 0.174262 0.496418 0.707891
C9_165 C 0.19604(19) 0.47277(15) 0.73238(16)
H7_165 H 0.210516 0.485443 0.734619
C10_165 C 0.19690(16) 0.44711(13) 0.74632(15)
H8_165 H 0.211892 0.442696 0.757762
C11_165 C 0.20714(11) 0.39077(11) 0.77580(12)
C12_165 C 0.22736(14) 0.37786(18) 0.76031(16)
H9_165 H 0.223566 0.372228 0.742167
C13_124 C 0.25310(15) 0.3733(2) 0.77158(18)
H10_124 H 0.267067 0.364885 0.761098
C14_124 C 0.25793(17) 0.3811(2) 0.7981(2)
H11_124 H 0.275532 0.378386 0.805776
C15_165 C 0.23819(19) 0.39254(19) 0.8136(2)
H12_165 H 0.241726 0.396944 0.832086
C16_165 C 0.21242(16) 0.39794(15) 0.80225(16)
H13_165 H 0.198724 0.406539 0.812911
N3_165 N 0.17947(13) 0.32455(14) 0.78638(17)
C17_165 C 0.1968(2) 0.3210(2) 0.8013(3)
C18_165 C 0.2220(3) 0.3162(3) 0.8213(3)
H14_165 H 0.238693 0.313574 0.810605
H15_165 H 0.224211 0.332141 0.833193
H16_165 H 0.218688 0.299989 0.832513
N1_166 N 0.63562(9) 0.36938(9) 0.45466(9)
C1_166 C 0.65023(11) 0.34766(10) 0.46285(10)
C2_166 C 0.64595(12) 0.32224(11) 0.45130(10)
H1_166 H 0.656970 0.307419 0.457134
C3_166 C 0.61222(13) 0.33931(11) 0.42443(12)
H2_166 H 0.598468 0.337008 0.410983
C4_166 C 0.61666(12) 0.36500(11) 0.43552(11)
H3_166 H 0.605927 0.379889 0.429346
C5_166 C 0.67628(13) 0.32068(12) 0.50696(11)
C6_166 C 0.65456(17) 0.31413(16) 0.52447(16)
H4_166 H 0.639929 0.326612 0.526796
C7_166 C 0.6544(2) 0.28944(19) 0.53838(19)
H5_166 H 0.640275 0.285344 0.550962
C8_166 C 0.6750(2) 0.27103(17) 0.53372(16)
H6_166 H 0.674262 0.253582 0.542109
C9_166 C 0.69604(19) 0.27723(15) 0.51762(16)
H7_166 H 0.710516 0.264557 0.515381
C10_166 C 0.69690(16) 0.30289(13) 0.50368(15)
H8_166 H 0.711892 0.307304 0.492238
C11_166 C 0.70714(11) 0.35923(11) 0.47420(12)
C12_166 C 0.72736(14) 0.37214(18) 0.48969(16)
H9_166 H 0.723566 0.377772 0.507833
C13_125 C 0.75310(15) 0.3767(2) 0.47842(18)
H10_125 H 0.767067 0.385115 0.488902
C14_125 C 0.75793(17) 0.3689(2) 0.4519(2)
H11_125 H 0.775532 0.371614 0.444224
C15_166 C 0.73819(19) 0.35746(19) 0.4364(2)
H12_166 H 0.741726 0.353056 0.417914
C16_166 C 0.71242(16) 0.35206(15) 0.44775(16)
H13_166 H 0.698724 0.343461 0.437089
N3_166 N 0.67947(13) 0.42545(14) 0.46362(17)
C17_166 C 0.6968(2) 0.4290(2) 0.4487(3)
C18_166 C 0.7220(3) 0.4338(3) 0.4287(3)
H14_166 H 0.738693 0.436426 0.439395
H15_166 H 0.724211 0.417859 0.416807
H16_166 H 0.718688 0.450011 0.417487
C5_167 C 0.07372(13) 0.92932(12) 0.00696(11)
C6_167 C 0.09544(17) 0.93587(16) 0.02447(16)
H4_167 H 0.110071 0.923388 0.026796
C7_167 C 0.0956(2) 0.96056(19) 0.03838(19)
H5_167 H 0.109725 0.964656 0.050962
C8_167 C 0.0750(2) 0.97897(17) 0.03372(16)
H6_167 H 0.075738 0.996418 0.042109
C9_167 C 0.05396(19) 0.97277(15) 0.01762(16)
H7_167 H 0.039484 0.985443 0.015381
C10_167 C 0.05310(16) 0.94711(13) 0.00368(15)
H9_167 H 0.026434 0.872228 0.007833
N1_167 N 0.11438(9) 0.88062(9) 0.95466(9)
C1_167 C 0.09977(11) 0.90234(10) 0.96285(10)
C2_167 C 0.10405(12) 0.92776(11) 0.95130(10)
H1_167 H 0.093030 0.942581 0.957134
C3_167 C 0.13778(13) 0.91069(11) 0.92443(12)
H2_167 H 0.151532 0.912992 0.910983
C4_167 C 0.13334(12) 0.88500(11) 0.93552(11)
H3_167 H 0.144073 0.870111 0.929346
H8_167 H 0.038108 0.942696 0.992238
C11_167 C 0.04286(11) 0.89077(11) 0.97420(12)
C12_167 C 0.02264(14) 0.87786(18) 0.98969(16)
C15_167 C 0.01181(19) 0.89254(19) 0.9364(2)
H12_167 H 0.008274 0.896944 0.917914
C16_167 C 0.03758(16) 0.89794(15) 0.94775(16)
H13_167 H 0.051276 0.906539 0.937089
N3_167 N 0.07053(13) 0.82455(14) 0.96362(17)
C17_167 C 0.0532(2) 0.8210(2) 0.9487(3)
C18_167 C 0.0280(3) 0.8162(3) 0.9287(3)
H14_167 H 0.011307 0.813574 0.939395
H15_167 H 0.025789 0.832141 0.916807
H16_167 H 0.031312 0.799989 0.917487
N1_168 N 0.61438(9) 0.86938(9) 0.29534(9)
C1_168 C 0.59977(11) 0.84766(10) 0.28715(10)
C2_168 C 0.60405(12) 0.82224(11) 0.29870(10)
H1_168 H 0.593030 0.807419 0.292866
C3_168 C 0.63778(13) 0.83931(11) 0.32557(12)
H2_168 H 0.651532 0.837008 0.339017
C4_168 C 0.63334(12) 0.86500(11) 0.31448(11)
H3_168 H 0.644073 0.879889 0.320654
C5_168 C 0.57372(13) 0.82068(12) 0.24304(11)
C6_168 C 0.59544(17) 0.81413(16) 0.22553(16)
H4_168 H 0.610071 0.826612 0.223204
C7_168 C 0.5956(2) 0.78944(19) 0.21162(19)
H5_168 H 0.609725 0.785344 0.199038
C8_168 C 0.5750(2) 0.77103(17) 0.21628(16)
H6_168 H 0.575738 0.753582 0.207891
C9_168 C 0.55396(19) 0.77723(15) 0.23238(16)
H7_168 H 0.539484 0.764557 0.234619
C10_168 C 0.55310(16) 0.80289(13) 0.24632(15)
H8_168 H 0.538108 0.807304 0.257762
C11_168 C 0.54286(11) 0.85923(11) 0.27580(12)
C12_168 C 0.52264(14) 0.87214(18) 0.26031(16)
H9_168 H 0.526434 0.877772 0.242167
C13_126 C 0.49690(15) 0.8767(2) 0.27158(18)
H10_126 H 0.482933 0.885115 0.261098
C14_126 C 0.49207(17) 0.8689(2) 0.2981(2)
H11_126 H 0.474468 0.871614 0.305776
C15_168 C 0.51181(19) 0.85746(19) 0.3136(2)
H12_168 H 0.508274 0.853056 0.332086
C16_168 C 0.53758(16) 0.85206(15) 0.30225(16)
H13_168 H 0.551276 0.843461 0.312911
N3_168 N 0.57053(13) 0.92545(14) 0.28638(17)
C17_168 C 0.5532(2) 0.9290(2) 0.3013(3)
C18_168 C 0.5280(3) 0.9338(3) 0.3213(3)
H14_168 H 0.511307 0.936426 0.310605
H15_168 H 0.525789 0.917859 0.333193
H16_168 H 0.531312 0.950011 0.332513
N1_169 N 0.20466(9) 0.13062(9) 0.38562(9)
C1_169 C 0.21285(10) 0.15234(10) 0.40023(11)
C2_169 C 0.20130(10) 0.17776(11) 0.39595(12)
H1_169 H 0.207134 0.192581 0.406970
C3_169 C 0.17443(12) 0.16069(11) 0.36222(13)
H2_169 H 0.160983 0.162992 0.348468
C4_169 C 0.18552(11) 0.13500(11) 0.36666(12)
H3_169 H 0.179346 0.120111 0.355927
C5_169 C 0.25696(11) 0.17932(12) 0.42628(13)
C6_169 C 0.27447(16) 0.18587(16) 0.40456(17)
H4_169 H 0.276796 0.173388 0.389929
C7_169 C 0.28838(19) 0.21056(19) 0.4044(2)
H5_169 H 0.300962 0.214656 0.390275
C8_169 C 0.28372(16) 0.22897(17) 0.4250(2)
H6_169 H 0.292109 0.246418 0.424262
C9_169 C 0.26762(16) 0.22277(15) 0.44604(19)
H7_169 H 0.265381 0.235443 0.460516
C10_169 C 0.25368(15) 0.19711(13) 0.44690(16)
H8_169 H 0.242238 0.192696 0.461892
C11_169 C 0.22420(12) 0.14077(11) 0.45714(11)
C12_169 C 0.23969(16) 0.12786(18) 0.47736(14)
H9_169 H 0.257833 0.122228 0.473566
C13_127 C 0.22842(18) 0.1233(2) 0.50310(15)
H10_127 H 0.238902 0.114885 0.517067
C14_127 C 0.2019(2) 0.1311(2) 0.50793(17)
H11_127 H 0.194224 0.128386 0.525532
C15_169 C 0.1864(2) 0.14254(19) 0.48819(19)
H12_169 H 0.167914 0.146944 0.491726
C16_169 C 0.19775(16) 0.14794(15) 0.46242(16)
H13_169 H 0.187089 0.156539 0.448724
N3_169 N 0.21362(17) 0.07455(14) 0.42947(13)
C17_169 C 0.1987(3) 0.0710(2) 0.4468(2)
C18_169 C 0.1787(3) 0.0662(3) 0.4720(3)
H14_169 H 0.189395 0.063574 0.488693
H15_169 H 0.166807 0.082141 0.474211
H16_169 H 0.167487 0.049989 0.468688
N1_170 N 0.54534(9) 0.11938(9) 0.88562(9)
C1_170 C 0.53715(10) 0.09766(10) 0.90023(11)
C2_170 C 0.54870(10) 0.07224(11) 0.89595(12)
H1_170 H 0.542866 0.057419 0.906970
C3_170 C 0.57557(12) 0.08931(11) 0.86222(13)
H2_170 H 0.589017 0.087008 0.848468
C4_170 C 0.56448(11) 0.11500(11) 0.86666(12)
H3_170 H 0.570654 0.129889 0.855927
C5_170 C 0.49304(11) 0.07068(12) 0.92628(13)
C6_170 C 0.47553(16) 0.06413(16) 0.90456(17)
H4_170 H 0.473204 0.076612 0.889929
C7_170 C 0.46162(19) 0.03944(19) 0.9044(2)
H5_170 H 0.449038 0.035344 0.890275
C8_170 C 0.46628(16) 0.02103(17) 0.9250(2)
H6_170 H 0.457891 0.003582 0.924262
C9_170 C 0.48238(16) 0.02723(15) 0.94604(19)
H7_170 H 0.484619 0.014557 0.960516
C10_170 C 0.49632(15) 0.05289(13) 0.94690(16)
H8_170 H 0.507762 0.057304 0.961892
C11_170 C 0.52580(12) 0.10923(11) 0.95714(11)
C12_170 C 0.51031(16) 0.12214(18) 0.97736(14)
H9_170 H 0.492167 0.127772 0.973566
C15_170 C 0.5636(2) 0.10746(19) 0.98819(19)
H12_170 H 0.582086 0.103056 0.991726
C16_170 C 0.55225(16) 0.10206(15) 0.96242(16)
H13_170 H 0.562911 0.093461 0.948724
N3_170 N 0.53638(17) 0.17545(14) 0.92947(13)
C17_170 C 0.5513(3) 0.1790(2) 0.9468(2)
C18_170 C 0.5713(3) 0.1838(3) 0.9720(3)
H14_170 H 0.560605 0.186426 0.988693
H15_170 H 0.583193 0.167859 0.974211
H16_170 H 0.582513 0.200011 0.968688
N1_171 N 0.04534(9) 0.63062(9) 0.36438(9)
C1_171 C 0.03715(10) 0.65234(10) 0.34977(11)
C2_171 C 0.04870(10) 0.67776(11) 0.35405(12)
H1_171 H 0.042866 0.692581 0.343030
C3_171 C 0.07557(12) 0.66069(11) 0.38778(13)
H2_171 H 0.089017 0.662992 0.401532
C4_171 C 0.06448(11) 0.63500(11) 0.38334(12)
H3_171 H 0.070654 0.620111 0.394073
H8_171 H 0.007762 0.692696 0.288108
C11_171 C 0.02580(12) 0.64077(11) 0.29286(11)
C12_171 C 0.01031(16) 0.62786(18) 0.27264(14)
C13_128 C 0.02158(18) 0.6233(2) 0.24690(15)
H10_128 H 0.011098 0.614885 0.232933
C14_128 C 0.0481(2) 0.6311(2) 0.24207(17)
H11_128 H 0.055776 0.628386 0.224468
C15_171 C 0.0636(2) 0.64254(19) 0.26181(19)
H12_171 H 0.082086 0.646944 0.258274
C16_171 C 0.05225(16) 0.64794(15) 0.28758(16)
H13_171 H 0.062911 0.656539 0.301276
N3_171 N 0.03638(17) 0.57455(14) 0.32053(13)
C17_171 C 0.0513(3) 0.5710(2) 0.3032(2)
C18_171 C 0.0713(3) 0.5662(3) 0.2780(3)
H14_171 H 0.060605 0.563574 0.261307
H15_171 H 0.083193 0.582141 0.275789
H16_171 H 0.082513 0.549989 0.281312
C5_171 C 0.99304(11) 0.67932(12) 0.32372(13)
C6_171 C 0.97553(16) 0.68587(16) 0.34544(17)
H4_171 H 0.973204 0.673388 0.360071
C7_171 C 0.96162(19) 0.71056(19) 0.3456(2)
H5_171 H 0.949038 0.714656 0.359725
C8_171 C 0.96628(16) 0.72897(17) 0.3250(2)
H6_171 H 0.957891 0.746418 0.325738
C9_171 C 0.98238(16) 0.72277(15) 0.30396(19)
H7_171 H 0.984619 0.735443 0.289484
C10_171 C 0.99632(15) 0.69711(13) 0.30310(16)
H9_171 H 0.992167 0.622228 0.276434
N1_172 N 0.70466(9) 0.61938(9) 0.86438(9)
C1_172 C 0.71285(10) 0.59766(10) 0.84977(11)
C2_172 C 0.70130(10) 0.57224(11) 0.85405(12)
H1_172 H 0.707134 0.557419 0.843030
C3_172 C 0.67443(12) 0.58931(11) 0.88778(13)
H2_172 H 0.660983 0.587008 0.901532
C4_172 C 0.68552(11) 0.61500(11) 0.88334(12)
H3_172 H 0.679346 0.629889 0.894073
C5_172 C 0.75696(11) 0.57068(12) 0.82372(13)
C6_172 C 0.77447(16) 0.56413(16) 0.84544(17)
H4_172 H 0.776796 0.576612 0.860071
C7_172 C 0.78838(19) 0.53944(19) 0.8456(2)
H5_172 H 0.800962 0.535344 0.859725
C8_172 C 0.78372(16) 0.52103(17) 0.8250(2)
H6_172 H 0.792109 0.503582 0.825738
C9_172 C 0.76762(16) 0.52723(15) 0.80396(19)
H7_172 H 0.765381 0.514557 0.789484
C10_172 C 0.75368(15) 0.55289(13) 0.80310(16)
H8_172 H 0.742238 0.557304 0.788108
C11_172 C 0.72420(12) 0.60923(11) 0.79286(11)
C12_172 C 0.73969(16) 0.62214(18) 0.77264(14)
H9_172 H 0.757833 0.627772 0.776434
C13_129 C 0.72842(18) 0.6267(2) 0.74690(15)
H10_129 H 0.738902 0.635115 0.732933
C14_129 C 0.7019(2) 0.6189(2) 0.74207(17)
H11_129 H 0.694224 0.621614 0.724468
C15_172 C 0.6864(2) 0.60746(19) 0.76181(19)
H12_172 H 0.667914 0.603056 0.758274
C16_172 C 0.69775(16) 0.60206(15) 0.78758(16)
H13_172 H 0.687089 0.593461 0.801276
N3_172 N 0.71362(17) 0.67545(14) 0.82053(13)
C17_172 C 0.6987(3) 0.6790(2) 0.8032(2)
C18_172 C 0.6787(3) 0.6838(3) 0.7780(3)
H14_172 H 0.689395 0.686426 0.761307
H15_172 H 0.666807 0.667859 0.775789
H16_172 H 0.667487 0.700011 0.781312
N1_173 N 0.88562(9) 0.20466(9) 0.63062(9)
C1_173 C 0.90023(11) 0.21285(10) 0.65234(10)
C2_173 C 0.89595(12) 0.20130(10) 0.67776(11)
H1_173 H 0.906970 0.207134 0.692581
C3_173 C 0.86222(13) 0.17443(12) 0.66069(11)
H2_173 H 0.848468 0.160983 0.662992
C4_173 C 0.86666(12) 0.18552(11) 0.63500(11)
H3_173 H 0.855927 0.179346 0.620111
C5_173 C 0.92628(13) 0.25696(11) 0.67932(12)
C6_173 C 0.90456(17) 0.27447(16) 0.68587(16)
H4_173 H 0.889929 0.276796 0.673388
C7_173 C 0.9044(2) 0.28838(19) 0.71056(19)
H5_173 H 0.890275 0.300962 0.714656
C8_173 C 0.9250(2) 0.28372(16) 0.72897(17)
H6_173 H 0.924262 0.292109 0.746418
C9_173 C 0.94604(19) 0.26762(16) 0.72277(15)
H7_173 H 0.960516 0.265381 0.735443
C10_173 C 0.94690(16) 0.25368(15) 0.69711(13)
H8_173 H 0.961892 0.242238 0.692696
C11_173 C 0.95714(11) 0.22420(12) 0.64077(11)
C12_173 C 0.97736(14) 0.23969(16) 0.62786(18)
H9_173 H 0.973566 0.257833 0.622228
C15_173 C 0.98819(19) 0.1864(2) 0.64254(19)
H12_173 H 0.991726 0.167914 0.646944
C16_173 C 0.96242(16) 0.19775(16) 0.64794(15)
H13_173 H 0.948724 0.187089 0.656539
N3_173 N 0.92947(13) 0.21362(17) 0.57455(14)
C17_173 C 0.9468(2) 0.1987(3) 0.5710(2)
C18_173 C 0.9720(3) 0.1787(3) 0.5662(3)
H14_173 H 0.988693 0.189395 0.563574
H15_173 H 0.974211 0.166807 0.582141
H16_173 H 0.968688 0.167487 0.549989
N1_174 N 0.38562(9) 0.54534(9) 0.61938(9)
C1_174 C 0.40023(11) 0.53715(10) 0.59766(10)
C2_174 C 0.39595(12) 0.54870(10) 0.57224(11)
H1_174 H 0.406970 0.542866 0.557419
C3_174 C 0.36222(13) 0.57557(12) 0.58931(11)
H2_174 H 0.348468 0.589017 0.587008
C4_174 C 0.36666(12) 0.56448(11) 0.61500(11)
H3_174 H 0.355927 0.570654 0.629889
C5_174 C 0.42628(13) 0.49304(11) 0.57068(12)
C6_174 C 0.40456(17) 0.47553(16) 0.56413(16)
H4_174 H 0.389929 0.473204 0.576612
C7_174 C 0.4044(2) 0.46162(19) 0.53944(19)
H5_174 H 0.390275 0.449038 0.535344
C8_174 C 0.4250(2) 0.46628(16) 0.52103(17)
H6_174 H 0.424262 0.457891 0.503582
C9_174 C 0.44604(19) 0.48238(16) 0.52723(15)
H7_174 H 0.460516 0.484619 0.514557
C10_174 C 0.44690(16) 0.49632(15) 0.55289(13)
H8_174 H 0.461892 0.507762 0.557304
C11_174 C 0.45714(11) 0.52580(12) 0.60923(11)
C12_174 C 0.47736(14) 0.51031(16) 0.62214(18)
H9_174 H 0.473566 0.492167 0.627772
C13_130 C 0.50310(15) 0.52158(18) 0.6267(2)
H10_130 H 0.517067 0.511098 0.635115
C14_130 C 0.50793(17) 0.5481(2) 0.6189(2)
H11_130 H 0.525532 0.555776 0.621614
C15_174 C 0.48819(19) 0.5636(2) 0.60746(19)
H12_174 H 0.491726 0.582086 0.603056
C16_174 C 0.46242(16) 0.55225(16) 0.60206(15)
H13_174 H 0.448724 0.562911 0.593461
N3_174 N 0.42947(13) 0.53638(17) 0.67545(14)
C17_174 C 0.4468(2) 0.5513(3) 0.6790(2)
C18_174 C 0.4720(3) 0.5713(3) 0.6838(3)
H14_174 H 0.488693 0.560605 0.686426
H15_174 H 0.474211 0.583193 0.667859
H16_174 H 0.468688 0.582513 0.700011
N1_175 N 0.86438(9) 0.04534(9) 0.13062(9)
C1_175 C 0.84977(11) 0.03715(10) 0.15234(10)
C2_175 C 0.85405(12) 0.04870(10) 0.17776(11)
H1_175 H 0.843030 0.042866 0.192581
C3_175 C 0.88778(13) 0.07557(12) 0.16069(11)
H2_175 H 0.901532 0.089017 0.162992
C4_175 C 0.88334(12) 0.06448(11) 0.13500(11)
H3_175 H 0.894073 0.070654 0.120111
H8_175 H 0.788108 0.007762 0.192696
C11_175 C 0.79286(11) 0.02580(12) 0.14077(11)
C12_175 C 0.77264(14) 0.01031(16) 0.12786(18)
C13_131 C 0.74690(15) 0.02158(18) 0.1233(2)
H10_131 H 0.732933 0.011098 0.114885
C14_131 C 0.74207(17) 0.0481(2) 0.1311(2)
H11_131 H 0.724468 0.055776 0.128386
C15_175 C 0.76181(19) 0.0636(2) 0.14254(19)
H12_175 H 0.758274 0.082086 0.146944
C16_175 C 0.78758(16) 0.05225(16) 0.14794(15)
H13_175 H 0.801276 0.062911 0.156539
N3_175 N 0.82053(13) 0.03638(17) 0.07455(14)
C17_175 C 0.8032(2) 0.0513(3) 0.0710(2)
C18_175 C 0.7780(3) 0.0713(3) 0.0662(3)
H14_175 H 0.761307 0.060605 0.063574
H15_175 H 0.775789 0.083193 0.082141
H16_175 H 0.781312 0.082513 0.049989
C5_175 C 0.82372(13) 0.99304(11) 0.17932(12)
C6_175 C 0.84544(17) 0.97553(16) 0.18587(16)
H4_175 H 0.860071 0.973204 0.173388
C7_175 C 0.8456(2) 0.96162(19) 0.21056(19)
H5_175 H 0.859725 0.949038 0.214656
C8_175 C 0.8250(2) 0.96628(16) 0.22897(17)
H6_175 H 0.825738 0.957891 0.246418
C9_175 C 0.80396(19) 0.98238(16) 0.22277(15)
H7_175 H 0.789484 0.984619 0.235443
C10_175 C 0.80310(16) 0.99632(15) 0.19711(13)
H9_175 H 0.776434 0.992167 0.122228
N1_176 N 0.36438(9) 0.70466(9) 0.11938(9)
C1_176 C 0.34977(11) 0.71285(10) 0.09766(10)
C2_176 C 0.35405(12) 0.70130(10) 0.07224(11)
H1_176 H 0.343030 0.707134 0.057419
C3_176 C 0.38778(13) 0.67443(12) 0.08931(11)
H2_176 H 0.401532 0.660983 0.087008
C4_176 C 0.38334(12) 0.68552(11) 0.11500(11)
H3_176 H 0.394073 0.679346 0.129889
C5_176 C 0.32372(13) 0.75696(11) 0.07068(12)
C6_176 C 0.34544(17) 0.77447(16) 0.06413(16)
H4_176 H 0.360071 0.776796 0.076612
C7_176 C 0.3456(2) 0.78838(19) 0.03944(19)
H5_176 H 0.359725 0.800962 0.035344
C8_176 C 0.3250(2) 0.78372(16) 0.02103(17)
H6_176 H 0.325738 0.792109 0.003582
C9_176 C 0.30396(19) 0.76762(16) 0.02723(15)
H7_176 H 0.289484 0.765381 0.014557
C10_176 C 0.30310(16) 0.75368(15) 0.05289(13)
H8_176 H 0.288108 0.742238 0.057304
C11_176 C 0.29286(11) 0.72420(12) 0.10923(11)
C12_176 C 0.27264(14) 0.73969(16) 0.12214(18)
H9_176 H 0.276434 0.757833 0.127772
C13_132 C 0.24690(15) 0.72842(18) 0.1267(2)
H10_132 H 0.232933 0.738902 0.135115
C14_132 C 0.24207(17) 0.7019(2) 0.1189(2)
H11_132 H 0.224468 0.694224 0.121614
C15_176 C 0.26181(19) 0.6864(2) 0.10746(19)
H12_176 H 0.258274 0.667914 0.103056
C16_176 C 0.28758(16) 0.69775(16) 0.10206(15)
H13_176 H 0.301276 0.687089 0.093461
N3_176 N 0.32053(13) 0.71362(17) 0.17545(14)
C17_176 C 0.3032(2) 0.6987(3) 0.1790(2)
C18_176 C 0.2780(3) 0.6787(3) 0.1838(3)
H14_176 H 0.261307 0.689395 0.186426
H15_176 H 0.275789 0.666807 0.167859
H16_176 H 0.281312 0.667487 0.200011
N1_177 N 0.13062(9) 0.88562(9) 0.70466(9)
C1_177 C 0.15234(10) 0.90023(11) 0.71285(10)
C2_177 C 0.17776(11) 0.89595(12) 0.70130(10)
H1_177 H 0.192581 0.906970 0.707134
C3_177 C 0.16069(11) 0.86222(13) 0.67443(12)
H2_177 H 0.162992 0.848468 0.660983
C4_177 C 0.13500(11) 0.86666(12) 0.68552(11)
H3_177 H 0.120111 0.855927 0.679346
C5_177 C 0.17932(12) 0.92628(13) 0.75696(11)
C6_177 C 0.18587(16) 0.90456(17) 0.77447(16)
H4_177 H 0.173388 0.889929 0.776796
C7_177 C 0.21056(19) 0.9044(2) 0.78838(19)
H5_177 H 0.214656 0.890275 0.800962
C8_177 C 0.22897(17) 0.9250(2) 0.78372(16)
H6_177 H 0.246418 0.924262 0.792109
C9_177 C 0.22277(15) 0.94604(19) 0.76762(16)
H7_177 H 0.235443 0.960516 0.765381
C10_177 C 0.19711(13) 0.94690(16) 0.75368(15)
H8_177 H 0.192696 0.961892 0.742238
C11_177 C 0.14077(11) 0.95714(11) 0.72420(12)
C12_177 C 0.12786(18) 0.97736(14) 0.73969(16)
H9_177 H 0.122228 0.973566 0.757833
C15_177 C 0.14254(19) 0.98819(19) 0.6864(2)
H12_177 H 0.146944 0.991726 0.667914
C16_177 C 0.14794(15) 0.96242(16) 0.69775(16)
H13_177 H 0.156539 0.948724 0.687089
N3_177 N 0.07455(14) 0.92947(13) 0.71362(17)
C17_177 C 0.0710(2) 0.9468(2) 0.6987(3)
C18_177 C 0.0662(3) 0.9720(3) 0.6787(3)
H14_177 H 0.063574 0.988693 0.689395
H15_177 H 0.082141 0.974211 0.666807
H16_177 H 0.049989 0.968688 0.667487
N1_178 N 0.11938(9) 0.38562(9) 0.04534(9)
C1_178 C 0.09766(10) 0.40023(11) 0.03715(10)
C2_178 C 0.07224(11) 0.39595(12) 0.04870(10)
H1_178 H 0.057419 0.406970 0.042866
C3_178 C 0.08931(11) 0.36222(13) 0.07557(12)
H2_178 H 0.087008 0.348468 0.089017
C4_178 C 0.11500(11) 0.36666(12) 0.06448(11)
H3_178 H 0.129889 0.355927 0.070654
H8_178 H 0.057304 0.461892 0.007762
C11_178 C 0.10923(11) 0.45714(11) 0.02580(12)
C12_178 C 0.12214(18) 0.47736(14) 0.01031(16)
C13_133 C 0.1267(2) 0.50310(15) 0.02158(18)
H10_133 H 0.135115 0.517067 0.011098
C14_133 C 0.1189(2) 0.50793(17) 0.0481(2)
H11_133 H 0.121614 0.525532 0.055776
C15_178 C 0.10746(19) 0.48819(19) 0.0636(2)
H12_178 H 0.103056 0.491726 0.082086
C16_178 C 0.10206(15) 0.46242(16) 0.05225(16)
H13_178 H 0.093461 0.448724 0.062911
N3_178 N 0.17545(14) 0.42947(13) 0.03638(17)
C17_178 C 0.1790(2) 0.4468(2) 0.0513(3)
C18_178 C 0.1838(3) 0.4720(3) 0.0713(3)
H14_178 H 0.186426 0.488693 0.060605
H15_178 H 0.167859 0.474211 0.083193
H16_178 H 0.200011 0.468688 0.082513
C5_178 C 0.07068(12) 0.42628(13) 0.99304(11)
C6_178 C 0.06413(16) 0.40456(17) 0.97553(16)
H4_178 H 0.076612 0.389929 0.973204
C7_178 C 0.03944(19) 0.4044(2) 0.96162(19)
H5_178 H 0.035344 0.390275 0.949038
C8_178 C 0.02103(17) 0.4250(2) 0.96628(16)
H6_178 H 0.003582 0.424262 0.957891
C9_178 C 0.02723(15) 0.44604(19) 0.98238(16)
H7_178 H 0.014557 0.460516 0.984619
C10_178 C 0.05289(13) 0.44690(16) 0.99632(15)
H9_178 H 0.127772 0.473566 0.992167
N1_179 N 0.63062(9) 0.86438(9) 0.54534(9)
C1_179 C 0.65234(10) 0.84977(11) 0.53715(10)
C2_179 C 0.67776(11) 0.85405(12) 0.54870(10)
H1_179 H 0.692581 0.843030 0.542866
C3_179 C 0.66069(11) 0.88778(13) 0.57557(12)
H2_179 H 0.662992 0.901532 0.589017
C4_179 C 0.63500(11) 0.88334(12) 0.56448(11)
H3_179 H 0.620111 0.894073 0.570654
C5_179 C 0.67932(12) 0.82372(13) 0.49304(11)
C6_179 C 0.68587(16) 0.84544(17) 0.47553(16)
H4_179 H 0.673388 0.860071 0.473204
C7_179 C 0.71056(19) 0.8456(2) 0.46162(19)
H5_179 H 0.714656 0.859725 0.449038
C8_179 C 0.72897(17) 0.8250(2) 0.46628(16)
H6_179 H 0.746418 0.825738 0.457891
C9_179 C 0.72277(15) 0.80396(19) 0.48238(16)
H7_179 H 0.735443 0.789484 0.484619
C10_179 C 0.69711(13) 0.80310(16) 0.49632(15)
H8_179 H 0.692696 0.788108 0.507762
C11_179 C 0.64077(11) 0.79286(11) 0.52580(12)
C12_179 C 0.62786(18) 0.77264(14) 0.51031(16)
H9_179 H 0.622228 0.776434 0.492167
C13_134 C 0.6233(2) 0.74690(15) 0.52158(18)
H10_134 H 0.614885 0.732933 0.511098
C14_134 C 0.6311(2) 0.74207(17) 0.5481(2)
H11_134 H 0.628386 0.724468 0.555776
C15_179 C 0.64254(19) 0.76181(19) 0.5636(2)
H12_179 H 0.646944 0.758274 0.582086
C16_179 C 0.64794(15) 0.78758(16) 0.55225(16)
H13_179 H 0.656539 0.801276 0.562911
N3_179 N 0.57455(14) 0.82053(13) 0.53638(17)
C17_179 C 0.5710(2) 0.8032(2) 0.5513(3)
C18_179 C 0.5662(3) 0.7780(3) 0.5713(3)
H14_179 H 0.563574 0.761307 0.560605
H15_179 H 0.582141 0.775789 0.583193
H16_179 H 0.549989 0.781312 0.582513
N1_180 N 0.61938(9) 0.36438(9) 0.20466(9)
C1_180 C 0.59766(10) 0.34977(11) 0.21285(10)
C2_180 C 0.57224(11) 0.35405(12) 0.20130(10)
H1_180 H 0.557419 0.343030 0.207134
C3_180 C 0.58931(11) 0.38778(13) 0.17443(12)
H2_180 H 0.587008 0.401532 0.160983
C4_180 C 0.61500(11) 0.38334(12) 0.18552(11)
H3_180 H 0.629889 0.394073 0.179346
C5_180 C 0.57068(12) 0.32372(13) 0.25696(11)
C6_180 C 0.56413(16) 0.34544(17) 0.27447(16)
H4_180 H 0.576612 0.360071 0.276796
C7_180 C 0.53944(19) 0.3456(2) 0.28838(19)
H5_180 H 0.535344 0.359725 0.300962
C8_180 C 0.52103(17) 0.3250(2) 0.28372(16)
H6_180 H 0.503582 0.325738 0.292109
C9_180 C 0.52723(15) 0.30396(19) 0.26762(16)
H7_180 H 0.514557 0.289484 0.265381
C10_180 C 0.55289(13) 0.30310(16) 0.25368(15)
H8_180 H 0.557304 0.288108 0.242238
C11_180 C 0.60923(11) 0.29286(11) 0.22420(12)
C12_180 C 0.62214(18) 0.27264(14) 0.23969(16)
H9_180 H 0.627772 0.276434 0.257833
C13_135 C 0.6267(2) 0.24690(15) 0.22842(18)
H10_135 H 0.635115 0.232933 0.238902
C14_135 C 0.6189(2) 0.24207(17) 0.2019(2)
H11_135 H 0.621614 0.224468 0.194224
C15_180 C 0.60746(19) 0.26181(19) 0.1864(2)
H12_180 H 0.603056 0.258274 0.167914
C16_180 C 0.60206(15) 0.28758(16) 0.19775(16)
H13_180 H 0.593461 0.301276 0.187089
N3_180 N 0.67545(14) 0.32053(13) 0.21362(17)
C17_180 C 0.6790(2) 0.3032(2) 0.1987(3)
C18_180 C 0.6838(3) 0.2780(3) 0.1787(3)
H14_180 H 0.686426 0.261307 0.189395
H15_180 H 0.667859 0.275789 0.166807
H16_180 H 0.700011 0.281312 0.167487
C5_181 C 0.42932(12) 0.00696(11) 0.57372(13)
C6_181 C 0.43587(16) 0.02447(16) 0.59544(17)
H4_181 H 0.423388 0.026796 0.610071
C7_181 C 0.46056(19) 0.03838(19) 0.5956(2)
H5_181 H 0.464656 0.050962 0.609725
C8_181 C 0.47897(17) 0.03372(16) 0.5750(2)
H6_181 H 0.496418 0.042109 0.575738
C9_181 C 0.47277(15) 0.01762(16) 0.55396(19)
H7_181 H 0.485443 0.015381 0.539484
C10_181 C 0.44711(13) 0.00368(15) 0.55310(16)
H9_181 H 0.372228 0.007833 0.526434
N1_181 N 0.38062(9) 0.95466(9) 0.61438(9)
C1_181 C 0.40234(10) 0.96285(10) 0.59977(11)
C2_181 C 0.42776(11) 0.95130(10) 0.60405(12)
H1_181 H 0.442581 0.957134 0.593030
C3_181 C 0.41069(11) 0.92443(12) 0.63778(13)
H2_181 H 0.412992 0.910983 0.651532
C4_181 C 0.38500(11) 0.93552(11) 0.63334(12)
H3_181 H 0.370111 0.929346 0.644073
H8_181 H 0.442696 0.992238 0.538108
C11_181 C 0.39077(11) 0.97420(12) 0.54286(11)
C12_181 C 0.37786(18) 0.98969(16) 0.52264(14)
C13_136 C 0.3733(2) 0.97842(18) 0.49690(15)
H10_136 H 0.364885 0.988902 0.482933
C14_136 C 0.3811(2) 0.9519(2) 0.49207(17)
H11_136 H 0.378386 0.944224 0.474468
C15_181 C 0.39254(19) 0.9364(2) 0.51181(19)
H12_181 H 0.396944 0.917914 0.508274
C16_181 C 0.39794(15) 0.94775(16) 0.53758(16)
H13_181 H 0.406539 0.937089 0.551276
N3_181 N 0.32455(14) 0.96362(17) 0.57053(13)
C17_181 C 0.3210(2) 0.9487(3) 0.5532(2)
C18_181 C 0.3162(3) 0.9287(3) 0.5280(3)
H14_181 H 0.313574 0.939395 0.511307
H15_181 H 0.332141 0.916807 0.525789
H16_181 H 0.299989 0.917487 0.531312
N1_182 N 0.36938(9) 0.29534(9) 0.11438(9)
C1_182 C 0.34766(10) 0.28715(10) 0.09977(11)
C2_182 C 0.32224(11) 0.29870(10) 0.10405(12)
H1_182 H 0.307419 0.292866 0.093030
C3_182 C 0.33931(11) 0.32557(12) 0.13778(13)
H2_182 H 0.337008 0.339017 0.151532
C4_182 C 0.36500(11) 0.31448(11) 0.13334(12)
H3_182 H 0.379889 0.320654 0.144073
C5_182 C 0.32068(12) 0.24304(11) 0.07372(13)
C6_182 C 0.31413(16) 0.22553(16) 0.09544(17)
H4_182 H 0.326612 0.223204 0.110071
C7_182 C 0.28944(19) 0.21162(19) 0.0956(2)
H5_182 H 0.285344 0.199038 0.109725
C8_182 C 0.27103(17) 0.21628(16) 0.0750(2)
H6_182 H 0.253582 0.207891 0.075738
C9_182 C 0.27723(15) 0.23238(16) 0.05396(19)
H7_182 H 0.264557 0.234619 0.039484
C10_182 C 0.30289(13) 0.24632(15) 0.05310(16)
H8_182 H 0.307304 0.257762 0.038108
C11_182 C 0.35923(11) 0.27580(12) 0.04286(11)
C12_182 C 0.37214(18) 0.26031(16) 0.02264(14)
H9_182 H 0.377772 0.242167 0.026434
C15_182 C 0.35746(19) 0.3136(2) 0.01181(19)
H12_182 H 0.353056 0.332086 0.008274
C16_182 C 0.35206(15) 0.30225(16) 0.03758(16)
H13_182 H 0.343461 0.312911 0.051276
N3_182 N 0.42545(14) 0.28638(17) 0.07053(13)
C17_182 C 0.4290(2) 0.3013(3) 0.0532(2)
C18_182 C 0.4338(3) 0.3213(3) 0.0280(3)
H14_182 H 0.436426 0.310605 0.011307
H15_182 H 0.417859 0.333193 0.025789
H16_182 H 0.450011 0.332513 0.031312
N1_183 N 0.88062(9) 0.79534(9) 0.63562(9)
C1_183 C 0.90234(10) 0.78715(10) 0.65023(11)
C2_183 C 0.92776(11) 0.79870(10) 0.64595(12)
H1_183 H 0.942581 0.792866 0.656970
C3_183 C 0.91069(11) 0.82557(12) 0.61222(13)
H2_183 H 0.912992 0.839017 0.598468
C4_183 C 0.88500(11) 0.81448(11) 0.61666(12)
H3_183 H 0.870111 0.820654 0.605927
C5_183 C 0.92932(12) 0.74304(11) 0.67628(13)
C6_183 C 0.93587(16) 0.72553(16) 0.65456(17)
H4_183 H 0.923388 0.723204 0.639929
C7_183 C 0.96056(19) 0.71162(19) 0.6544(2)
H5_183 H 0.964656 0.699038 0.640275
C8_183 C 0.97897(17) 0.71628(16) 0.6750(2)
H6_183 H 0.996418 0.707891 0.674262
C9_183 C 0.97277(15) 0.73238(16) 0.69604(19)
H7_183 H 0.985443 0.734619 0.710516
C10_183 C 0.94711(13) 0.74632(15) 0.69690(16)
H8_183 H 0.942696 0.757762 0.711892
C11_183 C 0.89077(11) 0.77580(12) 0.70714(11)
C12_183 C 0.87786(18) 0.76031(16) 0.72736(14)
H9_183 H 0.872228 0.742167 0.723566
C13_137 C 0.8733(2) 0.77158(18) 0.75310(15)
H10_137 H 0.864885 0.761098 0.767067
C14_137 C 0.8811(2) 0.7981(2) 0.75793(17)
H11_137 H 0.878386 0.805776 0.775532
C15_183 C 0.89254(19) 0.8136(2) 0.73819(19)
H12_183 H 0.896944 0.832086 0.741726
C16_183 C 0.89794(15) 0.80225(16) 0.71242(16)
H13_183 H 0.906539 0.812911 0.698724
N3_183 N 0.82455(14) 0.78638(17) 0.67947(13)
C17_183 C 0.8210(2) 0.8013(3) 0.6968(2)
C18_183 C 0.8162(3) 0.8213(3) 0.7220(3)
H14_183 H 0.813574 0.810605 0.738693
H15_183 H 0.832141 0.833193 0.724211
H16_183 H 0.799989 0.832513 0.718688
N1_184 N 0.86938(9) 0.45466(9) 0.13562(9)
C1_184 C 0.84766(10) 0.46285(10) 0.15023(11)
C2_184 C 0.82224(11) 0.45130(10) 0.14595(12)
H1_184 H 0.807419 0.457134 0.156970
C3_184 C 0.83931(11) 0.42443(12) 0.11222(13)
H2_184 H 0.837008 0.410983 0.098468
C4_184 C 0.86500(11) 0.43552(11) 0.11666(12)
H3_184 H 0.879889 0.429346 0.105927
C5_184 C 0.82068(12) 0.50696(11) 0.17628(13)
C6_184 C 0.81413(16) 0.52447(16) 0.15456(17)
H4_184 H 0.826612 0.526796 0.139929
C7_184 C 0.78944(19) 0.53838(19) 0.1544(2)
H5_184 H 0.785344 0.550962 0.140275
C8_184 C 0.77103(17) 0.53372(16) 0.1750(2)
H6_184 H 0.753582 0.542109 0.174262
C9_184 C 0.77723(15) 0.51762(16) 0.19604(19)
H7_184 H 0.764557 0.515381 0.210516
C10_184 C 0.80289(13) 0.50368(15) 0.19690(16)
H8_184 H 0.807304 0.492238 0.211892
C11_184 C 0.85923(11) 0.47420(12) 0.20714(11)
C12_184 C 0.87214(18) 0.48969(16) 0.22736(14)
H9_184 H 0.877772 0.507833 0.223566
C13_138 C 0.8767(2) 0.47842(18) 0.25310(15)
H10_138 H 0.885115 0.488902 0.267067
C14_138 C 0.8689(2) 0.4519(2) 0.25793(17)
H11_138 H 0.871614 0.444224 0.275532
C15_184 C 0.85746(19) 0.4364(2) 0.23819(19)
H12_184 H 0.853056 0.417914 0.241726
C16_184 C 0.85206(15) 0.44775(16) 0.21242(16)
H13_184 H 0.843461 0.437089 0.198724
N3_184 N 0.92545(14) 0.46362(17) 0.17947(13)
C17_184 C 0.9290(2) 0.4487(3) 0.1968(2)
C18_184 C 0.9338(3) 0.4287(3) 0.2220(3)
H14_184 H 0.936426 0.439395 0.238693
H15_184 H 0.917859 0.416807 0.224211
H16_184 H 0.950011 0.417487 0.218688
N1_185 N 0.45466(9) 0.63562(9) 0.36938(9)
C1_185 C 0.46285(10) 0.65023(11) 0.34766(10)
C2_185 C 0.45130(10) 0.64595(12) 0.32224(11)
H1_185 H 0.457134 0.656970 0.307419
C3_185 C 0.42443(12) 0.61222(13) 0.33931(11)
H2_185 H 0.410983 0.598468 0.337008
C4_185 C 0.43552(11) 0.61666(12) 0.36500(11)
H3_185 H 0.429346 0.605927 0.379889
C5_185 C 0.50696(11) 0.67628(13) 0.32068(12)
C6_185 C 0.52447(16) 0.65456(17) 0.31413(16)
H4_185 H 0.526796 0.639929 0.326612
C7_185 C 0.53838(19) 0.6544(2) 0.28944(19)
H5_185 H 0.550962 0.640275 0.285344
C8_185 C 0.53372(16) 0.6750(2) 0.27103(17)
H6_185 H 0.542109 0.674262 0.253582
C9_185 C 0.51762(16) 0.69604(19) 0.27723(15)
H7_185 H 0.515381 0.710516 0.264557
C10_185 C 0.50368(15) 0.69690(16) 0.30289(13)
H8_185 H 0.492238 0.711892 0.307304
C11_185 C 0.47420(12) 0.70714(11) 0.35923(11)
C12_185 C 0.48969(16) 0.72736(14) 0.37214(18)
H9_185 H 0.507833 0.723566 0.377772
C13_139 C 0.47842(18) 0.75310(15) 0.3767(2)
H10_139 H 0.488902 0.767067 0.385115
C14_139 C 0.4519(2) 0.75793(17) 0.3689(2)
H11_139 H 0.444224 0.775532 0.371614
C15_185 C 0.4364(2) 0.73819(19) 0.35746(19)
H12_185 H 0.417914 0.741726 0.353056
C16_185 C 0.44775(16) 0.71242(16) 0.35206(15)
H13_185 H 0.437089 0.698724 0.343461
N3_185 N 0.46362(17) 0.67947(13) 0.42545(14)
C17_185 C 0.4487(3) 0.6968(2) 0.4290(2)
C18_185 C 0.4287(3) 0.7220(3) 0.4338(3)
H14_185 H 0.439395 0.738693 0.436426
H15_185 H 0.416807 0.724211 0.417859
H16_185 H 0.417487 0.718688 0.450011
N1_186 N 0.79534(9) 0.13562(9) 0.38062(9)
C1_186 C 0.78715(10) 0.15023(11) 0.40234(10)
C2_186 C 0.79870(10) 0.14595(12) 0.42776(11)
H1_186 H 0.792866 0.156970 0.442581
C3_186 C 0.82557(12) 0.11222(13) 0.41069(11)
H2_186 H 0.839017 0.098468 0.412992
C4_186 C 0.81448(11) 0.11666(12) 0.38500(11)
H3_186 H 0.820654 0.105927 0.370111
C5_186 C 0.74304(11) 0.17628(13) 0.42932(12)
C6_186 C 0.72553(16) 0.15456(17) 0.43587(16)
H4_186 H 0.723204 0.139929 0.423388
C7_186 C 0.71162(19) 0.1544(2) 0.46056(19)
H5_186 H 0.699038 0.140275 0.464656
C8_186 C 0.71628(16) 0.1750(2) 0.47897(17)
H6_186 H 0.707891 0.174262 0.496418
C9_186 C 0.73238(16) 0.19604(19) 0.47277(15)
H7_186 H 0.734619 0.210516 0.485443
C10_186 C 0.74632(15) 0.19690(16) 0.44711(13)
H8_186 H 0.757762 0.211892 0.442696
C11_186 C 0.77580(12) 0.20714(11) 0.39077(11)
C12_186 C 0.76031(16) 0.22736(14) 0.37786(18)
H9_186 H 0.742167 0.223566 0.372228
C13_140 C 0.77158(18) 0.25310(15) 0.3733(2)
H10_140 H 0.761098 0.267067 0.364885
C14_140 C 0.7981(2) 0.25793(17) 0.3811(2)
H11_140 H 0.805776 0.275532 0.378386
C15_186 C 0.8136(2) 0.23819(19) 0.39254(19)
H12_186 H 0.832086 0.241726 0.396944
C16_186 C 0.80225(16) 0.21242(16) 0.39794(15)
H13_186 H 0.812911 0.198724 0.406539
N3_186 N 0.78638(17) 0.17947(13) 0.32455(14)
C17_186 C 0.8013(3) 0.1968(2) 0.3210(2)
C18_186 C 0.8213(3) 0.2220(3) 0.3162(3)
H14_186 H 0.810605 0.238693 0.313574
H15_186 H 0.833193 0.224211 0.332141
H16_186 H 0.832513 0.218688 0.299989
N1_187 N 0.29534(9) 0.61438(9) 0.86938(9)
C1_187 C 0.28715(10) 0.59977(11) 0.84766(10)
C2_187 C 0.29870(10) 0.60405(12) 0.82224(11)
H1_187 H 0.292866 0.593030 0.807419
C3_187 C 0.32557(12) 0.63778(13) 0.83931(11)
H2_187 H 0.339017 0.651532 0.837008
C4_187 C 0.31448(11) 0.63334(12) 0.86500(11)
H3_187 H 0.320654 0.644073 0.879889
C5_187 C 0.24304(11) 0.57372(13) 0.82068(12)
C6_187 C 0.22553(16) 0.59544(17) 0.81413(16)
H4_187 H 0.223204 0.610071 0.826612
C7_187 C 0.21162(19) 0.5956(2) 0.78944(19)
H5_187 H 0.199038 0.609725 0.785344
C8_187 C 0.21628(16) 0.5750(2) 0.77103(17)
H6_187 H 0.207891 0.575738 0.753582
C9_187 C 0.23238(16) 0.55396(19) 0.77723(15)
H7_187 H 0.234619 0.539484 0.764557
C10_187 C 0.24632(15) 0.55310(16) 0.80289(13)
H8_187 H 0.257762 0.538108 0.807304
C11_187 C 0.27580(12) 0.54286(11) 0.85923(11)
C12_187 C 0.26031(16) 0.52264(14) 0.87214(18)
H9_187 H 0.242167 0.526434 0.877772
C13_141 C 0.27158(18) 0.49690(15) 0.8767(2)
H10_141 H 0.261098 0.482933 0.885115
C14_141 C 0.2981(2) 0.49207(17) 0.8689(2)
H11_141 H 0.305776 0.474468 0.871614
C15_187 C 0.3136(2) 0.51181(19) 0.85746(19)
H12_187 H 0.332086 0.508274 0.853056
C16_187 C 0.30225(16) 0.53758(16) 0.85206(15)
H13_187 H 0.312911 0.551276 0.843461
N3_187 N 0.28638(17) 0.57053(13) 0.92545(14)
C17_187 C 0.3013(3) 0.5532(2) 0.9290(2)
C18_187 C 0.3213(3) 0.5280(3) 0.9338(3)
H14_187 H 0.310605 0.511307 0.936426
H15_187 H 0.333193 0.525789 0.917859
H16_187 H 0.332513 0.531312 0.950011
C5_188 C 0.00696(11) 0.07372(13) 0.92932(12)
C6_188 C 0.02447(16) 0.09544(17) 0.93587(16)
H4_188 H 0.026796 0.110071 0.923388
C7_188 C 0.03838(19) 0.0956(2) 0.96056(19)
H5_188 H 0.050962 0.109725 0.964656
C8_188 C 0.03372(16) 0.0750(2) 0.97897(17)
H6_188 H 0.042109 0.075738 0.996418
C9_188 C 0.01762(16) 0.05396(19) 0.97277(15)
H7_188 H 0.015381 0.039484 0.985443
C10_188 C 0.00368(15) 0.05310(16) 0.94711(13)
H9_188 H 0.007833 0.026434 0.872228
N1_188 N 0.95466(9) 0.11438(9) 0.88062(9)
C1_188 C 0.96285(10) 0.09977(11) 0.90234(10)
C2_188 C 0.95130(10) 0.10405(12) 0.92776(11)
H1_188 H 0.957134 0.093030 0.942581
C3_188 C 0.92443(12) 0.13778(13) 0.91069(11)
H2_188 H 0.910983 0.151532 0.912992
C4_188 C 0.93552(11) 0.13334(12) 0.88500(11)
H3_188 H 0.929346 0.144073 0.870111
H8_188 H 0.992238 0.038108 0.942696
C11_188 C 0.97420(12) 0.04286(11) 0.89077(11)
C12_188 C 0.98969(16) 0.02264(14) 0.87786(18)
C15_188 C 0.9364(2) 0.01181(19) 0.89254(19)
H12_188 H 0.917914 0.008274 0.896944
C16_188 C 0.94775(16) 0.03758(16) 0.89794(15)
H13_188 H 0.937089 0.051276 0.906539
N3_188 N 0.96362(17) 0.07053(13) 0.82455(14)
C17_188 C 0.9487(3) 0.0532(2) 0.8210(2)
C18_188 C 0.9287(3) 0.0280(3) 0.8162(3)
H14_188 H 0.939395 0.011307 0.813574
H15_188 H 0.916807 0.025789 0.832141
H16_188 H 0.917487 0.031312 0.799989
N1_189 N 0.13562(9) 0.88062(9) 0.29534(9)
C1_189 C 0.15023(11) 0.90234(10) 0.28715(10)
C2_189 C 0.14595(12) 0.92776(11) 0.29870(10)
H1_189 H 0.156970 0.942581 0.292866
C3_189 C 0.11222(13) 0.91069(11) 0.32557(12)
H2_189 H 0.098468 0.912992 0.339017
C4_189 C 0.11666(12) 0.88500(11) 0.31448(11)
H3_189 H 0.105927 0.870111 0.320654
C5_189 C 0.17628(13) 0.92932(12) 0.24304(11)
C6_189 C 0.15456(17) 0.93587(16) 0.22553(16)
H4_189 H 0.139929 0.923388 0.223204
C7_189 C 0.1544(2) 0.96056(19) 0.21162(19)
H5_189 H 0.140275 0.964656 0.199038
C8_189 C 0.1750(2) 0.97897(17) 0.21628(16)
H6_189 H 0.174262 0.996418 0.207891
C9_189 C 0.19604(19) 0.97277(15) 0.23238(16)
H7_189 H 0.210516 0.985443 0.234619
C10_189 C 0.19690(16) 0.94711(13) 0.24632(15)
H8_189 H 0.211892 0.942696 0.257762
C11_189 C 0.20714(11) 0.89077(11) 0.27580(12)
C12_189 C 0.22736(14) 0.87786(18) 0.26031(16)
H9_189 H 0.223566 0.872228 0.242167
C13_142 C 0.25310(15) 0.8733(2) 0.27158(18)
H10_142 H 0.267067 0.864885 0.261098
C14_142 C 0.25793(17) 0.8811(2) 0.2981(2)
H11_142 H 0.275532 0.878386 0.305776
C15_189 C 0.23819(19) 0.89254(19) 0.3136(2)
H12_189 H 0.241726 0.896944 0.332086
C16_189 C 0.21242(16) 0.89794(15) 0.30225(16)
H13_189 H 0.198724 0.906539 0.312911
N3_189 N 0.17947(13) 0.82455(14) 0.28638(17)
C17_189 C 0.1968(2) 0.8210(2) 0.3013(3)
C18_189 C 0.2220(3) 0.8162(3) 0.3213(3)
H14_189 H 0.238693 0.813574 0.310605
H15_189 H 0.224211 0.832141 0.333193
H16_189 H 0.218688 0.799989 0.332513
C5_190 C 0.67628(13) 0.82068(12) 0.00696(11)
C6_190 C 0.65456(17) 0.81413(16) 0.02447(16)
H4_190 H 0.639929 0.826612 0.026796
C7_190 C 0.6544(2) 0.78944(19) 0.03838(19)
H5_190 H 0.640275 0.785344 0.050962
C8_190 C 0.6750(2) 0.77103(17) 0.03372(16)
H6_190 H 0.674262 0.753582 0.042109
C9_190 C 0.69604(19) 0.77723(15) 0.01762(16)
H7_190 H 0.710516 0.764557 0.015381
C10_190 C 0.69690(16) 0.80289(13) 0.00368(15)
H9_190 H 0.723566 0.877772 0.007833
N1_190 N 0.63562(9) 0.86938(9) 0.95466(9)
C1_190 C 0.65023(11) 0.84766(10) 0.96285(10)
C2_190 C 0.64595(12) 0.82224(11) 0.95130(10)
H1_190 H 0.656970 0.807419 0.957134
C3_190 C 0.61222(13) 0.83931(11) 0.92443(12)
H2_190 H 0.598468 0.837008 0.910983
C4_190 C 0.61666(12) 0.86500(11) 0.93552(11)
H3_190 H 0.605927 0.879889 0.929346
H8_190 H 0.711892 0.807304 0.992238
C11_190 C 0.70714(11) 0.85923(11) 0.97420(12)
C12_190 C 0.72736(14) 0.87214(18) 0.98969(16)
C13_143 C 0.75310(15) 0.8767(2) 0.97842(18)
H10_143 H 0.767067 0.885115 0.988902
C14_143 C 0.75793(17) 0.8689(2) 0.9519(2)
H11_143 H 0.775532 0.871614 0.944224
C15_190 C 0.73819(19) 0.85746(19) 0.9364(2)
H12_190 H 0.741726 0.853056 0.917914
C16_190 C 0.71242(16) 0.85206(15) 0.94775(16)
H13_190 H 0.698724 0.843461 0.937089
N3_190 N 0.67947(13) 0.92545(14) 0.96362(17)
C17_190 C 0.6968(2) 0.9290(2) 0.9487(3)
C18_190 C 0.7220(3) 0.9338(3) 0.9287(3)
H14_190 H 0.738693 0.936426 0.939395
H15_190 H 0.724211 0.917859 0.916807
H16_190 H 0.718688 0.950011 0.917487
N1_191 N 0.11438(9) 0.38062(9) 0.45466(9)
C1_191 C 0.09977(11) 0.40234(10) 0.46285(10)
C2_191 C 0.10405(12) 0.42776(11) 0.45130(10)
H1_191 H 0.093030 0.442581 0.457134
C3_191 C 0.13778(13) 0.41069(11) 0.42443(12)
H2_191 H 0.151532 0.412992 0.410983
C4_191 C 0.13334(12) 0.38500(11) 0.43552(11)
H3_191 H 0.144073 0.370111 0.429346
C5_191 C 0.07372(13) 0.42932(12) 0.50696(11)
C6_191 C 0.09544(17) 0.43587(16) 0.52447(16)
H4_191 H 0.110071 0.423388 0.526796
C7_191 C 0.0956(2) 0.46056(19) 0.53838(19)
H5_191 H 0.109725 0.464656 0.550962
C8_191 C 0.0750(2) 0.47897(17) 0.53372(16)
H6_191 H 0.075738 0.496418 0.542109
C9_191 C 0.05396(19) 0.47277(15) 0.51762(16)
H7_191 H 0.039484 0.485443 0.515381
C10_191 C 0.05310(16) 0.44711(13) 0.50368(15)
H8_191 H 0.038108 0.442696 0.492238
C11_191 C 0.04286(11) 0.39077(11) 0.47420(12)
C12_191 C 0.02264(14) 0.37786(18) 0.48969(16)
H9_191 H 0.026434 0.372228 0.507833
C15_191 C 0.01181(19) 0.39254(19) 0.4364(2)
H12_191 H 0.008274 0.396944 0.417914
C16_191 C 0.03758(16) 0.39794(15) 0.44775(16)
H13_191 H 0.051276 0.406539 0.437089
N3_191 N 0.07053(13) 0.32455(14) 0.46362(17)
C17_191 C 0.0532(2) 0.3210(2) 0.4487(3)
C18_191 C 0.0280(3) 0.3162(3) 0.4287(3)
H14_191 H 0.011307 0.313574 0.439395
H15_191 H 0.025789 0.332141 0.416807
H16_191 H 0.031312 0.299989 0.417487
N1_192 N 0.61438(9) 0.36938(9) 0.79534(9)
C1_192 C 0.59977(11) 0.34766(10) 0.78715(10)
C2_192 C 0.60405(12) 0.32224(11) 0.79870(10)
H1_192 H 0.593030 0.307419 0.792866
C3_192 C 0.63778(13) 0.33931(11) 0.82557(12)
H2_192 H 0.651532 0.337008 0.839017
C4_192 C 0.63334(12) 0.36500(11) 0.81448(11)
H3_192 H 0.644073 0.379889 0.820654
C5_192 C 0.57372(13) 0.32068(12) 0.74304(11)
C6_192 C 0.59544(17) 0.31413(16) 0.72553(16)
H4_192 H 0.610071 0.326612 0.723204
C7_192 C 0.5956(2) 0.28944(19) 0.71162(19)
H5_192 H 0.609725 0.285344 0.699038
C8_192 C 0.5750(2) 0.27103(17) 0.71628(16)
H6_192 H 0.575738 0.253582 0.707891
C9_192 C 0.55396(19) 0.27723(15) 0.73238(16)
H7_192 H 0.539484 0.264557 0.734619
C10_192 C 0.55310(16) 0.30289(13) 0.74632(15)
H8_192 H 0.538108 0.307304 0.757762
C11_192 C 0.54286(11) 0.35923(11) 0.77580(12)
C12_192 C 0.52264(14) 0.37214(18) 0.76031(16)
H9_192 H 0.526434 0.377772 0.742167
C13_144 C 0.49690(15) 0.3767(2) 0.77158(18)
H10_144 H 0.482933 0.385115 0.761098
C14_144 C 0.49207(17) 0.3689(2) 0.7981(2)
H11_144 H 0.474468 0.371614 0.805776
C15_192 C 0.51181(19) 0.35746(19) 0.8136(2)
H12_192 H 0.508274 0.353056 0.832086
C16_192 C 0.53758(16) 0.35206(15) 0.80225(16)
H13_192 H 0.551276 0.343461 0.812911
N3_192 N 0.57053(13) 0.42545(14) 0.78638(17)
C17_192 C 0.5532(2) 0.4290(2) 0.8013(3)
C18_192 C 0.5280(3) 0.4338(3) 0.8213(3)
H14_192 H 0.511307 0.436426 0.810605
H15_192 H 0.525789 0.417859 0.833193
H16_192 H 0.531312 0.450011 0.832513
C13_145 C 0.97842(18) 0.3733(2) 0.99690(15)
H10_145 H 0.988902 0.364885 0.982933
C14_145 C 0.9519(2) 0.3811(2) 0.99207(17)
H11_145 H 0.944224 0.378386 0.974468
C13_146 C 0.99690(15) 0.97842(18) 0.3733(2)
H10_146 H 0.982933 0.988902 0.364885
C14_146 C 0.99207(17) 0.9519(2) 0.3811(2)
H11_146 H 0.974468 0.944224 0.378386
C13_147 C 0.3733(2) 0.99690(15) 0.97842(18)
H10_147 H 0.364885 0.982933 0.988902
C14_147 C 0.3811(2) 0.99207(17) 0.9519(2)
H11_147 H 0.378386 0.974468 0.944224
C13_148 C 0.1233(2) 0.22842(18) 0.00310(15)
H10_148 H 0.114885 0.238902 0.017067
C14_148 C 0.1311(2) 0.2019(2) 0.00793(17)
H11_148 H 0.128386 0.194224 0.025532
C13_149 C 0.22842(18) 0.00310(15) 0.1233(2)
H10_149 H 0.238902 0.017067 0.114885
C14_149 C 0.2019(2) 0.00793(17) 0.1311(2)
H11_149 H 0.194224 0.025532 0.128386
C13_150 C 0.00310(15) 0.1233(2) 0.22842(18)
H10_150 H 0.017067 0.114885 0.238902
C14_150 C 0.00793(17) 0.1311(2) 0.2019(2)
H11_150 H 0.025532 0.128386 0.194224
C13_151 C 0.27158(18) 0.8767(2) 0.99690(15)
H10_151 H 0.261098 0.885115 0.982933
C14_151 C 0.2981(2) 0.8689(2) 0.99207(17)
H11_151 H 0.305776 0.871614 0.974468
C13_152 C 0.99690(15) 0.47842(18) 0.8733(2)
H10_152 H 0.982933 0.488902 0.864885
C14_152 C 0.99207(17) 0.4519(2) 0.8811(2)
H11_152 H 0.974468 0.444224 0.878386
C13_153 C 0.3767(2) 0.99690(15) 0.77158(18)
H10_153 H 0.385115 0.982933 0.761098
C14_153 C 0.3689(2) 0.99207(17) 0.7981(2)
H11_153 H 0.371614 0.974468 0.805776
C13_154 C 0.1267(2) 0.02158(18) 0.00310(15)
H10_154 H 0.135115 0.011098 0.017067
C14_154 C 0.1189(2) 0.0481(2) 0.00793(17)
H11_154 H 0.121614 0.055776 0.025532
C13_155 C 0.52158(18) 0.00310(15) 0.6267(2)
H10_155 H 0.511098 0.017067 0.635115
C14_155 C 0.5481(2) 0.00793(17) 0.6189(2)
H11_155 H 0.555776 0.025532 0.621614
C13_156 C 0.00310(15) 0.6233(2) 0.72842(18)
H10_156 H 0.017067 0.614885 0.738902
C14_156 C 0.00793(17) 0.6311(2) 0.7019(2)
H11_156 H 0.025532 0.628386 0.694224
C13_157 C 0.77158(18) 0.3767(2) 0.99690(15)
H10_157 H 0.761098 0.385115 0.982933
C14_157 C 0.7981(2) 0.3689(2) 0.99207(17)
H11_157 H 0.805776 0.371614 0.974468
C13_158 C 0.99690(15) 0.27158(18) 0.8767(2)
H10_158 H 0.982933 0.261098 0.885115
C14_158 C 0.99207(17) 0.2981(2) 0.8689(2)
H11_158 H 0.974468 0.305776 0.871614
C13_159 C 0.8733(2) 0.99690(15) 0.47842(18)
H10_159 H 0.864885 0.982933 0.488902
C14_159 C 0.8811(2) 0.99207(17) 0.4519(2)
H11_159 H 0.878386 0.974468 0.444224
C13_160 C 0.6267(2) 0.52158(18) 0.00310(15)
H10_160 H 0.635115 0.511098 0.017067
C14_160 C 0.6189(2) 0.5481(2) 0.00793(17)
H11_160 H 0.621614 0.555776 0.025532
C13_161 C 0.72842(18) 0.00310(15) 0.6233(2)
H10_161 H 0.738902 0.017067 0.614885
C14_161 C 0.7019(2) 0.00793(17) 0.6311(2)
H11_161 H 0.694224 0.025532 0.628386
C13_162 C 0.00310(15) 0.1267(2) 0.02158(18)
H10_162 H 0.017067 0.135115 0.011098
C14_162 C 0.00793(17) 0.1189(2) 0.0481(2)
H11_162 H 0.025532 0.121614 0.055776
C13_163 C 0.47842(18) 0.8733(2) 0.99690(15)
H10_163 H 0.488902 0.864885 0.982933
C14_163 C 0.4519(2) 0.8811(2) 0.99207(17)
H11_163 H 0.444224 0.878386 0.974468
C13_164 C 0.99690(15) 0.77158(18) 0.3767(2)
H10_164 H 0.982933 0.761098 0.385115
C14_164 C 0.99207(17) 0.7981(2) 0.3689(2)
H11_164 H 0.974468 0.805776 0.371614
C13_165 C 0.8767(2) 0.99690(15) 0.27158(18)
H10_165 H 0.885115 0.982933 0.261098
C14_165 C 0.8689(2) 0.99207(17) 0.2981(2)
H11_165 H 0.871614 0.974468 0.305776
C13_166 C 0.6233(2) 0.72842(18) 0.00310(15)
H10_166 H 0.614885 0.738902 0.017067
C14_166 C 0.6311(2) 0.7019(2) 0.00793(17)
H11_166 H 0.628386 0.694224 0.025532
C13_167 C 0.02158(18) 0.00310(15) 0.1267(2)
H10_167 H 0.011098 0.017067 0.135115
C14_167 C 0.0481(2) 0.00793(17) 0.1189(2)
H11_167 H 0.055776 0.025532 0.121614
C13_168 C 0.00310(15) 0.6267(2) 0.52158(18)
H10_168 H 0.017067 0.635115 0.511098
C14_168 C 0.00793(17) 0.6189(2) 0.5481(2)
H11_168 H 0.025532 0.621614 0.555776
C13_169 C 0.02158(18) 0.6267(2) 0.00310(15)
H10_169 H 0.011098 0.635115 0.017067
C14_169 C 0.0481(2) 0.6189(2) 0.00793(17)
H11_169 H 0.055776 0.621614 0.025532
C13_170 C 0.00310(15) 0.02158(18) 0.6267(2)
H10_170 H 0.017067 0.011098 0.635115
C14_170 C 0.00793(17) 0.0481(2) 0.6189(2)
H11_170 H 0.025532 0.055776 0.621614
C13_171 C 0.6267(2) 0.00310(15) 0.02158(18)
H10_171 H 0.635115 0.017067 0.011098
C14_171 C 0.6189(2) 0.00793(17) 0.0481(2)
H11_171 H 0.621614 0.025532 0.055776
C13_172 C 0.8767(2) 0.77158(18) 0.99690(15)
H10_172 H 0.885115 0.761098 0.982933
C14_172 C 0.8689(2) 0.7981(2) 0.99207(17)
H11_172 H 0.871614 0.805776 0.974468
C13_173 C 0.77158(18) 0.99690(15) 0.8767(2)
H10_173 H 0.761098 0.982933 0.885115
C14_173 C 0.7981(2) 0.99207(17) 0.8689(2)
H11_173 H 0.805776 0.974468 0.871614
C13_174 C 0.99690(15) 0.8767(2) 0.77158(18)
H10_174 H 0.982933 0.885115 0.761098
C14_174 C 0.99207(17) 0.8689(2) 0.7981(2)
H11_174 H 0.974468 0.871614 0.805776
C13_175 C 0.72842(18) 0.1233(2) 0.00310(15)
H10_175 H 0.738902 0.114885 0.017067
C14_175 C 0.7019(2) 0.1311(2) 0.00793(17)
H11_175 H 0.694224 0.128386 0.025532
C13_176 C 0.00310(15) 0.52158(18) 0.1267(2)
H10_176 H 0.017067 0.511098 0.135115
C14_176 C 0.00793(17) 0.5481(2) 0.1189(2)
H11_176 H 0.025532 0.555776 0.121614
C13_177 C 0.6233(2) 0.00310(15) 0.22842(18)
H10_177 H 0.614885 0.017067 0.238902
C14_177 C 0.6311(2) 0.00793(17) 0.2019(2)
H11_177 H 0.628386 0.025532 0.194224
C13_178 C 0.8733(2) 0.97842(18) 0.99690(15)
H10_178 H 0.864885 0.988902 0.982933
C14_178 C 0.8811(2) 0.9519(2) 0.99207(17)
H11_178 H 0.878386 0.944224 0.974468
C13_179 C 0.47842(18) 0.99690(15) 0.3733(2)
H10_179 H 0.488902 0.982933 0.364885
C14_179 C 0.4519(2) 0.99207(17) 0.3811(2)
H11_179 H 0.444224 0.974468 0.378386
C13_180 C 0.99690(15) 0.3767(2) 0.27158(18)
H10_180 H 0.982933 0.385115 0.261098
C14_180 C 0.99207(17) 0.3689(2) 0.2981(2)
H11_180 H 0.974468 0.371614 0.305776
C13_181 C 0.22842(18) 0.6233(2) 0.00310(15)
H10_181 H 0.238902 0.614885 0.017067
C14_181 C 0.2019(2) 0.6311(2) 0.00793(17)
H11_181 H 0.194224 0.628386 0.025532
C13_182 C 0.00310(15) 0.72842(18) 0.1233(2)
H10_182 H 0.017067 0.738902 0.114885
C14_182 C 0.00793(17) 0.7019(2) 0.1311(2)
H11_182 H 0.025532 0.694224 0.128386
C13_183 C 0.1267(2) 0.00310(15) 0.52158(18)
H10_183 H 0.135115 0.017067 0.511098
C14_183 C 0.1189(2) 0.00793(17) 0.5481(2)
H11_183 H 0.121614 0.025532 0.555776
C13_184 C 0.3733(2) 0.47842(18) 0.99690(15)
H10_184 H 0.364885 0.488902 0.982933
C14_184 C 0.3811(2) 0.4519(2) 0.99207(17)
H11_184 H 0.378386 0.444224 0.974468
C13_185 C 0.27158(18) 0.99690(15) 0.3767(2)
H10_185 H 0.261098 0.982933 0.385115
C14_185 C 0.2981(2) 0.99207(17) 0.3689(2)
H11_185 H 0.305776 0.974468 0.371614
C13_186 C 0.99690(15) 0.8733(2) 0.97842(18)
H10_186 H 0.982933 0.864885 0.988902
C14_186 C 0.99207(17) 0.8811(2) 0.9519(2)
H11_186 H 0.974468 0.878386 0.944224
C13_187 C 0.52158(18) 0.1267(2) 0.00310(15)
H10_187 H 0.511098 0.135115 0.017067
C14_187 C 0.5481(2) 0.1189(2) 0.00793(17)
H11_187 H 0.555776 0.121614 0.025532
C13_188 C 0.00310(15) 0.22842(18) 0.6233(2)
H10_188 H 0.017067 0.238902 0.614885
C14_188 C 0.00793(17) 0.2019(2) 0.6311(2)
H11_188 H 0.025532 0.194224 0.628386
C13_189 C 0.1233(2) 0.00310(15) 0.72842(18)
H10_189 H 0.114885 0.017067 0.738902
C14_189 C 0.1311(2) 0.00793(17) 0.7019(2)
H11_189 H 0.128386 0.025532 0.694224
C13_190 C 0.3767(2) 0.27158(18) 0.99690(15)
H10_190 H 0.385115 0.261098 0.982933
C14_190 C 0.3689(2) 0.2981(2) 0.99207(17)
H11_190 H 0.371614 0.305776 0.974468
C13_191 C 0.97842(18) 0.99690(15) 0.8733(2)
H10_191 H 0.988902 0.982933 0.864885
C14_191 C 0.9519(2) 0.99207(17) 0.8811(2)
H11_191 H 0.944224 0.974468 0.878386
C13_192 C 0.99690(15) 0.3733(2) 0.47842(18)
H10_192 H 0.982933 0.364885 0.488902
C14_192 C 0.99207(17) 0.3811(2) 0.4519(2)
H11_192 H 0.974468 0.378386 0.444224
loop_
_geom_bond_atom_site_label_1
_geom_bond_atom_site_label_2
_geom_bond_site_symmetry_1
_geom_bond_site_symmetry_2
B1 F1 1_555 1_555
F2 B1 1_555 1_555
F3 B1 1_555 1_555
F4 B1 1_555 1_555
B1_2 F1_2 1_555 1_555
F2_2 B1_2 1_555 1_555
F3_2 B1_2 1_555 1_555
F4_2 B1_2 1_555 1_555
B1_3 F1_3 1_555 1_555
F2_3 B1_3 1_555 1_555
F3_3 B1_3 1_555 1_555
F4_3 B1_3 1_555 1_555
B1_4 F1_4 1_555 1_555
F2_4 B1_4 1_555 1_555
F3_4 B1_4 1_555 1_555
F4_4 B1_4 1_555 1_555
B1_5 F1_5 1_555 1_555
F2_5 B1_5 1_555 1_555
F3_5 B1_5 1_555 1_555
F4_5 B1_5 1_555 1_555
B1_6 F1_6 1_555 1_555
F2_6 B1_6 1_555 1_555
F3_6 B1_6 1_555 1_555
F4_6 B1_6 1_555 1_555
B1_7 F1_7 1_555 1_555
F2_7 B1_7 1_555 1_555
F3_7 B1_7 1_555 1_555
F4_7 B1_7 1_555 1_555
B1_8 F1_8 1_555 1_555
F2_8 B1_8 1_555 1_555
F3_8 B1_8 1_555 1_555
F4_8 B1_8 1_555 1_555
B1_9 F1_9 1_555 1_555
F2_9 B1_9 1_555 1_555
F3_9 B1_9 1_555 1_555
F4_9 B1_9 1_555 1_555
B1_10 F1_10 1_555 1_555
F2_10 B1_10 1_555 1_555
F3_10 B1_10 1_555 1_555
F4_10 B1_10 1_555 1_555
B1_11 F1_11 1_555 1_555
F2_11 B1_11 1_555 1_555
F3_11 B1_11 1_555 1_555
F4_11 B1_11 1_555 1_555
B1_12 F1_12 1_555 1_555
F2_12 B1_12 1_555 1_555
F3_12 B1_12 1_555 1_555
F4_12 B1_12 1_555 1_555
B1_13 F1_13 1_555 1_555
F2_13 B1_13 1_555 1_555
F3_13 B1_13 1_555 1_555
F4_13 B1_13 1_555 1_555
B1_14 F1_14 1_555 1_555
F2_14 B1_14 1_555 1_555
F3_14 B1_14 1_555 1_555
F4_14 B1_14 1_555 1_555
B1_15 F1_15 1_555 1_555
F2_15 B1_15 1_555 1_555
F3_15 B1_15 1_555 1_555
F4_15 B1_15 1_555 1_555
B1_16 F1_16 1_555 1_555
F2_16 B1_16 1_555 1_555
F3_16 B1_16 1_555 1_555
F4_16 B1_16 1_555 1_555
B1_17 F1_17 1_555 1_555
F2_17 B1_17 1_555 1_555
F3_17 B1_17 1_555 1_555
F4_17 B1_17 1_555 1_555
B1_18 F1_18 1_555 1_555
F2_18 B1_18 1_555 1_555
F3_18 B1_18 1_555 1_555
F4_18 B1_18 1_555 1_555
B1_19 F1_19 1_555 1_555
F2_19 B1_19 1_555 1_555
F3_19 B1_19 1_555 1_555
F4_19 B1_19 1_555 1_555
B1_20 F1_20 1_555 1_555
F2_20 B1_20 1_555 1_555
F3_20 B1_20 1_555 1_555
F4_20 B1_20 1_555 1_555
B1_21 F1_21 1_555 1_555
F2_21 B1_21 1_555 1_555
F3_21 B1_21 1_555 1_555
F4_21 B1_21 1_555 1_555
B1_22 F1_22 1_555 1_555
F2_22 B1_22 1_555 1_555
F3_22 B1_22 1_555 1_555
F4_22 B1_22 1_555 1_555
B1_23 F1_23 1_555 1_555
F2_23 B1_23 1_555 1_555
F3_23 B1_23 1_555 1_555
F4_23 B1_23 1_555 1_555
B1_24 F1_24 1_555 1_555
F2_24 B1_24 1_555 1_555
F3_24 B1_24 1_555 1_555
F4_24 B1_24 1_555 1_555
B1_25 F1_25 1_555 1_555
F2_25 B1_25 1_555 1_555
F3_25 B1_25 1_555 1_555
F4_25 B1_25 1_555 1_555
B1_26 F1_26 1_555 1_555
F2_26 B1_26 1_555 1_555
F3_26 B1_26 1_555 1_555
F4_26 B1_26 1_555 1_555
B1_27 F1_27 1_555 1_555
F2_27 B1_27 1_555 1_555
F3_27 B1_27 1_555 1_555
F4_27 B1_27 1_555 1_555
B1_28 F1_28 1_555 1_555
F2_28 B1_28 1_555 1_555
F3_28 B1_28 1_555 1_555
F4_28 B1_28 1_555 1_555
B1_29 F1_29 1_555 1_555
F2_29 B1_29 1_555 1_555
F3_29 B1_29 1_555 1_555
F4_29 B1_29 1_555 1_555
B1_30 F1_30 1_555 1_555
F2_30 B1_30 1_555 1_555
F3_30 B1_30 1_555 1_555
F4_30 B1_30 1_555 1_555
B1_31 F1_31 1_555 1_555
F2_31 B1_31 1_555 1_555
F3_31 B1_31 1_555 1_555
F4_31 B1_31 1_555 1_555
B1_32 F1_32 1_555 1_555
F2_32 B1_32 1_555 1_555
F3_32 B1_32 1_555 1_555
F4_32 B1_32 1_555 1_555
B1_33 F1_33 1_555 1_555
F2_33 B1_33 1_555 1_555
F3_33 B1_33 1_555 1_555
F4_33 B1_33 1_555 1_555
B1_34 F1_34 1_555 1_555
F2_34 B1_34 1_555 1_555
F3_34 B1_34 1_555 1_555
F4_34 B1_34 1_555 1_555
B1_35 F1_35 1_555 1_555
F2_35 B1_35 1_555 1_555
F3_35 B1_35 1_555 1_555
F4_35 B1_35 1_555 1_555
B1_36 F1_36 1_555 1_555
F2_36 B1_36 1_555 1_555
F3_36 B1_36 1_555 1_555
F4_36 B1_36 1_555 1_555
B1_37 F1_37 1_555 1_555
F2_37 B1_37 1_555 1_555
F3_37 B1_37 1_555 1_555
F4_37 B1_37 1_555 1_555
B1_38 F1_38 1_555 1_555
F2_38 B1_38 1_555 1_555
F3_38 B1_38 1_555 1_555
F4_38 B1_38 1_555 1_555
B1_39 F1_39 1_555 1_555
F2_39 B1_39 1_555 1_555
F3_39 B1_39 1_555 1_555
F4_39 B1_39 1_555 1_555
B1_40 F1_40 1_555 1_555
F2_40 B1_40 1_555 1_555
F3_40 B1_40 1_555 1_555
F4_40 B1_40 1_555 1_555
B1_41 F1_41 1_555 1_555
F2_41 B1_41 1_555 1_555
F3_41 B1_41 1_555 1_555
F4_41 B1_41 1_555 1_555
B1_42 F1_42 1_555 1_555
F2_42 B1_42 1_555 1_555
F3_42 B1_42 1_555 1_555
F4_42 B1_42 1_555 1_555
B1_43 F1_43 1_555 1_555
F2_43 B1_43 1_555 1_555
F3_43 B1_43 1_555 1_555
F4_43 B1_43 1_555 1_555
B1_44 F1_44 1_555 1_555
F2_44 B1_44 1_555 1_555
F3_44 B1_44 1_555 1_555
F4_44 B1_44 1_555 1_555
B1_45 F1_45 1_555 1_555
F2_45 B1_45 1_555 1_555
F3_45 B1_45 1_555 1_555
F4_45 B1_45 1_555 1_555
B1_46 F1_46 1_555 1_555
F2_46 B1_46 1_555 1_555
F3_46 B1_46 1_555 1_555
F4_46 B1_46 1_555 1_555
B1_47 F1_47 1_555 1_555
F2_47 B1_47 1_555 1_555
F3_47 B1_47 1_555 1_555
F4_47 B1_47 1_555 1_555
B1_48 F1_48 1_555 1_555
F2_48 B1_48 1_555 1_555
F3_48 B1_48 1_555 1_555
F4_48 B1_48 1_555 1_555
B1_49 F1_49 1_555 1_555
F2_49 B1_49 1_555 1_555
F3_49 B1_49 1_555 1_555
F4_49 B1_49 1_555 1_555
B1_50 F1_50 1_555 1_555
F2_50 B1_50 1_555 1_555
F3_50 B1_50 1_555 1_555
F4_50 B1_50 1_555 1_555
B1_51 F1_51 1_555 1_555
F2_51 B1_51 1_555 1_555
F3_51 B1_51 1_555 1_555
F4_51 B1_51 1_555 1_555
B1_52 F1_52 1_555 1_555
F2_52 B1_52 1_555 1_555
F3_52 B1_52 1_555 1_555
F4_52 B1_52 1_555 1_555
B1_53 F1_53 1_555 1_555
F2_53 B1_53 1_555 1_555
F3_53 B1_53 1_555 1_555
F4_53 B1_53 1_555 1_555
B1_54 F1_54 1_555 1_555
F2_54 B1_54 1_555 1_555
F3_54 B1_54 1_555 1_555
F4_54 B1_54 1_555 1_555
B1_55 F1_55 1_555 1_555
F2_55 B1_55 1_555 1_555
F3_55 B1_55 1_555 1_555
F4_55 B1_55 1_555 1_555
B1_56 F1_56 1_555 1_555
F2_56 B1_56 1_555 1_555
F3_56 B1_56 1_555 1_555
F4_56 B1_56 1_555 1_555
B1_57 F1_57 1_555 1_555
F2_57 B1_57 1_555 1_555
F3_57 B1_57 1_555 1_555
F4_57 B1_57 1_555 1_555
B1_58 F1_58 1_555 1_555
F2_58 B1_58 1_555 1_555
F3_58 B1_58 1_555 1_555
F4_58 B1_58 1_555 1_555
B1_59 F1_59 1_555 1_555
F2_59 B1_59 1_555 1_555
F3_59 B1_59 1_555 1_555
F4_59 B1_59 1_555 1_555
B1_60 F1_60 1_555 1_555
F2_60 B1_60 1_555 1_555
F3_60 B1_60 1_555 1_555
F4_60 B1_60 1_555 1_555
B1_61 F1_61 1_555 1_555
F2_61 B1_61 1_555 1_555
F3_61 B1_61 1_555 1_555
F4_61 B1_61 1_555 1_555
B1_62 F1_62 1_555 1_555
F2_62 B1_62 1_555 1_555
F3_62 B1_62 1_555 1_555
F4_62 B1_62 1_555 1_555
B1_63 F1_63 1_555 1_555
F2_63 B1_63 1_555 1_555
F3_63 B1_63 1_555 1_555
F4_63 B1_63 1_555 1_555
B1_64 F1_64 1_555 1_555
F2_64 B1_64 1_555 1_555
F3_64 B1_64 1_555 1_555
F4_64 B1_64 1_555 1_555
B1_65 F1_65 1_555 1_555
F2_65 B1_65 1_555 1_555
F3_65 B1_65 1_555 1_555
F4_65 B1_65 1_555 1_555
B1_66 F1_66 1_555 1_555
F2_66 B1_66 1_555 1_555
F3_66 B1_66 1_555 1_555
F4_66 B1_66 1_555 1_555
B1_67 F1_67 1_555 1_555
F2_67 B1_67 1_555 1_555
F3_67 B1_67 1_555 1_555
F4_67 B1_67 1_555 1_555
B1_68 F1_68 1_555 1_555
F2_68 B1_68 1_555 1_555
F3_68 B1_68 1_555 1_555
F4_68 B1_68 1_555 1_555
B1_69 F1_69 1_555 1_555
F2_69 B1_69 1_555 1_555
F3_69 B1_69 1_555 1_555
F4_69 B1_69 1_555 1_555
B1_70 F1_70 1_555 1_555
F2_70 B1_70 1_555 1_555
F3_70 B1_70 1_555 1_555
F4_70 B1_70 1_555 1_555
B1_71 F1_71 1_555 1_555
F2_71 B1_71 1_555 1_555
F3_71 B1_71 1_555 1_555
F4_71 B1_71 1_555 1_555
B1_72 F1_72 1_555 1_555
F2_72 B1_72 1_555 1_555
F3_72 B1_72 1_555 1_555
F4_72 B1_72 1_555 1_555
B1_73 F1_73 1_555 1_555
F2_73 B1_73 1_555 1_555
F3_73 B1_73 1_555 1_555
F4_73 B1_73 1_555 1_555
B1_74 F1_74 1_555 1_555
F2_74 B1_74 1_555 1_555
F3_74 B1_74 1_555 1_555
F4_74 B1_74 1_555 1_555
B1_75 F1_75 1_555 1_555
F2_75 B1_75 1_555 1_555
F3_75 B1_75 1_555 1_555
F4_75 B1_75 1_555 1_555
B1_76 F1_76 1_555 1_555
F2_76 B1_76 1_555 1_555
F3_76 B1_76 1_555 1_555
F4_76 B1_76 1_555 1_555
B1_77 F1_77 1_555 1_555
F2_77 B1_77 1_555 1_555
F3_77 B1_77 1_555 1_555
F4_77 B1_77 1_555 1_555
B1_78 F1_78 1_555 1_555
F2_78 B1_78 1_555 1_555
F3_78 B1_78 1_555 1_555
F4_78 B1_78 1_555 1_555
B1_79 F1_79 1_555 1_555
F2_79 B1_79 1_555 1_555
F3_79 B1_79 1_555 1_555
F4_79 B1_79 1_555 1_555
B1_80 F1_80 1_555 1_555
F2_80 B1_80 1_555 1_555
F3_80 B1_80 1_555 1_555
F4_80 B1_80 1_555 1_555
B1_81 F1_81 1_555 1_555
F2_81 B1_81 1_555 1_555
F3_81 B1_81 1_555 1_555
F4_81 B1_81 1_555 1_555
B1_82 F1_82 1_555 1_555
F2_82 B1_82 1_555 1_555
F3_82 B1_82 1_555 1_555
F4_82 B1_82 1_555 1_555
B1_83 F1_83 1_555 1_555
F2_83 B1_83 1_555 1_555
F3_83 B1_83 1_555 1_555
F4_83 B1_83 1_555 1_555
B1_84 F1_84 1_555 1_555
F2_84 B1_84 1_555 1_555
F3_84 B1_84 1_555 1_555
F4_84 B1_84 1_555 1_555
B1_85 F1_85 1_555 1_555
F2_85 B1_85 1_555 1_555
F3_85 B1_85 1_555 1_555
F4_85 B1_85 1_555 1_555
B1_86 F1_86 1_555 1_555
F2_86 B1_86 1_555 1_555
F3_86 B1_86 1_555 1_555
F4_86 B1_86 1_555 1_555
B1_87 F1_87 1_555 1_555
F2_87 B1_87 1_555 1_555
F3_87 B1_87 1_555 1_555
F4_87 B1_87 1_555 1_555
B1_88 F1_88 1_555 1_555
F2_88 B1_88 1_555 1_555
F3_88 B1_88 1_555 1_555
F4_88 B1_88 1_555 1_555
B1_89 F1_89 1_555 1_555
F2_89 B1_89 1_555 1_555
F3_89 B1_89 1_555 1_555
F4_89 B1_89 1_555 1_555
B1_90 F1_90 1_555 1_555
F2_90 B1_90 1_555 1_555
F3_90 B1_90 1_555 1_555
F4_90 B1_90 1_555 1_555
B1_91 F1_91 1_555 1_555
F2_91 B1_91 1_555 1_555
F3_91 B1_91 1_555 1_555
F4_91 B1_91 1_555 1_555
B1_92 F1_92 1_555 1_555
F2_92 B1_92 1_555 1_555
F3_92 B1_92 1_555 1_555
F4_92 B1_92 1_555 1_555
B1_93 F1_93 1_555 1_555
F2_93 B1_93 1_555 1_555
F3_93 B1_93 1_555 1_555
F4_93 B1_93 1_555 1_555
B1_94 F1_94 1_555 1_555
F2_94 B1_94 1_555 1_555
F3_94 B1_94 1_555 1_555
F4_94 B1_94 1_555 1_555
B1_95 F1_95 1_555 1_555
F2_95 B1_95 1_555 1_555
F3_95 B1_95 1_555 1_555
F4_95 B1_95 1_555 1_555
B1_96 F1_96 1_555 1_555
F2_96 B1_96 1_555 1_555
F3_96 B1_96 1_555 1_555
F4_96 B1_96 1_555 1_555
B2 F5 1_555 1_555
F6 B2 1_555 1_555
F7 B2 1_555 1_555
F8 B2 1_555 1_555
B2_2 F5_2 1_555 1_555
F6_2 B2_2 1_555 1_555
F7_2 B2_2 1_555 1_555
F8_2 B2_2 1_555 1_555
B2_3 F5_3 1_555 1_555
F6_3 B2_3 1_555 1_555
F7_3 B2_3 1_555 1_555
F8_3 B2_3 1_555 1_555
B2_4 F5_4 1_555 1_555
F6_4 B2_4 1_555 1_555
F7_4 B2_4 1_555 1_555
F8_4 B2_4 1_555 1_555
B2_5 F5_5 1_555 1_555
F6_5 B2_5 1_555 1_555
F7_5 B2_5 1_555 1_555
F8_5 B2_5 1_555 1_555
B2_6 F5_6 1_555 1_555
F6_6 B2_6 1_555 1_555
F7_6 B2_6 1_555 1_555
F8_6 B2_6 1_555 1_555
B2_7 F5_7 1_555 1_555
F6_7 B2_7 1_555 1_555
F7_7 B2_7 1_555 1_555
F8_7 B2_7 1_555 1_555
B2_8 F5_8 1_555 1_555
F6_8 B2_8 1_555 1_555
F7_8 B2_8 1_555 1_555
F8_8 B2_8 1_555 1_555
B2_9 F5_9 1_555 1_555
F6_9 B2_9 1_555 1_555
F7_9 B2_9 1_555 1_555
F8_9 B2_9 1_555 1_555
B2_10 F5_10 1_555 1_555
F6_10 B2_10 1_555 1_555
F7_10 B2_10 1_555 1_555
F8_10 B2_10 1_555 1_555
B2_11 F5_11 1_555 1_555
F6_11 B2_11 1_555 1_555
F7_11 B2_11 1_555 1_555
F8_11 B2_11 1_555 1_555
B2_12 F5_12 1_555 1_555
F6_12 B2_12 1_555 1_555
F7_12 B2_12 1_555 1_555
F8_12 B2_12 1_555 1_555
B2_13 F5_13 1_555 1_555
F6_13 B2_13 1_555 1_555
F7_13 B2_13 1_555 1_555
F8_13 B2_13 1_555 1_555
B2_14 F5_14 1_555 1_555
F6_14 B2_14 1_555 1_555
F7_14 B2_14 1_555 1_555
F8_14 B2_14 1_555 1_555
B2_15 F5_15 1_555 1_555
F6_15 B2_15 1_555 1_555
F7_15 B2_15 1_555 1_555
F8_15 B2_15 1_555 1_555
B2_16 F5_16 1_555 1_555
F6_16 B2_16 1_555 1_555
F7_16 B2_16 1_555 1_555
F8_16 B2_16 1_555 1_555
B2_17 F5_17 1_555 1_555
F6_17 B2_17 1_555 1_555
F7_17 B2_17 1_555 1_555
F8_17 B2_17 1_555 1_555
B2_18 F5_18 1_555 1_555
F6_18 B2_18 1_555 1_555
F7_18 B2_18 1_555 1_555
F8_18 B2_18 1_555 1_555
B2_19 F5_19 1_555 1_555
F6_19 B2_19 1_555 1_555
F7_19 B2_19 1_555 1_555
F8_19 B2_19 1_555 1_555
B2_20 F5_20 1_555 1_555
F6_20 B2_20 1_555 1_555
F7_20 B2_20 1_555 1_555
F8_20 B2_20 1_555 1_555
B2_21 F5_21 1_555 1_555
F6_21 B2_21 1_555 1_555
F7_21 B2_21 1_555 1_555
F8_21 B2_21 1_555 1_555
B2_22 F5_22 1_555 1_555
F6_22 B2_22 1_555 1_555
F7_22 B2_22 1_555 1_555
F8_22 B2_22 1_555 1_555
B2_23 F5_23 1_555 1_555
F6_23 B2_23 1_555 1_555
F7_23 B2_23 1_555 1_555
F8_23 B2_23 1_555 1_555
B2_24 F5_24 1_555 1_555
F6_24 B2_24 1_555 1_555
F7_24 B2_24 1_555 1_555
F8_24 B2_24 1_555 1_555
B2_25 F5_25 1_555 1_555
F6_25 B2_25 1_555 1_555
F7_25 B2_25 1_555 1_555
F8_25 B2_25 1_555 1_555
B2_26 F5_26 1_555 1_555
F6_26 B2_26 1_555 1_555
F7_26 B2_26 1_555 1_555
F8_26 B2_26 1_555 1_555
B2_27 F5_27 1_555 1_555
F6_27 B2_27 1_555 1_555
F7_27 B2_27 1_555 1_555
F8_27 B2_27 1_555 1_555
B2_28 F5_28 1_555 1_555
F6_28 B2_28 1_555 1_555
F7_28 B2_28 1_555 1_555
F8_28 B2_28 1_555 1_555
B2_29 F5_29 1_555 1_555
F6_29 B2_29 1_555 1_555
F7_29 B2_29 1_555 1_555
F8_29 B2_29 1_555 1_555
B2_30 F5_30 1_555 1_555
F6_30 B2_30 1_555 1_555
F7_30 B2_30 1_555 1_555
F8_30 B2_30 1_555 1_555
B2_31 F5_31 1_555 1_555
F6_31 B2_31 1_555 1_555
F7_31 B2_31 1_555 1_555
F8_31 B2_31 1_555 1_555
B2_32 F5_32 1_555 1_555
F6_32 B2_32 1_555 1_555
F7_32 B2_32 1_555 1_555
F8_32 B2_32 1_555 1_555
B2_33 F5_33 1_555 1_555
F6_33 B2_33 1_555 1_555
F7_33 B2_33 1_555 1_555
F8_33 B2_33 1_555 1_555
B2_34 F5_34 1_555 1_555
F6_34 B2_34 1_555 1_555
F7_34 B2_34 1_555 1_555
F8_34 B2_34 1_555 1_555
B2_35 F5_35 1_555 1_555
F6_35 B2_35 1_555 1_555
F7_35 B2_35 1_555 1_555
F8_35 B2_35 1_555 1_555
B2_36 F5_36 1_555 1_555
F6_36 B2_36 1_555 1_555
F7_36 B2_36 1_555 1_555
F8_36 B2_36 1_555 1_555
B2_37 F5_37 1_555 1_555
F6_37 B2_37 1_555 1_555
F7_37 B2_37 1_555 1_555
F8_37 B2_37 1_555 1_555
B2_38 F5_38 1_555 1_555
F6_38 B2_38 1_555 1_555
F7_38 B2_38 1_555 1_555
F8_38 B2_38 1_555 1_555
B2_39 F5_39 1_555 1_555
F6_39 B2_39 1_555 1_555
F7_39 B2_39 1_555 1_555
F8_39 B2_39 1_555 1_555
B2_40 F5_40 1_555 1_555
F6_40 B2_40 1_555 1_555
F7_40 B2_40 1_555 1_555
F8_40 B2_40 1_555 1_555
B2_41 F5_41 1_555 1_555
F6_41 B2_41 1_555 1_555
F7_41 B2_41 1_555 1_555
F8_41 B2_41 1_555 1_555
B2_42 F5_42 1_555 1_555
F6_42 B2_42 1_555 1_555
F7_42 B2_42 1_555 1_555
F8_42 B2_42 1_555 1_555
B2_43 F5_43 1_555 1_555
F6_43 B2_43 1_555 1_555
F7_43 B2_43 1_555 1_555
F8_43 B2_43 1_555 1_555
B2_44 F5_44 1_555 1_555
F6_44 B2_44 1_555 1_555
F7_44 B2_44 1_555 1_555
F8_44 B2_44 1_555 1_555
B2_45 F5_45 1_555 1_555
F6_45 B2_45 1_555 1_555
F7_45 B2_45 1_555 1_555
F8_45 B2_45 1_555 1_555
B2_46 F5_46 1_555 1_555
F6_46 B2_46 1_555 1_555
F7_46 B2_46 1_555 1_555
F8_46 B2_46 1_555 1_555
B2_47 F5_47 1_555 1_555
F6_47 B2_47 1_555 1_555
F7_47 B2_47 1_555 1_555
F8_47 B2_47 1_555 1_555
B2_48 F5_48 1_555 1_555
F6_48 B2_48 1_555 1_555
F7_48 B2_48 1_555 1_555
F8_48 B2_48 1_555 1_555
B2_49 F5_49 1_555 1_555
F6_49 B2_49 1_555 1_555
F7_49 B2_49 1_555 1_555
F8_49 B2_49 1_555 1_555
B2_50 F5_50 1_555 1_555
F6_50 B2_50 1_555 1_555
F7_50 B2_50 1_555 1_555
F8_50 B2_50 1_555 1_555
B2_51 F5_51 1_555 1_555
F6_51 B2_51 1_555 1_555
F7_51 B2_51 1_555 1_555
F8_51 B2_51 1_555 1_555
B2_52 F5_52 1_555 1_555
F6_52 B2_52 1_555 1_555
F7_52 B2_52 1_555 1_555
F8_52 B2_52 1_555 1_555
B2_53 F5_53 1_555 1_555
F6_53 B2_53 1_555 1_555
F7_53 B2_53 1_555 1_555
F8_53 B2_53 1_555 1_555
B2_54 F5_54 1_555 1_555
F6_54 B2_54 1_555 1_555
F7_54 B2_54 1_555 1_555
F8_54 B2_54 1_555 1_555
B2_55 F5_55 1_555 1_555
F6_55 B2_55 1_555 1_555
F7_55 B2_55 1_555 1_555
F8_55 B2_55 1_555 1_555
B2_56 F5_56 1_555 1_555
F6_56 B2_56 1_555 1_555
F7_56 B2_56 1_555 1_555
F8_56 B2_56 1_555 1_555
B2_57 F5_57 1_555 1_555
F6_57 B2_57 1_555 1_555
F7_57 B2_57 1_555 1_555
F8_57 B2_57 1_555 1_555
B2_58 F5_58 1_555 1_555
F6_58 B2_58 1_555 1_555
F7_58 B2_58 1_555 1_555
F8_58 B2_58 1_555 1_555
B2_59 F5_59 1_555 1_555
F6_59 B2_59 1_555 1_555
F7_59 B2_59 1_555 1_555
F8_59 B2_59 1_555 1_555
B2_60 F5_60 1_555 1_555
F6_60 B2_60 1_555 1_555
F7_60 B2_60 1_555 1_555
F8_60 B2_60 1_555 1_555
B2_61 F5_61 1_555 1_555
F6_61 B2_61 1_555 1_555
F7_61 B2_61 1_555 1_555
F8_61 B2_61 1_555 1_555
B2_62 F5_62 1_555 1_555
F6_62 B2_62 1_555 1_555
F7_62 B2_62 1_555 1_555
F8_62 B2_62 1_555 1_555
B2_63 F5_63 1_555 1_555
F6_63 B2_63 1_555 1_555
F7_63 B2_63 1_555 1_555
F8_63 B2_63 1_555 1_555
B2_64 F5_64 1_555 1_555
F6_64 B2_64 1_555 1_555
F7_64 B2_64 1_555 1_555
F8_64 B2_64 1_555 1_555
Ag1 N1 1_555 1_555
P1 C1 1_555 1_555
N1 C1 1_555 1_555
N2 C2 1_555 1_555
C1 C2 1_555 1_555
C2 H1 1_555 1_555
C3 N2 1_555 1_555
H2 C3 1_555 1_555
C4 N1 1_555 1_555
H3 C4 1_555 1_555
C5 P1 1_555 1_555
C6 C5 1_555 1_555
H4 C6 1_555 1_555
C7 C6 1_555 1_555
H5 C7 1_555 1_555
C8 C7 1_555 1_555
H6 C8 1_555 1_555
C9 C8 1_555 1_555
H7 C9 1_555 1_555
C10 C5 1_555 1_555
H8 C10 1_555 1_555
C11 P1 1_555 1_555
C12 C11 1_555 1_555
H9 C12 1_555 1_555
C13 C12 1_555 1_555
H10 C13 1_555 1_555
C14 C13 1_555 1_555
H11 C14 1_555 1_555
C15 C14 1_555 1_555
H12 C15 1_555 1_555
C16 C11 1_555 1_555
H13 C16 1_555 1_555
N3 Ag1 1_555 1_555
C17 N3 1_555 1_555
C18 C17 1_555 1_555
H14 C18 1_555 1_555
H15 C18 1_555 1_555
H16 C18 1_555 1_555
Ag2 Ag1 1_555 1_555
Ag3 N2 1_555 1_555
P2 Ag1 1_555 1_555
N4 Ag1 1_555 1_555
P1 Ag2 1_555 1_555
C3 C4 1_555 1_555
C9 C10 1_555 1_555
C15 C16 1_555 1_555
C6_2 C5_2 1_555 1_555
H4_2 C6_2 1_555 1_555
C7_2 C6_2 1_555 1_555
H5_2 C7_2 1_555 1_555
C8_2 C7_2 1_555 1_555
H6_2 C8_2 1_555 1_555
C9_2 C8_2 1_555 1_555
H7_2 C9_2 1_555 1_555
C10_2 C5_2 1_555 1_555
C9_2 C10_2 1_555 1_555
Ag1_2 N1_2 1_555 1_555
P1_2 C1_2 1_555 1_555
N1_2 C1_2 1_555 1_555
N2_2 C2_2 1_555 1_555
C1_2 C2_2 1_555 1_555
C2_2 H1_2 1_555 1_555
C3_2 N2_2 1_555 1_555
H2_2 C3_2 1_555 1_555
C4_2 N1_2 1_555 1_555
H3_2 C4_2 1_555 1_555
C11_2 P1_2 1_555 1_555
C12_2 C11_2 1_555 1_555
H12_2 C15_2 1_555 1_555
C16_2 C11_2 1_555 1_555
H13_2 C16_2 1_555 1_555
N3_2 Ag1_2 1_555 1_555
C17_2 N3_2 1_555 1_555
C18_2 C17_2 1_555 1_555
H14_2 C18_2 1_555 1_555
H15_2 C18_2 1_555 1_555
H16_2 C18_2 1_555 1_555
Ag3_2 N2_2 1_555 1_555
N4_2 Ag1_2 1_555 1_555
C3_2 C4_2 1_555 1_555
C15_2 C16_2 1_555 1_555
Ag1_3 N1_3 1_555 1_555
P1_3 C1_3 1_555 1_555
N1_3 C1_3 1_555 1_555
N2_3 C2_3 1_555 1_555
C1_3 C2_3 1_555 1_555
C2_3 H1_3 1_555 1_555
C3_3 N2_3 1_555 1_555
H2_3 C3_3 1_555 1_555
C4_3 N1_3 1_555 1_555
H3_3 C4_3 1_555 1_555
C5_3 P1_3 1_555 1_555
C6_3 C5_3 1_555 1_555
H4_3 C6_3 1_555 1_555
C7_3 C6_3 1_555 1_555
H5_3 C7_3 1_555 1_555
C8_3 C7_3 1_555 1_555
H6_3 C8_3 1_555 1_555
C9_3 C8_3 1_555 1_555
H7_3 C9_3 1_555 1_555
C10_3 C5_3 1_555 1_555
H8_3 C10_3 1_555 1_555
C11_3 P1_3 1_555 1_555
C12_3 C11_3 1_555 1_555
H9_3 C12_3 1_555 1_555
C13_2 C12_3 1_555 1_555
H10_2 C13_2 1_555 1_555
C14_2 C13_2 1_555 1_555
H11_2 C14_2 1_555 1_555
C15_3 C14_2 1_555 1_555
H12_3 C15_3 1_555 1_555
C16_3 C11_3 1_555 1_555
H13_3 C16_3 1_555 1_555
N3_3 Ag1_3 1_555 1_555
C17_3 N3_3 1_555 1_555
C18_3 C17_3 1_555 1_555
H14_3 C18_3 1_555 1_555
H15_3 C18_3 1_555 1_555
H16_3 C18_3 1_555 1_555
Ag2_3 Ag1_3 1_555 1_555
Ag3_3 N2_3 1_555 1_555
P2_3 Ag1_3 1_555 1_555
N4_3 Ag1_3 1_555 1_555
P1_3 Ag2_3 1_555 1_555
C3_3 C4_3 1_555 1_555
C9_3 C10_3 1_555 1_555
C15_3 C16_3 1_555 1_555
Ag1_4 N1_4 1_555 1_555
P1_4 C1_4 1_555 1_555
N1_4 C1_4 1_555 1_555
N2_4 C2_4 1_555 1_555
C1_4 C2_4 1_555 1_555
C2_4 H1_4 1_555 1_555
C3_4 N2_4 1_555 1_555
H2_4 C3_4 1_555 1_555
C4_4 N1_4 1_555 1_555
H3_4 C4_4 1_555 1_555
C5_4 P1_4 1_555 1_555
C6_4 C5_4 1_555 1_555
H4_4 C6_4 1_555 1_555
C7_4 C6_4 1_555 1_555
H5_4 C7_4 1_555 1_555
C8_4 C7_4 1_555 1_555
H6_4 C8_4 1_555 1_555
C9_4 C8_4 1_555 1_555
H7_4 C9_4 1_555 1_555
C10_4 C5_4 1_555 1_555
H8_4 C10_4 1_555 1_555
C11_4 P1_4 1_555 1_555
C12_4 C11_4 1_555 1_555
H9_4 C12_4 1_555 1_555
C13_3 C12_4 1_555 1_555
H10_3 C13_3 1_555 1_555
C14_3 C13_3 1_555 1_555
H11_3 C14_3 1_555 1_555
C15_4 C14_3 1_555 1_555
H12_4 C15_4 1_555 1_555
C16_4 C11_4 1_555 1_555
H13_4 C16_4 1_555 1_555
N3_4 Ag1_4 1_555 1_555
C17_4 N3_4 1_555 1_555
C18_4 C17_4 1_555 1_555
H14_4 C18_4 1_555 1_555
H15_4 C18_4 1_555 1_555
H16_4 C18_4 1_555 1_555
Ag2_4 Ag1_4 1_555 1_555
Ag3_4 N2_4 1_555 1_555
P2_4 Ag1_4 1_555 1_555
N4_4 Ag1_4 1_555 1_555
P1_4 Ag2_4 1_555 1_555
C3_4 C4_4 1_555 1_555
C9_4 C10_4 1_555 1_555
C15_4 C16_4 1_555 1_555
Ag1_5 N1_5 1_555 1_555
P1_5 C1_5 1_555 1_555
N1_5 C1_5 1_555 1_555
N2_5 C2_5 1_555 1_555
C1_5 C2_5 1_555 1_555
C2_5 H1_5 1_555 1_555
C3_5 N2_5 1_555 1_555
H2_5 C3_5 1_555 1_555
C4_5 N1_5 1_555 1_555
H3_5 C4_5 1_555 1_555
C5_5 P1_5 1_555 1_555
C6_5 C5_5 1_555 1_555
H4_5 C6_5 1_555 1_555
C7_5 C6_5 1_555 1_555
H5_5 C7_5 1_555 1_555
C8_5 C7_5 1_555 1_555
H6_5 C8_5 1_555 1_555
C9_5 C8_5 1_555 1_555
H7_5 C9_5 1_555 1_555
C10_5 C5_5 1_555 1_555
H8_5 C10_5 1_555 1_555
C11_5 P1_5 1_555 1_555
C12_5 C11_5 1_555 1_555
H9_5 C12_5 1_555 1_555
C13_4 C12_5 1_555 1_555
H10_4 C13_4 1_555 1_555
C14_4 C13_4 1_555 1_555
H11_4 C14_4 1_555 1_555
C15_5 C14_4 1_555 1_555
H12_5 C15_5 1_555 1_555
C16_5 C11_5 1_555 1_555
H13_5 C16_5 1_555 1_555
N3_5 Ag1_5 1_555 1_555
C17_5 N3_5 1_555 1_555
C18_5 C17_5 1_555 1_555
H14_5 C18_5 1_555 1_555
H15_5 C18_5 1_555 1_555
H16_5 C18_5 1_555 1_555
Ag2_5 Ag1_5 1_555 1_555
Ag3_5 N2_5 1_555 1_555
P2_5 Ag1_5 1_555 1_555
N4_5 Ag1_5 1_555 1_555
P1_5 Ag2_5 1_555 1_555
C3_5 C4_5 1_555 1_555
C9_5 C10_5 1_555 1_555
C15_5 C16_5 1_555 1_555
C6_6 C5_6 1_555 1_555
H4_6 C6_6 1_555 1_555
C7_6 C6_6 1_555 1_555
H5_6 C7_6 1_555 1_555
C8_6 C7_6 1_555 1_555
H6_6 C8_6 1_555 1_555
C9_6 C8_6 1_555 1_555
H7_6 C9_6 1_555 1_555
C10_6 C5_6 1_555 1_555
C9_6 C10_6 1_555 1_555
Ag1_6 N1_6 1_555 1_555
P1_6 C1_6 1_555 1_555
N1_6 C1_6 1_555 1_555
N2_6 C2_6 1_555 1_555
C1_6 C2_6 1_555 1_555
C2_6 H1_6 1_555 1_555
C3_6 N2_6 1_555 1_555
H2_6 C3_6 1_555 1_555
C4_6 N1_6 1_555 1_555
H3_6 C4_6 1_555 1_555
C11_6 P1_6 1_555 1_555
C12_6 C11_6 1_555 1_555
H12_6 C15_6 1_555 1_555
C16_6 C11_6 1_555 1_555
H13_6 C16_6 1_555 1_555
N3_6 Ag1_6 1_555 1_555
C17_6 N3_6 1_555 1_555
C18_6 C17_6 1_555 1_555
H14_6 C18_6 1_555 1_555
H15_6 C18_6 1_555 1_555
H16_6 C18_6 1_555 1_555
Ag3_6 N2_6 1_555 1_555
N4_6 Ag1_6 1_555 1_555
C3_6 C4_6 1_555 1_555
C15_6 C16_6 1_555 1_555
Ag1_7 N1_7 1_555 1_555
P1_7 C1_7 1_555 1_555
N1_7 C1_7 1_555 1_555
N2_7 C2_7 1_555 1_555
C1_7 C2_7 1_555 1_555
C2_7 H1_7 1_555 1_555
C3_7 N2_7 1_555 1_555
H2_7 C3_7 1_555 1_555
C4_7 N1_7 1_555 1_555
H3_7 C4_7 1_555 1_555
C5_7 P1_7 1_555 1_555
C6_7 C5_7 1_555 1_555
H4_7 C6_7 1_555 1_555
C7_7 C6_7 1_555 1_555
H5_7 C7_7 1_555 1_555
C8_7 C7_7 1_555 1_555
H6_7 C8_7 1_555 1_555
C9_7 C8_7 1_555 1_555
H7_7 C9_7 1_555 1_555
C10_7 C5_7 1_555 1_555
H8_7 C10_7 1_555 1_555
C11_7 P1_7 1_555 1_555
C12_7 C11_7 1_555 1_555
H9_7 C12_7 1_555 1_555
C13_5 C12_7 1_555 1_555
H10_5 C13_5 1_555 1_555
C14_5 C13_5 1_555 1_555
H11_5 C14_5 1_555 1_555
C15_7 C14_5 1_555 1_555
H12_7 C15_7 1_555 1_555
C16_7 C11_7 1_555 1_555
H13_7 C16_7 1_555 1_555
N3_7 Ag1_7 1_555 1_555
C17_7 N3_7 1_555 1_555
C18_7 C17_7 1_555 1_555
H14_7 C18_7 1_555 1_555
H15_7 C18_7 1_555 1_555
H16_7 C18_7 1_555 1_555
Ag2_7 Ag1_7 1_555 1_555
Ag3_7 N2_7 1_555 1_555
P2_7 Ag1_7 1_555 1_555
N4_7 Ag1_7 1_555 1_555
P1_7 Ag2_7 1_555 1_555
C3_7 C4_7 1_555 1_555
C9_7 C10_7 1_555 1_555
C15_7 C16_7 1_555 1_555
Ag1_8 N1_8 1_555 1_555
P1_8 C1_8 1_555 1_555
N1_8 C1_8 1_555 1_555
N2_8 C2_8 1_555 1_555
C1_8 C2_8 1_555 1_555
C2_8 H1_8 1_555 1_555
C3_8 N2_8 1_555 1_555
H2_8 C3_8 1_555 1_555
C4_8 N1_8 1_555 1_555
H3_8 C4_8 1_555 1_555
C5_8 P1_8 1_555 1_555
C6_8 C5_8 1_555 1_555
H4_8 C6_8 1_555 1_555
C7_8 C6_8 1_555 1_555
H5_8 C7_8 1_555 1_555
C8_8 C7_8 1_555 1_555
H6_8 C8_8 1_555 1_555
C9_8 C8_8 1_555 1_555
H7_8 C9_8 1_555 1_555
C10_8 C5_8 1_555 1_555
H8_8 C10_8 1_555 1_555
C11_8 P1_8 1_555 1_555
C12_8 C11_8 1_555 1_555
H9_8 C12_8 1_555 1_555
C13_6 C12_8 1_555 1_555
H10_6 C13_6 1_555 1_555
C14_6 C13_6 1_555 1_555
H11_6 C14_6 1_555 1_555
C15_8 C14_6 1_555 1_555
H12_8 C15_8 1_555 1_555
C16_8 C11_8 1_555 1_555
H13_8 C16_8 1_555 1_555
N3_8 Ag1_8 1_555 1_555
C17_8 N3_8 1_555 1_555
C18_8 C17_8 1_555 1_555
H14_8 C18_8 1_555 1_555
H15_8 C18_8 1_555 1_555
H16_8 C18_8 1_555 1_555
Ag2_8 Ag1_8 1_555 1_555
Ag3_8 N2_8 1_555 1_555
P2_8 Ag1_8 1_555 1_555
N4_8 Ag1_8 1_555 1_555
P1_8 Ag2_8 1_555 1_555
C3_8 C4_8 1_555 1_555
C9_8 C10_8 1_555 1_555
C15_8 C16_8 1_555 1_555
Ag1_9 N1_9 1_555 1_555
P1_9 C1_9 1_555 1_555
N1_9 C1_9 1_555 1_555
N2_9 C2_9 1_555 1_555
C1_9 C2_9 1_555 1_555
C2_9 H1_9 1_555 1_555
C3_9 N2_9 1_555 1_555
H2_9 C3_9 1_555 1_555
C4_9 N1_9 1_555 1_555
H3_9 C4_9 1_555 1_555
C5_9 P1_9 1_555 1_555
C6_9 C5_9 1_555 1_555
H4_9 C6_9 1_555 1_555
C7_9 C6_9 1_555 1_555
H5_9 C7_9 1_555 1_555
C8_9 C7_9 1_555 1_555
H6_9 C8_9 1_555 1_555
C9_9 C8_9 1_555 1_555
H7_9 C9_9 1_555 1_555
C10_9 C5_9 1_555 1_555
H8_9 C10_9 1_555 1_555
C11_9 P1_9 1_555 1_555
C12_9 C11_9 1_555 1_555
H9_9 C12_9 1_555 1_555
C13_7 C12_9 1_555 1_555
H10_7 C13_7 1_555 1_555
C14_7 C13_7 1_555 1_555
H11_7 C14_7 1_555 1_555
C15_9 C14_7 1_555 1_555
H12_9 C15_9 1_555 1_555
C16_9 C11_9 1_555 1_555
H13_9 C16_9 1_555 1_555
N3_9 Ag1_9 1_555 1_555
C17_9 N3_9 1_555 1_555
C18_9 C17_9 1_555 1_555
H14_9 C18_9 1_555 1_555
H15_9 C18_9 1_555 1_555
H16_9 C18_9 1_555 1_555
Ag2_9 Ag1_9 1_555 1_555
Ag3_9 N2_9 1_555 1_555
P2_9 Ag1_9 1_555 1_555
N4_9 Ag1_9 1_555 1_555
P1_9 Ag2_9 1_555 1_555
C3_9 C4_9 1_555 1_555
C9_9 C10_9 1_555 1_555
C15_9 C16_9 1_555 1_555
C6_10 C5_10 1_555 1_555
H4_10 C6_10 1_555 1_555
C7_10 C6_10 1_555 1_555
H5_10 C7_10 1_555 1_555
C8_10 C7_10 1_555 1_555
H6_10 C8_10 1_555 1_555
C9_10 C8_10 1_555 1_555
H7_10 C9_10 1_555 1_555
C10_10 C5_10 1_555 1_555
C9_10 C10_10 1_555 1_555
Ag1_10 N1_10 1_555 1_555
P1_10 C1_10 1_555 1_555
N1_10 C1_10 1_555 1_555
N2_10 C2_10 1_555 1_555
C1_10 C2_10 1_555 1_555
C2_10 H1_10 1_555 1_555
C3_10 N2_10 1_555 1_555
H2_10 C3_10 1_555 1_555
C4_10 N1_10 1_555 1_555
H3_10 C4_10 1_555 1_555
C11_10 P1_10 1_555 1_555
C12_10 C11_10 1_555 1_555
H12_10 C15_10 1_555 1_555
C16_10 C11_10 1_555 1_555
H13_10 C16_10 1_555 1_555
N3_10 Ag1_10 1_555 1_555
C17_10 N3_10 1_555 1_555
C18_10 C17_10 1_555 1_555
H14_10 C18_10 1_555 1_555
H15_10 C18_10 1_555 1_555
H16_10 C18_10 1_555 1_555
Ag3_10 N2_10 1_555 1_555
N4_10 Ag1_10 1_555 1_555
C3_10 C4_10 1_555 1_555
C15_10 C16_10 1_555 1_555
Ag1_11 N1_11 1_555 1_555
P1_11 C1_11 1_555 1_555
N1_11 C1_11 1_555 1_555
N2_11 C2_11 1_555 1_555
C1_11 C2_11 1_555 1_555
C2_11 H1_11 1_555 1_555
C3_11 N2_11 1_555 1_555
H2_11 C3_11 1_555 1_555
C4_11 N1_11 1_555 1_555
H3_11 C4_11 1_555 1_555
C5_11 P1_11 1_555 1_555
C6_11 C5_11 1_555 1_555
H4_11 C6_11 1_555 1_555
C7_11 C6_11 1_555 1_555
H5_11 C7_11 1_555 1_555
C8_11 C7_11 1_555 1_555
H6_11 C8_11 1_555 1_555
C9_11 C8_11 1_555 1_555
H7_11 C9_11 1_555 1_555
C10_11 C5_11 1_555 1_555
H8_11 C10_11 1_555 1_555
C11_11 P1_11 1_555 1_555
C12_11 C11_11 1_555 1_555
H9_11 C12_11 1_555 1_555
C13_8 C12_11 1_555 1_555
H10_8 C13_8 1_555 1_555
C14_8 C13_8 1_555 1_555
H11_8 C14_8 1_555 1_555
C15_11 C14_8 1_555 1_555
H12_11 C15_11 1_555 1_555
C16_11 C11_11 1_555 1_555
H13_11 C16_11 1_555 1_555
N3_11 Ag1_11 1_555 1_555
C17_11 N3_11 1_555 1_555
C18_11 C17_11 1_555 1_555
H14_11 C18_11 1_555 1_555
H15_11 C18_11 1_555 1_555
H16_11 C18_11 1_555 1_555
Ag2_11 Ag1_11 1_555 1_555
Ag3_11 N2_11 1_555 1_555
P2_11 Ag1_11 1_555 1_555
N4_11 Ag1_11 1_555 1_555
P1_11 Ag2_11 1_555 1_555
C3_11 C4_11 1_555 1_555
C9_11 C10_11 1_555 1_555
C15_11 C16_11 1_555 1_555
Ag1_12 N1_12 1_555 1_555
P1_12 C1_12 1_555 1_555
N1_12 C1_12 1_555 1_555
N2_12 C2_12 1_555 1_555
C1_12 C2_12 1_555 1_555
C2_12 H1_12 1_555 1_555
C3_12 N2_12 1_555 1_555
H2_12 C3_12 1_555 1_555
C4_12 N1_12 1_555 1_555
H3_12 C4_12 1_555 1_555
C5_12 P1_12 1_555 1_555
C6_12 C5_12 1_555 1_555
H4_12 C6_12 1_555 1_555
C7_12 C6_12 1_555 1_555
H5_12 C7_12 1_555 1_555
C8_12 C7_12 1_555 1_555
H6_12 C8_12 1_555 1_555
C9_12 C8_12 1_555 1_555
H7_12 C9_12 1_555 1_555
C10_12 C5_12 1_555 1_555
H8_12 C10_12 1_555 1_555
C11_12 P1_12 1_555 1_555
C12_12 C11_12 1_555 1_555
H9_12 C12_12 1_555 1_555
C13_9 C12_12 1_555 1_555
H10_9 C13_9 1_555 1_555
C14_9 C13_9 1_555 1_555
H11_9 C14_9 1_555 1_555
C15_12 C14_9 1_555 1_555
H12_12 C15_12 1_555 1_555
C16_12 C11_12 1_555 1_555
H13_12 C16_12 1_555 1_555
N3_12 Ag1_12 1_555 1_555
C17_12 N3_12 1_555 1_555
C18_12 C17_12 1_555 1_555
H14_12 C18_12 1_555 1_555
H15_12 C18_12 1_555 1_555
H16_12 C18_12 1_555 1_555
Ag2_12 Ag1_12 1_555 1_555
Ag3_12 N2_12 1_555 1_555
P2_12 Ag1_12 1_555 1_555
N4_12 Ag1_12 1_555 1_555
P1_12 Ag2_12 1_555 1_555
C3_12 C4_12 1_555 1_555
C9_12 C10_12 1_555 1_555
C15_12 C16_12 1_555 1_555
Ag1_13 N1_13 1_555 1_555
P1_13 C1_13 1_555 1_555
N1_13 C1_13 1_555 1_555
N2_13 C2_13 1_555 1_555
C1_13 C2_13 1_555 1_555
C2_13 H1_13 1_555 1_555
C3_13 N2_13 1_555 1_555
H2_13 C3_13 1_555 1_555
C4_13 N1_13 1_555 1_555
H3_13 C4_13 1_555 1_555
C5_13 P1_13 1_555 1_555
C6_13 C5_13 1_555 1_555
H4_13 C6_13 1_555 1_555
C7_13 C6_13 1_555 1_555
H5_13 C7_13 1_555 1_555
C8_13 C7_13 1_555 1_555
H6_13 C8_13 1_555 1_555
C9_13 C8_13 1_555 1_555
H7_13 C9_13 1_555 1_555
C10_13 C5_13 1_555 1_555
H8_13 C10_13 1_555 1_555
C11_13 P1_13 1_555 1_555
C12_13 C11_13 1_555 1_555
H9_13 C12_13 1_555 1_555
C13_10 C12_13 1_555 1_555
H10_10 C13_10 1_555 1_555
C14_10 C13_10 1_555 1_555
H11_10 C14_10 1_555 1_555
C15_13 C14_10 1_555 1_555
H12_13 C15_13 1_555 1_555
C16_13 C11_13 1_555 1_555
H13_13 C16_13 1_555 1_555
N3_13 Ag1_13 1_555 1_555
C17_13 N3_13 1_555 1_555
C18_13 C17_13 1_555 1_555
H14_13 C18_13 1_555 1_555
H15_13 C18_13 1_555 1_555
H16_13 C18_13 1_555 1_555
Ag2_13 Ag1_13 1_555 1_555
Ag3_13 N2_13 1_555 1_555
P2_13 Ag1_13 1_555 1_555
N4_13 Ag1_13 1_555 1_555
P1_13 Ag2_13 1_555 1_555
C3_13 C4_13 1_555 1_555
C9_13 C10_13 1_555 1_555
C15_13 C16_13 1_555 1_555
Ag1_14 N1_14 1_555 1_555
P1_14 C1_14 1_555 1_555
N1_14 C1_14 1_555 1_555
N2_14 C2_14 1_555 1_555
C1_14 C2_14 1_555 1_555
C2_14 H1_14 1_555 1_555
C3_14 N2_14 1_555 1_555
H2_14 C3_14 1_555 1_555
C4_14 N1_14 1_555 1_555
H3_14 C4_14 1_555 1_555
C5_14 P1_14 1_555 1_555
C6_14 C5_14 1_555 1_555
H4_14 C6_14 1_555 1_555
C7_14 C6_14 1_555 1_555
H5_14 C7_14 1_555 1_555
C8_14 C7_14 1_555 1_555
H6_14 C8_14 1_555 1_555
C9_14 C8_14 1_555 1_555
H7_14 C9_14 1_555 1_555
C10_14 C5_14 1_555 1_555
H8_14 C10_14 1_555 1_555
C11_14 P1_14 1_555 1_555
C12_14 C11_14 1_555 1_555
H9_14 C12_14 1_555 1_555
H12_14 C15_14 1_555 1_555
C16_14 C11_14 1_555 1_555
H13_14 C16_14 1_555 1_555
N3_14 Ag1_14 1_555 1_555
C17_14 N3_14 1_555 1_555
C18_14 C17_14 1_555 1_555
H14_14 C18_14 1_555 1_555
H15_14 C18_14 1_555 1_555
H16_14 C18_14 1_555 1_555
Ag2_14 Ag1_14 1_555 1_555
Ag3_14 N2_14 1_555 1_555
P2_14 Ag1_14 1_555 1_555
N4_14 Ag1_14 1_555 1_555
P1_14 Ag2_14 1_555 1_555
C3_14 C4_14 1_555 1_555
C9_14 C10_14 1_555 1_555
C15_14 C16_14 1_555 1_555
Ag1_15 N1_15 1_555 1_555
P1_15 C1_15 1_555 1_555
N1_15 C1_15 1_555 1_555
N2_15 C2_15 1_555 1_555
C1_15 C2_15 1_555 1_555
C2_15 H1_15 1_555 1_555
C3_15 N2_15 1_555 1_555
H2_15 C3_15 1_555 1_555
C4_15 N1_15 1_555 1_555
H3_15 C4_15 1_555 1_555
C5_15 P1_15 1_555 1_555
C6_15 C5_15 1_555 1_555
H4_15 C6_15 1_555 1_555
C7_15 C6_15 1_555 1_555
H5_15 C7_15 1_555 1_555
C8_15 C7_15 1_555 1_555
H6_15 C8_15 1_555 1_555
C9_15 C8_15 1_555 1_555
H7_15 C9_15 1_555 1_555
C10_15 C5_15 1_555 1_555
H8_15 C10_15 1_555 1_555
C11_15 P1_15 1_555 1_555
C12_15 C11_15 1_555 1_555
H9_15 C12_15 1_555 1_555
C13_11 C12_15 1_555 1_555
H10_11 C13_11 1_555 1_555
C14_11 C13_11 1_555 1_555
H11_11 C14_11 1_555 1_555
C15_15 C14_11 1_555 1_555
H12_15 C15_15 1_555 1_555
C16_15 C11_15 1_555 1_555
H13_15 C16_15 1_555 1_555
N3_15 Ag1_15 1_555 1_555
C17_15 N3_15 1_555 1_555
C18_15 C17_15 1_555 1_555
H14_15 C18_15 1_555 1_555
H15_15 C18_15 1_555 1_555
H16_15 C18_15 1_555 1_555
Ag2_15 Ag1_15 1_555 1_555
Ag3_15 N2_15 1_555 1_555
P2_15 Ag1_15 1_555 1_555
N4_15 Ag1_15 1_555 1_555
P1_15 Ag2_15 1_555 1_555
C3_15 C4_15 1_555 1_555
C9_15 C10_15 1_555 1_555
C15_15 C16_15 1_555 1_555
Ag1_16 N1_16 1_555 1_555
P1_16 C1_16 1_555 1_555
N1_16 C1_16 1_555 1_555
N2_16 C2_16 1_555 1_555
C1_16 C2_16 1_555 1_555
C2_16 H1_16 1_555 1_555
C3_16 N2_16 1_555 1_555
H2_16 C3_16 1_555 1_555
C4_16 N1_16 1_555 1_555
H3_16 C4_16 1_555 1_555
C11_16 P1_16 1_555 1_555
C12_16 C11_16 1_555 1_555
C13_12 C12_16 1_555 1_555
H10_12 C13_12 1_555 1_555
C14_12 C13_12 1_555 1_555
H11_12 C14_12 1_555 1_555
C15_16 C14_12 1_555 1_555
H12_16 C15_16 1_555 1_555
C16_16 C11_16 1_555 1_555
H13_16 C16_16 1_555 1_555
N3_16 Ag1_16 1_555 1_555
C17_16 N3_16 1_555 1_555
C18_16 C17_16 1_555 1_555
H14_16 C18_16 1_555 1_555
H15_16 C18_16 1_555 1_555
H16_16 C18_16 1_555 1_555
Ag3_16 N2_16 1_555 1_555
N4_16 Ag1_16 1_555 1_555
C3_16 C4_16 1_555 1_555
C15_16 C16_16 1_555 1_555
C6_16 C5_16 1_555 1_555
H4_16 C6_16 1_555 1_555
C7_16 C6_16 1_555 1_555
H5_16 C7_16 1_555 1_555
C8_16 C7_16 1_555 1_555
H6_16 C8_16 1_555 1_555
C9_16 C8_16 1_555 1_555
H7_16 C9_16 1_555 1_555
C10_16 C5_16 1_555 1_555
C9_16 C10_16 1_555 1_555
Ag1_17 N1_17 1_555 1_555
P1_17 C1_17 1_555 1_555
N1_17 C1_17 1_555 1_555
N2_17 C2_17 1_555 1_555
C1_17 C2_17 1_555 1_555
C2_17 H1_17 1_555 1_555
C3_17 N2_17 1_555 1_555
H2_17 C3_17 1_555 1_555
C4_17 N1_17 1_555 1_555
H3_17 C4_17 1_555 1_555
C11_17 P1_17 1_555 1_555
C12_17 C11_17 1_555 1_555
C13_13 C12_17 1_555 1_555
H10_13 C13_13 1_555 1_555
C14_13 C13_13 1_555 1_555
H11_13 C14_13 1_555 1_555
C15_17 C14_13 1_555 1_555
H12_17 C15_17 1_555 1_555
C16_17 C11_17 1_555 1_555
H13_17 C16_17 1_555 1_555
N3_17 Ag1_17 1_555 1_555
C17_17 N3_17 1_555 1_555
C18_17 C17_17 1_555 1_555
H14_17 C18_17 1_555 1_555
H15_17 C18_17 1_555 1_555
H16_17 C18_17 1_555 1_555
Ag3_17 N2_17 1_555 1_555
N4_17 Ag1_17 1_555 1_555
C3_17 C4_17 1_555 1_555
C15_17 C16_17 1_555 1_555
C6_17 C5_17 1_555 1_555
H4_17 C6_17 1_555 1_555
C7_17 C6_17 1_555 1_555
H5_17 C7_17 1_555 1_555
C8_17 C7_17 1_555 1_555
H6_17 C8_17 1_555 1_555
C9_17 C8_17 1_555 1_555
H7_17 C9_17 1_555 1_555
C10_17 C5_17 1_555 1_555
C9_17 C10_17 1_555 1_555
Ag1_18 N1_18 1_555 1_555
P1_18 C1_18 1_555 1_555
N1_18 C1_18 1_555 1_555
N2_18 C2_18 1_555 1_555
C1_18 C2_18 1_555 1_555
C2_18 H1_18 1_555 1_555
C3_18 N2_18 1_555 1_555
H2_18 C3_18 1_555 1_555
C4_18 N1_18 1_555 1_555
H3_18 C4_18 1_555 1_555
C5_18 P1_18 1_555 1_555
C6_18 C5_18 1_555 1_555
H4_18 C6_18 1_555 1_555
C7_18 C6_18 1_555 1_555
H5_18 C7_18 1_555 1_555
C8_18 C7_18 1_555 1_555
H6_18 C8_18 1_555 1_555
C9_18 C8_18 1_555 1_555
H7_18 C9_18 1_555 1_555
C10_18 C5_18 1_555 1_555
H8_18 C10_18 1_555 1_555
C11_18 P1_18 1_555 1_555
C12_18 C11_18 1_555 1_555
H9_18 C12_18 1_555 1_555
C13_14 C12_18 1_555 1_555
H10_14 C13_14 1_555 1_555
C14_14 C13_14 1_555 1_555
H11_14 C14_14 1_555 1_555
C15_18 C14_14 1_555 1_555
H12_18 C15_18 1_555 1_555
C16_18 C11_18 1_555 1_555
H13_18 C16_18 1_555 1_555
N3_18 Ag1_18 1_555 1_555
C17_18 N3_18 1_555 1_555
C18_18 C17_18 1_555 1_555
H14_18 C18_18 1_555 1_555
H15_18 C18_18 1_555 1_555
H16_18 C18_18 1_555 1_555
Ag2_18 Ag1_18 1_555 1_555
Ag3_18 N2_18 1_555 1_555
P2_18 Ag1_18 1_555 1_555
N4_18 Ag1_18 1_555 1_555
P1_18 Ag2_18 1_555 1_555
C3_18 C4_18 1_555 1_555
C9_18 C10_18 1_555 1_555
C15_18 C16_18 1_555 1_555
Ag1_19 N1_19 1_555 1_555
P1_19 C1_19 1_555 1_555
N1_19 C1_19 1_555 1_555
N2_19 C2_19 1_555 1_555
C1_19 C2_19 1_555 1_555
C2_19 H1_19 1_555 1_555
C3_19 N2_19 1_555 1_555
H2_19 C3_19 1_555 1_555
C4_19 N1_19 1_555 1_555
H3_19 C4_19 1_555 1_555
C5_19 P1_19 1_555 1_555
C6_19 C5_19 1_555 1_555
H4_19 C6_19 1_555 1_555
C7_19 C6_19 1_555 1_555
H5_19 C7_19 1_555 1_555
C8_19 C7_19 1_555 1_555
H6_19 C8_19 1_555 1_555
C9_19 C8_19 1_555 1_555
H7_19 C9_19 1_555 1_555
C10_19 C5_19 1_555 1_555
H8_19 C10_19 1_555 1_555
C11_19 P1_19 1_555 1_555
C12_19 C11_19 1_555 1_555
H9_19 C12_19 1_555 1_555
H12_19 C15_19 1_555 1_555
C16_19 C11_19 1_555 1_555
H13_19 C16_19 1_555 1_555
N3_19 Ag1_19 1_555 1_555
C17_19 N3_19 1_555 1_555
C18_19 C17_19 1_555 1_555
H14_19 C18_19 1_555 1_555
H15_19 C18_19 1_555 1_555
H16_19 C18_19 1_555 1_555
Ag2_19 Ag1_19 1_555 1_555
Ag3_19 N2_19 1_555 1_555
P2_19 Ag1_19 1_555 1_555
N4_19 Ag1_19 1_555 1_555
P1_19 Ag2_19 1_555 1_555
C3_19 C4_19 1_555 1_555
C9_19 C10_19 1_555 1_555
C15_19 C16_19 1_555 1_555
Ag1_20 N1_20 1_555 1_555
P1_20 C1_20 1_555 1_555
N1_20 C1_20 1_555 1_555
N2_20 C2_20 1_555 1_555
C1_20 C2_20 1_555 1_555
C2_20 H1_20 1_555 1_555
C3_20 N2_20 1_555 1_555
H2_20 C3_20 1_555 1_555
C4_20 N1_20 1_555 1_555
H3_20 C4_20 1_555 1_555
C5_20 P1_20 1_555 1_555
C6_20 C5_20 1_555 1_555
H4_20 C6_20 1_555 1_555
C7_20 C6_20 1_555 1_555
H5_20 C7_20 1_555 1_555
C8_20 C7_20 1_555 1_555
H6_20 C8_20 1_555 1_555
C9_20 C8_20 1_555 1_555
H7_20 C9_20 1_555 1_555
C10_20 C5_20 1_555 1_555
H8_20 C10_20 1_555 1_555
C11_20 P1_20 1_555 1_555
C12_20 C11_20 1_555 1_555
H9_20 C12_20 1_555 1_555
C13_15 C12_20 1_555 1_555
H10_15 C13_15 1_555 1_555
C14_15 C13_15 1_555 1_555
H11_15 C14_15 1_555 1_555
C15_20 C14_15 1_555 1_555
H12_20 C15_20 1_555 1_555
C16_20 C11_20 1_555 1_555
H13_20 C16_20 1_555 1_555
N3_20 Ag1_20 1_555 1_555
C17_20 N3_20 1_555 1_555
C18_20 C17_20 1_555 1_555
H14_20 C18_20 1_555 1_555
H15_20 C18_20 1_555 1_555
H16_20 C18_20 1_555 1_555
Ag2_20 Ag1_20 1_555 1_555
Ag3_20 N2_20 1_555 1_555
P2_20 Ag1_20 1_555 1_555
N4_20 Ag1_20 1_555 1_555
P1_20 Ag2_20 1_555 1_555
C3_20 C4_20 1_555 1_555
C9_20 C10_20 1_555 1_555
C15_20 C16_20 1_555 1_555
Ag1_21 N1_21 1_555 1_555
P1_21 C1_21 1_555 1_555
N1_21 C1_21 1_555 1_555
N2_21 C2_21 1_555 1_555
C1_21 C2_21 1_555 1_555
C2_21 H1_21 1_555 1_555
C3_21 N2_21 1_555 1_555
H2_21 C3_21 1_555 1_555
C4_21 N1_21 1_555 1_555
H3_21 C4_21 1_555 1_555
C5_21 P1_21 1_555 1_555
C6_21 C5_21 1_555 1_555
H4_21 C6_21 1_555 1_555
C7_21 C6_21 1_555 1_555
H5_21 C7_21 1_555 1_555
C8_21 C7_21 1_555 1_555
H6_21 C8_21 1_555 1_555
C9_21 C8_21 1_555 1_555
H7_21 C9_21 1_555 1_555
C10_21 C5_21 1_555 1_555
H8_21 C10_21 1_555 1_555
C11_21 P1_21 1_555 1_555
C12_21 C11_21 1_555 1_555
H9_21 C12_21 1_555 1_555
C13_16 C12_21 1_555 1_555
H10_16 C13_16 1_555 1_555
C14_16 C13_16 1_555 1_555
H11_16 C14_16 1_555 1_555
C15_21 C14_16 1_555 1_555
H12_21 C15_21 1_555 1_555
C16_21 C11_21 1_555 1_555
H13_21 C16_21 1_555 1_555
N3_21 Ag1_21 1_555 1_555
C17_21 N3_21 1_555 1_555
C18_21 C17_21 1_555 1_555
H14_21 C18_21 1_555 1_555
H15_21 C18_21 1_555 1_555
H16_21 C18_21 1_555 1_555
Ag2_21 Ag1_21 1_555 1_555
Ag3_21 N2_21 1_555 1_555
P2_21 Ag1_21 1_555 1_555
N4_21 Ag1_21 1_555 1_555
P1_21 Ag2_21 1_555 1_555
C3_21 C4_21 1_555 1_555
C9_21 C10_21 1_555 1_555
C15_21 C16_21 1_555 1_555
Ag1_22 N1_22 1_555 1_555
P1_22 C1_22 1_555 1_555
N1_22 C1_22 1_555 1_555
N2_22 C2_22 1_555 1_555
C1_22 C2_22 1_555 1_555
C2_22 H1_22 1_555 1_555
C3_22 N2_22 1_555 1_555
H2_22 C3_22 1_555 1_555
C4_22 N1_22 1_555 1_555
H3_22 C4_22 1_555 1_555
C11_22 P1_22 1_555 1_555
C12_22 C11_22 1_555 1_555
C13_17 C12_22 1_555 1_555
H10_17 C13_17 1_555 1_555
C14_17 C13_17 1_555 1_555
H11_17 C14_17 1_555 1_555
C15_22 C14_17 1_555 1_555
H12_22 C15_22 1_555 1_555
C16_22 C11_22 1_555 1_555
H13_22 C16_22 1_555 1_555
N3_22 Ag1_22 1_555 1_555
C17_22 N3_22 1_555 1_555
C18_22 C17_22 1_555 1_555
H14_22 C18_22 1_555 1_555
H15_22 C18_22 1_555 1_555
H16_22 C18_22 1_555 1_555
Ag3_22 N2_22 1_555 1_555
N4_22 Ag1_22 1_555 1_555
C3_22 C4_22 1_555 1_555
C15_22 C16_22 1_555 1_555
C6_22 C5_22 1_555 1_555
H4_22 C6_22 1_555 1_555
C7_22 C6_22 1_555 1_555
H5_22 C7_22 1_555 1_555
C8_22 C7_22 1_555 1_555
H6_22 C8_22 1_555 1_555
C9_22 C8_22 1_555 1_555
H7_22 C9_22 1_555 1_555
C10_22 C5_22 1_555 1_555
C9_22 C10_22 1_555 1_555
Ag1_23 N1_23 1_555 1_555
P1_23 C1_23 1_555 1_555
N1_23 C1_23 1_555 1_555
N2_23 C2_23 1_555 1_555
C1_23 C2_23 1_555 1_555
C2_23 H1_23 1_555 1_555
C3_23 N2_23 1_555 1_555
H2_23 C3_23 1_555 1_555
C4_23 N1_23 1_555 1_555
H3_23 C4_23 1_555 1_555
C5_23 P1_23 1_555 1_555
C6_23 C5_23 1_555 1_555
H4_23 C6_23 1_555 1_555
C7_23 C6_23 1_555 1_555
H5_23 C7_23 1_555 1_555
C8_23 C7_23 1_555 1_555
H6_23 C8_23 1_555 1_555
C9_23 C8_23 1_555 1_555
H7_23 C9_23 1_555 1_555
C10_23 C5_23 1_555 1_555
H8_23 C10_23 1_555 1_555
C11_23 P1_23 1_555 1_555
C12_23 C11_23 1_555 1_555
H9_23 C12_23 1_555 1_555
C13_18 C12_23 1_555 1_555
H10_18 C13_18 1_555 1_555
C14_18 C13_18 1_555 1_555
H11_18 C14_18 1_555 1_555
C15_23 C14_18 1_555 1_555
H12_23 C15_23 1_555 1_555
C16_23 C11_23 1_555 1_555
H13_23 C16_23 1_555 1_555
N3_23 Ag1_23 1_555 1_555
C17_23 N3_23 1_555 1_555
C18_23 C17_23 1_555 1_555
H14_23 C18_23 1_555 1_555
H15_23 C18_23 1_555 1_555
H16_23 C18_23 1_555 1_555
Ag2_23 Ag1_23 1_555 1_555
Ag3_23 N2_23 1_555 1_555
P2_23 Ag1_23 1_555 1_555
N4_23 Ag1_23 1_555 1_555
P1_23 Ag2_23 1_555 1_555
C3_23 C4_23 1_555 1_555
C9_23 C10_23 1_555 1_555
C15_23 C16_23 1_555 1_555
Ag1_24 N1_24 1_555 1_555
P1_24 C1_24 1_555 1_555
N1_24 C1_24 1_555 1_555
N2_24 C2_24 1_555 1_555
C1_24 C2_24 1_555 1_555
C2_24 H1_24 1_555 1_555
C3_24 N2_24 1_555 1_555
H2_24 C3_24 1_555 1_555
C4_24 N1_24 1_555 1_555
H3_24 C4_24 1_555 1_555
C5_24 P1_24 1_555 1_555
C6_24 C5_24 1_555 1_555
H4_24 C6_24 1_555 1_555
C7_24 C6_24 1_555 1_555
H5_24 C7_24 1_555 1_555
C8_24 C7_24 1_555 1_555
H6_24 C8_24 1_555 1_555
C9_24 C8_24 1_555 1_555
H7_24 C9_24 1_555 1_555
C10_24 C5_24 1_555 1_555
H8_24 C10_24 1_555 1_555
C11_24 P1_24 1_555 1_555
C12_24 C11_24 1_555 1_555
H9_24 C12_24 1_555 1_555
H12_24 C15_24 1_555 1_555
C16_24 C11_24 1_555 1_555
H13_24 C16_24 1_555 1_555
N3_24 Ag1_24 1_555 1_555
C17_24 N3_24 1_555 1_555
C18_24 C17_24 1_555 1_555
H14_24 C18_24 1_555 1_555
H15_24 C18_24 1_555 1_555
H16_24 C18_24 1_555 1_555
Ag2_24 Ag1_24 1_555 1_555
Ag3_24 N2_24 1_555 1_555
P2_24 Ag1_24 1_555 1_555
N4_24 Ag1_24 1_555 1_555
P1_24 Ag2_24 1_555 1_555
C3_24 C4_24 1_555 1_555
C9_24 C10_24 1_555 1_555
C15_24 C16_24 1_555 1_555
Ag2_19 N1_25 1_555 1_555
P2_19 C1_25 1_555 1_555
N1_25 C1_25 1_555 1_555
N2_25 C2_25 1_555 1_555
C1_25 C2_25 1_555 1_555
C2_25 H1_25 1_555 1_555
C3_25 N2_25 1_555 1_555
H2_25 C3_25 1_555 1_555
C4_25 N1_25 1_555 1_555
H3_25 C4_25 1_555 1_555
C5_25 P2_19 1_555 1_555
C6_25 C5_25 1_555 1_555
H4_25 C6_25 1_555 1_555
C7_25 C6_25 1_555 1_555
H5_25 C7_25 1_555 1_555
C8_25 C7_25 1_555 1_555
H6_25 C8_25 1_555 1_555
C9_25 C8_25 1_555 1_555
H7_25 C9_25 1_555 1_555
C10_25 C5_25 1_555 1_555
H8_25 C10_25 1_555 1_555
C11_25 P2_19 1_555 1_555
C12_25 C11_25 1_555 1_555
H9_25 C12_25 1_555 1_555
H12_25 C15_25 1_555 1_555
C16_25 C11_25 1_555 1_555
H13_25 C16_25 1_555 1_555
N3_25 Ag2_19 1_555 1_555
C17_25 N3_25 1_555 1_555
C18_25 C17_25 1_555 1_555
H14_25 C18_25 1_555 1_555
H15_25 C18_25 1_555 1_555
H16_25 C18_25 1_555 1_555
Ag3_25 N2_25 1_555 1_555
N4_25 Ag2_19 1_555 1_555
C3_25 C4_25 1_555 1_555
C9_25 C10_25 1_555 1_555
C15_25 C16_25 1_555 1_555
C6_26 C5_26 1_555 1_555
H4_26 C6_26 1_555 1_555
C7_26 C6_26 1_555 1_555
H5_26 C7_26 1_555 1_555
C8_26 C7_26 1_555 1_555
H6_26 C8_26 1_555 1_555
C9_26 C8_26 1_555 1_555
H7_26 C9_26 1_555 1_555
C10_26 C5_26 1_555 1_555
C9_26 C10_26 1_555 1_555
Ag2_17 N1_26 1_555 1_555
P2_17 C1_26 1_555 1_555
N1_26 C1_26 1_555 1_555
N2_26 C2_26 1_555 1_555
C1_26 C2_26 1_555 1_555
C2_26 H1_26 1_555 1_555
C3_26 N2_26 1_555 1_555
H2_26 C3_26 1_555 1_555
C4_26 N1_26 1_555 1_555
H3_26 C4_26 1_555 1_555
C11_26 P2_17 1_555 1_555
C12_26 C11_26 1_555 1_555
C13_19 C12_26 1_555 1_555
H10_19 C13_19 1_555 1_555
C14_19 C13_19 1_555 1_555
H11_19 C14_19 1_555 1_555
C15_26 C14_19 1_555 1_555
H12_26 C15_26 1_555 1_555
C16_26 C11_26 1_555 1_555
H13_26 C16_26 1_555 1_555
N3_26 Ag2_17 1_555 1_555
C17_26 N3_26 1_555 1_555
C18_26 C17_26 1_555 1_555
H14_26 C18_26 1_555 1_555
H15_26 C18_26 1_555 1_555
H16_26 C18_26 1_555 1_555
Ag3_26 N2_26 1_555 1_555
N4_26 Ag2_17 1_555 1_555
C3_26 C4_26 1_555 1_555
C15_26 C16_26 1_555 1_555
Ag2_20 N1_27 1_555 1_555
P2_20 C1_27 1_555 1_555
N1_27 C1_27 1_555 1_555
N2_27 C2_27 1_555 1_555
C1_27 C2_27 1_555 1_555
C2_27 H1_27 1_555 1_555
C3_27 N2_27 1_555 1_555
H2_27 C3_27 1_555 1_555
C4_27 N1_27 1_555 1_555
H3_27 C4_27 1_555 1_555
C5_27 P2_20 1_555 1_555
C6_27 C5_27 1_555 1_555
H4_27 C6_27 1_555 1_555
C7_27 C6_27 1_555 1_555
H5_27 C7_27 1_555 1_555
C8_27 C7_27 1_555 1_555
H6_27 C8_27 1_555 1_555
C9_27 C8_27 1_555 1_555
H7_27 C9_27 1_555 1_555
C10_27 C5_27 1_555 1_555
H8_27 C10_27 1_555 1_555
C11_27 P2_20 1_555 1_555
C12_27 C11_27 1_555 1_555
H9_27 C12_27 1_555 1_555
C13_20 C12_27 1_555 1_555
H10_20 C13_20 1_555 1_555
C14_20 C13_20 1_555 1_555
H11_20 C14_20 1_555 1_555
C15_27 C14_20 1_555 1_555
H12_27 C15_27 1_555 1_555
C16_27 C11_27 1_555 1_555
H13_27 C16_27 1_555 1_555
N3_27 Ag2_20 1_555 1_555
C17_27 N3_27 1_555 1_555
C18_27 C17_27 1_555 1_555
H14_27 C18_27 1_555 1_555
H15_27 C18_27 1_555 1_555
H16_27 C18_27 1_555 1_555
Ag3_27 N2_27 1_555 1_555
N4_27 Ag2_20 1_555 1_555
C3_27 C4_27 1_555 1_555
C9_27 C10_27 1_555 1_555
C15_27 C16_27 1_555 1_555
Ag2_18 N1_28 1_555 1_555
P2_18 C1_28 1_555 1_555
N1_28 C1_28 1_555 1_555
N2_28 C2_28 1_555 1_555
C1_28 C2_28 1_555 1_555
C2_28 H1_28 1_555 1_555
C3_28 N2_28 1_555 1_555
H2_28 C3_28 1_555 1_555
C4_28 N1_28 1_555 1_555
H3_28 C4_28 1_555 1_555
C5_28 P2_18 1_555 1_555
C6_28 C5_28 1_555 1_555
H4_28 C6_28 1_555 1_555
C7_28 C6_28 1_555 1_555
H5_28 C7_28 1_555 1_555
C8_28 C7_28 1_555 1_555
H6_28 C8_28 1_555 1_555
C9_28 C8_28 1_555 1_555
H7_28 C9_28 1_555 1_555
C10_28 C5_28 1_555 1_555
H8_28 C10_28 1_555 1_555
C11_28 P2_18 1_555 1_555
C12_28 C11_28 1_555 1_555
H9_28 C12_28 1_555 1_555
C13_21 C12_28 1_555 1_555
H10_21 C13_21 1_555 1_555
C14_21 C13_21 1_555 1_555
H11_21 C14_21 1_555 1_555
C15_28 C14_21 1_555 1_555
H12_28 C15_28 1_555 1_555
C16_28 C11_28 1_555 1_555
H13_28 C16_28 1_555 1_555
N3_28 Ag2_18 1_555 1_555
C17_28 N3_28 1_555 1_555
C18_28 C17_28 1_555 1_555
H14_28 C18_28 1_555 1_555
H15_28 C18_28 1_555 1_555
H16_28 C18_28 1_555 1_555
Ag3_28 N2_28 1_555 1_555
N4_28 Ag2_18 1_555 1_555
C3_28 C4_28 1_555 1_555
C9_28 C10_28 1_555 1_555
C15_28 C16_28 1_555 1_555
Ag1_25 N1_29 1_555 1_555
P1_25 C1_29 1_555 1_555
N1_29 C1_29 1_555 1_555
N2_29 C2_29 1_555 1_555
C1_29 C2_29 1_555 1_555
C2_29 H1_29 1_555 1_555
C3_29 N2_29 1_555 1_555
H2_29 C3_29 1_555 1_555
C4_29 N1_29 1_555 1_555
H3_29 C4_29 1_555 1_555
C5_29 P1_25 1_555 1_555
C6_29 C5_29 1_555 1_555
H4_29 C6_29 1_555 1_555
C7_29 C6_29 1_555 1_555
H5_29 C7_29 1_555 1_555
C8_29 C7_29 1_555 1_555
H6_29 C8_29 1_555 1_555
C9_29 C8_29 1_555 1_555
H7_29 C9_29 1_555 1_555
C10_29 C5_29 1_555 1_555
H8_29 C10_29 1_555 1_555
C11_29 P1_25 1_555 1_555
C12_29 C11_29 1_555 1_555
H9_29 C12_29 1_555 1_555
C13_22 C12_29 1_555 1_555
H10_22 C13_22 1_555 1_555
C14_22 C13_22 1_555 1_555
H11_22 C14_22 1_555 1_555
C15_29 C14_22 1_555 1_555
H12_29 C15_29 1_555 1_555
C16_29 C11_29 1_555 1_555
H13_29 C16_29 1_555 1_555
N3_29 Ag1_25 1_555 1_555
C17_29 N3_29 1_555 1_555
C18_29 C17_29 1_555 1_555
H14_29 C18_29 1_555 1_555
H15_29 C18_29 1_555 1_555
H16_29 C18_29 1_555 1_555
Ag2_25 Ag1_25 1_555 1_555
Ag3_29 N2_29 1_555 1_555
P2_25 Ag1_25 1_555 1_555
N4_29 Ag1_25 1_555 1_555
P1_25 Ag2_25 1_555 1_555
C3_29 C4_29 1_555 1_555
C9_29 C10_29 1_555 1_555
C15_29 C16_29 1_555 1_555
Ag1_26 N1_30 1_555 1_555
P1_26 C1_30 1_555 1_555
N1_30 C1_30 1_555 1_555
N2_30 C2_30 1_555 1_555
C1_30 C2_30 1_555 1_555
C2_30 H1_30 1_555 1_555
C3_30 N2_30 1_555 1_555
H2_30 C3_30 1_555 1_555
C4_30 N1_30 1_555 1_555
H3_30 C4_30 1_555 1_555
C5_30 P1_26 1_555 1_555
C6_30 C5_30 1_555 1_555
H4_30 C6_30 1_555 1_555
C7_30 C6_30 1_555 1_555
H5_30 C7_30 1_555 1_555
C8_30 C7_30 1_555 1_555
H6_30 C8_30 1_555 1_555
C9_30 C8_30 1_555 1_555
H7_30 C9_30 1_555 1_555
C10_30 C5_30 1_555 1_555
H8_30 C10_30 1_555 1_555
C11_30 P1_26 1_555 1_555
C12_30 C11_30 1_555 1_555
H9_30 C12_30 1_555 1_555
H12_30 C15_30 1_555 1_555
C16_30 C11_30 1_555 1_555
H13_30 C16_30 1_555 1_555
N3_30 Ag1_26 1_555 1_555
C17_30 N3_30 1_555 1_555
C18_30 C17_30 1_555 1_555
H14_30 C18_30 1_555 1_555
H15_30 C18_30 1_555 1_555
H16_30 C18_30 1_555 1_555
Ag2_26 Ag1_26 1_555 1_555
Ag3_30 N2_30 1_555 1_555
P2_26 Ag1_26 1_555 1_555
N4_30 Ag1_26 1_555 1_555
P1_26 Ag2_26 1_555 1_555
C3_30 C4_30 1_555 1_555
C9_30 C10_30 1_555 1_555
C15_30 C16_30 1_555 1_555
C6_31 C5_31 1_555 1_555
H4_31 C6_31 1_555 1_555
C7_31 C6_31 1_555 1_555
H5_31 C7_31 1_555 1_555
C8_31 C7_31 1_555 1_555
H6_31 C8_31 1_555 1_555
C9_31 C8_31 1_555 1_555
H7_31 C9_31 1_555 1_555
C10_31 C5_31 1_555 1_555
C9_31 C10_31 1_555 1_555
Ag1_27 N1_31 1_555 1_555
P1_27 C1_31 1_555 1_555
N1_31 C1_31 1_555 1_555
N2_31 C2_31 1_555 1_555
C1_31 C2_31 1_555 1_555
C2_31 H1_31 1_555 1_555
C3_31 N2_31 1_555 1_555
H2_31 C3_31 1_555 1_555
C4_31 N1_31 1_555 1_555
H3_31 C4_31 1_555 1_555
C11_31 P1_27 1_555 1_555
C12_31 C11_31 1_555 1_555
C13_23 C12_31 1_555 1_555
H10_23 C13_23 1_555 1_555
C14_23 C13_23 1_555 1_555
H11_23 C14_23 1_555 1_555
C15_31 C14_23 1_555 1_555
H12_31 C15_31 1_555 1_555
C16_31 C11_31 1_555 1_555
H13_31 C16_31 1_555 1_555
N3_31 Ag1_27 1_555 1_555
C17_31 N3_31 1_555 1_555
C18_31 C17_31 1_555 1_555
H14_31 C18_31 1_555 1_555
H15_31 C18_31 1_555 1_555
H16_31 C18_31 1_555 1_555
Ag3_31 N2_31 1_555 1_555
N4_31 Ag1_27 1_555 1_555
C3_31 C4_31 1_555 1_555
C15_31 C16_31 1_555 1_555
Ag1_28 N1_32 1_555 1_555
P1_28 C1_32 1_555 1_555
N1_32 C1_32 1_555 1_555
N2_32 C2_32 1_555 1_555
C1_32 C2_32 1_555 1_555
C2_32 H1_32 1_555 1_555
C3_32 N2_32 1_555 1_555
H2_32 C3_32 1_555 1_555
C4_32 N1_32 1_555 1_555
H3_32 C4_32 1_555 1_555
C5_32 P1_28 1_555 1_555
C6_32 C5_32 1_555 1_555
H4_32 C6_32 1_555 1_555
C7_32 C6_32 1_555 1_555
H5_32 C7_32 1_555 1_555
C8_32 C7_32 1_555 1_555
H6_32 C8_32 1_555 1_555
C9_32 C8_32 1_555 1_555
H7_32 C9_32 1_555 1_555
C10_32 C5_32 1_555 1_555
H8_32 C10_32 1_555 1_555
C11_32 P1_28 1_555 1_555
C12_32 C11_32 1_555 1_555
H9_32 C12_32 1_555 1_555
C13_24 C12_32 1_555 1_555
H10_24 C13_24 1_555 1_555
C14_24 C13_24 1_555 1_555
H11_24 C14_24 1_555 1_555
C15_32 C14_24 1_555 1_555
H12_32 C15_32 1_555 1_555
C16_32 C11_32 1_555 1_555
H13_32 C16_32 1_555 1_555
N3_32 Ag1_28 1_555 1_555
C17_32 N3_32 1_555 1_555
C18_32 C17_32 1_555 1_555
H14_32 C18_32 1_555 1_555
H15_32 C18_32 1_555 1_555
H16_32 C18_32 1_555 1_555
Ag2_28 Ag1_28 1_555 1_555
Ag3_32 N2_32 1_555 1_555
P2_28 Ag1_28 1_555 1_555
N4_32 Ag1_28 1_555 1_555
P1_28 Ag2_28 1_555 1_555
C3_32 C4_32 1_555 1_555
C9_32 C10_32 1_555 1_555
C15_32 C16_32 1_555 1_555
Ag1_29 N1_33 1_555 1_555
P1_29 C1_33 1_555 1_555
N1_33 C1_33 1_555 1_555
N2_33 C2_33 1_555 1_555
C1_33 C2_33 1_555 1_555
C2_33 H1_33 1_555 1_555
C3_33 N2_33 1_555 1_555
H2_33 C3_33 1_555 1_555
C4_33 N1_33 1_555 1_555
H3_33 C4_33 1_555 1_555
C5_33 P1_29 1_555 1_555
C6_33 C5_33 1_555 1_555
H4_33 C6_33 1_555 1_555
C7_33 C6_33 1_555 1_555
H5_33 C7_33 1_555 1_555
C8_33 C7_33 1_555 1_555
H6_33 C8_33 1_555 1_555
C9_33 C8_33 1_555 1_555
H7_33 C9_33 1_555 1_555
C10_33 C5_33 1_555 1_555
H8_33 C10_33 1_555 1_555
C11_33 P1_29 1_555 1_555
C12_33 C11_33 1_555 1_555
H9_33 C12_33 1_555 1_555
H12_33 C15_33 1_555 1_555
C16_33 C11_33 1_555 1_555
H13_33 C16_33 1_555 1_555
N3_33 Ag1_29 1_555 1_555
C17_33 N3_33 1_555 1_555
C18_33 C17_33 1_555 1_555
H14_33 C18_33 1_555 1_555
H15_33 C18_33 1_555 1_555
H16_33 C18_33 1_555 1_555
Ag2_29 Ag1_29 1_555 1_555
Ag3_33 N2_33 1_555 1_555
P2_29 Ag1_29 1_555 1_555
N4_33 Ag1_29 1_555 1_555
P1_29 Ag2_29 1_555 1_555
C3_33 C4_33 1_555 1_555
C9_33 C10_33 1_555 1_555
C15_33 C16_33 1_555 1_555
Ag1_30 N1_34 1_555 1_555
P1_30 C1_34 1_555 1_555
N1_34 C1_34 1_555 1_555
N2_34 C2_34 1_555 1_555
C1_34 C2_34 1_555 1_555
C2_34 H1_34 1_555 1_555
C3_34 N2_34 1_555 1_555
H2_34 C3_34 1_555 1_555
C4_34 N1_34 1_555 1_555
H3_34 C4_34 1_555 1_555
C5_34 P1_30 1_555 1_555
C6_34 C5_34 1_555 1_555
H4_34 C6_34 1_555 1_555
C7_34 C6_34 1_555 1_555
H5_34 C7_34 1_555 1_555
C8_34 C7_34 1_555 1_555
H6_34 C8_34 1_555 1_555
C9_34 C8_34 1_555 1_555
H7_34 C9_34 1_555 1_555
C10_34 C5_34 1_555 1_555
H8_34 C10_34 1_555 1_555
C11_34 P1_30 1_555 1_555
C12_34 C11_34 1_555 1_555
H9_34 C12_34 1_555 1_555
C13_25 C12_34 1_555 1_555
H10_25 C13_25 1_555 1_555
C14_25 C13_25 1_555 1_555
H11_25 C14_25 1_555 1_555
C15_34 C14_25 1_555 1_555
H12_34 C15_34 1_555 1_555
C16_34 C11_34 1_555 1_555
H13_34 C16_34 1_555 1_555
N3_34 Ag1_30 1_555 1_555
C17_34 N3_34 1_555 1_555
C18_34 C17_34 1_555 1_555
H14_34 C18_34 1_555 1_555
H15_34 C18_34 1_555 1_555
H16_34 C18_34 1_555 1_555
Ag2_30 Ag1_30 1_555 1_555
Ag3_34 N2_34 1_555 1_555
P2_30 Ag1_30 1_555 1_555
N4_34 Ag1_30 1_555 1_555
P1_30 Ag2_30 1_555 1_555
C3_34 C4_34 1_555 1_555
C9_34 C10_34 1_555 1_555
C15_34 C16_34 1_555 1_555
C6_35 C5_35 1_555 1_555
H4_35 C6_35 1_555 1_555
C7_35 C6_35 1_555 1_555
H5_35 C7_35 1_555 1_555
C8_35 C7_35 1_555 1_555
H6_35 C8_35 1_555 1_555
C9_35 C8_35 1_555 1_555
H7_35 C9_35 1_555 1_555
C10_35 C5_35 1_555 1_555
C9_35 C10_35 1_555 1_555
Ag1_31 N1_35 1_555 1_555
P1_31 C1_35 1_555 1_555
N1_35 C1_35 1_555 1_555
N2_35 C2_35 1_555 1_555
C1_35 C2_35 1_555 1_555
C2_35 H1_35 1_555 1_555
C3_35 N2_35 1_555 1_555
H2_35 C3_35 1_555 1_555
C4_35 N1_35 1_555 1_555
H3_35 C4_35 1_555 1_555
C11_35 P1_31 1_555 1_555
C12_35 C11_35 1_555 1_555
C13_26 C12_35 1_555 1_555
H10_26 C13_26 1_555 1_555
C14_26 C13_26 1_555 1_555
H11_26 C14_26 1_555 1_555
C15_35 C14_26 1_555 1_555
H12_35 C15_35 1_555 1_555
C16_35 C11_35 1_555 1_555
H13_35 C16_35 1_555 1_555
N3_35 Ag1_31 1_555 1_555
C17_35 N3_35 1_555 1_555
C18_35 C17_35 1_555 1_555
H14_35 C18_35 1_555 1_555
H15_35 C18_35 1_555 1_555
H16_35 C18_35 1_555 1_555
Ag3_35 N2_35 1_555 1_555
N4_35 Ag1_31 1_555 1_555
C3_35 C4_35 1_555 1_555
C15_35 C16_35 1_555 1_555
Ag1_32 N1_36 1_555 1_555
P1_32 C1_36 1_555 1_555
N1_36 C1_36 1_555 1_555
N2_36 C2_36 1_555 1_555
C1_36 C2_36 1_555 1_555
C2_36 H1_36 1_555 1_555
C3_36 N2_36 1_555 1_555
H2_36 C3_36 1_555 1_555
C4_36 N1_36 1_555 1_555
H3_36 C4_36 1_555 1_555
C5_36 P1_32 1_555 1_555
C6_36 C5_36 1_555 1_555
H4_36 C6_36 1_555 1_555
C7_36 C6_36 1_555 1_555
H5_36 C7_36 1_555 1_555
C8_36 C7_36 1_555 1_555
H6_36 C8_36 1_555 1_555
C9_36 C8_36 1_555 1_555
H7_36 C9_36 1_555 1_555
C10_36 C5_36 1_555 1_555
H8_36 C10_36 1_555 1_555
C11_36 P1_32 1_555 1_555
C12_36 C11_36 1_555 1_555
H9_36 C12_36 1_555 1_555
C13_27 C12_36 1_555 1_555
H10_27 C13_27 1_555 1_555
C14_27 C13_27 1_555 1_555
H11_27 C14_27 1_555 1_555
C15_36 C14_27 1_555 1_555
H12_36 C15_36 1_555 1_555
C16_36 C11_36 1_555 1_555
H13_36 C16_36 1_555 1_555
N3_36 Ag1_32 1_555 1_555
C17_36 N3_36 1_555 1_555
C18_36 C17_36 1_555 1_555
H14_36 C18_36 1_555 1_555
H15_36 C18_36 1_555 1_555
H16_36 C18_36 1_555 1_555
Ag2_32 Ag1_32 1_555 1_555
Ag3_36 N2_36 1_555 1_555
P2_32 Ag1_32 1_555 1_555
N4_36 Ag1_32 1_555 1_555
P1_32 Ag2_32 1_555 1_555
C3_36 C4_36 1_555 1_555
C9_36 C10_36 1_555 1_555
C15_36 C16_36 1_555 1_555
Ag1_33 N1_37 1_555 1_555
P1_33 C1_37 1_555 1_555
N1_37 C1_37 1_555 1_555
N2_37 C2_37 1_555 1_555
C1_37 C2_37 1_555 1_555
C2_37 H1_37 1_555 1_555
C3_37 N2_37 1_555 1_555
H2_37 C3_37 1_555 1_555
C4_37 N1_37 1_555 1_555
H3_37 C4_37 1_555 1_555
C11_37 P1_33 1_555 1_555
C12_37 C11_37 1_555 1_555
H12_37 C15_37 1_555 1_555
C16_37 C11_37 1_555 1_555
H13_37 C16_37 1_555 1_555
N3_37 Ag1_33 1_555 1_555
C17_37 N3_37 1_555 1_555
C18_37 C17_37 1_555 1_555
H14_37 C18_37 1_555 1_555
H15_37 C18_37 1_555 1_555
H16_37 C18_37 1_555 1_555
Ag3_37 N2_37 1_555 1_555
N4_37 Ag1_33 1_555 1_555
C3_37 C4_37 1_555 1_555
C15_37 C16_37 1_555 1_555
C6_37 C5_37 1_555 1_555
H4_37 C6_37 1_555 1_555
C7_37 C6_37 1_555 1_555
H5_37 C7_37 1_555 1_555
C8_37 C7_37 1_555 1_555
H6_37 C8_37 1_555 1_555
C9_37 C8_37 1_555 1_555
H7_37 C9_37 1_555 1_555
C10_37 C5_37 1_555 1_555
C9_37 C10_37 1_555 1_555
Ag1_34 N1_38 1_555 1_555
P1_34 C1_38 1_555 1_555
N1_38 C1_38 1_555 1_555
N2_38 C2_38 1_555 1_555
C1_38 C2_38 1_555 1_555
C2_38 H1_38 1_555 1_555
C3_38 N2_38 1_555 1_555
H2_38 C3_38 1_555 1_555
C4_38 N1_38 1_555 1_555
H3_38 C4_38 1_555 1_555
C5_38 P1_34 1_555 1_555
C6_38 C5_38 1_555 1_555
H4_38 C6_38 1_555 1_555
C7_38 C6_38 1_555 1_555
H5_38 C7_38 1_555 1_555
C8_38 C7_38 1_555 1_555
H6_38 C8_38 1_555 1_555
C9_38 C8_38 1_555 1_555
H7_38 C9_38 1_555 1_555
C10_38 C5_38 1_555 1_555
H8_38 C10_38 1_555 1_555
C11_38 P1_34 1_555 1_555
C12_38 C11_38 1_555 1_555
H9_38 C12_38 1_555 1_555
C13_28 C12_38 1_555 1_555
H10_28 C13_28 1_555 1_555
C14_28 C13_28 1_555 1_555
H11_28 C14_28 1_555 1_555
C15_38 C14_28 1_555 1_555
H12_38 C15_38 1_555 1_555
C16_38 C11_38 1_555 1_555
H13_38 C16_38 1_555 1_555
N3_38 Ag1_34 1_555 1_555
C17_38 N3_38 1_555 1_555
C18_38 C17_38 1_555 1_555
H14_38 C18_38 1_555 1_555
H15_38 C18_38 1_555 1_555
H16_38 C18_38 1_555 1_555
Ag2_34 Ag1_34 1_555 1_555
Ag3_38 N2_38 1_555 1_555
P2_34 Ag1_34 1_555 1_555
N4_38 Ag1_34 1_555 1_555
P1_34 Ag2_34 1_555 1_555
C3_38 C4_38 1_555 1_555
C9_38 C10_38 1_555 1_555
C15_38 C16_38 1_555 1_555
Ag1_35 N1_39 1_555 1_555
P1_35 C1_39 1_555 1_555
N1_39 C1_39 1_555 1_555
N2_39 C2_39 1_555 1_555
C1_39 C2_39 1_555 1_555
C2_39 H1_39 1_555 1_555
C3_39 N2_39 1_555 1_555
H2_39 C3_39 1_555 1_555
C4_39 N1_39 1_555 1_555
H3_39 C4_39 1_555 1_555
C5_39 P1_35 1_555 1_555
C6_39 C5_39 1_555 1_555
H4_39 C6_39 1_555 1_555
C7_39 C6_39 1_555 1_555
H5_39 C7_39 1_555 1_555
C8_39 C7_39 1_555 1_555
H6_39 C8_39 1_555 1_555
C9_39 C8_39 1_555 1_555
H7_39 C9_39 1_555 1_555
C10_39 C5_39 1_555 1_555
H8_39 C10_39 1_555 1_555
C11_39 P1_35 1_555 1_555
C12_39 C11_39 1_555 1_555
H9_39 C12_39 1_555 1_555
C13_29 C12_39 1_555 1_555
H10_29 C13_29 1_555 1_555
C14_29 C13_29 1_555 1_555
H11_29 C14_29 1_555 1_555
C15_39 C14_29 1_555 1_555
H12_39 C15_39 1_555 1_555
C16_39 C11_39 1_555 1_555
H13_39 C16_39 1_555 1_555
N3_39 Ag1_35 1_555 1_555
C17_39 N3_39 1_555 1_555
C18_39 C17_39 1_555 1_555
H14_39 C18_39 1_555 1_555
H15_39 C18_39 1_555 1_555
H16_39 C18_39 1_555 1_555
Ag2_35 Ag1_35 1_555 1_555
Ag3_39 N2_39 1_555 1_555
P2_35 Ag1_35 1_555 1_555
N4_39 Ag1_35 1_555 1_555
P1_35 Ag2_35 1_555 1_555
C3_39 C4_39 1_555 1_555
C9_39 C10_39 1_555 1_555
C15_39 C16_39 1_555 1_555
Ag1_36 N1_40 1_555 1_555
P1_36 C1_40 1_555 1_555
N1_40 C1_40 1_555 1_555
N2_40 C2_40 1_555 1_555
C1_40 C2_40 1_555 1_555
C2_40 H1_40 1_555 1_555
C3_40 N2_40 1_555 1_555
H2_40 C3_40 1_555 1_555
C4_40 N1_40 1_555 1_555
H3_40 C4_40 1_555 1_555
C5_40 P1_36 1_555 1_555
C6_40 C5_40 1_555 1_555
H4_40 C6_40 1_555 1_555
C7_40 C6_40 1_555 1_555
H5_40 C7_40 1_555 1_555
C8_40 C7_40 1_555 1_555
H6_40 C8_40 1_555 1_555
C9_40 C8_40 1_555 1_555
H7_40 C9_40 1_555 1_555
C10_40 C5_40 1_555 1_555
H8_40 C10_40 1_555 1_555
C11_40 P1_36 1_555 1_555
C12_40 C11_40 1_555 1_555
H9_40 C12_40 1_555 1_555
C13_30 C12_40 1_555 1_555
H10_30 C13_30 1_555 1_555
C14_30 C13_30 1_555 1_555
H11_30 C14_30 1_555 1_555
C15_40 C14_30 1_555 1_555
H12_40 C15_40 1_555 1_555
C16_40 C11_40 1_555 1_555
H13_40 C16_40 1_555 1_555
N3_40 Ag1_36 1_555 1_555
C17_40 N3_40 1_555 1_555
C18_40 C17_40 1_555 1_555
H14_40 C18_40 1_555 1_555
H15_40 C18_40 1_555 1_555
H16_40 C18_40 1_555 1_555
Ag2_36 Ag1_36 1_555 1_555
Ag3_40 N2_40 1_555 1_555
P2_36 Ag1_36 1_555 1_555
N4_40 Ag1_36 1_555 1_555
P1_36 Ag2_36 1_555 1_555
C3_40 C4_40 1_555 1_555
C9_40 C10_40 1_555 1_555
C15_40 C16_40 1_555 1_555
Ag2_2 N1_41 1_555 1_555
P2_2 C1_41 1_555 1_555
N1_41 C1_41 1_555 1_555
N2_41 C2_41 1_555 1_555
C1_41 C2_41 1_555 1_555
C2_41 H1_41 1_555 1_555
C3_41 N2_41 1_555 1_555
H2_41 C3_41 1_555 1_555
C4_41 N1_41 1_555 1_555
H3_41 C4_41 1_555 1_555
C11_41 P2_2 1_555 1_555
C12_41 C11_41 1_555 1_555
C13_31 C12_41 1_555 1_555
H10_31 C13_31 1_555 1_555
C14_31 C13_31 1_555 1_555
H11_31 C14_31 1_555 1_555
C15_41 C14_31 1_555 1_555
H12_41 C15_41 1_555 1_555
C16_41 C11_41 1_555 1_555
H13_41 C16_41 1_555 1_555
N3_41 Ag2_2 1_555 1_555
C17_41 N3_41 1_555 1_555
C18_41 C17_41 1_555 1_555
H14_41 C18_41 1_555 1_555
H15_41 C18_41 1_555 1_555
H16_41 C18_41 1_555 1_555
Ag3_41 N2_41 1_555 1_555
N4_41 Ag2_2 1_555 1_555
C3_41 C4_41 1_555 1_555
C15_41 C16_41 1_555 1_555
C6_41 C5_41 1_555 1_555
H4_41 C6_41 1_555 1_555
C7_41 C6_41 1_555 1_555
H5_41 C7_41 1_555 1_555
C8_41 C7_41 1_555 1_555
H6_41 C8_41 1_555 1_555
C9_41 C8_41 1_555 1_555
H7_41 C9_41 1_555 1_555
C10_41 C5_41 1_555 1_555
C9_41 C10_41 1_555 1_555
Ag2_4 N1_42 1_555 1_555
P2_4 C1_42 1_555 1_555
N1_42 C1_42 1_555 1_555
N2_42 C2_42 1_555 1_555
C1_42 C2_42 1_555 1_555
C2_42 H1_42 1_555 1_555
C3_42 N2_42 1_555 1_555
H2_42 C3_42 1_555 1_555
C4_42 N1_42 1_555 1_555
H3_42 C4_42 1_555 1_555
C5_42 P2_4 1_555 1_555
C6_42 C5_42 1_555 1_555
H4_42 C6_42 1_555 1_555
C7_42 C6_42 1_555 1_555
H5_42 C7_42 1_555 1_555
C8_42 C7_42 1_555 1_555
H6_42 C8_42 1_555 1_555
C9_42 C8_42 1_555 1_555
H7_42 C9_42 1_555 1_555
C10_42 C5_42 1_555 1_555
H8_42 C10_42 1_555 1_555
C11_42 P2_4 1_555 1_555
C12_42 C11_42 1_555 1_555
H9_42 C12_42 1_555 1_555
C13_32 C12_42 1_555 1_555
H10_32 C13_32 1_555 1_555
C14_32 C13_32 1_555 1_555
H11_32 C14_32 1_555 1_555
C15_42 C14_32 1_555 1_555
H12_42 C15_42 1_555 1_555
C16_42 C11_42 1_555 1_555
H13_42 C16_42 1_555 1_555
N3_42 Ag2_4 1_555 1_555
C17_42 N3_42 1_555 1_555
C18_42 C17_42 1_555 1_555
H14_42 C18_42 1_555 1_555
H15_42 C18_42 1_555 1_555
H16_42 C18_42 1_555 1_555
Ag3_42 N2_42 1_555 1_555
N4_42 Ag2_4 1_555 1_555
C3_42 C4_42 1_555 1_555
C9_42 C10_42 1_555 1_555
C15_42 C16_42 1_555 1_555
Ag2 N1_43 1_555 1_555
P2 C1_43 1_555 1_555
N1_43 C1_43 1_555 1_555
N2_43 C2_43 1_555 1_555
C1_43 C2_43 1_555 1_555
C2_43 H1_43 1_555 1_555
C3_43 N2_43 1_555 1_555
H2_43 C3_43 1_555 1_555
C4_43 N1_43 1_555 1_555
H3_43 C4_43 1_555 1_555
C5_43 P2 1_555 1_555
C6_43 C5_43 1_555 1_555
H4_43 C6_43 1_555 1_555
C7_43 C6_43 1_555 1_555
H5_43 C7_43 1_555 1_555
C8_43 C7_43 1_555 1_555
H6_43 C8_43 1_555 1_555
C9_43 C8_43 1_555 1_555
H7_43 C9_43 1_555 1_555
C10_43 C5_43 1_555 1_555
H8_43 C10_43 1_555 1_555
C11_43 P2 1_555 1_555
C12_43 C11_43 1_555 1_555
H9_43 C12_43 1_555 1_555
C13_33 C12_43 1_555 1_555
H10_33 C13_33 1_555 1_555
C14_33 C13_33 1_555 1_555
H11_33 C14_33 1_555 1_555
C15_43 C14_33 1_555 1_555
H12_43 C15_43 1_555 1_555
C16_43 C11_43 1_555 1_555
H13_43 C16_43 1_555 1_555
N3_43 Ag2 1_555 1_555
C17_43 N3_43 1_555 1_555
C18_43 C17_43 1_555 1_555
H14_43 C18_43 1_555 1_555
H15_43 C18_43 1_555 1_555
H16_43 C18_43 1_555 1_555
Ag3_43 N2_43 1_555 1_555
N4_43 Ag2 1_555 1_555
C3_43 C4_43 1_555 1_555
C9_43 C10_43 1_555 1_555
C15_43 C16_43 1_555 1_555
Ag2_3 N1_44 1_555 1_555
P2_3 C1_44 1_555 1_555
N1_44 C1_44 1_555 1_555
N2_44 C2_44 1_555 1_555
C1_44 C2_44 1_555 1_555
C2_44 H1_44 1_555 1_555
C3_44 N2_44 1_555 1_555
H2_44 C3_44 1_555 1_555
C4_44 N1_44 1_555 1_555
H3_44 C4_44 1_555 1_555
C5_44 P2_3 1_555 1_555
C6_44 C5_44 1_555 1_555
H4_44 C6_44 1_555 1_555
C7_44 C6_44 1_555 1_555
H5_44 C7_44 1_555 1_555
C8_44 C7_44 1_555 1_555
H6_44 C8_44 1_555 1_555
C9_44 C8_44 1_555 1_555
H7_44 C9_44 1_555 1_555
C10_44 C5_44 1_555 1_555
H8_44 C10_44 1_555 1_555
C11_44 P2_3 1_555 1_555
C12_44 C11_44 1_555 1_555
H9_44 C12_44 1_555 1_555
H12_44 C15_44 1_555 1_555
C16_44 C11_44 1_555 1_555
H13_44 C16_44 1_555 1_555
N3_44 Ag2_3 1_555 1_555
C17_44 N3_44 1_555 1_555
C18_44 C17_44 1_555 1_555
H14_44 C18_44 1_555 1_555
H15_44 C18_44 1_555 1_555
H16_44 C18_44 1_555 1_555
Ag3_44 N2_44 1_555 1_555
N4_44 Ag2_3 1_555 1_555
C3_44 C4_44 1_555 1_555
C9_44 C10_44 1_555 1_555
C15_44 C16_44 1_555 1_555
Ag1_37 N1_45 1_555 1_555
P1_37 C1_45 1_555 1_555
N1_45 C1_45 1_555 1_555
N2_45 C2_45 1_555 1_555
C1_45 C2_45 1_555 1_555
C2_45 H1_45 1_555 1_555
C3_45 N2_45 1_555 1_555
H2_45 C3_45 1_555 1_555
C4_45 N1_45 1_555 1_555
H3_45 C4_45 1_555 1_555
C5_45 P1_37 1_555 1_555
C6_45 C5_45 1_555 1_555
H4_45 C6_45 1_555 1_555
C7_45 C6_45 1_555 1_555
H5_45 C7_45 1_555 1_555
C8_45 C7_45 1_555 1_555
H6_45 C8_45 1_555 1_555
C9_45 C8_45 1_555 1_555
H7_45 C9_45 1_555 1_555
C10_45 C5_45 1_555 1_555
H8_45 C10_45 1_555 1_555
C11_45 P1_37 1_555 1_555
C12_45 C11_45 1_555 1_555
H9_45 C12_45 1_555 1_555
C13_34 C12_45 1_555 1_555
H10_34 C13_34 1_555 1_555
C14_34 C13_34 1_555 1_555
H11_34 C14_34 1_555 1_555
C15_45 C14_34 1_555 1_555
H12_45 C15_45 1_555 1_555
C16_45 C11_45 1_555 1_555
H13_45 C16_45 1_555 1_555
N3_45 Ag1_37 1_555 1_555
C17_45 N3_45 1_555 1_555
C18_45 C17_45 1_555 1_555
H14_45 C18_45 1_555 1_555
H15_45 C18_45 1_555 1_555
H16_45 C18_45 1_555 1_555
Ag2_37 Ag1_37 1_555 1_555
Ag3_45 N2_45 1_555 1_555
P2_37 Ag1_37 1_555 1_555
N4_45 Ag1_37 1_555 1_555
P1_37 Ag2_37 1_555 1_555
C3_45 C4_45 1_555 1_555
C9_45 C10_45 1_555 1_555
C15_45 C16_45 1_555 1_555
Ag1_38 N1_46 1_555 1_555
P1_38 C1_46 1_555 1_555
N1_46 C1_46 1_555 1_555
N2_46 C2_46 1_555 1_555
C1_46 C2_46 1_555 1_555
C2_46 H1_46 1_555 1_555
C3_46 N2_46 1_555 1_555
H2_46 C3_46 1_555 1_555
C4_46 N1_46 1_555 1_555
H3_46 C4_46 1_555 1_555
C5_46 P1_38 1_555 1_555
C6_46 C5_46 1_555 1_555
H4_46 C6_46 1_555 1_555
C7_46 C6_46 1_555 1_555
H5_46 C7_46 1_555 1_555
C8_46 C7_46 1_555 1_555
H6_46 C8_46 1_555 1_555
C9_46 C8_46 1_555 1_555
H7_46 C9_46 1_555 1_555
C10_46 C5_46 1_555 1_555
H8_46 C10_46 1_555 1_555
C11_46 P1_38 1_555 1_555
C12_46 C11_46 1_555 1_555
H9_46 C12_46 1_555 1_555
C13_35 C12_46 1_555 1_555
H10_35 C13_35 1_555 1_555
C14_35 C13_35 1_555 1_555
H11_35 C14_35 1_555 1_555
C15_46 C14_35 1_555 1_555
H12_46 C15_46 1_555 1_555
C16_46 C11_46 1_555 1_555
H13_46 C16_46 1_555 1_555
N3_46 Ag1_38 1_555 1_555
C17_46 N3_46 1_555 1_555
C18_46 C17_46 1_555 1_555
H14_46 C18_46 1_555 1_555
H15_46 C18_46 1_555 1_555
H16_46 C18_46 1_555 1_555
Ag2_38 Ag1_38 1_555 1_555
Ag3_46 N2_46 1_555 1_555
P2_38 Ag1_38 1_555 1_555
N4_46 Ag1_38 1_555 1_555
P1_38 Ag2_38 1_555 1_555
C3_46 C4_46 1_555 1_555
C9_46 C10_46 1_555 1_555
C15_46 C16_46 1_555 1_555
Ag1_39 N1_47 1_555 1_555
P1_39 C1_47 1_555 1_555
N1_47 C1_47 1_555 1_555
N2_47 C2_47 1_555 1_555
C1_47 C2_47 1_555 1_555
C2_47 H1_47 1_555 1_555
C3_47 N2_47 1_555 1_555
H2_47 C3_47 1_555 1_555
C4_47 N1_47 1_555 1_555
H3_47 C4_47 1_555 1_555
C11_47 P1_39 1_555 1_555
C12_47 C11_47 1_555 1_555
C13_36 C12_47 1_555 1_555
H10_36 C13_36 1_555 1_555
C14_36 C13_36 1_555 1_555
H11_36 C14_36 1_555 1_555
C15_47 C14_36 1_555 1_555
H12_47 C15_47 1_555 1_555
C16_47 C11_47 1_555 1_555
H13_47 C16_47 1_555 1_555
N3_47 Ag1_39 1_555 1_555
C17_47 N3_47 1_555 1_555
C18_47 C17_47 1_555 1_555
H14_47 C18_47 1_555 1_555
H15_47 C18_47 1_555 1_555
H16_47 C18_47 1_555 1_555
Ag3_47 N2_47 1_555 1_555
N4_47 Ag1_39 1_555 1_555
C3_47 C4_47 1_555 1_555
C15_47 C16_47 1_555 1_555
C6_47 C5_47 1_555 1_555
H4_47 C6_47 1_555 1_555
C7_47 C6_47 1_555 1_555
H5_47 C7_47 1_555 1_555
C8_47 C7_47 1_555 1_555
H6_47 C8_47 1_555 1_555
C9_47 C8_47 1_555 1_555
H7_47 C9_47 1_555 1_555
C10_47 C5_47 1_555 1_555
C9_47 C10_47 1_555 1_555
Ag1_40 N1_48 1_555 1_555
P1_40 C1_48 1_555 1_555
N1_48 C1_48 1_555 1_555
N2_48 C2_48 1_555 1_555
C1_48 C2_48 1_555 1_555
C2_48 H1_48 1_555 1_555
C3_48 N2_48 1_555 1_555
H2_48 C3_48 1_555 1_555
C4_48 N1_48 1_555 1_555
H3_48 C4_48 1_555 1_555
C5_48 P1_40 1_555 1_555
C6_48 C5_48 1_555 1_555
H4_48 C6_48 1_555 1_555
C7_48 C6_48 1_555 1_555
H5_48 C7_48 1_555 1_555
C8_48 C7_48 1_555 1_555
H6_48 C8_48 1_555 1_555
C9_48 C8_48 1_555 1_555
H7_48 C9_48 1_555 1_555
C10_48 C5_48 1_555 1_555
H8_48 C10_48 1_555 1_555
C11_48 P1_40 1_555 1_555
C12_48 C11_48 1_555 1_555
H9_48 C12_48 1_555 1_555
H12_48 C15_48 1_555 1_555
C16_48 C11_48 1_555 1_555
H13_48 C16_48 1_555 1_555
N3_48 Ag1_40 1_555 1_555
C17_48 N3_48 1_555 1_555
C18_48 C17_48 1_555 1_555
H14_48 C18_48 1_555 1_555
H15_48 C18_48 1_555 1_555
H16_48 C18_48 1_555 1_555
Ag2_40 Ag1_40 1_555 1_555
Ag3_48 N2_48 1_555 1_555
P2_40 Ag1_40 1_555 1_555
N4_48 Ag1_40 1_555 1_555
P1_40 Ag2_40 1_555 1_555
C3_48 C4_48 1_555 1_555
C9_48 C10_48 1_555 1_555
C15_48 C16_48 1_555 1_555
Ag1_41 N1_49 1_555 1_555
P1_41 C1_49 1_555 1_555
N1_49 C1_49 1_555 1_555
N2_49 C2_49 1_555 1_555
C1_49 C2_49 1_555 1_555
C2_49 H1_49 1_555 1_555
C3_49 N2_49 1_555 1_555
H2_49 C3_49 1_555 1_555
C4_49 N1_49 1_555 1_555
H3_49 C4_49 1_555 1_555
C5_49 P1_41 1_555 1_555
C6_49 C5_49 1_555 1_555
H4_49 C6_49 1_555 1_555
C7_49 C6_49 1_555 1_555
H5_49 C7_49 1_555 1_555
C8_49 C7_49 1_555 1_555
H6_49 C8_49 1_555 1_555
C9_49 C8_49 1_555 1_555
H7_49 C9_49 1_555 1_555
C10_49 C5_49 1_555 1_555
H8_49 C10_49 1_555 1_555
C11_49 P1_41 1_555 1_555
C12_49 C11_49 1_555 1_555
H9_49 C12_49 1_555 1_555
H12_49 C15_49 1_555 1_555
C16_49 C11_49 1_555 1_555
H13_49 C16_49 1_555 1_555
N3_49 Ag1_41 1_555 1_555
C17_49 N3_49 1_555 1_555
C18_49 C17_49 1_555 1_555
H14_49 C18_49 1_555 1_555
H15_49 C18_49 1_555 1_555
H16_49 C18_49 1_555 1_555
Ag2_41 Ag1_41 1_555 1_555
Ag3_49 N2_49 1_555 1_555
P2_41 Ag1_41 1_555 1_555
N4_49 Ag1_41 1_555 1_555
P1_41 Ag2_41 1_555 1_555
C3_49 C4_49 1_555 1_555
C9_49 C10_49 1_555 1_555
C15_49 C16_49 1_555 1_555
Ag1_42 N1_50 1_555 1_555
P1_42 C1_50 1_555 1_555
N1_50 C1_50 1_555 1_555
N2_50 C2_50 1_555 1_555
C1_50 C2_50 1_555 1_555
C2_50 H1_50 1_555 1_555
C3_50 N2_50 1_555 1_555
H2_50 C3_50 1_555 1_555
C4_50 N1_50 1_555 1_555
H3_50 C4_50 1_555 1_555
C5_50 P1_42 1_555 1_555
C6_50 C5_50 1_555 1_555
H4_50 C6_50 1_555 1_555
C7_50 C6_50 1_555 1_555
H5_50 C7_50 1_555 1_555
C8_50 C7_50 1_555 1_555
H6_50 C8_50 1_555 1_555
C9_50 C8_50 1_555 1_555
H7_50 C9_50 1_555 1_555
C10_50 C5_50 1_555 1_555
H8_50 C10_50 1_555 1_555
C11_50 P1_42 1_555 1_555
C12_50 C11_50 1_555 1_555
H9_50 C12_50 1_555 1_555
C13_37 C12_50 1_555 1_555
H10_37 C13_37 1_555 1_555
C14_37 C13_37 1_555 1_555
H11_37 C14_37 1_555 1_555
C15_50 C14_37 1_555 1_555
H12_50 C15_50 1_555 1_555
C16_50 C11_50 1_555 1_555
H13_50 C16_50 1_555 1_555
N3_50 Ag1_42 1_555 1_555
C17_50 N3_50 1_555 1_555
C18_50 C17_50 1_555 1_555
H14_50 C18_50 1_555 1_555
H15_50 C18_50 1_555 1_555
H16_50 C18_50 1_555 1_555
Ag2_42 Ag1_42 1_555 1_555
Ag3_50 N2_50 1_555 1_555
P2_42 Ag1_42 1_555 1_555
N4_50 Ag1_42 1_555 1_555
P1_42 Ag2_42 1_555 1_555
C3_50 C4_50 1_555 1_555
C9_50 C10_50 1_555 1_555
C15_50 C16_50 1_555 1_555
C6_51 C5_51 1_555 1_555
H4_51 C6_51 1_555 1_555
C7_51 C6_51 1_555 1_555
H5_51 C7_51 1_555 1_555
C8_51 C7_51 1_555 1_555
H6_51 C8_51 1_555 1_555
C9_51 C8_51 1_555 1_555
H7_51 C9_51 1_555 1_555
C10_51 C5_51 1_555 1_555
C9_51 C10_51 1_555 1_555
Ag1_43 N1_51 1_555 1_555
P1_43 C1_51 1_555 1_555
N1_51 C1_51 1_555 1_555
N2_51 C2_51 1_555 1_555
C1_51 C2_51 1_555 1_555
C2_51 H1_51 1_555 1_555
C3_51 N2_51 1_555 1_555
H2_51 C3_51 1_555 1_555
C4_51 N1_51 1_555 1_555
H3_51 C4_51 1_555 1_555
C11_51 P1_43 1_555 1_555
C12_51 C11_51 1_555 1_555
C13_38 C12_51 1_555 1_555
H10_38 C13_38 1_555 1_555
C14_38 C13_38 1_555 1_555
H11_38 C14_38 1_555 1_555
C15_51 C14_38 1_555 1_555
H12_51 C15_51 1_555 1_555
C16_51 C11_51 1_555 1_555
H13_51 C16_51 1_555 1_555
N3_51 Ag1_43 1_555 1_555
C17_51 N3_51 1_555 1_555
C18_51 C17_51 1_555 1_555
H14_51 C18_51 1_555 1_555
H15_51 C18_51 1_555 1_555
H16_51 C18_51 1_555 1_555
Ag3_51 N2_51 1_555 1_555
N4_51 Ag1_43 1_555 1_555
C3_51 C4_51 1_555 1_555
C15_51 C16_51 1_555 1_555
Ag1_44 N1_52 1_555 1_555
P1_44 C1_52 1_555 1_555
N1_52 C1_52 1_555 1_555
N2_52 C2_52 1_555 1_555
C1_52 C2_52 1_555 1_555
C2_52 H1_52 1_555 1_555
C3_52 N2_52 1_555 1_555
H2_52 C3_52 1_555 1_555
C4_52 N1_52 1_555 1_555
H3_52 C4_52 1_555 1_555
C5_52 P1_44 1_555 1_555
C6_52 C5_52 1_555 1_555
H4_52 C6_52 1_555 1_555
C7_52 C6_52 1_555 1_555
H5_52 C7_52 1_555 1_555
C8_52 C7_52 1_555 1_555
H6_52 C8_52 1_555 1_555
C9_52 C8_52 1_555 1_555
H7_52 C9_52 1_555 1_555
C10_52 C5_52 1_555 1_555
H8_52 C10_52 1_555 1_555
C11_52 P1_44 1_555 1_555
C12_52 C11_52 1_555 1_555
H9_52 C12_52 1_555 1_555
C13_39 C12_52 1_555 1_555
H10_39 C13_39 1_555 1_555
C14_39 C13_39 1_555 1_555
H11_39 C14_39 1_555 1_555
C15_52 C14_39 1_555 1_555
H12_52 C15_52 1_555 1_555
C16_52 C11_52 1_555 1_555
H13_52 C16_52 1_555 1_555
N3_52 Ag1_44 1_555 1_555
C17_52 N3_52 1_555 1_555
C18_52 C17_52 1_555 1_555
H14_52 C18_52 1_555 1_555
H15_52 C18_52 1_555 1_555
H16_52 C18_52 1_555 1_555
Ag2_44 Ag1_44 1_555 1_555
Ag3_52 N2_52 1_555 1_555
P2_44 Ag1_44 1_555 1_555
N4_52 Ag1_44 1_555 1_555
P1_44 Ag2_44 1_555 1_555
C3_52 C4_52 1_555 1_555
C9_52 C10_52 1_555 1_555
C15_52 C16_52 1_555 1_555
Ag2_14 N1_53 1_555 1_555
P2_14 C1_53 1_555 1_555
N1_53 C1_53 1_555 1_555
N2_53 C2_53 1_555 1_555
C1_53 C2_53 1_555 1_555
C2_53 H1_53 1_555 1_555
C3_53 N2_53 1_555 1_555
H2_53 C3_53 1_555 1_555
C4_53 N1_53 1_555 1_555
H3_53 C4_53 1_555 1_555
C5_53 P2_14 1_555 1_555
C6_53 C5_53 1_555 1_555
H4_53 C6_53 1_555 1_555
C7_53 C6_53 1_555 1_555
H5_53 C7_53 1_555 1_555
C8_53 C7_53 1_555 1_555
H6_53 C8_53 1_555 1_555
C9_53 C8_53 1_555 1_555
H7_53 C9_53 1_555 1_555
C10_53 C5_53 1_555 1_555
H8_53 C10_53 1_555 1_555
C11_53 P2_14 1_555 1_555
C12_53 C11_53 1_555 1_555
H9_53 C12_53 1_555 1_555
H12_53 C15_53 1_555 1_555
C16_53 C11_53 1_555 1_555
H13_53 C16_53 1_555 1_555
N3_53 Ag2_14 1_555 1_555
C17_53 N3_53 1_555 1_555
C18_53 C17_53 1_555 1_555
H14_53 C18_53 1_555 1_555
H15_53 C18_53 1_555 1_555
H16_53 C18_53 1_555 1_555
Ag3_53 N2_53 1_555 1_555
N4_53 Ag2_14 1_555 1_555
C3_53 C4_53 1_555 1_555
C9_53 C10_53 1_555 1_555
C15_53 C16_53 1_555 1_555
C6_54 C5_54 1_555 1_555
H4_54 C6_54 1_555 1_555
C7_54 C6_54 1_555 1_555
H5_54 C7_54 1_555 1_555
C8_54 C7_54 1_555 1_555
H6_54 C8_54 1_555 1_555
C9_54 C8_54 1_555 1_555
H7_54 C9_54 1_555 1_555
C10_54 C5_54 1_555 1_555
C9_54 C10_54 1_555 1_555
Ag2_16 N1_54 1_555 1_555
P2_16 C1_54 1_555 1_555
N1_54 C1_54 1_555 1_555
N2_54 C2_54 1_555 1_555
C1_54 C2_54 1_555 1_555
C2_54 H1_54 1_555 1_555
C3_54 N2_54 1_555 1_555
H2_54 C3_54 1_555 1_555
C4_54 N1_54 1_555 1_555
H3_54 C4_54 1_555 1_555
C11_54 P2_16 1_555 1_555
C12_54 C11_54 1_555 1_555
C13_40 C12_54 1_555 1_555
H10_40 C13_40 1_555 1_555
C14_40 C13_40 1_555 1_555
H11_40 C14_40 1_555 1_555
C15_54 C14_40 1_555 1_555
H12_54 C15_54 1_555 1_555
C16_54 C11_54 1_555 1_555
H13_54 C16_54 1_555 1_555
N3_54 Ag2_16 1_555 1_555
C17_54 N3_54 1_555 1_555
C18_54 C17_54 1_555 1_555
H14_54 C18_54 1_555 1_555
H15_54 C18_54 1_555 1_555
H16_54 C18_54 1_555 1_555
Ag3_54 N2_54 1_555 1_555
N4_54 Ag2_16 1_555 1_555
C3_54 C4_54 1_555 1_555
C15_54 C16_54 1_555 1_555
Ag2_13 N1_55 1_555 1_555
P2_13 C1_55 1_555 1_555
N1_55 C1_55 1_555 1_555
N2_55 C2_55 1_555 1_555
C1_55 C2_55 1_555 1_555
C2_55 H1_55 1_555 1_555
C3_55 N2_55 1_555 1_555
H2_55 C3_55 1_555 1_555
C4_55 N1_55 1_555 1_555
H3_55 C4_55 1_555 1_555
C5_55 P2_13 1_555 1_555
C6_55 C5_55 1_555 1_555
H4_55 C6_55 1_555 1_555
C7_55 C6_55 1_555 1_555
H5_55 C7_55 1_555 1_555
C8_55 C7_55 1_555 1_555
H6_55 C8_55 1_555 1_555
C9_55 C8_55 1_555 1_555
H7_55 C9_55 1_555 1_555
C10_55 C5_55 1_555 1_555
H8_55 C10_55 1_555 1_555
C11_55 P2_13 1_555 1_555
C12_55 C11_55 1_555 1_555
H9_55 C12_55 1_555 1_555
C13_41 C12_55 1_555 1_555
H10_41 C13_41 1_555 1_555
C14_41 C13_41 1_555 1_555
H11_41 C14_41 1_555 1_555
C15_55 C14_41 1_555 1_555
H12_55 C15_55 1_555 1_555
C16_55 C11_55 1_555 1_555
H13_55 C16_55 1_555 1_555
N3_55 Ag2_13 1_555 1_555
C17_55 N3_55 1_555 1_555
C18_55 C17_55 1_555 1_555
H14_55 C18_55 1_555 1_555
H15_55 C18_55 1_555 1_555
H16_55 C18_55 1_555 1_555
Ag3_55 N2_55 1_555 1_555
N4_55 Ag2_13 1_555 1_555
C3_55 C4_55 1_555 1_555
C9_55 C10_55 1_555 1_555
C15_55 C16_55 1_555 1_555
Ag2_15 N1_56 1_555 1_555
P2_15 C1_56 1_555 1_555
N1_56 C1_56 1_555 1_555
N2_56 C2_56 1_555 1_555
C1_56 C2_56 1_555 1_555
C2_56 H1_56 1_555 1_555
C3_56 N2_56 1_555 1_555
H2_56 C3_56 1_555 1_555
C4_56 N1_56 1_555 1_555
H3_56 C4_56 1_555 1_555
C5_56 P2_15 1_555 1_555
C6_56 C5_56 1_555 1_555
H4_56 C6_56 1_555 1_555
C7_56 C6_56 1_555 1_555
H5_56 C7_56 1_555 1_555
C8_56 C7_56 1_555 1_555
H6_56 C8_56 1_555 1_555
C9_56 C8_56 1_555 1_555
H7_56 C9_56 1_555 1_555
C10_56 C5_56 1_555 1_555
H8_56 C10_56 1_555 1_555
C11_56 P2_15 1_555 1_555
C12_56 C11_56 1_555 1_555
H9_56 C12_56 1_555 1_555
C13_42 C12_56 1_555 1_555
H10_42 C13_42 1_555 1_555
C14_42 C13_42 1_555 1_555
H11_42 C14_42 1_555 1_555
C15_56 C14_42 1_555 1_555
H12_56 C15_56 1_555 1_555
C16_56 C11_56 1_555 1_555
H13_56 C16_56 1_555 1_555
N3_56 Ag2_15 1_555 1_555
C17_56 N3_56 1_555 1_555
C18_56 C17_56 1_555 1_555
H14_56 C18_56 1_555 1_555
H15_56 C18_56 1_555 1_555
H16_56 C18_56 1_555 1_555
Ag3_56 N2_56 1_555 1_555
N4_56 Ag2_15 1_555 1_555
C3_56 C4_56 1_555 1_555
C9_56 C10_56 1_555 1_555
C15_56 C16_56 1_555 1_555
Ag2_40 N1_57 1_555 1_555
P2_40 C1_57 1_555 1_555
N1_57 C1_57 1_555 1_555
N2_57 C2_57 1_555 1_555
C1_57 C2_57 1_555 1_555
C2_57 H1_57 1_555 1_555
C3_57 N2_57 1_555 1_555
H2_57 C3_57 1_555 1_555
C4_57 N1_57 1_555 1_555
H3_57 C4_57 1_555 1_555
C5_57 P2_40 1_555 1_555
C6_57 C5_57 1_555 1_555
H4_57 C6_57 1_555 1_555
C7_57 C6_57 1_555 1_555
H5_57 C7_57 1_555 1_555
C8_57 C7_57 1_555 1_555
H6_57 C8_57 1_555 1_555
C9_57 C8_57 1_555 1_555
H7_57 C9_57 1_555 1_555
C10_57 C5_57 1_555 1_555
H8_57 C10_57 1_555 1_555
C11_57 P2_40 1_555 1_555
C12_57 C11_57 1_555 1_555
H9_57 C12_57 1_555 1_555
C13_43 C12_57 1_555 1_555
H10_43 C13_43 1_555 1_555
C14_43 C13_43 1_555 1_555
H11_43 C14_43 1_555 1_555
C15_57 C14_43 1_555 1_555
H12_57 C15_57 1_555 1_555
C16_57 C11_57 1_555 1_555
H13_57 C16_57 1_555 1_555
N3_57 Ag2_40 1_555 1_555
C17_57 N3_57 1_555 1_555
C18_57 C17_57 1_555 1_555
H14_57 C18_57 1_555 1_555
H15_57 C18_57 1_555 1_555
H16_57 C18_57 1_555 1_555
Ag3_57 N2_57 1_555 1_555
N4_57 Ag2_40 1_555 1_555
C3_57 C4_57 1_555 1_555
C9_57 C10_57 1_555 1_555
C15_57 C16_57 1_555 1_555
Ag2_38 N1_58 1_555 1_555
P2_38 C1_58 1_555 1_555
N1_58 C1_58 1_555 1_555
N2_58 C2_58 1_555 1_555
C1_58 C2_58 1_555 1_555
C2_58 H1_58 1_555 1_555
C3_58 N2_58 1_555 1_555
H2_58 C3_58 1_555 1_555
C4_58 N1_58 1_555 1_555
H3_58 C4_58 1_555 1_555
C5_58 P2_38 1_555 1_555
C6_58 C5_58 1_555 1_555
H4_58 C6_58 1_555 1_555
C7_58 C6_58 1_555 1_555
H5_58 C7_58 1_555 1_555
C8_58 C7_58 1_555 1_555
H6_58 C8_58 1_555 1_555
C9_58 C8_58 1_555 1_555
H7_58 C9_58 1_555 1_555
C10_58 C5_58 1_555 1_555
H8_58 C10_58 1_555 1_555
C11_58 P2_38 1_555 1_555
C12_58 C11_58 1_555 1_555
H9_58 C12_58 1_555 1_555
H12_58 C15_58 1_555 1_555
C16_58 C11_58 1_555 1_555
H13_58 C16_58 1_555 1_555
N3_58 Ag2_38 1_555 1_555
C17_58 N3_58 1_555 1_555
C18_58 C17_58 1_555 1_555
H14_58 C18_58 1_555 1_555
H15_58 C18_58 1_555 1_555
H16_58 C18_58 1_555 1_555
Ag3_58 N2_58 1_555 1_555
N4_58 Ag2_38 1_555 1_555
C3_58 C4_58 1_555 1_555
C9_58 C10_58 1_555 1_555
C15_58 C16_58 1_555 1_555
C6_59 C5_59 1_555 1_555
H4_59 C6_59 1_555 1_555
C7_59 C6_59 1_555 1_555
H5_59 C7_59 1_555 1_555
C8_59 C7_59 1_555 1_555
H6_59 C8_59 1_555 1_555
C9_59 C8_59 1_555 1_555
H7_59 C9_59 1_555 1_555
C10_59 C5_59 1_555 1_555
C9_59 C10_59 1_555 1_555
Ag2_39 N1_59 1_555 1_555
P2_39 C1_59 1_555 1_555
N1_59 C1_59 1_555 1_555
N2_59 C2_59 1_555 1_555
C1_59 C2_59 1_555 1_555
C2_59 H1_59 1_555 1_555
C3_59 N2_59 1_555 1_555
H2_59 C3_59 1_555 1_555
C4_59 N1_59 1_555 1_555
H3_59 C4_59 1_555 1_555
C11_59 P2_39 1_555 1_555
C12_59 C11_59 1_555 1_555
C13_44 C12_59 1_555 1_555
H10_44 C13_44 1_555 1_555
C14_44 C13_44 1_555 1_555
H11_44 C14_44 1_555 1_555
C15_59 C14_44 1_555 1_555
H12_59 C15_59 1_555 1_555
C16_59 C11_59 1_555 1_555
H13_59 C16_59 1_555 1_555
N3_59 Ag2_39 1_555 1_555
C17_59 N3_59 1_555 1_555
C18_59 C17_59 1_555 1_555
H14_59 C18_59 1_555 1_555
H15_59 C18_59 1_555 1_555
H16_59 C18_59 1_555 1_555
Ag3_59 N2_59 1_555 1_555
N4_59 Ag2_39 1_555 1_555
C3_59 C4_59 1_555 1_555
C15_59 C16_59 1_555 1_555
Ag2_37 N1_60 1_555 1_555
P2_37 C1_60 1_555 1_555
N1_60 C1_60 1_555 1_555
N2_60 C2_60 1_555 1_555
C1_60 C2_60 1_555 1_555
C2_60 H1_60 1_555 1_555
C3_60 N2_60 1_555 1_555
H2_60 C3_60 1_555 1_555
C4_60 N1_60 1_555 1_555
H3_60 C4_60 1_555 1_555
C5_60 P2_37 1_555 1_555
C6_60 C5_60 1_555 1_555
H4_60 C6_60 1_555 1_555
C7_60 C6_60 1_555 1_555
H5_60 C7_60 1_555 1_555
C8_60 C7_60 1_555 1_555
H6_60 C8_60 1_555 1_555
C9_60 C8_60 1_555 1_555
H7_60 C9_60 1_555 1_555
C10_60 C5_60 1_555 1_555
H8_60 C10_60 1_555 1_555
C11_60 P2_37 1_555 1_555
C12_60 C11_60 1_555 1_555
H9_60 C12_60 1_555 1_555
C13_45 C12_60 1_555 1_555
H10_45 C13_45 1_555 1_555
C14_45 C13_45 1_555 1_555
H11_45 C14_45 1_555 1_555
C15_60 C14_45 1_555 1_555
H12_60 C15_60 1_555 1_555
C16_60 C11_60 1_555 1_555
H13_60 C16_60 1_555 1_555
N3_60 Ag2_37 1_555 1_555
C17_60 N3_60 1_555 1_555
C18_60 C17_60 1_555 1_555
H14_60 C18_60 1_555 1_555
H15_60 C18_60 1_555 1_555
H16_60 C18_60 1_555 1_555
Ag3_60 N2_60 1_555 1_555
N4_60 Ag2_37 1_555 1_555
C3_60 C4_60 1_555 1_555
C9_60 C10_60 1_555 1_555
C15_60 C16_60 1_555 1_555
Ag2_7 N1_61 1_555 1_555
P2_7 C1_61 1_555 1_555
N1_61 C1_61 1_555 1_555
N2_61 C2_61 1_555 1_555
C1_61 C2_61 1_555 1_555
C2_61 H1_61 1_555 1_555
C3_61 N2_61 1_555 1_555
H2_61 C3_61 1_555 1_555
C4_61 N1_61 1_555 1_555
H3_61 C4_61 1_555 1_555
C5_61 P2_7 1_555 1_555
C6_61 C5_61 1_555 1_555
H4_61 C6_61 1_555 1_555
C7_61 C6_61 1_555 1_555
H5_61 C7_61 1_555 1_555
C8_61 C7_61 1_555 1_555
H6_61 C8_61 1_555 1_555
C9_61 C8_61 1_555 1_555
H7_61 C9_61 1_555 1_555
C10_61 C5_61 1_555 1_555
H8_61 C10_61 1_555 1_555
C11_61 P2_7 1_555 1_555
C12_61 C11_61 1_555 1_555
H9_61 C12_61 1_555 1_555
H12_61 C15_61 1_555 1_555
C16_61 C11_61 1_555 1_555
H13_61 C16_61 1_555 1_555
N3_61 Ag2_7 1_555 1_555
C17_61 N3_61 1_555 1_555
C18_61 C17_61 1_555 1_555
H14_61 C18_61 1_555 1_555
H15_61 C18_61 1_555 1_555
H16_61 C18_61 1_555 1_555
Ag3_61 N2_61 1_555 1_555
N4_61 Ag2_7 1_555 1_555
C3_61 C4_61 1_555 1_555
C9_61 C10_61 1_555 1_555
C15_61 C16_61 1_555 1_555
Ag2_5 N1_62 1_555 1_555
P2_5 C1_62 1_555 1_555
N1_62 C1_62 1_555 1_555
N2_62 C2_62 1_555 1_555
C1_62 C2_62 1_555 1_555
C2_62 H1_62 1_555 1_555
C3_62 N2_62 1_555 1_555
H2_62 C3_62 1_555 1_555
C4_62 N1_62 1_555 1_555
H3_62 C4_62 1_555 1_555
C5_62 P2_5 1_555 1_555
C6_62 C5_62 1_555 1_555
H4_62 C6_62 1_555 1_555
C7_62 C6_62 1_555 1_555
H5_62 C7_62 1_555 1_555
C8_62 C7_62 1_555 1_555
H6_62 C8_62 1_555 1_555
C9_62 C8_62 1_555 1_555
H7_62 C9_62 1_555 1_555
C10_62 C5_62 1_555 1_555
H8_62 C10_62 1_555 1_555
C11_62 P2_5 1_555 1_555
C12_62 C11_62 1_555 1_555
H9_62 C12_62 1_555 1_555
C13_46 C12_62 1_555 1_555
H10_46 C13_46 1_555 1_555
C14_46 C13_46 1_555 1_555
H11_46 C14_46 1_555 1_555
C15_62 C14_46 1_555 1_555
H12_62 C15_62 1_555 1_555
C16_62 C11_62 1_555 1_555
H13_62 C16_62 1_555 1_555
N3_62 Ag2_5 1_555 1_555
C17_62 N3_62 1_555 1_555
C18_62 C17_62 1_555 1_555
H14_62 C18_62 1_555 1_555
H15_62 C18_62 1_555 1_555
H16_62 C18_62 1_555 1_555
Ag3_62 N2_62 1_555 1_555
N4_62 Ag2_5 1_555 1_555
C3_62 C4_62 1_555 1_555
C9_62 C10_62 1_555 1_555
C15_62 C16_62 1_555 1_555
Ag2_8 N1_63 1_555 1_555
P2_8 C1_63 1_555 1_555
N1_63 C1_63 1_555 1_555
N2_63 C2_63 1_555 1_555
C1_63 C2_63 1_555 1_555
C2_63 H1_63 1_555 1_555
C3_63 N2_63 1_555 1_555
H2_63 C3_63 1_555 1_555
C4_63 N1_63 1_555 1_555
H3_63 C4_63 1_555 1_555
C5_63 P2_8 1_555 1_555
C6_63 C5_63 1_555 1_555
H4_63 C6_63 1_555 1_555
C7_63 C6_63 1_555 1_555
H5_63 C7_63 1_555 1_555
C8_63 C7_63 1_555 1_555
H6_63 C8_63 1_555 1_555
C9_63 C8_63 1_555 1_555
H7_63 C9_63 1_555 1_555
C10_63 C5_63 1_555 1_555
H8_63 C10_63 1_555 1_555
C11_63 P2_8 1_555 1_555
C12_63 C11_63 1_555 1_555
H9_63 C12_63 1_555 1_555
C13_47 C12_63 1_555 1_555
H10_47 C13_47 1_555 1_555
C14_47 C13_47 1_555 1_555
H11_47 C14_47 1_555 1_555
C15_63 C14_47 1_555 1_555
H12_63 C15_63 1_555 1_555
C16_63 C11_63 1_555 1_555
H13_63 C16_63 1_555 1_555
N3_63 Ag2_8 1_555 1_555
C17_63 N3_63 1_555 1_555
C18_63 C17_63 1_555 1_555
H14_63 C18_63 1_555 1_555
H15_63 C18_63 1_555 1_555
H16_63 C18_63 1_555 1_555
Ag3_63 N2_63 1_555 1_555
N4_63 Ag2_8 1_555 1_555
C3_63 C4_63 1_555 1_555
C9_63 C10_63 1_555 1_555
C15_63 C16_63 1_555 1_555
Ag2_6 N1_64 1_555 1_555
P2_6 C1_64 1_555 1_555
N1_64 C1_64 1_555 1_555
N2_64 C2_64 1_555 1_555
C1_64 C2_64 1_555 1_555
C2_64 H1_64 1_555 1_555
C3_64 N2_64 1_555 1_555
H2_64 C3_64 1_555 1_555
C4_64 N1_64 1_555 1_555
H3_64 C4_64 1_555 1_555
C11_64 P2_6 1_555 1_555
C12_64 C11_64 1_555 1_555
C13_48 C12_64 1_555 1_555
H10_48 C13_48 1_555 1_555
C14_48 C13_48 1_555 1_555
H11_48 C14_48 1_555 1_555
C15_64 C14_48 1_555 1_555
H12_64 C15_64 1_555 1_555
C16_64 C11_64 1_555 1_555
H13_64 C16_64 1_555 1_555
N3_64 Ag2_6 1_555 1_555
C17_64 N3_64 1_555 1_555
C18_64 C17_64 1_555 1_555
H14_64 C18_64 1_555 1_555
H15_64 C18_64 1_555 1_555
H16_64 C18_64 1_555 1_555
Ag3_64 N2_64 1_555 1_555
N4_64 Ag2_6 1_555 1_555
C3_64 C4_64 1_555 1_555
C15_64 C16_64 1_555 1_555
C6_64 C5_64 1_555 1_555
H4_64 C6_64 1_555 1_555
C7_64 C6_64 1_555 1_555
H5_64 C7_64 1_555 1_555
C8_64 C7_64 1_555 1_555
H6_64 C8_64 1_555 1_555
C9_64 C8_64 1_555 1_555
H7_64 C9_64 1_555 1_555
C10_64 C5_64 1_555 1_555
C9_64 C10_64 1_555 1_555
Ag1_45 N1_65 1_555 1_555
P1_45 C1_65 1_555 1_555
N1_65 C1_65 1_555 1_555
N2_65 C2_65 1_555 1_555
C1_65 C2_65 1_555 1_555
C2_65 H1_65 1_555 1_555
C3_65 N2_65 1_555 1_555
H2_65 C3_65 1_555 1_555
C4_65 N1_65 1_555 1_555
H3_65 C4_65 1_555 1_555
C5_65 P1_45 1_555 1_555
C6_65 C5_65 1_555 1_555
H4_65 C6_65 1_555 1_555
C7_65 C6_65 1_555 1_555
H5_65 C7_65 1_555 1_555
C8_65 C7_65 1_555 1_555
H6_65 C8_65 1_555 1_555
C9_65 C8_65 1_555 1_555
H7_65 C9_65 1_555 1_555
C10_65 C5_65 1_555 1_555
H8_65 C10_65 1_555 1_555
C11_65 P1_45 1_555 1_555
C12_65 C11_65 1_555 1_555
H9_65 C12_65 1_555 1_555
C13_49 C12_65 1_555 1_555
H10_49 C13_49 1_555 1_555
C14_49 C13_49 1_555 1_555
H11_49 C14_49 1_555 1_555
C15_65 C14_49 1_555 1_555
H12_65 C15_65 1_555 1_555
C16_65 C11_65 1_555 1_555
H13_65 C16_65 1_555 1_555
N3_65 Ag1_45 1_555 1_555
C17_65 N3_65 1_555 1_555
C18_65 C17_65 1_555 1_555
H14_65 C18_65 1_555 1_555
H15_65 C18_65 1_555 1_555
H16_65 C18_65 1_555 1_555
Ag2_45 Ag1_45 1_555 1_555
Ag3_65 N2_65 1_555 1_555
P2_45 Ag1_45 1_555 1_555
N4_65 Ag1_45 1_555 1_555
P1_45 Ag2_45 1_555 1_555
C3_65 C4_65 1_555 1_555
C9_65 C10_65 1_555 1_555
C15_65 C16_65 1_555 1_555
Ag1_46 N1_66 1_555 1_555
P1_46 C1_66 1_555 1_555
N1_66 C1_66 1_555 1_555
N2_66 C2_66 1_555 1_555
C1_66 C2_66 1_555 1_555
C2_66 H1_66 1_555 1_555
C3_66 N2_66 1_555 1_555
H2_66 C3_66 1_555 1_555
C4_66 N1_66 1_555 1_555
H3_66 C4_66 1_555 1_555
C5_66 P1_46 1_555 1_555
C6_66 C5_66 1_555 1_555
H4_66 C6_66 1_555 1_555
C7_66 C6_66 1_555 1_555
H5_66 C7_66 1_555 1_555
C8_66 C7_66 1_555 1_555
H6_66 C8_66 1_555 1_555
C9_66 C8_66 1_555 1_555
H7_66 C9_66 1_555 1_555
C10_66 C5_66 1_555 1_555
H8_66 C10_66 1_555 1_555
C11_66 P1_46 1_555 1_555
C12_66 C11_66 1_555 1_555
H9_66 C12_66 1_555 1_555
C13_50 C12_66 1_555 1_555
H10_50 C13_50 1_555 1_555
C14_50 C13_50 1_555 1_555
H11_50 C14_50 1_555 1_555
C15_66 C14_50 1_555 1_555
H12_66 C15_66 1_555 1_555
C16_66 C11_66 1_555 1_555
H13_66 C16_66 1_555 1_555
N3_66 Ag1_46 1_555 1_555
C17_66 N3_66 1_555 1_555
C18_66 C17_66 1_555 1_555
H14_66 C18_66 1_555 1_555
H15_66 C18_66 1_555 1_555
H16_66 C18_66 1_555 1_555
Ag2_46 Ag1_46 1_555 1_555
Ag3_66 N2_66 1_555 1_555
P2_46 Ag1_46 1_555 1_555
N4_66 Ag1_46 1_555 1_555
P1_46 Ag2_46 1_555 1_555
C3_66 C4_66 1_555 1_555
C9_66 C10_66 1_555 1_555
C15_66 C16_66 1_555 1_555
Ag1_47 N1_67 1_555 1_555
P1_47 C1_67 1_555 1_555
N1_67 C1_67 1_555 1_555
N2_67 C2_67 1_555 1_555
C1_67 C2_67 1_555 1_555
C2_67 H1_67 1_555 1_555
C3_67 N2_67 1_555 1_555
H2_67 C3_67 1_555 1_555
C4_67 N1_67 1_555 1_555
H3_67 C4_67 1_555 1_555
C5_67 P1_47 1_555 1_555
C6_67 C5_67 1_555 1_555
H4_67 C6_67 1_555 1_555
C7_67 C6_67 1_555 1_555
H5_67 C7_67 1_555 1_555
C8_67 C7_67 1_555 1_555
H6_67 C8_67 1_555 1_555
C9_67 C8_67 1_555 1_555
H7_67 C9_67 1_555 1_555
C10_67 C5_67 1_555 1_555
H8_67 C10_67 1_555 1_555
C11_67 P1_47 1_555 1_555
C12_67 C11_67 1_555 1_555
H9_67 C12_67 1_555 1_555
H12_67 C15_67 1_555 1_555
C16_67 C11_67 1_555 1_555
H13_67 C16_67 1_555 1_555
N3_67 Ag1_47 1_555 1_555
C17_67 N3_67 1_555 1_555
C18_67 C17_67 1_555 1_555
H14_67 C18_67 1_555 1_555
H15_67 C18_67 1_555 1_555
H16_67 C18_67 1_555 1_555
Ag2_47 Ag1_47 1_555 1_555
Ag3_67 N2_67 1_555 1_555
P2_47 Ag1_47 1_555 1_555
N4_67 Ag1_47 1_555 1_555
P1_47 Ag2_47 1_555 1_555
C3_67 C4_67 1_555 1_555
C9_67 C10_67 1_555 1_555
C15_67 C16_67 1_555 1_555
Ag1_48 N1_68 1_555 1_555
P1_48 C1_68 1_555 1_555
N1_68 C1_68 1_555 1_555
N2_68 C2_68 1_555 1_555
C1_68 C2_68 1_555 1_555
C2_68 H1_68 1_555 1_555
C3_68 N2_68 1_555 1_555
H2_68 C3_68 1_555 1_555
C4_68 N1_68 1_555 1_555
H3_68 C4_68 1_555 1_555
C11_68 P1_48 1_555 1_555
C12_68 C11_68 1_555 1_555
C13_51 C12_68 1_555 1_555
H10_51 C13_51 1_555 1_555
C14_51 C13_51 1_555 1_555
H11_51 C14_51 1_555 1_555
C15_68 C14_51 1_555 1_555
H12_68 C15_68 1_555 1_555
C16_68 C11_68 1_555 1_555
H13_68 C16_68 1_555 1_555
N3_68 Ag1_48 1_555 1_555
C17_68 N3_68 1_555 1_555
C18_68 C17_68 1_555 1_555
H14_68 C18_68 1_555 1_555
H15_68 C18_68 1_555 1_555
H16_68 C18_68 1_555 1_555
Ag3_68 N2_68 1_555 1_555
N4_68 Ag1_48 1_555 1_555
C3_68 C4_68 1_555 1_555
C15_68 C16_68 1_555 1_555
C6_68 C5_68 1_555 1_555
H4_68 C6_68 1_555 1_555
C7_68 C6_68 1_555 1_555
H5_68 C7_68 1_555 1_555
C8_68 C7_68 1_555 1_555
H6_68 C8_68 1_555 1_555
C9_68 C8_68 1_555 1_555
H7_68 C9_68 1_555 1_555
C10_68 C5_68 1_555 1_555
C9_68 C10_68 1_555 1_555
Ag2_32 N1_69 1_555 1_555
P2_32 C1_69 1_555 1_555
N1_69 C1_69 1_555 1_555
N2_69 C2_69 1_555 1_555
C1_69 C2_69 1_555 1_555
C2_69 H1_69 1_555 1_555
C3_69 N2_69 1_555 1_555
H2_69 C3_69 1_555 1_555
C4_69 N1_69 1_555 1_555
H3_69 C4_69 1_555 1_555
C5_69 P2_32 1_555 1_555
C6_69 C5_69 1_555 1_555
H4_69 C6_69 1_555 1_555
C7_69 C6_69 1_555 1_555
H5_69 C7_69 1_555 1_555
C8_69 C7_69 1_555 1_555
H6_69 C8_69 1_555 1_555
C9_69 C8_69 1_555 1_555
H7_69 C9_69 1_555 1_555
C10_69 C5_69 1_555 1_555
H8_69 C10_69 1_555 1_555
C11_69 P2_32 1_555 1_555
C12_69 C11_69 1_555 1_555
H9_69 C12_69 1_555 1_555
C13_52 C12_69 1_555 1_555
H10_52 C13_52 1_555 1_555
C14_52 C13_52 1_555 1_555
H11_52 C14_52 1_555 1_555
C15_69 C14_52 1_555 1_555
H12_69 C15_69 1_555 1_555
C16_69 C11_69 1_555 1_555
H13_69 C16_69 1_555 1_555
N3_69 Ag2_32 1_555 1_555
C17_69 N3_69 1_555 1_555
C18_69 C17_69 1_555 1_555
H14_69 C18_69 1_555 1_555
H15_69 C18_69 1_555 1_555
H16_69 C18_69 1_555 1_555
Ag3_69 N2_69 1_555 1_555
N4_69 Ag2_32 1_555 1_555
C3_69 C4_69 1_555 1_555
C9_69 C10_69 1_555 1_555
C15_69 C16_69 1_555 1_555
Ag2_30 N1_70 1_555 1_555
P2_30 C1_70 1_555 1_555
N1_70 C1_70 1_555 1_555
N2_70 C2_70 1_555 1_555
C1_70 C2_70 1_555 1_555
C2_70 H1_70 1_555 1_555
C3_70 N2_70 1_555 1_555
H2_70 C3_70 1_555 1_555
C4_70 N1_70 1_555 1_555
H3_70 C4_70 1_555 1_555
C5_70 P2_30 1_555 1_555
C6_70 C5_70 1_555 1_555
H4_70 C6_70 1_555 1_555
C7_70 C6_70 1_555 1_555
H5_70 C7_70 1_555 1_555
C8_70 C7_70 1_555 1_555
H6_70 C8_70 1_555 1_555
C9_70 C8_70 1_555 1_555
H7_70 C9_70 1_555 1_555
C10_70 C5_70 1_555 1_555
H8_70 C10_70 1_555 1_555
C11_70 P2_30 1_555 1_555
C12_70 C11_70 1_555 1_555
H9_70 C12_70 1_555 1_555
C13_53 C12_70 1_555 1_555
H10_53 C13_53 1_555 1_555
C14_53 C13_53 1_555 1_555
H11_53 C14_53 1_555 1_555
C15_70 C14_53 1_555 1_555
H12_70 C15_70 1_555 1_555
C16_70 C11_70 1_555 1_555
H13_70 C16_70 1_555 1_555
N3_70 Ag2_30 1_555 1_555
C17_70 N3_70 1_555 1_555
C18_70 C17_70 1_555 1_555
H14_70 C18_70 1_555 1_555
H15_70 C18_70 1_555 1_555
H16_70 C18_70 1_555 1_555
Ag3_70 N2_70 1_555 1_555
N4_70 Ag2_30 1_555 1_555
C3_70 C4_70 1_555 1_555
C9_70 C10_70 1_555 1_555
C15_70 C16_70 1_555 1_555
Ag2_31 N1_71 1_555 1_555
P2_31 C1_71 1_555 1_555
N1_71 C1_71 1_555 1_555
N2_71 C2_71 1_555 1_555
C1_71 C2_71 1_555 1_555
C2_71 H1_71 1_555 1_555
C3_71 N2_71 1_555 1_555
H2_71 C3_71 1_555 1_555
C4_71 N1_71 1_555 1_555
H3_71 C4_71 1_555 1_555
C11_71 P2_31 1_555 1_555
C12_71 C11_71 1_555 1_555
H12_71 C15_71 1_555 1_555
C16_71 C11_71 1_555 1_555
H13_71 C16_71 1_555 1_555
N3_71 Ag2_31 1_555 1_555
C17_71 N3_71 1_555 1_555
C18_71 C17_71 1_555 1_555
H14_71 C18_71 1_555 1_555
H15_71 C18_71 1_555 1_555
H16_71 C18_71 1_555 1_555
Ag3_71 N2_71 1_555 1_555
N4_71 Ag2_31 1_555 1_555
C3_71 C4_71 1_555 1_555
C15_71 C16_71 1_555 1_555
C6_71 C5_71 1_555 1_555
H4_71 C6_71 1_555 1_555
C7_71 C6_71 1_555 1_555
H5_71 C7_71 1_555 1_555
C8_71 C7_71 1_555 1_555
H6_71 C8_71 1_555 1_555
C9_71 C8_71 1_555 1_555
H7_71 C9_71 1_555 1_555
C10_71 C5_71 1_555 1_555
C9_71 C10_71 1_555 1_555
Ag2_29 N1_72 1_555 1_555
P2_29 C1_72 1_555 1_555
N1_72 C1_72 1_555 1_555
N2_72 C2_72 1_555 1_555
C1_72 C2_72 1_555 1_555
C2_72 H1_72 1_555 1_555
C3_72 N2_72 1_555 1_555
H2_72 C3_72 1_555 1_555
C4_72 N1_72 1_555 1_555
H3_72 C4_72 1_555 1_555
C5_72 P2_29 1_555 1_555
C6_72 C5_72 1_555 1_555
H4_72 C6_72 1_555 1_555
C7_72 C6_72 1_555 1_555
H5_72 C7_72 1_555 1_555
C8_72 C7_72 1_555 1_555
H6_72 C8_72 1_555 1_555
C9_72 C8_72 1_555 1_555
H7_72 C9_72 1_555 1_555
C10_72 C5_72 1_555 1_555
H8_72 C10_72 1_555 1_555
C11_72 P2_29 1_555 1_555
C12_72 C11_72 1_555 1_555
H9_72 C12_72 1_555 1_555
C13_54 C12_72 1_555 1_555
H10_54 C13_54 1_555 1_555
C14_54 C13_54 1_555 1_555
H11_54 C14_54 1_555 1_555
C15_72 C14_54 1_555 1_555
H12_72 C15_72 1_555 1_555
C16_72 C11_72 1_555 1_555
H13_72 C16_72 1_555 1_555
N3_72 Ag2_29 1_555 1_555
C17_72 N3_72 1_555 1_555
C18_72 C17_72 1_555 1_555
H14_72 C18_72 1_555 1_555
H15_72 C18_72 1_555 1_555
H16_72 C18_72 1_555 1_555
Ag3_72 N2_72 1_555 1_555
N4_72 Ag2_29 1_555 1_555
C3_72 C4_72 1_555 1_555
C9_72 C10_72 1_555 1_555
C15_72 C16_72 1_555 1_555
Ag2_47 N1_73 1_555 1_555
P2_47 C1_73 1_555 1_555
N1_73 C1_73 1_555 1_555
N2_73 C2_73 1_555 1_555
C1_73 C2_73 1_555 1_555
C2_73 H1_73 1_555 1_555
C3_73 N2_73 1_555 1_555
H2_73 C3_73 1_555 1_555
C4_73 N1_73 1_555 1_555
H3_73 C4_73 1_555 1_555
C5_73 P2_47 1_555 1_555
C6_73 C5_73 1_555 1_555
H4_73 C6_73 1_555 1_555
C7_73 C6_73 1_555 1_555
H5_73 C7_73 1_555 1_555
C8_73 C7_73 1_555 1_555
H6_73 C8_73 1_555 1_555
C9_73 C8_73 1_555 1_555
H7_73 C9_73 1_555 1_555
C10_73 C5_73 1_555 1_555
H8_73 C10_73 1_555 1_555
C11_73 P2_47 1_555 1_555
C12_73 C11_73 1_555 1_555
H9_73 C12_73 1_555 1_555
C13_55 C12_73 1_555 1_555
H10_55 C13_55 1_555 1_555
C14_55 C13_55 1_555 1_555
H11_55 C14_55 1_555 1_555
C15_73 C14_55 1_555 1_555
H12_73 C15_73 1_555 1_555
C16_73 C11_73 1_555 1_555
H13_73 C16_73 1_555 1_555
N3_73 Ag2_47 1_555 1_555
C17_73 N3_73 1_555 1_555
C18_73 C17_73 1_555 1_555
H14_73 C18_73 1_555 1_555
H15_73 C18_73 1_555 1_555
H16_73 C18_73 1_555 1_555
Ag3_73 N2_73 1_555 1_555
N4_73 Ag2_47 1_555 1_555
C3_73 C4_73 1_555 1_555
C9_73 C10_73 1_555 1_555
C15_73 C16_73 1_555 1_555
Ag2_45 N1_74 1_555 1_555
P2_45 C1_74 1_555 1_555
N1_74 C1_74 1_555 1_555
N2_74 C2_74 1_555 1_555
C1_74 C2_74 1_555 1_555
C2_74 H1_74 1_555 1_555
C3_74 N2_74 1_555 1_555
H2_74 C3_74 1_555 1_555
C4_74 N1_74 1_555 1_555
H3_74 C4_74 1_555 1_555
C5_74 P2_45 1_555 1_555
C6_74 C5_74 1_555 1_555
H4_74 C6_74 1_555 1_555
C7_74 C6_74 1_555 1_555
H5_74 C7_74 1_555 1_555
C8_74 C7_74 1_555 1_555
H6_74 C8_74 1_555 1_555
C9_74 C8_74 1_555 1_555
H7_74 C9_74 1_555 1_555
C10_74 C5_74 1_555 1_555
H8_74 C10_74 1_555 1_555
C11_74 P2_45 1_555 1_555
C12_74 C11_74 1_555 1_555
H9_74 C12_74 1_555 1_555
H12_74 C15_74 1_555 1_555
C16_74 C11_74 1_555 1_555
H13_74 C16_74 1_555 1_555
N3_74 Ag2_45 1_555 1_555
C17_74 N3_74 1_555 1_555
C18_74 C17_74 1_555 1_555
H14_74 C18_74 1_555 1_555
H15_74 C18_74 1_555 1_555
H16_74 C18_74 1_555 1_555
Ag3_74 N2_74 1_555 1_555
N4_74 Ag2_45 1_555 1_555
C3_74 C4_74 1_555 1_555
C9_74 C10_74 1_555 1_555
C15_74 C16_74 1_555 1_555
C6_75 C5_75 1_555 1_555
H4_75 C6_75 1_555 1_555
C7_75 C6_75 1_555 1_555
H5_75 C7_75 1_555 1_555
C8_75 C7_75 1_555 1_555
H6_75 C8_75 1_555 1_555
C9_75 C8_75 1_555 1_555
H7_75 C9_75 1_555 1_555
C10_75 C5_75 1_555 1_555
C9_75 C10_75 1_555 1_555
Ag2_48 N1_75 1_555 1_555
P2_48 C1_75 1_555 1_555
N1_75 C1_75 1_555 1_555
N2_75 C2_75 1_555 1_555
C1_75 C2_75 1_555 1_555
C2_75 H1_75 1_555 1_555
C3_75 N2_75 1_555 1_555
H2_75 C3_75 1_555 1_555
C4_75 N1_75 1_555 1_555
H3_75 C4_75 1_555 1_555
C11_75 P2_48 1_555 1_555
C12_75 C11_75 1_555 1_555
C13_56 C12_75 1_555 1_555
H10_56 C13_56 1_555 1_555
C14_56 C13_56 1_555 1_555
H11_56 C14_56 1_555 1_555
C15_75 C14_56 1_555 1_555
H12_75 C15_75 1_555 1_555
C16_75 C11_75 1_555 1_555
H13_75 C16_75 1_555 1_555
N3_75 Ag2_48 1_555 1_555
C17_75 N3_75 1_555 1_555
C18_75 C17_75 1_555 1_555
H14_75 C18_75 1_555 1_555
H15_75 C18_75 1_555 1_555
H16_75 C18_75 1_555 1_555
Ag3_75 N2_75 1_555 1_555
N4_75 Ag2_48 1_555 1_555
C3_75 C4_75 1_555 1_555
C15_75 C16_75 1_555 1_555
Ag2_46 N1_76 1_555 1_555
P2_46 C1_76 1_555 1_555
N1_76 C1_76 1_555 1_555
N2_76 C2_76 1_555 1_555
C1_76 C2_76 1_555 1_555
C2_76 H1_76 1_555 1_555
C3_76 N2_76 1_555 1_555
H2_76 C3_76 1_555 1_555
C4_76 N1_76 1_555 1_555
H3_76 C4_76 1_555 1_555
C5_76 P2_46 1_555 1_555
C6_76 C5_76 1_555 1_555
H4_76 C6_76 1_555 1_555
C7_76 C6_76 1_555 1_555
H5_76 C7_76 1_555 1_555
C8_76 C7_76 1_555 1_555
H6_76 C8_76 1_555 1_555
C9_76 C8_76 1_555 1_555
H7_76 C9_76 1_555 1_555
C10_76 C5_76 1_555 1_555
H8_76 C10_76 1_555 1_555
C11_76 P2_46 1_555 1_555
C12_76 C11_76 1_555 1_555
H9_76 C12_76 1_555 1_555
C13_57 C12_76 1_555 1_555
H10_57 C13_57 1_555 1_555
C14_57 C13_57 1_555 1_555
H11_57 C14_57 1_555 1_555
C15_76 C14_57 1_555 1_555
H12_76 C15_76 1_555 1_555
C16_76 C11_76 1_555 1_555
H13_76 C16_76 1_555 1_555
N3_76 Ag2_46 1_555 1_555
C17_76 N3_76 1_555 1_555
C18_76 C17_76 1_555 1_555
H14_76 C18_76 1_555 1_555
H15_76 C18_76 1_555 1_555
H16_76 C18_76 1_555 1_555
Ag3_76 N2_76 1_555 1_555
N4_76 Ag2_46 1_555 1_555
C3_76 C4_76 1_555 1_555
C9_76 C10_76 1_555 1_555
C15_76 C16_76 1_555 1_555
Ag2_34 N1_77 1_555 1_555
P2_34 C1_77 1_555 1_555
N1_77 C1_77 1_555 1_555
N2_77 C2_77 1_555 1_555
C1_77 C2_77 1_555 1_555
C2_77 H1_77 1_555 1_555
C3_77 N2_77 1_555 1_555
H2_77 C3_77 1_555 1_555
C4_77 N1_77 1_555 1_555
H3_77 C4_77 1_555 1_555
C5_77 P2_34 1_555 1_555
C6_77 C5_77 1_555 1_555
H4_77 C6_77 1_555 1_555
C7_77 C6_77 1_555 1_555
H5_77 C7_77 1_555 1_555
C8_77 C7_77 1_555 1_555
H6_77 C8_77 1_555 1_555
C9_77 C8_77 1_555 1_555
H7_77 C9_77 1_555 1_555
C10_77 C5_77 1_555 1_555
H8_77 C10_77 1_555 1_555
C11_77 P2_34 1_555 1_555
C12_77 C11_77 1_555 1_555
H9_77 C12_77 1_555 1_555
H12_77 C15_77 1_555 1_555
C16_77 C11_77 1_555 1_555
H13_77 C16_77 1_555 1_555
N3_77 Ag2_34 1_555 1_555
C17_77 N3_77 1_555 1_555
C18_77 C17_77 1_555 1_555
H14_77 C18_77 1_555 1_555
H15_77 C18_77 1_555 1_555
H16_77 C18_77 1_555 1_555
Ag3_77 N2_77 1_555 1_555
N4_77 Ag2_34 1_555 1_555
C3_77 C4_77 1_555 1_555
C9_77 C10_77 1_555 1_555
C15_77 C16_77 1_555 1_555
Ag2_36 N1_78 1_555 1_555
P2_36 C1_78 1_555 1_555
N1_78 C1_78 1_555 1_555
N2_78 C2_78 1_555 1_555
C1_78 C2_78 1_555 1_555
C2_78 H1_78 1_555 1_555
C3_78 N2_78 1_555 1_555
H2_78 C3_78 1_555 1_555
C4_78 N1_78 1_555 1_555
H3_78 C4_78 1_555 1_555
C5_78 P2_36 1_555 1_555
C6_78 C5_78 1_555 1_555
H4_78 C6_78 1_555 1_555
C7_78 C6_78 1_555 1_555
H5_78 C7_78 1_555 1_555
C8_78 C7_78 1_555 1_555
H6_78 C8_78 1_555 1_555
C9_78 C8_78 1_555 1_555
H7_78 C9_78 1_555 1_555
C10_78 C5_78 1_555 1_555
H8_78 C10_78 1_555 1_555
C11_78 P2_36 1_555 1_555
C12_78 C11_78 1_555 1_555
H9_78 C12_78 1_555 1_555
C13_58 C12_78 1_555 1_555
H10_58 C13_58 1_555 1_555
C14_58 C13_58 1_555 1_555
H11_58 C14_58 1_555 1_555
C15_78 C14_58 1_555 1_555
H12_78 C15_78 1_555 1_555
C16_78 C11_78 1_555 1_555
H13_78 C16_78 1_555 1_555
N3_78 Ag2_36 1_555 1_555
C17_78 N3_78 1_555 1_555
C18_78 C17_78 1_555 1_555
H14_78 C18_78 1_555 1_555
H15_78 C18_78 1_555 1_555
H16_78 C18_78 1_555 1_555
Ag3_78 N2_78 1_555 1_555
N4_78 Ag2_36 1_555 1_555
C3_78 C4_78 1_555 1_555
C9_78 C10_78 1_555 1_555
C15_78 C16_78 1_555 1_555
C6_79 C5_79 1_555 1_555
H4_79 C6_79 1_555 1_555
C7_79 C6_79 1_555 1_555
H5_79 C7_79 1_555 1_555
C8_79 C7_79 1_555 1_555
H6_79 C8_79 1_555 1_555
C9_79 C8_79 1_555 1_555
H7_79 C9_79 1_555 1_555
C10_79 C5_79 1_555 1_555
C9_79 C10_79 1_555 1_555
Ag2_33 N1_79 1_555 1_555
P2_33 C1_79 1_555 1_555
N1_79 C1_79 1_555 1_555
N2_79 C2_79 1_555 1_555
C1_79 C2_79 1_555 1_555
C2_79 H1_79 1_555 1_555
C3_79 N2_79 1_555 1_555
H2_79 C3_79 1_555 1_555
C4_79 N1_79 1_555 1_555
H3_79 C4_79 1_555 1_555
C11_79 P2_33 1_555 1_555
C12_79 C11_79 1_555 1_555
C13_59 C12_79 1_555 1_555
H10_59 C13_59 1_555 1_555
C14_59 C13_59 1_555 1_555
H11_59 C14_59 1_555 1_555
C15_79 C14_59 1_555 1_555
H12_79 C15_79 1_555 1_555
C16_79 C11_79 1_555 1_555
H13_79 C16_79 1_555 1_555
N3_79 Ag2_33 1_555 1_555
C17_79 N3_79 1_555 1_555
C18_79 C17_79 1_555 1_555
H14_79 C18_79 1_555 1_555
H15_79 C18_79 1_555 1_555
H16_79 C18_79 1_555 1_555
Ag3_79 N2_79 1_555 1_555
N4_79 Ag2_33 1_555 1_555
C3_79 C4_79 1_555 1_555
C15_79 C16_79 1_555 1_555
Ag2_35 N1_80 1_555 1_555
P2_35 C1_80 1_555 1_555
N1_80 C1_80 1_555 1_555
N2_80 C2_80 1_555 1_555
C1_80 C2_80 1_555 1_555
C2_80 H1_80 1_555 1_555
C3_80 N2_80 1_555 1_555
H2_80 C3_80 1_555 1_555
C4_80 N1_80 1_555 1_555
H3_80 C4_80 1_555 1_555
C5_80 P2_35 1_555 1_555
C6_80 C5_80 1_555 1_555
H4_80 C6_80 1_555 1_555
C7_80 C6_80 1_555 1_555
H5_80 C7_80 1_555 1_555
C8_80 C7_80 1_555 1_555
H6_80 C8_80 1_555 1_555
C9_80 C8_80 1_555 1_555
H7_80 C9_80 1_555 1_555
C10_80 C5_80 1_555 1_555
H8_80 C10_80 1_555 1_555
C11_80 P2_35 1_555 1_555
C12_80 C11_80 1_555 1_555
H9_80 C12_80 1_555 1_555
C13_60 C12_80 1_555 1_555
H10_60 C13_60 1_555 1_555
C14_60 C13_60 1_555 1_555
H11_60 C14_60 1_555 1_555
C15_80 C14_60 1_555 1_555
H12_80 C15_80 1_555 1_555
C16_80 C11_80 1_555 1_555
H13_80 C16_80 1_555 1_555
N3_80 Ag2_35 1_555 1_555
C17_80 N3_80 1_555 1_555
C18_80 C17_80 1_555 1_555
H14_80 C18_80 1_555 1_555
H15_80 C18_80 1_555 1_555
H16_80 C18_80 1_555 1_555
Ag3_80 N2_80 1_555 1_555
N4_80 Ag2_35 1_555 1_555
C3_80 C4_80 1_555 1_555
C9_80 C10_80 1_555 1_555
C15_80 C16_80 1_555 1_555
Ag2_24 N1_81 1_555 1_555
P2_24 C1_81 1_555 1_555
N1_81 C1_81 1_555 1_555
N2_81 C2_81 1_555 1_555
C1_81 C2_81 1_555 1_555
C2_81 H1_81 1_555 1_555
C3_81 N2_81 1_555 1_555
H2_81 C3_81 1_555 1_555
C4_81 N1_81 1_555 1_555
H3_81 C4_81 1_555 1_555
C5_81 P2_24 1_555 1_555
C6_81 C5_81 1_555 1_555
H4_81 C6_81 1_555 1_555
C7_81 C6_81 1_555 1_555
H5_81 C7_81 1_555 1_555
C8_81 C7_81 1_555 1_555
H6_81 C8_81 1_555 1_555
C9_81 C8_81 1_555 1_555
H7_81 C9_81 1_555 1_555
C10_81 C5_81 1_555 1_555
H8_81 C10_81 1_555 1_555
C11_81 P2_24 1_555 1_555
C12_81 C11_81 1_555 1_555
H9_81 C12_81 1_555 1_555
H12_81 C15_81 1_555 1_555
C16_81 C11_81 1_555 1_555
H13_81 C16_81 1_555 1_555
N3_81 Ag2_24 1_555 1_555
C17_81 N3_81 1_555 1_555
C18_81 C17_81 1_555 1_555
H14_81 C18_81 1_555 1_555
H15_81 C18_81 1_555 1_555
H16_81 C18_81 1_555 1_555
Ag3_81 N2_81 1_555 1_555
N4_81 Ag2_24 1_555 1_555
C3_81 C4_81 1_555 1_555
C9_81 C10_81 1_555 1_555
C15_81 C16_81 1_555 1_555
C6_82 C5_82 1_555 1_555
H4_82 C6_82 1_555 1_555
C7_82 C6_82 1_555 1_555
H5_82 C7_82 1_555 1_555
C8_82 C7_82 1_555 1_555
H6_82 C8_82 1_555 1_555
C9_82 C8_82 1_555 1_555
H7_82 C9_82 1_555 1_555
C10_82 C5_82 1_555 1_555
C9_82 C10_82 1_555 1_555
Ag2_22 N1_82 1_555 1_555
P2_22 C1_82 1_555 1_555
N1_82 C1_82 1_555 1_555
N2_82 C2_82 1_555 1_555
C1_82 C2_82 1_555 1_555
C2_82 H1_82 1_555 1_555
C3_82 N2_82 1_555 1_555
H2_82 C3_82 1_555 1_555
C4_82 N1_82 1_555 1_555
H3_82 C4_82 1_555 1_555
C11_82 P2_22 1_555 1_555
C12_82 C11_82 1_555 1_555
C13_61 C12_82 1_555 1_555
H10_61 C13_61 1_555 1_555
C14_61 C13_61 1_555 1_555
H11_61 C14_61 1_555 1_555
C15_82 C14_61 1_555 1_555
H12_82 C15_82 1_555 1_555
C16_82 C11_82 1_555 1_555
H13_82 C16_82 1_555 1_555
N3_82 Ag2_22 1_555 1_555
C17_82 N3_82 1_555 1_555
C18_82 C17_82 1_555 1_555
H14_82 C18_82 1_555 1_555
H15_82 C18_82 1_555 1_555
H16_82 C18_82 1_555 1_555
Ag3_82 N2_82 1_555 1_555
N4_82 Ag2_22 1_555 1_555
C3_82 C4_82 1_555 1_555
C15_82 C16_82 1_555 1_555
Ag2_23 N1_83 1_555 1_555
P2_23 C1_83 1_555 1_555
N1_83 C1_83 1_555 1_555
N2_83 C2_83 1_555 1_555
C1_83 C2_83 1_555 1_555
C2_83 H1_83 1_555 1_555
C3_83 N2_83 1_555 1_555
H2_83 C3_83 1_555 1_555
C4_83 N1_83 1_555 1_555
H3_83 C4_83 1_555 1_555
C5_83 P2_23 1_555 1_555
C6_83 C5_83 1_555 1_555
H4_83 C6_83 1_555 1_555
C7_83 C6_83 1_555 1_555
H5_83 C7_83 1_555 1_555
C8_83 C7_83 1_555 1_555
H6_83 C8_83 1_555 1_555
C9_83 C8_83 1_555 1_555
H7_83 C9_83 1_555 1_555
C10_83 C5_83 1_555 1_555
H8_83 C10_83 1_555 1_555
C11_83 P2_23 1_555 1_555
C12_83 C11_83 1_555 1_555
H9_83 C12_83 1_555 1_555
C13_62 C12_83 1_555 1_555
H10_62 C13_62 1_555 1_555
C14_62 C13_62 1_555 1_555
H11_62 C14_62 1_555 1_555
C15_83 C14_62 1_555 1_555
H12_83 C15_83 1_555 1_555
C16_83 C11_83 1_555 1_555
H13_83 C16_83 1_555 1_555
N3_83 Ag2_23 1_555 1_555
C17_83 N3_83 1_555 1_555
C18_83 C17_83 1_555 1_555
H14_83 C18_83 1_555 1_555
H15_83 C18_83 1_555 1_555
H16_83 C18_83 1_555 1_555
Ag3_83 N2_83 1_555 1_555
N4_83 Ag2_23 1_555 1_555
C3_83 C4_83 1_555 1_555
C9_83 C10_83 1_555 1_555
C15_83 C16_83 1_555 1_555
Ag2_21 N1_84 1_555 1_555
P2_21 C1_84 1_555 1_555
N1_84 C1_84 1_555 1_555
N2_84 C2_84 1_555 1_555
C1_84 C2_84 1_555 1_555
C2_84 H1_84 1_555 1_555
C3_84 N2_84 1_555 1_555
H2_84 C3_84 1_555 1_555
C4_84 N1_84 1_555 1_555
H3_84 C4_84 1_555 1_555
C5_84 P2_21 1_555 1_555
C6_84 C5_84 1_555 1_555
H4_84 C6_84 1_555 1_555
C7_84 C6_84 1_555 1_555
H5_84 C7_84 1_555 1_555
C8_84 C7_84 1_555 1_555
H6_84 C8_84 1_555 1_555
C9_84 C8_84 1_555 1_555
H7_84 C9_84 1_555 1_555
C10_84 C5_84 1_555 1_555
H8_84 C10_84 1_555 1_555
C11_84 P2_21 1_555 1_555
C12_84 C11_84 1_555 1_555
H9_84 C12_84 1_555 1_555
C13_63 C12_84 1_555 1_555
H10_63 C13_63 1_555 1_555
C14_63 C13_63 1_555 1_555
H11_63 C14_63 1_555 1_555
C15_84 C14_63 1_555 1_555
H12_84 C15_84 1_555 1_555
C16_84 C11_84 1_555 1_555
H13_84 C16_84 1_555 1_555
N3_84 Ag2_21 1_555 1_555
C17_84 N3_84 1_555 1_555
C18_84 C17_84 1_555 1_555
H14_84 C18_84 1_555 1_555
H15_84 C18_84 1_555 1_555
H16_84 C18_84 1_555 1_555
Ag3_84 N2_84 1_555 1_555
N4_84 Ag2_21 1_555 1_555
C3_84 C4_84 1_555 1_555
C9_84 C10_84 1_555 1_555
C15_84 C16_84 1_555 1_555
Ag2_27 N1_85 1_555 1_555
P2_27 C1_85 1_555 1_555
N1_85 C1_85 1_555 1_555
N2_85 C2_85 1_555 1_555
C1_85 C2_85 1_555 1_555
C2_85 H1_85 1_555 1_555
C3_85 N2_85 1_555 1_555
H2_85 C3_85 1_555 1_555
C4_85 N1_85 1_555 1_555
H3_85 C4_85 1_555 1_555
C11_85 P2_27 1_555 1_555
C12_85 C11_85 1_555 1_555
C13_64 C12_85 1_555 1_555
H10_64 C13_64 1_555 1_555
C14_64 C13_64 1_555 1_555
H11_64 C14_64 1_555 1_555
C15_85 C14_64 1_555 1_555
H12_85 C15_85 1_555 1_555
C16_85 C11_85 1_555 1_555
H13_85 C16_85 1_555 1_555
N3_85 Ag2_27 1_555 1_555
C17_85 N3_85 1_555 1_555
C18_85 C17_85 1_555 1_555
H14_85 C18_85 1_555 1_555
H15_85 C18_85 1_555 1_555
H16_85 C18_85 1_555 1_555
Ag3_85 N2_85 1_555 1_555
N4_85 Ag2_27 1_555 1_555
C3_85 C4_85 1_555 1_555
C15_85 C16_85 1_555 1_555
C6_85 C5_85 1_555 1_555
H4_85 C6_85 1_555 1_555
C7_85 C6_85 1_555 1_555
H5_85 C7_85 1_555 1_555
C8_85 C7_85 1_555 1_555
H6_85 C8_85 1_555 1_555
C9_85 C8_85 1_555 1_555
H7_85 C9_85 1_555 1_555
C10_85 C5_85 1_555 1_555
C9_85 C10_85 1_555 1_555
Ag2_25 N1_86 1_555 1_555
P2_25 C1_86 1_555 1_555
N1_86 C1_86 1_555 1_555
N2_86 C2_86 1_555 1_555
C1_86 C2_86 1_555 1_555
C2_86 H1_86 1_555 1_555
C3_86 N2_86 1_555 1_555
H2_86 C3_86 1_555 1_555
C4_86 N1_86 1_555 1_555
H3_86 C4_86 1_555 1_555
C5_86 P2_25 1_555 1_555
C6_86 C5_86 1_555 1_555
H4_86 C6_86 1_555 1_555
C7_86 C6_86 1_555 1_555
H5_86 C7_86 1_555 1_555
C8_86 C7_86 1_555 1_555
H6_86 C8_86 1_555 1_555
C9_86 C8_86 1_555 1_555
H7_86 C9_86 1_555 1_555
C10_86 C5_86 1_555 1_555
H8_86 C10_86 1_555 1_555
C11_86 P2_25 1_555 1_555
C12_86 C11_86 1_555 1_555
H9_86 C12_86 1_555 1_555
H12_86 C15_86 1_555 1_555
C16_86 C11_86 1_555 1_555
H13_86 C16_86 1_555 1_555
N3_86 Ag2_25 1_555 1_555
C17_86 N3_86 1_555 1_555
C18_86 C17_86 1_555 1_555
H14_86 C18_86 1_555 1_555
H15_86 C18_86 1_555 1_555
H16_86 C18_86 1_555 1_555
Ag3_86 N2_86 1_555 1_555
N4_86 Ag2_25 1_555 1_555
C3_86 C4_86 1_555 1_555
C9_86 C10_86 1_555 1_555
C15_86 C16_86 1_555 1_555
Ag2_28 N1_87 1_555 1_555
P2_28 C1_87 1_555 1_555
N1_87 C1_87 1_555 1_555
N2_87 C2_87 1_555 1_555
C1_87 C2_87 1_555 1_555
C2_87 H1_87 1_555 1_555
C3_87 N2_87 1_555 1_555
H2_87 C3_87 1_555 1_555
C4_87 N1_87 1_555 1_555
H3_87 C4_87 1_555 1_555
C5_87 P2_28 1_555 1_555
C6_87 C5_87 1_555 1_555
H4_87 C6_87 1_555 1_555
C7_87 C6_87 1_555 1_555
H5_87 C7_87 1_555 1_555
C8_87 C7_87 1_555 1_555
H6_87 C8_87 1_555 1_555
C9_87 C8_87 1_555 1_555
H7_87 C9_87 1_555 1_555
C10_87 C5_87 1_555 1_555
H8_87 C10_87 1_555 1_555
C11_87 P2_28 1_555 1_555
C12_87 C11_87 1_555 1_555
H9_87 C12_87 1_555 1_555
C13_65 C12_87 1_555 1_555
H10_65 C13_65 1_555 1_555
C14_65 C13_65 1_555 1_555
H11_65 C14_65 1_555 1_555
C15_87 C14_65 1_555 1_555
H12_87 C15_87 1_555 1_555
C16_87 C11_87 1_555 1_555
H13_87 C16_87 1_555 1_555
N3_87 Ag2_28 1_555 1_555
C17_87 N3_87 1_555 1_555
C18_87 C17_87 1_555 1_555
H14_87 C18_87 1_555 1_555
H15_87 C18_87 1_555 1_555
H16_87 C18_87 1_555 1_555
Ag3_87 N2_87 1_555 1_555
N4_87 Ag2_28 1_555 1_555
C3_87 C4_87 1_555 1_555
C9_87 C10_87 1_555 1_555
C15_87 C16_87 1_555 1_555
Ag2_26 N1_88 1_555 1_555
P2_26 C1_88 1_555 1_555
N1_88 C1_88 1_555 1_555
N2_88 C2_88 1_555 1_555
C1_88 C2_88 1_555 1_555
C2_88 H1_88 1_555 1_555
C3_88 N2_88 1_555 1_555
H2_88 C3_88 1_555 1_555
C4_88 N1_88 1_555 1_555
H3_88 C4_88 1_555 1_555
C5_88 P2_26 1_555 1_555
C6_88 C5_88 1_555 1_555
H4_88 C6_88 1_555 1_555
C7_88 C6_88 1_555 1_555
H5_88 C7_88 1_555 1_555
C8_88 C7_88 1_555 1_555
H6_88 C8_88 1_555 1_555
C9_88 C8_88 1_555 1_555
H7_88 C9_88 1_555 1_555
C10_88 C5_88 1_555 1_555
H8_88 C10_88 1_555 1_555
C11_88 P2_26 1_555 1_555
C12_88 C11_88 1_555 1_555
H9_88 C12_88 1_555 1_555
C13_66 C12_88 1_555 1_555
H10_66 C13_66 1_555 1_555
C14_66 C13_66 1_555 1_555
H11_66 C14_66 1_555 1_555
C15_88 C14_66 1_555 1_555
H12_88 C15_88 1_555 1_555
C16_88 C11_88 1_555 1_555
H13_88 C16_88 1_555 1_555
N3_88 Ag2_26 1_555 1_555
C17_88 N3_88 1_555 1_555
C18_88 C17_88 1_555 1_555
H14_88 C18_88 1_555 1_555
H15_88 C18_88 1_555 1_555
H16_88 C18_88 1_555 1_555
Ag3_88 N2_88 1_555 1_555
N4_88 Ag2_26 1_555 1_555
C3_88 C4_88 1_555 1_555
C9_88 C10_88 1_555 1_555
C15_88 C16_88 1_555 1_555
Ag2_42 N1_89 1_555 1_555
P2_42 C1_89 1_555 1_555
N1_89 C1_89 1_555 1_555
N2_89 C2_89 1_555 1_555
C1_89 C2_89 1_555 1_555
C2_89 H1_89 1_555 1_555
C3_89 N2_89 1_555 1_555
H2_89 C3_89 1_555 1_555
C4_89 N1_89 1_555 1_555
H3_89 C4_89 1_555 1_555
C5_89 P2_42 1_555 1_555
C6_89 C5_89 1_555 1_555
H4_89 C6_89 1_555 1_555
C7_89 C6_89 1_555 1_555
H5_89 C7_89 1_555 1_555
C8_89 C7_89 1_555 1_555
H6_89 C8_89 1_555 1_555
C9_89 C8_89 1_555 1_555
H7_89 C9_89 1_555 1_555
C10_89 C5_89 1_555 1_555
H8_89 C10_89 1_555 1_555
C11_89 P2_42 1_555 1_555
C12_89 C11_89 1_555 1_555
H9_89 C12_89 1_555 1_555
C13_67 C12_89 1_555 1_555
H10_67 C13_67 1_555 1_555
C14_67 C13_67 1_555 1_555
H11_67 C14_67 1_555 1_555
C15_89 C14_67 1_555 1_555
H12_89 C15_89 1_555 1_555
C16_89 C11_89 1_555 1_555
H13_89 C16_89 1_555 1_555
N3_89 Ag2_42 1_555 1_555
C17_89 N3_89 1_555 1_555
C18_89 C17_89 1_555 1_555
H14_89 C18_89 1_555 1_555
H15_89 C18_89 1_555 1_555
H16_89 C18_89 1_555 1_555
Ag3_89 N2_89 1_555 1_555
N4_89 Ag2_42 1_555 1_555
C3_89 C4_89 1_555 1_555
C9_89 C10_89 1_555 1_555
C15_89 C16_89 1_555 1_555
Ag2_44 N1_90 1_555 1_555
P2_44 C1_90 1_555 1_555
N1_90 C1_90 1_555 1_555
N2_90 C2_90 1_555 1_555
C1_90 C2_90 1_555 1_555
C2_90 H1_90 1_555 1_555
C3_90 N2_90 1_555 1_555
H2_90 C3_90 1_555 1_555
C4_90 N1_90 1_555 1_555
H3_90 C4_90 1_555 1_555
C5_90 P2_44 1_555 1_555
C6_90 C5_90 1_555 1_555
H4_90 C6_90 1_555 1_555
C7_90 C6_90 1_555 1_555
H5_90 C7_90 1_555 1_555
C8_90 C7_90 1_555 1_555
H6_90 C8_90 1_555 1_555
C9_90 C8_90 1_555 1_555
H7_90 C9_90 1_555 1_555
C10_90 C5_90 1_555 1_555
H8_90 C10_90 1_555 1_555
C11_90 P2_44 1_555 1_555
C12_90 C11_90 1_555 1_555
H9_90 C12_90 1_555 1_555
C13_68 C12_90 1_555 1_555
H10_68 C13_68 1_555 1_555
C14_68 C13_68 1_555 1_555
H11_68 C14_68 1_555 1_555
C15_90 C14_68 1_555 1_555
H12_90 C15_90 1_555 1_555
C16_90 C11_90 1_555 1_555
H13_90 C16_90 1_555 1_555
N3_90 Ag2_44 1_555 1_555
C17_90 N3_90 1_555 1_555
C18_90 C17_90 1_555 1_555
H14_90 C18_90 1_555 1_555
H15_90 C18_90 1_555 1_555
H16_90 C18_90 1_555 1_555
Ag3_90 N2_90 1_555 1_555
N4_90 Ag2_44 1_555 1_555
C3_90 C4_90 1_555 1_555
C9_90 C10_90 1_555 1_555
C15_90 C16_90 1_555 1_555
Ag2_41 N1_91 1_555 1_555
P2_41 C1_91 1_555 1_555
N1_91 C1_91 1_555 1_555
N2_91 C2_91 1_555 1_555
C1_91 C2_91 1_555 1_555
C2_91 H1_91 1_555 1_555
C3_91 N2_91 1_555 1_555
H2_91 C3_91 1_555 1_555
C4_91 N1_91 1_555 1_555
H3_91 C4_91 1_555 1_555
C5_91 P2_41 1_555 1_555
C6_91 C5_91 1_555 1_555
H4_91 C6_91 1_555 1_555
C7_91 C6_91 1_555 1_555
H5_91 C7_91 1_555 1_555
C8_91 C7_91 1_555 1_555
H6_91 C8_91 1_555 1_555
C9_91 C8_91 1_555 1_555
H7_91 C9_91 1_555 1_555
C10_91 C5_91 1_555 1_555
H8_91 C10_91 1_555 1_555
C11_91 P2_41 1_555 1_555
C12_91 C11_91 1_555 1_555
H9_91 C12_91 1_555 1_555
C13_69 C12_91 1_555 1_555
H10_69 C13_69 1_555 1_555
C14_69 C13_69 1_555 1_555
H11_69 C14_69 1_555 1_555
C15_91 C14_69 1_555 1_555
H12_91 C15_91 1_555 1_555
C16_91 C11_91 1_555 1_555
H13_91 C16_91 1_555 1_555
N3_91 Ag2_41 1_555 1_555
C17_91 N3_91 1_555 1_555
C18_91 C17_91 1_555 1_555
H14_91 C18_91 1_555 1_555
H15_91 C18_91 1_555 1_555
H16_91 C18_91 1_555 1_555
Ag3_91 N2_91 1_555 1_555
N4_91 Ag2_41 1_555 1_555
C3_91 C4_91 1_555 1_555
C9_91 C10_91 1_555 1_555
C15_91 C16_91 1_555 1_555
Ag2_43 N1_92 1_555 1_555
P2_43 C1_92 1_555 1_555
N1_92 C1_92 1_555 1_555
N2_92 C2_92 1_555 1_555
C1_92 C2_92 1_555 1_555
C2_92 H1_92 1_555 1_555
C3_92 N2_92 1_555 1_555
H2_92 C3_92 1_555 1_555
C4_92 N1_92 1_555 1_555
H3_92 C4_92 1_555 1_555
C11_92 P2_43 1_555 1_555
C12_92 C11_92 1_555 1_555
H12_92 C15_92 1_555 1_555
C16_92 C11_92 1_555 1_555
H13_92 C16_92 1_555 1_555
N3_92 Ag2_43 1_555 1_555
C17_92 N3_92 1_555 1_555
C18_92 C17_92 1_555 1_555
H14_92 C18_92 1_555 1_555
H15_92 C18_92 1_555 1_555
H16_92 C18_92 1_555 1_555
Ag3_92 N2_92 1_555 1_555
N4_92 Ag2_43 1_555 1_555
C3_92 C4_92 1_555 1_555
C15_92 C16_92 1_555 1_555
C6_92 C5_92 1_555 1_555
H4_92 C6_92 1_555 1_555
C7_92 C6_92 1_555 1_555
H5_92 C7_92 1_555 1_555
C8_92 C7_92 1_555 1_555
H6_92 C8_92 1_555 1_555
C9_92 C8_92 1_555 1_555
H7_92 C9_92 1_555 1_555
C10_92 C5_92 1_555 1_555
C9_92 C10_92 1_555 1_555
Ag2_12 N1_93 1_555 1_555
P2_12 C1_93 1_555 1_555
N1_93 C1_93 1_555 1_555
N2_93 C2_93 1_555 1_555
C1_93 C2_93 1_555 1_555
C2_93 H1_93 1_555 1_555
C3_93 N2_93 1_555 1_555
H2_93 C3_93 1_555 1_555
C4_93 N1_93 1_555 1_555
H3_93 C4_93 1_555 1_555
C5_93 P2_12 1_555 1_555
C6_93 C5_93 1_555 1_555
H4_93 C6_93 1_555 1_555
C7_93 C6_93 1_555 1_555
H5_93 C7_93 1_555 1_555
C8_93 C7_93 1_555 1_555
H6_93 C8_93 1_555 1_555
C9_93 C8_93 1_555 1_555
H7_93 C9_93 1_555 1_555
C10_93 C5_93 1_555 1_555
H8_93 C10_93 1_555 1_555
C11_93 P2_12 1_555 1_555
C12_93 C11_93 1_555 1_555
H9_93 C12_93 1_555 1_555
C13_70 C12_93 1_555 1_555
H10_70 C13_70 1_555 1_555
C14_70 C13_70 1_555 1_555
H11_70 C14_70 1_555 1_555
C15_93 C14_70 1_555 1_555
H12_93 C15_93 1_555 1_555
C16_93 C11_93 1_555 1_555
H13_93 C16_93 1_555 1_555
N3_93 Ag2_12 1_555 1_555
C17_93 N3_93 1_555 1_555
C18_93 C17_93 1_555 1_555
H14_93 C18_93 1_555 1_555
H15_93 C18_93 1_555 1_555
H16_93 C18_93 1_555 1_555
Ag3_93 N2_93 1_555 1_555
N4_93 Ag2_12 1_555 1_555
C3_93 C4_93 1_555 1_555
C9_93 C10_93 1_555 1_555
C15_93 C16_93 1_555 1_555
Ag2_10 N1_94 1_555 1_555
P2_10 C1_94 1_555 1_555
N1_94 C1_94 1_555 1_555
N2_94 C2_94 1_555 1_555
C1_94 C2_94 1_555 1_555
C2_94 H1_94 1_555 1_555
C3_94 N2_94 1_555 1_555
H2_94 C3_94 1_555 1_555
C4_94 N1_94 1_555 1_555
H3_94 C4_94 1_555 1_555
C11_94 P2_10 1_555 1_555
C12_94 C11_94 1_555 1_555
C13_71 C12_94 1_555 1_555
H10_71 C13_71 1_555 1_555
C14_71 C13_71 1_555 1_555
H11_71 C14_71 1_555 1_555
C15_94 C14_71 1_555 1_555
H12_94 C15_94 1_555 1_555
C16_94 C11_94 1_555 1_555
H13_94 C16_94 1_555 1_555
N3_94 Ag2_10 1_555 1_555
C17_94 N3_94 1_555 1_555
C18_94 C17_94 1_555 1_555
H14_94 C18_94 1_555 1_555
H15_94 C18_94 1_555 1_555
H16_94 C18_94 1_555 1_555
Ag3_94 N2_94 1_555 1_555
N4_94 Ag2_10 1_555 1_555
C3_94 C4_94 1_555 1_555
C15_94 C16_94 1_555 1_555
C6_94 C5_94 1_555 1_555
H4_94 C6_94 1_555 1_555
C7_94 C6_94 1_555 1_555
H5_94 C7_94 1_555 1_555
C8_94 C7_94 1_555 1_555
H6_94 C8_94 1_555 1_555
C9_94 C8_94 1_555 1_555
H7_94 C9_94 1_555 1_555
C10_94 C5_94 1_555 1_555
C9_94 C10_94 1_555 1_555
Ag2_11 N1_95 1_555 1_555
P2_11 C1_95 1_555 1_555
N1_95 C1_95 1_555 1_555
N2_95 C2_95 1_555 1_555
C1_95 C2_95 1_555 1_555
C2_95 H1_95 1_555 1_555
C3_95 N2_95 1_555 1_555
H2_95 C3_95 1_555 1_555
C4_95 N1_95 1_555 1_555
H3_95 C4_95 1_555 1_555
C5_95 P2_11 1_555 1_555
C6_95 C5_95 1_555 1_555
H4_95 C6_95 1_555 1_555
C7_95 C6_95 1_555 1_555
H5_95 C7_95 1_555 1_555
C8_95 C7_95 1_555 1_555
H6_95 C8_95 1_555 1_555
C9_95 C8_95 1_555 1_555
H7_95 C9_95 1_555 1_555
C10_95 C5_95 1_555 1_555
H8_95 C10_95 1_555 1_555
C11_95 P2_11 1_555 1_555
C12_95 C11_95 1_555 1_555
H9_95 C12_95 1_555 1_555
H12_95 C15_95 1_555 1_555
C16_95 C11_95 1_555 1_555
H13_95 C16_95 1_555 1_555
N3_95 Ag2_11 1_555 1_555
C17_95 N3_95 1_555 1_555
C18_95 C17_95 1_555 1_555
H14_95 C18_95 1_555 1_555
H15_95 C18_95 1_555 1_555
H16_95 C18_95 1_555 1_555
Ag3_95 N2_95 1_555 1_555
N4_95 Ag2_11 1_555 1_555
C3_95 C4_95 1_555 1_555
C9_95 C10_95 1_555 1_555
C15_95 C16_95 1_555 1_555
Ag2_9 N1_96 1_555 1_555
P2_9 C1_96 1_555 1_555
N1_96 C1_96 1_555 1_555
N2_96 C2_96 1_555 1_555
C1_96 C2_96 1_555 1_555
C2_96 H1_96 1_555 1_555
C3_96 N2_96 1_555 1_555
H2_96 C3_96 1_555 1_555
C4_96 N1_96 1_555 1_555
H3_96 C4_96 1_555 1_555
C5_96 P2_9 1_555 1_555
C6_96 C5_96 1_555 1_555
H4_96 C6_96 1_555 1_555
C7_96 C6_96 1_555 1_555
H5_96 C7_96 1_555 1_555
C8_96 C7_96 1_555 1_555
H6_96 C8_96 1_555 1_555
C9_96 C8_96 1_555 1_555
H7_96 C9_96 1_555 1_555
C10_96 C5_96 1_555 1_555
H8_96 C10_96 1_555 1_555
C11_96 P2_9 1_555 1_555
C12_96 C11_96 1_555 1_555
H9_96 C12_96 1_555 1_555
C13_72 C12_96 1_555 1_555
H10_72 C13_72 1_555 1_555
C14_72 C13_72 1_555 1_555
H11_72 C14_72 1_555 1_555
C15_96 C14_72 1_555 1_555
H12_96 C15_96 1_555 1_555
C16_96 C11_96 1_555 1_555
H13_96 C16_96 1_555 1_555
N3_96 Ag2_9 1_555 1_555
C17_96 N3_96 1_555 1_555
C18_96 C17_96 1_555 1_555
H14_96 C18_96 1_555 1_555
H15_96 C18_96 1_555 1_555
H16_96 C18_96 1_555 1_555
Ag3_96 N2_96 1_555 1_555
N4_96 Ag2_9 1_555 1_555
C3_96 C4_96 1_555 1_555
C9_96 C10_96 1_555 1_555
C15_96 C16_96 1_555 1_555
Ag3_40 N1_97 1_555 1_555
P1_49 C1_97 1_555 1_555
N1_97 C1_97 1_555 1_555
N4_15 C2_97 1_555 1_555
C1_97 C2_97 1_555 1_555
C2_97 H1_97 1_555 1_555
C3_97 N4_15 1_555 1_555
H2_97 C3_97 1_555 1_555
C4_97 N1_97 1_555 1_555
H3_97 C4_97 1_555 1_555
C5_97 P1_49 1_555 1_555
C6_97 C5_97 1_555 1_555
H4_97 C6_97 1_555 1_555
C7_97 C6_97 1_555 1_555
H5_97 C7_97 1_555 1_555
C8_97 C7_97 1_555 1_555
H6_97 C8_97 1_555 1_555
C9_97 C8_97 1_555 1_555
H7_97 C9_97 1_555 1_555
C10_97 C5_97 1_555 1_555
H8_97 C10_97 1_555 1_555
C11_97 P1_49 1_555 1_555
C12_97 C11_97 1_555 1_555
H9_97 C12_97 1_555 1_555
C13_73 C12_97 1_555 1_555
H10_73 C13_73 1_555 1_555
C14_73 C13_73 1_555 1_555
H11_73 C14_73 1_555 1_555
C15_97 C14_73 1_555 1_555
H12_97 C15_97 1_555 1_555
C16_97 C11_97 1_555 1_555
H13_97 C16_97 1_555 1_555
N3_97 Ag3_40 1_555 1_555
C17_97 N3_97 1_555 1_555
C18_97 C17_97 1_555 1_555
H14_97 C18_97 1_555 1_555
H15_97 C18_97 1_555 1_555
H16_97 C18_97 1_555 1_555
Ag3_11 Ag3_40 1_555 1_555
P2_49 Ag3_40 1_555 1_555
P1_49 Ag3_11 1_555 1_555
C3_97 C4_97 1_555 1_555
C9_97 C10_97 1_555 1_555
C15_97 C16_97 1_555 1_555
Ag3_63 N1_98 1_555 1_555
P1_50 C1_98 1_555 1_555
N1_98 C1_98 1_555 1_555
N4_88 C2_98 1_555 1_555
C1_98 C2_98 1_555 1_555
C2_98 H1_98 1_555 1_555
C3_98 N4_88 1_555 1_555
H2_98 C3_98 1_555 1_555
C4_98 N1_98 1_555 1_555
H3_98 C4_98 1_555 1_555
C11_98 P1_50 1_555 1_555
C12_98 C11_98 1_555 1_555
H12_98 C15_98 1_555 1_555
C16_98 C11_98 1_555 1_555
H13_98 C16_98 1_555 1_555
N3_98 Ag3_63 1_555 1_555
C17_98 N3_98 1_555 1_555
C18_98 C17_98 1_555 1_555
H14_98 C18_98 1_555 1_555
H15_98 C18_98 1_555 1_555
H16_98 C18_98 1_555 1_555
C3_98 C4_98 1_555 1_555
C15_98 C16_98 1_555 1_555
C6_98 C5_98 1_555 1_555
H4_98 C6_98 1_555 1_555
C7_98 C6_98 1_555 1_555
H5_98 C7_98 1_555 1_555
C8_98 C7_98 1_555 1_555
H6_98 C8_98 1_555 1_555
C9_98 C8_98 1_555 1_555
H7_98 C9_98 1_555 1_555
C10_98 C5_98 1_555 1_555
C9_98 C10_98 1_555 1_555
Ag3_85 N1_99 1_555 1_555
P1_51 C1_99 1_555 1_555
N1_99 C1_99 1_555 1_555
N4_62 C2_99 1_555 1_555
C1_99 C2_99 1_555 1_555
C2_99 H1_99 1_555 1_555
C3_99 N4_62 1_555 1_555
H2_99 C3_99 1_555 1_555
C4_99 N1_99 1_555 1_555
H3_99 C4_99 1_555 1_555
C5_99 P1_51 1_555 1_555
C6_99 C5_99 1_555 1_555
H4_99 C6_99 1_555 1_555
C7_99 C6_99 1_555 1_555
H5_99 C7_99 1_555 1_555
C8_99 C7_99 1_555 1_555
H6_99 C8_99 1_555 1_555
C9_99 C8_99 1_555 1_555
H7_99 C9_99 1_555 1_555
C10_99 C5_99 1_555 1_555
H8_99 C10_99 1_555 1_555
C11_99 P1_51 1_555 1_555
C12_99 C11_99 1_555 1_555
H9_99 C12_99 1_555 1_555
C13_74 C12_99 1_555 1_555
H10_74 C13_74 1_555 1_555
C14_74 C13_74 1_555 1_555
H11_74 C14_74 1_555 1_555
C15_99 C14_74 1_555 1_555
H12_99 C15_99 1_555 1_555
C16_99 C11_99 1_555 1_555
H13_99 C16_99 1_555 1_555
N3_99 Ag3_85 1_555 1_555
C17_99 N3_99 1_555 1_555
C18_99 C17_99 1_555 1_555
H14_99 C18_99 1_555 1_555
H15_99 C18_99 1_555 1_555
H16_99 C18_99 1_555 1_555
Ag3_60 Ag3_85 1_555 1_555
P2_51 Ag3_85 1_555 1_555
P1_51 Ag3_60 1_555 1_555
C3_99 C4_99 1_555 1_555
C9_99 C10_99 1_555 1_555
C15_99 C16_99 1_555 1_555
Ag3_14 N1_100 1_555 1_555
P1_52 C1_100 1_555 1_555
N1_100 C1_100 1_555 1_555
N4_37 C2_100 1_555 1_555
C1_100 C2_100 1_555 1_555
C2_100 H1_100 1_555 1_555
C3_100 N4_37 1_555 1_555
H2_100 C3_100 1_555 1_555
C4_100 N1_100 1_555 1_555
H3_100 C4_100 1_555 1_555
C5_100 P1_52 1_555 1_555
C6_100 C5_100 1_555 1_555
H4_100 C6_100 1_555 1_555
C7_100 C6_100 1_555 1_555
H5_100 C7_100 1_555 1_555
C8_100 C7_100 1_555 1_555
H6_100 C8_100 1_555 1_555
C9_100 C8_100 1_555 1_555
H7_100 C9_100 1_555 1_555
C10_100 C5_100 1_555 1_555
H8_100 C10_100 1_555 1_555
C11_100 P1_52 1_555 1_555
C12_100 C11_100 1_555 1_555
H9_100 C12_100 1_555 1_555
C13_75 C12_100 1_555 1_555
H10_75 C13_75 1_555 1_555
C14_75 C13_75 1_555 1_555
H11_75 C14_75 1_555 1_555
C15_100 C14_75 1_555 1_555
H12_100 C15_100 1_555 1_555
C16_100 C11_100 1_555 1_555
H13_100 C16_100 1_555 1_555
N3_100 Ag3_14 1_555 1_555
C17_100 N3_100 1_555 1_555
C18_100 C17_100 1_555 1_555
H14_100 C18_100 1_555 1_555
H15_100 C18_100 1_555 1_555
H16_100 C18_100 1_555 1_555
Ag3_33 Ag3_14 1_555 1_555
P2_52 Ag3_14 1_555 1_555
P1_52 Ag3_33 1_555 1_555
C3_100 C4_100 1_555 1_555
C9_100 C10_100 1_555 1_555
C15_100 C16_100 1_555 1_555
Ag3_70 N1_101 1_555 1_555
P1_53 C1_101 1_555 1_555
N1_101 C1_101 1_555 1_555
N4_21 C2_101 1_555 1_555
C1_101 C2_101 1_555 1_555
C2_101 H1_101 1_555 1_555
C3_101 N4_21 1_555 1_555
H2_101 C3_101 1_555 1_555
C4_101 N1_101 1_555 1_555
H3_101 C4_101 1_555 1_555
C5_101 P1_53 1_555 1_555
C6_101 C5_101 1_555 1_555
H4_101 C6_101 1_555 1_555
C7_101 C6_101 1_555 1_555
H5_101 C7_101 1_555 1_555
C8_101 C7_101 1_555 1_555
H6_101 C8_101 1_555 1_555
C9_101 C8_101 1_555 1_555
H7_101 C9_101 1_555 1_555
C10_101 C5_101 1_555 1_555
H8_101 C10_101 1_555 1_555
C11_101 P1_53 1_555 1_555
C12_101 C11_101 1_555 1_555
H9_101 C12_101 1_555 1_555
C13_76 C12_101 1_555 1_555
H10_76 C13_76 1_555 1_555
C14_76 C13_76 1_555 1_555
H11_76 C14_76 1_555 1_555
C15_101 C14_76 1_555 1_555
H12_101 C15_101 1_555 1_555
C16_101 C11_101 1_555 1_555
H13_101 C16_101 1_555 1_555
N3_101 Ag3_70 1_555 1_555
C17_101 N3_101 1_555 1_555
C18_101 C17_101 1_555 1_555
H14_101 C18_101 1_555 1_555
H15_101 C18_101 1_555 1_555
H16_101 C18_101 1_555 1_555
Ag3_3 Ag3_70 1_555 1_555
P2_53 Ag3_70 1_555 1_555
P1_53 Ag3_3 1_555 1_555
C3_101 C4_101 1_555 1_555
C9_101 C10_101 1_555 1_555
C15_101 C16_101 1_555 1_555
Ag3_93 N1_102 1_555 1_555
P1_54 C1_102 1_555 1_555
N1_102 C1_102 1_555 1_555
N4_46 C2_102 1_555 1_555
C1_102 C2_102 1_555 1_555
C2_102 H1_102 1_555 1_555
C3_102 N4_46 1_555 1_555
H2_102 C3_102 1_555 1_555
C4_102 N1_102 1_555 1_555
H3_102 C4_102 1_555 1_555
C11_102 P1_54 1_555 1_555
C12_102 C11_102 1_555 1_555
H12_102 C15_102 1_555 1_555
C16_102 C11_102 1_555 1_555
H13_102 C16_102 1_555 1_555
N3_102 Ag3_93 1_555 1_555
C17_102 N3_102 1_555 1_555
C18_102 C17_102 1_555 1_555
H14_102 C18_102 1_555 1_555
H15_102 C18_102 1_555 1_555
H16_102 C18_102 1_555 1_555
C3_102 C4_102 1_555 1_555
C15_102 C16_102 1_555 1_555
C6_102 C5_102 1_555 1_555
H4_102 C6_102 1_555 1_555
C7_102 C6_102 1_555 1_555
H5_102 C7_102 1_555 1_555
C8_102 C7_102 1_555 1_555
H6_102 C8_102 1_555 1_555
C9_102 C8_102 1_555 1_555
H7_102 C9_102 1_555 1_555
C10_102 C5_102 1_555 1_555
C9_102 C10_102 1_555 1_555
Ag3_47 N1_103 1_555 1_555
P1_55 C1_103 1_555 1_555
N1_103 C1_103 1_555 1_555
N4_96 C2_103 1_555 1_555
C1_103 C2_103 1_555 1_555
C2_103 H1_103 1_555 1_555
C3_103 N4_96 1_555 1_555
H2_103 C3_103 1_555 1_555
C4_103 N1_103 1_555 1_555
H3_103 C4_103 1_555 1_555
C5_103 P1_55 1_555 1_555
C6_103 C5_103 1_555 1_555
H4_103 C6_103 1_555 1_555
C7_103 C6_103 1_555 1_555
H5_103 C7_103 1_555 1_555
C8_103 C7_103 1_555 1_555
H6_103 C8_103 1_555 1_555
C9_103 C8_103 1_555 1_555
H7_103 C9_103 1_555 1_555
C10_103 C5_103 1_555 1_555
H8_103 C10_103 1_555 1_555
C11_103 P1_55 1_555 1_555
C12_103 C11_103 1_555 1_555
H9_103 C12_103 1_555 1_555
C13_77 C12_103 1_555 1_555
H10_77 C13_77 1_555 1_555
C14_77 C13_77 1_555 1_555
H11_77 C14_77 1_555 1_555
C15_103 C14_77 1_555 1_555
H12_103 C15_103 1_555 1_555
C16_103 C11_103 1_555 1_555
H13_103 C16_103 1_555 1_555
N3_103 Ag3_47 1_555 1_555
C17_103 N3_103 1_555 1_555
C18_103 C17_103 1_555 1_555
H14_103 C18_103 1_555 1_555
H15_103 C18_103 1_555 1_555
H16_103 C18_103 1_555 1_555
Ag3_76 Ag3_47 1_555 1_555
P2_55 Ag3_47 1_555 1_555
P1_55 Ag3_76 1_555 1_555
C3_103 C4_103 1_555 1_555
C9_103 C10_103 1_555 1_555
C15_103 C16_103 1_555 1_555
Ag3_24 N1_104 1_555 1_555
P1_56 C1_104 1_555 1_555
N1_104 C1_104 1_555 1_555
N4_71 C2_104 1_555 1_555
C1_104 C2_104 1_555 1_555
C2_104 H1_104 1_555 1_555
C3_104 N4_71 1_555 1_555
H2_104 C3_104 1_555 1_555
C4_104 N1_104 1_555 1_555
H3_104 C4_104 1_555 1_555
C5_104 P1_56 1_555 1_555
C6_104 C5_104 1_555 1_555
H4_104 C6_104 1_555 1_555
C7_104 C6_104 1_555 1_555
H5_104 C7_104 1_555 1_555
C8_104 C7_104 1_555 1_555
H6_104 C8_104 1_555 1_555
C9_104 C8_104 1_555 1_555
H7_104 C9_104 1_555 1_555
C10_104 C5_104 1_555 1_555
H8_104 C10_104 1_555 1_555
C11_104 P1_56 1_555 1_555
C12_104 C11_104 1_555 1_555
H9_104 C12_104 1_555 1_555
C13_78 C12_104 1_555 1_555
H10_78 C13_78 1_555 1_555
C14_78 C13_78 1_555 1_555
H11_78 C14_78 1_555 1_555
C15_104 C14_78 1_555 1_555
H12_104 C15_104 1_555 1_555
C16_104 C11_104 1_555 1_555
H13_104 C16_104 1_555 1_555
N3_104 Ag3_24 1_555 1_555
C17_104 N3_104 1_555 1_555
C18_104 C17_104 1_555 1_555
H14_104 C18_104 1_555 1_555
H15_104 C18_104 1_555 1_555
H16_104 C18_104 1_555 1_555
Ag3_49 Ag3_24 1_555 1_555
P2_56 Ag3_24 1_555 1_555
P1_56 Ag3_49 1_555 1_555
C3_104 C4_104 1_555 1_555
C9_104 C10_104 1_555 1_555
C15_104 C16_104 1_555 1_555
Ag3_89 N1_105 1_555 1_555
P1_57 C1_105 1_555 1_555
N1_105 C1_105 1_555 1_555
N4_18 C2_105 1_555 1_555
C1_105 C2_105 1_555 1_555
C2_105 H1_105 1_555 1_555
C3_105 N4_18 1_555 1_555
H2_105 C3_105 1_555 1_555
C4_105 N1_105 1_555 1_555
H3_105 C4_105 1_555 1_555
C5_105 P1_57 1_555 1_555
C6_105 C5_105 1_555 1_555
H4_105 C6_105 1_555 1_555
C7_105 C6_105 1_555 1_555
H5_105 C7_105 1_555 1_555
C8_105 C7_105 1_555 1_555
H6_105 C8_105 1_555 1_555
C9_105 C8_105 1_555 1_555
H7_105 C9_105 1_555 1_555
C10_105 C5_105 1_555 1_555
H8_105 C10_105 1_555 1_555
C11_105 P1_57 1_555 1_555
C12_105 C11_105 1_555 1_555
H9_105 C12_105 1_555 1_555
C13_79 C12_105 1_555 1_555
H10_79 C13_79 1_555 1_555
C14_79 C13_79 1_555 1_555
H11_79 C14_79 1_555 1_555
C15_105 C14_79 1_555 1_555
H12_105 C15_105 1_555 1_555
C16_105 C11_105 1_555 1_555
H13_105 C16_105 1_555 1_555
N3_105 Ag3_89 1_555 1_555
C17_105 N3_105 1_555 1_555
C18_105 C17_105 1_555 1_555
H14_105 C18_105 1_555 1_555
H15_105 C18_105 1_555 1_555
H16_105 C18_105 1_555 1_555
Ag3_7 Ag3_89 1_555 1_555
P2_57 Ag3_89 1_555 1_555
P1_57 Ag3_7 1_555 1_555
C3_105 C4_105 1_555 1_555
C9_105 C10_105 1_555 1_555
C15_105 C16_105 1_555 1_555
Ag3_42 N1_106 1_555 1_555
P1_58 C1_106 1_555 1_555
N1_106 C1_106 1_555 1_555
N4_65 C2_106 1_555 1_555
C1_106 C2_106 1_555 1_555
C2_106 H1_106 1_555 1_555
C3_106 N4_65 1_555 1_555
H2_106 C3_106 1_555 1_555
C4_106 N1_106 1_555 1_555
H3_106 C4_106 1_555 1_555
C11_106 P1_58 1_555 1_555
C12_106 C11_106 1_555 1_555
H12_106 C15_106 1_555 1_555
C16_106 C11_106 1_555 1_555
H13_106 C16_106 1_555 1_555
N3_106 Ag3_42 1_555 1_555
C17_106 N3_106 1_555 1_555
C18_106 C17_106 1_555 1_555
H14_106 C18_106 1_555 1_555
H15_106 C18_106 1_555 1_555
H16_106 C18_106 1_555 1_555
C3_106 C4_106 1_555 1_555
C15_106 C16_106 1_555 1_555
C6_106 C5_106 1_555 1_555
H4_106 C6_106 1_555 1_555
C7_106 C6_106 1_555 1_555
H5_106 C7_106 1_555 1_555
C8_106 C7_106 1_555 1_555
H6_106 C8_106 1_555 1_555
C9_106 C8_106 1_555 1_555
H7_106 C9_106 1_555 1_555
C10_106 C5_106 1_555 1_555
C9_106 C10_106 1_555 1_555
Ag3_68 N1_107 1_555 1_555
P1_59 C1_107 1_555 1_555
N1_107 C1_107 1_555 1_555
N4_43 C2_107 1_555 1_555
C1_107 C2_107 1_555 1_555
C2_107 H1_107 1_555 1_555
C3_107 N4_43 1_555 1_555
H2_107 C3_107 1_555 1_555
C4_107 N1_107 1_555 1_555
H3_107 C4_107 1_555 1_555
C5_107 P1_59 1_555 1_555
C6_107 C5_107 1_555 1_555
H4_107 C6_107 1_555 1_555
C7_107 C6_107 1_555 1_555
H5_107 C7_107 1_555 1_555
C8_107 C7_107 1_555 1_555
H6_107 C8_107 1_555 1_555
C9_107 C8_107 1_555 1_555
H7_107 C9_107 1_555 1_555
C10_107 C5_107 1_555 1_555
H8_107 C10_107 1_555 1_555
C11_107 P1_59 1_555 1_555
C12_107 C11_107 1_555 1_555
H9_107 C12_107 1_555 1_555
C13_80 C12_107 1_555 1_555
H10_80 C13_80 1_555 1_555
C14_80 C13_80 1_555 1_555
H11_80 C14_80 1_555 1_555
C15_107 C14_80 1_555 1_555
H12_107 C15_107 1_555 1_555
C16_107 C11_107 1_555 1_555
H13_107 C16_107 1_555 1_555
N3_107 Ag3_68 1_555 1_555
C17_107 N3_107 1_555 1_555
C18_107 C17_107 1_555 1_555
H14_107 C18_107 1_555 1_555
H15_107 C18_107 1_555 1_555
H16_107 C18_107 1_555 1_555
Ag3_32 Ag3_68 1_555 1_555
P2_59 Ag3_68 1_555 1_555
P1_59 Ag3_32 1_555 1_555
C3_107 C4_107 1_555 1_555
C9_107 C10_107 1_555 1_555
C15_107 C16_107 1_555 1_555
Ag3_19 N1_108 1_555 1_555
P1_60 C1_108 1_555 1_555
N1_108 C1_108 1_555 1_555
N4_92 C2_108 1_555 1_555
C1_108 C2_108 1_555 1_555
C2_108 H1_108 1_555 1_555
C3_108 N4_92 1_555 1_555
H2_108 C3_108 1_555 1_555
C4_108 N1_108 1_555 1_555
H3_108 C4_108 1_555 1_555
C5_108 P1_60 1_555 1_555
C6_108 C5_108 1_555 1_555
H4_108 C6_108 1_555 1_555
C7_108 C6_108 1_555 1_555
H5_108 C7_108 1_555 1_555
C8_108 C7_108 1_555 1_555
H6_108 C8_108 1_555 1_555
C9_108 C8_108 1_555 1_555
H7_108 C9_108 1_555 1_555
C10_108 C5_108 1_555 1_555
H8_108 C10_108 1_555 1_555
C11_108 P1_60 1_555 1_555
C12_108 C11_108 1_555 1_555
H9_108 C12_108 1_555 1_555
C13_81 C12_108 1_555 1_555
H10_81 C13_81 1_555 1_555
C14_81 C13_81 1_555 1_555
H11_81 C14_81 1_555 1_555
C15_108 C14_81 1_555 1_555
H12_108 C15_108 1_555 1_555
C16_108 C11_108 1_555 1_555
H13_108 C16_108 1_555 1_555
N3_108 Ag3_19 1_555 1_555
C17_108 N3_108 1_555 1_555
C18_108 C17_108 1_555 1_555
H14_108 C18_108 1_555 1_555
H15_108 C18_108 1_555 1_555
H16_108 C18_108 1_555 1_555
Ag3_77 Ag3_19 1_555 1_555
P2_60 Ag3_19 1_555 1_555
P1_60 Ag3_77 1_555 1_555
C3_108 C4_108 1_555 1_555
C9_108 C10_108 1_555 1_555
C15_108 C16_108 1_555 1_555
Ag3_28 N1_109 1_555 1_555
P1_61 C1_109 1_555 1_555
N1_109 C1_109 1_555 1_555
N4_75 C2_109 1_555 1_555
C1_109 C2_109 1_555 1_555
C2_109 H1_109 1_555 1_555
C3_109 N4_75 1_555 1_555
H2_109 C3_109 1_555 1_555
C4_109 N1_109 1_555 1_555
H3_109 C4_109 1_555 1_555
C5_109 P1_61 1_555 1_555
C6_109 C5_109 1_555 1_555
H4_109 C6_109 1_555 1_555
C7_109 C6_109 1_555 1_555
H5_109 C7_109 1_555 1_555
C8_109 C7_109 1_555 1_555
H6_109 C8_109 1_555 1_555
C9_109 C8_109 1_555 1_555
H7_109 C9_109 1_555 1_555
C10_109 C5_109 1_555 1_555
H8_109 C10_109 1_555 1_555
C11_109 P1_61 1_555 1_555
C12_109 C11_109 1_555 1_555
H9_109 C12_109 1_555 1_555
C13_82 C12_109 1_555 1_555
H10_82 C13_82 1_555 1_555
C14_82 C13_82 1_555 1_555
H11_82 C14_82 1_555 1_555
C15_109 C14_82 1_555 1_555
H12_109 C15_109 1_555 1_555
C16_109 C11_109 1_555 1_555
H13_109 C16_109 1_555 1_555
N3_109 Ag3_28 1_555 1_555
C17_109 N3_109 1_555 1_555
C18_109 C17_109 1_555 1_555
H14_109 C18_109 1_555 1_555
H15_109 C18_109 1_555 1_555
H16_109 C18_109 1_555 1_555
Ag3_95 Ag3_28 1_555 1_555
P2_61 Ag3_28 1_555 1_555
P1_61 Ag3_95 1_555 1_555
C3_109 C4_109 1_555 1_555
C9_109 C10_109 1_555 1_555
C15_109 C16_109 1_555 1_555
Ag3_51 N1_110 1_555 1_555
P1_62 C1_110 1_555 1_555
N1_110 C1_110 1_555 1_555
N4_4 C2_110 1_555 1_555
C1_110 C2_110 1_555 1_555
C2_110 H1_110 1_555 1_555
C3_110 N4_4 1_555 1_555
H2_110 C3_110 1_555 1_555
C4_110 N1_110 1_555 1_555
H3_110 C4_110 1_555 1_555
C5_110 P1_62 1_555 1_555
C6_110 C5_110 1_555 1_555
H4_110 C6_110 1_555 1_555
C7_110 C6_110 1_555 1_555
H5_110 C7_110 1_555 1_555
C8_110 C7_110 1_555 1_555
H6_110 C8_110 1_555 1_555
C9_110 C8_110 1_555 1_555
H7_110 C9_110 1_555 1_555
C10_110 C5_110 1_555 1_555
H8_110 C10_110 1_555 1_555
C11_110 P1_62 1_555 1_555
C12_110 C11_110 1_555 1_555
H9_110 C12_110 1_555 1_555
H12_110 C15_110 1_555 1_555
C16_110 C11_110 1_555 1_555
H13_110 C16_110 1_555 1_555
N3_110 Ag3_51 1_555 1_555
C17_110 N3_110 1_555 1_555
C18_110 C17_110 1_555 1_555
H14_110 C18_110 1_555 1_555
H15_110 C18_110 1_555 1_555
H16_110 C18_110 1_555 1_555
Ag3_22 Ag3_51 1_555 1_555
P2_62 Ag3_51 1_555 1_555
P1_62 Ag3_22 1_555 1_555
C3_110 C4_110 1_555 1_555
C9_110 C10_110 1_555 1_555
C15_110 C16_110 1_555 1_555
Ag3 N1_111 1_555 1_555
P1_63 C1_111 1_555 1_555
N1_111 C1_111 1_555 1_555
N4_50 C2_111 1_555 1_555
C1_111 C2_111 1_555 1_555
C2_111 H1_111 1_555 1_555
C3_111 N4_50 1_555 1_555
H2_111 C3_111 1_555 1_555
C4_111 N1_111 1_555 1_555
H3_111 C4_111 1_555 1_555
C5_111 P1_63 1_555 1_555
C6_111 C5_111 1_555 1_555
H4_111 C6_111 1_555 1_555
C7_111 C6_111 1_555 1_555
H5_111 C7_111 1_555 1_555
C8_111 C7_111 1_555 1_555
H6_111 C8_111 1_555 1_555
C9_111 C8_111 1_555 1_555
H7_111 C9_111 1_555 1_555
C10_111 C5_111 1_555 1_555
H8_111 C10_111 1_555 1_555
C11_111 P1_63 1_555 1_555
C12_111 C11_111 1_555 1_555
H9_111 C12_111 1_555 1_555
C13_83 C12_111 1_555 1_555
H10_83 C13_83 1_555 1_555
C14_83 C13_83 1_555 1_555
H11_83 C14_83 1_555 1_555
C15_111 C14_83 1_555 1_555
H12_111 C15_111 1_555 1_555
C16_111 C11_111 1_555 1_555
H13_111 C16_111 1_555 1_555
N3_111 Ag3 1_555 1_555
C17_111 N3_111 1_555 1_555
C18_111 C17_111 1_555 1_555
H14_111 C18_111 1_555 1_555
H15_111 C18_111 1_555 1_555
H16_111 C18_111 1_555 1_555
Ag3_72 Ag3 1_555 1_555
P2_63 Ag3 1_555 1_555
P1_63 Ag3_72 1_555 1_555
C3_111 C4_111 1_555 1_555
C9_111 C10_111 1_555 1_555
C15_111 C16_111 1_555 1_555
C6_112 C5_112 1_555 1_555
H4_112 C6_112 1_555 1_555
C7_112 C6_112 1_555 1_555
H5_112 C7_112 1_555 1_555
C8_112 C7_112 1_555 1_555
H6_112 C8_112 1_555 1_555
C9_112 C8_112 1_555 1_555
H7_112 C9_112 1_555 1_555
C10_112 C5_112 1_555 1_555
C9_112 C10_112 1_555 1_555
Ag3_74 N1_112 1_555 1_555
P1_64 C1_112 1_555 1_555
N1_112 C1_112 1_555 1_555
N4_25 C2_112 1_555 1_555
C1_112 C2_112 1_555 1_555
C2_112 H1_112 1_555 1_555
C3_112 N4_25 1_555 1_555
H2_112 C3_112 1_555 1_555
C4_112 N1_112 1_555 1_555
H3_112 C4_112 1_555 1_555
C11_112 P1_64 1_555 1_555
C12_112 C11_112 1_555 1_555
C13_84 C12_112 1_555 1_555
H10_84 C13_84 1_555 1_555
C14_84 C13_84 1_555 1_555
H11_84 C14_84 1_555 1_555
C15_112 C14_84 1_555 1_555
H12_112 C15_112 1_555 1_555
C16_112 C11_112 1_555 1_555
H13_112 C16_112 1_555 1_555
N3_112 Ag3_74 1_555 1_555
C17_112 N3_112 1_555 1_555
C18_112 C17_112 1_555 1_555
H14_112 C18_112 1_555 1_555
H15_112 C18_112 1_555 1_555
H16_112 C18_112 1_555 1_555
C3_112 C4_112 1_555 1_555
C15_112 C16_112 1_555 1_555
C6_113 C5_113 1_555 1_555
H4_113 C6_113 1_555 1_555
C7_113 C6_113 1_555 1_555
H5_113 C7_113 1_555 1_555
C8_113 C7_113 1_555 1_555
H6_113 C8_113 1_555 1_555
C9_113 C8_113 1_555 1_555
H7_113 C9_113 1_555 1_555
C10_113 C5_113 1_555 1_555
C9_113 C10_113 1_555 1_555
Ag3_58 N1_113 1_555 1_555
P1_65 C1_113 1_555 1_555
N1_113 C1_113 1_555 1_555
N4_81 C2_113 1_555 1_555
C1_113 C2_113 1_555 1_555
C2_113 H1_113 1_555 1_555
C3_113 N4_81 1_555 1_555
H2_113 C3_113 1_555 1_555
C4_113 N1_113 1_555 1_555
H3_113 C4_113 1_555 1_555
C11_113 P1_65 1_555 1_555
C12_113 C11_113 1_555 1_555
C13_85 C12_113 1_555 1_555
H10_85 C13_85 1_555 1_555
C14_85 C13_85 1_555 1_555
H11_85 C14_85 1_555 1_555
C15_113 C14_85 1_555 1_555
H12_113 C15_113 1_555 1_555
C16_113 C11_113 1_555 1_555
H13_113 C16_113 1_555 1_555
N3_113 Ag3_58 1_555 1_555
C17_113 N3_113 1_555 1_555
C18_113 C17_113 1_555 1_555
H14_113 C18_113 1_555 1_555
H15_113 C18_113 1_555 1_555
H16_113 C18_113 1_555 1_555
C3_113 C4_113 1_555 1_555
C15_113 C16_113 1_555 1_555
Ag3_9 N1_114 1_555 1_555
P1_66 C1_114 1_555 1_555
N1_114 C1_114 1_555 1_555
N4_34 C2_114 1_555 1_555
C1_114 C2_114 1_555 1_555
C2_114 H1_114 1_555 1_555
C3_114 N4_34 1_555 1_555
H2_114 C3_114 1_555 1_555
C4_114 N1_114 1_555 1_555
H3_114 C4_114 1_555 1_555
C5_114 P1_66 1_555 1_555
C6_114 C5_114 1_555 1_555
H4_114 C6_114 1_555 1_555
C7_114 C6_114 1_555 1_555
H5_114 C7_114 1_555 1_555
C8_114 C7_114 1_555 1_555
H6_114 C8_114 1_555 1_555
C9_114 C8_114 1_555 1_555
H7_114 C9_114 1_555 1_555
C10_114 C5_114 1_555 1_555
H8_114 C10_114 1_555 1_555
C11_114 P1_66 1_555 1_555
C12_114 C11_114 1_555 1_555
H9_114 C12_114 1_555 1_555
C13_86 C12_114 1_555 1_555
H10_86 C13_86 1_555 1_555
C14_86 C13_86 1_555 1_555
H11_86 C14_86 1_555 1_555
C15_114 C14_86 1_555 1_555
H12_114 C15_114 1_555 1_555
C16_114 C11_114 1_555 1_555
H13_114 C16_114 1_555 1_555
N3_114 Ag3_9 1_555 1_555
C17_114 N3_114 1_555 1_555
C18_114 C17_114 1_555 1_555
H14_114 C18_114 1_555 1_555
H15_114 C18_114 1_555 1_555
H16_114 C18_114 1_555 1_555
Ag3_38 Ag3_9 1_555 1_555
P2_66 Ag3_9 1_555 1_555
P1_66 Ag3_38 1_555 1_555
C3_114 C4_114 1_555 1_555
C9_114 C10_114 1_555 1_555
C15_114 C16_114 1_555 1_555
Ag3_35 N1_115 1_555 1_555
P1_67 C1_115 1_555 1_555
N1_115 C1_115 1_555 1_555
N4_12 C2_115 1_555 1_555
C1_115 C2_115 1_555 1_555
C2_115 H1_115 1_555 1_555
C3_115 N4_12 1_555 1_555
H2_115 C3_115 1_555 1_555
C4_115 N1_115 1_555 1_555
H3_115 C4_115 1_555 1_555
C5_115 P1_67 1_555 1_555
C6_115 C5_115 1_555 1_555
H4_115 C6_115 1_555 1_555
C7_115 C6_115 1_555 1_555
H5_115 C7_115 1_555 1_555
C8_115 C7_115 1_555 1_555
H6_115 C8_115 1_555 1_555
C9_115 C8_115 1_555 1_555
H7_115 C9_115 1_555 1_555
C10_115 C5_115 1_555 1_555
H8_115 C10_115 1_555 1_555
C11_115 P1_67 1_555 1_555
C12_115 C11_115 1_555 1_555
H9_115 C12_115 1_555 1_555
H12_115 C15_115 1_555 1_555
C16_115 C11_115 1_555 1_555
H13_115 C16_115 1_555 1_555
N3_115 Ag3_35 1_555 1_555
C17_115 N3_115 1_555 1_555
C18_115 C17_115 1_555 1_555
H14_115 C18_115 1_555 1_555
H15_115 C18_115 1_555 1_555
H16_115 C18_115 1_555 1_555
Ag3_16 Ag3_35 1_555 1_555
P2_67 Ag3_35 1_555 1_555
P1_67 Ag3_16 1_555 1_555
C3_115 C4_115 1_555 1_555
C9_115 C10_115 1_555 1_555
C15_115 C16_115 1_555 1_555
Ag3_84 N1_116 1_555 1_555
P1_68 C1_116 1_555 1_555
N1_116 C1_116 1_555 1_555
N4_59 C2_116 1_555 1_555
C1_116 C2_116 1_555 1_555
C2_116 H1_116 1_555 1_555
C3_116 N4_59 1_555 1_555
H2_116 C3_116 1_555 1_555
C4_116 N1_116 1_555 1_555
H3_116 C4_116 1_555 1_555
C5_116 P1_68 1_555 1_555
C6_116 C5_116 1_555 1_555
H4_116 C6_116 1_555 1_555
C7_116 C6_116 1_555 1_555
H5_116 C7_116 1_555 1_555
C8_116 C7_116 1_555 1_555
H6_116 C8_116 1_555 1_555
C9_116 C8_116 1_555 1_555
H7_116 C9_116 1_555 1_555
C10_116 C5_116 1_555 1_555
H8_116 C10_116 1_555 1_555
C11_116 P1_68 1_555 1_555
C12_116 C11_116 1_555 1_555
H9_116 C12_116 1_555 1_555
C13_87 C12_116 1_555 1_555
H10_87 C13_87 1_555 1_555
C14_87 C13_87 1_555 1_555
H11_87 C14_87 1_555 1_555
C15_116 C14_87 1_555 1_555
H12_116 C15_116 1_555 1_555
C16_116 C11_116 1_555 1_555
H13_116 C16_116 1_555 1_555
N3_116 Ag3_84 1_555 1_555
C17_116 N3_116 1_555 1_555
C18_116 C17_116 1_555 1_555
H14_116 C18_116 1_555 1_555
H15_116 C18_116 1_555 1_555
H16_116 C18_116 1_555 1_555
Ag3_61 Ag3_84 1_555 1_555
P2_68 Ag3_84 1_555 1_555
P1_68 Ag3_61 1_555 1_555
C3_116 C4_116 1_555 1_555
C9_116 C10_116 1_555 1_555
C15_116 C16_116 1_555 1_555
Ag3_5 N1_117 1_555 1_555
P1_69 C1_117 1_555 1_555
N1_117 C1_117 1_555 1_555
N4_78 C2_117 1_555 1_555
C1_117 C2_117 1_555 1_555
C2_117 H1_117 1_555 1_555
C3_117 N4_78 1_555 1_555
H2_117 C3_117 1_555 1_555
C4_117 N1_117 1_555 1_555
H3_117 C4_117 1_555 1_555
C5_117 P1_69 1_555 1_555
C6_117 C5_117 1_555 1_555
H4_117 C6_117 1_555 1_555
C7_117 C6_117 1_555 1_555
H5_117 C7_117 1_555 1_555
C8_117 C7_117 1_555 1_555
H6_117 C8_117 1_555 1_555
C9_117 C8_117 1_555 1_555
H7_117 C9_117 1_555 1_555
C10_117 C5_117 1_555 1_555
H8_117 C10_117 1_555 1_555
C11_117 P1_69 1_555 1_555
C12_117 C11_117 1_555 1_555
H9_117 C12_117 1_555 1_555
C13_88 C12_117 1_555 1_555
H10_88 C13_88 1_555 1_555
C14_88 C13_88 1_555 1_555
H11_88 C14_88 1_555 1_555
C15_117 C14_88 1_555 1_555
H12_117 C15_117 1_555 1_555
C16_117 C11_117 1_555 1_555
H13_117 C16_117 1_555 1_555
N3_117 Ag3_5 1_555 1_555
C17_117 N3_117 1_555 1_555
C18_117 C17_117 1_555 1_555
H14_117 C18_117 1_555 1_555
H15_117 C18_117 1_555 1_555
H16_117 C18_117 1_555 1_555
Ag3_91 Ag3_5 1_555 1_555
P2_69 Ag3_5 1_555 1_555
P1_69 Ag3_91 1_555 1_555
C3_117 C4_117 1_555 1_555
C9_117 C10_117 1_555 1_555
C15_117 C16_117 1_555 1_555
C6_118 C5_118 1_555 1_555
H4_118 C6_118 1_555 1_555
C7_118 C6_118 1_555 1_555
H5_118 C7_118 1_555 1_555
C8_118 C7_118 1_555 1_555
H6_118 C8_118 1_555 1_555
C9_118 C8_118 1_555 1_555
H7_118 C9_118 1_555 1_555
C10_118 C5_118 1_555 1_555
C9_118 C10_118 1_555 1_555
Ag3_30 N1_118 1_555 1_555
P1_70 C1_118 1_555 1_555
N1_118 C1_118 1_555 1_555
N4_53 C2_118 1_555 1_555
C1_118 C2_118 1_555 1_555
C2_118 H1_118 1_555 1_555
C3_118 N4_53 1_555 1_555
H2_118 C3_118 1_555 1_555
C4_118 N1_118 1_555 1_555
H3_118 C4_118 1_555 1_555
C11_118 P1_70 1_555 1_555
C12_118 C11_118 1_555 1_555
C13_89 C12_118 1_555 1_555
H10_89 C13_89 1_555 1_555
C14_89 C13_89 1_555 1_555
H11_89 C14_89 1_555 1_555
C15_118 C14_89 1_555 1_555
H12_118 C15_118 1_555 1_555
C16_118 C11_118 1_555 1_555
H13_118 C16_118 1_555 1_555
N3_118 Ag3_30 1_555 1_555
C17_118 N3_118 1_555 1_555
C18_118 C17_118 1_555 1_555
H14_118 C18_118 1_555 1_555
H15_118 C18_118 1_555 1_555
H16_118 C18_118 1_555 1_555
C3_118 C4_118 1_555 1_555
C15_118 C16_118 1_555 1_555
Ag3_56 N1_119 1_555 1_555
P1_71 C1_119 1_555 1_555
N1_119 C1_119 1_555 1_555
N4_31 C2_119 1_555 1_555
C1_119 C2_119 1_555 1_555
C2_119 H1_119 1_555 1_555
C3_119 N4_31 1_555 1_555
H2_119 C3_119 1_555 1_555
C4_119 N1_119 1_555 1_555
H3_119 C4_119 1_555 1_555
C5_119 P1_71 1_555 1_555
C6_119 C5_119 1_555 1_555
H4_119 C6_119 1_555 1_555
C7_119 C6_119 1_555 1_555
H5_119 C7_119 1_555 1_555
C8_119 C7_119 1_555 1_555
H6_119 C8_119 1_555 1_555
C9_119 C8_119 1_555 1_555
H7_119 C9_119 1_555 1_555
C10_119 C5_119 1_555 1_555
H8_119 C10_119 1_555 1_555
C11_119 P1_71 1_555 1_555
C12_119 C11_119 1_555 1_555
H9_119 C12_119 1_555 1_555
C13_90 C12_119 1_555 1_555
H10_90 C13_90 1_555 1_555
C14_90 C13_90 1_555 1_555
H11_90 C14_90 1_555 1_555
C15_119 C14_90 1_555 1_555
H12_119 C15_119 1_555 1_555
C16_119 C11_119 1_555 1_555
H13_119 C16_119 1_555 1_555
N3_119 Ag3_56 1_555 1_555
C17_119 N3_119 1_555 1_555
C18_119 C17_119 1_555 1_555
H14_119 C18_119 1_555 1_555
H15_119 C18_119 1_555 1_555
H16_119 C18_119 1_555 1_555
Ag3_44 Ag3_56 1_555 1_555
P2_71 Ag3_56 1_555 1_555
P1_71 Ag3_44 1_555 1_555
C3_119 C4_119 1_555 1_555
C9_119 C10_119 1_555 1_555
C15_119 C16_119 1_555 1_555
Ag3_79 N1_120 1_555 1_555
P1_72 C1_120 1_555 1_555
N1_120 C1_120 1_555 1_555
N4_8 C2_120 1_555 1_555
C1_120 C2_120 1_555 1_555
C2_120 H1_120 1_555 1_555
C3_120 N4_8 1_555 1_555
H2_120 C3_120 1_555 1_555
C4_120 N1_120 1_555 1_555
H3_120 C4_120 1_555 1_555
C5_120 P1_72 1_555 1_555
C6_120 C5_120 1_555 1_555
H4_120 C6_120 1_555 1_555
C7_120 C6_120 1_555 1_555
H5_120 C7_120 1_555 1_555
C8_120 C7_120 1_555 1_555
H6_120 C8_120 1_555 1_555
C9_120 C8_120 1_555 1_555
H7_120 C9_120 1_555 1_555
C10_120 C5_120 1_555 1_555
H8_120 C10_120 1_555 1_555
C11_120 P1_72 1_555 1_555
C12_120 C11_120 1_555 1_555
H9_120 C12_120 1_555 1_555
H12_120 C15_120 1_555 1_555
C16_120 C11_120 1_555 1_555
H13_120 C16_120 1_555 1_555
N3_120 Ag3_79 1_555 1_555
C17_120 N3_120 1_555 1_555
C18_120 C17_120 1_555 1_555
H14_120 C18_120 1_555 1_555
H15_120 C18_120 1_555 1_555
H16_120 C18_120 1_555 1_555
Ag3_17 Ag3_79 1_555 1_555
P2_72 Ag3_79 1_555 1_555
P1_72 Ag3_17 1_555 1_555
C3_120 C4_120 1_555 1_555
C9_120 C10_120 1_555 1_555
C15_120 C16_120 1_555 1_555
Ag3_16 N1_121 1_555 1_555
P2_67 C1_121 1_555 1_555
N1_121 C1_121 1_555 1_555
N4_39 C2_121 1_555 1_555
C1_121 C2_121 1_555 1_555
C2_121 H1_121 1_555 1_555
C3_121 N4_39 1_555 1_555
H2_121 C3_121 1_555 1_555
C4_121 N1_121 1_555 1_555
H3_121 C4_121 1_555 1_555
C5_121 P2_67 1_555 1_555
C6_121 C5_121 1_555 1_555
H4_121 C6_121 1_555 1_555
C7_121 C6_121 1_555 1_555
H5_121 C7_121 1_555 1_555
C8_121 C7_121 1_555 1_555
H6_121 C8_121 1_555 1_555
C9_121 C8_121 1_555 1_555
H7_121 C9_121 1_555 1_555
C10_121 C5_121 1_555 1_555
H8_121 C10_121 1_555 1_555
C11_121 P2_67 1_555 1_555
C12_121 C11_121 1_555 1_555
H9_121 C12_121 1_555 1_555
H12_121 C15_121 1_555 1_555
C16_121 C11_121 1_555 1_555
H13_121 C16_121 1_555 1_555
N3_121 Ag3_16 1_555 1_555
C17_121 N3_121 1_555 1_555
C18_121 C17_121 1_555 1_555
H14_121 C18_121 1_555 1_555
H15_121 C18_121 1_555 1_555
H16_121 C18_121 1_555 1_555
C3_121 C4_121 1_555 1_555
C9_121 C10_121 1_555 1_555
C15_121 C16_121 1_555 1_555
Ag3_87 N1_122 1_555 1_555
P2_65 C1_122 1_555 1_555
N1_122 C1_122 1_555 1_555
N4_64 C2_122 1_555 1_555
C1_122 C2_122 1_555 1_555
C2_122 H1_122 1_555 1_555
C3_122 N4_64 1_555 1_555
H2_122 C3_122 1_555 1_555
C4_122 N1_122 1_555 1_555
H3_122 C4_122 1_555 1_555
C11_122 P2_65 1_555 1_555
C12_122 C11_122 1_555 1_555
C13_91 C12_122 1_555 1_555
H10_91 C13_91 1_555 1_555
C14_91 C13_91 1_555 1_555
H11_91 C14_91 1_555 1_555
C15_122 C14_91 1_555 1_555
H12_122 C15_122 1_555 1_555
C16_122 C11_122 1_555 1_555
H13_122 C16_122 1_555 1_555
N3_122 Ag3_87 1_555 1_555
C17_122 N3_122 1_555 1_555
C18_122 C17_122 1_555 1_555
H14_122 C18_122 1_555 1_555
H15_122 C18_122 1_555 1_555
H16_122 C18_122 1_555 1_555
C3_122 C4_122 1_555 1_555
C15_122 C16_122 1_555 1_555
C6_122 C5_122 1_555 1_555
H4_122 C6_122 1_555 1_555
C7_122 C6_122 1_555 1_555
H5_122 C7_122 1_555 1_555
C8_122 C7_122 1_555 1_555
H6_122 C8_122 1_555 1_555
C9_122 C8_122 1_555 1_555
H7_122 C9_122 1_555 1_555
C10_122 C5_122 1_555 1_555
C9_122 C10_122 1_555 1_555
Ag3_61 N1_123 1_555 1_555
P2_68 C1_123 1_555 1_555
N1_123 C1_123 1_555 1_555
N4_86 C2_123 1_555 1_555
C1_123 C2_123 1_555 1_555
C2_123 H1_123 1_555 1_555
C3_123 N4_86 1_555 1_555
H2_123 C3_123 1_555 1_555
C4_123 N1_123 1_555 1_555
H3_123 C4_123 1_555 1_555
C5_123 P2_68 1_555 1_555
C6_123 C5_123 1_555 1_555
H4_123 C6_123 1_555 1_555
C7_123 C6_123 1_555 1_555
H5_123 C7_123 1_555 1_555
C8_123 C7_123 1_555 1_555
H6_123 C8_123 1_555 1_555
C9_123 C8_123 1_555 1_555
H7_123 C9_123 1_555 1_555
C10_123 C5_123 1_555 1_555
H8_123 C10_123 1_555 1_555
C11_123 P2_68 1_555 1_555
C12_123 C11_123 1_555 1_555
H9_123 C12_123 1_555 1_555
C13_92 C12_123 1_555 1_555
H10_92 C13_92 1_555 1_555
C14_92 C13_92 1_555 1_555
H11_92 C14_92 1_555 1_555
C15_123 C14_92 1_555 1_555
H12_123 C15_123 1_555 1_555
C16_123 C11_123 1_555 1_555
H13_123 C16_123 1_555 1_555
N3_123 Ag3_61 1_555 1_555
C17_123 N3_123 1_555 1_555
C18_123 C17_123 1_555 1_555
H14_123 C18_123 1_555 1_555
H15_123 C18_123 1_555 1_555
H16_123 C18_123 1_555 1_555
C3_123 C4_123 1_555 1_555
C9_123 C10_123 1_555 1_555
C15_123 C16_123 1_555 1_555
Ag3_38 N1_124 1_555 1_555
P2_66 C1_124 1_555 1_555
N1_124 C1_124 1_555 1_555
N4_13 C2_124 1_555 1_555
C1_124 C2_124 1_555 1_555
C2_124 H1_124 1_555 1_555
C3_124 N4_13 1_555 1_555
H2_124 C3_124 1_555 1_555
C4_124 N1_124 1_555 1_555
H3_124 C4_124 1_555 1_555
C5_124 P2_66 1_555 1_555
C6_124 C5_124 1_555 1_555
H4_124 C6_124 1_555 1_555
C7_124 C6_124 1_555 1_555
H5_124 C7_124 1_555 1_555
C8_124 C7_124 1_555 1_555
H6_124 C8_124 1_555 1_555
C9_124 C8_124 1_555 1_555
H7_124 C9_124 1_555 1_555
C10_124 C5_124 1_555 1_555
H8_124 C10_124 1_555 1_555
C11_124 P2_66 1_555 1_555
C12_124 C11_124 1_555 1_555
H9_124 C12_124 1_555 1_555
C13_93 C12_124 1_555 1_555
H10_93 C13_93 1_555 1_555
C14_93 C13_93 1_555 1_555
H11_93 C14_93 1_555 1_555
C15_124 C14_93 1_555 1_555
H12_124 C15_124 1_555 1_555
C16_124 C11_124 1_555 1_555
H13_124 C16_124 1_555 1_555
N3_124 Ag3_38 1_555 1_555
C17_124 N3_124 1_555 1_555
C18_124 C17_124 1_555 1_555
H14_124 C18_124 1_555 1_555
H15_124 C18_124 1_555 1_555
H16_124 C18_124 1_555 1_555
C3_124 C4_124 1_555 1_555
C9_124 C10_124 1_555 1_555
C15_124 C16_124 1_555 1_555
Ag3_94 N1_125 1_555 1_555
P1_73 C1_125 1_555 1_555
N1_125 C1_125 1_555 1_555
N4_45 C2_125 1_555 1_555
C1_125 C2_125 1_555 1_555
C2_125 H1_125 1_555 1_555
C3_125 N4_45 1_555 1_555
H2_125 C3_125 1_555 1_555
C4_125 N1_125 1_555 1_555
H3_125 C4_125 1_555 1_555
C5_125 P1_73 1_555 1_555
C6_125 C5_125 1_555 1_555
H4_125 C6_125 1_555 1_555
C7_125 C6_125 1_555 1_555
H5_125 C7_125 1_555 1_555
C8_125 C7_125 1_555 1_555
H6_125 C8_125 1_555 1_555
C9_125 C8_125 1_555 1_555
H7_125 C9_125 1_555 1_555
C10_125 C5_125 1_555 1_555
H8_125 C10_125 1_555 1_555
C11_125 P1_73 1_555 1_555
C12_125 C11_125 1_555 1_555
H9_125 C12_125 1_555 1_555
C13_94 C12_125 1_555 1_555
H10_94 C13_94 1_555 1_555
C14_94 C13_94 1_555 1_555
H11_94 C14_94 1_555 1_555
C15_125 C14_94 1_555 1_555
H12_125 C15_125 1_555 1_555
C16_125 C11_125 1_555 1_555
H13_125 C16_125 1_555 1_555
N3_125 Ag3_94 1_555 1_555
C17_125 N3_125 1_555 1_555
C18_125 C17_125 1_555 1_555
H14_125 C18_125 1_555 1_555
H15_125 C18_125 1_555 1_555
H16_125 C18_125 1_555 1_555
Ag3_27 Ag3_94 1_555 1_555
P2_73 Ag3_94 1_555 1_555
P1_73 Ag3_27 1_555 1_555
C3_125 C4_125 1_555 1_555
C9_125 C10_125 1_555 1_555
C15_125 C16_125 1_555 1_555
Ag3_69 N1_126 1_555 1_555
P1_74 C1_126 1_555 1_555
N1_126 C1_126 1_555 1_555
N4_22 C2_126 1_555 1_555
C1_126 C2_126 1_555 1_555
C2_126 H1_126 1_555 1_555
C3_126 N4_22 1_555 1_555
H2_126 C3_126 1_555 1_555
C4_126 N1_126 1_555 1_555
H3_126 C4_126 1_555 1_555
C5_126 P1_74 1_555 1_555
C6_126 C5_126 1_555 1_555
H4_126 C6_126 1_555 1_555
C7_126 C6_126 1_555 1_555
H5_126 C7_126 1_555 1_555
C8_126 C7_126 1_555 1_555
H6_126 C8_126 1_555 1_555
C9_126 C8_126 1_555 1_555
H7_126 C9_126 1_555 1_555
C10_126 C5_126 1_555 1_555
H8_126 C10_126 1_555 1_555
C11_126 P1_74 1_555 1_555
C12_126 C11_126 1_555 1_555
H9_126 C12_126 1_555 1_555
H12_126 C15_126 1_555 1_555
C16_126 C11_126 1_555 1_555
H13_126 C16_126 1_555 1_555
N3_126 Ag3_69 1_555 1_555
C17_126 N3_126 1_555 1_555
C18_126 C17_126 1_555 1_555
H14_126 C18_126 1_555 1_555
H15_126 C18_126 1_555 1_555
H16_126 C18_126 1_555 1_555
Ag3_2 Ag3_69 1_555 1_555
P2_74 Ag3_69 1_555 1_555
P1_74 Ag3_2 1_555 1_555
C3_126 C4_126 1_555 1_555
C9_126 C10_126 1_555 1_555
C15_126 C16_126 1_555 1_555
Ag3_23 N1_127 1_555 1_555
P1_75 C1_127 1_555 1_555
N1_127 C1_127 1_555 1_555
N4_72 C2_127 1_555 1_555
C1_127 C2_127 1_555 1_555
C2_127 H1_127 1_555 1_555
C3_127 N4_72 1_555 1_555
H2_127 C3_127 1_555 1_555
C4_127 N1_127 1_555 1_555
H3_127 C4_127 1_555 1_555
C11_127 P1_75 1_555 1_555
C12_127 C11_127 1_555 1_555
C13_95 C12_127 1_555 1_555
H10_95 C13_95 1_555 1_555
C14_95 C13_95 1_555 1_555
H11_95 C14_95 1_555 1_555
C15_127 C14_95 1_555 1_555
H12_127 C15_127 1_555 1_555
C16_127 C11_127 1_555 1_555
H13_127 C16_127 1_555 1_555
N3_127 Ag3_23 1_555 1_555
C17_127 N3_127 1_555 1_555
C18_127 C17_127 1_555 1_555
H14_127 C18_127 1_555 1_555
H15_127 C18_127 1_555 1_555
H16_127 C18_127 1_555 1_555
C3_127 C4_127 1_555 1_555
C15_127 C16_127 1_555 1_555
C6_127 C5_127 1_555 1_555
H4_127 C6_127 1_555 1_555
C7_127 C6_127 1_555 1_555
H5_127 C7_127 1_555 1_555
C8_127 C7_127 1_555 1_555
H6_127 C8_127 1_555 1_555
C9_127 C8_127 1_555 1_555
H7_127 C9_127 1_555 1_555
C10_127 C5_127 1_555 1_555
C9_127 C10_127 1_555 1_555
Ag3_48 N1_128 1_555 1_555
P1_76 C1_128 1_555 1_555
N1_128 C1_128 1_555 1_555
N4_95 C2_128 1_555 1_555
C1_128 C2_128 1_555 1_555
C2_128 H1_128 1_555 1_555
C3_128 N4_95 1_555 1_555
H2_128 C3_128 1_555 1_555
C4_128 N1_128 1_555 1_555
H3_128 C4_128 1_555 1_555
C5_128 P1_76 1_555 1_555
C6_128 C5_128 1_555 1_555
H4_128 C6_128 1_555 1_555
C7_128 C6_128 1_555 1_555
H5_128 C7_128 1_555 1_555
C8_128 C7_128 1_555 1_555
H6_128 C8_128 1_555 1_555
C9_128 C8_128 1_555 1_555
H7_128 C9_128 1_555 1_555
C10_128 C5_128 1_555 1_555
H8_128 C10_128 1_555 1_555
C11_128 P1_76 1_555 1_555
C12_128 C11_128 1_555 1_555
H9_128 C12_128 1_555 1_555
C13_96 C12_128 1_555 1_555
H10_96 C13_96 1_555 1_555
C14_96 C13_96 1_555 1_555
H11_96 C14_96 1_555 1_555
C15_128 C14_96 1_555 1_555
H12_128 C15_128 1_555 1_555
C16_128 C11_128 1_555 1_555
H13_128 C16_128 1_555 1_555
N3_128 Ag3_48 1_555 1_555
C17_128 N3_128 1_555 1_555
C18_128 C17_128 1_555 1_555
H14_128 C18_128 1_555 1_555
H15_128 C18_128 1_555 1_555
H16_128 C18_128 1_555 1_555
Ag3_73 Ag3_48 1_555 1_555
P2_76 Ag3_48 1_555 1_555
P1_76 Ag3_73 1_555 1_555
C3_128 C4_128 1_555 1_555
C9_128 C10_128 1_555 1_555
C15_128 C16_128 1_555 1_555
Ag3_65 N1_129 1_555 1_555
P1_77 C1_129 1_555 1_555
N1_129 C1_129 1_555 1_555
N4_42 C2_129 1_555 1_555
C1_129 C2_129 1_555 1_555
C2_129 H1_129 1_555 1_555
C3_129 N4_42 1_555 1_555
H2_129 C3_129 1_555 1_555
C4_129 N1_129 1_555 1_555
H3_129 C4_129 1_555 1_555
C5_129 P1_77 1_555 1_555
C6_129 C5_129 1_555 1_555
H4_129 C6_129 1_555 1_555
C7_129 C6_129 1_555 1_555
H5_129 C7_129 1_555 1_555
C8_129 C7_129 1_555 1_555
H6_129 C8_129 1_555 1_555
C9_129 C8_129 1_555 1_555
H7_129 C9_129 1_555 1_555
C10_129 C5_129 1_555 1_555
H8_129 C10_129 1_555 1_555
C11_129 P1_77 1_555 1_555
C12_129 C11_129 1_555 1_555
H9_129 C12_129 1_555 1_555
H12_129 C15_129 1_555 1_555
C16_129 C11_129 1_555 1_555
H13_129 C16_129 1_555 1_555
N3_129 Ag3_65 1_555 1_555
C17_129 N3_129 1_555 1_555
C18_129 C17_129 1_555 1_555
H14_129 C18_129 1_555 1_555
H15_129 C18_129 1_555 1_555
H16_129 C18_129 1_555 1_555
Ag3_31 Ag3_65 1_555 1_555
P2_77 Ag3_65 1_555 1_555
P1_77 Ag3_31 1_555 1_555
C3_129 C4_129 1_555 1_555
C9_129 C10_129 1_555 1_555
C15_129 C16_129 1_555 1_555
Ag3_18 N1_130 1_555 1_555
P1_78 C1_130 1_555 1_555
N1_130 C1_130 1_555 1_555
N4_89 C2_130 1_555 1_555
C1_130 C2_130 1_555 1_555
C2_130 H1_130 1_555 1_555
C3_130 N4_89 1_555 1_555
H2_130 C3_130 1_555 1_555
C4_130 N1_130 1_555 1_555
H3_130 C4_130 1_555 1_555
C5_130 P1_78 1_555 1_555
C6_130 C5_130 1_555 1_555
H4_130 C6_130 1_555 1_555
C7_130 C6_130 1_555 1_555
H5_130 C7_130 1_555 1_555
C8_130 C7_130 1_555 1_555
H6_130 C8_130 1_555 1_555
C9_130 C8_130 1_555 1_555
H7_130 C9_130 1_555 1_555
C10_130 C5_130 1_555 1_555
H8_130 C10_130 1_555 1_555
C11_130 P1_78 1_555 1_555
C12_130 C11_130 1_555 1_555
H9_130 C12_130 1_555 1_555
C13_97 C12_130 1_555 1_555
H10_97 C13_97 1_555 1_555
C14_97 C13_97 1_555 1_555
H11_97 C14_97 1_555 1_555
C15_130 C14_97 1_555 1_555
H12_130 C15_130 1_555 1_555
C16_130 C11_130 1_555 1_555
H13_130 C16_130 1_555 1_555
N3_130 Ag3_18 1_555 1_555
C17_130 N3_130 1_555 1_555
C18_130 C17_130 1_555 1_555
H14_130 C18_130 1_555 1_555
H15_130 C18_130 1_555 1_555
H16_130 C18_130 1_555 1_555
Ag3_78 Ag3_18 1_555 1_555
P2_78 Ag3_18 1_555 1_555
P1_78 Ag3_78 1_555 1_555
C3_130 C4_130 1_555 1_555
C9_130 C10_130 1_555 1_555
C15_130 C16_130 1_555 1_555
Ag3_92 N1_131 1_555 1_555
P1_79 C1_131 1_555 1_555
N1_131 C1_131 1_555 1_555
N4_19 C2_131 1_555 1_555
C1_131 C2_131 1_555 1_555
C2_131 H1_131 1_555 1_555
C3_131 N4_19 1_555 1_555
H2_131 C3_131 1_555 1_555
C4_131 N1_131 1_555 1_555
H3_131 C4_131 1_555 1_555
C11_131 P1_79 1_555 1_555
C12_131 C11_131 1_555 1_555
C13_98 C12_131 1_555 1_555
H10_98 C13_98 1_555 1_555
C14_98 C13_98 1_555 1_555
H11_98 C14_98 1_555 1_555
C15_131 C14_98 1_555 1_555
H12_131 C15_131 1_555 1_555
C16_131 C11_131 1_555 1_555
H13_131 C16_131 1_555 1_555
N3_131 Ag3_92 1_555 1_555
C17_131 N3_131 1_555 1_555
C18_131 C17_131 1_555 1_555
H14_131 C18_131 1_555 1_555
H15_131 C18_131 1_555 1_555
H16_131 C18_131 1_555 1_555
C3_131 C4_131 1_555 1_555
C15_131 C16_131 1_555 1_555
C6_131 C5_131 1_555 1_555
H4_131 C6_131 1_555 1_555
C7_131 C6_131 1_555 1_555
H5_131 C7_131 1_555 1_555
C8_131 C7_131 1_555 1_555
H6_131 C8_131 1_555 1_555
C9_131 C8_131 1_555 1_555
H7_131 C9_131 1_555 1_555
C10_131 C5_131 1_555 1_555
C9_131 C10_131 1_555 1_555
Ag3_43 N1_132 1_555 1_555
P1_80 C1_132 1_555 1_555
N1_132 C1_132 1_555 1_555
N4_68 C2_132 1_555 1_555
C1_132 C2_132 1_555 1_555
C2_132 H1_132 1_555 1_555
C3_132 N4_68 1_555 1_555
H2_132 C3_132 1_555 1_555
C4_132 N1_132 1_555 1_555
H3_132 C4_132 1_555 1_555
C5_132 P1_80 1_555 1_555
C6_132 C5_132 1_555 1_555
H4_132 C6_132 1_555 1_555
C7_132 C6_132 1_555 1_555
H5_132 C7_132 1_555 1_555
C8_132 C7_132 1_555 1_555
H6_132 C8_132 1_555 1_555
C9_132 C8_132 1_555 1_555
H7_132 C9_132 1_555 1_555
C10_132 C5_132 1_555 1_555
H8_132 C10_132 1_555 1_555
C11_132 P1_80 1_555 1_555
C12_132 C11_132 1_555 1_555
H9_132 C12_132 1_555 1_555
C13_99 C12_132 1_555 1_555
H10_99 C13_99 1_555 1_555
C14_99 C13_99 1_555 1_555
H11_99 C14_99 1_555 1_555
C15_132 C14_99 1_555 1_555
H12_132 C15_132 1_555 1_555
C16_132 C11_132 1_555 1_555
H13_132 C16_132 1_555 1_555
N3_132 Ag3_43 1_555 1_555
C17_132 N3_132 1_555 1_555
C18_132 C17_132 1_555 1_555
H14_132 C18_132 1_555 1_555
H15_132 C18_132 1_555 1_555
H16_132 C18_132 1_555 1_555
Ag3_53 Ag3_43 1_555 1_555
P2_80 Ag3_43 1_555 1_555
P1_80 Ag3_53 1_555 1_555
C3_132 C4_132 1_555 1_555
C9_132 C10_132 1_555 1_555
C15_132 C16_132 1_555 1_555
C6_133 C5_133 1_555 1_555
H4_133 C6_133 1_555 1_555
C7_133 C6_133 1_555 1_555
H5_133 C7_133 1_555 1_555
C8_133 C7_133 1_555 1_555
H6_133 C8_133 1_555 1_555
C9_133 C8_133 1_555 1_555
H7_133 C9_133 1_555 1_555
C10_133 C5_133 1_555 1_555
C9_133 C10_133 1_555 1_555
Ag3_4 N1_133 1_555 1_555
P1_81 C1_133 1_555 1_555
N1_133 C1_133 1_555 1_555
N4_51 C2_133 1_555 1_555
C1_133 C2_133 1_555 1_555
C2_133 H1_133 1_555 1_555
C3_133 N4_51 1_555 1_555
H2_133 C3_133 1_555 1_555
C4_133 N1_133 1_555 1_555
H3_133 C4_133 1_555 1_555
C11_133 P1_81 1_555 1_555
C12_133 C11_133 1_555 1_555
H12_133 C15_133 1_555 1_555
C16_133 C11_133 1_555 1_555
H13_133 C16_133 1_555 1_555
N3_133 Ag3_4 1_555 1_555
C17_133 N3_133 1_555 1_555
C18_133 C17_133 1_555 1_555
H14_133 C18_133 1_555 1_555
H15_133 C18_133 1_555 1_555
H16_133 C18_133 1_555 1_555
C3_133 C4_133 1_555 1_555
C15_133 C16_133 1_555 1_555
Ag3_75 N1_134 1_555 1_555
P1_82 C1_134 1_555 1_555
N1_134 C1_134 1_555 1_555
N4_28 C2_134 1_555 1_555
C1_134 C2_134 1_555 1_555
C2_134 H1_134 1_555 1_555
C3_134 N4_28 1_555 1_555
H2_134 C3_134 1_555 1_555
C4_134 N1_134 1_555 1_555
H3_134 C4_134 1_555 1_555
C5_134 P1_82 1_555 1_555
C6_134 C5_134 1_555 1_555
H4_134 C6_134 1_555 1_555
C7_134 C6_134 1_555 1_555
H5_134 C7_134 1_555 1_555
C8_134 C7_134 1_555 1_555
H6_134 C8_134 1_555 1_555
C9_134 C8_134 1_555 1_555
H7_134 C9_134 1_555 1_555
C10_134 C5_134 1_555 1_555
H8_134 C10_134 1_555 1_555
C11_134 P1_82 1_555 1_555
C12_134 C11_134 1_555 1_555
H9_134 C12_134 1_555 1_555
C13_100 C12_134 1_555 1_555
H10_100 C13_100 1_555 1_555
C14_100 C13_100 1_555 1_555
H11_100 C14_100 1_555 1_555
C15_134 C14_100 1_555 1_555
H12_134 C15_134 1_555 1_555
C16_134 C11_134 1_555 1_555
H13_134 C16_134 1_555 1_555
N3_134 Ag3_75 1_555 1_555
C17_134 N3_134 1_555 1_555
C18_134 C17_134 1_555 1_555
H14_134 C18_134 1_555 1_555
H15_134 C18_134 1_555 1_555
H16_134 C18_134 1_555 1_555
Ag3_46 Ag3_75 1_555 1_555
P2_82 Ag3_75 1_555 1_555
P1_82 Ag3_46 1_555 1_555
C3_134 C4_134 1_555 1_555
C9_134 C10_134 1_555 1_555
C15_134 C16_134 1_555 1_555
Ag3_25 N1_135 1_555 1_555
P1_83 C1_135 1_555 1_555
N1_135 C1_135 1_555 1_555
N4_74 C2_135 1_555 1_555
C1_135 C2_135 1_555 1_555
C2_135 H1_135 1_555 1_555
C3_135 N4_74 1_555 1_555
H2_135 C3_135 1_555 1_555
C4_135 N1_135 1_555 1_555
H3_135 C4_135 1_555 1_555
C5_135 P1_83 1_555 1_555
C6_135 C5_135 1_555 1_555
H4_135 C6_135 1_555 1_555
C7_135 C6_135 1_555 1_555
H5_135 C7_135 1_555 1_555
C8_135 C7_135 1_555 1_555
H6_135 C8_135 1_555 1_555
C9_135 C8_135 1_555 1_555
H7_135 C9_135 1_555 1_555
C10_135 C5_135 1_555 1_555
H8_135 C10_135 1_555 1_555
C11_135 P1_83 1_555 1_555
C12_135 C11_135 1_555 1_555
H9_135 C12_135 1_555 1_555
C13_101 C12_135 1_555 1_555
H10_101 C13_101 1_555 1_555
C14_101 C13_101 1_555 1_555
H11_101 C14_101 1_555 1_555
C15_135 C14_101 1_555 1_555
H12_135 C15_135 1_555 1_555
C16_135 C11_135 1_555 1_555
H13_135 C16_135 1_555 1_555
N3_135 Ag3_25 1_555 1_555
C17_135 N3_135 1_555 1_555
C18_135 C17_135 1_555 1_555
H14_135 C18_135 1_555 1_555
H15_135 C18_135 1_555 1_555
H16_135 C18_135 1_555 1_555
Ag3_96 Ag3_25 1_555 1_555
P2_83 Ag3_25 1_555 1_555
P1_83 Ag3_96 1_555 1_555
C3_135 C4_135 1_555 1_555
C9_135 C10_135 1_555 1_555
C15_135 C16_135 1_555 1_555
Ag3_50 N1_136 1_555 1_555
P1_84 C1_136 1_555 1_555
N1_136 C1_136 1_555 1_555
N4 C2_136 1_555 1_555
C1_136 C2_136 1_555 1_555
C2_136 H1_136 1_555 1_555
C3_136 N4 1_555 1_555
H2_136 C3_136 1_555 1_555
C4_136 N1_136 1_555 1_555
H3_136 C4_136 1_555 1_555
C5_136 P1_84 1_555 1_555
C6_136 C5_136 1_555 1_555
H4_136 C6_136 1_555 1_555
C7_136 C6_136 1_555 1_555
H5_136 C7_136 1_555 1_555
C8_136 C7_136 1_555 1_555
H6_136 C8_136 1_555 1_555
C9_136 C8_136 1_555 1_555
H7_136 C9_136 1_555 1_555
C10_136 C5_136 1_555 1_555
H8_136 C10_136 1_555 1_555
C11_136 P1_84 1_555 1_555
C12_136 C11_136 1_555 1_555
H9_136 C12_136 1_555 1_555
C13_102 C12_136 1_555 1_555
H10_102 C13_102 1_555 1_555
C14_102 C13_102 1_555 1_555
H11_102 C14_102 1_555 1_555
C15_136 C14_102 1_555 1_555
H12_136 C15_136 1_555 1_555
C16_136 C11_136 1_555 1_555
H13_136 C16_136 1_555 1_555
N3_136 Ag3_50 1_555 1_555
C17_136 N3_136 1_555 1_555
C18_136 C17_136 1_555 1_555
H14_136 C18_136 1_555 1_555
H15_136 C18_136 1_555 1_555
H16_136 C18_136 1_555 1_555
Ag3_21 Ag3_50 1_555 1_555
P2_84 Ag3_50 1_555 1_555
P1_84 Ag3_21 1_555 1_555
C3_136 C4_136 1_555 1_555
C9_136 C10_136 1_555 1_555
C15_136 C16_136 1_555 1_555
C6_137 C5_137 1_555 1_555
H4_137 C6_137 1_555 1_555
C7_137 C6_137 1_555 1_555
H5_137 C7_137 1_555 1_555
C8_137 C7_137 1_555 1_555
H6_137 C8_137 1_555 1_555
C9_137 C8_137 1_555 1_555
H7_137 C9_137 1_555 1_555
C10_137 C5_137 1_555 1_555
C9_137 C10_137 1_555 1_555
Ag3_82 N1_137 1_555 1_555
P2_50 C1_137 1_555 1_555
N1_137 C1_137 1_555 1_555
N4_57 C2_137 1_555 1_555
C1_137 C2_137 1_555 1_555
C2_137 H1_137 1_555 1_555
C3_137 N4_57 1_555 1_555
H2_137 C3_137 1_555 1_555
C4_137 N1_137 1_555 1_555
H3_137 C4_137 1_555 1_555
C11_137 P2_50 1_555 1_555
C12_137 C11_137 1_555 1_555
C13_103 C12_137 1_555 1_555
H10_103 C13_103 1_555 1_555
C14_103 C13_103 1_555 1_555
H11_103 C14_103 1_555 1_555
C15_137 C14_103 1_555 1_555
H12_137 C15_137 1_555 1_555
C16_137 C11_137 1_555 1_555
H13_137 C16_137 1_555 1_555
N3_137 Ag3_82 1_555 1_555
C17_137 N3_137 1_555 1_555
C18_137 C17_137 1_555 1_555
H14_137 C18_137 1_555 1_555
H15_137 C18_137 1_555 1_555
H16_137 C18_137 1_555 1_555
C3_137 C4_137 1_555 1_555
C15_137 C16_137 1_555 1_555
Ag3_33 N1_138 1_555 1_555
P2_52 C1_138 1_555 1_555
N1_138 C1_138 1_555 1_555
N4_10 C2_138 1_555 1_555
C1_138 C2_138 1_555 1_555
C2_138 H1_138 1_555 1_555
C3_138 N4_10 1_555 1_555
H2_138 C3_138 1_555 1_555
C4_138 N1_138 1_555 1_555
H3_138 C4_138 1_555 1_555
C5_138 P2_52 1_555 1_555
C6_138 C5_138 1_555 1_555
H4_138 C6_138 1_555 1_555
C7_138 C6_138 1_555 1_555
H5_138 C7_138 1_555 1_555
C8_138 C7_138 1_555 1_555
H6_138 C8_138 1_555 1_555
C9_138 C8_138 1_555 1_555
H7_138 C9_138 1_555 1_555
C10_138 C5_138 1_555 1_555
H8_138 C10_138 1_555 1_555
C11_138 P2_52 1_555 1_555
C12_138 C11_138 1_555 1_555
H9_138 C12_138 1_555 1_555
C13_104 C12_138 1_555 1_555
H10_104 C13_104 1_555 1_555
C14_104 C13_104 1_555 1_555
H11_104 C14_104 1_555 1_555
C15_138 C14_104 1_555 1_555
H12_138 C15_138 1_555 1_555
C16_138 C11_138 1_555 1_555
H13_138 C16_138 1_555 1_555
N3_138 Ag3_33 1_555 1_555
C17_138 N3_138 1_555 1_555
C18_138 C17_138 1_555 1_555
H14_138 C18_138 1_555 1_555
H15_138 C18_138 1_555 1_555
H16_138 C18_138 1_555 1_555
C3_138 C4_138 1_555 1_555
C9_138 C10_138 1_555 1_555
C15_138 C16_138 1_555 1_555
Ag3_11 N1_139 1_555 1_555
P2_49 C1_139 1_555 1_555
N1_139 C1_139 1_555 1_555
N4_36 C2_139 1_555 1_555
C1_139 C2_139 1_555 1_555
C2_139 H1_139 1_555 1_555
C3_139 N4_36 1_555 1_555
H2_139 C3_139 1_555 1_555
C4_139 N1_139 1_555 1_555
H3_139 C4_139 1_555 1_555
C5_139 P2_49 1_555 1_555
C6_139 C5_139 1_555 1_555
H4_139 C6_139 1_555 1_555
C7_139 C6_139 1_555 1_555
H5_139 C7_139 1_555 1_555
C8_139 C7_139 1_555 1_555
H6_139 C8_139 1_555 1_555
C9_139 C8_139 1_555 1_555
H7_139 C9_139 1_555 1_555
C10_139 C5_139 1_555 1_555
H8_139 C10_139 1_555 1_555
C11_139 P2_49 1_555 1_555
C12_139 C11_139 1_555 1_555
H9_139 C12_139 1_555 1_555
C13_105 C12_139 1_555 1_555
H10_105 C13_105 1_555 1_555
C14_105 C13_105 1_555 1_555
H11_105 C14_105 1_555 1_555
C15_139 C14_105 1_555 1_555
H12_139 C15_139 1_555 1_555
C16_139 C11_139 1_555 1_555
H13_139 C16_139 1_555 1_555
N3_139 Ag3_11 1_555 1_555
C17_139 N3_139 1_555 1_555
C18_139 C17_139 1_555 1_555
H14_139 C18_139 1_555 1_555
H15_139 C18_139 1_555 1_555
H16_139 C18_139 1_555 1_555
C3_139 C4_139 1_555 1_555
C9_139 C10_139 1_555 1_555
C15_139 C16_139 1_555 1_555
Ag3_60 N1_140 1_555 1_555
P2_51 C1_140 1_555 1_555
N1_140 C1_140 1_555 1_555
N4_83 C2_140 1_555 1_555
C1_140 C2_140 1_555 1_555
C2_140 H1_140 1_555 1_555
C3_140 N4_83 1_555 1_555
H2_140 C3_140 1_555 1_555
C4_140 N1_140 1_555 1_555
H3_140 C4_140 1_555 1_555
C5_140 P2_51 1_555 1_555
C6_140 C5_140 1_555 1_555
H4_140 C6_140 1_555 1_555
C7_140 C6_140 1_555 1_555
H5_140 C7_140 1_555 1_555
C8_140 C7_140 1_555 1_555
H6_140 C8_140 1_555 1_555
C9_140 C8_140 1_555 1_555
H7_140 C9_140 1_555 1_555
C10_140 C5_140 1_555 1_555
H8_140 C10_140 1_555 1_555
C11_140 P2_51 1_555 1_555
C12_140 C11_140 1_555 1_555
H9_140 C12_140 1_555 1_555
H12_140 C15_140 1_555 1_555
C16_140 C11_140 1_555 1_555
H13_140 C16_140 1_555 1_555
N3_140 Ag3_60 1_555 1_555
C17_140 N3_140 1_555 1_555
C18_140 C17_140 1_555 1_555
H14_140 C18_140 1_555 1_555
H15_140 C18_140 1_555 1_555
H16_140 C18_140 1_555 1_555
C3_140 C4_140 1_555 1_555
C9_140 C10_140 1_555 1_555
C15_140 C16_140 1_555 1_555
Ag3_29 N1_141 1_555 1_555
P1_85 C1_141 1_555 1_555
N1_141 C1_141 1_555 1_555
N4_54 C2_141 1_555 1_555
C1_141 C2_141 1_555 1_555
C2_141 H1_141 1_555 1_555
C3_141 N4_54 1_555 1_555
H2_141 C3_141 1_555 1_555
C4_141 N1_141 1_555 1_555
H3_141 C4_141 1_555 1_555
C5_141 P1_85 1_555 1_555
C6_141 C5_141 1_555 1_555
H4_141 C6_141 1_555 1_555
C7_141 C6_141 1_555 1_555
H5_141 C7_141 1_555 1_555
C8_141 C7_141 1_555 1_555
H6_141 C8_141 1_555 1_555
C9_141 C8_141 1_555 1_555
H7_141 C9_141 1_555 1_555
C10_141 C5_141 1_555 1_555
H8_141 C10_141 1_555 1_555
C11_141 P1_85 1_555 1_555
C12_141 C11_141 1_555 1_555
H9_141 C12_141 1_555 1_555
C13_106 C12_141 1_555 1_555
H10_106 C13_106 1_555 1_555
C14_106 C13_106 1_555 1_555
H11_106 C14_106 1_555 1_555
C15_141 C14_106 1_555 1_555
H12_141 C15_141 1_555 1_555
C16_141 C11_141 1_555 1_555
H13_141 C16_141 1_555 1_555
N3_141 Ag3_29 1_555 1_555
C17_141 N3_141 1_555 1_555
C18_141 C17_141 1_555 1_555
H14_141 C18_141 1_555 1_555
H15_141 C18_141 1_555 1_555
H16_141 C18_141 1_555 1_555
Ag3_67 Ag3_29 1_555 1_555
P2_85 Ag3_29 1_555 1_555
P1_85 Ag3_67 1_555 1_555
C3_141 C4_141 1_555 1_555
C9_141 C10_141 1_555 1_555
C15_141 C16_141 1_555 1_555
Ag3_6 N1_142 1_555 1_555
P1_86 C1_142 1_555 1_555
N1_142 C1_142 1_555 1_555
N4_77 C2_142 1_555 1_555
C1_142 C2_142 1_555 1_555
C2_142 H1_142 1_555 1_555
C3_142 N4_77 1_555 1_555
H2_142 C3_142 1_555 1_555
C4_142 N1_142 1_555 1_555
H3_142 C4_142 1_555 1_555
C5_142 P1_86 1_555 1_555
C6_142 C5_142 1_555 1_555
H4_142 C6_142 1_555 1_555
C7_142 C6_142 1_555 1_555
H5_142 C7_142 1_555 1_555
C8_142 C7_142 1_555 1_555
H6_142 C8_142 1_555 1_555
C9_142 C8_142 1_555 1_555
H7_142 C9_142 1_555 1_555
C10_142 C5_142 1_555 1_555
H8_142 C10_142 1_555 1_555
C11_142 P1_86 1_555 1_555
C12_142 C11_142 1_555 1_555
H9_142 C12_142 1_555 1_555
C13_107 C12_142 1_555 1_555
H10_107 C13_107 1_555 1_555
C14_107 C13_107 1_555 1_555
H11_107 C14_107 1_555 1_555
C15_142 C14_107 1_555 1_555
H12_142 C15_142 1_555 1_555
C16_142 C11_142 1_555 1_555
H13_142 C16_142 1_555 1_555
N3_142 Ag3_6 1_555 1_555
C17_142 N3_142 1_555 1_555
C18_142 C17_142 1_555 1_555
H14_142 C18_142 1_555 1_555
H15_142 C18_142 1_555 1_555
H16_142 C18_142 1_555 1_555
Ag3_90 Ag3_6 1_555 1_555
P2_86 Ag3_6 1_555 1_555
P1_86 Ag3_90 1_555 1_555
C3_142 C4_142 1_555 1_555
C9_142 C10_142 1_555 1_555
C15_142 C16_142 1_555 1_555
C6_143 C5_143 1_555 1_555
H4_143 C6_143 1_555 1_555
C7_143 C6_143 1_555 1_555
H5_143 C7_143 1_555 1_555
C8_143 C7_143 1_555 1_555
H6_143 C8_143 1_555 1_555
C9_143 C8_143 1_555 1_555
H7_143 C9_143 1_555 1_555
C10_143 C5_143 1_555 1_555
C9_143 C10_143 1_555 1_555
Ag3_80 N1_143 1_555 1_555
P1_87 C1_143 1_555 1_555
N1_143 C1_143 1_555 1_555
N4_7 C2_143 1_555 1_555
C1_143 C2_143 1_555 1_555
C2_143 H1_143 1_555 1_555
C3_143 N4_7 1_555 1_555
H2_143 C3_143 1_555 1_555
C4_143 N1_143 1_555 1_555
H3_143 C4_143 1_555 1_555
C11_143 P1_87 1_555 1_555
C12_143 C11_143 1_555 1_555
C13_108 C12_143 1_555 1_555
H10_108 C13_108 1_555 1_555
C14_108 C13_108 1_555 1_555
H11_108 C14_108 1_555 1_555
C15_143 C14_108 1_555 1_555
H12_143 C15_143 1_555 1_555
C16_143 C11_143 1_555 1_555
H13_143 C16_143 1_555 1_555
N3_143 Ag3_80 1_555 1_555
C17_143 N3_143 1_555 1_555
C18_143 C17_143 1_555 1_555
H14_143 C18_143 1_555 1_555
H15_143 C18_143 1_555 1_555
H16_143 C18_143 1_555 1_555
C3_143 C4_143 1_555 1_555
C15_143 C16_143 1_555 1_555
Ag3_55 N1_144 1_555 1_555
P1_88 C1_144 1_555 1_555
N1_144 C1_144 1_555 1_555
N4_32 C2_144 1_555 1_555
C1_144 C2_144 1_555 1_555
C2_144 H1_144 1_555 1_555
C3_144 N4_32 1_555 1_555
H2_144 C3_144 1_555 1_555
C4_144 N1_144 1_555 1_555
H3_144 C4_144 1_555 1_555
C5_144 P1_88 1_555 1_555
C6_144 C5_144 1_555 1_555
H4_144 C6_144 1_555 1_555
C7_144 C6_144 1_555 1_555
H5_144 C7_144 1_555 1_555
C8_144 C7_144 1_555 1_555
H6_144 C8_144 1_555 1_555
C9_144 C8_144 1_555 1_555
H7_144 C9_144 1_555 1_555
C10_144 C5_144 1_555 1_555
H8_144 C10_144 1_555 1_555
C11_144 P1_88 1_555 1_555
C12_144 C11_144 1_555 1_555
H9_144 C12_144 1_555 1_555
H12_144 C15_144 1_555 1_555
C16_144 C11_144 1_555 1_555
H13_144 C16_144 1_555 1_555
N3_144 Ag3_55 1_555 1_555
C17_144 N3_144 1_555 1_555
C18_144 C17_144 1_555 1_555
H14_144 C18_144 1_555 1_555
H15_144 C18_144 1_555 1_555
H16_144 C18_144 1_555 1_555
Ag3_41 Ag3_55 1_555 1_555
P2_88 Ag3_55 1_555 1_555
P1_88 Ag3_41 1_555 1_555
C3_144 C4_144 1_555 1_555
C9_144 C10_144 1_555 1_555
C15_144 C16_144 1_555 1_555
Ag3_88 N1_145 1_555 1_555
P1_89 C1_145 1_555 1_555
N1_145 C1_145 1_555 1_555
N4_63 C2_145 1_555 1_555
C1_145 C2_145 1_555 1_555
C2_145 H1_145 1_555 1_555
C3_145 N4_63 1_555 1_555
H2_145 C3_145 1_555 1_555
C4_145 N1_145 1_555 1_555
H3_145 C4_145 1_555 1_555
C5_145 P1_89 1_555 1_555
C6_145 C5_145 1_555 1_555
H4_145 C6_145 1_555 1_555
C7_145 C6_145 1_555 1_555
H5_145 C7_145 1_555 1_555
C8_145 C7_145 1_555 1_555
H6_145 C8_145 1_555 1_555
C9_145 C8_145 1_555 1_555
H7_145 C9_145 1_555 1_555
C10_145 C5_145 1_555 1_555
H8_145 C10_145 1_555 1_555
C11_145 P1_89 1_555 1_555
C12_145 C11_145 1_555 1_555
H9_145 C12_145 1_555 1_555
H12_145 C15_145 1_555 1_555
C16_145 C11_145 1_555 1_555
H13_145 C16_145 1_555 1_555
N3_145 Ag3_88 1_555 1_555
C17_145 N3_145 1_555 1_555
C18_145 C17_145 1_555 1_555
H14_145 C18_145 1_555 1_555
H15_145 C18_145 1_555 1_555
H16_145 C18_145 1_555 1_555
Ag3_59 Ag3_88 1_555 1_555
P2_89 Ag3_88 1_555 1_555
P1_89 Ag3_59 1_555 1_555
C3_145 C4_145 1_555 1_555
C9_145 C10_145 1_555 1_555
C15_145 C16_145 1_555 1_555
Ag3_15 N1_146 1_555 1_555
P1_90 C1_146 1_555 1_555
N1_146 C1_146 1_555 1_555
N4_40 C2_146 1_555 1_555
C1_146 C2_146 1_555 1_555
C2_146 H1_146 1_555 1_555
C3_146 N4_40 1_555 1_555
H2_146 C3_146 1_555 1_555
C4_146 N1_146 1_555 1_555
H3_146 C4_146 1_555 1_555
C5_146 P1_90 1_555 1_555
C6_146 C5_146 1_555 1_555
H4_146 C6_146 1_555 1_555
C7_146 C6_146 1_555 1_555
H5_146 C7_146 1_555 1_555
C8_146 C7_146 1_555 1_555
H6_146 C8_146 1_555 1_555
C9_146 C8_146 1_555 1_555
H7_146 C9_146 1_555 1_555
C10_146 C5_146 1_555 1_555
H8_146 C10_146 1_555 1_555
C11_146 P1_90 1_555 1_555
C12_146 C11_146 1_555 1_555
H9_146 C12_146 1_555 1_555
C13_109 C12_146 1_555 1_555
H10_109 C13_109 1_555 1_555
C14_109 C13_109 1_555 1_555
H11_109 C14_109 1_555 1_555
C15_146 C14_109 1_555 1_555
H12_146 C15_146 1_555 1_555
C16_146 C11_146 1_555 1_555
H13_146 C16_146 1_555 1_555
N3_146 Ag3_15 1_555 1_555
C17_146 N3_146 1_555 1_555
C18_146 C17_146 1_555 1_555
H14_146 C18_146 1_555 1_555
H15_146 C18_146 1_555 1_555
H16_146 C18_146 1_555 1_555
Ag3_34 Ag3_15 1_555 1_555
P2_90 Ag3_15 1_555 1_555
P1_90 Ag3_34 1_555 1_555
C3_146 C4_146 1_555 1_555
C9_146 C10_146 1_555 1_555
C15_146 C16_146 1_555 1_555
Ag3_37 N1_147 1_555 1_555
P1_91 C1_147 1_555 1_555
N1_147 C1_147 1_555 1_555
N4_14 C2_147 1_555 1_555
C1_147 C2_147 1_555 1_555
C2_147 H1_147 1_555 1_555
C3_147 N4_14 1_555 1_555
H2_147 C3_147 1_555 1_555
C4_147 N1_147 1_555 1_555
H3_147 C4_147 1_555 1_555
C11_147 P1_91 1_555 1_555
C12_147 C11_147 1_555 1_555
C13_110 C12_147 1_555 1_555
H10_110 C13_110 1_555 1_555
C14_110 C13_110 1_555 1_555
H11_110 C14_110 1_555 1_555
C15_147 C14_110 1_555 1_555
H12_147 C15_147 1_555 1_555
C16_147 C11_147 1_555 1_555
H13_147 C16_147 1_555 1_555
N3_147 Ag3_37 1_555 1_555
C17_147 N3_147 1_555 1_555
C18_147 C17_147 1_555 1_555
H14_147 C18_147 1_555 1_555
H15_147 C18_147 1_555 1_555
H16_147 C18_147 1_555 1_555
C3_147 C4_147 1_555 1_555
C15_147 C16_147 1_555 1_555
C6_147 C5_147 1_555 1_555
H4_147 C6_147 1_555 1_555
C7_147 C6_147 1_555 1_555
H5_147 C7_147 1_555 1_555
C8_147 C7_147 1_555 1_555
H6_147 C8_147 1_555 1_555
C9_147 C8_147 1_555 1_555
H7_147 C9_147 1_555 1_555
C10_147 C5_147 1_555 1_555
C9_147 C10_147 1_555 1_555
Ag3_62 N1_148 1_555 1_555
P1_92 C1_148 1_555 1_555
N1_148 C1_148 1_555 1_555
N4_85 C2_148 1_555 1_555
C1_148 C2_148 1_555 1_555
C2_148 H1_148 1_555 1_555
C3_148 N4_85 1_555 1_555
H2_148 C3_148 1_555 1_555
C4_148 N1_148 1_555 1_555
H3_148 C4_148 1_555 1_555
C5_148 P1_92 1_555 1_555
C6_148 C5_148 1_555 1_555
H4_148 C6_148 1_555 1_555
C7_148 C6_148 1_555 1_555
H5_148 C7_148 1_555 1_555
C8_148 C7_148 1_555 1_555
H6_148 C8_148 1_555 1_555
C9_148 C8_148 1_555 1_555
H7_148 C9_148 1_555 1_555
C10_148 C5_148 1_555 1_555
H8_148 C10_148 1_555 1_555
C11_148 P1_92 1_555 1_555
C12_148 C11_148 1_555 1_555
H9_148 C12_148 1_555 1_555
C13_111 C12_148 1_555 1_555
H10_111 C13_111 1_555 1_555
C14_111 C13_111 1_555 1_555
H11_111 C14_111 1_555 1_555
C15_148 C14_111 1_555 1_555
H12_148 C15_148 1_555 1_555
C16_148 C11_148 1_555 1_555
H13_148 C16_148 1_555 1_555
N3_148 Ag3_62 1_555 1_555
C17_148 N3_148 1_555 1_555
C18_148 C17_148 1_555 1_555
H14_148 C18_148 1_555 1_555
H15_148 C18_148 1_555 1_555
H16_148 C18_148 1_555 1_555
Ag3_81 Ag3_62 1_555 1_555
P2_92 Ag3_62 1_555 1_555
P1_92 Ag3_81 1_555 1_555
C3_148 C4_148 1_555 1_555
C9_148 C10_148 1_555 1_555
C15_148 C16_148 1_555 1_555
Ag3_22 N1_149 1_555 1_555
P2_62 C1_149 1_555 1_555
N1_149 C1_149 1_555 1_555
N4_69 C2_149 1_555 1_555
C1_149 C2_149 1_555 1_555
C2_149 H1_149 1_555 1_555
C3_149 N4_69 1_555 1_555
H2_149 C3_149 1_555 1_555
C4_149 N1_149 1_555 1_555
H3_149 C4_149 1_555 1_555
C5_149 P2_62 1_555 1_555
C6_149 C5_149 1_555 1_555
H4_149 C6_149 1_555 1_555
C7_149 C6_149 1_555 1_555
H5_149 C7_149 1_555 1_555
C8_149 C7_149 1_555 1_555
H6_149 C8_149 1_555 1_555
C9_149 C8_149 1_555 1_555
H7_149 C9_149 1_555 1_555
C10_149 C5_149 1_555 1_555
H8_149 C10_149 1_555 1_555
C11_149 P2_62 1_555 1_555
C12_149 C11_149 1_555 1_555
H9_149 C12_149 1_555 1_555
H12_149 C15_149 1_555 1_555
C16_149 C11_149 1_555 1_555
H13_149 C16_149 1_555 1_555
N3_149 Ag3_22 1_555 1_555
C17_149 N3_149 1_555 1_555
C18_149 C17_149 1_555 1_555
H14_149 C18_149 1_555 1_555
H15_149 C18_149 1_555 1_555
H16_149 C18_149 1_555 1_555
C3_149 C4_149 1_555 1_555
C9_149 C10_149 1_555 1_555
C15_149 C16_149 1_555 1_555
Ag3_45 N1_150 1_555 1_555
P2_64 C1_150 1_555 1_555
N1_150 C1_150 1_555 1_555
N4_94 C2_150 1_555 1_555
C1_150 C2_150 1_555 1_555
C2_150 H1_150 1_555 1_555
C3_150 N4_94 1_555 1_555
H2_150 C3_150 1_555 1_555
C4_150 N1_150 1_555 1_555
H3_150 C4_150 1_555 1_555
C11_150 P2_64 1_555 1_555
C12_150 C11_150 1_555 1_555
C13_112 C12_150 1_555 1_555
H10_112 C13_112 1_555 1_555
C14_112 C13_112 1_555 1_555
H11_112 C14_112 1_555 1_555
C15_150 C14_112 1_555 1_555
H12_150 C15_150 1_555 1_555
C16_150 C11_150 1_555 1_555
H13_150 C16_150 1_555 1_555
N3_150 Ag3_45 1_555 1_555
C17_150 N3_150 1_555 1_555
C18_150 C17_150 1_555 1_555
H14_150 C18_150 1_555 1_555
H15_150 C18_150 1_555 1_555
H16_150 C18_150 1_555 1_555
C3_150 C4_150 1_555 1_555
C15_150 C16_150 1_555 1_555
C6_150 C5_150 1_555 1_555
H4_150 C6_150 1_555 1_555
C7_150 C6_150 1_555 1_555
H5_150 C7_150 1_555 1_555
C8_150 C7_150 1_555 1_555
H6_150 C8_150 1_555 1_555
C9_150 C8_150 1_555 1_555
H7_150 C9_150 1_555 1_555
C10_150 C5_150 1_555 1_555
C9_150 C10_150 1_555 1_555
Ag3_95 N1_151 1_555 1_555
P2_61 C1_151 1_555 1_555
N1_151 C1_151 1_555 1_555
N4_48 C2_151 1_555 1_555
C1_151 C2_151 1_555 1_555
C2_151 H1_151 1_555 1_555
C3_151 N4_48 1_555 1_555
H2_151 C3_151 1_555 1_555
C4_151 N1_151 1_555 1_555
H3_151 C4_151 1_555 1_555
C5_151 P2_61 1_555 1_555
C6_151 C5_151 1_555 1_555
H4_151 C6_151 1_555 1_555
C7_151 C6_151 1_555 1_555
H5_151 C7_151 1_555 1_555
C8_151 C7_151 1_555 1_555
H6_151 C8_151 1_555 1_555
C9_151 C8_151 1_555 1_555
H7_151 C9_151 1_555 1_555
C10_151 C5_151 1_555 1_555
H8_151 C10_151 1_555 1_555
C11_151 P2_61 1_555 1_555
C12_151 C11_151 1_555 1_555
H9_151 C12_151 1_555 1_555
C13_113 C12_151 1_555 1_555
H10_113 C13_113 1_555 1_555
C14_113 C13_113 1_555 1_555
H11_113 C14_113 1_555 1_555
C15_151 C14_113 1_555 1_555
H12_151 C15_151 1_555 1_555
C16_151 C11_151 1_555 1_555
H13_151 C16_151 1_555 1_555
N3_151 Ag3_95 1_555 1_555
C17_151 N3_151 1_555 1_555
C18_151 C17_151 1_555 1_555
H14_151 C18_151 1_555 1_555
H15_151 C18_151 1_555 1_555
H16_151 C18_151 1_555 1_555
C3_151 C4_151 1_555 1_555
C9_151 C10_151 1_555 1_555
C15_151 C16_151 1_555 1_555
Ag3_72 N1_152 1_555 1_555
P2_63 C1_152 1_555 1_555
N1_152 C1_152 1_555 1_555
N4_23 C2_152 1_555 1_555
C1_152 C2_152 1_555 1_555
C2_152 H1_152 1_555 1_555
C3_152 N4_23 1_555 1_555
H2_152 C3_152 1_555 1_555
C4_152 N1_152 1_555 1_555
H3_152 C4_152 1_555 1_555
C5_152 P2_63 1_555 1_555
C6_152 C5_152 1_555 1_555
H4_152 C6_152 1_555 1_555
C7_152 C6_152 1_555 1_555
H5_152 C7_152 1_555 1_555
C8_152 C7_152 1_555 1_555
H6_152 C8_152 1_555 1_555
C9_152 C8_152 1_555 1_555
H7_152 C9_152 1_555 1_555
C10_152 C5_152 1_555 1_555
H8_152 C10_152 1_555 1_555
C11_152 P2_63 1_555 1_555
C12_152 C11_152 1_555 1_555
H9_152 C12_152 1_555 1_555
C13_114 C12_152 1_555 1_555
H10_114 C13_114 1_555 1_555
C14_114 C13_114 1_555 1_555
H11_114 C14_114 1_555 1_555
C15_152 C14_114 1_555 1_555
H12_152 C15_152 1_555 1_555
C16_152 C11_152 1_555 1_555
H13_152 C16_152 1_555 1_555
N3_152 Ag3_72 1_555 1_555
C17_152 N3_152 1_555 1_555
C18_152 C17_152 1_555 1_555
H14_152 C18_152 1_555 1_555
H15_152 C18_152 1_555 1_555
H16_152 C18_152 1_555 1_555
C3_152 C4_152 1_555 1_555
C9_152 C10_152 1_555 1_555
C15_152 C16_152 1_555 1_555
Ag3_41 N1_153 1_555 1_555
P2_88 C1_153 1_555 1_555
N1_153 C1_153 1_555 1_555
N4_66 C2_153 1_555 1_555
C1_153 C2_153 1_555 1_555
C2_153 H1_153 1_555 1_555
C3_153 N4_66 1_555 1_555
H2_153 C3_153 1_555 1_555
C4_153 N1_153 1_555 1_555
H3_153 C4_153 1_555 1_555
C5_153 P2_88 1_555 1_555
C6_153 C5_153 1_555 1_555
H4_153 C6_153 1_555 1_555
C7_153 C6_153 1_555 1_555
H5_153 C7_153 1_555 1_555
C8_153 C7_153 1_555 1_555
H6_153 C8_153 1_555 1_555
C9_153 C8_153 1_555 1_555
H7_153 C9_153 1_555 1_555
C10_153 C5_153 1_555 1_555
H8_153 C10_153 1_555 1_555
C11_153 P2_88 1_555 1_555
C12_153 C11_153 1_555 1_555
H9_153 C12_153 1_555 1_555
C13_115 C12_153 1_555 1_555
H10_115 C13_115 1_555 1_555
C14_115 C13_115 1_555 1_555
H11_115 C14_115 1_555 1_555
C15_153 C14_115 1_555 1_555
H12_153 C15_153 1_555 1_555
C16_153 C11_153 1_555 1_555
H13_153 C16_153 1_555 1_555
N3_153 Ag3_41 1_555 1_555
C17_153 N3_153 1_555 1_555
C18_153 C17_153 1_555 1_555
H14_153 C18_153 1_555 1_555
H15_153 C18_153 1_555 1_555
H16_153 C18_153 1_555 1_555
C3_153 C4_153 1_555 1_555
C9_153 C10_153 1_555 1_555
C15_153 C16_153 1_555 1_555
Ag3_90 N1_154 1_555 1_555
P2_86 C1_154 1_555 1_555
N1_154 C1_154 1_555 1_555
N4_17 C2_154 1_555 1_555
C1_154 C2_154 1_555 1_555
C2_154 H1_154 1_555 1_555
C3_154 N4_17 1_555 1_555
H2_154 C3_154 1_555 1_555
C4_154 N1_154 1_555 1_555
H3_154 C4_154 1_555 1_555
C5_154 P2_86 1_555 1_555
C6_154 C5_154 1_555 1_555
H4_154 C6_154 1_555 1_555
C7_154 C6_154 1_555 1_555
H5_154 C7_154 1_555 1_555
C8_154 C7_154 1_555 1_555
H6_154 C8_154 1_555 1_555
C9_154 C8_154 1_555 1_555
H7_154 C9_154 1_555 1_555
C10_154 C5_154 1_555 1_555
H8_154 C10_154 1_555 1_555
C11_154 P2_86 1_555 1_555
C12_154 C11_154 1_555 1_555
H9_154 C12_154 1_555 1_555
H12_154 C15_154 1_555 1_555
C16_154 C11_154 1_555 1_555
H13_154 C16_154 1_555 1_555
N3_154 Ag3_90 1_555 1_555
C17_154 N3_154 1_555 1_555
C18_154 C17_154 1_555 1_555
H14_154 C18_154 1_555 1_555
H15_154 C18_154 1_555 1_555
H16_154 C18_154 1_555 1_555
C3_154 C4_154 1_555 1_555
C9_154 C10_154 1_555 1_555
C15_154 C16_154 1_555 1_555
Ag3_20 N1_155 1_555 1_555
P2_87 C1_155 1_555 1_555
N1_155 C1_155 1_555 1_555
N4_91 C2_155 1_555 1_555
C1_155 C2_155 1_555 1_555
C2_155 H1_155 1_555 1_555
C3_155 N4_91 1_555 1_555
H2_155 C3_155 1_555 1_555
C4_155 N1_155 1_555 1_555
H3_155 C4_155 1_555 1_555
C11_155 P2_87 1_555 1_555
C12_155 C11_155 1_555 1_555
C13_116 C12_155 1_555 1_555
H10_116 C13_116 1_555 1_555
C14_116 C13_116 1_555 1_555
H11_116 C14_116 1_555 1_555
C15_155 C14_116 1_555 1_555
H12_155 C15_155 1_555 1_555
C16_155 C11_155 1_555 1_555
H13_155 C16_155 1_555 1_555
N3_155 Ag3_20 1_555 1_555
C17_155 N3_155 1_555 1_555
C18_155 C17_155 1_555 1_555
H14_155 C18_155 1_555 1_555
H15_155 C18_155 1_555 1_555
H16_155 C18_155 1_555 1_555
C3_155 C4_155 1_555 1_555
C15_155 C16_155 1_555 1_555
C6_155 C5_155 1_555 1_555
H4_155 C6_155 1_555 1_555
C7_155 C6_155 1_555 1_555
H5_155 C7_155 1_555 1_555
C8_155 C7_155 1_555 1_555
H6_155 C8_155 1_555 1_555
C9_155 C8_155 1_555 1_555
H7_155 C9_155 1_555 1_555
C10_155 C5_155 1_555 1_555
C9_155 C10_155 1_555 1_555
Ag3_67 N1_156 1_555 1_555
P2_85 C1_156 1_555 1_555
N1_156 C1_156 1_555 1_555
N4_44 C2_156 1_555 1_555
C1_156 C2_156 1_555 1_555
C2_156 H1_156 1_555 1_555
C3_156 N4_44 1_555 1_555
H2_156 C3_156 1_555 1_555
C4_156 N1_156 1_555 1_555
H3_156 C4_156 1_555 1_555
C5_156 P2_85 1_555 1_555
C6_156 C5_156 1_555 1_555
H4_156 C6_156 1_555 1_555
C7_156 C6_156 1_555 1_555
H5_156 C7_156 1_555 1_555
C8_156 C7_156 1_555 1_555
H6_156 C8_156 1_555 1_555
C9_156 C8_156 1_555 1_555
H7_156 C9_156 1_555 1_555
C10_156 C5_156 1_555 1_555
H8_156 C10_156 1_555 1_555
C11_156 P2_85 1_555 1_555
C12_156 C11_156 1_555 1_555
H9_156 C12_156 1_555 1_555
C13_117 C12_156 1_555 1_555
H10_117 C13_117 1_555 1_555
C14_117 C13_117 1_555 1_555
H11_117 C14_117 1_555 1_555
C15_156 C14_117 1_555 1_555
H12_156 C15_156 1_555 1_555
C16_156 C11_156 1_555 1_555
H13_156 C16_156 1_555 1_555
N3_156 Ag3_67 1_555 1_555
C17_156 N3_156 1_555 1_555
C18_156 C17_156 1_555 1_555
H14_156 C18_156 1_555 1_555
H15_156 C18_156 1_555 1_555
H16_156 C18_156 1_555 1_555
C3_156 C4_156 1_555 1_555
C9_156 C10_156 1_555 1_555
C15_156 C16_156 1_555 1_555
Ag3_76 N1_157 1_555 1_555
P2_55 C1_157 1_555 1_555
N1_157 C1_157 1_555 1_555
N4_27 C2_157 1_555 1_555
C1_157 C2_157 1_555 1_555
C2_157 H1_157 1_555 1_555
C3_157 N4_27 1_555 1_555
H2_157 C3_157 1_555 1_555
C4_157 N1_157 1_555 1_555
H3_157 C4_157 1_555 1_555
C5_157 P2_55 1_555 1_555
C6_157 C5_157 1_555 1_555
H4_157 C6_157 1_555 1_555
C7_157 C6_157 1_555 1_555
H5_157 C7_157 1_555 1_555
C8_157 C7_157 1_555 1_555
H6_157 C8_157 1_555 1_555
C9_157 C8_157 1_555 1_555
H7_157 C9_157 1_555 1_555
C10_157 C5_157 1_555 1_555
H8_157 C10_157 1_555 1_555
C11_157 P2_55 1_555 1_555
C12_157 C11_157 1_555 1_555
H9_157 C12_157 1_555 1_555
H12_157 C15_157 1_555 1_555
C16_157 C11_157 1_555 1_555
H13_157 C16_157 1_555 1_555
N3_157 Ag3_76 1_555 1_555
C17_157 N3_157 1_555 1_555
C18_157 C17_157 1_555 1_555
H14_157 C18_157 1_555 1_555
H15_157 C18_157 1_555 1_555
H16_157 C18_157 1_555 1_555
C3_157 C4_157 1_555 1_555
C9_157 C10_157 1_555 1_555
C15_157 C16_157 1_555 1_555
Ag3_3 N1_158 1_555 1_555
P2_53 C1_158 1_555 1_555
N1_158 C1_158 1_555 1_555
N4_52 C2_158 1_555 1_555
C1_158 C2_158 1_555 1_555
C2_158 H1_158 1_555 1_555
C3_158 N4_52 1_555 1_555
H2_158 C3_158 1_555 1_555
C4_158 N1_158 1_555 1_555
H3_158 C4_158 1_555 1_555
C5_158 P2_53 1_555 1_555
C6_158 C5_158 1_555 1_555
H4_158 C6_158 1_555 1_555
C7_158 C6_158 1_555 1_555
H5_158 C7_158 1_555 1_555
C8_158 C7_158 1_555 1_555
H6_158 C8_158 1_555 1_555
C9_158 C8_158 1_555 1_555
H7_158 C9_158 1_555 1_555
C10_158 C5_158 1_555 1_555
H8_158 C10_158 1_555 1_555
C11_158 P2_53 1_555 1_555
C12_158 C11_158 1_555 1_555
H9_158 C12_158 1_555 1_555
C13_118 C12_158 1_555 1_555
H10_118 C13_118 1_555 1_555
C14_118 C13_118 1_555 1_555
H11_118 C14_118 1_555 1_555
C15_158 C14_118 1_555 1_555
H12_158 C15_158 1_555 1_555
C16_158 C11_158 1_555 1_555
H13_158 C16_158 1_555 1_555
N3_158 Ag3_3 1_555 1_555
C17_158 N3_158 1_555 1_555
C18_158 C17_158 1_555 1_555
H14_158 C18_158 1_555 1_555
H15_158 C18_158 1_555 1_555
H16_158 C18_158 1_555 1_555
C3_158 C4_158 1_555 1_555
C9_158 C10_158 1_555 1_555
C15_158 C16_158 1_555 1_555
Ag3_49 N1_159 1_555 1_555
P2_56 C1_159 1_555 1_555
N1_159 C1_159 1_555 1_555
N4_2 C2_159 1_555 1_555
C1_159 C2_159 1_555 1_555
C2_159 H1_159 1_555 1_555
C3_159 N4_2 1_555 1_555
H2_159 C3_159 1_555 1_555
C4_159 N1_159 1_555 1_555
H3_159 C4_159 1_555 1_555
C5_159 P2_56 1_555 1_555
C6_159 C5_159 1_555 1_555
H4_159 C6_159 1_555 1_555
C7_159 C6_159 1_555 1_555
H5_159 C7_159 1_555 1_555
C8_159 C7_159 1_555 1_555
H6_159 C8_159 1_555 1_555
C9_159 C8_159 1_555 1_555
H7_159 C9_159 1_555 1_555
C10_159 C5_159 1_555 1_555
H8_159 C10_159 1_555 1_555
C11_159 P2_56 1_555 1_555
C12_159 C11_159 1_555 1_555
H9_159 C12_159 1_555 1_555
C13_119 C12_159 1_555 1_555
H10_119 C13_119 1_555 1_555
C14_119 C13_119 1_555 1_555
H11_119 C14_119 1_555 1_555
C15_159 C14_119 1_555 1_555
H12_159 C15_159 1_555 1_555
C16_159 C11_159 1_555 1_555
H13_159 C16_159 1_555 1_555
N3_159 Ag3_49 1_555 1_555
C17_159 N3_159 1_555 1_555
C18_159 C17_159 1_555 1_555
H14_159 C18_159 1_555 1_555
H15_159 C18_159 1_555 1_555
H16_159 C18_159 1_555 1_555
C3_159 C4_159 1_555 1_555
C9_159 C10_159 1_555 1_555
C15_159 C16_159 1_555 1_555
C6_160 C5_160 1_555 1_555
H4_160 C6_160 1_555 1_555
C7_160 C6_160 1_555 1_555
H5_160 C7_160 1_555 1_555
C8_160 C7_160 1_555 1_555
H6_160 C8_160 1_555 1_555
C9_160 C8_160 1_555 1_555
H7_160 C9_160 1_555 1_555
C10_160 C5_160 1_555 1_555
C9_160 C10_160 1_555 1_555
Ag3_26 N1_160 1_555 1_555
P2_54 C1_160 1_555 1_555
N1_160 C1_160 1_555 1_555
N4_73 C2_160 1_555 1_555
C1_160 C2_160 1_555 1_555
C2_160 H1_160 1_555 1_555
C3_160 N4_73 1_555 1_555
H2_160 C3_160 1_555 1_555
C4_160 N1_160 1_555 1_555
H3_160 C4_160 1_555 1_555
C11_160 P2_54 1_555 1_555
C12_160 C11_160 1_555 1_555
C13_120 C12_160 1_555 1_555
H10_120 C13_120 1_555 1_555
C14_120 C13_120 1_555 1_555
H11_120 C14_120 1_555 1_555
C15_160 C14_120 1_555 1_555
H12_160 C15_160 1_555 1_555
C16_160 C11_160 1_555 1_555
H13_160 C16_160 1_555 1_555
N3_160 Ag3_26 1_555 1_555
C17_160 N3_160 1_555 1_555
C18_160 C17_160 1_555 1_555
H14_160 C18_160 1_555 1_555
H15_160 C18_160 1_555 1_555
H16_160 C18_160 1_555 1_555
C3_160 C4_160 1_555 1_555
C15_160 C16_160 1_555 1_555
Ag3_10 N1_161 1_555 1_555
P1_93 C1_161 1_555 1_555
N1_161 C1_161 1_555 1_555
N4_33 C2_161 1_555 1_555
C1_161 C2_161 1_555 1_555
C2_161 H1_161 1_555 1_555
C3_161 N4_33 1_555 1_555
H2_161 C3_161 1_555 1_555
C4_161 N1_161 1_555 1_555
H3_161 C4_161 1_555 1_555
C5_161 P1_93 1_555 1_555
C6_161 C5_161 1_555 1_555
H4_161 C6_161 1_555 1_555
C7_161 C6_161 1_555 1_555
H5_161 C7_161 1_555 1_555
C8_161 C7_161 1_555 1_555
H6_161 C8_161 1_555 1_555
C9_161 C8_161 1_555 1_555
H7_161 C9_161 1_555 1_555
C10_161 C5_161 1_555 1_555
H8_161 C10_161 1_555 1_555
C11_161 P1_93 1_555 1_555
C12_161 C11_161 1_555 1_555
H9_161 C12_161 1_555 1_555
C13_121 C12_161 1_555 1_555
H10_121 C13_121 1_555 1_555
C14_121 C13_121 1_555 1_555
H11_121 C14_121 1_555 1_555
C15_161 C14_121 1_555 1_555
H12_161 C15_161 1_555 1_555
C16_161 C11_161 1_555 1_555
H13_161 C16_161 1_555 1_555
N3_161 Ag3_10 1_555 1_555
C17_161 N3_161 1_555 1_555
C18_161 C17_161 1_555 1_555
H14_161 C18_161 1_555 1_555
H15_161 C18_161 1_555 1_555
H16_161 C18_161 1_555 1_555
Ag3_39 Ag3_10 1_555 1_555
P2_93 Ag3_10 1_555 1_555
P1_93 Ag3_39 1_555 1_555
C3_161 C4_161 1_555 1_555
C9_161 C10_161 1_555 1_555
C15_161 C16_161 1_555 1_555
Ag3_57 N1_162 1_555 1_555
P1_94 C1_162 1_555 1_555
N1_162 C1_162 1_555 1_555
N4_82 C2_162 1_555 1_555
C1_162 C2_162 1_555 1_555
C2_162 H1_162 1_555 1_555
C3_162 N4_82 1_555 1_555
H2_162 C3_162 1_555 1_555
C4_162 N1_162 1_555 1_555
H3_162 C4_162 1_555 1_555
C5_162 P1_94 1_555 1_555
C6_162 C5_162 1_555 1_555
H4_162 C6_162 1_555 1_555
C7_162 C6_162 1_555 1_555
H5_162 C7_162 1_555 1_555
C8_162 C7_162 1_555 1_555
H6_162 C8_162 1_555 1_555
C9_162 C8_162 1_555 1_555
H7_162 C9_162 1_555 1_555
C10_162 C5_162 1_555 1_555
H8_162 C10_162 1_555 1_555
C11_162 P1_94 1_555 1_555
C12_162 C11_162 1_555 1_555
H9_162 C12_162 1_555 1_555
C13_122 C12_162 1_555 1_555
H10_122 C13_122 1_555 1_555
C14_122 C13_122 1_555 1_555
H11_122 C14_122 1_555 1_555
C15_162 C14_122 1_555 1_555
H12_162 C15_162 1_555 1_555
C16_162 C11_162 1_555 1_555
H13_162 C16_162 1_555 1_555
N3_162 Ag3_57 1_555 1_555
C17_162 N3_162 1_555 1_555
C18_162 C17_162 1_555 1_555
H14_162 C18_162 1_555 1_555
H15_162 C18_162 1_555 1_555
H16_162 C18_162 1_555 1_555
Ag3_86 Ag3_57 1_555 1_555
P2_94 Ag3_57 1_555 1_555
P1_94 Ag3_86 1_555 1_555
C3_162 C4_162 1_555 1_555
C9_162 C10_162 1_555 1_555
C15_162 C16_162 1_555 1_555
Ag3_83 N1_163 1_555 1_555
P1_95 C1_163 1_555 1_555
N1_163 C1_163 1_555 1_555
N4_60 C2_163 1_555 1_555
C1_163 C2_163 1_555 1_555
C2_163 H1_163 1_555 1_555
C3_163 N4_60 1_555 1_555
H2_163 C3_163 1_555 1_555
C4_163 N1_163 1_555 1_555
H3_163 C4_163 1_555 1_555
C5_163 P1_95 1_555 1_555
C6_163 C5_163 1_555 1_555
H4_163 C6_163 1_555 1_555
C7_163 C6_163 1_555 1_555
H5_163 C7_163 1_555 1_555
C8_163 C7_163 1_555 1_555
H6_163 C8_163 1_555 1_555
C9_163 C8_163 1_555 1_555
H7_163 C9_163 1_555 1_555
C10_163 C5_163 1_555 1_555
H8_163 C10_163 1_555 1_555
C11_163 P1_95 1_555 1_555
C12_163 C11_163 1_555 1_555
H9_163 C12_163 1_555 1_555
H12_163 C15_163 1_555 1_555
C16_163 C11_163 1_555 1_555
H13_163 C16_163 1_555 1_555
N3_163 Ag3_83 1_555 1_555
C17_163 N3_163 1_555 1_555
C18_163 C17_163 1_555 1_555
H14_163 C18_163 1_555 1_555
H15_163 C18_163 1_555 1_555
H16_163 C18_163 1_555 1_555
Ag3_64 Ag3_83 1_555 1_555
P2_95 Ag3_83 1_555 1_555
P1_95 Ag3_64 1_555 1_555
C3_163 C4_163 1_555 1_555
C9_163 C10_163 1_555 1_555
C15_163 C16_163 1_555 1_555
C6_164 C5_164 1_555 1_555
H4_164 C6_164 1_555 1_555
C7_164 C6_164 1_555 1_555
H5_164 C7_164 1_555 1_555
C8_164 C7_164 1_555 1_555
H6_164 C8_164 1_555 1_555
C9_164 C8_164 1_555 1_555
H7_164 C9_164 1_555 1_555
C10_164 C5_164 1_555 1_555
C9_164 C10_164 1_555 1_555
Ag3_36 N1_164 1_555 1_555
P1_96 C1_164 1_555 1_555
N1_164 C1_164 1_555 1_555
N4_11 C2_164 1_555 1_555
C1_164 C2_164 1_555 1_555
C2_164 H1_164 1_555 1_555
C3_164 N4_11 1_555 1_555
H2_164 C3_164 1_555 1_555
C4_164 N1_164 1_555 1_555
H3_164 C4_164 1_555 1_555
C11_164 P1_96 1_555 1_555
C12_164 C11_164 1_555 1_555
C13_123 C12_164 1_555 1_555
H10_123 C13_123 1_555 1_555
C14_123 C13_123 1_555 1_555
H11_123 C14_123 1_555 1_555
C15_164 C14_123 1_555 1_555
H12_164 C15_164 1_555 1_555
C16_164 C11_164 1_555 1_555
H13_164 C16_164 1_555 1_555
N3_164 Ag3_36 1_555 1_555
C17_164 N3_164 1_555 1_555
C18_164 C17_164 1_555 1_555
H14_164 C18_164 1_555 1_555
H15_164 C18_164 1_555 1_555
H16_164 C18_164 1_555 1_555
C3_164 C4_164 1_555 1_555
C15_164 C16_164 1_555 1_555
Ag3_53 N1_165 1_555 1_555
P2_80 C1_165 1_555 1_555
N1_165 C1_165 1_555 1_555
N4_30 C2_165 1_555 1_555
C1_165 C2_165 1_555 1_555
C2_165 H1_165 1_555 1_555
C3_165 N4_30 1_555 1_555
H2_165 C3_165 1_555 1_555
C4_165 N1_165 1_555 1_555
H3_165 C4_165 1_555 1_555
C5_165 P2_80 1_555 1_555
C6_165 C5_165 1_555 1_555
H4_165 C6_165 1_555 1_555
C7_165 C6_165 1_555 1_555
H5_165 C7_165 1_555 1_555
C8_165 C7_165 1_555 1_555
H6_165 C8_165 1_555 1_555
C9_165 C8_165 1_555 1_555
H7_165 C9_165 1_555 1_555
C10_165 C5_165 1_555 1_555
H8_165 C10_165 1_555 1_555
C11_165 P2_80 1_555 1_555
C12_165 C11_165 1_555 1_555
H9_165 C12_165 1_555 1_555
C13_124 C12_165 1_555 1_555
H10_124 C13_124 1_555 1_555
C14_124 C13_124 1_555 1_555
H11_124 C14_124 1_555 1_555
C15_165 C14_124 1_555 1_555
H12_165 C15_165 1_555 1_555
C16_165 C11_165 1_555 1_555
H13_165 C16_165 1_555 1_555
N3_165 Ag3_53 1_555 1_555
C17_165 N3_165 1_555 1_555
C18_165 C17_165 1_555 1_555
H14_165 C18_165 1_555 1_555
H15_165 C18_165 1_555 1_555
H16_165 C18_165 1_555 1_555
C3_165 C4_165 1_555 1_555
C9_165 C10_165 1_555 1_555
C15_165 C16_165 1_555 1_555
Ag3_78 N1_166 1_555 1_555
P2_78 C1_166 1_555 1_555
N1_166 C1_166 1_555 1_555
N4_5 C2_166 1_555 1_555
C1_166 C2_166 1_555 1_555
C2_166 H1_166 1_555 1_555
C3_166 N4_5 1_555 1_555
H2_166 C3_166 1_555 1_555
C4_166 N1_166 1_555 1_555
H3_166 C4_166 1_555 1_555
C5_166 P2_78 1_555 1_555
C6_166 C5_166 1_555 1_555
H4_166 C6_166 1_555 1_555
C7_166 C6_166 1_555 1_555
H5_166 C7_166 1_555 1_555
C8_166 C7_166 1_555 1_555
H6_166 C8_166 1_555 1_555
C9_166 C8_166 1_555 1_555
H7_166 C9_166 1_555 1_555
C10_166 C5_166 1_555 1_555
H8_166 C10_166 1_555 1_555
C11_166 P2_78 1_555 1_555
C12_166 C11_166 1_555 1_555
H9_166 C12_166 1_555 1_555
C13_125 C12_166 1_555 1_555
H10_125 C13_125 1_555 1_555
C14_125 C13_125 1_555 1_555
H11_125 C14_125 1_555 1_555
C15_166 C14_125 1_555 1_555
H12_166 C15_166 1_555 1_555
C16_166 C11_166 1_555 1_555
H13_166 C16_166 1_555 1_555
N3_166 Ag3_78 1_555 1_555
C17_166 N3_166 1_555 1_555
C18_166 C17_166 1_555 1_555
H14_166 C18_166 1_555 1_555
H15_166 C18_166 1_555 1_555
H16_166 C18_166 1_555 1_555
C3_166 C4_166 1_555 1_555
C9_166 C10_166 1_555 1_555
C15_166 C16_166 1_555 1_555
C6_167 C5_167 1_555 1_555
H4_167 C6_167 1_555 1_555
C7_167 C6_167 1_555 1_555
H5_167 C7_167 1_555 1_555
C8_167 C7_167 1_555 1_555
H6_167 C8_167 1_555 1_555
C9_167 C8_167 1_555 1_555
H7_167 C9_167 1_555 1_555
C10_167 C5_167 1_555 1_555
C9_167 C10_167 1_555 1_555
Ag3_8 N1_167 1_555 1_555
P2_79 C1_167 1_555 1_555
N1_167 C1_167 1_555 1_555
N4_79 C2_167 1_555 1_555
C1_167 C2_167 1_555 1_555
C2_167 H1_167 1_555 1_555
C3_167 N4_79 1_555 1_555
H2_167 C3_167 1_555 1_555
C4_167 N1_167 1_555 1_555
H3_167 C4_167 1_555 1_555
C11_167 P2_79 1_555 1_555
C12_167 C11_167 1_555 1_555
H12_167 C15_167 1_555 1_555
C16_167 C11_167 1_555 1_555
H13_167 C16_167 1_555 1_555
N3_167 Ag3_8 1_555 1_555
C17_167 N3_167 1_555 1_555
C18_167 C17_167 1_555 1_555
H14_167 C18_167 1_555 1_555
H15_167 C18_167 1_555 1_555
H16_167 C18_167 1_555 1_555
C3_167 C4_167 1_555 1_555
C15_167 C16_167 1_555 1_555
Ag3_31 N1_168 1_555 1_555
P2_77 C1_168 1_555 1_555
N1_168 C1_168 1_555 1_555
N4_56 C2_168 1_555 1_555
C1_168 C2_168 1_555 1_555
C2_168 H1_168 1_555 1_555
C3_168 N4_56 1_555 1_555
H2_168 C3_168 1_555 1_555
C4_168 N1_168 1_555 1_555
H3_168 C4_168 1_555 1_555
C5_168 P2_77 1_555 1_555
C6_168 C5_168 1_555 1_555
H4_168 C6_168 1_555 1_555
C7_168 C6_168 1_555 1_555
H5_168 C7_168 1_555 1_555
C8_168 C7_168 1_555 1_555
H6_168 C8_168 1_555 1_555
C9_168 C8_168 1_555 1_555
H7_168 C9_168 1_555 1_555
C10_168 C5_168 1_555 1_555
H8_168 C10_168 1_555 1_555
C11_168 P2_77 1_555 1_555
C12_168 C11_168 1_555 1_555
H9_168 C12_168 1_555 1_555
C13_126 C12_168 1_555 1_555
H10_126 C13_126 1_555 1_555
C14_126 C13_126 1_555 1_555
H11_126 C14_126 1_555 1_555
C15_168 C14_126 1_555 1_555
H12_168 C15_168 1_555 1_555
C16_168 C11_168 1_555 1_555
H13_168 C16_168 1_555 1_555
N3_168 Ag3_31 1_555 1_555
C17_168 N3_168 1_555 1_555
C18_168 C17_168 1_555 1_555
H14_168 C18_168 1_555 1_555
H15_168 C18_168 1_555 1_555
H16_168 C18_168 1_555 1_555
C3_168 C4_168 1_555 1_555
C9_168 C10_168 1_555 1_555
C15_168 C16_168 1_555 1_555
Ag3_64 N1_169 1_555 1_555
P2_95 C1_169 1_555 1_555
N1_169 C1_169 1_555 1_555
N4_87 C2_169 1_555 1_555
C1_169 C2_169 1_555 1_555
C2_169 H1_169 1_555 1_555
C3_169 N4_87 1_555 1_555
H2_169 C3_169 1_555 1_555
C4_169 N1_169 1_555 1_555
H3_169 C4_169 1_555 1_555
C5_169 P2_95 1_555 1_555
C6_169 C5_169 1_555 1_555
H4_169 C6_169 1_555 1_555
C7_169 C6_169 1_555 1_555
H5_169 C7_169 1_555 1_555
C8_169 C7_169 1_555 1_555
H6_169 C8_169 1_555 1_555
C9_169 C8_169 1_555 1_555
H7_169 C9_169 1_555 1_555
C10_169 C5_169 1_555 1_555
H8_169 C10_169 1_555 1_555
C11_169 P2_95 1_555 1_555
C12_169 C11_169 1_555 1_555
H9_169 C12_169 1_555 1_555
C13_127 C12_169 1_555 1_555
H10_127 C13_127 1_555 1_555
C14_127 C13_127 1_555 1_555
H11_127 C14_127 1_555 1_555
C15_169 C14_127 1_555 1_555
H12_169 C15_169 1_555 1_555
C16_169 C11_169 1_555 1_555
H13_169 C16_169 1_555 1_555
N3_169 Ag3_64 1_555 1_555
C17_169 N3_169 1_555 1_555
C18_169 C17_169 1_555 1_555
H14_169 C18_169 1_555 1_555
H15_169 C18_169 1_555 1_555
H16_169 C18_169 1_555 1_555
C3_169 C4_169 1_555 1_555
C9_169 C10_169 1_555 1_555
C15_169 C16_169 1_555 1_555
Ag3_39 N1_170 1_555 1_555
P2_93 C1_170 1_555 1_555
N1_170 C1_170 1_555 1_555
N4_16 C2_170 1_555 1_555
C1_170 C2_170 1_555 1_555
C2_170 H1_170 1_555 1_555
C3_170 N4_16 1_555 1_555
H2_170 C3_170 1_555 1_555
C4_170 N1_170 1_555 1_555
H3_170 C4_170 1_555 1_555
C5_170 P2_93 1_555 1_555
C6_170 C5_170 1_555 1_555
H4_170 C6_170 1_555 1_555
C7_170 C6_170 1_555 1_555
H5_170 C7_170 1_555 1_555
C8_170 C7_170 1_555 1_555
H6_170 C8_170 1_555 1_555
C9_170 C8_170 1_555 1_555
H7_170 C9_170 1_555 1_555
C10_170 C5_170 1_555 1_555
H8_170 C10_170 1_555 1_555
C11_170 P2_93 1_555 1_555
C12_170 C11_170 1_555 1_555
H9_170 C12_170 1_555 1_555
H12_170 C15_170 1_555 1_555
C16_170 C11_170 1_555 1_555
H13_170 C16_170 1_555 1_555
N3_170 Ag3_39 1_555 1_555
C17_170 N3_170 1_555 1_555
C18_170 C17_170 1_555 1_555
H14_170 C18_170 1_555 1_555
H15_170 C18_170 1_555 1_555
H16_170 C18_170 1_555 1_555
C3_170 C4_170 1_555 1_555
C9_170 C10_170 1_555 1_555
C15_170 C16_170 1_555 1_555
Ag3_13 N1_171 1_555 1_555
P2_96 C1_171 1_555 1_555
N1_171 C1_171 1_555 1_555
N4_38 C2_171 1_555 1_555
C1_171 C2_171 1_555 1_555
C2_171 H1_171 1_555 1_555
C3_171 N4_38 1_555 1_555
H2_171 C3_171 1_555 1_555
C4_171 N1_171 1_555 1_555
H3_171 C4_171 1_555 1_555
C11_171 P2_96 1_555 1_555
C12_171 C11_171 1_555 1_555
C13_128 C12_171 1_555 1_555
H10_128 C13_128 1_555 1_555
C14_128 C13_128 1_555 1_555
H11_128 C14_128 1_555 1_555
C15_171 C14_128 1_555 1_555
H12_171 C15_171 1_555 1_555
C16_171 C11_171 1_555 1_555
H13_171 C16_171 1_555 1_555
N3_171 Ag3_13 1_555 1_555
C17_171 N3_171 1_555 1_555
C18_171 C17_171 1_555 1_555
H14_171 C18_171 1_555 1_555
H15_171 C18_171 1_555 1_555
H16_171 C18_171 1_555 1_555
C3_171 C4_171 1_555 1_555
C15_171 C16_171 1_555 1_555
C6_171 C5_171 1_555 1_555
H4_171 C6_171 1_555 1_555
C7_171 C6_171 1_555 1_555
H5_171 C7_171 1_555 1_555
C8_171 C7_171 1_555 1_555
H6_171 C8_171 1_555 1_555
C9_171 C8_171 1_555 1_555
H7_171 C9_171 1_555 1_555
C10_171 C5_171 1_555 1_555
C9_171 C10_171 1_555 1_555
Ag3_86 N1_172 1_555 1_555
P2_94 C1_172 1_555 1_555
N1_172 C1_172 1_555 1_555
N4_61 C2_172 1_555 1_555
C1_172 C2_172 1_555 1_555
C2_172 H1_172 1_555 1_555
C3_172 N4_61 1_555 1_555
H2_172 C3_172 1_555 1_555
C4_172 N1_172 1_555 1_555
H3_172 C4_172 1_555 1_555
C5_172 P2_94 1_555 1_555
C6_172 C5_172 1_555 1_555
H4_172 C6_172 1_555 1_555
C7_172 C6_172 1_555 1_555
H5_172 C7_172 1_555 1_555
C8_172 C7_172 1_555 1_555
H6_172 C8_172 1_555 1_555
C9_172 C8_172 1_555 1_555
H7_172 C9_172 1_555 1_555
C10_172 C5_172 1_555 1_555
H8_172 C10_172 1_555 1_555
C11_172 P2_94 1_555 1_555
C12_172 C11_172 1_555 1_555
H9_172 C12_172 1_555 1_555
C13_129 C12_172 1_555 1_555
H10_129 C13_129 1_555 1_555
C14_129 C13_129 1_555 1_555
H11_129 C14_129 1_555 1_555
C15_172 C14_129 1_555 1_555
H12_172 C15_172 1_555 1_555
C16_172 C11_172 1_555 1_555
H13_172 C16_172 1_555 1_555
N3_172 Ag3_86 1_555 1_555
C17_172 N3_172 1_555 1_555
C18_172 C17_172 1_555 1_555
H14_172 C18_172 1_555 1_555
H15_172 C18_172 1_555 1_555
H16_172 C18_172 1_555 1_555
C3_172 C4_172 1_555 1_555
C9_172 C10_172 1_555 1_555
C15_172 C16_172 1_555 1_555
Ag3_46 N1_173 1_555 1_555
P2_82 C1_173 1_555 1_555
N1_173 C1_173 1_555 1_555
N4_93 C2_173 1_555 1_555
C1_173 C2_173 1_555 1_555
C2_173 H1_173 1_555 1_555
C3_173 N4_93 1_555 1_555
H2_173 C3_173 1_555 1_555
C4_173 N1_173 1_555 1_555
H3_173 C4_173 1_555 1_555
C5_173 P2_82 1_555 1_555
C6_173 C5_173 1_555 1_555
H4_173 C6_173 1_555 1_555
C7_173 C6_173 1_555 1_555
H5_173 C7_173 1_555 1_555
C8_173 C7_173 1_555 1_555
H6_173 C8_173 1_555 1_555
C9_173 C8_173 1_555 1_555
H7_173 C9_173 1_555 1_555
C10_173 C5_173 1_555 1_555
H8_173 C10_173 1_555 1_555
C11_173 P2_82 1_555 1_555
C12_173 C11_173 1_555 1_555
H9_173 C12_173 1_555 1_555
H12_173 C15_173 1_555 1_555
C16_173 C11_173 1_555 1_555
H13_173 C16_173 1_555 1_555
N3_173 Ag3_46 1_555 1_555
C17_173 N3_173 1_555 1_555
C18_173 C17_173 1_555 1_555
H14_173 C18_173 1_555 1_555
H15_173 C18_173 1_555 1_555
H16_173 C18_173 1_555 1_555
C3_173 C4_173 1_555 1_555
C9_173 C10_173 1_555 1_555
C15_173 C16_173 1_555 1_555
Ag3_21 N1_174 1_555 1_555
P2_84 C1_174 1_555 1_555
N1_174 C1_174 1_555 1_555
N4_70 C2_174 1_555 1_555
C1_174 C2_174 1_555 1_555
C2_174 H1_174 1_555 1_555
C3_174 N4_70 1_555 1_555
H2_174 C3_174 1_555 1_555
C4_174 N1_174 1_555 1_555
H3_174 C4_174 1_555 1_555
C5_174 P2_84 1_555 1_555
C6_174 C5_174 1_555 1_555
H4_174 C6_174 1_555 1_555
C7_174 C6_174 1_555 1_555
H5_174 C7_174 1_555 1_555
C8_174 C7_174 1_555 1_555
H6_174 C8_174 1_555 1_555
C9_174 C8_174 1_555 1_555
H7_174 C9_174 1_555 1_555
C10_174 C5_174 1_555 1_555
H8_174 C10_174 1_555 1_555
C11_174 P2_84 1_555 1_555
C12_174 C11_174 1_555 1_555
H9_174 C12_174 1_555 1_555
C13_130 C12_174 1_555 1_555
H10_130 C13_130 1_555 1_555
C14_130 C13_130 1_555 1_555
H11_130 C14_130 1_555 1_555
C15_174 C14_130 1_555 1_555
H12_174 C15_174 1_555 1_555
C16_174 C11_174 1_555 1_555
H13_174 C16_174 1_555 1_555
N3_174 Ag3_21 1_555 1_555
C17_174 N3_174 1_555 1_555
C18_174 C17_174 1_555 1_555
H14_174 C18_174 1_555 1_555
H15_174 C18_174 1_555 1_555
H16_174 C18_174 1_555 1_555
C3_174 C4_174 1_555 1_555
C9_174 C10_174 1_555 1_555
C15_174 C16_174 1_555 1_555
Ag3_71 N1_175 1_555 1_555
P2_81 C1_175 1_555 1_555
N1_175 C1_175 1_555 1_555
N4_24 C2_175 1_555 1_555
C1_175 C2_175 1_555 1_555
C2_175 H1_175 1_555 1_555
C3_175 N4_24 1_555 1_555
H2_175 C3_175 1_555 1_555
C4_175 N1_175 1_555 1_555
H3_175 C4_175 1_555 1_555
C11_175 P2_81 1_555 1_555
C12_175 C11_175 1_555 1_555
C13_131 C12_175 1_555 1_555
H10_131 C13_131 1_555 1_555
C14_131 C13_131 1_555 1_555
H11_131 C14_131 1_555 1_555
C15_175 C14_131 1_555 1_555
H12_175 C15_175 1_555 1_555
C16_175 C11_175 1_555 1_555
H13_175 C16_175 1_555 1_555
N3_175 Ag3_71 1_555 1_555
C17_175 N3_175 1_555 1_555
C18_175 C17_175 1_555 1_555
H14_175 C18_175 1_555 1_555
H15_175 C18_175 1_555 1_555
H16_175 C18_175 1_555 1_555
C3_175 C4_175 1_555 1_555
C15_175 C16_175 1_555 1_555
C6_175 C5_175 1_555 1_555
H4_175 C6_175 1_555 1_555
C7_175 C6_175 1_555 1_555
H5_175 C7_175 1_555 1_555
C8_175 C7_175 1_555 1_555
H6_175 C8_175 1_555 1_555
C9_175 C8_175 1_555 1_555
H7_175 C9_175 1_555 1_555
C10_175 C5_175 1_555 1_555
C9_175 C10_175 1_555 1_555
Ag3_96 N1_176 1_555 1_555
P2_83 C1_176 1_555 1_555
N1_176 C1_176 1_555 1_555
N4_47 C2_176 1_555 1_555
C1_176 C2_176 1_555 1_555
C2_176 H1_176 1_555 1_555
C3_176 N4_47 1_555 1_555
H2_176 C3_176 1_555 1_555
C4_176 N1_176 1_555 1_555
H3_176 C4_176 1_555 1_555
C5_176 P2_83 1_555 1_555
C6_176 C5_176 1_555 1_555
H4_176 C6_176 1_555 1_555
C7_176 C6_176 1_555 1_555
H5_176 C7_176 1_555 1_555
C8_176 C7_176 1_555 1_555
H6_176 C8_176 1_555 1_555
C9_176 C8_176 1_555 1_555
H7_176 C9_176 1_555 1_555
C10_176 C5_176 1_555 1_555
H8_176 C10_176 1_555 1_555
C11_176 P2_83 1_555 1_555
C12_176 C11_176 1_555 1_555
H9_176 C12_176 1_555 1_555
C13_132 C12_176 1_555 1_555
H10_132 C13_132 1_555 1_555
C14_132 C13_132 1_555 1_555
H11_132 C14_132 1_555 1_555
C15_176 C14_132 1_555 1_555
H12_176 C15_176 1_555 1_555
C16_176 C11_176 1_555 1_555
H13_176 C16_176 1_555 1_555
N3_176 Ag3_96 1_555 1_555
C17_176 N3_176 1_555 1_555
C18_176 C17_176 1_555 1_555
H14_176 C18_176 1_555 1_555
H15_176 C18_176 1_555 1_555
H16_176 C18_176 1_555 1_555
C3_176 C4_176 1_555 1_555
C9_176 C10_176 1_555 1_555
C15_176 C16_176 1_555 1_555
Ag3_17 N1_177 1_555 1_555
P2_72 C1_177 1_555 1_555
N1_177 C1_177 1_555 1_555
N4_90 C2_177 1_555 1_555
C1_177 C2_177 1_555 1_555
C2_177 H1_177 1_555 1_555
C3_177 N4_90 1_555 1_555
H2_177 C3_177 1_555 1_555
C4_177 N1_177 1_555 1_555
H3_177 C4_177 1_555 1_555
C5_177 P2_72 1_555 1_555
C6_177 C5_177 1_555 1_555
H4_177 C6_177 1_555 1_555
C7_177 C6_177 1_555 1_555
H5_177 C7_177 1_555 1_555
C8_177 C7_177 1_555 1_555
H6_177 C8_177 1_555 1_555
C9_177 C8_177 1_555 1_555
H7_177 C9_177 1_555 1_555
C10_177 C5_177 1_555 1_555
H8_177 C10_177 1_555 1_555
C11_177 P2_72 1_555 1_555
C12_177 C11_177 1_555 1_555
H9_177 C12_177 1_555 1_555
H12_177 C15_177 1_555 1_555
C16_177 C11_177 1_555 1_555
H13_177 C16_177 1_555 1_555
N3_177 Ag3_17 1_555 1_555
C17_177 N3_177 1_555 1_555
C18_177 C17_177 1_555 1_555
H14_177 C18_177 1_555 1_555
H15_177 C18_177 1_555 1_555
H16_177 C18_177 1_555 1_555
C3_177 C4_177 1_555 1_555
C9_177 C10_177 1_555 1_555
C15_177 C16_177 1_555 1_555
Ag3_66 N1_178 1_555 1_555
P2_70 C1_178 1_555 1_555
N1_178 C1_178 1_555 1_555
N4_41 C2_178 1_555 1_555
C1_178 C2_178 1_555 1_555
C2_178 H1_178 1_555 1_555
C3_178 N4_41 1_555 1_555
H2_178 C3_178 1_555 1_555
C4_178 N1_178 1_555 1_555
H3_178 C4_178 1_555 1_555
C11_178 P2_70 1_555 1_555
C12_178 C11_178 1_555 1_555
C13_133 C12_178 1_555 1_555
H10_133 C13_133 1_555 1_555
C14_133 C13_133 1_555 1_555
H11_133 C14_133 1_555 1_555
C15_178 C14_133 1_555 1_555
H12_178 C15_178 1_555 1_555
C16_178 C11_178 1_555 1_555
H13_178 C16_178 1_555 1_555
N3_178 Ag3_66 1_555 1_555
C17_178 N3_178 1_555 1_555
C18_178 C17_178 1_555 1_555
H14_178 C18_178 1_555 1_555
H15_178 C18_178 1_555 1_555
H16_178 C18_178 1_555 1_555
C3_178 C4_178 1_555 1_555
C15_178 C16_178 1_555 1_555
C6_178 C5_178 1_555 1_555
H4_178 C6_178 1_555 1_555
C7_178 C6_178 1_555 1_555
H5_178 C7_178 1_555 1_555
C8_178 C7_178 1_555 1_555
H6_178 C8_178 1_555 1_555
C9_178 C8_178 1_555 1_555
H7_178 C9_178 1_555 1_555
C10_178 C5_178 1_555 1_555
C9_178 C10_178 1_555 1_555
Ag3_44 N1_179 1_555 1_555
P2_71 C1_179 1_555 1_555
N1_179 C1_179 1_555 1_555
N4_67 C2_179 1_555 1_555
C1_179 C2_179 1_555 1_555
C2_179 H1_179 1_555 1_555
C3_179 N4_67 1_555 1_555
H2_179 C3_179 1_555 1_555
C4_179 N1_179 1_555 1_555
H3_179 C4_179 1_555 1_555
C5_179 P2_71 1_555 1_555
C6_179 C5_179 1_555 1_555
H4_179 C6_179 1_555 1_555
C7_179 C6_179 1_555 1_555
H5_179 C7_179 1_555 1_555
C8_179 C7_179 1_555 1_555
H6_179 C8_179 1_555 1_555
C9_179 C8_179 1_555 1_555
H7_179 C9_179 1_555 1_555
C10_179 C5_179 1_555 1_555
H8_179 C10_179 1_555 1_555
C11_179 P2_71 1_555 1_555
C12_179 C11_179 1_555 1_555
H9_179 C12_179 1_555 1_555
C13_134 C12_179 1_555 1_555
H10_134 C13_134 1_555 1_555
C14_134 C13_134 1_555 1_555
H11_134 C14_134 1_555 1_555
C15_179 C14_134 1_555 1_555
H12_179 C15_179 1_555 1_555
C16_179 C11_179 1_555 1_555
H13_179 C16_179 1_555 1_555
N3_179 Ag3_44 1_555 1_555
C17_179 N3_179 1_555 1_555
C18_179 C17_179 1_555 1_555
H14_179 C18_179 1_555 1_555
H15_179 C18_179 1_555 1_555
H16_179 C18_179 1_555 1_555
C3_179 C4_179 1_555 1_555
C9_179 C10_179 1_555 1_555
C15_179 C16_179 1_555 1_555
Ag3_91 N1_180 1_555 1_555
P2_69 C1_180 1_555 1_555
N1_180 C1_180 1_555 1_555
N4_20 C2_180 1_555 1_555
C1_180 C2_180 1_555 1_555
C2_180 H1_180 1_555 1_555
C3_180 N4_20 1_555 1_555
H2_180 C3_180 1_555 1_555
C4_180 N1_180 1_555 1_555
H3_180 C4_180 1_555 1_555
C5_180 P2_69 1_555 1_555
C6_180 C5_180 1_555 1_555
H4_180 C6_180 1_555 1_555
C7_180 C6_180 1_555 1_555
H5_180 C7_180 1_555 1_555
C8_180 C7_180 1_555 1_555
H6_180 C8_180 1_555 1_555
C9_180 C8_180 1_555 1_555
H7_180 C9_180 1_555 1_555
C10_180 C5_180 1_555 1_555
H8_180 C10_180 1_555 1_555
C11_180 P2_69 1_555 1_555
C12_180 C11_180 1_555 1_555
H9_180 C12_180 1_555 1_555
C13_135 C12_180 1_555 1_555
H10_135 C13_135 1_555 1_555
C14_135 C13_135 1_555 1_555
H11_135 C14_135 1_555 1_555
C15_180 C14_135 1_555 1_555
H12_180 C15_180 1_555 1_555
C16_180 C11_180 1_555 1_555
H13_180 C16_180 1_555 1_555
N3_180 Ag3_91 1_555 1_555
C17_180 N3_180 1_555 1_555
C18_180 C17_180 1_555 1_555
H14_180 C18_180 1_555 1_555
H15_180 C18_180 1_555 1_555
H16_180 C18_180 1_555 1_555
C3_180 C4_180 1_555 1_555
C9_180 C10_180 1_555 1_555
C15_180 C16_180 1_555 1_555
C6_181 C5_181 1_555 1_555
H4_181 C6_181 1_555 1_555
C7_181 C6_181 1_555 1_555
H5_181 C7_181 1_555 1_555
C8_181 C7_181 1_555 1_555
H6_181 C8_181 1_555 1_555
C9_181 C8_181 1_555 1_555
H7_181 C9_181 1_555 1_555
C10_181 C5_181 1_555 1_555
C9_181 C10_181 1_555 1_555
Ag3_52 N1_181 1_555 1_555
P2_75 C1_181 1_555 1_555
N1_181 C1_181 1_555 1_555
N4_3 C2_181 1_555 1_555
C1_181 C2_181 1_555 1_555
C2_181 H1_181 1_555 1_555
C3_181 N4_3 1_555 1_555
H2_181 C3_181 1_555 1_555
C4_181 N1_181 1_555 1_555
H3_181 C4_181 1_555 1_555
C11_181 P2_75 1_555 1_555
C12_181 C11_181 1_555 1_555
C13_136 C12_181 1_555 1_555
H10_136 C13_136 1_555 1_555
C14_136 C13_136 1_555 1_555
H11_136 C14_136 1_555 1_555
C15_181 C14_136 1_555 1_555
H12_181 C15_181 1_555 1_555
C16_181 C11_181 1_555 1_555
H13_181 C16_181 1_555 1_555
N3_181 Ag3_52 1_555 1_555
C17_181 N3_181 1_555 1_555
C18_181 C17_181 1_555 1_555
H14_181 C18_181 1_555 1_555
H15_181 C18_181 1_555 1_555
H16_181 C18_181 1_555 1_555
C3_181 C4_181 1_555 1_555
C15_181 C16_181 1_555 1_555
Ag3_27 N1_182 1_555 1_555
P2_73 C1_182 1_555 1_555
N1_182 C1_182 1_555 1_555
N4_76 C2_182 1_555 1_555
C1_182 C2_182 1_555 1_555
C2_182 H1_182 1_555 1_555
C3_182 N4_76 1_555 1_555
H2_182 C3_182 1_555 1_555
C4_182 N1_182 1_555 1_555
H3_182 C4_182 1_555 1_555
C5_182 P2_73 1_555 1_555
C6_182 C5_182 1_555 1_555
H4_182 C6_182 1_555 1_555
C7_182 C6_182 1_555 1_555
H5_182 C7_182 1_555 1_555
C8_182 C7_182 1_555 1_555
H6_182 C8_182 1_555 1_555
C9_182 C8_182 1_555 1_555
H7_182 C9_182 1_555 1_555
C10_182 C5_182 1_555 1_555
H8_182 C10_182 1_555 1_555
C11_182 P2_73 1_555 1_555
C12_182 C11_182 1_555 1_555
H9_182 C12_182 1_555 1_555
H12_182 C15_182 1_555 1_555
C16_182 C11_182 1_555 1_555
H13_182 C16_182 1_555 1_555
N3_182 Ag3_27 1_555 1_555
C17_182 N3_182 1_555 1_555
C18_182 C17_182 1_555 1_555
H14_182 C18_182 1_555 1_555
H15_182 C18_182 1_555 1_555
H16_182 C18_182 1_555 1_555
C3_182 C4_182 1_555 1_555
C9_182 C10_182 1_555 1_555
C15_182 C16_182 1_555 1_555
Ag3_73 N1_183 1_555 1_555
P2_76 C1_183 1_555 1_555
N1_183 C1_183 1_555 1_555
N4_26 C2_183 1_555 1_555
C1_183 C2_183 1_555 1_555
C2_183 H1_183 1_555 1_555
C3_183 N4_26 1_555 1_555
H2_183 C3_183 1_555 1_555
C4_183 N1_183 1_555 1_555
H3_183 C4_183 1_555 1_555
C5_183 P2_76 1_555 1_555
C6_183 C5_183 1_555 1_555
H4_183 C6_183 1_555 1_555
C7_183 C6_183 1_555 1_555
H5_183 C7_183 1_555 1_555
C8_183 C7_183 1_555 1_555
H6_183 C8_183 1_555 1_555
C9_183 C8_183 1_555 1_555
H7_183 C9_183 1_555 1_555
C10_183 C5_183 1_555 1_555
H8_183 C10_183 1_555 1_555
C11_183 P2_76 1_555 1_555
C12_183 C11_183 1_555 1_555
H9_183 C12_183 1_555 1_555
C13_137 C12_183 1_555 1_555
H10_137 C13_137 1_555 1_555
C14_137 C13_137 1_555 1_555
H11_137 C14_137 1_555 1_555
C15_183 C14_137 1_555 1_555
H12_183 C15_183 1_555 1_555
C16_183 C11_183 1_555 1_555
H13_183 C16_183 1_555 1_555
N3_183 Ag3_73 1_555 1_555
C17_183 N3_183 1_555 1_555
C18_183 C17_183 1_555 1_555
H14_183 C18_183 1_555 1_555
H15_183 C18_183 1_555 1_555
H16_183 C18_183 1_555 1_555
C3_183 C4_183 1_555 1_555
C9_183 C10_183 1_555 1_555
C15_183 C16_183 1_555 1_555
Ag3_2 N1_184 1_555 1_555
P2_74 C1_184 1_555 1_555
N1_184 C1_184 1_555 1_555
N4_49 C2_184 1_555 1_555
C1_184 C2_184 1_555 1_555
C2_184 H1_184 1_555 1_555
C3_184 N4_49 1_555 1_555
H2_184 C3_184 1_555 1_555
C4_184 N1_184 1_555 1_555
H3_184 C4_184 1_555 1_555
C5_184 P2_74 1_555 1_555
C6_184 C5_184 1_555 1_555
H4_184 C6_184 1_555 1_555
C7_184 C6_184 1_555 1_555
H5_184 C7_184 1_555 1_555
C8_184 C7_184 1_555 1_555
H6_184 C8_184 1_555 1_555
C9_184 C8_184 1_555 1_555
H7_184 C9_184 1_555 1_555
C10_184 C5_184 1_555 1_555
H8_184 C10_184 1_555 1_555
C11_184 P2_74 1_555 1_555
C12_184 C11_184 1_555 1_555
H9_184 C12_184 1_555 1_555
C13_138 C12_184 1_555 1_555
H10_138 C13_138 1_555 1_555
C14_138 C13_138 1_555 1_555
H11_138 C14_138 1_555 1_555
C15_184 C14_138 1_555 1_555
H12_184 C15_184 1_555 1_555
C16_184 C11_184 1_555 1_555
H13_184 C16_184 1_555 1_555
N3_184 Ag3_2 1_555 1_555
C17_184 N3_184 1_555 1_555
C18_184 C17_184 1_555 1_555
H14_184 C18_184 1_555 1_555
H15_184 C18_184 1_555 1_555
H16_184 C18_184 1_555 1_555
C3_184 C4_184 1_555 1_555
C9_184 C10_184 1_555 1_555
C15_184 C16_184 1_555 1_555
Ag3_34 N1_185 1_555 1_555
P2_90 C1_185 1_555 1_555
N1_185 C1_185 1_555 1_555
N4_9 C2_185 1_555 1_555
C1_185 C2_185 1_555 1_555
C2_185 H1_185 1_555 1_555
C3_185 N4_9 1_555 1_555
H2_185 C3_185 1_555 1_555
C4_185 N1_185 1_555 1_555
H3_185 C4_185 1_555 1_555
C5_185 P2_90 1_555 1_555
C6_185 C5_185 1_555 1_555
H4_185 C6_185 1_555 1_555
C7_185 C6_185 1_555 1_555
H5_185 C7_185 1_555 1_555
C8_185 C7_185 1_555 1_555
H6_185 C8_185 1_555 1_555
C9_185 C8_185 1_555 1_555
H7_185 C9_185 1_555 1_555
C10_185 C5_185 1_555 1_555
H8_185 C10_185 1_555 1_555
C11_185 P2_90 1_555 1_555
C12_185 C11_185 1_555 1_555
H9_185 C12_185 1_555 1_555
C13_139 C12_185 1_555 1_555
H10_139 C13_139 1_555 1_555
C14_139 C13_139 1_555 1_555
H11_139 C14_139 1_555 1_555
C15_185 C14_139 1_555 1_555
H12_185 C15_185 1_555 1_555
C16_185 C11_185 1_555 1_555
H13_185 C16_185 1_555 1_555
N3_185 Ag3_34 1_555 1_555
C17_185 N3_185 1_555 1_555
C18_185 C17_185 1_555 1_555
H14_185 C18_185 1_555 1_555
H15_185 C18_185 1_555 1_555
H16_185 C18_185 1_555 1_555
C3_185 C4_185 1_555 1_555
C9_185 C10_185 1_555 1_555
C15_185 C16_185 1_555 1_555
Ag3_81 N1_186 1_555 1_555
P2_92 C1_186 1_555 1_555
N1_186 C1_186 1_555 1_555
N4_58 C2_186 1_555 1_555
C1_186 C2_186 1_555 1_555
C2_186 H1_186 1_555 1_555
C3_186 N4_58 1_555 1_555
H2_186 C3_186 1_555 1_555
C4_186 N1_186 1_555 1_555
H3_186 C4_186 1_555 1_555
C5_186 P2_92 1_555 1_555
C6_186 C5_186 1_555 1_555
H4_186 C6_186 1_555 1_555
C7_186 C6_186 1_555 1_555
H5_186 C7_186 1_555 1_555
C8_186 C7_186 1_555 1_555
H6_186 C8_186 1_555 1_555
C9_186 C8_186 1_555 1_555
H7_186 C9_186 1_555 1_555
C10_186 C5_186 1_555 1_555
H8_186 C10_186 1_555 1_555
C11_186 P2_92 1_555 1_555
C12_186 C11_186 1_555 1_555
H9_186 C12_186 1_555 1_555
C13_140 C12_186 1_555 1_555
H10_140 C13_140 1_555 1_555
C14_140 C13_140 1_555 1_555
H11_140 C14_140 1_555 1_555
C15_186 C14_140 1_555 1_555
H12_186 C15_186 1_555 1_555
C16_186 C11_186 1_555 1_555
H13_186 C16_186 1_555 1_555
N3_186 Ag3_81 1_555 1_555
C17_186 N3_186 1_555 1_555
C18_186 C17_186 1_555 1_555
H14_186 C18_186 1_555 1_555
H15_186 C18_186 1_555 1_555
H16_186 C18_186 1_555 1_555
C3_186 C4_186 1_555 1_555
C9_186 C10_186 1_555 1_555
C15_186 C16_186 1_555 1_555
Ag3_59 N1_187 1_555 1_555
P2_89 C1_187 1_555 1_555
N1_187 C1_187 1_555 1_555
N4_84 C2_187 1_555 1_555
C1_187 C2_187 1_555 1_555
C2_187 H1_187 1_555 1_555
C3_187 N4_84 1_555 1_555
H2_187 C3_187 1_555 1_555
C4_187 N1_187 1_555 1_555
H3_187 C4_187 1_555 1_555
C5_187 P2_89 1_555 1_555
C6_187 C5_187 1_555 1_555
H4_187 C6_187 1_555 1_555
C7_187 C6_187 1_555 1_555
H5_187 C7_187 1_555 1_555
C8_187 C7_187 1_555 1_555
H6_187 C8_187 1_555 1_555
C9_187 C8_187 1_555 1_555
H7_187 C9_187 1_555 1_555
C10_187 C5_187 1_555 1_555
H8_187 C10_187 1_555 1_555
C11_187 P2_89 1_555 1_555
C12_187 C11_187 1_555 1_555
H9_187 C12_187 1_555 1_555
C13_141 C12_187 1_555 1_555
H10_141 C13_141 1_555 1_555
C14_141 C13_141 1_555 1_555
H11_141 C14_141 1_555 1_555
C15_187 C14_141 1_555 1_555
H12_187 C15_187 1_555 1_555
C16_187 C11_187 1_555 1_555
H13_187 C16_187 1_555 1_555
N3_187 Ag3_59 1_555 1_555
C17_187 N3_187 1_555 1_555
C18_187 C17_187 1_555 1_555
H14_187 C18_187 1_555 1_555
H15_187 C18_187 1_555 1_555
H16_187 C18_187 1_555 1_555
C3_187 C4_187 1_555 1_555
C9_187 C10_187 1_555 1_555
C15_187 C16_187 1_555 1_555
C6_188 C5_188 1_555 1_555
H4_188 C6_188 1_555 1_555
C7_188 C6_188 1_555 1_555
H5_188 C7_188 1_555 1_555
C8_188 C7_188 1_555 1_555
H6_188 C8_188 1_555 1_555
C9_188 C8_188 1_555 1_555
H7_188 C9_188 1_555 1_555
C10_188 C5_188 1_555 1_555
C9_188 C10_188 1_555 1_555
Ag3_12 N1_188 1_555 1_555
P2_91 C1_188 1_555 1_555
N1_188 C1_188 1_555 1_555
N4_35 C2_188 1_555 1_555
C1_188 C2_188 1_555 1_555
C2_188 H1_188 1_555 1_555
C3_188 N4_35 1_555 1_555
H2_188 C3_188 1_555 1_555
C4_188 N1_188 1_555 1_555
H3_188 C4_188 1_555 1_555
C11_188 P2_91 1_555 1_555
C12_188 C11_188 1_555 1_555
H12_188 C15_188 1_555 1_555
C16_188 C11_188 1_555 1_555
H13_188 C16_188 1_555 1_555
N3_188 Ag3_12 1_555 1_555
C17_188 N3_188 1_555 1_555
C18_188 C17_188 1_555 1_555
H14_188 C18_188 1_555 1_555
H15_188 C18_188 1_555 1_555
H16_188 C18_188 1_555 1_555
C3_188 C4_188 1_555 1_555
C15_188 C16_188 1_555 1_555
Ag3_77 N1_189 1_555 1_555
P2_60 C1_189 1_555 1_555
N1_189 C1_189 1_555 1_555
N4_6 C2_189 1_555 1_555
C1_189 C2_189 1_555 1_555
C2_189 H1_189 1_555 1_555
C3_189 N4_6 1_555 1_555
H2_189 C3_189 1_555 1_555
C4_189 N1_189 1_555 1_555
H3_189 C4_189 1_555 1_555
C5_189 P2_60 1_555 1_555
C6_189 C5_189 1_555 1_555
H4_189 C6_189 1_555 1_555
C7_189 C6_189 1_555 1_555
H5_189 C7_189 1_555 1_555
C8_189 C7_189 1_555 1_555
H6_189 C8_189 1_555 1_555
C9_189 C8_189 1_555 1_555
H7_189 C9_189 1_555 1_555
C10_189 C5_189 1_555 1_555
H8_189 C10_189 1_555 1_555
C11_189 P2_60 1_555 1_555
C12_189 C11_189 1_555 1_555
H9_189 C12_189 1_555 1_555
C13_142 C12_189 1_555 1_555
H10_142 C13_142 1_555 1_555
C14_142 C13_142 1_555 1_555
H11_142 C14_142 1_555 1_555
C15_189 C14_142 1_555 1_555
H12_189 C15_189 1_555 1_555
C16_189 C11_189 1_555 1_555
H13_189 C16_189 1_555 1_555
N3_189 Ag3_77 1_555 1_555
C17_189 N3_189 1_555 1_555
C18_189 C17_189 1_555 1_555
H14_189 C18_189 1_555 1_555
H15_189 C18_189 1_555 1_555
H16_189 C18_189 1_555 1_555
C3_189 C4_189 1_555 1_555
C9_189 C10_189 1_555 1_555
C15_189 C16_189 1_555 1_555
C6_190 C5_190 1_555 1_555
H4_190 C6_190 1_555 1_555
C7_190 C6_190 1_555 1_555
H5_190 C7_190 1_555 1_555
C8_190 C7_190 1_555 1_555
H6_190 C8_190 1_555 1_555
C9_190 C8_190 1_555 1_555
H7_190 C9_190 1_555 1_555
C10_190 C5_190 1_555 1_555
C9_190 C10_190 1_555 1_555
Ag3_54 N1_190 1_555 1_555
P2_58 C1_190 1_555 1_555
N1_190 C1_190 1_555 1_555
N4_29 C2_190 1_555 1_555
C1_190 C2_190 1_555 1_555
C2_190 H1_190 1_555 1_555
C3_190 N4_29 1_555 1_555
H2_190 C3_190 1_555 1_555
C4_190 N1_190 1_555 1_555
H3_190 C4_190 1_555 1_555
C11_190 P2_58 1_555 1_555
C12_190 C11_190 1_555 1_555
C13_143 C12_190 1_555 1_555
H10_143 C13_143 1_555 1_555
C14_143 C13_143 1_555 1_555
H11_143 C14_143 1_555 1_555
C15_190 C14_143 1_555 1_555
H12_190 C15_190 1_555 1_555
C16_190 C11_190 1_555 1_555
H13_190 C16_190 1_555 1_555
N3_190 Ag3_54 1_555 1_555
C17_190 N3_190 1_555 1_555
C18_190 C17_190 1_555 1_555
H14_190 C18_190 1_555 1_555
H15_190 C18_190 1_555 1_555
H16_190 C18_190 1_555 1_555
C3_190 C4_190 1_555 1_555
C15_190 C16_190 1_555 1_555
Ag3_32 N1_191 1_555 1_555
P2_59 C1_191 1_555 1_555
N1_191 C1_191 1_555 1_555
N4_55 C2_191 1_555 1_555
C1_191 C2_191 1_555 1_555
C2_191 H1_191 1_555 1_555
C3_191 N4_55 1_555 1_555
H2_191 C3_191 1_555 1_555
C4_191 N1_191 1_555 1_555
H3_191 C4_191 1_555 1_555
C5_191 P2_59 1_555 1_555
C6_191 C5_191 1_555 1_555
H4_191 C6_191 1_555 1_555
C7_191 C6_191 1_555 1_555
H5_191 C7_191 1_555 1_555
C8_191 C7_191 1_555 1_555
H6_191 C8_191 1_555 1_555
C9_191 C8_191 1_555 1_555
H7_191 C9_191 1_555 1_555
C10_191 C5_191 1_555 1_555
H8_191 C10_191 1_555 1_555
C11_191 P2_59 1_555 1_555
C12_191 C11_191 1_555 1_555
H9_191 C12_191 1_555 1_555
H12_191 C15_191 1_555 1_555
C16_191 C11_191 1_555 1_555
H13_191 C16_191 1_555 1_555
N3_191 Ag3_32 1_555 1_555
C17_191 N3_191 1_555 1_555
C18_191 C17_191 1_555 1_555
H14_191 C18_191 1_555 1_555
H15_191 C18_191 1_555 1_555
H16_191 C18_191 1_555 1_555
C3_191 C4_191 1_555 1_555
C9_191 C10_191 1_555 1_555
C15_191 C16_191 1_555 1_555
Ag3_7 N1_192 1_555 1_555
P2_57 C1_192 1_555 1_555
N1_192 C1_192 1_555 1_555
N4_80 C2_192 1_555 1_555
C1_192 C2_192 1_555 1_555
C2_192 H1_192 1_555 1_555
C3_192 N4_80 1_555 1_555
H2_192 C3_192 1_555 1_555
C4_192 N1_192 1_555 1_555
H3_192 C4_192 1_555 1_555
C5_192 P2_57 1_555 1_555
C6_192 C5_192 1_555 1_555
H4_192 C6_192 1_555 1_555
C7_192 C6_192 1_555 1_555
H5_192 C7_192 1_555 1_555
C8_192 C7_192 1_555 1_555
H6_192 C8_192 1_555 1_555
C9_192 C8_192 1_555 1_555
H7_192 C9_192 1_555 1_555
C10_192 C5_192 1_555 1_555
H8_192 C10_192 1_555 1_555
C11_192 P2_57 1_555 1_555
C12_192 C11_192 1_555 1_555
H9_192 C12_192 1_555 1_555
C13_144 C12_192 1_555 1_555
H10_144 C13_144 1_555 1_555
C14_144 C13_144 1_555 1_555
H11_144 C14_144 1_555 1_555
C15_192 C14_144 1_555 1_555
H12_192 C15_192 1_555 1_555
C16_192 C11_192 1_555 1_555
H13_192 C16_192 1_555 1_555
N3_192 Ag3_7 1_555 1_555
C17_192 N3_192 1_555 1_555
C18_192 C17_192 1_555 1_555
H14_192 C18_192 1_555 1_555
H15_192 C18_192 1_555 1_555
H16_192 C18_192 1_555 1_555
C3_192 C4_192 1_555 1_555
C9_192 C10_192 1_555 1_555
C15_192 C16_192 1_555 1_555
H10_145 C13_145 1_555 1_555
C14_145 C13_145 1_555 1_555
H11_145 C14_145 1_555 1_555
H10_146 C13_146 1_555 1_555
C14_146 C13_146 1_555 1_555
H11_146 C14_146 1_555 1_555
H10_147 C13_147 1_555 1_555
C14_147 C13_147 1_555 1_555
H11_147 C14_147 1_555 1_555
H10_148 C13_148 1_555 1_555
C14_148 C13_148 1_555 1_555
H11_148 C14_148 1_555 1_555
H10_149 C13_149 1_555 1_555
C14_149 C13_149 1_555 1_555
H11_149 C14_149 1_555 1_555
H10_150 C13_150 1_555 1_555
C14_150 C13_150 1_555 1_555
H11_150 C14_150 1_555 1_555
H10_151 C13_151 1_555 1_555
C14_151 C13_151 1_555 1_555
H11_151 C14_151 1_555 1_555
H10_152 C13_152 1_555 1_555
C14_152 C13_152 1_555 1_555
H11_152 C14_152 1_555 1_555
H10_153 C13_153 1_555 1_555
C14_153 C13_153 1_555 1_555
H11_153 C14_153 1_555 1_555
H10_154 C13_154 1_555 1_555
C14_154 C13_154 1_555 1_555
H11_154 C14_154 1_555 1_555
H10_155 C13_155 1_555 1_555
C14_155 C13_155 1_555 1_555
H11_155 C14_155 1_555 1_555
H10_156 C13_156 1_555 1_555
C14_156 C13_156 1_555 1_555
H11_156 C14_156 1_555 1_555
H10_157 C13_157 1_555 1_555
C14_157 C13_157 1_555 1_555
H11_157 C14_157 1_555 1_555
H10_158 C13_158 1_555 1_555
C14_158 C13_158 1_555 1_555
H11_158 C14_158 1_555 1_555
H10_159 C13_159 1_555 1_555
C14_159 C13_159 1_555 1_555
H11_159 C14_159 1_555 1_555
H10_160 C13_160 1_555 1_555
C14_160 C13_160 1_555 1_555
H11_160 C14_160 1_555 1_555
H10_161 C13_161 1_555 1_555
C14_161 C13_161 1_555 1_555
H11_161 C14_161 1_555 1_555
H10_162 C13_162 1_555 1_555
C14_162 C13_162 1_555 1_555
H11_162 C14_162 1_555 1_555
H10_163 C13_163 1_555 1_555
C14_163 C13_163 1_555 1_555
H11_163 C14_163 1_555 1_555
H10_164 C13_164 1_555 1_555
C14_164 C13_164 1_555 1_555
H11_164 C14_164 1_555 1_555
H10_165 C13_165 1_555 1_555
C14_165 C13_165 1_555 1_555
H11_165 C14_165 1_555 1_555
H10_166 C13_166 1_555 1_555
C14_166 C13_166 1_555 1_555
H11_166 C14_166 1_555 1_555
H10_167 C13_167 1_555 1_555
C14_167 C13_167 1_555 1_555
H11_167 C14_167 1_555 1_555
H10_168 C13_168 1_555 1_555
C14_168 C13_168 1_555 1_555
H11_168 C14_168 1_555 1_555
H10_169 C13_169 1_555 1_555
C14_169 C13_169 1_555 1_555
H11_169 C14_169 1_555 1_555
H10_170 C13_170 1_555 1_555
C14_170 C13_170 1_555 1_555
H11_170 C14_170 1_555 1_555
H10_171 C13_171 1_555 1_555
C14_171 C13_171 1_555 1_555
H11_171 C14_171 1_555 1_555
H10_172 C13_172 1_555 1_555
C14_172 C13_172 1_555 1_555
H11_172 C14_172 1_555 1_555
H10_173 C13_173 1_555 1_555
C14_173 C13_173 1_555 1_555
H11_173 C14_173 1_555 1_555
H10_174 C13_174 1_555 1_555
C14_174 C13_174 1_555 1_555
H11_174 C14_174 1_555 1_555
H10_175 C13_175 1_555 1_555
C14_175 C13_175 1_555 1_555
H11_175 C14_175 1_555 1_555
H10_176 C13_176 1_555 1_555
C14_176 C13_176 1_555 1_555
H11_176 C14_176 1_555 1_555
H10_177 C13_177 1_555 1_555
C14_177 C13_177 1_555 1_555
H11_177 C14_177 1_555 1_555
H10_178 C13_178 1_555 1_555
C14_178 C13_178 1_555 1_555
H11_178 C14_178 1_555 1_555
H10_179 C13_179 1_555 1_555
C14_179 C13_179 1_555 1_555
H11_179 C14_179 1_555 1_555
H10_180 C13_180 1_555 1_555
C14_180 C13_180 1_555 1_555
H11_180 C14_180 1_555 1_555
H10_181 C13_181 1_555 1_555
C14_181 C13_181 1_555 1_555
H11_181 C14_181 1_555 1_555
H10_182 C13_182 1_555 1_555
C14_182 C13_182 1_555 1_555
H11_182 C14_182 1_555 1_555
H10_183 C13_183 1_555 1_555
C14_183 C13_183 1_555 1_555
H11_183 C14_183 1_555 1_555
H10_184 C13_184 1_555 1_555
C14_184 C13_184 1_555 1_555
H11_184 C14_184 1_555 1_555
H10_185 C13_185 1_555 1_555
C14_185 C13_185 1_555 1_555
H11_185 C14_185 1_555 1_555
H10_186 C13_186 1_555 1_555
C14_186 C13_186 1_555 1_555
H11_186 C14_186 1_555 1_555
H10_187 C13_187 1_555 1_555
C14_187 C13_187 1_555 1_555
H11_187 C14_187 1_555 1_555
H10_188 C13_188 1_555 1_555
C14_188 C13_188 1_555 1_555
H11_188 C14_188 1_555 1_555
H10_189 C13_189 1_555 1_555
C14_189 C13_189 1_555 1_555
H11_189 C14_189 1_555 1_555
H10_190 C13_190 1_555 1_555
C14_190 C13_190 1_555 1_555
H11_190 C14_190 1_555 1_555
H10_191 C13_191 1_555 1_555
C14_191 C13_191 1_555 1_555
H11_191 C14_191 1_555 1_555
H10_192 C13_192 1_555 1_555
C14_192 C13_192 1_555 1_555
H11_192 C14_192 1_555 1_555

#END
