
###############################################################################
#
# This file contains modified crystal structure data generated from the
# MOF subset of the Cambridge Structural Database (CSD) v543 
# hosted by the Cambridge Crystallographic Data Centre (CCDC).
#
# This work is licensed under the Creative Commons
# Attribution-NonCommercial-ShareAlike 4.0 International License.
# To view a copy of this license, visit
# http://creativecommons.org/licenses/by-nc-sa/4.0/
# or send a letter to
# Creative Commons, PO Box 1866, Mountain View, CA 94042, USA.
#
# CIF created using the CSD Python API on 29 September 2022
# The structure has been converted into the P1 space group
# The structure has a 3D framework
# The original CSD entry ISOQUF is in the monoclinic crystal system
# The framework has been calculated to contain at least 10.0% void space
# The void calculation uses a probe of radius 1.32A, grid spacing 0.4
#
###############################################################################

data_ISOQUF
_chemical_formula_moiety         '(C244 H160 N16 O28 Zn8)n'
_symmetry_cell_setting           triclinic
_symmetry_space_group_name_H-M   'P 1'
_symmetry_Int_Tables_number      1
_space_group_name_Hall           'P 1'
loop_
_symmetry_equiv_pos_site_id
_symmetry_equiv_pos_as_xyz
1 x,y,z
_cell_length_a                   8.040(5)
_cell_length_b                   27.239(17)
_cell_length_c                   25.707(16)
_cell_angle_alpha                90
_cell_angle_beta                 97.818(8)
_cell_angle_gamma                90
_cell_volume                     5577.54
loop_
_atom_site_label
_atom_site_type_symbol
_atom_site_fract_x
_atom_site_fract_y
_atom_site_fract_z
Zn1 Zn 0.38417(5) 0.46807(2) 0.02357(2)
O1 O 0.2896(4) 0.53536(11) 0.02763(13)
N1 N 0.2310(4) 0.42936(12) 0.06337(13)
C1 C 0.0077(5) 0.37034(15) 0.10891(16)
C4 C 0.2215(5) 0.61812(14) 0.02116(16)
C7 C 0.0810(5) 0.44588(15) 0.07120(17)
H3 H 0.0518 0.4779 0.0613
C14 C 0.0674(5) 0.60963(15) 0.03612(17)
H4 H 0.0383 0.5779 0.0448
C16 C 0.3336(5) 0.57664(15) 0.01377(15)
C21 C 0.1650(6) 0.35440(17) 0.1011(2)
H6 H 0.1997 0.3229 0.1114
C27 C 0.2696(5) 0.38419(17) 0.07866(19)
H10 H 0.3745 0.3721 0.0738
C36 C 0.1556(6) 0.70311(16) 0.0146(2)
H17 H 0.1882 0.7351 0.0082
C39 C 0.2649(5) 0.66559(16) 0.01034(19)
H20 H 0.3693 0.6720 0.0001
O9 O 0.5626(4) 0.48590(12) 0.08550(12)
O11 O 0.5369(4) 0.41475(11) 0.00561(14)
O2 O 0.7305(4) 0.53764(13) 0.05245(11)
C6 C 0.6768(5) 0.51645(15) 0.08929(15)
C11 C 0.7557(5) 0.52920(16) 0.14331(16)
C25 C 0.9563(6) 0.57015(17) 0.29893(17)
C31 C 0.7242(7) 0.50173(18) 0.18520(18)
H13 H 0.6555 0.4742 0.1796
C32 C 0.8898(6) 0.55533(17) 0.24468(17)
C34 C 0.8539(7) 0.5701(2) 0.15259(17)
H15 H 0.8779 0.5891 0.1245
C44 C 0.9169(7) 0.5834(2) 0.20237(19)
H25 H 0.9796 0.6121 0.2078
C48 C 0.9631(7) 0.61867(18) 0.31316(19)
H29 H 0.9293 0.6425 0.2880
C50 C 0.7915(7) 0.51381(19) 0.23516(18)
H31 H 0.7711 0.4939 0.2630
O2_2 O 0.2695(4) 0.46236(13) 0.94755(11)
C6_2 C 0.3232(5) 0.48355(15) 0.91071(15)
C11_2 C 0.2443(5) 0.47080(16) 0.85669(16)
C25_2 C 0.0437(6) 0.42985(17) 0.70107(17)
C31_2 C 0.2758(7) 0.49827(18) 0.81480(18)
H13_2 H 0.3445 0.5258 0.8204
C32_2 C 0.1102(6) 0.44467(17) 0.75532(17)
C34_2 C 0.1461(7) 0.4299(2) 0.84741(17)
H15_2 H 0.1221 0.4109 0.8755
C44_2 C 0.0831(7) 0.4166(2) 0.79763(19)
H25_2 H 0.0204 0.3879 0.7922
C48_2 C 0.0369(7) 0.38133(18) 0.68684(19)
H29_2 H 0.0707 0.3575 0.7120
C50_2 C 0.2085(7) 0.48619(19) 0.76484(18)
H31_2 H 0.2289 0.5061 0.7370
O5 O 0.4374(4) 0.51410(12) 0.91450(12)
O8 O 0.4631(4) 0.58525(11) 0.99439(14)
Zn3 Zn 0.61583(5) 0.53193(2) 0.97643(2)
O1_2 O 0.7104(4) 0.46464(11) 0.97237(13)
N1_2 N 0.7690(4) 0.57064(12) 0.93663(13)
C1_2 C 0.9923(5) 0.62966(15) 0.89109(16)
C4_2 C 0.7785(5) 0.38188(14) 0.97884(16)
C7_2 C 0.9190(5) 0.55412(15) 0.92880(17)
H3_2 H 0.9482 0.5221 0.9387
C14_2 C 0.9326(5) 0.39037(15) 0.96388(17)
H4_2 H 0.9617 0.4221 0.9552
C16_2 C 0.6664(5) 0.42336(15) 0.98623(15)
C21_2 C 0.8350(6) 0.64560(17) 0.8989(2)
H6_2 H 0.8003 0.6771 0.8886
C27_2 C 0.7304(5) 0.61581(17) 0.92134(19)
H10_2 H 0.6255 0.6279 0.9262
C36_2 C 0.8444(6) 0.29689(16) 0.9854(2)
H17_2 H 0.8118 0.2649 0.9918
C39_2 C 0.7351(5) 0.33441(16) 0.98966(19)
H20_2 H 0.6307 0.3280 0.9999
Zn2 Zn 0.25539(6) 0.89528(2) 0.05584(2)
O3 O 0.4202(4) 0.84394(11) 0.07206(12)
O4 O 0.5478(5) 0.89006(11) 0.02108(13)
N2 N 0.5430(5) 0.24936(13) 0.19367(15)
C2 C 0.9561(5) 0.64670(15) 0.03848(17)
H1 H 0.8500 0.6398 0.0472
C3 C 0.8877(5) 0.33919(15) 0.13069(16)
C5 C 0.9686(5) 0.41817(15) 0.09292(18)
H2 H 0.8645 0.4313 0.0972
C8 C 0.5333(5) 0.85176(16) 0.04364(16)
C9 C 0.6512(5) 0.81039(15) 0.03834(17)
C10 C 0.4401(5) 0.26775(15) 0.22968(16)
C12 C 0.6583(5) 0.27948(15) 0.17347(16)
C13 C 0.4691(6) 0.10475(16) 0.14130(17)
C15 C 0.8767(5) 0.73471(15) 0.03064(18)
C17 C 0.9981(5) 0.69485(15) 0.02809(17)
C18 C 0.5203(5) 0.20052(15) 0.17581(17)
C19 C 0.2348(6) 0.30630(18) 0.29763(18)
C22 C 0.0419(6) 0.39302(16) 0.38445(19)
H7 H 0.0617 0.4245 0.3978
C23 C 0.7852(6) 0.81612(16) 0.01163(19)
C24 C 0.1237(6) 0.32828(17) 0.33224(17)
C28 C 0.5060(8) 0.18918(18) 0.12413(19)
H11 H 0.5130 0.2140 0.0997
C29 C 0.2740(6) 0.2563(2) 0.2240(2)
H12 H 0.2289 0.2358 0.1968
C30 C 0.4300(6) 0.05456(16) 0.12268(17)
C33 C 0.7462(6) 0.35825(17) 0.1486(2)
H14 H 0.7271 0.3919 0.1466
C35 C 0.4044(6) 0.31674(19) 0.30323(19)
H16 H 0.4502 0.3376 0.3301
C37 C 0.8957(6) 0.77899(16) 0.00789(19)
C38 C 0.6342(6) 0.32878(18) 0.1691(2)
H19 H 0.5395 0.3427 0.1802
C40 C 0.1507(6) 0.37430(18) 0.3535(2)
H21 H 0.2430 0.3926 0.3467
C41 C 0.9061(6) 0.28969(17) 0.1337(2)
H22 H 0.9978 0.2753 0.1212
C42 C 0.4815(8) 0.14198(17) 0.10740(19)
H23 H 0.4731 0.1352 0.0717
C43 C 0.1726(6) 0.2748(2) 0.2579(2)
H24 H 0.0600 0.2658 0.2540
C45 C 0.7949(6) 0.26035(17) 0.1544(2)
H26 H 0.8123 0.2266 0.1557
C46 C 0.5054(6) 0.29734(19) 0.27045(18)
H27 H 0.6198 0.3042 0.2757
C47 C 0.7434(7) 0.72900(18) 0.0591(3)
H28 H 0.7302 0.6996 0.0764
C51 C 0.6314(7) 0.76625(18) 0.0620(3)
H32 H 0.5406 0.7615 0.0803
C52 C 0.4829(9) 0.11608(18) 0.1933(2)
H33 H 0.4732 0.0913 0.2176
C53 C 0.5106(8) 0.16303(19) 0.2106(2)
H34 H 0.5231 0.1696 0.2464
C55 C 0.4484(8) 0.01422(18) 0.1541(2)
H36 H 0.4966 0.0174 0.1889
C56 C 0.3619(10) 0.0459(2) 0.0718(2)
H37 H 0.3478 0.0717 0.0479
N5 N 0.3312(5) 0.96112(12) 0.08708(14)
N6 N 0.0901(4) 0.86907(13) 0.10338(13)
C54 C 0.3967(8) 0.96888(17) 0.1351(2)
H35 H 0.4095 0.9423 0.1580
C57 C 0.3148(10) 0.9998(2) 0.0558(2)
H38 H 0.2685 0.9953 0.0210
C20 C 0.1140(6) 0.82436(17) 0.12315(19)
H5 H 0.2052 0.8065 0.1146
C26 C 0.0146(6) 0.80290(18) 0.15493(19)
H9 H 0.0386 0.7715 0.1680
H8 H 0.8013 0.8461 0.9956
H18 H 0.9860 0.7840 0.9894
C49 C 0.9910(9) 0.4639(2) 0.66338(19)
H30 H 0.9937 0.4970 0.6722
C58 C 0.9295(6) 0.40144(17) 0.59922(17)
C59 C 0.9811(7) 0.36732(18) 0.63636(19)
H39 H 0.9787 0.3342 0.6275
C60 C 0.9344(8) 0.4501(2) 0.6128(2)
H40 H 0.8991 0.4738 0.5877
O6 O 0.8315(5) 0.34260(14) 0.53580(14)
C61 C 0.8676(6) 0.38505(18) 0.54465(17)
O7 O 0.8562(5) 0.41802(14) 0.51024(12)
Zn6 Zn 0.74461(6) 0.39528(2) 0.44416(2)
O10 O 0.1438(5) 0.91802(14) 0.98976(12)
C20_2 C 0.8860(6) 0.32436(17) 0.37685(19)
H5_2 H 0.7948 0.3065 0.3854
C26_2 C 0.9854(6) 0.30290(18) 0.34507(19)
H9_2 H 0.9614 0.2715 0.3320
N4 N 0.9099(4) 0.36907(13) 0.39662(13)
O3_2 O 0.5798(4) 0.34394(11) 0.42794(12)
O4_2 O 0.4522(5) 0.39006(11) 0.47892(13)
C2_2 C 0.0439(5) 0.14670(15) 0.46152(17)
H1_2 H 0.1500 0.1398 0.4528
C8_2 C 0.4667(5) 0.35176(16) 0.45636(16)
C9_2 C 0.3488(5) 0.31039(15) 0.46166(17)
C15_2 C 0.1233(5) 0.23471(15) 0.46936(18)
C17_2 C 0.0019(5) 0.19485(15) 0.47191(17)
C23_2 C 0.2148(6) 0.31612(16) 0.48837(19)
H8_2 H 0.1987 0.3461 0.5044
C37_2 C 0.1043(6) 0.27899(16) 0.49211(19)
H18_2 H 0.0140 0.2840 0.5106
C47_2 C 0.2566(7) 0.22900(18) 0.4409(3)
H28_2 H 0.2698 0.1996 0.4236
C51_2 C 0.3686(7) 0.26625(18) 0.4380(3)
H32_2 H 0.4594 0.2615 0.4197
N5_2 N 0.6688(5) 0.46112(12) 0.41292(14)
N2_2 N 0.4570(5) 0.74936(13) 0.30633(15)
C3_2 C 0.1123(5) 0.83919(15) 0.36931(16)
C5_2 C 0.0314(5) 0.91817(15) 0.40708(18)
H2_2 H 0.1355 0.9313 0.4028
C10_2 C 0.5599(5) 0.76775(15) 0.27032(16)
C12_2 C 0.3417(5) 0.77948(15) 0.32653(16)
C13_2 C 0.5309(6) 0.60475(16) 0.35870(17)
C18_2 C 0.4797(5) 0.70052(15) 0.32419(17)
C19_2 C 0.7652(6) 0.80630(18) 0.20237(18)
C22_2 C 0.9581(6) 0.89302(16) 0.11555(19)
H7_2 H 0.9383 0.9245 0.1022
C24_2 C 0.8763(6) 0.82828(17) 0.16776(17)
C28_2 C 0.4940(8) 0.68918(18) 0.37587(19)
H11_2 H 0.4870 0.7140 0.4003
C29_2 C 0.7260(6) 0.7563(2) 0.2760(2)
H12_2 H 0.7711 0.7358 0.3032
C30_2 C 0.5700(6) 0.55456(16) 0.37732(17)
C33_2 C 0.2538(6) 0.85825(17) 0.3514(2)
H14_2 H 0.2729 0.8919 0.3534
C35_2 C 0.5956(6) 0.81674(19) 0.19677(19)
H16_2 H 0.5498 0.8376 0.1699
C38_2 C 0.3658(6) 0.82878(18) 0.3309(2)
H19_2 H 0.4605 0.8427 0.3198
C40_2 C 0.8493(6) 0.87430(18) 0.1465(2)
H21_2 H 0.7570 0.8926 0.1533
C41_2 C 0.0939(6) 0.78969(17) 0.3663(2)
H22_2 H 0.0022 0.7753 0.3788
C42_2 C 0.5185(8) 0.64198(17) 0.39260(19)
H23_2 H 0.5269 0.6352 0.4283
C43_2 C 0.8274(6) 0.7748(2) 0.2421(2)
H24_2 H 0.9400 0.7658 0.2460
C45_2 C 0.2051(6) 0.76035(17) 0.3456(2)
H26_2 H 0.1877 0.7266 0.3443
C46_2 C 0.4946(6) 0.79734(19) 0.22955(18)
H27_2 H 0.3802 0.8042 0.2243
C49_2 C 0.0090(9) 0.9639(2) 0.83662(19)
H30_2 H 0.0063 0.9970 0.8278
C52_2 C 0.5171(9) 0.61608(18) 0.3067(2)
H33_2 H 0.5268 0.5913 0.2824
C53_2 C 0.4894(8) 0.66303(19) 0.2894(2)
H34_2 H 0.4769 0.6696 0.2536
C54_2 C 0.6033(8) 0.46888(17) 0.3649(2)
H35_2 H 0.5905 0.4423 0.3420
C55_2 C 0.5516(8) 0.51422(18) 0.3459(2)
H36_2 H 0.5034 0.5174 0.3111
C56_2 C 0.6381(10) 0.5459(2) 0.4282(2)
H37_2 H 0.6522 0.5717 0.4521
C57_2 C 0.6852(10) 0.4998(2) 0.4442(2)
H38_2 H 0.7315 0.4953 0.4790
C58_2 C 0.0705(6) 0.90144(17) 0.90078(17)
C59_2 C 0.0189(7) 0.86732(18) 0.86364(19)
H39_2 H 0.0213 0.8342 0.8725
C60_2 C 0.0656(8) 0.9501(2) 0.8872(2)
H40_2 H 0.1009 0.9738 0.9123
O6_2 O 0.1685(5) 0.84260(14) 0.96420(14)
C61_2 C 0.1324(6) 0.88505(18) 0.95535(17)
O1_3 O 0.7104(4) 0.03536(11) 0.47237(13)
C4_3 C 0.7785(5) 0.11812(14) 0.47884(16)
C14_3 C 0.9326(5) 0.10963(15) 0.46388(17)
H4_3 H 0.9617 0.0779 0.4552
C16_3 C 0.6664(5) 0.07664(15) 0.48623(15)
H13_3 H 0.6555 0.0258 0.6796
C36_3 C 0.8444(6) 0.20311(16) 0.4854(2)
H17_3 H 0.8118 0.2351 0.4918
C39_3 C 0.7351(5) 0.16559(16) 0.48966(19)
H20_3 H 0.6307 0.1720 0.4999
H31_3 H 0.7711 0.0061 0.7630
O5_2 O 0.5626(4) 0.01410(12) 0.58550(12)
O8_2 O 0.5369(4) 0.08525(11) 0.50561(14)
Zn3_2 Zn 0.38417(5) 0.03193(2) 0.52357(2)
N1_3 N 0.2310(4) 0.07064(12) 0.56337(13)
O2_3 O 0.2695(4) 0.03764(13) 0.44755(11)
C1_3 C 0.0077(5) 0.12966(15) 0.60891(16)
C6_3 C 0.3232(5) 0.01645(15) 0.41071(15)
C7_3 C 0.0810(5) 0.05412(15) 0.57120(17)
H3_3 H 0.0518 0.0221 0.5613
C11_3 C 0.2443(5) 0.02920(16) 0.35669(16)
C21_3 C 0.1650(6) 0.14560(17) 0.6011(2)
H6_3 H 0.1997 0.1771 0.6114
C25_3 C 0.0437(6) 0.07015(17) 0.20107(17)
C27_3 C 0.2696(5) 0.11581(17) 0.57866(19)
H10_3 H 0.3745 0.1279 0.5738
C31_3 C 0.2758(7) 0.00173(18) 0.31480(18)
C32_3 C 0.1102(6) 0.05533(17) 0.25532(17)
C34_3 C 0.1461(7) 0.0701(2) 0.34741(17)
H15_3 H 0.1221 0.0891 0.3755
C44_3 C 0.0831(7) 0.0834(2) 0.29763(19)
H25_3 H 0.0204 0.1121 0.2922
C48_3 C 0.0369(7) 0.11867(18) 0.18684(19)
H29_3 H 0.0707 0.1425 0.2120
C50_3 C 0.2085(7) 0.01381(19) 0.26484(18)
Zn1_2 Zn 0.61583(5) 0.96807(2) 0.47643(2)
N1_4 N 0.7690(4) 0.92936(12) 0.43663(13)
O2_4 O 0.7305(4) 0.96236(13) 0.55245(11)
C1_4 C 0.9923(5) 0.87034(15) 0.39109(16)
C6_4 C 0.6768(5) 0.98355(15) 0.58929(15)
C7_4 C 0.9190(5) 0.94588(15) 0.42880(17)
H3_4 H 0.9482 0.9779 0.4387
C11_4 C 0.7557(5) 0.97080(16) 0.64331(16)
C21_4 C 0.8350(6) 0.85440(17) 0.3989(2)
H6_4 H 0.8003 0.8229 0.3886
C25_4 C 0.9563(6) 0.92985(17) 0.79893(17)
C27_4 C 0.7304(5) 0.88419(17) 0.42134(19)
H10_4 H 0.6255 0.8721 0.4262
C31_4 C 0.7242(7) 0.99827(18) 0.68520(18)
C32_4 C 0.8898(6) 0.94467(17) 0.74468(17)
C34_4 C 0.8539(7) 0.9299(2) 0.65259(17)
H15_4 H 0.8779 0.9109 0.6245
C44_4 C 0.9169(7) 0.9166(2) 0.70237(19)
H25_4 H 0.9796 0.8879 0.7078
C48_4 C 0.9631(7) 0.88133(18) 0.81316(19)
H29_4 H 0.9293 0.8575 0.7880
C50_4 C 0.7915(7) 0.98619(19) 0.73516(18)
O9_2 O 0.4374(4) 0.98590(12) 0.41450(12)
O11_2 O 0.4631(4) 0.91475(11) 0.49439(14)
O1_4 O 0.2896(4) 0.96464(11) 0.52763(13)
C4_4 C 0.2215(5) 0.88188(14) 0.52116(16)
C14_4 C 0.0674(5) 0.89037(15) 0.53612(17)
H4_4 H 0.0383 0.9221 0.5448
C16_4 C 0.3336(5) 0.92336(15) 0.51377(15)
H13_4 H 0.3445 0.9742 0.3204
C36_4 C 0.1556(6) 0.79689(16) 0.5146(2)
H17_4 H 0.1882 0.7649 0.5082
C39_4 C 0.2649(5) 0.83441(16) 0.51034(19)
H20_4 H 0.3693 0.8280 0.5001
H31_4 H 0.2289 0.9939 0.2370
C20_3 C 0.1140(6) 0.67564(17) 0.62315(19)
H5_3 H 0.2052 0.6935 0.6146
C26_3 C 0.0146(6) 0.69710(18) 0.65493(19)
H9_3 H 0.0386 0.7285 0.6680
N4_2 N 0.0901(4) 0.63093(13) 0.60338(13)
Zn5 Zn 0.25539(6) 0.60472(2) 0.55584(2)
H8_3 H 0.1987 0.1539 0.0044
H18_3 H 0.0140 0.2160 0.0106
C49_3 C 0.0090(9) 0.5361(2) 0.33662(19)
H30_3 H 0.0063 0.5030 0.3278
C58_3 C 0.0705(6) 0.59856(17) 0.40078(17)
C59_3 C 0.0189(7) 0.63268(18) 0.36364(19)
H39_3 H 0.0213 0.6658 0.3725
C60_3 C 0.0656(8) 0.5499(2) 0.3872(2)
H40_3 H 0.1009 0.5262 0.4123
O6_3 O 0.1685(5) 0.65740(14) 0.46420(14)
C61_3 C 0.1324(6) 0.61495(18) 0.45535(17)
O7_2 O 0.1438(5) 0.58198(14) 0.48976(12)
O10_2 O 0.8562(5) 0.08198(14) 0.01024(12)
N2_3 N 0.5430(5) 0.25064(13) 0.69367(15)
C3_3 C 0.8877(5) 0.16081(15) 0.63069(16)
C5_3 C 0.9686(5) 0.08183(15) 0.59292(18)
H2_3 H 0.8645 0.0687 0.5972
C10_3 C 0.4401(5) 0.23225(15) 0.72968(16)
C12_3 C 0.6583(5) 0.22052(15) 0.67347(16)
C13_3 C 0.4691(6) 0.39525(16) 0.64130(17)
C18_3 C 0.5203(5) 0.29948(15) 0.67581(17)
C19_3 C 0.2348(6) 0.19370(18) 0.79763(18)
C22_3 C 0.0419(6) 0.10698(16) 0.88445(19)
H7_3 H 0.0617 0.0755 0.8978
C24_3 C 0.1237(6) 0.17172(17) 0.83224(17)
C28_3 C 0.5060(8) 0.31082(18) 0.62413(19)
H11_3 H 0.5130 0.2860 0.5997
C29_3 C 0.2740(6) 0.2437(2) 0.7240(2)
H12_3 H 0.2289 0.2642 0.6968
C30_3 C 0.4300(6) 0.44544(16) 0.62268(17)
C33_3 C 0.7462(6) 0.14175(17) 0.6486(2)
H14_3 H 0.7271 0.1081 0.6466
C35_3 C 0.4044(6) 0.18326(19) 0.80323(19)
H16_3 H 0.4502 0.1624 0.8301
C38_3 C 0.6342(6) 0.17122(18) 0.6691(2)
H19_3 H 0.5395 0.1573 0.6802
C40_3 C 0.1507(6) 0.12570(18) 0.8535(2)
H21_3 H 0.2430 0.1074 0.8467
C41_3 C 0.9061(6) 0.21031(17) 0.6337(2)
H22_3 H 0.9978 0.2247 0.6212
C42_3 C 0.4815(8) 0.35802(17) 0.60740(19)
H23_3 H 0.4731 0.3648 0.5717
C43_3 C 0.1726(6) 0.2252(2) 0.7579(2)
H24_3 H 0.0600 0.2342 0.7540
C45_3 C 0.7949(6) 0.23965(17) 0.6544(2)
H26_3 H 0.8123 0.2734 0.6557
C46_3 C 0.5054(6) 0.20266(19) 0.77045(18)
H27_3 H 0.6198 0.1958 0.7757
C49_4 C 0.9910(9) 0.0361(2) 0.16338(19)
H30_4 H 0.9937 0.0030 0.1722
C52_3 C 0.4829(9) 0.38392(18) 0.6933(2)
H33_3 H 0.4732 0.4087 0.7176
C53_3 C 0.5106(8) 0.33697(19) 0.7106(2)
H34_3 H 0.5231 0.3304 0.7464
C54_3 C 0.3967(8) 0.53112(17) 0.6351(2)
H35_3 H 0.4095 0.5577 0.6580
C55_3 C 0.4484(8) 0.48578(18) 0.6541(2)
H36_3 H 0.4966 0.4826 0.6889
C56_3 C 0.3619(10) 0.4541(2) 0.5718(2)
H37_3 H 0.3478 0.4283 0.5479
C57_3 C 0.3148(10) 0.5002(2) 0.5558(2)
H38_3 H 0.2685 0.5047 0.5210
N3 N 0.3312(5) 0.53888(12) 0.58708(14)
C58_4 C 0.9295(6) 0.09856(17) 0.09922(17)
C59_4 C 0.9811(7) 0.13268(18) 0.13636(19)
H39_4 H 0.9787 0.1658 0.1275
C60_4 C 0.9344(8) 0.0499(2) 0.1128(2)
H40_4 H 0.8991 0.0262 0.0877
O6_4 O 0.8315(5) 0.15740(14) 0.03580(14)
C61_4 C 0.8676(6) 0.11495(18) 0.04465(17)
O3_3 O 0.4202(4) 0.65606(11) 0.57206(12)
O4_3 O 0.5478(5) 0.60994(11) 0.52108(13)
C2_3 C 0.9561(5) 0.85330(15) 0.53848(17)
H1_3 H 0.8500 0.8602 0.5472
C8_3 C 0.5333(5) 0.64824(16) 0.54364(16)
C9_3 C 0.6512(5) 0.68961(15) 0.53834(17)
C15_3 C 0.8767(5) 0.76529(15) 0.53064(18)
C17_3 C 0.9981(5) 0.80515(15) 0.52809(17)
C23_3 C 0.7852(6) 0.68388(16) 0.51163(19)
H8_4 H 0.8013 0.6539 0.4956
C37_3 C 0.8957(6) 0.72101(16) 0.50789(19)
H18_4 H 0.9860 0.7160 0.4894
C47_3 C 0.7434(7) 0.77100(18) 0.5591(3)
H28_3 H 0.7302 0.8004 0.5764
C51_3 C 0.6314(7) 0.73375(18) 0.5620(3)
H32_3 H 0.5406 0.7385 0.5803
C54_4 C 0.6033(8) 0.03112(17) 0.8649(2)
H35_4 H 0.5905 0.0577 0.8420
C57_4 C 0.6852(10) 0.0002(2) 0.9442(2)
H38_4 H 0.7315 0.0047 0.9790
N3_2 N 0.6688(5) 0.03888(12) 0.91292(14)
Zn4 Zn 0.74461(6) 0.10472(2) 0.94416(2)
O3_4 O 0.5798(4) 0.15606(11) 0.92794(12)
O4_4 O 0.4522(5) 0.10994(11) 0.97892(13)
N2_4 N 0.4570(5) 0.75064(13) 0.80633(15)
C2_4 C 0.0439(5) 0.35330(15) 0.96152(17)
H1_4 H 0.1500 0.3602 0.9528
C3_4 C 0.1123(5) 0.66081(15) 0.86931(16)
C5_4 C 0.0314(5) 0.58183(15) 0.90708(18)
H2_4 H 0.1355 0.5687 0.9028
C8_4 C 0.4667(5) 0.14824(16) 0.95636(16)
C9_4 C 0.3488(5) 0.18961(15) 0.96166(17)
C10_4 C 0.5599(5) 0.73225(15) 0.77032(16)
C12_4 C 0.3417(5) 0.72052(15) 0.82653(16)
C13_4 C 0.5309(6) 0.89525(16) 0.85870(17)
C15_4 C 0.1233(5) 0.26529(15) 0.96936(18)
C17_4 C 0.0019(5) 0.30515(15) 0.97191(17)
C18_4 C 0.4797(5) 0.79948(15) 0.82419(17)
C19_4 C 0.7652(6) 0.69370(18) 0.70237(18)
C22_4 C 0.9581(6) 0.60698(16) 0.61555(19)
H7_4 H 0.9383 0.5755 0.6022
C23_4 C 0.2148(6) 0.18388(16) 0.98837(19)
C24_4 C 0.8763(6) 0.67172(17) 0.66776(17)
C28_4 C 0.4940(8) 0.81082(18) 0.87587(19)
H11_4 H 0.4870 0.7860 0.9003
C29_4 C 0.7260(6) 0.7437(2) 0.7760(2)
H12_4 H 0.7711 0.7642 0.8032
C30_4 C 0.5700(6) 0.94544(16) 0.87732(17)
C33_4 C 0.2538(6) 0.64175(17) 0.8514(2)
H14_4 H 0.2729 0.6081 0.8534
C35_4 C 0.5956(6) 0.68326(19) 0.69677(19)
H16_4 H 0.5498 0.6624 0.6699
C37_4 C 0.1043(6) 0.22101(16) 0.99211(19)
C38_4 C 0.3658(6) 0.67122(18) 0.8309(2)
H19_4 H 0.4605 0.6573 0.8198
C40_4 C 0.8493(6) 0.62570(18) 0.6465(2)
H21_4 H 0.7570 0.6074 0.6533
C41_4 C 0.0939(6) 0.71031(17) 0.8663(2)
H22_4 H 0.0022 0.7247 0.8788
C42_4 C 0.5185(8) 0.85802(17) 0.89260(19)
H23_4 H 0.5269 0.8648 0.9283
C43_4 C 0.8274(6) 0.7252(2) 0.7421(2)
H24_4 H 0.9400 0.7342 0.7460
C45_4 C 0.2051(6) 0.73965(17) 0.8456(2)
H26_4 H 0.1877 0.7734 0.8443
C46_4 C 0.4946(6) 0.70266(19) 0.72955(18)
H27_4 H 0.3802 0.6958 0.7243
C47_4 C 0.2566(7) 0.27100(18) 0.9409(3)
H28_4 H 0.2698 0.3004 0.9236
C51_4 C 0.3686(7) 0.23375(18) 0.9380(3)
H32_4 H 0.4594 0.2385 0.9197
C52_4 C 0.5171(9) 0.88392(18) 0.8067(2)
H33_4 H 0.5268 0.9087 0.7824
C53_4 C 0.4894(8) 0.83697(19) 0.7894(2)
H34_4 H 0.4769 0.8304 0.7536
C55_4 C 0.5516(8) 0.98578(18) 0.8459(2)
H36_4 H 0.5034 0.9826 0.8111
C56_4 C 0.6381(10) 0.9541(2) 0.9282(2)
H37_4 H 0.6522 0.9283 0.9521
N6_2 N 0.9099(4) 0.13093(13) 0.89662(13)
C20_4 C 0.8860(6) 0.17564(17) 0.87685(19)
H5_4 H 0.7948 0.1935 0.8854
C26_4 C 0.9854(6) 0.19710(18) 0.84507(19)
H9_4 H 0.9614 0.2285 0.8320
loop_
_geom_bond_atom_site_label_1
_geom_bond_atom_site_label_2
_geom_bond_site_symmetry_1
_geom_bond_site_symmetry_2
Zn1 O1 1_555 1_555
O1 C16 1_555 1_555
N1 Zn1 1_555 1_555
C4 C14 1_555 1_555
C7 N1 1_555 1_555
H3 C7 1_555 1_555
H4 C14 1_555 1_555
C16 C4 1_555 1_555
C21 C1 1_555 1_555
H6 C21 1_555 1_555
C27 N1 1_555 1_555
H10 C27 1_555 1_555
H17 C36 1_555 1_555
C39 C4 1_555 1_555
H20 C39 1_555 1_555
O9 Zn1 1_555 1_555
O11 Zn1 1_555 1_555
C21 C27 1_555 1_555
C36 C39 1_555 1_555
C6 O2 1_555 1_555
C11 C6 1_555 1_555
C25 C32 1_555 1_555
C31 C11 1_555 1_555
H13 C31 1_555 1_555
C32 C44 1_555 1_555
C34 C11 1_555 1_555
H15 C34 1_555 1_555
C44 C34 1_555 1_555
H25 C44 1_555 1_555
C48 C25 1_555 1_555
H29 C48 1_555 1_555
C50 C31 1_555 1_555
H31 C50 1_555 1_555
O9 C6 1_555 1_555
C32 C50 1_555 1_555
C6_2 O2_2 1_555 1_555
C11_2 C6_2 1_555 1_555
C25_2 C32_2 1_555 1_555
C31_2 C11_2 1_555 1_555
H13_2 C31_2 1_555 1_555
C32_2 C44_2 1_555 1_555
C34_2 C11_2 1_555 1_555
H15_2 C34_2 1_555 1_555
C44_2 C34_2 1_555 1_555
H25_2 C44_2 1_555 1_555
C48_2 C25_2 1_555 1_555
H29_2 C48_2 1_555 1_555
C50_2 C31_2 1_555 1_555
H31_2 C50_2 1_555 1_555
O5 C6_2 1_555 1_555
Zn3 O5 1_555 1_555
C32_2 C50_2 1_555 1_555
O8 Zn3 1_555 1_555
Zn3 O1_2 1_555 1_555
O1_2 C16_2 1_555 1_555
N1_2 Zn3 1_555 1_555
C4_2 C14_2 1_555 1_555
C7_2 N1_2 1_555 1_555
H3_2 C7_2 1_555 1_555
H4_2 C14_2 1_555 1_555
C16_2 C4_2 1_555 1_555
C21_2 C1_2 1_555 1_555
H6_2 C21_2 1_555 1_555
C27_2 N1_2 1_555 1_555
H10_2 C27_2 1_555 1_555
H17_2 C36_2 1_555 1_555
C39_2 C4_2 1_555 1_555
H20_2 C39_2 1_555 1_555
C21_2 C27_2 1_555 1_555
C36_2 C39_2 1_555 1_555
Zn2 O3 1_555 1_555
O3 C8 1_555 1_555
O4 C8 1_555 1_555
N2 C10 1_555 1_555
C2 H1 1_555 1_555
C3 C33 1_555 1_555
H2 C5 1_555 1_555
C8 C9 1_555 1_555
C9 C23 1_555 1_555
C10 C29 1_555 1_555
C12 N2 1_555 1_555
C13 C30 1_555 1_555
C15 C17 1_555 1_555
C17 C2 1_555 1_555
C18 N2 1_555 1_555
C19 C24 1_555 1_555
C22 H7 1_555 1_555
C28 C18 1_555 1_555
H11 C28 1_555 1_555
C29 H12 1_555 1_555
C30 C55 1_555 1_555
C33 H14 1_555 1_555
C35 C19 1_555 1_555
H16 C35 1_555 1_555
C37 C15 1_555 1_555
C38 C12 1_555 1_555
H19 C38 1_555 1_555
C40 C22 1_555 1_555
H21 C40 1_555 1_555
C41 C3 1_555 1_555
H22 C41 1_555 1_555
C42 C13 1_555 1_555
H23 C42 1_555 1_555
C43 C19 1_555 1_555
H24 C43 1_555 1_555
C45 C12 1_555 1_555
H26 C45 1_555 1_555
C46 C10 1_555 1_555
H27 C46 1_555 1_555
C47 C15 1_555 1_555
H28 C47 1_555 1_555
C51 C9 1_555 1_555
H32 C51 1_555 1_555
C52 C13 1_555 1_555
H33 C52 1_555 1_555
C53 C18 1_555 1_555
H34 C53 1_555 1_555
H36 C55 1_555 1_555
C56 C30 1_555 1_555
H37 C56 1_555 1_555
N5 Zn2 1_555 1_555
N6 Zn2 1_555 1_555
C23 C37 1_555 1_555
C24 C40 1_555 1_555
C28 C42 1_555 1_555
C29 C43 1_555 1_555
C33 C38 1_555 1_555
C35 C46 1_555 1_555
C41 C45 1_555 1_555
C47 C51 1_555 1_555
C52 C53 1_555 1_555
C54 H35 1_555 1_555
H38 C57 1_555 1_555
N5 C54 1_555 1_555
C57 N5 1_555 1_555
C20 H5 1_555 1_555
C26 C20 1_555 1_555
H9 C26 1_555 1_555
N6 C20 1_555 1_555
H30 C49 1_555 1_555
C58 C59 1_555 1_555
H39 C59 1_555 1_555
C60 C49 1_555 1_555
H40 C60 1_555 1_555
O6 C61 1_555 1_555
C61 C58 1_555 1_555
O7 C61 1_555 1_555
Zn6 O7 1_555 1_555
C58 C60 1_555 1_555
C20_2 H5_2 1_555 1_555
C26_2 C20_2 1_555 1_555
H9_2 C26_2 1_555 1_555
N4 C20_2 1_555 1_555
Zn6 N4 1_555 1_555
Zn6 O3_2 1_555 1_555
O3_2 C8_2 1_555 1_555
O4_2 C8_2 1_555 1_555
C2_2 H1_2 1_555 1_555
C8_2 C9_2 1_555 1_555
C9_2 C23_2 1_555 1_555
C15_2 C17_2 1_555 1_555
C17_2 C2_2 1_555 1_555
C23_2 H8_2 1_555 1_555
C37_2 C15_2 1_555 1_555
H18_2 C37_2 1_555 1_555
C47_2 C15_2 1_555 1_555
H28_2 C47_2 1_555 1_555
C51_2 C9_2 1_555 1_555
H32_2 C51_2 1_555 1_555
N5_2 Zn6 1_555 1_555
C23_2 C37_2 1_555 1_555
C47_2 C51_2 1_555 1_555
N2_2 C10_2 1_555 1_555
C3_2 C33_2 1_555 1_555
H2_2 C5_2 1_555 1_555
C10_2 C29_2 1_555 1_555
C12_2 N2_2 1_555 1_555
C13_2 C30_2 1_555 1_555
C18_2 N2_2 1_555 1_555
C19_2 C24_2 1_555 1_555
C22_2 H7_2 1_555 1_555
C28_2 C18_2 1_555 1_555
H11_2 C28_2 1_555 1_555
C29_2 H12_2 1_555 1_555
C30_2 C55_2 1_555 1_555
C33_2 H14_2 1_555 1_555
C35_2 C19_2 1_555 1_555
H16_2 C35_2 1_555 1_555
C38_2 C12_2 1_555 1_555
H19_2 C38_2 1_555 1_555
C40_2 C22_2 1_555 1_555
H21_2 C40_2 1_555 1_555
C41_2 C3_2 1_555 1_555
H22_2 C41_2 1_555 1_555
C42_2 C13_2 1_555 1_555
H23_2 C42_2 1_555 1_555
C43_2 C19_2 1_555 1_555
H24_2 C43_2 1_555 1_555
C45_2 C12_2 1_555 1_555
H26_2 C45_2 1_555 1_555
C46_2 C10_2 1_555 1_555
H27_2 C46_2 1_555 1_555
H30_2 C49_2 1_555 1_555
C52_2 C13_2 1_555 1_555
H33_2 C52_2 1_555 1_555
C53_2 C18_2 1_555 1_555
H34_2 C53_2 1_555 1_555
C54_2 H35_2 1_555 1_555
C55_2 C54_2 1_555 1_555
H36_2 C55_2 1_555 1_555
C56_2 C30_2 1_555 1_555
H37_2 C56_2 1_555 1_555
C57_2 C56_2 1_555 1_555
H38_2 C57_2 1_555 1_555
N5_2 C54_2 1_555 1_555
C58_2 C59_2 1_555 1_555
H39_2 C59_2 1_555 1_555
C60_2 C49_2 1_555 1_555
H40_2 C60_2 1_555 1_555
O6_2 C61_2 1_555 1_555
C61_2 C58_2 1_555 1_555
O10 C61_2 1_555 1_555
C24_2 C40_2 1_555 1_555
C28_2 C42_2 1_555 1_555
C29_2 C43_2 1_555 1_555
C33_2 C38_2 1_555 1_555
C35_2 C46_2 1_555 1_555
C41_2 C45_2 1_555 1_555
C52_2 C53_2 1_555 1_555
C57_2 N5_2 1_555 1_555
C58_2 C60_2 1_555 1_555
O1_3 C16_3 1_555 1_555
C4_3 C14_3 1_555 1_555
H4_3 C14_3 1_555 1_555
C16_3 C4_3 1_555 1_555
H17_3 C36_3 1_555 1_555
C39_3 C4_3 1_555 1_555
H20_3 C39_3 1_555 1_555
O8_2 C16_3 1_555 1_555
Zn3_2 O5_2 1_555 1_555
C36_3 C39_3 1_555 1_555
O8_2 Zn3_2 1_555 1_555
N1_3 Zn3_2 1_555 1_555
O2_3 Zn3_2 1_555 1_555
C6_3 O2_3 1_555 1_555
C7_3 N1_3 1_555 1_555
H3_3 C7_3 1_555 1_555
C11_3 C6_3 1_555 1_555
C21_3 C1_3 1_555 1_555
H6_3 C21_3 1_555 1_555
C25_3 C32_3 1_555 1_555
C27_3 N1_3 1_555 1_555
H10_3 C27_3 1_555 1_555
C31_3 C11_3 1_555 1_555
C32_3 C44_3 1_555 1_555
C34_3 C11_3 1_555 1_555
H15_3 C34_3 1_555 1_555
C44_3 C34_3 1_555 1_555
H25_3 C44_3 1_555 1_555
C48_3 C25_3 1_555 1_555
H29_3 C48_3 1_555 1_555
C50_3 C31_3 1_555 1_555
C21_3 C27_3 1_555 1_555
C32_3 C50_3 1_555 1_555
N1_4 Zn1_2 1_555 1_555
O2_4 Zn1_2 1_555 1_555
C6_4 O2_4 1_555 1_555
C7_4 N1_4 1_555 1_555
H3_4 C7_4 1_555 1_555
C11_4 C6_4 1_555 1_555
C21_4 C1_4 1_555 1_555
H6_4 C21_4 1_555 1_555
C25_4 C32_4 1_555 1_555
C27_4 N1_4 1_555 1_555
H10_4 C27_4 1_555 1_555
C31_4 C11_4 1_555 1_555
C32_4 C44_4 1_555 1_555
C34_4 C11_4 1_555 1_555
H15_4 C34_4 1_555 1_555
C44_4 C34_4 1_555 1_555
H25_4 C44_4 1_555 1_555
C48_4 C25_4 1_555 1_555
H29_4 C48_4 1_555 1_555
C50_4 C31_4 1_555 1_555
O9_2 Zn1_2 1_555 1_555
O11_2 Zn1_2 1_555 1_555
C21_4 C27_4 1_555 1_555
C32_4 C50_4 1_555 1_555
O1_4 C16_4 1_555 1_555
C4_4 C14_4 1_555 1_555
H4_4 C14_4 1_555 1_555
C16_4 C4_4 1_555 1_555
H17_4 C36_4 1_555 1_555
C39_4 C4_4 1_555 1_555
H20_4 C39_4 1_555 1_555
O11_2 C16_4 1_555 1_555
C36_4 C39_4 1_555 1_555
C20_3 H5_3 1_555 1_555
C26_3 C20_3 1_555 1_555
H9_3 C26_3 1_555 1_555
N4_2 C20_3 1_555 1_555
Zn5 N4_2 1_555 1_555
H30_3 C49_3 1_555 1_555
C58_3 C59_3 1_555 1_555
H39_3 C59_3 1_555 1_555
C60_3 C49_3 1_555 1_555
H40_3 C60_3 1_555 1_555
O6_3 C61_3 1_555 1_555
C61_3 C58_3 1_555 1_555
O7_2 C61_3 1_555 1_555
Zn5 O7_2 1_555 1_555
C58_3 C60_3 1_555 1_555
N2_3 C10_3 1_555 1_555
C3_3 C33_3 1_555 1_555
H2_3 C5_3 1_555 1_555
C10_3 C29_3 1_555 1_555
C12_3 N2_3 1_555 1_555
C13_3 C30_3 1_555 1_555
C18_3 N2_3 1_555 1_555
C19_3 C24_3 1_555 1_555
C22_3 H7_3 1_555 1_555
C28_3 C18_3 1_555 1_555
H11_3 C28_3 1_555 1_555
C29_3 H12_3 1_555 1_555
C30_3 C55_3 1_555 1_555
C33_3 H14_3 1_555 1_555
C35_3 C19_3 1_555 1_555
H16_3 C35_3 1_555 1_555
C38_3 C12_3 1_555 1_555
H19_3 C38_3 1_555 1_555
C40_3 C22_3 1_555 1_555
H21_3 C40_3 1_555 1_555
C41_3 C3_3 1_555 1_555
H22_3 C41_3 1_555 1_555
C42_3 C13_3 1_555 1_555
H23_3 C42_3 1_555 1_555
C43_3 C19_3 1_555 1_555
H24_3 C43_3 1_555 1_555
C45_3 C12_3 1_555 1_555
H26_3 C45_3 1_555 1_555
C46_3 C10_3 1_555 1_555
H27_3 C46_3 1_555 1_555
H30_4 C49_4 1_555 1_555
C52_3 C13_3 1_555 1_555
H33_3 C52_3 1_555 1_555
C53_3 C18_3 1_555 1_555
H34_3 C53_3 1_555 1_555
C54_3 H35_3 1_555 1_555
C55_3 C54_3 1_555 1_555
H36_3 C55_3 1_555 1_555
C56_3 C30_3 1_555 1_555
H37_3 C56_3 1_555 1_555
C57_3 C56_3 1_555 1_555
H38_3 C57_3 1_555 1_555
N3 C54_3 1_555 1_555
C58_4 C59_4 1_555 1_555
H39_4 C59_4 1_555 1_555
C60_4 C49_4 1_555 1_555
H40_4 C60_4 1_555 1_555
O6_4 C61_4 1_555 1_555
C61_4 C58_4 1_555 1_555
O10_2 C61_4 1_555 1_555
Zn5 N3 1_555 1_555
C24_3 C40_3 1_555 1_555
C28_3 C42_3 1_555 1_555
C29_3 C43_3 1_555 1_555
C33_3 C38_3 1_555 1_555
C35_3 C46_3 1_555 1_555
C41_3 C45_3 1_555 1_555
C52_3 C53_3 1_555 1_555
C57_3 N3 1_555 1_555
C58_4 C60_4 1_555 1_555
Zn5 O3_3 1_555 1_555
O3_3 C8_3 1_555 1_555
O4_3 C8_3 1_555 1_555
C2_3 H1_3 1_555 1_555
C8_3 C9_3 1_555 1_555
C9_3 C23_3 1_555 1_555
C15_3 C17_3 1_555 1_555
C17_3 C2_3 1_555 1_555
C23_3 H8_4 1_555 1_555
C37_3 C15_3 1_555 1_555
H18_4 C37_3 1_555 1_555
C47_3 C15_3 1_555 1_555
H28_3 C47_3 1_555 1_555
C51_3 C9_3 1_555 1_555
H32_3 C51_3 1_555 1_555
C23_3 C37_3 1_555 1_555
C47_3 C51_3 1_555 1_555
C54_4 H35_4 1_555 1_555
H38_4 C57_4 1_555 1_555
N3_2 C54_4 1_555 1_555
Zn4 N3_2 1_555 1_555
C57_4 N3_2 1_555 1_555
Zn4 O3_4 1_555 1_555
O3_4 C8_4 1_555 1_555
O4_4 C8_4 1_555 1_555
N2_4 C10_4 1_555 1_555
C2_4 H1_4 1_555 1_555
C3_4 C33_4 1_555 1_555
H2_4 C5_4 1_555 1_555
C8_4 C9_4 1_555 1_555
C9_4 C23_4 1_555 1_555
C10_4 C29_4 1_555 1_555
C12_4 N2_4 1_555 1_555
C13_4 C30_4 1_555 1_555
C15_4 C17_4 1_555 1_555
C17_4 C2_4 1_555 1_555
C18_4 N2_4 1_555 1_555
C19_4 C24_4 1_555 1_555
C22_4 H7_4 1_555 1_555
C28_4 C18_4 1_555 1_555
H11_4 C28_4 1_555 1_555
C29_4 H12_4 1_555 1_555
C30_4 C55_4 1_555 1_555
C33_4 H14_4 1_555 1_555
C35_4 C19_4 1_555 1_555
H16_4 C35_4 1_555 1_555
C37_4 C15_4 1_555 1_555
C38_4 C12_4 1_555 1_555
H19_4 C38_4 1_555 1_555
C40_4 C22_4 1_555 1_555
H21_4 C40_4 1_555 1_555
C41_4 C3_4 1_555 1_555
H22_4 C41_4 1_555 1_555
C42_4 C13_4 1_555 1_555
H23_4 C42_4 1_555 1_555
C43_4 C19_4 1_555 1_555
H24_4 C43_4 1_555 1_555
C45_4 C12_4 1_555 1_555
H26_4 C45_4 1_555 1_555
C46_4 C10_4 1_555 1_555
H27_4 C46_4 1_555 1_555
C47_4 C15_4 1_555 1_555
H28_4 C47_4 1_555 1_555
C51_4 C9_4 1_555 1_555
H32_4 C51_4 1_555 1_555
C52_4 C13_4 1_555 1_555
H33_4 C52_4 1_555 1_555
C53_4 C18_4 1_555 1_555
H34_4 C53_4 1_555 1_555
H36_4 C55_4 1_555 1_555
C56_4 C30_4 1_555 1_555
H37_4 C56_4 1_555 1_555
N6_2 Zn4 1_555 1_555
C23_4 C37_4 1_555 1_555
C24_4 C40_4 1_555 1_555
C28_4 C42_4 1_555 1_555
C29_4 C43_4 1_555 1_555
C33_4 C38_4 1_555 1_555
C35_4 C46_4 1_555 1_555
C41_4 C45_4 1_555 1_555
C47_4 C51_4 1_555 1_555
C52_4 C53_4 1_555 1_555
C20_4 H5_4 1_555 1_555
C26_4 C20_4 1_555 1_555
H9_4 C26_4 1_555 1_555
N6_2 C20_4 1_555 1_555

#END
