
###############################################################################
#
# This file contains modified crystal structure data generated from the
# MOF subset of the Cambridge Structural Database (CSD) v543 
# hosted by the Cambridge Crystallographic Data Centre (CCDC).
#
# This work is licensed under the Creative Commons
# Attribution-NonCommercial-ShareAlike 4.0 International License.
# To view a copy of this license, visit
# http://creativecommons.org/licenses/by-nc-sa/4.0/
# or send a letter to
# Creative Commons, PO Box 1866, Mountain View, CA 94042, USA.
#
# CIF created using the CSD Python API on 29 September 2022
# The structure has been converted into the P1 space group
# The structure has a 3D framework
# The original CSD entry ISUGOT is in the rhombohedral crystal system
# The framework has been calculated to contain at least 10.0% void space
# The void calculation uses a probe of radius 1.32A, grid spacing 0.4
#
###############################################################################

data_ISUGOT
_chemical_formula_moiety         '(C432 H232 Eu54 N72 O223)n'
_symmetry_cell_setting           triclinic
_symmetry_space_group_name_H-M   'P 1'
_symmetry_Int_Tables_number      1
_space_group_name_Hall           'P 1'
loop_
_symmetry_equiv_pos_site_id
_symmetry_equiv_pos_as_xyz
1 x,y,z
_cell_length_a                   17.0615(4)
_cell_length_b                   17.0615(4)
_cell_length_c                   56.505(3)
_cell_angle_alpha                90
_cell_angle_beta                 90
_cell_angle_gamma                120
_cell_volume                     14244.7
loop_
_atom_site_label
_atom_site_type_symbol
_atom_site_fract_x
_atom_site_fract_y
_atom_site_fract_z
Eu18 Eu 0.52625(3) 0.0000 0.2500
H17 H 0.9080 0.0337 0.1596
N16 N 0.2750(5) 0.0247(7) 0.09877(13)
Eu1 Eu 0.21277(2) 0.52782(2) 0.132281(5)
Eu2 Eu 0.14042(3) 0.3333 0.0833
C1 C 0.1535(5) 0.3060(4) 0.13621(12)
C2 C 0.1805(5) 0.3047(5) 0.15986(14)
C3 C 0.1667(8) 0.2214(6) 0.16830(18)
H1 H 0.1787 0.2162 0.1841
C4 C 0.1358(9) 0.1473(6) 0.1538(2)
H2 H 0.1257 0.0920 0.1596
C5 C 0.1201(7) 0.1574(6) 0.13024(18)
H3 H 0.1033 0.1088 0.1200
C6 C 0.2246(5) 0.3861(5) 0.17485(13)
C7 C 0.1068(5) 0.4904(5) 0.08179(13)
C8 C 0.0852(5) 0.5605(5) 0.08302(14)
C9 C 0.0186(7) 0.5541(7) 0.0686(2)
H4 H 0.0070 0.6018 0.0677
C12 C 0.1362(5) 0.6423(4) 0.09824(12)
O1 O 0.2451(3) 0.4647(3) 0.16646(9)
O2 O 0.2477(4) 0.3809(4) 0.19551(10)
O3 O 0.1524(3) 0.3735(3) 0.12650(9)
O4 O 0.1933(3) 0.6456(3) 0.11370(9)
O5 O 0.1202(4) 0.7046(3) 0.09503(11)
O6 O 0.1719(3) 0.4884(3) 0.09301(9)
O7 O 0.3333 0.6667 0.14428(13)
H7 H 0.3333 0.6667 0.1667
N1 N 0.1281(5) 0.2349(4) 0.12136(11)
N2 N 0.0583(5) 0.4163(5) 0.06790(13)
Eu3 Eu 0.19449(2) 0.64838(3) 0.201052(5)
Eu4 Eu 0.35162(3) 0.54610(2) 0.201052(5)
Eu5 Eu 0.47218(2) 0.68495(3) 0.132281(5)
Eu6 Eu 0.45390(2) 0.80551(2) 0.201052(5)
Eu7 Eu 0.31505(3) 0.78723(2) 0.132281(5)
Eu8 Eu 0.01828(3) 0.13885(2) 0.034386(5)
Eu12 Eu -0.0000 0.52621(3) 0.2500
Eu13 Eu 0.19288(3) 0.85958(3) 0.0833
Eu14 Eu 0.6667 0.80712(3) 0.0833
Eu15 Eu 0.47379(3) 0.47375(3) 0.2500
Eu18_2 Eu 0.52625(3) 1.0000 0.2500
C14 C 0.1808(6) 0.3607(4) 0.03046(12)
C15 C 0.1525(6) 0.8465(5) 0.13621(12)
C16 C 0.5142(6) 0.4868(5) 0.19712(12)
C17 C 0.6940(4) 0.8475(6) 0.13621(12)
C19 C 0.2091(7) 0.3620(5) 0.00681(14)
C20 C 0.1242(7) 0.8195(5) 0.15986(14)
C21 C 0.5425(7) 0.5138(5) 0.17347(14)
C22 C 0.6953(5) 0.8758(7) 0.15986(14)
C25 C 0.0547(10) 0.8333(8) 0.16830(18)
C26 C 0.6120(10) 0.5000(8) 0.16503(18)
C27 C 0.7786(6) 0.9453(10) 0.16830(18)
H10 H 0.0375 0.8213 0.1841
H11 H 0.6292 0.5120 0.1492
H12 H 0.7838 0.9625 0.1841
C29 C 0.3218(11) 0.5194(6) 0.0129(2)
C30 C 0.0115(11) 0.8642(9) 0.1538(2)
C31 C 0.6552(11) 0.4691(9) 0.1795(2)
C32 C 0.8527(6) 0.9885(11) 0.1538(2)
H14 H 0.3670 0.5747 0.0071
H16 H 0.7004 0.4590 0.1737
C34 C 0.2960(9) 0.5093(6) 0.03643(18)
C35 C 0.0373(9) 0.8799(7) 0.13024(18)
C36 C 0.6294(9) 0.4534(7) 0.20309(18)
C37 C 0.8426(6) 0.9627(9) 0.13024(18)
H19 H 0.3278 0.5579 0.0467
H20 H 0.0055 0.8967 0.1200
H21 H 0.6612 0.4366 0.2133
H22 H 0.8912 0.9945 0.1200
C38 C 0.0528(5) 0.4948(7) 0.15848(13)
C40 C 0.1615(7) 0.7754(5) 0.17485(13)
C41 C 0.5052(7) 0.5579(5) 0.15848(13)
C42 C 0.6139(5) 0.8385(7) 0.17485(13)
C43 C 0.5096(5) 0.6164(7) 0.08179(13)
C44 C 0.2265(5) 0.0503(7) 0.08488(13)
C46 C 0.1571(5) 0.7169(7) 0.25154(13)
C47 C 0.2831(7) 0.4401(5) 0.25154(13)
C48 C 0.4395(5) 0.5247(7) 0.08302(14)
C49 C 0.2481(5) 0.1420(7) 0.08365(14)
C51 C 0.2272(5) 0.8086(7) 0.25031(14)
C52 C 0.1914(7) 0.4185(5) 0.25031(14)
C53 C 0.4459(7) 0.4645(10) 0.0686(2)
C54 C 0.3147(7) 0.2022(10) 0.0981(2)
C56 C 0.2208(7) 0.8688(10) 0.2647(2)
C57 C 0.1312(10) 0.3519(7) 0.2647(2)
H23 H 0.3982 0.4052 0.0677
H24 H 0.3263 0.2615 0.0990
H26 H 0.2685 0.9281 0.2656
H27 H 0.0719 0.3403 0.2656
C58 C 0.5253(10) 0.4914(14) 0.0547(3)
C59 C 0.3672(10) 0.1753(14) 0.1120(3)
C61 C 0.1414(10) 0.8419(14) 0.2786(3)
C62 C 0.1581(14) 0.2994(10) 0.2786(3)
H28 H 0.5330 0.4493 0.0460
H29 H 0.4170 0.2174 0.1207
H31 H 0.1337 0.8840 0.2873
H32 H 0.1160 0.2496 0.2873
C63 C 0.5888(8) 0.5801(12) 0.0546(2)
C64 C 0.3420(9) 0.0866(12) 0.1121(2)
C66 C 0.0779(8) 0.7532(12) 0.2787(2)
C67 C 0.2468(12) 0.3246(9) 0.2787(2)
H33 H 0.6386 0.5990 0.0447
H34 H 0.3729 0.0677 0.1220
H36 H 0.0281 0.7343 0.2886
H37 H 0.2657 0.2937 0.2886
C68 C 0.3577(4) 0.4939(6) 0.09824(12)
C69 C 0.1971(5) 0.1728(6) 0.06843(12)
C71 C 0.3090(4) 0.8394(6) 0.23509(12)
C72 C 0.1606(6) 0.4695(5) 0.23509(12)
O8 O 0.1314(3) 0.5529(4) 0.16687(9)
O9 O 0.1137(4) 0.2020(3) 0.00021(9)
O10 O 0.2196(4) 0.7549(3) 0.16646(9)
O11 O 0.4471(4) 0.5784(3) 0.16687(9)
O12 O 0.5353(3) 0.7804(4) 0.16646(9)
O13 O 0.4216(3) 0.8686(3) 0.16687(9)
O14 O 0.0476(4) 0.4665(6) 0.13782(10)
O16 O 0.1332(6) 0.7523(4) 0.19551(10)
O17 O 0.5335(6) 0.5810(4) 0.13782(10)
O18 O 0.6191(4) 0.8668(6) 0.19551(10)
O19 O 0.4190(4) 0.9524(4) 0.13782(10)
O20 O 0.0402(3) 0.5544(4) 0.20683(9)
O21 O 0.1122(4) 0.2932(3) 0.04017(9)
O22 O 0.2211(4) 0.8476(3) 0.12650(9)
O23 O 0.4456(4) 0.4857(3) 0.20683(9)
O24 O 0.6265(3) 0.7789(4) 0.12650(9)
O25 O 0.5143(3) 0.9598(3) 0.20683(9)
O26 O 0.1809(3) 0.8878(4) 0.04017(9)
O27 O 0.4857(3) 0.4456(4) 0.29317(9)
O29 O 0.3544(3) 0.5477(4) 0.11370(9)
O30 O 0.1400(3) 0.1190(4) 0.05297(9)
O32 O 0.3123(3) 0.7856(4) 0.21963(9)
O33 O 0.2144(4) 0.5266(3) 0.21963(9)
O34 O 0.4734(3) 0.6877(3) 0.21963(9)
O35 O 0.4523(4) 0.8067(3) 0.11370(9)
O36 O 0.2954(3) 0.4156(5) 0.09503(11)
O37 O 0.2131(4) 0.2511(5) 0.07164(11)
O39 O 0.3713(3) 0.9177(5) 0.23830(11)
O40 O 0.0823(5) 0.4535(4) 0.23830(11)
O41 O 0.0379(3) 0.7869(4) 0.07164(11)
O42 O 0.5465(4) 0.6287(3) 0.23830(11)
O43 O 0.6287(3) 0.5465(4) 0.26170(11)
O44 O 0.5116(3) 0.6835(4) 0.09301(9)
O46 O 0.0168(4) 0.1783(3) 0.07366(9)
O47 O 0.1551(3) 0.6498(4) 0.24032(9)
O48 O 0.3502(4) 0.5052(3) 0.24032(9)
O49 O 0.4948(3) 0.8449(3) 0.24032(9)
O50 O 0.3165(4) 0.8281(3) 0.09301(9)
O51 O 0.1614(3) 0.9832(4) 0.07366(9)
O52 O 0.5052(3) 0.3502(4) 0.25968(9)
O54 O 0.3334 0.6666 0.18905(13)
N4 N 0.2265(6) 0.4318(4) 0.04531(11)
N5 N 0.1068(6) 0.8719(5) 0.12136(11)
N6 N 0.5599(6) 0.4614(5) 0.21197(11)
N7 N 0.7651(4) 0.8932(6) 0.12136(11)
N8 N 0.2052(5) 0.7735(6) 0.04531(11)
N9 N 0.4614(5) 0.5599(6) 0.28803(11)
N10 N 0.5837(5) 0.6420(7) 0.06790(13)
N13 N 0.0830(5) 0.6913(7) 0.26543(13)
N14 N 0.3087(7) 0.3916(5) 0.26543(13)
N15 N 0.3580(7) 0.9417(5) 0.06790(13)
N17 N 0.3916(5) 0.3087(7) 0.23457(13)
Eu9 Eu 0.13885(2) 0.12056(2) 0.965614(5)
C24 C 0.2786(10) 0.4453(6) 0.99837(18)
H9 H 0.2958 0.4505 0.9826
C39 C 0.1718(7) 0.2806(5) 0.99182(13)
O15 O 0.2001(6) 0.2858(4) 0.97116(10)
Eu10 Eu 0.12056(2) 0.98172(3) 0.034386(5)
C10 C 0.9661(10) 0.4747(10) 0.0547(3)
H5 H 0.9163 0.4670 0.0460
C11 C 0.9913(9) 0.4112(8) 0.0546(2)
H6 H 0.9604 0.3614 0.0447
Eu12_2 Eu 1.0000 0.52621(3) 0.2500
C13 C 0.9727(4) 0.4858(6) 0.19712(12)
C18 C 0.9714(5) 0.4575(7) 0.17347(14)
C23 C 0.8881(6) 0.3880(10) 0.16503(18)
H8 H 0.8829 0.3708 0.1492
C28 C 0.8140(6) 0.3448(11) 0.1795(2)
H13 H 0.7587 0.2996 0.1737
H15 H 0.9663 0.8743 0.1596
C33 C 0.8241(6) 0.3706(9) 0.20309(18)
H18 H 0.7755 0.3388 0.2133
C45 C 0.9497(7) 0.1763(5) 0.08488(13)
C50 C 0.8580(7) 0.1062(5) 0.08365(14)
C55 C 0.7978(10) 0.1126(7) 0.0981(2)
H25 H 0.7385 0.0649 0.0990
C60 C 0.8247(14) 0.1920(10) 0.1120(3)
H30 H 0.7826 0.1997 0.1207
C65 C 0.9134(12) 0.2555(8) 0.1121(2)
H35 H 0.9323 0.3053 0.1220
C70 C 0.8272(6) 0.0244(4) 0.06843(12)
O31 O 0.8810(4) 0.0211(3) 0.05297(9)
N3 N 0.9016(4) 0.4401(6) 0.21197(11)
N12 N 0.9753(7) 0.2504(5) 0.09877(13)
Eu11 Eu 0.86115(2) 0.87944(2) 0.034386(5)
O28 O 0.7068(3) 0.8191(3) 0.04017(9)
O38 O 0.7489(5) 0.9621(3) 0.07164(11)
O53 O 0.8217(3) 0.8386(3) 0.07366(9)
C16_2 C 0.5132(5) 0.0273(8) 0.19712(12)
C21_2 C 0.4862(5) 0.0286(9) 0.17347(14)
C26_2 C 0.5000(8) 0.1119(13) 0.16503(18)
H11_2 H 0.4880 0.1171 0.1492
C31_2 C 0.5309(9) 0.1860(14) 0.1795(2)
H16_2 H 0.5410 0.2413 0.1737
C36_2 C 0.5466(7) 0.1759(11) 0.20309(18)
H21_2 H 0.5634 0.2245 0.2133
C58_2 C 0.5086(14) 0.0339(17) 0.0547(3)
H28_2 H 0.5507 0.0837 0.0460
C63_2 C 0.4199(12) 0.0087(14) 0.0546(2)
H33_2 H 0.4010 0.0396 0.0447
O27_2 O 0.5544(4) 0.0402(5) 0.29317(9)
O43_2 O 0.4535(4) 0.0823(5) 0.26170(11)
O52_2 O 0.6498(4) 0.1551(5) 0.25968(9)
N6_2 N 0.5386(5) 0.0984(8) 0.21197(11)
N17_2 N 0.6913(7) 0.0830(9) 0.23457(13)
Eu9_2 Eu 0.87944(2) 0.01828(3) 0.965614(5)
C14_2 C 0.6393(4) 0.8202(7) 0.03046(12)
C19_2 C 0.6380(5) 0.8472(9) 0.00681(14)
C29_2 C 0.4806(6) 0.8025(13) 0.0129(2)
H14_2 H 0.4253 0.7924 0.0071
C34_2 C 0.4907(6) 0.7868(11) 0.03643(18)
H19_2 H 0.4421 0.7700 0.0467
C41_2 C 0.4421(5) 0.9472(9) 0.15848(13)
C43_2 C 0.3836(7) 0.8932(9) 0.08179(13)
C45_2 C 0.8237(5) 0.7735(9) 0.08488(13)
C47_2 C 0.5599(5) 0.8429(9) 0.25154(13)
C48_2 C 0.4753(7) 0.9148(9) 0.08302(14)
C50_2 C 0.8938(5) 0.7519(9) 0.08365(14)
C52_2 C 0.5815(5) 0.7728(9) 0.25031(14)
C53_2 C 0.5355(10) 0.9814(12) 0.0686(2)
C55_2 C 0.8874(7) 0.6853(12) 0.0981(2)
C57_2 C 0.6481(7) 0.7792(12) 0.2647(2)
H23_2 H 0.5948 0.9930 0.0677
H25_2 H 0.9351 0.6737 0.0990
H27_2 H 0.6597 0.7315 0.2656
C60_2 C 0.8080(10) 0.6328(17) 0.1120(3)
C62_2 C 0.7006(10) 0.8586(17) 0.2786(3)
H30_2 H 0.8003 0.5830 0.1207
H32_2 H 0.7504 0.8663 0.2873
C65_2 C 0.7445(8) 0.6580(14) 0.1121(2)
C67_2 C 0.6754(9) 0.9221(15) 0.2787(2)
H35_2 H 0.6947 0.6271 0.1220
H37_2 H 0.7063 0.9719 0.2886
C68_2 C 0.5061(6) 0.8638(7) 0.09824(12)
C70_2 C 0.9756(4) 0.8029(7) 0.06843(12)
C72_2 C 0.5305(5) 0.6910(8) 0.23509(12)
O9_2 O 0.7980(3) 0.9118(5) 0.00021(9)
O31_2 O 0.9789(3) 0.8600(5) 0.05297(9)
O36_2 O 0.5844(5) 0.8798(6) 0.09503(11)
N4_2 N 0.5682(4) 0.7948(7) 0.04531(11)
N9_2 N 0.4401(6) 0.9016(8) 0.28803(11)
N12_2 N 0.7496(5) 0.7250(9) 0.09877(13)
N14_2 N 0.6084(5) 0.9170(9) 0.26543(13)
C24_2 C 0.5547(6) 0.8334(12) 0.99837(18)
H9_2 H 0.5495 0.8454 0.9826
C39_2 C 0.7194(5) 0.8913(9) 0.99182(13)
O15_2 O 0.7142(4) 0.9144(7) 0.97116(10)
C14_3 C 0.1798(7) 0.8192(6) 0.03046(12)
C19_3 C 0.1528(9) 0.7909(7) 0.00681(14)
C29_3 C 0.1975(13) 0.6782(11) 0.0129(2)
H14_3 H 0.2076 0.6330 0.0071
C34_3 C 0.2132(11) 0.7040(9) 0.03643(18)
H19_3 H 0.2300 0.6722 0.0467
O9_3 O 0.0882(5) 0.8863(4) 0.00021(9)
N9_3 N 0.0984(8) 0.5386(5) 0.28803(11)
C24_3 C 0.1666(12) 0.7214(10) 0.99837(18)
H9_3 H 0.1546 0.7042 0.9826
C39_3 C 0.1087(9) 0.8282(7) 0.99182(13)
O15_3 O 0.0856(7) 0.7999(6) 0.97116(10)
O27_3 O 0.9598(5) 0.5143(3) 0.29317(9)
O43_3 O 0.9177(5) 0.3713(3) 0.26170(11)
O52_3 O 0.8449(5) 0.4948(3) 0.25968(9)
N17_3 N 0.9170(9) 0.6084(5) 0.23457(13)
Eu9_3 Eu 0.98172(3) 0.86115(2) 0.965614(5)
H17_2 H 0.0337 0.9080 0.3404
N16_2 N 0.0247(7) 0.2750(5) 0.40123(13)
Eu1_2 Eu 0.52782(2) 0.21277(2) 0.367719(5)
Eu2_2 Eu 0.3333 0.14042(3) 0.4167
C1_2 C 0.3060(4) 0.1535(5) 0.36379(12)
C2_2 C 0.3047(5) 0.1805(5) 0.34014(14)
C3_2 C 0.2214(6) 0.1667(8) 0.33170(18)
H1_2 H 0.2162 0.1787 0.3159
C4_2 C 0.1473(6) 0.1358(9) 0.3462(2)
H2_2 H 0.0920 0.1257 0.3404
C5_2 C 0.1574(6) 0.1201(7) 0.36976(18)
H3_2 H 0.1088 0.1033 0.3800
C6_2 C 0.3861(5) 0.2246(5) 0.32515(13)
C7_2 C 0.4904(5) 0.1068(5) 0.41821(13)
C8_2 C 0.5605(5) 0.0852(5) 0.41698(14)
C9_2 C 0.5541(7) 0.0186(7) 0.4314(2)
H4_2 H 0.6018 0.0070 0.4323
C12_2 C 0.6423(4) 0.1362(5) 0.40176(12)
O1_2 O 0.4647(3) 0.2451(3) 0.33354(9)
O2_2 O 0.3809(4) 0.2477(4) 0.30449(10)
O3_2 O 0.3735(3) 0.1524(3) 0.37350(9)
O4_2 O 0.6456(3) 0.1933(3) 0.38630(9)
O5_2 O 0.7046(3) 0.1202(4) 0.40497(11)
O6_2 O 0.4884(3) 0.1719(3) 0.40699(9)
O7_2 O 0.6667 0.3333 0.35572(13)
H7_2 H 0.6667 0.3333 0.3333
N1_2 N 0.2349(4) 0.1281(5) 0.37864(11)
N2_2 N 0.4163(5) 0.0583(5) 0.43210(13)
Eu3_2 Eu 0.64838(3) 0.19449(2) 0.298948(5)
Eu4_2 Eu 0.54610(2) 0.35162(3) 0.298948(5)
Eu5_2 Eu 0.68495(3) 0.47218(2) 0.367719(5)
Eu6_2 Eu 0.80551(2) 0.45390(2) 0.298948(5)
Eu7_2 Eu 0.78723(2) 0.31505(3) 0.367719(5)
Eu8_2 Eu 0.13885(2) 0.01828(3) 0.465614(5)
Eu9_4 Eu 0.12056(2) 0.13885(2) 0.534386(5)
Eu13_2 Eu 0.85958(3) 0.19288(3) 0.4167
Eu14_2 Eu 0.80712(3) 0.6667 0.4167
C14_4 C 0.3607(4) 0.1808(6) 0.46954(12)
C15_2 C 0.8465(5) 0.1525(6) 0.36379(12)
C16_3 C 0.4868(5) 0.5142(6) 0.30288(12)
C17_2 C 0.8475(6) 0.6940(4) 0.36379(12)
C19_4 C 0.3620(5) 0.2091(7) 0.49319(14)
C20_2 C 0.8195(5) 0.1242(7) 0.34014(14)
C21_3 C 0.5138(5) 0.5425(7) 0.32653(14)
C22_2 C 0.8758(7) 0.6953(5) 0.34014(14)
C24_4 C 0.4453(6) 0.2786(10) 0.50163(18)
C25_2 C 0.8333(8) 0.0547(10) 0.33170(18)
C26_3 C 0.5000(8) 0.6120(10) 0.33497(18)
C27_2 C 0.9453(10) 0.7786(6) 0.33170(18)
H9_4 H 0.4505 0.2958 0.5174
H10_2 H 0.8213 0.0375 0.3159
H11_3 H 0.5120 0.6292 0.3508
H12_2 H 0.9625 0.7838 0.3159
C29_4 C 0.5194(6) 0.3218(11) 0.4871(2)
C30_2 C 0.8642(9) 0.0115(11) 0.3462(2)
C31_3 C 0.4691(9) 0.6552(11) 0.3205(2)
C32_2 C 0.9885(11) 0.8527(6) 0.3462(2)
H14_4 H 0.5747 0.3670 0.4929
H16_3 H 0.4590 0.7004 0.3263
C34_4 C 0.5093(6) 0.2960(9) 0.46357(18)
C35_2 C 0.8799(7) 0.0373(9) 0.36976(18)
C36_3 C 0.4534(7) 0.6294(9) 0.29691(18)
C37_2 C 0.9627(9) 0.8426(6) 0.36976(18)
H19_4 H 0.5579 0.3278 0.4533
H20_2 H 0.8967 0.0055 0.3800
H21_3 H 0.4366 0.6612 0.2867
H22_2 H 0.9945 0.8912 0.3800
C38_2 C 0.4948(7) 0.0528(5) 0.34152(13)
C39_4 C 0.2806(5) 0.1718(7) 0.50818(13)
C40_2 C 0.7754(5) 0.1615(7) 0.32515(13)
C41_3 C 0.5579(5) 0.5052(7) 0.34152(13)
C42_2 C 0.8385(7) 0.6139(5) 0.32515(13)
C43_3 C 0.6164(7) 0.5096(5) 0.41821(13)
C44_2 C 0.0503(7) 0.2265(5) 0.41512(13)
C46_2 C 0.7169(7) 0.1571(5) 0.24846(13)
C47_3 C 0.4401(5) 0.2831(7) 0.24846(13)
C48_3 C 0.5247(7) 0.4395(5) 0.41698(14)
C49_2 C 0.1420(7) 0.2481(5) 0.41635(14)
C51_2 C 0.8086(7) 0.2272(5) 0.24969(14)
C52_3 C 0.4185(5) 0.1914(7) 0.24969(14)
C53_3 C 0.4645(10) 0.4459(7) 0.4314(2)
C54_2 C 0.2022(10) 0.3147(7) 0.4019(2)
C56_2 C 0.8688(10) 0.2208(7) 0.2353(2)
C57_3 C 0.3519(7) 0.1312(10) 0.2353(2)
H23_3 H 0.4052 0.3982 0.4323
H24_2 H 0.2615 0.3263 0.4010
H26_2 H 0.9281 0.2685 0.2344
H27_3 H 0.3403 0.0719 0.2344
C58_3 C 0.4914(14) 0.5253(10) 0.4453(3)
C59_2 C 0.1753(14) 0.3672(10) 0.3880(3)
C61_2 C 0.8419(14) 0.1414(10) 0.2214(3)
C62_3 C 0.2994(10) 0.1581(14) 0.2214(3)
H28_3 H 0.4493 0.5330 0.4540
H29_2 H 0.2174 0.4170 0.3793
H31_2 H 0.8840 0.1337 0.2127
H32_3 H 0.2496 0.1160 0.2127
C63_3 C 0.5801(12) 0.5888(8) 0.4454(2)
C64_2 C 0.0866(12) 0.3420(9) 0.3879(2)
C66_2 C 0.7532(12) 0.0779(8) 0.2213(2)
C67_3 C 0.3246(9) 0.2468(12) 0.2213(2)
H33_3 H 0.5990 0.6386 0.4553
H34_2 H 0.0677 0.3729 0.3780
H36_2 H 0.7343 0.0281 0.2114
H37_3 H 0.2937 0.2657 0.2114
C68_3 C 0.4939(6) 0.3577(4) 0.40176(12)
C69_2 C 0.1728(6) 0.1971(5) 0.43157(12)
C71_2 C 0.8394(6) 0.3090(4) 0.26491(12)
C72_3 C 0.4695(5) 0.1606(6) 0.26491(12)
O8_2 O 0.5529(4) 0.1314(3) 0.33313(9)
O9_4 O 0.2020(3) 0.1137(4) 0.49979(9)
O10_2 O 0.7549(3) 0.2196(4) 0.33354(9)
O11_2 O 0.5784(3) 0.4471(4) 0.33313(9)
O12_2 O 0.7804(4) 0.5353(3) 0.33354(9)
O13_2 O 0.8686(3) 0.4216(3) 0.33313(9)
O14_2 O 0.4665(6) 0.0476(4) 0.36218(10)
O15_4 O 0.2858(4) 0.2001(6) 0.52884(10)
O16_2 O 0.7523(4) 0.1332(6) 0.30449(10)
O17_2 O 0.5810(4) 0.5335(6) 0.36218(10)
O18_2 O 0.8668(6) 0.6191(4) 0.30449(10)
O19_2 O 0.9524(4) 0.4190(4) 0.36218(10)
O21_2 O 0.2932(3) 0.1122(4) 0.45983(9)
O22_2 O 0.8476(3) 0.2211(4) 0.37350(9)
O24_2 O 0.7789(4) 0.6265(3) 0.37350(9)
O26_2 O 0.8878(4) 0.1809(3) 0.45983(9)
O29_2 O 0.5477(4) 0.3544(3) 0.38630(9)
O30_2 O 0.1190(4) 0.1400(3) 0.44703(9)
O32_2 O 0.7856(4) 0.3123(3) 0.28037(9)
O33_2 O 0.5266(3) 0.2144(4) 0.28037(9)
O34_2 O 0.6877(3) 0.4734(3) 0.28037(9)
O35_2 O 0.8067(3) 0.4523(4) 0.38630(9)
O36_3 O 0.4156(5) 0.2954(3) 0.40497(11)
O37_2 O 0.2511(5) 0.2131(4) 0.42836(11)
O41_2 O 0.7869(4) 0.0379(3) 0.42836(11)
O44_2 O 0.6835(4) 0.5116(3) 0.40699(9)
O46_2 O 0.1783(3) 0.0168(4) 0.42634(9)
O50_2 O 0.8281(3) 0.3165(4) 0.40699(9)
O51_2 O 0.9832(4) 0.1614(3) 0.42634(9)
O54_2 O 0.6666 0.3334 0.31095(13)
N4_3 N 0.4318(4) 0.2265(6) 0.45469(11)
N5_2 N 0.8719(5) 0.1068(6) 0.37864(11)
N7_2 N 0.8932(6) 0.7651(4) 0.37864(11)
N8_2 N 0.7735(6) 0.2052(5) 0.45469(11)
N10_2 N 0.6420(7) 0.5837(5) 0.43210(13)
N15_2 N 0.9417(5) 0.3580(7) 0.43210(13)
C10_2 C 0.4747(10) 0.9661(10) 0.4453(3)
H5_2 H 0.4670 0.9163 0.4540
C11_2 C 0.4112(8) 0.9913(9) 0.4454(2)
H6_2 H 0.3614 0.9604 0.4553
C13_2 C 0.4858(6) 0.9727(4) 0.30288(12)
C18_2 C 0.4575(7) 0.9714(5) 0.32653(14)
C23_2 C 0.3880(10) 0.8881(6) 0.33497(18)
H8_2 H 0.3708 0.8829 0.3508
C28_2 C 0.3448(11) 0.8140(6) 0.3205(2)
H13_2 H 0.2996 0.7587 0.3263
H15_2 H 0.8743 0.9663 0.3404
C33_2 C 0.3706(9) 0.8241(6) 0.29691(18)
H18_2 H 0.3388 0.7755 0.2867
C45_3 C 0.1763(5) 0.9497(7) 0.41512(13)
C50_3 C 0.1062(5) 0.8580(7) 0.41635(14)
C55_3 C 0.1126(7) 0.7978(10) 0.4019(2)
H25_3 H 0.0649 0.7385 0.4010
C60_3 C 0.1920(10) 0.8247(14) 0.3880(3)
H30_3 H 0.1997 0.7826 0.3793
C65_3 C 0.2555(8) 0.9134(12) 0.3879(2)
H35_3 H 0.3053 0.9323 0.3780
C70_3 C 0.0244(4) 0.8272(6) 0.43157(12)
O31_3 O 0.0211(3) 0.8810(4) 0.44703(9)
N12_3 N 0.2504(5) 0.9753(7) 0.40123(13)
Eu10_2 Eu 0.98172(3) 0.12056(2) 0.465614(5)
Eu11_2 Eu 0.87944(2) 0.86115(2) 0.465614(5)
O28_2 O 0.8191(3) 0.7068(3) 0.45983(9)
O38_2 O 0.9621(3) 0.7489(5) 0.42836(11)
O53_2 O 0.8386(3) 0.8217(3) 0.42634(9)
Eu9_5 Eu 0.01828(3) 0.87944(2) 0.534386(5)
C16_4 C 0.0273(8) 0.5132(5) 0.30288(12)
C21_4 C 0.0286(9) 0.4862(5) 0.32653(14)
C26_4 C 0.1119(13) 0.5000(8) 0.33497(18)
H11_4 H 0.1171 0.4880 0.3508
C31_4 C 0.1860(14) 0.5309(9) 0.3205(2)
H16_4 H 0.2413 0.5410 0.3263
C36_4 C 0.1759(11) 0.5466(7) 0.29691(18)
H21_4 H 0.2245 0.5634 0.2867
C58_4 C 0.0339(17) 0.5086(14) 0.4453(3)
H28_4 H 0.0837 0.5507 0.4540
C63_4 C 0.0087(14) 0.4199(12) 0.4454(2)
H33_4 H 0.0396 0.4010 0.4553
C14_5 C 0.8202(7) 0.6393(4) 0.46954(12)
C19_5 C 0.8472(9) 0.6380(5) 0.49319(14)
C24_5 C 0.8334(12) 0.5547(6) 0.50163(18)
H9_5 H 0.8454 0.5495 0.5174
C29_5 C 0.8025(13) 0.4806(6) 0.4871(2)
H14_5 H 0.7924 0.4253 0.4929
C34_5 C 0.7868(11) 0.4907(6) 0.46357(18)
H19_5 H 0.7700 0.4421 0.4533
C39_5 C 0.8913(9) 0.7194(5) 0.50818(13)
C41_4 C 0.9472(9) 0.4421(5) 0.34152(13)
C43_4 C 0.8932(9) 0.3836(7) 0.41821(13)
C45_4 C 0.7735(9) 0.8237(5) 0.41512(13)
C47_4 C 0.8429(9) 0.5599(5) 0.24846(13)
C48_4 C 0.9148(9) 0.4753(7) 0.41698(14)
C50_4 C 0.7519(9) 0.8938(5) 0.41635(14)
C52_4 C 0.7728(9) 0.5815(5) 0.24969(14)
C53_4 C 0.9814(12) 0.5355(10) 0.4314(2)
C55_4 C 0.6853(12) 0.8874(7) 0.4019(2)
C57_4 C 0.7792(12) 0.6481(7) 0.2353(2)
H23_4 H 0.9930 0.5948 0.4323
H25_4 H 0.6737 0.9351 0.4010
H27_4 H 0.7315 0.6597 0.2344
C60_4 C 0.6328(17) 0.8080(10) 0.3880(3)
C62_4 C 0.8586(17) 0.7006(10) 0.2214(3)
H30_4 H 0.5830 0.8003 0.3793
H32_4 H 0.8663 0.7504 0.2127
C65_4 C 0.6580(14) 0.7445(8) 0.3879(2)
C67_4 C 0.9221(15) 0.6754(9) 0.2213(2)
H35_4 H 0.6271 0.6947 0.3780
H37_4 H 0.9719 0.7063 0.2114
C68_4 C 0.8638(7) 0.5061(6) 0.40176(12)
C70_4 C 0.8029(7) 0.9756(4) 0.43157(12)
C72_4 C 0.6910(8) 0.5305(5) 0.26491(12)
O9_5 O 0.9118(5) 0.7980(3) 0.49979(9)
O15_5 O 0.9144(7) 0.7142(4) 0.52884(10)
O31_4 O 0.8600(5) 0.9789(3) 0.44703(9)
O36_4 O 0.8798(6) 0.5844(5) 0.40497(11)
N4_4 N 0.7948(7) 0.5682(4) 0.45469(11)
N12_4 N 0.7250(9) 0.7496(5) 0.40123(13)
C14_6 C 0.8192(6) 0.1798(7) 0.46954(12)
C19_6 C 0.7909(7) 0.1528(9) 0.49319(14)
C24_6 C 0.7214(10) 0.1666(12) 0.50163(18)
H9_6 H 0.7042 0.1546 0.5174
C29_6 C 0.6782(11) 0.1975(13) 0.4871(2)
H14_6 H 0.6330 0.2076 0.4929
C34_6 C 0.7040(9) 0.2132(11) 0.46357(18)
H19_6 H 0.6722 0.2300 0.4533
C39_6 C 0.8282(7) 0.1087(9) 0.50818(13)
O9_6 O 0.8863(4) 0.0882(5) 0.49979(9)
O15_6 O 0.7999(6) 0.0856(7) 0.52884(10)
Eu9_6 Eu 0.86115(2) 0.98172(3) 0.534386(5)
O7_3 O -0.0000 0.0000 0.47761(13)
H7_3 H -0.0000 0.0000 0.5000
Eu18_3 Eu 0.19291(3) 0.3334 0.5834
O13_3 O 0.0882(3) 0.2020(3) 0.50021(9)
O19_3 O 0.0856(4) 0.2858(4) 0.47116(10)
O25_2 O 0.1809(3) 0.2932(3) 0.54017(9)
O34_3 O 0.1400(3) 0.0211(3) 0.55297(9)
O39_2 O 0.0379(3) 0.2511(5) 0.57164(11)
O49_2 O 0.1614(3) 0.1783(3) 0.57366(9)
O54_3 O 0.0000 -0.0000 0.52239(13)
O7_4 O -0.0000 1.0000 0.47761(13)
H7_4 H -0.0000 1.0000 0.5000
Eu15_2 Eu 0.14045(3) 0.80709(3) 0.5834
C16_5 C 0.1808(6) 0.8202(5) 0.53046(12)
C21_5 C 0.2091(7) 0.8472(5) 0.50681(14)
C26_5 C 0.2786(10) 0.8334(8) 0.49837(18)
H11_5 H 0.2958 0.8454 0.4826
C31_5 C 0.3218(11) 0.8025(9) 0.5129(2)
H16_5 H 0.3670 0.7924 0.5071
C36_5 C 0.2960(9) 0.7868(7) 0.53643(18)
H21_5 H 0.3278 0.7700 0.5467
C41_5 C 0.1718(7) 0.8913(5) 0.49182(13)
O11_3 O 0.1137(4) 0.9118(3) 0.50021(9)
O17_3 O 0.2001(6) 0.9144(4) 0.47116(10)
O23_2 O 0.1122(4) 0.8191(3) 0.54017(9)
O27_4 O 0.1524(3) 0.7789(4) 0.62650(9)
O42_2 O 0.2131(4) 0.9621(3) 0.57164(11)
O43_4 O 0.2954(3) 0.8798(4) 0.59503(11)
O48_2 O 0.0168(4) 0.8386(3) 0.57366(9)
O52_4 O 0.1719(3) 0.6835(4) 0.59301(9)
O54_4 O 0.0000 1.0000 0.52239(13)
N6_3 N 0.2265(6) 0.7948(5) 0.54531(11)
N9_4 N 0.1281(5) 0.8932(6) 0.62136(11)
N17_4 N 0.0583(5) 0.6420(7) 0.56790(13)
O7_5 O 1.0000 0.0000 0.47761(13)
H7_5 H 1.0000 0.0000 0.5000
C46_3 C 0.8237(5) 0.0503(7) 0.58488(13)
C51_3 C 0.8938(5) 0.1420(7) 0.58365(14)
C56_3 C 0.8874(7) 0.2022(10) 0.5981(2)
H26_3 H 0.9351 0.2615 0.5990
C61_3 C 0.8080(10) 0.1753(14) 0.6120(3)
H31_3 H 0.8003 0.2174 0.6207
C66_3 C 0.7445(8) 0.0866(12) 0.6121(2)
H36_3 H 0.6947 0.0677 0.6220
C71_3 C 0.9756(4) 0.1728(6) 0.56843(12)
O32_3 O 0.9789(3) 0.1190(4) 0.55297(9)
O54_5 O 1.0000 -0.0000 0.52239(13)
N13_2 N 0.7496(5) 0.0247(7) 0.59877(13)
O7_6 O 1.0000 1.0000 0.47761(13)
H7_6 H 1.0000 1.0000 0.5000
Eu12_3 Eu 0.6666 0.85955(3) 0.5834
C13_3 C 0.6393(4) 0.8192(6) 0.53046(12)
C18_3 C 0.6380(5) 0.7909(7) 0.50681(14)
C23_3 C 0.5547(6) 0.7214(10) 0.49837(18)
H8_3 H 0.5495 0.7042 0.4826
C28_3 C 0.4806(6) 0.6782(11) 0.5129(2)
H13_3 H 0.4253 0.6330 0.5071
C33_3 C 0.4907(6) 0.7040(9) 0.53643(18)
H18_3 H 0.4421 0.6722 0.5467
C38_3 C 0.7194(5) 0.8282(7) 0.49182(13)
C47_5 C 0.9497(7) 0.7735(5) 0.58488(13)
C52_5 C 0.8580(7) 0.7519(5) 0.58365(14)
C57_5 C 0.7978(10) 0.6853(7) 0.5981(2)
H27_5 H 0.7385 0.6737 0.5990
C62_5 C 0.8247(14) 0.6328(10) 0.6120(3)
H32_5 H 0.7826 0.5830 0.6207
C67_5 C 0.9134(12) 0.6580(9) 0.6121(2)
H37_5 H 0.9323 0.6271 0.6220
C72_5 C 0.8272(6) 0.8029(5) 0.56843(12)
O8_3 O 0.7980(3) 0.8863(4) 0.50021(9)
O14_3 O 0.7142(4) 0.7999(6) 0.47116(10)
O20_2 O 0.7068(3) 0.8878(4) 0.54017(9)
O33_3 O 0.8810(4) 0.8600(3) 0.55297(9)
O40_2 O 0.7489(5) 0.7869(4) 0.57164(11)
O47_2 O 0.8217(3) 0.9832(4) 0.57366(9)
O54_6 O 1.0000 1.0000 0.52239(13)
N3_2 N 0.5682(4) 0.7735(6) 0.54531(11)
N14_3 N 0.9753(7) 0.7250(5) 0.59877(13)
C16_6 C 0.1798(5) 0.3607(8) 0.53046(12)
C21_6 C 0.1528(5) 0.3620(9) 0.50681(14)
C26_6 C 0.1666(8) 0.4453(13) 0.49837(18)
H11_6 H 0.1546 0.4505 0.4826
C31_6 C 0.1975(9) 0.5194(14) 0.5129(2)
H16_6 H 0.2076 0.5747 0.5071
C36_6 C 0.2132(7) 0.5093(11) 0.53643(18)
H21_6 H 0.2300 0.5579 0.5467
C41_6 C 0.1087(5) 0.2806(9) 0.49182(13)
C47_6 C 0.2265(5) 0.1763(9) 0.58488(13)
C52_6 C 0.2481(5) 0.1062(9) 0.58365(14)
C57_6 C 0.3147(7) 0.1126(12) 0.5981(2)
H27_6 H 0.3263 0.0649 0.5990
C62_6 C 0.3672(10) 0.1920(17) 0.6120(3)
H32_6 H 0.4170 0.1997 0.6207
C67_6 C 0.3420(9) 0.2555(15) 0.6121(2)
H37_6 H 0.3729 0.3053 0.6220
C72_6 C 0.1971(5) 0.0244(8) 0.56843(12)
O27_5 O 0.2211(4) 0.3735(5) 0.62650(9)
O43_5 O 0.1202(4) 0.4156(5) 0.59503(11)
O52_5 O 0.3165(4) 0.4884(5) 0.59301(9)
N6_4 N 0.2052(5) 0.4318(8) 0.54531(11)
N9_5 N 0.1068(6) 0.2349(8) 0.62136(11)
N14_4 N 0.2750(5) 0.2504(9) 0.59877(13)
N17_5 N 0.3580(7) 0.4163(9) 0.56790(13)
O27_6 O 0.6265(5) 0.8476(3) 0.62650(9)
O43_6 O 0.5844(5) 0.7046(3) 0.59503(11)
O52_6 O 0.5116(5) 0.8281(3) 0.59301(9)
N9_6 N 0.7651(8) 0.8719(5) 0.62136(11)
N17_6 N 0.5837(9) 0.9417(5) 0.56790(13)
Eu14_3 Eu 0.47379(3) 0.0000 0.7500
C17_3 C 0.5142(6) 0.0273(4) 0.69712(12)
C22_3 C 0.5425(7) 0.0286(5) 0.67347(14)
C27_3 C 0.6120(10) 0.1119(6) 0.66503(18)
H12_3 H 0.6292 0.1171 0.6492
C32_3 C 0.6552(11) 0.1860(6) 0.6795(2)
H16_7 H 0.1257 0.0337 0.6596
H17_3 H 0.7004 0.2413 0.6737
C37_3 C 0.6294(9) 0.1759(6) 0.70309(18)
H22_3 H 0.6612 0.2245 0.7133
N7_3 N 0.5599(6) 0.0984(4) 0.71197(11)
Eu1_3 Eu 0.19449(2) 0.54610(2) 0.701052(5)
Eu2_3 Eu -0.0000 0.47375(3) 0.7500
C6_3 C 0.0528(5) 0.5579(5) 0.65848(13)
C7_3 C 0.1571(5) 0.4401(5) 0.75154(13)
C8_3 C 0.2272(5) 0.4185(5) 0.75031(14)
C9_3 C 0.2208(7) 0.3519(7) 0.7647(2)
H4_3 H 0.2685 0.3403 0.7656
C10_3 C 0.1414(10) 0.2994(10) 0.7786(3)
H5_3 H 0.1337 0.2496 0.7873
C11_3 C 0.0779(8) 0.3246(9) 0.7787(2)
H6_3 H 0.0281 0.2937 0.7886
C12_3 C 0.3090(4) 0.4695(5) 0.73509(12)
O1_3 O 0.1314(3) 0.5784(3) 0.66687(9)
O2_3 O 0.0476(4) 0.5810(4) 0.63782(10)
O3_3 O 0.0402(3) 0.4857(3) 0.70683(9)
O4_3 O 0.3123(3) 0.5266(3) 0.71963(9)
O5_3 O 0.3713(3) 0.4535(4) 0.73830(11)
O6_3 O 0.1551(3) 0.5052(3) 0.74032(9)
O7_7 O 0.3334 0.6666 0.68905(13)
H7_7 H 0.3334 0.6666 0.6666
N2_3 N 0.0830(5) 0.3916(5) 0.76543(13)
Eu3_3 Eu 0.31505(3) 0.52782(2) 0.632281(5)
Eu4_3 Eu 0.21277(2) 0.68495(3) 0.632281(5)
Eu5_3 Eu 0.35162(3) 0.80551(2) 0.701052(5)
Eu6_3 Eu 0.47218(2) 0.78723(2) 0.632281(5)
Eu7_3 Eu 0.45390(2) 0.64838(3) 0.701052(5)
Eu13_3 Eu 0.52625(3) 0.52621(3) 0.7500
Eu14_4 Eu 0.47379(3) 1.0000 0.7500
C13_4 C 0.1525(6) 0.3060(4) 0.63621(12)
C14_7 C 0.0273(4) 0.5142(6) 0.80288(12)
C15_3 C 0.5132(5) 0.4858(6) 0.69712(12)
C16_7 C 0.1535(5) 0.8475(6) 0.63621(12)
C18_4 C 0.1242(7) 0.3047(5) 0.65986(14)
C19_7 C 0.0286(5) 0.5425(7) 0.82653(14)
C20_3 C 0.4862(5) 0.4575(7) 0.67347(14)
C21_7 C 0.1805(5) 0.8758(7) 0.65986(14)
C23_4 C 0.0547(10) 0.2214(6) 0.66830(18)
C24_7 C 0.1119(6) 0.6120(10) 0.83497(18)
C25_3 C 0.5000(8) 0.3880(10) 0.66503(18)
C26_7 C 0.1667(8) 0.9453(10) 0.66830(18)
H8_4 H 0.0375 0.2162 0.6841
H9_7 H 0.1171 0.6292 0.8508
H10_3 H 0.4880 0.3708 0.6492
H11_7 H 0.1787 0.9625 0.6841
C28_4 C 0.0115(11) 0.1473(6) 0.6538(2)
C29_7 C 0.1860(6) 0.6552(11) 0.8205(2)
C30_3 C 0.5309(9) 0.3448(11) 0.6795(2)
C31_7 C 0.1358(9) 0.9885(11) 0.6538(2)
H14_7 H 0.2413 0.7004 0.8263
H15_3 H 0.5410 0.2996 0.6737
C33_4 C 0.0373(9) 0.1574(6) 0.63024(18)
C34_7 C 0.1759(6) 0.6294(9) 0.79691(18)
C35_3 C 0.5466(7) 0.3706(9) 0.70309(18)
C36_7 C 0.1201(7) 0.9627(9) 0.63024(18)
H18_4 H 0.0055 0.1088 0.6200
H19_7 H 0.2245 0.6612 0.7867
H20_3 H 0.5634 0.3388 0.7133
H21_7 H 0.1033 0.9945 0.6200
C38_4 C 0.1615(7) 0.3861(5) 0.67485(13)
C40_3 C 0.4421(5) 0.4948(7) 0.65848(13)
C41_7 C 0.2246(5) 0.8385(7) 0.67485(13)
C42_3 C 0.5052(7) 0.9472(5) 0.65848(13)
C43_5 C 0.2831(7) 0.8429(5) 0.75154(13)
C46_4 C 0.3836(7) 0.4904(5) 0.58179(13)
C47_7 C 0.1068(5) 0.6164(7) 0.58179(13)
C48_5 C 0.1914(7) 0.7728(5) 0.75031(14)
C51_4 C 0.4753(7) 0.5605(5) 0.58302(14)
C52_7 C 0.0852(5) 0.5247(7) 0.58302(14)
C53_5 C 0.1312(10) 0.7792(7) 0.7647(2)
C56_4 C 0.5355(10) 0.5541(7) 0.5686(2)
C57_7 C 0.0186(7) 0.4645(10) 0.5686(2)
H23_5 H 0.0719 0.7315 0.7656
H26_4 H 0.5948 0.6018 0.5677
H27_7 H 0.0070 0.4052 0.5677
C58_5 C 0.1581(14) 0.8586(10) 0.7786(3)
C61_4 C 0.5086(14) 0.4747(10) 0.5547(3)
H28_5 H 0.1160 0.8663 0.7873
H31_4 H 0.5507 0.4670 0.5460
C63_5 C 0.2468(12) 0.9221(8) 0.7787(2)
C66_4 C 0.4199(12) 0.4112(8) 0.5546(2)
H33_5 H 0.2657 0.9719 0.7886
H36_4 H 0.4010 0.3614 0.5447
C68_5 C 0.1606(6) 0.6910(4) 0.73509(12)
C71_4 C 0.5061(6) 0.6423(4) 0.59824(12)
C72_7 C 0.1362(5) 0.4939(6) 0.59824(12)
O8_4 O 0.2196(4) 0.4647(3) 0.66646(9)
O10_3 O 0.4216(3) 0.5529(4) 0.66687(9)
O11_4 O 0.2451(3) 0.7804(4) 0.66646(9)
O12_3 O 0.4471(4) 0.8686(3) 0.66687(9)
O13_4 O 0.5353(3) 0.7549(3) 0.66646(9)
O14_4 O 0.1332(6) 0.3809(4) 0.69551(10)
O16_3 O 0.4190(4) 0.4665(6) 0.63782(10)
O17_4 O 0.2477(4) 0.8668(6) 0.69551(10)
O18_3 O 0.5335(6) 0.9524(4) 0.63782(10)
O19_4 O 0.6191(4) 0.7523(4) 0.69551(10)
O22_3 O 0.5143(3) 0.5544(4) 0.70683(9)
O24_3 O 0.4456(4) 0.9598(3) 0.70683(9)
O26_3 O 0.5544(4) 0.5143(3) 0.79317(9)
O29_3 O 0.2144(4) 0.6877(3) 0.71963(9)
O32_4 O 0.4523(4) 0.6456(3) 0.61370(9)
O33_4 O 0.1933(3) 0.5477(4) 0.61370(9)
O34_4 O 0.3544(3) 0.8067(3) 0.61370(9)
O35_3 O 0.4734(3) 0.7856(4) 0.71963(9)
O36_5 O 0.0823(5) 0.6287(3) 0.73830(11)
O41_3 O 0.4535(4) 0.3713(3) 0.76170(11)
O44_3 O 0.3502(4) 0.8449(3) 0.74032(9)
O50_3 O 0.4948(3) 0.6498(4) 0.74032(9)
O51_3 O 0.6498(4) 0.4948(3) 0.75968(9)
O54_7 O 0.3333 0.6667 0.64428(13)
N4_5 N 0.0984(4) 0.5599(6) 0.78803(11)
N5_3 N 0.5386(5) 0.4401(6) 0.71197(11)
N8_3 N 0.4401(6) 0.5386(5) 0.78803(11)
N10_3 N 0.3087(7) 0.9170(5) 0.76543(13)
N15_3 N 0.6084(5) 0.6913(7) 0.76543(13)
N16_3 N 0.6913(7) 0.6084(5) 0.73457(13)
Eu2_4 Eu 1.0000 0.47375(3) 0.7500
C1_3 C 0.9727(4) 0.4868(5) 0.69712(12)
C2_3 C 0.9714(5) 0.5138(5) 0.67347(14)
C3_3 C 0.8881(6) 0.5000(8) 0.66503(18)
H1_3 H 0.8829 0.5120 0.6492
C4_3 C 0.8140(6) 0.4691(9) 0.6795(2)
H2_3 H 0.7587 0.4590 0.6737
C5_3 C 0.8241(6) 0.4534(7) 0.70309(18)
H3_3 H 0.7755 0.4366 0.7133
N1_3 N 0.9016(4) 0.4614(5) 0.71197(11)
Eu8_3 Eu 0.80551(2) 0.35162(3) 0.798948(5)
Eu9_7 Eu 0.78723(2) 0.47218(2) 0.867719(5)
Eu10_3 Eu 0.64838(3) 0.45390(2) 0.798948(5)
Eu11_3 Eu 0.54610(2) 0.19449(2) 0.798948(5)
H13_4 H 0.9663 0.0920 0.6596
C39_7 C 0.9472(5) 0.5052(7) 0.84152(13)
C44_3 C 0.7169(7) 0.5599(5) 0.74846(13)
C45_5 C 0.8429(5) 0.2831(7) 0.74846(13)
C49_3 C 0.8086(7) 0.5815(5) 0.74969(14)
C50_5 C 0.7728(5) 0.1914(7) 0.74969(14)
C54_3 C 0.8688(10) 0.6481(7) 0.7353(2)
C55_5 C 0.7792(7) 0.1312(10) 0.7353(2)
H24_3 H 0.9281 0.6597 0.7344
H25_5 H 0.7315 0.0719 0.7344
C59_3 C 0.8419(14) 0.7006(10) 0.7214(3)
C60_5 C 0.8586(10) 0.1581(14) 0.7214(3)
C62_7 C 0.9661(10) 0.4914(14) 0.5547(3)
H29_3 H 0.8840 0.7504 0.7127
H30_5 H 0.8663 0.1160 0.7127
H32_7 H 0.9163 0.4493 0.5460
C64_3 C 0.7532(12) 0.6754(9) 0.7213(2)
C65_5 C 0.9221(8) 0.2468(12) 0.7213(2)
C67_7 C 0.9913(9) 0.5801(12) 0.5546(2)
H34_3 H 0.7343 0.7063 0.7114
H35_5 H 0.9719 0.2657 0.7114
H37_7 H 0.9604 0.5990 0.5447
C69_3 C 0.8394(6) 0.5305(5) 0.76491(12)
C70_5 C 0.6910(4) 0.1606(6) 0.76491(12)
O9_7 O 0.8686(3) 0.4471(4) 0.83313(9)
O15_7 O 0.9524(4) 0.5335(6) 0.86218(10)
O21_3 O 0.9598(3) 0.4456(4) 0.79317(9)
O28_3 O 0.4857(3) 0.0402(3) 0.79317(9)
O30_3 O 0.7856(4) 0.4734(3) 0.78037(9)
O31_5 O 0.6877(3) 0.2144(4) 0.78037(9)
O37_3 O 0.9177(5) 0.5465(4) 0.76170(11)
O38_3 O 0.6287(3) 0.0823(5) 0.76170(11)
O46_3 O 0.8449(3) 0.3502(4) 0.75968(9)
O53_3 O 0.5052(3) 0.1551(3) 0.75968(9)
N12_5 N 0.9170(5) 0.3087(7) 0.73457(13)
Eu9_8 Eu 0.68495(3) 0.21277(2) 0.867719(5)
C39_8 C 0.5579(9) 0.0528(5) 0.84152(13)
C45_6 C 0.4401(9) 0.1571(5) 0.74846(13)
C50_6 C 0.4185(9) 0.2272(5) 0.74969(14)
C55_6 C 0.3519(12) 0.2208(7) 0.7353(2)
H25_6 H 0.3403 0.2685 0.7344
C60_6 C 0.2994(17) 0.1414(10) 0.7214(3)
C62_8 C 0.5253(17) 0.0339(10) 0.5547(3)
H30_6 H 0.2496 0.1337 0.7127
H32_8 H 0.5330 0.0837 0.5460
C65_6 C 0.3246(14) 0.0779(8) 0.7213(2)
C67_8 C 0.5888(15) 0.0087(9) 0.5546(2)
H35_6 H 0.2937 0.0281 0.7114
H37_8 H 0.6386 0.0396 0.5447
C70_6 C 0.4695(7) 0.3090(4) 0.76491(12)
O9_8 O 0.5784(5) 0.1314(3) 0.83313(9)
O15_8 O 0.5810(7) 0.0476(4) 0.86218(10)
O31_6 O 0.5266(5) 0.3123(3) 0.78037(9)
N12_6 N 0.3916(9) 0.0830(5) 0.73457(13)
C14_8 C 0.4868(7) 0.9727(4) 0.80288(12)
C16_8 C 0.6940(8) 0.8465(5) 0.63621(12)
C19_8 C 0.5138(9) 0.9714(5) 0.82653(14)
C21_8 C 0.6953(9) 0.8195(5) 0.65986(14)
C24_8 C 0.5000(12) 0.8881(6) 0.83497(18)
C26_8 C 0.7786(13) 0.8333(8) 0.66830(18)
H9_8 H 0.5120 0.8829 0.8508
H11_8 H 0.7838 0.8213 0.6841
C29_8 C 0.4691(13) 0.8140(6) 0.8205(2)
C31_8 C 0.8527(14) 0.8642(9) 0.6538(2)
H14_8 H 0.4590 0.7587 0.8263
H16_8 H 0.9080 0.8743 0.6596
C34_8 C 0.4534(11) 0.8241(6) 0.79691(18)
C36_8 C 0.8426(11) 0.8799(7) 0.63024(18)
H19_8 H 0.4366 0.7755 0.7867
H21_8 H 0.8912 0.8967 0.6200
C41_8 C 0.6139(9) 0.7754(5) 0.67485(13)
C43_6 C 0.5599(9) 0.7169(7) 0.75154(13)
C47_8 C 0.5096(9) 0.8932(5) 0.58179(13)
C48_6 C 0.5815(9) 0.8086(7) 0.75031(14)
C52_8 C 0.4395(9) 0.9148(5) 0.58302(14)
C53_6 C 0.6481(12) 0.8688(10) 0.7647(2)
C57_8 C 0.4459(12) 0.9814(7) 0.5686(2)
H23_6 H 0.6597 0.9281 0.7656
H27_8 H 0.3982 0.9930 0.5677
C58_6 C 0.7006(17) 0.8419(14) 0.7786(3)
H28_6 H 0.7504 0.8840 0.7873
C63_6 C 0.6754(14) 0.7532(12) 0.7787(2)
H33_6 H 0.7063 0.7343 0.7886
C68_6 C 0.5305(7) 0.8394(6) 0.73509(12)
C72_8 C 0.3577(8) 0.8638(5) 0.59824(12)
O36_6 O 0.5465(6) 0.9177(5) 0.73830(11)
N4_6 N 0.4614(7) 0.9016(4) 0.78803(11)
Eu9_9 Eu 0.52782(2) 0.31505(3) 0.867719(5)
C14_9 C 0.4858(6) 0.5132(7) 0.80288(12)
C19_9 C 0.4575(7) 0.4862(9) 0.82653(14)
C24_9 C 0.3880(10) 0.5000(12) 0.83497(18)
H9_9 H 0.3708 0.4880 0.8508
C29_9 C 0.3448(11) 0.5309(13) 0.8205(2)
H14_9 H 0.2996 0.5410 0.8263
C34_9 C 0.3706(9) 0.5466(11) 0.79691(18)
H19_9 H 0.3388 0.5634 0.7867
C39_9 C 0.4948(7) 0.4421(9) 0.84152(13)
O9_9 O 0.5529(4) 0.4216(5) 0.83313(9)
O15_9 O 0.4665(6) 0.4190(7) 0.86218(10)
H16_9 H 0.0337 0.1257 0.8404
O7_8 O 0.6666 0.3334 0.81095(13)
H7_8 H 0.6666 0.3334 0.8334
Eu12_4 Eu 0.3333 0.19288(3) 0.9167
Eu15_3 Eu 0.80712(3) 0.14042(3) 0.9167
Eu18_4 Eu 0.85958(3) 0.6667 0.9167
C13_5 C 0.3060(4) 0.1525(6) 0.86379(12)
C16_9 C 0.8475(6) 0.1535(5) 0.86379(12)
C18_5 C 0.3047(5) 0.1242(7) 0.84014(14)
C21_9 C 0.8758(7) 0.1805(5) 0.84014(14)
C23_5 C 0.2214(6) 0.0547(10) 0.83170(18)
C26_9 C 0.9453(10) 0.1667(8) 0.83170(18)
H8_5 H 0.2162 0.0375 0.8159
H11_9 H 0.9625 0.1787 0.8159
C28_5 C 0.1473(6) 0.0115(11) 0.8462(2)
C31_9 C 0.9885(11) 0.1358(9) 0.8462(2)
C33_5 C 0.1574(6) 0.0373(9) 0.86976(18)
C36_9 C 0.9627(9) 0.1201(7) 0.86976(18)
H18_5 H 0.1088 0.0055 0.8800
H21_9 H 0.9945 0.1033 0.8800
C38_5 C 0.3861(5) 0.1615(7) 0.82515(13)
C41_9 C 0.8385(7) 0.2246(5) 0.82515(13)
C46_5 C 0.4904(5) 0.3836(7) 0.91821(13)
C47_9 C 0.6164(7) 0.1068(5) 0.91821(13)
C51_5 C 0.5605(5) 0.4753(7) 0.91698(14)
C52_9 C 0.5247(7) 0.0852(5) 0.91698(14)
C56_5 C 0.5541(7) 0.5355(10) 0.9314(2)
C57_9 C 0.4645(10) 0.0186(7) 0.9314(2)
H26_5 H 0.6018 0.5948 0.9323
H27_9 H 0.4052 0.0070 0.9323
C61_5 C 0.4747(10) 0.5086(14) 0.9453(3)
H31_5 H 0.4670 0.5507 0.9540
C66_5 C 0.4112(8) 0.4199(12) 0.9454(2)
H36_5 H 0.3614 0.4010 0.9553
C71_5 C 0.6423(4) 0.5061(6) 0.90176(12)
C72_9 C 0.4939(6) 0.1362(5) 0.90176(12)
O8_5 O 0.4647(3) 0.2196(4) 0.83354(9)
O11_5 O 0.7804(4) 0.2451(3) 0.83354(9)
O13_5 O 0.7549(3) 0.5353(3) 0.83354(9)
O14_5 O 0.3809(4) 0.1332(6) 0.80449(10)
O17_5 O 0.8668(6) 0.2477(4) 0.80449(10)
O19_5 O 0.7523(4) 0.6191(4) 0.80449(10)
O20_3 O 0.3735(3) 0.2211(4) 0.87350(9)
O23_3 O 0.7789(4) 0.1524(3) 0.87350(9)
O25_3 O 0.8476(3) 0.6265(3) 0.87350(9)
O27_7 O 0.8191(3) 0.1122(4) 0.95983(9)
O32_5 O 0.6456(3) 0.4523(4) 0.88630(9)
O33_5 O 0.5477(4) 0.1933(3) 0.88630(9)
O34_5 O 0.8067(3) 0.3544(3) 0.88630(9)
O39_3 O 0.7046(3) 0.5844(5) 0.90497(11)
O40_3 O 0.4156(5) 0.1202(4) 0.90497(11)
O42_3 O 0.8798(4) 0.2954(3) 0.90497(11)
O43_7 O 0.9621(3) 0.2131(4) 0.92836(11)
O47_3 O 0.4884(3) 0.3165(4) 0.90699(9)
O48_3 O 0.6835(4) 0.1719(3) 0.90699(9)
O49_3 O 0.8281(3) 0.5116(3) 0.90699(9)
O52_7 O 0.8386(3) 0.0168(4) 0.92634(9)
O54_8 O 0.6667 0.3333 0.85572(13)
N3_3 N 0.2349(4) 0.1068(6) 0.87864(11)
N6_5 N 0.8932(6) 0.1281(5) 0.87864(11)
N9_7 N 0.7948(5) 0.2265(6) 0.95469(11)
N13_3 N 0.4163(5) 0.3580(7) 0.93210(13)
N14_5 N 0.6420(7) 0.0583(5) 0.93210(13)
H13_5 H 0.0920 0.9663 0.8404
C62_9 C 0.4914(14) 0.9661(10) 0.9453(3)
H32_9 H 0.4493 0.9163 0.9540
C67_9 C 0.5801(12) 0.9913(9) 0.9454(2)
H37_9 H 0.5990 0.9604 0.9553
N17_7 N 0.7250(5) 0.9753(7) 0.90123(13)
C62_10 C 0.0339(10) 0.5253(17) 0.9453(3)
H32_10 H 0.0837 0.5330 0.9540
C67_10 C 0.0087(9) 0.5888(15) 0.9454(2)
H37_10 H 0.0396 0.6386 0.9553
N17_8 N 0.0247(7) 0.7496(9) 0.90123(13)
C16_10 C 0.8465(5) 0.6940(8) 0.86379(12)
C21_10 C 0.8195(5) 0.6953(9) 0.84014(14)
C26_10 C 0.8333(8) 0.7786(13) 0.83170(18)
H11_10 H 0.8213 0.7838 0.8159
C31_10 C 0.8642(9) 0.8527(14) 0.8462(2)
H16_10 H 0.8743 0.9080 0.8404
C36_10 C 0.8799(7) 0.8426(11) 0.86976(18)
H21_10 H 0.8967 0.8912 0.8800
C41_10 C 0.7754(5) 0.6139(9) 0.82515(13)
C47_10 C 0.8932(5) 0.5096(9) 0.91821(13)
C52_10 C 0.9148(5) 0.4395(9) 0.91698(14)
C57_10 C 0.9814(7) 0.4459(12) 0.9314(2)
H27_10 H 0.9930 0.3982 0.9323
C72_10 C 0.8638(5) 0.3577(8) 0.90176(12)
O27_8 O 0.8878(4) 0.7068(5) 0.95983(9)
O43_8 O 0.7869(4) 0.7489(5) 0.92836(11)
O52_8 O 0.9832(4) 0.8217(5) 0.92634(9)
N6_6 N 0.8719(5) 0.7651(8) 0.87864(11)
N9_8 N 0.7735(6) 0.5682(8) 0.95469(11)
N14_6 N 0.9417(5) 0.5837(9) 0.93210(13)
O27_9 O 0.2932(5) 0.1809(3) 0.95983(9)
O43_9 O 0.2511(5) 0.0379(3) 0.92836(11)
O52_9 O 0.1783(5) 0.1614(3) 0.92634(9)
N9_9 N 0.4318(8) 0.2052(5) 0.95469(11)
N17_9 N 0.2504(9) 0.2750(5) 0.90123(13)
O7_9 O 0.0000 -0.0000 0.02239(13)
O19_6 O 0.2858(4) 0.0856(4) 0.02884(10)
H7_9 H 0.0000 -0.0000 1.0000
O13_6 O 0.2020(3) 0.0882(3) 0.99979(9)
O34_6 O 0.0211(3) 0.1400(3) 0.94703(9)
O54_9 O -0.0000 0.0000 0.97761(13)
O7_10 O 0.0000 1.0000 0.02239(13)
H7_10 H 0.0000 1.0000 1.0000
C46_6 C 0.0503(7) 0.8237(5) 0.91512(13)
C51_6 C 0.1420(7) 0.8938(5) 0.91635(14)
C56_6 C 0.2022(10) 0.8874(7) 0.9019(2)
H26_6 H 0.2615 0.9351 0.9010
C61_6 C 0.1753(14) 0.8080(10) 0.8880(3)
H31_6 H 0.2174 0.8003 0.8793
C66_6 C 0.0866(12) 0.7445(8) 0.8879(2)
H36_6 H 0.0677 0.6947 0.8780
C71_6 C 0.1728(6) 0.9756(4) 0.93157(12)
O32_6 O 0.1190(4) 0.9789(3) 0.94703(9)
O54_10 O -0.0000 1.0000 0.97761(13)
O7_11 O 1.0000 -0.0000 0.02239(13)
C26_11 C 0.8334(8) 0.2786(10) 0.00163(18)
H11_11 H 0.8454 0.2958 0.0174
C41_11 C 0.8913(5) 0.1718(7) 0.00818(13)
O17_6 O 0.9144(4) 0.2001(6) 0.02884(10)
H7_11 H 1.0000 -0.0000 1.0000
C16_11 C 0.8202(5) 0.1808(6) 0.96954(12)
C21_11 C 0.8472(5) 0.2091(7) 0.99319(14)
C31_11 C 0.8025(9) 0.3218(11) 0.9871(2)
H16_11 H 0.7924 0.3670 0.9929
C36_11 C 0.7868(7) 0.2960(9) 0.96357(18)
H21_11 H 0.7700 0.3278 0.9533
O11_6 O 0.9118(3) 0.1137(4) 0.99979(9)
O54_11 O 1.0000 0.0000 0.97761(13)
O7_12 O 1.0000 1.0000 0.02239(13)
C23_6 C 0.7214(10) 0.5547(6) 0.00163(18)
H8_6 H 0.7042 0.5495 0.0174
C38_6 C 0.8282(7) 0.7194(5) 0.00818(13)
O14_6 O 0.7999(6) 0.7142(4) 0.02884(10)
H7_12 H 1.0000 1.0000 1.0000
C13_6 C 0.8192(6) 0.6393(4) 0.96954(12)
C18_6 C 0.7909(7) 0.6380(5) 0.99319(14)
C28_6 C 0.6782(11) 0.4806(6) 0.9871(2)
H13_6 H 0.6330 0.4253 0.9929
C33_6 C 0.7040(9) 0.4907(6) 0.96357(18)
H18_6 H 0.6722 0.4421 0.9533
C47_11 C 0.7735(5) 0.9497(7) 0.91512(13)
C52_11 C 0.7519(5) 0.8580(7) 0.91635(14)
C57_11 C 0.6853(7) 0.7978(10) 0.9019(2)
H27_11 H 0.6737 0.7385 0.9010
C62_11 C 0.6328(10) 0.8247(14) 0.8880(3)
H32_11 H 0.5830 0.7826 0.8793
C67_11 C 0.6580(9) 0.9134(12) 0.8879(2)
H37_11 H 0.6271 0.9323 0.8780
C72_11 C 0.8029(5) 0.8272(6) 0.93157(12)
O8_6 O 0.8863(4) 0.7980(3) 0.99979(9)
O33_6 O 0.8600(3) 0.8810(4) 0.94703(9)
O54_12 O 1.0000 1.0000 0.97761(13)
C26_12 C 0.4453(13) 0.1666(8) 0.00163(18)
H11_12 H 0.4505 0.1546 0.0174
C41_12 C 0.2806(9) 0.1087(5) 0.00818(13)
C16_12 C 0.3607(8) 0.1798(5) 0.96954(12)
C21_12 C 0.3620(9) 0.1528(5) 0.99319(14)
C31_12 C 0.5194(14) 0.1975(9) 0.9871(2)
H16_12 H 0.5747 0.2076 0.9929
C36_12 C 0.5093(11) 0.2132(7) 0.96357(18)
H21_12 H 0.5579 0.2300 0.9533
C47_12 C 0.1763(9) 0.2265(5) 0.91512(13)
C52_12 C 0.1062(9) 0.2481(5) 0.91635(14)
C57_12 C 0.1126(12) 0.3147(7) 0.9019(2)
H27_12 H 0.0649 0.3263 0.9010
C62_12 C 0.1920(17) 0.3672(10) 0.8880(3)
H32_12 H 0.1997 0.4170 0.8793
C67_12 C 0.2555(15) 0.3420(9) 0.8879(2)
H37_12 H 0.3053 0.3729 0.8780
C72_12 C 0.0244(8) 0.1971(5) 0.93157(12)
H7_13 H -0.0000 0.0000 0.0000
H7_14 H -0.0000 1.0000 0.0000
H7_15 H 1.0000 0.0000 0.0000
H7_16 H 1.0000 1.0000 0.0000
loop_
_geom_bond_atom_site_label_1
_geom_bond_atom_site_label_2
_geom_bond_site_symmetry_1
_geom_bond_site_symmetry_2
Eu1 O1 1_555 1_555
Eu2 O3 1_555 1_555
C1 C2 1_555 1_555
C2 C3 1_555 1_555
C3 H1 1_555 1_555
C4 C3 1_555 1_555
H2 C4 1_555 1_555
C5 C4 1_555 1_555
H3 C5 1_555 1_555
C6 C2 1_555 1_555
C7 C8 1_555 1_555
C8 C9 1_555 1_555
C9 H4 1_555 1_555
C12 C8 1_555 1_555
O1 C6 1_555 1_555
O2 C6 1_555 1_555
O3 Eu1 1_555 1_555
O4 Eu1 1_555 1_555
O5 C12 1_555 1_555
O6 Eu1 1_555 1_555
O7 Eu1 1_555 1_555
H7 O7 1_555 1_555
N1 Eu2 1_555 1_555
N2 Eu2 1_555 1_555
Eu3 O8 1_555 1_555
Eu4 O1 1_555 1_555
Eu5 O7 1_555 1_555
Eu6 O12 1_555 1_555
Eu7 O4 1_555 1_555
Eu8 O9 1_555 1_555
Eu12 O20 1_555 1_555
Eu13 O5 1_555 1_555
Eu14 O24 1_555 1_555
Eu15 O23 1_555 1_555
Eu18_2 O25 1_555 1_555
C14 C19 1_555 1_555
C15 C20 1_555 1_555
C16 C21 1_555 1_555
C17 C22 1_555 1_555
C20 C25 1_555 1_555
C21 C26 1_555 1_555
C22 C27 1_555 1_555
C25 H10 1_555 1_555
C26 H11 1_555 1_555
C27 H12 1_555 1_555
C30 C25 1_555 1_555
C31 C26 1_555 1_555
C32 C27 1_555 1_555
H14 C29 1_555 1_555
H16 C31 1_555 1_555
C34 C29 1_555 1_555
C35 C30 1_555 1_555
C36 C31 1_555 1_555
C37 C32 1_555 1_555
H19 C34 1_555 1_555
H20 C35 1_555 1_555
H21 C36 1_555 1_555
H22 C37 1_555 1_555
C40 C20 1_555 1_555
C41 C21 1_555 1_555
C42 C22 1_555 1_555
C43 C48 1_555 1_555
C44 C49 1_555 1_555
C46 C51 1_555 1_555
C47 C52 1_555 1_555
C48 C53 1_555 1_555
C49 C54 1_555 1_555
C51 C56 1_555 1_555
C52 C57 1_555 1_555
C53 H23 1_555 1_555
C54 H24 1_555 1_555
C56 H26 1_555 1_555
C57 H27 1_555 1_555
C58 C53 1_555 1_555
C59 C54 1_555 1_555
C61 C56 1_555 1_555
C62 C57 1_555 1_555
H28 C58 1_555 1_555
H29 C59 1_555 1_555
H31 C61 1_555 1_555
H32 C62 1_555 1_555
C63 C58 1_555 1_555
C64 C59 1_555 1_555
C66 C61 1_555 1_555
C67 C62 1_555 1_555
H33 C63 1_555 1_555
H34 C64 1_555 1_555
H36 C66 1_555 1_555
H37 C67 1_555 1_555
C68 C48 1_555 1_555
C69 C49 1_555 1_555
C71 C51 1_555 1_555
C72 C52 1_555 1_555
O8 Eu1 1_555 1_555
O10 Eu3 1_555 1_555
O11 Eu4 1_555 1_555
O12 Eu5 1_555 1_555
O13 Eu6 1_555 1_555
O14 Eu1 1_555 1_555
O16 Eu3 1_555 1_555
O17 Eu5 1_555 1_555
O18 Eu6 1_555 1_555
O19 Eu7 1_555 1_555
O20 Eu3 1_555 1_555
O21 Eu2 1_555 1_555
O22 Eu7 1_555 1_555
O23 Eu4 1_555 1_555
O24 Eu5 1_555 1_555
O25 Eu6 1_555 1_555
O26 Eu13 1_555 1_555
O27 Eu15 1_555 1_555
O29 Eu1 1_555 1_555
O30 Eu8 1_555 1_555
O32 Eu3 1_555 1_555
O33 Eu3 1_555 1_555
O34 Eu4 1_555 1_555
O35 Eu5 1_555 1_555
O36 Eu2 1_555 1_555
O37 Eu2 1_555 1_555
O39 Eu18_2 1_555 1_555
O40 Eu12 1_555 1_555
O41 Eu13 1_555 1_555
O42 Eu15 1_555 1_555
O43 Eu15 1_555 1_555
O44 Eu5 1_555 1_555
O46 Eu2 1_555 1_555
O47 Eu3 1_555 1_555
O48 Eu4 1_555 1_555
O49 Eu6 1_555 1_555
O50 Eu7 1_555 1_555
O51 Eu13 1_555 1_555
O52 Eu15 1_555 1_555
O54 H7 1_555 1_555
N4 Eu2 1_555 1_555
N5 Eu13 1_555 1_555
N6 Eu15 1_555 1_555
N7 Eu14 1_555 1_555
N8 Eu13 1_555 1_555
N9 Eu15 1_555 1_555
N10 Eu14 1_555 1_555
N13 Eu12 1_555 1_555
N14 Eu15 1_555 1_555
N15 Eu13 1_555 1_555
N17 Eu15 1_555 1_555
Eu2 O6 1_555 1_555
C1 O3 1_555 1_555
C1 N1 1_555 1_555
C5 N1 1_555 1_555
C7 O6 1_555 1_555
C7 N2 1_555 1_555
C12 O4 1_555 1_555
O2 Eu4 1_555 1_555
O7 Eu7 1_555 1_555
Eu3 O54 1_555 1_555
Eu4 O33 1_555 1_555
Eu4 O54 1_555 1_555
Eu5 O11 1_555 1_555
Eu5 O29 1_555 1_555
Eu6 O32 1_555 1_555
Eu6 O34 1_555 1_555
Eu6 O54 1_555 1_555
Eu7 O10 1_555 1_555
Eu7 O13 1_555 1_555
Eu7 O35 1_555 1_555
Eu8 O21 1_555 1_555
Eu8 O46 1_555 1_555
Eu12 O47 1_555 1_555
Eu13 O22 1_555 1_555
Eu13 O50 1_555 1_555
Eu14 O44 1_555 1_555
Eu15 O48 1_555 1_555
Eu18_2 O49 1_555 1_555
C14 O21 1_555 1_555
C14 N4 1_555 1_555
C15 O22 1_555 1_555
C15 N5 1_555 1_555
C16 O23 1_555 1_555
C16 N6 1_555 1_555
C17 O24 1_555 1_555
C17 N7 1_555 1_555
C34 N4 1_555 1_555
C35 N5 1_555 1_555
C36 N6 1_555 1_555
C37 N7 1_555 1_555
C38 O8 1_555 1_555
C38 O14 1_555 1_555
C40 O10 1_555 1_555
C40 O16 1_555 1_555
C41 O11 1_555 1_555
C41 O17 1_555 1_555
C42 O12 1_555 1_555
C42 O18 1_555 1_555
C43 O44 1_555 1_555
C43 N10 1_555 1_555
C44 N16 1_555 1_555
C46 O47 1_555 1_555
C46 N13 1_555 1_555
C47 O48 1_555 1_555
C47 N14 1_555 1_555
C63 N10 1_555 1_555
C64 N16 1_555 1_555
C66 N13 1_555 1_555
C67 N14 1_555 1_555
C68 O29 1_555 1_555
C68 O36 1_555 1_555
C69 O30 1_555 1_555
C69 O37 1_555 1_555
C71 O32 1_555 1_555
C71 O39 1_555 1_555
C72 O33 1_555 1_555
C72 O40 1_555 1_555
C24 H9 1_555 1_555
O15 Eu9 1_555 1_555
C39 O15 1_555 1_555
O51 Eu10 1_555 1_555
H5 C10 1_555 1_555
C11 C10 1_555 1_555
H6 C11 1_555 1_555
C13 C18 1_555 1_555
C18 C23 1_555 1_555
C23 H8 1_555 1_555
C28 C23 1_555 1_555
H13 C28 1_555 1_555
C33 C28 1_555 1_555
H18 C33 1_555 1_555
C45 C50 1_555 1_555
C50 C55 1_555 1_555
C55 H25 1_555 1_555
C60 C55 1_555 1_555
H30 C60 1_555 1_555
C65 C60 1_555 1_555
H35 C65 1_555 1_555
C70 C50 1_555 1_555
N3 Eu12_2 1_555 1_555
C13 N3 1_555 1_555
C33 N3 1_555 1_555
C45 N12 1_555 1_555
C65 N12 1_555 1_555
C70 O31 1_555 1_555
Eu11 O28 1_555 1_555
Eu14 O28 1_555 1_555
O38 Eu14 1_555 1_555
O53 Eu11 1_555 1_555
Eu14 O53 1_555 1_555
Eu10 O26 1_555 1_555
C16_2 C21_2 1_555 1_555
C21_2 C26_2 1_555 1_555
C26_2 H11_2 1_555 1_555
C31_2 C26_2 1_555 1_555
H16_2 C31_2 1_555 1_555
C36_2 C31_2 1_555 1_555
H21_2 C36_2 1_555 1_555
H28_2 C58_2 1_555 1_555
C63_2 C58_2 1_555 1_555
H33_2 C63_2 1_555 1_555
O27_2 Eu18 1_555 1_555
O43_2 Eu18 1_555 1_555
O52_2 Eu18 1_555 1_555
N6_2 Eu18 1_555 1_555
N17_2 Eu18 1_555 1_555
C16_2 N6_2 1_555 1_555
C36_2 N6_2 1_555 1_555
Eu11 O9_2 1_555 1_555
C14_2 C19_2 1_555 1_555
H14_2 C29_2 1_555 1_555
C34_2 C29_2 1_555 1_555
H19_2 C34_2 1_555 1_555
C43_2 C48_2 1_555 1_555
C45_2 C50_2 1_555 1_555
C47_2 C52_2 1_555 1_555
C48_2 C53_2 1_555 1_555
C50_2 C55_2 1_555 1_555
C52_2 C57_2 1_555 1_555
C53_2 H23_2 1_555 1_555
C55_2 H25_2 1_555 1_555
C57_2 H27_2 1_555 1_555
C60_2 C55_2 1_555 1_555
C62_2 C57_2 1_555 1_555
H30_2 C60_2 1_555 1_555
H32_2 C62_2 1_555 1_555
C65_2 C60_2 1_555 1_555
C67_2 C62_2 1_555 1_555
H35_2 C65_2 1_555 1_555
H37_2 C67_2 1_555 1_555
C68_2 C48_2 1_555 1_555
C70_2 C50_2 1_555 1_555
C72_2 C52_2 1_555 1_555
O31_2 Eu11 1_555 1_555
O36_2 Eu14 1_555 1_555
N4_2 Eu14 1_555 1_555
N9_2 Eu18_2 1_555 1_555
N12_2 Eu14 1_555 1_555
N14_2 Eu18_2 1_555 1_555
C14_2 O28 1_555 1_555
C14_2 N4_2 1_555 1_555
C34_2 N4_2 1_555 1_555
C41_2 O13 1_555 1_555
C41_2 O19 1_555 1_555
C43_2 O50 1_555 1_555
C43_2 N15 1_555 1_555
C45_2 O53 1_555 1_555
C45_2 N12_2 1_555 1_555
C47_2 O49 1_555 1_555
C47_2 N14_2 1_555 1_555
C65_2 N12_2 1_555 1_555
C67_2 N14_2 1_555 1_555
C68_2 O35 1_555 1_555
C68_2 O36_2 1_555 1_555
C70_2 O31_2 1_555 1_555
C72_2 O34 1_555 1_555
C72_2 O42 1_555 1_555
C24_2 H9_2 1_555 1_555
C39_2 O15_2 1_555 1_555
Eu10 O9_3 1_555 1_555
C14_3 C19_3 1_555 1_555
H14_3 C29_3 1_555 1_555
C34_3 C29_3 1_555 1_555
H19_3 C34_3 1_555 1_555
N9_3 Eu12 1_555 1_555
C14_3 O26 1_555 1_555
C14_3 N8 1_555 1_555
C34_3 N8 1_555 1_555
C24_3 H9_3 1_555 1_555
C39_3 O15_3 1_555 1_555
O27_3 Eu12_2 1_555 1_555
O43_3 Eu12_2 1_555 1_555
O52_3 Eu12_2 1_555 1_555
N17_3 Eu12_2 1_555 1_555
Eu1_2 O1_2 1_555 1_555
Eu2_2 O3_2 1_555 1_555
C1_2 C2_2 1_555 1_555
C2_2 C3_2 1_555 1_555
C3_2 H1_2 1_555 1_555
C4_2 C3_2 1_555 1_555
H2_2 C4_2 1_555 1_555
C5_2 C4_2 1_555 1_555
H3_2 C5_2 1_555 1_555
C6_2 C2_2 1_555 1_555
C7_2 C8_2 1_555 1_555
C8_2 C9_2 1_555 1_555
C9_2 H4_2 1_555 1_555
C12_2 C8_2 1_555 1_555
O1_2 C6_2 1_555 1_555
O2_2 C6_2 1_555 1_555
O3_2 Eu1_2 1_555 1_555
O4_2 Eu1_2 1_555 1_555
O5_2 C12_2 1_555 1_555
O6_2 Eu1_2 1_555 1_555
O7_2 Eu1_2 1_555 1_555
H7_2 O7_2 1_555 1_555
N1_2 Eu2_2 1_555 1_555
N2_2 Eu2_2 1_555 1_555
Eu3_2 O8_2 1_555 1_555
Eu4_2 O1_2 1_555 1_555
Eu5_2 O7_2 1_555 1_555
Eu6_2 O12_2 1_555 1_555
Eu7_2 O4_2 1_555 1_555
Eu8_2 O9_4 1_555 1_555
Eu9_4 O9_4 1_555 1_555
Eu13_2 O5_2 1_555 1_555
Eu14_2 O24_2 1_555 1_555
C14_4 C19_4 1_555 1_555
C15_2 C20_2 1_555 1_555
C16_3 C21_3 1_555 1_555
C17_2 C22_2 1_555 1_555
C19_4 C24_4 1_555 1_555
C20_2 C25_2 1_555 1_555
C21_3 C26_3 1_555 1_555
C22_2 C27_2 1_555 1_555
C24_4 H9_4 1_555 1_555
C25_2 H10_2 1_555 1_555
C26_3 H11_3 1_555 1_555
C27_2 H12_2 1_555 1_555
C29_4 C24_4 1_555 1_555
C30_2 C25_2 1_555 1_555
C31_3 C26_3 1_555 1_555
C32_2 C27_2 1_555 1_555
H14_4 C29_4 1_555 1_555
H16_3 C31_3 1_555 1_555
C34_4 C29_4 1_555 1_555
C35_2 C30_2 1_555 1_555
C36_3 C31_3 1_555 1_555
C37_2 C32_2 1_555 1_555
H19_4 C34_4 1_555 1_555
H20_2 C35_2 1_555 1_555
H21_3 C36_3 1_555 1_555
H22_2 C37_2 1_555 1_555
C39_4 C19_4 1_555 1_555
C40_2 C20_2 1_555 1_555
C41_3 C21_3 1_555 1_555
C42_2 C22_2 1_555 1_555
C43_3 C48_3 1_555 1_555
C44_2 C49_2 1_555 1_555
C46_2 C51_2 1_555 1_555
C47_3 C52_3 1_555 1_555
C48_3 C53_3 1_555 1_555
C49_2 C54_2 1_555 1_555
C51_2 C56_2 1_555 1_555
C52_3 C57_3 1_555 1_555
C53_3 H23_3 1_555 1_555
C54_2 H24_2 1_555 1_555
C56_2 H26_2 1_555 1_555
C57_3 H27_3 1_555 1_555
C58_3 C53_3 1_555 1_555
C59_2 C54_2 1_555 1_555
C61_2 C56_2 1_555 1_555
C62_3 C57_3 1_555 1_555
H28_3 C58_3 1_555 1_555
H29_2 C59_2 1_555 1_555
H31_2 C61_2 1_555 1_555
H32_3 C62_3 1_555 1_555
C63_3 C58_3 1_555 1_555
C64_2 C59_2 1_555 1_555
C66_2 C61_2 1_555 1_555
C67_3 C62_3 1_555 1_555
H33_3 C63_3 1_555 1_555
H34_2 C64_2 1_555 1_555
H36_2 C66_2 1_555 1_555
H37_3 C67_3 1_555 1_555
C68_3 C48_3 1_555 1_555
C69_2 C49_2 1_555 1_555
C71_2 C51_2 1_555 1_555
C72_3 C52_3 1_555 1_555
O8_2 Eu1_2 1_555 1_555
O9_4 C39_4 1_555 1_555
O10_2 Eu3_2 1_555 1_555
O11_2 Eu4_2 1_555 1_555
O12_2 Eu5_2 1_555 1_555
O13_2 Eu6_2 1_555 1_555
O14_2 Eu1_2 1_555 1_555
O15_4 Eu9_4 1_555 1_555
O16_2 Eu3_2 1_555 1_555
O17_2 Eu5_2 1_555 1_555
O18_2 Eu6_2 1_555 1_555
O19_2 Eu7_2 1_555 1_555
O27_2 Eu3_2 1_555 1_555
O21_2 Eu2_2 1_555 1_555
O22_2 Eu7_2 1_555 1_555
O27 Eu4_2 1_555 1_555
O24_2 Eu5_2 1_555 1_555
O27_3 Eu6_2 1_555 1_555
O26_2 Eu13_2 1_555 1_555
O29_2 Eu1_2 1_555 1_555
O30_2 Eu8_2 1_555 1_555
O32_2 Eu3_2 1_555 1_555
O33_2 Eu3_2 1_555 1_555
O34_2 Eu4_2 1_555 1_555
O35_2 Eu5_2 1_555 1_555
O36_3 Eu2_2 1_555 1_555
O37_2 Eu2_2 1_555 1_555
O41_2 Eu13_2 1_555 1_555
O44_2 Eu5_2 1_555 1_555
O46_2 Eu2_2 1_555 1_555
O52_2 Eu3_2 1_555 1_555
O52 Eu4_2 1_555 1_555
O52_3 Eu6_2 1_555 1_555
O50_2 Eu7_2 1_555 1_555
O51_2 Eu13_2 1_555 1_555
O54_2 H7_2 1_555 1_555
N4_3 Eu2_2 1_555 1_555
N5_2 Eu13_2 1_555 1_555
N7_2 Eu14_2 1_555 1_555
N8_2 Eu13_2 1_555 1_555
N10_2 Eu14_2 1_555 1_555
N15_2 Eu13_2 1_555 1_555
Eu2_2 O6_2 1_555 1_555
C1_2 O3_2 1_555 1_555
C1_2 N1_2 1_555 1_555
C5_2 N1_2 1_555 1_555
C7_2 O6_2 1_555 1_555
C7_2 N2_2 1_555 1_555
C12_2 O4_2 1_555 1_555
O2_2 Eu4_2 1_555 1_555
O7_2 Eu7_2 1_555 1_555
Eu3_2 O54_2 1_555 1_555
Eu4_2 O33_2 1_555 1_555
Eu4_2 O54_2 1_555 1_555
Eu5_2 O11_2 1_555 1_555
Eu5_2 O29_2 1_555 1_555
Eu6_2 O32_2 1_555 1_555
Eu6_2 O34_2 1_555 1_555
Eu6_2 O54_2 1_555 1_555
Eu7_2 O10_2 1_555 1_555
Eu7_2 O13_2 1_555 1_555
Eu7_2 O35_2 1_555 1_555
Eu8_2 O21_2 1_555 1_555
Eu8_2 O46_2 1_555 1_555
Eu13_2 O22_2 1_555 1_555
Eu13_2 O50_2 1_555 1_555
Eu14_2 O44_2 1_555 1_555
C14_4 O21_2 1_555 1_555
C14_4 N4_3 1_555 1_555
C15_2 O22_2 1_555 1_555
C15_2 N5_2 1_555 1_555
C16_3 O27 1_555 1_555
C16_3 N9 1_555 1_555
C17_2 O24_2 1_555 1_555
C17_2 N7_2 1_555 1_555
C34_4 N4_3 1_555 1_555
C35_2 N5_2 1_555 1_555
C36_3 N9 1_555 1_555
C37_2 N7_2 1_555 1_555
C38_2 O8_2 1_555 1_555
C38_2 O14_2 1_555 1_555
C39_4 O15_4 1_555 1_555
C40_2 O10_2 1_555 1_555
C40_2 O16_2 1_555 1_555
C41_3 O11_2 1_555 1_555
C41_3 O17_2 1_555 1_555
C42_2 O12_2 1_555 1_555
C42_2 O18_2 1_555 1_555
C43_3 O44_2 1_555 1_555
C43_3 N10_2 1_555 1_555
C44_2 N16_2 1_555 1_555
C46_2 O52_2 1_555 1_555
C46_2 N17_2 1_555 1_555
C47_3 O52 1_555 1_555
C47_3 N17 1_555 1_555
C63_3 N10_2 1_555 1_555
C64_2 N16_2 1_555 1_555
C66_2 N17_2 1_555 1_555
C67_3 N17 1_555 1_555
C68_3 O29_2 1_555 1_555
C68_3 O36_3 1_555 1_555
C69_2 O30_2 1_555 1_555
C69_2 O37_2 1_555 1_555
C71_2 O32_2 1_555 1_555
C71_2 O43_3 1_555 1_555
C72_3 O33_2 1_555 1_555
C72_3 O43_2 1_555 1_555
H5_2 C10_2 1_555 1_555
C11_2 C10_2 1_555 1_555
H6_2 C11_2 1_555 1_555
C13_2 C18_2 1_555 1_555
C18_2 C23_2 1_555 1_555
C23_2 H8_2 1_555 1_555
C28_2 C23_2 1_555 1_555
H13_2 C28_2 1_555 1_555
C33_2 C28_2 1_555 1_555
H18_2 C33_2 1_555 1_555
C45_3 C50_3 1_555 1_555
C50_3 C55_3 1_555 1_555
C55_3 H25_3 1_555 1_555
C60_3 C55_3 1_555 1_555
H30_3 C60_3 1_555 1_555
C65_3 C60_3 1_555 1_555
H35_3 C65_3 1_555 1_555
C70_3 C50_3 1_555 1_555
C13_2 N9_2 1_555 1_555
C33_2 N9_2 1_555 1_555
C45_3 N12_3 1_555 1_555
C65_3 N12_3 1_555 1_555
C70_3 O31_3 1_555 1_555
O51_2 Eu10_2 1_555 1_555
Eu11_2 O28_2 1_555 1_555
Eu14_2 O28_2 1_555 1_555
O38_2 Eu14_2 1_555 1_555
O53_2 Eu11_2 1_555 1_555
Eu14_2 O53_2 1_555 1_555
C16_4 C21_4 1_555 1_555
C21_4 C26_4 1_555 1_555
C26_4 H11_4 1_555 1_555
C31_4 C26_4 1_555 1_555
H16_4 C31_4 1_555 1_555
C36_4 C31_4 1_555 1_555
H21_4 C36_4 1_555 1_555
H28_4 C58_4 1_555 1_555
C63_4 C58_4 1_555 1_555
H33_4 C63_4 1_555 1_555
C16_4 N9_3 1_555 1_555
C36_4 N9_3 1_555 1_555
Eu10_2 O26_2 1_555 1_555
Eu11_2 O9_5 1_555 1_555
C14_5 C19_5 1_555 1_555
C19_5 C24_5 1_555 1_555
C24_5 H9_5 1_555 1_555
C29_5 C24_5 1_555 1_555
H14_5 C29_5 1_555 1_555
C34_5 C29_5 1_555 1_555
H19_5 C34_5 1_555 1_555
C39_5 C19_5 1_555 1_555
C43_4 C48_4 1_555 1_555
C45_4 C50_4 1_555 1_555
C47_4 C52_4 1_555 1_555
C48_4 C53_4 1_555 1_555
C50_4 C55_4 1_555 1_555
C52_4 C57_4 1_555 1_555
C53_4 H23_4 1_555 1_555
C55_4 H25_4 1_555 1_555
C57_4 H27_4 1_555 1_555
C60_4 C55_4 1_555 1_555
C62_4 C57_4 1_555 1_555
H30_4 C60_4 1_555 1_555
H32_4 C62_4 1_555 1_555
C65_4 C60_4 1_555 1_555
C67_4 C62_4 1_555 1_555
H35_4 C65_4 1_555 1_555
H37_4 C67_4 1_555 1_555
C68_4 C48_4 1_555 1_555
C70_4 C50_4 1_555 1_555
C72_4 C52_4 1_555 1_555
O9_5 C39_5 1_555 1_555
O31_4 Eu11_2 1_555 1_555
O36_4 Eu14_2 1_555 1_555
N4_4 Eu14_2 1_555 1_555
N12_4 Eu14_2 1_555 1_555
C14_5 O28_2 1_555 1_555
C14_5 N4_4 1_555 1_555
C34_5 N4_4 1_555 1_555
C39_5 O15_5 1_555 1_555
C41_4 O13_2 1_555 1_555
C41_4 O19_2 1_555 1_555
C43_4 O50_2 1_555 1_555
C43_4 N15_2 1_555 1_555
C45_4 O53_2 1_555 1_555
C45_4 N12_4 1_555 1_555
C47_4 O52_3 1_555 1_555
C47_4 N17_3 1_555 1_555
C65_4 N12_4 1_555 1_555
C67_4 N17_3 1_555 1_555
C68_4 O35_2 1_555 1_555
C68_4 O36_4 1_555 1_555
C70_4 O31_4 1_555 1_555
C72_4 O34_2 1_555 1_555
C72_4 O43 1_555 1_555
Eu10_2 O9_6 1_555 1_555
C14_6 C19_6 1_555 1_555
C19_6 C24_6 1_555 1_555
C24_6 H9_6 1_555 1_555
C29_6 C24_6 1_555 1_555
H14_6 C29_6 1_555 1_555
C34_6 C29_6 1_555 1_555
H19_6 C34_6 1_555 1_555
C39_6 C19_6 1_555 1_555
O9_6 C39_6 1_555 1_555
C14_6 O26_2 1_555 1_555
C14_6 N8_2 1_555 1_555
C34_6 N8_2 1_555 1_555
C39_6 O15_6 1_555 1_555
H7_3 O7_3 1_555 1_555
Eu8_2 O7_3 1_555 1_555
Eu18_3 O25_2 1_555 1_555
O13_3 Eu9_4 1_555 1_555
O25_2 Eu9_4 1_555 1_555
O39_2 Eu18_3 1_555 1_555
O49_2 Eu9_4 1_555 1_555
O54_3 H7_3 1_555 1_555
Eu9_4 O34_3 1_555 1_555
Eu9_4 O54_3 1_555 1_555
Eu18_3 O49_2 1_555 1_555
H7_4 O7_4 1_555 1_555
Eu15_2 O23_2 1_555 1_555
C16_5 C21_5 1_555 1_555
C21_5 C26_5 1_555 1_555
C26_5 H11_5 1_555 1_555
C31_5 C26_5 1_555 1_555
H16_5 C31_5 1_555 1_555
C36_5 C31_5 1_555 1_555
H21_5 C36_5 1_555 1_555
C41_5 C21_5 1_555 1_555
O11_3 Eu9_5 1_555 1_555
O23_2 Eu9_5 1_555 1_555
O27_4 Eu15_2 1_555 1_555
O42_2 Eu15_2 1_555 1_555
O43_4 Eu15_2 1_555 1_555
O48_2 Eu9_5 1_555 1_555
O52_4 Eu15_2 1_555 1_555
O54_4 H7_4 1_555 1_555
N6_3 Eu15_2 1_555 1_555
N9_4 Eu15_2 1_555 1_555
N17_4 Eu15_2 1_555 1_555
Eu9_5 O54_4 1_555 1_555
Eu15_2 O48_2 1_555 1_555
C16_5 O23_2 1_555 1_555
C16_5 N6_3 1_555 1_555
C36_5 N6_3 1_555 1_555
C41_5 O11_3 1_555 1_555
C41_5 O17_3 1_555 1_555
H7_5 O7_5 1_555 1_555
C46_3 C51_3 1_555 1_555
C51_3 C56_3 1_555 1_555
C56_3 H26_3 1_555 1_555
C61_3 C56_3 1_555 1_555
H31_3 C61_3 1_555 1_555
C66_3 C61_3 1_555 1_555
H36_3 C66_3 1_555 1_555
C71_3 C51_3 1_555 1_555
O54_5 H7_5 1_555 1_555
O7_5 Eu10_2 1_555 1_555
C46_3 N13_2 1_555 1_555
C66_3 N13_2 1_555 1_555
C71_3 O32_3 1_555 1_555
O7_6 Eu11_2 1_555 1_555
H7_6 O7_6 1_555 1_555
Eu9_6 O8_3 1_555 1_555
Eu12_3 O20_2 1_555 1_555
C13_3 C18_3 1_555 1_555
C18_3 C23_3 1_555 1_555
C23_3 H8_3 1_555 1_555
C28_3 C23_3 1_555 1_555
H13_3 C28_3 1_555 1_555
C33_3 C28_3 1_555 1_555
H18_3 C33_3 1_555 1_555
C38_3 C18_3 1_555 1_555
C47_5 C52_5 1_555 1_555
C52_5 C57_5 1_555 1_555
C57_5 H27_5 1_555 1_555
C62_5 C57_5 1_555 1_555
H32_5 C62_5 1_555 1_555
C67_5 C62_5 1_555 1_555
H37_5 C67_5 1_555 1_555
C72_5 C52_5 1_555 1_555
O8_3 Eu11_2 1_555 1_555
O14_3 Eu11_2 1_555 1_555
O20_2 Eu9_6 1_555 1_555
O33_3 Eu9_6 1_555 1_555
O40_2 Eu12_3 1_555 1_555
O47_2 Eu9_6 1_555 1_555
O54_6 H7_6 1_555 1_555
N3_2 Eu12_3 1_555 1_555
Eu9_6 O54_6 1_555 1_555
Eu12_3 O47_2 1_555 1_555
C13_3 O20_2 1_555 1_555
C13_3 N3_2 1_555 1_555
C33_3 N3_2 1_555 1_555
C38_3 O8_3 1_555 1_555
C38_3 O14_3 1_555 1_555
C47_5 N14_3 1_555 1_555
C67_5 N14_3 1_555 1_555
C72_5 O33_3 1_555 1_555
C72_5 O40_2 1_555 1_555
C16_6 C21_6 1_555 1_555
C21_6 C26_6 1_555 1_555
C26_6 H11_6 1_555 1_555
C31_6 C26_6 1_555 1_555
H16_6 C31_6 1_555 1_555
C36_6 C31_6 1_555 1_555
H21_6 C36_6 1_555 1_555
C41_6 C21_6 1_555 1_555
C47_6 C52_6 1_555 1_555
C52_6 C57_6 1_555 1_555
C57_6 H27_6 1_555 1_555
C62_6 C57_6 1_555 1_555
H32_6 C62_6 1_555 1_555
C67_6 C62_6 1_555 1_555
H37_6 C67_6 1_555 1_555
C72_6 C52_6 1_555 1_555
O27_5 Eu18_3 1_555 1_555
O43_5 Eu18_3 1_555 1_555
O52_5 Eu18_3 1_555 1_555
N6_4 Eu18_3 1_555 1_555
N9_5 Eu18_3 1_555 1_555
N14_4 Eu18_3 1_555 1_555
N17_5 Eu18_3 1_555 1_555
C16_6 O25_2 1_555 1_555
C16_6 N6_4 1_555 1_555
C36_6 N6_4 1_555 1_555
C41_6 O13_3 1_555 1_555
C41_6 O19_3 1_555 1_555
C47_6 O49_2 1_555 1_555
C47_6 N14_4 1_555 1_555
C67_6 N14_4 1_555 1_555
C72_6 O34_3 1_555 1_555
O27_6 Eu12_3 1_555 1_555
O43_6 Eu12_3 1_555 1_555
O52_6 Eu12_3 1_555 1_555
N9_6 Eu12_3 1_555 1_555
N17_6 Eu12_3 1_555 1_555
C17_3 C22_3 1_555 1_555
C22_3 C27_3 1_555 1_555
C27_3 H12_3 1_555 1_555
C32_3 C27_3 1_555 1_555
H17_3 C32_3 1_555 1_555
C37_3 C32_3 1_555 1_555
H22_3 C37_3 1_555 1_555
N7_3 Eu14_3 1_555 1_555
C17_3 N7_3 1_555 1_555
C37_3 N7_3 1_555 1_555
Eu1_3 O1_3 1_555 1_555
Eu2_3 O3_3 1_555 1_555
C7_3 C8_3 1_555 1_555
C8_3 C9_3 1_555 1_555
C9_3 H4_3 1_555 1_555
C10_3 C9_3 1_555 1_555
H5_3 C10_3 1_555 1_555
C11_3 C10_3 1_555 1_555
H6_3 C11_3 1_555 1_555
C12_3 C8_3 1_555 1_555
O1_3 C6_3 1_555 1_555
O2_3 C6_3 1_555 1_555
O3_3 Eu1_3 1_555 1_555
O4_3 Eu1_3 1_555 1_555
O5_3 C12_3 1_555 1_555
O6_3 Eu1_3 1_555 1_555
O7_7 Eu1_3 1_555 1_555
H7_7 O7_7 1_555 1_555
N2_3 Eu2_3 1_555 1_555
Eu3_3 O8_4 1_555 1_555
Eu4_3 O1_3 1_555 1_555
Eu5_3 O7_7 1_555 1_555
Eu6_3 O12_3 1_555 1_555
Eu7_3 O4_3 1_555 1_555
Eu13_3 O5_3 1_555 1_555
Eu14_4 O24_3 1_555 1_555
C13_4 C18_4 1_555 1_555
C14_7 C19_7 1_555 1_555
C15_3 C20_3 1_555 1_555
C16_7 C21_7 1_555 1_555
C18_4 C23_4 1_555 1_555
C19_7 C24_7 1_555 1_555
C20_3 C25_3 1_555 1_555
C21_7 C26_7 1_555 1_555
C23_4 H8_4 1_555 1_555
C24_7 H9_7 1_555 1_555
C25_3 H10_3 1_555 1_555
C26_7 H11_7 1_555 1_555
C28_4 C23_4 1_555 1_555
C29_7 C24_7 1_555 1_555
C30_3 C25_3 1_555 1_555
C31_7 C26_7 1_555 1_555
H14_7 C29_7 1_555 1_555
H15_3 C30_3 1_555 1_555
C33_4 C28_4 1_555 1_555
C34_7 C29_7 1_555 1_555
C35_3 C30_3 1_555 1_555
C36_7 C31_7 1_555 1_555
H18_4 C33_4 1_555 1_555
H19_7 C34_7 1_555 1_555
H20_3 C35_3 1_555 1_555
H21_7 C36_7 1_555 1_555
C38_4 C18_4 1_555 1_555
C40_3 C20_3 1_555 1_555
C41_7 C21_7 1_555 1_555
C43_5 C48_5 1_555 1_555
C46_4 C51_4 1_555 1_555
C47_7 C52_7 1_555 1_555
C48_5 C53_5 1_555 1_555
C51_4 C56_4 1_555 1_555
C52_7 C57_7 1_555 1_555
C53_5 H23_5 1_555 1_555
C56_4 H26_4 1_555 1_555
C57_7 H27_7 1_555 1_555
C58_5 C53_5 1_555 1_555
C61_4 C56_4 1_555 1_555
H28_5 C58_5 1_555 1_555
H31_4 C61_4 1_555 1_555
C63_5 C58_5 1_555 1_555
C66_4 C61_4 1_555 1_555
H33_5 C63_5 1_555 1_555
H36_4 C66_4 1_555 1_555
C68_5 C48_5 1_555 1_555
C71_4 C51_4 1_555 1_555
C72_7 C52_7 1_555 1_555
O8_4 Eu1_3 1_555 1_555
O10_3 Eu3_3 1_555 1_555
O11_4 Eu4_3 1_555 1_555
O12_3 Eu5_3 1_555 1_555
O13_4 Eu6_3 1_555 1_555
O14_4 Eu1_3 1_555 1_555
O16_3 Eu3_3 1_555 1_555
O17_4 Eu5_3 1_555 1_555
O18_3 Eu6_3 1_555 1_555
O19_4 Eu7_3 1_555 1_555
O27_5 Eu3_3 1_555 1_555
O22_3 Eu7_3 1_555 1_555
O27_4 Eu4_3 1_555 1_555
O24_3 Eu5_3 1_555 1_555
O27_6 Eu6_3 1_555 1_555
O26_3 Eu13_3 1_555 1_555
O29_3 Eu1_3 1_555 1_555
O32_4 Eu3_3 1_555 1_555
O33_4 Eu3_3 1_555 1_555
O34_4 Eu4_3 1_555 1_555
O35_3 Eu5_3 1_555 1_555
O36_5 Eu2_3 1_555 1_555
O41_3 Eu13_3 1_555 1_555
O44_3 Eu5_3 1_555 1_555
O52_5 Eu3_3 1_555 1_555
O52_4 Eu4_3 1_555 1_555
O52_6 Eu6_3 1_555 1_555
O50_3 Eu7_3 1_555 1_555
O51_3 Eu13_3 1_555 1_555
O54_7 H7_7 1_555 1_555
N4_5 Eu2_3 1_555 1_555
N5_3 Eu13_3 1_555 1_555
N8_3 Eu13_3 1_555 1_555
N10_3 Eu14_4 1_555 1_555
N15_3 Eu13_3 1_555 1_555
N16_3 Eu13_3 1_555 1_555
Eu2_3 O6_3 1_555 1_555
C7_3 O6_3 1_555 1_555
C7_3 N2_3 1_555 1_555
C11_3 N2_3 1_555 1_555
C12_3 O4_3 1_555 1_555
O2_3 Eu4_3 1_555 1_555
O7_7 Eu7_3 1_555 1_555
Eu3_3 O54_7 1_555 1_555
Eu4_3 O33_4 1_555 1_555
Eu4_3 O54_7 1_555 1_555
Eu5_3 O11_4 1_555 1_555
Eu5_3 O29_3 1_555 1_555
Eu6_3 O32_4 1_555 1_555
Eu6_3 O34_4 1_555 1_555
Eu6_3 O54_7 1_555 1_555
Eu7_3 O10_3 1_555 1_555
Eu7_3 O13_4 1_555 1_555
Eu7_3 O35_3 1_555 1_555
Eu13_3 O22_3 1_555 1_555
Eu13_3 O50_3 1_555 1_555
Eu14_4 O44_3 1_555 1_555
C13_4 O27_5 1_555 1_555
C13_4 N9_5 1_555 1_555
C14_7 N4_5 1_555 1_555
C15_3 O22_3 1_555 1_555
C15_3 N5_3 1_555 1_555
C16_7 O27_4 1_555 1_555
C16_7 N9_4 1_555 1_555
C33_4 N9_5 1_555 1_555
C34_7 N4_5 1_555 1_555
C35_3 N5_3 1_555 1_555
C36_7 N9_4 1_555 1_555
C38_4 O8_4 1_555 1_555
C38_4 O14_4 1_555 1_555
C40_3 O10_3 1_555 1_555
C40_3 O16_3 1_555 1_555
C41_7 O11_4 1_555 1_555
C41_7 O17_4 1_555 1_555
C42_3 O12_3 1_555 1_555
C42_3 O18_3 1_555 1_555
C43_5 O44_3 1_555 1_555
C43_5 N10_3 1_555 1_555
C46_4 O52_5 1_555 1_555
C46_4 N17_5 1_555 1_555
C47_7 O52_4 1_555 1_555
C47_7 N17_4 1_555 1_555
C63_5 N10_3 1_555 1_555
C66_4 N17_5 1_555 1_555
C68_5 O29_3 1_555 1_555
C68_5 O36_5 1_555 1_555
C71_4 O32_4 1_555 1_555
C71_4 O43_6 1_555 1_555
C72_7 O33_4 1_555 1_555
C72_7 O43_5 1_555 1_555
C1_3 C2_3 1_555 1_555
C2_3 C3_3 1_555 1_555
C3_3 H1_3 1_555 1_555
C4_3 C3_3 1_555 1_555
H2_3 C4_3 1_555 1_555
C5_3 C4_3 1_555 1_555
H3_3 C5_3 1_555 1_555
N1_3 Eu2_4 1_555 1_555
Eu8_3 O9_7 1_555 1_555
Eu9_7 O9_7 1_555 1_555
Eu10_3 O30_3 1_555 1_555
Eu11_3 O28_3 1_555 1_555
Eu14_3 O28_3 1_555 1_555
C44_3 C49_3 1_555 1_555
C45_5 C50_5 1_555 1_555
C49_3 C54_3 1_555 1_555
C50_5 C55_5 1_555 1_555
C54_3 H24_3 1_555 1_555
C55_5 H25_5 1_555 1_555
C59_3 C54_3 1_555 1_555
C60_5 C55_5 1_555 1_555
H29_3 C59_3 1_555 1_555
H30_5 C60_5 1_555 1_555
H32_7 C62_7 1_555 1_555
C64_3 C59_3 1_555 1_555
C65_5 C60_5 1_555 1_555
C67_7 C62_7 1_555 1_555
H34_3 C64_3 1_555 1_555
H35_5 C65_5 1_555 1_555
H37_7 C67_7 1_555 1_555
C69_3 C49_3 1_555 1_555
C70_5 C50_5 1_555 1_555
O9_7 C39_7 1_555 1_555
O15_7 Eu9_7 1_555 1_555
O21_3 Eu2_4 1_555 1_555
O30_3 Eu8_3 1_555 1_555
O31_5 Eu8_3 1_555 1_555
O37_3 Eu2_4 1_555 1_555
O38_3 Eu14_3 1_555 1_555
O51_3 Eu10_3 1_555 1_555
O46_3 Eu2_4 1_555 1_555
O53_3 Eu11_3 1_555 1_555
N12_5 Eu2_4 1_555 1_555
C1_3 N1_3 1_555 1_555
C5_3 N1_3 1_555 1_555
Eu8_3 O21_3 1_555 1_555
Eu8_3 O46_3 1_555 1_555
Eu11_3 O31_5 1_555 1_555
Eu14_3 O53_3 1_555 1_555
C39_7 O15_7 1_555 1_555
C44_3 O51_3 1_555 1_555
C44_3 N16_3 1_555 1_555
C45_5 O46_3 1_555 1_555
C45_5 N12_5 1_555 1_555
C64_3 N16_3 1_555 1_555
C65_5 N12_5 1_555 1_555
C69_3 O30_3 1_555 1_555
C69_3 O37_3 1_555 1_555
C70_5 O31_5 1_555 1_555
C70_5 O38_3 1_555 1_555
Eu11_3 O9_8 1_555 1_555
Eu9_8 O9_8 1_555 1_555
Eu10_3 O26_3 1_555 1_555
C45_6 C50_6 1_555 1_555
C50_6 C55_6 1_555 1_555
C55_6 H25_6 1_555 1_555
C60_6 C55_6 1_555 1_555
H30_6 C60_6 1_555 1_555
H32_8 C62_8 1_555 1_555
C65_6 C60_6 1_555 1_555
C67_8 C62_8 1_555 1_555
H35_6 C65_6 1_555 1_555
H37_8 C67_8 1_555 1_555
C70_6 C50_6 1_555 1_555
O9_8 C39_8 1_555 1_555
O15_8 Eu9_8 1_555 1_555
O31_6 Eu11_3 1_555 1_555
N12_6 Eu14_3 1_555 1_555
Eu10_3 O31_6 1_555 1_555
C39_8 O15_8 1_555 1_555
C45_6 O53_3 1_555 1_555
C45_6 N12_6 1_555 1_555
C65_6 N12_6 1_555 1_555
C70_6 O31_6 1_555 1_555
C70_6 O41_3 1_555 1_555
C14_8 C19_8 1_555 1_555
C16_8 C21_8 1_555 1_555
C19_8 C24_8 1_555 1_555
C21_8 C26_8 1_555 1_555
C24_8 H9_8 1_555 1_555
C26_8 H11_8 1_555 1_555
C29_8 C24_8 1_555 1_555
C31_8 C26_8 1_555 1_555
H14_8 C29_8 1_555 1_555
H16_8 C31_8 1_555 1_555
C34_8 C29_8 1_555 1_555
C36_8 C31_8 1_555 1_555
H19_8 C34_8 1_555 1_555
H21_8 C36_8 1_555 1_555
C41_8 C21_8 1_555 1_555
C43_6 C48_6 1_555 1_555
C47_8 C52_8 1_555 1_555
C48_6 C53_6 1_555 1_555
C52_8 C57_8 1_555 1_555
C53_6 H23_6 1_555 1_555
C57_8 H27_8 1_555 1_555
C58_6 C53_6 1_555 1_555
H28_6 C58_6 1_555 1_555
C63_6 C58_6 1_555 1_555
H33_6 C63_6 1_555 1_555
C68_6 C48_6 1_555 1_555
C72_8 C52_8 1_555 1_555
O36_6 Eu14_4 1_555 1_555
N4_6 Eu14_4 1_555 1_555
C14_8 N4_6 1_555 1_555
C16_8 O27_6 1_555 1_555
C16_8 N9_6 1_555 1_555
C34_8 N4_6 1_555 1_555
C36_8 N9_6 1_555 1_555
C41_8 O13_4 1_555 1_555
C41_8 O19_4 1_555 1_555
C43_6 O50_3 1_555 1_555
C43_6 N15_3 1_555 1_555
C47_8 O52_6 1_555 1_555
C47_8 N17_6 1_555 1_555
C63_6 N15_3 1_555 1_555
C68_6 O35_3 1_555 1_555
C68_6 O36_6 1_555 1_555
C72_8 O34_4 1_555 1_555
C72_8 O43_4 1_555 1_555
Eu10_3 O9_9 1_555 1_555
Eu9_9 O9_9 1_555 1_555
C14_9 C19_9 1_555 1_555
C19_9 C24_9 1_555 1_555
C24_9 H9_9 1_555 1_555
C29_9 C24_9 1_555 1_555
H14_9 C29_9 1_555 1_555
C34_9 C29_9 1_555 1_555
H19_9 C34_9 1_555 1_555
C39_9 C19_9 1_555 1_555
O9_9 C39_9 1_555 1_555
O15_9 Eu9_9 1_555 1_555
C14_9 O26_3 1_555 1_555
C14_9 N8_3 1_555 1_555
C34_9 N8_3 1_555 1_555
C39_9 O15_9 1_555 1_555
O7_8 Eu11_3 1_555 1_555
H7_8 O7_8 1_555 1_555
Eu9_9 O8_5 1_555 1_555
Eu8_3 O7_8 1_555 1_555
Eu12_4 O20_3 1_555 1_555
Eu15_3 O23_3 1_555 1_555
Eu18_4 O25_3 1_555 1_555
C13_5 C18_5 1_555 1_555
C16_9 C21_9 1_555 1_555
C18_5 C23_5 1_555 1_555
C21_9 C26_9 1_555 1_555
C23_5 H8_5 1_555 1_555
C26_9 H11_9 1_555 1_555
C28_5 C23_5 1_555 1_555
C31_9 C26_9 1_555 1_555
C33_5 C28_5 1_555 1_555
C36_9 C31_9 1_555 1_555
H18_5 C33_5 1_555 1_555
H21_9 C36_9 1_555 1_555
C38_5 C18_5 1_555 1_555
C41_9 C21_9 1_555 1_555
C46_5 C51_5 1_555 1_555
C47_9 C52_9 1_555 1_555
C51_5 C56_5 1_555 1_555
C52_9 C57_9 1_555 1_555
C56_5 H26_5 1_555 1_555
C57_9 H27_9 1_555 1_555
C61_5 C56_5 1_555 1_555
H31_5 C61_5 1_555 1_555
C66_5 C61_5 1_555 1_555
H36_5 C66_5 1_555 1_555
C71_5 C51_5 1_555 1_555
C72_9 C52_9 1_555 1_555
O8_5 Eu11_3 1_555 1_555
O11_5 Eu9_8 1_555 1_555
O13_5 Eu9_7 1_555 1_555
O14_5 Eu11_3 1_555 1_555
O17_5 Eu8_3 1_555 1_555
O19_5 Eu10_3 1_555 1_555
O20_3 Eu9_9 1_555 1_555
O23_3 Eu9_8 1_555 1_555
O25_3 Eu9_7 1_555 1_555
O27_7 Eu15_3 1_555 1_555
O32_5 Eu9_9 1_555 1_555
O33_5 Eu9_9 1_555 1_555
O34_5 Eu9_8 1_555 1_555
O39_3 Eu18_4 1_555 1_555
O40_3 Eu12_4 1_555 1_555
O42_3 Eu15_3 1_555 1_555
O43_7 Eu15_3 1_555 1_555
O47_3 Eu9_9 1_555 1_555
O48_3 Eu9_8 1_555 1_555
O49_3 Eu9_7 1_555 1_555
O52_7 Eu15_3 1_555 1_555
O54_8 H7_8 1_555 1_555
N3_3 Eu12_4 1_555 1_555
N6_5 Eu15_3 1_555 1_555
N9_7 Eu15_3 1_555 1_555
N13_3 Eu12_4 1_555 1_555
N14_5 Eu15_3 1_555 1_555
O7_8 Eu10_3 1_555 1_555
Eu9_9 O54_8 1_555 1_555
Eu9_8 O33_5 1_555 1_555
Eu9_8 O54_8 1_555 1_555
Eu8_3 O11_5 1_555 1_555
Eu9_7 O32_5 1_555 1_555
Eu9_7 O34_5 1_555 1_555
Eu9_7 O54_8 1_555 1_555
Eu10_3 O13_5 1_555 1_555
Eu12_4 O47_3 1_555 1_555
Eu15_3 O48_3 1_555 1_555
Eu18_4 O49_3 1_555 1_555
C13_5 O20_3 1_555 1_555
C13_5 N3_3 1_555 1_555
C16_9 O23_3 1_555 1_555
C16_9 N6_5 1_555 1_555
C33_5 N3_3 1_555 1_555
C36_9 N6_5 1_555 1_555
C38_5 O8_5 1_555 1_555
C38_5 O14_5 1_555 1_555
C41_9 O11_5 1_555 1_555
C41_9 O17_5 1_555 1_555
C46_5 O47_3 1_555 1_555
C46_5 N13_3 1_555 1_555
C47_9 O48_3 1_555 1_555
C47_9 N14_5 1_555 1_555
C66_5 N13_3 1_555 1_555
C71_5 O32_5 1_555 1_555
C71_5 O39_3 1_555 1_555
C72_9 O33_5 1_555 1_555
C72_9 O40_3 1_555 1_555
H32_9 C62_9 1_555 1_555
C67_9 C62_9 1_555 1_555
H37_9 C67_9 1_555 1_555
H32_10 C62_10 1_555 1_555
C67_10 C62_10 1_555 1_555
H37_10 C67_10 1_555 1_555
C16_10 C21_10 1_555 1_555
C21_10 C26_10 1_555 1_555
C26_10 H11_10 1_555 1_555
C31_10 C26_10 1_555 1_555
H16_10 C31_10 1_555 1_555
C36_10 C31_10 1_555 1_555
H21_10 C36_10 1_555 1_555
C41_10 C21_10 1_555 1_555
C47_10 C52_10 1_555 1_555
C52_10 C57_10 1_555 1_555
C57_10 H27_10 1_555 1_555
C72_10 C52_10 1_555 1_555
O27_8 Eu18_4 1_555 1_555
O43_8 Eu18_4 1_555 1_555
O52_8 Eu18_4 1_555 1_555
N6_6 Eu18_4 1_555 1_555
N9_8 Eu18_4 1_555 1_555
N14_6 Eu18_4 1_555 1_555
C16_10 O25_3 1_555 1_555
C16_10 N6_6 1_555 1_555
C36_10 N6_6 1_555 1_555
C41_10 O13_5 1_555 1_555
C41_10 O19_5 1_555 1_555
C47_10 O49_3 1_555 1_555
C47_10 N14_6 1_555 1_555
C72_10 O34_5 1_555 1_555
C72_10 O42_3 1_555 1_555
O27_9 Eu12_4 1_555 1_555
O43_9 Eu12_4 1_555 1_555
O52_9 Eu12_4 1_555 1_555
N9_9 Eu12_4 1_555 1_555
N17_9 Eu12_4 1_555 1_555
Eu8 O7_9 1_555 1_555
O13_6 Eu9 1_555 1_555
O27_9 Eu9 1_555 1_555
O52_9 Eu9 1_555 1_555
O54_9 H7_9 1_555 1_555
Eu9 O34_6 1_555 1_555
Eu9 O54_9 1_555 1_555
O7_10 Eu10 1_555 1_555
C46_6 C51_6 1_555 1_555
C51_6 C56_6 1_555 1_555
C56_6 H26_6 1_555 1_555
C61_6 C56_6 1_555 1_555
H31_6 C61_6 1_555 1_555
C66_6 C61_6 1_555 1_555
H36_6 C66_6 1_555 1_555
C71_6 C51_6 1_555 1_555
O54_10 H7_10 1_555 1_555
C46_6 N17_8 1_555 1_555
C66_6 N17_8 1_555 1_555
C71_6 O32_6 1_555 1_555
C26_11 H11_11 1_555 1_555
C41_11 O17_6 1_555 1_555
C16_11 C21_11 1_555 1_555
H16_11 C31_11 1_555 1_555
C36_11 C31_11 1_555 1_555
H21_11 C36_11 1_555 1_555
O11_6 Eu9_2 1_555 1_555
O27_7 Eu9_2 1_555 1_555
O52_7 Eu9_2 1_555 1_555
O54_11 H7_11 1_555 1_555
Eu9_2 O54_11 1_555 1_555
C16_11 O27_7 1_555 1_555
C16_11 N9_7 1_555 1_555
C36_11 N9_7 1_555 1_555
O7_12 Eu11 1_555 1_555
C23_6 H8_6 1_555 1_555
O14_6 Eu11 1_555 1_555
C38_6 O14_6 1_555 1_555
Eu9_3 O8_6 1_555 1_555
C13_6 C18_6 1_555 1_555
H13_6 C28_6 1_555 1_555
C33_6 C28_6 1_555 1_555
H18_6 C33_6 1_555 1_555
C47_11 C52_11 1_555 1_555
C52_11 C57_11 1_555 1_555
C57_11 H27_11 1_555 1_555
C62_11 C57_11 1_555 1_555
H32_11 C62_11 1_555 1_555
C67_11 C62_11 1_555 1_555
H37_11 C67_11 1_555 1_555
C72_11 C52_11 1_555 1_555
O27_8 Eu9_3 1_555 1_555
O33_6 Eu9_3 1_555 1_555
O52_8 Eu9_3 1_555 1_555
O54_12 H7_12 1_555 1_555
Eu9_3 O54_12 1_555 1_555
C13_6 O27_8 1_555 1_555
C13_6 N9_8 1_555 1_555
C33_6 N9_8 1_555 1_555
C47_11 N17_7 1_555 1_555
C67_11 N17_7 1_555 1_555
C72_11 O33_6 1_555 1_555
C72_11 O43_8 1_555 1_555
C26_12 H11_12 1_555 1_555
C41_12 O19_6 1_555 1_555
C16_12 C21_12 1_555 1_555
H16_12 C31_12 1_555 1_555
C36_12 C31_12 1_555 1_555
H21_12 C36_12 1_555 1_555
C47_12 C52_12 1_555 1_555
C52_12 C57_12 1_555 1_555
C57_12 H27_12 1_555 1_555
C62_12 C57_12 1_555 1_555
H32_12 C62_12 1_555 1_555
C67_12 C62_12 1_555 1_555
H37_12 C67_12 1_555 1_555
C72_12 C52_12 1_555 1_555
C16_12 O27_9 1_555 1_555
C16_12 N9_9 1_555 1_555
C36_12 N9_9 1_555 1_555
C47_12 O52_9 1_555 1_555
C47_12 N17_9 1_555 1_555
C67_12 N17_9 1_555 1_555
C72_12 O34_6 1_555 1_555
O7_9 H7_13 1_555 1_555
O7_10 H7_14 1_555 1_555
O7_11 H7_15 1_555 1_555
O7_12 H7_16 1_555 1_555

#END
