
###############################################################################
#
# This file contains modified crystal structure data generated from the
# MOF subset of the Cambridge Structural Database (CSD) v543 
# hosted by the Cambridge Crystallographic Data Centre (CCDC).
#
# This work is licensed under the Creative Commons
# Attribution-NonCommercial-ShareAlike 4.0 International License.
# To view a copy of this license, visit
# http://creativecommons.org/licenses/by-nc-sa/4.0/
# or send a letter to
# Creative Commons, PO Box 1866, Mountain View, CA 94042, USA.
#
# CIF created using the CSD Python API on 29 September 2022
# The structure has been converted into the P1 space group
# The structure has a 3D framework
# The original CSD entry ISUGIN is in the rhombohedral crystal system
# The framework has been calculated to contain at least 10.0% void space
# The void calculation uses a probe of radius 1.32A, grid spacing 0.4
#
###############################################################################

data_ISUGIN
_chemical_formula_moiety         '(C432 H232 Gd54 N72 O230)n'
_symmetry_cell_setting           triclinic
_symmetry_space_group_name_H-M   'P 1'
_symmetry_Int_Tables_number      1
_space_group_name_Hall           'P 1'
loop_
_symmetry_equiv_pos_site_id
_symmetry_equiv_pos_as_xyz
1 x,y,z
_cell_length_a                   17.0151(3)
_cell_length_b                   17.0151(3)
_cell_length_c                   56.2326(17)
_cell_angle_alpha                90
_cell_angle_beta                 90
_cell_angle_gamma                120
_cell_volume                     14099
loop_
_atom_site_label
_atom_site_type_symbol
_atom_site_fract_x
_atom_site_fract_y
_atom_site_fract_z
O6 O 0.0171(3) 0.1774(3) 0.07368(7)
O7 O -0.0000 -0.0000 0.02244(11)
H7 H -0.0000 -0.0000 0.0000
Gd7 Gd 0.018105(24) 0.138411(17) 0.034394(4)
Gd14 Gd 0.14052(2) 0.3333 0.0833
C17 C 0.1814(6) 0.3604(4) 0.03041(10)
C22 C 0.2089(6) 0.3625(4) 0.00671(12)
C26 C 0.4446(5) 0.1656(7) 0.00169(15)
H11 H 0.4489 0.1506 0.0173
C32 C 0.3203(9) 0.5197(5) 0.01283(16)
H17 H 0.3640 0.5759 0.0069
C37 C 0.2948(8) 0.5090(5) 0.03645(15)
H22 H 0.3260 0.5579 0.0467
C41 C 0.2793(4) 0.1082(4) 0.00834(10)
O12 O 0.1134(4) 0.2010(3) 0.00004(7)
O17 O 0.2847(3) 0.0849(4) 0.02912(8)
O24 O 0.1118(4) 0.2922(3) 0.04010(7)
O27 O 0.1529(3) 0.3745(3) 0.12657(7)
O35 O 0.1400(4) 0.1193(3) 0.05281(7)
O42 O 0.2132(4) 0.2514(3) 0.07169(9)
O43 O 0.2951(3) 0.4153(3) 0.09498(9)
O52 O 0.1730(4) 0.4893(3) 0.09299(7)
N7 N 0.2278(6) 0.4322(4) 0.04519(9)
N9 N 0.1289(4) 0.2345(4) 0.12148(9)
N16 N 0.0588(6) 0.4160(5) 0.06796(11)
H7_2 H 0.0000 -0.0000 1.0000
Gd4 Gd 0.138411(17) 0.120306(17) 0.965606(4)
Gd15 Gd 0.3333 0.19278(2) 0.9167
C16 C 0.3604(4) 0.1790(4) 0.96959(10)
C21 C 0.3625(4) 0.1536(5) 0.99329(12)
C27 C 0.2790(9) 0.4446(5) 0.99831(15)
H12 H 0.2983 0.4489 0.9827
C31 C 0.5197(5) 0.1994(8) 0.98717(16)
H16 H 0.5759 0.2119 0.9931
C36 C 0.5090(5) 0.2142(6) 0.96355(15)
H21 H 0.5579 0.2319 0.9533
C42 C 0.1711(6) 0.2793(4) 0.99166(10)
O11 O 0.2010(3) 0.0876(3) 0.99996(7)
O18 O 0.1998(5) 0.2847(3) 0.97088(8)
O23 O 0.2922(3) 0.1804(3) 0.95990(7)
O34 O 0.0207(3) 0.1400(4) 0.94719(7)
O40 O 0.2514(3) 0.0382(3) 0.92831(9)
O49 O 0.1774(3) 0.1603(4) 0.92632(7)
O54 O 0.0000 -0.0000 0.97756(11)
N6 N 0.4322(4) 0.2044(4) 0.95481(9)
O7_2 O 0.0000 1.0000 0.02244(11)
H7_3 H 0.0000 1.0000 0.0000
Gd6 Gd 0.120306(17) 0.981895(24) 0.034394(4)
Gd13 Gd 0.19278(2) 0.85948(2) 0.0833
C15 C 0.1790(4) 0.8186(6) 0.03041(10)
C20 C 0.1536(5) 0.7911(6) 0.00671(12)
C30 C 0.1994(8) 0.6797(9) 0.01283(16)
H15 H 0.2119 0.6360 0.0069
C35 C 0.2142(6) 0.7052(8) 0.03645(15)
H20 H 0.2319 0.6740 0.0467
O10 O 0.0876(3) 0.8866(4) 0.00004(7)
O22 O 0.1804(3) 0.8882(4) 0.04010(7)
O36 O 0.0382(3) 0.7868(4) 0.07169(9)
O50 O 0.1603(4) 0.9829(3) 0.07368(7)
N5 N 0.2044(4) 0.7722(6) 0.04519(9)
H7_4 H 0.0000 1.0000 1.0000
C25 C 0.1656(7) 0.7210(9) 0.99831(15)
H10 H 0.1506 0.7017 0.9827
C40 C 0.1082(4) 0.8289(6) 0.99166(10)
C47 C 0.0499(4) 0.8237(4) 0.91503(11)
C52 C 0.1414(4) 0.8937(5) 0.91648(12)
C57 C 0.2034(6) 0.8855(6) 0.90222(18)
H27 H 0.2639 0.9312 0.9022
C62 C 0.1757(8) 0.8095(8) 0.8879(2)
H32 H 0.2170 0.8037 0.8783
C67 C 0.0858(7) 0.7430(7) 0.8883(2)
H37 H 0.0674 0.6912 0.8791
C72 C 0.1729(4) 0.9758(4) 0.93154(10)
O16 O 0.0849(4) 0.8002(5) 0.97088(8)
O33 O 0.1193(3) 0.9793(3) 0.94719(7)
O54_2 O 0.0000 1.0000 0.97756(11)
N14 N 0.0238(4) 0.7493(5) 0.90129(11)
C7 C 0.9501(4) 0.1763(4) 0.08497(11)
C8 C 0.8586(4) 0.1063(5) 0.08352(12)
C9 C 0.7966(6) 0.1145(6) 0.09778(18)
H4 H 0.7361 0.0688 0.0978
C10 C 0.8243(8) 0.1905(8) 0.1121(2)
H5 H 0.7830 0.1963 0.1217
C11 C 0.9142(7) 0.2570(7) 0.1117(2)
H6 H 0.9326 0.3088 0.1209
C12 C 0.8271(4) 0.0242(4) 0.06846(10)
O4 O 0.8807(3) 0.0207(3) 0.05281(7)
O7_3 O 1.0000 -0.0000 0.02244(11)
H7_5 H 1.0000 -0.0000 0.0000
N2 N 0.9762(4) 0.2507(5) 0.09871(11)
H14 H 0.9092 0.0307 0.1598
C59 C 0.5090(8) 0.0329(11) 0.0546(2)
H29 H 0.5503 0.0800 0.0450
C64 C 0.4191(7) 0.0095(10) 0.0550(2)
H34 H 0.4007 0.0429 0.0458
O19 O 0.9151(4) 0.1998(5) 0.02912(8)
H7_6 H 1.0000 -0.0000 1.0000
Gd5 Gd 0.879694(17) 0.018105(24) 0.965606(4)
Gd18 Gd 0.80722(2) 0.14052(2) 0.9167
O13 O 0.9124(3) 0.1134(4) 0.99996(7)
O25 O 0.8196(3) 0.1118(4) 0.95990(7)
O47 O 0.8397(4) 0.0171(3) 0.92632(7)
O54_3 O 1.0000 -0.0000 0.97756(11)
Gd1 Gd 0.861589(17) 0.879694(17) 0.034394(4)
Gd2 Gd 0.6667 0.80722(2) 0.0833
C1 C 0.6396(4) 0.8210(4) 0.03041(10)
C2 C 0.6375(4) 0.8464(5) 0.00671(12)
C4 C 0.4803(5) 0.8006(8) 0.01283(16)
H2 H 0.4241 0.7881 0.0069
C5 C 0.4910(5) 0.7858(6) 0.03645(15)
H3 H 0.4421 0.7681 0.0467
O1 O 0.7990(3) 0.9124(3) 0.00004(7)
O3 O 0.7078(3) 0.8196(3) 0.04010(7)
O5 O 0.7486(3) 0.9618(3) 0.07169(9)
O7_4 O 1.0000 1.0000 0.02244(11)
H7_7 H 1.0000 1.0000 0.0000
N1 N 0.5678(4) 0.7956(4) 0.04519(9)
Gd8 Gd 0.471744(17) 0.684772(24) 0.132273(4)
Gd9 Gd 0.453639(17) 0.805078(17) 0.201061(4)
Gd10 Gd 0.315228(24) 0.786973(17) 0.132273(4)
Gd11 Gd 0.213027(17) 0.528256(17) 0.132273(4)
C14 C 0.6937(4) 0.8481(6) 0.13626(10)
C19 C 0.6958(4) 0.8756(6) 0.15996(12)
C23 C 0.7210(9) 0.5554(5) 0.00169(15)
C24 C 0.7779(5) 0.9457(9) 0.16836(15)
H8 H 0.7017 0.5511 0.0173
H9 H 0.7822 0.9650 0.1840
C29 C 0.8530(5) 0.9870(9) 0.15384(16)
C34 C 0.8423(5) 0.9615(8) 0.13022(15)
H19 H 0.8912 0.9927 0.1200
C38 C 0.8289(6) 0.7207(4) 0.00834(10)
C39 C 0.6126(4) 0.8378(6) 0.17501(10)
C43 C 0.8237(4) 0.7738(6) 0.08497(11)
C44 C 0.3832(4) 0.8929(6) 0.08170(11)
C45 C 0.5096(4) 0.6168(4) 0.08170(11)
C48 C 0.8937(5) 0.7523(6) 0.08352(12)
C49 C 0.4747(4) 0.9144(6) 0.08315(12)
C50 C 0.4396(5) 0.5253(4) 0.08315(12)
C53 C 0.8855(6) 0.6821(8) 0.09778(18)
C54 C 0.5367(6) 0.9846(8) 0.06889(18)
C55 C 0.4478(6) 0.4633(6) 0.06889(18)
H23 H 0.9312 0.6673 0.0978
H24 H 0.5972 0.9994 0.0689
H25 H 0.4021 0.4028 0.0689
C58 C 0.8095(8) 0.6338(11) 0.1121(2)
C60 C 0.5238(8) 0.4910(8) 0.0546(2)
H28 H 0.8037 0.5867 0.1217
H30 H 0.5296 0.4497 0.0450
C63 C 0.7430(7) 0.6572(10) 0.1117(2)
C65 C 0.5903(7) 0.5809(7) 0.0550(2)
H33 H 0.6912 0.6238 0.1209
H35 H 0.6421 0.5993 0.0458
C68 C 0.9758(4) 0.8029(6) 0.06846(10)
C69 C 0.5062(4) 0.8638(6) 0.09821(10)
C70 C 0.3575(4) 0.4938(4) 0.09821(10)
O9 O 0.5343(3) 0.7801(4) 0.16663(7)
O14 O 0.8002(5) 0.7153(3) 0.02912(8)
O15 O 0.6180(3) 0.8665(5) 0.19579(8)
O21 O 0.6255(3) 0.7785(4) 0.12657(7)
O29 O 0.9793(3) 0.8600(4) 0.05281(7)
O30 O 0.4526(3) 0.8067(4) 0.11386(7)
O31 O 0.3540(3) 0.5474(3) 0.11386(7)
O37 O 0.5847(3) 0.8799(4) 0.09498(9)
O44 O 0.8226(3) 0.8397(4) 0.07368(7)
O45 O 0.3162(3) 0.8270(4) 0.09299(7)
O46 O 0.5107(3) 0.6838(3) 0.09299(7)
N4 N 0.7655(4) 0.8945(6) 0.12148(9)
N10 N 0.7493(5) 0.7255(6) 0.09871(11)
N11 N 0.3571(4) 0.9412(6) 0.06796(11)
N12 N 0.5840(5) 0.6429(4) 0.06796(11)
C3 C 0.5554(5) 0.8344(7) 0.99831(15)
H1 H 0.5511 0.8494 0.9827
C6 C 0.7207(4) 0.8918(4) 0.99166(10)
O2 O 0.7153(3) 0.9151(4) 0.97088(8)
H7_8 H 1.0000 1.0000 1.0000
Gd3 Gd 0.981895(24) 0.861589(17) 0.965606(4)
Gd12 Gd 0.85948(2) 0.6667 0.9167
C13 C 0.8186(6) 0.6396(4) 0.96959(10)
C18 C 0.7911(6) 0.6375(4) 0.99329(12)
C28 C 0.6797(9) 0.4803(5) 0.98717(16)
H13 H 0.6360 0.4241 0.9931
C33 C 0.7052(8) 0.4910(5) 0.96355(15)
H18 H 0.6740 0.4421 0.9533
C46 C 0.7738(6) 0.9501(4) 0.91503(11)
C51 C 0.7523(6) 0.8586(4) 0.91648(12)
C56 C 0.6821(8) 0.7966(6) 0.90222(18)
H26 H 0.6673 0.7361 0.9022
C61 C 0.6338(11) 0.8243(8) 0.8879(2)
H31 H 0.5867 0.7830 0.8783
C66 C 0.6572(10) 0.9142(7) 0.8883(2)
H36 H 0.6238 0.9326 0.8791
C71 C 0.8029(6) 0.8271(4) 0.93154(10)
O8 O 0.8866(4) 0.7990(3) 0.99996(7)
O20 O 0.8882(4) 0.7078(3) 0.95990(7)
O26 O 0.8471(3) 0.6255(3) 0.87343(7)
O32 O 0.8600(4) 0.8807(3) 0.94719(7)
O39 O 0.7868(4) 0.7486(3) 0.92831(9)
O41 O 0.7049(3) 0.5847(3) 0.90502(9)
O48 O 0.9829(3) 0.8226(3) 0.92632(7)
O51 O 0.8270(4) 0.5107(3) 0.90701(7)
O54_4 O 1.0000 1.0000 0.97756(11)
N3 N 0.7722(6) 0.5678(4) 0.95481(9)
N8 N 0.8711(4) 0.7655(4) 0.87852(9)
N13 N 0.7255(6) 0.9762(4) 0.90129(11)
N15 N 0.9412(6) 0.5840(5) 0.93204(11)
C43_2 C 0.2262(6) 0.0499(7) 0.08497(11)
C48_2 C 0.2477(6) 0.1414(8) 0.08352(12)
C53_2 C 0.3179(8) 0.2034(10) 0.09778(18)
H23_2 H 0.3327 0.2639 0.0978
C58_2 C 0.3662(11) 0.1757(14) 0.1121(2)
H28_2 H 0.4133 0.2170 0.1217
C63_2 C 0.3428(10) 0.0858(12) 0.1117(2)
H33_2 H 0.3762 0.0674 0.1209
C68_2 C 0.1971(6) 0.1729(7) 0.06846(10)
N10_2 N 0.2745(6) 0.0238(8) 0.09871(11)
C47_2 C 0.1763(4) 0.2262(6) 0.91503(11)
C52_2 C 0.1063(5) 0.2477(6) 0.91648(12)
C57_2 C 0.1145(6) 0.3179(8) 0.90222(18)
H27_2 H 0.0688 0.3327 0.9022
C62_2 C 0.1905(8) 0.3662(11) 0.8879(2)
H32_2 H 0.1963 0.4133 0.8783
C67_2 C 0.2570(7) 0.3428(10) 0.8883(2)
H37_2 H 0.3088 0.3762 0.8791
C72_2 C 0.0242(4) 0.1971(6) 0.93154(10)
O26_2 O 0.3745(3) 0.2215(4) 0.87343(7)
O41_2 O 0.4153(3) 0.1201(4) 0.90502(9)
O51_2 O 0.4893(3) 0.3162(5) 0.90701(7)
N8_2 N 0.2345(4) 0.1055(6) 0.87852(9)
N14_2 N 0.2507(5) 0.2745(6) 0.90129(11)
N15_2 N 0.4160(5) 0.3571(8) 0.93204(11)
Gd9_2 Gd 0.194922(17) 0.648562(24) 0.201061(4)
C14_2 C 0.1519(6) 0.8457(7) 0.13626(10)
C19_2 C 0.1244(6) 0.8203(7) 0.15996(12)
C24_2 C 0.0543(9) 0.8323(10) 0.16836(15)
H9_2 H 0.0350 0.8173 0.1840
C29_2 C 0.0130(9) 0.8661(10) 0.15384(16)
C34_2 C 0.0385(8) 0.8809(9) 0.13022(15)
H19_2 H 0.0073 0.8986 0.1200
C39_2 C 0.1622(6) 0.7749(7) 0.17501(10)
C44_2 C 0.1071(6) 0.4904(7) 0.08170(11)
C49_2 C 0.0856(6) 0.5604(7) 0.08315(12)
C54_2 C 0.0154(8) 0.5522(10) 0.06889(18)
H24_2 H 0.0006 0.5979 0.0689
C69_2 C 0.1362(6) 0.6425(7) 0.09821(10)
O9_2 O 0.2199(4) 0.7543(5) 0.16663(7)
O15_2 O 0.1335(5) 0.7516(6) 0.19579(8)
O21_2 O 0.2215(4) 0.8471(5) 0.12657(7)
O30_2 O 0.1933(4) 0.6460(5) 0.11386(7)
O37_2 O 0.1201(4) 0.7049(5) 0.09498(9)
N4_2 N 0.1055(6) 0.8711(7) 0.12148(9)
C26_2 C 0.8344(7) 0.2790(9) 0.00169(15)
H11_2 H 0.8494 0.2983 0.0173
C41_2 C 0.8918(4) 0.1711(6) 0.00834(10)
C16_2 C 0.8210(4) 0.1814(6) 0.96959(10)
C21_2 C 0.8464(5) 0.2089(6) 0.99329(12)
C31_2 C 0.8006(8) 0.3203(9) 0.98717(16)
H16_2 H 0.7881 0.3640 0.9931
C36_2 C 0.7858(6) 0.2948(8) 0.96355(15)
H21_2 H 0.7681 0.3260 0.9533
O40_2 O 0.9618(3) 0.2132(4) 0.92831(9)
N6_2 N 0.7956(4) 0.2278(6) 0.95481(9)
H14_2 H 0.9693 0.8786 0.1598
C59_2 C 0.9671(11) 0.4762(14) 0.0546(2)
H29_2 H 0.9200 0.4704 0.0450
C64_2 C 0.9905(10) 0.4097(12) 0.0550(2)
H34_2 H 0.9571 0.3579 0.0458
Gd9_3 Gd 0.351438(24) 0.546361(17) 0.201061(4)
C14_3 C 0.1543(7) 0.3063(4) 0.13626(10)
C19_3 C 0.1797(7) 0.3042(4) 0.15996(12)
C24_3 C 0.1677(10) 0.2221(5) 0.16836(15)
H9_3 H 0.1827 0.2178 0.1840
C29_3 C 0.1339(10) 0.1470(5) 0.15384(16)
H14_3 H 0.1214 0.0908 0.1598
C34_3 C 0.1191(9) 0.1577(5) 0.13022(15)
H19_3 H 0.1014 0.1088 0.1200
C39_3 C 0.2251(7) 0.3874(4) 0.17501(10)
O9_3 O 0.2457(5) 0.4657(3) 0.16663(7)
O15_3 O 0.2484(6) 0.3820(3) 0.19579(8)
O26_3 O 0.7785(4) 0.1529(3) 0.87343(7)
O41_3 O 0.8799(4) 0.2951(3) 0.90502(9)
O51_3 O 0.6838(5) 0.1730(4) 0.90701(7)
N8_3 N 0.8945(6) 0.1289(4) 0.87852(9)
N15_3 N 0.6429(8) 0.0588(6) 0.93204(11)
O6_2 O 0.1774(3) 0.0171(3) 0.42632(7)
O7_5 O -0.0000 -0.0000 0.47756(11)
H7_9 H -0.0000 -0.0000 0.5000
Gd4_2 Gd 0.120306(17) 0.138411(17) 0.534394(4)
Gd7_2 Gd 0.138411(17) 0.018105(24) 0.465606(4)
Gd14_2 Gd 0.3333 0.14052(2) 0.4167
Gd15_2 Gd 0.19278(2) 0.3333 0.5833
C16_3 C 0.1790(4) 0.3604(4) 0.53041(10)
C17_2 C 0.3604(4) 0.1814(6) 0.46959(10)
C21_3 C 0.1536(5) 0.3625(4) 0.50671(12)
C22_2 C 0.3625(4) 0.2089(6) 0.49329(12)
C26_3 C 0.1656(7) 0.4446(5) 0.49831(15)
C27_2 C 0.4446(5) 0.2790(9) 0.50169(15)
H11_3 H 0.1506 0.4489 0.4827
H12_2 H 0.4489 0.2983 0.5173
C31_3 C 0.1994(8) 0.5197(5) 0.51283(16)
C32_2 C 0.5197(5) 0.3203(9) 0.48717(16)
H16_3 H 0.2119 0.5759 0.5069
H17_2 H 0.5759 0.3640 0.4931
C36_3 C 0.2142(6) 0.5090(5) 0.53645(15)
C37_2 C 0.5090(5) 0.2948(8) 0.46355(15)
H21_3 H 0.2319 0.5579 0.5467
H22_2 H 0.5579 0.3260 0.4533
C41_3 C 0.1082(4) 0.2793(4) 0.49166(10)
C42_2 C 0.2793(4) 0.1711(6) 0.50834(10)
O11_2 O 0.0876(3) 0.2010(3) 0.50004(7)
O12_2 O 0.2010(3) 0.1134(4) 0.49996(7)
O17_2 O 0.0849(4) 0.2847(3) 0.47088(8)
O18_2 O 0.2847(3) 0.1998(5) 0.52912(8)
O23_2 O 0.1804(3) 0.2922(3) 0.54010(7)
O24_2 O 0.2922(3) 0.1118(4) 0.45990(7)
O27_2 O 0.3745(3) 0.1529(3) 0.37343(7)
O34_2 O 0.1400(4) 0.0207(3) 0.55281(7)
O35_2 O 0.1193(3) 0.1400(4) 0.44719(7)
O40_3 O 0.0382(3) 0.2514(3) 0.57169(9)
O42_2 O 0.2514(3) 0.2132(4) 0.42831(9)
O43_2 O 0.4153(3) 0.2951(3) 0.40502(9)
O49_2 O 0.1603(4) 0.1774(3) 0.57368(7)
O52_2 O 0.4893(3) 0.1730(4) 0.40701(7)
O54_5 O -0.0000 -0.0000 0.52244(11)
N6_3 N 0.2044(4) 0.4322(4) 0.54519(9)
N7_2 N 0.4322(4) 0.2278(6) 0.45481(9)
N9_2 N 0.2345(4) 0.1289(4) 0.37852(9)
N16_2 N 0.4160(5) 0.0588(6) 0.43204(11)
C7_2 C 0.1763(4) 0.9501(4) 0.41503(11)
C8_2 C 0.1063(5) 0.8586(4) 0.41648(12)
C9_2 C 0.1145(6) 0.7966(6) 0.40222(18)
H4_2 H 0.0688 0.7361 0.4022
C10_2 C 0.1905(8) 0.8243(8) 0.3879(2)
H5_2 H 0.1963 0.7830 0.3783
C11_2 C 0.2570(7) 0.9142(7) 0.3883(2)
H6_2 H 0.3088 0.9326 0.3791
C12_2 C 0.0242(4) 0.8271(4) 0.43154(10)
O4_2 O 0.0207(3) 0.8807(3) 0.44719(7)
O7_6 O -0.0000 1.0000 0.47756(11)
H7_10 H -0.0000 1.0000 0.5000
N2_2 N 0.2507(5) 0.9762(4) 0.40129(11)
Gd5_2 Gd 0.018105(24) 0.879694(17) 0.534394(4)
Gd18_2 Gd 0.14052(2) 0.80722(2) 0.5833
H14_4 H 0.0307 0.9092 0.3402
C59_3 C 0.0329(11) 0.5090(8) 0.4454(2)
H29_3 H 0.0800 0.5503 0.4550
C64_3 C 0.0095(10) 0.4191(7) 0.4450(2)
H34_3 H 0.0429 0.4007 0.4542
O13_2 O 0.1134(4) 0.9124(3) 0.50004(7)
O19_2 O 0.1998(5) 0.9151(4) 0.47088(8)
O25_2 O 0.1118(4) 0.8196(3) 0.54010(7)
O47_2 O 0.0171(3) 0.8397(4) 0.57368(7)
O54_6 O -0.0000 1.0000 0.52244(11)
O7_7 O 1.0000 -0.0000 0.47756(11)
H7_11 H 1.0000 -0.0000 0.5000
Gd6_2 Gd 0.981895(24) 0.120306(17) 0.465606(4)
Gd13_2 Gd 0.85948(2) 0.19278(2) 0.4167
C15_2 C 0.8186(6) 0.1790(4) 0.46959(10)
C20_2 C 0.7911(6) 0.1536(5) 0.49329(12)
C25_2 C 0.7210(9) 0.1656(7) 0.50169(15)
H10_2 H 0.7017 0.1506 0.5173
C30_2 C 0.6797(9) 0.1994(8) 0.48717(16)
H15_2 H 0.6360 0.2119 0.4931
C35_2 C 0.7052(8) 0.2142(6) 0.46355(15)
H20_2 H 0.6740 0.2319 0.4533
C40_2 C 0.8289(6) 0.1082(4) 0.50834(10)
C47_3 C 0.8237(4) 0.0499(4) 0.58497(11)
C52_3 C 0.8937(5) 0.1414(4) 0.58352(12)
C57_3 C 0.8855(6) 0.2034(6) 0.59778(18)
H27_3 H 0.9312 0.2639 0.5978
C62_3 C 0.8095(8) 0.1757(8) 0.6121(2)
H32_3 H 0.8037 0.2170 0.6217
C67_3 C 0.7430(7) 0.0858(7) 0.6117(2)
H37_3 H 0.6912 0.0674 0.6209
C72_3 C 0.9758(4) 0.1729(4) 0.56846(10)
O10_2 O 0.8866(4) 0.0876(3) 0.49996(7)
O16_2 O 0.8002(5) 0.0849(4) 0.52912(8)
O22_2 O 0.8882(4) 0.1804(3) 0.45990(7)
O33_2 O 0.9793(3) 0.1193(3) 0.55281(7)
O36_2 O 0.7868(4) 0.0382(3) 0.42831(9)
O50_2 O 0.9829(3) 0.1603(4) 0.42632(7)
O54_7 O 1.0000 -0.0000 0.52244(11)
N5_2 N 0.7722(6) 0.2044(4) 0.45481(9)
N14_3 N 0.7493(5) 0.0238(4) 0.59871(11)
Gd1_2 Gd 0.879694(17) 0.861589(17) 0.465606(4)
Gd2_2 Gd 0.80722(2) 0.6667 0.4167
C1_2 C 0.8210(4) 0.6396(4) 0.46959(10)
C2_2 C 0.8464(5) 0.6375(4) 0.49329(12)
C3_2 C 0.8344(7) 0.5554(5) 0.50169(15)
H1_2 H 0.8494 0.5511 0.5173
C4_2 C 0.8006(8) 0.4803(5) 0.48717(16)
H2_2 H 0.7881 0.4241 0.4931
C5_2 C 0.7858(6) 0.4910(5) 0.46355(15)
H3_2 H 0.7681 0.4421 0.4533
C6_2 C 0.8918(4) 0.7207(4) 0.50834(10)
O1_2 O 0.9124(3) 0.7990(3) 0.49996(7)
O2_2 O 0.9151(4) 0.7153(3) 0.52912(8)
O3_2 O 0.8196(3) 0.7078(3) 0.45990(7)
O5_2 O 0.9618(3) 0.7486(3) 0.42831(9)
O7_8 O 1.0000 1.0000 0.47756(11)
H7_12 H 1.0000 1.0000 0.5000
N1_2 N 0.7956(4) 0.5678(4) 0.45481(9)
Gd3_2 Gd 0.861589(17) 0.981895(24) 0.534394(4)
Gd8_2 Gd 0.684772(24) 0.471744(17) 0.367727(4)
Gd9_4 Gd 0.805078(17) 0.453639(17) 0.298939(4)
Gd10_2 Gd 0.786973(17) 0.315228(24) 0.367727(4)
Gd11_2 Gd 0.528256(17) 0.213027(17) 0.367727(4)
Gd12_2 Gd 0.6667 0.85948(2) 0.5833
C13_2 C 0.6396(4) 0.8186(6) 0.53041(10)
C14_4 C 0.8481(6) 0.6937(4) 0.36374(10)
C18_2 C 0.6375(4) 0.7911(6) 0.50671(12)
C19_4 C 0.8756(6) 0.6958(4) 0.34004(12)
C23_2 C 0.5554(5) 0.7210(9) 0.49831(15)
C24_4 C 0.9457(9) 0.7779(5) 0.33164(15)
H8_2 H 0.5511 0.7017 0.4827
H9_4 H 0.9650 0.7822 0.3160
C28_2 C 0.4803(5) 0.6797(9) 0.51283(16)
C29_4 C 0.9870(9) 0.8530(5) 0.34616(16)
H13_2 H 0.4241 0.6360 0.5069
C33_2 C 0.4910(5) 0.7052(8) 0.53645(15)
C34_4 C 0.9615(8) 0.8423(5) 0.36978(15)
H18_2 H 0.4421 0.6740 0.5467
H19_4 H 0.9927 0.8912 0.3800
C38_2 C 0.7207(4) 0.8289(6) 0.49166(10)
C39_4 C 0.8378(6) 0.6126(4) 0.32499(10)
C43_3 C 0.7738(6) 0.8237(4) 0.41503(11)
C44_3 C 0.8929(6) 0.3832(4) 0.41830(11)
C45_2 C 0.6168(4) 0.5096(4) 0.41830(11)
C46_2 C 0.9501(4) 0.7738(6) 0.58497(11)
C48_3 C 0.7523(6) 0.8937(5) 0.41648(12)
C49_3 C 0.9144(6) 0.4747(4) 0.41685(12)
C50_2 C 0.5253(4) 0.4396(5) 0.41685(12)
C51_2 C 0.8586(4) 0.7523(6) 0.58352(12)
C53_3 C 0.6821(8) 0.8855(6) 0.40222(18)
C54_3 C 0.9846(8) 0.5367(6) 0.43111(18)
C55_2 C 0.4633(6) 0.4478(6) 0.43111(18)
C56_2 C 0.7966(6) 0.6821(8) 0.59778(18)
H23_3 H 0.6673 0.9312 0.4022
H24_3 H 0.9994 0.5972 0.4311
H25_2 H 0.4028 0.4021 0.4311
H26_2 H 0.7361 0.6673 0.5978
C58_3 C 0.6338(11) 0.8095(8) 0.3879(2)
C60_2 C 0.4910(8) 0.5238(8) 0.4454(2)
C61_2 C 0.8243(8) 0.6338(11) 0.6121(2)
H28_3 H 0.5867 0.8037 0.3783
H30_2 H 0.4497 0.5296 0.4550
H31_2 H 0.7830 0.5867 0.6217
C63_3 C 0.6572(10) 0.7430(7) 0.3883(2)
C65_2 C 0.5809(7) 0.5903(7) 0.4450(2)
C66_2 C 0.9142(7) 0.6572(10) 0.6117(2)
H33_3 H 0.6238 0.6912 0.3791
H35_2 H 0.5993 0.6421 0.4542
H36_2 H 0.9326 0.6238 0.6209
C68_3 C 0.8029(6) 0.9758(4) 0.43154(10)
C69_3 C 0.8638(6) 0.5062(4) 0.40179(10)
C70_2 C 0.4938(4) 0.3575(4) 0.40179(10)
C71_2 C 0.8271(4) 0.8029(6) 0.56846(10)
O8_2 O 0.7990(3) 0.8866(4) 0.50004(7)
O9_4 O 0.7801(4) 0.5343(3) 0.33337(7)
O14_2 O 0.7153(3) 0.8002(5) 0.47088(8)
O15_4 O 0.8665(5) 0.6180(3) 0.30421(8)
O20_2 O 0.7078(3) 0.8882(4) 0.54010(7)
O21_3 O 0.7785(4) 0.6255(3) 0.37343(7)
O26_4 O 0.6255(3) 0.8471(3) 0.62657(7)
O29_2 O 0.8600(4) 0.9793(3) 0.44719(7)
O30_3 O 0.8067(4) 0.4526(3) 0.38614(7)
O31_2 O 0.5474(3) 0.3540(3) 0.38614(7)
O32_2 O 0.8807(3) 0.8600(4) 0.55281(7)
O37_3 O 0.8799(4) 0.5847(3) 0.40502(9)
O39_2 O 0.7486(3) 0.7868(4) 0.57169(9)
O41_4 O 0.5847(3) 0.7049(3) 0.59498(9)
O44_2 O 0.8397(4) 0.8226(3) 0.42632(7)
O45_2 O 0.8270(4) 0.3162(3) 0.40701(7)
O46_2 O 0.6838(3) 0.5107(3) 0.40701(7)
O48_2 O 0.8226(3) 0.9829(3) 0.57368(7)
O51_4 O 0.5107(3) 0.8270(4) 0.59299(7)
O54_8 O 1.0000 1.0000 0.52244(11)
N3_2 N 0.5678(4) 0.7722(6) 0.54519(9)
N4_3 N 0.8945(6) 0.7655(4) 0.37852(9)
N8_4 N 0.7655(4) 0.8711(4) 0.62148(9)
N10_3 N 0.7255(6) 0.7493(5) 0.40129(11)
N11_2 N 0.9412(6) 0.3571(4) 0.43204(11)
N12_2 N 0.6429(4) 0.5840(5) 0.43204(11)
N13_2 N 0.9762(4) 0.7255(6) 0.59871(11)
N15_4 N 0.5840(5) 0.9412(6) 0.56796(11)
C43_4 C 0.0499(7) 0.2262(6) 0.41503(11)
C47_4 C 0.2262(6) 0.1763(4) 0.58497(11)
C48_4 C 0.1414(8) 0.2477(6) 0.41648(12)
C52_4 C 0.2477(6) 0.1063(5) 0.58352(12)
C53_4 C 0.2034(10) 0.3179(8) 0.40222(18)
C57_4 C 0.3179(8) 0.1145(6) 0.59778(18)
H23_4 H 0.2639 0.3327 0.4022
H27_4 H 0.3327 0.0688 0.5978
C58_4 C 0.1757(14) 0.3662(11) 0.3879(2)
C62_4 C 0.3662(11) 0.1905(8) 0.6121(2)
H28_4 H 0.2170 0.4133 0.3783
H32_4 H 0.4133 0.1963 0.6217
C63_4 C 0.0858(12) 0.3428(10) 0.3883(2)
C67_4 C 0.3428(10) 0.2570(7) 0.6117(2)
H33_4 H 0.0674 0.3762 0.3791
H37_4 H 0.3762 0.3088 0.6209
C68_4 C 0.1729(7) 0.1971(6) 0.43154(10)
C72_4 C 0.1971(6) 0.0242(4) 0.56846(10)
O26_5 O 0.2215(4) 0.3745(3) 0.62657(7)
O41_5 O 0.1201(4) 0.4153(3) 0.59498(9)
O51_5 O 0.3162(5) 0.4893(3) 0.59299(7)
N8_5 N 0.1055(6) 0.2345(4) 0.62148(9)
N10_4 N 0.0238(8) 0.2745(6) 0.40129(11)
N14_4 N 0.2745(6) 0.2507(5) 0.59871(11)
N15_5 N 0.3571(8) 0.4160(5) 0.56796(11)
C16_4 C 0.1814(6) 0.8210(4) 0.53041(10)
C21_4 C 0.2089(6) 0.8464(5) 0.50671(12)
C26_4 C 0.2790(9) 0.8344(7) 0.49831(15)
H11_4 H 0.2983 0.8494 0.4827
C31_4 C 0.3203(9) 0.8006(8) 0.51283(16)
H16_4 H 0.3640 0.7881 0.5069
C36_4 C 0.2948(8) 0.7858(6) 0.53645(15)
H21_4 H 0.3260 0.7681 0.5467
C41_4 C 0.1711(6) 0.8918(4) 0.49166(10)
O40_4 O 0.2132(4) 0.9618(3) 0.57169(9)
N6_4 N 0.2278(6) 0.7956(4) 0.54519(9)
Gd9_5 Gd 0.648562(24) 0.194922(17) 0.298939(4)
C14_5 C 0.8457(7) 0.1519(6) 0.36374(10)
C19_5 C 0.8203(7) 0.1244(6) 0.34004(12)
C24_5 C 0.8323(10) 0.0543(9) 0.33164(15)
H9_5 H 0.8173 0.0350 0.3160
C29_5 C 0.8661(10) 0.0130(9) 0.34616(16)
C34_5 C 0.8809(9) 0.0385(8) 0.36978(15)
H19_5 H 0.8986 0.0073 0.3800
C39_5 C 0.7749(7) 0.1622(6) 0.32499(10)
C44_4 C 0.4904(7) 0.1071(6) 0.41830(11)
C49_4 C 0.5604(7) 0.0856(6) 0.41685(12)
C54_4 C 0.5522(10) 0.0154(8) 0.43111(18)
H24_4 H 0.5979 0.0006 0.4311
C69_4 C 0.6425(7) 0.1362(6) 0.40179(10)
O9_5 O 0.7543(5) 0.2199(4) 0.33337(7)
O15_5 O 0.7516(6) 0.1335(5) 0.30421(8)
O21_4 O 0.8471(5) 0.2215(4) 0.37343(7)
O30_4 O 0.6460(5) 0.1933(4) 0.38614(7)
O37_4 O 0.7049(5) 0.1201(4) 0.40502(9)
N4_4 N 0.8711(7) 0.1055(6) 0.37852(9)
H14_5 H 0.8786 0.9693 0.3402
C59_4 C 0.4762(14) 0.9671(11) 0.4454(2)
H29_4 H 0.4704 0.9200 0.4550
C64_4 C 0.4097(12) 0.9905(10) 0.4450(2)
H34_4 H 0.3579 0.9571 0.4542
Gd9_6 Gd 0.546361(17) 0.351438(24) 0.298939(4)
C14_6 C 0.3063(4) 0.1543(7) 0.36374(10)
C19_6 C 0.3042(4) 0.1797(7) 0.34004(12)
C24_6 C 0.2221(5) 0.1677(10) 0.33164(15)
H9_6 H 0.2178 0.1827 0.3160
C29_6 C 0.1470(5) 0.1339(10) 0.34616(16)
H14_6 H 0.0908 0.1214 0.3402
C34_6 C 0.1577(5) 0.1191(9) 0.36978(15)
H19_6 H 0.1088 0.1014 0.3800
C39_6 C 0.3874(4) 0.2251(7) 0.32499(10)
O9_6 O 0.4657(3) 0.2457(5) 0.33337(7)
O15_6 O 0.3820(3) 0.2484(6) 0.30421(8)
O26_6 O 0.1529(3) 0.7785(4) 0.62657(7)
O41_6 O 0.2951(3) 0.8799(4) 0.59498(9)
O51_6 O 0.1730(4) 0.6838(5) 0.59299(7)
N8_6 N 0.1289(4) 0.8945(6) 0.62148(9)
N15_6 N 0.0588(6) 0.6429(8) 0.56796(11)
Gd15_3 Gd -0.0000 0.52611(2) 0.2500
C16_5 C 0.0271(4) 0.5123(4) 0.30292(10)
C21_5 C 0.0292(4) 0.4869(5) 0.32662(12)
C26_5 C 0.1113(5) 0.4989(7) 0.33502(15)
H11_5 H 0.1156 0.4839 0.3506
C31_5 C 0.1864(5) 0.5327(8) 0.32050(16)
H16_5 H 0.2426 0.5452 0.3264
C36_5 C 0.1757(5) 0.5475(6) 0.29688(15)
H21_5 H 0.2246 0.5652 0.2866
N6_5 N 0.0989(4) 0.5377(4) 0.28814(9)
O7_9 O 0.6667 0.3333 0.35577(11)
H7_13 H 0.6667 0.3333 0.3333
Gd12_3 Gd 0.52615(2) 0.0000 0.2500
Gd15_4 Gd 1.0000 0.52611(2) 0.2500
Gd18_3 Gd 0.47389(2) 0.47385(2) 0.2500
C38_3 C 0.4956(6) 0.0540(4) 0.34167(10)
C41_5 C 0.9460(4) 0.4415(4) 0.34167(10)
C46_3 C 0.4405(6) 0.2834(4) 0.24836(11)
C47_5 C 0.7166(4) 0.1570(4) 0.24836(11)
C51_3 C 0.4190(6) 0.1919(4) 0.24981(12)
C52_5 C 0.8081(4) 0.2270(5) 0.24981(12)
C56_3 C 0.3488(8) 0.1299(6) 0.23555(18)
C57_5 C 0.8701(6) 0.2188(6) 0.23555(18)
H26_3 H 0.3340 0.0694 0.2355
H27_5 H 0.9306 0.2645 0.2355
C61_3 C 0.3005(11) 0.1576(8) 0.2212(2)
C62_5 C 0.8424(8) 0.1428(8) 0.2212(2)
H31_3 H 0.2534 0.1163 0.2116
H32_5 H 0.8837 0.1370 0.2116
C66_3 C 0.3239(10) 0.2475(7) 0.2216(2)
C67_5 C 0.7525(7) 0.0763(7) 0.2216(2)
H36_3 H 0.2905 0.2659 0.2124
H37_5 H 0.7341 0.0245 0.2124
C71_3 C 0.4696(6) 0.1604(4) 0.26487(10)
C72_5 C 0.8396(4) 0.3091(4) 0.26487(10)
O8_3 O 0.5533(4) 0.1323(3) 0.33329(7)
O11_3 O 0.8677(3) 0.4209(3) 0.33329(7)
O13_3 O 0.5791(3) 0.4467(4) 0.33329(7)
O14_3 O 0.4669(5) 0.0486(3) 0.36245(8)
O17_3 O 0.9514(3) 0.4182(4) 0.36245(8)
O19_3 O 0.5818(4) 0.5331(5) 0.36245(8)
O20_3 O 0.5549(4) 0.0411(3) 0.29323(7)
O23_3 O 0.9589(3) 0.5137(3) 0.29323(7)
O25_3 O 0.4863(3) 0.4451(4) 0.29323(7)
O32_3 O 0.5267(4) 0.2140(3) 0.28052(7)
O33_3 O 0.7860(3) 0.3126(3) 0.28052(7)
O34_3 O 0.6874(3) 0.4733(4) 0.28052(7)
O39_3 O 0.4535(4) 0.0819(3) 0.26164(9)
O40_5 O 0.9181(3) 0.3715(3) 0.26164(9)
O47_3 O 0.5064(4) 0.3504(3) 0.25965(7)
O48_3 O 0.6496(3) 0.1559(3) 0.25965(7)
O49_3 O 0.8441(3) 0.4936(4) 0.25965(7)
O54_9 O 0.6667 0.3333 0.31089(11)
N8_7 N 0.5377(4) 0.0989(4) 0.21186(9)
N13_3 N 0.3922(6) 0.3095(4) 0.23462(11)
N14_5 N 0.6905(4) 0.0826(5) 0.23462(11)
Gd12_4 Gd 0.52615(2) 1.0000 0.2500
C13_3 C 0.4853(6) 0.9729(4) 0.30292(10)
C18_3 C 0.4578(6) 0.9708(4) 0.32662(12)
C23_3 C 0.3877(9) 0.8887(5) 0.33502(15)
H8_3 H 0.3684 0.8844 0.3506
C28_3 C 0.3464(9) 0.8136(5) 0.32050(16)
H13_3 H 0.3027 0.7574 0.3264
C33_3 C 0.3719(8) 0.8243(5) 0.29688(15)
H18_3 H 0.3407 0.7754 0.2866
O26_7 O 0.5137(3) 0.9589(3) 0.20677(7)
O41_7 O 0.3715(3) 0.9181(3) 0.23836(9)
O51_7 O 0.4936(4) 0.8441(3) 0.24035(7)
N3_3 N 0.4389(6) 0.9011(4) 0.28814(9)
N15_7 N 0.6078(6) 0.9174(5) 0.26538(11)
O26_8 O 0.0411(3) 0.5549(4) 0.20677(7)
O41_8 O 0.0819(3) 0.4535(4) 0.23836(9)
O51_8 O 0.1559(3) 0.6496(5) 0.24035(7)
N15_8 N 0.0826(5) 0.6905(8) 0.26538(11)
C16_6 C 0.4877(4) 0.5147(6) 0.30292(10)
C21_6 C 0.5131(5) 0.5422(6) 0.32662(12)
C26_6 C 0.5011(7) 0.6123(9) 0.33502(15)
H11_6 H 0.5161 0.6316 0.3506
C31_6 C 0.4673(8) 0.6536(9) 0.32050(16)
H16_6 H 0.4548 0.6973 0.3264
C36_6 C 0.4525(6) 0.6281(8) 0.29688(15)
H21_6 H 0.4348 0.6593 0.2866
C41_6 C 0.5585(4) 0.5044(6) 0.34167(10)
C47_6 C 0.8430(4) 0.5595(6) 0.24836(11)
C52_6 C 0.7730(5) 0.5810(6) 0.24981(12)
C57_6 C 0.7812(6) 0.6512(8) 0.23555(18)
H27_6 H 0.7355 0.6660 0.2355
C62_6 C 0.8572(8) 0.6995(11) 0.2212(2)
H32_6 H 0.8630 0.7466 0.2116
C67_6 C 0.9237(7) 0.6761(10) 0.2216(2)
H37_6 H 0.9755 0.7095 0.2124
C72_6 C 0.6909(4) 0.5304(6) 0.26487(10)
O40_6 O 0.6285(3) 0.5465(4) 0.26164(9)
N6_6 N 0.4623(4) 0.5611(6) 0.28814(9)
N8_8 N 0.9011(4) 0.4389(6) 0.21186(9)
N14_6 N 0.9174(5) 0.6078(6) 0.23462(11)
O26_9 O 0.4451(4) 0.4863(3) 0.20677(7)
O41_9 O 0.5465(4) 0.6285(3) 0.23836(9)
O51_9 O 0.3504(5) 0.5064(4) 0.24035(7)
N8_9 N 0.5611(6) 0.4623(4) 0.21186(9)
N15_9 N 0.3095(8) 0.3922(6) 0.26538(11)
Gd14_3 Gd -0.0000 0.47385(2) 0.7500
C17_3 C 0.0271(4) 0.5147(6) 0.80292(10)
C22_3 C 0.0292(4) 0.5422(6) 0.82662(12)
C27_3 C 0.1113(5) 0.6123(9) 0.83502(15)
H12_3 H 0.1156 0.6316 0.8506
C32_3 C 0.1864(5) 0.6536(9) 0.82050(16)
H17_3 H 0.2426 0.6973 0.8264
C37_3 C 0.1757(5) 0.6281(8) 0.79688(15)
H22_3 H 0.2246 0.6593 0.7866
O27_3 O 0.0411(3) 0.4863(3) 0.70677(7)
O43_3 O 0.0819(3) 0.6285(3) 0.73836(9)
O52_3 O 0.1559(3) 0.5064(4) 0.74035(7)
N7_3 N 0.0989(4) 0.5611(6) 0.78814(9)
N16_3 N 0.0826(5) 0.3922(6) 0.76538(11)
Gd1_3 Gd 0.546361(17) 0.194922(17) 0.798939(4)
Gd2_3 Gd 0.47389(2) 0.0000 0.7500
C6_3 C 0.5585(4) 0.0540(4) 0.84167(10)
C7_3 C 0.8430(4) 0.2834(4) 0.74836(11)
C8_3 C 0.7730(5) 0.1919(4) 0.74981(12)
C9_3 C 0.7812(6) 0.1299(6) 0.73555(18)
H4_3 H 0.7355 0.0694 0.7355
C10_3 C 0.8572(8) 0.1576(8) 0.7212(2)
H5_3 H 0.8630 0.1163 0.7116
C11_3 C 0.9237(7) 0.2475(7) 0.7216(2)
H6_3 H 0.9755 0.2659 0.7124
C12_3 C 0.6909(4) 0.1604(4) 0.76487(10)
O1_3 O 0.5791(3) 0.1323(3) 0.83329(7)
O2_3 O 0.5818(4) 0.0486(3) 0.86245(8)
O3_3 O 0.4863(3) 0.0411(3) 0.79323(7)
O4_3 O 0.6874(3) 0.2140(3) 0.78052(7)
O5_3 O 0.6285(3) 0.0819(3) 0.76164(9)
O6_3 O 0.8441(3) 0.3504(3) 0.75965(7)
O7_10 O 0.6667 0.3333 0.81089(11)
H7_14 H 0.6667 0.3333 0.8333
N2_3 N 0.9174(5) 0.3095(4) 0.73462(11)
Gd3_3 Gd 0.528256(17) 0.315228(24) 0.867727(4)
Gd4_3 Gd 0.786973(17) 0.471744(17) 0.867727(4)
Gd5_3 Gd 0.684772(24) 0.213027(17) 0.867727(4)
Gd6_3 Gd 0.648562(24) 0.453639(17) 0.798939(4)
Gd7_3 Gd 0.805078(17) 0.351438(24) 0.798939(4)
Gd13_3 Gd 0.52615(2) 0.52611(2) 0.7500
Gd14_4 Gd 1.0000 0.47385(2) 0.7500
C13_4 C 0.3063(4) 0.1519(6) 0.86374(10)
C14_7 C 0.5147(6) 0.0271(4) 0.69708(10)
C15_3 C 0.4853(6) 0.5123(4) 0.80292(10)
C16_7 C 0.8457(4) 0.6937(4) 0.86374(10)
C18_4 C 0.3042(4) 0.1244(6) 0.84004(12)
C19_7 C 0.5422(6) 0.0292(4) 0.67338(12)
C20_3 C 0.4578(6) 0.4869(5) 0.82662(12)
C21_7 C 0.8203(5) 0.6958(4) 0.84004(12)
C23_4 C 0.2221(5) 0.0543(9) 0.83164(15)
C24_7 C 0.6123(9) 0.1113(5) 0.66498(15)
C25_3 C 0.3877(9) 0.4989(7) 0.83502(15)
C26_7 C 0.8323(7) 0.7779(5) 0.83164(15)
H8_4 H 0.2178 0.0350 0.8160
H9_7 H 0.6316 0.1156 0.6494
H10_3 H 0.3684 0.4839 0.8506
H11_7 H 0.8173 0.7822 0.8160
C28_4 C 0.1470(5) 0.0130(9) 0.84616(16)
C29_7 C 0.6536(9) 0.1864(5) 0.67950(16)
C30_3 C 0.3464(9) 0.5327(8) 0.82050(16)
C31_7 C 0.8661(8) 0.8530(5) 0.84616(16)
H14_7 H 0.6973 0.2426 0.6736
H15_3 H 0.3027 0.5452 0.8264
H16_7 H 0.8786 0.9092 0.8402
C33_4 C 0.1577(5) 0.0385(8) 0.86978(15)
C34_7 C 0.6281(8) 0.1757(5) 0.70312(15)
C35_3 C 0.3719(8) 0.5475(6) 0.79688(15)
C36_7 C 0.8809(6) 0.8423(5) 0.86978(15)
H18_4 H 0.1088 0.0073 0.8800
H19_7 H 0.6593 0.2246 0.7134
H20_3 H 0.3407 0.5652 0.7866
H21_7 H 0.8986 0.8912 0.8800
C38_4 C 0.3874(4) 0.1622(6) 0.82499(10)
C40_3 C 0.4956(6) 0.4415(4) 0.84167(10)
C41_7 C 0.7749(4) 0.6126(4) 0.82499(10)
C42_3 C 0.9460(4) 0.5044(6) 0.84167(10)
C43_5 C 0.4405(6) 0.1570(4) 0.74836(11)
C46_4 C 0.6168(4) 0.1071(6) 0.91830(11)
C47_7 C 0.4904(4) 0.3832(4) 0.91830(11)
C48_5 C 0.4190(6) 0.2270(5) 0.74981(12)
C51_4 C 0.5253(4) 0.0856(6) 0.91685(12)
C52_7 C 0.5604(5) 0.4747(4) 0.91685(12)
C53_5 C 0.3488(8) 0.2188(6) 0.73555(18)
C56_4 C 0.4633(6) 0.0154(8) 0.93111(18)
C57_7 C 0.5522(6) 0.5367(6) 0.93111(18)
H23_5 H 0.3340 0.2645 0.7355
H26_4 H 0.4028 0.0006 0.9311
H27_7 H 0.5979 0.5972 0.9311
C58_5 C 0.3005(11) 0.1428(8) 0.7212(2)
C62_7 C 0.4762(8) 0.5090(8) 0.9454(2)
H28_5 H 0.2534 0.1370 0.7116
H32_7 H 0.4704 0.5503 0.9550
C63_5 C 0.3239(10) 0.0763(7) 0.7216(2)
C67_7 C 0.4097(7) 0.4191(7) 0.9450(2)
H33_5 H 0.2905 0.0245 0.7124
H37_7 H 0.3579 0.4007 0.9542
C68_5 C 0.4696(6) 0.3091(4) 0.76487(10)
C71_4 C 0.4938(4) 0.1362(6) 0.90179(10)
C72_7 C 0.6425(4) 0.5062(4) 0.90179(10)
O8_4 O 0.4657(3) 0.2199(4) 0.83337(7)
O10_3 O 0.5533(4) 0.4209(3) 0.83329(7)
O11_4 O 0.7543(3) 0.5343(3) 0.83337(7)
O12_3 O 0.8677(3) 0.4467(4) 0.83329(7)
O13_4 O 0.7801(4) 0.2457(3) 0.83337(7)
O14_4 O 0.3820(3) 0.1335(5) 0.80421(8)
O16_3 O 0.4669(5) 0.4182(4) 0.86245(8)
O17_4 O 0.7516(4) 0.6180(3) 0.80421(8)
O18_3 O 0.9514(3) 0.5331(5) 0.86245(8)
O19_4 O 0.8665(5) 0.2484(4) 0.80421(8)
O22_3 O 0.5549(4) 0.5137(3) 0.79323(7)
O24_3 O 0.9589(3) 0.4451(4) 0.79323(7)
O29_3 O 0.5267(4) 0.3126(3) 0.78052(7)
O32_4 O 0.5474(3) 0.1933(4) 0.88614(7)
O33_4 O 0.6460(3) 0.4526(3) 0.88614(7)
O34_4 O 0.8067(4) 0.3540(3) 0.88614(7)
O35_3 O 0.7860(3) 0.4733(4) 0.78052(7)
O36_3 O 0.4535(4) 0.3715(3) 0.76164(9)
O42_3 O 0.9181(3) 0.5465(4) 0.76164(9)
O44_3 O 0.5064(4) 0.1559(3) 0.75965(7)
O50_3 O 0.6496(3) 0.4936(4) 0.75965(7)
O54_10 O 0.6667 0.3333 0.85577(11)
N4_5 N 0.5611(6) 0.0989(4) 0.71186(9)
N5_3 N 0.4389(6) 0.5377(4) 0.78814(9)
N9_3 N 0.9011(4) 0.4623(4) 0.71186(9)
N10_5 N 0.3922(6) 0.0826(5) 0.73462(11)
Gd2_4 Gd 0.47389(2) 1.0000 0.7500
C1_3 C 0.4877(4) 0.9729(4) 0.80292(10)
C2_3 C 0.5131(5) 0.9708(4) 0.82662(12)
C3_3 C 0.5011(7) 0.8887(5) 0.83502(15)
H1_3 H 0.5161 0.8844 0.8506
C4_3 C 0.4673(8) 0.8136(5) 0.82050(16)
H2_3 H 0.4548 0.7574 0.8264
C5_3 C 0.4525(6) 0.8243(5) 0.79688(15)
H3_3 H 0.4348 0.7754 0.7866
N1_3 N 0.4623(4) 0.9011(4) 0.78814(9)
Gd8_3 Gd 0.351438(24) 0.805078(17) 0.701061(4)
Gd9_7 Gd 0.471744(17) 0.786973(17) 0.632273(4)
Gd10_3 Gd 0.453639(17) 0.648562(24) 0.701061(4)
Gd11_3 Gd 0.194922(17) 0.546361(17) 0.701061(4)
H13_4 H 0.0908 0.9693 0.8402
C39_7 C 0.5044(6) 0.9460(4) 0.65833(10)
C44_5 C 0.5595(6) 0.7166(4) 0.75164(11)
C45_3 C 0.2834(4) 0.8430(4) 0.75164(11)
C49_5 C 0.5810(6) 0.8081(4) 0.75019(12)
C50_3 C 0.1919(4) 0.7730(5) 0.75019(12)
C54_5 C 0.6512(8) 0.8701(6) 0.76445(18)
C55_3 C 0.1299(6) 0.7812(6) 0.76445(18)
H24_5 H 0.6660 0.9306 0.7645
H25_3 H 0.0694 0.7355 0.7645
C59_5 C 0.6995(11) 0.8424(8) 0.7788(2)
C60_3 C 0.1576(8) 0.8572(8) 0.7788(2)
C61_4 C 0.4910(8) 0.9671(11) 0.9454(2)
H29_5 H 0.7466 0.8837 0.7884
H30_3 H 0.1163 0.8630 0.7884
H31_4 H 0.4497 0.9200 0.9550
C64_5 C 0.6761(10) 0.7525(7) 0.7784(2)
C65_3 C 0.2475(7) 0.9237(7) 0.7784(2)
C66_4 C 0.5809(7) 0.9905(10) 0.9450(2)
H34_5 H 0.7095 0.7341 0.7876
H35_3 H 0.2659 0.9755 0.7876
H36_4 H 0.5993 0.9571 0.9542
C69_5 C 0.5304(6) 0.8396(4) 0.73513(10)
C70_3 C 0.1604(4) 0.6909(4) 0.73513(10)
O9_7 O 0.4467(4) 0.8677(3) 0.66671(7)
O15_7 O 0.5331(5) 0.9514(3) 0.63755(8)
O21_5 O 0.4451(4) 0.9589(3) 0.70677(7)
O30_5 O 0.4733(4) 0.7860(3) 0.71948(7)
O31_3 O 0.2140(3) 0.6874(3) 0.71948(7)
O37_5 O 0.5465(4) 0.9181(3) 0.73836(9)
O45_3 O 0.4936(4) 0.6496(3) 0.74035(7)
O46_3 O 0.3504(3) 0.8441(3) 0.74035(7)
N11_3 N 0.6078(6) 0.6905(4) 0.76538(11)
N12_3 N 0.3095(4) 0.9174(5) 0.76538(11)
H16_8 H 0.0307 0.1214 0.8402
C62_8 C 0.0329(11) 0.5238(8) 0.9454(2)
H32_8 H 0.0800 0.5296 0.9550
C67_8 C 0.0095(10) 0.5903(7) 0.9450(2)
H37_8 H 0.0429 0.6421 0.9542
Gd9_8 Gd 0.315228(24) 0.528256(17) 0.632273(4)
C14_8 C 0.5123(7) 0.4853(6) 0.69708(10)
C16_8 C 0.8481(6) 0.1543(4) 0.86374(10)
C19_8 C 0.4869(7) 0.4578(6) 0.67338(12)
C21_8 C 0.8756(6) 0.1797(5) 0.84004(12)
C24_8 C 0.4989(10) 0.3877(9) 0.66498(15)
C26_8 C 0.9457(9) 0.1677(7) 0.83164(15)
H9_8 H 0.4839 0.3684 0.6494
H11_8 H 0.9650 0.1827 0.8160
C29_8 C 0.5327(10) 0.3464(9) 0.67950(16)
C31_8 C 0.9870(9) 0.1339(8) 0.84616(16)
H14_8 H 0.5452 0.3027 0.6736
C34_8 C 0.5475(9) 0.3719(8) 0.70312(15)
C36_8 C 0.9615(8) 0.1191(6) 0.86978(15)
H19_8 H 0.5652 0.3407 0.7134
H21_8 H 0.9927 0.1014 0.8800
C39_8 C 0.4415(7) 0.4956(6) 0.65833(10)
C41_8 C 0.8378(6) 0.2251(4) 0.82499(10)
C43_6 C 0.7166(7) 0.5595(6) 0.74836(11)
C44_6 C 0.1570(7) 0.4405(6) 0.75164(11)
C47_8 C 0.8929(6) 0.5096(4) 0.91830(11)
C48_6 C 0.8081(8) 0.5810(6) 0.74981(12)
C49_6 C 0.2270(7) 0.4190(6) 0.75019(12)
C52_8 C 0.9144(6) 0.4396(5) 0.91685(12)
C53_6 C 0.8701(10) 0.6512(8) 0.73555(18)
C54_6 C 0.2188(10) 0.3488(8) 0.76445(18)
C57_8 C 0.9846(8) 0.4478(6) 0.93111(18)
H23_6 H 0.9306 0.6660 0.7355
H24_6 H 0.2645 0.3340 0.7645
H27_8 H 0.9994 0.4021 0.9311
C58_6 C 0.8424(14) 0.6995(11) 0.7212(2)
C59_6 C 0.1428(14) 0.3005(11) 0.7788(2)
H28_6 H 0.8837 0.7466 0.7116
H29_6 H 0.1370 0.2534 0.7884
C63_6 C 0.7525(12) 0.6761(10) 0.7216(2)
C64_6 C 0.0763(12) 0.3239(10) 0.7784(2)
H33_6 H 0.7341 0.7095 0.7124
H34_6 H 0.0245 0.2905 0.7876
C68_6 C 0.8396(7) 0.5304(6) 0.76487(10)
C69_6 C 0.3091(7) 0.4696(6) 0.73513(10)
C72_8 C 0.8638(6) 0.3575(4) 0.90179(10)
O9_8 O 0.4209(5) 0.5533(4) 0.66671(7)
O15_8 O 0.4182(6) 0.4669(5) 0.63755(8)
O21_6 O 0.5137(5) 0.5549(4) 0.70677(7)
O30_6 O 0.3126(5) 0.5267(4) 0.71948(7)
O37_6 O 0.3715(5) 0.4535(4) 0.73836(9)
N4_6 N 0.5377(7) 0.4389(6) 0.71186(9)
N10_6 N 0.6905(8) 0.6078(6) 0.73462(11)
Gd9_9 Gd 0.213027(17) 0.684772(24) 0.632273(4)
C39_9 C 0.0540(4) 0.5585(7) 0.65833(10)
O9_9 O 0.1323(3) 0.5791(5) 0.66671(7)
O15_9 O 0.0486(3) 0.5818(6) 0.63755(8)
C14_9 C 0.9729(4) 0.4877(7) 0.69708(10)
C19_9 C 0.9708(4) 0.5131(7) 0.67338(12)
C24_9 C 0.8887(5) 0.5011(10) 0.66498(15)
H9_9 H 0.8844 0.5161 0.6494
C29_9 C 0.8136(5) 0.4673(10) 0.67950(16)
H14_9 H 0.7574 0.4548 0.6736
C34_9 C 0.8243(5) 0.4525(9) 0.70312(15)
H19_9 H 0.7754 0.4348 0.7134
O7_11 O 0.3333 0.6667 0.68911(11)
H7_15 H 0.3333 0.6667 0.6667
C13_5 C 0.1519(6) 0.3063(4) 0.63626(10)
C16_9 C 0.6937(4) 0.8457(4) 0.63626(10)
C18_5 C 0.1244(6) 0.3042(4) 0.65996(12)
C21_9 C 0.6958(4) 0.8203(5) 0.65996(12)
C23_5 C 0.0543(9) 0.2221(5) 0.66836(15)
C26_9 C 0.7779(5) 0.8323(7) 0.66836(15)
H8_5 H 0.0350 0.2178 0.6840
H11_9 H 0.7822 0.8173 0.6840
C28_5 C 0.0130(9) 0.1470(5) 0.65384(16)
C31_9 C 0.8530(5) 0.8661(8) 0.65384(16)
H16_9 H 0.9092 0.8786 0.6598
C33_5 C 0.0385(8) 0.1577(5) 0.63022(15)
C36_9 C 0.8423(5) 0.8809(6) 0.63022(15)
H18_5 H 0.0073 0.1088 0.6200
H21_9 H 0.8912 0.8986 0.6200
C38_5 C 0.1622(6) 0.3874(4) 0.67501(10)
C41_9 C 0.6126(4) 0.7749(4) 0.67501(10)
C46_5 C 0.1071(6) 0.6168(4) 0.58170(11)
C47_9 C 0.3832(4) 0.4904(4) 0.58170(11)
C51_5 C 0.0856(6) 0.5253(4) 0.58315(12)
C52_9 C 0.4747(4) 0.5604(5) 0.58315(12)
C56_5 C 0.0154(8) 0.4633(6) 0.56889(18)
C57_9 C 0.5367(6) 0.5522(6) 0.56889(18)
H26_5 H 0.0006 0.4028 0.5689
H27_9 H 0.5972 0.5979 0.5689
C62_9 C 0.5090(8) 0.4762(8) 0.5546(2)
H32_9 H 0.5503 0.4704 0.5450
C67_9 C 0.4191(7) 0.4097(7) 0.5550(2)
H37_9 H 0.4007 0.3579 0.5458
C71_5 C 0.1362(6) 0.4938(4) 0.59821(10)
C72_9 C 0.5062(4) 0.6425(4) 0.59821(10)
O8_5 O 0.2199(4) 0.4657(3) 0.66663(7)
O11_5 O 0.5343(3) 0.7543(3) 0.66663(7)
O13_5 O 0.2457(3) 0.7801(4) 0.66663(7)
O14_5 O 0.1335(5) 0.3820(3) 0.69579(8)
O17_5 O 0.6180(3) 0.7516(4) 0.69579(8)
O19_5 O 0.2484(4) 0.8665(5) 0.69579(8)
O32_5 O 0.1933(4) 0.5474(3) 0.61386(7)
O33_5 O 0.4526(3) 0.6460(3) 0.61386(7)
O34_5 O 0.3540(3) 0.8067(4) 0.61386(7)
O54_11 O 0.3333 0.6667 0.64423(11)
H13_5 H 0.9693 0.0908 0.6598
C61_5 C 0.9671(11) 0.4910(8) 0.5546(2)
H31_5 H 0.9200 0.4497 0.5450
C66_5 C 0.9905(10) 0.5809(7) 0.5550(2)
H36_5 H 0.9571 0.5993 0.5458
H16_10 H 0.1214 0.0307 0.6598
C62_10 C 0.5238(8) 0.0329(11) 0.5546(2)
H32_10 H 0.5296 0.0800 0.5450
C67_10 C 0.5903(7) 0.0095(10) 0.5550(2)
H37_10 H 0.6421 0.0429 0.5458
C16_10 C 0.1543(4) 0.8481(6) 0.63626(10)
C21_10 C 0.1797(5) 0.8756(6) 0.65996(12)
C26_10 C 0.1677(7) 0.9457(9) 0.66836(15)
H11_10 H 0.1827 0.9650 0.6840
C31_10 C 0.1339(8) 0.9870(9) 0.65384(16)
C36_10 C 0.1191(6) 0.9615(8) 0.63022(15)
H21_10 H 0.1014 0.9927 0.6200
C41_10 C 0.2251(4) 0.8378(6) 0.67501(10)
C47_10 C 0.5096(4) 0.8929(6) 0.58170(11)
C52_10 C 0.4396(5) 0.9144(6) 0.58315(12)
C57_10 C 0.4478(6) 0.9846(8) 0.56889(18)
H27_10 H 0.4021 0.9994 0.5689
C72_10 C 0.3575(4) 0.8638(6) 0.59821(10)
C16_11 C 0.5123(4) 0.0271(4) 0.19708(10)
C21_11 C 0.4869(5) 0.0292(4) 0.17338(12)
C26_11 C 0.4989(7) 0.1113(5) 0.16498(15)
H11_11 H 0.4839 0.1156 0.1494
C31_11 C 0.5327(8) 0.1864(5) 0.17950(16)
H16_11 H 0.5452 0.2426 0.1736
C36_11 C 0.5475(6) 0.1757(5) 0.20312(15)
H21_11 H 0.5652 0.2246 0.2134
O7_12 O 0.3333 0.6667 0.14423(11)
H7_16 H 0.3333 0.6667 0.1667
C38_6 C 0.0540(4) 0.4956(6) 0.15833(10)
C41_11 C 0.4415(4) 0.9460(4) 0.15833(10)
C46_6 C 0.2834(4) 0.4405(6) 0.25164(11)
C47_11 C 0.1570(4) 0.7166(4) 0.25164(11)
C51_6 C 0.1919(4) 0.4190(6) 0.25019(12)
C52_11 C 0.2270(5) 0.8081(4) 0.25019(12)
C56_6 C 0.1299(6) 0.3488(8) 0.26445(18)
C57_11 C 0.2188(6) 0.8701(6) 0.26445(18)
H26_6 H 0.0694 0.3340 0.2645
H27_11 H 0.2645 0.9306 0.2645
C61_6 C 0.1576(8) 0.3005(11) 0.2788(2)
C62_11 C 0.1428(8) 0.8424(8) 0.2788(2)
H31_6 H 0.1163 0.2534 0.2884
H32_11 H 0.1370 0.8837 0.2884
C66_6 C 0.2475(7) 0.3239(10) 0.2784(2)
C67_11 C 0.0763(7) 0.7525(7) 0.2784(2)
H36_6 H 0.2659 0.2905 0.2876
H37_11 H 0.0245 0.7341 0.2876
C71_6 C 0.1604(4) 0.4696(6) 0.23513(10)
C72_11 C 0.3091(4) 0.8396(4) 0.23513(10)
O8_6 O 0.1323(3) 0.5533(4) 0.16671(7)
O11_6 O 0.4209(3) 0.8677(3) 0.16671(7)
O13_6 O 0.4467(4) 0.5791(3) 0.16671(7)
O14_6 O 0.0486(3) 0.4669(5) 0.13755(8)
O17_6 O 0.4182(4) 0.9514(3) 0.13755(8)
O19_6 O 0.5331(5) 0.5818(4) 0.13755(8)
O32_6 O 0.2140(3) 0.5267(4) 0.21948(7)
O33_6 O 0.3126(3) 0.7860(3) 0.21948(7)
O34_6 O 0.4733(4) 0.6874(3) 0.21948(7)
O54_12 O 0.3333 0.6667 0.18911(11)
C13_6 C 0.9729(4) 0.4853(6) 0.19708(10)
C18_6 C 0.9708(4) 0.4578(6) 0.17338(12)
C23_6 C 0.8887(5) 0.3877(9) 0.16498(15)
H8_6 H 0.8844 0.3684 0.1494
C28_6 C 0.8136(5) 0.3464(9) 0.17950(16)
H13_6 H 0.7574 0.3027 0.1736
C33_6 C 0.8243(5) 0.3719(8) 0.20312(15)
H18_6 H 0.7754 0.3407 0.2134
C16_12 C 0.5147(6) 0.4877(4) 0.19708(10)
C21_12 C 0.5422(6) 0.5131(5) 0.17338(12)
C26_12 C 0.6123(9) 0.5011(7) 0.16498(15)
H11_12 H 0.6316 0.5161 0.1494
C31_12 C 0.6536(9) 0.4673(8) 0.17950(16)
H16_12 H 0.6973 0.4548 0.1736
C36_12 C 0.6281(8) 0.4525(6) 0.20312(15)
H21_12 H 0.6593 0.4348 0.2134
C41_12 C 0.5044(6) 0.5585(4) 0.15833(10)
C47_12 C 0.5595(6) 0.8430(4) 0.25164(11)
C52_12 C 0.5810(6) 0.7730(5) 0.25019(12)
C57_12 C 0.6512(8) 0.7812(6) 0.26445(18)
H27_12 H 0.6660 0.7355 0.2645
C62_12 C 0.6995(11) 0.8572(8) 0.2788(2)
H32_12 H 0.7466 0.8630 0.2884
C67_12 C 0.6761(10) 0.9237(7) 0.2784(2)
H37_12 H 0.7095 0.9755 0.2876
C72_12 C 0.5304(6) 0.6909(4) 0.23513(10)
loop_
_geom_bond_atom_site_label_1
_geom_bond_atom_site_label_2
_geom_bond_site_symmetry_1
_geom_bond_site_symmetry_2
H7 O7 1_555 1_555
Gd14 O6 1_555 1_555
C17 C22 1_555 1_555
C26 H11 1_555 1_555
H17 C32 1_555 1_555
C37 C32 1_555 1_555
H22 C37 1_555 1_555
O24 Gd7 1_555 1_555
O27 Gd14 1_555 1_555
O42 Gd14 1_555 1_555
O43 Gd14 1_555 1_555
O52 Gd14 1_555 1_555
N7 Gd14 1_555 1_555
N9 Gd14 1_555 1_555
N16 Gd14 1_555 1_555
O6 Gd7 1_555 1_555
O7 Gd7 1_555 1_555
Gd7 O12 1_555 1_555
Gd7 O35 1_555 1_555
Gd14 O24 1_555 1_555
C17 O24 1_555 1_555
C17 N7 1_555 1_555
C37 N7 1_555 1_555
C41 O17 1_555 1_555
Gd4 O11 1_555 1_555
Gd15 O23 1_555 1_555
C16 C21 1_555 1_555
C27 H12 1_555 1_555
H16 C31 1_555 1_555
C36 C31 1_555 1_555
H21 C36 1_555 1_555
O18 Gd4 1_555 1_555
O23 Gd4 1_555 1_555
O34 Gd4 1_555 1_555
O40 Gd15 1_555 1_555
O49 Gd4 1_555 1_555
O54 H7_2 1_555 1_555
N6 Gd15 1_555 1_555
Gd4 O54 1_555 1_555
Gd15 O49 1_555 1_555
C16 O23 1_555 1_555
C16 N6 1_555 1_555
C36 N6 1_555 1_555
C42 O18 1_555 1_555
H7_3 O7_2 1_555 1_555
Gd6 O7_2 1_555 1_555
Gd13 O22 1_555 1_555
C15 C20 1_555 1_555
H15 C30 1_555 1_555
C35 C30 1_555 1_555
H20 C35 1_555 1_555
O22 Gd6 1_555 1_555
O36 Gd13 1_555 1_555
O50 Gd6 1_555 1_555
N5 Gd13 1_555 1_555
Gd6 O10 1_555 1_555
Gd13 O50 1_555 1_555
C15 O22 1_555 1_555
C15 N5 1_555 1_555
C35 N5 1_555 1_555
C25 H10 1_555 1_555
C47 C52 1_555 1_555
C52 C57 1_555 1_555
C57 H27 1_555 1_555
C62 C57 1_555 1_555
H32 C62 1_555 1_555
C67 C62 1_555 1_555
H37 C67 1_555 1_555
C72 C52 1_555 1_555
O54_2 H7_4 1_555 1_555
C40 O16 1_555 1_555
C47 N14 1_555 1_555
C67 N14 1_555 1_555
C72 O33 1_555 1_555
C7 C8 1_555 1_555
C8 C9 1_555 1_555
C9 H4 1_555 1_555
C10 C9 1_555 1_555
H5 C10 1_555 1_555
C11 C10 1_555 1_555
H6 C11 1_555 1_555
C12 C8 1_555 1_555
H7_5 O7_3 1_555 1_555
N2 C7 1_555 1_555
H29 C59 1_555 1_555
C64 C59 1_555 1_555
H34 C64 1_555 1_555
C11 N2 1_555 1_555
C12 O4 1_555 1_555
Gd18 O25 1_555 1_555
O13 Gd5 1_555 1_555
O25 Gd5 1_555 1_555
O47 Gd5 1_555 1_555
O54_3 H7_6 1_555 1_555
Gd5 O54_3 1_555 1_555
Gd18 O47 1_555 1_555
Gd1 O1 1_555 1_555
Gd2 O3 1_555 1_555
C1 C2 1_555 1_555
H2 C4 1_555 1_555
C5 C4 1_555 1_555
H3 C5 1_555 1_555
O3 Gd1 1_555 1_555
O5 Gd2 1_555 1_555
O7_4 Gd1 1_555 1_555
H7_7 O7_4 1_555 1_555
N1 Gd2 1_555 1_555
Gd8 O9 1_555 1_555
Gd9 O9 1_555 1_555
Gd10 O30 1_555 1_555
Gd11 O27 1_555 1_555
Gd13 O45 1_555 1_555
C14 C19 1_555 1_555
C19 C24 1_555 1_555
C23 H8 1_555 1_555
C24 H9 1_555 1_555
C29 C24 1_555 1_555
C34 C29 1_555 1_555
H19 C34 1_555 1_555
C39 C19 1_555 1_555
C43 C48 1_555 1_555
C44 C49 1_555 1_555
C45 C50 1_555 1_555
C48 C53 1_555 1_555
C49 C54 1_555 1_555
C50 C55 1_555 1_555
C53 H23 1_555 1_555
C54 H24 1_555 1_555
C55 H25 1_555 1_555
C58 C53 1_555 1_555
C60 C55 1_555 1_555
H28 C58 1_555 1_555
H30 C60 1_555 1_555
C63 C58 1_555 1_555
C65 C60 1_555 1_555
H33 C63 1_555 1_555
H35 C65 1_555 1_555
C68 C48 1_555 1_555
C69 C49 1_555 1_555
C70 C50 1_555 1_555
O9 C39 1_555 1_555
O14 Gd1 1_555 1_555
O15 Gd9 1_555 1_555
O21 Gd2 1_555 1_555
O29 Gd1 1_555 1_555
O30 Gd8 1_555 1_555
O31 Gd8 1_555 1_555
O37 Gd2 1_555 1_555
O44 Gd1 1_555 1_555
O45 Gd10 1_555 1_555
O46 Gd2 1_555 1_555
O52 Gd11 1_555 1_555
N4 Gd2 1_555 1_555
N10 Gd2 1_555 1_555
N11 Gd13 1_555 1_555
N12 Gd2 1_555 1_555
Gd2 O44 1_555 1_555
C1 O3 1_555 1_555
C1 N1 1_555 1_555
C5 N1 1_555 1_555
Gd8 O21 1_555 1_555
Gd8 O46 1_555 1_555
Gd11 O31 1_555 1_555
C14 O21 1_555 1_555
C14 N4 1_555 1_555
C34 N4 1_555 1_555
C38 O14 1_555 1_555
C39 O15 1_555 1_555
C43 O44 1_555 1_555
C43 N10 1_555 1_555
C44 O45 1_555 1_555
C44 N11 1_555 1_555
C45 O46 1_555 1_555
C45 N12 1_555 1_555
C63 N10 1_555 1_555
C65 N12 1_555 1_555
C68 O29 1_555 1_555
C69 O30 1_555 1_555
C69 O37 1_555 1_555
C70 O31 1_555 1_555
C70 O43 1_555 1_555
C3 H1 1_555 1_555
O2 C6 1_555 1_555
Gd3 O8 1_555 1_555
Gd12 O20 1_555 1_555
C13 C18 1_555 1_555
H13 C28 1_555 1_555
C33 C28 1_555 1_555
H18 C33 1_555 1_555
C46 C51 1_555 1_555
C51 C56 1_555 1_555
C56 H26 1_555 1_555
C61 C56 1_555 1_555
H31 C61 1_555 1_555
C66 C61 1_555 1_555
H36 C66 1_555 1_555
C71 C51 1_555 1_555
O20 Gd3 1_555 1_555
O26 Gd12 1_555 1_555
O32 Gd3 1_555 1_555
O39 Gd12 1_555 1_555
O41 Gd12 1_555 1_555
O48 Gd3 1_555 1_555
O51 Gd12 1_555 1_555
O54_4 H7_8 1_555 1_555
N3 Gd12 1_555 1_555
N8 Gd12 1_555 1_555
N15 Gd12 1_555 1_555
Gd3 O54_4 1_555 1_555
Gd12 O48 1_555 1_555
C13 O20 1_555 1_555
C13 N3 1_555 1_555
C33 N3 1_555 1_555
C46 N13 1_555 1_555
C66 N13 1_555 1_555
C71 O32 1_555 1_555
C71 O39 1_555 1_555
C43_2 C48_2 1_555 1_555
C48_2 C53_2 1_555 1_555
C53_2 H23_2 1_555 1_555
C58_2 C53_2 1_555 1_555
H28_2 C58_2 1_555 1_555
C63_2 C58_2 1_555 1_555
H33_2 C63_2 1_555 1_555
C68_2 C48_2 1_555 1_555
C43_2 N10_2 1_555 1_555
C63_2 N10_2 1_555 1_555
C68_2 O35 1_555 1_555
C68_2 O42 1_555 1_555
C47_2 C52_2 1_555 1_555
C52_2 C57_2 1_555 1_555
C57_2 H27_2 1_555 1_555
C62_2 C57_2 1_555 1_555
H32_2 C62_2 1_555 1_555
C67_2 C62_2 1_555 1_555
H37_2 C67_2 1_555 1_555
C72_2 C52_2 1_555 1_555
O26_2 Gd15 1_555 1_555
O41_2 Gd15 1_555 1_555
O51_2 Gd15 1_555 1_555
N8_2 Gd15 1_555 1_555
N14_2 Gd15 1_555 1_555
N15_2 Gd15 1_555 1_555
C47_2 O49 1_555 1_555
C47_2 N14_2 1_555 1_555
C67_2 N14_2 1_555 1_555
C72_2 O34 1_555 1_555
Gd10 O9_2 1_555 1_555
Gd9_2 O9_2 1_555 1_555
Gd11 O30_2 1_555 1_555
C14_2 C19_2 1_555 1_555
C19_2 C24_2 1_555 1_555
C24_2 H9_2 1_555 1_555
C29_2 C24_2 1_555 1_555
C34_2 C29_2 1_555 1_555
H19_2 C34_2 1_555 1_555
C39_2 C19_2 1_555 1_555
C44_2 C49_2 1_555 1_555
C49_2 C54_2 1_555 1_555
C54_2 H24_2 1_555 1_555
C69_2 C49_2 1_555 1_555
O9_2 C39_2 1_555 1_555
O15_2 Gd9_2 1_555 1_555
O21_2 Gd13 1_555 1_555
O30_2 Gd10 1_555 1_555
O37_2 Gd13 1_555 1_555
N4_2 Gd13 1_555 1_555
Gd10 O21_2 1_555 1_555
C14_2 O21_2 1_555 1_555
C14_2 N4_2 1_555 1_555
C34_2 N4_2 1_555 1_555
C39_2 O15_2 1_555 1_555
C44_2 O52 1_555 1_555
C44_2 N16 1_555 1_555
C69_2 O30_2 1_555 1_555
C69_2 O37_2 1_555 1_555
C26_2 H11_2 1_555 1_555
C41_2 O19 1_555 1_555
C16_2 C21_2 1_555 1_555
H16_2 C31_2 1_555 1_555
C36_2 C31_2 1_555 1_555
H21_2 C36_2 1_555 1_555
O40_2 Gd18 1_555 1_555
N6_2 Gd18 1_555 1_555
C16_2 O25 1_555 1_555
C16_2 N6_2 1_555 1_555
C36_2 N6_2 1_555 1_555
H29_2 C59_2 1_555 1_555
C64_2 C59_2 1_555 1_555
H34_2 C64_2 1_555 1_555
Gd11 O9_3 1_555 1_555
Gd9_3 O9_3 1_555 1_555
C14_3 C19_3 1_555 1_555
C19_3 C24_3 1_555 1_555
C24_3 H9_3 1_555 1_555
C29_3 C24_3 1_555 1_555
H14_3 C29_3 1_555 1_555
C34_3 C29_3 1_555 1_555
H19_3 C34_3 1_555 1_555
C39_3 C19_3 1_555 1_555
O9_3 C39_3 1_555 1_555
O15_3 Gd9_3 1_555 1_555
C14_3 O27 1_555 1_555
C14_3 N9 1_555 1_555
C34_3 N9 1_555 1_555
C39_3 O15_3 1_555 1_555
O26_3 Gd18 1_555 1_555
O41_3 Gd18 1_555 1_555
O51_3 Gd18 1_555 1_555
N8_3 Gd18 1_555 1_555
N15_3 Gd18 1_555 1_555
H7_9 O7_5 1_555 1_555
Gd4_2 O11_2 1_555 1_555
Gd14_2 O6_2 1_555 1_555
Gd15_2 O23_2 1_555 1_555
C16_3 C21_3 1_555 1_555
C17_2 C22_2 1_555 1_555
C21_3 C26_3 1_555 1_555
C22_2 C27_2 1_555 1_555
C26_3 H11_3 1_555 1_555
C27_2 H12_2 1_555 1_555
C31_3 C26_3 1_555 1_555
C32_2 C27_2 1_555 1_555
H16_3 C31_3 1_555 1_555
H17_2 C32_2 1_555 1_555
C36_3 C31_3 1_555 1_555
C37_2 C32_2 1_555 1_555
H21_3 C36_3 1_555 1_555
H22_2 C37_2 1_555 1_555
C41_3 C21_3 1_555 1_555
C42_2 C22_2 1_555 1_555
O12_2 Gd4_2 1_555 1_555
O18_2 Gd4_2 1_555 1_555
O23_2 Gd4_2 1_555 1_555
O24_2 Gd7_2 1_555 1_555
O27_2 Gd14_2 1_555 1_555
O34_2 Gd4_2 1_555 1_555
O40_3 Gd15_2 1_555 1_555
O42_2 Gd14_2 1_555 1_555
O43_2 Gd14_2 1_555 1_555
O49_2 Gd4_2 1_555 1_555
O52_2 Gd14_2 1_555 1_555
O54_5 H7_9 1_555 1_555
N6_3 Gd15_2 1_555 1_555
N7_2 Gd14_2 1_555 1_555
N9_2 Gd14_2 1_555 1_555
N16_2 Gd14_2 1_555 1_555
O6_2 Gd7_2 1_555 1_555
O7_5 Gd7_2 1_555 1_555
Gd4_2 O54_5 1_555 1_555
Gd7_2 O12_2 1_555 1_555
Gd7_2 O35_2 1_555 1_555
Gd14_2 O24_2 1_555 1_555
Gd15_2 O49_2 1_555 1_555
C16_3 O23_2 1_555 1_555
C16_3 N6_3 1_555 1_555
C17_2 O24_2 1_555 1_555
C17_2 N7_2 1_555 1_555
C36_3 N6_3 1_555 1_555
C37_2 N7_2 1_555 1_555
C41_3 O11_2 1_555 1_555
C41_3 O17_2 1_555 1_555
C42_2 O12_2 1_555 1_555
C42_2 O18_2 1_555 1_555
C7_2 C8_2 1_555 1_555
C8_2 C9_2 1_555 1_555
C9_2 H4_2 1_555 1_555
C10_2 C9_2 1_555 1_555
H5_2 C10_2 1_555 1_555
C11_2 C10_2 1_555 1_555
H6_2 C11_2 1_555 1_555
C12_2 C8_2 1_555 1_555
H7_10 O7_6 1_555 1_555
N2_2 C7_2 1_555 1_555
Gd18_2 O25_2 1_555 1_555
H29_3 C59_3 1_555 1_555
C64_3 C59_3 1_555 1_555
H34_3 C64_3 1_555 1_555
O13_2 Gd5_2 1_555 1_555
O25_2 Gd5_2 1_555 1_555
O47_2 Gd5_2 1_555 1_555
O54_6 H7_10 1_555 1_555
C11_2 N2_2 1_555 1_555
C12_2 O4_2 1_555 1_555
Gd5_2 O54_6 1_555 1_555
Gd18_2 O47_2 1_555 1_555
H7_11 O7_7 1_555 1_555
Gd6_2 O7_7 1_555 1_555
Gd13_2 O22_2 1_555 1_555
C15_2 C20_2 1_555 1_555
C20_2 C25_2 1_555 1_555
C25_2 H10_2 1_555 1_555
C30_2 C25_2 1_555 1_555
H15_2 C30_2 1_555 1_555
C35_2 C30_2 1_555 1_555
H20_2 C35_2 1_555 1_555
C40_2 C20_2 1_555 1_555
C47_3 C52_3 1_555 1_555
C52_3 C57_3 1_555 1_555
C57_3 H27_3 1_555 1_555
C62_3 C57_3 1_555 1_555
H32_3 C62_3 1_555 1_555
C67_3 C62_3 1_555 1_555
H37_3 C67_3 1_555 1_555
C72_3 C52_3 1_555 1_555
O22_2 Gd6_2 1_555 1_555
O36_2 Gd13_2 1_555 1_555
O50_2 Gd6_2 1_555 1_555
O54_7 H7_11 1_555 1_555
N5_2 Gd13_2 1_555 1_555
Gd6_2 O10_2 1_555 1_555
Gd13_2 O50_2 1_555 1_555
C15_2 O22_2 1_555 1_555
C15_2 N5_2 1_555 1_555
C35_2 N5_2 1_555 1_555
C40_2 O10_2 1_555 1_555
C40_2 O16_2 1_555 1_555
C47_3 N14_3 1_555 1_555
C67_3 N14_3 1_555 1_555
C72_3 O33_2 1_555 1_555
Gd1_2 O1_2 1_555 1_555
Gd2_2 O3_2 1_555 1_555
C1_2 C2_2 1_555 1_555
C2_2 C3_2 1_555 1_555
C3_2 H1_2 1_555 1_555
C4_2 C3_2 1_555 1_555
H2_2 C4_2 1_555 1_555
C5_2 C4_2 1_555 1_555
H3_2 C5_2 1_555 1_555
C6_2 C2_2 1_555 1_555
O1_2 C6_2 1_555 1_555
O2_2 C6_2 1_555 1_555
O3_2 Gd1_2 1_555 1_555
O5_2 Gd2_2 1_555 1_555
O7_8 Gd1_2 1_555 1_555
H7_12 O7_8 1_555 1_555
N1_2 Gd2_2 1_555 1_555
Gd3_2 O8_2 1_555 1_555
Gd8_2 O9_4 1_555 1_555
Gd9_4 O9_4 1_555 1_555
Gd10_2 O30_3 1_555 1_555
Gd11_2 O27_2 1_555 1_555
Gd12_2 O20_2 1_555 1_555
Gd13_2 O45_2 1_555 1_555
C13_2 C18_2 1_555 1_555
C14_4 C19_4 1_555 1_555
C18_2 C23_2 1_555 1_555
C19_4 C24_4 1_555 1_555
C23_2 H8_2 1_555 1_555
C24_4 H9_4 1_555 1_555
C28_2 C23_2 1_555 1_555
C29_4 C24_4 1_555 1_555
H13_2 C28_2 1_555 1_555
C33_2 C28_2 1_555 1_555
C34_4 C29_4 1_555 1_555
H18_2 C33_2 1_555 1_555
H19_4 C34_4 1_555 1_555
C38_2 C18_2 1_555 1_555
C39_4 C19_4 1_555 1_555
C43_3 C48_3 1_555 1_555
C44_3 C49_3 1_555 1_555
C45_2 C50_2 1_555 1_555
C46_2 C51_2 1_555 1_555
C48_3 C53_3 1_555 1_555
C49_3 C54_3 1_555 1_555
C50_2 C55_2 1_555 1_555
C51_2 C56_2 1_555 1_555
C53_3 H23_3 1_555 1_555
C54_3 H24_3 1_555 1_555
C55_2 H25_2 1_555 1_555
C56_2 H26_2 1_555 1_555
C58_3 C53_3 1_555 1_555
C60_2 C55_2 1_555 1_555
C61_2 C56_2 1_555 1_555
H28_3 C58_3 1_555 1_555
H30_2 C60_2 1_555 1_555
H31_2 C61_2 1_555 1_555
C63_3 C58_3 1_555 1_555
C65_2 C60_2 1_555 1_555
C66_2 C61_2 1_555 1_555
H33_3 C63_3 1_555 1_555
H35_2 C65_2 1_555 1_555
H36_2 C66_2 1_555 1_555
C68_3 C48_3 1_555 1_555
C69_3 C49_3 1_555 1_555
C70_2 C50_2 1_555 1_555
C71_2 C51_2 1_555 1_555
O8_2 Gd1_2 1_555 1_555
O9_4 C39_4 1_555 1_555
O14_2 Gd1_2 1_555 1_555
O15_4 Gd9_4 1_555 1_555
O20_2 Gd3_2 1_555 1_555
O21_3 Gd2_2 1_555 1_555
O26_4 Gd12_2 1_555 1_555
O29_2 Gd1_2 1_555 1_555
O30_3 Gd8_2 1_555 1_555
O31_2 Gd8_2 1_555 1_555
O32_2 Gd3_2 1_555 1_555
O37_3 Gd2_2 1_555 1_555
O39_2 Gd12_2 1_555 1_555
O41_4 Gd12_2 1_555 1_555
O44_2 Gd1_2 1_555 1_555
O45_2 Gd10_2 1_555 1_555
O46_2 Gd2_2 1_555 1_555
O48_2 Gd3_2 1_555 1_555
O51_4 Gd12_2 1_555 1_555
O52_2 Gd11_2 1_555 1_555
O54_8 H7_12 1_555 1_555
N3_2 Gd12_2 1_555 1_555
N4_3 Gd2_2 1_555 1_555
N8_4 Gd12_2 1_555 1_555
N10_3 Gd2_2 1_555 1_555
N11_2 Gd13_2 1_555 1_555
N12_2 Gd2_2 1_555 1_555
N15_4 Gd12_2 1_555 1_555
Gd2_2 O44_2 1_555 1_555
C1_2 O3_2 1_555 1_555
C1_2 N1_2 1_555 1_555
C5_2 N1_2 1_555 1_555
Gd3_2 O54_8 1_555 1_555
Gd8_2 O21_3 1_555 1_555
Gd8_2 O46_2 1_555 1_555
Gd11_2 O31_2 1_555 1_555
Gd12_2 O48_2 1_555 1_555
C13_2 O20_2 1_555 1_555
C13_2 N3_2 1_555 1_555
C14_4 O21_3 1_555 1_555
C14_4 N4_3 1_555 1_555
C33_2 N3_2 1_555 1_555
C34_4 N4_3 1_555 1_555
C38_2 O8_2 1_555 1_555
C38_2 O14_2 1_555 1_555
C39_4 O15_4 1_555 1_555
C43_3 O44_2 1_555 1_555
C43_3 N10_3 1_555 1_555
C44_3 O45_2 1_555 1_555
C44_3 N11_2 1_555 1_555
C45_2 O46_2 1_555 1_555
C45_2 N12_2 1_555 1_555
C46_2 N13_2 1_555 1_555
C63_3 N10_3 1_555 1_555
C65_2 N12_2 1_555 1_555
C66_2 N13_2 1_555 1_555
C68_3 O29_2 1_555 1_555
C69_3 O30_3 1_555 1_555
C69_3 O37_3 1_555 1_555
C70_2 O31_2 1_555 1_555
C70_2 O43_2 1_555 1_555
C71_2 O32_2 1_555 1_555
C71_2 O39_2 1_555 1_555
C43_4 C48_4 1_555 1_555
C47_4 C52_4 1_555 1_555
C48_4 C53_4 1_555 1_555
C52_4 C57_4 1_555 1_555
C53_4 H23_4 1_555 1_555
C57_4 H27_4 1_555 1_555
C58_4 C53_4 1_555 1_555
C62_4 C57_4 1_555 1_555
H28_4 C58_4 1_555 1_555
H32_4 C62_4 1_555 1_555
C63_4 C58_4 1_555 1_555
C67_4 C62_4 1_555 1_555
H33_4 C63_4 1_555 1_555
H37_4 C67_4 1_555 1_555
C68_4 C48_4 1_555 1_555
C72_4 C52_4 1_555 1_555
O26_5 Gd15_2 1_555 1_555
O41_5 Gd15_2 1_555 1_555
O51_5 Gd15_2 1_555 1_555
N8_5 Gd15_2 1_555 1_555
N14_4 Gd15_2 1_555 1_555
N15_5 Gd15_2 1_555 1_555
C43_4 N10_4 1_555 1_555
C47_4 O49_2 1_555 1_555
C47_4 N14_4 1_555 1_555
C63_4 N10_4 1_555 1_555
C67_4 N14_4 1_555 1_555
C68_4 O35_2 1_555 1_555
C68_4 O42_2 1_555 1_555
C72_4 O34_2 1_555 1_555
C16_4 C21_4 1_555 1_555
C21_4 C26_4 1_555 1_555
C26_4 H11_4 1_555 1_555
C31_4 C26_4 1_555 1_555
H16_4 C31_4 1_555 1_555
C36_4 C31_4 1_555 1_555
H21_4 C36_4 1_555 1_555
C41_4 C21_4 1_555 1_555
O40_4 Gd18_2 1_555 1_555
N6_4 Gd18_2 1_555 1_555
C16_4 O25_2 1_555 1_555
C16_4 N6_4 1_555 1_555
C36_4 N6_4 1_555 1_555
C41_4 O13_2 1_555 1_555
C41_4 O19_2 1_555 1_555
Gd10_2 O9_5 1_555 1_555
Gd9_5 O9_5 1_555 1_555
Gd11_2 O30_4 1_555 1_555
C14_5 C19_5 1_555 1_555
C19_5 C24_5 1_555 1_555
C24_5 H9_5 1_555 1_555
C29_5 C24_5 1_555 1_555
C34_5 C29_5 1_555 1_555
H19_5 C34_5 1_555 1_555
C39_5 C19_5 1_555 1_555
C44_4 C49_4 1_555 1_555
C49_4 C54_4 1_555 1_555
C54_4 H24_4 1_555 1_555
C69_4 C49_4 1_555 1_555
O9_5 C39_5 1_555 1_555
O15_5 Gd9_5 1_555 1_555
O21_4 Gd13_2 1_555 1_555
O30_4 Gd10_2 1_555 1_555
O37_4 Gd13_2 1_555 1_555
N4_4 Gd13_2 1_555 1_555
Gd10_2 O21_4 1_555 1_555
C14_5 O21_4 1_555 1_555
C14_5 N4_4 1_555 1_555
C34_5 N4_4 1_555 1_555
C39_5 O15_5 1_555 1_555
C44_4 O52_2 1_555 1_555
C44_4 N16_2 1_555 1_555
C69_4 O30_4 1_555 1_555
C69_4 O37_4 1_555 1_555
H29_4 C59_4 1_555 1_555
C64_4 C59_4 1_555 1_555
H34_4 C64_4 1_555 1_555
Gd11_2 O9_6 1_555 1_555
Gd9_6 O9_6 1_555 1_555
C14_6 C19_6 1_555 1_555
C19_6 C24_6 1_555 1_555
C24_6 H9_6 1_555 1_555
C29_6 C24_6 1_555 1_555
H14_6 C29_6 1_555 1_555
C34_6 C29_6 1_555 1_555
H19_6 C34_6 1_555 1_555
C39_6 C19_6 1_555 1_555
O9_6 C39_6 1_555 1_555
O15_6 Gd9_6 1_555 1_555
C14_6 O27_2 1_555 1_555
C14_6 N9_2 1_555 1_555
C34_6 N9_2 1_555 1_555
C39_6 O15_6 1_555 1_555
O26_6 Gd18_2 1_555 1_555
O41_6 Gd18_2 1_555 1_555
O51_6 Gd18_2 1_555 1_555
N8_6 Gd18_2 1_555 1_555
N15_6 Gd18_2 1_555 1_555
C16_5 C21_5 1_555 1_555
C21_5 C26_5 1_555 1_555
C26_5 H11_5 1_555 1_555
C31_5 C26_5 1_555 1_555
H16_5 C31_5 1_555 1_555
C36_5 C31_5 1_555 1_555
H21_5 C36_5 1_555 1_555
N6_5 Gd15_3 1_555 1_555
C16_5 N6_5 1_555 1_555
C36_5 N6_5 1_555 1_555
O7_9 Gd11_2 1_555 1_555
H7_13 O7_9 1_555 1_555
Gd9_5 O8_3 1_555 1_555
Gd9_4 O11_3 1_555 1_555
Gd10_2 O7_9 1_555 1_555
Gd12_3 O20_3 1_555 1_555
Gd15_4 O23_3 1_555 1_555
Gd18_3 O25_3 1_555 1_555
C46_3 C51_3 1_555 1_555
C47_5 C52_5 1_555 1_555
C51_3 C56_3 1_555 1_555
C52_5 C57_5 1_555 1_555
C56_3 H26_3 1_555 1_555
C57_5 H27_5 1_555 1_555
C61_3 C56_3 1_555 1_555
C62_5 C57_5 1_555 1_555
H31_3 C61_3 1_555 1_555
H32_5 C62_5 1_555 1_555
C66_3 C61_3 1_555 1_555
C67_5 C62_5 1_555 1_555
H36_3 C66_3 1_555 1_555
H37_5 C67_5 1_555 1_555
C71_3 C51_3 1_555 1_555
C72_5 C52_5 1_555 1_555
O8_3 Gd11_2 1_555 1_555
O11_3 Gd10_2 1_555 1_555
O13_3 Gd9_6 1_555 1_555
O14_3 Gd11_2 1_555 1_555
O17_3 Gd10_2 1_555 1_555
O19_3 Gd8_2 1_555 1_555
O20_3 Gd9_5 1_555 1_555
O23_3 Gd9_4 1_555 1_555
O25_3 Gd9_6 1_555 1_555
O32_3 Gd9_5 1_555 1_555
O33_3 Gd9_5 1_555 1_555
O34_3 Gd9_4 1_555 1_555
O39_3 Gd12_3 1_555 1_555
O40_5 Gd15_4 1_555 1_555
O47_3 Gd9_6 1_555 1_555
O48_3 Gd9_5 1_555 1_555
O49_3 Gd9_4 1_555 1_555
O54_9 H7_13 1_555 1_555
N8_7 Gd12_3 1_555 1_555
N13_3 Gd18_3 1_555 1_555
N14_5 Gd12_3 1_555 1_555
O7_9 Gd8_2 1_555 1_555
Gd9_5 O54_9 1_555 1_555
Gd9_4 O33_3 1_555 1_555
Gd9_4 O54_9 1_555 1_555
Gd9_6 O32_3 1_555 1_555
Gd9_6 O34_3 1_555 1_555
Gd9_6 O54_9 1_555 1_555
Gd8_2 O13_3 1_555 1_555
Gd12_3 O48_3 1_555 1_555
Gd15_4 O49_3 1_555 1_555
Gd18_3 O47_3 1_555 1_555
C38_3 O8_3 1_555 1_555
C38_3 O14_3 1_555 1_555
C41_5 O11_3 1_555 1_555
C41_5 O17_3 1_555 1_555
C46_3 O47_3 1_555 1_555
C46_3 N13_3 1_555 1_555
C47_5 O48_3 1_555 1_555
C47_5 N14_5 1_555 1_555
C66_3 N13_3 1_555 1_555
C67_5 N14_5 1_555 1_555
C71_3 O32_3 1_555 1_555
C71_3 O39_3 1_555 1_555
C72_5 O33_3 1_555 1_555
C72_5 O40_5 1_555 1_555
C13_3 C18_3 1_555 1_555
C18_3 C23_3 1_555 1_555
C23_3 H8_3 1_555 1_555
C28_3 C23_3 1_555 1_555
H13_3 C28_3 1_555 1_555
C33_3 C28_3 1_555 1_555
H18_3 C33_3 1_555 1_555
O26_7 Gd12_4 1_555 1_555
O41_7 Gd12_4 1_555 1_555
O51_7 Gd12_4 1_555 1_555
N3_3 Gd12_4 1_555 1_555
N15_7 Gd12_4 1_555 1_555
C13_3 N3_3 1_555 1_555
C33_3 N3_3 1_555 1_555
O26_8 Gd15_3 1_555 1_555
O41_8 Gd15_3 1_555 1_555
O51_8 Gd15_3 1_555 1_555
N15_8 Gd15_3 1_555 1_555
C16_6 C21_6 1_555 1_555
C21_6 C26_6 1_555 1_555
C26_6 H11_6 1_555 1_555
C31_6 C26_6 1_555 1_555
H16_6 C31_6 1_555 1_555
C36_6 C31_6 1_555 1_555
H21_6 C36_6 1_555 1_555
C41_6 C21_6 1_555 1_555
C47_6 C52_6 1_555 1_555
C52_6 C57_6 1_555 1_555
C57_6 H27_6 1_555 1_555
C62_6 C57_6 1_555 1_555
H32_6 C62_6 1_555 1_555
C67_6 C62_6 1_555 1_555
H37_6 C67_6 1_555 1_555
C72_6 C52_6 1_555 1_555
O40_6 Gd18_3 1_555 1_555
N6_6 Gd18_3 1_555 1_555
N8_8 Gd15_4 1_555 1_555
N14_6 Gd15_4 1_555 1_555
C16_6 O25_3 1_555 1_555
C16_6 N6_6 1_555 1_555
C36_6 N6_6 1_555 1_555
C41_6 O13_3 1_555 1_555
C41_6 O19_3 1_555 1_555
C47_6 O49_3 1_555 1_555
C47_6 N14_6 1_555 1_555
C67_6 N14_6 1_555 1_555
C72_6 O34_3 1_555 1_555
C72_6 O40_6 1_555 1_555
O26_9 Gd18_3 1_555 1_555
O41_9 Gd18_3 1_555 1_555
O51_9 Gd18_3 1_555 1_555
N8_9 Gd18_3 1_555 1_555
N15_9 Gd18_3 1_555 1_555
C17_3 C22_3 1_555 1_555
C22_3 C27_3 1_555 1_555
C27_3 H12_3 1_555 1_555
C32_3 C27_3 1_555 1_555
H17_3 C32_3 1_555 1_555
C37_3 C32_3 1_555 1_555
H22_3 C37_3 1_555 1_555
O27_3 Gd14_3 1_555 1_555
O43_3 Gd14_3 1_555 1_555
O52_3 Gd14_3 1_555 1_555
N7_3 Gd14_3 1_555 1_555
N16_3 Gd14_3 1_555 1_555
C17_3 N7_3 1_555 1_555
C37_3 N7_3 1_555 1_555
Gd1_3 O1_3 1_555 1_555
Gd2_3 O3_3 1_555 1_555
C7_3 C8_3 1_555 1_555
C8_3 C9_3 1_555 1_555
C9_3 H4_3 1_555 1_555
C10_3 C9_3 1_555 1_555
H5_3 C10_3 1_555 1_555
C11_3 C10_3 1_555 1_555
H6_3 C11_3 1_555 1_555
C12_3 C8_3 1_555 1_555
O1_3 C6_3 1_555 1_555
O2_3 C6_3 1_555 1_555
O3_3 Gd1_3 1_555 1_555
O4_3 Gd1_3 1_555 1_555
O5_3 Gd2_3 1_555 1_555
O6_3 C7_3 1_555 1_555
O7_10 Gd1_3 1_555 1_555
H7_14 O7_10 1_555 1_555
N2_3 C7_3 1_555 1_555
Gd3_3 O8_4 1_555 1_555
Gd4_3 O11_4 1_555 1_555
Gd5_3 O1_3 1_555 1_555
Gd6_3 O7_10 1_555 1_555
Gd7_3 O4_3 1_555 1_555
Gd13_3 O22_3 1_555 1_555
Gd14_4 O6_3 1_555 1_555
C13_4 C18_4 1_555 1_555
C14_7 C19_7 1_555 1_555
C15_3 C20_3 1_555 1_555
C16_7 C21_7 1_555 1_555
C18_4 C23_4 1_555 1_555
C19_7 C24_7 1_555 1_555
C20_3 C25_3 1_555 1_555
C21_7 C26_7 1_555 1_555
C23_4 H8_4 1_555 1_555
C24_7 H9_7 1_555 1_555
C25_3 H10_3 1_555 1_555
C26_7 H11_7 1_555 1_555
C28_4 C23_4 1_555 1_555
C29_7 C24_7 1_555 1_555
C30_3 C25_3 1_555 1_555
C31_7 C26_7 1_555 1_555
H14_7 C29_7 1_555 1_555
H15_3 C30_3 1_555 1_555
H16_7 C31_7 1_555 1_555
C33_4 C28_4 1_555 1_555
C34_7 C29_7 1_555 1_555
C35_3 C30_3 1_555 1_555
C36_7 C31_7 1_555 1_555
H18_4 C33_4 1_555 1_555
H19_7 C34_7 1_555 1_555
H20_3 C35_3 1_555 1_555
H21_7 C36_7 1_555 1_555
C38_4 C18_4 1_555 1_555
C40_3 C20_3 1_555 1_555
C41_7 C21_7 1_555 1_555
C43_5 C48_5 1_555 1_555
C46_4 C51_4 1_555 1_555
C47_7 C52_7 1_555 1_555
C48_5 C53_5 1_555 1_555
C51_4 C56_4 1_555 1_555
C52_7 C57_7 1_555 1_555
C53_5 H23_5 1_555 1_555
C56_4 H26_4 1_555 1_555
C57_7 H27_7 1_555 1_555
C58_5 C53_5 1_555 1_555
C62_7 C57_7 1_555 1_555
H28_5 C58_5 1_555 1_555
H32_7 C62_7 1_555 1_555
C63_5 C58_5 1_555 1_555
C67_7 C62_7 1_555 1_555
H33_5 C63_5 1_555 1_555
H37_7 C67_7 1_555 1_555
C68_5 C48_5 1_555 1_555
C71_4 C51_4 1_555 1_555
C72_7 C52_7 1_555 1_555
O8_4 Gd1_3 1_555 1_555
O10_3 Gd3_3 1_555 1_555
O11_4 Gd6_3 1_555 1_555
O12_3 Gd4_3 1_555 1_555
O13_4 Gd5_3 1_555 1_555
O14_4 Gd1_3 1_555 1_555
O16_3 Gd3_3 1_555 1_555
O17_4 Gd6_3 1_555 1_555
O18_3 Gd4_3 1_555 1_555
O19_4 Gd7_3 1_555 1_555
O26_2 Gd3_3 1_555 1_555
O22_3 Gd6_3 1_555 1_555
O26 Gd4_3 1_555 1_555
O24_3 Gd7_3 1_555 1_555
O26_3 Gd5_3 1_555 1_555
O29_3 Gd1_3 1_555 1_555
O32_4 Gd3_3 1_555 1_555
O33_4 Gd3_3 1_555 1_555
O34_4 Gd4_3 1_555 1_555
O35_3 Gd6_3 1_555 1_555
O36_3 Gd13_3 1_555 1_555
O42_3 Gd14_4 1_555 1_555
O44_3 Gd1_3 1_555 1_555
O51_3 Gd5_3 1_555 1_555
O51_2 Gd3_3 1_555 1_555
O51 Gd4_3 1_555 1_555
O50_3 Gd6_3 1_555 1_555
O54_10 H7_14 1_555 1_555
N4_5 Gd2_3 1_555 1_555
N5_3 Gd13_3 1_555 1_555
N9_3 Gd14_4 1_555 1_555
N10_5 Gd2_3 1_555 1_555
Gd2_3 O44_3 1_555 1_555
C11_3 N2_3 1_555 1_555
C12_3 O4_3 1_555 1_555
C12_3 O5_3 1_555 1_555
O2_3 Gd5_3 1_555 1_555
O6_3 Gd7_3 1_555 1_555
O7_10 Gd7_3 1_555 1_555
N2_3 Gd14_4 1_555 1_555
Gd3_3 O54_10 1_555 1_555
Gd4_3 O33_4 1_555 1_555
Gd4_3 O54_10 1_555 1_555
Gd5_3 O32_4 1_555 1_555
Gd5_3 O34_4 1_555 1_555
Gd5_3 O54_10 1_555 1_555
Gd6_3 O10_3 1_555 1_555
Gd6_3 O29_3 1_555 1_555
Gd7_3 O12_3 1_555 1_555
Gd7_3 O13_4 1_555 1_555
Gd7_3 O35_3 1_555 1_555
Gd13_3 O50_3 1_555 1_555
Gd14_4 O24_3 1_555 1_555
C13_4 O26_2 1_555 1_555
C13_4 N8_2 1_555 1_555
C14_7 N4_5 1_555 1_555
C15_3 O22_3 1_555 1_555
C15_3 N5_3 1_555 1_555
C16_7 O26 1_555 1_555
C16_7 N8 1_555 1_555
C33_4 N8_2 1_555 1_555
C34_7 N4_5 1_555 1_555
C35_3 N5_3 1_555 1_555
C36_7 N8 1_555 1_555
C38_4 O8_4 1_555 1_555
C38_4 O14_4 1_555 1_555
C40_3 O10_3 1_555 1_555
C40_3 O16_3 1_555 1_555
C41_7 O11_4 1_555 1_555
C41_7 O17_4 1_555 1_555
C42_3 O12_3 1_555 1_555
C42_3 O18_3 1_555 1_555
C43_5 O44_3 1_555 1_555
C43_5 N10_5 1_555 1_555
C46_4 O51_3 1_555 1_555
C46_4 N15_3 1_555 1_555
C47_7 O51_2 1_555 1_555
C47_7 N15_2 1_555 1_555
C63_5 N10_5 1_555 1_555
C67_7 N15_2 1_555 1_555
C68_5 O29_3 1_555 1_555
C68_5 O36_3 1_555 1_555
C71_4 O32_4 1_555 1_555
C71_4 O41_2 1_555 1_555
C72_7 O33_4 1_555 1_555
C72_7 O41 1_555 1_555
C1_3 C2_3 1_555 1_555
C2_3 C3_3 1_555 1_555
C3_3 H1_3 1_555 1_555
C4_3 C3_3 1_555 1_555
H2_3 C4_3 1_555 1_555
C5_3 C4_3 1_555 1_555
H3_3 C5_3 1_555 1_555
N1_3 Gd2_4 1_555 1_555
Gd8_3 O9_7 1_555 1_555
Gd9_7 O9_7 1_555 1_555
Gd10_3 O30_5 1_555 1_555
Gd11_3 O27_3 1_555 1_555
Gd13_3 O45_3 1_555 1_555
C44_5 C49_5 1_555 1_555
C45_3 C50_3 1_555 1_555
C49_5 C54_5 1_555 1_555
C50_3 C55_3 1_555 1_555
C54_5 H24_5 1_555 1_555
C55_3 H25_3 1_555 1_555
C59_5 C54_5 1_555 1_555
C60_3 C55_3 1_555 1_555
H29_5 C59_5 1_555 1_555
H30_3 C60_3 1_555 1_555
H31_4 C61_4 1_555 1_555
C64_5 C59_5 1_555 1_555
C65_3 C60_3 1_555 1_555
C66_4 C61_4 1_555 1_555
H34_5 C64_5 1_555 1_555
H35_3 C65_3 1_555 1_555
H36_4 C66_4 1_555 1_555
C69_5 C49_5 1_555 1_555
C70_3 C50_3 1_555 1_555
O9_7 C39_7 1_555 1_555
O15_7 Gd9_7 1_555 1_555
O21_5 Gd2_4 1_555 1_555
O30_5 Gd8_3 1_555 1_555
O31_3 Gd8_3 1_555 1_555
O37_5 Gd2_4 1_555 1_555
O45_3 Gd10_3 1_555 1_555
O46_3 Gd2_4 1_555 1_555
O52_3 Gd11_3 1_555 1_555
N11_3 Gd13_3 1_555 1_555
N12_3 Gd2_4 1_555 1_555
C1_3 N1_3 1_555 1_555
C5_3 N1_3 1_555 1_555
Gd8_3 O21_5 1_555 1_555
Gd8_3 O46_3 1_555 1_555
Gd11_3 O31_3 1_555 1_555
C39_7 O15_7 1_555 1_555
C44_5 O45_3 1_555 1_555
C44_5 N11_3 1_555 1_555
C45_3 O46_3 1_555 1_555
C45_3 N12_3 1_555 1_555
C64_5 N11_3 1_555 1_555
C65_3 N12_3 1_555 1_555
C69_5 O30_5 1_555 1_555
C69_5 O37_5 1_555 1_555
C70_3 O31_3 1_555 1_555
C70_3 O43_3 1_555 1_555
H32_8 C62_8 1_555 1_555
C67_8 C62_8 1_555 1_555
H37_8 C67_8 1_555 1_555
Gd10_3 O9_8 1_555 1_555
Gd9_8 O9_8 1_555 1_555
Gd11_3 O30_6 1_555 1_555
C14_8 C19_8 1_555 1_555
C16_8 C21_8 1_555 1_555
C19_8 C24_8 1_555 1_555
C21_8 C26_8 1_555 1_555
C24_8 H9_8 1_555 1_555
C26_8 H11_8 1_555 1_555
C29_8 C24_8 1_555 1_555
C31_8 C26_8 1_555 1_555
H14_8 C29_8 1_555 1_555
C34_8 C29_8 1_555 1_555
C36_8 C31_8 1_555 1_555
H19_8 C34_8 1_555 1_555
H21_8 C36_8 1_555 1_555
C39_8 C19_8 1_555 1_555
C41_8 C21_8 1_555 1_555
C43_6 C48_6 1_555 1_555
C44_6 C49_6 1_555 1_555
C47_8 C52_8 1_555 1_555
C48_6 C53_6 1_555 1_555
C49_6 C54_6 1_555 1_555
C52_8 C57_8 1_555 1_555
C53_6 H23_6 1_555 1_555
C54_6 H24_6 1_555 1_555
C57_8 H27_8 1_555 1_555
C58_6 C53_6 1_555 1_555
C59_6 C54_6 1_555 1_555
H28_6 C58_6 1_555 1_555
H29_6 C59_6 1_555 1_555
C63_6 C58_6 1_555 1_555
C64_6 C59_6 1_555 1_555
H33_6 C63_6 1_555 1_555
H34_6 C64_6 1_555 1_555
C68_6 C48_6 1_555 1_555
C69_6 C49_6 1_555 1_555
C72_8 C52_8 1_555 1_555
O9_8 C39_8 1_555 1_555
O15_8 Gd9_8 1_555 1_555
O21_6 Gd13_3 1_555 1_555
O30_6 Gd10_3 1_555 1_555
O37_6 Gd13_3 1_555 1_555
N4_6 Gd13_3 1_555 1_555
N10_6 Gd13_3 1_555 1_555
Gd10_3 O21_6 1_555 1_555
C14_8 O21_6 1_555 1_555
C14_8 N4_6 1_555 1_555
C16_8 O26_3 1_555 1_555
C16_8 N8_3 1_555 1_555
C34_8 N4_6 1_555 1_555
C36_8 N8_3 1_555 1_555
C39_8 O15_8 1_555 1_555
C41_8 O13_4 1_555 1_555
C41_8 O19_4 1_555 1_555
C43_6 O50_3 1_555 1_555
C43_6 N10_6 1_555 1_555
C44_6 O52_3 1_555 1_555
C44_6 N16_3 1_555 1_555
C47_8 O51 1_555 1_555
C47_8 N15 1_555 1_555
C63_6 N10_6 1_555 1_555
C64_6 N16_3 1_555 1_555
C68_6 O35_3 1_555 1_555
C68_6 O42_3 1_555 1_555
C69_6 O30_6 1_555 1_555
C69_6 O37_6 1_555 1_555
C72_8 O34_4 1_555 1_555
C72_8 O41_3 1_555 1_555
Gd11_3 O9_9 1_555 1_555
Gd9_9 O9_9 1_555 1_555
O9_9 C39_9 1_555 1_555
O15_9 Gd9_9 1_555 1_555
C39_9 O15_9 1_555 1_555
C14_9 C19_9 1_555 1_555
C19_9 C24_9 1_555 1_555
C24_9 H9_9 1_555 1_555
C29_9 C24_9 1_555 1_555
H14_9 C29_9 1_555 1_555
C34_9 C29_9 1_555 1_555
H19_9 C34_9 1_555 1_555
C14_9 N9_3 1_555 1_555
C34_9 N9_3 1_555 1_555
O7_11 Gd11_3 1_555 1_555
H7_15 O7_11 1_555 1_555
Gd9_8 O8_5 1_555 1_555
Gd9_7 O11_5 1_555 1_555
Gd10_3 O7_11 1_555 1_555
C13_5 C18_5 1_555 1_555
C16_9 C21_9 1_555 1_555
C18_5 C23_5 1_555 1_555
C21_9 C26_9 1_555 1_555
C23_5 H8_5 1_555 1_555
C26_9 H11_9 1_555 1_555
C28_5 C23_5 1_555 1_555
C31_9 C26_9 1_555 1_555
H16_9 C31_9 1_555 1_555
C33_5 C28_5 1_555 1_555
C36_9 C31_9 1_555 1_555
H18_5 C33_5 1_555 1_555
H21_9 C36_9 1_555 1_555
C38_5 C18_5 1_555 1_555
C41_9 C21_9 1_555 1_555
C46_5 C51_5 1_555 1_555
C47_9 C52_9 1_555 1_555
C51_5 C56_5 1_555 1_555
C52_9 C57_9 1_555 1_555
C56_5 H26_5 1_555 1_555
C57_9 H27_9 1_555 1_555
C62_9 C57_9 1_555 1_555
H32_9 C62_9 1_555 1_555
C67_9 C62_9 1_555 1_555
H37_9 C67_9 1_555 1_555
C71_5 C51_5 1_555 1_555
C72_9 C52_9 1_555 1_555
O8_5 Gd11_3 1_555 1_555
O11_5 Gd10_3 1_555 1_555
O13_5 Gd9_9 1_555 1_555
O14_5 Gd11_3 1_555 1_555
O17_5 Gd10_3 1_555 1_555
O19_5 Gd8_3 1_555 1_555
O26_5 Gd9_8 1_555 1_555
O26_4 Gd9_7 1_555 1_555
O26_6 Gd9_9 1_555 1_555
O32_5 Gd9_8 1_555 1_555
O33_5 Gd9_8 1_555 1_555
O34_5 Gd9_7 1_555 1_555
O51_6 Gd9_9 1_555 1_555
O51_5 Gd9_8 1_555 1_555
O51_4 Gd9_7 1_555 1_555
O54_11 H7_15 1_555 1_555
O7_11 Gd8_3 1_555 1_555
Gd9_8 O54_11 1_555 1_555
Gd9_7 O33_5 1_555 1_555
Gd9_7 O54_11 1_555 1_555
Gd9_9 O32_5 1_555 1_555
Gd9_9 O34_5 1_555 1_555
Gd9_9 O54_11 1_555 1_555
Gd8_3 O13_5 1_555 1_555
C13_5 O26_5 1_555 1_555
C13_5 N8_5 1_555 1_555
C16_9 O26_4 1_555 1_555
C16_9 N8_4 1_555 1_555
C33_5 N8_5 1_555 1_555
C36_9 N8_4 1_555 1_555
C38_5 O8_5 1_555 1_555
C38_5 O14_5 1_555 1_555
C41_9 O11_5 1_555 1_555
C41_9 O17_5 1_555 1_555
C46_5 O51_6 1_555 1_555
C46_5 N15_6 1_555 1_555
C47_9 O51_5 1_555 1_555
C47_9 N15_5 1_555 1_555
C67_9 N15_5 1_555 1_555
C71_5 O32_5 1_555 1_555
C71_5 O41_5 1_555 1_555
C72_9 O33_5 1_555 1_555
C72_9 O41_4 1_555 1_555
H31_5 C61_5 1_555 1_555
C66_5 C61_5 1_555 1_555
H36_5 C66_5 1_555 1_555
H32_10 C62_10 1_555 1_555
C67_10 C62_10 1_555 1_555
H37_10 C67_10 1_555 1_555
C16_10 C21_10 1_555 1_555
C21_10 C26_10 1_555 1_555
C26_10 H11_10 1_555 1_555
C31_10 C26_10 1_555 1_555
C36_10 C31_10 1_555 1_555
H21_10 C36_10 1_555 1_555
C41_10 C21_10 1_555 1_555
C47_10 C52_10 1_555 1_555
C52_10 C57_10 1_555 1_555
C57_10 H27_10 1_555 1_555
C72_10 C52_10 1_555 1_555
C16_10 O26_6 1_555 1_555
C16_10 N8_6 1_555 1_555
C36_10 N8_6 1_555 1_555
C41_10 O13_5 1_555 1_555
C41_10 O19_5 1_555 1_555
C47_10 O51_4 1_555 1_555
C47_10 N15_4 1_555 1_555
C72_10 O34_5 1_555 1_555
C72_10 O41_6 1_555 1_555
C16_11 C21_11 1_555 1_555
C21_11 C26_11 1_555 1_555
C26_11 H11_11 1_555 1_555
C31_11 C26_11 1_555 1_555
H16_11 C31_11 1_555 1_555
C36_11 C31_11 1_555 1_555
H21_11 C36_11 1_555 1_555
C16_11 N8_7 1_555 1_555
C36_11 N8_7 1_555 1_555
O7_12 Gd11 1_555 1_555
H7_16 O7_12 1_555 1_555
Gd9_2 O8_6 1_555 1_555
Gd9 O11_6 1_555 1_555
Gd10 O7_12 1_555 1_555
C46_6 C51_6 1_555 1_555
C47_11 C52_11 1_555 1_555
C51_6 C56_6 1_555 1_555
C52_11 C57_11 1_555 1_555
C56_6 H26_6 1_555 1_555
C57_11 H27_11 1_555 1_555
C61_6 C56_6 1_555 1_555
C62_11 C57_11 1_555 1_555
H31_6 C61_6 1_555 1_555
H32_11 C62_11 1_555 1_555
C66_6 C61_6 1_555 1_555
C67_11 C62_11 1_555 1_555
H36_6 C66_6 1_555 1_555
H37_11 C67_11 1_555 1_555
C71_6 C51_6 1_555 1_555
C72_11 C52_11 1_555 1_555
O8_6 Gd11 1_555 1_555
O11_6 Gd10 1_555 1_555
O13_6 Gd9_3 1_555 1_555
O14_6 Gd11 1_555 1_555
O17_6 Gd10 1_555 1_555
O19_6 Gd8 1_555 1_555
O26_8 Gd9_2 1_555 1_555
O26_7 Gd9 1_555 1_555
O26_9 Gd9_3 1_555 1_555
O32_6 Gd9_2 1_555 1_555
O33_6 Gd9_2 1_555 1_555
O34_6 Gd9 1_555 1_555
O51_9 Gd9_3 1_555 1_555
O51_8 Gd9_2 1_555 1_555
O51_7 Gd9 1_555 1_555
O54_12 H7_16 1_555 1_555
O7_12 Gd8 1_555 1_555
Gd9_2 O54_12 1_555 1_555
Gd9 O33_6 1_555 1_555
Gd9 O54_12 1_555 1_555
Gd9_3 O32_6 1_555 1_555
Gd9_3 O34_6 1_555 1_555
Gd9_3 O54_12 1_555 1_555
Gd8 O13_6 1_555 1_555
C38_6 O8_6 1_555 1_555
C38_6 O14_6 1_555 1_555
C41_11 O11_6 1_555 1_555
C41_11 O17_6 1_555 1_555
C46_6 O51_9 1_555 1_555
C46_6 N15_9 1_555 1_555
C47_11 O51_8 1_555 1_555
C47_11 N15_8 1_555 1_555
C66_6 N15_9 1_555 1_555
C67_11 N15_8 1_555 1_555
C71_6 O32_6 1_555 1_555
C71_6 O41_8 1_555 1_555
C72_11 O33_6 1_555 1_555
C72_11 O41_7 1_555 1_555
C13_6 C18_6 1_555 1_555
C18_6 C23_6 1_555 1_555
C23_6 H8_6 1_555 1_555
C28_6 C23_6 1_555 1_555
H13_6 C28_6 1_555 1_555
C33_6 C28_6 1_555 1_555
H18_6 C33_6 1_555 1_555
C13_6 N8_8 1_555 1_555
C33_6 N8_8 1_555 1_555
C16_12 C21_12 1_555 1_555
C21_12 C26_12 1_555 1_555
C26_12 H11_12 1_555 1_555
C31_12 C26_12 1_555 1_555
H16_12 C31_12 1_555 1_555
C36_12 C31_12 1_555 1_555
H21_12 C36_12 1_555 1_555
C41_12 C21_12 1_555 1_555
C47_12 C52_12 1_555 1_555
C52_12 C57_12 1_555 1_555
C57_12 H27_12 1_555 1_555
C62_12 C57_12 1_555 1_555
H32_12 C62_12 1_555 1_555
C67_12 C62_12 1_555 1_555
H37_12 C67_12 1_555 1_555
C72_12 C52_12 1_555 1_555
C16_12 O26_9 1_555 1_555
C16_12 N8_9 1_555 1_555
C36_12 N8_9 1_555 1_555
C41_12 O13_6 1_555 1_555
C41_12 O19_6 1_555 1_555
C47_12 O51_7 1_555 1_555
C47_12 N15_7 1_555 1_555
C67_12 N15_7 1_555 1_555
C72_12 O34_6 1_555 1_555
C72_12 O41_9 1_555 1_555

#END
