
###############################################################################
#
# This file contains modified crystal structure data generated from the
# MOF subset of the Cambridge Structural Database (CSD) v543 
# hosted by the Cambridge Crystallographic Data Centre (CCDC).
#
# This work is licensed under the Creative Commons
# Attribution-NonCommercial-ShareAlike 4.0 International License.
# To view a copy of this license, visit
# http://creativecommons.org/licenses/by-nc-sa/4.0/
# or send a letter to
# Creative Commons, PO Box 1866, Mountain View, CA 94042, USA.
#
# CIF created using the CSD Python API on 29 September 2022
# The structure has been converted into the P1 space group
# The structure has a 3D framework
# The original CSD entry ISUWUR is in the monoclinic crystal system
# The framework has been calculated to contain at least 10.0% void space
# The void calculation uses a probe of radius 1.32A, grid spacing 0.4
#
###############################################################################

data_ISUWUR
_chemical_formula_moiety         '(C120 H136 N16 O58 Tb6)n'
_symmetry_cell_setting           triclinic
_symmetry_space_group_name_H-M   'P 1'
_symmetry_Int_Tables_number      1
_space_group_name_Hall           'P 1'
loop_
_symmetry_equiv_pos_site_id
_symmetry_equiv_pos_as_xyz
1 x,y,z
_cell_length_a                   18.6318(8)
_cell_length_b                   11.4451(5)
_cell_length_c                   19.7386(8)
_cell_angle_alpha                90
_cell_angle_beta                 106.5040(10)
_cell_angle_gamma                90
_cell_volume                     4035.7
loop_
_atom_site_label
_atom_site_type_symbol
_atom_site_fract_x
_atom_site_fract_y
_atom_site_fract_z
Tb1 Tb 0.57495(2) 0.67245(2) 0.58291(2)
O1 O 0.4310(2) 0.6486(3) 0.7958(2)
O2 O 0.3833(2) 0.4694(3) 0.48165(19)
O3 O 0.4734(2) 0.5527(4) 0.5662(2)
O4 O 0.3459(2) 0.5477(4) 0.8294(2)
O5 O 0.1553(3) 0.3210(4) 0.6520(3)
O6 O 0.4802(3) 0.8078(4) 0.5894(3)
O7 O 0.5167(3) 0.7329(5) 0.4661(2)
O8 O 0.1738(3) 0.2753(5) 0.5512(2)
C1 C 0.3764(3) 0.5776(5) 0.7823(3)
N1 N 0.4132(4) 0.8031(6) 0.3885(4)
C2 C 0.2846(3) 0.4594(5) 0.6919(3)
H1 H 0.257028 0.448151 0.725124
C3 C 0.3651(3) 0.4918(5) 0.5948(3)
C4 C 0.3895(3) 0.5432(5) 0.6617(3)
H2 H 0.433738 0.589109 0.674086
C5 C 0.4103(3) 0.5056(5) 0.5432(3)
N2 N 0.3792(4) 0.8606(7) 0.6224(4)
C6 C 0.3011(3) 0.4233(5) 0.5771(3)
H3 H 0.285236 0.386915 0.532043
C7 C 0.2599(3) 0.4079(5) 0.6256(3)
C8 C 0.3488(3) 0.5269(5) 0.7101(3)
C9 C 0.1927(3) 0.3294(5) 0.6084(3)
C10 C 0.4534(4) 0.7191(6) 0.4242(4)
H4 H 0.433186 0.642306 0.418048
C11 C 0.4476(4) 0.8224(6) 0.6348(4)
H5 H 0.474061 0.804457 0.682330
C12 C 0.4379(6) 0.9249(8) 0.4003(6)
H6 H 0.415594 0.960780 0.434612
H7 H 0.422037 0.967849 0.355577
H8 H 0.492585 0.927379 0.418609
C13 C 0.3406(5) 0.7798(11) 0.3383(6)
H9 H 0.332453 0.695255 0.333744
H10 H 0.339367 0.812866 0.292196
H11 H 0.301151 0.815687 0.355259
C14 C 0.3449(5) 0.8766(9) 0.6794(5)
H12 H 0.302251 0.823258 0.672645
H13 H 0.327485 0.957422 0.679236
H14 H 0.381756 0.859810 0.724733
C15 C 0.3363(6) 0.8951(13) 0.5516(6)
H15 H 0.359250 0.964128 0.536999
H16 H 0.284850 0.913388 0.551319
H17 H 0.335900 0.830738 0.518719
Tb2 Tb 0.42505(2) 0.67245(2) 0.91709(2)
Tb3 Tb 0.07495(2) 0.17245(2) 0.58291(2)
Tb4 Tb 0.42505(2) 0.32755(2) 0.41709(2)
O9 O 0.5690(2) 0.6486(3) 0.7042(2)
O10 O 0.6167(2) 0.5306(3) 0.51835(19)
O11 O 0.6541(2) 0.5477(4) 0.6706(2)
O12 O 0.6553(3) 0.8210(4) 0.6520(3)
O13 O 0.6738(3) 0.7753(5) 0.5512(2)
O2_2 O 0.6167(2) 0.4694(3) 0.01835(19)
O7_2 O 0.4833(3) 0.7329(5) 0.0339(2)
N1_2 N 0.5868(4) 0.8031(6) 0.1115(4)
C10_2 C 0.5466(4) 0.7191(6) 0.0758(4)
H4_2 H 0.566814 0.642306 0.081952
C12_2 C 0.5621(6) 0.9249(8) 0.0997(6)
H6_2 H 0.584406 0.960780 0.065388
H7_2 H 0.577963 0.967849 0.144423
H8_2 H 0.507415 0.927379 0.081391
C13_2 C 0.6594(5) 0.7798(11) 0.1617(6)
H9_2 H 0.667547 0.695255 0.166256
H10_2 H 0.660633 0.812866 0.207804
H11_2 H 0.698849 0.815687 0.144741
Tb4_2 Tb 0.57495(2) 0.32755(2) 0.08291(2)
O3_2 O 0.5266(2) 0.5527(4) 0.9338(2)
O5_2 O 0.8447(3) 0.3210(4) 0.8480(3)
O6_2 O 0.5198(3) 0.8078(4) 0.9106(3)
O8_2 O 0.8262(3) 0.2753(5) 0.9488(2)
C1_2 C 0.6236(3) 0.5776(5) 0.7177(3)
C2_2 C 0.7154(3) 0.4594(5) 0.8081(3)
H1_2 H 0.742972 0.448151 0.774876
C3_2 C 0.6349(3) 0.4918(5) 0.9052(3)
C4_2 C 0.6105(3) 0.5432(5) 0.8383(3)
H2_2 H 0.566262 0.589109 0.825914
C5_2 C 0.5897(3) 0.5056(5) 0.9568(3)
N2_2 N 0.6208(4) 0.8606(7) 0.8776(4)
C6_2 C 0.6989(3) 0.4233(5) 0.9229(3)
H3_2 H 0.714764 0.386915 0.967957
C7_2 C 0.7401(3) 0.4079(5) 0.8744(3)
C8_2 C 0.6512(3) 0.5269(5) 0.7899(3)
C9_2 C 0.8073(3) 0.3294(5) 0.8916(3)
C11_2 C 0.5524(4) 0.8224(6) 0.8652(4)
H5_2 H 0.525939 0.804457 0.817670
C14_2 C 0.6551(5) 0.8766(9) 0.8206(5)
H12_2 H 0.697749 0.823258 0.827355
H13_2 H 0.672515 0.957422 0.820764
H14_2 H 0.618244 0.859810 0.775267
C15_2 C 0.6637(6) 0.8951(13) 0.9484(6)
H15_2 H 0.640750 0.964128 0.963001
H16_2 H 0.715150 0.913388 0.948681
H17_2 H 0.664100 0.830738 0.981281
Tb3_2 Tb 0.92505(2) 0.17245(2) 0.91709(2)
O10_2 O 0.3833(2) 0.5306(3) 0.98165(19)
O12_2 O 0.3447(3) 0.8210(4) 0.8480(3)
O13_2 O 0.3262(3) 0.7753(5) 0.9488(2)
O7_3 O 0.0167(3) 0.2329(5) 0.4661(2)
O9_2 O 0.0690(2) 0.1486(3) 0.7042(2)
O10_3 O 0.1167(2) 0.0306(3) 0.51835(19)
O11_2 O 0.1541(2) 0.0477(4) 0.6706(2)
O1_2 O 0.9310(2) 0.1486(3) 0.7958(2)
O3_3 O 0.9734(2) 0.0527(4) 0.5662(2)
O4_2 O 0.8459(2) 0.0477(4) 0.8294(2)
O6_3 O 0.9802(3) 0.3078(4) 0.5894(3)
C1_3 C 0.8764(3) 0.0776(5) 0.7823(3)
N1_3 N 0.9132(4) 0.3031(6) 0.3885(4)
C4_3 C 0.8895(3) 0.0432(5) 0.6617(3)
H2_3 H 0.933738 0.089109 0.674086
C5_3 C 0.9103(3) 0.0056(5) 0.5432(3)
N2_3 N 0.8792(4) 0.3606(7) 0.6224(4)
C8_3 C 0.8488(3) 0.0269(5) 0.7101(3)
C10_3 C 0.9534(4) 0.2191(6) 0.4242(4)
H4_3 H 0.933186 0.142306 0.418048
C11_3 C 0.9476(4) 0.3224(6) 0.6348(4)
H5_3 H 0.974061 0.304457 0.682330
C12_3 C 0.9379(6) 0.4249(8) 0.4003(6)
H6_3 H 0.915594 0.460780 0.434612
H7_3 H 0.922037 0.467849 0.355577
H8_3 H 0.992585 0.427379 0.418609
C13_3 C 0.8406(5) 0.2798(11) 0.3383(6)
H9_3 H 0.832453 0.195255 0.333744
H10_3 H 0.839367 0.312866 0.292196
H11_3 H 0.801151 0.315687 0.355259
C14_3 C 0.8449(5) 0.3766(9) 0.6794(5)
H12_3 H 0.802251 0.323258 0.672645
H13_3 H 0.827485 0.457422 0.679236
H14_3 H 0.881756 0.359810 0.724733
C15_3 C 0.8363(6) 0.3951(13) 0.5516(6)
H15_3 H 0.859250 0.464128 0.536999
H16_3 H 0.784850 0.413388 0.551319
H17_3 H 0.835900 0.330738 0.518719
O2_3 O 0.8833(2) 0.9694(3) 0.48165(19)
C2_3 C 0.7846(3) 0.9594(5) 0.6919(3)
H1_3 H 0.757028 0.948151 0.725124
C3_3 C 0.8651(3) 0.9918(5) 0.5948(3)
C6_3 C 0.8011(3) 0.9233(5) 0.5771(3)
H3_3 H 0.785236 0.886915 0.532043
C7_3 C 0.7599(3) 0.9079(5) 0.6256(3)
C9_3 C 0.6927(3) 0.8294(5) 0.6084(3)
Tb4_3 Tb 0.92505(2) 0.82755(2) 0.41709(2)
O3_4 O 0.0266(2) 0.0527(4) 0.9338(2)
O6_4 O 0.0198(3) 0.3078(4) 0.9106(3)
C1_4 C 0.1236(3) 0.0776(5) 0.7177(3)
C4_4 C 0.1105(3) 0.0432(5) 0.8383(3)
H2_4 H 0.066262 0.089109 0.825914
C5_4 C 0.0897(3) 0.0056(5) 0.9568(3)
N2_4 N 0.1208(4) 0.3606(7) 0.8776(4)
C8_4 C 0.1512(3) 0.0269(5) 0.7899(3)
C11_4 C 0.0524(4) 0.3224(6) 0.8652(4)
H5_4 H 0.025939 0.304457 0.817670
C14_4 C 0.1551(5) 0.3766(9) 0.8206(5)
H12_4 H 0.197749 0.323258 0.827355
H13_4 H 0.172515 0.457422 0.820764
H14_4 H 0.118244 0.359810 0.775267
C15_4 C 0.1637(6) 0.3951(13) 0.9484(6)
H15_4 H 0.140750 0.464128 0.963001
H16_4 H 0.215150 0.413388 0.948681
H17_4 H 0.164100 0.330738 0.981281
O2_4 O 0.1167(2) 0.9694(3) 0.01835(19)
Tb4_4 Tb 0.07495(2) 0.82755(2) 0.08291(2)
C2_4 C 0.2154(3) 0.9594(5) 0.8081(3)
H1_4 H 0.242972 0.948151 0.774876
C3_4 C 0.1349(3) 0.9918(5) 0.9052(3)
C6_4 C 0.1989(3) 0.9233(5) 0.9229(3)
H3_4 H 0.214764 0.886915 0.967957
C7_4 C 0.2401(3) 0.9079(5) 0.8744(3)
C9_4 C 0.3073(3) 0.8294(5) 0.8916(3)
O10_4 O 0.8833(2) 0.0306(3) 0.98165(19)
O1_3 O 0.5690(2) 0.3514(3) 0.2042(2)
O3_5 O 0.5266(2) 0.4473(4) 0.4338(2)
O4_3 O 0.6541(2) 0.4523(4) 0.1706(2)
O5_3 O 0.8447(3) 0.6790(4) 0.3480(3)
O6_5 O 0.5198(3) 0.1922(4) 0.4106(3)
O7_4 O 0.4833(3) 0.2671(5) 0.5339(2)
O8_3 O 0.8262(3) 0.7247(5) 0.4488(2)
C1_5 C 0.6236(3) 0.4224(5) 0.2177(3)
N1_4 N 0.5868(4) 0.1969(6) 0.6115(4)
C2_5 C 0.7154(3) 0.5406(5) 0.3081(3)
H1_5 H 0.742972 0.551849 0.274876
C3_5 C 0.6349(3) 0.5082(5) 0.4052(3)
C4_5 C 0.6105(3) 0.4568(5) 0.3383(3)
H2_5 H 0.566262 0.410891 0.325914
C5_5 C 0.5897(3) 0.4944(5) 0.4568(3)
N2_5 N 0.6208(4) 0.1394(7) 0.3776(4)
C6_5 C 0.6989(3) 0.5767(5) 0.4229(3)
H3_5 H 0.714764 0.613085 0.467957
C7_5 C 0.7401(3) 0.5921(5) 0.3744(3)
C8_5 C 0.6512(3) 0.4731(5) 0.2899(3)
C9_5 C 0.8073(3) 0.6706(5) 0.3916(3)
C10_4 C 0.5466(4) 0.2809(6) 0.5758(4)
H4_4 H 0.566814 0.357694 0.581952
C11_5 C 0.5524(4) 0.1776(6) 0.3652(4)
H5_5 H 0.525939 0.195543 0.317670
C12_4 C 0.5621(6) 0.0751(8) 0.5997(6)
H6_4 H 0.584406 0.039220 0.565388
H7_4 H 0.577963 0.032151 0.644423
H8_4 H 0.507415 0.072621 0.581391
C13_4 C 0.6594(5) 0.2202(11) 0.6617(6)
H9_4 H 0.667547 0.304745 0.666256
H10_4 H 0.660633 0.187134 0.707804
H11_4 H 0.698849 0.184313 0.644741
C14_5 C 0.6551(5) 0.1234(9) 0.3206(5)
H12_5 H 0.697749 0.176742 0.327355
H13_5 H 0.672515 0.042578 0.320764
H14_5 H 0.618244 0.140190 0.275267
C15_5 C 0.6637(6) 0.1049(13) 0.4484(6)
H15_5 H 0.640750 0.035872 0.463001
H16_5 H 0.715150 0.086612 0.448681
H17_5 H 0.664100 0.169262 0.481281
O9_3 O 0.4310(2) 0.3514(3) 0.2958(2)
O11_3 O 0.3459(2) 0.4523(4) 0.3294(2)
O12_3 O 0.3447(3) 0.1790(4) 0.3480(3)
O13_3 O 0.3262(3) 0.2247(5) 0.4488(2)
O3_6 O 0.4734(2) 0.4473(4) 0.0662(2)
O5_4 O 0.1553(3) 0.6790(4) 0.1520(3)
O6_6 O 0.4802(3) 0.1922(4) 0.0894(3)
O8_4 O 0.1738(3) 0.7247(5) 0.0512(2)
C1_6 C 0.3764(3) 0.4224(5) 0.2823(3)
C2_6 C 0.2846(3) 0.5406(5) 0.1919(3)
H1_6 H 0.257028 0.551849 0.225124
C3_6 C 0.3651(3) 0.5082(5) 0.0948(3)
C4_6 C 0.3895(3) 0.4568(5) 0.1617(3)
H2_6 H 0.433738 0.410891 0.174086
C5_6 C 0.4103(3) 0.4944(5) 0.0432(3)
N2_6 N 0.3792(4) 0.1394(7) 0.1224(4)
C6_6 C 0.3011(3) 0.5767(5) 0.0771(3)
H3_6 H 0.285236 0.613085 0.032043
C7_6 C 0.2599(3) 0.5921(5) 0.1256(3)
C8_6 C 0.3488(3) 0.4731(5) 0.2101(3)
C9_6 C 0.1927(3) 0.6706(5) 0.1084(3)
C11_6 C 0.4476(4) 0.1776(6) 0.1348(4)
H5_6 H 0.474061 0.195543 0.182330
C14_6 C 0.3449(5) 0.1234(9) 0.1794(5)
H12_6 H 0.302251 0.176742 0.172645
H13_6 H 0.327485 0.042578 0.179236
H14_6 H 0.381756 0.140190 0.224733
C15_6 C 0.3363(6) 0.1049(13) 0.0516(6)
H15_6 H 0.359250 0.035872 0.036999
H16_6 H 0.284850 0.086612 0.051319
H17_6 H 0.335900 0.169262 0.018719
O12_4 O 0.6553(3) 0.1790(4) 0.1520(3)
O13_4 O 0.6738(3) 0.2247(5) 0.0512(2)
O7_5 O 0.5167(3) 0.2671(5) 0.9661(2)
N1_5 N 0.4132(4) 0.1969(6) 0.8885(4)
C10_5 C 0.4534(4) 0.2809(6) 0.9242(4)
H4_5 H 0.433186 0.357694 0.918048
C12_5 C 0.4379(6) 0.0751(8) 0.9003(6)
H6_5 H 0.415594 0.039220 0.934612
H7_5 H 0.422037 0.032151 0.855577
H8_5 H 0.492585 0.072621 0.918609
C13_5 C 0.3406(5) 0.2202(11) 0.8383(6)
H9_5 H 0.332453 0.304745 0.833744
H10_5 H 0.339367 0.187134 0.792196
H11_5 H 0.301151 0.184313 0.855259
C2_7 C 0.2154(3) 0.0406(5) 0.3081(3)
H1_7 H 0.242972 0.051849 0.274876
C3_7 C 0.1349(3) 0.0082(5) 0.4052(3)
C6_7 C 0.1989(3) 0.0767(5) 0.4229(3)
H3_7 H 0.214764 0.113085 0.467957
C7_7 C 0.2401(3) 0.0921(5) 0.3744(3)
C9_7 C 0.3073(3) 0.1706(5) 0.3916(3)
O1_4 O 0.0690(2) 0.8514(3) 0.2042(2)
O3_7 O 0.0266(2) 0.9473(4) 0.4338(2)
O4_4 O 0.1541(2) 0.9523(4) 0.1706(2)
O6_7 O 0.0198(3) 0.6922(4) 0.4106(3)
C1_7 C 0.1236(3) 0.9224(5) 0.2177(3)
N1_6 N 0.0868(4) 0.6969(6) 0.6115(4)
C4_7 C 0.1105(3) 0.9568(5) 0.3383(3)
H2_7 H 0.066262 0.910891 0.325914
C5_7 C 0.0897(3) 0.9944(5) 0.4568(3)
N2_7 N 0.1208(4) 0.6394(7) 0.3776(4)
C8_7 C 0.1512(3) 0.9731(5) 0.2899(3)
C10_6 C 0.0466(4) 0.7809(6) 0.5758(4)
H4_6 H 0.066814 0.857694 0.581952
C11_7 C 0.0524(4) 0.6776(6) 0.3652(4)
H5_7 H 0.025939 0.695543 0.317670
C12_6 C 0.0621(6) 0.5751(8) 0.5997(6)
H6_6 H 0.084406 0.539220 0.565388
H7_6 H 0.077963 0.532151 0.644423
H8_6 H 0.007415 0.572621 0.581391
C13_6 C 0.1594(5) 0.7202(11) 0.6617(6)
H9_6 H 0.167547 0.804745 0.666256
H10_6 H 0.160633 0.687134 0.707804
H11_6 H 0.198849 0.684313 0.644741
C14_7 C 0.1551(5) 0.6234(9) 0.3206(5)
H12_7 H 0.197749 0.676742 0.327355
H13_7 H 0.172515 0.542578 0.320764
H14_7 H 0.118244 0.640190 0.275267
C15_7 C 0.1637(6) 0.6049(13) 0.4484(6)
H15_7 H 0.140750 0.535872 0.463001
H16_7 H 0.215150 0.586612 0.448681
H17_7 H 0.164100 0.669262 0.481281
O7_6 O 0.9833(3) 0.7671(5) 0.5339(2)
O9_4 O 0.9310(2) 0.8514(3) 0.2958(2)
O11_4 O 0.8459(2) 0.9523(4) 0.3294(2)
C2_8 C 0.7846(3) 0.0406(5) 0.1919(3)
H1_8 H 0.757028 0.051849 0.225124
C3_8 C 0.8651(3) 0.0082(5) 0.0948(3)
C6_8 C 0.8011(3) 0.0767(5) 0.0771(3)
H3_8 H 0.785236 0.113085 0.032043
C7_8 C 0.7599(3) 0.0921(5) 0.1256(3)
C9_8 C 0.6927(3) 0.1706(5) 0.1084(3)
O3_8 O 0.9734(2) 0.9473(4) 0.0662(2)
O6_8 O 0.9802(3) 0.6922(4) 0.0894(3)
C1_8 C 0.8764(3) 0.9224(5) 0.2823(3)
C4_8 C 0.8895(3) 0.9568(5) 0.1617(3)
H2_8 H 0.933738 0.910891 0.174086
C5_8 C 0.9103(3) 0.9944(5) 0.0432(3)
N2_8 N 0.8792(4) 0.6394(7) 0.1224(4)
C8_8 C 0.8488(3) 0.9731(5) 0.2101(3)
C11_8 C 0.9476(4) 0.6776(6) 0.1348(4)
H5_8 H 0.974061 0.695543 0.182330
C14_8 C 0.8449(5) 0.6234(9) 0.1794(5)
H12_8 H 0.802251 0.676742 0.172645
H13_8 H 0.827485 0.542578 0.179236
H14_8 H 0.881756 0.640190 0.224733
C15_8 C 0.8363(6) 0.6049(13) 0.0516(6)
H15_8 H 0.859250 0.535872 0.036999
H16_8 H 0.784850 0.586612 0.051319
H17_8 H 0.835900 0.669262 0.018719
N1_7 N 0.0868(4) 0.3031(6) 0.1115(4)
C10_7 C 0.0466(4) 0.2191(6) 0.0758(4)
H4_7 H 0.066814 0.142306 0.081952
C12_7 C 0.0621(6) 0.4249(8) 0.0997(6)
H6_7 H 0.084406 0.460780 0.065388
H7_7 H 0.077963 0.467849 0.144423
H8_7 H 0.007415 0.427379 0.081391
C13_7 C 0.1594(5) 0.2798(11) 0.1617(6)
H9_7 H 0.167547 0.195255 0.166256
H10_7 H 0.160633 0.312866 0.207804
H11_7 H 0.198849 0.315687 0.144741
O7_7 O 0.9833(3) 0.2329(5) 0.0339(2)
O7_8 O 0.0167(3) 0.7671(5) 0.9661(2)
N1_8 N 0.9132(4) 0.6969(6) 0.8885(4)
C10_8 C 0.9534(4) 0.7809(6) 0.9242(4)
H4_8 H 0.933186 0.857694 0.918048
C12_8 C 0.9379(6) 0.5751(8) 0.9003(6)
H6_8 H 0.915594 0.539220 0.934612
H7_8 H 0.922037 0.532151 0.855577
H8_8 H 0.992585 0.572621 0.918609
C13_8 C 0.8406(5) 0.7202(11) 0.8383(6)
H9_8 H 0.832453 0.804745 0.833744
H10_8 H 0.839367 0.687134 0.792196
H11_8 H 0.801151 0.684313 0.855259
loop_
_geom_bond_atom_site_label_1
_geom_bond_atom_site_label_2
_geom_bond_site_symmetry_1
_geom_bond_site_symmetry_2
Tb1 O3 1_555 1_555
O1 C1 1_555 1_555
O2 C5 1_555 1_555
O3 C5 1_555 1_555
O4 C1 1_555 1_555
O5 C9 1_555 1_555
O6 Tb1 1_555 1_555
O7 Tb1 1_555 1_555
O8 C9 1_555 1_555
C1 C8 1_555 1_555
N1 C10 1_555 1_555
C2 H1 1_555 1_555
C3 C4 1_555 1_555
C4 H2 1_555 1_555
C5 C3 1_555 1_555
N2 C11 1_555 1_555
C6 C3 1_555 1_555
H3 C6 1_555 1_555
C7 C2 1_555 1_555
C8 C2 1_555 1_555
C9 C7 1_555 1_555
C10 O7 1_555 1_555
H4 C10 1_555 1_555
C11 O6 1_555 1_555
H5 C11 1_555 1_555
C12 N1 1_555 1_555
H6 C12 1_555 1_555
H7 C12 1_555 1_555
H8 C12 1_555 1_555
C13 N1 1_555 1_555
H9 C13 1_555 1_555
H10 C13 1_555 1_555
H11 C13 1_555 1_555
C14 N2 1_555 1_555
H12 C14 1_555 1_555
H13 C14 1_555 1_555
H14 C14 1_555 1_555
C15 N2 1_555 1_555
H15 C15 1_555 1_555
H16 C15 1_555 1_555
H17 C15 1_555 1_555
Tb2 O1 1_555 1_555
Tb3 O5 1_555 1_555
Tb4 O2 1_555 1_555
O9 Tb1 1_555 1_555
O10 Tb1 1_555 1_555
O11 Tb1 1_555 1_555
O12 Tb1 1_555 1_555
O13 Tb1 1_555 1_555
O4 Tb2 1_555 1_555
O8 Tb3 1_555 1_555
C4 C8 1_555 1_555
C6 C7 1_555 1_555
N1_2 C10_2 1_555 1_555
C10_2 O7_2 1_555 1_555
H4_2 C10_2 1_555 1_555
C12_2 N1_2 1_555 1_555
H6_2 C12_2 1_555 1_555
H7_2 C12_2 1_555 1_555
H8_2 C12_2 1_555 1_555
C13_2 N1_2 1_555 1_555
H9_2 C13_2 1_555 1_555
H10_2 C13_2 1_555 1_555
H11_2 C13_2 1_555 1_555
Tb4_2 O2_2 1_555 1_555
Tb2 O3_2 1_555 1_555
O9 C1_2 1_555 1_555
O3_2 C5_2 1_555 1_555
O11 C1_2 1_555 1_555
O5_2 C9_2 1_555 1_555
O6_2 Tb2 1_555 1_555
O8_2 C9_2 1_555 1_555
C1_2 C8_2 1_555 1_555
C2_2 H1_2 1_555 1_555
C3_2 C4_2 1_555 1_555
C4_2 H2_2 1_555 1_555
C5_2 C3_2 1_555 1_555
N2_2 C11_2 1_555 1_555
C6_2 C3_2 1_555 1_555
H3_2 C6_2 1_555 1_555
C7_2 C2_2 1_555 1_555
C8_2 C2_2 1_555 1_555
C9_2 C7_2 1_555 1_555
C11_2 O6_2 1_555 1_555
H5_2 C11_2 1_555 1_555
C14_2 N2_2 1_555 1_555
H12_2 C14_2 1_555 1_555
H13_2 C14_2 1_555 1_555
H14_2 C14_2 1_555 1_555
C15_2 N2_2 1_555 1_555
H15_2 C15_2 1_555 1_555
H16_2 C15_2 1_555 1_555
H17_2 C15_2 1_555 1_555
Tb3_2 O5_2 1_555 1_555
O10_2 Tb2 1_555 1_555
O12_2 Tb2 1_555 1_555
O13_2 Tb2 1_555 1_555
O8_2 Tb3_2 1_555 1_555
C4_2 C8_2 1_555 1_555
C6_2 C7_2 1_555 1_555
O7_3 Tb3 1_555 1_555
O9_2 Tb3 1_555 1_555
O10_3 Tb3 1_555 1_555
O11_2 Tb3 1_555 1_555
O1_2 C1_3 1_555 1_555
O3_3 C5_3 1_555 1_555
O4_2 C1_3 1_555 1_555
C1_3 C8_3 1_555 1_555
N1_3 C10_3 1_555 1_555
C4_3 H2_3 1_555 1_555
N2_3 C11_3 1_555 1_555
H4_3 C10_3 1_555 1_555
C11_3 O6_3 1_555 1_555
H5_3 C11_3 1_555 1_555
C12_3 N1_3 1_555 1_555
H6_3 C12_3 1_555 1_555
H7_3 C12_3 1_555 1_555
H8_3 C12_3 1_555 1_555
C13_3 N1_3 1_555 1_555
H9_3 C13_3 1_555 1_555
H10_3 C13_3 1_555 1_555
H11_3 C13_3 1_555 1_555
C14_3 N2_3 1_555 1_555
H12_3 C14_3 1_555 1_555
H13_3 C14_3 1_555 1_555
H14_3 C14_3 1_555 1_555
C15_3 N2_3 1_555 1_555
H15_3 C15_3 1_555 1_555
H16_3 C15_3 1_555 1_555
H17_3 C15_3 1_555 1_555
Tb3_2 O1_2 1_555 1_555
O4_2 Tb3_2 1_555 1_555
C4_3 C8_3 1_555 1_555
O12 C9_3 1_555 1_555
O13 C9_3 1_555 1_555
C2_3 H1_3 1_555 1_555
C6_3 C3_3 1_555 1_555
H3_3 C6_3 1_555 1_555
C7_3 C2_3 1_555 1_555
C9_3 C7_3 1_555 1_555
Tb4_3 O2_3 1_555 1_555
C6_3 C7_3 1_555 1_555
O9_2 C1_4 1_555 1_555
O3_4 C5_4 1_555 1_555
O11_2 C1_4 1_555 1_555
C1_4 C8_4 1_555 1_555
C4_4 H2_4 1_555 1_555
N2_4 C11_4 1_555 1_555
C11_4 O6_4 1_555 1_555
H5_4 C11_4 1_555 1_555
C14_4 N2_4 1_555 1_555
H12_4 C14_4 1_555 1_555
H13_4 C14_4 1_555 1_555
H14_4 C14_4 1_555 1_555
C15_4 N2_4 1_555 1_555
H15_4 C15_4 1_555 1_555
H16_4 C15_4 1_555 1_555
H17_4 C15_4 1_555 1_555
C4_4 C8_4 1_555 1_555
Tb4_4 O2_4 1_555 1_555
O12_2 C9_4 1_555 1_555
O13_2 C9_4 1_555 1_555
C2_4 H1_4 1_555 1_555
C6_4 C3_4 1_555 1_555
H3_4 C6_4 1_555 1_555
C7_4 C2_4 1_555 1_555
C9_4 C7_4 1_555 1_555
C6_4 C7_4 1_555 1_555
O10_4 Tb3_2 1_555 1_555
Tb4 O3_5 1_555 1_555
O1_3 C1_5 1_555 1_555
O10 C5_5 1_555 1_555
O3_5 C5_5 1_555 1_555
O4_3 C1_5 1_555 1_555
O5_3 C9_5 1_555 1_555
O6_5 Tb4 1_555 1_555
O7_4 Tb4 1_555 1_555
O8_3 C9_5 1_555 1_555
C1_5 C8_5 1_555 1_555
N1_4 C10_4 1_555 1_555
C2_5 H1_5 1_555 1_555
C3_5 C4_5 1_555 1_555
C4_5 H2_5 1_555 1_555
C5_5 C3_5 1_555 1_555
N2_5 C11_5 1_555 1_555
C6_5 C3_5 1_555 1_555
H3_5 C6_5 1_555 1_555
C7_5 C2_5 1_555 1_555
C8_5 C2_5 1_555 1_555
C9_5 C7_5 1_555 1_555
C10_4 O7_4 1_555 1_555
H4_4 C10_4 1_555 1_555
C11_5 O6_5 1_555 1_555
H5_5 C11_5 1_555 1_555
C12_4 N1_4 1_555 1_555
H6_4 C12_4 1_555 1_555
H7_4 C12_4 1_555 1_555
H8_4 C12_4 1_555 1_555
C13_4 N1_4 1_555 1_555
H9_4 C13_4 1_555 1_555
H10_4 C13_4 1_555 1_555
H11_4 C13_4 1_555 1_555
C14_5 N2_5 1_555 1_555
H12_5 C14_5 1_555 1_555
H13_5 C14_5 1_555 1_555
H14_5 C14_5 1_555 1_555
C15_5 N2_5 1_555 1_555
H15_5 C15_5 1_555 1_555
H16_5 C15_5 1_555 1_555
H17_5 C15_5 1_555 1_555
Tb4_2 O1_3 1_555 1_555
Tb4_3 O5_3 1_555 1_555
O9_3 Tb4 1_555 1_555
O11_3 Tb4 1_555 1_555
O12_3 Tb4 1_555 1_555
O13_3 Tb4 1_555 1_555
O4_3 Tb4_2 1_555 1_555
O8_3 Tb4_3 1_555 1_555
C4_5 C8_5 1_555 1_555
C6_5 C7_5 1_555 1_555
Tb4_2 O3_6 1_555 1_555
O9_3 C1_6 1_555 1_555
O3_6 C5_6 1_555 1_555
O11_3 C1_6 1_555 1_555
O5_4 C9_6 1_555 1_555
O6_6 Tb4_2 1_555 1_555
O8_4 C9_6 1_555 1_555
C1_6 C8_6 1_555 1_555
C2_6 H1_6 1_555 1_555
C3_6 C4_6 1_555 1_555
C4_6 H2_6 1_555 1_555
C5_6 C3_6 1_555 1_555
N2_6 C11_6 1_555 1_555
C6_6 C3_6 1_555 1_555
H3_6 C6_6 1_555 1_555
C7_6 C2_6 1_555 1_555
C8_6 C2_6 1_555 1_555
C9_6 C7_6 1_555 1_555
C11_6 O6_6 1_555 1_555
H5_6 C11_6 1_555 1_555
C14_6 N2_6 1_555 1_555
H12_6 C14_6 1_555 1_555
H13_6 C14_6 1_555 1_555
H14_6 C14_6 1_555 1_555
C15_6 N2_6 1_555 1_555
H15_6 C15_6 1_555 1_555
H16_6 C15_6 1_555 1_555
H17_6 C15_6 1_555 1_555
Tb4_4 O5_4 1_555 1_555
O12_4 Tb4_2 1_555 1_555
O13_4 Tb4_2 1_555 1_555
O8_4 Tb4_4 1_555 1_555
C4_6 C8_6 1_555 1_555
C6_6 C7_6 1_555 1_555
N1_5 C10_5 1_555 1_555
C10_5 O7_5 1_555 1_555
H4_5 C10_5 1_555 1_555
C12_5 N1_5 1_555 1_555
H6_5 C12_5 1_555 1_555
H7_5 C12_5 1_555 1_555
H8_5 C12_5 1_555 1_555
C13_5 N1_5 1_555 1_555
H9_5 C13_5 1_555 1_555
H10_5 C13_5 1_555 1_555
H11_5 C13_5 1_555 1_555
O12_3 C9_7 1_555 1_555
O13_3 C9_7 1_555 1_555
C2_7 H1_7 1_555 1_555
C6_7 C3_7 1_555 1_555
H3_7 C6_7 1_555 1_555
C7_7 C2_7 1_555 1_555
C9_7 C7_7 1_555 1_555
C6_7 C7_7 1_555 1_555
O1_4 C1_7 1_555 1_555
O3_7 C5_7 1_555 1_555
O4_4 C1_7 1_555 1_555
C1_7 C8_7 1_555 1_555
N1_6 C10_6 1_555 1_555
C4_7 H2_7 1_555 1_555
N2_7 C11_7 1_555 1_555
H4_6 C10_6 1_555 1_555
C11_7 O6_7 1_555 1_555
H5_7 C11_7 1_555 1_555
C12_6 N1_6 1_555 1_555
H6_6 C12_6 1_555 1_555
H7_6 C12_6 1_555 1_555
H8_6 C12_6 1_555 1_555
C13_6 N1_6 1_555 1_555
H9_6 C13_6 1_555 1_555
H10_6 C13_6 1_555 1_555
H11_6 C13_6 1_555 1_555
C14_7 N2_7 1_555 1_555
H12_7 C14_7 1_555 1_555
H13_7 C14_7 1_555 1_555
H14_7 C14_7 1_555 1_555
C15_7 N2_7 1_555 1_555
H15_7 C15_7 1_555 1_555
H16_7 C15_7 1_555 1_555
H17_7 C15_7 1_555 1_555
Tb4_4 O1_4 1_555 1_555
O4_4 Tb4_4 1_555 1_555
C4_7 C8_7 1_555 1_555
O7_6 Tb4_3 1_555 1_555
O9_4 Tb4_3 1_555 1_555
O11_4 Tb4_3 1_555 1_555
O12_4 C9_8 1_555 1_555
O13_4 C9_8 1_555 1_555
C2_8 H1_8 1_555 1_555
C6_8 C3_8 1_555 1_555
H3_8 C6_8 1_555 1_555
C7_8 C2_8 1_555 1_555
C9_8 C7_8 1_555 1_555
C6_8 C7_8 1_555 1_555
O9_4 C1_8 1_555 1_555
O3_8 C5_8 1_555 1_555
O11_4 C1_8 1_555 1_555
C1_8 C8_8 1_555 1_555
C4_8 H2_8 1_555 1_555
N2_8 C11_8 1_555 1_555
C11_8 O6_8 1_555 1_555
H5_8 C11_8 1_555 1_555
C14_8 N2_8 1_555 1_555
H12_8 C14_8 1_555 1_555
H13_8 C14_8 1_555 1_555
H14_8 C14_8 1_555 1_555
C15_8 N2_8 1_555 1_555
H15_8 C15_8 1_555 1_555
H16_8 C15_8 1_555 1_555
H17_8 C15_8 1_555 1_555
C4_8 C8_8 1_555 1_555
N1_7 C10_7 1_555 1_555
H4_7 C10_7 1_555 1_555
C12_7 N1_7 1_555 1_555
H6_7 C12_7 1_555 1_555
H7_7 C12_7 1_555 1_555
H8_7 C12_7 1_555 1_555
C13_7 N1_7 1_555 1_555
H9_7 C13_7 1_555 1_555
H10_7 C13_7 1_555 1_555
H11_7 C13_7 1_555 1_555
N1_8 C10_8 1_555 1_555
H4_8 C10_8 1_555 1_555
C12_8 N1_8 1_555 1_555
H6_8 C12_8 1_555 1_555
H7_8 C12_8 1_555 1_555
H8_8 C12_8 1_555 1_555
C13_8 N1_8 1_555 1_555
H9_8 C13_8 1_555 1_555
H10_8 C13_8 1_555 1_555
H11_8 C13_8 1_555 1_555

#END
