
###############################################################################
#
# This file contains modified crystal structure data generated from the
# MOF subset of the Cambridge Structural Database (CSD) v543 
# hosted by the Cambridge Crystallographic Data Centre (CCDC).
#
# This work is licensed under the Creative Commons
# Attribution-NonCommercial-ShareAlike 4.0 International License.
# To view a copy of this license, visit
# http://creativecommons.org/licenses/by-nc-sa/4.0/
# or send a letter to
# Creative Commons, PO Box 1866, Mountain View, CA 94042, USA.
#
# CIF created using the CSD Python API on 29 September 2022
# The structure has been converted into the P1 space group
# The structure has a 3D framework
# The original CSD entry ITAHEQ is in the hexagonal crystal system
# The framework has been calculated to contain at least 10.0% void space
# The void calculation uses a probe of radius 1.32A, grid spacing 0.4
#
###############################################################################

data_ITAHEQ
_chemical_formula_moiety         '(C88 H100 Eu2 O24)n'
_symmetry_cell_setting           triclinic
_symmetry_space_group_name_H-M   'P 1'
_symmetry_Int_Tables_number      1
_space_group_name_Hall           'P 1'
loop_
_symmetry_equiv_pos_site_id
_symmetry_equiv_pos_as_xyz
1 x,y,z
_cell_length_a                   16.46600(10)
_cell_length_b                   16.46600(10)
_cell_length_c                   7.73750(10)
_cell_angle_alpha                90
_cell_angle_beta                 90
_cell_angle_gamma                120
_cell_volume                     1816.8
loop_
_atom_site_label
_atom_site_type_symbol
_atom_site_fract_x
_atom_site_fract_y
_atom_site_fract_z
C15 C 0.0000 0.75462(19) 0.6515(3)
H15 H 0.0000 0.8082 0.7067
C16 C 0.0000 0.57327(13) 0.6214(5)
H16 H 0.0000 0.5354 0.5253
H17 H 0.0000 0.5414 0.7269
C18 C 0.0000 0.67940(14) 0.3608(5)
H20 H -0.0000 0.6849 0.2347
C20 C 0.0000 0.75863(15) 0.4615(3)
H23 H 0.0547 0.8168 0.4262
C21 C 0.08777(10) 0.66432(9) 0.6151(2)
C22 C 0.17341(11) 0.66344(12) 0.6861(3)
O7 O 0.25164(7) 0.69521(7) 0.6339(3)
O8 O 0.17591(12) 0.63777(19) 0.8333(2)
C23 C 0.08403(15) 0.68165(18) 0.4359(2)
H25 H 0.1373 0.7430 0.4110
H26 H 0.0938 0.6363 0.3729
C24 C 0.08867(11) 0.74612(10) 0.6989(3)
H27 H 0.0912 0.7404 0.8233
H28 H 0.1448 0.8031 0.6637
Eu5 Eu 0.3333 0.6667 0.8688(2)
Eu6 Eu 0.3333 0.6667 0.3688(2)
Eu1 Eu 0.6667 0.3333 0.3688(2)
O1 O 0.69521(7) 0.25164(7) 0.6339(3)
O2 O 0.63777(19) 0.17591(12) 0.8333(2)
C1 C 0.66344(12) 0.17341(11) 0.6861(3)
C2 C 0.66432(9) 0.08777(10) 0.6151(2)
C3 C 0.75462(19) 0.0000 0.6515(3)
H1 H 0.8082 0.0000 0.7067
C4 C 0.57327(13) 0.0000 0.6214(5)
H2 H 0.5354 0.0000 0.5253
H3 H 0.5414 -0.0000 0.7269
C5 C 0.68165(18) 0.08403(15) 0.4359(2)
H4 H 0.7430 0.1373 0.4110
H5 H 0.6363 0.0938 0.3729
C6 C 0.67940(14) 0.0000 0.3608(5)
H6 H 0.6849 0.0000 0.2347
C7 C 0.74612(10) 0.08867(11) 0.6989(3)
H7 H 0.7404 0.0912 0.8233
H8 H 0.8031 0.1448 0.6637
C8 C 0.75863(15) 0.0000 0.4615(3)
H10 H 0.8168 0.0547 0.4262
O5 O 0.74836(7) 0.44357(10) 0.6339(3)
O6 O 0.82409(12) 0.46186(22) 0.8333(2)
C13 C 0.82659(11) 0.49003(16) 0.6861(3)
C14 C 0.91223(10) 0.57655(13) 0.6151(2)
C15_2 C 1.0000 0.75462(19) 0.6515(3)
H15_2 H 1.0000 0.8082 0.7067
C16_2 C 1.0000 0.57327(13) 0.6214(5)
H16_2 H 1.0000 0.5354 0.5253
H17_2 H 1.0000 0.5414 0.7269
C17 C 0.91597(15) 0.59762(23) 0.4359(2)
H18 H 0.8627 0.6057 0.4110
H19 H 0.9062 0.5425 0.3729
C18_2 C 1.0000 0.67940(14) 0.3608(5)
H20_2 H 1.0000 0.6849 0.2347
C19 C 0.91133(11) 0.65745(15) 0.6989(3)
H21 H 0.9088 0.6492 0.8233
H22 H 0.8552 0.6583 0.6637
C20_2 C 1.0000 0.75863(15) 0.4615(3)
H24 H 0.9453 0.7621 0.4262
O9 O 0.55643(10) 0.30479(7) 0.6339(3)
O10 O 0.53814(22) 0.36223(19) 0.8333(2)
C25 C 0.50997(16) 0.33656(12) 0.6861(3)
C26 C 0.42345(13) 0.33568(9) 0.6151(2)
C27 C 0.24538(19) 0.24538(19) 0.6515(3)
H29 H 0.1918 0.1918 0.7067
C28 C 0.42673(13) 0.42673(13) 0.6214(5)
H30 H 0.4646 0.4646 0.5253
H31 H 0.4586 0.4586 0.7269
C29 C 0.40238(23) 0.31835(18) 0.4359(2)
H32 H 0.3943 0.2570 0.4110
H33 H 0.4575 0.3637 0.3729
C30 C 0.32060(14) 0.32060(14) 0.3608(5)
H34 H 0.3151 0.3151 0.2347
C31 C 0.34255(15) 0.25388(10) 0.6989(3)
H35 H 0.3508 0.2596 0.8233
H36 H 0.3417 0.1969 0.6637
C32 C 0.24137(15) 0.24137(15) 0.4615(3)
H37 H 0.1832 0.2379 0.4262
H38 H 0.2379 0.1832 0.4262
C33 C 0.33568(9) 0.42345(13) 0.6151(2)
C34 C 0.33656(12) 0.50997(16) 0.6861(3)
O11 O 0.30479(7) 0.55643(10) 0.6339(3)
O12 O 0.36223(19) 0.53814(22) 0.8333(2)
C35 C 0.31835(18) 0.40238(23) 0.4359(2)
H39 H 0.2570 0.3943 0.4110
H40 H 0.3637 0.4575 0.3729
C36 C 0.25388(10) 0.34255(15) 0.6989(3)
H41 H 0.2596 0.3508 0.8233
H42 H 0.1969 0.3417 0.6637
O13 O 0.74836(7) 0.30479(7) 0.1339(3)
O14 O 0.55643(10) 0.25164(7) 0.1339(3)
O15 O 0.69521(7) 0.44357(10) 0.1339(3)
O16 O 0.82409(12) 0.36223(19) 0.3333(2)
O17 O 0.53814(22) 0.17591(12) 0.3333(2)
O18 O 0.63777(19) 0.46186(22) 0.3333(2)
Eu3 Eu 0.6667 0.3333 0.8688(2)
C3_2 C 0.75462(19) 1.0000 0.6515(3)
H1_2 H 0.8082 1.0000 0.7067
C4_2 C 0.57327(13) 1.0000 0.6214(5)
H2_2 H 0.5354 1.0000 0.5253
H3_2 H 0.5414 1.0000 0.7269
C6_2 C 0.67940(14) 1.0000 0.3608(5)
H6_2 H 0.6849 1.0000 0.2347
C8_2 C 0.75863(15) 1.0000 0.4615(3)
H9 H 0.7621 0.9453 0.4262
C9 C 0.57655(13) 0.91223(10) 0.6151(2)
C10 C 0.49003(16) 0.82659(11) 0.6861(3)
O3 O 0.44357(10) 0.74836(7) 0.6339(3)
O4 O 0.46186(22) 0.82409(12) 0.8333(2)
C11 C 0.59762(23) 0.91597(15) 0.4359(2)
H11 H 0.6057 0.8627 0.4110
H12 H 0.5425 0.9062 0.3729
C12 C 0.65745(15) 0.91133(11) 0.6989(3)
H13 H 0.6492 0.9088 0.8233
H14 H 0.6583 0.8552 0.6637
O19 O 0.30479(7) 0.74836(7) 0.1339(3)
O20 O 0.25164(7) 0.55643(10) 0.1339(3)
O21 O 0.44357(10) 0.69521(7) 0.1339(3)
O24 O 0.36223(19) 0.82409(12) 0.3333(2)
O25 O 0.17591(12) 0.53814(22) 0.3333(2)
O26 O 0.46186(22) 0.63777(19) 0.3333(2)
C3_3 C 0.24538(19) 0.0000 0.1515(3)
H1_3 H 0.1918 0.0000 0.2067
C4_3 C 0.42673(13) 0.0000 0.1214(5)
H2_3 H 0.4646 0.0000 0.0253
H3_3 H 0.4586 0.0000 0.2269
C9_2 C 0.42345(13) 0.08777(10) 0.1151(2)
C10_2 C 0.50997(16) 0.17341(11) 0.1861(3)
C12_2 C 0.34255(15) 0.08867(11) 0.1989(3)
H13_2 H 0.3508 0.0912 0.3233
H14_2 H 0.3417 0.1448 0.1637
C6_3 C 0.32060(14) 0.0000 0.8608(5)
H6_3 H 0.3151 0.0000 0.7347
C8_3 C 0.24137(15) 0.0000 0.9615(3)
H9_2 H 0.2379 0.0547 0.9262
C11_2 C 0.40238(23) 0.08403(15) 0.9359(2)
H11_2 H 0.3943 0.1373 0.9110
H12_2 H 0.4575 0.0938 0.8729
C1_2 C 0.33656(12) 0.82659(11) 0.1861(3)
C2_2 C 0.33568(9) 0.91223(10) 0.1151(2)
C3_4 C 0.24538(19) 1.0000 0.1515(3)
H1_4 H 0.1918 1.0000 0.2067
C4_4 C 0.42673(13) 1.0000 0.1214(5)
H2_4 H 0.4646 1.0000 0.0253
H3_4 H 0.4586 1.0000 0.2269
C7_2 C 0.25388(10) 0.91133(11) 0.1989(3)
H7_2 H 0.2596 0.9088 0.3233
H8_2 H 0.1969 0.8552 0.1637
C13_2 C 0.17341(11) 0.50997(16) 0.1861(3)
C14_2 C 0.08777(10) 0.42345(13) 0.1151(2)
C15_3 C -0.0000 0.24538(19) 0.1515(3)
H15_3 H -0.0000 0.1918 0.2067
C16_3 C -0.0000 0.42673(13) 0.1214(5)
H16_3 H -0.0000 0.4646 0.0253
H17_3 H -0.0000 0.4586 0.2269
C19_2 C 0.08867(11) 0.34255(15) 0.1989(3)
H21_2 H 0.0912 0.3508 0.3233
H22_2 H 0.1448 0.3417 0.1637
C25_2 C 0.49003(16) 0.66344(12) 0.1861(3)
C26_2 C 0.57655(13) 0.66432(9) 0.1151(2)
C27_2 C 0.75462(19) 0.75462(19) 0.1515(3)
H29_2 H 0.8082 0.8082 0.2067
C28_2 C 0.57327(13) 0.57327(13) 0.1214(5)
H30_2 H 0.5354 0.5354 0.0253
H31_2 H 0.5414 0.5414 0.2269
C31_2 C 0.65745(15) 0.74612(10) 0.1989(3)
H35_2 H 0.6492 0.7404 0.3233
H36_2 H 0.6583 0.8031 0.1637
C33_2 C 0.66432(9) 0.57655(13) 0.1151(2)
C34_2 C 0.66344(12) 0.49003(16) 0.1861(3)
C36_2 C 0.74612(10) 0.65745(15) 0.1989(3)
H41_2 H 0.7404 0.6492 0.3233
H42_2 H 0.8031 0.6583 0.1637
C5_2 C 0.31835(18) 0.91597(15) 0.9359(2)
H4_2 H 0.2570 0.8627 0.9110
H5_2 H 0.3637 0.9062 0.8729
C6_4 C 0.32060(14) 1.0000 0.8608(5)
H6_4 H 0.3151 1.0000 0.7347
C8_4 C 0.24137(15) 1.0000 0.9615(3)
H10_2 H 0.1832 0.9453 0.9262
C17_2 C 0.08403(15) 0.40238(23) 0.9359(2)
H18_2 H 0.1373 0.3943 0.9110
H19_2 H 0.0938 0.4575 0.8729
C18_3 C -0.0000 0.32060(14) 0.8608(5)
H20_3 H 0.0000 0.3151 0.7347
C20_3 C -0.0000 0.24137(15) 0.9615(3)
H24_2 H 0.0547 0.2379 0.9262
C29_2 C 0.59762(23) 0.68165(18) 0.9359(2)
H32_2 H 0.6057 0.7430 0.9110
H33_2 H 0.5425 0.6363 0.8729
C30_2 C 0.67940(14) 0.67940(14) 0.8608(5)
H34_2 H 0.6849 0.6849 0.7347
C32_2 C 0.75863(15) 0.75863(15) 0.9615(3)
H37_2 H 0.8168 0.7621 0.9262
H38_2 H 0.7621 0.8168 0.9262
C35_2 C 0.68165(18) 0.59762(23) 0.9359(2)
H39_2 H 0.7430 0.6057 0.9110
H40_2 H 0.6363 0.5425 0.8729
C15_4 C 1.0000 0.24538(19) 0.1515(3)
H15_4 H 1.0000 0.1918 0.2067
C16_4 C 1.0000 0.42673(13) 0.1214(5)
H16_4 H 1.0000 0.4646 0.0253
H17_4 H 1.0000 0.4586 0.2269
C21_2 C 0.91223(10) 0.33568(9) 0.1151(2)
C22_2 C 0.82659(11) 0.33656(12) 0.1861(3)
C24_2 C 0.91133(11) 0.25388(10) 0.1989(3)
H27_2 H 0.9088 0.2596 0.3233
H28_2 H 0.8552 0.1969 0.1637
C18_4 C 1.0000 0.32060(14) 0.8608(5)
H20_4 H 1.0000 0.3151 0.7347
C20_4 C 1.0000 0.24137(15) 0.9615(3)
H23_2 H 0.9453 0.1832 0.9262
C23_2 C 0.91597(15) 0.31835(18) 0.9359(2)
H25_2 H 0.8627 0.2570 0.9110
H26_2 H 0.9062 0.3637 0.8729
loop_
_geom_bond_atom_site_label_1
_geom_bond_atom_site_label_2
_geom_bond_site_symmetry_1
_geom_bond_site_symmetry_2
C15 H15 1_555 1_555
H16 C16 1_555 1_555
H17 C16 1_555 1_555
H20 C18 1_555 1_555
C20 C15 1_555 1_555
H23 C20 1_555 1_555
C21 C16 1_555 1_555
C22 C21 1_555 1_555
O7 C22 1_555 1_555
O8 C22 1_555 1_555
C23 C18 1_555 1_555
H25 C23 1_555 1_555
H26 C23 1_555 1_555
C24 C15 1_555 1_555
H27 C24 1_555 1_555
H28 C24 1_555 1_555
Eu5 O7 1_555 1_555
Eu6 O7 1_555 1_555
C18 C20 1_555 1_555
C21 C24 1_555 1_555
C21 C23 1_555 1_555
O8 Eu5 1_555 1_555
Eu1 O1 1_555 1_555
O1 C1 1_555 1_555
O2 C1 1_555 1_555
C1 C2 1_555 1_555
C2 C4 1_555 1_555
C3 H1 1_555 1_555
C4 H2 1_555 1_555
H3 C4 1_555 1_555
C5 C2 1_555 1_555
H4 C5 1_555 1_555
H5 C5 1_555 1_555
C6 C5 1_555 1_555
H6 C6 1_555 1_555
C7 C2 1_555 1_555
H7 C7 1_555 1_555
H8 C7 1_555 1_555
C8 C3 1_555 1_555
H10 C8 1_555 1_555
O5 Eu1 1_555 1_555
O6 C13 1_555 1_555
C13 O5 1_555 1_555
C14 C13 1_555 1_555
C15_2 H15_2 1_555 1_555
C16_2 C14 1_555 1_555
H16_2 C16_2 1_555 1_555
H17_2 C16_2 1_555 1_555
C17 C14 1_555 1_555
H18 C17 1_555 1_555
H19 C17 1_555 1_555
C18_2 C17 1_555 1_555
H20_2 C18_2 1_555 1_555
C19 C14 1_555 1_555
H21 C19 1_555 1_555
H22 C19 1_555 1_555
C20_2 C15_2 1_555 1_555
H24 C20_2 1_555 1_555
O9 Eu1 1_555 1_555
O10 C25 1_555 1_555
C25 O9 1_555 1_555
C26 C25 1_555 1_555
C27 H29 1_555 1_555
C28 C26 1_555 1_555
H30 C28 1_555 1_555
H31 C28 1_555 1_555
C29 C26 1_555 1_555
H32 C29 1_555 1_555
H33 C29 1_555 1_555
C30 C29 1_555 1_555
H34 C30 1_555 1_555
C31 C26 1_555 1_555
H35 C31 1_555 1_555
H36 C31 1_555 1_555
C32 C27 1_555 1_555
H37 C32 1_555 1_555
H38 C32 1_555 1_555
C33 C28 1_555 1_555
C34 C33 1_555 1_555
O11 C34 1_555 1_555
O12 C34 1_555 1_555
C35 C30 1_555 1_555
H39 C35 1_555 1_555
H40 C35 1_555 1_555
C36 C27 1_555 1_555
H41 C36 1_555 1_555
H42 C36 1_555 1_555
O13 Eu1 1_555 1_555
O14 Eu1 1_555 1_555
O15 Eu1 1_555 1_555
O16 Eu1 1_555 1_555
O17 Eu1 1_555 1_555
O18 Eu1 1_555 1_555
Eu3 O1 1_555 1_555
Eu5 O11 1_555 1_555
Eu6 O11 1_555 1_555
O2 Eu3 1_555 1_555
C3 C7 1_555 1_555
C6 C8 1_555 1_555
O5 Eu3 1_555 1_555
O6 Eu3 1_555 1_555
C15_2 C19 1_555 1_555
C18_2 C20_2 1_555 1_555
O9 Eu3 1_555 1_555
O10 Eu3 1_555 1_555
C27 C31 1_555 1_555
C30 C32 1_555 1_555
C33 C36 1_555 1_555
C33 C35 1_555 1_555
O12 Eu5 1_555 1_555
C3_2 H1_2 1_555 1_555
C4_2 H2_2 1_555 1_555
H3_2 C4_2 1_555 1_555
H6_2 C6_2 1_555 1_555
C8_2 C3_2 1_555 1_555
H9 C8_2 1_555 1_555
C9 C4_2 1_555 1_555
C10 C9 1_555 1_555
O3 C10 1_555 1_555
O4 C10 1_555 1_555
C11 C6_2 1_555 1_555
H11 C11 1_555 1_555
H12 C11 1_555 1_555
C12 C3_2 1_555 1_555
H13 C12 1_555 1_555
H14 C12 1_555 1_555
Eu6 O3 1_555 1_555
Eu5 O3 1_555 1_555
O19 Eu6 1_555 1_555
O20 Eu6 1_555 1_555
O21 Eu6 1_555 1_555
O24 Eu6 1_555 1_555
O25 Eu6 1_555 1_555
O26 Eu6 1_555 1_555
C6_2 C8_2 1_555 1_555
C9 C11 1_555 1_555
C9 C12 1_555 1_555
O4 Eu5 1_555 1_555
C3_3 H1_3 1_555 1_555
C4_3 H2_3 1_555 1_555
H3_3 C4_3 1_555 1_555
C9_2 C4_3 1_555 1_555
C10_2 C9_2 1_555 1_555
O14 C10_2 1_555 1_555
O17 C10_2 1_555 1_555
C12_2 C3_3 1_555 1_555
H13_2 C12_2 1_555 1_555
H14_2 C12_2 1_555 1_555
C9_2 C12_2 1_555 1_555
H6_3 C6_3 1_555 1_555
H9_2 C8_3 1_555 1_555
C11_2 C6_3 1_555 1_555
H11_2 C11_2 1_555 1_555
H12_2 C11_2 1_555 1_555
C6_3 C8_3 1_555 1_555
O19 C1_2 1_555 1_555
O24 C1_2 1_555 1_555
C1_2 C2_2 1_555 1_555
C2_2 C4_4 1_555 1_555
C3_4 H1_4 1_555 1_555
C4_4 H2_4 1_555 1_555
H3_4 C4_4 1_555 1_555
C7_2 C2_2 1_555 1_555
H7_2 C7_2 1_555 1_555
H8_2 C7_2 1_555 1_555
O25 C13_2 1_555 1_555
C13_2 O20 1_555 1_555
C14_2 C13_2 1_555 1_555
C15_3 H15_3 1_555 1_555
C16_3 C14_2 1_555 1_555
H16_3 C16_3 1_555 1_555
H17_3 C16_3 1_555 1_555
C19_2 C14_2 1_555 1_555
H21_2 C19_2 1_555 1_555
H22_2 C19_2 1_555 1_555
O26 C25_2 1_555 1_555
C25_2 O21 1_555 1_555
C26_2 C25_2 1_555 1_555
C27_2 H29_2 1_555 1_555
C28_2 C26_2 1_555 1_555
H30_2 C28_2 1_555 1_555
H31_2 C28_2 1_555 1_555
C31_2 C26_2 1_555 1_555
H35_2 C31_2 1_555 1_555
H36_2 C31_2 1_555 1_555
C33_2 C28_2 1_555 1_555
C34_2 C33_2 1_555 1_555
O15 C34_2 1_555 1_555
O18 C34_2 1_555 1_555
C36_2 C27_2 1_555 1_555
H41_2 C36_2 1_555 1_555
H42_2 C36_2 1_555 1_555
C3_4 C7_2 1_555 1_555
C15_3 C19_2 1_555 1_555
C27_2 C31_2 1_555 1_555
C33_2 C36_2 1_555 1_555
H4_2 C5_2 1_555 1_555
H5_2 C5_2 1_555 1_555
C6_4 C5_2 1_555 1_555
H6_4 C6_4 1_555 1_555
H10_2 C8_4 1_555 1_555
H18_2 C17_2 1_555 1_555
H19_2 C17_2 1_555 1_555
C18_3 C17_2 1_555 1_555
H20_3 C18_3 1_555 1_555
H24_2 C20_3 1_555 1_555
H32_2 C29_2 1_555 1_555
H33_2 C29_2 1_555 1_555
C30_2 C29_2 1_555 1_555
H34_2 C30_2 1_555 1_555
H37_2 C32_2 1_555 1_555
H38_2 C32_2 1_555 1_555
C35_2 C30_2 1_555 1_555
H39_2 C35_2 1_555 1_555
H40_2 C35_2 1_555 1_555
C6_4 C8_4 1_555 1_555
C18_3 C20_3 1_555 1_555
C30_2 C32_2 1_555 1_555
C15_4 H15_4 1_555 1_555
H16_4 C16_4 1_555 1_555
H17_4 C16_4 1_555 1_555
C21_2 C16_4 1_555 1_555
C22_2 C21_2 1_555 1_555
O13 C22_2 1_555 1_555
O16 C22_2 1_555 1_555
C24_2 C15_4 1_555 1_555
H27_2 C24_2 1_555 1_555
H28_2 C24_2 1_555 1_555
C21_2 C24_2 1_555 1_555
H20_4 C18_4 1_555 1_555
H23_2 C20_4 1_555 1_555
C23_2 C18_4 1_555 1_555
H25_2 C23_2 1_555 1_555
H26_2 C23_2 1_555 1_555
C18_4 C20_4 1_555 1_555

#END
