
###############################################################################
#
# This file contains modified crystal structure data generated from the
# MOF subset of the Cambridge Structural Database (CSD) v543 
# hosted by the Cambridge Crystallographic Data Centre (CCDC).
#
# This work is licensed under the Creative Commons
# Attribution-NonCommercial-ShareAlike 4.0 International License.
# To view a copy of this license, visit
# http://creativecommons.org/licenses/by-nc-sa/4.0/
# or send a letter to
# Creative Commons, PO Box 1866, Mountain View, CA 94042, USA.
#
# CIF created using the CSD Python API on 29 September 2022
# The structure has been converted into the P1 space group
# The structure has a 3D framework
# The original CSD entry ITIBOE is in the monoclinic crystal system
# The framework has been calculated to contain at least 10.0% void space
# The void calculation uses a probe of radius 1.32A, grid spacing 0.4
#
###############################################################################

data_ITIBOE
_chemical_formula_moiety         '(C208 H128 N40 Ni8 O35)n'
_symmetry_cell_setting           triclinic
_symmetry_space_group_name_H-M   'P 1'
_symmetry_Int_Tables_number      1
_space_group_name_Hall           'P 1'
loop_
_symmetry_equiv_pos_site_id
_symmetry_equiv_pos_as_xyz
1 x,y,z
_cell_length_a                   18.6058(2)
_cell_length_b                   11.49349(12)
_cell_length_c                   24.2502(3)
_cell_angle_alpha                90
_cell_angle_beta                 98.1478(11)
_cell_angle_gamma                90
_cell_volume                     5133.45
loop_
_atom_site_label
_atom_site_type_symbol
_atom_site_fract_x
_atom_site_fract_y
_atom_site_fract_z
C42 C 0.09776(17) 0.1042(3) 0.00649(12)
C48 C 0.13039(17) 0.1417(3) 0.06226(12)
C49 C 0.19766(18) 0.0975(3) 0.08451(13)
H28 H 0.2216 0.0449 0.0643
C50 C 0.22874(18) 0.1326(3) 0.13703(13)
H29 H 0.2737 0.1018 0.1514
C51 C 0.1332(2) 0.2513(3) 0.14635(15)
H30 H 0.1109 0.3044 0.1673
C52 C 0.0981(2) 0.2209(3) 0.09442(14)
H31 H 0.0532 0.2532 0.0810
N10 N 0.19807(14) 0.2078(2) 0.16807(11)
Ni6 Ni 0.2500 0.2500 0.2500
C43 C 0.11079(16) 0.9541(3) 0.88117(12)
C44 C 0.09922(18) 0.9829(3) 0.82494(13)
C45 C 0.13528(17) 0.9209(3) 0.78802(12)
H25 H 0.1267 0.9416 0.7506
C46 C 0.1915(2) 0.8054(4) 0.85730(15)
H26 H 0.2226 0.7443 0.8691
C47 C 0.1583(2) 0.8618(4) 0.89630(15)
H27 H 0.1675 0.8385 0.9334
N9 N 0.18184(15) 0.8330(2) 0.80270(11)
Ni5 Ni 0.2500 0.7500 0.7500
C1 C 0.62815(19) 0.4097(3) 0.69225(14)
H1 H 0.6498 0.4629 0.7183
C2 C 0.56913(18) 0.4472(3) 0.65496(15)
H2 H 0.5518 0.5228 0.6567
C3 C 0.53662(16) 0.3708(3) 0.61550(12)
C4 C 0.5631(2) 0.2575(3) 0.61739(17)
H3 H 0.5419 0.2023 0.5922
C5 C 0.6207(2) 0.2276(4) 0.65662(16)
H4 H 0.6362 0.1506 0.6579
C6 C 0.47479(17) 0.4036(3) 0.57402(12)
C7 C 0.41556(17) 0.4768(3) 0.57471(12)
C8 C 0.40224(17) 0.3958(3) 0.49351(12)
C9 C 0.38921(16) 0.5459(3) 0.61883(12)
C10 C 0.40078(18) 0.5171(3) 0.67506(13)
H5 H 0.4323 0.4570 0.6878
C11 C 0.36472(17) 0.5791(3) 0.71198(12)
H6 H 0.3733 0.5584 0.7494
C12 C 0.3085(2) 0.6946(4) 0.64270(15)
H7 H 0.2774 0.7557 0.6309
C13 C 0.3417(2) 0.6382(4) 0.60370(15)
H8 H 0.3325 0.6615 0.5666
C14 C 0.36961(17) 0.3583(3) 0.43774(12)
C15 C 0.30234(18) 0.4025(3) 0.41549(13)
H9 H 0.2784 0.4551 0.4357
C16 C 0.27126(18) 0.3674(3) 0.36297(13)
H10 H 0.2263 0.3982 0.3486
C17 C 0.3668(2) 0.2487(3) 0.35365(15)
H11 H 0.3891 0.1956 0.3327
C18 C 0.4019(2) 0.2791(3) 0.40558(14)
H12 H 0.4468 0.2468 0.4190
C21 C 0.7535(4) 0.0032(4) 0.59692(17)
H13 H 0.7192 0.0619 0.5975
N1 N 0.65589(15) 0.3026(2) 0.69319(10)
N2 N 0.46488(14) 0.3522(2) 0.52198(10)
H16 H 0.4931 0.3019 0.5098
N3 N 0.37158(15) 0.4713(3) 0.52388(11)
N4 N 0.31816(15) 0.6670(2) 0.69730(11)
N5 N 0.30193(14) 0.2922(2) 0.33193(11)
Ni1 Ni 0.7500 0.2500 0.7500
O2 O 0.75606(13) 0.1035(2) 0.70193(9)
O5 O 0.7500 0.0300(6) 0.5000
C29 C 0.7465(4) 0.0032(4) 0.40308(17)
H17 H 0.7808 0.0619 0.4025
O7 O 0.74394(13) 0.1035(2) 0.29807(9)
C35 C 0.87185(19) 0.0903(3) 0.80775(14)
H20 H 0.8502 0.0371 0.7817
C36 C 0.93087(18) 0.0528(3) 0.84504(15)
C37 C 0.96338(16) 0.1292(3) 0.88450(12)
C38 C 0.9369(2) 0.2425(3) 0.88261(17)
H22 H 0.9581 0.2977 0.9078
C39 C 0.8793(2) 0.2724(4) 0.84338(16)
H23 H 0.8638 0.3494 0.8421
N6 N 0.84411(15) 0.1974(2) 0.80681(10)
N11 N 0.68184(15) 0.1670(2) 0.80270(11)
N12 N 0.81816(15) 0.3330(2) 0.69730(11)
Ni3 Ni 0.7500 0.2500 0.2500
O10 O 0.24586(13) 0.42760(18) 0.23691(9)
O11 O 0.25414(13) 0.07240(18) 0.26309(9)
O12 O 0.74394(13) 0.3965(2) 0.79807(9)
O13 O 0.35062(13) 0.2453(2) 0.22742(10)
O14 O 0.14938(13) 0.2547(2) 0.27258(10)
C19 C 0.75978(17) 0.9945(3) 0.70004(12)
C20 C 0.7834(2) 0.9489(3) 0.64663(13)
C22 C 0.7752(5) 0.9693(5) 0.54669(18)
C23 C 0.8240(5) 0.8841(6) 0.5448(2)
H14 H 0.8364 0.8595 0.5108
C24 C 0.8553(4) 0.8336(5) 0.5935(2)
H15 H 0.8902 0.7762 0.5920
C25 C 0.8370(2) 0.8650(3) 0.64565(15)
C26 C 0.8801(2) 0.8102(3) 0.69621(16)
O1 O 0.74586(13) 0.92760(18) 0.73691(9)
O3 O 0.85062(13) 0.7453(2) 0.72742(10)
O4 O 0.94691(18) 0.8255(4) 0.7014(2)
C27 C 0.74022(17) 0.9945(3) 0.29996(12)
C28 C 0.7166(2) 0.9489(3) 0.35337(13)
C30 C 0.7248(5) 0.9693(5) 0.45331(18)
C31 C 0.6760(5) 0.8841(6) 0.4552(2)
H18 H 0.6636 0.8595 0.4892
C32 C 0.6447(4) 0.8336(5) 0.4065(2)
H19 H 0.6098 0.7762 0.4080
C33 C 0.6630(2) 0.8650(3) 0.35435(15)
C34 C 0.6199(2) 0.8102(3) 0.30379(16)
O6 O 0.75414(13) 0.92760(18) 0.26309(9)
O8 O 0.64938(13) 0.7453(2) 0.27258(10)
O9 O 0.55309(18) 0.8255(4) 0.2986(2)
H21 H 0.9482 0.9772 0.8433
Ni7 Ni 0.7500 0.7500 0.7500
Ni8 Ni 0.7500 0.7500 0.2500
C6_2 C 0.02521(17) 0.4036(3) 0.42598(12)
C7_2 C 0.08444(17) 0.4768(3) 0.42529(12)
C8_2 C 0.09776(17) 0.3958(3) 0.50649(12)
C9_2 C 0.11079(16) 0.5459(3) 0.38117(12)
C10_2 C 0.09922(18) 0.5171(3) 0.32494(13)
H5_2 H 0.0677 0.4570 0.3122
C11_2 C 0.13528(17) 0.5791(3) 0.28802(12)
H6_2 H 0.1267 0.5584 0.2506
C12_2 C 0.1915(2) 0.6946(4) 0.35730(15)
H7_2 H 0.2226 0.7557 0.3691
C13_2 C 0.1583(2) 0.6382(4) 0.39630(15)
H8_2 H 0.1675 0.6615 0.4334
C14_2 C 0.13039(17) 0.3583(3) 0.56226(12)
C15_2 C 0.19766(18) 0.4025(3) 0.58451(13)
H9_2 H 0.2216 0.4551 0.5643
C16_2 C 0.22874(18) 0.3674(3) 0.63703(13)
H10_2 H 0.2737 0.3982 0.6514
C17_2 C 0.1332(2) 0.2487(3) 0.64635(15)
H11_2 H 0.1109 0.1956 0.6673
C18_2 C 0.0981(2) 0.2791(3) 0.59442(14)
H12_2 H 0.0532 0.2468 0.5810
N2_2 N 0.03512(14) 0.3522(2) 0.47802(10)
H16_2 H 0.0069 0.3019 0.4902
N3_2 N 0.12842(15) 0.4713(3) 0.47612(11)
N4_2 N 0.18184(15) 0.6670(2) 0.30270(11)
N5_2 N 0.19807(14) 0.2922(2) 0.66807(11)
Ni2 Ni 0.2500 0.2500 0.7500
N13 N 0.30193(14) 0.2078(2) 0.83193(11)
Ni4 Ni 0.2500 0.7500 0.2500
O10_2 O 0.25414(13) 0.42760(18) 0.76309(9)
O11_2 O 0.24586(13) 0.07240(18) 0.73691(9)
O13_2 O 0.14938(13) 0.2453(2) 0.77258(10)
O14_2 O 0.35062(13) 0.2547(2) 0.72742(10)
C1_2 C 0.87185(19) 0.4097(3) 0.30775(14)
H1_2 H 0.8502 0.4629 0.2817
C2_2 C 0.93087(18) 0.4472(3) 0.34504(15)
H2_2 H 0.9482 0.5228 0.3433
C3_2 C 0.96338(16) 0.3708(3) 0.38450(12)
C4_2 C 0.9369(2) 0.2575(3) 0.38261(17)
H3_2 H 0.9581 0.2023 0.4078
C5_2 C 0.8793(2) 0.2276(4) 0.34338(16)
H4_2 H 0.8638 0.1506 0.3421
N1_2 N 0.84411(15) 0.3026(2) 0.30681(10)
C35_2 C 0.62815(19) 0.0903(3) 0.19225(14)
H20_2 H 0.6498 0.0371 0.2183
C36_2 C 0.56913(18) 0.0528(3) 0.15496(15)
C37_2 C 0.53662(16) 0.1292(3) 0.11550(12)
C38_2 C 0.5631(2) 0.2425(3) 0.11739(17)
H22_2 H 0.5419 0.2977 0.0922
C39_2 C 0.6207(2) 0.2724(4) 0.15662(16)
H23_2 H 0.6362 0.3494 0.1579
C40 C 0.47479(17) 0.0964(3) 0.07402(12)
C41 C 0.41556(17) 0.0232(3) 0.07471(12)
H24 H 0.4323 0.0430 0.1878
N6_2 N 0.65589(15) 0.1974(2) 0.19319(10)
N7 N 0.46488(14) 0.1478(2) 0.02198(10)
H32 H 0.4931 0.1981 0.0098
N8 N 0.37158(15) 0.0287(3) 0.02388(11)
N11_2 N 0.81816(15) 0.1670(2) 0.19730(11)
N12_2 N 0.68184(15) 0.3330(2) 0.30270(11)
O12_2 O 0.75606(13) 0.3965(2) 0.20193(9)
C42_2 C 0.40224(17) 0.1042(3) 0.99351(12)
C48_2 C 0.36961(17) 0.1417(3) 0.93774(12)
C49_2 C 0.30234(18) 0.0975(3) 0.91549(13)
H28_2 H 0.2784 0.0449 0.9357
C50_2 C 0.27126(18) 0.1326(3) 0.86297(13)
H29_2 H 0.2263 0.1018 0.8486
C51_2 C 0.3668(2) 0.2513(3) 0.85365(15)
H30_2 H 0.3891 0.3044 0.8327
C52_2 C 0.4019(2) 0.2209(3) 0.90558(14)
H31_2 H 0.4468 0.2532 0.9190
H21_2 H 0.5518 0.9772 0.1567
C43_2 C 0.38921(16) 0.9541(3) 0.11883(12)
C44_2 C 0.40078(18) 0.9829(3) 0.17506(13)
C45_2 C 0.36472(17) 0.9209(3) 0.21198(12)
H25_2 H 0.3733 0.9416 0.2494
C46_2 C 0.3085(2) 0.8054(4) 0.14270(15)
H26_2 H 0.2774 0.7443 0.1309
C47_2 C 0.3417(2) 0.8618(4) 0.10370(15)
H27_2 H 0.3325 0.8385 0.0666
N9_2 N 0.31816(15) 0.8330(2) 0.19730(11)
H2_3 H 0.0518 0.0228 0.1567
C1_3 C 0.12815(19) 0.9097(3) 0.19225(14)
H1_3 H 0.1498 0.9629 0.2183
C2_3 C 0.06913(18) 0.9472(3) 0.15496(15)
C3_3 C 0.03662(16) 0.8708(3) 0.11550(12)
C4_3 C 0.0631(2) 0.7575(3) 0.11739(17)
H3_3 H 0.0419 0.7023 0.0922
C5_3 C 0.1207(2) 0.7276(4) 0.15662(16)
H4_3 H 0.1362 0.6506 0.1579
C19_2 C 0.25978(17) 0.4945(3) 0.20004(12)
C20_2 C 0.2834(2) 0.4489(3) 0.14663(13)
C21_2 C 0.2535(4) 0.5032(4) 0.09692(17)
H13_2 H 0.2192 0.5619 0.0975
C22_2 C 0.2752(5) 0.4693(5) 0.04669(18)
C23_2 C 0.3240(5) 0.3841(6) 0.0448(2)
H14_2 H 0.3364 0.3595 0.0108
C24_2 C 0.3553(4) 0.3336(5) 0.0935(2)
H15_2 H 0.3902 0.2762 0.0920
C25_2 C 0.3370(2) 0.3650(3) 0.14565(15)
C26_2 C 0.3801(2) 0.3102(3) 0.19621(16)
N1_3 N 0.15589(15) 0.8026(2) 0.19319(10)
O2_2 O 0.25606(13) 0.6035(2) 0.20193(9)
O4_2 O 0.44691(18) 0.3255(4) 0.2014(2)
O5_2 O 0.2500 0.5300(6) 0.0000
C35_3 C 0.37185(19) 0.5903(3) 0.30775(14)
H20_3 H 0.3502 0.5371 0.2817
C36_3 C 0.43087(18) 0.5528(3) 0.34504(15)
H21_3 H 0.4482 0.4772 0.3433
C37_3 C 0.46338(16) 0.6292(3) 0.38450(12)
C38_3 C 0.4369(2) 0.7425(3) 0.38261(17)
H22_3 H 0.4581 0.7977 0.4078
C39_3 C 0.3793(2) 0.7724(4) 0.34338(16)
H23_3 H 0.3638 0.8494 0.3421
C40_2 C 0.52521(17) 0.5964(3) 0.42598(12)
C41_2 C 0.58444(17) 0.5232(3) 0.42529(12)
C42_3 C 0.59776(17) 0.6042(3) 0.50649(12)
C43_3 C 0.61079(16) 0.4541(3) 0.38117(12)
C44_3 C 0.59922(18) 0.4829(3) 0.32494(13)
H24_2 H 0.5677 0.5430 0.3122
C45_3 C 0.63528(17) 0.4209(3) 0.28802(12)
H25_3 H 0.6267 0.4416 0.2506
C46_3 C 0.6915(2) 0.3054(4) 0.35730(15)
H26_3 H 0.7226 0.2443 0.3691
C47_3 C 0.6583(2) 0.3618(4) 0.39630(15)
H27_3 H 0.6675 0.3385 0.4334
C48_3 C 0.63039(17) 0.6417(3) 0.56226(12)
C49_3 C 0.69766(18) 0.5975(3) 0.58451(13)
H28_3 H 0.7216 0.5449 0.5643
C50_3 C 0.72874(18) 0.6326(3) 0.63703(13)
H29_3 H 0.7737 0.6018 0.6514
C51_3 C 0.6332(2) 0.7513(3) 0.64635(15)
H30_3 H 0.6109 0.8044 0.6673
C52_3 C 0.5981(2) 0.7209(3) 0.59442(14)
H31_3 H 0.5532 0.7532 0.5810
N6_3 N 0.34411(15) 0.6974(2) 0.30681(10)
N7_2 N 0.53512(14) 0.6478(2) 0.47802(10)
H32_2 H 0.5069 0.6981 0.4902
N8_2 N 0.62842(15) 0.5287(3) 0.47612(11)
N10_2 N 0.69807(14) 0.7078(2) 0.66807(11)
O12_3 O 0.24394(13) 0.8965(2) 0.29807(9)
O5_3 O 0.2500 0.5300(6) 1.0000
C27_2 C 0.24022(17) 0.4945(3) 0.79996(12)
C28_2 C 0.2166(2) 0.4489(3) 0.85337(13)
C29_2 C 0.2465(4) 0.5032(4) 0.90308(17)
H17_2 H 0.2808 0.5619 0.9025
C30_2 C 0.2248(5) 0.4693(5) 0.95331(18)
C31_2 C 0.1760(5) 0.3841(6) 0.9552(2)
H18_2 H 0.1636 0.3595 0.9892
C32_2 C 0.1447(4) 0.3336(5) 0.9065(2)
H19_2 H 0.1098 0.2762 0.9080
C33_2 C 0.1630(2) 0.3650(3) 0.85435(15)
C34_2 C 0.1199(2) 0.3102(3) 0.80379(16)
O7_2 O 0.24394(13) 0.6035(2) 0.79807(9)
O9_2 O 0.05309(18) 0.3255(4) 0.7986(2)
C9_3 C 0.88921(16) 0.0459(3) 0.11883(12)
C10_3 C 0.90078(18) 0.0171(3) 0.17506(13)
C11_3 C 0.86472(17) 0.0791(3) 0.21198(12)
H6_3 H 0.8733 0.0584 0.2494
C12_3 C 0.8085(2) 0.1946(4) 0.14270(15)
H7_3 H 0.7774 0.2557 0.1309
C13_3 C 0.8417(2) 0.1382(4) 0.10370(15)
H8_3 H 0.8325 0.1615 0.0666
C8_3 C 0.90224(17) 0.8958(3) 0.99351(12)
C14_3 C 0.86961(17) 0.8583(3) 0.93774(12)
C15_3 C 0.80234(18) 0.9025(3) 0.91549(13)
H9_3 H 0.7784 0.9551 0.9357
C16_3 C 0.77126(18) 0.8674(3) 0.86297(13)
H10_3 H 0.7263 0.8982 0.8486
C17_3 C 0.8668(2) 0.7487(3) 0.85365(15)
H11_3 H 0.8891 0.6956 0.8327
C18_3 C 0.9019(2) 0.7791(3) 0.90558(14)
H12_3 H 0.9468 0.7468 0.9190
N5_3 N 0.80193(14) 0.7922(2) 0.83193(11)
O11_3 O 0.75414(13) 0.57240(18) 0.76309(9)
O14_3 O 0.64938(13) 0.7547(2) 0.77258(10)
H2_4 H 0.4482 0.0228 0.8433
C9_4 C 0.61079(16) 0.0459(3) 0.88117(12)
C10_4 C 0.59922(18) 0.0171(3) 0.82494(13)
C11_4 C 0.63528(17) 0.0791(3) 0.78802(12)
H6_4 H 0.6267 0.0584 0.7506
C12_4 C 0.6915(2) 0.1946(4) 0.85730(15)
H7_4 H 0.7226 0.2557 0.8691
C13_4 C 0.6583(2) 0.1382(4) 0.89630(15)
H8_4 H 0.6675 0.1615 0.9334
C8_4 C 0.59776(17) 0.8958(3) 0.00649(12)
C14_4 C 0.63039(17) 0.8583(3) 0.06226(12)
C15_4 C 0.69766(18) 0.9025(3) 0.08451(13)
H9_4 H 0.7216 0.9551 0.0643
C16_4 C 0.72874(18) 0.8674(3) 0.13703(13)
H10_4 H 0.7737 0.8982 0.1514
C17_4 C 0.6332(2) 0.7487(3) 0.14635(15)
H11_4 H 0.6109 0.6956 0.1673
C18_4 C 0.5981(2) 0.7791(3) 0.09442(14)
H12_4 H 0.5532 0.7468 0.0810
N5_4 N 0.69807(14) 0.7922(2) 0.16807(11)
N13_2 N 0.80193(14) 0.7078(2) 0.33193(11)
O11_4 O 0.74586(13) 0.57240(18) 0.23691(9)
O14_4 O 0.85062(13) 0.7547(2) 0.22742(10)
C1_4 C 0.37185(19) 0.9097(3) 0.80775(14)
H1_4 H 0.3502 0.9629 0.7817
C2_4 C 0.43087(18) 0.9472(3) 0.84504(15)
C3_4 C 0.46338(16) 0.8708(3) 0.88450(12)
C4_4 C 0.4369(2) 0.7575(3) 0.88261(17)
H3_4 H 0.4581 0.7023 0.9078
C5_4 C 0.3793(2) 0.7276(4) 0.84338(16)
H4_4 H 0.3638 0.6506 0.8421
C6_3 C 0.52521(17) 0.9036(3) 0.92598(12)
C7_3 C 0.58444(17) 0.9768(3) 0.92529(12)
H5_3 H 0.5677 0.9570 0.8122
N1_4 N 0.34411(15) 0.8026(2) 0.80681(10)
N2_3 N 0.53512(14) 0.8522(2) 0.97802(10)
H16_3 H 0.5069 0.8019 0.9902
N3_3 N 0.62842(15) 0.9713(3) 0.97612(11)
C35_4 C 0.12815(19) 0.5903(3) 0.69225(14)
H20_4 H 0.1498 0.5371 0.7183
C36_4 C 0.06913(18) 0.5528(3) 0.65496(15)
H21_4 H 0.0518 0.4772 0.6567
C37_4 C 0.03662(16) 0.6292(3) 0.61550(12)
C38_4 C 0.0631(2) 0.7425(3) 0.61739(17)
H22_4 H 0.0419 0.7977 0.5922
C39_4 C 0.1207(2) 0.7724(4) 0.65662(16)
H23_4 H 0.1362 0.8494 0.6579
N6_4 N 0.15589(15) 0.6974(2) 0.69319(10)
O12_4 O 0.25606(13) 0.8965(2) 0.70193(9)
C40_3 C 0.97479(17) 0.5964(3) 0.57402(12)
C41_3 C 0.91556(17) 0.5232(3) 0.57471(12)
C42_4 C 0.90224(17) 0.6042(3) 0.49351(12)
C43_4 C 0.88921(16) 0.4541(3) 0.61883(12)
C44_4 C 0.90078(18) 0.4829(3) 0.67506(13)
H24_3 H 0.9323 0.5430 0.6878
C45_4 C 0.86472(17) 0.4209(3) 0.71198(12)
H25_4 H 0.8733 0.4416 0.7494
C46_4 C 0.8085(2) 0.3054(4) 0.64270(15)
H26_4 H 0.7774 0.2443 0.6309
C47_4 C 0.8417(2) 0.3618(4) 0.60370(15)
H27_4 H 0.8325 0.3385 0.5666
C48_4 C 0.86961(17) 0.6417(3) 0.43774(12)
C49_4 C 0.80234(18) 0.5975(3) 0.41549(13)
H28_4 H 0.7784 0.5449 0.4357
C50_4 C 0.77126(18) 0.6326(3) 0.36297(13)
H29_4 H 0.7263 0.6018 0.3486
C51_4 C 0.8668(2) 0.7513(3) 0.35365(15)
H30_4 H 0.8891 0.8044 0.3327
C52_4 C 0.9019(2) 0.7209(3) 0.40558(14)
H31_4 H 0.9468 0.7532 0.4190
N7_3 N 0.96488(14) 0.6478(2) 0.52198(10)
H32_3 H 0.9931 0.6981 0.5098
N8_3 N 0.87158(15) 0.5287(3) 0.52388(11)
C19_3 C 0.24022(17) 0.0055(3) 0.29996(12)
C20_3 C 0.2166(2) 0.0511(3) 0.35337(13)
C22_3 C 0.2248(5) 0.0307(5) 0.45331(18)
C23_3 C 0.1760(5) 0.1159(6) 0.4552(2)
H14_3 H 0.1636 0.1405 0.4892
C24_3 C 0.1447(4) 0.1664(5) 0.4065(2)
H15_3 H 0.1098 0.2238 0.4080
C25_3 C 0.1630(2) 0.1350(3) 0.35435(15)
C26_3 C 0.1199(2) 0.1898(3) 0.30379(16)
O4_3 O 0.05309(18) 0.1745(4) 0.2986(2)
C27_3 C 0.25978(17) 0.0055(3) 0.70004(12)
C28_3 C 0.2834(2) 0.0511(3) 0.64663(13)
C30_3 C 0.2752(5) 0.0307(5) 0.54669(18)
C31_3 C 0.3240(5) 0.1159(6) 0.5448(2)
H18_3 H 0.3364 0.1405 0.5108
C32_3 C 0.3553(4) 0.1664(5) 0.5935(2)
H19_3 H 0.3902 0.2238 0.5920
C33_3 C 0.3370(2) 0.1350(3) 0.64565(15)
C34_3 C 0.3801(2) 0.1898(3) 0.69621(16)
O9_3 O 0.44691(18) 0.1745(4) 0.7014(2)
C21_3 C 0.2465(4) 0.9968(4) 0.40308(17)
H13_3 H 0.2808 0.9381 0.4025
O5_4 O 0.2500 0.9700(6) 0.5000
C29_3 C 0.2535(4) 0.9968(4) 0.59692(17)
H17_3 H 0.2192 0.9381 0.5975
O5_5 O 0.7500 0.4700(6) 0.0000
C27_4 C 0.75978(17) 0.5055(3) 0.20004(12)
C28_4 C 0.7834(2) 0.5511(3) 0.14663(13)
C29_4 C 0.7535(4) 0.4968(4) 0.09692(17)
H17_4 H 0.7192 0.4381 0.0975
C30_4 C 0.7752(5) 0.5307(5) 0.04669(18)
C31_4 C 0.8240(5) 0.6159(6) 0.0448(2)
H18_4 H 0.8364 0.6405 0.0108
C32_4 C 0.8553(4) 0.6664(5) 0.0935(2)
H19_4 H 0.8902 0.7238 0.0920
C33_4 C 0.8370(2) 0.6350(3) 0.14565(15)
C34_4 C 0.8801(2) 0.6898(3) 0.19621(16)
O9_4 O 0.94691(18) 0.6745(4) 0.2014(2)
C19_4 C 0.74022(17) 0.5055(3) 0.79996(12)
C20_4 C 0.7166(2) 0.5511(3) 0.85337(13)
C21_4 C 0.7465(4) 0.4968(4) 0.90308(17)
H13_4 H 0.7808 0.4381 0.9025
C22_4 C 0.7248(5) 0.5307(5) 0.95331(18)
C23_4 C 0.6760(5) 0.6159(6) 0.9552(2)
H14_4 H 0.6636 0.6405 0.9892
C24_4 C 0.6447(4) 0.6664(5) 0.9065(2)
H15_4 H 0.6098 0.7238 0.9080
C25_4 C 0.6630(2) 0.6350(3) 0.85435(15)
C26_4 C 0.6199(2) 0.6898(3) 0.80379(16)
O4_4 O 0.55309(18) 0.6745(4) 0.7986(2)
O5_6 O 0.7500 0.4700(6) 1.0000
C40_4 C 0.02521(17) 0.0964(3) 0.92598(12)
C41_4 C 0.08444(17) 0.0232(3) 0.92529(12)
H24_4 H 0.0677 0.0430 0.8122
N7_4 N 0.03512(14) 0.1478(2) 0.97802(10)
H32_4 H 0.0069 0.1981 0.9902
N8_4 N 0.12842(15) 0.0287(3) 0.97612(11)
C6_4 C 0.97479(17) 0.9036(3) 0.07402(12)
C7_4 C 0.91556(17) 0.9768(3) 0.07471(12)
H5_4 H 0.9323 0.9570 0.1878
N2_4 N 0.96488(14) 0.8522(2) 0.02198(10)
H16_4 H 0.9931 0.8019 0.0098
N3_4 N 0.87158(15) 0.9713(3) 0.02388(11)
loop_
_geom_bond_atom_site_label_1
_geom_bond_atom_site_label_2
_geom_bond_site_symmetry_1
_geom_bond_site_symmetry_2
C42 C48 1_555 1_555
C48 C49 1_555 1_555
C49 H28 1_555 1_555
C50 C49 1_555 1_555
H29 C50 1_555 1_555
C51 H30 1_555 1_555
C52 C48 1_555 1_555
H31 C52 1_555 1_555
N10 C50 1_555 1_555
Ni6 N10 1_555 1_555
C51 C52 1_555 1_555
C51 N10 1_555 1_555
C44 C43 1_555 1_555
C45 C44 1_555 1_555
H25 C45 1_555 1_555
C46 H26 1_555 1_555
C47 C43 1_555 1_555
H27 C47 1_555 1_555
N9 C45 1_555 1_555
Ni5 N9 1_555 1_555
C46 C47 1_555 1_555
C46 N9 1_555 1_555
C1 H1 1_555 1_555
C2 C1 1_555 1_555
H2 C2 1_555 1_555
C3 C2 1_555 1_555
C4 C3 1_555 1_555
H3 C4 1_555 1_555
C5 C4 1_555 1_555
H4 C5 1_555 1_555
C6 C3 1_555 1_555
C7 C6 1_555 1_555
C8 C14 1_555 1_555
C9 C7 1_555 1_555
C10 C9 1_555 1_555
H5 C10 1_555 1_555
C11 C10 1_555 1_555
H6 C11 1_555 1_555
C12 H7 1_555 1_555
C13 C9 1_555 1_555
H8 C13 1_555 1_555
C14 C15 1_555 1_555
C15 H9 1_555 1_555
C16 C15 1_555 1_555
H10 C16 1_555 1_555
C17 H11 1_555 1_555
C18 C14 1_555 1_555
H12 C18 1_555 1_555
C21 H13 1_555 1_555
N1 C1 1_555 1_555
N2 C6 1_555 1_555
H16 N2 1_555 1_555
N3 C7 1_555 1_555
N4 C11 1_555 1_555
N5 C16 1_555 1_555
Ni1 N1 1_555 1_555
Ni6 N5 1_555 1_555
C29 H17 1_555 1_555
C35 H20 1_555 1_555
C36 C35 1_555 1_555
C37 C36 1_555 1_555
C38 C37 1_555 1_555
H22 C38 1_555 1_555
C39 C38 1_555 1_555
H23 C39 1_555 1_555
N6 Ni1 1_555 1_555
N11 Ni1 1_555 1_555
N12 Ni1 1_555 1_555
Ni3 O7 1_555 1_555
Ni5 N4 1_555 1_555
O10 Ni6 1_555 1_555
O11 Ni6 1_555 1_555
O12 Ni1 1_555 1_555
O13 Ni6 1_555 1_555
O14 Ni6 1_555 1_555
C5 N1 1_555 1_555
C8 N2 1_555 1_555
C8 N3 1_555 1_555
C12 C13 1_555 1_555
C12 N4 1_555 1_555
C17 C18 1_555 1_555
C17 N5 1_555 1_555
Ni1 O2 1_555 1_555
C35 N6 1_555 1_555
C39 N6 1_555 1_555
C19 C20 1_555 1_555
C23 C22 1_555 1_555
H14 C23 1_555 1_555
C24 C23 1_555 1_555
H15 C24 1_555 1_555
C25 C20 1_555 1_555
C26 C25 1_555 1_555
O1 C19 1_555 1_555
O3 C26 1_555 1_555
O4 C26 1_555 1_555
C27 C28 1_555 1_555
C31 C30 1_555 1_555
H18 C31 1_555 1_555
C32 C31 1_555 1_555
H19 C32 1_555 1_555
C33 C28 1_555 1_555
C34 C33 1_555 1_555
O6 C27 1_555 1_555
O8 C34 1_555 1_555
O9 C34 1_555 1_555
Ni7 O1 1_555 1_555
Ni8 O6 1_555 1_555
C24 C25 1_555 1_555
O3 Ni7 1_555 1_555
C32 C33 1_555 1_555
O8 Ni8 1_555 1_555
C7_2 C6_2 1_555 1_555
C8_2 C14_2 1_555 1_555
C9_2 C7_2 1_555 1_555
C10_2 C9_2 1_555 1_555
H5_2 C10_2 1_555 1_555
C11_2 C10_2 1_555 1_555
H6_2 C11_2 1_555 1_555
C12_2 H7_2 1_555 1_555
C13_2 C9_2 1_555 1_555
H8_2 C13_2 1_555 1_555
C14_2 C15_2 1_555 1_555
C15_2 H9_2 1_555 1_555
C16_2 C15_2 1_555 1_555
H10_2 C16_2 1_555 1_555
C17_2 H11_2 1_555 1_555
C18_2 C14_2 1_555 1_555
H12_2 C18_2 1_555 1_555
N2_2 C6_2 1_555 1_555
H16_2 N2_2 1_555 1_555
N3_2 C7_2 1_555 1_555
N4_2 C11_2 1_555 1_555
N5_2 C16_2 1_555 1_555
Ni2 N5_2 1_555 1_555
N13 Ni2 1_555 1_555
Ni4 N4_2 1_555 1_555
O10_2 Ni2 1_555 1_555
O11_2 Ni2 1_555 1_555
O13_2 Ni2 1_555 1_555
O14_2 Ni2 1_555 1_555
C8_2 N2_2 1_555 1_555
C8_2 N3_2 1_555 1_555
C12_2 C13_2 1_555 1_555
C12_2 N4_2 1_555 1_555
C17_2 C18_2 1_555 1_555
C17_2 N5_2 1_555 1_555
C1_2 H1_2 1_555 1_555
C2_2 C1_2 1_555 1_555
H2_2 C2_2 1_555 1_555
C3_2 C2_2 1_555 1_555
C4_2 C3_2 1_555 1_555
H3_2 C4_2 1_555 1_555
C5_2 C4_2 1_555 1_555
H4_2 C5_2 1_555 1_555
N1_2 C1_2 1_555 1_555
Ni3 N1_2 1_555 1_555
C35_2 H20_2 1_555 1_555
C36_2 C35_2 1_555 1_555
C37_2 C36_2 1_555 1_555
C38_2 C37_2 1_555 1_555
H22_2 C38_2 1_555 1_555
C39_2 C38_2 1_555 1_555
H23_2 C39_2 1_555 1_555
C40 C37_2 1_555 1_555
C41 C40 1_555 1_555
N6_2 Ni3 1_555 1_555
N7 C40 1_555 1_555
H32 N7 1_555 1_555
N8 C41 1_555 1_555
N11_2 Ni3 1_555 1_555
N12_2 Ni3 1_555 1_555
O12_2 Ni3 1_555 1_555
C5_2 N1_2 1_555 1_555
C35_2 N6_2 1_555 1_555
C39_2 N6_2 1_555 1_555
C42_2 C48_2 1_555 1_555
C48_2 C49_2 1_555 1_555
C49_2 H28_2 1_555 1_555
C50_2 C49_2 1_555 1_555
H29_2 C50_2 1_555 1_555
C51_2 H30_2 1_555 1_555
C52_2 C48_2 1_555 1_555
H31_2 C52_2 1_555 1_555
N13 C50_2 1_555 1_555
C51_2 C52_2 1_555 1_555
C51_2 N13 1_555 1_555
C44_2 C43_2 1_555 1_555
C45_2 C44_2 1_555 1_555
H25_2 C45_2 1_555 1_555
C46_2 H26_2 1_555 1_555
C47_2 C43_2 1_555 1_555
H27_2 C47_2 1_555 1_555
N9_2 C45_2 1_555 1_555
Ni4 N9_2 1_555 1_555
C46_2 C47_2 1_555 1_555
C46_2 N9_2 1_555 1_555
C1_3 H1_3 1_555 1_555
C2_3 C1_3 1_555 1_555
C3_3 C2_3 1_555 1_555
C4_3 C3_3 1_555 1_555
H3_3 C4_3 1_555 1_555
C5_3 C4_3 1_555 1_555
H4_3 C5_3 1_555 1_555
C19_2 C20_2 1_555 1_555
C20_2 C21_2 1_555 1_555
C21_2 H13_2 1_555 1_555
C22_2 C21_2 1_555 1_555
C23_2 C22_2 1_555 1_555
H14_2 C23_2 1_555 1_555
C24_2 C23_2 1_555 1_555
H15_2 C24_2 1_555 1_555
C25_2 C20_2 1_555 1_555
C26_2 C25_2 1_555 1_555
N1_3 C1_3 1_555 1_555
Ni4 N1_3 1_555 1_555
O10 C19_2 1_555 1_555
O2_2 C19_2 1_555 1_555
O13 C26_2 1_555 1_555
O4_2 C26_2 1_555 1_555
O5_2 C22_2 1_555 1_555
C35_3 H20_3 1_555 1_555
C36_3 C35_3 1_555 1_555
H21_3 C36_3 1_555 1_555
C37_3 C36_3 1_555 1_555
C38_3 C37_3 1_555 1_555
H22_3 C38_3 1_555 1_555
C39_3 C38_3 1_555 1_555
H23_3 C39_3 1_555 1_555
C40_2 C37_3 1_555 1_555
C41_2 C40_2 1_555 1_555
C42_3 C48_3 1_555 1_555
C43_3 C41_2 1_555 1_555
C44_3 C43_3 1_555 1_555
H24_2 C44_3 1_555 1_555
C45_3 C44_3 1_555 1_555
H25_3 C45_3 1_555 1_555
C46_3 H26_3 1_555 1_555
C47_3 C43_3 1_555 1_555
H27_3 C47_3 1_555 1_555
C48_3 C49_3 1_555 1_555
C49_3 H28_3 1_555 1_555
C50_3 C49_3 1_555 1_555
H29_3 C50_3 1_555 1_555
C51_3 H30_3 1_555 1_555
C52_3 C48_3 1_555 1_555
H31_3 C52_3 1_555 1_555
N6_3 Ni4 1_555 1_555
N7_2 C40_2 1_555 1_555
H32_2 N7_2 1_555 1_555
N8_2 C41_2 1_555 1_555
N12_2 C45_3 1_555 1_555
N10_2 C50_3 1_555 1_555
Ni7 N10_2 1_555 1_555
O12_3 Ni4 1_555 1_555
C5_3 N1_3 1_555 1_555
C24_2 C25_2 1_555 1_555
Ni4 O2_2 1_555 1_555
C35_3 N6_3 1_555 1_555
C39_3 N6_3 1_555 1_555
C42_3 N7_2 1_555 1_555
C42_3 N8_2 1_555 1_555
C46_3 C47_3 1_555 1_555
C46_3 N12_2 1_555 1_555
C51_3 C52_3 1_555 1_555
C51_3 N10_2 1_555 1_555
C27_2 C28_2 1_555 1_555
C28_2 C29_2 1_555 1_555
C29_2 H17_2 1_555 1_555
C30_2 O5_3 1_555 1_555
C31_2 C30_2 1_555 1_555
H18_2 C31_2 1_555 1_555
C32_2 C31_2 1_555 1_555
H19_2 C32_2 1_555 1_555
C33_2 C28_2 1_555 1_555
C34_2 C33_2 1_555 1_555
O10_2 C27_2 1_555 1_555
O7_2 C27_2 1_555 1_555
O13_2 C34_2 1_555 1_555
O9_2 C34_2 1_555 1_555
Ni5 O7_2 1_555 1_555
C29_2 C30_2 1_555 1_555
C32_2 C33_2 1_555 1_555
C10_3 C9_3 1_555 1_555
C11_3 C10_3 1_555 1_555
H6_3 C11_3 1_555 1_555
C12_3 H7_3 1_555 1_555
C13_3 C9_3 1_555 1_555
H8_3 C13_3 1_555 1_555
N11_2 C11_3 1_555 1_555
C12_3 C13_3 1_555 1_555
C12_3 N11_2 1_555 1_555
C8_3 C14_3 1_555 1_555
C14_3 C15_3 1_555 1_555
C15_3 H9_3 1_555 1_555
C16_3 C15_3 1_555 1_555
H10_3 C16_3 1_555 1_555
C17_3 H11_3 1_555 1_555
C18_3 C14_3 1_555 1_555
H12_3 C18_3 1_555 1_555
N5_3 C16_3 1_555 1_555
Ni7 N5_3 1_555 1_555
O11_3 Ni7 1_555 1_555
O14_3 Ni7 1_555 1_555
C17_3 C18_3 1_555 1_555
C17_3 N5_3 1_555 1_555
C10_4 C9_4 1_555 1_555
C11_4 C10_4 1_555 1_555
H6_4 C11_4 1_555 1_555
C12_4 H7_4 1_555 1_555
C13_4 C9_4 1_555 1_555
H8_4 C13_4 1_555 1_555
N11 C11_4 1_555 1_555
C12_4 C13_4 1_555 1_555
C12_4 N11 1_555 1_555
C8_4 C14_4 1_555 1_555
C14_4 C15_4 1_555 1_555
C15_4 H9_4 1_555 1_555
C16_4 C15_4 1_555 1_555
H10_4 C16_4 1_555 1_555
C17_4 H11_4 1_555 1_555
C18_4 C14_4 1_555 1_555
H12_4 C18_4 1_555 1_555
N5_4 C16_4 1_555 1_555
Ni8 N5_4 1_555 1_555
N13_2 Ni8 1_555 1_555
O11_4 Ni8 1_555 1_555
O14_4 Ni8 1_555 1_555
C17_4 C18_4 1_555 1_555
C17_4 N5_4 1_555 1_555
C1_4 H1_4 1_555 1_555
C2_4 C1_4 1_555 1_555
C3_4 C2_4 1_555 1_555
C4_4 C3_4 1_555 1_555
H3_4 C4_4 1_555 1_555
C5_4 C4_4 1_555 1_555
H4_4 C5_4 1_555 1_555
C6_3 C3_4 1_555 1_555
C7_3 C6_3 1_555 1_555
N1_4 C1_4 1_555 1_555
N2_3 C6_3 1_555 1_555
H16_3 N2_3 1_555 1_555
N3_3 C7_3 1_555 1_555
Ni5 N1_4 1_555 1_555
C35_4 H20_4 1_555 1_555
C36_4 C35_4 1_555 1_555
H21_4 C36_4 1_555 1_555
C37_4 C36_4 1_555 1_555
C38_4 C37_4 1_555 1_555
H22_4 C38_4 1_555 1_555
C39_4 C38_4 1_555 1_555
H23_4 C39_4 1_555 1_555
N6_4 Ni5 1_555 1_555
O12_4 Ni5 1_555 1_555
C5_4 N1_4 1_555 1_555
C35_4 N6_4 1_555 1_555
C39_4 N6_4 1_555 1_555
C41_3 C40_3 1_555 1_555
C42_4 C48_4 1_555 1_555
C43_4 C41_3 1_555 1_555
C44_4 C43_4 1_555 1_555
H24_3 C44_4 1_555 1_555
C45_4 C44_4 1_555 1_555
H25_4 C45_4 1_555 1_555
C46_4 H26_4 1_555 1_555
C47_4 C43_4 1_555 1_555
H27_4 C47_4 1_555 1_555
C48_4 C49_4 1_555 1_555
C49_4 H28_4 1_555 1_555
C50_4 C49_4 1_555 1_555
H29_4 C50_4 1_555 1_555
C51_4 H30_4 1_555 1_555
C52_4 C48_4 1_555 1_555
H31_4 C52_4 1_555 1_555
N7_3 C40_3 1_555 1_555
H32_3 N7_3 1_555 1_555
N8_3 C41_3 1_555 1_555
N12 C45_4 1_555 1_555
N13_2 C50_4 1_555 1_555
C42_4 N7_3 1_555 1_555
C42_4 N8_3 1_555 1_555
C46_4 C47_4 1_555 1_555
C46_4 N12 1_555 1_555
C51_4 C52_4 1_555 1_555
C51_4 N13_2 1_555 1_555
C19_3 C20_3 1_555 1_555
C23_3 C22_3 1_555 1_555
H14_3 C23_3 1_555 1_555
C24_3 C23_3 1_555 1_555
H15_3 C24_3 1_555 1_555
C25_3 C20_3 1_555 1_555
C26_3 C25_3 1_555 1_555
O11 C19_3 1_555 1_555
O14 C26_3 1_555 1_555
O4_3 C26_3 1_555 1_555
C27_3 C28_3 1_555 1_555
C31_3 C30_3 1_555 1_555
H18_3 C31_3 1_555 1_555
C32_3 C31_3 1_555 1_555
H19_3 C32_3 1_555 1_555
C33_3 C28_3 1_555 1_555
C34_3 C33_3 1_555 1_555
O11_2 C27_3 1_555 1_555
O14_2 C34_3 1_555 1_555
O9_3 C34_3 1_555 1_555
C24_3 C25_3 1_555 1_555
C32_3 C33_3 1_555 1_555
C21_3 H13_3 1_555 1_555
C29_3 H17_3 1_555 1_555
C27_4 C28_4 1_555 1_555
C28_4 C29_4 1_555 1_555
C29_4 H17_4 1_555 1_555
C30_4 O5_5 1_555 1_555
C31_4 C30_4 1_555 1_555
H18_4 C31_4 1_555 1_555
C32_4 C31_4 1_555 1_555
H19_4 C32_4 1_555 1_555
C33_4 C28_4 1_555 1_555
C34_4 C33_4 1_555 1_555
O11_4 C27_4 1_555 1_555
O12_2 C27_4 1_555 1_555
O14_4 C34_4 1_555 1_555
O9_4 C34_4 1_555 1_555
C29_4 C30_4 1_555 1_555
C32_4 C33_4 1_555 1_555
C19_4 C20_4 1_555 1_555
C20_4 C21_4 1_555 1_555
C21_4 H13_4 1_555 1_555
C22_4 C21_4 1_555 1_555
C23_4 C22_4 1_555 1_555
H14_4 C23_4 1_555 1_555
C24_4 C23_4 1_555 1_555
H15_4 C24_4 1_555 1_555
C25_4 C20_4 1_555 1_555
C26_4 C25_4 1_555 1_555
O11_3 C19_4 1_555 1_555
O12 C19_4 1_555 1_555
O14_3 C26_4 1_555 1_555
O4_4 C26_4 1_555 1_555
O5_6 C22_4 1_555 1_555
C24_4 C25_4 1_555 1_555
C41_4 C40_4 1_555 1_555
N7_4 C40_4 1_555 1_555
H32_4 N7_4 1_555 1_555
N8_4 C41_4 1_555 1_555
C7_4 C6_4 1_555 1_555
N2_4 C6_4 1_555 1_555
H16_4 N2_4 1_555 1_555
N3_4 C7_4 1_555 1_555

#END
