
###############################################################################
#
# This file contains modified crystal structure data generated from the
# MOF subset of the Cambridge Structural Database (CSD) v543 
# hosted by the Cambridge Crystallographic Data Centre (CCDC).
#
# This work is licensed under the Creative Commons
# Attribution-NonCommercial-ShareAlike 4.0 International License.
# To view a copy of this license, visit
# http://creativecommons.org/licenses/by-nc-sa/4.0/
# or send a letter to
# Creative Commons, PO Box 1866, Mountain View, CA 94042, USA.
#
# CIF created using the CSD Python API on 29 September 2022
# The structure has been converted into the P1 space group
# The structure has a 3D framework
# The original CSD entry ITIBIY is in the monoclinic crystal system
# The framework has been calculated to contain at least 10.0% void space
# The void calculation uses a probe of radius 1.32A, grid spacing 0.4
#
###############################################################################

data_ITIBIY
_chemical_formula_moiety         '(C208 H128 Co8 N40 O34)n'
_symmetry_cell_setting           triclinic
_symmetry_space_group_name_H-M   'P 1'
_symmetry_Int_Tables_number      1
_space_group_name_Hall           'P 1'
loop_
_symmetry_equiv_pos_site_id
_symmetry_equiv_pos_as_xyz
1 x,y,z
_cell_length_a                   24.2852(6)
_cell_length_b                   11.6075(4)
_cell_length_c                   18.6159(6)
_cell_angle_alpha                90
_cell_angle_beta                 97.381(3)
_cell_angle_gamma                90
_cell_volume                     5204.16
loop_
_atom_site_label
_atom_site_type_symbol
_atom_site_fract_x
_atom_site_fract_y
_atom_site_fract_z
C27 C 0.19536(17) 0.1889(4) 0.8801(2)
C28 C 0.14539(16) 0.1347(3) 0.8375(2)
C29 C 0.0940(2) 0.1675(4) 0.8564(3)
H17 H 0.0928 0.2241 0.8916
C30 C 0.0445(2) 0.1194(5) 0.8250(4)
H18 H 0.0107 0.1457 0.8369
C31 C 0.04647(16) 0.0327(4) 0.7763(4)
C33 C 0.14634(13) 0.0495(3) 0.7858(2)
C34 C 0.19921(12) 0.0034(3) 0.76177(18)
O6 O 0.22498(10) 0.2575(2) 0.85024(14)
O7 O 0.2028(2) 0.1688(4) 0.94567(19)
O9 O 0.23653(9) 0.0711(2) 0.74900(13)
Co8 Co 0.2500 0.2500 0.7500
O5 O 0.0000 0.9716(5) 0.7500
C32 C 0.09698(15) 0.9975(4) 0.7559(3)
H19 H 0.0978 0.9388 0.7220
O8 O 0.20157(9) 0.8959(2) 0.75651(14)
Co6 Co 0.2500 0.7500 0.7500
C1 C 0.34389(16) 0.2721(4) 0.3798(2)
H1 H 0.3425 0.3483 0.3641
C2 C 0.38240(17) 0.2432(4) 0.4370(2)
H2 H 0.4066 0.2990 0.4586
C3 C 0.38560(12) 0.1312(3) 0.46308(17)
C4 C 0.34690(15) 0.0547(3) 0.43069(19)
C5 C 0.30981(15) 0.0905(3) 0.3722(2)
H4 H 0.2845 0.0370 0.3503
C6 C 0.42667(12) 0.0993(3) 0.52446(18)
C7 C 0.50633(12) 0.1065(3) 0.59613(18)
C8 C 0.42584(13) 0.0257(3) 0.58280(19)
H8 H 0.3130 0.0453 0.5677
C14 C 0.56175(12) 0.1439(3) 0.62918(17)
C15 C 0.59442(15) 0.2211(3) 0.5974(2)
H9 H 0.5817 0.2529 0.5525
C16 C 0.64593(15) 0.2512(3) 0.6324(2)
H10 H 0.6671 0.3037 0.6099
C17 C 0.63552(14) 0.1345(3) 0.72725(19)
H11 H 0.6497 0.1035 0.7719
C18 C 0.58302(14) 0.1001(3) 0.69685(19)
H12 H 0.5624 0.0489 0.7211
C19 C 0.80464(17) 0.1889(4) 0.6199(2)
C20 C 0.85461(16) 0.1347(3) 0.6625(2)
C21 C 0.9060(2) 0.1675(4) 0.6436(3)
H13 H 0.9072 0.2241 0.6084
C22 C 0.9555(2) 0.1194(5) 0.6750(4)
H14 H 0.9893 0.1457 0.6631
C23 C 0.95353(16) 0.0327(4) 0.7237(4)
C25 C 0.85366(13) 0.0495(3) 0.7142(2)
C26 C 0.80079(12) 0.0034(3) 0.73823(18)
Co1 Co 0.2500 0.2500 0.2500
Co2 Co 0.7500 0.2500 0.7500
N1 N 0.30834(11) 0.1974(3) 0.34535(15)
N2 N 0.47876(10) 0.1506(3) 0.53401(14)
H16 H 0.4912 0.2007 0.5060
N3 N 0.47615(11) 0.0308(3) 0.62678(16)
N5 N 0.66682(11) 0.2091(3) 0.69639(16)
O1 O 0.77502(10) 0.2575(2) 0.64976(14)
O2 O 0.7972(2) 0.1688(4) 0.55433(19)
O4 O 0.76347(9) 0.0711(2) 0.75100(13)
C35 C 0.15611(16) 0.2279(4) 0.1202(2)
H20 H 0.1575 0.1517 0.1359
C36 C 0.11760(17) 0.2568(4) 0.0630(2)
H21 H 0.0934 0.2010 0.0414
C37 C 0.11440(12) 0.3688(3) 0.03692(17)
C38 C 0.15310(15) 0.4453(3) 0.06931(19)
H22 H 0.1544 0.5204 0.0521
C39 C 0.19019(15) 0.4095(3) 0.1278(2)
H23 H 0.2155 0.4630 0.1497
N6 N 0.19166(11) 0.3026(3) 0.15465(15)
N11 N 0.19658(11) 0.3355(3) 0.32052(16)
N12 N 0.30342(11) 0.1645(3) 0.17948(16)
N13 N 0.83318(11) 0.2909(3) 0.80361(16)
O10 O 0.72498(10) 0.2425(2) 0.85024(14)
O11 O 0.29843(9) 0.3959(2) 0.24349(14)
O12 O 0.20157(9) 0.1041(2) 0.25651(14)
O13 O 0.73653(9) 0.4289(2) 0.74900(13)
C40 C 0.07333(12) 0.4007(3) 0.97554(18)
C42 C 0.07416(13) 0.4743(3) 0.91720(19)
C43 C 0.11856(14) 0.5437(3) 0.89087(19)
C44 C 0.10346(15) 0.6364(4) 0.8449(3)
H24 H 0.0665 0.6591 0.8363
C45 C 0.14264(16) 0.6938(4) 0.8126(3)
H25 H 0.1314 0.7568 0.7834
C46 C 0.21103(13) 0.5766(3) 0.86557(18)
H26 H 0.2483 0.5557 0.8732
C47 C 0.17440(14) 0.5149(3) 0.90145(19)
H27 H 0.1870 0.4547 0.9323
N7 N 0.02124(10) 0.3494(3) 0.96599(14)
H32 H 0.0088 0.2993 0.9940
N8 N 0.02385(11) 0.4692(3) 0.87322(16)
N9 N 0.19658(11) 0.6645(3) 0.82052(16)
H3 H 0.3456 0.9796 0.4479
C9 C 0.38144(14) 0.9563(3) 0.60913(19)
C10 C 0.39654(15) 0.8636(4) 0.6551(3)
H5 H 0.4335 0.8409 0.6637
C11 C 0.35736(16) 0.8062(4) 0.6874(3)
H6 H 0.3686 0.7432 0.7166
C12 C 0.28897(13) 0.9234(3) 0.63443(18)
H7 H 0.2517 0.9443 0.6268
C13 C 0.32560(14) 0.9851(3) 0.59855(19)
C24 C 0.90302(15) 0.9975(4) 0.7441(3)
H15 H 0.9022 0.9388 0.7780
N4 N 0.30342(11) 0.8355(3) 0.67948(16)
O3 O 0.79843(9) 0.8959(2) 0.74349(14)
O5_2 O 1.0000 0.9716(5) 0.7500
Co3 Co 0.7500 0.7500 0.7500
C41 C 0.99367(12) 0.3935(3) 0.90387(18)
C48 C 0.93825(12) 0.3561(3) 0.87082(17)
C49 C 0.90558(15) 0.2789(3) 0.9026(2)
H28 H 0.9183 0.2471 0.9475
C50 C 0.85407(15) 0.2488(3) 0.8676(2)
H29 H 0.8329 0.1963 0.8901
C51 C 0.86448(14) 0.3655(3) 0.77275(19)
H30 H 0.8503 0.3965 0.7281
C52 C 0.91698(14) 0.3999(3) 0.80315(19)
H31 H 0.9376 0.4511 0.7789
C41_2 C 0.00633(12) 0.3935(3) 0.59613(18)
C48_2 C 0.06175(12) 0.3561(3) 0.62918(17)
C49_2 C 0.09442(15) 0.2789(3) 0.5974(2)
H28_2 H 0.0817 0.2471 0.5525
C50_2 C 0.14593(15) 0.2488(3) 0.6324(2)
H29_2 H 0.1671 0.1963 0.6099
C51_2 C 0.13552(14) 0.3655(3) 0.72725(19)
H30_2 H 0.1497 0.3965 0.7719
C52_2 C 0.08302(14) 0.3999(3) 0.69685(19)
H31_2 H 0.0624 0.4511 0.7211
N10 N 0.16682(11) 0.2909(3) 0.69639(16)
C1_2 C 0.65611(16) 0.2721(4) 0.1202(2)
H1_2 H 0.6575 0.3483 0.1359
C2_2 C 0.61760(17) 0.2432(4) 0.0630(2)
H2_2 H 0.5934 0.2990 0.0414
C3_2 C 0.61440(12) 0.1312(3) 0.03692(17)
C4_2 C 0.65310(15) 0.0547(3) 0.06931(19)
C5_2 C 0.69019(15) 0.0905(3) 0.1278(2)
H4_2 H 0.7155 0.0370 0.1497
Co1_2 Co 0.7500 0.2500 0.2500
N1_2 N 0.69166(11) 0.1974(3) 0.15465(15)
C35_2 C 0.84389(16) 0.2279(4) 0.3798(2)
H20_2 H 0.8425 0.1517 0.3641
C36_2 C 0.88240(17) 0.2568(4) 0.4370(2)
H21_2 H 0.9066 0.2010 0.4586
C37_2 C 0.88560(12) 0.3688(3) 0.46308(17)
C38_2 C 0.84690(15) 0.4453(3) 0.43069(19)
H22_2 H 0.8456 0.5204 0.4479
C39_2 C 0.80981(15) 0.4095(3) 0.3722(2)
H23_2 H 0.7845 0.4630 0.3503
C40_2 C 0.92667(12) 0.4007(3) 0.52446(18)
C42_2 C 0.92584(13) 0.4743(3) 0.58280(19)
C43_2 C 0.88144(14) 0.5437(3) 0.60913(19)
C44_2 C 0.89654(15) 0.6364(4) 0.6551(3)
H24_2 H 0.9335 0.6591 0.6637
C45_2 C 0.85736(16) 0.6938(4) 0.6874(3)
H25_2 H 0.8686 0.7568 0.7166
C46_2 C 0.78897(13) 0.5766(3) 0.63443(18)
H26_2 H 0.7517 0.5557 0.6268
C47_2 C 0.82560(14) 0.5149(3) 0.59855(19)
H27_2 H 0.8130 0.4547 0.5677
N6_2 N 0.80834(11) 0.3026(3) 0.34535(15)
N7_2 N 0.97876(10) 0.3494(3) 0.53401(14)
H32_2 H 0.9912 0.2993 0.5060
N8_2 N 0.97615(11) 0.4692(3) 0.62678(16)
N9_2 N 0.80342(11) 0.6645(3) 0.67948(16)
N11_2 N 0.80342(11) 0.3355(3) 0.17948(16)
N12_2 N 0.69658(11) 0.1645(3) 0.32052(16)
O11_2 O 0.70157(9) 0.3959(2) 0.25651(14)
O12_2 O 0.79843(9) 0.1041(2) 0.24349(14)
C6_2 C 0.57333(12) 0.0993(3) 0.97554(18)
C7_2 C 0.49367(12) 0.1065(3) 0.90387(18)
C8_2 C 0.57416(13) 0.0257(3) 0.91720(19)
H8_2 H 0.6870 0.0453 0.9323
C14_2 C 0.43825(12) 0.1439(3) 0.87082(17)
C15_2 C 0.40558(15) 0.2211(3) 0.9026(2)
H9_2 H 0.4183 0.2529 0.9475
C16_2 C 0.35407(15) 0.2512(3) 0.8676(2)
H10_2 H 0.3329 0.3037 0.8901
C17_2 C 0.36448(14) 0.1345(3) 0.77275(19)
H11_2 H 0.3503 0.1035 0.7281
C18_2 C 0.41698(14) 0.1001(3) 0.80315(19)
H12_2 H 0.4376 0.0489 0.7789
N2_2 N 0.52124(10) 0.1506(3) 0.96599(14)
H16_2 H 0.5088 0.2007 0.9940
N3_2 N 0.52385(11) 0.0308(3) 0.87322(16)
N5_2 N 0.33318(11) 0.2091(3) 0.80361(16)
O10_2 O 0.27502(10) 0.2425(2) 0.64976(14)
O13_2 O 0.26347(9) 0.4289(2) 0.75100(13)
C9_2 C 0.61856(14) 0.9563(3) 0.89087(19)
C10_2 C 0.60346(15) 0.8636(4) 0.8449(3)
H5_2 H 0.5665 0.8409 0.8363
C11_2 C 0.64264(16) 0.8062(4) 0.8126(3)
H6_2 H 0.6314 0.7432 0.7834
C12_2 C 0.71103(13) 0.9234(3) 0.86557(18)
H7_2 H 0.7483 0.9443 0.8732
C13_2 C 0.67440(14) 0.9851(3) 0.90145(19)
N4_2 N 0.69658(11) 0.8355(3) 0.82052(16)
C7_3 C 0.00633(12) 0.6065(3) 0.09613(18)
C14_3 C 0.06175(12) 0.6439(3) 0.12918(17)
C15_3 C 0.09442(15) 0.7211(3) 0.0974(2)
H9_3 H 0.0817 0.7529 0.0525
C16_3 C 0.14593(15) 0.7512(3) 0.1324(2)
H10_3 H 0.1671 0.8037 0.1099
C17_3 C 0.13552(14) 0.6345(3) 0.22725(19)
H11_3 H 0.1497 0.6035 0.2719
C18_3 C 0.08302(14) 0.6001(3) 0.19685(19)
H12_3 H 0.0624 0.5489 0.2211
C19_2 C 0.30464(17) 0.6889(4) 0.1199(2)
C20_2 C 0.35461(16) 0.6347(3) 0.1625(2)
C21_2 C 0.4060(2) 0.6675(4) 0.1436(3)
H13_2 H 0.4072 0.7241 0.1084
C22_2 C 0.4555(2) 0.6194(5) 0.1750(4)
H14_2 H 0.4893 0.6457 0.1631
C23_2 C 0.45353(16) 0.5327(4) 0.2237(4)
C24_2 C 0.40302(15) 0.4975(4) 0.2441(3)
H15_2 H 0.4022 0.4388 0.2780
C25_2 C 0.35366(13) 0.5495(3) 0.2142(2)
C26_2 C 0.30079(12) 0.5034(3) 0.23823(18)
Co2_2 Co 0.2500 0.7500 0.2500
N5_3 N 0.16682(11) 0.7091(3) 0.19639(16)
O1_2 O 0.27502(10) 0.7575(2) 0.14976(14)
O2_2 O 0.2972(2) 0.6688(4) 0.05433(19)
O4_2 O 0.26347(9) 0.5711(2) 0.25100(13)
O5_3 O 0.5000 0.4716(5) 0.2500
C27_2 C 0.69536(17) 0.6889(4) 0.3801(2)
C28_2 C 0.64539(16) 0.6347(3) 0.3375(2)
C29_2 C 0.5940(2) 0.6675(4) 0.3564(3)
H17_2 H 0.5928 0.7241 0.3916
C30_2 C 0.5445(2) 0.6194(5) 0.3250(4)
H18_2 H 0.5107 0.6457 0.3369
C31_2 C 0.54647(16) 0.5327(4) 0.2763(4)
C32_2 C 0.59698(15) 0.4975(4) 0.2559(3)
H19_2 H 0.5978 0.4388 0.2220
C33_2 C 0.64634(13) 0.5495(3) 0.2858(2)
C34_2 C 0.69921(12) 0.5034(3) 0.26177(18)
O6_2 O 0.72498(10) 0.7575(2) 0.35024(14)
O7_2 O 0.7028(2) 0.6688(4) 0.44567(19)
O9_2 O 0.73653(9) 0.5711(2) 0.24900(13)
Co8_2 Co 0.7500 0.7500 0.2500
N13_2 N 0.33318(11) 0.7909(3) 0.30361(16)
O10_3 O 0.22498(10) 0.7425(2) 0.35024(14)
O13_3 O 0.23653(9) 0.9289(2) 0.24900(13)
H22_3 H 0.6544 0.0204 0.5521
C43_3 C 0.61856(14) 0.0437(3) 0.39087(19)
C44_3 C 0.60346(15) 0.1364(4) 0.3449(3)
H24_3 H 0.5665 0.1591 0.3363
C45_3 C 0.64264(16) 0.1938(4) 0.3126(3)
H25_3 H 0.6314 0.2568 0.2834
C46_3 C 0.71103(13) 0.0766(3) 0.36557(18)
H26_3 H 0.7483 0.0557 0.3732
C47_3 C 0.67440(14) 0.0149(3) 0.40145(19)
C6_3 C 0.92667(12) 0.5993(3) 0.02446(18)
C8_3 C 0.92584(13) 0.5257(3) 0.08280(19)
C9_3 C 0.88144(14) 0.4563(3) 0.10913(19)
C10_3 C 0.89654(15) 0.3636(4) 0.1551(3)
H5_3 H 0.9335 0.3409 0.1637
C11_3 C 0.85736(16) 0.3062(4) 0.1874(3)
H6_3 H 0.8686 0.2432 0.2166
C12_3 C 0.78897(13) 0.4234(3) 0.13443(18)
H7_3 H 0.7517 0.4443 0.1268
C13_3 C 0.82560(14) 0.4851(3) 0.09855(19)
H8_3 H 0.8130 0.5453 0.0677
N2_3 N 0.97876(10) 0.6506(3) 0.03401(14)
H16_3 H 0.9912 0.7007 0.0060
N3_3 N 0.97615(11) 0.5308(3) 0.12678(16)
C1_3 C 0.84389(16) 0.7721(4) 0.8798(2)
H1_3 H 0.8425 0.8483 0.8641
C2_3 C 0.88240(17) 0.7432(4) 0.9370(2)
H2_3 H 0.9066 0.7990 0.9586
C3_3 C 0.88560(12) 0.6312(3) 0.96308(17)
C4_3 C 0.84690(15) 0.5547(3) 0.93069(19)
H3_2 H 0.8456 0.4796 0.9479
C5_3 C 0.80981(15) 0.5905(3) 0.8722(2)
H4_3 H 0.7845 0.5370 0.8503
N1_3 N 0.80834(11) 0.6974(3) 0.84535(15)
C35_3 C 0.65611(16) 0.7279(4) 0.6202(2)
H20_3 H 0.6575 0.6517 0.6359
C36_3 C 0.61760(17) 0.7568(4) 0.5630(2)
H21_3 H 0.5934 0.7010 0.5414
C37_3 C 0.61440(12) 0.8688(3) 0.53692(17)
C38_3 C 0.65310(15) 0.9453(3) 0.56931(19)
C39_3 C 0.69019(15) 0.9095(3) 0.6278(2)
H23_3 H 0.7155 0.9630 0.6497
C40_3 C 0.57333(12) 0.9007(3) 0.47554(18)
C41_3 C 0.49367(12) 0.8935(3) 0.40387(18)
C42_3 C 0.57416(13) 0.9743(3) 0.41720(19)
H27_3 H 0.6870 0.9547 0.4323
C48_3 C 0.43825(12) 0.8561(3) 0.37082(17)
C49_3 C 0.40558(15) 0.7789(3) 0.4026(2)
H28_3 H 0.4183 0.7471 0.4475
C50_3 C 0.35407(15) 0.7488(3) 0.3676(2)
H29_3 H 0.3329 0.6963 0.3901
C51_3 C 0.36448(14) 0.8655(3) 0.27275(19)
H30_3 H 0.3503 0.8965 0.2281
C52_3 C 0.41698(14) 0.8999(3) 0.30315(19)
H31_3 H 0.4376 0.9511 0.2789
N6_3 N 0.69166(11) 0.8026(3) 0.65465(15)
N7_3 N 0.52124(10) 0.8494(3) 0.46599(14)
H32_3 H 0.5088 0.7993 0.4940
N8_3 N 0.52385(11) 0.9692(3) 0.37322(16)
O12_3 O 0.70157(9) 0.6041(2) 0.75651(14)
C43_4 C 0.38144(14) 0.0437(3) 0.10913(19)
C44_4 C 0.39654(15) 0.1364(4) 0.1551(3)
H24_4 H 0.4335 0.1591 0.1637
C45_4 C 0.35736(16) 0.1938(4) 0.1874(3)
H25_4 H 0.3686 0.2568 0.2166
C46_4 C 0.28897(13) 0.0766(3) 0.13443(18)
H26_4 H 0.2517 0.0557 0.1268
C47_4 C 0.32560(14) 0.0149(3) 0.09855(19)
C40_4 C 0.42667(12) 0.9007(3) 0.02446(18)
C41_4 C 0.50633(12) 0.8935(3) 0.09613(18)
C42_4 C 0.42584(13) 0.9743(3) 0.08280(19)
H27_4 H 0.3130 0.9547 0.0677
C48_4 C 0.56175(12) 0.8561(3) 0.12918(17)
C49_4 C 0.59442(15) 0.7789(3) 0.0974(2)
H28_4 H 0.5817 0.7471 0.0525
C50_4 C 0.64593(15) 0.7488(3) 0.1324(2)
H29_4 H 0.6671 0.6963 0.1099
C51_4 C 0.63552(14) 0.8655(3) 0.22725(19)
H30_4 H 0.6497 0.8965 0.2719
C52_4 C 0.58302(14) 0.8999(3) 0.19685(19)
H31_4 H 0.5624 0.9511 0.2211
N7_4 N 0.47876(10) 0.8494(3) 0.03401(14)
H32_4 H 0.4912 0.7993 0.0060
N8_4 N 0.47615(11) 0.9692(3) 0.12678(16)
N10_2 N 0.66682(11) 0.7909(3) 0.19639(16)
C1_4 C 0.15611(16) 0.7721(4) 0.6202(2)
H1_4 H 0.1575 0.8483 0.6359
C2_4 C 0.11760(17) 0.7432(4) 0.5630(2)
H2_4 H 0.0934 0.7990 0.5414
C3_4 C 0.11440(12) 0.6312(3) 0.53692(17)
C4_4 C 0.15310(15) 0.5547(3) 0.56931(19)
H3_3 H 0.1544 0.4796 0.5521
C5_4 C 0.19019(15) 0.5905(3) 0.6278(2)
H4_4 H 0.2155 0.5370 0.6497
C6_4 C 0.07333(12) 0.5993(3) 0.47554(18)
C8_4 C 0.07416(13) 0.5257(3) 0.41720(19)
C9_4 C 0.11856(14) 0.4563(3) 0.39087(19)
C10_4 C 0.10346(15) 0.3636(4) 0.3449(3)
H5_4 H 0.0665 0.3409 0.3363
C11_4 C 0.14264(16) 0.3062(4) 0.3126(3)
H6_4 H 0.1314 0.2432 0.2834
C12_4 C 0.21103(13) 0.4234(3) 0.36557(18)
H7_4 H 0.2483 0.4443 0.3732
C13_4 C 0.17440(14) 0.4851(3) 0.40145(19)
H8_4 H 0.1870 0.5453 0.4323
N1_4 N 0.19166(11) 0.6974(3) 0.65465(15)
N2_4 N 0.02124(10) 0.6506(3) 0.46599(14)
H16_4 H 0.0088 0.7007 0.4940
N3_4 N 0.02385(11) 0.5308(3) 0.37322(16)
C35_4 C 0.34389(16) 0.7279(4) 0.8798(2)
H20_4 H 0.3425 0.6517 0.8641
C36_4 C 0.38240(17) 0.7568(4) 0.9370(2)
H21_4 H 0.4066 0.7010 0.9586
C37_4 C 0.38560(12) 0.8688(3) 0.96308(17)
C38_4 C 0.34690(15) 0.9453(3) 0.93069(19)
C39_4 C 0.30981(15) 0.9095(3) 0.8722(2)
H23_4 H 0.2845 0.9630 0.8503
N6_4 N 0.30834(11) 0.8026(3) 0.84535(15)
O12_4 O 0.29843(9) 0.6041(2) 0.74349(14)
C7_4 C 0.99367(12) 0.6065(3) 0.40387(18)
C14_4 C 0.93825(12) 0.6439(3) 0.37082(17)
C15_4 C 0.90558(15) 0.7211(3) 0.4026(2)
H9_4 H 0.9183 0.7529 0.4475
C16_4 C 0.85407(15) 0.7512(3) 0.3676(2)
H10_4 H 0.8329 0.8037 0.3901
C17_4 C 0.86448(14) 0.6345(3) 0.27275(19)
H11_4 H 0.8503 0.6035 0.2281
C18_4 C 0.91698(14) 0.6001(3) 0.30315(19)
H12_4 H 0.9376 0.5489 0.2789
N5_4 N 0.83318(11) 0.7091(3) 0.30361(16)
O10_4 O 0.77502(10) 0.7425(2) 0.14976(14)
O13_4 O 0.76347(9) 0.9289(2) 0.25100(13)
C24_3 C 0.09698(15) 0.0025(4) 0.2559(3)
H15_3 H 0.0978 0.0612 0.2220
O5_4 O -0.0000 0.0284(5) 0.2500
C19_3 C 0.19536(17) 0.8111(4) 0.3801(2)
C20_3 C 0.14539(16) 0.8653(3) 0.3375(2)
C21_3 C 0.0940(2) 0.8325(4) 0.3564(3)
H13_3 H 0.0928 0.7759 0.3916
C22_3 C 0.0445(2) 0.8806(5) 0.3250(4)
H14_3 H 0.0107 0.8543 0.3369
C23_3 C 0.04647(16) 0.9673(4) 0.2763(4)
C25_3 C 0.14634(13) 0.9505(3) 0.2858(2)
C26_3 C 0.19921(12) 0.9966(3) 0.26177(18)
O2_3 O 0.2028(2) 0.8312(4) 0.44567(19)
O5_5 O 1.0000 0.0284(5) 0.2500
C32_3 C 0.90302(15) 0.0025(4) 0.2441(3)
H19_3 H 0.9022 0.0612 0.2780
C27_3 C 0.80464(17) 0.8111(4) 0.1199(2)
C28_3 C 0.85461(16) 0.8653(3) 0.1625(2)
C29_3 C 0.9060(2) 0.8325(4) 0.1436(3)
H17_3 H 0.9072 0.7759 0.1084
C30_3 C 0.9555(2) 0.8806(5) 0.1750(4)
H18_3 H 0.9893 0.8543 0.1631
C31_3 C 0.95353(16) 0.9673(4) 0.2237(4)
C33_3 C 0.85366(13) 0.9505(3) 0.2142(2)
C34_3 C 0.80079(12) 0.9966(3) 0.23823(18)
O7_3 O 0.7972(2) 0.8312(4) 0.05433(19)
C19_4 C 0.69536(17) 0.3111(4) 0.8801(2)
C20_4 C 0.64539(16) 0.3653(3) 0.8375(2)
C21_4 C 0.5940(2) 0.3325(4) 0.8564(3)
H13_4 H 0.5928 0.2759 0.8916
C22_4 C 0.5445(2) 0.3806(5) 0.8250(4)
H14_4 H 0.5107 0.3543 0.8369
C23_4 C 0.54647(16) 0.4673(4) 0.7763(4)
C24_4 C 0.59698(15) 0.5025(4) 0.7559(3)
H15_4 H 0.5978 0.5612 0.7220
C25_4 C 0.64634(13) 0.4505(3) 0.7858(2)
C26_4 C 0.69921(12) 0.4966(3) 0.76177(18)
O2_4 O 0.7028(2) 0.3312(4) 0.94567(19)
O5_6 O 0.5000 0.5284(5) 0.7500
C27_4 C 0.30464(17) 0.3111(4) 0.6199(2)
C28_4 C 0.35461(16) 0.3653(3) 0.6625(2)
C29_4 C 0.4060(2) 0.3325(4) 0.6436(3)
H17_4 H 0.4072 0.2759 0.6084
C30_4 C 0.4555(2) 0.3806(5) 0.6750(4)
H18_4 H 0.4893 0.3543 0.6631
C31_4 C 0.45353(16) 0.4673(4) 0.7237(4)
C32_4 C 0.40302(15) 0.5025(4) 0.7441(3)
H19_4 H 0.4022 0.5612 0.7780
C33_4 C 0.35366(13) 0.4505(3) 0.7142(2)
C34_4 C 0.30079(12) 0.4966(3) 0.73823(18)
O7_4 O 0.2972(2) 0.3312(4) 0.55433(19)
H3_4 H 0.6544 0.9796 0.0521
H22_4 H 0.3456 0.0204 0.9479
loop_
_geom_bond_atom_site_label_1
_geom_bond_atom_site_label_2
_geom_bond_site_symmetry_1
_geom_bond_site_symmetry_2
C27 C28 1_555 1_555
C28 C29 1_555 1_555
C29 H17 1_555 1_555
C30 C29 1_555 1_555
H18 C30 1_555 1_555
C33 C28 1_555 1_555
C34 C33 1_555 1_555
O6 C27 1_555 1_555
O7 C27 1_555 1_555
O9 C34 1_555 1_555
Co8 O6 1_555 1_555
C30 C31 1_555 1_555
O9 Co8 1_555 1_555
H19 C32 1_555 1_555
Co6 O8 1_555 1_555
C1 H1 1_555 1_555
C2 C1 1_555 1_555
H2 C2 1_555 1_555
C3 C2 1_555 1_555
C4 C3 1_555 1_555
C5 C4 1_555 1_555
H4 C5 1_555 1_555
C6 C3 1_555 1_555
C7 C14 1_555 1_555
C8 C6 1_555 1_555
C14 C15 1_555 1_555
C15 H9 1_555 1_555
C16 C15 1_555 1_555
H10 C16 1_555 1_555
C17 H11 1_555 1_555
C18 C14 1_555 1_555
H12 C18 1_555 1_555
C19 C20 1_555 1_555
C20 C21 1_555 1_555
C21 H13 1_555 1_555
C22 C21 1_555 1_555
H14 C22 1_555 1_555
C23 C22 1_555 1_555
C25 C20 1_555 1_555
C26 C25 1_555 1_555
Co1 N1 1_555 1_555
Co2 N5 1_555 1_555
N1 C1 1_555 1_555
N2 C6 1_555 1_555
H16 N2 1_555 1_555
N3 C7 1_555 1_555
N5 C16 1_555 1_555
O1 C19 1_555 1_555
O2 C19 1_555 1_555
O4 C26 1_555 1_555
C35 H20 1_555 1_555
C36 C35 1_555 1_555
H21 C36 1_555 1_555
C37 C36 1_555 1_555
C38 C37 1_555 1_555
H22 C38 1_555 1_555
C39 C38 1_555 1_555
H23 C39 1_555 1_555
N6 Co1 1_555 1_555
N11 Co1 1_555 1_555
N12 Co1 1_555 1_555
N13 Co2 1_555 1_555
O10 Co2 1_555 1_555
O11 Co1 1_555 1_555
O12 Co1 1_555 1_555
O13 Co2 1_555 1_555
C5 N1 1_555 1_555
C7 N2 1_555 1_555
C8 N3 1_555 1_555
C17 C18 1_555 1_555
C17 N5 1_555 1_555
Co2 O1 1_555 1_555
Co2 O4 1_555 1_555
C35 N6 1_555 1_555
C39 N6 1_555 1_555
C42 C40 1_555 1_555
C43 C42 1_555 1_555
C44 C43 1_555 1_555
H24 C44 1_555 1_555
C45 C44 1_555 1_555
H25 C45 1_555 1_555
C46 H26 1_555 1_555
C47 C43 1_555 1_555
H27 C47 1_555 1_555
N7 C40 1_555 1_555
H32 N7 1_555 1_555
N9 C45 1_555 1_555
Co6 N9 1_555 1_555
C42 N8 1_555 1_555
C46 C47 1_555 1_555
C46 N9 1_555 1_555
C10 C9 1_555 1_555
H5 C10 1_555 1_555
C11 C10 1_555 1_555
H6 C11 1_555 1_555
C12 H7 1_555 1_555
C13 C9 1_555 1_555
H15 C24 1_555 1_555
N4 C11 1_555 1_555
Co3 O3 1_555 1_555
Co6 N4 1_555 1_555
C12 C13 1_555 1_555
C12 N4 1_555 1_555
C41 C48 1_555 1_555
C48 C49 1_555 1_555
C49 H28 1_555 1_555
C50 C49 1_555 1_555
H29 C50 1_555 1_555
C51 H30 1_555 1_555
C52 C48 1_555 1_555
H31 C52 1_555 1_555
N13 C50 1_555 1_555
C51 C52 1_555 1_555
C51 N13 1_555 1_555
C41_2 C48_2 1_555 1_555
C48_2 C49_2 1_555 1_555
C49_2 H28_2 1_555 1_555
C50_2 C49_2 1_555 1_555
H29_2 C50_2 1_555 1_555
C51_2 H30_2 1_555 1_555
C52_2 C48_2 1_555 1_555
H31_2 C52_2 1_555 1_555
N10 C50_2 1_555 1_555
Co8 N10 1_555 1_555
C51_2 C52_2 1_555 1_555
C51_2 N10 1_555 1_555
C1_2 H1_2 1_555 1_555
C2_2 C1_2 1_555 1_555
H2_2 C2_2 1_555 1_555
C3_2 C2_2 1_555 1_555
C4_2 C3_2 1_555 1_555
C5_2 C4_2 1_555 1_555
H4_2 C5_2 1_555 1_555
Co1_2 N1_2 1_555 1_555
N1_2 C1_2 1_555 1_555
C35_2 H20_2 1_555 1_555
C36_2 C35_2 1_555 1_555
H21_2 C36_2 1_555 1_555
C37_2 C36_2 1_555 1_555
C38_2 C37_2 1_555 1_555
H22_2 C38_2 1_555 1_555
C39_2 C38_2 1_555 1_555
H23_2 C39_2 1_555 1_555
C40_2 C37_2 1_555 1_555
C42_2 C40_2 1_555 1_555
C43_2 C42_2 1_555 1_555
C44_2 C43_2 1_555 1_555
H24_2 C44_2 1_555 1_555
C45_2 C44_2 1_555 1_555
H25_2 C45_2 1_555 1_555
C46_2 H26_2 1_555 1_555
C47_2 C43_2 1_555 1_555
H27_2 C47_2 1_555 1_555
N6_2 Co1_2 1_555 1_555
N7_2 C40_2 1_555 1_555
H32_2 N7_2 1_555 1_555
N9_2 C45_2 1_555 1_555
Co3 N9_2 1_555 1_555
N11_2 Co1_2 1_555 1_555
N12_2 Co1_2 1_555 1_555
O11_2 Co1_2 1_555 1_555
O12_2 Co1_2 1_555 1_555
C5_2 N1_2 1_555 1_555
C35_2 N6_2 1_555 1_555
C39_2 N6_2 1_555 1_555
C42_2 N8_2 1_555 1_555
C46_2 C47_2 1_555 1_555
C46_2 N9_2 1_555 1_555
C7_2 C14_2 1_555 1_555
C8_2 C6_2 1_555 1_555
C14_2 C15_2 1_555 1_555
C15_2 H9_2 1_555 1_555
C16_2 C15_2 1_555 1_555
H10_2 C16_2 1_555 1_555
C17_2 H11_2 1_555 1_555
C18_2 C14_2 1_555 1_555
H12_2 C18_2 1_555 1_555
Co8 N5_2 1_555 1_555
N2_2 C6_2 1_555 1_555
H16_2 N2_2 1_555 1_555
N3_2 C7_2 1_555 1_555
N5_2 C16_2 1_555 1_555
O10_2 Co8 1_555 1_555
O13_2 Co8 1_555 1_555
C7_2 N2_2 1_555 1_555
C8_2 N3_2 1_555 1_555
C17_2 C18_2 1_555 1_555
C17_2 N5_2 1_555 1_555
C10_2 C9_2 1_555 1_555
H5_2 C10_2 1_555 1_555
C11_2 C10_2 1_555 1_555
H6_2 C11_2 1_555 1_555
C12_2 H7_2 1_555 1_555
C13_2 C9_2 1_555 1_555
N4_2 C11_2 1_555 1_555
Co3 N4_2 1_555 1_555
C12_2 C13_2 1_555 1_555
C12_2 N4_2 1_555 1_555
C7_3 C14_3 1_555 1_555
C14_3 C15_3 1_555 1_555
C15_3 H9_3 1_555 1_555
C16_3 C15_3 1_555 1_555
H10_3 C16_3 1_555 1_555
C17_3 H11_3 1_555 1_555
C18_3 C14_3 1_555 1_555
H12_3 C18_3 1_555 1_555
C19_2 C20_2 1_555 1_555
C20_2 C21_2 1_555 1_555
C21_2 H13_2 1_555 1_555
C22_2 C21_2 1_555 1_555
H14_2 C22_2 1_555 1_555
C23_2 C22_2 1_555 1_555
C24_2 C23_2 1_555 1_555
H15_2 C24_2 1_555 1_555
C25_2 C20_2 1_555 1_555
C26_2 C25_2 1_555 1_555
Co2_2 N5_3 1_555 1_555
N5_3 C16_3 1_555 1_555
O1_2 C19_2 1_555 1_555
O2_2 C19_2 1_555 1_555
O11 C26_2 1_555 1_555
O4_2 C26_2 1_555 1_555
O5_3 C23_2 1_555 1_555
C27_2 C28_2 1_555 1_555
C28_2 C29_2 1_555 1_555
C29_2 H17_2 1_555 1_555
C30_2 C29_2 1_555 1_555
H18_2 C30_2 1_555 1_555
C31_2 O5_3 1_555 1_555
C32_2 C31_2 1_555 1_555
H19_2 C32_2 1_555 1_555
C33_2 C28_2 1_555 1_555
C34_2 C33_2 1_555 1_555
O6_2 C27_2 1_555 1_555
O7_2 C27_2 1_555 1_555
O11_2 C34_2 1_555 1_555
O9_2 C34_2 1_555 1_555
Co8_2 O6_2 1_555 1_555
N13_2 Co2_2 1_555 1_555
O10_3 Co2_2 1_555 1_555
O13_3 Co2_2 1_555 1_555
C17_3 C18_3 1_555 1_555
C17_3 N5_3 1_555 1_555
C24_2 C25_2 1_555 1_555
Co2_2 O1_2 1_555 1_555
Co2_2 O4_2 1_555 1_555
C30_2 C31_2 1_555 1_555
C32_2 C33_2 1_555 1_555
O9_2 Co8_2 1_555 1_555
C44_3 C43_3 1_555 1_555
H24_3 C44_3 1_555 1_555
C45_3 C44_3 1_555 1_555
H25_3 C45_3 1_555 1_555
C46_3 H26_3 1_555 1_555
C47_3 C43_3 1_555 1_555
N12_2 C45_3 1_555 1_555
C46_3 C47_3 1_555 1_555
C46_3 N12_2 1_555 1_555
C8_3 C6_3 1_555 1_555
C9_3 C8_3 1_555 1_555
C10_3 C9_3 1_555 1_555
H5_3 C10_3 1_555 1_555
C11_3 C10_3 1_555 1_555
H6_3 C11_3 1_555 1_555
C12_3 H7_3 1_555 1_555
C13_3 C9_3 1_555 1_555
H8_3 C13_3 1_555 1_555
N2_3 C6_3 1_555 1_555
H16_3 N2_3 1_555 1_555
N11_2 C11_3 1_555 1_555
C8_3 N3_3 1_555 1_555
C12_3 C13_3 1_555 1_555
C12_3 N11_2 1_555 1_555
C1_3 H1_3 1_555 1_555
C2_3 C1_3 1_555 1_555
H2_3 C2_3 1_555 1_555
C3_3 C2_3 1_555 1_555
C4_3 C3_3 1_555 1_555
H3_2 C4_3 1_555 1_555
C5_3 C4_3 1_555 1_555
H4_3 C5_3 1_555 1_555
Co3 N1_3 1_555 1_555
N1_3 C1_3 1_555 1_555
C35_3 H20_3 1_555 1_555
C36_3 C35_3 1_555 1_555
H21_3 C36_3 1_555 1_555
C37_3 C36_3 1_555 1_555
C38_3 C37_3 1_555 1_555
C39_3 C38_3 1_555 1_555
H23_3 C39_3 1_555 1_555
C40_3 C37_3 1_555 1_555
C41_3 C48_3 1_555 1_555
C42_3 C40_3 1_555 1_555
C48_3 C49_3 1_555 1_555
C49_3 H28_3 1_555 1_555
C50_3 C49_3 1_555 1_555
H29_3 C50_3 1_555 1_555
C51_3 H30_3 1_555 1_555
C52_3 C48_3 1_555 1_555
H31_3 C52_3 1_555 1_555
N6_3 Co3 1_555 1_555
N7_3 C40_3 1_555 1_555
H32_3 N7_3 1_555 1_555
N8_3 C41_3 1_555 1_555
N13_2 C50_3 1_555 1_555
O12_3 Co3 1_555 1_555
C5_3 N1_3 1_555 1_555
C35_3 N6_3 1_555 1_555
C39_3 N6_3 1_555 1_555
C41_3 N7_3 1_555 1_555
C42_3 N8_3 1_555 1_555
C51_3 C52_3 1_555 1_555
C51_3 N13_2 1_555 1_555
C44_4 C43_4 1_555 1_555
H24_4 C44_4 1_555 1_555
C45_4 C44_4 1_555 1_555
H25_4 C45_4 1_555 1_555
C46_4 H26_4 1_555 1_555
C47_4 C43_4 1_555 1_555
N12 C45_4 1_555 1_555
C46_4 C47_4 1_555 1_555
C46_4 N12 1_555 1_555
C41_4 C48_4 1_555 1_555
C42_4 C40_4 1_555 1_555
C48_4 C49_4 1_555 1_555
C49_4 H28_4 1_555 1_555
C50_4 C49_4 1_555 1_555
H29_4 C50_4 1_555 1_555
C51_4 H30_4 1_555 1_555
C52_4 C48_4 1_555 1_555
H31_4 C52_4 1_555 1_555
N7_4 C40_4 1_555 1_555
H32_4 N7_4 1_555 1_555
N8_4 C41_4 1_555 1_555
N10_2 C50_4 1_555 1_555
Co8_2 N10_2 1_555 1_555
C41_4 N7_4 1_555 1_555
C42_4 N8_4 1_555 1_555
C51_4 C52_4 1_555 1_555
C51_4 N10_2 1_555 1_555
C1_4 H1_4 1_555 1_555
C2_4 C1_4 1_555 1_555
H2_4 C2_4 1_555 1_555
C3_4 C2_4 1_555 1_555
C4_4 C3_4 1_555 1_555
H3_3 C4_4 1_555 1_555
C5_4 C4_4 1_555 1_555
H4_4 C5_4 1_555 1_555
C6_4 C3_4 1_555 1_555
C8_4 C6_4 1_555 1_555
C9_4 C8_4 1_555 1_555
C10_4 C9_4 1_555 1_555
H5_4 C10_4 1_555 1_555
C11_4 C10_4 1_555 1_555
H6_4 C11_4 1_555 1_555
C12_4 H7_4 1_555 1_555
C13_4 C9_4 1_555 1_555
H8_4 C13_4 1_555 1_555
Co6 N1_4 1_555 1_555
N1_4 C1_4 1_555 1_555
N2_4 C6_4 1_555 1_555
H16_4 N2_4 1_555 1_555
N11 C11_4 1_555 1_555
C35_4 H20_4 1_555 1_555
C36_4 C35_4 1_555 1_555
H21_4 C36_4 1_555 1_555
C37_4 C36_4 1_555 1_555
C38_4 C37_4 1_555 1_555
C39_4 C38_4 1_555 1_555
H23_4 C39_4 1_555 1_555
N6_4 Co6 1_555 1_555
O12_4 Co6 1_555 1_555
C5_4 N1_4 1_555 1_555
C8_4 N3_4 1_555 1_555
C12_4 C13_4 1_555 1_555
C12_4 N11 1_555 1_555
C35_4 N6_4 1_555 1_555
C39_4 N6_4 1_555 1_555
C7_4 C14_4 1_555 1_555
C14_4 C15_4 1_555 1_555
C15_4 H9_4 1_555 1_555
C16_4 C15_4 1_555 1_555
H10_4 C16_4 1_555 1_555
C17_4 H11_4 1_555 1_555
C18_4 C14_4 1_555 1_555
H12_4 C18_4 1_555 1_555
Co8_2 N5_4 1_555 1_555
N5_4 C16_4 1_555 1_555
O10_4 Co8_2 1_555 1_555
O13_4 Co8_2 1_555 1_555
C17_4 C18_4 1_555 1_555
C17_4 N5_4 1_555 1_555
H15_3 C24_3 1_555 1_555
C19_3 C20_3 1_555 1_555
C20_3 C21_3 1_555 1_555
C21_3 H13_3 1_555 1_555
C22_3 C21_3 1_555 1_555
H14_3 C22_3 1_555 1_555
C23_3 C22_3 1_555 1_555
C25_3 C20_3 1_555 1_555
C26_3 C25_3 1_555 1_555
O10_3 C19_3 1_555 1_555
O2_3 C19_3 1_555 1_555
O13_3 C26_3 1_555 1_555
H19_3 C32_3 1_555 1_555
C27_3 C28_3 1_555 1_555
C28_3 C29_3 1_555 1_555
C29_3 H17_3 1_555 1_555
C30_3 C29_3 1_555 1_555
H18_3 C30_3 1_555 1_555
C33_3 C28_3 1_555 1_555
C34_3 C33_3 1_555 1_555
O10_4 C27_3 1_555 1_555
O7_3 C27_3 1_555 1_555
O13_4 C34_3 1_555 1_555
C30_3 C31_3 1_555 1_555
C19_4 C20_4 1_555 1_555
C20_4 C21_4 1_555 1_555
C21_4 H13_4 1_555 1_555
C22_4 C21_4 1_555 1_555
H14_4 C22_4 1_555 1_555
C23_4 C22_4 1_555 1_555
C24_4 C23_4 1_555 1_555
H15_4 C24_4 1_555 1_555
C25_4 C20_4 1_555 1_555
C26_4 C25_4 1_555 1_555
O10 C19_4 1_555 1_555
O2_4 C19_4 1_555 1_555
O12_3 C26_4 1_555 1_555
O13 C26_4 1_555 1_555
O5_6 C23_4 1_555 1_555
C27_4 C28_4 1_555 1_555
C28_4 C29_4 1_555 1_555
C29_4 H17_4 1_555 1_555
C30_4 C29_4 1_555 1_555
H18_4 C30_4 1_555 1_555
C31_4 O5_6 1_555 1_555
C32_4 C31_4 1_555 1_555
H19_4 C32_4 1_555 1_555
C33_4 C28_4 1_555 1_555
C34_4 C33_4 1_555 1_555
O10_2 C27_4 1_555 1_555
O7_4 C27_4 1_555 1_555
O12_4 C34_4 1_555 1_555
O13_2 C34_4 1_555 1_555
C24_4 C25_4 1_555 1_555
C30_4 C31_4 1_555 1_555
C32_4 C33_4 1_555 1_555

#END
