
###############################################################################
#
# This file contains modified crystal structure data generated from the
# MOF subset of the Cambridge Structural Database (CSD) v543 
# hosted by the Cambridge Crystallographic Data Centre (CCDC).
#
# This work is licensed under the Creative Commons
# Attribution-NonCommercial-ShareAlike 4.0 International License.
# To view a copy of this license, visit
# http://creativecommons.org/licenses/by-nc-sa/4.0/
# or send a letter to
# Creative Commons, PO Box 1866, Mountain View, CA 94042, USA.
#
# CIF created using the CSD Python API on 29 September 2022
# The structure has been converted into the P1 space group
# The structure has a 3D framework
# The original CSD entry ITIPAE is in the monoclinic crystal system
# The framework has been calculated to contain at least 10.0% void space
# The void calculation uses a probe of radius 1.32A, grid spacing 0.4
#
###############################################################################

data_ITIPAE
_chemical_formula_moiety         '(C24 H24 O47 Zn20)n'
_symmetry_cell_setting           triclinic
_symmetry_space_group_name_H-M   'P 1'
_symmetry_Int_Tables_number      1
_space_group_name_Hall           'P 1'
loop_
_symmetry_equiv_pos_site_id
_symmetry_equiv_pos_as_xyz
1 x,y,z
_cell_length_a                   11.418(2)
_cell_length_b                   10.037(2)
_cell_length_c                   18.546(5)
_cell_angle_alpha                90
_cell_angle_beta                 126.68(2)
_cell_angle_gamma                90
_cell_volume                     1704.55
loop_
_atom_site_label
_atom_site_type_symbol
_atom_site_fract_x
_atom_site_fract_y
_atom_site_fract_z
Zn3 Zn -0.0000 0.5000 0.5000
O4 O 0.0594(3) 0.5454(2) 0.86547(14)
O11 O 0.0840(2) 0.4798(2) 0.71334(13)
O12 O 0.1751(3) 0.4875(3) 0.63607(15)
C2 C 0.0121(4) 0.6566(3) 0.8314(2)
H2 H 0.0257 0.7247 0.8697
C6 C 0.1848(3) 0.4700(3) 0.7044(2)
H6 H 0.2766 0.4468 0.7556
Zn7 Zn 0.06462(4) 0.37823(3) 0.80533(2)
O27 O 0.0117(3) 0.2950(2) 0.49241(15)
O28 O 0.1640(2) 0.5261(2) 0.47799(13)
O29 O 0.1570(2) 0.91099(19) 0.80803(13)
O25 O 0.9406(3) 0.0454(2) 0.63453(14)
Zn1 Zn 0.93538(4) 0.87823(3) 0.69467(2)
Zn2 Zn 0.87689(3) 0.57108(3) 0.63188(2)
Zn3_2 Zn 1.0000 0.5000 0.5000
Zn4 Zn 0.5000 0.5000 0.5000
O1 O 0.7123(2) 0.8632(2) 0.60792(15)
O2 O 0.6679(2) 0.64702(19) 0.56966(13)
O3 O 0.9469(2) 0.68691(18) 0.74942(12)
O5 O 0.9583(2) 0.74787(19) 0.61432(13)
O6 O 0.9883(3) 0.7050(2) 0.50759(15)
O7 O 0.8360(2) 0.4739(2) 0.52201(13)
O8 O 0.6071(3) 0.4049(2) 0.45542(17)
O9 O 0.8430(2) 0.41099(19) 0.69197(13)
O10 O 0.6036(3) 0.3732(2) 0.61061(16)
C1 C 0.6305(3) 0.7661(3) 0.5692(2)
H1 H 0.5308 0.7823 0.5361
C3 C 0.9830(4) 0.7808(3) 0.5581(2)
H3 H 0.9987 0.8708 0.5549
C4 C 0.7226(3) 0.4063(3) 0.4646(2)
H4 H 0.7281 0.3526 0.4258
C5 C 0.7309(4) 0.3506(3) 0.6738(2)
H5 H 0.7468 0.2820 0.7124
Zn5 Zn 0.06462(4) 0.12177(3) 0.30533(2)
Zn6 Zn 0.12311(3) 0.42892(3) 0.36812(2)
O13 O 0.2877(2) 0.1368(2) 0.39208(15)
O14 O 0.3321(2) 0.35298(19) 0.43034(13)
O15 O 0.0531(2) 0.31309(18) 0.25058(12)
O17 O 0.0417(2) 0.25213(19) 0.38568(13)
O20 O 0.3929(3) 0.5951(2) 0.54458(17)
O21 O 0.1570(2) 0.58901(19) 0.30803(13)
O22 O 0.3964(3) 0.6268(2) 0.38939(16)
C7 C 0.3695(3) 0.2339(3) 0.4308(2)
H7 H 0.4692 0.2177 0.4639
C9 C 0.0170(4) 0.2192(3) 0.4419(2)
H9 H 0.0013 0.1292 0.4451
C10 C 0.2774(3) 0.5937(3) 0.5354(2)
H10 H 0.2719 0.6474 0.5742
C11 C 0.2691(4) 0.6494(3) 0.3262(2)
H11 H 0.2532 0.7180 0.2876
O31 O 0.9160(2) 0.9798(2) 0.78666(13)
O32 O 0.0840(2) 0.0202(2) 0.21334(13)
O33 O 0.8249(3) 0.5125(3) 0.36393(15)
O26 O 0.0594(3) 0.9546(2) 0.36547(14)
O16 O 0.9406(3) 0.4546(2) 0.13453(14)
O23 O 0.9160(2) 0.5202(2) 0.28666(13)
C8 C 0.9879(4) 0.3434(3) 0.1686(2)
H8 H 0.9743 0.2753 0.1303
C12 C 0.8152(3) 0.5300(3) 0.2956(2)
H12 H 0.7234 0.5532 0.2444
Zn8 Zn 0.93538(4) 0.62177(3) 0.19467(2)
O30 O 0.8430(2) 0.08901(19) 0.19197(13)
O24 O 0.1751(3) 0.0125(3) 0.13607(15)
C12_2 C 0.1848(3) 0.0300(3) 0.2044(2)
H12_2 H 0.2766 0.0532 0.2556
Zn9 Zn -0.0000 -0.0000 0.0000
Zn9_2 Zn 0.0000 -0.0000 1.0000
C8_2 C 0.0121(4) 0.8434(3) 0.3314(2)
H8_2 H 0.0257 0.7753 0.3697
Zn9_3 Zn -0.0000 1.0000 0.0000
Zn9_4 Zn 0.0000 1.0000 1.0000
Zn4_2 Zn 0.5000 -0.0000 0.0000
O19 O 0.8360(2) 0.0261(2) 0.02201(13)
O22_2 O 0.6036(3) 0.1268(2) 0.11061(16)
C11_2 C 0.7309(4) 0.1494(3) 0.1738(2)
H11_2 H 0.7468 0.2180 0.2124
Zn9_5 Zn 1.0000 -0.0000 0.0000
Zn2_2 Zn 0.12311(3) 0.07108(3) 0.86812(2)
Zn4_3 Zn 0.5000 -0.0000 1.0000
O1_2 O 0.2877(2) 0.3632(2) 0.89208(15)
O2_2 O 0.3321(2) 0.14702(19) 0.93034(13)
O3_2 O 0.0531(2) 0.18691(18) 0.75058(12)
O5_2 O 0.0417(2) 0.24787(19) 0.88568(13)
O6_2 O 0.0117(3) 0.2050(2) 0.99241(15)
C1_2 C 0.3695(3) 0.2661(3) 0.9308(2)
H1_2 H 0.4692 0.2823 0.9639
C3_2 C 0.0170(4) 0.2808(3) 0.9419(2)
H3_2 H 0.0013 0.3708 0.9451
O20_2 O 0.6071(3) 0.0951(2) 0.95542(17)
C10_2 C 0.7226(3) 0.0937(3) 0.9646(2)
H10_2 H 0.7281 0.1474 0.9258
Zn9_6 Zn 1.0000 -0.0000 1.0000
Zn4_4 Zn 0.5000 1.0000 0.0000
O8_2 O 0.3929(3) 0.9049(2) 0.04458(17)
C4_2 C 0.2774(3) 0.9063(3) 0.0354(2)
H4_2 H 0.2719 0.8526 0.0742
Zn6_2 Zn 0.87689(3) 0.92892(3) 0.13188(2)
O13_2 O 0.7123(2) 0.6368(2) 0.10792(15)
O14_2 O 0.6679(2) 0.85298(19) 0.06966(13)
O15_2 O 0.9469(2) 0.81309(18) 0.24942(12)
O17_2 O 0.9583(2) 0.75213(19) 0.11432(13)
O18 O 0.9883(3) 0.7950(2) 0.00759(15)
C7_2 C 0.6305(3) 0.7339(3) 0.0692(2)
H7_2 H 0.5308 0.7177 0.0361
C9_2 C 0.9830(4) 0.7192(3) 0.0581(2)
H9_2 H 0.9987 0.6292 0.0549
Zn9_7 Zn 1.0000 1.0000 0.0000
Zn4_5 Zn 0.5000 1.0000 1.0000
O7_2 O 0.1640(2) 0.9739(2) 0.97799(13)
O10_2 O 0.3964(3) 0.8732(2) 0.88939(16)
C5_2 C 0.2691(4) 0.8506(3) 0.8262(2)
H5_2 H 0.2532 0.7820 0.7876
Zn9_8 Zn 1.0000 1.0000 1.0000
C2_2 C 0.9879(4) 0.1566(3) 0.6686(2)
H2_2 H 0.9743 0.2247 0.6303
O12_2 O 0.8249(3) 0.9875(3) 0.86393(15)
C6_2 C 0.8152(3) 0.9700(3) 0.7956(2)
H6_2 H 0.7234 0.9468 0.7444
loop_
_geom_bond_atom_site_label_1
_geom_bond_atom_site_label_2
_geom_bond_site_symmetry_1
_geom_bond_site_symmetry_2
O4 C2 1_555 1_555
O12 Zn3 1_555 1_555
H2 C2 1_555 1_555
C6 O11 1_555 1_555
H6 C6 1_555 1_555
Zn7 O4 1_555 1_555
O27 Zn3 1_555 1_555
O28 Zn3 1_555 1_555
O11 Zn7 1_555 1_555
O12 C6 1_555 1_555
Zn1 O1 1_555 1_555
Zn2 O2 1_555 1_555
Zn3_2 O6 1_555 1_555
Zn4 O2 1_555 1_555
O1 C1 1_555 1_555
O2 C1 1_555 1_555
O3 Zn1 1_555 1_555
O5 Zn1 1_555 1_555
O6 C3 1_555 1_555
O7 Zn2 1_555 1_555
O8 Zn4 1_555 1_555
O9 Zn2 1_555 1_555
O10 Zn4 1_555 1_555
C1 H1 1_555 1_555
C3 O5 1_555 1_555
H3 C3 1_555 1_555
C4 O7 1_555 1_555
H4 C4 1_555 1_555
C5 O9 1_555 1_555
H5 C5 1_555 1_555
Zn5 O13 1_555 1_555
Zn6 O14 1_555 1_555
O13 C7 1_555 1_555
O14 Zn4 1_555 1_555
O15 Zn5 1_555 1_555
O17 Zn5 1_555 1_555
O27 C9 1_555 1_555
O28 Zn6 1_555 1_555
O20 Zn4 1_555 1_555
O21 Zn6 1_555 1_555
O22 Zn4 1_555 1_555
C7 O14 1_555 1_555
H7 C7 1_555 1_555
C9 O17 1_555 1_555
H9 C9 1_555 1_555
C10 O28 1_555 1_555
H10 C10 1_555 1_555
C11 O21 1_555 1_555
H11 C11 1_555 1_555
O31 Zn1 1_555 1_555
O32 Zn5 1_555 1_555
O33 Zn3_2 1_555 1_555
Zn2 O3 1_555 1_555
Zn2 O5 1_555 1_555
Zn3_2 O7 1_555 1_555
O8 C4 1_555 1_555
O10 C5 1_555 1_555
Zn6 O15 1_555 1_555
Zn6 O17 1_555 1_555
O20 C10 1_555 1_555
O22 C11 1_555 1_555
O16 C8 1_555 1_555
O33 C12 1_555 1_555
H8 C8 1_555 1_555
C12 O23 1_555 1_555
H12 C12 1_555 1_555
Zn8 O16 1_555 1_555
O23 Zn8 1_555 1_555
O24 C12_2 1_555 1_555
C12_2 O32 1_555 1_555
H12_2 C12_2 1_555 1_555
O24 Zn9 1_555 1_555
O26 C8_2 1_555 1_555
H8_2 C8_2 1_555 1_555
O22_2 Zn4_2 1_555 1_555
C11_2 O30 1_555 1_555
H11_2 C11_2 1_555 1_555
O19 Zn9_5 1_555 1_555
O22_2 C11_2 1_555 1_555
Zn7 O1_2 1_555 1_555
Zn2_2 O2_2 1_555 1_555
Zn9_2 O6_2 1_555 1_555
Zn4_3 O2_2 1_555 1_555
O1_2 C1_2 1_555 1_555
O2_2 C1_2 1_555 1_555
O3_2 Zn7 1_555 1_555
O5_2 Zn7 1_555 1_555
O6_2 C3_2 1_555 1_555
C1_2 H1_2 1_555 1_555
C3_2 O5_2 1_555 1_555
H3_2 C3_2 1_555 1_555
O20_2 Zn4_3 1_555 1_555
H10_2 C10_2 1_555 1_555
Zn2_2 O3_2 1_555 1_555
Zn2_2 O5_2 1_555 1_555
O20_2 C10_2 1_555 1_555
O8_2 Zn4_4 1_555 1_555
H4_2 C4_2 1_555 1_555
Zn8 O13_2 1_555 1_555
Zn6_2 O14_2 1_555 1_555
O13_2 C7_2 1_555 1_555
O14_2 Zn4_4 1_555 1_555
O15_2 Zn8 1_555 1_555
O17_2 Zn8 1_555 1_555
O18 C9_2 1_555 1_555
C7_2 O14_2 1_555 1_555
H7_2 C7_2 1_555 1_555
C9_2 O17_2 1_555 1_555
H9_2 C9_2 1_555 1_555
Zn9_7 O18 1_555 1_555
O8_2 C4_2 1_555 1_555
Zn6_2 O15_2 1_555 1_555
Zn6_2 O17_2 1_555 1_555
O10_2 Zn4_5 1_555 1_555
C5_2 O29 1_555 1_555
H5_2 C5_2 1_555 1_555
Zn9_4 O7_2 1_555 1_555
O10_2 C5_2 1_555 1_555
O25 C2_2 1_555 1_555
H2_2 C2_2 1_555 1_555
O12_2 Zn9_8 1_555 1_555
C6_2 O31 1_555 1_555
H6_2 C6_2 1_555 1_555
O12_2 C6_2 1_555 1_555

#END
