
###############################################################################
#
# This file contains modified crystal structure data generated from the
# MOF subset of the Cambridge Structural Database (CSD) v543 
# hosted by the Cambridge Crystallographic Data Centre (CCDC).
#
# This work is licensed under the Creative Commons
# Attribution-NonCommercial-ShareAlike 4.0 International License.
# To view a copy of this license, visit
# http://creativecommons.org/licenses/by-nc-sa/4.0/
# or send a letter to
# Creative Commons, PO Box 1866, Mountain View, CA 94042, USA.
#
# CIF created using the CSD Python API on 29 September 2022
# The structure has been converted into the P1 space group
# The structure has a 3D framework
# The original CSD entry ITIWEO is in the tetragonal crystal system
# The original CSD entry ITIWEO is in a Sohncke space group
# The framework has been calculated to contain at least 10.0% void space
# The void calculation uses a probe of radius 1.32A, grid spacing 0.4
# The framework is charged, counterions have been retained in the structure
#
###############################################################################

data_ITIWEO
_chemical_formula_moiety         '(C192 H144 Cd3 N48 6+)n'
_symmetry_cell_setting           triclinic
_symmetry_space_group_name_H-M   'P 1'
_symmetry_Int_Tables_number      1
_space_group_name_Hall           'P 1'
loop_
_symmetry_equiv_pos_site_id
_symmetry_equiv_pos_as_xyz
1 x,y,z
_cell_length_a                   15.9506(19)
_cell_length_b                   15.9506(19)
_cell_length_c                   21.125(5)
_cell_angle_alpha                90
_cell_angle_beta                 90
_cell_angle_gamma                90
_cell_volume                     5374.66
loop_
_atom_site_label
_atom_site_type_symbol
_atom_site_fract_x
_atom_site_fract_y
_atom_site_fract_z
C1 C 0.0375(9) 0.2429(11) 0.7857(7)
H1 H 0.0053 0.2376 0.8233
C2 C 0.0913(8) 0.3098(8) 0.7814(7)
H2 H 0.0951 0.3495 0.8148
C3 C 0.1401(9) 0.3182(9) 0.7275(7)
C4 C 0.1276(9) 0.2599(9) 0.6808(7)
H3 H 0.1576 0.2632 0.6420
C5 C 0.0691(9) 0.1947(8) 0.6914(6)
H4 H 0.0604 0.1547 0.6588
C6 C 0.2074(9) 0.3827(8) 0.7222(7)
C7 C 0.2081(10) 0.4546(8) 0.7611(8)
H5 H 0.1661 0.4604 0.7927
C8 C 0.2677(12) 0.5165(10) 0.7547(11)
H6 H 0.2633 0.5670 0.7782
C9 C 0.3345(10) 0.5041(9) 0.7133(8)
H7 H 0.3776 0.5451 0.7101
C10 C 0.3383(8) 0.4323(9) 0.6768(6)
C11 C 0.2750(8) 0.3723(9) 0.6816(7)
H8 H 0.2783 0.3231 0.6564
C12 C 0.4068(9) 0.4235(7) 0.6339(6)
C13 C 0.5044(8) 0.3753(8) 0.5703(6)
C14 C 0.5603(9) 0.3106(8) 0.5395(6)
C15 C 0.5420(10) 0.2797(7) 0.4804(6)
H9 H 0.4944 0.2998 0.4581
C16 C 0.5937(10) 0.2185(10) 0.4530(8)
H10 H 0.5812 0.1967 0.4123
C17 C 0.6623(9) 0.1907(10) 0.4857(7)
H11 H 0.6985 0.1503 0.4671
C18 C 0.6796(9) 0.2219(9) 0.5475(7)
C19 C 0.6301(9) 0.2861(8) 0.5714(7)
H12 H 0.6451 0.3129 0.6099
C20 C 0.7518(9) 0.1904(9) 0.5833(6)
C21 C 0.7947(8) 0.1178(9) 0.5693(7)
H13 H 0.7812 0.0871 0.5321
C22 C 0.8567(9) 0.0897(10) 0.6087(8)
H14 H 0.8852 0.0397 0.5971
C23 C 0.8469(9) 0.1994(9) 0.6720(7)
H15 H 0.8676 0.2300 0.7073
C24 C 0.7825(7) 0.2366(8) 0.6350(7)
H16 H 0.7610 0.2906 0.6448
N1 N 0.0275(7) 0.1870(7) 0.7426(6)
N2 N 0.4463(7) 0.4874(7) 0.6071(6)
N3 N 0.5073(6) 0.4565(7) 0.5671(5)
N4 N 0.4460(8) 0.3529(7) 0.6115(5)
N5 N 0.4240(9) 0.2717(7) 0.6310(7)
H17 H 0.4461 0.2342 0.6032
H18 H 0.4451 0.2618 0.6703
N6 N 0.8794(8) 0.1263(8) 0.6608(5)
Cd2 Cd 0.55947(5) 0.55947(5) 0.5000
Cd3 Cd 0.94053(5) 0.05947(5) 0.7500
N12 N 0.0435(7) 0.0073(6) 0.8171(5)
N16 N 0.8737(8) 0.1206(8) 0.8392(5)
N8 N 0.8130(7) 0.9725(7) 0.7574(6)
N11 N 0.9927(6) 0.9565(7) 0.6829(5)
Cd4 Cd 0.05947(5) 0.94053(5) 0.2500
N8_2 N 0.1870(7) 0.0275(7) 0.2574(6)
N11_2 N 0.0073(6) 0.0435(7) 0.1829(5)
C25 C 0.9625(9) 0.7571(11) 0.2857(7)
H19 H 0.9947 0.7624 0.3233
C26 C 0.9087(8) 0.6902(8) 0.2814(7)
H20 H 0.9049 0.6505 0.3148
C27 C 0.8599(9) 0.6818(9) 0.2275(7)
C28 C 0.8724(9) 0.7401(9) 0.1808(7)
H21 H 0.8424 0.7368 0.1420
C29 C 0.9309(9) 0.8053(8) 0.1914(6)
H22 H 0.9396 0.8453 0.1588
C30 C 0.7926(9) 0.6173(8) 0.2222(7)
C31 C 0.7919(10) 0.5454(8) 0.2611(8)
H23 H 0.8339 0.5396 0.2927
C32 C 0.7323(12) 0.4835(10) 0.2547(11)
H24 H 0.7367 0.4330 0.2782
C33 C 0.6655(10) 0.4959(9) 0.2133(8)
H25 H 0.6224 0.4549 0.2101
C34 C 0.6617(8) 0.5677(9) 0.1768(6)
C35 C 0.7250(8) 0.6277(9) 0.1816(7)
H26 H 0.7217 0.6769 0.1564
C36 C 0.5932(9) 0.5765(7) 0.1339(6)
C37 C 0.4956(8) 0.6247(8) 0.0703(6)
C38 C 0.4397(9) 0.6894(8) 0.0395(6)
C42 C 0.3204(9) 0.7781(9) 0.0475(7)
C43 C 0.3699(9) 0.7139(8) 0.0714(7)
H30 H 0.3549 0.6871 0.1099
C44 C 0.2482(9) 0.8096(9) 0.0833(6)
C45 C 0.2053(8) 0.8822(9) 0.0693(7)
H31 H 0.2188 0.9129 0.0321
C46 C 0.1433(9) 0.9103(10) 0.1087(8)
H32 H 0.1148 0.9603 0.0971
C47 C 0.1531(9) 0.8006(9) 0.1720(7)
H33 H 0.1324 0.7700 0.2073
C48 C 0.2175(7) 0.7634(8) 0.1350(7)
H34 H 0.2390 0.7094 0.1448
Cd5 Cd 0.44053(5) 0.44053(5) 0.0000
N7 N 0.9725(7) 0.8130(7) 0.2426(6)
N9 N 0.5537(7) 0.5126(7) 0.1071(6)
N10 N 0.4927(6) 0.5435(7) 0.0671(5)
N13 N 0.5540(8) 0.6471(7) 0.1115(5)
N14 N 0.5760(9) 0.7283(7) 0.1310(7)
H35 H 0.5539 0.7658 0.1032
H36 H 0.5549 0.7382 0.1703
N15 N 0.1206(8) 0.8737(8) 0.1608(5)
N16_2 N 0.1263(8) 0.8794(8) 0.3392(5)
C39 C 0.4580(10) 0.7203(7) 0.9804(6)
H27 H 0.5056 0.7002 0.9581
C40 C 0.4063(10) 0.7815(10) 0.9530(8)
H28 H 0.4188 0.8033 0.9123
C41 C 0.3377(9) 0.8093(10) 0.9857(7)
H29 H 0.3015 0.8497 0.9671
Cd5_2 Cd 0.44053(5) 0.44053(5) 1.0000
N12_2 N 0.9565(7) 0.9927(6) 0.3171(5)
C13_2 C 0.1247(8) 0.0044(8) 0.8203(6)
C14_2 C 0.1894(8) 0.0603(9) 0.7895(6)
C15_2 C 0.2203(7) 0.0420(10) 0.7304(6)
C16_2 C 0.2815(10) 0.0937(10) 0.7030(8)
H10_2 H 0.3033 0.0812 0.6623
C17_2 C 0.3093(10) 0.1623(9) 0.7357(7)
H11_2 H 0.3497 0.1985 0.7171
C18_2 C 0.2781(9) 0.1796(9) 0.7975(7)
C19_2 C 0.2139(8) 0.1301(9) 0.8214(7)
H12_2 H 0.1871 0.1451 0.8599
C20_2 C 0.3096(9) 0.2518(9) 0.8333(6)
C21_2 C 0.3822(9) 0.2947(8) 0.8193(7)
H13_2 H 0.4129 0.2812 0.7821
C22_2 C 0.4103(10) 0.3567(9) 0.8587(8)
H14_2 H 0.4603 0.3852 0.8471
C23_2 C 0.3006(9) 0.3469(9) 0.9220(7)
H15_2 H 0.2700 0.3676 0.9573
C24_2 C 0.2634(8) 0.2825(7) 0.8850(7)
H16_2 H 0.2094 0.2610 0.8948
N6_2 N 0.3737(8) 0.3794(8) 0.9108(5)
C1_2 C 0.2571(11) 0.5375(9) 0.0357(7)
H1_2 H 0.2624 0.5053 0.0733
C2_2 C 0.1902(8) 0.5913(8) 0.0314(7)
H2_2 H 0.1505 0.5951 0.0648
C7_2 C 0.0454(8) 0.7081(10) 0.0111(8)
H5_2 H 0.0396 0.6661 0.0427
N8_3 N 0.5275(7) 0.3130(7) 0.0074(6)
N16_3 N 0.3794(8) 0.3737(8) 0.0892(5)
C3_2 C 0.1818(9) 0.6401(9) 0.9775(7)
C4_2 C 0.2401(9) 0.6276(9) 0.9308(7)
H3_2 H 0.2368 0.6576 0.8920
C5_2 C 0.3053(8) 0.5691(9) 0.9414(6)
H4_2 H 0.3453 0.5604 0.9088
C6_2 C 0.1173(8) 0.7074(9) 0.9722(7)
C10_2 C 0.0677(9) 0.8383(8) 0.9268(6)
C11_2 C 0.1277(9) 0.7750(8) 0.9316(7)
H8_2 H 0.1769 0.7783 0.9064
C12_2 C 0.0765(7) 0.9068(9) 0.8839(6)
H9_2 H 0.2002 0.9944 0.7081
N1_2 N 0.3130(7) 0.5275(7) 0.9926(6)
N2_2 N 0.0126(7) 0.9463(7) 0.8571(6)
N4_2 N 0.1471(7) 0.9460(8) 0.8615(5)
N5_2 N 0.2283(7) 0.9240(9) 0.8810(7)
H17_2 H 0.2658 0.9461 0.8532
H18_2 H 0.2382 0.9451 0.9203
N11_3 N 0.5435(7) 0.4927(6) 0.9329(5)
C9_2 C 0.9959(9) 0.8345(10) 0.9633(8)
H7_2 H 0.9549 0.8776 0.9601
C32_2 C 0.0165(10) 0.2323(12) 0.5047(11)
H24_2 H 0.0670 0.2367 0.5282
C33_2 C 0.0041(9) 0.1655(10) 0.4633(8)
H25_2 H 0.0451 0.1224 0.4601
C25_2 C 0.7429(11) 0.4625(9) 0.5357(7)
H19_2 H 0.7376 0.4947 0.5733
C26_2 C 0.8098(8) 0.4087(8) 0.5314(7)
H20_2 H 0.8495 0.4049 0.5648
C27_2 C 0.8182(9) 0.3599(9) 0.4775(7)
C28_2 C 0.7599(9) 0.3724(9) 0.4308(7)
H21_2 H 0.7632 0.3424 0.3920
C29_2 C 0.6947(8) 0.4309(9) 0.4414(6)
H22_2 H 0.6547 0.4396 0.4088
C30_2 C 0.8827(8) 0.2926(9) 0.4722(7)
C31_2 C 0.9546(8) 0.2919(10) 0.5111(8)
H23_2 H 0.9604 0.3339 0.5427
C34_2 C 0.9323(9) 0.1617(8) 0.4268(6)
C35_2 C 0.8723(9) 0.2250(8) 0.4316(7)
H26_2 H 0.8231 0.2217 0.4064
C36_2 C 0.9235(7) 0.0932(9) 0.3839(6)
H27_2 H 0.7998 0.0056 0.2081
N7_2 N 0.6870(7) 0.4725(7) 0.4926(6)
N9_2 N 0.9874(7) 0.0537(7) 0.3571(6)
N13_2 N 0.8529(7) 0.0540(8) 0.3615(5)
N14_2 N 0.7717(7) 0.0760(9) 0.3810(7)
H35_2 H 0.7342 0.0539 0.3532
H36_2 H 0.7618 0.0549 0.4203
C37_2 C 0.8753(8) 0.9956(8) 0.3203(6)
C38_2 C 0.8106(8) 0.9397(9) 0.2895(6)
C39_2 C 0.7797(7) 0.9580(10) 0.2304(6)
C40_2 C 0.7185(10) 0.9063(10) 0.2030(8)
H28_2 H 0.6967 0.9188 0.1623
C41_2 C 0.6907(10) 0.8377(9) 0.2357(7)
H29_2 H 0.6503 0.8015 0.2171
C42_2 C 0.7219(9) 0.8204(9) 0.2975(7)
C43_2 C 0.7861(8) 0.8699(9) 0.3214(7)
H30_2 H 0.8129 0.8549 0.3599
C44_2 C 0.6904(9) 0.7482(9) 0.3333(6)
C45_2 C 0.6178(9) 0.7053(8) 0.3193(7)
H31_2 H 0.5871 0.7188 0.2821
C46_2 C 0.5897(10) 0.6433(9) 0.3587(8)
H32_2 H 0.5397 0.6148 0.3471
C47_2 C 0.6994(9) 0.6531(9) 0.4220(7)
H33_2 H 0.7300 0.6324 0.4573
C48_2 C 0.7366(8) 0.7175(7) 0.3850(7)
H34_2 H 0.7906 0.7390 0.3948
N8_4 N 0.4725(7) 0.6870(7) 0.5074(6)
N11_4 N 0.4565(7) 0.5073(6) 0.4329(5)
N15_2 N 0.6263(8) 0.6206(8) 0.4108(5)
N16_4 N 0.6206(8) 0.6263(8) 0.5892(5)
C32_3 C 0.2323(12) 0.0165(10) 0.4953(11)
H24_3 H 0.2367 0.0670 0.4718
C33_3 C 0.1655(10) 0.0041(9) 0.5367(8)
H25_3 H 0.1224 0.0451 0.5399
C25_3 C 0.4625(9) 0.7429(11) 0.4643(7)
H19_3 H 0.4947 0.7376 0.4267
C26_3 C 0.4087(8) 0.8098(8) 0.4686(7)
H20_3 H 0.4049 0.8495 0.4352
C27_3 C 0.3599(9) 0.8182(9) 0.5225(7)
C28_3 C 0.3724(9) 0.7599(9) 0.5692(7)
H21_3 H 0.3424 0.7632 0.6080
C29_3 C 0.4309(9) 0.6947(8) 0.5586(6)
H22_3 H 0.4396 0.6547 0.5912
C30_3 C 0.2926(9) 0.8827(8) 0.5278(7)
C31_3 C 0.2919(10) 0.9546(8) 0.4889(8)
H23_3 H 0.3339 0.9604 0.4573
C34_3 C 0.1617(8) 0.9323(9) 0.5732(6)
C35_3 C 0.2250(8) 0.8723(9) 0.5684(7)
H26_3 H 0.2217 0.8231 0.5936
C36_3 C 0.0932(9) 0.9235(7) 0.6161(6)
H27_3 H 0.0056 0.7998 0.7919
N9_3 N 0.0537(7) 0.9874(7) 0.6429(6)
N13_3 N 0.0540(8) 0.8529(7) 0.6385(5)
N14_3 N 0.0760(9) 0.7717(7) 0.6190(7)
H35_3 H 0.0539 0.7342 0.6468
H36_3 H 0.0549 0.7618 0.5797
C37_3 C 0.9956(8) 0.8753(8) 0.6797(6)
C38_3 C 0.9397(9) 0.8106(8) 0.7105(6)
C39_3 C 0.9580(10) 0.7797(7) 0.7696(6)
C40_3 C 0.9063(10) 0.7185(10) 0.7970(8)
H28_3 H 0.9188 0.6967 0.8377
C41_3 C 0.8377(9) 0.6907(10) 0.7643(7)
H29_3 H 0.8015 0.6503 0.7829
C42_3 C 0.8204(9) 0.7219(9) 0.7025(7)
C43_3 C 0.8699(9) 0.7861(8) 0.6786(7)
H30_3 H 0.8549 0.8129 0.6401
C44_3 C 0.7482(9) 0.6904(9) 0.6667(6)
C45_3 C 0.7053(8) 0.6178(9) 0.6807(7)
H31_3 H 0.7188 0.5871 0.7179
C46_3 C 0.6433(9) 0.5897(10) 0.6413(8)
H32_3 H 0.6148 0.5397 0.6529
C47_3 C 0.6531(9) 0.6994(9) 0.5780(7)
H33_3 H 0.6324 0.7300 0.5427
C48_3 C 0.7175(7) 0.7366(8) 0.6150(7)
H34_3 H 0.7390 0.7906 0.6052
C13_3 C 0.0044(8) 0.1247(8) 0.1797(6)
C14_3 C 0.0603(9) 0.1894(8) 0.2105(6)
C15_3 C 0.0420(10) 0.2203(7) 0.2696(6)
C16_3 C 0.0937(10) 0.2815(10) 0.2970(8)
H10_3 H 0.0812 0.3033 0.3377
C17_3 C 0.1623(9) 0.3093(10) 0.2643(7)
H11_3 H 0.1985 0.3497 0.2829
C18_3 C 0.1796(9) 0.2781(9) 0.2025(7)
C19_3 C 0.1301(9) 0.2139(8) 0.1786(7)
H12_3 H 0.1451 0.1871 0.1401
C20_3 C 0.2518(9) 0.3096(9) 0.1667(6)
C21_3 C 0.2947(8) 0.3822(9) 0.1807(7)
H13_3 H 0.2812 0.4129 0.2179
C22_3 C 0.3567(9) 0.4103(10) 0.1413(8)
H14_3 H 0.3852 0.4603 0.1529
C23_3 C 0.3469(9) 0.3006(9) 0.0780(7)
H15_3 H 0.3676 0.2700 0.0427
C24_3 C 0.2825(7) 0.2634(8) 0.1150(7)
H16_3 H 0.2610 0.2094 0.1052
C3_3 C 0.6401(9) 0.1818(9) 0.0225(7)
C4_3 C 0.6276(9) 0.2401(9) 0.0692(7)
H3_3 H 0.6576 0.2368 0.1080
C5_3 C 0.5691(9) 0.3053(8) 0.0586(6)
H4_3 H 0.5604 0.3453 0.0912
C6_3 C 0.7074(9) 0.1173(8) 0.0278(7)
C10_3 C 0.8383(8) 0.0677(9) 0.0732(6)
C11_3 C 0.7750(8) 0.1277(9) 0.0684(7)
H8_3 H 0.7783 0.1769 0.0936
C12_3 C 0.9068(9) 0.0765(7) 0.1161(6)
H9_3 H 0.9944 0.2002 0.2919
N2_3 N 0.9463(7) 0.0126(7) 0.1429(6)
N4_3 N 0.9460(8) 0.1471(7) 0.1385(5)
N5_3 N 0.9240(9) 0.2283(7) 0.1190(7)
H17_3 H 0.9461 0.2658 0.1468
H18_3 H 0.9451 0.2382 0.0797
C1_3 C 0.5375(9) 0.2571(11) 0.9643(7)
H1_3 H 0.5053 0.2624 0.9267
C2_3 C 0.5913(8) 0.1902(8) 0.9686(7)
H2_3 H 0.5951 0.1505 0.9352
C7_3 C 0.7081(10) 0.0454(8) 0.9889(8)
H5_3 H 0.6661 0.0396 0.9573
C9_3 C 0.8345(10) 0.9959(9) 0.0367(8)
H7_3 H 0.8776 0.9549 0.0399
C1_4 C 0.2429(11) 0.0375(9) 0.2143(7)
H1_4 H 0.2376 0.0053 0.1767
C2_4 C 0.3098(8) 0.0913(8) 0.2186(7)
H2_4 H 0.3495 0.0951 0.1852
C3_4 C 0.3182(9) 0.1401(9) 0.2725(7)
C4_4 C 0.2599(9) 0.1276(9) 0.3192(7)
H3_4 H 0.2632 0.1576 0.3580
C5_4 C 0.1947(8) 0.0691(9) 0.3086(6)
H4_4 H 0.1547 0.0604 0.3412
C6_4 C 0.3827(8) 0.2074(9) 0.2778(7)
C7_4 C 0.4546(8) 0.2081(10) 0.2389(8)
H5_4 H 0.4604 0.1661 0.2073
C8_2 C 0.5165(10) 0.2677(12) 0.2453(11)
H6_2 H 0.5670 0.2633 0.2218
C9_4 C 0.5041(9) 0.3345(10) 0.2867(8)
H7_4 H 0.5451 0.3776 0.2899
C10_4 C 0.4323(9) 0.3383(8) 0.3232(6)
C11_4 C 0.3723(9) 0.2750(8) 0.3184(7)
H8_4 H 0.3231 0.2783 0.3436
C12_4 C 0.4235(7) 0.4068(9) 0.3661(6)
C13_4 C 0.3753(8) 0.5044(8) 0.4297(6)
C14_4 C 0.3106(8) 0.5603(9) 0.4605(6)
C15_4 C 0.2797(7) 0.5420(10) 0.5196(6)
H9_4 H 0.2998 0.4944 0.5419
C16_4 C 0.2185(10) 0.5937(10) 0.5470(8)
H10_4 H 0.1967 0.5812 0.5877
C17_4 C 0.1907(10) 0.6623(9) 0.5143(7)
H11_4 H 0.1503 0.6985 0.5329
C18_4 C 0.2219(9) 0.6796(9) 0.4525(7)
C19_4 C 0.2861(8) 0.6301(9) 0.4286(7)
H12_4 H 0.3129 0.6451 0.3901
C20_4 C 0.1904(9) 0.7518(9) 0.4167(6)
C21_4 C 0.1178(9) 0.7947(8) 0.4307(7)
H13_4 H 0.0871 0.7812 0.4679
C22_4 C 0.0897(10) 0.8567(9) 0.3913(8)
H14_4 H 0.0397 0.8852 0.4029
C23_4 C 0.1994(9) 0.8469(9) 0.3280(7)
H15_4 H 0.2300 0.8676 0.2927
C24_4 C 0.2366(8) 0.7825(7) 0.3650(7)
H16_4 H 0.2906 0.7610 0.3552
N2_4 N 0.4874(7) 0.4463(7) 0.3929(6)
N4_4 N 0.3529(7) 0.4460(8) 0.3885(5)
N5_4 N 0.2717(7) 0.4240(9) 0.3690(7)
H17_4 H 0.2342 0.4461 0.3968
H18_4 H 0.2618 0.4451 0.3297
C39_4 C 0.7203(7) 0.4580(10) 0.0196(6)
H27_4 H 0.7002 0.5056 0.0419
C40_4 C 0.7815(10) 0.4063(10) 0.0470(8)
H28_4 H 0.8033 0.4188 0.0877
C41_4 C 0.8093(10) 0.3377(9) 0.0143(7)
H29_4 H 0.8497 0.3015 0.0329
C25_4 C 0.7571(11) 0.9625(9) 0.7143(7)
H19_4 H 0.7624 0.9947 0.6767
C26_4 C 0.6902(8) 0.9087(8) 0.7186(7)
H20_4 H 0.6505 0.9049 0.6852
C27_4 C 0.6818(9) 0.8599(9) 0.7725(7)
C28_4 C 0.7401(9) 0.8724(9) 0.8192(7)
H21_4 H 0.7368 0.8424 0.8580
C29_4 C 0.8053(8) 0.9309(9) 0.8086(6)
H22_4 H 0.8453 0.9396 0.8412
C30_4 C 0.6173(8) 0.7926(9) 0.7778(7)
C31_4 C 0.5454(8) 0.7919(10) 0.7389(8)
H23_4 H 0.5396 0.8339 0.7073
C32_4 C 0.4835(10) 0.7323(12) 0.7453(11)
H24_4 H 0.4330 0.7367 0.7218
C33_4 C 0.4959(9) 0.6655(10) 0.7867(8)
H25_4 H 0.4549 0.6224 0.7899
C34_4 C 0.5677(9) 0.6617(8) 0.8232(6)
C35_4 C 0.6277(9) 0.7250(8) 0.8184(7)
H26_4 H 0.6769 0.7217 0.8436
C36_4 C 0.5765(7) 0.5932(9) 0.8661(6)
C37_4 C 0.6247(8) 0.4956(8) 0.9297(6)
C38_4 C 0.6894(8) 0.4397(9) 0.9605(6)
C42_4 C 0.7781(9) 0.3204(9) 0.9525(7)
C43_4 C 0.7139(8) 0.3699(9) 0.9286(7)
H30_4 H 0.6871 0.3549 0.8901
C44_4 C 0.8096(9) 0.2482(9) 0.9167(6)
C45_4 C 0.8822(9) 0.2053(8) 0.9307(7)
H31_4 H 0.9129 0.2188 0.9679
C46_4 C 0.9103(10) 0.1433(9) 0.8913(8)
H32_4 H 0.9603 0.1148 0.9029
C47_4 C 0.8006(9) 0.1531(9) 0.8280(7)
H33_4 H 0.7700 0.1324 0.7927
C48_4 C 0.7634(8) 0.2175(7) 0.8650(7)
H34_4 H 0.7094 0.2390 0.8552
N9_4 N 0.5126(7) 0.5537(7) 0.8929(6)
N13_4 N 0.6471(7) 0.5540(8) 0.8885(5)
N14_4 N 0.7283(7) 0.5760(9) 0.8690(7)
H35_4 H 0.7658 0.5539 0.8968
H36_4 H 0.7382 0.5549 0.8297
C8_3 C 0.9835(10) 0.7677(12) 0.0047(11)
H6_3 H 0.9330 0.7633 0.0282
C8_4 C 0.7677(12) 0.9835(10) 0.9953(11)
H6_4 H 0.7633 0.9330 0.9718
loop_
_geom_bond_atom_site_label_1
_geom_bond_atom_site_label_2
_geom_bond_site_symmetry_1
_geom_bond_site_symmetry_2
C1 H1 1_555 1_555
C2 C1 1_555 1_555
H2 C2 1_555 1_555
C3 C2 1_555 1_555
C4 C3 1_555 1_555
H3 C4 1_555 1_555
C5 C4 1_555 1_555
H4 C5 1_555 1_555
C6 C3 1_555 1_555
C7 C6 1_555 1_555
H5 C7 1_555 1_555
C8 C7 1_555 1_555
H6 C8 1_555 1_555
C9 C8 1_555 1_555
H7 C9 1_555 1_555
C10 C9 1_555 1_555
C11 C6 1_555 1_555
H8 C11 1_555 1_555
C12 C10 1_555 1_555
C13 C14 1_555 1_555
C14 C15 1_555 1_555
C15 H9 1_555 1_555
C16 C15 1_555 1_555
H10 C16 1_555 1_555
C17 C16 1_555 1_555
H11 C17 1_555 1_555
C18 C17 1_555 1_555
C19 C14 1_555 1_555
H12 C19 1_555 1_555
C20 C18 1_555 1_555
C21 C20 1_555 1_555
H13 C21 1_555 1_555
C22 C21 1_555 1_555
H14 C22 1_555 1_555
C23 H15 1_555 1_555
C24 C20 1_555 1_555
H16 C24 1_555 1_555
N1 C1 1_555 1_555
N2 C12 1_555 1_555
N3 C13 1_555 1_555
N4 C12 1_555 1_555
N5 N4 1_555 1_555
H17 N5 1_555 1_555
H18 N5 1_555 1_555
N6 C22 1_555 1_555
Cd2 N3 1_555 1_555
Cd3 N6 1_555 1_555
C5 N1 1_555 1_555
C10 C11 1_555 1_555
C13 N4 1_555 1_555
C18 C19 1_555 1_555
C23 C24 1_555 1_555
C23 N6 1_555 1_555
N2 N3 1_555 1_555
N16 Cd3 1_555 1_555
C25 H19 1_555 1_555
C26 C25 1_555 1_555
H20 C26 1_555 1_555
C27 C26 1_555 1_555
C28 C27 1_555 1_555
H21 C28 1_555 1_555
C29 C28 1_555 1_555
H22 C29 1_555 1_555
C30 C27 1_555 1_555
C31 C30 1_555 1_555
H23 C31 1_555 1_555
C32 C31 1_555 1_555
H24 C32 1_555 1_555
C33 C32 1_555 1_555
H25 C33 1_555 1_555
C34 C33 1_555 1_555
C35 C30 1_555 1_555
H26 C35 1_555 1_555
C36 C34 1_555 1_555
C37 C38 1_555 1_555
C43 C38 1_555 1_555
H30 C43 1_555 1_555
C44 C42 1_555 1_555
C45 C44 1_555 1_555
H31 C45 1_555 1_555
C46 C45 1_555 1_555
H32 C46 1_555 1_555
C47 H33 1_555 1_555
C48 C44 1_555 1_555
H34 C48 1_555 1_555
Cd5 N10 1_555 1_555
N7 C25 1_555 1_555
N9 C36 1_555 1_555
N10 C37 1_555 1_555
N13 C36 1_555 1_555
N14 N13 1_555 1_555
H35 N14 1_555 1_555
H36 N14 1_555 1_555
N15 Cd4 1_555 1_555
N16_2 Cd4 1_555 1_555
C29 N7 1_555 1_555
C34 C35 1_555 1_555
C37 N13 1_555 1_555
C42 C43 1_555 1_555
C46 N15 1_555 1_555
C47 C48 1_555 1_555
C47 N15 1_555 1_555
N9 N10 1_555 1_555
C39 H27 1_555 1_555
C40 C39 1_555 1_555
H28 C40 1_555 1_555
C41 C40 1_555 1_555
H29 C41 1_555 1_555
C13_2 C14_2 1_555 1_555
C14_2 C15_2 1_555 1_555
C16_2 C15_2 1_555 1_555
H10_2 C16_2 1_555 1_555
C17_2 C16_2 1_555 1_555
H11_2 C17_2 1_555 1_555
C18_2 C17_2 1_555 1_555
C19_2 C14_2 1_555 1_555
H12_2 C19_2 1_555 1_555
C20_2 C18_2 1_555 1_555
C21_2 C20_2 1_555 1_555
H13_2 C21_2 1_555 1_555
C22_2 C21_2 1_555 1_555
H14_2 C22_2 1_555 1_555
C23_2 H15_2 1_555 1_555
C24_2 C20_2 1_555 1_555
H16_2 C24_2 1_555 1_555
N12 C13_2 1_555 1_555
N6_2 C22_2 1_555 1_555
Cd5_2 N6_2 1_555 1_555
C18_2 C19_2 1_555 1_555
C23_2 C24_2 1_555 1_555
C23_2 N6_2 1_555 1_555
C1_2 H1_2 1_555 1_555
C2_2 C1_2 1_555 1_555
H2_2 C2_2 1_555 1_555
H5_2 C7_2 1_555 1_555
N8_3 Cd5 1_555 1_555
N16_3 Cd5 1_555 1_555
C4_2 C3_2 1_555 1_555
H3_2 C4_2 1_555 1_555
C5_2 C4_2 1_555 1_555
H4_2 C5_2 1_555 1_555
C6_2 C3_2 1_555 1_555
C11_2 C6_2 1_555 1_555
H8_2 C11_2 1_555 1_555
C12_2 C10_2 1_555 1_555
Cd5_2 N1_2 1_555 1_555
N2_2 C12_2 1_555 1_555
N4_2 C12_2 1_555 1_555
N5_2 N4_2 1_555 1_555
H17_2 N5_2 1_555 1_555
H18_2 N5_2 1_555 1_555
N11_3 Cd5_2 1_555 1_555
C5_2 N1_2 1_555 1_555
C10_2 C11_2 1_555 1_555
H7_2 C9_2 1_555 1_555
H24_2 C32_2 1_555 1_555
C33_2 C32_2 1_555 1_555
H25_2 C33_2 1_555 1_555
C25_2 H19_2 1_555 1_555
C26_2 C25_2 1_555 1_555
H20_2 C26_2 1_555 1_555
C27_2 C26_2 1_555 1_555
C28_2 C27_2 1_555 1_555
H21_2 C28_2 1_555 1_555
C29_2 C28_2 1_555 1_555
H22_2 C29_2 1_555 1_555
C30_2 C27_2 1_555 1_555
C31_2 C30_2 1_555 1_555
H23_2 C31_2 1_555 1_555
C35_2 C30_2 1_555 1_555
H26_2 C35_2 1_555 1_555
C36_2 C34_2 1_555 1_555
Cd2 N7_2 1_555 1_555
N7_2 C25_2 1_555 1_555
N9_2 C36_2 1_555 1_555
N13_2 C36_2 1_555 1_555
N14_2 N13_2 1_555 1_555
H35_2 N14_2 1_555 1_555
H36_2 N14_2 1_555 1_555
C29_2 N7_2 1_555 1_555
C34_2 C35_2 1_555 1_555
C37_2 C38_2 1_555 1_555
C38_2 C39_2 1_555 1_555
C40_2 C39_2 1_555 1_555
H28_2 C40_2 1_555 1_555
C41_2 C40_2 1_555 1_555
H29_2 C41_2 1_555 1_555
C42_2 C41_2 1_555 1_555
C43_2 C38_2 1_555 1_555
H30_2 C43_2 1_555 1_555
C44_2 C42_2 1_555 1_555
C45_2 C44_2 1_555 1_555
H31_2 C45_2 1_555 1_555
C46_2 C45_2 1_555 1_555
H32_2 C46_2 1_555 1_555
C47_2 H33_2 1_555 1_555
C48_2 C44_2 1_555 1_555
H34_2 C48_2 1_555 1_555
N8_4 Cd2 1_555 1_555
N12_2 C37_2 1_555 1_555
N11_4 Cd2 1_555 1_555
N15_2 Cd2 1_555 1_555
N16_4 Cd2 1_555 1_555
C42_2 C43_2 1_555 1_555
C46_2 N15_2 1_555 1_555
C47_2 C48_2 1_555 1_555
C47_2 N15_2 1_555 1_555
H24_3 C32_3 1_555 1_555
C33_3 C32_3 1_555 1_555
H25_3 C33_3 1_555 1_555
C25_3 H19_3 1_555 1_555
C26_3 C25_3 1_555 1_555
H20_3 C26_3 1_555 1_555
C27_3 C26_3 1_555 1_555
C28_3 C27_3 1_555 1_555
H21_3 C28_3 1_555 1_555
C29_3 C28_3 1_555 1_555
H22_3 C29_3 1_555 1_555
C30_3 C27_3 1_555 1_555
C31_3 C30_3 1_555 1_555
H23_3 C31_3 1_555 1_555
C35_3 C30_3 1_555 1_555
H26_3 C35_3 1_555 1_555
C36_3 C34_3 1_555 1_555
N8_4 C25_3 1_555 1_555
N9_3 C36_3 1_555 1_555
N13_3 C36_3 1_555 1_555
N14_3 N13_3 1_555 1_555
H35_3 N14_3 1_555 1_555
H36_3 N14_3 1_555 1_555
C29_3 N8_4 1_555 1_555
C34_3 C35_3 1_555 1_555
C37_3 C38_3 1_555 1_555
C38_3 C39_3 1_555 1_555
C40_3 C39_3 1_555 1_555
H28_3 C40_3 1_555 1_555
C41_3 C40_3 1_555 1_555
H29_3 C41_3 1_555 1_555
C42_3 C41_3 1_555 1_555
C43_3 C38_3 1_555 1_555
H30_3 C43_3 1_555 1_555
C44_3 C42_3 1_555 1_555
C45_3 C44_3 1_555 1_555
H31_3 C45_3 1_555 1_555
C46_3 C45_3 1_555 1_555
H32_3 C46_3 1_555 1_555
C47_3 H33_3 1_555 1_555
C48_3 C44_3 1_555 1_555
H34_3 C48_3 1_555 1_555
N11 C37_3 1_555 1_555
C42_3 C43_3 1_555 1_555
C46_3 N16_4 1_555 1_555
C47_3 C48_3 1_555 1_555
C47_3 N16_4 1_555 1_555
C13_3 C14_3 1_555 1_555
C14_3 C15_3 1_555 1_555
C16_3 C15_3 1_555 1_555
H10_3 C16_3 1_555 1_555
C17_3 C16_3 1_555 1_555
H11_3 C17_3 1_555 1_555
C18_3 C17_3 1_555 1_555
C19_3 C14_3 1_555 1_555
H12_3 C19_3 1_555 1_555
C20_3 C18_3 1_555 1_555
C21_3 C20_3 1_555 1_555
H13_3 C21_3 1_555 1_555
C22_3 C21_3 1_555 1_555
H14_3 C22_3 1_555 1_555
C23_3 H15_3 1_555 1_555
C24_3 C20_3 1_555 1_555
H16_3 C24_3 1_555 1_555
N11_2 C13_3 1_555 1_555
N16_3 C22_3 1_555 1_555
C18_3 C19_3 1_555 1_555
C23_3 C24_3 1_555 1_555
C23_3 N16_3 1_555 1_555
C4_3 C3_3 1_555 1_555
H3_3 C4_3 1_555 1_555
C5_3 C4_3 1_555 1_555
H4_3 C5_3 1_555 1_555
C6_3 C3_3 1_555 1_555
C11_3 C6_3 1_555 1_555
H8_3 C11_3 1_555 1_555
C12_3 C10_3 1_555 1_555
N2_3 C12_3 1_555 1_555
N4_3 C12_3 1_555 1_555
N5_3 N4_3 1_555 1_555
H17_3 N5_3 1_555 1_555
H18_3 N5_3 1_555 1_555
C5_3 N8_3 1_555 1_555
C10_3 C11_3 1_555 1_555
C1_3 H1_3 1_555 1_555
C2_3 C1_3 1_555 1_555
H2_3 C2_3 1_555 1_555
H5_3 C7_3 1_555 1_555
H7_3 C9_3 1_555 1_555
C1_4 H1_4 1_555 1_555
C2_4 C1_4 1_555 1_555
H2_4 C2_4 1_555 1_555
C3_4 C2_4 1_555 1_555
C4_4 C3_4 1_555 1_555
H3_4 C4_4 1_555 1_555
C5_4 C4_4 1_555 1_555
H4_4 C5_4 1_555 1_555
C6_4 C3_4 1_555 1_555
C7_4 C6_4 1_555 1_555
H5_4 C7_4 1_555 1_555
C8_2 C7_4 1_555 1_555
H6_2 C8_2 1_555 1_555
C9_4 C8_2 1_555 1_555
H7_4 C9_4 1_555 1_555
C10_4 C9_4 1_555 1_555
C11_4 C6_4 1_555 1_555
H8_4 C11_4 1_555 1_555
C12_4 C10_4 1_555 1_555
C13_4 C14_4 1_555 1_555
C14_4 C15_4 1_555 1_555
C15_4 H9_4 1_555 1_555
C16_4 C15_4 1_555 1_555
H10_4 C16_4 1_555 1_555
C17_4 C16_4 1_555 1_555
H11_4 C17_4 1_555 1_555
C18_4 C17_4 1_555 1_555
C19_4 C14_4 1_555 1_555
H12_4 C19_4 1_555 1_555
C20_4 C18_4 1_555 1_555
C21_4 C20_4 1_555 1_555
H13_4 C21_4 1_555 1_555
C22_4 C21_4 1_555 1_555
H14_4 C22_4 1_555 1_555
C23_4 H15_4 1_555 1_555
C24_4 C20_4 1_555 1_555
H16_4 C24_4 1_555 1_555
N8_2 C1_4 1_555 1_555
N2_4 C12_4 1_555 1_555
N11_4 C13_4 1_555 1_555
N4_4 C12_4 1_555 1_555
N5_4 N4_4 1_555 1_555
H17_4 N5_4 1_555 1_555
H18_4 N5_4 1_555 1_555
N16_2 C22_4 1_555 1_555
C5_4 N8_2 1_555 1_555
C10_4 C11_4 1_555 1_555
C13_4 N4_4 1_555 1_555
C18_4 C19_4 1_555 1_555
C23_4 C24_4 1_555 1_555
C23_4 N16_2 1_555 1_555
N2_4 N11_4 1_555 1_555
C39_4 H27_4 1_555 1_555
C40_4 C39_4 1_555 1_555
H28_4 C40_4 1_555 1_555
C41_4 C40_4 1_555 1_555
H29_4 C41_4 1_555 1_555
C25_4 H19_4 1_555 1_555
C26_4 C25_4 1_555 1_555
H20_4 C26_4 1_555 1_555
C27_4 C26_4 1_555 1_555
C28_4 C27_4 1_555 1_555
H21_4 C28_4 1_555 1_555
C29_4 C28_4 1_555 1_555
H22_4 C29_4 1_555 1_555
C30_4 C27_4 1_555 1_555
C31_4 C30_4 1_555 1_555
H23_4 C31_4 1_555 1_555
C32_4 C31_4 1_555 1_555
H24_4 C32_4 1_555 1_555
C33_4 C32_4 1_555 1_555
H25_4 C33_4 1_555 1_555
C34_4 C33_4 1_555 1_555
C35_4 C30_4 1_555 1_555
H26_4 C35_4 1_555 1_555
C36_4 C34_4 1_555 1_555
C37_4 C38_4 1_555 1_555
C43_4 C38_4 1_555 1_555
H30_4 C43_4 1_555 1_555
C44_4 C42_4 1_555 1_555
C45_4 C44_4 1_555 1_555
H31_4 C45_4 1_555 1_555
C46_4 C45_4 1_555 1_555
H32_4 C46_4 1_555 1_555
C47_4 H33_4 1_555 1_555
C48_4 C44_4 1_555 1_555
H34_4 C48_4 1_555 1_555
N8 C25_4 1_555 1_555
N9_4 C36_4 1_555 1_555
N11_3 C37_4 1_555 1_555
N13_4 C36_4 1_555 1_555
N14_4 N13_4 1_555 1_555
H35_4 N14_4 1_555 1_555
H36_4 N14_4 1_555 1_555
C29_4 N8 1_555 1_555
C34_4 C35_4 1_555 1_555
C37_4 N13_4 1_555 1_555
C42_4 C43_4 1_555 1_555
C46_4 N16 1_555 1_555
C47_4 C48_4 1_555 1_555
C47_4 N16 1_555 1_555
N9_4 N11_3 1_555 1_555
H6_3 C8_3 1_555 1_555
H6_4 C8_4 1_555 1_555

#END
