
###############################################################################
#
# This file contains modified crystal structure data generated from the
# MOF subset of the Cambridge Structural Database (CSD) v543 
# hosted by the Cambridge Crystallographic Data Centre (CCDC).
#
# This work is licensed under the Creative Commons
# Attribution-NonCommercial-ShareAlike 4.0 International License.
# To view a copy of this license, visit
# http://creativecommons.org/licenses/by-nc-sa/4.0/
# or send a letter to
# Creative Commons, PO Box 1866, Mountain View, CA 94042, USA.
#
# CIF created using the CSD Python API on 29 September 2022
# The structure has been converted into the P1 space group
# The structure has a 3D framework
# The original CSD entry ITIWUE is in the tetragonal crystal system
# The original CSD entry ITIWUE is in a Sohncke space group
# The framework has been calculated to contain at least 10.0% void space
# The void calculation uses a probe of radius 1.32A, grid spacing 0.4
# The framework is charged, counterions have been retained in the structure
#
###############################################################################

data_ITIWUE
_chemical_formula_moiety         '(C192 H144 Cd3 Cl5 N48 O16 2+)n'
_symmetry_cell_setting           triclinic
_symmetry_space_group_name_H-M   'P 1'
_symmetry_Int_Tables_number      1
_space_group_name_Hall           'P 1'
loop_
_symmetry_equiv_pos_site_id
_symmetry_equiv_pos_as_xyz
1 x,y,z
_cell_length_a                   15.8774(10)
_cell_length_b                   15.8774(10)
_cell_length_c                   21.542(3)
_cell_angle_alpha                90
_cell_angle_beta                 90
_cell_angle_gamma                90
_cell_volume                     5430.56
loop_
_atom_site_label
_atom_site_type_symbol
_atom_site_fract_x
_atom_site_fract_y
_atom_site_fract_z
Cl1 Cl 0.11877(16) 0.11877(16) 0.0000
O3 O 0.1119(13) 0.1815(12) 0.0388(10)
O4 O 0.144(2) 0.0575(13) 0.0356(7)
Cl1_2 Cl 0.11877(16) 0.11877(16) 1.0000
O1 O 0.1815(12) 0.1119(13) 0.9612(10)
O2 O 0.0575(13) 0.144(2) 0.9644(7)
Cl1_3 Cl 0.88123(16) 0.88123(16) 0.5000
O1_2 O 0.8185(12) 0.8881(13) 0.4612(10)
O2_2 O 0.9425(13) 0.856(2) 0.4644(7)
O3_2 O 0.8881(13) 0.8185(12) 0.5388(10)
O4_2 O 0.856(2) 0.9425(13) 0.5356(7)
Cl1_4 Cl 0.38123(16) 0.61877(16) 0.7500
O1_3 O 0.3881(13) 0.6815(12) 0.7112(10)
O2_3 O 0.356(2) 0.5575(13) 0.7144(7)
O3_3 O 0.3185(12) 0.6119(13) 0.7888(10)
O4_3 O 0.4425(13) 0.644(2) 0.7856(7)
Cl1_5 Cl 0.61877(16) 0.38123(16) 0.2500
O1_4 O 0.6119(13) 0.3185(12) 0.2112(10)
O2_4 O 0.644(2) 0.4425(13) 0.2144(7)
O3_4 O 0.6815(12) 0.3881(13) 0.2888(10)
O4_4 O 0.5575(13) 0.356(2) 0.2856(7)
C15 C 0.1653(5) 0.0049(5) 0.4626(3)
H9 H 0.1219 0.0458 0.4595
C16 C 0.2304(5) 0.0166(5) 0.5033(4)
H10 H 0.2329 0.0669 0.5272
C25 C 0.4116(4) 0.3599(4) 0.1404(3)
H19 H 0.4616 0.3891 0.1515
C26 C 0.3818(4) 0.2980(4) 0.1808(3)
H20 H 0.4113 0.2861 0.2182
C27 C 0.3088(4) 0.2538(4) 0.1662(3)
C28 C 0.2655(4) 0.2803(4) 0.1127(3)
H21 H 0.2127 0.2562 0.1021
C29 C 0.3010(4) 0.3420(4) 0.0756(3)
H22 H 0.2715 0.3583 0.0392
C30 C 0.2774(4) 0.1822(4) 0.2028(3)
C31 C 0.3063(4) 0.1651(5) 0.2643(3)
H23 H 0.3463 0.2017 0.2830
C32 C 0.2779(5) 0.0979(5) 0.2962(3)
H24 H 0.2984 0.0881 0.3370
C33 C 0.2190(4) 0.0421(5) 0.2708(3)
C34 C 0.1892(3) 0.0583(4) 0.2109(3)
C35 C 0.2185(4) 0.1277(4) 0.1779(3)
H26 H 0.1976 0.1378 0.1373
C36 C 0.1261(4) 0.0030(4) 0.1805(3)
Cd4 Cd 0.44116(2) 0.44116(2) 0.0000
N7 N 0.0435(3) 0.0071(3) 0.1831(2)
N11 N 0.3744(4) 0.3803(3) 0.0878(3)
N16 N 0.0258(3) 0.1871(3) 0.2572(3)
Cd4_2 Cd 0.44116(2) 0.44116(2) 1.0000
H7 H 0.0054 0.8002 0.2065
C13 C 0.0924(4) 0.9249(3) 0.3817(3)
C14 C 0.1630(4) 0.9333(4) 0.4259(3)
C17 C 0.2929(5) 0.9560(4) 0.5101(4)
H11 H 0.3355 0.9627 0.5408
C18 C 0.2927(4) 0.8859(4) 0.4720(3)
C19 C 0.2258(4) 0.8741(4) 0.4305(3)
H12 H 0.2238 0.8249 0.4054
C20 C 0.3586(4) 0.8196(4) 0.4783(3)
C21 C 0.4016(4) 0.8076(4) 0.5332(3)
H13 H 0.3932 0.8446 0.5673
C22 C 0.4583(4) 0.7395(4) 0.5379(3)
H14 H 0.4866 0.7313 0.5763
C23 C 0.4343(4) 0.7003(4) 0.4387(3)
H15 H 0.4463 0.6633 0.4052
C24 C 0.3773(5) 0.7637(4) 0.4287(3)
H16 H 0.3509 0.7702 0.3894
N2 N 0.0539(4) 0.9886(3) 0.3554(2)
N3 N 0.0583(4) 0.8525(3) 0.3600(2)
N4 N 0.0784(4) 0.7709(4) 0.3796(3)
H17 H 0.0916 0.7386 0.3461
H18 H 0.0333 0.7481 0.3995
N6 N 0.4742(3) 0.6871(3) 0.4928(3)
H25 H 0.1998 0.9946 0.2935
C37 C 0.0751(3) 0.9076(4) 0.1183(3)
C38 C 0.0667(4) 0.8370(4) 0.0741(3)
C42 C 0.1141(4) 0.7073(4) 0.0280(3)
C43 C 0.1259(4) 0.7742(4) 0.0695(3)
H30 H 0.1751 0.7762 0.0946
C44 C 0.1804(4) 0.6414(4) 0.0217(3)
C47 C 0.2997(4) 0.5657(4) 0.0613(3)
H33 H 0.3367 0.5537 0.0948
C48 C 0.2363(4) 0.6227(5) 0.0713(3)
H34 H 0.2298 0.6491 0.1106
Cd3 Cd 0.55884(2) 0.55884(2) 0.5000
N8 N 0.0114(3) 0.9461(4) 0.1446(2)
N9 N 0.1475(3) 0.9417(4) 0.1400(2)
N10 N 0.2291(4) 0.9216(4) 0.1204(3)
H35 H 0.2614 0.9084 0.1539
H36 H 0.2519 0.9667 0.1005
N14 N 0.3129(3) 0.5258(3) 0.0072(3)
C41 C 0.0440(4) 0.7071(5) 0.9899(4)
H29 H 0.0373 0.6645 0.9592
C45 C 0.1924(4) 0.5984(4) 0.9668(3)
H31 H 0.1554 0.6068 0.9327
C46 C 0.2605(4) 0.5417(4) 0.9621(3)
H32 H 0.2687 0.5134 0.9237
Cd1 Cd 0.94116(2) 0.05884(2) 0.2500
N12 N 0.8744(4) 0.1197(3) 0.1622(3)
N13 N 0.8803(3) 0.1256(4) 0.3378(3)
C1 C 0.6401(4) 0.5884(4) 0.3596(3)
H1 H 0.6109 0.5384 0.3485
C2 C 0.7020(4) 0.6182(4) 0.3192(3)
H2 H 0.7139 0.5887 0.2818
C3 C 0.7462(4) 0.6912(4) 0.3338(3)
C4 C 0.7197(4) 0.7345(4) 0.3873(3)
H3 H 0.7438 0.7873 0.3979
C5 C 0.6580(4) 0.6990(4) 0.4244(3)
H4 H 0.6417 0.7285 0.4608
C6 C 0.8178(4) 0.7226(4) 0.2972(3)
C7 C 0.8349(5) 0.6937(4) 0.2357(3)
H5 H 0.7983 0.6537 0.2170
C8 C 0.9021(5) 0.7221(5) 0.2038(3)
H6 H 0.9119 0.7016 0.1630
C9 C 0.9579(5) 0.7810(4) 0.2292(3)
C10 C 0.9417(4) 0.8108(3) 0.2891(3)
C11 C 0.8723(4) 0.7815(4) 0.3221(3)
H8 H 0.8622 0.8024 0.3627
C12 C 0.9970(4) 0.8739(4) 0.3195(3)
N1 N 0.9929(3) 0.9565(3) 0.3169(2)
N5 N 0.6197(3) 0.6256(4) 0.4122(3)
C39 C 0.9951(5) 0.8347(5) 0.0374(3)
H27 H 0.9542 0.8781 0.0405
N15 N 0.8129(3) 0.9742(3) 0.2428(3)
C1_2 C 0.3599(4) 0.4116(4) 0.8596(3)
H1_2 H 0.3891 0.4616 0.8485
C2_2 C 0.2980(4) 0.3818(4) 0.8192(3)
H2_2 H 0.2861 0.4113 0.7818
C3_2 C 0.2538(4) 0.3088(4) 0.8338(3)
C4_2 C 0.2803(4) 0.2655(4) 0.8873(3)
H3_2 H 0.2562 0.2127 0.8979
C5_2 C 0.3420(4) 0.3010(4) 0.9244(3)
H4_2 H 0.3583 0.2715 0.9608
C6_2 C 0.1822(4) 0.2774(4) 0.7972(3)
C7_2 C 0.1651(5) 0.3063(4) 0.7357(3)
H5_2 H 0.2017 0.3463 0.7170
C8_2 C 0.0979(5) 0.2779(5) 0.7038(3)
H6_2 H 0.0881 0.2984 0.6630
C9_2 C 0.0421(5) 0.2190(4) 0.7292(3)
C10_2 C 0.0583(4) 0.1892(3) 0.7891(3)
C11_2 C 0.1277(4) 0.2185(4) 0.8221(3)
H8_2 H 0.1378 0.1976 0.8627
C12_2 C 0.0030(4) 0.1261(4) 0.8195(3)
N1_2 N 0.0071(3) 0.0435(3) 0.8169(2)
N5_2 N 0.3803(3) 0.3744(4) 0.9122(3)
C39_2 C 0.0049(5) 0.1653(5) 0.5374(3)
H27_2 H 0.0458 0.1219 0.5405
C40 C 0.0166(5) 0.2304(5) 0.4967(4)
H28 H 0.0669 0.2329 0.4728
N15_2 N 0.1871(3) 0.0258(3) 0.7428(3)
Cd1_2 Cd 0.05884(2) 0.94116(2) 0.7500
N12_2 N 0.1256(4) 0.8803(3) 0.6622(3)
N13_2 N 0.1197(3) 0.8744(4) 0.8378(3)
C17_2 C 0.7071(5) 0.0440(4) 0.0101(4)
H11_2 H 0.6645 0.0373 0.0408
C21_2 C 0.5984(4) 0.1924(4) 0.0332(3)
H13_2 H 0.6068 0.1554 0.0673
C22_2 C 0.5417(4) 0.2605(4) 0.0379(3)
H14_2 H 0.5134 0.2687 0.0763
H7_2 H 0.9946 0.1998 0.7065
C13_2 C 0.9076(4) 0.0751(3) 0.8817(3)
C14_2 C 0.8370(4) 0.0667(4) 0.9259(3)
C18_2 C 0.7073(4) 0.1141(4) 0.9720(3)
C19_2 C 0.7742(4) 0.1259(4) 0.9305(3)
H12_2 H 0.7762 0.1751 0.9054
C20_2 C 0.6414(4) 0.1804(4) 0.9783(3)
C23_2 C 0.5657(4) 0.2997(4) 0.9387(3)
H15_2 H 0.5537 0.3367 0.9052
C24_2 C 0.6227(5) 0.2363(4) 0.9287(3)
H16_2 H 0.6491 0.2298 0.8894
N2_2 N 0.9461(4) 0.0114(3) 0.8554(2)
N3_2 N 0.9417(4) 0.1475(3) 0.8600(2)
N4_2 N 0.9216(4) 0.2291(4) 0.8796(3)
H17_2 H 0.9084 0.2614 0.8461
H18_2 H 0.9667 0.2519 0.8995
N6_2 N 0.5258(3) 0.3129(3) 0.9928(3)
H25_2 H 0.8002 0.0054 0.7935
C37_2 C 0.9249(3) 0.0924(4) 0.6183(3)
C38_2 C 0.9333(4) 0.1630(4) 0.5741(3)
C41_2 C 0.9560(4) 0.2929(5) 0.4899(4)
H29_2 H 0.9627 0.3355 0.4592
C42_2 C 0.8859(4) 0.2927(4) 0.5280(3)
C43_2 C 0.8741(4) 0.2258(4) 0.5695(3)
H30_2 H 0.8249 0.2238 0.5946
C44_2 C 0.8196(4) 0.3586(4) 0.5217(3)
C45_2 C 0.8076(4) 0.4016(4) 0.4668(3)
H31_2 H 0.8446 0.3932 0.4327
C46_2 C 0.7395(4) 0.4583(4) 0.4621(3)
H32_2 H 0.7313 0.4866 0.4237
C47_2 C 0.7003(4) 0.4343(4) 0.5613(3)
H33_2 H 0.6633 0.4463 0.5948
C48_2 C 0.7637(4) 0.3773(5) 0.5713(3)
H34_2 H 0.7702 0.3509 0.6106
N8_2 N 0.9886(3) 0.0539(4) 0.6446(2)
N9_2 N 0.8525(3) 0.0583(4) 0.6400(2)
N10_2 N 0.7709(4) 0.0784(4) 0.6204(3)
H35_2 H 0.7386 0.0916 0.6539
H36_2 H 0.7481 0.0333 0.6005
N14_2 N 0.6871(3) 0.4742(3) 0.5072(3)
C15_2 C 0.8347(5) 0.9951(5) 0.9626(3)
H9_2 H 0.8781 0.9542 0.9595
C25_2 C 0.5884(4) 0.6401(4) 0.6404(3)
H19_2 H 0.5384 0.6109 0.6515
C26_2 C 0.6182(4) 0.7020(4) 0.6808(3)
H20_2 H 0.5887 0.7139 0.7182
C27_2 C 0.6912(4) 0.7462(4) 0.6662(3)
C28_2 C 0.7345(4) 0.7197(4) 0.6127(3)
H21_2 H 0.7873 0.7438 0.6021
C29_2 C 0.6990(4) 0.6580(4) 0.5756(3)
H22_2 H 0.7285 0.6417 0.5392
C30_2 C 0.7226(4) 0.8178(4) 0.7028(3)
C31_2 C 0.6937(4) 0.8349(5) 0.7643(3)
H23_2 H 0.6537 0.7983 0.7830
C32_2 C 0.7221(5) 0.9021(5) 0.7962(3)
H24_2 H 0.7016 0.9119 0.8370
C33_2 C 0.7810(4) 0.9579(5) 0.7708(3)
C34_2 C 0.8108(3) 0.9417(4) 0.7109(3)
C35_2 C 0.7815(4) 0.8723(4) 0.6779(3)
H26_2 H 0.8024 0.8622 0.6373
C36_2 C 0.8739(4) 0.9970(4) 0.6805(3)
N7_2 N 0.9565(3) 0.9929(3) 0.6831(2)
N11_2 N 0.6256(4) 0.6197(3) 0.5878(3)
N16_2 N 0.9742(3) 0.8129(3) 0.7572(3)
C1_3 C 0.9116(4) 0.1401(4) 0.1096(3)
H1_3 H 0.9616 0.1109 0.0985
C2_3 C 0.8818(4) 0.2020(4) 0.0692(3)
H2_3 H 0.9113 0.2139 0.0318
C3_3 C 0.8088(4) 0.2462(4) 0.0838(3)
C4_3 C 0.7655(4) 0.2197(4) 0.1373(3)
H3_3 H 0.7127 0.2438 0.1479
C5_3 C 0.8010(4) 0.1580(4) 0.1744(3)
H4_3 H 0.7715 0.1417 0.2108
C6_3 C 0.7774(4) 0.3178(4) 0.0472(3)
C10_3 C 0.6892(3) 0.4417(4) 0.0391(3)
C11_3 C 0.7185(4) 0.3723(4) 0.0721(3)
H8_3 H 0.6976 0.3622 0.1127
C12_3 C 0.6261(4) 0.4970(4) 0.0695(3)
C13_3 C 0.5751(3) 0.5924(4) 0.1317(3)
C14_3 C 0.5667(4) 0.6630(4) 0.1759(3)
C15_3 C 0.4951(5) 0.6653(5) 0.2126(3)
H9_3 H 0.4542 0.6219 0.2095
C16_2 C 0.4834(5) 0.7304(5) 0.2533(4)
H10_2 H 0.4331 0.7329 0.2772
C17_3 C 0.5440(4) 0.7929(5) 0.2601(4)
H11_3 H 0.5373 0.8355 0.2908
C18_3 C 0.6141(4) 0.7927(4) 0.2220(3)
C19_3 C 0.6259(4) 0.7258(4) 0.1805(3)
H12_3 H 0.6751 0.7238 0.1554
C20_3 C 0.6804(4) 0.8586(4) 0.2283(3)
C21_3 C 0.6924(4) 0.9016(4) 0.2832(3)
H13_3 H 0.6554 0.8932 0.3173
C22_3 C 0.7605(4) 0.9583(4) 0.2879(3)
H14_3 H 0.7687 0.9866 0.3263
C23_3 C 0.7997(4) 0.9343(4) 0.1887(3)
H15_3 H 0.8367 0.9463 0.1552
C24_3 C 0.7363(4) 0.8773(5) 0.1787(3)
H16_3 H 0.7298 0.8509 0.1394
N1_3 N 0.5435(3) 0.4929(3) 0.0669(2)
N2_3 N 0.5114(3) 0.5539(4) 0.1054(2)
N3_3 N 0.6475(3) 0.5583(4) 0.1100(2)
N4_3 N 0.7291(4) 0.5784(4) 0.1296(3)
H17_3 H 0.7614 0.5916 0.0961
H18_3 H 0.7519 0.5333 0.1495
C31_3 C 0.3349(5) 0.8063(4) 0.0143(3)
H23_3 H 0.2983 0.8463 0.0330
C32_3 C 0.4021(5) 0.7779(5) 0.0462(3)
H24_3 H 0.4119 0.7984 0.0870
C33_3 C 0.4579(5) 0.7190(4) 0.0208(3)
H25_3 H 0.5054 0.6998 0.0435
C7_3 C 0.8063(4) 0.3349(5) 0.9857(3)
H5_3 H 0.8463 0.2983 0.9670
C8_3 C 0.7779(5) 0.4021(5) 0.9538(3)
H6_3 H 0.7984 0.4119 0.9130
C9_3 C 0.7190(4) 0.4579(5) 0.9792(3)
H7_3 H 0.6998 0.5054 0.9565
C25_3 C 0.1401(4) 0.9116(4) 0.8904(3)
H19_3 H 0.1109 0.9616 0.9015
C26_3 C 0.2020(4) 0.8818(4) 0.9308(3)
H20_3 H 0.2139 0.9113 0.9682
C27_3 C 0.2462(4) 0.8088(4) 0.9162(3)
C28_3 C 0.2197(4) 0.7655(4) 0.8627(3)
H21_3 H 0.2438 0.7127 0.8521
C29_3 C 0.1580(4) 0.8010(4) 0.8256(3)
H22_3 H 0.1417 0.7715 0.7892
C30_3 C 0.3178(4) 0.7774(4) 0.9528(3)
C34_3 C 0.4417(4) 0.6892(3) 0.9609(3)
C35_3 C 0.3723(4) 0.7185(4) 0.9279(3)
H26_3 H 0.3622 0.6976 0.8873
C36_3 C 0.4970(4) 0.6261(4) 0.9305(3)
C37_3 C 0.5924(4) 0.5751(3) 0.8683(3)
C38_3 C 0.6630(4) 0.5667(4) 0.8241(3)
C39_3 C 0.6653(5) 0.4951(5) 0.7874(3)
H27_3 H 0.6219 0.4542 0.7905
C40_2 C 0.7304(5) 0.4834(5) 0.7467(4)
H28_2 H 0.7329 0.4331 0.7228
C41_3 C 0.7929(5) 0.5440(4) 0.7399(4)
H29_3 H 0.8355 0.5373 0.7092
C42_3 C 0.7927(4) 0.6141(4) 0.7780(3)
C43_3 C 0.7258(4) 0.6259(4) 0.8195(3)
H30_3 H 0.7238 0.6751 0.8446
C44_3 C 0.8586(4) 0.6804(4) 0.7717(3)
C45_3 C 0.9016(4) 0.6924(4) 0.7168(3)
H31_3 H 0.8932 0.6554 0.6827
C46_3 C 0.9583(4) 0.7605(4) 0.7121(3)
H32_3 H 0.9866 0.7687 0.6737
C47_3 C 0.9343(4) 0.7997(4) 0.8113(3)
H33_3 H 0.9463 0.8367 0.8448
C48_3 C 0.8773(5) 0.7363(4) 0.8213(3)
H34_3 H 0.8509 0.7298 0.8606
N7_3 N 0.4929(3) 0.5435(3) 0.9331(2)
N8_3 N 0.5539(4) 0.5114(3) 0.8946(2)
N9_3 N 0.5583(4) 0.6475(3) 0.8900(2)
N10_3 N 0.5784(4) 0.7291(4) 0.8704(3)
H35_3 H 0.5916 0.7614 0.9039
H36_3 H 0.5333 0.7519 0.8505
C1_4 C 0.0884(4) 0.8599(4) 0.6096(3)
H1_4 H 0.0384 0.8891 0.5985
C2_4 C 0.1182(4) 0.7980(4) 0.5692(3)
H2_4 H 0.0887 0.7861 0.5318
C3_4 C 0.1912(4) 0.7538(4) 0.5838(3)
C4_4 C 0.2345(4) 0.7803(4) 0.6373(3)
H3_4 H 0.2873 0.7562 0.6479
C5_4 C 0.1990(4) 0.8420(4) 0.6744(3)
H4_4 H 0.2285 0.8583 0.7108
C6_4 C 0.2226(4) 0.6822(4) 0.5472(3)
C7_4 C 0.1937(4) 0.6651(5) 0.4857(3)
H5_4 H 0.1537 0.7017 0.4670
C8_4 C 0.2221(5) 0.5979(5) 0.4538(3)
H6_4 H 0.2016 0.5881 0.4130
C9_4 C 0.2810(4) 0.5421(5) 0.4792(3)
H7_4 H 0.3002 0.4946 0.4565
C10_4 C 0.3108(3) 0.5583(4) 0.5391(3)
C11_4 C 0.2815(4) 0.6277(4) 0.5721(3)
H8_4 H 0.3024 0.6378 0.6127
C12_4 C 0.3739(4) 0.5030(4) 0.5695(3)
C13_4 C 0.4249(3) 0.4076(4) 0.6317(3)
C14_4 C 0.4333(4) 0.3370(4) 0.6759(3)
C15_4 C 0.5049(5) 0.3347(5) 0.7126(3)
H9_4 H 0.5458 0.3781 0.7095
C16_3 C 0.5166(5) 0.2696(5) 0.7533(4)
H10_3 H 0.5669 0.2671 0.7772
C17_4 C 0.4560(4) 0.2071(5) 0.7601(4)
H11_4 H 0.4627 0.1645 0.7908
C18_4 C 0.3859(4) 0.2073(4) 0.7220(3)
C19_4 C 0.3741(4) 0.2742(4) 0.6805(3)
H12_4 H 0.3249 0.2762 0.6554
C20_4 C 0.3196(4) 0.1414(4) 0.7283(3)
C21_4 C 0.3076(4) 0.0984(4) 0.7832(3)
H13_4 H 0.3446 0.1068 0.8173
C22_4 C 0.2395(4) 0.0417(4) 0.7879(3)
H14_4 H 0.2313 0.0134 0.8263
C23_4 C 0.2003(4) 0.0657(4) 0.6887(3)
H15_4 H 0.1633 0.0537 0.6552
C24_4 C 0.2637(4) 0.1227(5) 0.6787(3)
H16_4 H 0.2702 0.1491 0.6394
N1_4 N 0.4565(3) 0.5071(3) 0.5669(2)
N2_4 N 0.4886(3) 0.4461(4) 0.6054(2)
N3_4 N 0.3525(3) 0.4417(4) 0.6100(2)
N4_4 N 0.2709(4) 0.4216(4) 0.6296(3)
H17_4 H 0.2386 0.4084 0.5961
H18_4 H 0.2481 0.4667 0.6495
C25_4 C 0.8599(4) 0.0884(4) 0.3904(3)
H19_4 H 0.8891 0.0384 0.4015
C26_4 C 0.7980(4) 0.1182(4) 0.4308(3)
H20_4 H 0.7861 0.0887 0.4682
C27_4 C 0.7538(4) 0.1912(4) 0.4162(3)
C28_4 C 0.7803(4) 0.2345(4) 0.3627(3)
H21_4 H 0.7562 0.2873 0.3521
C29_4 C 0.8420(4) 0.1990(4) 0.3256(3)
H22_4 H 0.8583 0.2285 0.2892
C30_4 C 0.6822(4) 0.2226(4) 0.4528(3)
C31_4 C 0.6651(5) 0.1937(4) 0.5143(3)
H23_4 H 0.7017 0.1537 0.5330
C32_4 C 0.5979(5) 0.2221(5) 0.5462(3)
H24_4 H 0.5881 0.2016 0.5870
C33_4 C 0.5421(5) 0.2810(4) 0.5208(3)
H25_4 H 0.4946 0.3002 0.5435
C34_4 C 0.5583(4) 0.3108(3) 0.4609(3)
C35_4 C 0.6277(4) 0.2815(4) 0.4279(3)
H26_4 H 0.6378 0.3024 0.3873
C36_4 C 0.5030(4) 0.3739(4) 0.4305(3)
C37_4 C 0.4076(4) 0.4249(3) 0.3683(3)
C38_4 C 0.3370(4) 0.4333(4) 0.3241(3)
C39_4 C 0.3347(5) 0.5049(5) 0.2874(3)
H27_4 H 0.3781 0.5458 0.2905
C40_3 C 0.2696(5) 0.5166(5) 0.2467(4)
H28_3 H 0.2671 0.5669 0.2228
C41_4 C 0.2071(5) 0.4560(4) 0.2399(4)
H29_4 H 0.1645 0.4627 0.2092
C42_4 C 0.2073(4) 0.3859(4) 0.2780(3)
C43_4 C 0.2742(4) 0.3741(4) 0.3195(3)
H30_4 H 0.2762 0.3249 0.3446
C44_4 C 0.1414(4) 0.3196(4) 0.2717(3)
C45_4 C 0.0984(4) 0.3076(4) 0.2168(3)
H31_4 H 0.1068 0.3446 0.1827
C46_4 C 0.0417(4) 0.2395(4) 0.2121(3)
H32_4 H 0.0134 0.2313 0.1737
C47_4 C 0.0657(4) 0.2003(4) 0.3113(3)
H33_4 H 0.0537 0.1633 0.3448
C48_4 C 0.1227(5) 0.2637(4) 0.3213(3)
H34_4 H 0.1491 0.2702 0.3606
N7_4 N 0.5071(3) 0.4565(3) 0.4331(2)
N8_4 N 0.4461(4) 0.4886(3) 0.3946(2)
N9_4 N 0.4417(4) 0.3525(3) 0.3900(2)
N10_4 N 0.4216(4) 0.2709(4) 0.3704(3)
H35_4 H 0.4084 0.2386 0.4039
H36_4 H 0.4667 0.2481 0.3505
C40_4 C 0.9834(5) 0.7696(5) 0.9967(4)
H28_4 H 0.9331 0.7671 0.9728
C16_4 C 0.7696(5) 0.9834(5) 0.0033(4)
H10_4 H 0.7671 0.9331 0.0272
loop_
_geom_bond_atom_site_label_1
_geom_bond_atom_site_label_2
_geom_bond_site_symmetry_1
_geom_bond_site_symmetry_2
O3 Cl1 1_555 1_555
O4 Cl1 1_555 1_555
Cl1_2 O1 1_555 1_555
O2 Cl1_2 1_555 1_555
Cl1_3 O1_2 1_555 1_555
O2_2 Cl1_3 1_555 1_555
O3_2 Cl1_3 1_555 1_555
O4_2 Cl1_3 1_555 1_555
Cl1_4 O1_3 1_555 1_555
O2_3 Cl1_4 1_555 1_555
O3_3 Cl1_4 1_555 1_555
O4_3 Cl1_4 1_555 1_555
Cl1_5 O1_4 1_555 1_555
O2_4 Cl1_5 1_555 1_555
O3_4 Cl1_5 1_555 1_555
O4_4 Cl1_5 1_555 1_555
C15 H9 1_555 1_555
C16 C15 1_555 1_555
H10 C16 1_555 1_555
C25 H19 1_555 1_555
C26 C25 1_555 1_555
H20 C26 1_555 1_555
C27 C26 1_555 1_555
C28 C27 1_555 1_555
H21 C28 1_555 1_555
C29 C28 1_555 1_555
H22 C29 1_555 1_555
C30 C27 1_555 1_555
C31 C30 1_555 1_555
H23 C31 1_555 1_555
C32 C31 1_555 1_555
H24 C32 1_555 1_555
C33 C32 1_555 1_555
C34 C33 1_555 1_555
C35 C30 1_555 1_555
H26 C35 1_555 1_555
C36 C34 1_555 1_555
Cd4 N11 1_555 1_555
N11 C25 1_555 1_555
C29 N11 1_555 1_555
C34 C35 1_555 1_555
C36 N7 1_555 1_555
C13 C14 1_555 1_555
H11 C17 1_555 1_555
C18 C17 1_555 1_555
C19 C14 1_555 1_555
H12 C19 1_555 1_555
C20 C18 1_555 1_555
C21 C20 1_555 1_555
H13 C21 1_555 1_555
C22 C21 1_555 1_555
H14 C22 1_555 1_555
C23 H15 1_555 1_555
C24 C20 1_555 1_555
H16 C24 1_555 1_555
N2 C13 1_555 1_555
N4 N3 1_555 1_555
H17 N4 1_555 1_555
H18 N4 1_555 1_555
N6 C22 1_555 1_555
C37 C38 1_555 1_555
C43 C38 1_555 1_555
H30 C43 1_555 1_555
C44 C42 1_555 1_555
C47 H33 1_555 1_555
C48 C44 1_555 1_555
H34 C48 1_555 1_555
Cd3 N6 1_555 1_555
Cd4 N14 1_555 1_555
N8 C37 1_555 1_555
N10 N9 1_555 1_555
H35 N10 1_555 1_555
H36 N10 1_555 1_555
C13 N3 1_555 1_555
C18 C19 1_555 1_555
C23 C24 1_555 1_555
C23 N6 1_555 1_555
C37 N9 1_555 1_555
C42 C43 1_555 1_555
C47 C48 1_555 1_555
C47 N14 1_555 1_555
H29 C41 1_555 1_555
H31 C45 1_555 1_555
C46 C45 1_555 1_555
H32 C46 1_555 1_555
N12 Cd1 1_555 1_555
N13 Cd1 1_555 1_555
C1 H1 1_555 1_555
C2 C1 1_555 1_555
H2 C2 1_555 1_555
C3 C2 1_555 1_555
C4 C3 1_555 1_555
H3 C4 1_555 1_555
C5 C4 1_555 1_555
H4 C5 1_555 1_555
C6 C3 1_555 1_555
C7 C6 1_555 1_555
H5 C7 1_555 1_555
C8 C7 1_555 1_555
H6 C8 1_555 1_555
C9 C8 1_555 1_555
C10 C9 1_555 1_555
C11 C6 1_555 1_555
H8 C11 1_555 1_555
C12 C10 1_555 1_555
N1 C12 1_555 1_555
N5 C1 1_555 1_555
C39 H27 1_555 1_555
Cd3 N5 1_555 1_555
C5 N5 1_555 1_555
C10 C11 1_555 1_555
C1_2 H1_2 1_555 1_555
C2_2 C1_2 1_555 1_555
H2_2 C2_2 1_555 1_555
C3_2 C2_2 1_555 1_555
C4_2 C3_2 1_555 1_555
H3_2 C4_2 1_555 1_555
C5_2 C4_2 1_555 1_555
H4_2 C5_2 1_555 1_555
C6_2 C3_2 1_555 1_555
C7_2 C6_2 1_555 1_555
H5_2 C7_2 1_555 1_555
C8_2 C7_2 1_555 1_555
H6_2 C8_2 1_555 1_555
C9_2 C8_2 1_555 1_555
C10_2 C9_2 1_555 1_555
C11_2 C6_2 1_555 1_555
H8_2 C11_2 1_555 1_555
C12_2 C10_2 1_555 1_555
N1_2 C12_2 1_555 1_555
N5_2 C1_2 1_555 1_555
C39_2 H27_2 1_555 1_555
C40 C39_2 1_555 1_555
H28 C40 1_555 1_555
Cd4_2 N5_2 1_555 1_555
C5_2 N5_2 1_555 1_555
C10_2 C11_2 1_555 1_555
N12_2 Cd1_2 1_555 1_555
N13_2 Cd1_2 1_555 1_555
H11_2 C17_2 1_555 1_555
H13_2 C21_2 1_555 1_555
C22_2 C21_2 1_555 1_555
H14_2 C22_2 1_555 1_555
C13_2 C14_2 1_555 1_555
C19_2 C14_2 1_555 1_555
H12_2 C19_2 1_555 1_555
C20_2 C18_2 1_555 1_555
C23_2 H15_2 1_555 1_555
C24_2 C20_2 1_555 1_555
H16_2 C24_2 1_555 1_555
N2_2 C13_2 1_555 1_555
N4_2 N3_2 1_555 1_555
H17_2 N4_2 1_555 1_555
H18_2 N4_2 1_555 1_555
C37_2 C38_2 1_555 1_555
H29_2 C41_2 1_555 1_555
C42_2 C41_2 1_555 1_555
C43_2 C38_2 1_555 1_555
H30_2 C43_2 1_555 1_555
C44_2 C42_2 1_555 1_555
C45_2 C44_2 1_555 1_555
H31_2 C45_2 1_555 1_555
C46_2 C45_2 1_555 1_555
H32_2 C46_2 1_555 1_555
C47_2 H33_2 1_555 1_555
C48_2 C44_2 1_555 1_555
H34_2 C48_2 1_555 1_555
Cd4_2 N6_2 1_555 1_555
Cd3 N14_2 1_555 1_555
N8_2 C37_2 1_555 1_555
N10_2 N9_2 1_555 1_555
H35_2 N10_2 1_555 1_555
H36_2 N10_2 1_555 1_555
N14_2 C46_2 1_555 1_555
C13_2 N3_2 1_555 1_555
C18_2 C19_2 1_555 1_555
C23_2 C24_2 1_555 1_555
C23_2 N6_2 1_555 1_555
C37_2 N9_2 1_555 1_555
C42_2 C43_2 1_555 1_555
C47_2 C48_2 1_555 1_555
C47_2 N14_2 1_555 1_555
C15_2 H9_2 1_555 1_555
C25_2 H19_2 1_555 1_555
C26_2 C25_2 1_555 1_555
H20_2 C26_2 1_555 1_555
C27_2 C26_2 1_555 1_555
C28_2 C27_2 1_555 1_555
H21_2 C28_2 1_555 1_555
C29_2 C28_2 1_555 1_555
H22_2 C29_2 1_555 1_555
C30_2 C27_2 1_555 1_555
C31_2 C30_2 1_555 1_555
H23_2 C31_2 1_555 1_555
C32_2 C31_2 1_555 1_555
H24_2 C32_2 1_555 1_555
C33_2 C32_2 1_555 1_555
C34_2 C33_2 1_555 1_555
C35_2 C30_2 1_555 1_555
H26_2 C35_2 1_555 1_555
C36_2 C34_2 1_555 1_555
Cd3 N11_2 1_555 1_555
N11_2 C25_2 1_555 1_555
C29_2 N11_2 1_555 1_555
C34_2 C35_2 1_555 1_555
C36_2 N7_2 1_555 1_555
C1_3 H1_3 1_555 1_555
C2_3 C1_3 1_555 1_555
H2_3 C2_3 1_555 1_555
C3_3 C2_3 1_555 1_555
C4_3 C3_3 1_555 1_555
H3_3 C4_3 1_555 1_555
C5_3 C4_3 1_555 1_555
H4_3 C5_3 1_555 1_555
C6_3 C3_3 1_555 1_555
C11_3 C6_3 1_555 1_555
H8_3 C11_3 1_555 1_555
C12_3 C10_3 1_555 1_555
C13_3 C14_3 1_555 1_555
C14_3 C15_3 1_555 1_555
C15_3 H9_3 1_555 1_555
C16_2 C15_3 1_555 1_555
H10_2 C16_2 1_555 1_555
C17_3 C16_2 1_555 1_555
H11_3 C17_3 1_555 1_555
C18_3 C17_3 1_555 1_555
C19_3 C14_3 1_555 1_555
H12_3 C19_3 1_555 1_555
C20_3 C18_3 1_555 1_555
C21_3 C20_3 1_555 1_555
H13_3 C21_3 1_555 1_555
C22_3 C21_3 1_555 1_555
H14_3 C22_3 1_555 1_555
C23_3 H15_3 1_555 1_555
C24_3 C20_3 1_555 1_555
H16_3 C24_3 1_555 1_555
Cd4 N1_3 1_555 1_555
N1_3 C12_3 1_555 1_555
N2_3 C13_3 1_555 1_555
N3_3 C12_3 1_555 1_555
N4_3 N3_3 1_555 1_555
H17_3 N4_3 1_555 1_555
H18_3 N4_3 1_555 1_555
N12 C1_3 1_555 1_555
N15 C22_3 1_555 1_555
H23_3 C31_3 1_555 1_555
C32_3 C31_3 1_555 1_555
H24_3 C32_3 1_555 1_555
C33_3 C32_3 1_555 1_555
H25_3 C33_3 1_555 1_555
C5_3 N12 1_555 1_555
C10_3 C11_3 1_555 1_555
C13_3 N3_3 1_555 1_555
C18_3 C19_3 1_555 1_555
C23_3 C24_3 1_555 1_555
C23_3 N15 1_555 1_555
N1_3 N2_3 1_555 1_555
H5_3 C7_3 1_555 1_555
C8_3 C7_3 1_555 1_555
H6_3 C8_3 1_555 1_555
C9_3 C8_3 1_555 1_555
H7_3 C9_3 1_555 1_555
C25_3 H19_3 1_555 1_555
C26_3 C25_3 1_555 1_555
H20_3 C26_3 1_555 1_555
C27_3 C26_3 1_555 1_555
C28_3 C27_3 1_555 1_555
H21_3 C28_3 1_555 1_555
C29_3 C28_3 1_555 1_555
H22_3 C29_3 1_555 1_555
C30_3 C27_3 1_555 1_555
C35_3 C30_3 1_555 1_555
H26_3 C35_3 1_555 1_555
C36_3 C34_3 1_555 1_555
C37_3 C38_3 1_555 1_555
C38_3 C39_3 1_555 1_555
C39_3 H27_3 1_555 1_555
C40_2 C39_3 1_555 1_555
H28_2 C40_2 1_555 1_555
C41_3 C40_2 1_555 1_555
H29_3 C41_3 1_555 1_555
C42_3 C41_3 1_555 1_555
C43_3 C38_3 1_555 1_555
H30_3 C43_3 1_555 1_555
C44_3 C42_3 1_555 1_555
C45_3 C44_3 1_555 1_555
H31_3 C45_3 1_555 1_555
C46_3 C45_3 1_555 1_555
H32_3 C46_3 1_555 1_555
C47_3 H33_3 1_555 1_555
C48_3 C44_3 1_555 1_555
H34_3 C48_3 1_555 1_555
N7_3 Cd4_2 1_555 1_555
N8_3 C37_3 1_555 1_555
N9_3 C36_3 1_555 1_555
N10_3 N9_3 1_555 1_555
H35_3 N10_3 1_555 1_555
H36_3 N10_3 1_555 1_555
N13_2 C25_3 1_555 1_555
N16_2 C46_3 1_555 1_555
C29_3 N13_2 1_555 1_555
C34_3 C35_3 1_555 1_555
C36_3 N7_3 1_555 1_555
C37_3 N9_3 1_555 1_555
C42_3 C43_3 1_555 1_555
C47_3 C48_3 1_555 1_555
C47_3 N16_2 1_555 1_555
N7_3 N8_3 1_555 1_555
C1_4 H1_4 1_555 1_555
C2_4 C1_4 1_555 1_555
H2_4 C2_4 1_555 1_555
C3_4 C2_4 1_555 1_555
C4_4 C3_4 1_555 1_555
H3_4 C4_4 1_555 1_555
C5_4 C4_4 1_555 1_555
H4_4 C5_4 1_555 1_555
C6_4 C3_4 1_555 1_555
C7_4 C6_4 1_555 1_555
H5_4 C7_4 1_555 1_555
C8_4 C7_4 1_555 1_555
H6_4 C8_4 1_555 1_555
C9_4 C8_4 1_555 1_555
H7_4 C9_4 1_555 1_555
C10_4 C9_4 1_555 1_555
C11_4 C6_4 1_555 1_555
H8_4 C11_4 1_555 1_555
C12_4 C10_4 1_555 1_555
C13_4 C14_4 1_555 1_555
C14_4 C15_4 1_555 1_555
C15_4 H9_4 1_555 1_555
C16_3 C15_4 1_555 1_555
H10_3 C16_3 1_555 1_555
C17_4 C16_3 1_555 1_555
H11_4 C17_4 1_555 1_555
C18_4 C17_4 1_555 1_555
C19_4 C14_4 1_555 1_555
H12_4 C19_4 1_555 1_555
C20_4 C18_4 1_555 1_555
C21_4 C20_4 1_555 1_555
H13_4 C21_4 1_555 1_555
C22_4 C21_4 1_555 1_555
H14_4 C22_4 1_555 1_555
C23_4 H15_4 1_555 1_555
C24_4 C20_4 1_555 1_555
H16_4 C24_4 1_555 1_555
Cd3 N1_4 1_555 1_555
N1_4 C12_4 1_555 1_555
N2_4 C13_4 1_555 1_555
N3_4 C12_4 1_555 1_555
N4_4 N3_4 1_555 1_555
H17_4 N4_4 1_555 1_555
H18_4 N4_4 1_555 1_555
N12_2 C1_4 1_555 1_555
N15_2 C22_4 1_555 1_555
C25_4 H19_4 1_555 1_555
C26_4 C25_4 1_555 1_555
H20_4 C26_4 1_555 1_555
C27_4 C26_4 1_555 1_555
C28_4 C27_4 1_555 1_555
H21_4 C28_4 1_555 1_555
C29_4 C28_4 1_555 1_555
H22_4 C29_4 1_555 1_555
C30_4 C27_4 1_555 1_555
C31_4 C30_4 1_555 1_555
H23_4 C31_4 1_555 1_555
C32_4 C31_4 1_555 1_555
H24_4 C32_4 1_555 1_555
C33_4 C32_4 1_555 1_555
H25_4 C33_4 1_555 1_555
C34_4 C33_4 1_555 1_555
C35_4 C30_4 1_555 1_555
H26_4 C35_4 1_555 1_555
C36_4 C34_4 1_555 1_555
C37_4 C38_4 1_555 1_555
C38_4 C39_4 1_555 1_555
C39_4 H27_4 1_555 1_555
C40_3 C39_4 1_555 1_555
H28_3 C40_3 1_555 1_555
C41_4 C40_3 1_555 1_555
H29_4 C41_4 1_555 1_555
C42_4 C41_4 1_555 1_555
C43_4 C38_4 1_555 1_555
H30_4 C43_4 1_555 1_555
C44_4 C42_4 1_555 1_555
C45_4 C44_4 1_555 1_555
H31_4 C45_4 1_555 1_555
C46_4 C45_4 1_555 1_555
H32_4 C46_4 1_555 1_555
C47_4 H33_4 1_555 1_555
C48_4 C44_4 1_555 1_555
H34_4 C48_4 1_555 1_555
N7_4 Cd3 1_555 1_555
N8_4 C37_4 1_555 1_555
N9_4 C36_4 1_555 1_555
N10_4 N9_4 1_555 1_555
H35_4 N10_4 1_555 1_555
H36_4 N10_4 1_555 1_555
N13 C25_4 1_555 1_555
N16 C46_4 1_555 1_555
C5_4 N12_2 1_555 1_555
C10_4 C11_4 1_555 1_555
C13_4 N3_4 1_555 1_555
C18_4 C19_4 1_555 1_555
C23_4 C24_4 1_555 1_555
C23_4 N15_2 1_555 1_555
N1_4 N2_4 1_555 1_555
C29_4 N13 1_555 1_555
C34_4 C35_4 1_555 1_555
C36_4 N7_4 1_555 1_555
C37_4 N9_4 1_555 1_555
C42_4 C43_4 1_555 1_555
C47_4 C48_4 1_555 1_555
C47_4 N16 1_555 1_555
N7_4 N8_4 1_555 1_555
H28_4 C40_4 1_555 1_555
H10_4 C16_4 1_555 1_555

#END
