
###############################################################################
#
# This file contains modified crystal structure data generated from the
# MOF subset of the Cambridge Structural Database (CSD) v543 
# hosted by the Cambridge Crystallographic Data Centre (CCDC).
#
# This work is licensed under the Creative Commons
# Attribution-NonCommercial-ShareAlike 4.0 International License.
# To view a copy of this license, visit
# http://creativecommons.org/licenses/by-nc-sa/4.0/
# or send a letter to
# Creative Commons, PO Box 1866, Mountain View, CA 94042, USA.
#
# CIF created using the CSD Python API on 29 September 2022
# The structure has been converted into the P1 space group
# The structure has a 3D framework
# The original CSD entry ITIXAM is in the monoclinic crystal system
# The framework has been calculated to contain at least 10.0% void space
# The void calculation uses a probe of radius 1.32A, grid spacing 0.4
#
###############################################################################

data_ITIXAM
_chemical_formula_moiety         '(C240 H176 Mn11 N8 O80)n'
_symmetry_cell_setting           triclinic
_symmetry_space_group_name_H-M   'P 1'
_symmetry_Int_Tables_number      1
_space_group_name_Hall           'P 1'
loop_
_symmetry_equiv_pos_site_id
_symmetry_equiv_pos_as_xyz
1 x,y,z
_cell_length_a                   18.4202(11)
_cell_length_b                   9.5510(7)
_cell_length_c                   33.879(2)
_cell_angle_alpha                90
_cell_angle_beta                 92.718(5)
_cell_angle_gamma                90
_cell_volume                     5953.67
loop_
_atom_site_label
_atom_site_type_symbol
_atom_site_fract_x
_atom_site_fract_y
_atom_site_fract_z
Mn8 Mn 0.02013(7) 0.14725(14) 0.47173(4)
H5 H 0.0074 0.9952 0.3930
O3 O 0.0101(4) 0.9251(6) 0.46540(17)
Mn6 Mn 0.0000 0.5000 0.5000
Mn1 Mn 0.5000 0.0000 0.0000
H1 H 0.7172 0.0162 0.0523
C4 C 0.7698(5) 0.0078(10) 0.1053(3)
H2 H 0.8054 0.0731 0.1000
C19 C 0.6662(5) 0.0156(11) 0.3170(3)
C20 C 0.6407(5) 0.1059(11) 0.3450(3)
H11 H 0.6463 0.2021 0.3420
C21 C 0.6069(5) 0.0539(10) 0.3775(3)
H12 H 0.5899 0.1150 0.3963
C26 C 0.7557(5) 0.0062(11) 0.2681(3)
C27 C 0.7586(5) 0.0243(11) 0.2277(2)
H15 H 0.7236 0.0767 0.2136
O9 O 0.6994(4) 0.0753(8) 0.2853(2)
H23 H 0.2828 0.0162 0.4477
C34 C 0.2302(5) 0.0078(10) 0.3947(3)
H24 H 0.1946 0.0731 0.4000
C49 C 0.3338(5) 0.0156(11) 0.1830(3)
C50 C 0.3593(5) 0.1059(11) 0.1550(3)
H33 H 0.3537 0.2021 0.1580
C51 C 0.3931(5) 0.0539(10) 0.1225(3)
H34 H 0.4101 0.1150 0.1037
C56 C 0.2443(5) 0.0062(11) 0.2319(3)
C57 C 0.2414(5) 0.0243(11) 0.2723(2)
H37 H 0.2764 0.0767 0.2864
O19 O 0.3006(4) 0.0753(8) 0.2147(2)
Mn4 Mn 0.5000 0.0000 0.5000
O26 O 0.5247(4) 0.2081(6) 0.02742(16)
Mn1_2 Mn 0.5000 0.0000 1.0000
O21 O 0.4015(3) 0.0811(8) 0.97559(19)
O29 O 0.5516(4) 0.0687(8) 0.94610(18)
Mn1_3 Mn 0.5000 1.0000 0.0000
Mn2 Mn 0.47987(7) 0.64725(14) 0.02827(4)
C1 C 0.6107(5) 0.8315(10) 0.0509(3)
C2 C 0.6660(5) 0.8710(10) 0.0833(2)
C3 C 0.7176(5) 0.9716(10) 0.0767(3)
C5 C 0.7682(5) 0.9456(10) 0.1418(2)
C6 C 0.7160(5) 0.8460(10) 0.1495(2)
H3 H 0.7151 0.8050 0.1743
C7 C 0.6658(5) 0.8078(10) 0.1201(3)
H4 H 0.6315 0.7392 0.1250
C8 C 0.9871(4) 0.8108(8) 0.4499(2)
C9 C 0.9688(5) 0.8051(9) 0.4078(2)
C10 C 0.9839(7) 0.9163(11) 0.3826(3)
C11 C 0.9652(7) 0.9124(12) 0.3433(3)
H6 H 0.9760 0.9869 0.3269
C12 C 0.9294(6) 0.7937(12) 0.3281(3)
C13 C 0.9151(6) 0.6828(12) 0.3517(3)
H7 H 0.8924 0.6035 0.3411
C14 C 0.9341(5) 0.6881(10) 0.3910(3)
H8 H 0.9237 0.6122 0.4070
C15 C 0.5690(5) 0.8519(11) 0.4188(2)
C16 C 0.5983(4) 0.9113(10) 0.3820(2)
C17 C 0.6206(5) 0.8216(11) 0.3529(3)
H9 H 0.6133 0.7258 0.3555
C18 C 0.6540(6) 0.8733(12) 0.3198(3)
H10 H 0.6678 0.8131 0.2999
C22 C 0.8153(5) 0.9615(10) 0.2089(2)
C23 C 0.8689(5) 0.8869(10) 0.2292(2)
H13 H 0.9072 0.8470 0.2163
C24 C 0.8639(5) 0.8732(10) 0.2691(3)
C25 C 0.8078(5) 0.9319(11) 0.2892(3)
H14 H 0.8056 0.9210 0.3164
H16 H 0.3433 0.4272 0.0052
O1 O 0.5985(3) 0.9189(8) 0.02441(19)
O2 O 0.5820(4) 0.7109(7) 0.05311(19)
O4 O 0.9753(4) 0.7081(6) 0.47258(16)
O5 O 0.5650(5) 0.7212(8) 0.4212(2)
O6 O 0.5516(4) 0.9313(8) 0.44610(18)
O7 O 0.8241(3) 0.9825(8) 0.16857(17)
O8 O 0.9155(5) 0.7837(9) 0.28772(19)
O10 O 0.3691(5) 0.6138(10) 0.0057(3)
Mn3 Mn 0.52013(7) 0.64725(14) 0.47173(4)
C31 C 0.3893(5) 0.8315(10) 0.4491(3)
C32 C 0.3340(5) 0.8710(10) 0.4167(2)
C33 C 0.2824(5) 0.9716(10) 0.4233(3)
C35 C 0.2318(5) 0.9456(10) 0.3582(2)
C36 C 0.2840(5) 0.8460(10) 0.3505(2)
H25 H 0.2849 0.8050 0.3257
C37 C 0.3342(5) 0.8078(10) 0.3799(3)
H26 H 0.3685 0.7392 0.3750
C38 C 0.0129(4) 0.8108(8) 0.0501(2)
C39 C 0.0312(5) 0.8051(9) 0.0922(2)
C40 C 0.0161(7) 0.9163(11) 0.1174(3)
C41 C 0.0348(7) 0.9124(12) 0.1567(3)
H28 H 0.0240 0.9869 0.1731
C42 C 0.0706(6) 0.7937(12) 0.1719(3)
C43 C 0.0849(6) 0.6828(12) 0.1483(3)
H29 H 0.1076 0.6035 0.1589
C44 C 0.0659(5) 0.6881(10) 0.1090(3)
H30 H 0.0763 0.6122 0.0930
C45 C 0.4310(5) 0.8519(11) 0.0812(2)
C46 C 0.4017(4) 0.9113(10) 0.1180(2)
C47 C 0.3794(5) 0.8216(11) 0.1471(3)
H31 H 0.3867 0.7258 0.1445
C48 C 0.3460(6) 0.8733(12) 0.1802(3)
H32 H 0.3322 0.8131 0.2001
C52 C 0.1847(5) 0.9615(10) 0.2911(2)
C53 C 0.1311(5) 0.8869(10) 0.2708(2)
H35 H 0.0928 0.8470 0.2837
C54 C 0.1361(5) 0.8732(10) 0.2309(3)
C55 C 0.1922(5) 0.9319(11) 0.2108(3)
H36 H 0.1944 0.9210 0.1836
C58 C 0.6681(6) 0.5148(14) 0.5054(3)
H38 H 0.6567 0.4272 0.4948
C59 C 0.7381(11) 0.647(2) 0.5538(6)
H39 H 0.7725 0.7041 0.5406
H40 H 0.7577 0.6225 0.5796
H41 H 0.6938 0.6989 0.5562
C60 C 0.7688(7) 0.4016(15) 0.5433(4)
H42 H 0.7601 0.3773 0.5701
H43 H 0.8192 0.4249 0.5411
H44 H 0.7567 0.3236 0.5263
N2 N 0.7236(5) 0.5231(11) 0.5313(3)
O11 O 0.4015(3) 0.9189(8) 0.47559(19)
O12 O 0.4180(4) 0.7109(7) 0.44689(19)
O14 O 0.0247(4) 0.7081(6) 0.02742(16)
O15 O 0.4350(5) 0.7212(8) 0.0788(2)
O16 O 0.4484(4) 0.9313(8) 0.05390(18)
O17 O 0.1759(3) 0.9825(8) 0.33143(17)
O18 O 0.0845(5) 0.7837(9) 0.21228(19)
O20 O 0.6309(5) 0.6138(10) 0.4943(3)
Mn4_2 Mn 0.5000 1.0000 0.5000
Mn5 Mn 0.0000 0.5000 0.0000
Mn6_2 Mn 1.0000 0.5000 0.5000
Mn10 Mn 0.97987(7) 0.85275(14) 0.52827(4)
O22 O 0.5101(4) 0.4251(6) 0.46540(17)
O23 O 0.4899(4) 0.4251(6) 0.03460(17)
O24 O 0.4899(4) 0.5749(6) 0.53460(17)
O27 O 0.5247(4) 0.7919(6) 0.52742(16)
Mn1_4 Mn 0.5000 1.0000 1.0000
C28 C 0.3319(6) 0.5148(14) 0.9946(3)
C29 C 0.2619(11) 0.647(2) 0.9462(6)
H17 H 0.2275 0.7041 0.9594
H18 H 0.2423 0.6225 0.9204
H19 H 0.3062 0.6989 0.9438
C30 C 0.2312(7) 0.4016(15) 0.9567(4)
H20 H 0.2399 0.3773 0.9299
H21 H 0.1808 0.4249 0.9589
H22 H 0.2433 0.3236 0.9737
N1 N 0.2764(5) 0.5231(11) 0.9687(3)
Mn5_2 Mn 0.0000 0.5000 1.0000
Mn9 Mn 0.02013(7) 0.85275(14) 0.97173(4)
O25 O 0.5101(4) 0.5749(6) 0.96540(17)
O28 O 0.4753(4) 0.7919(6) 0.97258(16)
Mn7 Mn 0.97987(7) 0.14725(14) 0.02827(4)
H27 H 0.9926 0.9952 0.1070
O13 O 0.9899(4) 0.9251(6) 0.03460(17)
Mn5_3 Mn 1.0000 0.5000 0.0000
Mn5_4 Mn 1.0000 0.5000 1.0000
O21_2 O 0.5985(3) 0.0811(8) 0.52441(19)
O26_2 O 0.4753(4) 0.2081(6) 0.47258(16)
O29_2 O 0.4484(4) 0.0687(8) 0.55390(18)
C1_2 C 0.1107(5) 0.3315(10) 0.0509(3)
C2_2 C 0.1660(5) 0.3710(10) 0.0833(2)
C3_2 C 0.2176(5) 0.4716(10) 0.0767(3)
H1_2 H 0.2172 0.5162 0.0523
C4_2 C 0.2698(5) 0.5078(10) 0.1053(3)
H2_2 H 0.3054 0.5731 0.1000
C5_2 C 0.2682(5) 0.4456(10) 0.1418(2)
C6_2 C 0.2160(5) 0.3460(10) 0.1495(2)
H3_2 H 0.2151 0.3050 0.1743
C7_2 C 0.1658(5) 0.3078(10) 0.1201(3)
H4_2 H 0.1315 0.2392 0.1250
C8_2 C 0.4871(4) 0.3108(8) 0.4499(2)
C9_2 C 0.4688(5) 0.3051(9) 0.4078(2)
C10_2 C 0.4839(7) 0.4163(11) 0.3826(3)
H5_2 H 0.5074 0.4952 0.3930
C11_2 C 0.4652(7) 0.4124(12) 0.3433(3)
H6_2 H 0.4760 0.4869 0.3269
C12_2 C 0.4294(6) 0.2937(12) 0.3281(3)
C13_2 C 0.4151(6) 0.1828(12) 0.3517(3)
H7_2 H 0.3924 0.1035 0.3411
C14_2 C 0.4341(5) 0.1881(10) 0.3910(3)
H8_2 H 0.4237 0.1122 0.4070
C15_2 C 0.0690(5) 0.3519(11) 0.4188(2)
C16_2 C 0.0983(4) 0.4113(10) 0.3820(2)
C17_2 C 0.1206(5) 0.3216(11) 0.3529(3)
H9_2 H 0.1133 0.2258 0.3555
C18_2 C 0.1540(6) 0.3733(12) 0.3198(3)
H10_2 H 0.1678 0.3131 0.2999
C19_2 C 0.1662(5) 0.5156(11) 0.3170(3)
C20_2 C 0.1407(5) 0.6059(11) 0.3450(3)
H11_2 H 0.1463 0.7021 0.3420
C21_2 C 0.1069(5) 0.5539(10) 0.3775(3)
H12_2 H 0.0899 0.6150 0.3963
C22_2 C 0.3153(5) 0.4615(10) 0.2089(2)
C23_2 C 0.3689(5) 0.3869(10) 0.2292(2)
H13_2 H 0.4072 0.3470 0.2163
C24_2 C 0.3639(5) 0.3732(10) 0.2691(3)
C25_2 C 0.3078(5) 0.4319(11) 0.2892(3)
H14_2 H 0.3056 0.4210 0.3164
C26_2 C 0.2557(5) 0.5062(11) 0.2681(3)
C27_2 C 0.2586(5) 0.5243(11) 0.2277(2)
H15_2 H 0.2236 0.5767 0.2136
O1_2 O 0.0985(3) 0.4189(8) 0.02441(19)
O2_2 O 0.0820(4) 0.2109(7) 0.05311(19)
O5_2 O 0.0650(5) 0.2212(8) 0.4212(2)
O6_2 O 0.0516(4) 0.4313(8) 0.44610(18)
O7_2 O 0.3241(3) 0.4825(8) 0.16857(17)
O8_2 O 0.4155(5) 0.2837(9) 0.28772(19)
O9_2 O 0.1994(4) 0.5753(8) 0.2853(2)
C58_2 C 0.1681(6) 0.0148(14) 0.5054(3)
C59_2 C 0.2381(11) 0.147(2) 0.5538(6)
H39_2 H 0.2725 0.2041 0.5406
H40_2 H 0.2577 0.1225 0.5796
H41_2 H 0.1938 0.1989 0.5562
N2_2 N 0.2236(5) 0.0231(11) 0.5313(3)
O20_2 O 0.1309(5) 0.1138(10) 0.4943(3)
Mn10_2 Mn 0.47987(7) 0.35275(14) 0.52827(4)
O27_2 O 0.0247(4) 0.2919(6) 0.52742(16)
O25_2 O 0.0101(4) 0.0749(6) 0.96540(17)
O29_3 O 0.0516(4) 0.5687(8) 0.94610(18)
H38_2 H 0.1567 0.9272 0.4948
C60_2 C 0.2688(7) 0.9016(15) 0.5433(4)
H42_2 H 0.2601 0.8773 0.5701
H43_2 H 0.3192 0.9249 0.5411
H44_2 H 0.2567 0.8236 0.5263
O10_2 O 0.8691(5) 0.1138(10) 0.0057(3)
C31_2 C 0.8893(5) 0.3315(10) 0.4491(3)
C32_2 C 0.8340(5) 0.3710(10) 0.4167(2)
C33_2 C 0.7824(5) 0.4716(10) 0.4233(3)
H23_2 H 0.7828 0.5162 0.4477
C34_2 C 0.7302(5) 0.5078(10) 0.3947(3)
H24_2 H 0.6946 0.5731 0.4000
C35_2 C 0.7318(5) 0.4456(10) 0.3582(2)
C36_2 C 0.7840(5) 0.3460(10) 0.3505(2)
H25_2 H 0.7849 0.3050 0.3257
C37_2 C 0.8342(5) 0.3078(10) 0.3799(3)
H26_2 H 0.8685 0.2392 0.3750
C38_2 C 0.5129(4) 0.3108(8) 0.0501(2)
C39_2 C 0.5312(5) 0.3051(9) 0.0922(2)
C40_2 C 0.5161(7) 0.4163(11) 0.1174(3)
H27_2 H 0.4926 0.4952 0.1070
C41_2 C 0.5348(7) 0.4124(12) 0.1567(3)
H28_2 H 0.5240 0.4869 0.1731
C42_2 C 0.5706(6) 0.2937(12) 0.1719(3)
C43_2 C 0.5849(6) 0.1828(12) 0.1483(3)
H29_2 H 0.6076 0.1035 0.1589
C44_2 C 0.5659(5) 0.1881(10) 0.1090(3)
H30_2 H 0.5763 0.1122 0.0930
C45_2 C 0.9310(5) 0.3519(11) 0.0812(2)
C46_2 C 0.9017(4) 0.4113(10) 0.1180(2)
C47_2 C 0.8794(5) 0.3216(11) 0.1471(3)
H31_2 H 0.8867 0.2258 0.1445
C48_2 C 0.8460(6) 0.3733(12) 0.1802(3)
H32_2 H 0.8322 0.3131 0.2001
C49_2 C 0.8338(5) 0.5156(11) 0.1830(3)
C50_2 C 0.8593(5) 0.6059(11) 0.1550(3)
H33_2 H 0.8537 0.7021 0.1580
C51_2 C 0.8931(5) 0.5539(10) 0.1225(3)
H34_2 H 0.9101 0.6150 0.1037
C52_2 C 0.6847(5) 0.4615(10) 0.2911(2)
C53_2 C 0.6311(5) 0.3869(10) 0.2708(2)
H35_2 H 0.5928 0.3470 0.2837
C54_2 C 0.6361(5) 0.3732(10) 0.2309(3)
C55_2 C 0.6922(5) 0.4319(11) 0.2108(3)
H36_2 H 0.6944 0.4210 0.1836
C56_2 C 0.7443(5) 0.5062(11) 0.2319(3)
C57_2 C 0.7414(5) 0.5243(11) 0.2723(2)
H37_2 H 0.7764 0.5767 0.2864
O11_2 O 0.9015(3) 0.4189(8) 0.47559(19)
O12_2 O 0.9180(4) 0.2109(7) 0.44689(19)
O15_2 O 0.9350(5) 0.2212(8) 0.0788(2)
O16_2 O 0.9484(4) 0.4313(8) 0.05390(18)
O17_2 O 0.6759(3) 0.4825(8) 0.33143(17)
O18_2 O 0.5845(5) 0.2837(9) 0.21228(19)
O19_2 O 0.8006(4) 0.5753(8) 0.2147(2)
O24_2 O 0.9899(4) 0.0749(6) 0.53460(17)
C28_2 C 0.8319(6) 0.0148(14) 0.9946(3)
C29_2 C 0.7619(11) 0.147(2) 0.9462(6)
H17_2 H 0.7275 0.2041 0.9594
H18_2 H 0.7423 0.1225 0.9204
H19_2 H 0.8062 0.1989 0.9438
N1_2 N 0.7764(5) 0.0231(11) 0.9687(3)
Mn9_2 Mn 0.52013(7) 0.35275(14) 0.97173(4)
O21_3 O 0.9015(3) 0.5811(8) 0.97559(19)
O28_2 O 0.9753(4) 0.2919(6) 0.97258(16)
H16_2 H 0.8433 0.9272 0.0052
C30_2 C 0.7312(7) 0.9016(15) 0.9567(4)
H20_2 H 0.7399 0.8773 0.9299
H21_2 H 0.6808 0.9249 0.9589
H22_2 H 0.7433 0.8236 0.9737
O21_4 O 0.0985(3) 0.5811(8) 0.52441(19)
O29_4 O 0.9484(4) 0.5687(8) 0.55390(18)
H27_3 H 0.0074 0.0048 0.8930
C28_3 C 0.6681(6) 0.4852(14) 0.0054(3)
C29_3 C 0.7381(11) 0.353(2) 0.0538(6)
H17_3 H 0.7725 0.2959 0.0406
H18_3 H 0.7577 0.3775 0.0796
H19_3 H 0.6938 0.3011 0.0562
C30_3 C 0.7688(7) 0.5984(15) 0.0433(4)
H20_3 H 0.7601 0.6227 0.0701
H21_3 H 0.8192 0.5751 0.0411
H22_3 H 0.7567 0.6764 0.0263
N1_3 N 0.7236(5) 0.4769(11) 0.0313(3)
C1_3 C 0.3893(5) 0.1685(10) 0.9491(3)
C2_3 C 0.3340(5) 0.1290(10) 0.9167(2)
C3_3 C 0.2824(5) 0.0284(10) 0.9233(3)
C5_3 C 0.2318(5) 0.0544(10) 0.8582(2)
C6_3 C 0.2840(5) 0.1540(10) 0.8505(2)
H3_3 H 0.2849 0.1950 0.8257
C7_3 C 0.3342(5) 0.1922(10) 0.8799(3)
H4_3 H 0.3685 0.2608 0.8750
C8_3 C 0.0129(4) 0.1892(8) 0.5501(2)
C9_3 C 0.0312(5) 0.1949(9) 0.5922(2)
C10_3 C 0.0161(7) 0.0837(11) 0.6174(3)
C11_3 C 0.0348(7) 0.0876(12) 0.6567(3)
H6_3 H 0.0240 0.0131 0.6731
C12_3 C 0.0706(6) 0.2063(12) 0.6719(3)
C13_3 C 0.0849(6) 0.3172(12) 0.6483(3)
H7_3 H 0.1076 0.3965 0.6589
C14_3 C 0.0659(5) 0.3119(10) 0.6090(3)
H8_3 H 0.0763 0.3878 0.5930
C15_3 C 0.4310(5) 0.1481(11) 0.5812(2)
C16_3 C 0.4017(4) 0.0887(10) 0.6180(2)
C17_3 C 0.3794(5) 0.1784(11) 0.6471(3)
H9_3 H 0.3867 0.2742 0.6445
C18_3 C 0.3460(6) 0.1267(12) 0.6802(3)
H10_3 H 0.3322 0.1869 0.7001
C22_3 C 0.1847(5) 0.0385(10) 0.7911(2)
C23_3 C 0.1311(5) 0.1131(10) 0.7708(2)
H13_3 H 0.0928 0.1530 0.7837
C24_3 C 0.1361(5) 0.1268(10) 0.7309(3)
C25_3 C 0.1922(5) 0.0681(11) 0.7108(3)
H14_3 H 0.1944 0.0790 0.6836
H16_3 H 0.6567 0.5728 0.9948
O2_3 O 0.4180(4) 0.2891(7) 0.94689(19)
O5_3 O 0.4350(5) 0.2788(8) 0.5788(2)
O7_3 O 0.1759(3) 0.0175(8) 0.83143(17)
O8_3 O 0.0845(5) 0.2163(9) 0.71228(19)
O10_3 O 0.6309(5) 0.3862(10) 0.9943(3)
C31_3 C 0.6107(5) 0.1685(10) 0.5509(3)
C32_3 C 0.6660(5) 0.1290(10) 0.5833(2)
C33_3 C 0.7176(5) 0.0284(10) 0.5767(3)
C35_3 C 0.7682(5) 0.0544(10) 0.6418(2)
C36_3 C 0.7160(5) 0.1540(10) 0.6495(2)
H25_3 H 0.7151 0.1950 0.6743
C37_3 C 0.6658(5) 0.1922(10) 0.6201(3)
H26_3 H 0.6315 0.2608 0.6250
C38_3 C 0.9871(4) 0.1892(8) 0.9499(2)
C39_3 C 0.9688(5) 0.1949(9) 0.9078(2)
C40_3 C 0.9839(7) 0.0837(11) 0.8826(3)
C41_3 C 0.9652(7) 0.0876(12) 0.8433(3)
H28_3 H 0.9760 0.0131 0.8269
C42_3 C 0.9294(6) 0.2063(12) 0.8281(3)
C43_3 C 0.9151(6) 0.3172(12) 0.8517(3)
H29_3 H 0.8924 0.3965 0.8411
C44_3 C 0.9341(5) 0.3119(10) 0.8910(3)
H30_3 H 0.9237 0.3878 0.9070
C45_3 C 0.5690(5) 0.1481(11) 0.9188(2)
C46_3 C 0.5983(4) 0.0887(10) 0.8820(2)
C47_3 C 0.6206(5) 0.1784(11) 0.8529(3)
H31_3 H 0.6133 0.2742 0.8555
C48_3 C 0.6540(6) 0.1267(12) 0.8198(3)
H32_3 H 0.6678 0.1869 0.7999
C52_3 C 0.8153(5) 0.0385(10) 0.7089(2)
C53_3 C 0.8689(5) 0.1131(10) 0.7292(2)
H35_3 H 0.9072 0.1530 0.7163
C54_3 C 0.8639(5) 0.1268(10) 0.7691(3)
C55_3 C 0.8078(5) 0.0681(11) 0.7892(3)
H36_3 H 0.8056 0.0790 0.8164
C58_3 C 0.3319(6) 0.4852(14) 0.4946(3)
H38_3 H 0.3433 0.5728 0.5052
C59_3 C 0.2619(11) 0.353(2) 0.4462(6)
H39_3 H 0.2275 0.2959 0.4594
H40_3 H 0.2423 0.3775 0.4204
H41_3 H 0.3062 0.3011 0.4438
C60_3 C 0.2312(7) 0.5984(15) 0.4567(4)
H42_3 H 0.2399 0.6227 0.4299
H43_3 H 0.1808 0.5751 0.4589
H44_3 H 0.2433 0.6764 0.4737
N2_3 N 0.2764(5) 0.4769(11) 0.4687(3)
O12_3 O 0.5820(4) 0.2891(7) 0.55311(19)
O15_3 O 0.5650(5) 0.2788(8) 0.9212(2)
O17_3 O 0.8241(3) 0.0175(8) 0.66857(17)
O18_3 O 0.9155(5) 0.2163(9) 0.78772(19)
O20_3 O 0.3691(5) 0.3862(10) 0.5057(3)
H1_3 H 0.2828 0.9838 0.9477
C4_3 C 0.2302(5) 0.9922(10) 0.8947(3)
H2_3 H 0.1946 0.9269 0.9000
C19_3 C 0.3338(5) 0.9844(11) 0.6830(3)
C20_3 C 0.3593(5) 0.8941(11) 0.6550(3)
H11_3 H 0.3537 0.7979 0.6580
C21_3 C 0.3931(5) 0.9461(10) 0.6225(3)
H12_3 H 0.4101 0.8850 0.6037
C26_3 C 0.2443(5) 0.9938(11) 0.7319(3)
C27_3 C 0.2414(5) 0.9757(11) 0.7723(2)
H15_3 H 0.2764 0.9233 0.7864
O9_3 O 0.3006(4) 0.9247(8) 0.7147(2)
H23_3 H 0.7172 0.9838 0.5523
C34_3 C 0.7698(5) 0.9922(10) 0.6053(3)
H24_3 H 0.8054 0.9269 0.6000
C49_3 C 0.6662(5) 0.9844(11) 0.8170(3)
C50_3 C 0.6407(5) 0.8941(11) 0.8450(3)
H33_3 H 0.6463 0.7979 0.8420
C51_3 C 0.6069(5) 0.9461(10) 0.8775(3)
H34_3 H 0.5899 0.8850 0.8963
C56_3 C 0.7557(5) 0.9938(11) 0.7681(3)
C57_3 C 0.7586(5) 0.9757(11) 0.7277(2)
H37_3 H 0.7236 0.9233 0.7136
O19_3 O 0.6994(4) 0.9247(8) 0.7853(2)
H5_3 H 0.9926 0.0048 0.6070
C30_4 C 0.2688(7) 0.0984(15) 0.0433(4)
H20_4 H 0.2601 0.1227 0.0701
H21_4 H 0.3192 0.0751 0.0411
H22_4 H 0.2567 0.1764 0.0263
H16_4 H 0.1567 0.0728 0.9948
C28_4 C 0.1681(6) 0.9852(14) 0.0054(3)
C29_4 C 0.2381(11) 0.853(2) 0.0538(6)
H17_4 H 0.2725 0.7959 0.0406
H18_4 H 0.2577 0.8775 0.0796
H19_4 H 0.1938 0.8011 0.0562
N1_4 N 0.2236(5) 0.9769(11) 0.0313(3)
O10_4 O 0.1309(5) 0.8862(10) 0.9943(3)
C31_4 C 0.1107(5) 0.6685(10) 0.5509(3)
C32_4 C 0.1660(5) 0.6290(10) 0.5833(2)
C33_4 C 0.2176(5) 0.5284(10) 0.5767(3)
H23_4 H 0.2172 0.4838 0.5523
C34_4 C 0.2698(5) 0.4922(10) 0.6053(3)
H24_4 H 0.3054 0.4269 0.6000
C35_4 C 0.2682(5) 0.5544(10) 0.6418(2)
C36_4 C 0.2160(5) 0.6540(10) 0.6495(2)
H25_4 H 0.2151 0.6950 0.6743
C37_4 C 0.1658(5) 0.6922(10) 0.6201(3)
H26_4 H 0.1315 0.7608 0.6250
C38_4 C 0.4871(4) 0.6892(8) 0.9499(2)
C39_4 C 0.4688(5) 0.6949(9) 0.9078(2)
C40_4 C 0.4839(7) 0.5837(11) 0.8826(3)
H27_4 H 0.5074 0.5048 0.8930
C41_4 C 0.4652(7) 0.5876(12) 0.8433(3)
H28_4 H 0.4760 0.5131 0.8269
C42_4 C 0.4294(6) 0.7063(12) 0.8281(3)
C43_4 C 0.4151(6) 0.8172(12) 0.8517(3)
H29_4 H 0.3924 0.8965 0.8411
C44_4 C 0.4341(5) 0.8119(10) 0.8910(3)
H30_4 H 0.4237 0.8878 0.9070
C45_4 C 0.0690(5) 0.6481(11) 0.9188(2)
C46_4 C 0.0983(4) 0.5887(10) 0.8820(2)
C47_4 C 0.1206(5) 0.6784(11) 0.8529(3)
H31_4 H 0.1133 0.7742 0.8555
C48_4 C 0.1540(6) 0.6267(12) 0.8198(3)
H32_4 H 0.1678 0.6869 0.7999
C49_4 C 0.1662(5) 0.4844(11) 0.8170(3)
C50_4 C 0.1407(5) 0.3941(11) 0.8450(3)
H33_4 H 0.1463 0.2979 0.8420
C51_4 C 0.1069(5) 0.4461(10) 0.8775(3)
H34_4 H 0.0899 0.3850 0.8963
C52_4 C 0.3153(5) 0.5385(10) 0.7089(2)
C53_4 C 0.3689(5) 0.6131(10) 0.7292(2)
H35_4 H 0.4072 0.6530 0.7163
C54_4 C 0.3639(5) 0.6268(10) 0.7691(3)
C55_4 C 0.3078(5) 0.5681(11) 0.7892(3)
H36_4 H 0.3056 0.5790 0.8164
C56_4 C 0.2557(5) 0.4938(11) 0.7681(3)
C57_4 C 0.2586(5) 0.4757(11) 0.7277(2)
H37_4 H 0.2236 0.4233 0.7136
O12_4 O 0.0820(4) 0.7891(7) 0.55311(19)
O15_4 O 0.0650(5) 0.7788(8) 0.9212(2)
O17_4 O 0.3241(3) 0.5175(8) 0.66857(17)
O18_4 O 0.4155(5) 0.7163(9) 0.78772(19)
O19_4 O 0.1994(4) 0.4247(8) 0.7853(2)
H38_4 H 0.8433 0.0728 0.5052
C60_4 C 0.7312(7) 0.0984(15) 0.4567(4)
H42_4 H 0.7399 0.1227 0.4299
H43_4 H 0.6808 0.0751 0.4589
H44_4 H 0.7433 0.1764 0.4737
C1_4 C 0.8893(5) 0.6685(10) 0.9491(3)
C2_4 C 0.8340(5) 0.6290(10) 0.9167(2)
C3_4 C 0.7824(5) 0.5284(10) 0.9233(3)
H1_4 H 0.7828 0.4838 0.9477
C4_4 C 0.7302(5) 0.4922(10) 0.8947(3)
H2_4 H 0.6946 0.4269 0.9000
C5_4 C 0.7318(5) 0.5544(10) 0.8582(2)
C6_4 C 0.7840(5) 0.6540(10) 0.8505(2)
H3_4 H 0.7849 0.6950 0.8257
C7_4 C 0.8342(5) 0.6922(10) 0.8799(3)
H4_4 H 0.8685 0.7608 0.8750
C8_4 C 0.5129(4) 0.6892(8) 0.5501(2)
C9_4 C 0.5312(5) 0.6949(9) 0.5922(2)
C10_4 C 0.5161(7) 0.5837(11) 0.6174(3)
H5_4 H 0.4926 0.5048 0.6070
C11_4 C 0.5348(7) 0.5876(12) 0.6567(3)
H6_4 H 0.5240 0.5131 0.6731
C12_4 C 0.5706(6) 0.7063(12) 0.6719(3)
C13_4 C 0.5849(6) 0.8172(12) 0.6483(3)
H7_4 H 0.6076 0.8965 0.6589
C14_4 C 0.5659(5) 0.8119(10) 0.6090(3)
H8_4 H 0.5763 0.8878 0.5930
C15_4 C 0.9310(5) 0.6481(11) 0.5812(2)
C16_4 C 0.9017(4) 0.5887(10) 0.6180(2)
C17_4 C 0.8794(5) 0.6784(11) 0.6471(3)
H9_4 H 0.8867 0.7742 0.6445
C18_4 C 0.8460(6) 0.6267(12) 0.6802(3)
H10_4 H 0.8322 0.6869 0.7001
C19_4 C 0.8338(5) 0.4844(11) 0.6830(3)
C20_4 C 0.8593(5) 0.3941(11) 0.6550(3)
H11_4 H 0.8537 0.2979 0.6580
C21_4 C 0.8931(5) 0.4461(10) 0.6225(3)
H12_4 H 0.9101 0.3850 0.6037
C22_4 C 0.6847(5) 0.5385(10) 0.7911(2)
C23_4 C 0.6311(5) 0.6131(10) 0.7708(2)
H13_4 H 0.5928 0.6530 0.7837
C24_4 C 0.6361(5) 0.6268(10) 0.7309(3)
C25_4 C 0.6922(5) 0.5681(11) 0.7108(3)
H14_4 H 0.6944 0.5790 0.6836
C26_4 C 0.7443(5) 0.4938(11) 0.7319(3)
C27_4 C 0.7414(5) 0.4757(11) 0.7723(2)
H15_4 H 0.7764 0.4233 0.7864
O2_4 O 0.9180(4) 0.7891(7) 0.94689(19)
O5_4 O 0.9350(5) 0.7788(8) 0.5788(2)
O7_4 O 0.6759(3) 0.5175(8) 0.83143(17)
O8_4 O 0.5845(5) 0.7163(9) 0.71228(19)
O9_4 O 0.8006(4) 0.4247(8) 0.7147(2)
C58_4 C 0.8319(6) 0.9852(14) 0.4946(3)
C59_4 C 0.7619(11) 0.853(2) 0.4462(6)
H39_4 H 0.7275 0.7959 0.4594
H40_4 H 0.7423 0.8775 0.4204
H41_4 H 0.8062 0.8011 0.4438
N2_4 N 0.7764(5) 0.9769(11) 0.4687(3)
O20_4 O 0.8691(5) 0.8862(10) 0.5057(3)
loop_
_geom_bond_atom_site_label_1
_geom_bond_atom_site_label_2
_geom_bond_site_symmetry_1
_geom_bond_site_symmetry_2
H2 C4 1_555 1_555
C20 C19 1_555 1_555
H11 C20 1_555 1_555
H12 C21 1_555 1_555
H15 C27 1_555 1_555
O9 C19 1_555 1_555
H24 C34 1_555 1_555
C50 C49 1_555 1_555
H33 C50 1_555 1_555
H34 C51 1_555 1_555
H37 C57 1_555 1_555
O19 C49 1_555 1_555
O26 Mn1 1_555 1_555
C20 C21 1_555 1_555
C26 C27 1_555 1_555
C26 O9 1_555 1_555
C50 C51 1_555 1_555
C56 C57 1_555 1_555
C56 O19 1_555 1_555
O21 Mn1_2 1_555 1_555
O29 Mn1_2 1_555 1_555
Mn1_3 O1 1_555 1_555
Mn2 O2 1_555 1_555
C1 C2 1_555 1_555
C2 C3 1_555 1_555
C6 C5 1_555 1_555
H3 C6 1_555 1_555
C7 C2 1_555 1_555
H4 C7 1_555 1_555
C8 C9 1_555 1_555
C9 C10 1_555 1_555
C11 C10 1_555 1_555
H6 C11 1_555 1_555
C12 C11 1_555 1_555
C13 C12 1_555 1_555
H7 C13 1_555 1_555
C14 C9 1_555 1_555
H8 C14 1_555 1_555
C15 C16 1_555 1_555
C16 C17 1_555 1_555
C17 H9 1_555 1_555
C18 C17 1_555 1_555
H10 C18 1_555 1_555
C22 C23 1_555 1_555
C23 H13 1_555 1_555
C24 C23 1_555 1_555
C25 C24 1_555 1_555
H14 C25 1_555 1_555
O1 C1 1_555 1_555
O2 C1 1_555 1_555
O4 C8 1_555 1_555
O5 C15 1_555 1_555
O6 C15 1_555 1_555
O7 C5 1_555 1_555
O8 C12 1_555 1_555
O10 Mn2 1_555 1_555
Mn3 O5 1_555 1_555
C31 C32 1_555 1_555
C32 C33 1_555 1_555
C36 C35 1_555 1_555
H25 C36 1_555 1_555
C37 C32 1_555 1_555
H26 C37 1_555 1_555
C38 C39 1_555 1_555
C39 C40 1_555 1_555
C41 C40 1_555 1_555
H28 C41 1_555 1_555
C42 C41 1_555 1_555
C43 C42 1_555 1_555
H29 C43 1_555 1_555
C44 C39 1_555 1_555
H30 C44 1_555 1_555
C45 C46 1_555 1_555
C46 C47 1_555 1_555
C47 H31 1_555 1_555
C48 C47 1_555 1_555
H32 C48 1_555 1_555
C52 C53 1_555 1_555
C53 H35 1_555 1_555
C54 C53 1_555 1_555
C55 C54 1_555 1_555
H36 C55 1_555 1_555
C58 H38 1_555 1_555
C59 H39 1_555 1_555
H40 C59 1_555 1_555
H41 C59 1_555 1_555
C60 H42 1_555 1_555
H43 C60 1_555 1_555
H44 C60 1_555 1_555
N2 C58 1_555 1_555
O11 C31 1_555 1_555
O12 Mn3 1_555 1_555
O14 C38 1_555 1_555
O15 Mn2 1_555 1_555
O16 Mn1_3 1_555 1_555
O17 C35 1_555 1_555
O18 C42 1_555 1_555
O20 Mn3 1_555 1_555
Mn4_2 O6 1_555 1_555
Mn5 O14 1_555 1_555
Mn6_2 O4 1_555 1_555
O22 Mn3 1_555 1_555
O23 Mn2 1_555 1_555
O24 Mn3 1_555 1_555
O27 Mn3 1_555 1_555
C6 C7 1_555 1_555
C13 C14 1_555 1_555
C22 O7 1_555 1_555
C24 O8 1_555 1_555
O4 Mn10 1_555 1_555
C31 O12 1_555 1_555
C36 C37 1_555 1_555
C43 C44 1_555 1_555
C45 O15 1_555 1_555
C45 O16 1_555 1_555
C52 O17 1_555 1_555
C54 O18 1_555 1_555
C58 O20 1_555 1_555
C59 N2 1_555 1_555
C60 N2 1_555 1_555
O11 Mn4_2 1_555 1_555
Mn4_2 O27 1_555 1_555
C29 H17 1_555 1_555
H18 C29 1_555 1_555
H19 C29 1_555 1_555
C30 H20 1_555 1_555
H21 C30 1_555 1_555
H22 C30 1_555 1_555
N1 C28 1_555 1_555
O28 Mn1_4 1_555 1_555
C29 N1 1_555 1_555
C30 N1 1_555 1_555
O21_2 Mn4 1_555 1_555
O26_2 Mn4 1_555 1_555
O29_2 Mn4 1_555 1_555
Mn5 O1_2 1_555 1_555
C1_2 C2_2 1_555 1_555
C2_2 C3_2 1_555 1_555
C3_2 H1_2 1_555 1_555
C4_2 C3_2 1_555 1_555
H2_2 C4_2 1_555 1_555
C5_2 C4_2 1_555 1_555
C6_2 C5_2 1_555 1_555
H3_2 C6_2 1_555 1_555
C7_2 C2_2 1_555 1_555
H4_2 C7_2 1_555 1_555
C8_2 C9_2 1_555 1_555
C9_2 C10_2 1_555 1_555
C10_2 H5_2 1_555 1_555
C11_2 C10_2 1_555 1_555
H6_2 C11_2 1_555 1_555
C12_2 C11_2 1_555 1_555
C13_2 C12_2 1_555 1_555
H7_2 C13_2 1_555 1_555
C14_2 C9_2 1_555 1_555
H8_2 C14_2 1_555 1_555
C15_2 C16_2 1_555 1_555
C16_2 C17_2 1_555 1_555
C17_2 H9_2 1_555 1_555
C18_2 C17_2 1_555 1_555
H10_2 C18_2 1_555 1_555
C19_2 C18_2 1_555 1_555
C20_2 C19_2 1_555 1_555
H11_2 C20_2 1_555 1_555
C21_2 C16_2 1_555 1_555
H12_2 C21_2 1_555 1_555
C22_2 C23_2 1_555 1_555
C23_2 H13_2 1_555 1_555
C24_2 C23_2 1_555 1_555
C25_2 C24_2 1_555 1_555
H14_2 C25_2 1_555 1_555
C26_2 C25_2 1_555 1_555
C27_2 C22_2 1_555 1_555
H15_2 C27_2 1_555 1_555
O1_2 C1_2 1_555 1_555
O2_2 C1_2 1_555 1_555
O22 C8_2 1_555 1_555
O26_2 C8_2 1_555 1_555
O5_2 C15_2 1_555 1_555
O6_2 C15_2 1_555 1_555
O7_2 C5_2 1_555 1_555
O8_2 C12_2 1_555 1_555
O9_2 C19_2 1_555 1_555
Mn8 O5_2 1_555 1_555
C59_2 H39_2 1_555 1_555
H40_2 C59_2 1_555 1_555
H41_2 C59_2 1_555 1_555
N2_2 C58_2 1_555 1_555
O20_2 Mn8 1_555 1_555
Mn6 O6_2 1_555 1_555
Mn10_2 O22 1_555 1_555
O27_2 Mn8 1_555 1_555
C6_2 C7_2 1_555 1_555
C13_2 C14_2 1_555 1_555
C20_2 C21_2 1_555 1_555
C22_2 O7_2 1_555 1_555
C24_2 O8_2 1_555 1_555
C26_2 C27_2 1_555 1_555
C26_2 O9_2 1_555 1_555
O26_2 Mn10_2 1_555 1_555
C58_2 O20_2 1_555 1_555
C59_2 N2_2 1_555 1_555
Mn6 O27_2 1_555 1_555
O29_3 Mn5_2 1_555 1_555
C60_2 H42_2 1_555 1_555
H43_2 C60_2 1_555 1_555
H44_2 C60_2 1_555 1_555
O10_2 Mn7 1_555 1_555
C31_2 C32_2 1_555 1_555
C32_2 C33_2 1_555 1_555
C33_2 H23_2 1_555 1_555
C34_2 C33_2 1_555 1_555
H24_2 C34_2 1_555 1_555
C35_2 C34_2 1_555 1_555
C36_2 C35_2 1_555 1_555
H25_2 C36_2 1_555 1_555
C37_2 C32_2 1_555 1_555
H26_2 C37_2 1_555 1_555
C38_2 C39_2 1_555 1_555
C39_2 C40_2 1_555 1_555
C40_2 H27_2 1_555 1_555
C41_2 C40_2 1_555 1_555
H28_2 C41_2 1_555 1_555
C42_2 C41_2 1_555 1_555
C43_2 C42_2 1_555 1_555
H29_2 C43_2 1_555 1_555
C44_2 C39_2 1_555 1_555
H30_2 C44_2 1_555 1_555
C45_2 C46_2 1_555 1_555
C46_2 C47_2 1_555 1_555
C47_2 H31_2 1_555 1_555
C48_2 C47_2 1_555 1_555
H32_2 C48_2 1_555 1_555
C49_2 C48_2 1_555 1_555
C50_2 C49_2 1_555 1_555
H33_2 C50_2 1_555 1_555
C51_2 C46_2 1_555 1_555
H34_2 C51_2 1_555 1_555
C52_2 C53_2 1_555 1_555
C53_2 H35_2 1_555 1_555
C54_2 C53_2 1_555 1_555
C55_2 C54_2 1_555 1_555
H36_2 C55_2 1_555 1_555
C56_2 C55_2 1_555 1_555
C57_2 C52_2 1_555 1_555
H37_2 C57_2 1_555 1_555
O11_2 C31_2 1_555 1_555
O23 C38_2 1_555 1_555
O26 C38_2 1_555 1_555
O15_2 Mn7 1_555 1_555
O16_2 Mn5_3 1_555 1_555
O17_2 C35_2 1_555 1_555
O18_2 C42_2 1_555 1_555
O19_2 C49_2 1_555 1_555
C31_2 O12_2 1_555 1_555
C36_2 C37_2 1_555 1_555
C43_2 C44_2 1_555 1_555
C45_2 O15_2 1_555 1_555
C45_2 O16_2 1_555 1_555
C50_2 C51_2 1_555 1_555
C52_2 O17_2 1_555 1_555
C54_2 O18_2 1_555 1_555
C56_2 C57_2 1_555 1_555
C56_2 O19_2 1_555 1_555
O11_2 Mn6_2 1_555 1_555
C29_2 H17_2 1_555 1_555
H18_2 C29_2 1_555 1_555
H19_2 C29_2 1_555 1_555
N1_2 C28_2 1_555 1_555
O21_3 Mn5_4 1_555 1_555
O28_2 Mn5_4 1_555 1_555
C29_2 N1_2 1_555 1_555
C30_2 H20_2 1_555 1_555
H21_2 C30_2 1_555 1_555
H22_2 C30_2 1_555 1_555
O21_4 Mn6 1_555 1_555
O29_4 Mn6_2 1_555 1_555
C29_3 H17_3 1_555 1_555
H18_3 C29_3 1_555 1_555
H19_3 C29_3 1_555 1_555
C30_3 H20_3 1_555 1_555
H21_3 C30_3 1_555 1_555
H22_3 C30_3 1_555 1_555
N1_3 C28_3 1_555 1_555
C29_3 N1_3 1_555 1_555
C30_3 N1_3 1_555 1_555
Mn9_2 O2_3 1_555 1_555
C1_3 C2_3 1_555 1_555
C2_3 C3_3 1_555 1_555
C6_3 C5_3 1_555 1_555
H3_3 C6_3 1_555 1_555
C7_3 C2_3 1_555 1_555
H4_3 C7_3 1_555 1_555
C8_3 C9_3 1_555 1_555
C9_3 C10_3 1_555 1_555
C11_3 C10_3 1_555 1_555
H6_3 C11_3 1_555 1_555
C12_3 C11_3 1_555 1_555
C13_3 C12_3 1_555 1_555
H7_3 C13_3 1_555 1_555
C14_3 C9_3 1_555 1_555
H8_3 C14_3 1_555 1_555
C15_3 C16_3 1_555 1_555
C16_3 C17_3 1_555 1_555
C17_3 H9_3 1_555 1_555
C18_3 C17_3 1_555 1_555
H10_3 C18_3 1_555 1_555
C22_3 C23_3 1_555 1_555
C23_3 H13_3 1_555 1_555
C24_3 C23_3 1_555 1_555
C25_3 C24_3 1_555 1_555
H14_3 C25_3 1_555 1_555
O21 C1_3 1_555 1_555
O2_3 C1_3 1_555 1_555
O27_2 C8_3 1_555 1_555
O5_3 C15_3 1_555 1_555
O29_2 C15_3 1_555 1_555
O7_3 C5_3 1_555 1_555
O8_3 C12_3 1_555 1_555
O10_3 Mn9_2 1_555 1_555
Mn10_2 O5_3 1_555 1_555
C31_3 C32_3 1_555 1_555
C32_3 C33_3 1_555 1_555
C36_3 C35_3 1_555 1_555
H25_3 C36_3 1_555 1_555
C37_3 C32_3 1_555 1_555
H26_3 C37_3 1_555 1_555
C38_3 C39_3 1_555 1_555
C39_3 C40_3 1_555 1_555
C41_3 C40_3 1_555 1_555
H28_3 C41_3 1_555 1_555
C42_3 C41_3 1_555 1_555
C43_3 C42_3 1_555 1_555
H29_3 C43_3 1_555 1_555
C44_3 C39_3 1_555 1_555
H30_3 C44_3 1_555 1_555
C45_3 C46_3 1_555 1_555
C46_3 C47_3 1_555 1_555
C47_3 H31_3 1_555 1_555
C48_3 C47_3 1_555 1_555
H32_3 C48_3 1_555 1_555
C52_3 C53_3 1_555 1_555
C53_3 H35_3 1_555 1_555
C54_3 C53_3 1_555 1_555
C55_3 C54_3 1_555 1_555
H36_3 C55_3 1_555 1_555
C58_3 H38_3 1_555 1_555
C59_3 H39_3 1_555 1_555
H40_3 C59_3 1_555 1_555
H41_3 C59_3 1_555 1_555
C60_3 H42_3 1_555 1_555
H43_3 C60_3 1_555 1_555
H44_3 C60_3 1_555 1_555
N2_3 C58_3 1_555 1_555
O21_2 C31_3 1_555 1_555
O12_3 Mn10_2 1_555 1_555
O28_2 C38_3 1_555 1_555
O15_3 Mn9_2 1_555 1_555
O17_3 C35_3 1_555 1_555
O18_3 C42_3 1_555 1_555
O20_3 Mn10_2 1_555 1_555
O24 Mn10_2 1_555 1_555
O25 Mn9_2 1_555 1_555
C6_3 C7_3 1_555 1_555
C13_3 C14_3 1_555 1_555
C22_3 O7_3 1_555 1_555
C24_3 O8_3 1_555 1_555
C31_3 O12_3 1_555 1_555
C36_3 C37_3 1_555 1_555
C43_3 C44_3 1_555 1_555
C45_3 O15_3 1_555 1_555
C45_3 O29 1_555 1_555
C52_3 O17_3 1_555 1_555
C54_3 O18_3 1_555 1_555
C58_3 O20_3 1_555 1_555
C59_3 N2_3 1_555 1_555
C60_3 N2_3 1_555 1_555
H2_3 C4_3 1_555 1_555
C20_3 C19_3 1_555 1_555
H11_3 C20_3 1_555 1_555
H12_3 C21_3 1_555 1_555
H15_3 C27_3 1_555 1_555
O9_3 C19_3 1_555 1_555
H24_3 C34_3 1_555 1_555
C50_3 C49_3 1_555 1_555
H33_3 C50_3 1_555 1_555
H34_3 C51_3 1_555 1_555
H37_3 C57_3 1_555 1_555
O19_3 C49_3 1_555 1_555
C20_3 C21_3 1_555 1_555
C26_3 C27_3 1_555 1_555
C26_3 O9_3 1_555 1_555
C50_3 C51_3 1_555 1_555
C56_3 C57_3 1_555 1_555
C56_3 O19_3 1_555 1_555
C30_4 H20_4 1_555 1_555
H21_4 C30_4 1_555 1_555
H22_4 C30_4 1_555 1_555
C29_4 H17_4 1_555 1_555
H18_4 C29_4 1_555 1_555
H19_4 C29_4 1_555 1_555
N1_4 C28_4 1_555 1_555
C29_4 N1_4 1_555 1_555
O10_4 Mn9 1_555 1_555
C31_4 C32_4 1_555 1_555
C32_4 C33_4 1_555 1_555
C33_4 H23_4 1_555 1_555
C34_4 C33_4 1_555 1_555
H24_4 C34_4 1_555 1_555
C35_4 C34_4 1_555 1_555
C36_4 C35_4 1_555 1_555
H25_4 C36_4 1_555 1_555
C37_4 C32_4 1_555 1_555
H26_4 C37_4 1_555 1_555
C38_4 C39_4 1_555 1_555
C39_4 C40_4 1_555 1_555
C40_4 H27_4 1_555 1_555
C41_4 C40_4 1_555 1_555
H28_4 C41_4 1_555 1_555
C42_4 C41_4 1_555 1_555
C43_4 C42_4 1_555 1_555
H29_4 C43_4 1_555 1_555
C44_4 C39_4 1_555 1_555
H30_4 C44_4 1_555 1_555
C45_4 C46_4 1_555 1_555
C46_4 C47_4 1_555 1_555
C47_4 H31_4 1_555 1_555
C48_4 C47_4 1_555 1_555
H32_4 C48_4 1_555 1_555
C49_4 C48_4 1_555 1_555
C50_4 C49_4 1_555 1_555
H33_4 C50_4 1_555 1_555
C51_4 C46_4 1_555 1_555
H34_4 C51_4 1_555 1_555
C52_4 C53_4 1_555 1_555
C53_4 H35_4 1_555 1_555
C54_4 C53_4 1_555 1_555
C55_4 C54_4 1_555 1_555
H36_4 C55_4 1_555 1_555
C56_4 C55_4 1_555 1_555
C57_4 C52_4 1_555 1_555
H37_4 C57_4 1_555 1_555
O21_4 C31_4 1_555 1_555
O25 C38_4 1_555 1_555
O28 C38_4 1_555 1_555
O15_4 Mn9 1_555 1_555
O17_4 C35_4 1_555 1_555
O18_4 C42_4 1_555 1_555
O19_4 C49_4 1_555 1_555
C31_4 O12_4 1_555 1_555
C36_4 C37_4 1_555 1_555
C43_4 C44_4 1_555 1_555
C45_4 O15_4 1_555 1_555
C45_4 O29_3 1_555 1_555
C50_4 C51_4 1_555 1_555
C52_4 O17_4 1_555 1_555
C54_4 O18_4 1_555 1_555
C56_4 C57_4 1_555 1_555
C56_4 O19_4 1_555 1_555
C60_4 H42_4 1_555 1_555
H43_4 C60_4 1_555 1_555
H44_4 C60_4 1_555 1_555
C1_4 C2_4 1_555 1_555
C2_4 C3_4 1_555 1_555
C3_4 H1_4 1_555 1_555
C4_4 C3_4 1_555 1_555
H2_4 C4_4 1_555 1_555
C5_4 C4_4 1_555 1_555
C6_4 C5_4 1_555 1_555
H3_4 C6_4 1_555 1_555
C7_4 C2_4 1_555 1_555
H4_4 C7_4 1_555 1_555
C8_4 C9_4 1_555 1_555
C9_4 C10_4 1_555 1_555
C10_4 H5_4 1_555 1_555
C11_4 C10_4 1_555 1_555
H6_4 C11_4 1_555 1_555
C12_4 C11_4 1_555 1_555
C13_4 C12_4 1_555 1_555
H7_4 C13_4 1_555 1_555
C14_4 C9_4 1_555 1_555
H8_4 C14_4 1_555 1_555
C15_4 C16_4 1_555 1_555
C16_4 C17_4 1_555 1_555
C17_4 H9_4 1_555 1_555
C18_4 C17_4 1_555 1_555
H10_4 C18_4 1_555 1_555
C19_4 C18_4 1_555 1_555
C20_4 C19_4 1_555 1_555
H11_4 C20_4 1_555 1_555
C21_4 C16_4 1_555 1_555
H12_4 C21_4 1_555 1_555
C22_4 C23_4 1_555 1_555
C23_4 H13_4 1_555 1_555
C24_4 C23_4 1_555 1_555
C25_4 C24_4 1_555 1_555
H14_4 C25_4 1_555 1_555
C26_4 C25_4 1_555 1_555
C27_4 C22_4 1_555 1_555
H15_4 C27_4 1_555 1_555
O21_3 C1_4 1_555 1_555
O2_4 C1_4 1_555 1_555
O24 C8_4 1_555 1_555
O27 C8_4 1_555 1_555
O5_4 C15_4 1_555 1_555
O29_4 C15_4 1_555 1_555
O7_4 C5_4 1_555 1_555
O8_4 C12_4 1_555 1_555
O9_4 C19_4 1_555 1_555
Mn10 O5_4 1_555 1_555
C59_4 H39_4 1_555 1_555
H40_4 C59_4 1_555 1_555
H41_4 C59_4 1_555 1_555
N2_4 C58_4 1_555 1_555
O20_4 Mn10 1_555 1_555
C6_4 C7_4 1_555 1_555
C13_4 C14_4 1_555 1_555
C20_4 C21_4 1_555 1_555
C22_4 O7_4 1_555 1_555
C24_4 O8_4 1_555 1_555
C26_4 C27_4 1_555 1_555
C26_4 O9_4 1_555 1_555
C58_4 O20_4 1_555 1_555
C59_4 N2_4 1_555 1_555

#END
