
###############################################################################
#
# This file contains modified crystal structure data generated from the
# MOF subset of the Cambridge Structural Database (CSD) v543 
# hosted by the Cambridge Crystallographic Data Centre (CCDC).
#
# This work is licensed under the Creative Commons
# Attribution-NonCommercial-ShareAlike 4.0 International License.
# To view a copy of this license, visit
# http://creativecommons.org/licenses/by-nc-sa/4.0/
# or send a letter to
# Creative Commons, PO Box 1866, Mountain View, CA 94042, USA.
#
# CIF created using the CSD Python API on 29 September 2022
# The structure has been converted into the P1 space group
# The structure has a 3D framework
# The original CSD entry ITIZUH is in the orthorhombic crystal system
# The framework has been calculated to contain at least 10.0% void space
# The void calculation uses a probe of radius 1.32A, grid spacing 0.4
# H atom positions have been added when not included in the experimental data
#
###############################################################################

data_ITIZUH
_chemical_formula_moiety         '(C248 H160 N32 O140 Zn27)n'
_symmetry_cell_setting           triclinic
_symmetry_space_group_name_H-M   'P 1'
_symmetry_Int_Tables_number      1
_space_group_name_Hall           'P 1'
loop_
_symmetry_equiv_pos_site_id
_symmetry_equiv_pos_as_xyz
1 x,y,z
_cell_length_a                   32.2839(13)
_cell_length_b                   12.9498(5)
_cell_length_c                   17.7145(6)
_cell_angle_alpha                90
_cell_angle_beta                 90
_cell_angle_gamma                90
_cell_volume                     7405.9
loop_
_atom_site_label
_atom_site_type_symbol
_atom_site_fract_x
_atom_site_fract_y
_atom_site_fract_z
O2 O 0.23887(19) 0.5156(7) 0.1868(5)
Zn1 Zn 0.10736(2) 0.24546(6) 0.38104(4)
O3 O 0.02612(14) 0.4183(4) 0.1205(3)
O4 O 0.04045(13) 0.2595(3) 0.3754(2)
O6 O 0.00994(14) 0.0333(4) 0.1391(3)
O7 O 0.05818(15) 0.4597(4) 0.2779(2)
C3 C 0.09057(19) 0.5015(5) 0.1270(4)
C4 C 0.0439(2) 0.5056(6) 0.1284(4)
O8 O 0.02674(15) 0.5907(4) 0.1306(3)
C5 C 0.1121(2) 0.5378(5) 0.0645(4)
C6 C 0.1131(2) 0.4671(5) 0.1900(4)
C8 C 0.0935(2) 0.4261(6) 0.2613(4)
H1 H 0.0247 0.3555 0.0072
O10 O 0.04845(16) 0.1211(4) 0.2588(3)
C9 C 0.0837(2) 0.0016(5) 0.1344(4)
C10 C 0.1038(2) 0.0283(5) 0.2012(4)
O11 O 0.04869(14) 0.1290(4) 0.0624(3)
C15 C 0.1564(2) 0.4733(6) 0.1898(4)
H5 H 0.1715 0.4510 0.2313
C16 C 0.1760(2) 0.5122(6) 0.1281(5)
C17 C 0.0442(2) 0.0581(6) 0.1112(4)
O14 O 0.11421(17) 0.3685(5) 0.3015(4)
O15 O 0.11300(18) 0.1475(6) 0.2958(4)
C19 C 0.0864(3) 0.1038(6) 0.2559(4)
C21 C 0.1546(2) 0.5430(6) 0.0643(4)
H7 H 0.1687 0.5668 0.0220
N3 N 0.2214(2) 0.5203(6) 0.1277(5)
O17 O 0.23872(19) 0.5351(7) 0.0670(4)
O20 O 0.0989(2) 0.1228(7) 0.4584(5)
O22 O 0.23887(19) 0.4844(7) 0.6868(5)
Zn11 Zn 0.10736(2) 0.75454(6) 0.88104(4)
Zn13 Zn 0.03387(2) 0.41321(5) 0.37271(4)
Zn15 Zn 0.03387(2) 0.58679(5) 0.87271(4)
Zn16 Zn 0.00612(2) 0.19330(6) 0.45262(5)
O23 O 0.02612(14) 0.5817(4) 0.6205(3)
O26 O 0.05917(16) 0.4664(4) 0.4689(2)
O30 O 0.05818(15) 0.5403(4) 0.7779(2)
C34 C 0.09057(19) 0.4985(5) 0.6270(4)
C35 C 0.0439(2) 0.4944(6) 0.6284(4)
O33 O 0.02674(15) 0.4093(4) 0.6306(3)
C36 C 0.1121(2) 0.4622(5) 0.5645(4)
C37 C 0.1131(2) 0.5329(5) 0.6900(4)
C39 C 0.0935(2) 0.5739(6) 0.7613(4)
N6 N 0.17229(19) 0.2291(5) 0.3921(3)
O37 O 0.1064(2) 0.3438(7) 0.4683(4)
O41 O 0.04040(16) 0.1151(4) 0.5213(3)
C46 C 0.1564(2) 0.5267(6) 0.6898(4)
H14 H 0.1715 0.5490 0.7313
C47 C 0.1760(2) 0.4878(6) 0.6281(5)
O42 O 0.11421(17) 0.6315(5) 0.8015(4)
C52 C 0.1546(2) 0.4570(6) 0.5643(4)
H16 H 0.1687 0.4332 0.5220
N9 N 0.2214(2) 0.4797(6) 0.6277(5)
O46 O 0.23872(19) 0.4649(7) 0.5670(4)
C59 C 0.0905(2) 0.4230(6) 0.4947(4)
H31 H 0.00938272 0.339967 0.547782
O5 O 0.05917(16) 0.5336(4) 0.9689(2)
O9 O 0.01429(16) 0.3105(4) 0.9808(3)
O12 O 0.1064(2) 0.6562(7) 0.9683(4)
C28 C 0.0905(2) 0.5770(6) 0.9947(4)
C1 C 0.2508(5) 0.6639(12) 0.4168(11)
C2 C 0.2521(7) 0.761(3) 0.4017(9)
Zn4 Zn 0.0000 0.99592(9) 0.2500
C7 C 0.0967(2) 0.7370(6) 0.3479(5)
C11 C 0.1013(2) 0.9267(6) 0.0851(5)
C12 C 0.0620(2) 0.8966(6) 0.3554(4)
H2 H 0.0566 0.9569 0.3823
N1 N 0.32771(19) 0.7291(5) 0.3921(3)
O13 O 0.04040(16) 0.8849(4) 0.0213(3)
C13 C 0.1370(2) 0.8792(6) 0.1050(5)
H3 H 0.1485 0.8294 0.0735
C14 C 0.1405(2) 0.9775(6) 0.2187(5)
H4 H 0.1544 0.9941 0.2631
C18 C 0.0877(3) 0.8277(6) 0.3865(5)
H6 H 0.0995 0.8405 0.4334
N2 N 0.04307(18) 0.8851(4) 0.2878(3)
C20 C 0.1252(2) 0.6551(6) 0.3838(5)
C22 C 0.1565(2) 0.9045(6) 0.1724(5)
C23 C 0.0785(3) 0.8929(6) 0.0161(5)
O16 O 0.2088(2) 0.8667(8) 0.2559(5)
C24 C 0.0784(3) 0.7236(6) 0.2791(5)
H8 H 0.0834 0.6642 0.2511
O18 O 0.2073(3) 0.7832(7) 0.1499(6)
N4 N 0.1941(3) 0.8471(7) 0.1939(7)
C25 C 0.0525(3) 0.7989(6) 0.2518(5)
H9 H 0.0407 0.7885 0.2045
C26 C 0.1712(3) 0.6940(10) 0.3726(7)
C27 C 0.2000(4) 0.6276(15) 0.4121(10)
C29 C 0.3034(4) 0.783(2) 0.4095(17)
C30 C 0.3138(5) 0.6239(15) 0.4085(10)
C31 C 0.2712(6) 0.603(3) 0.397(2)
Zn7 Zn 0.39264(2) 0.74546(6) 0.38104(4)
H19 H 0.227085 0.814106 0.387782
H21 H 0.173944 0.77226 0.394536
H22 H 0.178627 0.693713 0.312634
H23 H 0.120901 0.580904 0.355945
H24 H 0.118304 0.647271 0.443704
H25 H 0.188875 0.620151 0.469879
H26 H 0.199032 0.552494 0.384504
H27 H 0.335107 0.564734 0.428515
H29 H 0.259945 0.532347 0.370717
H30 H 0.313086 0.856439 0.433696
O1 O 0.0989(2) 0.8772(7) 0.9584(5)
Zn17 Zn 0.00612(2) 0.80670(6) 0.95262(5)
Zn2 Zn 0.96613(2) 0.41321(5) 0.12729(4)
Zn3 Zn 0.99388(2) 0.19330(6) 0.04738(5)
O21 O 0.9011(2) 0.1228(7) 0.0416(5)
Zn5 Zn 0.89264(2) 0.24546(6) 0.11896(4)
Zn12 Zn 0.96613(2) 0.58679(5) 0.62729(4)
O24 O 0.95955(13) 0.2595(3) 0.1246(2)
O25 O 0.95955(13) 0.7405(3) 0.6246(2)
O27 O 0.94083(16) 0.4664(4) 0.0311(2)
O28 O 0.94083(16) 0.5336(4) 0.5311(2)
O29 O 0.99006(14) 0.0333(4) 0.3609(3)
O31 O 0.94182(15) 0.4597(4) 0.2221(2)
O32 O 0.94182(15) 0.5403(4) 0.7221(2)
O34 O 0.98571(16) 0.3105(4) 0.5192(3)
H10 H 0.9753 0.3555 0.4928
O35 O 0.95155(16) 0.1211(4) 0.2412(3)
C40 C 0.9163(2) 0.0016(5) 0.3656(4)
C41 C 0.8962(2) 0.0283(5) 0.2988(4)
N7 N 0.82771(19) 0.2291(5) 0.1079(3)
O36 O 0.95131(14) 0.1290(4) 0.4376(3)
O38 O 0.8936(2) 0.3438(7) 0.0317(4)
C48 C 0.9558(2) 0.0581(6) 0.3888(4)
O43 O 0.88579(17) 0.3685(5) 0.1985(4)
O44 O 0.88700(18) 0.1475(6) 0.2042(4)
C50 C 0.9136(3) 0.1038(6) 0.2441(4)
O40 O 0.95960(16) 0.1151(4) 0.9787(3)
H20 H 0.990617 0.339967 0.952218
Zn4_2 Zn 1.0000 0.99592(9) 0.2500
C32 C 0.7492(5) 0.6639(12) 0.0832(11)
C33 C 0.7479(7) 0.761(3) 0.0983(9)
O19 O 0.9011(2) 0.8772(7) 0.5416(5)
Zn9 Zn 0.89264(2) 0.75454(6) 0.61896(4)
Zn10 Zn 0.60736(2) 0.74546(6) 0.11896(4)
Zn18 Zn 0.99388(2) 0.80670(6) 0.54738(5)
C38 C 0.9033(2) 0.7370(6) 0.1521(5)
C42 C 0.8987(2) 0.9267(6) 0.4149(5)
C43 C 0.9380(2) 0.8966(6) 0.1446(4)
H11 H 0.9434 0.9569 0.1177
N5 N 0.67229(19) 0.7291(5) 0.1079(3)
O39 O 0.95960(16) 0.8849(4) 0.4787(3)
C44 C 0.8630(2) 0.8792(6) 0.3950(5)
H12 H 0.8515 0.8294 0.4265
C45 C 0.8595(2) 0.9775(6) 0.2813(5)
H13 H 0.8456 0.9941 0.2369
C49 C 0.9123(3) 0.8277(6) 0.1135(5)
H15 H 0.9005 0.8405 0.0666
N8 N 0.95693(18) 0.8851(4) 0.2122(3)
C51 C 0.8748(2) 0.6551(6) 0.1162(5)
C53 C 0.8435(2) 0.9045(6) 0.3276(5)
C54 C 0.9215(3) 0.8929(6) 0.4839(5)
O45 O 0.7912(2) 0.8667(8) 0.2441(5)
C55 C 0.9216(3) 0.7236(6) 0.2209(5)
H17 H 0.9166 0.6642 0.2489
O47 O 0.7927(3) 0.7832(7) 0.3501(6)
N10 N 0.8059(3) 0.8471(7) 0.3061(7)
C56 C 0.9475(3) 0.7989(6) 0.2482(5)
H18 H 0.9593 0.7885 0.2955
C57 C 0.8288(3) 0.6940(10) 0.1274(7)
C58 C 0.8000(4) 0.6276(15) 0.0879(10)
C60 C 0.6966(4) 0.783(2) 0.0905(17)
C61 C 0.6862(5) 0.6239(15) 0.0915(10)
C62 C 0.7288(6) 0.603(3) 0.103(2)
H28 H 0.772915 0.814106 0.112218
H32 H 0.879099 0.580904 0.144055
H33 H 0.881696 0.647271 0.0562962
H34 H 0.686914 0.856439 0.0663044
H35 H 0.664893 0.564734 0.0714847
H36 H 0.811125 0.620151 0.0301207
H37 H 0.800968 0.552494 0.115496
H38 H 0.826056 0.77226 0.105464
H39 H 0.821373 0.693713 0.187366
H40 H 0.740055 0.532347 0.129283
O19_2 O 0.5989(2) 0.6228(7) 0.0416(5)
O22_2 O 0.26113(19) 0.0156(7) 0.1868(5)
Zn18_2 Zn 0.50612(2) 0.69330(6) 0.04738(5)
C34_2 C 0.40943(19) 0.0015(5) 0.1270(4)
C35_2 C 0.4561(2) 0.0056(6) 0.1284(4)
O33_2 O 0.47326(15) 0.0907(4) 0.1306(3)
C36_2 C 0.3879(2) 0.0378(5) 0.0645(4)
O34_2 O 0.51429(16) 0.1895(4) 0.0192(3)
O41_2 O 0.45960(16) 0.3849(4) 0.0213(3)
C47_2 C 0.3240(2) 0.0122(6) 0.1281(5)
C52_2 C 0.3454(2) 0.0430(6) 0.0643(4)
H16_2 H 0.3313 0.0668 0.0220
N9_2 N 0.2786(2) 0.0203(6) 0.1277(5)
O46_2 O 0.26128(19) 0.0351(7) 0.0670(4)
H31_2 H 0.490617 0.160033 0.0477822
C1_2 C 0.2492(5) 0.8361(12) 0.9168(11)
C2_2 C 0.2479(7) 0.739(3) 0.9017(9)
O1_2 O 0.4011(2) 0.6228(7) 0.4584(5)
Zn1_2 Zn 0.39264(2) 0.25454(6) 0.88104(4)
Zn2_2 Zn 0.53387(2) 0.08679(5) 0.62729(4)
Zn3_2 Zn 0.50612(2) 0.30670(6) 0.54738(5)
Zn4_3 Zn 0.5000 0.50408(9) 0.7500
O3_2 O 0.47388(14) 0.0817(4) 0.6205(3)
O4_2 O 0.45955(13) 0.2405(3) 0.8754(2)
O6_2 O 0.49006(14) 0.4667(4) 0.6391(3)
O7_2 O 0.44182(15) 0.0403(4) 0.7779(2)
C6_2 C 0.3869(2) 0.0329(5) 0.6900(4)
C7_2 C 0.4033(2) 0.7630(6) 0.8479(5)
C8_2 C 0.4065(2) 0.0739(6) 0.7613(4)
O9_2 O 0.48571(16) 0.1895(4) 0.4808(3)
H1_2 H 0.4753 0.1445 0.5072
O10_2 O 0.45155(16) 0.3789(4) 0.7588(3)
C9_2 C 0.4163(2) 0.4984(5) 0.6344(4)
C10_2 C 0.3962(2) 0.4717(5) 0.7012(4)
C11_2 C 0.3987(2) 0.5733(6) 0.5851(5)
C12_2 C 0.4380(2) 0.6034(6) 0.8554(4)
H2_2 H 0.4434 0.5431 0.8823
N1_2 N 0.17229(19) 0.7709(5) 0.8921(3)
O11_2 O 0.45131(14) 0.3710(4) 0.5624(3)
O13_2 O 0.45960(16) 0.6151(4) 0.5213(3)
C13_2 C 0.3630(2) 0.6208(6) 0.6050(5)
H3_2 H 0.3515 0.6706 0.5735
C14_2 C 0.3595(2) 0.5225(6) 0.7187(5)
H4_2 H 0.3456 0.5059 0.7631
C15_2 C 0.3436(2) 0.0267(6) 0.6898(4)
H5_2 H 0.3285 0.0490 0.7313
C17_2 C 0.4558(2) 0.4419(6) 0.6112(4)
C18_2 C 0.4123(3) 0.6723(6) 0.8865(5)
H6_2 H 0.4005 0.6595 0.9334
N2_2 N 0.45693(18) 0.6149(4) 0.7878(3)
O14_2 O 0.38579(17) 0.1315(5) 0.8015(4)
O15_2 O 0.38700(18) 0.3525(6) 0.7958(4)
C19_2 C 0.4136(3) 0.3962(6) 0.7559(4)
C20_2 C 0.3748(2) 0.8449(6) 0.8838(5)
C22_2 C 0.3435(2) 0.5955(6) 0.6724(5)
C23_2 C 0.4215(3) 0.6071(6) 0.5161(5)
O16_2 O 0.2912(2) 0.6333(8) 0.7559(5)
C24_2 C 0.4216(3) 0.7764(6) 0.7791(5)
H8_2 H 0.4166 0.8358 0.7511
O18_2 O 0.2927(3) 0.7168(7) 0.6499(6)
N4_2 N 0.3059(3) 0.6529(7) 0.6939(7)
C25_2 C 0.4475(3) 0.7011(6) 0.7518(5)
H9_2 H 0.4593 0.7115 0.7045
C26_2 C 0.3288(3) 0.8060(10) 0.8726(7)
C27_2 C 0.3000(4) 0.8724(15) 0.9121(10)
C29_2 C 0.1966(4) 0.717(2) 0.9095(17)
C30_2 C 0.1862(5) 0.8761(15) 0.9085(10)
C31_2 C 0.2288(6) 0.897(3) 0.897(2)
C32_2 C 0.7508(5) 0.8361(12) 0.5832(11)
C33_2 C 0.7521(7) 0.739(3) 0.5983(9)
O20_2 O 0.4011(2) 0.3772(7) 0.9584(5)
O21_2 O 0.5989(2) 0.3772(7) 0.5416(5)
Zn5_2 Zn 0.60736(2) 0.25454(6) 0.61896(4)
Zn13_2 Zn 0.46613(2) 0.08679(5) 0.87271(4)
Zn16_2 Zn 0.49388(2) 0.30670(6) 0.95262(5)
Zn17_2 Zn 0.49388(2) 0.69330(6) 0.45262(5)
O24_2 O 0.54045(13) 0.2405(3) 0.6246(2)
O26_2 O 0.44083(16) 0.0336(4) 0.9689(2)
O27_2 O 0.55917(16) 0.0336(4) 0.5311(2)
O29_2 O 0.50994(14) 0.4667(4) 0.8609(3)
O31_2 O 0.55818(15) 0.0403(4) 0.7221(2)
C38_2 C 0.5967(2) 0.7630(6) 0.6521(5)
H10_2 H 0.5247 0.1445 0.9928
O35_2 O 0.54845(16) 0.3789(4) 0.7412(3)
C40_2 C 0.5837(2) 0.4984(5) 0.8656(4)
C41_2 C 0.6038(2) 0.4717(5) 0.7988(4)
C42_2 C 0.6013(2) 0.5733(6) 0.9149(5)
C43_2 C 0.5620(2) 0.6034(6) 0.6446(4)
H11_2 H 0.5566 0.5431 0.6177
N5_2 N 0.82771(19) 0.7709(5) 0.6079(3)
N6_2 N 0.32771(19) 0.2709(5) 0.8921(3)
N7_2 N 0.67229(19) 0.2709(5) 0.6079(3)
O36_2 O 0.54869(14) 0.3710(4) 0.9376(3)
O37_2 O 0.3936(2) 0.1562(7) 0.9683(4)
O38_2 O 0.6064(2) 0.1562(7) 0.5317(4)
O39_2 O 0.54040(16) 0.6151(4) 0.9787(3)
O40_2 O 0.54040(16) 0.3849(4) 0.4787(3)
C44_2 C 0.6370(2) 0.6208(6) 0.8950(5)
H12_2 H 0.6485 0.6706 0.9265
C45_2 C 0.6405(2) 0.5225(6) 0.7813(5)
H13_2 H 0.6544 0.5059 0.7369
C48_2 C 0.5442(2) 0.4419(6) 0.8888(4)
C49_2 C 0.5877(3) 0.6723(6) 0.6135(5)
H15_2 H 0.5995 0.6595 0.5666
N8_2 N 0.54307(18) 0.6149(4) 0.7122(3)
O43_2 O 0.61421(17) 0.1315(5) 0.6985(4)
O44_2 O 0.61300(18) 0.3525(6) 0.7042(4)
C50_2 C 0.5864(3) 0.3962(6) 0.7441(4)
C51_2 C 0.6252(2) 0.8449(6) 0.6162(5)
C53_2 C 0.6565(2) 0.5955(6) 0.8276(5)
C54_2 C 0.5785(3) 0.6071(6) 0.9839(5)
O45_2 O 0.7088(2) 0.6333(8) 0.7441(5)
C55_2 C 0.5784(3) 0.7764(6) 0.7209(5)
H17_2 H 0.5834 0.8358 0.7489
O47_2 O 0.7073(3) 0.7168(7) 0.8501(6)
N10_2 N 0.6941(3) 0.6529(7) 0.8061(7)
C56_2 C 0.5525(3) 0.7011(6) 0.7482(5)
H18_2 H 0.5407 0.7115 0.7955
C57_2 C 0.6712(3) 0.8060(10) 0.6274(7)
C58_2 C 0.7000(4) 0.8724(15) 0.5879(10)
C59_2 C 0.4095(2) 0.0770(6) 0.9947(4)
C60_2 C 0.8034(4) 0.717(2) 0.5905(17)
C61_2 C 0.8138(5) 0.8761(15) 0.5915(10)
C62_2 C 0.7712(6) 0.897(3) 0.603(2)
H19_2 H 0.272915 0.685894 0.887782
H20_2 H 0.509383 0.160033 0.452218
H21_2 H 0.326056 0.72774 0.894536
H22_2 H 0.321373 0.806287 0.812634
H23_2 H 0.379099 0.919096 0.855945
H24_2 H 0.381696 0.852729 0.943704
H25_2 H 0.311125 0.879849 0.969879
H26_2 H 0.300968 0.947506 0.884504
H27_2 H 0.164893 0.935266 0.928515
H28_2 H 0.727085 0.685894 0.612218
H29_2 H 0.240055 0.967653 0.870717
H30_2 H 0.186914 0.643561 0.933696
H32_2 H 0.620901 0.919096 0.644055
H33_2 H 0.618304 0.852729 0.556296
H34_2 H 0.813086 0.643561 0.566304
H35_2 H 0.835107 0.935266 0.571485
H36_2 H 0.688875 0.879849 0.530121
H37_2 H 0.699032 0.947506 0.615496
H38_2 H 0.673944 0.72774 0.605464
H39_2 H 0.678627 0.806287 0.687366
H40_2 H 0.759945 0.967653 0.629283
Zn12_2 Zn 0.53387(2) 0.91321(5) 0.12729(4)
Zn15_2 Zn 0.46613(2) 0.91321(5) 0.37271(4)
O23_2 O 0.47388(14) 0.9183(4) 0.1205(3)
O25_2 O 0.54045(13) 0.7595(3) 0.1246(2)
O28_2 O 0.55917(16) 0.9664(4) 0.0311(2)
O30_2 O 0.44182(15) 0.9597(4) 0.2779(2)
O32_2 O 0.55818(15) 0.9597(4) 0.2221(2)
C37_2 C 0.3869(2) 0.9671(5) 0.1900(4)
C39_2 C 0.4065(2) 0.9261(6) 0.2613(4)
C46_2 C 0.3436(2) 0.9733(6) 0.1898(4)
H14_2 H 0.3285 0.9510 0.2313
O42_2 O 0.38579(17) 0.8685(5) 0.3015(4)
O2_2 O 0.26113(19) 0.9844(7) 0.6868(5)
O5_2 O 0.44083(16) 0.9664(4) 0.4689(2)
C3_2 C 0.40943(19) 0.9985(5) 0.6270(4)
C4_2 C 0.4561(2) 0.9944(6) 0.6284(4)
O8_2 O 0.47326(15) 0.9093(4) 0.6306(3)
C5_2 C 0.3879(2) 0.9622(5) 0.5645(4)
O12_2 O 0.3936(2) 0.8438(7) 0.4683(4)
C16_2 C 0.3240(2) 0.9878(6) 0.6281(5)
C21_2 C 0.3454(2) 0.9570(6) 0.5643(4)
H7_2 H 0.3313 0.9332 0.5220
N3_2 N 0.2786(2) 0.9797(6) 0.6277(5)
O17_2 O 0.26128(19) 0.9649(7) 0.5670(4)
C28_2 C 0.4095(2) 0.9230(6) 0.4947(4)
O25_3 O 0.04045(13) 0.7405(3) 0.8754(2)
O2_3 O 0.76113(19) 0.5156(7) 0.3132(5)
O3_3 O 0.97388(14) 0.4183(4) 0.3795(3)
C3_3 C 0.90943(19) 0.5015(5) 0.3730(4)
C4_3 C 0.9561(2) 0.5056(6) 0.3716(4)
O8_3 O 0.97326(15) 0.5907(4) 0.3694(3)
C5_3 C 0.8879(2) 0.5378(5) 0.4355(4)
C6_3 C 0.8869(2) 0.4671(5) 0.3100(4)
C8_3 C 0.9065(2) 0.4261(6) 0.2387(4)
O12_3 O 0.8936(2) 0.6562(7) 0.5317(4)
C15_3 C 0.8436(2) 0.4733(6) 0.3102(4)
H5_3 H 0.8285 0.4510 0.2687
C16_3 C 0.8240(2) 0.5122(6) 0.3719(5)
C21_3 C 0.8454(2) 0.5430(6) 0.4357(4)
H7_3 H 0.8313 0.5668 0.4780
N3_3 N 0.7786(2) 0.5203(6) 0.3723(5)
O17_3 O 0.76128(19) 0.5351(7) 0.4330(4)
C28_3 C 0.9095(2) 0.5770(6) 0.5053(4)
C59_3 C 0.9095(2) 0.4230(6) 0.0053(4)
O22_3 O 0.76113(19) 0.4844(7) 0.8132(5)
O23_3 O 0.97388(14) 0.5817(4) 0.8795(3)
C34_3 C 0.90943(19) 0.4985(5) 0.8730(4)
C35_3 C 0.9561(2) 0.4944(6) 0.8716(4)
O33_3 O 0.97326(15) 0.4093(4) 0.8694(3)
C36_3 C 0.8879(2) 0.4622(5) 0.9355(4)
C37_3 C 0.8869(2) 0.5329(5) 0.8100(4)
C39_3 C 0.9065(2) 0.5739(6) 0.7387(4)
C46_3 C 0.8436(2) 0.5267(6) 0.8102(4)
H14_3 H 0.8285 0.5490 0.7687
C47_3 C 0.8240(2) 0.4878(6) 0.8719(5)
O42_3 O 0.88579(17) 0.6315(5) 0.6985(4)
C52_3 C 0.8454(2) 0.4570(6) 0.9357(4)
H16_3 H 0.8313 0.4332 0.9780
N9_3 N 0.7786(2) 0.4797(6) 0.8723(5)
O46_3 O 0.76128(19) 0.4649(7) 0.9330(4)
O3_4 O 0.52612(14) 0.0817(4) 0.8795(3)
C6_4 C 0.6131(2) 0.0329(5) 0.8100(4)
C8_4 C 0.5935(2) 0.0739(6) 0.7387(4)
C15_4 C 0.6564(2) 0.0267(6) 0.8102(4)
H5_4 H 0.6715 0.0490 0.7687
O22_4 O 0.73887(19) 0.0156(7) 0.3132(5)
C34_4 C 0.59057(19) 0.0015(5) 0.3730(4)
C35_4 C 0.5439(2) 0.0056(6) 0.3716(4)
O33_4 O 0.52674(15) 0.0907(4) 0.3694(3)
C36_4 C 0.6121(2) 0.0378(5) 0.4355(4)
C47_4 C 0.6760(2) 0.0122(6) 0.3719(5)
C52_4 C 0.6546(2) 0.0430(6) 0.4357(4)
H16_4 H 0.6687 0.0668 0.4780
N9_4 N 0.7214(2) 0.0203(6) 0.3723(5)
O46_4 O 0.73872(19) 0.0351(7) 0.4330(4)
C59_4 C 0.5905(2) 0.0770(6) 0.5053(4)
O12_4 O 0.6064(2) 0.8438(7) 0.0317(4)
C28_4 C 0.5905(2) 0.9230(6) 0.0053(4)
O2_4 O 0.73887(19) 0.9844(7) 0.8132(5)
C3_4 C 0.59057(19) 0.9985(5) 0.8730(4)
C4_4 C 0.5439(2) 0.9944(6) 0.8716(4)
O8_4 O 0.52674(15) 0.9093(4) 0.8694(3)
C5_4 C 0.6121(2) 0.9622(5) 0.9355(4)
C16_4 C 0.6760(2) 0.9878(6) 0.8719(5)
C21_4 C 0.6546(2) 0.9570(6) 0.9357(4)
H7_4 H 0.6687 0.9332 0.9780
N3_4 N 0.7214(2) 0.9797(6) 0.8723(5)
O17_4 O 0.73872(19) 0.9649(7) 0.9330(4)
O23_4 O 0.52612(14) 0.9183(4) 0.3795(3)
O25_4 O 0.45955(13) 0.7595(3) 0.3754(2)
C37_4 C 0.6131(2) 0.9671(5) 0.3100(4)
C39_4 C 0.5935(2) 0.9261(6) 0.2387(4)
C46_4 C 0.6564(2) 0.9733(6) 0.3102(4)
H14_4 H 0.6715 0.9510 0.2687
O42_4 O 0.61421(17) 0.8685(5) 0.1985(4)
Zn4_4 Zn 0.0000 0.00408(9) 0.7500
C32_3 C 0.2508(5) 0.3361(12) 0.9168(11)
C33_3 C 0.2521(7) 0.239(3) 0.9017(9)
C38_3 C 0.0967(2) 0.2630(6) 0.8479(5)
C42_3 C 0.1013(2) 0.0733(6) 0.5851(5)
C43_3 C 0.0620(2) 0.1034(6) 0.8554(4)
H11_3 H 0.0566 0.0431 0.8823
C44_3 C 0.1370(2) 0.1208(6) 0.6050(5)
H12_3 H 0.1485 0.1706 0.5735
C45_3 C 0.1405(2) 0.0225(6) 0.7187(5)
H13_3 H 0.1544 0.0059 0.7631
C49_3 C 0.0877(3) 0.1723(6) 0.8865(5)
H15_3 H 0.0995 0.1595 0.9334
N8_3 N 0.04307(18) 0.1149(4) 0.7878(3)
C51_3 C 0.1252(2) 0.3449(6) 0.8838(5)
C53_3 C 0.1565(2) 0.0955(6) 0.6724(5)
C54_3 C 0.0785(3) 0.1071(6) 0.5161(5)
O45_3 O 0.2088(2) 0.1333(8) 0.7559(5)
C55_3 C 0.0784(3) 0.2764(6) 0.7791(5)
H17_3 H 0.0834 0.3358 0.7511
O47_3 O 0.2073(3) 0.2168(7) 0.6499(6)
N10_3 N 0.1941(3) 0.1529(7) 0.6939(7)
C56_3 C 0.0525(3) 0.2011(6) 0.7518(5)
H18_3 H 0.0407 0.2115 0.7045
C57_3 C 0.1712(3) 0.3060(10) 0.8726(7)
C58_3 C 0.2000(4) 0.3724(15) 0.9121(10)
C60_3 C 0.3034(4) 0.217(2) 0.9095(17)
C61_3 C 0.3138(5) 0.3761(15) 0.9085(10)
C62_3 C 0.2712(6) 0.397(3) 0.897(2)
H28_3 H 0.227085 0.185894 0.887782
H32_3 H 0.120901 0.419096 0.855945
H33_3 H 0.118304 0.352729 0.943704
H34_3 H 0.313086 0.143561 0.933696
H35_3 H 0.335107 0.435266 0.928515
H36_3 H 0.188875 0.379849 0.969879
H37_3 H 0.199032 0.447506 0.884504
H38_3 H 0.173944 0.22774 0.894536
H39_3 H 0.178627 0.306287 0.812634
H40_3 H 0.259945 0.467653 0.870717
H20_3 H 0.00938272 0.660033 0.0477822
O29_3 O 0.00994(14) 0.9667(4) 0.6391(3)
O34_3 O 0.01429(16) 0.6895(4) 0.4808(3)
H10_3 H 0.0247 0.6445 0.5072
O35_3 O 0.04845(16) 0.8789(4) 0.7588(3)
C40_3 C 0.0837(2) 0.9984(5) 0.6344(4)
C41_3 C 0.1038(2) 0.9717(5) 0.7012(4)
O36_3 O 0.04869(14) 0.8710(4) 0.5624(3)
C48_3 C 0.0442(2) 0.9419(6) 0.6112(4)
O44_3 O 0.11300(18) 0.8525(6) 0.7958(4)
C50_3 C 0.0864(3) 0.8962(6) 0.7559(4)
C1_3 C 0.7492(5) 0.3361(12) 0.5832(11)
C2_3 C 0.7479(7) 0.239(3) 0.5983(9)
Zn4_5 Zn 1.0000 0.00408(9) 0.7500
C7_3 C 0.9033(2) 0.2630(6) 0.6521(5)
C11_3 C 0.8987(2) 0.0733(6) 0.9149(5)
C12_3 C 0.9380(2) 0.1034(6) 0.6446(4)
H2_3 H 0.9434 0.0431 0.6177
C13_3 C 0.8630(2) 0.1208(6) 0.8950(5)
H3_3 H 0.8515 0.1706 0.9265
C14_3 C 0.8595(2) 0.0225(6) 0.7813(5)
H4_3 H 0.8456 0.0059 0.7369
C18_3 C 0.9123(3) 0.1723(6) 0.6135(5)
H6_3 H 0.9005 0.1595 0.5666
N2_3 N 0.95693(18) 0.1149(4) 0.7122(3)
C20_3 C 0.8748(2) 0.3449(6) 0.6162(5)
C22_3 C 0.8435(2) 0.0955(6) 0.8276(5)
C23_3 C 0.9215(3) 0.1071(6) 0.9839(5)
O16_3 O 0.7912(2) 0.1333(8) 0.7441(5)
C24_3 C 0.9216(3) 0.2764(6) 0.7209(5)
H8_3 H 0.9166 0.3358 0.7489
O18_3 O 0.7927(3) 0.2168(7) 0.8501(6)
N4_3 N 0.8059(3) 0.1529(7) 0.8061(7)
C25_3 C 0.9475(3) 0.2011(6) 0.7482(5)
H9_3 H 0.9593 0.2115 0.7955
C26_3 C 0.8288(3) 0.3060(10) 0.6274(7)
C27_3 C 0.8000(4) 0.3724(15) 0.5879(10)
C29_3 C 0.6966(4) 0.217(2) 0.5905(17)
C30_3 C 0.6862(5) 0.3761(15) 0.5915(10)
C31_3 C 0.7288(6) 0.397(3) 0.603(2)
H19_3 H 0.772915 0.185894 0.612218
H21_3 H 0.826056 0.22774 0.605464
H22_3 H 0.821373 0.306287 0.687366
H23_3 H 0.879099 0.419096 0.644055
H24_3 H 0.881696 0.352729 0.556296
H25_3 H 0.811125 0.379849 0.530121
H26_3 H 0.800968 0.447506 0.615496
H27_3 H 0.664893 0.435266 0.571485
H29_3 H 0.740055 0.467653 0.629283
H30_3 H 0.686914 0.143561 0.566304
O9_3 O 0.98571(16) 0.6895(4) 0.0192(3)
O6_3 O 0.99006(14) 0.9667(4) 0.8609(3)
H1_3 H 0.9753 0.6445 0.9928
O10_3 O 0.95155(16) 0.8789(4) 0.7412(3)
C9_3 C 0.9163(2) 0.9984(5) 0.8656(4)
C10_3 C 0.8962(2) 0.9717(5) 0.7988(4)
O11_3 O 0.95131(14) 0.8710(4) 0.9376(3)
C17_3 C 0.9558(2) 0.9419(6) 0.8888(4)
O15_3 O 0.88700(18) 0.8525(6) 0.7042(4)
C19_3 C 0.9136(3) 0.8962(6) 0.7441(4)
H31_3 H 0.990617 0.660033 0.452218
C1_4 C 0.7508(5) 0.1639(12) 0.0832(11)
C2_4 C 0.7521(7) 0.261(3) 0.0983(9)
Zn4_6 Zn 0.5000 0.49592(9) 0.2500
O6_4 O 0.50994(14) 0.5333(4) 0.3609(3)
C7_4 C 0.5967(2) 0.2370(6) 0.1521(5)
O9_4 O 0.51429(16) 0.8105(4) 0.5192(3)
H1_4 H 0.5247 0.8555 0.4928
O10_4 O 0.54845(16) 0.6211(4) 0.2412(3)
C9_4 C 0.5837(2) 0.5016(5) 0.3656(4)
C10_4 C 0.6038(2) 0.5283(5) 0.2988(4)
C11_4 C 0.6013(2) 0.4267(6) 0.4149(5)
C12_4 C 0.5620(2) 0.3966(6) 0.1446(4)
H2_4 H 0.5566 0.4569 0.1177
O11_4 O 0.54869(14) 0.6290(4) 0.4376(3)
C13_4 C 0.6370(2) 0.3792(6) 0.3950(5)
H3_4 H 0.6485 0.3294 0.4265
C14_4 C 0.6405(2) 0.4775(6) 0.2813(5)
H4_4 H 0.6544 0.4941 0.2369
C17_4 C 0.5442(2) 0.5581(6) 0.3888(4)
C18_4 C 0.5877(3) 0.3277(6) 0.1135(5)
H6_4 H 0.5995 0.3405 0.0666
N2_4 N 0.54307(18) 0.3851(4) 0.2122(3)
O15_4 O 0.61300(18) 0.6475(6) 0.2042(4)
C19_4 C 0.5864(3) 0.6038(6) 0.2441(4)
C20_4 C 0.6252(2) 0.1551(6) 0.1162(5)
C22_4 C 0.6565(2) 0.4045(6) 0.3276(5)
C23_4 C 0.5785(3) 0.3929(6) 0.4839(5)
O16_4 O 0.7088(2) 0.3667(8) 0.2441(5)
C24_4 C 0.5784(3) 0.2236(6) 0.2209(5)
H8_4 H 0.5834 0.1642 0.2489
O18_4 O 0.7073(3) 0.2832(7) 0.3501(6)
N4_4 N 0.6941(3) 0.3471(7) 0.3061(7)
C25_4 C 0.5525(3) 0.2989(6) 0.2482(5)
H9_4 H 0.5407 0.2885 0.2955
C26_4 C 0.6712(3) 0.1940(10) 0.1274(7)
C27_4 C 0.7000(4) 0.1276(15) 0.0879(10)
C29_4 C 0.8034(4) 0.283(2) 0.0905(17)
C30_4 C 0.8138(5) 0.1239(15) 0.0915(10)
C31_4 C 0.7712(6) 0.103(3) 0.103(2)
C32_4 C 0.2492(5) 0.1639(12) 0.4168(11)
C33_4 C 0.2479(7) 0.261(3) 0.4017(9)
O29_4 O 0.49006(14) 0.5333(4) 0.1391(3)
C38_4 C 0.4033(2) 0.2370(6) 0.3479(5)
H10_4 H 0.4753 0.8555 0.0072
O35_4 O 0.45155(16) 0.6211(4) 0.2588(3)
C40_4 C 0.4163(2) 0.5016(5) 0.1344(4)
C41_4 C 0.3962(2) 0.5283(5) 0.2012(4)
C42_4 C 0.3987(2) 0.4267(6) 0.0851(5)
C43_4 C 0.4380(2) 0.3966(6) 0.3554(4)
H11_4 H 0.4434 0.4569 0.3823
O36_4 O 0.45131(14) 0.6290(4) 0.0624(3)
C44_4 C 0.3630(2) 0.3792(6) 0.1050(5)
H12_4 H 0.3515 0.3294 0.0735
C45_4 C 0.3595(2) 0.4775(6) 0.2187(5)
H13_4 H 0.3456 0.4941 0.2631
C48_4 C 0.4558(2) 0.5581(6) 0.1112(4)
C49_4 C 0.4123(3) 0.3277(6) 0.3865(5)
H15_4 H 0.4005 0.3405 0.4334
N8_4 N 0.45693(18) 0.3851(4) 0.2878(3)
O44_4 O 0.38700(18) 0.6475(6) 0.2958(4)
C50_4 C 0.4136(3) 0.6038(6) 0.2559(4)
C51_4 C 0.3748(2) 0.1551(6) 0.3838(5)
C53_4 C 0.3435(2) 0.4045(6) 0.1724(5)
C54_4 C 0.4215(3) 0.3929(6) 0.0161(5)
O45_4 O 0.2912(2) 0.3667(8) 0.2559(5)
C55_4 C 0.4216(3) 0.2236(6) 0.2791(5)
H17_4 H 0.4166 0.1642 0.2511
O47_4 O 0.2927(3) 0.2832(7) 0.1499(6)
N10_4 N 0.3059(3) 0.3471(7) 0.1939(7)
C56_4 C 0.4475(3) 0.2989(6) 0.2518(5)
H18_4 H 0.4593 0.2885 0.2045
C57_4 C 0.3288(3) 0.1940(10) 0.3726(7)
C58_4 C 0.3000(4) 0.1276(15) 0.4121(10)
C60_4 C 0.1966(4) 0.283(2) 0.4095(17)
C61_4 C 0.1862(5) 0.1239(15) 0.4085(10)
C62_4 C 0.2288(6) 0.103(3) 0.397(2)
H19_4 H 0.727085 0.314106 0.112218
H20_4 H 0.490617 0.839967 0.547782
H21_4 H 0.673944 0.27226 0.105464
H22_4 H 0.678627 0.193713 0.187366
H23_4 H 0.620901 0.0809043 0.144055
H24_4 H 0.618304 0.147271 0.0562962
H25_4 H 0.688875 0.120151 0.0301207
H26_4 H 0.699032 0.0524939 0.115496
H27_4 H 0.835107 0.0647345 0.0714847
H28_4 H 0.272915 0.314106 0.387782
H29_4 H 0.759945 0.0323473 0.129283
H30_4 H 0.813086 0.356439 0.0663044
H32_4 H 0.379099 0.0809043 0.355945
H33_4 H 0.381696 0.147271 0.443704
H34_4 H 0.186914 0.356439 0.433696
H35_4 H 0.164893 0.0647345 0.428515
H36_4 H 0.311125 0.120151 0.469879
H37_4 H 0.300968 0.0524939 0.384504
H38_4 H 0.326056 0.27226 0.394536
H39_4 H 0.321373 0.193713 0.312634
H40_4 H 0.240055 0.0323473 0.370717
O34_4 O 0.48571(16) 0.8105(4) 0.9808(3)
H31_4 H 0.509383 0.839967 0.952218
loop_
_geom_bond_atom_site_label_1
_geom_bond_atom_site_label_2
_geom_bond_site_symmetry_1
_geom_bond_site_symmetry_2
O2 N3 1_555 1_555
Zn1 O4 1_555 1_555
O3 C4 1_555 1_555
O4 Zn13 1_555 1_555
O6 C17 1_555 1_555
O7 C8 1_555 1_555
C3 C4 1_555 1_555
C4 O8 1_555 1_555
C5 C3 1_555 1_555
C6 C3 1_555 1_555
C8 C6 1_555 1_555
C9 C10 1_555 1_555
C15 C6 1_555 1_555
H5 C15 1_555 1_555
C16 C15 1_555 1_555
C17 C9 1_555 1_555
O14 Zn1 1_555 1_555
O15 Zn1 1_555 1_555
C19 O10 1_555 1_555
C21 C5 1_555 1_555
H7 C21 1_555 1_555
N3 C16 1_555 1_555
O17 N3 1_555 1_555
O20 Zn1 1_555 1_555
O22 N9 1_555 1_555
Zn11 O42 1_555 1_555
Zn13 O7 1_555 1_555
Zn15 O30 1_555 1_555
Zn16 O4 1_555 1_555
O23 C35 1_555 1_555
O26 Zn13 1_555 1_555
O30 C39 1_555 1_555
C34 C35 1_555 1_555
C35 O33 1_555 1_555
C36 C34 1_555 1_555
C37 C34 1_555 1_555
C39 C37 1_555 1_555
N6 Zn1 1_555 1_555
O37 Zn1 1_555 1_555
O41 Zn16 1_555 1_555
C46 C37 1_555 1_555
H14 C46 1_555 1_555
C47 C46 1_555 1_555
O42 C39 1_555 1_555
C52 C36 1_555 1_555
H16 C52 1_555 1_555
N9 C47 1_555 1_555
O46 N9 1_555 1_555
C59 O26 1_555 1_555
C8 O14 1_555 1_555
C10 C19 1_555 1_555
O11 C17 1_555 1_555
C16 C21 1_555 1_555
O15 C19 1_555 1_555
C36 C59 1_555 1_555
O37 C59 1_555 1_555
C47 C52 1_555 1_555
O5 C28 1_555 1_555
O12 C28 1_555 1_555
Zn11 O12 1_555 1_555
Zn15 O5 1_555 1_555
C1 C2 1_555 1_555
C2 C29 1_555 1_555
C7 C18 1_555 1_555
C12 H2 1_555 1_555
N1 C29 1_555 1_555
O13 C23 1_555 1_555
C13 C11 1_555 1_555
H3 C13 1_555 1_555
C14 H4 1_555 1_555
C18 C12 1_555 1_555
H6 C18 1_555 1_555
N2 Zn4 1_555 1_555
C20 C7 1_555 1_555
C22 C13 1_555 1_555
C23 C11 1_555 1_555
O16 N4 1_555 1_555
C24 C7 1_555 1_555
H8 C24 1_555 1_555
O18 N4 1_555 1_555
N4 C22 1_555 1_555
C25 N2 1_555 1_555
H9 C25 1_555 1_555
C26 C20 1_555 1_555
C27 C1 1_555 1_555
C30 N1 1_555 1_555
C31 C1 1_555 1_555
Zn7 N1 1_555 1_555
C12 N2 1_555 1_555
C14 C22 1_555 1_555
C24 C25 1_555 1_555
C26 C27 1_555 1_555
C30 C31 1_555 1_555
C2 H19 1_555 1_555
C26 H21 1_555 1_555
C26 H22 1_555 1_555
C20 H23 1_555 1_555
C20 H24 1_555 1_555
C27 H25 1_555 1_555
C27 H26 1_555 1_555
C30 H27 1_555 1_555
C31 H29 1_555 1_555
C29 H30 1_555 1_555
Zn11 O1 1_555 1_555
O21 Zn5 1_555 1_555
Zn5 O24 1_555 1_555
O24 Zn2 1_555 1_555
O25 Zn12 1_555 1_555
O27 Zn2 1_555 1_555
O28 Zn12 1_555 1_555
O31 Zn2 1_555 1_555
O32 Zn12 1_555 1_555
H10 O34 1_555 1_555
C40 C41 1_555 1_555
N7 Zn5 1_555 1_555
O38 Zn5 1_555 1_555
C48 O29 1_555 1_555
O43 Zn5 1_555 1_555
O44 Zn5 1_555 1_555
C50 O35 1_555 1_555
Zn3 O24 1_555 1_555
C40 C48 1_555 1_555
C41 C50 1_555 1_555
O36 C48 1_555 1_555
O44 C50 1_555 1_555
C32 C33 1_555 1_555
C33 C60 1_555 1_555
O19 Zn9 1_555 1_555
Zn10 N5 1_555 1_555
Zn18 O39 1_555 1_555
C38 C49 1_555 1_555
C43 H11 1_555 1_555
N5 C60 1_555 1_555
O39 C54 1_555 1_555
C44 C42 1_555 1_555
H12 C44 1_555 1_555
C45 H13 1_555 1_555
C49 C43 1_555 1_555
H15 C49 1_555 1_555
N8 Zn4_2 1_555 1_555
C51 C38 1_555 1_555
C53 C44 1_555 1_555
C54 O19 1_555 1_555
O45 N10 1_555 1_555
C55 C38 1_555 1_555
H17 C55 1_555 1_555
O47 N10 1_555 1_555
N10 C53 1_555 1_555
C56 N8 1_555 1_555
H18 C56 1_555 1_555
C57 C51 1_555 1_555
C58 C32 1_555 1_555
C61 N5 1_555 1_555
C62 C32 1_555 1_555
C42 C54 1_555 1_555
C43 N8 1_555 1_555
C45 C53 1_555 1_555
C55 C56 1_555 1_555
C57 C58 1_555 1_555
C61 C62 1_555 1_555
C33 H28 1_555 1_555
C51 H32 1_555 1_555
C51 H33 1_555 1_555
C60 H34 1_555 1_555
C61 H35 1_555 1_555
C58 H36 1_555 1_555
C58 H37 1_555 1_555
C57 H38 1_555 1_555
C57 H39 1_555 1_555
C62 H40 1_555 1_555
O19_2 Zn10 1_555 1_555
O22_2 N9_2 1_555 1_555
C34_2 C35_2 1_555 1_555
C35_2 O33_2 1_555 1_555
C36_2 C34_2 1_555 1_555
C52_2 C36_2 1_555 1_555
H16_2 C52_2 1_555 1_555
N9_2 C47_2 1_555 1_555
O46_2 N9_2 1_555 1_555
C47_2 C52_2 1_555 1_555
O34_2 H31_2 1_555 1_555
C1_2 C2_2 1_555 1_555
C2_2 C29_2 1_555 1_555
O1_2 C23_2 1_555 1_555
Zn1_2 O4_2 1_555 1_555
Zn2_2 O3_2 1_555 1_555
Zn3_2 O9_2 1_555 1_555
Zn4_3 O6_2 1_555 1_555
O4_2 Zn13_2 1_555 1_555
O6_2 C17_2 1_555 1_555
O7_2 C8_2 1_555 1_555
C7_2 C18_2 1_555 1_555
C8_2 C6_2 1_555 1_555
O9_2 H1_2 1_555 1_555
O10_2 Zn4_3 1_555 1_555
C9_2 C10_2 1_555 1_555
C10_2 C14_2 1_555 1_555
C11_2 C9_2 1_555 1_555
C12_2 H2_2 1_555 1_555
N1_2 C29_2 1_555 1_555
O11_2 Zn3_2 1_555 1_555
O13_2 C23_2 1_555 1_555
C13_2 C11_2 1_555 1_555
H3_2 C13_2 1_555 1_555
C14_2 H4_2 1_555 1_555
C15_2 C6_2 1_555 1_555
H5_2 C15_2 1_555 1_555
C17_2 C9_2 1_555 1_555
C18_2 C12_2 1_555 1_555
H6_2 C18_2 1_555 1_555
N2_2 Zn4_3 1_555 1_555
O14_2 Zn1_2 1_555 1_555
O15_2 Zn1_2 1_555 1_555
C19_2 O10_2 1_555 1_555
C20_2 C7_2 1_555 1_555
C22_2 C13_2 1_555 1_555
C23_2 C11_2 1_555 1_555
O16_2 N4_2 1_555 1_555
C24_2 C7_2 1_555 1_555
H8_2 C24_2 1_555 1_555
O18_2 N4_2 1_555 1_555
N4_2 C22_2 1_555 1_555
C25_2 N2_2 1_555 1_555
H9_2 C25_2 1_555 1_555
C26_2 C20_2 1_555 1_555
C27_2 C1_2 1_555 1_555
C30_2 N1_2 1_555 1_555
C31_2 C1_2 1_555 1_555
C32_2 C33_2 1_555 1_555
C33_2 C60_2 1_555 1_555
O20_2 Zn1_2 1_555 1_555
O21_2 Zn5_2 1_555 1_555
Zn5_2 O24_2 1_555 1_555
Zn7 O1_2 1_555 1_555
Zn11 N1_2 1_555 1_555
Zn9 N5_2 1_555 1_555
Zn13_2 O7_2 1_555 1_555
Zn16_2 O4_2 1_555 1_555
Zn17_2 O13_2 1_555 1_555
O24_2 Zn2_2 1_555 1_555
O26_2 Zn13_2 1_555 1_555
O27_2 Zn2_2 1_555 1_555
O29_2 Zn4_3 1_555 1_555
O31_2 Zn2_2 1_555 1_555
C38_2 C49_2 1_555 1_555
O35_2 Zn4_3 1_555 1_555
C40_2 C41_2 1_555 1_555
C41_2 C45_2 1_555 1_555
C42_2 C40_2 1_555 1_555
C43_2 H11_2 1_555 1_555
N5_2 C60_2 1_555 1_555
N6_2 Zn1_2 1_555 1_555
N7_2 Zn5_2 1_555 1_555
O36_2 Zn16_2 1_555 1_555
O37_2 Zn1_2 1_555 1_555
O38_2 Zn5_2 1_555 1_555
O39_2 C54_2 1_555 1_555
O40_2 Zn3_2 1_555 1_555
C44_2 C42_2 1_555 1_555
H12_2 C44_2 1_555 1_555
C45_2 H13_2 1_555 1_555
C48_2 O29_2 1_555 1_555
C49_2 C43_2 1_555 1_555
H15_2 C49_2 1_555 1_555
N8_2 Zn4_3 1_555 1_555
O43_2 Zn5_2 1_555 1_555
O44_2 Zn5_2 1_555 1_555
C50_2 O35_2 1_555 1_555
C51_2 C38_2 1_555 1_555
C53_2 C44_2 1_555 1_555
O45_2 N10_2 1_555 1_555
C55_2 C38_2 1_555 1_555
H17_2 C55_2 1_555 1_555
O47_2 N10_2 1_555 1_555
N10_2 C53_2 1_555 1_555
C56_2 N8_2 1_555 1_555
H18_2 C56_2 1_555 1_555
C57_2 C51_2 1_555 1_555
C58_2 C32_2 1_555 1_555
C59_2 O26_2 1_555 1_555
C61_2 N5_2 1_555 1_555
C62_2 C32_2 1_555 1_555
Zn3_2 O24_2 1_555 1_555
C8_2 O14_2 1_555 1_555
C10_2 C19_2 1_555 1_555
C12_2 N2_2 1_555 1_555
O11_2 C17_2 1_555 1_555
C14_2 C22_2 1_555 1_555
O15_2 C19_2 1_555 1_555
C24_2 C25_2 1_555 1_555
C26_2 C27_2 1_555 1_555
C30_2 C31_2 1_555 1_555
C40_2 C48_2 1_555 1_555
C41_2 C50_2 1_555 1_555
C42_2 C54_2 1_555 1_555
C43_2 N8_2 1_555 1_555
O36_2 C48_2 1_555 1_555
O37_2 C59_2 1_555 1_555
C45_2 C53_2 1_555 1_555
O44_2 C50_2 1_555 1_555
C55_2 C56_2 1_555 1_555
C57_2 C58_2 1_555 1_555
C61_2 C62_2 1_555 1_555
C2_2 H19_2 1_555 1_555
O9_2 H20_2 1_555 1_555
C26_2 H21_2 1_555 1_555
C26_2 H22_2 1_555 1_555
C20_2 H23_2 1_555 1_555
C20_2 H24_2 1_555 1_555
C27_2 H25_2 1_555 1_555
C27_2 H26_2 1_555 1_555
C30_2 H27_2 1_555 1_555
C33_2 H28_2 1_555 1_555
C31_2 H29_2 1_555 1_555
C29_2 H30_2 1_555 1_555
C51_2 H32_2 1_555 1_555
C51_2 H33_2 1_555 1_555
C60_2 H34_2 1_555 1_555
C61_2 H35_2 1_555 1_555
C58_2 H36_2 1_555 1_555
C58_2 H37_2 1_555 1_555
C57_2 H38_2 1_555 1_555
C57_2 H39_2 1_555 1_555
C62_2 H40_2 1_555 1_555
Zn7 O42_2 1_555 1_555
Zn12_2 O23_2 1_555 1_555
Zn15_2 O30_2 1_555 1_555
O25_2 Zn12_2 1_555 1_555
O28_2 Zn12_2 1_555 1_555
O30_2 C39_2 1_555 1_555
O32_2 Zn12_2 1_555 1_555
C39_2 C37_2 1_555 1_555
C46_2 C37_2 1_555 1_555
H14_2 C46_2 1_555 1_555
O42_2 C39_2 1_555 1_555
O2_2 N3_2 1_555 1_555
O5_2 C28_2 1_555 1_555
C3_2 C4_2 1_555 1_555
C4_2 O8_2 1_555 1_555
C5_2 C3_2 1_555 1_555
O12_2 C28_2 1_555 1_555
C21_2 C5_2 1_555 1_555
H7_2 C21_2 1_555 1_555
N3_2 C16_2 1_555 1_555
O17_2 N3_2 1_555 1_555
C28_2 C5_2 1_555 1_555
Zn7 O12_2 1_555 1_555
Zn15_2 O5_2 1_555 1_555
C16_2 C21_2 1_555 1_555
O25_3 Zn15 1_555 1_555
O2_3 N3_3 1_555 1_555
O3_3 C4_3 1_555 1_555
O28 C28_3 1_555 1_555
O31 C8_3 1_555 1_555
C3_3 C4_3 1_555 1_555
C4_3 O8_3 1_555 1_555
C5_3 C3_3 1_555 1_555
C6_3 C3_3 1_555 1_555
C8_3 C6_3 1_555 1_555
O12_3 C28_3 1_555 1_555
C15_3 C6_3 1_555 1_555
H5_3 C15_3 1_555 1_555
C16_3 C15_3 1_555 1_555
C21_3 C5_3 1_555 1_555
H7_3 C21_3 1_555 1_555
N3_3 C16_3 1_555 1_555
O17_3 N3_3 1_555 1_555
C28_3 C5_3 1_555 1_555
Zn9 O12_3 1_555 1_555
C59_3 O27 1_555 1_555
C8_3 O43 1_555 1_555
C16_3 C21_3 1_555 1_555
O38 C59_3 1_555 1_555
O22_3 N9_3 1_555 1_555
Zn9 O42_3 1_555 1_555
O23_3 C35_3 1_555 1_555
O32 C39_3 1_555 1_555
C34_3 C35_3 1_555 1_555
C35_3 O33_3 1_555 1_555
C36_3 C34_3 1_555 1_555
C37_3 C34_3 1_555 1_555
C39_3 C37_3 1_555 1_555
C46_3 C37_3 1_555 1_555
H14_3 C46_3 1_555 1_555
C47_3 C46_3 1_555 1_555
O42_3 C39_3 1_555 1_555
C52_3 C36_3 1_555 1_555
H16_3 C52_3 1_555 1_555
N9_3 C47_3 1_555 1_555
O46_3 N9_3 1_555 1_555
C47_3 C52_3 1_555 1_555
Zn13_2 O3_4 1_555 1_555
O31_2 C8_4 1_555 1_555
C8_4 C6_4 1_555 1_555
C15_4 C6_4 1_555 1_555
H5_4 C15_4 1_555 1_555
O22_4 N9_4 1_555 1_555
C34_4 C35_4 1_555 1_555
C35_4 O33_4 1_555 1_555
C36_4 C34_4 1_555 1_555
C52_4 C36_4 1_555 1_555
H16_4 C52_4 1_555 1_555
N9_4 C47_4 1_555 1_555
O46_4 N9_4 1_555 1_555
C59_4 O27_2 1_555 1_555
C8_4 O43_2 1_555 1_555
C36_4 C59_4 1_555 1_555
O38_2 C59_4 1_555 1_555
C47_4 C52_4 1_555 1_555
O28_2 C28_4 1_555 1_555
O12_4 C28_4 1_555 1_555
Zn10 O12_4 1_555 1_555
O2_4 N3_4 1_555 1_555
C3_4 C4_4 1_555 1_555
C4_4 O8_4 1_555 1_555
C5_4 C3_4 1_555 1_555
C21_4 C5_4 1_555 1_555
H7_4 C21_4 1_555 1_555
N3_4 C16_4 1_555 1_555
O17_4 N3_4 1_555 1_555
Zn10 O42_4 1_555 1_555
Zn15_2 O23_4 1_555 1_555
O25_4 Zn15_2 1_555 1_555
O32_2 C39_4 1_555 1_555
C39_4 C37_4 1_555 1_555
C46_4 C37_4 1_555 1_555
H14_4 C46_4 1_555 1_555
O42_4 C39_4 1_555 1_555
C16_4 C21_4 1_555 1_555
C32_3 C33_3 1_555 1_555
C33_3 C60_3 1_555 1_555
C38_3 C49_3 1_555 1_555
C43_3 H11_3 1_555 1_555
N6_2 C60_3 1_555 1_555
O41 C54_3 1_555 1_555
C44_3 C42_3 1_555 1_555
H12_3 C44_3 1_555 1_555
C45_3 H13_3 1_555 1_555
C49_3 C43_3 1_555 1_555
H15_3 C49_3 1_555 1_555
N8_3 Zn4_4 1_555 1_555
C51_3 C38_3 1_555 1_555
C53_3 C44_3 1_555 1_555
C54_3 O20 1_555 1_555
O45_3 N10_3 1_555 1_555
C55_3 C38_3 1_555 1_555
H17_3 C55_3 1_555 1_555
O47_3 N10_3 1_555 1_555
N10_3 C53_3 1_555 1_555
C56_3 N8_3 1_555 1_555
H18_3 C56_3 1_555 1_555
C57_3 C51_3 1_555 1_555
C58_3 C32_3 1_555 1_555
C61_3 N6_2 1_555 1_555
C62_3 C32_3 1_555 1_555
C42_3 C54_3 1_555 1_555
C43_3 N8_3 1_555 1_555
C45_3 C53_3 1_555 1_555
C55_3 C56_3 1_555 1_555
C57_3 C58_3 1_555 1_555
C61_3 C62_3 1_555 1_555
C33_3 H28_3 1_555 1_555
C51_3 H32_3 1_555 1_555
C51_3 H33_3 1_555 1_555
C60_3 H34_3 1_555 1_555
C61_3 H35_3 1_555 1_555
C58_3 H36_3 1_555 1_555
C58_3 H37_3 1_555 1_555
C57_3 H38_3 1_555 1_555
C57_3 H39_3 1_555 1_555
C62_3 H40_3 1_555 1_555
Zn11 O25_3 1_555 1_555
H10_3 O34_3 1_555 1_555
C40_3 C41_3 1_555 1_555
C48_3 O29_3 1_555 1_555
O44_3 Zn11 1_555 1_555
C50_3 O35_3 1_555 1_555
Zn17 O25_3 1_555 1_555
C40_3 C48_3 1_555 1_555
C41_3 C50_3 1_555 1_555
O36_3 C48_3 1_555 1_555
O44_3 C50_3 1_555 1_555
C1_3 C2_3 1_555 1_555
C2_3 C29_3 1_555 1_555
C7_3 C18_3 1_555 1_555
C12_3 H2_3 1_555 1_555
N7_2 C29_3 1_555 1_555
O40 C23_3 1_555 1_555
C13_3 C11_3 1_555 1_555
H3_3 C13_3 1_555 1_555
C14_3 H4_3 1_555 1_555
C18_3 C12_3 1_555 1_555
H6_3 C18_3 1_555 1_555
N2_3 Zn4_5 1_555 1_555
C20_3 C7_3 1_555 1_555
C22_3 C13_3 1_555 1_555
C23_3 C11_3 1_555 1_555
O16_3 N4_3 1_555 1_555
C24_3 C7_3 1_555 1_555
H8_3 C24_3 1_555 1_555
O18_3 N4_3 1_555 1_555
N4_3 C22_3 1_555 1_555
C25_3 N2_3 1_555 1_555
H9_3 C25_3 1_555 1_555
C26_3 C20_3 1_555 1_555
C27_3 C1_3 1_555 1_555
C30_3 N7_2 1_555 1_555
C31_3 C1_3 1_555 1_555
C12_3 N2_3 1_555 1_555
C14_3 C22_3 1_555 1_555
C24_3 C25_3 1_555 1_555
C26_3 C27_3 1_555 1_555
C30_3 C31_3 1_555 1_555
C2_3 H19_3 1_555 1_555
C26_3 H21_3 1_555 1_555
C26_3 H22_3 1_555 1_555
C20_3 H23_3 1_555 1_555
C20_3 H24_3 1_555 1_555
C27_3 H25_3 1_555 1_555
C27_3 H26_3 1_555 1_555
C30_3 H27_3 1_555 1_555
C31_3 H29_3 1_555 1_555
C29_3 H30_3 1_555 1_555
Zn9 O25 1_555 1_555
O6_3 C17_3 1_555 1_555
C9_3 C10_3 1_555 1_555
C17_3 C9_3 1_555 1_555
O15_3 Zn9 1_555 1_555
C19_3 O10_3 1_555 1_555
Zn18 O25 1_555 1_555
C10_3 C19_3 1_555 1_555
O11_3 C17_3 1_555 1_555
O15_3 C19_3 1_555 1_555
C1_4 C2_4 1_555 1_555
C2_4 C29_4 1_555 1_555
O21_2 C23_4 1_555 1_555
Zn10 O25_2 1_555 1_555
Zn17_2 O9_4 1_555 1_555
Zn4_6 O6_4 1_555 1_555
O6_4 C17_4 1_555 1_555
C7_4 C18_4 1_555 1_555
O9_4 H1_4 1_555 1_555
O10_4 Zn4_6 1_555 1_555
C9_4 C10_4 1_555 1_555
C10_4 C14_4 1_555 1_555
C11_4 C9_4 1_555 1_555
C12_4 H2_4 1_555 1_555
N7 C29_4 1_555 1_555
O11_4 Zn17_2 1_555 1_555
O40_2 C23_4 1_555 1_555
C13_4 C11_4 1_555 1_555
H3_4 C13_4 1_555 1_555
C14_4 H4_4 1_555 1_555
C17_4 C9_4 1_555 1_555
C18_4 C12_4 1_555 1_555
H6_4 C18_4 1_555 1_555
N2_4 Zn4_6 1_555 1_555
O15_4 Zn10 1_555 1_555
C19_4 O10_4 1_555 1_555
C20_4 C7_4 1_555 1_555
C22_4 C13_4 1_555 1_555
C23_4 C11_4 1_555 1_555
O16_4 N4_4 1_555 1_555
C24_4 C7_4 1_555 1_555
H8_4 C24_4 1_555 1_555
O18_4 N4_4 1_555 1_555
N4_4 C22_4 1_555 1_555
C25_4 N2_4 1_555 1_555
H9_4 C25_4 1_555 1_555
C26_4 C20_4 1_555 1_555
C27_4 C1_4 1_555 1_555
C30_4 N7 1_555 1_555
C31_4 C1_4 1_555 1_555
C32_4 C33_4 1_555 1_555
C33_4 C60_4 1_555 1_555
Zn7 O25_4 1_555 1_555
Zn18_2 O25_2 1_555 1_555
O29_4 Zn4_6 1_555 1_555
C38_4 C49_4 1_555 1_555
O35_4 Zn4_6 1_555 1_555
C40_4 C41_4 1_555 1_555
C41_4 C45_4 1_555 1_555
C42_4 C40_4 1_555 1_555
C43_4 H11_4 1_555 1_555
N6 C60_4 1_555 1_555
O36_4 Zn18_2 1_555 1_555
O41_2 C54_4 1_555 1_555
C44_4 C42_4 1_555 1_555
H12_4 C44_4 1_555 1_555
C45_4 H13_4 1_555 1_555
C48_4 O29_4 1_555 1_555
C49_4 C43_4 1_555 1_555
H15_4 C49_4 1_555 1_555
N8_4 Zn4_6 1_555 1_555
O44_4 Zn7 1_555 1_555
C50_4 O35_4 1_555 1_555
C51_4 C38_4 1_555 1_555
C53_4 C44_4 1_555 1_555
O45_4 N10_4 1_555 1_555
C55_4 C38_4 1_555 1_555
H17_4 C55_4 1_555 1_555
O47_4 N10_4 1_555 1_555
N10_4 C53_4 1_555 1_555
C56_4 N8_4 1_555 1_555
H18_4 C56_4 1_555 1_555
C57_4 C51_4 1_555 1_555
C58_4 C32_4 1_555 1_555
C61_4 N6 1_555 1_555
C62_4 C32_4 1_555 1_555
Zn17_2 O25_4 1_555 1_555
C10_4 C19_4 1_555 1_555
C12_4 N2_4 1_555 1_555
O11_4 C17_4 1_555 1_555
C14_4 C22_4 1_555 1_555
O15_4 C19_4 1_555 1_555
C24_4 C25_4 1_555 1_555
C26_4 C27_4 1_555 1_555
C30_4 C31_4 1_555 1_555
C40_4 C48_4 1_555 1_555
C41_4 C50_4 1_555 1_555
C42_4 C54_4 1_555 1_555
C43_4 N8_4 1_555 1_555
O36_4 C48_4 1_555 1_555
C45_4 C53_4 1_555 1_555
O44_4 C50_4 1_555 1_555
C55_4 C56_4 1_555 1_555
C57_4 C58_4 1_555 1_555
C61_4 C62_4 1_555 1_555
C2_4 H19_4 1_555 1_555
O9_4 H20_4 1_555 1_555
C26_4 H21_4 1_555 1_555
C26_4 H22_4 1_555 1_555
C20_4 H23_4 1_555 1_555
C20_4 H24_4 1_555 1_555
C27_4 H25_4 1_555 1_555
C27_4 H26_4 1_555 1_555
C30_4 H27_4 1_555 1_555
C33_4 H28_4 1_555 1_555
C31_4 H29_4 1_555 1_555
C29_4 H30_4 1_555 1_555
C51_4 H32_4 1_555 1_555
C51_4 H33_4 1_555 1_555
C60_4 H34_4 1_555 1_555
C61_4 H35_4 1_555 1_555
C58_4 H36_4 1_555 1_555
C58_4 H37_4 1_555 1_555
C57_4 H38_4 1_555 1_555
C57_4 H39_4 1_555 1_555
C62_4 H40_4 1_555 1_555
O34_4 H31_4 1_555 1_555

#END
