
###############################################################################
#
# This file contains modified crystal structure data generated from the
# MOF subset of the Cambridge Structural Database (CSD) v543 
# hosted by the Cambridge Crystallographic Data Centre (CCDC).
#
# This work is licensed under the Creative Commons
# Attribution-NonCommercial-ShareAlike 4.0 International License.
# To view a copy of this license, visit
# http://creativecommons.org/licenses/by-nc-sa/4.0/
# or send a letter to
# Creative Commons, PO Box 1866, Mountain View, CA 94042, USA.
#
# CIF created using the CSD Python API on 29 September 2022
# The structure has been converted into the P1 space group
# The structure has a 3D framework
# The original CSD entry ITUVOJ is in the tetragonal crystal system
# The framework has been calculated to contain at least 10.0% void space
# The void calculation uses a probe of radius 1.32A, grid spacing 0.4
# The framework is charged, counterions have been retained in the structure
#
###############################################################################

data_ITUVOJ
_chemical_formula_moiety         '(C352 H96 F64 In8 O128 16-)n'
_symmetry_cell_setting           triclinic
_symmetry_space_group_name_H-M   'P 1'
_symmetry_Int_Tables_number      1
_space_group_name_Hall           'P 1'
loop_
_symmetry_equiv_pos_site_id
_symmetry_equiv_pos_as_xyz
1 x,y,z
_cell_length_a                   19.807(5)
_cell_length_b                   19.807(5)
_cell_length_c                   53.454(9)
_cell_angle_alpha                90
_cell_angle_beta                 90
_cell_angle_gamma                90
_cell_volume                     20970.9
loop_
_atom_site_label
_atom_site_type_symbol
_atom_site_fract_x
_atom_site_fract_y
_atom_site_fract_z
In1 In 0.756915(17) 0.006915(17) 0.1250
O1 O 0.7468(2) 0.1327(2) 0.11858(8)
O2 O 0.76273(16) 0.08033(18) 0.15421(7)
O3 O 0.74478(18) 0.39166(16) 0.12138(6)
O4 O 0.74086(15) 0.43837(15) 0.15830(5)
F1 F 0.65510(17) 0.3255(2) 0.22624(5)
F2 F 0.84490(16) 0.1805(2) 0.22430(5)
C1 C 0.7543(3) 0.1338(3) 0.14176(12)
C2 C 0.7439(3) 0.3866(2) 0.14486(9)
C3 C 0.7455(2) 0.3191(3) 0.15713(9)
C4 C 0.7468(2) 0.2595(2) 0.14343(10)
H1 H 0.7445 0.2608 0.1257
C5 C 0.7516(3) 0.1978(3) 0.15575(9)
C6 C 0.7543(3) 0.1964(3) 0.18147(10)
H2 H 0.7579 0.1541 0.1898
C7 C 0.7517(2) 0.2554(3) 0.19564(11)
C8 C 0.7479(2) 0.3172(3) 0.18317(9)
H3 H 0.7470 0.3580 0.1925
C9 C 0.7513(2) 0.2523(3) 0.22321(10)
C10 C 0.7028(3) 0.2877(4) 0.23747(10)
C11 C 0.7961(3) 0.2144(4) 0.23648(10)
In2 In 0.743085(17) 0.506915(17) 0.1250
In3 In 0.743085(17) 0.493085(17) 0.3750
O5 O 0.7532(2) 0.3673(2) 0.38142(8)
O7 O 0.73727(16) 0.41967(18) 0.34579(7)
O8 O 0.83033(18) 0.01273(16) 0.09579(7)
O9 O 0.75522(18) 0.10834(16) 0.37862(6)
O10 O 0.64166(16) 0.00522(18) 0.12862(6)
O12 O 0.75914(15) 0.06163(15) 0.34170(5)
O13 O 0.68837(15) 0.00914(15) 0.09170(5)
F3 F 0.84490(17) 0.1745(2) 0.27376(5)
F4 F 0.65510(16) 0.3195(2) 0.27570(5)
C12 C 0.7457(3) 0.3662(3) 0.35824(12)
C13 C 0.7561(3) 0.1134(2) 0.35514(9)
C14 C 0.7545(2) 0.1809(3) 0.34287(9)
C15 C 0.7532(2) 0.2405(2) 0.35657(10)
H4 H 0.7555 0.2392 0.3743
C16 C 0.7484(3) 0.3022(3) 0.34425(9)
C17 C 0.7457(3) 0.3036(3) 0.31853(10)
H5 H 0.7421 0.3459 0.3102
C18 C 0.7483(2) 0.2446(3) 0.30436(11)
C19 C 0.7521(2) 0.1828(3) 0.31683(9)
H6 H 0.7530 0.1420 0.3075
C20 C 0.7487(2) 0.2477(3) 0.27679(10)
C21 C 0.7972(3) 0.2123(4) 0.26253(10)
C22 C 0.7039(3) 0.2856(4) 0.26352(10)
In4 In 0.756915(17) 0.993085(17) 0.3750
O6 O 0.8827(2) 0.9968(2) 0.13142(8)
O11 O 0.75522(18) 0.89166(16) 0.12138(6)
O14 O 0.75914(15) 0.93837(15) 0.15830(5)
In4_2 In 0.743085(17) 0.006915(17) 0.8750
O6_2 O 0.6173(2) 0.0032(2) 0.63142(8)
O11_2 O 0.74478(18) 0.10834(16) 0.62138(6)
O14_2 O 0.74086(15) 0.06163(15) 0.65830(5)
In1_2 In 0.743085(17) 0.993085(17) 0.6250
O1_2 O 0.7532(2) 0.8673(2) 0.61858(8)
O2_2 O 0.73727(16) 0.91967(18) 0.65421(7)
O3_2 O 0.75522(18) 0.60834(16) 0.62138(6)
O4_2 O 0.75914(15) 0.56163(15) 0.65830(5)
F1_2 F 0.84490(17) 0.6745(2) 0.72624(5)
F2_2 F 0.65510(16) 0.8195(2) 0.72430(5)
C1_2 C 0.7457(3) 0.8662(3) 0.64176(12)
C2_2 C 0.7561(3) 0.6134(2) 0.64486(9)
C3_2 C 0.7545(2) 0.6809(3) 0.65713(9)
C4_2 C 0.7532(2) 0.7405(2) 0.64343(10)
H1_2 H 0.7555 0.7392 0.6257
C5_2 C 0.7484(3) 0.8022(3) 0.65575(9)
C6_2 C 0.7457(3) 0.8036(3) 0.68147(10)
H2_2 H 0.7421 0.8459 0.6898
C7_2 C 0.7483(2) 0.7446(3) 0.69564(11)
C8_2 C 0.7521(2) 0.6828(3) 0.68317(9)
H3_2 H 0.7530 0.6420 0.6925
C9_2 C 0.7487(2) 0.7477(3) 0.72321(10)
C10_2 C 0.7972(3) 0.7123(4) 0.73747(10)
C11_2 C 0.7039(3) 0.7856(4) 0.73648(10)
In2_2 In 0.756915(17) 0.493085(17) 0.6250
In3_2 In 0.756915(17) 0.506915(17) 0.8750
O5_2 O 0.7468(2) 0.6327(2) 0.88142(8)
O7_2 O 0.76273(16) 0.58033(18) 0.84579(7)
O8_2 O 0.66967(18) 0.98727(16) 0.59579(7)
O9_2 O 0.74478(18) 0.89166(16) 0.87862(6)
O10_2 O 0.85834(16) 0.99478(18) 0.62862(6)
O12_2 O 0.74086(15) 0.93837(15) 0.84170(5)
O13_2 O 0.81163(15) 0.99086(15) 0.59170(5)
F3_2 F 0.65510(17) 0.8255(2) 0.77376(5)
F4_2 F 0.84490(16) 0.6805(2) 0.77570(5)
C12_2 C 0.7543(3) 0.6338(3) 0.85824(12)
C13_2 C 0.7439(3) 0.8866(2) 0.85514(9)
C14_2 C 0.7455(2) 0.8191(3) 0.84287(9)
C15_2 C 0.7468(2) 0.7595(2) 0.85657(10)
H4_2 H 0.7445 0.7608 0.8743
C16_2 C 0.7516(3) 0.6978(3) 0.84425(9)
C17_2 C 0.7543(3) 0.6964(3) 0.81853(10)
H5_2 H 0.7579 0.6541 0.8102
C18_2 C 0.7517(2) 0.7554(3) 0.80436(11)
C19_2 C 0.7479(2) 0.8172(3) 0.81683(9)
H6_2 H 0.7470 0.8580 0.8075
C20_2 C 0.7513(2) 0.7523(3) 0.77679(10)
C21_2 C 0.7028(3) 0.7877(4) 0.76253(10)
C22_2 C 0.7961(3) 0.7144(4) 0.76352(10)
In1_3 In 0.243085(17) 0.506915(17) 0.3750
O1_3 O 0.1173(2) 0.4968(2) 0.36858(8)
O2_3 O 0.16967(18) 0.51273(16) 0.40421(7)
F2_3 F 0.0695(2) 0.59490(16) 0.47430(5)
C1_3 C 0.1162(3) 0.5043(3) 0.39176(12)
C5_3 C 0.0522(3) 0.5016(3) 0.40575(9)
C6_3 C 0.0536(3) 0.5043(3) 0.43147(10)
H2_3 H 0.0959 0.5079 0.4398
C11_3 C 0.0356(4) 0.5461(3) 0.48648(10)
In4_3 In 0.256915(17) 0.506915(17) 0.6250
O6_3 O 0.2532(2) 0.6327(2) 0.38142(8)
O8_3 O 0.23727(16) 0.58033(18) 0.34579(7)
O9_3 O 0.14166(16) 0.50522(18) 0.62862(6)
O10_3 O 0.24478(18) 0.39166(16) 0.37862(6)
O11_3 O 0.35834(16) 0.50522(18) 0.37138(6)
O12_3 O 0.18837(15) 0.50914(15) 0.59170(5)
O13_3 O 0.24086(15) 0.43837(15) 0.34170(5)
O14_3 O 0.31163(15) 0.50914(15) 0.40830(5)
F3_3 F 0.0755(2) 0.59490(17) 0.52376(5)
C13_3 C 0.1366(2) 0.5061(3) 0.60514(9)
C14_3 C 0.0691(3) 0.5045(2) 0.59287(9)
C15_3 C 0.0095(2) 0.5032(2) 0.60657(10)
H4_3 H 0.0108 0.5055 0.6243
C18_3 C 0.0054(3) 0.4983(2) 0.55436(11)
C19_3 C 0.0672(3) 0.5021(2) 0.56683(9)
H6_3 H 0.1080 0.5030 0.5575
C20_3 C 0.0023(3) 0.4987(2) 0.52679(10)
C21_3 C 0.0377(4) 0.5472(3) 0.51253(10)
O3_3 O 0.85834(16) 0.49478(18) 0.37138(6)
O4_3 O 0.81163(15) 0.49086(15) 0.40830(5)
F1_3 F 0.9245(2) 0.40510(17) 0.47624(5)
C2_3 C 0.8634(2) 0.4939(3) 0.39486(9)
C3_3 C 0.9309(3) 0.4955(2) 0.40713(9)
C4_3 C 0.9905(2) 0.4968(2) 0.39343(10)
H1_3 H 0.9892 0.4945 0.3757
C7_3 C 0.9946(3) 0.5017(2) 0.44564(11)
C8_3 C 0.9328(3) 0.4979(2) 0.43317(9)
H3_3 H 0.8920 0.4970 0.4425
C9_3 C 0.9977(3) 0.5013(2) 0.47321(10)
C10_3 C 0.9623(4) 0.4528(3) 0.48747(10)
O5_3 O 0.8827(2) 0.5032(2) 0.63142(8)
O7_3 O 0.83033(18) 0.48727(16) 0.59579(7)
F4_3 F 0.9305(2) 0.40510(16) 0.52570(5)
C12_3 C 0.8838(3) 0.4957(3) 0.60824(12)
C16_3 C 0.9478(3) 0.4984(3) 0.59425(9)
C17_3 C 0.9464(3) 0.4957(3) 0.56853(10)
H5_3 H 0.9041 0.4921 0.5602
C22_3 C 0.9644(4) 0.4539(3) 0.51352(10)
In4_4 In 0.243085(17) 0.493085(17) 0.1250
O5_4 O 0.6173(2) 0.4968(2) 0.13142(8)
O7_4 O 0.66967(18) 0.51273(16) 0.09579(7)
O9_4 O 0.35834(16) 0.49478(18) 0.12862(6)
O12_4 O 0.31163(15) 0.49086(15) 0.09170(5)
F3_4 F 0.4245(2) 0.40510(17) 0.02376(5)
F4_4 F 0.5695(2) 0.59490(16) 0.02570(5)
C12_4 C 0.6162(3) 0.5043(3) 0.10824(12)
C13_4 C 0.3634(2) 0.4939(3) 0.10514(9)
C14_4 C 0.4309(3) 0.4955(2) 0.09287(9)
C15_4 C 0.4905(2) 0.4968(2) 0.10657(10)
H4_4 H 0.4892 0.4945 0.1243
C16_4 C 0.5522(3) 0.5016(3) 0.09425(9)
C17_4 C 0.5536(3) 0.5043(3) 0.06853(10)
H5_4 H 0.5959 0.5079 0.0602
C18_4 C 0.4946(3) 0.5017(2) 0.05436(11)
C19_4 C 0.4328(3) 0.4979(2) 0.06683(9)
H6_4 H 0.3920 0.4970 0.0575
C20_4 C 0.4977(3) 0.5013(2) 0.02679(10)
C21_4 C 0.4623(4) 0.4528(3) 0.01253(10)
C22_4 C 0.5356(4) 0.5461(3) 0.01352(10)
In1_4 In 0.256915(17) 0.493085(17) 0.8750
O1_4 O 0.3827(2) 0.5032(2) 0.86858(8)
O2_4 O 0.33033(18) 0.48727(16) 0.90421(7)
O3_4 O 0.64166(16) 0.50522(18) 0.87138(6)
O4_4 O 0.68837(15) 0.50914(15) 0.90830(5)
F1_4 F 0.5755(2) 0.59490(17) 0.97624(5)
F2_4 F 0.4305(2) 0.40510(16) 0.97430(5)
C1_4 C 0.3838(3) 0.4957(3) 0.89176(12)
C2_4 C 0.6366(2) 0.5061(3) 0.89486(9)
C3_4 C 0.5691(3) 0.5045(2) 0.90713(9)
C4_4 C 0.5095(2) 0.5032(2) 0.89343(10)
H1_4 H 0.5108 0.5055 0.8757
C5_4 C 0.4478(3) 0.4984(3) 0.90575(9)
C6_4 C 0.4464(3) 0.4957(3) 0.93147(10)
H2_4 H 0.4041 0.4921 0.9398
C7_4 C 0.5054(3) 0.4983(2) 0.94564(11)
C8_4 C 0.5672(3) 0.5021(2) 0.93317(9)
H3_4 H 0.6080 0.5030 0.9425
C9_4 C 0.5023(3) 0.4987(2) 0.97321(10)
C10_4 C 0.5377(4) 0.5472(3) 0.98747(10)
C11_4 C 0.4644(4) 0.4539(3) 0.98648(10)
O6_4 O 0.2468(2) 0.3673(2) 0.88142(8)
O8_4 O 0.26273(16) 0.41967(18) 0.84579(7)
O10_4 O 0.25522(18) 0.60834(16) 0.87862(6)
O11_4 O 0.14166(16) 0.49478(18) 0.87138(6)
O13_4 O 0.25914(15) 0.56163(15) 0.84170(5)
O14_4 O 0.18837(15) 0.49086(15) 0.90830(5)
O1_5 O 0.7532(2) 0.1327(2) 0.88142(8)
O2_5 O 0.73727(16) 0.08033(18) 0.84579(7)
O3_5 O 0.75522(18) 0.39166(16) 0.87862(6)
O4_5 O 0.75914(15) 0.43837(15) 0.84170(5)
F1_5 F 0.84490(17) 0.3255(2) 0.77376(5)
F2_5 F 0.65510(16) 0.1805(2) 0.77570(5)
C1_5 C 0.7457(3) 0.1338(3) 0.85824(12)
C2_5 C 0.7561(3) 0.3866(2) 0.85514(9)
C3_5 C 0.7545(2) 0.3191(3) 0.84287(9)
C4_5 C 0.7532(2) 0.2595(2) 0.85657(10)
H1_5 H 0.7555 0.2608 0.8743
C5_5 C 0.7484(3) 0.1978(3) 0.84425(9)
C6_5 C 0.7457(3) 0.1964(3) 0.81853(10)
H2_5 H 0.7421 0.1541 0.8102
C7_5 C 0.7483(2) 0.2554(3) 0.80436(11)
C8_5 C 0.7521(2) 0.3172(3) 0.81683(9)
H3_5 H 0.7530 0.3580 0.8075
C9_5 C 0.7487(2) 0.2523(3) 0.77679(10)
C10_5 C 0.7972(3) 0.2877(4) 0.76253(10)
C11_5 C 0.7039(3) 0.2144(4) 0.76352(10)
O5_5 O 0.7468(2) 0.3673(2) 0.61858(8)
O7_5 O 0.76273(16) 0.41967(18) 0.65421(7)
O8_5 O 0.66967(18) 0.01273(16) 0.90421(7)
O10_5 O 0.85834(16) 0.00522(18) 0.87138(6)
O13_5 O 0.81163(15) 0.00914(15) 0.90830(5)
F3_5 F 0.65510(17) 0.1745(2) 0.72624(5)
F4_5 F 0.84490(16) 0.3195(2) 0.72430(5)
C12_5 C 0.7543(3) 0.3662(3) 0.64176(12)
C13_5 C 0.7439(3) 0.1134(2) 0.64486(9)
C14_5 C 0.7455(2) 0.1809(3) 0.65713(9)
C15_5 C 0.7468(2) 0.2405(2) 0.64343(10)
H4_5 H 0.7445 0.2392 0.6257
C16_5 C 0.7516(3) 0.3022(3) 0.65575(9)
C17_5 C 0.7543(3) 0.3036(3) 0.68147(10)
H5_5 H 0.7579 0.3459 0.6898
C18_5 C 0.7517(2) 0.2446(3) 0.69564(11)
C19_5 C 0.7479(2) 0.1828(3) 0.68317(9)
H6_5 H 0.7470 0.1420 0.6925
C20_5 C 0.7513(2) 0.2477(3) 0.72321(10)
C21_5 C 0.7028(3) 0.2123(4) 0.73747(10)
C22_5 C 0.7961(3) 0.2856(4) 0.73648(10)
O6_5 O 0.6173(2) 0.9968(2) 0.86858(8)
O6_6 O 0.8827(2) 0.0032(2) 0.36858(8)
O1_6 O 0.7468(2) 0.8673(2) 0.38142(8)
O2_6 O 0.76273(16) 0.91967(18) 0.34579(7)
O3_6 O 0.74478(18) 0.60834(16) 0.37862(6)
O4_6 O 0.74086(15) 0.56163(15) 0.34170(5)
F1_6 F 0.65510(17) 0.6745(2) 0.27376(5)
F2_6 F 0.84490(16) 0.8195(2) 0.27570(5)
C1_6 C 0.7543(3) 0.8662(3) 0.35824(12)
C2_6 C 0.7439(3) 0.6134(2) 0.35514(9)
C3_6 C 0.7455(2) 0.6809(3) 0.34287(9)
C4_6 C 0.7468(2) 0.7405(2) 0.35657(10)
H1_6 H 0.7445 0.7392 0.3743
C5_6 C 0.7516(3) 0.8022(3) 0.34425(9)
C6_6 C 0.7543(3) 0.8036(3) 0.31853(10)
H2_6 H 0.7579 0.8459 0.3102
C7_6 C 0.7517(2) 0.7446(3) 0.30436(11)
C8_6 C 0.7479(2) 0.6828(3) 0.31683(9)
H3_6 H 0.7470 0.6420 0.3075
C9_6 C 0.7513(2) 0.7477(3) 0.27679(10)
C10_6 C 0.7028(3) 0.7123(4) 0.26253(10)
C11_6 C 0.7961(3) 0.7856(4) 0.26352(10)
O5_6 O 0.7532(2) 0.6327(2) 0.11858(8)
O7_6 O 0.73727(16) 0.58033(18) 0.15421(7)
O8_6 O 0.83033(18) 0.98727(16) 0.40421(7)
O10_6 O 0.64166(16) 0.99478(18) 0.37138(6)
O13_6 O 0.68837(15) 0.99086(15) 0.40830(5)
F3_6 F 0.84490(17) 0.8255(2) 0.22624(5)
F4_6 F 0.65510(16) 0.6805(2) 0.22430(5)
C12_6 C 0.7457(3) 0.6338(3) 0.14176(12)
C13_6 C 0.7561(3) 0.8866(2) 0.14486(9)
C14_6 C 0.7545(2) 0.8191(3) 0.15713(9)
C15_6 C 0.7532(2) 0.7595(2) 0.14343(10)
H4_6 H 0.7555 0.7608 0.1257
C16_6 C 0.7484(3) 0.6978(3) 0.15575(9)
C17_6 C 0.7457(3) 0.6964(3) 0.18147(10)
H5_6 H 0.7421 0.6541 0.1898
C18_6 C 0.7483(2) 0.7554(3) 0.19564(11)
C19_6 C 0.7521(2) 0.8172(3) 0.18317(9)
H6_6 H 0.7530 0.8580 0.1925
C20_6 C 0.7487(2) 0.7523(3) 0.22321(10)
C21_6 C 0.7972(3) 0.7877(4) 0.23747(10)
C22_6 C 0.7039(3) 0.7144(4) 0.23648(10)
O1_7 O 0.3827(2) 0.4968(2) 0.63142(8)
O2_7 O 0.33033(18) 0.51273(16) 0.59579(7)
O3_7 O 0.64166(16) 0.49478(18) 0.62862(6)
O4_7 O 0.68837(15) 0.49086(15) 0.59170(5)
F1_7 F 0.5755(2) 0.40510(17) 0.52376(5)
F2_7 F 0.4305(2) 0.59490(16) 0.52570(5)
C1_7 C 0.3838(3) 0.5043(3) 0.60824(12)
C2_7 C 0.6366(2) 0.4939(3) 0.60514(9)
C3_7 C 0.5691(3) 0.4955(2) 0.59287(9)
C4_7 C 0.5095(2) 0.4968(2) 0.60657(10)
H1_7 H 0.5108 0.4945 0.6243
C5_7 C 0.4478(3) 0.5016(3) 0.59425(9)
C6_7 C 0.4464(3) 0.5043(3) 0.56853(10)
H2_7 H 0.4041 0.5079 0.5602
C7_7 C 0.5054(3) 0.5017(2) 0.55436(11)
C8_7 C 0.5672(3) 0.4979(2) 0.56683(9)
H3_7 H 0.6080 0.4970 0.5575
C9_7 C 0.5023(3) 0.5013(2) 0.52679(10)
C10_7 C 0.5377(4) 0.4528(3) 0.51253(10)
C11_7 C 0.4644(4) 0.5461(3) 0.51352(10)
O5_7 O 0.6173(2) 0.5032(2) 0.36858(8)
O6_7 O 0.2468(2) 0.6327(2) 0.61858(8)
O7_7 O 0.66967(18) 0.48727(16) 0.40421(7)
O8_7 O 0.26273(16) 0.58033(18) 0.65421(7)
O10_7 O 0.25522(18) 0.39166(16) 0.62138(6)
O13_7 O 0.25914(15) 0.43837(15) 0.65830(5)
F3_7 F 0.4245(2) 0.59490(17) 0.47624(5)
F4_7 F 0.5695(2) 0.40510(16) 0.47430(5)
C12_7 C 0.6162(3) 0.4957(3) 0.39176(12)
C13_7 C 0.3634(2) 0.5061(3) 0.39486(9)
C14_7 C 0.4309(3) 0.5045(2) 0.40713(9)
C15_7 C 0.4905(2) 0.5032(2) 0.39343(10)
H4_7 H 0.4892 0.5055 0.3757
C16_7 C 0.5522(3) 0.4984(3) 0.40575(9)
C17_7 C 0.5536(3) 0.4957(3) 0.43147(10)
H5_7 H 0.5959 0.4921 0.4398
C18_7 C 0.4946(3) 0.4983(2) 0.44564(11)
C19_7 C 0.4328(3) 0.5021(2) 0.43317(9)
H6_7 H 0.3920 0.5030 0.4425
C20_7 C 0.4977(3) 0.4987(2) 0.47321(10)
C21_7 C 0.4623(4) 0.5472(3) 0.48747(10)
C22_7 C 0.5356(4) 0.4539(3) 0.48648(10)
O1_8 O 0.1173(2) 0.5032(2) 0.13142(8)
O2_8 O 0.16967(18) 0.48727(16) 0.09579(7)
F2_8 F 0.0695(2) 0.40510(16) 0.02570(5)
C1_8 C 0.1162(3) 0.4957(3) 0.10824(12)
C5_8 C 0.0522(3) 0.4984(3) 0.09425(9)
C6_8 C 0.0536(3) 0.4957(3) 0.06853(10)
H2_8 H 0.0959 0.4921 0.0602
C11_8 C 0.0356(4) 0.4539(3) 0.01352(10)
O6_8 O 0.2532(2) 0.3673(2) 0.11858(8)
O8_8 O 0.23727(16) 0.41967(18) 0.15421(7)
O10_8 O 0.24478(18) 0.60834(16) 0.12138(6)
O13_8 O 0.24086(15) 0.56163(15) 0.15830(5)
F3_8 F 0.0755(2) 0.40510(17) 0.97624(5)
C13_8 C 0.1366(2) 0.4939(3) 0.89486(9)
C14_8 C 0.0691(3) 0.4955(2) 0.90713(9)
C15_8 C 0.0095(2) 0.4968(2) 0.89343(10)
H4_8 H 0.0108 0.4945 0.8757
C18_8 C 0.0054(3) 0.5017(2) 0.94564(11)
C19_8 C 0.0672(3) 0.4979(2) 0.93317(9)
H6_8 H 0.1080 0.4970 0.9425
C20_8 C 0.0023(3) 0.5013(2) 0.97321(10)
C21_8 C 0.0377(4) 0.4528(3) 0.98747(10)
O3_8 O 0.85834(16) 0.50522(18) 0.12862(6)
O4_8 O 0.81163(15) 0.50914(15) 0.09170(5)
F1_8 F 0.9245(2) 0.59490(17) 0.02376(5)
C2_8 C 0.8634(2) 0.5061(3) 0.10514(9)
C3_8 C 0.9309(3) 0.5045(2) 0.09287(9)
C4_8 C 0.9905(2) 0.5032(2) 0.10657(10)
H1_8 H 0.9892 0.5055 0.1243
C7_8 C 0.9946(3) 0.4983(2) 0.05436(11)
C8_8 C 0.9328(3) 0.5021(2) 0.06683(9)
H3_8 H 0.8920 0.5030 0.0575
C9_8 C 0.9977(3) 0.4987(2) 0.02679(10)
C10_8 C 0.9623(4) 0.5472(3) 0.01253(10)
O5_8 O 0.8827(2) 0.4968(2) 0.86858(8)
O7_8 O 0.83033(18) 0.51273(16) 0.90421(7)
F4_8 F 0.9305(2) 0.59490(16) 0.97430(5)
C12_8 C 0.8838(3) 0.5043(3) 0.89176(12)
C16_8 C 0.9478(3) 0.5016(3) 0.90575(9)
C17_8 C 0.9464(3) 0.5043(3) 0.93147(10)
H5_8 H 0.9041 0.5079 0.9398
C22_8 C 0.9644(4) 0.5461(3) 0.98648(10)
In2_3 In 0.243085(17) 0.006915(17) 0.6250
O3_9 O 0.24478(18) 0.89166(16) 0.62138(6)
O4_9 O 0.24086(15) 0.93837(15) 0.65830(5)
F1_9 F 0.15510(17) 0.8255(2) 0.72624(5)
F2_9 F 0.34490(16) 0.6805(2) 0.72430(5)
C1_9 C 0.2543(3) 0.6338(3) 0.64176(12)
C2_9 C 0.2439(3) 0.8866(2) 0.64486(9)
C3_9 C 0.2455(2) 0.8191(3) 0.65713(9)
C4_9 C 0.2468(2) 0.7595(2) 0.64343(10)
H1_9 H 0.2445 0.7608 0.6257
C5_9 C 0.2516(3) 0.6978(3) 0.65575(9)
C6_9 C 0.2543(3) 0.6964(3) 0.68147(10)
H2_9 H 0.2579 0.6541 0.6898
C7_9 C 0.2517(2) 0.7554(3) 0.69564(11)
C8_9 C 0.2479(2) 0.8172(3) 0.68317(9)
H3_9 H 0.2470 0.8580 0.6925
C9_9 C 0.2513(2) 0.7523(3) 0.72321(10)
C10_9 C 0.2028(3) 0.7877(4) 0.73747(10)
C11_9 C 0.2961(3) 0.7144(4) 0.73648(10)
In3_3 In 0.243085(17) 0.993085(17) 0.8750
O5_9 O 0.2532(2) 0.8673(2) 0.88142(8)
O7_9 O 0.23727(16) 0.91967(18) 0.84579(7)
F3_9 F 0.34490(17) 0.6745(2) 0.77376(5)
F4_9 F 0.15510(16) 0.8195(2) 0.77570(5)
C12_9 C 0.2457(3) 0.8662(3) 0.85824(12)
C13_9 C 0.2561(3) 0.6134(2) 0.85514(9)
C14_9 C 0.2545(2) 0.6809(3) 0.84287(9)
C15_9 C 0.2532(2) 0.7405(2) 0.85657(10)
H4_9 H 0.2555 0.7392 0.8743
C16_9 C 0.2484(3) 0.8022(3) 0.84425(9)
C17_9 C 0.2457(3) 0.8036(3) 0.81853(10)
H5_9 H 0.2421 0.8459 0.8102
C18_9 C 0.2483(2) 0.7446(3) 0.80436(11)
C19_9 C 0.2521(2) 0.6828(3) 0.81683(9)
H6_9 H 0.2530 0.6420 0.8075
C20_9 C 0.2487(2) 0.7477(3) 0.77679(10)
C21_9 C 0.2972(3) 0.7123(4) 0.76253(10)
C22_9 C 0.2039(3) 0.7856(4) 0.76352(10)
O3_10 O 0.25522(18) 0.10834(16) 0.12138(6)
O4_10 O 0.25914(15) 0.06163(15) 0.15830(5)
F1_10 F 0.34490(17) 0.1745(2) 0.22624(5)
F2_10 F 0.15510(16) 0.3195(2) 0.22430(5)
C1_10 C 0.2457(3) 0.3662(3) 0.14176(12)
C2_10 C 0.2561(3) 0.1134(2) 0.14486(9)
C3_10 C 0.2545(2) 0.1809(3) 0.15713(9)
C4_10 C 0.2532(2) 0.2405(2) 0.14343(10)
H1_10 H 0.2555 0.2392 0.1257
C5_10 C 0.2484(3) 0.3022(3) 0.15575(9)
C6_10 C 0.2457(3) 0.3036(3) 0.18147(10)
H2_10 H 0.2421 0.3459 0.1898
C7_10 C 0.2483(2) 0.2446(3) 0.19564(11)
C8_10 C 0.2521(2) 0.1828(3) 0.18317(9)
H3_10 H 0.2530 0.1420 0.1925
C9_10 C 0.2487(2) 0.2477(3) 0.22321(10)
C10_10 C 0.2972(3) 0.2123(4) 0.23747(10)
C11_10 C 0.2039(3) 0.2856(4) 0.23648(10)
In3_4 In 0.256915(17) 0.006915(17) 0.3750
O5_10 O 0.2468(2) 0.1327(2) 0.38142(8)
O7_10 O 0.26273(16) 0.08033(18) 0.34579(7)
F3_10 F 0.15510(17) 0.3255(2) 0.27376(5)
F4_10 F 0.34490(16) 0.1805(2) 0.27570(5)
C12_10 C 0.2543(3) 0.1338(3) 0.35824(12)
C13_10 C 0.2439(3) 0.3866(2) 0.35514(9)
C14_10 C 0.2455(2) 0.3191(3) 0.34287(9)
C15_10 C 0.2468(2) 0.2595(2) 0.35657(10)
H4_10 H 0.2445 0.2608 0.3743
C16_10 C 0.2516(3) 0.1978(3) 0.34425(9)
C17_10 C 0.2543(3) 0.1964(3) 0.31853(10)
H5_10 H 0.2579 0.1541 0.3102
C18_10 C 0.2517(2) 0.2554(3) 0.30436(11)
C19_10 C 0.2479(2) 0.3172(3) 0.31683(9)
H6_10 H 0.2470 0.3580 0.3075
C20_10 C 0.2513(2) 0.2523(3) 0.27679(10)
C21_10 C 0.2028(3) 0.2877(4) 0.26253(10)
C22_10 C 0.2961(3) 0.2144(4) 0.26352(10)
In2_4 In 0.256915(17) 0.993085(17) 0.1250
O5_11 O 0.3827(2) 0.0032(2) 0.13142(8)
F3_11 F 0.5755(2) 0.09490(17) 0.02376(5)
C13_11 C 0.6366(2) 0.0061(3) 0.10514(9)
C14_11 C 0.5691(3) 0.0045(2) 0.09287(9)
C15_11 C 0.5095(2) 0.0032(2) 0.10657(10)
H4_11 H 0.5108 0.0055 0.1243
C19_11 C 0.5672(3) 0.0021(2) 0.06683(9)
H6_11 H 0.6080 0.0030 0.0575
C21_11 C 0.5377(4) 0.0472(3) 0.01253(10)
F2_11 F 0.5695(2) 0.09490(16) 0.97430(5)
C1_11 C 0.6162(3) 0.0043(3) 0.89176(12)
C5_11 C 0.5522(3) 0.0016(3) 0.90575(9)
C6_11 C 0.5536(3) 0.0043(3) 0.93147(10)
H2_11 H 0.5959 0.0079 0.9398
C7_11 C 0.4946(3) 0.0017(2) 0.94564(11)
C9_11 C 0.4977(3) 0.0013(2) 0.97321(10)
C11_11 C 0.5356(4) 0.0461(3) 0.98648(10)
O7_11 O 0.33033(18) 0.98727(16) 0.09579(7)
F4_11 F 0.4305(2) 0.90510(16) 0.02570(5)
C12_11 C 0.3838(3) 0.9957(3) 0.10824(12)
C16_11 C 0.4478(3) 0.9984(3) 0.09425(9)
C17_11 C 0.4464(3) 0.9957(3) 0.06853(10)
H5_11 H 0.4041 0.9921 0.0602
C18_11 C 0.5054(3) 0.9983(2) 0.05436(11)
C20_11 C 0.5023(3) 0.9987(2) 0.02679(10)
C22_11 C 0.4644(4) 0.9539(3) 0.01352(10)
O3_11 O 0.35834(16) 0.99478(18) 0.87138(6)
O4_11 O 0.31163(15) 0.99086(15) 0.90830(5)
F1_11 F 0.4245(2) 0.90510(17) 0.97624(5)
C2_11 C 0.3634(2) 0.9939(3) 0.89486(9)
C3_11 C 0.4309(3) 0.9955(2) 0.90713(9)
C4_11 C 0.4905(2) 0.9968(2) 0.89343(10)
H1_11 H 0.4892 0.9945 0.8757
C8_11 C 0.4328(3) 0.9979(2) 0.93317(9)
H3_11 H 0.3920 0.9970 0.9425
C10_11 C 0.4623(4) 0.9528(3) 0.98747(10)
O3_12 O 0.14166(16) 0.00522(18) 0.37138(6)
O4_12 O 0.18837(15) 0.00914(15) 0.40830(5)
F1_12 F 0.0755(2) 0.09490(17) 0.47624(5)
C2_12 C 0.1366(2) 0.0061(3) 0.39486(9)
C3_12 C 0.0691(3) 0.0045(2) 0.40713(9)
C4_12 C 0.0095(2) 0.0032(2) 0.39343(10)
H1_12 H 0.0108 0.0055 0.3757
C8_12 C 0.0672(3) 0.0021(2) 0.43317(9)
H3_12 H 0.1080 0.0030 0.4425
C10_12 C 0.0377(4) 0.0472(3) 0.48747(10)
O7_12 O 0.16967(18) 0.01273(16) 0.59579(7)
F4_12 F 0.0695(2) 0.09490(16) 0.52570(5)
C12_12 C 0.1162(3) 0.0043(3) 0.60824(12)
C16_12 C 0.0522(3) 0.0016(3) 0.59425(9)
C17_12 C 0.0536(3) 0.0043(3) 0.56853(10)
H5_12 H 0.0959 0.0079 0.5602
C22_12 C 0.0356(4) 0.0461(3) 0.51352(10)
C7_12 C 0.0054(3) 0.9983(2) 0.44564(11)
C9_12 C 0.0023(3) 0.9987(2) 0.47321(10)
O5_12 O 0.1173(2) 0.9968(2) 0.63142(8)
C18_12 C 0.9946(3) 0.0017(2) 0.55436(11)
C20_12 C 0.9977(3) 0.0013(2) 0.52679(10)
F2_12 F 0.9305(2) 0.90510(16) 0.47430(5)
C1_12 C 0.8838(3) 0.9957(3) 0.39176(12)
C5_12 C 0.9478(3) 0.9984(3) 0.40575(9)
C6_12 C 0.9464(3) 0.9957(3) 0.43147(10)
H2_12 H 0.9041 0.9921 0.4398
C11_12 C 0.9644(4) 0.9539(3) 0.48648(10)
F3_12 F 0.9245(2) 0.90510(17) 0.52376(5)
C13_12 C 0.8634(2) 0.9939(3) 0.60514(9)
C14_12 C 0.9309(3) 0.9955(2) 0.59287(9)
C15_12 C 0.9905(2) 0.9968(2) 0.60657(10)
H4_12 H 0.9892 0.9945 0.6243
C19_12 C 0.9328(3) 0.9979(2) 0.56683(9)
H6_12 H 0.8920 0.9970 0.5575
C21_12 C 0.9623(4) 0.9528(3) 0.51253(10)
O3_13 O 0.25522(18) 0.89166(16) 0.37862(6)
O4_13 O 0.25914(15) 0.93837(15) 0.34170(5)
F1_13 F 0.34490(17) 0.8255(2) 0.27376(5)
F2_13 F 0.15510(16) 0.6805(2) 0.27570(5)
C1_13 C 0.2457(3) 0.6338(3) 0.35824(12)
C2_13 C 0.2561(3) 0.8866(2) 0.35514(9)
C3_13 C 0.2545(2) 0.8191(3) 0.34287(9)
C4_13 C 0.2532(2) 0.7595(2) 0.35657(10)
H1_13 H 0.2555 0.7608 0.3743
C5_13 C 0.2484(3) 0.6978(3) 0.34425(9)
C6_13 C 0.2457(3) 0.6964(3) 0.31853(10)
H2_13 H 0.2421 0.6541 0.3102
C7_13 C 0.2483(2) 0.7554(3) 0.30436(11)
C8_13 C 0.2521(2) 0.8172(3) 0.31683(9)
H3_13 H 0.2530 0.8580 0.3075
C9_13 C 0.2487(2) 0.7523(3) 0.27679(10)
C10_13 C 0.2972(3) 0.7877(4) 0.26253(10)
C11_13 C 0.2039(3) 0.7144(4) 0.26352(10)
O5_13 O 0.2468(2) 0.8673(2) 0.11858(8)
O7_13 O 0.26273(16) 0.91967(18) 0.15421(7)
F3_13 F 0.15510(17) 0.6745(2) 0.22624(5)
F4_13 F 0.34490(16) 0.8195(2) 0.22430(5)
C12_13 C 0.2543(3) 0.8662(3) 0.14176(12)
C13_13 C 0.2439(3) 0.6134(2) 0.14486(9)
C14_13 C 0.2455(2) 0.6809(3) 0.15713(9)
C15_13 C 0.2468(2) 0.7405(2) 0.14343(10)
H4_13 H 0.2445 0.7392 0.1257
C16_13 C 0.2516(3) 0.8022(3) 0.15575(9)
C17_13 C 0.2543(3) 0.8036(3) 0.18147(10)
H5_13 H 0.2579 0.8459 0.1898
C18_13 C 0.2517(2) 0.7446(3) 0.19564(11)
C19_13 C 0.2479(2) 0.6828(3) 0.18317(9)
H6_13 H 0.2470 0.6420 0.1925
C20_13 C 0.2513(2) 0.7477(3) 0.22321(10)
C21_13 C 0.2028(3) 0.7123(4) 0.23747(10)
C22_13 C 0.2961(3) 0.7856(4) 0.23648(10)
O3_14 O 0.24478(18) 0.10834(16) 0.87862(6)
O4_14 O 0.24086(15) 0.06163(15) 0.84170(5)
F1_14 F 0.15510(17) 0.1745(2) 0.77376(5)
F2_14 F 0.34490(16) 0.3195(2) 0.77570(5)
C1_14 C 0.2543(3) 0.3662(3) 0.85824(12)
C2_14 C 0.2439(3) 0.1134(2) 0.85514(9)
C3_14 C 0.2455(2) 0.1809(3) 0.84287(9)
C4_14 C 0.2468(2) 0.2405(2) 0.85657(10)
H1_14 H 0.2445 0.2392 0.8743
C5_14 C 0.2516(3) 0.3022(3) 0.84425(9)
C6_14 C 0.2543(3) 0.3036(3) 0.81853(10)
H2_14 H 0.2579 0.3459 0.8102
C7_14 C 0.2517(2) 0.2446(3) 0.80436(11)
C8_14 C 0.2479(2) 0.1828(3) 0.81683(9)
H3_14 H 0.2470 0.1420 0.8075
C9_14 C 0.2513(2) 0.2477(3) 0.77679(10)
C10_14 C 0.2028(3) 0.2123(4) 0.76253(10)
C11_14 C 0.2961(3) 0.2856(4) 0.76352(10)
O5_14 O 0.2532(2) 0.1327(2) 0.61858(8)
O7_14 O 0.23727(16) 0.08033(18) 0.65421(7)
F3_14 F 0.34490(17) 0.3255(2) 0.72624(5)
F4_14 F 0.15510(16) 0.1805(2) 0.72430(5)
C12_14 C 0.2457(3) 0.1338(3) 0.64176(12)
C13_14 C 0.2561(3) 0.3866(2) 0.64486(9)
C14_14 C 0.2545(2) 0.3191(3) 0.65713(9)
C15_14 C 0.2532(2) 0.2595(2) 0.64343(10)
H4_14 H 0.2555 0.2608 0.6257
C16_14 C 0.2484(3) 0.1978(3) 0.65575(9)
C17_14 C 0.2457(3) 0.1964(3) 0.68147(10)
H5_14 H 0.2421 0.1541 0.6898
C18_14 C 0.2483(2) 0.2554(3) 0.69564(11)
C19_14 C 0.2521(2) 0.3172(3) 0.68317(9)
H6_14 H 0.2530 0.3580 0.6925
C20_14 C 0.2487(2) 0.2523(3) 0.72321(10)
C21_14 C 0.2972(3) 0.2877(4) 0.73747(10)
C22_14 C 0.2039(3) 0.2144(4) 0.73648(10)
O5_15 O 0.1173(2) 0.0032(2) 0.86858(8)
O3_15 O 0.14166(16) 0.99478(18) 0.12862(6)
O4_15 O 0.18837(15) 0.99086(15) 0.09170(5)
F1_15 F 0.0755(2) 0.90510(17) 0.02376(5)
C2_15 C 0.1366(2) 0.9939(3) 0.10514(9)
C3_15 C 0.0691(3) 0.9955(2) 0.09287(9)
C4_15 C 0.0095(2) 0.9968(2) 0.10657(10)
H1_15 H 0.0108 0.9945 0.1243
C8_15 C 0.0672(3) 0.9979(2) 0.06683(9)
H3_15 H 0.1080 0.9970 0.0575
C10_15 C 0.0377(4) 0.9528(3) 0.01253(10)
O7_15 O 0.16967(18) 0.98727(16) 0.90421(7)
F4_15 F 0.0695(2) 0.90510(16) 0.97430(5)
C12_15 C 0.1162(3) 0.9957(3) 0.89176(12)
C16_15 C 0.0522(3) 0.9984(3) 0.90575(9)
C17_15 C 0.0536(3) 0.9957(3) 0.93147(10)
H5_15 H 0.0959 0.9921 0.9398
C22_15 C 0.0356(4) 0.9539(3) 0.98648(10)
F2_15 F 0.9305(2) 0.09490(16) 0.02570(5)
C1_15 C 0.8838(3) 0.0043(3) 0.10824(12)
C5_15 C 0.9478(3) 0.0016(3) 0.09425(9)
C6_15 C 0.9464(3) 0.0043(3) 0.06853(10)
H2_15 H 0.9041 0.0079 0.0602
C11_15 C 0.9644(4) 0.0461(3) 0.01352(10)
F3_15 F 0.9245(2) 0.09490(17) 0.97624(5)
C13_15 C 0.8634(2) 0.0061(3) 0.89486(9)
C14_15 C 0.9309(3) 0.0045(2) 0.90713(9)
C15_15 C 0.9905(2) 0.0032(2) 0.89343(10)
H4_15 H 0.9892 0.0055 0.8757
C19_15 C 0.9328(3) 0.0021(2) 0.93317(9)
H6_15 H 0.8920 0.0030 0.9425
C21_15 C 0.9623(4) 0.0472(3) 0.98747(10)
O3_16 O 0.35834(16) 0.00522(18) 0.62862(6)
O4_16 O 0.31163(15) 0.00914(15) 0.59170(5)
F1_16 F 0.4245(2) 0.09490(17) 0.52376(5)
C2_16 C 0.3634(2) 0.0061(3) 0.60514(9)
C3_16 C 0.4309(3) 0.0045(2) 0.59287(9)
C4_16 C 0.4905(2) 0.0032(2) 0.60657(10)
H1_16 H 0.4892 0.0055 0.6243
C8_16 C 0.4328(3) 0.0021(2) 0.56683(9)
H3_16 H 0.3920 0.0030 0.5575
C10_16 C 0.4623(4) 0.0472(3) 0.51253(10)
O7_16 O 0.33033(18) 0.01273(16) 0.40421(7)
F4_16 F 0.4305(2) 0.09490(16) 0.47430(5)
C12_16 C 0.3838(3) 0.0043(3) 0.39176(12)
C16_16 C 0.4478(3) 0.0016(3) 0.40575(9)
C17_16 C 0.4464(3) 0.0043(3) 0.43147(10)
H5_16 H 0.4041 0.0079 0.4398
C18_15 C 0.5054(3) 0.0017(2) 0.44564(11)
C20_15 C 0.5023(3) 0.0013(2) 0.47321(10)
C22_16 C 0.4644(4) 0.0461(3) 0.48648(10)
F2_16 F 0.5695(2) 0.90510(16) 0.52570(5)
C1_16 C 0.6162(3) 0.9957(3) 0.60824(12)
C5_16 C 0.5522(3) 0.9984(3) 0.59425(9)
C6_16 C 0.5536(3) 0.9957(3) 0.56853(10)
H2_16 H 0.5959 0.9921 0.5602
C7_15 C 0.4946(3) 0.9983(2) 0.55436(11)
C9_15 C 0.4977(3) 0.9987(2) 0.52679(10)
C11_16 C 0.5356(4) 0.9539(3) 0.51352(10)
O5_16 O 0.3827(2) 0.9968(2) 0.36858(8)
F3_16 F 0.5755(2) 0.90510(17) 0.47624(5)
C13_16 C 0.6366(2) 0.9939(3) 0.39486(9)
C14_16 C 0.5691(3) 0.9955(2) 0.40713(9)
C15_16 C 0.5095(2) 0.9968(2) 0.39343(10)
H4_16 H 0.5108 0.9945 0.3757
C19_16 C 0.5672(3) 0.9979(2) 0.43317(9)
H6_16 H 0.6080 0.9970 0.4425
C21_16 C 0.5377(4) 0.9528(3) 0.48747(10)
C7_16 C 0.0054(3) 0.0017(2) 0.05436(11)
C9_16 C 0.0023(3) 0.0013(2) 0.02679(10)
C18_16 C 0.9946(3) 0.9983(2) 0.94564(11)
C20_16 C 0.9977(3) 0.9987(2) 0.97321(10)
loop_
_geom_bond_atom_site_label_1
_geom_bond_atom_site_label_2
_geom_bond_site_symmetry_1
_geom_bond_site_symmetry_2
In1 O1 1_555 1_555
O1 C1 1_555 1_555
O2 In1 1_555 1_555
O3 C2 1_555 1_555
O4 C2 1_555 1_555
F1 C10 1_555 1_555
F2 C11 1_555 1_555
C1 O2 1_555 1_555
C2 C3 1_555 1_555
C3 C4 1_555 1_555
C4 H1 1_555 1_555
C5 C1 1_555 1_555
C6 C5 1_555 1_555
H2 C6 1_555 1_555
C7 C6 1_555 1_555
C8 C3 1_555 1_555
H3 C8 1_555 1_555
C9 C7 1_555 1_555
C10 C9 1_555 1_555
C11 C9 1_555 1_555
In2 O3 1_555 1_555
In3 O5 1_555 1_555
O5 C12 1_555 1_555
O7 In3 1_555 1_555
O8 In1 1_555 1_555
O9 C13 1_555 1_555
O10 In1 1_555 1_555
O13 In1 1_555 1_555
F3 C21 1_555 1_555
F4 C22 1_555 1_555
C12 O7 1_555 1_555
C13 O12 1_555 1_555
C14 C13 1_555 1_555
C15 C14 1_555 1_555
H4 C15 1_555 1_555
C16 C12 1_555 1_555
C17 C16 1_555 1_555
H5 C17 1_555 1_555
C18 C17 1_555 1_555
C19 C14 1_555 1_555
H6 C19 1_555 1_555
C20 C18 1_555 1_555
C21 C11 1_555 1_555
C22 C10 1_555 1_555
O4 In2 1_555 1_555
C4 C5 1_555 1_555
C7 C8 1_555 1_555
C15 C16 1_555 1_555
C18 C19 1_555 1_555
C20 C21 1_555 1_555
C20 C22 1_555 1_555
In1_2 O1_2 1_555 1_555
O1_2 C1_2 1_555 1_555
O2_2 In1_2 1_555 1_555
O3_2 C2_2 1_555 1_555
O4_2 C2_2 1_555 1_555
F1_2 C10_2 1_555 1_555
F2_2 C11_2 1_555 1_555
C1_2 O2_2 1_555 1_555
C2_2 C3_2 1_555 1_555
C3_2 C4_2 1_555 1_555
C4_2 H1_2 1_555 1_555
C5_2 C1_2 1_555 1_555
C6_2 C5_2 1_555 1_555
H2_2 C6_2 1_555 1_555
C7_2 C6_2 1_555 1_555
C8_2 C3_2 1_555 1_555
H3_2 C8_2 1_555 1_555
C9_2 C7_2 1_555 1_555
C10_2 C9_2 1_555 1_555
C11_2 C9_2 1_555 1_555
In2_2 O3_2 1_555 1_555
In3_2 O5_2 1_555 1_555
O5_2 C12_2 1_555 1_555
O7_2 In3_2 1_555 1_555
O8_2 In1_2 1_555 1_555
O9_2 C13_2 1_555 1_555
O10_2 In1_2 1_555 1_555
O13_2 In1_2 1_555 1_555
F3_2 C21_2 1_555 1_555
F4_2 C22_2 1_555 1_555
C12_2 O7_2 1_555 1_555
C13_2 O12_2 1_555 1_555
C14_2 C13_2 1_555 1_555
C15_2 C14_2 1_555 1_555
H4_2 C15_2 1_555 1_555
C16_2 C12_2 1_555 1_555
C17_2 C16_2 1_555 1_555
H5_2 C17_2 1_555 1_555
C18_2 C17_2 1_555 1_555
C19_2 C14_2 1_555 1_555
H6_2 C19_2 1_555 1_555
C20_2 C18_2 1_555 1_555
C21_2 C11_2 1_555 1_555
C22_2 C10_2 1_555 1_555
O4_2 In2_2 1_555 1_555
C4_2 C5_2 1_555 1_555
C7_2 C8_2 1_555 1_555
C15_2 C16_2 1_555 1_555
C18_2 C19_2 1_555 1_555
C20_2 C21_2 1_555 1_555
C20_2 C22_2 1_555 1_555
In1_3 O1_3 1_555 1_555
O1_3 C1_3 1_555 1_555
O2_3 In1_3 1_555 1_555
F2_3 C11_3 1_555 1_555
C1_3 O2_3 1_555 1_555
C5_3 C1_3 1_555 1_555
C6_3 C5_3 1_555 1_555
H2_3 C6_3 1_555 1_555
In4_3 O9_3 1_555 1_555
O6_3 In1_3 1_555 1_555
O8_3 In1_3 1_555 1_555
O9_3 C13_3 1_555 1_555
O10_3 In1_3 1_555 1_555
O11_3 In1_3 1_555 1_555
O12_3 In4_3 1_555 1_555
O13_3 In1_3 1_555 1_555
O14_3 In1_3 1_555 1_555
F3_3 C21_3 1_555 1_555
C13_3 O12_3 1_555 1_555
C14_3 C13_3 1_555 1_555
C15_3 C14_3 1_555 1_555
H4_3 C15_3 1_555 1_555
C19_3 C14_3 1_555 1_555
H6_3 C19_3 1_555 1_555
C20_3 C18_3 1_555 1_555
C21_3 C11_3 1_555 1_555
C18_3 C19_3 1_555 1_555
C20_3 C21_3 1_555 1_555
O3_3 C2_3 1_555 1_555
O4_3 C2_3 1_555 1_555
F1_3 C10_3 1_555 1_555
C2_3 C3_3 1_555 1_555
C3_3 C4_3 1_555 1_555
C4_3 H1_3 1_555 1_555
C8_3 C3_3 1_555 1_555
H3_3 C8_3 1_555 1_555
C9_3 C7_3 1_555 1_555
C10_3 C9_3 1_555 1_555
In3 O3_3 1_555 1_555
In2_2 O5_3 1_555 1_555
O5_3 C12_3 1_555 1_555
O7_3 In2_2 1_555 1_555
F4_3 C22_3 1_555 1_555
C12_3 O7_3 1_555 1_555
C16_3 C12_3 1_555 1_555
C17_3 C16_3 1_555 1_555
H5_3 C17_3 1_555 1_555
C22_3 C10_3 1_555 1_555
O4_3 In3 1_555 1_555
C7_3 C8_3 1_555 1_555
In2 O5_4 1_555 1_555
In4_4 O9_4 1_555 1_555
O5_4 C12_4 1_555 1_555
O7_4 In2 1_555 1_555
O9_4 C13_4 1_555 1_555
O12_4 In4_4 1_555 1_555
F3_4 C21_4 1_555 1_555
F4_4 C22_4 1_555 1_555
C12_4 O7_4 1_555 1_555
C13_4 O12_4 1_555 1_555
C14_4 C13_4 1_555 1_555
C15_4 C14_4 1_555 1_555
H4_4 C15_4 1_555 1_555
C16_4 C12_4 1_555 1_555
C17_4 C16_4 1_555 1_555
H5_4 C17_4 1_555 1_555
C18_4 C17_4 1_555 1_555
C19_4 C14_4 1_555 1_555
H6_4 C19_4 1_555 1_555
C20_4 C18_4 1_555 1_555
C15_4 C16_4 1_555 1_555
C18_4 C19_4 1_555 1_555
C20_4 C21_4 1_555 1_555
C20_4 C22_4 1_555 1_555
In1_4 O1_4 1_555 1_555
O1_4 C1_4 1_555 1_555
O2_4 In1_4 1_555 1_555
O3_4 C2_4 1_555 1_555
O4_4 C2_4 1_555 1_555
F1_4 C10_4 1_555 1_555
F2_4 C11_4 1_555 1_555
C1_4 O2_4 1_555 1_555
C2_4 C3_4 1_555 1_555
C3_4 C4_4 1_555 1_555
C4_4 H1_4 1_555 1_555
C5_4 C1_4 1_555 1_555
C6_4 C5_4 1_555 1_555
H2_4 C6_4 1_555 1_555
C7_4 C6_4 1_555 1_555
C8_4 C3_4 1_555 1_555
H3_4 C8_4 1_555 1_555
C9_4 C7_4 1_555 1_555
C10_4 C9_4 1_555 1_555
C11_4 C9_4 1_555 1_555
In3_2 O3_4 1_555 1_555
O6_4 In1_4 1_555 1_555
O8_4 In1_4 1_555 1_555
O10_4 In1_4 1_555 1_555
O11_4 In1_4 1_555 1_555
O13_4 In1_4 1_555 1_555
O14_4 In1_4 1_555 1_555
O4_4 In3_2 1_555 1_555
C4_4 C5_4 1_555 1_555
C7_4 C8_4 1_555 1_555
In4_2 O1_5 1_555 1_555
O1_5 C1_5 1_555 1_555
O2_5 In4_2 1_555 1_555
O3_5 C2_5 1_555 1_555
O4_5 C2_5 1_555 1_555
F1_5 C10_5 1_555 1_555
F2_5 C11_5 1_555 1_555
C1_5 O2_5 1_555 1_555
C2_5 C3_5 1_555 1_555
C3_5 C4_5 1_555 1_555
C4_5 H1_5 1_555 1_555
C5_5 C1_5 1_555 1_555
C6_5 C5_5 1_555 1_555
H2_5 C6_5 1_555 1_555
C7_5 C6_5 1_555 1_555
C8_5 C3_5 1_555 1_555
H3_5 C8_5 1_555 1_555
C9_5 C7_5 1_555 1_555
C10_5 C9_5 1_555 1_555
C11_5 C9_5 1_555 1_555
In3_2 O3_5 1_555 1_555
In2_2 O5_5 1_555 1_555
O5_5 C12_5 1_555 1_555
O7_5 In2_2 1_555 1_555
O8_5 In4_2 1_555 1_555
O11_2 C13_5 1_555 1_555
O10_5 In4_2 1_555 1_555
O13_5 In4_2 1_555 1_555
F3_5 C21_5 1_555 1_555
F4_5 C22_5 1_555 1_555
C12_5 O7_5 1_555 1_555
C13_5 O14_2 1_555 1_555
C14_5 C13_5 1_555 1_555
C15_5 C14_5 1_555 1_555
H4_5 C15_5 1_555 1_555
C16_5 C12_5 1_555 1_555
C17_5 C16_5 1_555 1_555
H5_5 C17_5 1_555 1_555
C18_5 C17_5 1_555 1_555
C19_5 C14_5 1_555 1_555
H6_5 C19_5 1_555 1_555
C20_5 C18_5 1_555 1_555
C21_5 C11_5 1_555 1_555
C22_5 C10_5 1_555 1_555
O4_5 In3_2 1_555 1_555
C4_5 C5_5 1_555 1_555
C7_5 C8_5 1_555 1_555
C15_5 C16_5 1_555 1_555
C18_5 C19_5 1_555 1_555
C20_5 C21_5 1_555 1_555
C20_5 C22_5 1_555 1_555
In4 O1_6 1_555 1_555
O1_6 C1_6 1_555 1_555
O2_6 In4 1_555 1_555
O3_6 C2_6 1_555 1_555
O4_6 C2_6 1_555 1_555
F1_6 C10_6 1_555 1_555
F2_6 C11_6 1_555 1_555
C1_6 O2_6 1_555 1_555
C2_6 C3_6 1_555 1_555
C3_6 C4_6 1_555 1_555
C4_6 H1_6 1_555 1_555
C5_6 C1_6 1_555 1_555
C6_6 C5_6 1_555 1_555
H2_6 C6_6 1_555 1_555
C7_6 C6_6 1_555 1_555
C8_6 C3_6 1_555 1_555
H3_6 C8_6 1_555 1_555
C9_6 C7_6 1_555 1_555
C10_6 C9_6 1_555 1_555
C11_6 C9_6 1_555 1_555
In3 O3_6 1_555 1_555
In2 O5_6 1_555 1_555
O5_6 C12_6 1_555 1_555
O7_6 In2 1_555 1_555
O8_6 In4 1_555 1_555
O11 C13_6 1_555 1_555
O10_6 In4 1_555 1_555
O13_6 In4 1_555 1_555
F3_6 C21_6 1_555 1_555
F4_6 C22_6 1_555 1_555
C12_6 O7_6 1_555 1_555
C13_6 O14 1_555 1_555
C14_6 C13_6 1_555 1_555
C15_6 C14_6 1_555 1_555
H4_6 C15_6 1_555 1_555
C16_6 C12_6 1_555 1_555
C17_6 C16_6 1_555 1_555
H5_6 C17_6 1_555 1_555
C18_6 C17_6 1_555 1_555
C19_6 C14_6 1_555 1_555
H6_6 C19_6 1_555 1_555
C20_6 C18_6 1_555 1_555
C21_6 C11_6 1_555 1_555
C22_6 C10_6 1_555 1_555
O4_6 In3 1_555 1_555
C4_6 C5_6 1_555 1_555
C7_6 C8_6 1_555 1_555
C15_6 C16_6 1_555 1_555
C18_6 C19_6 1_555 1_555
C20_6 C21_6 1_555 1_555
C20_6 C22_6 1_555 1_555
In4_3 O1_7 1_555 1_555
O1_7 C1_7 1_555 1_555
O2_7 In4_3 1_555 1_555
O3_7 C2_7 1_555 1_555
O4_7 C2_7 1_555 1_555
F1_7 C10_7 1_555 1_555
F2_7 C11_7 1_555 1_555
C1_7 O2_7 1_555 1_555
C2_7 C3_7 1_555 1_555
C3_7 C4_7 1_555 1_555
C4_7 H1_7 1_555 1_555
C5_7 C1_7 1_555 1_555
C6_7 C5_7 1_555 1_555
H2_7 C6_7 1_555 1_555
C7_7 C6_7 1_555 1_555
C8_7 C3_7 1_555 1_555
H3_7 C8_7 1_555 1_555
C9_7 C7_7 1_555 1_555
C10_7 C9_7 1_555 1_555
C11_7 C9_7 1_555 1_555
In2_2 O3_7 1_555 1_555
In3 O5_7 1_555 1_555
O5_7 C12_7 1_555 1_555
O6_7 In4_3 1_555 1_555
O7_7 In3 1_555 1_555
O8_7 In4_3 1_555 1_555
O11_3 C13_7 1_555 1_555
O10_7 In4_3 1_555 1_555
O13_7 In4_3 1_555 1_555
F3_7 C21_7 1_555 1_555
F4_7 C22_7 1_555 1_555
C12_7 O7_7 1_555 1_555
C13_7 O14_3 1_555 1_555
C14_7 C13_7 1_555 1_555
C15_7 C14_7 1_555 1_555
H4_7 C15_7 1_555 1_555
C16_7 C12_7 1_555 1_555
C17_7 C16_7 1_555 1_555
H5_7 C17_7 1_555 1_555
C18_7 C17_7 1_555 1_555
C19_7 C14_7 1_555 1_555
H6_7 C19_7 1_555 1_555
C20_7 C18_7 1_555 1_555
C21_7 C11_7 1_555 1_555
C22_7 C10_7 1_555 1_555
O4_7 In2_2 1_555 1_555
C4_7 C5_7 1_555 1_555
C7_7 C8_7 1_555 1_555
C15_7 C16_7 1_555 1_555
C18_7 C19_7 1_555 1_555
C20_7 C21_7 1_555 1_555
C20_7 C22_7 1_555 1_555
In4_4 O1_8 1_555 1_555
O1_8 C1_8 1_555 1_555
O2_8 In4_4 1_555 1_555
F2_8 C11_8 1_555 1_555
C1_8 O2_8 1_555 1_555
C5_8 C1_8 1_555 1_555
C6_8 C5_8 1_555 1_555
H2_8 C6_8 1_555 1_555
O6_8 In4_4 1_555 1_555
O8_8 In4_4 1_555 1_555
O10_8 In4_4 1_555 1_555
O13_8 In4_4 1_555 1_555
O11_4 C13_8 1_555 1_555
F3_8 C21_8 1_555 1_555
C13_8 O14_4 1_555 1_555
C14_8 C13_8 1_555 1_555
C15_8 C14_8 1_555 1_555
H4_8 C15_8 1_555 1_555
C19_8 C14_8 1_555 1_555
H6_8 C19_8 1_555 1_555
C20_8 C18_8 1_555 1_555
C18_8 C19_8 1_555 1_555
C20_8 C21_8 1_555 1_555
O3_8 C2_8 1_555 1_555
O4_8 C2_8 1_555 1_555
F1_8 C10_8 1_555 1_555
C2_8 C3_8 1_555 1_555
C3_8 C4_8 1_555 1_555
C4_8 H1_8 1_555 1_555
C8_8 C3_8 1_555 1_555
H3_8 C8_8 1_555 1_555
C9_8 C7_8 1_555 1_555
C10_8 C9_8 1_555 1_555
In2 O3_8 1_555 1_555
O4_8 In2 1_555 1_555
C7_8 C8_8 1_555 1_555
In3_2 O5_8 1_555 1_555
O5_8 C12_8 1_555 1_555
O7_8 In3_2 1_555 1_555
F4_8 C22_8 1_555 1_555
C12_8 O7_8 1_555 1_555
C16_8 C12_8 1_555 1_555
C17_8 C16_8 1_555 1_555
H5_8 C17_8 1_555 1_555
O6_7 C1_9 1_555 1_555
O3_9 C2_9 1_555 1_555
O4_9 C2_9 1_555 1_555
F1_9 C10_9 1_555 1_555
F2_9 C11_9 1_555 1_555
C1_9 O8_7 1_555 1_555
C2_9 C3_9 1_555 1_555
C3_9 C4_9 1_555 1_555
C4_9 H1_9 1_555 1_555
C5_9 C1_9 1_555 1_555
C6_9 C5_9 1_555 1_555
H2_9 C6_9 1_555 1_555
C7_9 C6_9 1_555 1_555
C8_9 C3_9 1_555 1_555
H3_9 C8_9 1_555 1_555
C9_9 C7_9 1_555 1_555
C10_9 C9_9 1_555 1_555
C11_9 C9_9 1_555 1_555
In3_3 O5_9 1_555 1_555
O5_9 C12_9 1_555 1_555
O7_9 In3_3 1_555 1_555
O10_4 C13_9 1_555 1_555
F3_9 C21_9 1_555 1_555
F4_9 C22_9 1_555 1_555
C12_9 O7_9 1_555 1_555
C13_9 O13_4 1_555 1_555
C14_9 C13_9 1_555 1_555
C15_9 C14_9 1_555 1_555
H4_9 C15_9 1_555 1_555
C16_9 C12_9 1_555 1_555
C17_9 C16_9 1_555 1_555
H5_9 C17_9 1_555 1_555
C18_9 C17_9 1_555 1_555
C19_9 C14_9 1_555 1_555
H6_9 C19_9 1_555 1_555
C20_9 C18_9 1_555 1_555
C21_9 C11_9 1_555 1_555
C22_9 C10_9 1_555 1_555
C4_9 C5_9 1_555 1_555
C7_9 C8_9 1_555 1_555
C15_9 C16_9 1_555 1_555
C18_9 C19_9 1_555 1_555
C20_9 C21_9 1_555 1_555
C20_9 C22_9 1_555 1_555
O6_8 C1_10 1_555 1_555
O3_10 C2_10 1_555 1_555
O4_10 C2_10 1_555 1_555
F1_10 C10_10 1_555 1_555
F2_10 C11_10 1_555 1_555
C1_10 O8_8 1_555 1_555
C2_10 C3_10 1_555 1_555
C3_10 C4_10 1_555 1_555
C4_10 H1_10 1_555 1_555
C5_10 C1_10 1_555 1_555
C6_10 C5_10 1_555 1_555
H2_10 C6_10 1_555 1_555
C7_10 C6_10 1_555 1_555
C8_10 C3_10 1_555 1_555
H3_10 C8_10 1_555 1_555
C9_10 C7_10 1_555 1_555
C10_10 C9_10 1_555 1_555
C11_10 C9_10 1_555 1_555
In3_4 O5_10 1_555 1_555
O5_10 C12_10 1_555 1_555
O7_10 In3_4 1_555 1_555
O10_3 C13_10 1_555 1_555
F3_10 C21_10 1_555 1_555
F4_10 C22_10 1_555 1_555
C12_10 O7_10 1_555 1_555
C13_10 O13_3 1_555 1_555
C14_10 C13_10 1_555 1_555
C15_10 C14_10 1_555 1_555
H4_10 C15_10 1_555 1_555
C16_10 C12_10 1_555 1_555
C17_10 C16_10 1_555 1_555
H5_10 C17_10 1_555 1_555
C18_10 C17_10 1_555 1_555
C19_10 C14_10 1_555 1_555
H6_10 C19_10 1_555 1_555
C20_10 C18_10 1_555 1_555
C21_10 C11_10 1_555 1_555
C22_10 C10_10 1_555 1_555
C4_10 C5_10 1_555 1_555
C7_10 C8_10 1_555 1_555
C15_10 C16_10 1_555 1_555
C18_10 C19_10 1_555 1_555
C20_10 C21_10 1_555 1_555
C20_10 C22_10 1_555 1_555
O10 C13_11 1_555 1_555
F3_11 C21_11 1_555 1_555
C13_11 O13 1_555 1_555
C14_11 C13_11 1_555 1_555
C15_11 C14_11 1_555 1_555
H4_11 C15_11 1_555 1_555
C19_11 C14_11 1_555 1_555
H6_11 C19_11 1_555 1_555
F2_11 C11_11 1_555 1_555
C1_11 O8_5 1_555 1_555
C5_11 C1_11 1_555 1_555
C6_11 C5_11 1_555 1_555
H2_11 C6_11 1_555 1_555
C7_11 C6_11 1_555 1_555
C9_11 C7_11 1_555 1_555
C11_11 C9_11 1_555 1_555
O7_11 In2_4 1_555 1_555
F4_11 C22_11 1_555 1_555
C12_11 O7_11 1_555 1_555
C16_11 C12_11 1_555 1_555
C17_11 C16_11 1_555 1_555
H5_11 C17_11 1_555 1_555
C18_11 C17_11 1_555 1_555
C20_11 C18_11 1_555 1_555
C20_11 C22_11 1_555 1_555
O3_11 C2_11 1_555 1_555
O4_11 C2_11 1_555 1_555
F1_11 C10_11 1_555 1_555
C2_11 C3_11 1_555 1_555
C3_11 C4_11 1_555 1_555
C4_11 H1_11 1_555 1_555
C8_11 C3_11 1_555 1_555
H3_11 C8_11 1_555 1_555
In3_3 O3_11 1_555 1_555
O4_11 In3_3 1_555 1_555
O3_12 C2_12 1_555 1_555
O4_12 C2_12 1_555 1_555
F1_12 C10_12 1_555 1_555
C2_12 C3_12 1_555 1_555
C3_12 C4_12 1_555 1_555
C4_12 H1_12 1_555 1_555
C8_12 C3_12 1_555 1_555
H3_12 C8_12 1_555 1_555
In3_4 O3_12 1_555 1_555
O7_12 In2_3 1_555 1_555
F4_12 C22_12 1_555 1_555
C12_12 O7_12 1_555 1_555
C16_12 C12_12 1_555 1_555
C17_12 C16_12 1_555 1_555
H5_12 C17_12 1_555 1_555
C22_12 C10_12 1_555 1_555
O4_12 In3_4 1_555 1_555
C9_12 C7_12 1_555 1_555
C20_12 C18_12 1_555 1_555
F2_12 C11_12 1_555 1_555
C1_12 O8_6 1_555 1_555
C5_12 C1_12 1_555 1_555
C6_12 C5_12 1_555 1_555
H2_12 C6_12 1_555 1_555
O10_2 C13_12 1_555 1_555
F3_12 C21_12 1_555 1_555
C13_12 O13_2 1_555 1_555
C14_12 C13_12 1_555 1_555
C15_12 C14_12 1_555 1_555
H4_12 C15_12 1_555 1_555
C19_12 C14_12 1_555 1_555
H6_12 C19_12 1_555 1_555
C21_12 C11_12 1_555 1_555
O6_3 C1_13 1_555 1_555
O3_13 C2_13 1_555 1_555
O4_13 C2_13 1_555 1_555
F1_13 C10_13 1_555 1_555
F2_13 C11_13 1_555 1_555
C1_13 O8_3 1_555 1_555
C2_13 C3_13 1_555 1_555
C3_13 C4_13 1_555 1_555
C4_13 H1_13 1_555 1_555
C5_13 C1_13 1_555 1_555
C6_13 C5_13 1_555 1_555
H2_13 C6_13 1_555 1_555
C7_13 C6_13 1_555 1_555
C8_13 C3_13 1_555 1_555
H3_13 C8_13 1_555 1_555
C9_13 C7_13 1_555 1_555
C10_13 C9_13 1_555 1_555
C11_13 C9_13 1_555 1_555
In2_4 O5_13 1_555 1_555
O5_13 C12_13 1_555 1_555
O7_13 In2_4 1_555 1_555
O10_8 C13_13 1_555 1_555
F3_13 C21_13 1_555 1_555
F4_13 C22_13 1_555 1_555
C12_13 O7_13 1_555 1_555
C13_13 O13_8 1_555 1_555
C14_13 C13_13 1_555 1_555
C15_13 C14_13 1_555 1_555
H4_13 C15_13 1_555 1_555
C16_13 C12_13 1_555 1_555
C17_13 C16_13 1_555 1_555
H5_13 C17_13 1_555 1_555
C18_13 C17_13 1_555 1_555
C19_13 C14_13 1_555 1_555
H6_13 C19_13 1_555 1_555
C20_13 C18_13 1_555 1_555
C21_13 C11_13 1_555 1_555
C22_13 C10_13 1_555 1_555
C4_13 C5_13 1_555 1_555
C7_13 C8_13 1_555 1_555
C15_13 C16_13 1_555 1_555
C18_13 C19_13 1_555 1_555
C20_13 C21_13 1_555 1_555
C20_13 C22_13 1_555 1_555
O6_4 C1_14 1_555 1_555
O3_14 C2_14 1_555 1_555
O4_14 C2_14 1_555 1_555
F1_14 C10_14 1_555 1_555
F2_14 C11_14 1_555 1_555
C1_14 O8_4 1_555 1_555
C2_14 C3_14 1_555 1_555
C3_14 C4_14 1_555 1_555
C4_14 H1_14 1_555 1_555
C5_14 C1_14 1_555 1_555
C6_14 C5_14 1_555 1_555
H2_14 C6_14 1_555 1_555
C7_14 C6_14 1_555 1_555
C8_14 C3_14 1_555 1_555
H3_14 C8_14 1_555 1_555
C9_14 C7_14 1_555 1_555
C10_14 C9_14 1_555 1_555
C11_14 C9_14 1_555 1_555
In2_3 O5_14 1_555 1_555
O5_14 C12_14 1_555 1_555
O7_14 In2_3 1_555 1_555
O10_7 C13_14 1_555 1_555
F3_14 C21_14 1_555 1_555
F4_14 C22_14 1_555 1_555
C12_14 O7_14 1_555 1_555
C13_14 O13_7 1_555 1_555
C14_14 C13_14 1_555 1_555
C15_14 C14_14 1_555 1_555
H4_14 C15_14 1_555 1_555
C16_14 C12_14 1_555 1_555
C17_14 C16_14 1_555 1_555
H5_14 C17_14 1_555 1_555
C18_14 C17_14 1_555 1_555
C19_14 C14_14 1_555 1_555
H6_14 C19_14 1_555 1_555
C20_14 C18_14 1_555 1_555
C21_14 C11_14 1_555 1_555
C22_14 C10_14 1_555 1_555
C4_14 C5_14 1_555 1_555
C7_14 C8_14 1_555 1_555
C15_14 C16_14 1_555 1_555
C18_14 C19_14 1_555 1_555
C20_14 C21_14 1_555 1_555
C20_14 C22_14 1_555 1_555
O3_15 C2_15 1_555 1_555
O4_15 C2_15 1_555 1_555
F1_15 C10_15 1_555 1_555
C2_15 C3_15 1_555 1_555
C3_15 C4_15 1_555 1_555
C4_15 H1_15 1_555 1_555
C8_15 C3_15 1_555 1_555
H3_15 C8_15 1_555 1_555
In2_4 O3_15 1_555 1_555
O4_15 In2_4 1_555 1_555
O7_15 In3_3 1_555 1_555
F4_15 C22_15 1_555 1_555
C12_15 O7_15 1_555 1_555
C16_15 C12_15 1_555 1_555
C17_15 C16_15 1_555 1_555
H5_15 C17_15 1_555 1_555
F2_15 C11_15 1_555 1_555
C1_15 O8 1_555 1_555
C5_15 C1_15 1_555 1_555
C6_15 C5_15 1_555 1_555
H2_15 C6_15 1_555 1_555
O10_5 C13_15 1_555 1_555
F3_15 C21_15 1_555 1_555
C13_15 O13_5 1_555 1_555
C14_15 C13_15 1_555 1_555
C15_15 C14_15 1_555 1_555
H4_15 C15_15 1_555 1_555
C19_15 C14_15 1_555 1_555
H6_15 C19_15 1_555 1_555
O3_16 C2_16 1_555 1_555
O4_16 C2_16 1_555 1_555
F1_16 C10_16 1_555 1_555
C2_16 C3_16 1_555 1_555
C3_16 C4_16 1_555 1_555
C4_16 H1_16 1_555 1_555
C8_16 C3_16 1_555 1_555
H3_16 C8_16 1_555 1_555
In2_3 O3_16 1_555 1_555
O7_16 In3_4 1_555 1_555
F4_16 C22_16 1_555 1_555
C12_16 O7_16 1_555 1_555
C16_16 C12_16 1_555 1_555
C17_16 C16_16 1_555 1_555
H5_16 C17_16 1_555 1_555
C18_15 C17_16 1_555 1_555
C20_15 C18_15 1_555 1_555
C22_16 C10_16 1_555 1_555
O4_16 In2_3 1_555 1_555
C20_15 C22_16 1_555 1_555
F2_16 C11_16 1_555 1_555
C1_16 O8_2 1_555 1_555
C5_16 C1_16 1_555 1_555
C6_16 C5_16 1_555 1_555
H2_16 C6_16 1_555 1_555
C7_15 C6_16 1_555 1_555
C9_15 C7_15 1_555 1_555
C11_16 C9_15 1_555 1_555
O10_6 C13_16 1_555 1_555
F3_16 C21_16 1_555 1_555
C13_16 O13_6 1_555 1_555
C14_16 C13_16 1_555 1_555
C15_16 C14_16 1_555 1_555
H4_16 C15_16 1_555 1_555
C19_16 C14_16 1_555 1_555
H6_16 C19_16 1_555 1_555
C21_16 C11_16 1_555 1_555
C9_16 C7_16 1_555 1_555
C20_16 C18_16 1_555 1_555

#END
