
###############################################################################
#
# This file contains modified crystal structure data generated from the
# MOF subset of the Cambridge Structural Database (CSD) v543 
# hosted by the Cambridge Crystallographic Data Centre (CCDC).
#
# This work is licensed under the Creative Commons
# Attribution-NonCommercial-ShareAlike 4.0 International License.
# To view a copy of this license, visit
# http://creativecommons.org/licenses/by-nc-sa/4.0/
# or send a letter to
# Creative Commons, PO Box 1866, Mountain View, CA 94042, USA.
#
# CIF created using the CSD Python API on 29 September 2022
# The structure has been converted into the P1 space group
# The structure has a 3D framework
# The original CSD entry IVAQEC is in the triclinic crystal system
# The framework has been calculated to contain at least 10.0% void space
# The void calculation uses a probe of radius 1.32A, grid spacing 0.4
#
###############################################################################

data_IVAQEC
_chemical_formula_moiety         '(C26 H18 Cl5 Cu6 N12 S6)n'
_symmetry_cell_setting           triclinic
_symmetry_space_group_name_H-M   'P 1'
_symmetry_Int_Tables_number      1
_space_group_name_Hall           'P 1'
loop_
_symmetry_equiv_pos_site_id
_symmetry_equiv_pos_as_xyz
1 x,y,z
_cell_length_a                   8.437(2)
_cell_length_b                   11.226(3)
_cell_length_c                   13.491(3)
_cell_angle_alpha                67.040(16)
_cell_angle_beta                 80.20(2)
_cell_angle_gamma                84.43(2)
_cell_volume                     1158.72
loop_
_atom_site_label
_atom_site_type_symbol
_atom_site_fract_x
_atom_site_fract_y
_atom_site_fract_z
Cu3 Cu 0.09899(8) 0.36819(7) 0.03510(6)
H7 H 0.0272 0.1392 0.2899
H8 H 0.0940 0.2267 0.4078
Cl5 Cl 0.02868(16) 0.52295(13) 0.85769(11)
N7 N 0.3428(5) 0.3546(4) 0.9981(3)
Cu1 Cu 0.71601(8) 0.15146(6) 0.17976(5)
Cl1 Cl 0.96739(15) 0.17403(13) 0.07368(11)
Cl3 Cl 0.97132(16) 0.47705(13) 0.14231(11)
S2 S 0.33983(16) 0.17233(14) 0.19250(11)
S3 S 0.48184(16) 0.24190(13) 0.34372(11)
N2 N 0.6001(5) 0.2843(4) 0.0566(3)
N3 N 0.7947(5) 0.1856(4) 0.3063(3)
N6 N 0.7119(5) 0.2931(4) 0.4286(3)
C1 C 0.4992(6) 0.1316(5) 0.2743(4)
C6 C 0.4381(6) 0.2805(5) 0.0715(4)
C10 C 0.6835(6) 0.2399(5) 0.3605(4)
C11 C 0.9457(6) 0.1801(6) 0.3248(4)
C12 C 0.9864(7) 0.2325(7) 0.3938(5)
C13 C 0.8667(7) 0.2934(6) 0.4416(5)
H9 H 0.8936 0.3364 0.4844
Cu5 Cu 0.53278(9) 0.35452(7) 0.51596(6)
C7 C 0.6706(7) 0.3661(5) 0.9615(4)
C8 C 0.5839(7) 0.4424(5) 0.8802(4)
C9 C 0.4179(7) 0.4339(5) 0.9018(4)
H4 H 0.7843 0.3720 0.9494
H5 H 0.6358 0.4988 0.8119
H6 H 0.3552 0.4855 0.8469
Cu6 Cu 0.90101(8) 0.63181(7) 0.96490(6)
Cu2 Cu 0.46722(9) 0.64548(7) 0.48404(6)
Cl2 Cl 0.3402(2) 0.50518(15) 0.42151(13)
S1 S 0.48358(17) 0.96832(13) 0.37244(11)
N1 N 0.7015(5) 0.9552(4) 0.2077(3)
N4 N 0.6001(6) 0.7575(4) 0.3422(4)
C2 C 0.6079(6) 0.8860(5) 0.2998(4)
C3 C 0.7882(6) 0.8895(5) 0.1525(4)
C4 C 0.7876(7) 0.7569(6) 0.1900(5)
C5 C 0.6939(7) 0.6939(5) 0.2873(5)
H1 H 0.8521 0.9356 0.0853
H2 H 0.8497 0.7106 0.1502
H3 H 0.6957 0.6020 0.3167
Cl4 Cl 0.6598(2) 0.49482(15) 0.57849(13)
N8 N 0.2881(5) 0.7069(4) 0.5714(3)
S1_2 S 0.51642(17) 0.03168(13) 0.62756(11)
N1_2 N 0.2985(5) 0.0448(4) 0.7923(3)
N4_2 N 0.3999(6) 0.2425(4) 0.6578(4)
C2_2 C 0.3921(6) 0.1140(5) 0.7002(4)
C3_2 C 0.2118(6) 0.1105(5) 0.8475(4)
C4_2 C 0.2124(7) 0.2431(6) 0.8100(5)
C5_2 C 0.3061(7) 0.3061(5) 0.7127(5)
H1_2 H 0.1479 0.0644 0.9147
H2_2 H 0.1503 0.2894 0.8498
H3_2 H 0.3043 0.3980 0.6833
N5 N 0.6572(5) 0.6454(4) 0.0019(3)
C7_2 C 0.3294(7) 0.6339(5) 0.0385(4)
C8_2 C 0.4161(7) 0.5576(5) 0.1198(4)
C9_2 C 0.5821(7) 0.5661(5) 0.0982(4)
H4_2 H 0.2157 0.6280 0.0506
H5_2 H 0.3642 0.5012 0.1881
H6_2 H 0.6448 0.5145 0.1531
Cu1_2 Cu 0.28399(8) 0.84854(6) 0.82024(5)
Cl1_2 Cl 0.03261(15) 0.82597(13) 0.92632(11)
S2_2 S 0.66017(16) 0.82767(14) 0.80750(11)
S3_2 S 0.51816(16) 0.75810(13) 0.65628(11)
N2_2 N 0.3999(5) 0.7157(4) 0.9434(3)
N3_2 N 0.2053(5) 0.8144(4) 0.6937(3)
C1_2 C 0.5008(6) 0.8684(5) 0.7257(4)
C6_2 C 0.5619(6) 0.7195(5) 0.9285(4)
C10_2 C 0.3165(6) 0.7601(5) 0.6395(4)
C11_2 C 0.0543(6) 0.8199(6) 0.6752(4)
C12_2 C 0.0136(7) 0.7675(7) 0.6062(5)
C13_2 C 0.1333(7) 0.7066(6) 0.5584(5)
H9_2 H 0.1064 0.6636 0.5156
H7_2 H 0.9728 0.8608 0.7101
H8_2 H 0.9060 0.7733 0.5922
loop_
_geom_bond_atom_site_label_1
_geom_bond_atom_site_label_2
_geom_bond_site_symmetry_1
_geom_bond_site_symmetry_2
Cu1 Cl1 1_555 1_555
S2 C1 1_555 1_555
S3 C1 1_555 1_555
N2 Cu1 1_555 1_555
N3 Cu1 1_555 1_555
N6 C10 1_555 1_555
C1 Cu1 1_555 1_555
C6 S2 1_555 1_555
C10 S3 1_555 1_555
C11 N3 1_555 1_555
C12 C11 1_555 1_555
C13 N6 1_555 1_555
H9 C13 1_555 1_555
Cu5 N6 1_555 1_555
N2 C6 1_555 1_555
N3 C10 1_555 1_555
C12 C13 1_555 1_555
C8 C7 1_555 1_555
C9 N7 1_555 1_555
H4 C7 1_555 1_555
H5 C8 1_555 1_555
H6 C9 1_555 1_555
C8 C9 1_555 1_555
Cu2 Cl2 1_555 1_555
Cl2 Cu5 1_555 1_555
N4 Cu2 1_555 1_555
C2 S1 1_555 1_555
C3 N1 1_555 1_555
C4 C3 1_555 1_555
C5 N4 1_555 1_555
H1 C3 1_555 1_555
H2 C4 1_555 1_555
H3 C5 1_555 1_555
Cu5 Cl4 1_555 1_555
Cl4 Cu2 1_555 1_555
N8 Cu2 1_555 1_555
N1 C2 1_555 1_555
N4 C2 1_555 1_555
C4 C5 1_555 1_555
N4_2 Cu5 1_555 1_555
C2_2 S1_2 1_555 1_555
C3_2 N1_2 1_555 1_555
C4_2 C3_2 1_555 1_555
C5_2 N4_2 1_555 1_555
H1_2 C3_2 1_555 1_555
H2_2 C4_2 1_555 1_555
H3_2 C5_2 1_555 1_555
N1_2 C2_2 1_555 1_555
N4_2 C2_2 1_555 1_555
C4_2 C5_2 1_555 1_555
C8_2 C7_2 1_555 1_555
C9_2 N5 1_555 1_555
H4_2 C7_2 1_555 1_555
H5_2 C8_2 1_555 1_555
H6_2 C9_2 1_555 1_555
C8_2 C9_2 1_555 1_555
Cu1_2 Cl1_2 1_555 1_555
S2_2 C1_2 1_555 1_555
S3_2 C1_2 1_555 1_555
N2_2 Cu1_2 1_555 1_555
N3_2 Cu1_2 1_555 1_555
N8 C10_2 1_555 1_555
C1_2 Cu1_2 1_555 1_555
C6_2 S2_2 1_555 1_555
C10_2 S3_2 1_555 1_555
C11_2 N3_2 1_555 1_555
C12_2 C11_2 1_555 1_555
C13_2 N8 1_555 1_555
H9_2 C13_2 1_555 1_555
N2_2 C6_2 1_555 1_555
N3_2 C10_2 1_555 1_555
C12_2 C13_2 1_555 1_555

#END
