
###############################################################################
#
# This file contains modified crystal structure data generated from the
# MOF subset of the Cambridge Structural Database (CSD) v543 
# hosted by the Cambridge Crystallographic Data Centre (CCDC).
#
# This work is licensed under the Creative Commons
# Attribution-NonCommercial-ShareAlike 4.0 International License.
# To view a copy of this license, visit
# http://creativecommons.org/licenses/by-nc-sa/4.0/
# or send a letter to
# Creative Commons, PO Box 1866, Mountain View, CA 94042, USA.
#
# CIF created using the CSD Python API on 29 September 2022
# The structure has been converted into the P1 space group
# The structure has a 3D framework
# The original CSD entry IVEGEV is in the orthorhombic crystal system
# The framework has been calculated to contain at least 10.0% void space
# The void calculation uses a probe of radius 1.32A, grid spacing 0.4
#
###############################################################################

data_IVEGEV
_chemical_formula_moiety         '(C512 H384 Cu40 N64 O128)n'
_symmetry_cell_setting           triclinic
_symmetry_space_group_name_H-M   'P 1'
_symmetry_Int_Tables_number      1
_space_group_name_Hall           'P 1'
loop_
_symmetry_equiv_pos_site_id
_symmetry_equiv_pos_as_xyz
1 x,y,z
_cell_length_a                   15.913(2)
_cell_length_b                   21.616(4)
_cell_length_c                   42.739(10)
_cell_angle_alpha                90
_cell_angle_beta                 90
_cell_angle_gamma                90
_cell_volume                     14701.2
loop_
_atom_site_label
_atom_site_type_symbol
_atom_site_fract_x
_atom_site_fract_y
_atom_site_fract_z
N9 N 0.0933(4) 0.3786(3) 0.69035(15)
N10 N 0.0933(4) 0.8714(3) 0.55965(15)
O15 O 0.1636(4) 0.0549(3) 0.76483(13)
O16 O 0.0232(4) 0.0755(3) 0.76683(14)
C57 C 0.0861(6) 0.0470(4) 0.75692(18)
Cu13 Cu 0.21632(6) 0.11415(5) 0.79822(2)
Cu14 Cu 0.03368(6) 0.13585(5) 0.79822(2)
Cu1 Cu 0.28368(6) 0.36415(5) 0.54822(2)
Cu2 Cu 0.6250 0.6250 0.6250
N1 N 0.5232(6) 0.6038(4) 0.6614(2)
N2 N 0.1567(4) 0.3786(3) 0.55965(15)
O1 O 0.1636(4) 0.1951(3) 0.48517(13)
O2 O 0.0232(4) 0.1745(3) 0.48317(14)
O3 O 0.3231(4) 0.4356(3) 0.58209(13)
O4 O 0.4624(3) 0.4485(3) 0.57908(14)
C1 C 0.0861(6) 0.2030(4) 0.49308(18)
C2 C 0.0657(6) 0.2513(4) 0.5177(2)
H1 H 0.0097 0.2548 0.5237
C3 C 0.1185(6) 0.2880(4) 0.53121(19)
H2 H 0.1751 0.2828 0.5266
C4 C 0.0962(5) 0.3365(4) 0.55291(18)
C5 C 0.0176(6) 0.3412(5) 0.5670(2)
C6 C 0.0010(7) 0.3912(6) 0.5852(3)
C7 C 0.0593(6) 0.4351(5) 0.5902(3)
H5 H 0.0471 0.4701 0.6020
C8 C 0.1363(6) 0.4267(5) 0.5775(2)
H6 H 0.1774 0.4562 0.5815
C9 C 0.3899(5) 0.4592(4) 0.58994(18)
C10 C 0.3852(7) 0.5072(4) 0.6153(2)
H7 H 0.3328 0.5223 0.6211
C11 C 0.4539(7) 0.5294(4) 0.6298(2)
H8 H 0.5061 0.5153 0.6231
C12 C 0.3839(12) 0.5878(6) 0.6730(3)
H9 H 0.3337 0.5673 0.6690
C13 C 0.3886(13) 0.6319(7) 0.6967(3)
H10 H 0.3412 0.6426 0.7082
C14 C 0.4518(7) 0.5755(4) 0.6562(2)
C15 C 0.4646(11) 0.6592(5) 0.7027(3)
H11 H 0.4723 0.6870 0.7190
C16 C 0.5204(9) 0.6446(5) 0.6854(3)
H12 H 0.5709 0.6650 0.6892
N3 N 0.5232(6) 0.6462(4) 0.5886(2)
O5 O 0.3231(4) 0.8144(3) 0.66791(13)
O6 O 0.4624(3) 0.8015(3) 0.67092(14)
C17 C 0.3899(5) 0.7908(4) 0.66006(18)
C18 C 0.3852(7) 0.7428(4) 0.6347(2)
H13 H 0.3328 0.7277 0.6289
C19 C 0.4539(7) 0.7206(4) 0.6202(2)
H14 H 0.5061 0.7347 0.6269
C20 C 0.3839(12) 0.6622(6) 0.5770(3)
H15 H 0.3337 0.6827 0.5810
C21 C 0.3886(13) 0.6181(7) 0.5533(3)
H16 H 0.3412 0.6074 0.5418
C22 C 0.4518(7) 0.6745(4) 0.5938(2)
C23 C 0.4646(11) 0.5908(5) 0.5473(3)
H17 H 0.4723 0.5630 0.5310
C24 C 0.5204(9) 0.6054(5) 0.5646(3)
H18 H 0.5709 0.5850 0.5608
N4 N 0.7268(6) 0.6038(4) 0.5886(2)
O7 O 0.9269(4) 0.4356(3) 0.66791(13)
O8 O 0.7876(3) 0.4485(3) 0.67092(14)
C25 C 0.8601(5) 0.4592(4) 0.66006(18)
C26 C 0.8648(7) 0.5072(4) 0.6347(2)
H19 H 0.9172 0.5223 0.6289
C27 C 0.7961(7) 0.5294(4) 0.6202(2)
H20 H 0.7439 0.5153 0.6269
C28 C 0.8661(12) 0.5878(6) 0.5770(3)
H21 H 0.9163 0.5673 0.5810
C29 C 0.8614(13) 0.6319(7) 0.5533(3)
H22 H 0.9088 0.6426 0.5418
C30 C 0.7982(7) 0.5755(4) 0.5938(2)
C31 C 0.7854(11) 0.6592(5) 0.5473(3)
H23 H 0.7777 0.6870 0.5310
C32 C 0.7296(9) 0.6446(5) 0.5646(3)
H24 H 0.6791 0.6650 0.5608
N5 N 0.7268(6) 0.6462(4) 0.6614(2)
O9 O 0.9269(4) 0.8144(3) 0.58209(13)
O10 O 0.7876(3) 0.8015(3) 0.57908(14)
C33 C 0.8601(5) 0.7908(4) 0.58994(18)
C34 C 0.8648(7) 0.7428(4) 0.6153(2)
H25 H 0.9172 0.7277 0.6211
C35 C 0.7961(7) 0.7206(4) 0.6298(2)
H26 H 0.7439 0.7347 0.6231
C36 C 0.8661(12) 0.6622(6) 0.6730(3)
H27 H 0.9163 0.6827 0.6690
C37 C 0.8614(13) 0.6181(7) 0.6967(3)
H28 H 0.9088 0.6074 0.7082
C38 C 0.7982(7) 0.6745(4) 0.6562(2)
C39 C 0.7854(11) 0.5908(5) 0.7027(3)
H29 H 0.7777 0.5630 0.7190
C40 C 0.7296(9) 0.6054(5) 0.6854(3)
H30 H 0.6791 0.5850 0.6892
Cu3 Cu 0.28368(6) 0.88585(5) 0.70178(2)
Cu4 Cu 0.96632(6) 0.36415(5) 0.70178(2)
Cu5 Cu 0.96632(6) 0.88585(5) 0.54822(2)
N6 N 0.3433(4) 0.1214(3) 0.44035(15)
O11 O 0.3364(4) 0.3049(3) 0.51483(13)
O12 O 0.4768(4) 0.3255(3) 0.51683(14)
C41 C 0.4139(6) 0.2970(4) 0.50692(18)
C42 C 0.4343(6) 0.2487(4) 0.4823(2)
H31 H 0.4903 0.2452 0.4763
C43 C 0.3815(6) 0.2120(4) 0.46879(19)
H32 H 0.3249 0.2172 0.4734
C44 C 0.4038(5) 0.1635(4) 0.44709(18)
C45 C 0.4824(6) 0.1588(5) 0.4330(2)
H33 H 0.5228 0.1893 0.4361
C46 C 0.4990(7) 0.1088(6) 0.4148(3)
H34 H 0.5517 0.1049 0.4056
C47 C 0.4407(6) 0.0649(5) 0.4098(3)
H35 H 0.4529 0.0299 0.3980
C48 C 0.3637(6) 0.0733(5) 0.4225(2)
H36 H 0.3226 0.0438 0.4185
N7 N 0.4067(4) 0.6286(3) 0.44035(15)
O13 O 0.4136(4) 0.4451(3) 0.51483(13)
O14 O 0.2732(4) 0.4245(3) 0.51683(14)
C49 C 0.3361(6) 0.4530(4) 0.50692(18)
C50 C 0.3157(6) 0.5013(4) 0.4823(2)
H37 H 0.2597 0.5048 0.4763
C51 C 0.3685(6) 0.5380(4) 0.46879(19)
H38 H 0.4251 0.5328 0.4734
C52 C 0.3462(5) 0.5865(4) 0.44709(18)
C53 C 0.2676(6) 0.5912(5) 0.4330(2)
H39 H 0.2272 0.5607 0.4361
C54 C 0.2510(7) 0.6412(6) 0.4148(3)
H40 H 0.1983 0.6451 0.4056
C55 C 0.3093(6) 0.6851(5) 0.4098(3)
H41 H 0.2971 0.7201 0.3980
C56 C 0.3863(6) 0.6767(5) 0.4225(2)
H42 H 0.4274 0.7062 0.4185
N8 N 0.1567(4) 0.8714(3) 0.69035(15)
C58 C 0.0657(6) 0.9987(4) 0.7323(2)
H43 H 0.0097 0.9952 0.7263
C59 C 0.1185(6) 0.9620(4) 0.71879(19)
H44 H 0.1751 0.9672 0.7234
C60 C 0.0962(5) 0.9135(4) 0.69709(18)
C61 C 0.0176(6) 0.9088(5) 0.6830(2)
C62 C 0.0010(7) 0.8588(6) 0.6648(3)
C63 C 0.0593(6) 0.8149(5) 0.6598(3)
H47 H 0.0471 0.7799 0.6480
C64 C 0.1363(6) 0.8233(5) 0.6725(2)
H48 H 0.1774 0.7938 0.6685
Cu6 Cu 0.46632(6) 0.38585(5) 0.54822(2)
O17 O 0.2876(3) 0.3015(3) 0.57908(14)
Cu7 Cu 0.21632(6) 0.13585(5) 0.45178(2)
Cu8 Cu 0.03368(6) 0.11415(5) 0.45178(2)
Cu9 Cu 0.46632(6) 0.86415(5) 0.70178(2)
Cu10 Cu 0.78368(6) 0.38585(5) 0.70178(2)
Cu11 Cu 0.78368(6) 0.86415(5) 0.54822(2)
O18 O 0.3364(4) 0.9451(3) 0.73517(13)
O19 O 0.2732(4) 0.8255(3) 0.73317(14)
O20 O 0.2876(3) 0.9485(3) 0.67092(14)
O21 O 0.9136(4) 0.3049(3) 0.73517(13)
O22 O 0.9768(4) 0.4245(3) 0.73317(14)
O23 O 0.9624(3) 0.3015(3) 0.67092(14)
O24 O 0.9136(4) 0.9451(3) 0.51483(13)
O25 O 0.9768(4) 0.8255(3) 0.51683(14)
O26 O 0.9624(3) 0.9485(3) 0.57908(14)
Cu12 Cu 0.53368(6) 0.61415(5) 0.45178(2)
H3 H 0.9772 0.3107 0.5639
H4 H 0.9483 0.3951 0.5944
H45 H 0.9772 0.9393 0.6861
H46 H 0.9483 0.8549 0.6556
N10_2 N 0.0933(4) 0.3714(3) 0.05965(15)
N9_2 N 0.0933(4) 0.8786(3) 0.19035(15)
Cu2_2 Cu 0.6250 0.1250 0.1250
N1_2 N 0.5232(6) 0.1038(4) 0.1614(2)
C10_2 C 0.3852(7) 0.0072(4) 0.1153(2)
H7_2 H 0.3328 0.0223 0.1211
C11_2 C 0.4539(7) 0.0294(4) 0.1298(2)
H8_2 H 0.5061 0.0153 0.1231
C12_2 C 0.3839(12) 0.0878(6) 0.1730(3)
H9_2 H 0.3337 0.0673 0.1690
C13_2 C 0.3886(13) 0.1319(7) 0.1967(3)
H10_2 H 0.3412 0.1426 0.2082
C14_2 C 0.4518(7) 0.0755(4) 0.1562(2)
C15_2 C 0.4646(11) 0.1592(5) 0.2027(3)
H11_2 H 0.4723 0.1870 0.2190
C16_2 C 0.5204(9) 0.1446(5) 0.1854(3)
H12_2 H 0.5709 0.1650 0.1892
N3_2 N 0.5232(6) 0.1462(4) 0.0886(2)
O5_2 O 0.3231(4) 0.3144(3) 0.16791(13)
O6_2 O 0.4624(3) 0.3015(3) 0.17092(14)
C17_2 C 0.3899(5) 0.2908(4) 0.16006(18)
C18_2 C 0.3852(7) 0.2428(4) 0.1347(2)
H13_2 H 0.3328 0.2277 0.1289
C19_2 C 0.4539(7) 0.2206(4) 0.1202(2)
H14_2 H 0.5061 0.2347 0.1269
C20_2 C 0.3839(12) 0.1622(6) 0.0770(3)
H15_2 H 0.3337 0.1827 0.0810
C21_2 C 0.3886(13) 0.1181(7) 0.0533(3)
H16_2 H 0.3412 0.1074 0.0418
C22_2 C 0.4518(7) 0.1745(4) 0.0938(2)
C23_2 C 0.4646(11) 0.0908(5) 0.0473(3)
H17_2 H 0.4723 0.0630 0.0310
C24_2 C 0.5204(9) 0.1054(5) 0.0646(3)
H18_2 H 0.5709 0.0850 0.0608
N4_2 N 0.7268(6) 0.1038(4) 0.0886(2)
C26_2 C 0.8648(7) 0.0072(4) 0.1347(2)
H19_2 H 0.9172 0.0223 0.1289
C27_2 C 0.7961(7) 0.0294(4) 0.1202(2)
H20_2 H 0.7439 0.0153 0.1269
C28_2 C 0.8661(12) 0.0878(6) 0.0770(3)
H21_2 H 0.9163 0.0673 0.0810
C29_2 C 0.8614(13) 0.1319(7) 0.0533(3)
H22_2 H 0.9088 0.1426 0.0418
C30_2 C 0.7982(7) 0.0755(4) 0.0938(2)
C31_2 C 0.7854(11) 0.1592(5) 0.0473(3)
H23_2 H 0.7777 0.1870 0.0310
C32_2 C 0.7296(9) 0.1446(5) 0.0646(3)
H24_2 H 0.6791 0.1650 0.0608
N5_2 N 0.7268(6) 0.1462(4) 0.1614(2)
O9_2 O 0.9269(4) 0.3144(3) 0.08209(13)
O10_2 O 0.7876(3) 0.3015(3) 0.07908(14)
C33_2 C 0.8601(5) 0.2908(4) 0.08994(18)
C34_2 C 0.8648(7) 0.2428(4) 0.1153(2)
H25_2 H 0.9172 0.2277 0.1211
C35_2 C 0.7961(7) 0.2206(4) 0.1298(2)
H26_2 H 0.7439 0.2347 0.1231
C36_2 C 0.8661(12) 0.1622(6) 0.1730(3)
H27_2 H 0.9163 0.1827 0.1690
C37_2 C 0.8614(13) 0.1181(7) 0.1967(3)
H28_2 H 0.9088 0.1074 0.2082
C38_2 C 0.7982(7) 0.1745(4) 0.1562(2)
C39_2 C 0.7854(11) 0.0908(5) 0.2027(3)
H29_2 H 0.7777 0.0630 0.2190
C40_2 C 0.7296(9) 0.1054(5) 0.1854(3)
H30_2 H 0.6791 0.0850 0.1892
Cu3_2 Cu 0.28368(6) 0.38585(5) 0.20178(2)
Cu5_2 Cu 0.96632(6) 0.38585(5) 0.04822(2)
N8_2 N 0.1567(4) 0.3714(3) 0.19035(15)
O15_2 O 0.1636(4) 0.5549(3) 0.26483(13)
O16_2 O 0.0232(4) 0.5755(3) 0.26683(14)
C57_2 C 0.0861(6) 0.5470(4) 0.25692(18)
C58_2 C 0.0657(6) 0.4987(4) 0.2323(2)
H43_2 H 0.0097 0.4952 0.2263
C59_2 C 0.1185(6) 0.4620(4) 0.21879(19)
H44_2 H 0.1751 0.4672 0.2234
C60_2 C 0.0962(5) 0.4135(4) 0.19709(18)
C61_2 C 0.0176(6) 0.4088(5) 0.1830(2)
C62_2 C 0.0010(7) 0.3588(6) 0.1648(3)
C63_2 C 0.0593(6) 0.3149(5) 0.1598(3)
H47_2 H 0.0471 0.2799 0.1480
C64_2 C 0.1363(6) 0.3233(5) 0.1725(2)
H48_2 H 0.1774 0.2938 0.1685
Cu9_2 Cu 0.46632(6) 0.36415(5) 0.20178(2)
Cu11_2 Cu 0.78368(6) 0.36415(5) 0.04822(2)
O18_2 O 0.3364(4) 0.4451(3) 0.23517(13)
O19_2 O 0.2732(4) 0.3255(3) 0.23317(14)
O20_2 O 0.2876(3) 0.4485(3) 0.17092(14)
O24_2 O 0.9136(4) 0.4451(3) 0.01483(13)
O25_2 O 0.9768(4) 0.3255(3) 0.01683(14)
O26_2 O 0.9624(3) 0.4485(3) 0.07908(14)
Cu13_2 Cu 0.21632(6) 0.61415(5) 0.29822(2)
Cu14_2 Cu 0.03368(6) 0.63585(5) 0.29822(2)
N7_2 N 0.4067(4) 0.1286(3) 0.94035(15)
C50_2 C 0.3157(6) 0.0013(4) 0.9823(2)
H37_2 H 0.2597 0.0048 0.9763
C51_2 C 0.3685(6) 0.0380(4) 0.96879(19)
H38_2 H 0.4251 0.0328 0.9734
C52_2 C 0.3462(5) 0.0865(4) 0.94709(18)
C53_2 C 0.2676(6) 0.0912(5) 0.9330(2)
H39_2 H 0.2272 0.0607 0.9361
C54_2 C 0.2510(7) 0.1412(6) 0.9148(3)
H40_2 H 0.1983 0.1451 0.9056
C55_2 C 0.3093(6) 0.1851(5) 0.9098(3)
H41_2 H 0.2971 0.2201 0.8980
C56_2 C 0.3863(6) 0.1767(5) 0.9225(2)
H42_2 H 0.4274 0.2062 0.9185
Cu12_2 Cu 0.53368(6) 0.11415(5) 0.95178(2)
Cu1_2 Cu 0.28368(6) 0.86415(5) 0.04822(2)
N2_2 N 0.1567(4) 0.8786(3) 0.05965(15)
O3_2 O 0.3231(4) 0.9356(3) 0.08209(13)
O4_2 O 0.4624(3) 0.9485(3) 0.07908(14)
C2_2 C 0.0657(6) 0.7513(4) 0.0177(2)
H1_2 H 0.0097 0.7548 0.0237
C3_2 C 0.1185(6) 0.7880(4) 0.03121(19)
H2_2 H 0.1751 0.7828 0.0266
C4_2 C 0.0962(5) 0.8365(4) 0.05291(18)
C5_2 C 0.0176(6) 0.8412(5) 0.0670(2)
C6_2 C 0.0010(7) 0.8912(6) 0.0852(3)
C7_2 C 0.0593(6) 0.9351(5) 0.0902(3)
H5_2 H 0.0471 0.9701 0.1020
C8_2 C 0.1363(6) 0.9267(5) 0.0775(2)
H6_2 H 0.1774 0.9562 0.0815
C9_2 C 0.3899(5) 0.9592(4) 0.08994(18)
O7_2 O 0.9269(4) 0.9356(3) 0.16791(13)
O8_2 O 0.7876(3) 0.9485(3) 0.17092(14)
C25_2 C 0.8601(5) 0.9592(4) 0.16006(18)
Cu4_2 Cu 0.96632(6) 0.86415(5) 0.20178(2)
O11_2 O 0.3364(4) 0.8049(3) 0.01483(13)
O12_2 O 0.4768(4) 0.8255(3) 0.01683(14)
C41_2 C 0.4139(6) 0.7970(4) 0.00692(18)
O13_2 O 0.4136(4) 0.9451(3) 0.01483(13)
O14_2 O 0.2732(4) 0.9245(3) 0.01683(14)
C49_2 C 0.3361(6) 0.9530(4) 0.00692(18)
Cu6_2 Cu 0.46632(6) 0.88585(5) 0.04822(2)
O17_2 O 0.2876(3) 0.8015(3) 0.07908(14)
Cu10_2 Cu 0.78368(6) 0.88585(5) 0.20178(2)
O21_2 O 0.9136(4) 0.8049(3) 0.23517(13)
O22_2 O 0.9768(4) 0.9245(3) 0.23317(14)
O23_2 O 0.9624(3) 0.8015(3) 0.17092(14)
O1_2 O 0.1636(4) 0.6951(3) 0.98517(13)
O2_2 O 0.0232(4) 0.6745(3) 0.98317(14)
C1_2 C 0.0861(6) 0.7030(4) 0.99308(18)
N6_2 N 0.3433(4) 0.6214(3) 0.94035(15)
C42_2 C 0.4343(6) 0.7487(4) 0.9823(2)
H31_2 H 0.4903 0.7452 0.9763
C43_2 C 0.3815(6) 0.7120(4) 0.96879(19)
H32_2 H 0.3249 0.7172 0.9734
C44_2 C 0.4038(5) 0.6635(4) 0.94709(18)
C45_2 C 0.4824(6) 0.6588(5) 0.9330(2)
H33_2 H 0.5228 0.6893 0.9361
C46_2 C 0.4990(7) 0.6088(6) 0.9148(3)
H34_2 H 0.5517 0.6049 0.9056
C47_2 C 0.4407(6) 0.5649(5) 0.9098(3)
H35_2 H 0.4529 0.5299 0.8980
C48_2 C 0.3637(6) 0.5733(5) 0.9225(2)
H36_2 H 0.3226 0.5438 0.9185
Cu7_2 Cu 0.21632(6) 0.63585(5) 0.95178(2)
Cu8_2 Cu 0.03368(6) 0.61415(5) 0.95178(2)
H45_2 H 0.9772 0.4393 0.1861
H46_2 H 0.9483 0.3549 0.1556
H3_2 H 0.9772 0.8107 0.0639
H4_2 H 0.9483 0.8951 0.0944
N6_3 N 0.3433(4) 0.1286(3) 0.80965(15)
C42_3 C 0.4343(6) 0.0013(4) 0.7677(2)
H31_3 H 0.4903 0.0048 0.7737
C43_3 C 0.3815(6) 0.0380(4) 0.78121(19)
H32_3 H 0.3249 0.0328 0.7766
C44_3 C 0.4038(5) 0.0865(4) 0.80291(18)
C45_3 C 0.4824(6) 0.0912(5) 0.8170(2)
H33_3 H 0.5228 0.0607 0.8139
C46_3 C 0.4990(7) 0.1412(6) 0.8352(3)
H34_3 H 0.5517 0.1451 0.8444
C47_3 C 0.4407(6) 0.1851(5) 0.8402(3)
H35_3 H 0.4529 0.2201 0.8520
C48_3 C 0.3637(6) 0.1767(5) 0.8275(2)
H36_3 H 0.3226 0.2062 0.8315
O12_3 O 0.4768(4) 0.9245(3) 0.73317(14)
C41_3 C 0.4139(6) 0.9530(4) 0.74308(18)
N7_3 N 0.4067(4) 0.6214(3) 0.80965(15)
O13_3 O 0.4136(4) 0.8049(3) 0.73517(13)
C49_3 C 0.3361(6) 0.7970(4) 0.74308(18)
C50_3 C 0.3157(6) 0.7487(4) 0.7677(2)
H37_3 H 0.2597 0.7452 0.7737
C51_3 C 0.3685(6) 0.7120(4) 0.78121(19)
H38_3 H 0.4251 0.7172 0.7766
C52_3 C 0.3462(5) 0.6635(4) 0.80291(18)
C53_3 C 0.2676(6) 0.6588(5) 0.8170(2)
H39_3 H 0.2272 0.6893 0.8139
C54_3 C 0.2510(7) 0.6088(6) 0.8352(3)
H40_3 H 0.1983 0.6049 0.8444
C55_3 C 0.3093(6) 0.5649(5) 0.8402(3)
H41_3 H 0.2971 0.5299 0.8520
C56_3 C 0.3863(6) 0.5733(5) 0.8275(2)
H42_3 H 0.4274 0.5438 0.8315
Cu12_3 Cu 0.53368(6) 0.63585(5) 0.79822(2)
Cu2_3 Cu 0.1250 0.6250 0.1250
N1_3 N 0.0232(6) 0.6038(4) 0.1614(2)
H8_3 H 0.0061 0.5153 0.1231
C16_3 C 0.0204(9) 0.6446(5) 0.1854(3)
H12_3 H 0.0709 0.6650 0.1892
N3_3 N 0.0232(6) 0.6462(4) 0.0886(2)
H14_3 H 0.0061 0.7347 0.1269
C24_3 C 0.0204(9) 0.6054(5) 0.0646(3)
H18_3 H 0.0709 0.5850 0.0608
N4_3 N 0.2268(6) 0.6038(4) 0.0886(2)
O7_3 O 0.4269(4) 0.4356(3) 0.16791(13)
C25_3 C 0.3601(5) 0.4592(4) 0.16006(18)
C26_3 C 0.3648(7) 0.5072(4) 0.1347(2)
H19_3 H 0.4172 0.5223 0.1289
C27_3 C 0.2961(7) 0.5294(4) 0.1202(2)
H20_3 H 0.2439 0.5153 0.1269
C28_3 C 0.3661(12) 0.5878(6) 0.0770(3)
H21_3 H 0.4163 0.5673 0.0810
C29_3 C 0.3614(13) 0.6319(7) 0.0533(3)
H22_3 H 0.4088 0.6426 0.0418
C30_3 C 0.2982(7) 0.5755(4) 0.0938(2)
C31_3 C 0.2854(11) 0.6592(5) 0.0473(3)
H23_3 H 0.2777 0.6870 0.0310
C32_3 C 0.2296(9) 0.6446(5) 0.0646(3)
H24_3 H 0.1791 0.6650 0.0608
N5_3 N 0.2268(6) 0.6462(4) 0.1614(2)
O9_3 O 0.4269(4) 0.8144(3) 0.08209(13)
C33_3 C 0.3601(5) 0.7908(4) 0.08994(18)
C34_3 C 0.3648(7) 0.7428(4) 0.1153(2)
H25_3 H 0.4172 0.7277 0.1211
C35_3 C 0.2961(7) 0.7206(4) 0.1298(2)
H26_3 H 0.2439 0.7347 0.1231
C36_3 C 0.3661(12) 0.6622(6) 0.1730(3)
H27_3 H 0.4163 0.6827 0.1690
C37_3 C 0.3614(13) 0.6181(7) 0.1967(3)
H28_3 H 0.4088 0.6074 0.2082
C38_3 C 0.2982(7) 0.6745(4) 0.1562(2)
C39_3 C 0.2854(11) 0.5908(5) 0.2027(3)
H29_3 H 0.2777 0.5630 0.2190
C40_3 C 0.2296(9) 0.6054(5) 0.1854(3)
H30_3 H 0.1791 0.5850 0.1892
N9_3 N 0.5933(4) 0.3786(3) 0.19035(15)
O21_3 O 0.4136(4) 0.3049(3) 0.23517(13)
O22_3 O 0.4768(4) 0.4245(3) 0.23317(14)
N10_3 N 0.5933(4) 0.8714(3) 0.05965(15)
H33_4 H 0.0228 0.1893 0.9361
H34_4 H 0.0517 0.1049 0.9056
O15_3 O 0.6636(4) 0.0549(3) 0.26483(13)
O16_3 O 0.5232(4) 0.0755(3) 0.26683(14)
C57_3 C 0.5861(6) 0.0470(4) 0.25692(18)
Cu13_3 Cu 0.71632(6) 0.11415(5) 0.29822(2)
Cu14_3 Cu 0.53368(6) 0.13585(5) 0.29822(2)
N2_3 N 0.6567(4) 0.3786(3) 0.05965(15)
O3_3 O 0.8231(4) 0.4356(3) 0.08209(13)
C2_3 C 0.5657(6) 0.2513(4) 0.0177(2)
H1_3 H 0.5097 0.2548 0.0237
C3_3 C 0.6185(6) 0.2880(4) 0.03121(19)
H2_3 H 0.6751 0.2828 0.0266
C4_3 C 0.5962(5) 0.3365(4) 0.05291(18)
C5_3 C 0.5176(6) 0.3412(5) 0.0670(2)
H3_3 H 0.4772 0.3107 0.0639
C6_3 C 0.5010(7) 0.3912(6) 0.0852(3)
H4_3 H 0.4483 0.3951 0.0944
C7_3 C 0.5593(6) 0.4351(5) 0.0902(3)
H5_3 H 0.5471 0.4701 0.1020
C8_3 C 0.6363(6) 0.4267(5) 0.0775(2)
H6_3 H 0.6774 0.4562 0.0815
C9_3 C 0.8899(5) 0.4592(4) 0.08994(18)
C10_3 C 0.8852(7) 0.5072(4) 0.1153(2)
H7_3 H 0.8328 0.5223 0.1211
C11_3 C 0.9539(7) 0.5294(4) 0.1298(2)
C12_3 C 0.8839(12) 0.5878(6) 0.1730(3)
H9_3 H 0.8337 0.5673 0.1690
C13_3 C 0.8886(13) 0.6319(7) 0.1967(3)
H10_3 H 0.8412 0.6426 0.2082
C14_3 C 0.9518(7) 0.5755(4) 0.1562(2)
C15_3 C 0.9646(11) 0.6592(5) 0.2027(3)
H11_3 H 0.9723 0.6870 0.2190
O5_3 O 0.8231(4) 0.8144(3) 0.16791(13)
C17_3 C 0.8899(5) 0.7908(4) 0.16006(18)
C18_3 C 0.8852(7) 0.7428(4) 0.1347(2)
H13_3 H 0.8328 0.7277 0.1289
C19_3 C 0.9539(7) 0.7206(4) 0.1202(2)
C20_3 C 0.8839(12) 0.6622(6) 0.0770(3)
H15_3 H 0.8337 0.6827 0.0810
C21_3 C 0.8886(13) 0.6181(7) 0.0533(3)
H16_3 H 0.8412 0.6074 0.0418
C22_3 C 0.9518(7) 0.6745(4) 0.0938(2)
C23_3 C 0.9646(11) 0.5908(5) 0.0473(3)
H17_3 H 0.9723 0.5630 0.0310
O11_3 O 0.8364(4) 0.3049(3) 0.01483(13)
C41_4 C 0.9139(6) 0.2970(4) 0.00692(18)
O14_3 O 0.7732(4) 0.4245(3) 0.01683(14)
C49_4 C 0.8361(6) 0.4530(4) 0.00692(18)
N8_3 N 0.6567(4) 0.8714(3) 0.19035(15)
C58_3 C 0.5657(6) 0.9987(4) 0.2323(2)
H43_3 H 0.5097 0.9952 0.2263
C59_3 C 0.6185(6) 0.9620(4) 0.21879(19)
H44_3 H 0.6751 0.9672 0.2234
C60_3 C 0.5962(5) 0.9135(4) 0.19709(18)
C61_3 C 0.5176(6) 0.9088(5) 0.1830(2)
H45_3 H 0.4772 0.9393 0.1861
C62_3 C 0.5010(7) 0.8588(6) 0.1648(3)
H46_3 H 0.4483 0.8549 0.1556
C63_3 C 0.5593(6) 0.8149(5) 0.1598(3)
H47_3 H 0.5471 0.7799 0.1480
C64_3 C 0.6363(6) 0.8233(5) 0.1725(2)
H48_3 H 0.6774 0.7938 0.1685
O18_3 O 0.8364(4) 0.9451(3) 0.23517(13)
O19_3 O 0.7732(4) 0.8255(3) 0.23317(14)
O1_3 O 0.6636(4) 0.1951(3) 0.98517(13)
O2_3 O 0.5232(4) 0.1745(3) 0.98317(14)
C1_3 C 0.5861(6) 0.2030(4) 0.99308(18)
N6_4 N 0.8433(4) 0.1214(3) 0.94035(15)
C42_4 C 0.9343(6) 0.2487(4) 0.9823(2)
H31_4 H 0.9903 0.2452 0.9763
C43_4 C 0.8815(6) 0.2120(4) 0.96879(19)
H32_4 H 0.8249 0.2172 0.9734
C44_4 C 0.9038(5) 0.1635(4) 0.94709(18)
C45_4 C 0.9824(6) 0.1588(5) 0.9330(2)
C46_4 C 0.9990(7) 0.1088(6) 0.9148(3)
C47_4 C 0.9407(6) 0.0649(5) 0.9098(3)
H35_4 H 0.9529 0.0299 0.8980
C48_4 C 0.8637(6) 0.0733(5) 0.9225(2)
H36_4 H 0.8226 0.0438 0.9185
N7_4 N 0.9067(4) 0.6286(3) 0.94035(15)
C50_4 C 0.8157(6) 0.5013(4) 0.9823(2)
H37_4 H 0.7597 0.5048 0.9763
C51_4 C 0.8685(6) 0.5380(4) 0.96879(19)
H38_4 H 0.9251 0.5328 0.9734
C52_4 C 0.8462(5) 0.5865(4) 0.94709(18)
C53_4 C 0.7676(6) 0.5912(5) 0.9330(2)
H39_4 H 0.7272 0.5607 0.9361
C54_4 C 0.7510(7) 0.6412(6) 0.9148(3)
H40_4 H 0.6983 0.6451 0.9056
C55_4 C 0.8093(6) 0.6851(5) 0.9098(3)
H41_4 H 0.7971 0.7201 0.8980
C56_4 C 0.8863(6) 0.6767(5) 0.9225(2)
H42_4 H 0.9274 0.7062 0.9185
Cu7_3 Cu 0.71632(6) 0.13585(5) 0.95178(2)
O15_4 O 0.0864(4) 0.0549(3) 0.48517(13)
O16_4 O 0.2268(4) 0.0755(3) 0.48317(14)
C57_4 C 0.1639(6) 0.0470(4) 0.49308(18)
O1_4 O 0.0864(4) 0.1951(3) 0.76483(13)
O2_4 O 0.2268(4) 0.1745(3) 0.76683(14)
C1_4 C 0.1639(6) 0.2030(4) 0.75692(18)
C2_4 C 0.1843(6) 0.2513(4) 0.7323(2)
H1_4 H 0.2403 0.2548 0.7263
C3_4 C 0.1315(6) 0.2880(4) 0.71879(19)
H2_4 H 0.0749 0.2828 0.7234
C4_4 C 0.1538(5) 0.3365(4) 0.69709(18)
C5_4 C 0.2324(6) 0.3412(5) 0.6830(2)
H3_4 H 0.2728 0.3107 0.6861
C6_4 C 0.2490(7) 0.3912(6) 0.6648(3)
H4_4 H 0.3017 0.3951 0.6556
C7_4 C 0.1907(6) 0.4351(5) 0.6598(3)
H5_4 H 0.2029 0.4701 0.6480
C8_4 C 0.1137(6) 0.4267(5) 0.6725(2)
H6_4 H 0.0726 0.4562 0.6685
H39_5 H 0.0228 0.5607 0.8139
H40_5 H 0.0517 0.6451 0.8444
C58_4 C 0.1843(6) 0.9987(4) 0.5177(2)
H43_4 H 0.2403 0.9952 0.5237
C59_4 C 0.1315(6) 0.9620(4) 0.53121(19)
H44_4 H 0.0749 0.9672 0.5266
C60_4 C 0.1538(5) 0.9135(4) 0.55291(18)
C61_4 C 0.2324(6) 0.9088(5) 0.5670(2)
H45_4 H 0.2728 0.9393 0.5639
C62_4 C 0.2490(7) 0.8588(6) 0.5852(3)
H46_4 H 0.3017 0.8549 0.5944
C63_4 C 0.1907(6) 0.8149(5) 0.5902(3)
H47_4 H 0.2029 0.7799 0.6020
C64_4 C 0.1137(6) 0.8233(5) 0.5775(2)
H48_4 H 0.0726 0.7938 0.5815
N6_5 N 0.9067(4) 0.1214(3) 0.80965(15)
O12_4 O 0.7732(4) 0.3255(3) 0.73317(14)
C41_5 C 0.8361(6) 0.2970(4) 0.74308(18)
C42_5 C 0.8157(6) 0.2487(4) 0.7677(2)
H31_5 H 0.7597 0.2452 0.7737
C43_5 C 0.8685(6) 0.2120(4) 0.78121(19)
H32_5 H 0.9251 0.2172 0.7766
C44_5 C 0.8462(5) 0.1635(4) 0.80291(18)
C45_5 C 0.7676(6) 0.1588(5) 0.8170(2)
H33_5 H 0.7272 0.1893 0.8139
C46_5 C 0.7510(7) 0.1088(6) 0.8352(3)
H34_5 H 0.6983 0.1049 0.8444
C47_5 C 0.8093(6) 0.0649(5) 0.8402(3)
H35_5 H 0.7971 0.0299 0.8520
C48_5 C 0.8863(6) 0.0733(5) 0.8275(2)
H36_5 H 0.9274 0.0438 0.8315
N7_5 N 0.8433(4) 0.6286(3) 0.80965(15)
O13_4 O 0.8364(4) 0.4451(3) 0.73517(13)
C49_5 C 0.9139(6) 0.4530(4) 0.74308(18)
C50_5 C 0.9343(6) 0.5013(4) 0.7677(2)
H37_5 H 0.9903 0.5048 0.7737
C51_5 C 0.8815(6) 0.5380(4) 0.78121(19)
H38_5 H 0.8249 0.5328 0.7766
C52_5 C 0.9038(5) 0.5865(4) 0.80291(18)
C53_5 C 0.9824(6) 0.5912(5) 0.8170(2)
C54_5 C 0.9990(7) 0.6412(6) 0.8352(3)
C55_5 C 0.9407(6) 0.6851(5) 0.8402(3)
H41_5 H 0.9529 0.7201 0.8520
C56_5 C 0.8637(6) 0.6767(5) 0.8275(2)
H42_5 H 0.8226 0.7062 0.8315
Cu12_4 Cu 0.71632(6) 0.61415(5) 0.79822(2)
Cu2_4 Cu 0.1250 0.1250 0.6250
N1_4 N 0.0232(6) 0.1038(4) 0.6614(2)
H8_4 H 0.0061 0.0153 0.6231
C16_4 C 0.0204(9) 0.1446(5) 0.6854(3)
H12_4 H 0.0709 0.1650 0.6892
N3_4 N 0.0232(6) 0.1462(4) 0.5886(2)
H14_4 H 0.0061 0.2347 0.6269
C24_4 C 0.0204(9) 0.1054(5) 0.5646(3)
H18_4 H 0.0709 0.0850 0.5608
N4_4 N 0.2268(6) 0.1038(4) 0.5886(2)
C26_4 C 0.3648(7) 0.0072(4) 0.6347(2)
H19_4 H 0.4172 0.0223 0.6289
C27_4 C 0.2961(7) 0.0294(4) 0.6202(2)
H20_4 H 0.2439 0.0153 0.6269
C28_4 C 0.3661(12) 0.0878(6) 0.5770(3)
H21_4 H 0.4163 0.0673 0.5810
C29_4 C 0.3614(13) 0.1319(7) 0.5533(3)
H22_4 H 0.4088 0.1426 0.5418
C30_4 C 0.2982(7) 0.0755(4) 0.5938(2)
C31_4 C 0.2854(11) 0.1592(5) 0.5473(3)
H23_4 H 0.2777 0.1870 0.5310
C32_4 C 0.2296(9) 0.1446(5) 0.5646(3)
H24_4 H 0.1791 0.1650 0.5608
N5_4 N 0.2268(6) 0.1462(4) 0.6614(2)
O9_4 O 0.4269(4) 0.3144(3) 0.58209(13)
C33_4 C 0.3601(5) 0.2908(4) 0.58994(18)
C34_4 C 0.3648(7) 0.2428(4) 0.6153(2)
H25_4 H 0.4172 0.2277 0.6211
C35_4 C 0.2961(7) 0.2206(4) 0.6298(2)
H26_4 H 0.2439 0.2347 0.6231
C36_4 C 0.3661(12) 0.1622(6) 0.6730(3)
H27_4 H 0.4163 0.1827 0.6690
C37_4 C 0.3614(13) 0.1181(7) 0.6967(3)
H28_4 H 0.4088 0.1074 0.7082
C38_4 C 0.2982(7) 0.1745(4) 0.6562(2)
C39_4 C 0.2854(11) 0.0908(5) 0.7027(3)
H29_4 H 0.2777 0.0630 0.7190
C40_4 C 0.2296(9) 0.1054(5) 0.6854(3)
H30_4 H 0.1791 0.0850 0.6892
N10_4 N 0.5933(4) 0.3714(3) 0.55965(15)
O7_4 O 0.4269(4) 0.9356(3) 0.66791(13)
C25_4 C 0.3601(5) 0.9592(4) 0.66006(18)
H33_6 H 0.0228 0.6893 0.4361
H34_6 H 0.0517 0.6049 0.4056
N9_4 N 0.5933(4) 0.8786(3) 0.69035(15)
C10_4 C 0.8852(7) 0.0072(4) 0.6153(2)
H7_4 H 0.8328 0.0223 0.6211
C11_4 C 0.9539(7) 0.0294(4) 0.6298(2)
C12_4 C 0.8839(12) 0.0878(6) 0.6730(3)
H9_4 H 0.8337 0.0673 0.6690
C13_4 C 0.8886(13) 0.1319(7) 0.6967(3)
H10_4 H 0.8412 0.1426 0.7082
C14_4 C 0.9518(7) 0.0755(4) 0.6562(2)
C15_4 C 0.9646(11) 0.1592(5) 0.7027(3)
H11_4 H 0.9723 0.1870 0.7190
O5_4 O 0.8231(4) 0.3144(3) 0.66791(13)
C17_4 C 0.8899(5) 0.2908(4) 0.66006(18)
C18_4 C 0.8852(7) 0.2428(4) 0.6347(2)
H13_4 H 0.8328 0.2277 0.6289
C19_4 C 0.9539(7) 0.2206(4) 0.6202(2)
C20_4 C 0.8839(12) 0.1622(6) 0.5770(3)
H15_4 H 0.8337 0.1827 0.5810
C21_4 C 0.8886(13) 0.1181(7) 0.5533(3)
H16_4 H 0.8412 0.1074 0.5418
C22_4 C 0.9518(7) 0.1745(4) 0.5938(2)
C23_4 C 0.9646(11) 0.0908(5) 0.5473(3)
H17_4 H 0.9723 0.0630 0.5310
N7_6 N 0.9067(4) 0.1286(3) 0.44035(15)
C50_6 C 0.8157(6) 0.0013(4) 0.4823(2)
H37_6 H 0.7597 0.0048 0.4763
C51_6 C 0.8685(6) 0.0380(4) 0.46879(19)
H38_6 H 0.9251 0.0328 0.4734
C52_6 C 0.8462(5) 0.0865(4) 0.44709(18)
C53_6 C 0.7676(6) 0.0912(5) 0.4330(2)
H39_6 H 0.7272 0.0607 0.4361
C54_6 C 0.7510(7) 0.1412(6) 0.4148(3)
H40_6 H 0.6983 0.1451 0.4056
C55_6 C 0.8093(6) 0.1851(5) 0.4098(3)
H41_6 H 0.7971 0.2201 0.3980
C56_6 C 0.8863(6) 0.1767(5) 0.4225(2)
H42_6 H 0.9274 0.2062 0.4185
N8_4 N 0.6567(4) 0.3714(3) 0.69035(15)
O15_5 O 0.6636(4) 0.5549(3) 0.76483(13)
O16_5 O 0.5232(4) 0.5755(3) 0.76683(14)
C57_5 C 0.5861(6) 0.5470(4) 0.75692(18)
C58_5 C 0.5657(6) 0.4987(4) 0.7323(2)
H43_5 H 0.5097 0.4952 0.7263
C59_5 C 0.6185(6) 0.4620(4) 0.71879(19)
H44_5 H 0.6751 0.4672 0.7234
C60_5 C 0.5962(5) 0.4135(4) 0.69709(18)
C61_5 C 0.5176(6) 0.4088(5) 0.6830(2)
H45_5 H 0.4772 0.4393 0.6861
C62_5 C 0.5010(7) 0.3588(6) 0.6648(3)
H46_5 H 0.4483 0.3549 0.6556
C63_5 C 0.5593(6) 0.3149(5) 0.6598(3)
H47_5 H 0.5471 0.2799 0.6480
C64_5 C 0.6363(6) 0.3233(5) 0.6725(2)
H48_5 H 0.6774 0.2938 0.6685
N2_4 N 0.6567(4) 0.8786(3) 0.55965(15)
O1_5 O 0.6636(4) 0.6951(3) 0.48517(13)
O2_5 O 0.5232(4) 0.6745(3) 0.48317(14)
O3_4 O 0.8231(4) 0.9356(3) 0.58209(13)
C1_5 C 0.5861(6) 0.7030(4) 0.49308(18)
C2_5 C 0.5657(6) 0.7513(4) 0.5177(2)
H1_5 H 0.5097 0.7548 0.5237
C3_5 C 0.6185(6) 0.7880(4) 0.53121(19)
H2_5 H 0.6751 0.7828 0.5266
C4_5 C 0.5962(5) 0.8365(4) 0.55291(18)
C5_5 C 0.5176(6) 0.8412(5) 0.5670(2)
H3_5 H 0.4772 0.8107 0.5639
C6_5 C 0.5010(7) 0.8912(6) 0.5852(3)
H4_5 H 0.4483 0.8951 0.5944
C7_5 C 0.5593(6) 0.9351(5) 0.5902(3)
H5_5 H 0.5471 0.9701 0.6020
C8_5 C 0.6363(6) 0.9267(5) 0.5775(2)
H6_5 H 0.6774 0.9562 0.5815
C9_4 C 0.8899(5) 0.9592(4) 0.58994(18)
N6_6 N 0.8433(4) 0.6214(3) 0.44035(15)
O11_4 O 0.8364(4) 0.8049(3) 0.51483(13)
C41_6 C 0.9139(6) 0.7970(4) 0.50692(18)
C42_6 C 0.9343(6) 0.7487(4) 0.4823(2)
H31_6 H 0.9903 0.7452 0.4763
C43_6 C 0.8815(6) 0.7120(4) 0.46879(19)
H32_6 H 0.8249 0.7172 0.4734
C44_6 C 0.9038(5) 0.6635(4) 0.44709(18)
C45_6 C 0.9824(6) 0.6588(5) 0.4330(2)
C46_6 C 0.9990(7) 0.6088(6) 0.4148(3)
C47_6 C 0.9407(6) 0.5649(5) 0.4098(3)
H35_6 H 0.9529 0.5299 0.3980
C48_6 C 0.8637(6) 0.5733(5) 0.4225(2)
H36_6 H 0.8226 0.5438 0.4185
O14_4 O 0.7732(4) 0.9245(3) 0.51683(14)
C49_6 C 0.8361(6) 0.9530(4) 0.50692(18)
Cu7_4 Cu 0.71632(6) 0.63585(5) 0.45178(2)
O1_6 O 0.5864(4) 0.5549(3) 0.48517(13)
O2_6 O 0.7268(4) 0.5755(3) 0.48317(14)
C1_6 C 0.6639(6) 0.5470(4) 0.49308(18)
C2_6 C 0.6843(6) 0.4987(4) 0.5177(2)
H1_6 H 0.7403 0.4952 0.5237
C3_6 C 0.6315(6) 0.4620(4) 0.53121(19)
H2_6 H 0.5749 0.4672 0.5266
C4_6 C 0.6538(5) 0.4135(4) 0.55291(18)
C5_6 C 0.7324(6) 0.4088(5) 0.5670(2)
H3_6 H 0.7728 0.4393 0.5639
C6_6 C 0.7490(7) 0.3588(6) 0.5852(3)
H4_6 H 0.8017 0.3549 0.5944
C7_6 C 0.6907(6) 0.3149(5) 0.5902(3)
H5_6 H 0.7029 0.2799 0.6020
C8_6 C 0.6137(6) 0.3233(5) 0.5775(2)
H6_6 H 0.5726 0.2938 0.5815
O15_6 O 0.5864(4) 0.6951(3) 0.76483(13)
O16_6 O 0.7268(4) 0.6745(3) 0.76683(14)
C57_6 C 0.6639(6) 0.7030(4) 0.75692(18)
C58_6 C 0.6843(6) 0.7513(4) 0.7323(2)
H43_6 H 0.7403 0.7548 0.7263
C59_6 C 0.6315(6) 0.7880(4) 0.71879(19)
H44_6 H 0.5749 0.7828 0.7234
C60_6 C 0.6538(5) 0.8365(4) 0.69709(18)
C61_6 C 0.7324(6) 0.8412(5) 0.6830(2)
H45_6 H 0.7728 0.8107 0.6861
C62_6 C 0.7490(7) 0.8912(6) 0.6648(3)
H46_6 H 0.8017 0.8951 0.6556
C63_6 C 0.6907(6) 0.9351(5) 0.6598(3)
H47_6 H 0.7029 0.9701 0.6480
C64_6 C 0.6137(6) 0.9267(5) 0.6725(2)
H48_6 H 0.5726 0.9562 0.6685
O15_7 O 0.5864(4) 0.0549(3) 0.98517(13)
O16_7 O 0.7268(4) 0.0755(3) 0.98317(14)
C57_7 C 0.6639(6) 0.0470(4) 0.99308(18)
O1_7 O 0.5864(4) 0.1951(3) 0.26483(13)
O2_7 O 0.7268(4) 0.1745(3) 0.26683(14)
C1_7 C 0.6639(6) 0.2030(4) 0.25692(18)
C2_7 C 0.6843(6) 0.2513(4) 0.2323(2)
H1_7 H 0.7403 0.2548 0.2263
C3_7 C 0.6315(6) 0.2880(4) 0.21879(19)
H2_7 H 0.5749 0.2828 0.2234
C4_7 C 0.6538(5) 0.3365(4) 0.19709(18)
C5_7 C 0.7324(6) 0.3412(5) 0.1830(2)
H3_7 H 0.7728 0.3107 0.1861
C6_7 C 0.7490(7) 0.3912(6) 0.1648(3)
H4_7 H 0.8017 0.3951 0.1556
C7_7 C 0.6907(6) 0.4351(5) 0.1598(3)
H5_7 H 0.7029 0.4701 0.1480
C8_7 C 0.6137(6) 0.4267(5) 0.1725(2)
H6_7 H 0.5726 0.4562 0.1685
N6_7 N 0.4067(4) 0.1214(3) 0.30965(15)
C41_7 C 0.3361(6) 0.2970(4) 0.24308(18)
C42_7 C 0.3157(6) 0.2487(4) 0.2677(2)
H31_7 H 0.2597 0.2452 0.2737
C43_7 C 0.3685(6) 0.2120(4) 0.28121(19)
H32_7 H 0.4251 0.2172 0.2766
C44_7 C 0.3462(5) 0.1635(4) 0.30291(18)
C45_7 C 0.2676(6) 0.1588(5) 0.3170(2)
H33_7 H 0.2272 0.1893 0.3139
C46_7 C 0.2510(7) 0.1088(6) 0.3352(3)
H34_7 H 0.1983 0.1049 0.3444
C47_7 C 0.3093(6) 0.0649(5) 0.3402(3)
H35_7 H 0.2971 0.0299 0.3520
C48_7 C 0.3863(6) 0.0733(5) 0.3275(2)
H36_7 H 0.4274 0.0438 0.3315
N7_7 N 0.3433(4) 0.6286(3) 0.30965(15)
C49_7 C 0.4139(6) 0.4530(4) 0.24308(18)
C50_7 C 0.4343(6) 0.5013(4) 0.2677(2)
H37_7 H 0.4903 0.5048 0.2737
C51_7 C 0.3815(6) 0.5380(4) 0.28121(19)
H38_7 H 0.3249 0.5328 0.2766
C52_7 C 0.4038(5) 0.5865(4) 0.30291(18)
C53_7 C 0.4824(6) 0.5912(5) 0.3170(2)
H39_7 H 0.5228 0.5607 0.3139
C54_7 C 0.4990(7) 0.6412(6) 0.3352(3)
H40_7 H 0.5517 0.6451 0.3444
C55_7 C 0.4407(6) 0.6851(5) 0.3402(3)
H41_7 H 0.4529 0.7201 0.3520
C56_7 C 0.3637(6) 0.6767(5) 0.3275(2)
H42_7 H 0.3226 0.7062 0.3315
C58_7 C 0.6843(6) 0.9987(4) 0.0177(2)
H43_7 H 0.7403 0.9952 0.0237
C59_7 C 0.6315(6) 0.9620(4) 0.03121(19)
H44_7 H 0.5749 0.9672 0.0266
C60_7 C 0.6538(5) 0.9135(4) 0.05291(18)
C61_7 C 0.7324(6) 0.9088(5) 0.0670(2)
H45_7 H 0.7728 0.9393 0.0639
C62_7 C 0.7490(7) 0.8588(6) 0.0852(3)
H46_7 H 0.8017 0.8549 0.0944
C63_7 C 0.6907(6) 0.8149(5) 0.0902(3)
H47_7 H 0.7029 0.7799 0.1020
C64_7 C 0.6137(6) 0.8233(5) 0.0775(2)
H48_7 H 0.5726 0.7938 0.0815
C2_8 C 0.1843(6) 0.4987(4) 0.0177(2)
H1_8 H 0.2403 0.4952 0.0237
C3_8 C 0.1315(6) 0.4620(4) 0.03121(19)
H2_8 H 0.0749 0.4672 0.0266
C4_8 C 0.1538(5) 0.4135(4) 0.05291(18)
C5_8 C 0.2324(6) 0.4088(5) 0.0670(2)
H3_8 H 0.2728 0.4393 0.0639
C6_8 C 0.2490(7) 0.3588(6) 0.0852(3)
H4_8 H 0.3017 0.3549 0.0944
C7_8 C 0.1907(6) 0.3149(5) 0.0902(3)
H5_8 H 0.2029 0.2799 0.1020
C8_8 C 0.1137(6) 0.3233(5) 0.0775(2)
H6_8 H 0.0726 0.2938 0.0815
O1_8 O 0.0864(4) 0.5549(3) 0.98517(13)
O2_8 O 0.2268(4) 0.5755(3) 0.98317(14)
C1_8 C 0.1639(6) 0.5470(4) 0.99308(18)
O15_8 O 0.0864(4) 0.6951(3) 0.26483(13)
O16_8 O 0.2268(4) 0.6745(3) 0.26683(14)
C57_8 C 0.1639(6) 0.7030(4) 0.25692(18)
C58_8 C 0.1843(6) 0.7513(4) 0.2323(2)
H43_8 H 0.2403 0.7548 0.2263
C59_8 C 0.1315(6) 0.7880(4) 0.21879(19)
H44_8 H 0.0749 0.7828 0.2234
C60_8 C 0.1538(5) 0.8365(4) 0.19709(18)
C61_8 C 0.2324(6) 0.8412(5) 0.1830(2)
H45_8 H 0.2728 0.8107 0.1861
C62_8 C 0.2490(7) 0.8912(6) 0.1648(3)
H46_8 H 0.3017 0.8951 0.1556
C63_8 C 0.1907(6) 0.9351(5) 0.1598(3)
H47_8 H 0.2029 0.9701 0.1480
C64_8 C 0.1137(6) 0.9267(5) 0.1725(2)
H48_8 H 0.0726 0.9562 0.1685
H39_8 H 0.0228 0.0607 0.3139
H40_8 H 0.0517 0.1451 0.3444
N7_8 N 0.8433(4) 0.1286(3) 0.30965(15)
C50_8 C 0.9343(6) 0.0013(4) 0.2677(2)
H37_8 H 0.9903 0.0048 0.2737
C51_8 C 0.8815(6) 0.0380(4) 0.28121(19)
H38_8 H 0.8249 0.0328 0.2766
C52_8 C 0.9038(5) 0.0865(4) 0.30291(18)
C53_8 C 0.9824(6) 0.0912(5) 0.3170(2)
C54_8 C 0.9990(7) 0.1412(6) 0.3352(3)
C55_8 C 0.9407(6) 0.1851(5) 0.3402(3)
H41_8 H 0.9529 0.2201 0.3520
C56_8 C 0.8637(6) 0.1767(5) 0.3275(2)
H42_8 H 0.8226 0.2062 0.3315
N6_8 N 0.9067(4) 0.6214(3) 0.30965(15)
C41_8 C 0.8361(6) 0.7970(4) 0.24308(18)
C42_8 C 0.8157(6) 0.7487(4) 0.2677(2)
H31_8 H 0.7597 0.7452 0.2737
C43_8 C 0.8685(6) 0.7120(4) 0.28121(19)
H32_8 H 0.9251 0.7172 0.2766
C44_8 C 0.8462(5) 0.6635(4) 0.30291(18)
C45_8 C 0.7676(6) 0.6588(5) 0.3170(2)
H33_8 H 0.7272 0.6893 0.3139
C46_8 C 0.7510(7) 0.6088(6) 0.3352(3)
H34_8 H 0.6983 0.6049 0.3444
C47_8 C 0.8093(6) 0.5649(5) 0.3402(3)
H35_8 H 0.7971 0.5299 0.3520
C48_8 C 0.8863(6) 0.5733(5) 0.3275(2)
H36_8 H 0.9274 0.5438 0.3315
C49_8 C 0.9139(6) 0.9530(4) 0.24308(18)
Cu2_5 Cu 0.3750 0.3750 0.3750
N1_5 N 0.4768(6) 0.3962(4) 0.3386(2)
O3_5 O 0.6769(4) 0.5644(3) 0.41791(13)
O4_3 O 0.5376(3) 0.5515(3) 0.42092(14)
C9_5 C 0.6101(5) 0.5408(4) 0.41006(18)
C10_5 C 0.6148(7) 0.4928(4) 0.3847(2)
H7_5 H 0.6672 0.4777 0.3789
C11_5 C 0.5461(7) 0.4706(4) 0.3702(2)
H8_5 H 0.4939 0.4847 0.3769
C12_5 C 0.6161(12) 0.4122(6) 0.3270(3)
H9_5 H 0.6663 0.4327 0.3310
C13_5 C 0.6114(13) 0.3681(7) 0.3033(3)
H10_5 H 0.6588 0.3574 0.2918
C14_5 C 0.5482(7) 0.4245(4) 0.3438(2)
C15_5 C 0.5354(11) 0.3408(5) 0.2973(3)
H11_5 H 0.5277 0.3130 0.2810
C16_5 C 0.4796(9) 0.3554(5) 0.3146(3)
H12_5 H 0.4291 0.3350 0.3108
N3_5 N 0.4768(6) 0.3538(4) 0.4114(2)
O5_5 O 0.6769(4) 0.1856(3) 0.33209(13)
O6_3 O 0.5376(3) 0.1985(3) 0.32908(14)
C17_5 C 0.6101(5) 0.2092(4) 0.33994(18)
C18_5 C 0.6148(7) 0.2572(4) 0.3653(2)
H13_5 H 0.6672 0.2723 0.3711
C19_5 C 0.5461(7) 0.2794(4) 0.3798(2)
H14_5 H 0.4939 0.2653 0.3731
C20_5 C 0.6161(12) 0.3378(6) 0.4230(3)
H15_5 H 0.6663 0.3173 0.4190
C21_5 C 0.6114(13) 0.3819(7) 0.4467(3)
H16_5 H 0.6588 0.3926 0.4582
C22_5 C 0.5482(7) 0.3255(4) 0.4062(2)
C23_5 C 0.5354(11) 0.4092(5) 0.4527(3)
H17_5 H 0.5277 0.4370 0.4690
C24_5 C 0.4796(9) 0.3946(5) 0.4354(3)
H18_5 H 0.4291 0.4150 0.4392
N4_5 N 0.2732(6) 0.3962(4) 0.4114(2)
O7_5 O 0.0731(4) 0.5644(3) 0.33209(13)
O8_3 O 0.2124(3) 0.5515(3) 0.32908(14)
C25_5 C 0.1399(5) 0.5408(4) 0.33994(18)
C26_5 C 0.1352(7) 0.4928(4) 0.3653(2)
H19_5 H 0.0828 0.4777 0.3711
C27_5 C 0.2039(7) 0.4706(4) 0.3798(2)
H20_5 H 0.2561 0.4847 0.3731
C28_5 C 0.1339(12) 0.4122(6) 0.4230(3)
H21_5 H 0.0837 0.4327 0.4190
C29_5 C 0.1386(13) 0.3681(7) 0.4467(3)
H22_5 H 0.0912 0.3574 0.4582
C30_5 C 0.2018(7) 0.4245(4) 0.4062(2)
C31_5 C 0.2146(11) 0.3408(5) 0.4527(3)
H23_5 H 0.2223 0.3130 0.4690
C32_5 C 0.2704(9) 0.3554(5) 0.4354(3)
H24_5 H 0.3209 0.3350 0.4392
N5_5 N 0.2732(6) 0.3538(4) 0.3386(2)
O9_5 O 0.0731(4) 0.1856(3) 0.41791(13)
O10_3 O 0.2124(3) 0.1985(3) 0.42092(14)
C33_5 C 0.1399(5) 0.2092(4) 0.41006(18)
C34_5 C 0.1352(7) 0.2572(4) 0.3847(2)
H25_5 H 0.0828 0.2723 0.3789
C35_5 C 0.2039(7) 0.2794(4) 0.3702(2)
H26_5 H 0.2561 0.2653 0.3769
C36_5 C 0.1339(12) 0.3378(6) 0.3270(3)
H27_5 H 0.0837 0.3173 0.3310
C37_5 C 0.1386(13) 0.3819(7) 0.3033(3)
H28_5 H 0.0912 0.3926 0.2918
C38_5 C 0.2018(7) 0.3255(4) 0.3438(2)
C39_5 C 0.2146(11) 0.4092(5) 0.2973(3)
H29_5 H 0.2223 0.4370 0.2810
C40_5 C 0.2704(9) 0.3946(5) 0.3146(3)
H30_5 H 0.3209 0.4150 0.3108
O17_3 O 0.7124(3) 0.6985(3) 0.42092(14)
O20_3 O 0.7124(3) 0.0515(3) 0.32908(14)
O23_3 O 0.0376(3) 0.6985(3) 0.32908(14)
O26_3 O 0.0376(3) 0.0515(3) 0.42092(14)
O3_6 O 0.6769(4) 0.0644(3) 0.91791(13)
O4_4 O 0.5376(3) 0.0515(3) 0.92092(14)
C9_6 C 0.6101(5) 0.0408(4) 0.91006(18)
O7_6 O 0.0731(4) 0.0644(3) 0.83209(13)
O8_4 O 0.2124(3) 0.0515(3) 0.82908(14)
C25_6 C 0.1399(5) 0.0408(4) 0.83994(18)
O17_4 O 0.7124(3) 0.1985(3) 0.92092(14)
O23_4 O 0.0376(3) 0.1985(3) 0.82908(14)
Cu2_6 Cu 0.3750 0.8750 0.8750
N1_6 N 0.4768(6) 0.8962(4) 0.8386(2)
C10_6 C 0.6148(7) 0.9928(4) 0.8847(2)
H7_6 H 0.6672 0.9777 0.8789
C11_6 C 0.5461(7) 0.9706(4) 0.8702(2)
H8_6 H 0.4939 0.9847 0.8769
C12_6 C 0.6161(12) 0.9122(6) 0.8270(3)
H9_6 H 0.6663 0.9327 0.8310
C13_6 C 0.6114(13) 0.8681(7) 0.8033(3)
H10_6 H 0.6588 0.8574 0.7918
C14_6 C 0.5482(7) 0.9245(4) 0.8438(2)
C15_6 C 0.5354(11) 0.8408(5) 0.7973(3)
H11_6 H 0.5277 0.8130 0.7810
C16_6 C 0.4796(9) 0.8554(5) 0.8146(3)
H12_6 H 0.4291 0.8350 0.8108
N3_6 N 0.4768(6) 0.8538(4) 0.9114(2)
O5_6 O 0.6769(4) 0.6856(3) 0.83209(13)
O6_4 O 0.5376(3) 0.6985(3) 0.82908(14)
C17_6 C 0.6101(5) 0.7092(4) 0.83994(18)
C18_6 C 0.6148(7) 0.7572(4) 0.8653(2)
H13_6 H 0.6672 0.7723 0.8711
C19_6 C 0.5461(7) 0.7794(4) 0.8798(2)
H14_6 H 0.4939 0.7653 0.8731
C20_6 C 0.6161(12) 0.8378(6) 0.9230(3)
H15_6 H 0.6663 0.8173 0.9190
C21_6 C 0.6114(13) 0.8819(7) 0.9467(3)
H16_6 H 0.6588 0.8926 0.9582
C22_6 C 0.5482(7) 0.8255(4) 0.9062(2)
C23_6 C 0.5354(11) 0.9092(5) 0.9527(3)
H17_6 H 0.5277 0.9370 0.9690
C24_6 C 0.4796(9) 0.8946(5) 0.9354(3)
H18_6 H 0.4291 0.9150 0.9392
N4_6 N 0.2732(6) 0.8962(4) 0.9114(2)
C26_6 C 0.1352(7) 0.9928(4) 0.8653(2)
H19_6 H 0.0828 0.9777 0.8711
C27_6 C 0.2039(7) 0.9706(4) 0.8798(2)
H20_6 H 0.2561 0.9847 0.8731
C28_6 C 0.1339(12) 0.9122(6) 0.9230(3)
H21_6 H 0.0837 0.9327 0.9190
C29_6 C 0.1386(13) 0.8681(7) 0.9467(3)
H22_6 H 0.0912 0.8574 0.9582
C30_6 C 0.2018(7) 0.9245(4) 0.9062(2)
C31_6 C 0.2146(11) 0.8408(5) 0.9527(3)
H23_6 H 0.2223 0.8130 0.9690
C32_6 C 0.2704(9) 0.8554(5) 0.9354(3)
H24_6 H 0.3209 0.8350 0.9392
N5_6 N 0.2732(6) 0.8538(4) 0.8386(2)
O9_6 O 0.0731(4) 0.6856(3) 0.91791(13)
O10_4 O 0.2124(3) 0.6985(3) 0.92092(14)
C33_6 C 0.1399(5) 0.7092(4) 0.91006(18)
C34_6 C 0.1352(7) 0.7572(4) 0.8847(2)
H25_6 H 0.0828 0.7723 0.8789
C35_6 C 0.2039(7) 0.7794(4) 0.8702(2)
H26_6 H 0.2561 0.7653 0.8769
C36_6 C 0.1339(12) 0.8378(6) 0.8270(3)
H27_6 H 0.0837 0.8173 0.8310
C37_6 C 0.1386(13) 0.8819(7) 0.8033(3)
H28_6 H 0.0912 0.8926 0.7918
C38_6 C 0.2018(7) 0.8255(4) 0.8438(2)
C39_6 C 0.2146(11) 0.9092(5) 0.7973(3)
H29_6 H 0.2223 0.9370 0.7810
C40_6 C 0.2704(9) 0.8946(5) 0.8146(3)
H30_6 H 0.3209 0.9150 0.8108
O20_4 O 0.7124(3) 0.5515(3) 0.82908(14)
O26_4 O 0.0376(3) 0.5515(3) 0.92092(14)
O3_7 O 0.1769(4) 0.5644(3) 0.91791(13)
C9_7 C 0.1101(5) 0.5408(4) 0.91006(18)
C10_7 C 0.1148(7) 0.4928(4) 0.8847(2)
H7_7 H 0.1672 0.4777 0.8789
C11_7 C 0.0461(7) 0.4706(4) 0.8702(2)
C12_7 C 0.1161(12) 0.4122(6) 0.8270(3)
H9_7 H 0.1663 0.4327 0.8310
C13_7 C 0.1114(13) 0.3681(7) 0.8033(3)
H10_7 H 0.1588 0.3574 0.7918
C14_7 C 0.0482(7) 0.4245(4) 0.8438(2)
C15_7 C 0.0354(11) 0.3408(5) 0.7973(3)
H11_7 H 0.0277 0.3130 0.7810
O5_7 O 0.1769(4) 0.1856(3) 0.83209(13)
C17_7 C 0.1101(5) 0.2092(4) 0.83994(18)
C18_7 C 0.1148(7) 0.2572(4) 0.8653(2)
H13_7 H 0.1672 0.2723 0.8711
C19_7 C 0.0461(7) 0.2794(4) 0.8798(2)
C20_7 C 0.1161(12) 0.3378(6) 0.9230(3)
H15_7 H 0.1663 0.3173 0.9190
C21_7 C 0.1114(13) 0.3819(7) 0.9467(3)
H16_7 H 0.1588 0.3926 0.9582
C22_7 C 0.0482(7) 0.3255(4) 0.9062(2)
C23_7 C 0.0354(11) 0.4092(5) 0.9527(3)
H17_7 H 0.0277 0.4370 0.9690
Cu2_7 Cu 0.8750 0.3750 0.8750
N1_7 N 0.9768(6) 0.3962(4) 0.8386(2)
H8_7 H 0.9939 0.4847 0.8769
C16_7 C 0.9796(9) 0.3554(5) 0.8146(3)
H12_7 H 0.9291 0.3350 0.8108
N3_7 N 0.9768(6) 0.3538(4) 0.9114(2)
H14_7 H 0.9939 0.2653 0.8731
C24_7 C 0.9796(9) 0.3946(5) 0.9354(3)
H18_7 H 0.9291 0.4150 0.9392
N4_7 N 0.7732(6) 0.3962(4) 0.9114(2)
O7_7 O 0.5731(4) 0.5644(3) 0.83209(13)
C25_7 C 0.6399(5) 0.5408(4) 0.83994(18)
C26_7 C 0.6352(7) 0.4928(4) 0.8653(2)
H19_7 H 0.5828 0.4777 0.8711
C27_7 C 0.7039(7) 0.4706(4) 0.8798(2)
H20_7 H 0.7561 0.4847 0.8731
C28_7 C 0.6339(12) 0.4122(6) 0.9230(3)
H21_7 H 0.5837 0.4327 0.9190
C29_7 C 0.6386(13) 0.3681(7) 0.9467(3)
H22_7 H 0.5912 0.3574 0.9582
C30_7 C 0.7018(7) 0.4245(4) 0.9062(2)
C31_7 C 0.7146(11) 0.3408(5) 0.9527(3)
H23_7 H 0.7223 0.3130 0.9690
C32_7 C 0.7704(9) 0.3554(5) 0.9354(3)
H24_7 H 0.8209 0.3350 0.9392
N5_7 N 0.7732(6) 0.3538(4) 0.8386(2)
O9_7 O 0.5731(4) 0.1856(3) 0.91791(13)
C33_7 C 0.6399(5) 0.2092(4) 0.91006(18)
C34_7 C 0.6352(7) 0.2572(4) 0.8847(2)
H25_7 H 0.5828 0.2723 0.8789
C35_7 C 0.7039(7) 0.2794(4) 0.8702(2)
H26_7 H 0.7561 0.2653 0.8769
C36_7 C 0.6339(12) 0.3378(6) 0.8270(3)
H27_7 H 0.5837 0.3173 0.8310
C37_7 C 0.6386(13) 0.3819(7) 0.8033(3)
H28_7 H 0.5912 0.3926 0.7918
C38_7 C 0.7018(7) 0.3255(4) 0.8438(2)
C39_7 C 0.7146(11) 0.4092(5) 0.7973(3)
H29_7 H 0.7223 0.4370 0.7810
C40_7 C 0.7704(9) 0.3946(5) 0.8146(3)
H30_7 H 0.8209 0.4150 0.8108
O3_8 O 0.1769(4) 0.0644(3) 0.41791(13)
C9_8 C 0.1101(5) 0.0408(4) 0.41006(18)
C10_8 C 0.1148(7) 0.9928(4) 0.3847(2)
H7_8 H 0.1672 0.9777 0.3789
C11_8 C 0.0461(7) 0.9706(4) 0.3702(2)
C12_8 C 0.1161(12) 0.9122(6) 0.3270(3)
H9_8 H 0.1663 0.9327 0.3310
C13_8 C 0.1114(13) 0.8681(7) 0.3033(3)
H10_8 H 0.1588 0.8574 0.2918
C14_8 C 0.0482(7) 0.9245(4) 0.3438(2)
C15_8 C 0.0354(11) 0.8408(5) 0.2973(3)
H11_8 H 0.0277 0.8130 0.2810
O5_8 O 0.1769(4) 0.6856(3) 0.33209(13)
C17_8 C 0.1101(5) 0.7092(4) 0.33994(18)
C18_8 C 0.1148(7) 0.7572(4) 0.3653(2)
H13_8 H 0.1672 0.7723 0.3711
C19_8 C 0.0461(7) 0.7794(4) 0.3798(2)
C20_8 C 0.1161(12) 0.8378(6) 0.4230(3)
H15_8 H 0.1663 0.8173 0.4190
C21_8 C 0.1114(13) 0.8819(7) 0.4467(3)
H16_8 H 0.1588 0.8926 0.4582
C22_8 C 0.0482(7) 0.8255(4) 0.4062(2)
C23_8 C 0.0354(11) 0.9092(5) 0.4527(3)
H17_8 H 0.0277 0.9370 0.4690
O7_8 O 0.5731(4) 0.0644(3) 0.33209(13)
C25_8 C 0.6399(5) 0.0408(4) 0.33994(18)
Cu2_8 Cu 0.8750 0.8750 0.3750
N1_8 N 0.9768(6) 0.8962(4) 0.3386(2)
H8_8 H 0.9939 0.9847 0.3769
C16_8 C 0.9796(9) 0.8554(5) 0.3146(3)
H12_8 H 0.9291 0.8350 0.3108
N3_8 N 0.9768(6) 0.8538(4) 0.4114(2)
H14_8 H 0.9939 0.7653 0.3731
C24_8 C 0.9796(9) 0.8946(5) 0.4354(3)
H18_8 H 0.9291 0.9150 0.4392
N4_8 N 0.7732(6) 0.8962(4) 0.4114(2)
C26_8 C 0.6352(7) 0.9928(4) 0.3653(2)
H19_8 H 0.5828 0.9777 0.3711
C27_8 C 0.7039(7) 0.9706(4) 0.3798(2)
H20_8 H 0.7561 0.9847 0.3731
C28_8 C 0.6339(12) 0.9122(6) 0.4230(3)
H21_8 H 0.5837 0.9327 0.4190
C29_8 C 0.6386(13) 0.8681(7) 0.4467(3)
H22_8 H 0.5912 0.8574 0.4582
C30_8 C 0.7018(7) 0.9245(4) 0.4062(2)
C31_8 C 0.7146(11) 0.8408(5) 0.4527(3)
H23_8 H 0.7223 0.8130 0.4690
C32_8 C 0.7704(9) 0.8554(5) 0.4354(3)
H24_8 H 0.8209 0.8350 0.4392
N5_8 N 0.7732(6) 0.8538(4) 0.3386(2)
O9_8 O 0.5731(4) 0.6856(3) 0.41791(13)
C33_8 C 0.6399(5) 0.7092(4) 0.41006(18)
C34_8 C 0.6352(7) 0.7572(4) 0.3847(2)
H25_8 H 0.5828 0.7723 0.3789
C35_8 C 0.7039(7) 0.7794(4) 0.3702(2)
H26_8 H 0.7561 0.7653 0.3769
C36_8 C 0.6339(12) 0.8378(6) 0.3270(3)
H27_8 H 0.5837 0.8173 0.3310
C37_8 C 0.6386(13) 0.8819(7) 0.3033(3)
H28_8 H 0.5912 0.8926 0.2918
C38_8 C 0.7018(7) 0.8255(4) 0.3438(2)
C39_8 C 0.7146(11) 0.9092(5) 0.2973(3)
H29_8 H 0.7223 0.9370 0.2810
C40_8 C 0.7704(9) 0.8946(5) 0.3146(3)
H30_8 H 0.8209 0.9150 0.3108
loop_
_geom_bond_atom_site_label_1
_geom_bond_atom_site_label_2
_geom_bond_site_symmetry_1
_geom_bond_site_symmetry_2
O15 C57 1_555 1_555
O16 C57 1_555 1_555
Cu13 O15 1_555 1_555
Cu14 O16 1_555 1_555
Cu13 Cu14 1_555 1_555
Cu1 N2 1_555 1_555
Cu2 N1 1_555 1_555
N1 C14 1_555 1_555
N2 C4 1_555 1_555
O1 C1 1_555 1_555
O2 C1 1_555 1_555
O3 Cu1 1_555 1_555
O4 C9 1_555 1_555
C1 C2 1_555 1_555
C2 H1 1_555 1_555
C3 C2 1_555 1_555
H2 C3 1_555 1_555
C4 C3 1_555 1_555
C5 C4 1_555 1_555
C6 C5 1_555 1_555
C7 C6 1_555 1_555
H5 C7 1_555 1_555
C8 N2 1_555 1_555
H6 C8 1_555 1_555
C9 O3 1_555 1_555
C10 C9 1_555 1_555
H7 C10 1_555 1_555
C11 C10 1_555 1_555
H8 C11 1_555 1_555
C12 H9 1_555 1_555
C13 C12 1_555 1_555
H10 C13 1_555 1_555
C14 C11 1_555 1_555
C15 C13 1_555 1_555
H11 C15 1_555 1_555
C16 N1 1_555 1_555
H12 C16 1_555 1_555
N3 Cu2 1_555 1_555
O5 C17 1_555 1_555
O6 C17 1_555 1_555
C17 C18 1_555 1_555
C18 H13 1_555 1_555
C19 C18 1_555 1_555
H14 C19 1_555 1_555
C20 H15 1_555 1_555
C21 C20 1_555 1_555
H16 C21 1_555 1_555
C22 N3 1_555 1_555
C23 C21 1_555 1_555
H17 C23 1_555 1_555
C24 N3 1_555 1_555
H18 C24 1_555 1_555
N4 Cu2 1_555 1_555
O7 C25 1_555 1_555
O8 C25 1_555 1_555
C25 C26 1_555 1_555
C26 H19 1_555 1_555
C27 C26 1_555 1_555
H20 C27 1_555 1_555
C28 H21 1_555 1_555
C29 C28 1_555 1_555
H22 C29 1_555 1_555
C30 N4 1_555 1_555
C31 C29 1_555 1_555
H23 C31 1_555 1_555
C32 N4 1_555 1_555
H24 C32 1_555 1_555
N5 Cu2 1_555 1_555
O9 C33 1_555 1_555
O10 C33 1_555 1_555
C33 C34 1_555 1_555
C34 H25 1_555 1_555
C35 C34 1_555 1_555
H26 C35 1_555 1_555
C36 H27 1_555 1_555
C37 C36 1_555 1_555
H28 C37 1_555 1_555
C38 N5 1_555 1_555
C39 C37 1_555 1_555
H29 C39 1_555 1_555
C40 N5 1_555 1_555
H30 C40 1_555 1_555
Cu3 O5 1_555 1_555
Cu4 O7 1_555 1_555
Cu5 O9 1_555 1_555
N6 C44 1_555 1_555
O11 Cu1 1_555 1_555
O12 C41 1_555 1_555
C41 O11 1_555 1_555
C42 C41 1_555 1_555
H31 C42 1_555 1_555
C43 C42 1_555 1_555
H32 C43 1_555 1_555
C44 C43 1_555 1_555
C45 C44 1_555 1_555
H33 C45 1_555 1_555
C46 C45 1_555 1_555
H34 C46 1_555 1_555
C47 C46 1_555 1_555
H35 C47 1_555 1_555
C48 N6 1_555 1_555
H36 C48 1_555 1_555
N7 C52 1_555 1_555
O13 C49 1_555 1_555
O14 Cu1 1_555 1_555
C49 O14 1_555 1_555
C50 C49 1_555 1_555
H37 C50 1_555 1_555
C51 C50 1_555 1_555
H38 C51 1_555 1_555
C52 C51 1_555 1_555
C53 C52 1_555 1_555
H39 C53 1_555 1_555
C54 C53 1_555 1_555
H40 C54 1_555 1_555
C55 C54 1_555 1_555
H41 C55 1_555 1_555
C56 N7 1_555 1_555
H42 C56 1_555 1_555
N8 Cu3 1_555 1_555
C58 H43 1_555 1_555
C59 C58 1_555 1_555
H44 C59 1_555 1_555
C60 N8 1_555 1_555
C61 C60 1_555 1_555
C62 C61 1_555 1_555
C63 C62 1_555 1_555
H47 C63 1_555 1_555
C64 N8 1_555 1_555
H48 C64 1_555 1_555
Cu6 Cu1 1_555 1_555
O17 Cu1 1_555 1_555
Cu7 O1 1_555 1_555
Cu8 O2 1_555 1_555
Cu9 O6 1_555 1_555
Cu10 O8 1_555 1_555
Cu11 O10 1_555 1_555
O18 Cu3 1_555 1_555
O19 Cu3 1_555 1_555
O20 Cu3 1_555 1_555
O21 Cu4 1_555 1_555
O22 Cu4 1_555 1_555
O23 Cu4 1_555 1_555
O24 Cu5 1_555 1_555
O25 Cu5 1_555 1_555
O26 Cu5 1_555 1_555
Cu12 N7 1_555 1_555
O4 Cu6 1_555 1_555
C7 C8 1_555 1_555
C12 C14 1_555 1_555
C15 C16 1_555 1_555
C19 C22 1_555 1_555
C20 C22 1_555 1_555
C23 C24 1_555 1_555
C27 C30 1_555 1_555
C28 C30 1_555 1_555
C31 C32 1_555 1_555
C35 C38 1_555 1_555
C36 C38 1_555 1_555
C39 C40 1_555 1_555
Cu3 Cu9 1_555 1_555
Cu4 Cu10 1_555 1_555
Cu5 Cu11 1_555 1_555
N6 Cu7 1_555 1_555
O12 Cu6 1_555 1_555
C47 C48 1_555 1_555
O13 Cu6 1_555 1_555
C55 C56 1_555 1_555
C59 C60 1_555 1_555
C63 C64 1_555 1_555
Cu7 Cu8 1_555 1_555
Cu2_2 N1_2 1_555 1_555
N1_2 C14_2 1_555 1_555
H7_2 C10_2 1_555 1_555
C11_2 C10_2 1_555 1_555
H8_2 C11_2 1_555 1_555
C12_2 H9_2 1_555 1_555
C13_2 C12_2 1_555 1_555
H10_2 C13_2 1_555 1_555
C14_2 C11_2 1_555 1_555
C15_2 C13_2 1_555 1_555
H11_2 C15_2 1_555 1_555
C16_2 N1_2 1_555 1_555
H12_2 C16_2 1_555 1_555
N3_2 Cu2_2 1_555 1_555
O5_2 C17_2 1_555 1_555
O6_2 C17_2 1_555 1_555
C17_2 C18_2 1_555 1_555
C18_2 H13_2 1_555 1_555
C19_2 C18_2 1_555 1_555
H14_2 C19_2 1_555 1_555
C20_2 H15_2 1_555 1_555
C21_2 C20_2 1_555 1_555
H16_2 C21_2 1_555 1_555
C22_2 N3_2 1_555 1_555
C23_2 C21_2 1_555 1_555
H17_2 C23_2 1_555 1_555
C24_2 N3_2 1_555 1_555
H18_2 C24_2 1_555 1_555
N4_2 Cu2_2 1_555 1_555
C26_2 H19_2 1_555 1_555
C27_2 C26_2 1_555 1_555
H20_2 C27_2 1_555 1_555
C28_2 H21_2 1_555 1_555
C29_2 C28_2 1_555 1_555
H22_2 C29_2 1_555 1_555
C30_2 N4_2 1_555 1_555
C31_2 C29_2 1_555 1_555
H23_2 C31_2 1_555 1_555
C32_2 N4_2 1_555 1_555
H24_2 C32_2 1_555 1_555
N5_2 Cu2_2 1_555 1_555
O9_2 C33_2 1_555 1_555
O10_2 C33_2 1_555 1_555
C33_2 C34_2 1_555 1_555
C34_2 H25_2 1_555 1_555
C35_2 C34_2 1_555 1_555
H26_2 C35_2 1_555 1_555
C36_2 H27_2 1_555 1_555
C37_2 C36_2 1_555 1_555
H28_2 C37_2 1_555 1_555
C38_2 N5_2 1_555 1_555
C39_2 C37_2 1_555 1_555
H29_2 C39_2 1_555 1_555
C40_2 N5_2 1_555 1_555
H30_2 C40_2 1_555 1_555
Cu3_2 O5_2 1_555 1_555
Cu5_2 O9_2 1_555 1_555
N8_2 Cu3_2 1_555 1_555
O15_2 C57_2 1_555 1_555
O16_2 C57_2 1_555 1_555
C57_2 C58_2 1_555 1_555
C58_2 H43_2 1_555 1_555
C59_2 C58_2 1_555 1_555
H44_2 C59_2 1_555 1_555
C60_2 N8_2 1_555 1_555
C61_2 C60_2 1_555 1_555
C62_2 C61_2 1_555 1_555
C63_2 C62_2 1_555 1_555
H47_2 C63_2 1_555 1_555
C64_2 N8_2 1_555 1_555
H48_2 C64_2 1_555 1_555
Cu9_2 O6_2 1_555 1_555
Cu11_2 O10_2 1_555 1_555
O18_2 Cu3_2 1_555 1_555
O19_2 Cu3_2 1_555 1_555
O20_2 Cu3_2 1_555 1_555
O24_2 Cu5_2 1_555 1_555
O25_2 Cu5_2 1_555 1_555
O26_2 Cu5_2 1_555 1_555
Cu13_2 O15_2 1_555 1_555
Cu14_2 O16_2 1_555 1_555
C12_2 C14_2 1_555 1_555
C15_2 C16_2 1_555 1_555
C19_2 C22_2 1_555 1_555
C20_2 C22_2 1_555 1_555
C23_2 C24_2 1_555 1_555
C27_2 C30_2 1_555 1_555
C28_2 C30_2 1_555 1_555
C31_2 C32_2 1_555 1_555
C35_2 C38_2 1_555 1_555
C36_2 C38_2 1_555 1_555
C39_2 C40_2 1_555 1_555
Cu3_2 Cu9_2 1_555 1_555
Cu5_2 Cu11_2 1_555 1_555
C59_2 C60_2 1_555 1_555
C63_2 C64_2 1_555 1_555
Cu13_2 Cu14_2 1_555 1_555
N7_2 C52_2 1_555 1_555
H37_2 C50_2 1_555 1_555
C51_2 C50_2 1_555 1_555
H38_2 C51_2 1_555 1_555
C52_2 C51_2 1_555 1_555
C53_2 C52_2 1_555 1_555
H39_2 C53_2 1_555 1_555
C54_2 C53_2 1_555 1_555
H40_2 C54_2 1_555 1_555
C55_2 C54_2 1_555 1_555
H41_2 C55_2 1_555 1_555
C56_2 N7_2 1_555 1_555
H42_2 C56_2 1_555 1_555
Cu12_2 N7_2 1_555 1_555
C55_2 C56_2 1_555 1_555
Cu1_2 N2_2 1_555 1_555
N2_2 C4_2 1_555 1_555
O3_2 Cu1_2 1_555 1_555
O4_2 C9_2 1_555 1_555
C2_2 H1_2 1_555 1_555
C3_2 C2_2 1_555 1_555
H2_2 C3_2 1_555 1_555
C4_2 C3_2 1_555 1_555
C5_2 C4_2 1_555 1_555
C6_2 C5_2 1_555 1_555
C7_2 C6_2 1_555 1_555
H5_2 C7_2 1_555 1_555
C8_2 N2_2 1_555 1_555
H6_2 C8_2 1_555 1_555
C9_2 O3_2 1_555 1_555
O7_2 C25_2 1_555 1_555
O8_2 C25_2 1_555 1_555
Cu4_2 O7_2 1_555 1_555
O11_2 Cu1_2 1_555 1_555
O12_2 C41_2 1_555 1_555
C41_2 O11_2 1_555 1_555
O13_2 C49_2 1_555 1_555
O14_2 Cu1_2 1_555 1_555
C49_2 O14_2 1_555 1_555
Cu6_2 Cu1_2 1_555 1_555
O17_2 Cu1_2 1_555 1_555
Cu10_2 O8_2 1_555 1_555
O21_2 Cu4_2 1_555 1_555
O22_2 Cu4_2 1_555 1_555
O23_2 Cu4_2 1_555 1_555
O4_2 Cu6_2 1_555 1_555
C7_2 C8_2 1_555 1_555
Cu4_2 Cu10_2 1_555 1_555
O12_2 Cu6_2 1_555 1_555
O13_2 Cu6_2 1_555 1_555
O1_2 C1_2 1_555 1_555
O2_2 C1_2 1_555 1_555
N6_2 C44_2 1_555 1_555
H31_2 C42_2 1_555 1_555
C43_2 C42_2 1_555 1_555
H32_2 C43_2 1_555 1_555
C44_2 C43_2 1_555 1_555
C45_2 C44_2 1_555 1_555
H33_2 C45_2 1_555 1_555
C46_2 C45_2 1_555 1_555
H34_2 C46_2 1_555 1_555
C47_2 C46_2 1_555 1_555
H35_2 C47_2 1_555 1_555
C48_2 N6_2 1_555 1_555
H36_2 C48_2 1_555 1_555
Cu7_2 O1_2 1_555 1_555
Cu8_2 O2_2 1_555 1_555
N6_2 Cu7_2 1_555 1_555
C47_2 C48_2 1_555 1_555
Cu7_2 Cu8_2 1_555 1_555
N6_3 C44_3 1_555 1_555
H31_3 C42_3 1_555 1_555
C43_3 C42_3 1_555 1_555
H32_3 C43_3 1_555 1_555
C44_3 C43_3 1_555 1_555
C45_3 C44_3 1_555 1_555
H33_3 C45_3 1_555 1_555
C46_3 C45_3 1_555 1_555
H34_3 C46_3 1_555 1_555
C47_3 C46_3 1_555 1_555
H35_3 C47_3 1_555 1_555
C48_3 N6_3 1_555 1_555
H36_3 C48_3 1_555 1_555
N6_3 Cu13 1_555 1_555
C47_3 C48_3 1_555 1_555
O12_3 C41_3 1_555 1_555
C41_3 O18 1_555 1_555
N7_3 C52_3 1_555 1_555
O13_3 C49_3 1_555 1_555
C49_3 O19 1_555 1_555
C50_3 C49_3 1_555 1_555
H37_3 C50_3 1_555 1_555
C51_3 C50_3 1_555 1_555
H38_3 C51_3 1_555 1_555
C52_3 C51_3 1_555 1_555
C53_3 C52_3 1_555 1_555
H39_3 C53_3 1_555 1_555
C54_3 C53_3 1_555 1_555
H40_3 C54_3 1_555 1_555
C55_3 C54_3 1_555 1_555
H41_3 C55_3 1_555 1_555
C56_3 N7_3 1_555 1_555
H42_3 C56_3 1_555 1_555
Cu12_3 N7_3 1_555 1_555
O12_3 Cu9 1_555 1_555
O13_3 Cu9 1_555 1_555
C55_3 C56_3 1_555 1_555
Cu2_3 N1_3 1_555 1_555
C16_3 N1_3 1_555 1_555
H12_3 C16_3 1_555 1_555
N3_3 Cu2_3 1_555 1_555
C24_3 N3_3 1_555 1_555
H18_3 C24_3 1_555 1_555
N4_3 Cu2_3 1_555 1_555
O7_3 C25_3 1_555 1_555
O20_2 C25_3 1_555 1_555
C25_3 C26_3 1_555 1_555
C26_3 H19_3 1_555 1_555
C27_3 C26_3 1_555 1_555
H20_3 C27_3 1_555 1_555
C28_3 H21_3 1_555 1_555
C29_3 C28_3 1_555 1_555
H22_3 C29_3 1_555 1_555
C30_3 N4_3 1_555 1_555
C31_3 C29_3 1_555 1_555
H23_3 C31_3 1_555 1_555
C32_3 N4_3 1_555 1_555
H24_3 C32_3 1_555 1_555
N5_3 Cu2_3 1_555 1_555
O9_3 C33_3 1_555 1_555
O17_2 C33_3 1_555 1_555
C33_3 C34_3 1_555 1_555
C34_3 H25_3 1_555 1_555
C35_3 C34_3 1_555 1_555
H26_3 C35_3 1_555 1_555
C36_3 H27_3 1_555 1_555
C37_3 C36_3 1_555 1_555
H28_3 C37_3 1_555 1_555
C38_3 N5_3 1_555 1_555
C39_3 C37_3 1_555 1_555
H29_3 C39_3 1_555 1_555
C40_3 N5_3 1_555 1_555
H30_3 C40_3 1_555 1_555
Cu9_2 O7_3 1_555 1_555
Cu6_2 O9_3 1_555 1_555
N9_3 Cu9_2 1_555 1_555
O21_3 Cu9_2 1_555 1_555
O22_3 Cu9_2 1_555 1_555
N10_3 Cu6_2 1_555 1_555
C27_3 C30_3 1_555 1_555
C28_3 C30_3 1_555 1_555
C31_3 C32_3 1_555 1_555
C35_3 C38_3 1_555 1_555
C36_3 C38_3 1_555 1_555
C39_3 C40_3 1_555 1_555
O15_3 C57_3 1_555 1_555
O16_3 C57_3 1_555 1_555
Cu13_3 O15_3 1_555 1_555
Cu14_3 O16_3 1_555 1_555
Cu13_3 Cu14_3 1_555 1_555
Cu11_2 N2_3 1_555 1_555
N2_3 C4_3 1_555 1_555
O3_3 Cu11_2 1_555 1_555
O26_2 C9_3 1_555 1_555
C2_3 H1_3 1_555 1_555
C3_3 C2_3 1_555 1_555
H2_3 C3_3 1_555 1_555
C4_3 C3_3 1_555 1_555
C5_3 C4_3 1_555 1_555
H3_3 C5_3 1_555 1_555
C6_3 C5_3 1_555 1_555
H4_3 C6_3 1_555 1_555
C7_3 C6_3 1_555 1_555
H5_3 C7_3 1_555 1_555
C8_3 N2_3 1_555 1_555
H6_3 C8_3 1_555 1_555
C9_3 O3_3 1_555 1_555
C10_3 C9_3 1_555 1_555
H7_3 C10_3 1_555 1_555
C11_3 C10_3 1_555 1_555
C12_3 H9_3 1_555 1_555
C13_3 C12_3 1_555 1_555
H10_3 C13_3 1_555 1_555
C14_3 C11_3 1_555 1_555
C15_3 C13_3 1_555 1_555
H11_3 C15_3 1_555 1_555
O5_3 C17_3 1_555 1_555
O23_2 C17_3 1_555 1_555
C17_3 C18_3 1_555 1_555
C18_3 H13_3 1_555 1_555
C19_3 C18_3 1_555 1_555
C20_3 H15_3 1_555 1_555
C21_3 C20_3 1_555 1_555
H16_3 C21_3 1_555 1_555
C23_3 C21_3 1_555 1_555
H17_3 C23_3 1_555 1_555
Cu10_2 O5_3 1_555 1_555
O11_3 Cu11_2 1_555 1_555
O25_2 C41_4 1_555 1_555
C41_4 O11_3 1_555 1_555
O24_2 C49_4 1_555 1_555
O14_3 Cu11_2 1_555 1_555
C49_4 O14_3 1_555 1_555
N8_3 Cu10_2 1_555 1_555
C58_3 H43_3 1_555 1_555
C59_3 C58_3 1_555 1_555
H44_3 C59_3 1_555 1_555
C60_3 N8_3 1_555 1_555
C61_3 C60_3 1_555 1_555
H45_3 C61_3 1_555 1_555
C62_3 C61_3 1_555 1_555
H46_3 C62_3 1_555 1_555
C63_3 C62_3 1_555 1_555
H47_3 C63_3 1_555 1_555
C64_3 N8_3 1_555 1_555
H48_3 C64_3 1_555 1_555
O18_3 Cu10_2 1_555 1_555
O19_3 Cu10_2 1_555 1_555
C7_3 C8_3 1_555 1_555
C12_3 C14_3 1_555 1_555
C19_3 C22_3 1_555 1_555
C20_3 C22_3 1_555 1_555
C59_3 C60_3 1_555 1_555
C63_3 C64_3 1_555 1_555
O1_3 C1_3 1_555 1_555
O2_3 C1_3 1_555 1_555
N6_4 C44_4 1_555 1_555
H31_4 C42_4 1_555 1_555
C43_4 C42_4 1_555 1_555
H32_4 C43_4 1_555 1_555
C44_4 C43_4 1_555 1_555
C45_4 C44_4 1_555 1_555
C46_4 C45_4 1_555 1_555
C47_4 C46_4 1_555 1_555
H35_4 C47_4 1_555 1_555
C48_4 N6_4 1_555 1_555
H36_4 C48_4 1_555 1_555
N7_4 C52_4 1_555 1_555
H37_4 C50_4 1_555 1_555
C51_4 C50_4 1_555 1_555
H38_4 C51_4 1_555 1_555
C52_4 C51_4 1_555 1_555
C53_4 C52_4 1_555 1_555
H39_4 C53_4 1_555 1_555
C54_4 C53_4 1_555 1_555
H40_4 C54_4 1_555 1_555
C55_4 C54_4 1_555 1_555
H41_4 C55_4 1_555 1_555
C56_4 N7_4 1_555 1_555
H42_4 C56_4 1_555 1_555
Cu7_3 O1_3 1_555 1_555
Cu12_2 O2_3 1_555 1_555
N6_4 Cu7_3 1_555 1_555
C47_4 C48_4 1_555 1_555
C55_4 C56_4 1_555 1_555
Cu7_3 Cu12_2 1_555 1_555
O15_4 C57_4 1_555 1_555
O16_4 C57_4 1_555 1_555
Cu8 O15_4 1_555 1_555
Cu7 O16_4 1_555 1_555
N9 C4_4 1_555 1_555
O1_4 C1_4 1_555 1_555
O2_4 C1_4 1_555 1_555
C1_4 C2_4 1_555 1_555
C2_4 H1_4 1_555 1_555
C3_4 C2_4 1_555 1_555
H2_4 C3_4 1_555 1_555
C4_4 C3_4 1_555 1_555
C5_4 C4_4 1_555 1_555
H3_4 C5_4 1_555 1_555
C6_4 C5_4 1_555 1_555
H4_4 C6_4 1_555 1_555
C7_4 C6_4 1_555 1_555
H5_4 C7_4 1_555 1_555
C8_4 N9 1_555 1_555
H6_4 C8_4 1_555 1_555
C58_4 H43_4 1_555 1_555
C59_4 C58_4 1_555 1_555
H44_4 C59_4 1_555 1_555
C60_4 N10 1_555 1_555
C61_4 C60_4 1_555 1_555
H45_4 C61_4 1_555 1_555
C62_4 C61_4 1_555 1_555
H46_4 C62_4 1_555 1_555
C63_4 C62_4 1_555 1_555
H47_4 C63_4 1_555 1_555
C64_4 N10 1_555 1_555
H48_4 C64_4 1_555 1_555
Cu14 O1_4 1_555 1_555
Cu13 O2_4 1_555 1_555
C7_4 C8_4 1_555 1_555
C59_4 C60_4 1_555 1_555
C63_4 C64_4 1_555 1_555
N6_5 C44_5 1_555 1_555
O12_4 C41_5 1_555 1_555
C41_5 O21 1_555 1_555
C42_5 C41_5 1_555 1_555
H31_5 C42_5 1_555 1_555
C43_5 C42_5 1_555 1_555
H32_5 C43_5 1_555 1_555
C44_5 C43_5 1_555 1_555
C45_5 C44_5 1_555 1_555
H33_5 C45_5 1_555 1_555
C46_5 C45_5 1_555 1_555
H34_5 C46_5 1_555 1_555
C47_5 C46_5 1_555 1_555
H35_5 C47_5 1_555 1_555
C48_5 N6_5 1_555 1_555
H36_5 C48_5 1_555 1_555
N7_5 C52_5 1_555 1_555
O13_4 C49_5 1_555 1_555
C49_5 O22 1_555 1_555
C50_5 C49_5 1_555 1_555
H37_5 C50_5 1_555 1_555
C51_5 C50_5 1_555 1_555
H38_5 C51_5 1_555 1_555
C52_5 C51_5 1_555 1_555
C53_5 C52_5 1_555 1_555
C54_5 C53_5 1_555 1_555
C55_5 C54_5 1_555 1_555
H41_5 C55_5 1_555 1_555
C56_5 N7_5 1_555 1_555
H42_5 C56_5 1_555 1_555
Cu12_4 N7_5 1_555 1_555
O12_4 Cu10 1_555 1_555
C47_5 C48_5 1_555 1_555
O13_4 Cu10 1_555 1_555
C55_5 C56_5 1_555 1_555
Cu2_4 N1_4 1_555 1_555
C16_4 N1_4 1_555 1_555
H12_4 C16_4 1_555 1_555
N3_4 Cu2_4 1_555 1_555
C24_4 N3_4 1_555 1_555
H18_4 C24_4 1_555 1_555
N4_4 Cu2_4 1_555 1_555
C26_4 H19_4 1_555 1_555
C27_4 C26_4 1_555 1_555
H20_4 C27_4 1_555 1_555
C28_4 H21_4 1_555 1_555
C29_4 C28_4 1_555 1_555
H22_4 C29_4 1_555 1_555
C30_4 N4_4 1_555 1_555
C31_4 C29_4 1_555 1_555
H23_4 C31_4 1_555 1_555
C32_4 N4_4 1_555 1_555
H24_4 C32_4 1_555 1_555
N5_4 Cu2_4 1_555 1_555
O9_4 C33_4 1_555 1_555
O17 C33_4 1_555 1_555
C33_4 C34_4 1_555 1_555
C34_4 H25_4 1_555 1_555
C35_4 C34_4 1_555 1_555
H26_4 C35_4 1_555 1_555
C36_4 H27_4 1_555 1_555
C37_4 C36_4 1_555 1_555
H28_4 C37_4 1_555 1_555
C38_4 N5_4 1_555 1_555
C39_4 C37_4 1_555 1_555
H29_4 C39_4 1_555 1_555
C40_4 N5_4 1_555 1_555
H30_4 C40_4 1_555 1_555
Cu6 O9_4 1_555 1_555
N10_4 Cu6 1_555 1_555
C27_4 C30_4 1_555 1_555
C28_4 C30_4 1_555 1_555
C31_4 C32_4 1_555 1_555
C35_4 C38_4 1_555 1_555
C36_4 C38_4 1_555 1_555
C39_4 C40_4 1_555 1_555
O7_4 C25_4 1_555 1_555
O20 C25_4 1_555 1_555
Cu9 O7_4 1_555 1_555
N9_4 Cu9 1_555 1_555
H7_4 C10_4 1_555 1_555
C11_4 C10_4 1_555 1_555
C12_4 H9_4 1_555 1_555
C13_4 C12_4 1_555 1_555
H10_4 C13_4 1_555 1_555
C14_4 C11_4 1_555 1_555
C15_4 C13_4 1_555 1_555
H11_4 C15_4 1_555 1_555
O5_4 C17_4 1_555 1_555
O23 C17_4 1_555 1_555
C17_4 C18_4 1_555 1_555
C18_4 H13_4 1_555 1_555
C19_4 C18_4 1_555 1_555
C20_4 H15_4 1_555 1_555
C21_4 C20_4 1_555 1_555
H16_4 C21_4 1_555 1_555
C23_4 C21_4 1_555 1_555
H17_4 C23_4 1_555 1_555
Cu10 O5_4 1_555 1_555
N7_6 C52_6 1_555 1_555
H37_6 C50_6 1_555 1_555
C51_6 C50_6 1_555 1_555
H38_6 C51_6 1_555 1_555
C52_6 C51_6 1_555 1_555
C53_6 C52_6 1_555 1_555
H39_6 C53_6 1_555 1_555
C54_6 C53_6 1_555 1_555
H40_6 C54_6 1_555 1_555
C55_6 C54_6 1_555 1_555
H41_6 C55_6 1_555 1_555
C56_6 N7_6 1_555 1_555
H42_6 C56_6 1_555 1_555
N8_4 Cu10 1_555 1_555
O15_5 C57_5 1_555 1_555
O16_5 C57_5 1_555 1_555
C57_5 C58_5 1_555 1_555
C58_5 H43_5 1_555 1_555
C59_5 C58_5 1_555 1_555
H44_5 C59_5 1_555 1_555
C60_5 N8_4 1_555 1_555
C61_5 C60_5 1_555 1_555
H45_5 C61_5 1_555 1_555
C62_5 C61_5 1_555 1_555
H46_5 C62_5 1_555 1_555
C63_5 C62_5 1_555 1_555
H47_5 C63_5 1_555 1_555
C64_5 N8_4 1_555 1_555
H48_5 C64_5 1_555 1_555
Cu12_4 O15_5 1_555 1_555
Cu12_3 O16_5 1_555 1_555
C12_4 C14_4 1_555 1_555
C19_4 C22_4 1_555 1_555
C20_4 C22_4 1_555 1_555
C55_6 C56_6 1_555 1_555
C59_5 C60_5 1_555 1_555
C63_5 C64_5 1_555 1_555
Cu12_4 Cu12_3 1_555 1_555
Cu11 N2_4 1_555 1_555
N2_4 C4_5 1_555 1_555
O1_5 C1_5 1_555 1_555
O2_5 C1_5 1_555 1_555
O3_4 Cu11 1_555 1_555
O26 C9_4 1_555 1_555
C1_5 C2_5 1_555 1_555
C2_5 H1_5 1_555 1_555
C3_5 C2_5 1_555 1_555
H2_5 C3_5 1_555 1_555
C4_5 C3_5 1_555 1_555
C5_5 C4_5 1_555 1_555
H3_5 C5_5 1_555 1_555
C6_5 C5_5 1_555 1_555
H4_5 C6_5 1_555 1_555
C7_5 C6_5 1_555 1_555
H5_5 C7_5 1_555 1_555
C8_5 N2_4 1_555 1_555
H6_5 C8_5 1_555 1_555
C9_4 O3_4 1_555 1_555
N6_6 C44_6 1_555 1_555
O11_4 Cu11 1_555 1_555
O25 C41_6 1_555 1_555
C41_6 O11_4 1_555 1_555
C42_6 C41_6 1_555 1_555
H31_6 C42_6 1_555 1_555
C43_6 C42_6 1_555 1_555
H32_6 C43_6 1_555 1_555
C44_6 C43_6 1_555 1_555
C45_6 C44_6 1_555 1_555
C46_6 C45_6 1_555 1_555
C47_6 C46_6 1_555 1_555
H35_6 C47_6 1_555 1_555
C48_6 N6_6 1_555 1_555
H36_6 C48_6 1_555 1_555
O24 C49_6 1_555 1_555
O14_4 Cu11 1_555 1_555
C49_6 O14_4 1_555 1_555
Cu7_4 O1_5 1_555 1_555
Cu12 O2_5 1_555 1_555
C7_5 C8_5 1_555 1_555
N6_6 Cu7_4 1_555 1_555
C47_6 C48_6 1_555 1_555
Cu7_4 Cu12 1_555 1_555
N10_4 C4_6 1_555 1_555
O1_6 C1_6 1_555 1_555
O2_6 C1_6 1_555 1_555
C1_6 C2_6 1_555 1_555
C2_6 H1_6 1_555 1_555
C3_6 C2_6 1_555 1_555
H2_6 C3_6 1_555 1_555
C4_6 C3_6 1_555 1_555
C5_6 C4_6 1_555 1_555
H3_6 C5_6 1_555 1_555
C6_6 C5_6 1_555 1_555
H4_6 C6_6 1_555 1_555
C7_6 C6_6 1_555 1_555
H5_6 C7_6 1_555 1_555
C8_6 N10_4 1_555 1_555
H6_6 C8_6 1_555 1_555
Cu12 O1_6 1_555 1_555
Cu7_4 O2_6 1_555 1_555
C7_6 C8_6 1_555 1_555
O15_6 C57_6 1_555 1_555
O16_6 C57_6 1_555 1_555
C57_6 C58_6 1_555 1_555
C58_6 H43_6 1_555 1_555
C59_6 C58_6 1_555 1_555
H44_6 C59_6 1_555 1_555
C60_6 N9_4 1_555 1_555
C61_6 C60_6 1_555 1_555
H45_6 C61_6 1_555 1_555
C62_6 C61_6 1_555 1_555
H46_6 C62_6 1_555 1_555
C63_6 C62_6 1_555 1_555
H47_6 C63_6 1_555 1_555
C64_6 N9_4 1_555 1_555
H48_6 C64_6 1_555 1_555
Cu12_3 O15_6 1_555 1_555
Cu12_4 O16_6 1_555 1_555
C59_6 C60_6 1_555 1_555
C63_6 C64_6 1_555 1_555
O15_7 C57_7 1_555 1_555
O16_7 C57_7 1_555 1_555
Cu12_2 O15_7 1_555 1_555
Cu7_3 O16_7 1_555 1_555
N9_3 C4_7 1_555 1_555
O1_7 C1_7 1_555 1_555
O2_7 C1_7 1_555 1_555
C1_7 C2_7 1_555 1_555
C2_7 H1_7 1_555 1_555
C3_7 C2_7 1_555 1_555
H2_7 C3_7 1_555 1_555
C4_7 C3_7 1_555 1_555
C5_7 C4_7 1_555 1_555
H3_7 C5_7 1_555 1_555
C6_7 C5_7 1_555 1_555
H4_7 C6_7 1_555 1_555
C7_7 C6_7 1_555 1_555
H5_7 C7_7 1_555 1_555
C8_7 N9_3 1_555 1_555
H6_7 C8_7 1_555 1_555
N6_7 C44_7 1_555 1_555
O19_2 C41_7 1_555 1_555
C41_7 O21_3 1_555 1_555
C42_7 C41_7 1_555 1_555
H31_7 C42_7 1_555 1_555
C43_7 C42_7 1_555 1_555
H32_7 C43_7 1_555 1_555
C44_7 C43_7 1_555 1_555
C45_7 C44_7 1_555 1_555
H33_7 C45_7 1_555 1_555
C46_7 C45_7 1_555 1_555
H34_7 C46_7 1_555 1_555
C47_7 C46_7 1_555 1_555
H35_7 C47_7 1_555 1_555
C48_7 N6_7 1_555 1_555
H36_7 C48_7 1_555 1_555
N7_7 C52_7 1_555 1_555
O18_2 C49_7 1_555 1_555
C49_7 O22_3 1_555 1_555
C50_7 C49_7 1_555 1_555
H37_7 C50_7 1_555 1_555
C51_7 C50_7 1_555 1_555
H38_7 C51_7 1_555 1_555
C52_7 C51_7 1_555 1_555
C53_7 C52_7 1_555 1_555
H39_7 C53_7 1_555 1_555
C54_7 C53_7 1_555 1_555
H40_7 C54_7 1_555 1_555
C55_7 C54_7 1_555 1_555
H41_7 C55_7 1_555 1_555
C56_7 N7_7 1_555 1_555
H42_7 C56_7 1_555 1_555
C58_7 H43_7 1_555 1_555
C59_7 C58_7 1_555 1_555
H44_7 C59_7 1_555 1_555
C60_7 N10_3 1_555 1_555
C61_7 C60_7 1_555 1_555
H45_7 C61_7 1_555 1_555
C62_7 C61_7 1_555 1_555
H46_7 C62_7 1_555 1_555
C63_7 C62_7 1_555 1_555
H47_7 C63_7 1_555 1_555
C64_7 N10_3 1_555 1_555
H48_7 C64_7 1_555 1_555
Cu14_3 O1_7 1_555 1_555
Cu13_3 O2_7 1_555 1_555
Cu13_2 N7_7 1_555 1_555
C7_7 C8_7 1_555 1_555
N6_7 Cu14_3 1_555 1_555
C47_7 C48_7 1_555 1_555
C55_7 C56_7 1_555 1_555
C59_7 C60_7 1_555 1_555
C63_7 C64_7 1_555 1_555
N10_2 C4_8 1_555 1_555
C2_8 H1_8 1_555 1_555
C3_8 C2_8 1_555 1_555
H2_8 C3_8 1_555 1_555
C4_8 C3_8 1_555 1_555
C5_8 C4_8 1_555 1_555
H3_8 C5_8 1_555 1_555
C6_8 C5_8 1_555 1_555
H4_8 C6_8 1_555 1_555
C7_8 C6_8 1_555 1_555
H5_8 C7_8 1_555 1_555
C8_8 N10_2 1_555 1_555
H6_8 C8_8 1_555 1_555
C7_8 C8_8 1_555 1_555
O1_8 C1_8 1_555 1_555
O2_8 C1_8 1_555 1_555
Cu8_2 O1_8 1_555 1_555
Cu7_2 O2_8 1_555 1_555
O15_8 C57_8 1_555 1_555
O16_8 C57_8 1_555 1_555
C57_8 C58_8 1_555 1_555
C58_8 H43_8 1_555 1_555
C59_8 C58_8 1_555 1_555
H44_8 C59_8 1_555 1_555
C60_8 N9_2 1_555 1_555
C61_8 C60_8 1_555 1_555
H45_8 C61_8 1_555 1_555
C62_8 C61_8 1_555 1_555
H46_8 C62_8 1_555 1_555
C63_8 C62_8 1_555 1_555
H47_8 C63_8 1_555 1_555
C64_8 N9_2 1_555 1_555
H48_8 C64_8 1_555 1_555
Cu14_2 O15_8 1_555 1_555
Cu13_2 O16_8 1_555 1_555
C59_8 C60_8 1_555 1_555
C63_8 C64_8 1_555 1_555
N7_8 C52_8 1_555 1_555
H37_8 C50_8 1_555 1_555
C51_8 C50_8 1_555 1_555
H38_8 C51_8 1_555 1_555
C52_8 C51_8 1_555 1_555
C53_8 C52_8 1_555 1_555
C54_8 C53_8 1_555 1_555
C55_8 C54_8 1_555 1_555
H41_8 C55_8 1_555 1_555
C56_8 N7_8 1_555 1_555
H42_8 C56_8 1_555 1_555
Cu13_3 N7_8 1_555 1_555
C55_8 C56_8 1_555 1_555
N6_8 C44_8 1_555 1_555
O19_3 C41_8 1_555 1_555
C41_8 O21_2 1_555 1_555
C42_8 C41_8 1_555 1_555
H31_8 C42_8 1_555 1_555
C43_8 C42_8 1_555 1_555
H32_8 C43_8 1_555 1_555
C44_8 C43_8 1_555 1_555
C45_8 C44_8 1_555 1_555
H33_8 C45_8 1_555 1_555
C46_8 C45_8 1_555 1_555
H34_8 C46_8 1_555 1_555
C47_8 C46_8 1_555 1_555
H35_8 C47_8 1_555 1_555
C48_8 N6_8 1_555 1_555
H36_8 C48_8 1_555 1_555
O18_3 C49_8 1_555 1_555
C49_8 O22_2 1_555 1_555
C47_8 C48_8 1_555 1_555
Cu2_5 N1_5 1_555 1_555
N1_5 C14_5 1_555 1_555
O3_5 Cu7_4 1_555 1_555
O4_3 C9_5 1_555 1_555
C9_5 O3_5 1_555 1_555
C10_5 C9_5 1_555 1_555
H7_5 C10_5 1_555 1_555
C11_5 C10_5 1_555 1_555
H8_5 C11_5 1_555 1_555
C12_5 H9_5 1_555 1_555
C13_5 C12_5 1_555 1_555
H10_5 C13_5 1_555 1_555
C14_5 C11_5 1_555 1_555
C15_5 C13_5 1_555 1_555
H11_5 C15_5 1_555 1_555
C16_5 N1_5 1_555 1_555
H12_5 C16_5 1_555 1_555
N3_5 Cu2_5 1_555 1_555
O5_5 C17_5 1_555 1_555
O6_3 C17_5 1_555 1_555
C17_5 C18_5 1_555 1_555
C18_5 H13_5 1_555 1_555
C19_5 C18_5 1_555 1_555
H14_5 C19_5 1_555 1_555
C20_5 H15_5 1_555 1_555
C21_5 C20_5 1_555 1_555
H16_5 C21_5 1_555 1_555
C22_5 N3_5 1_555 1_555
C23_5 C21_5 1_555 1_555
H17_5 C23_5 1_555 1_555
C24_5 N3_5 1_555 1_555
H18_5 C24_5 1_555 1_555
N4_5 Cu2_5 1_555 1_555
O7_5 C25_5 1_555 1_555
O8_3 C25_5 1_555 1_555
C25_5 C26_5 1_555 1_555
C26_5 H19_5 1_555 1_555
C27_5 C26_5 1_555 1_555
H20_5 C27_5 1_555 1_555
C28_5 H21_5 1_555 1_555
C29_5 C28_5 1_555 1_555
H22_5 C29_5 1_555 1_555
C30_5 N4_5 1_555 1_555
C31_5 C29_5 1_555 1_555
H23_5 C31_5 1_555 1_555
C32_5 N4_5 1_555 1_555
H24_5 C32_5 1_555 1_555
N5_5 Cu2_5 1_555 1_555
O9_5 C33_5 1_555 1_555
O10_3 C33_5 1_555 1_555
C33_5 C34_5 1_555 1_555
C34_5 H25_5 1_555 1_555
C35_5 C34_5 1_555 1_555
H26_5 C35_5 1_555 1_555
C36_5 H27_5 1_555 1_555
C37_5 C36_5 1_555 1_555
H28_5 C37_5 1_555 1_555
C38_5 N5_5 1_555 1_555
C39_5 C37_5 1_555 1_555
H29_5 C39_5 1_555 1_555
C40_5 N5_5 1_555 1_555
H30_5 C40_5 1_555 1_555
Cu13_3 O5_5 1_555 1_555
Cu14_2 O7_5 1_555 1_555
Cu8 O9_5 1_555 1_555
O17_3 Cu7_4 1_555 1_555
Cu14_3 O6_3 1_555 1_555
Cu13_2 O8_3 1_555 1_555
Cu7 O10_3 1_555 1_555
O20_3 Cu13_3 1_555 1_555
O23_3 Cu14_2 1_555 1_555
O26_3 Cu8 1_555 1_555
O4_3 Cu12 1_555 1_555
C12_5 C14_5 1_555 1_555
C15_5 C16_5 1_555 1_555
C19_5 C22_5 1_555 1_555
C20_5 C22_5 1_555 1_555
C23_5 C24_5 1_555 1_555
C27_5 C30_5 1_555 1_555
C28_5 C30_5 1_555 1_555
C31_5 C32_5 1_555 1_555
C35_5 C38_5 1_555 1_555
C36_5 C38_5 1_555 1_555
C39_5 C40_5 1_555 1_555
O3_6 Cu7_3 1_555 1_555
O4_4 C9_6 1_555 1_555
C9_6 O3_6 1_555 1_555
O7_6 C25_6 1_555 1_555
O8_4 C25_6 1_555 1_555
Cu14 O7_6 1_555 1_555
O17_4 Cu7_3 1_555 1_555
Cu13 O8_4 1_555 1_555
O23_4 Cu14 1_555 1_555
O4_4 Cu12_2 1_555 1_555
Cu2_6 N1_6 1_555 1_555
N1_6 C14_6 1_555 1_555
H7_6 C10_6 1_555 1_555
C11_6 C10_6 1_555 1_555
H8_6 C11_6 1_555 1_555
C12_6 H9_6 1_555 1_555
C13_6 C12_6 1_555 1_555
H10_6 C13_6 1_555 1_555
C14_6 C11_6 1_555 1_555
C15_6 C13_6 1_555 1_555
H11_6 C15_6 1_555 1_555
C16_6 N1_6 1_555 1_555
H12_6 C16_6 1_555 1_555
N3_6 Cu2_6 1_555 1_555
O5_6 C17_6 1_555 1_555
O6_4 C17_6 1_555 1_555
C17_6 C18_6 1_555 1_555
C18_6 H13_6 1_555 1_555
C19_6 C18_6 1_555 1_555
H14_6 C19_6 1_555 1_555
C20_6 H15_6 1_555 1_555
C21_6 C20_6 1_555 1_555
H16_6 C21_6 1_555 1_555
C22_6 N3_6 1_555 1_555
C23_6 C21_6 1_555 1_555
H17_6 C23_6 1_555 1_555
C24_6 N3_6 1_555 1_555
H18_6 C24_6 1_555 1_555
N4_6 Cu2_6 1_555 1_555
C26_6 H19_6 1_555 1_555
C27_6 C26_6 1_555 1_555
H20_6 C27_6 1_555 1_555
C28_6 H21_6 1_555 1_555
C29_6 C28_6 1_555 1_555
H22_6 C29_6 1_555 1_555
C30_6 N4_6 1_555 1_555
C31_6 C29_6 1_555 1_555
H23_6 C31_6 1_555 1_555
C32_6 N4_6 1_555 1_555
H24_6 C32_6 1_555 1_555
N5_6 Cu2_6 1_555 1_555
O9_6 C33_6 1_555 1_555
O10_4 C33_6 1_555 1_555
C33_6 C34_6 1_555 1_555
C34_6 H25_6 1_555 1_555
C35_6 C34_6 1_555 1_555
H26_6 C35_6 1_555 1_555
C36_6 H27_6 1_555 1_555
C37_6 C36_6 1_555 1_555
H28_6 C37_6 1_555 1_555
C38_6 N5_6 1_555 1_555
C39_6 C37_6 1_555 1_555
H29_6 C39_6 1_555 1_555
C40_6 N5_6 1_555 1_555
H30_6 C40_6 1_555 1_555
Cu12_4 O5_6 1_555 1_555
Cu8_2 O9_6 1_555 1_555
Cu12_3 O6_4 1_555 1_555
Cu7_2 O10_4 1_555 1_555
O20_4 Cu12_4 1_555 1_555
O26_4 Cu8_2 1_555 1_555
C12_6 C14_6 1_555 1_555
C15_6 C16_6 1_555 1_555
C19_6 C22_6 1_555 1_555
C20_6 C22_6 1_555 1_555
C23_6 C24_6 1_555 1_555
C27_6 C30_6 1_555 1_555
C28_6 C30_6 1_555 1_555
C31_6 C32_6 1_555 1_555
C35_6 C38_6 1_555 1_555
C36_6 C38_6 1_555 1_555
C39_6 C40_6 1_555 1_555
O3_7 Cu7_2 1_555 1_555
O26_4 C9_7 1_555 1_555
C9_7 O3_7 1_555 1_555
C10_7 C9_7 1_555 1_555
H7_7 C10_7 1_555 1_555
C11_7 C10_7 1_555 1_555
C12_7 H9_7 1_555 1_555
C13_7 C12_7 1_555 1_555
H10_7 C13_7 1_555 1_555
C14_7 C11_7 1_555 1_555
C15_7 C13_7 1_555 1_555
H11_7 C15_7 1_555 1_555
O5_7 C17_7 1_555 1_555
O23_4 C17_7 1_555 1_555
C17_7 C18_7 1_555 1_555
C18_7 H13_7 1_555 1_555
C19_7 C18_7 1_555 1_555
C20_7 H15_7 1_555 1_555
C21_7 C20_7 1_555 1_555
H16_7 C21_7 1_555 1_555
C23_7 C21_7 1_555 1_555
H17_7 C23_7 1_555 1_555
Cu13 O5_7 1_555 1_555
C12_7 C14_7 1_555 1_555
C19_7 C22_7 1_555 1_555
C20_7 C22_7 1_555 1_555
Cu2_7 N1_7 1_555 1_555
C16_7 N1_7 1_555 1_555
H12_7 C16_7 1_555 1_555
N3_7 Cu2_7 1_555 1_555
C24_7 N3_7 1_555 1_555
H18_7 C24_7 1_555 1_555
N4_7 Cu2_7 1_555 1_555
O7_7 C25_7 1_555 1_555
O20_4 C25_7 1_555 1_555
C25_7 C26_7 1_555 1_555
C26_7 H19_7 1_555 1_555
C27_7 C26_7 1_555 1_555
H20_7 C27_7 1_555 1_555
C28_7 H21_7 1_555 1_555
C29_7 C28_7 1_555 1_555
H22_7 C29_7 1_555 1_555
C30_7 N4_7 1_555 1_555
C31_7 C29_7 1_555 1_555
H23_7 C31_7 1_555 1_555
C32_7 N4_7 1_555 1_555
H24_7 C32_7 1_555 1_555
N5_7 Cu2_7 1_555 1_555
O9_7 C33_7 1_555 1_555
O17_4 C33_7 1_555 1_555
C33_7 C34_7 1_555 1_555
C34_7 H25_7 1_555 1_555
C35_7 C34_7 1_555 1_555
H26_7 C35_7 1_555 1_555
C36_7 H27_7 1_555 1_555
C37_7 C36_7 1_555 1_555
H28_7 C37_7 1_555 1_555
C38_7 N5_7 1_555 1_555
C39_7 C37_7 1_555 1_555
H29_7 C39_7 1_555 1_555
C40_7 N5_7 1_555 1_555
H30_7 C40_7 1_555 1_555
Cu12_3 O7_7 1_555 1_555
Cu12_2 O9_7 1_555 1_555
C27_7 C30_7 1_555 1_555
C28_7 C30_7 1_555 1_555
C31_7 C32_7 1_555 1_555
C35_7 C38_7 1_555 1_555
C36_7 C38_7 1_555 1_555
C39_7 C40_7 1_555 1_555
O3_8 Cu7 1_555 1_555
O26_3 C9_8 1_555 1_555
C9_8 O3_8 1_555 1_555
H7_8 C10_8 1_555 1_555
C11_8 C10_8 1_555 1_555
C12_8 H9_8 1_555 1_555
C13_8 C12_8 1_555 1_555
H10_8 C13_8 1_555 1_555
C14_8 C11_8 1_555 1_555
C15_8 C13_8 1_555 1_555
H11_8 C15_8 1_555 1_555
O5_8 C17_8 1_555 1_555
O23_3 C17_8 1_555 1_555
C17_8 C18_8 1_555 1_555
C18_8 H13_8 1_555 1_555
C19_8 C18_8 1_555 1_555
C20_8 H15_8 1_555 1_555
C21_8 C20_8 1_555 1_555
H16_8 C21_8 1_555 1_555
C23_8 C21_8 1_555 1_555
H17_8 C23_8 1_555 1_555
Cu13_2 O5_8 1_555 1_555
C12_8 C14_8 1_555 1_555
C19_8 C22_8 1_555 1_555
C20_8 C22_8 1_555 1_555
O7_8 C25_8 1_555 1_555
O20_3 C25_8 1_555 1_555
Cu14_3 O7_8 1_555 1_555
Cu2_8 N1_8 1_555 1_555
C16_8 N1_8 1_555 1_555
H12_8 C16_8 1_555 1_555
N3_8 Cu2_8 1_555 1_555
C24_8 N3_8 1_555 1_555
H18_8 C24_8 1_555 1_555
N4_8 Cu2_8 1_555 1_555
C26_8 H19_8 1_555 1_555
C27_8 C26_8 1_555 1_555
H20_8 C27_8 1_555 1_555
C28_8 H21_8 1_555 1_555
C29_8 C28_8 1_555 1_555
H22_8 C29_8 1_555 1_555
C30_8 N4_8 1_555 1_555
C31_8 C29_8 1_555 1_555
H23_8 C31_8 1_555 1_555
C32_8 N4_8 1_555 1_555
H24_8 C32_8 1_555 1_555
N5_8 Cu2_8 1_555 1_555
O9_8 C33_8 1_555 1_555
O17_3 C33_8 1_555 1_555
C33_8 C34_8 1_555 1_555
C34_8 H25_8 1_555 1_555
C35_8 C34_8 1_555 1_555
H26_8 C35_8 1_555 1_555
C36_8 H27_8 1_555 1_555
C37_8 C36_8 1_555 1_555
H28_8 C37_8 1_555 1_555
C38_8 N5_8 1_555 1_555
C39_8 C37_8 1_555 1_555
H29_8 C39_8 1_555 1_555
C40_8 N5_8 1_555 1_555
H30_8 C40_8 1_555 1_555
Cu12 O9_8 1_555 1_555
C27_8 C30_8 1_555 1_555
C28_8 C30_8 1_555 1_555
C31_8 C32_8 1_555 1_555
C35_8 C38_8 1_555 1_555
C36_8 C38_8 1_555 1_555
C39_8 C40_8 1_555 1_555

#END
