
###############################################################################
#
# This file contains modified crystal structure data generated from the
# MOF subset of the Cambridge Structural Database (CSD) v543 
# hosted by the Cambridge Crystallographic Data Centre (CCDC).
#
# This work is licensed under the Creative Commons
# Attribution-NonCommercial-ShareAlike 4.0 International License.
# To view a copy of this license, visit
# http://creativecommons.org/licenses/by-nc-sa/4.0/
# or send a letter to
# Creative Commons, PO Box 1866, Mountain View, CA 94042, USA.
#
# CIF created using the CSD Python API on 29 September 2022
# The structure has been converted into the P1 space group
# The structure has a 3D framework
# The original CSD entry IVEMIH01 is in the monoclinic crystal system
# The framework has been calculated to contain at least 10.0% void space
# The void calculation uses a probe of radius 1.32A, grid spacing 0.4
#
###############################################################################

data_IVEMIH01
_chemical_formula_moiety         '(C144 H96 Mn10 N24 O46)n'
_symmetry_cell_setting           triclinic
_symmetry_space_group_name_H-M   'P 1'
_symmetry_Int_Tables_number      1
_space_group_name_Hall           'P 1'
loop_
_symmetry_equiv_pos_site_id
_symmetry_equiv_pos_as_xyz
1 x,y,z
_cell_length_a                   9.9242(6)
_cell_length_b                   41.265(2)
_cell_length_c                   9.8226(6)
_cell_angle_alpha                90
_cell_angle_beta                 102.176(3)
_cell_angle_gamma                90
_cell_volume                     3932.08
loop_
_atom_site_label
_atom_site_type_symbol
_atom_site_fract_x
_atom_site_fract_y
_atom_site_fract_z
Mn3 Mn 0.24655(8) 0.00051(2) 0.49681(9)
O15 O 0.1264(4) 0.00939(10) 0.6513(4)
O16 O 0.4124(4) 0.03053(9) 0.6154(4)
N10 N 0.1807(5) 0.04811(11) 0.3786(5)
Mn2 Mn 0.24353(8) 0.83289(2) 0.00370(8)
O6 O 0.1238(4) 0.82124(9) 0.1558(4)
O10 O 0.0892(4) 0.97319(9) 0.3617(4)
O11 O 0.3730(4) 0.98900(9) 0.3474(4)
O12 O 0.5876(4) 0.96947(9) 0.3846(4)
N3 N 0.1710(4) 0.71362(10) 0.3939(5)
C13 C 0.0376(5) 0.71848(13) 0.3322(6)
C15 C 0.0796(5) 0.77138(12) 0.2555(5)
C16 C 0.2169(5) 0.76670(14) 0.3190(6)
H11 H 0.2810 0.7830 0.3160
C17 C 0.2585(6) 0.73799(14) 0.3864(6)
H12 H 0.3510 0.7354 0.4285
C18 C 0.0311(5) 0.80207(13) 0.1759(6)
H17 H 0.0073 0.8691 0.1742
H18 H 0.0916 0.9158 0.2852
N6 N 0.3160(5) 0.87937(10) 0.1256(5)
C31 C 0.2900(6) 0.90832(13) 0.0650(6)
C32 C 0.3327(6) 0.93717(14) 0.1332(6)
H22 H 0.3099 0.9568 0.0880
C33 C 0.4090(5) 0.93665(13) 0.2679(6)
C34 C 0.4373(6) 0.90676(14) 0.3272(6)
H23 H 0.4902 0.9051 0.4171
C35 C 0.3885(6) 0.87900(14) 0.2552(6)
H24 H 0.4073 0.8591 0.2998
C36 C 0.4614(5) 0.96742(13) 0.3409(5)
Mn4 Mn 0.24278(8) 0.66618(2) 0.50609(9)
Mn10 Mn 0.75345(8) 0.99949(2) 0.50319(9)
O13 O 0.4045(4) 0.80345(9) 0.1223(4)
N8 N 0.3187(5) 0.95330(11) 0.6126(5)
O8 O 0.0818(4) 0.86249(9) 0.8816(4)
H21 H 0.2413 0.9092 0.9732
O14 O 0.3600(4) 0.84530(9) 0.8495(4)
N7 N 0.1737(5) 0.78577(11) 0.8824(5)
Mn1 Mn 0.74278(8) 0.83382(2) 0.00609(9)
O1 O 0.6151(4) 0.82489(9) 0.1574(4)
O5 O 0.9052(4) 0.80583(9) 0.1383(4)
O9 O 0.8736(4) 0.99061(10) 0.3487(4)
N1 N 0.6737(5) 0.71423(11) 0.3824(5)
C1 C 0.7001(6) 0.74333(13) 0.4418(6)
H1 H 0.7475 0.7442 0.5341
C2 C 0.6616(6) 0.77196(14) 0.3747(6)
H2 H 0.6853 0.7916 0.4202
C3 C 0.5874(5) 0.77164(13) 0.2393(6)
C4 C 0.5586(6) 0.74167(13) 0.1781(6)
H3 H 0.5077 0.7401 0.0872
C5 C 0.6052(6) 0.71406(14) 0.2515(6)
H4 H 0.5876 0.6942 0.2065
C6 C 0.5322(5) 0.80291(13) 0.1664(5)
H9 H 0.9751 0.7019 0.3365
C14 C 0.9880(5) 0.74674(12) 0.2626(6)
H10 H 0.8950 0.7490 0.2218
N5 N 0.8162(4) 0.88163(11) 0.1150(5)
C25 C 0.9462(6) 0.88614(14) 0.1764(6)
C26 C 0.9986(6) 0.91413(13) 0.2436(6)
C27 C 0.9092(5) 0.93993(13) 0.2480(6)
C28 C 0.7736(6) 0.93574(13) 0.1853(6)
H19 H 0.7100 0.9522 0.1869
C29 C 0.7320(6) 0.90655(14) 0.1194(6)
H20 H 0.6398 0.9043 0.0756
C30 C 0.9618(5) 0.97057(13) 0.3276(5)
Mn6 Mn 0.74353(8) 0.66711(2) 0.50370(8)
O3 O 0.5799(4) 0.86131(9) 0.8730(4)
O7 O 0.8709(4) 0.84179(9) 0.8540(4)
C7 C 0.4497(6) 0.94787(14) 0.6717(6)
H5 H 0.5133 0.9641 0.6659
C8 C 0.4981(6) 0.91975(13) 0.7412(6)
H6 H 0.5912 0.9172 0.7809
C9 C 0.4052(5) 0.89554(12) 0.7504(6)
C10 C 0.2695(6) 0.90042(13) 0.6882(6)
H7 H 0.2041 0.8844 0.6907
C11 C 0.2320(6) 0.92945(14) 0.6220(6)
H8 H 0.1394 0.9325 0.5811
C12 C 0.4532(6) 0.86463(12) 0.8312(6)
N4 N 0.8193(5) 0.95189(11) 0.6214(5)
C19 C 0.7941(6) 0.92302(13) 0.5626(6)
H13 H 0.7491 0.9221 0.4695
C20 C 0.8313(6) 0.89394(14) 0.6325(6)
H14 H 0.8075 0.8743 0.5875
C21 C 0.9034(5) 0.89447(13) 0.7687(6)
C22 C 0.9308(6) 0.92463(14) 0.8283(6)
H15 H 0.9795 0.9263 0.9200
C23 C 0.8875(6) 0.95223(15) 0.7546(7)
H16 H 0.9063 0.9721 0.7989
C24 C 0.9545(5) 0.86366(12) 0.8424(5)
N9 N 0.6710(4) 0.78638(10) 0.8939(5)
Mn7 Mn 0.25345(8) 0.50051(2) 0.00319(9)
O2 O 0.0955(4) 0.30345(9) 0.3777(4)
O4 O 0.1400(4) 0.34530(9) 0.6505(4)
N2 N 0.1813(5) 0.45330(11) 0.8874(5)
C7_2 C 0.0503(6) 0.44787(14) 0.8283(6)
C8_2 C 0.0019(6) 0.41975(13) 0.7588(6)
C9_2 C 0.0948(5) 0.39554(12) 0.7496(6)
C10_2 C 0.2305(6) 0.40042(13) 0.8118(6)
H7_2 H 0.2959 0.3844 0.8093
C11_2 C 0.2680(6) 0.42945(14) 0.8780(6)
H8_2 H 0.3606 0.4325 0.9189
C12_2 C 0.0468(6) 0.36463(12) 0.6688(6)
Mn5 Mn 0.25647(8) 0.33289(2) 0.49630(8)
Mn1_2 Mn 0.75722(8) 0.33382(2) 0.49391(9)
O1_2 O 0.8849(4) 0.32489(9) 0.3426(4)
O3_2 O 0.9201(4) 0.36131(9) 0.6270(4)
O5_2 O 0.5948(4) 0.30583(9) 0.3617(4)
O6_2 O 0.3762(4) 0.32124(9) 0.3442(4)
O7_2 O 0.6291(4) 0.34179(9) 0.6460(4)
O8_2 O 0.4182(4) 0.36249(9) 0.6184(4)
O9_2 O 0.6264(4) 0.49061(10) 0.1513(4)
O10_2 O 0.4108(4) 0.47319(9) 0.1383(4)
O11_2 O 0.1270(4) 0.48900(9) 0.1526(4)
N1_2 N 0.8263(5) 0.21423(11) 0.1176(5)
C1_2 C 0.7999(6) 0.24333(13) 0.0582(6)
C2_2 C 0.8384(6) 0.27196(14) 0.1253(6)
H2_2 H 0.8147 0.2916 0.0798
C3_2 C 0.9126(5) 0.27164(13) 0.2607(6)
C4_2 C 0.9414(6) 0.24167(13) 0.3219(6)
H3_2 H 0.9923 0.2401 0.4128
C5_2 C 0.8948(6) 0.21406(14) 0.2485(6)
H4_2 H 0.9124 0.1942 0.2935
C6_2 C 0.9678(5) 0.30291(13) 0.3336(5)
H5_2 H 0.9867 0.4641 0.8341
H6_2 H 0.9088 0.4172 0.7191
N3_2 N 0.3290(4) 0.21362(10) 0.1061(5)
C13_2 C 0.4624(5) 0.21848(13) 0.1678(6)
H9_2 H 0.5249 0.2019 0.1635
C14_2 C 0.5120(5) 0.24674(12) 0.2374(6)
H10_2 H 0.6050 0.2490 0.2782
C15_2 C 0.4204(5) 0.27138(12) 0.2445(5)
C16_2 C 0.2831(5) 0.26670(14) 0.1810(6)
H11_2 H 0.2190 0.2830 0.1840
C17_2 C 0.2415(6) 0.23799(14) 0.1136(6)
H12_2 H 0.1490 0.2354 0.0715
C18_2 C 0.4689(5) 0.30207(13) 0.3241(6)
N4_2 N 0.6807(5) 0.45189(11) 0.8786(5)
C19_2 C 0.7059(6) 0.42302(13) 0.9374(6)
C20_2 C 0.6687(6) 0.39394(14) 0.8675(6)
H14_2 H 0.6925 0.3743 0.9125
C21_2 C 0.5966(5) 0.39447(13) 0.7313(6)
C22_2 C 0.5692(6) 0.42463(14) 0.6717(6)
H15_2 H 0.5205 0.4263 0.5800
C23_2 C 0.6125(6) 0.45223(15) 0.7454(7)
H16_2 H 0.5937 0.4721 0.7011
C24_2 C 0.5455(5) 0.36366(12) 0.6576(5)
N5_2 N 0.6838(4) 0.38163(11) 0.3850(5)
C25_2 C 0.5538(6) 0.38614(14) 0.3236(6)
H17_2 H 0.4927 0.3691 0.3258
C26_2 C 0.5014(6) 0.41413(13) 0.2564(6)
H18_2 H 0.4084 0.4158 0.2148
C27_2 C 0.5908(5) 0.43993(13) 0.2520(6)
C28_2 C 0.7264(6) 0.43574(13) 0.3147(6)
H19_2 H 0.7900 0.4522 0.3131
C29_2 C 0.7680(6) 0.40655(14) 0.3806(6)
H20_2 H 0.8602 0.4043 0.4244
C30_2 C 0.5382(5) 0.47057(13) 0.1724(5)
N6_2 N 0.1840(5) 0.37937(10) 0.3744(5)
C31_2 C 0.2100(6) 0.40832(13) 0.4350(6)
H21_2 H 0.2587 0.4092 0.5268
C32_2 C 0.1673(6) 0.43717(14) 0.3668(6)
H22_2 H 0.1901 0.4568 0.4120
C33_2 C 0.0910(5) 0.43665(13) 0.2321(6)
C34_2 C 0.0627(6) 0.40676(14) 0.1728(6)
H23_2 H 0.0098 0.4051 0.0829
C35_2 C 0.1115(6) 0.37900(14) 0.2448(6)
H24_2 H 0.0927 0.3591 0.2002
C36_2 C 0.0386(5) 0.46742(13) 0.1591(5)
Mn8 Mn 0.74655(8) 0.49949(2) 0.99681(9)
N7_2 N 0.3263(5) 0.28577(11) 0.6176(5)
N9_2 N 0.8290(4) 0.28638(10) 0.6061(5)
N10_2 N 0.3193(5) 0.54811(11) 0.1214(5)
H1_2 H 0.7525 0.2442 0.9659
Mn4_2 Mn 0.25722(8) 0.16618(2) 0.99391(9)
Mn6_2 Mn 0.75647(8) 0.16711(2) 0.99630(8)
O15_2 O 0.3736(4) 0.50939(10) 0.8487(4)
O16_2 O 0.0876(4) 0.53053(9) 0.8846(4)
O12_2 O 0.9124(4) 0.46947(9) 0.1154(4)
O3_3 O 0.4201(4) 0.13869(9) 0.1270(4)
O4_2 O 0.6400(4) 0.15470(9) 0.1505(4)
O7_3 O 0.1291(4) 0.15821(9) 0.1460(4)
N2_2 N 0.6813(5) 0.04670(11) 0.3874(5)
C7_3 C 0.5503(6) 0.05213(14) 0.3283(6)
H5_3 H 0.4867 0.0359 0.3341
C8_3 C 0.5019(6) 0.08025(13) 0.2588(6)
H6_3 H 0.4088 0.0828 0.2191
C9_3 C 0.5948(5) 0.10446(12) 0.2496(6)
C10_3 C 0.7305(6) 0.09958(13) 0.3118(6)
H7_3 H 0.7959 0.1156 0.3093
C11_3 C 0.7680(6) 0.07055(14) 0.3780(6)
H8_3 H 0.8606 0.0675 0.4189
C12_3 C 0.5468(6) 0.13537(12) 0.1688(6)
C19_3 C 0.2059(6) 0.07698(13) 0.4374(6)
H13_2 H 0.2509 0.0779 0.5305
C20_3 C 0.1687(6) 0.10606(14) 0.3675(6)
H14_3 H 0.1925 0.1257 0.4125
C21_3 C 0.0966(5) 0.10553(13) 0.2313(6)
C22_3 C 0.0692(6) 0.07537(14) 0.1717(6)
H15_3 H 0.0205 0.0737 0.0800
C23_3 C 0.1125(6) 0.04777(15) 0.2454(7)
H16_3 H 0.0937 0.0279 0.2011
C24_3 C 0.0455(5) 0.13634(12) 0.1576(5)
O1_3 O 0.3849(4) 0.17511(9) 0.8426(4)
O2_2 O 0.5955(4) 0.19655(9) 0.8777(4)
O5_3 O 0.0948(4) 0.19417(9) 0.8617(4)
C1_3 C 0.2999(6) 0.25667(13) 0.5582(6)
H1_3 H 0.2525 0.2558 0.4659
C2_3 C 0.3384(6) 0.22804(14) 0.6253(6)
H2_3 H 0.3147 0.2084 0.5798
C3_3 C 0.4126(5) 0.22836(13) 0.7607(6)
C4_3 C 0.4414(6) 0.25833(13) 0.8219(6)
H3_3 H 0.4923 0.2599 0.9128
C5_3 C 0.3948(6) 0.28594(14) 0.7485(6)
H4_3 H 0.4124 0.3058 0.7935
C6_3 C 0.4678(5) 0.19709(13) 0.8336(5)
H9_3 H 0.0249 0.2981 0.6635
C14_3 C 0.0120(5) 0.25326(12) 0.7374(6)
H10_3 H 0.1050 0.2510 0.7782
N5_3 N 0.1838(4) 0.11837(11) 0.8850(5)
C25_3 C 0.0538(6) 0.11386(14) 0.8236(6)
C26_3 C 0.0014(6) 0.08587(13) 0.7564(6)
C27_3 C 0.0908(5) 0.06007(13) 0.7520(6)
C28_3 C 0.2264(6) 0.06426(13) 0.8147(6)
H19_3 H 0.2900 0.0478 0.8131
C29_3 C 0.2680(6) 0.09345(14) 0.8806(6)
H20_3 H 0.3602 0.0957 0.9244
C30_3 C 0.0382(5) 0.02943(13) 0.6724(5)
O8_3 O 0.9182(4) 0.13751(9) 0.1184(4)
H21_3 H 0.7587 0.0908 0.0268
O6_3 O 0.8762(4) 0.17876(9) 0.8442(4)
O10_3 O 0.9108(4) 0.02681(9) 0.6383(4)
O11_3 O 0.6270(4) 0.01100(9) 0.6526(4)
C13_3 C 0.9624(5) 0.28152(13) 0.6678(6)
C15_3 C 0.9204(5) 0.22862(12) 0.7445(5)
C16_3 C 0.7831(5) 0.23330(14) 0.6810(6)
H11_3 H 0.7190 0.2170 0.6840
C17_3 C 0.7415(6) 0.26201(14) 0.6136(6)
H12_3 H 0.6490 0.2646 0.5715
C18_3 C 0.9689(5) 0.19793(13) 0.8241(6)
H17_3 H 0.9927 0.1309 0.8258
H18_3 H 0.9084 0.0842 0.7148
N6_3 N 0.6840(5) 0.12063(10) 0.8744(5)
C31_3 C 0.7100(6) 0.09168(13) 0.9350(6)
C32_3 C 0.6673(6) 0.06283(14) 0.8668(6)
H22_3 H 0.6901 0.0432 0.9120
C33_3 C 0.5910(5) 0.06335(13) 0.7321(6)
C34_3 C 0.5627(6) 0.09324(14) 0.6728(6)
H23_3 H 0.5098 0.0949 0.5829
C35_3 C 0.6115(6) 0.12100(14) 0.7448(6)
H24_3 H 0.5927 0.1409 0.7002
C36_3 C 0.5386(5) 0.03258(13) 0.6591(5)
H1_4 H 0.2475 0.7558 0.0341
N8_2 N 0.8187(5) 0.54670(11) 0.1126(5)
O1_4 O 0.1151(4) 0.67511(9) 0.6574(4)
O3_4 O 0.0799(4) 0.63869(9) 0.3730(4)
O5_4 O 0.4052(4) 0.69417(9) 0.6383(4)
O6_4 O 0.6238(4) 0.67876(9) 0.6558(4)
O7_4 O 0.3709(4) 0.65821(9) 0.3540(4)
O8_4 O 0.5818(4) 0.63751(9) 0.3816(4)
O10_4 O 0.5892(4) 0.52681(9) 0.8617(4)
O11_4 O 0.8730(4) 0.51100(9) 0.8474(4)
C1_4 C 0.2001(6) 0.75667(13) 0.9418(6)
C2_4 C 0.1616(6) 0.72804(14) 0.8747(6)
H2_4 H 0.1853 0.7084 0.9202
C3_4 C 0.0874(5) 0.72836(13) 0.7393(6)
C4_4 C 0.0586(6) 0.75833(13) 0.6781(6)
H3_4 H 0.0077 0.7599 0.5872
C5_4 C 0.1052(6) 0.78594(14) 0.7515(6)
H4_4 H 0.0876 0.8058 0.7065
C6_4 C 0.0322(5) 0.69709(13) 0.6664(5)
H5_4 H 0.0133 0.5359 0.1659
H6_4 H 0.0912 0.5828 0.2809
C13_4 C 0.5376(5) 0.78152(13) 0.8322(6)
H9_4 H 0.4751 0.7981 0.8365
C14_4 C 0.4880(5) 0.75326(12) 0.7626(6)
H10_4 H 0.3950 0.7510 0.7218
C15_4 C 0.5796(5) 0.72862(12) 0.7555(5)
C16_4 C 0.7169(5) 0.73330(14) 0.8190(6)
H11_4 H 0.7810 0.7170 0.8160
C17_4 C 0.7585(6) 0.76201(14) 0.8864(6)
H12_4 H 0.8510 0.7646 0.9285
C18_4 C 0.5311(5) 0.69793(13) 0.6759(6)
C19_4 C 0.2941(6) 0.57698(13) 0.0626(6)
C20_4 C 0.3313(6) 0.60606(14) 0.1325(6)
H14_4 H 0.3075 0.6257 0.0875
C21_4 C 0.4034(5) 0.60553(13) 0.2687(6)
C22_4 C 0.4308(6) 0.57537(14) 0.3283(6)
H15_4 H 0.4795 0.5737 0.4200
C23_4 C 0.3875(6) 0.54777(15) 0.2546(7)
H16_4 H 0.4063 0.5279 0.2989
C24_4 C 0.4545(5) 0.63634(12) 0.3424(5)
N5_4 N 0.3162(4) 0.61837(11) 0.6150(5)
C25_4 C 0.4462(6) 0.61386(14) 0.6764(6)
H17_4 H 0.5073 0.6309 0.6742
C26_4 C 0.4986(6) 0.58587(13) 0.7436(6)
H18_4 H 0.5916 0.5842 0.7852
C27_4 C 0.4092(5) 0.56007(13) 0.7480(6)
C28_4 C 0.2736(6) 0.56426(13) 0.6853(6)
H19_4 H 0.2100 0.5478 0.6869
C29_4 C 0.2320(6) 0.59345(14) 0.6194(6)
H20_4 H 0.1398 0.5957 0.5756
C30_4 C 0.4618(5) 0.52943(13) 0.8276(5)
N6_4 N 0.8160(5) 0.62063(10) 0.6256(5)
C31_4 C 0.7900(6) 0.59168(13) 0.5650(6)
H21_4 H 0.7413 0.5908 0.4732
C32_4 C 0.8327(6) 0.56283(14) 0.6332(6)
H22_4 H 0.8099 0.5432 0.5880
C33_4 C 0.9090(5) 0.56335(13) 0.7679(6)
C34_4 C 0.9373(6) 0.59324(14) 0.8272(6)
H23_4 H 0.9902 0.5949 0.9171
C35_4 C 0.8885(6) 0.62100(14) 0.7552(6)
H24_4 H 0.9073 0.6409 0.7998
C36_4 C 0.9614(5) 0.53258(13) 0.8409(5)
O13_2 O 0.9045(4) 0.69655(9) 0.6223(4)
O14_2 O 0.8600(4) 0.65470(9) 0.3495(4)
C7_4 C 0.9497(6) 0.55213(14) 0.1717(6)
C8_4 C 0.9981(6) 0.58025(13) 0.2412(6)
C9_4 C 0.9052(5) 0.60446(12) 0.2504(6)
C10_4 C 0.7695(6) 0.59958(13) 0.1882(6)
H7_4 H 0.7041 0.6156 0.1907
C11_4 C 0.7320(6) 0.57055(14) 0.1220(6)
H8_4 H 0.6394 0.5675 0.0811
C12_4 C 0.9532(6) 0.63537(12) 0.3312(6)
H13_3 H 0.7509 0.4221 0.0305
H13_4 H 0.2491 0.5779 0.9695
loop_
_geom_bond_atom_site_label_1
_geom_bond_atom_site_label_2
_geom_bond_site_symmetry_1
_geom_bond_site_symmetry_2
O15 Mn3 1_555 1_555
O16 Mn3 1_555 1_555
N10 Mn3 1_555 1_555
Mn2 O6 1_555 1_555
O6 C18 1_555 1_555
O12 C36 1_555 1_555
N3 C13 1_555 1_555
C16 C15 1_555 1_555
H11 C16 1_555 1_555
C17 N3 1_555 1_555
H12 C17 1_555 1_555
N6 Mn2 1_555 1_555
C31 N6 1_555 1_555
C32 C31 1_555 1_555
H22 C32 1_555 1_555
C33 C32 1_555 1_555
C34 C33 1_555 1_555
H23 C34 1_555 1_555
C35 N6 1_555 1_555
H24 C35 1_555 1_555
C36 O11 1_555 1_555
Mn4 N3 1_555 1_555
Mn10 O12 1_555 1_555
O13 Mn2 1_555 1_555
C15 C18 1_555 1_555
C16 C17 1_555 1_555
C33 C36 1_555 1_555
C34 C35 1_555 1_555
Mn1 O1 1_555 1_555
O1 C6 1_555 1_555
O13 C6 1_555 1_555
O5 Mn1 1_555 1_555
O9 C30 1_555 1_555
N1 C1 1_555 1_555
C1 H1 1_555 1_555
C2 C1 1_555 1_555
H2 C2 1_555 1_555
C3 C2 1_555 1_555
C4 C3 1_555 1_555
H3 C4 1_555 1_555
C5 N1 1_555 1_555
H4 C5 1_555 1_555
C6 C3 1_555 1_555
H10 C14 1_555 1_555
N5 Mn1 1_555 1_555
C25 N5 1_555 1_555
C26 C25 1_555 1_555
C27 C26 1_555 1_555
C28 C27 1_555 1_555
H19 C28 1_555 1_555
C29 N5 1_555 1_555
H20 C29 1_555 1_555
C30 C27 1_555 1_555
Mn6 N1 1_555 1_555
Mn10 O9 1_555 1_555
C4 C5 1_555 1_555
C28 C29 1_555 1_555
O14 C12 1_555 1_555
N8 C7 1_555 1_555
C7 H5 1_555 1_555
C8 C7 1_555 1_555
H6 C8 1_555 1_555
C9 C8 1_555 1_555
C10 C9 1_555 1_555
H7 C10 1_555 1_555
C11 N8 1_555 1_555
H8 C11 1_555 1_555
C12 O3 1_555 1_555
N4 C19 1_555 1_555
C19 H13 1_555 1_555
C20 C19 1_555 1_555
H14 C20 1_555 1_555
C21 C20 1_555 1_555
C22 C21 1_555 1_555
H15 C22 1_555 1_555
C23 N4 1_555 1_555
H16 C23 1_555 1_555
C24 O7 1_555 1_555
Mn10 N4 1_555 1_555
C9 C12 1_555 1_555
C10 C11 1_555 1_555
C21 C24 1_555 1_555
C22 C23 1_555 1_555
O4 C12_2 1_555 1_555
N2 C7_2 1_555 1_555
C8_2 C7_2 1_555 1_555
C9_2 C8_2 1_555 1_555
C10_2 C9_2 1_555 1_555
H7_2 C10_2 1_555 1_555
C11_2 N2 1_555 1_555
H8_2 C11_2 1_555 1_555
Mn5 O2 1_555 1_555
O4 Mn5 1_555 1_555
C9_2 C12_2 1_555 1_555
C10_2 C11_2 1_555 1_555
Mn1_2 O1_2 1_555 1_555
Mn5 O6_2 1_555 1_555
Mn7 O10_2 1_555 1_555
O1_2 C6_2 1_555 1_555
O3_2 Mn1_2 1_555 1_555
O5_2 Mn1_2 1_555 1_555
O6_2 C18_2 1_555 1_555
O7_2 Mn1_2 1_555 1_555
O8_2 Mn5 1_555 1_555
O9_2 C30_2 1_555 1_555
O10_2 C30_2 1_555 1_555
O11_2 Mn7 1_555 1_555
N1_2 C1_2 1_555 1_555
C2_2 C1_2 1_555 1_555
H2_2 C2_2 1_555 1_555
C3_2 C2_2 1_555 1_555
C4_2 C3_2 1_555 1_555
H3_2 C4_2 1_555 1_555
C5_2 N1_2 1_555 1_555
H4_2 C5_2 1_555 1_555
C6_2 C3_2 1_555 1_555
N3_2 C13_2 1_555 1_555
C13_2 H9_2 1_555 1_555
C14_2 C13_2 1_555 1_555
H10_2 C14_2 1_555 1_555
C15_2 C14_2 1_555 1_555
C16_2 C15_2 1_555 1_555
H11_2 C16_2 1_555 1_555
C17_2 N3_2 1_555 1_555
H12_2 C17_2 1_555 1_555
C18_2 O5_2 1_555 1_555
N4_2 C19_2 1_555 1_555
C20_2 C19_2 1_555 1_555
H14_2 C20_2 1_555 1_555
C21_2 C20_2 1_555 1_555
C22_2 C21_2 1_555 1_555
H15_2 C22_2 1_555 1_555
C23_2 N4_2 1_555 1_555
H16_2 C23_2 1_555 1_555
C24_2 O7_2 1_555 1_555
N5_2 Mn1_2 1_555 1_555
C25_2 N5_2 1_555 1_555
H17_2 C25_2 1_555 1_555
C26_2 C25_2 1_555 1_555
H18_2 C26_2 1_555 1_555
C27_2 C26_2 1_555 1_555
C28_2 C27_2 1_555 1_555
H19_2 C28_2 1_555 1_555
C29_2 N5_2 1_555 1_555
H20_2 C29_2 1_555 1_555
C30_2 C27_2 1_555 1_555
N6_2 Mn5 1_555 1_555
C31_2 N6_2 1_555 1_555
H21_2 C31_2 1_555 1_555
C32_2 C31_2 1_555 1_555
H22_2 C32_2 1_555 1_555
C33_2 C32_2 1_555 1_555
C34_2 C33_2 1_555 1_555
H23_2 C34_2 1_555 1_555
C35_2 N6_2 1_555 1_555
H24_2 C35_2 1_555 1_555
C36_2 O11_2 1_555 1_555
Mn8 N4_2 1_555 1_555
N7_2 Mn5 1_555 1_555
N9_2 Mn1_2 1_555 1_555
N10_2 Mn7 1_555 1_555
O8_2 C24_2 1_555 1_555
C4_2 C5_2 1_555 1_555
C15_2 C18_2 1_555 1_555
C16_2 C17_2 1_555 1_555
C21_2 C24_2 1_555 1_555
C22_2 C23_2 1_555 1_555
C28_2 C29_2 1_555 1_555
C33_2 C36_2 1_555 1_555
C34_2 C35_2 1_555 1_555
O4_2 C12_3 1_555 1_555
N2_2 C7_3 1_555 1_555
C7_3 H5_3 1_555 1_555
C8_3 C7_3 1_555 1_555
H6_3 C8_3 1_555 1_555
C9_3 C8_3 1_555 1_555
C10_3 C9_3 1_555 1_555
H7_3 C10_3 1_555 1_555
C11_3 N2_2 1_555 1_555
H8_3 C11_3 1_555 1_555
C12_3 O3_3 1_555 1_555
N10 C19_3 1_555 1_555
C19_3 H13_2 1_555 1_555
C20_3 C19_3 1_555 1_555
H14_3 C20_3 1_555 1_555
C21_3 C20_3 1_555 1_555
C22_3 C21_3 1_555 1_555
H15_3 C22_3 1_555 1_555
C23_3 N10 1_555 1_555
H16_3 C23_3 1_555 1_555
C24_3 O7_3 1_555 1_555
C9_3 C12_3 1_555 1_555
C10_3 C11_3 1_555 1_555
C21_3 C24_3 1_555 1_555
C22_3 C23_3 1_555 1_555
Mn4_2 O1_3 1_555 1_555
O1_3 C6_3 1_555 1_555
O2_2 C6_3 1_555 1_555
O5_3 Mn4_2 1_555 1_555
O15 C30_3 1_555 1_555
N7_2 C1_3 1_555 1_555
C1_3 H1_3 1_555 1_555
C2_3 C1_3 1_555 1_555
H2_3 C2_3 1_555 1_555
C3_3 C2_3 1_555 1_555
C4_3 C3_3 1_555 1_555
H3_3 C4_3 1_555 1_555
C5_3 N7_2 1_555 1_555
H4_3 C5_3 1_555 1_555
C6_3 C3_3 1_555 1_555
H10_3 C14_3 1_555 1_555
N5_3 Mn4_2 1_555 1_555
C25_3 N5_3 1_555 1_555
C26_3 C25_3 1_555 1_555
C27_3 C26_3 1_555 1_555
C28_3 C27_3 1_555 1_555
H19_3 C28_3 1_555 1_555
C29_3 N5_3 1_555 1_555
H20_3 C29_3 1_555 1_555
C30_3 C27_3 1_555 1_555
Mn6_2 O2_2 1_555 1_555
C4_3 C5_3 1_555 1_555
C28_3 C29_3 1_555 1_555
Mn6_2 O6_3 1_555 1_555
O6_3 C18_3 1_555 1_555
O16 C36_3 1_555 1_555
N9_2 C13_3 1_555 1_555
C16_3 C15_3 1_555 1_555
H11_3 C16_3 1_555 1_555
C17_3 N9_2 1_555 1_555
H12_3 C17_3 1_555 1_555
N6_3 Mn6_2 1_555 1_555
C31_3 N6_3 1_555 1_555
C32_3 C31_3 1_555 1_555
H22_3 C32_3 1_555 1_555
C33_3 C32_3 1_555 1_555
C34_3 C33_3 1_555 1_555
H23_3 C34_3 1_555 1_555
C35_3 N6_3 1_555 1_555
H24_3 C35_3 1_555 1_555
C36_3 O11_3 1_555 1_555
C15_3 C18_3 1_555 1_555
C16_3 C17_3 1_555 1_555
C33_3 C36_3 1_555 1_555
C34_3 C35_3 1_555 1_555
Mn4 O1_4 1_555 1_555
Mn6 O6_4 1_555 1_555
Mn8 O10_4 1_555 1_555
O1_4 C6_4 1_555 1_555
O3_4 Mn4 1_555 1_555
O5_4 Mn4 1_555 1_555
O6_4 C18_4 1_555 1_555
O7_4 Mn4 1_555 1_555
O8_4 Mn6 1_555 1_555
O15_2 C30_4 1_555 1_555
O10_4 C30_4 1_555 1_555
O11_4 Mn8 1_555 1_555
N7 C1_4 1_555 1_555
C2_4 C1_4 1_555 1_555
H2_4 C2_4 1_555 1_555
C3_4 C2_4 1_555 1_555
C4_4 C3_4 1_555 1_555
H3_4 C4_4 1_555 1_555
C5_4 N7 1_555 1_555
H4_4 C5_4 1_555 1_555
C6_4 C3_4 1_555 1_555
N9 C13_4 1_555 1_555
C13_4 H9_4 1_555 1_555
C14_4 C13_4 1_555 1_555
H10_4 C14_4 1_555 1_555
C15_4 C14_4 1_555 1_555
C16_4 C15_4 1_555 1_555
H11_4 C16_4 1_555 1_555
C17_4 N9 1_555 1_555
H12_4 C17_4 1_555 1_555
C18_4 O5_4 1_555 1_555
N10_2 C19_4 1_555 1_555
C20_4 C19_4 1_555 1_555
H14_4 C20_4 1_555 1_555
C21_4 C20_4 1_555 1_555
C22_4 C21_4 1_555 1_555
H15_4 C22_4 1_555 1_555
C23_4 N10_2 1_555 1_555
H16_4 C23_4 1_555 1_555
C24_4 O7_4 1_555 1_555
N5_4 Mn4 1_555 1_555
C25_4 N5_4 1_555 1_555
H17_4 C25_4 1_555 1_555
C26_4 C25_4 1_555 1_555
H18_4 C26_4 1_555 1_555
C27_4 C26_4 1_555 1_555
C28_4 C27_4 1_555 1_555
H19_4 C28_4 1_555 1_555
C29_4 N5_4 1_555 1_555
H20_4 C29_4 1_555 1_555
C30_4 C27_4 1_555 1_555
N6_4 Mn6 1_555 1_555
C31_4 N6_4 1_555 1_555
H21_4 C31_4 1_555 1_555
C32_4 C31_4 1_555 1_555
H22_4 C32_4 1_555 1_555
C33_4 C32_4 1_555 1_555
C34_4 C33_4 1_555 1_555
H23_4 C34_4 1_555 1_555
C35_4 N6_4 1_555 1_555
H24_4 C35_4 1_555 1_555
C36_4 O11_4 1_555 1_555
O13_2 Mn6 1_555 1_555
O14_2 Mn6 1_555 1_555
O8_4 C24_4 1_555 1_555
C4_4 C5_4 1_555 1_555
C15_4 C18_4 1_555 1_555
C16_4 C17_4 1_555 1_555
C21_4 C24_4 1_555 1_555
C22_4 C23_4 1_555 1_555
C28_4 C29_4 1_555 1_555
C33_4 C36_4 1_555 1_555
C34_4 C35_4 1_555 1_555
O14_2 C12_4 1_555 1_555
N8_2 C7_4 1_555 1_555
C8_4 C7_4 1_555 1_555
C9_4 C8_4 1_555 1_555
C10_4 C9_4 1_555 1_555
H7_4 C10_4 1_555 1_555
C11_4 N8_2 1_555 1_555
H8_4 C11_4 1_555 1_555
C9_4 C12_4 1_555 1_555
C10_4 C11_4 1_555 1_555

#END
