
###############################################################################
#
# This file contains modified crystal structure data generated from the
# MOF subset of the Cambridge Structural Database (CSD) v543 
# hosted by the Cambridge Crystallographic Data Centre (CCDC).
#
# This work is licensed under the Creative Commons
# Attribution-NonCommercial-ShareAlike 4.0 International License.
# To view a copy of this license, visit
# http://creativecommons.org/licenses/by-nc-sa/4.0/
# or send a letter to
# Creative Commons, PO Box 1866, Mountain View, CA 94042, USA.
#
# CIF created using the CSD Python API on 29 September 2022
# The structure has been converted into the P1 space group
# The structure has a 3D framework
# The original CSD entry IVESOS is in the cubic crystal system
# The framework has been calculated to contain at least 10.0% void space
# The void calculation uses a probe of radius 1.32A, grid spacing 0.4
# The framework is charged, counterions have been retained in the structure
# H atom positions have been added when not included in the experimental data
#
###############################################################################

data_IVESOS
_chemical_formula_moiety         '(C288 H96 O192 Ru44 34+)n'
_symmetry_cell_setting           triclinic
_symmetry_space_group_name_H-M   'P 1'
_symmetry_Int_Tables_number      1
_space_group_name_Hall           'P 1'
loop_
_symmetry_equiv_pos_site_id
_symmetry_equiv_pos_as_xyz
1 x,y,z
_cell_length_a                   26.553(3)
_cell_length_b                   26.553(3)
_cell_length_c                   26.553(3)
_cell_angle_alpha                90
_cell_angle_beta                 90
_cell_angle_gamma                90
_cell_volume                     18721.5
loop_
_atom_site_label
_atom_site_type_symbol
_atom_site_fract_x
_atom_site_fract_y
_atom_site_fract_z
_atom_site_U_iso_or_equiv
_atom_site_thermal_displace_type
Ru17 Ru -0.0000 0.2154 0.7846 0.0380 Uiso
Ru18 Ru -0.0000 0.2846 0.7154 0.0380 Uiso
Ru1 Ru 0.2154 0.2154 0.0000 0.0380 Uiso
Ru2 Ru 0.2846 0.2846 0.0000 0.0380 Uiso
Ru3 Ru 0.7154 0.2846 0.0000 0.0380 Uiso
Ru4 Ru 0.7846 0.2154 0.0000 0.0380 Uiso
O5 O 0.2429(4) 0.3170(3) 0.0525(5) 0.0380 Uiso
O6 O 0.1830(3) 0.2571(4) 0.0525(5) 0.0380 Uiso
O7 O 0.2571(4) 0.1830(3) 0.0525(5) 0.0380 Uiso
O8 O 0.3170(3) 0.2429(4) 0.0525(5) 0.0380 Uiso
Ru1_2 Ru 0.2154 0.2154 1.0000 0.0380 Uiso
O1 O 0.1830(3) 0.2571(4) 0.9475(5) 0.0380 Uiso
C1 C 0.1765(5) 0.3235(5) 0.8925(9) 0.0380 Uiso
C2 C 0.2045(3) 0.2955(3) 0.9283(5) 0.0380 Uiso
C3 C 0.1969(9) 0.3630(8) 0.8630(8) 0.0380 Uiso
Ru2_2 Ru 0.2846 0.2846 1.0000 0.0380 Uiso
Ru3_2 Ru 0.7154 0.2846 1.0000 0.0380 Uiso
Ru4_2 Ru 0.7846 0.2154 1.0000 0.0380 Uiso
Ru5 Ru 0.5000 0.2846 0.7846 0.0380 Uiso
Ru6 Ru 0.5000 0.2154 0.7154 0.0380 Uiso
Ru7 Ru 0.2154 0.0000 0.7846 0.0380 Uiso
Ru8 Ru 0.2846 -0.0000 0.7154 0.0380 Uiso
Ru9 Ru 0.2154 0.5000 0.7154 0.0380 Uiso
Ru10 Ru 0.2846 0.5000 0.7846 0.0380 Uiso
Ru13 Ru 0.7846 0.2846 0.5000 0.0380 Uiso
Ru14 Ru 0.7154 0.2154 0.5000 0.0380 Uiso
Ru15 Ru 0.7154 0.5000 0.7846 0.0380 Uiso
Ru16 Ru 0.7846 0.5000 0.7154 0.0380 Uiso
Ru17_2 Ru 1.0000 0.2154 0.7846 0.0380 Uiso
Ru18_2 Ru 1.0000 0.2846 0.7154 0.0380 Uiso
O2 O 0.3170(3) 0.2429(4) 0.9475(5) 0.0380 Uiso
O3 O 0.2571(4) 0.1830(3) 0.9475(5) 0.0380 Uiso
O4 O 0.2429(4) 0.3170(3) 0.9475(5) 0.0380 Uiso
O9 O 0.7571(4) 0.3170(3) 0.9475(5) 0.0380 Uiso
O10 O 0.8170(3) 0.2571(4) 0.9475(5) 0.0380 Uiso
O11 O 0.5525(5) 0.2429(4) 0.8170(3) 0.0380 Uiso
O12 O 0.5525(5) 0.2571(4) 0.6830(3) 0.0380 Uiso
O13 O 0.5525(5) 0.3170(3) 0.7429(4) 0.0380 Uiso
O14 O 0.4475(5) 0.3170(3) 0.7429(4) 0.0380 Uiso
O15 O 0.4475(5) 0.2571(4) 0.6830(3) 0.0380 Uiso
O16 O 0.4475(5) 0.1830(3) 0.7571(4) 0.0380 Uiso
O17 O 0.4475(5) 0.2429(4) 0.8170(3) 0.0380 Uiso
O18 O 0.2571(4) 0.0525(5) 0.8170(3) 0.0380 Uiso
O19 O 0.3170(3) 0.0525(5) 0.7571(4) 0.0380 Uiso
O20 O 0.5525(5) 0.1830(3) 0.7571(4) 0.0380 Uiso
O21 O 0.2429(4) 0.4475(5) 0.8170(3) 0.0380 Uiso
O22 O 0.1830(3) 0.4475(5) 0.7571(4) 0.0380 Uiso
O23 O 0.0525(5) 0.3170(3) 0.7571(4) 0.0380 Uiso
O24 O 0.0525(5) 0.2571(4) 0.8170(3) 0.0380 Uiso
O25 O 0.7429(4) 0.3170(3) 0.5525(5) 0.0380 Uiso
O26 O 0.6830(3) 0.2571(4) 0.5525(5) 0.0380 Uiso
O27 O 0.6830(3) 0.4475(5) 0.7429(4) 0.0380 Uiso
O28 O 0.7429(4) 0.4475(5) 0.6830(3) 0.0380 Uiso
O29 O 0.8170(3) 0.4475(5) 0.7571(4) 0.0380 Uiso
O30 O 0.7571(4) 0.4475(5) 0.8170(3) 0.0380 Uiso
O31 O 0.9475(5) 0.2571(4) 0.8170(3) 0.0380 Uiso
O32 O 0.9475(5) 0.3170(3) 0.7571(4) 0.0380 Uiso
O33 O 0.7571(4) 0.5525(5) 0.8170(3) 0.0380 Uiso
O34 O 0.6830(3) 0.5525(5) 0.7429(4) 0.0380 Uiso
O35 O 0.7429(4) 0.5525(5) 0.6830(3) 0.0380 Uiso
O36 O 0.8170(3) 0.5525(5) 0.7571(4) 0.0380 Uiso
C4 C 0.3925(9) 0.1765(5) 0.8235(5) 0.0380 Uiso
C5 C 0.3235(5) 0.1765(5) 0.8925(9) 0.0380 Uiso
C6 C 0.3235(5) 0.1075(9) 0.8235(5) 0.0380 Uiso
C7 C 0.1765(5) 0.3925(9) 0.8235(5) 0.0380 Uiso
C8 C 0.1075(9) 0.3235(5) 0.8235(5) 0.0380 Uiso
C9 C 0.6075(9) 0.3235(5) 0.6765(5) 0.0380 Uiso
C10 C 0.8235(5) 0.3235(5) 0.8925(9) 0.0380 Uiso
C11 C 0.6765(5) 0.3235(5) 0.6075(9) 0.0380 Uiso
C12 C 0.6765(5) 0.3925(9) 0.6765(5) 0.0380 Uiso
C13 C 0.8235(5) 0.3925(9) 0.8235(5) 0.0380 Uiso
C14 C 0.8925(9) 0.3235(5) 0.8235(5) 0.0380 Uiso
C15 C 0.2955(3) 0.2045(3) 0.9283(5) 0.0380 Uiso
C16 C 0.7955(3) 0.2955(3) 0.9283(5) 0.0380 Uiso
C17 C 0.5717(5) 0.2955(3) 0.7045(3) 0.0380 Uiso
C18 C 0.4283(5) 0.2045(3) 0.7955(3) 0.0380 Uiso
C19 C 0.2955(3) 0.0717(5) 0.7955(3) 0.0380 Uiso
C20 C 0.2045(3) 0.4283(5) 0.7955(3) 0.0380 Uiso
C21 C 0.0717(5) 0.2955(3) 0.7955(3) 0.0380 Uiso
C22 C 0.7045(3) 0.2955(3) 0.5717(5) 0.0380 Uiso
C23 C 0.7045(3) 0.4283(5) 0.7045(3) 0.0380 Uiso
C24 C 0.7955(3) 0.4283(5) 0.7955(3) 0.0380 Uiso
C25 C 0.9283(5) 0.2955(3) 0.7955(3) 0.0380 Uiso
C26 C 0.3630(8) 0.1969(9) 0.8630(8) 0.0380 Uiso
C27 C 0.3031(9) 0.1370(8) 0.8630(8) 0.0380 Uiso
C28 C 0.3630(8) 0.1370(8) 0.8031(9) 0.0380 Uiso
C29 C 0.1370(8) 0.3630(8) 0.8031(9) 0.0380 Uiso
C30 C 0.1370(8) 0.3031(9) 0.8630(8) 0.0380 Uiso
C31 C 0.6370(8) 0.3031(9) 0.6370(8) 0.0380 Uiso
C32 C 0.6370(8) 0.3630(8) 0.6969(9) 0.0380 Uiso
C33 C 0.8031(9) 0.3630(8) 0.8630(8) 0.0380 Uiso
C34 C 0.8630(8) 0.3031(9) 0.8630(8) 0.0380 Uiso
C35 C 0.6969(9) 0.3630(8) 0.6370(8) 0.0380 Uiso
C36 C 0.8630(8) 0.3630(8) 0.8031(9) 0.0380 Uiso
H1 H 0.23565 0.372498 0.872498 . .
H2 H 0.26435 0.127502 0.872498 . .
H3 H 0.372498 0.127502 0.76435 . .
H4 H 0.127502 0.26435 0.872498 . .
H5 H 0.627502 0.372498 0.73565 . .
H6 H 0.73565 0.372498 0.627502 . .
H7 H 0.372498 0.23565 0.872498 . .
H8 H 0.872498 0.26435 0.872498 . .
H9 H 0.127502 0.372498 0.76435 . .
H10 H 0.627502 0.26435 0.627502 . .
H11 H 0.872498 0.372498 0.76435 . .
H12 H 0.76435 0.372498 0.872498 . .
Ru7_2 Ru 0.2154 1.0000 0.7846 0.0380 Uiso
Ru8_2 Ru 0.2846 1.0000 0.7154 0.0380 Uiso
Ru11 Ru -0.0000 0.7154 0.7154 0.0380 Uiso
Ru12 Ru 0.0000 0.7846 0.7846 0.0380 Uiso
Ru7_3 Ru 0.7846 0.0000 0.7846 0.0380 Uiso
Ru8_3 Ru 0.7154 -0.0000 0.7154 0.0380 Uiso
Ru1_3 Ru 0.7846 0.7846 0.0000 0.0380 Uiso
Ru2_3 Ru 0.7154 0.7154 0.0000 0.0380 Uiso
Ru3_3 Ru 0.2846 0.7154 0.0000 0.0380 Uiso
Ru4_3 Ru 0.2154 0.7846 0.0000 0.0380 Uiso
O5_2 O 0.7571(4) 0.6830(3) 0.0525(5) 0.0380 Uiso
O6_2 O 0.8170(3) 0.7429(4) 0.0525(5) 0.0380 Uiso
O7_2 O 0.7429(4) 0.8170(3) 0.0525(5) 0.0380 Uiso
O8_2 O 0.6830(3) 0.7571(4) 0.0525(5) 0.0380 Uiso
Ru1_4 Ru 0.7846 0.7846 1.0000 0.0380 Uiso
O1_2 O 0.8170(3) 0.7429(4) 0.9475(5) 0.0380 Uiso
C1_2 C 0.8235(5) 0.6765(5) 0.8925(9) 0.0380 Uiso
C2_2 C 0.7955(3) 0.7045(3) 0.9283(5) 0.0380 Uiso
C3_2 C 0.8031(9) 0.6370(8) 0.8630(8) 0.0380 Uiso
Ru2_4 Ru 0.7154 0.7154 1.0000 0.0380 Uiso
Ru3_4 Ru 0.2846 0.7154 1.0000 0.0380 Uiso
Ru4_4 Ru 0.2154 0.7846 1.0000 0.0380 Uiso
Ru5_2 Ru 0.5000 0.7154 0.7846 0.0380 Uiso
Ru6_2 Ru 0.5000 0.7846 0.7154 0.0380 Uiso
Ru7_4 Ru 0.7846 1.0000 0.7846 0.0380 Uiso
Ru8_4 Ru 0.7154 1.0000 0.7154 0.0380 Uiso
Ru11_2 Ru 1.0000 0.7154 0.7154 0.0380 Uiso
Ru12_2 Ru 1.0000 0.7846 0.7846 0.0380 Uiso
Ru13_2 Ru 0.2154 0.7154 0.5000 0.0380 Uiso
Ru14_2 Ru 0.2846 0.7846 0.5000 0.0380 Uiso
O2_2 O 0.6830(3) 0.7571(4) 0.9475(5) 0.0380 Uiso
O3_2 O 0.7429(4) 0.8170(3) 0.9475(5) 0.0380 Uiso
O4_2 O 0.7571(4) 0.6830(3) 0.9475(5) 0.0380 Uiso
O9_2 O 0.2429(4) 0.6830(3) 0.9475(5) 0.0380 Uiso
O10_2 O 0.1830(3) 0.7429(4) 0.9475(5) 0.0380 Uiso
O11_2 O 0.4475(5) 0.7571(4) 0.8170(3) 0.0380 Uiso
O12_2 O 0.4475(5) 0.7429(4) 0.6830(3) 0.0380 Uiso
O13_2 O 0.4475(5) 0.6830(3) 0.7429(4) 0.0380 Uiso
O14_2 O 0.5525(5) 0.6830(3) 0.7429(4) 0.0380 Uiso
O15_2 O 0.5525(5) 0.7429(4) 0.6830(3) 0.0380 Uiso
O16_2 O 0.5525(5) 0.8170(3) 0.7571(4) 0.0380 Uiso
O17_2 O 0.5525(5) 0.7571(4) 0.8170(3) 0.0380 Uiso
O18_2 O 0.7429(4) 0.9475(5) 0.8170(3) 0.0380 Uiso
O19_2 O 0.6830(3) 0.9475(5) 0.7571(4) 0.0380 Uiso
O20_2 O 0.4475(5) 0.8170(3) 0.7571(4) 0.0380 Uiso
O23_2 O 0.9475(5) 0.6830(3) 0.7571(4) 0.0380 Uiso
O24_2 O 0.9475(5) 0.7429(4) 0.8170(3) 0.0380 Uiso
O25_2 O 0.2571(4) 0.6830(3) 0.5525(5) 0.0380 Uiso
O26_2 O 0.3170(3) 0.7429(4) 0.5525(5) 0.0380 Uiso
O27_2 O 0.3170(3) 0.5525(5) 0.7429(4) 0.0380 Uiso
O28_2 O 0.2571(4) 0.5525(5) 0.6830(3) 0.0380 Uiso
O29_2 O 0.1830(3) 0.5525(5) 0.7571(4) 0.0380 Uiso
O30_2 O 0.2429(4) 0.5525(5) 0.8170(3) 0.0380 Uiso
O31_2 O 0.0525(5) 0.7429(4) 0.8170(3) 0.0380 Uiso
O32_2 O 0.0525(5) 0.6830(3) 0.7571(4) 0.0380 Uiso
O34_2 O 0.3170(3) 0.4475(5) 0.7429(4) 0.0380 Uiso
O35_2 O 0.2571(4) 0.4475(5) 0.6830(3) 0.0380 Uiso
C4_2 C 0.6075(9) 0.8235(5) 0.8235(5) 0.0380 Uiso
C5_2 C 0.6765(5) 0.8235(5) 0.8925(9) 0.0380 Uiso
C6_2 C 0.6765(5) 0.8925(9) 0.8235(5) 0.0380 Uiso
C7_2 C 0.8235(5) 0.6075(9) 0.8235(5) 0.0380 Uiso
C8_2 C 0.8925(9) 0.6765(5) 0.8235(5) 0.0380 Uiso
C9_2 C 0.3925(9) 0.6765(5) 0.6765(5) 0.0380 Uiso
C10_2 C 0.1765(5) 0.6765(5) 0.8925(9) 0.0380 Uiso
C11_2 C 0.3235(5) 0.6765(5) 0.6075(9) 0.0380 Uiso
C12_2 C 0.3235(5) 0.6075(9) 0.6765(5) 0.0380 Uiso
C13_2 C 0.1765(5) 0.6075(9) 0.8235(5) 0.0380 Uiso
C14_2 C 0.1075(9) 0.6765(5) 0.8235(5) 0.0380 Uiso
C15_2 C 0.7045(3) 0.7955(3) 0.9283(5) 0.0380 Uiso
C16_2 C 0.2045(3) 0.7045(3) 0.9283(5) 0.0380 Uiso
C17_2 C 0.4283(5) 0.7045(3) 0.7045(3) 0.0380 Uiso
C18_2 C 0.5717(5) 0.7955(3) 0.7955(3) 0.0380 Uiso
C19_2 C 0.7045(3) 0.9283(5) 0.7955(3) 0.0380 Uiso
C20_2 C 0.7955(3) 0.5717(5) 0.7955(3) 0.0380 Uiso
C21_2 C 0.9283(5) 0.7045(3) 0.7955(3) 0.0380 Uiso
C22_2 C 0.2955(3) 0.7045(3) 0.5717(5) 0.0380 Uiso
C23_2 C 0.2955(3) 0.5717(5) 0.7045(3) 0.0380 Uiso
C24_2 C 0.2045(3) 0.5717(5) 0.7955(3) 0.0380 Uiso
C25_2 C 0.0717(5) 0.7045(3) 0.7955(3) 0.0380 Uiso
C26_2 C 0.6370(8) 0.8031(9) 0.8630(8) 0.0380 Uiso
C27_2 C 0.6969(9) 0.8630(8) 0.8630(8) 0.0380 Uiso
C28_2 C 0.6370(8) 0.8630(8) 0.8031(9) 0.0380 Uiso
C29_2 C 0.8630(8) 0.6370(8) 0.8031(9) 0.0380 Uiso
C30_2 C 0.8630(8) 0.6969(9) 0.8630(8) 0.0380 Uiso
C31_2 C 0.3630(8) 0.6969(9) 0.6370(8) 0.0380 Uiso
C32_2 C 0.3630(8) 0.6370(8) 0.6969(9) 0.0380 Uiso
C33_2 C 0.1969(9) 0.6370(8) 0.8630(8) 0.0380 Uiso
C34_2 C 0.1370(8) 0.6969(9) 0.8630(8) 0.0380 Uiso
C35_2 C 0.3031(9) 0.6370(8) 0.6370(8) 0.0380 Uiso
C36_2 C 0.1370(8) 0.6370(8) 0.8031(9) 0.0380 Uiso
H1_2 H 0.76435 0.627502 0.872498 . .
H2_2 H 0.73565 0.872498 0.872498 . .
H3_2 H 0.627502 0.872498 0.76435 . .
H4_2 H 0.872498 0.73565 0.872498 . .
H5_2 H 0.372498 0.627502 0.73565 . .
H6_2 H 0.26435 0.627502 0.627502 . .
H7_2 H 0.627502 0.76435 0.872498 . .
H8_2 H 0.127502 0.73565 0.872498 . .
H9_2 H 0.872498 0.627502 0.76435 . .
H10_2 H 0.372498 0.73565 0.627502 . .
H11_2 H 0.127502 0.627502 0.76435 . .
H12_2 H 0.23565 0.627502 0.872498 . .
Ru11_3 Ru -0.0000 0.2846 0.2846 0.0380 Uiso
Ru12_3 Ru 0.0000 0.2154 0.2154 0.0380 Uiso
O1_3 O 0.8170(3) 0.2571(4) 0.0525(5) 0.0380 Uiso
C1_3 C 0.8235(5) 0.3235(5) 0.1075(9) 0.0380 Uiso
C2_3 C 0.7955(3) 0.2955(3) 0.0717(5) 0.0380 Uiso
C3_3 C 0.8031(9) 0.3630(8) 0.1370(8) 0.0380 Uiso
Ru5_3 Ru 0.5000 0.2846 0.2154 0.0380 Uiso
Ru6_3 Ru 0.5000 0.2154 0.2846 0.0380 Uiso
Ru7_5 Ru 0.7846 0.0000 0.2154 0.0380 Uiso
Ru8_5 Ru 0.7154 0.0000 0.2846 0.0380 Uiso
Ru9_2 Ru 0.7846 0.5000 0.2846 0.0380 Uiso
Ru10_2 Ru 0.7154 0.5000 0.2154 0.0380 Uiso
Ru11_4 Ru 1.0000 0.2846 0.2846 0.0380 Uiso
Ru12_4 Ru 1.0000 0.2154 0.2154 0.0380 Uiso
Ru13_3 Ru 0.2154 0.2846 0.5000 0.0380 Uiso
Ru14_3 Ru 0.2846 0.2154 0.5000 0.0380 Uiso
Ru15_2 Ru 0.2846 0.5000 0.2154 0.0380 Uiso
Ru16_2 Ru 0.2154 0.5000 0.2846 0.0380 Uiso
O2_3 O 0.6830(3) 0.2429(4) 0.0525(5) 0.0380 Uiso
O3_3 O 0.7429(4) 0.1830(3) 0.0525(5) 0.0380 Uiso
O4_3 O 0.7571(4) 0.3170(3) 0.0525(5) 0.0380 Uiso
O11_3 O 0.4475(5) 0.2429(4) 0.1830(3) 0.0380 Uiso
O12_3 O 0.4475(5) 0.2571(4) 0.3170(3) 0.0380 Uiso
O13_3 O 0.4475(5) 0.3170(3) 0.2571(4) 0.0380 Uiso
O14_3 O 0.5525(5) 0.3170(3) 0.2571(4) 0.0380 Uiso
O15_3 O 0.5525(5) 0.2571(4) 0.3170(3) 0.0380 Uiso
O16_3 O 0.5525(5) 0.1830(3) 0.2429(4) 0.0380 Uiso
O17_3 O 0.5525(5) 0.2429(4) 0.1830(3) 0.0380 Uiso
O18_3 O 0.7429(4) 0.0525(5) 0.1830(3) 0.0380 Uiso
O19_3 O 0.6830(3) 0.0525(5) 0.2429(4) 0.0380 Uiso
O20_3 O 0.4475(5) 0.1830(3) 0.2429(4) 0.0380 Uiso
O21_2 O 0.7571(4) 0.4475(5) 0.1830(3) 0.0380 Uiso
O22_2 O 0.8170(3) 0.4475(5) 0.2429(4) 0.0380 Uiso
O23_3 O 0.9475(5) 0.3170(3) 0.2429(4) 0.0380 Uiso
O24_3 O 0.9475(5) 0.2571(4) 0.1830(3) 0.0380 Uiso
O25_3 O 0.2571(4) 0.3170(3) 0.4475(5) 0.0380 Uiso
O26_3 O 0.3170(3) 0.2571(4) 0.4475(5) 0.0380 Uiso
O27_3 O 0.3170(3) 0.4475(5) 0.2571(4) 0.0380 Uiso
O28_3 O 0.2571(4) 0.4475(5) 0.3170(3) 0.0380 Uiso
O29_3 O 0.1830(3) 0.4475(5) 0.2429(4) 0.0380 Uiso
O30_3 O 0.2429(4) 0.4475(5) 0.1830(3) 0.0380 Uiso
O31_3 O 0.0525(5) 0.2571(4) 0.1830(3) 0.0380 Uiso
O32_3 O 0.0525(5) 0.3170(3) 0.2429(4) 0.0380 Uiso
O33_2 O 0.2429(4) 0.5525(5) 0.1830(3) 0.0380 Uiso
O34_3 O 0.3170(3) 0.5525(5) 0.2571(4) 0.0380 Uiso
O35_3 O 0.2571(4) 0.5525(5) 0.3170(3) 0.0380 Uiso
O36_2 O 0.1830(3) 0.5525(5) 0.2429(4) 0.0380 Uiso
C4_3 C 0.6075(9) 0.1765(5) 0.1765(5) 0.0380 Uiso
C5_3 C 0.6765(5) 0.1765(5) 0.1075(9) 0.0380 Uiso
C6_3 C 0.6765(5) 0.1075(9) 0.1765(5) 0.0380 Uiso
C7_3 C 0.8235(5) 0.3925(9) 0.1765(5) 0.0380 Uiso
C8_3 C 0.8925(9) 0.3235(5) 0.1765(5) 0.0380 Uiso
C9_3 C 0.3925(9) 0.3235(5) 0.3235(5) 0.0380 Uiso
C10_3 C 0.1765(5) 0.3235(5) 0.1075(9) 0.0380 Uiso
C11_3 C 0.3235(5) 0.3235(5) 0.3925(9) 0.0380 Uiso
C12_3 C 0.3235(5) 0.3925(9) 0.3235(5) 0.0380 Uiso
C13_3 C 0.1765(5) 0.3925(9) 0.1765(5) 0.0380 Uiso
C14_3 C 0.1075(9) 0.3235(5) 0.1765(5) 0.0380 Uiso
C15_3 C 0.7045(3) 0.2045(3) 0.0717(5) 0.0380 Uiso
C16_3 C 0.2045(3) 0.2955(3) 0.0717(5) 0.0380 Uiso
C17_3 C 0.4283(5) 0.2955(3) 0.2955(3) 0.0380 Uiso
C18_3 C 0.5717(5) 0.2045(3) 0.2045(3) 0.0380 Uiso
C19_3 C 0.7045(3) 0.0717(5) 0.2045(3) 0.0380 Uiso
C20_3 C 0.7955(3) 0.4283(5) 0.2045(3) 0.0380 Uiso
C21_3 C 0.9283(5) 0.2955(3) 0.2045(3) 0.0380 Uiso
C22_3 C 0.2955(3) 0.2955(3) 0.4283(5) 0.0380 Uiso
C23_3 C 0.2955(3) 0.4283(5) 0.2955(3) 0.0380 Uiso
C24_3 C 0.2045(3) 0.4283(5) 0.2045(3) 0.0380 Uiso
C25_3 C 0.0717(5) 0.2955(3) 0.2045(3) 0.0380 Uiso
C26_3 C 0.6370(8) 0.1969(9) 0.1370(8) 0.0380 Uiso
C27_3 C 0.6969(9) 0.1370(8) 0.1370(8) 0.0380 Uiso
C28_3 C 0.6370(8) 0.1370(8) 0.1969(9) 0.0380 Uiso
C29_3 C 0.8630(8) 0.3630(8) 0.1969(9) 0.0380 Uiso
C30_3 C 0.8630(8) 0.3031(9) 0.1370(8) 0.0380 Uiso
C31_3 C 0.3630(8) 0.3031(9) 0.3630(8) 0.0380 Uiso
C32_3 C 0.3630(8) 0.3630(8) 0.3031(9) 0.0380 Uiso
C33_3 C 0.1969(9) 0.3630(8) 0.1370(8) 0.0380 Uiso
C34_3 C 0.1370(8) 0.3031(9) 0.1370(8) 0.0380 Uiso
C35_3 C 0.3031(9) 0.3630(8) 0.3630(8) 0.0380 Uiso
C36_3 C 0.1370(8) 0.3630(8) 0.1969(9) 0.0380 Uiso
H1_3 H 0.76435 0.372498 0.127502 . .
H2_3 H 0.73565 0.127502 0.127502 . .
H3_3 H 0.627502 0.127502 0.23565 . .
H4_3 H 0.872498 0.26435 0.127502 . .
H5_3 H 0.372498 0.372498 0.26435 . .
H6_3 H 0.26435 0.372498 0.372498 . .
H7_3 H 0.627502 0.23565 0.127502 . .
H8_3 H 0.127502 0.26435 0.127502 . .
H9_3 H 0.872498 0.372498 0.23565 . .
H10_3 H 0.372498 0.26435 0.372498 . .
H11_3 H 0.127502 0.372498 0.23565 . .
H12_3 H 0.23565 0.372498 0.127502 . .
O7_3 O 0.7429(4) 0.1830(3) 0.9475(5) 0.0380 Uiso
O8_3 O 0.6830(3) 0.2429(4) 0.9475(5) 0.0380 Uiso
Ru7_6 Ru 0.7846 1.0000 0.2154 0.0380 Uiso
Ru8_6 Ru 0.7154 1.0000 0.2846 0.0380 Uiso
Ru17_3 Ru -0.0000 0.7846 0.2154 0.0380 Uiso
Ru18_3 Ru -0.0000 0.7154 0.2846 0.0380 Uiso
Ru7_7 Ru 0.2154 0.0000 0.2154 0.0380 Uiso
Ru8_7 Ru 0.2846 0.0000 0.2846 0.0380 Uiso
O1_4 O 0.1830(3) 0.7429(4) 0.0525(5) 0.0380 Uiso
C1_4 C 0.1765(5) 0.6765(5) 0.1075(9) 0.0380 Uiso
C2_4 C 0.2045(3) 0.7045(3) 0.0717(5) 0.0380 Uiso
C3_4 C 0.1969(9) 0.6370(8) 0.1370(8) 0.0380 Uiso
Ru5_4 Ru 0.5000 0.7154 0.2154 0.0380 Uiso
Ru6_4 Ru 0.5000 0.7846 0.2846 0.0380 Uiso
Ru7_8 Ru 0.2154 1.0000 0.2154 0.0380 Uiso
Ru8_8 Ru 0.2846 1.0000 0.2846 0.0380 Uiso
Ru13_4 Ru 0.7846 0.7154 0.5000 0.0380 Uiso
Ru14_4 Ru 0.7154 0.7846 0.5000 0.0380 Uiso
Ru17_4 Ru 1.0000 0.7846 0.2154 0.0380 Uiso
Ru18_4 Ru 1.0000 0.7154 0.2846 0.0380 Uiso
O2_4 O 0.3170(3) 0.7571(4) 0.0525(5) 0.0380 Uiso
O3_4 O 0.2571(4) 0.8170(3) 0.0525(5) 0.0380 Uiso
O4_4 O 0.2429(4) 0.6830(3) 0.0525(5) 0.0380 Uiso
O11_4 O 0.5525(5) 0.7571(4) 0.1830(3) 0.0380 Uiso
O12_4 O 0.5525(5) 0.7429(4) 0.3170(3) 0.0380 Uiso
O13_4 O 0.5525(5) 0.6830(3) 0.2571(4) 0.0380 Uiso
O14_4 O 0.4475(5) 0.6830(3) 0.2571(4) 0.0380 Uiso
O15_4 O 0.4475(5) 0.7429(4) 0.3170(3) 0.0380 Uiso
O16_4 O 0.4475(5) 0.8170(3) 0.2429(4) 0.0380 Uiso
O17_4 O 0.4475(5) 0.7571(4) 0.1830(3) 0.0380 Uiso
O18_4 O 0.2571(4) 0.9475(5) 0.1830(3) 0.0380 Uiso
O19_4 O 0.3170(3) 0.9475(5) 0.2429(4) 0.0380 Uiso
O20_4 O 0.5525(5) 0.8170(3) 0.2429(4) 0.0380 Uiso
O23_4 O 0.0525(5) 0.6830(3) 0.2429(4) 0.0380 Uiso
O24_4 O 0.0525(5) 0.7429(4) 0.1830(3) 0.0380 Uiso
O25_4 O 0.7429(4) 0.6830(3) 0.4475(5) 0.0380 Uiso
O26_4 O 0.6830(3) 0.7429(4) 0.4475(5) 0.0380 Uiso
O27_4 O 0.6830(3) 0.5525(5) 0.2571(4) 0.0380 Uiso
O28_4 O 0.7429(4) 0.5525(5) 0.3170(3) 0.0380 Uiso
O29_4 O 0.8170(3) 0.5525(5) 0.2429(4) 0.0380 Uiso
O30_4 O 0.7571(4) 0.5525(5) 0.1830(3) 0.0380 Uiso
O31_4 O 0.9475(5) 0.7429(4) 0.1830(3) 0.0380 Uiso
O32_4 O 0.9475(5) 0.6830(3) 0.2429(4) 0.0380 Uiso
O34_4 O 0.6830(3) 0.4475(5) 0.2571(4) 0.0380 Uiso
O35_4 O 0.7429(4) 0.4475(5) 0.3170(3) 0.0380 Uiso
C4_4 C 0.3925(9) 0.8235(5) 0.1765(5) 0.0380 Uiso
C5_4 C 0.3235(5) 0.8235(5) 0.1075(9) 0.0380 Uiso
C6_4 C 0.3235(5) 0.8925(9) 0.1765(5) 0.0380 Uiso
C7_4 C 0.1765(5) 0.6075(9) 0.1765(5) 0.0380 Uiso
C8_4 C 0.1075(9) 0.6765(5) 0.1765(5) 0.0380 Uiso
C9_4 C 0.6075(9) 0.6765(5) 0.3235(5) 0.0380 Uiso
C10_4 C 0.8235(5) 0.6765(5) 0.1075(9) 0.0380 Uiso
C11_4 C 0.6765(5) 0.6765(5) 0.3925(9) 0.0380 Uiso
C12_4 C 0.6765(5) 0.6075(9) 0.3235(5) 0.0380 Uiso
C13_4 C 0.8235(5) 0.6075(9) 0.1765(5) 0.0380 Uiso
C14_4 C 0.8925(9) 0.6765(5) 0.1765(5) 0.0380 Uiso
C15_4 C 0.2955(3) 0.7955(3) 0.0717(5) 0.0380 Uiso
C16_4 C 0.7955(3) 0.7045(3) 0.0717(5) 0.0380 Uiso
C17_4 C 0.5717(5) 0.7045(3) 0.2955(3) 0.0380 Uiso
C18_4 C 0.4283(5) 0.7955(3) 0.2045(3) 0.0380 Uiso
C19_4 C 0.2955(3) 0.9283(5) 0.2045(3) 0.0380 Uiso
C20_4 C 0.2045(3) 0.5717(5) 0.2045(3) 0.0380 Uiso
C21_4 C 0.0717(5) 0.7045(3) 0.2045(3) 0.0380 Uiso
C22_4 C 0.7045(3) 0.7045(3) 0.4283(5) 0.0380 Uiso
C23_4 C 0.7045(3) 0.5717(5) 0.2955(3) 0.0380 Uiso
C24_4 C 0.7955(3) 0.5717(5) 0.2045(3) 0.0380 Uiso
C25_4 C 0.9283(5) 0.7045(3) 0.2045(3) 0.0380 Uiso
C26_4 C 0.3630(8) 0.8031(9) 0.1370(8) 0.0380 Uiso
C27_4 C 0.3031(9) 0.8630(8) 0.1370(8) 0.0380 Uiso
C28_4 C 0.3630(8) 0.8630(8) 0.1969(9) 0.0380 Uiso
C29_4 C 0.1370(8) 0.6370(8) 0.1969(9) 0.0380 Uiso
C30_4 C 0.1370(8) 0.6969(9) 0.1370(8) 0.0380 Uiso
C31_4 C 0.6370(8) 0.6969(9) 0.3630(8) 0.0380 Uiso
C32_4 C 0.6370(8) 0.6370(8) 0.3031(9) 0.0380 Uiso
C33_4 C 0.8031(9) 0.6370(8) 0.1370(8) 0.0380 Uiso
C34_4 C 0.8630(8) 0.6969(9) 0.1370(8) 0.0380 Uiso
C35_4 C 0.6969(9) 0.6370(8) 0.3630(8) 0.0380 Uiso
C36_4 C 0.8630(8) 0.6370(8) 0.1969(9) 0.0380 Uiso
H1_4 H 0.23565 0.627502 0.127502 . .
H2_4 H 0.26435 0.872498 0.127502 . .
H3_4 H 0.372498 0.872498 0.23565 . .
H4_4 H 0.127502 0.73565 0.127502 . .
H5_4 H 0.627502 0.627502 0.26435 . .
H6_4 H 0.73565 0.627502 0.372498 . .
H7_4 H 0.372498 0.76435 0.127502 . .
H8_4 H 0.872498 0.73565 0.127502 . .
H9_4 H 0.127502 0.627502 0.23565 . .
H10_4 H 0.627502 0.73565 0.372498 . .
H11_4 H 0.872498 0.627502 0.23565 . .
H12_4 H 0.76435 0.627502 0.127502 . .
O7_4 O 0.2571(4) 0.8170(3) 0.9475(5) 0.0380 Uiso
O8_4 O 0.3170(3) 0.7571(4) 0.9475(5) 0.0380 Uiso
O5_3 O 0.0525(5) 0.2429(4) 0.3170(3) 0.0380 Uiso
O6_3 O 0.0525(5) 0.1830(3) 0.2571(4) 0.0380 Uiso
O1_5 O 0.9475(5) 0.1830(3) 0.2571(4) 0.0380 Uiso
C1_5 C 0.8925(9) 0.1765(5) 0.3235(5) 0.0380 Uiso
C2_5 C 0.9283(5) 0.2045(3) 0.2955(3) 0.0380 Uiso
C3_5 C 0.8630(8) 0.1969(9) 0.3630(8) 0.0380 Uiso
O4_5 O 0.9475(5) 0.2429(4) 0.3170(3) 0.0380 Uiso
O9_3 O 0.9475(5) 0.7571(4) 0.3170(3) 0.0380 Uiso
O10_3 O 0.9475(5) 0.8170(3) 0.2571(4) 0.0380 Uiso
O21_3 O 0.8170(3) 0.2429(4) 0.4475(5) 0.0380 Uiso
O22_3 O 0.7571(4) 0.1830(3) 0.4475(5) 0.0380 Uiso
O23_5 O 0.7571(4) 0.0525(5) 0.3170(3) 0.0380 Uiso
O24_5 O 0.8170(3) 0.0525(5) 0.2571(4) 0.0380 Uiso
O29_5 O 0.7571(4) 0.8170(3) 0.4475(5) 0.0380 Uiso
O30_5 O 0.8170(3) 0.7571(4) 0.4475(5) 0.0380 Uiso
O31_5 O 0.8170(3) 0.9475(5) 0.2571(4) 0.0380 Uiso
O32_5 O 0.7571(4) 0.9475(5) 0.3170(3) 0.0380 Uiso
O33_3 O 0.8170(3) 0.7571(4) 0.5525(5) 0.0380 Uiso
O34_5 O 0.7429(4) 0.6830(3) 0.5525(5) 0.0380 Uiso
O35_5 O 0.6830(3) 0.7429(4) 0.5525(5) 0.0380 Uiso
O36_3 O 0.7571(4) 0.8170(3) 0.5525(5) 0.0380 Uiso
C7_5 C 0.8235(5) 0.1765(5) 0.3925(9) 0.0380 Uiso
C8_5 C 0.8235(5) 0.1075(9) 0.3235(5) 0.0380 Uiso
C10_5 C 0.8925(9) 0.8235(5) 0.3235(5) 0.0380 Uiso
C13_5 C 0.8235(5) 0.8235(5) 0.3925(9) 0.0380 Uiso
C14_5 C 0.8235(5) 0.8925(9) 0.3235(5) 0.0380 Uiso
C16_5 C 0.9283(5) 0.7955(3) 0.2955(3) 0.0380 Uiso
C20_5 C 0.7955(3) 0.2045(3) 0.4283(5) 0.0380 Uiso
C21_5 C 0.7955(3) 0.0717(5) 0.2955(3) 0.0380 Uiso
C24_5 C 0.7955(3) 0.7955(3) 0.4283(5) 0.0380 Uiso
C25_5 C 0.7955(3) 0.9283(5) 0.2955(3) 0.0380 Uiso
C29_5 C 0.8031(9) 0.1370(8) 0.3630(8) 0.0380 Uiso
C30_5 C 0.8630(8) 0.1370(8) 0.3031(9) 0.0380 Uiso
C33_5 C 0.8630(8) 0.8031(9) 0.3630(8) 0.0380 Uiso
C34_5 C 0.8630(8) 0.8630(8) 0.3031(9) 0.0380 Uiso
C36_5 C 0.8031(9) 0.8630(8) 0.3630(8) 0.0380 Uiso
H1_5 H 0.872498 0.23565 0.372498 . .
H4_5 H 0.872498 0.127502 0.26435 . .
H8_5 H 0.872498 0.872498 0.26435 . .
H9_5 H 0.76435 0.127502 0.372498 . .
H11_5 H 0.76435 0.872498 0.372498 . .
H12_5 H 0.872498 0.76435 0.372498 . .
O5_4 O 0.0525(5) 0.7571(4) 0.6830(3) 0.0380 Uiso
O6_4 O 0.0525(5) 0.8170(3) 0.7429(4) 0.0380 Uiso
O1_6 O 0.9475(5) 0.8170(3) 0.7429(4) 0.0380 Uiso
C1_6 C 0.8925(9) 0.8235(5) 0.6765(5) 0.0380 Uiso
C2_6 C 0.9283(5) 0.7955(3) 0.7045(3) 0.0380 Uiso
C3_6 C 0.8630(8) 0.8031(9) 0.6370(8) 0.0380 Uiso
O4_6 O 0.9475(5) 0.7571(4) 0.6830(3) 0.0380 Uiso
O9_4 O 0.9475(5) 0.2429(4) 0.6830(3) 0.0380 Uiso
O10_4 O 0.9475(5) 0.1830(3) 0.7429(4) 0.0380 Uiso
O23_6 O 0.7571(4) 0.9475(5) 0.6830(3) 0.0380 Uiso
O24_6 O 0.8170(3) 0.9475(5) 0.7429(4) 0.0380 Uiso
O29_6 O 0.7571(4) 0.1830(3) 0.5525(5) 0.0380 Uiso
O30_6 O 0.8170(3) 0.2429(4) 0.5525(5) 0.0380 Uiso
O31_6 O 0.8170(3) 0.0525(5) 0.7429(4) 0.0380 Uiso
O32_6 O 0.7571(4) 0.0525(5) 0.6830(3) 0.0380 Uiso
O34_6 O 0.7429(4) 0.3170(3) 0.4475(5) 0.0380 Uiso
O35_6 O 0.6830(3) 0.2571(4) 0.4475(5) 0.0380 Uiso
C7_6 C 0.8235(5) 0.8235(5) 0.6075(9) 0.0380 Uiso
C8_6 C 0.8235(5) 0.8925(9) 0.6765(5) 0.0380 Uiso
C10_6 C 0.8925(9) 0.1765(5) 0.6765(5) 0.0380 Uiso
C13_6 C 0.8235(5) 0.1765(5) 0.6075(9) 0.0380 Uiso
C14_6 C 0.8235(5) 0.1075(9) 0.6765(5) 0.0380 Uiso
C16_6 C 0.9283(5) 0.2045(3) 0.7045(3) 0.0380 Uiso
C20_6 C 0.7955(3) 0.7955(3) 0.5717(5) 0.0380 Uiso
C21_6 C 0.7955(3) 0.9283(5) 0.7045(3) 0.0380 Uiso
C24_6 C 0.7955(3) 0.2045(3) 0.5717(5) 0.0380 Uiso
C25_6 C 0.7955(3) 0.0717(5) 0.7045(3) 0.0380 Uiso
C29_6 C 0.8031(9) 0.8630(8) 0.6370(8) 0.0380 Uiso
C30_6 C 0.8630(8) 0.8630(8) 0.6969(9) 0.0380 Uiso
C33_6 C 0.8630(8) 0.1969(9) 0.6370(8) 0.0380 Uiso
C34_6 C 0.8630(8) 0.1370(8) 0.6969(9) 0.0380 Uiso
C36_6 C 0.8031(9) 0.1370(8) 0.6370(8) 0.0380 Uiso
H1_6 H 0.872498 0.76435 0.627502 . .
H4_6 H 0.872498 0.872498 0.73565 . .
H8_6 H 0.872498 0.127502 0.73565 . .
H9_6 H 0.76435 0.872498 0.627502 . .
H11_6 H 0.76435 0.127502 0.627502 . .
H12_6 H 0.872498 0.23565 0.627502 . .
O1_7 O 0.0525(5) 0.8170(3) 0.2571(4) 0.0380 Uiso
C1_7 C 0.1075(9) 0.8235(5) 0.3235(5) 0.0380 Uiso
C2_7 C 0.0717(5) 0.7955(3) 0.2955(3) 0.0380 Uiso
C3_7 C 0.1370(8) 0.8031(9) 0.3630(8) 0.0380 Uiso
O4_7 O 0.0525(5) 0.7571(4) 0.3170(3) 0.0380 Uiso
O21_4 O 0.1830(3) 0.7571(4) 0.4475(5) 0.0380 Uiso
O22_4 O 0.2429(4) 0.8170(3) 0.4475(5) 0.0380 Uiso
O23_7 O 0.2429(4) 0.9475(5) 0.3170(3) 0.0380 Uiso
O24_7 O 0.1830(3) 0.9475(5) 0.2571(4) 0.0380 Uiso
O29_7 O 0.2429(4) 0.1830(3) 0.4475(5) 0.0380 Uiso
O30_7 O 0.1830(3) 0.2429(4) 0.4475(5) 0.0380 Uiso
O31_7 O 0.1830(3) 0.0525(5) 0.2571(4) 0.0380 Uiso
O32_7 O 0.2429(4) 0.0525(5) 0.3170(3) 0.0380 Uiso
O33_4 O 0.1830(3) 0.2429(4) 0.5525(5) 0.0380 Uiso
O34_7 O 0.2571(4) 0.3170(3) 0.5525(5) 0.0380 Uiso
O35_7 O 0.3170(3) 0.2571(4) 0.5525(5) 0.0380 Uiso
O36_4 O 0.2429(4) 0.1830(3) 0.5525(5) 0.0380 Uiso
C7_7 C 0.1765(5) 0.8235(5) 0.3925(9) 0.0380 Uiso
C8_7 C 0.1765(5) 0.8925(9) 0.3235(5) 0.0380 Uiso
C10_7 C 0.1075(9) 0.1765(5) 0.3235(5) 0.0380 Uiso
C13_7 C 0.1765(5) 0.1765(5) 0.3925(9) 0.0380 Uiso
C14_7 C 0.1765(5) 0.1075(9) 0.3235(5) 0.0380 Uiso
C16_7 C 0.0717(5) 0.2045(3) 0.2955(3) 0.0380 Uiso
C20_7 C 0.2045(3) 0.7955(3) 0.4283(5) 0.0380 Uiso
C21_7 C 0.2045(3) 0.9283(5) 0.2955(3) 0.0380 Uiso
C24_7 C 0.2045(3) 0.2045(3) 0.4283(5) 0.0380 Uiso
C25_7 C 0.2045(3) 0.0717(5) 0.2955(3) 0.0380 Uiso
C29_7 C 0.1969(9) 0.8630(8) 0.3630(8) 0.0380 Uiso
C30_7 C 0.1370(8) 0.8630(8) 0.3031(9) 0.0380 Uiso
C33_7 C 0.1370(8) 0.1969(9) 0.3630(8) 0.0380 Uiso
C34_7 C 0.1370(8) 0.1370(8) 0.3031(9) 0.0380 Uiso
C36_7 C 0.1969(9) 0.1370(8) 0.3630(8) 0.0380 Uiso
H1_7 H 0.127502 0.76435 0.372498 . .
H4_7 H 0.127502 0.872498 0.26435 . .
H8_7 H 0.127502 0.127502 0.26435 . .
H9_7 H 0.23565 0.872498 0.372498 . .
H11_7 H 0.23565 0.127502 0.372498 . .
H12_7 H 0.127502 0.23565 0.372498 . .
O1_8 O 0.0525(5) 0.1830(3) 0.7429(4) 0.0380 Uiso
C1_8 C 0.1075(9) 0.1765(5) 0.6765(5) 0.0380 Uiso
C2_8 C 0.0717(5) 0.2045(3) 0.7045(3) 0.0380 Uiso
C3_8 C 0.1370(8) 0.1969(9) 0.6370(8) 0.0380 Uiso
O4_8 O 0.0525(5) 0.2429(4) 0.6830(3) 0.0380 Uiso
O23_8 O 0.2429(4) 0.0525(5) 0.6830(3) 0.0380 Uiso
O24_8 O 0.1830(3) 0.0525(5) 0.7429(4) 0.0380 Uiso
O29_8 O 0.2429(4) 0.8170(3) 0.5525(5) 0.0380 Uiso
O30_8 O 0.1830(3) 0.7571(4) 0.5525(5) 0.0380 Uiso
O31_8 O 0.1830(3) 0.9475(5) 0.7429(4) 0.0380 Uiso
O32_8 O 0.2429(4) 0.9475(5) 0.6830(3) 0.0380 Uiso
O34_8 O 0.2571(4) 0.6830(3) 0.4475(5) 0.0380 Uiso
O35_8 O 0.3170(3) 0.7429(4) 0.4475(5) 0.0380 Uiso
C7_8 C 0.1765(5) 0.1765(5) 0.6075(9) 0.0380 Uiso
C8_8 C 0.1765(5) 0.1075(9) 0.6765(5) 0.0380 Uiso
C10_8 C 0.1075(9) 0.8235(5) 0.6765(5) 0.0380 Uiso
C13_8 C 0.1765(5) 0.8235(5) 0.6075(9) 0.0380 Uiso
C14_8 C 0.1765(5) 0.8925(9) 0.6765(5) 0.0380 Uiso
C16_8 C 0.0717(5) 0.7955(3) 0.7045(3) 0.0380 Uiso
C20_8 C 0.2045(3) 0.2045(3) 0.5717(5) 0.0380 Uiso
C21_8 C 0.2045(3) 0.0717(5) 0.7045(3) 0.0380 Uiso
C24_8 C 0.2045(3) 0.7955(3) 0.5717(5) 0.0380 Uiso
C25_8 C 0.2045(3) 0.9283(5) 0.7045(3) 0.0380 Uiso
C29_8 C 0.1969(9) 0.1370(8) 0.6370(8) 0.0380 Uiso
C30_8 C 0.1370(8) 0.1370(8) 0.6969(9) 0.0380 Uiso
C33_8 C 0.1370(8) 0.8031(9) 0.6370(8) 0.0380 Uiso
C34_8 C 0.1370(8) 0.8630(8) 0.6969(9) 0.0380 Uiso
C36_8 C 0.1969(9) 0.8630(8) 0.6370(8) 0.0380 Uiso
H1_8 H 0.127502 0.23565 0.627502 . .
H4_8 H 0.127502 0.127502 0.73565 . .
H8_8 H 0.127502 0.872498 0.73565 . .
H9_8 H 0.23565 0.127502 0.627502 . .
H11_8 H 0.23565 0.872498 0.627502 . .
H12_8 H 0.127502 0.76435 0.627502 . .
O5_5 O 0.3170(3) 0.0525(5) 0.2429(4) 0.0380 Uiso
O6_5 O 0.2571(4) 0.0525(5) 0.1830(3) 0.0380 Uiso
O9_5 O 0.3170(3) 0.9475(5) 0.7571(4) 0.0380 Uiso
O10_5 O 0.2571(4) 0.9475(5) 0.8170(3) 0.0380 Uiso
C10_9 C 0.3235(5) 0.8925(9) 0.8235(5) 0.0380 Uiso
C13_9 C 0.3925(9) 0.8235(5) 0.8235(5) 0.0380 Uiso
C14_9 C 0.3235(5) 0.8235(5) 0.8925(9) 0.0380 Uiso
C16_9 C 0.2955(3) 0.9283(5) 0.7955(3) 0.0380 Uiso
C24_9 C 0.4283(5) 0.7955(3) 0.7955(3) 0.0380 Uiso
C25_9 C 0.2955(3) 0.7955(3) 0.9283(5) 0.0380 Uiso
C33_9 C 0.3630(8) 0.8630(8) 0.8031(9) 0.0380 Uiso
C34_9 C 0.3031(9) 0.8630(8) 0.8630(8) 0.0380 Uiso
C36_9 C 0.3630(8) 0.8031(9) 0.8630(8) 0.0380 Uiso
H8_9 H 0.26435 0.872498 0.872498 . .
H11_9 H 0.372498 0.76435 0.872498 . .
H12_9 H 0.372498 0.872498 0.76435 . .
O5_6 O 0.6830(3) 0.0525(5) 0.7571(4) 0.0380 Uiso
O6_6 O 0.7429(4) 0.0525(5) 0.8170(3) 0.0380 Uiso
O9_6 O 0.6830(3) 0.9475(5) 0.2429(4) 0.0380 Uiso
O10_6 O 0.7429(4) 0.9475(5) 0.1830(3) 0.0380 Uiso
C10_10 C 0.6765(5) 0.8925(9) 0.1765(5) 0.0380 Uiso
C13_10 C 0.6075(9) 0.8235(5) 0.1765(5) 0.0380 Uiso
C14_10 C 0.6765(5) 0.8235(5) 0.1075(9) 0.0380 Uiso
C16_10 C 0.7045(3) 0.9283(5) 0.2045(3) 0.0380 Uiso
C24_10 C 0.5717(5) 0.7955(3) 0.2045(3) 0.0380 Uiso
C25_10 C 0.7045(3) 0.7955(3) 0.0717(5) 0.0380 Uiso
C33_10 C 0.6370(8) 0.8630(8) 0.1969(9) 0.0380 Uiso
C34_10 C 0.6969(9) 0.8630(8) 0.1370(8) 0.0380 Uiso
C36_10 C 0.6370(8) 0.8031(9) 0.1370(8) 0.0380 Uiso
H8_10 H 0.73565 0.872498 0.127502 . .
H11_10 H 0.627502 0.76435 0.127502 . .
H12_10 H 0.627502 0.872498 0.23565 . .
C10_11 C 0.3235(5) 0.1075(9) 0.1765(5) 0.0380 Uiso
C13_11 C 0.3925(9) 0.1765(5) 0.1765(5) 0.0380 Uiso
C14_11 C 0.3235(5) 0.1765(5) 0.1075(9) 0.0380 Uiso
C16_11 C 0.2955(3) 0.0717(5) 0.2045(3) 0.0380 Uiso
C24_11 C 0.4283(5) 0.2045(3) 0.2045(3) 0.0380 Uiso
C25_11 C 0.2955(3) 0.2045(3) 0.0717(5) 0.0380 Uiso
C33_11 C 0.3630(8) 0.1370(8) 0.1969(9) 0.0380 Uiso
C34_11 C 0.3031(9) 0.1370(8) 0.1370(8) 0.0380 Uiso
C36_11 C 0.3630(8) 0.1969(9) 0.1370(8) 0.0380 Uiso
H8_11 H 0.26435 0.127502 0.127502 . .
H11_11 H 0.372498 0.23565 0.127502 . .
H12_11 H 0.372498 0.127502 0.23565 . .
C10_12 C 0.6765(5) 0.1075(9) 0.8235(5) 0.0380 Uiso
C13_12 C 0.6075(9) 0.1765(5) 0.8235(5) 0.0380 Uiso
C14_12 C 0.6765(5) 0.1765(5) 0.8925(9) 0.0380 Uiso
C16_12 C 0.7045(3) 0.0717(5) 0.7955(3) 0.0380 Uiso
C24_12 C 0.5717(5) 0.2045(3) 0.7955(3) 0.0380 Uiso
C25_12 C 0.7045(3) 0.2045(3) 0.9283(5) 0.0380 Uiso
C33_12 C 0.6370(8) 0.1370(8) 0.8031(9) 0.0380 Uiso
C34_12 C 0.6969(9) 0.1370(8) 0.8630(8) 0.0380 Uiso
C36_12 C 0.6370(8) 0.1969(9) 0.8630(8) 0.0380 Uiso
H8_12 H 0.73565 0.127502 0.872498 . .
H11_12 H 0.627502 0.23565 0.872498 . .
H12_12 H 0.627502 0.127502 0.76435 . .
C9_5 C 0.3235(5) 0.6075(9) 0.3235(5) 0.0380 Uiso
C11_5 C 0.3235(5) 0.6765(5) 0.3925(9) 0.0380 Uiso
C12_5 C 0.3925(9) 0.6765(5) 0.3235(5) 0.0380 Uiso
C17_5 C 0.2955(3) 0.5717(5) 0.2955(3) 0.0380 Uiso
C22_5 C 0.2955(3) 0.7045(3) 0.4283(5) 0.0380 Uiso
C23_5 C 0.4283(5) 0.7045(3) 0.2955(3) 0.0380 Uiso
C31_5 C 0.3031(9) 0.6370(8) 0.3630(8) 0.0380 Uiso
C32_5 C 0.3630(8) 0.6370(8) 0.3031(9) 0.0380 Uiso
C35_5 C 0.3630(8) 0.6969(9) 0.3630(8) 0.0380 Uiso
H5_5 H 0.372498 0.627502 0.26435 . .
H6_5 H 0.372498 0.73565 0.372498 . .
H10_5 H 0.26435 0.627502 0.372498 . .
C9_6 C 0.6765(5) 0.3925(9) 0.3235(5) 0.0380 Uiso
C11_6 C 0.6765(5) 0.3235(5) 0.3925(9) 0.0380 Uiso
C12_6 C 0.6075(9) 0.3235(5) 0.3235(5) 0.0380 Uiso
C17_6 C 0.7045(3) 0.4283(5) 0.2955(3) 0.0380 Uiso
C22_6 C 0.7045(3) 0.2955(3) 0.4283(5) 0.0380 Uiso
C23_6 C 0.5717(5) 0.2955(3) 0.2955(3) 0.0380 Uiso
C31_6 C 0.6969(9) 0.3630(8) 0.3630(8) 0.0380 Uiso
C32_6 C 0.6370(8) 0.3630(8) 0.3031(9) 0.0380 Uiso
C35_6 C 0.6370(8) 0.3031(9) 0.3630(8) 0.0380 Uiso
H5_6 H 0.627502 0.372498 0.26435 . .
H6_6 H 0.627502 0.26435 0.372498 . .
H10_6 H 0.73565 0.372498 0.372498 . .
C9_7 C 0.3235(5) 0.3925(9) 0.6765(5) 0.0380 Uiso
C11_7 C 0.3235(5) 0.3235(5) 0.6075(9) 0.0380 Uiso
C12_7 C 0.3925(9) 0.3235(5) 0.6765(5) 0.0380 Uiso
C17_7 C 0.2955(3) 0.4283(5) 0.7045(3) 0.0380 Uiso
C22_7 C 0.2955(3) 0.2955(3) 0.5717(5) 0.0380 Uiso
C23_7 C 0.4283(5) 0.2955(3) 0.7045(3) 0.0380 Uiso
C31_7 C 0.3031(9) 0.3630(8) 0.6370(8) 0.0380 Uiso
C32_7 C 0.3630(8) 0.3630(8) 0.6969(9) 0.0380 Uiso
C35_7 C 0.3630(8) 0.3031(9) 0.6370(8) 0.0380 Uiso
H5_7 H 0.372498 0.372498 0.73565 . .
H6_7 H 0.372498 0.26435 0.627502 . .
H10_7 H 0.26435 0.372498 0.627502 . .
C9_8 C 0.6765(5) 0.6075(9) 0.6765(5) 0.0380 Uiso
C11_8 C 0.6765(5) 0.6765(5) 0.6075(9) 0.0380 Uiso
C12_8 C 0.6075(9) 0.6765(5) 0.6765(5) 0.0380 Uiso
C17_8 C 0.7045(3) 0.5717(5) 0.7045(3) 0.0380 Uiso
C22_8 C 0.7045(3) 0.7045(3) 0.5717(5) 0.0380 Uiso
C23_8 C 0.5717(5) 0.7045(3) 0.7045(3) 0.0380 Uiso
C31_8 C 0.6969(9) 0.6370(8) 0.6370(8) 0.0380 Uiso
C32_8 C 0.6370(8) 0.6370(8) 0.6969(9) 0.0380 Uiso
C35_8 C 0.6370(8) 0.6969(9) 0.6370(8) 0.0380 Uiso
H5_8 H 0.627502 0.627502 0.73565 . .
H6_8 H 0.627502 0.73565 0.627502 . .
H10_8 H 0.73565 0.627502 0.627502 . .
loop_
_geom_bond_atom_site_label_1
_geom_bond_atom_site_label_2
_geom_bond_site_symmetry_1
_geom_bond_site_symmetry_2
Ru17 Ru18 1_555 1_555
Ru2 Ru1 1_555 1_555
Ru3 Ru4 1_555 1_555
O5 Ru2 1_555 1_555
O6 Ru1 1_555 1_555
O7 Ru1 1_555 1_555
O8 Ru2 1_555 1_555
Ru1_2 O1 1_555 1_555
O1 C2 1_555 1_555
C1 C2 1_555 1_555
C2 O4 1_555 1_555
C3 C1 1_555 1_555
Ru2_2 Ru1_2 1_555 1_555
Ru3_2 Ru4_2 1_555 1_555
Ru4_2 O10 1_555 1_555
Ru5 Ru6 1_555 1_555
Ru6 O12 1_555 1_555
Ru7 Ru8 1_555 1_555
Ru8 O19 1_555 1_555
Ru9 Ru10 1_555 1_555
Ru10 O21 1_555 1_555
Ru17 O24 1_555 1_555
Ru13 Ru14 1_555 1_555
Ru14 O26 1_555 1_555
Ru15 Ru16 1_555 1_555
Ru16 O28 1_555 1_555
Ru17_2 Ru18_2 1_555 1_555
Ru18_2 O32 1_555 1_555
O2 Ru2_2 1_555 1_555
O3 Ru1_2 1_555 1_555
O4 Ru2_2 1_555 1_555
O9 Ru3_2 1_555 1_555
O10 C16 1_555 1_555
O11 Ru5 1_555 1_555
O12 C17 1_555 1_555
O13 Ru5 1_555 1_555
O14 Ru5 1_555 1_555
O15 Ru6 1_555 1_555
O16 Ru6 1_555 1_555
O17 Ru5 1_555 1_555
O18 Ru7 1_555 1_555
O19 C19 1_555 1_555
O20 Ru6 1_555 1_555
O21 C20 1_555 1_555
O22 Ru9 1_555 1_555
O23 Ru18 1_555 1_555
O24 C21 1_555 1_555
O25 Ru13 1_555 1_555
O26 C22 1_555 1_555
O27 Ru15 1_555 1_555
O28 C23 1_555 1_555
O29 Ru16 1_555 1_555
O30 Ru15 1_555 1_555
O31 Ru17_2 1_555 1_555
O32 C25 1_555 1_555
O33 Ru15 1_555 1_555
O34 Ru15 1_555 1_555
O35 Ru16 1_555 1_555
O36 Ru16 1_555 1_555
C4 C18 1_555 1_555
C5 C15 1_555 1_555
C6 C19 1_555 1_555
C7 C3 1_555 1_555
C8 C21 1_555 1_555
C9 C17 1_555 1_555
C10 C16 1_555 1_555
C11 C22 1_555 1_555
C12 C23 1_555 1_555
C13 C24 1_555 1_555
C14 C25 1_555 1_555
C15 O2 1_555 1_555
C16 O9 1_555 1_555
C17 O13 1_555 1_555
C18 O16 1_555 1_555
C19 O18 1_555 1_555
C20 O22 1_555 1_555
C21 O23 1_555 1_555
C22 O25 1_555 1_555
C23 O27 1_555 1_555
C24 O29 1_555 1_555
C25 O31 1_555 1_555
C26 C4 1_555 1_555
C27 C5 1_555 1_555
C28 C4 1_555 1_555
C29 C7 1_555 1_555
C30 C1 1_555 1_555
C31 C9 1_555 1_555
C32 C9 1_555 1_555
C33 C10 1_555 1_555
C34 C10 1_555 1_555
C35 C11 1_555 1_555
C36 C13 1_555 1_555
O3 C15 1_555 1_555
O17 C18 1_555 1_555
O30 C24 1_555 1_555
C5 C26 1_555 1_555
C6 C27 1_555 1_555
C6 C28 1_555 1_555
C7 C20 1_555 1_555
C8 C29 1_555 1_555
C8 C30 1_555 1_555
C11 C31 1_555 1_555
C12 C32 1_555 1_555
C12 C35 1_555 1_555
C13 C33 1_555 1_555
C14 C34 1_555 1_555
C14 C36 1_555 1_555
C3 H1 1_555 1_555
C27 H2 1_555 1_555
C28 H3 1_555 1_555
C30 H4 1_555 1_555
C32 H5 1_555 1_555
C35 H6 1_555 1_555
C26 H7 1_555 1_555
C34 H8 1_555 1_555
C29 H9 1_555 1_555
C31 H10 1_555 1_555
C36 H11 1_555 1_555
C33 H12 1_555 1_555
Ru7_2 Ru8_2 1_555 1_555
Ru11 Ru12 1_555 1_555
Ru7_3 Ru8_3 1_555 1_555
Ru2_3 Ru1_3 1_555 1_555
Ru3_3 Ru4_3 1_555 1_555
O5_2 Ru2_3 1_555 1_555
O6_2 Ru1_3 1_555 1_555
O7_2 Ru1_3 1_555 1_555
O8_2 Ru2_3 1_555 1_555
Ru1_4 O1_2 1_555 1_555
O1_2 C2_2 1_555 1_555
C1_2 C2_2 1_555 1_555
C2_2 O4_2 1_555 1_555
C3_2 C1_2 1_555 1_555
Ru2_4 Ru1_4 1_555 1_555
Ru3_4 Ru4_4 1_555 1_555
Ru4_4 O10_2 1_555 1_555
Ru5_2 Ru6_2 1_555 1_555
Ru6_2 O12_2 1_555 1_555
Ru7_4 Ru8_4 1_555 1_555
Ru8_4 O19_2 1_555 1_555
Ru11_2 Ru12_2 1_555 1_555
Ru12_2 O24_2 1_555 1_555
Ru13_2 Ru14_2 1_555 1_555
Ru14_2 O26_2 1_555 1_555
Ru9 O28_2 1_555 1_555
Ru11 O32_2 1_555 1_555
O2_2 Ru2_4 1_555 1_555
O3_2 Ru1_4 1_555 1_555
O4_2 Ru2_4 1_555 1_555
O9_2 Ru3_4 1_555 1_555
O10_2 C16_2 1_555 1_555
O11_2 Ru5_2 1_555 1_555
O12_2 C17_2 1_555 1_555
O13_2 Ru5_2 1_555 1_555
O14_2 Ru5_2 1_555 1_555
O15_2 Ru6_2 1_555 1_555
O16_2 Ru6_2 1_555 1_555
O17_2 Ru5_2 1_555 1_555
O18_2 Ru7_4 1_555 1_555
O19_2 C19_2 1_555 1_555
O20_2 Ru6_2 1_555 1_555
O33 C20_2 1_555 1_555
O23_2 Ru11_2 1_555 1_555
O24_2 C21_2 1_555 1_555
O25_2 Ru13_2 1_555 1_555
O26_2 C22_2 1_555 1_555
O27_2 Ru10 1_555 1_555
O28_2 C23_2 1_555 1_555
O29_2 Ru9 1_555 1_555
O30_2 Ru10 1_555 1_555
O31_2 Ru12 1_555 1_555
O32_2 C25_2 1_555 1_555
O34_2 Ru10 1_555 1_555
O35_2 Ru9 1_555 1_555
C4_2 C18_2 1_555 1_555
C5_2 C15_2 1_555 1_555
C6_2 C19_2 1_555 1_555
C7_2 C3_2 1_555 1_555
C8_2 C21_2 1_555 1_555
C9_2 C17_2 1_555 1_555
C10_2 C16_2 1_555 1_555
C11_2 C22_2 1_555 1_555
C12_2 C23_2 1_555 1_555
C13_2 C24_2 1_555 1_555
C14_2 C25_2 1_555 1_555
C15_2 O2_2 1_555 1_555
C16_2 O9_2 1_555 1_555
C17_2 O13_2 1_555 1_555
C18_2 O16_2 1_555 1_555
C19_2 O18_2 1_555 1_555
C20_2 O36 1_555 1_555
C21_2 O23_2 1_555 1_555
C22_2 O25_2 1_555 1_555
C23_2 O27_2 1_555 1_555
C24_2 O29_2 1_555 1_555
C25_2 O31_2 1_555 1_555
C26_2 C4_2 1_555 1_555
C27_2 C5_2 1_555 1_555
C28_2 C4_2 1_555 1_555
C29_2 C7_2 1_555 1_555
C30_2 C1_2 1_555 1_555
C31_2 C9_2 1_555 1_555
C32_2 C9_2 1_555 1_555
C33_2 C10_2 1_555 1_555
C34_2 C10_2 1_555 1_555
C35_2 C11_2 1_555 1_555
C36_2 C13_2 1_555 1_555
O3_2 C15_2 1_555 1_555
O17_2 C18_2 1_555 1_555
O30_2 C24_2 1_555 1_555
C5_2 C26_2 1_555 1_555
C6_2 C27_2 1_555 1_555
C6_2 C28_2 1_555 1_555
C7_2 C20_2 1_555 1_555
C8_2 C29_2 1_555 1_555
C8_2 C30_2 1_555 1_555
C11_2 C31_2 1_555 1_555
C12_2 C32_2 1_555 1_555
C12_2 C35_2 1_555 1_555
C13_2 C33_2 1_555 1_555
C14_2 C34_2 1_555 1_555
C14_2 C36_2 1_555 1_555
C3_2 H1_2 1_555 1_555
C27_2 H2_2 1_555 1_555
C28_2 H3_2 1_555 1_555
C30_2 H4_2 1_555 1_555
C32_2 H5_2 1_555 1_555
C35_2 H6_2 1_555 1_555
C26_2 H7_2 1_555 1_555
C34_2 H8_2 1_555 1_555
C29_2 H9_2 1_555 1_555
C31_2 H10_2 1_555 1_555
C36_2 H11_2 1_555 1_555
C33_2 H12_2 1_555 1_555
Ru11_3 Ru12_3 1_555 1_555
Ru4 O1_3 1_555 1_555
O1_3 C2_3 1_555 1_555
C1_3 C2_3 1_555 1_555
C2_3 O4_3 1_555 1_555
C3_3 C1_3 1_555 1_555
Ru5_3 Ru6_3 1_555 1_555
Ru6_3 O12_3 1_555 1_555
Ru7_5 Ru8_5 1_555 1_555
Ru8_5 O19_3 1_555 1_555
Ru9_2 Ru10_2 1_555 1_555
Ru10_2 O21_2 1_555 1_555
Ru11_4 Ru12_4 1_555 1_555
Ru12_4 O24_3 1_555 1_555
Ru13_3 Ru14_3 1_555 1_555
Ru14_3 O26_3 1_555 1_555
Ru15_2 Ru16_2 1_555 1_555
Ru16_2 O28_3 1_555 1_555
Ru11_3 O32_3 1_555 1_555
O2_3 Ru3 1_555 1_555
O3_3 Ru4 1_555 1_555
O4_3 Ru3 1_555 1_555
O6 C16_3 1_555 1_555
O11_3 Ru5_3 1_555 1_555
O12_3 C17_3 1_555 1_555
O13_3 Ru5_3 1_555 1_555
O14_3 Ru5_3 1_555 1_555
O15_3 Ru6_3 1_555 1_555
O16_3 Ru6_3 1_555 1_555
O17_3 Ru5_3 1_555 1_555
O18_3 Ru7_5 1_555 1_555
O19_3 C19_3 1_555 1_555
O20_3 Ru6_3 1_555 1_555
O21_2 C20_3 1_555 1_555
O22_2 Ru9_2 1_555 1_555
O23_3 Ru11_4 1_555 1_555
O24_3 C21_3 1_555 1_555
O25_3 Ru13_3 1_555 1_555
O26_3 C22_3 1_555 1_555
O27_3 Ru15_2 1_555 1_555
O28_3 C23_3 1_555 1_555
O29_3 Ru16_2 1_555 1_555
O30_3 Ru15_2 1_555 1_555
O31_3 Ru12_3 1_555 1_555
O32_3 C25_3 1_555 1_555
O33_2 Ru15_2 1_555 1_555
O34_3 Ru15_2 1_555 1_555
O35_3 Ru16_2 1_555 1_555
O36_2 Ru16_2 1_555 1_555
C4_3 C18_3 1_555 1_555
C5_3 C15_3 1_555 1_555
C6_3 C19_3 1_555 1_555
C7_3 C3_3 1_555 1_555
C8_3 C21_3 1_555 1_555
C9_3 C17_3 1_555 1_555
C10_3 C16_3 1_555 1_555
C11_3 C22_3 1_555 1_555
C12_3 C23_3 1_555 1_555
C13_3 C24_3 1_555 1_555
C14_3 C25_3 1_555 1_555
C15_3 O2_3 1_555 1_555
C16_3 O5 1_555 1_555
C17_3 O13_3 1_555 1_555
C18_3 O16_3 1_555 1_555
C19_3 O18_3 1_555 1_555
C20_3 O22_2 1_555 1_555
C21_3 O23_3 1_555 1_555
C22_3 O25_3 1_555 1_555
C23_3 O27_3 1_555 1_555
C24_3 O29_3 1_555 1_555
C25_3 O31_3 1_555 1_555
C26_3 C4_3 1_555 1_555
C27_3 C5_3 1_555 1_555
C28_3 C4_3 1_555 1_555
C29_3 C7_3 1_555 1_555
C30_3 C1_3 1_555 1_555
C31_3 C9_3 1_555 1_555
C32_3 C9_3 1_555 1_555
C33_3 C10_3 1_555 1_555
C34_3 C10_3 1_555 1_555
C35_3 C11_3 1_555 1_555
C36_3 C13_3 1_555 1_555
O3_3 C15_3 1_555 1_555
O17_3 C18_3 1_555 1_555
O30_3 C24_3 1_555 1_555
C5_3 C26_3 1_555 1_555
C6_3 C27_3 1_555 1_555
C6_3 C28_3 1_555 1_555
C7_3 C20_3 1_555 1_555
C8_3 C29_3 1_555 1_555
C8_3 C30_3 1_555 1_555
C11_3 C31_3 1_555 1_555
C12_3 C32_3 1_555 1_555
C12_3 C35_3 1_555 1_555
C13_3 C33_3 1_555 1_555
C14_3 C34_3 1_555 1_555
C14_3 C36_3 1_555 1_555
C3_3 H1_3 1_555 1_555
C27_3 H2_3 1_555 1_555
C28_3 H3_3 1_555 1_555
C30_3 H4_3 1_555 1_555
C32_3 H5_3 1_555 1_555
C35_3 H6_3 1_555 1_555
C26_3 H7_3 1_555 1_555
C34_3 H8_3 1_555 1_555
C29_3 H9_3 1_555 1_555
C31_3 H10_3 1_555 1_555
C36_3 H11_3 1_555 1_555
C33_3 H12_3 1_555 1_555
O7_3 Ru4_2 1_555 1_555
O8_3 Ru3_2 1_555 1_555
Ru7_6 Ru8_6 1_555 1_555
Ru17_3 Ru18_3 1_555 1_555
Ru7_7 Ru8_7 1_555 1_555
Ru4_3 O1_4 1_555 1_555
O1_4 C2_4 1_555 1_555
C1_4 C2_4 1_555 1_555
C2_4 O4_4 1_555 1_555
C3_4 C1_4 1_555 1_555
Ru5_4 Ru6_4 1_555 1_555
Ru6_4 O12_4 1_555 1_555
Ru7_8 Ru8_8 1_555 1_555
Ru8_8 O19_4 1_555 1_555
Ru17_3 O24_4 1_555 1_555
Ru13_4 Ru14_4 1_555 1_555
Ru14_4 O26_4 1_555 1_555
Ru9_2 O28_4 1_555 1_555
Ru17_4 Ru18_4 1_555 1_555
Ru18_4 O32_4 1_555 1_555
O2_4 Ru3_3 1_555 1_555
O3_4 Ru4_3 1_555 1_555
O4_4 Ru3_3 1_555 1_555
O6_2 C16_4 1_555 1_555
O11_4 Ru5_4 1_555 1_555
O12_4 C17_4 1_555 1_555
O13_4 Ru5_4 1_555 1_555
O14_4 Ru5_4 1_555 1_555
O15_4 Ru6_4 1_555 1_555
O16_4 Ru6_4 1_555 1_555
O17_4 Ru5_4 1_555 1_555
O18_4 Ru7_8 1_555 1_555
O19_4 C19_4 1_555 1_555
O20_4 Ru6_4 1_555 1_555
O33_2 C20_4 1_555 1_555
O23_4 Ru18_3 1_555 1_555
O24_4 C21_4 1_555 1_555
O25_4 Ru13_4 1_555 1_555
O26_4 C22_4 1_555 1_555
O27_4 Ru10_2 1_555 1_555
O28_4 C23_4 1_555 1_555
O29_4 Ru9_2 1_555 1_555
O30_4 Ru10_2 1_555 1_555
O31_4 Ru17_4 1_555 1_555
O32_4 C25_4 1_555 1_555
O34_4 Ru10_2 1_555 1_555
O35_4 Ru9_2 1_555 1_555
C4_4 C18_4 1_555 1_555
C5_4 C15_4 1_555 1_555
C6_4 C19_4 1_555 1_555
C7_4 C3_4 1_555 1_555
C8_4 C21_4 1_555 1_555
C9_4 C17_4 1_555 1_555
C10_4 C16_4 1_555 1_555
C11_4 C22_4 1_555 1_555
C12_4 C23_4 1_555 1_555
C13_4 C24_4 1_555 1_555
C14_4 C25_4 1_555 1_555
C15_4 O2_4 1_555 1_555
C16_4 O5_2 1_555 1_555
C17_4 O13_4 1_555 1_555
C18_4 O16_4 1_555 1_555
C19_4 O18_4 1_555 1_555
C20_4 O36_2 1_555 1_555
C21_4 O23_4 1_555 1_555
C22_4 O25_4 1_555 1_555
C23_4 O27_4 1_555 1_555
C24_4 O29_4 1_555 1_555
C25_4 O31_4 1_555 1_555
C26_4 C4_4 1_555 1_555
C27_4 C5_4 1_555 1_555
C28_4 C4_4 1_555 1_555
C29_4 C7_4 1_555 1_555
C30_4 C1_4 1_555 1_555
C31_4 C9_4 1_555 1_555
C32_4 C9_4 1_555 1_555
C33_4 C10_4 1_555 1_555
C34_4 C10_4 1_555 1_555
C35_4 C11_4 1_555 1_555
C36_4 C13_4 1_555 1_555
O3_4 C15_4 1_555 1_555
O17_4 C18_4 1_555 1_555
O30_4 C24_4 1_555 1_555
C5_4 C26_4 1_555 1_555
C6_4 C27_4 1_555 1_555
C6_4 C28_4 1_555 1_555
C7_4 C20_4 1_555 1_555
C8_4 C29_4 1_555 1_555
C8_4 C30_4 1_555 1_555
C11_4 C31_4 1_555 1_555
C12_4 C32_4 1_555 1_555
C12_4 C35_4 1_555 1_555
C13_4 C33_4 1_555 1_555
C14_4 C34_4 1_555 1_555
C14_4 C36_4 1_555 1_555
C3_4 H1_4 1_555 1_555
C27_4 H2_4 1_555 1_555
C28_4 H3_4 1_555 1_555
C30_4 H4_4 1_555 1_555
C32_4 H5_4 1_555 1_555
C35_4 H6_4 1_555 1_555
C26_4 H7_4 1_555 1_555
C34_4 H8_4 1_555 1_555
C29_4 H9_4 1_555 1_555
C31_4 H10_4 1_555 1_555
C36_4 H11_4 1_555 1_555
C33_4 H12_4 1_555 1_555
O7_4 Ru4_4 1_555 1_555
O8_4 Ru3_4 1_555 1_555
O5_3 Ru11_3 1_555 1_555
O6_3 Ru12_3 1_555 1_555
Ru12_4 O1_5 1_555 1_555
O1_5 C2_5 1_555 1_555
C1_5 C2_5 1_555 1_555
C2_5 O4_5 1_555 1_555
C3_5 C1_5 1_555 1_555
Ru17_4 O10_3 1_555 1_555
Ru13 O21_3 1_555 1_555
Ru7_5 O24_5 1_555 1_555
Ru8_6 O32_5 1_555 1_555
O4_5 Ru11_4 1_555 1_555
O9_3 Ru18_4 1_555 1_555
O10_3 C16_5 1_555 1_555
O21_3 C20_5 1_555 1_555
O22_3 Ru14 1_555 1_555
O23_5 Ru8_5 1_555 1_555
O24_5 C21_5 1_555 1_555
O29_5 Ru14_4 1_555 1_555
O30_5 Ru13_4 1_555 1_555
O31_5 Ru7_6 1_555 1_555
O32_5 C25_5 1_555 1_555
O33_3 Ru13_4 1_555 1_555
O34_5 Ru13_4 1_555 1_555
O35_5 Ru14_4 1_555 1_555
O36_3 Ru14_4 1_555 1_555
C7_5 C3_5 1_555 1_555
C8_5 C21_5 1_555 1_555
C10_5 C16_5 1_555 1_555
C13_5 C24_5 1_555 1_555
C14_5 C25_5 1_555 1_555
C16_5 O9_3 1_555 1_555
C20_5 O22_3 1_555 1_555
C21_5 O23_5 1_555 1_555
C24_5 O29_5 1_555 1_555
C25_5 O31_5 1_555 1_555
C29_5 C7_5 1_555 1_555
C30_5 C1_5 1_555 1_555
C33_5 C10_5 1_555 1_555
C34_5 C10_5 1_555 1_555
C36_5 C13_5 1_555 1_555
O30_5 C24_5 1_555 1_555
C7_5 C20_5 1_555 1_555
C8_5 C29_5 1_555 1_555
C8_5 C30_5 1_555 1_555
C13_5 C33_5 1_555 1_555
C14_5 C34_5 1_555 1_555
C14_5 C36_5 1_555 1_555
C3_5 H1_5 1_555 1_555
C30_5 H4_5 1_555 1_555
C34_5 H8_5 1_555 1_555
C29_5 H9_5 1_555 1_555
C36_5 H11_5 1_555 1_555
C33_5 H12_5 1_555 1_555
O5_4 Ru11 1_555 1_555
O6_4 Ru12 1_555 1_555
Ru12_2 O1_6 1_555 1_555
O1_6 C2_6 1_555 1_555
C1_6 C2_6 1_555 1_555
C2_6 O4_6 1_555 1_555
C3_6 C1_6 1_555 1_555
Ru17_2 O10_4 1_555 1_555
Ru7_4 O24_6 1_555 1_555
Ru8_3 O32_6 1_555 1_555
O4_6 Ru11_2 1_555 1_555
O9_4 Ru18_2 1_555 1_555
O10_4 C16_6 1_555 1_555
O33_3 C20_6 1_555 1_555
O23_6 Ru8_4 1_555 1_555
O24_6 C21_6 1_555 1_555
O29_6 Ru14 1_555 1_555
O30_6 Ru13 1_555 1_555
O31_6 Ru7_3 1_555 1_555
O32_6 C25_6 1_555 1_555
O34_6 Ru13 1_555 1_555
O35_6 Ru14 1_555 1_555
C7_6 C3_6 1_555 1_555
C8_6 C21_6 1_555 1_555
C10_6 C16_6 1_555 1_555
C13_6 C24_6 1_555 1_555
C14_6 C25_6 1_555 1_555
C16_6 O9_4 1_555 1_555
C20_6 O36_3 1_555 1_555
C21_6 O23_6 1_555 1_555
C24_6 O29_6 1_555 1_555
C25_6 O31_6 1_555 1_555
C29_6 C7_6 1_555 1_555
C30_6 C1_6 1_555 1_555
C33_6 C10_6 1_555 1_555
C34_6 C10_6 1_555 1_555
C36_6 C13_6 1_555 1_555
O30_6 C24_6 1_555 1_555
C7_6 C20_6 1_555 1_555
C8_6 C29_6 1_555 1_555
C8_6 C30_6 1_555 1_555
C13_6 C33_6 1_555 1_555
C14_6 C34_6 1_555 1_555
C14_6 C36_6 1_555 1_555
C3_6 H1_6 1_555 1_555
C30_6 H4_6 1_555 1_555
C34_6 H8_6 1_555 1_555
C29_6 H9_6 1_555 1_555
C36_6 H11_6 1_555 1_555
C33_6 H12_6 1_555 1_555
Ru17_3 O1_7 1_555 1_555
O1_7 C2_7 1_555 1_555
C1_7 C2_7 1_555 1_555
C2_7 O4_7 1_555 1_555
C3_7 C1_7 1_555 1_555
Ru13_2 O21_4 1_555 1_555
Ru7_8 O24_7 1_555 1_555
Ru8_7 O32_7 1_555 1_555
O4_7 Ru18_3 1_555 1_555
O6_3 C16_7 1_555 1_555
O21_4 C20_7 1_555 1_555
O22_4 Ru14_2 1_555 1_555
O23_7 Ru8_8 1_555 1_555
O24_7 C21_7 1_555 1_555
O29_7 Ru14_3 1_555 1_555
O30_7 Ru13_3 1_555 1_555
O31_7 Ru7_7 1_555 1_555
O32_7 C25_7 1_555 1_555
O33_4 Ru13_3 1_555 1_555
O34_7 Ru13_3 1_555 1_555
O35_7 Ru14_3 1_555 1_555
O36_4 Ru14_3 1_555 1_555
C7_7 C3_7 1_555 1_555
C8_7 C21_7 1_555 1_555
C10_7 C16_7 1_555 1_555
C13_7 C24_7 1_555 1_555
C14_7 C25_7 1_555 1_555
C16_7 O5_3 1_555 1_555
C20_7 O22_4 1_555 1_555
C21_7 O23_7 1_555 1_555
C24_7 O29_7 1_555 1_555
C25_7 O31_7 1_555 1_555
C29_7 C7_7 1_555 1_555
C30_7 C1_7 1_555 1_555
C33_7 C10_7 1_555 1_555
C34_7 C10_7 1_555 1_555
C36_7 C13_7 1_555 1_555
O30_7 C24_7 1_555 1_555
C7_7 C20_7 1_555 1_555
C8_7 C29_7 1_555 1_555
C8_7 C30_7 1_555 1_555
C13_7 C33_7 1_555 1_555
C14_7 C34_7 1_555 1_555
C14_7 C36_7 1_555 1_555
C3_7 H1_7 1_555 1_555
C30_7 H4_7 1_555 1_555
C34_7 H8_7 1_555 1_555
C29_7 H9_7 1_555 1_555
C36_7 H11_7 1_555 1_555
C33_7 H12_7 1_555 1_555
Ru17 O1_8 1_555 1_555
O1_8 C2_8 1_555 1_555
C1_8 C2_8 1_555 1_555
C2_8 O4_8 1_555 1_555
C3_8 C1_8 1_555 1_555
Ru7 O24_8 1_555 1_555
Ru8_2 O32_8 1_555 1_555
O4_8 Ru18 1_555 1_555
O6_4 C16_8 1_555 1_555
O33_4 C20_8 1_555 1_555
O23_8 Ru8 1_555 1_555
O24_8 C21_8 1_555 1_555
O29_8 Ru14_2 1_555 1_555
O30_8 Ru13_2 1_555 1_555
O31_8 Ru7_2 1_555 1_555
O32_8 C25_8 1_555 1_555
O34_8 Ru13_2 1_555 1_555
O35_8 Ru14_2 1_555 1_555
C7_8 C3_8 1_555 1_555
C8_8 C21_8 1_555 1_555
C10_8 C16_8 1_555 1_555
C13_8 C24_8 1_555 1_555
C14_8 C25_8 1_555 1_555
C16_8 O5_4 1_555 1_555
C20_8 O36_4 1_555 1_555
C21_8 O23_8 1_555 1_555
C24_8 O29_8 1_555 1_555
C25_8 O31_8 1_555 1_555
C29_8 C7_8 1_555 1_555
C30_8 C1_8 1_555 1_555
C33_8 C10_8 1_555 1_555
C34_8 C10_8 1_555 1_555
C36_8 C13_8 1_555 1_555
O30_8 C24_8 1_555 1_555
C7_8 C20_8 1_555 1_555
C8_8 C29_8 1_555 1_555
C8_8 C30_8 1_555 1_555
C13_8 C33_8 1_555 1_555
C14_8 C34_8 1_555 1_555
C14_8 C36_8 1_555 1_555
C3_8 H1_8 1_555 1_555
C30_8 H4_8 1_555 1_555
C34_8 H8_8 1_555 1_555
C29_8 H9_8 1_555 1_555
C36_8 H11_8 1_555 1_555
C33_8 H12_8 1_555 1_555
O5_5 Ru8_7 1_555 1_555
O6_5 Ru7_7 1_555 1_555
Ru7_2 O10_5 1_555 1_555
O9_5 Ru8_2 1_555 1_555
O10_5 C16_9 1_555 1_555
O8_4 C25_9 1_555 1_555
C10_9 C16_9 1_555 1_555
C13_9 C24_9 1_555 1_555
C14_9 C25_9 1_555 1_555
C16_9 O9_5 1_555 1_555
C24_9 O11_2 1_555 1_555
C25_9 O7_4 1_555 1_555
C33_9 C10_9 1_555 1_555
C34_9 C10_9 1_555 1_555
C36_9 C13_9 1_555 1_555
O20_2 C24_9 1_555 1_555
C13_9 C33_9 1_555 1_555
C14_9 C34_9 1_555 1_555
C14_9 C36_9 1_555 1_555
C34_9 H8_9 1_555 1_555
C36_9 H11_9 1_555 1_555
C33_9 H12_9 1_555 1_555
O5_6 Ru8_3 1_555 1_555
O6_6 Ru7_3 1_555 1_555
Ru7_6 O10_6 1_555 1_555
O9_6 Ru8_6 1_555 1_555
O10_6 C16_10 1_555 1_555
O8_2 C25_10 1_555 1_555
C10_10 C16_10 1_555 1_555
C13_10 C24_10 1_555 1_555
C14_10 C25_10 1_555 1_555
C16_10 O9_6 1_555 1_555
C24_10 O11_4 1_555 1_555
C25_10 O7_2 1_555 1_555
C33_10 C10_10 1_555 1_555
C34_10 C10_10 1_555 1_555
C36_10 C13_10 1_555 1_555
O20_4 C24_10 1_555 1_555
C13_10 C33_10 1_555 1_555
C14_10 C34_10 1_555 1_555
C14_10 C36_10 1_555 1_555
C34_10 H8_10 1_555 1_555
C36_10 H11_10 1_555 1_555
C33_10 H12_10 1_555 1_555
O6_5 C16_11 1_555 1_555
O8 C25_11 1_555 1_555
C10_11 C16_11 1_555 1_555
C13_11 C24_11 1_555 1_555
C14_11 C25_11 1_555 1_555
C16_11 O5_5 1_555 1_555
C24_11 O11_3 1_555 1_555
C25_11 O7 1_555 1_555
C33_11 C10_11 1_555 1_555
C34_11 C10_11 1_555 1_555
C36_11 C13_11 1_555 1_555
O20_3 C24_11 1_555 1_555
C13_11 C33_11 1_555 1_555
C14_11 C34_11 1_555 1_555
C14_11 C36_11 1_555 1_555
C34_11 H8_11 1_555 1_555
C36_11 H11_11 1_555 1_555
C33_11 H12_11 1_555 1_555
O6_6 C16_12 1_555 1_555
O8_3 C25_12 1_555 1_555
C10_12 C16_12 1_555 1_555
C13_12 C24_12 1_555 1_555
C14_12 C25_12 1_555 1_555
C16_12 O5_6 1_555 1_555
C24_12 O11 1_555 1_555
C25_12 O7_3 1_555 1_555
C33_12 C10_12 1_555 1_555
C34_12 C10_12 1_555 1_555
C36_12 C13_12 1_555 1_555
O20 C24_12 1_555 1_555
C13_12 C33_12 1_555 1_555
C14_12 C34_12 1_555 1_555
C14_12 C36_12 1_555 1_555
C34_12 H8_12 1_555 1_555
C36_12 H11_12 1_555 1_555
C33_12 H12_12 1_555 1_555
O35_3 C17_5 1_555 1_555
O34_8 C22_5 1_555 1_555
O15_4 C23_5 1_555 1_555
C9_5 C17_5 1_555 1_555
C11_5 C22_5 1_555 1_555
C12_5 C23_5 1_555 1_555
C17_5 O34_3 1_555 1_555
C22_5 O35_8 1_555 1_555
C23_5 O14_4 1_555 1_555
C31_5 C9_5 1_555 1_555
C32_5 C9_5 1_555 1_555
C35_5 C11_5 1_555 1_555
C11_5 C31_5 1_555 1_555
C12_5 C32_5 1_555 1_555
C12_5 C35_5 1_555 1_555
C32_5 H5_5 1_555 1_555
C35_5 H6_5 1_555 1_555
C31_5 H10_5 1_555 1_555
O35_4 C17_6 1_555 1_555
O34_6 C22_6 1_555 1_555
O15_3 C23_6 1_555 1_555
C9_6 C17_6 1_555 1_555
C11_6 C22_6 1_555 1_555
C12_6 C23_6 1_555 1_555
C17_6 O34_4 1_555 1_555
C22_6 O35_6 1_555 1_555
C23_6 O14_3 1_555 1_555
C31_6 C9_6 1_555 1_555
C32_6 C9_6 1_555 1_555
C35_6 C11_6 1_555 1_555
C11_6 C31_6 1_555 1_555
C12_6 C32_6 1_555 1_555
C12_6 C35_6 1_555 1_555
C32_6 H5_6 1_555 1_555
C35_6 H6_6 1_555 1_555
C31_6 H10_6 1_555 1_555
O35_2 C17_7 1_555 1_555
O34_7 C22_7 1_555 1_555
O15 C23_7 1_555 1_555
C9_7 C17_7 1_555 1_555
C11_7 C22_7 1_555 1_555
C12_7 C23_7 1_555 1_555
C17_7 O34_2 1_555 1_555
C22_7 O35_7 1_555 1_555
C23_7 O14 1_555 1_555
C31_7 C9_7 1_555 1_555
C32_7 C9_7 1_555 1_555
C35_7 C11_7 1_555 1_555
C11_7 C31_7 1_555 1_555
C12_7 C32_7 1_555 1_555
C12_7 C35_7 1_555 1_555
C32_7 H5_7 1_555 1_555
C35_7 H6_7 1_555 1_555
C31_7 H10_7 1_555 1_555
O35 C17_8 1_555 1_555
O34_5 C22_8 1_555 1_555
O15_2 C23_8 1_555 1_555
C9_8 C17_8 1_555 1_555
C11_8 C22_8 1_555 1_555
C12_8 C23_8 1_555 1_555
C17_8 O34 1_555 1_555
C22_8 O35_5 1_555 1_555
C23_8 O14_2 1_555 1_555
C31_8 C9_8 1_555 1_555
C32_8 C9_8 1_555 1_555
C35_8 C11_8 1_555 1_555
C11_8 C31_8 1_555 1_555
C12_8 C32_8 1_555 1_555
C12_8 C35_8 1_555 1_555
C32_8 H5_8 1_555 1_555
C35_8 H6_8 1_555 1_555
C31_8 H10_8 1_555 1_555

#END
