
###############################################################################
#
# This file contains modified crystal structure data generated from the
# MOF subset of the Cambridge Structural Database (CSD) v543 
# hosted by the Cambridge Crystallographic Data Centre (CCDC).
#
# This work is licensed under the Creative Commons
# Attribution-NonCommercial-ShareAlike 4.0 International License.
# To view a copy of this license, visit
# http://creativecommons.org/licenses/by-nc-sa/4.0/
# or send a letter to
# Creative Commons, PO Box 1866, Mountain View, CA 94042, USA.
#
# CIF created using the CSD Python API on 29 September 2022
# The structure has been converted into the P1 space group
# The structure has a 3D framework
# The original CSD entry IVETOT is in the orthorhombic crystal system
# The framework has been calculated to contain at least 10.0% void space
# The void calculation uses a probe of radius 1.32A, grid spacing 0.4
# The framework is charged, counterions have been retained in the structure
#
###############################################################################

data_IVETOT
_chemical_formula_moiety         '(C180 H128 Cl12 Cu4 N16 4-)n'
_symmetry_cell_setting           triclinic
_symmetry_space_group_name_H-M   'P 1'
_symmetry_Int_Tables_number      1
_space_group_name_Hall           'P 1'
loop_
_symmetry_equiv_pos_site_id
_symmetry_equiv_pos_as_xyz
1 x,y,z
_cell_length_a                   14.995(3)
_cell_length_b                   30.625(7)
_cell_length_c                   14.689(3)
_cell_angle_alpha                90
_cell_angle_beta                 90
_cell_angle_gamma                90
_cell_volume                     6745.51
loop_
_atom_site_label
_atom_site_type_symbol
_atom_site_fract_x
_atom_site_fract_y
_atom_site_fract_z
Cl1 Cl 0.4565(3) 0.2500 0.0000
Cl1_2 Cl 0.4565(3) 0.2500 1.0000
Cl1_3 Cl 0.0435(3) 0.2500 0.0000
Cl1_4 Cl 0.0435(3) 0.2500 1.0000
Cl1_5 Cl 0.5435(3) 0.7500 0.0000
Cl1_6 Cl 0.5435(3) 0.7500 1.0000
Cl1_7 Cl 0.9565(3) 0.7500 0.0000
Cl1_8 Cl 0.9565(3) 0.7500 1.0000
Cu5 Cu 0.2500 0.2500 0.0000
N2 N 0.2523(7) 0.20119(14) 0.0946(4)
C12 C 0.3236(7) 0.1930(2) 0.1477(5)
H9 H 0.3737 0.2120 0.1448
C13 C 0.3256(5) 0.1582(2) 0.2058(5)
H10 H 0.3770 0.1532 0.2421
C14 C 0.2543(5) 0.13032(14) 0.2123(3)
C15 C 0.1797(6) 0.1381(2) 0.1579(5)
H11 H 0.1287 0.1197 0.1591
C16 C 0.1851(8) 0.1750(3) 0.1012(5)
H12 H 0.1347 0.1812 0.0642
C17 C 0.2598(4) 0.09281(12) 0.2806(3)
C18 C 0.3302(3) 0.08657(13) 0.3384(3)
H13 H 0.3823 0.1040 0.3321
C19 C 0.3262(3) 0.05527(12) 0.4055(3)
H14 H 0.3752 0.0520 0.4460
C20 C 0.2526(3) 0.02839(10) 0.4154(3)
C21 C 0.1820(3) 0.03398(11) 0.3567(3)
H15 H 0.1308 0.0159 0.3630
C22 C 0.1837(3) 0.06531(13) 0.2887(3)
H16 H 0.1348 0.0684 0.2480
N8 N 0.2477(7) 0.20119(14) 0.9054(4)
N11 N 0.2477(7) 0.29881(14) 0.0946(4)
C57 C 0.1764(7) 0.1930(2) 0.8523(5)
H41 H 0.1263 0.2120 0.8552
C60 C 0.1744(5) 0.1582(2) 0.7942(5)
H44 H 0.1230 0.1532 0.7579
C63 C 0.2457(5) 0.13032(14) 0.7877(3)
C66 C 0.3203(6) 0.1381(2) 0.8421(5)
H47 H 0.3713 0.1197 0.8409
C69 C 0.3149(8) 0.1750(3) 0.8988(5)
H50 H 0.3653 0.1812 0.9358
C72 C 0.2402(4) 0.09281(12) 0.7194(3)
C75 C 0.1698(3) 0.08657(13) 0.6616(3)
H53 H 0.1177 0.1040 0.6679
C78 C 0.1738(3) 0.05527(12) 0.5945(3)
H56 H 0.1248 0.0520 0.5540
C81 C 0.2474(3) 0.02839(10) 0.5846(3)
C84 C 0.3180(3) 0.03398(11) 0.6433(3)
H59 H 0.3692 0.0159 0.6370
C87 C 0.3163(3) 0.06531(13) 0.7113(3)
H62 H 0.3652 0.0684 0.7520
Cu5_2 Cu 0.2500 0.2500 1.0000
N13 N 0.2523(7) 0.29881(14) 0.9054(4)
H2 H 0.0215 0.8280 0.3927
C6 C 0.0407(2) 0.89818(11) 0.5039(3)
C7 C 0.0905(3) 0.90692(11) 0.4240(3)
H5 H 0.0803 0.8898 0.3710
C8 C 0.1541(2) 0.94006(12) 0.4215(3)
H6 H 0.1872 0.9452 0.3674
C9 C 0.1693(2) 0.96586(10) 0.4986(3)
C10 C 0.1195(2) 0.95703(11) 0.5755(3)
H7 H 0.1284 0.9740 0.6289
C11 C 0.0568(2) 0.92393(12) 0.5760(3)
H8 H 0.0234 0.9192 0.6301
C23 C 0.2500 0.99697(14) 0.5000
Cu3 Cu 0.7500 0.7500 0.5000
N3 N 0.6540(2) 0.79685(10) 0.4966(3)
C24 C 0.5895(3) 0.79657(13) 0.5582(4)
H17 H 0.5878 0.7735 0.6013
C27 C 0.5238(3) 0.82885(13) 0.5622(4)
H20 H 0.4785 0.8280 0.6073
C30 C 0.5269(2) 0.86286(11) 0.4967(3)
C33 C 0.5929(3) 0.86077(13) 0.4331(3)
H23 H 0.5960 0.8821 0.3862
C36 C 0.6538(3) 0.82849(12) 0.4367(3)
H26 H 0.7000 0.8287 0.3925
C39 C 0.4593(2) 0.89818(11) 0.4961(3)
C42 C 0.4095(3) 0.90692(11) 0.5760(3)
H29 H 0.4197 0.8898 0.6290
C45 C 0.3459(2) 0.94006(12) 0.5785(3)
H32 H 0.3128 0.9452 0.6326
C48 C 0.3307(2) 0.96586(10) 0.5014(3)
C51 C 0.3805(2) 0.95703(11) 0.4245(3)
H35 H 0.3716 0.9740 0.3711
C54 C 0.4432(2) 0.92393(12) 0.4240(3)
H38 H 0.4766 0.9192 0.3699
Cl2 Cl 0.7500 0.7500 0.6810(3)
N1 N 0.8460(2) 0.79685(10) 0.5034(3)
C1 C 0.9105(3) 0.79657(13) 0.4418(4)
H1 H 0.9122 0.7735 0.3987
C2 C 0.9762(3) 0.82885(13) 0.4378(4)
C3 C 0.9731(2) 0.86286(11) 0.5033(3)
C4 C 0.9071(3) 0.86077(13) 0.5669(3)
H3 H 0.9040 0.8821 0.6138
C5 C 0.8462(3) 0.82849(12) 0.5633(3)
H4 H 0.8000 0.8287 0.6075
Cl3 Cl 0.7500 0.7500 0.3190(3)
N4 N 0.6540(2) 0.70315(10) 0.5034(3)
N7 N 0.8460(2) 0.70315(10) 0.4966(3)
C25 C 0.5895(3) 0.70343(13) 0.4418(4)
H18 H 0.5878 0.7265 0.3987
C28 C 0.5238(3) 0.67115(13) 0.4378(4)
H21 H 0.4785 0.6720 0.3927
H22 H 0.0215 0.6720 0.6073
C31 C 0.5269(2) 0.63714(11) 0.5033(3)
C34 C 0.5929(3) 0.63923(13) 0.5669(3)
H24 H 0.5960 0.6179 0.6138
C37 C 0.6538(3) 0.67151(12) 0.5633(3)
H27 H 0.7000 0.6713 0.6075
C40 C 0.4593(2) 0.60182(11) 0.5039(3)
C41 C 0.0407(2) 0.60182(11) 0.4961(3)
C43 C 0.4095(3) 0.59308(11) 0.4240(3)
C44 C 0.0905(3) 0.59308(11) 0.5760(3)
H30 H 0.4197 0.6102 0.3710
H31 H 0.0803 0.6102 0.6290
C46 C 0.3459(2) 0.55994(12) 0.4215(3)
C47 C 0.1541(2) 0.55994(12) 0.5785(3)
H33 H 0.3128 0.5548 0.3674
H34 H 0.1872 0.5548 0.6326
C49 C 0.3307(2) 0.53414(10) 0.4986(3)
C50 C 0.1693(2) 0.53414(10) 0.5014(3)
C52 C 0.3805(2) 0.54297(11) 0.5755(3)
C53 C 0.1195(2) 0.54297(11) 0.4245(3)
H36 H 0.3716 0.5260 0.6289
H37 H 0.1284 0.5260 0.3711
C55 C 0.4432(2) 0.57607(12) 0.5760(3)
C56 C 0.0568(2) 0.57607(12) 0.4240(3)
H39 H 0.4766 0.5808 0.6301
H40 H 0.0234 0.5808 0.3699
C58 C 0.1764(7) 0.3070(2) 0.1477(5)
C59 C 0.3236(7) 0.3070(2) 0.8523(5)
H42 H 0.1263 0.2880 0.1448
H43 H 0.3737 0.2880 0.8552
C61 C 0.1744(5) 0.3418(2) 0.2058(5)
C62 C 0.3256(5) 0.3418(2) 0.7942(5)
H45 H 0.1230 0.3468 0.2421
H46 H 0.3770 0.3468 0.7579
C64 C 0.2457(5) 0.36968(14) 0.2123(3)
C65 C 0.2543(5) 0.36968(14) 0.7877(3)
C67 C 0.3203(6) 0.3619(2) 0.1579(5)
C68 C 0.1797(6) 0.3619(2) 0.8421(5)
H48 H 0.3713 0.3803 0.1591
H49 H 0.1287 0.3803 0.8409
C70 C 0.3149(8) 0.3250(3) 0.1012(5)
C71 C 0.1851(8) 0.3250(3) 0.8988(5)
H51 H 0.3653 0.3188 0.0642
H52 H 0.1347 0.3188 0.9358
C73 C 0.2402(4) 0.40719(12) 0.2806(3)
C74 C 0.2598(4) 0.40719(12) 0.7194(3)
C76 C 0.1698(3) 0.41343(13) 0.3384(3)
C77 C 0.3302(3) 0.41343(13) 0.6616(3)
H54 H 0.1177 0.3960 0.3321
H55 H 0.3823 0.3960 0.6679
C79 C 0.1738(3) 0.44473(12) 0.4055(3)
C80 C 0.3262(3) 0.44473(12) 0.5945(3)
H57 H 0.1248 0.4480 0.4460
H58 H 0.3752 0.4480 0.5540
C82 C 0.2474(3) 0.47161(10) 0.4154(3)
C83 C 0.2526(3) 0.47161(10) 0.5846(3)
C85 C 0.3180(3) 0.46602(11) 0.3567(3)
C86 C 0.1820(3) 0.46602(11) 0.6433(3)
H60 H 0.3692 0.4841 0.3630
H61 H 0.1308 0.4841 0.6370
C88 C 0.3163(3) 0.43469(13) 0.2887(3)
C89 C 0.1837(3) 0.43469(13) 0.7113(3)
H63 H 0.3652 0.4316 0.2480
H64 H 0.1348 0.4316 0.7520
C90 C 0.2500 0.50303(14) 0.5000
C26 C 0.9105(3) 0.70343(13) 0.5582(4)
H19 H 0.9122 0.7265 0.6013
C29 C 0.9762(3) 0.67115(13) 0.5622(4)
C32 C 0.9731(2) 0.63714(11) 0.4967(3)
C35 C 0.9071(3) 0.63923(13) 0.4331(3)
H25 H 0.9040 0.6179 0.3862
C38 C 0.8462(3) 0.67151(12) 0.4367(3)
H28 H 0.8000 0.6713 0.3925
Cu4 Cu 0.2500 0.2500 0.5000
N5 N 0.1540(2) 0.29685(10) 0.5034(3)
C26_2 C 0.0895(3) 0.29657(13) 0.4418(4)
H19_2 H 0.0878 0.2735 0.3987
C29_2 C 0.0238(3) 0.32885(13) 0.4378(4)
C32_2 C 0.0269(2) 0.36286(11) 0.5033(3)
C35_2 C 0.0929(3) 0.36077(13) 0.5669(3)
H25_2 H 0.0960 0.3821 0.6138
C38_2 C 0.1538(3) 0.32849(12) 0.5633(3)
H28_2 H 0.2000 0.3287 0.6075
Cu6 Cu 0.7500 0.7500 0.0000
Cl2_2 Cl 0.2500 0.2500 0.3190(3)
N1_2 N 0.1540(2) 0.20315(10) 0.4966(3)
C1_2 C 0.0895(3) 0.20343(13) 0.5582(4)
H1_2 H 0.0878 0.2265 0.6013
C2_2 C 0.0238(3) 0.17115(13) 0.5622(4)
C3_2 C 0.0269(2) 0.13714(11) 0.4967(3)
C4_2 C 0.0929(3) 0.13923(13) 0.4331(3)
H3_2 H 0.0960 0.1179 0.3862
C5_2 C 0.1538(3) 0.17151(12) 0.4367(3)
H4_2 H 0.2000 0.1713 0.3925
Cl3_2 Cl 0.2500 0.2500 0.6810(3)
N4_2 N 0.3460(2) 0.29685(10) 0.4966(3)
N6 N 0.3460(2) 0.20315(10) 0.5034(3)
C25_2 C 0.4105(3) 0.29657(13) 0.5582(4)
H18_2 H 0.4122 0.2735 0.6013
C28_2 C 0.4762(3) 0.32885(13) 0.5622(4)
H21_2 H 0.5215 0.3280 0.6073
H22_2 H 0.9785 0.3280 0.3927
C31_2 C 0.4731(2) 0.36286(11) 0.4967(3)
C34_2 C 0.4071(3) 0.36077(13) 0.4331(3)
H24_2 H 0.4040 0.3821 0.3862
C37_2 C 0.3462(3) 0.32849(12) 0.4367(3)
H27_2 H 0.3000 0.3287 0.3925
C40_2 C 0.5407(2) 0.39818(11) 0.4961(3)
C41_2 C 0.9593(2) 0.39818(11) 0.5039(3)
C43_2 C 0.5905(3) 0.40692(11) 0.5760(3)
C44_2 C 0.9095(3) 0.40692(11) 0.4240(3)
H30_2 H 0.5803 0.3898 0.6290
H31_2 H 0.9197 0.3898 0.3710
C46_2 C 0.6541(2) 0.44006(12) 0.5785(3)
C47_2 C 0.8459(2) 0.44006(12) 0.4215(3)
H33_2 H 0.6872 0.4452 0.6326
H34_2 H 0.8128 0.4452 0.3674
C49_2 C 0.6693(2) 0.46586(10) 0.5014(3)
C50_2 C 0.8307(2) 0.46586(10) 0.4986(3)
C52_2 C 0.6195(2) 0.45703(11) 0.4245(3)
C53_2 C 0.8805(2) 0.45703(11) 0.5755(3)
H36_2 H 0.6284 0.4740 0.3711
H37_2 H 0.8716 0.4740 0.6289
C55_2 C 0.5568(2) 0.42393(12) 0.4240(3)
C56_2 C 0.9432(2) 0.42393(12) 0.5760(3)
H39_2 H 0.5234 0.4192 0.3699
H40_2 H 0.9766 0.4192 0.6301
N9 N 0.7523(7) 0.70119(14) 0.9054(4)
N10 N 0.7477(7) 0.70119(14) 0.0946(4)
C58_2 C 0.8236(7) 0.6930(2) 0.8523(5)
C59_2 C 0.6764(7) 0.6930(2) 0.1477(5)
H42_2 H 0.8737 0.7120 0.8552
H43_2 H 0.6263 0.7120 0.1448
C61_2 C 0.8256(5) 0.6582(2) 0.7942(5)
C62_2 C 0.6744(5) 0.6582(2) 0.2058(5)
H45_2 H 0.8770 0.6532 0.7579
H46_2 H 0.6230 0.6532 0.2421
C64_2 C 0.7543(5) 0.63032(14) 0.7877(3)
C65_2 C 0.7457(5) 0.63032(14) 0.2123(3)
C67_2 C 0.6797(6) 0.6381(2) 0.8421(5)
C68_2 C 0.8203(6) 0.6381(2) 0.1579(5)
H48_2 H 0.6287 0.6197 0.8409
H49_2 H 0.8713 0.6197 0.1591
C70_2 C 0.6851(8) 0.6750(3) 0.8988(5)
C71_2 C 0.8149(8) 0.6750(3) 0.1012(5)
H51_2 H 0.6347 0.6812 0.9358
H52_2 H 0.8653 0.6812 0.0642
C73_2 C 0.7598(4) 0.59281(12) 0.7194(3)
C74_2 C 0.7402(4) 0.59281(12) 0.2806(3)
C76_2 C 0.8302(3) 0.58657(13) 0.6616(3)
C77_2 C 0.6698(3) 0.58657(13) 0.3384(3)
H54_2 H 0.8823 0.6040 0.6679
H55_2 H 0.6177 0.6040 0.3321
C79_2 C 0.8262(3) 0.55527(12) 0.5945(3)
C80_2 C 0.6738(3) 0.55527(12) 0.4055(3)
H57_2 H 0.8752 0.5520 0.5540
H58_2 H 0.6248 0.5520 0.4460
C82_2 C 0.7526(3) 0.52839(10) 0.5846(3)
C83_2 C 0.7474(3) 0.52839(10) 0.4154(3)
C85_2 C 0.6820(3) 0.53398(11) 0.6433(3)
C86_2 C 0.8180(3) 0.53398(11) 0.3567(3)
H60_2 H 0.6308 0.5159 0.6370
H61_2 H 0.8692 0.5159 0.3630
C88_2 C 0.6837(3) 0.56531(13) 0.7113(3)
C89_2 C 0.8163(3) 0.56531(13) 0.2887(3)
H63_2 H 0.6348 0.5684 0.7520
H64_2 H 0.8652 0.5684 0.2480
C90_2 C 0.7500 0.49697(14) 0.5000
Cu6_2 Cu 0.7500 0.7500 1.0000
H2_2 H 0.9785 0.1720 0.6073
C6_2 C 0.9593(2) 0.10182(11) 0.4961(3)
C7_2 C 0.9095(3) 0.09308(11) 0.5760(3)
H5_2 H 0.9197 0.1102 0.6290
C8_2 C 0.8459(2) 0.05994(12) 0.5785(3)
H6_2 H 0.8128 0.0548 0.6326
C9_2 C 0.8307(2) 0.03414(10) 0.5014(3)
C10_2 C 0.8805(2) 0.04297(11) 0.4245(3)
H7_2 H 0.8716 0.0260 0.3711
C11_2 C 0.9432(2) 0.07607(12) 0.4240(3)
H8_2 H 0.9766 0.0808 0.3699
C23_2 C 0.7500 0.00303(14) 0.5000
C24_2 C 0.4105(3) 0.20343(13) 0.4418(4)
H17_2 H 0.4122 0.2265 0.3987
C27_2 C 0.4762(3) 0.17115(13) 0.4378(4)
H20_2 H 0.5215 0.1720 0.3927
C30_2 C 0.4731(2) 0.13714(11) 0.5033(3)
C33_2 C 0.4071(3) 0.13923(13) 0.5669(3)
H23_2 H 0.4040 0.1179 0.6138
C36_2 C 0.3462(3) 0.17151(12) 0.5633(3)
H26_2 H 0.3000 0.1713 0.6075
C39_2 C 0.5407(2) 0.10182(11) 0.5039(3)
C42_2 C 0.5905(3) 0.09308(11) 0.4240(3)
H29_2 H 0.5803 0.1102 0.3710
C45_2 C 0.6541(2) 0.05994(12) 0.4215(3)
H32_2 H 0.6872 0.0548 0.3674
C48_2 C 0.6693(2) 0.03414(10) 0.4986(3)
C51_2 C 0.6195(2) 0.04297(11) 0.5755(3)
H35_2 H 0.6284 0.0260 0.6289
C54_2 C 0.5568(2) 0.07607(12) 0.5760(3)
H38_2 H 0.5234 0.0808 0.6301
N12 N 0.7523(7) 0.79881(14) 0.0946(4)
N2_2 N 0.7477(7) 0.79881(14) 0.9054(4)
C12_2 C 0.6764(7) 0.8070(2) 0.8523(5)
H9_2 H 0.6263 0.7880 0.8552
C13_2 C 0.6744(5) 0.8418(2) 0.7942(5)
H10_2 H 0.6230 0.8468 0.7579
C14_2 C 0.7457(5) 0.86968(14) 0.7877(3)
C15_2 C 0.8203(6) 0.8619(2) 0.8421(5)
H11_2 H 0.8713 0.8803 0.8409
C16_2 C 0.8149(8) 0.8250(3) 0.8988(5)
H12_2 H 0.8653 0.8188 0.9358
C17_2 C 0.7402(4) 0.90719(12) 0.7194(3)
C18_2 C 0.6698(3) 0.91343(13) 0.6616(3)
H13_2 H 0.6177 0.8960 0.6679
C19_2 C 0.6738(3) 0.94473(12) 0.5945(3)
H14_2 H 0.6248 0.9480 0.5540
C20_2 C 0.7474(3) 0.97161(10) 0.5846(3)
C21_2 C 0.8180(3) 0.96602(11) 0.6433(3)
H15_2 H 0.8692 0.9841 0.6370
C22_2 C 0.8163(3) 0.93469(13) 0.7113(3)
H16_2 H 0.8652 0.9316 0.7520
C57_2 C 0.8236(7) 0.8070(2) 0.1477(5)
H41_2 H 0.8737 0.7880 0.1448
C60_2 C 0.8256(5) 0.8418(2) 0.2058(5)
H44_2 H 0.8770 0.8468 0.2421
C63_2 C 0.7543(5) 0.86968(14) 0.2123(3)
C66_2 C 0.6797(6) 0.8619(2) 0.1579(5)
H47_2 H 0.6287 0.8803 0.1591
C69_2 C 0.6851(8) 0.8250(3) 0.1012(5)
H50_2 H 0.6347 0.8188 0.0642
C72_2 C 0.7598(4) 0.90719(12) 0.2806(3)
C75_2 C 0.8302(3) 0.91343(13) 0.3384(3)
H53_2 H 0.8823 0.8960 0.3321
C78_2 C 0.8262(3) 0.94473(12) 0.4055(3)
H56_2 H 0.8752 0.9480 0.4460
C81_2 C 0.7526(3) 0.97161(10) 0.4154(3)
C84_2 C 0.6820(3) 0.96602(11) 0.3567(3)
H59_2 H 0.6308 0.9841 0.3630
C87_2 C 0.6837(3) 0.93469(13) 0.2887(3)
H62_2 H 0.6348 0.9316 0.2480
loop_
_geom_bond_atom_site_label_1
_geom_bond_atom_site_label_2
_geom_bond_site_symmetry_1
_geom_bond_site_symmetry_2
N2 C12 1_555 1_555
C12 H9 1_555 1_555
C13 C12 1_555 1_555
H10 C13 1_555 1_555
C14 C13 1_555 1_555
C15 C14 1_555 1_555
H11 C15 1_555 1_555
C16 N2 1_555 1_555
H12 C16 1_555 1_555
C17 C14 1_555 1_555
C18 C17 1_555 1_555
H13 C18 1_555 1_555
C19 C18 1_555 1_555
H14 C19 1_555 1_555
C20 C19 1_555 1_555
C21 C20 1_555 1_555
H15 C21 1_555 1_555
C22 C17 1_555 1_555
H16 C22 1_555 1_555
Cu5 N2 1_555 1_555
N8 C57 1_555 1_555
N11 Cu5 1_555 1_555
C57 H41 1_555 1_555
C60 C57 1_555 1_555
H44 C60 1_555 1_555
C63 C60 1_555 1_555
C66 C63 1_555 1_555
H47 C66 1_555 1_555
C69 N8 1_555 1_555
H50 C69 1_555 1_555
C72 C63 1_555 1_555
C75 C72 1_555 1_555
H53 C75 1_555 1_555
C78 C75 1_555 1_555
H56 C78 1_555 1_555
C84 C81 1_555 1_555
H59 C84 1_555 1_555
C87 C72 1_555 1_555
H62 C87 1_555 1_555
Cu5_2 N8 1_555 1_555
C15 C16 1_555 1_555
C21 C22 1_555 1_555
C66 C69 1_555 1_555
C78 C81 1_555 1_555
C84 C87 1_555 1_555
N13 Cu5_2 1_555 1_555
C7 C6 1_555 1_555
H5 C7 1_555 1_555
C8 C7 1_555 1_555
H6 C8 1_555 1_555
C9 C8 1_555 1_555
C10 C9 1_555 1_555
H7 C10 1_555 1_555
C11 C6 1_555 1_555
H8 C11 1_555 1_555
C23 C9 1_555 1_555
Cu3 N3 1_555 1_555
N3 C24 1_555 1_555
C24 H17 1_555 1_555
C27 C24 1_555 1_555
H20 C27 1_555 1_555
C30 C27 1_555 1_555
C33 C30 1_555 1_555
H23 C33 1_555 1_555
C36 N3 1_555 1_555
H26 C36 1_555 1_555
C39 C30 1_555 1_555
C42 C39 1_555 1_555
H29 C42 1_555 1_555
C45 C42 1_555 1_555
H32 C45 1_555 1_555
C48 C23 1_555 1_555
C51 C48 1_555 1_555
H35 C51 1_555 1_555
C54 C39 1_555 1_555
H38 C54 1_555 1_555
C10 C11 1_555 1_555
C33 C36 1_555 1_555
C45 C48 1_555 1_555
C51 C54 1_555 1_555
Cu3 Cl2 1_555 1_555
N1 Cu3 1_555 1_555
C1 N1 1_555 1_555
H1 C1 1_555 1_555
C2 C1 1_555 1_555
C3 C2 1_555 1_555
C4 C3 1_555 1_555
H3 C4 1_555 1_555
C5 N1 1_555 1_555
H4 C5 1_555 1_555
Cl3 Cu3 1_555 1_555
N4 Cu3 1_555 1_555
N7 Cu3 1_555 1_555
C25 N4 1_555 1_555
H18 C25 1_555 1_555
C28 C25 1_555 1_555
H21 C28 1_555 1_555
C31 C28 1_555 1_555
C34 C31 1_555 1_555
H24 C34 1_555 1_555
C37 N4 1_555 1_555
H27 C37 1_555 1_555
C40 C31 1_555 1_555
C43 C40 1_555 1_555
C44 C41 1_555 1_555
H30 C43 1_555 1_555
H31 C44 1_555 1_555
C46 C43 1_555 1_555
C47 C44 1_555 1_555
H33 C46 1_555 1_555
H34 C47 1_555 1_555
C49 C46 1_555 1_555
C50 C47 1_555 1_555
C52 C49 1_555 1_555
C53 C50 1_555 1_555
H36 C52 1_555 1_555
H37 C53 1_555 1_555
C55 C40 1_555 1_555
C56 C41 1_555 1_555
H39 C55 1_555 1_555
H40 C56 1_555 1_555
N11 C58 1_555 1_555
N13 C59 1_555 1_555
C58 H42 1_555 1_555
C59 H43 1_555 1_555
C61 C58 1_555 1_555
C62 C59 1_555 1_555
H45 C61 1_555 1_555
H46 C62 1_555 1_555
C64 C61 1_555 1_555
C65 C62 1_555 1_555
C67 C64 1_555 1_555
C68 C65 1_555 1_555
H48 C67 1_555 1_555
H49 C68 1_555 1_555
C70 N11 1_555 1_555
C71 N13 1_555 1_555
H51 C70 1_555 1_555
H52 C71 1_555 1_555
C73 C64 1_555 1_555
C74 C65 1_555 1_555
C76 C73 1_555 1_555
C77 C74 1_555 1_555
H54 C76 1_555 1_555
H55 C77 1_555 1_555
C79 C76 1_555 1_555
C80 C77 1_555 1_555
H57 C79 1_555 1_555
H58 C80 1_555 1_555
C82 C79 1_555 1_555
C83 C80 1_555 1_555
C85 C82 1_555 1_555
C86 C83 1_555 1_555
H60 C85 1_555 1_555
H61 C86 1_555 1_555
C88 C73 1_555 1_555
C89 C74 1_555 1_555
H63 C88 1_555 1_555
H64 C89 1_555 1_555
C90 C49 1_555 1_555
C4 C5 1_555 1_555
C34 C37 1_555 1_555
C50 C90 1_555 1_555
C52 C55 1_555 1_555
C53 C56 1_555 1_555
C67 C70 1_555 1_555
C68 C71 1_555 1_555
C82 C90 1_555 1_555
C83 C90 1_555 1_555
C85 C88 1_555 1_555
C86 C89 1_555 1_555
N7 C26 1_555 1_555
C26 H19 1_555 1_555
C29 C26 1_555 1_555
C32 C29 1_555 1_555
C35 C32 1_555 1_555
H25 C35 1_555 1_555
C38 N7 1_555 1_555
H28 C38 1_555 1_555
C35 C38 1_555 1_555
Cu4 N5 1_555 1_555
N5 C26_2 1_555 1_555
C26_2 H19_2 1_555 1_555
C29_2 C26_2 1_555 1_555
C32_2 C29_2 1_555 1_555
C35_2 C32_2 1_555 1_555
H25_2 C35_2 1_555 1_555
C38_2 N5 1_555 1_555
H28_2 C38_2 1_555 1_555
C35_2 C38_2 1_555 1_555
Cu4 Cl2_2 1_555 1_555
N1_2 Cu4 1_555 1_555
C1_2 N1_2 1_555 1_555
H1_2 C1_2 1_555 1_555
C2_2 C1_2 1_555 1_555
C3_2 C2_2 1_555 1_555
C4_2 C3_2 1_555 1_555
H3_2 C4_2 1_555 1_555
C5_2 N1_2 1_555 1_555
H4_2 C5_2 1_555 1_555
Cl3_2 Cu4 1_555 1_555
N4_2 Cu4 1_555 1_555
N6 Cu4 1_555 1_555
C25_2 N4_2 1_555 1_555
H18_2 C25_2 1_555 1_555
C28_2 C25_2 1_555 1_555
H21_2 C28_2 1_555 1_555
C31_2 C28_2 1_555 1_555
C34_2 C31_2 1_555 1_555
H24_2 C34_2 1_555 1_555
C37_2 N4_2 1_555 1_555
H27_2 C37_2 1_555 1_555
C40_2 C31_2 1_555 1_555
C43_2 C40_2 1_555 1_555
C44_2 C41_2 1_555 1_555
H30_2 C43_2 1_555 1_555
H31_2 C44_2 1_555 1_555
C46_2 C43_2 1_555 1_555
C47_2 C44_2 1_555 1_555
H33_2 C46_2 1_555 1_555
H34_2 C47_2 1_555 1_555
C49_2 C46_2 1_555 1_555
C50_2 C47_2 1_555 1_555
C52_2 C49_2 1_555 1_555
C53_2 C50_2 1_555 1_555
H36_2 C52_2 1_555 1_555
H37_2 C53_2 1_555 1_555
C55_2 C40_2 1_555 1_555
C56_2 C41_2 1_555 1_555
H39_2 C55_2 1_555 1_555
H40_2 C56_2 1_555 1_555
N9 C58_2 1_555 1_555
N10 C59_2 1_555 1_555
C58_2 H42_2 1_555 1_555
C59_2 H43_2 1_555 1_555
C61_2 C58_2 1_555 1_555
C62_2 C59_2 1_555 1_555
H45_2 C61_2 1_555 1_555
H46_2 C62_2 1_555 1_555
C64_2 C61_2 1_555 1_555
C65_2 C62_2 1_555 1_555
C67_2 C64_2 1_555 1_555
C68_2 C65_2 1_555 1_555
H48_2 C67_2 1_555 1_555
H49_2 C68_2 1_555 1_555
C70_2 N9 1_555 1_555
C71_2 N10 1_555 1_555
H51_2 C70_2 1_555 1_555
H52_2 C71_2 1_555 1_555
C73_2 C64_2 1_555 1_555
C74_2 C65_2 1_555 1_555
C76_2 C73_2 1_555 1_555
C77_2 C74_2 1_555 1_555
H54_2 C76_2 1_555 1_555
H55_2 C77_2 1_555 1_555
C79_2 C76_2 1_555 1_555
C80_2 C77_2 1_555 1_555
H57_2 C79_2 1_555 1_555
H58_2 C80_2 1_555 1_555
C82_2 C79_2 1_555 1_555
C83_2 C80_2 1_555 1_555
C85_2 C82_2 1_555 1_555
C86_2 C83_2 1_555 1_555
H60_2 C85_2 1_555 1_555
H61_2 C86_2 1_555 1_555
C88_2 C73_2 1_555 1_555
C89_2 C74_2 1_555 1_555
H63_2 C88_2 1_555 1_555
H64_2 C89_2 1_555 1_555
C90_2 C49_2 1_555 1_555
Cu6_2 N9 1_555 1_555
Cu6 N10 1_555 1_555
C4_2 C5_2 1_555 1_555
C34_2 C37_2 1_555 1_555
C50_2 C90_2 1_555 1_555
C52_2 C55_2 1_555 1_555
C53_2 C56_2 1_555 1_555
C67_2 C70_2 1_555 1_555
C68_2 C71_2 1_555 1_555
C82_2 C90_2 1_555 1_555
C83_2 C90_2 1_555 1_555
C85_2 C88_2 1_555 1_555
C86_2 C89_2 1_555 1_555
C7_2 C6_2 1_555 1_555
H5_2 C7_2 1_555 1_555
C8_2 C7_2 1_555 1_555
H6_2 C8_2 1_555 1_555
C9_2 C8_2 1_555 1_555
C10_2 C9_2 1_555 1_555
H7_2 C10_2 1_555 1_555
C11_2 C6_2 1_555 1_555
H8_2 C11_2 1_555 1_555
C23_2 C9_2 1_555 1_555
N6 C24_2 1_555 1_555
C24_2 H17_2 1_555 1_555
C27_2 C24_2 1_555 1_555
H20_2 C27_2 1_555 1_555
C30_2 C27_2 1_555 1_555
C33_2 C30_2 1_555 1_555
H23_2 C33_2 1_555 1_555
C36_2 N6 1_555 1_555
H26_2 C36_2 1_555 1_555
C39_2 C30_2 1_555 1_555
C42_2 C39_2 1_555 1_555
H29_2 C42_2 1_555 1_555
C45_2 C42_2 1_555 1_555
H32_2 C45_2 1_555 1_555
C48_2 C23_2 1_555 1_555
C51_2 C48_2 1_555 1_555
H35_2 C51_2 1_555 1_555
C54_2 C39_2 1_555 1_555
H38_2 C54_2 1_555 1_555
C10_2 C11_2 1_555 1_555
C33_2 C36_2 1_555 1_555
C45_2 C48_2 1_555 1_555
C51_2 C54_2 1_555 1_555
N12 Cu6 1_555 1_555
N2_2 C12_2 1_555 1_555
C12_2 H9_2 1_555 1_555
C13_2 C12_2 1_555 1_555
H10_2 C13_2 1_555 1_555
C14_2 C13_2 1_555 1_555
C15_2 C14_2 1_555 1_555
H11_2 C15_2 1_555 1_555
C16_2 N2_2 1_555 1_555
H12_2 C16_2 1_555 1_555
C17_2 C14_2 1_555 1_555
C18_2 C17_2 1_555 1_555
H13_2 C18_2 1_555 1_555
C19_2 C18_2 1_555 1_555
H14_2 C19_2 1_555 1_555
C20_2 C19_2 1_555 1_555
C21_2 C20_2 1_555 1_555
H15_2 C21_2 1_555 1_555
C22_2 C17_2 1_555 1_555
H16_2 C22_2 1_555 1_555
Cu6_2 N2_2 1_555 1_555
N12 C57_2 1_555 1_555
C57_2 H41_2 1_555 1_555
C60_2 C57_2 1_555 1_555
H44_2 C60_2 1_555 1_555
C63_2 C60_2 1_555 1_555
C66_2 C63_2 1_555 1_555
H47_2 C66_2 1_555 1_555
C69_2 N12 1_555 1_555
H50_2 C69_2 1_555 1_555
C72_2 C63_2 1_555 1_555
C75_2 C72_2 1_555 1_555
H53_2 C75_2 1_555 1_555
C78_2 C75_2 1_555 1_555
H56_2 C78_2 1_555 1_555
C84_2 C81_2 1_555 1_555
H59_2 C84_2 1_555 1_555
C87_2 C72_2 1_555 1_555
H62_2 C87_2 1_555 1_555
C15_2 C16_2 1_555 1_555
C21_2 C22_2 1_555 1_555
C66_2 C69_2 1_555 1_555
C78_2 C81_2 1_555 1_555
C84_2 C87_2 1_555 1_555

#END
