
###############################################################################
#
# This file contains modified crystal structure data generated from the
# MOF subset of the Cambridge Structural Database (CSD) v543 
# hosted by the Cambridge Crystallographic Data Centre (CCDC).
#
# This work is licensed under the Creative Commons
# Attribution-NonCommercial-ShareAlike 4.0 International License.
# To view a copy of this license, visit
# http://creativecommons.org/licenses/by-nc-sa/4.0/
# or send a letter to
# Creative Commons, PO Box 1866, Mountain View, CA 94042, USA.
#
# CIF created using the CSD Python API on 29 September 2022
# The structure has been converted into the P1 space group
# The structure has a 3D framework
# The original CSD entry IVILEG is in the orthorhombic crystal system
# The framework has been calculated to contain at least 10.0% void space
# The void calculation uses a probe of radius 1.32A, grid spacing 0.4
# The framework is charged, counterions have been retained in the structure
# H atom positions have been added when not included in the experimental data
# Generated hydrogen atom positions removed from atoms on special positions
#
###############################################################################

data_IVILEG
_chemical_formula_moiety         '(C216 H196 N40 O37 Zn22 7+)n'
_symmetry_cell_setting           triclinic
_symmetry_space_group_name_H-M   'P 1'
_symmetry_Int_Tables_number      1
_space_group_name_Hall           'P 1'
loop_
_symmetry_equiv_pos_site_id
_symmetry_equiv_pos_as_xyz
1 x,y,z
_cell_length_a                   32.1446(5)
_cell_length_b                   32.1446(5)
_cell_length_c                   10.9808(2)
_cell_angle_alpha                90
_cell_angle_beta                 90
_cell_angle_gamma                90
_cell_volume                     11346.2
loop_
_atom_site_label
_atom_site_type_symbol
_atom_site_fract_x
_atom_site_fract_y
_atom_site_fract_z
O4 O 0.65682(17) 0.1572(2) 0.6791(4)
O5 O 0.6812(3) 0.1816(3) 0.5045(5)
C2 C 0.6588(3) 0.1556(3) 0.5675(7)
C7 C 0.5996(2) 0.1111(2) 0.5401(5)
H5 H 0.5888 0.1241 0.6089
C8 C 0.5759(2) 0.0820(2) 0.4773(8)
H6 H 0.5492 0.0755 0.5041
C9 C 0.5920(2) 0.0627(2) 0.3744(8)
C10 C 0.6318(3) 0.0724(2) 0.3343(6)
H7 H 0.6426 0.0595 0.2654
C11 C 0.6555(3) 0.1015(2) 0.3970(7)
H8 H 0.6822 0.1081 0.3702
C12 C 0.6394(2) 0.1209(2) 0.5000(7)
C20 C 0.5684(7) 0.0292(6) 0.3142(19)
C23 C 0.5625(10) 0.0288(8) 0.187(2)
H13 H 0.5626 0.0000 0.4844
C26 C 0.5736(13) 0.0638(13) 0.099(3)
H15 H 0.6034 0.0642 0.0925
H16 H 0.5618 0.0566 0.0214
H17 H 0.5638 0.0908 0.1229
Zn15 Zn 0.71616(2) 0.21609(2) 0.60755(5)
Zn1 Zn 0.2500 0.89931(3) 0.0000
Zn2 Zn 0.39930(2) 0.7500 0.0000
O2 O 0.41850(14) 0.79995(18) 0.0881(6)
N3 N 0.34388(19) 0.8437(2) 0.0176(4)
H1 H 0.3275 0.8647 0.0232
H2 H 0.3650 0.8417 0.0651
C13 C 0.4500(4) 0.8142(5) 0.0290(13)
C14 C 0.4741(4) 0.8472(4) 0.0820(13)
C15 C 0.4641(4) 0.8633(5) 0.1957(13)
H9 H 0.4430 0.8513 0.2416
C16 C 0.4856(5) 0.8975(5) 0.2410(15)
H10 H 0.4789 0.9083 0.3170
C17 C 0.5172(5) 0.9155(5) 0.1724(17)
C18 C 0.5272(5) 0.8994(5) 0.0587(16)
H11 H 0.5483 0.9115 0.0128
C19 C 0.5057(5) 0.8653(6) 0.0135(13)
C21 C 0.5413(4) 0.9510(5) 0.214(2)
C22 C 0.5496(6) 0.9618(7) 0.334(2)
C24 C 0.5607(8) 0.9976(7) 0.400(2)
H13_2 H 0.5626 1.0000 0.4844
C25 C 0.5428(8) 0.9909(7) 0.157(2)
H14 H 0.5278 0.9922 0.0844
C27 C 0.5531(13) 0.9262(12) 0.402(3)
H18 H 0.5363 0.9318 0.4726
H19 H 0.5812 0.9209 0.4272
H20 H 0.5424 0.9023 0.3603
Zn4 Zn 0.2500 0.60069(3) 0.0000
Zn5 Zn 0.10070(2) 0.7500 0.0000
O7 O 0.08150(14) 0.70005(18) 0.0881(6)
N8 N 0.15612(19) 0.6563(2) 0.0176(4)
H21 H 0.1725 0.6353 0.0232
H22 H 0.1350 0.6583 0.0651
C40 C 0.0500(4) 0.6858(5) 0.0290(13)
C41 C 0.0259(4) 0.6528(4) 0.0820(13)
C42 C 0.0359(4) 0.6367(5) 0.1957(13)
H29 H 0.0570 0.6487 0.2416
C43 C 0.0144(5) 0.6025(5) 0.2410(15)
H30 H 0.0211 0.5917 0.3170
O15 O 0.4587(4) 0.7041(5) 0.0714(9)
H56 H 0.5124 0.6455 0.0626
O20 O 0.30052(18) 0.91895(17) 0.0881(5)
O21 O 0.19948(18) 0.58105(17) 0.0881(5)
N21 N 0.27538(17) 0.64414(16) 0.1199(5)
N22 N 0.22462(17) 0.85586(16) 0.1199(5)
N23 N 0.35782(10) 0.72580(14) 0.1102(3)
N24 N 0.14218(10) 0.77420(14) 0.1102(3)
O26 O 0.0413(4) 0.7959(5) 0.0714(9)
Zn1_2 Zn 0.2500 0.89931(3) 1.0000
Zn2_2 Zn 0.39930(2) 0.7500 1.0000
Zn3 Zn 0.28384(2) 0.71609(2) 0.60755(5)
O1 O 0.2500 0.7500 0.5000
N1 N 0.27538(17) 0.85586(16) 0.8801(5)
O3 O 0.19948(18) 0.91895(17) 0.9119(5)
N2 N 0.25632(17) 0.81067(17) 0.7214(5)
C1 C 0.2452(2) 0.8479(3) 0.7826(7)
H3 H 0.2225 0.8646 0.7639
C3 C 0.33529(15) 0.80943(15) 0.9221(4)
C4 C 0.29962(15) 0.82003(15) 0.8576(4)
C5 C 0.28648(11) 0.79541(15) 0.7609(3)
N4 N 0.30901(11) 0.76018(13) 0.7287(3)
C6 C 0.34468(11) 0.74957(12) 0.7932(3)
H4 H 0.3598 0.7260 0.7716
N5 N 0.35782(10) 0.77420(14) 0.8898(3)
O6 O 0.4587(4) 0.7959(5) 0.9286(9)
H12 H 0.5124 0.8545 0.9374
Zn4_2 Zn 0.2500 0.60069(3) 1.0000
Zn5_2 Zn 0.10070(2) 0.7500 1.0000
Zn6 Zn 0.21616(2) 0.78391(2) 0.60755(5)
N6 N 0.22462(17) 0.64414(16) 0.8801(5)
O8 O 0.30052(18) 0.58105(17) 0.9119(5)
N7 N 0.24368(17) 0.68933(17) 0.7214(5)
C28 C 0.2548(2) 0.6521(3) 0.7826(7)
H23 H 0.2775 0.6354 0.7639
C30 C 0.16471(15) 0.69057(15) 0.9221(4)
C31 C 0.20038(15) 0.67997(15) 0.8576(4)
C32 C 0.21352(11) 0.70459(15) 0.7609(3)
N9 N 0.19099(11) 0.73982(13) 0.7287(3)
C33 C 0.15532(11) 0.75043(12) 0.7932(3)
H24 H 0.1402 0.7740 0.7716
N10 N 0.14218(10) 0.72580(14) 0.8898(3)
O11 O 0.0413(4) 0.7041(5) 0.9286(9)
Zn7 Zn 0.28384(2) 0.78391(2) 0.39245(5)
N12 N 0.25632(17) 0.68933(17) 0.2786(5)
C55 C 0.2452(2) 0.6521(3) 0.2174(7)
H43 H 0.2225 0.6354 0.2361
C56 C 0.33529(15) 0.69057(15) 0.0779(4)
C57 C 0.29962(15) 0.67997(15) 0.1424(4)
C58 C 0.28648(11) 0.70459(15) 0.2391(3)
N14 N 0.30901(11) 0.73982(13) 0.2713(3)
C59 C 0.34468(11) 0.75043(12) 0.2068(3)
H44 H 0.3598 0.7740 0.2284
Zn8 Zn 0.21616(2) 0.71609(2) 0.39245(5)
N17 N 0.24368(17) 0.81067(17) 0.2786(5)
C60 C 0.2548(2) 0.8479(3) 0.2174(7)
H47 H 0.2775 0.8646 0.2361
C61 C 0.16471(15) 0.80943(15) 0.0779(4)
C62 C 0.20038(15) 0.82003(15) 0.1424(4)
C63 C 0.21352(11) 0.79541(15) 0.2391(3)
N19 N 0.19099(11) 0.76018(13) 0.2713(3)
C64 C 0.15532(11) 0.74957(12) 0.2068(3)
H48 H 0.1402 0.7260 0.2284
O12 O 0.41850(14) 0.70005(18) 0.9119(6)
O13 O 0.65682(17) 0.3428(2) 0.3209(4)
O14 O 0.6812(3) 0.3184(3) 0.4955(5)
C65 C 0.6588(3) 0.3444(3) 0.4325(7)
C66 C 0.5996(2) 0.3889(2) 0.4599(5)
H49 H 0.5888 0.3759 0.3911
C67 C 0.5759(2) 0.4180(2) 0.5227(8)
H50 H 0.5492 0.4245 0.4959
C68 C 0.5920(2) 0.4373(2) 0.6256(8)
C69 C 0.6318(3) 0.4276(2) 0.6657(6)
H51 H 0.6426 0.4405 0.7346
C70 C 0.6555(3) 0.3985(2) 0.6030(7)
H52 H 0.6822 0.3919 0.6298
C71 C 0.6394(2) 0.3791(2) 0.5000(7)
C72 C 0.4500(4) 0.6858(5) 0.9710(13)
C73 C 0.4741(4) 0.6528(4) 0.9180(13)
C74 C 0.4641(4) 0.6367(5) 0.8043(13)
H53 H 0.4430 0.6487 0.7584
C75 C 0.4856(5) 0.6025(5) 0.7590(15)
H54 H 0.4789 0.5917 0.6830
C76 C 0.5172(5) 0.5845(5) 0.8276(17)
C77 C 0.5272(5) 0.6006(5) 0.9413(16)
H55 H 0.5483 0.5885 0.9872
C78 C 0.5057(5) 0.6347(6) 0.9865(13)
C79 C 0.5684(7) 0.4708(6) 0.6858(19)
C80 C 0.5413(4) 0.5490(5) 0.786(2)
C81 C 0.5496(6) 0.5382(7) 0.666(2)
C82 C 0.5625(10) 0.4712(8) 0.813(2)
C83 C 0.5607(8) 0.5024(7) 0.600(2)
H57 H 0.5626 0.5000 0.5156
C84 C 0.5428(8) 0.5091(7) 0.843(2)
H58 H 0.5278 0.5078 0.9156
C85 C 0.5736(13) 0.4362(13) 0.901(3)
H59 H 0.6034 0.4358 0.9075
H60 H 0.5618 0.4434 0.9786
H61 H 0.5638 0.4092 0.8771
C86 C 0.5531(13) 0.5738(12) 0.598(3)
H62 H 0.5363 0.5682 0.5274
H63 H 0.5812 0.5791 0.5728
H64 H 0.5424 0.5977 0.6397
O16 O 0.58150(14) 0.29995(18) 0.0881(6)
O17 O 0.34318(17) 0.6572(2) 0.6791(4)
O18 O 0.3188(3) 0.6816(3) 0.5045(5)
C87 C 0.3412(3) 0.6556(3) 0.5675(7)
C88 C 0.4004(2) 0.6111(2) 0.5401(5)
H65 H 0.4112 0.6241 0.6089
C89 C 0.4241(2) 0.5820(2) 0.4773(8)
H66 H 0.4508 0.5755 0.5041
C90 C 0.4080(2) 0.5627(2) 0.3744(8)
C91 C 0.3682(3) 0.5724(2) 0.3343(6)
H67 H 0.3574 0.5595 0.2654
C92 C 0.3445(3) 0.6015(2) 0.3970(7)
H68 H 0.3178 0.6081 0.3702
C93 C 0.3606(2) 0.6209(2) 0.5000(7)
C94 C 0.5500(4) 0.3142(5) 0.0290(13)
C95 C 0.5259(4) 0.3472(4) 0.0820(13)
C96 C 0.5359(4) 0.3633(5) 0.1957(13)
H69 H 0.5570 0.3513 0.2416
C97 C 0.5144(5) 0.3975(5) 0.2410(15)
H70 H 0.5211 0.4083 0.3170
C98 C 0.4828(5) 0.4155(5) 0.1724(17)
C99 C 0.4728(5) 0.3994(5) 0.0587(16)
H71 H 0.4517 0.4115 0.0128
C100 C 0.4943(5) 0.3653(6) 0.0135(13)
C101 C 0.4316(7) 0.5292(6) 0.3142(19)
C102 C 0.4587(4) 0.4510(5) 0.214(2)
C103 C 0.4504(6) 0.4618(7) 0.334(2)
C104 C 0.4375(10) 0.5288(8) 0.187(2)
C105 C 0.4393(8) 0.4976(7) 0.400(2)
H73 H 0.4374 0.5000 0.4844
C106 C 0.4572(8) 0.4909(7) 0.157(2)
H74 H 0.4722 0.4922 0.0844
C107 C 0.4264(13) 0.5638(13) 0.099(3)
H75 H 0.3966 0.5642 0.0925
H76 H 0.4382 0.5566 0.0214
H77 H 0.4362 0.5908 0.1229
C108 C 0.4469(13) 0.4262(12) 0.402(3)
H78 H 0.4637 0.4318 0.4726
H79 H 0.4188 0.4209 0.4272
H80 H 0.4576 0.4023 0.3603
Zn13 Zn 0.60070(2) 0.2500 0.0000
Zn14 Zn 0.71616(2) 0.28391(2) 0.39245(5)
O22 O 0.08150(14) 0.79995(18) 0.9119(6)
O23 O 0.3188(3) 0.8184(3) 0.4955(5)
O24 O 0.1812(3) 0.6816(3) 0.4955(5)
O25 O 0.1812(3) 0.8184(3) 0.5045(5)
N13 N 0.34388(19) 0.6563(2) 0.9824(4)
H41 H 0.3275 0.6353 0.9768
H42 H 0.3650 0.6583 0.9349
N18 N 0.15612(19) 0.8437(2) 0.9824(4)
H45 H 0.1725 0.8647 0.9768
H46 H 0.1350 0.8417 0.9349
O19 O 0.5413(4) 0.2959(5) 0.9286(9)
H72 H 0.4876 0.3545 0.9374
Zn13_2 Zn 0.60070(2) 0.2500 1.0000
O9 O 0.84318(17) 0.3428(2) 0.6791(4)
O10 O 0.8188(3) 0.3184(3) 0.5045(5)
C29 C 0.8412(3) 0.3444(3) 0.5675(7)
C34 C 0.9004(2) 0.3889(2) 0.5401(5)
H25 H 0.9112 0.3759 0.6089
C35 C 0.9241(2) 0.4180(2) 0.4773(8)
H26 H 0.9508 0.4245 0.5041
C36 C 0.9080(2) 0.4373(2) 0.3744(8)
C37 C 0.8682(3) 0.4276(2) 0.3343(6)
H27 H 0.8574 0.4405 0.2654
C38 C 0.8445(3) 0.3985(2) 0.3970(7)
H28 H 0.8178 0.3919 0.3702
C39 C 0.8606(2) 0.3791(2) 0.5000(7)
C44 C 0.9828(5) 0.5845(5) 0.1724(17)
C45 C 0.9728(5) 0.6006(5) 0.0587(16)
H31 H 0.9517 0.5885 0.0128
C46 C 0.9943(5) 0.6347(6) 0.0135(13)
C47 C 0.9316(7) 0.4708(6) 0.3142(19)
C48 C 0.9587(4) 0.5490(5) 0.214(2)
C49 C 0.9504(6) 0.5382(7) 0.334(2)
C50 C 0.9375(10) 0.4712(8) 0.187(2)
C51 C 0.9393(8) 0.5024(7) 0.400(2)
H33 H 0.9374 0.5000 0.4844
C52 C 0.9572(8) 0.5091(7) 0.157(2)
H34 H 0.9722 0.5078 0.0844
C53 C 0.9264(13) 0.4362(13) 0.099(3)
H35 H 0.8966 0.4358 0.0925
H36 H 0.9382 0.4434 0.0214
H37 H 0.9362 0.4092 0.1229
C54 C 0.9469(13) 0.5738(12) 0.402(3)
H38 H 0.9637 0.5682 0.4726
H39 H 0.9188 0.5791 0.4272
H40 H 0.9576 0.5977 0.3603
Zn16 Zn 0.78384(2) 0.28391(2) 0.60755(5)
H32 H 0.9876 0.6455 0.9374
C98_2 C 0.0172(5) 0.0845(5) 0.1724(17)
C99_2 C 0.0272(5) 0.1006(5) 0.0587(16)
H71_2 H 0.0483 0.0885 0.0128
C100_2 C 0.0057(5) 0.1347(6) 0.0135(13)
C102_2 C 0.0413(4) 0.0490(5) 0.214(2)
C103_2 C 0.0496(6) 0.0382(7) 0.334(2)
C105_2 C 0.0607(8) 0.0024(7) 0.400(2)
H73_2 H 0.0626 0.0000 0.4844
C106_2 C 0.0428(8) 0.0091(7) 0.157(2)
H74_2 H 0.0278 0.0078 0.0844
C108_2 C 0.0531(13) 0.0738(12) 0.402(3)
H78_2 H 0.0363 0.0682 0.4726
H79_2 H 0.0812 0.0791 0.4272
H80_2 H 0.0424 0.0977 0.3603
H72_2 H 0.0124 0.1455 0.9374
C72_2 C 0.0500(4) 0.8142(5) 0.9710(13)
C73_2 C 0.0259(4) 0.8472(4) 0.9180(13)
C74_2 C 0.0359(4) 0.8633(5) 0.8043(13)
H53_2 H 0.0570 0.8513 0.7584
C75_2 C 0.0144(5) 0.8975(5) 0.7590(15)
H54_2 H 0.0211 0.9083 0.6830
O17_2 O 0.15682(17) 0.8428(2) 0.6791(4)
C87_2 C 0.1588(3) 0.8444(3) 0.5675(7)
C88_2 C 0.0996(2) 0.8889(2) 0.5401(5)
H65_2 H 0.0888 0.8759 0.6089
C89_2 C 0.0759(2) 0.9180(2) 0.4773(8)
H66_2 H 0.0492 0.9245 0.5041
C90_2 C 0.0920(2) 0.9373(2) 0.3744(8)
C91_2 C 0.1318(3) 0.9276(2) 0.3343(6)
H67_2 H 0.1426 0.9405 0.2654
C92_2 C 0.1555(3) 0.8985(2) 0.3970(7)
H68_2 H 0.1822 0.8919 0.3702
C93_2 C 0.1394(2) 0.8791(2) 0.5000(7)
C101_2 C 0.0684(7) 0.9708(6) 0.3142(19)
C104_2 C 0.0625(10) 0.9712(8) 0.187(2)
H73_3 H 0.0626 1.0000 0.4844
C107_2 C 0.0736(13) 0.9362(13) 0.099(3)
H75_2 H 0.1034 0.9358 0.0925
H76_2 H 0.0618 0.9434 0.0214
H77_2 H 0.0638 0.9092 0.1229
O13_2 O 0.84318(17) 0.1572(2) 0.3209(4)
O14_2 O 0.8188(3) 0.1816(3) 0.4955(5)
C65_2 C 0.8412(3) 0.1556(3) 0.4325(7)
C66_2 C 0.9004(2) 0.1111(2) 0.4599(5)
H49_2 H 0.9112 0.1241 0.3911
C67_2 C 0.9241(2) 0.0820(2) 0.5227(8)
H50_2 H 0.9508 0.0755 0.4959
C68_2 C 0.9080(2) 0.0627(2) 0.6256(8)
C69_2 C 0.8682(3) 0.0724(2) 0.6657(6)
H51_2 H 0.8574 0.0595 0.7346
C70_2 C 0.8445(3) 0.1015(2) 0.6030(7)
H52_2 H 0.8178 0.1081 0.6298
C71_2 C 0.8606(2) 0.1209(2) 0.5000(7)
C79_2 C 0.9316(7) 0.0292(6) 0.6858(19)
C82_2 C 0.9375(10) 0.0288(8) 0.813(2)
H57_2 H 0.9374 -0.0000 0.5156
C85_2 C 0.9264(13) 0.0638(13) 0.901(3)
H59_2 H 0.8966 0.0642 0.9075
H60_2 H 0.9382 0.0566 0.9786
H61_2 H 0.9362 0.0908 0.8771
O16_2 O 0.91850(14) 0.20005(18) 0.0881(6)
C94_2 C 0.9500(4) 0.1858(5) 0.0290(13)
C95_2 C 0.9741(4) 0.1528(4) 0.0820(13)
C96_2 C 0.9641(4) 0.1367(5) 0.1957(13)
H69_2 H 0.9430 0.1487 0.2416
C97_2 C 0.9856(5) 0.1025(5) 0.2410(15)
H70_2 H 0.9789 0.0917 0.3170
Zn13_3 Zn 0.89930(2) 0.2500 0.0000
Zn14_2 Zn 0.78384(2) 0.21609(2) 0.39245(5)
O19_2 O 0.9587(4) 0.2041(5) 0.9286(9)
Zn13_4 Zn 0.89930(2) 0.2500 1.0000
H56_2 H 0.9876 0.8545 0.0626
C76_2 C 0.9828(5) 0.9155(5) 0.8276(17)
C77_2 C 0.9728(5) 0.8994(5) 0.9413(16)
H55_2 H 0.9517 0.9115 0.9872
C78_2 C 0.9943(5) 0.8653(6) 0.9865(13)
C80_2 C 0.9587(4) 0.9510(5) 0.786(2)
C81_2 C 0.9504(6) 0.9618(7) 0.666(2)
C83_2 C 0.9393(8) 0.9976(7) 0.600(2)
H57_3 H 0.9374 1.0000 0.5156
C84_2 C 0.9572(8) 0.9909(7) 0.843(2)
H58_2 H 0.9722 0.9922 0.9156
C86_2 C 0.9469(13) 0.9262(12) 0.598(3)
H62_2 H 0.9637 0.9318 0.5274
H63_2 H 0.9188 0.9209 0.5728
H64_2 H 0.9576 0.9023 0.6397
O19_3 O 0.5413(4) 0.2041(5) 0.0714(9)
H72_3 H 0.4876 0.1455 0.0626
O16_3 O 0.58150(14) 0.20005(18) 0.9119(6)
C94_3 C 0.5500(4) 0.1858(5) 0.9710(13)
C95_3 C 0.5259(4) 0.1528(4) 0.9180(13)
C96_3 C 0.5359(4) 0.1367(5) 0.8043(13)
H69_3 H 0.5570 0.1487 0.7584
C97_3 C 0.5144(5) 0.1025(5) 0.7590(15)
H70_3 H 0.5211 0.0917 0.6830
C98_3 C 0.4828(5) 0.0845(5) 0.8276(17)
C99_3 C 0.4728(5) 0.1006(5) 0.9413(16)
H71_3 H 0.4517 0.0885 0.9872
C100_3 C 0.4943(5) 0.1347(6) 0.9865(13)
C102_3 C 0.4587(4) 0.0490(5) 0.786(2)
C103_3 C 0.4504(6) 0.0382(7) 0.666(2)
C105_3 C 0.4393(8) 0.0024(7) 0.600(2)
H73_4 H 0.4374 -0.0000 0.5156
C106_3 C 0.4572(8) 0.0091(7) 0.843(2)
H74_3 H 0.4722 0.0078 0.9156
C108_3 C 0.4469(13) 0.0738(12) 0.598(3)
H78_3 H 0.4637 0.0682 0.5274
H79_3 H 0.4188 0.0791 0.5728
H80_3 H 0.4576 0.0977 0.6397
O17_3 O 0.34318(17) 0.8428(2) 0.3209(4)
C87_3 C 0.3412(3) 0.8444(3) 0.4325(7)
C88_3 C 0.4004(2) 0.8889(2) 0.4599(5)
H65_3 H 0.4112 0.8759 0.3911
C89_3 C 0.4241(2) 0.9180(2) 0.5227(8)
H66_3 H 0.4508 0.9245 0.4959
C90_3 C 0.4080(2) 0.9373(2) 0.6256(8)
C91_3 C 0.3682(3) 0.9276(2) 0.6657(6)
H67_3 H 0.3574 0.9405 0.7346
C92_3 C 0.3445(3) 0.8985(2) 0.6030(7)
H68_3 H 0.3178 0.8919 0.6298
C93_3 C 0.3606(2) 0.8791(2) 0.5000(7)
C101_3 C 0.4316(7) 0.9708(6) 0.6858(19)
C104_3 C 0.4375(10) 0.9712(8) 0.813(2)
H73_5 H 0.4374 1.0000 0.5156
C107_3 C 0.4264(13) 0.9362(13) 0.901(3)
H75_3 H 0.3966 0.9358 0.9075
H76_3 H 0.4382 0.9434 0.9786
H77_3 H 0.4362 0.9092 0.8771
H72_4 H 0.0124 0.3545 0.0626
O17_4 O 0.15682(17) 0.6572(2) 0.3209(4)
C87_4 C 0.1588(3) 0.6556(3) 0.4325(7)
C88_4 C 0.0996(2) 0.6111(2) 0.4599(5)
H65_4 H 0.0888 0.6241 0.3911
C89_4 C 0.0759(2) 0.5820(2) 0.5227(8)
H66_4 H 0.0492 0.5755 0.4959
C90_4 C 0.0920(2) 0.5627(2) 0.6256(8)
C91_4 C 0.1318(3) 0.5724(2) 0.6657(6)
H67_4 H 0.1426 0.5595 0.7346
C92_4 C 0.1555(3) 0.6015(2) 0.6030(7)
H68_4 H 0.1822 0.6081 0.6298
C93_4 C 0.1394(2) 0.6209(2) 0.5000(7)
C98_4 C 0.0172(5) 0.4155(5) 0.8276(17)
C99_4 C 0.0272(5) 0.3994(5) 0.9413(16)
H71_4 H 0.0483 0.4115 0.9872
C100_4 C 0.0057(5) 0.3653(6) 0.9865(13)
C101_4 C 0.0684(7) 0.5292(6) 0.6858(19)
C102_4 C 0.0413(4) 0.4510(5) 0.786(2)
C103_4 C 0.0496(6) 0.4618(7) 0.666(2)
C104_4 C 0.0625(10) 0.5288(8) 0.813(2)
C105_4 C 0.0607(8) 0.4976(7) 0.600(2)
H73_6 H 0.0626 0.5000 0.5156
C106_4 C 0.0428(8) 0.4909(7) 0.843(2)
H74_4 H 0.0278 0.4922 0.9156
C107_4 C 0.0736(13) 0.5638(13) 0.901(3)
H75_4 H 0.1034 0.5642 0.9075
H76_4 H 0.0618 0.5566 0.9786
H77_4 H 0.0638 0.5908 0.8771
C108_4 C 0.0531(13) 0.4262(12) 0.598(3)
H78_4 H 0.0363 0.4318 0.5274
H79_4 H 0.0812 0.4209 0.5728
H80_4 H 0.0424 0.4023 0.6397
O19_4 O 0.9587(4) 0.2959(5) 0.0714(9)
O16_4 O 0.91850(14) 0.29995(18) 0.9119(6)
C94_4 C 0.9500(4) 0.3142(5) 0.9710(13)
C95_4 C 0.9741(4) 0.3472(4) 0.9180(13)
C96_4 C 0.9641(4) 0.3633(5) 0.8043(13)
H69_4 H 0.9430 0.3513 0.7584
C97_4 C 0.9856(5) 0.3975(5) 0.7590(15)
H70_4 H 0.9789 0.4083 0.6830
N13_2 N 0.65612(19) 0.3437(2) 0.0176(4)
H41_2 H 0.6725 0.3647 0.0232
H42_2 H 0.6350 0.3417 0.0651
N18_2 N 0.84388(19) 0.1563(2) 0.0176(4)
H45_2 H 0.8275 0.1353 0.0232
H46_2 H 0.8650 0.1583 0.0651
Zn9 Zn 0.7500 0.10069(3) 0.0000
Zn10 Zn 0.7500 0.39931(3) 0.0000
O1_2 O 0.7500 0.2500 0.5000
N1_2 N 0.72462(17) 0.14414(16) 0.1199(5)
O3_2 O 0.80052(18) 0.08105(17) 0.0881(5)
N2_2 N 0.74368(17) 0.18933(17) 0.2786(5)
C1_2 C 0.7548(2) 0.1521(3) 0.2174(7)
H3_2 H 0.7775 0.1354 0.2361
C3_2 C 0.66471(15) 0.19057(15) 0.0779(4)
C4_2 C 0.70038(15) 0.17997(15) 0.1424(4)
C5_2 C 0.71352(11) 0.20459(15) 0.2391(3)
N4_2 N 0.69099(11) 0.23982(13) 0.2713(3)
C6_2 C 0.65532(11) 0.25043(12) 0.2068(3)
H4_2 H 0.6402 0.2740 0.2284
N5_2 N 0.64218(10) 0.22580(14) 0.1102(3)
N6_2 N 0.77538(17) 0.35586(16) 0.1199(5)
O8_2 O 0.69948(18) 0.41895(17) 0.0881(5)
N7_2 N 0.75632(17) 0.31067(17) 0.2786(5)
C28_2 C 0.7452(2) 0.3479(3) 0.2174(7)
H23_2 H 0.7225 0.3646 0.2361
C30_2 C 0.83529(15) 0.30943(15) 0.0779(4)
C31_2 C 0.79962(15) 0.32003(15) 0.1424(4)
C32_2 C 0.78648(11) 0.29541(15) 0.2391(3)
N9_2 N 0.80901(11) 0.26018(13) 0.2713(3)
C33_2 C 0.84468(11) 0.24957(12) 0.2068(3)
H24_2 H 0.8598 0.2260 0.2284
N10_2 N 0.85782(10) 0.27420(14) 0.1102(3)
N11 N 0.72462(17) 0.35586(16) 0.8801(5)
N12_2 N 0.74368(17) 0.31067(17) 0.7214(5)
C55_2 C 0.7548(2) 0.3479(3) 0.7826(7)
H43_2 H 0.7775 0.3646 0.7639
C56_2 C 0.66471(15) 0.30943(15) 0.9221(4)
C57_2 C 0.70038(15) 0.32003(15) 0.8576(4)
C58_2 C 0.71352(11) 0.29541(15) 0.7609(3)
N14_2 N 0.69099(11) 0.26018(13) 0.7287(3)
C59_2 C 0.65532(11) 0.24957(12) 0.7932(3)
H44_2 H 0.6402 0.2260 0.7716
N15 N 0.64218(10) 0.27420(14) 0.8898(3)
N16 N 0.77538(17) 0.14414(16) 0.8801(5)
N17_2 N 0.75632(17) 0.18933(17) 0.7214(5)
C60_2 C 0.7452(2) 0.1521(3) 0.7826(7)
H47_2 H 0.7225 0.1354 0.7639
C61_2 C 0.83529(15) 0.19057(15) 0.9221(4)
C62_2 C 0.79962(15) 0.17997(15) 0.8576(4)
C63_2 C 0.78648(11) 0.20459(15) 0.7609(3)
N19_2 N 0.80901(11) 0.23982(13) 0.7287(3)
C64_2 C 0.84468(11) 0.25043(12) 0.7932(3)
H48_2 H 0.8598 0.2740 0.7716
N20 N 0.85782(10) 0.22580(14) 0.8898(3)
Zn9_2 Zn 0.7500 0.10069(3) 1.0000
Zn10_2 Zn 0.7500 0.39931(3) 1.0000
N3_2 N 0.65612(19) 0.1563(2) 0.9824(4)
H1_2 H 0.6725 0.1353 0.9768
H2_2 H 0.6350 0.1583 0.9349
N8_2 N 0.84388(19) 0.3437(2) 0.9824(4)
H21_2 H 0.8275 0.3647 0.9768
H22_2 H 0.8650 0.3417 0.9349
O20_2 O 0.69948(18) 0.08105(17) 0.9119(5)
O21_2 O 0.80052(18) 0.41895(17) 0.9119(5)
loop_
_geom_bond_atom_site_label_1
_geom_bond_atom_site_label_2
_geom_bond_site_symmetry_1
_geom_bond_site_symmetry_2
O4 C2 1_555 1_555
O5 C2 1_555 1_555
C2 C12 1_555 1_555
C7 H5 1_555 1_555
C8 C7 1_555 1_555
H6 C8 1_555 1_555
C9 C8 1_555 1_555
C10 C9 1_555 1_555
H7 C10 1_555 1_555
C11 C10 1_555 1_555
H8 C11 1_555 1_555
C12 C7 1_555 1_555
C20 C9 1_555 1_555
C23 C20 1_555 1_555
C26 C23 1_555 1_555
H15 C26 1_555 1_555
H16 C26 1_555 1_555
H17 C26 1_555 1_555
Zn15 O5 1_555 1_555
C11 C12 1_555 1_555
Zn2 O2 1_555 1_555
O2 C13 1_555 1_555
N3 H1 1_555 1_555
H2 N3 1_555 1_555
C14 C13 1_555 1_555
C15 C14 1_555 1_555
H9 C15 1_555 1_555
C16 C15 1_555 1_555
H10 C16 1_555 1_555
C17 C16 1_555 1_555
C18 C17 1_555 1_555
H11 C18 1_555 1_555
C19 C14 1_555 1_555
C21 C17 1_555 1_555
C22 C21 1_555 1_555
H13_2 C24 1_555 1_555
C25 C21 1_555 1_555
H14 C25 1_555 1_555
C27 C22 1_555 1_555
H18 C27 1_555 1_555
H19 C27 1_555 1_555
H20 C27 1_555 1_555
Zn5 O7 1_555 1_555
O7 C40 1_555 1_555
N8 H21 1_555 1_555
H22 N8 1_555 1_555
C41 C40 1_555 1_555
C42 C41 1_555 1_555
H29 C42 1_555 1_555
C43 C42 1_555 1_555
H30 C43 1_555 1_555
O15 Zn2 1_555 1_555
O20 Zn1 1_555 1_555
O21 Zn4 1_555 1_555
N21 Zn4 1_555 1_555
N22 Zn1 1_555 1_555
N23 Zn2 1_555 1_555
N24 Zn5 1_555 1_555
O26 Zn5 1_555 1_555
C18 C19 1_555 1_555
C22 C24 1_555 1_555
Zn1_2 N1 1_555 1_555
Zn3 O1 1_555 1_555
O1 Zn6 1_555 1_555
N1 C1 1_555 1_555
O3 Zn1_2 1_555 1_555
N2 C1 1_555 1_555
C1 H3 1_555 1_555
C4 N1 1_555 1_555
C5 N2 1_555 1_555
N4 Zn3 1_555 1_555
C6 N4 1_555 1_555
H4 C6 1_555 1_555
N5 Zn2_2 1_555 1_555
O6 Zn2_2 1_555 1_555
Zn4_2 N6 1_555 1_555
Zn6 N2 1_555 1_555
N6 C28 1_555 1_555
O8 Zn4_2 1_555 1_555
N7 Zn3 1_555 1_555
C28 N7 1_555 1_555
H23 C28 1_555 1_555
C31 N6 1_555 1_555
C32 N7 1_555 1_555
N9 Zn6 1_555 1_555
C33 N9 1_555 1_555
H24 C33 1_555 1_555
N10 Zn5_2 1_555 1_555
O11 Zn5_2 1_555 1_555
Zn7 O1 1_555 1_555
N21 C55 1_555 1_555
N12 C55 1_555 1_555
C55 H43 1_555 1_555
C57 N21 1_555 1_555
C58 N12 1_555 1_555
N14 Zn7 1_555 1_555
C59 N14 1_555 1_555
H44 C59 1_555 1_555
N23 C56 1_555 1_555
Zn8 O1 1_555 1_555
N22 C60 1_555 1_555
N17 Zn7 1_555 1_555
C60 N17 1_555 1_555
H47 C60 1_555 1_555
C62 N22 1_555 1_555
C63 N17 1_555 1_555
N19 Zn8 1_555 1_555
C64 N19 1_555 1_555
H48 C64 1_555 1_555
N24 C61 1_555 1_555
O12 Zn2_2 1_555 1_555
O13 C65 1_555 1_555
O14 C65 1_555 1_555
C65 C71 1_555 1_555
C66 H49 1_555 1_555
C67 C66 1_555 1_555
H50 C67 1_555 1_555
C68 C67 1_555 1_555
C69 C68 1_555 1_555
H51 C69 1_555 1_555
C70 C69 1_555 1_555
H52 C70 1_555 1_555
C71 C66 1_555 1_555
C72 O12 1_555 1_555
C73 C72 1_555 1_555
C74 C73 1_555 1_555
H53 C74 1_555 1_555
C75 C74 1_555 1_555
H54 C75 1_555 1_555
C76 C75 1_555 1_555
C77 C76 1_555 1_555
H55 C77 1_555 1_555
C78 C73 1_555 1_555
C79 C68 1_555 1_555
C80 C76 1_555 1_555
C81 C80 1_555 1_555
C82 C79 1_555 1_555
C83 C79 1_555 1_555
H57 C83 1_555 1_555
C84 C80 1_555 1_555
H58 C84 1_555 1_555
C85 C82 1_555 1_555
H59 C85 1_555 1_555
H60 C85 1_555 1_555
H61 C85 1_555 1_555
C86 C81 1_555 1_555
H62 C86 1_555 1_555
H63 C86 1_555 1_555
H64 C86 1_555 1_555
O16 C94 1_555 1_555
O17 C87 1_555 1_555
O18 Zn3 1_555 1_555
C87 O18 1_555 1_555
C88 H65 1_555 1_555
C89 C88 1_555 1_555
H66 C89 1_555 1_555
C90 C89 1_555 1_555
C91 C90 1_555 1_555
H67 C91 1_555 1_555
C92 C91 1_555 1_555
H68 C92 1_555 1_555
C93 C87 1_555 1_555
C94 C95 1_555 1_555
C95 C96 1_555 1_555
C96 H69 1_555 1_555
C97 C96 1_555 1_555
H70 C97 1_555 1_555
C98 C97 1_555 1_555
C99 C98 1_555 1_555
H71 C99 1_555 1_555
C100 C95 1_555 1_555
C101 C90 1_555 1_555
C102 C98 1_555 1_555
C103 C102 1_555 1_555
C104 C101 1_555 1_555
C105 C101 1_555 1_555
H73 C105 1_555 1_555
C106 C102 1_555 1_555
H74 C106 1_555 1_555
C107 C104 1_555 1_555
H75 C107 1_555 1_555
H76 C107 1_555 1_555
H77 C107 1_555 1_555
C108 C103 1_555 1_555
H78 C108 1_555 1_555
H79 C108 1_555 1_555
H80 C108 1_555 1_555
Zn13 O16 1_555 1_555
Zn14 O14 1_555 1_555
O22 Zn5_2 1_555 1_555
O23 Zn7 1_555 1_555
O24 Zn8 1_555 1_555
O25 Zn6 1_555 1_555
C3 C4 1_555 1_555
C3 N5 1_555 1_555
C4 C5 1_555 1_555
C5 N4 1_555 1_555
C6 N5 1_555 1_555
C30 C31 1_555 1_555
C30 N10 1_555 1_555
C31 C32 1_555 1_555
C32 N9 1_555 1_555
C33 N10 1_555 1_555
N12 Zn8 1_555 1_555
C56 C57 1_555 1_555
C57 C58 1_555 1_555
C58 N14 1_555 1_555
C59 N23 1_555 1_555
C61 C62 1_555 1_555
C62 C63 1_555 1_555
C63 N19 1_555 1_555
C64 N24 1_555 1_555
C70 C71 1_555 1_555
C77 C78 1_555 1_555
C81 C83 1_555 1_555
C82 C84 1_555 1_555
C88 C93 1_555 1_555
C92 C93 1_555 1_555
C99 C100 1_555 1_555
C103 C105 1_555 1_555
C104 C106 1_555 1_555
N13 H41 1_555 1_555
H42 N13 1_555 1_555
N18 H45 1_555 1_555
H46 N18 1_555 1_555
O19 Zn13_2 1_555 1_555
O9 C29 1_555 1_555
O10 C29 1_555 1_555
C29 C39 1_555 1_555
C34 H25 1_555 1_555
C35 C34 1_555 1_555
H26 C35 1_555 1_555
C36 C35 1_555 1_555
C37 C36 1_555 1_555
H27 C37 1_555 1_555
C38 C37 1_555 1_555
H28 C38 1_555 1_555
C39 C34 1_555 1_555
C45 C44 1_555 1_555
H31 C45 1_555 1_555
C47 C36 1_555 1_555
C48 C44 1_555 1_555
C49 C48 1_555 1_555
C50 C47 1_555 1_555
C51 C47 1_555 1_555
H33 C51 1_555 1_555
C52 C48 1_555 1_555
H34 C52 1_555 1_555
C53 C50 1_555 1_555
H35 C53 1_555 1_555
H36 C53 1_555 1_555
H37 C53 1_555 1_555
C54 C49 1_555 1_555
H38 C54 1_555 1_555
H39 C54 1_555 1_555
H40 C54 1_555 1_555
Zn16 O10 1_555 1_555
C38 C39 1_555 1_555
C45 C46 1_555 1_555
C49 C51 1_555 1_555
C50 C52 1_555 1_555
C99_2 C98_2 1_555 1_555
H71_2 C99_2 1_555 1_555
C102_2 C98_2 1_555 1_555
C103_2 C102_2 1_555 1_555
H73_2 C105_2 1_555 1_555
C106_2 C102_2 1_555 1_555
H74_2 C106_2 1_555 1_555
C108_2 C103_2 1_555 1_555
H78_2 C108_2 1_555 1_555
H79_2 C108_2 1_555 1_555
H80_2 C108_2 1_555 1_555
C99_2 C100_2 1_555 1_555
C103_2 C105_2 1_555 1_555
C72_2 O22 1_555 1_555
C73_2 C72_2 1_555 1_555
C74_2 C73_2 1_555 1_555
H53_2 C74_2 1_555 1_555
C75_2 C74_2 1_555 1_555
H54_2 C75_2 1_555 1_555
O17_2 C87_2 1_555 1_555
C87_2 O25 1_555 1_555
C88_2 H65_2 1_555 1_555
C89_2 C88_2 1_555 1_555
H66_2 C89_2 1_555 1_555
C90_2 C89_2 1_555 1_555
C91_2 C90_2 1_555 1_555
H67_2 C91_2 1_555 1_555
C92_2 C91_2 1_555 1_555
H68_2 C92_2 1_555 1_555
C93_2 C87_2 1_555 1_555
C101_2 C90_2 1_555 1_555
C104_2 C101_2 1_555 1_555
C107_2 C104_2 1_555 1_555
H75_2 C107_2 1_555 1_555
H76_2 C107_2 1_555 1_555
H77_2 C107_2 1_555 1_555
C88_2 C93_2 1_555 1_555
C92_2 C93_2 1_555 1_555
O13_2 C65_2 1_555 1_555
O14_2 C65_2 1_555 1_555
C65_2 C71_2 1_555 1_555
C66_2 H49_2 1_555 1_555
C67_2 C66_2 1_555 1_555
H50_2 C67_2 1_555 1_555
C68_2 C67_2 1_555 1_555
C69_2 C68_2 1_555 1_555
H51_2 C69_2 1_555 1_555
C70_2 C69_2 1_555 1_555
H52_2 C70_2 1_555 1_555
C71_2 C66_2 1_555 1_555
C79_2 C68_2 1_555 1_555
C82_2 C79_2 1_555 1_555
C85_2 C82_2 1_555 1_555
H59_2 C85_2 1_555 1_555
H60_2 C85_2 1_555 1_555
H61_2 C85_2 1_555 1_555
O16_2 C94_2 1_555 1_555
C94_2 C95_2 1_555 1_555
C95_2 C96_2 1_555 1_555
C96_2 H69_2 1_555 1_555
C97_2 C96_2 1_555 1_555
H70_2 C97_2 1_555 1_555
Zn13_3 O16_2 1_555 1_555
Zn14_2 O14_2 1_555 1_555
C70_2 C71_2 1_555 1_555
O19_2 Zn13_4 1_555 1_555
C77_2 C76_2 1_555 1_555
H55_2 C77_2 1_555 1_555
C80_2 C76_2 1_555 1_555
C81_2 C80_2 1_555 1_555
H57_3 C83_2 1_555 1_555
C84_2 C80_2 1_555 1_555
H58_2 C84_2 1_555 1_555
C86_2 C81_2 1_555 1_555
H62_2 C86_2 1_555 1_555
H63_2 C86_2 1_555 1_555
H64_2 C86_2 1_555 1_555
C77_2 C78_2 1_555 1_555
C81_2 C83_2 1_555 1_555
O19_3 Zn13 1_555 1_555
O16_3 C94_3 1_555 1_555
C94_3 C95_3 1_555 1_555
C95_3 C96_3 1_555 1_555
C96_3 H69_3 1_555 1_555
C97_3 C96_3 1_555 1_555
H70_3 C97_3 1_555 1_555
C98_3 C97_3 1_555 1_555
C99_3 C98_3 1_555 1_555
H71_3 C99_3 1_555 1_555
C100_3 C95_3 1_555 1_555
C102_3 C98_3 1_555 1_555
C103_3 C102_3 1_555 1_555
H73_4 C105_3 1_555 1_555
C106_3 C102_3 1_555 1_555
H74_3 C106_3 1_555 1_555
C108_3 C103_3 1_555 1_555
H78_3 C108_3 1_555 1_555
H79_3 C108_3 1_555 1_555
H80_3 C108_3 1_555 1_555
Zn13_2 O16_3 1_555 1_555
C99_3 C100_3 1_555 1_555
C103_3 C105_3 1_555 1_555
O17_3 C87_3 1_555 1_555
C87_3 O23 1_555 1_555
C88_3 H65_3 1_555 1_555
C89_3 C88_3 1_555 1_555
H66_3 C89_3 1_555 1_555
C90_3 C89_3 1_555 1_555
C91_3 C90_3 1_555 1_555
H67_3 C91_3 1_555 1_555
C92_3 C91_3 1_555 1_555
H68_3 C92_3 1_555 1_555
C93_3 C87_3 1_555 1_555
C101_3 C90_3 1_555 1_555
C104_3 C101_3 1_555 1_555
C107_3 C104_3 1_555 1_555
H75_3 C107_3 1_555 1_555
H76_3 C107_3 1_555 1_555
H77_3 C107_3 1_555 1_555
C88_3 C93_3 1_555 1_555
C92_3 C93_3 1_555 1_555
O17_4 C87_4 1_555 1_555
C87_4 O24 1_555 1_555
C88_4 H65_4 1_555 1_555
C89_4 C88_4 1_555 1_555
H66_4 C89_4 1_555 1_555
C90_4 C89_4 1_555 1_555
C91_4 C90_4 1_555 1_555
H67_4 C91_4 1_555 1_555
C92_4 C91_4 1_555 1_555
H68_4 C92_4 1_555 1_555
C93_4 C87_4 1_555 1_555
C99_4 C98_4 1_555 1_555
H71_4 C99_4 1_555 1_555
C101_4 C90_4 1_555 1_555
C102_4 C98_4 1_555 1_555
C103_4 C102_4 1_555 1_555
C104_4 C101_4 1_555 1_555
C105_4 C101_4 1_555 1_555
H73_6 C105_4 1_555 1_555
C106_4 C102_4 1_555 1_555
H74_4 C106_4 1_555 1_555
C107_4 C104_4 1_555 1_555
H75_4 C107_4 1_555 1_555
H76_4 C107_4 1_555 1_555
H77_4 C107_4 1_555 1_555
C108_4 C103_4 1_555 1_555
H78_4 C108_4 1_555 1_555
H79_4 C108_4 1_555 1_555
H80_4 C108_4 1_555 1_555
C88_4 C93_4 1_555 1_555
C92_4 C93_4 1_555 1_555
C99_4 C100_4 1_555 1_555
C103_4 C105_4 1_555 1_555
C104_4 C106_4 1_555 1_555
O19_4 Zn13_3 1_555 1_555
O16_4 C94_4 1_555 1_555
C94_4 C95_4 1_555 1_555
C95_4 C96_4 1_555 1_555
C96_4 H69_4 1_555 1_555
C97_4 C96_4 1_555 1_555
H70_4 C97_4 1_555 1_555
Zn13_4 O16_4 1_555 1_555
N13_2 H41_2 1_555 1_555
H42_2 N13_2 1_555 1_555
N18_2 H45_2 1_555 1_555
H46_2 N18_2 1_555 1_555
Zn9 N1_2 1_555 1_555
Zn14 O1_2 1_555 1_555
O1_2 Zn14_2 1_555 1_555
N1_2 C1_2 1_555 1_555
O3_2 Zn9 1_555 1_555
N2_2 C1_2 1_555 1_555
C1_2 H3_2 1_555 1_555
C4_2 N1_2 1_555 1_555
C5_2 N2_2 1_555 1_555
N4_2 Zn14 1_555 1_555
C6_2 N4_2 1_555 1_555
H4_2 C6_2 1_555 1_555
N5_2 Zn13 1_555 1_555
Zn10 N6_2 1_555 1_555
Zn14_2 N2_2 1_555 1_555
N6_2 C28_2 1_555 1_555
O8_2 Zn10 1_555 1_555
N7_2 Zn14 1_555 1_555
C28_2 N7_2 1_555 1_555
H23_2 C28_2 1_555 1_555
C31_2 N6_2 1_555 1_555
C32_2 N7_2 1_555 1_555
N9_2 Zn14_2 1_555 1_555
C33_2 N9_2 1_555 1_555
H24_2 C33_2 1_555 1_555
N10_2 Zn13_3 1_555 1_555
Zn15 O1_2 1_555 1_555
N11 C55_2 1_555 1_555
N12_2 C55_2 1_555 1_555
C55_2 H43_2 1_555 1_555
C57_2 N11 1_555 1_555
C58_2 N12_2 1_555 1_555
N14_2 Zn15 1_555 1_555
C59_2 N14_2 1_555 1_555
H44_2 C59_2 1_555 1_555
N15 C56_2 1_555 1_555
Zn16 O1_2 1_555 1_555
N16 C60_2 1_555 1_555
N17_2 Zn15 1_555 1_555
C60_2 N17_2 1_555 1_555
H47_2 C60_2 1_555 1_555
C62_2 N16 1_555 1_555
C63_2 N17_2 1_555 1_555
N19_2 Zn16 1_555 1_555
C64_2 N19_2 1_555 1_555
H48_2 C64_2 1_555 1_555
N20 C61_2 1_555 1_555
Zn9_2 N16 1_555 1_555
Zn10_2 N11 1_555 1_555
Zn13_2 N15 1_555 1_555
Zn13_4 N20 1_555 1_555
C3_2 C4_2 1_555 1_555
C3_2 N5_2 1_555 1_555
C4_2 C5_2 1_555 1_555
C5_2 N4_2 1_555 1_555
C6_2 N5_2 1_555 1_555
C30_2 C31_2 1_555 1_555
C30_2 N10_2 1_555 1_555
C31_2 C32_2 1_555 1_555
C32_2 N9_2 1_555 1_555
C33_2 N10_2 1_555 1_555
N12_2 Zn16 1_555 1_555
C56_2 C57_2 1_555 1_555
C57_2 C58_2 1_555 1_555
C58_2 N14_2 1_555 1_555
C59_2 N15 1_555 1_555
C61_2 C62_2 1_555 1_555
C62_2 C63_2 1_555 1_555
C63_2 N19_2 1_555 1_555
C64_2 N20 1_555 1_555
N3_2 H1_2 1_555 1_555
H2_2 N3_2 1_555 1_555
N8_2 H21_2 1_555 1_555
H22_2 N8_2 1_555 1_555
O20_2 Zn9_2 1_555 1_555
O21_2 Zn10_2 1_555 1_555

#END
