
###############################################################################
#
# This file contains modified crystal structure data generated from the
# MOF subset of the Cambridge Structural Database (CSD) v543 
# hosted by the Cambridge Crystallographic Data Centre (CCDC).
#
# This work is licensed under the Creative Commons
# Attribution-NonCommercial-ShareAlike 4.0 International License.
# To view a copy of this license, visit
# http://creativecommons.org/licenses/by-nc-sa/4.0/
# or send a letter to
# Creative Commons, PO Box 1866, Mountain View, CA 94042, USA.
#
# CIF created using the CSD Python API on 29 September 2022
# The structure has been converted into the P1 space group
# The structure has a 3D framework
# The original CSD entry IVOWOG is in the monoclinic crystal system
# The framework has been calculated to contain at least 10.0% void space
# The void calculation uses a probe of radius 1.32A, grid spacing 0.4
#
###############################################################################

data_IVOWOG
_chemical_formula_moiety         '(C132 H144 Cd3 N24 O16)n'
_symmetry_cell_setting           triclinic
_symmetry_space_group_name_H-M   'P 1'
_symmetry_Int_Tables_number      1
_space_group_name_Hall           'P 1'
loop_
_symmetry_equiv_pos_site_id
_symmetry_equiv_pos_as_xyz
1 x,y,z
_cell_length_a                   11.6542(12)
_cell_length_b                   19.719(2)
_cell_length_c                   15.0898(15)
_cell_angle_alpha                90
_cell_angle_beta                 91.307(1)
_cell_angle_gamma                90
_cell_volume                     3466.87
loop_
_atom_site_label
_atom_site_type_symbol
_atom_site_fract_x
_atom_site_fract_y
_atom_site_fract_z
H16 H 0.0328 0.4292 0.1818
C15 C 0.01783(15) 0.54311(8) 0.07393(11)
H17 H 0.1000 0.5348 0.0879
H20 H 0.0776 0.4206 0.0330
H27 H 0.0192 0.0080 0.1232
C57 C 0.08056(15) 0.05333(8) 0.01034(12)
H65 H 0.1487 0.0735 0.0405
O3 O 0.20067(12) 0.29614(8) 0.95333(8)
O4 O 0.04686(12) 0.23160(8) 0.93543(9)
C33 C 0.11826(15) 0.26409(9) 0.98364(11)
Cd2 Cd 0.036386(9) 0.247981(6) 0.790955(7)
H52 H 0.9672 0.5708 0.8182
C48 C 0.98217(15) 0.45689(8) 0.92607(11)
H53 H 0.9000 0.4652 0.9121
H56 H 0.9224 0.5794 0.9670
C24 C 0.91944(15) 0.94667(8) 0.98966(12)
H29 H 0.8513 0.9265 0.9595
H63 H 0.9808 0.9920 0.8768
Cd6 Cd 0.963614(9) 0.752019(6) 0.209045(7)
O7 O 0.79933(12) 0.70386(8) 0.04667(8)
O10 O 0.95314(12) 0.76840(8) 0.06457(9)
C66 C 0.88174(15) 0.73591(9) 0.01636(11)
N10 N 0.17804(12) 0.17333(7) 0.74774(9)
N13 N 0.14024(12) 0.33523(7) 0.72581(9)
C15_2 C 0.48217(15) 0.04311(8) 0.42607(11)
H17_2 H 0.4000 0.0348 0.4121
H18 H 0.5106 0.0772 0.3838
N11 N 0.45311(12) 0.02001(7) 0.58307(9)
C42 C 0.17912(15) 0.14368(9) 0.66755(11)
H47 H 0.1157 0.1510 0.6280
C43 C 0.26772(15) 0.10314(9) 0.63988(11)
H48 H 0.2647 0.0832 0.5826
C44 C 0.36151(14) 0.09167(8) 0.69647(11)
C45 C 0.36060(14) 0.12227(9) 0.77919(11)
H49 H 0.4232 0.1159 0.8198
C46 C 0.26853(14) 0.16195(9) 0.80230(11)
H50 H 0.2692 0.1822 0.8595
C47 C 0.45987(14) 0.04564(9) 0.67334(11)
H51 H 0.4614 0.0067 0.7148
H52_2 H 0.5328 0.0708 0.6818
C49 C 0.49563(15) 0.06981(8) 0.51973(11)
H55 H 0.4522 0.1127 0.5254
H56_2 H 0.5776 0.0794 0.5330
N3 N 0.82196(12) 0.82667(7) 0.25226(9)
N4 N 0.54689(12) 0.97999(7) 0.41693(9)
N5 N 0.85976(12) 0.66477(7) 0.27419(9)
N6 N 0.61359(12) 0.50991(7) 0.46606(9)
C9 C 0.82088(15) 0.85632(9) 0.33245(11)
H11 H 0.8843 0.8490 0.3720
C10 C 0.73228(15) 0.89686(9) 0.36012(11)
H12 H 0.7353 0.9168 0.4174
C11 C 0.63849(14) 0.90833(8) 0.30353(11)
C12 C 0.63940(14) 0.87773(9) 0.22081(11)
H13 H 0.5768 0.8841 0.1802
C13 C 0.73147(14) 0.83805(9) 0.19770(11)
H14 H 0.7308 0.8178 0.1405
C14 C 0.54013(14) 0.95436(9) 0.32666(11)
H15 H 0.5386 0.9933 0.2852
H16_2 H 0.4672 0.9292 0.3182
C16 C 0.50437(15) 0.93019(8) 0.48027(11)
H19 H 0.5478 0.8873 0.4746
H20_2 H 0.4224 0.9206 0.4670
C17 C 0.80192(14) 0.61797(9) 0.22678(11)
H21 H 0.7982 0.6224 0.1641
C18 C 0.74754(15) 0.56359(9) 0.26546(11)
H22 H 0.7081 0.5313 0.2293
C19 C 0.75032(14) 0.55590(9) 0.35663(11)
C20 C 0.80669(16) 0.60597(10) 0.40593(12)
H23 H 0.8084 0.6040 0.4688
C21 C 0.85989(16) 0.65828(10) 0.36297(12)
H24 H 0.8988 0.6916 0.3978
C22 C 0.69958(15) 0.49385(9) 0.39953(12)
H25 H 0.6635 0.4651 0.3529
H26 H 0.7622 0.4673 0.4282
C23 C 0.51105(15) 0.53959(9) 0.42262(12)
H27_2 H 0.4808 0.5080 0.3768
H28 H 0.5321 0.5825 0.3930
C24_2 C 0.58056(15) 0.44667(8) 0.51034(12)
H29_2 H 0.6487 0.4265 0.5405
H30 H 0.5513 0.4138 0.4657
N14 N 0.38641(12) 0.49009(7) 0.53394(9)
C48_2 C 0.51783(15) 0.95689(8) 0.57393(11)
H53_2 H 0.6000 0.9652 0.5879
H54 H 0.4894 0.9228 0.6162
C50 C 0.19808(14) 0.38203(9) 0.77322(11)
H57 H 0.2018 0.3776 0.8359
C51 C 0.25246(15) 0.43641(9) 0.73454(11)
H58 H 0.2919 0.4687 0.7707
C52 C 0.24968(14) 0.44410(9) 0.64337(11)
C53 C 0.19331(16) 0.39403(10) 0.59407(12)
H59 H 0.1916 0.3960 0.5312
C54 C 0.14011(16) 0.34172(10) 0.63703(12)
H60 H 0.1012 0.3084 0.6022
C55 C 0.30042(15) 0.50615(9) 0.60047(12)
H61 H 0.3365 0.5349 0.6471
H62 H 0.2378 0.5327 0.5718
C56 C 0.48895(15) 0.46041(9) 0.57738(12)
H63_2 H 0.5192 0.4920 0.6232
H64 H 0.4679 0.4175 0.6070
C57_2 C 0.41944(15) 0.55333(8) 0.48966(12)
H65_2 H 0.3513 0.5735 0.4595
H66 H 0.4487 0.5862 0.5343
Cd4 Cd 0.463614(9) 0.747981(6) 0.709045(7)
N9 N 0.32196(12) 0.67333(7) 0.75226(9)
N11_2 N 0.04689(12) 0.52001(7) 0.91693(9)
C42_2 C 0.32088(15) 0.64368(9) 0.83245(11)
H47_2 H 0.3843 0.6510 0.8720
C43_2 C 0.23228(15) 0.60314(9) 0.86012(11)
H48_2 H 0.2353 0.5832 0.9174
C44_2 C 0.13849(14) 0.59167(8) 0.80353(11)
C45_2 C 0.13940(14) 0.62227(9) 0.72081(11)
H49_2 H 0.0768 0.6159 0.6802
C46_2 C 0.23147(14) 0.66195(9) 0.69770(11)
H50_2 H 0.2308 0.6822 0.6405
C47_2 C 0.04013(14) 0.54564(9) 0.82666(11)
H51_2 H 0.0386 0.5067 0.7852
H54_2 H 0.0106 0.4228 0.8838
C49_2 C 0.00437(15) 0.56981(8) 0.98027(11)
H55_2 H 0.0478 0.6127 0.9746
C55_2 C 0.19958(15) 0.00615(9) 0.89953(12)
H61_2 H 0.1635 0.0349 0.8529
H62_2 H 0.2622 0.0327 0.9282
H66_2 H 0.0513 0.0862 0.9657
N12 N 0.35976(12) 0.83523(7) 0.77419(9)
N14_2 N 0.11359(12) 0.99009(7) 0.96606(9)
C50_2 C 0.30192(14) 0.88203(9) 0.72678(11)
H57_2 H 0.2982 0.8776 0.6641
C51_2 C 0.24754(15) 0.93641(9) 0.76546(11)
H58_2 H 0.2081 0.9687 0.7293
C52_2 C 0.25032(14) 0.94410(9) 0.85663(11)
C53_2 C 0.30669(16) 0.89403(10) 0.90593(12)
H59_2 H 0.3084 0.8960 0.9688
C54_2 C 0.35989(16) 0.84172(10) 0.86297(12)
H60_2 H 0.3988 0.8084 0.8978
C56_2 C 0.01105(15) 0.96041(9) 0.92262(12)
H64_2 H 0.0321 0.9175 0.8930
H5 H 0.9904 0.1156 0.3412
C7 C 0.91555(14) 0.04115(9) 0.45838(12)
H7 H 0.8829 0.0096 0.4134
H8 H 0.8733 0.0846 0.4536
C30 C 0.96612(15) 0.21925(9) 0.19425(12)
H35 H 0.9000 0.1938 0.2089
C31 C 0.99846(15) 0.22480(9) 0.10720(11)
H36 H 0.9535 0.2029 0.0623
C41 C 0.90089(15) 0.01147(9) 0.55008(12)
H45 H 0.8183 0.0039 0.5606
H46 H 0.9304 0.0439 0.5952
O5 O 0.61144(10) 0.66348(6) 0.73525(8)
O6 O 0.56612(10) 0.72834(7) 0.84773(8)
O9 O 0.45314(12) 0.73160(8) 0.56457(9)
N7 N 0.62500(12) 0.81888(7) 0.68427(10)
N8 N 0.96279(12) 0.94728(7) 0.55880(10)
C34 C 0.68752(15) 0.80824(9) 0.61155(12)
H37 H 0.6595 0.7771 0.5682
C35 C 0.79013(15) 0.84052(9) 0.59730(12)
H38 H 0.8316 0.8313 0.5452
C36 C 0.83287(15) 0.88654(9) 0.65902(12)
C37 C 0.76781(16) 0.89872(10) 0.73313(12)
H39 H 0.7929 0.9308 0.7763
C38 C 0.66585(16) 0.86377(9) 0.74379(12)
H40 H 0.6231 0.8720 0.7955
C39 C 0.94921(16) 0.91886(11) 0.64761(13)
H42 H 0.9598 0.9554 0.6921
C58 C 0.63061(14) 0.68477(8) 0.81272(11)
C59 C 0.73549(14) 0.65968(8) 0.86512(11)
H67 H 0.7181 0.6588 0.9290
H68 H 0.7538 0.6128 0.8465
C60 C 0.83920(13) 0.70531(8) 0.85049(11)
C61 C 0.87382(15) 0.71183(9) 0.76257(11)
H69 H 0.8300 0.6900 0.7170
C62 C 0.96912(15) 0.74881(8) 0.73987(12)
H70 H 0.9902 0.7524 0.6796
C65 C 0.90418(14) 0.73826(8) 0.91723(11)
O1 O 0.11144(10) 0.83652(6) 0.23525(8)
O2 O 0.06612(10) 0.77166(7) 0.34773(8)
O3_2 O 0.29933(12) 0.79614(8) 0.54667(8)
N1 N 0.12500(12) 0.68112(7) 0.18427(10)
N2 N 0.46279(12) 0.55272(7) 0.05880(10)
C1 C 0.18752(15) 0.69176(9) 0.11155(12)
H1 H 0.1595 0.7229 0.0682
C2 C 0.29013(15) 0.65948(9) 0.09730(12)
H2 H 0.3316 0.6687 0.0452
C3 C 0.33287(15) 0.61346(9) 0.15902(12)
C4 C 0.26781(16) 0.60128(10) 0.23313(12)
H3 H 0.2929 0.5692 0.2763
C5 C 0.16585(16) 0.63623(9) 0.24379(12)
H4 H 0.1231 0.6280 0.2955
C6 C 0.44921(16) 0.58114(11) 0.14761(13)
H5_2 H 0.5096 0.6156 0.1588
H6 H 0.4598 0.5446 0.1921
C7_2 C 0.58445(14) 0.54115(9) 0.04162(12)
H7_2 H 0.6171 0.5096 0.0866
H8_2 H 0.6267 0.5846 0.0464
C8 C 0.40089(15) 0.48853(9) 0.05008(12)
H9 H 0.3183 0.4961 0.0606
H10 H 0.4304 0.4561 0.0952
C25 C 0.13061(14) 0.81523(8) 0.31272(11)
C26 C 0.23549(14) 0.84032(8) 0.36512(11)
H31 H 0.2181 0.8412 0.4290
H32 H 0.2538 0.8872 0.3465
C27 C 0.33920(13) 0.79469(8) 0.35049(11)
C28 C 0.37382(15) 0.78817(9) 0.26257(11)
H33 H 0.3300 0.8100 0.2170
C29 C 0.46912(15) 0.75119(8) 0.23987(12)
H34 H 0.4902 0.7476 0.1796
C30_2 C 0.53388(15) 0.71925(9) 0.30575(12)
H35_2 H 0.6000 0.6938 0.2911
C31_2 C 0.50154(15) 0.72480(9) 0.39280(11)
H36_2 H 0.5465 0.7029 0.4377
C32 C 0.40418(14) 0.76174(8) 0.41723(11)
C33_2 C 0.38174(15) 0.76409(9) 0.51636(11)
Cd1 Cd 0.536386(9) 0.252019(6) 0.290955(7)
O1_2 O 0.38856(10) 0.33652(6) 0.26475(8)
O2_2 O 0.43388(10) 0.27166(7) 0.15227(8)
N1_2 N 0.37500(12) 0.18112(7) 0.31573(10)
N2_2 N 0.03721(12) 0.05272(7) 0.44120(10)
N3_2 N 0.67804(12) 0.32667(7) 0.24774(9)
N4_2 N 0.95311(12) 0.47999(7) 0.08307(9)
N5_2 N 0.64024(12) 0.16477(7) 0.22581(9)
N6_2 N 0.88641(12) 0.00991(7) 0.03394(9)
C1_2 C 0.31248(15) 0.19176(9) 0.38845(12)
H1_2 H 0.3405 0.2229 0.4318
C2_2 C 0.20987(15) 0.15948(9) 0.40270(12)
H2_2 H 0.1684 0.1687 0.4548
C3_2 C 0.16713(15) 0.11346(9) 0.34098(12)
C4_2 C 0.23219(16) 0.10128(10) 0.26687(12)
H3_2 H 0.2071 0.0692 0.2237
C5_2 C 0.33415(16) 0.13623(9) 0.25621(12)
H4_2 H 0.3769 0.1280 0.2045
C6_2 C 0.05079(16) 0.08114(11) 0.35239(13)
H6_2 H 0.0402 0.0446 0.3079
C9_2 C 0.67912(15) 0.35632(9) 0.16755(11)
H11_2 H 0.6157 0.3490 0.1280
C10_2 C 0.76772(15) 0.39686(9) 0.13988(11)
H12_2 H 0.7647 0.4168 0.0826
C11_2 C 0.86151(14) 0.40833(8) 0.19647(11)
C12_2 C 0.86060(14) 0.37773(9) 0.27919(11)
H13_2 H 0.9232 0.3841 0.3198
C13_2 C 0.76853(14) 0.33805(9) 0.30230(11)
H14_2 H 0.7692 0.3178 0.3595
C14_2 C 0.95987(14) 0.45436(9) 0.17334(11)
H15_2 H 0.9614 0.4933 0.2148
H18_2 H 0.9894 0.5772 0.1162
C16_2 C 0.99563(15) 0.43019(8) 0.01973(11)
H19_2 H 0.9522 0.3873 0.0254
C17_2 C 0.69808(14) 0.11797(9) 0.27322(11)
H21_2 H 0.7018 0.1224 0.3359
C18_2 C 0.75246(15) 0.06359(9) 0.23454(11)
H22_2 H 0.7919 0.0313 0.2707
C19_2 C 0.74968(14) 0.05590(9) 0.14337(11)
C20_2 C 0.69331(16) 0.10597(10) 0.09407(12)
H23_2 H 0.6916 0.1040 0.0312
C21_2 C 0.64011(16) 0.15828(10) 0.13703(12)
H24_2 H 0.6012 0.1916 0.1022
C23_2 C 0.98895(15) 0.03959(9) 0.07738(12)
H28_2 H 0.9679 0.0825 0.1070
C25_2 C 0.36939(14) 0.31523(8) 0.18728(11)
C26_2 C 0.26451(14) 0.34032(8) 0.13488(11)
H31_2 H 0.2819 0.3412 0.0710
H32_2 H 0.2462 0.3872 0.1535
C27_2 C 0.16080(13) 0.29469(8) 0.14951(11)
C28_2 C 0.12618(15) 0.28817(9) 0.23743(11)
H33_2 H 0.1700 0.3100 0.2830
C29_2 C 0.03088(15) 0.25119(8) 0.26013(12)
H34_2 H 0.0098 0.2476 0.3204
C32_2 C 0.09582(14) 0.26174(8) 0.08277(11)
O8 O 0.54686(12) 0.26840(8) 0.43543(9)
C8_2 C 0.09911(15) 0.98853(9) 0.44992(12)
H9_2 H 0.1817 0.9961 0.4394
H10_2 H 0.0696 0.9561 0.4048
C22_2 C 0.80042(15) 0.99385(9) 0.10047(12)
H25_2 H 0.8365 0.9651 0.1471
H26_2 H 0.7378 0.9673 0.0718
H30_2 H 0.9487 0.9138 0.0343
H41 H 0.0096 0.8844 0.6588
C40 C 0.08445(14) 0.95885(9) 0.54162(12)
H43 H 0.1171 0.9904 0.5866
H44 H 0.1267 0.9154 0.5464
C63 C 0.03388(15) 0.78075(9) 0.80575(12)
H71 H 0.1000 0.8062 0.7911
C64 C 0.00154(15) 0.77520(9) 0.89280(11)
H72 H 0.0465 0.7971 0.9377
O5_2 O 0.88856(10) 0.16348(6) 0.76475(8)
O6_2 O 0.93388(10) 0.22834(7) 0.65227(8)
O7_2 O 0.70067(12) 0.20386(8) 0.45333(8)
N7_2 N 0.87500(12) 0.31888(7) 0.81573(10)
N8_2 N 0.53721(12) 0.44728(7) 0.94120(10)
C34_2 C 0.81248(15) 0.30824(9) 0.88845(12)
H37_2 H 0.8405 0.2771 0.9318
C35_2 C 0.70987(15) 0.34052(9) 0.90270(12)
H38_2 H 0.6684 0.3313 0.9548
C36_2 C 0.66713(15) 0.38654(9) 0.84098(12)
C37_2 C 0.73219(16) 0.39872(10) 0.76687(12)
H39_2 H 0.7071 0.4308 0.7237
C38_2 C 0.83415(16) 0.36377(9) 0.75621(12)
H40_2 H 0.8769 0.3720 0.7045
C39_2 C 0.55079(16) 0.41886(11) 0.85239(13)
H41_2 H 0.4904 0.3844 0.8412
H42_2 H 0.5402 0.4554 0.8079
C40_2 C 0.41555(14) 0.45885(9) 0.95838(12)
H43_2 H 0.3829 0.4904 0.9134
H44_2 H 0.3733 0.4154 0.9536
C41_2 C 0.59911(15) 0.51147(9) 0.94992(12)
H45_2 H 0.6817 0.5039 0.9394
H46_2 H 0.5696 0.5439 0.9048
C58_2 C 0.86939(14) 0.18477(8) 0.68728(11)
C59_2 C 0.76451(14) 0.15968(8) 0.63488(11)
H67_2 H 0.7819 0.1588 0.5710
H68_2 H 0.7462 0.1128 0.6535
C60_2 C 0.66080(13) 0.20531(8) 0.64951(11)
C61_2 C 0.62618(15) 0.21183(9) 0.73743(11)
H69_2 H 0.6700 0.1900 0.7830
C62_2 C 0.53088(15) 0.24881(8) 0.76013(12)
H70_2 H 0.5098 0.2524 0.8204
C63_2 C 0.46612(15) 0.28075(9) 0.69425(12)
H71_2 H 0.4000 0.3062 0.7089
C64_2 C 0.49846(15) 0.27520(9) 0.60720(11)
H72_2 H 0.4535 0.2971 0.5623
C65_2 C 0.59582(14) 0.23826(8) 0.58277(11)
C66_2 C 0.61826(15) 0.23591(9) 0.48364(11)
loop_
_geom_bond_atom_site_label_1
_geom_bond_atom_site_label_2
_geom_bond_site_symmetry_1
_geom_bond_site_symmetry_2
H17 C15 1_555 1_555
H65 C57 1_555 1_555
O3 C33 1_555 1_555
O4 C33 1_555 1_555
Cd2 O4 1_555 1_555
H53 C48 1_555 1_555
H29 C24 1_555 1_555
Cd6 O10 1_555 1_555
O7 C66 1_555 1_555
O10 C66 1_555 1_555
N10 Cd2 1_555 1_555
N13 Cd2 1_555 1_555
H17_2 C15_2 1_555 1_555
H18 C15_2 1_555 1_555
N10 C42 1_555 1_555
N11 C47 1_555 1_555
C42 H47 1_555 1_555
C43 C42 1_555 1_555
H48 C43 1_555 1_555
C44 C43 1_555 1_555
C45 C44 1_555 1_555
H49 C45 1_555 1_555
C46 N10 1_555 1_555
H50 C46 1_555 1_555
C47 C44 1_555 1_555
H51 C47 1_555 1_555
H52_2 C47 1_555 1_555
C49 C15_2 1_555 1_555
H55 C49 1_555 1_555
H56_2 C49 1_555 1_555
N11 C49 1_555 1_555
C45 C46 1_555 1_555
N3 Cd6 1_555 1_555
N4 C14 1_555 1_555
N5 Cd6 1_555 1_555
N6 C22 1_555 1_555
C9 N3 1_555 1_555
H11 C9 1_555 1_555
C10 C9 1_555 1_555
H12 C10 1_555 1_555
C11 C10 1_555 1_555
C12 C11 1_555 1_555
H13 C12 1_555 1_555
C13 N3 1_555 1_555
H14 C13 1_555 1_555
C14 C11 1_555 1_555
H15 C14 1_555 1_555
H16_2 C14 1_555 1_555
C16 N4 1_555 1_555
H19 C16 1_555 1_555
H20_2 C16 1_555 1_555
C17 N5 1_555 1_555
H21 C17 1_555 1_555
C18 C17 1_555 1_555
H22 C18 1_555 1_555
C19 C18 1_555 1_555
C20 C19 1_555 1_555
H23 C20 1_555 1_555
C21 N5 1_555 1_555
H24 C21 1_555 1_555
C22 C19 1_555 1_555
H25 C22 1_555 1_555
H26 C22 1_555 1_555
C23 N6 1_555 1_555
H27_2 C23 1_555 1_555
H28 C23 1_555 1_555
C24_2 N6 1_555 1_555
H29_2 C24_2 1_555 1_555
H30 C24_2 1_555 1_555
N13 C50 1_555 1_555
N14 C55 1_555 1_555
C48_2 C16 1_555 1_555
H53_2 C48_2 1_555 1_555
H54 C48_2 1_555 1_555
C50 H57 1_555 1_555
C51 C50 1_555 1_555
H58 C51 1_555 1_555
C52 C51 1_555 1_555
C53 C52 1_555 1_555
H59 C53 1_555 1_555
C54 N13 1_555 1_555
H60 C54 1_555 1_555
C55 C52 1_555 1_555
H61 C55 1_555 1_555
H62 C55 1_555 1_555
C56 C24_2 1_555 1_555
H63_2 C56 1_555 1_555
H64 C56 1_555 1_555
C57_2 C23 1_555 1_555
H65_2 C57_2 1_555 1_555
H66 C57_2 1_555 1_555
C12 C13 1_555 1_555
C20 C21 1_555 1_555
N14 C56 1_555 1_555
N14 C57_2 1_555 1_555
C53 C54 1_555 1_555
Cd4 N9 1_555 1_555
N9 C42_2 1_555 1_555
N11_2 C47_2 1_555 1_555
C42_2 H47_2 1_555 1_555
C43_2 C42_2 1_555 1_555
H48_2 C43_2 1_555 1_555
C44_2 C43_2 1_555 1_555
C45_2 C44_2 1_555 1_555
H49_2 C45_2 1_555 1_555
C46_2 N9 1_555 1_555
H50_2 C46_2 1_555 1_555
C47_2 C44_2 1_555 1_555
H51_2 C47_2 1_555 1_555
H55_2 C49_2 1_555 1_555
H61_2 C55_2 1_555 1_555
H62_2 C55_2 1_555 1_555
N11_2 C49_2 1_555 1_555
C45_2 C46_2 1_555 1_555
Cd4 N12 1_555 1_555
N12 C50_2 1_555 1_555
C50_2 H57_2 1_555 1_555
C51_2 C50_2 1_555 1_555
H58_2 C51_2 1_555 1_555
C52_2 C51_2 1_555 1_555
C53_2 C52_2 1_555 1_555
H59_2 C53_2 1_555 1_555
C54_2 N12 1_555 1_555
H60_2 C54_2 1_555 1_555
H64_2 C56_2 1_555 1_555
N14_2 C56_2 1_555 1_555
C53_2 C54_2 1_555 1_555
H7 C7 1_555 1_555
H8 C7 1_555 1_555
H35 C30 1_555 1_555
C31 C30 1_555 1_555
H36 C31 1_555 1_555
C41 C7 1_555 1_555
H45 C41 1_555 1_555
H46 C41 1_555 1_555
Cd4 O5 1_555 1_555
O5 C58 1_555 1_555
O6 Cd4 1_555 1_555
O9 Cd4 1_555 1_555
N7 Cd4 1_555 1_555
N8 C39 1_555 1_555
C34 N7 1_555 1_555
H37 C34 1_555 1_555
C35 C34 1_555 1_555
H38 C35 1_555 1_555
C36 C35 1_555 1_555
C37 C36 1_555 1_555
H39 C37 1_555 1_555
C38 N7 1_555 1_555
H40 C38 1_555 1_555
C39 C36 1_555 1_555
H42 C39 1_555 1_555
C58 O6 1_555 1_555
C59 C58 1_555 1_555
H67 C59 1_555 1_555
H68 C59 1_555 1_555
C60 C59 1_555 1_555
C61 C60 1_555 1_555
H69 C61 1_555 1_555
C62 C61 1_555 1_555
H70 C62 1_555 1_555
C65 C60 1_555 1_555
C37 C38 1_555 1_555
O1 C25 1_555 1_555
O3_2 C33_2 1_555 1_555
O9 C33_2 1_555 1_555
N2 C6 1_555 1_555
C1 N1 1_555 1_555
H1 C1 1_555 1_555
C2 C1 1_555 1_555
H2 C2 1_555 1_555
C3 C2 1_555 1_555
C4 C3 1_555 1_555
H3 C4 1_555 1_555
C5 N1 1_555 1_555
H4 C5 1_555 1_555
C6 C3 1_555 1_555
H5_2 C6 1_555 1_555
H6 C6 1_555 1_555
C7_2 N2 1_555 1_555
H7_2 C7_2 1_555 1_555
H8_2 C7_2 1_555 1_555
C8 N2 1_555 1_555
H9 C8 1_555 1_555
H10 C8 1_555 1_555
C25 O2 1_555 1_555
C26 C25 1_555 1_555
H31 C26 1_555 1_555
H32 C26 1_555 1_555
C27 C26 1_555 1_555
C28 C27 1_555 1_555
H33 C28 1_555 1_555
C29 C28 1_555 1_555
H34 C29 1_555 1_555
C30_2 C29 1_555 1_555
H35_2 C30_2 1_555 1_555
C31_2 C30_2 1_555 1_555
H36_2 C31_2 1_555 1_555
C32 C27 1_555 1_555
C33_2 C32 1_555 1_555
C4 C5 1_555 1_555
C31_2 C32 1_555 1_555
Cd1 O1_2 1_555 1_555
O1_2 C25_2 1_555 1_555
O2_2 Cd1 1_555 1_555
N1_2 Cd1 1_555 1_555
N2_2 C6_2 1_555 1_555
N3_2 Cd1 1_555 1_555
N4_2 C14_2 1_555 1_555
N5_2 Cd1 1_555 1_555
C1_2 N1_2 1_555 1_555
H1_2 C1_2 1_555 1_555
C2_2 C1_2 1_555 1_555
H2_2 C2_2 1_555 1_555
C3_2 C2_2 1_555 1_555
C4_2 C3_2 1_555 1_555
H3_2 C4_2 1_555 1_555
C5_2 N1_2 1_555 1_555
H4_2 C5_2 1_555 1_555
C6_2 C3_2 1_555 1_555
H6_2 C6_2 1_555 1_555
C9_2 N3_2 1_555 1_555
H11_2 C9_2 1_555 1_555
C10_2 C9_2 1_555 1_555
H12_2 C10_2 1_555 1_555
C11_2 C10_2 1_555 1_555
C12_2 C11_2 1_555 1_555
H13_2 C12_2 1_555 1_555
C13_2 N3_2 1_555 1_555
H14_2 C13_2 1_555 1_555
C14_2 C11_2 1_555 1_555
H15_2 C14_2 1_555 1_555
C16_2 N4_2 1_555 1_555
H19_2 C16_2 1_555 1_555
C17_2 N5_2 1_555 1_555
H21_2 C17_2 1_555 1_555
C18_2 C17_2 1_555 1_555
H22_2 C18_2 1_555 1_555
C19_2 C18_2 1_555 1_555
C20_2 C19_2 1_555 1_555
H23_2 C20_2 1_555 1_555
C21_2 N5_2 1_555 1_555
H24_2 C21_2 1_555 1_555
C23_2 N6_2 1_555 1_555
H28_2 C23_2 1_555 1_555
C25_2 O2_2 1_555 1_555
C26_2 C25_2 1_555 1_555
H31_2 C26_2 1_555 1_555
H32_2 C26_2 1_555 1_555
C27_2 C26_2 1_555 1_555
C28_2 C27_2 1_555 1_555
H33_2 C28_2 1_555 1_555
C29_2 C28_2 1_555 1_555
H34_2 C29_2 1_555 1_555
C32_2 C27_2 1_555 1_555
O8 Cd1 1_555 1_555
C4_2 C5_2 1_555 1_555
C12_2 C13_2 1_555 1_555
C20_2 C21_2 1_555 1_555
H9_2 C8_2 1_555 1_555
H10_2 C8_2 1_555 1_555
H25_2 C22_2 1_555 1_555
H26_2 C22_2 1_555 1_555
C40 C8_2 1_555 1_555
H43 C40 1_555 1_555
H44 C40 1_555 1_555
H71 C63 1_555 1_555
C64 C63 1_555 1_555
H72 C64 1_555 1_555
O5_2 C58_2 1_555 1_555
O7_2 C66_2 1_555 1_555
O8 C66_2 1_555 1_555
N8_2 C39_2 1_555 1_555
C34_2 N7_2 1_555 1_555
H37_2 C34_2 1_555 1_555
C35_2 C34_2 1_555 1_555
H38_2 C35_2 1_555 1_555
C36_2 C35_2 1_555 1_555
C37_2 C36_2 1_555 1_555
H39_2 C37_2 1_555 1_555
C38_2 N7_2 1_555 1_555
H40_2 C38_2 1_555 1_555
C39_2 C36_2 1_555 1_555
H41_2 C39_2 1_555 1_555
H42_2 C39_2 1_555 1_555
H43_2 C40_2 1_555 1_555
H44_2 C40_2 1_555 1_555
H45_2 C41_2 1_555 1_555
H46_2 C41_2 1_555 1_555
C58_2 O6_2 1_555 1_555
C59_2 C58_2 1_555 1_555
H67_2 C59_2 1_555 1_555
H68_2 C59_2 1_555 1_555
C60_2 C59_2 1_555 1_555
C61_2 C60_2 1_555 1_555
H69_2 C61_2 1_555 1_555
C62_2 C61_2 1_555 1_555
H70_2 C62_2 1_555 1_555
C63_2 C62_2 1_555 1_555
H71_2 C63_2 1_555 1_555
C64_2 C63_2 1_555 1_555
H72_2 C64_2 1_555 1_555
C65_2 C60_2 1_555 1_555
C66_2 C65_2 1_555 1_555
N8_2 C40_2 1_555 1_555
N8_2 C41_2 1_555 1_555
C37_2 C38_2 1_555 1_555
C64_2 C65_2 1_555 1_555

#END
