
###############################################################################
#
# This file contains modified crystal structure data generated from the
# MOF subset of the Cambridge Structural Database (CSD) v543 
# hosted by the Cambridge Crystallographic Data Centre (CCDC).
#
# This work is licensed under the Creative Commons
# Attribution-NonCommercial-ShareAlike 4.0 International License.
# To view a copy of this license, visit
# http://creativecommons.org/licenses/by-nc-sa/4.0/
# or send a letter to
# Creative Commons, PO Box 1866, Mountain View, CA 94042, USA.
#
# CIF created using the CSD Python API on 29 September 2022
# The structure has been converted into the P1 space group
# The structure has a 3D framework
# The original CSD entry IVUVIG is in the triclinic crystal system
# The framework has been calculated to contain at least 10.0% void space
# The void calculation uses a probe of radius 1.32A, grid spacing 0.4
#
###############################################################################

data_IVUVIG
_chemical_formula_moiety         '(C56 H48 N8 O30 Sm4)n'
_symmetry_cell_setting           triclinic
_symmetry_space_group_name_H-M   'P 1'
_symmetry_Int_Tables_number      1
_space_group_name_Hall           'P 1'
loop_
_symmetry_equiv_pos_site_id
_symmetry_equiv_pos_as_xyz
1 x,y,z
_cell_length_a                   11.038(2)
_cell_length_b                   11.249(2)
_cell_length_c                   16.132(3)
_cell_angle_alpha                75.24(3)
_cell_angle_beta                 82.80(3)
_cell_angle_gamma                75.26(3)
_cell_volume                     1869.29
loop_
_atom_site_label
_atom_site_type_symbol
_atom_site_fract_x
_atom_site_fract_y
_atom_site_fract_z
_atom_site_U_iso_or_equiv
_atom_site_thermal_displace_type
O3 O 0.0207(4) 0.9241(5) 0.9154(3) 0.0344 Uani
O6 O 0.3880(4) 0.8814(5) 0.4598(3) 0.0382 Uani
O7 O 0.3794(5) 0.8150(5) 0.3435(3) 0.0402 Uani
C8 C 0.3273(6) 0.8438(7) 0.4121(5) 0.0344 Uani
C9 C 0.1948(7) 0.8373(7) 0.4379(5) 0.0362 Uani
C10 C 0.1467(7) 0.8369(7) 0.5210(5) 0.0362 Uani
H2 H 0.199051 0.835676 0.562286 0.0430 Uiso
C11 C 0.1172(7) 0.8399(7) 0.3766(5) 0.0366 Uani
H3 H 0.150136 0.838526 0.320779 0.0440 Uiso
C21 C 0.0209(7) 0.8384(7) 0.5438(4) 0.0367 Uani
Sm5 Sm 0.58754(3) 0.83987(3) 0.37340(2) 0.0299 Uani
Sm14 Sm 0.20717(3) 0.99505(3) 0.86558(2) 0.0288 Uani
O17 O 0.2415(5) 0.8467(5) 0.7824(3) 0.0381 Uani
C29 C 0.2838(7) 0.7500(7) 0.7539(5) 0.0364 Uani
C30 C 0.2378(7) 0.6341(7) 0.8000(5) 0.0358 Uani
N5 N 0.0250(7) 0.5449(7) 0.9854(5) 0.0525 Uani
O18 O 0.3591(5) 0.2871(5) 0.7265(3) 0.0358 Uani
O19 O 0.2241(5) 0.2049(5) 0.8253(3) 0.0362 Uani
O20 O 0.3582(5) 0.7455(5) 0.6895(4) 0.0456 Uani
C31 C 0.2339(7) 0.4145(7) 0.8150(5) 0.0351 Uani
C32 C 0.2751(6) 0.2926(7) 0.7871(5) 0.0335 Uani
C33 C 0.1548(7) 0.6382(8) 0.8705(5) 0.0415 Uani
H25 H 0.127460 0.712361 0.889835 0.0490 Uiso
C34 C 0.2782(7) 0.5204(7) 0.7719(5) 0.0368 Uani
H26 H 0.334759 0.516324 0.724257 0.0440 Uiso
C35 C 0.1109(8) 0.5299(8) 0.9136(5) 0.0440 Uani
C36 C 0.1513(7) 0.4199(8) 0.8875(5) 0.0446 Uani
H27 H 0.124025 0.348306 0.917928 0.0530 Uiso
Sm7 Sm 0.41246(3) 0.16013(3) 0.62660(2) 0.0299 Uani
Sm10 Sm 0.79283(3) 0.00495(3) 0.13442(2) 0.0288 Uani
O4 O 0.4247(4) 0.0053(5) 0.7587(3) 0.0338 Uani
O10 O 0.5790(5) 0.0465(5) 0.4020(3) 0.0363 Uani
H9 H 0.606884 0.095117 0.356962 0.0550 Uiso
H10 H 0.624637 0.037189 0.444157 0.0550 Uiso
O16 O 0.7170(5) 0.1978(5) 0.0297(3) 0.0451 Uani
H23 H 0.515590 0.226234 0.011874 0.1300 Uiso
C37 C 0.0951(7) 0.0750(7) 0.0652(5) 0.0353 Uani
O24 O 0.5710(5) 0.0189(6) 0.1022(3) 0.0428 Uani
C38 C 0.5136(7) 0.0221(7) 0.1741(5) 0.0369 Uani
C39 C 0.3744(6) 0.0611(7) 0.1835(5) 0.0351 Uani
C40 C 0.3017(7) 0.0596(7) 0.1188(5) 0.0348 Uani
H28 H 0.340138 0.042231 0.067164 0.0420 Uiso
C41 C 0.1699(6) 0.0844(7) 0.1325(4) 0.0334 Uani
O27 O 0.0648(5) 0.0972(5) 0.7491(3) 0.0364 Uani
O28 O 0.3617(4) 0.1960(5) 0.4740(3) 0.0359 Uani
H34 H 0.316521 0.272385 0.456228 0.0540 Uiso
H35 H 0.430302 0.186397 0.440675 0.0540 Uiso
O30 O 0.4169(5) 0.3763(5) 0.5548(3) 0.0420 Uani
H38 H 0.342083 0.420281 0.543398 0.0630 Uiso
H39 H 0.447294 0.409783 0.587474 0.0630 Uiso
N6 N 0.0216(6) 0.1519(6) 0.3696(4) 0.0376 Uani
O31 O 0.2029(5) 0.1673(5) 0.6460(3) 0.0396 Uani
N7 N 0.1380(5) 0.1407(6) 0.3546(4) 0.0371 Uani
C47 C 0.0598(6) 0.1567(7) 0.5192(4) 0.0343 Uani
H40 H 0.144523 0.154354 0.505084 0.0410 Uiso
C48 C 0.0090(6) 0.1556(7) 0.6029(4) 0.0342 Uani
C49 C 0.1860(7) 0.1204(7) 0.2715(5) 0.0360 Uani
C50 C 0.0990(6) 0.1394(7) 0.6721(5) 0.0326 Uani
C52 C 0.3147(6) 0.0943(7) 0.2584(5) 0.0387 Uani
H41 H 0.362692 0.098929 0.300451 0.0470 Uiso
C53 C 0.1126(6) 0.1120(7) 0.2082(5) 0.0345 Uani
H42 H 0.025914 0.125061 0.217834 0.0410 Uiso
O33 O 0.7585(5) 0.1533(5) 0.2176(3) 0.0381 Uani
O36 O 0.1484(4) 0.0680(5) 0.9924(3) 0.0353 Uani
O38 O 0.9793(4) 0.0759(5) 0.0846(3) 0.0344 Uani
O40 O 0.6120(4) 0.1186(5) 0.5402(3) 0.0382 Uani
O42 O 0.6206(5) 0.1850(5) 0.6565(3) 0.0402 Uani
C12 C 0.6318(12) 0.3183(17) 0.8094(7) 0.1041 Uani
H4 H 0.695925 0.363950 0.787178 0.1560 Uiso
H5 H 0.551136 0.372396 0.794801 0.1560 Uiso
H6 H 0.646197 0.246166 0.784941 0.1560 Uiso
N4 N 0.6348(15) 0.2761(11) 0.9033(7) 0.1029 Uani
C26 C 0.8512(8) 0.2427(11) 0.8965(7) 0.0647 Uani
H19 H 0.858427 0.202922 0.849480 0.0970 Uiso
H20 H 0.918355 0.199362 0.933450 0.0970 Uiso
H21 H 0.855673 0.329314 0.874696 0.0970 Uiso
C27 C 0.7211(13) 0.2368(10) 0.9490(8) 0.0780 Uani
C28 C 0.5040(9) 0.2645(14) 0.9521(8) 0.0868 Uani
H22 H 0.449195 0.347091 0.946345 0.1300 Uiso
H24 H 0.467426 0.213119 0.927989 0.1300 Uiso
O2 O 0.8516(4) 0.9320(5) 0.0076(3) 0.0353 Uani
C46 C 0.3682(12) 0.6817(17) 0.1906(7) 0.1041 Uani
H31 H 0.304075 0.636050 0.212822 0.1560 Uiso
H32 H 0.448864 0.627604 0.205199 0.1560 Uiso
H33 H 0.353803 0.753834 0.215059 0.1560 Uiso
N8 N 0.3652(15) 0.7239(11) 0.0967(7) 0.1029 Uani
C54 C 0.1488(8) 0.7573(11) 0.1035(7) 0.0647 Uani
H43 H 0.141573 0.797078 0.150520 0.0970 Uiso
H44 H 0.081645 0.800638 0.066550 0.0970 Uiso
H45 H 0.144327 0.670686 0.125304 0.0970 Uiso
C55 C 0.2789(13) 0.7632(10) 0.0510(8) 0.0780 Uani
C56 C 0.4960(9) 0.7355(14) 0.0479(8) 0.0868 Uani
H46 H 0.550805 0.652909 0.053655 0.1300 Uiso
H48 H 0.532574 0.786881 0.072011 0.1300 Uiso
C1 C 0.7162(7) 0.2500(7) 0.2461(5) 0.0364 Uani
C2 C 0.7622(7) 0.3659(7) 0.2000(5) 0.0358 Uani
N1 N 0.9750(7) 0.4551(7) 0.0146(5) 0.0525 Uani
C3 C 0.9049(7) 0.9250(7) 0.9348(5) 0.0353 Uani
O5 O 0.4290(5) 0.9811(6) 0.8978(3) 0.0428 Uani
C4 C 0.4864(7) 0.9779(7) 0.8259(5) 0.0369 Uani
C5 C 0.6256(6) 0.9389(7) 0.8165(5) 0.0351 Uani
C6 C 0.6983(7) 0.9404(7) 0.8812(5) 0.0348 Uani
H1 H 0.659862 0.957769 0.932836 0.0420 Uiso
C7 C 0.8301(6) 0.9156(7) 0.8675(4) 0.0334 Uani
O8 O 0.9352(5) 0.9028(5) 0.2509(3) 0.0364 Uani
O9 O 0.6383(4) 0.8040(5) 0.5260(3) 0.0359 Uani
H7 H 0.683479 0.727615 0.543772 0.0540 Uiso
H8 H 0.569698 0.813603 0.559325 0.0540 Uiso
O11 O 0.6409(5) 0.7129(5) 0.2735(3) 0.0358 Uani
O12 O 0.5831(5) 0.6237(5) 0.4452(3) 0.0420 Uani
H11 H 0.657917 0.579719 0.456602 0.0630 Uiso
H12 H 0.552706 0.590217 0.412526 0.0630 Uiso
O13 O 0.7759(5) 0.7951(5) 0.1747(3) 0.0362 Uani
N2 N 0.9784(6) 0.8481(6) 0.6304(4) 0.0376 Uani
O14 O 0.6418(5) 0.2545(5) 0.3105(4) 0.0456 Uani
C13 C 0.7661(7) 0.5855(7) 0.1850(5) 0.0351 Uani
O15 O 0.7971(5) 0.8327(5) 0.3540(3) 0.0396 Uani
N3 N 0.8620(5) 0.8593(6) 0.6454(4) 0.0371 Uani
C14 C 0.7249(6) 0.7074(7) 0.2129(5) 0.0335 Uani
C15 C 0.9402(6) 0.8433(7) 0.4808(4) 0.0343 Uani
H13 H 0.855477 0.845646 0.494916 0.0410 Uiso
C16 C 0.8452(7) 0.3618(8) 0.1295(5) 0.0415 Uani
H14 H 0.872540 0.287639 0.110165 0.0490 Uiso
C17 C 0.7218(7) 0.4796(7) 0.2281(5) 0.0368 Uani
H15 H 0.665241 0.483676 0.275743 0.0440 Uiso
C18 C 0.9910(6) 0.8444(7) 0.3971(4) 0.0342 Uani
C19 C 0.8140(7) 0.8796(7) 0.7285(5) 0.0360 Uani
C20 C 0.9010(6) 0.8606(7) 0.3279(5) 0.0326 Uani
C22 C 0.6853(6) 0.9057(7) 0.7416(5) 0.0387 Uani
H16 H 0.637308 0.901071 0.699549 0.0470 Uiso
C23 C 0.8891(8) 0.4701(8) 0.0864(5) 0.0440 Uani
C24 C 0.8487(7) 0.5801(8) 0.1125(5) 0.0446 Uani
H17 H 0.875975 0.651694 0.082072 0.0530 Uiso
C25 C 0.8874(6) 0.8880(7) 0.7918(5) 0.0345 Uani
H18 H 0.974086 0.874939 0.782166 0.0410 Uiso
O23 O 0.5753(4) 0.9947(5) 0.2413(3) 0.0338 Uani
O29 O 0.4210(5) 0.9535(5) 0.5980(3) 0.0363 Uani
H36 H 0.393116 0.904883 0.643038 0.0550 Uiso
H37 H 0.375363 0.962811 0.555843 0.0550 Uiso
O32 O 0.2830(5) 0.8022(5) 0.9703(3) 0.0451 Uani
H47 H 0.484410 0.773766 0.988126 0.1300 Uiso
C42 C 0.6727(6) 0.1562(7) 0.5879(5) 0.0344 Uani
C43 C 0.8052(7) 0.1627(7) 0.5621(5) 0.0362 Uani
C44 C 0.8533(7) 0.1631(7) 0.4790(5) 0.0362 Uani
H29 H 0.800949 0.164324 0.437714 0.0430 Uiso
C45 C 0.8828(7) 0.1601(7) 0.6234(5) 0.0366 Uani
H30 H 0.849864 0.161474 0.679221 0.0440 Uiso
C51 C 0.9791(7) 0.1616(7) 0.4562(4) 0.0367 Uani
loop_
_atom_site_aniso_label
_atom_site_aniso_U_11
_atom_site_aniso_U_22
_atom_site_aniso_U_33
_atom_site_aniso_U_23
_atom_site_aniso_U_13
_atom_site_aniso_U_12
O3 0.029 0.041 0.036 -0.011 -0.002 -0.011
O6 0.036 0.05 0.034 -0.018 -0.001 -0.012
O7 0.035 0.053 0.037 -0.019 0.001 -0.011
C8 0.026 0.039 0.036 -0.011 0.002 -0.003
C9 0.034 0.037 0.041 -0.013 0.001 -0.012
C10 0.036 0.04 0.036 -0.013 -0.006 -0.009
C11 0.032 0.042 0.036 -0.013 0.002 -0.007
C21 0.041 0.039 0.027 -0.005 0.001 -0.008
Sm5 0.0285 0.0328 0.0306 -0.01019 1e-05 -0.0089
Sm14 0.0286 0.0295 0.0294 -0.00803 -0.00114 -0.00787
O17 0.042 0.037 0.038 -0.014 0.006 -0.013
C29 0.039 0.04 0.034 -0.012 -0.001 -0.013
C30 0.036 0.035 0.038 -0.012 0.003 -0.01
N5 0.063 0.038 0.059 -0.019 0.028 -0.024
O18 0.041 0.035 0.035 -0.015 0.007 -0.013
O19 0.042 0.035 0.035 -0.012 0.006 -0.015
O20 0.06 0.036 0.042 -0.016 0.019 -0.017
C31 0.036 0.035 0.035 -0.01 0.001 -0.009
C32 0.033 0.032 0.038 -0.01 -0.003 -0.01
C33 0.048 0.035 0.044 -0.017 0.007 -0.011
C34 0.036 0.035 0.039 -0.011 0.004 -0.008
C35 0.048 0.041 0.045 -0.015 0.02 -0.02
C36 0.048 0.044 0.047 -0.018 0.01 -0.019
Sm7 0.0285 0.0328 0.0306 -0.01019 1e-05 -0.0089
Sm10 0.0286 0.0295 0.0294 -0.00803 -0.00114 -0.00787
O4 0.029 0.037 0.037 -0.011 -0.004 -0.007
O10 0.043 0.038 0.032 -0.009 0 -0.017
O16 0.05 0.04 0.041 0.001 -0.012 -0.009
C37 0.038 0.033 0.037 -0.012 0.002 -0.01
O24 0.036 0.058 0.034 -0.013 0.002 -0.01
C38 0.035 0.036 0.039 -0.006 -0.002 -0.01
C39 0.028 0.037 0.04 -0.011 -0.002 -0.005
C40 0.036 0.037 0.031 -0.007 -0.001 -0.009
C41 0.033 0.034 0.034 -0.007 -0.002 -0.01
O27 0.036 0.041 0.033 -0.008 0 -0.012
O28 0.033 0.037 0.037 -0.011 -0.001 -0.005
O30 0.047 0.041 0.041 -0.012 -0.003 -0.013
N6 0.036 0.045 0.032 -0.011 0 -0.009
O31 0.032 0.055 0.034 -0.013 -0.001 -0.012
N7 0.034 0.046 0.033 -0.012 -0.003 -0.009
C47 0.028 0.039 0.036 -0.01 -0.001 -0.007
C48 0.034 0.036 0.034 -0.008 -0.006 -0.009
C49 0.033 0.044 0.033 -0.013 0.003 -0.011
C50 0.029 0.03 0.039 -0.011 -0.003 -0.004
C52 0.036 0.041 0.037 -0.008 -0.005 -0.005
C53 0.03 0.033 0.039 -0.006 0 -0.008
O33 0.042 0.037 0.038 -0.014 0.006 -0.013
O36 0.028 0.046 0.036 -0.017 0.003 -0.011
O38 0.029 0.041 0.036 -0.011 -0.002 -0.011
O40 0.036 0.05 0.034 -0.018 -0.001 -0.012
O42 0.035 0.053 0.037 -0.019 0.001 -0.011
C12 0.084 0.177 0.045 -0.015 -0.018 -0.023
N4 0.19 0.072 0.056 0.004 -0.045 -0.048
C26 0.045 0.069 0.066 -0.004 0.001 -0.002
C27 0.113 0.043 0.082 -0.016 -0.043 -0.006
C28 0.041 0.114 0.082 0.005 -0.006 -0.003
O2 0.028 0.046 0.036 -0.017 0.003 -0.011
C46 0.084 0.177 0.045 -0.015 -0.018 -0.023
N8 0.19 0.072 0.056 0.004 -0.045 -0.048
C54 0.045 0.069 0.066 -0.004 0.001 -0.002
C55 0.113 0.043 0.082 -0.016 -0.043 -0.006
C56 0.041 0.114 0.082 0.005 -0.006 -0.003
C1 0.039 0.04 0.034 -0.012 -0.001 -0.013
C2 0.036 0.035 0.038 -0.012 0.003 -0.01
N1 0.063 0.038 0.059 -0.019 0.028 -0.024
C3 0.038 0.033 0.037 -0.012 0.002 -0.01
O5 0.036 0.058 0.034 -0.013 0.002 -0.01
C4 0.035 0.036 0.039 -0.006 -0.002 -0.01
C5 0.028 0.037 0.04 -0.011 -0.002 -0.005
C6 0.036 0.037 0.031 -0.007 -0.001 -0.009
C7 0.033 0.034 0.034 -0.007 -0.002 -0.01
O8 0.036 0.041 0.033 -0.008 0 -0.012
O9 0.033 0.037 0.037 -0.011 -0.001 -0.005
O11 0.041 0.035 0.035 -0.015 0.007 -0.013
O12 0.047 0.041 0.041 -0.012 -0.003 -0.013
O13 0.042 0.035 0.035 -0.012 0.006 -0.015
N2 0.036 0.045 0.032 -0.011 0 -0.009
O14 0.06 0.036 0.042 -0.016 0.019 -0.017
C13 0.036 0.035 0.035 -0.01 0.001 -0.009
O15 0.032 0.055 0.034 -0.013 -0.001 -0.012
N3 0.034 0.046 0.033 -0.012 -0.003 -0.009
C14 0.033 0.032 0.038 -0.01 -0.003 -0.01
C15 0.028 0.039 0.036 -0.01 -0.001 -0.007
C16 0.048 0.035 0.044 -0.017 0.007 -0.011
C17 0.036 0.035 0.039 -0.011 0.004 -0.008
C18 0.034 0.036 0.034 -0.008 -0.006 -0.009
C19 0.033 0.044 0.033 -0.013 0.003 -0.011
C20 0.029 0.03 0.039 -0.011 -0.003 -0.004
C22 0.036 0.041 0.037 -0.008 -0.005 -0.005
C23 0.048 0.041 0.045 -0.015 0.02 -0.02
C24 0.048 0.044 0.047 -0.018 0.01 -0.019
C25 0.03 0.033 0.039 -0.006 0 -0.008
O23 0.029 0.037 0.037 -0.011 -0.004 -0.007
O29 0.043 0.038 0.032 -0.009 0 -0.017
O32 0.05 0.04 0.041 0.001 -0.012 -0.009
C42 0.026 0.039 0.036 -0.011 0.002 -0.003
C43 0.034 0.037 0.041 -0.013 0.001 -0.012
C44 0.036 0.04 0.036 -0.013 -0.006 -0.009
C45 0.032 0.042 0.036 -0.013 0.002 -0.007
C51 0.041 0.039 0.027 -0.005 0.001 -0.008
loop_
_geom_bond_atom_site_label_1
_geom_bond_atom_site_label_2
_geom_bond_site_symmetry_1
_geom_bond_site_symmetry_2
O3 Sm14 1_555 1_555
O6 C8 1_555 1_555
O7 C8 1_555 1_555
C8 C9 1_555 1_555
C9 C10 1_555 1_555
C10 H2 1_555 1_555
C11 C9 1_555 1_555
H3 C11 1_555 1_555
C21 C10 1_555 1_555
Sm5 O6 1_555 1_555
O7 Sm5 1_555 1_555
O17 C29 1_555 1_555
C29 C30 1_555 1_555
C30 C33 1_555 1_555
O18 C32 1_555 1_555
O19 C32 1_555 1_555
O20 C29 1_555 1_555
C31 C32 1_555 1_555
C33 H25 1_555 1_555
C34 C30 1_555 1_555
H26 C34 1_555 1_555
C35 N5 1_555 1_555
C36 C31 1_555 1_555
H27 C36 1_555 1_555
Sm7 O18 1_555 1_555
Sm14 O17 1_555 1_555
C31 C34 1_555 1_555
C33 C35 1_555 1_555
C35 C36 1_555 1_555
H9 O10 1_555 1_555
H10 O10 1_555 1_555
O16 Sm10 1_555 1_555
O24 Sm10 1_555 1_555
C39 C38 1_555 1_555
C40 C39 1_555 1_555
H28 C40 1_555 1_555
C41 C37 1_555 1_555
Sm7 O4 1_555 1_555
O28 Sm7 1_555 1_555
H34 O28 1_555 1_555
H35 O28 1_555 1_555
O30 Sm7 1_555 1_555
H38 O30 1_555 1_555
H39 O30 1_555 1_555
N6 N7 1_555 1_555
O31 Sm7 1_555 1_555
N7 C49 1_555 1_555
C47 H40 1_555 1_555
C49 C52 1_555 1_555
C50 O27 1_555 1_555
C52 C39 1_555 1_555
H41 C52 1_555 1_555
C53 C41 1_555 1_555
H42 C53 1_555 1_555
O33 Sm10 1_555 1_555
O38 Sm10 1_555 1_555
O40 Sm7 1_555 1_555
O42 Sm7 1_555 1_555
O24 C38 1_555 1_555
C40 C41 1_555 1_555
O31 C50 1_555 1_555
C47 C48 1_555 1_555
C48 C50 1_555 1_555
C49 C53 1_555 1_555
C12 H4 1_555 1_555
H5 C12 1_555 1_555
H6 C12 1_555 1_555
N4 C12 1_555 1_555
C26 H19 1_555 1_555
H20 C26 1_555 1_555
H21 C26 1_555 1_555
C28 N4 1_555 1_555
H22 C28 1_555 1_555
H24 C28 1_555 1_555
N4 C27 1_555 1_555
C26 C27 1_555 1_555
C46 H31 1_555 1_555
H32 C46 1_555 1_555
H33 C46 1_555 1_555
N8 C46 1_555 1_555
C54 H43 1_555 1_555
H44 C54 1_555 1_555
H45 C54 1_555 1_555
C56 N8 1_555 1_555
H46 C56 1_555 1_555
H48 C56 1_555 1_555
N8 C55 1_555 1_555
C54 C55 1_555 1_555
O33 C1 1_555 1_555
C1 C2 1_555 1_555
C2 C16 1_555 1_555
N1 C23 1_555 1_555
O5 C4 1_555 1_555
C4 C5 1_555 1_555
C5 C6 1_555 1_555
C6 H1 1_555 1_555
C7 C3 1_555 1_555
Sm5 O9 1_555 1_555
O8 C20 1_555 1_555
O9 H7 1_555 1_555
H8 O9 1_555 1_555
O11 Sm5 1_555 1_555
O12 Sm5 1_555 1_555
H11 O12 1_555 1_555
H12 O12 1_555 1_555
N2 N3 1_555 1_555
O14 C1 1_555 1_555
C13 C14 1_555 1_555
O15 Sm5 1_555 1_555
N3 C19 1_555 1_555
C14 O11 1_555 1_555
C15 H13 1_555 1_555
C16 H14 1_555 1_555
C17 C2 1_555 1_555
H15 C17 1_555 1_555
C19 C22 1_555 1_555
C20 O15 1_555 1_555
C22 C5 1_555 1_555
H16 C22 1_555 1_555
C23 C16 1_555 1_555
C24 C13 1_555 1_555
H17 C24 1_555 1_555
C25 C7 1_555 1_555
H18 C25 1_555 1_555
O23 Sm5 1_555 1_555
H36 O29 1_555 1_555
H37 O29 1_555 1_555
O32 Sm14 1_555 1_555
O5 Sm14 1_555 1_555
C6 C7 1_555 1_555
O13 C14 1_555 1_555
C13 C17 1_555 1_555
C15 C18 1_555 1_555
C18 C20 1_555 1_555
C19 C25 1_555 1_555
C23 C24 1_555 1_555
O40 C42 1_555 1_555
O42 C42 1_555 1_555
C42 C43 1_555 1_555
C43 C44 1_555 1_555
C44 H29 1_555 1_555
C45 C43 1_555 1_555
H30 C45 1_555 1_555
C51 C44 1_555 1_555

#END
