
###############################################################################
#
# This file contains modified crystal structure data generated from the
# MOF subset of the Cambridge Structural Database (CSD) v543 
# hosted by the Cambridge Crystallographic Data Centre (CCDC).
#
# This work is licensed under the Creative Commons
# Attribution-NonCommercial-ShareAlike 4.0 International License.
# To view a copy of this license, visit
# http://creativecommons.org/licenses/by-nc-sa/4.0/
# or send a letter to
# Creative Commons, PO Box 1866, Mountain View, CA 94042, USA.
#
# CIF created using the CSD Python API on 29 September 2022
# The structure has been converted into the P1 space group
# The structure has a 3D framework
# The original CSD entry IWAVIM is in the monoclinic crystal system
# The framework has been calculated to contain at least 10.0% void space
# The void calculation uses a probe of radius 1.32A, grid spacing 0.4
# H atom positions have been added when not included in the experimental data
#
###############################################################################

data_IWAVIM
_chemical_formula_moiety         '(C192 H144 Cd8 N16 O40)n'
_symmetry_cell_setting           triclinic
_symmetry_space_group_name_H-M   'P 1'
_symmetry_Int_Tables_number      1
_space_group_name_Hall           'P 1'
loop_
_symmetry_equiv_pos_site_id
_symmetry_equiv_pos_as_xyz
1 x,y,z
_cell_length_a                   20.426(14)
_cell_length_b                   11.454(8)
_cell_length_c                   20.893(15)
_cell_angle_alpha                90
_cell_angle_beta                 102.263(8)
_cell_angle_gamma                90
_cell_volume                     4776.58
loop_
_atom_site_label
_atom_site_type_symbol
_atom_site_fract_x
_atom_site_fract_y
_atom_site_fract_z
N2 N 0.1114(3) 0.1840(6) 0.4379(3)
C17 C 0.2602(4) 0.0286(12) 0.2851(5)
H11 H 0.2891 0.0670 0.3190
C18 C 0.1908(4) 0.0313(9) 0.2853(4)
C20 C 0.1643(4) 0.0863(8) 0.3368(4)
C21 C 0.2011(5) 0.1307(10) 0.3919(4)
H13 H 0.2475 0.1308 0.3977
C22 C 0.1732(4) 0.1755(11) 0.4394(5)
H14 H 0.2022 0.2028 0.4768
C23 C 0.0729(6) 0.1338(17) 0.3899(7)
H15 H 0.0281 0.1235 0.3914
C24 C 0.0942(8) 0.0951(17) 0.3375(9)
H16 H 0.0627 0.0733 0.3004
Cd3 Cd 0.07918(2) 0.29204(6) 0.52213(3)
Cd1 Cd 0.07918(2) 0.70796(6) 0.02213(3)
O2 O 0.1598(2) 0.5737(5) 0.0079(3)
O3 O 0.0479(2) 0.5887(5) 0.1014(3)
O4 O 0.0749(4) 0.8625(8) 0.1247(5)
O5 O 0.1601(4) 0.7924(7) 0.0928(3)
C11 C 0.4399(4) 0.3486(10) 0.0046(6)
H7 H 0.4658 0.4005 0.0336
H8 H 0.3557 0.4321 0.0031
C13 C 0.1336(6) 0.8531(9) 0.1312(5)
C14 C 0.1769(5) 0.9205(8) 0.1873(4)
C15 C 0.2487(5) 0.9197(11) 0.1924(5)
H9 H 0.2678 0.8801 0.1620
C16 C 0.2863(5) 0.9770(12) 0.2416(5)
H10 H 0.3324 0.9804 0.2450
C19 C 0.1524(4) 0.9706(8) 0.2327(4)
H12 H 0.1064 0.9657 0.2300
Cd2 Cd 0.57918(2) 0.20796(6) 0.02213(3)
H17 H 0.0793738 0.521813 0.11113
H18 H 0.049304 0.634568 0.142
O1 O 0.0635(2) 0.5393(5) 0.9432(3)
N1 N 0.4686(3) 0.2581(6) 0.9844(3)
C1 C 0.1251(3) 0.5188(7) 0.9619(4)
C2 C 0.1580(3) 0.4263(7) 0.9303(4)
C3 C 0.1227(4) 0.3652(9) 0.8778(5)
H1 H 0.0770 0.3782 0.8630
C4 C 0.1551(5) 0.2854(11) 0.8473(6)
H2 H 0.1317 0.2477 0.8099
C5 C 0.2227(4) 0.2589(9) 0.8708(6)
H3 H 0.2420 0.1952 0.8543
C6 C 0.2605(3) 0.3283(7) 0.9189(4)
C7 C 0.2265(3) 0.4068(7) 0.9503(4)
H4 H 0.2503 0.4479 0.9862
C8 C 0.3327(3) 0.3059(7) 0.9413(4)
C9 C 0.3634(4) 0.2137(9) 0.9200(5)
H5 H 0.3381 0.1634 0.8894
C10 C 0.4291(4) 0.1922(9) 0.9414(5)
H6 H 0.4475 0.1274 0.9249
C12 C 0.3736(4) 0.3689(10) 0.9847(6)
N4 N 0.1114(3) 0.8160(6) 0.9379(3)
O2_2 O 0.6598(2) 0.0737(5) 0.0079(3)
O3_2 O 0.5479(2) 0.0887(5) 0.1014(3)
O4_2 O 0.5749(4) 0.3625(8) 0.1247(5)
O5_2 O 0.6601(4) 0.2924(7) 0.0928(3)
N2_2 N 0.6114(3) 0.6840(6) 0.4379(3)
C13_2 C 0.6336(6) 0.3531(9) 0.1312(5)
C14_2 C 0.6769(5) 0.4205(8) 0.1873(4)
C15_2 C 0.7487(5) 0.4197(11) 0.1924(5)
H9_2 H 0.7678 0.3801 0.1620
C16_2 C 0.7863(5) 0.4770(12) 0.2416(5)
H10_2 H 0.8324 0.4804 0.2450
C17_2 C 0.7602(4) 0.5286(12) 0.2851(5)
H11_2 H 0.7891 0.5670 0.3190
C18_2 C 0.6908(4) 0.5313(9) 0.2853(4)
C19_2 C 0.6524(4) 0.4706(8) 0.2327(4)
H12_2 H 0.6064 0.4657 0.2300
C20_2 C 0.6643(4) 0.5863(8) 0.3368(4)
C21_2 C 0.7011(5) 0.6307(10) 0.3919(4)
H13_2 H 0.7475 0.6308 0.3977
C22_2 C 0.6732(4) 0.6755(11) 0.4394(5)
H14_2 H 0.7022 0.7028 0.4768
C23_2 C 0.5729(6) 0.6338(17) 0.3899(7)
H15_2 H 0.5281 0.6235 0.3914
C24_2 C 0.5942(8) 0.5951(17) 0.3375(9)
H16_2 H 0.5627 0.5733 0.3004
Cd3_2 Cd 0.57918(2) 0.79204(6) 0.52213(3)
H17_2 H 0.579374 0.0218133 0.11113
H18_2 H 0.549304 0.134568 0.142
O1_2 O 0.5635(2) 0.0393(5) 0.9432(3)
C1_2 C 0.6251(3) 0.0188(7) 0.9619(4)
N4_2 N 0.6114(3) 0.3160(6) 0.9379(3)
O1_3 O 0.0635(2) 0.4607(5) 0.4432(3)
O2_3 O 0.1598(2) 0.4263(5) 0.5079(3)
O3_3 O 0.0479(2) 0.4113(5) 0.6014(3)
O4_3 O 0.0749(4) 0.1375(8) 0.6247(5)
O5_3 O 0.1601(4) 0.2076(7) 0.5928(3)
N1_2 N 0.4686(3) 0.7419(6) 0.4844(3)
C1_3 C 0.1251(3) 0.4812(7) 0.4619(4)
C2_2 C 0.1580(3) 0.5737(7) 0.4303(4)
C3_2 C 0.1227(4) 0.6348(9) 0.3778(5)
H1_2 H 0.0770 0.6218 0.3630
C4_2 C 0.1551(5) 0.7146(11) 0.3473(6)
H2_2 H 0.1317 0.7523 0.3099
C5_2 C 0.2227(4) 0.7411(9) 0.3708(6)
H3_2 H 0.2420 0.8048 0.3543
C6_2 C 0.2605(3) 0.6717(7) 0.4189(4)
C7_2 C 0.2265(3) 0.5932(7) 0.4503(4)
H4_2 H 0.2503 0.5521 0.4862
C8_2 C 0.3327(3) 0.6941(7) 0.4413(4)
C9_2 C 0.3634(4) 0.7863(9) 0.4200(5)
H5_2 H 0.3381 0.8366 0.3894
C10_2 C 0.4291(4) 0.8078(9) 0.4414(5)
H6_2 H 0.4475 0.8726 0.4249
C11_2 C 0.4399(4) 0.6514(10) 0.5046(6)
H7_2 H 0.4658 0.5995 0.5336
C12_2 C 0.3736(4) 0.6311(10) 0.4847(6)
H8_2 H 0.3557 0.5679 0.5031
C13_3 C 0.1336(6) 0.1469(9) 0.6312(5)
C14_3 C 0.1769(5) 0.0795(8) 0.6873(4)
C15_3 C 0.2487(5) 0.0803(11) 0.6924(5)
H9_3 H 0.2678 0.1199 0.6620
C16_3 C 0.2863(5) 0.0230(12) 0.7416(5)
H10_3 H 0.3324 0.0196 0.7450
C19_3 C 0.1524(4) 0.0294(8) 0.7327(4)
H12_3 H 0.1064 0.0343 0.7300
H17_3 H 0.0793738 0.478187 0.61113
H18_3 H 0.049304 0.365432 0.642
C17_3 C 0.2602(4) 0.9714(12) 0.7851(5)
H11_3 H 0.2891 0.9330 0.8190
C18_3 C 0.1908(4) 0.9687(9) 0.7853(4)
C20_3 C 0.1643(4) 0.9137(8) 0.8368(4)
C21_3 C 0.2011(5) 0.8693(10) 0.8919(4)
H13_3 H 0.2475 0.8692 0.8977
C22_3 C 0.1732(4) 0.8245(11) 0.9394(5)
H14_3 H 0.2022 0.7972 0.9768
C23_3 C 0.0729(6) 0.8662(17) 0.8899(7)
H15_3 H 0.0281 0.8765 0.8914
C24_3 C 0.0942(8) 0.9049(17) 0.8375(9)
H16_3 H 0.0627 0.9267 0.8004
O1_4 O 0.5635(2) 0.9607(5) 0.4432(3)
O2_4 O 0.6598(2) 0.9263(5) 0.5079(3)
O3_4 O 0.5479(2) 0.9113(5) 0.6014(3)
O4_4 O 0.5749(4) 0.6375(8) 0.6247(5)
O5_4 O 0.6601(4) 0.7076(7) 0.5928(3)
C1_4 C 0.6251(3) 0.9812(7) 0.4619(4)
C13_4 C 0.6336(6) 0.6469(9) 0.6312(5)
C14_4 C 0.6769(5) 0.5795(8) 0.6873(4)
C15_4 C 0.7487(5) 0.5803(11) 0.6924(5)
H9_4 H 0.7678 0.6199 0.6620
C16_4 C 0.7863(5) 0.5230(12) 0.7416(5)
H10_4 H 0.8324 0.5196 0.7450
C17_4 C 0.7602(4) 0.4714(12) 0.7851(5)
H11_4 H 0.7891 0.4330 0.8190
C18_4 C 0.6908(4) 0.4687(9) 0.7853(4)
C19_4 C 0.6524(4) 0.5294(8) 0.7327(4)
H12_4 H 0.6064 0.5343 0.7300
C20_4 C 0.6643(4) 0.4137(8) 0.8368(4)
C21_4 C 0.7011(5) 0.3693(10) 0.8919(4)
H13_4 H 0.7475 0.3692 0.8977
C22_4 C 0.6732(4) 0.3245(11) 0.9394(5)
H14_4 H 0.7022 0.2972 0.9768
C23_4 C 0.5729(6) 0.3662(17) 0.8899(7)
H15_4 H 0.5281 0.3765 0.8914
C24_4 C 0.5942(8) 0.4049(17) 0.8375(9)
H16_4 H 0.5627 0.4267 0.8004
H17_4 H 0.579374 0.978187 0.61113
H18_4 H 0.549304 0.865432 0.642
N3 N 0.9686(3) 0.7581(6) 0.9844(3)
C2_3 C 0.6580(3) 0.9263(7) 0.9303(4)
C3_3 C 0.6227(4) 0.8652(9) 0.8778(5)
H1_3 H 0.5770 0.8782 0.8630
C4_3 C 0.6551(5) 0.7854(11) 0.8473(6)
H2_3 H 0.6317 0.7477 0.8099
C5_3 C 0.7227(4) 0.7589(9) 0.8708(6)
H3_3 H 0.7420 0.6952 0.8543
C6_3 C 0.7605(3) 0.8283(7) 0.9189(4)
C7_3 C 0.7265(3) 0.9068(7) 0.9503(4)
H4_3 H 0.7503 0.9479 0.9862
C8_3 C 0.8327(3) 0.8059(7) 0.9413(4)
C9_3 C 0.8634(4) 0.7137(9) 0.9200(5)
H5_3 H 0.8381 0.6634 0.8894
C10_3 C 0.9291(4) 0.6922(9) 0.9414(5)
H6_3 H 0.9475 0.6274 0.9249
C12_3 C 0.8736(4) 0.8689(10) 0.9847(6)
N3_2 N 0.0314(3) 0.7581(6) 0.5156(3)
C2_4 C 0.3420(3) 0.9263(7) 0.5697(4)
C3_4 C 0.3773(4) 0.8652(9) 0.6222(5)
H1_4 H 0.4230 0.8782 0.6370
C4_4 C 0.3449(5) 0.7854(11) 0.6527(6)
H2_4 H 0.3683 0.7477 0.6901
C5_4 C 0.2773(4) 0.7589(9) 0.6292(6)
H3_4 H 0.2580 0.6952 0.6457
C6_4 C 0.2395(3) 0.8283(7) 0.5811(4)
C7_4 C 0.2735(3) 0.9068(7) 0.5497(4)
H4_4 H 0.2497 0.9479 0.5138
C8_4 C 0.1673(3) 0.8059(7) 0.5587(4)
C9_4 C 0.1366(4) 0.7137(9) 0.5800(5)
H5_4 H 0.1619 0.6634 0.6106
C10_4 C 0.0709(4) 0.6922(9) 0.5586(5)
H6_4 H 0.0525 0.6274 0.5751
C11_3 C 0.0601(4) 0.8486(10) 0.4954(6)
H7_3 H 0.0342 0.9005 0.4664
C12_4 C 0.1264(4) 0.8689(10) 0.5153(6)
H8_3 H 0.1443 0.9321 0.4969
N2_3 N 0.8886(3) 0.1840(6) 0.0621(3)
C17_5 C 0.7398(4) 0.0286(12) 0.2149(5)
H11_5 H 0.7109 0.0670 0.1810
C18_5 C 0.8092(4) 0.0313(9) 0.2147(4)
C20_5 C 0.8357(4) 0.0863(8) 0.1632(4)
C21_5 C 0.7989(5) 0.1307(10) 0.1081(4)
H13_5 H 0.7525 0.1308 0.1023
C22_5 C 0.8268(4) 0.1755(11) 0.0606(5)
H14_5 H 0.7978 0.2028 0.0232
C23_5 C 0.9271(6) 0.1338(17) 0.1101(7)
H15_5 H 0.9719 0.1235 0.1086
C24_5 C 0.9058(8) 0.0951(17) 0.1625(9)
H16_5 H 0.9373 0.0733 0.1996
Cd3_3 Cd 0.92082(2) 0.29204(6) 0.97787(3)
Cd1_2 Cd 0.92082(2) 0.70796(6) 0.47787(3)
O1_5 O 0.9365(2) 0.5393(5) 0.5568(3)
O2_5 O 0.8402(2) 0.5737(5) 0.4921(3)
O3_5 O 0.9521(2) 0.5887(5) 0.3986(3)
O4_5 O 0.9251(4) 0.8625(8) 0.3753(5)
O5_5 O 0.8399(4) 0.7924(7) 0.4072(3)
N1_3 N 0.5314(3) 0.2581(6) 0.5156(3)
C1_5 C 0.8749(3) 0.5188(7) 0.5381(4)
C2_5 C 0.8420(3) 0.4263(7) 0.5697(4)
C3_5 C 0.8773(4) 0.3652(9) 0.6222(5)
H1_5 H 0.9230 0.3782 0.6370
C4_5 C 0.8449(5) 0.2854(11) 0.6527(6)
H2_5 H 0.8683 0.2477 0.6901
C5_5 C 0.7773(4) 0.2589(9) 0.6292(6)
H3_5 H 0.7580 0.1952 0.6457
C6_5 C 0.7395(3) 0.3283(7) 0.5811(4)
C7_5 C 0.7735(3) 0.4068(7) 0.5497(4)
H4_5 H 0.7497 0.4479 0.5138
C8_5 C 0.6673(3) 0.3059(7) 0.5587(4)
C9_5 C 0.6366(4) 0.2137(9) 0.5800(5)
H5_5 H 0.6619 0.1634 0.6106
C10_5 C 0.5709(4) 0.1922(9) 0.5586(5)
H6_5 H 0.5525 0.1274 0.5751
C11_4 C 0.5601(4) 0.3486(10) 0.4954(6)
H7_4 H 0.5342 0.4005 0.4664
C12_5 C 0.6264(4) 0.3689(10) 0.5153(6)
H8_4 H 0.6443 0.4321 0.4969
C13_5 C 0.8664(6) 0.8531(9) 0.3688(5)
C14_5 C 0.8231(5) 0.9205(8) 0.3127(4)
C15_5 C 0.7513(5) 0.9197(11) 0.3076(5)
H9_5 H 0.7322 0.8801 0.3380
C16_5 C 0.7137(5) 0.9770(12) 0.2584(5)
H10_5 H 0.6676 0.9804 0.2550
C19_5 C 0.8476(4) 0.9706(8) 0.2673(4)
H12_5 H 0.8936 0.9657 0.2700
Cd2_2 Cd 0.42082(2) 0.20796(6) 0.47787(3)
N4_3 N 0.8886(3) 0.8160(6) 0.5621(3)
H17_5 H 0.920626 0.521813 0.38887
H18_5 H 0.950696 0.634568 0.358
O1_6 O 0.4365(2) 0.0393(5) 0.5568(3)
O2_6 O 0.3402(2) 0.0737(5) 0.4921(3)
O3_6 O 0.4521(2) 0.0887(5) 0.3986(3)
O4_6 O 0.4251(4) 0.3625(8) 0.3753(5)
O5_6 O 0.3399(4) 0.2924(7) 0.4072(3)
N2_4 N 0.3886(3) 0.6840(6) 0.0621(3)
C1_6 C 0.3749(3) 0.0188(7) 0.5381(4)
C13_6 C 0.3664(6) 0.3531(9) 0.3688(5)
C14_6 C 0.3231(5) 0.4205(8) 0.3127(4)
C15_6 C 0.2513(5) 0.4197(11) 0.3076(5)
H9_6 H 0.2322 0.3801 0.3380
C16_6 C 0.2137(5) 0.4770(12) 0.2584(5)
H10_6 H 0.1676 0.4804 0.2550
C17_6 C 0.2398(4) 0.5286(12) 0.2149(5)
H11_6 H 0.2109 0.5670 0.1810
C18_6 C 0.3092(4) 0.5313(9) 0.2147(4)
C19_6 C 0.3476(4) 0.4706(8) 0.2673(4)
H12_6 H 0.3936 0.4657 0.2700
C20_6 C 0.3357(4) 0.5863(8) 0.1632(4)
C21_6 C 0.2989(5) 0.6307(10) 0.1081(4)
H13_6 H 0.2525 0.6308 0.1023
C22_6 C 0.3268(4) 0.6755(11) 0.0606(5)
H14_6 H 0.2978 0.7028 0.0232
C23_6 C 0.4271(6) 0.6338(17) 0.1101(7)
H15_6 H 0.4719 0.6235 0.1086
C24_6 C 0.4058(8) 0.5951(17) 0.1625(9)
H16_6 H 0.4373 0.5733 0.1996
N4_4 N 0.3886(3) 0.3160(6) 0.5621(3)
H17_6 H 0.420626 0.0218133 0.38887
H18_6 H 0.450696 0.134568 0.358
Cd3_4 Cd 0.42082(2) 0.79204(6) 0.97787(3)
O1_7 O 0.9365(2) 0.4607(5) 0.0568(3)
N1_4 N 0.5314(3) 0.7419(6) 0.0156(3)
C1_7 C 0.8749(3) 0.4812(7) 0.0381(4)
C2_6 C 0.8420(3) 0.5737(7) 0.0697(4)
C3_6 C 0.8773(4) 0.6348(9) 0.1222(5)
H1_6 H 0.9230 0.6218 0.1370
C4_6 C 0.8449(5) 0.7146(11) 0.1527(6)
H2_6 H 0.8683 0.7523 0.1901
C5_6 C 0.7773(4) 0.7411(9) 0.1292(6)
H3_6 H 0.7580 0.8048 0.1457
C6_6 C 0.7395(3) 0.6717(7) 0.0811(4)
C7_6 C 0.7735(3) 0.5932(7) 0.0497(4)
H4_6 H 0.7497 0.5521 0.0138
C8_6 C 0.6673(3) 0.6941(7) 0.0587(4)
C9_6 C 0.6366(4) 0.7863(9) 0.0800(5)
H5_6 H 0.6619 0.8366 0.1106
C10_6 C 0.5709(4) 0.8078(9) 0.0586(5)
H6_6 H 0.5525 0.8726 0.0751
C12_6 C 0.6264(4) 0.6311(10) 0.0153(6)
O2_7 O 0.8402(2) 0.4263(5) 0.9921(3)
O3_7 O 0.9521(2) 0.4113(5) 0.8986(3)
O4_7 O 0.9251(4) 0.1375(8) 0.8753(5)
O5_7 O 0.8399(4) 0.2076(7) 0.9072(3)
C11_5 C 0.5601(4) 0.6514(10) 0.9954(6)
H7_5 H 0.5342 0.5995 0.9664
H8_5 H 0.6443 0.5679 0.9969
C13_7 C 0.8664(6) 0.1469(9) 0.8688(5)
C14_7 C 0.8231(5) 0.0795(8) 0.8127(4)
C15_7 C 0.7513(5) 0.0803(11) 0.8076(5)
H9_7 H 0.7322 0.1199 0.8380
C16_7 C 0.7137(5) 0.0230(12) 0.7584(5)
H10_7 H 0.6676 0.0196 0.7550
C19_7 C 0.8476(4) 0.0294(8) 0.7673(4)
H12_7 H 0.8936 0.0343 0.7700
H17_7 H 0.920626 0.478187 0.88887
H18_7 H 0.950696 0.365432 0.858
C17_7 C 0.7398(4) 0.9714(12) 0.7149(5)
H11_7 H 0.7109 0.9330 0.6810
C18_7 C 0.8092(4) 0.9687(9) 0.7147(4)
C20_7 C 0.8357(4) 0.9137(8) 0.6632(4)
C21_7 C 0.7989(5) 0.8693(10) 0.6081(4)
H13_7 H 0.7525 0.8692 0.6023
C22_7 C 0.8268(4) 0.8245(11) 0.5606(5)
H14_7 H 0.7978 0.7972 0.5232
C23_7 C 0.9271(6) 0.8662(17) 0.6101(7)
H15_7 H 0.9719 0.8765 0.6086
C24_7 C 0.9058(8) 0.9049(17) 0.6625(9)
H16_7 H 0.9373 0.9267 0.6996
O1_8 O 0.4365(2) 0.9607(5) 0.0568(3)
C1_8 C 0.3749(3) 0.9812(7) 0.0381(4)
O2_8 O 0.3402(2) 0.9263(5) 0.9921(3)
O3_8 O 0.4521(2) 0.9113(5) 0.8986(3)
O4_8 O 0.4251(4) 0.6375(8) 0.8753(5)
O5_8 O 0.3399(4) 0.7076(7) 0.9072(3)
C13_8 C 0.3664(6) 0.6469(9) 0.8688(5)
C14_8 C 0.3231(5) 0.5795(8) 0.8127(4)
C15_8 C 0.2513(5) 0.5803(11) 0.8076(5)
H9_8 H 0.2322 0.6199 0.8380
C16_8 C 0.2137(5) 0.5230(12) 0.7584(5)
H10_8 H 0.1676 0.5196 0.7550
C17_8 C 0.2398(4) 0.4714(12) 0.7149(5)
H11_8 H 0.2109 0.4330 0.6810
C18_8 C 0.3092(4) 0.4687(9) 0.7147(4)
C19_8 C 0.3476(4) 0.5294(8) 0.7673(4)
H12_8 H 0.3936 0.5343 0.7700
C20_8 C 0.3357(4) 0.4137(8) 0.6632(4)
C21_8 C 0.2989(5) 0.3693(10) 0.6081(4)
H13_8 H 0.2525 0.3692 0.6023
C22_8 C 0.3268(4) 0.3245(11) 0.5606(5)
H14_8 H 0.2978 0.2972 0.5232
C23_8 C 0.4271(6) 0.3662(17) 0.6101(7)
H15_8 H 0.4719 0.3765 0.6086
C24_8 C 0.4058(8) 0.4049(17) 0.6625(9)
H16_8 H 0.4373 0.4267 0.6996
H17_8 H 0.420626 0.978187 0.88887
H18_8 H 0.450696 0.865432 0.858
C11_6 C 0.9399(4) 0.8486(10) 0.0046(6)
H7_6 H 0.9658 0.9005 0.0336
H8_6 H 0.8557 0.9321 0.0031
N3_3 N 0.0314(3) 0.2419(6) 0.0156(3)
C2_7 C 0.3420(3) 0.0737(7) 0.0697(4)
C3_7 C 0.3773(4) 0.1348(9) 0.1222(5)
H1_7 H 0.4230 0.1218 0.1370
C4_7 C 0.3449(5) 0.2146(11) 0.1527(6)
H2_7 H 0.3683 0.2523 0.1901
C5_7 C 0.2773(4) 0.2411(9) 0.1292(6)
H3_7 H 0.2580 0.3048 0.1457
C6_7 C 0.2395(3) 0.1717(7) 0.0811(4)
C7_7 C 0.2735(3) 0.0932(7) 0.0497(4)
H4_7 H 0.2497 0.0521 0.0138
C8_7 C 0.1673(3) 0.1941(7) 0.0587(4)
C9_7 C 0.1366(4) 0.2863(9) 0.0800(5)
H5_7 H 0.1619 0.3366 0.1106
C10_7 C 0.0709(4) 0.3078(9) 0.0586(5)
H6_7 H 0.0525 0.3726 0.0751
C12_7 C 0.1264(4) 0.1311(10) 0.0153(6)
N3_4 N 0.9686(3) 0.2419(6) 0.4844(3)
C2_8 C 0.6580(3) 0.0737(7) 0.4303(4)
C3_8 C 0.6227(4) 0.1348(9) 0.3778(5)
H1_8 H 0.5770 0.1218 0.3630
C4_8 C 0.6551(5) 0.2146(11) 0.3473(6)
H2_8 H 0.6317 0.2523 0.3099
C5_8 C 0.7227(4) 0.2411(9) 0.3708(6)
H3_8 H 0.7420 0.3048 0.3543
C6_8 C 0.7605(3) 0.1717(7) 0.4189(4)
C7_8 C 0.7265(3) 0.0932(7) 0.4503(4)
H4_8 H 0.7503 0.0521 0.4862
C8_8 C 0.8327(3) 0.1941(7) 0.4413(4)
C9_8 C 0.8634(4) 0.2863(9) 0.4200(5)
H5_8 H 0.8381 0.3366 0.3894
C10_8 C 0.9291(4) 0.3078(9) 0.4414(5)
H6_8 H 0.9475 0.3726 0.4249
C11_7 C 0.9399(4) 0.1514(10) 0.5046(6)
H7_7 H 0.9658 0.0995 0.5336
C12_8 C 0.8736(4) 0.1311(10) 0.4847(6)
H8_7 H 0.8557 0.0679 0.5031
C11_8 C 0.0601(4) 0.1514(10) 0.9954(6)
H7_8 H 0.0342 0.0995 0.9664
H8_8 H 0.1443 0.0679 0.9969
loop_
_geom_bond_atom_site_label_1
_geom_bond_atom_site_label_2
_geom_bond_site_symmetry_1
_geom_bond_site_symmetry_2
N2 C22 1_555 1_555
H11 C17 1_555 1_555
C18 C17 1_555 1_555
C20 C18 1_555 1_555
C21 C20 1_555 1_555
H13 C21 1_555 1_555
C22 C21 1_555 1_555
H14 C22 1_555 1_555
C23 N2 1_555 1_555
H15 C23 1_555 1_555
C24 C20 1_555 1_555
H16 C24 1_555 1_555
Cd3 N2 1_555 1_555
C23 C24 1_555 1_555
O2 Cd1 1_555 1_555
O3 Cd1 1_555 1_555
O4 C13 1_555 1_555
O5 Cd1 1_555 1_555
H7 C11 1_555 1_555
C13 O5 1_555 1_555
C14 C13 1_555 1_555
C15 C14 1_555 1_555
H9 C15 1_555 1_555
C16 C15 1_555 1_555
H10 C16 1_555 1_555
C19 C14 1_555 1_555
H12 C19 1_555 1_555
O3 H17 1_555 1_555
O3 H18 1_555 1_555
O1 C1 1_555 1_555
N1 C10 1_555 1_555
C2 C1 1_555 1_555
C3 C2 1_555 1_555
H1 C3 1_555 1_555
C4 C3 1_555 1_555
H2 C4 1_555 1_555
C5 C4 1_555 1_555
H3 C5 1_555 1_555
C6 C5 1_555 1_555
C7 C2 1_555 1_555
H4 C7 1_555 1_555
C8 C6 1_555 1_555
C9 C8 1_555 1_555
H5 C9 1_555 1_555
C10 C9 1_555 1_555
H6 C10 1_555 1_555
C12 C8 1_555 1_555
C6 C7 1_555 1_555
O2_2 Cd2 1_555 1_555
O3_2 Cd2 1_555 1_555
O4_2 C13_2 1_555 1_555
O5_2 Cd2 1_555 1_555
N2_2 C22_2 1_555 1_555
C13_2 O5_2 1_555 1_555
C14_2 C13_2 1_555 1_555
C15_2 C14_2 1_555 1_555
H9_2 C15_2 1_555 1_555
C16_2 C15_2 1_555 1_555
H10_2 C16_2 1_555 1_555
C17_2 C16_2 1_555 1_555
H11_2 C17_2 1_555 1_555
C18_2 C17_2 1_555 1_555
C19_2 C14_2 1_555 1_555
H12_2 C19_2 1_555 1_555
C20_2 C18_2 1_555 1_555
C21_2 C20_2 1_555 1_555
H13_2 C21_2 1_555 1_555
C22_2 C21_2 1_555 1_555
H14_2 C22_2 1_555 1_555
C23_2 N2_2 1_555 1_555
H15_2 C23_2 1_555 1_555
C24_2 C20_2 1_555 1_555
H16_2 C24_2 1_555 1_555
Cd3_2 N2_2 1_555 1_555
C18_2 C19_2 1_555 1_555
C23_2 C24_2 1_555 1_555
O3_2 H17_2 1_555 1_555
O3_2 H18_2 1_555 1_555
O1_2 C1_2 1_555 1_555
Cd3 O1_3 1_555 1_555
O1_3 C1_3 1_555 1_555
O2_3 Cd3 1_555 1_555
O3_3 Cd3 1_555 1_555
O4_3 C13_3 1_555 1_555
O5_3 Cd3 1_555 1_555
N1_2 C10_2 1_555 1_555
C1_3 O2_3 1_555 1_555
C2_2 C1_3 1_555 1_555
C3_2 C2_2 1_555 1_555
H1_2 C3_2 1_555 1_555
C4_2 C3_2 1_555 1_555
H2_2 C4_2 1_555 1_555
C5_2 C4_2 1_555 1_555
H3_2 C5_2 1_555 1_555
C6_2 C5_2 1_555 1_555
C7_2 C2_2 1_555 1_555
H4_2 C7_2 1_555 1_555
C8_2 C6_2 1_555 1_555
C9_2 C8_2 1_555 1_555
H5_2 C9_2 1_555 1_555
C10_2 C9_2 1_555 1_555
H6_2 C10_2 1_555 1_555
C11_2 N1_2 1_555 1_555
H7_2 C11_2 1_555 1_555
C12_2 C8_2 1_555 1_555
H8_2 C12_2 1_555 1_555
C13_3 O5_3 1_555 1_555
C14_3 C13_3 1_555 1_555
C15_3 C14_3 1_555 1_555
H9_3 C15_3 1_555 1_555
C16_3 C15_3 1_555 1_555
H10_3 C16_3 1_555 1_555
C19_3 C14_3 1_555 1_555
H12_3 C19_3 1_555 1_555
Cd3_2 N1_2 1_555 1_555
C6_2 C7_2 1_555 1_555
C11_2 C12_2 1_555 1_555
O3_3 H17_3 1_555 1_555
O3_3 H18_3 1_555 1_555
N4 C22_3 1_555 1_555
H11_3 C17_3 1_555 1_555
C18_3 C17_3 1_555 1_555
C20_3 C18_3 1_555 1_555
C21_3 C20_3 1_555 1_555
H13_3 C21_3 1_555 1_555
C22_3 C21_3 1_555 1_555
H14_3 C22_3 1_555 1_555
C23_3 N4 1_555 1_555
H15_3 C23_3 1_555 1_555
C24_3 C20_3 1_555 1_555
H16_3 C24_3 1_555 1_555
C23_3 C24_3 1_555 1_555
Cd3_2 O1_4 1_555 1_555
O1_4 C1_4 1_555 1_555
O2_4 Cd3_2 1_555 1_555
O3_4 Cd3_2 1_555 1_555
O4_4 C13_4 1_555 1_555
O5_4 Cd3_2 1_555 1_555
N4_2 C22_4 1_555 1_555
C1_4 O2_4 1_555 1_555
C13_4 O5_4 1_555 1_555
C14_4 C13_4 1_555 1_555
C15_4 C14_4 1_555 1_555
H9_4 C15_4 1_555 1_555
C16_4 C15_4 1_555 1_555
H10_4 C16_4 1_555 1_555
C17_4 C16_4 1_555 1_555
H11_4 C17_4 1_555 1_555
C18_4 C17_4 1_555 1_555
C19_4 C14_4 1_555 1_555
H12_4 C19_4 1_555 1_555
C20_4 C18_4 1_555 1_555
C21_4 C20_4 1_555 1_555
H13_4 C21_4 1_555 1_555
C22_4 C21_4 1_555 1_555
H14_4 C22_4 1_555 1_555
C23_4 N4_2 1_555 1_555
H15_4 C23_4 1_555 1_555
C24_4 C20_4 1_555 1_555
H16_4 C24_4 1_555 1_555
C18_4 C19_4 1_555 1_555
C23_4 C24_4 1_555 1_555
O3_4 H17_4 1_555 1_555
O3_4 H18_4 1_555 1_555
N3 C10_3 1_555 1_555
C3_3 C2_3 1_555 1_555
H1_3 C3_3 1_555 1_555
C4_3 C3_3 1_555 1_555
H2_3 C4_3 1_555 1_555
C5_3 C4_3 1_555 1_555
H3_3 C5_3 1_555 1_555
C6_3 C5_3 1_555 1_555
C7_3 C2_3 1_555 1_555
H4_3 C7_3 1_555 1_555
C8_3 C6_3 1_555 1_555
C9_3 C8_3 1_555 1_555
H5_3 C9_3 1_555 1_555
C10_3 C9_3 1_555 1_555
H6_3 C10_3 1_555 1_555
C12_3 C8_3 1_555 1_555
C6_3 C7_3 1_555 1_555
N3_2 C10_4 1_555 1_555
C3_4 C2_4 1_555 1_555
H1_4 C3_4 1_555 1_555
C4_4 C3_4 1_555 1_555
H2_4 C4_4 1_555 1_555
C5_4 C4_4 1_555 1_555
H3_4 C5_4 1_555 1_555
C6_4 C5_4 1_555 1_555
C7_4 C2_4 1_555 1_555
H4_4 C7_4 1_555 1_555
C8_4 C6_4 1_555 1_555
C9_4 C8_4 1_555 1_555
H5_4 C9_4 1_555 1_555
C10_4 C9_4 1_555 1_555
H6_4 C10_4 1_555 1_555
C11_3 N3_2 1_555 1_555
H7_3 C11_3 1_555 1_555
C12_4 C8_4 1_555 1_555
H8_3 C12_4 1_555 1_555
C6_4 C7_4 1_555 1_555
C11_3 C12_4 1_555 1_555
N2_3 C22_5 1_555 1_555
H11_5 C17_5 1_555 1_555
C18_5 C17_5 1_555 1_555
C20_5 C18_5 1_555 1_555
C21_5 C20_5 1_555 1_555
H13_5 C21_5 1_555 1_555
C22_5 C21_5 1_555 1_555
H14_5 C22_5 1_555 1_555
C23_5 N2_3 1_555 1_555
H15_5 C23_5 1_555 1_555
C24_5 C20_5 1_555 1_555
H16_5 C24_5 1_555 1_555
C23_5 C24_5 1_555 1_555
Cd1_2 O1_5 1_555 1_555
O1_5 C1_5 1_555 1_555
O2_5 Cd1_2 1_555 1_555
O3_5 Cd1_2 1_555 1_555
O4_5 C13_5 1_555 1_555
O5_5 Cd1_2 1_555 1_555
N1_3 C10_5 1_555 1_555
C1_5 O2_5 1_555 1_555
C2_5 C1_5 1_555 1_555
C3_5 C2_5 1_555 1_555
H1_5 C3_5 1_555 1_555
C4_5 C3_5 1_555 1_555
H2_5 C4_5 1_555 1_555
C5_5 C4_5 1_555 1_555
H3_5 C5_5 1_555 1_555
C6_5 C5_5 1_555 1_555
C7_5 C2_5 1_555 1_555
H4_5 C7_5 1_555 1_555
C8_5 C6_5 1_555 1_555
C9_5 C8_5 1_555 1_555
H5_5 C9_5 1_555 1_555
C10_5 C9_5 1_555 1_555
H6_5 C10_5 1_555 1_555
C11_4 N1_3 1_555 1_555
H7_4 C11_4 1_555 1_555
C12_5 C8_5 1_555 1_555
H8_4 C12_5 1_555 1_555
C13_5 O5_5 1_555 1_555
C14_5 C13_5 1_555 1_555
C15_5 C14_5 1_555 1_555
H9_5 C15_5 1_555 1_555
C16_5 C15_5 1_555 1_555
H10_5 C16_5 1_555 1_555
C19_5 C14_5 1_555 1_555
H12_5 C19_5 1_555 1_555
Cd2_2 N1_3 1_555 1_555
N4_3 Cd1_2 1_555 1_555
C6_5 C7_5 1_555 1_555
C11_4 C12_5 1_555 1_555
O3_5 H17_5 1_555 1_555
O3_5 H18_5 1_555 1_555
Cd2_2 O1_6 1_555 1_555
O1_6 C1_6 1_555 1_555
O2_6 Cd2_2 1_555 1_555
O3_6 Cd2_2 1_555 1_555
O4_6 C13_6 1_555 1_555
O5_6 Cd2_2 1_555 1_555
N2_4 C22_6 1_555 1_555
C1_6 O2_6 1_555 1_555
C13_6 O5_6 1_555 1_555
C14_6 C13_6 1_555 1_555
C15_6 C14_6 1_555 1_555
H9_6 C15_6 1_555 1_555
C16_6 C15_6 1_555 1_555
H10_6 C16_6 1_555 1_555
C17_6 C16_6 1_555 1_555
H11_6 C17_6 1_555 1_555
C18_6 C17_6 1_555 1_555
C19_6 C14_6 1_555 1_555
H12_6 C19_6 1_555 1_555
C20_6 C18_6 1_555 1_555
C21_6 C20_6 1_555 1_555
H13_6 C21_6 1_555 1_555
C22_6 C21_6 1_555 1_555
H14_6 C22_6 1_555 1_555
C23_6 N2_4 1_555 1_555
H15_6 C23_6 1_555 1_555
C24_6 C20_6 1_555 1_555
H16_6 C24_6 1_555 1_555
N4_4 Cd2_2 1_555 1_555
C18_6 C19_6 1_555 1_555
C23_6 C24_6 1_555 1_555
O3_6 H17_6 1_555 1_555
O3_6 H18_6 1_555 1_555
O1_7 C1_7 1_555 1_555
N1_4 C10_6 1_555 1_555
C2_6 C1_7 1_555 1_555
C3_6 C2_6 1_555 1_555
H1_6 C3_6 1_555 1_555
C4_6 C3_6 1_555 1_555
H2_6 C4_6 1_555 1_555
C5_6 C4_6 1_555 1_555
H3_6 C5_6 1_555 1_555
C6_6 C5_6 1_555 1_555
C7_6 C2_6 1_555 1_555
H4_6 C7_6 1_555 1_555
C8_6 C6_6 1_555 1_555
C9_6 C8_6 1_555 1_555
H5_6 C9_6 1_555 1_555
C10_6 C9_6 1_555 1_555
H6_6 C10_6 1_555 1_555
C12_6 C8_6 1_555 1_555
C6_6 C7_6 1_555 1_555
O2_7 Cd3_3 1_555 1_555
O3_7 Cd3_3 1_555 1_555
O4_7 C13_7 1_555 1_555
O5_7 Cd3_3 1_555 1_555
H7_5 C11_5 1_555 1_555
C13_7 O5_7 1_555 1_555
C14_7 C13_7 1_555 1_555
C15_7 C14_7 1_555 1_555
H9_7 C15_7 1_555 1_555
C16_7 C15_7 1_555 1_555
H10_7 C16_7 1_555 1_555
C19_7 C14_7 1_555 1_555
H12_7 C19_7 1_555 1_555
O3_7 H17_7 1_555 1_555
O3_7 H18_7 1_555 1_555
N4_3 C22_7 1_555 1_555
H11_7 C17_7 1_555 1_555
C18_7 C17_7 1_555 1_555
C20_7 C18_7 1_555 1_555
C21_7 C20_7 1_555 1_555
H13_7 C21_7 1_555 1_555
C22_7 C21_7 1_555 1_555
H14_7 C22_7 1_555 1_555
C23_7 N4_3 1_555 1_555
H15_7 C23_7 1_555 1_555
C24_7 C20_7 1_555 1_555
H16_7 C24_7 1_555 1_555
C23_7 C24_7 1_555 1_555
O1_8 C1_8 1_555 1_555
O2_8 Cd3_4 1_555 1_555
O3_8 Cd3_4 1_555 1_555
O4_8 C13_8 1_555 1_555
O5_8 Cd3_4 1_555 1_555
N4_4 C22_8 1_555 1_555
C13_8 O5_8 1_555 1_555
C14_8 C13_8 1_555 1_555
C15_8 C14_8 1_555 1_555
H9_8 C15_8 1_555 1_555
C16_8 C15_8 1_555 1_555
H10_8 C16_8 1_555 1_555
C17_8 C16_8 1_555 1_555
H11_8 C17_8 1_555 1_555
C18_8 C17_8 1_555 1_555
C19_8 C14_8 1_555 1_555
H12_8 C19_8 1_555 1_555
C20_8 C18_8 1_555 1_555
C21_8 C20_8 1_555 1_555
H13_8 C21_8 1_555 1_555
C22_8 C21_8 1_555 1_555
H14_8 C22_8 1_555 1_555
C23_8 N4_4 1_555 1_555
H15_8 C23_8 1_555 1_555
C24_8 C20_8 1_555 1_555
H16_8 C24_8 1_555 1_555
C18_8 C19_8 1_555 1_555
C23_8 C24_8 1_555 1_555
O3_8 H17_8 1_555 1_555
O3_8 H18_8 1_555 1_555
H7_6 C11_6 1_555 1_555
N3_3 C10_7 1_555 1_555
C3_7 C2_7 1_555 1_555
H1_7 C3_7 1_555 1_555
C4_7 C3_7 1_555 1_555
H2_7 C4_7 1_555 1_555
C5_7 C4_7 1_555 1_555
H3_7 C5_7 1_555 1_555
C6_7 C5_7 1_555 1_555
C7_7 C2_7 1_555 1_555
H4_7 C7_7 1_555 1_555
C8_7 C6_7 1_555 1_555
C9_7 C8_7 1_555 1_555
H5_7 C9_7 1_555 1_555
C10_7 C9_7 1_555 1_555
H6_7 C10_7 1_555 1_555
C12_7 C8_7 1_555 1_555
C6_7 C7_7 1_555 1_555
N3_4 C10_8 1_555 1_555
C3_8 C2_8 1_555 1_555
H1_8 C3_8 1_555 1_555
C4_8 C3_8 1_555 1_555
H2_8 C4_8 1_555 1_555
C5_8 C4_8 1_555 1_555
H3_8 C5_8 1_555 1_555
C6_8 C5_8 1_555 1_555
C7_8 C2_8 1_555 1_555
H4_8 C7_8 1_555 1_555
C8_8 C6_8 1_555 1_555
C9_8 C8_8 1_555 1_555
H5_8 C9_8 1_555 1_555
C10_8 C9_8 1_555 1_555
H6_8 C10_8 1_555 1_555
C11_7 N3_4 1_555 1_555
H7_7 C11_7 1_555 1_555
C12_8 C8_8 1_555 1_555
H8_7 C12_8 1_555 1_555
C6_8 C7_8 1_555 1_555
C11_7 C12_8 1_555 1_555
H7_8 C11_8 1_555 1_555

#END
