
###############################################################################
#
# This file contains modified crystal structure data generated from the
# MOF subset of the Cambridge Structural Database (CSD) v543 
# hosted by the Cambridge Crystallographic Data Centre (CCDC).
#
# This work is licensed under the Creative Commons
# Attribution-NonCommercial-ShareAlike 4.0 International License.
# To view a copy of this license, visit
# http://creativecommons.org/licenses/by-nc-sa/4.0/
# or send a letter to
# Creative Commons, PO Box 1866, Mountain View, CA 94042, USA.
#
# CIF created using the CSD Python API on 29 September 2022
# The structure has been converted into the P1 space group
# The structure has a 3D framework
# The original CSD entry IWEJOM is in the tetragonal crystal system
# The framework has been calculated to contain at least 10.0% void space
# The void calculation uses a probe of radius 1.32A, grid spacing 0.4
#
###############################################################################

data_IWEJOM
_chemical_formula_moiety         '(C34 H8 N10 O16 Zn10)n'
_symmetry_cell_setting           triclinic
_symmetry_space_group_name_H-M   'P 1'
_symmetry_Int_Tables_number      1
_space_group_name_Hall           'P 1'
loop_
_symmetry_equiv_pos_site_id
_symmetry_equiv_pos_as_xyz
1 x,y,z
_cell_length_a                   7.0469(15)
_cell_length_b                   7.0469(15)
_cell_length_c                   19.873(6)
_cell_angle_alpha                90
_cell_angle_beta                 90
_cell_angle_gamma                90
_cell_volume                     986.869
loop_
_atom_site_label
_atom_site_type_symbol
_atom_site_fract_x
_atom_site_fract_y
_atom_site_fract_z
Zn4 Zn 0.000000 0.000000 0.27673(11)
Zn6 Zn 0.000000 0.000000 0.72327(11)
Zn4_2 Zn 0.000000 1.000000 0.27673(11)
Zn6_2 Zn -0.000000 1.000000 0.72327(11)
Zn1 Zn 0.500000 0.500000 0.77673(11)
O1 O 0.1513(13) 0.8487(13) 0.6618(4)
O2 O 0.2860(13) 0.7140(13) 0.7503(4)
N1 N 0.500000 0.500000 0.6764(10)
C1 C 0.3869(16) 0.6131(16) 0.6455(8)
C2 C 0.266(2) 0.734(2) 0.6883(9)
C3 C 0.3796(16) 0.6204(16) 0.5731(9)
H1 H 0.297702 0.702298 0.550636
C4 C 0.500000 0.500000 0.5385(11)
O3 O 0.8487(13) 0.1513(13) 0.6618(4)
O4 O 0.7140(13) 0.2860(13) 0.7503(4)
C5 C 0.6131(16) 0.3869(16) 0.6455(8)
C6 C 0.734(2) 0.266(2) 0.6883(9)
C7 C 0.6204(16) 0.3796(16) 0.5731(9)
H2 H 0.702298 0.297702 0.550636
O5 O 0.8487(13) 0.1513(13) 0.3382(4)
O6 O 0.7140(13) 0.2860(13) 0.2497(4)
N2 N 0.500000 0.500000 0.3236(10)
C8 C 0.6131(16) 0.3869(16) 0.3545(8)
C9 C 0.734(2) 0.266(2) 0.3117(9)
C10 C 0.6204(16) 0.3796(16) 0.4269(9)
H3 H 0.702298 0.297702 0.449364
C11 C 0.500000 0.500000 0.4615(11)
O7 O 0.1513(13) 0.8487(13) 0.3382(4)
O8 O 0.2860(13) 0.7140(13) 0.2497(4)
C12 C 0.3869(16) 0.6131(16) 0.3545(8)
C13 C 0.266(2) 0.734(2) 0.3117(9)
C14 C 0.3796(16) 0.6204(16) 0.4269(9)
H4 H 0.297702 0.702298 0.449364
Zn2 Zn 0.500000 0.500000 0.22327(11)
Zn4_3 Zn 1.000000 0.000000 0.27673(11)
Zn6_3 Zn 1.000000 0.000000 0.72327(11)
O9 O 0.6513(13) 0.6513(13) 0.1618(4)
O10 O 0.3487(13) 0.3487(13) 0.1618(4)
O11 O 0.3487(13) 0.3487(13) 0.8382(4)
O12 O 0.6513(13) 0.6513(13) 0.8382(4)
Zn4_4 Zn 1.000000 1.000000 0.27673(11)
Zn6_4 Zn 1.000000 1.000000 0.72327(11)
N1_2 N -0.000000 0.000000 0.1764(10)
C4_2 C -0.000000 0.000000 0.0385(11)
O4_2 O 0.2140(13) 0.2140(13) 0.2503(4)
C5_2 C 0.1131(16) 0.1131(16) 0.1455(8)
C6_2 C 0.234(2) 0.234(2) 0.1883(9)
C7_2 C 0.1204(16) 0.1204(16) 0.0731(9)
H2_2 H 0.202298 0.202298 0.050636
O6_2 O 0.2140(13) 0.2140(13) 0.7497(4)
N2_2 N 0.000000 0.000000 0.8236(10)
C8_2 C 0.1131(16) 0.1131(16) 0.8545(8)
C9_2 C 0.234(2) 0.234(2) 0.8117(9)
C10_2 C 0.1204(16) 0.1204(16) 0.9269(9)
H3_2 H 0.202298 0.202298 0.949364
C11_2 C 0.000000 0.000000 0.9615(11)
N1_3 N -0.000000 1.000000 0.1764(10)
C4_3 C -0.000000 1.000000 0.0385(11)
N2_3 N 0.000000 1.000000 0.8236(10)
C11_3 C -0.000000 1.000000 0.9615(11)
N1_4 N 1.000000 0.000000 0.1764(10)
C4_4 C 1.000000 0.000000 0.0385(11)
N2_4 N 1.000000 0.000000 0.8236(10)
C11_4 C 1.000000 0.000000 0.9615(11)
O2_2 O 0.7860(13) 0.7860(13) 0.2503(4)
N1_5 N 1.000000 1.000000 0.1764(10)
C1_2 C 0.8869(16) 0.8869(16) 0.1455(8)
C2_2 C 0.766(2) 0.766(2) 0.1883(9)
C3_2 C 0.8796(16) 0.8796(16) 0.0731(9)
H1_2 H 0.797702 0.797702 0.050636
C4_5 C 1.000000 1.000000 0.0385(11)
N2_5 N 1.000000 1.000000 0.8236(10)
C11_5 C 1.000000 1.000000 0.9615(11)
O8_2 O 0.7860(13) 0.7860(13) 0.7497(4)
C12_2 C 0.8869(16) 0.8869(16) 0.8545(8)
C13_2 C 0.766(2) 0.766(2) 0.8117(9)
C14_2 C 0.8796(16) 0.8796(16) 0.9269(9)
H4_2 H 0.797702 0.797702 0.949364
loop_
_geom_bond_atom_site_label_1
_geom_bond_atom_site_label_2
_geom_bond_site_symmetry_1
_geom_bond_site_symmetry_2
Zn1 O2 1_555 1_555
O1 C2 1_555 1_555
O2 C2 1_555 1_555
N1 Zn1 1_555 1_555
C1 N1 1_555 1_555
C2 C1 1_555 1_555
C3 C1 1_555 1_555
H1 C3 1_555 1_555
C4 C3 1_555 1_555
O3 C6 1_555 1_555
O4 Zn1 1_555 1_555
C5 N1 1_555 1_555
C6 O4 1_555 1_555
C7 C4 1_555 1_555
H2 C7 1_555 1_555
O5 C9 1_555 1_555
O6 C9 1_555 1_555
N2 C8 1_555 1_555
C8 C9 1_555 1_555
C10 C8 1_555 1_555
H3 C10 1_555 1_555
C11 C4 1_555 1_555
O7 C13 1_555 1_555
O8 C13 1_555 1_555
C12 N2 1_555 1_555
C13 C12 1_555 1_555
C14 C11 1_555 1_555
H4 C14 1_555 1_555
Zn2 O6 1_555 1_555
Zn4_2 O7 1_555 1_555
Zn4_3 O5 1_555 1_555
Zn6_2 O1 1_555 1_555
Zn6_3 O3 1_555 1_555
O9 Zn2 1_555 1_555
O10 Zn2 1_555 1_555
O11 Zn1 1_555 1_555
O12 Zn1 1_555 1_555
C5 C6 1_555 1_555
C5 C7 1_555 1_555
N2 Zn2 1_555 1_555
C10 C11 1_555 1_555
O8 Zn2 1_555 1_555
C12 C14 1_555 1_555
N1_2 Zn4 1_555 1_555
O10 C6_2 1_555 1_555
O4_2 Zn4 1_555 1_555
C5_2 N1_2 1_555 1_555
C6_2 O4_2 1_555 1_555
C7_2 C4_2 1_555 1_555
H2_2 C7_2 1_555 1_555
C5_2 C6_2 1_555 1_555
C5_2 C7_2 1_555 1_555
O11 C9_2 1_555 1_555
O6_2 C9_2 1_555 1_555
N2_2 C8_2 1_555 1_555
C8_2 C9_2 1_555 1_555
C10_2 C8_2 1_555 1_555
H3_2 C10_2 1_555 1_555
Zn6 O6_2 1_555 1_555
N2_2 Zn6 1_555 1_555
C10_2 C11_2 1_555 1_555
N1_3 Zn4_2 1_555 1_555
N2_3 Zn6_2 1_555 1_555
N1_4 Zn4_3 1_555 1_555
N2_4 Zn6_3 1_555 1_555
Zn4_4 O2_2 1_555 1_555
O9 C2_2 1_555 1_555
O2_2 C2_2 1_555 1_555
N1_5 Zn4_4 1_555 1_555
C1_2 N1_5 1_555 1_555
C2_2 C1_2 1_555 1_555
C3_2 C1_2 1_555 1_555
H1_2 C3_2 1_555 1_555
C4_5 C3_2 1_555 1_555
O12 C13_2 1_555 1_555
O8_2 C13_2 1_555 1_555
C12_2 N2_5 1_555 1_555
C13_2 C12_2 1_555 1_555
C14_2 C11_5 1_555 1_555
H4_2 C14_2 1_555 1_555
N2_5 Zn6_4 1_555 1_555
O8_2 Zn6_4 1_555 1_555
C12_2 C14_2 1_555 1_555

#END
