
###############################################################################
#
# This file contains modified crystal structure data generated from the
# MOF subset of the Cambridge Structural Database (CSD) v543 
# hosted by the Cambridge Crystallographic Data Centre (CCDC).
#
# This work is licensed under the Creative Commons
# Attribution-NonCommercial-ShareAlike 4.0 International License.
# To view a copy of this license, visit
# http://creativecommons.org/licenses/by-nc-sa/4.0/
# or send a letter to
# Creative Commons, PO Box 1866, Mountain View, CA 94042, USA.
#
# CIF created using the CSD Python API on 29 September 2022
# The structure has been converted into the P1 space group
# The structure has a 3D framework
# The original CSD entry IWEKED is in the tetragonal crystal system
# The framework has been calculated to contain at least 10.0% void space
# The void calculation uses a probe of radius 1.32A, grid spacing 0.4
#
###############################################################################

data_IWEKED
_chemical_formula_moiety         '(C34 H8 N10 O16 Zn10)n'
_symmetry_cell_setting           triclinic
_symmetry_space_group_name_H-M   'P 1'
_symmetry_Int_Tables_number      1
_space_group_name_Hall           'P 1'
loop_
_symmetry_equiv_pos_site_id
_symmetry_equiv_pos_as_xyz
1 x,y,z
_cell_length_a                   7.079(4)
_cell_length_b                   7.079(4)
_cell_length_c                   19.784(15)
_cell_angle_alpha                90
_cell_angle_beta                 90
_cell_angle_gamma                90
_cell_volume                     991.421
loop_
_atom_site_label
_atom_site_type_symbol
_atom_site_fract_x
_atom_site_fract_y
_atom_site_fract_z
Zn1 Zn -0.000000 -0.000000 0.2206(3)
O1 O 0.352(4) 0.352(4) 0.3396(9)
N1 N -0.000000 -0.000000 0.319(2)
O2 O 0.223(3) 0.223(3) 0.2502(11)
C1 C 0.120(2) 0.120(2) 0.3532(17)
C2 C 0.120(2) 0.120(2) 0.4239(14)
H1 H 0.200657 0.200657 0.447422
C3 C -0.000000 -0.000000 0.4589(18)
C4 C 0.243(4) 0.243(4) 0.313(3)
N2 N -0.000000 -0.000000 0.681(2)
O5 O 0.223(3) 0.223(3) 0.7498(11)
C8 C 0.120(2) 0.120(2) 0.6468(17)
C9 C 0.120(2) 0.120(2) 0.5761(14)
H3 H 0.200657 0.200657 0.552578
C10 C -0.000000 -0.000000 0.5411(18)
C11 C 0.243(4) 0.243(4) 0.687(3)
O6 O 0.352(4) 0.352(4) 0.6604(9)
Zn2 Zn -0.000000 -0.000000 0.7794(3)
Zn4 Zn 0.500000 0.500000 0.7206(3)
Zn6 Zn 0.500000 0.500000 0.2794(3)
Zn1_2 Zn -0.000000 1.000000 0.2206(3)
N1_2 N -0.000000 1.000000 0.319(2)
C3_2 C -0.000000 1.000000 0.4589(18)
N2_2 N -0.000000 1.000000 0.681(2)
C10_2 C -0.000000 1.000000 0.5411(18)
Zn2_2 Zn -0.000000 1.000000 0.7794(3)
O9 O 0.148(4) 0.852(4) 0.8396(9)
O11 O 0.148(4) 0.852(4) 0.1604(9)
Zn1_3 Zn 1.000000 -0.000000 0.2206(3)
N1_3 N 1.000000 -0.000000 0.319(2)
C3_3 C 1.000000 -0.000000 0.4589(18)
N2_3 N 1.000000 -0.000000 0.681(2)
C10_3 C 1.000000 -0.000000 0.5411(18)
Zn2_3 Zn 1.000000 -0.000000 0.7794(3)
O10 O 0.852(4) 0.148(4) 0.8396(9)
O12 O 0.852(4) 0.148(4) 0.1604(9)
Zn1_4 Zn 1.000000 1.000000 0.2206(3)
N1_4 N 1.000000 1.000000 0.319(2)
C3_4 C 1.000000 1.000000 0.4589(18)
O3 O 0.777(3) 0.777(3) 0.2502(11)
C5 C 0.880(2) 0.880(2) 0.3532(17)
C6 C 0.880(2) 0.880(2) 0.4239(14)
H2 H 0.799343 0.799343 0.447422
C7 C 0.757(4) 0.757(4) 0.313(3)
O4 O 0.648(4) 0.648(4) 0.3396(9)
N2_4 N 1.000000 1.000000 0.681(2)
C10_4 C 1.000000 1.000000 0.5411(18)
O7 O 0.777(3) 0.777(3) 0.7498(11)
C12 C 0.880(2) 0.880(2) 0.6468(17)
C13 C 0.880(2) 0.880(2) 0.5761(14)
H4 H 0.799343 0.799343 0.552578
C14 C 0.757(4) 0.757(4) 0.687(3)
O8 O 0.648(4) 0.648(4) 0.6604(9)
Zn2_4 Zn 1.000000 1.000000 0.7794(3)
N2_5 N 0.500000 0.500000 0.181(2)
O5_2 O 0.277(3) 0.723(3) 0.2498(11)
C8_2 C 0.380(2) 0.620(2) 0.1468(17)
C9_2 C 0.380(2) 0.620(2) 0.0761(14)
H3_2 H 0.299343 0.700657 0.052578
C10_5 C 0.500000 0.500000 0.0411(18)
C11_2 C 0.257(4) 0.743(4) 0.187(3)
O7_2 O 0.723(3) 0.277(3) 0.2498(11)
C12_2 C 0.620(2) 0.380(2) 0.1468(17)
C13_2 C 0.620(2) 0.380(2) 0.0761(14)
H4_2 H 0.700657 0.299343 0.052578
C14_2 C 0.743(4) 0.257(4) 0.187(3)
N1_5 N 0.500000 0.500000 0.819(2)
O2_2 O 0.277(3) 0.723(3) 0.7502(11)
C1_2 C 0.380(2) 0.620(2) 0.8532(17)
C2_2 C 0.380(2) 0.620(2) 0.9239(14)
H1_2 H 0.299343 0.700657 0.947422
C3_5 C 0.500000 0.500000 0.9589(18)
C4_2 C 0.257(4) 0.743(4) 0.813(3)
O3_2 O 0.723(3) 0.277(3) 0.7502(11)
C5_2 C 0.620(2) 0.380(2) 0.8532(17)
C6_2 C 0.620(2) 0.380(2) 0.9239(14)
H2_2 H 0.700657 0.299343 0.947422
C7_2 C 0.743(4) 0.257(4) 0.813(3)
loop_
_geom_bond_atom_site_label_1
_geom_bond_atom_site_label_2
_geom_bond_site_symmetry_1
_geom_bond_site_symmetry_2
Zn1 N1 1_555 1_555
O1 C4 1_555 1_555
N1 C1 1_555 1_555
O2 Zn1 1_555 1_555
C1 C2 1_555 1_555
C2 H1 1_555 1_555
C3 C2 1_555 1_555
C4 O2 1_555 1_555
N2 C8 1_555 1_555
O5 C11 1_555 1_555
C8 C9 1_555 1_555
C9 H3 1_555 1_555
C10 C3 1_555 1_555
C11 C8 1_555 1_555
O6 C11 1_555 1_555
Zn2 N2 1_555 1_555
Zn4 O6 1_555 1_555
Zn6 O1 1_555 1_555
C1 C4 1_555 1_555
O5 Zn2 1_555 1_555
C9 C10 1_555 1_555
Zn1_2 N1_2 1_555 1_555
C10_2 C3_2 1_555 1_555
Zn2_2 N2_2 1_555 1_555
O9 Zn2_2 1_555 1_555
O11 Zn1_2 1_555 1_555
Zn1_3 N1_3 1_555 1_555
C10_3 C3_3 1_555 1_555
Zn2_3 N2_3 1_555 1_555
O10 Zn2_3 1_555 1_555
O12 Zn1_3 1_555 1_555
Zn1_4 N1_4 1_555 1_555
O3 Zn1_4 1_555 1_555
C5 N1_4 1_555 1_555
C6 C3_4 1_555 1_555
H2 C6 1_555 1_555
C7 O3 1_555 1_555
O4 C7 1_555 1_555
C10_4 C3_4 1_555 1_555
O7 C14 1_555 1_555
C12 N2_4 1_555 1_555
C13 C10_4 1_555 1_555
H4 C13 1_555 1_555
C14 C12 1_555 1_555
O8 C14 1_555 1_555
Zn2_4 N2_4 1_555 1_555
Zn4 O8 1_555 1_555
Zn6 O4 1_555 1_555
C5 C6 1_555 1_555
C5 C7 1_555 1_555
O7 Zn2_4 1_555 1_555
C12 C13 1_555 1_555
N2_5 C8_2 1_555 1_555
O5_2 C11_2 1_555 1_555
C8_2 C9_2 1_555 1_555
C9_2 H3_2 1_555 1_555
C11_2 C8_2 1_555 1_555
O11 C11_2 1_555 1_555
O7_2 C14_2 1_555 1_555
C12_2 N2_5 1_555 1_555
C13_2 C10_5 1_555 1_555
H4_2 C13_2 1_555 1_555
C14_2 C12_2 1_555 1_555
O12 C14_2 1_555 1_555
Zn6 N2_5 1_555 1_555
O5_2 Zn6 1_555 1_555
C9_2 C10_5 1_555 1_555
O7_2 Zn6 1_555 1_555
C12_2 C13_2 1_555 1_555
Zn4 N1_5 1_555 1_555
O9 C4_2 1_555 1_555
N1_5 C1_2 1_555 1_555
O2_2 Zn4 1_555 1_555
C1_2 C2_2 1_555 1_555
C2_2 H1_2 1_555 1_555
C3_5 C2_2 1_555 1_555
C4_2 O2_2 1_555 1_555
O3_2 Zn4 1_555 1_555
C5_2 N1_5 1_555 1_555
C6_2 C3_5 1_555 1_555
H2_2 C6_2 1_555 1_555
C7_2 O3_2 1_555 1_555
O10 C7_2 1_555 1_555
C1_2 C4_2 1_555 1_555
C5_2 C6_2 1_555 1_555
C5_2 C7_2 1_555 1_555

#END
