
###############################################################################
#
# This file contains modified crystal structure data generated from the
# MOF subset of the Cambridge Structural Database (CSD) v543 
# hosted by the Cambridge Crystallographic Data Centre (CCDC).
#
# This work is licensed under the Creative Commons
# Attribution-NonCommercial-ShareAlike 4.0 International License.
# To view a copy of this license, visit
# http://creativecommons.org/licenses/by-nc-sa/4.0/
# or send a letter to
# Creative Commons, PO Box 1866, Mountain View, CA 94042, USA.
#
# CIF created using the CSD Python API on 29 September 2022
# The structure has been converted into the P1 space group
# The structure has a 3D framework
# The original CSD entry IWELIG01 is in the tetragonal crystal system
# The framework has been calculated to contain at least 10.0% void space
# The void calculation uses a probe of radius 1.32A, grid spacing 0.4
#
###############################################################################

data_IWELIG01
_chemical_formula_moiety         '(C80 H48 Co27 N64 O46)n'
_symmetry_cell_setting           triclinic
_symmetry_space_group_name_H-M   'P 1'
_symmetry_Int_Tables_number      1
_space_group_name_Hall           'P 1'
loop_
_symmetry_equiv_pos_site_id
_symmetry_equiv_pos_as_xyz
1 x,y,z
_cell_length_a                   20.7387(5)
_cell_length_b                   20.7387(5)
_cell_length_c                   8.4495(4)
_cell_angle_alpha                90
_cell_angle_beta                 90
_cell_angle_gamma                90
_cell_volume                     3634.08
loop_
_atom_site_label
_atom_site_type_symbol
_atom_site_fract_x
_atom_site_fract_y
_atom_site_fract_z
Co1 Co 0.5000 0.5000 0.0000
O7 O 0.44346(9) 0.45082(9) 0.1501(2)
O8 O 0.54149(11) 0.53204(11) 0.2127(3)
N12 N 0.43178(14) 0.57745(13) 0.0071(3)
Co1_2 Co 0.5000 0.5000 1.0000
Co2 Co 0.505259(18) 0.544916(19) 0.64087(5)
O1 O 0.55654(9) 0.54918(9) 0.8499(2)
O3 O 0.55541(9) 0.47118(9) 0.5459(2)
N1 N 0.56491(14) 0.61045(13) 0.5224(3)
N2 N 0.64006(13) 0.69014(14) 0.5175(3)
N3 N 0.67255(13) 0.68178(14) 0.2429(3)
N4 N 0.61512(16) 0.60121(16) 0.1071(3)
H1 H 0.6086 0.5836 0.0164
C1 C 0.57908(15) 0.57849(15) 0.2349(4)
C2 C 0.59072(15) 0.61396(16) 0.3737(4)
C3 C 0.59581(17) 0.65652(17) 0.6017(4)
H2 H 0.5876 0.6651 0.7078
C4 C 0.63697(15) 0.66375(15) 0.3727(4)
C5 C 0.65985(19) 0.64916(19) 0.1147(4)
H3 H 0.6827 0.6592 0.0233
Co3 Co 0.494741(18) 0.455084(19) 0.35913(5)
O5 O 0.45851(11) 0.46796(11) 0.7873(3)
O6 O 0.44459(9) 0.52882(9) 0.4541(2)
N5 N 0.43509(14) 0.38955(13) 0.4776(3)
N6 N 0.35994(13) 0.30986(14) 0.4825(3)
N7 N 0.32745(13) 0.31822(14) 0.7571(3)
N8 N 0.38488(16) 0.39879(16) 0.8929(3)
H4 H 0.3914 0.4164 0.9836
C6 C 0.42092(15) 0.42151(15) 0.7651(4)
C7 C 0.40928(15) 0.38604(16) 0.6263(4)
C8 C 0.40419(17) 0.34348(17) 0.3983(4)
H5 H 0.4124 0.3349 0.2922
C9 C 0.36303(15) 0.33625(15) 0.6273(4)
C10 C 0.34015(19) 0.35084(19) 0.8853(4)
H6 H 0.3173 0.3408 0.9767
Co5 Co 0.2500 0.2500 0.7500
Co6 Co 0.7500 0.7500 0.2500
Co7 Co 0.294916(19) 0.244741(18) 0.39087(5)
Co8 Co 0.705084(19) 0.755259(18) 0.60913(5)
N9 N 0.55986(14) 0.39006(13) 0.2675(3)
N10 N 0.44014(14) 0.60994(13) 0.7325(3)
N11 N 0.56822(14) 0.42255(13) 0.9929(3)
Co1_3 Co 0.0000 0.5000 0.5000
O5_2 O 0.04149(11) 0.53204(11) 0.2873(3)
N7_2 N 0.17255(13) 0.68178(14) 0.2571(3)
N8_2 N 0.11512(16) 0.60121(16) 0.3929(3)
H4_2 H 0.1086 0.5836 0.4836
C6_2 C 0.07908(15) 0.57849(15) 0.2651(4)
C7_2 C 0.09072(15) 0.61396(16) 0.1263(4)
C9_2 C 0.13697(15) 0.66375(15) 0.1273(4)
C10_2 C 0.15985(19) 0.64916(19) 0.3853(4)
H6_2 H 0.1827 0.6592 0.4767
Co5_2 Co 0.2500 0.7500 0.2500
O7_2 O 0.05654(9) 0.54918(9) 0.6501(2)
N10_2 N 0.05986(14) 0.39006(13) 0.2325(3)
N12_2 N 0.06822(14) 0.42255(13) 0.5071(3)
Co3_2 Co 0.005259(18) 0.544916(19) 0.85913(5)
O6_2 O 0.05541(9) 0.47118(9) 0.9541(2)
N5_2 N 0.06491(14) 0.61045(13) 0.9776(3)
N6_2 N 0.14006(13) 0.69014(14) 0.9825(3)
C8_2 C 0.09581(17) 0.65652(17) 0.8983(4)
H5_2 H 0.0876 0.6651 0.7922
Co7_2 Co 0.205084(19) 0.755259(18) 0.89087(5)
Co1_4 Co 1.0000 0.5000 0.5000
Co2_2 Co 0.994741(18) 0.455084(19) 0.14087(5)
O1_2 O 0.94346(9) 0.45082(9) 0.3499(2)
O3_2 O 0.94459(9) 0.52882(9) 0.0459(2)
N1_2 N 0.93509(14) 0.38955(13) 0.0224(3)
N2_2 N 0.85994(13) 0.30986(14) 0.0175(3)
C3_2 C 0.90419(17) 0.34348(17) 0.1017(4)
H2_2 H 0.9124 0.3349 0.2078
Co8_2 Co 0.794916(19) 0.244741(18) 0.10913(5)
O8_2 O 0.95851(11) 0.46796(11) 0.7127(3)
N11_2 N 0.93178(14) 0.57745(13) 0.4929(3)
N3_2 N 0.82745(13) 0.31822(14) 0.7429(3)
N4_2 N 0.88488(16) 0.39879(16) 0.6071(3)
H1_2 H 0.8914 0.4164 0.5164
C1_2 C 0.92092(15) 0.42151(15) 0.7349(4)
C2_2 C 0.90928(15) 0.38604(16) 0.8737(4)
C4_2 C 0.86303(15) 0.33625(15) 0.8727(4)
C5_2 C 0.84015(19) 0.35084(19) 0.6147(4)
H3_2 H 0.8173 0.3408 0.5233
Co6_2 Co 0.7500 0.2500 0.7500
N9_2 N 0.94014(14) 0.60994(13) 0.7675(3)
Co6_3 Co -0.0000 0.0000 0.5000
O1_3 O 0.20082(9) 0.80654(9) 0.0999(2)
O5_3 O 0.28204(11) 0.70851(11) 0.0373(3)
N8_3 N 0.35121(16) 0.63488(16) 0.1429(3)
H4_3 H 0.3336 0.6414 0.2336
C6_3 C 0.32849(15) 0.67092(15) 0.0151(4)
C10_3 C 0.39916(19) 0.59015(19) 0.1353(4)
H6_3 H 0.4092 0.5673 0.2267
O7_3 O 0.29918(9) 0.69346(9) 0.4001(2)
O8_3 O 0.21796(11) 0.79149(11) 0.4627(3)
N11_3 N 0.32745(13) 0.81822(14) 0.2429(3)
O3_3 O 0.27882(9) 0.80541(9) 0.7959(2)
N1_3 N 0.13955(13) 0.81491(14) 0.7724(3)
N2_3 N 0.05986(14) 0.89006(13) 0.7675(3)
N3_3 N 0.06822(14) 0.92255(13) 0.4929(3)
N4_3 N 0.14879(16) 0.86512(16) 0.3571(3)
H1_3 H 0.1664 0.8586 0.2664
C1_3 C 0.17151(15) 0.82908(15) 0.4849(4)
C2_3 C 0.13604(16) 0.84072(15) 0.6237(4)
C3_3 C 0.09348(17) 0.84581(17) 0.8517(4)
H2_3 H 0.0849 0.8376 0.9578
C4_3 C 0.08625(15) 0.88697(15) 0.6227(4)
C5_3 C 0.10084(19) 0.90985(19) 0.3647(4)
H3_3 H 0.0908 0.9327 0.2733
Co3_3 Co 0.294916(19) 0.744741(18) 0.60913(5)
O6_3 O 0.22118(9) 0.69459(9) 0.7041(2)
N5_3 N 0.36045(13) 0.68509(14) 0.7276(3)
C7_3 C 0.36396(16) 0.65928(15) 0.8763(4)
C8_3 C 0.40652(17) 0.65419(17) 0.6483(4)
H5_3 H 0.4151 0.6624 0.5422
C9_3 C 0.41375(15) 0.61303(15) 0.8773(4)
Co6_4 Co 0.0000 1.0000 0.5000
N9_3 N 0.35994(13) 0.80986(14) 0.5175(3)
Co6_5 Co 1.0000 0.0000 0.5000
Co6_6 Co 1.0000 1.0000 0.5000
Co8_3 Co 0.994741(18) 0.955084(19) 0.85913(5)
O1_4 O 0.29918(9) 0.19346(9) 0.5999(2)
O3_4 O 0.22118(9) 0.19459(9) 0.2959(2)
N1_4 N 0.36045(13) 0.18509(14) 0.2724(3)
N2_4 N 0.44014(14) 0.10994(13) 0.2675(3)
C2_4 C 0.36396(16) 0.15928(15) 0.1237(4)
C3_4 C 0.40652(17) 0.15419(17) 0.3517(4)
H2_4 H 0.4151 0.1624 0.4578
C4_4 C 0.41375(15) 0.11303(15) 0.1227(4)
Co3_4 Co 0.205084(19) 0.255259(18) 0.10913(5)
O5_4 O 0.21796(11) 0.29149(11) 0.5373(3)
O6_4 O 0.27882(9) 0.30541(9) 0.2041(2)
N5_4 N 0.13955(13) 0.31491(14) 0.2276(3)
N8_4 N 0.14879(16) 0.36512(16) 0.6429(3)
H4_4 H 0.1664 0.3586 0.7336
C6_4 C 0.17151(15) 0.32908(15) 0.5151(4)
C7_4 C 0.13604(16) 0.34072(15) 0.3763(4)
C8_4 C 0.09348(17) 0.34581(17) 0.1483(4)
H5_4 H 0.0849 0.3376 0.0422
C9_4 C 0.08625(15) 0.38697(15) 0.3773(4)
C10_4 C 0.10084(19) 0.40985(19) 0.6353(4)
H6_4 H 0.0908 0.4327 0.7267
Co6_7 Co 0.5000 -0.0000 0.0000
Co8_4 Co 0.505259(18) 0.044916(19) 0.35913(5)
O7_4 O 0.20082(9) 0.30654(9) 0.9001(2)
O8_4 O 0.28204(11) 0.20851(11) 0.9627(3)
N9_4 N 0.14006(13) 0.19014(14) 0.0175(3)
N11_4 N 0.17255(13) 0.18178(14) 0.7429(3)
N3_4 N 0.43178(14) 0.07745(13) 0.9929(3)
N4_4 N 0.35121(16) 0.13488(16) 0.8571(3)
H1_4 H 0.3336 0.1414 0.7664
C1_4 C 0.32849(15) 0.17092(15) 0.9849(4)
C5_4 C 0.39916(19) 0.09015(19) 0.8647(4)
H3_4 H 0.4092 0.0673 0.7733
Co6_8 Co 0.5000 -0.0000 1.0000
Co6_9 Co 0.5000 1.0000 0.0000
Co6_10 Co 0.5000 1.0000 1.0000
Co2_3 Co 0.005259(18) 0.044916(19) 0.14087(5)
O1_5 O 0.05654(9) 0.04918(9) 0.3499(2)
N1_5 N 0.06491(14) 0.11045(13) 0.0224(3)
C3_5 C 0.09581(17) 0.15652(17) 0.1017(4)
H2_5 H 0.0876 0.1651 0.2078
O8_5 O 0.04149(11) 0.03204(11) 0.7127(3)
N4_5 N 0.11512(16) 0.10121(16) 0.6071(3)
H1_5 H 0.1086 0.0836 0.5164
C1_5 C 0.07908(15) 0.07849(15) 0.7349(4)
C2_5 C 0.09072(15) 0.11396(16) 0.8737(4)
C4_5 C 0.13697(15) 0.16375(15) 0.8727(4)
C5_5 C 0.15985(19) 0.14916(19) 0.6147(4)
H3_5 H 0.1827 0.1592 0.5233
O3_5 O 0.05541(9) 0.97118(9) 0.0459(2)
N10_3 N 0.94014(14) 0.10994(13) 0.2325(3)
N12_3 N 0.93178(14) 0.07745(13) 0.5071(3)
O6_5 O 0.94459(9) 0.02882(9) 0.9541(2)
O5_5 O 0.95851(11) 0.96796(11) 0.2873(3)
N7_3 N 0.82745(13) 0.81822(14) 0.2571(3)
N8_5 N 0.88488(16) 0.89879(16) 0.3929(3)
H4_5 H 0.8914 0.9164 0.4836
C6_5 C 0.92092(15) 0.92151(15) 0.2651(4)
C7_5 C 0.90928(15) 0.88604(16) 0.1263(4)
C9_5 C 0.86303(15) 0.83625(15) 0.1273(4)
C10_5 C 0.84015(19) 0.85084(19) 0.3853(4)
H6_5 H 0.8173 0.8408 0.4767
O7_5 O 0.94346(9) 0.95082(9) 0.6501(2)
N5_5 N 0.93509(14) 0.88955(13) 0.9776(3)
N6_3 N 0.85994(13) 0.80986(14) 0.9825(3)
C8_5 C 0.90419(17) 0.84348(17) 0.8983(4)
H5_5 H 0.9124 0.8349 0.7922
Co7_3 Co 0.794916(19) 0.744741(18) 0.89087(5)
O7_6 O 0.55654(9) 0.04918(9) 0.1501(2)
O3_6 O 0.44459(9) 0.02882(9) 0.5459(2)
O5_6 O 0.54149(11) 0.03204(11) 0.7873(3)
N5_6 N 0.56491(14) 0.11045(13) 0.4776(3)
N6_4 N 0.64006(13) 0.19014(14) 0.4825(3)
N7_4 N 0.67255(13) 0.18178(14) 0.7571(3)
N8_6 N 0.61512(16) 0.10121(16) 0.8929(3)
H4_6 H 0.6086 0.0836 0.9836
C6_6 C 0.57908(15) 0.07849(15) 0.7651(4)
C7_6 C 0.59072(15) 0.11396(16) 0.6263(4)
C8_6 C 0.59581(17) 0.15652(17) 0.3983(4)
H5_6 H 0.5876 0.1651 0.2922
C9_6 C 0.63697(15) 0.16375(15) 0.6273(4)
C10_6 C 0.65985(19) 0.14916(19) 0.8853(4)
H6_6 H 0.6827 0.1592 0.9767
Co7_4 Co 0.705084(19) 0.255259(18) 0.39087(5)
O8_6 O 0.45851(11) 0.96796(11) 0.2127(3)
N12_4 N 0.56822(14) 0.92255(13) 0.0071(3)
Co2_4 Co 0.494741(18) 0.955084(19) 0.64087(5)
O1_6 O 0.44346(9) 0.95082(9) 0.8499(2)
N1_6 N 0.43509(14) 0.88955(13) 0.5224(3)
N4_6 N 0.38488(16) 0.89879(16) 0.1071(3)
H1_6 H 0.3914 0.9164 0.0164
C1_6 C 0.42092(15) 0.92151(15) 0.2349(4)
C2_6 C 0.40928(15) 0.88604(16) 0.3737(4)
C3_6 C 0.40419(17) 0.84348(17) 0.6017(4)
H2_6 H 0.4124 0.8349 0.7078
C4_6 C 0.36303(15) 0.83625(15) 0.3727(4)
C5_6 C 0.34015(19) 0.85084(19) 0.1147(4)
H3_6 H 0.3173 0.8408 0.0233
O6_6 O 0.55541(9) 0.97118(9) 0.4541(2)
N10_4 N 0.55986(14) 0.89006(13) 0.7325(3)
O1_7 O 0.70082(9) 0.30654(9) 0.5999(2)
O3_7 O 0.77882(9) 0.30541(9) 0.2959(2)
N1_7 N 0.63955(13) 0.31491(14) 0.2724(3)
C2_7 C 0.63604(16) 0.34072(15) 0.1237(4)
C3_7 C 0.59348(17) 0.34581(17) 0.3517(4)
H2_7 H 0.5849 0.3376 0.4578
C4_7 C 0.58625(15) 0.38697(15) 0.1227(4)
O5_7 O 0.78204(11) 0.20851(11) 0.5373(3)
O6_7 O 0.72118(9) 0.19459(9) 0.2041(2)
N5_7 N 0.86045(13) 0.18509(14) 0.2276(3)
N8_7 N 0.85121(16) 0.13488(16) 0.6429(3)
H4_7 H 0.8336 0.1414 0.7336
C6_7 C 0.82849(15) 0.17092(15) 0.5151(4)
C7_7 C 0.86396(16) 0.15928(15) 0.3763(4)
C8_7 C 0.90652(17) 0.15419(17) 0.1483(4)
H5_7 H 0.9151 0.1624 0.0422
C9_7 C 0.91375(15) 0.11303(15) 0.3773(4)
C10_7 C 0.89916(19) 0.09015(19) 0.6353(4)
H6_7 H 0.9092 0.0673 0.7267
O7_7 O 0.79918(9) 0.19346(9) 0.9001(2)
O8_7 O 0.71796(11) 0.29149(11) 0.9627(3)
N4_7 N 0.64879(16) 0.36512(16) 0.8571(3)
H1_7 H 0.6664 0.3586 0.7664
C1_7 C 0.67151(15) 0.32908(15) 0.9849(4)
C5_7 C 0.60084(19) 0.40985(19) 0.8647(4)
H3_7 H 0.5908 0.4327 0.7733
O1_8 O 0.79918(9) 0.69346(9) 0.0999(2)
O5_8 O 0.71796(11) 0.79149(11) 0.0373(3)
N8_8 N 0.64879(16) 0.86512(16) 0.1429(3)
H4_8 H 0.6664 0.8586 0.2336
C6_8 C 0.67151(15) 0.82908(15) 0.0151(4)
C10_8 C 0.60084(19) 0.90985(19) 0.1353(4)
H6_8 H 0.5908 0.9327 0.2267
O7_8 O 0.70082(9) 0.80654(9) 0.4001(2)
O8_8 O 0.78204(11) 0.70851(11) 0.4627(3)
O3_8 O 0.72118(9) 0.69459(9) 0.7959(2)
N1_8 N 0.86045(13) 0.68509(14) 0.7724(3)
N4_8 N 0.85121(16) 0.63488(16) 0.3571(3)
H1_8 H 0.8336 0.6414 0.2664
C1_8 C 0.82849(15) 0.67092(15) 0.4849(4)
C2_8 C 0.86396(16) 0.65928(15) 0.6237(4)
C3_8 C 0.90652(17) 0.65419(17) 0.8517(4)
H2_8 H 0.9151 0.6624 0.9578
C4_8 C 0.91375(15) 0.61303(15) 0.6227(4)
C5_8 C 0.89916(19) 0.59015(19) 0.3647(4)
H3_8 H 0.9092 0.5673 0.2733
O6_8 O 0.77882(9) 0.80541(9) 0.7041(2)
N5_8 N 0.63955(13) 0.81491(14) 0.7276(3)
C7_8 C 0.63604(16) 0.84072(15) 0.8763(4)
C8_8 C 0.59348(17) 0.84581(17) 0.6483(4)
H5_8 H 0.5849 0.8376 0.5422
C9_8 C 0.58625(15) 0.88697(15) 0.8773(4)
loop_
_geom_bond_atom_site_label_1
_geom_bond_atom_site_label_2
_geom_bond_site_symmetry_1
_geom_bond_site_symmetry_2
O7 Co1 1_555 1_555
O8 Co1 1_555 1_555
N12 Co1 1_555 1_555
Co1_2 O1 1_555 1_555
Co2 O1 1_555 1_555
O8 C1 1_555 1_555
O3 Co2 1_555 1_555
N1 Co2 1_555 1_555
N2 C3 1_555 1_555
N3 C4 1_555 1_555
N4 H1 1_555 1_555
C1 N4 1_555 1_555
C2 N1 1_555 1_555
C3 N1 1_555 1_555
H2 C3 1_555 1_555
C4 N2 1_555 1_555
C5 N3 1_555 1_555
H3 C5 1_555 1_555
Co3 O8 1_555 1_555
O7 Co3 1_555 1_555
O5 Co1_2 1_555 1_555
O6 Co2 1_555 1_555
N5 Co3 1_555 1_555
N6 C8 1_555 1_555
N7 C9 1_555 1_555
N8 H4 1_555 1_555
C6 O5 1_555 1_555
C7 N5 1_555 1_555
C8 N5 1_555 1_555
H5 C8 1_555 1_555
C9 N6 1_555 1_555
C10 N7 1_555 1_555
H6 C10 1_555 1_555
Co5 N7 1_555 1_555
Co6 N3 1_555 1_555
Co7 N6 1_555 1_555
Co8 N2 1_555 1_555
N9 Co3 1_555 1_555
N10 Co2 1_555 1_555
N11 Co1_2 1_555 1_555
Co2 O5 1_555 1_555
O3 Co3 1_555 1_555
N4 C5 1_555 1_555
C1 C2 1_555 1_555
C2 C4 1_555 1_555
Co3 O6 1_555 1_555
N8 C6 1_555 1_555
N8 C10 1_555 1_555
C6 C7 1_555 1_555
C7 C9 1_555 1_555
O5_2 Co1_3 1_555 1_555
N7_2 C9_2 1_555 1_555
N8_2 H4_2 1_555 1_555
C6_2 O5_2 1_555 1_555
C10_2 N7_2 1_555 1_555
H6_2 C10_2 1_555 1_555
Co5_2 N7_2 1_555 1_555
O7_2 Co1_3 1_555 1_555
N12_2 Co1_3 1_555 1_555
N8_2 C6_2 1_555 1_555
N8_2 C10_2 1_555 1_555
C6_2 C7_2 1_555 1_555
C7_2 C9_2 1_555 1_555
O7_2 Co3_2 1_555 1_555
N5_2 Co3_2 1_555 1_555
N6_2 C8_2 1_555 1_555
C8_2 N5_2 1_555 1_555
H5_2 C8_2 1_555 1_555
Co7_2 N6_2 1_555 1_555
Co3_2 O6_2 1_555 1_555
Co1_4 O1_2 1_555 1_555
Co2_2 O1_2 1_555 1_555
O3_2 Co2_2 1_555 1_555
N1_2 Co2_2 1_555 1_555
N2_2 C3_2 1_555 1_555
C3_2 N1_2 1_555 1_555
H2_2 C3_2 1_555 1_555
Co8_2 N2_2 1_555 1_555
O8_2 Co1_4 1_555 1_555
N11_2 Co1_4 1_555 1_555
O8_2 C1_2 1_555 1_555
N3_2 C4_2 1_555 1_555
N4_2 H1_2 1_555 1_555
C1_2 N4_2 1_555 1_555
C5_2 N3_2 1_555 1_555
H3_2 C5_2 1_555 1_555
Co6_2 N3_2 1_555 1_555
N4_2 C5_2 1_555 1_555
C1_2 C2_2 1_555 1_555
C2_2 C4_2 1_555 1_555
Co5_2 O1_3 1_555 1_555
O5_3 Co5_2 1_555 1_555
N8_3 H4_3 1_555 1_555
C6_3 O5_3 1_555 1_555
C10_3 N12 1_555 1_555
H6_3 C10_3 1_555 1_555
O7_3 Co5_2 1_555 1_555
O8_3 Co5_2 1_555 1_555
N11_3 Co5_2 1_555 1_555
N8_3 C6_3 1_555 1_555
N8_3 C10_3 1_555 1_555
O8_3 C1_3 1_555 1_555
O3_3 Co7_2 1_555 1_555
N1_3 Co7_2 1_555 1_555
N2_3 C3_3 1_555 1_555
N3_3 C4_3 1_555 1_555
N4_3 H1_3 1_555 1_555
C1_3 N4_3 1_555 1_555
C2_3 N1_3 1_555 1_555
C3_3 N1_3 1_555 1_555
H2_3 C3_3 1_555 1_555
C4_3 N2_3 1_555 1_555
C5_3 N3_3 1_555 1_555
H3_3 C5_3 1_555 1_555
Co3_3 O8_3 1_555 1_555
O7_3 Co3_3 1_555 1_555
O6_3 Co7_2 1_555 1_555
N5_3 Co3_3 1_555 1_555
N10 C8_3 1_555 1_555
C7_3 N5_3 1_555 1_555
C8_3 N5_3 1_555 1_555
H5_3 C8_3 1_555 1_555
C9_3 N10 1_555 1_555
Co6_4 N3_3 1_555 1_555
N9_3 Co3_3 1_555 1_555
O3_3 Co3_3 1_555 1_555
N4_3 C5_3 1_555 1_555
C1_3 C2_3 1_555 1_555
C2_3 C4_3 1_555 1_555
Co3_3 O6_3 1_555 1_555
C7_3 C9_3 1_555 1_555
Co5 O1_4 1_555 1_555
Co7 O1_4 1_555 1_555
O3_4 Co7 1_555 1_555
N1_4 Co7 1_555 1_555
N2_4 C3_4 1_555 1_555
C2_4 N1_4 1_555 1_555
C3_4 N1_4 1_555 1_555
H2_4 C3_4 1_555 1_555
C4_4 N2_4 1_555 1_555
O5_4 Co5 1_555 1_555
O6_4 Co7 1_555 1_555
N5_4 Co3_4 1_555 1_555
N10_2 C8_4 1_555 1_555
N12_2 C9_4 1_555 1_555
N8_4 H4_4 1_555 1_555
C6_4 O5_4 1_555 1_555
C7_4 N5_4 1_555 1_555
C8_4 N5_4 1_555 1_555
H5_4 C8_4 1_555 1_555
C9_4 N10_2 1_555 1_555
C10_4 N12_2 1_555 1_555
H6_4 C10_4 1_555 1_555
Co8_4 N2_4 1_555 1_555
O7_4 Co5 1_555 1_555
O8_4 Co5 1_555 1_555
N9_4 Co3_4 1_555 1_555
N11_4 Co5 1_555 1_555
Co7 O5_4 1_555 1_555
O3_4 Co3_4 1_555 1_555
C2_4 C4_4 1_555 1_555
Co3_4 O6_4 1_555 1_555
N8_4 C6_4 1_555 1_555
N8_4 C10_4 1_555 1_555
C6_4 C7_4 1_555 1_555
C7_4 C9_4 1_555 1_555
O8_4 C1_4 1_555 1_555
N4_4 H1_4 1_555 1_555
C1_4 N4_4 1_555 1_555
C5_4 N3_4 1_555 1_555
H3_4 C5_4 1_555 1_555
Co6_8 N3_4 1_555 1_555
N4_4 C5_4 1_555 1_555
Co6_3 O1_5 1_555 1_555
Co2_3 O1_5 1_555 1_555
N1_5 Co2_3 1_555 1_555
N9_4 C3_5 1_555 1_555
C3_5 N1_5 1_555 1_555
H2_5 C3_5 1_555 1_555
O8_5 Co6_3 1_555 1_555
O8_5 C1_5 1_555 1_555
N11_4 C4_5 1_555 1_555
N4_5 H1_5 1_555 1_555
C1_5 N4_5 1_555 1_555
C5_5 N11_4 1_555 1_555
H3_5 C5_5 1_555 1_555
N4_5 C5_5 1_555 1_555
C1_5 C2_5 1_555 1_555
C2_5 C4_5 1_555 1_555
N12_3 Co6_5 1_555 1_555
O5_5 Co6_6 1_555 1_555
N7_3 C9_5 1_555 1_555
N8_5 H4_5 1_555 1_555
C6_5 O5_5 1_555 1_555
C10_5 N7_3 1_555 1_555
H6_5 C10_5 1_555 1_555
Co6 N7_3 1_555 1_555
O7_5 Co6_6 1_555 1_555
N8_5 C6_5 1_555 1_555
N8_5 C10_5 1_555 1_555
C6_5 C7_5 1_555 1_555
C7_5 C9_5 1_555 1_555
O7_5 Co8_3 1_555 1_555
N5_5 Co8_3 1_555 1_555
N6_3 C8_5 1_555 1_555
C8_5 N5_5 1_555 1_555
H5_5 C8_5 1_555 1_555
Co7_3 N6_3 1_555 1_555
O7_6 Co6_7 1_555 1_555
O7_6 Co8_4 1_555 1_555
O5_6 Co6_8 1_555 1_555
N5_6 Co8_4 1_555 1_555
N6_4 C8_6 1_555 1_555
N7_4 C9_6 1_555 1_555
N8_6 H4_6 1_555 1_555
C6_6 O5_6 1_555 1_555
C7_6 N5_6 1_555 1_555
C8_6 N5_6 1_555 1_555
H5_6 C8_6 1_555 1_555
C9_6 N6_4 1_555 1_555
C10_6 N7_4 1_555 1_555
H6_6 C10_6 1_555 1_555
Co6_2 N7_4 1_555 1_555
Co7_4 N6_4 1_555 1_555
O3_6 Co8_4 1_555 1_555
N8_6 C6_6 1_555 1_555
N8_6 C10_6 1_555 1_555
C6_6 C7_6 1_555 1_555
C7_6 C9_6 1_555 1_555
O8_6 Co6_9 1_555 1_555
N12_4 Co6_9 1_555 1_555
Co6_10 O1_6 1_555 1_555
Co2_4 O1_6 1_555 1_555
O8_6 C1_6 1_555 1_555
N1_6 Co2_4 1_555 1_555
N9_3 C3_6 1_555 1_555
N11_3 C4_6 1_555 1_555
N4_6 H1_6 1_555 1_555
C1_6 N4_6 1_555 1_555
C2_6 N1_6 1_555 1_555
C3_6 N1_6 1_555 1_555
H2_6 C3_6 1_555 1_555
C4_6 N9_3 1_555 1_555
C5_6 N11_3 1_555 1_555
H3_6 C5_6 1_555 1_555
O6_6 Co2_4 1_555 1_555
N10_4 Co2_4 1_555 1_555
N4_6 C5_6 1_555 1_555
C1_6 C2_6 1_555 1_555
C2_6 C4_6 1_555 1_555
Co6_2 O1_7 1_555 1_555
Co7_4 O1_7 1_555 1_555
O3_7 Co7_4 1_555 1_555
N1_7 Co7_4 1_555 1_555
N9 C3_7 1_555 1_555
C2_7 N1_7 1_555 1_555
C3_7 N1_7 1_555 1_555
H2_7 C3_7 1_555 1_555
C4_7 N9 1_555 1_555
O5_7 Co6_2 1_555 1_555
O6_7 Co7_4 1_555 1_555
N5_7 Co8_2 1_555 1_555
N10_3 C8_7 1_555 1_555
N12_3 C9_7 1_555 1_555
N8_7 H4_7 1_555 1_555
C6_7 O5_7 1_555 1_555
C7_7 N5_7 1_555 1_555
C8_7 N5_7 1_555 1_555
H5_7 C8_7 1_555 1_555
C9_7 N10_3 1_555 1_555
C10_7 N12_3 1_555 1_555
H6_7 C10_7 1_555 1_555
O7_7 Co6_2 1_555 1_555
O8_7 Co6_2 1_555 1_555
Co7_4 O5_7 1_555 1_555
O3_7 Co8_2 1_555 1_555
C2_7 C4_7 1_555 1_555
Co8_2 O6_7 1_555 1_555
N8_7 C6_7 1_555 1_555
N8_7 C10_7 1_555 1_555
C6_7 C7_7 1_555 1_555
C7_7 C9_7 1_555 1_555
O8_7 C1_7 1_555 1_555
N4_7 H1_7 1_555 1_555
C1_7 N4_7 1_555 1_555
C5_7 N11 1_555 1_555
H3_7 C5_7 1_555 1_555
N4_7 C5_7 1_555 1_555
Co6 O1_8 1_555 1_555
O5_8 Co6 1_555 1_555
N8_8 H4_8 1_555 1_555
C6_8 O5_8 1_555 1_555
C10_8 N12_4 1_555 1_555
H6_8 C10_8 1_555 1_555
O7_8 Co6 1_555 1_555
O8_8 Co6 1_555 1_555
N8_8 C6_8 1_555 1_555
N8_8 C10_8 1_555 1_555
O8_8 C1_8 1_555 1_555
O3_8 Co7_3 1_555 1_555
N1_8 Co7_3 1_555 1_555
N9_2 C3_8 1_555 1_555
N11_2 C4_8 1_555 1_555
N4_8 H1_8 1_555 1_555
C1_8 N4_8 1_555 1_555
C2_8 N1_8 1_555 1_555
C3_8 N1_8 1_555 1_555
H2_8 C3_8 1_555 1_555
C4_8 N9_2 1_555 1_555
C5_8 N11_2 1_555 1_555
H3_8 C5_8 1_555 1_555
Co8 O8_8 1_555 1_555
O7_8 Co8 1_555 1_555
O6_8 Co7_3 1_555 1_555
N5_8 Co8 1_555 1_555
N10_4 C8_8 1_555 1_555
C7_8 N5_8 1_555 1_555
C8_8 N5_8 1_555 1_555
H5_8 C8_8 1_555 1_555
C9_8 N10_4 1_555 1_555
O3_8 Co8 1_555 1_555
N4_8 C5_8 1_555 1_555
C1_8 C2_8 1_555 1_555
C2_8 C4_8 1_555 1_555
Co8 O6_8 1_555 1_555
C7_8 C9_8 1_555 1_555

#END
