
###############################################################################
#
# This file contains modified crystal structure data generated from the
# MOF subset of the Cambridge Structural Database (CSD) v543 
# hosted by the Cambridge Crystallographic Data Centre (CCDC).
#
# This work is licensed under the Creative Commons
# Attribution-NonCommercial-ShareAlike 4.0 International License.
# To view a copy of this license, visit
# http://creativecommons.org/licenses/by-nc-sa/4.0/
# or send a letter to
# Creative Commons, PO Box 1866, Mountain View, CA 94042, USA.
#
# CIF created using the CSD Python API on 29 September 2022
# The structure has been converted into the P1 space group
# The structure has a 3D framework
# The original CSD entry IWELIG is in the tetragonal crystal system
# The framework has been calculated to contain at least 10.0% void space
# The void calculation uses a probe of radius 1.32A, grid spacing 0.4
#
###############################################################################

data_IWELIG
_chemical_formula_moiety         '(C80 H48 Co29 N64 O36)n'
_symmetry_cell_setting           triclinic
_symmetry_space_group_name_H-M   'P 1'
_symmetry_Int_Tables_number      1
_space_group_name_Hall           'P 1'
loop_
_symmetry_equiv_pos_site_id
_symmetry_equiv_pos_as_xyz
1 x,y,z
_cell_length_a                   20.7548(10)
_cell_length_b                   20.7548(10)
_cell_length_c                   8.4682(8)
_cell_angle_alpha                90
_cell_angle_beta                 90
_cell_angle_gamma                90
_cell_volume                     3647.78
loop_
_atom_site_label
_atom_site_type_symbol
_atom_site_fract_x
_atom_site_fract_y
_atom_site_fract_z
Co1 Co 0.0000 0.0000 0.0000
O5 O 0.0549(2) 0.0287(2) 0.4542(5)
N7 N 0.0681(3) 0.0773(3) 0.0061(7)
Co1_2 Co 0.0000 0.0000 1.0000
N13 N 0.0599(3) 0.1099(3) 0.7321(7)
Co1_3 Co 0.0000 1.0000 0.0000
Co5 Co 0.00536(4) 0.95517(4) 0.35924(10)
O7 O 0.0568(2) 0.9512(2) 0.1512(5)
N11 N 0.0652(3) 0.8897(3) 0.4754(7)
Co1_4 Co -0.0000 1.0000 1.0000
O3 O 0.0412(2) 0.9681(2) 0.7861(6)
N1 N 0.1153(3) 0.8981(3) 0.8916(7)
H1 H 0.1088 0.9156 0.9822
N2 N 0.1727(3) 0.8181(3) 0.7561(7)
N4 N 0.1401(3) 0.8099(3) 0.4821(7)
C1 C 0.1589(4) 0.8504(4) 0.8835(9)
H2 H 0.1808 0.8397 0.9757
C2 C 0.1371(3) 0.8369(3) 0.6276(8)
C3 C 0.0914(3) 0.8867(3) 0.6256(8)
C4 C 0.0797(4) 0.9212(3) 0.7644(8)
C5 C 0.0958(4) 0.8434(4) 0.3978(9)
H3 H 0.0874 0.8345 0.2922
Co3 Co 0.2500 0.7500 0.7500
Co7 Co 0.20517(4) 0.74464(4) 0.39076(10)
Co1_5 Co 1.0000 0.0000 0.0000
Co4 Co 0.7500 0.2500 0.2500
Co8 Co 0.99464(4) 0.04483(4) 0.64076(10)
Co9 Co 0.79483(4) 0.25536(4) 0.60924(10)
O8 O 0.9588(2) 0.0319(2) 0.2139(6)
N5 N 0.8847(3) 0.1019(3) 0.1084(7)
H4 H 0.8912 0.0844 0.0178
N6 N 0.8273(3) 0.1819(3) 0.2439(7)
N9 N 0.9348(3) 0.1103(3) 0.5246(7)
N12 N 0.8599(3) 0.1901(3) 0.5179(7)
C6 C 0.8411(4) 0.1496(4) 0.1165(9)
H5 H 0.8192 0.1603 0.0243
C7 C 0.8629(3) 0.1631(3) 0.3724(8)
C8 C 0.9086(3) 0.1133(3) 0.3744(8)
C9 C 0.9203(4) 0.0788(3) 0.2356(8)
C10 C 0.9042(4) 0.1566(4) 0.6022(9)
H6 H 0.9126 0.1655 0.7078
Co1_6 Co 1.0000 0.0000 1.0000
O2 O 0.9432(2) 0.0488(2) 0.8488(5)
Co1_7 Co 1.0000 1.0000 0.0000
O6 O 0.9451(2) 0.9713(2) 0.5458(5)
N14 N 0.9401(3) 0.8901(3) 0.2679(7)
Co1_8 Co 1.0000 1.0000 1.0000
N8 N 0.9319(3) 0.9227(3) 0.9939(7)
O6_2 O 0.5549(2) 0.0287(2) 0.0458(5)
Co1_9 Co 0.5000 0.0000 0.5000
O3_2 O 0.4588(2) 0.0319(2) 0.2861(6)
N1_2 N 0.3847(3) 0.1019(3) 0.3916(7)
H1_2 H 0.3912 0.0844 0.4822
N2_2 N 0.3273(3) 0.1819(3) 0.2561(7)
C1_2 C 0.3411(4) 0.1496(4) 0.3835(9)
H2_2 H 0.3192 0.1603 0.4757
C2_2 C 0.3629(3) 0.1631(3) 0.1276(8)
C3_2 C 0.4086(3) 0.1133(3) 0.1256(8)
C4_2 C 0.4203(4) 0.0788(3) 0.2644(8)
Co3_2 Co 0.2500 0.2500 0.2500
Co5_2 Co 0.49464(4) 0.04483(4) 0.85924(10)
O7_2 O 0.4432(2) 0.0488(2) 0.6512(5)
N8_2 N 0.5681(3) 0.0773(3) 0.4939(7)
N11_2 N 0.4348(3) 0.1103(3) 0.9754(7)
N14_2 N 0.5599(3) 0.1099(3) 0.7679(7)
N4_2 N 0.3599(3) 0.1901(3) 0.9821(7)
C5_2 C 0.4042(4) 0.1566(4) 0.8978(9)
H3_2 H 0.4126 0.1655 0.7922
Co7_2 Co 0.29483(4) 0.25536(4) 0.89076(10)
Co8_2 Co 0.50536(4) 0.95517(4) 0.14076(10)
Co9_2 Co 0.70517(4) 0.74464(4) 0.10924(10)
N9_2 N 0.5652(3) 0.8897(3) 0.0246(7)
N12_2 N 0.6401(3) 0.8099(3) 0.0179(7)
C10_2 C 0.5958(4) 0.8434(4) 0.1022(9)
H6_2 H 0.5874 0.8345 0.2078
Co1_10 Co 0.5000 1.0000 0.5000
O2_2 O 0.5568(2) 0.9512(2) 0.3488(5)
Co4_2 Co 0.7500 0.7500 0.7500
O5_2 O 0.4451(2) 0.9713(2) 0.9542(5)
O8_2 O 0.5412(2) 0.9681(2) 0.7139(6)
N5_2 N 0.6153(3) 0.8981(3) 0.6084(7)
H4_2 H 0.6088 0.9156 0.5178
N6_2 N 0.6727(3) 0.8181(3) 0.7439(7)
N7_2 N 0.4319(3) 0.9227(3) 0.5061(7)
N13_2 N 0.4401(3) 0.8901(3) 0.2321(7)
C6_2 C 0.6589(4) 0.8504(4) 0.6165(9)
H5_2 H 0.6808 0.8397 0.5243
C7_2 C 0.6371(3) 0.8369(3) 0.8724(8)
C8_2 C 0.5914(3) 0.8867(3) 0.8744(8)
C9_2 C 0.5797(4) 0.9212(3) 0.7356(8)
Co3_3 Co 0.0000 0.5000 0.0000
Co3_4 Co 0.0000 0.5000 1.0000
Co7_3 Co 0.00536(4) 0.45517(4) 0.64076(10)
O2_3 O 0.7012(2) 0.1932(2) 0.0988(5)
O3_3 O 0.7819(2) 0.2912(2) 0.0361(6)
N1_3 N 0.8519(3) 0.3653(3) 0.1416(7)
H1_3 H 0.8344 0.3588 0.2322
N2_3 N 0.9319(3) 0.4227(3) 0.0061(7)
C1_3 C 0.8996(4) 0.4089(4) 0.1335(9)
H2_3 H 0.9103 0.4308 0.2257
C4_3 C 0.8288(3) 0.3297(4) 0.0144(8)
Co3_5 Co 1.0000 0.5000 0.0000
Co8_3 Co 0.70517(4) 0.24464(4) 0.89076(10)
O5_3 O 0.7213(2) 0.3049(2) 0.7042(5)
O6_3 O 0.7787(2) 0.1951(2) 0.7958(5)
O7_3 O 0.7988(2) 0.3068(2) 0.4012(5)
O8_3 O 0.7181(2) 0.2088(2) 0.4639(6)
N5_3 N 0.6481(3) 0.1347(3) 0.3584(7)
H4_3 H 0.6656 0.1412 0.2678
N7_3 N 0.6727(3) 0.3181(3) 0.2561(7)
N9_3 N 0.6397(3) 0.1848(3) 0.7746(7)
N11_3 N 0.8603(3) 0.3152(3) 0.7254(7)
C6_3 C 0.6004(4) 0.0911(4) 0.3665(9)
H5_3 H 0.5897 0.0692 0.2743
C7_3 C 0.5869(3) 0.1129(3) 0.6224(8)
C8_3 C 0.6367(3) 0.1586(3) 0.6244(8)
C9_3 C 0.6712(3) 0.1703(4) 0.4856(8)
C10_3 C 0.5934(4) 0.1542(4) 0.8522(9)
H6_3 H 0.5845 0.1626 0.9578
N4_3 N 0.9401(3) 0.3901(3) 0.7321(7)
C2_3 C 0.9131(3) 0.3871(3) 0.8776(8)
C3_3 C 0.8633(3) 0.3414(3) 0.8756(8)
C5_3 C 0.9066(4) 0.3458(4) 0.6478(9)
H3_3 H 0.9155 0.3374 0.5422
Co3_6 Co 1.0000 0.5000 1.0000
N13_3 N 0.6401(3) 0.3099(3) 0.9821(7)
Co8_4 Co 0.79483(4) 0.75536(4) 0.39076(10)
O5_4 O 0.7787(2) 0.6951(2) 0.2042(5)
O6_4 O 0.7213(2) 0.8049(2) 0.2958(5)
N9_4 N 0.8603(3) 0.8152(3) 0.2746(7)
N11_4 N 0.6397(3) 0.6848(3) 0.2254(7)
C7_4 C 0.9131(3) 0.8871(3) 0.1224(8)
C8_4 C 0.8633(3) 0.8414(3) 0.1244(8)
C10_4 C 0.9066(4) 0.8458(4) 0.3522(9)
H6_4 H 0.9155 0.8374 0.4578
O2_4 O 0.7988(2) 0.8068(2) 0.5988(5)
O3_4 O 0.7181(2) 0.7088(2) 0.5361(6)
N1_4 N 0.6481(3) 0.6347(3) 0.6416(7)
H1_4 H 0.6656 0.6412 0.7322
N2_4 N 0.5681(3) 0.5773(3) 0.5061(7)
N4_4 N 0.5599(3) 0.6099(3) 0.2321(7)
C1_4 C 0.6004(4) 0.5911(4) 0.6335(9)
H2_4 H 0.5897 0.5692 0.7257
C2_4 C 0.5869(3) 0.6129(3) 0.3776(8)
C3_4 C 0.6367(3) 0.6586(3) 0.3756(8)
C4_4 C 0.6712(3) 0.6703(4) 0.5144(8)
C5_4 C 0.5934(4) 0.6542(4) 0.1478(9)
H3_4 H 0.5845 0.6626 0.0422
Co3_7 Co 0.5000 0.5000 0.5000
Co7_4 Co 0.49464(4) 0.54483(4) 0.14076(10)
O7_4 O 0.7012(2) 0.6932(2) 0.9012(5)
O8_4 O 0.7819(2) 0.7912(2) 0.9639(6)
N5_4 N 0.8519(3) 0.8653(3) 0.8584(7)
H4_4 H 0.8344 0.8588 0.7678
N7_4 N 0.8273(3) 0.6819(3) 0.7561(7)
N13_4 N 0.8599(3) 0.6901(3) 0.4821(7)
C6_4 C 0.8996(4) 0.9089(4) 0.8665(9)
H5_4 H 0.9103 0.9308 0.7743
C9_4 C 0.8288(3) 0.8297(4) 0.9856(8)
Co9_3 Co 0.29483(4) 0.75536(4) 0.10924(10)
O6_5 O 0.4451(2) 0.4713(2) 0.0458(5)
N9_5 N 0.4348(3) 0.6103(3) 0.0246(7)
N12_3 N 0.3599(3) 0.6901(3) 0.0179(7)
C10_5 C 0.4042(4) 0.6566(4) 0.1022(9)
H6_5 H 0.4126 0.6655 0.2078
O2_5 O 0.4432(2) 0.5488(2) 0.3488(5)
O3_5 O 0.5412(2) 0.4681(2) 0.2861(6)
N1_5 N 0.6153(3) 0.3981(3) 0.3916(7)
H1_5 H 0.6088 0.4156 0.4822
C1_5 C 0.6589(4) 0.3504(4) 0.3835(9)
H2_5 H 0.6808 0.3397 0.4757
C2_5 C 0.6371(3) 0.3369(3) 0.1276(8)
C3_5 C 0.5914(3) 0.3867(3) 0.1256(8)
C4_5 C 0.5797(4) 0.4212(3) 0.2644(8)
Co5_3 Co 0.50536(4) 0.45517(4) 0.85924(10)
O5_5 O 0.5549(2) 0.5287(2) 0.9542(5)
O7_5 O 0.5568(2) 0.4512(2) 0.6512(5)
O8_5 O 0.4588(2) 0.5319(2) 0.7139(6)
N5_5 N 0.3847(3) 0.6019(3) 0.6084(7)
H4_5 H 0.3912 0.5844 0.5178
N6_3 N 0.3273(3) 0.6819(3) 0.7439(7)
N8_3 N 0.4319(3) 0.4227(3) 0.4939(7)
N11_5 N 0.5652(3) 0.3897(3) 0.9754(7)
N14_3 N 0.4401(3) 0.3901(3) 0.7679(7)
C6_5 C 0.3411(4) 0.6496(4) 0.6165(9)
H5_5 H 0.3192 0.6603 0.5243
C7_5 C 0.3629(3) 0.6631(3) 0.8724(8)
C8_5 C 0.4086(3) 0.6133(3) 0.8744(8)
C9_5 C 0.4203(4) 0.5788(3) 0.7356(8)
C5_5 C 0.5958(4) 0.3434(4) 0.8978(9)
H3_5 H 0.5874 0.3345 0.7922
Co9_4 Co 0.20517(4) 0.24464(4) 0.60924(10)
O6_6 O 0.0549(2) 0.5287(2) 0.5458(5)
O8_6 O 0.0412(2) 0.4681(2) 0.2139(6)
N5_6 N 0.1153(3) 0.3981(3) 0.1084(7)
H4_6 H 0.1088 0.4156 0.0178
N6_4 N 0.1727(3) 0.3181(3) 0.2439(7)
N9_6 N 0.0652(3) 0.3897(3) 0.5246(7)
N12_4 N 0.1401(3) 0.3099(3) 0.5179(7)
N14_4 N 0.0599(3) 0.6099(3) 0.2679(7)
C6_6 C 0.1589(4) 0.3504(4) 0.1165(9)
H5_6 H 0.1808 0.3397 0.0243
C7_6 C 0.1371(3) 0.3369(3) 0.3724(8)
C8_6 C 0.0914(3) 0.3867(3) 0.3744(8)
C9_6 C 0.0797(4) 0.4212(3) 0.2356(8)
C10_6 C 0.0958(4) 0.3434(4) 0.6022(9)
H6_6 H 0.0874 0.3345 0.7078
O2_6 O 0.0568(2) 0.4512(2) 0.8488(5)
N8_4 N 0.0681(3) 0.5773(3) 0.9939(7)
Co5_4 Co 0.99464(4) 0.54483(4) 0.35924(10)
O5_6 O 0.9451(2) 0.4713(2) 0.4542(5)
O7_6 O 0.9432(2) 0.5488(2) 0.1512(5)
N11_6 N 0.9348(3) 0.6103(3) 0.4754(7)
O3_6 O 0.9588(2) 0.5319(2) 0.7861(6)
N1_6 N 0.8847(3) 0.6019(3) 0.8916(7)
H1_6 H 0.8912 0.5844 0.9822
C1_6 C 0.8411(4) 0.6496(4) 0.8835(9)
H2_6 H 0.8192 0.6603 0.9757
C2_6 C 0.8629(3) 0.6631(3) 0.6276(8)
C3_6 C 0.9086(3) 0.6133(3) 0.6256(8)
C4_6 C 0.9203(4) 0.5788(3) 0.7644(8)
C5_6 C 0.9042(4) 0.6566(4) 0.3978(9)
H3_6 H 0.9126 0.6655 0.2922
O5_7 O 0.2213(2) 0.8049(2) 0.2042(5)
O6_7 O 0.2787(2) 0.6951(2) 0.2958(5)
N9_7 N 0.1397(3) 0.6848(3) 0.2746(7)
N11_7 N 0.3603(3) 0.8152(3) 0.2254(7)
C7_7 C 0.0869(3) 0.6129(3) 0.1224(8)
C8_7 C 0.1367(3) 0.6586(3) 0.1244(8)
C10_7 C 0.0934(4) 0.6542(4) 0.3522(9)
H6_7 H 0.0845 0.6626 0.4578
O2_7 O 0.2012(2) 0.6932(2) 0.5988(5)
O3_7 O 0.2819(2) 0.7912(2) 0.5361(6)
N1_7 N 0.3519(3) 0.8653(3) 0.6416(7)
H1_7 H 0.3344 0.8588 0.7322
C1_7 C 0.3996(4) 0.9089(4) 0.6335(9)
H2_7 H 0.4103 0.9308 0.7257
C2_7 C 0.4131(3) 0.8871(3) 0.3776(8)
C3_7 C 0.3633(3) 0.8414(3) 0.3756(8)
C4_7 C 0.3288(3) 0.8297(4) 0.5144(8)
C5_7 C 0.4066(4) 0.8458(4) 0.1478(9)
H3_7 H 0.4155 0.8374 0.0422
O7_7 O 0.2988(2) 0.8068(2) 0.9012(5)
O8_7 O 0.2181(2) 0.7088(2) 0.9639(6)
N5_7 N 0.1481(3) 0.6347(3) 0.8584(7)
H4_7 H 0.1656 0.6412 0.7678
C6_7 C 0.1004(4) 0.5911(4) 0.8665(9)
H5_7 H 0.0897 0.5692 0.7743
C9_7 C 0.1712(3) 0.6703(4) 0.9856(8)
O2_8 O 0.2988(2) 0.3068(2) 0.0988(5)
O3_8 O 0.2181(2) 0.2088(2) 0.0361(6)
N1_8 N 0.1481(3) 0.1347(3) 0.1416(7)
H1_8 H 0.1656 0.1412 0.2322
C1_8 C 0.1004(4) 0.0911(4) 0.1335(9)
H2_8 H 0.0897 0.0692 0.2257
C4_8 C 0.1712(3) 0.1703(4) 0.0144(8)
O5_8 O 0.2787(2) 0.1951(2) 0.7042(5)
O6_8 O 0.2213(2) 0.3049(2) 0.7958(5)
O7_8 O 0.2012(2) 0.1932(2) 0.4012(5)
O8_8 O 0.2819(2) 0.2912(2) 0.4639(6)
N5_8 N 0.3519(3) 0.3653(3) 0.3584(7)
H4_8 H 0.3344 0.3588 0.2678
N9_8 N 0.3603(3) 0.3152(3) 0.7746(7)
N11_8 N 0.1397(3) 0.1848(3) 0.7254(7)
C6_8 C 0.3996(4) 0.4089(4) 0.3665(9)
H5_8 H 0.4103 0.4308 0.2743
C7_8 C 0.4131(3) 0.3871(3) 0.6224(8)
C8_8 C 0.3633(3) 0.3414(3) 0.6244(8)
C9_8 C 0.3288(3) 0.3297(4) 0.4856(8)
C10_8 C 0.4066(4) 0.3458(4) 0.8522(9)
H6_8 H 0.4155 0.3374 0.9578
C2_8 C 0.0869(3) 0.1129(3) 0.8776(8)
C3_8 C 0.1367(3) 0.1586(3) 0.8756(8)
C5_8 C 0.0934(4) 0.1542(4) 0.6478(9)
H3_8 H 0.0845 0.1626 0.5422
loop_
_geom_bond_atom_site_label_1
_geom_bond_atom_site_label_2
_geom_bond_site_symmetry_1
_geom_bond_site_symmetry_2
N7 Co1 1_555 1_555
O7 Co1_3 1_555 1_555
N11 Co5 1_555 1_555
Co5 O7 1_555 1_555
O3 Co1_4 1_555 1_555
N1 H1 1_555 1_555
N2 C1 1_555 1_555
N11 C3 1_555 1_555
N4 C2 1_555 1_555
C1 N1 1_555 1_555
H2 C1 1_555 1_555
C2 N2 1_555 1_555
C3 C2 1_555 1_555
C4 O3 1_555 1_555
C5 N11 1_555 1_555
H3 C5 1_555 1_555
Co3 N2 1_555 1_555
Co7 N4 1_555 1_555
N1 C4 1_555 1_555
N4 C5 1_555 1_555
C3 C4 1_555 1_555
Co4 N6 1_555 1_555
Co9 N12 1_555 1_555
O8 Co1_5 1_555 1_555
N5 H4 1_555 1_555
N6 C6 1_555 1_555
N9 Co8 1_555 1_555
N12 C7 1_555 1_555
C6 N5 1_555 1_555
H5 C6 1_555 1_555
C7 N6 1_555 1_555
C8 N9 1_555 1_555
C9 O8 1_555 1_555
C10 N9 1_555 1_555
H6 C10 1_555 1_555
N5 C9 1_555 1_555
N12 C10 1_555 1_555
C7 C8 1_555 1_555
C8 C9 1_555 1_555
Co1_6 O2 1_555 1_555
O2 Co8 1_555 1_555
N8 Co1_8 1_555 1_555
O3_2 Co1_9 1_555 1_555
N1_2 H1_2 1_555 1_555
N2_2 C1_2 1_555 1_555
C1_2 N1_2 1_555 1_555
H2_2 C1_2 1_555 1_555
C2_2 N2_2 1_555 1_555
C3_2 C2_2 1_555 1_555
C4_2 O3_2 1_555 1_555
Co3_2 N2_2 1_555 1_555
O7_2 Co1_9 1_555 1_555
N8_2 Co1_9 1_555 1_555
N11_2 Co5_2 1_555 1_555
N14_2 Co5_2 1_555 1_555
N1_2 C4_2 1_555 1_555
C3_2 C4_2 1_555 1_555
Co5_2 O7_2 1_555 1_555
C5_2 N11_2 1_555 1_555
H3_2 C5_2 1_555 1_555
Co7_2 N4_2 1_555 1_555
N4_2 C5_2 1_555 1_555
Co9_2 N12_2 1_555 1_555
N9_2 Co8_2 1_555 1_555
C10_2 N9_2 1_555 1_555
H6_2 C10_2 1_555 1_555
N12_2 C10_2 1_555 1_555
Co1_10 O2_2 1_555 1_555
O2_2 Co8_2 1_555 1_555
Co4_2 N6_2 1_555 1_555
O8_2 Co1_10 1_555 1_555
N5_2 H4_2 1_555 1_555
N6_2 C6_2 1_555 1_555
N7_2 Co1_10 1_555 1_555
N13_2 Co8_2 1_555 1_555
C6_2 N5_2 1_555 1_555
H5_2 C6_2 1_555 1_555
C7_2 N6_2 1_555 1_555
C9_2 O8_2 1_555 1_555
N5_2 C9_2 1_555 1_555
C7_2 C8_2 1_555 1_555
C8_2 C9_2 1_555 1_555
Co4 O2_3 1_555 1_555
O3_3 Co4 1_555 1_555
N1_3 H1_3 1_555 1_555
N2_3 C1_3 1_555 1_555
C1_3 N1_3 1_555 1_555
H2_3 C1_3 1_555 1_555
C4_3 O3_3 1_555 1_555
Co3_5 N2_3 1_555 1_555
Co9 O5_3 1_555 1_555
Co8_3 O5_3 1_555 1_555
O6_3 Co9 1_555 1_555
O7_3 Co4 1_555 1_555
O8_3 Co4 1_555 1_555
N5_3 H4_3 1_555 1_555
N8_2 C6_3 1_555 1_555
N7_3 Co4 1_555 1_555
N9_3 Co8_3 1_555 1_555
N11_3 Co9 1_555 1_555
N14_2 C7_3 1_555 1_555
C6_3 N5_3 1_555 1_555
H5_3 C6_3 1_555 1_555
C7_3 N8_2 1_555 1_555
C8_3 N9_3 1_555 1_555
C9_3 O8_3 1_555 1_555
C10_3 N9_3 1_555 1_555
H6_3 C10_3 1_555 1_555
N1_3 C4_3 1_555 1_555
Co9 O7_3 1_555 1_555
Co9 O8_3 1_555 1_555
Co8_3 O6_3 1_555 1_555
N5_3 C9_3 1_555 1_555
N14_2 C10_3 1_555 1_555
C7_3 C8_3 1_555 1_555
C8_3 C9_3 1_555 1_555
N11_3 C3_3 1_555 1_555
N4_3 C2_3 1_555 1_555
C3_3 C2_3 1_555 1_555
C5_3 N11_3 1_555 1_555
H3_3 C5_3 1_555 1_555
N13_3 Co8_3 1_555 1_555
N4_3 C5_3 1_555 1_555
Co9_2 O5_4 1_555 1_555
Co8_4 O5_4 1_555 1_555
O6_4 Co9_2 1_555 1_555
N9_4 Co8_4 1_555 1_555
N11_4 Co9_2 1_555 1_555
N14 C7_4 1_555 1_555
C8_4 N9_4 1_555 1_555
C10_4 N9_4 1_555 1_555
H6_4 C10_4 1_555 1_555
Co8_4 O6_4 1_555 1_555
N14 C10_4 1_555 1_555
C7_4 C8_4 1_555 1_555
Co4_2 O2_4 1_555 1_555
O2_4 Co8_4 1_555 1_555
O3_4 Co4_2 1_555 1_555
N1_4 H1_4 1_555 1_555
N2_4 C1_4 1_555 1_555
N11_4 C3_4 1_555 1_555
N4_4 C2_4 1_555 1_555
C1_4 N1_4 1_555 1_555
H2_4 C1_4 1_555 1_555
C2_4 N2_4 1_555 1_555
C3_4 C2_4 1_555 1_555
C4_4 O3_4 1_555 1_555
C5_4 N11_4 1_555 1_555
H3_4 C5_4 1_555 1_555
Co3_7 N2_4 1_555 1_555
Co7_4 N4_4 1_555 1_555
O7_4 Co4_2 1_555 1_555
O8_4 Co4_2 1_555 1_555
N5_4 H4_4 1_555 1_555
N8 C6_4 1_555 1_555
N7_4 Co4_2 1_555 1_555
N13_4 Co8_4 1_555 1_555
C6_4 N5_4 1_555 1_555
H5_4 C6_4 1_555 1_555
C9_4 O8_4 1_555 1_555
Co8_4 O3_4 1_555 1_555
N1_4 C4_4 1_555 1_555
N4_4 C5_4 1_555 1_555
C3_4 C4_4 1_555 1_555
N5_4 C9_4 1_555 1_555
Co9_3 N12_3 1_555 1_555
N9_5 Co7_4 1_555 1_555
C10_5 N9_5 1_555 1_555
H6_5 C10_5 1_555 1_555
Co7_4 O6_5 1_555 1_555
N12_3 C10_5 1_555 1_555
Co3_7 O2_5 1_555 1_555
O2_5 Co7_4 1_555 1_555
O3_5 Co3_7 1_555 1_555
N1_5 H1_5 1_555 1_555
N7_3 C1_5 1_555 1_555
C1_5 N1_5 1_555 1_555
H2_5 C1_5 1_555 1_555
C2_5 N7_3 1_555 1_555
C3_5 C2_5 1_555 1_555
C4_5 O3_5 1_555 1_555
Co3 N6_3 1_555 1_555
Co5_3 O5_5 1_555 1_555
O7_5 Co3_7 1_555 1_555
O8_5 Co3_7 1_555 1_555
N5_5 H4_5 1_555 1_555
N6_3 C6_5 1_555 1_555
N8_3 Co3_7 1_555 1_555
N11_5 Co5_3 1_555 1_555
N14_3 Co5_3 1_555 1_555
C6_5 N5_5 1_555 1_555
H5_5 C6_5 1_555 1_555
C7_5 N6_3 1_555 1_555
C9_5 O8_5 1_555 1_555
Co7_4 O3_5 1_555 1_555
N1_5 C4_5 1_555 1_555
C3_5 C4_5 1_555 1_555
Co5_3 O7_5 1_555 1_555
Co5_3 O8_5 1_555 1_555
N5_5 C9_5 1_555 1_555
C7_5 C8_5 1_555 1_555
C8_5 C9_5 1_555 1_555
C5_5 N11_5 1_555 1_555
H3_5 C5_5 1_555 1_555
N13_3 C5_5 1_555 1_555
Co3_2 N6_4 1_555 1_555
Co9_4 N12_4 1_555 1_555
O8_6 Co3_3 1_555 1_555
N5_6 H4_6 1_555 1_555
N6_4 C6_6 1_555 1_555
N9_6 Co7_3 1_555 1_555
N12_4 C7_6 1_555 1_555
C6_6 N5_6 1_555 1_555
H5_6 C6_6 1_555 1_555
C7_6 N6_4 1_555 1_555
C8_6 N9_6 1_555 1_555
C9_6 O8_6 1_555 1_555
C10_6 N9_6 1_555 1_555
H6_6 C10_6 1_555 1_555
Co7_3 O6_6 1_555 1_555
N5_6 C9_6 1_555 1_555
N12_4 C10_6 1_555 1_555
C7_6 C8_6 1_555 1_555
C8_6 C9_6 1_555 1_555
Co3_4 O2_6 1_555 1_555
O2_6 Co7_3 1_555 1_555
N8_4 Co3_4 1_555 1_555
Co5_4 O5_6 1_555 1_555
O7_6 Co3_5 1_555 1_555
N11_6 Co5_4 1_555 1_555
Co5_4 O7_6 1_555 1_555
O3_6 Co3_6 1_555 1_555
N1_6 H1_6 1_555 1_555
N7_4 C1_6 1_555 1_555
N11_6 C3_6 1_555 1_555
N13_4 C2_6 1_555 1_555
C1_6 N1_6 1_555 1_555
H2_6 C1_6 1_555 1_555
C2_6 N7_4 1_555 1_555
C3_6 C2_6 1_555 1_555
C4_6 O3_6 1_555 1_555
C5_6 N11_6 1_555 1_555
H3_6 C5_6 1_555 1_555
N1_6 C4_6 1_555 1_555
N13_4 C5_6 1_555 1_555
C3_6 C4_6 1_555 1_555
Co9_3 O5_7 1_555 1_555
Co7 O5_7 1_555 1_555
O6_7 Co9_3 1_555 1_555
N9_7 Co7 1_555 1_555
N11_7 Co9_3 1_555 1_555
N14_4 C7_7 1_555 1_555
C8_7 N9_7 1_555 1_555
C10_7 N9_7 1_555 1_555
H6_7 C10_7 1_555 1_555
Co7 O6_7 1_555 1_555
N14_4 C10_7 1_555 1_555
C7_7 C8_7 1_555 1_555
Co3 O2_7 1_555 1_555
O2_7 Co7 1_555 1_555
O3_7 Co3 1_555 1_555
N1_7 H1_7 1_555 1_555
N7_2 C1_7 1_555 1_555
N11_7 C3_7 1_555 1_555
N13_2 C2_7 1_555 1_555
C1_7 N1_7 1_555 1_555
H2_7 C1_7 1_555 1_555
C2_7 N7_2 1_555 1_555
C3_7 C2_7 1_555 1_555
C4_7 O3_7 1_555 1_555
C5_7 N11_7 1_555 1_555
H3_7 C5_7 1_555 1_555
O7_7 Co3 1_555 1_555
O8_7 Co3 1_555 1_555
N5_7 H4_7 1_555 1_555
N8_4 C6_7 1_555 1_555
C6_7 N5_7 1_555 1_555
H5_7 C6_7 1_555 1_555
C9_7 O8_7 1_555 1_555
Co7 O3_7 1_555 1_555
N1_7 C4_7 1_555 1_555
N13_2 C5_7 1_555 1_555
C3_7 C4_7 1_555 1_555
N5_7 C9_7 1_555 1_555
Co3_2 O2_8 1_555 1_555
O3_8 Co3_2 1_555 1_555
N1_8 H1_8 1_555 1_555
N7 C1_8 1_555 1_555
C1_8 N1_8 1_555 1_555
H2_8 C1_8 1_555 1_555
C4_8 O3_8 1_555 1_555
Co9_4 O5_8 1_555 1_555
Co7_2 O5_8 1_555 1_555
O6_8 Co9_4 1_555 1_555
O7_8 Co3_2 1_555 1_555
O8_8 Co3_2 1_555 1_555
N5_8 H4_8 1_555 1_555
N8_3 C6_8 1_555 1_555
N9_8 Co7_2 1_555 1_555
N11_8 Co9_4 1_555 1_555
N14_3 C7_8 1_555 1_555
C6_8 N5_8 1_555 1_555
H5_8 C6_8 1_555 1_555
C7_8 N8_3 1_555 1_555
C8_8 N9_8 1_555 1_555
C9_8 O8_8 1_555 1_555
C10_8 N9_8 1_555 1_555
H6_8 C10_8 1_555 1_555
N1_8 C4_8 1_555 1_555
Co9_4 O7_8 1_555 1_555
Co9_4 O8_8 1_555 1_555
Co7_2 O6_8 1_555 1_555
N5_8 C9_8 1_555 1_555
N14_3 C10_8 1_555 1_555
C7_8 C8_8 1_555 1_555
C8_8 C9_8 1_555 1_555
N11_8 C3_8 1_555 1_555
N13 C2_8 1_555 1_555
C3_8 C2_8 1_555 1_555
C5_8 N11_8 1_555 1_555
H3_8 C5_8 1_555 1_555
N13 C5_8 1_555 1_555

#END
