
###############################################################################
#
# This file contains modified crystal structure data generated from the
# MOF subset of the Cambridge Structural Database (CSD) v543 
# hosted by the Cambridge Crystallographic Data Centre (CCDC).
#
# This work is licensed under the Creative Commons
# Attribution-NonCommercial-ShareAlike 4.0 International License.
# To view a copy of this license, visit
# http://creativecommons.org/licenses/by-nc-sa/4.0/
# or send a letter to
# Creative Commons, PO Box 1866, Mountain View, CA 94042, USA.
#
# CIF created using the CSD Python API on 29 September 2022
# The structure has been converted into the P1 space group
# The structure has a 3D framework
# The original CSD entry IWEPEF is in the triclinic crystal system
# The framework has been calculated to contain at least 10.0% void space
# The void calculation uses a probe of radius 1.32A, grid spacing 0.4
# H atom positions have been added when not included in the experimental data
#
###############################################################################

data_IWEPEF
_chemical_formula_moiety         '(C48 H32 N4 O8 Zn2)n'
_symmetry_cell_setting           triclinic
_symmetry_space_group_name_H-M   'P 1'
_symmetry_Int_Tables_number      1
_space_group_name_Hall           'P 1'
loop_
_symmetry_equiv_pos_site_id
_symmetry_equiv_pos_as_xyz
1 x,y,z
_cell_length_a                   11.0197(2)
_cell_length_b                   14.2975(3)
_cell_length_c                   7.6586(1)
_cell_angle_alpha                95.9760(9)
_cell_angle_beta                 108.026(1)
_cell_angle_gamma                91.373(1)
_cell_volume                     1139.17
loop_
_atom_site_label
_atom_site_type_symbol
_atom_site_fract_x
_atom_site_fract_y
_atom_site_fract_z
O9 O 0.0477(12) 0.1696(8) 0.5026(18)
C45 C 0.0349(17) 0.3769(14) 0.0744(24)
C46 C 0.0101(20) 0.3137(8) 0.1897(29)
H4 H 0.0383307 0.241258 0.183889
C12 C 0.6878(18) 0.0003(10) 0.5913(21)
C32 C 0.4413(13) 0.0258(14) 0.5128(33)
C33 C 0.4650(11) 0.1092(14) 0.6364(24)
C34 C 0.3638(18) 0.1650(10) 0.6563(22)
C35 C 0.2355(15) 0.1405(12) 0.5393(26)
C36 C 0.2126(10) 0.0491(13) 0.4409(25)
C38 C 0.1496(13) 0.2118(11) 0.6034(28)
O8 O 0.1684(11) 0.2863(8) 0.7117(17)
H15 H 0.563022 0.131516 0.718656
H18 H 0.115636 0.016993 0.389671
H22 H 0.709358 0.0601561 0.698481
H24 H 0.383888 0.226215 0.760305
C39 C 0.5542(15) 0.0379(11) 0.0559(26)
C40 C 0.5272(11) 0.1165(14) 0.1621(28)
C41 C 0.6244(19) 0.1778(10) 0.2791(24)
N3 N 0.7465(15) 0.1620(10) 0.2854(21)
C42 C 0.7809(10) 0.0835(14) 0.1999(27)
C43 C 0.6846(19) 0.0259(10) 0.0668(23)
Zn4 Zn 0.89633(34) 0.25027(22) 0.4615(4)
H1 H 0.291274 0.0274319 0.0273518
H6 H 0.880566 0.066031 0.234141
H20 H 0.428321 0.129171 0.151903
H25 H 0.603383 0.237234 0.363984
C3 C 0.4287(18) 0.6244(13) 0.9897(22)
C25 C 0.5371(20) 0.4650(12) 0.9528(29)
C27 C 0.6443(19) 0.3196(9) 0.9283(27)
C28 C 0.6861(17) 0.3520(12) 0.7897(27)
C29 C 0.6525(19) 0.4386(14) 0.7292(20)
C30 C 0.5905(18) 0.4986(8) 0.8231(28)
C31 C 0.7771(18) 0.2907(11) 0.7107(24)
O5 O 0.8117(13) 0.3335(9) 0.5920(18)
O6 O 0.8053(12) 0.2160(8) 0.7922(17)
N6 N 0.9501(17) 0.3479(11) 0.3061(21)
H3 H 0.582771 0.572007 0.79706
H5 H 0.668967 0.250528 0.971886
H17 H 0.67457 0.459354 0.609044
H21 H 0.460031 0.649333 0.880146
C44 C 0.9851(20) 0.4660(12) 0.0636(24)
C47 C 0.9066(18) 0.4369(13) 0.3137(22)
C48 C 0.9207(18) 0.4976(8) 0.1902(27)
H28 H 0.904731 0.644302 0.00989366
H31 H 0.860918 0.45996 0.416842
H32 H 0.883298 0.567405 0.190844
Zn1 Zn 0.10367(34) 0.74973(22) 0.5385(4)
O1 O 0.1883(13) 0.6665(9) 0.4080(18)
O2 O 0.1947(12) 0.7840(8) 0.2078(17)
N1 N 0.2535(15) 0.8380(10) 0.7146(21)
N2 N 0.0499(17) 0.6521(11) 0.6939(21)
C1 C 0.3139(17) 0.6480(12) 0.2103(27)
C2 C 0.3557(19) 0.6804(9) 0.0717(27)
C4 C 0.4629(20) 0.5350(12) 0.0472(29)
C5 C 0.4095(18) 0.5014(8) 0.1769(28)
C6 C 0.3475(19) 0.5614(14) 0.2708(20)
C7 C 0.2229(18) 0.7093(11) 0.2893(24)
C15 C 0.3756(19) 0.8222(10) 0.7209(24)
C16 C 0.4728(11) 0.8835(14) 0.8379(28)
C17 C 0.4458(15) 0.9621(11) 0.9441(26)
C18 C 0.3154(19) 0.9741(10) 0.9332(23)
C19 C 0.2191(10) 0.9165(14) 0.8001(27)
C22 C 0.0149(20) 0.5340(12) 0.9364(24)
C23 C 0.0793(18) 0.5024(8) 0.8098(27)
C24 C 0.0934(18) 0.5631(13) 0.6863(22)
C26 C 0.5713(18) 0.3756(13) 0.0103(22)
H2 H 0.116702 0.432595 0.809156
H7 H 0.32543 0.540646 0.390956
H9 H 0.417229 0.427993 0.20294
H10 H 0.331033 0.749472 0.0281145
H11 H 0.539969 0.350667 0.119854
H12 H 0.396617 0.762766 0.636016
H13 H 0.119434 0.933969 0.765859
H16 H 0.571679 0.870829 0.848097
H26 H 0.708726 0.972568 0.972648
H29 H 0.139082 0.54004 0.583158
H30 H 0.0952692 0.355698 0.990106
O3 O 0.9523(12) 0.8304(8) 0.4974(18)
O4 O 0.8316(11) 0.7137(8) 0.2883(17)
C8 C 0.7645(15) 0.8595(12) 0.4607(26)
C9 C 0.6362(18) 0.8350(10) 0.3437(22)
C10 C 0.5350(11) 0.8908(14) 0.3636(24)
C11 C 0.5587(13) 0.9742(14) 0.4872(33)
C13 C 0.7874(10) 0.9509(13) 0.5591(25)
C14 C 0.8504(13) 0.7882(11) 0.3966(28)
C20 C 0.9899(20) 0.6863(8) 0.8103(29)
C21 C 0.9651(17) 0.6231(14) 0.9256(24)
C37 C 0.3122(18) 0.9997(10) 0.4087(21)
H8 H 0.616112 0.773785 0.239695
H14 H 0.961669 0.758742 0.816111
H19 H 0.290642 0.939844 0.301519
H23 H 0.884364 0.983007 0.610329
H27 H 0.436978 0.868484 0.281344
loop_
_geom_bond_atom_site_label_1
_geom_bond_atom_site_label_2
_geom_bond_site_symmetry_1
_geom_bond_site_symmetry_2
C46 C45 1_555 1_555
C46 H4 1_555 1_555
C33 C32 1_555 1_555
C34 C33 1_555 1_555
C35 C34 1_555 1_555
C36 C35 1_555 1_555
C38 C35 1_555 1_555
O9 C38 1_555 1_555
O8 C38 1_555 1_555
C33 H15 1_555 1_555
C36 H18 1_555 1_555
C12 H22 1_555 1_555
C34 H24 1_555 1_555
C40 C39 1_555 1_555
C41 C40 1_555 1_555
N3 C41 1_555 1_555
C42 N3 1_555 1_555
C43 C39 1_555 1_555
Zn4 N3 1_555 1_555
C42 C43 1_555 1_555
C42 H6 1_555 1_555
C40 H20 1_555 1_555
C41 H25 1_555 1_555
C28 C27 1_555 1_555
C29 C28 1_555 1_555
C30 C25 1_555 1_555
C31 C28 1_555 1_555
O5 C31 1_555 1_555
O6 C31 1_555 1_555
Zn4 O5 1_555 1_555
N6 Zn4 1_555 1_555
C29 C30 1_555 1_555
C30 H3 1_555 1_555
C27 H5 1_555 1_555
C29 H17 1_555 1_555
C3 H21 1_555 1_555
C47 N6 1_555 1_555
C48 C44 1_555 1_555
C47 C48 1_555 1_555
C47 H31 1_555 1_555
C48 H32 1_555 1_555
Zn1 O1 1_555 1_555
O1 C7 1_555 1_555
O2 C7 1_555 1_555
N1 Zn1 1_555 1_555
N2 Zn1 1_555 1_555
C1 C2 1_555 1_555
C4 C5 1_555 1_555
C5 C6 1_555 1_555
C6 C1 1_555 1_555
C7 C1 1_555 1_555
C15 N1 1_555 1_555
C16 C15 1_555 1_555
C17 C16 1_555 1_555
C18 C17 1_555 1_555
C19 N1 1_555 1_555
C23 C22 1_555 1_555
C24 N2 1_555 1_555
C18 C19 1_555 1_555
C23 C24 1_555 1_555
C23 H2 1_555 1_555
C6 H7 1_555 1_555
C5 H9 1_555 1_555
C2 H10 1_555 1_555
C26 H11 1_555 1_555
C15 H12 1_555 1_555
C19 H13 1_555 1_555
C16 H16 1_555 1_555
C24 H29 1_555 1_555
O4 C14 1_555 1_555
C8 C9 1_555 1_555
C9 C10 1_555 1_555
C10 C11 1_555 1_555
C13 C8 1_555 1_555
C14 O3 1_555 1_555
C21 C20 1_555 1_555
C8 C14 1_555 1_555
C9 H8 1_555 1_555
C20 H14 1_555 1_555
C37 H19 1_555 1_555
C13 H23 1_555 1_555
C10 H27 1_555 1_555

#END
