
###############################################################################
#
# This file contains modified crystal structure data generated from the
# MOF subset of the Cambridge Structural Database (CSD) v543 
# hosted by the Cambridge Crystallographic Data Centre (CCDC).
#
# This work is licensed under the Creative Commons
# Attribution-NonCommercial-ShareAlike 4.0 International License.
# To view a copy of this license, visit
# http://creativecommons.org/licenses/by-nc-sa/4.0/
# or send a letter to
# Creative Commons, PO Box 1866, Mountain View, CA 94042, USA.
#
# CIF created using the CSD Python API on 29 September 2022
# The structure has been converted into the P1 space group
# The structure has a 3D framework
# The original CSD entry IWESAH is in the monoclinic crystal system
# The framework has been calculated to contain at least 10.0% void space
# The void calculation uses a probe of radius 1.32A, grid spacing 0.4
#
###############################################################################

data_IWESAH
_chemical_formula_moiety         '(C200 H136 Cd8 N16 O42)n'
_symmetry_cell_setting           triclinic
_symmetry_space_group_name_H-M   'P 1'
_symmetry_Int_Tables_number      1
_space_group_name_Hall           'P 1'
loop_
_symmetry_equiv_pos_site_id
_symmetry_equiv_pos_as_xyz
1 x,y,z
_cell_length_a                   14.2507(4)
_cell_length_b                   19.6734(7)
_cell_length_c                   16.6986(5)
_cell_angle_alpha                90
_cell_angle_beta                 98.1584(18)
_cell_angle_gamma                90
_cell_volume                     4634.23
loop_
_atom_site_label
_atom_site_type_symbol
_atom_site_fract_x
_atom_site_fract_y
_atom_site_fract_z
N4 N 0.06861(17) 0.87279(13) 0.60922(14)
C24 C 0.0131(2) 0.83304(18) 0.72893(18)
H20 H 0.025357 0.809978 0.777911
C25 C 0.0823(2) 0.83957(17) 0.67974(17)
H21 H 0.141284 0.820002 0.696321
Cd7 Cd 0.17863(2) 0.87183(2) 0.51884(2)
O3 O 0.8083(2) 0.01558(13) 0.47084(18)
H15 H 0.750642 0.025558 0.324232
Cd5 Cd 0.82137(2) 0.12817(2) 0.48116(2)
O1 O 0.24428(16) 0.72882(12) 0.01630(12)
O2 O 0.63031(15) 0.87929(15) 0.14122(12)
O6 O 0.06374(15) 0.89122(10) 0.41053(11)
O7 O 0.10430(12) 0.78345(9) 0.42535(10)
N2 N 0.20736(16) 0.76357(13) 0.13602(13)
H1 H 0.226036 0.780645 0.182992
N3 N 0.78147(17) 0.91267(13) 0.51822(14)
H2 H 0.761436 0.872059 0.507057
C2 C 0.05410(19) 0.78309(15) 0.04906(15)
C3 C 0.0817(2) 0.84757(16) 0.02948(18)
H4 H 0.137299 0.866320 0.056467
C6 C 0.1103(2) 0.74094(16) 0.11542(17)
H7 H 0.079125 0.742967 0.163390
H8 H 0.110183 0.693892 0.098043
C7 C 0.2687(2) 0.75795(15) 0.08176(15)
C8 C 0.36409(19) 0.78894(15) 0.10126(15)
C9 C 0.3877(2) 0.83207(18) 0.16690(17)
H9 H 0.343179 0.840667 0.201280
C10 C 0.4758(2) 0.8625(2) 0.18235(18)
H10 H 0.490456 0.891506 0.226315
C11 C 0.5421(2) 0.84895(18) 0.13105(16)
C12 C 0.5206(2) 0.80637(17) 0.06462(16)
H11 H 0.565409 0.797829 0.030487
C13 C 0.4322(2) 0.77698(16) 0.04981(15)
H12 H 0.417363 0.748780 0.005109
C14 C 0.66789(19) 0.89647(18) 0.21953(16)
C15 C 0.6824(3) 0.84767(18) 0.27900(18)
H13 H 0.666742 0.802545 0.267048
C16 C 0.7204(2) 0.86630(15) 0.35673(17)
H14 H 0.729691 0.833524 0.397209
C17 C 0.74464(19) 0.93302(14) 0.37486(16)
C18 C 0.7326(3) 0.98071(18) 0.3132(2)
C19 C 0.6941(3) 0.9624(2) 0.2354(2)
H16 H 0.686192 0.994663 0.194292
C20 C 0.7803(2) 0.95680(15) 0.45792(18)
C21 C 0.8150(2) 0.9296(2) 0.60244(17)
H17 H 0.768711 0.914595 0.635945
H18 H 0.821095 0.978576 0.607858
C22 C 0.9093(2) 0.89691(16) 0.63190(16)
C23 C 0.9252(2) 0.86129(18) 0.70427(17)
H19 H 0.876848 0.856500 0.735903
C26 C 0.98368(19) 0.90160(15) 0.58660(16)
H22 H 0.974094 0.925846 0.538325
H28 H 0.016743 0.944833 0.297355
C38 C 0.05618(16) 0.83058(13) 0.38661(13)
Cd4 Cd 0.25071(2) 0.73173(2) 0.41313(2)
Cd1 Cd 0.75071(2) 0.76827(2) 0.91313(2)
O8 O 0.75208(15) 0.68882(9) 0.81352(11)
O9 O 0.79403(13) 0.63625(10) 0.93020(11)
O10 O 0.78470(19) 0.33614(10) 0.69951(13)
O11 O 0.78016(18) 0.39267(12) 0.58607(13)
N1 N 0.91331(15) 0.79397(12) 0.95016(13)
C5 C 0.9428(2) 0.85581(15) 0.93200(17)
H6 H 0.905391 0.880822 0.892344
C39 C 0.77762(17) 0.63604(13) 0.85346(15)
C40 C 0.78690(17) 0.57206(12) 0.80625(14)
C41 C 0.71812(18) 0.55981(13) 0.74150(15)
H29 H 0.668626 0.590596 0.729287
C42 C 0.7214(2) 0.50152(14) 0.69349(16)
H30 H 0.674056 0.494045 0.650032
C43 C 0.79364(18) 0.45564(12) 0.71005(15)
C44 C 0.86855(17) 0.46769(12) 0.77439(14)
C45 C 0.94749(19) 0.42334(14) 0.79071(17)
H31 H 0.950017 0.384428 0.759456
C48 C 0.94211(18) 0.53897(14) 0.88617(15)
H34 H 0.941107 0.577218 0.918772
C49 C 0.86528(17) 0.52685(12) 0.82364(14)
C50 C 0.78779(19) 0.39043(14) 0.66153(16)
Cd3 Cd 0.74929(2) 0.26827(2) 0.58687(2)
O13 O 0.56374(15) 0.60878(10) 0.91053(11)
O14 O 0.60430(12) 0.71655(9) 0.92535(10)
O15 O 0.71530(19) 0.83614(10) 0.80049(13)
O16 O 0.71984(18) 0.89267(12) 0.91393(13)
O1_2 O 0.25572(16) 0.22882(12) 0.48370(12)
O4 O 0.74350(13) 0.26359(10) 0.44845(10)
O5 O 0.71441(13) 0.16607(10) 0.38354(11)
O6_2 O 0.43626(15) 0.39122(10) 0.08947(11)
O7_2 O 0.39570(12) 0.28345(9) 0.07465(10)
O8_2 O 0.74792(15) 0.18882(9) 0.68648(11)
O9_2 O 0.70597(13) 0.13625(10) 0.56980(11)
N1_2 N 0.58669(15) 0.29397(12) 0.54984(13)
N2_2 N 0.29264(16) 0.26357(13) 0.36398(13)
H1_2 H 0.273964 0.280645 0.317008
C1 C 0.53029(19) 0.25829(14) 0.49283(15)
H3 H 0.549017 0.214596 0.480924
C2_2 C 0.44590(19) 0.28309(15) 0.45094(15)
C3_2 C 0.4183(2) 0.34757(16) 0.47052(18)
H4_2 H 0.362701 0.366320 0.443533
C4 C 0.4737(2) 0.38436(16) 0.53066(19)
H5 H 0.454993 0.427306 0.545473
C5_2 C 0.5572(2) 0.35581(15) 0.56800(17)
H6_2 H 0.594609 0.380822 0.607656
C6_2 C 0.3897(2) 0.24094(16) 0.38458(17)
H7_2 H 0.420875 0.242967 0.336610
H8_2 H 0.389817 0.193892 0.401957
C7_2 C 0.2313(2) 0.25795(15) 0.41824(15)
C8_2 C 0.13591(19) 0.28894(15) 0.39874(15)
C9_2 C 0.1123(2) 0.33207(18) 0.33310(17)
H9_2 H 0.156821 0.340667 0.298720
C10_2 C 0.0242(2) 0.3625(2) 0.31765(18)
H10_2 H 0.009544 0.391506 0.273685
C13_2 C 0.0678(2) 0.27698(16) 0.45019(15)
H12_2 H 0.082637 0.248780 0.494891
C27 C 0.70346(16) 0.22970(13) 0.38985(13)
C28 C 0.63900(16) 0.26330(13) 0.32082(13)
C29 C 0.60456(18) 0.22100(13) 0.25753(14)
H23 H 0.624031 0.175846 0.258625
C30 C 0.54084(18) 0.24451(13) 0.19156(14)
H24 H 0.517477 0.214502 0.150486
C31 C 0.51252(16) 0.31138(13) 0.18688(13)
C32 C 0.54856(16) 0.35814(12) 0.24990(13)
C33 C 0.61168(16) 0.33368(13) 0.31841(13)
C34 C 0.64475(18) 0.38085(13) 0.38086(14)
H25 H 0.685896 0.365944 0.425658
C35 C 0.6175(2) 0.44713(15) 0.37644(16)
H26 H 0.639620 0.476728 0.418316
C36 C 0.5564(2) 0.47118(15) 0.30935(17)
H27 H 0.538363 0.516645 0.306898
C37 C 0.52310(18) 0.42807(14) 0.24720(15)
H28_2 H 0.483257 0.444833 0.202645
C38_2 C 0.44382(16) 0.33058(13) 0.11339(13)
C39_2 C 0.72238(17) 0.13604(13) 0.64654(15)
C40_2 C 0.71310(17) 0.07206(12) 0.69375(14)
C41_2 C 0.78188(18) 0.05981(13) 0.75850(15)
H29_2 H 0.831374 0.090596 0.770713
C42_2 C 0.7786(2) 0.00152(14) 0.80651(16)
H33 H 0.432826 0.004702 0.560129
C48_2 C 0.55789(18) 0.03897(14) 0.61383(15)
H34_2 H 0.558893 0.077218 0.581228
C49_2 C 0.63472(17) 0.02685(12) 0.67636(14)
Cd4_2 Cd 0.24929(2) 0.23173(2) 0.08687(2)
O13_2 O 0.93626(15) 0.10878(10) 0.58947(11)
O14_2 O 0.89570(12) 0.21655(9) 0.57465(10)
N5 N 0.93139(17) 0.12721(13) 0.39078(14)
H30_2 H 0.825944 0.994045 0.849968
C43_2 C 0.70636(18) 0.95564(12) 0.78995(15)
C44_2 C 0.63145(17) 0.96769(12) 0.72561(14)
C45_2 C 0.55251(19) 0.92334(14) 0.70929(17)
H31_2 H 0.549983 0.884428 0.740544
C46 C 0.4804(2) 0.93673(16) 0.64868(18)
H32 H 0.429349 0.906965 0.638850
C47 C 0.4828(2) 0.99550(16) 0.60085(17)
C50_2 C 0.71221(19) 0.89043(14) 0.83847(16)
O8_3 O 0.24792(15) 0.31118(9) 0.18648(11)
O9_3 O 0.20597(13) 0.36375(10) 0.06980(11)
O10_2 O 0.21530(19) 0.66386(10) 0.30049(13)
O11_2 O 0.21984(18) 0.60733(12) 0.41393(13)
N1_3 N 0.08669(15) 0.20603(12) 0.04984(13)
C5_3 C 0.0572(2) 0.14419(15) 0.06800(17)
H6_3 H 0.094609 0.119178 0.107656
C39_3 C 0.22238(17) 0.36396(13) 0.14654(15)
C40_3 C 0.21310(17) 0.42794(12) 0.19375(14)
C41_3 C 0.28188(18) 0.44019(13) 0.25850(15)
H29_3 H 0.331374 0.409404 0.270713
C42_3 C 0.2786(2) 0.49848(14) 0.30651(16)
H30_3 H 0.325944 0.505955 0.349968
C43_3 C 0.20636(18) 0.54436(12) 0.28995(15)
C44_3 C 0.13145(17) 0.53231(12) 0.22561(14)
C45_3 C 0.05251(19) 0.57666(14) 0.20929(17)
H31_3 H 0.049983 0.615572 0.240544
C48_3 C 0.05789(18) 0.46103(14) 0.11383(15)
H34_3 H 0.058893 0.422782 0.081228
C49_3 C 0.13472(17) 0.47315(12) 0.17636(14)
C50_3 C 0.21221(19) 0.60957(14) 0.33847(16)
O15_2 O 0.28470(19) 0.16386(10) 0.19951(13)
O16_2 O 0.28016(18) 0.10733(12) 0.08607(13)
O1_3 O 0.75572(16) 0.27118(12) 0.98370(12)
O2_2 O 0.36969(15) 0.12071(15) 0.85878(12)
N2_3 N 0.79264(16) 0.23643(13) 0.86398(13)
H1_3 H 0.773964 0.219355 0.817008
N3_2 N 0.21853(17) 0.08733(13) 0.48178(14)
H2_2 H 0.238564 0.127941 0.492943
C2_3 C 0.94590(19) 0.21691(15) 0.95094(15)
C3_3 C 0.9183(2) 0.15243(16) 0.97052(18)
H4_3 H 0.862701 0.133680 0.943533
C6_3 C 0.8897(2) 0.25906(16) 0.88458(17)
H7_3 H 0.920875 0.257033 0.836610
H8_3 H 0.889817 0.306108 0.901957
C7_3 C 0.7313(2) 0.24205(15) 0.91824(15)
C8_3 C 0.63591(19) 0.21106(15) 0.89874(15)
C9_3 C 0.6123(2) 0.16793(18) 0.83310(17)
H9_3 H 0.656821 0.159333 0.798720
C10_3 C 0.5242(2) 0.1375(2) 0.81765(18)
H10_3 H 0.509544 0.108494 0.773685
C11_2 C 0.4579(2) 0.15105(18) 0.86895(16)
C12_2 C 0.4794(2) 0.19363(17) 0.93538(16)
H11_2 H 0.434591 0.202171 0.969513
C13_3 C 0.5678(2) 0.22302(16) 0.95019(15)
H12_3 H 0.582637 0.251220 0.994891
C14_2 C 0.33211(19) 0.10353(18) 0.78047(16)
C15_2 C 0.3176(3) 0.15233(18) 0.72100(18)
H13_2 H 0.333258 0.197455 0.732952
C16_2 C 0.2796(2) 0.13370(15) 0.64327(17)
H14_2 H 0.270309 0.166476 0.602791
C17_2 C 0.25536(19) 0.06698(14) 0.62514(16)
C18_2 C 0.2674(3) 0.01929(18) 0.6868(2)
C19_2 C 0.3059(3) 0.0376(2) 0.7646(2)
H16_2 H 0.313808 0.005337 0.805708
C20_2 C 0.2197(2) 0.04320(15) 0.54208(18)
C21_2 C 0.1850(2) 0.0704(2) 0.39756(17)
H17_2 H 0.231289 0.085405 0.364055
H18_2 H 0.178905 0.021424 0.392142
C22_2 C 0.0907(2) 0.10309(16) 0.36810(16)
C23_2 C 0.0748(2) 0.13871(18) 0.29573(17)
H19_2 H 0.123152 0.143500 0.264097
C26_2 C 0.01632(19) 0.09840(15) 0.41340(16)
H22_2 H 0.025906 0.074154 0.461675
H28_3 H 0.983257 0.055167 0.702645
C38_3 C 0.94382(16) 0.16942(13) 0.61339(13)
O3_2 O 0.1917(2) 0.98442(13) 0.52916(18)
H15_2 H 0.249358 0.974442 0.675768
C24_2 C 0.9869(2) 0.16696(18) 0.27107(18)
H20_2 H 0.974643 0.190022 0.222089
C25_2 C 0.9177(2) 0.16043(17) 0.32026(17)
H21_2 H 0.858716 0.179998 0.303679
H30_4 H 0.174056 0.005955 0.150032
C43_4 C 0.29364(18) 0.04436(12) 0.21005(15)
C44_4 C 0.36855(17) 0.03231(12) 0.27439(14)
C45_4 C 0.44749(19) 0.07666(14) 0.29071(17)
H31_4 H 0.450017 0.115572 0.259456
C46_2 C 0.5196(2) 0.06327(16) 0.35132(18)
H32_2 H 0.570651 0.093035 0.361150
C47_2 C 0.5172(2) 0.00450(16) 0.39915(17)
C50_4 C 0.28779(19) 0.10957(14) 0.16153(16)
O1_4 O 0.74428(16) 0.77118(12) 0.51630(12)
O4_2 O 0.25650(13) 0.73641(10) 0.55155(10)
O5_2 O 0.28559(13) 0.83393(10) 0.61646(11)
O8_4 O 0.25208(15) 0.81118(9) 0.31352(11)
O9_4 O 0.29403(13) 0.86375(10) 0.43020(11)
N1_4 N 0.41331(15) 0.70603(12) 0.45016(13)
N2_4 N 0.70736(16) 0.73643(13) 0.63602(13)
H1_4 H 0.726036 0.719355 0.682992
C1_2 C 0.46971(19) 0.74171(14) 0.50717(15)
H3_2 H 0.450983 0.785404 0.519076
C2_4 C 0.55410(19) 0.71691(15) 0.54906(15)
C3_4 C 0.5817(2) 0.65243(16) 0.52948(18)
H4_4 H 0.637299 0.633680 0.556467
C4_2 C 0.5263(2) 0.61564(16) 0.46934(19)
H5_2 H 0.545007 0.572694 0.454527
C5_4 C 0.4428(2) 0.64419(15) 0.43200(17)
H6_4 H 0.405391 0.619178 0.392344
C6_4 C 0.6103(2) 0.75906(16) 0.61542(17)
H7_4 H 0.579125 0.757033 0.663390
H8_4 H 0.610183 0.806108 0.598043
C7_4 C 0.7687(2) 0.74205(15) 0.58176(15)
C8_4 C 0.86409(19) 0.71106(15) 0.60126(15)
C9_4 C 0.8877(2) 0.66793(18) 0.66690(17)
H9_4 H 0.843179 0.659333 0.701280
C10_4 C 0.9758(2) 0.6375(2) 0.68235(18)
H10_4 H 0.990456 0.608494 0.726315
C13_4 C 0.9322(2) 0.72302(16) 0.54981(15)
H12_4 H 0.917363 0.751220 0.505109
C27_2 C 0.29654(16) 0.77030(13) 0.61015(13)
C28_2 C 0.36100(16) 0.73670(13) 0.67918(13)
C29_2 C 0.39544(18) 0.77900(13) 0.74247(14)
H23_2 H 0.375969 0.824154 0.741375
C30_2 C 0.45916(18) 0.75549(13) 0.80844(14)
H24_2 H 0.482523 0.785498 0.849514
C31_2 C 0.48748(16) 0.68862(13) 0.81312(13)
C32_2 C 0.45144(16) 0.64186(12) 0.75010(13)
C33_2 C 0.38832(16) 0.66632(13) 0.68159(13)
C34_2 C 0.35525(18) 0.61915(13) 0.61914(14)
H25_2 H 0.314104 0.634056 0.574342
C35_2 C 0.3825(2) 0.55287(15) 0.62356(16)
H26_2 H 0.360380 0.523272 0.581684
C36_2 C 0.4436(2) 0.52882(15) 0.69065(17)
H27_2 H 0.461637 0.483355 0.693102
C37_2 C 0.47690(18) 0.57193(14) 0.75280(15)
H28_4 H 0.516743 0.555167 0.797355
C38_4 C 0.55618(16) 0.66942(13) 0.88661(13)
C39_4 C 0.27762(17) 0.86396(13) 0.35346(15)
C40_4 C 0.28690(17) 0.92794(12) 0.30625(14)
C41_4 C 0.21812(18) 0.94019(13) 0.24150(15)
H29_4 H 0.168626 0.909404 0.229287
C42_4 C 0.2214(2) 0.99848(14) 0.19349(16)
H33_2 H 0.567174 0.995298 0.439871
C48_4 C 0.44211(18) 0.96103(14) 0.38617(15)
H34_4 H 0.441107 0.922782 0.418772
C49_4 C 0.36528(17) 0.97315(12) 0.32364(14)
C4_3 C 0.0263(2) 0.88436(16) 0.96934(19)
H5_3 H 0.045007 0.927306 0.954527
C46_3 C 0.0196(2) 0.43673(16) 0.85132(18)
H32_3 H 0.070651 0.406965 0.861150
C47_3 C 0.0172(2) 0.49550(16) 0.89915(17)
H33_3 H 0.067174 0.504702 0.939871
H27_3 H 0.961637 0.016645 0.193102
Cd2 Cd 0.67863(2) 0.62817(2) 0.01884(2)
O4_3 O 0.75650(13) 0.76359(10) 0.05155(10)
O5_3 O 0.78559(13) 0.66607(10) 0.11646(11)
C1_3 C 0.96971(19) 0.75829(14) 0.00717(15)
H3_3 H 0.950983 0.714596 0.019076
C27_3 C 0.79654(16) 0.72970(13) 0.11015(13)
C28_3 C 0.86100(16) 0.76330(13) 0.17918(13)
C29_3 C 0.89544(18) 0.72100(13) 0.24247(14)
H23_3 H 0.875969 0.675846 0.241375
C30_3 C 0.95916(18) 0.74451(13) 0.30844(14)
H24_3 H 0.982523 0.714502 0.349514
C31_3 C 0.98748(16) 0.81138(13) 0.31312(13)
C32_3 C 0.95144(16) 0.85814(12) 0.25010(13)
C33_3 C 0.88832(16) 0.83368(13) 0.18159(13)
C34_3 C 0.85525(18) 0.88085(13) 0.11914(14)
H25_3 H 0.814104 0.865944 0.074342
C35_3 C 0.8825(2) 0.94713(15) 0.12356(16)
H26_3 H 0.860380 0.976728 0.081684
C36_3 C 0.9436(2) 0.97118(15) 0.19065(17)
C37_3 C 0.97690(18) 0.92807(14) 0.25280(15)
O12 O 0.6917(2) 0.51558(13) 0.02916(18)
N5_2 N 0.56861(17) 0.62721(13) 0.10922(14)
O2_3 O 0.86969(15) 0.37929(15) 0.35878(12)
C11_3 C 0.9579(2) 0.34895(18) 0.36895(16)
C12_3 C 0.9794(2) 0.30637(17) 0.43538(16)
H11_3 H 0.934591 0.297829 0.469513
C14_3 C 0.83211(19) 0.39647(18) 0.28047(16)
C15_3 C 0.8176(3) 0.34767(18) 0.22100(18)
H13_3 H 0.833258 0.302545 0.232952
C16_3 C 0.7796(2) 0.36630(15) 0.14327(17)
H14_3 H 0.770309 0.333524 0.102791
C17_3 C 0.75536(19) 0.43302(14) 0.12514(16)
C18_3 C 0.7674(3) 0.48071(18) 0.1868(2)
H15_3 H 0.749358 0.525558 0.175768
C19_3 C 0.8059(3) 0.4624(2) 0.2646(2)
H16_3 H 0.813808 0.494663 0.305708
C20_3 C 0.7197(2) 0.45680(15) 0.04208(18)
N3_3 N 0.28147(17) 0.58733(13) 0.01822(14)
H2_3 H 0.261436 0.627941 0.007057
C21_3 C 0.3150(2) 0.5704(2) 0.10244(17)
H17_3 H 0.268711 0.585405 0.135945
H18_3 H 0.321095 0.521424 0.107858
C22_3 C 0.4093(2) 0.60309(16) 0.13190(16)
C23_3 C 0.4252(2) 0.63871(18) 0.20427(17)
H19_3 H 0.376848 0.643500 0.235903
C24_3 C 0.5131(2) 0.66696(18) 0.22893(18)
H20_3 H 0.525357 0.690022 0.277911
C25_3 C 0.5823(2) 0.66043(17) 0.17974(17)
H21_3 H 0.641284 0.679998 0.196321
C26_3 C 0.48368(19) 0.59840(15) 0.08660(16)
H22_3 H 0.474094 0.574154 0.038325
Cd6 Cd 0.32137(2) 0.37183(2) 0.98116(2)
N3_4 N 0.71853(17) 0.41267(13) 0.98178(14)
H2_4 H 0.738564 0.372059 0.992943
N4_2 N 0.43139(17) 0.37279(13) 0.89078(14)
C21_4 C 0.6850(2) 0.4296(2) 0.89756(17)
H17_4 H 0.731289 0.414595 0.864055
H18_4 H 0.678905 0.478576 0.892142
C22_4 C 0.5907(2) 0.39691(16) 0.86810(16)
C23_4 C 0.5748(2) 0.36129(18) 0.79573(17)
H19_4 H 0.623152 0.356500 0.764097
C24_4 C 0.4869(2) 0.33304(18) 0.77107(18)
H20_4 H 0.474643 0.309978 0.722089
C25_4 C 0.4177(2) 0.33957(17) 0.82026(17)
H21_4 H 0.358716 0.320002 0.803679
C26_4 C 0.51632(19) 0.40160(15) 0.91340(16)
H22_4 H 0.525906 0.425846 0.961675
O4_4 O 0.24350(13) 0.23641(10) 0.94845(10)
O5_4 O 0.21441(13) 0.33393(10) 0.88354(11)
C1_4 C 0.03029(19) 0.24171(14) 0.99283(15)
H3_4 H 0.049017 0.285404 0.980924
C27_4 C 0.20346(16) 0.27030(13) 0.88985(13)
C28_4 C 0.13900(16) 0.23670(13) 0.82082(13)
C29_4 C 0.10456(18) 0.27900(13) 0.75753(14)
H23_4 H 0.124031 0.324154 0.758625
C30_4 C 0.04084(18) 0.25549(13) 0.69156(14)
H24_4 H 0.017477 0.285498 0.650486
C31_4 C 0.01252(16) 0.18862(13) 0.68688(13)
C32_4 C 0.04856(16) 0.14186(12) 0.74990(13)
C33_4 C 0.11168(16) 0.16632(13) 0.81841(13)
C34_4 C 0.14475(18) 0.11915(13) 0.88086(14)
H25_4 H 0.185896 0.134056 0.925658
C35_4 C 0.1175(2) 0.05287(15) 0.87644(16)
H26_4 H 0.139620 0.023272 0.918316
C36_4 C 0.0564(2) 0.02882(15) 0.80935(17)
C37_4 C 0.02310(18) 0.07193(14) 0.74720(15)
O12_2 O 0.3083(2) 0.48442(13) 0.97084(18)
O2_4 O 0.13031(15) 0.62071(15) 0.64122(12)
C11_4 C 0.0421(2) 0.65105(18) 0.63105(16)
C12_4 C 0.0206(2) 0.69363(17) 0.56462(16)
H11_4 H 0.065409 0.702171 0.530487
C14_4 C 0.16789(19) 0.60353(18) 0.71953(16)
C15_4 C 0.1824(3) 0.65233(18) 0.77900(18)
H13_4 H 0.166742 0.697455 0.767048
C16_4 C 0.2204(2) 0.63370(15) 0.85673(17)
H14_4 H 0.229691 0.666476 0.897209
C17_4 C 0.24464(19) 0.56698(14) 0.87486(16)
C18_4 C 0.2326(3) 0.51929(18) 0.8132(2)
H15_4 H 0.250642 0.474442 0.824232
C19_4 C 0.1941(3) 0.5376(2) 0.7354(2)
H16_4 H 0.186192 0.505337 0.694292
C20_4 C 0.2803(2) 0.54320(15) 0.95792(18)
H27_4 H 0.038363 0.983355 0.806898
C4_4 C 0.9737(2) 0.11564(16) 0.03066(19)
H5_4 H 0.954993 0.072694 0.045473
C46_4 C 0.9804(2) 0.56327(16) 0.14868(18)
H32_4 H 0.929349 0.593035 0.138850
C47_4 C 0.9828(2) 0.50450(16) 0.10085(17)
H33_4 H 0.932826 0.495298 0.060129
loop_
_geom_bond_atom_site_label_1
_geom_bond_atom_site_label_2
_geom_bond_site_symmetry_1
_geom_bond_site_symmetry_2
N4 C25 1_555 1_555
H20 C24 1_555 1_555
C25 C24 1_555 1_555
H21 C25 1_555 1_555
Cd7 N4 1_555 1_555
Cd5 O3 1_555 1_555
O1 C7 1_555 1_555
O2 C11 1_555 1_555
O6 C38 1_555 1_555
O7 C38 1_555 1_555
N2 H1 1_555 1_555
N3 H2 1_555 1_555
C3 C2 1_555 1_555
H4 C3 1_555 1_555
C6 N2 1_555 1_555
H7 C6 1_555 1_555
H8 C6 1_555 1_555
C7 N2 1_555 1_555
C8 C7 1_555 1_555
C9 C8 1_555 1_555
H9 C9 1_555 1_555
C10 C9 1_555 1_555
H10 C10 1_555 1_555
C11 C10 1_555 1_555
C12 C11 1_555 1_555
H11 C12 1_555 1_555
C13 C8 1_555 1_555
H12 C13 1_555 1_555
C14 O2 1_555 1_555
C15 C14 1_555 1_555
H13 C15 1_555 1_555
C16 C15 1_555 1_555
H14 C16 1_555 1_555
C17 C16 1_555 1_555
C18 C17 1_555 1_555
C19 C14 1_555 1_555
H16 C19 1_555 1_555
C20 N3 1_555 1_555
C21 N3 1_555 1_555
H17 C21 1_555 1_555
H18 C21 1_555 1_555
C22 C21 1_555 1_555
C23 C22 1_555 1_555
H19 C23 1_555 1_555
H22 C26 1_555 1_555
Cd4 O7 1_555 1_555
Cd7 O6 1_555 1_555
O7 Cd7 1_555 1_555
C2 C6 1_555 1_555
C12 C13 1_555 1_555
C17 C20 1_555 1_555
C18 C19 1_555 1_555
C22 C26 1_555 1_555
O8 Cd1 1_555 1_555
O9 Cd1 1_555 1_555
O10 C50 1_555 1_555
O11 C50 1_555 1_555
N1 Cd1 1_555 1_555
C5 N1 1_555 1_555
H6 C5 1_555 1_555
C39 O8 1_555 1_555
C40 C39 1_555 1_555
C41 C40 1_555 1_555
H29 C41 1_555 1_555
C42 C41 1_555 1_555
H30 C42 1_555 1_555
C43 C42 1_555 1_555
C44 C43 1_555 1_555
C45 C44 1_555 1_555
H31 C45 1_555 1_555
H34 C48 1_555 1_555
C49 C40 1_555 1_555
C50 C43 1_555 1_555
Cd3 O10 1_555 1_555
O14 Cd1 1_555 1_555
O15 Cd1 1_555 1_555
O16 Cd1 1_555 1_555
O9 C39 1_555 1_555
O11 Cd3 1_555 1_555
C44 C49 1_555 1_555
C48 C49 1_555 1_555
Cd3 O4 1_555 1_555
Cd5 O5 1_555 1_555
O1_2 C7_2 1_555 1_555
O4 C27 1_555 1_555
O5 C27 1_555 1_555
O6_2 C38_2 1_555 1_555
O7_2 C38_2 1_555 1_555
O8_2 Cd3 1_555 1_555
O9_2 Cd3 1_555 1_555
N1_2 Cd3 1_555 1_555
N2_2 H1_2 1_555 1_555
C1 N1_2 1_555 1_555
H3 C1 1_555 1_555
C2_2 C1 1_555 1_555
C3_2 C2_2 1_555 1_555
H4_2 C3_2 1_555 1_555
C4 C3_2 1_555 1_555
H5 C4 1_555 1_555
C5_2 N1_2 1_555 1_555
H6_2 C5_2 1_555 1_555
C6_2 N2_2 1_555 1_555
H7_2 C6_2 1_555 1_555
H8_2 C6_2 1_555 1_555
C7_2 N2_2 1_555 1_555
C8_2 C7_2 1_555 1_555
C9_2 C8_2 1_555 1_555
H9_2 C9_2 1_555 1_555
C10_2 C9_2 1_555 1_555
H10_2 C10_2 1_555 1_555
C13_2 C8_2 1_555 1_555
H12_2 C13_2 1_555 1_555
C27 C28 1_555 1_555
C28 C29 1_555 1_555
C29 H23 1_555 1_555
C30 C29 1_555 1_555
H24 C30 1_555 1_555
C31 C30 1_555 1_555
C32 C31 1_555 1_555
C33 C28 1_555 1_555
C34 C33 1_555 1_555
H25 C34 1_555 1_555
C35 C34 1_555 1_555
H26 C35 1_555 1_555
C36 C35 1_555 1_555
H27 C36 1_555 1_555
C37 C32 1_555 1_555
H28_2 C37 1_555 1_555
C38_2 C31 1_555 1_555
C39_2 O8_2 1_555 1_555
C40_2 C39_2 1_555 1_555
C41_2 C40_2 1_555 1_555
H29_2 C41_2 1_555 1_555
C42_2 C41_2 1_555 1_555
H34_2 C48_2 1_555 1_555
C49_2 C40_2 1_555 1_555
Cd4_2 O7_2 1_555 1_555
O13_2 Cd5 1_555 1_555
O14_2 Cd3 1_555 1_555
N5 Cd5 1_555 1_555
Cd5 O9_2 1_555 1_555
Cd5 O14_2 1_555 1_555
O9_2 C39_2 1_555 1_555
C2_2 C6_2 1_555 1_555
C4 C5_2 1_555 1_555
C32 C33 1_555 1_555
C36 C37 1_555 1_555
C48_2 C49_2 1_555 1_555
O15 C50_2 1_555 1_555
O16 C50_2 1_555 1_555
C44_2 C43_2 1_555 1_555
C45_2 C44_2 1_555 1_555
H31_2 C45_2 1_555 1_555
C46 C45_2 1_555 1_555
H32 C46 1_555 1_555
C47 C46 1_555 1_555
C50_2 C43_2 1_555 1_555
O8_3 Cd4_2 1_555 1_555
O9_3 Cd4_2 1_555 1_555
O10_2 C50_3 1_555 1_555
O11_2 C50_3 1_555 1_555
N1_3 Cd4_2 1_555 1_555
C5_3 N1_3 1_555 1_555
H6_3 C5_3 1_555 1_555
C39_3 O8_3 1_555 1_555
C40_3 C39_3 1_555 1_555
C41_3 C40_3 1_555 1_555
H29_3 C41_3 1_555 1_555
C42_3 C41_3 1_555 1_555
H30_3 C42_3 1_555 1_555
C43_3 C42_3 1_555 1_555
C44_3 C43_3 1_555 1_555
C45_3 C44_3 1_555 1_555
H31_3 C45_3 1_555 1_555
H34_3 C48_3 1_555 1_555
C49_3 C40_3 1_555 1_555
C50_3 C43_3 1_555 1_555
Cd4 O10_2 1_555 1_555
O15_2 Cd4_2 1_555 1_555
O16_2 Cd4_2 1_555 1_555
O9_3 C39_3 1_555 1_555
O11_2 Cd4 1_555 1_555
C44_3 C49_3 1_555 1_555
C48_3 C49_3 1_555 1_555
O1_3 C7_3 1_555 1_555
O2_2 C11_2 1_555 1_555
O13_2 C38_3 1_555 1_555
O14_2 C38_3 1_555 1_555
N2_3 H1_3 1_555 1_555
N3_2 H2_2 1_555 1_555
C3_3 C2_3 1_555 1_555
H4_3 C3_3 1_555 1_555
C6_3 N2_3 1_555 1_555
H7_3 C6_3 1_555 1_555
H8_3 C6_3 1_555 1_555
C7_3 N2_3 1_555 1_555
C8_3 C7_3 1_555 1_555
C9_3 C8_3 1_555 1_555
H9_3 C9_3 1_555 1_555
C10_3 C9_3 1_555 1_555
H10_3 C10_3 1_555 1_555
C11_2 C10_3 1_555 1_555
C12_2 C11_2 1_555 1_555
H11_2 C12_2 1_555 1_555
C13_3 C8_3 1_555 1_555
H12_3 C13_3 1_555 1_555
C14_2 O2_2 1_555 1_555
C15_2 C14_2 1_555 1_555
H13_2 C15_2 1_555 1_555
C16_2 C15_2 1_555 1_555
H14_2 C16_2 1_555 1_555
C17_2 C16_2 1_555 1_555
C18_2 C17_2 1_555 1_555
C19_2 C14_2 1_555 1_555
H16_2 C19_2 1_555 1_555
C20_2 N3_2 1_555 1_555
C21_2 N3_2 1_555 1_555
H17_2 C21_2 1_555 1_555
H18_2 C21_2 1_555 1_555
C22_2 C21_2 1_555 1_555
C23_2 C22_2 1_555 1_555
H19_2 C23_2 1_555 1_555
H22_2 C26_2 1_555 1_555
C2_3 C6_3 1_555 1_555
C12_2 C13_3 1_555 1_555
C17_2 C20_2 1_555 1_555
C18_2 C19_2 1_555 1_555
C22_2 C26_2 1_555 1_555
Cd7 O3_2 1_555 1_555
N5 C25_2 1_555 1_555
H20_2 C24_2 1_555 1_555
C25_2 C24_2 1_555 1_555
H21_2 C25_2 1_555 1_555
O15_2 C50_4 1_555 1_555
O16_2 C50_4 1_555 1_555
C44_4 C43_4 1_555 1_555
C45_4 C44_4 1_555 1_555
H31_4 C45_4 1_555 1_555
C46_2 C45_4 1_555 1_555
H32_2 C46_2 1_555 1_555
C47_2 C46_2 1_555 1_555
C50_4 C43_4 1_555 1_555
Cd4 O4_2 1_555 1_555
Cd7 O5_2 1_555 1_555
O1_4 C7_4 1_555 1_555
O4_2 C27_2 1_555 1_555
O5_2 C27_2 1_555 1_555
O13 C38_4 1_555 1_555
O14 C38_4 1_555 1_555
O8_4 Cd4 1_555 1_555
O9_4 Cd4 1_555 1_555
N1_4 Cd4 1_555 1_555
N2_4 H1_4 1_555 1_555
C1_2 N1_4 1_555 1_555
H3_2 C1_2 1_555 1_555
C2_4 C1_2 1_555 1_555
C3_4 C2_4 1_555 1_555
H4_4 C3_4 1_555 1_555
C4_2 C3_4 1_555 1_555
H5_2 C4_2 1_555 1_555
C5_4 N1_4 1_555 1_555
H6_4 C5_4 1_555 1_555
C6_4 N2_4 1_555 1_555
H7_4 C6_4 1_555 1_555
H8_4 C6_4 1_555 1_555
C7_4 N2_4 1_555 1_555
C8_4 C7_4 1_555 1_555
C9_4 C8_4 1_555 1_555
H9_4 C9_4 1_555 1_555
C10_4 C9_4 1_555 1_555
H10_4 C10_4 1_555 1_555
C13_4 C8_4 1_555 1_555
H12_4 C13_4 1_555 1_555
C27_2 C28_2 1_555 1_555
C28_2 C29_2 1_555 1_555
C29_2 H23_2 1_555 1_555
C30_2 C29_2 1_555 1_555
H24_2 C30_2 1_555 1_555
C31_2 C30_2 1_555 1_555
C32_2 C31_2 1_555 1_555
C33_2 C28_2 1_555 1_555
C34_2 C33_2 1_555 1_555
H25_2 C34_2 1_555 1_555
C35_2 C34_2 1_555 1_555
H26_2 C35_2 1_555 1_555
C36_2 C35_2 1_555 1_555
H27_2 C36_2 1_555 1_555
C37_2 C32_2 1_555 1_555
H28_4 C37_2 1_555 1_555
C38_4 C31_2 1_555 1_555
C39_4 O8_4 1_555 1_555
C40_4 C39_4 1_555 1_555
C41_4 C40_4 1_555 1_555
H29_4 C41_4 1_555 1_555
C42_4 C41_4 1_555 1_555
H34_4 C48_4 1_555 1_555
C49_4 C40_4 1_555 1_555
Cd7 O9_4 1_555 1_555
O9_4 C39_4 1_555 1_555
C2_4 C6_4 1_555 1_555
C4_2 C5_4 1_555 1_555
C32_2 C33_2 1_555 1_555
C36_2 C37_2 1_555 1_555
C48_4 C49_4 1_555 1_555
H5_3 C4_3 1_555 1_555
H32_3 C46_3 1_555 1_555
C47_3 C46_3 1_555 1_555
H33_3 C47_3 1_555 1_555
Cd2 O5_3 1_555 1_555
O4_3 C27_3 1_555 1_555
O5_3 C27_3 1_555 1_555
H3_3 C1_3 1_555 1_555
C27_3 C28_3 1_555 1_555
C28_3 C29_3 1_555 1_555
C29_3 H23_3 1_555 1_555
C30_3 C29_3 1_555 1_555
H24_3 C30_3 1_555 1_555
C31_3 C30_3 1_555 1_555
C32_3 C31_3 1_555 1_555
C33_3 C28_3 1_555 1_555
C34_3 C33_3 1_555 1_555
H25_3 C34_3 1_555 1_555
C35_3 C34_3 1_555 1_555
H26_3 C35_3 1_555 1_555
C36_3 C35_3 1_555 1_555
C37_3 C32_3 1_555 1_555
O12 Cd2 1_555 1_555
N5_2 Cd2 1_555 1_555
C32_3 C33_3 1_555 1_555
C36_3 C37_3 1_555 1_555
O2_3 C11_3 1_555 1_555
O12 C20_3 1_555 1_555
C12_3 C11_3 1_555 1_555
H11_3 C12_3 1_555 1_555
C14_3 O2_3 1_555 1_555
C15_3 C14_3 1_555 1_555
H13_3 C15_3 1_555 1_555
C16_3 C15_3 1_555 1_555
H14_3 C16_3 1_555 1_555
C17_3 C16_3 1_555 1_555
C18_3 C17_3 1_555 1_555
H15_3 C18_3 1_555 1_555
C19_3 C14_3 1_555 1_555
H16_3 C19_3 1_555 1_555
C17_3 C20_3 1_555 1_555
C18_3 C19_3 1_555 1_555
N3_3 H2_3 1_555 1_555
N5_2 C25_3 1_555 1_555
C21_3 N3_3 1_555 1_555
H17_3 C21_3 1_555 1_555
H18_3 C21_3 1_555 1_555
C22_3 C21_3 1_555 1_555
C23_3 C22_3 1_555 1_555
H19_3 C23_3 1_555 1_555
C24_3 C23_3 1_555 1_555
H20_3 C24_3 1_555 1_555
C25_3 C24_3 1_555 1_555
H21_3 C25_3 1_555 1_555
C26_3 N5_2 1_555 1_555
H22_3 C26_3 1_555 1_555
C22_3 C26_3 1_555 1_555
N3_4 H2_4 1_555 1_555
N4_2 C25_4 1_555 1_555
C21_4 N3_4 1_555 1_555
H17_4 C21_4 1_555 1_555
H18_4 C21_4 1_555 1_555
C22_4 C21_4 1_555 1_555
C23_4 C22_4 1_555 1_555
H19_4 C23_4 1_555 1_555
C24_4 C23_4 1_555 1_555
H20_4 C24_4 1_555 1_555
C25_4 C24_4 1_555 1_555
H21_4 C25_4 1_555 1_555
C26_4 N4_2 1_555 1_555
H22_4 C26_4 1_555 1_555
Cd6 N4_2 1_555 1_555
C22_4 C26_4 1_555 1_555
Cd6 O5_4 1_555 1_555
O4_4 C27_4 1_555 1_555
O5_4 C27_4 1_555 1_555
H3_4 C1_4 1_555 1_555
C27_4 C28_4 1_555 1_555
C28_4 C29_4 1_555 1_555
C29_4 H23_4 1_555 1_555
C30_4 C29_4 1_555 1_555
H24_4 C30_4 1_555 1_555
C31_4 C30_4 1_555 1_555
C32_4 C31_4 1_555 1_555
C33_4 C28_4 1_555 1_555
C34_4 C33_4 1_555 1_555
H25_4 C34_4 1_555 1_555
C35_4 C34_4 1_555 1_555
H26_4 C35_4 1_555 1_555
C36_4 C35_4 1_555 1_555
C37_4 C32_4 1_555 1_555
O12_2 Cd6 1_555 1_555
C32_4 C33_4 1_555 1_555
C36_4 C37_4 1_555 1_555
O2_4 C11_4 1_555 1_555
O12_2 C20_4 1_555 1_555
C12_4 C11_4 1_555 1_555
H11_4 C12_4 1_555 1_555
C14_4 O2_4 1_555 1_555
C15_4 C14_4 1_555 1_555
H13_4 C15_4 1_555 1_555
C16_4 C15_4 1_555 1_555
H14_4 C16_4 1_555 1_555
C17_4 C16_4 1_555 1_555
C18_4 C17_4 1_555 1_555
H15_4 C18_4 1_555 1_555
C19_4 C14_4 1_555 1_555
H16_4 C19_4 1_555 1_555
C17_4 C20_4 1_555 1_555
C18_4 C19_4 1_555 1_555
H5_4 C4_4 1_555 1_555
H32_4 C46_4 1_555 1_555
C47_4 C46_4 1_555 1_555
H33_4 C47_4 1_555 1_555

#END
