
###############################################################################
#
# This file contains modified crystal structure data generated from the
# MOF subset of the Cambridge Structural Database (CSD) v543 
# hosted by the Cambridge Crystallographic Data Centre (CCDC).
#
# This work is licensed under the Creative Commons
# Attribution-NonCommercial-ShareAlike 4.0 International License.
# To view a copy of this license, visit
# http://creativecommons.org/licenses/by-nc-sa/4.0/
# or send a letter to
# Creative Commons, PO Box 1866, Mountain View, CA 94042, USA.
#
# CIF created using the CSD Python API on 29 September 2022
# The structure has been converted into the P1 space group
# The structure has a 3D framework
# The original CSD entry IWEVAJ is in the tetragonal crystal system
# The framework has been calculated to contain at least 10.0% void space
# The void calculation uses a probe of radius 1.32A, grid spacing 0.4
# H atom positions have been added when not included in the experimental data
# Generated hydrogen atom positions removed from atoms on special positions
#
###############################################################################

data_IWEVAJ
_chemical_formula_moiety         '(C384 H768 Cu80 N48 O296)n'
_symmetry_cell_setting           triclinic
_symmetry_space_group_name_H-M   'P 1'
_symmetry_Int_Tables_number      1
_space_group_name_Hall           'P 1'
loop_
_symmetry_equiv_pos_site_id
_symmetry_equiv_pos_as_xyz
1 x,y,z
_cell_length_a                   26.217(2)
_cell_length_b                   26.217(2)
_cell_length_c                   44.813(5)
_cell_angle_alpha                90
_cell_angle_beta                 90
_cell_angle_gamma                90
_cell_volume                     30801.4
loop_
_atom_site_label
_atom_site_type_symbol
_atom_site_fract_x
_atom_site_fract_y
_atom_site_fract_z
Cu1 Cu 0.21324(5) 0.21324(5) 0.500
Cu2 Cu 0.28471(5) 0.28471(5) 0.500
Cu3 Cu 0.28455(5) 0.500 0.37413(3)
Cu4 Cu 0.21313(5) 0.500 0.33255(3)
O1 O 0.1818(2) 0.2556(2) 0.46936(13)
O2 O 0.1809(2) 0.44764(19) 0.35780(14)
O3 O 0.2425(2) 0.31565(19) 0.46983(12)
O4 O 0.2555(2) 0.44712(18) 0.31367(12)
O5 O 0.31614(19) 0.44636(19) 0.35010(12)
O6 O 0.2418(2) 0.44741(19) 0.39303(12)
C1 C 0.2040(3) 0.4317(3) 0.3802(2)
C2 C 0.2033(3) 0.2955(3) 0.46019(16)
N1 N 0.3033(3) 0.3033(3) 0.2436(2)
C3 C 0.3643(3) 0.3643(3) 0.3250(3)
C4 C 0.2937(3) 0.4308(2) 0.32683(18)
C5 C 0.3265(3) 0.3265(3) 0.2701(2)
C6 C 0.3030(3) 0.3669(4) 0.28420(16)
C7 C 0.2011(3) 0.3664(3) 0.42185(18)
C8 C 0.1299(4) 0.3029(4) 0.4232(2)
C9 C 0.1784(3) 0.3878(3) 0.3968(2)
C10 C 0.1294(4) 0.3684(4) 0.3838(2)
C11 C 0.1762(3) 0.3230(3) 0.43435(19)
C12 C 0.1074(4) 0.3257(4) 0.3973(2)
C13 C 0.3220(3) 0.3865(3) 0.31076(19)
Cu5 Cu 0.250 0.250 0.250
O7 O 0.1564(3) 0.1564(3) 0.500
O8 O 0.3423(3) 0.3423(3) 0.500
O9 O 0.1537(3) 0.500 0.29830(17)
O10 O 0.3440(3) 0.500 0.40816(18)
O11 O 0.1918(5) 0.3082(5) 0.250
O12 O 0.2461(4) 0.2461(4) 0.1960(2)
N2 N 0.0606(4) 0.3051(5) 0.3823(3)
O13 O 0.44712(18) 0.2555(2) 0.31367(12)
O14 O 0.44636(19) 0.31614(19) 0.35010(12)
C14 C 0.4308(2) 0.2937(3) 0.32683(18)
C15 C 0.3669(4) 0.3030(3) 0.28420(16)
C16 C 0.3865(3) 0.3220(3) 0.31076(19)
Cu6 Cu 0.500 0.28455(5) 0.37413(3)
Cu7 Cu 0.500 0.21313(5) 0.33255(3)
O15 O 0.7444(2) 0.1818(2) 0.46936(13)
O16 O 0.55236(19) 0.1809(2) 0.35780(14)
O17 O 0.68435(19) 0.2425(2) 0.46983(12)
O18 O 0.55288(18) 0.2555(2) 0.31367(12)
O19 O 0.55364(19) 0.31614(19) 0.35010(12)
O20 O 0.55259(19) 0.2418(2) 0.39303(12)
C17 C 0.5683(3) 0.2040(3) 0.3802(2)
C18 C 0.7045(3) 0.2033(3) 0.46019(16)
N3 N 0.6967(3) 0.3033(3) 0.2436(2)
C19 C 0.6357(3) 0.3643(3) 0.3250(3)
C20 C 0.5692(2) 0.2937(3) 0.32683(18)
C21 C 0.6735(3) 0.3265(3) 0.2701(2)
C22 C 0.6331(4) 0.3030(3) 0.28420(16)
C23 C 0.6336(3) 0.2011(3) 0.42185(18)
C24 C 0.6971(4) 0.1299(4) 0.4232(2)
C25 C 0.6122(3) 0.1784(3) 0.3968(2)
C26 C 0.6316(4) 0.1294(4) 0.3838(2)
C27 C 0.6770(3) 0.1762(3) 0.43435(19)
C28 C 0.6743(4) 0.1074(4) 0.3973(2)
C29 C 0.6135(3) 0.3220(3) 0.31076(19)
O21 O 0.500 0.1537(3) 0.29830(17)
O22 O 0.500 0.3440(3) 0.40816(18)
N4 N 0.6949(5) 0.0606(4) 0.3823(3)
O23 O 0.7445(2) 0.44712(18) 0.31367(12)
O24 O 0.68386(19) 0.44636(19) 0.35010(12)
C30 C 0.7063(3) 0.4308(2) 0.32683(18)
C31 C 0.6970(3) 0.3669(4) 0.28420(16)
C32 C 0.6780(3) 0.3865(3) 0.31076(19)
O25 O 0.2556(2) 0.1818(2) 0.53064(13)
O26 O 0.44764(19) 0.1809(2) 0.64220(14)
O27 O 0.31565(19) 0.2425(2) 0.53017(12)
O28 O 0.44741(19) 0.2418(2) 0.60697(12)
C33 C 0.4317(3) 0.2040(3) 0.6198(2)
C34 C 0.2955(3) 0.2033(3) 0.53981(16)
C35 C 0.3664(3) 0.2011(3) 0.57815(18)
C36 C 0.3029(4) 0.1299(4) 0.5768(2)
C37 C 0.3878(3) 0.1784(3) 0.6032(2)
C38 C 0.3684(4) 0.1294(4) 0.6162(2)
C39 C 0.3230(3) 0.1762(3) 0.56565(19)
C40 C 0.3257(4) 0.1074(4) 0.6027(2)
N5 N 0.3051(5) 0.0606(4) 0.6177(3)
O29 O 0.1818(2) 0.2556(2) 0.53064(13)
O30 O 0.1809(2) 0.44764(19) 0.64220(14)
O31 O 0.2425(2) 0.31565(19) 0.53017(12)
O32 O 0.2418(2) 0.44741(19) 0.60697(12)
C41 C 0.2040(3) 0.4317(3) 0.6198(2)
C42 C 0.2033(3) 0.2955(3) 0.53981(16)
C43 C 0.2011(3) 0.3664(3) 0.57815(18)
C44 C 0.1299(4) 0.3029(4) 0.5768(2)
C45 C 0.1784(3) 0.3878(3) 0.6032(2)
C46 C 0.1294(4) 0.3684(4) 0.6162(2)
C47 C 0.1762(3) 0.3230(3) 0.56565(19)
C48 C 0.1074(4) 0.3257(4) 0.6027(2)
N6 N 0.0606(4) 0.3051(5) 0.6177(3)
O33 O 0.2539(4) 0.2539(4) 0.3040(2)
O34 O 0.3082(5) 0.1918(5) 0.250
Cu8 Cu 0.78676(5) 0.21324(5) 0.500
Cu9 Cu 0.71529(5) 0.28471(5) 0.500
Cu10 Cu 0.28455(5) 0.500 0.62587(3)
Cu11 Cu 0.71545(5) 0.500 0.37413(3)
Cu12 Cu 0.500 0.28455(5) 0.62587(3)
Cu13 Cu 0.21313(5) 0.500 0.66745(3)
Cu14 Cu 0.78687(5) 0.500 0.33255(3)
Cu15 Cu 0.500 0.21313(5) 0.66745(3)
O35 O 0.2556(2) 0.1818(2) 0.46936(13)
O36 O 0.1809(2) 0.55236(19) 0.35780(14)
O37 O 0.44764(19) 0.1809(2) 0.35780(14)
O38 O 0.31565(19) 0.2425(2) 0.46983(12)
O39 O 0.2555(2) 0.55288(18) 0.31367(12)
O40 O 0.31614(19) 0.55364(19) 0.35010(12)
O41 O 0.2418(2) 0.55259(19) 0.39303(12)
O42 O 0.44741(19) 0.2418(2) 0.39303(12)
N7 N 0.1967(3) 0.1967(3) 0.2564(2)
Cu16 Cu 0.750 0.250 0.250
H1 H 0.111646 0.270604 0.565869
H2 H 0.0462893 0.322823 0.636014
H3 H 0.0432353 0.273434 0.609538
H6 H 0.235991 0.381904 0.568579
H7 H 0.111703 0.386823 0.635362
H10 H 0.268964 0.383728 0.274345
H11 H 0.235991 0.381904 0.431421
H16 H 0.379111 0.379111 0.345985
H17 H 0.111703 0.386823 0.364638
H18 H 0.111646 0.270604 0.434131
H21 H 0.313958 0.313958 0.222737
H22 H 0.0462893 0.322823 0.363986
H23 H 0.0432353 0.273434 0.390462
H30 H 0.383728 0.268964 0.274345
H31 H 0.618096 0.235991 0.431421
H32 H 0.677177 0.0462893 0.363986
H33 H 0.726566 0.0432353 0.390462
H34 H 0.686042 0.313958 0.222737
H37 H 0.620889 0.379111 0.345985
H40 H 0.729396 0.111646 0.434131
H41 H 0.616272 0.268964 0.274345
H42 H 0.731036 0.383728 0.274345
H43 H 0.613177 0.111703 0.364638
H44 H 0.322823 0.0462893 0.636014
H45 H 0.273434 0.0432353 0.609538
H46 H 0.386823 0.111703 0.635362
H47 H 0.270604 0.111646 0.565869
H48 H 0.381904 0.235991 0.568579
O7_2 O 0.8436(3) 0.1564(3) 0.500
O8_2 O 0.6577(3) 0.3423(3) 0.500
O11_2 O 0.6918(5) 0.1918(5) 0.250
O12_2 O 0.7539(4) 0.2461(4) 0.1960(2)
O15_2 O 0.8182(2) 0.7444(2) 0.46936(13)
O16_2 O 0.8191(2) 0.55236(19) 0.35780(14)
O17_2 O 0.7575(2) 0.68435(19) 0.46983(12)
O18_2 O 0.7445(2) 0.55288(18) 0.31367(12)
O19_2 O 0.68386(19) 0.55364(19) 0.35010(12)
O20_2 O 0.7582(2) 0.55259(19) 0.39303(12)
C17_2 C 0.7960(3) 0.5683(3) 0.3802(2)
C18_2 C 0.7967(3) 0.7045(3) 0.46019(16)
N3_2 N 0.6967(3) 0.6967(3) 0.2436(2)
C19_2 C 0.6357(3) 0.6357(3) 0.3250(3)
C20_2 C 0.7063(3) 0.5692(2) 0.32683(18)
C21_2 C 0.6735(3) 0.6735(3) 0.2701(2)
C22_2 C 0.6970(3) 0.6331(4) 0.28420(16)
C23_2 C 0.7989(3) 0.6336(3) 0.42185(18)
C24_2 C 0.8701(4) 0.6971(4) 0.4232(2)
C25_2 C 0.8216(3) 0.6122(3) 0.3968(2)
C26_2 C 0.8706(4) 0.6316(4) 0.3838(2)
C27_2 C 0.8238(3) 0.6770(3) 0.43435(19)
C28_2 C 0.8926(4) 0.6743(4) 0.3973(2)
C29_2 C 0.6780(3) 0.6135(3) 0.31076(19)
O21_2 O 0.8463(3) 0.500 0.29830(17)
O22_2 O 0.6560(3) 0.500 0.40816(18)
N4_2 N 0.9394(4) 0.6949(5) 0.3823(3)
O23_2 O 0.55288(18) 0.7445(2) 0.31367(12)
O24_2 O 0.55364(19) 0.68386(19) 0.35010(12)
C30_2 C 0.5692(2) 0.7063(3) 0.32683(18)
C31_2 C 0.6331(4) 0.6970(3) 0.28420(16)
C32_2 C 0.6135(3) 0.6780(3) 0.31076(19)
O25_2 O 0.8182(2) 0.2556(2) 0.53064(13)
O26_2 O 0.8191(2) 0.44764(19) 0.64220(14)
O27_2 O 0.7575(2) 0.31565(19) 0.53017(12)
O28_2 O 0.7582(2) 0.44741(19) 0.60697(12)
C33_2 C 0.7960(3) 0.4317(3) 0.6198(2)
C34_2 C 0.7967(3) 0.2955(3) 0.53981(16)
C35_2 C 0.7989(3) 0.3664(3) 0.57815(18)
C36_2 C 0.8701(4) 0.3029(4) 0.5768(2)
C37_2 C 0.8216(3) 0.3878(3) 0.6032(2)
C38_2 C 0.8706(4) 0.3684(4) 0.6162(2)
C39_2 C 0.8238(3) 0.3230(3) 0.56565(19)
C40_2 C 0.8926(4) 0.3257(4) 0.6027(2)
N5_2 N 0.9394(4) 0.3051(5) 0.6177(3)
O29_2 O 0.7444(2) 0.1818(2) 0.53064(13)
O30_2 O 0.55236(19) 0.1809(2) 0.64220(14)
O31_2 O 0.68435(19) 0.2425(2) 0.53017(12)
O32_2 O 0.55259(19) 0.2418(2) 0.60697(12)
C41_2 C 0.5683(3) 0.2040(3) 0.6198(2)
C42_2 C 0.7045(3) 0.2033(3) 0.53981(16)
C43_2 C 0.6336(3) 0.2011(3) 0.57815(18)
C44_2 C 0.6971(4) 0.1299(4) 0.5768(2)
C45_2 C 0.6122(3) 0.1784(3) 0.6032(2)
C46_2 C 0.6316(4) 0.1294(4) 0.6162(2)
C47_2 C 0.6770(3) 0.1762(3) 0.56565(19)
C48_2 C 0.6743(4) 0.1074(4) 0.6027(2)
N6_2 N 0.6949(5) 0.0606(4) 0.6177(3)
O33_2 O 0.7461(4) 0.2539(4) 0.3040(2)
O34_2 O 0.8082(5) 0.3082(5) 0.250
Cu8_2 Cu 0.78676(5) 0.78676(5) 0.500
Cu9_2 Cu 0.71529(5) 0.71529(5) 0.500
Cu11_2 Cu 0.500 0.71545(5) 0.37413(3)
Cu12_2 Cu 0.71545(5) 0.500 0.62587(3)
Cu14_2 Cu 0.500 0.78687(5) 0.33255(3)
Cu15_2 Cu 0.78687(5) 0.500 0.66745(3)
O35_2 O 0.8182(2) 0.2556(2) 0.46936(13)
O37_2 O 0.8191(2) 0.44764(19) 0.35780(14)
O38_2 O 0.7575(2) 0.31565(19) 0.46983(12)
O42_2 O 0.7582(2) 0.44741(19) 0.39303(12)
N7_2 N 0.8033(3) 0.1967(3) 0.2564(2)
Cu16_2 Cu 0.750 0.750 0.250
H1_2 H 0.729396 0.111646 0.565869
H2_2 H 0.677177 0.0462893 0.636014
H3_2 H 0.726566 0.0432353 0.609538
H6_2 H 0.618096 0.235991 0.568579
H7_2 H 0.613177 0.111703 0.635362
H31_2 H 0.764009 0.618096 0.431421
H32_2 H 0.953711 0.677177 0.363986
H33_2 H 0.956765 0.726566 0.390462
H34_2 H 0.686042 0.686042 0.222737
H37_2 H 0.620889 0.620889 0.345985
H40_2 H 0.888354 0.729396 0.434131
H41_2 H 0.731036 0.616272 0.274345
H42_2 H 0.616272 0.731036 0.274345
H43_2 H 0.888297 0.613177 0.364638
H44_2 H 0.953711 0.322823 0.636014
H45_2 H 0.956765 0.273434 0.609538
H46_2 H 0.888297 0.386823 0.635362
H47_2 H 0.888354 0.270604 0.565869
H48_2 H 0.764009 0.381904 0.568579
Cu1_2 Cu 0.21324(5) 0.78676(5) 0.500
Cu2_2 Cu 0.28471(5) 0.71529(5) 0.500
O1_2 O 0.2556(2) 0.8182(2) 0.46936(13)
O2_2 O 0.44764(19) 0.8191(2) 0.35780(14)
O3_2 O 0.31565(19) 0.7575(2) 0.46983(12)
O4_2 O 0.44712(18) 0.7445(2) 0.31367(12)
O5_2 O 0.44636(19) 0.68386(19) 0.35010(12)
O6_2 O 0.44741(19) 0.7582(2) 0.39303(12)
C1_2 C 0.4317(3) 0.7960(3) 0.3802(2)
C2_2 C 0.2955(3) 0.7967(3) 0.46019(16)
N1_2 N 0.3033(3) 0.6967(3) 0.2436(2)
C3_2 C 0.3643(3) 0.6357(3) 0.3250(3)
C4_2 C 0.4308(2) 0.7063(3) 0.32683(18)
C5_2 C 0.3265(3) 0.6735(3) 0.2701(2)
C6_2 C 0.3669(4) 0.6970(3) 0.28420(16)
C7_2 C 0.3664(3) 0.7989(3) 0.42185(18)
C8_2 C 0.3029(4) 0.8701(4) 0.4232(2)
C9_2 C 0.3878(3) 0.8216(3) 0.3968(2)
C10_2 C 0.3684(4) 0.8706(4) 0.3838(2)
C11_2 C 0.3230(3) 0.8238(3) 0.43435(19)
C12_2 C 0.3257(4) 0.8926(4) 0.3973(2)
C13_2 C 0.3865(3) 0.6780(3) 0.31076(19)
Cu5_2 Cu 0.250 0.750 0.250
O7_3 O 0.1564(3) 0.8436(3) 0.500
O8_3 O 0.3423(3) 0.6577(3) 0.500
O9_2 O 0.500 0.8463(3) 0.29830(17)
O10_2 O 0.500 0.6560(3) 0.40816(18)
O11_3 O 0.3082(5) 0.8082(5) 0.250
O12_3 O 0.2461(4) 0.7539(4) 0.1960(2)
N2_2 N 0.3051(5) 0.9394(4) 0.3823(3)
C14_2 C 0.2937(3) 0.5692(2) 0.32683(18)
C15_2 C 0.3030(3) 0.6331(4) 0.28420(16)
C16_2 C 0.3220(3) 0.6135(3) 0.31076(19)
O25_3 O 0.1818(2) 0.7444(2) 0.53064(13)
O26_3 O 0.1809(2) 0.55236(19) 0.64220(14)
O27_3 O 0.2425(2) 0.68435(19) 0.53017(12)
O28_3 O 0.2418(2) 0.55259(19) 0.60697(12)
C33_3 C 0.2040(3) 0.5683(3) 0.6198(2)
C34_3 C 0.2033(3) 0.7045(3) 0.53981(16)
C35_3 C 0.2011(3) 0.6336(3) 0.57815(18)
C36_3 C 0.1299(4) 0.6971(4) 0.5768(2)
C37_3 C 0.1784(3) 0.6122(3) 0.6032(2)
C38_3 C 0.1294(4) 0.6316(4) 0.6162(2)
C39_3 C 0.1762(3) 0.6770(3) 0.56565(19)
C40_3 C 0.1074(4) 0.6743(4) 0.6027(2)
N5_3 N 0.0606(4) 0.6949(5) 0.6177(3)
O29_3 O 0.2556(2) 0.8182(2) 0.53064(13)
O30_3 O 0.44764(19) 0.8191(2) 0.64220(14)
O31_3 O 0.31565(19) 0.7575(2) 0.53017(12)
O32_3 O 0.44741(19) 0.7582(2) 0.60697(12)
C41_3 C 0.4317(3) 0.7960(3) 0.6198(2)
C42_3 C 0.2955(3) 0.7967(3) 0.53981(16)
C43_3 C 0.3664(3) 0.7989(3) 0.57815(18)
C44_3 C 0.3029(4) 0.8701(4) 0.5768(2)
C45_3 C 0.3878(3) 0.8216(3) 0.6032(2)
C46_3 C 0.3684(4) 0.8706(4) 0.6162(2)
C47_3 C 0.3230(3) 0.8238(3) 0.56565(19)
C48_3 C 0.3257(4) 0.8926(4) 0.6027(2)
N6_3 N 0.3051(5) 0.9394(4) 0.6177(3)
O33_3 O 0.2539(4) 0.7461(4) 0.3040(2)
O34_3 O 0.1918(5) 0.6918(5) 0.250
Cu10_2 Cu 0.500 0.71545(5) 0.62587(3)
Cu13_2 Cu 0.500 0.78687(5) 0.66745(3)
O35_3 O 0.1818(2) 0.7444(2) 0.46936(13)
O36_2 O 0.55236(19) 0.8191(2) 0.35780(14)
O38_3 O 0.2425(2) 0.68435(19) 0.46983(12)
O41_2 O 0.55259(19) 0.7582(2) 0.39303(12)
N7_3 N 0.1967(3) 0.8033(3) 0.2564(2)
H1_3 H 0.270604 0.888354 0.565869
H2_3 H 0.322823 0.953711 0.636014
H3_3 H 0.273434 0.956765 0.609538
H6_3 H 0.381904 0.764009 0.568579
H7_3 H 0.386823 0.888297 0.635362
H10_2 H 0.383728 0.731036 0.274345
H11_2 H 0.381904 0.764009 0.431421
H16_2 H 0.379111 0.620889 0.345985
H17_2 H 0.386823 0.888297 0.364638
H18_2 H 0.270604 0.888354 0.434131
H21_2 H 0.313958 0.686042 0.222737
H22_2 H 0.322823 0.953711 0.363986
H23_2 H 0.273434 0.956765 0.390462
H30_2 H 0.268964 0.616272 0.274345
H44_3 H 0.0462893 0.677177 0.636014
H45_3 H 0.0432353 0.726566 0.609538
H46_3 H 0.111703 0.613177 0.635362
H47_3 H 0.111646 0.729396 0.565869
H48_3 H 0.235991 0.618096 0.568579
O4_3 O 0.2555(2) 0.55288(18) 0.68633(12)
O5_3 O 0.31614(19) 0.55364(19) 0.64990(12)
N1_3 N 0.3033(3) 0.6967(3) 0.7564(2)
C3_3 C 0.3643(3) 0.6357(3) 0.6750(3)
C4_3 C 0.2937(3) 0.5692(2) 0.67317(18)
C5_3 C 0.3265(3) 0.6735(3) 0.7299(2)
C6_3 C 0.3030(3) 0.6331(4) 0.71580(16)
C13_3 C 0.3220(3) 0.6135(3) 0.68924(19)
Cu5_3 Cu 0.250 0.750 0.750
O9_3 O 0.1537(3) 0.500 0.70170(17)
O10_3 O 0.3440(3) 0.500 0.59184(18)
O11_4 O 0.1918(5) 0.6918(5) 0.750
O12_4 O 0.2461(4) 0.7539(4) 0.8040(2)
O13_2 O 0.44712(18) 0.7445(2) 0.68633(12)
O14_2 O 0.44636(19) 0.68386(19) 0.64990(12)
C14_3 C 0.4308(2) 0.7063(3) 0.67317(18)
C15_3 C 0.3669(4) 0.6970(3) 0.71580(16)
C16_3 C 0.3865(3) 0.6780(3) 0.68924(19)
O15_3 O 0.7444(2) 0.8182(2) 0.53064(13)
O16_3 O 0.55236(19) 0.8191(2) 0.64220(14)
O17_3 O 0.68435(19) 0.7575(2) 0.53017(12)
O18_3 O 0.55288(18) 0.7445(2) 0.68633(12)
O19_3 O 0.55364(19) 0.68386(19) 0.64990(12)
O20_3 O 0.55259(19) 0.7582(2) 0.60697(12)
C17_3 C 0.5683(3) 0.7960(3) 0.6198(2)
C18_3 C 0.7045(3) 0.7967(3) 0.53981(16)
N3_3 N 0.6967(3) 0.6967(3) 0.7564(2)
C19_3 C 0.6357(3) 0.6357(3) 0.6750(3)
C20_3 C 0.5692(2) 0.7063(3) 0.67317(18)
C21_3 C 0.6735(3) 0.6735(3) 0.7299(2)
C22_3 C 0.6331(4) 0.6970(3) 0.71580(16)
C23_3 C 0.6336(3) 0.7989(3) 0.57815(18)
C24_3 C 0.6971(4) 0.8701(4) 0.5768(2)
C25_3 C 0.6122(3) 0.8216(3) 0.6032(2)
C26_3 C 0.6316(4) 0.8706(4) 0.6162(2)
C27_3 C 0.6770(3) 0.8238(3) 0.56565(19)
C28_3 C 0.6743(4) 0.8926(4) 0.6027(2)
C29_3 C 0.6135(3) 0.6780(3) 0.68924(19)
O21_3 O 0.500 0.8463(3) 0.70170(17)
O22_3 O 0.500 0.6560(3) 0.59184(18)
N4_3 N 0.6949(5) 0.9394(4) 0.6177(3)
O23_3 O 0.7445(2) 0.55288(18) 0.68633(12)
O24_3 O 0.68386(19) 0.55364(19) 0.64990(12)
C30_3 C 0.7063(3) 0.5692(2) 0.67317(18)
C31_3 C 0.6970(3) 0.6331(4) 0.71580(16)
C32_3 C 0.6780(3) 0.6135(3) 0.68924(19)
C41_4 C 0.2040(3) 0.5683(3) 0.3802(2)
C42_4 C 0.2033(3) 0.7045(3) 0.46019(16)
C43_4 C 0.2011(3) 0.6336(3) 0.42185(18)
C44_4 C 0.1299(4) 0.6971(4) 0.4232(2)
C45_4 C 0.1784(3) 0.6122(3) 0.3968(2)
C46_4 C 0.1294(4) 0.6316(4) 0.3838(2)
C47_4 C 0.1762(3) 0.6770(3) 0.43435(19)
C48_4 C 0.1074(4) 0.6743(4) 0.3973(2)
N6_4 N 0.0606(4) 0.6949(5) 0.3823(3)
O33_4 O 0.2539(4) 0.7461(4) 0.6960(2)
O34_4 O 0.3082(5) 0.8082(5) 0.750
O39_2 O 0.2555(2) 0.44712(18) 0.68633(12)
O40_2 O 0.31614(19) 0.44636(19) 0.64990(12)
N7_4 N 0.1967(3) 0.8033(3) 0.7436(2)
Cu16_3 Cu 0.750 0.750 0.750
H1_4 H 0.111646 0.729396 0.434131
H2_4 H 0.0462893 0.677177 0.363986
H3_4 H 0.0432353 0.726566 0.390462
H6_4 H 0.235991 0.618096 0.431421
H7_4 H 0.111703 0.613177 0.364638
H10_3 H 0.268964 0.616272 0.725655
H16_3 H 0.379111 0.620889 0.654015
H21_3 H 0.313958 0.686042 0.777263
H30_3 H 0.383728 0.731036 0.725655
H31_3 H 0.618096 0.764009 0.568579
H32_3 H 0.677177 0.953711 0.636014
H33_3 H 0.726566 0.956765 0.609538
H34_3 H 0.686042 0.686042 0.777263
H37_3 H 0.620889 0.620889 0.654015
H40_3 H 0.729396 0.888354 0.565869
H41_3 H 0.616272 0.731036 0.725655
H42_3 H 0.731036 0.616272 0.725655
H43_3 H 0.613177 0.888297 0.635362
O4_4 O 0.7445(2) 0.44712(18) 0.68633(12)
O5_4 O 0.68386(19) 0.44636(19) 0.64990(12)
N1_4 N 0.6967(3) 0.3033(3) 0.7564(2)
C3_4 C 0.6357(3) 0.3643(3) 0.6750(3)
C4_4 C 0.7063(3) 0.4308(2) 0.67317(18)
C5_4 C 0.6735(3) 0.3265(3) 0.7299(2)
C6_4 C 0.6970(3) 0.3669(4) 0.71580(16)
C13_4 C 0.6780(3) 0.3865(3) 0.68924(19)
Cu5_4 Cu 0.750 0.250 0.750
O9_4 O 0.8463(3) 0.500 0.70170(17)
O10_4 O 0.6560(3) 0.500 0.59184(18)
O11_5 O 0.8082(5) 0.3082(5) 0.750
O12_5 O 0.7539(4) 0.2461(4) 0.8040(2)
O13_3 O 0.55288(18) 0.2555(2) 0.68633(12)
O14_3 O 0.55364(19) 0.31614(19) 0.64990(12)
C14_4 C 0.5692(2) 0.2937(3) 0.67317(18)
C15_4 C 0.6331(4) 0.3030(3) 0.71580(16)
C16_4 C 0.6135(3) 0.3220(3) 0.68924(19)
O18_4 O 0.44712(18) 0.2555(2) 0.68633(12)
O19_4 O 0.44636(19) 0.31614(19) 0.64990(12)
N3_4 N 0.3033(3) 0.3033(3) 0.7564(2)
C19_4 C 0.3643(3) 0.3643(3) 0.6750(3)
C20_4 C 0.4308(2) 0.2937(3) 0.67317(18)
C21_4 C 0.3265(3) 0.3265(3) 0.7299(2)
C22_4 C 0.3669(4) 0.3030(3) 0.71580(16)
C29_4 C 0.3865(3) 0.3220(3) 0.68924(19)
O21_4 O 0.500 0.1537(3) 0.70170(17)
O22_4 O 0.500 0.3440(3) 0.59184(18)
C30_4 C 0.2937(3) 0.4308(2) 0.67317(18)
C31_4 C 0.3030(3) 0.3669(4) 0.71580(16)
C32_4 C 0.3220(3) 0.3865(3) 0.68924(19)
C41_5 C 0.7960(3) 0.4317(3) 0.3802(2)
C42_5 C 0.7967(3) 0.2955(3) 0.46019(16)
C43_5 C 0.7989(3) 0.3664(3) 0.42185(18)
C44_5 C 0.8701(4) 0.3029(4) 0.4232(2)
C45_5 C 0.8216(3) 0.3878(3) 0.3968(2)
C46_5 C 0.8706(4) 0.3684(4) 0.3838(2)
C47_5 C 0.8238(3) 0.3230(3) 0.43435(19)
C48_5 C 0.8926(4) 0.3257(4) 0.3973(2)
N6_5 N 0.9394(4) 0.3051(5) 0.3823(3)
O33_5 O 0.7461(4) 0.2539(4) 0.6960(2)
O34_5 O 0.6918(5) 0.1918(5) 0.750
O36_3 O 0.8191(2) 0.55236(19) 0.64220(14)
O41_3 O 0.7582(2) 0.55259(19) 0.60697(12)
N7_5 N 0.8033(3) 0.1967(3) 0.7436(2)
Cu16_4 Cu 0.250 0.250 0.750
H1_5 H 0.888354 0.270604 0.434131
H2_5 H 0.953711 0.322823 0.363986
H3_5 H 0.956765 0.273434 0.390462
H6_5 H 0.764009 0.381904 0.431421
H7_5 H 0.888297 0.386823 0.364638
H10_4 H 0.731036 0.383728 0.725655
H16_4 H 0.620889 0.379111 0.654015
H21_4 H 0.686042 0.313958 0.777263
H30_4 H 0.616272 0.268964 0.725655
H34_4 H 0.313958 0.313958 0.777263
H37_4 H 0.379111 0.379111 0.654015
H41_4 H 0.383728 0.268964 0.725655
H42_4 H 0.268964 0.383728 0.725655
O7_4 O 0.8436(3) 0.8436(3) 0.500
O8_4 O 0.6577(3) 0.6577(3) 0.500
O11_6 O 0.8082(5) 0.6918(5) 0.250
O12_6 O 0.7539(4) 0.7539(4) 0.1960(2)
O29_4 O 0.8182(2) 0.7444(2) 0.53064(13)
O31_4 O 0.7575(2) 0.68435(19) 0.53017(12)
C41_6 C 0.7960(3) 0.5683(3) 0.6198(2)
C42_6 C 0.7967(3) 0.7045(3) 0.53981(16)
C43_6 C 0.7989(3) 0.6336(3) 0.57815(18)
C44_6 C 0.8701(4) 0.6971(4) 0.5768(2)
C45_6 C 0.8216(3) 0.6122(3) 0.6032(2)
C46_6 C 0.8706(4) 0.6316(4) 0.6162(2)
C47_6 C 0.8238(3) 0.6770(3) 0.56565(19)
C48_6 C 0.8926(4) 0.6743(4) 0.6027(2)
N6_6 N 0.9394(4) 0.6949(5) 0.6177(3)
O33_6 O 0.7461(4) 0.7461(4) 0.3040(2)
O34_6 O 0.6918(5) 0.8082(5) 0.250
O35_4 O 0.7444(2) 0.8182(2) 0.46936(13)
O38_4 O 0.68435(19) 0.7575(2) 0.46983(12)
N7_6 N 0.8033(3) 0.8033(3) 0.2564(2)
H1_6 H 0.888354 0.729396 0.565869
H2_6 H 0.953711 0.677177 0.636014
H3_6 H 0.956765 0.726566 0.609538
H6_6 H 0.764009 0.618096 0.568579
H7_6 H 0.888297 0.613177 0.635362
O11_7 O 0.3082(5) 0.1918(5) 0.750
O12_7 O 0.2461(4) 0.2461(4) 0.8040(2)
C41_7 C 0.4317(3) 0.2040(3) 0.3802(2)
C42_7 C 0.2955(3) 0.2033(3) 0.46019(16)
C43_7 C 0.3664(3) 0.2011(3) 0.42185(18)
C44_7 C 0.3029(4) 0.1299(4) 0.4232(2)
C45_7 C 0.3878(3) 0.1784(3) 0.3968(2)
C46_7 C 0.3684(4) 0.1294(4) 0.3838(2)
C47_7 C 0.3230(3) 0.1762(3) 0.43435(19)
C48_7 C 0.3257(4) 0.1074(4) 0.3973(2)
N6_7 N 0.3051(5) 0.0606(4) 0.3823(3)
O33_7 O 0.2539(4) 0.2539(4) 0.6960(2)
O34_7 O 0.1918(5) 0.3082(5) 0.750
N7_7 N 0.1967(3) 0.1967(3) 0.7436(2)
H1_7 H 0.270604 0.111646 0.434131
H2_7 H 0.322823 0.0462893 0.363986
H3_7 H 0.273434 0.0432353 0.390462
H6_7 H 0.381904 0.235991 0.431421
H7_7 H 0.386823 0.111703 0.364638
O11_8 O 0.6918(5) 0.8082(5) 0.750
O12_8 O 0.7539(4) 0.7539(4) 0.8040(2)
C41_8 C 0.5683(3) 0.7960(3) 0.3802(2)
C42_8 C 0.7045(3) 0.7967(3) 0.46019(16)
C43_8 C 0.6336(3) 0.7989(3) 0.42185(18)
C44_8 C 0.6971(4) 0.8701(4) 0.4232(2)
C45_8 C 0.6122(3) 0.8216(3) 0.3968(2)
C46_8 C 0.6316(4) 0.8706(4) 0.3838(2)
C47_8 C 0.6770(3) 0.8238(3) 0.43435(19)
C48_8 C 0.6743(4) 0.8926(4) 0.3973(2)
N6_8 N 0.6949(5) 0.9394(4) 0.3823(3)
O33_8 O 0.7461(4) 0.7461(4) 0.6960(2)
O34_8 O 0.8082(5) 0.6918(5) 0.750
N7_8 N 0.8033(3) 0.8033(3) 0.7436(2)
H1_8 H 0.729396 0.888354 0.434131
H2_8 H 0.677177 0.953711 0.363986
H3_8 H 0.726566 0.956765 0.390462
H6_8 H 0.618096 0.764009 0.431421
H7_8 H 0.613177 0.888297 0.364638
Cu11_3 Cu 0.21545(5) -0.000 0.87413(3)
Cu14_3 Cu 0.28687(5) -0.000 0.83255(3)
Cu8_3 Cu 0.28676(5) 0.71324(5) 0.000
Cu9_3 Cu 0.21529(5) 0.78471(5) 0.000
Cu12_3 Cu -0.000 0.78455(5) 0.12587(3)
Cu15_3 Cu -0.000 0.71313(5) 0.16745(3)
Cu6_2 Cu -0.000 0.78455(5) 0.87413(3)
Cu7_2 Cu -0.000 0.71313(5) 0.83255(3)
O15_4 O 0.2444(2) 0.6818(2) 0.96936(13)
O16_4 O 0.05236(19) 0.6809(2) 0.85780(14)
O17_4 O 0.18435(19) 0.7425(2) 0.96983(12)
O18_5 O 0.05288(18) 0.7555(2) 0.81367(12)
O19_5 O 0.05364(19) 0.81614(19) 0.85010(12)
O20_4 O 0.05259(19) 0.7418(2) 0.89303(12)
C17_4 C 0.0683(3) 0.7040(3) 0.8802(2)
C18_4 C 0.2045(3) 0.7033(3) 0.96019(16)
C19_5 C 0.1357(3) 0.8643(3) 0.8250(3)
C20_5 C 0.0692(2) 0.7937(3) 0.82683(18)
C21_5 C 0.1735(3) 0.8265(3) 0.7701(2)
C22_5 C 0.1331(4) 0.8030(3) 0.78420(16)
C23_4 C 0.1336(3) 0.7011(3) 0.92185(18)
C24_4 C 0.1971(4) 0.6299(4) 0.9232(2)
C25_4 C 0.1122(3) 0.6784(3) 0.8968(2)
C26_4 C 0.1316(4) 0.6294(4) 0.8838(2)
C27_4 C 0.1770(3) 0.6762(3) 0.93435(19)
C28_4 C 0.1743(4) 0.6074(4) 0.8973(2)
C29_5 C 0.1135(3) 0.8220(3) 0.81076(19)
O21_5 O -0.000 0.6537(3) 0.79830(17)
O22_5 O -0.000 0.8440(3) 0.90816(18)
N4_4 N 0.1949(5) 0.5606(4) 0.8823(3)
O23_4 O 0.2445(2) 0.94712(18) 0.81367(12)
O24_4 O 0.18386(19) 0.94636(19) 0.85010(12)
C30_5 C 0.2063(3) 0.9308(2) 0.82683(18)
C31_5 C 0.1970(3) 0.8669(4) 0.78420(16)
C32_5 C 0.1780(3) 0.8865(3) 0.81076(19)
Cu8_4 Cu 0.28676(5) 0.71324(5) 1.000
Cu9_4 Cu 0.21529(5) 0.78471(5) 1.000
Cu11_4 Cu 0.21545(5) 1.000 0.87413(3)
Cu14_4 Cu 0.28687(5) 1.000 0.83255(3)
H31_4 H 0.118096 0.735991 0.931421
H32_4 H 0.177177 0.546289 0.863986
H33_4 H 0.226566 0.543235 0.890462
H34_5 H 0.186042 0.813958 0.722737
H37_5 H 0.120889 0.879111 0.845985
H40_4 H 0.229396 0.611646 0.934131
H41_5 H 0.116272 0.768964 0.774345
H42_5 H 0.231036 0.883728 0.774345
H43_4 H 0.113177 0.611703 0.864638
Cu10_3 Cu 0.78455(5) -0.000 0.12587(3)
Cu13_3 Cu 0.71313(5) -0.000 0.16745(3)
Cu3_2 Cu 0.78455(5) -0.000 0.87413(3)
Cu4_2 Cu 0.71313(5) -0.000 0.83255(3)
O9_5 O 0.6537(3) -0.000 0.79830(17)
O10_5 O 0.8440(3) -0.000 0.90816(18)
O36_4 O 0.6809(2) 0.05236(19) 0.85780(14)
O39_3 O 0.7555(2) 0.05288(18) 0.81367(12)
O40_3 O 0.81614(19) 0.05364(19) 0.85010(12)
O41_4 O 0.7418(2) 0.05259(19) 0.89303(12)
Cu1_3 Cu 0.71324(5) 0.71324(5) 0.000
Cu2_3 Cu 0.78471(5) 0.78471(5) 0.000
O7_5 O 0.6564(3) 0.6564(3) 0.000
O8_5 O 0.8423(3) 0.8423(3) 0.000
O25_4 O 0.7556(2) 0.6818(2) 0.03064(13)
O26_4 O 0.94764(19) 0.6809(2) 0.14220(14)
O27_4 O 0.81565(19) 0.7425(2) 0.03017(12)
O28_4 O 0.94741(19) 0.7418(2) 0.10697(12)
C33_4 C 0.9317(3) 0.7040(3) 0.1198(2)
C34_4 C 0.7955(3) 0.7033(3) 0.03981(16)
C35_4 C 0.8664(3) 0.7011(3) 0.07815(18)
C36_4 C 0.8029(4) 0.6299(4) 0.0768(2)
C37_4 C 0.8878(3) 0.6784(3) 0.1032(2)
C38_4 C 0.8684(4) 0.6294(4) 0.1162(2)
C39_4 C 0.8230(3) 0.6762(3) 0.06565(19)
C40_4 C 0.8257(4) 0.6074(4) 0.1027(2)
N5_4 N 0.8051(5) 0.5606(4) 0.1177(3)
O29_5 O 0.6818(2) 0.7556(2) 0.03064(13)
O30_4 O 0.6809(2) 0.94764(19) 0.14220(14)
O31_5 O 0.7425(2) 0.81565(19) 0.03017(12)
O32_4 O 0.7418(2) 0.94741(19) 0.10697(12)
C41_9 C 0.7040(3) 0.9317(3) 0.1198(2)
C42_9 C 0.7033(3) 0.7955(3) 0.03981(16)
C43_9 C 0.7011(3) 0.8664(3) 0.07815(18)
C44_9 C 0.6299(4) 0.8029(4) 0.0768(2)
C45_9 C 0.6784(3) 0.8878(3) 0.1032(2)
C46_9 C 0.6294(4) 0.8684(4) 0.1162(2)
C47_9 C 0.6762(3) 0.8230(3) 0.06565(19)
C48_9 C 0.6074(4) 0.8257(4) 0.1027(2)
N6_9 N 0.5606(4) 0.8051(5) 0.1177(3)
Cu10_4 Cu 0.78455(5) 1.000 0.12587(3)
Cu12_4 Cu 1.000 0.78455(5) 0.12587(3)
Cu13_4 Cu 0.71313(5) 1.000 0.16745(3)
Cu15_4 Cu 1.000 0.71313(5) 0.16745(3)
H1_9 H 0.611646 0.770604 0.0658689
H2_9 H 0.546289 0.822823 0.136014
H3_9 H 0.543235 0.773434 0.109538
H6_9 H 0.735991 0.881904 0.0685787
H7_9 H 0.611703 0.886823 0.135362
H44_4 H 0.822823 0.546289 0.136014
H45_4 H 0.773434 0.543235 0.109538
H46_4 H 0.886823 0.611703 0.135362
H47_4 H 0.770604 0.611646 0.0658689
H48_4 H 0.881904 0.735991 0.0685787
Cu1_4 Cu 0.71324(5) 0.71324(5) 1.000
Cu2_4 Cu 0.78471(5) 0.78471(5) 1.000
Cu3_3 Cu 0.78455(5) 1.000 0.87413(3)
Cu4_3 Cu 0.71313(5) 1.000 0.83255(3)
O1_3 O 0.6818(2) 0.7556(2) 0.96936(13)
O2_3 O 0.6809(2) 0.94764(19) 0.85780(14)
O3_3 O 0.7425(2) 0.81565(19) 0.96983(12)
O4_5 O 0.7555(2) 0.94712(18) 0.81367(12)
O5_5 O 0.81614(19) 0.94636(19) 0.85010(12)
O6_3 O 0.7418(2) 0.94741(19) 0.89303(12)
C1_3 C 0.7040(3) 0.9317(3) 0.8802(2)
C2_3 C 0.7033(3) 0.7955(3) 0.96019(16)
C3_5 C 0.8643(3) 0.8643(3) 0.8250(3)
C4_5 C 0.7937(3) 0.9308(2) 0.82683(18)
C5_5 C 0.8265(3) 0.8265(3) 0.7701(2)
C6_5 C 0.8030(3) 0.8669(4) 0.78420(16)
C7_3 C 0.7011(3) 0.8664(3) 0.92185(18)
C8_3 C 0.6299(4) 0.8029(4) 0.9232(2)
C9_3 C 0.6784(3) 0.8878(3) 0.8968(2)
C10_3 C 0.6294(4) 0.8684(4) 0.8838(2)
C11_3 C 0.6762(3) 0.8230(3) 0.93435(19)
C12_3 C 0.6074(4) 0.8257(4) 0.8973(2)
C13_5 C 0.8220(3) 0.8865(3) 0.81076(19)
O7_6 O 0.6564(3) 0.6564(3) 1.000
O8_6 O 0.8423(3) 0.8423(3) 1.000
O9_6 O 0.6537(3) 1.000 0.79830(17)
O10_6 O 0.8440(3) 1.000 0.90816(18)
N2_3 N 0.5606(4) 0.8051(5) 0.8823(3)
O13_4 O 0.94712(18) 0.7555(2) 0.81367(12)
O14_4 O 0.94636(19) 0.81614(19) 0.85010(12)
C14_5 C 0.9308(2) 0.7937(3) 0.82683(18)
C15_5 C 0.8669(4) 0.8030(3) 0.78420(16)
C16_5 C 0.8865(3) 0.8220(3) 0.81076(19)
Cu6_3 Cu 1.000 0.78455(5) 0.87413(3)
Cu7_3 Cu 1.000 0.71313(5) 0.83255(3)
O21_6 O 1.000 0.6537(3) 0.79830(17)
O22_6 O 1.000 0.8440(3) 0.90816(18)
O35_5 O 0.7556(2) 0.6818(2) 0.96936(13)
O37_3 O 0.94764(19) 0.6809(2) 0.85780(14)
O38_5 O 0.81565(19) 0.7425(2) 0.96983(12)
O42_3 O 0.94741(19) 0.7418(2) 0.89303(12)
H10_5 H 0.768964 0.883728 0.774345
H11_3 H 0.735991 0.881904 0.931421
H16_5 H 0.879111 0.879111 0.845985
H17_3 H 0.611703 0.886823 0.864638
H18_3 H 0.611646 0.770604 0.934131
H21_5 H 0.813958 0.813958 0.722737
H22_3 H 0.546289 0.822823 0.863986
H23_3 H 0.543235 0.773434 0.890462
H30_5 H 0.883728 0.768964 0.774345
Cu8_5 Cu 0.28676(5) 0.28676(5) 0.000
Cu9_5 Cu 0.21529(5) 0.21529(5) 0.000
Cu12_5 Cu 0.21545(5) -0.000 0.12587(3)
Cu15_5 Cu 0.28687(5) -0.000 0.16745(3)
O15_5 O 0.3182(2) 0.2444(2) 0.96936(13)
O16_5 O 0.3191(2) 0.05236(19) 0.85780(14)
O17_5 O 0.2575(2) 0.18435(19) 0.96983(12)
O18_6 O 0.2445(2) 0.05288(18) 0.81367(12)
O19_6 O 0.18386(19) 0.05364(19) 0.85010(12)
O20_5 O 0.2582(2) 0.05259(19) 0.89303(12)
C17_5 C 0.2960(3) 0.0683(3) 0.8802(2)
C18_5 C 0.2967(3) 0.2045(3) 0.96019(16)
C19_6 C 0.1357(3) 0.1357(3) 0.8250(3)
C20_6 C 0.2063(3) 0.0692(2) 0.82683(18)
C21_6 C 0.1735(3) 0.1735(3) 0.7701(2)
C22_6 C 0.1970(3) 0.1331(4) 0.78420(16)
C23_5 C 0.2989(3) 0.1336(3) 0.92185(18)
C24_5 C 0.3701(4) 0.1971(4) 0.9232(2)
C25_5 C 0.3216(3) 0.1122(3) 0.8968(2)
C26_5 C 0.3706(4) 0.1316(4) 0.8838(2)
C27_5 C 0.3238(3) 0.1770(3) 0.93435(19)
C28_5 C 0.3926(4) 0.1743(4) 0.8973(2)
C29_6 C 0.1780(3) 0.1135(3) 0.81076(19)
O21_7 O 0.3463(3) -0.000 0.79830(17)
O22_7 O 0.1560(3) -0.000 0.90816(18)
N4_5 N 0.4394(4) 0.1949(5) 0.8823(3)
O23_5 O 0.05288(18) 0.2445(2) 0.81367(12)
O24_5 O 0.05364(19) 0.18386(19) 0.85010(12)
C30_6 C 0.0692(2) 0.2063(3) 0.82683(18)
C31_6 C 0.1331(4) 0.1970(3) 0.78420(16)
C32_6 C 0.1135(3) 0.1780(3) 0.81076(19)
Cu8_6 Cu 0.28676(5) 0.28676(5) 1.000
Cu9_6 Cu 0.21529(5) 0.21529(5) 1.000
Cu11_5 Cu 0.000 0.21545(5) 0.87413(3)
Cu14_5 Cu 0.000 0.28687(5) 0.83255(3)
H31_5 H 0.264009 0.118096 0.931421
H32_5 H 0.453711 0.177177 0.863986
H33_5 H 0.456765 0.226566 0.890462
H34_6 H 0.186042 0.186042 0.722737
H37_6 H 0.120889 0.120889 0.845985
H40_5 H 0.388354 0.229396 0.934131
H41_6 H 0.231036 0.116272 0.774345
H42_6 H 0.116272 0.231036 0.774345
H43_5 H 0.388297 0.113177 0.864638
O7_7 O 0.3436(3) 0.6564(3) 0.000
O8_7 O 0.1577(3) 0.8423(3) 0.000
O25_5 O 0.3182(2) 0.7556(2) 0.03064(13)
O26_5 O 0.3191(2) 0.94764(19) 0.14220(14)
O27_5 O 0.2575(2) 0.81565(19) 0.03017(12)
O28_5 O 0.2582(2) 0.94741(19) 0.10697(12)
C33_5 C 0.2960(3) 0.9317(3) 0.1198(2)
C34_5 C 0.2967(3) 0.7955(3) 0.03981(16)
C35_5 C 0.2989(3) 0.8664(3) 0.07815(18)
C36_5 C 0.3701(4) 0.8029(4) 0.0768(2)
C37_5 C 0.3216(3) 0.8878(3) 0.1032(2)
C38_5 C 0.3706(4) 0.8684(4) 0.1162(2)
C39_5 C 0.3238(3) 0.8230(3) 0.06565(19)
C40_5 C 0.3926(4) 0.8257(4) 0.1027(2)
N5_5 N 0.4394(4) 0.8051(5) 0.1177(3)
O29_6 O 0.2444(2) 0.6818(2) 0.03064(13)
O30_5 O 0.05236(19) 0.6809(2) 0.14220(14)
O31_6 O 0.18435(19) 0.7425(2) 0.03017(12)
O32_5 O 0.05259(19) 0.7418(2) 0.10697(12)
C41_10 C 0.0683(3) 0.7040(3) 0.1198(2)
C42_10 C 0.2045(3) 0.7033(3) 0.03981(16)
C43_10 C 0.1336(3) 0.7011(3) 0.07815(18)
C44_10 C 0.1971(4) 0.6299(4) 0.0768(2)
C45_10 C 0.1122(3) 0.6784(3) 0.1032(2)
C46_10 C 0.1316(4) 0.6294(4) 0.1162(2)
C47_10 C 0.1770(3) 0.6762(3) 0.06565(19)
C48_10 C 0.1743(4) 0.6074(4) 0.1027(2)
N6_10 N 0.1949(5) 0.5606(4) 0.1177(3)
Cu12_6 Cu 0.21545(5) 1.000 0.12587(3)
Cu15_6 Cu 0.28687(5) 1.000 0.16745(3)
H1_10 H 0.229396 0.611646 0.0658689
H2_10 H 0.177177 0.546289 0.136014
H3_10 H 0.226566 0.543235 0.109538
H6_10 H 0.118096 0.735991 0.0685787
H7_10 H 0.113177 0.611703 0.135362
H44_5 H 0.453711 0.822823 0.136014
H45_5 H 0.456765 0.773434 0.109538
H46_5 H 0.388297 0.886823 0.135362
H47_5 H 0.388354 0.770604 0.0658689
H48_5 H 0.264009 0.881904 0.0685787
O7_8 O 0.3436(3) 0.6564(3) 1.000
O8_8 O 0.1577(3) 0.8423(3) 1.000
O21_8 O 0.3463(3) 1.000 0.79830(17)
O22_8 O 0.1560(3) 1.000 0.90816(18)
O35_6 O 0.3182(2) 0.7556(2) 0.96936(13)
O37_4 O 0.3191(2) 0.94764(19) 0.85780(14)
O38_6 O 0.2575(2) 0.81565(19) 0.96983(12)
O42_4 O 0.2582(2) 0.94741(19) 0.89303(12)
Cu11_6 Cu 1.000 0.21545(5) 0.87413(3)
Cu14_6 Cu 1.000 0.28687(5) 0.83255(3)
Cu10_5 Cu -0.000 0.21545(5) 0.12587(3)
Cu13_5 Cu -0.000 0.28687(5) 0.16745(3)
O9_7 O -0.000 0.3463(3) 0.79830(17)
O10_7 O -0.000 0.1560(3) 0.90816(18)
O36_5 O 0.05236(19) 0.3191(2) 0.85780(14)
O41_5 O 0.05259(19) 0.2582(2) 0.89303(12)
Cu1_5 Cu 0.71324(5) 0.28676(5) 0.000
Cu2_5 Cu 0.78471(5) 0.21529(5) 0.000
O7_9 O 0.6564(3) 0.3436(3) 0.000
O8_9 O 0.8423(3) 0.1577(3) 0.000
O25_6 O 0.6818(2) 0.2444(2) 0.03064(13)
O26_6 O 0.6809(2) 0.05236(19) 0.14220(14)
O27_6 O 0.7425(2) 0.18435(19) 0.03017(12)
O28_6 O 0.7418(2) 0.05259(19) 0.10697(12)
C33_6 C 0.7040(3) 0.0683(3) 0.1198(2)
C34_6 C 0.7033(3) 0.2045(3) 0.03981(16)
C35_6 C 0.7011(3) 0.1336(3) 0.07815(18)
C36_6 C 0.6299(4) 0.1971(4) 0.0768(2)
C37_6 C 0.6784(3) 0.1122(3) 0.1032(2)
C38_6 C 0.6294(4) 0.1316(4) 0.1162(2)
C39_6 C 0.6762(3) 0.1770(3) 0.06565(19)
C40_6 C 0.6074(4) 0.1743(4) 0.1027(2)
N5_6 N 0.5606(4) 0.1949(5) 0.1177(3)
O29_7 O 0.7556(2) 0.3182(2) 0.03064(13)
O30_6 O 0.94764(19) 0.3191(2) 0.14220(14)
O31_7 O 0.81565(19) 0.2575(2) 0.03017(12)
O32_6 O 0.94741(19) 0.2582(2) 0.10697(12)
C41_11 C 0.9317(3) 0.2960(3) 0.1198(2)
C42_11 C 0.7955(3) 0.2967(3) 0.03981(16)
C43_11 C 0.8664(3) 0.2989(3) 0.07815(18)
C44_11 C 0.8029(4) 0.3701(4) 0.0768(2)
C45_11 C 0.8878(3) 0.3216(3) 0.1032(2)
C46_11 C 0.8684(4) 0.3706(4) 0.1162(2)
C47_11 C 0.8230(3) 0.3238(3) 0.06565(19)
C48_11 C 0.8257(4) 0.3926(4) 0.1027(2)
N6_11 N 0.8051(5) 0.4394(4) 0.1177(3)
Cu10_6 Cu 1.000 0.21545(5) 0.12587(3)
Cu13_6 Cu 1.000 0.28687(5) 0.16745(3)
H1_11 H 0.770604 0.388354 0.0658689
H2_11 H 0.822823 0.453711 0.136014
H3_11 H 0.773434 0.456765 0.109538
H6_11 H 0.881904 0.264009 0.0685787
H7_11 H 0.886823 0.388297 0.135362
H44_6 H 0.546289 0.177177 0.136014
H45_6 H 0.543235 0.226566 0.109538
H46_6 H 0.611703 0.113177 0.135362
H47_6 H 0.611646 0.229396 0.0658689
H48_6 H 0.735991 0.118096 0.0685787
Cu1_6 Cu 0.71324(5) 0.28676(5) 1.000
Cu2_6 Cu 0.78471(5) 0.21529(5) 1.000
O1_4 O 0.7556(2) 0.3182(2) 0.96936(13)
O2_4 O 0.94764(19) 0.3191(2) 0.85780(14)
O3_4 O 0.81565(19) 0.2575(2) 0.96983(12)
O4_6 O 0.94712(18) 0.2445(2) 0.81367(12)
O5_6 O 0.94636(19) 0.18386(19) 0.85010(12)
O6_4 O 0.94741(19) 0.2582(2) 0.89303(12)
C1_4 C 0.9317(3) 0.2960(3) 0.8802(2)
C2_4 C 0.7955(3) 0.2967(3) 0.96019(16)
C3_6 C 0.8643(3) 0.1357(3) 0.8250(3)
C4_6 C 0.9308(2) 0.2063(3) 0.82683(18)
C5_6 C 0.8265(3) 0.1735(3) 0.7701(2)
C6_6 C 0.8669(4) 0.1970(3) 0.78420(16)
C7_4 C 0.8664(3) 0.2989(3) 0.92185(18)
C8_4 C 0.8029(4) 0.3701(4) 0.9232(2)
C9_4 C 0.8878(3) 0.3216(3) 0.8968(2)
C10_4 C 0.8684(4) 0.3706(4) 0.8838(2)
C11_4 C 0.8230(3) 0.3238(3) 0.93435(19)
C12_4 C 0.8257(4) 0.3926(4) 0.8973(2)
C13_6 C 0.8865(3) 0.1780(3) 0.81076(19)
O7_10 O 0.6564(3) 0.3436(3) 1.000
O8_10 O 0.8423(3) 0.1577(3) 1.000
O9_8 O 1.000 0.3463(3) 0.79830(17)
O10_8 O 1.000 0.1560(3) 0.90816(18)
N2_4 N 0.8051(5) 0.4394(4) 0.8823(3)
C14_6 C 0.7937(3) 0.0692(2) 0.82683(18)
C15_6 C 0.8030(3) 0.1331(4) 0.78420(16)
C16_6 C 0.8220(3) 0.1135(3) 0.81076(19)
O35_7 O 0.6818(2) 0.2444(2) 0.96936(13)
O38_7 O 0.7425(2) 0.18435(19) 0.96983(12)
H10_6 H 0.883728 0.231036 0.774345
H11_4 H 0.881904 0.264009 0.931421
H16_6 H 0.879111 0.120889 0.845985
H17_4 H 0.886823 0.388297 0.864638
H18_4 H 0.770604 0.388354 0.934131
H21_6 H 0.813958 0.186042 0.722737
H22_4 H 0.822823 0.453711 0.863986
H23_4 H 0.773434 0.456765 0.890462
H30_6 H 0.768964 0.116272 0.774345
O15_6 O 0.2444(2) 0.3182(2) 0.03064(13)
O16_6 O 0.05236(19) 0.3191(2) 0.14220(14)
O17_6 O 0.18435(19) 0.2575(2) 0.03017(12)
O18_7 O 0.05288(18) 0.2445(2) 0.18633(12)
O19_7 O 0.05364(19) 0.18386(19) 0.14990(12)
O20_6 O 0.05259(19) 0.2582(2) 0.10697(12)
C17_6 C 0.0683(3) 0.2960(3) 0.1198(2)
C18_6 C 0.2045(3) 0.2967(3) 0.03981(16)
C19_7 C 0.1357(3) 0.1357(3) 0.1750(3)
C20_7 C 0.0692(2) 0.2063(3) 0.17317(18)
C21_7 C 0.1735(3) 0.1735(3) 0.2299(2)
C22_7 C 0.1331(4) 0.1970(3) 0.21580(16)
C23_6 C 0.1336(3) 0.2989(3) 0.07815(18)
C24_6 C 0.1971(4) 0.3701(4) 0.0768(2)
C25_6 C 0.1122(3) 0.3216(3) 0.1032(2)
C26_6 C 0.1316(4) 0.3706(4) 0.1162(2)
C27_6 C 0.1770(3) 0.3238(3) 0.06565(19)
C28_6 C 0.1743(4) 0.3926(4) 0.1027(2)
C29_7 C 0.1135(3) 0.1780(3) 0.18924(19)
O21_9 O -0.000 0.3463(3) 0.20170(17)
O22_9 O -0.000 0.1560(3) 0.09184(18)
N4_6 N 0.1949(5) 0.4394(4) 0.1177(3)
O23_6 O 0.2445(2) 0.05288(18) 0.18633(12)
O24_6 O 0.18386(19) 0.05364(19) 0.14990(12)
C30_7 C 0.2063(3) 0.0692(2) 0.17317(18)
C31_7 C 0.1970(3) 0.1331(4) 0.21580(16)
C32_7 C 0.1780(3) 0.1135(3) 0.18924(19)
H31_6 H 0.118096 0.264009 0.0685787
H32_6 H 0.177177 0.453711 0.136014
H33_6 H 0.226566 0.456765 0.109538
H34_7 H 0.186042 0.186042 0.277263
H37_7 H 0.120889 0.120889 0.154015
H40_6 H 0.229396 0.388354 0.0658689
H41_7 H 0.116272 0.231036 0.225655
H42_7 H 0.231036 0.116272 0.225655
H43_6 H 0.113177 0.388297 0.135362
O4_7 O 0.7555(2) 0.05288(18) 0.18633(12)
O5_7 O 0.81614(19) 0.05364(19) 0.14990(12)
C3_7 C 0.8643(3) 0.1357(3) 0.1750(3)
C4_7 C 0.7937(3) 0.0692(2) 0.17317(18)
C5_7 C 0.8265(3) 0.1735(3) 0.2299(2)
C6_7 C 0.8030(3) 0.1331(4) 0.21580(16)
C13_7 C 0.8220(3) 0.1135(3) 0.18924(19)
O9_9 O 0.6537(3) 0.000 0.20170(17)
O10_9 O 0.8440(3) 0.000 0.09184(18)
O13_5 O 0.94712(18) 0.2445(2) 0.18633(12)
O14_5 O 0.94636(19) 0.18386(19) 0.14990(12)
C14_7 C 0.9308(2) 0.2063(3) 0.17317(18)
C15_7 C 0.8669(4) 0.1970(3) 0.21580(16)
C16_7 C 0.8865(3) 0.1780(3) 0.18924(19)
O21_10 O 1.000 0.3463(3) 0.20170(17)
O22_10 O 1.000 0.1560(3) 0.09184(18)
H10_7 H 0.768964 0.116272 0.225655
H16_7 H 0.879111 0.120889 0.154015
H21_7 H 0.813958 0.186042 0.277263
H30_7 H 0.883728 0.231036 0.225655
C41_12 C 0.7040(3) 0.0683(3) 0.8802(2)
C42_12 C 0.7033(3) 0.2045(3) 0.96019(16)
C43_12 C 0.7011(3) 0.1336(3) 0.92185(18)
C44_12 C 0.6299(4) 0.1971(4) 0.9232(2)
C45_12 C 0.6784(3) 0.1122(3) 0.8968(2)
C46_12 C 0.6294(4) 0.1316(4) 0.8838(2)
C47_12 C 0.6762(3) 0.1770(3) 0.93435(19)
C48_12 C 0.6074(4) 0.1743(4) 0.8973(2)
N6_12 N 0.5606(4) 0.1949(5) 0.8823(3)
H1_12 H 0.611646 0.229396 0.934131
H2_12 H 0.546289 0.177177 0.863986
H3_12 H 0.543235 0.226566 0.890462
H6_12 H 0.735991 0.118096 0.931421
H7_12 H 0.611703 0.113177 0.864638
O9_10 O 0.6537(3) 1.000 0.20170(17)
O10_10 O 0.8440(3) 1.000 0.09184(18)
O39_4 O 0.7555(2) 0.94712(18) 0.18633(12)
O40_4 O 0.81614(19) 0.94636(19) 0.14990(12)
O9_11 O 0.3463(3) -0.000 0.20170(17)
O10_11 O 0.1560(3) -0.000 0.09184(18)
O36_6 O 0.3191(2) 0.05236(19) 0.14220(14)
O41_6 O 0.2582(2) 0.05259(19) 0.10697(12)
O4_8 O 0.2445(2) 0.94712(18) 0.18633(12)
O5_8 O 0.18386(19) 0.94636(19) 0.14990(12)
C3_8 C 0.1357(3) 0.8643(3) 0.1750(3)
C4_8 C 0.2063(3) 0.9308(2) 0.17317(18)
C5_8 C 0.1735(3) 0.8265(3) 0.2299(2)
C6_8 C 0.1970(3) 0.8669(4) 0.21580(16)
C13_8 C 0.1780(3) 0.8865(3) 0.18924(19)
O9_12 O 0.3463(3) 1.000 0.20170(17)
O10_12 O 0.1560(3) 1.000 0.09184(18)
O13_6 O 0.05288(18) 0.7555(2) 0.18633(12)
O14_6 O 0.05364(19) 0.81614(19) 0.14990(12)
C14_8 C 0.0692(2) 0.7937(3) 0.17317(18)
C15_8 C 0.1331(4) 0.8030(3) 0.21580(16)
C16_8 C 0.1135(3) 0.8220(3) 0.18924(19)
O21_11 O 0.000 0.6537(3) 0.20170(17)
O22_11 O 0.000 0.8440(3) 0.09184(18)
H10_8 H 0.231036 0.883728 0.225655
H16_8 H 0.120889 0.879111 0.154015
H21_8 H 0.186042 0.813958 0.277263
H30_8 H 0.116272 0.768964 0.225655
C41_13 C 0.2960(3) 0.9317(3) 0.8802(2)
C42_13 C 0.2967(3) 0.7955(3) 0.96019(16)
C43_13 C 0.2989(3) 0.8664(3) 0.92185(18)
C44_13 C 0.3701(4) 0.8029(4) 0.9232(2)
C45_13 C 0.3216(3) 0.8878(3) 0.8968(2)
C46_13 C 0.3706(4) 0.8684(4) 0.8838(2)
C47_13 C 0.3238(3) 0.8230(3) 0.93435(19)
C48_13 C 0.3926(4) 0.8257(4) 0.8973(2)
N6_13 N 0.4394(4) 0.8051(5) 0.8823(3)
H1_13 H 0.388354 0.770604 0.934131
H2_13 H 0.453711 0.822823 0.863986
H3_13 H 0.456765 0.773434 0.890462
H6_13 H 0.264009 0.881904 0.931421
H7_13 H 0.388297 0.886823 0.864638
O18_8 O 0.94712(18) 0.7555(2) 0.18633(12)
O19_8 O 0.94636(19) 0.81614(19) 0.14990(12)
C19_8 C 0.8643(3) 0.8643(3) 0.1750(3)
C20_8 C 0.9308(2) 0.7937(3) 0.17317(18)
C21_8 C 0.8265(3) 0.8265(3) 0.2299(2)
C22_8 C 0.8669(4) 0.8030(3) 0.21580(16)
C29_8 C 0.8865(3) 0.8220(3) 0.18924(19)
O21_12 O 1.000 0.6537(3) 0.20170(17)
O22_12 O 1.000 0.8440(3) 0.09184(18)
C30_8 C 0.7937(3) 0.9308(2) 0.17317(18)
C31_8 C 0.8030(3) 0.8669(4) 0.21580(16)
C32_8 C 0.8220(3) 0.8865(3) 0.18924(19)
H34_8 H 0.813958 0.813958 0.277263
H37_8 H 0.879111 0.879111 0.154015
H41_8 H 0.883728 0.768964 0.225655
H42_8 H 0.768964 0.883728 0.225655
O7_11 O 0.3436(3) 0.3436(3) 0.000
O8_11 O 0.1577(3) 0.1577(3) 0.000
O29_8 O 0.3182(2) 0.2444(2) 0.03064(13)
O31_8 O 0.2575(2) 0.18435(19) 0.03017(12)
C41_14 C 0.2960(3) 0.0683(3) 0.1198(2)
C42_14 C 0.2967(3) 0.2045(3) 0.03981(16)
C43_14 C 0.2989(3) 0.1336(3) 0.07815(18)
C44_14 C 0.3701(4) 0.1971(4) 0.0768(2)
C45_14 C 0.3216(3) 0.1122(3) 0.1032(2)
C46_14 C 0.3706(4) 0.1316(4) 0.1162(2)
C47_14 C 0.3238(3) 0.1770(3) 0.06565(19)
C48_14 C 0.3926(4) 0.1743(4) 0.1027(2)
N6_14 N 0.4394(4) 0.1949(5) 0.1177(3)
H1_14 H 0.388354 0.229396 0.0658689
H2_14 H 0.453711 0.177177 0.136014
H3_14 H 0.456765 0.226566 0.109538
H6_14 H 0.264009 0.118096 0.0685787
H7_14 H 0.388297 0.113177 0.135362
O7_12 O 0.3436(3) 0.3436(3) 1.000
O8_12 O 0.1577(3) 0.1577(3) 1.000
O35_8 O 0.2444(2) 0.3182(2) 0.96936(13)
O38_8 O 0.18435(19) 0.2575(2) 0.96983(12)
C41_15 C 0.9317(3) 0.7040(3) 0.8802(2)
C42_15 C 0.7955(3) 0.7033(3) 0.96019(16)
C43_15 C 0.8664(3) 0.7011(3) 0.92185(18)
C44_15 C 0.8029(4) 0.6299(4) 0.9232(2)
C45_15 C 0.8878(3) 0.6784(3) 0.8968(2)
C46_15 C 0.8684(4) 0.6294(4) 0.8838(2)
C47_15 C 0.8230(3) 0.6762(3) 0.93435(19)
C48_15 C 0.8257(4) 0.6074(4) 0.8973(2)
N6_15 N 0.8051(5) 0.5606(4) 0.8823(3)
H1_15 H 0.770604 0.611646 0.934131
H2_15 H 0.822823 0.546289 0.863986
H3_15 H 0.773434 0.543235 0.890462
H6_15 H 0.881904 0.735991 0.931421
H7_15 H 0.886823 0.611703 0.864638
C41_16 C 0.0683(3) 0.2960(3) 0.8802(2)
C42_16 C 0.2045(3) 0.2967(3) 0.96019(16)
C43_16 C 0.1336(3) 0.2989(3) 0.92185(18)
C44_16 C 0.1971(4) 0.3701(4) 0.9232(2)
C45_16 C 0.1122(3) 0.3216(3) 0.8968(2)
C46_16 C 0.1316(4) 0.3706(4) 0.8838(2)
C47_16 C 0.1770(3) 0.3238(3) 0.93435(19)
C48_16 C 0.1743(4) 0.3926(4) 0.8973(2)
N6_16 N 0.1949(5) 0.4394(4) 0.8823(3)
H1_16 H 0.229396 0.388354 0.934131
H2_16 H 0.177177 0.453711 0.863986
H3_16 H 0.226566 0.456765 0.890462
H6_16 H 0.118096 0.264009 0.931421
H7_16 H 0.113177 0.388297 0.864638
loop_
_geom_bond_atom_site_label_1
_geom_bond_atom_site_label_2
_geom_bond_site_symmetry_1
_geom_bond_site_symmetry_2
Cu1 O1 1_555 1_555
Cu2 O3 1_555 1_555
Cu3 O5 1_555 1_555
Cu4 O2 1_555 1_555
O1 C2 1_555 1_555
O2 C1 1_555 1_555
O3 C2 1_555 1_555
O4 Cu4 1_555 1_555
O5 C4 1_555 1_555
O6 Cu3 1_555 1_555
C1 O6 1_555 1_555
C2 C11 1_555 1_555
N1 C5 1_555 1_555
C3 C13 1_555 1_555
C4 O4 1_555 1_555
C5 C6 1_555 1_555
C6 C13 1_555 1_555
C7 C9 1_555 1_555
C8 C11 1_555 1_555
C9 C1 1_555 1_555
C10 C9 1_555 1_555
C11 C7 1_555 1_555
C12 C8 1_555 1_555
C13 C4 1_555 1_555
Cu5 N1 1_555 1_555
O7 Cu1 1_555 1_555
O8 Cu2 1_555 1_555
O9 Cu4 1_555 1_555
O10 Cu3 1_555 1_555
O11 Cu5 1_555 1_555
O12 Cu5 1_555 1_555
N2 C12 1_555 1_555
O13 C14 1_555 1_555
O14 C14 1_555 1_555
C14 C16 1_555 1_555
C15 C5 1_555 1_555
C16 C3 1_555 1_555
Cu6 O14 1_555 1_555
Cu7 O13 1_555 1_555
O15 C18 1_555 1_555
O16 Cu7 1_555 1_555
O17 C18 1_555 1_555
O18 Cu7 1_555 1_555
O19 Cu6 1_555 1_555
O20 Cu6 1_555 1_555
C17 O16 1_555 1_555
C18 C27 1_555 1_555
N3 C21 1_555 1_555
C19 C29 1_555 1_555
C20 O18 1_555 1_555
C21 C22 1_555 1_555
C22 C29 1_555 1_555
C23 C25 1_555 1_555
C24 C27 1_555 1_555
C25 C17 1_555 1_555
C26 C25 1_555 1_555
C27 C23 1_555 1_555
C28 C24 1_555 1_555
C29 C20 1_555 1_555
O21 Cu7 1_555 1_555
O22 Cu6 1_555 1_555
N4 C28 1_555 1_555
O23 C30 1_555 1_555
O24 C30 1_555 1_555
C30 C32 1_555 1_555
C31 C21 1_555 1_555
C32 C19 1_555 1_555
O25 Cu1 1_555 1_555
O26 C33 1_555 1_555
O27 Cu2 1_555 1_555
O28 C33 1_555 1_555
C33 C37 1_555 1_555
C34 O25 1_555 1_555
C35 C37 1_555 1_555
C36 C39 1_555 1_555
C37 C38 1_555 1_555
C38 C40 1_555 1_555
C39 C34 1_555 1_555
C40 C36 1_555 1_555
N5 C40 1_555 1_555
O29 Cu1 1_555 1_555
O30 C41 1_555 1_555
O31 Cu2 1_555 1_555
O32 C41 1_555 1_555
C41 C45 1_555 1_555
C42 O29 1_555 1_555
C43 C45 1_555 1_555
C44 C47 1_555 1_555
C45 C46 1_555 1_555
C46 C48 1_555 1_555
C47 C42 1_555 1_555
C48 C44 1_555 1_555
N6 C48 1_555 1_555
O33 Cu5 1_555 1_555
O34 Cu5 1_555 1_555
Cu8 O15 1_555 1_555
Cu9 O17 1_555 1_555
Cu10 O32 1_555 1_555
Cu11 O24 1_555 1_555
Cu12 O28 1_555 1_555
Cu13 O30 1_555 1_555
Cu14 O23 1_555 1_555
Cu15 O26 1_555 1_555
O35 Cu1 1_555 1_555
O36 Cu4 1_555 1_555
O37 Cu7 1_555 1_555
O38 Cu2 1_555 1_555
O39 Cu4 1_555 1_555
O40 Cu3 1_555 1_555
O41 Cu3 1_555 1_555
O42 Cu6 1_555 1_555
N7 Cu5 1_555 1_555
Cu16 N3 1_555 1_555
C10 C12 1_555 1_555
C15 C16 1_555 1_555
O19 C20 1_555 1_555
O20 C17 1_555 1_555
C26 C28 1_555 1_555
C31 C32 1_555 1_555
O27 C34 1_555 1_555
C35 C39 1_555 1_555
O31 C42 1_555 1_555
C43 C47 1_555 1_555
C44 H1 1_555 1_555
N6 H2 1_555 1_555
N6 H3 1_555 1_555
C43 H6 1_555 1_555
C46 H7 1_555 1_555
C6 H10 1_555 1_555
C7 H11 1_555 1_555
C3 H16 1_555 1_555
C10 H17 1_555 1_555
C8 H18 1_555 1_555
N1 H21 1_555 1_555
N2 H22 1_555 1_555
N2 H23 1_555 1_555
C15 H30 1_555 1_555
C23 H31 1_555 1_555
N4 H32 1_555 1_555
N4 H33 1_555 1_555
N3 H34 1_555 1_555
C19 H37 1_555 1_555
C24 H40 1_555 1_555
C22 H41 1_555 1_555
C31 H42 1_555 1_555
C26 H43 1_555 1_555
N5 H44 1_555 1_555
N5 H45 1_555 1_555
C38 H46 1_555 1_555
C36 H47 1_555 1_555
C35 H48 1_555 1_555
O7_2 Cu8 1_555 1_555
O8_2 Cu9 1_555 1_555
O11_2 Cu16 1_555 1_555
O12_2 Cu16 1_555 1_555
O15_2 C18_2 1_555 1_555
O16_2 Cu14 1_555 1_555
O17_2 C18_2 1_555 1_555
O18_2 Cu14 1_555 1_555
O19_2 Cu11 1_555 1_555
O20_2 Cu11 1_555 1_555
C17_2 O16_2 1_555 1_555
C18_2 C27_2 1_555 1_555
N3_2 C21_2 1_555 1_555
C19_2 C29_2 1_555 1_555
C20_2 O18_2 1_555 1_555
C21_2 C22_2 1_555 1_555
C22_2 C29_2 1_555 1_555
C23_2 C25_2 1_555 1_555
C24_2 C27_2 1_555 1_555
C25_2 C17_2 1_555 1_555
C26_2 C25_2 1_555 1_555
C27_2 C23_2 1_555 1_555
C28_2 C24_2 1_555 1_555
C29_2 C20_2 1_555 1_555
O21_2 Cu14 1_555 1_555
O22_2 Cu11 1_555 1_555
N4_2 C28_2 1_555 1_555
O23_2 C30_2 1_555 1_555
O24_2 C30_2 1_555 1_555
C30_2 C32_2 1_555 1_555
C31_2 C21_2 1_555 1_555
C32_2 C19_2 1_555 1_555
O25_2 Cu8 1_555 1_555
O26_2 C33_2 1_555 1_555
O27_2 Cu9 1_555 1_555
O28_2 C33_2 1_555 1_555
C33_2 C37_2 1_555 1_555
C34_2 O25_2 1_555 1_555
C35_2 C37_2 1_555 1_555
C36_2 C39_2 1_555 1_555
C37_2 C38_2 1_555 1_555
C38_2 C40_2 1_555 1_555
C39_2 C34_2 1_555 1_555
C40_2 C36_2 1_555 1_555
N5_2 C40_2 1_555 1_555
O29_2 Cu8 1_555 1_555
O30_2 C41_2 1_555 1_555
O31_2 Cu9 1_555 1_555
O32_2 C41_2 1_555 1_555
C41_2 C45_2 1_555 1_555
C42_2 O29_2 1_555 1_555
C43_2 C45_2 1_555 1_555
C44_2 C47_2 1_555 1_555
C45_2 C46_2 1_555 1_555
C46_2 C48_2 1_555 1_555
C47_2 C42_2 1_555 1_555
C48_2 C44_2 1_555 1_555
N6_2 C48_2 1_555 1_555
O33_2 Cu16 1_555 1_555
O34_2 Cu16 1_555 1_555
Cu8_2 O15_2 1_555 1_555
Cu9_2 O17_2 1_555 1_555
Cu12 O32_2 1_555 1_555
Cu11_2 O24_2 1_555 1_555
Cu12_2 O28_2 1_555 1_555
Cu15 O30_2 1_555 1_555
Cu14_2 O23_2 1_555 1_555
Cu15_2 O26_2 1_555 1_555
O35_2 Cu8 1_555 1_555
O37_2 Cu14 1_555 1_555
O38_2 Cu9 1_555 1_555
O42_2 Cu11 1_555 1_555
N7_2 Cu16 1_555 1_555
Cu16_2 N3_2 1_555 1_555
O19_2 C20_2 1_555 1_555
O20_2 C17_2 1_555 1_555
C26_2 C28_2 1_555 1_555
C31_2 C32_2 1_555 1_555
O27_2 C34_2 1_555 1_555
C35_2 C39_2 1_555 1_555
O31_2 C42_2 1_555 1_555
C43_2 C47_2 1_555 1_555
C44_2 H1_2 1_555 1_555
N6_2 H2_2 1_555 1_555
N6_2 H3_2 1_555 1_555
C43_2 H6_2 1_555 1_555
C46_2 H7_2 1_555 1_555
C23_2 H31_2 1_555 1_555
N4_2 H32_2 1_555 1_555
N4_2 H33_2 1_555 1_555
N3_2 H34_2 1_555 1_555
C19_2 H37_2 1_555 1_555
C24_2 H40_2 1_555 1_555
C22_2 H41_2 1_555 1_555
C31_2 H42_2 1_555 1_555
C26_2 H43_2 1_555 1_555
N5_2 H44_2 1_555 1_555
N5_2 H45_2 1_555 1_555
C38_2 H46_2 1_555 1_555
C36_2 H47_2 1_555 1_555
C35_2 H48_2 1_555 1_555
Cu1_2 O1_2 1_555 1_555
Cu2_2 O3_2 1_555 1_555
Cu11_2 O5_2 1_555 1_555
Cu14_2 O2_2 1_555 1_555
O1_2 C2_2 1_555 1_555
O2_2 C1_2 1_555 1_555
O3_2 C2_2 1_555 1_555
O4_2 Cu14_2 1_555 1_555
O5_2 C4_2 1_555 1_555
O6_2 Cu11_2 1_555 1_555
C1_2 O6_2 1_555 1_555
C2_2 C11_2 1_555 1_555
N1_2 C5_2 1_555 1_555
C3_2 C13_2 1_555 1_555
C4_2 O4_2 1_555 1_555
C5_2 C6_2 1_555 1_555
C6_2 C13_2 1_555 1_555
C7_2 C9_2 1_555 1_555
C8_2 C11_2 1_555 1_555
C9_2 C1_2 1_555 1_555
C10_2 C9_2 1_555 1_555
C11_2 C7_2 1_555 1_555
C12_2 C8_2 1_555 1_555
C13_2 C4_2 1_555 1_555
Cu5_2 N1_2 1_555 1_555
O7_3 Cu1_2 1_555 1_555
O8_3 Cu2_2 1_555 1_555
O9_2 Cu14_2 1_555 1_555
O10_2 Cu11_2 1_555 1_555
O11_3 Cu5_2 1_555 1_555
O12_3 Cu5_2 1_555 1_555
N2_2 C12_2 1_555 1_555
O39 C14_2 1_555 1_555
O40 C14_2 1_555 1_555
C14_2 C16_2 1_555 1_555
C15_2 C5_2 1_555 1_555
C16_2 C3_2 1_555 1_555
O25_3 Cu1_2 1_555 1_555
O26_3 C33_3 1_555 1_555
O27_3 Cu2_2 1_555 1_555
O28_3 C33_3 1_555 1_555
C33_3 C37_3 1_555 1_555
C34_3 O25_3 1_555 1_555
C35_3 C37_3 1_555 1_555
C36_3 C39_3 1_555 1_555
C37_3 C38_3 1_555 1_555
C38_3 C40_3 1_555 1_555
C39_3 C34_3 1_555 1_555
C40_3 C36_3 1_555 1_555
N5_3 C40_3 1_555 1_555
O29_3 Cu1_2 1_555 1_555
O30_3 C41_3 1_555 1_555
O31_3 Cu2_2 1_555 1_555
O32_3 C41_3 1_555 1_555
C41_3 C45_3 1_555 1_555
C42_3 O29_3 1_555 1_555
C43_3 C45_3 1_555 1_555
C44_3 C47_3 1_555 1_555
C45_3 C46_3 1_555 1_555
C46_3 C48_3 1_555 1_555
C47_3 C42_3 1_555 1_555
C48_3 C44_3 1_555 1_555
N6_3 C48_3 1_555 1_555
O33_3 Cu5_2 1_555 1_555
O34_3 Cu5_2 1_555 1_555
Cu10_2 O32_3 1_555 1_555
Cu10 O28_3 1_555 1_555
Cu13_2 O30_3 1_555 1_555
Cu13 O26_3 1_555 1_555
O35_3 Cu1_2 1_555 1_555
O36_2 Cu14_2 1_555 1_555
O38_3 Cu2_2 1_555 1_555
O41_2 Cu11_2 1_555 1_555
N7_3 Cu5_2 1_555 1_555
C10_2 C12_2 1_555 1_555
C15_2 C16_2 1_555 1_555
O27_3 C34_3 1_555 1_555
C35_3 C39_3 1_555 1_555
O31_3 C42_3 1_555 1_555
C43_3 C47_3 1_555 1_555
C44_3 H1_3 1_555 1_555
N6_3 H2_3 1_555 1_555
N6_3 H3_3 1_555 1_555
C43_3 H6_3 1_555 1_555
C46_3 H7_3 1_555 1_555
C6_2 H10_2 1_555 1_555
C7_2 H11_2 1_555 1_555
C3_2 H16_2 1_555 1_555
C10_2 H17_2 1_555 1_555
C8_2 H18_2 1_555 1_555
N1_2 H21_2 1_555 1_555
N2_2 H22_2 1_555 1_555
N2_2 H23_2 1_555 1_555
C15_2 H30_2 1_555 1_555
N5_3 H44_3 1_555 1_555
N5_3 H45_3 1_555 1_555
C38_3 H46_3 1_555 1_555
C36_3 H47_3 1_555 1_555
C35_3 H48_3 1_555 1_555
Cu10 O5_3 1_555 1_555
O4_3 Cu13 1_555 1_555
O5_3 C4_3 1_555 1_555
N1_3 C5_3 1_555 1_555
C3_3 C13_3 1_555 1_555
C4_3 O4_3 1_555 1_555
C5_3 C6_3 1_555 1_555
C6_3 C13_3 1_555 1_555
C13_3 C4_3 1_555 1_555
Cu5_3 N1_3 1_555 1_555
O9_3 Cu13 1_555 1_555
O10_3 Cu10 1_555 1_555
O11_4 Cu5_3 1_555 1_555
O12_4 Cu5_3 1_555 1_555
O13_2 C14_3 1_555 1_555
O14_2 C14_3 1_555 1_555
C14_3 C16_3 1_555 1_555
C15_3 C5_3 1_555 1_555
C16_3 C3_3 1_555 1_555
Cu10_2 O14_2 1_555 1_555
Cu13_2 O13_2 1_555 1_555
O15_3 C18_3 1_555 1_555
O16_3 Cu13_2 1_555 1_555
O17_3 C18_3 1_555 1_555
O18_3 Cu13_2 1_555 1_555
O19_3 Cu10_2 1_555 1_555
O20_3 Cu10_2 1_555 1_555
C17_3 O16_3 1_555 1_555
C18_3 C27_3 1_555 1_555
N3_3 C21_3 1_555 1_555
C19_3 C29_3 1_555 1_555
C20_3 O18_3 1_555 1_555
C21_3 C22_3 1_555 1_555
C22_3 C29_3 1_555 1_555
C23_3 C25_3 1_555 1_555
C24_3 C27_3 1_555 1_555
C25_3 C17_3 1_555 1_555
C26_3 C25_3 1_555 1_555
C27_3 C23_3 1_555 1_555
C28_3 C24_3 1_555 1_555
C29_3 C20_3 1_555 1_555
O21_3 Cu13_2 1_555 1_555
O22_3 Cu10_2 1_555 1_555
N4_3 C28_3 1_555 1_555
O23_3 C30_3 1_555 1_555
O24_3 C30_3 1_555 1_555
C30_3 C32_3 1_555 1_555
C31_3 C21_3 1_555 1_555
C32_3 C19_3 1_555 1_555
O36 C41_4 1_555 1_555
O41 C41_4 1_555 1_555
C41_4 C45_4 1_555 1_555
C42_4 O35_3 1_555 1_555
C43_4 C45_4 1_555 1_555
C44_4 C47_4 1_555 1_555
C45_4 C46_4 1_555 1_555
C46_4 C48_4 1_555 1_555
C47_4 C42_4 1_555 1_555
C48_4 C44_4 1_555 1_555
N6_4 C48_4 1_555 1_555
O33_4 Cu5_3 1_555 1_555
O34_4 Cu5_3 1_555 1_555
Cu8_2 O15_3 1_555 1_555
Cu9_2 O17_3 1_555 1_555
Cu12_2 O24_3 1_555 1_555
Cu15_2 O23_3 1_555 1_555
O39_2 Cu13 1_555 1_555
O40_2 Cu10 1_555 1_555
N7_4 Cu5_3 1_555 1_555
Cu16_3 N3_3 1_555 1_555
C15_3 C16_3 1_555 1_555
O19_3 C20_3 1_555 1_555
O20_3 C17_3 1_555 1_555
C26_3 C28_3 1_555 1_555
C31_3 C32_3 1_555 1_555
O38_3 C42_4 1_555 1_555
C43_4 C47_4 1_555 1_555
C44_4 H1_4 1_555 1_555
N6_4 H2_4 1_555 1_555
N6_4 H3_4 1_555 1_555
C43_4 H6_4 1_555 1_555
C46_4 H7_4 1_555 1_555
C6_3 H10_3 1_555 1_555
C3_3 H16_3 1_555 1_555
N1_3 H21_3 1_555 1_555
C15_3 H30_3 1_555 1_555
C23_3 H31_3 1_555 1_555
N4_3 H32_3 1_555 1_555
N4_3 H33_3 1_555 1_555
N3_3 H34_3 1_555 1_555
C19_3 H37_3 1_555 1_555
C24_3 H40_3 1_555 1_555
C22_3 H41_3 1_555 1_555
C31_3 H42_3 1_555 1_555
C26_3 H43_3 1_555 1_555
Cu12_2 O5_4 1_555 1_555
O4_4 Cu15_2 1_555 1_555
O5_4 C4_4 1_555 1_555
N1_4 C5_4 1_555 1_555
C3_4 C13_4 1_555 1_555
C4_4 O4_4 1_555 1_555
C5_4 C6_4 1_555 1_555
C6_4 C13_4 1_555 1_555
C13_4 C4_4 1_555 1_555
Cu5_4 N1_4 1_555 1_555
O9_4 Cu15_2 1_555 1_555
O10_4 Cu12_2 1_555 1_555
O11_5 Cu5_4 1_555 1_555
O12_5 Cu5_4 1_555 1_555
O13_3 C14_4 1_555 1_555
O14_3 C14_4 1_555 1_555
C14_4 C16_4 1_555 1_555
C15_4 C5_4 1_555 1_555
C16_4 C3_4 1_555 1_555
Cu12 O14_3 1_555 1_555
Cu15 O13_3 1_555 1_555
O18_4 Cu15 1_555 1_555
O19_4 Cu12 1_555 1_555
N3_4 C21_4 1_555 1_555
C19_4 C29_4 1_555 1_555
C20_4 O18_4 1_555 1_555
C21_4 C22_4 1_555 1_555
C22_4 C29_4 1_555 1_555
C29_4 C20_4 1_555 1_555
O21_4 Cu15 1_555 1_555
O22_4 Cu12 1_555 1_555
O39_2 C30_4 1_555 1_555
O40_2 C30_4 1_555 1_555
C30_4 C32_4 1_555 1_555
C31_4 C21_4 1_555 1_555
C32_4 C19_4 1_555 1_555
O37_2 C41_5 1_555 1_555
O42_2 C41_5 1_555 1_555
C41_5 C45_5 1_555 1_555
C42_5 O35_2 1_555 1_555
C43_5 C45_5 1_555 1_555
C44_5 C47_5 1_555 1_555
C45_5 C46_5 1_555 1_555
C46_5 C48_5 1_555 1_555
C47_5 C42_5 1_555 1_555
C48_5 C44_5 1_555 1_555
N6_5 C48_5 1_555 1_555
O33_5 Cu5_4 1_555 1_555
O34_5 Cu5_4 1_555 1_555
O36_3 Cu15_2 1_555 1_555
O41_3 Cu12_2 1_555 1_555
N7_5 Cu5_4 1_555 1_555
Cu16_4 N3_4 1_555 1_555
C15_4 C16_4 1_555 1_555
O19_4 C20_4 1_555 1_555
C31_4 C32_4 1_555 1_555
O38_2 C42_5 1_555 1_555
C43_5 C47_5 1_555 1_555
C44_5 H1_5 1_555 1_555
N6_5 H2_5 1_555 1_555
N6_5 H3_5 1_555 1_555
C43_5 H6_5 1_555 1_555
C46_5 H7_5 1_555 1_555
C6_4 H10_4 1_555 1_555
C3_4 H16_4 1_555 1_555
N1_4 H21_4 1_555 1_555
C15_4 H30_4 1_555 1_555
N3_4 H34_4 1_555 1_555
C19_4 H37_4 1_555 1_555
C22_4 H41_4 1_555 1_555
C31_4 H42_4 1_555 1_555
O7_4 Cu8_2 1_555 1_555
O8_4 Cu9_2 1_555 1_555
O11_6 Cu16_2 1_555 1_555
O12_6 Cu16_2 1_555 1_555
O29_4 Cu8_2 1_555 1_555
O36_3 C41_6 1_555 1_555
O31_4 Cu9_2 1_555 1_555
O41_3 C41_6 1_555 1_555
C41_6 C45_6 1_555 1_555
C42_6 O29_4 1_555 1_555
C43_6 C45_6 1_555 1_555
C44_6 C47_6 1_555 1_555
C45_6 C46_6 1_555 1_555
C46_6 C48_6 1_555 1_555
C47_6 C42_6 1_555 1_555
C48_6 C44_6 1_555 1_555
N6_6 C48_6 1_555 1_555
O33_6 Cu16_2 1_555 1_555
O34_6 Cu16_2 1_555 1_555
O35_4 Cu8_2 1_555 1_555
O38_4 Cu9_2 1_555 1_555
N7_6 Cu16_2 1_555 1_555
O31_4 C42_6 1_555 1_555
C43_6 C47_6 1_555 1_555
C44_6 H1_6 1_555 1_555
N6_6 H2_6 1_555 1_555
N6_6 H3_6 1_555 1_555
C43_6 H6_6 1_555 1_555
C46_6 H7_6 1_555 1_555
O11_7 Cu16_4 1_555 1_555
O12_7 Cu16_4 1_555 1_555
O37 C41_7 1_555 1_555
O42 C41_7 1_555 1_555
C41_7 C45_7 1_555 1_555
C42_7 O35 1_555 1_555
C43_7 C45_7 1_555 1_555
C44_7 C47_7 1_555 1_555
C45_7 C46_7 1_555 1_555
C46_7 C48_7 1_555 1_555
C47_7 C42_7 1_555 1_555
C48_7 C44_7 1_555 1_555
N6_7 C48_7 1_555 1_555
O33_7 Cu16_4 1_555 1_555
O34_7 Cu16_4 1_555 1_555
N7_7 Cu16_4 1_555 1_555
O38 C42_7 1_555 1_555
C43_7 C47_7 1_555 1_555
C44_7 H1_7 1_555 1_555
N6_7 H2_7 1_555 1_555
N6_7 H3_7 1_555 1_555
C43_7 H6_7 1_555 1_555
C46_7 H7_7 1_555 1_555
O11_8 Cu16_3 1_555 1_555
O12_8 Cu16_3 1_555 1_555
O36_2 C41_8 1_555 1_555
O41_2 C41_8 1_555 1_555
C41_8 C45_8 1_555 1_555
C42_8 O35_4 1_555 1_555
C43_8 C45_8 1_555 1_555
C44_8 C47_8 1_555 1_555
C45_8 C46_8 1_555 1_555
C46_8 C48_8 1_555 1_555
C47_8 C42_8 1_555 1_555
C48_8 C44_8 1_555 1_555
N6_8 C48_8 1_555 1_555
O33_8 Cu16_3 1_555 1_555
O34_8 Cu16_3 1_555 1_555
N7_8 Cu16_3 1_555 1_555
O38_4 C42_8 1_555 1_555
C43_8 C47_8 1_555 1_555
C44_8 H1_8 1_555 1_555
N6_8 H2_8 1_555 1_555
N6_8 H3_8 1_555 1_555
C43_8 H6_8 1_555 1_555
C46_8 H7_8 1_555 1_555
O15_4 C18_4 1_555 1_555
O16_4 Cu7_2 1_555 1_555
O17_4 C18_4 1_555 1_555
O18_5 Cu7_2 1_555 1_555
O19_5 Cu6_2 1_555 1_555
O20_4 Cu6_2 1_555 1_555
C17_4 O16_4 1_555 1_555
C18_4 C27_4 1_555 1_555
N7_4 C21_5 1_555 1_555
C19_5 C29_5 1_555 1_555
C20_5 O18_5 1_555 1_555
C21_5 C22_5 1_555 1_555
C22_5 C29_5 1_555 1_555
C23_4 C25_4 1_555 1_555
C24_4 C27_4 1_555 1_555
C25_4 C17_4 1_555 1_555
C26_4 C25_4 1_555 1_555
C27_4 C23_4 1_555 1_555
C28_4 C24_4 1_555 1_555
C29_5 C20_5 1_555 1_555
O21_5 Cu7_2 1_555 1_555
O22_5 Cu6_2 1_555 1_555
N4_4 C28_4 1_555 1_555
O23_4 C30_5 1_555 1_555
O24_4 C30_5 1_555 1_555
C30_5 C32_5 1_555 1_555
C31_5 C21_5 1_555 1_555
C32_5 C19_5 1_555 1_555
Cu8_4 O15_4 1_555 1_555
Cu9_4 O17_4 1_555 1_555
Cu11_4 O24_4 1_555 1_555
Cu14_4 O23_4 1_555 1_555
O19_5 C20_5 1_555 1_555
O20_4 C17_4 1_555 1_555
C26_4 C28_4 1_555 1_555
C31_5 C32_5 1_555 1_555
C23_4 H31_4 1_555 1_555
N4_4 H32_4 1_555 1_555
N4_4 H33_4 1_555 1_555
N7_4 H34_5 1_555 1_555
C19_5 H37_5 1_555 1_555
C24_4 H40_4 1_555 1_555
C22_5 H41_5 1_555 1_555
C31_5 H42_5 1_555 1_555
C26_4 H43_4 1_555 1_555
O9_5 Cu4_2 1_555 1_555
O10_5 Cu3_2 1_555 1_555
O36_4 Cu4_2 1_555 1_555
O39_3 Cu4_2 1_555 1_555
O40_3 Cu3_2 1_555 1_555
O41_4 Cu3_2 1_555 1_555
O7_5 Cu1_3 1_555 1_555
O8_5 Cu2_3 1_555 1_555
O25_4 Cu1_3 1_555 1_555
O26_4 C33_4 1_555 1_555
O27_4 Cu2_3 1_555 1_555
O28_4 C33_4 1_555 1_555
C33_4 C37_4 1_555 1_555
C34_4 O25_4 1_555 1_555
C35_4 C37_4 1_555 1_555
C36_4 C39_4 1_555 1_555
C37_4 C38_4 1_555 1_555
C38_4 C40_4 1_555 1_555
C39_4 C34_4 1_555 1_555
C40_4 C36_4 1_555 1_555
N5_4 C40_4 1_555 1_555
O29_5 Cu1_3 1_555 1_555
O30_4 C41_9 1_555 1_555
O31_5 Cu2_3 1_555 1_555
O32_4 C41_9 1_555 1_555
C41_9 C45_9 1_555 1_555
C42_9 O29_5 1_555 1_555
C43_9 C45_9 1_555 1_555
C44_9 C47_9 1_555 1_555
C45_9 C46_9 1_555 1_555
C46_9 C48_9 1_555 1_555
C47_9 C42_9 1_555 1_555
C48_9 C44_9 1_555 1_555
N6_9 C48_9 1_555 1_555
Cu10_4 O32_4 1_555 1_555
Cu12_4 O28_4 1_555 1_555
Cu13_4 O30_4 1_555 1_555
Cu15_4 O26_4 1_555 1_555
O27_4 C34_4 1_555 1_555
C35_4 C39_4 1_555 1_555
O31_5 C42_9 1_555 1_555
C43_9 C47_9 1_555 1_555
C44_9 H1_9 1_555 1_555
N6_9 H2_9 1_555 1_555
N6_9 H3_9 1_555 1_555
C43_9 H6_9 1_555 1_555
C46_9 H7_9 1_555 1_555
N5_4 H44_4 1_555 1_555
N5_4 H45_4 1_555 1_555
C38_4 H46_4 1_555 1_555
C36_4 H47_4 1_555 1_555
C35_4 H48_4 1_555 1_555
Cu1_4 O1_3 1_555 1_555
Cu2_4 O3_3 1_555 1_555
Cu3_3 O5_5 1_555 1_555
Cu4_3 O2_3 1_555 1_555
O1_3 C2_3 1_555 1_555
O2_3 C1_3 1_555 1_555
O3_3 C2_3 1_555 1_555
O4_5 Cu4_3 1_555 1_555
O5_5 C4_5 1_555 1_555
O6_3 Cu3_3 1_555 1_555
C1_3 O6_3 1_555 1_555
C2_3 C11_3 1_555 1_555
N7_8 C5_5 1_555 1_555
C3_5 C13_5 1_555 1_555
C4_5 O4_5 1_555 1_555
C5_5 C6_5 1_555 1_555
C6_5 C13_5 1_555 1_555
C7_3 C9_3 1_555 1_555
C8_3 C11_3 1_555 1_555
C9_3 C1_3 1_555 1_555
C10_3 C9_3 1_555 1_555
C11_3 C7_3 1_555 1_555
C12_3 C8_3 1_555 1_555
C13_5 C4_5 1_555 1_555
O7_6 Cu1_4 1_555 1_555
O8_6 Cu2_4 1_555 1_555
O9_6 Cu4_3 1_555 1_555
O10_6 Cu3_3 1_555 1_555
N2_3 C12_3 1_555 1_555
O13_4 C14_5 1_555 1_555
O14_4 C14_5 1_555 1_555
C14_5 C16_5 1_555 1_555
C15_5 C5_5 1_555 1_555
C16_5 C3_5 1_555 1_555
Cu6_3 O14_4 1_555 1_555
Cu7_3 O13_4 1_555 1_555
O21_6 Cu7_3 1_555 1_555
O22_6 Cu6_3 1_555 1_555
O35_5 Cu1_4 1_555 1_555
O37_3 Cu7_3 1_555 1_555
O38_5 Cu2_4 1_555 1_555
O42_3 Cu6_3 1_555 1_555
C10_3 C12_3 1_555 1_555
C15_5 C16_5 1_555 1_555
C6_5 H10_5 1_555 1_555
C7_3 H11_3 1_555 1_555
C3_5 H16_5 1_555 1_555
C10_3 H17_3 1_555 1_555
C8_3 H18_3 1_555 1_555
N7_8 H21_5 1_555 1_555
N2_3 H22_3 1_555 1_555
N2_3 H23_3 1_555 1_555
C15_5 H30_5 1_555 1_555
O15_5 C18_5 1_555 1_555
O16_5 Cu14_3 1_555 1_555
O17_5 C18_5 1_555 1_555
O18_6 Cu14_3 1_555 1_555
O19_6 Cu11_3 1_555 1_555
O20_5 Cu11_3 1_555 1_555
C17_5 O16_5 1_555 1_555
C18_5 C27_5 1_555 1_555
N7_7 C21_6 1_555 1_555
C19_6 C29_6 1_555 1_555
C20_6 O18_6 1_555 1_555
C21_6 C22_6 1_555 1_555
C22_6 C29_6 1_555 1_555
C23_5 C25_5 1_555 1_555
C24_5 C27_5 1_555 1_555
C25_5 C17_5 1_555 1_555
C26_5 C25_5 1_555 1_555
C27_5 C23_5 1_555 1_555
C28_5 C24_5 1_555 1_555
C29_6 C20_6 1_555 1_555
O21_7 Cu14_3 1_555 1_555
O22_7 Cu11_3 1_555 1_555
N4_5 C28_5 1_555 1_555
O23_5 C30_6 1_555 1_555
O24_5 C30_6 1_555 1_555
C30_6 C32_6 1_555 1_555
C31_6 C21_6 1_555 1_555
C32_6 C19_6 1_555 1_555
Cu8_6 O15_5 1_555 1_555
Cu9_6 O17_5 1_555 1_555
Cu11_5 O24_5 1_555 1_555
Cu14_5 O23_5 1_555 1_555
O19_6 C20_6 1_555 1_555
O20_5 C17_5 1_555 1_555
C26_5 C28_5 1_555 1_555
C31_6 C32_6 1_555 1_555
C23_5 H31_5 1_555 1_555
N4_5 H32_5 1_555 1_555
N4_5 H33_5 1_555 1_555
N7_7 H34_6 1_555 1_555
C19_6 H37_6 1_555 1_555
C24_5 H40_5 1_555 1_555
C22_6 H41_6 1_555 1_555
C31_6 H42_6 1_555 1_555
C26_5 H43_5 1_555 1_555
O7_7 Cu8_3 1_555 1_555
O8_7 Cu9_3 1_555 1_555
O25_5 Cu8_3 1_555 1_555
O26_5 C33_5 1_555 1_555
O27_5 Cu9_3 1_555 1_555
O28_5 C33_5 1_555 1_555
C33_5 C37_5 1_555 1_555
C34_5 O25_5 1_555 1_555
C35_5 C37_5 1_555 1_555
C36_5 C39_5 1_555 1_555
C37_5 C38_5 1_555 1_555
C38_5 C40_5 1_555 1_555
C39_5 C34_5 1_555 1_555
C40_5 C36_5 1_555 1_555
N5_5 C40_5 1_555 1_555
O29_6 Cu8_3 1_555 1_555
O30_5 C41_10 1_555 1_555
O31_6 Cu9_3 1_555 1_555
O32_5 C41_10 1_555 1_555
C41_10 C45_10 1_555 1_555
C42_10 O29_6 1_555 1_555
C43_10 C45_10 1_555 1_555
C44_10 C47_10 1_555 1_555
C45_10 C46_10 1_555 1_555
C46_10 C48_10 1_555 1_555
C47_10 C42_10 1_555 1_555
C48_10 C44_10 1_555 1_555
N6_10 C48_10 1_555 1_555
Cu12_3 O32_5 1_555 1_555
Cu12_6 O28_5 1_555 1_555
Cu15_3 O30_5 1_555 1_555
Cu15_6 O26_5 1_555 1_555
O27_5 C34_5 1_555 1_555
C35_5 C39_5 1_555 1_555
O31_6 C42_10 1_555 1_555
C43_10 C47_10 1_555 1_555
C44_10 H1_10 1_555 1_555
N6_10 H2_10 1_555 1_555
N6_10 H3_10 1_555 1_555
C43_10 H6_10 1_555 1_555
C46_10 H7_10 1_555 1_555
N5_5 H44_5 1_555 1_555
N5_5 H45_5 1_555 1_555
C38_5 H46_5 1_555 1_555
C36_5 H47_5 1_555 1_555
C35_5 H48_5 1_555 1_555
O7_8 Cu8_4 1_555 1_555
O8_8 Cu9_4 1_555 1_555
O21_8 Cu14_4 1_555 1_555
O22_8 Cu11_4 1_555 1_555
O35_6 Cu8_4 1_555 1_555
O37_4 Cu14_4 1_555 1_555
O38_6 Cu9_4 1_555 1_555
O42_4 Cu11_4 1_555 1_555
O9_7 Cu14_5 1_555 1_555
O10_7 Cu11_5 1_555 1_555
O36_5 Cu14_5 1_555 1_555
O41_5 Cu11_5 1_555 1_555
O7_9 Cu1_5 1_555 1_555
O8_9 Cu2_5 1_555 1_555
O25_6 Cu1_5 1_555 1_555
O26_6 C33_6 1_555 1_555
O27_6 Cu2_5 1_555 1_555
O28_6 C33_6 1_555 1_555
C33_6 C37_6 1_555 1_555
C34_6 O25_6 1_555 1_555
C35_6 C37_6 1_555 1_555
C36_6 C39_6 1_555 1_555
C37_6 C38_6 1_555 1_555
C38_6 C40_6 1_555 1_555
C39_6 C34_6 1_555 1_555
C40_6 C36_6 1_555 1_555
N5_6 C40_6 1_555 1_555
O29_7 Cu1_5 1_555 1_555
O30_6 C41_11 1_555 1_555
O31_7 Cu2_5 1_555 1_555
O32_6 C41_11 1_555 1_555
C41_11 C45_11 1_555 1_555
C42_11 O29_7 1_555 1_555
C43_11 C45_11 1_555 1_555
C44_11 C47_11 1_555 1_555
C45_11 C46_11 1_555 1_555
C46_11 C48_11 1_555 1_555
C47_11 C42_11 1_555 1_555
C48_11 C44_11 1_555 1_555
N6_11 C48_11 1_555 1_555
Cu10_6 O32_6 1_555 1_555
Cu10_3 O28_6 1_555 1_555
Cu13_6 O30_6 1_555 1_555
Cu13_3 O26_6 1_555 1_555
O27_6 C34_6 1_555 1_555
C35_6 C39_6 1_555 1_555
O31_7 C42_11 1_555 1_555
C43_11 C47_11 1_555 1_555
C44_11 H1_11 1_555 1_555
N6_11 H2_11 1_555 1_555
N6_11 H3_11 1_555 1_555
C43_11 H6_11 1_555 1_555
C46_11 H7_11 1_555 1_555
N5_6 H44_6 1_555 1_555
N5_6 H45_6 1_555 1_555
C38_6 H46_6 1_555 1_555
C36_6 H47_6 1_555 1_555
C35_6 H48_6 1_555 1_555
Cu1_6 O1_4 1_555 1_555
Cu2_6 O3_4 1_555 1_555
Cu11_6 O5_6 1_555 1_555
Cu14_6 O2_4 1_555 1_555
O1_4 C2_4 1_555 1_555
O2_4 C1_4 1_555 1_555
O3_4 C2_4 1_555 1_555
O4_6 Cu14_6 1_555 1_555
O5_6 C4_6 1_555 1_555
O6_4 Cu11_6 1_555 1_555
C1_4 O6_4 1_555 1_555
C2_4 C11_4 1_555 1_555
N7_5 C5_6 1_555 1_555
C3_6 C13_6 1_555 1_555
C4_6 O4_6 1_555 1_555
C5_6 C6_6 1_555 1_555
C6_6 C13_6 1_555 1_555
C7_4 C9_4 1_555 1_555
C8_4 C11_4 1_555 1_555
C9_4 C1_4 1_555 1_555
C10_4 C9_4 1_555 1_555
C11_4 C7_4 1_555 1_555
C12_4 C8_4 1_555 1_555
C13_6 C4_6 1_555 1_555
O7_10 Cu1_6 1_555 1_555
O8_10 Cu2_6 1_555 1_555
O9_8 Cu14_6 1_555 1_555
O10_8 Cu11_6 1_555 1_555
N2_4 C12_4 1_555 1_555
O39_3 C14_6 1_555 1_555
O40_3 C14_6 1_555 1_555
C14_6 C16_6 1_555 1_555
C15_6 C5_6 1_555 1_555
C16_6 C3_6 1_555 1_555
O35_7 Cu1_6 1_555 1_555
O38_7 Cu2_6 1_555 1_555
C10_4 C12_4 1_555 1_555
C15_6 C16_6 1_555 1_555
C6_6 H10_6 1_555 1_555
C7_4 H11_4 1_555 1_555
C3_6 H16_6 1_555 1_555
C10_4 H17_4 1_555 1_555
C8_4 H18_4 1_555 1_555
N7_5 H21_6 1_555 1_555
N2_4 H22_4 1_555 1_555
N2_4 H23_4 1_555 1_555
C15_6 H30_6 1_555 1_555
O15_6 C18_6 1_555 1_555
O16_6 Cu13_5 1_555 1_555
O17_6 C18_6 1_555 1_555
O18_7 Cu13_5 1_555 1_555
O19_7 Cu10_5 1_555 1_555
O20_6 Cu10_5 1_555 1_555
C17_6 O16_6 1_555 1_555
C18_6 C27_6 1_555 1_555
N7 C21_7 1_555 1_555
C19_7 C29_7 1_555 1_555
C20_7 O18_7 1_555 1_555
C21_7 C22_7 1_555 1_555
C22_7 C29_7 1_555 1_555
C23_6 C25_6 1_555 1_555
C24_6 C27_6 1_555 1_555
C25_6 C17_6 1_555 1_555
C26_6 C25_6 1_555 1_555
C27_6 C23_6 1_555 1_555
C28_6 C24_6 1_555 1_555
C29_7 C20_7 1_555 1_555
O21_9 Cu13_5 1_555 1_555
O22_9 Cu10_5 1_555 1_555
N4_6 C28_6 1_555 1_555
O23_6 C30_7 1_555 1_555
O24_6 C30_7 1_555 1_555
C30_7 C32_7 1_555 1_555
C31_7 C21_7 1_555 1_555
C32_7 C19_7 1_555 1_555
Cu8_5 O15_6 1_555 1_555
Cu9_5 O17_6 1_555 1_555
Cu12_5 O24_6 1_555 1_555
Cu15_5 O23_6 1_555 1_555
O19_7 C20_7 1_555 1_555
O20_6 C17_6 1_555 1_555
C26_6 C28_6 1_555 1_555
C31_7 C32_7 1_555 1_555
C23_6 H31_6 1_555 1_555
N4_6 H32_6 1_555 1_555
N4_6 H33_6 1_555 1_555
N7 H34_7 1_555 1_555
C19_7 H37_7 1_555 1_555
C24_6 H40_6 1_555 1_555
C22_7 H41_7 1_555 1_555
C31_7 H42_7 1_555 1_555
C26_6 H43_6 1_555 1_555
Cu10_3 O5_7 1_555 1_555
O4_7 Cu13_3 1_555 1_555
O5_7 C4_7 1_555 1_555
N7_2 C5_7 1_555 1_555
C3_7 C13_7 1_555 1_555
C4_7 O4_7 1_555 1_555
C5_7 C6_7 1_555 1_555
C6_7 C13_7 1_555 1_555
C13_7 C4_7 1_555 1_555
O9_9 Cu13_3 1_555 1_555
O10_9 Cu10_3 1_555 1_555
O13_5 C14_7 1_555 1_555
O14_5 C14_7 1_555 1_555
C14_7 C16_7 1_555 1_555
C15_7 C5_7 1_555 1_555
C16_7 C3_7 1_555 1_555
Cu10_6 O14_5 1_555 1_555
Cu13_6 O13_5 1_555 1_555
O21_10 Cu13_6 1_555 1_555
O22_10 Cu10_6 1_555 1_555
C15_7 C16_7 1_555 1_555
C6_7 H10_7 1_555 1_555
C3_7 H16_7 1_555 1_555
N7_2 H21_7 1_555 1_555
C15_7 H30_7 1_555 1_555
O36_4 C41_12 1_555 1_555
O41_4 C41_12 1_555 1_555
C41_12 C45_12 1_555 1_555
C42_12 O35_7 1_555 1_555
C43_12 C45_12 1_555 1_555
C44_12 C47_12 1_555 1_555
C45_12 C46_12 1_555 1_555
C46_12 C48_12 1_555 1_555
C47_12 C42_12 1_555 1_555
C48_12 C44_12 1_555 1_555
N6_12 C48_12 1_555 1_555
O38_7 C42_12 1_555 1_555
C43_12 C47_12 1_555 1_555
C44_12 H1_12 1_555 1_555
N6_12 H2_12 1_555 1_555
N6_12 H3_12 1_555 1_555
C43_12 H6_12 1_555 1_555
C46_12 H7_12 1_555 1_555
O9_10 Cu13_4 1_555 1_555
O10_10 Cu10_4 1_555 1_555
O39_4 Cu13_4 1_555 1_555
O40_4 Cu10_4 1_555 1_555
O9_11 Cu15_5 1_555 1_555
O10_11 Cu12_5 1_555 1_555
O36_6 Cu15_5 1_555 1_555
O41_6 Cu12_5 1_555 1_555
Cu12_6 O5_8 1_555 1_555
O4_8 Cu15_6 1_555 1_555
O5_8 C4_8 1_555 1_555
N7_3 C5_8 1_555 1_555
C3_8 C13_8 1_555 1_555
C4_8 O4_8 1_555 1_555
C5_8 C6_8 1_555 1_555
C6_8 C13_8 1_555 1_555
C13_8 C4_8 1_555 1_555
O9_12 Cu15_6 1_555 1_555
O10_12 Cu12_6 1_555 1_555
O13_6 C14_8 1_555 1_555
O14_6 C14_8 1_555 1_555
C14_8 C16_8 1_555 1_555
C15_8 C5_8 1_555 1_555
C16_8 C3_8 1_555 1_555
Cu12_3 O14_6 1_555 1_555
Cu15_3 O13_6 1_555 1_555
O21_11 Cu15_3 1_555 1_555
O22_11 Cu12_3 1_555 1_555
C15_8 C16_8 1_555 1_555
C6_8 H10_8 1_555 1_555
C3_8 H16_8 1_555 1_555
N7_3 H21_8 1_555 1_555
C15_8 H30_8 1_555 1_555
O37_4 C41_13 1_555 1_555
O42_4 C41_13 1_555 1_555
C41_13 C45_13 1_555 1_555
C42_13 O35_6 1_555 1_555
C43_13 C45_13 1_555 1_555
C44_13 C47_13 1_555 1_555
C45_13 C46_13 1_555 1_555
C46_13 C48_13 1_555 1_555
C47_13 C42_13 1_555 1_555
C48_13 C44_13 1_555 1_555
N6_13 C48_13 1_555 1_555
O38_6 C42_13 1_555 1_555
C43_13 C47_13 1_555 1_555
C44_13 H1_13 1_555 1_555
N6_13 H2_13 1_555 1_555
N6_13 H3_13 1_555 1_555
C43_13 H6_13 1_555 1_555
C46_13 H7_13 1_555 1_555
O18_8 Cu15_4 1_555 1_555
O19_8 Cu12_4 1_555 1_555
N7_6 C21_8 1_555 1_555
C19_8 C29_8 1_555 1_555
C20_8 O18_8 1_555 1_555
C21_8 C22_8 1_555 1_555
C22_8 C29_8 1_555 1_555
C29_8 C20_8 1_555 1_555
O21_12 Cu15_4 1_555 1_555
O22_12 Cu12_4 1_555 1_555
O39_4 C30_8 1_555 1_555
O40_4 C30_8 1_555 1_555
C30_8 C32_8 1_555 1_555
C31_8 C21_8 1_555 1_555
C32_8 C19_8 1_555 1_555
O19_8 C20_8 1_555 1_555
C31_8 C32_8 1_555 1_555
N7_6 H34_8 1_555 1_555
C19_8 H37_8 1_555 1_555
C22_8 H41_8 1_555 1_555
C31_8 H42_8 1_555 1_555
O7_11 Cu8_5 1_555 1_555
O8_11 Cu9_5 1_555 1_555
O29_8 Cu8_5 1_555 1_555
O36_6 C41_14 1_555 1_555
O31_8 Cu9_5 1_555 1_555
O41_6 C41_14 1_555 1_555
C41_14 C45_14 1_555 1_555
C42_14 O29_8 1_555 1_555
C43_14 C45_14 1_555 1_555
C44_14 C47_14 1_555 1_555
C45_14 C46_14 1_555 1_555
C46_14 C48_14 1_555 1_555
C47_14 C42_14 1_555 1_555
C48_14 C44_14 1_555 1_555
N6_14 C48_14 1_555 1_555
O31_8 C42_14 1_555 1_555
C43_14 C47_14 1_555 1_555
C44_14 H1_14 1_555 1_555
N6_14 H2_14 1_555 1_555
N6_14 H3_14 1_555 1_555
C43_14 H6_14 1_555 1_555
C46_14 H7_14 1_555 1_555
O7_12 Cu8_6 1_555 1_555
O8_12 Cu9_6 1_555 1_555
O35_8 Cu8_6 1_555 1_555
O38_8 Cu9_6 1_555 1_555
O37_3 C41_15 1_555 1_555
O42_3 C41_15 1_555 1_555
C41_15 C45_15 1_555 1_555
C42_15 O35_5 1_555 1_555
C43_15 C45_15 1_555 1_555
C44_15 C47_15 1_555 1_555
C45_15 C46_15 1_555 1_555
C46_15 C48_15 1_555 1_555
C47_15 C42_15 1_555 1_555
C48_15 C44_15 1_555 1_555
N6_15 C48_15 1_555 1_555
O38_5 C42_15 1_555 1_555
C43_15 C47_15 1_555 1_555
C44_15 H1_15 1_555 1_555
N6_15 H2_15 1_555 1_555
N6_15 H3_15 1_555 1_555
C43_15 H6_15 1_555 1_555
C46_15 H7_15 1_555 1_555
O36_5 C41_16 1_555 1_555
O41_5 C41_16 1_555 1_555
C41_16 C45_16 1_555 1_555
C42_16 O35_8 1_555 1_555
C43_16 C45_16 1_555 1_555
C44_16 C47_16 1_555 1_555
C45_16 C46_16 1_555 1_555
C46_16 C48_16 1_555 1_555
C47_16 C42_16 1_555 1_555
C48_16 C44_16 1_555 1_555
N6_16 C48_16 1_555 1_555
O38_8 C42_16 1_555 1_555
C43_16 C47_16 1_555 1_555
C44_16 H1_16 1_555 1_555
N6_16 H2_16 1_555 1_555
N6_16 H3_16 1_555 1_555
C43_16 H6_16 1_555 1_555
C46_16 H7_16 1_555 1_555

#END
