
###############################################################################
#
# This file contains modified crystal structure data generated from the
# MOF subset of the Cambridge Structural Database (CSD) v543 
# hosted by the Cambridge Crystallographic Data Centre (CCDC).
#
# This work is licensed under the Creative Commons
# Attribution-NonCommercial-ShareAlike 4.0 International License.
# To view a copy of this license, visit
# http://creativecommons.org/licenses/by-nc-sa/4.0/
# or send a letter to
# Creative Commons, PO Box 1866, Mountain View, CA 94042, USA.
#
# CIF created using the CSD Python API on 29 September 2022
# The structure has been converted into the P1 space group
# The structure has a 3D framework
# The original CSD entry IWEXAM is in the rhombohedral crystal system
# The framework has been calculated to contain at least 10.0% void space
# The void calculation uses a probe of radius 1.32A, grid spacing 0.4
# H atom positions have been added when not included in the experimental data
# Generated hydrogen atom positions removed from atoms on special positions
#
###############################################################################

data_IWEXAM
_chemical_formula_moiety         '(C648 H468 O383 Sc72)n'
_symmetry_cell_setting           triclinic
_symmetry_space_group_name_H-M   'P 1'
_symmetry_Int_Tables_number      1
_space_group_name_Hall           'P 1'
loop_
_symmetry_equiv_pos_site_id
_symmetry_equiv_pos_as_xyz
1 x,y,z
_cell_length_a                   31.750(5)
_cell_length_b                   31.750(5)
_cell_length_c                   38.800(5)
_cell_angle_alpha                90
_cell_angle_beta                 90
_cell_angle_gamma                120
_cell_volume                     33872.7
loop_
_atom_site_label
_atom_site_type_symbol
_atom_site_fract_x
_atom_site_fract_y
_atom_site_fract_z
Sc21 Sc 0.01590(6) 0.57175(4) 0.75346(3)
Sc1 Sc 0.33266(4) 0.60279(4) 0.39799(3)
Sc2 Sc 0.42825(4) 0.44415(4) 0.75346(3)
Sc3 Sc 0.51622(4) 0.54683(4) 0.79766(3)
Sc4 Sc 0.53672(4) 0.52502(4) 0.71285(3)
O1 O 0.47767(17) 0.50461(19) 0.68022(12)
O2 O 0.27687(16) 0.40432(18) 0.56563(13)
O3 O 0.59819(17) 0.54647(19) 0.74320(13)
O4 O 0.58969(17) 0.56120(18) 0.79808(13)
O5 O 0.58332(17) 0.72886(17) 0.55450(13)
O6 O 0.40563(17) 0.45586(19) 0.70441(13)
O7 O 0.38878(18) 0.62999(19) 0.43465(13)
O8 O 0.92620(17) 0.46960(18) 0.70484(12)
O9 O 0.94805(17) 0.54156(18) 0.72863(13)
O10 O 0.75083(18) 0.64796(18) 0.86531(13)
O11 O 0.42961(18) 0.71050(19) 0.43818(13)
O12 O 0.81744(18) 0.65708(19) 0.83838(12)
O13 O 0.26372(17) 0.37877(19) 0.62057(13)
O14 O 0.3311(2) 0.53509(19) 0.39698(16)
O15 O 0.35868(19) 0.37996(19) 0.75308(15)
O16 O 0.5826(2) 0.5462(2) 0.66863(14)
O17 O 0.5399(2) 0.5908(3) 0.84279(17)
O18 O 0.49376(15) 0.50543(15) 0.75495(10)
O19 O 0.333333 0.666667 0.39784(18)
O20 O 0.72347(16) 0.42640(16) 0.63848(12)
O21 O 0.76507(17) 0.38681(18) 0.64061(12)
O22 O 0.57247(17) 0.78272(18) 0.52456(12)
C1 C 0.7582(3) 0.4206(3) 0.64979(18)
C2 C 0.5598(2) 0.7406(3) 0.53340(18)
C3 C 0.6137(3) 0.5589(3) 0.7741(2)
C4 C 0.4311(3) 0.4795(3) 0.67944(19)
C5 C 0.7934(3) 0.4578(3) 0.67396(19)
C6 C 0.9178(3) 0.5027(3) 0.71323(18)
C7 C 0.4199(3) 0.6689(3) 0.44799(19)
C8 C 0.7715(3) 0.6410(3) 0.8406(2)
C9 C 0.4900(3) 0.7068(3) 0.49114(19)
C10 C 0.6663(3) 0.5735(3) 0.7794(2)
C11 C 0.7804(3) 0.4887(3) 0.6899(2)
C12 C 0.7618(3) 0.5980(4) 0.7857(2)
C13 C 0.8560(3) 0.5270(4) 0.7201(2)
C14 C 0.4294(3) 0.6210(3) 0.4942(2)
C15 C 0.3682(3) 0.4791(3) 0.5828(2)
C16 C 0.4515(3) 0.6156(3) 0.5227(2)
C17 C 0.4944(3) 0.6539(3) 0.5342(2)
C18 C 0.4348(3) 0.5147(3) 0.6218(2)
C19 C 0.7347(3) 0.5702(4) 0.7581(3)
C20 C 0.8109(3) 0.5225(4) 0.7136(3)
C21 C 0.4155(3) 0.5157(3) 0.5904(2)
C22 C 0.6880(3) 0.5592(3) 0.7547(2)
C23 C 0.4432(4) 0.5584(4) 0.5690(3)
C24 C 0.7540(4) 0.5479(5) 0.7334(3)
C25 C 0.7963(4) 0.5523(4) 0.7342(3)
C26 C 0.4277(4) 0.5690(4) 0.5407(3)
C27 C 0.2906(3) 0.4066(3) 0.59706(19)
C28 C 0.3406(3) 0.4435(3) 0.6064(2)
C29 C 0.3604(3) 0.4435(3) 0.63848(19)
C30 C 0.7411(3) 0.6124(3) 0.8106(2)
C31 C 0.4071(3) 0.4779(3) 0.6460(2)
C32 C 0.8701(3) 0.4974(3) 0.7042(2)
C33 C 0.4475(3) 0.6657(3) 0.4781(2)
C34 C 0.8376(3) 0.4608(3) 0.68192(19)
C35 C 0.5137(3) 0.6999(3) 0.5187(2)
C36 C 0.6924(3) 0.5988(3) 0.8081(2)
Sc8 Sc 0.47498(4) 0.01170(6) 0.71285(3)
O25 O 0.45353(19) 0.05172(25) 0.74320(13)
O26 O 0.43880(18) 0.02849(25) 0.79808(13)
O30 O 0.53040(18) 0.45660(25) 0.70484(12)
O31 O 0.45844(18) 0.40649(25) 0.72863(13)
O32 O 0.35204(18) 0.10287(25) 0.86531(13)
O34 O 0.34292(19) 0.16036(26) 0.83838(12)
O38 O 0.4538(2) 0.0364(3) 0.66863(14)
O41 O 0.57360(16) 0.29707(23) 0.63848(12)
O42 O 0.61319(18) 0.37826(25) 0.64061(12)
C37 C 0.5794(3) 0.3376(4) 0.64979(18)
C39 C 0.4411(3) 0.0548(4) 0.7741(2)
C41 C 0.5422(3) 0.3356(4) 0.67396(19)
C42 C 0.4973(3) 0.4151(4) 0.71323(18)
C44 C 0.3590(3) 0.1305(4) 0.8406(2)
C46 C 0.4265(3) 0.0928(4) 0.7794(2)
C47 C 0.5113(3) 0.2917(4) 0.6899(2)
C48 C 0.4020(4) 0.1638(5) 0.7857(2)
C49 C 0.4730(4) 0.3290(5) 0.7201(2)
C55 C 0.4298(4) 0.1645(5) 0.7581(3)
C56 C 0.4775(4) 0.2884(5) 0.7136(3)
C58 C 0.4408(3) 0.1288(4) 0.7547(2)
C60 C 0.4521(5) 0.2061(6) 0.7334(3)
C61 C 0.4477(4) 0.2440(6) 0.7342(3)
C66 C 0.3876(3) 0.1287(4) 0.8106(2)
C68 C 0.5026(3) 0.3727(4) 0.7042(2)
C70 C 0.5392(3) 0.3768(4) 0.68192(19)
C72 C 0.4012(3) 0.0936(4) 0.8081(2)
Sc9 Sc 0.27013(6) 0.66734(4) 0.39799(3)
Sc11 Sc 0.03061(6) 0.48378(4) 0.79766(3)
O44 O 0.02694(25) 0.52233(17) 0.68022(12)
O45 O 0.12745(24) 0.72313(16) 0.56563(13)
O48 O 0.14554(24) 0.41668(17) 0.55450(13)
O49 O 0.05023(25) 0.59437(17) 0.70441(13)
O50 O 0.24121(26) 0.61122(18) 0.43465(13)
O54 O 0.28089(26) 0.57039(18) 0.43818(13)
O56 O 0.11505(25) 0.73628(17) 0.62057(13)
O57 O 0.20399(28) 0.6689(2) 0.39698(16)
O58 O 0.02128(27) 0.64132(19) 0.75308(15)
O60 O 0.0509(4) 0.4601(2) 0.84279(17)
O61 O 0.01167(21) 0.50624(15) 0.75495(10)
O64 O 0.21025(25) 0.42753(17) 0.52456(12)
C74 C 0.1808(4) 0.4402(2) 0.53340(18)
C76 C 0.0484(4) 0.5689(3) 0.67944(19)
C79 C 0.2490(4) 0.5801(3) 0.44799(19)
C81 C 0.2168(4) 0.5100(3) 0.49114(19)
C86 C 0.1916(4) 0.5706(3) 0.4942(2)
C87 C 0.1109(4) 0.6318(3) 0.5828(2)
C88 C 0.1641(4) 0.5485(3) 0.5227(2)
C89 C 0.1595(4) 0.5056(3) 0.5342(2)
C90 C 0.0799(4) 0.5652(3) 0.6218(2)
C93 C 0.1002(4) 0.5845(3) 0.5904(2)
C95 C 0.1152(6) 0.5568(4) 0.5690(3)
C98 C 0.1413(6) 0.5723(4) 0.5407(3)
C99 C 0.1160(4) 0.7094(3) 0.59706(19)
C100 C 0.1029(4) 0.6594(3) 0.6064(2)
C101 C 0.0831(4) 0.6396(3) 0.63848(19)
C103 C 0.0708(4) 0.5929(3) 0.6460(2)
C105 C 0.2182(4) 0.5525(3) 0.4781(2)
C107 C 0.1862(4) 0.4863(3) 0.5187(2)
Sc13 Sc 0.39721(4) 0.72987(6) 0.39799(3)
Sc15 Sc 0.66734(4) 0.39721(4) 0.60201(3)
Sc17 Sc 0.60279(4) 0.27013(6) 0.60201(3)
Sc19 Sc 0.72987(6) 0.33266(4) 0.60201(3)
Sc23 Sc 0.11082(4) 0.34923(6) 0.57987(3)
Sc24 Sc 0.65077(6) 0.76158(4) 0.57987(3)
Sc26 Sc 0.77748(4) 0.68257(6) 0.91321(3)
Sc27 Sc 0.31743(6) 0.09492(4) 0.91321(3)
Sc29 Sc 0.15045(4) 0.78650(4) 0.53567(3)
Sc30 Sc 0.21350(4) 0.36394(6) 0.53567(3)
Sc32 Sc 0.63606(6) 0.84955(4) 0.53567(3)
Sc34 Sc 0.88016(4) 0.69728(6) 0.86901(3)
Sc35 Sc 0.30272(6) 0.18289(4) 0.86901(3)
Sc37 Sc 0.98830(6) 0.46328(4) 0.71285(3)
Sc38 Sc 0.12995(4) 0.80831(4) 0.62048(3)
Sc39 Sc 0.19169(4) 0.32163(6) 0.62048(3)
O66 O 0.07099(18) 0.46078(24) 0.76770(13)
O67 O 0.53922(24) 0.61020(16) 0.76770(13)
O68 O 0.08335(17) 0.60447(17) 0.77883(13)
O69 O 0.39553(17) 0.47887(24) 0.77883(13)
O72 O 0.54340(25) 0.07380(17) 0.70484(12)
O74 O 0.59351(25) 0.05195(17) 0.72863(13)
O75 O 0.58250(18) 0.01871(18) 0.80136(13)
O77 O 0.43620(25) 0.41750(18) 0.80136(13)
O79 O 0.28950(19) 0.71911(26) 0.43818(13)
O80 O 0.51589(18) 0.00959(19) 0.82829(12)
O82 O 0.49369(26) 0.48411(18) 0.82829(12)
O84 O 0.04544(19) 0.44838(25) 0.71276(13)
O85 O 0.55162(25) 0.59705(17) 0.71276(13)
O87 O 0.27653(16) 0.57360(16) 0.36152(12)
O89 O 0.29707(23) 0.72347(16) 0.36152(12)
O90 O 0.23493(17) 0.61319(18) 0.35939(12)
O91 O 0.38681(18) 0.62174(25) 0.35939(12)
O93 O 0.09420(17) 0.55061(18) 0.80877(12)
O94 O 0.44939(18) 0.54358(25) 0.80877(12)
H1 H 0.356377 0.359513 0.733005
H2 H 0.354231 0.361443 0.774697
H5 H 0.579962 0.571946 0.655942
H6 H 0.616816 0.55891 0.675984
H7 H 0.480207 0.583981 0.57715
H8 H 0.729781 0.525801 0.712752
H9 H 0.823372 0.579831 0.751187
H10 H 0.352796 0.478705 0.557644
H11 H 0.667167 0.538838 0.73226
H12 H 0.393937 0.54033 0.529645
H13 H 0.880673 0.554567 0.738175
H14 H 0.503568 0.742685 0.479816
H15 H 0.800056 0.608588 0.787685
H16 H 0.7458 0.486231 0.683634
H17 H 0.396966 0.589604 0.483945
H18 H 0.513672 0.648669 0.555489
H19 H 0.471849 0.54256 0.628128
H20 H 0.567307 0.623539 0.836863
H21 H 0.512589 0.593949 0.852346
H22 H 0.674885 0.607968 0.828558
H23 H 0.338523 0.415983 0.657542
H24 H 0.846829 0.434894 0.67091
H29 H 0.428054 0.00801597 0.655942
H30 H 0.44109 0.057906 0.675984
H33 H 0.445433 0.326105 0.738175
H35 H 0.391412 0.191468 0.787685
H36 H 0.513769 0.259569 0.683634
H39 H 0.474199 0.20398 0.712752
H40 H 0.461162 0.128329 0.73226
H44 H 0.420169 0.24354 0.751187
H47 H 0.392032 0.0669167 0.828558
H48 H 0.565106 0.411935 0.67091
H49 H 0.239116 0.496432 0.479816
H51 H 0.00313603 0.643623 0.733005
H52 H 0.00721254 0.645769 0.774697
H57 H 0.0562327 0.432693 0.836863
H58 H 0.0813599 0.487411 0.852346
H61 H 0.192638 0.603034 0.483945
H62 H 0.134997 0.486328 0.555489
H63 H 0.125908 0.647204 0.557644
H64 H 0.0707109 0.528151 0.628128
H65 H 0.103773 0.519793 0.57715
H66 H 0.146393 0.606063 0.529645
H67 H 0.0774608 0.661477 0.657542
Sc6 Sc 0.55585(4) 0.98410(6) 0.75346(3)
Sc7 Sc 0.45317(4) 0.96939(6) 0.79766(3)
O23 O 0.49539(19) 0.97306(25) 0.68022(12)
O24 O 0.59568(18) 0.87255(24) 0.56563(13)
O27 O 0.27114(17) 0.85446(24) 0.55450(13)
O28 O 0.54414(19) 0.94977(25) 0.70441(13)
O29 O 0.37001(19) 0.75879(26) 0.43465(13)
O35 O 0.62123(19) 0.88495(25) 0.62057(13)
O36 O 0.46491(19) 0.79601(28) 0.39698(16)
O37 O 0.62004(19) 0.97872(27) 0.75308(15)
O39 O 0.4092(3) 0.9491(4) 0.84279(17)
O40 O 0.49457(15) 0.98833(21) 0.75495(10)
O43 O 0.21728(18) 0.78975(25) 0.52456(12)
C38 C 0.2594(3) 0.8192(4) 0.53340(18)
C40 C 0.5205(3) 0.9516(4) 0.67944(19)
C43 C 0.3311(3) 0.7510(4) 0.44799(19)
C45 C 0.2932(3) 0.7832(4) 0.49114(19)
C50 C 0.3790(3) 0.8084(4) 0.4942(2)
C51 C 0.5209(3) 0.8891(4) 0.5828(2)
C52 C 0.3844(3) 0.8359(4) 0.5227(2)
C53 C 0.3461(3) 0.8405(4) 0.5342(2)
C54 C 0.4853(3) 0.9201(4) 0.6218(2)
C57 C 0.4843(3) 0.8998(4) 0.5904(2)
C59 C 0.4416(4) 0.8848(6) 0.5690(3)
C62 C 0.4310(4) 0.8587(6) 0.5407(3)
C63 C 0.5934(3) 0.8840(4) 0.59706(19)
C64 C 0.5565(3) 0.8971(4) 0.6064(2)
C65 C 0.5565(3) 0.9169(4) 0.63848(19)
C67 C 0.5221(3) 0.9292(4) 0.6460(2)
C69 C 0.3343(3) 0.7818(4) 0.4781(2)
C71 C 0.3001(3) 0.8138(4) 0.5187(2)
Sc22 Sc 0.23842(4) 0.88918(4) 0.57987(3)
Sc40 Sc 0.67837(6) 0.87005(4) 0.62048(3)
O65 O 0.38980(16) 0.92901(18) 0.76770(13)
O70 O 0.52113(24) 0.91665(17) 0.77883(13)
O83 O 0.40295(17) 0.95456(19) 0.71276(13)
O88 O 0.42640(16) 0.70293(23) 0.36152(12)
O92 O 0.37826(25) 0.76507(17) 0.35939(12)
O95 O 0.45642(25) 0.90580(17) 0.80877(12)
H25 H 0.640487 0.996864 0.733005
H26 H 0.638557 0.992787 0.774697
H27 H 0.376461 0.943767 0.836863
H28 H 0.406051 0.91864 0.852346
H34 H 0.257315 0.760884 0.479816
H37 H 0.351331 0.865003 0.555489
H38 H 0.416019 0.896227 0.57715
H41 H 0.521295 0.874092 0.557644
H42 H 0.410396 0.807362 0.483945
H43 H 0.45744 0.929289 0.628128
H45 H 0.45967 0.853607 0.529645
H46 H 0.584017 0.922539 0.657542
O46 O 0.94828(25) 0.40181(17) 0.74320(13)
O47 O 0.97151(25) 0.41031(17) 0.79808(13)
O53 O 0.89713(25) 0.24917(18) 0.86531(13)
O55 O 0.83964(26) 0.18256(18) 0.83838(12)
O59 O 0.9636(3) 0.4174(2) 0.66863(14)
O62 O 0.70293(23) 0.27653(16) 0.63848(12)
O63 O 0.62174(25) 0.23493(17) 0.64061(12)
C73 C 0.6624(4) 0.2418(3) 0.64979(18)
C75 C 0.9452(4) 0.3863(3) 0.7741(2)
C77 C 0.6644(4) 0.2066(3) 0.67396(19)
C78 C 0.5849(4) 0.0822(3) 0.71323(18)
C80 C 0.8695(4) 0.2285(3) 0.8406(2)
C82 C 0.9072(4) 0.3337(3) 0.7794(2)
C83 C 0.7083(4) 0.2196(3) 0.6899(2)
C84 C 0.8362(5) 0.2382(3) 0.7857(2)
C85 C 0.6710(5) 0.1440(3) 0.7201(2)
C91 C 0.8355(5) 0.2653(3) 0.7581(3)
C92 C 0.7116(5) 0.1891(3) 0.7136(3)
C94 C 0.8712(4) 0.3120(3) 0.7547(2)
C96 C 0.7939(6) 0.2460(4) 0.7334(3)
C97 C 0.7560(6) 0.2037(4) 0.7342(3)
C102 C 0.8713(4) 0.2589(3) 0.8106(2)
C104 C 0.6273(4) 0.1299(3) 0.7042(2)
C106 C 0.6232(4) 0.1624(3) 0.68192(19)
C108 C 0.9064(4) 0.3076(3) 0.8081(2)
Sc25 Sc 0.90508(4) 0.22252(4) 0.91321(3)
Sc33 Sc 0.81711(4) 0.11984(4) 0.86901(3)
O76 O 0.98129(18) 0.56380(25) 0.80136(13)
O81 O 0.99041(19) 0.50631(26) 0.82829(12)
H50 H 0.808532 0.199944 0.787685
H53 H 0.991984 0.420038 0.655942
H54 H 0.942094 0.383184 0.675984
H59 H 0.740431 0.2542 0.683634
H60 H 0.673895 0.119327 0.738175
H68 H 0.871671 0.332833 0.73226
H69 H 0.79602 0.270219 0.712752
H70 H 0.75646 0.176628 0.751187
H71 H 0.588065 0.153171 0.67091
H72 H 0.933083 0.325115 0.828558
Sc26_2 Sc 0.44415(4) 0.01590(6) 0.24654(3)
Sc34_2 Sc 0.54683(4) 0.03061(6) 0.20234(3)
O5_2 O 0.24999(17) 0.06219(17) 0.88783(13)
O11_2 O 0.09628(18) 0.04383(19) 0.77151(13)
O19_2 O -0.000000 0.000000 0.73117(18)
O22_2 O 0.23914(17) 0.11605(18) 0.85789(12)
C2_2 C 0.2265(2) 0.0739(3) 0.86673(18)
C7_2 C 0.0866(3) 0.0022(3) 0.78132(19)
C9_2 C 0.1567(3) 0.0401(3) 0.82447(19)
C35_2 C 0.1804(3) 0.0332(3) 0.8520(2)
Sc13_2 Sc 0.06388(4) 0.06320(6) 0.73132(3)
H14_2 H 0.170235 0.0760181 0.813149
Sc2_2 Sc 0.09492(4) 0.77748(4) 0.08679(3)
Sc3_2 Sc 0.18289(4) 0.88016(4) 0.13099(3)
Sc4_2 Sc 0.20339(4) 0.85835(4) 0.04618(3)
O1_2 O 0.14434(17) 0.83794(19) 0.01355(12)
O3_2 O 0.26486(17) 0.87980(19) 0.07653(13)
O4_2 O 0.25636(17) 0.89453(18) 0.13141(13)
O6_2 O 0.07230(17) 0.78919(19) 0.03774(13)
O8_2 O 0.59287(17) 0.80293(18) 0.03817(12)
O9_2 O 0.61472(17) 0.87489(18) 0.06196(13)
O10_2 O 0.41750(18) 0.98129(18) 0.19864(13)
O12_2 O 0.48411(18) 0.99041(19) 0.17171(12)
O15_2 O 0.02535(19) 0.71329(19) 0.08641(15)
O16_2 O 0.2493(2) 0.8795(2) 0.00196(14)
O17_2 O 0.2066(2) 0.9241(3) 0.17612(17)
O18_2 O 0.16043(15) 0.83876(15) 0.08828(10)
C3_2 C 0.2804(3) 0.8922(3) 0.1074(2)
C4_2 C 0.0978(3) 0.8128(3) 0.01277(19)
C5_2 C 0.4601(3) 0.7911(3) 0.00729(19)
C6_2 C 0.5845(3) 0.8360(3) 0.04656(18)
C8_2 C 0.4382(3) 0.9743(3) 0.1739(2)
C10_2 C 0.3330(3) 0.9068(3) 0.1127(2)
C11_2 C 0.4471(3) 0.8220(3) 0.0232(2)
C12_2 C 0.4285(3) 0.9313(4) 0.1190(2)
C13_2 C 0.5227(3) 0.8603(4) 0.0534(2)
C19_2 C 0.4014(3) 0.9035(4) 0.0914(3)
C20_2 C 0.4776(3) 0.8558(4) 0.0469(3)
C22_2 C 0.3547(3) 0.8925(3) 0.0880(2)
C24_2 C 0.4207(4) 0.8812(5) 0.0667(3)
C25_2 C 0.4630(4) 0.8856(4) 0.0675(3)
C30_2 C 0.4078(3) 0.9457(3) 0.1439(2)
C32_2 C 0.5368(3) 0.8307(3) 0.0375(2)
C34_2 C 0.5043(3) 0.7941(3) 0.01525(19)
C36_2 C 0.3591(3) 0.9321(3) 0.1414(2)
Sc6_2 Sc 0.22252(4) 0.31743(6) 0.08679(3)
Sc7_2 Sc 0.11984(4) 0.30272(6) 0.13099(3)
Sc8_2 Sc 0.14165(4) 0.34503(6) 0.04618(3)
O23_2 O 0.16206(19) 0.30639(25) 0.01355(12)
O25_2 O 0.12020(19) 0.38505(25) 0.07653(13)
O26_2 O 0.10547(18) 0.36182(25) 0.13141(13)
O28_2 O 0.21081(19) 0.28310(25) 0.03774(13)
O30_2 O 0.19707(18) 0.78993(25) 0.03817(12)
O31_2 O 0.12511(18) 0.73982(25) 0.06196(13)
O32_2 O 0.01871(18) 0.43620(25) 0.19864(13)
O34_2 O 0.00959(19) 0.49369(26) 0.17171(12)
O37_2 O 0.28671(19) 0.31205(27) 0.08641(15)
O38_2 O 0.1205(2) 0.3697(3) 0.00196(14)
O39_2 O 0.0759(3) 0.2824(4) 0.17612(17)
O40_2 O 0.16124(15) 0.32166(21) 0.08828(10)
C39_2 C 0.1078(3) 0.3881(4) 0.1074(2)
C40_2 C 0.1872(3) 0.2849(4) 0.01277(19)
C41_2 C 0.2089(3) 0.6689(4) 0.00729(19)
C42_2 C 0.1640(3) 0.7484(4) 0.04656(18)
C44_2 C 0.0257(3) 0.4638(4) 0.1739(2)
C46_2 C 0.0932(3) 0.4261(4) 0.1127(2)
C47_2 C 0.1780(3) 0.6250(4) 0.0232(2)
C48_2 C 0.0687(4) 0.4971(5) 0.1190(2)
C49_2 C 0.1397(4) 0.6623(5) 0.0534(2)
C55_2 C 0.0965(4) 0.4978(5) 0.0914(3)
C56_2 C 0.1442(4) 0.6217(5) 0.0469(3)
C58_2 C 0.1075(3) 0.4621(4) 0.0880(2)
C60_2 C 0.1188(5) 0.5394(6) 0.0667(3)
C61_2 C 0.1144(4) 0.5773(6) 0.0675(3)
C66_2 C 0.0543(3) 0.4620(4) 0.1439(2)
C68_2 C 0.1693(3) 0.7060(4) 0.0375(2)
C70_2 C 0.2059(3) 0.7101(4) 0.01525(19)
C72_2 C 0.0679(3) 0.4269(4) 0.1414(2)
Sc21_2 Sc 0.68257(6) 0.90508(4) 0.08679(3)
Sc37_2 Sc 0.65497(6) 0.79661(4) 0.04618(3)
O65_2 O 0.05646(16) 0.26235(18) 0.10104(13)
O67_2 O 0.20588(24) 0.94354(16) 0.10104(13)
O69_2 O 0.06219(17) 0.81221(24) 0.11217(13)
O70_2 O 0.18779(24) 0.24999(17) 0.11217(13)
O72_2 O 0.21007(25) 0.40713(17) 0.03817(12)
O74_2 O 0.26018(25) 0.38528(17) 0.06196(13)
O75_2 O 0.24917(18) 0.35204(18) 0.13469(13)
O77_2 O 0.10287(25) 0.75083(18) 0.13469(13)
O80_2 O 0.18256(18) 0.34292(19) 0.16162(12)
O82_2 O 0.16036(26) 0.81744(18) 0.16162(12)
O83_2 O 0.06961(17) 0.28790(19) 0.04610(13)
O85_2 O 0.21828(25) 0.93039(17) 0.04610(13)
O94_2 O 0.11605(18) 0.87692(25) 0.14211(12)
O95_2 O 0.12308(25) 0.23914(17) 0.14211(12)
H1_2 H 0.0230436 0.692846 0.066338
H2_2 H 0.0208975 0.694777 0.108031
H6_2 H 0.283483 0.892244 0.00931697
H8_2 H 0.396447 0.859134 0.0460851
H9_2 H 0.490038 0.913165 0.0845199
H11_2 H 0.333833 0.872171 0.0655933
H13_2 H 0.547339 0.8879 0.0715084
H15_2 H 0.466722 0.941921 0.121018
H16_2 H 0.412467 0.819564 0.0169678
H20_2 H 0.233973 0.956873 0.170197
H21_2 H 0.179256 0.927283 0.185679
H22_2 H 0.341551 0.941301 0.161891
H24_2 H 0.513495 0.768227 0.00424292
H25_2 H 0.307154 0.330197 0.066338
H26_2 H 0.305223 0.326121 0.108031
H27_2 H 0.0431275 0.277101 0.170197
H28_2 H 0.0727174 0.251973 0.185679
H30_2 H 0.107756 0.391239 0.00931697
H33_2 H 0.1121 0.659439 0.0715084
H35_2 H 0.0580787 0.524801 0.121018
H36_2 H 0.180436 0.592903 0.0169678
H39_2 H 0.140866 0.537313 0.0460851
H40_2 H 0.127829 0.461662 0.0655933
H44_2 H 0.0868354 0.576874 0.0845199
H47_2 H 0.0586986 0.40025 0.161891
H48_2 H 0.231773 0.745268 0.00424292
O7_2 O 0.05545(18) 0.96332(19) 0.76798(13)
O19_3 O -0.000000 1.000000 0.73117(18)
O20_2 O 0.39014(16) 0.75973(16) 0.97181(12)
O21_2 O 0.43174(17) 0.72014(18) 0.97394(12)
C1_2 C 0.4249(3) 0.7539(3) 0.98312(18)
C14_2 C 0.0961(3) 0.9543(3) 0.8275(2)
C15_2 C 0.0349(3) 0.8124(3) 0.9161(2)
C16_2 C 0.1182(3) 0.9489(3) 0.8560(2)
C17_2 C 0.1611(3) 0.9872(3) 0.8675(2)
C18_2 C 0.1015(3) 0.8480(3) 0.9551(2)
C21_2 C 0.0822(3) 0.8490(3) 0.9237(2)
C23_2 C 0.1099(4) 0.8917(4) 0.9023(3)
C26_2 C 0.0944(4) 0.9023(4) 0.8740(3)
C28_2 C 0.0073(3) 0.7768(3) 0.9397(2)
C29_2 C 0.0271(3) 0.7768(3) 0.97181(19)
C31_2 C 0.0738(3) 0.8112(3) 0.9793(2)
C33_2 C 0.1142(3) 0.9990(3) 0.8114(2)
O24_2 O 0.26235(18) 0.20588(24) 0.89896(13)
O29_2 O 0.03668(19) 0.09212(26) 0.76798(13)
O35_2 O 0.28790(19) 0.21828(25) 0.95390(13)
O36_2 O 0.13158(19) 0.12934(28) 0.73031(16)
O41_2 O 0.24027(16) 0.63040(23) 0.97181(12)
O42_2 O 0.27986(18) 0.71159(25) 0.97394(12)
C37_2 C 0.2461(3) 0.6709(4) 0.98312(18)
C50_2 C 0.0457(3) 0.1417(4) 0.8275(2)
C51_2 C 0.1876(3) 0.2224(4) 0.9161(2)
C52_2 C 0.0511(3) 0.1692(4) 0.8560(2)
C53_2 C 0.0128(3) 0.1738(4) 0.8675(2)
C54_2 C 0.1520(3) 0.2534(4) 0.9551(2)
C57_2 C 0.1510(3) 0.2331(4) 0.9237(2)
C59_2 C 0.1083(4) 0.2181(6) 0.9023(3)
C62_2 C 0.0977(4) 0.1920(6) 0.8740(3)
C63_2 C 0.2601(3) 0.2173(4) 0.93039(19)
C64_2 C 0.2232(3) 0.2304(4) 0.9397(2)
C65_2 C 0.2232(3) 0.2502(4) 0.97181(19)
C67_2 C 0.1888(3) 0.2625(4) 0.9793(2)
C69_2 C 0.0010(3) 0.1151(4) 0.8114(2)
Sc15_2 Sc 0.33401(4) 0.73054(4) 0.93534(3)
Sc17_2 Sc 0.26946(4) 0.60346(6) 0.93534(3)
Sc19_2 Sc 0.39654(6) 0.66599(4) 0.93534(3)
Sc40_2 Sc 0.34503(6) 0.20339(4) 0.95382(3)
O88_2 O 0.09307(16) 0.03626(23) 0.69485(12)
O91_2 O 0.05348(18) 0.95507(25) 0.69272(12)
O92_2 O 0.04493(25) 0.09840(17) 0.69272(12)
H5_2 H 0.246629 0.90528 0.989275
H7_2 H 0.146874 0.917314 0.910484
H10_2 H 0.019463 0.812038 0.890977
H12_2 H 0.060604 0.873663 0.862978
H17_2 H 0.0636325 0.922937 0.817278
H18_2 H 0.180339 0.982002 0.888822
H19_2 H 0.138516 0.875893 0.961462
H23_2 H 0.0051893 0.749317 0.990875
H29_2 H 0.0947202 0.341349 0.989275
H37_2 H 0.0179976 0.198336 0.888822
H38_2 H 0.0826861 0.22956 0.910484
H41_2 H 0.187962 0.207425 0.890977
H42_2 H 0.0770625 0.140695 0.817278
H43_2 H 0.124107 0.262622 0.961462
H45_2 H 0.126337 0.186941 0.862978
H46_2 H 0.250683 0.255872 0.990875
O19_4 O 1.000000 0.000000 0.73117(18)
Sc9_2 Sc 0.93680(6) 0.00067(4) 0.73132(3)
O45_2 O 0.79412(24) 0.05646(16) 0.89896(13)
O56_2 O 0.78172(25) 0.06961(17) 0.95390(13)
O57_2 O 0.87066(28) 0.0022(2) 0.73031(16)
C99_2 C 0.7827(4) 0.0427(3) 0.93039(19)
Sc38_2 Sc 0.79661(4) 0.14165(4) 0.95382(3)
O79_2 O 0.95617(19) 0.05244(26) 0.77151(13)
O89_2 O 0.96374(23) 0.05680(16) 0.69485(12)
Sc11_2 Sc 0.69728(6) 0.81711(4) 0.13099(3)
O44_2 O 0.69361(25) 0.85566(17) 0.01355(12)
O46_2 O 0.61495(25) 0.73514(17) 0.07653(13)
O47_2 O 0.63818(25) 0.74364(17) 0.13141(13)
O49_2 O 0.71690(25) 0.92770(17) 0.03774(13)
O53_2 O 0.56380(25) 0.58250(18) 0.19864(13)
O55_2 O 0.50631(26) 0.51589(18) 0.17171(12)
O58_2 O 0.68795(27) 0.97465(19) 0.08641(15)
O59_2 O 0.6303(3) 0.7507(2) 0.00196(14)
O60_2 O 0.7176(4) 0.7934(2) 0.17612(17)
O61_2 O 0.67834(21) 0.83957(15) 0.08828(10)
C75_2 C 0.6119(4) 0.7196(3) 0.1074(2)
C76_2 C 0.7151(4) 0.9022(3) 0.01277(19)
C77_2 C 0.3311(4) 0.5399(3) 0.00729(19)
C78_2 C 0.2516(4) 0.4155(3) 0.04656(18)
C80_2 C 0.5362(4) 0.5618(3) 0.1739(2)
C82_2 C 0.5739(4) 0.6670(3) 0.1127(2)
C83_2 C 0.3750(4) 0.5529(3) 0.0232(2)
C84_2 C 0.5029(5) 0.5715(3) 0.1190(2)
C85_2 C 0.3377(5) 0.4773(3) 0.0534(2)
C91_2 C 0.5022(5) 0.5986(3) 0.0914(3)
C92_2 C 0.3783(5) 0.5224(3) 0.0469(3)
C94_2 C 0.5379(4) 0.6453(3) 0.0880(2)
C96_2 C 0.4606(6) 0.5793(4) 0.0667(3)
C97_2 C 0.4227(6) 0.5370(4) 0.0675(3)
C102_2 C 0.5380(4) 0.5922(3) 0.1439(2)
C104_2 C 0.2940(4) 0.4632(3) 0.0375(2)
C106_2 C 0.2899(4) 0.4957(3) 0.01525(19)
C108_2 C 0.5731(4) 0.6409(3) 0.1414(2)
Sc25_2 Sc 0.57175(4) 0.55585(4) 0.24654(3)
Sc27_2 Sc 0.98410(6) 0.42825(4) 0.24654(3)
Sc33_2 Sc 0.48378(4) 0.45317(4) 0.20234(3)
Sc35_2 Sc 0.96939(6) 0.51622(4) 0.20234(3)
O66_2 O 0.73765(18) 0.79412(24) 0.10104(13)
O68_2 O 0.75001(17) 0.93781(17) 0.11217(13)
O76_2 O 0.64796(18) 0.89713(25) 0.13469(13)
O81_2 O 0.65708(19) 0.83964(26) 0.16162(12)
O84_2 O 0.71210(19) 0.78172(25) 0.04610(13)
O93_2 O 0.76086(17) 0.88395(18) 0.14211(12)
H50_2 H 0.475199 0.533278 0.121018
H51_2 H 0.669803 0.976956 0.066338
H52_2 H 0.673879 0.979102 0.108031
H54_2 H 0.608761 0.716517 0.00931697
H57_2 H 0.722899 0.766027 0.170197
H58_2 H 0.748027 0.820744 0.185679
H59_2 H 0.407097 0.587533 0.0169678
H60_2 H 0.340561 0.452661 0.0715084
H68_2 H 0.538338 0.666167 0.0655933
H69_2 H 0.462687 0.603553 0.0460851
H70_2 H 0.423126 0.509962 0.0845199
H71_2 H 0.254732 0.486505 0.00424292
H72_2 H 0.59975 0.658449 0.161891
Sc1_2 Sc 0.99933(4) 0.93612(4) 0.73132(3)
O2_2 O 0.94354(16) 0.73765(18) 0.89896(13)
O13_2 O 0.93039(17) 0.71210(19) 0.95390(13)
O14_2 O 0.9978(2) 0.86842(19) 0.73031(16)
O19_5 O 1.000000 1.000000 0.73117(18)
C27_2 C 0.9573(3) 0.7399(3) 0.93039(19)
O27_2 O 0.93781(17) 0.18779(24) 0.88783(13)
O43_2 O 0.88395(18) 0.12308(25) 0.85789(12)
C38_2 C 0.9261(3) 0.1525(4) 0.86673(18)
C43_2 C 0.9978(3) 0.0843(4) 0.78132(19)
C45_2 C 0.9599(3) 0.1165(4) 0.82447(19)
C71_2 C 0.9668(3) 0.1471(4) 0.8520(2)
O48_2 O 0.81221(24) 0.75001(17) 0.88783(13)
O50_2 O 0.90788(26) 0.94455(18) 0.76798(13)
O54_2 O 0.94756(26) 0.90372(18) 0.77151(13)
O62_2 O 0.36960(23) 0.60986(16) 0.97181(12)
O63_2 O 0.28841(25) 0.56826(17) 0.97394(12)
O64_2 O 0.87692(25) 0.76086(17) 0.85789(12)
C73_2 C 0.3291(4) 0.5751(3) 0.98312(18)
C74_2 C 0.8475(4) 0.7735(2) 0.86673(18)
C79_2 C 0.9157(4) 0.9134(3) 0.78132(19)
C81_2 C 0.8835(4) 0.8433(3) 0.82447(19)
C86_2 C 0.8583(4) 0.9039(3) 0.8275(2)
C87_2 C 0.7776(4) 0.9651(3) 0.9161(2)
C88_2 C 0.8308(4) 0.8818(3) 0.8560(2)
C89_2 C 0.8262(4) 0.8389(3) 0.8675(2)
C90_2 C 0.7466(4) 0.8985(3) 0.9551(2)
C93_2 C 0.7669(4) 0.9178(3) 0.9237(2)
C95_2 C 0.7819(6) 0.8901(4) 0.9023(3)
C98_2 C 0.8080(6) 0.9056(4) 0.8740(3)
C100_2 C 0.7696(4) 0.9927(3) 0.9397(2)
C101_2 C 0.7498(4) 0.9729(3) 0.97181(19)
C103_2 C 0.7375(4) 0.9262(3) 0.9793(2)
C105_2 C 0.8849(4) 0.8858(3) 0.8114(2)
C107_2 C 0.8529(4) 0.8196(3) 0.8520(2)
Sc39_2 Sc 0.85835(4) 0.65497(6) 0.95382(3)
O87_2 O 0.94320(16) 0.90693(16) 0.69485(12)
O90_2 O 0.90160(17) 0.94652(18) 0.69272(12)
H3 H 0.990051 0.853744 0.753695
H4 H 0.972498 0.846174 0.713808
H34_2 H 0.923982 0.094217 0.813149
H49_2 H 0.905783 0.829765 0.813149
H53_2 H 0.658651 0.753371 0.989275
H55 H 0.851297 0.984084 0.70985
H56 H 0.851795 0.986865 0.75159
H61_2 H 0.859305 0.936367 0.817278
H62_2 H 0.801664 0.819661 0.888822
H63_2 H 0.792575 0.980537 0.890977
H64_2 H 0.737378 0.861484 0.961462
H65_2 H 0.77044 0.853126 0.910484
H66_2 H 0.813059 0.939396 0.862978
H67_2 H 0.744128 0.994811 0.990875
H31 H 0.863693 0.00994873 0.753695
H32 H 0.873676 0.0275019 0.713808
H55_2 H 0.0159159 0.867213 0.70985
H56_2 H 0.0131353 0.86493 0.75159
O8_3 O 0.25953(17) 0.13627(18) 0.37151(12)
O9_3 O 0.28138(17) 0.20823(18) 0.39530(13)
O10_3 O 0.08416(18) 0.31463(18) 0.53198(13)
O12_3 O 0.15077(18) 0.32375(19) 0.50505(12)
O20_3 O 0.05680(16) 0.09307(16) 0.30515(12)
O21_3 O 0.09840(17) 0.05348(18) 0.30728(12)
C1_3 C 0.0915(3) 0.0873(3) 0.31646(18)
C5_3 C 0.1267(3) 0.1245(3) 0.34063(19)
C6_3 C 0.2511(3) 0.1694(3) 0.37990(18)
C8_3 C 0.1048(3) 0.3077(3) 0.5073(2)
C11_3 C 0.1137(3) 0.1554(3) 0.3566(2)
C12_3 C 0.0951(3) 0.2647(4) 0.4524(2)
C13_3 C 0.1893(3) 0.1937(4) 0.3868(2)
C19_3 C 0.0680(3) 0.2369(4) 0.4248(3)
C20_3 C 0.1442(3) 0.1892(4) 0.3803(3)
C22_3 C 0.0213(3) 0.2259(3) 0.4214(2)
C24_3 C 0.0873(4) 0.2146(5) 0.4001(3)
C25_3 C 0.1296(4) 0.2190(4) 0.4009(3)
C30_3 C 0.0744(3) 0.2791(3) 0.4773(2)
C32_3 C 0.2034(3) 0.1641(3) 0.3709(2)
C34_3 C 0.1709(3) 0.1275(3) 0.34859(19)
C36_3 C 0.0257(3) 0.2655(3) 0.4748(2)
Sc15_3 Sc 0.00067(4) 0.06388(4) 0.26868(3)
Sc21_3 Sc 0.34923(6) 0.23842(4) 0.42013(3)
Sc37_3 Sc 0.32163(6) 0.12995(4) 0.37952(3)
H8_3 H 0.0631139 0.192467 0.379418
H9_3 H 0.156705 0.246498 0.417853
H11_3 H 0.000500102 0.205505 0.398927
H13_3 H 0.214006 0.221234 0.404842
H15_3 H 0.133389 0.275255 0.454352
H16_3 H 0.0791337 0.152898 0.350301
H22_3 H 0.00821809 0.274635 0.495224
H24_3 H 0.180162 0.10156 0.337576
Sc19_3 Sc 0.06320(6) 0.99933(4) 0.26868(3)
Sc40_3 Sc 0.01170(6) 0.53672(4) 0.28715(3)
Sc1_3 Sc 0.66599(4) 0.26946(4) 0.06466(3)
Sc2_3 Sc 0.76158(4) 0.11082(4) 0.42013(3)
Sc3_3 Sc 0.84955(4) 0.21350(4) 0.46433(3)
Sc4_3 Sc 0.87005(4) 0.19169(4) 0.37952(3)
O1_3 O 0.81100(17) 0.17128(19) 0.34689(12)
O2_3 O 0.61020(16) 0.07099(18) 0.23230(13)
O3_3 O 0.93152(17) 0.21314(19) 0.40987(13)
O4_3 O 0.92302(17) 0.22787(18) 0.46475(13)
O5_3 O 0.91665(17) 0.39553(17) 0.22117(13)
O6_3 O 0.73896(17) 0.12253(19) 0.37108(13)
O7_3 O 0.72211(18) 0.29666(19) 0.10132(13)
O11_3 O 0.76294(18) 0.37717(19) 0.10485(13)
O13_3 O 0.59705(17) 0.04544(19) 0.28724(13)
O14_3 O 0.6644(2) 0.20176(19) 0.06365(16)
O15_3 O 0.69201(19) 0.04663(19) 0.41975(15)
O16_3 O 0.9159(2) 0.2129(2) 0.33530(14)
O17_3 O 0.8732(2) 0.2575(3) 0.50946(17)
O18_3 O 0.82709(15) 0.17210(15) 0.42162(10)
O19_6 O 0.666666 0.333334 0.06451(18)
O22_3 O 0.90580(17) 0.44939(18) 0.19123(12)
C2_3 C 0.8931(2) 0.4073(3) 0.20007(18)
C3_3 C 0.9470(3) 0.2256(3) 0.4408(2)
C4_3 C 0.7644(3) 0.1462(3) 0.34611(19)
C7_3 C 0.7532(3) 0.3356(3) 0.11466(19)
C9_3 C 0.8233(3) 0.3735(3) 0.15781(19)
C10_3 C 0.9996(3) 0.2402(3) 0.4461(2)
C14_3 C 0.7627(3) 0.2877(3) 0.1609(2)
C15_3 C 0.7015(3) 0.1458(3) 0.2495(2)
C16_3 C 0.7848(3) 0.2823(3) 0.1894(2)
C17_3 C 0.8277(3) 0.3206(3) 0.2009(2)
C18_3 C 0.7681(3) 0.1814(3) 0.2885(2)
C21_3 C 0.7488(3) 0.1824(3) 0.2571(2)
C23_3 C 0.7765(4) 0.2251(4) 0.2357(3)
C26_3 C 0.7610(4) 0.2357(4) 0.2074(3)
C27_3 C 0.6239(3) 0.0733(3) 0.26373(19)
C28_3 C 0.6739(3) 0.1102(3) 0.2731(2)
C29_3 C 0.6937(3) 0.1102(3) 0.30515(19)
C31_3 C 0.7404(3) 0.1446(3) 0.3127(2)
C33_3 C 0.7808(3) 0.3324(3) 0.1448(2)
C35_3 C 0.8470(3) 0.3666(3) 0.1854(2)
O30_3 O 0.86373(18) 0.12327(25) 0.37151(12)
O31_3 O 0.79177(18) 0.07316(25) 0.39530(13)
O42_3 O 0.94652(18) 0.04493(25) 0.30728(12)
C37_3 C 0.9127(3) 0.0043(4) 0.31646(18)
C41_3 C 0.8755(3) 0.0023(4) 0.34063(19)
C42_3 C 0.8306(3) 0.0818(4) 0.37990(18)
C68_3 C 0.8359(3) 0.0394(4) 0.3709(2)
C70_3 C 0.8725(3) 0.0435(4) 0.34859(19)
Sc9_3 Sc 0.60346(6) 0.33401(4) 0.06466(3)
Sc11_3 Sc 0.36394(6) 0.15045(4) 0.46433(3)
O44_3 O 0.36027(25) 0.18900(17) 0.34689(12)
O45_3 O 0.46078(24) 0.38980(16) 0.23230(13)
O46_3 O 0.28161(25) 0.06848(17) 0.40987(13)
O47_3 O 0.30484(25) 0.07698(17) 0.46475(13)
O48_3 O 0.47887(24) 0.08335(17) 0.22117(13)
O49_3 O 0.38356(25) 0.26104(17) 0.37108(13)
O50_3 O 0.57454(26) 0.27789(18) 0.10132(13)
O54_3 O 0.61422(26) 0.23706(18) 0.10485(13)
O56_3 O 0.44838(25) 0.40295(17) 0.28724(13)
O57_3 O 0.53732(28) 0.3356(2) 0.06365(16)
O58_3 O 0.35461(27) 0.30799(19) 0.41975(15)
O59_3 O 0.2969(3) 0.0841(2) 0.33530(14)
O60_3 O 0.3842(4) 0.1268(2) 0.50946(17)
O61_3 O 0.34500(21) 0.17291(15) 0.42162(10)
O64_3 O 0.54358(25) 0.09420(17) 0.19123(12)
C74_3 C 0.5141(4) 0.1069(2) 0.20007(18)
C75_3 C 0.2785(4) 0.0530(3) 0.4408(2)
C76_3 C 0.3817(4) 0.2356(3) 0.34611(19)
C79_3 C 0.5823(4) 0.2468(3) 0.11466(19)
C81_3 C 0.5501(4) 0.1767(3) 0.15781(19)
C82_3 C 0.2405(4) 0.0004(3) 0.4461(2)
C86_3 C 0.5249(4) 0.2373(3) 0.1609(2)
C87_3 C 0.4442(4) 0.2985(3) 0.2495(2)
C88_3 C 0.4974(4) 0.2152(3) 0.1894(2)
C89_3 C 0.4928(4) 0.1723(3) 0.2009(2)
C90_3 C 0.4132(4) 0.2319(3) 0.2885(2)
C93_3 C 0.4335(4) 0.2512(3) 0.2571(2)
C95_3 C 0.4485(6) 0.2235(4) 0.2357(3)
C98_3 C 0.4746(6) 0.2390(4) 0.2074(3)
C99_3 C 0.4493(4) 0.3761(3) 0.26373(19)
C100_3 C 0.4362(4) 0.3261(3) 0.2731(2)
C101_3 C 0.4164(4) 0.3063(3) 0.30515(19)
C103_3 C 0.4041(4) 0.2596(3) 0.3127(2)
C105_3 C 0.5515(4) 0.2192(3) 0.1448(2)
C107_3 C 0.5195(4) 0.1530(3) 0.1854(2)
Sc13_3 Sc 0.73054(4) 0.39654(6) 0.06466(3)
Sc38_3 Sc 0.46328(4) 0.47498(4) 0.28715(3)
O66_3 O 0.40432(18) 0.12745(24) 0.43437(13)
O67_3 O 0.87255(24) 0.27687(16) 0.43437(13)
O68_3 O 0.41668(17) 0.27114(17) 0.44550(13)
O69_3 O 0.72886(17) 0.14554(24) 0.44550(13)
O76_3 O 0.31463(18) 0.23046(25) 0.46802(13)
O77_3 O 0.76954(25) 0.08416(18) 0.46802(13)
O79_3 O 0.62283(19) 0.38578(26) 0.10485(13)
O81_3 O 0.32375(19) 0.17297(26) 0.49495(12)
O82_3 O 0.82703(26) 0.15077(18) 0.49495(12)
O84_3 O 0.37877(19) 0.11505(25) 0.37943(13)
O85_3 O 0.88495(25) 0.26372(17) 0.37943(13)
O87_3 O 0.60986(16) 0.24027(16) 0.02819(12)
O89_3 O 0.63040(23) 0.39014(16) 0.02819(12)
O90_3 O 0.56826(17) 0.27986(18) 0.02606(12)
O91_3 O 0.72014(18) 0.28841(25) 0.02606(12)
O93_3 O 0.42753(17) 0.21728(18) 0.47544(12)
O94_3 O 0.78272(18) 0.21025(25) 0.47544(12)
H1_3 H 0.68971 0.0261796 0.399671
H2_3 H 0.687564 0.0281101 0.441364
H5_3 H 0.913296 0.238613 0.322609
H6_3 H 0.95015 0.225577 0.34265
H7_3 H 0.813541 0.250647 0.243817
H10_3 H 0.68613 0.145371 0.22431
H12_3 H 0.727271 0.206997 0.196311
H14_3 H 0.836902 0.409351 0.146482
H17_3 H 0.730299 0.256271 0.150611
H18_3 H 0.847005 0.315336 0.222156
H19_3 H 0.805182 0.209227 0.294795
H20_3 H 0.90064 0.290206 0.50353
H21_3 H 0.845923 0.260616 0.519012
H23_3 H 0.671856 0.0826501 0.324209
H48_3 H 0.89844 0.0786017 0.337576
H49_3 H 0.57245 0.163098 0.146482
H51_3 H 0.336469 0.31029 0.399671
H52_3 H 0.340546 0.312436 0.441364
H53_3 H 0.325317 0.0867043 0.322609
H54_3 H 0.275427 0.0498504 0.34265
H57_3 H 0.389566 0.0993602 0.50353
H58_3 H 0.414693 0.154077 0.519012
H61_3 H 0.525972 0.269701 0.150611
H62_3 H 0.46833 0.152995 0.222156
H63_3 H 0.459242 0.31387 0.22431
H64_3 H 0.404044 0.194818 0.294795
H65_3 H 0.437107 0.186459 0.243817
H66_3 H 0.479726 0.272729 0.196311
H67_3 H 0.410794 0.328144 0.324209
Sc6_3 Sc 0.88918(4) 0.65077(6) 0.42013(3)
Sc7_3 Sc 0.78650(4) 0.63606(6) 0.46433(3)
Sc8_3 Sc 0.80831(4) 0.67837(6) 0.37952(3)
O23_3 O 0.82872(19) 0.63973(25) 0.34689(12)
O24_3 O 0.92901(18) 0.53922(24) 0.23230(13)
O25_3 O 0.78686(19) 0.71839(25) 0.40987(13)
O26_3 O 0.77213(18) 0.69516(25) 0.46475(13)
O27_3 O 0.60447(17) 0.52113(24) 0.22117(13)
O28_3 O 0.87747(19) 0.61644(25) 0.37108(13)
O29_3 O 0.70334(19) 0.42546(26) 0.10132(13)
O32_3 O 0.68537(18) 0.76954(25) 0.53198(13)
O34_3 O 0.67625(19) 0.82703(26) 0.50505(12)
O35_3 O 0.95456(19) 0.55162(25) 0.28724(13)
O36_3 O 0.79824(19) 0.46268(28) 0.06365(16)
O37_3 O 0.95337(19) 0.64539(27) 0.41975(15)
O38_3 O 0.7871(2) 0.7031(3) 0.33530(14)
O39_3 O 0.7425(3) 0.6158(4) 0.50946(17)
O40_3 O 0.82790(15) 0.65500(21) 0.42162(10)
O41_3 O 0.90693(16) 0.96374(23) 0.30515(12)
O43_3 O 0.55061(18) 0.45642(25) 0.19123(12)
C38_3 C 0.5927(3) 0.4859(4) 0.20007(18)
C39_3 C 0.7744(3) 0.7215(4) 0.4408(2)
C40_3 C 0.8538(3) 0.6183(4) 0.34611(19)
C43_3 C 0.6644(3) 0.4177(4) 0.11466(19)
C44_3 C 0.6923(3) 0.7972(4) 0.5073(2)
C45_3 C 0.6265(3) 0.4499(4) 0.15781(19)
C46_3 C 0.7598(3) 0.7595(4) 0.4461(2)
C47_3 C 0.8446(3) 0.9584(4) 0.3566(2)
C48_3 C 0.7353(4) 0.8305(5) 0.4524(2)
C49_3 C 0.8063(4) 0.9957(5) 0.3868(2)
C50_3 C 0.7123(3) 0.4751(4) 0.1609(2)
C51_3 C 0.8542(3) 0.5558(4) 0.2495(2)
C52_3 C 0.7177(3) 0.5026(4) 0.1894(2)
C53_3 C 0.6794(3) 0.5072(4) 0.2009(2)
C54_3 C 0.8186(3) 0.5868(4) 0.2885(2)
C55_3 C 0.7631(4) 0.8312(5) 0.4248(3)
C56_3 C 0.8108(4) 0.9551(5) 0.3803(3)
C57_3 C 0.8176(3) 0.5665(4) 0.2571(2)
C58_3 C 0.7741(3) 0.7955(4) 0.4214(2)
C59_3 C 0.7749(4) 0.5515(6) 0.2357(3)
C60_3 C 0.7854(5) 0.8728(6) 0.4001(3)
C61_3 C 0.7810(4) 0.9107(6) 0.4009(3)
C62_3 C 0.7643(4) 0.5254(6) 0.2074(3)
C63_3 C 0.9267(3) 0.5507(4) 0.26373(19)
C64_3 C 0.8898(3) 0.5638(4) 0.2731(2)
C65_3 C 0.8898(3) 0.5836(4) 0.30515(19)
C66_3 C 0.7209(3) 0.7954(4) 0.4773(2)
C67_3 C 0.8554(3) 0.5959(4) 0.3127(2)
C69_3 C 0.6676(3) 0.4485(4) 0.1448(2)
C71_3 C 0.6334(3) 0.4805(4) 0.1854(2)
C72_3 C 0.7345(3) 0.7603(4) 0.4748(2)
O53_3 O 0.23046(25) 0.91584(18) 0.53198(13)
O55_3 O 0.17297(26) 0.84923(18) 0.50505(12)
O62_3 O 0.03626(23) 0.94320(16) 0.30515(12)
C80_3 C 0.2028(4) 0.8952(3) 0.5073(2)
C83_3 C 0.0416(4) 0.8863(3) 0.3566(2)
C84_3 C 0.1695(5) 0.9049(3) 0.4524(2)
C85_3 C 0.0043(5) 0.8107(3) 0.3868(2)
C91_3 C 0.1688(5) 0.9320(3) 0.4248(3)
C92_3 C 0.0449(5) 0.8558(3) 0.3803(3)
C94_3 C 0.2045(4) 0.9787(3) 0.4214(2)
C96_3 C 0.1272(6) 0.9127(4) 0.4001(3)
C97_3 C 0.0893(6) 0.8704(4) 0.4009(3)
C102_3 C 0.2046(4) 0.9256(3) 0.4773(2)
C108_3 C 0.2397(4) 0.9743(3) 0.4748(2)
Sc17_3 Sc 0.93612(4) 0.93680(6) 0.26868(3)
Sc39_3 Sc 0.52502(4) 0.98830(6) 0.28715(3)
O65_3 O 0.72313(16) 0.59568(18) 0.43437(13)
O70_3 O 0.85446(24) 0.58332(17) 0.44550(13)
O72_3 O 0.87673(25) 0.74047(17) 0.37151(12)
O74_3 O 0.92684(25) 0.71862(17) 0.39530(13)
O75_3 O 0.91584(18) 0.68537(18) 0.46802(13)
O80_3 O 0.84923(18) 0.67625(19) 0.49495(12)
O83_3 O 0.73628(17) 0.62123(19) 0.37943(13)
O88_3 O 0.75973(16) 0.36960(23) 0.02819(12)
O92_3 O 0.71159(25) 0.43174(17) 0.02606(12)
O95_3 O 0.78975(25) 0.57247(17) 0.47544(12)
H25_3 H 0.97382 0.663531 0.399671
H26_3 H 0.97189 0.659454 0.441364
H27_3 H 0.709794 0.610434 0.50353
H28_3 H 0.739384 0.585307 0.519012
H29_3 H 0.761387 0.674683 0.322609
H30_3 H 0.774423 0.724573 0.34265
H33_3 H 0.778766 0.992772 0.404842
H34_3 H 0.590649 0.42755 0.146482
H35_3 H 0.724745 0.858134 0.454352
H36_3 H 0.847102 0.926236 0.350301
H37_3 H 0.684664 0.53167 0.222156
H38_3 H 0.749353 0.562893 0.243817
H39_3 H 0.807533 0.870647 0.379418
H40_3 H 0.794495 0.794995 0.398927
H41_3 H 0.854629 0.540758 0.22431
H42_3 H 0.743729 0.474028 0.150611
H43_3 H 0.790773 0.595956 0.294795
H44_3 H 0.753502 0.910207 0.417853
H45_3 H 0.793003 0.520274 0.196311
H46_3 H 0.91735 0.589206 0.324209
H47_3 H 0.725365 0.733583 0.495224
H50_3 H 0.141866 0.866611 0.454352
H59_3 H 0.0737641 0.920866 0.350301
H60_3 H 0.00722788 0.785994 0.404842
H68_3 H 0.205005 0.9995 0.398927
H69_3 H 0.129353 0.936886 0.379418
H70_3 H 0.0897931 0.843295 0.417853
H72_3 H 0.266417 0.991782 0.495224
O63_3 O 0.95507(25) 0.90160(17) 0.30728(12)
C73_3 C 0.9957(4) 0.9085(3) 0.31646(18)
C77_3 C 0.9977(4) 0.8733(3) 0.34063(19)
C78_3 C 0.9182(4) 0.7489(3) 0.37990(18)
C104_3 C 0.9606(4) 0.7966(3) 0.3709(2)
C106_3 C 0.9565(4) 0.8291(3) 0.34859(19)
H71_3 H 0.921398 0.819838 0.337576
O46_4 O 0.05172(25) 0.59819(17) 0.25680(13)
O47_4 O 0.02849(25) 0.58969(17) 0.20192(13)
O51 O 0.45660(25) 0.92620(17) 0.29516(12)
O52 O 0.40649(25) 0.94805(17) 0.27137(13)
O59_4 O 0.0364(3) 0.5826(2) 0.33137(14)
C73_4 C 0.3376(4) 0.7582(3) 0.35021(18)
C75_4 C 0.0548(4) 0.6137(3) 0.2259(2)
C77_4 C 0.3356(4) 0.7934(3) 0.32604(19)
C78_4 C 0.4151(4) 0.9178(3) 0.28677(18)
C80_4 C 0.1305(4) 0.7715(3) 0.1594(2)
C82_4 C 0.0928(4) 0.6663(3) 0.2206(2)
C83_4 C 0.2917(4) 0.7804(3) 0.3101(2)
C84_4 C 0.1638(5) 0.7618(3) 0.2143(2)
C85_4 C 0.3290(5) 0.8560(3) 0.2799(2)
C91_4 C 0.1645(5) 0.7347(3) 0.2419(3)
C92_4 C 0.2884(5) 0.8109(3) 0.2864(3)
C94_4 C 0.1288(4) 0.6880(3) 0.2453(2)
C96_4 C 0.2061(6) 0.7540(4) 0.2666(3)
C97_4 C 0.2440(6) 0.7963(4) 0.2658(3)
C102_4 C 0.1287(4) 0.7411(3) 0.1894(2)
C104_4 C 0.3727(4) 0.8701(3) 0.2958(2)
C106_4 C 0.3768(4) 0.8376(3) 0.31808(19)
C108_4 C 0.0936(4) 0.6924(3) 0.1919(2)
O71 O 0.07380(17) 0.53040(18) 0.29516(12)
O73 O 0.05195(17) 0.45844(18) 0.27137(13)
H50_4 H 0.191468 0.800056 0.212315
H53_4 H 0.00801597 0.579962 0.344058
H54_4 H 0.057906 0.616816 0.324016
H59_4 H 0.259569 0.7458 0.316366
H60_4 H 0.326105 0.880673 0.261825
H68_4 H 0.128329 0.667167 0.26774
H69_4 H 0.20398 0.729781 0.287248
H70_4 H 0.24354 0.823372 0.248813
H71_4 H 0.411935 0.846829 0.32909
H72_4 H 0.0669167 0.674885 0.171442
O23_4 O 0.50461(19) 0.02694(25) 0.31978(12)
O28_4 O 0.45586(19) 0.05023(25) 0.29559(13)
O29_4 O 0.62999(19) 0.24121(26) 0.56535(13)
O33 O 0.71050(19) 0.28089(26) 0.56182(13)
O36_4 O 0.53509(19) 0.20399(28) 0.60302(16)
O37_4 O 0.37996(19) 0.02128(27) 0.24692(15)
O39_4 O 0.5908(3) 0.0509(4) 0.15721(17)
O40_4 O 0.50543(15) 0.01167(21) 0.24505(10)
C38_4 C 0.7406(3) 0.1808(4) 0.46660(18)
C40_4 C 0.4795(3) 0.0484(4) 0.32056(19)
C43_4 C 0.6689(3) 0.2490(4) 0.55201(19)
C45_4 C 0.7068(3) 0.2168(4) 0.50886(19)
C50_4 C 0.6210(3) 0.1916(4) 0.5058(2)
C51_4 C 0.4791(3) 0.1109(4) 0.4172(2)
C52_4 C 0.6156(3) 0.1641(4) 0.4773(2)
C53_4 C 0.6539(3) 0.1595(4) 0.4658(2)
C54_4 C 0.5147(3) 0.0799(4) 0.3782(2)
C57_4 C 0.5157(3) 0.1002(4) 0.4096(2)
C59_4 C 0.5584(4) 0.1152(6) 0.4310(3)
C62_4 C 0.5690(4) 0.1413(6) 0.4593(3)
C63_4 C 0.4066(3) 0.1160(4) 0.40294(19)
C64_4 C 0.4435(3) 0.1029(4) 0.3936(2)
C65_4 C 0.4435(3) 0.0831(4) 0.36152(19)
C67_4 C 0.4779(3) 0.0708(4) 0.3540(2)
C69_4 C 0.6657(3) 0.2182(4) 0.5219(2)
C71_4 C 0.6999(3) 0.1862(4) 0.4813(2)
O78 O 0.57039(18) 0.28950(19) 0.56182(13)
O86 O 0.666667 0.333333 0.60216(18)
H25_4 H 0.359513 0.00313603 0.266995
H26_4 H 0.361443 0.00721254 0.225303
H27_4 H 0.623539 0.0562327 0.163137
H28_4 H 0.593949 0.0813599 0.147654
H34_4 H 0.742685 0.239116 0.520184
H37_4 H 0.648669 0.134997 0.444511
H38_4 H 0.583981 0.103773 0.42285
H41_4 H 0.478705 0.125908 0.442356
H42_4 H 0.589604 0.192638 0.516055
H43_4 H 0.54256 0.0707109 0.371872
H45_4 H 0.54033 0.146393 0.470355
H46_4 H 0.415983 0.0774608 0.342458
O1_4 O 0.52233(17) 0.49539(19) 0.31978(12)
O3_4 O 0.40181(17) 0.45353(19) 0.25680(13)
O4_4 O 0.41031(17) 0.43880(18) 0.20192(13)
O6_4 O 0.59437(17) 0.54414(19) 0.29559(13)
O7_4 O 0.61122(18) 0.37001(19) 0.56535(13)
O14_4 O 0.6689(2) 0.46491(19) 0.60302(16)
O15_4 O 0.64132(19) 0.62004(19) 0.24692(15)
O16_4 O 0.4174(2) 0.4538(2) 0.33137(14)
O17_4 O 0.4601(2) 0.4092(3) 0.15721(17)
O18_4 O 0.50624(15) 0.49457(15) 0.24505(10)
C1_4 C 0.2418(3) 0.5794(3) 0.35021(18)
C2_4 C 0.4402(2) 0.2594(3) 0.46660(18)
C3_4 C 0.3863(3) 0.4411(3) 0.2259(2)
C4_4 C 0.5689(3) 0.5205(3) 0.32056(19)
C5_4 C 0.2066(3) 0.5422(3) 0.32604(19)
C6_4 C 0.0822(3) 0.4973(3) 0.28677(18)
C7_4 C 0.5801(3) 0.3311(3) 0.55201(19)
C8_4 C 0.2285(3) 0.3590(3) 0.1594(2)
C9_4 C 0.5100(3) 0.2932(3) 0.50886(19)
C10_4 C 0.3337(3) 0.4265(3) 0.2206(2)
C11_4 C 0.2196(3) 0.5113(3) 0.3101(2)
C12_4 C 0.2382(3) 0.4020(4) 0.2143(2)
C13_4 C 0.1440(3) 0.4730(4) 0.2799(2)
C14_4 C 0.5706(3) 0.3790(3) 0.5058(2)
C15_4 C 0.6318(3) 0.5209(3) 0.4172(2)
C16_4 C 0.5485(3) 0.3844(3) 0.4773(2)
C17_4 C 0.5056(3) 0.3461(3) 0.4658(2)
C18_4 C 0.5652(3) 0.4853(3) 0.3782(2)
C19_4 C 0.2653(3) 0.4298(4) 0.2419(3)
C20_4 C 0.1891(3) 0.4775(4) 0.2864(3)
C21_4 C 0.5845(3) 0.4843(3) 0.4096(2)
C22_4 C 0.3120(3) 0.4408(3) 0.2453(2)
C23_4 C 0.5568(4) 0.4416(4) 0.4310(3)
C24_4 C 0.2460(4) 0.4521(5) 0.2666(3)
C25_4 C 0.2037(4) 0.4477(4) 0.2658(3)
C26_4 C 0.5723(4) 0.4310(4) 0.4593(3)
C27_4 C 0.7094(3) 0.5934(3) 0.40294(19)
C28_4 C 0.6594(3) 0.5565(3) 0.3936(2)
C29_4 C 0.6396(3) 0.5565(3) 0.36152(19)
C30_4 C 0.2589(3) 0.3876(3) 0.1894(2)
C31_4 C 0.5929(3) 0.5221(3) 0.3540(2)
C32_4 C 0.1299(3) 0.5026(3) 0.2958(2)
C33_4 C 0.5525(3) 0.3343(3) 0.5219(2)
C34_4 C 0.1624(3) 0.5392(3) 0.31808(19)
C35_4 C 0.4863(3) 0.3001(3) 0.4813(2)
C36_4 C 0.3076(3) 0.4012(3) 0.1919(2)
O25_4 O 0.54647(19) 0.94828(25) 0.25680(13)
O26_4 O 0.56120(18) 0.97151(25) 0.20192(13)
O30_4 O 0.46960(18) 0.54340(25) 0.29516(12)
O31_4 O 0.54156(18) 0.59351(25) 0.27137(13)
O38_4 O 0.5462(2) 0.9636(3) 0.33137(14)
C37_4 C 0.4206(3) 0.6624(4) 0.35021(18)
C39_4 C 0.5589(3) 0.9452(4) 0.2259(2)
C41_4 C 0.4578(3) 0.6644(4) 0.32604(19)
C42_4 C 0.5027(3) 0.5849(4) 0.28677(18)
C44_4 C 0.6410(3) 0.8695(4) 0.1594(2)
C46_4 C 0.5735(3) 0.9072(4) 0.2206(2)
C47_4 C 0.4887(3) 0.7083(4) 0.3101(2)
C48_4 C 0.5980(4) 0.8362(5) 0.2143(2)
C49_4 C 0.5270(4) 0.6710(5) 0.2799(2)
C55_4 C 0.5702(4) 0.8355(5) 0.2419(3)
C56_4 C 0.5225(4) 0.7116(5) 0.2864(3)
C58_4 C 0.5592(3) 0.8712(4) 0.2453(2)
C60_4 C 0.5479(5) 0.7939(6) 0.2666(3)
C61_4 C 0.5523(4) 0.7560(6) 0.2658(3)
C66_4 C 0.6124(3) 0.8713(4) 0.1894(2)
C68_4 C 0.4974(3) 0.6273(4) 0.2958(2)
C70_4 C 0.4608(3) 0.6232(4) 0.31808(19)
C72_4 C 0.5988(3) 0.9064(4) 0.1919(2)
O44_4 O 0.97306(25) 0.47767(17) 0.31978(12)
O49_4 O 0.94977(25) 0.40563(17) 0.29559(13)
O50_4 O 0.75879(26) 0.38878(18) 0.56535(13)
O54_4 O 0.71911(26) 0.42961(18) 0.56182(13)
O57_4 O 0.79601(28) 0.3311(2) 0.60302(16)
O58_4 O 0.97872(27) 0.35868(19) 0.24692(15)
O60_4 O 0.9491(4) 0.5399(2) 0.15721(17)
O61_4 O 0.98833(21) 0.49376(15) 0.24505(10)
C74_4 C 0.8192(4) 0.5598(2) 0.46660(18)
C76_4 C 0.9516(4) 0.4311(3) 0.32056(19)
C79_4 C 0.7510(4) 0.4199(3) 0.55201(19)
C81_4 C 0.7832(4) 0.4900(3) 0.50886(19)
C86_4 C 0.8084(4) 0.4294(3) 0.5058(2)
C87_4 C 0.8891(4) 0.3682(3) 0.4172(2)
C88_4 C 0.8359(4) 0.4515(3) 0.4773(2)
C89_4 C 0.8405(4) 0.4944(3) 0.4658(2)
C90_4 C 0.9201(4) 0.4348(3) 0.3782(2)
C93_4 C 0.8998(4) 0.4155(3) 0.4096(2)
C95_4 C 0.8848(6) 0.4432(4) 0.4310(3)
C98_4 C 0.8587(6) 0.4277(4) 0.4593(3)
C99_4 C 0.8840(4) 0.2906(3) 0.40294(19)
C100_4 C 0.8971(4) 0.3406(3) 0.3936(2)
C101_4 C 0.9169(4) 0.3604(3) 0.36152(19)
C103_4 C 0.9292(4) 0.4071(3) 0.3540(2)
C105_4 C 0.7818(4) 0.4475(3) 0.5219(2)
C107_4 C 0.8138(4) 0.5137(3) 0.4813(2)
H1_4 H 0.643623 0.640487 0.266995
H2_4 H 0.645769 0.638557 0.225303
H5_4 H 0.420038 0.428054 0.344058
H6_4 H 0.383184 0.44109 0.324016
H7_4 H 0.519793 0.416019 0.42285
H8_4 H 0.270219 0.474199 0.287248
H9_4 H 0.176628 0.420169 0.248813
H10_4 H 0.647204 0.521295 0.442356
H11_4 H 0.332833 0.461162 0.26774
H12_4 H 0.606063 0.45967 0.470355
H13_4 H 0.119327 0.445433 0.261825
H14_4 H 0.496432 0.257315 0.520184
H15_4 H 0.199944 0.391412 0.212315
H16_4 H 0.2542 0.513769 0.316366
H17_4 H 0.603034 0.410396 0.516055
H18_4 H 0.486328 0.351331 0.444511
H19_4 H 0.528151 0.45744 0.371872
H20_4 H 0.432693 0.376461 0.163137
H21_4 H 0.487411 0.406051 0.147654
H22_4 H 0.325115 0.392032 0.171442
H23_4 H 0.661477 0.584017 0.342458
H24_4 H 0.153171 0.565106 0.32909
H29_4 H 0.571946 0.991984 0.344058
H30_4 H 0.55891 0.942094 0.324016
H33_4 H 0.554567 0.673895 0.261825
H35_4 H 0.608588 0.808532 0.212315
H36_4 H 0.486231 0.740431 0.316366
H39_4 H 0.525801 0.79602 0.287248
H40_4 H 0.538838 0.871671 0.26774
H44_4 H 0.579831 0.75646 0.248813
H47_4 H 0.607968 0.933083 0.171442
H48_4 H 0.434894 0.588065 0.32909
H49_4 H 0.760884 0.503568 0.520184
H51_4 H 0.996864 0.356377 0.266995
H52_4 H 0.992787 0.354231 0.225303
H57_4 H 0.943767 0.567307 0.163137
H58_4 H 0.91864 0.512589 0.147654
H61_4 H 0.807362 0.396966 0.516055
H62_4 H 0.865003 0.513672 0.444511
H63_4 H 0.874092 0.352796 0.442356
H64_4 H 0.929289 0.471849 0.371872
H65_4 H 0.896227 0.480207 0.42285
H66_4 H 0.853607 0.393937 0.470355
H67_4 H 0.922539 0.338523 0.342458
O86_2 O 0.000000 -0.000000 0.26883(18)
O14_5 O 0.0022(2) 0.13158(19) 0.26969(16)
C27_5 C 0.0427(3) 0.2601(3) 0.06961(19)
O33_2 O 0.04383(19) 0.94756(26) 0.22849(13)
C38_5 C 0.0739(3) 0.8475(4) 0.13327(18)
C43_5 C 0.0022(3) 0.9157(4) 0.21868(19)
C45_5 C 0.0401(3) 0.8835(4) 0.17553(19)
C71_5 C 0.0332(3) 0.8529(4) 0.1480(2)
O50_5 O 0.09212(26) 0.05545(18) 0.23202(13)
O54_5 O 0.05244(26) 0.09628(18) 0.22849(13)
C73_5 C 0.6709(4) 0.4249(3) 0.01688(18)
C74_5 C 0.1525(4) 0.2265(2) 0.13327(18)
C79_5 C 0.0843(4) 0.0866(3) 0.21868(19)
C81_5 C 0.1165(4) 0.1567(3) 0.17553(19)
C86_5 C 0.1417(4) 0.0961(3) 0.1725(2)
C87_5 C 0.2224(4) 0.0349(3) 0.0839(2)
C88_5 C 0.1692(4) 0.1182(3) 0.1440(2)
C89_5 C 0.1738(4) 0.1611(3) 0.1325(2)
C90_5 C 0.2534(4) 0.1015(3) 0.0449(2)
C93_5 C 0.2331(4) 0.0822(3) 0.0763(2)
C95_5 C 0.2181(6) 0.1099(4) 0.0977(3)
C98_5 C 0.1920(6) 0.0944(4) 0.1260(3)
C100_5 C 0.2304(4) 0.0073(3) 0.0603(2)
C101_5 C 0.2502(4) 0.0271(3) 0.02819(19)
C103_5 C 0.2625(4) 0.0738(3) 0.0207(2)
C105_5 C 0.1151(4) 0.1142(3) 0.1886(2)
C107_5 C 0.1471(4) 0.1804(3) 0.1480(2)
O86_3 O 0.000000 1.000000 0.26883(18)
H3_2 H 0.00994873 0.146256 0.246305
H4_2 H 0.0275019 0.153826 0.286192
H34_5 H 0.0760181 0.905783 0.186851
H49_5 H 0.094217 0.170235 0.186851
H53_5 H 0.341349 0.246629 0.0107247
H55_3 H 0.148703 0.0159159 0.29015
H56_3 H 0.148205 0.0131353 0.24841
H61_5 H 0.140695 0.0636325 0.182722
H62_5 H 0.198336 0.180339 0.111178
H63_5 H 0.207425 0.019463 0.109023
H64_5 H 0.262622 0.138516 0.0385383
H65_5 H 0.22956 0.146874 0.0895165
H66_5 H 0.186941 0.060604 0.137022
H67_5 H 0.255872 0.0051893 0.00912457
O44_5 O 0.30639(25) 0.14434(17) 0.98645(12)
O46_5 O 0.38505(25) 0.26486(17) 0.92347(13)
O47_5 O 0.36182(25) 0.25636(17) 0.86859(13)
O49_5 O 0.28310(25) 0.07230(17) 0.96226(13)
O51_2 O 0.78993(25) 0.59287(17) 0.96183(12)
O52_2 O 0.73982(25) 0.61472(17) 0.93804(13)
O58_5 O 0.31205(27) 0.02535(19) 0.91359(15)
O59_5 O 0.3697(3) 0.2493(2) 0.99804(14)
O60_5 O 0.2824(4) 0.2066(2) 0.82388(17)
O61_5 O 0.32166(21) 0.16043(15) 0.91172(10)
C75_5 C 0.3881(4) 0.2804(3) 0.8926(2)
C76_5 C 0.2849(4) 0.0978(3) 0.98723(19)
C77_5 C 0.6689(4) 0.4601(3) 0.99271(19)
C78_5 C 0.7484(4) 0.5845(3) 0.95344(18)
C80_5 C 0.4638(4) 0.4382(3) 0.8261(2)
C82_5 C 0.4261(4) 0.3330(3) 0.8873(2)
C83_5 C 0.6250(4) 0.4471(3) 0.9768(2)
C84_5 C 0.4971(5) 0.4285(3) 0.8810(2)
C85_5 C 0.6623(5) 0.5227(3) 0.9466(2)
C91_5 C 0.4978(5) 0.4014(3) 0.9086(3)
C92_5 C 0.6217(5) 0.4776(3) 0.9531(3)
C94_5 C 0.4621(4) 0.3547(3) 0.9120(2)
C96_5 C 0.5394(6) 0.4207(4) 0.9333(3)
C97_5 C 0.5773(6) 0.4630(4) 0.9325(3)
C102_5 C 0.4620(4) 0.4078(3) 0.8561(2)
C104_5 C 0.7060(4) 0.5368(3) 0.9625(2)
C106_5 C 0.7101(4) 0.5043(3) 0.98475(19)
C108_5 C 0.4269(4) 0.3591(3) 0.8586(2)
O71_2 O 0.40713(17) 0.19707(18) 0.96183(12)
O73_2 O 0.38528(17) 0.12511(18) 0.93804(13)
H50_5 H 0.524801 0.466722 0.878982
H51_5 H 0.330197 0.0230436 0.933662
H52_5 H 0.326121 0.0208975 0.891969
H54_5 H 0.391239 0.283483 0.990683
H57_5 H 0.277101 0.233973 0.829803
H58_5 H 0.251973 0.179256 0.814321
H59_5 H 0.592903 0.412467 0.983032
H60_5 H 0.659439 0.547339 0.928492
H68_5 H 0.461662 0.333833 0.934407
H69_5 H 0.537313 0.396447 0.953915
H70_5 H 0.576874 0.490038 0.91548
H71_5 H 0.745268 0.513495 0.995757
H72_5 H 0.40025 0.341551 0.838109
O57_5 O 0.12934(28) 0.9978(2) 0.26969(16)
C99_5 C 0.2173(4) 0.9573(3) 0.06961(19)
O86_4 O 1.000000 -0.000000 0.26883(18)
O7_5 O 0.94455(18) 0.03668(19) 0.23202(13)
C1_5 C 0.5751(3) 0.2461(3) 0.01688(18)
C14_5 C 0.9039(3) 0.0457(3) 0.1725(2)
C15_5 C 0.9651(3) 0.1876(3) 0.0839(2)
C16_5 C 0.8818(3) 0.0511(3) 0.1440(2)
C17_5 C 0.8389(3) 0.0128(3) 0.1325(2)
C18_5 C 0.8985(3) 0.1520(3) 0.0449(2)
C21_5 C 0.9178(3) 0.1510(3) 0.0763(2)
C23_5 C 0.8901(4) 0.1083(4) 0.0977(3)
C26_5 C 0.9056(4) 0.0977(4) 0.1260(3)
C28_5 C 0.9927(3) 0.2232(3) 0.0603(2)
C29_5 C 0.9729(3) 0.2232(3) 0.02819(19)
C31_5 C 0.9262(3) 0.1888(3) 0.0207(2)
C33_5 C 0.8858(3) 0.0010(3) 0.1886(2)
O29_5 O 0.96332(19) 0.90788(26) 0.23202(13)
O36_5 O 0.86842(19) 0.87066(28) 0.26969(16)
C37_5 C 0.7539(3) 0.3291(4) 0.01688(18)
C50_5 C 0.9543(3) 0.8583(4) 0.1725(2)
C51_5 C 0.8124(3) 0.7776(4) 0.0839(2)
C52_5 C 0.9489(3) 0.8308(4) 0.1440(2)
C53_5 C 0.9872(3) 0.8262(4) 0.1325(2)
C54_5 C 0.8480(3) 0.7466(4) 0.0449(2)
C57_5 C 0.8490(3) 0.7669(4) 0.0763(2)
C59_5 C 0.8917(4) 0.7819(6) 0.0977(3)
C62_5 C 0.9023(4) 0.8080(6) 0.1260(3)
C63_5 C 0.7399(3) 0.7827(4) 0.06961(19)
C64_5 C 0.7768(3) 0.7696(4) 0.0603(2)
C65_5 C 0.7768(3) 0.7498(4) 0.02819(19)
C67_5 C 0.8112(3) 0.7375(4) 0.0207(2)
C69_5 C 0.9990(3) 0.8849(4) 0.1886(2)
O78_2 O 0.90372(18) 0.95617(19) 0.22849(13)
O86_5 O 1.000000 1.000000 0.26883(18)
H5_5 H 0.753371 0.0947202 0.0107247
H7_5 H 0.853126 0.0826861 0.0895165
H10_5 H 0.980537 0.187962 0.109023
H12_5 H 0.939396 0.126337 0.137022
H17_5 H 0.936367 0.0770625 0.182722
H18_5 H 0.819661 0.0179976 0.111178
H19_5 H 0.861484 0.124107 0.0385383
H23_5 H 0.994811 0.250683 0.00912457
H29_5 H 0.90528 0.658651 0.0107247
H37_5 H 0.982002 0.801664 0.111178
H38_5 H 0.917314 0.77044 0.0895165
H41_5 H 0.812038 0.792575 0.109023
H42_5 H 0.922937 0.859305 0.182722
H43_5 H 0.875893 0.737378 0.0385383
H45_5 H 0.873663 0.813059 0.137022
H46_5 H 0.749317 0.744128 0.00912457
O1_5 O 0.85566(17) 0.16206(19) 0.98645(12)
O3_5 O 0.73514(17) 0.12020(19) 0.92347(13)
O4_5 O 0.74364(17) 0.10547(18) 0.86859(13)
O6_5 O 0.92770(17) 0.21081(19) 0.96226(13)
O15_5 O 0.97465(19) 0.28671(19) 0.91359(15)
O16_5 O 0.7507(2) 0.1205(2) 0.99804(14)
O17_5 O 0.7934(2) 0.0759(3) 0.82388(17)
O18_5 O 0.83957(15) 0.16124(15) 0.91172(10)
C3_5 C 0.7196(3) 0.1078(3) 0.8926(2)
C4_5 C 0.9022(3) 0.1872(3) 0.98723(19)
C5_5 C 0.5399(3) 0.2089(3) 0.99271(19)
C6_5 C 0.4155(3) 0.1640(3) 0.95344(18)
C8_5 C 0.5618(3) 0.0257(3) 0.8261(2)
C10_5 C 0.6670(3) 0.0932(3) 0.8873(2)
C11_5 C 0.5529(3) 0.1780(3) 0.9768(2)
C12_5 C 0.5715(3) 0.0687(4) 0.8810(2)
C13_5 C 0.4773(3) 0.1397(4) 0.9466(2)
C19_5 C 0.5986(3) 0.0965(4) 0.9086(3)
C20_5 C 0.5224(3) 0.1442(4) 0.9531(3)
C22_5 C 0.6453(3) 0.1075(3) 0.9120(2)
C24_5 C 0.5793(4) 0.1188(5) 0.9333(3)
C25_5 C 0.5370(4) 0.1144(4) 0.9325(3)
C30_5 C 0.5922(3) 0.0543(3) 0.8561(2)
C32_5 C 0.4632(3) 0.1693(3) 0.9625(2)
C34_5 C 0.4957(3) 0.2059(3) 0.98475(19)
C36_5 C 0.6409(3) 0.0679(3) 0.8586(2)
O23_5 O 0.83794(19) 0.69361(25) 0.98645(12)
O25_5 O 0.87980(19) 0.61495(25) 0.92347(13)
O26_5 O 0.89453(18) 0.63818(25) 0.86859(13)
O28_5 O 0.78919(19) 0.71690(25) 0.96226(13)
O30_5 O 0.80293(18) 0.21007(25) 0.96183(12)
O31_5 O 0.87489(18) 0.26018(25) 0.93804(13)
O37_5 O 0.71329(19) 0.68795(27) 0.91359(15)
O38_5 O 0.8795(2) 0.6303(3) 0.99804(14)
O39_5 O 0.9241(3) 0.7176(4) 0.82388(17)
O40_5 O 0.83876(15) 0.67834(21) 0.91172(10)
C39_5 C 0.8922(3) 0.6119(4) 0.8926(2)
C40_5 C 0.8128(3) 0.7151(4) 0.98723(19)
C41_5 C 0.7911(3) 0.3311(4) 0.99271(19)
C42_5 C 0.8360(3) 0.2516(4) 0.95344(18)
C44_5 C 0.9743(3) 0.5362(4) 0.8261(2)
C46_5 C 0.9068(3) 0.5739(4) 0.8873(2)
C47_5 C 0.8220(3) 0.3750(4) 0.9768(2)
C48_5 C 0.9313(4) 0.5029(5) 0.8810(2)
C49_5 C 0.8603(4) 0.3377(5) 0.9466(2)
C55_5 C 0.9035(4) 0.5022(5) 0.9086(3)
C56_5 C 0.8558(4) 0.3783(5) 0.9531(3)
C58_5 C 0.8925(3) 0.5379(4) 0.9120(2)
C60_5 C 0.8812(5) 0.4606(6) 0.9333(3)
C61_5 C 0.8856(4) 0.4227(6) 0.9325(3)
C66_5 C 0.9457(3) 0.5380(4) 0.8561(2)
C68_5 C 0.8307(3) 0.2940(4) 0.9625(2)
C70_5 C 0.7941(3) 0.2899(4) 0.98475(19)
C72_5 C 0.9321(3) 0.5731(4) 0.8586(2)
H1_5 H 0.976956 0.307154 0.933662
H2_5 H 0.979102 0.305223 0.891969
H6_5 H 0.716517 0.107756 0.990683
H8_5 H 0.603553 0.140866 0.953915
H9_5 H 0.509962 0.0868354 0.91548
H11_5 H 0.666167 0.127829 0.934407
H13_5 H 0.452661 0.1121 0.928492
H15_5 H 0.533278 0.0580787 0.878982
H16_5 H 0.587533 0.180436 0.983032
H20_5 H 0.766027 0.0431275 0.829803
H21_5 H 0.820744 0.0727174 0.814321
H22_5 H 0.658449 0.0586986 0.838109
H24_5 H 0.486505 0.231773 0.995757
H25_5 H 0.692846 0.669803 0.933662
H26_5 H 0.694777 0.673879 0.891969
H27_5 H 0.956873 0.722899 0.829803
H28_5 H 0.927283 0.748027 0.814321
H30_5 H 0.892244 0.608761 0.990683
H33_5 H 0.8879 0.340561 0.928492
H35_5 H 0.941921 0.475199 0.878982
H36_5 H 0.819564 0.407097 0.983032
H39_5 H 0.859134 0.462687 0.953915
H40_5 H 0.872171 0.538338 0.934407
H44_5 H 0.913165 0.423126 0.91548
H47_5 H 0.941301 0.59975 0.838109
H48_5 H 0.768227 0.254732 0.995757
C2_5 C 0.7735(2) 0.9261(3) 0.13327(18)
C7_5 C 0.9134(3) 0.9978(3) 0.21868(19)
C9_5 C 0.8433(3) 0.9599(3) 0.17553(19)
C35_5 C 0.8196(3) 0.9668(3) 0.1480(2)
H14_5 H 0.829765 0.923982 0.186851
H55_4 H 0.984084 0.132787 0.29015
H56_4 H 0.986865 0.13507 0.24841
H31_2 H 0.136307 0.990051 0.246305
H32_2 H 0.126324 0.972498 0.286192
O51_3 O 0.12327(25) 0.25953(17) 0.62849(12)
O52_3 O 0.07316(25) 0.28138(17) 0.60470(13)
C73_6 C 0.0043(4) 0.0915(3) 0.68354(18)
C77_6 C 0.0023(4) 0.1267(3) 0.65937(19)
C78_6 C 0.0818(4) 0.2511(3) 0.62010(18)
C104_6 C 0.0394(4) 0.2034(3) 0.6291(2)
C106_6 C 0.0435(4) 0.1709(3) 0.65141(19)
H71_6 H 0.0786017 0.180162 0.662424
O23_6 O 0.17128(19) 0.36027(25) 0.65311(12)
O25_6 O 0.21314(19) 0.28161(25) 0.59013(13)
O26_6 O 0.22787(18) 0.30484(25) 0.53525(13)
O28_6 O 0.12253(19) 0.38356(25) 0.62892(13)
O29_6 O 0.29666(19) 0.57454(26) 0.89868(13)
O33_3 O 0.37717(19) 0.61422(26) 0.89515(13)
O36_6 O 0.20176(19) 0.53732(28) 0.93635(16)
O37_6 O 0.04663(19) 0.35461(27) 0.58025(15)
O38_6 O 0.2129(2) 0.2969(3) 0.66470(14)
O39_6 O 0.2575(3) 0.3842(4) 0.49054(17)
O40_6 O 0.17210(15) 0.34500(21) 0.57838(10)
C38_6 C 0.4073(3) 0.5141(4) 0.79993(18)
C39_6 C 0.2256(3) 0.2785(4) 0.5592(2)
C40_6 C 0.1462(3) 0.3817(4) 0.65389(19)
C43_6 C 0.3356(3) 0.5823(4) 0.88534(19)
C44_6 C 0.3077(3) 0.2028(4) 0.4927(2)
C45_6 C 0.3735(3) 0.5501(4) 0.84219(19)
C46_6 C 0.2402(3) 0.2405(4) 0.5539(2)
C47_6 C 0.1554(3) 0.0416(4) 0.6434(2)
C48_6 C 0.2647(4) 0.1695(5) 0.5476(2)
C49_6 C 0.1937(4) 0.0043(5) 0.6132(2)
C50_6 C 0.2877(3) 0.5249(4) 0.8391(2)
C51_6 C 0.1458(3) 0.4442(4) 0.7505(2)
C52_6 C 0.2823(3) 0.4974(4) 0.8106(2)
C53_6 C 0.3206(3) 0.4928(4) 0.7991(2)
C54_6 C 0.1814(3) 0.4132(4) 0.7115(2)
C55_6 C 0.2369(4) 0.1688(5) 0.5752(3)
C56_6 C 0.1892(4) 0.0449(5) 0.6197(3)
C57_6 C 0.1824(3) 0.4335(4) 0.7429(2)
C58_6 C 0.2259(3) 0.2045(4) 0.5786(2)
C59_6 C 0.2251(4) 0.4485(6) 0.7643(3)
C60_6 C 0.2146(5) 0.1272(6) 0.5999(3)
C61_6 C 0.2190(4) 0.0893(6) 0.5991(3)
C62_6 C 0.2357(4) 0.4746(6) 0.7926(3)
C63_6 C 0.0733(3) 0.4493(4) 0.73627(19)
C64_6 C 0.1102(3) 0.4362(4) 0.7269(2)
C65_6 C 0.1102(3) 0.4164(4) 0.69485(19)
C66_6 C 0.2791(3) 0.2046(4) 0.5227(2)
C67_6 C 0.1446(3) 0.4041(4) 0.6873(2)
C69_6 C 0.3324(3) 0.5515(4) 0.8552(2)
C71_6 C 0.3666(3) 0.5195(4) 0.8146(2)
C72_6 C 0.2655(3) 0.2397(4) 0.5252(2)
C80_6 C 0.7972(4) 0.1048(3) 0.4927(2)
C83_6 C 0.9584(4) 0.1137(3) 0.6434(2)
C84_6 C 0.8305(5) 0.0951(3) 0.5476(2)
C85_6 C 0.9957(5) 0.1893(3) 0.6132(2)
C91_6 C 0.8312(5) 0.0680(3) 0.5752(3)
C92_6 C 0.9551(5) 0.1442(3) 0.6197(3)
C94_6 C 0.7955(4) 0.0213(3) 0.5786(2)
C96_6 C 0.8728(6) 0.0873(4) 0.5999(3)
C97_6 C 0.9107(6) 0.1296(4) 0.5991(3)
C102_6 C 0.7954(4) 0.0744(3) 0.5227(2)
C108_6 C 0.7603(4) 0.0257(3) 0.5252(2)
O78_3 O 0.23706(18) 0.62283(19) 0.89515(13)
O86_6 O 0.333334 0.666666 0.93549(18)
H25_6 H 0.0261796 0.336469 0.600329
H26_6 H 0.0281101 0.340546 0.558636
H27_6 H 0.290206 0.389566 0.49647
H28_6 H 0.260616 0.414693 0.480988
H29_6 H 0.238613 0.325317 0.677391
H30_6 H 0.225577 0.275427 0.65735
H33_6 H 0.221234 0.00722788 0.595158
H34_6 H 0.409351 0.57245 0.853518
H35_6 H 0.275255 0.141866 0.545648
H36_6 H 0.152898 0.0737641 0.649699
H37_6 H 0.315336 0.46833 0.777844
H38_6 H 0.250647 0.437107 0.756183
H39_6 H 0.192467 0.129353 0.620582
H40_6 H 0.205505 0.205005 0.601073
H41_6 H 0.145371 0.459242 0.77569
H42_6 H 0.256271 0.525972 0.849389
H43_6 H 0.209227 0.404044 0.705205
H44_6 H 0.246498 0.0897931 0.582147
H45_6 H 0.206997 0.479726 0.803689
H46_6 H 0.0826501 0.410794 0.675791
H47_6 H 0.274635 0.266417 0.504776
H50_6 H 0.858134 0.133389 0.545648
H59_6 H 0.926236 0.0791337 0.649699
H60_6 H 0.992772 0.214006 0.595158
H68_6 H 0.794995 0.000500102 0.601073
H69_6 H 0.870647 0.0631139 0.620582
H70_6 H 0.910207 0.156705 0.582147
H72_6 H 0.733583 0.00821809 0.504776
O1_6 O 0.18900(17) 0.82872(19) 0.65311(12)
O3_6 O 0.06848(17) 0.78686(19) 0.59013(13)
O4_6 O 0.07698(17) 0.77213(18) 0.53525(13)
O6_6 O 0.26104(17) 0.87747(19) 0.62892(13)
O7_6 O 0.27789(18) 0.70334(19) 0.89868(13)
O14_6 O 0.3356(2) 0.79824(19) 0.93635(16)
O15_6 O 0.30799(19) 0.95337(19) 0.58025(15)
O16_6 O 0.0841(2) 0.7871(2) 0.66470(14)
O17_6 O 0.1268(2) 0.7425(3) 0.49054(17)
O18_6 O 0.17291(15) 0.82790(15) 0.57838(10)
C2_6 C 0.1069(2) 0.5927(3) 0.79993(18)
C3_6 C 0.0530(3) 0.7744(3) 0.5592(2)
C4_6 C 0.2356(3) 0.8538(3) 0.65389(19)
C7_6 C 0.2468(3) 0.6644(3) 0.88534(19)
C9_6 C 0.1767(3) 0.6265(3) 0.84219(19)
C10_6 C 0.0004(3) 0.7598(3) 0.5539(2)
C14_6 C 0.2373(3) 0.7123(3) 0.8391(2)
C15_6 C 0.2985(3) 0.8542(3) 0.7505(2)
C16_6 C 0.2152(3) 0.7177(3) 0.8106(2)
C17_6 C 0.1723(3) 0.6794(3) 0.7991(2)
C18_6 C 0.2319(3) 0.8186(3) 0.7115(2)
C21_6 C 0.2512(3) 0.8176(3) 0.7429(2)
C23_6 C 0.2235(4) 0.7749(4) 0.7643(3)
C26_6 C 0.2390(4) 0.7643(4) 0.7926(3)
C27_6 C 0.3761(3) 0.9267(3) 0.73627(19)
C28_6 C 0.3261(3) 0.8898(3) 0.7269(2)
C29_6 C 0.3063(3) 0.8898(3) 0.69485(19)
C31_6 C 0.2596(3) 0.8554(3) 0.6873(2)
C33_6 C 0.2192(3) 0.6676(3) 0.8552(2)
C35_6 C 0.1530(3) 0.6334(3) 0.8146(2)
O30_6 O 0.13627(18) 0.87673(25) 0.62849(12)
O31_6 O 0.20823(18) 0.92684(25) 0.60470(13)
C37_6 C 0.0873(3) 0.9957(4) 0.68354(18)
C41_6 C 0.1245(3) 0.9977(4) 0.65937(19)
C42_6 C 0.1694(3) 0.9182(4) 0.62010(18)
C68_6 C 0.1641(3) 0.9606(4) 0.6291(2)
C70_6 C 0.1275(3) 0.9565(4) 0.65141(19)
O44_6 O 0.63973(25) 0.81100(17) 0.65311(12)
O46_6 O 0.71839(25) 0.93152(17) 0.59013(13)
O47_6 O 0.69516(25) 0.92302(17) 0.53525(13)
O49_6 O 0.61644(25) 0.73896(17) 0.62892(13)
O50_6 O 0.42546(26) 0.72211(18) 0.89868(13)
O54_6 O 0.38578(26) 0.76294(18) 0.89515(13)
O57_6 O 0.46268(28) 0.6644(2) 0.93635(16)
O58_6 O 0.64539(27) 0.69201(19) 0.58025(15)
O59_6 O 0.7031(3) 0.9159(2) 0.66470(14)
O60_6 O 0.6158(4) 0.8732(2) 0.49054(17)
O61_6 O 0.65500(21) 0.82709(15) 0.57838(10)
C74_6 C 0.4859(4) 0.8931(2) 0.79993(18)
C75_6 C 0.7215(4) 0.9470(3) 0.5592(2)
C76_6 C 0.6183(4) 0.7644(3) 0.65389(19)
C79_6 C 0.4177(4) 0.7532(3) 0.88534(19)
C81_6 C 0.4499(4) 0.8233(3) 0.84219(19)
C82_6 C 0.7595(4) 0.9996(3) 0.5539(2)
C86_6 C 0.4751(4) 0.7627(3) 0.8391(2)
C87_6 C 0.5558(4) 0.7015(3) 0.7505(2)
C88_6 C 0.5026(4) 0.7848(3) 0.8106(2)
C89_6 C 0.5072(4) 0.8277(3) 0.7991(2)
C90_6 C 0.5868(4) 0.7681(3) 0.7115(2)
C93_6 C 0.5665(4) 0.7488(3) 0.7429(2)
C95_6 C 0.5515(6) 0.7765(4) 0.7643(3)
C98_6 C 0.5254(6) 0.7610(4) 0.7926(3)
C99_6 C 0.5507(4) 0.6239(3) 0.73627(19)
C100_6 C 0.5638(4) 0.6739(3) 0.7269(2)
C101_6 C 0.5836(4) 0.6937(3) 0.69485(19)
C103_6 C 0.5959(4) 0.7404(3) 0.6873(2)
C105_6 C 0.4485(4) 0.7808(3) 0.8552(2)
C107_6 C 0.4805(4) 0.8470(3) 0.8146(2)
O71_3 O 0.74047(17) 0.86373(18) 0.62849(12)
O73_3 O 0.71862(17) 0.79177(18) 0.60470(13)
H1_6 H 0.31029 0.97382 0.600329
H2_6 H 0.312436 0.97189 0.558636
H5_6 H 0.0867043 0.761387 0.677391
H6_6 H 0.0498504 0.774423 0.65735
H7_6 H 0.186459 0.749353 0.756183
H10_6 H 0.31387 0.854629 0.77569
H12_6 H 0.272729 0.793003 0.803689
H14_6 H 0.163098 0.590649 0.853518
H17_6 H 0.269701 0.743729 0.849389
H18_6 H 0.152995 0.684664 0.777844
H19_6 H 0.194818 0.790773 0.705205
H20_6 H 0.0993602 0.709794 0.49647
H21_6 H 0.154077 0.739384 0.480988
H23_6 H 0.328144 0.91735 0.675791
H48_6 H 0.10156 0.921398 0.662424
H49_6 H 0.42755 0.836902 0.853518
H51_6 H 0.663531 0.68971 0.600329
H52_6 H 0.659454 0.687564 0.558636
H53_6 H 0.674683 0.913296 0.677391
H54_6 H 0.724573 0.95015 0.65735
H57_6 H 0.610434 0.90064 0.49647
H58_6 H 0.585307 0.845923 0.480988
H61_6 H 0.474028 0.730299 0.849389
H62_6 H 0.53167 0.847005 0.777844
H63_6 H 0.540758 0.68613 0.77569
H64_6 H 0.595956 0.805182 0.705205
H65_6 H 0.562893 0.813541 0.756183
H66_6 H 0.520274 0.727271 0.803689
H67_6 H 0.589206 0.671856 0.675791
C1_6 C 0.9085(3) 0.9127(3) 0.68354(18)
C5_6 C 0.8733(3) 0.8755(3) 0.65937(19)
C6_6 C 0.7489(3) 0.8306(3) 0.62010(18)
C8_6 C 0.8952(3) 0.6923(3) 0.4927(2)
C11_6 C 0.8863(3) 0.8446(3) 0.6434(2)
C12_6 C 0.9049(3) 0.7353(4) 0.5476(2)
C13_6 C 0.8107(3) 0.8063(4) 0.6132(2)
C19_6 C 0.9320(3) 0.7631(4) 0.5752(3)
C20_6 C 0.8558(3) 0.8108(4) 0.6197(3)
C22_6 C 0.9787(3) 0.7741(3) 0.5786(2)
C24_6 C 0.9127(4) 0.7854(5) 0.5999(3)
C25_6 C 0.8704(4) 0.7810(4) 0.5991(3)
C30_6 C 0.9256(3) 0.7209(3) 0.5227(2)
C32_6 C 0.7966(3) 0.8359(3) 0.6291(2)
C34_6 C 0.8291(3) 0.8725(3) 0.65141(19)
C36_6 C 0.9743(3) 0.7345(3) 0.5252(2)
H8_6 H 0.936886 0.807533 0.620582
H9_6 H 0.843295 0.753502 0.582147
H11_6 H 0.9995 0.794495 0.601073
H13_6 H 0.785994 0.778766 0.595158
H15_6 H 0.866611 0.724745 0.545648
H16_6 H 0.920866 0.847102 0.649699
H22_6 H 0.991782 0.725365 0.504776
H24_6 H 0.819838 0.89844 0.662424
loop_
_geom_bond_atom_site_label_1
_geom_bond_atom_site_label_2
_geom_bond_site_symmetry_1
_geom_bond_site_symmetry_2
Sc1 O7 1_555 1_555
Sc2 O6 1_555 1_555
Sc3 O4 1_555 1_555
Sc4 O1 1_555 1_555
O1 C4 1_555 1_555
O2 C27 1_555 1_555
O3 Sc4 1_555 1_555
O4 C3 1_555 1_555
O5 C2 1_555 1_555
O6 C4 1_555 1_555
O7 C7 1_555 1_555
O8 C6 1_555 1_555
O9 C6 1_555 1_555
O10 C8 1_555 1_555
O11 C7 1_555 1_555
O12 C8 1_555 1_555
O13 C27 1_555 1_555
O14 Sc1 1_555 1_555
O15 Sc2 1_555 1_555
O16 Sc4 1_555 1_555
O17 Sc3 1_555 1_555
O18 Sc2 1_555 1_555
O19 Sc1 1_555 1_555
O20 C1 1_555 1_555
O21 C1 1_555 1_555
O22 C2 1_555 1_555
C1 C5 1_555 1_555
C2 C35 1_555 1_555
C3 O3 1_555 1_555
C4 C31 1_555 1_555
C5 C11 1_555 1_555
C6 C32 1_555 1_555
C7 C33 1_555 1_555
C8 C30 1_555 1_555
C9 C33 1_555 1_555
C10 C3 1_555 1_555
C11 C20 1_555 1_555
C12 C19 1_555 1_555
C13 C20 1_555 1_555
C14 C16 1_555 1_555
C15 C21 1_555 1_555
C16 C17 1_555 1_555
C17 C35 1_555 1_555
C18 C21 1_555 1_555
C19 C22 1_555 1_555
C20 C25 1_555 1_555
C21 C23 1_555 1_555
C22 C10 1_555 1_555
C23 C26 1_555 1_555
C24 C19 1_555 1_555
C25 C24 1_555 1_555
C26 C16 1_555 1_555
C27 C28 1_555 1_555
C28 C15 1_555 1_555
C29 C28 1_555 1_555
C30 C12 1_555 1_555
C31 C18 1_555 1_555
C32 C13 1_555 1_555
C33 C14 1_555 1_555
C34 C5 1_555 1_555
C35 C9 1_555 1_555
C36 C10 1_555 1_555
O25 Sc8 1_555 1_555
O26 C39 1_555 1_555
O30 Sc4 1_555 1_555
O31 Sc2 1_555 1_555
O32 C44 1_555 1_555
O34 C44 1_555 1_555
O38 Sc8 1_555 1_555
O41 C37 1_555 1_555
O42 C37 1_555 1_555
C37 C41 1_555 1_555
C39 O25 1_555 1_555
C41 C47 1_555 1_555
C42 O30 1_555 1_555
C44 C66 1_555 1_555
C46 C39 1_555 1_555
C47 C56 1_555 1_555
C48 C55 1_555 1_555
C49 C56 1_555 1_555
C55 C58 1_555 1_555
C56 C61 1_555 1_555
C58 C46 1_555 1_555
C60 C55 1_555 1_555
C61 C60 1_555 1_555
C66 C48 1_555 1_555
C68 C42 1_555 1_555
C70 C41 1_555 1_555
C72 C46 1_555 1_555
Sc9 O19 1_555 1_555
Sc21 O49 1_555 1_555
O44 C76 1_555 1_555
O45 C99 1_555 1_555
O48 C74 1_555 1_555
O49 C76 1_555 1_555
O50 Sc9 1_555 1_555
O54 Sc1 1_555 1_555
O56 C99 1_555 1_555
O57 Sc9 1_555 1_555
O58 Sc21 1_555 1_555
O60 Sc11 1_555 1_555
O61 Sc21 1_555 1_555
O64 C74 1_555 1_555
C74 C107 1_555 1_555
C76 C103 1_555 1_555
C79 O50 1_555 1_555
C81 C105 1_555 1_555
C86 C88 1_555 1_555
C87 C93 1_555 1_555
C88 C89 1_555 1_555
C89 C107 1_555 1_555
C90 C93 1_555 1_555
C93 C95 1_555 1_555
C95 C98 1_555 1_555
C98 C88 1_555 1_555
C99 C100 1_555 1_555
C100 C87 1_555 1_555
C101 C100 1_555 1_555
C103 C90 1_555 1_555
C105 C79 1_555 1_555
C107 C81 1_555 1_555
Sc13 O11 1_555 1_555
Sc15 O20 1_555 1_555
Sc17 O41 1_555 1_555
Sc19 O21 1_555 1_555
Sc23 O48 1_555 1_555
Sc24 O5 1_555 1_555
Sc26 O10 1_555 1_555
Sc27 O32 1_555 1_555
Sc29 O45 1_555 1_555
Sc30 O2 1_555 1_555
Sc32 O22 1_555 1_555
Sc34 O12 1_555 1_555
Sc35 O34 1_555 1_555
Sc37 O8 1_555 1_555
Sc38 O56 1_555 1_555
Sc39 O13 1_555 1_555
O66 Sc11 1_555 1_555
O67 Sc3 1_555 1_555
O68 Sc21 1_555 1_555
O69 Sc2 1_555 1_555
O72 Sc8 1_555 1_555
O77 Sc2 1_555 1_555
O79 Sc9 1_555 1_555
O82 Sc3 1_555 1_555
O85 Sc4 1_555 1_555
O87 Sc1 1_555 1_555
O89 Sc9 1_555 1_555
O90 Sc9 1_555 1_555
O91 Sc1 1_555 1_555
O93 Sc11 1_555 1_555
O94 Sc3 1_555 1_555
Sc3 O18 1_555 1_555
Sc4 O18 1_555 1_555
O19 Sc13 1_555 1_555
C29 C31 1_555 1_555
C30 C36 1_555 1_555
C32 C34 1_555 1_555
O31 C42 1_555 1_555
O42 Sc15 1_555 1_555
C49 C68 1_555 1_555
C66 C72 1_555 1_555
C68 C70 1_555 1_555
Sc11 O61 1_555 1_555
O54 C79 1_555 1_555
O64 Sc30 1_555 1_555
C86 C105 1_555 1_555
C101 C103 1_555 1_555
O15 H1 1_555 1_555
O15 H2 1_555 1_555
O16 H5 1_555 1_555
O16 H6 1_555 1_555
C23 H7 1_555 1_555
C24 H8 1_555 1_555
C25 H9 1_555 1_555
C15 H10 1_555 1_555
C22 H11 1_555 1_555
C26 H12 1_555 1_555
C13 H13 1_555 1_555
C9 H14 1_555 1_555
C12 H15 1_555 1_555
C11 H16 1_555 1_555
C14 H17 1_555 1_555
C17 H18 1_555 1_555
C18 H19 1_555 1_555
O17 H20 1_555 1_555
O17 H21 1_555 1_555
C36 H22 1_555 1_555
C29 H23 1_555 1_555
C34 H24 1_555 1_555
O38 H29 1_555 1_555
O38 H30 1_555 1_555
C49 H33 1_555 1_555
C48 H35 1_555 1_555
C47 H36 1_555 1_555
C60 H39 1_555 1_555
C58 H40 1_555 1_555
C61 H44 1_555 1_555
C72 H47 1_555 1_555
C70 H48 1_555 1_555
C81 H49 1_555 1_555
O58 H51 1_555 1_555
O58 H52 1_555 1_555
O60 H57 1_555 1_555
O60 H58 1_555 1_555
C86 H61 1_555 1_555
C89 H62 1_555 1_555
C87 H63 1_555 1_555
C90 H64 1_555 1_555
C95 H65 1_555 1_555
C98 H66 1_555 1_555
C101 H67 1_555 1_555
Sc13 O29 1_555 1_555
Sc6 O28 1_555 1_555
O23 C40 1_555 1_555
O24 C63 1_555 1_555
O27 C38 1_555 1_555
O28 C40 1_555 1_555
O29 C43 1_555 1_555
O79 C43 1_555 1_555
O35 C63 1_555 1_555
O36 Sc13 1_555 1_555
O37 Sc6 1_555 1_555
O39 Sc7 1_555 1_555
O40 Sc6 1_555 1_555
O43 C38 1_555 1_555
C38 C71 1_555 1_555
C40 C67 1_555 1_555
C43 C69 1_555 1_555
C45 C69 1_555 1_555
C50 C52 1_555 1_555
C51 C57 1_555 1_555
C52 C53 1_555 1_555
C53 C71 1_555 1_555
C54 C57 1_555 1_555
C57 C59 1_555 1_555
C59 C62 1_555 1_555
C62 C52 1_555 1_555
C63 C64 1_555 1_555
C64 C51 1_555 1_555
C65 C64 1_555 1_555
C67 C54 1_555 1_555
C69 C50 1_555 1_555
C71 C45 1_555 1_555
Sc22 O27 1_555 1_555
Sc29 O43 1_555 1_555
Sc32 O24 1_555 1_555
Sc40 O35 1_555 1_555
O65 Sc7 1_555 1_555
O70 Sc6 1_555 1_555
O88 Sc13 1_555 1_555
O92 Sc13 1_555 1_555
O95 Sc7 1_555 1_555
Sc7 O40 1_555 1_555
C65 C67 1_555 1_555
O37 H25 1_555 1_555
O37 H26 1_555 1_555
O39 H27 1_555 1_555
O39 H28 1_555 1_555
C45 H34 1_555 1_555
C53 H37 1_555 1_555
C59 H38 1_555 1_555
C51 H41 1_555 1_555
C50 H42 1_555 1_555
C54 H43 1_555 1_555
C62 H45 1_555 1_555
C65 H46 1_555 1_555
O46 Sc37 1_555 1_555
O47 C75 1_555 1_555
O72 C78 1_555 1_555
O74 C78 1_555 1_555
O53 C80 1_555 1_555
O55 C80 1_555 1_555
O59 Sc37 1_555 1_555
O62 C73 1_555 1_555
O63 C73 1_555 1_555
C73 C77 1_555 1_555
C75 O46 1_555 1_555
C77 C83 1_555 1_555
C78 C104 1_555 1_555
C80 C102 1_555 1_555
C82 C75 1_555 1_555
C83 C92 1_555 1_555
C84 C91 1_555 1_555
C85 C92 1_555 1_555
C91 C94 1_555 1_555
C92 C97 1_555 1_555
C94 C82 1_555 1_555
C96 C91 1_555 1_555
C97 C96 1_555 1_555
C102 C84 1_555 1_555
C104 C85 1_555 1_555
C106 C77 1_555 1_555
C108 C82 1_555 1_555
Sc17 O63 1_555 1_555
Sc19 O62 1_555 1_555
Sc25 O53 1_555 1_555
Sc33 O55 1_555 1_555
C102 C108 1_555 1_555
C104 C106 1_555 1_555
C84 H50 1_555 1_555
O59 H53 1_555 1_555
O59 H54 1_555 1_555
C83 H59 1_555 1_555
C85 H60 1_555 1_555
C94 H68 1_555 1_555
C96 H69 1_555 1_555
C97 H70 1_555 1_555
C106 H71 1_555 1_555
C108 H72 1_555 1_555
O5_2 C2_2 1_555 1_555
O11_2 C7_2 1_555 1_555
O22_2 C2_2 1_555 1_555
C2_2 C35_2 1_555 1_555
C35_2 C9_2 1_555 1_555
Sc13_2 O11_2 1_555 1_555
Sc27 O5_2 1_555 1_555
Sc35 O22_2 1_555 1_555
O19_2 Sc13_2 1_555 1_555
C9_2 H14_2 1_555 1_555
Sc2_2 O6_2 1_555 1_555
Sc3_2 O4_2 1_555 1_555
Sc4_2 O1_2 1_555 1_555
O1_2 C4_2 1_555 1_555
O3_2 Sc4_2 1_555 1_555
O4_2 C3_2 1_555 1_555
O6_2 C4_2 1_555 1_555
O8_2 C6_2 1_555 1_555
O9_2 C6_2 1_555 1_555
O10_2 C8_2 1_555 1_555
O12_2 C8_2 1_555 1_555
O15_2 Sc2_2 1_555 1_555
O16_2 Sc4_2 1_555 1_555
O17_2 Sc3_2 1_555 1_555
O18_2 Sc2_2 1_555 1_555
C3_2 O3_2 1_555 1_555
C5_2 C11_2 1_555 1_555
C6_2 C32_2 1_555 1_555
C8_2 C30_2 1_555 1_555
C10_2 C3_2 1_555 1_555
C11_2 C20_2 1_555 1_555
C12_2 C19_2 1_555 1_555
C13_2 C20_2 1_555 1_555
C19_2 C22_2 1_555 1_555
C20_2 C25_2 1_555 1_555
C22_2 C10_2 1_555 1_555
C24_2 C19_2 1_555 1_555
C25_2 C24_2 1_555 1_555
C30_2 C12_2 1_555 1_555
C32_2 C13_2 1_555 1_555
C34_2 C5_2 1_555 1_555
C36_2 C10_2 1_555 1_555
Sc6_2 O28_2 1_555 1_555
Sc7_2 O26_2 1_555 1_555
Sc8_2 O23_2 1_555 1_555
O23_2 C40_2 1_555 1_555
O25_2 Sc8_2 1_555 1_555
O26_2 C39_2 1_555 1_555
O28_2 C40_2 1_555 1_555
O30_2 Sc4_2 1_555 1_555
O31_2 Sc2_2 1_555 1_555
O32_2 C44_2 1_555 1_555
O34_2 C44_2 1_555 1_555
O37_2 Sc6_2 1_555 1_555
O38_2 Sc8_2 1_555 1_555
O39_2 Sc7_2 1_555 1_555
O40_2 Sc6_2 1_555 1_555
C39_2 O25_2 1_555 1_555
C41_2 C47_2 1_555 1_555
C42_2 O30_2 1_555 1_555
C44_2 C66_2 1_555 1_555
C46_2 C39_2 1_555 1_555
C47_2 C56_2 1_555 1_555
C48_2 C55_2 1_555 1_555
C49_2 C56_2 1_555 1_555
C55_2 C58_2 1_555 1_555
C56_2 C61_2 1_555 1_555
C58_2 C46_2 1_555 1_555
C60_2 C55_2 1_555 1_555
C61_2 C60_2 1_555 1_555
C66_2 C48_2 1_555 1_555
C68_2 C42_2 1_555 1_555
C70_2 C41_2 1_555 1_555
C72_2 C46_2 1_555 1_555
Sc21_2 O9_2 1_555 1_555
Sc37_2 O8_2 1_555 1_555
O65_2 Sc7_2 1_555 1_555
O67_2 Sc3_2 1_555 1_555
O69_2 Sc2_2 1_555 1_555
O70_2 Sc6_2 1_555 1_555
O72_2 Sc8_2 1_555 1_555
O74_2 Sc6_2 1_555 1_555
O75_2 Sc6_2 1_555 1_555
O77_2 Sc2_2 1_555 1_555
O80_2 Sc7_2 1_555 1_555
O82_2 Sc3_2 1_555 1_555
O83_2 Sc8_2 1_555 1_555
O85_2 Sc4_2 1_555 1_555
O94_2 Sc3_2 1_555 1_555
O95_2 Sc7_2 1_555 1_555
Sc3_2 O18_2 1_555 1_555
Sc4_2 O18_2 1_555 1_555
C30_2 C36_2 1_555 1_555
C32_2 C34_2 1_555 1_555
Sc7_2 O40_2 1_555 1_555
Sc8_2 O40_2 1_555 1_555
O31_2 C42_2 1_555 1_555
C49_2 C68_2 1_555 1_555
C66_2 C72_2 1_555 1_555
C68_2 C70_2 1_555 1_555
O15_2 H1_2 1_555 1_555
O15_2 H2_2 1_555 1_555
O16_2 H6_2 1_555 1_555
C24_2 H8_2 1_555 1_555
C25_2 H9_2 1_555 1_555
C22_2 H11_2 1_555 1_555
C13_2 H13_2 1_555 1_555
C12_2 H15_2 1_555 1_555
C11_2 H16_2 1_555 1_555
O17_2 H20_2 1_555 1_555
O17_2 H21_2 1_555 1_555
C36_2 H22_2 1_555 1_555
C34_2 H24_2 1_555 1_555
O37_2 H25_2 1_555 1_555
O37_2 H26_2 1_555 1_555
O39_2 H27_2 1_555 1_555
O39_2 H28_2 1_555 1_555
O38_2 H30_2 1_555 1_555
C49_2 H33_2 1_555 1_555
C48_2 H35_2 1_555 1_555
C47_2 H36_2 1_555 1_555
C60_2 H39_2 1_555 1_555
C58_2 H40_2 1_555 1_555
C61_2 H44_2 1_555 1_555
C72_2 H47_2 1_555 1_555
C70_2 H48_2 1_555 1_555
O20_2 C1_2 1_555 1_555
O21_2 C1_2 1_555 1_555
C14_2 C16_2 1_555 1_555
C15_2 C21_2 1_555 1_555
C16_2 C17_2 1_555 1_555
C18_2 C21_2 1_555 1_555
C21_2 C23_2 1_555 1_555
C23_2 C26_2 1_555 1_555
C26_2 C16_2 1_555 1_555
C28_2 C15_2 1_555 1_555
C29_2 C28_2 1_555 1_555
C31_2 C18_2 1_555 1_555
C33_2 C14_2 1_555 1_555
Sc13_2 O29_2 1_555 1_555
O24_2 C63_2 1_555 1_555
O35_2 C63_2 1_555 1_555
O36_2 Sc13_2 1_555 1_555
O41_2 C37_2 1_555 1_555
O42_2 C37_2 1_555 1_555
C50_2 C52_2 1_555 1_555
C51_2 C57_2 1_555 1_555
C52_2 C53_2 1_555 1_555
C54_2 C57_2 1_555 1_555
C57_2 C59_2 1_555 1_555
C59_2 C62_2 1_555 1_555
C62_2 C52_2 1_555 1_555
C63_2 C64_2 1_555 1_555
C64_2 C51_2 1_555 1_555
C65_2 C64_2 1_555 1_555
C67_2 C54_2 1_555 1_555
C69_2 C50_2 1_555 1_555
Sc15_2 O20_2 1_555 1_555
Sc17_2 O41_2 1_555 1_555
Sc19_2 O21_2 1_555 1_555
Sc35 O24_2 1_555 1_555
Sc40_2 O35_2 1_555 1_555
O88_2 Sc13_2 1_555 1_555
O92_2 Sc13_2 1_555 1_555
C29_2 C31_2 1_555 1_555
O42_2 Sc15_2 1_555 1_555
C65_2 C67_2 1_555 1_555
C23_2 H7_2 1_555 1_555
C15_2 H10_2 1_555 1_555
C26_2 H12_2 1_555 1_555
C14_2 H17_2 1_555 1_555
C17_2 H18_2 1_555 1_555
C18_2 H19_2 1_555 1_555
C29_2 H23_2 1_555 1_555
C53_2 H37_2 1_555 1_555
C59_2 H38_2 1_555 1_555
C51_2 H41_2 1_555 1_555
C50_2 H42_2 1_555 1_555
C54_2 H43_2 1_555 1_555
C62_2 H45_2 1_555 1_555
C65_2 H46_2 1_555 1_555
Sc9_2 O19_4 1_555 1_555
O45_2 C99_2 1_555 1_555
O56_2 C99_2 1_555 1_555
O57_2 Sc9_2 1_555 1_555
Sc33 O45_2 1_555 1_555
Sc38_2 O56_2 1_555 1_555
O79_2 Sc9_2 1_555 1_555
O89_2 Sc9_2 1_555 1_555
Sc21_2 O49_2 1_555 1_555
Sc11_2 O47_2 1_555 1_555
Sc37_2 O44_2 1_555 1_555
O44_2 C76_2 1_555 1_555
O46_2 Sc37_2 1_555 1_555
O47_2 C75_2 1_555 1_555
O49_2 C76_2 1_555 1_555
O72_2 C78_2 1_555 1_555
O74_2 C78_2 1_555 1_555
O53_2 C80_2 1_555 1_555
O55_2 C80_2 1_555 1_555
O58_2 Sc21_2 1_555 1_555
O59_2 Sc37_2 1_555 1_555
O60_2 Sc11_2 1_555 1_555
O61_2 Sc21_2 1_555 1_555
C75_2 O46_2 1_555 1_555
C77_2 C83_2 1_555 1_555
C78_2 C104_2 1_555 1_555
C80_2 C102_2 1_555 1_555
C82_2 C75_2 1_555 1_555
C83_2 C92_2 1_555 1_555
C84_2 C91_2 1_555 1_555
C85_2 C92_2 1_555 1_555
C91_2 C94_2 1_555 1_555
C92_2 C97_2 1_555 1_555
C94_2 C82_2 1_555 1_555
C96_2 C91_2 1_555 1_555
C97_2 C96_2 1_555 1_555
C102_2 C84_2 1_555 1_555
C104_2 C85_2 1_555 1_555
C106_2 C77_2 1_555 1_555
C108_2 C82_2 1_555 1_555
Sc25_2 O53_2 1_555 1_555
Sc33_2 O55_2 1_555 1_555
O66_2 Sc11_2 1_555 1_555
O68_2 Sc21_2 1_555 1_555
O76_2 Sc21_2 1_555 1_555
O81_2 Sc11_2 1_555 1_555
O84_2 Sc37_2 1_555 1_555
O93_2 Sc11_2 1_555 1_555
Sc11_2 O61_2 1_555 1_555
Sc37_2 O61_2 1_555 1_555
C102_2 C108_2 1_555 1_555
C104_2 C106_2 1_555 1_555
C84_2 H50_2 1_555 1_555
O58_2 H51_2 1_555 1_555
O58_2 H52_2 1_555 1_555
O59_2 H54_2 1_555 1_555
O60_2 H57_2 1_555 1_555
O60_2 H58_2 1_555 1_555
C83_2 H59_2 1_555 1_555
C85_2 H60_2 1_555 1_555
C94_2 H68_2 1_555 1_555
C96_2 H69_2 1_555 1_555
C97_2 H70_2 1_555 1_555
C106_2 H71_2 1_555 1_555
C108_2 H72_2 1_555 1_555
O2_2 C27_2 1_555 1_555
O13_2 C27_2 1_555 1_555
O14_2 Sc1_2 1_555 1_555
O19_5 Sc1_2 1_555 1_555
O27_2 C38_2 1_555 1_555
O79_2 C43_2 1_555 1_555
O43_2 C38_2 1_555 1_555
C38_2 C71_2 1_555 1_555
C71_2 C45_2 1_555 1_555
O48_2 C74_2 1_555 1_555
O54_2 Sc1_2 1_555 1_555
O62_2 C73_2 1_555 1_555
O63_2 C73_2 1_555 1_555
O64_2 C74_2 1_555 1_555
C74_2 C107_2 1_555 1_555
C79_2 O50_2 1_555 1_555
C81_2 C105_2 1_555 1_555
C86_2 C88_2 1_555 1_555
C87_2 C93_2 1_555 1_555
C88_2 C89_2 1_555 1_555
C89_2 C107_2 1_555 1_555
C90_2 C93_2 1_555 1_555
C93_2 C95_2 1_555 1_555
C95_2 C98_2 1_555 1_555
C98_2 C88_2 1_555 1_555
C100_2 C87_2 1_555 1_555
C101_2 C100_2 1_555 1_555
C103_2 C90_2 1_555 1_555
C105_2 C79_2 1_555 1_555
C107_2 C81_2 1_555 1_555
Sc17_2 O63_2 1_555 1_555
Sc19_2 O62_2 1_555 1_555
Sc25 O27_2 1_555 1_555
Sc26 O48_2 1_555 1_555
Sc33 O43_2 1_555 1_555
Sc34 O2_2 1_555 1_555
Sc39_2 O13_2 1_555 1_555
O87_2 Sc1_2 1_555 1_555
O54_2 C79_2 1_555 1_555
O64_2 Sc34 1_555 1_555
C86_2 C105_2 1_555 1_555
C101_2 C103_2 1_555 1_555
O14_2 H3 1_555 1_555
O14_2 H4 1_555 1_555
C45_2 H34_2 1_555 1_555
C81_2 H49_2 1_555 1_555
C86_2 H61_2 1_555 1_555
C89_2 H62_2 1_555 1_555
C87_2 H63_2 1_555 1_555
C90_2 H64_2 1_555 1_555
C95_2 H65_2 1_555 1_555
C98_2 H66_2 1_555 1_555
C101_2 H67_2 1_555 1_555
O57_2 H31 1_555 1_555
O57_2 H32 1_555 1_555
O8_3 C6_3 1_555 1_555
O9_3 C6_3 1_555 1_555
O10_3 C8_3 1_555 1_555
O12_3 C8_3 1_555 1_555
O20_3 C1_3 1_555 1_555
O21_3 C1_3 1_555 1_555
C1_3 C5_3 1_555 1_555
C5_3 C11_3 1_555 1_555
C6_3 C32_3 1_555 1_555
C8_3 C30_3 1_555 1_555
C11_3 C20_3 1_555 1_555
C12_3 C19_3 1_555 1_555
C13_3 C20_3 1_555 1_555
C19_3 C22_3 1_555 1_555
C20_3 C25_3 1_555 1_555
C24_3 C19_3 1_555 1_555
C25_3 C24_3 1_555 1_555
C30_3 C12_3 1_555 1_555
C32_3 C13_3 1_555 1_555
C34_3 C5_3 1_555 1_555
Sc15_3 O20_3 1_555 1_555
Sc21_3 O9_3 1_555 1_555
Sc23 O10_3 1_555 1_555
Sc30 O12_3 1_555 1_555
Sc37_3 O8_3 1_555 1_555
C30_3 C36_3 1_555 1_555
C32_3 C34_3 1_555 1_555
C24_3 H8_3 1_555 1_555
C25_3 H9_3 1_555 1_555
C22_3 H11_3 1_555 1_555
C13_3 H13_3 1_555 1_555
C12_3 H15_3 1_555 1_555
C11_3 H16_3 1_555 1_555
C36_3 H22_3 1_555 1_555
C34_3 H24_3 1_555 1_555
Sc1_3 O7_3 1_555 1_555
Sc2_3 O6_3 1_555 1_555
Sc3_3 O4_3 1_555 1_555
Sc4_3 O1_3 1_555 1_555
O1_3 C4_3 1_555 1_555
O2_3 C27_3 1_555 1_555
O3_3 Sc4_3 1_555 1_555
O4_3 C3_3 1_555 1_555
O5_3 C2_3 1_555 1_555
O6_3 C4_3 1_555 1_555
O7_3 C7_3 1_555 1_555
O11_3 C7_3 1_555 1_555
O13_3 C27_3 1_555 1_555
O14_3 Sc1_3 1_555 1_555
O15_3 Sc2_3 1_555 1_555
O16_3 Sc4_3 1_555 1_555
O17_3 Sc3_3 1_555 1_555
O18_3 Sc2_3 1_555 1_555
O19_6 Sc1_3 1_555 1_555
O22_3 C2_3 1_555 1_555
C2_3 C35_3 1_555 1_555
C3_3 O3_3 1_555 1_555
C4_3 C31_3 1_555 1_555
C7_3 C33_3 1_555 1_555
C9_3 C33_3 1_555 1_555
C10_3 C3_3 1_555 1_555
C14_3 C16_3 1_555 1_555
C15_3 C21_3 1_555 1_555
C16_3 C17_3 1_555 1_555
C17_3 C35_3 1_555 1_555
C18_3 C21_3 1_555 1_555
C21_3 C23_3 1_555 1_555
C23_3 C26_3 1_555 1_555
C26_3 C16_3 1_555 1_555
C27_3 C28_3 1_555 1_555
C28_3 C15_3 1_555 1_555
C29_3 C28_3 1_555 1_555
C31_3 C18_3 1_555 1_555
C33_3 C14_3 1_555 1_555
C35_3 C9_3 1_555 1_555
O30_3 Sc4_3 1_555 1_555
O31_3 Sc2_3 1_555 1_555
O42_3 C37_3 1_555 1_555
C37_3 C41_3 1_555 1_555
C42_3 O30_3 1_555 1_555
C68_3 C42_3 1_555 1_555
C70_3 C41_3 1_555 1_555
Sc9_3 O19_6 1_555 1_555
Sc21_3 O49_3 1_555 1_555
Sc11_3 O47_3 1_555 1_555
Sc37_3 O44_3 1_555 1_555
O44_3 C76_3 1_555 1_555
O45_3 C99_3 1_555 1_555
O46_3 Sc37_3 1_555 1_555
O47_3 C75_3 1_555 1_555
O48_3 C74_3 1_555 1_555
O49_3 C76_3 1_555 1_555
O50_3 Sc9_3 1_555 1_555
O54_3 Sc1_3 1_555 1_555
O56_3 C99_3 1_555 1_555
O57_3 Sc9_3 1_555 1_555
O58_3 Sc21_3 1_555 1_555
O59_3 Sc37_3 1_555 1_555
O60_3 Sc11_3 1_555 1_555
O61_3 Sc21_3 1_555 1_555
O64_3 C74_3 1_555 1_555
C74_3 C107_3 1_555 1_555
C75_3 O46_3 1_555 1_555
C76_3 C103_3 1_555 1_555
C79_3 O50_3 1_555 1_555
C81_3 C105_3 1_555 1_555
C82_3 C75_3 1_555 1_555
C86_3 C88_3 1_555 1_555
C87_3 C93_3 1_555 1_555
C88_3 C89_3 1_555 1_555
C89_3 C107_3 1_555 1_555
C90_3 C93_3 1_555 1_555
C93_3 C95_3 1_555 1_555
C95_3 C98_3 1_555 1_555
C98_3 C88_3 1_555 1_555
C99_3 C100_3 1_555 1_555
C100_3 C87_3 1_555 1_555
C101_3 C100_3 1_555 1_555
C103_3 C90_3 1_555 1_555
C105_3 C79_3 1_555 1_555
C107_3 C81_3 1_555 1_555
Sc13_3 O11_3 1_555 1_555
Sc26_2 O48_3 1_555 1_555
Sc27_2 O5_3 1_555 1_555
Sc33_2 O45_3 1_555 1_555
Sc34_2 O2_3 1_555 1_555
Sc35_2 O22_3 1_555 1_555
Sc38_3 O56_3 1_555 1_555
O66_3 Sc11_3 1_555 1_555
O67_3 Sc3_3 1_555 1_555
O68_3 Sc21_3 1_555 1_555
O69_3 Sc2_3 1_555 1_555
O76_3 Sc21_3 1_555 1_555
O77_3 Sc2_3 1_555 1_555
O79_3 Sc9_3 1_555 1_555
O81_3 Sc11_3 1_555 1_555
O82_3 Sc3_3 1_555 1_555
O84_3 Sc37_3 1_555 1_555
O85_3 Sc4_3 1_555 1_555
O87_3 Sc1_3 1_555 1_555
O89_3 Sc9_3 1_555 1_555
O90_3 Sc9_3 1_555 1_555
O91_3 Sc1_3 1_555 1_555
O93_3 Sc11_3 1_555 1_555
O94_3 Sc3_3 1_555 1_555
Sc3_3 O18_3 1_555 1_555
Sc4_3 O18_3 1_555 1_555
O19_6 Sc13_3 1_555 1_555
C29_3 C31_3 1_555 1_555
O31_3 C42_3 1_555 1_555
C68_3 C70_3 1_555 1_555
Sc11_3 O61_3 1_555 1_555
Sc37_3 O61_3 1_555 1_555
O54_3 C79_3 1_555 1_555
O64_3 Sc34_2 1_555 1_555
C86_3 C105_3 1_555 1_555
C101_3 C103_3 1_555 1_555
O15_3 H1_3 1_555 1_555
O15_3 H2_3 1_555 1_555
O16_3 H5_3 1_555 1_555
O16_3 H6_3 1_555 1_555
C23_3 H7_3 1_555 1_555
C15_3 H10_3 1_555 1_555
C26_3 H12_3 1_555 1_555
C9_3 H14_3 1_555 1_555
C14_3 H17_3 1_555 1_555
C17_3 H18_3 1_555 1_555
C18_3 H19_3 1_555 1_555
O17_3 H20_3 1_555 1_555
O17_3 H21_3 1_555 1_555
C29_3 H23_3 1_555 1_555
C70_3 H48_3 1_555 1_555
C81_3 H49_3 1_555 1_555
O58_3 H51_3 1_555 1_555
O58_3 H52_3 1_555 1_555
O59_3 H53_3 1_555 1_555
O59_3 H54_3 1_555 1_555
O60_3 H57_3 1_555 1_555
O60_3 H58_3 1_555 1_555
C86_3 H61_3 1_555 1_555
C89_3 H62_3 1_555 1_555
C87_3 H63_3 1_555 1_555
C90_3 H64_3 1_555 1_555
C95_3 H65_3 1_555 1_555
C98_3 H66_3 1_555 1_555
C101_3 H67_3 1_555 1_555
Sc13_3 O29_3 1_555 1_555
Sc6_3 O28_3 1_555 1_555
Sc7_3 O26_3 1_555 1_555
Sc8_3 O23_3 1_555 1_555
O23_3 C40_3 1_555 1_555
O24_3 C63_3 1_555 1_555
O25_3 Sc8_3 1_555 1_555
O26_3 C39_3 1_555 1_555
O27_3 C38_3 1_555 1_555
O28_3 C40_3 1_555 1_555
O29_3 C43_3 1_555 1_555
O32_3 C44_3 1_555 1_555
O79_3 C43_3 1_555 1_555
O34_3 C44_3 1_555 1_555
O35_3 C63_3 1_555 1_555
O36_3 Sc13_3 1_555 1_555
O37_3 Sc6_3 1_555 1_555
O38_3 Sc8_3 1_555 1_555
O39_3 Sc7_3 1_555 1_555
O40_3 Sc6_3 1_555 1_555
O43_3 C38_3 1_555 1_555
C38_3 C71_3 1_555 1_555
C39_3 O25_3 1_555 1_555
C40_3 C67_3 1_555 1_555
C43_3 C69_3 1_555 1_555
C44_3 C66_3 1_555 1_555
C45_3 C69_3 1_555 1_555
C46_3 C39_3 1_555 1_555
C47_3 C56_3 1_555 1_555
C48_3 C55_3 1_555 1_555
C49_3 C56_3 1_555 1_555
C50_3 C52_3 1_555 1_555
C51_3 C57_3 1_555 1_555
C52_3 C53_3 1_555 1_555
C53_3 C71_3 1_555 1_555
C54_3 C57_3 1_555 1_555
C55_3 C58_3 1_555 1_555
C56_3 C61_3 1_555 1_555
C57_3 C59_3 1_555 1_555
C58_3 C46_3 1_555 1_555
C59_3 C62_3 1_555 1_555
C60_3 C55_3 1_555 1_555
C61_3 C60_3 1_555 1_555
C62_3 C52_3 1_555 1_555
C63_3 C64_3 1_555 1_555
C64_3 C51_3 1_555 1_555
C65_3 C64_3 1_555 1_555
C66_3 C48_3 1_555 1_555
C67_3 C54_3 1_555 1_555
C69_3 C50_3 1_555 1_555
C71_3 C45_3 1_555 1_555
C72_3 C46_3 1_555 1_555
O53_3 C80_3 1_555 1_555
O55_3 C80_3 1_555 1_555
C80_3 C102_3 1_555 1_555
C83_3 C92_3 1_555 1_555
C84_3 C91_3 1_555 1_555
C85_3 C92_3 1_555 1_555
C91_3 C94_3 1_555 1_555
C92_3 C97_3 1_555 1_555
C96_3 C91_3 1_555 1_555
C97_3 C96_3 1_555 1_555
C102_3 C84_3 1_555 1_555
Sc17_3 O41_3 1_555 1_555
Sc19_3 O62_3 1_555 1_555
Sc25_2 O27_3 1_555 1_555
Sc22 O53_3 1_555 1_555
Sc24 O32_3 1_555 1_555
Sc33_2 O43_3 1_555 1_555
Sc35_2 O24_3 1_555 1_555
Sc29 O55_3 1_555 1_555
Sc32 O34_3 1_555 1_555
O65_3 Sc7_3 1_555 1_555
O70_3 Sc6_3 1_555 1_555
O72_3 Sc8_3 1_555 1_555
O74_3 Sc6_3 1_555 1_555
O75_3 Sc6_3 1_555 1_555
O80_3 Sc7_3 1_555 1_555
O83_3 Sc8_3 1_555 1_555
O88_3 Sc13_3 1_555 1_555
O92_3 Sc13_3 1_555 1_555
O95_3 Sc7_3 1_555 1_555
Sc7_3 O40_3 1_555 1_555
Sc8_3 O40_3 1_555 1_555
C65_3 C67_3 1_555 1_555
C66_3 C72_3 1_555 1_555
C102_3 C108_3 1_555 1_555
O37_3 H25_3 1_555 1_555
O37_3 H26_3 1_555 1_555
O39_3 H27_3 1_555 1_555
O39_3 H28_3 1_555 1_555
O38_3 H29_3 1_555 1_555
O38_3 H30_3 1_555 1_555
C49_3 H33_3 1_555 1_555
C45_3 H34_3 1_555 1_555
C48_3 H35_3 1_555 1_555
C47_3 H36_3 1_555 1_555
C53_3 H37_3 1_555 1_555
C59_3 H38_3 1_555 1_555
C60_3 H39_3 1_555 1_555
C58_3 H40_3 1_555 1_555
C51_3 H41_3 1_555 1_555
C50_3 H42_3 1_555 1_555
C54_3 H43_3 1_555 1_555
C61_3 H44_3 1_555 1_555
C62_3 H45_3 1_555 1_555
C65_3 H46_3 1_555 1_555
C72_3 H47_3 1_555 1_555
C84_3 H50_3 1_555 1_555
C83_3 H59_3 1_555 1_555
C85_3 H60_3 1_555 1_555
C94_3 H68_3 1_555 1_555
C96_3 H69_3 1_555 1_555
C97_3 H70_3 1_555 1_555
C108_3 H72_3 1_555 1_555
O72_3 C78_3 1_555 1_555
O74_3 C78_3 1_555 1_555
O63_3 C73_3 1_555 1_555
C73_3 C77_3 1_555 1_555
C78_3 C104_3 1_555 1_555
C106_3 C77_3 1_555 1_555
Sc17_3 O63_3 1_555 1_555
C104_3 C106_3 1_555 1_555
C106_3 H71_3 1_555 1_555
O46_4 Sc40_3 1_555 1_555
O47_4 C75_4 1_555 1_555
O51 C78_4 1_555 1_555
O52 C78_4 1_555 1_555
O77_2 C80_4 1_555 1_555
O82_2 C80_4 1_555 1_555
O59_4 Sc40_3 1_555 1_555
O89 C73_4 1_555 1_555
O92 C73_4 1_555 1_555
C73_4 C77_4 1_555 1_555
C75_4 O46_4 1_555 1_555
C77_4 C83_4 1_555 1_555
C78_4 C104_4 1_555 1_555
C80_4 C102_4 1_555 1_555
C82_4 C75_4 1_555 1_555
C83_4 C92_4 1_555 1_555
C84_4 C91_4 1_555 1_555
C85_4 C92_4 1_555 1_555
C91_4 C94_4 1_555 1_555
C92_4 C97_4 1_555 1_555
C94_4 C82_4 1_555 1_555
C96_4 C91_4 1_555 1_555
C97_4 C96_4 1_555 1_555
C102_4 C84_4 1_555 1_555
C104_4 C85_4 1_555 1_555
C106_4 C77_4 1_555 1_555
C108_4 C82_4 1_555 1_555
Sc39_3 O51 1_555 1_555
O71 Sc40_3 1_555 1_555
C102_4 C108_4 1_555 1_555
C104_4 C106_4 1_555 1_555
C84_4 H50_4 1_555 1_555
O59_4 H53_4 1_555 1_555
O59_4 H54_4 1_555 1_555
C83_4 H59_4 1_555 1_555
C85_4 H60_4 1_555 1_555
C94_4 H68_4 1_555 1_555
C96_4 H69_4 1_555 1_555
C97_4 H70_4 1_555 1_555
C106_4 H71_4 1_555 1_555
C108_4 H72_4 1_555 1_555
Sc17 O29_4 1_555 1_555
Sc26_2 O28_4 1_555 1_555
O23_4 C40_4 1_555 1_555
O66_3 C63_4 1_555 1_555
O69_3 C38_4 1_555 1_555
O28_4 C40_4 1_555 1_555
O29_4 C43_4 1_555 1_555
O33 C43_4 1_555 1_555
O84_3 C63_4 1_555 1_555
O36_4 Sc17 1_555 1_555
O37_4 Sc26_2 1_555 1_555
O39_4 Sc34_2 1_555 1_555
O40_4 Sc26_2 1_555 1_555
O94_3 C38_4 1_555 1_555
C38_4 C71_4 1_555 1_555
C40_4 C67_4 1_555 1_555
C43_4 C69_4 1_555 1_555
C45_4 C69_4 1_555 1_555
C50_4 C52_4 1_555 1_555
C51_4 C57_4 1_555 1_555
C52_4 C53_4 1_555 1_555
C53_4 C71_4 1_555 1_555
C54_4 C57_4 1_555 1_555
C57_4 C59_4 1_555 1_555
C59_4 C62_4 1_555 1_555
C62_4 C52_4 1_555 1_555
C63_4 C64_4 1_555 1_555
C64_4 C51_4 1_555 1_555
C65_4 C64_4 1_555 1_555
C67_4 C54_4 1_555 1_555
C69_4 C50_4 1_555 1_555
C71_4 C45_4 1_555 1_555
Sc19 O33 1_555 1_555
O78 Sc17 1_555 1_555
O86 Sc17 1_555 1_555
Sc34_2 O40_4 1_555 1_555
C65_4 C67_4 1_555 1_555
Sc19 O86 1_555 1_555
O37_4 H25_4 1_555 1_555
O37_4 H26_4 1_555 1_555
O39_4 H27_4 1_555 1_555
O39_4 H28_4 1_555 1_555
C45_4 H34_4 1_555 1_555
C53_4 H37_4 1_555 1_555
C59_4 H38_4 1_555 1_555
C51_4 H41_4 1_555 1_555
C50_4 H42_4 1_555 1_555
C54_4 H43_4 1_555 1_555
C62_4 H45_4 1_555 1_555
C65_4 H46_4 1_555 1_555
Sc15 O7_4 1_555 1_555
Sc25_2 O6_4 1_555 1_555
Sc33_2 O4_4 1_555 1_555
Sc38_3 O1_4 1_555 1_555
O1_4 C4_4 1_555 1_555
O65_3 C27_4 1_555 1_555
O3_4 Sc38_3 1_555 1_555
O4_4 C3_4 1_555 1_555
O68_3 C2_4 1_555 1_555
O6_4 C4_4 1_555 1_555
O7_4 C7_4 1_555 1_555
O71 C6_4 1_555 1_555
O73 C6_4 1_555 1_555
O75_2 C8_4 1_555 1_555
O78 C7_4 1_555 1_555
O80_2 C8_4 1_555 1_555
O83_3 C27_4 1_555 1_555
O14_4 Sc15 1_555 1_555
O15_4 Sc25_2 1_555 1_555
O16_4 Sc38_3 1_555 1_555
O17_4 Sc33_2 1_555 1_555
O18_4 Sc25_2 1_555 1_555
O86 Sc15 1_555 1_555
O87 C1_4 1_555 1_555
O90 C1_4 1_555 1_555
O93_3 C2_4 1_555 1_555
C1_4 C5_4 1_555 1_555
C2_4 C35_4 1_555 1_555
C3_4 O3_4 1_555 1_555
C4_4 C31_4 1_555 1_555
C5_4 C11_4 1_555 1_555
C6_4 C32_4 1_555 1_555
C7_4 C33_4 1_555 1_555
C8_4 C30_4 1_555 1_555
C9_4 C33_4 1_555 1_555
C10_4 C3_4 1_555 1_555
C11_4 C20_4 1_555 1_555
C12_4 C19_4 1_555 1_555
C13_4 C20_4 1_555 1_555
C14_4 C16_4 1_555 1_555
C15_4 C21_4 1_555 1_555
C16_4 C17_4 1_555 1_555
C17_4 C35_4 1_555 1_555
C18_4 C21_4 1_555 1_555
C19_4 C22_4 1_555 1_555
C20_4 C25_4 1_555 1_555
C21_4 C23_4 1_555 1_555
C22_4 C10_4 1_555 1_555
C23_4 C26_4 1_555 1_555
C24_4 C19_4 1_555 1_555
C25_4 C24_4 1_555 1_555
C26_4 C16_4 1_555 1_555
C27_4 C28_4 1_555 1_555
C28_4 C15_4 1_555 1_555
C29_4 C28_4 1_555 1_555
C30_4 C12_4 1_555 1_555
C31_4 C18_4 1_555 1_555
C32_4 C13_4 1_555 1_555
C33_4 C14_4 1_555 1_555
C34_4 C5_4 1_555 1_555
C35_4 C9_4 1_555 1_555
C36_4 C10_4 1_555 1_555
O25_4 Sc39_3 1_555 1_555
O26_4 C39_4 1_555 1_555
O30_4 Sc38_3 1_555 1_555
O31_4 Sc25_2 1_555 1_555
O76_2 C44_4 1_555 1_555
O81_2 C44_4 1_555 1_555
O38_4 Sc39_3 1_555 1_555
O88 C37_4 1_555 1_555
O91 C37_4 1_555 1_555
C37_4 C41_4 1_555 1_555
C39_4 O25_4 1_555 1_555
C41_4 C47_4 1_555 1_555
C42_4 O30_4 1_555 1_555
C44_4 C66_4 1_555 1_555
C46_4 C39_4 1_555 1_555
C47_4 C56_4 1_555 1_555
C48_4 C55_4 1_555 1_555
C49_4 C56_4 1_555 1_555
C55_4 C58_4 1_555 1_555
C56_4 C61_4 1_555 1_555
C58_4 C46_4 1_555 1_555
C60_4 C55_4 1_555 1_555
C61_4 C60_4 1_555 1_555
C66_4 C48_4 1_555 1_555
C68_4 C42_4 1_555 1_555
C70_4 C41_4 1_555 1_555
C72_4 C46_4 1_555 1_555
Sc27_2 O49_4 1_555 1_555
O44_4 C76_4 1_555 1_555
O67_3 C99_4 1_555 1_555
O70_3 C74_4 1_555 1_555
O49_4 C76_4 1_555 1_555
O50_4 Sc19 1_555 1_555
O54_4 Sc15 1_555 1_555
O85_3 C99_4 1_555 1_555
O57_4 Sc19 1_555 1_555
O58_4 Sc27_2 1_555 1_555
O60_4 Sc35_2 1_555 1_555
O61_4 Sc27_2 1_555 1_555
O95_3 C74_4 1_555 1_555
C74_4 C107_4 1_555 1_555
C76_4 C103_4 1_555 1_555
C79_4 O50_4 1_555 1_555
C81_4 C105_4 1_555 1_555
C86_4 C88_4 1_555 1_555
C87_4 C93_4 1_555 1_555
C88_4 C89_4 1_555 1_555
C89_4 C107_4 1_555 1_555
C90_4 C93_4 1_555 1_555
C93_4 C95_4 1_555 1_555
C95_4 C98_4 1_555 1_555
C98_4 C88_4 1_555 1_555
C99_4 C100_4 1_555 1_555
C100_4 C87_4 1_555 1_555
C101_4 C100_4 1_555 1_555
C103_4 C90_4 1_555 1_555
C105_4 C79_4 1_555 1_555
C107_4 C81_4 1_555 1_555
Sc33_2 O18_4 1_555 1_555
Sc38_3 O18_4 1_555 1_555
C29_4 C31_4 1_555 1_555
C30_4 C36_4 1_555 1_555
C32_4 C34_4 1_555 1_555
O31_4 C42_4 1_555 1_555
C49_4 C68_4 1_555 1_555
C66_4 C72_4 1_555 1_555
C68_4 C70_4 1_555 1_555
Sc35_2 O61_4 1_555 1_555
O54_4 C79_4 1_555 1_555
C86_4 C105_4 1_555 1_555
C101_4 C103_4 1_555 1_555
O15_4 H1_4 1_555 1_555
O15_4 H2_4 1_555 1_555
O16_4 H5_4 1_555 1_555
O16_4 H6_4 1_555 1_555
C23_4 H7_4 1_555 1_555
C24_4 H8_4 1_555 1_555
C25_4 H9_4 1_555 1_555
C15_4 H10_4 1_555 1_555
C22_4 H11_4 1_555 1_555
C26_4 H12_4 1_555 1_555
C13_4 H13_4 1_555 1_555
C9_4 H14_4 1_555 1_555
C12_4 H15_4 1_555 1_555
C11_4 H16_4 1_555 1_555
C14_4 H17_4 1_555 1_555
C17_4 H18_4 1_555 1_555
C18_4 H19_4 1_555 1_555
O17_4 H20_4 1_555 1_555
O17_4 H21_4 1_555 1_555
C36_4 H22_4 1_555 1_555
C29_4 H23_4 1_555 1_555
C34_4 H24_4 1_555 1_555
O38_4 H29_4 1_555 1_555
O38_4 H30_4 1_555 1_555
C49_4 H33_4 1_555 1_555
C48_4 H35_4 1_555 1_555
C47_4 H36_4 1_555 1_555
C60_4 H39_4 1_555 1_555
C58_4 H40_4 1_555 1_555
C61_4 H44_4 1_555 1_555
C72_4 H47_4 1_555 1_555
C70_4 H48_4 1_555 1_555
C81_4 H49_4 1_555 1_555
O58_4 H51_4 1_555 1_555
O58_4 H52_4 1_555 1_555
O60_4 H57_4 1_555 1_555
O60_4 H58_4 1_555 1_555
C86_4 H61_4 1_555 1_555
C89_4 H62_4 1_555 1_555
C87_4 H63_4 1_555 1_555
C90_4 H64_4 1_555 1_555
C95_4 H65_4 1_555 1_555
C98_4 H66_4 1_555 1_555
C101_4 H67_4 1_555 1_555
O65_2 C27_5 1_555 1_555
O83_2 C27_5 1_555 1_555
O14_5 Sc15_3 1_555 1_555
O86_2 Sc15_3 1_555 1_555
O69_2 C38_5 1_555 1_555
O33_2 C43_5 1_555 1_555
O94_2 C38_5 1_555 1_555
C38_5 C71_5 1_555 1_555
C71_5 C45_5 1_555 1_555
O70_2 C74_5 1_555 1_555
O54_5 Sc15_3 1_555 1_555
O89_3 C73_5 1_555 1_555
O92_3 C73_5 1_555 1_555
O95_2 C74_5 1_555 1_555
C74_5 C107_5 1_555 1_555
C79_5 O50_5 1_555 1_555
C81_5 C105_5 1_555 1_555
C86_5 C88_5 1_555 1_555
C87_5 C93_5 1_555 1_555
C88_5 C89_5 1_555 1_555
C89_5 C107_5 1_555 1_555
C90_5 C93_5 1_555 1_555
C93_5 C95_5 1_555 1_555
C95_5 C98_5 1_555 1_555
C98_5 C88_5 1_555 1_555
C100_5 C87_5 1_555 1_555
C101_5 C100_5 1_555 1_555
C103_5 C90_5 1_555 1_555
C105_5 C79_5 1_555 1_555
C107_5 C81_5 1_555 1_555
Sc19_3 O33_2 1_555 1_555
O54_5 C79_5 1_555 1_555
C86_5 C105_5 1_555 1_555
C101_5 C103_5 1_555 1_555
Sc19_3 O86_3 1_555 1_555
O14_5 H3_2 1_555 1_555
O14_5 H4_2 1_555 1_555
C45_5 H34_5 1_555 1_555
C81_5 H49_5 1_555 1_555
C86_5 H61_5 1_555 1_555
C89_5 H62_5 1_555 1_555
C87_5 H63_5 1_555 1_555
C90_5 H64_5 1_555 1_555
C95_5 H65_5 1_555 1_555
C98_5 H66_5 1_555 1_555
C101_5 H67_5 1_555 1_555
Sc27 O49_5 1_555 1_555
Sc35 O47_5 1_555 1_555
Sc40_2 O44_5 1_555 1_555
O44_5 C76_5 1_555 1_555
O46_5 Sc40_2 1_555 1_555
O47_5 C75_5 1_555 1_555
O49_5 C76_5 1_555 1_555
O51_2 C78_5 1_555 1_555
O52_2 C78_5 1_555 1_555
O77 C80_5 1_555 1_555
O82 C80_5 1_555 1_555
O58_5 Sc27 1_555 1_555
O59_5 Sc40_2 1_555 1_555
O60_5 Sc35 1_555 1_555
O61_5 Sc27 1_555 1_555
C75_5 O46_5 1_555 1_555
C77_5 C83_5 1_555 1_555
C78_5 C104_5 1_555 1_555
C80_5 C102_5 1_555 1_555
C82_5 C75_5 1_555 1_555
C83_5 C92_5 1_555 1_555
C84_5 C91_5 1_555 1_555
C85_5 C92_5 1_555 1_555
C91_5 C94_5 1_555 1_555
C92_5 C97_5 1_555 1_555
C94_5 C82_5 1_555 1_555
C96_5 C91_5 1_555 1_555
C97_5 C96_5 1_555 1_555
C102_5 C84_5 1_555 1_555
C104_5 C85_5 1_555 1_555
C106_5 C77_5 1_555 1_555
C108_5 C82_5 1_555 1_555
Sc26 O52_2 1_555 1_555
Sc39_2 O51_2 1_555 1_555
O71_2 Sc40_2 1_555 1_555
O73_2 Sc27 1_555 1_555
Sc35 O61_5 1_555 1_555
Sc40_2 O61_5 1_555 1_555
C102_5 C108_5 1_555 1_555
C104_5 C106_5 1_555 1_555
C84_5 H50_5 1_555 1_555
O58_5 H51_5 1_555 1_555
O58_5 H52_5 1_555 1_555
O59_5 H54_5 1_555 1_555
O60_5 H57_5 1_555 1_555
O60_5 H58_5 1_555 1_555
C83_5 H59_5 1_555 1_555
C85_5 H60_5 1_555 1_555
C94_5 H68_5 1_555 1_555
C96_5 H69_5 1_555 1_555
C97_5 H70_5 1_555 1_555
C106_5 H71_5 1_555 1_555
C108_5 H72_5 1_555 1_555
O67_2 C99_5 1_555 1_555
O85_2 C99_5 1_555 1_555
O57_5 Sc19_3 1_555 1_555
O87_3 C1_5 1_555 1_555
O90_3 C1_5 1_555 1_555
C14_5 C16_5 1_555 1_555
C15_5 C21_5 1_555 1_555
C16_5 C17_5 1_555 1_555
C18_5 C21_5 1_555 1_555
C21_5 C23_5 1_555 1_555
C23_5 C26_5 1_555 1_555
C26_5 C16_5 1_555 1_555
C28_5 C15_5 1_555 1_555
C29_5 C28_5 1_555 1_555
C31_5 C18_5 1_555 1_555
C33_5 C14_5 1_555 1_555
Sc17_3 O29_5 1_555 1_555
O66_2 C63_5 1_555 1_555
O84_2 C63_5 1_555 1_555
O36_5 Sc17_3 1_555 1_555
O88_3 C37_5 1_555 1_555
O91_3 C37_5 1_555 1_555
C50_5 C52_5 1_555 1_555
C51_5 C57_5 1_555 1_555
C52_5 C53_5 1_555 1_555
C54_5 C57_5 1_555 1_555
C57_5 C59_5 1_555 1_555
C59_5 C62_5 1_555 1_555
C62_5 C52_5 1_555 1_555
C63_5 C64_5 1_555 1_555
C64_5 C51_5 1_555 1_555
C65_5 C64_5 1_555 1_555
C67_5 C54_5 1_555 1_555
C69_5 C50_5 1_555 1_555
O78_2 Sc17_3 1_555 1_555
O86_5 Sc17_3 1_555 1_555
C29_5 C31_5 1_555 1_555
C65_5 C67_5 1_555 1_555
C23_5 H7_5 1_555 1_555
C15_5 H10_5 1_555 1_555
C26_5 H12_5 1_555 1_555
C14_5 H17_5 1_555 1_555
C17_5 H18_5 1_555 1_555
C18_5 H19_5 1_555 1_555
C29_5 H23_5 1_555 1_555
C53_5 H37_5 1_555 1_555
C59_5 H38_5 1_555 1_555
C51_5 H41_5 1_555 1_555
C50_5 H42_5 1_555 1_555
C54_5 H43_5 1_555 1_555
C62_5 H45_5 1_555 1_555
C65_5 H46_5 1_555 1_555
Sc25 O6_5 1_555 1_555
Sc33 O4_5 1_555 1_555
Sc38_2 O1_5 1_555 1_555
O1_5 C4_5 1_555 1_555
O3_5 Sc38_2 1_555 1_555
O4_5 C3_5 1_555 1_555
O6_5 C4_5 1_555 1_555
O71_2 C6_5 1_555 1_555
O73_2 C6_5 1_555 1_555
O75 C8_5 1_555 1_555
O80 C8_5 1_555 1_555
O15_5 Sc25 1_555 1_555
O16_5 Sc38_2 1_555 1_555
O17_5 Sc33 1_555 1_555
O18_5 Sc25 1_555 1_555
C3_5 O3_5 1_555 1_555
C5_5 C11_5 1_555 1_555
C6_5 C32_5 1_555 1_555
C8_5 C30_5 1_555 1_555
C10_5 C3_5 1_555 1_555
C11_5 C20_5 1_555 1_555
C12_5 C19_5 1_555 1_555
C13_5 C20_5 1_555 1_555
C19_5 C22_5 1_555 1_555
C20_5 C25_5 1_555 1_555
C22_5 C10_5 1_555 1_555
C24_5 C19_5 1_555 1_555
C25_5 C24_5 1_555 1_555
C30_5 C12_5 1_555 1_555
C32_5 C13_5 1_555 1_555
C34_5 C5_5 1_555 1_555
C36_5 C10_5 1_555 1_555
Sc26 O28_5 1_555 1_555
Sc34 O26_5 1_555 1_555
Sc39_2 O23_5 1_555 1_555
O23_5 C40_5 1_555 1_555
O25_5 Sc39_2 1_555 1_555
O26_5 C39_5 1_555 1_555
O28_5 C40_5 1_555 1_555
O30_5 Sc38_2 1_555 1_555
O31_5 Sc25 1_555 1_555
O76 C44_5 1_555 1_555
O81 C44_5 1_555 1_555
O37_5 Sc26 1_555 1_555
O38_5 Sc39_2 1_555 1_555
O39_5 Sc34 1_555 1_555
O40_5 Sc26 1_555 1_555
C39_5 O25_5 1_555 1_555
C41_5 C47_5 1_555 1_555
C42_5 O30_5 1_555 1_555
C44_5 C66_5 1_555 1_555
C46_5 C39_5 1_555 1_555
C47_5 C56_5 1_555 1_555
C48_5 C55_5 1_555 1_555
C49_5 C56_5 1_555 1_555
C55_5 C58_5 1_555 1_555
C56_5 C61_5 1_555 1_555
C58_5 C46_5 1_555 1_555
C60_5 C55_5 1_555 1_555
C61_5 C60_5 1_555 1_555
C66_5 C48_5 1_555 1_555
C68_5 C42_5 1_555 1_555
C70_5 C41_5 1_555 1_555
C72_5 C46_5 1_555 1_555
Sc33 O18_5 1_555 1_555
Sc38_2 O18_5 1_555 1_555
C30_5 C36_5 1_555 1_555
C32_5 C34_5 1_555 1_555
Sc34 O40_5 1_555 1_555
Sc39_2 O40_5 1_555 1_555
O31_5 C42_5 1_555 1_555
C49_5 C68_5 1_555 1_555
C66_5 C72_5 1_555 1_555
C68_5 C70_5 1_555 1_555
O15_5 H1_5 1_555 1_555
O15_5 H2_5 1_555 1_555
O16_5 H6_5 1_555 1_555
C24_5 H8_5 1_555 1_555
C25_5 H9_5 1_555 1_555
C22_5 H11_5 1_555 1_555
C13_5 H13_5 1_555 1_555
C12_5 H15_5 1_555 1_555
C11_5 H16_5 1_555 1_555
O17_5 H20_5 1_555 1_555
O17_5 H21_5 1_555 1_555
C36_5 H22_5 1_555 1_555
C34_5 H24_5 1_555 1_555
O37_5 H25_5 1_555 1_555
O37_5 H26_5 1_555 1_555
O39_5 H27_5 1_555 1_555
O39_5 H28_5 1_555 1_555
O38_5 H30_5 1_555 1_555
C49_5 H33_5 1_555 1_555
C48_5 H35_5 1_555 1_555
C47_5 H36_5 1_555 1_555
C60_5 H39_5 1_555 1_555
C58_5 H40_5 1_555 1_555
C61_5 H44_5 1_555 1_555
C72_5 H47_5 1_555 1_555
C70_5 H48_5 1_555 1_555
O68_2 C2_5 1_555 1_555
O78_2 C7_5 1_555 1_555
O93_2 C2_5 1_555 1_555
C2_5 C35_5 1_555 1_555
C35_5 C9_5 1_555 1_555
C9_5 H14_5 1_555 1_555
O57_5 H31_2 1_555 1_555
O57_5 H32_2 1_555 1_555
O51_3 C78_6 1_555 1_555
O52_3 C78_6 1_555 1_555
O92_2 C73_6 1_555 1_555
C73_6 C77_6 1_555 1_555
C78_6 C104_6 1_555 1_555
C106_6 C77_6 1_555 1_555
Sc23 O52_3 1_555 1_555
Sc39 O51_3 1_555 1_555
C104_6 C106_6 1_555 1_555
C106_6 H71_6 1_555 1_555
Sc17_2 O29_6 1_555 1_555
Sc23 O28_6 1_555 1_555
Sc30 O26_6 1_555 1_555
Sc39 O23_6 1_555 1_555
O23_6 C40_6 1_555 1_555
O66 C63_6 1_555 1_555
O25_6 Sc39 1_555 1_555
O26_6 C39_6 1_555 1_555
O69 C38_6 1_555 1_555
O28_6 C40_6 1_555 1_555
O29_6 C43_6 1_555 1_555
O76_3 C44_6 1_555 1_555
O33_3 C43_6 1_555 1_555
O81_3 C44_6 1_555 1_555
O84 C63_6 1_555 1_555
O36_6 Sc17_2 1_555 1_555
O37_6 Sc23 1_555 1_555
O38_6 Sc39 1_555 1_555
O39_6 Sc30 1_555 1_555
O40_6 Sc23 1_555 1_555
O94 C38_6 1_555 1_555
C38_6 C71_6 1_555 1_555
C39_6 O25_6 1_555 1_555
C40_6 C67_6 1_555 1_555
C43_6 C69_6 1_555 1_555
C44_6 C66_6 1_555 1_555
C45_6 C69_6 1_555 1_555
C46_6 C39_6 1_555 1_555
C47_6 C56_6 1_555 1_555
C48_6 C55_6 1_555 1_555
C49_6 C56_6 1_555 1_555
C50_6 C52_6 1_555 1_555
C51_6 C57_6 1_555 1_555
C52_6 C53_6 1_555 1_555
C53_6 C71_6 1_555 1_555
C54_6 C57_6 1_555 1_555
C55_6 C58_6 1_555 1_555
C56_6 C61_6 1_555 1_555
C57_6 C59_6 1_555 1_555
C58_6 C46_6 1_555 1_555
C59_6 C62_6 1_555 1_555
C60_6 C55_6 1_555 1_555
C61_6 C60_6 1_555 1_555
C62_6 C52_6 1_555 1_555
C63_6 C64_6 1_555 1_555
C64_6 C51_6 1_555 1_555
C65_6 C64_6 1_555 1_555
C66_6 C48_6 1_555 1_555
C67_6 C54_6 1_555 1_555
C69_6 C50_6 1_555 1_555
C71_6 C45_6 1_555 1_555
C72_6 C46_6 1_555 1_555
O77_3 C80_6 1_555 1_555
O82_3 C80_6 1_555 1_555
C80_6 C102_6 1_555 1_555
C83_6 C92_6 1_555 1_555
C84_6 C91_6 1_555 1_555
C85_6 C92_6 1_555 1_555
C91_6 C94_6 1_555 1_555
C92_6 C97_6 1_555 1_555
C96_6 C91_6 1_555 1_555
C97_6 C96_6 1_555 1_555
C102_6 C84_6 1_555 1_555
Sc19_2 O33_3 1_555 1_555
O78_3 Sc17_2 1_555 1_555
O86_6 Sc17_2 1_555 1_555
Sc30 O40_6 1_555 1_555
Sc39 O40_6 1_555 1_555
C65_6 C67_6 1_555 1_555
C66_6 C72_6 1_555 1_555
C102_6 C108_6 1_555 1_555
Sc19_2 O86_6 1_555 1_555
O37_6 H25_6 1_555 1_555
O37_6 H26_6 1_555 1_555
O39_6 H27_6 1_555 1_555
O39_6 H28_6 1_555 1_555
O38_6 H29_6 1_555 1_555
O38_6 H30_6 1_555 1_555
C49_6 H33_6 1_555 1_555
C45_6 H34_6 1_555 1_555
C48_6 H35_6 1_555 1_555
C47_6 H36_6 1_555 1_555
C53_6 H37_6 1_555 1_555
C59_6 H38_6 1_555 1_555
C60_6 H39_6 1_555 1_555
C58_6 H40_6 1_555 1_555
C51_6 H41_6 1_555 1_555
C50_6 H42_6 1_555 1_555
C54_6 H43_6 1_555 1_555
C61_6 H44_6 1_555 1_555
C62_6 H45_6 1_555 1_555
C65_6 H46_6 1_555 1_555
C72_6 H47_6 1_555 1_555
C84_6 H50_6 1_555 1_555
C83_6 H59_6 1_555 1_555
C85_6 H60_6 1_555 1_555
C94_6 H68_6 1_555 1_555
C96_6 H69_6 1_555 1_555
C97_6 H70_6 1_555 1_555
C108_6 H72_6 1_555 1_555
Sc15_2 O7_6 1_555 1_555
Sc22 O6_6 1_555 1_555
Sc29 O4_6 1_555 1_555
Sc38 O1_6 1_555 1_555
O1_6 C4_6 1_555 1_555
O65 C27_6 1_555 1_555
O3_6 Sc38 1_555 1_555
O4_6 C3_6 1_555 1_555
O68 C2_6 1_555 1_555
O6_6 C4_6 1_555 1_555
O7_6 C7_6 1_555 1_555
O78_3 C7_6 1_555 1_555
O83 C27_6 1_555 1_555
O14_6 Sc15_2 1_555 1_555
O15_6 Sc22 1_555 1_555
O16_6 Sc38 1_555 1_555
O17_6 Sc29 1_555 1_555
O18_6 Sc22 1_555 1_555
O86_6 Sc15_2 1_555 1_555
O93 C2_6 1_555 1_555
C2_6 C35_6 1_555 1_555
C3_6 O3_6 1_555 1_555
C4_6 C31_6 1_555 1_555
C7_6 C33_6 1_555 1_555
C9_6 C33_6 1_555 1_555
C10_6 C3_6 1_555 1_555
C14_6 C16_6 1_555 1_555
C15_6 C21_6 1_555 1_555
C16_6 C17_6 1_555 1_555
C17_6 C35_6 1_555 1_555
C18_6 C21_6 1_555 1_555
C21_6 C23_6 1_555 1_555
C23_6 C26_6 1_555 1_555
C26_6 C16_6 1_555 1_555
C27_6 C28_6 1_555 1_555
C28_6 C15_6 1_555 1_555
C29_6 C28_6 1_555 1_555
C31_6 C18_6 1_555 1_555
C33_6 C14_6 1_555 1_555
C35_6 C9_6 1_555 1_555
O30_6 Sc38 1_555 1_555
O31_6 Sc22 1_555 1_555
O91_2 C37_6 1_555 1_555
C37_6 C41_6 1_555 1_555
C42_6 O30_6 1_555 1_555
C68_6 C42_6 1_555 1_555
C70_6 C41_6 1_555 1_555
Sc24 O49_6 1_555 1_555
Sc32 O47_6 1_555 1_555
Sc40 O44_6 1_555 1_555
O44_6 C76_6 1_555 1_555
O67 C99_6 1_555 1_555
O46_6 Sc40 1_555 1_555
O47_6 C75_6 1_555 1_555
O70 C74_6 1_555 1_555
O49_6 C76_6 1_555 1_555
O50_6 Sc19_2 1_555 1_555
O54_6 Sc15_2 1_555 1_555
O85 C99_6 1_555 1_555
O57_6 Sc19_2 1_555 1_555
O58_6 Sc24 1_555 1_555
O59_6 Sc40 1_555 1_555
O60_6 Sc32 1_555 1_555
O61_6 Sc24 1_555 1_555
O95 C74_6 1_555 1_555
C74_6 C107_6 1_555 1_555
C75_6 O46_6 1_555 1_555
C76_6 C103_6 1_555 1_555
C79_6 O50_6 1_555 1_555
C81_6 C105_6 1_555 1_555
C82_6 C75_6 1_555 1_555
C86_6 C88_6 1_555 1_555
C87_6 C93_6 1_555 1_555
C88_6 C89_6 1_555 1_555
C89_6 C107_6 1_555 1_555
C90_6 C93_6 1_555 1_555
C93_6 C95_6 1_555 1_555
C95_6 C98_6 1_555 1_555
C98_6 C88_6 1_555 1_555
C99_6 C100_6 1_555 1_555
C100_6 C87_6 1_555 1_555
C101_6 C100_6 1_555 1_555
C103_6 C90_6 1_555 1_555
C105_6 C79_6 1_555 1_555
C107_6 C81_6 1_555 1_555
O71_3 Sc40 1_555 1_555
O73_3 Sc24 1_555 1_555
Sc29 O18_6 1_555 1_555
Sc38 O18_6 1_555 1_555
C29_6 C31_6 1_555 1_555
O31_6 C42_6 1_555 1_555
C68_6 C70_6 1_555 1_555
Sc32 O61_6 1_555 1_555
Sc40 O61_6 1_555 1_555
O54_6 C79_6 1_555 1_555
C86_6 C105_6 1_555 1_555
C101_6 C103_6 1_555 1_555
O15_6 H1_6 1_555 1_555
O15_6 H2_6 1_555 1_555
O16_6 H5_6 1_555 1_555
O16_6 H6_6 1_555 1_555
C23_6 H7_6 1_555 1_555
C15_6 H10_6 1_555 1_555
C26_6 H12_6 1_555 1_555
C9_6 H14_6 1_555 1_555
C14_6 H17_6 1_555 1_555
C17_6 H18_6 1_555 1_555
C18_6 H19_6 1_555 1_555
O17_6 H20_6 1_555 1_555
O17_6 H21_6 1_555 1_555
C29_6 H23_6 1_555 1_555
C70_6 H48_6 1_555 1_555
C81_6 H49_6 1_555 1_555
O58_6 H51_6 1_555 1_555
O58_6 H52_6 1_555 1_555
O59_6 H53_6 1_555 1_555
O59_6 H54_6 1_555 1_555
O60_6 H57_6 1_555 1_555
O60_6 H58_6 1_555 1_555
C86_6 H61_6 1_555 1_555
C89_6 H62_6 1_555 1_555
C87_6 H63_6 1_555 1_555
C90_6 H64_6 1_555 1_555
C95_6 H65_6 1_555 1_555
C98_6 H66_6 1_555 1_555
C101_6 H67_6 1_555 1_555
O71_3 C6_6 1_555 1_555
O73_3 C6_6 1_555 1_555
O75_3 C8_6 1_555 1_555
O80_3 C8_6 1_555 1_555
O87_2 C1_6 1_555 1_555
O90_2 C1_6 1_555 1_555
C1_6 C5_6 1_555 1_555
C5_6 C11_6 1_555 1_555
C6_6 C32_6 1_555 1_555
C8_6 C30_6 1_555 1_555
C11_6 C20_6 1_555 1_555
C12_6 C19_6 1_555 1_555
C13_6 C20_6 1_555 1_555
C19_6 C22_6 1_555 1_555
C20_6 C25_6 1_555 1_555
C24_6 C19_6 1_555 1_555
C25_6 C24_6 1_555 1_555
C30_6 C12_6 1_555 1_555
C32_6 C13_6 1_555 1_555
C34_6 C5_6 1_555 1_555
C30_6 C36_6 1_555 1_555
C32_6 C34_6 1_555 1_555
C24_6 H8_6 1_555 1_555
C25_6 H9_6 1_555 1_555
C22_6 H11_6 1_555 1_555
C13_6 H13_6 1_555 1_555
C12_6 H15_6 1_555 1_555
C11_6 H16_6 1_555 1_555
C36_6 H22_6 1_555 1_555
C34_6 H24_6 1_555 1_555

#END
