
###############################################################################
#
# This file contains modified crystal structure data generated from the
# MOF subset of the Cambridge Structural Database (CSD) v543 
# hosted by the Cambridge Crystallographic Data Centre (CCDC).
#
# This work is licensed under the Creative Commons
# Attribution-NonCommercial-ShareAlike 4.0 International License.
# To view a copy of this license, visit
# http://creativecommons.org/licenses/by-nc-sa/4.0/
# or send a letter to
# Creative Commons, PO Box 1866, Mountain View, CA 94042, USA.
#
# CIF created using the CSD Python API on 29 September 2022
# The structure has been converted into the P1 space group
# The structure has a 3D framework
# The original CSD entry IWOKOW is in the monoclinic crystal system
# The framework has been calculated to contain at least 10.0% void space
# The void calculation uses a probe of radius 1.32A, grid spacing 0.4
#
###############################################################################

data_IWOKOW
_chemical_formula_moiety         '(C528 H544 Fe10 N48 S80)n'
_symmetry_cell_setting           triclinic
_symmetry_space_group_name_H-M   'P 1'
_symmetry_Int_Tables_number      1
_space_group_name_Hall           'P 1'
loop_
_symmetry_equiv_pos_site_id
_symmetry_equiv_pos_as_xyz
1 x,y,z
_cell_length_a                   12.0702(12)
_cell_length_b                   24.951(3)
_cell_length_c                   50.623(5)
_cell_angle_alpha                90
_cell_angle_beta                 95.774(2)
_cell_angle_gamma                90
_cell_volume                     15168.5
loop_
_atom_site_label
_atom_site_type_symbol
_atom_site_fract_x
_atom_site_fract_y
_atom_site_fract_z
N5 N 0.0070(10) 0.0018(4) 0.2296(3)
C65 C 0.0195(12) 0.0334(5) 0.2131(3)
S9 S 0.0101(3) 0.08091(13) 0.19167(9)
Fe1 Fe 0.0000 0.92859(7) 0.2500
H89 H 0.0297 0.9262 0.3728
C92 C 0.0187(9) 0.8292(4) 0.29050(19)
H91 H 0.0317 0.8100 0.2749
C93 C 0.0194(10) 0.8026(3) 0.3146(2)
H92 H 0.0329 0.7651 0.3155
C94 C 0.0003(11) 0.8308(5) 0.33741(19)
H93 H 0.0008 0.8126 0.3539
N13 N 0.1832(8) 0.9253(4) 0.25717(18)
N14 N 0.0011(9) 0.8841(4) 0.2108(2)
S2 S 0.56206(19) 0.00084(8) 0.17590(6)
C7 C 0.5770(9) 0.0047(6) 0.2133(3)
H3 H 0.6136 0.0389 0.2189
H4 H 0.5020 0.0046 0.2196
C17 C 0.2797(7) 0.0065(3) 0.1550(2)
C19 C 0.2113(8) 0.0139(3) 0.1086(2)
C20 C 0.2433(8) 0.0679(3) 0.1092(2)
H18 H 0.2296 0.0889 0.0935
C21 C 0.2956(7) 0.0920(3) 0.1325(2)
C22 C 0.3152(8) 0.0609(3) 0.1543(2)
H19 H 0.3542 0.0759 0.1698
C29 C 0.3308(10) 0.1508(3) 0.1337(2)
C30 C 0.3506(12) 0.1706(4) 0.1055(3)
H26 H 0.2794 0.1718 0.0943
H27 H 0.4014 0.1460 0.0976
H28 H 0.3833 0.2066 0.1067
C31 C 0.2432(13) 0.1833(4) 0.1437(3)
H29 H 0.1772 0.1830 0.1307
H30 H 0.2696 0.2202 0.1464
H31 H 0.2239 0.1685 0.1605
C32 C 0.4406(11) 0.1580(4) 0.1523(3)
H32 H 0.4584 0.1962 0.1541
H33 H 0.5014 0.1393 0.1447
H34 H 0.4313 0.1430 0.1698
S6 S 0.3984(2) 0.02351(7) 0.06269(5)
C39 C 0.3660(9) 0.0355(3) 0.02764(19)
H37 H 0.3990 0.0070 0.0173
H38 H 0.2843 0.0352 0.0231
C40 C 0.4134(8) 0.0900(3) 0.02085(17)
C41 C 0.3389(7) 0.1340(3) 0.01768(17)
H39 H 0.2626 0.1283 0.0199
N3 N 0.3716(6) 0.1826(2) 0.01175(15)
C42 C 0.4824(7) 0.1911(3) 0.00955(18)
H40 H 0.5072 0.2259 0.0054
C43 C 0.5594(8) 0.1493(4) 0.0133(2)
H41 H 0.6363 0.1558 0.0122
C44 C 0.5221(8) 0.0984(3) 0.01878(18)
H42 H 0.5733 0.0695 0.0211
H52 H 0.7814 0.0039 0.1454
C53 C 0.7311(8) 0.0226(3) 0.10698(19)
C54 C 0.6756(7) 0.0013(3) 0.08452(19)
H53 H 0.6649 0.0230 0.0691
C61 C 0.7746(10) 0.0823(4) 0.1079(2)
C62 C 0.719(4) 0.1151(18) 0.1287(7)
H60 H 0.7088 0.0925 0.1441
H61 H 0.6463 0.1281 0.1209
H62 H 0.7663 0.1458 0.1344
C63 C 0.762(4) 0.1119(11) 0.0807(4)
H63 H 0.8341 0.1137 0.0736
H64 H 0.7341 0.1484 0.0832
H65 H 0.7086 0.0925 0.0683
C64 C 0.9010(18) 0.0763(14) 0.1167(8)
H66 H 0.9315 0.0470 0.1067
H67 H 0.9120 0.0682 0.1357
H68 H 0.9393 0.1098 0.1132
S12 S 0.43794(19) 0.00084(8) 0.32410(6)
C73 C 0.4230(9) 0.0047(6) 0.2867(3)
H71 H 0.3864 0.0389 0.2811
H72 H 0.4980 0.0046 0.2804
C83 C 0.7203(7) 0.0065(3) 0.3450(2)
C85 C 0.7887(8) 0.0139(3) 0.3914(2)
C86 C 0.7567(8) 0.0679(3) 0.3908(2)
H86 H 0.7704 0.0889 0.4065
C87 C 0.7044(7) 0.0920(3) 0.3675(2)
C88 C 0.6848(8) 0.0609(3) 0.3457(2)
H87 H 0.6458 0.0759 0.3302
C95 C 0.6692(10) 0.1508(3) 0.3663(2)
C96 C 0.6494(12) 0.1706(4) 0.3945(3)
H94 H 0.7206 0.1718 0.4057
H95 H 0.5986 0.1460 0.4024
H96 H 0.6167 0.2066 0.3933
C97 C 0.7568(13) 0.1833(4) 0.3563(3)
H97 H 0.8228 0.1830 0.3693
H98 H 0.7304 0.2202 0.3536
H99 H 0.7761 0.1685 0.3395
C98 C 0.5594(11) 0.1580(4) 0.3477(3)
H100 H 0.5416 0.1962 0.3459
H101 H 0.4986 0.1393 0.3553
H102 H 0.5687 0.1430 0.3302
S16 S 0.6016(2) 0.02351(7) 0.43731(5)
C105 C 0.6340(9) 0.0355(3) 0.47236(19)
H105 H 0.6010 0.0070 0.4827
H106 H 0.7157 0.0352 0.4769
C106 C 0.5866(8) 0.0900(3) 0.47915(17)
C107 C 0.6611(7) 0.1340(3) 0.48232(17)
H107 H 0.7374 0.1283 0.4801
N9 N 0.6284(6) 0.1826(2) 0.48825(15)
C108 C 0.5176(7) 0.1911(3) 0.49045(18)
H108 H 0.4928 0.2259 0.4946
C109 C 0.4406(8) 0.1493(4) 0.4867(2)
H109 H 0.3637 0.1558 0.4878
C110 C 0.4779(8) 0.0984(3) 0.48122(18)
H110 H 0.4267 0.0695 0.4789
H120 H 0.2186 0.0039 0.3546
C119 C 0.2689(8) 0.0226(3) 0.39302(19)
C120 C 0.3244(7) 0.0013(3) 0.41548(19)
H121 H 0.3351 0.0230 0.4309
C127 C 0.2254(10) 0.0823(4) 0.3921(2)
C128 C 0.281(4) 0.1151(18) 0.3713(7)
H128 H 0.2912 0.0925 0.3559
H129 H 0.3537 0.1281 0.3791
H130 H 0.2337 0.1458 0.3656
C129 C 0.238(4) 0.1119(11) 0.4193(4)
H131 H 0.1659 0.1137 0.4264
H132 H 0.2659 0.1484 0.4168
H133 H 0.2914 0.0925 0.4317
C130 C 0.0990(18) 0.0763(14) 0.3833(8)
H134 H 0.0685 0.0470 0.3933
H135 H 0.0880 0.0682 0.3643
H136 H 0.0607 0.1098 0.3868
N11 N 0.9930(10) 0.0018(4) 0.2704(3)
C131 C 0.9805(12) 0.0334(5) 0.2869(3)
S19 S 0.9899(3) 0.08091(13) 0.30833(9)
Fe5 Fe 0.2500 0.2500 0.0000
Fe6 Fe 0.7500 0.2500 0.5000
Fe5_2 Fe 0.2500 0.2500 1.0000
Fe1_2 Fe 1.0000 0.92859(7) 0.2500
Fe2 Fe 0.7500 0.7500 0.0000
S1 S 0.71895(17) 0.90177(8) 0.15997(5)
C1 C 0.5786(7) 0.8921(3) 0.16712(17)
C2 C 0.5104(7) 0.9349(3) 0.17263(18)
C3 C 0.4006(7) 0.9222(3) 0.17859(19)
C4 C 0.3690(7) 0.8687(3) 0.1806(2)
H1 H 0.2957 0.8612 0.1849
C5 C 0.4382(8) 0.8261(3) 0.1767(2)
C6 C 0.5424(8) 0.8387(3) 0.16952(19)
H2 H 0.5916 0.8104 0.1661
C8 C 0.6408(9) 0.9610(6) 0.2255(2)
C9 C 0.7574(9) 0.9647(5) 0.2320(2)
H5 H 0.7939 0.9972 0.2282
N1 N 0.8168(8) 0.9253(4) 0.24283(18)
C10 C 0.7641(12) 0.8792(6) 0.2480(3)
H6 H 0.8075 0.8505 0.2558
C11 C 0.6528(16) 0.8717(10) 0.2428(3)
H7 H 0.6183 0.8394 0.2476
C12 C 0.5905(12) 0.9133(9) 0.2300(3)
H8 H 0.5137 0.9083 0.2244
C13 C 0.4049(10) 0.7670(4) 0.1808(2)
C14 C 0.4273(12) 0.7546(4) 0.2088(2)
H9 H 0.3903 0.7810 0.2193
H10 H 0.5078 0.7556 0.2139
H11 H 0.3989 0.7187 0.2122
C15 C 0.4651(12) 0.7281(4) 0.1642(3)
H12 H 0.5457 0.7324 0.1683
H13 H 0.4448 0.7356 0.1453
H14 H 0.4437 0.6914 0.1682
C16 C 0.2847(13) 0.7602(5) 0.1749(7)
H15 H 0.2683 0.7228 0.1701
H16 H 0.2578 0.7836 0.1600
H17 H 0.2473 0.7696 0.1906
S3 S 0.30258(19) 0.97202(8) 0.18586(5)
C18 C 0.2268(7) 0.9832(3) 0.13207(19)
S4 S 0.1701(3) 0.91746(10) 0.13288(7)
C23 C 0.0277(10) 0.9307(5) 0.1424(2)
H20 H 0.0216 0.9670 0.1501
C24 C 0.0194(11) 0.8857(5) 0.1639(2)
C25 C 0.0201(10) 0.9123(3) 0.1881(3)
H22 H 0.0336 0.9498 0.1890
S5 S 0.1490(2) 0.98864(9) 0.07800(6)
C33 C 0.2518(7) 0.9404(3) 0.06962(18)
C34 C 0.3571(8) 0.9547(3) 0.06387(18)
C35 C 0.4324(7) 0.9134(3) 0.05839(17)
C36 C 0.3963(7) 0.8603(3) 0.05731(17)
H35 H 0.4455 0.8332 0.0523
C37 C 0.2905(7) 0.8457(3) 0.06335(18)
C38 C 0.2179(7) 0.8862(3) 0.06958(18)
H36 H 0.1452 0.8773 0.0738
C45 C 0.2584(8) 0.7861(3) 0.0648(2)
C46 C 0.2828(12) 0.7571(4) 0.0397(3)
H43 H 0.2710 0.7185 0.0418
H44 H 0.3602 0.7636 0.0363
H45 H 0.2328 0.7704 0.0246
C47 C 0.3339(13) 0.7633(5) 0.0889(3)
H46 H 0.3324 0.7876 0.1040
H47 H 0.4104 0.7600 0.0842
H48 H 0.3064 0.7280 0.0936
C48 C 0.1400(10) 0.7770(5) 0.0681(4)
H49 H 0.0940 0.8009 0.0561
H50 H 0.1265 0.7845 0.0865
H51 H 0.1206 0.7397 0.0638
S7 S 0.57202(19) 0.92622(8) 0.05174(5)
C49 C 0.6343(7) 0.9494(3) 0.08333(17)
C50 C 0.6490(7) 0.9165(3) 0.10570(17)
C51 C 0.6992(6) 0.9390(3) 0.12968(18)
C52 C 0.7425(7) 0.9903(3) 0.12955(19)
S8 S 0.60783(19) 0.84794(7) 0.10466(5)
C55 C 0.7469(8) 0.8183(3) 0.1051(2)
H54 H 0.7953 0.8331 0.1203
H55 H 0.7414 0.7791 0.1077
C56 C 0.7990(8) 0.8290(3) 0.0800(2)
C57 C 0.7776(7) 0.7952(3) 0.0584(2)
H56 H 0.7336 0.7643 0.0608
N4 N 0.8132(6) 0.8022(2) 0.03503(18)
C58 C 0.8801(7) 0.8452(3) 0.0322(2)
H57 H 0.9123 0.8500 0.0160
C59 C 0.9026(8) 0.8822(4) 0.0525(2)
H58 H 0.9455 0.9133 0.0498
C60 C 0.8624(8) 0.8735(4) 0.0764(2)
H59 H 0.8782 0.8983 0.0905
S11 S 0.28105(17) 0.90177(8) 0.34003(5)
C67 C 0.4214(7) 0.8921(3) 0.33288(17)
C68 C 0.4896(7) 0.9349(3) 0.32737(18)
C69 C 0.5994(7) 0.9222(3) 0.32141(19)
C70 C 0.6310(7) 0.8687(3) 0.3194(2)
H69 H 0.7043 0.8612 0.3151
C71 C 0.5618(8) 0.8261(3) 0.3233(2)
C72 C 0.4576(8) 0.8387(3) 0.33048(19)
H70 H 0.4084 0.8104 0.3339
C74 C 0.3592(9) 0.9610(6) 0.2745(2)
C75 C 0.2426(9) 0.9647(5) 0.2680(2)
H73 H 0.2061 0.9972 0.2718
C76 C 0.2359(12) 0.8792(6) 0.2520(3)
H74 H 0.1925 0.8505 0.2442
C77 C 0.3472(16) 0.8717(10) 0.2572(3)
H75 H 0.3817 0.8394 0.2524
C78 C 0.4095(12) 0.9133(9) 0.2700(3)
H76 H 0.4863 0.9083 0.2756
C79 C 0.5951(10) 0.7670(4) 0.3192(2)
C80 C 0.5727(12) 0.7546(4) 0.2912(2)
H77 H 0.6097 0.7810 0.2807
H78 H 0.4922 0.7556 0.2861
H79 H 0.6011 0.7187 0.2878
C81 C 0.5349(12) 0.7281(4) 0.3358(3)
H80 H 0.4543 0.7324 0.3317
H81 H 0.5552 0.7356 0.3547
H82 H 0.5563 0.6914 0.3318
C82 C 0.7153(13) 0.7602(5) 0.3251(7)
H83 H 0.7317 0.7228 0.3299
H84 H 0.7422 0.7836 0.3400
H85 H 0.7527 0.7696 0.3094
S13 S 0.69742(19) 0.97202(8) 0.31414(5)
C84 C 0.7732(7) 0.9832(3) 0.36793(19)
S14 S 0.8299(3) 0.91746(10) 0.36712(7)
C89 C 0.9723(10) 0.9307(5) 0.3576(2)
H88 H 0.9784 0.9670 0.3499
C90 C 0.9806(11) 0.8857(5) 0.3361(2)
C91 C 0.9799(10) 0.9123(3) 0.3119(3)
H90 H 0.9664 0.9498 0.3110
N8 N 0.9989(9) 0.8841(4) 0.2892(2)
S15 S 0.8510(2) 0.98864(9) 0.42200(6)
C99 C 0.7482(7) 0.9404(3) 0.43038(18)
C100 C 0.6429(8) 0.9547(3) 0.43613(18)
C101 C 0.5676(7) 0.9134(3) 0.44161(17)
C102 C 0.6037(7) 0.8603(3) 0.44269(17)
H103 H 0.5545 0.8332 0.4477
C103 C 0.7095(7) 0.8457(3) 0.43665(18)
C104 C 0.7821(7) 0.8862(3) 0.43042(18)
H104 H 0.8548 0.8773 0.4262
C111 C 0.7416(8) 0.7861(3) 0.4352(2)
C112 C 0.7172(12) 0.7571(4) 0.4603(3)
H111 H 0.7290 0.7185 0.4582
H112 H 0.6398 0.7636 0.4637
H113 H 0.7672 0.7704 0.4754
C113 C 0.6661(13) 0.7633(5) 0.4111(3)
H114 H 0.6676 0.7876 0.3960
H115 H 0.5896 0.7600 0.4158
H116 H 0.6936 0.7280 0.4064
C114 C 0.8600(10) 0.7770(5) 0.4319(4)
H117 H 0.9060 0.8009 0.4439
H118 H 0.8735 0.7845 0.4135
H119 H 0.8794 0.7397 0.4362
S17 S 0.42798(19) 0.92622(8) 0.44826(5)
C115 C 0.3657(7) 0.9494(3) 0.41667(17)
C116 C 0.3510(7) 0.9165(3) 0.39430(17)
C117 C 0.3008(6) 0.9390(3) 0.37032(18)
C118 C 0.2575(7) 0.9903(3) 0.37045(19)
S18 S 0.39217(19) 0.84794(7) 0.39534(5)
C121 C 0.2531(8) 0.8183(3) 0.3949(2)
H122 H 0.2047 0.8331 0.3797
H123 H 0.2586 0.7791 0.3923
C122 C 0.2010(8) 0.8290(3) 0.4200(2)
C123 C 0.2224(7) 0.7952(3) 0.4416(2)
H124 H 0.2664 0.7643 0.4392
N10 N 0.1868(6) 0.8022(2) 0.46497(18)
C124 C 0.1199(7) 0.8452(3) 0.4678(2)
H125 H 0.0877 0.8500 0.4840
C125 C 0.0974(8) 0.8822(4) 0.4475(2)
H126 H 0.0545 0.9133 0.4502
C126 C 0.1376(8) 0.8735(4) 0.4236(2)
H127 H 0.1218 0.8983 0.4095
N12 N 0.6342(6) 0.7134(3) 0.02278(16)
C132 C 0.5946(7) 0.6884(3) 0.0381(2)
S20 S 0.5454(3) 0.65435(17) 0.06150(9)
Fe4 Fe 0.2500 0.7500 0.5000
N15 N 0.8716(6) 0.6826(2) 0.01175(15)
Fe2_2 Fe 0.7500 0.7500 1.0000
N6 N 0.8658(6) 0.7866(3) 0.97722(16)
C66 C 0.9054(7) 0.8116(3) 0.9619(2)
S10 S 0.9546(3) 0.84565(17) 0.93850(9)
N16 N 0.6284(6) 0.8174(2) 0.98825(15)
N17 N 0.6868(6) 0.6978(2) 0.96497(18)
H21 H 0.9703 0.9262 0.1272
C26 C 0.9813(9) 0.8292(4) 0.20950(19)
H23 H 0.9683 0.8100 0.2251
C27 C 0.9806(10) 0.8026(3) 0.1854(2)
H24 H 0.9671 0.7651 0.1845
C28 C 0.9997(11) 0.8308(5) 0.16259(19)
H25 H 0.9992 0.8126 0.1461
N6_2 N 0.1342(6) 0.7866(3) 0.52278(16)
C66_2 C 0.0946(7) 0.8116(3) 0.5381(2)
S10_2 S 0.0454(3) 0.84565(17) 0.56150(9)
N12_2 N 0.3658(6) 0.7134(3) 0.47722(16)
C132_2 C 0.4054(7) 0.6884(3) 0.4619(2)
S20_2 S 0.4546(3) 0.65435(17) 0.43850(9)
N15_2 N 0.1284(6) 0.6826(2) 0.48825(15)
N16_2 N 0.3716(6) 0.8174(2) 0.51175(15)
N17_2 N 0.3132(6) 0.6978(2) 0.53503(18)
Fe1_3 Fe 0.5000 0.42859(7) 0.2500
S1_2 S 0.21895(17) 0.40177(8) 0.15997(5)
C1_2 C 0.0786(7) 0.3921(3) 0.16712(17)
C2_2 C 0.0104(7) 0.4349(3) 0.17263(18)
C6_2 C 0.0424(8) 0.3387(3) 0.16952(19)
H2_2 H 0.0916 0.3104 0.1661
S2_2 S 0.06206(19) 0.50084(8) 0.17590(6)
C7_2 C 0.0770(9) 0.5047(6) 0.2133(3)
H3_2 H 0.1136 0.5389 0.2189
H4_2 H 0.0020 0.5046 0.2196
C8_2 C 0.1408(9) 0.4610(6) 0.2255(2)
C9_2 C 0.2574(9) 0.4647(5) 0.2320(2)
H5_2 H 0.2939 0.4972 0.2282
N1_2 N 0.3168(8) 0.4253(4) 0.24283(18)
C10_2 C 0.2641(12) 0.3792(6) 0.2480(3)
H6_2 H 0.3075 0.3505 0.2558
C11_2 C 0.1528(16) 0.3717(10) 0.2428(3)
H7_2 H 0.1183 0.3394 0.2476
C12_2 C 0.0905(12) 0.4133(9) 0.2300(3)
H8_2 H 0.0137 0.4083 0.2244
H10_2 H 0.0078 0.2556 0.2139
H12_2 H 0.0457 0.2324 0.1683
H33_2 H 0.0014 0.6393 0.1447
H40_2 H 0.0072 0.7259 0.0054
C43_2 C 0.0594(8) 0.6493(4) 0.0133(2)
H41_2 H 0.1363 0.6558 0.0122
C44_2 C 0.0221(8) 0.5984(3) 0.01878(18)
H42_2 H 0.0733 0.5695 0.0211
S7_2 S 0.07202(19) 0.42622(8) 0.05174(5)
C49_2 C 0.1343(7) 0.4494(3) 0.08333(17)
C50_2 C 0.1490(7) 0.4165(3) 0.10570(17)
C51_2 C 0.1992(6) 0.4390(3) 0.12968(18)
C52_2 C 0.2425(7) 0.4903(3) 0.12955(19)
H52_2 H 0.2814 0.5039 0.1454
C53_2 C 0.2311(8) 0.5226(3) 0.10698(19)
C54_2 C 0.1756(7) 0.5013(3) 0.08452(19)
H53_2 H 0.1649 0.5230 0.0691
S8_2 S 0.10783(19) 0.34794(7) 0.10466(5)
C55_2 C 0.2469(8) 0.3183(3) 0.1051(2)
H54_2 H 0.2953 0.3331 0.1203
H55_2 H 0.2414 0.2791 0.1077
C56_2 C 0.2990(8) 0.3290(3) 0.0800(2)
C57_2 C 0.2776(7) 0.2952(3) 0.0584(2)
H56_2 H 0.2336 0.2643 0.0608
N4_2 N 0.3132(6) 0.3022(2) 0.03503(18)
C58_2 C 0.3801(7) 0.3452(3) 0.0322(2)
H57_2 H 0.4123 0.3500 0.0160
C59_2 C 0.4026(8) 0.3822(4) 0.0525(2)
H58_2 H 0.4455 0.4133 0.0498
C60_2 C 0.3624(8) 0.3735(4) 0.0764(2)
H59_2 H 0.3782 0.3983 0.0905
C61_2 C 0.2746(10) 0.5823(4) 0.1079(2)
C62_2 C 0.219(4) 0.6151(18) 0.1287(7)
H60_2 H 0.2088 0.5925 0.1441
H61_2 H 0.1463 0.6281 0.1209
H62_2 H 0.2663 0.6458 0.1344
C63_2 C 0.262(4) 0.6119(11) 0.0807(4)
H63_2 H 0.3341 0.6137 0.0736
H64_2 H 0.2341 0.6484 0.0832
H65_2 H 0.2086 0.5925 0.0683
C64_2 C 0.4010(18) 0.5763(14) 0.1167(8)
H66_2 H 0.4315 0.5470 0.1067
H67_2 H 0.4120 0.5682 0.1357
H68_2 H 0.4393 0.6098 0.1132
N5_2 N 0.5070(10) 0.5018(4) 0.2296(3)
C65_2 C 0.5195(12) 0.5334(5) 0.2131(3)
S9_2 S 0.5101(3) 0.58091(13) 0.19167(9)
C69_2 C 0.0994(7) 0.4222(3) 0.32141(19)
C70_2 C 0.1310(7) 0.3687(3) 0.3194(2)
H69_2 H 0.2043 0.3612 0.3151
C71_2 C 0.0618(8) 0.3261(3) 0.3233(2)
C79_2 C 0.0951(10) 0.2670(4) 0.3192(2)
C80_2 C 0.0727(12) 0.2546(4) 0.2912(2)
H77_2 H 0.1097 0.2810 0.2807
H79_2 H 0.1011 0.2187 0.2878
C81_2 C 0.0349(12) 0.2281(4) 0.3358(3)
H81_2 H 0.0552 0.2356 0.3547
H82_2 H 0.0563 0.1914 0.3318
C82_2 C 0.2153(13) 0.2602(5) 0.3251(7)
H83_2 H 0.2317 0.2228 0.3299
H84_2 H 0.2422 0.2836 0.3400
H85_2 H 0.2527 0.2696 0.3094
S13_2 S 0.19742(19) 0.47202(8) 0.31414(5)
C83_2 C 0.2203(7) 0.5065(3) 0.3450(2)
C84_2 C 0.2732(7) 0.4832(3) 0.36793(19)
C85_2 C 0.2887(8) 0.5139(3) 0.3914(2)
C86_2 C 0.2567(8) 0.5679(3) 0.3908(2)
H86_2 H 0.2704 0.5889 0.4065
C87_2 C 0.2044(7) 0.5920(3) 0.3675(2)
C88_2 C 0.1848(8) 0.5609(3) 0.3457(2)
H87_2 H 0.1458 0.5759 0.3302
S14_2 S 0.3299(3) 0.41746(10) 0.36712(7)
C89_2 C 0.4723(10) 0.4307(5) 0.3576(2)
H88_2 H 0.4784 0.4670 0.3499
H89_2 H 0.5297 0.4262 0.3728
C90_2 C 0.4806(11) 0.3857(5) 0.3361(2)
C91_2 C 0.4799(10) 0.4123(3) 0.3119(3)
H90_2 H 0.4664 0.4498 0.3110
N8_2 N 0.4989(9) 0.3841(4) 0.2892(2)
C92_2 C 0.5187(9) 0.3292(4) 0.29050(19)
H91_2 H 0.5317 0.3100 0.2749
C93_2 C 0.5194(10) 0.3026(3) 0.3146(2)
H92_2 H 0.5329 0.2651 0.3155
C94_2 C 0.5003(11) 0.3308(5) 0.33741(19)
H93_2 H 0.5008 0.3126 0.3539
C95_2 C 0.1692(10) 0.6508(3) 0.3663(2)
C96_2 C 0.1494(12) 0.6706(4) 0.3945(3)
H94_2 H 0.2206 0.6718 0.4057
H95_2 H 0.0986 0.6460 0.4024
H96_2 H 0.1167 0.7066 0.3933
C97_2 C 0.2568(13) 0.6833(4) 0.3563(3)
H97_2 H 0.3228 0.6830 0.3693
H98_2 H 0.2304 0.7202 0.3536
H99_2 H 0.2761 0.6685 0.3395
C98_2 C 0.0594(11) 0.6580(4) 0.3477(3)
H100_2 H 0.0416 0.6962 0.3459
H102_2 H 0.0687 0.6430 0.3302
S15_2 S 0.3510(2) 0.48864(9) 0.42200(6)
C99_2 C 0.2482(7) 0.4404(3) 0.43038(18)
C100_2 C 0.1429(8) 0.4547(3) 0.43613(18)
C101_2 C 0.0676(7) 0.4134(3) 0.44161(17)
C102_2 C 0.1037(7) 0.3603(3) 0.44269(17)
H103_2 H 0.0545 0.3332 0.4477
C103_2 C 0.2095(7) 0.3457(3) 0.43665(18)
C104_2 C 0.2821(7) 0.3862(3) 0.43042(18)
H104_2 H 0.3548 0.3773 0.4262
S16_2 S 0.1016(2) 0.52351(7) 0.43731(5)
C105_2 C 0.1340(9) 0.5355(3) 0.47236(19)
H105_2 H 0.1010 0.5070 0.4827
H106_2 H 0.2157 0.5352 0.4769
C106_2 C 0.0866(8) 0.5900(3) 0.47915(17)
C107_2 C 0.1611(7) 0.6340(3) 0.48232(17)
H107_2 H 0.2374 0.6283 0.4801
C108_2 C 0.0176(7) 0.6911(3) 0.49045(18)
C111_2 C 0.2416(8) 0.2861(3) 0.4352(2)
C112_2 C 0.2172(12) 0.2571(4) 0.4603(3)
H111_2 H 0.2290 0.2185 0.4582
H112_2 H 0.1398 0.2636 0.4637
H113_2 H 0.2672 0.2704 0.4754
C113_2 C 0.1661(13) 0.2633(5) 0.4111(3)
H114_2 H 0.1676 0.2876 0.3960
H115_2 H 0.0896 0.2600 0.4158
H116_2 H 0.1936 0.2280 0.4064
C114_2 C 0.3600(10) 0.2770(5) 0.4319(4)
H117_2 H 0.4060 0.3009 0.4439
H118_2 H 0.3735 0.2845 0.4135
H119_2 H 0.3794 0.2397 0.4362
N11_2 N 0.4930(10) 0.5018(4) 0.2704(3)
C131_2 C 0.4805(12) 0.5334(5) 0.2869(3)
S19_2 S 0.4899(3) 0.58091(13) 0.30833(9)
N12_3 N 0.1342(6) 0.2134(3) 0.02278(16)
C132_3 C 0.0946(7) 0.1884(3) 0.0381(2)
S20_3 S 0.0454(3) 0.15435(17) 0.06150(9)
N13_2 N 0.6832(8) 0.4253(4) 0.25717(18)
N14_2 N 0.5011(9) 0.3841(4) 0.2108(2)
N6_3 N 0.3658(6) 0.2866(3) 0.97722(16)
C66_3 C 0.4054(7) 0.3116(3) 0.9619(2)
S10_3 S 0.4546(3) 0.34565(17) 0.93850(9)
N16_3 N 0.1284(6) 0.3174(2) 0.98825(15)
N17_3 N 0.1868(6) 0.1978(2) 0.96497(18)
C3_2 C 0.9006(7) 0.4222(3) 0.17859(19)
C4_2 C 0.8690(7) 0.3687(3) 0.1806(2)
H1_2 H 0.7957 0.3612 0.1849
C5_2 C 0.9382(8) 0.3261(3) 0.1767(2)
C13_2 C 0.9049(10) 0.2670(4) 0.1808(2)
C14_2 C 0.9273(12) 0.2546(4) 0.2088(2)
H9_2 H 0.8903 0.2810 0.2193
H11_2 H 0.8989 0.2187 0.2122
C15_2 C 0.9651(12) 0.2281(4) 0.1642(3)
H13_2 H 0.9448 0.2356 0.1453
H14_2 H 0.9437 0.1914 0.1682
C16_2 C 0.7847(13) 0.2602(5) 0.1749(7)
H15_2 H 0.7683 0.2228 0.1701
H16_2 H 0.7578 0.2836 0.1600
H17_2 H 0.7473 0.2696 0.1906
S3_2 S 0.80258(19) 0.47202(8) 0.18586(5)
C17_2 C 0.7797(7) 0.5065(3) 0.1550(2)
C18_2 C 0.7268(7) 0.4832(3) 0.13207(19)
C19_2 C 0.7113(8) 0.5139(3) 0.1086(2)
C20_2 C 0.7433(8) 0.5679(3) 0.1092(2)
H18_2 H 0.7296 0.5889 0.0935
C21_2 C 0.7956(7) 0.5920(3) 0.1325(2)
C22_2 C 0.8152(8) 0.5609(3) 0.1543(2)
H19_2 H 0.8542 0.5759 0.1698
S4_2 S 0.6701(3) 0.41746(10) 0.13288(7)
C23_2 C 0.5277(10) 0.4307(5) 0.1424(2)
H20_2 H 0.5216 0.4670 0.1501
H21_2 H 0.4703 0.4262 0.1272
C24_2 C 0.5194(11) 0.3857(5) 0.1639(2)
C25_2 C 0.5201(10) 0.4123(3) 0.1881(3)
H22_2 H 0.5336 0.4498 0.1890
C26_2 C 0.4813(9) 0.3292(4) 0.20950(19)
H23_2 H 0.4683 0.3100 0.2251
C27_2 C 0.4806(10) 0.3026(3) 0.1854(2)
H24_2 H 0.4671 0.2651 0.1845
C28_2 C 0.4997(11) 0.3308(5) 0.16259(19)
H25_2 H 0.4992 0.3126 0.1461
C29_2 C 0.8308(10) 0.6508(3) 0.1337(2)
C30_2 C 0.8506(12) 0.6706(4) 0.1055(3)
H26_2 H 0.7794 0.6718 0.0943
H27_2 H 0.9014 0.6460 0.0976
H28_2 H 0.8833 0.7066 0.1067
C31_2 C 0.7432(13) 0.6833(4) 0.1437(3)
H29_2 H 0.6772 0.6830 0.1307
H30_2 H 0.7696 0.7202 0.1464
H31_2 H 0.7239 0.6685 0.1605
C32_2 C 0.9406(11) 0.6580(4) 0.1523(3)
H32_2 H 0.9584 0.6962 0.1541
H34_2 H 0.9313 0.6430 0.1698
S5_2 S 0.6490(2) 0.48864(9) 0.07800(6)
C33_2 C 0.7518(7) 0.4404(3) 0.06962(18)
C34_2 C 0.8571(8) 0.4547(3) 0.06387(18)
C35_2 C 0.9324(7) 0.4134(3) 0.05839(17)
C36_2 C 0.8963(7) 0.3603(3) 0.05731(17)
H35_2 H 0.9455 0.3332 0.0523
C37_2 C 0.7905(7) 0.3457(3) 0.06335(18)
C38_2 C 0.7179(7) 0.3862(3) 0.06958(18)
H36_2 H 0.6452 0.3773 0.0738
S6_2 S 0.8984(2) 0.52351(7) 0.06269(5)
C39_2 C 0.8660(9) 0.5355(3) 0.02764(19)
H37_2 H 0.8990 0.5070 0.0173
H38_2 H 0.7843 0.5352 0.0231
C40_2 C 0.9134(8) 0.5900(3) 0.02085(17)
C41_2 C 0.8389(7) 0.6340(3) 0.01768(17)
H39_2 H 0.7626 0.6283 0.0199
C42_2 C 0.9824(7) 0.6911(3) 0.00955(18)
C45_2 C 0.7584(8) 0.2861(3) 0.0648(2)
C46_2 C 0.7828(12) 0.2571(4) 0.0397(3)
H43_2 H 0.7710 0.2185 0.0418
H44_2 H 0.8602 0.2636 0.0363
H45_2 H 0.7328 0.2704 0.0246
C47_2 C 0.8339(13) 0.2633(5) 0.0889(3)
H46_2 H 0.8324 0.2876 0.1040
H47_2 H 0.9104 0.2600 0.0842
H48_2 H 0.8064 0.2280 0.0936
C48_2 C 0.6400(10) 0.2770(5) 0.0681(4)
H49_2 H 0.5940 0.3009 0.0561
H50_2 H 0.6265 0.2845 0.0865
H51_2 H 0.6206 0.2397 0.0638
S11_2 S 0.78105(17) 0.40177(8) 0.34003(5)
C67_2 C 0.9214(7) 0.3921(3) 0.33288(17)
C68_2 C 0.9896(7) 0.4349(3) 0.32737(18)
C72_2 C 0.9576(8) 0.3387(3) 0.33048(19)
H70_2 H 0.9084 0.3104 0.3339
S12_2 S 0.93794(19) 0.50084(8) 0.32410(6)
C73_2 C 0.9230(9) 0.5047(6) 0.2867(3)
H71_2 H 0.8864 0.5389 0.2811
H72_2 H 0.9980 0.5046 0.2804
C74_2 C 0.8592(9) 0.4610(6) 0.2745(2)
C75_2 C 0.7426(9) 0.4647(5) 0.2680(2)
H73_2 H 0.7061 0.4972 0.2718
C76_2 C 0.7359(12) 0.3792(6) 0.2520(3)
H74_2 H 0.6925 0.3505 0.2442
C77_2 C 0.8472(16) 0.3717(10) 0.2572(3)
H75_2 H 0.8817 0.3394 0.2524
C78_2 C 0.9095(12) 0.4133(9) 0.2700(3)
H76_2 H 0.9863 0.4083 0.2756
H78_2 H 0.9922 0.2556 0.2861
H80_2 H 0.9543 0.2324 0.3317
H101_2 H 0.9986 0.6393 0.3553
H108_2 H 0.9928 0.7259 0.4946
C109_2 C 0.9406(8) 0.6493(4) 0.4867(2)
H109_2 H 0.8637 0.6558 0.4878
C110_2 C 0.9779(8) 0.5984(3) 0.48122(18)
H110_2 H 0.9267 0.5695 0.4789
S17_2 S 0.92798(19) 0.42622(8) 0.44826(5)
C115_2 C 0.8657(7) 0.4494(3) 0.41667(17)
C116_2 C 0.8510(7) 0.4165(3) 0.39430(17)
C117_2 C 0.8008(6) 0.4390(3) 0.37032(18)
C118_2 C 0.7575(7) 0.4903(3) 0.37045(19)
H120_2 H 0.7186 0.5039 0.3546
C119_2 C 0.7689(8) 0.5226(3) 0.39302(19)
C120_2 C 0.8244(7) 0.5013(3) 0.41548(19)
H121_2 H 0.8351 0.5230 0.4309
S18_2 S 0.89217(19) 0.34794(7) 0.39534(5)
C121_2 C 0.7531(8) 0.3183(3) 0.3949(2)
H122_2 H 0.7047 0.3331 0.3797
H123_2 H 0.7586 0.2791 0.3923
C122_2 C 0.7010(8) 0.3290(3) 0.4200(2)
C123_2 C 0.7224(7) 0.2952(3) 0.4416(2)
H124_2 H 0.7664 0.2643 0.4392
N10_2 N 0.6868(6) 0.3022(2) 0.46497(18)
C124_2 C 0.6199(7) 0.3452(3) 0.4678(2)
H125_2 H 0.5877 0.3500 0.4840
C125_2 C 0.5974(8) 0.3822(4) 0.4475(2)
H126_2 H 0.5545 0.4133 0.4502
C126_2 C 0.6376(8) 0.3735(4) 0.4236(2)
H127_2 H 0.6218 0.3983 0.4095
C127_2 C 0.7254(10) 0.5823(4) 0.3921(2)
C128_2 C 0.781(4) 0.6151(18) 0.3713(7)
H128_2 H 0.7912 0.5925 0.3559
H129_2 H 0.8537 0.6281 0.3791
H130_2 H 0.7337 0.6458 0.3656
C129_2 C 0.738(4) 0.6119(11) 0.4193(4)
H131_2 H 0.6659 0.6137 0.4264
H132_2 H 0.7659 0.6484 0.4168
H133_2 H 0.7914 0.5925 0.4317
C130_2 C 0.5990(18) 0.5763(14) 0.3833(8)
H134_2 H 0.5685 0.5470 0.3933
H135_2 H 0.5880 0.5682 0.3643
H136_2 H 0.5607 0.6098 0.3868
N6_4 N 0.6342(6) 0.2866(3) 0.52278(16)
C66_4 C 0.5946(7) 0.3116(3) 0.5381(2)
S10_4 S 0.5454(3) 0.34565(17) 0.56150(9)
N12_4 N 0.8658(6) 0.2134(3) 0.47722(16)
C132_4 C 0.9054(7) 0.1884(3) 0.4619(2)
S20_4 S 0.9546(3) 0.15435(17) 0.43850(9)
N16_4 N 0.8716(6) 0.3174(2) 0.51175(15)
N17_4 N 0.8132(6) 0.1978(2) 0.53503(18)
H21_3 H 0.0297 0.0738 0.8728
C26_3 C 0.0187(9) 0.1708(4) 0.79050(19)
H23_3 H 0.0317 0.1900 0.7749
C27_3 C 0.0194(10) 0.1974(3) 0.8146(2)
H24_3 H 0.0329 0.2349 0.8155
C28_3 C 0.0003(11) 0.1692(5) 0.83741(19)
H25_3 H 0.0008 0.1874 0.8539
Fe3 Fe 0.0000 0.07141(7) 0.7500
S1_3 S 0.28105(17) 0.09823(8) 0.84003(5)
C1_3 C 0.4214(7) 0.1079(3) 0.83288(17)
C2_3 C 0.4896(7) 0.0651(3) 0.82737(18)
C3_3 C 0.5994(7) 0.0778(3) 0.82141(19)
C4_3 C 0.6310(7) 0.1313(3) 0.8194(2)
H1_3 H 0.7043 0.1388 0.8151
C5_3 C 0.5618(8) 0.1739(3) 0.8233(2)
C6_3 C 0.4576(8) 0.1613(3) 0.83048(19)
H2_3 H 0.4084 0.1896 0.8339
C8_3 C 0.3592(9) 0.0390(6) 0.7745(2)
C9_3 C 0.2426(9) 0.0353(5) 0.7680(2)
H5_3 H 0.2061 0.0028 0.7718
N1_3 N 0.1832(8) 0.0747(4) 0.75717(18)
C10_3 C 0.2359(12) 0.1208(6) 0.7520(3)
H6_3 H 0.1925 0.1495 0.7442
C11_3 C 0.3472(16) 0.1283(10) 0.7572(3)
H7_3 H 0.3817 0.1606 0.7524
C12_3 C 0.4095(12) 0.0867(9) 0.7700(3)
H8_3 H 0.4863 0.0917 0.7756
C13_3 C 0.5951(10) 0.2330(4) 0.8192(2)
C14_3 C 0.5727(12) 0.2454(4) 0.7912(2)
H9_3 H 0.6097 0.2190 0.7807
H10_3 H 0.4922 0.2444 0.7861
H11_3 H 0.6011 0.2813 0.7878
C15_3 C 0.5349(12) 0.2719(4) 0.8358(3)
H12_3 H 0.4543 0.2676 0.8317
H13_3 H 0.5552 0.2644 0.8547
H14_3 H 0.5563 0.3086 0.8318
C16_3 C 0.7153(13) 0.2398(5) 0.8251(7)
H15_3 H 0.7317 0.2772 0.8299
H16_3 H 0.7422 0.2164 0.8400
H17_3 H 0.7527 0.2304 0.8094
S3_3 S 0.69742(19) 0.02798(8) 0.81414(5)
C18_3 C 0.7732(7) 0.0168(3) 0.86793(19)
S4_3 S 0.8299(3) 0.08254(10) 0.86712(7)
C23_3 C 0.9723(10) 0.0693(5) 0.8576(2)
H20_3 H 0.9784 0.0330 0.8499
C24_3 C 0.9806(11) 0.1143(5) 0.8361(2)
C25_3 C 0.9799(10) 0.0877(3) 0.8119(3)
H22_3 H 0.9664 0.0502 0.8110
N2 N 0.9989(9) 0.1159(4) 0.7892(2)
S5_3 S 0.8510(2) 0.01136(9) 0.92200(6)
C33_3 C 0.7482(7) 0.0596(3) 0.93038(18)
C34_3 C 0.6429(8) 0.0453(3) 0.93613(18)
C35_3 C 0.5676(7) 0.0866(3) 0.94161(17)
C36_3 C 0.6037(7) 0.1397(3) 0.94269(17)
H35_3 H 0.5545 0.1668 0.9477
C37_3 C 0.7095(7) 0.1543(3) 0.93665(18)
C38_3 C 0.7821(7) 0.1138(3) 0.93042(18)
H36_3 H 0.8548 0.1227 0.9262
C45_3 C 0.7416(8) 0.2139(3) 0.9352(2)
C46_3 C 0.7172(12) 0.2429(4) 0.9603(3)
H43_3 H 0.7290 0.2815 0.9582
H44_3 H 0.6398 0.2364 0.9637
H45_3 H 0.7672 0.2296 0.9754
C47_3 C 0.6661(13) 0.2367(5) 0.9111(3)
H46_3 H 0.6676 0.2124 0.8960
H47_3 H 0.5896 0.2400 0.9158
H48_3 H 0.6936 0.2720 0.9064
C48_3 C 0.8600(10) 0.2230(5) 0.9319(4)
H49_3 H 0.9060 0.1991 0.9439
H50_3 H 0.8735 0.2155 0.9135
H51_3 H 0.8794 0.2603 0.9362
S7_3 S 0.42798(19) 0.07378(8) 0.94826(5)
C49_3 C 0.3657(7) 0.0506(3) 0.91667(17)
C50_3 C 0.3510(7) 0.0835(3) 0.89430(17)
C51_3 C 0.3008(6) 0.0610(3) 0.87032(18)
C52_3 C 0.2575(7) 0.0097(3) 0.87045(19)
S8_3 S 0.39217(19) 0.15206(7) 0.89534(5)
C55_3 C 0.2531(8) 0.1817(3) 0.8949(2)
H54_3 H 0.2047 0.1669 0.8797
H55_3 H 0.2586 0.2209 0.8923
C56_3 C 0.2010(8) 0.1710(3) 0.9200(2)
C57_3 C 0.2224(7) 0.2048(3) 0.9416(2)
H56_3 H 0.2664 0.2357 0.9392
C58_3 C 0.1199(7) 0.1548(3) 0.9678(2)
H57_3 H 0.0877 0.1500 0.9840
C59_3 C 0.0974(8) 0.1178(4) 0.9475(2)
H58_3 H 0.0545 0.0867 0.9502
C60_3 C 0.1376(8) 0.1265(4) 0.9236(2)
H59_3 H 0.1218 0.1017 0.9095
S11_3 S 0.71895(17) 0.09823(8) 0.65997(5)
C67_3 C 0.5786(7) 0.1079(3) 0.66712(17)
C68_3 C 0.5104(7) 0.0651(3) 0.67263(18)
C69_3 C 0.4006(7) 0.0778(3) 0.67859(19)
C70_3 C 0.3690(7) 0.1313(3) 0.6806(2)
H69_3 H 0.2957 0.1388 0.6849
C71_3 C 0.4382(8) 0.1739(3) 0.6767(2)
C72_3 C 0.5424(8) 0.1613(3) 0.66952(19)
H70_3 H 0.5916 0.1896 0.6661
C74_3 C 0.6408(9) 0.0390(6) 0.7255(2)
C75_3 C 0.7574(9) 0.0353(5) 0.7320(2)
H73_3 H 0.7939 0.0028 0.7282
N7 N 0.8168(8) 0.0747(4) 0.74283(18)
C76_3 C 0.7641(12) 0.1208(6) 0.7480(3)
H74_3 H 0.8075 0.1495 0.7558
C77_3 C 0.6528(16) 0.1283(10) 0.7428(3)
H75_3 H 0.6183 0.1606 0.7476
C78_3 C 0.5905(12) 0.0867(9) 0.7300(3)
H76_3 H 0.5137 0.0917 0.7244
C79_3 C 0.4049(10) 0.2330(4) 0.6808(2)
C80_3 C 0.4273(12) 0.2454(4) 0.7088(2)
H77_3 H 0.3903 0.2190 0.7193
H78_3 H 0.5078 0.2444 0.7139
H79_3 H 0.3989 0.2813 0.7122
C81_3 C 0.4651(12) 0.2719(4) 0.6642(3)
H80_3 H 0.5457 0.2676 0.6683
H81_3 H 0.4448 0.2644 0.6453
H82_3 H 0.4437 0.3086 0.6682
C82_3 C 0.2847(13) 0.2398(5) 0.6749(7)
H83_3 H 0.2683 0.2772 0.6701
H84_3 H 0.2578 0.2164 0.6600
H85_3 H 0.2473 0.2304 0.6906
S13_3 S 0.30258(19) 0.02798(8) 0.68586(5)
C84_3 C 0.2268(7) 0.0168(3) 0.63207(19)
S14_3 S 0.1701(3) 0.08254(10) 0.63288(7)
C89_3 C 0.0277(10) 0.0693(5) 0.6424(2)
H88_3 H 0.0216 0.0330 0.6501
C90_3 C 0.0194(11) 0.1143(5) 0.6639(2)
C91_3 C 0.0201(10) 0.0877(3) 0.6881(3)
H90_3 H 0.0336 0.0502 0.6890
N8_3 N 0.0011(9) 0.1159(4) 0.7108(2)
S15_3 S 0.1490(2) 0.01136(9) 0.57800(6)
C99_3 C 0.2518(7) 0.0596(3) 0.56962(18)
C100_3 C 0.3571(8) 0.0453(3) 0.56387(18)
C101_3 C 0.4324(7) 0.0866(3) 0.55839(17)
C102_3 C 0.3963(7) 0.1397(3) 0.55731(17)
H103_3 H 0.4455 0.1668 0.5523
C103_3 C 0.2905(7) 0.1543(3) 0.56335(18)
C104_3 C 0.2179(7) 0.1138(3) 0.56958(18)
H104_3 H 0.1452 0.1227 0.5738
C111_3 C 0.2584(8) 0.2139(3) 0.5648(2)
C112_3 C 0.2828(12) 0.2429(4) 0.5397(3)
H111_3 H 0.2710 0.2815 0.5418
H112_3 H 0.3602 0.2364 0.5363
H113_3 H 0.2328 0.2296 0.5246
C113_3 C 0.3339(13) 0.2367(5) 0.5889(3)
H114_3 H 0.3324 0.2124 0.6040
H115_3 H 0.4104 0.2400 0.5842
H116_3 H 0.3064 0.2720 0.5936
C114_3 C 0.1400(10) 0.2230(5) 0.5681(4)
H117_3 H 0.0940 0.1991 0.5561
H118_3 H 0.1265 0.2155 0.5865
H119_3 H 0.1206 0.2603 0.5638
S17_3 S 0.57202(19) 0.07378(8) 0.55174(5)
C115_3 C 0.6343(7) 0.0506(3) 0.58333(17)
C116_3 C 0.6490(7) 0.0835(3) 0.60570(17)
C117_3 C 0.6992(6) 0.0610(3) 0.62968(18)
C118_3 C 0.7425(7) 0.0097(3) 0.62955(19)
S18_3 S 0.60783(19) 0.15206(7) 0.60466(5)
C121_3 C 0.7469(8) 0.1817(3) 0.6051(2)
H122_3 H 0.7953 0.1669 0.6203
H123_3 H 0.7414 0.2209 0.6077
C122_3 C 0.7990(8) 0.1710(3) 0.5800(2)
C123_3 C 0.7776(7) 0.2048(3) 0.5584(2)
H124_3 H 0.7336 0.2357 0.5608
C124_3 C 0.8801(7) 0.1548(3) 0.5322(2)
H125_3 H 0.9123 0.1500 0.5160
C125_3 C 0.9026(8) 0.1178(4) 0.5525(2)
H126_3 H 0.9455 0.0867 0.5498
C126_3 C 0.8624(8) 0.1265(4) 0.5764(2)
H127_3 H 0.8782 0.1017 0.5905
Fe3_2 Fe 1.0000 0.07141(7) 0.7500
S2_3 S 0.43794(19) 0.99916(8) 0.82410(6)
C7_3 C 0.4230(9) 0.9953(6) 0.7867(3)
H3_3 H 0.3864 0.9611 0.7811
H4_3 H 0.4980 0.9954 0.7804
C17_3 C 0.7203(7) 0.9935(3) 0.8450(2)
C19_3 C 0.7887(8) 0.9861(3) 0.8914(2)
C20_3 C 0.7567(8) 0.9321(3) 0.8908(2)
H18_3 H 0.7704 0.9111 0.9065
C21_3 C 0.7044(7) 0.9080(3) 0.8675(2)
C22_3 C 0.6848(8) 0.9391(3) 0.8457(2)
H19_3 H 0.6458 0.9241 0.8302
C29_3 C 0.6692(10) 0.8492(3) 0.8663(2)
C30_3 C 0.6494(12) 0.8294(4) 0.8945(3)
H26_3 H 0.7206 0.8282 0.9057
H27_3 H 0.5986 0.8540 0.9024
H28_3 H 0.6167 0.7934 0.8933
C31_3 C 0.7568(13) 0.8167(4) 0.8563(3)
H29_3 H 0.8228 0.8170 0.8693
H30_3 H 0.7304 0.7798 0.8536
H31_3 H 0.7761 0.8315 0.8395
C32_3 C 0.5594(11) 0.8420(4) 0.8477(3)
H32_3 H 0.5416 0.8038 0.8459
H33_3 H 0.4986 0.8607 0.8553
H34_3 H 0.5687 0.8570 0.8302
S6_3 S 0.6016(2) 0.97649(7) 0.93731(5)
C39_3 C 0.6340(9) 0.9645(3) 0.97236(19)
H37_3 H 0.6010 0.9930 0.9827
H38_3 H 0.7157 0.9648 0.9769
C40_3 C 0.5866(8) 0.9100(3) 0.97915(17)
C41_3 C 0.6611(7) 0.8660(3) 0.98232(17)
H39_3 H 0.7374 0.8717 0.9801
C42_3 C 0.5176(7) 0.8089(3) 0.99045(18)
H40_3 H 0.4928 0.7741 0.9946
C43_3 C 0.4406(8) 0.8507(4) 0.9867(2)
H41_3 H 0.3637 0.8442 0.9878
C44_3 C 0.4779(8) 0.9016(3) 0.98122(18)
H42_3 H 0.4267 0.9305 0.9789
H52_3 H 0.2186 0.9961 0.8546
C53_3 C 0.2689(8) 0.9774(3) 0.89302(19)
C54_3 C 0.3244(7) 0.9987(3) 0.91548(19)
H53_3 H 0.3351 0.9770 0.9309
C61_3 C 0.2254(10) 0.9177(4) 0.8921(2)
C62_3 C 0.281(4) 0.8849(18) 0.8713(7)
H60_3 H 0.2912 0.9075 0.8559
H61_3 H 0.3537 0.8719 0.8791
H62_3 H 0.2337 0.8542 0.8656
C63_3 C 0.238(4) 0.8881(11) 0.9193(4)
H63_3 H 0.1659 0.8863 0.9264
H64_3 H 0.2659 0.8516 0.9168
H65_3 H 0.2914 0.9075 0.9317
C64_3 C 0.0990(18) 0.9237(14) 0.8833(8)
H66_3 H 0.0685 0.9530 0.8933
H67_3 H 0.0880 0.9318 0.8643
H68_3 H 0.0607 0.8902 0.8868
S12_3 S 0.56206(19) 0.99916(8) 0.67590(6)
C73_3 C 0.5770(9) 0.9953(6) 0.7133(3)
H71_3 H 0.6136 0.9611 0.7189
H72_3 H 0.5020 0.9954 0.7196
C83_3 C 0.2797(7) 0.9935(3) 0.6550(2)
C85_3 C 0.2113(8) 0.9861(3) 0.6086(2)
C86_3 C 0.2433(8) 0.9321(3) 0.6092(2)
H86_3 H 0.2296 0.9111 0.5935
C87_3 C 0.2956(7) 0.9080(3) 0.6325(2)
C88_3 C 0.3152(8) 0.9391(3) 0.6543(2)
H87_3 H 0.3542 0.9241 0.6698
C95_3 C 0.3308(10) 0.8492(3) 0.6337(2)
C96_3 C 0.3506(12) 0.8294(4) 0.6055(3)
H94_3 H 0.2794 0.8282 0.5943
H95_3 H 0.4014 0.8540 0.5976
H96_3 H 0.3833 0.7934 0.6067
C97_3 C 0.2432(13) 0.8167(4) 0.6437(3)
H97_3 H 0.1772 0.8170 0.6307
H98_3 H 0.2696 0.7798 0.6464
H99_3 H 0.2239 0.8315 0.6605
C98_3 C 0.4406(11) 0.8420(4) 0.6523(3)
H100_3 H 0.4584 0.8038 0.6541
H101_3 H 0.5014 0.8607 0.6447
H102_3 H 0.4313 0.8570 0.6698
S16_3 S 0.3984(2) 0.97649(7) 0.56269(5)
C105_3 C 0.3660(9) 0.9645(3) 0.52764(19)
H105_3 H 0.3990 0.9930 0.5173
H106_3 H 0.2843 0.9648 0.5231
C106_3 C 0.4134(8) 0.9100(3) 0.52085(17)
C107_3 C 0.3389(7) 0.8660(3) 0.51768(17)
H107_3 H 0.2626 0.8717 0.5199
C108_3 C 0.4824(7) 0.8089(3) 0.50955(18)
H108_3 H 0.5072 0.7741 0.5054
C109_3 C 0.5594(8) 0.8507(4) 0.5133(2)
H109_3 H 0.6363 0.8442 0.5122
C110_3 C 0.5221(8) 0.9016(3) 0.51878(18)
H110_3 H 0.5733 0.9305 0.5211
H120_3 H 0.7814 0.9961 0.6454
C119_3 C 0.7311(8) 0.9774(3) 0.60698(19)
C120_3 C 0.6756(7) 0.9987(3) 0.58452(19)
H121_3 H 0.6649 0.9770 0.5691
C127_3 C 0.7746(10) 0.9177(4) 0.6079(2)
C128_3 C 0.719(4) 0.8849(18) 0.6287(7)
H128_3 H 0.7088 0.9075 0.6441
H129_3 H 0.6463 0.8719 0.6209
H130_3 H 0.7663 0.8542 0.6344
C129_3 C 0.762(4) 0.8881(11) 0.5807(4)
H131_3 H 0.8341 0.8863 0.5736
H132_3 H 0.7341 0.8516 0.5832
H133_3 H 0.7086 0.9075 0.5683
C130_3 C 0.9010(18) 0.9237(14) 0.6167(8)
H134_3 H 0.9315 0.9530 0.6067
H135_3 H 0.9120 0.9318 0.6357
H136_3 H 0.9393 0.8902 0.6132
N11_3 N 0.0070(10) 0.9982(4) 0.7296(3)
C131_3 C 0.0195(12) 0.9666(5) 0.7131(3)
S19_3 S 0.0101(3) 0.91909(13) 0.69167(9)
H89_3 H 0.9703 0.0738 0.6272
C92_3 C 0.9813(9) 0.1708(4) 0.70950(19)
H91_3 H 0.9683 0.1900 0.7251
C93_3 C 0.9806(10) 0.1974(3) 0.6854(2)
H92_3 H 0.9671 0.2349 0.6845
C94_3 C 0.9997(11) 0.1692(5) 0.66259(19)
H93_3 H 0.9992 0.1874 0.6461
N5_3 N 0.9930(10) 0.9982(4) 0.7704(3)
C65_3 C 0.9805(12) 0.9666(5) 0.7869(3)
S9_3 S 0.9899(3) 0.91909(13) 0.80833(9)
C3_4 C 0.0994(7) 0.5778(3) 0.82141(19)
C4_4 C 0.1310(7) 0.6313(3) 0.8194(2)
H1_4 H 0.2043 0.6388 0.8151
C5_4 C 0.0618(8) 0.6739(3) 0.8233(2)
C13_4 C 0.0951(10) 0.7330(4) 0.8192(2)
C14_4 C 0.0727(12) 0.7454(4) 0.7912(2)
H9_4 H 0.1097 0.7190 0.7807
H11_4 H 0.1011 0.7813 0.7878
C15_4 C 0.0349(12) 0.7719(4) 0.8358(3)
H13_4 H 0.0552 0.7644 0.8547
H14_4 H 0.0563 0.8086 0.8318
C16_4 C 0.2153(13) 0.7398(5) 0.8251(7)
H15_4 H 0.2317 0.7772 0.8299
H16_4 H 0.2422 0.7164 0.8400
H17_4 H 0.2527 0.7304 0.8094
S3_4 S 0.19742(19) 0.52798(8) 0.81414(5)
C17_4 C 0.2203(7) 0.4935(3) 0.8450(2)
C18_4 C 0.2732(7) 0.5168(3) 0.86793(19)
C19_4 C 0.2887(8) 0.4861(3) 0.8914(2)
C20_4 C 0.2567(8) 0.4321(3) 0.8908(2)
H18_4 H 0.2704 0.4111 0.9065
C21_4 C 0.2044(7) 0.4080(3) 0.8675(2)
C22_4 C 0.1848(8) 0.4391(3) 0.8457(2)
H19_4 H 0.1458 0.4241 0.8302
S4_4 S 0.3299(3) 0.58254(10) 0.86712(7)
C23_4 C 0.4723(10) 0.5693(5) 0.8576(2)
H20_4 H 0.4784 0.5330 0.8499
H21_4 H 0.5297 0.5738 0.8728
C24_4 C 0.4806(11) 0.6143(5) 0.8361(2)
C25_4 C 0.4799(10) 0.5877(3) 0.8119(3)
H22_4 H 0.4664 0.5502 0.8110
N2_2 N 0.4989(9) 0.6159(4) 0.7892(2)
C26_4 C 0.5187(9) 0.6708(4) 0.79050(19)
H23_4 H 0.5317 0.6900 0.7749
C27_4 C 0.5194(10) 0.6974(3) 0.8146(2)
H24_4 H 0.5329 0.7349 0.8155
C28_4 C 0.5003(11) 0.6692(5) 0.83741(19)
H25_4 H 0.5008 0.6874 0.8539
C29_4 C 0.1692(10) 0.3492(3) 0.8663(2)
C30_4 C 0.1494(12) 0.3294(4) 0.8945(3)
H26_4 H 0.2206 0.3282 0.9057
H27_4 H 0.0986 0.3540 0.9024
H28_4 H 0.1167 0.2934 0.8933
C31_4 C 0.2568(13) 0.3167(4) 0.8563(3)
H29_4 H 0.3228 0.3170 0.8693
H30_4 H 0.2304 0.2798 0.8536
H31_4 H 0.2761 0.3315 0.8395
C32_4 C 0.0594(11) 0.3420(4) 0.8477(3)
H32_4 H 0.0416 0.3038 0.8459
H34_4 H 0.0687 0.3570 0.8302
S5_4 S 0.3510(2) 0.51136(9) 0.92200(6)
C33_4 C 0.2482(7) 0.5596(3) 0.93038(18)
C34_4 C 0.1429(8) 0.5453(3) 0.93613(18)
C35_4 C 0.0676(7) 0.5866(3) 0.94161(17)
C36_4 C 0.1037(7) 0.6397(3) 0.94269(17)
H35_4 H 0.0545 0.6668 0.9477
C37_4 C 0.2095(7) 0.6543(3) 0.93665(18)
C38_4 C 0.2821(7) 0.6138(3) 0.93042(18)
H36_4 H 0.3548 0.6227 0.9262
S6_4 S 0.1016(2) 0.47649(7) 0.93731(5)
C39_4 C 0.1340(9) 0.4645(3) 0.97236(19)
H37_4 H 0.1010 0.4930 0.9827
H38_4 H 0.2157 0.4648 0.9769
C40_4 C 0.0866(8) 0.4100(3) 0.97915(17)
C41_4 C 0.1611(7) 0.3660(3) 0.98232(17)
H39_4 H 0.2374 0.3717 0.9801
C42_4 C 0.0176(7) 0.3089(3) 0.99045(18)
C45_4 C 0.2416(8) 0.7139(3) 0.9352(2)
C46_4 C 0.2172(12) 0.7429(4) 0.9603(3)
H43_4 H 0.2290 0.7815 0.9582
H44_4 H 0.1398 0.7364 0.9637
H45_4 H 0.2672 0.7296 0.9754
C47_4 C 0.1661(13) 0.7367(5) 0.9111(3)
H46_4 H 0.1676 0.7124 0.8960
H47_4 H 0.0896 0.7400 0.9158
H48_4 H 0.1936 0.7720 0.9064
C48_4 C 0.3600(10) 0.7230(5) 0.9319(4)
H49_4 H 0.4060 0.6991 0.9439
H50_4 H 0.3735 0.7155 0.9135
H51_4 H 0.3794 0.7603 0.9362
S11_4 S 0.21895(17) 0.59823(8) 0.65997(5)
C67_4 C 0.0786(7) 0.6079(3) 0.66712(17)
C68_4 C 0.0104(7) 0.5651(3) 0.67263(18)
C72_4 C 0.0424(8) 0.6613(3) 0.66952(19)
H70_4 H 0.0916 0.6896 0.6661
S12_4 S 0.06206(19) 0.49916(8) 0.67590(6)
C73_4 C 0.0770(9) 0.4953(6) 0.7133(3)
H71_4 H 0.1136 0.4611 0.7189
H72_4 H 0.0020 0.4954 0.7196
C74_4 C 0.1408(9) 0.5390(6) 0.7255(2)
C75_4 C 0.2574(9) 0.5353(5) 0.7320(2)
H73_4 H 0.2939 0.5028 0.7282
N7_2 N 0.3168(8) 0.5747(4) 0.74283(18)
C76_4 C 0.2641(12) 0.6208(6) 0.7480(3)
H74_4 H 0.3075 0.6495 0.7558
C77_4 C 0.1528(16) 0.6283(10) 0.7428(3)
H75_4 H 0.1183 0.6606 0.7476
C78_4 C 0.0905(12) 0.5867(9) 0.7300(3)
H76_4 H 0.0137 0.5917 0.7244
H78_4 H 0.0078 0.7444 0.7139
H80_4 H 0.0457 0.7676 0.6683
H101_4 H 0.0014 0.3607 0.6447
H108_4 H 0.0072 0.2741 0.5054
C109_4 C 0.0594(8) 0.3507(4) 0.5133(2)
H109_4 H 0.1363 0.3442 0.5122
C110_4 C 0.0221(8) 0.4016(3) 0.51878(18)
H110_4 H 0.0733 0.4305 0.5211
S17_4 S 0.07202(19) 0.57378(8) 0.55174(5)
C115_4 C 0.1343(7) 0.5506(3) 0.58333(17)
C116_4 C 0.1490(7) 0.5835(3) 0.60570(17)
C117_4 C 0.1992(6) 0.5610(3) 0.62968(18)
C118_4 C 0.2425(7) 0.5097(3) 0.62955(19)
H120_4 H 0.2814 0.4961 0.6454
C119_4 C 0.2311(8) 0.4774(3) 0.60698(19)
C120_4 C 0.1756(7) 0.4987(3) 0.58452(19)
H121_4 H 0.1649 0.4770 0.5691
S18_4 S 0.10783(19) 0.65206(7) 0.60466(5)
C121_4 C 0.2469(8) 0.6817(3) 0.6051(2)
H122_4 H 0.2953 0.6669 0.6203
H123_4 H 0.2414 0.7209 0.6077
C122_4 C 0.2990(8) 0.6710(3) 0.5800(2)
C123_4 C 0.2776(7) 0.7048(3) 0.5584(2)
H124_4 H 0.2336 0.7357 0.5608
C124_4 C 0.3801(7) 0.6548(3) 0.5322(2)
H125_4 H 0.4123 0.6500 0.5160
C125_4 C 0.4026(8) 0.6178(4) 0.5525(2)
H126_4 H 0.4455 0.5867 0.5498
C126_4 C 0.3624(8) 0.6265(4) 0.5764(2)
H127_4 H 0.3782 0.6017 0.5905
C127_4 C 0.2746(10) 0.4177(4) 0.6079(2)
C128_4 C 0.219(4) 0.3849(18) 0.6287(7)
H128_4 H 0.2088 0.4075 0.6441
H129_4 H 0.1463 0.3719 0.6209
H130_4 H 0.2663 0.3542 0.6344
C129_4 C 0.262(4) 0.3881(11) 0.5807(4)
H131_4 H 0.3341 0.3863 0.5736
H132_4 H 0.2341 0.3516 0.5832
H133_4 H 0.2086 0.4075 0.5683
C130_4 C 0.4010(18) 0.4237(14) 0.6167(8)
H134_4 H 0.4315 0.4530 0.6067
H135_4 H 0.4120 0.4318 0.6357
H136_4 H 0.4393 0.3902 0.6132
Fe3_3 Fe 0.5000 0.57141(7) 0.7500
S1_4 S 0.78105(17) 0.59823(8) 0.84003(5)
C1_4 C 0.9214(7) 0.6079(3) 0.83288(17)
C2_4 C 0.9896(7) 0.5651(3) 0.82737(18)
C6_4 C 0.9576(8) 0.6613(3) 0.83048(19)
H2_4 H 0.9084 0.6896 0.8339
S2_4 S 0.93794(19) 0.49916(8) 0.82410(6)
C7_4 C 0.9230(9) 0.4953(6) 0.7867(3)
H3_4 H 0.8864 0.4611 0.7811
H4_4 H 0.9980 0.4954 0.7804
C8_4 C 0.8592(9) 0.5390(6) 0.7745(2)
C9_4 C 0.7426(9) 0.5353(5) 0.7680(2)
H5_4 H 0.7061 0.5028 0.7718
N1_4 N 0.6832(8) 0.5747(4) 0.75717(18)
C10_4 C 0.7359(12) 0.6208(6) 0.7520(3)
H6_4 H 0.6925 0.6495 0.7442
C11_4 C 0.8472(16) 0.6283(10) 0.7572(3)
H7_4 H 0.8817 0.6606 0.7524
C12_4 C 0.9095(12) 0.5867(9) 0.7700(3)
H8_4 H 0.9863 0.5917 0.7756
H10_4 H 0.9922 0.7444 0.7861
H12_4 H 0.9543 0.7676 0.8317
H33_4 H 0.9986 0.3607 0.8553
H40_4 H 0.9928 0.2741 0.9946
C43_4 C 0.9406(8) 0.3507(4) 0.9867(2)
H41_4 H 0.8637 0.3442 0.9878
C44_4 C 0.9779(8) 0.4016(3) 0.98122(18)
H42_4 H 0.9267 0.4305 0.9789
S7_4 S 0.92798(19) 0.57378(8) 0.94826(5)
C49_4 C 0.8657(7) 0.5506(3) 0.91667(17)
C50_4 C 0.8510(7) 0.5835(3) 0.89430(17)
C51_4 C 0.8008(6) 0.5610(3) 0.87032(18)
C52_4 C 0.7575(7) 0.5097(3) 0.87045(19)
H52_4 H 0.7186 0.4961 0.8546
C53_4 C 0.7689(8) 0.4774(3) 0.89302(19)
C54_4 C 0.8244(7) 0.4987(3) 0.91548(19)
H53_4 H 0.8351 0.4770 0.9309
S8_4 S 0.89217(19) 0.65206(7) 0.89534(5)
C55_4 C 0.7531(8) 0.6817(3) 0.8949(2)
H54_4 H 0.7047 0.6669 0.8797
H55_4 H 0.7586 0.7209 0.8923
C56_4 C 0.7010(8) 0.6710(3) 0.9200(2)
C57_4 C 0.7224(7) 0.7048(3) 0.9416(2)
H56_4 H 0.7664 0.7357 0.9392
C58_4 C 0.6199(7) 0.6548(3) 0.9678(2)
H57_4 H 0.5877 0.6500 0.9840
C59_4 C 0.5974(8) 0.6178(4) 0.9475(2)
H58_4 H 0.5545 0.5867 0.9502
C60_4 C 0.6376(8) 0.6265(4) 0.9236(2)
H59_4 H 0.6218 0.6017 0.9095
C61_4 C 0.7254(10) 0.4177(4) 0.8921(2)
C62_4 C 0.781(4) 0.3849(18) 0.8713(7)
H60_4 H 0.7912 0.4075 0.8559
H61_4 H 0.8537 0.3719 0.8791
H62_4 H 0.7337 0.3542 0.8656
C63_4 C 0.738(4) 0.3881(11) 0.9193(4)
H63_4 H 0.6659 0.3863 0.9264
H64_4 H 0.7659 0.3516 0.9168
H65_4 H 0.7914 0.4075 0.9317
C64_4 C 0.5990(18) 0.4237(14) 0.8833(8)
H66_4 H 0.5685 0.4530 0.8933
H67_4 H 0.5880 0.4318 0.8643
H68_4 H 0.5607 0.3902 0.8868
N5_4 N 0.4930(10) 0.4982(4) 0.7704(3)
C65_4 C 0.4805(12) 0.4666(5) 0.7869(3)
S9_4 S 0.4899(3) 0.41909(13) 0.80833(9)
C69_4 C 0.9006(7) 0.5778(3) 0.67859(19)
C70_4 C 0.8690(7) 0.6313(3) 0.6806(2)
H69_4 H 0.7957 0.6388 0.6849
C71_4 C 0.9382(8) 0.6739(3) 0.6767(2)
C79_4 C 0.9049(10) 0.7330(4) 0.6808(2)
C80_4 C 0.9273(12) 0.7454(4) 0.7088(2)
H77_4 H 0.8903 0.7190 0.7193
H79_4 H 0.8989 0.7813 0.7122
C81_4 C 0.9651(12) 0.7719(4) 0.6642(3)
H81_4 H 0.9448 0.7644 0.6453
H82_4 H 0.9437 0.8086 0.6682
C82_4 C 0.7847(13) 0.7398(5) 0.6749(7)
H83_4 H 0.7683 0.7772 0.6701
H84_4 H 0.7578 0.7164 0.6600
H85_4 H 0.7473 0.7304 0.6906
S13_4 S 0.80258(19) 0.52798(8) 0.68586(5)
C83_4 C 0.7797(7) 0.4935(3) 0.6550(2)
C84_4 C 0.7268(7) 0.5168(3) 0.63207(19)
C85_4 C 0.7113(8) 0.4861(3) 0.6086(2)
C86_4 C 0.7433(8) 0.4321(3) 0.6092(2)
H86_4 H 0.7296 0.4111 0.5935
C87_4 C 0.7956(7) 0.4080(3) 0.6325(2)
C88_4 C 0.8152(8) 0.4391(3) 0.6543(2)
H87_4 H 0.8542 0.4241 0.6698
S14_4 S 0.6701(3) 0.58254(10) 0.63288(7)
C89_4 C 0.5277(10) 0.5693(5) 0.6424(2)
H88_4 H 0.5216 0.5330 0.6501
H89_4 H 0.4703 0.5738 0.6272
C90_4 C 0.5194(11) 0.6143(5) 0.6639(2)
C91_4 C 0.5201(10) 0.5877(3) 0.6881(3)
H90_4 H 0.5336 0.5502 0.6890
N8_4 N 0.5011(9) 0.6159(4) 0.7108(2)
C92_4 C 0.4813(9) 0.6708(4) 0.70950(19)
H91_4 H 0.4683 0.6900 0.7251
C93_4 C 0.4806(10) 0.6974(3) 0.6854(2)
H92_4 H 0.4671 0.7349 0.6845
C94_4 C 0.4997(11) 0.6692(5) 0.66259(19)
H93_4 H 0.4992 0.6874 0.6461
C95_4 C 0.8308(10) 0.3492(3) 0.6337(2)
C96_4 C 0.8506(12) 0.3294(4) 0.6055(3)
H94_4 H 0.7794 0.3282 0.5943
H95_4 H 0.9014 0.3540 0.5976
H96_4 H 0.8833 0.2934 0.6067
C97_4 C 0.7432(13) 0.3167(4) 0.6437(3)
H97_4 H 0.6772 0.3170 0.6307
H98_4 H 0.7696 0.2798 0.6464
H99_4 H 0.7239 0.3315 0.6605
C98_4 C 0.9406(11) 0.3420(4) 0.6523(3)
H100_4 H 0.9584 0.3038 0.6541
H102_4 H 0.9313 0.3570 0.6698
S15_4 S 0.6490(2) 0.51136(9) 0.57800(6)
C99_4 C 0.7518(7) 0.5596(3) 0.56962(18)
C100_4 C 0.8571(8) 0.5453(3) 0.56387(18)
C101_4 C 0.9324(7) 0.5866(3) 0.55839(17)
C102_4 C 0.8963(7) 0.6397(3) 0.55731(17)
H103_4 H 0.9455 0.6668 0.5523
C103_4 C 0.7905(7) 0.6543(3) 0.56335(18)
C104_4 C 0.7179(7) 0.6138(3) 0.56958(18)
H104_4 H 0.6452 0.6227 0.5738
S16_4 S 0.8984(2) 0.47649(7) 0.56269(5)
C105_4 C 0.8660(9) 0.4645(3) 0.52764(19)
H105_4 H 0.8990 0.4930 0.5173
H106_4 H 0.7843 0.4648 0.5231
C106_4 C 0.9134(8) 0.4100(3) 0.52085(17)
C107_4 C 0.8389(7) 0.3660(3) 0.51768(17)
H107_4 H 0.7626 0.3717 0.5199
C108_4 C 0.9824(7) 0.3089(3) 0.50955(18)
C111_4 C 0.7584(8) 0.7139(3) 0.5648(2)
C112_4 C 0.7828(12) 0.7429(4) 0.5397(3)
H111_4 H 0.7710 0.7815 0.5418
H112_4 H 0.8602 0.7364 0.5363
H113_4 H 0.7328 0.7296 0.5246
C113_4 C 0.8339(13) 0.7367(5) 0.5889(3)
H114_4 H 0.8324 0.7124 0.6040
H115_4 H 0.9104 0.7400 0.5842
H116_4 H 0.8064 0.7720 0.5936
C114_4 C 0.6400(10) 0.7230(5) 0.5681(4)
H117_4 H 0.5940 0.6991 0.5561
H118_4 H 0.6265 0.7155 0.5865
H119_4 H 0.6206 0.7603 0.5638
N11_4 N 0.5070(10) 0.4982(4) 0.7296(3)
C131_4 C 0.5195(12) 0.4666(5) 0.7131(3)
S19_4 S 0.5101(3) 0.41909(13) 0.69167(9)
loop_
_geom_bond_atom_site_label_1
_geom_bond_atom_site_label_2
_geom_bond_site_symmetry_1
_geom_bond_site_symmetry_2
C65 N5 1_555 1_555
S9 C65 1_555 1_555
H91 C92 1_555 1_555
C93 C92 1_555 1_555
H92 C93 1_555 1_555
H93 C94 1_555 1_555
N13 Fe1 1_555 1_555
N14 Fe1 1_555 1_555
C93 C94 1_555 1_555
C7 S2 1_555 1_555
H3 C7 1_555 1_555
H4 C7 1_555 1_555
C20 C19 1_555 1_555
H18 C20 1_555 1_555
C21 C20 1_555 1_555
C22 C17 1_555 1_555
H19 C22 1_555 1_555
C29 C21 1_555 1_555
C30 C29 1_555 1_555
H26 C30 1_555 1_555
H27 C30 1_555 1_555
H28 C30 1_555 1_555
C31 C29 1_555 1_555
H29 C31 1_555 1_555
H30 C31 1_555 1_555
H31 C31 1_555 1_555
C32 C29 1_555 1_555
H32 C32 1_555 1_555
H33 C32 1_555 1_555
H34 C32 1_555 1_555
C39 S6 1_555 1_555
H37 C39 1_555 1_555
H38 C39 1_555 1_555
C40 C39 1_555 1_555
C41 C40 1_555 1_555
H39 C41 1_555 1_555
N3 C41 1_555 1_555
C42 N3 1_555 1_555
H40 C42 1_555 1_555
C43 C42 1_555 1_555
H41 C43 1_555 1_555
C44 C40 1_555 1_555
H42 C44 1_555 1_555
H53 C54 1_555 1_555
C61 C53 1_555 1_555
C62 C61 1_555 1_555
H60 C62 1_555 1_555
H61 C62 1_555 1_555
H62 C62 1_555 1_555
C63 C61 1_555 1_555
H63 C63 1_555 1_555
H64 C63 1_555 1_555
H65 C63 1_555 1_555
C64 C61 1_555 1_555
H66 C64 1_555 1_555
H67 C64 1_555 1_555
H68 C64 1_555 1_555
C73 S12 1_555 1_555
H71 C73 1_555 1_555
H72 C73 1_555 1_555
C86 C85 1_555 1_555
H86 C86 1_555 1_555
C87 C86 1_555 1_555
C88 C83 1_555 1_555
H87 C88 1_555 1_555
C95 C87 1_555 1_555
C96 C95 1_555 1_555
H94 C96 1_555 1_555
H95 C96 1_555 1_555
H96 C96 1_555 1_555
C97 C95 1_555 1_555
H97 C97 1_555 1_555
H98 C97 1_555 1_555
H99 C97 1_555 1_555
C98 C95 1_555 1_555
H100 C98 1_555 1_555
H101 C98 1_555 1_555
H102 C98 1_555 1_555
C105 S16 1_555 1_555
H105 C105 1_555 1_555
H106 C105 1_555 1_555
C106 C105 1_555 1_555
C107 C106 1_555 1_555
H107 C107 1_555 1_555
N9 C107 1_555 1_555
C108 N9 1_555 1_555
H108 C108 1_555 1_555
C109 C108 1_555 1_555
H109 C109 1_555 1_555
C110 C106 1_555 1_555
H110 C110 1_555 1_555
H121 C120 1_555 1_555
C127 C119 1_555 1_555
C128 C127 1_555 1_555
H128 C128 1_555 1_555
H129 C128 1_555 1_555
H130 C128 1_555 1_555
C129 C127 1_555 1_555
H131 C129 1_555 1_555
H132 C129 1_555 1_555
H133 C129 1_555 1_555
C130 C127 1_555 1_555
H134 C130 1_555 1_555
H135 C130 1_555 1_555
H136 C130 1_555 1_555
C131 N11 1_555 1_555
S19 C131 1_555 1_555
Fe5 N3 1_555 1_555
Fe6 N9 1_555 1_555
C21 C22 1_555 1_555
C43 C44 1_555 1_555
C53 C54 1_555 1_555
C87 C88 1_555 1_555
C109 C110 1_555 1_555
C119 C120 1_555 1_555
Fe1_2 N1 1_555 1_555
Fe2 N4 1_555 1_555
S1 C1 1_555 1_555
C1 C2 1_555 1_555
C2 C3 1_555 1_555
C3 C4 1_555 1_555
C4 H1 1_555 1_555
C5 C4 1_555 1_555
C6 C1 1_555 1_555
H2 C6 1_555 1_555
C9 C8 1_555 1_555
H5 C9 1_555 1_555
N1 C9 1_555 1_555
C10 N1 1_555 1_555
H6 C10 1_555 1_555
C11 C10 1_555 1_555
H7 C11 1_555 1_555
C12 C8 1_555 1_555
H8 C12 1_555 1_555
C13 C5 1_555 1_555
C14 C13 1_555 1_555
H9 C14 1_555 1_555
H10 C14 1_555 1_555
H11 C14 1_555 1_555
C15 C13 1_555 1_555
H12 C15 1_555 1_555
H13 C15 1_555 1_555
H14 C15 1_555 1_555
C16 C13 1_555 1_555
H15 C16 1_555 1_555
H16 C16 1_555 1_555
H17 C16 1_555 1_555
S3 C3 1_555 1_555
S4 C18 1_555 1_555
C23 S4 1_555 1_555
H20 C23 1_555 1_555
C24 C23 1_555 1_555
C25 C24 1_555 1_555
H22 C25 1_555 1_555
N14 C25 1_555 1_555
C33 S5 1_555 1_555
C34 C33 1_555 1_555
C35 C34 1_555 1_555
C36 C35 1_555 1_555
H35 C36 1_555 1_555
C37 C36 1_555 1_555
C38 C33 1_555 1_555
H36 C38 1_555 1_555
C45 C37 1_555 1_555
C46 C45 1_555 1_555
H43 C46 1_555 1_555
H44 C46 1_555 1_555
H45 C46 1_555 1_555
C47 C45 1_555 1_555
H46 C47 1_555 1_555
H47 C47 1_555 1_555
H48 C47 1_555 1_555
C48 C45 1_555 1_555
H49 C48 1_555 1_555
H50 C48 1_555 1_555
H51 C48 1_555 1_555
S7 C35 1_555 1_555
C49 S7 1_555 1_555
C50 C49 1_555 1_555
C51 S1 1_555 1_555
C52 C51 1_555 1_555
S8 C50 1_555 1_555
C55 S8 1_555 1_555
H54 C55 1_555 1_555
H55 C55 1_555 1_555
C56 C55 1_555 1_555
C57 C56 1_555 1_555
H56 C57 1_555 1_555
N4 C57 1_555 1_555
C58 N4 1_555 1_555
H57 C58 1_555 1_555
C59 C58 1_555 1_555
H58 C59 1_555 1_555
C60 C56 1_555 1_555
H59 C60 1_555 1_555
S11 C67 1_555 1_555
C67 C68 1_555 1_555
C68 C69 1_555 1_555
C69 C70 1_555 1_555
C70 H69 1_555 1_555
C71 C70 1_555 1_555
C72 C67 1_555 1_555
H70 C72 1_555 1_555
C75 C74 1_555 1_555
H73 C75 1_555 1_555
N13 C75 1_555 1_555
C76 N13 1_555 1_555
H74 C76 1_555 1_555
C77 C76 1_555 1_555
H75 C77 1_555 1_555
C78 C74 1_555 1_555
H76 C78 1_555 1_555
C79 C71 1_555 1_555
C80 C79 1_555 1_555
H77 C80 1_555 1_555
H78 C80 1_555 1_555
H79 C80 1_555 1_555
C81 C79 1_555 1_555
H80 C81 1_555 1_555
H81 C81 1_555 1_555
H82 C81 1_555 1_555
C82 C79 1_555 1_555
H83 C82 1_555 1_555
H84 C82 1_555 1_555
H85 C82 1_555 1_555
S13 C69 1_555 1_555
S14 C84 1_555 1_555
C89 S14 1_555 1_555
H88 C89 1_555 1_555
C90 C89 1_555 1_555
C91 C90 1_555 1_555
H90 C91 1_555 1_555
N8 Fe1_2 1_555 1_555
C99 S15 1_555 1_555
C100 C99 1_555 1_555
C101 C100 1_555 1_555
C102 C101 1_555 1_555
H103 C102 1_555 1_555
C103 C102 1_555 1_555
C104 C99 1_555 1_555
H104 C104 1_555 1_555
C111 C103 1_555 1_555
C112 C111 1_555 1_555
H111 C112 1_555 1_555
H112 C112 1_555 1_555
H113 C112 1_555 1_555
C113 C111 1_555 1_555
H114 C113 1_555 1_555
H115 C113 1_555 1_555
H116 C113 1_555 1_555
C114 C111 1_555 1_555
H117 C114 1_555 1_555
H118 C114 1_555 1_555
H119 C114 1_555 1_555
S17 C101 1_555 1_555
C115 S17 1_555 1_555
C116 C115 1_555 1_555
C117 S11 1_555 1_555
C118 C117 1_555 1_555
S18 C116 1_555 1_555
C121 S18 1_555 1_555
H122 C121 1_555 1_555
H123 C121 1_555 1_555
C122 C121 1_555 1_555
C123 C122 1_555 1_555
H124 C123 1_555 1_555
N10 C123 1_555 1_555
C124 N10 1_555 1_555
H125 C124 1_555 1_555
C125 C124 1_555 1_555
H126 C125 1_555 1_555
C126 C122 1_555 1_555
H127 C126 1_555 1_555
N12 Fe2 1_555 1_555
C132 N12 1_555 1_555
S20 C132 1_555 1_555
Fe4 N10 1_555 1_555
N15 Fe2 1_555 1_555
C5 C6 1_555 1_555
C11 C12 1_555 1_555
C37 C38 1_555 1_555
C50 C51 1_555 1_555
C59 C60 1_555 1_555
C71 C72 1_555 1_555
C77 C78 1_555 1_555
C91 N8 1_555 1_555
C103 C104 1_555 1_555
C116 C117 1_555 1_555
C125 C126 1_555 1_555
N6 Fe2_2 1_555 1_555
C66 N6 1_555 1_555
S10 C66 1_555 1_555
N16 Fe2_2 1_555 1_555
N17 Fe2_2 1_555 1_555
H23 C26 1_555 1_555
C27 C26 1_555 1_555
H24 C27 1_555 1_555
H25 C28 1_555 1_555
C27 C28 1_555 1_555
N6_2 Fe4 1_555 1_555
C66_2 N6_2 1_555 1_555
S10_2 C66_2 1_555 1_555
N12_2 Fe4 1_555 1_555
C132_2 N12_2 1_555 1_555
S20_2 C132_2 1_555 1_555
N15_2 Fe4 1_555 1_555
N16_2 Fe4 1_555 1_555
N17_2 Fe4 1_555 1_555
Fe1_3 N1_2 1_555 1_555
Fe5 N4_2 1_555 1_555
S1_2 C1_2 1_555 1_555
C1_2 C2_2 1_555 1_555
C6_2 C1_2 1_555 1_555
H2_2 C6_2 1_555 1_555
S2_2 C2_2 1_555 1_555
C7_2 S2_2 1_555 1_555
H3_2 C7_2 1_555 1_555
H4_2 C7_2 1_555 1_555
C8_2 C7_2 1_555 1_555
C9_2 C8_2 1_555 1_555
H5_2 C9_2 1_555 1_555
N1_2 C9_2 1_555 1_555
C10_2 N1_2 1_555 1_555
H6_2 C10_2 1_555 1_555
C11_2 C10_2 1_555 1_555
H7_2 C11_2 1_555 1_555
C12_2 C8_2 1_555 1_555
H8_2 C12_2 1_555 1_555
H41_2 C43_2 1_555 1_555
H42_2 C44_2 1_555 1_555
C49_2 S7_2 1_555 1_555
C50_2 C49_2 1_555 1_555
C51_2 S1_2 1_555 1_555
C52_2 C51_2 1_555 1_555
H52_2 C52_2 1_555 1_555
C53_2 C52_2 1_555 1_555
C54_2 C49_2 1_555 1_555
H53_2 C54_2 1_555 1_555
S8_2 C50_2 1_555 1_555
C55_2 S8_2 1_555 1_555
H54_2 C55_2 1_555 1_555
H55_2 C55_2 1_555 1_555
C56_2 C55_2 1_555 1_555
C57_2 C56_2 1_555 1_555
H56_2 C57_2 1_555 1_555
N4_2 C57_2 1_555 1_555
C58_2 N4_2 1_555 1_555
H57_2 C58_2 1_555 1_555
C59_2 C58_2 1_555 1_555
H58_2 C59_2 1_555 1_555
C60_2 C56_2 1_555 1_555
H59_2 C60_2 1_555 1_555
C61_2 C53_2 1_555 1_555
C62_2 C61_2 1_555 1_555
H60_2 C62_2 1_555 1_555
H61_2 C62_2 1_555 1_555
H62_2 C62_2 1_555 1_555
C63_2 C61_2 1_555 1_555
H63_2 C63_2 1_555 1_555
H64_2 C63_2 1_555 1_555
H65_2 C63_2 1_555 1_555
C64_2 C61_2 1_555 1_555
H66_2 C64_2 1_555 1_555
H67_2 C64_2 1_555 1_555
H68_2 C64_2 1_555 1_555
N5_2 Fe1_3 1_555 1_555
C65_2 N5_2 1_555 1_555
S9_2 C65_2 1_555 1_555
C69_2 C70_2 1_555 1_555
C70_2 H69_2 1_555 1_555
C71_2 C70_2 1_555 1_555
C79_2 C71_2 1_555 1_555
C80_2 C79_2 1_555 1_555
H77_2 C80_2 1_555 1_555
H79_2 C80_2 1_555 1_555
C81_2 C79_2 1_555 1_555
H81_2 C81_2 1_555 1_555
H82_2 C81_2 1_555 1_555
C82_2 C79_2 1_555 1_555
H83_2 C82_2 1_555 1_555
H84_2 C82_2 1_555 1_555
H85_2 C82_2 1_555 1_555
S13_2 C69_2 1_555 1_555
C83_2 S13_2 1_555 1_555
C84_2 C83_2 1_555 1_555
C85_2 C84_2 1_555 1_555
C86_2 C85_2 1_555 1_555
H86_2 C86_2 1_555 1_555
C87_2 C86_2 1_555 1_555
C88_2 C83_2 1_555 1_555
H87_2 C88_2 1_555 1_555
S14_2 C84_2 1_555 1_555
C89_2 S14_2 1_555 1_555
H88_2 C89_2 1_555 1_555
H89_2 C89_2 1_555 1_555
C90_2 C89_2 1_555 1_555
C91_2 C90_2 1_555 1_555
H90_2 C91_2 1_555 1_555
N8_2 Fe1_3 1_555 1_555
C92_2 N8_2 1_555 1_555
H91_2 C92_2 1_555 1_555
C93_2 C92_2 1_555 1_555
H92_2 C93_2 1_555 1_555
C94_2 C90_2 1_555 1_555
H93_2 C94_2 1_555 1_555
C95_2 C87_2 1_555 1_555
C96_2 C95_2 1_555 1_555
H94_2 C96_2 1_555 1_555
H95_2 C96_2 1_555 1_555
H96_2 C96_2 1_555 1_555
C97_2 C95_2 1_555 1_555
H97_2 C97_2 1_555 1_555
H98_2 C97_2 1_555 1_555
H99_2 C97_2 1_555 1_555
C98_2 C95_2 1_555 1_555
H100_2 C98_2 1_555 1_555
H102_2 C98_2 1_555 1_555
S15_2 C85_2 1_555 1_555
C99_2 S15_2 1_555 1_555
C100_2 C99_2 1_555 1_555
C101_2 C100_2 1_555 1_555
C102_2 C101_2 1_555 1_555
H103_2 C102_2 1_555 1_555
C103_2 C102_2 1_555 1_555
C104_2 C99_2 1_555 1_555
H104_2 C104_2 1_555 1_555
S16_2 C100_2 1_555 1_555
C105_2 S16_2 1_555 1_555
H105_2 C105_2 1_555 1_555
H106_2 C105_2 1_555 1_555
C106_2 C105_2 1_555 1_555
C107_2 C106_2 1_555 1_555
H107_2 C107_2 1_555 1_555
N15_2 C107_2 1_555 1_555
C108_2 N15_2 1_555 1_555
C111_2 C103_2 1_555 1_555
C112_2 C111_2 1_555 1_555
H111_2 C112_2 1_555 1_555
H112_2 C112_2 1_555 1_555
H113_2 C112_2 1_555 1_555
C113_2 C111_2 1_555 1_555
H114_2 C113_2 1_555 1_555
H115_2 C113_2 1_555 1_555
H116_2 C113_2 1_555 1_555
C114_2 C111_2 1_555 1_555
H117_2 C114_2 1_555 1_555
H118_2 C114_2 1_555 1_555
H119_2 C114_2 1_555 1_555
N11_2 Fe1_3 1_555 1_555
C131_2 N11_2 1_555 1_555
S19_2 C131_2 1_555 1_555
N12_3 Fe5 1_555 1_555
C132_3 N12_3 1_555 1_555
S20_3 C132_3 1_555 1_555
N13_2 Fe1_3 1_555 1_555
N14_2 Fe1_3 1_555 1_555
C11_2 C12_2 1_555 1_555
C43_2 C44_2 1_555 1_555
C50_2 C51_2 1_555 1_555
C53_2 C54_2 1_555 1_555
C59_2 C60_2 1_555 1_555
C87_2 C88_2 1_555 1_555
C91_2 N8_2 1_555 1_555
C93_2 C94_2 1_555 1_555
C103_2 C104_2 1_555 1_555
N6_3 Fe5_2 1_555 1_555
C66_3 N6_3 1_555 1_555
S10_3 C66_3 1_555 1_555
N16_3 Fe5_2 1_555 1_555
N17_3 Fe5_2 1_555 1_555
C3_2 C4_2 1_555 1_555
C4_2 H1_2 1_555 1_555
C5_2 C4_2 1_555 1_555
C13_2 C5_2 1_555 1_555
C14_2 C13_2 1_555 1_555
H9_2 C14_2 1_555 1_555
H11_2 C14_2 1_555 1_555
C15_2 C13_2 1_555 1_555
H13_2 C15_2 1_555 1_555
H14_2 C15_2 1_555 1_555
C16_2 C13_2 1_555 1_555
H15_2 C16_2 1_555 1_555
H16_2 C16_2 1_555 1_555
H17_2 C16_2 1_555 1_555
S3_2 C3_2 1_555 1_555
C17_2 S3_2 1_555 1_555
C18_2 C17_2 1_555 1_555
C19_2 C18_2 1_555 1_555
C20_2 C19_2 1_555 1_555
H18_2 C20_2 1_555 1_555
C21_2 C20_2 1_555 1_555
C22_2 C17_2 1_555 1_555
H19_2 C22_2 1_555 1_555
S4_2 C18_2 1_555 1_555
C23_2 S4_2 1_555 1_555
H20_2 C23_2 1_555 1_555
H21_2 C23_2 1_555 1_555
C24_2 C23_2 1_555 1_555
C25_2 C24_2 1_555 1_555
H22_2 C25_2 1_555 1_555
N14_2 C25_2 1_555 1_555
C26_2 N14_2 1_555 1_555
H23_2 C26_2 1_555 1_555
C27_2 C26_2 1_555 1_555
H24_2 C27_2 1_555 1_555
C28_2 C24_2 1_555 1_555
H25_2 C28_2 1_555 1_555
C29_2 C21_2 1_555 1_555
C30_2 C29_2 1_555 1_555
H26_2 C30_2 1_555 1_555
H27_2 C30_2 1_555 1_555
H28_2 C30_2 1_555 1_555
C31_2 C29_2 1_555 1_555
H29_2 C31_2 1_555 1_555
H30_2 C31_2 1_555 1_555
H31_2 C31_2 1_555 1_555
C32_2 C29_2 1_555 1_555
H32_2 C32_2 1_555 1_555
H34_2 C32_2 1_555 1_555
S5_2 C19_2 1_555 1_555
C33_2 S5_2 1_555 1_555
C34_2 C33_2 1_555 1_555
C35_2 C34_2 1_555 1_555
C36_2 C35_2 1_555 1_555
H35_2 C36_2 1_555 1_555
C37_2 C36_2 1_555 1_555
C38_2 C33_2 1_555 1_555
H36_2 C38_2 1_555 1_555
S6_2 C34_2 1_555 1_555
C39_2 S6_2 1_555 1_555
H37_2 C39_2 1_555 1_555
H38_2 C39_2 1_555 1_555
C40_2 C39_2 1_555 1_555
C41_2 C40_2 1_555 1_555
H39_2 C41_2 1_555 1_555
N15 C41_2 1_555 1_555
C42_2 N15 1_555 1_555
C45_2 C37_2 1_555 1_555
C46_2 C45_2 1_555 1_555
H43_2 C46_2 1_555 1_555
H44_2 C46_2 1_555 1_555
H45_2 C46_2 1_555 1_555
C47_2 C45_2 1_555 1_555
H46_2 C47_2 1_555 1_555
H47_2 C47_2 1_555 1_555
H48_2 C47_2 1_555 1_555
C48_2 C45_2 1_555 1_555
H49_2 C48_2 1_555 1_555
H50_2 C48_2 1_555 1_555
H51_2 C48_2 1_555 1_555
S11_2 C67_2 1_555 1_555
C67_2 C68_2 1_555 1_555
C72_2 C67_2 1_555 1_555
H70_2 C72_2 1_555 1_555
S12_2 C68_2 1_555 1_555
C73_2 S12_2 1_555 1_555
H71_2 C73_2 1_555 1_555
H72_2 C73_2 1_555 1_555
C74_2 C73_2 1_555 1_555
C75_2 C74_2 1_555 1_555
H73_2 C75_2 1_555 1_555
N13_2 C75_2 1_555 1_555
C76_2 N13_2 1_555 1_555
H74_2 C76_2 1_555 1_555
C77_2 C76_2 1_555 1_555
H75_2 C77_2 1_555 1_555
C78_2 C74_2 1_555 1_555
H76_2 C78_2 1_555 1_555
H109_2 C109_2 1_555 1_555
H110_2 C110_2 1_555 1_555
C115_2 S17_2 1_555 1_555
C116_2 C115_2 1_555 1_555
C117_2 S11_2 1_555 1_555
C118_2 C117_2 1_555 1_555
H120_2 C118_2 1_555 1_555
C119_2 C118_2 1_555 1_555
C120_2 C115_2 1_555 1_555
H121_2 C120_2 1_555 1_555
S18_2 C116_2 1_555 1_555
C121_2 S18_2 1_555 1_555
H122_2 C121_2 1_555 1_555
H123_2 C121_2 1_555 1_555
C122_2 C121_2 1_555 1_555
C123_2 C122_2 1_555 1_555
H124_2 C123_2 1_555 1_555
N10_2 C123_2 1_555 1_555
C124_2 N10_2 1_555 1_555
H125_2 C124_2 1_555 1_555
C125_2 C124_2 1_555 1_555
H126_2 C125_2 1_555 1_555
C126_2 C122_2 1_555 1_555
H127_2 C126_2 1_555 1_555
C127_2 C119_2 1_555 1_555
C128_2 C127_2 1_555 1_555
H128_2 C128_2 1_555 1_555
H129_2 C128_2 1_555 1_555
H130_2 C128_2 1_555 1_555
C129_2 C127_2 1_555 1_555
H131_2 C129_2 1_555 1_555
H132_2 C129_2 1_555 1_555
H133_2 C129_2 1_555 1_555
C130_2 C127_2 1_555 1_555
H134_2 C130_2 1_555 1_555
H135_2 C130_2 1_555 1_555
H136_2 C130_2 1_555 1_555
Fe6 N10_2 1_555 1_555
C21_2 C22_2 1_555 1_555
C27_2 C28_2 1_555 1_555
C37_2 C38_2 1_555 1_555
C77_2 C78_2 1_555 1_555
C109_2 C110_2 1_555 1_555
C116_2 C117_2 1_555 1_555
C119_2 C120_2 1_555 1_555
C125_2 C126_2 1_555 1_555
N6_4 Fe6 1_555 1_555
C66_4 N6_4 1_555 1_555
S10_4 C66_4 1_555 1_555
N12_4 Fe6 1_555 1_555
C132_4 N12_4 1_555 1_555
S20_4 C132_4 1_555 1_555
N16_4 Fe6 1_555 1_555
N17_4 Fe6 1_555 1_555
H23_3 C26_3 1_555 1_555
C27_3 C26_3 1_555 1_555
H24_3 C27_3 1_555 1_555
H25_3 C28_3 1_555 1_555
C27_3 C28_3 1_555 1_555
Fe3 N1_3 1_555 1_555
S1_3 C1_3 1_555 1_555
C1_3 C2_3 1_555 1_555
C2_3 C3_3 1_555 1_555
C3_3 C4_3 1_555 1_555
C4_3 H1_3 1_555 1_555
C5_3 C4_3 1_555 1_555
C6_3 C1_3 1_555 1_555
H2_3 C6_3 1_555 1_555
C9_3 C8_3 1_555 1_555
H5_3 C9_3 1_555 1_555
N1_3 C9_3 1_555 1_555
C10_3 N1_3 1_555 1_555
H6_3 C10_3 1_555 1_555
C11_3 C10_3 1_555 1_555
H7_3 C11_3 1_555 1_555
C12_3 C8_3 1_555 1_555
H8_3 C12_3 1_555 1_555
C13_3 C5_3 1_555 1_555
C14_3 C13_3 1_555 1_555
H9_3 C14_3 1_555 1_555
H10_3 C14_3 1_555 1_555
H11_3 C14_3 1_555 1_555
C15_3 C13_3 1_555 1_555
H12_3 C15_3 1_555 1_555
H13_3 C15_3 1_555 1_555
H14_3 C15_3 1_555 1_555
C16_3 C13_3 1_555 1_555
H15_3 C16_3 1_555 1_555
H16_3 C16_3 1_555 1_555
H17_3 C16_3 1_555 1_555
S3_3 C3_3 1_555 1_555
S4_3 C18_3 1_555 1_555
C23_3 S4_3 1_555 1_555
H20_3 C23_3 1_555 1_555
C24_3 C23_3 1_555 1_555
C25_3 C24_3 1_555 1_555
H22_3 C25_3 1_555 1_555
N2 C25_3 1_555 1_555
C33_3 S5_3 1_555 1_555
C34_3 C33_3 1_555 1_555
C35_3 C34_3 1_555 1_555
C36_3 C35_3 1_555 1_555
H35_3 C36_3 1_555 1_555
C37_3 C36_3 1_555 1_555
C38_3 C33_3 1_555 1_555
H36_3 C38_3 1_555 1_555
C45_3 C37_3 1_555 1_555
C46_3 C45_3 1_555 1_555
H43_3 C46_3 1_555 1_555
H44_3 C46_3 1_555 1_555
H45_3 C46_3 1_555 1_555
C47_3 C45_3 1_555 1_555
H46_3 C47_3 1_555 1_555
H47_3 C47_3 1_555 1_555
H48_3 C47_3 1_555 1_555
C48_3 C45_3 1_555 1_555
H49_3 C48_3 1_555 1_555
H50_3 C48_3 1_555 1_555
H51_3 C48_3 1_555 1_555
S7_3 C35_3 1_555 1_555
C49_3 S7_3 1_555 1_555
C50_3 C49_3 1_555 1_555
C51_3 S1_3 1_555 1_555
C52_3 C51_3 1_555 1_555
S8_3 C50_3 1_555 1_555
C55_3 S8_3 1_555 1_555
H54_3 C55_3 1_555 1_555
H55_3 C55_3 1_555 1_555
C56_3 C55_3 1_555 1_555
C57_3 C56_3 1_555 1_555
H56_3 C57_3 1_555 1_555
N17_3 C57_3 1_555 1_555
C58_3 N17_3 1_555 1_555
H57_3 C58_3 1_555 1_555
C59_3 C58_3 1_555 1_555
H58_3 C59_3 1_555 1_555
C60_3 C56_3 1_555 1_555
H59_3 C60_3 1_555 1_555
S11_3 C67_3 1_555 1_555
C67_3 C68_3 1_555 1_555
C68_3 C69_3 1_555 1_555
C69_3 C70_3 1_555 1_555
C70_3 H69_3 1_555 1_555
C71_3 C70_3 1_555 1_555
C72_3 C67_3 1_555 1_555
H70_3 C72_3 1_555 1_555
C75_3 C74_3 1_555 1_555
H73_3 C75_3 1_555 1_555
N7 C75_3 1_555 1_555
C76_3 N7 1_555 1_555
H74_3 C76_3 1_555 1_555
C77_3 C76_3 1_555 1_555
H75_3 C77_3 1_555 1_555
C78_3 C74_3 1_555 1_555
H76_3 C78_3 1_555 1_555
C79_3 C71_3 1_555 1_555
C80_3 C79_3 1_555 1_555
H77_3 C80_3 1_555 1_555
H78_3 C80_3 1_555 1_555
H79_3 C80_3 1_555 1_555
C81_3 C79_3 1_555 1_555
H80_3 C81_3 1_555 1_555
H81_3 C81_3 1_555 1_555
H82_3 C81_3 1_555 1_555
C82_3 C79_3 1_555 1_555
H83_3 C82_3 1_555 1_555
H84_3 C82_3 1_555 1_555
H85_3 C82_3 1_555 1_555
S13_3 C69_3 1_555 1_555
S14_3 C84_3 1_555 1_555
C89_3 S14_3 1_555 1_555
H88_3 C89_3 1_555 1_555
C90_3 C89_3 1_555 1_555
C91_3 C90_3 1_555 1_555
H90_3 C91_3 1_555 1_555
N8_3 Fe3 1_555 1_555
C99_3 S15_3 1_555 1_555
C100_3 C99_3 1_555 1_555
C101_3 C100_3 1_555 1_555
C102_3 C101_3 1_555 1_555
H103_3 C102_3 1_555 1_555
C103_3 C102_3 1_555 1_555
C104_3 C99_3 1_555 1_555
H104_3 C104_3 1_555 1_555
C111_3 C103_3 1_555 1_555
C112_3 C111_3 1_555 1_555
H111_3 C112_3 1_555 1_555
H112_3 C112_3 1_555 1_555
H113_3 C112_3 1_555 1_555
C113_3 C111_3 1_555 1_555
H114_3 C113_3 1_555 1_555
H115_3 C113_3 1_555 1_555
H116_3 C113_3 1_555 1_555
C114_3 C111_3 1_555 1_555
H117_3 C114_3 1_555 1_555
H118_3 C114_3 1_555 1_555
H119_3 C114_3 1_555 1_555
S17_3 C101_3 1_555 1_555
C115_3 S17_3 1_555 1_555
C116_3 C115_3 1_555 1_555
C117_3 S11_3 1_555 1_555
C118_3 C117_3 1_555 1_555
S18_3 C116_3 1_555 1_555
C121_3 S18_3 1_555 1_555
H122_3 C121_3 1_555 1_555
H123_3 C121_3 1_555 1_555
C122_3 C121_3 1_555 1_555
C123_3 C122_3 1_555 1_555
H124_3 C123_3 1_555 1_555
N17_4 C123_3 1_555 1_555
C124_3 N17_4 1_555 1_555
H125_3 C124_3 1_555 1_555
C125_3 C124_3 1_555 1_555
H126_3 C125_3 1_555 1_555
C126_3 C122_3 1_555 1_555
H127_3 C126_3 1_555 1_555
Fe3_2 N2 1_555 1_555
C5_3 C6_3 1_555 1_555
C11_3 C12_3 1_555 1_555
C37_3 C38_3 1_555 1_555
C50_3 C51_3 1_555 1_555
C59_3 C60_3 1_555 1_555
C71_3 C72_3 1_555 1_555
N7 Fe3_2 1_555 1_555
C77_3 C78_3 1_555 1_555
C91_3 N8_3 1_555 1_555
C103_3 C104_3 1_555 1_555
C116_3 C117_3 1_555 1_555
C125_3 C126_3 1_555 1_555
C7_3 S2_3 1_555 1_555
H3_3 C7_3 1_555 1_555
H4_3 C7_3 1_555 1_555
C20_3 C19_3 1_555 1_555
H18_3 C20_3 1_555 1_555
C21_3 C20_3 1_555 1_555
C22_3 C17_3 1_555 1_555
H19_3 C22_3 1_555 1_555
C29_3 C21_3 1_555 1_555
C30_3 C29_3 1_555 1_555
H26_3 C30_3 1_555 1_555
H27_3 C30_3 1_555 1_555
H28_3 C30_3 1_555 1_555
C31_3 C29_3 1_555 1_555
H29_3 C31_3 1_555 1_555
H30_3 C31_3 1_555 1_555
H31_3 C31_3 1_555 1_555
C32_3 C29_3 1_555 1_555
H32_3 C32_3 1_555 1_555
H33_3 C32_3 1_555 1_555
H34_3 C32_3 1_555 1_555
C39_3 S6_3 1_555 1_555
H37_3 C39_3 1_555 1_555
H38_3 C39_3 1_555 1_555
C40_3 C39_3 1_555 1_555
C41_3 C40_3 1_555 1_555
H39_3 C41_3 1_555 1_555
N16 C41_3 1_555 1_555
C42_3 N16 1_555 1_555
H40_3 C42_3 1_555 1_555
C43_3 C42_3 1_555 1_555
H41_3 C43_3 1_555 1_555
C44_3 C40_3 1_555 1_555
H42_3 C44_3 1_555 1_555
H53_3 C54_3 1_555 1_555
C61_3 C53_3 1_555 1_555
C62_3 C61_3 1_555 1_555
H60_3 C62_3 1_555 1_555
H61_3 C62_3 1_555 1_555
H62_3 C62_3 1_555 1_555
C63_3 C61_3 1_555 1_555
H63_3 C63_3 1_555 1_555
H64_3 C63_3 1_555 1_555
H65_3 C63_3 1_555 1_555
C64_3 C61_3 1_555 1_555
H66_3 C64_3 1_555 1_555
H67_3 C64_3 1_555 1_555
H68_3 C64_3 1_555 1_555
C73_3 S12_3 1_555 1_555
H71_3 C73_3 1_555 1_555
H72_3 C73_3 1_555 1_555
C86_3 C85_3 1_555 1_555
H86_3 C86_3 1_555 1_555
C87_3 C86_3 1_555 1_555
C88_3 C83_3 1_555 1_555
H87_3 C88_3 1_555 1_555
C95_3 C87_3 1_555 1_555
C96_3 C95_3 1_555 1_555
H94_3 C96_3 1_555 1_555
H95_3 C96_3 1_555 1_555
H96_3 C96_3 1_555 1_555
C97_3 C95_3 1_555 1_555
H97_3 C97_3 1_555 1_555
H98_3 C97_3 1_555 1_555
H99_3 C97_3 1_555 1_555
C98_3 C95_3 1_555 1_555
H100_3 C98_3 1_555 1_555
H101_3 C98_3 1_555 1_555
H102_3 C98_3 1_555 1_555
C105_3 S16_3 1_555 1_555
H105_3 C105_3 1_555 1_555
H106_3 C105_3 1_555 1_555
C106_3 C105_3 1_555 1_555
C107_3 C106_3 1_555 1_555
H107_3 C107_3 1_555 1_555
N16_2 C107_3 1_555 1_555
C108_3 N16_2 1_555 1_555
H108_3 C108_3 1_555 1_555
C109_3 C108_3 1_555 1_555
H109_3 C109_3 1_555 1_555
C110_3 C106_3 1_555 1_555
H110_3 C110_3 1_555 1_555
H121_3 C120_3 1_555 1_555
C127_3 C119_3 1_555 1_555
C128_3 C127_3 1_555 1_555
H128_3 C128_3 1_555 1_555
H129_3 C128_3 1_555 1_555
H130_3 C128_3 1_555 1_555
C129_3 C127_3 1_555 1_555
H131_3 C129_3 1_555 1_555
H132_3 C129_3 1_555 1_555
H133_3 C129_3 1_555 1_555
C130_3 C127_3 1_555 1_555
H134_3 C130_3 1_555 1_555
H135_3 C130_3 1_555 1_555
H136_3 C130_3 1_555 1_555
C131_3 N11_3 1_555 1_555
S19_3 C131_3 1_555 1_555
C21_3 C22_3 1_555 1_555
C43_3 C44_3 1_555 1_555
C53_3 C54_3 1_555 1_555
C87_3 C88_3 1_555 1_555
C109_3 C110_3 1_555 1_555
C119_3 C120_3 1_555 1_555
H91_3 C92_3 1_555 1_555
C93_3 C92_3 1_555 1_555
H92_3 C93_3 1_555 1_555
H93_3 C94_3 1_555 1_555
C93_3 C94_3 1_555 1_555
C65_3 N5_3 1_555 1_555
S9_3 C65_3 1_555 1_555
C3_4 C4_4 1_555 1_555
C4_4 H1_4 1_555 1_555
C5_4 C4_4 1_555 1_555
C13_4 C5_4 1_555 1_555
C14_4 C13_4 1_555 1_555
H9_4 C14_4 1_555 1_555
H11_4 C14_4 1_555 1_555
C15_4 C13_4 1_555 1_555
H13_4 C15_4 1_555 1_555
H14_4 C15_4 1_555 1_555
C16_4 C13_4 1_555 1_555
H15_4 C16_4 1_555 1_555
H16_4 C16_4 1_555 1_555
H17_4 C16_4 1_555 1_555
S3_4 C3_4 1_555 1_555
C17_4 S3_4 1_555 1_555
C18_4 C17_4 1_555 1_555
C19_4 C18_4 1_555 1_555
C20_4 C19_4 1_555 1_555
H18_4 C20_4 1_555 1_555
C21_4 C20_4 1_555 1_555
C22_4 C17_4 1_555 1_555
H19_4 C22_4 1_555 1_555
S4_4 C18_4 1_555 1_555
C23_4 S4_4 1_555 1_555
H20_4 C23_4 1_555 1_555
H21_4 C23_4 1_555 1_555
C24_4 C23_4 1_555 1_555
C25_4 C24_4 1_555 1_555
H22_4 C25_4 1_555 1_555
N2_2 C25_4 1_555 1_555
C26_4 N2_2 1_555 1_555
H23_4 C26_4 1_555 1_555
C27_4 C26_4 1_555 1_555
H24_4 C27_4 1_555 1_555
C28_4 C24_4 1_555 1_555
H25_4 C28_4 1_555 1_555
C29_4 C21_4 1_555 1_555
C30_4 C29_4 1_555 1_555
H26_4 C30_4 1_555 1_555
H27_4 C30_4 1_555 1_555
H28_4 C30_4 1_555 1_555
C31_4 C29_4 1_555 1_555
H29_4 C31_4 1_555 1_555
H30_4 C31_4 1_555 1_555
H31_4 C31_4 1_555 1_555
C32_4 C29_4 1_555 1_555
H32_4 C32_4 1_555 1_555
H34_4 C32_4 1_555 1_555
S5_4 C19_4 1_555 1_555
C33_4 S5_4 1_555 1_555
C34_4 C33_4 1_555 1_555
C35_4 C34_4 1_555 1_555
C36_4 C35_4 1_555 1_555
H35_4 C36_4 1_555 1_555
C37_4 C36_4 1_555 1_555
C38_4 C33_4 1_555 1_555
H36_4 C38_4 1_555 1_555
S6_4 C34_4 1_555 1_555
C39_4 S6_4 1_555 1_555
H37_4 C39_4 1_555 1_555
H38_4 C39_4 1_555 1_555
C40_4 C39_4 1_555 1_555
C41_4 C40_4 1_555 1_555
H39_4 C41_4 1_555 1_555
N16_3 C41_4 1_555 1_555
C42_4 N16_3 1_555 1_555
C45_4 C37_4 1_555 1_555
C46_4 C45_4 1_555 1_555
H43_4 C46_4 1_555 1_555
H44_4 C46_4 1_555 1_555
H45_4 C46_4 1_555 1_555
C47_4 C45_4 1_555 1_555
H46_4 C47_4 1_555 1_555
H47_4 C47_4 1_555 1_555
H48_4 C47_4 1_555 1_555
C48_4 C45_4 1_555 1_555
H49_4 C48_4 1_555 1_555
H50_4 C48_4 1_555 1_555
H51_4 C48_4 1_555 1_555
S11_4 C67_4 1_555 1_555
C67_4 C68_4 1_555 1_555
C72_4 C67_4 1_555 1_555
H70_4 C72_4 1_555 1_555
S12_4 C68_4 1_555 1_555
C73_4 S12_4 1_555 1_555
H71_4 C73_4 1_555 1_555
H72_4 C73_4 1_555 1_555
C74_4 C73_4 1_555 1_555
C75_4 C74_4 1_555 1_555
H73_4 C75_4 1_555 1_555
N7_2 C75_4 1_555 1_555
C76_4 N7_2 1_555 1_555
H74_4 C76_4 1_555 1_555
C77_4 C76_4 1_555 1_555
H75_4 C77_4 1_555 1_555
C78_4 C74_4 1_555 1_555
H76_4 C78_4 1_555 1_555
H109_4 C109_4 1_555 1_555
H110_4 C110_4 1_555 1_555
C115_4 S17_4 1_555 1_555
C116_4 C115_4 1_555 1_555
C117_4 S11_4 1_555 1_555
C118_4 C117_4 1_555 1_555
H120_4 C118_4 1_555 1_555
C119_4 C118_4 1_555 1_555
C120_4 C115_4 1_555 1_555
H121_4 C120_4 1_555 1_555
S18_4 C116_4 1_555 1_555
C121_4 S18_4 1_555 1_555
H122_4 C121_4 1_555 1_555
H123_4 C121_4 1_555 1_555
C122_4 C121_4 1_555 1_555
C123_4 C122_4 1_555 1_555
H124_4 C123_4 1_555 1_555
N17_2 C123_4 1_555 1_555
C124_4 N17_2 1_555 1_555
H125_4 C124_4 1_555 1_555
C125_4 C124_4 1_555 1_555
H126_4 C125_4 1_555 1_555
C126_4 C122_4 1_555 1_555
H127_4 C126_4 1_555 1_555
C127_4 C119_4 1_555 1_555
C128_4 C127_4 1_555 1_555
H128_4 C128_4 1_555 1_555
H129_4 C128_4 1_555 1_555
H130_4 C128_4 1_555 1_555
C129_4 C127_4 1_555 1_555
H131_4 C129_4 1_555 1_555
H132_4 C129_4 1_555 1_555
H133_4 C129_4 1_555 1_555
C130_4 C127_4 1_555 1_555
H134_4 C130_4 1_555 1_555
H135_4 C130_4 1_555 1_555
H136_4 C130_4 1_555 1_555
Fe3_3 N2_2 1_555 1_555
C21_4 C22_4 1_555 1_555
C27_4 C28_4 1_555 1_555
C37_4 C38_4 1_555 1_555
N7_2 Fe3_3 1_555 1_555
C77_4 C78_4 1_555 1_555
C109_4 C110_4 1_555 1_555
C116_4 C117_4 1_555 1_555
C119_4 C120_4 1_555 1_555
C125_4 C126_4 1_555 1_555
Fe3_3 N1_4 1_555 1_555
S1_4 C1_4 1_555 1_555
C1_4 C2_4 1_555 1_555
C6_4 C1_4 1_555 1_555
H2_4 C6_4 1_555 1_555
S2_4 C2_4 1_555 1_555
C7_4 S2_4 1_555 1_555
H3_4 C7_4 1_555 1_555
H4_4 C7_4 1_555 1_555
C8_4 C7_4 1_555 1_555
C9_4 C8_4 1_555 1_555
H5_4 C9_4 1_555 1_555
N1_4 C9_4 1_555 1_555
C10_4 N1_4 1_555 1_555
H6_4 C10_4 1_555 1_555
C11_4 C10_4 1_555 1_555
H7_4 C11_4 1_555 1_555
C12_4 C8_4 1_555 1_555
H8_4 C12_4 1_555 1_555
H41_4 C43_4 1_555 1_555
H42_4 C44_4 1_555 1_555
C49_4 S7_4 1_555 1_555
C50_4 C49_4 1_555 1_555
C51_4 S1_4 1_555 1_555
C52_4 C51_4 1_555 1_555
H52_4 C52_4 1_555 1_555
C53_4 C52_4 1_555 1_555
C54_4 C49_4 1_555 1_555
H53_4 C54_4 1_555 1_555
S8_4 C50_4 1_555 1_555
C55_4 S8_4 1_555 1_555
H54_4 C55_4 1_555 1_555
H55_4 C55_4 1_555 1_555
C56_4 C55_4 1_555 1_555
C57_4 C56_4 1_555 1_555
H56_4 C57_4 1_555 1_555
N17 C57_4 1_555 1_555
C58_4 N17 1_555 1_555
H57_4 C58_4 1_555 1_555
C59_4 C58_4 1_555 1_555
H58_4 C59_4 1_555 1_555
C60_4 C56_4 1_555 1_555
H59_4 C60_4 1_555 1_555
C61_4 C53_4 1_555 1_555
C62_4 C61_4 1_555 1_555
H60_4 C62_4 1_555 1_555
H61_4 C62_4 1_555 1_555
H62_4 C62_4 1_555 1_555
C63_4 C61_4 1_555 1_555
H63_4 C63_4 1_555 1_555
H64_4 C63_4 1_555 1_555
H65_4 C63_4 1_555 1_555
C64_4 C61_4 1_555 1_555
H66_4 C64_4 1_555 1_555
H67_4 C64_4 1_555 1_555
H68_4 C64_4 1_555 1_555
N5_4 Fe3_3 1_555 1_555
C65_4 N5_4 1_555 1_555
S9_4 C65_4 1_555 1_555
C69_4 C70_4 1_555 1_555
C70_4 H69_4 1_555 1_555
C71_4 C70_4 1_555 1_555
C79_4 C71_4 1_555 1_555
C80_4 C79_4 1_555 1_555
H77_4 C80_4 1_555 1_555
H79_4 C80_4 1_555 1_555
C81_4 C79_4 1_555 1_555
H81_4 C81_4 1_555 1_555
H82_4 C81_4 1_555 1_555
C82_4 C79_4 1_555 1_555
H83_4 C82_4 1_555 1_555
H84_4 C82_4 1_555 1_555
H85_4 C82_4 1_555 1_555
S13_4 C69_4 1_555 1_555
C83_4 S13_4 1_555 1_555
C84_4 C83_4 1_555 1_555
C85_4 C84_4 1_555 1_555
C86_4 C85_4 1_555 1_555
H86_4 C86_4 1_555 1_555
C87_4 C86_4 1_555 1_555
C88_4 C83_4 1_555 1_555
H87_4 C88_4 1_555 1_555
S14_4 C84_4 1_555 1_555
C89_4 S14_4 1_555 1_555
H88_4 C89_4 1_555 1_555
H89_4 C89_4 1_555 1_555
C90_4 C89_4 1_555 1_555
C91_4 C90_4 1_555 1_555
H90_4 C91_4 1_555 1_555
N8_4 Fe3_3 1_555 1_555
C92_4 N8_4 1_555 1_555
H91_4 C92_4 1_555 1_555
C93_4 C92_4 1_555 1_555
H92_4 C93_4 1_555 1_555
C94_4 C90_4 1_555 1_555
H93_4 C94_4 1_555 1_555
C95_4 C87_4 1_555 1_555
C96_4 C95_4 1_555 1_555
H94_4 C96_4 1_555 1_555
H95_4 C96_4 1_555 1_555
H96_4 C96_4 1_555 1_555
C97_4 C95_4 1_555 1_555
H97_4 C97_4 1_555 1_555
H98_4 C97_4 1_555 1_555
H99_4 C97_4 1_555 1_555
C98_4 C95_4 1_555 1_555
H100_4 C98_4 1_555 1_555
H102_4 C98_4 1_555 1_555
S15_4 C85_4 1_555 1_555
C99_4 S15_4 1_555 1_555
C100_4 C99_4 1_555 1_555
C101_4 C100_4 1_555 1_555
C102_4 C101_4 1_555 1_555
H103_4 C102_4 1_555 1_555
C103_4 C102_4 1_555 1_555
C104_4 C99_4 1_555 1_555
H104_4 C104_4 1_555 1_555
S16_4 C100_4 1_555 1_555
C105_4 S16_4 1_555 1_555
H105_4 C105_4 1_555 1_555
H106_4 C105_4 1_555 1_555
C106_4 C105_4 1_555 1_555
C107_4 C106_4 1_555 1_555
H107_4 C107_4 1_555 1_555
N16_4 C107_4 1_555 1_555
C108_4 N16_4 1_555 1_555
C111_4 C103_4 1_555 1_555
C112_4 C111_4 1_555 1_555
H111_4 C112_4 1_555 1_555
H112_4 C112_4 1_555 1_555
H113_4 C112_4 1_555 1_555
C113_4 C111_4 1_555 1_555
H114_4 C113_4 1_555 1_555
H115_4 C113_4 1_555 1_555
H116_4 C113_4 1_555 1_555
C114_4 C111_4 1_555 1_555
H117_4 C114_4 1_555 1_555
H118_4 C114_4 1_555 1_555
H119_4 C114_4 1_555 1_555
N11_4 Fe3_3 1_555 1_555
C131_4 N11_4 1_555 1_555
S19_4 C131_4 1_555 1_555
C11_4 C12_4 1_555 1_555
C43_4 C44_4 1_555 1_555
C50_4 C51_4 1_555 1_555
C53_4 C54_4 1_555 1_555
C59_4 C60_4 1_555 1_555
C87_4 C88_4 1_555 1_555
C91_4 N8_4 1_555 1_555
C93_4 C94_4 1_555 1_555
C103_4 C104_4 1_555 1_555

#END
