
###############################################################################
#
# This file contains modified crystal structure data generated from the
# MOF subset of the Cambridge Structural Database (CSD) v543 
# hosted by the Cambridge Crystallographic Data Centre (CCDC).
#
# This work is licensed under the Creative Commons
# Attribution-NonCommercial-ShareAlike 4.0 International License.
# To view a copy of this license, visit
# http://creativecommons.org/licenses/by-nc-sa/4.0/
# or send a letter to
# Creative Commons, PO Box 1866, Mountain View, CA 94042, USA.
#
# CIF created using the CSD Python API on 29 September 2022
# The structure has been converted into the P1 space group
# The structure has a 3D framework
# The original CSD entry IWOSAP is in the triclinic crystal system
# The framework has been calculated to contain at least 10.0% void space
# The void calculation uses a probe of radius 1.32A, grid spacing 0.4
# H atom positions have been added when not included in the experimental data
#
###############################################################################

data_IWOSAP
_chemical_formula_moiety         '(C24 H32 Ho2 O26)n'
_symmetry_cell_setting           triclinic
_symmetry_space_group_name_H-M   'P 1'
_symmetry_Int_Tables_number      1
_space_group_name_Hall           'P 1'
loop_
_symmetry_equiv_pos_site_id
_symmetry_equiv_pos_as_xyz
1 x,y,z
_cell_length_a                   7.6112(18)
_cell_length_b                   11.927(3)
_cell_length_c                   12.130(3)
_cell_angle_alpha                67.602(4)
_cell_angle_beta                 89.920(4)
_cell_angle_gamma                80.498(4)
_cell_volume                     1001.82
loop_
_atom_site_label
_atom_site_type_symbol
_atom_site_fract_x
_atom_site_fract_y
_atom_site_fract_z
_atom_site_U_iso_or_equiv
_atom_site_thermal_displace_type
O4 O 0.2188(18) 0.1065(12) 0.5160(11) 0.0220 Uiso
O5 O 0.4856(19) 0.1483(13) 0.5398(12) 0.0240 Uiso
C4 C 0.365(3) 0.1393(18) 0.4796(17) 0.0180 Uiso
C5 C 0.224(3) 0.1904(18) 0.2707(17) 0.0190 Uiso
H5 H 0.1345 0.2529 0.2807 0.0230 Uiso
H6 H 0.2534 0.2204 0.1877 0.0230 Uiso
C6 C 0.395(3) 0.170(2) 0.3516(17) 0.0230 Uiso
H7 H 0.4820 0.1044 0.3444 0.0280 Uiso
H8 H 0.4466 0.2447 0.3219 0.0280 Uiso
C7 C 0.148(3) 0.074(2) 0.2994(19) 0.0280 Uiso
Ho3 Ho 0.00753(11) 0.14517(9) 0.64519(8) 0.0174 Uani
Ho6 Ho 0.50746(11) 0.14493(9) 0.74620(8) 0.0171 Uani
O22 O 0.4847(18) 0.0702(13) 0.1160(12) 0.0240 Uiso
O12 O 0.2602(19) 0.0235(13) 0.7732(12) 0.0270 Uiso
Ho2 Ho 0.49254(11) 0.85507(9) 0.25380(8) 0.0171 Uani
O1 O 0.461(2) 0.6453(14) 0.2621(13) 0.0360 Uiso
O2 O 0.2735(18) 0.7250(12) 0.3591(11) 0.0210 Uiso
O3 O 0.2827(18) 0.8886(12) 0.1001(11) 0.0210 Uiso
O6 O 0.2364(17) 0.9769(12) 0.2880(11) 0.0150 Uiso
O8 O 0.0375(18) 0.3497(12) 0.4945(12) 0.0250 Uiso
O9 O 0.2311(17) 0.2730(12) 0.6509(11) 0.0200 Uiso
O10 O 0.1722(19) 0.8253(13) 0.5288(12) 0.0270 Uiso
O11 O 0.6720(18) 0.8231(12) 0.1052(12) 0.0240 Uiso
H4 H 0.0574 0.7524 0.0031 0.0290 Uiso
O14 O 0.020(2) 0.8452(14) 0.1608(13) 0.0310 Uiso
C8 C 0.331(3) 0.636(2) 0.3231(19) 0.0260 Uiso
C9 C 0.137(3) 0.8572(19) 0.0905(18) 0.0220 Uiso
C10 C 0.178(2) 0.3562(18) 0.5488(17) 0.0150 Uiso
C11 C 0.294(3) 0.455(2) 0.4917(19) 0.0360 Uiso
H9 H 0.2863 0.5092 0.5349 0.0430 Uiso
H10 H 0.4179 0.4155 0.4981 0.0430 Uiso
C12 C 0.234(3) 0.5319(18) 0.3591(17) 0.0220 Uiso
H11 H 0.2648 0.4831 0.3113 0.0260 Uiso
H12 H 0.1064 0.5610 0.3493 0.0260 Uiso
O16 O 0.5144(19) 0.8517(13) 0.4602(12) 0.0240 Uiso
O19 O 0.7689(17) 0.7270(12) 0.3491(11) 0.0200 Uiso
O21 O 0.7398(19) 0.9765(13) 0.2268(12) 0.0270 Uiso
H13 H 0.5964 0.810869 0.0455061 . .
H14 H 0.729056 0.896117 0.0648359 . .
H15 H 0.284712 0.85708 0.504269 . .
H16 H 0.105777 0.870504 0.574255 . .
O13 O 0.5153(18) 0.9298(13) 0.8840(12) 0.0240 Uiso
C1 C 0.360(2) 0.9273(17) 0.8536(16) 0.0140 Uiso
C2 C 0.274(2) 0.8118(16) 0.9131(15) 0.0100 Uiso
H1 H 0.3626 0.7476 0.9695 0.0120 Uiso
H2 H 0.2445 0.7830 0.8519 0.0120 Uiso
C3 C 0.107(3) 0.828(2) 0.9786(17) 0.0240 Uiso
H3 H 0.0189 0.8935 0.9233 0.0290 Uiso
Ho1 Ho 0.99247(11) 0.85483(9) 0.35481(8) 0.0174 Uani
O15 O 0.7812(18) 0.8935(12) 0.4840(11) 0.0220 Uiso
O17 O 0.9625(18) 0.6503(12) 0.5055(12) 0.0250 Uiso
C1_2 C 0.640(2) 0.0727(17) 0.1464(16) 0.0140 Uiso
C2_2 C 0.726(2) 0.1882(16) 0.0869(15) 0.0100 Uiso
H1_2 H 0.6374 0.2524 0.0305 0.0120 Uiso
H2_2 H 0.7555 0.2170 0.1481 0.0120 Uiso
C3_2 C 0.893(3) 0.172(2) 0.0214(17) 0.0240 Uiso
H3_2 H 0.9811 0.1065 0.0767 0.0290 Uiso
O1_2 O 0.539(2) 0.3547(14) 0.7379(13) 0.0360 Uiso
O2_2 O 0.7265(18) 0.2750(12) 0.6409(11) 0.0210 Uiso
O3_2 O 0.7173(18) 0.1114(12) 0.8999(11) 0.0210 Uiso
O6_2 O 0.7636(17) 0.0231(12) 0.7120(11) 0.0150 Uiso
O10_2 O 0.8278(19) 0.1747(13) 0.4712(12) 0.0270 Uiso
O11_2 O 0.3280(18) 0.1769(12) 0.8948(12) 0.0240 Uiso
H4_2 H 0.9426 0.2476 0.9969 0.0290 Uiso
O14_2 O 0.980(2) 0.1548(14) 0.8392(13) 0.0310 Uiso
C8_2 C 0.669(3) 0.364(2) 0.6769(19) 0.0260 Uiso
C9_2 C 0.863(3) 0.1428(19) 0.9095(18) 0.0220 Uiso
C10_2 C 0.822(2) 0.6438(18) 0.4512(17) 0.0150 Uiso
C11_2 C 0.706(3) 0.545(2) 0.5083(19) 0.0360 Uiso
H9_2 H 0.7137 0.4908 0.4651 0.0430 Uiso
H10_2 H 0.5821 0.5845 0.5019 0.0430 Uiso
C12_2 C 0.766(3) 0.4681(18) 0.6409(17) 0.0220 Uiso
H11_2 H 0.7352 0.5169 0.6887 0.0260 Uiso
H12_2 H 0.8936 0.4390 0.6507 0.0260 Uiso
H13_2 H 0.4036 0.189131 0.954494 . .
H14_2 H 0.270944 0.103883 0.935164 . .
H15_2 H 0.715288 0.14292 0.495731 . .
H16_2 H 0.894223 0.129496 0.425745 . .
C4_2 C 0.635(3) 0.8607(18) 0.5204(17) 0.0180 Uiso
C5_2 C 0.776(3) 0.8096(18) 0.7293(17) 0.0190 Uiso
H5_2 H 0.8655 0.7471 0.7193 0.0230 Uiso
H6_2 H 0.7466 0.7796 0.8123 0.0230 Uiso
C6_2 C 0.605(3) 0.830(2) 0.6484(17) 0.0230 Uiso
H7_2 H 0.5180 0.8956 0.6556 0.0280 Uiso
H8_2 H 0.5534 0.7553 0.6781 0.0280 Uiso
C7_2 C 0.852(3) 0.926(2) 0.7006(19) 0.0280 Uiso
O7 O 0.9892(18) 0.0659(13) 0.3288(11) 0.0240 Uiso
O7_2 O 0.0108(18) 0.9341(13) 0.6712(11) 0.0240 Uiso
loop_
_atom_site_aniso_label
_atom_site_aniso_U_11
_atom_site_aniso_U_22
_atom_site_aniso_U_33
_atom_site_aniso_U_23
_atom_site_aniso_U_13
_atom_site_aniso_U_12
Ho3 0.0062 0.029 0.0197 -0.0101 0.0021 -0.0084
Ho6 0.0059 0.0282 0.02 -0.0103 0.0032 -0.0085
Ho2 0.0059 0.0282 0.02 -0.0103 0.0032 -0.0085
Ho1 0.0062 0.029 0.0197 -0.0101 0.0021 -0.0084
loop_
_geom_bond_atom_site_label_1
_geom_bond_atom_site_label_2
_geom_bond_site_symmetry_1
_geom_bond_site_symmetry_2
O4 C4 1_555 1_555
O5 C4 1_555 1_555
C4 C6 1_555 1_555
C5 H5 1_555 1_555
H6 C5 1_555 1_555
C6 C5 1_555 1_555
H7 C6 1_555 1_555
H8 C6 1_555 1_555
Ho3 O4 1_555 1_555
Ho6 O5 1_555 1_555
C5 C7 1_555 1_555
Ho3 O12 1_555 1_555
Ho6 O12 1_555 1_555
Ho2 O1 1_555 1_555
O1 C8 1_555 1_555
O2 Ho2 1_555 1_555
O3 Ho2 1_555 1_555
O8 C10 1_555 1_555
O9 C10 1_555 1_555
O11 Ho2 1_555 1_555
C8 O2 1_555 1_555
C9 O3 1_555 1_555
C10 C11 1_555 1_555
C11 H9 1_555 1_555
H10 C11 1_555 1_555
C12 C8 1_555 1_555
H11 C12 1_555 1_555
H12 C12 1_555 1_555
Ho3 O8 1_555 1_555
Ho6 O9 1_555 1_555
O16 Ho2 1_555 1_555
O19 Ho2 1_555 1_555
O21 Ho2 1_555 1_555
Ho2 O6 1_555 1_555
O9 Ho3 1_555 1_555
O14 C9 1_555 1_555
C11 C12 1_555 1_555
O11 H13 1_555 1_555
O11 H14 1_555 1_555
O10 H15 1_555 1_555
O10 H16 1_555 1_555
O13 C1 1_555 1_555
C1 C2 1_555 1_555
C2 H1 1_555 1_555
H2 C2 1_555 1_555
C3 C2 1_555 1_555
H3 C3 1_555 1_555
O15 Ho1 1_555 1_555
O17 Ho1 1_555 1_555
O19 Ho1 1_555 1_555
O21 Ho1 1_555 1_555
O22 C1_2 1_555 1_555
C1_2 C2_2 1_555 1_555
C2_2 H1_2 1_555 1_555
H2_2 C2_2 1_555 1_555
C3_2 C2_2 1_555 1_555
H3_2 C3_2 1_555 1_555
Ho6 O1_2 1_555 1_555
O1_2 C8_2 1_555 1_555
O2_2 Ho6 1_555 1_555
O3_2 Ho6 1_555 1_555
O17 C10_2 1_555 1_555
O19 C10_2 1_555 1_555
O11_2 Ho6 1_555 1_555
C8_2 O2_2 1_555 1_555
C9_2 O3_2 1_555 1_555
C10_2 C11_2 1_555 1_555
C11_2 H9_2 1_555 1_555
H10_2 C11_2 1_555 1_555
C12_2 C8_2 1_555 1_555
H11_2 C12_2 1_555 1_555
H12_2 C12_2 1_555 1_555
Ho6 O6_2 1_555 1_555
O14_2 C9_2 1_555 1_555
C11_2 C12_2 1_555 1_555
O11_2 H13_2 1_555 1_555
O11_2 H14_2 1_555 1_555
O10_2 H15_2 1_555 1_555
O10_2 H16_2 1_555 1_555
O15 C4_2 1_555 1_555
O16 C4_2 1_555 1_555
C4_2 C6_2 1_555 1_555
C5_2 H5_2 1_555 1_555
H6_2 C5_2 1_555 1_555
C6_2 C5_2 1_555 1_555
H7_2 C6_2 1_555 1_555
H8_2 C6_2 1_555 1_555
C5_2 C7_2 1_555 1_555

#END
