
###############################################################################
#
# This file contains modified crystal structure data generated from the
# MOF subset of the Cambridge Structural Database (CSD) v543 
# hosted by the Cambridge Crystallographic Data Centre (CCDC).
#
# This work is licensed under the Creative Commons
# Attribution-NonCommercial-ShareAlike 4.0 International License.
# To view a copy of this license, visit
# http://creativecommons.org/licenses/by-nc-sa/4.0/
# or send a letter to
# Creative Commons, PO Box 1866, Mountain View, CA 94042, USA.
#
# CIF created using the CSD Python API on 29 September 2022
# The structure has been converted into the P1 space group
# The structure has a 3D framework
# The original CSD entry IXAJUN is in the monoclinic crystal system
# The framework has been calculated to contain at least 10.0% void space
# The void calculation uses a probe of radius 1.32A, grid spacing 0.4
#
###############################################################################

data_IXAJUN
_chemical_formula_moiety         '(C52 H28 Cu4 N4 O10)n'
_symmetry_cell_setting           triclinic
_symmetry_space_group_name_H-M   'P 1'
_symmetry_Int_Tables_number      1
_space_group_name_Hall           'P 1'
loop_
_symmetry_equiv_pos_site_id
_symmetry_equiv_pos_as_xyz
1 x,y,z
_cell_length_a                   11.9132(10)
_cell_length_b                   13.5460(11)
_cell_length_c                   13.6700(15)
_cell_angle_alpha                90
_cell_angle_beta                 113.959(11)
_cell_angle_gamma                90
_cell_volume                     2015.93
loop_
_atom_site_label
_atom_site_type_symbol
_atom_site_fract_x
_atom_site_fract_y
_atom_site_fract_z
Cu4 Cu 0.10081(11) 0.94328(11) 0.04039(11)
O2 O 0.0215(5) 0.6282(5) 0.6250(6)
O3 O 0.0124(5) 0.8557(5) 0.9155(6)
Cu3 Cu 0.10081(11) 0.55672(11) 0.54039(11)
Cu5 Cu 0.89919(11) 0.05672(11) 0.95961(11)
C1 C 0.3734(11) 0.5502(11) 0.6181(12)
H1 H 0.3522 0.4823 0.6140
C2 C 0.4918(11) 0.5763(11) 0.6453(14)
H2 H 0.5526 0.5261 0.6632
C3 C 0.5274(10) 0.6758(9) 0.6477(11)
C4 C 0.4394(10) 0.7437(11) 0.6333(14)
H3 H 0.4564 0.8124 0.6359
C5 C 0.3178(11) 0.7072(13) 0.6135(14)
H4 H 0.2601 0.7552 0.6146
C6 C 0.6584(9) 0.7025(9) 0.6763(10)
C7 C 0.7251(9) 0.6465(9) 0.6312(9)
H5 H 0.6840 0.5960 0.5812
C8 C 0.8494(8) 0.6631(9) 0.6576(8)
C9 C 0.9071(8) 0.7369(7) 0.7322(8)
H6 H 0.9929 0.7468 0.7544
C10 C 0.8433(9) 0.7970(9) 0.7756(10)
C11 C 0.7165(9) 0.7784(9) 0.7427(10)
H7 H 0.6701 0.8205 0.7678
C12 C 0.9161(8) 0.6011(8) 0.6035(8)
C13 C 0.9073(8) 0.8760(9) 0.8564(9)
N1 N 0.2804(7) 0.6226(7) 0.5957(8)
O1 O 0.8559(6) 0.5310(5) 0.5565(6)
O4 O 0.8445(6) 0.9497(6) 0.8507(6)
Cu2 Cu 0.89919(11) 0.44328(11) 0.45961(11)
O5 O 0.1441(6) 0.4690(5) 0.4435(6)
O7 O 0.0124(5) 0.6443(5) 0.4155(6)
O8 O 0.1555(6) 0.4497(6) 0.6493(6)
O7_2 O 0.9876(5) 0.1443(5) 0.0845(6)
C1_2 C 0.6266(11) 0.0502(11) 0.8819(12)
C2_2 C 0.5082(11) 0.0763(11) 0.8547(14)
H2_2 H 0.4474 0.0261 0.8368
C3_2 C 0.4726(10) 0.1758(9) 0.8523(11)
C4_2 C 0.5606(10) 0.2437(11) 0.8667(14)
H3_2 H 0.5436 0.3124 0.8641
C5_2 C 0.6822(11) 0.2072(13) 0.8865(14)
H4_2 H 0.7399 0.2552 0.8854
C6_2 C 0.3416(9) 0.2025(9) 0.8237(10)
C7_2 C 0.2749(9) 0.1465(9) 0.8688(9)
H5_2 H 0.3160 0.0960 0.9188
C8_2 C 0.1506(8) 0.1631(9) 0.8424(8)
C9_2 C 0.0929(8) 0.2369(7) 0.7678(8)
H6_2 H 0.0071 0.2468 0.7456
C10_2 C 0.1567(9) 0.2970(9) 0.7244(10)
C11_2 C 0.2835(9) 0.2784(9) 0.7573(10)
H7_2 H 0.3299 0.3205 0.7322
C12_2 C 0.0839(8) 0.1011(8) 0.8965(8)
C13_2 C 0.0927(8) 0.3760(9) 0.6436(9)
N1_2 N 0.7196(7) 0.1226(7) 0.9043(8)
O1_2 O 0.1441(6) 0.0310(5) 0.9435(6)
O6 O 0.9785(5) 0.1282(5) 0.8750(6)
O5_2 O 0.8559(6) 0.9690(5) 0.0565(6)
H1_2 H 0.6478 0.9823 0.8860
O3_2 O 0.9876(5) 0.3557(5) 0.5845(6)
C1_3 C 0.6266(11) 0.4498(11) 0.3819(12)
H1_3 H 0.6478 0.5177 0.3860
C2_3 C 0.5082(11) 0.4237(11) 0.3547(14)
H2_3 H 0.4474 0.4739 0.3368
C3_3 C 0.4726(10) 0.3242(9) 0.3523(11)
C4_3 C 0.5606(10) 0.2563(11) 0.3667(14)
H3_3 H 0.5436 0.1876 0.3641
C5_3 C 0.6822(11) 0.2928(13) 0.3865(14)
H4_3 H 0.7399 0.2448 0.3854
C6_3 C 0.3416(9) 0.2975(9) 0.3237(10)
C7_3 C 0.2749(9) 0.3535(9) 0.3688(9)
H5_3 H 0.3160 0.4040 0.4188
C8_3 C 0.1506(8) 0.3369(9) 0.3424(8)
C9_3 C 0.0929(8) 0.2631(7) 0.2678(8)
H6_3 H 0.0071 0.2532 0.2456
C10_3 C 0.1567(9) 0.2030(9) 0.2244(10)
C11_3 C 0.2835(9) 0.2216(9) 0.2573(10)
H7_3 H 0.3299 0.1795 0.2322
C12_3 C 0.0839(8) 0.3989(8) 0.3965(8)
C13_3 C 0.0927(8) 0.1240(9) 0.1436(9)
N1_3 N 0.7196(7) 0.3774(7) 0.4043(8)
O4_2 O 0.1555(6) 0.0503(6) 0.1493(6)
O6_2 O 0.9785(5) 0.3718(5) 0.3750(6)
O8_2 O 0.8445(6) 0.5503(6) 0.3507(6)
O2_2 O 0.0215(5) 0.8718(5) 0.1250(6)
H1_4 H 0.3522 0.0177 0.1140
C1_4 C 0.3734(11) 0.9498(11) 0.1181(12)
C2_4 C 0.4918(11) 0.9237(11) 0.1453(14)
H2_4 H 0.5526 0.9739 0.1632
C3_4 C 0.5274(10) 0.8242(9) 0.1477(11)
C4_4 C 0.4394(10) 0.7563(11) 0.1333(14)
H3_4 H 0.4564 0.6876 0.1359
C5_4 C 0.3178(11) 0.7928(13) 0.1135(14)
H4_4 H 0.2601 0.7448 0.1146
C6_4 C 0.6584(9) 0.7975(9) 0.1763(10)
C7_4 C 0.7251(9) 0.8535(9) 0.1312(9)
H5_4 H 0.6840 0.9040 0.0812
C8_4 C 0.8494(8) 0.8369(9) 0.1576(8)
C9_4 C 0.9071(8) 0.7631(7) 0.2322(8)
H6_4 H 0.9929 0.7532 0.2544
C10_4 C 0.8433(9) 0.7030(9) 0.2756(10)
C11_4 C 0.7165(9) 0.7216(9) 0.2427(10)
H7_4 H 0.6701 0.6795 0.2678
C12_4 C 0.9161(8) 0.8989(8) 0.1035(8)
C13_4 C 0.9073(8) 0.6240(9) 0.3564(9)
N1_4 N 0.2804(7) 0.8774(7) 0.0957(8)
loop_
_geom_bond_atom_site_label_1
_geom_bond_atom_site_label_2
_geom_bond_site_symmetry_1
_geom_bond_site_symmetry_2
Cu3 O2 1_555 1_555
Cu3 N1 1_555 1_555
C1 H1 1_555 1_555
C2 C1 1_555 1_555
H2 C2 1_555 1_555
C3 C2 1_555 1_555
C4 C3 1_555 1_555
H3 C4 1_555 1_555
C5 C4 1_555 1_555
H4 C5 1_555 1_555
C6 C3 1_555 1_555
C7 C6 1_555 1_555
H5 C7 1_555 1_555
C8 C7 1_555 1_555
C9 C8 1_555 1_555
H6 C9 1_555 1_555
C10 C9 1_555 1_555
C11 C6 1_555 1_555
H7 C11 1_555 1_555
C12 C8 1_555 1_555
C13 C10 1_555 1_555
N1 C1 1_555 1_555
O1 C12 1_555 1_555
O4 C13 1_555 1_555
Cu2 O1 1_555 1_555
O5 Cu3 1_555 1_555
O7 Cu3 1_555 1_555
O8 Cu3 1_555 1_555
C5 N1 1_555 1_555
C10 C11 1_555 1_555
Cu5 N1_2 1_555 1_555
C2_2 C1_2 1_555 1_555
H2_2 C2_2 1_555 1_555
C3_2 C2_2 1_555 1_555
C4_2 C3_2 1_555 1_555
H3_2 C4_2 1_555 1_555
C5_2 C4_2 1_555 1_555
H4_2 C5_2 1_555 1_555
C6_2 C3_2 1_555 1_555
C7_2 C6_2 1_555 1_555
H5_2 C7_2 1_555 1_555
C8_2 C7_2 1_555 1_555
C9_2 C8_2 1_555 1_555
H6_2 C9_2 1_555 1_555
C10_2 C9_2 1_555 1_555
C11_2 C6_2 1_555 1_555
H7_2 C11_2 1_555 1_555
C12_2 C8_2 1_555 1_555
C13_2 C10_2 1_555 1_555
N1_2 C1_2 1_555 1_555
O1_2 C12_2 1_555 1_555
O8 C13_2 1_555 1_555
O6 Cu5 1_555 1_555
C5_2 N1_2 1_555 1_555
C10_2 C11_2 1_555 1_555
Cu2 O3_2 1_555 1_555
Cu2 N1_3 1_555 1_555
C1_3 H1_3 1_555 1_555
C2_3 C1_3 1_555 1_555
H2_3 C2_3 1_555 1_555
C3_3 C2_3 1_555 1_555
C4_3 C3_3 1_555 1_555
H3_3 C4_3 1_555 1_555
C5_3 C4_3 1_555 1_555
H4_3 C5_3 1_555 1_555
C6_3 C3_3 1_555 1_555
C7_3 C6_3 1_555 1_555
H5_3 C7_3 1_555 1_555
C8_3 C7_3 1_555 1_555
C9_3 C8_3 1_555 1_555
H6_3 C9_3 1_555 1_555
C10_3 C9_3 1_555 1_555
C11_3 C6_3 1_555 1_555
H7_3 C11_3 1_555 1_555
C12_3 C8_3 1_555 1_555
C13_3 C10_3 1_555 1_555
N1_3 C1_3 1_555 1_555
O5 C12_3 1_555 1_555
O4_2 C13_3 1_555 1_555
O6_2 Cu2 1_555 1_555
O8_2 Cu2 1_555 1_555
C5_3 N1_3 1_555 1_555
C10_3 C11_3 1_555 1_555
Cu4 O2_2 1_555 1_555
Cu4 N1_4 1_555 1_555
C2_4 C1_4 1_555 1_555
H2_4 C2_4 1_555 1_555
C3_4 C2_4 1_555 1_555
C4_4 C3_4 1_555 1_555
H3_4 C4_4 1_555 1_555
C5_4 C4_4 1_555 1_555
H4_4 C5_4 1_555 1_555
C6_4 C3_4 1_555 1_555
C7_4 C6_4 1_555 1_555
H5_4 C7_4 1_555 1_555
C8_4 C7_4 1_555 1_555
C9_4 C8_4 1_555 1_555
H6_4 C9_4 1_555 1_555
C10_4 C9_4 1_555 1_555
C11_4 C6_4 1_555 1_555
H7_4 C11_4 1_555 1_555
C12_4 C8_4 1_555 1_555
C13_4 C10_4 1_555 1_555
N1_4 C1_4 1_555 1_555
O5_2 C12_4 1_555 1_555
O8_2 C13_4 1_555 1_555
C5_4 N1_4 1_555 1_555
C10_4 C11_4 1_555 1_555

#END
