
###############################################################################
#
# This file contains modified crystal structure data generated from the
# MOF subset of the Cambridge Structural Database (CSD) v543 
# hosted by the Cambridge Crystallographic Data Centre (CCDC).
#
# This work is licensed under the Creative Commons
# Attribution-NonCommercial-ShareAlike 4.0 International License.
# To view a copy of this license, visit
# http://creativecommons.org/licenses/by-nc-sa/4.0/
# or send a letter to
# Creative Commons, PO Box 1866, Mountain View, CA 94042, USA.
#
# CIF created using the CSD Python API on 29 September 2022
# The structure has been converted into the P1 space group
# The structure has a 3D framework
# The original CSD entry IXASOS is in the tetragonal crystal system
# The original CSD entry IXASOS is in a Sohncke space group
# The framework has been calculated to contain at least 10.0% void space
# The void calculation uses a probe of radius 1.32A, grid spacing 0.4
#
###############################################################################

data_IXASOS
_chemical_formula_moiety         '(C980 H672 O259 Zr62)n'
_symmetry_cell_setting           triclinic
_symmetry_space_group_name_H-M   'P 1'
_symmetry_Int_Tables_number      1
_space_group_name_Hall           'P 1'
loop_
_symmetry_equiv_pos_site_id
_symmetry_equiv_pos_as_xyz
1 x,y,z
_cell_length_a                   42.697(6)
_cell_length_b                   42.697(6)
_cell_length_c                   37.907(8)
_cell_angle_alpha                90
_cell_angle_beta                 90
_cell_angle_gamma                90
_cell_volume                     69105.7
loop_
_atom_site_label
_atom_site_type_symbol
_atom_site_fract_x
_atom_site_fract_y
_atom_site_fract_z
O29 O 0.01623(8) 0.53570(9) 0.01678(13)
O32 O 0.05813(9) 0.48809(10) 0.01655(16)
Zr19 Zr -0.000000 0.500000 0.04843(5)
O49 O 0.08216(15) 0.52748(16) 0.0317(2)
Zr6 Zr 0.05135(2) 0.52175(2) 0.98269(3)
O28 O 0.01846(13) 0.54003(12) 0.94493(16)
O30 O 0.03189(10) 0.48602(10) 0.95526(15)
Zr7 Zr -0.000000 0.500000 0.91560(5)
Zr12 Zr 0.02086(2) 0.44435(2) 0.98248(3)
O39 O 0.00814(16) 0.59534(14) 0.9777(2)
O42 O 0.09055(12) 0.48996(15) 0.98384(19)
O45 O 0.06211(15) 0.57590(13) 0.97564(19)
Zr9 Zr 0.05565(2) 0.02086(2) 0.73248(3)
Zr18 Zr 0.500000 -0.000000 0.95157(5)
Zr20 Zr 0.500000 -0.000000 0.54843(5)
C48 C 0.6981(5) 0.6981(5) 0.000000
C50 C 0.7257(5) 0.6993(5) 0.0261(5)
H27 H 0.733953 0.720356 0.028180
H28 H 0.719386 0.691989 0.049298
C51 C 0.7492(6) 0.6779(5) 0.0103(7)
H31 H 0.762215 0.669151 0.028814
O18 O 0.58224(19) 0.53418(18) 0.1852(2)
O19 O 0.55033(19) 0.52541(18) 0.1373(2)
O20 O 0.51004(15) 0.90945(12) 0.01616(19)
C63 C 0.5399(2) 0.9059(2) 0.0201(3)
C64 C 0.53805(14) 0.81532(15) 0.0229(2)
H43 H 0.524506 0.798288 0.024017
C65 C 0.52610(15) 0.84550(18) 0.0201(2)
H44 H 0.504557 0.848653 0.019258
C66 C 0.54634(19) 0.87095(14) 0.0185(2)
C67 C 0.57853(18) 0.86624(13) 0.0197(2)
H45 H 0.592070 0.883271 0.018641
C68 C 0.59048(14) 0.83606(14) 0.02257(15)
C69 C 0.57024(14) 0.81060(12) 0.02418(15)
C70 C 0.5822(2) 0.78043(13) 0.0270(2)
H46 H 0.568650 0.763396 0.028110
C71 C 0.6144(2) 0.77571(19) 0.0283(3)
C72 C 0.63463(15) 0.8012(2) 0.0267(2)
H47 H 0.656164 0.798012 0.027493
C73 C 0.62267(13) 0.8313(2) 0.0238(2)
H48 H 0.636216 0.848376 0.022733
O21 O 0.55844(16) 0.93118(15) 0.0119(2)
O22 O 0.6705(5) 0.6572(4) 0.0460(7)
H49 H 0.686257 0.663820 0.055896
C74 C 0.6516(3) 0.7339(4) 0.0100(4)
C75 C 0.6249(3) 0.7430(3) 0.0284(4)
C76 C 0.6106(3) 0.7222(3) 0.0516(4)
H50 H 0.592767 0.728314 0.063950
C77 C 0.6229(3) 0.6924(3) 0.0564(4)
C78 C 0.6496(4) 0.6833(3) 0.0380(5)
C79 C 0.6639(3) 0.7041(4) 0.0148(5)
C80 C 0.5680(3) 0.5416(3) 0.1573(3)
H54 H 0.689704 0.762665 0.005487
C83 C 0.5699(3) 0.5831(3) 0.1088(4)
H55 H 0.560342 0.568986 0.093482
C84 C 0.5734(3) 0.5755(3) 0.1442(4)
C85 C 0.5877(4) 0.5966(4) 0.1671(3)
H56 H 0.590046 0.591483 0.190825
C86 C 0.5985(4) 0.6252(3) 0.1546(3)
H57 H 0.608011 0.639266 0.169860
C87 C 0.5949(2) 0.6328(3) 0.1191(3)
C88 C 0.5807(2) 0.6117(3) 0.0962(3)
C89 C 0.5771(4) 0.6193(3) 0.0608(3)
H58 H 0.567589 0.605188 0.045480
C90 C 0.5879(4) 0.6479(4) 0.0482(4)
H59 H 0.585555 0.652971 0.024513
C91 C 0.6022(3) 0.6690(3) 0.0711(4)
C92 C 0.6057(3) 0.6614(3) 0.1065(4)
H60 H 0.615259 0.675470 0.121855
O31 O 0.96470(11) 0.58193(10) 0.02741(17)
H79 H 0.943488 0.584518 0.032189
H80 H 0.979598 0.590810 0.042251
Zr8 Zr 0.500000 0.500000 0.16560(5)
Zr11 Zr 0.55565(2) 0.97914(2) 0.01752(3)
Zr13 Zr 0.55565(2) 0.52086(2) 0.23248(3)
Zr14 Zr 0.47825(2) 0.94865(2) 0.01731(3)
Zr19_2 Zr 1.000000 0.500000 0.04843(5)
Zr1 Zr 0.500000 0.500000 0.83440(5)
Zr2 Zr 0.52086(2) 0.55565(2) 0.76752(3)
O1 O 0.53418(18) 0.58224(19) 0.8148(2)
O2 O 0.52541(18) 0.55033(19) 0.8627(2)
Zr3 Zr 0.44865(2) 0.52175(2) 0.76731(3)
Zr4 Zr 0.500000 0.500000 0.70157(5)
O3 O 0.48154(13) 0.54003(12) 0.80507(16)
O4 O 0.48377(8) 0.53570(9) 0.73322(13)
O5 O 0.33804(14) 0.85384(10) 0.79613(16)
H1 H 0.332676 0.855176 0.816848
C1 C 0.30750(17) 0.77741(15) 0.7248(2)
H2 H 0.286749 0.770803 0.717508
H3 H 0.319606 0.782676 0.703949
O6 O 0.49186(16) 0.59534(14) 0.7723(2)
C2 C 0.32367(18) 0.75174(18) 0.7460(2)
H4 H 0.308981 0.740468 0.760791
H5 H 0.334545 0.737041 0.730769
O7 O 0.46811(10) 0.48602(10) 0.79474(15)
C3 C 0.30554(17) 0.80554(17) 0.750000
C4 C 0.37407(12) 0.76257(9) 0.78445(16)
C5 C 0.39072(10) 0.78454(12) 0.80395(15)
H6 H 0.409233 0.778820 0.815148
C6 C 0.37969(11) 0.81508(11) 0.80671(15)
C7 C 0.35202(12) 0.82363(8) 0.78997(16)
C8 C 0.33537(10) 0.80166(11) 0.77047(15)
C9 C 0.34640(11) 0.77112(10) 0.76771(15)
C10 C 0.4605(3) 0.5962(3) 0.7736(3)
O8 O 0.90945(12) 0.51004(15) 0.98384(19)
C11 C 0.9059(2) 0.5399(2) 0.9799(3)
C12 C 0.81532(15) 0.53805(14) 0.9771(2)
H7 H 0.798288 0.524506 0.975983
C13 C 0.84550(18) 0.52610(15) 0.9799(2)
H8 H 0.848653 0.504557 0.980742
C14 C 0.87095(14) 0.54634(19) 0.9815(2)
C15 C 0.86624(13) 0.57853(18) 0.9803(2)
H9 H 0.883271 0.592070 0.981359
C16 C 0.83606(14) 0.59048(14) 0.97743(15)
C17 C 0.81060(12) 0.57024(14) 0.97582(15)
C18 C 0.78043(13) 0.5822(2) 0.9730(2)
H10 H 0.763396 0.568650 0.971890
C19 C 0.77571(19) 0.6144(2) 0.9717(3)
C20 C 0.8012(2) 0.63463(15) 0.9733(2)
H11 H 0.798012 0.656164 0.972507
C21 C 0.8313(2) 0.62267(13) 0.9762(2)
H12 H 0.848376 0.636216 0.977267
C22 C 0.41630(15) 0.63603(10) 0.77973(18)
H13 H 0.402269 0.619621 0.782946
C23 C 0.44769(15) 0.62977(13) 0.77307(19)
C24 C 0.46866(12) 0.65430(16) 0.76826(18)
H14 H 0.489668 0.650110 0.763798
C25 C 0.45824(11) 0.68510(15) 0.77011(18)
H15 H 0.472270 0.701513 0.766888
C26 C 0.42685(11) 0.69136(10) 0.77677(11)
C27 C 0.40588(11) 0.66683(10) 0.78158(12)
C28 C 0.37448(11) 0.67310(14) 0.78824(17)
H16 H 0.360451 0.656681 0.791460
C29 C 0.36406(12) 0.70389(15) 0.79009(16)
H17 H 0.343052 0.708083 0.794551
C30 C 0.38503(16) 0.72843(12) 0.78528(16)
C31 C 0.41642(15) 0.72216(10) 0.77862(17)
H18 H 0.430450 0.738575 0.775403
O9 O 0.93118(15) 0.55844(16) 0.9881(2)
O10 O 0.43789(15) 0.57590(13) 0.77436(19)
O11 O 0.6572(4) 0.6705(5) 0.9540(7)
H19 H 0.663820 0.686257 0.944104
C32 C 0.7339(4) 0.6516(3) 0.9900(4)
C33 C 0.7430(3) 0.6249(3) 0.9716(4)
C34 C 0.7222(3) 0.6106(3) 0.9484(4)
H20 H 0.728314 0.592767 0.936050
C35 C 0.6924(3) 0.6229(3) 0.9436(4)
C36 C 0.6833(3) 0.6496(4) 0.9620(5)
C37 C 0.7041(4) 0.6639(3) 0.9852(5)
C38 C 0.42303(15) 0.89041(15) 0.82970(17)
H21 H 0.428207 0.909272 0.818898
C39 C 0.40719(15) 0.86744(19) 0.81081(17)
H22 H 0.401774 0.870928 0.787371
C40 C 0.39944(13) 0.83925(16) 0.8269(2)
C41 C 0.40754(13) 0.83404(12) 0.8620(2)
H23 H 0.402357 0.815178 0.872773
C42 C 0.42338(10) 0.85701(11) 0.88086(17)
C43 C 0.43112(10) 0.88520(11) 0.86473(17)
C44 C 0.44696(13) 0.90817(12) 0.8836(2)
H24 H 0.452138 0.927031 0.872814
C45 C 0.45505(13) 0.90296(17) 0.9186(2)
C46 C 0.44731(14) 0.87477(19) 0.93478(17)
H25 H 0.452722 0.871283 0.958218
C47 C 0.43147(14) 0.85180(15) 0.91589(17)
H26 H 0.426289 0.832938 0.926692
C48_2 C 0.6981(5) 0.6981(5) 1.000000
C49 C 0.5416(3) 0.5680(3) 0.8427(3)
O12 O 0.48587(18) 0.46421(18) 0.6665(2)
H29 H 0.464744 0.461371 0.661435
H30 H 0.500789 0.451314 0.656040
H32 H 0.762665 0.689704 0.994513
O13 O 0.53530(11) 0.58193(10) 0.72259(17)
H33 H 0.556512 0.584518 0.717811
H34 H 0.520402 0.590810 0.707749
O14 O 0.47732(14) 0.95682(19) 0.9238(2)
C52 C 0.4701(3) 0.9295(3) 0.9395(4)
O15 O 0.47252(16) 0.91784(15) 0.9683(2)
O16 O 0.44187(9) 0.48809(10) 0.73345(16)
C53 C 0.5831(3) 0.5699(3) 0.8912(4)
H35 H 0.568986 0.560342 0.906518
C54 C 0.5755(3) 0.5734(3) 0.8558(4)
C55 C 0.5966(4) 0.5877(4) 0.8329(3)
H36 H 0.591483 0.590046 0.809175
C56 C 0.6252(3) 0.5985(4) 0.8454(3)
H37 H 0.639266 0.608011 0.830140
C57 C 0.6328(3) 0.5949(2) 0.8809(3)
C58 C 0.6117(3) 0.5807(2) 0.9038(3)
C59 C 0.6193(3) 0.5771(4) 0.9392(3)
H38 H 0.605188 0.567589 0.954520
C60 C 0.6479(4) 0.5879(4) 0.9518(4)
H39 H 0.652971 0.585555 0.975487
C61 C 0.6690(3) 0.6022(3) 0.9289(4)
C62 C 0.6614(3) 0.6057(3) 0.8935(4)
H40 H 0.675470 0.615259 0.878145
O17 O 0.4545(2) 0.51602(19) 0.8626(3)
H41 H 0.444980 0.534799 0.856255
H42 H 0.445717 0.503652 0.880219
C81 C 0.6993(5) 0.7257(5) 0.9739(5)
H51 H 0.720356 0.733953 0.971820
H52 H 0.691989 0.719386 0.950702
C82 C 0.6779(5) 0.7492(6) 0.9897(7)
H53 H 0.669151 0.762215 0.971186
O23 O 0.35384(10) 0.83804(14) 0.70387(16)
H61 H 0.355176 0.832676 0.683152
C93 C 0.27741(15) 0.80750(17) 0.7752(2)
H62 H 0.270803 0.786749 0.782492
H63 H 0.282676 0.819606 0.796051
O24 O 0.09534(14) 0.99186(16) 0.7277(2)
C94 C 0.25174(18) 0.82367(18) 0.7540(2)
H64 H 0.240468 0.808981 0.739209
H65 H 0.237041 0.834545 0.769231
C95 C 0.26257(9) 0.87407(12) 0.71555(16)
C96 C 0.28454(12) 0.89072(10) 0.69605(15)
H66 H 0.278820 0.909233 0.684852
C97 C 0.31508(11) 0.87969(11) 0.69329(15)
C98 C 0.32363(8) 0.85202(12) 0.71003(16)
C99 C 0.30166(11) 0.83537(10) 0.72953(15)
C100 C 0.27112(10) 0.84640(11) 0.73229(15)
C101 C 0.0962(3) 0.9605(3) 0.7264(3)
C102 C 0.13603(10) 0.91630(15) 0.72027(18)
H67 H 0.119621 0.902269 0.717054
C103 C 0.12977(13) 0.94769(15) 0.72693(19)
C104 C 0.15430(16) 0.96866(12) 0.73174(18)
H68 H 0.150110 0.989668 0.736202
C105 C 0.18510(15) 0.95824(11) 0.72989(18)
H69 H 0.201513 0.972270 0.733112
C106 C 0.19136(10) 0.92685(11) 0.72323(11)
C107 C 0.16683(10) 0.90588(11) 0.71842(12)
C108 C 0.17310(14) 0.87448(11) 0.71176(17)
H70 H 0.156681 0.860451 0.708540
C109 C 0.20389(15) 0.86406(12) 0.70991(16)
H71 H 0.208083 0.843052 0.705449
C110 C 0.22843(12) 0.88503(16) 0.71472(16)
C111 C 0.22216(10) 0.91642(15) 0.72138(17)
H72 H 0.238575 0.930450 0.724597
O25 O 0.07590(13) 0.93789(15) 0.72564(19)
C112 C 0.39041(15) 0.92303(15) 0.67030(17)
H73 H 0.409272 0.928207 0.681102
C113 C 0.36744(19) 0.90719(15) 0.68919(17)
H74 H 0.370928 0.901774 0.712629
C114 C 0.33925(16) 0.89944(13) 0.6731(2)
C115 C 0.33404(12) 0.90754(13) 0.6380(2)
H75 H 0.315178 0.902357 0.627227
C116 C 0.35701(11) 0.92338(10) 0.61914(17)
C117 C 0.38520(11) 0.93112(10) 0.63527(17)
C118 C 0.40817(12) 0.94696(13) 0.6164(2)
H76 H 0.427031 0.952138 0.627186
C119 C 0.40296(17) 0.95505(13) 0.5814(2)
C120 C 0.37477(19) 0.94731(14) 0.56522(17)
H77 H 0.371283 0.952722 0.541782
C121 C 0.35180(15) 0.93147(14) 0.58411(17)
H78 H 0.332938 0.926289 0.573308
O26 O 0.45682(19) 0.97732(14) 0.5762(2)
C122 C 0.4295(3) 0.9701(3) 0.5605(4)
O27 O 0.41784(15) 0.97252(16) 0.5317(2)
Zr5 Zr 0.97914(2) 0.55565(2) 0.98248(3)
O33 O 0.51413(18) 0.53579(18) 0.6665(2)
H81 H 0.535256 0.538629 0.661435
H82 H 0.499211 0.548686 0.656040
O34 O 0.5455(2) 0.48398(19) 0.8626(3)
H83 H 0.555020 0.465201 0.856255
H84 H 0.554283 0.496348 0.880219
Zr7_2 Zr 1.000000 0.500000 0.91560(5)
Zr10 Zr 0.47914(2) 0.44435(2) 0.76752(3)
O35 O 0.96582(18) 0.58224(19) 0.9352(2)
O36 O 0.47459(18) 0.44967(19) 0.8627(2)
Zr15 Zr 0.44865(2) 0.97825(2) 0.48269(3)
Zr16 Zr 0.02175(2) 0.94865(2) 0.73269(3)
Zr17 Zr 0.94865(2) 0.47825(2) 0.98269(3)
Zr18_2 Zr 0.500000 1.000000 0.95157(5)
Zr20_2 Zr 0.500000 1.000000 0.54843(5)
O37 O 0.51846(13) 0.45997(12) 0.80507(16)
O38 O 0.51623(8) 0.46430(9) 0.73322(13)
O40 O 0.53189(10) 0.51398(10) 0.79474(15)
O41 O 0.96811(10) 0.51398(10) 0.95526(15)
O43 O 0.40945(12) 0.48996(15) 0.76616(19)
O44 O 0.56882(15) 0.55844(16) 0.7619(2)
O46 O 0.45682(19) 0.52268(14) 0.6738(2)
O47 O 0.54318(19) 0.47732(14) 0.6738(2)
O48 O 0.41784(15) 0.52748(16) 0.7183(2)
Zr1_2 Zr 0.000000 0.000000 0.33440(5)
Zr4_2 Zr 0.000000 0.000000 0.20157(5)
O7_2 O 0.03189(10) 0.01398(10) 0.29474(15)
O12_2 O 0.01413(18) 0.03579(18) 0.1665(2)
H29_2 H 0.035256 0.038629 0.161435
O16_2 O 0.05813(9) 0.01191(10) 0.23345(16)
Zr8_2 Zr 0.000000 0.000000 0.66560(5)
Zr10_2 Zr 0.02086(2) 0.05565(2) 0.26752(3)
O36_2 O 0.02541(18) 0.05033(19) 0.3627(2)
O43_2 O 0.09055(12) 0.01004(15) 0.26616(19)
Zr1_3 Zr 0.000000 1.000000 0.33440(5)
Zr3_2 Zr 0.05135(2) 0.97825(2) 0.26731(3)
Zr4_3 Zr 0.000000 1.000000 0.20157(5)
O3_2 O 0.01846(13) 0.95997(12) 0.30507(16)
O4_2 O 0.01623(8) 0.96430(9) 0.23322(13)
O5_2 O 0.16196(14) 0.64616(10) 0.29613(16)
H1_2 H 0.167324 0.644824 0.316848
C1_2 C 0.19250(17) 0.72259(15) 0.2248(2)
H2_2 H 0.213251 0.729197 0.217508
H3_2 H 0.180394 0.717324 0.203949
O6_2 O 0.00814(16) 0.90466(14) 0.2723(2)
C2_2 C 0.17633(18) 0.74826(18) 0.2460(2)
H4_2 H 0.191019 0.759532 0.260791
H5_2 H 0.165455 0.762959 0.230769
C3_2 C 0.19446(17) 0.69446(17) 0.250000
C4_2 C 0.12593(12) 0.73743(9) 0.28445(16)
C5_2 C 0.10928(10) 0.71546(12) 0.30395(15)
H6_2 H 0.090767 0.721180 0.315148
C6_2 C 0.12031(11) 0.68492(11) 0.30671(15)
C7_2 C 0.14798(12) 0.67637(8) 0.28997(16)
C8_2 C 0.16463(10) 0.69834(11) 0.27047(15)
C9_2 C 0.15360(11) 0.72888(10) 0.26771(15)
C10_2 C 0.0395(3) 0.9038(3) 0.2736(3)
C22_2 C 0.08370(15) 0.86397(10) 0.27973(18)
H13_2 H 0.097731 0.880379 0.282946
C23_2 C 0.05231(15) 0.87023(13) 0.27307(19)
C24_2 C 0.03134(12) 0.84570(16) 0.26826(18)
H14_2 H 0.010332 0.849890 0.263798
C25_2 C 0.04176(11) 0.81490(15) 0.27011(18)
H15_2 H 0.027730 0.798487 0.266888
C26_2 C 0.07315(11) 0.80864(10) 0.27677(11)
C27_2 C 0.09412(11) 0.83317(10) 0.28158(12)
C28_2 C 0.12552(11) 0.82690(14) 0.28824(17)
H16_2 H 0.139549 0.843319 0.291460
C29_2 C 0.13594(12) 0.79611(15) 0.29009(16)
H17_2 H 0.156948 0.791917 0.294551
C30_2 C 0.11497(16) 0.77157(12) 0.28528(16)
C31_2 C 0.08358(15) 0.77784(10) 0.27862(17)
H18_2 H 0.069550 0.761425 0.275403
O10_2 O 0.06211(15) 0.92410(13) 0.27436(19)
C38_2 C 0.07697(15) 0.60959(15) 0.32970(17)
H21_2 H 0.071793 0.590728 0.318898
C39_2 C 0.09281(15) 0.63256(19) 0.31081(17)
H22_2 H 0.098226 0.629072 0.287371
C40_2 C 0.10056(13) 0.66075(16) 0.3269(2)
C41_2 C 0.09246(13) 0.66596(12) 0.3620(2)
H23_2 H 0.097643 0.684822 0.372773
C42_2 C 0.07662(10) 0.64299(11) 0.38086(17)
C43_2 C 0.06888(10) 0.61480(11) 0.36473(17)
C44_2 C 0.05304(13) 0.59183(12) 0.3836(2)
H24_2 H 0.047862 0.572969 0.372814
C45_2 C 0.04495(13) 0.59704(17) 0.4186(2)
C46_2 C 0.05269(14) 0.62523(19) 0.43478(17)
H25_2 H 0.047278 0.628717 0.458218
C47_2 C 0.06853(14) 0.64820(15) 0.41589(17)
H26_2 H 0.073711 0.667062 0.426692
O14_2 O 0.02268(14) 0.54318(19) 0.4238(2)
C52_2 C 0.0299(3) 0.5705(3) 0.4395(4)
O15_2 O 0.02748(16) 0.58216(15) 0.4683(2)
O17_2 O 0.0455(2) 0.98398(19) 0.3626(3)
H41_2 H 0.055020 0.965201 0.356255
H42_2 H 0.054283 0.996348 0.380219
O23_2 O 0.14616(10) 0.66196(14) 0.20387(16)
H61_2 H 0.144824 0.667324 0.183152
C93_2 C 0.22259(15) 0.69250(17) 0.2752(2)
H62_2 H 0.229197 0.713251 0.282492
H63_2 H 0.217324 0.680394 0.296051
O24_2 O 0.40466(14) 0.50814(16) 0.2277(2)
C94_2 C 0.24826(18) 0.67633(18) 0.2540(2)
H64_2 H 0.259532 0.691019 0.239209
H65_2 H 0.262959 0.665455 0.269231
C95_2 C 0.23743(9) 0.62593(12) 0.21555(16)
C96_2 C 0.21546(12) 0.60928(10) 0.19605(15)
H66_2 H 0.221180 0.590767 0.184852
C97_2 C 0.18492(11) 0.62031(11) 0.19329(15)
C98_2 C 0.17637(8) 0.64798(12) 0.21003(16)
C99_2 C 0.19834(11) 0.66463(10) 0.22953(15)
C100_2 C 0.22888(10) 0.65360(11) 0.23229(15)
C101_2 C 0.4038(3) 0.5395(3) 0.2264(3)
C102_2 C 0.36397(10) 0.58370(15) 0.22027(18)
H67_2 H 0.380379 0.597731 0.217054
C103_2 C 0.37023(13) 0.55231(15) 0.22693(19)
C104_2 C 0.34570(16) 0.53134(12) 0.23174(18)
H68_2 H 0.349890 0.510332 0.236202
C105_2 C 0.31490(15) 0.54176(11) 0.22989(18)
H69_2 H 0.298487 0.527730 0.233112
C106_2 C 0.30864(10) 0.57315(11) 0.22323(11)
C107_2 C 0.33317(10) 0.59412(11) 0.21842(12)
C108_2 C 0.32690(14) 0.62552(11) 0.21176(17)
H70_2 H 0.343319 0.639549 0.208540
C109_2 C 0.29611(15) 0.63594(12) 0.20991(16)
H71_2 H 0.291917 0.656948 0.205449
C110_2 C 0.27157(12) 0.61497(16) 0.21472(16)
C111_2 C 0.27784(10) 0.58358(15) 0.22138(17)
H72_2 H 0.261425 0.569550 0.224597
O25_2 O 0.42410(13) 0.56211(15) 0.22564(19)
C112_2 C 0.10959(15) 0.57697(15) 0.17030(17)
H73_2 H 0.090728 0.571793 0.181102
C113_2 C 0.13256(19) 0.59281(15) 0.18919(17)
H74_2 H 0.129072 0.598226 0.212629
C114_2 C 0.16075(16) 0.60056(13) 0.1731(2)
C115_2 C 0.16596(12) 0.59246(13) 0.1380(2)
H75_2 H 0.184822 0.597643 0.127227
C116_2 C 0.14299(11) 0.57662(10) 0.11914(17)
C117_2 C 0.11480(11) 0.56888(10) 0.13527(17)
C118_2 C 0.09183(12) 0.55304(13) 0.1164(2)
H76_2 H 0.072969 0.547862 0.127186
C119_2 C 0.09704(17) 0.54495(13) 0.0814(2)
C120_2 C 0.12523(19) 0.55269(14) 0.06522(17)
H77_2 H 0.128717 0.547278 0.041782
C121_2 C 0.14820(15) 0.56853(14) 0.08411(17)
H78_2 H 0.167062 0.573711 0.073308
O26_2 O 0.04318(19) 0.52268(14) 0.0762(2)
C122_2 C 0.0705(3) 0.5299(3) 0.0605(4)
H82_2 H 0.000789 0.951314 0.156040
Zr8_3 Zr 0.000000 1.000000 0.66560(5)
Zr9_2 Zr 0.44435(2) 0.47914(2) 0.23248(3)
Zr14_2 Zr 0.02175(2) 0.55135(2) 0.51731(3)
Zr16_2 Zr 0.47825(2) 0.55135(2) 0.23269(3)
Zr18_3 Zr 0.000000 0.500000 0.45157(5)
O46_2 O 0.04318(19) 0.97732(14) 0.1738(2)
O48_2 O 0.08216(15) 0.97252(16) 0.2183(2)
Zr1_4 Zr 1.000000 0.000000 0.33440(5)
Zr4_4 Zr 1.000000 0.000000 0.20157(5)
H30_2 H 0.999211 0.048686 0.156040
O30_2 O 0.46811(10) 0.01398(10) 0.45526(15)
O32_2 O 0.44187(9) 0.01191(10) 0.51655(16)
O34_2 O 0.9545(2) 0.01602(19) 0.3626(3)
H83_2 H 0.944980 0.034799 0.356255
H84_2 H 0.945717 0.003652 0.380219
Zr7_3 Zr 0.500000 0.000000 0.41560(5)
Zr8_4 Zr 1.000000 0.000000 0.66560(5)
Zr12_2 Zr 0.47914(2) 0.05565(2) 0.48248(3)
Zr17_2 Zr 0.55135(2) 0.02175(2) 0.48269(3)
O37_2 O 0.98154(13) 0.04003(12) 0.30507(16)
O38_2 O 0.98377(8) 0.03570(9) 0.23322(13)
O42_2 O 0.40945(12) 0.01004(15) 0.48384(19)
O47_2 O 0.95682(19) 0.02268(14) 0.1738(2)
Zr1_5 Zr 1.000000 1.000000 0.33440(5)
Zr2_2 Zr 0.97914(2) 0.94435(2) 0.26752(3)
O1_2 O 0.96582(18) 0.91776(19) 0.3148(2)
O2_2 O 0.97459(18) 0.94967(19) 0.3627(2)
Zr4_5 Zr 1.000000 1.000000 0.20157(5)
O8_2 O 0.59055(12) 0.98996(15) 0.48384(19)
C11_2 C 0.5941(2) 0.9601(2) 0.4799(3)
C12_2 C 0.68468(15) 0.96195(14) 0.4771(2)
H7_2 H 0.701712 0.975494 0.475983
C13_2 C 0.65450(18) 0.97390(15) 0.4799(2)
H8_2 H 0.651347 0.995443 0.480742
C14_2 C 0.62905(14) 0.95366(19) 0.4815(2)
C15_2 C 0.63376(13) 0.92147(18) 0.4803(2)
H9_2 H 0.616729 0.907930 0.481359
C16_2 C 0.66394(14) 0.90952(14) 0.47743(15)
C17_2 C 0.68940(12) 0.92976(14) 0.47582(15)
C18_2 C 0.71957(13) 0.9178(2) 0.4730(2)
H10_2 H 0.736604 0.931350 0.471890
C19_2 C 0.72429(19) 0.8856(2) 0.4717(3)
C20_2 C 0.6988(2) 0.86537(15) 0.4733(2)
H11_2 H 0.701988 0.843836 0.472507
C21_2 C 0.6687(2) 0.87733(13) 0.4762(2)
H12_2 H 0.651624 0.863784 0.477267
O9_2 O 0.56882(15) 0.94156(16) 0.4881(2)
O11_2 O 0.8428(4) 0.8295(5) 0.4540(7)
H19_2 H 0.836180 0.813743 0.444104
C32_2 C 0.7661(4) 0.8484(3) 0.4900(4)
C33_2 C 0.7570(3) 0.8751(3) 0.4716(4)
C34_2 C 0.7778(3) 0.8894(3) 0.4484(4)
H20_2 H 0.771686 0.907233 0.436050
C35_2 C 0.8076(3) 0.8771(3) 0.4436(4)
C36_2 C 0.8167(3) 0.8504(4) 0.4620(5)
C37_2 C 0.7959(4) 0.8361(3) 0.4852(5)
C48_3 C 0.8019(5) 0.8019(5) 0.500000
C49_2 C 0.9584(3) 0.9320(3) 0.3427(3)
C50_2 C 0.7743(5) 0.8007(5) 0.5261(5)
H27_2 H 0.766047 0.779644 0.528180
H28_2 H 0.780614 0.808011 0.549298
C51_2 C 0.7508(6) 0.8221(5) 0.5103(7)
H31_2 H 0.737785 0.830849 0.528814
H32_2 H 0.737335 0.810296 0.494513
O13_2 O 0.96470(11) 0.91807(10) 0.22259(17)
H33_2 H 0.943488 0.915482 0.217811
H34_2 H 0.979598 0.909190 0.207749
C53_2 C 0.9169(3) 0.9301(3) 0.3912(4)
H35_2 H 0.931014 0.939658 0.406518
C54_2 C 0.9245(3) 0.9266(3) 0.3558(4)
C55_2 C 0.9034(4) 0.9123(4) 0.3329(3)
H36_2 H 0.908517 0.909954 0.309175
C56_2 C 0.8748(3) 0.9015(4) 0.3454(3)
H37_2 H 0.860734 0.891989 0.330140
C57_2 C 0.8672(3) 0.9051(2) 0.3809(3)
C58_2 C 0.8883(3) 0.9193(2) 0.4038(3)
C59_2 C 0.8807(3) 0.9229(4) 0.4392(3)
H38_2 H 0.894812 0.932411 0.454520
C60_2 C 0.8521(4) 0.9121(4) 0.4518(4)
H39_2 H 0.847029 0.914445 0.475487
C61_2 C 0.8310(3) 0.8978(3) 0.4289(4)
C62_2 C 0.8386(3) 0.8943(3) 0.3935(4)
H40_2 H 0.824530 0.884741 0.378145
O18_2 O 0.91776(19) 0.96582(18) 0.6852(2)
O19_2 O 0.94967(19) 0.97459(18) 0.6373(2)
O20_2 O 0.98996(15) 0.59055(12) 0.51616(19)
C63_2 C 0.9601(2) 0.5941(2) 0.5201(3)
C64_2 C 0.96195(14) 0.68468(15) 0.5229(2)
H43_2 H 0.975494 0.701712 0.524017
C65_2 C 0.97390(15) 0.65450(18) 0.5201(2)
H44_2 H 0.995443 0.651347 0.519258
C66_2 C 0.95366(19) 0.62905(14) 0.5185(2)
C67_2 C 0.92147(18) 0.63376(13) 0.5197(2)
H45_2 H 0.907930 0.616729 0.518641
C68_2 C 0.90952(14) 0.66394(14) 0.52257(15)
C69_2 C 0.92976(14) 0.68940(12) 0.52418(15)
C70_2 C 0.9178(2) 0.71957(13) 0.5270(2)
H46_2 H 0.931350 0.736604 0.528110
C71_2 C 0.8856(2) 0.72429(19) 0.5283(3)
C72_2 C 0.86537(15) 0.6988(2) 0.5267(2)
H47_2 H 0.843836 0.701988 0.527493
C73_2 C 0.87733(13) 0.6687(2) 0.5238(2)
H48_2 H 0.863784 0.651624 0.522733
O21_2 O 0.94156(16) 0.56882(15) 0.5119(2)
O22_2 O 0.8295(5) 0.8428(4) 0.5460(7)
H49_2 H 0.813743 0.836180 0.555896
C74_2 C 0.8484(3) 0.7661(4) 0.5100(4)
C75_2 C 0.8751(3) 0.7570(3) 0.5284(4)
C76_2 C 0.8894(3) 0.7778(3) 0.5516(4)
H50_2 H 0.907233 0.771686 0.563950
C77_2 C 0.8771(3) 0.8076(3) 0.5564(4)
C78_2 C 0.8504(4) 0.8167(3) 0.5380(5)
C79_2 C 0.8361(3) 0.7959(4) 0.5148(5)
C80_2 C 0.9320(3) 0.9584(3) 0.6573(3)
C81_2 C 0.8007(5) 0.7743(5) 0.4739(5)
H51_2 H 0.779644 0.766047 0.471820
H52_2 H 0.808011 0.780614 0.450702
C82_2 C 0.8221(5) 0.7508(6) 0.4897(7)
H53_2 H 0.830849 0.737785 0.471186
H54_2 H 0.810296 0.737335 0.505487
C83_2 C 0.9301(3) 0.9169(3) 0.6088(4)
H55_2 H 0.939658 0.931014 0.593482
C84_2 C 0.9266(3) 0.9245(3) 0.6442(4)
C85_2 C 0.9123(4) 0.9034(4) 0.6671(3)
H56_2 H 0.909954 0.908517 0.690825
C86_2 C 0.9015(4) 0.8748(3) 0.6546(3)
H57_2 H 0.891989 0.860734 0.669860
C87_2 C 0.9051(2) 0.8672(3) 0.6191(3)
C88_2 C 0.9193(2) 0.8883(3) 0.5962(3)
C89_2 C 0.9229(4) 0.8807(3) 0.5608(3)
H58_2 H 0.932411 0.894812 0.545480
C90_2 C 0.9121(4) 0.8521(4) 0.5482(4)
H59_2 H 0.914445 0.847029 0.524513
C91_2 C 0.8978(3) 0.8310(3) 0.5711(4)
C92_2 C 0.8943(3) 0.8386(3) 0.6065(4)
H60_2 H 0.884741 0.824530 0.621855
Zr5_2 Zr 0.52086(2) 0.94435(2) 0.48248(3)
O28_2 O 0.48154(13) 0.95997(12) 0.44493(16)
O29_2 O 0.48377(8) 0.96430(9) 0.51678(13)
O31_2 O 0.53530(11) 0.91807(10) 0.52741(17)
H79_2 H 0.556512 0.915482 0.532189
H80_2 H 0.520402 0.909190 0.542251
O33_2 O 0.98587(18) 0.96421(18) 0.1665(2)
H81_2 H 0.964744 0.961371 0.161435
Zr7_4 Zr 0.500000 1.000000 0.41560(5)
Zr8_5 Zr 1.000000 1.000000 0.66560(5)
Zr11_2 Zr 0.94435(2) 0.52086(2) 0.51752(3)
Zr13_2 Zr 0.94435(2) 0.97914(2) 0.73248(3)
O35_2 O 0.53418(18) 0.91776(19) 0.4352(2)
Zr18_4 Zr 1.000000 0.500000 0.45157(5)
O39_2 O 0.49186(16) 0.90466(14) 0.4777(2)
O40_2 O 0.96811(10) 0.98602(10) 0.29474(15)
O41_2 O 0.53189(10) 0.98602(10) 0.45526(15)
O44_2 O 0.93118(15) 0.94156(16) 0.2619(2)
O45_2 O 0.43789(15) 0.92410(13) 0.47564(19)
Zr1_6 Zr 0.500000 -0.000000 0.08440(5)
Zr2_3 Zr 0.44435(2) 0.02086(2) 0.01752(3)
O1_3 O 0.41776(19) 0.03418(18) 0.0648(2)
O2_3 O 0.44967(19) 0.02541(18) 0.1127(2)
O8_3 O 0.48996(15) 0.40945(12) 0.23384(19)
C11_3 C 0.4601(2) 0.4059(2) 0.2299(3)
C12_3 C 0.46195(14) 0.31532(15) 0.2271(2)
H7_3 H 0.475494 0.298288 0.225983
C13_3 C 0.47390(15) 0.34550(18) 0.2299(2)
H8_3 H 0.495443 0.348653 0.230742
C14_3 C 0.45366(19) 0.37095(14) 0.2315(2)
C15_3 C 0.42147(18) 0.36624(13) 0.2303(2)
H9_3 H 0.407930 0.383271 0.231359
C16_3 C 0.40952(14) 0.33606(14) 0.22743(15)
C17_3 C 0.42976(14) 0.31060(12) 0.22582(15)
C18_3 C 0.4178(2) 0.28043(13) 0.2230(2)
H10_3 H 0.431350 0.263396 0.221890
C19_3 C 0.3856(2) 0.27571(19) 0.2217(3)
C20_3 C 0.36537(15) 0.3012(2) 0.2233(2)
H11_3 H 0.343836 0.298012 0.222507
C21_3 C 0.37733(13) 0.3313(2) 0.2262(2)
H12_3 H 0.363784 0.348376 0.227267
O9_3 O 0.44156(16) 0.43118(15) 0.2381(2)
O11_3 O 0.3295(5) 0.1572(4) 0.2040(7)
H19_3 H 0.313743 0.163820 0.194104
C32_3 C 0.3484(3) 0.2339(4) 0.2400(4)
C33_3 C 0.3751(3) 0.2430(3) 0.2216(4)
C34_3 C 0.3894(3) 0.2222(3) 0.1984(4)
H20_3 H 0.407233 0.228314 0.186050
C35_3 C 0.3771(3) 0.1924(3) 0.1936(4)
C36_3 C 0.3504(4) 0.1833(3) 0.2120(5)
C37_3 C 0.3361(3) 0.2041(4) 0.2352(5)
C48_4 C 0.3019(5) 0.1981(5) 0.250000
C49_3 C 0.4320(3) 0.0416(3) 0.0927(3)
C50_3 C 0.3007(5) 0.2257(5) 0.2761(5)
H27_3 H 0.279644 0.233953 0.278180
H28_3 H 0.308011 0.219386 0.299298
C51_3 C 0.3221(5) 0.2492(6) 0.2603(7)
H31_3 H 0.330849 0.262215 0.278814
H32_3 H 0.310296 0.262665 0.244513
C53_3 C 0.4301(3) 0.0831(3) 0.1412(4)
H35_3 H 0.439658 0.068986 0.156518
C54_3 C 0.4266(3) 0.0755(3) 0.1058(4)
C55_3 C 0.4123(4) 0.0966(4) 0.0829(3)
H36_3 H 0.409954 0.091483 0.059175
C56_3 C 0.4015(4) 0.1252(3) 0.0954(3)
H37_3 H 0.391989 0.139266 0.080140
C57_3 C 0.4051(2) 0.1328(3) 0.1309(3)
C58_3 C 0.4193(2) 0.1117(3) 0.1538(3)
C59_3 C 0.4229(4) 0.1193(3) 0.1892(3)
H38_3 H 0.432411 0.105188 0.204520
C60_3 C 0.4121(4) 0.1479(4) 0.2018(4)
H39_3 H 0.414445 0.152971 0.225487
C61_3 C 0.3978(3) 0.1690(3) 0.1789(4)
C62_3 C 0.3943(3) 0.1614(3) 0.1435(4)
H40_3 H 0.384741 0.175470 0.128145
O18_3 O 0.46582(18) 0.08224(19) 0.4352(2)
O19_3 O 0.47459(18) 0.05033(19) 0.3873(2)
C63_3 C 0.0941(2) 0.0399(2) 0.2701(3)
C64_3 C 0.18468(15) 0.03805(14) 0.2729(2)
H43_3 H 0.201712 0.024506 0.274017
C65_3 C 0.15450(18) 0.02610(15) 0.2701(2)
H44_3 H 0.151347 0.004557 0.269258
C66_3 C 0.12905(14) 0.04634(19) 0.2685(2)
C67_3 C 0.13376(13) 0.07853(18) 0.2697(2)
H45_3 H 0.116729 0.092070 0.268641
C68_3 C 0.16394(14) 0.09048(14) 0.27257(15)
C69_3 C 0.18940(12) 0.07024(14) 0.27418(15)
C70_3 C 0.21957(13) 0.0822(2) 0.2770(2)
H46_3 H 0.236604 0.068650 0.278110
C71_3 C 0.22429(19) 0.1144(2) 0.2783(3)
C72_3 C 0.1988(2) 0.13463(15) 0.2767(2)
H47_3 H 0.201988 0.156164 0.277493
C73_3 C 0.1687(2) 0.12267(13) 0.2738(2)
H48_3 H 0.151624 0.136216 0.272733
O21_3 O 0.06882(15) 0.05844(16) 0.2619(2)
O22_3 O 0.3428(4) 0.1705(5) 0.2960(7)
H49_3 H 0.336180 0.186257 0.305896
C74_3 C 0.2661(4) 0.1516(3) 0.2600(4)
C75_3 C 0.2570(3) 0.1249(3) 0.2784(4)
C76_3 C 0.2778(3) 0.1106(3) 0.3016(4)
H50_3 H 0.271686 0.092767 0.313950
C77_3 C 0.3076(3) 0.1229(3) 0.3064(4)
C78_3 C 0.3167(3) 0.1496(4) 0.2880(5)
C79_3 C 0.2959(4) 0.1639(3) 0.2648(5)
C80_3 C 0.4584(3) 0.0680(3) 0.4073(3)
C81_3 C 0.2743(5) 0.1993(5) 0.2239(5)
H51_3 H 0.266047 0.220356 0.221820
H52_3 H 0.280614 0.191989 0.200702
C82_3 C 0.2508(6) 0.1779(5) 0.2397(7)
H53_3 H 0.237785 0.169151 0.221186
H54_3 H 0.237335 0.189704 0.255487
C83_3 C 0.4169(3) 0.0699(3) 0.3588(4)
H55_3 H 0.431014 0.060342 0.343482
C84_3 C 0.4245(3) 0.0734(3) 0.3942(4)
C85_3 C 0.4034(4) 0.0877(4) 0.4171(3)
H56_3 H 0.408517 0.090046 0.440825
C86_3 C 0.3748(3) 0.0985(4) 0.4046(3)
H57_3 H 0.360734 0.108011 0.419860
C87_3 C 0.3672(3) 0.0949(2) 0.3691(3)
C88_3 C 0.3883(3) 0.0807(2) 0.3462(3)
C89_3 C 0.3807(3) 0.0771(4) 0.3108(3)
H58_3 H 0.394812 0.067589 0.295480
C90_3 C 0.3521(4) 0.0879(4) 0.2982(4)
H59_3 H 0.347029 0.085555 0.274513
C91_3 C 0.3310(3) 0.1022(3) 0.3211(4)
C92_3 C 0.3386(3) 0.1057(3) 0.3565(4)
H60_3 H 0.324530 0.115259 0.371855
O28_3 O 0.45997(12) 0.51846(13) 0.19493(16)
O29_3 O 0.46430(9) 0.51623(8) 0.26678(13)
O30_3 O 0.51398(10) 0.53189(10) 0.20526(15)
O31_3 O 0.41807(10) 0.46470(11) 0.27741(17)
H79_3 H 0.415482 0.443488 0.282189
H80_3 H 0.409190 0.479598 0.292251
O32_3 O 0.51191(10) 0.55813(9) 0.26655(16)
O34_3 O 0.51602(19) 0.0455(2) 0.1126(3)
H83_3 H 0.534799 0.055020 0.106255
H84_3 H 0.503652 0.054283 0.130219
O35_3 O 0.41776(19) 0.46582(18) 0.1852(2)
Zr17_3 Zr 0.52175(2) 0.44865(2) 0.23269(3)
Zr19_3 Zr 0.500000 0.500000 0.29843(5)
O37_3 O 0.54003(12) 0.01846(13) 0.05507(16)
O40_3 O 0.48602(10) 0.03189(10) 0.04474(15)
O41_3 O 0.48602(10) 0.46811(10) 0.20526(15)
O42_3 O 0.51004(15) 0.59055(12) 0.23384(19)
O44_3 O 0.44156(16) 0.06882(15) 0.0119(2)
O49_2 O 0.47252(16) 0.58216(15) 0.2817(2)
H30_3 H 0.548686 0.000789 0.906040
O13_3 O 0.41807(10) 0.03530(11) 0.97259(17)
H33_3 H 0.415482 0.056512 0.967811
H34_3 H 0.409190 0.020402 0.957749
O33_3 O 0.46421(18) 0.01413(18) 0.9165(2)
H81_3 H 0.461371 0.035256 0.911435
Zr20_3 Zr 0.000000 -0.000000 0.79843(5)
O38_3 O 0.53570(9) 0.01623(8) 0.98322(13)
O47_3 O 0.52268(14) 0.04318(19) 0.9238(2)
Zr1_7 Zr 0.500000 1.000000 0.08440(5)
O3_3 O 0.45997(12) 0.98154(13) 0.05507(16)
O5_3 O 0.14616(10) 0.83804(14) 0.04613(16)
H1_3 H 0.144824 0.832676 0.066848
O6_3 O 0.40466(14) 0.99186(16) 0.0223(2)
H4_3 H 0.259532 0.808981 0.010791
O7_3 O 0.51398(10) 0.96811(10) 0.04474(15)
C3_3 C 0.19446(17) 0.80554(17) 0.000000
C4_3 C 0.23743(9) 0.87407(12) 0.03445(16)
C5_3 C 0.21546(12) 0.89072(10) 0.05395(15)
H6_3 H 0.221180 0.909233 0.065148
C6_3 C 0.18492(11) 0.87969(11) 0.05671(15)
C7_3 C 0.17637(8) 0.85202(12) 0.03997(16)
C8_3 C 0.19834(11) 0.83537(10) 0.02047(15)
C9_3 C 0.22888(10) 0.84640(11) 0.01771(15)
C10_3 C 0.4038(3) 0.9605(3) 0.0236(3)
C22_3 C 0.36397(10) 0.91630(15) 0.02973(18)
H13_3 H 0.380379 0.902269 0.032946
C23_3 C 0.37023(13) 0.94769(15) 0.02307(19)
C24_3 C 0.34570(16) 0.96866(12) 0.01826(18)
H14_3 H 0.349890 0.989668 0.013798
C25_3 C 0.31490(15) 0.95824(11) 0.02011(18)
H15_3 H 0.298487 0.972270 0.016888
C26_3 C 0.30864(10) 0.92685(11) 0.02677(11)
C27_3 C 0.33317(10) 0.90588(11) 0.03158(12)
C28_3 C 0.32690(14) 0.87448(11) 0.03824(17)
H16_3 H 0.343319 0.860451 0.041460
C29_3 C 0.29611(15) 0.86406(12) 0.04009(16)
H17_3 H 0.291917 0.843052 0.044551
C30_3 C 0.27157(12) 0.88503(16) 0.03528(16)
C31_3 C 0.27784(10) 0.91642(15) 0.02862(17)
H18_3 H 0.261425 0.930450 0.025403
O10_3 O 0.42410(13) 0.93789(15) 0.02436(19)
C38_3 C 0.10959(15) 0.92303(15) 0.07970(17)
H21_3 H 0.090728 0.928207 0.068898
C39_3 C 0.13256(19) 0.90719(15) 0.06081(17)
H22_3 H 0.129072 0.901774 0.037371
C40_3 C 0.16075(16) 0.89944(13) 0.0769(2)
C41_3 C 0.16596(12) 0.90754(13) 0.1120(2)
H23_3 H 0.184822 0.902357 0.122773
C42_3 C 0.14299(11) 0.92338(10) 0.13086(17)
C43_3 C 0.11480(11) 0.93112(10) 0.11473(17)
C44_3 C 0.09183(12) 0.94696(13) 0.1336(2)
H24_3 H 0.072969 0.952138 0.122814
C45_3 C 0.09704(17) 0.95505(13) 0.1686(2)
C46_3 C 0.12523(19) 0.94731(14) 0.18478(17)
H25_3 H 0.128717 0.952722 0.208218
C47_3 C 0.14820(15) 0.93147(14) 0.16589(17)
H26_3 H 0.167062 0.926289 0.176692
C52_3 C 0.0705(3) 0.9701(3) 0.1895(4)
O17_3 O 0.48398(19) 0.9545(2) 0.1126(3)
H41_3 H 0.465201 0.944980 0.106255
H42_3 H 0.496348 0.945717 0.130219
C93_3 C 0.19250(17) 0.77741(15) 0.0252(2)
H62_3 H 0.213251 0.770803 0.032492
H63_3 H 0.180394 0.782676 0.046051
C94_3 C 0.17633(18) 0.75174(18) 0.0040(2)
H65_3 H 0.165455 0.737041 0.019231
O36_3 O 0.55033(19) 0.97459(18) 0.1127(2)
O4_3 O 0.46430(9) 0.98377(8) 0.98322(13)
C1_3 C 0.22259(15) 0.80750(17) 0.9748(2)
H2_3 H 0.229197 0.786749 0.967508
H3_3 H 0.217324 0.819606 0.953949
C2_3 C 0.24826(18) 0.82367(18) 0.9960(2)
H5_3 H 0.262959 0.834545 0.980769
C3_4 C 0.19446(17) 0.80554(17) 1.000000
O12_3 O 0.53579(18) 0.98587(18) 0.9165(2)
H29_3 H 0.538629 0.964744 0.911435
O16_3 O 0.51191(10) 0.94187(9) 0.98345(16)
O23_3 O 0.16196(14) 0.85384(10) 0.95387(16)
H61_3 H 0.167324 0.855176 0.933152
H64_3 H 0.191019 0.740468 0.989209
C95_3 C 0.12593(12) 0.76257(9) 0.96555(16)
C96_3 C 0.10928(10) 0.78454(12) 0.94605(15)
H66_3 H 0.090767 0.778820 0.934852
C97_3 C 0.12031(11) 0.81508(11) 0.94329(15)
C98_3 C 0.14798(12) 0.82363(8) 0.96003(16)
C99_3 C 0.16463(10) 0.80166(11) 0.97953(15)
C100_3 C 0.15360(11) 0.77112(10) 0.98229(15)
C101_3 C 0.0395(3) 0.5962(3) 0.9764(3)
C102_3 C 0.08370(15) 0.63603(10) 0.97027(18)
H67_3 H 0.097731 0.619621 0.967054
C103_3 C 0.05231(15) 0.62977(13) 0.97693(19)
C104_3 C 0.03134(12) 0.65430(16) 0.98174(18)
H68_3 H 0.010332 0.650110 0.986202
C105_3 C 0.04176(11) 0.68510(15) 0.97989(18)
H69_3 H 0.027730 0.701513 0.983112
C106_3 C 0.07315(11) 0.69136(10) 0.97323(11)
C107_3 C 0.09412(11) 0.66683(10) 0.96842(12)
C108_3 C 0.12552(11) 0.67310(14) 0.96176(17)
H70_3 H 0.139549 0.656681 0.958540
C109_3 C 0.13594(12) 0.70389(15) 0.95991(16)
H71_3 H 0.156948 0.708083 0.955449
C110_3 C 0.11497(16) 0.72843(12) 0.96472(16)
C111_3 C 0.08358(15) 0.72216(10) 0.97138(17)
H72_3 H 0.069550 0.738575 0.974597
C112_3 C 0.07697(15) 0.89041(15) 0.92030(17)
H73_3 H 0.071793 0.909272 0.931102
C113_3 C 0.09281(15) 0.86744(19) 0.93919(17)
H74_3 H 0.098226 0.870928 0.962629
C114_3 C 0.10056(13) 0.83925(16) 0.9231(2)
C115_3 C 0.09246(13) 0.83404(12) 0.8880(2)
H75_3 H 0.097643 0.815178 0.877227
C116_3 C 0.07662(10) 0.85701(11) 0.86914(17)
C117_3 C 0.06888(10) 0.88520(11) 0.88527(17)
C118_3 C 0.05304(13) 0.90817(12) 0.8664(2)
H76_3 H 0.047862 0.927031 0.877186
C119_3 C 0.04495(13) 0.90296(17) 0.8314(2)
C120_3 C 0.05269(14) 0.87477(19) 0.81522(17)
H77_3 H 0.047278 0.871283 0.791782
C121_3 C 0.06853(14) 0.85180(15) 0.83411(17)
H78_3 H 0.073711 0.832938 0.823308
O26_3 O 0.02268(14) 0.95682(19) 0.8262(2)
C122_3 C 0.0299(3) 0.9295(3) 0.8105(4)
O27_2 O 0.02748(16) 0.91784(15) 0.7817(2)
H82_3 H 0.451314 0.999211 0.906040
Zr20_4 Zr 0.000000 1.000000 0.79843(5)
Zr20_5 Zr 1.000000 -0.000000 0.79843(5)
Zr20_6 Zr 1.000000 1.000000 0.79843(5)
Zr1_8 Zr -0.000000 0.500000 0.58440(5)
Zr2_4 Zr 0.05565(2) 0.47914(2) 0.51752(3)
O1_4 O 0.08224(19) 0.46582(18) 0.5648(2)
O2_4 O 0.05033(19) 0.47459(18) 0.6127(2)
O3_4 O 0.04003(12) 0.51846(13) 0.55507(16)
O4_4 O 0.03570(9) 0.51623(8) 0.48322(13)
O5_4 O 0.35384(10) 0.66196(14) 0.54613(16)
H1_4 H 0.355176 0.667324 0.566848
C1_4 C 0.27741(15) 0.69250(17) 0.4748(2)
H2_4 H 0.270803 0.713251 0.467508
H3_4 H 0.282676 0.680394 0.453949
O6_4 O 0.09534(14) 0.50814(16) 0.5223(2)
C2_4 C 0.25174(18) 0.67633(18) 0.4960(2)
H4_4 H 0.240468 0.691019 0.510791
H5_4 H 0.237041 0.665455 0.480769
C3_5 C 0.30554(17) 0.69446(17) 0.500000
C4_4 C 0.26257(9) 0.62593(12) 0.53445(16)
C5_4 C 0.28454(12) 0.60928(10) 0.55395(15)
H6_4 H 0.278820 0.590767 0.565148
C6_4 C 0.31508(11) 0.62031(11) 0.55671(15)
C7_4 C 0.32363(8) 0.64798(12) 0.53997(16)
C8_4 C 0.30166(11) 0.66463(10) 0.52047(15)
C9_4 C 0.27112(10) 0.65360(11) 0.51771(15)
C10_4 C 0.0962(3) 0.5395(3) 0.5236(3)
O8_4 O 0.01004(15) 0.09055(12) 0.73384(19)
C11_4 C 0.0399(2) 0.0941(2) 0.7299(3)
C12_4 C 0.03805(14) 0.18468(15) 0.7271(2)
H7_4 H 0.024506 0.201712 0.725983
C13_4 C 0.02610(15) 0.15450(18) 0.7299(2)
H8_4 H 0.004557 0.151347 0.730742
C14_4 C 0.04634(19) 0.12905(14) 0.7315(2)
C15_4 C 0.07853(18) 0.13376(13) 0.7303(2)
H9_4 H 0.092070 0.116729 0.731359
C16_4 C 0.09048(14) 0.16394(14) 0.72743(15)
C17_4 C 0.07024(14) 0.18940(12) 0.72582(15)
C18_4 C 0.0822(2) 0.21957(13) 0.7230(2)
H10_4 H 0.068650 0.236604 0.721890
C19_4 C 0.1144(2) 0.22429(19) 0.7217(3)
C20_4 C 0.13463(15) 0.1988(2) 0.7233(2)
H11_4 H 0.156164 0.201988 0.722507
C21_4 C 0.12267(13) 0.1687(2) 0.7262(2)
H12_4 H 0.136216 0.151624 0.727267
C22_4 C 0.13603(10) 0.58370(15) 0.52973(18)
H13_4 H 0.119621 0.597731 0.532946
C23_4 C 0.12977(13) 0.55231(15) 0.52307(19)
C24_4 C 0.15430(16) 0.53134(12) 0.51826(18)
H14_4 H 0.150110 0.510332 0.513798
C25_4 C 0.18510(15) 0.54176(11) 0.52011(18)
H15_4 H 0.201513 0.527730 0.516888
C26_4 C 0.19136(10) 0.57315(11) 0.52677(11)
C27_4 C 0.16683(10) 0.59412(11) 0.53158(12)
C28_4 C 0.17310(14) 0.62552(11) 0.53824(17)
H16_4 H 0.156681 0.639549 0.541460
C29_4 C 0.20389(15) 0.63594(12) 0.54009(16)
H17_4 H 0.208083 0.656948 0.544551
C30_4 C 0.22843(12) 0.61497(16) 0.53528(16)
C31_4 C 0.22216(10) 0.58358(15) 0.52862(17)
H18_4 H 0.238575 0.569550 0.525403
O9_4 O 0.05844(16) 0.06882(15) 0.7381(2)
O10_4 O 0.07590(13) 0.56211(15) 0.52436(19)
O11_4 O 0.1705(5) 0.3428(4) 0.7040(7)
H19_4 H 0.186257 0.336180 0.694104
C32_4 C 0.1516(3) 0.2661(4) 0.7400(4)
C33_4 C 0.1249(3) 0.2570(3) 0.7216(4)
C34_4 C 0.1106(3) 0.2778(3) 0.6984(4)
H20_4 H 0.092767 0.271686 0.686050
C35_4 C 0.1229(3) 0.3076(3) 0.6936(4)
C36_4 C 0.1496(4) 0.3167(3) 0.7120(5)
C37_4 C 0.1639(3) 0.2959(4) 0.7352(5)
C38_4 C 0.39041(15) 0.57697(15) 0.57970(17)
H21_4 H 0.409272 0.571793 0.568898
C39_4 C 0.36744(19) 0.59281(15) 0.56081(17)
H22_4 H 0.370928 0.598226 0.537371
C40_4 C 0.33925(16) 0.60056(13) 0.5769(2)
C41_4 C 0.33404(12) 0.59246(13) 0.6120(2)
H23_4 H 0.315178 0.597643 0.622773
C42_4 C 0.35701(11) 0.57662(10) 0.63086(17)
C43_4 C 0.38520(11) 0.56888(10) 0.61473(17)
C44_4 C 0.40817(12) 0.55304(13) 0.6336(2)
H24_4 H 0.427031 0.547862 0.622814
C45_4 C 0.40296(17) 0.54495(13) 0.6686(2)
C46_4 C 0.37477(19) 0.55269(14) 0.68478(17)
H25_4 H 0.371283 0.547278 0.708218
C47_4 C 0.35180(15) 0.56853(14) 0.66589(17)
H26_4 H 0.332938 0.573711 0.676692
C48_5 C 0.1981(5) 0.3019(5) 0.750000
C49_4 C 0.0680(3) 0.4584(3) 0.5927(3)
C50_4 C 0.1993(5) 0.2743(5) 0.7761(5)
H27_4 H 0.220356 0.266047 0.778180
H28_4 H 0.191989 0.280614 0.799298
C51_4 C 0.1779(5) 0.2508(6) 0.7603(7)
H31_4 H 0.169151 0.237785 0.778814
H32_4 H 0.189704 0.237335 0.744513
O13_4 O 0.08193(10) 0.46470(11) 0.47259(17)
H33_4 H 0.084518 0.443488 0.467811
H34_4 H 0.090810 0.479598 0.457749
C52_4 C 0.4295(3) 0.5299(3) 0.6895(4)
C53_4 C 0.0699(3) 0.4169(3) 0.6412(4)
H35_4 H 0.060342 0.431014 0.656518
C54_4 C 0.0734(3) 0.4245(3) 0.6058(4)
C55_4 C 0.0877(4) 0.4034(4) 0.5829(3)
H36_4 H 0.090046 0.408517 0.559175
C56_4 C 0.0985(4) 0.3748(3) 0.5954(3)
H37_4 H 0.108011 0.360734 0.580140
C57_4 C 0.0949(2) 0.3672(3) 0.6309(3)
C58_4 C 0.0807(2) 0.3883(3) 0.6538(3)
C59_4 C 0.0771(4) 0.3807(3) 0.6892(3)
H38_4 H 0.067589 0.394812 0.704520
C60_4 C 0.0879(4) 0.3521(4) 0.7018(4)
H39_4 H 0.085555 0.347029 0.725487
C61_4 C 0.1022(3) 0.3310(3) 0.6789(4)
C62_4 C 0.1057(3) 0.3386(3) 0.6435(4)
H40_4 H 0.115259 0.324530 0.628145
O17_4 O 0.01602(19) 0.5455(2) 0.6126(3)
H41_4 H 0.034799 0.555020 0.606255
H42_4 H 0.003652 0.554283 0.630219
O18_4 O 0.03418(18) 0.41776(19) 0.9352(2)
O19_4 O 0.02541(18) 0.44967(19) 0.8873(2)
C63_4 C 0.4059(2) 0.4601(2) 0.7701(3)
C64_4 C 0.31532(15) 0.46195(14) 0.7729(2)
H43_4 H 0.298288 0.475494 0.774017
C65_4 C 0.34550(18) 0.47390(15) 0.7701(2)
H44_4 H 0.348653 0.495443 0.769258
C66_4 C 0.37095(14) 0.45366(19) 0.7685(2)
C67_4 C 0.36624(13) 0.42147(18) 0.7697(2)
H45_4 H 0.383271 0.407930 0.768641
C68_4 C 0.33606(14) 0.40952(14) 0.77257(15)
C69_4 C 0.31060(12) 0.42976(14) 0.77418(15)
C70_4 C 0.28043(13) 0.4178(2) 0.7770(2)
H46_4 H 0.263396 0.431350 0.778110
C71_4 C 0.27571(19) 0.3856(2) 0.7783(3)
C72_4 C 0.3012(2) 0.36537(15) 0.7767(2)
H47_4 H 0.298012 0.343836 0.777493
C73_4 C 0.3313(2) 0.37733(13) 0.7738(2)
H48_4 H 0.348376 0.363784 0.772733
O21_4 O 0.43118(15) 0.44156(16) 0.7619(2)
O22_4 O 0.1572(4) 0.3295(5) 0.7960(7)
H49_4 H 0.163820 0.313743 0.805896
C74_4 C 0.2339(4) 0.3484(3) 0.7600(4)
C75_4 C 0.2430(3) 0.3751(3) 0.7784(4)
C76_4 C 0.2222(3) 0.3894(3) 0.8016(4)
H50_4 H 0.228314 0.407233 0.813950
C77_4 C 0.1924(3) 0.3771(3) 0.8064(4)
C78_4 C 0.1833(3) 0.3504(4) 0.7880(5)
C79_4 C 0.2041(4) 0.3361(3) 0.7648(5)
C80_4 C 0.0416(3) 0.4320(3) 0.9073(3)
C81_4 C 0.2257(5) 0.3007(5) 0.7239(5)
H51_4 H 0.233953 0.279644 0.721820
H52_4 H 0.219386 0.308011 0.700702
C82_4 C 0.2492(6) 0.3221(5) 0.7397(7)
H53_4 H 0.262215 0.330849 0.721186
H54_4 H 0.262665 0.310296 0.755487
C83_4 C 0.0831(3) 0.4301(3) 0.8588(4)
H55_4 H 0.068986 0.439658 0.843482
C84_4 C 0.0755(3) 0.4266(3) 0.8942(4)
C85_4 C 0.0966(4) 0.4123(4) 0.9171(3)
H56_4 H 0.091483 0.409954 0.940825
C86_4 C 0.1252(3) 0.4015(4) 0.9046(3)
H57_4 H 0.139266 0.391989 0.919860
C87_4 C 0.1328(3) 0.4051(2) 0.8691(3)
C88_4 C 0.1117(3) 0.4193(2) 0.8462(3)
C89_4 C 0.1193(3) 0.4229(4) 0.8108(3)
H58_4 H 0.105188 0.432411 0.795480
C90_4 C 0.1479(4) 0.4121(4) 0.7982(4)
H59_4 H 0.152971 0.414445 0.774513
C91_4 C 0.1690(3) 0.3978(3) 0.8211(4)
C92_4 C 0.1614(3) 0.3943(3) 0.8565(4)
H60_4 H 0.175470 0.384741 0.871855
O23_4 O 0.33804(14) 0.64616(10) 0.45387(16)
H61_4 H 0.332676 0.644824 0.433152
C93_4 C 0.30750(17) 0.72259(15) 0.5252(2)
H62_4 H 0.286749 0.729197 0.532492
H63_4 H 0.319606 0.717324 0.546051
C94_4 C 0.32367(18) 0.74826(18) 0.5040(2)
H64_4 H 0.308981 0.759532 0.489209
H65_4 H 0.334545 0.762959 0.519231
C95_4 C 0.37407(12) 0.73743(9) 0.46555(16)
C96_4 C 0.39072(10) 0.71546(12) 0.44605(15)
H66_4 H 0.409233 0.721180 0.434852
C97_4 C 0.37969(11) 0.68492(11) 0.44329(15)
C98_4 C 0.35202(12) 0.67637(8) 0.46003(16)
C99_4 C 0.33537(10) 0.69834(11) 0.47953(15)
C100_4 C 0.34640(11) 0.72888(10) 0.48229(15)
C101_4 C 0.4605(3) 0.9038(3) 0.4764(3)
C102_4 C 0.41630(15) 0.86397(10) 0.47027(18)
H67_4 H 0.402269 0.880379 0.467054
C103_4 C 0.44769(15) 0.87023(13) 0.47693(19)
C104_4 C 0.46866(12) 0.84570(16) 0.48174(18)
H68_4 H 0.489668 0.849890 0.486202
C105_4 C 0.45824(11) 0.81490(15) 0.47989(18)
H69_4 H 0.472270 0.798487 0.483112
C106_4 C 0.42685(11) 0.80864(10) 0.47323(11)
C107_4 C 0.40588(11) 0.83317(10) 0.46842(12)
C108_4 C 0.37448(11) 0.82690(14) 0.46176(17)
H70_4 H 0.360451 0.843319 0.458540
C109_4 C 0.36406(12) 0.79611(15) 0.45991(16)
H71_4 H 0.343052 0.791917 0.455449
C110_4 C 0.38503(16) 0.77157(12) 0.46472(16)
C111_4 C 0.41642(15) 0.77784(10) 0.47138(17)
H72_4 H 0.430450 0.761425 0.474597
C112_4 C 0.42303(15) 0.60959(15) 0.42030(17)
H73_4 H 0.428207 0.590728 0.431102
C113_4 C 0.40719(15) 0.63256(19) 0.43919(17)
H74_4 H 0.401774 0.629072 0.462629
C114_4 C 0.39944(13) 0.66075(16) 0.4231(2)
C115_4 C 0.40754(13) 0.66596(12) 0.3880(2)
H75_4 H 0.402357 0.684822 0.377227
C116_4 C 0.42338(10) 0.64299(11) 0.36914(17)
C117_4 C 0.43112(10) 0.61480(11) 0.38527(17)
C118_4 C 0.44696(13) 0.59183(12) 0.3664(2)
H76_4 H 0.452138 0.572969 0.377186
C119_4 C 0.45505(13) 0.59704(17) 0.3314(2)
C120_4 C 0.44731(14) 0.62523(19) 0.31522(17)
H77_4 H 0.452722 0.628717 0.291782
C121_4 C 0.43147(14) 0.64820(15) 0.33411(17)
H78_4 H 0.426289 0.667062 0.323308
O26_4 O 0.47732(14) 0.54318(19) 0.3262(2)
C122_4 C 0.4701(3) 0.5705(3) 0.3105(4)
O31_4 O 0.08193(10) 0.03530(11) 0.77741(17)
H79_4 H 0.084518 0.056512 0.782189
H80_4 H 0.090810 0.020402 0.792251
O33_4 O 0.03579(18) 0.48587(18) 0.4165(2)
H81_4 H 0.038629 0.464744 0.411435
H82_4 H 0.048686 0.500789 0.406040
O35_4 O 0.08224(19) 0.03418(18) 0.6852(2)
O40_4 O 0.01398(10) 0.46811(10) 0.54474(15)
O41_4 O 0.01398(10) 0.03189(10) 0.70526(15)
O44_4 O 0.05844(16) 0.43118(15) 0.5119(2)
O28_4 O 0.04003(12) 0.98154(13) 0.69493(16)
O29_4 O 0.03570(9) 0.98377(8) 0.76678(13)
Zr1_9 Zr 1.000000 0.500000 0.58440(5)
O7_4 O 0.98602(10) 0.53189(10) 0.54474(15)
O12_4 O 0.96421(18) 0.51413(18) 0.4165(2)
H29_4 H 0.961371 0.535256 0.411435
H30_4 H 0.951314 0.499211 0.406040
O16_4 O 0.98809(10) 0.55813(9) 0.48345(16)
O34_4 O 0.98398(19) 0.4545(2) 0.6126(3)
H83_4 H 0.965201 0.444980 0.606255
H84_4 H 0.996348 0.445717 0.630219
O36_4 O 0.94967(19) 0.52541(18) 0.6127(2)
Zr17_4 Zr 0.97825(2) 0.05135(2) 0.73269(3)
O37_4 O 0.95997(12) 0.48154(13) 0.55507(16)
O38_4 O 0.96430(9) 0.48377(8) 0.48322(13)
O47_4 O 0.97732(14) 0.45682(19) 0.4238(2)
O30_4 O 0.98602(10) 0.96811(10) 0.70526(15)
O32_4 O 0.98809(10) 0.94187(9) 0.76655(16)
O42_4 O 0.98996(15) 0.90945(12) 0.73384(19)
O12_5 O 0.01413(18) 0.46421(18) 0.0835(2)
H29_5 H 0.035256 0.461371 0.088565
H82_5 H 0.000789 0.548686 0.093960
O17_5 O 0.0455(2) 0.51602(19) 0.8874(3)
H41_5 H 0.055020 0.534799 0.893745
H42_5 H 0.054283 0.503652 0.869781
H30_5 H 0.999211 0.451314 0.093960
O33_5 O 0.98587(18) 0.53579(18) 0.0835(2)
H81_5 H 0.964744 0.538629 0.088565
O38_5 O 0.98377(8) 0.46430(9) 0.01678(13)
O47_5 O 0.95682(19) 0.47732(14) 0.0762(2)
O2_5 O 0.97459(18) 0.55033(19) 0.8873(2)
O8_5 O 0.59055(12) 0.51004(15) 0.76616(19)
C11_5 C 0.5941(2) 0.5399(2) 0.7701(3)
C12_5 C 0.68468(15) 0.53805(14) 0.7729(2)
H7_5 H 0.701712 0.524506 0.774017
C13_5 C 0.65450(18) 0.52610(15) 0.7701(2)
H8_5 H 0.651347 0.504557 0.769258
C14_5 C 0.62905(14) 0.54634(19) 0.7685(2)
C15_5 C 0.63376(13) 0.57853(18) 0.7697(2)
H9_5 H 0.616729 0.592070 0.768641
C16_5 C 0.66394(14) 0.59048(14) 0.77257(15)
C17_5 C 0.68940(12) 0.57024(14) 0.77418(15)
C18_5 C 0.71957(13) 0.5822(2) 0.7770(2)
H10_5 H 0.736604 0.568650 0.778110
C19_5 C 0.72429(19) 0.6144(2) 0.7783(3)
C20_5 C 0.6988(2) 0.63463(15) 0.7767(2)
H11_5 H 0.701988 0.656164 0.777493
C21_5 C 0.6687(2) 0.62267(13) 0.7738(2)
H12_5 H 0.651624 0.636216 0.772733
O11_5 O 0.8428(4) 0.6705(5) 0.7960(7)
H19_5 H 0.836180 0.686257 0.805896
C32_5 C 0.7661(4) 0.6516(3) 0.7600(4)
C33_5 C 0.7570(3) 0.6249(3) 0.7784(4)
C34_5 C 0.7778(3) 0.6106(3) 0.8016(4)
H20_5 H 0.771686 0.592767 0.813950
C35_5 C 0.8076(3) 0.6229(3) 0.8064(4)
C36_5 C 0.8167(3) 0.6496(4) 0.7880(5)
C37_5 C 0.7959(4) 0.6639(3) 0.7648(5)
C48_6 C 0.8019(5) 0.6981(5) 0.750000
C49_5 C 0.9584(3) 0.5680(3) 0.9073(3)
C50_5 C 0.7743(5) 0.6993(5) 0.7239(5)
H27_5 H 0.766047 0.720356 0.721820
H28_5 H 0.780614 0.691989 0.700702
C51_5 C 0.7508(6) 0.6779(5) 0.7397(7)
H31_5 H 0.737785 0.669151 0.721186
H32_5 H 0.737335 0.689704 0.755487
C53_5 C 0.9169(3) 0.5699(3) 0.8588(4)
H35_5 H 0.931014 0.560342 0.843482
C54_5 C 0.9245(3) 0.5734(3) 0.8942(4)
C55_5 C 0.9034(4) 0.5877(4) 0.9171(3)
H36_5 H 0.908517 0.590046 0.940825
C56_5 C 0.8748(3) 0.5985(4) 0.9046(3)
H37_5 H 0.860734 0.608011 0.919860
C57_5 C 0.8672(3) 0.5949(2) 0.8691(3)
C58_5 C 0.8883(3) 0.5807(2) 0.8462(3)
C59_5 C 0.8807(3) 0.5771(4) 0.8108(3)
H38_5 H 0.894812 0.567589 0.795480
C60_5 C 0.8521(4) 0.5879(4) 0.7982(4)
H39_5 H 0.847029 0.585555 0.774513
C61_5 C 0.8310(3) 0.6022(3) 0.8211(4)
C62_5 C 0.8386(3) 0.6057(3) 0.8565(4)
H40_5 H 0.824530 0.615259 0.871855
O18_5 O 0.91776(19) 0.53418(18) 0.5648(2)
C63_5 C 0.9601(2) 0.9059(2) 0.7299(3)
C64_5 C 0.96195(14) 0.81532(15) 0.7271(2)
H43_5 H 0.975494 0.798288 0.725983
C65_5 C 0.97390(15) 0.84550(18) 0.7299(2)
H44_5 H 0.995443 0.848653 0.730742
C66_5 C 0.95366(19) 0.87095(14) 0.7315(2)
C67_5 C 0.92147(18) 0.86624(13) 0.7303(2)
H45_5 H 0.907930 0.883271 0.731359
C68_5 C 0.90952(14) 0.83606(14) 0.72743(15)
C69_5 C 0.92976(14) 0.81060(12) 0.72582(15)
C70_5 C 0.9178(2) 0.78043(13) 0.7230(2)
H46_5 H 0.931350 0.763396 0.721890
C71_5 C 0.8856(2) 0.77571(19) 0.7217(3)
C72_5 C 0.86537(15) 0.8012(2) 0.7233(2)
H47_5 H 0.843836 0.798012 0.722507
C73_5 C 0.87733(13) 0.8313(2) 0.7262(2)
H48_5 H 0.863784 0.848376 0.727267
O21_5 O 0.94156(16) 0.93118(15) 0.7381(2)
O22_5 O 0.8295(5) 0.6572(4) 0.7040(7)
H49_5 H 0.813743 0.663820 0.694104
C74_5 C 0.8484(3) 0.7339(4) 0.7400(4)
C75_5 C 0.8751(3) 0.7430(3) 0.7216(4)
C76_5 C 0.8894(3) 0.7222(3) 0.6984(4)
H50_5 H 0.907233 0.728314 0.686050
C77_5 C 0.8771(3) 0.6924(3) 0.6936(4)
C78_5 C 0.8504(4) 0.6833(3) 0.7120(5)
C79_5 C 0.8361(3) 0.7041(4) 0.7352(5)
C80_5 C 0.9320(3) 0.5416(3) 0.5927(3)
C81_5 C 0.8007(5) 0.7257(5) 0.7761(5)
H51_5 H 0.779644 0.733953 0.778180
H52_5 H 0.808011 0.719386 0.799298
C82_5 C 0.8221(5) 0.7492(6) 0.7603(7)
H53_5 H 0.830849 0.762215 0.778814
H54_5 H 0.810296 0.762665 0.744513
C83_5 C 0.9301(3) 0.5831(3) 0.6412(4)
H55_5 H 0.939658 0.568986 0.656518
C84_5 C 0.9266(3) 0.5755(3) 0.6058(4)
C85_5 C 0.9123(4) 0.5966(4) 0.5829(3)
H56_5 H 0.909954 0.591483 0.559175
C86_5 C 0.9015(4) 0.6252(3) 0.5954(3)
H57_5 H 0.891989 0.639266 0.580140
C87_5 C 0.9051(2) 0.6328(3) 0.6309(3)
C88_5 C 0.9193(2) 0.6117(3) 0.6538(3)
C89_5 C 0.9229(4) 0.6193(3) 0.6892(3)
H58_5 H 0.932411 0.605188 0.704520
C90_5 C 0.9121(4) 0.6479(4) 0.7018(4)
H59_5 H 0.914445 0.652971 0.725487
C91_5 C 0.8978(3) 0.6690(3) 0.6789(4)
C92_5 C 0.8943(3) 0.6614(3) 0.6435(4)
H60_5 H 0.884741 0.675470 0.628145
O34_5 O 0.9545(2) 0.48398(19) 0.8874(3)
H83_5 H 0.944980 0.465201 0.893745
H84_5 H 0.945717 0.496348 0.869781
Zr17_5 Zr 0.55135(2) 0.47825(2) 0.76731(3)
O37_5 O 0.98154(13) 0.45997(12) 0.94493(16)
O12_6 O 0.48587(18) 0.03579(18) 0.5835(2)
H29_6 H 0.464744 0.038629 0.588565
H30_6 H 0.500789 0.048686 0.593960
O34_6 O 0.5455(2) 0.01602(19) 0.3874(3)
H83_6 H 0.555020 0.034799 0.393745
H84_6 H 0.554283 0.003652 0.369781
Zr17_6 Zr 0.94865(2) 0.02175(2) 0.26731(3)
O37_6 O 0.51846(13) 0.04003(12) 0.44493(16)
O38_6 O 0.51623(8) 0.03570(9) 0.51678(13)
O47_6 O 0.54318(19) 0.02268(14) 0.5762(2)
O2_6 O 0.52541(18) 0.94967(19) 0.3873(2)
O8_6 O 0.90945(12) 0.98996(15) 0.26616(19)
C11_6 C 0.9059(2) 0.9601(2) 0.2701(3)
C12_6 C 0.81532(15) 0.96195(14) 0.2729(2)
H7_6 H 0.798288 0.975494 0.274017
C13_6 C 0.84550(18) 0.97390(15) 0.2701(2)
H8_6 H 0.848653 0.995443 0.269258
C14_6 C 0.87095(14) 0.95366(19) 0.2685(2)
C15_6 C 0.86624(13) 0.92147(18) 0.2697(2)
H9_6 H 0.883271 0.907930 0.268641
C16_6 C 0.83606(14) 0.90952(14) 0.27257(15)
C17_6 C 0.81060(12) 0.92976(14) 0.27418(15)
C18_6 C 0.78043(13) 0.9178(2) 0.2770(2)
H10_6 H 0.763396 0.931350 0.278110
C19_6 C 0.77571(19) 0.8856(2) 0.2783(3)
C20_6 C 0.8012(2) 0.86537(15) 0.2767(2)
H11_6 H 0.798012 0.843836 0.277493
C21_6 C 0.8313(2) 0.87733(13) 0.2738(2)
H12_6 H 0.848376 0.863784 0.272733
O11_6 O 0.6572(4) 0.8295(5) 0.2960(7)
H19_6 H 0.663820 0.813743 0.305896
C32_6 C 0.7339(4) 0.8484(3) 0.2600(4)
C33_6 C 0.7430(3) 0.8751(3) 0.2784(4)
C34_6 C 0.7222(3) 0.8894(3) 0.3016(4)
H20_6 H 0.728314 0.907233 0.313950
C35_6 C 0.6924(3) 0.8771(3) 0.3064(4)
C36_6 C 0.6833(3) 0.8504(4) 0.2880(5)
C37_6 C 0.7041(4) 0.8361(3) 0.2648(5)
C48_7 C 0.6981(5) 0.8019(5) 0.250000
C49_6 C 0.5416(3) 0.9320(3) 0.4073(3)
C50_6 C 0.7257(5) 0.8007(5) 0.2239(5)
H27_6 H 0.733953 0.779644 0.221820
H28_6 H 0.719386 0.808011 0.200702
C51_6 C 0.7492(6) 0.8221(5) 0.2397(7)
H31_6 H 0.762215 0.830849 0.221186
H32_6 H 0.762665 0.810296 0.255487
C53_6 C 0.5831(3) 0.9301(3) 0.3588(4)
H35_6 H 0.568986 0.939658 0.343482
C54_6 C 0.5755(3) 0.9266(3) 0.3942(4)
C55_6 C 0.5966(4) 0.9123(4) 0.4171(3)
H36_6 H 0.591483 0.909954 0.440825
C56_6 C 0.6252(3) 0.9015(4) 0.4046(3)
H37_6 H 0.639266 0.891989 0.419860
C57_6 C 0.6328(3) 0.9051(2) 0.3691(3)
C58_6 C 0.6117(3) 0.9193(2) 0.3462(3)
C59_6 C 0.6193(3) 0.9229(4) 0.3108(3)
H38_6 H 0.605188 0.932411 0.295480
C60_6 C 0.6479(4) 0.9121(4) 0.2982(4)
H39_6 H 0.652971 0.914445 0.274513
C61_6 C 0.6690(3) 0.8978(3) 0.3211(4)
C62_6 C 0.6614(3) 0.8943(3) 0.3565(4)
H40_6 H 0.675470 0.884741 0.371855
O17_6 O 0.4545(2) 0.98398(19) 0.3874(3)
H41_6 H 0.444980 0.965201 0.393745
H42_6 H 0.445717 0.996348 0.369781
O18_6 O 0.58224(19) 0.96582(18) 0.0648(2)
C63_6 C 0.5399(2) 0.5941(2) 0.2299(3)
C64_6 C 0.53805(14) 0.68468(15) 0.2271(2)
H43_6 H 0.524506 0.701712 0.225983
C65_6 C 0.52610(15) 0.65450(18) 0.2299(2)
H44_6 H 0.504557 0.651347 0.230742
C66_6 C 0.54634(19) 0.62905(14) 0.2315(2)
C67_6 C 0.57853(18) 0.63376(13) 0.2303(2)
H45_6 H 0.592070 0.616729 0.231359
C68_6 C 0.59048(14) 0.66394(14) 0.22743(15)
C69_6 C 0.57024(14) 0.68940(12) 0.22582(15)
C70_6 C 0.5822(2) 0.71957(13) 0.2230(2)
H46_6 H 0.568650 0.736604 0.221890
C71_6 C 0.6144(2) 0.72429(19) 0.2217(3)
C72_6 C 0.63463(15) 0.6988(2) 0.2233(2)
H47_6 H 0.656164 0.701988 0.222507
C73_6 C 0.62267(13) 0.6687(2) 0.2262(2)
H48_6 H 0.636216 0.651624 0.227267
O21_6 O 0.55844(16) 0.56882(15) 0.2381(2)
O22_6 O 0.6705(5) 0.8428(4) 0.2040(7)
H49_6 H 0.686257 0.836180 0.194104
C74_6 C 0.6516(3) 0.7661(4) 0.2400(4)
C75_6 C 0.6249(3) 0.7570(3) 0.2216(4)
C76_6 C 0.6106(3) 0.7778(3) 0.1984(4)
H50_6 H 0.592767 0.771686 0.186050
C77_6 C 0.6229(3) 0.8076(3) 0.1936(4)
C78_6 C 0.6496(4) 0.8167(3) 0.2120(5)
C79_6 C 0.6639(3) 0.7959(4) 0.2352(5)
C80_6 C 0.5680(3) 0.9584(3) 0.0927(3)
C81_6 C 0.6993(5) 0.7743(5) 0.2761(5)
H51_6 H 0.720356 0.766047 0.278180
H52_6 H 0.691989 0.780614 0.299298
C82_6 C 0.6779(5) 0.7508(6) 0.2603(7)
H53_6 H 0.669151 0.737785 0.278814
H54_6 H 0.689704 0.737335 0.244513
C83_6 C 0.5699(3) 0.9169(3) 0.1412(4)
H55_6 H 0.560342 0.931014 0.156518
C84_6 C 0.5734(3) 0.9245(3) 0.1058(4)
C85_6 C 0.5877(4) 0.9034(4) 0.0829(3)
H56_6 H 0.590046 0.908517 0.059175
C86_6 C 0.5985(4) 0.8748(3) 0.0954(3)
H57_6 H 0.608011 0.860734 0.080140
C87_6 C 0.5949(2) 0.8672(3) 0.1309(3)
C88_6 C 0.5807(2) 0.8883(3) 0.1538(3)
C89_6 C 0.5771(4) 0.8807(3) 0.1892(3)
H58_6 H 0.567589 0.894812 0.204520
C90_6 C 0.5879(4) 0.8521(4) 0.2018(4)
H59_6 H 0.585555 0.847029 0.225487
C91_6 C 0.6022(3) 0.8310(3) 0.1789(4)
C92_6 C 0.6057(3) 0.8386(3) 0.1435(4)
H60_6 H 0.615259 0.824530 0.128145
O33_6 O 0.51413(18) 0.96421(18) 0.5835(2)
H81_6 H 0.535256 0.961371 0.588565
H82_6 H 0.499211 0.951314 0.593960
O2_7 O 0.05033(19) 0.02541(18) 0.6373(2)
O8_7 O 0.01004(15) 0.40945(12) 0.51616(19)
C11_7 C 0.0399(2) 0.4059(2) 0.5201(3)
C12_7 C 0.03805(14) 0.31532(15) 0.5229(2)
H7_7 H 0.024506 0.298288 0.524017
C13_7 C 0.02610(15) 0.34550(18) 0.5201(2)
H8_7 H 0.004557 0.348653 0.519258
C14_7 C 0.04634(19) 0.37095(14) 0.5185(2)
C15_7 C 0.07853(18) 0.36624(13) 0.5197(2)
H9_7 H 0.092070 0.383271 0.518641
C16_7 C 0.09048(14) 0.33606(14) 0.52257(15)
C17_7 C 0.07024(14) 0.31060(12) 0.52418(15)
C18_7 C 0.0822(2) 0.28043(13) 0.5270(2)
H10_7 H 0.068650 0.263396 0.528110
C19_7 C 0.1144(2) 0.27571(19) 0.5283(3)
C20_7 C 0.13463(15) 0.3012(2) 0.5267(2)
H11_7 H 0.156164 0.298012 0.527493
C21_7 C 0.12267(13) 0.3313(2) 0.5238(2)
H12_7 H 0.136216 0.348376 0.522733
O11_7 O 0.1705(5) 0.1572(4) 0.5460(7)
H19_7 H 0.186257 0.163820 0.555896
C32_7 C 0.1516(3) 0.2339(4) 0.5100(4)
C33_7 C 0.1249(3) 0.2430(3) 0.5284(4)
C34_7 C 0.1106(3) 0.2222(3) 0.5516(4)
H20_7 H 0.092767 0.228314 0.563950
C35_7 C 0.1229(3) 0.1924(3) 0.5564(4)
C36_7 C 0.1496(4) 0.1833(3) 0.5380(5)
C37_7 C 0.1639(3) 0.2041(4) 0.5148(5)
C48_8 C 0.1981(5) 0.1981(5) 0.500000
C49_7 C 0.0680(3) 0.0416(3) 0.6573(3)
C50_7 C 0.1993(5) 0.2257(5) 0.4739(5)
H27_7 H 0.220356 0.233953 0.471820
H28_7 H 0.191989 0.219386 0.450702
C51_7 C 0.1779(5) 0.2492(6) 0.4897(7)
H31_7 H 0.169151 0.262215 0.471186
H32_7 H 0.189704 0.262665 0.505487
C53_7 C 0.0699(3) 0.0831(3) 0.6088(4)
H35_7 H 0.060342 0.068986 0.593482
C54_7 C 0.0734(3) 0.0755(3) 0.6442(4)
C55_7 C 0.0877(4) 0.0966(4) 0.6671(3)
H36_7 H 0.090046 0.091483 0.690825
C56_7 C 0.0985(4) 0.1252(3) 0.6546(3)
H37_7 H 0.108011 0.139266 0.669860
C57_7 C 0.0949(2) 0.1328(3) 0.6191(3)
C58_7 C 0.0807(2) 0.1117(3) 0.5962(3)
C59_7 C 0.0771(4) 0.1193(3) 0.5608(3)
H38_7 H 0.067589 0.105188 0.545480
C60_7 C 0.0879(4) 0.1479(4) 0.5482(4)
H39_7 H 0.085555 0.152971 0.524513
C61_7 C 0.1022(3) 0.1690(3) 0.5711(4)
C62_7 C 0.1057(3) 0.1614(3) 0.6065(4)
H40_7 H 0.115259 0.175470 0.621855
O18_7 O 0.03418(18) 0.08224(19) 0.3148(2)
C63_7 C 0.4059(2) 0.0399(2) 0.4799(3)
C64_7 C 0.31532(15) 0.03805(14) 0.4771(2)
H43_7 H 0.298288 0.024506 0.475983
C65_7 C 0.34550(18) 0.02610(15) 0.4799(2)
H44_7 H 0.348653 0.004557 0.480742
C66_7 C 0.37095(14) 0.04634(19) 0.4815(2)
C67_7 C 0.36624(13) 0.07853(18) 0.4803(2)
H45_7 H 0.383271 0.092070 0.481359
C68_7 C 0.33606(14) 0.09048(14) 0.47743(15)
C69_7 C 0.31060(12) 0.07024(14) 0.47582(15)
C70_7 C 0.28043(13) 0.0822(2) 0.4730(2)
H46_7 H 0.263396 0.068650 0.471890
C71_7 C 0.27571(19) 0.1144(2) 0.4717(3)
C72_7 C 0.3012(2) 0.13463(15) 0.4733(2)
H47_7 H 0.298012 0.156164 0.472507
C73_7 C 0.3313(2) 0.12267(13) 0.4762(2)
H48_7 H 0.348376 0.136216 0.477267
O21_7 O 0.43118(15) 0.05844(16) 0.4881(2)
O22_7 O 0.1572(4) 0.1705(5) 0.4540(7)
H49_7 H 0.163820 0.186257 0.444104
C74_7 C 0.2339(4) 0.1516(3) 0.4900(4)
C75_7 C 0.2430(3) 0.1249(3) 0.4716(4)
C76_7 C 0.2222(3) 0.1106(3) 0.4484(4)
H50_7 H 0.228314 0.092767 0.436050
C77_7 C 0.1924(3) 0.1229(3) 0.4436(4)
C78_7 C 0.1833(3) 0.1496(4) 0.4620(5)
C79_7 C 0.2041(4) 0.1639(3) 0.4852(5)
C80_7 C 0.0416(3) 0.0680(3) 0.3427(3)
C81_7 C 0.2257(5) 0.1993(5) 0.5261(5)
H51_7 H 0.233953 0.220356 0.528180
H52_7 H 0.219386 0.191989 0.549298
C82_7 C 0.2492(6) 0.1779(5) 0.5103(7)
H53_7 H 0.262215 0.169151 0.528814
H54_7 H 0.262665 0.189704 0.494513
C83_7 C 0.0831(3) 0.0699(3) 0.3912(4)
H55_7 H 0.068986 0.060342 0.406518
C84_7 C 0.0755(3) 0.0734(3) 0.3558(4)
C85_7 C 0.0966(4) 0.0877(4) 0.3329(3)
H56_7 H 0.091483 0.090046 0.309175
C86_7 C 0.1252(3) 0.0985(4) 0.3454(3)
H57_7 H 0.139266 0.108011 0.330140
C87_7 C 0.1328(3) 0.0949(2) 0.3809(3)
C88_7 C 0.1117(3) 0.0807(2) 0.4038(3)
C89_7 C 0.1193(3) 0.0771(4) 0.4392(3)
H58_7 H 0.105188 0.067589 0.454520
C90_7 C 0.1479(4) 0.0879(4) 0.4518(4)
H59_7 H 0.152971 0.085555 0.475487
C91_7 C 0.1690(3) 0.1022(3) 0.4289(4)
C92_7 C 0.1614(3) 0.1057(3) 0.3935(4)
H60_7 H 0.175470 0.115259 0.378145
O33_7 O 0.03579(18) 0.01413(18) 0.8335(2)
H81_7 H 0.038629 0.035256 0.838565
O17_7 O 0.01602(19) 0.9545(2) 0.6374(3)
H41_7 H 0.034799 0.944980 0.643745
H42_7 H 0.003652 0.945717 0.619781
H82_7 H 0.048686 0.999211 0.843960
H30_7 H 0.951314 0.000789 0.843960
O34_7 O 0.98398(19) 0.0455(2) 0.6374(3)
H83_7 H 0.965201 0.055020 0.643745
H84_7 H 0.996348 0.054283 0.619781
Zr17_7 Zr 0.97825(2) 0.44865(2) 0.51731(3)
O37_7 O 0.95997(12) 0.01846(13) 0.69493(16)
O38_7 O 0.96430(9) 0.01623(8) 0.76678(13)
O47_7 O 0.97732(14) 0.04318(19) 0.8262(2)
O12_7 O 0.96421(18) 0.98587(18) 0.8335(2)
H29_7 H 0.961371 0.964744 0.838565
O2_8 O 0.44967(19) 0.47459(18) 0.1373(2)
O8_8 O 0.48996(15) 0.09055(12) 0.01616(19)
C11_8 C 0.4601(2) 0.0941(2) 0.0201(3)
C12_8 C 0.46195(14) 0.18468(15) 0.0229(2)
H7_8 H 0.475494 0.201712 0.024017
C13_8 C 0.47390(15) 0.15450(18) 0.0201(2)
H8_8 H 0.495443 0.151347 0.019258
C14_8 C 0.45366(19) 0.12905(14) 0.0185(2)
C15_8 C 0.42147(18) 0.13376(13) 0.0197(2)
H9_8 H 0.407930 0.116729 0.018641
C16_8 C 0.40952(14) 0.16394(14) 0.02257(15)
C17_8 C 0.42976(14) 0.18940(12) 0.02418(15)
C18_8 C 0.4178(2) 0.21957(13) 0.0270(2)
H10_8 H 0.431350 0.236604 0.028110
C19_8 C 0.3856(2) 0.22429(19) 0.0283(3)
C20_8 C 0.36537(15) 0.1988(2) 0.0267(2)
H11_8 H 0.343836 0.201988 0.027493
C21_8 C 0.37733(13) 0.1687(2) 0.0238(2)
H12_8 H 0.363784 0.151624 0.022733
O11_8 O 0.3295(5) 0.3428(4) 0.0460(7)
H19_8 H 0.313743 0.336180 0.055896
C32_8 C 0.3484(3) 0.2661(4) 0.0100(4)
C33_8 C 0.3751(3) 0.2570(3) 0.0284(4)
C34_8 C 0.3894(3) 0.2778(3) 0.0516(4)
H20_8 H 0.407233 0.271686 0.063950
C35_8 C 0.3771(3) 0.3076(3) 0.0564(4)
C36_8 C 0.3504(4) 0.3167(3) 0.0380(5)
C37_8 C 0.3361(3) 0.2959(4) 0.0148(5)
C48_9 C 0.3019(5) 0.3019(5) 0.000000
C49_8 C 0.4320(3) 0.4584(3) 0.1573(3)
O12_8 O 0.53579(18) 0.51413(18) 0.3335(2)
H29_8 H 0.538629 0.535256 0.338565
H30_8 H 0.548686 0.499211 0.343960
H32_8 H 0.310296 0.237335 0.005487
C53_8 C 0.4301(3) 0.4169(3) 0.1088(4)
H35_8 H 0.439658 0.431014 0.093482
C54_8 C 0.4266(3) 0.4245(3) 0.1442(4)
C55_8 C 0.4123(4) 0.4034(4) 0.1671(3)
H36_8 H 0.409954 0.408517 0.190825
C56_8 C 0.4015(4) 0.3748(3) 0.1546(3)
H37_8 H 0.391989 0.360734 0.169860
C57_8 C 0.4051(2) 0.3672(3) 0.1191(3)
C58_8 C 0.4193(2) 0.3883(3) 0.0962(3)
C59_8 C 0.4229(4) 0.3807(3) 0.0608(3)
H38_8 H 0.432411 0.394812 0.045480
C60_8 C 0.4121(4) 0.3521(4) 0.0482(4)
H39_8 H 0.414445 0.347029 0.024513
C61_8 C 0.3978(3) 0.3310(3) 0.0711(4)
C62_8 C 0.3943(3) 0.3386(3) 0.1065(4)
H40_8 H 0.384741 0.324530 0.121855
O17_8 O 0.48398(19) 0.5455(2) 0.1374(3)
H41_8 H 0.465201 0.555020 0.143745
H42_8 H 0.496348 0.554283 0.119781
C81_8 C 0.2743(5) 0.3007(5) 0.0261(5)
H51_8 H 0.266047 0.279644 0.028180
H52_8 H 0.280614 0.308011 0.049298
C82_8 C 0.2508(6) 0.3221(5) 0.0103(7)
H53_8 H 0.237785 0.330849 0.028814
O33_8 O 0.46421(18) 0.48587(18) 0.3335(2)
H81_8 H 0.461371 0.464744 0.338565
H82_8 H 0.451314 0.500789 0.343960
O34_8 O 0.51602(19) 0.4545(2) 0.1374(3)
H83_8 H 0.534799 0.444980 0.143745
H84_8 H 0.503652 0.445717 0.119781
Zr17_8 Zr 0.52175(2) 0.05135(2) 0.01731(3)
O37_8 O 0.54003(12) 0.48154(13) 0.19493(16)
O38_8 O 0.53570(9) 0.48377(8) 0.26678(13)
O47_8 O 0.52268(14) 0.45682(19) 0.3262(2)
C48_10 C 0.3019(5) 0.3019(5) 1.000000
C50_8 C 0.3007(5) 0.2743(5) 0.9739(5)
H27_8 H 0.279644 0.266047 0.971820
H28_8 H 0.308011 0.280614 0.950702
C51_8 C 0.3221(5) 0.2508(6) 0.9897(7)
H31_8 H 0.330849 0.237785 0.971186
O18_8 O 0.46582(18) 0.41776(19) 0.8148(2)
C63_8 C 0.0941(2) 0.4601(2) 0.9799(3)
C64_8 C 0.18468(15) 0.46195(14) 0.9771(2)
H43_8 H 0.201712 0.475494 0.975983
C65_8 C 0.15450(18) 0.47390(15) 0.9799(2)
H44_8 H 0.151347 0.495443 0.980742
C66_8 C 0.12905(14) 0.45366(19) 0.9815(2)
C67_8 C 0.13376(13) 0.42147(18) 0.9803(2)
H45_8 H 0.116729 0.407930 0.981359
C68_8 C 0.16394(14) 0.40952(14) 0.97743(15)
C69_8 C 0.18940(12) 0.42976(14) 0.97582(15)
C70_8 C 0.21957(13) 0.4178(2) 0.9730(2)
H46_8 H 0.236604 0.431350 0.971890
C71_8 C 0.22429(19) 0.3856(2) 0.9717(3)
C72_8 C 0.1988(2) 0.36537(15) 0.9733(2)
H47_8 H 0.201988 0.343836 0.972507
C73_8 C 0.1687(2) 0.37733(13) 0.9762(2)
H48_8 H 0.151624 0.363784 0.977267
O21_8 O 0.06882(15) 0.44156(16) 0.9881(2)
O22_8 O 0.3428(4) 0.3295(5) 0.9540(7)
H49_8 H 0.336180 0.313743 0.944104
C74_8 C 0.2661(4) 0.3484(3) 0.9900(4)
C75_8 C 0.2570(3) 0.3751(3) 0.9716(4)
C76_8 C 0.2778(3) 0.3894(3) 0.9484(4)
H50_8 H 0.271686 0.407233 0.936050
C77_8 C 0.3076(3) 0.3771(3) 0.9436(4)
C78_8 C 0.3167(3) 0.3504(4) 0.9620(5)
C79_8 C 0.2959(4) 0.3361(3) 0.9852(5)
C80_8 C 0.4584(3) 0.4320(3) 0.8427(3)
H54_8 H 0.237335 0.310296 0.994513
C83_8 C 0.4169(3) 0.4301(3) 0.8912(4)
H55_8 H 0.431014 0.439658 0.906518
C84_8 C 0.4245(3) 0.4266(3) 0.8558(4)
C85_8 C 0.4034(4) 0.4123(4) 0.8329(3)
H56_8 H 0.408517 0.409954 0.809175
C86_8 C 0.3748(3) 0.4015(4) 0.8454(3)
H57_8 H 0.360734 0.391989 0.830140
C87_8 C 0.3672(3) 0.4051(2) 0.8809(3)
C88_8 C 0.3883(3) 0.4193(2) 0.9038(3)
C89_8 C 0.3807(3) 0.4229(4) 0.9392(3)
H58_8 H 0.394812 0.432411 0.954520
C90_8 C 0.3521(4) 0.4121(4) 0.9518(4)
H59_8 H 0.347029 0.414445 0.975487
C91_8 C 0.3310(3) 0.3978(3) 0.9289(4)
C92_8 C 0.3386(3) 0.3943(3) 0.8935(4)
H60_8 H 0.324530 0.384741 0.878145
O13_5 O 0.03530(11) 0.08193(10) 0.22259(17)
H33_5 H 0.056512 0.084518 0.217811
H34_5 H 0.020402 0.090810 0.207749
O31_5 O 0.46470(11) 0.08193(10) 0.52741(17)
H79_5 H 0.443488 0.084518 0.532189
H80_5 H 0.479598 0.090810 0.542251
O39_3 O 0.50814(16) 0.09534(14) 0.4777(2)
O45_3 O 0.56211(15) 0.07590(13) 0.47564(19)
O49_3 O 0.58216(15) 0.02748(16) 0.5317(2)
O32_5 O 0.55813(9) 0.98809(10) 0.51655(16)
O5_5 O 0.83804(14) 0.35384(10) 0.29613(16)
H1_5 H 0.832676 0.355176 0.316848
C1_5 C 0.80750(17) 0.27741(15) 0.2248(2)
H2_5 H 0.786749 0.270803 0.217508
H3_5 H 0.819606 0.282676 0.203949
O6_5 O 0.99186(16) 0.09534(14) 0.2723(2)
C2_5 C 0.82367(18) 0.25174(18) 0.2460(2)
H4_5 H 0.808981 0.240468 0.260791
H5_5 H 0.834545 0.237041 0.230769
C3_6 C 0.80554(17) 0.30554(17) 0.250000
C4_5 C 0.87407(12) 0.26257(9) 0.28445(16)
C5_5 C 0.89072(10) 0.28454(12) 0.30395(15)
H6_5 H 0.909233 0.278820 0.315148
C6_5 C 0.87969(11) 0.31508(11) 0.30671(15)
C7_5 C 0.85202(12) 0.32363(8) 0.28997(16)
C8_5 C 0.83537(10) 0.30166(11) 0.27047(15)
C9_5 C 0.84640(11) 0.27112(10) 0.26771(15)
C10_5 C 0.9605(3) 0.0962(3) 0.2736(3)
C22_5 C 0.91630(15) 0.13603(10) 0.27973(18)
H13_5 H 0.902269 0.119621 0.282946
C23_5 C 0.94769(15) 0.12977(13) 0.27307(19)
C24_5 C 0.96866(12) 0.15430(16) 0.26826(18)
H14_5 H 0.989668 0.150110 0.263798
C25_5 C 0.95824(11) 0.18510(15) 0.27011(18)
H15_5 H 0.972270 0.201513 0.266888
C26_5 C 0.92685(11) 0.19136(10) 0.27677(11)
C27_5 C 0.90588(11) 0.16683(10) 0.28158(12)
C28_5 C 0.87448(11) 0.17310(14) 0.28824(17)
H16_5 H 0.860451 0.156681 0.291460
C29_5 C 0.86406(12) 0.20389(15) 0.29009(16)
H17_5 H 0.843052 0.208083 0.294551
C30_5 C 0.88503(16) 0.22843(12) 0.28528(16)
C31_5 C 0.91642(15) 0.22216(10) 0.27862(17)
H18_5 H 0.930450 0.238575 0.275403
O10_5 O 0.93789(15) 0.07590(13) 0.27436(19)
C38_5 C 0.92303(15) 0.39041(15) 0.32970(17)
H21_5 H 0.928207 0.409272 0.318898
C39_5 C 0.90719(15) 0.36744(19) 0.31081(17)
H22_5 H 0.901774 0.370928 0.287371
C40_5 C 0.89944(13) 0.33925(16) 0.3269(2)
C41_5 C 0.90754(13) 0.33404(12) 0.3620(2)
H23_5 H 0.902357 0.315178 0.372773
C42_5 C 0.92338(10) 0.35701(11) 0.38086(17)
C43_5 C 0.93112(10) 0.38520(11) 0.36473(17)
C44_5 C 0.94696(13) 0.40817(12) 0.3836(2)
H24_5 H 0.952138 0.427031 0.372814
C45_5 C 0.95505(13) 0.40296(17) 0.4186(2)
C46_5 C 0.94731(14) 0.37477(19) 0.43478(17)
H25_5 H 0.952722 0.371283 0.458218
C47_5 C 0.93147(14) 0.35180(15) 0.41589(17)
H26_5 H 0.926289 0.332938 0.426692
C52_5 C 0.9701(3) 0.4295(3) 0.4395(4)
O15_3 O 0.97252(16) 0.41784(15) 0.4683(2)
O23_5 O 0.85384(10) 0.33804(14) 0.20387(16)
H61_5 H 0.855176 0.332676 0.183152
C93_5 C 0.77741(15) 0.30750(17) 0.2752(2)
H62_5 H 0.770803 0.286749 0.282492
H63_5 H 0.782676 0.319606 0.296051
O24_3 O 0.59534(14) 0.49186(16) 0.2277(2)
C94_5 C 0.75174(18) 0.32367(18) 0.2540(2)
H64_5 H 0.740468 0.308981 0.239209
H65_5 H 0.737041 0.334545 0.269231
C95_5 C 0.76257(9) 0.37407(12) 0.21555(16)
C96_5 C 0.78454(12) 0.39072(10) 0.19605(15)
H66_5 H 0.778820 0.409233 0.184852
C97_5 C 0.81508(11) 0.37969(11) 0.19329(15)
C98_5 C 0.82363(8) 0.35202(12) 0.21003(16)
C99_5 C 0.80166(11) 0.33537(10) 0.22953(15)
C100_5 C 0.77112(10) 0.34640(11) 0.23229(15)
C101_5 C 0.5962(3) 0.4605(3) 0.2264(3)
C102_5 C 0.63603(10) 0.41630(15) 0.22027(18)
H67_5 H 0.619621 0.402269 0.217054
C103_5 C 0.62977(13) 0.44769(15) 0.22693(19)
C104_5 C 0.65430(16) 0.46866(12) 0.23174(18)
H68_5 H 0.650110 0.489668 0.236202
C105_5 C 0.68510(15) 0.45824(11) 0.22989(18)
H69_5 H 0.701513 0.472270 0.233112
C106_5 C 0.69136(10) 0.42685(11) 0.22323(11)
C107_5 C 0.66683(10) 0.40588(11) 0.21842(12)
C108_5 C 0.67310(14) 0.37448(11) 0.21176(17)
H70_5 H 0.656681 0.360451 0.208540
C109_5 C 0.70389(15) 0.36406(12) 0.20991(16)
H71_5 H 0.708083 0.343052 0.205449
C110_5 C 0.72843(12) 0.38503(16) 0.21472(16)
C111_5 C 0.72216(10) 0.41642(15) 0.22138(17)
H72_5 H 0.738575 0.430450 0.224597
O25_3 O 0.57590(13) 0.43789(15) 0.22564(19)
C112_5 C 0.89041(15) 0.42303(15) 0.17030(17)
H73_5 H 0.909272 0.428207 0.181102
C113_5 C 0.86744(19) 0.40719(15) 0.18919(17)
H74_5 H 0.870928 0.401774 0.212629
C114_5 C 0.83925(16) 0.39944(13) 0.1731(2)
C115_5 C 0.83404(12) 0.40754(13) 0.1380(2)
H75_5 H 0.815178 0.402357 0.127227
C116_5 C 0.85701(11) 0.42338(10) 0.11914(17)
C117_5 C 0.88520(11) 0.43112(10) 0.13527(17)
C118_5 C 0.90817(12) 0.44696(13) 0.1164(2)
H76_5 H 0.927031 0.452138 0.127186
C119_5 C 0.90296(17) 0.45505(13) 0.0814(2)
C120_5 C 0.87477(19) 0.44731(14) 0.06522(17)
H77_5 H 0.871283 0.452722 0.041782
C121_5 C 0.85180(15) 0.43147(14) 0.08411(17)
H78_5 H 0.832938 0.426289 0.073308
C122_5 C 0.9295(3) 0.4701(3) 0.0605(4)
O27_3 O 0.91784(15) 0.47252(16) 0.0317(2)
O48_3 O 0.91784(15) 0.02748(16) 0.2183(2)
O16_5 O 0.94187(9) 0.98809(10) 0.23345(16)
O31_6 O 0.03530(11) 0.41807(10) 0.02741(17)
H79_6 H 0.056512 0.415482 0.032189
H80_6 H 0.020402 0.409190 0.042251
O5_6 O 0.66196(14) 0.14616(10) 0.79613(16)
H1_6 H 0.667324 0.144824 0.816848
C1_6 C 0.69250(17) 0.22259(15) 0.7248(2)
H2_6 H 0.713251 0.229197 0.717508
H3_6 H 0.680394 0.217324 0.703949
O6_6 O 0.50814(16) 0.40466(14) 0.7723(2)
C2_6 C 0.67633(18) 0.24826(18) 0.7460(2)
H4_6 H 0.691019 0.259532 0.760791
H5_6 H 0.665455 0.262959 0.730769
C3_7 C 0.69446(17) 0.19446(17) 0.750000
C4_6 C 0.62593(12) 0.23743(9) 0.78445(16)
C5_6 C 0.60928(10) 0.21546(12) 0.80395(15)
H6_6 H 0.590767 0.221180 0.815148
C6_6 C 0.62031(11) 0.18492(11) 0.80671(15)
C7_6 C 0.64798(12) 0.17637(8) 0.78997(16)
C8_6 C 0.66463(10) 0.19834(11) 0.77047(15)
C9_6 C 0.65360(11) 0.22888(10) 0.76771(15)
C10_6 C 0.5395(3) 0.4038(3) 0.7736(3)
C22_6 C 0.58370(15) 0.36397(10) 0.77973(18)
H13_6 H 0.597731 0.380379 0.782946
C23_6 C 0.55231(15) 0.37023(13) 0.77307(19)
C24_6 C 0.53134(12) 0.34570(16) 0.76826(18)
H14_6 H 0.510332 0.349890 0.763798
C25_6 C 0.54176(11) 0.31490(15) 0.77011(18)
H15_6 H 0.527730 0.298487 0.766888
C26_6 C 0.57315(11) 0.30864(10) 0.77677(11)
C27_6 C 0.59412(11) 0.33317(10) 0.78158(12)
C28_6 C 0.62552(11) 0.32690(14) 0.78824(17)
H16_6 H 0.639549 0.343319 0.791460
C29_6 C 0.63594(12) 0.29611(15) 0.79009(16)
H17_6 H 0.656948 0.291917 0.794551
C30_6 C 0.61497(16) 0.27157(12) 0.78528(16)
C31_6 C 0.58358(15) 0.27784(10) 0.77862(17)
H18_6 H 0.569550 0.261425 0.775403
O10_6 O 0.56211(15) 0.42410(13) 0.77436(19)
C38_6 C 0.57697(15) 0.10959(15) 0.82970(17)
H21_6 H 0.571793 0.090728 0.818898
C39_6 C 0.59281(15) 0.13256(19) 0.81081(17)
H22_6 H 0.598226 0.129072 0.787371
C40_6 C 0.60056(13) 0.16075(16) 0.8269(2)
C41_6 C 0.59246(13) 0.16596(12) 0.8620(2)
H23_6 H 0.597643 0.184822 0.872773
C42_6 C 0.57662(10) 0.14299(11) 0.88086(17)
C43_6 C 0.56888(10) 0.11480(11) 0.86473(17)
C44_6 C 0.55304(13) 0.09183(12) 0.8836(2)
H24_6 H 0.547862 0.072969 0.872814
C45_6 C 0.54495(13) 0.09704(17) 0.9186(2)
C46_6 C 0.55269(14) 0.12523(19) 0.93478(17)
H25_6 H 0.547278 0.128717 0.958218
C47_6 C 0.56853(14) 0.14820(15) 0.91589(17)
H26_6 H 0.573711 0.167062 0.926692
O13_6 O 0.46470(11) 0.41807(10) 0.72259(17)
H33_6 H 0.443488 0.415482 0.717811
H34_6 H 0.479598 0.409190 0.707749
C52_6 C 0.5299(3) 0.0705(3) 0.9395(4)
O15_4 O 0.52748(16) 0.08216(15) 0.9683(2)
O16_6 O 0.55813(9) 0.51191(10) 0.73345(16)
O23_6 O 0.64616(10) 0.16196(14) 0.70387(16)
H61_6 H 0.644824 0.167324 0.683152
C93_6 C 0.72259(15) 0.19250(17) 0.7752(2)
H62_6 H 0.729197 0.213251 0.782492
H63_6 H 0.717324 0.180394 0.796051
O24_4 O 0.90466(14) 0.00814(16) 0.7277(2)
C94_6 C 0.74826(18) 0.17633(18) 0.7540(2)
H64_6 H 0.759532 0.191019 0.739209
H65_6 H 0.762959 0.165455 0.769231
C95_6 C 0.73743(9) 0.12593(12) 0.71555(16)
C96_6 C 0.71546(12) 0.10928(10) 0.69605(15)
H66_6 H 0.721180 0.090767 0.684852
C97_6 C 0.68492(11) 0.12031(11) 0.69329(15)
C98_6 C 0.67637(8) 0.14798(12) 0.71003(16)
C99_6 C 0.69834(11) 0.16463(10) 0.72953(15)
C100_6 C 0.72888(10) 0.15360(11) 0.73229(15)
C101_6 C 0.9038(3) 0.0395(3) 0.7264(3)
C102_6 C 0.86397(10) 0.08370(15) 0.72027(18)
H67_6 H 0.880379 0.097731 0.717054
C103_6 C 0.87023(13) 0.05231(15) 0.72693(19)
C104_6 C 0.84570(16) 0.03134(12) 0.73174(18)
H68_6 H 0.849890 0.010332 0.736202
C105_6 C 0.81490(15) 0.04176(11) 0.72989(18)
H69_6 H 0.798487 0.027730 0.733112
C106_6 C 0.80864(10) 0.07315(11) 0.72323(11)
C107_6 C 0.83317(10) 0.09412(11) 0.71842(12)
C108_6 C 0.82690(14) 0.12552(11) 0.71176(17)
H70_6 H 0.843319 0.139549 0.708540
C109_6 C 0.79611(15) 0.13594(12) 0.70991(16)
H71_6 H 0.791917 0.156948 0.705449
C110_6 C 0.77157(12) 0.11497(16) 0.71472(16)
C111_6 C 0.77784(10) 0.08358(15) 0.72138(17)
H72_6 H 0.761425 0.069550 0.724597
O25_4 O 0.92410(13) 0.06211(15) 0.72564(19)
C112_6 C 0.60959(15) 0.07697(15) 0.67030(17)
H73_6 H 0.590728 0.071793 0.681102
C113_6 C 0.63256(19) 0.09281(15) 0.68919(17)
H74_6 H 0.629072 0.098226 0.712629
C114_6 C 0.66075(16) 0.10056(13) 0.6731(2)
C115_6 C 0.66596(12) 0.09246(13) 0.6380(2)
H75_6 H 0.684822 0.097643 0.627227
C116_6 C 0.64299(11) 0.07662(10) 0.61914(17)
C117_6 C 0.61480(11) 0.06888(10) 0.63527(17)
C118_6 C 0.59183(12) 0.05304(13) 0.6164(2)
H76_6 H 0.572969 0.047862 0.627186
C119_6 C 0.59704(17) 0.04495(13) 0.5814(2)
C120_6 C 0.62523(19) 0.05269(14) 0.56522(17)
H77_6 H 0.628717 0.047278 0.541782
C121_6 C 0.64820(15) 0.06853(14) 0.58411(17)
H78_6 H 0.667062 0.073711 0.573308
C122_6 C 0.5705(3) 0.0299(3) 0.5605(4)
O48_4 O 0.58216(15) 0.47252(16) 0.7183(2)
O32_6 O 0.94187(9) 0.51191(10) 0.01655(16)
O39_4 O 0.99186(16) 0.40466(14) 0.9777(2)
O45_4 O 0.93789(15) 0.42410(13) 0.97564(19)
O32_7 O 0.01191(10) 0.05813(9) 0.76655(16)
O16_7 O 0.01191(10) 0.44187(9) 0.48345(16)
O49_4 O 0.97252(16) 0.08216(15) 0.7817(2)
O5_7 O 0.64616(10) 0.33804(14) 0.54613(16)
H1_7 H 0.644824 0.332676 0.566848
C1_7 C 0.72259(15) 0.30750(17) 0.4748(2)
H2_7 H 0.729197 0.286749 0.467508
H3_7 H 0.717324 0.319606 0.453949
O6_7 O 0.90466(14) 0.49186(16) 0.5223(2)
C2_7 C 0.74826(18) 0.32367(18) 0.4960(2)
H4_7 H 0.759532 0.308981 0.510791
H5_7 H 0.762959 0.334545 0.480769
C3_8 C 0.69446(17) 0.30554(17) 0.500000
C4_7 C 0.73743(9) 0.37407(12) 0.53445(16)
C5_7 C 0.71546(12) 0.39072(10) 0.55395(15)
H6_7 H 0.721180 0.409233 0.565148
C6_7 C 0.68492(11) 0.37969(11) 0.55671(15)
C7_7 C 0.67637(8) 0.35202(12) 0.53997(16)
C8_7 C 0.69834(11) 0.33537(10) 0.52047(15)
C9_7 C 0.72888(10) 0.34640(11) 0.51771(15)
C10_7 C 0.9038(3) 0.4605(3) 0.5236(3)
C22_7 C 0.86397(10) 0.41630(15) 0.52973(18)
H13_7 H 0.880379 0.402269 0.532946
C23_7 C 0.87023(13) 0.44769(15) 0.52307(19)
C24_7 C 0.84570(16) 0.46866(12) 0.51826(18)
H14_7 H 0.849890 0.489668 0.513798
C25_7 C 0.81490(15) 0.45824(11) 0.52011(18)
H15_7 H 0.798487 0.472270 0.516888
C26_7 C 0.80864(10) 0.42685(11) 0.52677(11)
C27_7 C 0.83317(10) 0.40588(11) 0.53158(12)
C28_7 C 0.82690(14) 0.37448(11) 0.53824(17)
H16_7 H 0.843319 0.360451 0.541460
C29_7 C 0.79611(15) 0.36406(12) 0.54009(16)
H17_7 H 0.791917 0.343052 0.544551
C30_7 C 0.77157(12) 0.38503(16) 0.53528(16)
C31_7 C 0.77784(10) 0.41642(15) 0.52862(17)
H18_7 H 0.761425 0.430450 0.525403
O10_7 O 0.92410(13) 0.43789(15) 0.52436(19)
C38_7 C 0.60959(15) 0.42303(15) 0.57970(17)
H21_7 H 0.590728 0.428207 0.568898
C39_7 C 0.63256(19) 0.40719(15) 0.56081(17)
H22_7 H 0.629072 0.401774 0.537371
C40_7 C 0.66075(16) 0.39944(13) 0.5769(2)
C41_7 C 0.66596(12) 0.40754(13) 0.6120(2)
H23_7 H 0.684822 0.402357 0.622773
C42_7 C 0.64299(11) 0.42338(10) 0.63086(17)
C43_7 C 0.61480(11) 0.43112(10) 0.61473(17)
C44_7 C 0.59183(12) 0.44696(13) 0.6336(2)
H24_7 H 0.572969 0.452138 0.622814
C45_7 C 0.59704(17) 0.45505(13) 0.6686(2)
C46_7 C 0.62523(19) 0.44731(14) 0.68478(17)
H25_7 H 0.628717 0.452722 0.708218
C47_7 C 0.64820(15) 0.43147(14) 0.66589(17)
H26_7 H 0.667062 0.426289 0.676692
O13_7 O 0.91807(10) 0.53530(11) 0.47259(17)
H33_7 H 0.915482 0.556512 0.467811
H34_7 H 0.909190 0.520402 0.457749
C52_7 C 0.5705(3) 0.4701(3) 0.6895(4)
O23_7 O 0.66196(14) 0.35384(10) 0.45387(16)
H61_7 H 0.667324 0.355176 0.433152
C93_7 C 0.69250(17) 0.27741(15) 0.5252(2)
H62_7 H 0.713251 0.270803 0.532492
H63_7 H 0.680394 0.282676 0.546051
C94_7 C 0.67633(18) 0.25174(18) 0.5040(2)
H64_7 H 0.691019 0.240468 0.489209
H65_7 H 0.665455 0.237041 0.519231
C95_7 C 0.62593(12) 0.26257(9) 0.46555(16)
C96_7 C 0.60928(10) 0.28454(12) 0.44605(15)
H66_7 H 0.590767 0.278820 0.434852
C97_7 C 0.62031(11) 0.31508(11) 0.44329(15)
C98_7 C 0.64798(12) 0.32363(8) 0.46003(16)
C99_7 C 0.66463(10) 0.30166(11) 0.47953(15)
C100_7 C 0.65360(11) 0.27112(10) 0.48229(15)
C101_7 C 0.5395(3) 0.0962(3) 0.4764(3)
C102_7 C 0.58370(15) 0.13603(10) 0.47027(18)
H67_7 H 0.597731 0.119621 0.467054
C103_7 C 0.55231(15) 0.12977(13) 0.47693(19)
C104_7 C 0.53134(12) 0.15430(16) 0.48174(18)
H68_7 H 0.510332 0.150110 0.486202
C105_7 C 0.54176(11) 0.18510(15) 0.47989(18)
H69_7 H 0.527730 0.201513 0.483112
C106_7 C 0.57315(11) 0.19136(10) 0.47323(11)
C107_7 C 0.59412(11) 0.16683(10) 0.46842(12)
C108_7 C 0.62552(11) 0.17310(14) 0.46176(17)
H70_7 H 0.639549 0.156681 0.458540
C109_7 C 0.63594(12) 0.20389(15) 0.45991(16)
H71_7 H 0.656948 0.208083 0.455449
C110_7 C 0.61497(16) 0.22843(12) 0.46472(16)
C111_7 C 0.58358(15) 0.22216(10) 0.47138(17)
H72_7 H 0.569550 0.238575 0.474597
C112_7 C 0.57697(15) 0.39041(15) 0.42030(17)
H73_7 H 0.571793 0.409272 0.431102
C113_7 C 0.59281(15) 0.36744(19) 0.43919(17)
H74_7 H 0.598226 0.370928 0.462629
C114_7 C 0.60056(13) 0.33925(16) 0.4231(2)
C115_7 C 0.59246(13) 0.33404(12) 0.3880(2)
H75_7 H 0.597643 0.315178 0.377227
C116_7 C 0.57662(10) 0.35701(11) 0.36914(17)
C117_7 C 0.56888(10) 0.38520(11) 0.38527(17)
C118_7 C 0.55304(13) 0.40817(12) 0.3664(2)
H76_7 H 0.547862 0.427031 0.377186
C119_7 C 0.54495(13) 0.40296(17) 0.3314(2)
C120_7 C 0.55269(14) 0.37477(19) 0.31522(17)
H77_7 H 0.547278 0.371283 0.291782
C121_7 C 0.56853(14) 0.35180(15) 0.33411(17)
H78_7 H 0.573711 0.332938 0.323308
C122_7 C 0.5299(3) 0.4295(3) 0.3105(4)
O27_4 O 0.52748(16) 0.41784(15) 0.2817(2)
O31_7 O 0.91807(10) 0.96470(11) 0.77741(17)
H79_7 H 0.915482 0.943488 0.782189
H80_7 H 0.909190 0.979598 0.792251
O5_8 O 0.85384(10) 0.16196(14) 0.04613(16)
H1_8 H 0.855176 0.167324 0.066848
O6_8 O 0.59534(14) 0.00814(16) 0.0223(2)
H4_8 H 0.740468 0.191019 0.010791
C3_9 C 0.80554(17) 0.19446(17) 0.000000
C4_8 C 0.76257(9) 0.12593(12) 0.03445(16)
C5_8 C 0.78454(12) 0.10928(10) 0.05395(15)
H6_8 H 0.778820 0.090767 0.065148
C6_8 C 0.81508(11) 0.12031(11) 0.05671(15)
C7_8 C 0.82363(8) 0.14798(12) 0.03997(16)
C8_8 C 0.80166(11) 0.16463(10) 0.02047(15)
C9_8 C 0.77112(10) 0.15360(11) 0.01771(15)
C10_8 C 0.5962(3) 0.0395(3) 0.0236(3)
C22_8 C 0.63603(10) 0.08370(15) 0.02973(18)
H13_8 H 0.619621 0.097731 0.032946
C23_8 C 0.62977(13) 0.05231(15) 0.02307(19)
C24_8 C 0.65430(16) 0.03134(12) 0.01826(18)
H14_8 H 0.650110 0.010332 0.013798
C25_8 C 0.68510(15) 0.04176(11) 0.02011(18)
H15_8 H 0.701513 0.027730 0.016888
C26_8 C 0.69136(10) 0.07315(11) 0.02677(11)
C27_8 C 0.66683(10) 0.09412(11) 0.03158(12)
C28_8 C 0.67310(14) 0.12552(11) 0.03824(17)
H16_8 H 0.656681 0.139549 0.041460
C29_8 C 0.70389(15) 0.13594(12) 0.04009(16)
H17_8 H 0.708083 0.156948 0.044551
C30_8 C 0.72843(12) 0.11497(16) 0.03528(16)
C31_8 C 0.72216(10) 0.08358(15) 0.02862(17)
H18_8 H 0.738575 0.069550 0.025403
O10_8 O 0.57590(13) 0.06211(15) 0.02436(19)
C38_8 C 0.89041(15) 0.07697(15) 0.07970(17)
H21_8 H 0.909272 0.071793 0.068898
C39_8 C 0.86744(19) 0.09281(15) 0.06081(17)
H22_8 H 0.870928 0.098226 0.037371
C40_8 C 0.83925(16) 0.10056(13) 0.0769(2)
C41_8 C 0.83404(12) 0.09246(13) 0.1120(2)
H23_8 H 0.815178 0.097643 0.122773
C42_8 C 0.85701(11) 0.07662(10) 0.13086(17)
C43_8 C 0.88520(11) 0.06888(10) 0.11473(17)
C44_8 C 0.90817(12) 0.05304(13) 0.1336(2)
H24_8 H 0.927031 0.047862 0.122814
C45_8 C 0.90296(17) 0.04495(13) 0.1686(2)
C46_8 C 0.87477(19) 0.05269(14) 0.18478(17)
H25_8 H 0.871283 0.047278 0.208218
C47_8 C 0.85180(15) 0.06853(14) 0.16589(17)
H26_8 H 0.832938 0.073711 0.176692
C52_8 C 0.9295(3) 0.0299(3) 0.1895(4)
C93_8 C 0.80750(17) 0.22259(15) 0.0252(2)
H62_8 H 0.786749 0.229197 0.032492
H63_8 H 0.819606 0.217324 0.046051
C94_8 C 0.82367(18) 0.24826(18) 0.0040(2)
H65_8 H 0.834545 0.262959 0.019231
C1_8 C 0.77741(15) 0.19250(17) 0.9748(2)
H2_8 H 0.770803 0.213251 0.967508
H3_8 H 0.782676 0.180394 0.953949
C2_8 C 0.75174(18) 0.17633(18) 0.9960(2)
H5_8 H 0.737041 0.165455 0.980769
C3_10 C 0.80554(17) 0.19446(17) 1.000000
O16_8 O 0.48809(10) 0.05813(9) 0.98345(16)
O23_8 O 0.83804(14) 0.14616(10) 0.95387(16)
H61_8 H 0.832676 0.144824 0.933152
H64_8 H 0.808981 0.259532 0.989209
C95_8 C 0.87407(12) 0.23743(9) 0.96555(16)
C96_8 C 0.89072(10) 0.21546(12) 0.94605(15)
H66_8 H 0.909233 0.221180 0.934852
C97_8 C 0.87969(11) 0.18492(11) 0.94329(15)
C98_8 C 0.85202(12) 0.17637(8) 0.96003(16)
C99_8 C 0.83537(10) 0.19834(11) 0.97953(15)
C100_8 C 0.84640(11) 0.22888(10) 0.98229(15)
C101_8 C 0.9605(3) 0.4038(3) 0.9764(3)
C102_8 C 0.91630(15) 0.36397(10) 0.97027(18)
H67_8 H 0.902269 0.380379 0.967054
C103_8 C 0.94769(15) 0.37023(13) 0.97693(19)
C104_8 C 0.96866(12) 0.34570(16) 0.98174(18)
H68_8 H 0.989668 0.349890 0.986202
C105_8 C 0.95824(11) 0.31490(15) 0.97989(18)
H69_8 H 0.972270 0.298487 0.983112
C106_8 C 0.92685(11) 0.30864(10) 0.97323(11)
C107_8 C 0.90588(11) 0.33317(10) 0.96842(12)
C108_8 C 0.87448(11) 0.32690(14) 0.96176(17)
H70_8 H 0.860451 0.343319 0.958540
C109_8 C 0.86406(12) 0.29611(15) 0.95991(16)
H71_8 H 0.843052 0.291917 0.955449
C110_8 C 0.88503(16) 0.27157(12) 0.96472(16)
C111_8 C 0.91642(15) 0.27784(10) 0.97138(17)
H72_8 H 0.930450 0.261425 0.974597
C112_8 C 0.92303(15) 0.10959(15) 0.92030(17)
H73_8 H 0.928207 0.090728 0.931102
C113_8 C 0.90719(15) 0.13256(19) 0.93919(17)
H74_8 H 0.901774 0.129072 0.962629
C114_8 C 0.89944(13) 0.16075(16) 0.9231(2)
C115_8 C 0.90754(13) 0.16596(12) 0.8880(2)
H75_8 H 0.902357 0.184822 0.877227
C116_8 C 0.92338(10) 0.14299(11) 0.86914(17)
C117_8 C 0.93112(10) 0.11480(11) 0.88527(17)
C118_8 C 0.94696(13) 0.09183(12) 0.8664(2)
H76_8 H 0.952138 0.072969 0.877186
C119_8 C 0.95505(13) 0.09704(17) 0.8314(2)
C120_8 C 0.94731(14) 0.12523(19) 0.81522(17)
H77_8 H 0.952722 0.128717 0.791782
C121_8 C 0.93147(14) 0.14820(15) 0.83411(17)
H78_8 H 0.926289 0.167062 0.823308
C122_8 C 0.9701(3) 0.0705(3) 0.8105(4)
O31_8 O 0.58193(10) 0.53530(11) 0.27741(17)
H79_8 H 0.584518 0.556512 0.282189
H80_8 H 0.590810 0.520402 0.292251
O32_8 O 0.48809(10) 0.44187(9) 0.26655(16)
O13_8 O 0.58193(10) 0.96470(11) 0.97259(17)
H33_8 H 0.584518 0.943488 0.967811
H34_8 H 0.590810 0.979598 0.957749
loop_
_geom_bond_atom_site_label_1
_geom_bond_atom_site_label_2
_geom_bond_site_symmetry_1
_geom_bond_site_symmetry_2
Zr19 O29 1_555 1_555
Zr6 O28 1_555 1_555
O30 Zr6 1_555 1_555
Zr7 O28 1_555 1_555
Zr12 O30 1_555 1_555
O42 Zr6 1_555 1_555
O45 Zr6 1_555 1_555
O30 Zr7 1_555 1_555
C50 C48 1_555 1_555
H27 C50 1_555 1_555
H28 C50 1_555 1_555
H31 C51 1_555 1_555
O18 C80 1_555 1_555
O19 C80 1_555 1_555
O20 C63 1_555 1_555
C63 C66 1_555 1_555
C64 H43 1_555 1_555
C65 C64 1_555 1_555
H44 C65 1_555 1_555
C66 C65 1_555 1_555
C67 C66 1_555 1_555
H45 C67 1_555 1_555
C68 C67 1_555 1_555
C69 C64 1_555 1_555
C70 C69 1_555 1_555
H46 C70 1_555 1_555
C71 C70 1_555 1_555
C72 C71 1_555 1_555
H47 C72 1_555 1_555
C73 C68 1_555 1_555
H48 C73 1_555 1_555
O21 C63 1_555 1_555
O22 H49 1_555 1_555
C74 C75 1_555 1_555
C75 C71 1_555 1_555
C76 C75 1_555 1_555
H50 C76 1_555 1_555
C77 C76 1_555 1_555
C78 O22 1_555 1_555
C79 C48 1_555 1_555
C80 C84 1_555 1_555
C83 H55 1_555 1_555
C84 C83 1_555 1_555
C85 C84 1_555 1_555
H56 C85 1_555 1_555
C86 C85 1_555 1_555
H57 C86 1_555 1_555
C87 C86 1_555 1_555
C88 C83 1_555 1_555
C89 C88 1_555 1_555
H58 C89 1_555 1_555
C90 C89 1_555 1_555
H59 C90 1_555 1_555
C91 C77 1_555 1_555
C92 C87 1_555 1_555
H60 C92 1_555 1_555
H79 O31 1_555 1_555
H80 O31 1_555 1_555
Zr8 O19 1_555 1_555
Zr11 O21 1_555 1_555
Zr13 O18 1_555 1_555
C50 C51 1_555 1_555
O20 Zr14 1_555 1_555
C68 C69 1_555 1_555
C72 C73 1_555 1_555
C74 C79 1_555 1_555
C77 C78 1_555 1_555
C78 C79 1_555 1_555
C87 C88 1_555 1_555
C90 C91 1_555 1_555
C91 C92 1_555 1_555
Zr1 O2 1_555 1_555
Zr2 O1 1_555 1_555
O1 C49 1_555 1_555
O2 C49 1_555 1_555
Zr3 O3 1_555 1_555
Zr4 O4 1_555 1_555
O3 Zr1 1_555 1_555
O4 Zr2 1_555 1_555
O5 H1 1_555 1_555
C1 H2 1_555 1_555
H3 C1 1_555 1_555
O6 Zr2 1_555 1_555
C2 C1 1_555 1_555
H4 C2 1_555 1_555
H5 C2 1_555 1_555
O7 Zr1 1_555 1_555
C3 C1 1_555 1_555
C4 C5 1_555 1_555
C5 H6 1_555 1_555
C6 C5 1_555 1_555
C7 O5 1_555 1_555
C8 C3 1_555 1_555
C9 C2 1_555 1_555
C10 O6 1_555 1_555
O8 C11 1_555 1_555
C11 C14 1_555 1_555
C12 H7 1_555 1_555
C13 C12 1_555 1_555
H8 C13 1_555 1_555
C14 C13 1_555 1_555
C15 C14 1_555 1_555
H9 C15 1_555 1_555
C16 C15 1_555 1_555
C17 C12 1_555 1_555
C18 C17 1_555 1_555
H10 C18 1_555 1_555
C19 C18 1_555 1_555
C20 C19 1_555 1_555
H11 C20 1_555 1_555
C21 C16 1_555 1_555
H12 C21 1_555 1_555
C22 H13 1_555 1_555
C23 C10 1_555 1_555
C24 C23 1_555 1_555
H14 C24 1_555 1_555
C25 C24 1_555 1_555
H15 C25 1_555 1_555
C26 C25 1_555 1_555
C27 C22 1_555 1_555
C28 C27 1_555 1_555
H16 C28 1_555 1_555
C29 C28 1_555 1_555
H17 C29 1_555 1_555
C30 C4 1_555 1_555
C31 C26 1_555 1_555
H18 C31 1_555 1_555
O9 C11 1_555 1_555
O10 Zr3 1_555 1_555
O11 H19 1_555 1_555
C32 C33 1_555 1_555
C33 C19 1_555 1_555
C34 C33 1_555 1_555
H20 C34 1_555 1_555
C35 C34 1_555 1_555
C36 O11 1_555 1_555
C37 C32 1_555 1_555
C38 H21 1_555 1_555
C39 C38 1_555 1_555
H22 C39 1_555 1_555
C40 C6 1_555 1_555
C41 C40 1_555 1_555
H23 C41 1_555 1_555
C42 C41 1_555 1_555
C43 C38 1_555 1_555
C44 C43 1_555 1_555
H24 C44 1_555 1_555
C45 C44 1_555 1_555
C46 C45 1_555 1_555
H25 C46 1_555 1_555
C47 C42 1_555 1_555
H26 C47 1_555 1_555
C48_2 C37 1_555 1_555
C49 C54 1_555 1_555
O12 Zr4 1_555 1_555
H29 O12 1_555 1_555
H30 O12 1_555 1_555
O13 Zr2 1_555 1_555
H33 O13 1_555 1_555
H34 O13 1_555 1_555
O14 C52 1_555 1_555
C52 C45 1_555 1_555
O15 C52 1_555 1_555
O16 Zr3 1_555 1_555
C53 H35 1_555 1_555
C54 C53 1_555 1_555
C55 C54 1_555 1_555
H36 C55 1_555 1_555
C56 C55 1_555 1_555
H37 C56 1_555 1_555
C57 C56 1_555 1_555
C58 C53 1_555 1_555
C59 C58 1_555 1_555
H38 C59 1_555 1_555
C60 C59 1_555 1_555
H39 C60 1_555 1_555
C61 C35 1_555 1_555
C62 C57 1_555 1_555
H40 C62 1_555 1_555
O17 Zr1 1_555 1_555
H41 O17 1_555 1_555
H42 O17 1_555 1_555
C81 C48_2 1_555 1_555
H51 C81 1_555 1_555
H52 C81 1_555 1_555
H53 C82 1_555 1_555
O23 H61 1_555 1_555
C93 C3 1_555 1_555
H62 C93 1_555 1_555
H63 C93 1_555 1_555
O24 C101 1_555 1_555
C94 C93 1_555 1_555
H64 C94 1_555 1_555
H65 C94 1_555 1_555
C95 C96 1_555 1_555
C96 H66 1_555 1_555
C97 C96 1_555 1_555
C98 O23 1_555 1_555
C99 C3 1_555 1_555
C100 C94 1_555 1_555
C101 C103 1_555 1_555
C102 H67 1_555 1_555
C103 C102 1_555 1_555
C104 C103 1_555 1_555
H68 C104 1_555 1_555
C105 C104 1_555 1_555
H69 C105 1_555 1_555
C106 C105 1_555 1_555
C107 C102 1_555 1_555
C108 C107 1_555 1_555
H70 C108 1_555 1_555
C109 C108 1_555 1_555
H71 C109 1_555 1_555
C110 C95 1_555 1_555
C111 C106 1_555 1_555
H72 C111 1_555 1_555
O25 C101 1_555 1_555
C112 H73 1_555 1_555
C113 C112 1_555 1_555
H74 C113 1_555 1_555
C114 C97 1_555 1_555
C115 C114 1_555 1_555
H75 C115 1_555 1_555
C116 C115 1_555 1_555
C117 C112 1_555 1_555
C118 C117 1_555 1_555
H76 C118 1_555 1_555
C119 C118 1_555 1_555
C120 C119 1_555 1_555
H77 C120 1_555 1_555
C121 C116 1_555 1_555
H78 C121 1_555 1_555
O26 C122 1_555 1_555
C122 C119 1_555 1_555
O27 C122 1_555 1_555
Zr5 O9 1_555 1_555
O33 Zr4 1_555 1_555
H81 O33 1_555 1_555
H82 O33 1_555 1_555
O34 Zr1 1_555 1_555
H83 O34 1_555 1_555
H84 O34 1_555 1_555
Zr10 O7 1_555 1_555
O35 Zr5 1_555 1_555
O36 Zr1 1_555 1_555
Zr15 O27 1_555 1_555
Zr16 O25 1_555 1_555
Zr17 O8 1_555 1_555
Zr18_2 O14 1_555 1_555
Zr20_2 O26 1_555 1_555
O37 Zr1 1_555 1_555
O38 Zr4 1_555 1_555
O40 Zr1 1_555 1_555
O41 Zr5 1_555 1_555
O43 Zr3 1_555 1_555
O44 Zr2 1_555 1_555
O46 Zr4 1_555 1_555
O47 Zr4 1_555 1_555
O48 Zr3 1_555 1_555
Zr2 O3 1_555 1_555
Zr2 O40 1_555 1_555
Zr3 O4 1_555 1_555
Zr3 O7 1_555 1_555
C4 C9 1_555 1_555
C6 C7 1_555 1_555
C7 C8 1_555 1_555
C8 C9 1_555 1_555
C10 O10 1_555 1_555
C16 C17 1_555 1_555
C20 C21 1_555 1_555
C22 C23 1_555 1_555
C26 C27 1_555 1_555
C29 C30 1_555 1_555
C30 C31 1_555 1_555
C35 C36 1_555 1_555
C36 C37 1_555 1_555
C39 C40 1_555 1_555
C42 C43 1_555 1_555
C46 C47 1_555 1_555
C57 C58 1_555 1_555
C60 C61 1_555 1_555
C61 C62 1_555 1_555
C81 C82 1_555 1_555
C95 C100 1_555 1_555
C97 C98 1_555 1_555
C98 C99 1_555 1_555
C99 C100 1_555 1_555
C106 C107 1_555 1_555
C109 C110 1_555 1_555
C110 C111 1_555 1_555
C113 C114 1_555 1_555
C116 C117 1_555 1_555
C120 C121 1_555 1_555
Zr7_2 O41 1_555 1_555
Zr10 O37 1_555 1_555
Zr10 O38 1_555 1_555
Zr17 O41 1_555 1_555
O7_2 Zr1_2 1_555 1_555
O12_2 Zr4_2 1_555 1_555
H29_2 O12_2 1_555 1_555
Zr10_2 O7_2 1_555 1_555
O36_2 Zr1_2 1_555 1_555
Zr3_2 O3_2 1_555 1_555
Zr4_3 O4_2 1_555 1_555
O3_2 Zr1_3 1_555 1_555
O5_2 H1_2 1_555 1_555
C1_2 H2_2 1_555 1_555
H3_2 C1_2 1_555 1_555
C2_2 C1_2 1_555 1_555
H4_2 C2_2 1_555 1_555
H5_2 C2_2 1_555 1_555
C3_2 C1_2 1_555 1_555
C4_2 C5_2 1_555 1_555
C5_2 H6_2 1_555 1_555
C6_2 C5_2 1_555 1_555
C7_2 O5_2 1_555 1_555
C8_2 C3_2 1_555 1_555
C9_2 C2_2 1_555 1_555
C10_2 O6_2 1_555 1_555
C22_2 H13_2 1_555 1_555
C23_2 C10_2 1_555 1_555
C24_2 C23_2 1_555 1_555
H14_2 C24_2 1_555 1_555
C25_2 C24_2 1_555 1_555
H15_2 C25_2 1_555 1_555
C26_2 C25_2 1_555 1_555
C27_2 C22_2 1_555 1_555
C28_2 C27_2 1_555 1_555
H16_2 C28_2 1_555 1_555
C29_2 C28_2 1_555 1_555
H17_2 C29_2 1_555 1_555
C30_2 C4_2 1_555 1_555
C31_2 C26_2 1_555 1_555
H18_2 C31_2 1_555 1_555
O10_2 Zr3_2 1_555 1_555
C38_2 H21_2 1_555 1_555
C39_2 C38_2 1_555 1_555
H22_2 C39_2 1_555 1_555
C40_2 C6_2 1_555 1_555
C41_2 C40_2 1_555 1_555
H23_2 C41_2 1_555 1_555
C42_2 C41_2 1_555 1_555
C43_2 C38_2 1_555 1_555
C44_2 C43_2 1_555 1_555
H24_2 C44_2 1_555 1_555
C45_2 C44_2 1_555 1_555
C46_2 C45_2 1_555 1_555
H25_2 C46_2 1_555 1_555
C47_2 C42_2 1_555 1_555
H26_2 C47_2 1_555 1_555
O14_2 C52_2 1_555 1_555
C52_2 C45_2 1_555 1_555
O15_2 C52_2 1_555 1_555
O17_2 Zr1_3 1_555 1_555
H41_2 O17_2 1_555 1_555
H42_2 O17_2 1_555 1_555
O23_2 H61_2 1_555 1_555
C93_2 C3_2 1_555 1_555
H62_2 C93_2 1_555 1_555
H63_2 C93_2 1_555 1_555
O24_2 C101_2 1_555 1_555
C94_2 C93_2 1_555 1_555
H64_2 C94_2 1_555 1_555
H65_2 C94_2 1_555 1_555
C95_2 C96_2 1_555 1_555
C96_2 H66_2 1_555 1_555
C97_2 C96_2 1_555 1_555
C98_2 O23_2 1_555 1_555
C99_2 C3_2 1_555 1_555
C100_2 C94_2 1_555 1_555
C101_2 C103_2 1_555 1_555
C102_2 H67_2 1_555 1_555
C103_2 C102_2 1_555 1_555
C104_2 C103_2 1_555 1_555
H68_2 C104_2 1_555 1_555
C105_2 C104_2 1_555 1_555
H69_2 C105_2 1_555 1_555
C106_2 C105_2 1_555 1_555
C107_2 C102_2 1_555 1_555
C108_2 C107_2 1_555 1_555
H70_2 C108_2 1_555 1_555
C109_2 C108_2 1_555 1_555
H71_2 C109_2 1_555 1_555
C110_2 C95_2 1_555 1_555
C111_2 C106_2 1_555 1_555
H72_2 C111_2 1_555 1_555
O25_2 C101_2 1_555 1_555
C112_2 H73_2 1_555 1_555
C113_2 C112_2 1_555 1_555
H74_2 C113_2 1_555 1_555
C114_2 C97_2 1_555 1_555
C115_2 C114_2 1_555 1_555
H75_2 C115_2 1_555 1_555
C116_2 C115_2 1_555 1_555
C117_2 C112_2 1_555 1_555
C118_2 C117_2 1_555 1_555
H76_2 C118_2 1_555 1_555
C119_2 C118_2 1_555 1_555
C120_2 C119_2 1_555 1_555
H77_2 C120_2 1_555 1_555
C121_2 C116_2 1_555 1_555
H78_2 C121_2 1_555 1_555
O26_2 C122_2 1_555 1_555
C122_2 C119_2 1_555 1_555
O49 C122_2 1_555 1_555
Zr9_2 O24_2 1_555 1_555
Zr14_2 O15_2 1_555 1_555
Zr16_2 O25_2 1_555 1_555
Zr18_3 O14_2 1_555 1_555
Zr19 O26_2 1_555 1_555
O46_2 Zr4_3 1_555 1_555
O48_2 Zr3_2 1_555 1_555
Zr3_2 O4_2 1_555 1_555
C4_2 C9_2 1_555 1_555
C6_2 C7_2 1_555 1_555
C7_2 C8_2 1_555 1_555
C8_2 C9_2 1_555 1_555
C10_2 O10_2 1_555 1_555
C22_2 C23_2 1_555 1_555
C26_2 C27_2 1_555 1_555
C29_2 C30_2 1_555 1_555
C30_2 C31_2 1_555 1_555
C39_2 C40_2 1_555 1_555
C42_2 C43_2 1_555 1_555
C46_2 C47_2 1_555 1_555
C95_2 C100_2 1_555 1_555
C97_2 C98_2 1_555 1_555
C98_2 C99_2 1_555 1_555
C99_2 C100_2 1_555 1_555
C106_2 C107_2 1_555 1_555
C109_2 C110_2 1_555 1_555
C110_2 C111_2 1_555 1_555
C113_2 C114_2 1_555 1_555
C116_2 C117_2 1_555 1_555
C120_2 C121_2 1_555 1_555
O34_2 Zr1_4 1_555 1_555
H83_2 O34_2 1_555 1_555
H84_2 O34_2 1_555 1_555
Zr12_2 O30_2 1_555 1_555
O37_2 Zr1_4 1_555 1_555
O38_2 Zr4_4 1_555 1_555
O47_2 Zr4_4 1_555 1_555
O30_2 Zr7_3 1_555 1_555
Zr1_5 O2_2 1_555 1_555
Zr2_2 O1_2 1_555 1_555
O1_2 C49_2 1_555 1_555
O2_2 C49_2 1_555 1_555
O8_2 C11_2 1_555 1_555
C11_2 C14_2 1_555 1_555
C12_2 H7_2 1_555 1_555
C13_2 C12_2 1_555 1_555
H8_2 C13_2 1_555 1_555
C14_2 C13_2 1_555 1_555
C15_2 C14_2 1_555 1_555
H9_2 C15_2 1_555 1_555
C16_2 C15_2 1_555 1_555
C17_2 C12_2 1_555 1_555
C18_2 C17_2 1_555 1_555
H10_2 C18_2 1_555 1_555
C19_2 C18_2 1_555 1_555
C20_2 C19_2 1_555 1_555
H11_2 C20_2 1_555 1_555
C21_2 C16_2 1_555 1_555
H12_2 C21_2 1_555 1_555
O9_2 C11_2 1_555 1_555
O11_2 H19_2 1_555 1_555
C32_2 C33_2 1_555 1_555
C33_2 C19_2 1_555 1_555
C34_2 C33_2 1_555 1_555
H20_2 C34_2 1_555 1_555
C35_2 C34_2 1_555 1_555
C36_2 O11_2 1_555 1_555
C37_2 C32_2 1_555 1_555
C48_3 C37_2 1_555 1_555
C49_2 C54_2 1_555 1_555
C50_2 C48_3 1_555 1_555
H27_2 C50_2 1_555 1_555
H28_2 C50_2 1_555 1_555
C51_2 C32_2 1_555 1_555
H31_2 C51_2 1_555 1_555
H32_2 C51_2 1_555 1_555
O13_2 Zr2_2 1_555 1_555
H33_2 O13_2 1_555 1_555
H34_2 O13_2 1_555 1_555
C53_2 H35_2 1_555 1_555
C54_2 C53_2 1_555 1_555
C55_2 C54_2 1_555 1_555
H36_2 C55_2 1_555 1_555
C56_2 C55_2 1_555 1_555
H37_2 C56_2 1_555 1_555
C57_2 C56_2 1_555 1_555
C58_2 C53_2 1_555 1_555
C59_2 C58_2 1_555 1_555
H38_2 C59_2 1_555 1_555
C60_2 C59_2 1_555 1_555
H39_2 C60_2 1_555 1_555
C61_2 C35_2 1_555 1_555
C62_2 C57_2 1_555 1_555
H40_2 C62_2 1_555 1_555
O18_2 C80_2 1_555 1_555
O19_2 C80_2 1_555 1_555
O20_2 C63_2 1_555 1_555
C63_2 C66_2 1_555 1_555
C64_2 H43_2 1_555 1_555
C65_2 C64_2 1_555 1_555
H44_2 C65_2 1_555 1_555
C66_2 C65_2 1_555 1_555
C67_2 C66_2 1_555 1_555
H45_2 C67_2 1_555 1_555
C68_2 C67_2 1_555 1_555
C69_2 C64_2 1_555 1_555
C70_2 C69_2 1_555 1_555
H46_2 C70_2 1_555 1_555
C71_2 C70_2 1_555 1_555
C72_2 C71_2 1_555 1_555
H47_2 C72_2 1_555 1_555
C73_2 C68_2 1_555 1_555
H48_2 C73_2 1_555 1_555
O21_2 C63_2 1_555 1_555
O22_2 H49_2 1_555 1_555
C74_2 C75_2 1_555 1_555
C75_2 C71_2 1_555 1_555
C76_2 C75_2 1_555 1_555
H50_2 C76_2 1_555 1_555
C77_2 C76_2 1_555 1_555
C78_2 O22_2 1_555 1_555
C79_2 C48_3 1_555 1_555
C80_2 C84_2 1_555 1_555
C81_2 C48_3 1_555 1_555
H51_2 C81_2 1_555 1_555
H52_2 C81_2 1_555 1_555
C82_2 C74_2 1_555 1_555
H53_2 C82_2 1_555 1_555
H54_2 C82_2 1_555 1_555
C83_2 H55_2 1_555 1_555
C84_2 C83_2 1_555 1_555
C85_2 C84_2 1_555 1_555
H56_2 C85_2 1_555 1_555
C86_2 C85_2 1_555 1_555
H57_2 C86_2 1_555 1_555
C87_2 C86_2 1_555 1_555
C88_2 C83_2 1_555 1_555
C89_2 C88_2 1_555 1_555
H58_2 C89_2 1_555 1_555
C90_2 C89_2 1_555 1_555
H59_2 C90_2 1_555 1_555
C91_2 C77_2 1_555 1_555
C92_2 C87_2 1_555 1_555
H60_2 C92_2 1_555 1_555
Zr5_2 O9_2 1_555 1_555
Zr15 O28_2 1_555 1_555
O28_2 Zr5_2 1_555 1_555
O29_2 Zr5_2 1_555 1_555
O31_2 Zr5_2 1_555 1_555
H79_2 O31_2 1_555 1_555
H80_2 O31_2 1_555 1_555
O33_2 Zr4_5 1_555 1_555
H81_2 O33_2 1_555 1_555
Zr7_4 O28_2 1_555 1_555
Zr8_5 O19_2 1_555 1_555
Zr11_2 O21_2 1_555 1_555
Zr13_2 O18_2 1_555 1_555
O35_2 Zr5_2 1_555 1_555
Zr20_2 O29_2 1_555 1_555
O39_2 Zr5_2 1_555 1_555
O40_2 Zr1_5 1_555 1_555
O41_2 Zr5_2 1_555 1_555
O44_2 Zr2_2 1_555 1_555
O45_2 Zr15 1_555 1_555
Zr2_2 O40_2 1_555 1_555
C16_2 C17_2 1_555 1_555
C20_2 C21_2 1_555 1_555
C35_2 C36_2 1_555 1_555
C36_2 C37_2 1_555 1_555
C50_2 C51_2 1_555 1_555
C57_2 C58_2 1_555 1_555
C60_2 C61_2 1_555 1_555
C61_2 C62_2 1_555 1_555
C68_2 C69_2 1_555 1_555
C72_2 C73_2 1_555 1_555
C74_2 C79_2 1_555 1_555
C77_2 C78_2 1_555 1_555
C78_2 C79_2 1_555 1_555
C81_2 C82_2 1_555 1_555
C87_2 C88_2 1_555 1_555
C90_2 C91_2 1_555 1_555
C91_2 C92_2 1_555 1_555
Zr15 O29_2 1_555 1_555
Zr7_4 O41_2 1_555 1_555
Zr1_6 O2_3 1_555 1_555
Zr2_3 O1_3 1_555 1_555
O1_3 C49_3 1_555 1_555
O2_3 C49_3 1_555 1_555
O8_3 C11_3 1_555 1_555
C11_3 C14_3 1_555 1_555
C12_3 H7_3 1_555 1_555
C13_3 C12_3 1_555 1_555
H8_3 C13_3 1_555 1_555
C14_3 C13_3 1_555 1_555
C15_3 C14_3 1_555 1_555
H9_3 C15_3 1_555 1_555
C16_3 C15_3 1_555 1_555
C17_3 C12_3 1_555 1_555
C18_3 C17_3 1_555 1_555
H10_3 C18_3 1_555 1_555
C19_3 C18_3 1_555 1_555
C20_3 C19_3 1_555 1_555
H11_3 C20_3 1_555 1_555
C21_3 C16_3 1_555 1_555
H12_3 C21_3 1_555 1_555
O9_3 C11_3 1_555 1_555
O11_3 H19_3 1_555 1_555
C32_3 C33_3 1_555 1_555
C33_3 C19_3 1_555 1_555
C34_3 C33_3 1_555 1_555
H20_3 C34_3 1_555 1_555
C35_3 C34_3 1_555 1_555
C36_3 O11_3 1_555 1_555
C37_3 C32_3 1_555 1_555
C48_4 C37_3 1_555 1_555
C49_3 C54_3 1_555 1_555
C50_3 C48_4 1_555 1_555
H27_3 C50_3 1_555 1_555
H28_3 C50_3 1_555 1_555
C51_3 C32_3 1_555 1_555
H31_3 C51_3 1_555 1_555
H32_3 C51_3 1_555 1_555
C53_3 H35_3 1_555 1_555
C54_3 C53_3 1_555 1_555
C55_3 C54_3 1_555 1_555
H36_3 C55_3 1_555 1_555
C56_3 C55_3 1_555 1_555
H37_3 C56_3 1_555 1_555
C57_3 C56_3 1_555 1_555
C58_3 C53_3 1_555 1_555
C59_3 C58_3 1_555 1_555
H38_3 C59_3 1_555 1_555
C60_3 C59_3 1_555 1_555
H39_3 C60_3 1_555 1_555
C61_3 C35_3 1_555 1_555
C62_3 C57_3 1_555 1_555
H40_3 C62_3 1_555 1_555
O18_3 C80_3 1_555 1_555
O19_3 C80_3 1_555 1_555
O43_2 C63_3 1_555 1_555
C63_3 C66_3 1_555 1_555
C64_3 H43_3 1_555 1_555
C65_3 C64_3 1_555 1_555
H44_3 C65_3 1_555 1_555
C66_3 C65_3 1_555 1_555
C67_3 C66_3 1_555 1_555
H45_3 C67_3 1_555 1_555
C68_3 C67_3 1_555 1_555
C69_3 C64_3 1_555 1_555
C70_3 C69_3 1_555 1_555
H46_3 C70_3 1_555 1_555
C71_3 C70_3 1_555 1_555
C72_3 C71_3 1_555 1_555
H47_3 C72_3 1_555 1_555
C73_3 C68_3 1_555 1_555
H48_3 C73_3 1_555 1_555
O21_3 C63_3 1_555 1_555
O22_3 H49_3 1_555 1_555
C74_3 C75_3 1_555 1_555
C75_3 C71_3 1_555 1_555
C76_3 C75_3 1_555 1_555
H50_3 C76_3 1_555 1_555
C77_3 C76_3 1_555 1_555
C78_3 O22_3 1_555 1_555
C79_3 C48_4 1_555 1_555
C80_3 C84_3 1_555 1_555
C81_3 C48_4 1_555 1_555
H51_3 C81_3 1_555 1_555
H52_3 C81_3 1_555 1_555
C82_3 C74_3 1_555 1_555
H53_3 C82_3 1_555 1_555
H54_3 C82_3 1_555 1_555
C83_3 H55_3 1_555 1_555
C84_3 C83_3 1_555 1_555
C85_3 C84_3 1_555 1_555
H56_3 C85_3 1_555 1_555
C86_3 C85_3 1_555 1_555
H57_3 C86_3 1_555 1_555
C87_3 C86_3 1_555 1_555
C88_3 C83_3 1_555 1_555
C89_3 C88_3 1_555 1_555
H58_3 C89_3 1_555 1_555
C90_3 C89_3 1_555 1_555
H59_3 C90_3 1_555 1_555
C91_3 C77_3 1_555 1_555
C92_3 C87_3 1_555 1_555
H60_3 C92_3 1_555 1_555
Zr9_2 O9_3 1_555 1_555
Zr16_2 O28_3 1_555 1_555
O28_3 Zr9_2 1_555 1_555
O29_3 Zr9_2 1_555 1_555
O30_3 Zr16_2 1_555 1_555
O31_3 Zr9_2 1_555 1_555
H79_3 O31_3 1_555 1_555
H80_3 O31_3 1_555 1_555
O32_3 Zr16_2 1_555 1_555
O34_3 Zr1_6 1_555 1_555
H83_3 O34_3 1_555 1_555
H84_3 O34_3 1_555 1_555
Zr8 O28_3 1_555 1_555
Zr7_3 O19_3 1_555 1_555
Zr10_2 O21_3 1_555 1_555
Zr13 O30_3 1_555 1_555
Zr12_2 O18_3 1_555 1_555
O35_3 Zr9_2 1_555 1_555
Zr17_3 O8_3 1_555 1_555
Zr19_3 O29_3 1_555 1_555
O37_3 Zr1_6 1_555 1_555
O40_3 Zr1_6 1_555 1_555
O41_3 Zr9_2 1_555 1_555
O42_3 Zr16_2 1_555 1_555
O44_3 Zr2_3 1_555 1_555
O49_2 Zr16_2 1_555 1_555
Zr2_3 O40_3 1_555 1_555
C16_3 C17_3 1_555 1_555
C20_3 C21_3 1_555 1_555
C35_3 C36_3 1_555 1_555
C36_3 C37_3 1_555 1_555
C50_3 C51_3 1_555 1_555
C57_3 C58_3 1_555 1_555
C60_3 C61_3 1_555 1_555
C61_3 C62_3 1_555 1_555
C68_3 C69_3 1_555 1_555
C72_3 C73_3 1_555 1_555
C74_3 C79_3 1_555 1_555
C77_3 C78_3 1_555 1_555
C78_3 C79_3 1_555 1_555
C81_3 C82_3 1_555 1_555
C87_3 C88_3 1_555 1_555
C90_3 C91_3 1_555 1_555
C91_3 C92_3 1_555 1_555
Zr16_2 O29_3 1_555 1_555
O30_3 Zr8 1_555 1_555
Zr8 O41_3 1_555 1_555
Zr17_3 O41_3 1_555 1_555
H33_3 O13_3 1_555 1_555
H34_3 O13_3 1_555 1_555
O33_3 Zr18 1_555 1_555
H81_3 O33_3 1_555 1_555
O38_3 Zr18 1_555 1_555
O47_3 Zr18 1_555 1_555
Zr14 O3_3 1_555 1_555
O3_3 Zr1_7 1_555 1_555
O5_3 H1_3 1_555 1_555
O7_3 Zr1_7 1_555 1_555
C4_3 C5_3 1_555 1_555
C5_3 H6_3 1_555 1_555
C6_3 C5_3 1_555 1_555
C7_3 O5_3 1_555 1_555
C8_3 C3_3 1_555 1_555
C10_3 O6_3 1_555 1_555
C22_3 H13_3 1_555 1_555
C23_3 C10_3 1_555 1_555
C24_3 C23_3 1_555 1_555
H14_3 C24_3 1_555 1_555
C25_3 C24_3 1_555 1_555
H15_3 C25_3 1_555 1_555
C26_3 C25_3 1_555 1_555
C27_3 C22_3 1_555 1_555
C28_3 C27_3 1_555 1_555
H16_3 C28_3 1_555 1_555
C29_3 C28_3 1_555 1_555
H17_3 C29_3 1_555 1_555
C30_3 C4_3 1_555 1_555
C31_3 C26_3 1_555 1_555
H18_3 C31_3 1_555 1_555
O10_3 Zr14 1_555 1_555
C38_3 H21_3 1_555 1_555
C39_3 C38_3 1_555 1_555
H22_3 C39_3 1_555 1_555
C40_3 C6_3 1_555 1_555
C41_3 C40_3 1_555 1_555
H23_3 C41_3 1_555 1_555
C42_3 C41_3 1_555 1_555
C43_3 C38_3 1_555 1_555
C44_3 C43_3 1_555 1_555
H24_3 C44_3 1_555 1_555
C45_3 C44_3 1_555 1_555
C46_3 C45_3 1_555 1_555
H25_3 C46_3 1_555 1_555
C47_3 C42_3 1_555 1_555
H26_3 C47_3 1_555 1_555
O46_2 C52_3 1_555 1_555
C52_3 C45_3 1_555 1_555
O48_2 C52_3 1_555 1_555
O17_3 Zr1_7 1_555 1_555
H41_3 O17_3 1_555 1_555
H42_3 O17_3 1_555 1_555
C93_3 C3_3 1_555 1_555
H62_3 C93_3 1_555 1_555
H63_3 C93_3 1_555 1_555
C94_3 C93_3 1_555 1_555
H65_3 C94_3 1_555 1_555
Zr11 O7_3 1_555 1_555
O36_3 Zr1_7 1_555 1_555
Zr14 O7_3 1_555 1_555
C4_3 C9_3 1_555 1_555
C6_3 C7_3 1_555 1_555
C7_3 C8_3 1_555 1_555
C8_3 C9_3 1_555 1_555
C10_3 O10_3 1_555 1_555
C22_3 C23_3 1_555 1_555
C26_3 C27_3 1_555 1_555
C29_3 C30_3 1_555 1_555
C30_3 C31_3 1_555 1_555
C39_3 C40_3 1_555 1_555
C42_3 C43_3 1_555 1_555
C46_3 C47_3 1_555 1_555
Zr18_2 O4_3 1_555 1_555
C1_3 H2_3 1_555 1_555
H3_3 C1_3 1_555 1_555
C2_3 C1_3 1_555 1_555
H5_3 C2_3 1_555 1_555
C3_4 C1_3 1_555 1_555
O12_3 Zr18_2 1_555 1_555
H29_3 O12_3 1_555 1_555
O23_3 H61_3 1_555 1_555
O39 C101_3 1_555 1_555
C95_3 C96_3 1_555 1_555
C96_3 H66_3 1_555 1_555
C97_3 C96_3 1_555 1_555
C98_3 O23_3 1_555 1_555
C99_3 C3_4 1_555 1_555
C101_3 C103_3 1_555 1_555
C102_3 H67_3 1_555 1_555
C103_3 C102_3 1_555 1_555
C104_3 C103_3 1_555 1_555
H68_3 C104_3 1_555 1_555
C105_3 C104_3 1_555 1_555
H69_3 C105_3 1_555 1_555
C106_3 C105_3 1_555 1_555
C107_3 C102_3 1_555 1_555
C108_3 C107_3 1_555 1_555
H70_3 C108_3 1_555 1_555
C109_3 C108_3 1_555 1_555
H71_3 C109_3 1_555 1_555
C110_3 C95_3 1_555 1_555
C111_3 C106_3 1_555 1_555
H72_3 C111_3 1_555 1_555
O45 C101_3 1_555 1_555
C112_3 H73_3 1_555 1_555
C113_3 C112_3 1_555 1_555
H74_3 C113_3 1_555 1_555
C114_3 C97_3 1_555 1_555
C115_3 C114_3 1_555 1_555
H75_3 C115_3 1_555 1_555
C116_3 C115_3 1_555 1_555
C117_3 C112_3 1_555 1_555
C118_3 C117_3 1_555 1_555
H76_3 C118_3 1_555 1_555
C119_3 C118_3 1_555 1_555
C120_3 C119_3 1_555 1_555
H77_3 C120_3 1_555 1_555
C121_3 C116_3 1_555 1_555
H78_3 C121_3 1_555 1_555
O26_3 C122_3 1_555 1_555
C122_3 C119_3 1_555 1_555
O27_2 C122_3 1_555 1_555
Zr16 O27_2 1_555 1_555
Zr20_4 O26_3 1_555 1_555
C95_3 C100_3 1_555 1_555
C97_3 C98_3 1_555 1_555
C98_3 C99_3 1_555 1_555
C99_3 C100_3 1_555 1_555
C106_3 C107_3 1_555 1_555
C109_3 C110_3 1_555 1_555
C110_3 C111_3 1_555 1_555
C113_3 C114_3 1_555 1_555
C116_3 C117_3 1_555 1_555
C120_3 C121_3 1_555 1_555
Zr1_8 O2_4 1_555 1_555
Zr2_4 O1_4 1_555 1_555
O1_4 C49_4 1_555 1_555
O2_4 C49_4 1_555 1_555
Zr14_2 O3_4 1_555 1_555
Zr18_3 O4_4 1_555 1_555
O3_4 Zr1_8 1_555 1_555
O4_4 Zr2_4 1_555 1_555
O5_4 H1_4 1_555 1_555
C1_4 H2_4 1_555 1_555
H3_4 C1_4 1_555 1_555
O6_4 Zr2_4 1_555 1_555
C2_4 C1_4 1_555 1_555
H4_4 C2_4 1_555 1_555
H5_4 C2_4 1_555 1_555
C3_5 C1_4 1_555 1_555
C4_4 C5_4 1_555 1_555
C5_4 H6_4 1_555 1_555
C6_4 C5_4 1_555 1_555
C7_4 O5_4 1_555 1_555
C8_4 C3_5 1_555 1_555
C9_4 C2_4 1_555 1_555
C10_4 O6_4 1_555 1_555
O8_4 C11_4 1_555 1_555
C11_4 C14_4 1_555 1_555
C12_4 H7_4 1_555 1_555
C13_4 C12_4 1_555 1_555
H8_4 C13_4 1_555 1_555
C14_4 C13_4 1_555 1_555
C15_4 C14_4 1_555 1_555
H9_4 C15_4 1_555 1_555
C16_4 C15_4 1_555 1_555
C17_4 C12_4 1_555 1_555
C18_4 C17_4 1_555 1_555
H10_4 C18_4 1_555 1_555
C19_4 C18_4 1_555 1_555
C20_4 C19_4 1_555 1_555
H11_4 C20_4 1_555 1_555
C21_4 C16_4 1_555 1_555
H12_4 C21_4 1_555 1_555
C22_4 H13_4 1_555 1_555
C23_4 C10_4 1_555 1_555
C24_4 C23_4 1_555 1_555
H14_4 C24_4 1_555 1_555
C25_4 C24_4 1_555 1_555
H15_4 C25_4 1_555 1_555
C26_4 C25_4 1_555 1_555
C27_4 C22_4 1_555 1_555
C28_4 C27_4 1_555 1_555
H16_4 C28_4 1_555 1_555
C29_4 C28_4 1_555 1_555
H17_4 C29_4 1_555 1_555
C30_4 C4_4 1_555 1_555
C31_4 C26_4 1_555 1_555
H18_4 C31_4 1_555 1_555
O9_4 C11_4 1_555 1_555
O10_4 Zr14_2 1_555 1_555
O11_4 H19_4 1_555 1_555
C32_4 C33_4 1_555 1_555
C33_4 C19_4 1_555 1_555
C34_4 C33_4 1_555 1_555
H20_4 C34_4 1_555 1_555
C35_4 C34_4 1_555 1_555
C36_4 O11_4 1_555 1_555
C37_4 C32_4 1_555 1_555
C38_4 H21_4 1_555 1_555
C39_4 C38_4 1_555 1_555
H22_4 C39_4 1_555 1_555
C40_4 C6_4 1_555 1_555
C41_4 C40_4 1_555 1_555
H23_4 C41_4 1_555 1_555
C42_4 C41_4 1_555 1_555
C43_4 C38_4 1_555 1_555
C44_4 C43_4 1_555 1_555
H24_4 C44_4 1_555 1_555
C45_4 C44_4 1_555 1_555
C46_4 C45_4 1_555 1_555
H25_4 C46_4 1_555 1_555
C47_4 C42_4 1_555 1_555
H26_4 C47_4 1_555 1_555
C48_5 C37_4 1_555 1_555
C49_4 C54_4 1_555 1_555
C50_4 C48_5 1_555 1_555
H27_4 C50_4 1_555 1_555
H28_4 C50_4 1_555 1_555
C51_4 C32_4 1_555 1_555
H31_4 C51_4 1_555 1_555
H32_4 C51_4 1_555 1_555
O13_4 Zr2_4 1_555 1_555
H33_4 O13_4 1_555 1_555
H34_4 O13_4 1_555 1_555
O46 C52_4 1_555 1_555
C52_4 C45_4 1_555 1_555
O48 C52_4 1_555 1_555
C53_4 H35_4 1_555 1_555
C54_4 C53_4 1_555 1_555
C55_4 C54_4 1_555 1_555
H36_4 C55_4 1_555 1_555
C56_4 C55_4 1_555 1_555
H37_4 C56_4 1_555 1_555
C57_4 C56_4 1_555 1_555
C58_4 C53_4 1_555 1_555
C59_4 C58_4 1_555 1_555
H38_4 C59_4 1_555 1_555
C60_4 C59_4 1_555 1_555
H39_4 C60_4 1_555 1_555
C61_4 C35_4 1_555 1_555
C62_4 C57_4 1_555 1_555
H40_4 C62_4 1_555 1_555
O17_4 Zr1_8 1_555 1_555
H41_4 O17_4 1_555 1_555
H42_4 O17_4 1_555 1_555
O18_4 C80_4 1_555 1_555
O19_4 C80_4 1_555 1_555
O43 C63_4 1_555 1_555
C63_4 C66_4 1_555 1_555
C64_4 H43_4 1_555 1_555
C65_4 C64_4 1_555 1_555
H44_4 C65_4 1_555 1_555
C66_4 C65_4 1_555 1_555
C67_4 C66_4 1_555 1_555
H45_4 C67_4 1_555 1_555
C68_4 C67_4 1_555 1_555
C69_4 C64_4 1_555 1_555
C70_4 C69_4 1_555 1_555
H46_4 C70_4 1_555 1_555
C71_4 C70_4 1_555 1_555
C72_4 C71_4 1_555 1_555
H47_4 C72_4 1_555 1_555
C73_4 C68_4 1_555 1_555
H48_4 C73_4 1_555 1_555
O21_4 C63_4 1_555 1_555
O22_4 H49_4 1_555 1_555
C74_4 C75_4 1_555 1_555
C75_4 C71_4 1_555 1_555
C76_4 C75_4 1_555 1_555
H50_4 C76_4 1_555 1_555
C77_4 C76_4 1_555 1_555
C78_4 O22_4 1_555 1_555
C79_4 C48_5 1_555 1_555
C80_4 C84_4 1_555 1_555
C81_4 C48_5 1_555 1_555
H51_4 C81_4 1_555 1_555
H52_4 C81_4 1_555 1_555
C82_4 C74_4 1_555 1_555
H53_4 C82_4 1_555 1_555
H54_4 C82_4 1_555 1_555
C83_4 H55_4 1_555 1_555
C84_4 C83_4 1_555 1_555
C85_4 C84_4 1_555 1_555
H56_4 C85_4 1_555 1_555
C86_4 C85_4 1_555 1_555
H57_4 C86_4 1_555 1_555
C87_4 C86_4 1_555 1_555
C88_4 C83_4 1_555 1_555
C89_4 C88_4 1_555 1_555
H58_4 C89_4 1_555 1_555
C90_4 C89_4 1_555 1_555
H59_4 C90_4 1_555 1_555
C91_4 C77_4 1_555 1_555
C92_4 C87_4 1_555 1_555
H60_4 C92_4 1_555 1_555
O23_4 H61_4 1_555 1_555
C93_4 C3_5 1_555 1_555
H62_4 C93_4 1_555 1_555
H63_4 C93_4 1_555 1_555
O39_2 C101_4 1_555 1_555
C94_4 C93_4 1_555 1_555
H64_4 C94_4 1_555 1_555
H65_4 C94_4 1_555 1_555
C95_4 C96_4 1_555 1_555
C96_4 H66_4 1_555 1_555
C97_4 C96_4 1_555 1_555
C98_4 O23_4 1_555 1_555
C99_4 C3_5 1_555 1_555
C100_4 C94_4 1_555 1_555
C101_4 C103_4 1_555 1_555
C102_4 H67_4 1_555 1_555
C103_4 C102_4 1_555 1_555
C104_4 C103_4 1_555 1_555
H68_4 C104_4 1_555 1_555
C105_4 C104_4 1_555 1_555
H69_4 C105_4 1_555 1_555
C106_4 C105_4 1_555 1_555
C107_4 C102_4 1_555 1_555
C108_4 C107_4 1_555 1_555
H70_4 C108_4 1_555 1_555
C109_4 C108_4 1_555 1_555
H71_4 C109_4 1_555 1_555
C110_4 C95_4 1_555 1_555
C111_4 C106_4 1_555 1_555
H72_4 C111_4 1_555 1_555
O45_2 C101_4 1_555 1_555
C112_4 H73_4 1_555 1_555
C113_4 C112_4 1_555 1_555
H74_4 C113_4 1_555 1_555
C114_4 C97_4 1_555 1_555
C115_4 C114_4 1_555 1_555
H75_4 C115_4 1_555 1_555
C116_4 C115_4 1_555 1_555
C117_4 C112_4 1_555 1_555
C118_4 C117_4 1_555 1_555
H76_4 C118_4 1_555 1_555
C119_4 C118_4 1_555 1_555
C120_4 C119_4 1_555 1_555
H77_4 C120_4 1_555 1_555
C121_4 C116_4 1_555 1_555
H78_4 C121_4 1_555 1_555
O26_4 C122_4 1_555 1_555
C122_4 C119_4 1_555 1_555
O49_2 C122_4 1_555 1_555
Zr9 O9_4 1_555 1_555
O31_4 Zr9 1_555 1_555
H79_4 O31_4 1_555 1_555
H80_4 O31_4 1_555 1_555
O33_4 Zr18_3 1_555 1_555
H81_4 O33_4 1_555 1_555
H82_4 O33_4 1_555 1_555
Zr7 O19_4 1_555 1_555
Zr10 O21_4 1_555 1_555
Zr12 O18_4 1_555 1_555
O35_4 Zr9 1_555 1_555
Zr19_3 O26_4 1_555 1_555
O40_4 Zr1_8 1_555 1_555
O41_4 Zr9 1_555 1_555
O44_4 Zr2_4 1_555 1_555
Zr2_4 O3_4 1_555 1_555
Zr2_4 O40_4 1_555 1_555
Zr14_2 O4_4 1_555 1_555
C4_4 C9_4 1_555 1_555
C6_4 C7_4 1_555 1_555
C7_4 C8_4 1_555 1_555
C8_4 C9_4 1_555 1_555
C10_4 O10_4 1_555 1_555
C16_4 C17_4 1_555 1_555
C20_4 C21_4 1_555 1_555
C22_4 C23_4 1_555 1_555
C26_4 C27_4 1_555 1_555
C29_4 C30_4 1_555 1_555
C30_4 C31_4 1_555 1_555
C35_4 C36_4 1_555 1_555
C36_4 C37_4 1_555 1_555
C39_4 C40_4 1_555 1_555
C42_4 C43_4 1_555 1_555
C46_4 C47_4 1_555 1_555
C50_4 C51_4 1_555 1_555
C57_4 C58_4 1_555 1_555
C60_4 C61_4 1_555 1_555
C61_4 C62_4 1_555 1_555
C68_4 C69_4 1_555 1_555
C72_4 C73_4 1_555 1_555
C74_4 C79_4 1_555 1_555
C77_4 C78_4 1_555 1_555
C78_4 C79_4 1_555 1_555
C81_4 C82_4 1_555 1_555
C87_4 C88_4 1_555 1_555
C90_4 C91_4 1_555 1_555
C91_4 C92_4 1_555 1_555
C95_4 C100_4 1_555 1_555
C97_4 C98_4 1_555 1_555
C98_4 C99_4 1_555 1_555
C99_4 C100_4 1_555 1_555
C106_4 C107_4 1_555 1_555
C109_4 C110_4 1_555 1_555
C110_4 C111_4 1_555 1_555
C113_4 C114_4 1_555 1_555
C116_4 C117_4 1_555 1_555
C120_4 C121_4 1_555 1_555
Zr8_2 O41_4 1_555 1_555
Zr16 O28_4 1_555 1_555
Zr8_3 O28_4 1_555 1_555
Zr20_4 O29_4 1_555 1_555
Zr16 O29_4 1_555 1_555
O7_4 Zr1_9 1_555 1_555
O12_4 Zr18_4 1_555 1_555
H29_4 O12_4 1_555 1_555
H30_4 O12_4 1_555 1_555
O34_4 Zr1_9 1_555 1_555
H83_4 O34_4 1_555 1_555
H84_4 O34_4 1_555 1_555
Zr11_2 O7_4 1_555 1_555
O36_4 Zr1_9 1_555 1_555
O37_4 Zr1_9 1_555 1_555
O38_4 Zr18_4 1_555 1_555
O47_4 Zr18_4 1_555 1_555
Zr11_2 O37_4 1_555 1_555
Zr11_2 O38_4 1_555 1_555
Zr13_2 O30_4 1_555 1_555
O30_4 Zr8_5 1_555 1_555
O12_5 Zr19 1_555 1_555
H29_5 O12_5 1_555 1_555
O17_5 Zr7 1_555 1_555
H41_5 O17_5 1_555 1_555
H42_5 O17_5 1_555 1_555
O33_5 Zr19_2 1_555 1_555
H81_5 O33_5 1_555 1_555
O38_5 Zr19_2 1_555 1_555
O47_5 Zr19_2 1_555 1_555
Zr7_2 O2_5 1_555 1_555
O35 C49_5 1_555 1_555
O2_5 C49_5 1_555 1_555
O8_5 C11_5 1_555 1_555
C11_5 C14_5 1_555 1_555
C12_5 H7_5 1_555 1_555
C13_5 C12_5 1_555 1_555
H8_5 C13_5 1_555 1_555
C14_5 C13_5 1_555 1_555
C15_5 C14_5 1_555 1_555
H9_5 C15_5 1_555 1_555
C16_5 C15_5 1_555 1_555
C17_5 C12_5 1_555 1_555
C18_5 C17_5 1_555 1_555
H10_5 C18_5 1_555 1_555
C19_5 C18_5 1_555 1_555
C20_5 C19_5 1_555 1_555
H11_5 C20_5 1_555 1_555
C21_5 C16_5 1_555 1_555
H12_5 C21_5 1_555 1_555
O44 C11_5 1_555 1_555
O11_5 H19_5 1_555 1_555
C32_5 C33_5 1_555 1_555
C33_5 C19_5 1_555 1_555
C34_5 C33_5 1_555 1_555
H20_5 C34_5 1_555 1_555
C35_5 C34_5 1_555 1_555
C36_5 O11_5 1_555 1_555
C37_5 C32_5 1_555 1_555
C48_6 C37_5 1_555 1_555
C49_5 C54_5 1_555 1_555
C50_5 C48_6 1_555 1_555
H27_5 C50_5 1_555 1_555
H28_5 C50_5 1_555 1_555
C51_5 C32_5 1_555 1_555
H31_5 C51_5 1_555 1_555
H32_5 C51_5 1_555 1_555
C53_5 H35_5 1_555 1_555
C54_5 C53_5 1_555 1_555
C55_5 C54_5 1_555 1_555
H36_5 C55_5 1_555 1_555
C56_5 C55_5 1_555 1_555
H37_5 C56_5 1_555 1_555
C57_5 C56_5 1_555 1_555
C58_5 C53_5 1_555 1_555
C59_5 C58_5 1_555 1_555
H38_5 C59_5 1_555 1_555
C60_5 C59_5 1_555 1_555
H39_5 C60_5 1_555 1_555
C61_5 C35_5 1_555 1_555
C62_5 C57_5 1_555 1_555
H40_5 C62_5 1_555 1_555
O18_5 C80_5 1_555 1_555
O36_4 C80_5 1_555 1_555
O42_4 C63_5 1_555 1_555
C63_5 C66_5 1_555 1_555
C64_5 H43_5 1_555 1_555
C65_5 C64_5 1_555 1_555
H44_5 C65_5 1_555 1_555
C66_5 C65_5 1_555 1_555
C67_5 C66_5 1_555 1_555
H45_5 C67_5 1_555 1_555
C68_5 C67_5 1_555 1_555
C69_5 C64_5 1_555 1_555
C70_5 C69_5 1_555 1_555
H46_5 C70_5 1_555 1_555
C71_5 C70_5 1_555 1_555
C72_5 C71_5 1_555 1_555
H47_5 C72_5 1_555 1_555
C73_5 C68_5 1_555 1_555
H48_5 C73_5 1_555 1_555
O21_5 C63_5 1_555 1_555
O22_5 H49_5 1_555 1_555
C74_5 C75_5 1_555 1_555
C75_5 C71_5 1_555 1_555
C76_5 C75_5 1_555 1_555
H50_5 C76_5 1_555 1_555
C77_5 C76_5 1_555 1_555
C78_5 O22_5 1_555 1_555
C79_5 C48_6 1_555 1_555
C80_5 C84_5 1_555 1_555
C81_5 C48_6 1_555 1_555
H51_5 C81_5 1_555 1_555
H52_5 C81_5 1_555 1_555
C82_5 C74_5 1_555 1_555
H53_5 C82_5 1_555 1_555
H54_5 C82_5 1_555 1_555
C83_5 H55_5 1_555 1_555
C84_5 C83_5 1_555 1_555
C85_5 C84_5 1_555 1_555
H56_5 C85_5 1_555 1_555
C86_5 C85_5 1_555 1_555
H57_5 C86_5 1_555 1_555
C87_5 C86_5 1_555 1_555
C88_5 C83_5 1_555 1_555
C89_5 C88_5 1_555 1_555
H58_5 C89_5 1_555 1_555
C90_5 C89_5 1_555 1_555
H59_5 C90_5 1_555 1_555
C91_5 C77_5 1_555 1_555
C92_5 C87_5 1_555 1_555
H60_5 C92_5 1_555 1_555
O34_5 Zr7_2 1_555 1_555
H83_5 O34_5 1_555 1_555
H84_5 O34_5 1_555 1_555
Zr13_2 O21_5 1_555 1_555
Zr11_2 O18_5 1_555 1_555
Zr17_5 O8_5 1_555 1_555
O37_5 Zr7_2 1_555 1_555
C16_5 C17_5 1_555 1_555
C20_5 C21_5 1_555 1_555
C35_5 C36_5 1_555 1_555
C36_5 C37_5 1_555 1_555
C50_5 C51_5 1_555 1_555
C57_5 C58_5 1_555 1_555
C60_5 C61_5 1_555 1_555
C61_5 C62_5 1_555 1_555
C68_5 C69_5 1_555 1_555
C72_5 C73_5 1_555 1_555
C74_5 C79_5 1_555 1_555
C77_5 C78_5 1_555 1_555
C78_5 C79_5 1_555 1_555
C81_5 C82_5 1_555 1_555
C87_5 C88_5 1_555 1_555
C90_5 C91_5 1_555 1_555
C91_5 C92_5 1_555 1_555
Zr17_5 O40 1_555 1_555
O12_6 Zr20 1_555 1_555
H29_6 O12_6 1_555 1_555
H30_6 O12_6 1_555 1_555
O34_6 Zr7_3 1_555 1_555
H83_6 O34_6 1_555 1_555
H84_6 O34_6 1_555 1_555
O37_6 Zr7_3 1_555 1_555
O38_6 Zr20 1_555 1_555
O47_6 Zr20 1_555 1_555
Zr12_2 O37_6 1_555 1_555
Zr12_2 O38_6 1_555 1_555
Zr7_4 O2_6 1_555 1_555
O35_2 C49_6 1_555 1_555
O2_6 C49_6 1_555 1_555
O8_6 C11_6 1_555 1_555
C11_6 C14_6 1_555 1_555
C12_6 H7_6 1_555 1_555
C13_6 C12_6 1_555 1_555
H8_6 C13_6 1_555 1_555
C14_6 C13_6 1_555 1_555
C15_6 C14_6 1_555 1_555
H9_6 C15_6 1_555 1_555
C16_6 C15_6 1_555 1_555
C17_6 C12_6 1_555 1_555
C18_6 C17_6 1_555 1_555
H10_6 C18_6 1_555 1_555
C19_6 C18_6 1_555 1_555
C20_6 C19_6 1_555 1_555
H11_6 C20_6 1_555 1_555
C21_6 C16_6 1_555 1_555
H12_6 C21_6 1_555 1_555
O44_2 C11_6 1_555 1_555
O11_6 H19_6 1_555 1_555
C32_6 C33_6 1_555 1_555
C33_6 C19_6 1_555 1_555
C34_6 C33_6 1_555 1_555
H20_6 C34_6 1_555 1_555
C35_6 C34_6 1_555 1_555
C36_6 O11_6 1_555 1_555
C37_6 C32_6 1_555 1_555
C48_7 C37_6 1_555 1_555
C49_6 C54_6 1_555 1_555
C50_6 C48_7 1_555 1_555
H27_6 C50_6 1_555 1_555
H28_6 C50_6 1_555 1_555
C51_6 C32_6 1_555 1_555
H31_6 C51_6 1_555 1_555
H32_6 C51_6 1_555 1_555
C53_6 H35_6 1_555 1_555
C54_6 C53_6 1_555 1_555
C55_6 C54_6 1_555 1_555
H36_6 C55_6 1_555 1_555
C56_6 C55_6 1_555 1_555
H37_6 C56_6 1_555 1_555
C57_6 C56_6 1_555 1_555
C58_6 C53_6 1_555 1_555
C59_6 C58_6 1_555 1_555
H38_6 C59_6 1_555 1_555
C60_6 C59_6 1_555 1_555
H39_6 C60_6 1_555 1_555
C61_6 C35_6 1_555 1_555
C62_6 C57_6 1_555 1_555
H40_6 C62_6 1_555 1_555
O17_6 Zr7_4 1_555 1_555
H41_6 O17_6 1_555 1_555
H42_6 O17_6 1_555 1_555
O18_6 C80_6 1_555 1_555
O36_3 C80_6 1_555 1_555
O42_3 C63_6 1_555 1_555
C63_6 C66_6 1_555 1_555
C64_6 H43_6 1_555 1_555
C65_6 C64_6 1_555 1_555
H44_6 C65_6 1_555 1_555
C66_6 C65_6 1_555 1_555
C67_6 C66_6 1_555 1_555
H45_6 C67_6 1_555 1_555
C68_6 C67_6 1_555 1_555
C69_6 C64_6 1_555 1_555
C70_6 C69_6 1_555 1_555
H46_6 C70_6 1_555 1_555
C71_6 C70_6 1_555 1_555
C72_6 C71_6 1_555 1_555
H47_6 C72_6 1_555 1_555
C73_6 C68_6 1_555 1_555
H48_6 C73_6 1_555 1_555
O21_6 C63_6 1_555 1_555
O22_6 H49_6 1_555 1_555
C74_6 C75_6 1_555 1_555
C75_6 C71_6 1_555 1_555
C76_6 C75_6 1_555 1_555
H50_6 C76_6 1_555 1_555
C77_6 C76_6 1_555 1_555
C78_6 O22_6 1_555 1_555
C79_6 C48_7 1_555 1_555
C80_6 C84_6 1_555 1_555
C81_6 C48_7 1_555 1_555
H51_6 C81_6 1_555 1_555
H52_6 C81_6 1_555 1_555
C82_6 C74_6 1_555 1_555
H53_6 C82_6 1_555 1_555
H54_6 C82_6 1_555 1_555
C83_6 H55_6 1_555 1_555
C84_6 C83_6 1_555 1_555
C85_6 C84_6 1_555 1_555
H56_6 C85_6 1_555 1_555
C86_6 C85_6 1_555 1_555
H57_6 C86_6 1_555 1_555
C87_6 C86_6 1_555 1_555
C88_6 C83_6 1_555 1_555
C89_6 C88_6 1_555 1_555
H58_6 C89_6 1_555 1_555
C90_6 C89_6 1_555 1_555
H59_6 C90_6 1_555 1_555
C91_6 C77_6 1_555 1_555
C92_6 C87_6 1_555 1_555
H60_6 C92_6 1_555 1_555
O33_6 Zr20_2 1_555 1_555
H81_6 O33_6 1_555 1_555
H82_6 O33_6 1_555 1_555
Zr13 O21_6 1_555 1_555
Zr11 O18_6 1_555 1_555
C16_6 C17_6 1_555 1_555
C20_6 C21_6 1_555 1_555
C35_6 C36_6 1_555 1_555
C36_6 C37_6 1_555 1_555
C50_6 C51_6 1_555 1_555
C57_6 C58_6 1_555 1_555
C60_6 C61_6 1_555 1_555
C61_6 C62_6 1_555 1_555
C68_6 C69_6 1_555 1_555
C72_6 C73_6 1_555 1_555
C74_6 C79_6 1_555 1_555
C77_6 C78_6 1_555 1_555
C78_6 C79_6 1_555 1_555
C81_6 C82_6 1_555 1_555
C87_6 C88_6 1_555 1_555
C90_6 C91_6 1_555 1_555
C91_6 C92_6 1_555 1_555
Zr8_2 O2_7 1_555 1_555
O35_4 C49_7 1_555 1_555
O2_7 C49_7 1_555 1_555
O8_7 C11_7 1_555 1_555
C11_7 C14_7 1_555 1_555
C12_7 H7_7 1_555 1_555
C13_7 C12_7 1_555 1_555
H8_7 C13_7 1_555 1_555
C14_7 C13_7 1_555 1_555
C15_7 C14_7 1_555 1_555
H9_7 C15_7 1_555 1_555
C16_7 C15_7 1_555 1_555
C17_7 C12_7 1_555 1_555
C18_7 C17_7 1_555 1_555
H10_7 C18_7 1_555 1_555
C19_7 C18_7 1_555 1_555
C20_7 C19_7 1_555 1_555
H11_7 C20_7 1_555 1_555
C21_7 C16_7 1_555 1_555
H12_7 C21_7 1_555 1_555
O44_4 C11_7 1_555 1_555
O11_7 H19_7 1_555 1_555
C32_7 C33_7 1_555 1_555
C33_7 C19_7 1_555 1_555
C34_7 C33_7 1_555 1_555
H20_7 C34_7 1_555 1_555
C35_7 C34_7 1_555 1_555
C36_7 O11_7 1_555 1_555
C37_7 C32_7 1_555 1_555
C48_8 C37_7 1_555 1_555
C49_7 C54_7 1_555 1_555
C50_7 C48_8 1_555 1_555
H27_7 C50_7 1_555 1_555
H28_7 C50_7 1_555 1_555
C51_7 C32_7 1_555 1_555
H31_7 C51_7 1_555 1_555
H32_7 C51_7 1_555 1_555
C53_7 H35_7 1_555 1_555
C54_7 C53_7 1_555 1_555
C55_7 C54_7 1_555 1_555
H36_7 C55_7 1_555 1_555
C56_7 C55_7 1_555 1_555
H37_7 C56_7 1_555 1_555
C57_7 C56_7 1_555 1_555
C58_7 C53_7 1_555 1_555
C59_7 C58_7 1_555 1_555
H38_7 C59_7 1_555 1_555
C60_7 C59_7 1_555 1_555
H39_7 C60_7 1_555 1_555
C61_7 C35_7 1_555 1_555
C62_7 C57_7 1_555 1_555
H40_7 C62_7 1_555 1_555
O18_7 C80_7 1_555 1_555
O36_2 C80_7 1_555 1_555
O42_2 C63_7 1_555 1_555
C63_7 C66_7 1_555 1_555
C64_7 H43_7 1_555 1_555
C65_7 C64_7 1_555 1_555
H44_7 C65_7 1_555 1_555
C66_7 C65_7 1_555 1_555
C67_7 C66_7 1_555 1_555
H45_7 C67_7 1_555 1_555
C68_7 C67_7 1_555 1_555
C69_7 C64_7 1_555 1_555
C70_7 C69_7 1_555 1_555
H46_7 C70_7 1_555 1_555
C71_7 C70_7 1_555 1_555
C72_7 C71_7 1_555 1_555
H47_7 C72_7 1_555 1_555
C73_7 C68_7 1_555 1_555
H48_7 C73_7 1_555 1_555
O21_7 C63_7 1_555 1_555
O22_7 H49_7 1_555 1_555
C74_7 C75_7 1_555 1_555
C75_7 C71_7 1_555 1_555
C76_7 C75_7 1_555 1_555
H50_7 C76_7 1_555 1_555
C77_7 C76_7 1_555 1_555
C78_7 O22_7 1_555 1_555
C79_7 C48_8 1_555 1_555
C80_7 C84_7 1_555 1_555
C81_7 C48_8 1_555 1_555
H51_7 C81_7 1_555 1_555
H52_7 C81_7 1_555 1_555
C82_7 C74_7 1_555 1_555
H53_7 C82_7 1_555 1_555
H54_7 C82_7 1_555 1_555
C83_7 H55_7 1_555 1_555
C84_7 C83_7 1_555 1_555
C85_7 C84_7 1_555 1_555
H56_7 C85_7 1_555 1_555
C86_7 C85_7 1_555 1_555
H57_7 C86_7 1_555 1_555
C87_7 C86_7 1_555 1_555
C88_7 C83_7 1_555 1_555
C89_7 C88_7 1_555 1_555
H58_7 C89_7 1_555 1_555
C90_7 C89_7 1_555 1_555
H59_7 C90_7 1_555 1_555
C91_7 C77_7 1_555 1_555
C92_7 C87_7 1_555 1_555
H60_7 C92_7 1_555 1_555
O33_7 Zr20_3 1_555 1_555
H81_7 O33_7 1_555 1_555
Zr12_2 O21_7 1_555 1_555
Zr10_2 O18_7 1_555 1_555
C16_7 C17_7 1_555 1_555
C20_7 C21_7 1_555 1_555
C35_7 C36_7 1_555 1_555
C36_7 C37_7 1_555 1_555
C50_7 C51_7 1_555 1_555
C57_7 C58_7 1_555 1_555
C60_7 C61_7 1_555 1_555
C61_7 C62_7 1_555 1_555
C68_7 C69_7 1_555 1_555
C72_7 C73_7 1_555 1_555
C74_7 C79_7 1_555 1_555
C77_7 C78_7 1_555 1_555
C78_7 C79_7 1_555 1_555
C81_7 C82_7 1_555 1_555
C87_7 C88_7 1_555 1_555
C90_7 C91_7 1_555 1_555
C91_7 C92_7 1_555 1_555
O17_7 Zr8_3 1_555 1_555
H41_7 O17_7 1_555 1_555
H42_7 O17_7 1_555 1_555
O34_7 Zr8_4 1_555 1_555
H83_7 O34_7 1_555 1_555
H84_7 O34_7 1_555 1_555
O37_7 Zr8_4 1_555 1_555
O38_7 Zr20_5 1_555 1_555
O47_7 Zr20_5 1_555 1_555
O12_7 Zr20_6 1_555 1_555
H29_7 O12_7 1_555 1_555
Zr8 O2_8 1_555 1_555
O35_3 C49_8 1_555 1_555
O2_8 C49_8 1_555 1_555
O8_8 C11_8 1_555 1_555
C11_8 C14_8 1_555 1_555
C12_8 H7_8 1_555 1_555
C13_8 C12_8 1_555 1_555
H8_8 C13_8 1_555 1_555
C14_8 C13_8 1_555 1_555
C15_8 C14_8 1_555 1_555
H9_8 C15_8 1_555 1_555
C16_8 C15_8 1_555 1_555
C17_8 C12_8 1_555 1_555
C18_8 C17_8 1_555 1_555
H10_8 C18_8 1_555 1_555
C19_8 C18_8 1_555 1_555
C20_8 C19_8 1_555 1_555
H11_8 C20_8 1_555 1_555
C21_8 C16_8 1_555 1_555
H12_8 C21_8 1_555 1_555
O44_3 C11_8 1_555 1_555
O11_8 H19_8 1_555 1_555
C32_8 C33_8 1_555 1_555
C33_8 C19_8 1_555 1_555
C34_8 C33_8 1_555 1_555
H20_8 C34_8 1_555 1_555
C35_8 C34_8 1_555 1_555
C36_8 O11_8 1_555 1_555
C37_8 C32_8 1_555 1_555
C48_9 C37_8 1_555 1_555
C49_8 C54_8 1_555 1_555
O12_8 Zr19_3 1_555 1_555
H29_8 O12_8 1_555 1_555
H30_8 O12_8 1_555 1_555
C53_8 H35_8 1_555 1_555
C54_8 C53_8 1_555 1_555
C55_8 C54_8 1_555 1_555
H36_8 C55_8 1_555 1_555
C56_8 C55_8 1_555 1_555
H37_8 C56_8 1_555 1_555
C57_8 C56_8 1_555 1_555
C58_8 C53_8 1_555 1_555
C59_8 C58_8 1_555 1_555
H38_8 C59_8 1_555 1_555
C60_8 C59_8 1_555 1_555
H39_8 C60_8 1_555 1_555
C61_8 C35_8 1_555 1_555
C62_8 C57_8 1_555 1_555
H40_8 C62_8 1_555 1_555
O17_8 Zr8 1_555 1_555
H41_8 O17_8 1_555 1_555
H42_8 O17_8 1_555 1_555
C81_8 C48_9 1_555 1_555
H51_8 C81_8 1_555 1_555
H52_8 C81_8 1_555 1_555
H53_8 C82_8 1_555 1_555
O33_8 Zr19_3 1_555 1_555
H81_8 O33_8 1_555 1_555
H82_8 O33_8 1_555 1_555
O34_8 Zr8 1_555 1_555
H83_8 O34_8 1_555 1_555
H84_8 O34_8 1_555 1_555
Zr17_8 O8_8 1_555 1_555
O37_8 Zr8 1_555 1_555
O38_8 Zr19_3 1_555 1_555
O47_8 Zr19_3 1_555 1_555
C16_8 C17_8 1_555 1_555
C20_8 C21_8 1_555 1_555
C35_8 C36_8 1_555 1_555
C36_8 C37_8 1_555 1_555
C57_8 C58_8 1_555 1_555
C60_8 C61_8 1_555 1_555
C61_8 C62_8 1_555 1_555
C81_8 C82_8 1_555 1_555
Zr13 O37_8 1_555 1_555
Zr13 O38_8 1_555 1_555
Zr17_8 O40_3 1_555 1_555
C50_8 C48_10 1_555 1_555
H27_8 C50_8 1_555 1_555
H28_8 C50_8 1_555 1_555
H31_8 C51_8 1_555 1_555
O18_8 C80_8 1_555 1_555
O36 C80_8 1_555 1_555
O42 C63_8 1_555 1_555
C63_8 C66_8 1_555 1_555
C64_8 H43_8 1_555 1_555
C65_8 C64_8 1_555 1_555
H44_8 C65_8 1_555 1_555
C66_8 C65_8 1_555 1_555
C67_8 C66_8 1_555 1_555
H45_8 C67_8 1_555 1_555
C68_8 C67_8 1_555 1_555
C69_8 C64_8 1_555 1_555
C70_8 C69_8 1_555 1_555
H46_8 C70_8 1_555 1_555
C71_8 C70_8 1_555 1_555
C72_8 C71_8 1_555 1_555
H47_8 C72_8 1_555 1_555
C73_8 C68_8 1_555 1_555
H48_8 C73_8 1_555 1_555
O21_8 C63_8 1_555 1_555
O22_8 H49_8 1_555 1_555
C74_8 C75_8 1_555 1_555
C75_8 C71_8 1_555 1_555
C76_8 C75_8 1_555 1_555
H50_8 C76_8 1_555 1_555
C77_8 C76_8 1_555 1_555
C78_8 O22_8 1_555 1_555
C79_8 C48_10 1_555 1_555
C80_8 C84_8 1_555 1_555
C83_8 H55_8 1_555 1_555
C84_8 C83_8 1_555 1_555
C85_8 C84_8 1_555 1_555
H56_8 C85_8 1_555 1_555
C86_8 C85_8 1_555 1_555
H57_8 C86_8 1_555 1_555
C87_8 C86_8 1_555 1_555
C88_8 C83_8 1_555 1_555
C89_8 C88_8 1_555 1_555
H58_8 C89_8 1_555 1_555
C90_8 C89_8 1_555 1_555
H59_8 C90_8 1_555 1_555
C91_8 C77_8 1_555 1_555
C92_8 C87_8 1_555 1_555
H60_8 C92_8 1_555 1_555
Zr12 O21_8 1_555 1_555
Zr10 O18_8 1_555 1_555
C50_8 C51_8 1_555 1_555
C68_8 C69_8 1_555 1_555
C72_8 C73_8 1_555 1_555
C74_8 C79_8 1_555 1_555
C77_8 C78_8 1_555 1_555
C78_8 C79_8 1_555 1_555
C87_8 C88_8 1_555 1_555
C90_8 C91_8 1_555 1_555
C91_8 C92_8 1_555 1_555
O13_5 Zr10_2 1_555 1_555
H33_5 O13_5 1_555 1_555
H34_5 O13_5 1_555 1_555
Zr17_2 O37_6 1_555 1_555
O31_5 Zr12_2 1_555 1_555
H79_5 O31_5 1_555 1_555
H80_5 O31_5 1_555 1_555
O39_3 Zr12_2 1_555 1_555
O45_3 Zr17_2 1_555 1_555
O49_3 Zr17_2 1_555 1_555
Zr17_2 O38_6 1_555 1_555
Zr17_6 O37_2 1_555 1_555
O5_5 H1_5 1_555 1_555
C1_5 H2_5 1_555 1_555
H3_5 C1_5 1_555 1_555
C2_5 C1_5 1_555 1_555
H4_5 C2_5 1_555 1_555
H5_5 C2_5 1_555 1_555
C3_6 C1_5 1_555 1_555
C4_5 C5_5 1_555 1_555
C5_5 H6_5 1_555 1_555
C6_5 C5_5 1_555 1_555
C7_5 O5_5 1_555 1_555
C8_5 C3_6 1_555 1_555
C9_5 C2_5 1_555 1_555
C10_5 O6_5 1_555 1_555
C22_5 H13_5 1_555 1_555
C23_5 C10_5 1_555 1_555
C24_5 C23_5 1_555 1_555
H14_5 C24_5 1_555 1_555
C25_5 C24_5 1_555 1_555
H15_5 C25_5 1_555 1_555
C26_5 C25_5 1_555 1_555
C27_5 C22_5 1_555 1_555
C28_5 C27_5 1_555 1_555
H16_5 C28_5 1_555 1_555
C29_5 C28_5 1_555 1_555
H17_5 C29_5 1_555 1_555
C30_5 C4_5 1_555 1_555
C31_5 C26_5 1_555 1_555
H18_5 C31_5 1_555 1_555
O10_5 Zr17_6 1_555 1_555
C38_5 H21_5 1_555 1_555
C39_5 C38_5 1_555 1_555
H22_5 C39_5 1_555 1_555
C40_5 C6_5 1_555 1_555
C41_5 C40_5 1_555 1_555
H23_5 C41_5 1_555 1_555
C42_5 C41_5 1_555 1_555
C43_5 C38_5 1_555 1_555
C44_5 C43_5 1_555 1_555
H24_5 C44_5 1_555 1_555
C45_5 C44_5 1_555 1_555
C46_5 C45_5 1_555 1_555
H25_5 C46_5 1_555 1_555
C47_5 C42_5 1_555 1_555
H26_5 C47_5 1_555 1_555
O47_4 C52_5 1_555 1_555
C52_5 C45_5 1_555 1_555
O15_3 C52_5 1_555 1_555
O23_5 H61_5 1_555 1_555
C93_5 C3_6 1_555 1_555
H62_5 C93_5 1_555 1_555
H63_5 C93_5 1_555 1_555
O24_3 C101_5 1_555 1_555
C94_5 C93_5 1_555 1_555
H64_5 C94_5 1_555 1_555
H65_5 C94_5 1_555 1_555
C95_5 C96_5 1_555 1_555
C96_5 H66_5 1_555 1_555
C97_5 C96_5 1_555 1_555
C98_5 O23_5 1_555 1_555
C99_5 C3_6 1_555 1_555
C100_5 C94_5 1_555 1_555
C101_5 C103_5 1_555 1_555
C102_5 H67_5 1_555 1_555
C103_5 C102_5 1_555 1_555
C104_5 C103_5 1_555 1_555
H68_5 C104_5 1_555 1_555
C105_5 C104_5 1_555 1_555
H69_5 C105_5 1_555 1_555
C106_5 C105_5 1_555 1_555
C107_5 C102_5 1_555 1_555
C108_5 C107_5 1_555 1_555
H70_5 C108_5 1_555 1_555
C109_5 C108_5 1_555 1_555
H71_5 C109_5 1_555 1_555
C110_5 C95_5 1_555 1_555
C111_5 C106_5 1_555 1_555
H72_5 C111_5 1_555 1_555
O25_3 C101_5 1_555 1_555
C112_5 H73_5 1_555 1_555
C113_5 C112_5 1_555 1_555
H74_5 C113_5 1_555 1_555
C114_5 C97_5 1_555 1_555
C115_5 C114_5 1_555 1_555
H75_5 C115_5 1_555 1_555
C116_5 C115_5 1_555 1_555
C117_5 C112_5 1_555 1_555
C118_5 C117_5 1_555 1_555
H76_5 C118_5 1_555 1_555
C119_5 C118_5 1_555 1_555
C120_5 C119_5 1_555 1_555
H77_5 C120_5 1_555 1_555
C121_5 C116_5 1_555 1_555
H78_5 C121_5 1_555 1_555
O47_5 C122_5 1_555 1_555
C122_5 C119_5 1_555 1_555
O27_3 C122_5 1_555 1_555
Zr13 O24_3 1_555 1_555
Zr17_7 O15_3 1_555 1_555
Zr17_3 O25_3 1_555 1_555
O48_3 Zr17_6 1_555 1_555
Zr17_6 O38_2 1_555 1_555
C4_5 C9_5 1_555 1_555
C6_5 C7_5 1_555 1_555
C7_5 C8_5 1_555 1_555
C8_5 C9_5 1_555 1_555
C10_5 O10_5 1_555 1_555
C22_5 C23_5 1_555 1_555
C26_5 C27_5 1_555 1_555
C29_5 C30_5 1_555 1_555
C30_5 C31_5 1_555 1_555
C39_5 C40_5 1_555 1_555
C42_5 C43_5 1_555 1_555
C46_5 C47_5 1_555 1_555
C95_5 C100_5 1_555 1_555
C97_5 C98_5 1_555 1_555
C98_5 C99_5 1_555 1_555
C99_5 C100_5 1_555 1_555
C106_5 C107_5 1_555 1_555
C109_5 C110_5 1_555 1_555
C110_5 C111_5 1_555 1_555
C113_5 C114_5 1_555 1_555
C116_5 C117_5 1_555 1_555
C120_5 C121_5 1_555 1_555
H79_6 O31_6 1_555 1_555
H80_6 O31_6 1_555 1_555
Zr17_5 O37 1_555 1_555
O5_6 H1_6 1_555 1_555
C1_6 H2_6 1_555 1_555
H3_6 C1_6 1_555 1_555
O6_6 Zr10 1_555 1_555
C2_6 C1_6 1_555 1_555
H4_6 C2_6 1_555 1_555
H5_6 C2_6 1_555 1_555
C3_7 C1_6 1_555 1_555
C4_6 C5_6 1_555 1_555
C5_6 H6_6 1_555 1_555
C6_6 C5_6 1_555 1_555
C7_6 O5_6 1_555 1_555
C8_6 C3_7 1_555 1_555
C9_6 C2_6 1_555 1_555
C10_6 O6_6 1_555 1_555
C22_6 H13_6 1_555 1_555
C23_6 C10_6 1_555 1_555
C24_6 C23_6 1_555 1_555
H14_6 C24_6 1_555 1_555
C25_6 C24_6 1_555 1_555
H15_6 C25_6 1_555 1_555
C26_6 C25_6 1_555 1_555
C27_6 C22_6 1_555 1_555
C28_6 C27_6 1_555 1_555
H16_6 C28_6 1_555 1_555
C29_6 C28_6 1_555 1_555
H17_6 C29_6 1_555 1_555
C30_6 C4_6 1_555 1_555
C31_6 C26_6 1_555 1_555
H18_6 C31_6 1_555 1_555
O10_6 Zr17_5 1_555 1_555
C38_6 H21_6 1_555 1_555
C39_6 C38_6 1_555 1_555
H22_6 C39_6 1_555 1_555
C40_6 C6_6 1_555 1_555
C41_6 C40_6 1_555 1_555
H23_6 C41_6 1_555 1_555
C42_6 C41_6 1_555 1_555
C43_6 C38_6 1_555 1_555
C44_6 C43_6 1_555 1_555
H24_6 C44_6 1_555 1_555
C45_6 C44_6 1_555 1_555
C46_6 C45_6 1_555 1_555
H25_6 C46_6 1_555 1_555
C47_6 C42_6 1_555 1_555
H26_6 C47_6 1_555 1_555
O13_6 Zr10 1_555 1_555
H33_6 O13_6 1_555 1_555
H34_6 O13_6 1_555 1_555
O47_3 C52_6 1_555 1_555
C52_6 C45_6 1_555 1_555
O15_4 C52_6 1_555 1_555
O16_6 Zr17_5 1_555 1_555
O23_6 H61_6 1_555 1_555
C93_6 C3_7 1_555 1_555
H62_6 C93_6 1_555 1_555
H63_6 C93_6 1_555 1_555
O24_4 C101_6 1_555 1_555
C94_6 C93_6 1_555 1_555
H64_6 C94_6 1_555 1_555
H65_6 C94_6 1_555 1_555
C95_6 C96_6 1_555 1_555
C96_6 H66_6 1_555 1_555
C97_6 C96_6 1_555 1_555
C98_6 O23_6 1_555 1_555
C99_6 C3_7 1_555 1_555
C100_6 C94_6 1_555 1_555
C101_6 C103_6 1_555 1_555
C102_6 H67_6 1_555 1_555
C103_6 C102_6 1_555 1_555
C104_6 C103_6 1_555 1_555
H68_6 C104_6 1_555 1_555
C105_6 C104_6 1_555 1_555
H69_6 C105_6 1_555 1_555
C106_6 C105_6 1_555 1_555
C107_6 C102_6 1_555 1_555
C108_6 C107_6 1_555 1_555
H70_6 C108_6 1_555 1_555
C109_6 C108_6 1_555 1_555
H71_6 C109_6 1_555 1_555
C110_6 C95_6 1_555 1_555
C111_6 C106_6 1_555 1_555
H72_6 C111_6 1_555 1_555
O25_4 C101_6 1_555 1_555
C112_6 H73_6 1_555 1_555
C113_6 C112_6 1_555 1_555
H74_6 C113_6 1_555 1_555
C114_6 C97_6 1_555 1_555
C115_6 C114_6 1_555 1_555
H75_6 C115_6 1_555 1_555
C116_6 C115_6 1_555 1_555
C117_6 C112_6 1_555 1_555
C118_6 C117_6 1_555 1_555
H76_6 C118_6 1_555 1_555
C119_6 C118_6 1_555 1_555
C120_6 C119_6 1_555 1_555
H77_6 C120_6 1_555 1_555
C121_6 C116_6 1_555 1_555
H78_6 C121_6 1_555 1_555
O47_6 C122_6 1_555 1_555
C122_6 C119_6 1_555 1_555
O49_3 C122_6 1_555 1_555
Zr17_4 O25_4 1_555 1_555
O48_4 Zr17_5 1_555 1_555
Zr17_5 O38 1_555 1_555
C4_6 C9_6 1_555 1_555
C6_6 C7_6 1_555 1_555
C7_6 C8_6 1_555 1_555
C8_6 C9_6 1_555 1_555
C10_6 O10_6 1_555 1_555
C22_6 C23_6 1_555 1_555
C26_6 C27_6 1_555 1_555
C29_6 C30_6 1_555 1_555
C30_6 C31_6 1_555 1_555
C39_6 C40_6 1_555 1_555
C42_6 C43_6 1_555 1_555
C46_6 C47_6 1_555 1_555
C95_6 C100_6 1_555 1_555
C97_6 C98_6 1_555 1_555
C98_6 C99_6 1_555 1_555
C99_6 C100_6 1_555 1_555
C106_6 C107_6 1_555 1_555
C109_6 C110_6 1_555 1_555
C110_6 C111_6 1_555 1_555
C113_6 C114_6 1_555 1_555
C116_6 C117_6 1_555 1_555
C120_6 C121_6 1_555 1_555
Zr17 O37_5 1_555 1_555
O45_4 Zr17 1_555 1_555
Zr17_4 O37_7 1_555 1_555
O49_4 Zr17_4 1_555 1_555
Zr17_4 O38_7 1_555 1_555
Zr17_7 O37_4 1_555 1_555
O5_7 H1_7 1_555 1_555
C1_7 H2_7 1_555 1_555
H3_7 C1_7 1_555 1_555
O6_7 Zr11_2 1_555 1_555
C2_7 C1_7 1_555 1_555
H4_7 C2_7 1_555 1_555
H5_7 C2_7 1_555 1_555
C3_8 C1_7 1_555 1_555
C4_7 C5_7 1_555 1_555
C5_7 H6_7 1_555 1_555
C6_7 C5_7 1_555 1_555
C7_7 O5_7 1_555 1_555
C8_7 C3_8 1_555 1_555
C9_7 C2_7 1_555 1_555
C10_7 O6_7 1_555 1_555
C22_7 H13_7 1_555 1_555
C23_7 C10_7 1_555 1_555
C24_7 C23_7 1_555 1_555
H14_7 C24_7 1_555 1_555
C25_7 C24_7 1_555 1_555
H15_7 C25_7 1_555 1_555
C26_7 C25_7 1_555 1_555
C27_7 C22_7 1_555 1_555
C28_7 C27_7 1_555 1_555
H16_7 C28_7 1_555 1_555
C29_7 C28_7 1_555 1_555
H17_7 C29_7 1_555 1_555
C30_7 C4_7 1_555 1_555
C31_7 C26_7 1_555 1_555
H18_7 C31_7 1_555 1_555
O10_7 Zr17_7 1_555 1_555
C38_7 H21_7 1_555 1_555
C39_7 C38_7 1_555 1_555
H22_7 C39_7 1_555 1_555
C40_7 C6_7 1_555 1_555
C41_7 C40_7 1_555 1_555
H23_7 C41_7 1_555 1_555
C42_7 C41_7 1_555 1_555
C43_7 C38_7 1_555 1_555
C44_7 C43_7 1_555 1_555
H24_7 C44_7 1_555 1_555
C45_7 C44_7 1_555 1_555
C46_7 C45_7 1_555 1_555
H25_7 C46_7 1_555 1_555
C47_7 C42_7 1_555 1_555
H26_7 C47_7 1_555 1_555
O13_7 Zr11_2 1_555 1_555
H33_7 O13_7 1_555 1_555
H34_7 O13_7 1_555 1_555
O47 C52_7 1_555 1_555
C52_7 C45_7 1_555 1_555
O48_4 C52_7 1_555 1_555
O23_7 H61_7 1_555 1_555
C93_7 C3_8 1_555 1_555
H62_7 C93_7 1_555 1_555
H63_7 C93_7 1_555 1_555
O39_3 C101_7 1_555 1_555
C94_7 C93_7 1_555 1_555
H64_7 C94_7 1_555 1_555
H65_7 C94_7 1_555 1_555
C95_7 C96_7 1_555 1_555
C96_7 H66_7 1_555 1_555
C97_7 C96_7 1_555 1_555
C98_7 O23_7 1_555 1_555
C99_7 C3_8 1_555 1_555
C100_7 C94_7 1_555 1_555
C101_7 C103_7 1_555 1_555
C102_7 H67_7 1_555 1_555
C103_7 C102_7 1_555 1_555
C104_7 C103_7 1_555 1_555
H68_7 C104_7 1_555 1_555
C105_7 C104_7 1_555 1_555
H69_7 C105_7 1_555 1_555
C106_7 C105_7 1_555 1_555
C107_7 C102_7 1_555 1_555
C108_7 C107_7 1_555 1_555
H70_7 C108_7 1_555 1_555
C109_7 C108_7 1_555 1_555
H71_7 C109_7 1_555 1_555
C110_7 C95_7 1_555 1_555
C111_7 C106_7 1_555 1_555
H72_7 C111_7 1_555 1_555
O45_3 C101_7 1_555 1_555
C112_7 H73_7 1_555 1_555
C113_7 C112_7 1_555 1_555
H74_7 C113_7 1_555 1_555
C114_7 C97_7 1_555 1_555
C115_7 C114_7 1_555 1_555
H75_7 C115_7 1_555 1_555
C116_7 C115_7 1_555 1_555
C117_7 C112_7 1_555 1_555
C118_7 C117_7 1_555 1_555
H76_7 C118_7 1_555 1_555
C119_7 C118_7 1_555 1_555
C120_7 C119_7 1_555 1_555
H77_7 C120_7 1_555 1_555
C121_7 C116_7 1_555 1_555
H78_7 C121_7 1_555 1_555
O47_8 C122_7 1_555 1_555
C122_7 C119_7 1_555 1_555
O27_4 C122_7 1_555 1_555
O31_7 Zr13_2 1_555 1_555
H79_7 O31_7 1_555 1_555
H80_7 O31_7 1_555 1_555
Zr17_3 O27_4 1_555 1_555
Zr17_7 O38_4 1_555 1_555
C4_7 C9_7 1_555 1_555
C6_7 C7_7 1_555 1_555
C7_7 C8_7 1_555 1_555
C8_7 C9_7 1_555 1_555
C10_7 O10_7 1_555 1_555
C22_7 C23_7 1_555 1_555
C26_7 C27_7 1_555 1_555
C29_7 C30_7 1_555 1_555
C30_7 C31_7 1_555 1_555
C39_7 C40_7 1_555 1_555
C42_7 C43_7 1_555 1_555
C46_7 C47_7 1_555 1_555
C95_7 C100_7 1_555 1_555
C97_7 C98_7 1_555 1_555
C98_7 C99_7 1_555 1_555
C99_7 C100_7 1_555 1_555
C106_7 C107_7 1_555 1_555
C109_7 C110_7 1_555 1_555
C110_7 C111_7 1_555 1_555
C113_7 C114_7 1_555 1_555
C116_7 C117_7 1_555 1_555
C120_7 C121_7 1_555 1_555
Zr17_8 O37_3 1_555 1_555
O5_8 H1_8 1_555 1_555
C4_8 C5_8 1_555 1_555
C5_8 H6_8 1_555 1_555
C6_8 C5_8 1_555 1_555
C7_8 O5_8 1_555 1_555
C8_8 C3_9 1_555 1_555
C10_8 O6_8 1_555 1_555
C22_8 H13_8 1_555 1_555
C23_8 C10_8 1_555 1_555
C24_8 C23_8 1_555 1_555
H14_8 C24_8 1_555 1_555
C25_8 C24_8 1_555 1_555
H15_8 C25_8 1_555 1_555
C26_8 C25_8 1_555 1_555
C27_8 C22_8 1_555 1_555
C28_8 C27_8 1_555 1_555
H16_8 C28_8 1_555 1_555
C29_8 C28_8 1_555 1_555
H17_8 C29_8 1_555 1_555
C30_8 C4_8 1_555 1_555
C31_8 C26_8 1_555 1_555
H18_8 C31_8 1_555 1_555
O10_8 Zr17_8 1_555 1_555
C38_8 H21_8 1_555 1_555
C39_8 C38_8 1_555 1_555
H22_8 C39_8 1_555 1_555
C40_8 C6_8 1_555 1_555
C41_8 C40_8 1_555 1_555
H23_8 C41_8 1_555 1_555
C42_8 C41_8 1_555 1_555
C43_8 C38_8 1_555 1_555
C44_8 C43_8 1_555 1_555
H24_8 C44_8 1_555 1_555
C45_8 C44_8 1_555 1_555
C46_8 C45_8 1_555 1_555
H25_8 C46_8 1_555 1_555
C47_8 C42_8 1_555 1_555
H26_8 C47_8 1_555 1_555
O47_2 C52_8 1_555 1_555
C52_8 C45_8 1_555 1_555
O48_3 C52_8 1_555 1_555
C93_8 C3_9 1_555 1_555
H62_8 C93_8 1_555 1_555
H63_8 C93_8 1_555 1_555
C94_8 C93_8 1_555 1_555
H65_8 C94_8 1_555 1_555
C4_8 C9_8 1_555 1_555
C6_8 C7_8 1_555 1_555
C7_8 C8_8 1_555 1_555
C8_8 C9_8 1_555 1_555
C10_8 O10_8 1_555 1_555
C22_8 C23_8 1_555 1_555
C26_8 C27_8 1_555 1_555
C29_8 C30_8 1_555 1_555
C30_8 C31_8 1_555 1_555
C39_8 C40_8 1_555 1_555
C42_8 C43_8 1_555 1_555
C46_8 C47_8 1_555 1_555
C1_8 H2_8 1_555 1_555
H3_8 C1_8 1_555 1_555
C2_8 C1_8 1_555 1_555
H5_8 C2_8 1_555 1_555
C3_10 C1_8 1_555 1_555
O23_8 H61_8 1_555 1_555
O39_4 C101_8 1_555 1_555
C95_8 C96_8 1_555 1_555
C96_8 H66_8 1_555 1_555
C97_8 C96_8 1_555 1_555
C98_8 O23_8 1_555 1_555
C99_8 C3_10 1_555 1_555
C101_8 C103_8 1_555 1_555
C102_8 H67_8 1_555 1_555
C103_8 C102_8 1_555 1_555
C104_8 C103_8 1_555 1_555
H68_8 C104_8 1_555 1_555
C105_8 C104_8 1_555 1_555
H69_8 C105_8 1_555 1_555
C106_8 C105_8 1_555 1_555
C107_8 C102_8 1_555 1_555
C108_8 C107_8 1_555 1_555
H70_8 C108_8 1_555 1_555
C109_8 C108_8 1_555 1_555
H71_8 C109_8 1_555 1_555
C110_8 C95_8 1_555 1_555
C111_8 C106_8 1_555 1_555
H72_8 C111_8 1_555 1_555
O45_4 C101_8 1_555 1_555
C112_8 H73_8 1_555 1_555
C113_8 C112_8 1_555 1_555
H74_8 C113_8 1_555 1_555
C114_8 C97_8 1_555 1_555
C115_8 C114_8 1_555 1_555
H75_8 C115_8 1_555 1_555
C116_8 C115_8 1_555 1_555
C117_8 C112_8 1_555 1_555
C118_8 C117_8 1_555 1_555
H76_8 C118_8 1_555 1_555
C119_8 C118_8 1_555 1_555
C120_8 C119_8 1_555 1_555
H77_8 C120_8 1_555 1_555
C121_8 C116_8 1_555 1_555
H78_8 C121_8 1_555 1_555
O47_7 C122_8 1_555 1_555
C122_8 C119_8 1_555 1_555
O49_4 C122_8 1_555 1_555
C95_8 C100_8 1_555 1_555
C97_8 C98_8 1_555 1_555
C98_8 C99_8 1_555 1_555
C99_8 C100_8 1_555 1_555
C106_8 C107_8 1_555 1_555
C109_8 C110_8 1_555 1_555
C110_8 C111_8 1_555 1_555
C113_8 C114_8 1_555 1_555
C116_8 C117_8 1_555 1_555
C120_8 C121_8 1_555 1_555
Zr17_3 O37_8 1_555 1_555
O31_8 Zr13 1_555 1_555
H79_8 O31_8 1_555 1_555
H80_8 O31_8 1_555 1_555
O32_8 Zr17_3 1_555 1_555
Zr17_3 O38_8 1_555 1_555
H33_8 O13_8 1_555 1_555
H34_8 O13_8 1_555 1_555

#END
