
###############################################################################
#
# This file contains modified crystal structure data generated from the
# MOF subset of the Cambridge Structural Database (CSD) v543 
# hosted by the Cambridge Crystallographic Data Centre (CCDC).
#
# This work is licensed under the Creative Commons
# Attribution-NonCommercial-ShareAlike 4.0 International License.
# To view a copy of this license, visit
# http://creativecommons.org/licenses/by-nc-sa/4.0/
# or send a letter to
# Creative Commons, PO Box 1866, Mountain View, CA 94042, USA.
#
# CIF created using the CSD Python API on 29 September 2022
# The structure has been converted into the P1 space group
# The structure has a 3D framework
# The original CSD entry IXEDOE is in the monoclinic crystal system
# The framework has been calculated to contain at least 10.0% void space
# The void calculation uses a probe of radius 1.32A, grid spacing 0.4
# The framework is charged, counterions have been retained in the structure
#
###############################################################################

data_IXEDOE
_chemical_formula_moiety         '(C160 H128 Cl12 La4 N32 O80)n'
_symmetry_cell_setting           triclinic
_symmetry_space_group_name_H-M   'P 1'
_symmetry_Int_Tables_number      1
_space_group_name_Hall           'P 1'
loop_
_symmetry_equiv_pos_site_id
_symmetry_equiv_pos_as_xyz
1 x,y,z
_cell_length_a                   13.520(2)
_cell_length_b                   22.575(3)
_cell_length_c                   23.688(3)
_cell_angle_alpha                90
_cell_angle_beta                 103.924(2)
_cell_angle_gamma                90
_cell_volume                     7017.46
loop_
_atom_site_label
_atom_site_type_symbol
_atom_site_fract_x
_atom_site_fract_y
_atom_site_fract_z
La1 La 0.28403(2) 0.152883(14) 0.245530(18)
O1 O 0.3111(4) 0.0437(2) 0.2629(3)
O2 O 0.1910(4) 0.1199(2) 0.3174(2)
O3 O 0.4597(4) 0.1506(2) 0.3034(2)
O4 O 0.1169(3) 0.2065(2) 0.2287(2)
O5 O 0.8071(4) 0.2538(2) 0.6946(2)
N1 N 0.3829(5) 0.0021(2) 0.2715(3)
C1 C 0.4803(6) 0.0167(3) 0.2805(3)
H1 H 0.4986 0.0574 0.2806
N2 N 0.1948(5) 0.0843(2) 0.3617(3)
C6 C 0.1626(7) 0.0279(3) 0.3536(3)
H5 H 0.1393 0.0129 0.3152
C8 C 0.1950(6) 0.0129(3) 0.4564(3)
C9 C 0.2284(6) 0.0713(3) 0.4636(3)
H7 H 0.2514 0.0873 0.5016
C10 C 0.2281(6) 0.1057(3) 0.4162(3)
H8 H 0.2517 0.1454 0.4217
N3 N 0.5057(5) 0.1666(2) 0.3568(3)
C11 C 0.5752(7) 0.2098(3) 0.3654(3)
H9 H 0.5879 0.2304 0.3328
C12 C 0.6286(7) 0.2251(3) 0.4205(3)
H10 H 0.6806 0.2543 0.4257
C13 C 0.6068(6) 0.1981(3) 0.4679(3)
C14 C 0.5320(6) 0.1554(4) 0.4577(3)
H11 H 0.5138 0.1369 0.4898
C15 C 0.4835(6) 0.1393(3) 0.4028(4)
H12 H 0.4338 0.1087 0.3968
N4 N 0.0195(4) 0.1962(2) 0.2237(3)
H13 H 0.0342 0.1087 0.2406
N5 N 0.7602(5) 0.2419(2) 0.6400(2)
C21 C 0.6607(6) 0.2255(4) 0.6282(3)
H17 H 0.6260 0.2238 0.6586
C22 C 0.6102(6) 0.2114(4) 0.5725(4)
H18 H 0.5405 0.2000 0.5644
C23 C 0.6601(6) 0.2136(3) 0.5278(3)
C24 C 0.7619(7) 0.2312(3) 0.5415(3)
H19 H 0.7979 0.2334 0.5117
C25 C 0.8103(6) 0.2453(4) 0.5974(3)
H20 H 0.8795 0.2575 0.6063
H23 H 0.2676 0.0318 0.5688
O9 O 0.3071(4) 0.2462(2) 0.1946(2)
O10 O 0.1782(4) 0.1249(2) 0.1493(2)
O11 O 0.4012(4) 0.1272(2) 0.1814(2)
O12 O 0.3195(4) 0.2344(2) 0.3189(2)
La2 La 0.78403(2) 0.347117(14) 0.745530(18)
O6 O 0.1782(4) 0.8751(2) 0.6493(2)
O8 O 0.8195(4) 0.7344(2) 0.3189(2)
C2 C 0.5554(6) 0.9743(3) 0.2898(3)
H2 H 0.6247 0.9857 0.2949
C3 C 0.5302(6) 0.9144(3) 0.2916(3)
C4 C 0.4277(6) 0.9018(3) 0.2839(3)
H3 H 0.4072 0.8617 0.2858
C5 C 0.3548(6) 0.9454(3) 0.2736(3)
H4 H 0.2848 0.9354 0.2680
C7 C 0.1632(6) 0.9919(3) 0.4003(3)
H6 H 0.1413 0.9520 0.3940
N6 N 0.1866(4) 0.9068(2) 0.6034(3)
C26 C 0.1505(7) 0.8854(4) 0.5500(3)
H21 H 0.1233 0.8464 0.5455
C27 C 0.1513(7) 0.9181(3) 0.5016(3)
H22 H 0.1224 0.9026 0.4640
C28 C 0.1954(6) 0.9751(3) 0.5078(3)
C29 C 0.2358(6) 0.9940(3) 0.5629(3)
C30 C 0.2320(6) 0.9599(3) 0.6105(3)
H24 H 0.2617 0.9740 0.6486
N8 N 0.7526(4) 0.7779(3) 0.3148(2)
C36 C 0.7697(6) 0.8299(3) 0.2888(3)
H29 H 0.8301 0.8351 0.2756
C37 C 0.6981(5) 0.8746(3) 0.2821(3)
H30 H 0.7095 0.9106 0.2640
C38 C 0.6102(6) 0.8677(3) 0.3012(3)
C39 C 0.5970(6) 0.8147(3) 0.3287(3)
H31 H 0.5377 0.8086 0.3429
C40 C 0.6698(6) 0.7716(3) 0.3351(3)
H32 H 0.6608 0.7360 0.3547
La3 La 0.28403(2) 0.847117(14) 0.745530(18)
La5 La 0.78403(2) 0.652883(14) 0.245530(18)
C16 C 0.9868(6) 0.1403(3) 0.2314(4)
C17 C 0.8855(6) 0.1303(3) 0.2257(4)
H14 H 0.8633 0.0911 0.2307
C18 C 0.8139(6) 0.1751(3) 0.2127(3)
C19 C 0.8509(6) 0.2318(3) 0.2061(4)
H15 H 0.8050 0.2642 0.1970
C20 C 0.9533(5) 0.2407(3) 0.2127(4)
H16 H 0.9776 0.2798 0.2094
N7 N 0.4994(4) 0.1385(2) 0.1889(3)
C31 C 0.5616(5) 0.0958(3) 0.1798(3)
H25 H 0.5350 0.0576 0.1680
C32 C 0.6636(6) 0.1064(3) 0.1871(3)
H26 H 0.7073 0.0756 0.1805
C33 C 0.7041(5) 0.1629(3) 0.2044(3)
C34 C 0.6357(5) 0.2062(3) 0.2117(3)
H27 H 0.6597 0.2452 0.2221
C35 C 0.5349(5) 0.1942(3) 0.2042(3)
H28 H 0.4893 0.2245 0.2096
N6_2 N 0.1866(4) 0.0932(2) 0.1034(3)
C26_2 C 0.1505(7) 0.1146(4) 0.0500(3)
H21_2 H 0.1233 0.1536 0.0455
C27_2 C 0.1513(7) 0.0819(3) 0.0016(3)
C28_2 C 0.1954(6) 0.0249(3) 0.0078(3)
C29_2 C 0.2358(6) 0.0060(3) 0.0629(3)
C30_2 C 0.2320(6) 0.0401(3) 0.1105(3)
H24_2 H 0.2617 0.0260 0.1486
O8_2 O 0.8195(4) 0.2656(2) 0.8189(2)
C2_2 C 0.5554(6) 0.0257(3) 0.7898(3)
H2_2 H 0.6247 0.0143 0.7949
C3_2 C 0.5302(6) 0.0856(3) 0.7916(3)
C4_2 C 0.4277(6) 0.0982(3) 0.7839(3)
H3_2 H 0.4072 0.1383 0.7858
C5_2 C 0.3548(6) 0.0546(3) 0.7736(3)
H4_2 H 0.2848 0.0646 0.7680
C7_2 C 0.1632(6) 0.0081(3) 0.9003(3)
H6_2 H 0.1413 0.0480 0.8940
H22_2 H 0.1224 0.0974 0.9640
N8_2 N 0.7526(4) 0.2221(3) 0.8148(2)
C36_2 C 0.7697(6) 0.1701(3) 0.7888(3)
H29_2 H 0.8301 0.1649 0.7756
C37_2 C 0.6981(5) 0.1254(3) 0.7821(3)
H30_2 H 0.7095 0.0894 0.7640
C38_2 C 0.6102(6) 0.1323(3) 0.8012(3)
C39_2 C 0.5970(6) 0.1853(3) 0.8287(3)
H31_2 H 0.5377 0.1914 0.8429
C40_2 C 0.6698(6) 0.2284(3) 0.8351(3)
H32_2 H 0.6608 0.2640 0.8547
O5_2 O 0.8071(4) 0.7462(2) 0.1946(2)
H7_2 H 0.2514 0.9127 0.0016
N5_2 N 0.7602(5) 0.7581(2) 0.1400(2)
C21_2 C 0.6607(6) 0.7745(4) 0.1282(3)
H17_2 H 0.6260 0.7762 0.1586
C22_2 C 0.6102(6) 0.7886(4) 0.0725(4)
H18_2 H 0.5405 0.8000 0.0644
C23_2 C 0.6601(6) 0.7864(3) 0.0278(3)
C24_2 C 0.7619(7) 0.7688(3) 0.0415(3)
H19_2 H 0.7979 0.7666 0.0117
C25_2 C 0.8103(6) 0.7547(4) 0.0974(3)
H20_2 H 0.8795 0.7425 0.1063
H23_2 H 0.2676 0.9682 0.0688
O1_2 O 0.3111(4) 0.9563(2) 0.7629(3)
O2_2 O 0.1910(4) 0.8801(2) 0.8174(2)
O3_2 O 0.4597(4) 0.8494(2) 0.8034(2)
O4_2 O 0.1169(3) 0.7935(2) 0.7287(2)
N1_2 N 0.3829(5) 0.9979(2) 0.7715(3)
C1_2 C 0.4803(6) 0.9833(3) 0.7805(3)
H1_2 H 0.4986 0.9426 0.7806
N2_2 N 0.1948(5) 0.9157(2) 0.8617(3)
C6_2 C 0.1626(7) 0.9721(3) 0.8536(3)
H5_2 H 0.1393 0.9871 0.8152
C8_2 C 0.1950(6) 0.9871(3) 0.9564(3)
C9_2 C 0.2284(6) 0.9287(3) 0.9636(3)
C10_2 C 0.2281(6) 0.8943(3) 0.9162(3)
H8_2 H 0.2517 0.8546 0.9217
N3_2 N 0.5057(5) 0.8334(2) 0.8568(3)
C11_2 C 0.5752(7) 0.7902(3) 0.8654(3)
H9_2 H 0.5879 0.7696 0.8328
C12_2 C 0.6286(7) 0.7749(3) 0.9205(3)
H10_2 H 0.6806 0.7457 0.9257
C13_2 C 0.6068(6) 0.8019(3) 0.9679(3)
C14_2 C 0.5320(6) 0.8446(4) 0.9577(3)
H11_2 H 0.5138 0.8631 0.9898
C15_2 C 0.4835(6) 0.8607(3) 0.9028(4)
H12_2 H 0.4338 0.8913 0.8968
N4_2 N 0.0195(4) 0.8038(2) 0.7237(3)
H13_2 H 0.0342 0.8913 0.7406
O9_2 O 0.3071(4) 0.7538(2) 0.6946(2)
O11_2 O 0.4012(4) 0.8728(2) 0.6814(2)
O12_2 O 0.3195(4) 0.7656(2) 0.8189(2)
C16_2 C 0.9868(6) 0.8597(3) 0.7314(4)
C17_2 C 0.8855(6) 0.8697(3) 0.7257(4)
H14_2 H 0.8633 0.9089 0.7307
C18_2 C 0.8139(6) 0.8249(3) 0.7127(3)
C19_2 C 0.8509(6) 0.7682(3) 0.7061(4)
H15_2 H 0.8050 0.7358 0.6970
C20_2 C 0.9533(5) 0.7593(3) 0.7127(4)
H16_2 H 0.9776 0.7202 0.7094
N7_2 N 0.4994(4) 0.8615(2) 0.6889(3)
C31_2 C 0.5616(5) 0.9042(3) 0.6798(3)
H25_2 H 0.5350 0.9424 0.6680
C32_2 C 0.6636(6) 0.8936(3) 0.6871(3)
H26_2 H 0.7073 0.9244 0.6805
C33_2 C 0.7041(5) 0.8371(3) 0.7044(3)
C34_2 C 0.6357(5) 0.7938(3) 0.7117(3)
H27_2 H 0.6597 0.7548 0.7221
C35_2 C 0.5349(5) 0.8058(3) 0.7042(3)
H28_2 H 0.4893 0.7755 0.7096
C2_3 C 0.0554(6) 0.4743(3) 0.2898(3)
H2_3 H 0.1247 0.4857 0.2949
C3_3 C 0.0302(6) 0.4144(3) 0.2916(3)
N3_3 N 0.0057(5) 0.6666(2) 0.3568(3)
C11_3 C 0.0752(7) 0.7098(3) 0.3654(3)
H9_3 H 0.0879 0.7304 0.3328
C12_3 C 0.1286(7) 0.7251(3) 0.4205(3)
H10_3 H 0.1806 0.7543 0.4257
C13_3 C 0.1068(6) 0.6981(3) 0.4679(3)
C14_3 C 0.0320(6) 0.6554(4) 0.4577(3)
H11_3 H 0.0138 0.6369 0.4898
N5_3 N 0.2602(5) 0.7419(2) 0.6400(2)
C21_3 C 0.1607(6) 0.7255(4) 0.6282(3)
H17_3 H 0.1260 0.7238 0.6586
C22_3 C 0.1102(6) 0.7114(4) 0.5725(4)
H18_3 H 0.0405 0.7000 0.5644
C23_3 C 0.1601(6) 0.7136(3) 0.5278(3)
C24_3 C 0.2619(7) 0.7312(3) 0.5415(3)
H19_3 H 0.2979 0.7334 0.5117
C25_3 C 0.3103(6) 0.7453(4) 0.5974(3)
H20_3 H 0.3795 0.7575 0.6063
N8_3 N 0.2526(4) 0.2779(3) 0.3148(2)
C36_3 C 0.2697(6) 0.3299(3) 0.2888(3)
H29_3 H 0.3301 0.3351 0.2756
C37_3 C 0.1981(5) 0.3746(3) 0.2821(3)
H30_3 H 0.2095 0.4106 0.2640
C38_3 C 0.1102(6) 0.3677(3) 0.3012(3)
C39_3 C 0.0970(6) 0.3147(3) 0.3287(3)
H31_3 H 0.0377 0.3086 0.3429
C40_3 C 0.1698(6) 0.2716(3) 0.3351(3)
H32_3 H 0.1608 0.2360 0.3547
O1_3 O 0.8111(4) 0.5437(2) 0.2629(3)
O2_3 O 0.6910(4) 0.6199(2) 0.3174(2)
O3_3 O 0.9597(4) 0.6506(2) 0.3034(2)
O4_3 O 0.6169(3) 0.7065(2) 0.2287(2)
O6_2 O 0.6782(4) 0.3751(2) 0.6493(2)
N1_3 N 0.8829(5) 0.5021(2) 0.2715(3)
C1_3 C 0.9803(6) 0.5167(3) 0.2805(3)
H1_3 H 0.9986 0.5574 0.2806
C4_3 C 0.9277(6) 0.4018(3) 0.2839(3)
H3_3 H 0.9072 0.3617 0.2858
C5_3 C 0.8548(6) 0.4454(3) 0.2736(3)
H4_3 H 0.7848 0.4354 0.2680
N2_3 N 0.6948(5) 0.5843(2) 0.3617(3)
C6_3 C 0.6626(7) 0.5279(3) 0.3536(3)
H5_3 H 0.6393 0.5129 0.3152
C7_3 C 0.6632(6) 0.4919(3) 0.4003(3)
H6_3 H 0.6413 0.4520 0.3940
C8_3 C 0.6950(6) 0.5129(3) 0.4564(3)
C9_3 C 0.7284(6) 0.5713(3) 0.4636(3)
H7_3 H 0.7514 0.5873 0.5016
C10_3 C 0.7281(6) 0.6057(3) 0.4162(3)
H8_3 H 0.7517 0.6454 0.4217
C15_3 C 0.9835(6) 0.6393(3) 0.4028(4)
H12_3 H 0.9338 0.6087 0.3968
N4_3 N 0.5195(4) 0.6962(2) 0.2237(3)
C16_3 C 0.4868(6) 0.6403(3) 0.2314(4)
H13_3 H 0.5342 0.6087 0.2406
C17_3 C 0.3855(6) 0.6303(3) 0.2257(4)
H14_3 H 0.3633 0.5911 0.2307
C18_3 C 0.3139(6) 0.6751(3) 0.2127(3)
C19_3 C 0.3509(6) 0.7318(3) 0.2061(4)
H15_3 H 0.3050 0.7642 0.1970
C20_3 C 0.4533(5) 0.7407(3) 0.2127(4)
H16_3 H 0.4776 0.7798 0.2094
N6_3 N 0.6866(4) 0.4068(2) 0.6034(3)
C26_3 C 0.6505(7) 0.3854(4) 0.5500(3)
H21_3 H 0.6233 0.3464 0.5455
C27_3 C 0.6513(7) 0.4181(3) 0.5016(3)
H22_3 H 0.6224 0.4026 0.4640
C28_3 C 0.6954(6) 0.4751(3) 0.5078(3)
C29_3 C 0.7358(6) 0.4940(3) 0.5629(3)
H23_3 H 0.7676 0.5318 0.5688
C30_3 C 0.7320(6) 0.4599(3) 0.6105(3)
H24_3 H 0.7617 0.4740 0.6486
C31_3 C 0.0616(5) 0.5958(3) 0.1798(3)
H25_3 H 0.0350 0.5576 0.1680
C32_3 C 0.1636(6) 0.6064(3) 0.1871(3)
H26_3 H 0.2073 0.5756 0.1805
C33_3 C 0.2041(5) 0.6629(3) 0.2044(3)
C34_3 C 0.1357(5) 0.7062(3) 0.2117(3)
H27_3 H 0.1597 0.7452 0.2221
C35_3 C 0.0349(5) 0.6942(3) 0.2042(3)
O10_2 O 0.6782(4) 0.6249(2) 0.1493(2)
O11_3 O 0.9012(4) 0.6272(2) 0.1814(2)
N7_3 N 0.9994(4) 0.6385(2) 0.1889(3)
H28_3 H 0.9893 0.7245 0.2096
N5_4 N 0.2602(5) 0.2581(2) 0.1400(2)
C21_4 C 0.1607(6) 0.2745(4) 0.1282(3)
H17_4 H 0.1260 0.2762 0.1586
C22_4 C 0.1102(6) 0.2886(4) 0.0725(4)
H18_4 H 0.0405 0.3000 0.0644
C23_4 C 0.1601(6) 0.2864(3) 0.0278(3)
C24_4 C 0.2619(7) 0.2688(3) 0.0415(3)
H19_4 H 0.2979 0.2666 0.0117
C25_4 C 0.3103(6) 0.2547(4) 0.0974(3)
H20_4 H 0.3795 0.2425 0.1063
C2_4 C 0.0554(6) 0.5257(3) 0.7898(3)
H2_4 H 0.1247 0.5143 0.7949
C3_4 C 0.0302(6) 0.5856(3) 0.7916(3)
N3_4 N 0.0057(5) 0.3334(2) 0.8568(3)
C11_4 C 0.0752(7) 0.2902(3) 0.8654(3)
H9_4 H 0.0879 0.2696 0.8328
C12_4 C 0.1286(7) 0.2749(3) 0.9205(3)
H10_4 H 0.1806 0.2457 0.9257
C13_4 C 0.1068(6) 0.3019(3) 0.9679(3)
C14_4 C 0.0320(6) 0.3446(4) 0.9577(3)
H11_4 H 0.0138 0.3631 0.9898
N8_4 N 0.2526(4) 0.7221(3) 0.8148(2)
C36_4 C 0.2697(6) 0.6701(3) 0.7888(3)
H29_4 H 0.3301 0.6649 0.7756
C37_4 C 0.1981(5) 0.6254(3) 0.7821(3)
H30_4 H 0.2095 0.5894 0.7640
C38_4 C 0.1102(6) 0.6323(3) 0.8012(3)
C39_4 C 0.0970(6) 0.6853(3) 0.8287(3)
H31_4 H 0.0377 0.6914 0.8429
C40_4 C 0.1698(6) 0.7284(3) 0.8351(3)
H32_4 H 0.1608 0.7640 0.8547
H7_4 H 0.7514 0.4127 0.0016
N6_4 N 0.6866(4) 0.5932(2) 0.1034(3)
C26_4 C 0.6505(7) 0.6146(4) 0.0500(3)
H21_4 H 0.6233 0.6536 0.0455
C27_4 C 0.6513(7) 0.5819(3) 0.0016(3)
C28_4 C 0.6954(6) 0.5249(3) 0.0078(3)
C29_4 C 0.7358(6) 0.5060(3) 0.0629(3)
H23_4 H 0.7676 0.4682 0.0688
C30_4 C 0.7320(6) 0.5401(3) 0.1105(3)
H24_4 H 0.7617 0.5260 0.1486
O1_4 O 0.8111(4) 0.4563(2) 0.7629(3)
O2_4 O 0.6910(4) 0.3801(2) 0.8174(2)
O3_4 O 0.9597(4) 0.3494(2) 0.8034(2)
O4_4 O 0.6169(3) 0.2935(2) 0.7287(2)
N1_4 N 0.8829(5) 0.4979(2) 0.7715(3)
C1_4 C 0.9803(6) 0.4833(3) 0.7805(3)
H1_4 H 0.9986 0.4426 0.7806
C4_4 C 0.9277(6) 0.5982(3) 0.7839(3)
H3_4 H 0.9072 0.6383 0.7858
C5_4 C 0.8548(6) 0.5546(3) 0.7736(3)
H4_4 H 0.7848 0.5646 0.7680
N2_4 N 0.6948(5) 0.4157(2) 0.8617(3)
C6_4 C 0.6626(7) 0.4721(3) 0.8536(3)
H5_4 H 0.6393 0.4871 0.8152
C7_4 C 0.6632(6) 0.5081(3) 0.9003(3)
H6_4 H 0.6413 0.5480 0.8940
C8_4 C 0.6950(6) 0.4871(3) 0.9564(3)
C9_4 C 0.7284(6) 0.4287(3) 0.9636(3)
C10_4 C 0.7281(6) 0.3943(3) 0.9162(3)
H8_4 H 0.7517 0.3546 0.9217
C15_4 C 0.9835(6) 0.3607(3) 0.9028(4)
H12_4 H 0.9338 0.3913 0.8968
N4_4 N 0.5195(4) 0.3038(2) 0.7237(3)
C16_4 C 0.4868(6) 0.3597(3) 0.7314(4)
H13_4 H 0.5342 0.3913 0.7406
C17_4 C 0.3855(6) 0.3697(3) 0.7257(4)
H14_4 H 0.3633 0.4089 0.7307
C18_4 C 0.3139(6) 0.3249(3) 0.7127(3)
C19_4 C 0.3509(6) 0.2682(3) 0.7061(4)
H15_4 H 0.3050 0.2358 0.6970
C20_4 C 0.4533(5) 0.2593(3) 0.7127(4)
H16_4 H 0.4776 0.2202 0.7094
H22_4 H 0.6224 0.5974 0.9640
C31_4 C 0.0616(5) 0.4042(3) 0.6798(3)
H25_4 H 0.0350 0.4424 0.6680
C32_4 C 0.1636(6) 0.3936(3) 0.6871(3)
H26_4 H 0.2073 0.4244 0.6805
C33_4 C 0.2041(5) 0.3371(3) 0.7044(3)
C34_4 C 0.1357(5) 0.2938(3) 0.7117(3)
H27_4 H 0.1597 0.2548 0.7221
C35_4 C 0.0349(5) 0.3058(3) 0.7042(3)
O11_4 O 0.9012(4) 0.3728(2) 0.6814(2)
N7_4 N 0.9994(4) 0.3615(2) 0.6889(3)
H28_4 H 0.9893 0.2755 0.7096
Cl1 Cl 0.60663(17) 0.35291(9) 0.30060(10)
O13 O 0.5240(5) 0.3254(3) 0.2601(3)
O14 O 0.6220(5) 0.4118(3) 0.2816(3)
O15 O 0.5878(8) 0.3557(3) 0.3579(3)
O16 O 0.6966(6) 0.3178(3) 0.3038(4)
Cl1_2 Cl 0.60663(17) 0.64709(9) 0.80060(10)
O13_2 O 0.5240(5) 0.6746(3) 0.7601(3)
O14_2 O 0.6220(5) 0.5882(3) 0.7816(3)
O15_2 O 0.5878(8) 0.6443(3) 0.8579(3)
O16_2 O 0.6966(6) 0.6822(3) 0.8038(4)
Cl1_3 Cl 0.10663(17) 0.85291(9) 0.30060(10)
O13_3 O 0.0240(5) 0.8254(3) 0.2601(3)
O14_3 O 0.1220(5) 0.9118(3) 0.2816(3)
O15_3 O 0.0878(8) 0.8557(3) 0.3579(3)
O16_3 O 0.1966(6) 0.8178(3) 0.3038(4)
Cl1_4 Cl 0.10663(17) 0.14709(9) 0.80060(10)
O13_4 O 0.0240(5) 0.1746(3) 0.7601(3)
O14_4 O 0.1220(5) 0.0882(3) 0.7816(3)
O15_4 O 0.0878(8) 0.1443(3) 0.8579(3)
O16_4 O 0.1966(6) 0.1822(3) 0.8038(4)
Cl2 Cl 0.44028(16) 0.09862(9) 0.63110(9)
O17 O 0.5255(5) 0.1319(3) 0.6617(3)
O18 O 0.4457(7) 0.0393(3) 0.6501(3)
O19 O 0.3495(6) 0.1234(4) 0.6435(4)
O20 O 0.4325(6) 0.1019(3) 0.5703(3)
Cl2_2 Cl 0.44028(16) 0.90138(9) 0.13110(9)
O17_2 O 0.5255(5) 0.8681(3) 0.1617(3)
O18_2 O 0.4457(7) 0.9607(3) 0.1501(3)
O19_2 O 0.3495(6) 0.8766(4) 0.1435(4)
O20_2 O 0.4325(6) 0.8981(3) 0.0703(3)
O17_3 O 0.0255(5) 0.6319(3) 0.6617(3)
Cl2_3 Cl 0.94028(16) 0.59862(9) 0.63110(9)
O18_3 O 0.9457(7) 0.5393(3) 0.6501(3)
O19_3 O 0.8495(6) 0.6234(4) 0.6435(4)
O20_3 O 0.9325(6) 0.6019(3) 0.5703(3)
O17_4 O 0.0255(5) 0.3681(3) 0.1617(3)
Cl2_4 Cl 0.94028(16) 0.40138(9) 0.13110(9)
O18_4 O 0.9457(7) 0.4607(3) 0.1501(3)
O19_4 O 0.8495(6) 0.3766(4) 0.1435(4)
O20_4 O 0.9325(6) 0.3981(3) 0.0703(3)
Cl3 Cl 0.0153(8) 0.2026(3) 0.4448(4)
O21 O 0.0025(12) 0.1714(7) 0.3889(6)
O22 O 0.0328(12) 0.2650(6) 0.4366(6)
O23 O 0.1103(14) 0.1800(8) 0.4853(8)
O24 O 0.9348(13) 0.1926(7) 0.4714(8)
Cl3_2 Cl 0.0153(8) 0.7974(3) 0.9448(4)
O21_2 O 0.0025(12) 0.8286(7) 0.8889(6)
O22_2 O 0.0328(12) 0.7350(6) 0.9366(6)
O23_2 O 0.1103(14) 0.8200(8) 0.9853(8)
O24_2 O 0.9348(13) 0.8074(7) 0.9714(8)
Cl3_3 Cl 0.5153(8) 0.7026(3) 0.4448(4)
O21_3 O 0.5025(12) 0.6714(7) 0.3889(6)
O22_3 O 0.5328(12) 0.7650(6) 0.4366(6)
O23_3 O 0.6103(14) 0.6800(8) 0.4853(8)
O24_3 O 0.4348(13) 0.6926(7) 0.4714(8)
Cl3_4 Cl 0.5153(8) 0.2974(3) 0.9448(4)
O21_4 O 0.5025(12) 0.3286(7) 0.8889(6)
O22_4 O 0.5328(12) 0.2350(6) 0.9366(6)
O23_4 O 0.6103(14) 0.3200(8) 0.9853(8)
O24_4 O 0.4348(13) 0.3074(7) 0.9714(8)
loop_
_geom_bond_atom_site_label_1
_geom_bond_atom_site_label_2
_geom_bond_site_symmetry_1
_geom_bond_site_symmetry_2
La1 O1 1_555 1_555
O1 N1 1_555 1_555
O2 La1 1_555 1_555
O3 La1 1_555 1_555
O4 La1 1_555 1_555
O5 N5 1_555 1_555
N1 C1 1_555 1_555
C1 H1 1_555 1_555
N2 O2 1_555 1_555
C6 N2 1_555 1_555
H5 C6 1_555 1_555
C9 C8 1_555 1_555
H7 C9 1_555 1_555
C10 N2 1_555 1_555
H8 C10 1_555 1_555
N3 O3 1_555 1_555
C11 N3 1_555 1_555
H9 C11 1_555 1_555
C12 C11 1_555 1_555
H10 C12 1_555 1_555
C13 C12 1_555 1_555
C14 C13 1_555 1_555
H11 C14 1_555 1_555
C15 N3 1_555 1_555
H12 C15 1_555 1_555
N4 O4 1_555 1_555
N5 C21 1_555 1_555
C21 H17 1_555 1_555
C22 C21 1_555 1_555
H18 C22 1_555 1_555
C23 C13 1_555 1_555
C24 C23 1_555 1_555
H19 C24 1_555 1_555
C25 N5 1_555 1_555
H20 C25 1_555 1_555
O9 La1 1_555 1_555
O10 La1 1_555 1_555
O11 La1 1_555 1_555
O12 La1 1_555 1_555
La2 O5 1_555 1_555
C9 C10 1_555 1_555
C14 C15 1_555 1_555
C22 C23 1_555 1_555
C24 C25 1_555 1_555
O6 N6 1_555 1_555
O8 N8 1_555 1_555
H2 C2 1_555 1_555
C3 C2 1_555 1_555
C4 C3 1_555 1_555
H3 C4 1_555 1_555
H4 C5 1_555 1_555
H6 C7 1_555 1_555
N6 C26 1_555 1_555
C26 H21 1_555 1_555
C27 C26 1_555 1_555
H22 C27 1_555 1_555
C29 C28 1_555 1_555
C30 N6 1_555 1_555
H24 C30 1_555 1_555
N8 C36 1_555 1_555
C36 H29 1_555 1_555
C37 C36 1_555 1_555
H30 C37 1_555 1_555
C38 C3 1_555 1_555
C39 C38 1_555 1_555
H31 C39 1_555 1_555
C40 N8 1_555 1_555
H32 C40 1_555 1_555
La3 O6 1_555 1_555
La5 O8 1_555 1_555
C4 C5 1_555 1_555
C27 C28 1_555 1_555
C29 C30 1_555 1_555
C37 C38 1_555 1_555
C39 C40 1_555 1_555
O11 N7 1_555 1_555
C17 C16 1_555 1_555
H14 C17 1_555 1_555
C18 C17 1_555 1_555
C19 C18 1_555 1_555
H15 C19 1_555 1_555
H16 C20 1_555 1_555
N7 C31 1_555 1_555
C31 H25 1_555 1_555
C32 C31 1_555 1_555
H26 C32 1_555 1_555
C33 C18 1_555 1_555
C34 C33 1_555 1_555
H27 C34 1_555 1_555
C35 N7 1_555 1_555
H28 C35 1_555 1_555
C19 C20 1_555 1_555
C32 C33 1_555 1_555
C34 C35 1_555 1_555
O10 N6_2 1_555 1_555
N6_2 C26_2 1_555 1_555
C26_2 H21_2 1_555 1_555
C27_2 C26_2 1_555 1_555
C29_2 C28_2 1_555 1_555
C30_2 N6_2 1_555 1_555
H24_2 C30_2 1_555 1_555
C27_2 C28_2 1_555 1_555
C29_2 C30_2 1_555 1_555
O8_2 N8_2 1_555 1_555
H2_2 C2_2 1_555 1_555
C3_2 C2_2 1_555 1_555
C4_2 C3_2 1_555 1_555
H3_2 C4_2 1_555 1_555
H4_2 C5_2 1_555 1_555
H6_2 C7_2 1_555 1_555
N8_2 C36_2 1_555 1_555
C36_2 H29_2 1_555 1_555
C37_2 C36_2 1_555 1_555
H30_2 C37_2 1_555 1_555
C38_2 C3_2 1_555 1_555
C39_2 C38_2 1_555 1_555
H31_2 C39_2 1_555 1_555
C40_2 N8_2 1_555 1_555
H32_2 C40_2 1_555 1_555
La2 O8_2 1_555 1_555
C4_2 C5_2 1_555 1_555
C37_2 C38_2 1_555 1_555
C39_2 C40_2 1_555 1_555
O5_2 N5_2 1_555 1_555
N5_2 C21_2 1_555 1_555
C21_2 H17_2 1_555 1_555
C22_2 C21_2 1_555 1_555
H18_2 C22_2 1_555 1_555
C24_2 C23_2 1_555 1_555
H19_2 C24_2 1_555 1_555
C25_2 N5_2 1_555 1_555
H20_2 C25_2 1_555 1_555
La5 O5_2 1_555 1_555
C22_2 C23_2 1_555 1_555
C24_2 C25_2 1_555 1_555
La3 O1_2 1_555 1_555
O1_2 N1_2 1_555 1_555
O2_2 La3 1_555 1_555
O3_2 La3 1_555 1_555
O4_2 La3 1_555 1_555
N1_2 C1_2 1_555 1_555
C1_2 H1_2 1_555 1_555
N2_2 O2_2 1_555 1_555
C6_2 N2_2 1_555 1_555
H5_2 C6_2 1_555 1_555
C9_2 C8_2 1_555 1_555
C10_2 N2_2 1_555 1_555
H8_2 C10_2 1_555 1_555
N3_2 O3_2 1_555 1_555
C11_2 N3_2 1_555 1_555
H9_2 C11_2 1_555 1_555
C12_2 C11_2 1_555 1_555
H10_2 C12_2 1_555 1_555
C13_2 C12_2 1_555 1_555
C14_2 C13_2 1_555 1_555
H11_2 C14_2 1_555 1_555
C15_2 N3_2 1_555 1_555
H12_2 C15_2 1_555 1_555
N4_2 O4_2 1_555 1_555
O9_2 La3 1_555 1_555
O11_2 La3 1_555 1_555
O12_2 La3 1_555 1_555
C9_2 C10_2 1_555 1_555
C14_2 C15_2 1_555 1_555
O11_2 N7_2 1_555 1_555
C17_2 C16_2 1_555 1_555
H14_2 C17_2 1_555 1_555
C18_2 C17_2 1_555 1_555
C19_2 C18_2 1_555 1_555
H15_2 C19_2 1_555 1_555
H16_2 C20_2 1_555 1_555
N7_2 C31_2 1_555 1_555
C31_2 H25_2 1_555 1_555
C32_2 C31_2 1_555 1_555
H26_2 C32_2 1_555 1_555
C33_2 C18_2 1_555 1_555
C34_2 C33_2 1_555 1_555
H27_2 C34_2 1_555 1_555
C35_2 N7_2 1_555 1_555
H28_2 C35_2 1_555 1_555
C19_2 C20_2 1_555 1_555
C32_2 C33_2 1_555 1_555
C34_2 C35_2 1_555 1_555
O9_2 N5_3 1_555 1_555
O12 N8_3 1_555 1_555
H2_3 C2_3 1_555 1_555
C3_3 C2_3 1_555 1_555
C11_3 N3_3 1_555 1_555
H9_3 C11_3 1_555 1_555
C12_3 C11_3 1_555 1_555
H10_3 C12_3 1_555 1_555
C13_3 C12_3 1_555 1_555
C14_3 C13_3 1_555 1_555
H11_3 C14_3 1_555 1_555
N5_3 C21_3 1_555 1_555
C21_3 H17_3 1_555 1_555
C22_3 C21_3 1_555 1_555
H18_3 C22_3 1_555 1_555
C23_3 C13_3 1_555 1_555
C24_3 C23_3 1_555 1_555
H19_3 C24_3 1_555 1_555
C25_3 N5_3 1_555 1_555
H20_3 C25_3 1_555 1_555
N8_3 C36_3 1_555 1_555
C36_3 H29_3 1_555 1_555
C37_3 C36_3 1_555 1_555
H30_3 C37_3 1_555 1_555
C38_3 C3_3 1_555 1_555
C39_3 C38_3 1_555 1_555
H31_3 C39_3 1_555 1_555
C40_3 N8_3 1_555 1_555
H32_3 C40_3 1_555 1_555
C22_3 C23_3 1_555 1_555
C24_3 C25_3 1_555 1_555
C37_3 C38_3 1_555 1_555
C39_3 C40_3 1_555 1_555
La5 O1_3 1_555 1_555
O1_3 N1_3 1_555 1_555
O2_3 La5 1_555 1_555
O3_3 La5 1_555 1_555
O4_3 La5 1_555 1_555
O6_2 N6_3 1_555 1_555
N1_3 C1_3 1_555 1_555
C1_3 H1_3 1_555 1_555
H3_3 C4_3 1_555 1_555
C5_3 N1_3 1_555 1_555
H4_3 C5_3 1_555 1_555
N2_3 O2_3 1_555 1_555
C6_3 N2_3 1_555 1_555
H5_3 C6_3 1_555 1_555
C7_3 C6_3 1_555 1_555
H6_3 C7_3 1_555 1_555
C8_3 C7_3 1_555 1_555
C9_3 C8_3 1_555 1_555
H7_3 C9_3 1_555 1_555
C10_3 N2_3 1_555 1_555
H8_3 C10_3 1_555 1_555
H12_3 C15_3 1_555 1_555
N4_3 O4_3 1_555 1_555
C16_3 N4_3 1_555 1_555
H13_3 C16_3 1_555 1_555
C17_3 C16_3 1_555 1_555
H14_3 C17_3 1_555 1_555
C18_3 C17_3 1_555 1_555
C19_3 C18_3 1_555 1_555
H15_3 C19_3 1_555 1_555
C20_3 N4_3 1_555 1_555
H16_3 C20_3 1_555 1_555
N6_3 C26_3 1_555 1_555
C26_3 H21_3 1_555 1_555
C27_3 C26_3 1_555 1_555
H22_3 C27_3 1_555 1_555
C28_3 C8_3 1_555 1_555
C29_3 C28_3 1_555 1_555
H23_3 C29_3 1_555 1_555
C30_3 N6_3 1_555 1_555
H24_3 C30_3 1_555 1_555
C31_3 H25_3 1_555 1_555
C32_3 C31_3 1_555 1_555
H26_3 C32_3 1_555 1_555
C33_3 C18_3 1_555 1_555
C34_3 C33_3 1_555 1_555
H27_3 C34_3 1_555 1_555
O10_2 La5 1_555 1_555
O11_3 La5 1_555 1_555
La2 O6_2 1_555 1_555
C4_3 C5_3 1_555 1_555
C9_3 C10_3 1_555 1_555
C19_3 C20_3 1_555 1_555
C27_3 C28_3 1_555 1_555
C29_3 C30_3 1_555 1_555
C32_3 C33_3 1_555 1_555
C34_3 C35_3 1_555 1_555
O11_3 N7_3 1_555 1_555
O9 N5_4 1_555 1_555
N5_4 C21_4 1_555 1_555
C21_4 H17_4 1_555 1_555
C22_4 C21_4 1_555 1_555
H18_4 C22_4 1_555 1_555
C24_4 C23_4 1_555 1_555
H19_4 C24_4 1_555 1_555
C25_4 N5_4 1_555 1_555
H20_4 C25_4 1_555 1_555
C22_4 C23_4 1_555 1_555
C24_4 C25_4 1_555 1_555
O12_2 N8_4 1_555 1_555
H2_4 C2_4 1_555 1_555
C3_4 C2_4 1_555 1_555
C11_4 N3_4 1_555 1_555
H9_4 C11_4 1_555 1_555
C12_4 C11_4 1_555 1_555
H10_4 C12_4 1_555 1_555
C13_4 C12_4 1_555 1_555
C14_4 C13_4 1_555 1_555
H11_4 C14_4 1_555 1_555
N8_4 C36_4 1_555 1_555
C36_4 H29_4 1_555 1_555
C37_4 C36_4 1_555 1_555
H30_4 C37_4 1_555 1_555
C38_4 C3_4 1_555 1_555
C39_4 C38_4 1_555 1_555
H31_4 C39_4 1_555 1_555
C40_4 N8_4 1_555 1_555
H32_4 C40_4 1_555 1_555
C37_4 C38_4 1_555 1_555
C39_4 C40_4 1_555 1_555
O10_2 N6_4 1_555 1_555
N6_4 C26_4 1_555 1_555
C26_4 H21_4 1_555 1_555
C27_4 C26_4 1_555 1_555
C29_4 C28_4 1_555 1_555
H23_4 C29_4 1_555 1_555
C30_4 N6_4 1_555 1_555
H24_4 C30_4 1_555 1_555
C27_4 C28_4 1_555 1_555
C29_4 C30_4 1_555 1_555
La2 O1_4 1_555 1_555
O1_4 N1_4 1_555 1_555
O2_4 La2 1_555 1_555
O3_4 La2 1_555 1_555
O4_4 La2 1_555 1_555
N1_4 C1_4 1_555 1_555
C1_4 H1_4 1_555 1_555
H3_4 C4_4 1_555 1_555
C5_4 N1_4 1_555 1_555
H4_4 C5_4 1_555 1_555
N2_4 O2_4 1_555 1_555
C6_4 N2_4 1_555 1_555
H5_4 C6_4 1_555 1_555
C7_4 C6_4 1_555 1_555
H6_4 C7_4 1_555 1_555
C8_4 C7_4 1_555 1_555
C9_4 C8_4 1_555 1_555
C10_4 N2_4 1_555 1_555
H8_4 C10_4 1_555 1_555
H12_4 C15_4 1_555 1_555
N4_4 O4_4 1_555 1_555
C16_4 N4_4 1_555 1_555
H13_4 C16_4 1_555 1_555
C17_4 C16_4 1_555 1_555
H14_4 C17_4 1_555 1_555
C18_4 C17_4 1_555 1_555
C19_4 C18_4 1_555 1_555
H15_4 C19_4 1_555 1_555
C20_4 N4_4 1_555 1_555
H16_4 C20_4 1_555 1_555
C31_4 H25_4 1_555 1_555
C32_4 C31_4 1_555 1_555
H26_4 C32_4 1_555 1_555
C33_4 C18_4 1_555 1_555
C34_4 C33_4 1_555 1_555
H27_4 C34_4 1_555 1_555
O11_4 La2 1_555 1_555
C4_4 C5_4 1_555 1_555
C9_4 C10_4 1_555 1_555
C19_4 C20_4 1_555 1_555
C32_4 C33_4 1_555 1_555
C34_4 C35_4 1_555 1_555
O11_4 N7_4 1_555 1_555
Cl1 O13 1_555 1_555
O14 Cl1 1_555 1_555
O15 Cl1 1_555 1_555
O16 Cl1 1_555 1_555
Cl1_2 O13_2 1_555 1_555
O14_2 Cl1_2 1_555 1_555
O15_2 Cl1_2 1_555 1_555
O16_2 Cl1_2 1_555 1_555
Cl1_3 O13_3 1_555 1_555
O14_3 Cl1_3 1_555 1_555
O15_3 Cl1_3 1_555 1_555
O16_3 Cl1_3 1_555 1_555
Cl1_4 O13_4 1_555 1_555
O14_4 Cl1_4 1_555 1_555
O15_4 Cl1_4 1_555 1_555
O16_4 Cl1_4 1_555 1_555
Cl2 O17 1_555 1_555
O18 Cl2 1_555 1_555
O19 Cl2 1_555 1_555
O20 Cl2 1_555 1_555
Cl2_2 O17_2 1_555 1_555
O18_2 Cl2_2 1_555 1_555
O19_2 Cl2_2 1_555 1_555
O20_2 Cl2_2 1_555 1_555
O18_3 Cl2_3 1_555 1_555
O19_3 Cl2_3 1_555 1_555
O20_3 Cl2_3 1_555 1_555
O18_4 Cl2_4 1_555 1_555
O19_4 Cl2_4 1_555 1_555
O20_4 Cl2_4 1_555 1_555
Cl3 O21 1_555 1_555
O22 Cl3 1_555 1_555
O23 Cl3 1_555 1_555
Cl3_2 O21_2 1_555 1_555
O22_2 Cl3_2 1_555 1_555
O23_2 Cl3_2 1_555 1_555
Cl3_3 O21_3 1_555 1_555
O22_3 Cl3_3 1_555 1_555
O23_3 Cl3_3 1_555 1_555
O24_3 Cl3_3 1_555 1_555
Cl3_4 O21_4 1_555 1_555
O22_4 Cl3_4 1_555 1_555
O23_4 Cl3_4 1_555 1_555
O24_4 Cl3_4 1_555 1_555

#END
