
###############################################################################
#
# This file contains modified crystal structure data generated from the
# MOF subset of the Cambridge Structural Database (CSD) v543 
# hosted by the Cambridge Crystallographic Data Centre (CCDC).
#
# This work is licensed under the Creative Commons
# Attribution-NonCommercial-ShareAlike 4.0 International License.
# To view a copy of this license, visit
# http://creativecommons.org/licenses/by-nc-sa/4.0/
# or send a letter to
# Creative Commons, PO Box 1866, Mountain View, CA 94042, USA.
#
# CIF created using the CSD Python API on 29 September 2022
# The structure has been converted into the P1 space group
# The structure has a 3D framework
# The original CSD entry IXEJUS is in the tetragonal crystal system
# The framework has been calculated to contain at least 10.0% void space
# The void calculation uses a probe of radius 1.32A, grid spacing 0.4
# H atom positions have been added when not included in the experimental data
# Generated hydrogen atom positions removed from atoms on special positions
#
###############################################################################

data_IXEJUS
_chemical_formula_moiety         '(C288 H368 O117 Zr28)n'
_symmetry_cell_setting           triclinic
_symmetry_space_group_name_H-M   'P 1'
_symmetry_Int_Tables_number      1
_space_group_name_Hall           'P 1'
loop_
_symmetry_equiv_pos_site_id
_symmetry_equiv_pos_as_xyz
1 x,y,z
_cell_length_a                   34.06(3)
_cell_length_b                   34.063
_cell_length_c                   14.085(12)
_cell_angle_alpha                90
_cell_angle_beta                 90
_cell_angle_gamma                90
_cell_volume                     16341.2
loop_
_atom_site_label
_atom_site_type_symbol
_atom_site_fract_x
_atom_site_fract_y
_atom_site_fract_z
Zr4 Zr 0.05099(2) 0.55099(2) 0.0000
Zr1 Zr 0.44901(2) 0.55099(2) 0.5000
Zr2 Zr 0.52368(3) 0.52368(3) 0.65639(11)
Zr3 Zr 0.45457(2) 0.45457(2) 0.58249(11)
O1 O 0.4123(2) 0.4123(2) 0.5220(9)
O2 O 0.39204(17) 0.54117(18) 0.5624(5)
O3 O 0.4468(3) 0.4468(3) 0.7369(9)
O4 O 0.50976(17) 0.5590(2) 0.5366(5)
O5 O 0.4638(2) 0.51376(17) 0.6178(5)
O6 O 0.09281(17) 0.55427(17) 0.8837(5)
O7 O 0.39520(19) 0.4794(2) 0.6169(6)
O8 O 0.5705(2) 0.5705(2) 0.6802(9)
C1 C 0.27519(17) 0.54915(15) 0.6374(4)
O9 O 0.0741(2) 0.5068(2) 0.7802(6)
C2 C 0.2518(3) 0.5855(2) 0.6142(7)
H1 H 0.2696 0.6068 0.5965
H2 H 0.2362 0.5934 0.6695
H3 H 0.2342 0.5797 0.5609
C3 C 0.21751(14) 0.52246(13) 0.7171(4)
C4 C 0.31404(18) 0.54659(17) 0.6080(4)
H4 H 0.3257 0.5676 0.5736
C5 C 0.20917(16) 0.54027(14) 0.8036(4)
C6 C 0.14867(16) 0.51008(18) 0.6931(5)
H5 H 0.1280 0.4998 0.6553
C7 C 0.25818(12) 0.51848(19) 0.6878(4)
C8 C 0.28000(18) 0.48512(17) 0.7090(4)
O10 O 0.5025(3) 0.5025(3) 0.8008(7)
C9 C 0.2399(3) 0.5575(3) 0.8685(7)
H6 H 0.2650 0.5455 0.8509
H7 H 0.2338 0.5511 0.9347
H8 H 0.2416 0.5860 0.8610
C10 C 0.17055(19) 0.54298(16) 0.8348(4)
H9 H 0.1648 0.5552 0.8939
C11 C 0.14030(14) 0.52788(17) 0.7795(5)
C12 C 0.37802(14) 0.5099(3) 0.5979(7)
C13 C 0.33582(13) 0.5132(2) 0.6292(4)
C14 C 0.09852(17) 0.5310(3) 0.8141(8)
C15 C 0.18728(19) 0.50736(16) 0.6618(4)
C16 C 0.31890(17) 0.48248(17) 0.6796(5)
H10 H 0.3339 0.4597 0.6939
C17 C 0.2629(3) 0.4510(2) 0.7635(7)
H11 H 0.2461 0.4605 0.8149
H12 H 0.2847 0.4358 0.7902
H13 H 0.2476 0.4343 0.7207
C18 C 0.1940(4) 0.4877(3) 0.5673(5)
H14 H 0.1995 0.5082 0.5205
H15 H 0.1707 0.4729 0.5477
H16 H 0.2165 0.4698 0.5716
O11 O 0.45883(18) 0.60796(17) 0.4376(5)
O12 O 0.4410(2) 0.49024(17) 0.4634(5)
O13 O 0.48624(17) 0.5362(2) 0.3822(5)
O14 O 0.44573(17) 0.90719(17) 0.1163(5)
O15 O 0.5206(2) 0.60480(19) 0.3831(6)
C19 C 0.45085(15) 0.72481(17) 0.3626(4)
O16 O 0.4932(2) 0.9259(2) 0.2198(6)
C20 C 0.4145(2) 0.7482(3) 0.3858(7)
H17 H 0.3932 0.7304 0.4035
H18 H 0.4066 0.7638 0.3305
H19 H 0.4203 0.7658 0.4391
C21 C 0.47754(13) 0.78249(14) 0.2829(4)
C22 C 0.45341(17) 0.68596(18) 0.3920(4)
H20 H 0.4324 0.6743 0.4264
C23 C 0.45973(14) 0.79083(16) 0.1964(4)
C24 C 0.48992(18) 0.85133(16) 0.3069(5)
H21 H 0.5002 0.8720 0.3447
C25 C 0.48152(19) 0.74182(12) 0.3122(4)
C26 C 0.51488(17) 0.72000(18) 0.2910(4)
C27 C 0.4425(3) 0.7601(3) 0.1315(7)
H22 H 0.4545 0.7350 0.1491
H23 H 0.4489 0.7662 0.0653
H24 H 0.4140 0.7584 0.1390
C28 C 0.45702(16) 0.82945(19) 0.1652(4)
H25 H 0.4448 0.8352 0.1061
C29 C 0.47212(17) 0.85970(14) 0.2205(5)
C30 C 0.4901(3) 0.62198(14) 0.4021(7)
C31 C 0.4868(2) 0.66418(13) 0.3708(4)
C32 C 0.4690(3) 0.90148(17) 0.1859(8)
C33 C 0.49264(16) 0.81272(19) 0.3382(4)
C34 C 0.51752(17) 0.68110(17) 0.3204(5)
H26 H 0.5403 0.6661 0.3061
C35 C 0.5490(2) 0.7371(3) 0.2365(7)
H27 H 0.5395 0.7539 0.1851
H28 H 0.5642 0.7153 0.2098
H29 H 0.5657 0.7524 0.2793
C36 C 0.5123(3) 0.8060(4) 0.4327(5)
H30 H 0.4918 0.8005 0.4795
H31 H 0.5271 0.8293 0.4523
H32 H 0.5302 0.7835 0.4284
Zr4_2 Zr 0.05099(2) 0.55099(2) 1.0000
Zr5 Zr 0.44901(2) 0.94901(2) 0.0000
Zr6 Zr 0.52368(3) 0.97632(3) 0.15639(11)
Zr7 Zr 0.02368(3) 0.47632(3) 0.84361(11)
Zr8 Zr 0.47632(3) 0.47632(3) 0.34361(11)
Zr9 Zr 0.54543(2) 0.54543(2) 0.41751(11)
O17 O 0.49024(17) 0.4410(2) 0.4634(5)
O18 O 0.5590(2) 0.50976(17) 0.5366(5)
O19 O 0.51376(17) 0.4638(2) 0.6178(5)
O20 O 0.44573(17) 0.59281(17) 0.6163(5)
O21 O 0.40719(17) 0.55427(17) 0.3837(5)
O22 O 0.4794(2) 0.39520(19) 0.6169(6)
O23 O 0.5741(2) 0.4932(2) 0.7198(6)
O24 O 0.4932(2) 0.5741(2) 0.7198(6)
Zr5_2 Zr 0.44901(2) 0.94901(2) 1.0000
Zr3_2 Zr 0.04543(2) 0.45457(2) 0.08249(11)
O1_2 O 0.0877(2) 0.4123(2) 0.0220(9)
O3_2 O 0.0532(3) 0.4468(3) 0.2369(9)
O7_2 O 0.0206(2) 0.39520(19) 0.1169(6)
H5_2 H 0.0002 0.1280 0.1553
C8_2 C 0.01488(17) 0.28000(18) 0.2090(4)
C16_2 C 0.01752(17) 0.31890(17) 0.1796(5)
H10_2 H 0.0403 0.3339 0.1939
C17_2 C 0.0490(2) 0.2629(3) 0.2635(7)
H11_2 H 0.0395 0.2461 0.3149
H12_2 H 0.0642 0.2847 0.2902
H13_2 H 0.0657 0.2476 0.2207
C18_2 C 0.0123(3) 0.1940(4) 0.0673(5)
H15_2 H 0.0271 0.1707 0.0477
H16_2 H 0.0302 0.2165 0.0716
Zr7_2 Zr 0.02368(3) 0.02368(3) 0.34361(11)
O19_2 O 0.0362(2) 0.51376(17) 0.1178(5)
O22_2 O 0.10480(19) 0.4794(2) 0.1169(6)
O23_2 O 0.0068(2) 0.5741(2) 0.2198(6)
H33 H 0.0809599 0.385377 0.0435873
H39 H 0.0119233 0.477362 0.293159
H40 H 0.0152348 0.522482 0.329015
O12_2 O 0.00976(17) 0.4410(2) 0.9634(5)
O17_2 O 0.0590(2) 0.49024(17) 0.9634(5)
H34 H 0.0865367 0.413463 0.951612
Zr1_2 Zr 0.94901(2) 0.44901(2) 0.0000
Zr2_2 Zr 0.97632(3) 0.52368(3) 0.15639(11)
O2_2 O 0.95883(18) 0.39204(17) 0.0624(5)
O4_2 O 0.9410(2) 0.50976(17) 0.0366(5)
O5_2 O 0.98624(17) 0.4638(2) 0.1178(5)
O6_2 O 0.94573(17) 0.09281(17) 0.3837(5)
O8_2 O 0.9295(2) 0.5705(2) 0.1802(9)
C1_2 C 0.95085(15) 0.27519(17) 0.1374(4)
O9_2 O 0.9932(2) 0.0741(2) 0.2802(6)
C2_2 C 0.9145(2) 0.2518(3) 0.1142(7)
H1_2 H 0.8932 0.2696 0.0965
H2_2 H 0.9066 0.2362 0.1695
H3_2 H 0.9203 0.2342 0.0609
C3_2 C 0.97754(13) 0.21751(14) 0.2171(4)
C4_2 C 0.95341(17) 0.31404(18) 0.1080(4)
H4_2 H 0.9324 0.3257 0.0736
C5_2 C 0.95973(14) 0.20917(16) 0.3036(4)
C6_2 C 0.98992(18) 0.14867(16) 0.1931(5)
C7_2 C 0.98152(19) 0.25818(12) 0.1878(4)
O10_2 O 0.9975(3) 0.5025(3) 0.3008(7)
C9_2 C 0.9425(3) 0.2399(3) 0.3685(7)
H6_2 H 0.9545 0.2650 0.3509
H7_2 H 0.9489 0.2338 0.4347
H8_2 H 0.9140 0.2416 0.3610
C10_2 C 0.95702(16) 0.17055(19) 0.3348(4)
H9_2 H 0.9448 0.1648 0.3939
C11_2 C 0.97212(17) 0.14030(14) 0.2795(5)
C12_2 C 0.9901(3) 0.37802(14) 0.0979(7)
C13_2 C 0.9868(2) 0.33582(13) 0.1292(4)
C14_2 C 0.9690(3) 0.09852(17) 0.3141(8)
C15_2 C 0.99264(16) 0.18728(19) 0.1618(4)
H14_2 H 0.9918 0.1995 0.0205
Zr4_3 Zr 0.94901(2) 0.05099(2) 0.5000
O18_2 O 0.99024(17) 0.5590(2) 0.0366(5)
O20_2 O 0.90719(17) 0.44573(17) 0.1163(5)
O24_2 O 0.9259(2) 0.4932(2) 0.2198(6)
Zr1_3 Zr 0.94901(2) 0.44901(2) 1.0000
O11_2 O 0.89204(17) 0.45883(18) 0.9376(5)
O13_2 O 0.9638(2) 0.48624(17) 0.8822(5)
O14_2 O 0.59281(17) 0.44573(17) 0.6163(5)
O15_2 O 0.89520(19) 0.5206(2) 0.8831(6)
C19_2 C 0.77519(17) 0.45085(15) 0.8626(4)
C20_2 C 0.7518(3) 0.4145(2) 0.8858(7)
H17_2 H 0.7696 0.3932 0.9035
H18_2 H 0.7362 0.4066 0.8305
H19_2 H 0.7342 0.4203 0.9391
C21_2 C 0.71751(14) 0.47754(13) 0.7829(4)
C22_2 C 0.81404(18) 0.45341(17) 0.8920(4)
H20_2 H 0.8257 0.4324 0.9264
C23_2 C 0.70917(16) 0.45973(14) 0.6964(4)
C24_2 C 0.64867(16) 0.48992(18) 0.8069(5)
H21_2 H 0.6280 0.5002 0.8447
C25_2 C 0.75818(12) 0.48152(19) 0.8122(4)
C26_2 C 0.78000(18) 0.51488(17) 0.7910(4)
C27_2 C 0.7399(3) 0.4425(3) 0.6315(7)
H22_2 H 0.7650 0.4545 0.6491
H23_2 H 0.7338 0.4489 0.5653
H24_2 H 0.7416 0.4140 0.6390
C28_2 C 0.67055(19) 0.45702(16) 0.6652(4)
H25_2 H 0.6648 0.4448 0.6061
C29_2 C 0.64030(14) 0.47212(17) 0.7205(5)
C30_2 C 0.87802(14) 0.4901(3) 0.9021(7)
C31_2 C 0.83582(13) 0.4868(2) 0.8708(4)
C32_2 C 0.59852(17) 0.4690(3) 0.6859(8)
C33_2 C 0.68728(19) 0.49264(16) 0.8382(4)
C34_2 C 0.81890(17) 0.51752(17) 0.8204(5)
H26_2 H 0.8339 0.5403 0.8061
C35_2 C 0.7629(3) 0.5490(2) 0.7365(7)
H27_2 H 0.7461 0.5395 0.6851
H28_2 H 0.7847 0.5642 0.7098
H29_2 H 0.7476 0.5657 0.7793
C36_2 C 0.6940(4) 0.5123(3) 0.9327(5)
H30_2 H 0.6995 0.4918 0.9795
H31_2 H 0.6707 0.5271 0.9523
H32_2 H 0.7165 0.5302 0.9284
Zr5_3 Zr 0.55099(2) 0.44901(2) 0.5000
Zr9_2 Zr 0.95457(2) 0.54543(2) 0.91751(11)
O21_2 O 0.94573(17) 0.40719(17) 0.8837(5)
Zr3_3 Zr 0.04543(2) 0.04543(2) 0.58249(11)
O1_3 O 0.0877(2) 0.0877(2) 0.5220(9)
O3_3 O 0.0532(3) 0.0532(3) 0.7369(9)
O7_3 O 0.10480(19) 0.0206(2) 0.6169(6)
H5_3 H 0.3720 0.0002 0.6553
C8_3 C 0.22000(18) 0.01488(17) 0.7090(4)
C16_3 C 0.18110(17) 0.01752(17) 0.6796(5)
H10_3 H 0.1661 0.0403 0.6939
C17_3 C 0.2371(3) 0.0490(2) 0.7635(7)
H11_3 H 0.2539 0.0395 0.8149
H12_3 H 0.2153 0.0642 0.7902
H13_3 H 0.2524 0.0657 0.7207
C18_3 C 0.3060(4) 0.0123(3) 0.5673(5)
H15_3 H 0.3293 0.0271 0.5477
H16_3 H 0.2835 0.0302 0.5716
O12_3 O 0.0590(2) 0.00976(17) 0.4634(5)
Zr7_3 Zr 0.47632(3) 0.02368(3) 0.84361(11)
O17_3 O 0.00976(17) 0.0590(2) 0.4634(5)
O22_3 O 0.0206(2) 0.10480(19) 0.6169(6)
H39_2 H 0.0226382 0.0119233 0.793159
Zr1_4 Zr 0.05099(2) 0.94901(2) 0.5000
O2_3 O 0.10796(17) 0.95883(18) 0.5624(5)
O5_3 O 0.0362(2) 0.98624(17) 0.6178(5)
O6_3 O 0.40719(17) 0.94573(17) 0.8837(5)
C1_3 C 0.22481(17) 0.95085(15) 0.6374(4)
O9_3 O 0.4259(2) 0.9932(2) 0.7802(6)
C2_3 C 0.2482(3) 0.9145(2) 0.6142(7)
H1_3 H 0.2304 0.8932 0.5965
H2_3 H 0.2638 0.9066 0.6695
H3_3 H 0.2658 0.9203 0.5609
C3_3 C 0.28249(14) 0.97754(13) 0.7171(4)
C4_3 C 0.18596(18) 0.95341(17) 0.6080(4)
H4_3 H 0.1743 0.9324 0.5736
C5_3 C 0.29083(16) 0.95973(14) 0.8036(4)
C6_3 C 0.35133(16) 0.98992(18) 0.6931(5)
C7_3 C 0.24182(12) 0.98152(19) 0.6878(4)
C9_3 C 0.2601(3) 0.9425(3) 0.8685(7)
H6_3 H 0.2350 0.9545 0.8509
H7_3 H 0.2662 0.9489 0.9347
H8_3 H 0.2584 0.9140 0.8610
C10_3 C 0.32945(19) 0.95702(16) 0.8348(4)
H9_3 H 0.3352 0.9448 0.8939
C11_3 C 0.35970(14) 0.97212(17) 0.7795(5)
C12_3 C 0.12198(14) 0.9901(3) 0.5979(7)
C13_3 C 0.16418(13) 0.9868(2) 0.6292(4)
C14_3 C 0.40148(17) 0.9690(3) 0.8141(8)
C15_3 C 0.31272(19) 0.99264(16) 0.6618(4)
H14_3 H 0.3005 0.9918 0.5205
O11_3 O 0.04117(18) 0.89204(17) 0.4376(5)
O13_3 O 0.01376(17) 0.9638(2) 0.3822(5)
O14_3 O 0.05427(17) 0.59281(17) 0.1163(5)
C19_3 C 0.04915(15) 0.77519(17) 0.3626(4)
C20_3 C 0.0855(2) 0.7518(3) 0.3858(7)
H17_3 H 0.1068 0.7696 0.4035
H18_3 H 0.0934 0.7362 0.3305
H19_3 H 0.0797 0.7342 0.4391
C21_3 C 0.02246(13) 0.71751(14) 0.2829(4)
C22_3 C 0.04659(17) 0.81404(18) 0.3920(4)
H20_3 H 0.0676 0.8257 0.4264
C23_3 C 0.04027(14) 0.70917(16) 0.1964(4)
C24_3 C 0.01008(18) 0.64867(16) 0.3069(5)
C25_3 C 0.01848(19) 0.75818(12) 0.3122(4)
C27_3 C 0.0575(3) 0.7399(3) 0.1315(7)
H22_3 H 0.0455 0.7650 0.1491
H23_3 H 0.0511 0.7338 0.0653
H24_3 H 0.0860 0.7416 0.1390
C28_3 C 0.04298(16) 0.67055(19) 0.1652(4)
H25_3 H 0.0552 0.6648 0.1061
C29_3 C 0.02788(17) 0.64030(14) 0.2205(5)
C30_3 C 0.0099(3) 0.87802(14) 0.4021(7)
C31_3 C 0.0132(2) 0.83582(13) 0.3708(4)
C32_3 C 0.0310(3) 0.59852(17) 0.1859(8)
C33_3 C 0.00736(16) 0.68728(19) 0.3382(4)
H30_3 H 0.0082 0.6995 0.4795
O20_3 O 0.05427(17) 0.90719(17) 0.6163(5)
O21_3 O 0.09281(17) 0.94573(17) 0.3837(5)
O24_3 O 0.0068(2) 0.9259(2) 0.7198(6)
O19_3 O 0.98624(17) 0.0362(2) 0.6178(5)
O23_3 O 0.9259(2) 0.0068(2) 0.7198(6)
H40_2 H 0.977518 0.0152348 0.829015
Zr2_3 Zr 0.97632(3) 0.97632(3) 0.65639(11)
O4_3 O 0.99024(17) 0.9410(2) 0.5366(5)
O8_3 O 0.9295(2) 0.9295(2) 0.6802(9)
O10_3 O 0.9975(3) 0.9975(3) 0.8008(7)
O15_3 O 0.9794(2) 0.89520(19) 0.3831(6)
H21_3 H 0.9998 0.6280 0.3447
C26_3 C 0.98512(17) 0.78000(18) 0.2910(4)
C34_3 C 0.98248(17) 0.81890(17) 0.3204(5)
H26_3 H 0.9597 0.8339 0.3061
C35_3 C 0.9510(2) 0.7629(3) 0.2365(7)
H27_3 H 0.9605 0.7461 0.1851
H28_3 H 0.9358 0.7847 0.2098
H29_3 H 0.9343 0.7476 0.2793
C36_3 C 0.9877(3) 0.6940(4) 0.4327(5)
H31_3 H 0.9729 0.6707 0.4523
H32_3 H 0.9698 0.7165 0.4284
Zr9_3 Zr 0.95457(2) 0.95457(2) 0.41751(11)
O18_3 O 0.9410(2) 0.99024(17) 0.5366(5)
Zr1_5 Zr 0.55099(2) 0.05099(2) 0.0000
Zr3_4 Zr 0.45457(2) 0.04543(2) 0.08249(11)
O1_4 O 0.4123(2) 0.0877(2) 0.0220(9)
O2_4 O 0.54117(18) 0.10796(17) 0.0624(5)
O3_4 O 0.4468(3) 0.0532(3) 0.2369(9)
O5_4 O 0.51376(17) 0.0362(2) 0.1178(5)
O6_4 O 0.55427(17) 0.40719(17) 0.3837(5)
O7_4 O 0.4794(2) 0.10480(19) 0.1169(6)
C1_4 C 0.54915(15) 0.22481(17) 0.1374(4)
O9_4 O 0.5068(2) 0.4259(2) 0.2802(6)
C2_4 C 0.5855(2) 0.2482(3) 0.1142(7)
H1_4 H 0.6068 0.2304 0.0965
H2_4 H 0.5934 0.2638 0.1695
H3_4 H 0.5797 0.2658 0.0609
C3_4 C 0.52246(13) 0.28249(14) 0.2171(4)
C4_4 C 0.54659(17) 0.18596(18) 0.1080(4)
H4_4 H 0.5676 0.1743 0.0736
C5_4 C 0.54027(14) 0.29083(16) 0.3036(4)
C6_4 C 0.51008(18) 0.35133(16) 0.1931(5)
H5_4 H 0.4998 0.3720 0.1553
C7_4 C 0.51848(19) 0.24182(12) 0.1878(4)
C8_4 C 0.48512(17) 0.22000(18) 0.2090(4)
C9_4 C 0.5575(3) 0.2601(3) 0.3685(7)
H6_4 H 0.5455 0.2350 0.3509
H7_4 H 0.5511 0.2662 0.4347
H8_4 H 0.5860 0.2584 0.3610
C10_4 C 0.54298(16) 0.32945(19) 0.3348(4)
H9_4 H 0.5552 0.3352 0.3939
C11_4 C 0.52788(17) 0.35970(14) 0.2795(5)
C12_4 C 0.5099(3) 0.12198(14) 0.0979(7)
C13_4 C 0.5132(2) 0.16418(13) 0.1292(4)
C14_4 C 0.5310(3) 0.40148(17) 0.3141(8)
C15_4 C 0.50736(16) 0.31272(19) 0.1618(4)
C16_4 C 0.48248(17) 0.18110(17) 0.1796(5)
H10_4 H 0.4597 0.1661 0.1939
C17_4 C 0.4510(2) 0.2371(3) 0.2635(7)
H11_4 H 0.4605 0.2539 0.3149
H12_4 H 0.4358 0.2153 0.2902
H13_4 H 0.4343 0.2524 0.2207
C18_4 C 0.4877(3) 0.3060(4) 0.0673(5)
H14_4 H 0.5082 0.3005 0.0205
H15_4 H 0.4729 0.3293 0.0477
H16_4 H 0.4698 0.2835 0.0716
O20_4 O 0.59281(17) 0.05427(17) 0.1163(5)
O22_4 O 0.39520(19) 0.0206(2) 0.1169(6)
O24_4 O 0.5741(2) 0.0068(2) 0.2198(6)
H33_2 H 0.41904 0.114623 0.0435873
H39_3 H 0.488077 0.0226382 0.293159
Zr1_6 Zr 0.55099(2) 0.05099(2) 1.0000
O11_4 O 0.60796(17) 0.04117(18) 0.9376(5)
O12_4 O 0.49024(17) 0.0590(2) 0.9634(5)
O13_4 O 0.5362(2) 0.01376(17) 0.8822(5)
O14_4 O 0.90719(17) 0.05427(17) 0.6163(5)
C19_4 C 0.72481(17) 0.04915(15) 0.8626(4)
C20_4 C 0.7482(3) 0.0855(2) 0.8858(7)
H17_4 H 0.7304 0.1068 0.9035
H18_4 H 0.7638 0.0934 0.8305
H19_4 H 0.7658 0.0797 0.9391
C21_4 C 0.78249(14) 0.02246(13) 0.7829(4)
C22_4 C 0.68596(18) 0.04659(17) 0.8920(4)
H20_4 H 0.6743 0.0676 0.9264
C23_4 C 0.79083(16) 0.04027(14) 0.6964(4)
C24_4 C 0.85133(16) 0.01008(18) 0.8069(5)
C25_4 C 0.74182(12) 0.01848(19) 0.8122(4)
C27_4 C 0.7601(3) 0.0575(3) 0.6315(7)
H22_4 H 0.7350 0.0455 0.6491
H23_4 H 0.7662 0.0511 0.5653
H24_4 H 0.7584 0.0860 0.6390
C28_4 C 0.82945(19) 0.04298(16) 0.6652(4)
H25_4 H 0.8352 0.0552 0.6061
C29_4 C 0.85970(14) 0.02788(17) 0.7205(5)
C30_4 C 0.62198(14) 0.0099(3) 0.9021(7)
C31_4 C 0.66418(13) 0.0132(2) 0.8708(4)
C32_4 C 0.90148(17) 0.0310(3) 0.6859(8)
C33_4 C 0.81272(19) 0.00736(16) 0.8382(4)
H30_4 H 0.8005 0.0082 0.9795
O17_4 O 0.4410(2) 0.00976(17) 0.9634(5)
O21_4 O 0.55427(17) 0.09281(17) 0.8837(5)
H34_2 H 0.413463 0.0865367 0.951612
O4_4 O 0.5590(2) 0.99024(17) 0.0366(5)
O8_4 O 0.5705(2) 0.9295(2) 0.1802(9)
O10_4 O 0.5025(3) 0.9975(3) 0.3008(7)
O18_4 O 0.50976(17) 0.9410(2) 0.0366(5)
O19_4 O 0.4638(2) 0.98624(17) 0.1178(5)
H40_3 H 0.484765 0.977518 0.329015
O15_4 O 0.60480(19) 0.9794(2) 0.8831(6)
H21_4 H 0.8720 0.9998 0.8447
C26_4 C 0.72000(18) 0.98512(17) 0.7910(4)
C34_4 C 0.68110(17) 0.98248(17) 0.8204(5)
H26_4 H 0.6661 0.9597 0.8061
C35_4 C 0.7371(3) 0.9510(2) 0.7365(7)
H27_4 H 0.7539 0.9605 0.6851
H28_4 H 0.7153 0.9358 0.7098
H29_4 H 0.7524 0.9343 0.7793
C36_4 C 0.8060(4) 0.9877(3) 0.9327(5)
H31_4 H 0.8293 0.9729 0.9523
H32_4 H 0.7835 0.9698 0.9284
Zr9_4 Zr 0.54543(2) 0.95457(2) 0.91751(11)
O8_5 O 0.0705(2) 0.4295(2) 0.8198(9)
O10_5 O 0.0025(3) 0.4975(3) 0.6992(7)
O19_5 O 0.01376(17) 0.5362(2) 0.8822(5)
H40_4 H 0.0224815 0.515235 0.670985
H34_3 H 0.913463 0.586537 0.0483882
O1_5 O 0.9123(2) 0.5877(2) 0.9780(9)
O3_5 O 0.9468(3) 0.5532(3) 0.7631(9)
O22_5 O 0.9794(2) 0.60480(19) 0.8831(6)
O24_5 O 0.9932(2) 0.4259(2) 0.7802(6)
H33_3 H 0.885377 0.58096 0.956413
H39_4 H 0.977362 0.511923 0.706841
O8_6 O 0.4295(2) 0.0705(2) 0.8198(9)
O10_6 O 0.4975(3) 0.0025(3) 0.6992(7)
O24_6 O 0.5068(2) 0.0741(2) 0.7802(6)
H34_4 H 0.586537 0.913463 0.0483882
O1_6 O 0.5877(2) 0.9123(2) 0.9780(9)
O3_6 O 0.5532(3) 0.9468(3) 0.7631(9)
O19_6 O 0.48624(17) 0.9638(2) 0.8822(5)
O22_6 O 0.5206(2) 0.89520(19) 0.8831(6)
H33_4 H 0.614623 0.91904 0.956413
H39_5 H 0.522638 0.988077 0.706841
H40_5 H 0.477518 0.984765 0.670985
O8_7 O 0.0705(2) 0.0705(2) 0.3198(9)
O10_7 O 0.0025(3) 0.0025(3) 0.1992(7)
O24_7 O 0.0741(2) 0.9932(2) 0.2802(6)
O19_7 O 0.9638(2) 0.01376(17) 0.3822(5)
H40_6 H 0.984765 0.0224815 0.170985
O1_7 O 0.9123(2) 0.9123(2) 0.4780(9)
O3_7 O 0.9468(3) 0.9468(3) 0.2631(9)
O22_7 O 0.89520(19) 0.9794(2) 0.3831(6)
H39_6 H 0.988077 0.977362 0.206841
O1_8 O 0.5877(2) 0.5877(2) 0.4780(9)
O3_8 O 0.5532(3) 0.5532(3) 0.2631(9)
O8_8 O 0.4295(2) 0.4295(2) 0.3198(9)
O10_8 O 0.4975(3) 0.4975(3) 0.1992(7)
O19_8 O 0.5362(2) 0.48624(17) 0.3822(5)
O22_8 O 0.60480(19) 0.5206(2) 0.3831(6)
O24_8 O 0.4259(2) 0.5068(2) 0.2802(6)
O2_5 O 0.60796(17) 0.45883(18) 0.4376(5)
C1_5 C 0.72481(17) 0.45085(15) 0.3626(4)
C2_5 C 0.7482(3) 0.4145(2) 0.3858(7)
H1_5 H 0.7304 0.3932 0.4035
H2_5 H 0.7638 0.4066 0.3305
H3_5 H 0.7658 0.4203 0.4391
C3_5 C 0.78249(14) 0.47754(13) 0.2829(4)
C4_5 C 0.68596(18) 0.45341(17) 0.3920(4)
H4_5 H 0.6743 0.4324 0.4264
C5_5 C 0.79083(16) 0.45973(14) 0.1964(4)
C6_5 C 0.85133(16) 0.48992(18) 0.3069(5)
H5_5 H 0.8720 0.5002 0.3447
C7_5 C 0.74182(12) 0.48152(19) 0.3122(4)
C8_5 C 0.72000(18) 0.51488(17) 0.2910(4)
C9_5 C 0.7601(3) 0.4425(3) 0.1315(7)
H6_5 H 0.7350 0.4545 0.1491
H7_5 H 0.7662 0.4489 0.0653
H8_5 H 0.7584 0.4140 0.1390
C10_5 C 0.82945(19) 0.45702(16) 0.1652(4)
H9_5 H 0.8352 0.4448 0.1061
C11_5 C 0.85970(14) 0.47212(17) 0.2205(5)
C12_5 C 0.62198(14) 0.4901(3) 0.4021(7)
C13_5 C 0.66418(13) 0.4868(2) 0.3708(4)
C14_5 C 0.90148(17) 0.4690(3) 0.1859(8)
C15_5 C 0.81272(19) 0.49264(16) 0.3382(4)
C16_5 C 0.68110(17) 0.51752(17) 0.3204(5)
H10_5 H 0.6661 0.5403 0.3061
C17_5 C 0.7371(3) 0.5490(2) 0.2365(7)
H11_5 H 0.7539 0.5395 0.1851
H12_5 H 0.7153 0.5642 0.2098
H13_5 H 0.7524 0.5657 0.2793
C18_5 C 0.8060(4) 0.5123(3) 0.4327(5)
H14_5 H 0.8005 0.4918 0.4795
H15_5 H 0.8293 0.5271 0.4523
H16_5 H 0.7835 0.5302 0.4284
O11_5 O 0.54117(18) 0.39204(17) 0.5624(5)
C19_5 C 0.54915(15) 0.27519(17) 0.6374(4)
C20_5 C 0.5855(2) 0.2518(3) 0.6142(7)
H17_5 H 0.6068 0.2696 0.5965
H18_5 H 0.5934 0.2362 0.6695
H19_5 H 0.5797 0.2342 0.5609
C21_5 C 0.52246(13) 0.21751(14) 0.7171(4)
C22_5 C 0.54659(17) 0.31404(18) 0.6080(4)
H20_5 H 0.5676 0.3257 0.5736
C23_5 C 0.54027(14) 0.20917(16) 0.8036(4)
C24_5 C 0.51008(18) 0.14867(16) 0.6931(5)
H21_5 H 0.4998 0.1280 0.6553
C25_5 C 0.51848(19) 0.25818(12) 0.6878(4)
C26_5 C 0.48512(17) 0.28000(18) 0.7090(4)
C27_5 C 0.5575(3) 0.2399(3) 0.8685(7)
H22_5 H 0.5455 0.2650 0.8509
H23_5 H 0.5511 0.2338 0.9347
H24_5 H 0.5860 0.2416 0.8610
C28_5 C 0.54298(16) 0.17055(19) 0.8348(4)
H25_5 H 0.5552 0.1648 0.8939
C29_5 C 0.52788(17) 0.14030(14) 0.7795(5)
C30_5 C 0.5099(3) 0.37802(14) 0.5979(7)
C31_5 C 0.5132(2) 0.33582(13) 0.6292(4)
C32_5 C 0.5310(3) 0.09852(17) 0.8141(8)
C33_5 C 0.50736(16) 0.18728(19) 0.6618(4)
C34_5 C 0.48248(17) 0.31890(17) 0.6796(5)
H26_5 H 0.4597 0.3339 0.6939
C35_5 C 0.4510(2) 0.2629(3) 0.7635(7)
H27_5 H 0.4605 0.2461 0.8149
H28_5 H 0.4358 0.2847 0.7902
H29_5 H 0.4343 0.2476 0.7207
C36_5 C 0.4877(3) 0.1940(4) 0.5673(5)
H30_5 H 0.5082 0.1995 0.5205
H31_5 H 0.4729 0.1707 0.5477
H32_5 H 0.4698 0.2165 0.5716
O11_6 O 0.10796(17) 0.54117(18) 0.0624(5)
C19_6 C 0.22481(17) 0.54915(15) 0.1374(4)
C20_6 C 0.2482(3) 0.5855(2) 0.1142(7)
H17_6 H 0.2304 0.6068 0.0965
H18_6 H 0.2638 0.5934 0.1695
H19_6 H 0.2658 0.5797 0.0609
C21_6 C 0.28249(14) 0.52246(13) 0.2171(4)
C22_6 C 0.18596(18) 0.54659(17) 0.1080(4)
H20_6 H 0.1743 0.5676 0.0736
C23_6 C 0.29083(16) 0.54027(14) 0.3036(4)
C24_6 C 0.35133(16) 0.51008(18) 0.1931(5)
H21_6 H 0.3720 0.4998 0.1553
C25_6 C 0.24182(12) 0.51848(19) 0.1878(4)
C26_6 C 0.22000(18) 0.48512(17) 0.2090(4)
C27_6 C 0.2601(3) 0.5575(3) 0.3685(7)
H22_6 H 0.2350 0.5455 0.3509
H23_6 H 0.2662 0.5511 0.4347
H24_6 H 0.2584 0.5860 0.3610
C28_6 C 0.32945(19) 0.54298(16) 0.3348(4)
H25_6 H 0.3352 0.5552 0.3939
C29_6 C 0.35970(14) 0.52788(17) 0.2795(5)
C30_6 C 0.12198(14) 0.5099(3) 0.0979(7)
C31_6 C 0.16418(13) 0.5132(2) 0.1292(4)
C32_6 C 0.40148(17) 0.5310(3) 0.3141(8)
C33_6 C 0.31272(19) 0.50736(16) 0.1618(4)
C34_6 C 0.18110(17) 0.48248(17) 0.1796(5)
H26_6 H 0.1661 0.4597 0.1939
C35_6 C 0.2371(3) 0.4510(2) 0.2635(7)
H27_6 H 0.2539 0.4605 0.3149
H28_6 H 0.2153 0.4358 0.2902
H29_6 H 0.2524 0.4343 0.2207
C36_6 C 0.3060(4) 0.4877(3) 0.0673(5)
H30_6 H 0.3005 0.5082 0.0205
H31_6 H 0.3293 0.4729 0.0477
H32_6 H 0.2835 0.4698 0.0716
O2_6 O 0.04117(18) 0.60796(17) 0.9376(5)
C1_6 C 0.04915(15) 0.72481(17) 0.8626(4)
C2_6 C 0.0855(2) 0.7482(3) 0.8858(7)
H1_6 H 0.1068 0.7304 0.9035
H2_6 H 0.0934 0.7638 0.8305
H3_6 H 0.0797 0.7658 0.9391
C3_6 C 0.02246(13) 0.78249(14) 0.7829(4)
C4_6 C 0.04659(17) 0.68596(18) 0.8920(4)
H4_6 H 0.0676 0.6743 0.9264
C5_6 C 0.04027(14) 0.79083(16) 0.6964(4)
C6_6 C 0.01008(18) 0.85133(16) 0.8069(5)
C7_6 C 0.01848(19) 0.74182(12) 0.8122(4)
C9_6 C 0.0575(3) 0.7601(3) 0.6315(7)
H6_6 H 0.0455 0.7350 0.6491
H7_6 H 0.0511 0.7662 0.5653
H8_6 H 0.0860 0.7584 0.6390
C10_6 C 0.04298(16) 0.82945(19) 0.6652(4)
H9_6 H 0.0552 0.8352 0.6061
C11_6 C 0.02788(17) 0.85970(14) 0.7205(5)
C12_6 C 0.0099(3) 0.62198(14) 0.9021(7)
C13_6 C 0.0132(2) 0.66418(13) 0.8708(4)
C14_6 C 0.0310(3) 0.90148(17) 0.6859(8)
C15_6 C 0.00736(16) 0.81272(19) 0.8382(4)
H14_6 H 0.0082 0.8005 0.9795
H5_6 H 0.9998 0.8720 0.8447
C8_6 C 0.98512(17) 0.72000(18) 0.7910(4)
C16_6 C 0.98248(17) 0.68110(17) 0.8204(5)
H10_6 H 0.9597 0.6661 0.8061
C17_6 C 0.9510(2) 0.7371(3) 0.7365(7)
H11_6 H 0.9605 0.7539 0.6851
H12_6 H 0.9358 0.7153 0.7098
H13_6 H 0.9343 0.7524 0.7793
C18_6 C 0.9877(3) 0.8060(4) 0.9327(5)
H15_6 H 0.9729 0.8293 0.9523
H16_6 H 0.9698 0.7835 0.9284
H33_5 H 0.91904 0.614623 0.956413
H39_7 H 0.988077 0.522638 0.706841
H40_7 H 0.984765 0.477518 0.670985
H21_7 H 0.0002 0.3720 0.6553
C26_7 C 0.01488(17) 0.22000(18) 0.7090(4)
C34_7 C 0.01752(17) 0.18110(17) 0.6796(5)
H26_7 H 0.0403 0.1661 0.6939
C35_7 C 0.0490(2) 0.2371(3) 0.7635(7)
H27_7 H 0.0395 0.2539 0.8149
H28_7 H 0.0642 0.2153 0.7902
H29_7 H 0.0657 0.2524 0.7207
C36_7 C 0.0123(3) 0.3060(4) 0.5673(5)
H31_7 H 0.0271 0.3293 0.5477
H32_7 H 0.0302 0.2835 0.5716
H40_8 H 0.0224815 0.984765 0.170985
O2_7 O 0.89204(17) 0.04117(18) 0.4376(5)
C1_7 C 0.77519(17) 0.04915(15) 0.3626(4)
C2_7 C 0.7518(3) 0.0855(2) 0.3858(7)
H1_7 H 0.7696 0.1068 0.4035
H2_7 H 0.7362 0.0934 0.3305
H3_7 H 0.7342 0.0797 0.4391
C3_7 C 0.71751(14) 0.02246(13) 0.2829(4)
C4_7 C 0.81404(18) 0.04659(17) 0.3920(4)
H4_7 H 0.8257 0.0676 0.4264
C5_7 C 0.70917(16) 0.04027(14) 0.1964(4)
C6_7 C 0.64867(16) 0.01008(18) 0.3069(5)
C7_7 C 0.75818(12) 0.01848(19) 0.3122(4)
C9_7 C 0.7399(3) 0.0575(3) 0.1315(7)
H6_7 H 0.7650 0.0455 0.1491
H7_7 H 0.7338 0.0511 0.0653
H8_7 H 0.7416 0.0860 0.1390
C10_7 C 0.67055(19) 0.04298(16) 0.1652(4)
H9_7 H 0.6648 0.0552 0.1061
C11_7 C 0.64030(14) 0.02788(17) 0.2205(5)
C12_7 C 0.87802(14) 0.0099(3) 0.4021(7)
C13_7 C 0.83582(13) 0.0132(2) 0.3708(4)
C14_7 C 0.59852(17) 0.0310(3) 0.1859(8)
C15_7 C 0.68728(19) 0.00736(16) 0.3382(4)
H14_7 H 0.6995 0.0082 0.4795
O11_7 O 0.95883(18) 0.10796(17) 0.5624(5)
C19_7 C 0.95085(15) 0.22481(17) 0.6374(4)
C20_7 C 0.9145(2) 0.2482(3) 0.6142(7)
H17_7 H 0.8932 0.2304 0.5965
H18_7 H 0.9066 0.2638 0.6695
H19_7 H 0.9203 0.2658 0.5609
C21_7 C 0.97754(13) 0.28249(14) 0.7171(4)
C22_7 C 0.95341(17) 0.18596(18) 0.6080(4)
H20_7 H 0.9324 0.1743 0.5736
C23_7 C 0.95973(14) 0.29083(16) 0.8036(4)
C24_7 C 0.98992(18) 0.35133(16) 0.6931(5)
C25_7 C 0.98152(19) 0.24182(12) 0.6878(4)
C27_7 C 0.9425(3) 0.2601(3) 0.8685(7)
H22_7 H 0.9545 0.2350 0.8509
H23_7 H 0.9489 0.2662 0.9347
H24_7 H 0.9140 0.2584 0.8610
C28_7 C 0.95702(16) 0.32945(19) 0.8348(4)
H25_7 H 0.9448 0.3352 0.8939
C29_7 C 0.97212(17) 0.35970(14) 0.7795(5)
C30_7 C 0.9901(3) 0.12198(14) 0.5979(7)
C31_7 C 0.9868(2) 0.16418(13) 0.6292(4)
C32_7 C 0.9690(3) 0.40148(17) 0.8141(8)
C33_7 C 0.99264(16) 0.31272(19) 0.6618(4)
H30_7 H 0.9918 0.3005 0.5205
H5_7 H 0.6280 0.9998 0.3447
C8_7 C 0.78000(18) 0.98512(17) 0.2910(4)
C16_7 C 0.81890(17) 0.98248(17) 0.3204(5)
H10_7 H 0.8339 0.9597 0.3061
C17_7 C 0.7629(3) 0.9510(2) 0.2365(7)
H11_7 H 0.7461 0.9605 0.1851
H12_7 H 0.7847 0.9358 0.2098
H13_7 H 0.7476 0.9343 0.2793
C18_7 C 0.6940(4) 0.9877(3) 0.4327(5)
H15_7 H 0.6707 0.9729 0.4523
H16_7 H 0.7165 0.9698 0.4284
H39_8 H 0.977362 0.988077 0.206841
H21_8 H 0.1280 0.0002 0.1553
C26_8 C 0.28000(18) 0.01488(17) 0.2090(4)
C34_8 C 0.31890(17) 0.01752(17) 0.1796(5)
H26_8 H 0.3339 0.0403 0.1939
C35_8 C 0.2629(3) 0.0490(2) 0.2635(7)
H27_8 H 0.2461 0.0395 0.3149
H28_8 H 0.2847 0.0642 0.2902
H29_8 H 0.2476 0.0657 0.2207
C36_8 C 0.1940(4) 0.0123(3) 0.0673(5)
H31_8 H 0.1707 0.0271 0.0477
H32_8 H 0.2165 0.0302 0.0716
H40_9 H 0.515235 0.0224815 0.670985
O11_8 O 0.39204(17) 0.95883(18) 0.0624(5)
C19_8 C 0.27519(17) 0.95085(15) 0.1374(4)
C20_8 C 0.2518(3) 0.9145(2) 0.1142(7)
H17_8 H 0.2696 0.8932 0.0965
H18_8 H 0.2362 0.9066 0.1695
H19_8 H 0.2342 0.9203 0.0609
C21_8 C 0.21751(14) 0.97754(13) 0.2171(4)
C22_8 C 0.31404(18) 0.95341(17) 0.1080(4)
H20_8 H 0.3257 0.9324 0.0736
C23_8 C 0.20917(16) 0.95973(14) 0.3036(4)
C24_8 C 0.14867(16) 0.98992(18) 0.1931(5)
C25_8 C 0.25818(12) 0.98152(19) 0.1878(4)
C27_8 C 0.2399(3) 0.9425(3) 0.3685(7)
H22_8 H 0.2650 0.9545 0.3509
H23_8 H 0.2338 0.9489 0.4347
H24_8 H 0.2416 0.9140 0.3610
C28_8 C 0.17055(19) 0.95702(16) 0.3348(4)
H25_8 H 0.1648 0.9448 0.3939
C29_8 C 0.14030(14) 0.97212(17) 0.2795(5)
C30_8 C 0.37802(14) 0.9901(3) 0.0979(7)
C31_8 C 0.33582(13) 0.9868(2) 0.1292(4)
C32_8 C 0.09852(17) 0.9690(3) 0.3141(8)
C33_8 C 0.18728(19) 0.99264(16) 0.1618(4)
H30_8 H 0.1995 0.9918 0.0205
O2_8 O 0.45883(18) 0.89204(17) 0.9376(5)
C1_8 C 0.45085(15) 0.77519(17) 0.8626(4)
C2_8 C 0.4145(2) 0.7518(3) 0.8858(7)
H1_8 H 0.3932 0.7696 0.9035
H2_8 H 0.4066 0.7362 0.8305
H3_8 H 0.4203 0.7342 0.9391
C3_8 C 0.47754(13) 0.71751(14) 0.7829(4)
C4_8 C 0.45341(17) 0.81404(18) 0.8920(4)
H4_8 H 0.4324 0.8257 0.9264
C5_8 C 0.45973(14) 0.70917(16) 0.6964(4)
C6_8 C 0.48992(18) 0.64867(16) 0.8069(5)
H5_8 H 0.5002 0.6280 0.8447
C7_8 C 0.48152(19) 0.75818(12) 0.8122(4)
C8_8 C 0.51488(17) 0.78000(18) 0.7910(4)
C9_8 C 0.4425(3) 0.7399(3) 0.6315(7)
H6_8 H 0.4545 0.7650 0.6491
H7_8 H 0.4489 0.7338 0.5653
H8_8 H 0.4140 0.7416 0.6390
C10_8 C 0.45702(16) 0.67055(19) 0.6652(4)
H9_8 H 0.4448 0.6648 0.6061
C11_8 C 0.47212(17) 0.64030(14) 0.7205(5)
C12_8 C 0.4901(3) 0.87802(14) 0.9021(7)
C13_8 C 0.4868(2) 0.83582(13) 0.8708(4)
C14_8 C 0.4690(3) 0.59852(17) 0.6859(8)
C15_8 C 0.49264(16) 0.68728(19) 0.8382(4)
C16_8 C 0.51752(17) 0.81890(17) 0.8204(5)
H10_8 H 0.5403 0.8339 0.8061
C17_8 C 0.5490(2) 0.7629(3) 0.7365(7)
H11_8 H 0.5395 0.7461 0.6851
H12_8 H 0.5642 0.7847 0.7098
H13_8 H 0.5657 0.7476 0.7793
C18_8 C 0.5123(3) 0.6940(4) 0.9327(5)
H14_8 H 0.4918 0.6995 0.9795
H15_8 H 0.5271 0.6707 0.9523
H16_8 H 0.5302 0.7165 0.9284
H33_6 H 0.58096 0.885377 0.956413
H39_9 H 0.511923 0.977362 0.706841
H33_7 H 0.114623 0.41904 0.0435873
H39_10 H 0.0226382 0.488077 0.293159
H40_10 H 0.977518 0.484765 0.329015
H33_8 H 0.385377 0.0809599 0.0435873
H39_11 H 0.477362 0.0119233 0.293159
H40_11 H 0.522482 0.0152348 0.329015
H39_12 H 0.0119233 0.0226382 0.793159
H40_12 H 0.0152348 0.977518 0.829015
loop_
_geom_bond_atom_site_label_1
_geom_bond_atom_site_label_2
_geom_bond_site_symmetry_1
_geom_bond_site_symmetry_2
Zr1 O2 1_555 1_555
Zr2 O4 1_555 1_555
Zr3 O1 1_555 1_555
O2 C12 1_555 1_555
O3 Zr3 1_555 1_555
O4 Zr1 1_555 1_555
O5 Zr1 1_555 1_555
O6 C14 1_555 1_555
O7 Zr3 1_555 1_555
O8 Zr2 1_555 1_555
C1 C2 1_555 1_555
O9 C14 1_555 1_555
C2 H1 1_555 1_555
H2 C2 1_555 1_555
H3 C2 1_555 1_555
C3 C5 1_555 1_555
C4 C1 1_555 1_555
H4 C4 1_555 1_555
C5 C9 1_555 1_555
C6 H5 1_555 1_555
C7 C1 1_555 1_555
C8 C7 1_555 1_555
O10 Zr2 1_555 1_555
C9 H6 1_555 1_555
H7 C9 1_555 1_555
H8 C9 1_555 1_555
C10 C5 1_555 1_555
H9 C10 1_555 1_555
C11 C6 1_555 1_555
C12 O7 1_555 1_555
C13 C4 1_555 1_555
C14 C11 1_555 1_555
C15 C3 1_555 1_555
C16 C8 1_555 1_555
H10 C16 1_555 1_555
C17 C8 1_555 1_555
H11 C17 1_555 1_555
H12 C17 1_555 1_555
H13 C17 1_555 1_555
C18 C15 1_555 1_555
H14 C18 1_555 1_555
H15 C18 1_555 1_555
H16 C18 1_555 1_555
O11 Zr1 1_555 1_555
O12 Zr1 1_555 1_555
O13 Zr1 1_555 1_555
O14 C32 1_555 1_555
O15 C30 1_555 1_555
C19 C20 1_555 1_555
O16 C32 1_555 1_555
C20 H17 1_555 1_555
H18 C20 1_555 1_555
H19 C20 1_555 1_555
C21 C23 1_555 1_555
C22 C19 1_555 1_555
H20 C22 1_555 1_555
C23 C27 1_555 1_555
C24 H21 1_555 1_555
C25 C19 1_555 1_555
C26 C25 1_555 1_555
C27 H22 1_555 1_555
H23 C27 1_555 1_555
H24 C27 1_555 1_555
C28 C23 1_555 1_555
H25 C28 1_555 1_555
C29 C24 1_555 1_555
C30 O11 1_555 1_555
C31 C22 1_555 1_555
C32 C29 1_555 1_555
C33 C21 1_555 1_555
C34 C26 1_555 1_555
H26 C34 1_555 1_555
C35 C26 1_555 1_555
H27 C35 1_555 1_555
H28 C35 1_555 1_555
H29 C35 1_555 1_555
C36 C33 1_555 1_555
H30 C36 1_555 1_555
H31 C36 1_555 1_555
H32 C36 1_555 1_555
Zr4_2 O6 1_555 1_555
Zr5 O14 1_555 1_555
Zr6 O16 1_555 1_555
Zr7 O9 1_555 1_555
Zr8 O12 1_555 1_555
Zr9 O4 1_555 1_555
O17 Zr3 1_555 1_555
O18 Zr2 1_555 1_555
O19 Zr2 1_555 1_555
O20 Zr1 1_555 1_555
O21 Zr1 1_555 1_555
O22 Zr3 1_555 1_555
O23 Zr2 1_555 1_555
O24 Zr2 1_555 1_555
Zr2 O5 1_555 1_555
Zr3 O5 1_555 1_555
Zr3 O12 1_555 1_555
Zr3 O19 1_555 1_555
C3 C7 1_555 1_555
C6 C15 1_555 1_555
C10 C11 1_555 1_555
C12 C13 1_555 1_555
C13 C16 1_555 1_555
O13 Zr8 1_555 1_555
O13 Zr9 1_555 1_555
O15 Zr9 1_555 1_555
C21 C25 1_555 1_555
C24 C33 1_555 1_555
C28 C29 1_555 1_555
C30 C31 1_555 1_555
C31 C34 1_555 1_555
Zr8 O17 1_555 1_555
Zr9 O18 1_555 1_555
Zr3_2 O1_2 1_555 1_555
O3_2 Zr3_2 1_555 1_555
O7_2 Zr3_2 1_555 1_555
C16_2 C8_2 1_555 1_555
H10_2 C16_2 1_555 1_555
C17_2 C8_2 1_555 1_555
H11_2 C17_2 1_555 1_555
H12_2 C17_2 1_555 1_555
H13_2 C17_2 1_555 1_555
H15_2 C18_2 1_555 1_555
H16_2 C18_2 1_555 1_555
O22_2 Zr3_2 1_555 1_555
Zr3_2 O19_2 1_555 1_555
O1_2 H33 1_555 1_555
Zr7 O12_2 1_555 1_555
Zr7 O17_2 1_555 1_555
Zr1_2 O2_2 1_555 1_555
Zr2_2 O4_2 1_555 1_555
O2_2 C12_2 1_555 1_555
O4_2 Zr1_2 1_555 1_555
O5_2 Zr1_2 1_555 1_555
O6_2 C14_2 1_555 1_555
O8_2 Zr2_2 1_555 1_555
C1_2 C2_2 1_555 1_555
O9_2 C14_2 1_555 1_555
C2_2 H1_2 1_555 1_555
H2_2 C2_2 1_555 1_555
H3_2 C2_2 1_555 1_555
C3_2 C5_2 1_555 1_555
C4_2 C1_2 1_555 1_555
H4_2 C4_2 1_555 1_555
C5_2 C9_2 1_555 1_555
C7_2 C1_2 1_555 1_555
O10_2 Zr2_2 1_555 1_555
C9_2 H6_2 1_555 1_555
H7_2 C9_2 1_555 1_555
H8_2 C9_2 1_555 1_555
C10_2 C5_2 1_555 1_555
H9_2 C10_2 1_555 1_555
C11_2 C6_2 1_555 1_555
C13_2 C4_2 1_555 1_555
C14_2 C11_2 1_555 1_555
C15_2 C3_2 1_555 1_555
Zr4_3 O6_2 1_555 1_555
O18_2 Zr2_2 1_555 1_555
O20_2 Zr1_2 1_555 1_555
O24_2 Zr2_2 1_555 1_555
Zr2_2 O5_2 1_555 1_555
C3_2 C7_2 1_555 1_555
C6_2 C15_2 1_555 1_555
C10_2 C11_2 1_555 1_555
C12_2 C13_2 1_555 1_555
O11_2 Zr1_3 1_555 1_555
O13_2 Zr1_3 1_555 1_555
O14_2 C32_2 1_555 1_555
O15_2 C30_2 1_555 1_555
C19_2 C20_2 1_555 1_555
O23 C32_2 1_555 1_555
C20_2 H17_2 1_555 1_555
H18_2 C20_2 1_555 1_555
H19_2 C20_2 1_555 1_555
C21_2 C23_2 1_555 1_555
C22_2 C19_2 1_555 1_555
H20_2 C22_2 1_555 1_555
C23_2 C27_2 1_555 1_555
C24_2 H21_2 1_555 1_555
C25_2 C19_2 1_555 1_555
C26_2 C25_2 1_555 1_555
C27_2 H22_2 1_555 1_555
H23_2 C27_2 1_555 1_555
H24_2 C27_2 1_555 1_555
C28_2 C23_2 1_555 1_555
H25_2 C28_2 1_555 1_555
C29_2 C24_2 1_555 1_555
C30_2 O11_2 1_555 1_555
C31_2 C22_2 1_555 1_555
C32_2 C29_2 1_555 1_555
C33_2 C21_2 1_555 1_555
C34_2 C26_2 1_555 1_555
H26_2 C34_2 1_555 1_555
C35_2 C26_2 1_555 1_555
H27_2 C35_2 1_555 1_555
H28_2 C35_2 1_555 1_555
H29_2 C35_2 1_555 1_555
C36_2 C33_2 1_555 1_555
H30_2 C36_2 1_555 1_555
H31_2 C36_2 1_555 1_555
H32_2 C36_2 1_555 1_555
Zr5_3 O14_2 1_555 1_555
O21_2 Zr1_3 1_555 1_555
O13_2 Zr9_2 1_555 1_555
O15_2 Zr9_2 1_555 1_555
C21_2 C25_2 1_555 1_555
C24_2 C33_2 1_555 1_555
C28_2 C29_2 1_555 1_555
C30_2 C31_2 1_555 1_555
C31_2 C34_2 1_555 1_555
Zr3_3 O1_3 1_555 1_555
O3_3 Zr3_3 1_555 1_555
O7_3 Zr3_3 1_555 1_555
C16_3 C8_3 1_555 1_555
H10_3 C16_3 1_555 1_555
C17_3 C8_3 1_555 1_555
H11_3 C17_3 1_555 1_555
H12_3 C17_3 1_555 1_555
H13_3 C17_3 1_555 1_555
H15_3 C18_3 1_555 1_555
H16_3 C18_3 1_555 1_555
Zr7_2 O12_3 1_555 1_555
O17_3 Zr3_3 1_555 1_555
O22_3 Zr3_3 1_555 1_555
Zr3_3 O12_3 1_555 1_555
Zr7_2 O17_3 1_555 1_555
Zr1_4 O2_3 1_555 1_555
O2_3 C12_3 1_555 1_555
O5_3 Zr1_4 1_555 1_555
O6_3 C14_3 1_555 1_555
C1_3 C2_3 1_555 1_555
O9_3 C14_3 1_555 1_555
C2_3 H1_3 1_555 1_555
H2_3 C2_3 1_555 1_555
H3_3 C2_3 1_555 1_555
C3_3 C5_3 1_555 1_555
C4_3 C1_3 1_555 1_555
H4_3 C4_3 1_555 1_555
C5_3 C9_3 1_555 1_555
C7_3 C1_3 1_555 1_555
C9_3 H6_3 1_555 1_555
H7_3 C9_3 1_555 1_555
H8_3 C9_3 1_555 1_555
C10_3 C5_3 1_555 1_555
H9_3 C10_3 1_555 1_555
C11_3 C6_3 1_555 1_555
C13_3 C4_3 1_555 1_555
C14_3 C11_3 1_555 1_555
C15_3 C3_3 1_555 1_555
O11_3 Zr1_4 1_555 1_555
O13_3 Zr1_4 1_555 1_555
O14_3 C32_3 1_555 1_555
C19_3 C20_3 1_555 1_555
O23_2 C32_3 1_555 1_555
C20_3 H17_3 1_555 1_555
H18_3 C20_3 1_555 1_555
H19_3 C20_3 1_555 1_555
C21_3 C23_3 1_555 1_555
C22_3 C19_3 1_555 1_555
H20_3 C22_3 1_555 1_555
C23_3 C27_3 1_555 1_555
C25_3 C19_3 1_555 1_555
C27_3 H22_3 1_555 1_555
H23_3 C27_3 1_555 1_555
H24_3 C27_3 1_555 1_555
C28_3 C23_3 1_555 1_555
H25_3 C28_3 1_555 1_555
C29_3 C24_3 1_555 1_555
C30_3 O11_3 1_555 1_555
C31_3 C22_3 1_555 1_555
C32_3 C29_3 1_555 1_555
C33_3 C21_3 1_555 1_555
Zr5_2 O6_3 1_555 1_555
Zr4 O14_3 1_555 1_555
O20_3 Zr1_4 1_555 1_555
O21_3 Zr1_4 1_555 1_555
C3_3 C7_3 1_555 1_555
C6_3 C15_3 1_555 1_555
C10_3 C11_3 1_555 1_555
C12_3 C13_3 1_555 1_555
C21_3 C25_3 1_555 1_555
C24_3 C33_3 1_555 1_555
C28_3 C29_3 1_555 1_555
C30_3 C31_3 1_555 1_555
Zr2_3 O4_3 1_555 1_555
O8_3 Zr2_3 1_555 1_555
O10_3 Zr2_3 1_555 1_555
C34_3 C26_3 1_555 1_555
H26_3 C34_3 1_555 1_555
C35_3 C26_3 1_555 1_555
H27_3 C35_3 1_555 1_555
H28_3 C35_3 1_555 1_555
H29_3 C35_3 1_555 1_555
H31_3 C36_3 1_555 1_555
H32_3 C36_3 1_555 1_555
Zr9_3 O4_3 1_555 1_555
O18_3 Zr2_3 1_555 1_555
O15_3 Zr9_3 1_555 1_555
Zr9_3 O18_3 1_555 1_555
Zr1_5 O2_4 1_555 1_555
Zr3_4 O1_4 1_555 1_555
O2_4 C12_4 1_555 1_555
O3_4 Zr3_4 1_555 1_555
O5_4 Zr1_5 1_555 1_555
O6_4 C14_4 1_555 1_555
O7_4 Zr3_4 1_555 1_555
C1_4 C2_4 1_555 1_555
O9_4 C14_4 1_555 1_555
C2_4 H1_4 1_555 1_555
H2_4 C2_4 1_555 1_555
H3_4 C2_4 1_555 1_555
C3_4 C5_4 1_555 1_555
C4_4 C1_4 1_555 1_555
H4_4 C4_4 1_555 1_555
C5_4 C9_4 1_555 1_555
C6_4 H5_4 1_555 1_555
C7_4 C1_4 1_555 1_555
C8_4 C7_4 1_555 1_555
C9_4 H6_4 1_555 1_555
H7_4 C9_4 1_555 1_555
H8_4 C9_4 1_555 1_555
C10_4 C5_4 1_555 1_555
H9_4 C10_4 1_555 1_555
C11_4 C6_4 1_555 1_555
C12_4 O7_4 1_555 1_555
C13_4 C4_4 1_555 1_555
C14_4 C11_4 1_555 1_555
C15_4 C3_4 1_555 1_555
C16_4 C8_4 1_555 1_555
H10_4 C16_4 1_555 1_555
C17_4 C8_4 1_555 1_555
H11_4 C17_4 1_555 1_555
H12_4 C17_4 1_555 1_555
H13_4 C17_4 1_555 1_555
C18_4 C15_4 1_555 1_555
H14_4 C18_4 1_555 1_555
H15_4 C18_4 1_555 1_555
H16_4 C18_4 1_555 1_555
Zr5_3 O6_4 1_555 1_555
Zr8 O9_4 1_555 1_555
O20_4 Zr1_5 1_555 1_555
O22_4 Zr3_4 1_555 1_555
Zr3_4 O5_4 1_555 1_555
C3_4 C7_4 1_555 1_555
C6_4 C15_4 1_555 1_555
C10_4 C11_4 1_555 1_555
C12_4 C13_4 1_555 1_555
C13_4 C16_4 1_555 1_555
O1_4 H33_2 1_555 1_555
O11_4 Zr1_6 1_555 1_555
O12_4 Zr1_6 1_555 1_555
O13_4 Zr1_6 1_555 1_555
O14_4 C32_4 1_555 1_555
C19_4 C20_4 1_555 1_555
O23_3 C32_4 1_555 1_555
C20_4 H17_4 1_555 1_555
H18_4 C20_4 1_555 1_555
H19_4 C20_4 1_555 1_555
C21_4 C23_4 1_555 1_555
C22_4 C19_4 1_555 1_555
H20_4 C22_4 1_555 1_555
C23_4 C27_4 1_555 1_555
C25_4 C19_4 1_555 1_555
C27_4 H22_4 1_555 1_555
H23_4 C27_4 1_555 1_555
H24_4 C27_4 1_555 1_555
C28_4 C23_4 1_555 1_555
H25_4 C28_4 1_555 1_555
C29_4 C24_4 1_555 1_555
C30_4 O11_4 1_555 1_555
C31_4 C22_4 1_555 1_555
C32_4 C29_4 1_555 1_555
C33_4 C21_4 1_555 1_555
Zr4_3 O14_4 1_555 1_555
Zr7_3 O12_4 1_555 1_555
O21_4 Zr1_6 1_555 1_555
O13_4 Zr7_3 1_555 1_555
C21_4 C25_4 1_555 1_555
C24_4 C33_4 1_555 1_555
C28_4 C29_4 1_555 1_555
C30_4 C31_4 1_555 1_555
Zr7_3 O17_4 1_555 1_555
Zr6 O4_4 1_555 1_555
O8_4 Zr6 1_555 1_555
O10_4 Zr6 1_555 1_555
O18_4 Zr6 1_555 1_555
O19_4 Zr6 1_555 1_555
O10_4 H40_3 1_555 1_555
C34_4 C26_4 1_555 1_555
H26_4 C34_4 1_555 1_555
C35_4 C26_4 1_555 1_555
H27_4 C35_4 1_555 1_555
H28_4 C35_4 1_555 1_555
H29_4 C35_4 1_555 1_555
H31_4 C36_4 1_555 1_555
H32_4 C36_4 1_555 1_555
O15_4 Zr9_4 1_555 1_555
O8_5 Zr7 1_555 1_555
O10_5 Zr7 1_555 1_555
O19_5 Zr7 1_555 1_555
O10_5 H40_4 1_555 1_555
Zr9_2 O1_5 1_555 1_555
O3_5 Zr9_2 1_555 1_555
O22_5 Zr9_2 1_555 1_555
O1_5 H33_3 1_555 1_555
O8_6 Zr7_3 1_555 1_555
O10_6 Zr7_3 1_555 1_555
O24_6 Zr7_3 1_555 1_555
Zr9_4 O1_6 1_555 1_555
O3_6 Zr9_4 1_555 1_555
O22_6 Zr9_4 1_555 1_555
Zr9_4 O19_6 1_555 1_555
O1_6 H33_4 1_555 1_555
O8_7 Zr7_2 1_555 1_555
O10_7 Zr7_2 1_555 1_555
Zr9_3 O1_7 1_555 1_555
O3_7 Zr9_3 1_555 1_555
O22_7 Zr9_3 1_555 1_555
Zr9 O1_8 1_555 1_555
O3_8 Zr9 1_555 1_555
O8_8 Zr8 1_555 1_555
O10_8 Zr8 1_555 1_555
O19_8 Zr8 1_555 1_555
O22_8 Zr9 1_555 1_555
O24_8 Zr8 1_555 1_555
Zr9 O19_8 1_555 1_555
Zr5_3 O2_5 1_555 1_555
O2_5 C12_5 1_555 1_555
O17 Zr5_3 1_555 1_555
O19_8 Zr5_3 1_555 1_555
O20_2 C14_5 1_555 1_555
C1_5 C2_5 1_555 1_555
O24_2 C14_5 1_555 1_555
C2_5 H1_5 1_555 1_555
H2_5 C2_5 1_555 1_555
H3_5 C2_5 1_555 1_555
C3_5 C5_5 1_555 1_555
C4_5 C1_5 1_555 1_555
H4_5 C4_5 1_555 1_555
C5_5 C9_5 1_555 1_555
C6_5 H5_5 1_555 1_555
C7_5 C1_5 1_555 1_555
C8_5 C7_5 1_555 1_555
C9_5 H6_5 1_555 1_555
H7_5 C9_5 1_555 1_555
H8_5 C9_5 1_555 1_555
C10_5 C5_5 1_555 1_555
H9_5 C10_5 1_555 1_555
C11_5 C6_5 1_555 1_555
C12_5 O22_8 1_555 1_555
C13_5 C4_5 1_555 1_555
C14_5 C11_5 1_555 1_555
C15_5 C3_5 1_555 1_555
C16_5 C8_5 1_555 1_555
H10_5 C16_5 1_555 1_555
C17_5 C8_5 1_555 1_555
H11_5 C17_5 1_555 1_555
H12_5 C17_5 1_555 1_555
H13_5 C17_5 1_555 1_555
C18_5 C15_5 1_555 1_555
H14_5 C18_5 1_555 1_555
H15_5 C18_5 1_555 1_555
H16_5 C18_5 1_555 1_555
O11_5 Zr5_3 1_555 1_555
O18 Zr5_3 1_555 1_555
O19 Zr5_3 1_555 1_555
O21_4 C32_5 1_555 1_555
O22 C30_5 1_555 1_555
C19_5 C20_5 1_555 1_555
O24_6 C32_5 1_555 1_555
C20_5 H17_5 1_555 1_555
H18_5 C20_5 1_555 1_555
H19_5 C20_5 1_555 1_555
C21_5 C23_5 1_555 1_555
C22_5 C19_5 1_555 1_555
H20_5 C22_5 1_555 1_555
C23_5 C27_5 1_555 1_555
C24_5 H21_5 1_555 1_555
C25_5 C19_5 1_555 1_555
C26_5 C25_5 1_555 1_555
C27_5 H22_5 1_555 1_555
H23_5 C27_5 1_555 1_555
H24_5 C27_5 1_555 1_555
C28_5 C23_5 1_555 1_555
H25_5 C28_5 1_555 1_555
C29_5 C24_5 1_555 1_555
C30_5 O11_5 1_555 1_555
C31_5 C22_5 1_555 1_555
C32_5 C29_5 1_555 1_555
C33_5 C21_5 1_555 1_555
C34_5 C26_5 1_555 1_555
H26_5 C34_5 1_555 1_555
C35_5 C26_5 1_555 1_555
H27_5 C35_5 1_555 1_555
H28_5 C35_5 1_555 1_555
H29_5 C35_5 1_555 1_555
C36_5 C33_5 1_555 1_555
H30_5 C36_5 1_555 1_555
H31_5 C36_5 1_555 1_555
H32_5 C36_5 1_555 1_555
C3_5 C7_5 1_555 1_555
C6_5 C15_5 1_555 1_555
C10_5 C11_5 1_555 1_555
C12_5 C13_5 1_555 1_555
C13_5 C16_5 1_555 1_555
C21_5 C25_5 1_555 1_555
C24_5 C33_5 1_555 1_555
C28_5 C29_5 1_555 1_555
C30_5 C31_5 1_555 1_555
C31_5 C34_5 1_555 1_555
O11_6 Zr4 1_555 1_555
O19_2 Zr4 1_555 1_555
O21 C32_6 1_555 1_555
O22_2 C30_6 1_555 1_555
C19_6 C20_6 1_555 1_555
O24_8 C32_6 1_555 1_555
C20_6 H17_6 1_555 1_555
H18_6 C20_6 1_555 1_555
H19_6 C20_6 1_555 1_555
C21_6 C23_6 1_555 1_555
C22_6 C19_6 1_555 1_555
H20_6 C22_6 1_555 1_555
C23_6 C27_6 1_555 1_555
C24_6 H21_6 1_555 1_555
C25_6 C19_6 1_555 1_555
C26_6 C25_6 1_555 1_555
C27_6 H22_6 1_555 1_555
H23_6 C27_6 1_555 1_555
H24_6 C27_6 1_555 1_555
C28_6 C23_6 1_555 1_555
H25_6 C28_6 1_555 1_555
C29_6 C24_6 1_555 1_555
C30_6 O11_6 1_555 1_555
C31_6 C22_6 1_555 1_555
C32_6 C29_6 1_555 1_555
C33_6 C21_6 1_555 1_555
C34_6 C26_6 1_555 1_555
H26_6 C34_6 1_555 1_555
C35_6 C26_6 1_555 1_555
H27_6 C35_6 1_555 1_555
H28_6 C35_6 1_555 1_555
H29_6 C35_6 1_555 1_555
C36_6 C33_6 1_555 1_555
H30_6 C36_6 1_555 1_555
H31_6 C36_6 1_555 1_555
H32_6 C36_6 1_555 1_555
C21_6 C25_6 1_555 1_555
C24_6 C33_6 1_555 1_555
C28_6 C29_6 1_555 1_555
C30_6 C31_6 1_555 1_555
C31_6 C34_6 1_555 1_555
Zr4_2 O2_6 1_555 1_555
O2_6 C12_6 1_555 1_555
O17_2 Zr4_2 1_555 1_555
O19_5 Zr4_2 1_555 1_555
O20_3 C14_6 1_555 1_555
C1_6 C2_6 1_555 1_555
O24_3 C14_6 1_555 1_555
C2_6 H1_6 1_555 1_555
H2_6 C2_6 1_555 1_555
H3_6 C2_6 1_555 1_555
C3_6 C5_6 1_555 1_555
C4_6 C1_6 1_555 1_555
H4_6 C4_6 1_555 1_555
C5_6 C9_6 1_555 1_555
C7_6 C1_6 1_555 1_555
C9_6 H6_6 1_555 1_555
H7_6 C9_6 1_555 1_555
H8_6 C9_6 1_555 1_555
C10_6 C5_6 1_555 1_555
H9_6 C10_6 1_555 1_555
C11_6 C6_6 1_555 1_555
C13_6 C4_6 1_555 1_555
C14_6 C11_6 1_555 1_555
C15_6 C3_6 1_555 1_555
C3_6 C7_6 1_555 1_555
C6_6 C15_6 1_555 1_555
C10_6 C11_6 1_555 1_555
C12_6 C13_6 1_555 1_555
C16_6 C8_6 1_555 1_555
H10_6 C16_6 1_555 1_555
C17_6 C8_6 1_555 1_555
H11_6 C17_6 1_555 1_555
H12_6 C17_6 1_555 1_555
H13_6 C17_6 1_555 1_555
H15_6 C18_6 1_555 1_555
H16_6 C18_6 1_555 1_555
O1_5 H33_5 1_555 1_555
C34_7 C26_7 1_555 1_555
H26_7 C34_7 1_555 1_555
C35_7 C26_7 1_555 1_555
H27_7 C35_7 1_555 1_555
H28_7 C35_7 1_555 1_555
H29_7 C35_7 1_555 1_555
H31_7 C36_7 1_555 1_555
H32_7 C36_7 1_555 1_555
Zr4_3 O2_7 1_555 1_555
O2_7 C12_7 1_555 1_555
O19_7 Zr4_3 1_555 1_555
O20_4 C14_7 1_555 1_555
C1_7 C2_7 1_555 1_555
O24_4 C14_7 1_555 1_555
C2_7 H1_7 1_555 1_555
H2_7 C2_7 1_555 1_555
H3_7 C2_7 1_555 1_555
C3_7 C5_7 1_555 1_555
C4_7 C1_7 1_555 1_555
H4_7 C4_7 1_555 1_555
C5_7 C9_7 1_555 1_555
C7_7 C1_7 1_555 1_555
C9_7 H6_7 1_555 1_555
H7_7 C9_7 1_555 1_555
H8_7 C9_7 1_555 1_555
C10_7 C5_7 1_555 1_555
H9_7 C10_7 1_555 1_555
C11_7 C6_7 1_555 1_555
C13_7 C4_7 1_555 1_555
C14_7 C11_7 1_555 1_555
C15_7 C3_7 1_555 1_555
O11_7 Zr4_3 1_555 1_555
O19_3 Zr4_3 1_555 1_555
O21_2 C32_7 1_555 1_555
C19_7 C20_7 1_555 1_555
O24_5 C32_7 1_555 1_555
C20_7 H17_7 1_555 1_555
H18_7 C20_7 1_555 1_555
H19_7 C20_7 1_555 1_555
C21_7 C23_7 1_555 1_555
C22_7 C19_7 1_555 1_555
H20_7 C22_7 1_555 1_555
C23_7 C27_7 1_555 1_555
C25_7 C19_7 1_555 1_555
C27_7 H22_7 1_555 1_555
H23_7 C27_7 1_555 1_555
H24_7 C27_7 1_555 1_555
C28_7 C23_7 1_555 1_555
H25_7 C28_7 1_555 1_555
C29_7 C24_7 1_555 1_555
C30_7 O11_7 1_555 1_555
C31_7 C22_7 1_555 1_555
C32_7 C29_7 1_555 1_555
C33_7 C21_7 1_555 1_555
C3_7 C7_7 1_555 1_555
C6_7 C15_7 1_555 1_555
C10_7 C11_7 1_555 1_555
C12_7 C13_7 1_555 1_555
C21_7 C25_7 1_555 1_555
C24_7 C33_7 1_555 1_555
C28_7 C29_7 1_555 1_555
C30_7 C31_7 1_555 1_555
C16_7 C8_7 1_555 1_555
H10_7 C16_7 1_555 1_555
C17_7 C8_7 1_555 1_555
H11_7 C17_7 1_555 1_555
H12_7 C17_7 1_555 1_555
H13_7 C17_7 1_555 1_555
H15_7 C18_7 1_555 1_555
H16_7 C18_7 1_555 1_555
C34_8 C26_8 1_555 1_555
H26_8 C34_8 1_555 1_555
C35_8 C26_8 1_555 1_555
H27_8 C35_8 1_555 1_555
H28_8 C35_8 1_555 1_555
H29_8 C35_8 1_555 1_555
H31_8 C36_8 1_555 1_555
H32_8 C36_8 1_555 1_555
O10_6 H40_9 1_555 1_555
O11_8 Zr5 1_555 1_555
O18_4 Zr5 1_555 1_555
O19_4 Zr5 1_555 1_555
O21_3 C32_8 1_555 1_555
C19_8 C20_8 1_555 1_555
O24_7 C32_8 1_555 1_555
C20_8 H17_8 1_555 1_555
H18_8 C20_8 1_555 1_555
H19_8 C20_8 1_555 1_555
C21_8 C23_8 1_555 1_555
C22_8 C19_8 1_555 1_555
H20_8 C22_8 1_555 1_555
C23_8 C27_8 1_555 1_555
C25_8 C19_8 1_555 1_555
C27_8 H22_8 1_555 1_555
H23_8 C27_8 1_555 1_555
H24_8 C27_8 1_555 1_555
C28_8 C23_8 1_555 1_555
H25_8 C28_8 1_555 1_555
C29_8 C24_8 1_555 1_555
C30_8 O11_8 1_555 1_555
C31_8 C22_8 1_555 1_555
C32_8 C29_8 1_555 1_555
C33_8 C21_8 1_555 1_555
C21_8 C25_8 1_555 1_555
C24_8 C33_8 1_555 1_555
C28_8 C29_8 1_555 1_555
C30_8 C31_8 1_555 1_555
Zr5_2 O2_8 1_555 1_555
O2_8 C12_8 1_555 1_555
O19_6 Zr5_2 1_555 1_555
O20 C14_8 1_555 1_555
C1_8 C2_8 1_555 1_555
O24 C14_8 1_555 1_555
C2_8 H1_8 1_555 1_555
H2_8 C2_8 1_555 1_555
H3_8 C2_8 1_555 1_555
C3_8 C5_8 1_555 1_555
C4_8 C1_8 1_555 1_555
H4_8 C4_8 1_555 1_555
C5_8 C9_8 1_555 1_555
C6_8 H5_8 1_555 1_555
C7_8 C1_8 1_555 1_555
C8_8 C7_8 1_555 1_555
C9_8 H6_8 1_555 1_555
H7_8 C9_8 1_555 1_555
H8_8 C9_8 1_555 1_555
C10_8 C5_8 1_555 1_555
H9_8 C10_8 1_555 1_555
C11_8 C6_8 1_555 1_555
C12_8 O22_6 1_555 1_555
C13_8 C4_8 1_555 1_555
C14_8 C11_8 1_555 1_555
C15_8 C3_8 1_555 1_555
C16_8 C8_8 1_555 1_555
H10_8 C16_8 1_555 1_555
C17_8 C8_8 1_555 1_555
H11_8 C17_8 1_555 1_555
H12_8 C17_8 1_555 1_555
H13_8 C17_8 1_555 1_555
C18_8 C15_8 1_555 1_555
H14_8 C18_8 1_555 1_555
H15_8 C18_8 1_555 1_555
H16_8 C18_8 1_555 1_555
C3_8 C7_8 1_555 1_555
C6_8 C15_8 1_555 1_555
C10_8 C11_8 1_555 1_555
C12_8 C13_8 1_555 1_555
C13_8 C16_8 1_555 1_555
O1_6 H33_6 1_555 1_555
O1_2 H33_7 1_555 1_555
O10_2 H40_10 1_555 1_555
O1_4 H33_8 1_555 1_555

#END
