
###############################################################################
#
# This file contains modified crystal structure data generated from the
# MOF subset of the Cambridge Structural Database (CSD) v543 
# hosted by the Cambridge Crystallographic Data Centre (CCDC).
#
# This work is licensed under the Creative Commons
# Attribution-NonCommercial-ShareAlike 4.0 International License.
# To view a copy of this license, visit
# http://creativecommons.org/licenses/by-nc-sa/4.0/
# or send a letter to
# Creative Commons, PO Box 1866, Mountain View, CA 94042, USA.
#
# CIF created using the CSD Python API on 29 September 2022
# The structure has been converted into the P1 space group
# The structure has a 3D framework
# The original CSD entry IXEJIG is in the tetragonal crystal system
# The framework has been calculated to contain at least 10.0% void space
# The void calculation uses a probe of radius 1.32A, grid spacing 0.4
# H atom positions have been added when not included in the experimental data
# Generated hydrogen atom positions removed from atoms on special positions
#
###############################################################################

data_IXEJIG
_chemical_formula_moiety         '(C256 H312 O110 Zr22)n'
_symmetry_cell_setting           triclinic
_symmetry_space_group_name_H-M   'P 1'
_symmetry_Int_Tables_number      1
_space_group_name_Hall           'P 1'
loop_
_symmetry_equiv_pos_site_id
_symmetry_equiv_pos_as_xyz
1 x,y,z
_cell_length_a                   35.126(8)
_cell_length_b                   35.126
_cell_length_c                   11.239(3)
_cell_angle_alpha                90
_cell_angle_beta                 90
_cell_angle_gamma                90
_cell_volume                     13867.1
loop_
_atom_site_label
_atom_site_type_symbol
_atom_site_fract_x
_atom_site_fract_y
_atom_site_fract_z
Zr4 Zr 0.950575(19) 0.450575(19) 0.0000
Zr6 Zr 0.450575(19) 0.950575(19) 0.0000
Zr1 Zr 0.450575(19) 0.549425(19) 0.5000
Zr2 Zr 0.54369(2) 0.54369(2) 0.61240(12)
Zr3 Zr 0.52536(2) 0.52536(2) 0.30905(12)
O1 O 0.55258(18) 0.55258(18) 0.8027(10)
O2 O 0.60433(14) 0.45993(15) 0.5844(6)
O3 O 0.46695(16) 0.51497(15) 0.3475(7)
O4 O 0.60216(15) 0.51960(17) 0.6553(6)
O5 O 0.90931(15) 0.44784(15) 0.8535(6)
O6 O 0.51103(16) 0.5578(2) 0.4618(6)
O7 O 0.58626(16) 0.58626(16) 0.5490(10)
C1 C 0.79456(11) 0.46079(11) 0.8048(4)
H1 H 0.7768 0.4508 0.8605
O8 O 0.92279(16) 0.49622(17) 0.7308(6)
O9 O 0.51400(19) 0.51400(19) 0.1248(9)
O10 O 0.57021(17) 0.57021(17) 0.2758(9)
C2 C 0.80752(11) 0.49421(16) 0.6221(4)
C3 C 0.83338(11) 0.45653(14) 0.8242(4)
H2 H 0.8422 0.4437 0.8932
C4 C 0.85932(11) 0.47112(14) 0.7425(4)
C5 C 0.71932(13) 0.45138(13) 0.6546(5)
H3 H 0.7322 0.4277 0.6489
C6 C 0.68032(12) 0.45324(12) 0.6345(5)
H4 H 0.6666 0.4308 0.6150
C7 C 0.66149(11) 0.48793(12) 0.6429(3)
C8 C 0.72065(13) 0.51888(13) 0.6915(5)
C9 C 0.68164(13) 0.52074(11) 0.6714(6)
H5 H 0.6688 0.5444 0.6771
C10 C 0.7979(3) 0.5123(4) 0.4993(13)
H6 H 0.7838 0.5360 0.5114
H7 H 0.7824 0.4945 0.4528
H8 H 0.8216 0.5177 0.4563
C11 C 0.84641(11) 0.48994(18) 0.6416(4)
H9 H 0.8641 0.4999 0.5858
C12 C 0.78166(11) 0.47965(10) 0.7036(3)
C13 C 0.9006(2) 0.4709(2) 0.7711(6)
C14 C 0.73950(10) 0.48419(15) 0.6830(3)
C15 C 0.6201(2) 0.48993(19) 0.6215(4)
C16 C 0.7420(4) 0.5570(4) 0.7234(14)
H10 H 0.7234 0.5775 0.7335
H11 H 0.7596 0.5636 0.6590
H12 H 0.7563 0.5535 0.7975
O11 O 0.48503(15) 0.53305(16) 0.6525(7)
O12 O 0.4422(2) 0.48897(16) 0.5382(6)
O13 O 0.45993(15) 0.60433(14) 0.5844(6)
O14 O 0.51960(17) 0.60216(15) 0.6553(6)
O15 O 0.44784(15) 0.90931(15) 0.8535(6)
C17 C 0.46079(11) 0.79456(11) 0.8048(4)
H13 H 0.4508 0.7768 0.8605
O16 O 0.49622(17) 0.92279(16) 0.7308(6)
C18 C 0.49421(16) 0.80752(11) 0.6221(4)
C19 C 0.45653(14) 0.83338(11) 0.8242(4)
H14 H 0.4437 0.8422 0.8932
C20 C 0.47112(14) 0.85932(11) 0.7425(4)
C21 C 0.45138(13) 0.71932(13) 0.6546(5)
H15 H 0.4277 0.7322 0.6489
C22 C 0.45324(12) 0.68032(12) 0.6345(5)
H16 H 0.4308 0.6666 0.6150
C23 C 0.48793(12) 0.66149(11) 0.6429(3)
C24 C 0.51888(13) 0.72065(13) 0.6915(5)
C25 C 0.52074(11) 0.68164(13) 0.6714(6)
H17 H 0.5444 0.6688 0.6771
C26 C 0.5123(4) 0.7979(3) 0.4993(13)
H18 H 0.5360 0.7838 0.5114
H19 H 0.4945 0.7824 0.4528
H20 H 0.5177 0.8216 0.4563
C27 C 0.48994(18) 0.84641(11) 0.6416(4)
H21 H 0.4999 0.8641 0.5858
C28 C 0.47965(10) 0.78166(11) 0.7036(3)
C29 C 0.4709(2) 0.9006(2) 0.7711(6)
C30 C 0.48419(15) 0.73950(10) 0.6830(3)
C31 C 0.48993(19) 0.6201(2) 0.6215(4)
C32 C 0.5570(4) 0.7420(4) 0.7234(14)
H22 H 0.5775 0.7234 0.7335
H23 H 0.5636 0.7596 0.6590
H24 H 0.5535 0.7563 0.7975
Zr4_2 Zr 0.950575(19) 0.450575(19) 1.0000
Zr5 Zr 0.549425(19) 0.450575(19) 0.5000
Zr6_2 Zr 0.450575(19) 0.950575(19) 1.0000
Zr7 Zr 0.45631(2) 0.45631(2) 0.38760(12)
Zr8 Zr 0.97464(2) 0.52536(2) 0.80905(12)
Zr9 Zr 0.52536(2) 0.97464(2) 0.80905(12)
Zr10 Zr 0.47464(2) 0.47464(2) 0.69095(12)
O17 O 0.39567(14) 0.54007(15) 0.4156(6)
O18 O 0.53305(16) 0.48503(15) 0.6525(7)
O19 O 0.51497(15) 0.46695(16) 0.3475(7)
O20 O 0.44784(15) 0.59069(15) 0.3535(6)
O21 O 0.40931(15) 0.55216(15) 0.6465(6)
O22 O 0.5578(2) 0.51103(16) 0.4618(6)
O23 O 0.49622(17) 0.57721(16) 0.2308(6)
O24 O 0.57721(16) 0.49622(17) 0.2308(6)
O2_2 O 0.04007(15) 0.60433(14) 0.0844(6)
O5_2 O 0.05216(15) 0.90931(15) 0.3535(6)
C1_2 C 0.03921(11) 0.79456(11) 0.3048(4)
H1_2 H 0.0492 0.7768 0.3605
O8_2 O 0.00378(17) 0.92279(16) 0.2308(6)
C2_2 C 0.00579(16) 0.80752(11) 0.1221(4)
C3_2 C 0.04347(14) 0.83338(11) 0.3242(4)
H2_2 H 0.0563 0.8422 0.3932
C4_2 C 0.02888(14) 0.85932(11) 0.2425(4)
C5_2 C 0.04862(13) 0.71932(13) 0.1546(5)
H3_2 H 0.0723 0.7322 0.1489
C6_2 C 0.04676(12) 0.68032(12) 0.1345(5)
H4_2 H 0.0692 0.6666 0.1150
C7_2 C 0.01207(12) 0.66149(11) 0.1429(3)
C11_2 C 0.01006(18) 0.84641(11) 0.1416(4)
H9_2 H 0.0001 0.8641 0.0858
C12_2 C 0.02035(10) 0.78166(11) 0.2036(3)
C13_2 C 0.0291(2) 0.9006(2) 0.2711(6)
C14_2 C 0.01581(15) 0.73950(10) 0.1830(3)
C15_2 C 0.01007(19) 0.6201(2) 0.1215(4)
O12_2 O 0.01103(16) 0.4422(2) 0.0382(6)
Zr4_3 Zr 0.049425(19) 0.950575(19) 0.5000
Zr5_2 Zr 0.049425(19) 0.549425(19) 0.0000
Zr10_2 Zr 0.02536(2) 0.47464(2) 0.19095(12)
O18_2 O 0.01497(15) 0.53305(16) 0.1525(7)
H7_2 H 0.0055 0.7824 0.9528
Zr5_3 Zr 0.049425(19) 0.549425(19) 1.0000
Zr7_2 Zr 0.04369(2) 0.45631(2) 0.88760(12)
O19_2 O 0.03305(16) 0.51497(15) 0.8475(7)
O24_2 O 0.00378(17) 0.57721(16) 0.7308(6)
Zr2_2 Zr 0.95631(2) 0.54369(2) 0.11240(12)
O1_2 O 0.94742(18) 0.55258(18) 0.3027(10)
O4_2 O 0.98040(17) 0.60216(15) 0.1553(6)
O7_2 O 0.91374(16) 0.58626(16) 0.0490(10)
C8_2 C 0.98112(13) 0.72065(13) 0.1915(5)
C9_2 C 0.97926(11) 0.68164(13) 0.1714(6)
H5_2 H 0.9556 0.6688 0.1771
H6_2 H 0.9640 0.7838 0.0114
C16_2 C 0.9430(4) 0.7420(4) 0.2234(14)
H10_2 H 0.9225 0.7234 0.2335
H11_2 H 0.9364 0.7596 0.1590
H12_2 H 0.9465 0.7563 0.2975
O11_2 O 0.96695(16) 0.48503(15) 0.1525(7)
O13_2 O 0.89567(14) 0.45993(15) 0.0844(6)
O14_2 O 0.89784(15) 0.51960(17) 0.1553(6)
O15_2 O 0.59069(15) 0.44784(15) 0.3535(6)
C17_2 C 0.70544(11) 0.46079(11) 0.3048(4)
H13_2 H 0.7232 0.4508 0.3605
C18_2 C 0.69248(11) 0.49421(16) 0.1221(4)
C19_2 C 0.66662(11) 0.45653(14) 0.3242(4)
H14_2 H 0.6578 0.4437 0.3932
C20_2 C 0.64068(11) 0.47112(14) 0.2425(4)
C21_2 C 0.78068(13) 0.45138(13) 0.1546(5)
H15_2 H 0.7678 0.4277 0.1489
C22_2 C 0.81968(12) 0.45324(12) 0.1345(5)
H16_2 H 0.8334 0.4308 0.1150
C23_2 C 0.83851(11) 0.48793(12) 0.1429(3)
C24_2 C 0.77935(13) 0.51888(13) 0.1915(5)
C25_2 C 0.81836(13) 0.52074(11) 0.1714(6)
H17_2 H 0.8312 0.5444 0.1771
H18_2 H 0.7162 0.5360 0.0114
C27_2 C 0.65359(11) 0.48994(18) 0.1416(4)
H21_2 H 0.6359 0.4999 0.0858
C28_2 C 0.71834(11) 0.47965(10) 0.2036(3)
C29_2 C 0.5994(2) 0.4709(2) 0.2711(6)
C30_2 C 0.76050(10) 0.48419(15) 0.1830(3)
C31_2 C 0.8799(2) 0.48993(19) 0.1215(4)
C32_2 C 0.7580(4) 0.5570(4) 0.2234(14)
H22_2 H 0.7766 0.5775 0.2335
H23_2 H 0.7404 0.5636 0.1590
H24_2 H 0.7437 0.5535 0.2975
Zr8_2 Zr 0.97464(2) 0.97464(2) 0.30905(12)
O21_2 O 0.94784(15) 0.40931(15) 0.1465(6)
H29 H 0.920738 0.611905 0.0790655
O3_2 O 0.98503(15) 0.46695(16) 0.8475(7)
O6_2 O 0.9422(2) 0.51103(16) 0.9618(6)
O9_2 O 0.98600(19) 0.51400(19) 0.6248(9)
O10_2 O 0.92979(17) 0.57021(17) 0.7758(9)
C10_2 C 0.9877(4) 0.7979(3) 0.9993(13)
H8_2 H 0.9823 0.8216 0.9563
C26_2 C 0.7021(3) 0.5123(4) 0.9993(13)
H19_2 H 0.7176 0.4945 0.9528
H20_2 H 0.6784 0.5177 0.9563
O17_2 O 0.95993(15) 0.39567(14) 0.9156(6)
O22_2 O 0.98897(16) 0.5578(2) 0.9618(6)
H30 H 0.913444 0.586556 0.960657
O12_3 O 0.0578(2) 0.01103(16) 0.5382(6)
Zr7_3 Zr 0.04369(2) 0.04369(2) 0.38760(12)
Zr10_3 Zr 0.02536(2) 0.02536(2) 0.69095(12)
O3_3 O 0.03305(16) 0.98503(15) 0.3475(7)
O11_3 O 0.01497(15) 0.96695(16) 0.6525(7)
O13_3 O 0.04007(15) 0.89567(14) 0.5844(6)
O15_3 O 0.05216(15) 0.59069(15) 0.8535(6)
C17_3 C 0.03921(11) 0.70544(11) 0.8048(4)
H13_3 H 0.0492 0.7232 0.8605
C18_3 C 0.00579(16) 0.69248(11) 0.6221(4)
C19_3 C 0.04347(14) 0.66662(11) 0.8242(4)
H14_3 H 0.0563 0.6578 0.8932
C20_3 C 0.02888(14) 0.64068(11) 0.7425(4)
C21_3 C 0.04862(13) 0.78068(13) 0.6546(5)
H15_3 H 0.0723 0.7678 0.6489
C22_3 C 0.04676(12) 0.81968(12) 0.6345(5)
H16_3 H 0.0692 0.8334 0.6150
C23_3 C 0.01207(12) 0.83851(11) 0.6429(3)
H19_3 H 0.0055 0.7176 0.4528
C27_3 C 0.01006(18) 0.65359(11) 0.6416(4)
H21_3 H 0.0001 0.6359 0.5858
C28_3 C 0.02035(10) 0.71834(11) 0.7036(3)
C29_3 C 0.0291(2) 0.5994(2) 0.7711(6)
C30_3 C 0.01581(15) 0.76050(10) 0.6830(3)
C31_3 C 0.01007(19) 0.8799(2) 0.6215(4)
O17_3 O 0.10433(14) 0.95993(15) 0.4156(6)
O21_3 O 0.09069(15) 0.94784(15) 0.6465(6)
H31 H 0.00525372 0.967657 0.0948234
Zr4_4 Zr 0.549425(19) 0.049425(19) 0.0000
O2_3 O 0.89567(14) 0.04007(15) 0.5844(6)
O5_3 O 0.59069(15) 0.05216(15) 0.8535(6)
C1_3 C 0.70544(11) 0.03921(11) 0.8048(4)
H1_3 H 0.7232 0.0492 0.8605
O8_3 O 0.57721(16) 0.00378(17) 0.7308(6)
C2_3 C 0.69248(11) 0.00579(16) 0.6221(4)
C3_3 C 0.66662(11) 0.04347(14) 0.8242(4)
H2_3 H 0.6578 0.0563 0.8932
C4_3 C 0.64068(11) 0.02888(14) 0.7425(4)
C5_3 C 0.78068(13) 0.04862(13) 0.6546(5)
H3_3 H 0.7678 0.0723 0.6489
C6_3 C 0.81968(12) 0.04676(12) 0.6345(5)
H4_3 H 0.8334 0.0692 0.6150
C7_3 C 0.83851(11) 0.01207(12) 0.6429(3)
H7_3 H 0.7176 0.0055 0.4528
C11_3 C 0.65359(11) 0.01006(18) 0.6416(4)
H9_3 H 0.6359 0.0001 0.5858
C12_3 C 0.71834(11) 0.02035(10) 0.7036(3)
C13_3 C 0.5994(2) 0.0291(2) 0.7711(6)
C14_3 C 0.76050(10) 0.01581(15) 0.6830(3)
C15_3 C 0.8799(2) 0.01007(19) 0.6215(4)
Zr4_5 Zr 0.549425(19) 0.049425(19) 1.0000
Zr5_4 Zr 0.950575(19) 0.049425(19) 0.5000
O18_3 O 0.96695(16) 0.01497(15) 0.6525(7)
O19_3 O 0.98503(15) 0.03305(16) 0.3475(7)
O24_3 O 0.92279(16) 0.00378(17) 0.2308(6)
Zr2_3 Zr 0.95631(2) 0.95631(2) 0.61240(12)
O1_3 O 0.94742(18) 0.94742(18) 0.8027(10)
O4_3 O 0.89784(15) 0.98040(17) 0.6553(6)
O6_3 O 0.98897(16) 0.9422(2) 0.4618(6)
O7_3 O 0.91374(16) 0.91374(16) 0.5490(10)
O9_3 O 0.98600(19) 0.98600(19) 0.1248(9)
O10_3 O 0.92979(17) 0.92979(17) 0.2758(9)
C8_3 C 0.77935(13) 0.98112(13) 0.6915(5)
C9_3 C 0.81836(13) 0.97926(11) 0.6714(6)
H5_3 H 0.8312 0.9556 0.6771
C10_3 C 0.7021(3) 0.9877(4) 0.4993(13)
H6_3 H 0.7162 0.9640 0.5114
H8_3 H 0.6784 0.9823 0.4563
C16_3 C 0.7580(4) 0.9430(4) 0.7234(14)
H10_3 H 0.7766 0.9225 0.7335
H11_3 H 0.7404 0.9364 0.6590
H12_3 H 0.7437 0.9465 0.7975
O14_3 O 0.98040(17) 0.89784(15) 0.6553(6)
C24_3 C 0.98112(13) 0.77935(13) 0.6915(5)
C25_3 C 0.97926(11) 0.81836(13) 0.6714(6)
H17_3 H 0.9556 0.8312 0.6771
C26_3 C 0.9877(4) 0.7021(3) 0.4993(13)
H18_3 H 0.9640 0.7162 0.5114
H20_3 H 0.9823 0.6784 0.4563
C32_3 C 0.9430(4) 0.7580(4) 0.7234(14)
H22_3 H 0.9225 0.7766 0.7335
H23_3 H 0.9364 0.7404 0.6590
H24_3 H 0.9465 0.7437 0.7975
O22_3 O 0.9422(2) 0.98897(16) 0.4618(6)
H32 H 0.96213 0.983256 0.078247
O11_4 O 0.53305(16) 0.01497(15) 0.1525(7)
O12_4 O 0.48897(16) 0.0578(2) 0.0382(6)
O13_4 O 0.60433(14) 0.04007(15) 0.0844(6)
O15_4 O 0.90931(15) 0.05216(15) 0.3535(6)
C17_4 C 0.79456(11) 0.03921(11) 0.3048(4)
H13_4 H 0.7768 0.0492 0.3605
C18_4 C 0.80752(11) 0.00579(16) 0.1221(4)
C19_4 C 0.83338(11) 0.04347(14) 0.3242(4)
H14_4 H 0.8422 0.0563 0.3932
C20_4 C 0.85932(11) 0.02888(14) 0.2425(4)
C21_4 C 0.71932(13) 0.04862(13) 0.1546(5)
H15_4 H 0.7322 0.0723 0.1489
C22_4 C 0.68032(12) 0.04676(12) 0.1345(5)
H16_4 H 0.6666 0.0692 0.1150
C23_4 C 0.66149(11) 0.01207(12) 0.1429(3)
C27_4 C 0.84641(11) 0.01006(18) 0.1416(4)
H21_4 H 0.8641 0.0001 0.0858
C28_4 C 0.78166(11) 0.02035(10) 0.2036(3)
C29_4 C 0.9006(2) 0.0291(2) 0.2711(6)
C30_4 C 0.73950(10) 0.01581(15) 0.1830(3)
C31_4 C 0.6201(2) 0.01007(19) 0.1215(4)
Zr10_4 Zr 0.47464(2) 0.02536(2) 0.19095(12)
O21_4 O 0.55216(15) 0.09069(15) 0.1465(6)
O3_4 O 0.51497(15) 0.03305(16) 0.8475(7)
H19_4 H 0.7824 0.0055 0.9528
Zr7_4 Zr 0.45631(2) 0.04369(2) 0.88760(12)
O17_4 O 0.54007(15) 0.10433(14) 0.9156(6)
H31_2 H 0.532343 0.00525372 0.594823
Zr2_4 Zr 0.54369(2) 0.95631(2) 0.11240(12)
O1_4 O 0.55258(18) 0.94742(18) 0.3027(10)
O2_4 O 0.45993(15) 0.89567(14) 0.0844(6)
O4_4 O 0.51960(17) 0.89784(15) 0.1553(6)
O7_4 O 0.58626(16) 0.91374(16) 0.0490(10)
C1_4 C 0.46079(11) 0.70544(11) 0.3048(4)
H1_4 H 0.4508 0.7232 0.3605
C2_4 C 0.49421(16) 0.69248(11) 0.1221(4)
C3_4 C 0.45653(14) 0.66662(11) 0.3242(4)
H2_4 H 0.4437 0.6578 0.3932
C4_4 C 0.47112(14) 0.64068(11) 0.2425(4)
C5_4 C 0.45138(13) 0.78068(13) 0.1546(5)
H3_4 H 0.4277 0.7678 0.1489
C6_4 C 0.45324(12) 0.81968(12) 0.1345(5)
H4_4 H 0.4308 0.8334 0.1150
C7_4 C 0.48793(12) 0.83851(11) 0.1429(3)
C8_4 C 0.51888(13) 0.77935(13) 0.1915(5)
C9_4 C 0.52074(11) 0.81836(13) 0.1714(6)
H5_4 H 0.5444 0.8312 0.1771
H6_4 H 0.5360 0.7162 0.0114
C11_4 C 0.48994(18) 0.65359(11) 0.1416(4)
H9_4 H 0.4999 0.6359 0.0858
C12_4 C 0.47965(10) 0.71834(11) 0.2036(3)
C13_4 C 0.4709(2) 0.5994(2) 0.2711(6)
C14_4 C 0.48419(15) 0.76050(10) 0.1830(3)
C15_4 C 0.48993(19) 0.8799(2) 0.1215(4)
C16_4 C 0.5570(4) 0.7580(4) 0.2234(14)
H10_4 H 0.5775 0.7766 0.2335
H11_4 H 0.5636 0.7404 0.1590
H12_4 H 0.5535 0.7437 0.2975
O14_4 O 0.60216(15) 0.98040(17) 0.1553(6)
C24_4 C 0.72065(13) 0.98112(13) 0.1915(5)
C25_4 C 0.68164(13) 0.97926(11) 0.1714(6)
H17_4 H 0.6688 0.9556 0.1771
H18_4 H 0.7838 0.9640 0.0114
C32_4 C 0.7420(4) 0.9430(4) 0.2234(14)
H22_4 H 0.7234 0.9225 0.2335
H23_4 H 0.7596 0.9364 0.1590
H24_4 H 0.7563 0.9465 0.2975
O18_4 O 0.48503(15) 0.96695(16) 0.1525(7)
H29_2 H 0.579262 0.888095 0.0790655
O6_4 O 0.5578(2) 0.98897(16) 0.9618(6)
O9_4 O 0.51400(19) 0.98600(19) 0.6248(9)
O10_4 O 0.57021(17) 0.92979(17) 0.7758(9)
C10_4 C 0.5123(4) 0.7021(3) 0.9993(13)
H7_4 H 0.4945 0.7176 0.9528
H8_4 H 0.5177 0.6784 0.9563
C26_4 C 0.7979(3) 0.9877(4) 0.9993(13)
H20_4 H 0.8216 0.9823 0.9563
O19_4 O 0.46695(16) 0.98503(15) 0.8475(7)
O22_4 O 0.51103(16) 0.9422(2) 0.9618(6)
H30_2 H 0.586556 0.913444 0.960657
O9_5 O 0.01400(19) 0.48600(19) 0.3752(9)
O10_5 O 0.07021(17) 0.42979(17) 0.2242(9)
C10_5 C 0.2979(3) 0.4877(4) 0.0007(13)
H7_5 H 0.2824 0.5055 0.0472
H8_5 H 0.3216 0.4823 0.0437
C26_5 C 0.0123(4) 0.2021(3) 0.0007(13)
H20_5 H 0.0177 0.1784 0.0437
O22_5 O 0.0578(2) 0.48897(16) 0.0382(6)
O24_4 O 0.07721(16) 0.50378(17) 0.2692(6)
H30_3 H 0.0865565 0.413444 0.0393433
O1_5 O 0.05258(18) 0.44742(18) 0.6973(10)
O2_5 O 0.10433(14) 0.54007(15) 0.9156(6)
O4_5 O 0.10216(15) 0.48040(17) 0.8447(6)
O7_5 O 0.08626(16) 0.41374(16) 0.9510(10)
C1_5 C 0.29456(11) 0.53921(11) 0.6952(4)
H1_5 H 0.2768 0.5492 0.6395
O8_4 O 0.42279(16) 0.50378(17) 0.7692(6)
C2_5 C 0.30752(11) 0.50579(16) 0.8779(4)
C3_5 C 0.33338(11) 0.54347(14) 0.6758(4)
H2_5 H 0.3422 0.5563 0.6068
C4_5 C 0.35932(11) 0.52888(14) 0.7575(4)
C5_5 C 0.21932(13) 0.54862(13) 0.8454(5)
H3_5 H 0.2322 0.5723 0.8511
C6_5 C 0.18032(12) 0.54676(12) 0.8655(5)
H4_5 H 0.1666 0.5692 0.8850
C7_5 C 0.16149(11) 0.51207(12) 0.8571(3)
C8_5 C 0.22065(13) 0.48112(13) 0.8085(5)
C9_5 C 0.18164(13) 0.47926(11) 0.8286(6)
H5_5 H 0.1688 0.4556 0.8229
H6_5 H 0.2838 0.4640 0.9886
C11_5 C 0.34641(11) 0.51006(18) 0.8584(4)
H9_5 H 0.3641 0.5001 0.9142
C12_5 C 0.28166(11) 0.52035(10) 0.7964(3)
C13_5 C 0.4006(2) 0.5291(2) 0.7289(6)
C14_5 C 0.23950(10) 0.51581(15) 0.8170(3)
C15_5 C 0.1201(2) 0.51007(19) 0.8785(4)
C16_5 C 0.2420(4) 0.4430(4) 0.7766(14)
H10_5 H 0.2234 0.4225 0.7665
H11_5 H 0.2596 0.4364 0.8410
H12_5 H 0.2563 0.4465 0.7025
O14_5 O 0.01960(17) 0.39784(15) 0.8447(6)
C24_5 C 0.01888(13) 0.27935(13) 0.8085(5)
C25_5 C 0.02074(11) 0.31836(13) 0.8286(6)
H17_5 H 0.0444 0.3312 0.8229
H18_5 H 0.0360 0.2162 0.9886
C32_5 C 0.0570(4) 0.2580(4) 0.7766(14)
H22_5 H 0.0775 0.2766 0.7665
H23_5 H 0.0636 0.2404 0.8410
H24_5 H 0.0535 0.2437 0.7025
H29_3 H 0.111905 0.420738 0.920934
H19_5 H 0.9945 0.2176 0.0472
O23_2 O 0.99622(17) 0.42279(16) 0.2692(6)
H31_3 H 0.994746 0.467657 0.405177
O15_5 O 0.94784(15) 0.09069(15) 0.6465(6)
C17_5 C 0.96079(11) 0.20544(11) 0.6952(4)
H13_5 H 0.9508 0.2232 0.6395
O16_2 O 0.99622(17) 0.07721(16) 0.7692(6)
C18_5 C 0.99421(16) 0.19248(11) 0.8779(4)
C19_5 C 0.95653(14) 0.16662(11) 0.6758(4)
H14_5 H 0.9437 0.1578 0.6068
C20_5 C 0.97112(14) 0.14068(11) 0.7575(4)
C21_5 C 0.95138(13) 0.28068(13) 0.8454(5)
H15_5 H 0.9277 0.2678 0.8511
C22_5 C 0.95324(12) 0.31968(12) 0.8655(5)
H16_5 H 0.9308 0.3334 0.8850
C23_5 C 0.98793(12) 0.33851(11) 0.8571(3)
C27_5 C 0.98994(18) 0.15359(11) 0.8584(4)
H21_5 H 0.9999 0.1359 0.9142
C28_5 C 0.97965(10) 0.21834(11) 0.7964(3)
C29_5 C 0.9709(2) 0.0994(2) 0.7289(6)
C30_5 C 0.98419(15) 0.26050(10) 0.8170(3)
C31_5 C 0.98993(19) 0.3799(2) 0.8785(4)
O9_6 O 0.48600(19) 0.01400(19) 0.3752(9)
O10_6 O 0.42979(17) 0.07021(17) 0.2242(9)
C10_6 C 0.2021(3) 0.0123(4) 0.0007(13)
H8_6 H 0.1784 0.0177 0.0437
C26_6 C 0.4877(4) 0.2979(3) 0.0007(13)
H19_6 H 0.5055 0.2824 0.0472
H20_6 H 0.4823 0.3216 0.0437
O22_6 O 0.4422(2) 0.01103(16) 0.0382(6)
O23_3 O 0.50378(17) 0.07721(16) 0.2692(6)
H30_4 H 0.413444 0.0865565 0.0393433
O1_6 O 0.44742(18) 0.05258(18) 0.6973(10)
O4_6 O 0.39784(15) 0.01960(17) 0.8447(6)
O7_6 O 0.41374(16) 0.08626(16) 0.9510(10)
C8_6 C 0.27935(13) 0.01888(13) 0.8085(5)
C9_6 C 0.31836(13) 0.02074(11) 0.8286(6)
H5_6 H 0.3312 0.0444 0.8229
H6_6 H 0.2162 0.0360 0.9886
C16_6 C 0.2580(4) 0.0570(4) 0.7766(14)
H10_6 H 0.2766 0.0775 0.7665
H11_6 H 0.2404 0.0636 0.8410
H12_6 H 0.2437 0.0535 0.7025
O14_6 O 0.48040(17) 0.10216(15) 0.8447(6)
O15_6 O 0.55216(15) 0.40931(15) 0.6465(6)
C17_6 C 0.53921(11) 0.29456(11) 0.6952(4)
H13_6 H 0.5492 0.2768 0.6395
O16_3 O 0.50378(17) 0.42279(16) 0.7692(6)
C18_6 C 0.50579(16) 0.30752(11) 0.8779(4)
C19_6 C 0.54347(14) 0.33338(11) 0.6758(4)
H14_6 H 0.5563 0.3422 0.6068
C20_6 C 0.52888(14) 0.35932(11) 0.7575(4)
C21_6 C 0.54862(13) 0.21932(13) 0.8454(5)
H15_6 H 0.5723 0.2322 0.8511
C22_6 C 0.54676(12) 0.18032(12) 0.8655(5)
H16_6 H 0.5692 0.1666 0.8850
C23_6 C 0.51207(12) 0.16149(11) 0.8571(3)
C24_6 C 0.48112(13) 0.22065(13) 0.8085(5)
C25_6 C 0.47926(11) 0.18164(13) 0.8286(6)
H17_6 H 0.4556 0.1688 0.8229
H18_6 H 0.4640 0.2838 0.9886
C27_6 C 0.51006(18) 0.34641(11) 0.8584(4)
H21_6 H 0.5001 0.3641 0.9142
C28_6 C 0.52035(10) 0.28166(11) 0.7964(3)
C29_6 C 0.5291(2) 0.4006(2) 0.7289(6)
C30_6 C 0.51581(15) 0.23950(10) 0.8170(3)
C31_6 C 0.51007(19) 0.1201(2) 0.8785(4)
C32_6 C 0.4430(4) 0.2420(4) 0.7766(14)
H22_6 H 0.4225 0.2234 0.7665
H23_6 H 0.4364 0.2596 0.8410
H24_6 H 0.4465 0.2563 0.7025
H29_4 H 0.388095 0.0792619 0.920934
H7_6 H 0.2176 0.9945 0.0472
O24_5 O 0.42279(16) 0.99622(17) 0.2692(6)
O2_6 O 0.39567(14) 0.95993(15) 0.9156(6)
C1_6 C 0.20544(11) 0.96079(11) 0.6952(4)
H1_6 H 0.2232 0.9508 0.6395
O8_5 O 0.07721(16) 0.99622(17) 0.7692(6)
C2_6 C 0.19248(11) 0.99421(16) 0.8779(4)
C3_6 C 0.16662(11) 0.95653(14) 0.6758(4)
H2_6 H 0.1578 0.9437 0.6068
C4_6 C 0.14068(11) 0.97112(14) 0.7575(4)
C5_6 C 0.28068(13) 0.95138(13) 0.8454(5)
H3_6 H 0.2678 0.9277 0.8511
C6_6 C 0.31968(12) 0.95324(12) 0.8655(5)
H4_6 H 0.3334 0.9308 0.8850
C7_6 C 0.33851(11) 0.98793(12) 0.8571(3)
C11_6 C 0.15359(11) 0.98994(18) 0.8584(4)
H9_6 H 0.1359 0.9999 0.9142
C12_6 C 0.21834(11) 0.97965(10) 0.7964(3)
C13_6 C 0.0994(2) 0.9709(2) 0.7289(6)
C14_6 C 0.26050(10) 0.98419(15) 0.8170(3)
C15_6 C 0.3799(2) 0.98993(19) 0.8785(4)
O1_7 O 0.05258(18) 0.05258(18) 0.1973(10)
O4_7 O 0.01960(17) 0.10216(15) 0.3447(6)
O7_7 O 0.08626(16) 0.08626(16) 0.4510(10)
O9_7 O 0.01400(19) 0.01400(19) 0.8752(9)
O10_7 O 0.07021(17) 0.07021(17) 0.7242(9)
C8_7 C 0.01888(13) 0.22065(13) 0.3085(5)
C9_7 C 0.02074(11) 0.18164(13) 0.3286(6)
H5_7 H 0.0444 0.1688 0.3229
C10_7 C 0.0123(4) 0.2979(3) 0.5007(13)
H6_7 H 0.0360 0.2838 0.4886
H8_7 H 0.0177 0.3216 0.5437
C16_7 C 0.0570(4) 0.2420(4) 0.2766(14)
H10_7 H 0.0775 0.2234 0.2665
H11_7 H 0.0636 0.2596 0.3410
H12_7 H 0.0535 0.2563 0.2025
O14_7 O 0.10216(15) 0.01960(17) 0.3447(6)
C24_7 C 0.22065(13) 0.01888(13) 0.3085(5)
C25_7 C 0.18164(13) 0.02074(11) 0.3286(6)
H17_7 H 0.1688 0.0444 0.3229
C26_7 C 0.2979(3) 0.0123(4) 0.5007(13)
H18_7 H 0.2838 0.0360 0.4886
H20_7 H 0.3216 0.0177 0.5437
C32_7 C 0.2420(4) 0.0570(4) 0.2766(14)
H22_7 H 0.2234 0.0775 0.2665
H23_7 H 0.2596 0.0636 0.3410
H24_7 H 0.2563 0.0535 0.2025
O22_7 O 0.01103(16) 0.0578(2) 0.5382(6)
H32_2 H 0.0167438 0.03787 0.921753
O15_7 O 0.40931(15) 0.94784(15) 0.1465(6)
C17_7 C 0.29456(11) 0.96079(11) 0.1952(4)
H13_7 H 0.2768 0.9508 0.1395
C18_7 C 0.30752(11) 0.99421(16) 0.3779(4)
C19_7 C 0.33338(11) 0.95653(14) 0.1758(4)
H14_7 H 0.3422 0.9437 0.1068
C20_7 C 0.35932(11) 0.97112(14) 0.2575(4)
C21_7 C 0.21932(13) 0.95138(13) 0.3454(5)
H15_7 H 0.2322 0.9277 0.3511
C22_7 C 0.18032(12) 0.95324(12) 0.3655(5)
H16_7 H 0.1666 0.9308 0.3850
C23_7 C 0.16149(11) 0.98793(12) 0.3571(3)
H19_7 H 0.2824 0.9945 0.5472
C27_7 C 0.34641(11) 0.98994(18) 0.3584(4)
H21_7 H 0.3641 0.9999 0.4142
C28_7 C 0.28166(11) 0.97965(10) 0.2964(3)
C29_7 C 0.4006(2) 0.9709(2) 0.2289(6)
C30_7 C 0.23950(10) 0.98419(15) 0.3170(3)
C31_7 C 0.1201(2) 0.98993(19) 0.3785(4)
H31_4 H 0.0323432 0.994746 0.905177
O2_7 O 0.95993(15) 0.10433(14) 0.4156(6)
C1_7 C 0.96079(11) 0.29456(11) 0.1952(4)
H1_7 H 0.9508 0.2768 0.1395
C2_7 C 0.99421(16) 0.30752(11) 0.3779(4)
C3_7 C 0.95653(14) 0.33338(11) 0.1758(4)
H2_7 H 0.9437 0.3422 0.1068
C4_7 C 0.97112(14) 0.35932(11) 0.2575(4)
C5_7 C 0.95138(13) 0.21932(13) 0.3454(5)
H3_7 H 0.9277 0.2322 0.3511
C6_7 C 0.95324(12) 0.18032(12) 0.3655(5)
H4_7 H 0.9308 0.1666 0.3850
C7_7 C 0.98793(12) 0.16149(11) 0.3571(3)
H7_7 H 0.9945 0.2824 0.5472
C11_7 C 0.98994(18) 0.34641(11) 0.3584(4)
H9_7 H 0.9999 0.3641 0.4142
C12_7 C 0.97965(10) 0.28166(11) 0.2964(3)
C13_7 C 0.9709(2) 0.4006(2) 0.2289(6)
C14_7 C 0.98419(15) 0.23950(10) 0.3170(3)
C15_7 C 0.98993(19) 0.1201(2) 0.3785(4)
O1_8 O 0.44742(18) 0.44742(18) 0.1973(10)
O2_8 O 0.54007(15) 0.39567(14) 0.4156(6)
O4_8 O 0.48040(17) 0.39784(15) 0.3447(6)
O7_8 O 0.41374(16) 0.41374(16) 0.4510(10)
C1_8 C 0.53921(11) 0.20544(11) 0.1952(4)
H1_8 H 0.5492 0.2232 0.1395
O9_8 O 0.48600(19) 0.48600(19) 0.8752(9)
O10_8 O 0.42979(17) 0.42979(17) 0.7242(9)
C2_8 C 0.50579(16) 0.19248(11) 0.3779(4)
C3_8 C 0.54347(14) 0.16662(11) 0.1758(4)
H2_8 H 0.5563 0.1578 0.1068
C4_8 C 0.52888(14) 0.14068(11) 0.2575(4)
C5_8 C 0.54862(13) 0.28068(13) 0.3454(5)
H3_8 H 0.5723 0.2678 0.3511
C6_8 C 0.54676(12) 0.31968(12) 0.3655(5)
H4_8 H 0.5692 0.3334 0.3850
C7_8 C 0.51207(12) 0.33851(11) 0.3571(3)
C8_8 C 0.48112(13) 0.27935(13) 0.3085(5)
C9_8 C 0.47926(11) 0.31836(13) 0.3286(6)
H5_8 H 0.4556 0.3312 0.3229
C10_8 C 0.4877(4) 0.2021(3) 0.5007(13)
H6_8 H 0.4640 0.2162 0.4886
H7_8 H 0.5055 0.2176 0.5472
H8_8 H 0.4823 0.1784 0.5437
C11_8 C 0.51006(18) 0.15359(11) 0.3584(4)
H9_8 H 0.5001 0.1359 0.4142
C12_8 C 0.52035(10) 0.21834(11) 0.2964(3)
C13_8 C 0.5291(2) 0.0994(2) 0.2289(6)
C14_8 C 0.51581(15) 0.26050(10) 0.3170(3)
C15_8 C 0.51007(19) 0.3799(2) 0.3785(4)
C16_8 C 0.4430(4) 0.2580(4) 0.2766(14)
H10_8 H 0.4225 0.2766 0.2665
H11_8 H 0.4364 0.2404 0.3410
H12_8 H 0.4465 0.2437 0.2025
O14_8 O 0.39784(15) 0.48040(17) 0.3447(6)
O15_8 O 0.09069(15) 0.55216(15) 0.1465(6)
C17_8 C 0.20544(11) 0.53921(11) 0.1952(4)
H13_8 H 0.2232 0.5492 0.1395
C18_8 C 0.19248(11) 0.50579(16) 0.3779(4)
C19_8 C 0.16662(11) 0.54347(14) 0.1758(4)
H14_8 H 0.1578 0.5563 0.1068
C20_8 C 0.14068(11) 0.52888(14) 0.2575(4)
C21_8 C 0.28068(13) 0.54862(13) 0.3454(5)
H15_8 H 0.2678 0.5723 0.3511
C22_8 C 0.31968(12) 0.54676(12) 0.3655(5)
H16_8 H 0.3334 0.5692 0.3850
C23_8 C 0.33851(11) 0.51207(12) 0.3571(3)
C24_8 C 0.27935(13) 0.48112(13) 0.3085(5)
C25_8 C 0.31836(13) 0.47926(11) 0.3286(6)
H17_8 H 0.3312 0.4556 0.3229
C26_8 C 0.2021(3) 0.4877(4) 0.5007(13)
H18_8 H 0.2162 0.4640 0.4886
H19_8 H 0.2176 0.5055 0.5472
H20_8 H 0.1784 0.4823 0.5437
C27_8 C 0.15359(11) 0.51006(18) 0.3584(4)
H21_8 H 0.1359 0.5001 0.4142
C28_8 C 0.21834(11) 0.52035(10) 0.2964(3)
C29_8 C 0.0994(2) 0.5291(2) 0.2289(6)
C30_8 C 0.26050(10) 0.51581(15) 0.3170(3)
C31_8 C 0.3799(2) 0.51007(19) 0.3785(4)
C32_8 C 0.2580(4) 0.4430(4) 0.2766(14)
H22_8 H 0.2766 0.4225 0.2665
H23_8 H 0.2404 0.4364 0.3410
H24_8 H 0.2437 0.4465 0.2025
O22_8 O 0.48897(16) 0.4422(2) 0.5382(6)
H29_5 H 0.0792619 0.388095 0.920934
H32_3 H 0.03787 0.0167438 0.921753
H31_5 H 0.994746 0.0323432 0.905177
H29_6 H 0.420738 0.111905 0.920934
H31_6 H 0.467657 0.994746 0.405177
H31_7 H 0.00525372 0.532343 0.594823
H29_7 H 0.888095 0.579262 0.0790655
H29_8 H 0.611905 0.920738 0.0790655
H31_8 H 0.967657 0.00525372 0.0948234
H32_4 H 0.983256 0.96213 0.078247
loop_
_geom_bond_atom_site_label_1
_geom_bond_atom_site_label_2
_geom_bond_site_symmetry_1
_geom_bond_site_symmetry_2
Zr1 O3 1_555 1_555
Zr2 O1 1_555 1_555
Zr3 O3 1_555 1_555
O2 C15 1_555 1_555
O3 Zr7 1_555 1_555
O4 Zr2 1_555 1_555
O5 C13 1_555 1_555
O6 Zr1 1_555 1_555
O7 Zr2 1_555 1_555
C1 H1 1_555 1_555
O8 C13 1_555 1_555
O9 Zr3 1_555 1_555
O10 Zr3 1_555 1_555
C2 C10 1_555 1_555
C3 C1 1_555 1_555
H2 C3 1_555 1_555
C4 C3 1_555 1_555
C5 H3 1_555 1_555
C6 C5 1_555 1_555
H4 C6 1_555 1_555
C7 C6 1_555 1_555
C8 C9 1_555 1_555
C9 C7 1_555 1_555
H5 C9 1_555 1_555
C10 H6 1_555 1_555
H7 C10 1_555 1_555
H8 C10 1_555 1_555
C11 C2 1_555 1_555
H9 C11 1_555 1_555
C12 C1 1_555 1_555
C13 C4 1_555 1_555
C14 C5 1_555 1_555
C15 O4 1_555 1_555
C16 C8 1_555 1_555
H10 C16 1_555 1_555
H11 C16 1_555 1_555
H12 C16 1_555 1_555
O11 Zr1 1_555 1_555
O12 Zr1 1_555 1_555
O13 Zr1 1_555 1_555
O14 Zr2 1_555 1_555
O15 C29 1_555 1_555
C17 H13 1_555 1_555
O16 C29 1_555 1_555
C18 C26 1_555 1_555
C19 C17 1_555 1_555
H14 C19 1_555 1_555
C20 C19 1_555 1_555
C21 H15 1_555 1_555
C22 C21 1_555 1_555
H16 C22 1_555 1_555
C23 C22 1_555 1_555
C24 C25 1_555 1_555
C25 C23 1_555 1_555
H17 C25 1_555 1_555
C26 H18 1_555 1_555
H19 C26 1_555 1_555
H20 C26 1_555 1_555
C27 C18 1_555 1_555
H21 C27 1_555 1_555
C28 C17 1_555 1_555
C29 C20 1_555 1_555
C30 C21 1_555 1_555
C31 O13 1_555 1_555
C32 C24 1_555 1_555
H22 C32 1_555 1_555
H23 C32 1_555 1_555
H24 C32 1_555 1_555
Zr4_2 O5 1_555 1_555
Zr5 O2 1_555 1_555
Zr6_2 O15 1_555 1_555
Zr7 O12 1_555 1_555
Zr8 O8 1_555 1_555
Zr9 O16 1_555 1_555
Zr10 O11 1_555 1_555
O17 Zr1 1_555 1_555
O18 Zr2 1_555 1_555
O19 Zr3 1_555 1_555
O20 Zr1 1_555 1_555
O21 Zr1 1_555 1_555
O22 Zr2 1_555 1_555
O23 Zr3 1_555 1_555
O24 Zr3 1_555 1_555
Zr2 O6 1_555 1_555
Zr2 O11 1_555 1_555
Zr3 O6 1_555 1_555
Zr3 O22 1_555 1_555
C2 C12 1_555 1_555
C4 C11 1_555 1_555
C7 C15 1_555 1_555
C8 C14 1_555 1_555
C12 C14 1_555 1_555
O12 Zr10 1_555 1_555
O14 C31 1_555 1_555
C18 C28 1_555 1_555
C20 C27 1_555 1_555
C23 C31 1_555 1_555
C24 C30 1_555 1_555
C28 C30 1_555 1_555
Zr5 O18 1_555 1_555
Zr5 O19 1_555 1_555
Zr5 O22 1_555 1_555
Zr7 O19 1_555 1_555
Zr10 O18 1_555 1_555
O2_2 C15_2 1_555 1_555
O5_2 C13_2 1_555 1_555
C1_2 H1_2 1_555 1_555
O8_2 C13_2 1_555 1_555
C3_2 C1_2 1_555 1_555
H2_2 C3_2 1_555 1_555
C4_2 C3_2 1_555 1_555
C5_2 H3_2 1_555 1_555
C6_2 C5_2 1_555 1_555
H4_2 C6_2 1_555 1_555
C7_2 C6_2 1_555 1_555
C11_2 C2_2 1_555 1_555
H9_2 C11_2 1_555 1_555
C12_2 C1_2 1_555 1_555
C13_2 C4_2 1_555 1_555
C14_2 C5_2 1_555 1_555
Zr4_3 O5_2 1_555 1_555
Zr5_2 O2_2 1_555 1_555
C2_2 C12_2 1_555 1_555
C4_2 C11_2 1_555 1_555
C7_2 C15_2 1_555 1_555
C12_2 C14_2 1_555 1_555
O12_2 Zr10_2 1_555 1_555
Zr5_2 O18_2 1_555 1_555
Zr10_2 O18_2 1_555 1_555
Zr5_3 O19_2 1_555 1_555
Zr7_2 O19_2 1_555 1_555
Zr2_2 O1_2 1_555 1_555
O4_2 Zr2_2 1_555 1_555
O7_2 Zr2_2 1_555 1_555
C8_2 C9_2 1_555 1_555
H5_2 C9_2 1_555 1_555
C16_2 C8_2 1_555 1_555
H10_2 C16_2 1_555 1_555
H11_2 C16_2 1_555 1_555
H12_2 C16_2 1_555 1_555
O11_2 Zr4 1_555 1_555
O13_2 Zr4 1_555 1_555
O14_2 Zr2_2 1_555 1_555
O15_2 C29_2 1_555 1_555
C17_2 H13_2 1_555 1_555
O24 C29_2 1_555 1_555
C19_2 C17_2 1_555 1_555
H14_2 C19_2 1_555 1_555
C20_2 C19_2 1_555 1_555
C21_2 H15_2 1_555 1_555
C22_2 C21_2 1_555 1_555
H16_2 C22_2 1_555 1_555
C23_2 C22_2 1_555 1_555
C24_2 C25_2 1_555 1_555
C25_2 C23_2 1_555 1_555
H17_2 C25_2 1_555 1_555
C27_2 C18_2 1_555 1_555
H21_2 C27_2 1_555 1_555
C28_2 C17_2 1_555 1_555
C29_2 C20_2 1_555 1_555
C30_2 C21_2 1_555 1_555
C31_2 O13_2 1_555 1_555
C32_2 C24_2 1_555 1_555
H22_2 C32_2 1_555 1_555
H23_2 C32_2 1_555 1_555
H24_2 C32_2 1_555 1_555
Zr5 O15_2 1_555 1_555
O21_2 Zr4 1_555 1_555
Zr2_2 O11_2 1_555 1_555
O14_2 C31_2 1_555 1_555
C18_2 C28_2 1_555 1_555
C20_2 C27_2 1_555 1_555
C23_2 C31_2 1_555 1_555
C24_2 C30_2 1_555 1_555
C28_2 C30_2 1_555 1_555
O7_2 H29 1_555 1_555
Zr4_2 O3_2 1_555 1_555
Zr8 O3_2 1_555 1_555
O6_2 Zr4_2 1_555 1_555
O9_2 Zr8 1_555 1_555
O10_2 Zr8 1_555 1_555
H8_2 C10_2 1_555 1_555
H19_2 C26_2 1_555 1_555
H20_2 C26_2 1_555 1_555
O17_2 Zr4_2 1_555 1_555
Zr8 O6_2 1_555 1_555
Zr8 O22_2 1_555 1_555
Zr7_3 O12_3 1_555 1_555
O12_3 Zr10_3 1_555 1_555
Zr4_3 O3_3 1_555 1_555
O11_3 Zr4_3 1_555 1_555
O13_3 Zr4_3 1_555 1_555
O15_3 C29_3 1_555 1_555
C17_3 H13_3 1_555 1_555
O24_2 C29_3 1_555 1_555
C19_3 C17_3 1_555 1_555
H14_3 C19_3 1_555 1_555
C20_3 C19_3 1_555 1_555
C21_3 H15_3 1_555 1_555
C22_3 C21_3 1_555 1_555
H16_3 C22_3 1_555 1_555
C23_3 C22_3 1_555 1_555
C27_3 C18_3 1_555 1_555
H21_3 C27_3 1_555 1_555
C28_3 C17_3 1_555 1_555
C29_3 C20_3 1_555 1_555
C30_3 C21_3 1_555 1_555
C31_3 O13_3 1_555 1_555
Zr5_3 O15_3 1_555 1_555
O17_3 Zr4_3 1_555 1_555
O21_3 Zr4_3 1_555 1_555
C18_3 C28_3 1_555 1_555
C20_3 C27_3 1_555 1_555
C23_3 C31_3 1_555 1_555
C28_3 C30_3 1_555 1_555
O2_3 C15_3 1_555 1_555
O5_3 C13_3 1_555 1_555
C1_3 H1_3 1_555 1_555
O8_3 C13_3 1_555 1_555
C3_3 C1_3 1_555 1_555
H2_3 C3_3 1_555 1_555
C4_3 C3_3 1_555 1_555
C5_3 H3_3 1_555 1_555
C6_3 C5_3 1_555 1_555
H4_3 C6_3 1_555 1_555
C7_3 C6_3 1_555 1_555
C11_3 C2_3 1_555 1_555
H9_3 C11_3 1_555 1_555
C12_3 C1_3 1_555 1_555
C13_3 C4_3 1_555 1_555
C14_3 C5_3 1_555 1_555
Zr4_5 O5_3 1_555 1_555
Zr5_4 O2_3 1_555 1_555
C2_3 C12_3 1_555 1_555
C4_3 C11_3 1_555 1_555
C7_3 C15_3 1_555 1_555
C12_3 C14_3 1_555 1_555
Zr5_4 O18_3 1_555 1_555
Zr5_4 O19_3 1_555 1_555
Zr2_3 O1_3 1_555 1_555
O4_3 Zr2_3 1_555 1_555
O7_3 Zr2_3 1_555 1_555
O9_3 Zr8_2 1_555 1_555
O10_3 Zr8_2 1_555 1_555
C8_3 C9_3 1_555 1_555
H5_3 C9_3 1_555 1_555
C10_3 H6_3 1_555 1_555
H8_3 C10_3 1_555 1_555
C16_3 C8_3 1_555 1_555
H10_3 C16_3 1_555 1_555
H11_3 C16_3 1_555 1_555
H12_3 C16_3 1_555 1_555
O14_3 Zr2_3 1_555 1_555
C24_3 C25_3 1_555 1_555
H17_3 C25_3 1_555 1_555
C26_3 H18_3 1_555 1_555
H20_3 C26_3 1_555 1_555
C32_3 C24_3 1_555 1_555
H22_3 C32_3 1_555 1_555
H23_3 C32_3 1_555 1_555
H24_3 C32_3 1_555 1_555
O22_3 Zr2_3 1_555 1_555
Zr2_3 O6_3 1_555 1_555
Zr8_2 O6_3 1_555 1_555
Zr8_2 O22_3 1_555 1_555
O9_3 H32 1_555 1_555
O11_4 Zr4_4 1_555 1_555
O12_4 Zr4_4 1_555 1_555
O13_4 Zr4_4 1_555 1_555
O15_4 C29_4 1_555 1_555
C17_4 H13_4 1_555 1_555
O24_3 C29_4 1_555 1_555
C19_4 C17_4 1_555 1_555
H14_4 C19_4 1_555 1_555
C20_4 C19_4 1_555 1_555
C21_4 H15_4 1_555 1_555
C22_4 C21_4 1_555 1_555
H16_4 C22_4 1_555 1_555
C23_4 C22_4 1_555 1_555
C27_4 C18_4 1_555 1_555
H21_4 C27_4 1_555 1_555
C28_4 C17_4 1_555 1_555
C29_4 C20_4 1_555 1_555
C30_4 C21_4 1_555 1_555
C31_4 O13_4 1_555 1_555
Zr5_4 O15_4 1_555 1_555
Zr10_4 O11_4 1_555 1_555
O21_4 Zr4_4 1_555 1_555
O12_4 Zr10_4 1_555 1_555
C18_4 C28_4 1_555 1_555
C20_4 C27_4 1_555 1_555
C23_4 C31_4 1_555 1_555
C28_4 C30_4 1_555 1_555
Zr4_5 O3_4 1_555 1_555
O3_4 Zr7_4 1_555 1_555
O17_4 Zr4_5 1_555 1_555
Zr2_4 O1_4 1_555 1_555
O2_4 C15_4 1_555 1_555
O4_4 Zr2_4 1_555 1_555
O20 C13_4 1_555 1_555
O7_4 Zr2_4 1_555 1_555
C1_4 H1_4 1_555 1_555
O23 C13_4 1_555 1_555
C3_4 C1_4 1_555 1_555
H2_4 C3_4 1_555 1_555
C4_4 C3_4 1_555 1_555
C5_4 H3_4 1_555 1_555
C6_4 C5_4 1_555 1_555
H4_4 C6_4 1_555 1_555
C7_4 C6_4 1_555 1_555
C8_4 C9_4 1_555 1_555
C9_4 C7_4 1_555 1_555
H5_4 C9_4 1_555 1_555
C11_4 C2_4 1_555 1_555
H9_4 C11_4 1_555 1_555
C12_4 C1_4 1_555 1_555
C13_4 C4_4 1_555 1_555
C14_4 C5_4 1_555 1_555
C15_4 O4_4 1_555 1_555
C16_4 C8_4 1_555 1_555
H10_4 C16_4 1_555 1_555
H11_4 C16_4 1_555 1_555
H12_4 C16_4 1_555 1_555
O14_4 Zr2_4 1_555 1_555
C24_4 C25_4 1_555 1_555
H17_4 C25_4 1_555 1_555
C32_4 C24_4 1_555 1_555
H22_4 C32_4 1_555 1_555
H23_4 C32_4 1_555 1_555
H24_4 C32_4 1_555 1_555
Zr6 O2_4 1_555 1_555
O18_4 Zr2_4 1_555 1_555
C2_4 C12_4 1_555 1_555
C4_4 C11_4 1_555 1_555
C7_4 C15_4 1_555 1_555
C8_4 C14_4 1_555 1_555
C12_4 C14_4 1_555 1_555
Zr6 O18_4 1_555 1_555
O7_4 H29_2 1_555 1_555
O9_4 Zr9 1_555 1_555
O10_4 Zr9 1_555 1_555
H7_4 C10_4 1_555 1_555
H8_4 C10_4 1_555 1_555
H20_4 C26_4 1_555 1_555
O19_4 Zr9 1_555 1_555
Zr9 O6_4 1_555 1_555
Zr9 O22_4 1_555 1_555
Zr6_2 O19_4 1_555 1_555
Zr6_2 O22_4 1_555 1_555
O9_5 Zr10_2 1_555 1_555
O10_5 Zr10_2 1_555 1_555
H7_5 C10_5 1_555 1_555
H8_5 C10_5 1_555 1_555
H20_5 C26_5 1_555 1_555
O24_4 Zr10_2 1_555 1_555
Zr10_2 O22_5 1_555 1_555
Zr5_2 O22_5 1_555 1_555
Zr7_2 O1_5 1_555 1_555
O2_5 C15_5 1_555 1_555
O4_5 Zr7_2 1_555 1_555
O21 C13_5 1_555 1_555
O7_5 Zr7_2 1_555 1_555
C1_5 H1_5 1_555 1_555
O8_4 C13_5 1_555 1_555
C3_5 C1_5 1_555 1_555
H2_5 C3_5 1_555 1_555
C4_5 C3_5 1_555 1_555
C5_5 H3_5 1_555 1_555
C6_5 C5_5 1_555 1_555
H4_5 C6_5 1_555 1_555
C7_5 C6_5 1_555 1_555
C8_5 C9_5 1_555 1_555
C9_5 C7_5 1_555 1_555
H5_5 C9_5 1_555 1_555
C11_5 C2_5 1_555 1_555
H9_5 C11_5 1_555 1_555
C12_5 C1_5 1_555 1_555
C13_5 C4_5 1_555 1_555
C14_5 C5_5 1_555 1_555
C15_5 O4_5 1_555 1_555
C16_5 C8_5 1_555 1_555
H10_5 C16_5 1_555 1_555
H11_5 C16_5 1_555 1_555
H12_5 C16_5 1_555 1_555
O14_5 Zr7_2 1_555 1_555
C24_5 C25_5 1_555 1_555
H17_5 C25_5 1_555 1_555
C32_5 C24_5 1_555 1_555
H22_5 C32_5 1_555 1_555
H23_5 C32_5 1_555 1_555
H24_5 C32_5 1_555 1_555
Zr5_3 O2_5 1_555 1_555
Zr10 O8_4 1_555 1_555
C2_5 C12_5 1_555 1_555
C4_5 C11_5 1_555 1_555
C7_5 C15_5 1_555 1_555
C8_5 C14_5 1_555 1_555
C12_5 C14_5 1_555 1_555
O7_5 H29_3 1_555 1_555
O15_5 C29_5 1_555 1_555
C17_5 H13_5 1_555 1_555
O16_2 C29_5 1_555 1_555
C19_5 C17_5 1_555 1_555
H14_5 C19_5 1_555 1_555
C20_5 C19_5 1_555 1_555
C21_5 H15_5 1_555 1_555
C22_5 C21_5 1_555 1_555
H16_5 C22_5 1_555 1_555
C23_5 C22_5 1_555 1_555
C27_5 C18_5 1_555 1_555
H21_5 C27_5 1_555 1_555
C28_5 C17_5 1_555 1_555
C29_5 C20_5 1_555 1_555
C30_5 C21_5 1_555 1_555
C31_5 O17_2 1_555 1_555
Zr5_4 O15_5 1_555 1_555
C18_5 C28_5 1_555 1_555
C20_5 C27_5 1_555 1_555
C23_5 C31_5 1_555 1_555
C28_5 C30_5 1_555 1_555
O9_6 Zr10_4 1_555 1_555
O10_6 Zr10_4 1_555 1_555
H8_6 C10_6 1_555 1_555
H19_6 C26_6 1_555 1_555
H20_6 C26_6 1_555 1_555
O23_3 Zr10_4 1_555 1_555
Zr10_4 O22_6 1_555 1_555
Zr7_4 O1_6 1_555 1_555
O4_6 Zr7_4 1_555 1_555
O7_6 Zr7_4 1_555 1_555
C8_6 C9_6 1_555 1_555
H5_6 C9_6 1_555 1_555
C16_6 C8_6 1_555 1_555
H10_6 C16_6 1_555 1_555
H11_6 C16_6 1_555 1_555
H12_6 C16_6 1_555 1_555
O14_6 Zr7_4 1_555 1_555
O15_6 C29_6 1_555 1_555
C17_6 H13_6 1_555 1_555
O16_3 C29_6 1_555 1_555
C19_6 C17_6 1_555 1_555
H14_6 C19_6 1_555 1_555
C20_6 C19_6 1_555 1_555
C21_6 H15_6 1_555 1_555
C22_6 C21_6 1_555 1_555
H16_6 C22_6 1_555 1_555
C23_6 C22_6 1_555 1_555
C24_6 C25_6 1_555 1_555
C25_6 C23_6 1_555 1_555
H17_6 C25_6 1_555 1_555
C27_6 C18_6 1_555 1_555
H21_6 C27_6 1_555 1_555
C28_6 C17_6 1_555 1_555
C29_6 C20_6 1_555 1_555
C30_6 C21_6 1_555 1_555
C31_6 O17_4 1_555 1_555
C32_6 C24_6 1_555 1_555
H22_6 C32_6 1_555 1_555
H23_6 C32_6 1_555 1_555
H24_6 C32_6 1_555 1_555
Zr5 O15_6 1_555 1_555
Zr10 O16_3 1_555 1_555
O14_6 C31_6 1_555 1_555
C18_6 C28_6 1_555 1_555
C20_6 C27_6 1_555 1_555
C23_6 C31_6 1_555 1_555
C24_6 C30_6 1_555 1_555
C28_6 C30_6 1_555 1_555
O7_6 H29_4 1_555 1_555
O2_6 C15_6 1_555 1_555
O21_3 C13_6 1_555 1_555
C1_6 H1_6 1_555 1_555
O8_5 C13_6 1_555 1_555
C3_6 C1_6 1_555 1_555
H2_6 C3_6 1_555 1_555
C4_6 C3_6 1_555 1_555
C5_6 H3_6 1_555 1_555
C6_6 C5_6 1_555 1_555
H4_6 C6_6 1_555 1_555
C7_6 C6_6 1_555 1_555
C11_6 C2_6 1_555 1_555
H9_6 C11_6 1_555 1_555
C12_6 C1_6 1_555 1_555
C13_6 C4_6 1_555 1_555
C14_6 C5_6 1_555 1_555
Zr6_2 O2_6 1_555 1_555
C2_6 C12_6 1_555 1_555
C4_6 C11_6 1_555 1_555
C7_6 C15_6 1_555 1_555
C12_6 C14_6 1_555 1_555
Zr7_3 O1_7 1_555 1_555
O4_7 Zr7_3 1_555 1_555
O7_7 Zr7_3 1_555 1_555
O9_7 Zr10_3 1_555 1_555
O10_7 Zr10_3 1_555 1_555
C8_7 C9_7 1_555 1_555
H5_7 C9_7 1_555 1_555
C10_7 H6_7 1_555 1_555
H8_7 C10_7 1_555 1_555
C16_7 C8_7 1_555 1_555
H10_7 C16_7 1_555 1_555
H11_7 C16_7 1_555 1_555
H12_7 C16_7 1_555 1_555
O14_7 Zr7_3 1_555 1_555
C24_7 C25_7 1_555 1_555
H17_7 C25_7 1_555 1_555
C26_7 H18_7 1_555 1_555
H20_7 C26_7 1_555 1_555
C32_7 C24_7 1_555 1_555
H22_7 C32_7 1_555 1_555
H23_7 C32_7 1_555 1_555
H24_7 C32_7 1_555 1_555
O22_7 Zr7_3 1_555 1_555
Zr10_3 O22_7 1_555 1_555
O9_7 H32_2 1_555 1_555
O15_7 C29_7 1_555 1_555
C17_7 H13_7 1_555 1_555
O24_5 C29_7 1_555 1_555
C19_7 C17_7 1_555 1_555
H14_7 C19_7 1_555 1_555
C20_7 C19_7 1_555 1_555
C21_7 H15_7 1_555 1_555
C22_7 C21_7 1_555 1_555
H16_7 C22_7 1_555 1_555
C23_7 C22_7 1_555 1_555
C27_7 C18_7 1_555 1_555
H21_7 C27_7 1_555 1_555
C28_7 C17_7 1_555 1_555
C29_7 C20_7 1_555 1_555
C30_7 C21_7 1_555 1_555
C31_7 O17_3 1_555 1_555
Zr6 O15_7 1_555 1_555
C18_7 C28_7 1_555 1_555
C20_7 C27_7 1_555 1_555
C23_7 C31_7 1_555 1_555
C28_7 C30_7 1_555 1_555
O2_7 C15_7 1_555 1_555
O21_2 C13_7 1_555 1_555
C1_7 H1_7 1_555 1_555
O23_2 C13_7 1_555 1_555
C3_7 C1_7 1_555 1_555
H2_7 C3_7 1_555 1_555
C4_7 C3_7 1_555 1_555
C5_7 H3_7 1_555 1_555
C6_7 C5_7 1_555 1_555
H4_7 C6_7 1_555 1_555
C7_7 C6_7 1_555 1_555
C11_7 C2_7 1_555 1_555
H9_7 C11_7 1_555 1_555
C12_7 C1_7 1_555 1_555
C13_7 C4_7 1_555 1_555
C14_7 C5_7 1_555 1_555
Zr5_4 O2_7 1_555 1_555
C2_7 C12_7 1_555 1_555
C4_7 C11_7 1_555 1_555
C7_7 C15_7 1_555 1_555
C12_7 C14_7 1_555 1_555
Zr7 O1_8 1_555 1_555
O2_8 C15_8 1_555 1_555
O4_8 Zr7 1_555 1_555
O21_4 C13_8 1_555 1_555
O7_8 Zr7 1_555 1_555
C1_8 H1_8 1_555 1_555
O23_3 C13_8 1_555 1_555
O9_8 Zr10 1_555 1_555
O10_8 Zr10 1_555 1_555
C2_8 C10_8 1_555 1_555
C3_8 C1_8 1_555 1_555
H2_8 C3_8 1_555 1_555
C4_8 C3_8 1_555 1_555
C5_8 H3_8 1_555 1_555
C6_8 C5_8 1_555 1_555
H4_8 C6_8 1_555 1_555
C7_8 C6_8 1_555 1_555
C8_8 C9_8 1_555 1_555
C9_8 C7_8 1_555 1_555
H5_8 C9_8 1_555 1_555
C10_8 H6_8 1_555 1_555
H7_8 C10_8 1_555 1_555
H8_8 C10_8 1_555 1_555
C11_8 C2_8 1_555 1_555
H9_8 C11_8 1_555 1_555
C12_8 C1_8 1_555 1_555
C13_8 C4_8 1_555 1_555
C14_8 C5_8 1_555 1_555
C15_8 O4_8 1_555 1_555
C16_8 C8_8 1_555 1_555
H10_8 C16_8 1_555 1_555
H11_8 C16_8 1_555 1_555
H12_8 C16_8 1_555 1_555
O14_8 Zr7 1_555 1_555
O15_8 C29_8 1_555 1_555
C17_8 H13_8 1_555 1_555
O24_4 C29_8 1_555 1_555
C18_8 C26_8 1_555 1_555
C19_8 C17_8 1_555 1_555
H14_8 C19_8 1_555 1_555
C20_8 C19_8 1_555 1_555
C21_8 H15_8 1_555 1_555
C22_8 C21_8 1_555 1_555
H16_8 C22_8 1_555 1_555
C23_8 C22_8 1_555 1_555
C24_8 C25_8 1_555 1_555
C25_8 C23_8 1_555 1_555
H17_8 C25_8 1_555 1_555
C26_8 H18_8 1_555 1_555
H19_8 C26_8 1_555 1_555
H20_8 C26_8 1_555 1_555
C27_8 C18_8 1_555 1_555
H21_8 C27_8 1_555 1_555
C28_8 C17_8 1_555 1_555
C29_8 C20_8 1_555 1_555
C30_8 C21_8 1_555 1_555
C31_8 O17 1_555 1_555
C32_8 C24_8 1_555 1_555
H22_8 C32_8 1_555 1_555
H23_8 C32_8 1_555 1_555
H24_8 C32_8 1_555 1_555
Zr5 O2_8 1_555 1_555
Zr5_2 O15_8 1_555 1_555
O22_8 Zr7 1_555 1_555
Zr10 O22_8 1_555 1_555
C2_8 C12_8 1_555 1_555
C4_8 C11_8 1_555 1_555
C7_8 C15_8 1_555 1_555
C8_8 C14_8 1_555 1_555
C12_8 C14_8 1_555 1_555
O14_8 C31_8 1_555 1_555
C18_8 C28_8 1_555 1_555
C20_8 C27_8 1_555 1_555
C23_8 C31_8 1_555 1_555
C24_8 C30_8 1_555 1_555
C28_8 C30_8 1_555 1_555
Zr5 O22_8 1_555 1_555
O7_5 H29_5 1_555 1_555
O9_7 H32_3 1_555 1_555
O7_6 H29_6 1_555 1_555
O7_2 H29_7 1_555 1_555
O7_4 H29_8 1_555 1_555
O9_3 H32_4 1_555 1_555

#END
