
###############################################################################
#
# This file contains modified crystal structure data generated from the
# MOF subset of the Cambridge Structural Database (CSD) v543 
# hosted by the Cambridge Crystallographic Data Centre (CCDC).
#
# This work is licensed under the Creative Commons
# Attribution-NonCommercial-ShareAlike 4.0 International License.
# To view a copy of this license, visit
# http://creativecommons.org/licenses/by-nc-sa/4.0/
# or send a letter to
# Creative Commons, PO Box 1866, Mountain View, CA 94042, USA.
#
# CIF created using the CSD Python API on 29 September 2022
# The structure has been converted into the P1 space group
# The structure has a 3D framework
# The original CSD entry IXEJOM is in the tetragonal crystal system
# The framework has been calculated to contain at least 10.0% void space
# The void calculation uses a probe of radius 1.32A, grid spacing 0.4
# H atom positions have been added when not included in the experimental data
# Generated hydrogen atom positions removed from atoms on special positions
#
###############################################################################

data_IXEJOM
_chemical_formula_moiety         '(C128 H144 F48 O61 Zr15)n'
_symmetry_cell_setting           triclinic
_symmetry_space_group_name_H-M   'P 1'
_symmetry_Int_Tables_number      1
_space_group_name_Hall           'P 1'
loop_
_symmetry_equiv_pos_site_id
_symmetry_equiv_pos_as_xyz
1 x,y,z
_cell_length_a                   24.257(6)
_cell_length_b                   24.257(6)
_cell_length_c                   15.025(4)
_cell_angle_alpha                90
_cell_angle_beta                 90
_cell_angle_gamma                90
_cell_volume                     8840.74
loop_
_atom_site_label
_atom_site_type_symbol
_atom_site_fract_x
_atom_site_fract_y
_atom_site_fract_z
Zr5 Zr -0.0000 0.39963(3) 0.5000
Zr1 Zr 0.39963(3) 0.0000 0.0000
Zr2 Zr 0.5000 0.07268(3) 0.11689(6)
O1 O 0.35189(14) 0.05427(14) 0.0865(3)
O2 O 0.4507(3) 0.0000 0.1160(5)
O3 O 0.5000 0.1633(3) 0.1085(6)
O4 O 0.5000 0.0723(4) 0.2591(5)
O5 O 0.41703(18) 0.1028(2) 0.1645(4)
C1 C 0.3666(3) 0.0930(3) 0.1393(5)
C2 C 0.3230(2) 0.1287(2) 0.1744(5)
C3 C 0.2711(2) 0.1293(2) 0.1353(4)
H1 H 0.2631 0.1043 0.0884
C4 C 0.2303(2) 0.1664(3) 0.1640(4)
C5 C 0.3346(2) 0.1651(2) 0.2429(5)
H2 H 0.3700 0.1648 0.2700
C6 C 0.2432(3) 0.2030(3) 0.2331(6)
C7 C 0.2944(3) 0.2025(3) 0.2725(5)
H3 H 0.3025 0.2274 0.3195
C8 C 0.1754(2) 0.1632(3) 0.1147(4)
F1 F 0.1322(3) 0.1512(5) 0.1667(6)
F2 F 0.1627(4) 0.2105(3) 0.0734(7)
F3 F 0.1763(3) 0.1244(3) 0.0513(6)
O7 O 0.05427(14) 0.35189(14) 0.4135(3)
O8 O 0.1028(2) 0.41703(18) 0.3355(4)
C9 C 0.0930(3) 0.3666(3) 0.3607(5)
C10 C 0.1287(2) 0.3230(2) 0.3256(5)
C11 C 0.1293(2) 0.2711(2) 0.3647(4)
H4 H 0.1043 0.2631 0.4116
C12 C 0.1664(3) 0.2303(2) 0.3360(4)
C13 C 0.1651(2) 0.3346(2) 0.2571(5)
H5 H 0.1648 0.3700 0.2300
C14 C 0.2030(3) 0.2432(3) 0.2669(6)
C15 C 0.2025(3) 0.2944(3) 0.2275(5)
H6 H 0.2274 0.3025 0.1805
C16 C 0.1632(3) 0.1754(2) 0.3853(4)
F4 F 0.1512(5) 0.1322(3) 0.3333(6)
F5 F 0.2105(3) 0.1627(4) 0.4266(7)
F6 F 0.1244(3) 0.1763(3) 0.4487(6)
O9 O 0.5493(3) 0.0000 0.1160(5)
O12 O 0.5489(3) 0.0728(3) 0.0000
O13 O 0.64811(14) 0.05427(14) 0.0865(3)
O14 O 0.58297(18) 0.1028(2) 0.1645(4)
C17 C 0.6334(3) 0.0930(3) 0.1393(5)
C18 C 0.6770(2) 0.1287(2) 0.1744(5)
C19 C 0.7289(2) 0.1293(2) 0.1353(4)
H7 H 0.7369 0.1043 0.0884
C20 C 0.7697(2) 0.1664(3) 0.1640(4)
C21 C 0.6654(2) 0.1651(2) 0.2429(5)
H8 H 0.6300 0.1648 0.2700
C22 C 0.7568(3) 0.2030(3) 0.2331(6)
C23 C 0.7056(3) 0.2025(3) 0.2725(5)
H9 H 0.6975 0.2274 0.3195
C24 C 0.8246(2) 0.1632(3) 0.1147(4)
F7 F 0.8678(3) 0.1512(5) 0.1667(6)
F8 F 0.8373(4) 0.2105(3) 0.0734(7)
F9 F 0.8237(3) 0.1244(3) 0.0513(6)
O15 O 0.94573(14) 0.35189(14) 0.4135(3)
O16 O 0.8972(2) 0.41703(18) 0.3355(4)
C25 C 0.9070(3) 0.3666(3) 0.3607(5)
C26 C 0.8713(2) 0.3230(2) 0.3256(5)
C27 C 0.8707(2) 0.2711(2) 0.3647(4)
H10 H 0.8957 0.2631 0.4116
C28 C 0.8336(3) 0.2303(2) 0.3360(4)
C29 C 0.8349(2) 0.3346(2) 0.2571(5)
H11 H 0.8352 0.3700 0.2300
C30 C 0.7970(3) 0.2432(3) 0.2669(6)
C31 C 0.7975(3) 0.2944(3) 0.2275(5)
H12 H 0.7726 0.3025 0.1805
C32 C 0.8368(3) 0.1754(2) 0.3853(4)
F10 F 0.8488(5) 0.1322(3) 0.3333(6)
F11 F 0.7895(3) 0.1627(4) 0.4266(7)
F12 F 0.8756(3) 0.1763(3) 0.4487(6)
Zr5_2 Zr 1.0000 0.39963(3) 0.5000
Zr6 Zr 0.60037(3) 0.0000 0.0000
Zr9 Zr 0.07268(3) 0.5000 0.38311(6)
Zr10 Zr 0.92732(3) 0.5000 0.38311(6)
O23 O 0.4511(3) 0.0728(3) 0.0000
Zr1_2 Zr 0.39963(3) 0.0000 1.0000
O12_2 O 0.5489(3) 0.0728(3) 1.0000
Zr6_2 Zr 0.60037(3) 0.0000 1.0000
Zr8 Zr 0.5000 0.07268(3) 0.88311(6)
O18 O 0.35189(14) 0.05427(14) 0.9135(3)
O20 O 0.4507(3) 0.0000 0.8840(5)
O23_2 O 0.4511(3) 0.0728(3) 1.0000
Zr1_3 Zr 0.39963(3) 1.0000 0.0000
O2_2 O 0.4507(3) 1.0000 0.1160(5)
O6 O 0.4511(3) 0.9272(3) 0.0000
Zr3 Zr 0.5000 0.92732(3) 0.11689(6)
O9_2 O 0.5493(3) 1.0000 0.1160(5)
O10 O 0.5000 0.8367(3) 0.1085(6)
O11 O 0.5000 0.9277(4) 0.2591(5)
Zr6_3 Zr 0.60037(3) 1.0000 0.0000
O19 O 0.35189(14) 0.94573(14) 0.0865(3)
O21 O 0.58297(18) 0.8972(2) 0.1645(4)
O22 O 0.41703(18) 0.8972(2) 0.1645(4)
O24 O 0.5489(3) 0.9272(3) 0.0000
Zr1_4 Zr 0.39963(3) 1.0000 1.0000
O6_2 O 0.4511(3) 0.9272(3) 1.0000
Zr6_4 Zr 0.60037(3) 1.0000 1.0000
Zr7 Zr 0.5000 0.92732(3) 0.88311(6)
O17 O 0.35189(14) 0.94573(14) 0.9135(3)
O20_2 O 0.4507(3) 1.0000 0.8840(5)
O24_2 O 0.5489(3) 0.9272(3) 1.0000
O2_3 O -0.0000 0.4507(3) 0.6160(5)
O6_3 O 0.0728(3) 0.4511(3) 0.5000
Zr3_2 Zr 0.07268(3) 0.5000 0.61689(6)
O9_3 O 0.0000 0.5493(3) 0.6160(5)
O10_2 O 0.1633(3) 0.5000 0.6085(6)
O11_2 O 0.0723(4) 0.5000 0.7591(5)
Zr6_5 Zr -0.0000 0.60037(3) 0.5000
O19_2 O 0.05427(14) 0.35189(14) 0.5865(3)
O20_3 O -0.0000 0.4507(3) 0.3840(5)
O21_2 O 0.1028(2) 0.58297(18) 0.6645(4)
O22_2 O 0.1028(2) 0.41703(18) 0.6645(4)
O24_3 O 0.0728(3) 0.5489(3) 0.5000
Zr2_2 Zr 0.92732(3) 0.5000 0.61689(6)
O1_2 O 0.94573(14) 0.35189(14) 0.5865(3)
O2_4 O 1.0000 0.4507(3) 0.6160(5)
O3_2 O 0.8367(3) 0.5000 0.6085(6)
O4_2 O 0.9277(4) 0.5000 0.7591(5)
O5_2 O 0.8972(2) 0.41703(18) 0.6645(4)
C1_2 C 0.9070(3) 0.3666(3) 0.6393(5)
C2_2 C 0.8713(2) 0.3230(2) 0.6744(5)
C3_2 C 0.8707(2) 0.2711(2) 0.6353(4)
H1_2 H 0.8957 0.2631 0.5884
C4_2 C 0.8336(3) 0.2303(2) 0.6640(4)
C5_2 C 0.8349(2) 0.3346(2) 0.7429(5)
H2_2 H 0.8352 0.3700 0.7700
C6_2 C 0.7970(3) 0.2432(3) 0.7331(6)
C7_2 C 0.7975(3) 0.2944(3) 0.7725(5)
H3_2 H 0.7726 0.3025 0.8195
C8_2 C 0.8368(3) 0.1754(2) 0.6147(4)
F1_2 F 0.8488(5) 0.1322(3) 0.6667(6)
F2_2 F 0.7895(3) 0.1627(4) 0.5734(7)
F3_2 F 0.8756(3) 0.1763(3) 0.5513(6)
O7_2 O 0.64811(14) 0.05427(14) 0.9135(3)
O8_2 O 0.58297(18) 0.1028(2) 0.8355(4)
C9_2 C 0.6334(3) 0.0930(3) 0.8607(5)
C10_2 C 0.6770(2) 0.1287(2) 0.8256(5)
C11_2 C 0.7289(2) 0.1293(2) 0.8647(4)
H4_2 H 0.7369 0.1043 0.9116
C12_2 C 0.7697(2) 0.1664(3) 0.8360(4)
C13_2 C 0.6654(2) 0.1651(2) 0.7571(5)
H5_2 H 0.6300 0.1648 0.7300
C14_2 C 0.7568(3) 0.2030(3) 0.7669(6)
C15_2 C 0.7056(3) 0.2025(3) 0.7275(5)
H6_2 H 0.6975 0.2274 0.6805
C16_2 C 0.8246(2) 0.1632(3) 0.8853(4)
F4_2 F 0.8678(3) 0.1512(5) 0.8333(6)
F5_2 F 0.8373(4) 0.2105(3) 0.9266(7)
F6_2 F 0.8237(3) 0.1244(3) 0.9487(6)
O9_4 O 1.0000 0.5493(3) 0.6160(5)
O12_3 O 0.9272(3) 0.5489(3) 0.5000
O13_2 O 0.94573(14) 0.64811(14) 0.5865(3)
O14_2 O 0.8972(2) 0.58297(18) 0.6645(4)
C17_2 C 0.9070(3) 0.6334(3) 0.6393(5)
C18_2 C 0.8713(2) 0.6770(2) 0.6744(5)
C19_2 C 0.8707(2) 0.7289(2) 0.6353(4)
H7_2 H 0.8957 0.7369 0.5884
C20_2 C 0.8336(3) 0.7697(2) 0.6640(4)
C21_2 C 0.8349(2) 0.6654(2) 0.7429(5)
H8_2 H 0.8352 0.6300 0.7700
C22_2 C 0.7970(3) 0.7568(3) 0.7331(6)
C23_2 C 0.7975(3) 0.7056(3) 0.7725(5)
H9_2 H 0.7726 0.6975 0.8195
C24_2 C 0.8368(3) 0.8246(2) 0.6147(4)
F7_2 F 0.8488(5) 0.8678(3) 0.6667(6)
F8_2 F 0.7895(3) 0.8373(4) 0.5734(7)
F9_2 F 0.8756(3) 0.8237(3) 0.5513(6)
O15_2 O 0.64811(14) 0.94573(14) 0.9135(3)
O16_2 O 0.58297(18) 0.8972(2) 0.8355(4)
C25_2 C 0.6334(3) 0.9070(3) 0.8607(5)
C26_2 C 0.6770(2) 0.8713(2) 0.8256(5)
C27_2 C 0.7289(2) 0.8707(2) 0.8647(4)
H10_2 H 0.7369 0.8957 0.9116
C28_2 C 0.7697(2) 0.8336(3) 0.8360(4)
C29_2 C 0.6654(2) 0.8349(2) 0.7571(5)
H11_2 H 0.6300 0.8352 0.7300
C30_2 C 0.7568(3) 0.7970(3) 0.7669(6)
C31_2 C 0.7056(3) 0.7975(3) 0.7275(5)
H12_2 H 0.6975 0.7726 0.6805
C32_2 C 0.8246(2) 0.8368(3) 0.8853(4)
F10_2 F 0.8678(3) 0.8488(5) 0.8333(6)
F11_2 F 0.8373(4) 0.7895(3) 0.9266(7)
F12_2 F 0.8237(3) 0.8756(3) 0.9487(6)
Zr6_6 Zr 1.0000 0.60037(3) 0.5000
O20_4 O 1.0000 0.4507(3) 0.3840(5)
O23_3 O 0.9272(3) 0.4511(3) 0.5000
O20_5 O 0.5493(3) 0.0000 0.8840(5)
O1_3 O 0.64811(14) 0.94573(14) 0.0865(3)
C1_3 C 0.6334(3) 0.9070(3) 0.1393(5)
C2_3 C 0.6770(2) 0.8713(2) 0.1744(5)
C3_3 C 0.7289(2) 0.8707(2) 0.1353(4)
H1_3 H 0.7369 0.8957 0.0884
C4_3 C 0.7697(2) 0.8336(3) 0.1640(4)
C5_3 C 0.6654(2) 0.8349(2) 0.2429(5)
H2_3 H 0.6300 0.8352 0.2700
C6_3 C 0.7568(3) 0.7970(3) 0.2331(6)
C7_3 C 0.7056(3) 0.7975(3) 0.2725(5)
H3_3 H 0.6975 0.7726 0.3195
C8_3 C 0.8246(2) 0.8368(3) 0.1147(4)
F1_3 F 0.8678(3) 0.8488(5) 0.1667(6)
F2_3 F 0.8373(4) 0.7895(3) 0.0734(7)
F3_3 F 0.8237(3) 0.8756(3) 0.0513(6)
O7_3 O 0.94573(14) 0.64811(14) 0.4135(3)
O8_3 O 0.8972(2) 0.58297(18) 0.3355(4)
C9_3 C 0.9070(3) 0.6334(3) 0.3607(5)
C10_3 C 0.8713(2) 0.6770(2) 0.3256(5)
C11_3 C 0.8707(2) 0.7289(2) 0.3647(4)
H4_3 H 0.8957 0.7369 0.4116
C12_3 C 0.8336(3) 0.7697(2) 0.3360(4)
C13_3 C 0.8349(2) 0.6654(2) 0.2571(5)
H5_3 H 0.8352 0.6300 0.2300
C14_3 C 0.7970(3) 0.7568(3) 0.2669(6)
C15_3 C 0.7975(3) 0.7056(3) 0.2275(5)
H6_3 H 0.7726 0.6975 0.1805
C16_3 C 0.8368(3) 0.8246(2) 0.3853(4)
F4_3 F 0.8488(5) 0.8678(3) 0.3333(6)
F5_3 F 0.7895(3) 0.8373(4) 0.4266(7)
F6_3 F 0.8756(3) 0.8237(3) 0.4487(6)
C17_3 C 0.3666(3) 0.9070(3) 0.1393(5)
C18_3 C 0.3230(2) 0.8713(2) 0.1744(5)
C19_3 C 0.2711(2) 0.8707(2) 0.1353(4)
H7_3 H 0.2631 0.8957 0.0884
C20_3 C 0.2303(2) 0.8336(3) 0.1640(4)
C21_3 C 0.3346(2) 0.8349(2) 0.2429(5)
H8_3 H 0.3700 0.8352 0.2700
C22_3 C 0.2432(3) 0.7970(3) 0.2331(6)
C23_3 C 0.2944(3) 0.7975(3) 0.2725(5)
H9_3 H 0.3025 0.7726 0.3195
C24_3 C 0.1754(2) 0.8368(3) 0.1147(4)
F7_3 F 0.1322(3) 0.8488(5) 0.1667(6)
F8_3 F 0.1627(4) 0.7895(3) 0.0734(7)
F9_3 F 0.1763(3) 0.8756(3) 0.0513(6)
O15_3 O 0.05427(14) 0.64811(14) 0.4135(3)
O16_3 O 0.1028(2) 0.58297(18) 0.3355(4)
C25_3 C 0.0930(3) 0.6334(3) 0.3607(5)
C26_3 C 0.1287(2) 0.6770(2) 0.3256(5)
C27_3 C 0.1293(2) 0.7289(2) 0.3647(4)
H10_3 H 0.1043 0.7369 0.4116
C28_3 C 0.1664(3) 0.7697(2) 0.3360(4)
C29_3 C 0.1651(2) 0.6654(2) 0.2571(5)
H11_3 H 0.1648 0.6300 0.2300
C30_3 C 0.2030(3) 0.7568(3) 0.2669(6)
C31_3 C 0.2025(3) 0.7056(3) 0.2275(5)
H12_3 H 0.2274 0.6975 0.1805
C32_3 C 0.1632(3) 0.8246(2) 0.3853(4)
F10_3 F 0.1512(5) 0.8678(3) 0.3333(6)
F11_3 F 0.2105(3) 0.8373(4) 0.4266(7)
F12_3 F 0.1244(3) 0.8237(3) 0.4487(6)
O20_6 O 0.5493(3) 1.0000 0.8840(5)
O1_4 O 0.05427(14) 0.64811(14) 0.5865(3)
C1_4 C 0.0930(3) 0.6334(3) 0.6393(5)
C2_4 C 0.1287(2) 0.6770(2) 0.6744(5)
C3_4 C 0.1293(2) 0.7289(2) 0.6353(4)
H1_4 H 0.1043 0.7369 0.5884
C4_4 C 0.1664(3) 0.7697(2) 0.6640(4)
C5_4 C 0.1651(2) 0.6654(2) 0.7429(5)
H2_4 H 0.1648 0.6300 0.7700
C6_4 C 0.2030(3) 0.7568(3) 0.7331(6)
C7_4 C 0.2025(3) 0.7056(3) 0.7725(5)
H3_4 H 0.2274 0.6975 0.8195
C8_4 C 0.1632(3) 0.8246(2) 0.6147(4)
F1_4 F 0.1512(5) 0.8678(3) 0.6667(6)
F2_4 F 0.2105(3) 0.8373(4) 0.5734(7)
F3_4 F 0.1244(3) 0.8237(3) 0.5513(6)
O8_4 O 0.41703(18) 0.8972(2) 0.8355(4)
C9_4 C 0.3666(3) 0.9070(3) 0.8607(5)
C10_4 C 0.3230(2) 0.8713(2) 0.8256(5)
C11_4 C 0.2711(2) 0.8707(2) 0.8647(4)
H4_4 H 0.2631 0.8957 0.9116
C12_4 C 0.2303(2) 0.8336(3) 0.8360(4)
C13_4 C 0.3346(2) 0.8349(2) 0.7571(5)
H5_4 H 0.3700 0.8352 0.7300
C14_4 C 0.2432(3) 0.7970(3) 0.7669(6)
C15_4 C 0.2944(3) 0.7975(3) 0.7275(5)
H6_4 H 0.3025 0.7726 0.6805
C16_4 C 0.1754(2) 0.8368(3) 0.8853(4)
F4_4 F 0.1322(3) 0.8488(5) 0.8333(6)
F5_4 F 0.1627(4) 0.7895(3) 0.9266(7)
F6_4 F 0.1763(3) 0.8756(3) 0.9487(6)
C17_4 C 0.0930(3) 0.3666(3) 0.6393(5)
C18_4 C 0.1287(2) 0.3230(2) 0.6744(5)
C19_4 C 0.1293(2) 0.2711(2) 0.6353(4)
H7_4 H 0.1043 0.2631 0.5884
C20_4 C 0.1664(3) 0.2303(2) 0.6640(4)
C21_4 C 0.1651(2) 0.3346(2) 0.7429(5)
H8_4 H 0.1648 0.3700 0.7700
C22_4 C 0.2030(3) 0.2432(3) 0.7331(6)
C23_4 C 0.2025(3) 0.2944(3) 0.7725(5)
H9_4 H 0.2274 0.3025 0.8195
C24_4 C 0.1632(3) 0.1754(2) 0.6147(4)
F7_4 F 0.1512(5) 0.1322(3) 0.6667(6)
F8_4 F 0.2105(3) 0.1627(4) 0.5734(7)
F9_4 F 0.1244(3) 0.1763(3) 0.5513(6)
O16_4 O 0.41703(18) 0.1028(2) 0.8355(4)
C25_4 C 0.3666(3) 0.0930(3) 0.8607(5)
C26_4 C 0.3230(2) 0.1287(2) 0.8256(5)
C27_4 C 0.2711(2) 0.1293(2) 0.8647(4)
H10_4 H 0.2631 0.1043 0.9116
C28_4 C 0.2303(2) 0.1664(3) 0.8360(4)
C29_4 C 0.3346(2) 0.1651(2) 0.7571(5)
H11_4 H 0.3700 0.1648 0.7300
C30_4 C 0.2432(3) 0.2030(3) 0.7669(6)
C31_4 C 0.2944(3) 0.2025(3) 0.7275(5)
H12_4 H 0.3025 0.2274 0.6805
C32_4 C 0.1754(2) 0.1632(3) 0.8853(4)
F10_4 F 0.1322(3) 0.1512(5) 0.8333(6)
F11_4 F 0.1627(4) 0.2105(3) 0.9266(7)
F12_4 F 0.1763(3) 0.1244(3) 0.9487(6)
O20_7 O 0.0000 0.5493(3) 0.3840(5)
O20_8 O 1.0000 0.5493(3) 0.3840(5)
O10_3 O 0.5000 0.1633(3) 0.8915(6)
O11_3 O 0.5000 0.0723(4) 0.7409(5)
O3_3 O 0.5000 0.8367(3) 0.8915(6)
O4_3 O 0.5000 0.9277(4) 0.7409(5)
O3_4 O 0.1633(3) 0.5000 0.3915(6)
O4_4 O 0.0723(4) 0.5000 0.2409(5)
O10_4 O 0.8367(3) 0.5000 0.3915(6)
O11_4 O 0.9277(4) 0.5000 0.2409(5)
loop_
_geom_bond_atom_site_label_1
_geom_bond_atom_site_label_2
_geom_bond_site_symmetry_1
_geom_bond_site_symmetry_2
Zr1 O1 1_555 1_555
Zr2 O2 1_555 1_555
O1 C1 1_555 1_555
O2 Zr1 1_555 1_555
O3 Zr2 1_555 1_555
O4 Zr2 1_555 1_555
O5 Zr2 1_555 1_555
C1 O5 1_555 1_555
C2 C1 1_555 1_555
C3 C2 1_555 1_555
H1 C3 1_555 1_555
C4 C3 1_555 1_555
C5 C2 1_555 1_555
H2 C5 1_555 1_555
C6 C4 1_555 1_555
C7 C5 1_555 1_555
H3 C7 1_555 1_555
C8 C4 1_555 1_555
F1 C8 1_555 1_555
F2 C8 1_555 1_555
F3 C8 1_555 1_555
O7 C9 1_555 1_555
O8 C9 1_555 1_555
C9 C10 1_555 1_555
C10 C11 1_555 1_555
C11 H4 1_555 1_555
C12 C11 1_555 1_555
C13 C10 1_555 1_555
H5 C13 1_555 1_555
C14 C6 1_555 1_555
C15 C13 1_555 1_555
H6 C15 1_555 1_555
C16 C12 1_555 1_555
F4 C16 1_555 1_555
F5 C16 1_555 1_555
F6 C16 1_555 1_555
O9 Zr2 1_555 1_555
O12 Zr2 1_555 1_555
O13 C17 1_555 1_555
O14 Zr2 1_555 1_555
C17 O14 1_555 1_555
C18 C17 1_555 1_555
C19 C18 1_555 1_555
H7 C19 1_555 1_555
C20 C19 1_555 1_555
C21 C18 1_555 1_555
H8 C21 1_555 1_555
C22 C20 1_555 1_555
C23 C21 1_555 1_555
H9 C23 1_555 1_555
C24 C20 1_555 1_555
F7 C24 1_555 1_555
F8 C24 1_555 1_555
F9 C24 1_555 1_555
O15 C25 1_555 1_555
O16 C25 1_555 1_555
C25 C26 1_555 1_555
C26 C27 1_555 1_555
C27 H10 1_555 1_555
C28 C27 1_555 1_555
C29 C26 1_555 1_555
H11 C29 1_555 1_555
C30 C22 1_555 1_555
C31 C29 1_555 1_555
H12 C31 1_555 1_555
C32 C28 1_555 1_555
F10 C32 1_555 1_555
F11 C32 1_555 1_555
F12 C32 1_555 1_555
Zr5 O7 1_555 1_555
Zr5_2 O15 1_555 1_555
Zr6 O9 1_555 1_555
Zr9 O8 1_555 1_555
Zr10 O16 1_555 1_555
O23 Zr1 1_555 1_555
Zr2 O23 1_555 1_555
C6 C7 1_555 1_555
C12 C14 1_555 1_555
C14 C15 1_555 1_555
O12 Zr6 1_555 1_555
O13 Zr6 1_555 1_555
C22 C23 1_555 1_555
C28 C30 1_555 1_555
C30 C31 1_555 1_555
Zr8 O12_2 1_555 1_555
O18 Zr1_2 1_555 1_555
O20 Zr1_2 1_555 1_555
O23_2 Zr1_2 1_555 1_555
O12_2 Zr6_2 1_555 1_555
Zr8 O20 1_555 1_555
Zr8 O23_2 1_555 1_555
O2_2 Zr1_3 1_555 1_555
O6 Zr1_3 1_555 1_555
Zr3 O2_2 1_555 1_555
O10 Zr3 1_555 1_555
O11 Zr3 1_555 1_555
Zr6_3 O9_2 1_555 1_555
O19 Zr1_3 1_555 1_555
O21 Zr3 1_555 1_555
O22 Zr3 1_555 1_555
O24 Zr3 1_555 1_555
O6 Zr3 1_555 1_555
Zr3 O9_2 1_555 1_555
Zr6_3 O24 1_555 1_555
O6_2 Zr1_4 1_555 1_555
Zr7 O6_2 1_555 1_555
O17 Zr1_4 1_555 1_555
O20_2 Zr1_4 1_555 1_555
Zr6_4 O24_2 1_555 1_555
Zr7 O20_2 1_555 1_555
Zr7 O24_2 1_555 1_555
O2_3 Zr5 1_555 1_555
O6_3 Zr5 1_555 1_555
Zr3_2 O2_3 1_555 1_555
O10_2 Zr3_2 1_555 1_555
O11_2 Zr3_2 1_555 1_555
Zr6_5 O9_3 1_555 1_555
Zr9 O6_3 1_555 1_555
O19_2 Zr5 1_555 1_555
O20_3 Zr5 1_555 1_555
O21_2 Zr3_2 1_555 1_555
O22_2 Zr3_2 1_555 1_555
O24_3 Zr3_2 1_555 1_555
O6_3 Zr3_2 1_555 1_555
Zr3_2 O9_3 1_555 1_555
Zr6_5 O24_3 1_555 1_555
Zr9 O20_3 1_555 1_555
Zr9 O24_3 1_555 1_555
Zr5_2 O1_2 1_555 1_555
Zr2_2 O2_4 1_555 1_555
O1_2 C1_2 1_555 1_555
O2_4 Zr5_2 1_555 1_555
O3_2 Zr2_2 1_555 1_555
O4_2 Zr2_2 1_555 1_555
O5_2 Zr2_2 1_555 1_555
C1_2 O5_2 1_555 1_555
C2_2 C1_2 1_555 1_555
C3_2 C2_2 1_555 1_555
H1_2 C3_2 1_555 1_555
C4_2 C3_2 1_555 1_555
C5_2 C2_2 1_555 1_555
H2_2 C5_2 1_555 1_555
C6_2 C4_2 1_555 1_555
C7_2 C5_2 1_555 1_555
H3_2 C7_2 1_555 1_555
C8_2 C4_2 1_555 1_555
F1_2 C8_2 1_555 1_555
F2_2 C8_2 1_555 1_555
F3_2 C8_2 1_555 1_555
O7_2 C9_2 1_555 1_555
O8_2 C9_2 1_555 1_555
C9_2 C10_2 1_555 1_555
C10_2 C11_2 1_555 1_555
C11_2 H4_2 1_555 1_555
C12_2 C11_2 1_555 1_555
C13_2 C10_2 1_555 1_555
H5_2 C13_2 1_555 1_555
C14_2 C6_2 1_555 1_555
C15_2 C13_2 1_555 1_555
H6_2 C15_2 1_555 1_555
C16_2 C12_2 1_555 1_555
F4_2 C16_2 1_555 1_555
F5_2 C16_2 1_555 1_555
F6_2 C16_2 1_555 1_555
O9_4 Zr2_2 1_555 1_555
O12_3 Zr2_2 1_555 1_555
O13_2 C17_2 1_555 1_555
O14_2 Zr2_2 1_555 1_555
C17_2 O14_2 1_555 1_555
C18_2 C17_2 1_555 1_555
C19_2 C18_2 1_555 1_555
H7_2 C19_2 1_555 1_555
C20_2 C19_2 1_555 1_555
C21_2 C18_2 1_555 1_555
H8_2 C21_2 1_555 1_555
C22_2 C20_2 1_555 1_555
C23_2 C21_2 1_555 1_555
H9_2 C23_2 1_555 1_555
C24_2 C20_2 1_555 1_555
F7_2 C24_2 1_555 1_555
F8_2 C24_2 1_555 1_555
F9_2 C24_2 1_555 1_555
O15_2 C25_2 1_555 1_555
O16_2 C25_2 1_555 1_555
C25_2 C26_2 1_555 1_555
C26_2 C27_2 1_555 1_555
C27_2 H10_2 1_555 1_555
C28_2 C27_2 1_555 1_555
C29_2 C26_2 1_555 1_555
H11_2 C29_2 1_555 1_555
C30_2 C22_2 1_555 1_555
C31_2 C29_2 1_555 1_555
H12_2 C31_2 1_555 1_555
C32_2 C28_2 1_555 1_555
F10_2 C32_2 1_555 1_555
F11_2 C32_2 1_555 1_555
F12_2 C32_2 1_555 1_555
Zr6_2 O7_2 1_555 1_555
Zr6_4 O15_2 1_555 1_555
Zr6_6 O9_4 1_555 1_555
Zr10 O12_3 1_555 1_555
Zr8 O8_2 1_555 1_555
Zr7 O16_2 1_555 1_555
O20_4 Zr5_2 1_555 1_555
O23_3 Zr5_2 1_555 1_555
Zr2_2 O23_3 1_555 1_555
C6_2 C7_2 1_555 1_555
C12_2 C14_2 1_555 1_555
C14_2 C15_2 1_555 1_555
O12_3 Zr6_6 1_555 1_555
O13_2 Zr6_6 1_555 1_555
C22_2 C23_2 1_555 1_555
C28_2 C30_2 1_555 1_555
C30_2 C31_2 1_555 1_555
Zr10 O20_4 1_555 1_555
Zr10 O23_3 1_555 1_555
O20_5 Zr6_2 1_555 1_555
Zr8 O20_5 1_555 1_555
Zr6_3 O1_3 1_555 1_555
O1_3 C1_3 1_555 1_555
C1_3 O21 1_555 1_555
C2_3 C1_3 1_555 1_555
C3_3 C2_3 1_555 1_555
H1_3 C3_3 1_555 1_555
C4_3 C3_3 1_555 1_555
C5_3 C2_3 1_555 1_555
H2_3 C5_3 1_555 1_555
C6_3 C4_3 1_555 1_555
C7_3 C5_3 1_555 1_555
H3_3 C7_3 1_555 1_555
C8_3 C4_3 1_555 1_555
F1_3 C8_3 1_555 1_555
F2_3 C8_3 1_555 1_555
F3_3 C8_3 1_555 1_555
O7_3 C9_3 1_555 1_555
O8_3 C9_3 1_555 1_555
C9_3 C10_3 1_555 1_555
C10_3 C11_3 1_555 1_555
C11_3 H4_3 1_555 1_555
C12_3 C11_3 1_555 1_555
C13_3 C10_3 1_555 1_555
H5_3 C13_3 1_555 1_555
C14_3 C6_3 1_555 1_555
C15_3 C13_3 1_555 1_555
H6_3 C15_3 1_555 1_555
C16_3 C12_3 1_555 1_555
F4_3 C16_3 1_555 1_555
F5_3 C16_3 1_555 1_555
F6_3 C16_3 1_555 1_555
O19 C17_3 1_555 1_555
C17_3 O22 1_555 1_555
C18_3 C17_3 1_555 1_555
C19_3 C18_3 1_555 1_555
H7_3 C19_3 1_555 1_555
C20_3 C19_3 1_555 1_555
C21_3 C18_3 1_555 1_555
H8_3 C21_3 1_555 1_555
C22_3 C20_3 1_555 1_555
C23_3 C21_3 1_555 1_555
H9_3 C23_3 1_555 1_555
C24_3 C20_3 1_555 1_555
F7_3 C24_3 1_555 1_555
F8_3 C24_3 1_555 1_555
F9_3 C24_3 1_555 1_555
O15_3 C25_3 1_555 1_555
O16_3 C25_3 1_555 1_555
C25_3 C26_3 1_555 1_555
C26_3 C27_3 1_555 1_555
C27_3 H10_3 1_555 1_555
C28_3 C27_3 1_555 1_555
C29_3 C26_3 1_555 1_555
H11_3 C29_3 1_555 1_555
C30_3 C22_3 1_555 1_555
C31_3 C29_3 1_555 1_555
H12_3 C31_3 1_555 1_555
C32_3 C28_3 1_555 1_555
F10_3 C32_3 1_555 1_555
F11_3 C32_3 1_555 1_555
F12_3 C32_3 1_555 1_555
Zr6_6 O7_3 1_555 1_555
Zr6_5 O15_3 1_555 1_555
Zr10 O8_3 1_555 1_555
Zr9 O16_3 1_555 1_555
C6_3 C7_3 1_555 1_555
C12_3 C14_3 1_555 1_555
C14_3 C15_3 1_555 1_555
C22_3 C23_3 1_555 1_555
C28_3 C30_3 1_555 1_555
C30_3 C31_3 1_555 1_555
O20_6 Zr6_4 1_555 1_555
Zr7 O20_6 1_555 1_555
Zr6_5 O1_4 1_555 1_555
O1_4 C1_4 1_555 1_555
C1_4 O21_2 1_555 1_555
C2_4 C1_4 1_555 1_555
C3_4 C2_4 1_555 1_555
H1_4 C3_4 1_555 1_555
C4_4 C3_4 1_555 1_555
C5_4 C2_4 1_555 1_555
H2_4 C5_4 1_555 1_555
C6_4 C4_4 1_555 1_555
C7_4 C5_4 1_555 1_555
H3_4 C7_4 1_555 1_555
C8_4 C4_4 1_555 1_555
F1_4 C8_4 1_555 1_555
F2_4 C8_4 1_555 1_555
F3_4 C8_4 1_555 1_555
O17 C9_4 1_555 1_555
O8_4 C9_4 1_555 1_555
C9_4 C10_4 1_555 1_555
C10_4 C11_4 1_555 1_555
C11_4 H4_4 1_555 1_555
C12_4 C11_4 1_555 1_555
C13_4 C10_4 1_555 1_555
H5_4 C13_4 1_555 1_555
C14_4 C6_4 1_555 1_555
C15_4 C13_4 1_555 1_555
H6_4 C15_4 1_555 1_555
C16_4 C12_4 1_555 1_555
F4_4 C16_4 1_555 1_555
F5_4 C16_4 1_555 1_555
F6_4 C16_4 1_555 1_555
O19_2 C17_4 1_555 1_555
C17_4 O22_2 1_555 1_555
C18_4 C17_4 1_555 1_555
C19_4 C18_4 1_555 1_555
H7_4 C19_4 1_555 1_555
C20_4 C19_4 1_555 1_555
C21_4 C18_4 1_555 1_555
H8_4 C21_4 1_555 1_555
C22_4 C20_4 1_555 1_555
C23_4 C21_4 1_555 1_555
H9_4 C23_4 1_555 1_555
C24_4 C20_4 1_555 1_555
F7_4 C24_4 1_555 1_555
F8_4 C24_4 1_555 1_555
F9_4 C24_4 1_555 1_555
O18 C25_4 1_555 1_555
O16_4 C25_4 1_555 1_555
C25_4 C26_4 1_555 1_555
C26_4 C27_4 1_555 1_555
C27_4 H10_4 1_555 1_555
C28_4 C27_4 1_555 1_555
C29_4 C26_4 1_555 1_555
H11_4 C29_4 1_555 1_555
C30_4 C22_4 1_555 1_555
C31_4 C29_4 1_555 1_555
H12_4 C31_4 1_555 1_555
C32_4 C28_4 1_555 1_555
F10_4 C32_4 1_555 1_555
F11_4 C32_4 1_555 1_555
F12_4 C32_4 1_555 1_555
Zr7 O8_4 1_555 1_555
Zr8 O16_4 1_555 1_555
O20_7 Zr6_5 1_555 1_555
C6_4 C7_4 1_555 1_555
C12_4 C14_4 1_555 1_555
C14_4 C15_4 1_555 1_555
C22_4 C23_4 1_555 1_555
C28_4 C30_4 1_555 1_555
C30_4 C31_4 1_555 1_555
Zr9 O20_7 1_555 1_555
O20_8 Zr6_6 1_555 1_555
Zr10 O20_8 1_555 1_555
O10_3 Zr8 1_555 1_555
O11_3 Zr8 1_555 1_555
O3_3 Zr7 1_555 1_555
O4_3 Zr7 1_555 1_555
O3_4 Zr9 1_555 1_555
O4_4 Zr9 1_555 1_555
O10_4 Zr10 1_555 1_555
O11_4 Zr10 1_555 1_555

#END
