
###############################################################################
#
# This file contains modified crystal structure data generated from the
# MOF subset of the Cambridge Structural Database (CSD) v543 
# hosted by the Cambridge Crystallographic Data Centre (CCDC).
#
# This work is licensed under the Creative Commons
# Attribution-NonCommercial-ShareAlike 4.0 International License.
# To view a copy of this license, visit
# http://creativecommons.org/licenses/by-nc-sa/4.0/
# or send a letter to
# Creative Commons, PO Box 1866, Mountain View, CA 94042, USA.
#
# CIF created using the CSD Python API on 29 September 2022
# The structure has been converted into the P1 space group
# The structure has a 3D framework
# The original CSD entry IXIXIZ is in the monoclinic crystal system
# The framework has been calculated to contain at least 10.0% void space
# The void calculation uses a probe of radius 1.32A, grid spacing 0.4
#
###############################################################################

data_IXIXIZ
_chemical_formula_moiety         '(C86 H80 N8 O56 U8 1+)n'
_symmetry_cell_setting           triclinic
_symmetry_space_group_name_H-M   'P 1'
_symmetry_Int_Tables_number      1
_space_group_name_Hall           'P 1'
loop_
_symmetry_equiv_pos_site_id
_symmetry_equiv_pos_as_xyz
1 x,y,z
_cell_length_a                   18.181(3)
_cell_length_b                   14.565(3)
_cell_length_c                   27.228(5)
_cell_angle_alpha                90
_cell_angle_beta                 93.017(6)
_cell_angle_gamma                90
_cell_volume                     7200.15
loop_
_atom_site_label
_atom_site_type_symbol
_atom_site_fract_x
_atom_site_fract_y
_atom_site_fract_z
O17 O 0.2099(12) 0.1199(13) 0.2232(6)
C32 C 0.2655(12) 0.0450(12) 0.1596(7)
C33 C 0.2088(13) 0.0555(14) 0.1249(7)
H31 H 0.1629 0.0733 0.1350
O18 O 0.2830(8) 0.0008(9) 0.2431(5)
N4 N 0.2173(10) 0.0411(13) 0.0767(6)
C34 C 0.3337(13) 0.0182(14) 0.1438(7)
H32 H 0.3735 0.0105 0.1664
C35 C 0.0887(12) 0.0089(16) 0.0435(7)
H34 H 0.0653 0.0269 0.0732
C36 C 0.2515(13) 0.0561(14) 0.2121(7)
C37 C 0.3420(13) 0.0028(16) 0.0933(8)
C38 C 0.0356(14) 0.023(2) -0.0000(9)
C39 C 0.1584(14) 0.0627(19) 0.0395(8)
H38 H 0.1468 0.1275 0.0419
H39 H 0.1769 0.0521 0.0072
C40 C 0.2841(14) 0.0117(17) 0.0610(8)
C6 C -0.0000 0.3965(17) 0.7500
C7 C -0.0000 0.2921(17) 0.7500
C38_2 C 0.0356(14) 0.023(2) 1.0000(9)
H36 H 0.0598 0.0043 0.9707
H37 H 0.0264 0.0888 0.9969
O21 O 0.0606(7) 0.2514(8) 0.7433(4)
O22 O 0.0619(7) 0.4348(8) 0.7555(5)
U5 U 0.17689(4) 0.33690(5) 0.76014(2)
H33 H 0.1006 0.9441 0.0462
H35 H 0.3877 0.9864 0.0823
H40 H 0.2892 0.9980 0.0280
U7 U 0.32515(4) 0.85205(5) 0.25444(2)
U1 U 0.82311(4) 0.33690(5) 0.73986(2)
O1 O 0.7448(13) 0.5668(14) 0.7728(6)
U2 U 0.67485(4) 0.14795(5) 0.74556(2)
O2 O 0.7788(8) 0.4783(9) 0.7115(5)
O3 O 0.8008(7) 0.1794(8) 0.7517(4)
O4 O 0.6728(8) 0.1629(9) 0.8105(5)
O5 O 0.6984(7) 0.3050(9) 0.7335(4)
C1 C 0.5513(13) 0.5547(15) 0.5568(7)
H1 H 0.5457 0.5045 0.5797
H2 H 0.5150 0.6012 0.5636
C2 C 0.6842(11) 0.5774(13) 0.6470(7)
H3 H 0.6977 0.5183 0.6382
O7 O 0.5584(7) 0.2326(9) 0.7395(5)
C3 C 0.5000 0.1945(18) 0.7500
O8 O 0.8344(7) 0.3164(9) 0.6765(4)
O9 O 0.9394(7) 0.2514(8) 0.7567(4)
O10 O 0.8173(8) 0.3614(10) 0.8033(5)
C6_2 C 1.0000 0.3965(17) 0.7500
O12 O 0.6722(8) 0.1298(9) 0.6816(5)
O13 O 0.5605(7) 0.0507(9) 0.7489(5)
O14 O 0.9381(7) 0.4348(8) 0.7445(5)
N1 N 0.6474(10) 0.6304(11) 0.6137(6)
C7_2 C 1.0000 0.2921(17) 0.7500
C8 C 0.7443(12) 0.5483(14) 0.7303(7)
C9 C 0.5000 0.0910(19) 0.7500
C10 C 0.7025(12) 0.6083(14) 0.6938(7)
H6 H 0.8994 0.0559 0.9538
C14 C 0.6287(13) 0.5956(16) 0.5644(7)
H8 H 0.6643 0.5488 0.5568
H9 H 0.6335 0.6454 0.5412
C15 C 0.6843(16) 0.6977(17) 0.7051(9)
H10 H 0.6985 0.7218 0.7357
H11 H 0.6123 0.0136 0.9177
C17 C 0.5373(12) 0.5197(16) 0.5048(7)
H12 H 0.5440 0.5700 0.4821
H13 H 0.5737 0.4731 0.4984
C19 C 0.6272(15) 0.7172(16) 0.6267(9)
H16 H 0.6003 0.7537 0.6042
H19 H 0.7108 0.0020 0.9720
C22 C 0.6461(17) 0.7502(18) 0.6719(10)
H20 H 0.6327 0.8096 0.6803
O15 O 0.2552(13) 0.4332(14) 0.2272(6)
O16 O 0.2212(8) 0.5217(9) 0.2885(5)
C23 C 0.4487(13) 0.4453(15) 0.4432(7)
H21 H 0.4543 0.4955 0.4203
H22 H 0.4850 0.3988 0.4364
C24 C 0.3158(11) 0.4226(13) 0.3530(7)
H23 H 0.3023 0.4817 0.3618
N3 N 0.3526(10) 0.3696(11) 0.3863(6)
C25 C 0.2557(12) 0.4517(14) 0.2697(7)
C26 C 0.2975(12) 0.3917(14) 0.3062(7)
C27 C 0.3713(13) 0.4044(16) 0.4356(7)
H24 H 0.3357 0.4512 0.4432
H25 H 0.3665 0.3546 0.4588
C28 C 0.3157(16) 0.3023(17) 0.2949(9)
H26 H 0.3015 0.2782 0.2643
C29 C 0.4627(12) 0.4803(16) 0.4952(7)
H27 H 0.4560 0.4300 0.5179
H28 H 0.4263 0.5269 0.5016
C30 C 0.3728(15) 0.2828(16) 0.3733(9)
H29 H 0.3997 0.2463 0.3958
C31 C 0.3539(17) 0.2498(18) 0.3281(10)
H30 H 0.3673 0.1904 0.3197
O19 O 0.4416(7) 0.2326(9) 0.7605(5)
O20 O 0.4395(7) 0.0507(9) 0.7511(5)
U4 U 0.32515(4) 0.14795(5) 0.75444(2)
O23 O 0.1992(7) 0.1794(8) 0.7483(4)
O24 O 0.3272(8) 0.1629(9) 0.6895(5)
O25 O 0.3016(7) 0.3050(9) 0.7665(4)
O26 O 0.1656(7) 0.3164(9) 0.8235(4)
O27 O 0.1827(8) 0.3614(10) 0.6967(5)
O28 O 0.3278(8) 0.1298(9) 0.8184(5)
U6 U 0.17689(4) 0.66310(5) 0.26014(2)
O29 O 0.2212(8) 0.4783(9) 0.7885(5)
C18 C 0.9644(14) 0.977(2) -0.0000(9)
H14 H 0.9402 0.9957 0.0293
H15 H 0.9736 0.9112 0.0031
O6 O 0.7901(12) 0.8801(13) 0.7768(6)
C4 C 0.7345(12) 0.9550(12) 0.8404(7)
C5 C 0.7912(13) 0.9445(14) 0.8751(7)
H4 H 0.8371 0.9267 0.8650
O11 O 0.7170(8) 0.9992(9) 0.7569(5)
N2 N 0.7827(10) 0.9589(13) 0.9233(6)
C11 C 0.6663(13) 0.9818(14) 0.8562(7)
H5 H 0.6265 0.9895 0.8336
C12 C 0.9113(12) 0.9911(16) 0.9565(7)
H7 H 0.9347 0.9731 0.9268
C13 C 0.7485(13) 0.9439(14) 0.7879(7)
C16 C 0.6580(13) 0.9972(16) 0.9067(8)
C18_2 C 0.9644(14) 0.977(2) 1.0000(9)
C20 C 0.8416(14) 0.9373(19) 0.9605(8)
H17 H 0.8532 0.8725 0.9581
H18 H 0.8231 0.9479 0.9928
C21 C 0.7159(14) 0.9883(17) 0.9390(8)
O31 O 0.2830(8) 0.9992(9) 0.7431(5)
H12_2 H 0.4560 0.5700 0.0179
H13_2 H 0.4263 0.4731 0.0016
O15_2 O 0.7448(13) 0.4332(14) 0.2728(6)
O16_2 O 0.7788(8) 0.5217(9) 0.2115(5)
C23_2 C 0.5513(13) 0.4453(15) 0.0568(7)
H21_2 H 0.5457 0.4955 0.0797
H22_2 H 0.5150 0.3988 0.0636
C24_2 C 0.6842(11) 0.4226(13) 0.1470(7)
H23_2 H 0.6977 0.4817 0.1382
N3_2 N 0.6474(10) 0.3696(11) 0.1137(6)
C25_2 C 0.7443(12) 0.4517(14) 0.2303(7)
C26_2 C 0.7025(12) 0.3917(14) 0.1938(7)
C27_2 C 0.6287(13) 0.4044(16) 0.0644(7)
H24_2 H 0.6643 0.4512 0.0568
H25_2 H 0.6335 0.3546 0.0412
C28_2 C 0.6843(16) 0.3023(17) 0.2051(9)
H26_2 H 0.6985 0.2782 0.2357
C29_2 C 0.5373(12) 0.4803(16) 0.0048(7)
C30_2 C 0.6272(15) 0.2828(16) 0.1267(9)
H29_2 H 0.6003 0.2463 0.1042
C31_2 C 0.6461(17) 0.2498(18) 0.1719(10)
H30_2 H 0.6327 0.1904 0.1803
U6_2 U 0.82311(4) 0.66310(5) 0.23986(2)
O1_2 O 0.2552(13) 0.5668(14) 0.7272(6)
C1_2 C 0.4487(13) 0.5547(15) 0.9432(7)
H1_2 H 0.4543 0.5045 0.9203
H2_2 H 0.4850 0.6012 0.9364
C2_2 C 0.3158(11) 0.5774(13) 0.8530(7)
H3_2 H 0.3023 0.5183 0.8618
N1_2 N 0.3526(10) 0.6304(11) 0.8863(6)
C8_2 C 0.2557(12) 0.5483(14) 0.7697(7)
C10_2 C 0.2975(12) 0.6083(14) 0.8062(7)
H6_2 H 0.1006 0.0559 0.5462
C14_2 C 0.3713(13) 0.5956(16) 0.9356(7)
H8_2 H 0.3357 0.5488 0.9432
H9_2 H 0.3665 0.6454 0.9588
C15_2 C 0.3157(16) 0.6977(17) 0.7949(9)
H10_2 H 0.3015 0.7218 0.7643
H11_2 H 0.3877 0.0136 0.5823
C17_2 C 0.4627(12) 0.5197(16) 0.9952(7)
C19_2 C 0.3728(15) 0.7172(16) 0.8733(9)
H16_2 H 0.3997 0.7537 0.8958
H19_2 H 0.2892 0.0020 0.5280
C22_2 C 0.3539(17) 0.7502(18) 0.8281(10)
H20_2 H 0.3673 0.8096 0.8197
H27_2 H 0.5440 0.4300 0.9821
H28_2 H 0.5737 0.5269 0.9984
O6_2 O 0.2099(12) 0.8801(13) 0.7232(6)
C4_2 C 0.2655(12) 0.9550(12) 0.6596(7)
C5_2 C 0.2088(13) 0.9445(14) 0.6249(7)
H4_2 H 0.1629 0.9267 0.6350
N2_2 N 0.2173(10) 0.9589(13) 0.5767(6)
C11_2 C 0.3337(13) 0.9818(14) 0.6438(7)
H5_2 H 0.3735 0.9895 0.6664
C12_2 C 0.0887(12) 0.9911(16) 0.5435(7)
H7_2 H 0.0653 0.9731 0.5732
C13_2 C 0.2515(13) 0.9439(14) 0.7121(7)
C16_2 C 0.3420(13) 0.9972(16) 0.5933(8)
C18_3 C 0.0356(14) 0.977(2) 0.5000(9)
H14_2 H 0.0598 0.9957 0.4707
H15_2 H 0.0264 0.9112 0.4969
C20_2 C 0.1584(14) 0.9373(19) 0.5395(8)
H17_2 H 0.1468 0.8725 0.5419
H18_2 H 0.1769 0.9479 0.5072
C21_2 C 0.2841(14) 0.9883(17) 0.5610(8)
O17_2 O 0.7901(12) 0.1199(13) 0.2768(6)
C32_2 C 0.7345(12) 0.0450(12) 0.3404(7)
C33_2 C 0.7912(13) 0.0555(14) 0.3751(7)
H31_2 H 0.8371 0.0733 0.3650
O18_2 O 0.7170(8) 0.0008(9) 0.2569(5)
N4_2 N 0.7827(10) 0.0411(13) 0.4233(6)
C34_2 C 0.6663(13) 0.0182(14) 0.3562(7)
H32_2 H 0.6265 0.0105 0.3336
C35_2 C 0.9113(12) 0.0089(16) 0.4565(7)
H34_2 H 0.9347 0.0269 0.4268
C36_2 C 0.7485(13) 0.0561(14) 0.2879(7)
C37_2 C 0.6580(13) 0.0028(16) 0.4067(8)
C38_3 C 0.9644(14) 0.023(2) 0.5000(9)
H36_2 H 0.9402 0.0043 0.5293
H37_2 H 0.9736 0.0888 0.5031
C39_2 C 0.8416(14) 0.0627(19) 0.4605(8)
H38_2 H 0.8532 0.1275 0.4581
H39_2 H 0.8231 0.0521 0.4928
C40_2 C 0.7159(14) 0.0117(17) 0.4390(8)
H33_2 H 0.8994 0.9441 0.4538
H35_2 H 0.6123 0.9864 0.4177
H40_2 H 0.7108 0.9980 0.4720
U7_2 U 0.67485(4) 0.85205(5) 0.24556(2)
O3_2 O 0.1992(7) 0.8206(8) 0.2483(4)
O4_2 O 0.3272(8) 0.8371(9) 0.1895(5)
O5_2 O 0.3016(7) 0.6950(9) 0.2665(4)
O7_2 O 0.4416(7) 0.7674(9) 0.2605(5)
C3_2 C 0.5000 0.8055(18) 0.2500
O8_2 O 0.1656(7) 0.6836(9) 0.3235(4)
O9_2 O 0.0606(7) 0.7486(8) 0.2433(4)
O10_2 O 0.1827(8) 0.6386(10) 0.1967(5)
C6_3 C -0.0000 0.6035(17) 0.2500
O12_2 O 0.3278(8) 0.8702(9) 0.3184(5)
O13_2 O 0.4395(7) 0.9493(9) 0.2511(5)
O14_2 O 0.0619(7) 0.5652(8) 0.2555(5)
C7_3 C -0.0000 0.7079(17) 0.2500
C9_2 C 0.5000 0.9090(19) 0.2500
O19_2 O 0.5584(7) 0.7674(9) 0.2395(5)
O20_2 O 0.5605(7) 0.9493(9) 0.2489(5)
O23_2 O 0.8008(7) 0.8206(8) 0.2517(4)
O24_2 O 0.6728(8) 0.8371(9) 0.3105(5)
O25_2 O 0.6984(7) 0.6950(9) 0.2335(4)
O26_2 O 0.8344(7) 0.6836(9) 0.1765(4)
O27_2 O 0.8173(8) 0.6386(10) 0.3033(5)
O28_2 O 0.6722(8) 0.8702(9) 0.1816(5)
O30 O 0.9394(7) 0.7486(8) 0.2567(4)
O32 O 0.9381(7) 0.5652(8) 0.2445(5)
C6_4 C 1.0000 0.6035(17) 0.2500
C7_4 C 1.0000 0.7079(17) 0.2500
loop_
_geom_bond_atom_site_label_1
_geom_bond_atom_site_label_2
_geom_bond_site_symmetry_1
_geom_bond_site_symmetry_2
O17 C36 1_555 1_555
C32 C33 1_555 1_555
C33 H31 1_555 1_555
O18 C36 1_555 1_555
N4 C33 1_555 1_555
C34 C32 1_555 1_555
H32 C34 1_555 1_555
H34 C35 1_555 1_555
C36 C32 1_555 1_555
C37 C34 1_555 1_555
C39 N4 1_555 1_555
H38 C39 1_555 1_555
H39 C39 1_555 1_555
C40 N4 1_555 1_555
C35 C38 1_555 1_555
C35 C39 1_555 1_555
C37 C40 1_555 1_555
H36 C38_2 1_555 1_555
H37 C38_2 1_555 1_555
O21 C7 1_555 1_555
O22 C6 1_555 1_555
U5 O21 1_555 1_555
C6 C7 1_555 1_555
O22 U5 1_555 1_555
U1 O2 1_555 1_555
O1 C8 1_555 1_555
U2 O3 1_555 1_555
O2 C8 1_555 1_555
O3 U1 1_555 1_555
O4 U2 1_555 1_555
O5 U1 1_555 1_555
C1 H1 1_555 1_555
H2 C1 1_555 1_555
C2 H3 1_555 1_555
O7 U2 1_555 1_555
C3 O7 1_555 1_555
O8 U1 1_555 1_555
O9 U1 1_555 1_555
O10 U1 1_555 1_555
C6_2 O14 1_555 1_555
O12 U2 1_555 1_555
O13 U2 1_555 1_555
O14 U1 1_555 1_555
N1 C2 1_555 1_555
C7_2 O9 1_555 1_555
C8 C10 1_555 1_555
C9 C3 1_555 1_555
C10 C2 1_555 1_555
C14 C1 1_555 1_555
H8 C14 1_555 1_555
H9 C14 1_555 1_555
C15 C10 1_555 1_555
H10 C15 1_555 1_555
C17 C1 1_555 1_555
H12 C17 1_555 1_555
H13 C17 1_555 1_555
C19 N1 1_555 1_555
H16 C19 1_555 1_555
C22 C15 1_555 1_555
H20 C22 1_555 1_555
O15 C25 1_555 1_555
O16 C25 1_555 1_555
C23 H21 1_555 1_555
H22 C23 1_555 1_555
C24 H23 1_555 1_555
N3 C24 1_555 1_555
C25 C26 1_555 1_555
C26 C24 1_555 1_555
C27 C23 1_555 1_555
H24 C27 1_555 1_555
H25 C27 1_555 1_555
C28 C26 1_555 1_555
H26 C28 1_555 1_555
C29 C17 1_555 1_555
H27 C29 1_555 1_555
H28 C29 1_555 1_555
C30 N3 1_555 1_555
H29 C30 1_555 1_555
C31 C28 1_555 1_555
H30 C31 1_555 1_555
O19 C3 1_555 1_555
O20 C9 1_555 1_555
U5 O23 1_555 1_555
U4 O19 1_555 1_555
O23 U4 1_555 1_555
O24 U4 1_555 1_555
O25 U5 1_555 1_555
O26 U5 1_555 1_555
O27 U5 1_555 1_555
O28 U4 1_555 1_555
U6 O16 1_555 1_555
O29 U5 1_555 1_555
U2 O5 1_555 1_555
C6_2 C7_2 1_555 1_555
O13 C9 1_555 1_555
N1 C14 1_555 1_555
C19 C22 1_555 1_555
C23 C29 1_555 1_555
N3 C27 1_555 1_555
C30 C31 1_555 1_555
O20 U4 1_555 1_555
U4 O25 1_555 1_555
H14 C18 1_555 1_555
H15 C18 1_555 1_555
O6 C13 1_555 1_555
C4 C5 1_555 1_555
C5 H4 1_555 1_555
N2 C5 1_555 1_555
C11 C4 1_555 1_555
H5 C11 1_555 1_555
H7 C12 1_555 1_555
C13 C4 1_555 1_555
C16 C11 1_555 1_555
C18_2 C12 1_555 1_555
C20 N2 1_555 1_555
H17 C20 1_555 1_555
H18 C20 1_555 1_555
C21 N2 1_555 1_555
O11 C13 1_555 1_555
C12 C20 1_555 1_555
C16 C21 1_555 1_555
O15_2 C25_2 1_555 1_555
O16_2 C25_2 1_555 1_555
C23_2 H21_2 1_555 1_555
H22_2 C23_2 1_555 1_555
C24_2 H23_2 1_555 1_555
N3_2 C24_2 1_555 1_555
C25_2 C26_2 1_555 1_555
C26_2 C24_2 1_555 1_555
C27_2 C23_2 1_555 1_555
H24_2 C27_2 1_555 1_555
H25_2 C27_2 1_555 1_555
C28_2 C26_2 1_555 1_555
H26_2 C28_2 1_555 1_555
C30_2 N3_2 1_555 1_555
H29_2 C30_2 1_555 1_555
C31_2 C28_2 1_555 1_555
H30_2 C31_2 1_555 1_555
U6_2 O16_2 1_555 1_555
C23_2 C29_2 1_555 1_555
N3_2 C27_2 1_555 1_555
C30_2 C31_2 1_555 1_555
O1_2 C8_2 1_555 1_555
O29 C8_2 1_555 1_555
C1_2 H1_2 1_555 1_555
H2_2 C1_2 1_555 1_555
C2_2 H3_2 1_555 1_555
N1_2 C2_2 1_555 1_555
C8_2 C10_2 1_555 1_555
C10_2 C2_2 1_555 1_555
C14_2 C1_2 1_555 1_555
H8_2 C14_2 1_555 1_555
H9_2 C14_2 1_555 1_555
C15_2 C10_2 1_555 1_555
H10_2 C15_2 1_555 1_555
C17_2 C1_2 1_555 1_555
C19_2 N1_2 1_555 1_555
H16_2 C19_2 1_555 1_555
C22_2 C15_2 1_555 1_555
H20_2 C22_2 1_555 1_555
N1_2 C14_2 1_555 1_555
C19_2 C22_2 1_555 1_555
O6_2 C13_2 1_555 1_555
C4_2 C5_2 1_555 1_555
C5_2 H4_2 1_555 1_555
N2_2 C5_2 1_555 1_555
C11_2 C4_2 1_555 1_555
H5_2 C11_2 1_555 1_555
H7_2 C12_2 1_555 1_555
C13_2 C4_2 1_555 1_555
C16_2 C11_2 1_555 1_555
C18_3 C12_2 1_555 1_555
H14_2 C18_3 1_555 1_555
H15_2 C18_3 1_555 1_555
C20_2 N2_2 1_555 1_555
H17_2 C20_2 1_555 1_555
H18_2 C20_2 1_555 1_555
C21_2 N2_2 1_555 1_555
O31 C13_2 1_555 1_555
C12_2 C20_2 1_555 1_555
C16_2 C21_2 1_555 1_555
O17_2 C36_2 1_555 1_555
C32_2 C33_2 1_555 1_555
C33_2 H31_2 1_555 1_555
O18_2 C36_2 1_555 1_555
N4_2 C33_2 1_555 1_555
C34_2 C32_2 1_555 1_555
H32_2 C34_2 1_555 1_555
H34_2 C35_2 1_555 1_555
C36_2 C32_2 1_555 1_555
C37_2 C34_2 1_555 1_555
H36_2 C38_3 1_555 1_555
H37_2 C38_3 1_555 1_555
C39_2 N4_2 1_555 1_555
H38_2 C39_2 1_555 1_555
H39_2 C39_2 1_555 1_555
C40_2 N4_2 1_555 1_555
C35_2 C38_3 1_555 1_555
C35_2 C39_2 1_555 1_555
C37_2 C40_2 1_555 1_555
U7 O3_2 1_555 1_555
O3_2 U6 1_555 1_555
O4_2 U7 1_555 1_555
O5_2 U6 1_555 1_555
O7_2 U7 1_555 1_555
C3_2 O7_2 1_555 1_555
O8_2 U6 1_555 1_555
O9_2 U6 1_555 1_555
O10_2 U6 1_555 1_555
C6_3 O14_2 1_555 1_555
O12_2 U7 1_555 1_555
O13_2 U7 1_555 1_555
O14_2 U6 1_555 1_555
C7_3 O9_2 1_555 1_555
C9_2 C3_2 1_555 1_555
O19_2 C3_2 1_555 1_555
O20_2 C9_2 1_555 1_555
U6_2 O23_2 1_555 1_555
U7_2 O19_2 1_555 1_555
O23_2 U7_2 1_555 1_555
O24_2 U7_2 1_555 1_555
O25_2 U6_2 1_555 1_555
O26_2 U6_2 1_555 1_555
O27_2 U6_2 1_555 1_555
O28_2 U7_2 1_555 1_555
O30 U6_2 1_555 1_555
O32 U6_2 1_555 1_555
U7 O5_2 1_555 1_555
C6_3 C7_3 1_555 1_555
O13_2 C9_2 1_555 1_555
O20_2 U7_2 1_555 1_555
U7_2 O25_2 1_555 1_555
O30 C7_4 1_555 1_555
O32 C6_4 1_555 1_555
C6_4 C7_4 1_555 1_555

#END
