
###############################################################################
#
# This file contains modified crystal structure data generated from the
# MOF subset of the Cambridge Structural Database (CSD) v543 
# hosted by the Cambridge Crystallographic Data Centre (CCDC).
#
# This work is licensed under the Creative Commons
# Attribution-NonCommercial-ShareAlike 4.0 International License.
# To view a copy of this license, visit
# http://creativecommons.org/licenses/by-nc-sa/4.0/
# or send a letter to
# Creative Commons, PO Box 1866, Mountain View, CA 94042, USA.
#
# CIF created using the CSD Python API on 29 September 2022
# The structure has been converted into the P1 space group
# The structure has a 3D framework
# The original CSD entry IXOFOR is in the orthorhombic crystal system
# The original CSD entry IXOFOR is in a Sohncke space group
# The framework has been calculated to contain at least 10.0% void space
# The void calculation uses a probe of radius 1.32A, grid spacing 0.4
#
###############################################################################

data_IXOFOR
_chemical_formula_moiety         '(C32 H16 O20 V4)n'
_symmetry_cell_setting           triclinic
_symmetry_space_group_name_H-M   'P 1'
_symmetry_Int_Tables_number      1
_space_group_name_Hall           'P 1'
loop_
_symmetry_equiv_pos_site_id
_symmetry_equiv_pos_as_xyz
1 x,y,z
_cell_length_a                   6.8127(3)
_cell_length_b                   13.7142(7)
_cell_length_c                   16.0701(8)
_cell_angle_alpha                90
_cell_angle_beta                 90
_cell_angle_gamma                90
_cell_volume                     1501.44
loop_
_atom_site_label
_atom_site_type_symbol
_atom_site_fract_x
_atom_site_fract_y
_atom_site_fract_z
H1 H 0.0330 0.5429 0.3239
H2 H 0.0536 0.4340 0.2143
V2 V 0.06583(3) 0.264620(16) 0.001410(17)
C1 C 0.7242(3) 0.61136(13) 0.40415(10)
C2 C 0.7391(3) 0.53437(13) 0.33855(11)
C3 C 0.9200(3) 0.51335(17) 0.30337(13)
C4 C 0.9321(3) 0.44832(17) 0.23767(13)
C5 C 0.7642(3) 0.40450(13) 0.20660(11)
C6 C 0.5845(3) 0.42296(17) 0.24393(13)
H3 H 0.4721 0.3919 0.2245
C7 C 0.5720(3) 0.48734(16) 0.30995(13)
H4 H 0.4514 0.4991 0.3352
C8 C 0.7770(2) 0.34217(12) 0.13062(10)
O2 O 0.55588(19) 0.63403(9) 0.42920(8)
O3 O 0.61682(17) 0.31100(10) 0.10119(8)
O4 O 0.94394(19) 0.32704(10) 0.10067(8)
O5 O 0.88335(18) 0.64912(10) 0.42832(9)
O6 O 0.28392(16) 0.30953(8) 0.00983(7)
O7 O 0.44412(19) 0.13403(9) 0.07080(8)
V3 V 0.43417(3) 0.735380(16) 0.501410(17)
V4 V 0.93417(3) 0.764620(16) 0.498590(17)
O1 O 0.78392(16) 0.19047(8) 0.99017(7)
V1 V 0.56583(3) 0.235380(16) 0.998590(17)
O8 O 0.44394(19) 0.17296(10) 0.89933(8)
O9 O 0.61665(18) 0.35088(10) 0.92832(9)
H3_2 H 0.0279 0.6081 0.7245
H4_2 H 0.0486 0.5009 0.8352
O6_2 O 0.21608(16) 0.69047(8) 0.50983(7)
O7_2 O 0.05588(19) 0.86597(9) 0.57080(8)
O8_2 O 0.05606(19) 0.82704(10) 0.39933(8)
C1_2 C 0.7758(3) 0.38864(13) 0.90415(10)
C2_2 C 0.7609(3) 0.46563(13) 0.83855(11)
C3_2 C 0.5800(3) 0.48665(17) 0.80337(13)
H1_2 H 0.4670 0.4571 0.8239
C4_2 C 0.5679(3) 0.55168(17) 0.73767(13)
H2_2 H 0.4464 0.5660 0.7143
C5_2 C 0.7358(3) 0.59550(13) 0.70660(11)
C6_2 C 0.9155(3) 0.57704(17) 0.74393(13)
C7_2 C 0.9280(3) 0.51266(16) 0.80995(13)
C8_2 C 0.7230(2) 0.65783(12) 0.63062(10)
O1_2 O 0.71608(16) 0.80953(8) 0.49017(7)
O2_2 O 0.94412(19) 0.36597(9) 0.92920(8)
O3_2 O 0.88318(17) 0.68900(10) 0.60119(8)
O4_2 O 0.55606(19) 0.67296(10) 0.60067(8)
C1_3 C 0.2758(3) 0.11136(13) 0.09585(10)
C2_3 C 0.2609(3) 0.03437(13) 0.16145(11)
C3_3 C 0.0800(3) 0.01335(17) 0.19663(13)
O5_2 O 0.11665(18) 0.14912(10) 0.07168(9)
C4_3 C 0.0679(3) 0.94832(17) 0.26233(13)
C5_3 C 0.2358(3) 0.90450(13) 0.29340(11)
C6_3 C 0.4155(3) 0.92296(17) 0.25607(13)
H3_3 H 0.5279 0.8919 0.2755
C7_3 C 0.4280(3) 0.98734(16) 0.19005(13)
H4_3 H 0.5486 0.9991 0.1648
C8_3 C 0.2230(2) 0.84217(12) 0.36938(10)
O3_3 O 0.38318(17) 0.81100(10) 0.39881(8)
O9_2 O 0.38335(18) 0.85088(10) 0.57168(9)
H2_3 H 0.9464 0.9340 0.2857
C4_4 C 0.4321(3) 0.05168(17) 0.76233(13)
H2_4 H 0.5536 0.0660 0.7857
C5_4 C 0.2642(3) 0.09550(13) 0.79340(11)
C6_4 C 0.0845(3) 0.07704(17) 0.75607(13)
C7_4 C 0.0720(3) 0.01266(16) 0.69005(13)
C8_4 C 0.2770(2) 0.15783(12) 0.86938(10)
O3_4 O 0.11682(17) 0.18900(10) 0.89881(8)
C1_4 C 0.2242(3) 0.88864(13) 0.59585(10)
C2_4 C 0.2391(3) 0.96563(13) 0.66145(11)
C3_4 C 0.4200(3) 0.98665(17) 0.69663(13)
H1_3 H 0.5330 0.9571 0.6761
H3_4 H 0.9721 0.1081 0.7755
H4_4 H 0.9514 0.0009 0.6648
H1_4 H 0.9670 0.0429 0.1761
loop_
_geom_bond_atom_site_label_1
_geom_bond_atom_site_label_2
_geom_bond_site_symmetry_1
_geom_bond_site_symmetry_2
C1 C2 1_555 1_555
C2 C3 1_555 1_555
C4 C3 1_555 1_555
C5 C4 1_555 1_555
C6 C5 1_555 1_555
H3 C6 1_555 1_555
C7 C2 1_555 1_555
H4 C7 1_555 1_555
C8 C5 1_555 1_555
O2 C1 1_555 1_555
O3 C8 1_555 1_555
O4 C8 1_555 1_555
O5 C1 1_555 1_555
V3 O2 1_555 1_555
V4 O5 1_555 1_555
C6 C7 1_555 1_555
O1 V1 1_555 1_555
O8 V1 1_555 1_555
O9 V1 1_555 1_555
C1_2 C2_2 1_555 1_555
C2_2 C3_2 1_555 1_555
C3_2 H1_2 1_555 1_555
C4_2 C3_2 1_555 1_555
H2_2 C4_2 1_555 1_555
C5_2 C4_2 1_555 1_555
C6_2 C5_2 1_555 1_555
C7_2 C2_2 1_555 1_555
C8_2 C5_2 1_555 1_555
O1_2 V4 1_555 1_555
O2_2 C1_2 1_555 1_555
O3_2 C8_2 1_555 1_555
O4_2 C8_2 1_555 1_555
O9 C1_2 1_555 1_555
V4 O3_2 1_555 1_555
V3 O1_2 1_555 1_555
C6_2 C7_2 1_555 1_555
O4_2 V3 1_555 1_555
C1_3 C2_3 1_555 1_555
C2_3 C3_3 1_555 1_555
O7 C1_3 1_555 1_555
O5_2 C1_3 1_555 1_555
V2 O5_2 1_555 1_555
C5_3 C4_3 1_555 1_555
C6_3 C5_3 1_555 1_555
H3_3 C6_3 1_555 1_555
H4_3 C7_3 1_555 1_555
C8_3 C5_3 1_555 1_555
O6_2 V3 1_555 1_555
O3_3 C8_3 1_555 1_555
O8_2 C8_3 1_555 1_555
V3 O3_3 1_555 1_555
O9_2 V3 1_555 1_555
C6_3 C7_3 1_555 1_555
O6 V2 1_555 1_555
H2_4 C4_4 1_555 1_555
C5_4 C4_4 1_555 1_555
C6_4 C5_4 1_555 1_555
C8_4 C5_4 1_555 1_555
O3_4 C8_4 1_555 1_555
O8 C8_4 1_555 1_555
C6_4 C7_4 1_555 1_555
C1_4 C2_4 1_555 1_555
C2_4 C3_4 1_555 1_555
C3_4 H1_3 1_555 1_555
O7_2 C1_4 1_555 1_555
O9_2 C1_4 1_555 1_555

#END
