
###############################################################################
#
# This file contains modified crystal structure data generated from the
# MOF subset of the Cambridge Structural Database (CSD) v543 
# hosted by the Cambridge Crystallographic Data Centre (CCDC).
#
# This work is licensed under the Creative Commons
# Attribution-NonCommercial-ShareAlike 4.0 International License.
# To view a copy of this license, visit
# http://creativecommons.org/licenses/by-nc-sa/4.0/
# or send a letter to
# Creative Commons, PO Box 1866, Mountain View, CA 94042, USA.
#
# CIF created using the CSD Python API on 29 September 2022
# The structure has been converted into the P1 space group
# The structure has a 3D framework
# The original CSD entry IXOFUX01 is in the orthorhombic crystal system
# The original CSD entry IXOFUX01 is in a Sohncke space group
# The framework has been calculated to contain at least 10.0% void space
# The void calculation uses a probe of radius 1.32A, grid spacing 0.4
#
###############################################################################

data_IXOFUX01
_chemical_formula_moiety         '(C32 H16 O18 V3)n'
_symmetry_cell_setting           triclinic
_symmetry_space_group_name_H-M   'P 1'
_symmetry_Int_Tables_number      1
_space_group_name_Hall           'P 1'
loop_
_symmetry_equiv_pos_site_id
_symmetry_equiv_pos_as_xyz
1 x,y,z
_cell_length_a                   6.827(3)
_cell_length_b                   13.965(6)
_cell_length_c                   16.074(6)
_cell_angle_alpha                90
_cell_angle_beta                 90
_cell_angle_gamma                90
_cell_volume                     1532.48
loop_
_atom_site_label
_atom_site_type_symbol
_atom_site_fract_x
_atom_site_fract_y
_atom_site_fract_z
H4 H 0.0338 0.0422 0.8224
H3 H 0.0555 0.9342 0.7153
O1 O 0.2823(6) 0.8073(3) 0.5090(3)
V1 V 0.06513(13) 0.76403(6) 0.50135(9)
O8 O 0.1131(7) 0.6537(4) 0.5749(3)
O9 O 0.1166(7) 0.6842(4) 0.4018(3)
V2 V 0.56513(13) 0.73597(6) 0.49865(9)
V3 V 0.43487(13) 0.23597(6) 0.00135(9)
C1 C 0.7244(10) 0.1162(6) 0.8985(4)
C2 C 0.7372(10) 0.0405(6) 0.8339(5)
H1 H 0.4488 0.0105 0.8273
C8 C 0.9203(11) 0.0152(6) 0.8006(6)
O2 O 0.5536(8) 0.1391(4) 0.9260(3)
O4 O 0.8869(7) 0.1537(4) 0.9251(3)
V4 V 0.93487(13) 0.26403(6) 0.99865(9)
C3 C 0.5697(12) 0.9968(6) 0.8034(5)
C4 C 0.5809(12) 0.9330(6) 0.7380(6)
H2 H 0.4674 0.9045 0.7177
C5 C 0.7751(10) 0.8482(6) 0.6282(5)
C6 C 0.7636(10) 0.9108(6) 0.7016(4)
C7 C 0.9333(12) 0.9511(7) 0.7362(6)
O3 O 0.9446(8) 0.8308(4) 0.5991(3)
O5 O 0.6166(7) 0.8158(4) 0.5982(3)
O6 O 0.7823(6) 0.6927(3) 0.4910(3)
O7 O 0.9464(8) 0.8609(4) 0.4260(3)
H1_2 H 0.0512 0.9895 0.3273
C3_2 C 0.9303(12) 0.0032(6) 0.3034(5)
C4_2 C 0.9191(12) 0.0670(6) 0.2380(6)
C5_2 C 0.7249(10) 0.1518(6) 0.1282(5)
C6_2 C 0.7364(10) 0.0892(6) 0.2016(4)
C7_2 C 0.5667(12) 0.0489(7) 0.2362(6)
H3_2 H 0.4445 0.0658 0.2153
O1_2 O 0.2177(6) 0.1927(3) 0.0090(3)
O3_2 O 0.5554(8) 0.1692(4) 0.0991(3)
O5_2 O 0.8834(7) 0.1842(4) 0.0982(3)
O8_2 O 0.3869(7) 0.3463(4) 0.0749(3)
O6_2 O 0.7177(6) 0.3073(3) 0.9910(3)
O9_2 O 0.3834(7) 0.3158(4) 0.9018(3)
C1_2 C 0.7756(10) 0.8838(6) 0.3985(4)
C2_2 C 0.7628(10) 0.9595(6) 0.3339(5)
C8_2 C 0.5797(11) 0.9848(6) 0.3006(6)
H4_2 H 0.4662 0.9578 0.3224
O4_2 O 0.6131(7) 0.8463(4) 0.4251(3)
O7_2 O 0.0536(8) 0.3609(4) 0.0740(3)
C1_3 C 0.2756(10) 0.6162(6) 0.6015(4)
C2_3 C 0.2628(10) 0.5405(6) 0.6661(5)
C3_3 C 0.4303(12) 0.4968(6) 0.6966(5)
H1_3 H 0.5512 0.5105 0.6727
C4_3 C 0.4191(12) 0.4330(6) 0.7620(6)
H2_2 H 0.5326 0.4045 0.7823
C5_3 C 0.2249(10) 0.3482(6) 0.8718(5)
C6_3 C 0.2364(10) 0.4108(6) 0.7984(4)
C7_3 C 0.0667(12) 0.4511(7) 0.7638(6)
C8_3 C 0.0797(11) 0.5152(6) 0.6994(6)
O2_2 O 0.4464(8) 0.6391(4) 0.5740(3)
O3_3 O 0.0554(8) 0.3308(4) 0.9009(3)
H3_3 H 0.9445 0.4342 0.7847
H4_3 H 0.9662 0.5422 0.6776
C1_4 C 0.2244(10) 0.3838(6) 0.1015(4)
C2_4 C 0.2372(10) 0.4595(6) 0.1661(5)
C3_4 C 0.0697(12) 0.5032(6) 0.1966(5)
C4_4 C 0.0809(12) 0.5670(6) 0.2620(6)
C5_4 C 0.2751(10) 0.6518(6) 0.3718(5)
C6_4 C 0.2636(10) 0.5892(6) 0.2984(4)
C7_4 C 0.4333(12) 0.5489(7) 0.2638(6)
H3_4 H 0.5555 0.5658 0.2847
C8_4 C 0.4203(11) 0.4848(6) 0.1994(6)
H4_4 H 0.5338 0.4578 0.1776
O3_4 O 0.4446(8) 0.6692(4) 0.4009(3)
H2_3 H 0.0326 0.0955 0.2177
H1_4 H 0.9488 0.4895 0.1727
H2_4 H 0.9674 0.5955 0.2823
loop_
_geom_bond_atom_site_label_1
_geom_bond_atom_site_label_2
_geom_bond_site_symmetry_1
_geom_bond_site_symmetry_2
O1 V1 1_555 1_555
O8 V1 1_555 1_555
O9 V1 1_555 1_555
V2 O1 1_555 1_555
C1 C2 1_555 1_555
C8 C2 1_555 1_555
O2 C1 1_555 1_555
O4 C1 1_555 1_555
V4 O4 1_555 1_555
C4 C3 1_555 1_555
H2 C4 1_555 1_555
C5 C6 1_555 1_555
C6 C4 1_555 1_555
C7 C6 1_555 1_555
O3 C5 1_555 1_555
O5 C5 1_555 1_555
V2 O5 1_555 1_555
O6 V2 1_555 1_555
C4_2 C3_2 1_555 1_555
C5_2 C6_2 1_555 1_555
C6_2 C4_2 1_555 1_555
C7_2 C6_2 1_555 1_555
H3_2 C7_2 1_555 1_555
O1_2 V3 1_555 1_555
O3_2 C5_2 1_555 1_555
O5_2 C5_2 1_555 1_555
V3 O3_2 1_555 1_555
O8_2 V3 1_555 1_555
O6_2 V4 1_555 1_555
C1_2 C2_2 1_555 1_555
C8_2 C2_2 1_555 1_555
H4_2 C8_2 1_555 1_555
O7 C1_2 1_555 1_555
O4_2 C1_2 1_555 1_555
V2 O4_2 1_555 1_555
C1_3 C2_3 1_555 1_555
C2_3 C3_3 1_555 1_555
C3_3 H1_3 1_555 1_555
C4_3 C3_3 1_555 1_555
H2_2 C4_3 1_555 1_555
C5_3 C6_3 1_555 1_555
C6_3 C4_3 1_555 1_555
C7_3 C6_3 1_555 1_555
C8_3 C2_3 1_555 1_555
O2_2 C1_3 1_555 1_555
O3_3 C5_3 1_555 1_555
O8 C1_3 1_555 1_555
O9_2 C5_3 1_555 1_555
V2 O2_2 1_555 1_555
C7_3 C8_3 1_555 1_555
C1_4 C2_4 1_555 1_555
C2_4 C3_4 1_555 1_555
C4_4 C3_4 1_555 1_555
C5_4 C6_4 1_555 1_555
C6_4 C4_4 1_555 1_555
C7_4 C6_4 1_555 1_555
H3_4 C7_4 1_555 1_555
C8_4 C2_4 1_555 1_555
H4_4 C8_4 1_555 1_555
O7_2 C1_4 1_555 1_555
O3_4 C5_4 1_555 1_555
O8_2 C1_4 1_555 1_555
O9 C5_4 1_555 1_555
V2 O3_4 1_555 1_555
C7_4 C8_4 1_555 1_555

#END
