
###############################################################################
#
# This file contains modified crystal structure data generated from the
# MOF subset of the Cambridge Structural Database (CSD) v543 
# hosted by the Cambridge Crystallographic Data Centre (CCDC).
#
# This work is licensed under the Creative Commons
# Attribution-NonCommercial-ShareAlike 4.0 International License.
# To view a copy of this license, visit
# http://creativecommons.org/licenses/by-nc-sa/4.0/
# or send a letter to
# Creative Commons, PO Box 1866, Mountain View, CA 94042, USA.
#
# CIF created using the CSD Python API on 29 September 2022
# The structure has been converted into the P1 space group
# The structure has a 3D framework
# The original CSD entry IXOFEH is in the orthorhombic crystal system
# The original CSD entry IXOFEH is in a Sohncke space group
# The framework has been calculated to contain at least 10.0% void space
# The void calculation uses a probe of radius 1.32A, grid spacing 0.4
#
###############################################################################

data_IXOFEH
_chemical_formula_moiety         '(C32 H16 O20 V4)n'
_symmetry_cell_setting           triclinic
_symmetry_space_group_name_H-M   'P 1'
_symmetry_Int_Tables_number      1
_space_group_name_Hall           'P 1'
loop_
_symmetry_equiv_pos_site_id
_symmetry_equiv_pos_as_xyz
1 x,y,z
_cell_length_a                   6.7884(7)
_cell_length_b                   13.2305(13)
_cell_length_c                   16.6357(16)
_cell_angle_alpha                90
_cell_angle_beta                 90
_cell_angle_gamma                90
_cell_volume                     1494.12
loop_
_atom_site_label
_atom_site_type_symbol
_atom_site_fract_x
_atom_site_fract_y
_atom_site_fract_z
H3 H 0.0331 0.0644 0.1928
H4 H 0.0517 0.9607 0.3043
V2 V 0.06123(4) 0.764610(19) 0.49945(3)
C1 C 0.7272(4) 0.1220(2) 0.10668(15)
C2 C 0.7394(4) 0.0511(2) 0.17590(15)
C3 C 0.5715(5) 0.0055(2) 0.20587(19)
H1 H 0.4505 0.0167 0.1812
C5 C 0.9198(5) 0.0340(3) 0.21286(19)
O3 O 0.5579(3) 0.14215(14) 0.07933(12)
O5 O 0.8878(3) 0.15727(15) 0.08038(12)
V4 V 0.93877(4) 0.264610(19) 0.00055(3)
V3 V 0.43877(4) 0.235390(19) 0.99945(3)
C4 C 0.5829(5) 0.9435(3) 0.27208(18)
H2 H 0.4693 0.9130 0.2918
C6 C 0.9309(5) 0.9719(3) 0.27946(19)
C7 C 0.7616(4) 0.9260(2) 0.30959(15)
C8 C 0.7731(4) 0.8616(2) 0.38247(14)
O1 O 0.78031(16) 0.68808(9) 0.50309(11)
O2 O 0.6123(3) 0.82882(15) 0.41019(11)
O4 O 0.9403(3) 0.84363(14) 0.41084(11)
V1 V 0.56123(4) 0.735390(19) 0.50055(3)
O6 O 0.28031(16) 0.81192(9) 0.49691(11)
O7 O 0.4421(3) 0.64215(14) 0.42067(12)
O8 O 0.4403(3) 0.65637(14) 0.58916(11)
O9 O 0.6122(3) 0.84273(15) 0.58038(12)
O8_2 O 0.0597(3) 0.34363(14) 0.08916(11)
H2_2 H 0.0307 0.0870 0.7918
O6_2 O 0.21969(16) 0.18808(9) 0.99691(11)
O7_2 O 0.0579(3) 0.35785(14) 0.92067(12)
H1_2 H 0.0495 0.9833 0.6812
O1_2 O 0.71969(16) 0.31192(9) 0.00309(11)
C4_2 C 0.9171(5) 0.0565(3) 0.77208(18)
C6_2 C 0.5691(5) 0.0281(3) 0.77946(19)
H4_2 H 0.4483 0.0393 0.8043
C7_2 C 0.7384(4) 0.0740(2) 0.80959(15)
C8_2 C 0.7269(4) 0.1384(2) 0.88247(14)
O2_2 O 0.8877(3) 0.17118(15) 0.91019(11)
O4_2 O 0.5597(3) 0.15637(14) 0.91084(11)
C1_2 C 0.7728(4) 0.8780(2) 0.60668(15)
C2_2 C 0.7606(4) 0.9489(2) 0.67590(15)
C3_2 C 0.9285(5) 0.9945(2) 0.70587(19)
C5_2 C 0.5802(5) 0.9660(3) 0.71286(19)
H3_2 H 0.4669 0.9356 0.6928
O3_2 O 0.9421(3) 0.85785(14) 0.57933(12)
C1_3 C 0.2728(4) 0.6220(2) 0.39332(15)
C2_3 C 0.2606(4) 0.5511(2) 0.32410(15)
C3_3 C 0.4285(5) 0.5055(2) 0.29413(19)
H1_3 H 0.5495 0.5167 0.3188
C4_3 C 0.4171(5) 0.4435(3) 0.22792(18)
H2_3 H 0.5307 0.4130 0.2082
C5_3 C 0.0802(5) 0.5340(3) 0.28714(19)
C6_3 C 0.0691(5) 0.4719(3) 0.22054(19)
C7_3 C 0.2384(4) 0.4260(2) 0.19041(15)
C8_3 C 0.2269(4) 0.3616(2) 0.11753(14)
O2_3 O 0.3877(3) 0.32882(15) 0.08981(11)
O5_2 O 0.1122(3) 0.65727(15) 0.41962(12)
O9_2 O 0.3878(3) 0.34273(15) 0.91962(12)
H3_3 H 0.9669 0.5644 0.3072
H4_3 H 0.9483 0.4607 0.1957
C1_4 C 0.2272(4) 0.3780(2) 0.89332(15)
C2_4 C 0.2394(4) 0.4489(2) 0.82410(15)
C3_4 C 0.0715(5) 0.4945(2) 0.79413(19)
C4_4 C 0.0829(5) 0.5565(3) 0.72792(18)
C5_4 C 0.4198(5) 0.4660(3) 0.78714(19)
H3_4 H 0.5331 0.4356 0.8072
C6_4 C 0.4309(5) 0.5281(3) 0.72054(19)
H4_4 H 0.5517 0.5393 0.6957
C7_4 C 0.2616(4) 0.5740(2) 0.69041(15)
C8_4 C 0.2731(4) 0.6384(2) 0.61753(14)
O2_4 O 0.1123(3) 0.67118(15) 0.58981(11)
H1_4 H 0.9505 0.4833 0.8188
H2_4 H 0.9693 0.5870 0.7082
loop_
_geom_bond_atom_site_label_1
_geom_bond_atom_site_label_2
_geom_bond_site_symmetry_1
_geom_bond_site_symmetry_2
C1 C2 1_555 1_555
C2 C3 1_555 1_555
C3 H1 1_555 1_555
C5 C2 1_555 1_555
O3 C1 1_555 1_555
O5 C1 1_555 1_555
V4 O5 1_555 1_555
H2 C4 1_555 1_555
C7 C4 1_555 1_555
C8 C7 1_555 1_555
O1 V1 1_555 1_555
O2 C8 1_555 1_555
O4 C8 1_555 1_555
V1 O2 1_555 1_555
O6 V1 1_555 1_555
O7 V1 1_555 1_555
O8 V1 1_555 1_555
O9 V1 1_555 1_555
C6 C7 1_555 1_555
O1_2 V4 1_555 1_555
H4_2 C6_2 1_555 1_555
C7_2 C4_2 1_555 1_555
C8_2 C7_2 1_555 1_555
O2_2 C8_2 1_555 1_555
O4_2 C8_2 1_555 1_555
C6_2 C7_2 1_555 1_555
O4_2 V3 1_555 1_555
C1_2 C2_2 1_555 1_555
C2_2 C3_2 1_555 1_555
C5_2 C2_2 1_555 1_555
H3_2 C5_2 1_555 1_555
O3_2 C1_2 1_555 1_555
O9 C1_2 1_555 1_555
C1_3 C2_3 1_555 1_555
C2_3 C3_3 1_555 1_555
C3_3 H1_3 1_555 1_555
C4_3 C3_3 1_555 1_555
H2_3 C4_3 1_555 1_555
C5_3 C2_3 1_555 1_555
C6_3 C5_3 1_555 1_555
C7_3 C4_3 1_555 1_555
C8_3 C7_3 1_555 1_555
O2_3 C8_3 1_555 1_555
O7 C1_3 1_555 1_555
O8_2 C8_3 1_555 1_555
O5_2 C1_3 1_555 1_555
V2 O5_2 1_555 1_555
C6_3 C7_3 1_555 1_555
O6_2 V3 1_555 1_555
O9_2 V3 1_555 1_555
C1_4 C2_4 1_555 1_555
C2_4 C3_4 1_555 1_555
C4_4 C3_4 1_555 1_555
C5_4 C2_4 1_555 1_555
H3_4 C5_4 1_555 1_555
C6_4 C5_4 1_555 1_555
H4_4 C6_4 1_555 1_555
C7_4 C4_4 1_555 1_555
C8_4 C7_4 1_555 1_555
O6 V2 1_555 1_555
O2_4 C8_4 1_555 1_555
O7_2 C1_4 1_555 1_555
O8 C8_4 1_555 1_555
O9_2 C1_4 1_555 1_555
V2 O2_4 1_555 1_555
C6_4 C7_4 1_555 1_555

#END
