
###############################################################################
#
# This file contains modified crystal structure data generated from the
# MOF subset of the Cambridge Structural Database (CSD) v543 
# hosted by the Cambridge Crystallographic Data Centre (CCDC).
#
# This work is licensed under the Creative Commons
# Attribution-NonCommercial-ShareAlike 4.0 International License.
# To view a copy of this license, visit
# http://creativecommons.org/licenses/by-nc-sa/4.0/
# or send a letter to
# Creative Commons, PO Box 1866, Mountain View, CA 94042, USA.
#
# CIF created using the CSD Python API on 29 September 2022
# The structure has been converted into the P1 space group
# The structure has a 3D framework
# The original CSD entry IXOSUL is in the rhombohedral crystal system
# The original CSD entry IXOSUL is in a Sohncke space group
# The framework has been calculated to contain at least 10.0% void space
# The void calculation uses a probe of radius 1.32A, grid spacing 0.4
#
###############################################################################

data_IXOSUL
_chemical_formula_moiety         '(C351 H277 Li22 N27 O34)n'
_symmetry_cell_setting           triclinic
_symmetry_space_group_name_H-M   'P 1'
_symmetry_Int_Tables_number      1
_space_group_name_Hall           'P 1'
loop_
_symmetry_equiv_pos_site_id
_symmetry_equiv_pos_as_xyz
1 x,y,z
_cell_length_a                   26.419(2)
_cell_length_b                   26.419(2)
_cell_length_c                   16.2344(16)
_cell_angle_alpha                90
_cell_angle_beta                 90
_cell_angle_gamma                120
_cell_volume                     9812.95
loop_
_atom_site_label
_atom_site_type_symbol
_atom_site_fract_x
_atom_site_fract_y
_atom_site_fract_z
Li4 Li 0.3760(5) 0.3031(5) 0.0175(7)
C12 C 0.8041(4) 0.5282(4) 0.0029(5)
H9 H 0.8165 0.5128 0.0448
H10 H 0.7210 0.4571 0.0006
C14 C 0.2756(3) 0.2115(3) 0.1098(4)
C15 C 0.2785(3) 0.1641(3) 0.0767(4)
H11 H 0.3016 0.1701 0.0304
C16 C 0.2486(3) 0.1093(3) 0.1103(4)
H12 H 0.2526 0.0794 0.0870
C17 C 0.2121(3) 0.0972(3) 0.1789(4)
C18 C 0.2069(3) 0.1435(3) 0.2095(4)
H13 H 0.1812 0.1367 0.2528
C19 C 0.2383(3) 0.1986(3) 0.1780(4)
H14 H 0.2350 0.2287 0.2024
C20 C 0.1798(3) 0.0405(3) 0.2163(4)
H15 H 0.1576 0.0378 0.2623
O4 O 0.30580(18) 0.26440(18) 0.0786(3)
Li7 Li 0.3785(5) 0.4035(7) 0.0132(6)
Li9 Li 0.3388(5) 0.3369(7) 0.1464(7)
Li10 Li 0.9271(7) 0.6240(5) 0.0175(7)
O5 O 0.41347(18) 0.37298(25) 0.0883(3)
Li1 Li 0.3583(5) 0.3847(5) 0.6645(7)
Li2 Li 0.3584(5) 0.2882(5) 0.6799(6)
Li3 Li 0.3315(5) 0.3279(5) 0.8131(7)
C1 C 0.4580(3) 0.3923(3) 0.7569(4)
C2 C 0.4984(3) 0.4461(3) 0.7237(4)
H1 H 0.4864 0.4618 0.6820
C3 C 0.5552(3) 0.4768(3) 0.7504(4)
H2 H 0.5799 0.5132 0.7272
C4 C 0.5773(3) 0.4559(3) 0.8104(4)
C5 C 0.4788(3) 0.3698(3) 0.8167(4)
H3 H 0.4532 0.3340 0.8406
C6 C 0.6386(4) 0.4908(4) 0.8342(5)
H4 H 0.6608 0.5262 0.8069
C7 C 0.6648(4) 0.4775(4) 0.8890(6)
H5 H 0.6431 0.4414 0.9147
C8 C 0.7269(3) 0.5146(4) 0.9155(5)
C9 C 0.7665(4) 0.5686(4) 0.8837(5)
H6 H 0.7552 0.5843 0.8413
C10 C 0.8229(3) 0.5996(3) 0.9140(5)
H7 H 0.8483 0.6359 0.8912
C11 C 0.5377(3) 0.3999(4) 0.8424(4)
H8 H 0.5507 0.3828 0.8808
C13 C 0.7456(4) 0.4933(4) 0.9767(6)
C27 C 0.2646(3) 0.1961(3) 0.7744(4)
C28 C 0.2467(3) 0.1773(3) 0.8565(5)
H21 H 0.2545 0.2047 0.8978
C29 C 0.2176(3) 0.1180(3) 0.8756(4)
H22 H 0.2052 0.1068 0.9295
C30 C 0.2066(3) 0.0758(3) 0.8191(5)
C31 C 0.2239(3) 0.0961(3) 0.7386(4)
H23 H 0.2161 0.0689 0.6972
C32 C 0.2514(3) 0.1533(3) 0.7179(4)
H24 H 0.2617 0.1638 0.6631
C33 C 0.1774(3) 0.0137(3) 0.8381(5)
H26 H 0.1618 0.0120 0.9539
O1 O 0.40218(18) 0.36294(18) 0.7342(3)
O2 O 0.29285(18) 0.25320(18) 0.7550(3)
O3 O 0.3538(2) 0.33979(18) 0.9283(3)
H31 H 0.3546 0.3705 0.9461
N3 N 0.8427(3) 0.5793(3) 0.9753(4)
Li6 Li 0.2820(5) 0.3069(7) 0.9978(7)
Li11 Li 0.2604(7) 0.2907(5) 0.6842(7)
O6 O 0.31932(27) 0.3129(2) 0.5950(3)
O7 O 0.29193(25) 0.36087(18) 0.7453(3)
N4 N 0.3946(2) 0.4709(2) 0.6257(4)
N5 N 0.3994(3) 0.2448(2) 0.6377(3)
N6 N 0.4207(3) 0.2634(4) 0.9753(4)
C21 C 0.1781(3) 0.9916(3) 0.1931(5)
H16 H 0.1994 0.9943 0.1460
C22 C 0.1470(3) 0.9335(3) 0.2319(4)
C23 C 0.1105(3) 0.9210(3) 0.2989(5)
H17 H 0.1043 0.9498 0.3215
C24 C 0.0829(3) 0.8647(3) 0.3328(4)
H18 H 0.0590 0.8577 0.3785
C25 C 0.1246(3) 0.8352(3) 0.2390(4)
H19 H 0.1304 0.8059 0.2175
C26 C 0.1525(3) 0.8871(3) 0.2024(4)
H20 H 0.1760 0.8925 0.1568
H27 H 0.0991 0.9295 0.0384
C37 C 0.0655(3) 0.8432(3) 0.0141(5)
H28 H 0.0473 0.8303 0.0649
N2 N 0.0885(2) 0.8212(2) 0.3044(3)
Li8 Li 0.0451(5) 0.7369(7) 0.3466(6)
H25 H 0.1733 0.9892 0.7944
C34 C 0.1559(3) 0.9877(3) 0.9090(5)
C35 C 0.1237(3) 0.9247(3) 0.9251(4)
C36 C 0.0969(4) 0.9035(3) 0.9979(5)
C38 C 0.0886(4) 0.8258(3) 0.8887(5)
H29 H 0.0856 0.7994 0.8485
C39 C 0.1207(4) 0.8833(3) 0.8704(5)
H30 H 0.1408 0.8950 0.8208
N1 N 0.0613(2) 0.8042(2) 0.9590(4)
Li5 Li 0.0250(5) 0.7180(5) 0.9978(7)
C21_2 C 0.0084(3) 0.1865(4) 0.1931(5)
H16_2 H 0.0057 0.2051 0.1460
C22_2 C 0.0665(3) 0.2135(4) 0.2319(4)
C23_2 C 0.0790(3) 0.1895(4) 0.2989(5)
H17_2 H 0.0502 0.1545 0.3215
C24_2 C 0.1353(3) 0.2182(4) 0.3328(4)
H18_2 H 0.1423 0.2013 0.3785
C25_2 C 0.1648(3) 0.2894(4) 0.2390(4)
H19_2 H 0.1941 0.3245 0.2175
C26_2 C 0.1129(3) 0.2654(4) 0.2024(4)
H20_2 H 0.1075 0.2835 0.1568
H27_2 H 0.0705 0.1696 0.0384
C37_2 C 0.1568(3) 0.2223(4) 0.0141(5)
H28_2 H 0.1697 0.2170 0.0649
N2_2 N 0.1788(2) 0.2673(3) 0.3044(3)
Li8_2 Li 0.2631(7) 0.3083(9) 0.3466(6)
H25_2 H 0.0108 0.1841 0.7944
C34_2 C 0.0123(3) 0.1682(4) 0.9090(5)
C35_2 C 0.0753(3) 0.1990(4) 0.9251(4)
C36_2 C 0.0965(3) 0.1934(5) 0.9979(5)
C38_2 C 0.1742(3) 0.2628(5) 0.8887(5)
H29_2 H 0.2006 0.2862 0.8485
C39_2 C 0.1167(3) 0.2374(5) 0.8704(5)
H30_2 H 0.1050 0.2458 0.8208
N1_2 N 0.1958(2) 0.2571(3) 0.9590(4)
Li4_2 Li 0.6969(5) 0.0729(7) 0.0175(7)
C12_2 C 0.4718(4) 0.2759(6) 0.0029(5)
H9_2 H 0.4872 0.3037 0.0448
H10_2 H 0.5429 0.2639 0.0006
C14_2 C 0.7885(3) 0.0641(4) 0.1098(4)
C15_2 C 0.8359(3) 0.1144(4) 0.0767(4)
H11_2 H 0.8299 0.1315 0.0304
C16_2 C 0.8907(3) 0.1393(4) 0.1103(4)
H12_2 H 0.9206 0.1732 0.0870
C17_2 C 0.9028(3) 0.1149(4) 0.1789(4)
C18_2 C 0.8565(3) 0.0634(4) 0.2095(4)
H13_2 H 0.8633 0.0445 0.2528
C19_2 C 0.8014(3) 0.0397(4) 0.1780(4)
H14_2 H 0.7713 0.0063 0.2024
C20_2 C 0.9595(3) 0.1393(4) 0.2163(4)
H15_2 H 0.9622 0.1198 0.2623
O4_2 O 0.73560(18) 0.04140(25) 0.0786(3)
Li9_2 Li 0.6631(7) 0.0018(9) 0.1464(7)
O5_2 O 0.62702(25) 0.04048(31) 0.0883(3)
Li2_2 Li 0.7118(5) 0.0702(7) 0.6799(6)
Li3_2 Li 0.6721(5) 0.0036(7) 0.8131(7)
C1_2 C 0.6077(3) 0.0657(4) 0.7569(4)
C2_2 C 0.5539(3) 0.0523(4) 0.7237(4)
H1_2 H 0.5382 0.0246 0.6820
C3_2 C 0.5232(3) 0.0784(4) 0.7504(4)
H2_2 H 0.4868 0.0667 0.7272
C4_2 C 0.5441(3) 0.1214(4) 0.8104(4)
C5_2 C 0.6302(3) 0.1090(4) 0.8167(4)
H3_2 H 0.6660 0.1192 0.8406
C6_2 C 0.5092(4) 0.1478(6) 0.8342(5)
H4_2 H 0.4738 0.1346 0.8069
C7_2 C 0.5225(4) 0.1873(6) 0.8890(6)
H5_2 H 0.5586 0.2017 0.9147
C8_2 C 0.4854(4) 0.2123(5) 0.9155(5)
C9_2 C 0.4314(4) 0.1979(6) 0.8837(5)
H6_2 H 0.4157 0.1709 0.8413
C10_2 C 0.4004(3) 0.2233(4) 0.9140(5)
H7_2 H 0.3641 0.2124 0.8912
C11_2 C 0.6001(4) 0.1378(5) 0.8424(4)
H8_2 H 0.6172 0.1679 0.8808
C13_2 C 0.5067(4) 0.2523(6) 0.9767(6)
C27_2 C 0.8039(3) 0.0685(4) 0.7744(4)
C28_2 C 0.8227(3) 0.0694(4) 0.8565(5)
H21_2 H 0.7953 0.0498 0.8978
C29_2 C 0.8820(3) 0.0996(4) 0.8756(4)
H22_2 H 0.8932 0.0984 0.9295
C30_2 C 0.9242(3) 0.1308(4) 0.8191(5)
C31_2 C 0.9039(3) 0.1278(4) 0.7386(4)
H23_2 H 0.9311 0.1472 0.6972
C32_2 C 0.8467(3) 0.0981(4) 0.7179(4)
H24_2 H 0.8362 0.0979 0.6631
C33_2 C 0.9863(3) 0.1637(4) 0.8381(5)
H26_2 H 0.9880 0.1498 0.9539
O1_2 O 0.63706(18) 0.03924(25) 0.7342(3)
O2_2 O 0.74680(18) 0.03965(25) 0.7550(3)
O3_2 O 0.66021(18) 0.01401(27) 0.9283(3)
O6_2 O 0.6871(2) 0.00646(34) 0.5950(3)
N5_2 N 0.7552(2) 0.1545(4) 0.6377(3)
N6_2 N 0.7366(4) 0.1573(5) 0.9753(4)
Li7_2 Li 0.5965(7) 0.9749(9) 0.0132(6)
Li1_2 Li 0.6153(5) 0.9736(7) 0.6645(7)
H31_2 H 0.6295 0.9841 0.9461
Li6_2 Li 0.6931(7) 0.9750(9) 0.9978(7)
Li11_2 Li 0.7093(5) 0.9698(9) 0.6842(7)
O7_2 O 0.63913(18) 0.93107(31) 0.7453(3)
N4_2 N 0.5291(2) 0.9238(3) 0.6257(4)
Li7_3 Li 0.0251(9) 0.6215(5) 0.0132(6)
Li1_3 Li 0.0264(7) 0.6417(5) 0.6645(7)
H31_3 H 0.0159 0.6454 0.9461
Li11_3 Li 0.0302(9) 0.7396(7) 0.6842(7)
O7_3 O 0.06893(31) 0.70807(25) 0.7453(3)
N4_3 N 0.0762(3) 0.6054(2) 0.6257(4)
C12_3 C 0.7241(6) 0.1959(4) 0.0029(5)
H9_3 H 0.6963 0.1835 0.0448
H10_3 H 0.7361 0.2790 0.0006
C14_3 C 0.9359(4) 0.7244(3) 0.1098(4)
C15_3 C 0.8856(4) 0.7215(3) 0.0767(4)
H11_3 H 0.8685 0.6984 0.0304
C16_3 C 0.8607(4) 0.7514(3) 0.1103(4)
H12_3 H 0.8268 0.7474 0.0870
C17_3 C 0.8851(4) 0.7879(3) 0.1789(4)
C18_3 C 0.9366(4) 0.7931(3) 0.2095(4)
H13_3 H 0.9555 0.8188 0.2528
C19_3 C 0.9603(4) 0.7617(3) 0.1780(4)
H14_3 H 0.9937 0.7650 0.2024
C20_3 C 0.8607(4) 0.8202(3) 0.2163(4)
H15_3 H 0.8802 0.8424 0.2623
C21_3 C 0.8135(4) 0.8219(3) 0.1931(5)
H16_3 H 0.7949 0.8006 0.1460
C22_3 C 0.7865(4) 0.8530(3) 0.2319(4)
C23_3 C 0.8105(4) 0.8895(3) 0.2989(5)
H17_3 H 0.8455 0.8957 0.3215
C24_3 C 0.7818(4) 0.9171(3) 0.3328(4)
H18_3 H 0.7987 0.9410 0.3785
C25_3 C 0.7106(4) 0.8754(3) 0.2390(4)
H19_3 H 0.6755 0.8696 0.2175
C26_3 C 0.7346(4) 0.8475(3) 0.2024(4)
H20_3 H 0.7165 0.8240 0.1568
H27_3 H 0.8304 0.9009 0.0384
C37_3 C 0.7777(4) 0.9345(3) 0.0141(5)
H28_3 H 0.7830 0.9527 0.0649
O4_3 O 0.95860(25) 0.69420(18) 0.0786(3)
N2_3 N 0.7327(3) 0.9115(2) 0.3044(3)
Li8_3 Li 0.6917(9) 0.9549(5) 0.3466(6)
Li9_3 Li 0.9982(9) 0.6612(5) 0.1464(7)
O5_3 O 0.95952(31) 0.58653(18) 0.0883(3)
Li2_3 Li 0.9298(7) 0.6416(5) 0.6799(6)
Li3_3 Li 0.9964(7) 0.6685(5) 0.8131(7)
C1_3 C 0.9343(4) 0.5420(3) 0.7569(4)
C2_3 C 0.9477(4) 0.5016(3) 0.7237(4)
H1_3 H 0.9754 0.5136 0.6820
C3_3 C 0.9216(4) 0.4448(3) 0.7504(4)
H2_3 H 0.9333 0.4201 0.7272
C4_3 C 0.8786(4) 0.4227(3) 0.8104(4)
C5_3 C 0.8910(4) 0.5212(3) 0.8167(4)
H3_3 H 0.8808 0.5468 0.8406
C6_3 C 0.8522(6) 0.3614(4) 0.8342(5)
H4_3 H 0.8654 0.3392 0.8069
C7_3 C 0.8127(6) 0.3352(4) 0.8890(6)
H5_3 H 0.7983 0.3569 0.9147
C8_3 C 0.7877(5) 0.2731(3) 0.9155(5)
C9_3 C 0.8021(6) 0.2335(4) 0.8837(5)
H6_3 H 0.8291 0.2448 0.8413
C10_3 C 0.7767(4) 0.1771(3) 0.9140(5)
H7_3 H 0.7876 0.1517 0.8912
C11_3 C 0.8622(5) 0.4623(3) 0.8424(4)
H8_3 H 0.8321 0.4493 0.8808
C13_3 C 0.7477(6) 0.2544(4) 0.9767(6)
C27_3 C 0.9315(4) 0.7354(3) 0.7744(4)
C28_3 C 0.9306(4) 0.7533(3) 0.8565(5)
H21_3 H 0.9502 0.7455 0.8978
C29_3 C 0.9004(4) 0.7824(3) 0.8756(4)
H22_3 H 0.9016 0.7948 0.9295
C30_3 C 0.8692(4) 0.7934(3) 0.8191(5)
C31_3 C 0.8722(4) 0.7761(3) 0.7386(4)
H23_3 H 0.8528 0.7839 0.6972
C32_3 C 0.9019(4) 0.7486(3) 0.7179(4)
H24_3 H 0.9021 0.7383 0.6631
C33_3 C 0.8363(4) 0.8226(3) 0.8381(5)
H25_3 H 0.8159 0.8267 0.7944
C34_3 C 0.8318(4) 0.8441(3) 0.9090(5)
H26_3 H 0.8502 0.8382 0.9539
C35_3 C 0.8010(4) 0.8763(3) 0.9251(4)
C36_3 C 0.8066(5) 0.9031(4) 0.9979(5)
C38_3 C 0.7372(5) 0.9114(4) 0.8887(5)
H29_3 H 0.7138 0.9144 0.8485
C39_3 C 0.7626(5) 0.8793(4) 0.8704(5)
H30_3 H 0.7542 0.8592 0.8208
O1_3 O 0.96076(25) 0.59782(18) 0.7342(3)
O2_3 O 0.96035(25) 0.70715(18) 0.7550(3)
O3_3 O 0.98599(27) 0.6462(2) 0.9283(3)
N1_3 N 0.7429(3) 0.9387(2) 0.9590(4)
O6_3 O 0.99354(34) 0.68068(27) 0.5950(3)
N5_3 N 0.8455(4) 0.6006(3) 0.6377(3)
Li4_3 Li 0.0427(5) 0.6364(5) 0.3508(7)
C1_4 C 0.1247(3) 0.7256(3) 0.0902(4)
C2_4 C 0.1651(3) 0.7794(3) 0.0570(4)
H1_4 H 0.1531 0.7951 0.0153
C3_4 C 0.2219(3) 0.8101(3) 0.0837(4)
H2_4 H 0.2466 0.8465 0.0605
C4_4 C 0.2440(3) 0.7892(3) 0.1437(4)
C5_4 C 0.1455(3) 0.7031(3) 0.1500(4)
H3_4 H 0.1199 0.6673 0.1739
C6_4 C 0.3053(4) 0.8241(4) 0.1675(5)
H4_4 H 0.3275 0.8595 0.1402
C7_4 C 0.3315(4) 0.8108(4) 0.2223(6)
H5_4 H 0.3098 0.7747 0.2480
C8_4 C 0.3936(3) 0.8479(4) 0.2488(5)
C9_4 C 0.4332(4) 0.9019(4) 0.2170(5)
H6_4 H 0.4219 0.9176 0.1746
C10_4 C 0.4896(3) 0.9329(3) 0.2473(5)
H7_4 H 0.5150 0.9692 0.2245
C11_4 C 0.2044(3) 0.7332(4) 0.1757(4)
H8_4 H 0.2174 0.7161 0.2141
C12_4 C 0.4708(4) 0.8615(4) 0.3362(5)
H9_4 H 0.4832 0.8461 0.3781
C13_4 C 0.4123(4) 0.8266(4) 0.3100(6)
H10_4 H 0.3877 0.7904 0.3339
O1_4 O 0.06885(18) 0.69627(18) 0.0675(3)
O3_4 O 0.0205(2) 0.67312(18) 0.2616(3)
H31_4 H 0.0213 0.7038 0.2794
N3_2 N 0.5094(3) 0.9126(3) 0.3086(4)
Li9_4 Li 0.0054(5) 0.6703(7) 0.4798(7)
Li10_2 Li 0.5938(7) 0.9573(5) 0.3508(7)
O5_4 O 0.08013(18) 0.70632(25) 0.4217(3)
N6_3 N 0.0874(3) 0.5967(4) 0.3086(4)
N5_4 N 0.0660(3) 0.5782(2) 0.9711(3)
C14_4 C 0.9423(3) 0.5448(3) 0.4431(4)
C15_4 C 0.9452(3) 0.4974(3) 0.4100(4)
H11_4 H 0.9683 0.5034 0.3637
C16_4 C 0.9153(3) 0.4426(3) 0.4436(4)
H12_4 H 0.9193 0.4127 0.4203
C17_4 C 0.8788(3) 0.4305(3) 0.5122(4)
C18_4 C 0.8736(3) 0.4768(3) 0.5428(4)
H13_4 H 0.8479 0.4700 0.5861
C19_4 C 0.9050(3) 0.5319(3) 0.5113(4)
H14_4 H 0.9017 0.5620 0.5357
C20_4 C 0.8465(3) 0.3738(3) 0.5496(4)
H15_4 H 0.8243 0.3711 0.5956
C21_4 C 0.8448(3) 0.3249(3) 0.5264(5)
H16_4 H 0.8661 0.3276 0.4793
C22_4 C 0.8137(3) 0.2668(3) 0.5652(4)
C23_4 C 0.7772(3) 0.2543(3) 0.6322(5)
H17_4 H 0.7710 0.2831 0.6548
C24_4 C 0.7496(3) 0.1980(3) 0.6661(4)
H18_4 H 0.7257 0.1910 0.7118
C25_4 C 0.7913(3) 0.1685(3) 0.5723(4)
H19_4 H 0.7971 0.1392 0.5508
C26_4 C 0.8192(3) 0.2204(3) 0.5357(4)
H20_4 H 0.8427 0.2258 0.4901
C27_4 C 0.9313(3) 0.5294(3) 0.1077(4)
C28_4 C 0.9134(3) 0.5106(3) 0.1898(5)
H21_4 H 0.9212 0.5380 0.2311
C29_4 C 0.8843(3) 0.4513(3) 0.2089(4)
H22_4 H 0.8719 0.4401 0.2628
C30_4 C 0.8733(3) 0.4091(3) 0.1524(5)
C31_4 C 0.8906(3) 0.4294(3) 0.0719(4)
H23_4 H 0.8828 0.4022 0.0305
C32_4 C 0.9181(3) 0.4866(3) 0.0512(4)
C33_4 C 0.8441(3) 0.3470(3) 0.1714(5)
H25_4 H 0.8400 0.3225 0.1277
C34_4 C 0.8226(3) 0.3210(3) 0.2423(5)
H26_4 H 0.8285 0.3453 0.2872
C35_4 C 0.7904(3) 0.2580(3) 0.2584(4)
C36_4 C 0.7636(4) 0.2368(3) 0.3312(5)
H27_4 H 0.7658 0.2628 0.3717
C37_4 C 0.7322(3) 0.1765(3) 0.3474(5)
H28_4 H 0.7140 0.1636 0.3982
C38_4 C 0.7553(4) 0.1591(3) 0.2220(5)
H29_4 H 0.7523 0.1327 0.1818
C39_4 C 0.7874(4) 0.2166(3) 0.2037(5)
H30_4 H 0.8075 0.2283 0.1541
O4_4 O 0.97247(18) 0.59773(18) 0.4119(3)
N1_4 N 0.7280(2) 0.1375(2) 0.2923(4)
Li5_2 Li 0.6916(5) 0.0514(5) 0.3312(7)
Li6_3 Li 0.9486(5) 0.6403(7) 0.3312(7)
H24_4 H 0.9284 0.4971 0.9964
Li4_4 Li 0.3636(5) 0.4062(7) 0.3508(7)
C1_5 C 0.2744(3) 0.3990(4) 0.0902(4)
C2_5 C 0.2206(3) 0.3856(4) 0.0570(4)
H1_5 H 0.2049 0.3579 0.0153
C3_5 C 0.1899(3) 0.4117(4) 0.0837(4)
H2_5 H 0.1535 0.4000 0.0605
C4_5 C 0.2108(3) 0.4547(4) 0.1437(4)
C5_5 C 0.2969(3) 0.4423(4) 0.1500(4)
H3_5 H 0.3327 0.4525 0.1739
C6_5 C 0.1759(4) 0.4811(6) 0.1675(5)
H4_5 H 0.1405 0.4679 0.1402
C7_5 C 0.1892(4) 0.5206(6) 0.2223(6)
H5_5 H 0.2253 0.5350 0.2480
C8_5 C 0.1521(4) 0.5456(5) 0.2488(5)
C9_5 C 0.0981(4) 0.5312(6) 0.2170(5)
H6_5 H 0.0824 0.5042 0.1746
C10_5 C 0.0671(3) 0.5566(4) 0.2473(5)
H7_5 H 0.0308 0.5457 0.2245
C11_5 C 0.2668(4) 0.4711(5) 0.1757(4)
H8_5 H 0.2839 0.5012 0.2141
C12_5 C 0.1385(4) 0.6092(6) 0.3362(5)
H9_5 H 0.1539 0.6370 0.3781
C13_5 C 0.1734(4) 0.5856(6) 0.3100(6)
H10_5 H 0.2096 0.5972 0.3339
C14_5 C 0.4552(3) 0.3974(4) 0.4431(4)
C15_5 C 0.5026(3) 0.4477(4) 0.4100(4)
H11_5 H 0.4966 0.4648 0.3637
C16_5 C 0.5574(3) 0.4726(4) 0.4436(4)
H12_5 H 0.5873 0.5065 0.4203
C17_5 C 0.5695(3) 0.4482(4) 0.5122(4)
C18_5 C 0.5232(3) 0.3967(4) 0.5428(4)
H13_5 H 0.5300 0.3778 0.5861
C19_5 C 0.4681(3) 0.3730(4) 0.5113(4)
H14_5 H 0.4380 0.3396 0.5357
C20_5 C 0.6262(3) 0.4726(4) 0.5496(4)
H15_5 H 0.6289 0.4531 0.5956
C21_5 C 0.6751(3) 0.5198(4) 0.5264(5)
H16_5 H 0.6724 0.5384 0.4793
C22_5 C 0.7332(3) 0.5468(4) 0.5652(4)
C23_5 C 0.7457(3) 0.5228(4) 0.6322(5)
H17_5 H 0.7169 0.4878 0.6548
C24_5 C 0.8020(3) 0.5515(4) 0.6661(4)
H18_5 H 0.8090 0.5346 0.7118
C25_5 C 0.8315(3) 0.6227(4) 0.5723(4)
H19_5 H 0.8608 0.6578 0.5508
C26_5 C 0.7796(3) 0.5987(4) 0.5357(4)
H20_5 H 0.7742 0.6168 0.4901
C27_5 C 0.4706(3) 0.4018(4) 0.1077(4)
C28_5 C 0.4894(3) 0.4027(4) 0.1898(5)
H21_5 H 0.4620 0.3831 0.2311
C29_5 C 0.5487(3) 0.4329(4) 0.2089(4)
H22_5 H 0.5599 0.4317 0.2628
C30_5 C 0.5909(3) 0.4641(4) 0.1524(5)
C31_5 C 0.5706(3) 0.4611(4) 0.0719(4)
H23_5 H 0.5978 0.4805 0.0305
C32_5 C 0.5134(3) 0.4314(4) 0.0512(4)
C33_5 C 0.6530(3) 0.4970(4) 0.1714(5)
H25_5 H 0.6775 0.5174 0.1277
C34_5 C 0.6790(3) 0.5015(4) 0.2423(5)
H26_5 H 0.6547 0.4831 0.2872
C35_5 C 0.7420(3) 0.5323(4) 0.2584(4)
C36_5 C 0.7632(3) 0.5267(5) 0.3312(5)
H27_5 H 0.7372 0.5029 0.3717
C37_5 C 0.8235(3) 0.5556(4) 0.3474(5)
H28_5 H 0.8364 0.5503 0.3982
C38_5 C 0.8409(3) 0.5961(5) 0.2220(5)
H29_5 H 0.8673 0.6195 0.1818
C39_5 C 0.7834(3) 0.5707(5) 0.2037(5)
H30_5 H 0.7717 0.5791 0.1541
O1_5 O 0.30373(18) 0.37257(25) 0.0675(3)
O3_5 O 0.32688(18) 0.34734(27) 0.2616(3)
H31_5 H 0.2962 0.3174 0.2794
O4_5 O 0.40227(18) 0.37473(25) 0.4119(3)
N1_5 N 0.8625(2) 0.5904(3) 0.2923(4)
Li6_4 Li 0.3597(7) 0.3084(9) 0.3312(7)
Li9_5 Li 0.3297(7) 0.3352(9) 0.4798(7)
O5_5 O 0.29368(25) 0.37382(31) 0.4217(3)
N6_4 N 0.4033(4) 0.4906(5) 0.3086(4)
H24_5 H 0.5029 0.4312 0.9964
N5_5 N 0.4218(2) 0.4879(4) 0.9711(3)
C14_6 C 0.6026(4) 0.0577(3) 0.4431(4)
C15_6 C 0.5523(4) 0.0548(3) 0.4100(4)
H11_6 H 0.5352 0.0317 0.3637
C16_6 C 0.5274(4) 0.0847(3) 0.4436(4)
H12_6 H 0.4935 0.0807 0.4203
C17_6 C 0.5518(4) 0.1212(3) 0.5122(4)
C18_6 C 0.6033(4) 0.1264(3) 0.5428(4)
H13_6 H 0.6222 0.1521 0.5861
C19_6 C 0.6270(4) 0.0950(3) 0.5113(4)
H14_6 H 0.6604 0.0983 0.5357
C20_6 C 0.5274(4) 0.1535(3) 0.5496(4)
H15_6 H 0.5469 0.1757 0.5956
C21_6 C 0.4802(4) 0.1552(3) 0.5264(5)
H16_6 H 0.4616 0.1339 0.4793
C22_6 C 0.4532(4) 0.1863(3) 0.5652(4)
C23_6 C 0.4772(4) 0.2228(3) 0.6322(5)
H17_6 H 0.5122 0.2290 0.6548
C24_6 C 0.4485(4) 0.2504(3) 0.6661(4)
H18_6 H 0.4654 0.2743 0.7118
C25_6 C 0.3773(4) 0.2087(3) 0.5723(4)
H19_6 H 0.3422 0.2029 0.5508
C26_6 C 0.4013(4) 0.1808(3) 0.5357(4)
H20_6 H 0.3832 0.1573 0.4901
C27_6 C 0.5982(4) 0.0687(3) 0.1077(4)
C28_6 C 0.5973(4) 0.0866(3) 0.1898(5)
H21_6 H 0.6169 0.0788 0.2311
C29_6 C 0.5671(4) 0.1157(3) 0.2089(4)
H22_6 H 0.5683 0.1281 0.2628
C30_6 C 0.5359(4) 0.1267(3) 0.1524(5)
C31_6 C 0.5389(4) 0.1094(3) 0.0719(4)
H23_6 H 0.5195 0.1172 0.0305
C32_6 C 0.5686(4) 0.0819(3) 0.0512(4)
C33_6 C 0.5030(4) 0.1559(3) 0.1714(5)
H25_6 H 0.4826 0.1600 0.1277
C34_6 C 0.4985(4) 0.1774(3) 0.2423(5)
H26_6 H 0.5169 0.1715 0.2872
C35_6 C 0.4677(4) 0.2096(3) 0.2584(4)
C36_6 C 0.4733(5) 0.2364(4) 0.3312(5)
H27_6 H 0.4971 0.2342 0.3717
C37_6 C 0.4444(4) 0.2678(3) 0.3474(5)
H28_6 H 0.4497 0.2860 0.3982
C38_6 C 0.4039(5) 0.2447(4) 0.2220(5)
H29_6 H 0.3805 0.2477 0.1818
C39_6 C 0.4293(5) 0.2126(4) 0.2037(5)
H30_6 H 0.4209 0.1925 0.1541
O4_6 O 0.62527(25) 0.02753(18) 0.4119(3)
N1_6 N 0.4096(3) 0.2720(2) 0.2923(4)
H24_6 H 0.5688 0.0716 0.9964
C1_6 C 0.6010(4) 0.8753(3) 0.0902(4)
C2_6 C 0.6144(4) 0.8349(3) 0.0570(4)
H1_6 H 0.6421 0.8469 0.0153
C3_6 C 0.5883(4) 0.7781(3) 0.0837(4)
H2_6 H 0.6000 0.7534 0.0605
C4_6 C 0.5453(4) 0.7560(3) 0.1437(4)
C5_6 C 0.5577(4) 0.8545(3) 0.1500(4)
H3_6 H 0.5475 0.8801 0.1739
C6_6 C 0.5189(6) 0.6947(4) 0.1675(5)
H4_6 H 0.5321 0.6725 0.1402
C7_6 C 0.4794(6) 0.6685(4) 0.2223(6)
H5_6 H 0.4650 0.6902 0.2480
C8_6 C 0.4544(5) 0.6064(3) 0.2488(5)
C9_6 C 0.4688(6) 0.5668(4) 0.2170(5)
H6_6 H 0.4958 0.5781 0.1746
C10_6 C 0.4434(4) 0.5104(3) 0.2473(5)
H7_6 H 0.4543 0.4850 0.2245
C11_6 C 0.5289(5) 0.7956(3) 0.1757(4)
H8_6 H 0.4988 0.7826 0.2141
C12_6 C 0.3908(6) 0.5292(4) 0.3362(5)
H9_6 H 0.3630 0.5168 0.3781
C13_6 C 0.4144(6) 0.5877(4) 0.3100(6)
H10_6 H 0.4028 0.6123 0.3339
O1_6 O 0.62743(25) 0.93115(18) 0.0675(3)
O3_6 O 0.65266(27) 0.9795(2) 0.2616(3)
H31_6 H 0.6826 0.9787 0.2794
Li9_6 Li 0.6648(9) 0.9946(5) 0.4798(7)
O5_6 O 0.62618(31) 0.91987(18) 0.4217(3)
N5_6 N 0.5121(4) 0.9340(3) 0.9711(3)
C8_7 C 0.0602(3) 0.1813(4) 0.5822(5)
C9_7 C 0.0998(4) 0.2353(4) 0.5504(5)
H6_7 H 0.0885 0.2510 0.5080
C10_7 C 0.1562(3) 0.2663(3) 0.5807(5)
H7_7 H 0.1816 0.3026 0.5579
C12_7 C 0.1374(4) 0.1949(4) 0.6696(5)
H9_7 H 0.1498 0.1795 0.7115
C13_7 C 0.0789(4) 0.1600(4) 0.6434(6)
H10_7 H 0.0543 0.1238 0.6673
N3_3 N 0.1760(3) 0.2460(3) 0.6420(4)
C1_7 C 0.7913(3) 0.0590(3) 0.4236(4)
C2_7 C 0.8317(3) 0.1128(3) 0.3904(4)
H1_7 H 0.8197 0.1285 0.3487
C3_7 C 0.8885(3) 0.1435(3) 0.4171(4)
H2_7 H 0.9132 0.1799 0.3939
C4_7 C 0.9106(3) 0.1226(3) 0.4771(4)
C5_7 C 0.8121(3) 0.0365(3) 0.4834(4)
H3_7 H 0.7865 0.0007 0.5073
C6_7 C 0.9719(4) 0.1575(4) 0.5009(5)
H4_7 H 0.9941 0.1929 0.4736
C7_7 C 0.9981(4) 0.1442(4) 0.5557(6)
H5_7 H 0.9764 0.1081 0.5814
C11_7 C 0.8710(3) 0.0666(4) 0.5091(4)
H8_7 H 0.8840 0.0495 0.5475
O1_7 O 0.73551(18) 0.02961(18) 0.4009(3)
H31_7 H 0.6879 0.0372 0.6128
H18_7 H 0.3923 0.5244 0.0452
C14_7 C 0.6089(3) 0.8782(3) 0.7765(4)
C15_7 C 0.6118(3) 0.8308(3) 0.7434(4)
H11_7 H 0.6349 0.8368 0.6971
C16_7 C 0.5819(3) 0.7760(3) 0.7770(4)
H12_7 H 0.5859 0.7461 0.7537
C17_7 C 0.5454(3) 0.7639(3) 0.8456(4)
C18_7 C 0.5402(3) 0.8102(3) 0.8762(4)
H13_7 H 0.5145 0.8034 0.9195
C19_7 C 0.5716(3) 0.8653(3) 0.8447(4)
H14_7 H 0.5683 0.8954 0.8691
C20_7 C 0.5131(3) 0.7072(3) 0.8830(4)
H15_7 H 0.4909 0.7045 0.9290
C21_7 C 0.5114(3) 0.6583(3) 0.8598(5)
H16_7 H 0.5327 0.6610 0.8127
C22_7 C 0.4803(3) 0.6002(3) 0.8986(4)
C23_7 C 0.4438(3) 0.5877(3) 0.9656(5)
H17_7 H 0.4376 0.6165 0.9882
C24_7 C 0.4162(3) 0.5314(3) 0.9995(4)
C25_7 C 0.4579(3) 0.5019(3) 0.9057(4)
H19_7 H 0.4637 0.4726 0.8842
C26_7 C 0.4858(3) 0.5538(3) 0.8691(4)
H20_7 H 0.5093 0.5592 0.8235
C27_7 C 0.5979(3) 0.8628(3) 0.4411(4)
C28_7 C 0.5800(3) 0.8440(3) 0.5232(5)
H21_7 H 0.5878 0.8714 0.5645
C29_7 C 0.5509(3) 0.7847(3) 0.5423(4)
H22_7 H 0.5385 0.7735 0.5962
C30_7 C 0.5399(3) 0.7425(3) 0.4858(5)
C31_7 C 0.5572(3) 0.7628(3) 0.4053(4)
H23_7 H 0.5494 0.7356 0.3639
C32_7 C 0.5847(3) 0.8200(3) 0.3846(4)
H24_7 H 0.5950 0.8305 0.3298
C33_7 C 0.5107(3) 0.6804(3) 0.5048(5)
H25_7 H 0.5066 0.6559 0.4611
C34_7 C 0.4892(3) 0.6544(3) 0.5757(5)
H26_7 H 0.4951 0.6787 0.6206
C35_7 C 0.4570(3) 0.5914(3) 0.5918(4)
C36_7 C 0.4302(4) 0.5702(3) 0.6646(5)
H27_7 H 0.4324 0.5962 0.7051
C37_7 C 0.3988(3) 0.5099(3) 0.6808(5)
H28_7 H 0.3806 0.4970 0.7316
C38_7 C 0.4219(4) 0.4925(3) 0.5554(5)
H29_7 H 0.4189 0.4661 0.5152
C39_7 C 0.4540(4) 0.5500(3) 0.5371(5)
H30_7 H 0.4741 0.5617 0.4875
N6_5 N 0.7540(3) 0.9301(4) 0.6420(4)
H18_8 H 0.4756 0.8680 0.0452
C14_8 C 0.1218(3) 0.7308(4) 0.7765(4)
C15_8 C 0.1692(3) 0.7811(4) 0.7434(4)
H11_8 H 0.1632 0.7982 0.6971
C16_8 C 0.2240(3) 0.8060(4) 0.7770(4)
H12_8 H 0.2539 0.8399 0.7537
C17_8 C 0.2361(3) 0.7816(4) 0.8456(4)
C18_8 C 0.1898(3) 0.7301(4) 0.8762(4)
H13_8 H 0.1966 0.7112 0.9195
C19_8 C 0.1347(3) 0.7064(4) 0.8447(4)
H14_8 H 0.1046 0.6730 0.8691
C20_8 C 0.2928(3) 0.8060(4) 0.8830(4)
H15_8 H 0.2955 0.7865 0.9290
C21_8 C 0.3417(3) 0.8532(4) 0.8598(5)
H16_8 H 0.3390 0.8718 0.8127
C22_8 C 0.3998(3) 0.8802(4) 0.8986(4)
C23_8 C 0.4123(3) 0.8562(4) 0.9656(5)
H17_8 H 0.3835 0.8212 0.9882
C24_8 C 0.4686(3) 0.8849(4) 0.9995(4)
C25_8 C 0.4981(3) 0.9561(4) 0.9057(4)
H19_8 H 0.5274 0.9912 0.8842
C26_8 C 0.4462(3) 0.9321(4) 0.8691(4)
H20_8 H 0.4408 0.9502 0.8235
C27_8 C 0.1372(3) 0.7352(4) 0.4411(4)
C28_8 C 0.1560(3) 0.7361(4) 0.5232(5)
H21_8 H 0.1286 0.7165 0.5645
C29_8 C 0.2153(3) 0.7663(4) 0.5423(4)
H22_8 H 0.2265 0.7651 0.5962
C30_8 C 0.2575(3) 0.7975(4) 0.4858(5)
C31_8 C 0.2372(3) 0.7945(4) 0.4053(4)
H23_8 H 0.2644 0.8139 0.3639
C32_8 C 0.1800(3) 0.7648(4) 0.3846(4)
H24_8 H 0.1695 0.7646 0.3298
C33_8 C 0.3196(3) 0.8304(4) 0.5048(5)
H25_8 H 0.3441 0.8508 0.4611
C34_8 C 0.3456(3) 0.8349(4) 0.5757(5)
H26_8 H 0.3213 0.8165 0.6206
C35_8 C 0.4086(3) 0.8657(4) 0.5918(4)
C36_8 C 0.4298(3) 0.8601(5) 0.6646(5)
H27_8 H 0.4038 0.8363 0.7051
C37_8 C 0.4901(3) 0.8890(4) 0.6808(5)
H28_8 H 0.5030 0.8837 0.7316
C38_8 C 0.5075(3) 0.9295(5) 0.5554(5)
H29_8 H 0.5339 0.9529 0.5152
C39_8 C 0.4500(3) 0.9041(5) 0.5371(5)
H30_8 H 0.4383 0.9125 0.4875
N6_6 N 0.0699(4) 0.8240(5) 0.6420(4)
C1_8 C 0.9410(3) 0.7324(4) 0.4236(4)
C2_8 C 0.8872(3) 0.7190(4) 0.3904(4)
H1_8 H 0.8715 0.6913 0.3487
C3_8 C 0.8565(3) 0.7451(4) 0.4171(4)
H2_8 H 0.8201 0.7334 0.3939
C4_8 C 0.8774(3) 0.7881(4) 0.4771(4)
C5_8 C 0.9635(3) 0.7757(4) 0.4834(4)
H3_8 H 0.9993 0.7859 0.5073
C6_8 C 0.8425(4) 0.8145(6) 0.5009(5)
H4_8 H 0.8071 0.8013 0.4736
C7_8 C 0.8558(4) 0.8540(6) 0.5557(6)
H5_8 H 0.8919 0.8684 0.5814
C8_8 C 0.8187(4) 0.8790(5) 0.5822(5)
C9_8 C 0.7647(4) 0.8646(6) 0.5504(5)
H6_8 H 0.7490 0.8376 0.5080
C10_8 C 0.7337(3) 0.8900(4) 0.5807(5)
H7_8 H 0.6974 0.8791 0.5579
C11_8 C 0.9334(4) 0.8045(5) 0.5091(4)
H8_8 H 0.9505 0.8346 0.5475
C12_8 C 0.8051(4) 0.9426(6) 0.6696(5)
H9_8 H 0.8205 0.9704 0.7115
C13_8 C 0.8400(4) 0.9190(6) 0.6434(6)
H10_8 H 0.8762 0.9306 0.6673
O1_8 O 0.97039(18) 0.70591(25) 0.4009(3)
H31_8 H 0.9628 0.6508 0.6128
H18_9 H 0.1320 0.6077 0.0452
C1_9 C 0.2676(4) 0.2087(3) 0.4236(4)
C2_9 C 0.2810(4) 0.1683(3) 0.3904(4)
H1_9 H 0.3087 0.1803 0.3487
C3_9 C 0.2549(4) 0.1115(3) 0.4171(4)
H2_9 H 0.2666 0.0868 0.3939
C4_9 C 0.2119(4) 0.0894(3) 0.4771(4)
C5_9 C 0.2243(4) 0.1879(3) 0.4834(4)
H3_9 H 0.2141 0.2135 0.5073
C6_9 C 0.1855(6) 0.0281(4) 0.5009(5)
H4_9 H 0.1987 0.0059 0.4736
C7_9 C 0.1460(6) 0.0019(4) 0.5557(6)
H5_9 H 0.1316 0.0236 0.5814
C11_9 C 0.1955(5) 0.1290(3) 0.5091(4)
H8_9 H 0.1654 0.1160 0.5475
C14_9 C 0.2692(4) 0.3911(3) 0.7765(4)
C15_9 C 0.2189(4) 0.3882(3) 0.7434(4)
H11_9 H 0.2018 0.3651 0.6971
C16_9 C 0.1940(4) 0.4181(3) 0.7770(4)
H12_9 H 0.1601 0.4141 0.7537
C17_9 C 0.2184(4) 0.4546(3) 0.8456(4)
C18_9 C 0.2699(4) 0.4598(3) 0.8762(4)
H13_9 H 0.2888 0.4855 0.9195
C19_9 C 0.2936(4) 0.4284(3) 0.8447(4)
H14_9 H 0.3270 0.4317 0.8691
C20_9 C 0.1940(4) 0.4869(3) 0.8830(4)
H15_9 H 0.2135 0.5091 0.9290
C21_9 C 0.1468(4) 0.4886(3) 0.8598(5)
H16_9 H 0.1282 0.4673 0.8127
C22_9 C 0.1198(4) 0.5197(3) 0.8986(4)
C23_9 C 0.1438(4) 0.5562(3) 0.9656(5)
H17_9 H 0.1788 0.5624 0.9882
C24_9 C 0.1151(4) 0.5838(3) 0.9995(4)
C25_9 C 0.0439(4) 0.5421(3) 0.9057(4)
H19_9 H 0.0088 0.5363 0.8842
C26_9 C 0.0679(4) 0.5142(3) 0.8691(4)
H20_9 H 0.0498 0.4907 0.8235
C27_9 C 0.2648(4) 0.4021(3) 0.4411(4)
C28_9 C 0.2639(4) 0.4200(3) 0.5232(5)
H21_9 H 0.2835 0.4122 0.5645
C29_9 C 0.2337(4) 0.4491(3) 0.5423(4)
H22_9 H 0.2349 0.4615 0.5962
C30_9 C 0.2025(4) 0.4601(3) 0.4858(5)
C31_9 C 0.2055(4) 0.4428(3) 0.4053(4)
H23_9 H 0.1861 0.4506 0.3639
C32_9 C 0.2352(4) 0.4153(3) 0.3846(4)
H24_9 H 0.2354 0.4050 0.3298
C33_9 C 0.1696(4) 0.4893(3) 0.5048(5)
H25_9 H 0.1492 0.4934 0.4611
C34_9 C 0.1651(4) 0.5108(3) 0.5757(5)
H26_9 H 0.1835 0.5049 0.6206
C35_9 C 0.1343(4) 0.5430(3) 0.5918(4)
C36_9 C 0.1399(5) 0.5698(4) 0.6646(5)
H27_9 H 0.1637 0.5676 0.7051
C37_9 C 0.1110(4) 0.6012(3) 0.6808(5)
H28_9 H 0.1163 0.6194 0.7316
C38_9 C 0.0705(5) 0.5781(4) 0.5554(5)
H29_9 H 0.0471 0.5811 0.5152
C39_9 C 0.0959(5) 0.5460(4) 0.5371(5)
H30_9 H 0.0875 0.5259 0.4875
O1_9 O 0.29409(25) 0.26449(18) 0.4009(3)
H31_9 H 0.3492 0.3121 0.6128
C8_9 C 0.1210(5) 0.9398(3) 0.5822(5)
C9_9 C 0.1354(6) 0.9002(4) 0.5504(5)
H6_9 H 0.1624 0.9115 0.5080
C10_9 C 0.1100(4) 0.8438(3) 0.5807(5)
H7_9 H 0.1209 0.8184 0.5579
C12_9 C 0.0574(6) 0.8626(4) 0.6696(5)
H9_9 H 0.0296 0.8502 0.7115
C13_9 C 0.0810(6) 0.9211(4) 0.6434(6)
H10_9 H 0.0694 0.9457 0.6673
loop_
_geom_bond_atom_site_label_1
_geom_bond_atom_site_label_2
_geom_bond_site_symmetry_1
_geom_bond_site_symmetry_2
C12 H9 1_555 1_555
C14 C15 1_555 1_555
C15 H11 1_555 1_555
C16 C15 1_555 1_555
H12 C16 1_555 1_555
C17 C16 1_555 1_555
C18 C17 1_555 1_555
H13 C18 1_555 1_555
C19 C14 1_555 1_555
H14 C19 1_555 1_555
C20 C17 1_555 1_555
H15 C20 1_555 1_555
O4 Li4 1_555 1_555
Li9 O4 1_555 1_555
O5 Li4 1_555 1_555
C14 O4 1_555 1_555
C18 C19 1_555 1_555
Li7 O5 1_555 1_555
Li9 O5 1_555 1_555
Li1 O1 1_555 1_555
Li2 O1 1_555 1_555
Li3 O1 1_555 1_555
C1 C2 1_555 1_555
C2 H1 1_555 1_555
C3 C2 1_555 1_555
H2 C3 1_555 1_555
C4 C3 1_555 1_555
C5 C1 1_555 1_555
H3 C5 1_555 1_555
C6 C4 1_555 1_555
H4 C6 1_555 1_555
C7 C6 1_555 1_555
H5 C7 1_555 1_555
C8 C7 1_555 1_555
C9 C8 1_555 1_555
H6 C9 1_555 1_555
C10 C9 1_555 1_555
H7 C10 1_555 1_555
C11 C4 1_555 1_555
H8 C11 1_555 1_555
C13 C8 1_555 1_555
C27 C28 1_555 1_555
C28 H21 1_555 1_555
C29 C28 1_555 1_555
H22 C29 1_555 1_555
C30 C29 1_555 1_555
C31 C30 1_555 1_555
H23 C31 1_555 1_555
C32 C27 1_555 1_555
H24 C32 1_555 1_555
C33 C30 1_555 1_555
O1 C1 1_555 1_555
O2 Li2 1_555 1_555
O3 Li3 1_555 1_555
H31 O3 1_555 1_555
N3 C10 1_555 1_555
Li6 O3 1_555 1_555
Li11 O2 1_555 1_555
O6 Li1 1_555 1_555
O7 Li1 1_555 1_555
N4 Li1 1_555 1_555
N5 Li2 1_555 1_555
Li2 O6 1_555 1_555
Li3 O2 1_555 1_555
Li3 O7 1_555 1_555
C5 C11 1_555 1_555
C27 O2 1_555 1_555
C31 C32 1_555 1_555
Li11 O6 1_555 1_555
Li11 O7 1_555 1_555
H16 C21 1_555 1_555
C22 C21 1_555 1_555
C23 C22 1_555 1_555
H17 C23 1_555 1_555
C24 C23 1_555 1_555
H18 C24 1_555 1_555
C25 H19 1_555 1_555
C26 C22 1_555 1_555
H20 C26 1_555 1_555
H28 C37 1_555 1_555
N2 C24 1_555 1_555
Li8 N2 1_555 1_555
C25 C26 1_555 1_555
C25 N2 1_555 1_555
C35 C34 1_555 1_555
C36 C35 1_555 1_555
C38 H29 1_555 1_555
C39 C35 1_555 1_555
H30 C39 1_555 1_555
Li5 N1 1_555 1_555
C38 C39 1_555 1_555
C38 N1 1_555 1_555
H16_2 C21_2 1_555 1_555
C22_2 C21_2 1_555 1_555
C23_2 C22_2 1_555 1_555
H17_2 C23_2 1_555 1_555
C24_2 C23_2 1_555 1_555
H18_2 C24_2 1_555 1_555
C25_2 H19_2 1_555 1_555
C26_2 C22_2 1_555 1_555
H20_2 C26_2 1_555 1_555
H28_2 C37_2 1_555 1_555
N2_2 C24_2 1_555 1_555
Li8_2 N2_2 1_555 1_555
C25_2 C26_2 1_555 1_555
C25_2 N2_2 1_555 1_555
C35_2 C34_2 1_555 1_555
C36_2 C35_2 1_555 1_555
C38_2 H29_2 1_555 1_555
C39_2 C35_2 1_555 1_555
H30_2 C39_2 1_555 1_555
Li6 N1_2 1_555 1_555
C38_2 C39_2 1_555 1_555
C38_2 N1_2 1_555 1_555
C12_2 H9_2 1_555 1_555
C14_2 C15_2 1_555 1_555
C15_2 H11_2 1_555 1_555
C16_2 C15_2 1_555 1_555
H12_2 C16_2 1_555 1_555
C17_2 C16_2 1_555 1_555
C18_2 C17_2 1_555 1_555
H13_2 C18_2 1_555 1_555
C19_2 C14_2 1_555 1_555
H14_2 C19_2 1_555 1_555
C20_2 C17_2 1_555 1_555
H15_2 C20_2 1_555 1_555
O4_2 Li4_2 1_555 1_555
Li9_2 O4_2 1_555 1_555
O5_2 Li4_2 1_555 1_555
C14_2 O4_2 1_555 1_555
C18_2 C19_2 1_555 1_555
Li9_2 O5_2 1_555 1_555
Li2_2 O1_2 1_555 1_555
Li3_2 O1_2 1_555 1_555
C1_2 C2_2 1_555 1_555
C2_2 H1_2 1_555 1_555
C3_2 C2_2 1_555 1_555
H2_2 C3_2 1_555 1_555
C4_2 C3_2 1_555 1_555
C5_2 C1_2 1_555 1_555
H3_2 C5_2 1_555 1_555
C6_2 C4_2 1_555 1_555
H4_2 C6_2 1_555 1_555
C7_2 C6_2 1_555 1_555
H5_2 C7_2 1_555 1_555
C8_2 C7_2 1_555 1_555
C9_2 C8_2 1_555 1_555
H6_2 C9_2 1_555 1_555
C10_2 C9_2 1_555 1_555
H7_2 C10_2 1_555 1_555
C11_2 C4_2 1_555 1_555
H8_2 C11_2 1_555 1_555
C13_2 C8_2 1_555 1_555
C27_2 C28_2 1_555 1_555
C28_2 H21_2 1_555 1_555
C29_2 C28_2 1_555 1_555
H22_2 C29_2 1_555 1_555
C30_2 C29_2 1_555 1_555
C31_2 C30_2 1_555 1_555
H23_2 C31_2 1_555 1_555
C32_2 C27_2 1_555 1_555
H24_2 C32_2 1_555 1_555
C33_2 C30_2 1_555 1_555
O1_2 C1_2 1_555 1_555
O2_2 Li2_2 1_555 1_555
O3_2 Li3_2 1_555 1_555
N6 C10_2 1_555 1_555
N5_2 Li2_2 1_555 1_555
Li2_2 O6_2 1_555 1_555
Li3_2 O2_2 1_555 1_555
C5_2 C11_2 1_555 1_555
C27_2 O2_2 1_555 1_555
C31_2 C32_2 1_555 1_555
O7_2 Li1_2 1_555 1_555
N4_2 Li1_2 1_555 1_555
Li11_2 O7_2 1_555 1_555
O7_3 Li1_3 1_555 1_555
N4_3 Li1_3 1_555 1_555
Li11_3 O7_3 1_555 1_555
C12_3 H9_3 1_555 1_555
C14_3 C15_3 1_555 1_555
C15_3 H11_3 1_555 1_555
C16_3 C15_3 1_555 1_555
H12_3 C16_3 1_555 1_555
C17_3 C16_3 1_555 1_555
C18_3 C17_3 1_555 1_555
H13_3 C18_3 1_555 1_555
C19_3 C14_3 1_555 1_555
H14_3 C19_3 1_555 1_555
C20_3 C17_3 1_555 1_555
H15_3 C20_3 1_555 1_555
C21_3 C20_3 1_555 1_555
H16_3 C21_3 1_555 1_555
C22_3 C21_3 1_555 1_555
C23_3 C22_3 1_555 1_555
H17_3 C23_3 1_555 1_555
C24_3 C23_3 1_555 1_555
H18_3 C24_3 1_555 1_555
C25_3 H19_3 1_555 1_555
C26_3 C22_3 1_555 1_555
H20_3 C26_3 1_555 1_555
H28_3 C37_3 1_555 1_555
O4_3 Li10 1_555 1_555
N2_3 C24_3 1_555 1_555
Li8_3 N2_3 1_555 1_555
Li9_3 O4_3 1_555 1_555
O5_3 Li10 1_555 1_555
C14_3 O4_3 1_555 1_555
C18_3 C19_3 1_555 1_555
C25_3 C26_3 1_555 1_555
C25_3 N2_3 1_555 1_555
Li9_3 O5_3 1_555 1_555
Li2_3 O1_3 1_555 1_555
Li3_3 O1_3 1_555 1_555
C1_3 C2_3 1_555 1_555
C2_3 H1_3 1_555 1_555
C3_3 C2_3 1_555 1_555
H2_3 C3_3 1_555 1_555
C4_3 C3_3 1_555 1_555
C5_3 C1_3 1_555 1_555
H3_3 C5_3 1_555 1_555
C6_3 C4_3 1_555 1_555
H4_3 C6_3 1_555 1_555
C7_3 C6_3 1_555 1_555
H5_3 C7_3 1_555 1_555
C8_3 C7_3 1_555 1_555
C9_3 C8_3 1_555 1_555
H6_3 C9_3 1_555 1_555
C10_3 C9_3 1_555 1_555
H7_3 C10_3 1_555 1_555
C11_3 C4_3 1_555 1_555
H8_3 C11_3 1_555 1_555
C13_3 C8_3 1_555 1_555
C27_3 C28_3 1_555 1_555
C28_3 H21_3 1_555 1_555
C29_3 C28_3 1_555 1_555
H22_3 C29_3 1_555 1_555
C30_3 C29_3 1_555 1_555
C31_3 C30_3 1_555 1_555
H23_3 C31_3 1_555 1_555
C32_3 C27_3 1_555 1_555
H24_3 C32_3 1_555 1_555
C33_3 C30_3 1_555 1_555
H25_3 C33_3 1_555 1_555
C34_3 C33_3 1_555 1_555
H26_3 C34_3 1_555 1_555
C35_3 C34_3 1_555 1_555
C36_3 C35_3 1_555 1_555
C38_3 H29_3 1_555 1_555
C39_3 C35_3 1_555 1_555
H30_3 C39_3 1_555 1_555
O1_3 C1_3 1_555 1_555
O2_3 Li2_3 1_555 1_555
O3_3 Li3_3 1_555 1_555
N6_2 C10_3 1_555 1_555
Li6_2 N1_3 1_555 1_555
N5_3 Li2_3 1_555 1_555
Li2_3 O6_3 1_555 1_555
Li3_3 O2_3 1_555 1_555
C5_3 C11_3 1_555 1_555
C27_3 O2_3 1_555 1_555
C31_3 C32_3 1_555 1_555
C38_3 C39_3 1_555 1_555
C38_3 N1_3 1_555 1_555
Li7_3 O1_4 1_555 1_555
Li4_3 O3_4 1_555 1_555
C1_4 C2_4 1_555 1_555
C2_4 H1_4 1_555 1_555
C3_4 C2_4 1_555 1_555
H2_4 C3_4 1_555 1_555
C4_4 C3_4 1_555 1_555
C5_4 C1_4 1_555 1_555
H3_4 C5_4 1_555 1_555
C6_4 C4_4 1_555 1_555
H4_4 C6_4 1_555 1_555
C7_4 C6_4 1_555 1_555
H5_4 C7_4 1_555 1_555
C8_4 C7_4 1_555 1_555
C9_4 C8_4 1_555 1_555
H6_4 C9_4 1_555 1_555
C10_4 C9_4 1_555 1_555
H7_4 C10_4 1_555 1_555
C11_4 C4_4 1_555 1_555
H8_4 C11_4 1_555 1_555
C12_4 H9_4 1_555 1_555
C13_4 C8_4 1_555 1_555
H10_4 C13_4 1_555 1_555
O1_4 C1_4 1_555 1_555
H31_4 O3_4 1_555 1_555
N3_2 C10_4 1_555 1_555
Li8 O3_4 1_555 1_555
Li10_2 N3_2 1_555 1_555
O5_4 Li4_3 1_555 1_555
N6_3 Li4_3 1_555 1_555
C5_4 C11_4 1_555 1_555
C12_4 C13_4 1_555 1_555
C12_4 N3_2 1_555 1_555
Li8 O5_4 1_555 1_555
Li9_4 O5_4 1_555 1_555
C14_4 C15_4 1_555 1_555
C15_4 H11_4 1_555 1_555
C16_4 C15_4 1_555 1_555
H12_4 C16_4 1_555 1_555
C17_4 C16_4 1_555 1_555
C18_4 C17_4 1_555 1_555
H13_4 C18_4 1_555 1_555
C19_4 C14_4 1_555 1_555
H14_4 C19_4 1_555 1_555
C20_4 C17_4 1_555 1_555
H15_4 C20_4 1_555 1_555
C21_4 C20_4 1_555 1_555
H16_4 C21_4 1_555 1_555
C22_4 C21_4 1_555 1_555
C23_4 C22_4 1_555 1_555
H17_4 C23_4 1_555 1_555
C24_4 C23_4 1_555 1_555
H18_4 C24_4 1_555 1_555
C25_4 H19_4 1_555 1_555
C26_4 C22_4 1_555 1_555
H20_4 C26_4 1_555 1_555
C27_4 C28_4 1_555 1_555
C28_4 H21_4 1_555 1_555
C29_4 C28_4 1_555 1_555
H22_4 C29_4 1_555 1_555
C30_4 C29_4 1_555 1_555
C31_4 C30_4 1_555 1_555
H23_4 C31_4 1_555 1_555
C32_4 C27_4 1_555 1_555
C33_4 C30_4 1_555 1_555
H25_4 C33_4 1_555 1_555
C34_4 C33_4 1_555 1_555
H26_4 C34_4 1_555 1_555
C35_4 C34_4 1_555 1_555
C36_4 C35_4 1_555 1_555
H27_4 C36_4 1_555 1_555
C37_4 C36_4 1_555 1_555
H28_4 C37_4 1_555 1_555
C38_4 H29_4 1_555 1_555
C39_4 C35_4 1_555 1_555
H30_4 C39_4 1_555 1_555
N1_4 C37_4 1_555 1_555
N5_2 C24_4 1_555 1_555
Li5_2 N1_4 1_555 1_555
C14_4 O4_4 1_555 1_555
C18_4 C19_4 1_555 1_555
C25_4 C26_4 1_555 1_555
C25_4 N5_2 1_555 1_555
C27_4 O5_3 1_555 1_555
C31_4 C32_4 1_555 1_555
C38_4 C39_4 1_555 1_555
C38_4 N1_4 1_555 1_555
O4_4 Li6_3 1_555 1_555
Li7 O1_5 1_555 1_555
Li9 O1_5 1_555 1_555
Li4_4 O3_5 1_555 1_555
C1_5 C2_5 1_555 1_555
C2_5 H1_5 1_555 1_555
C3_5 C2_5 1_555 1_555
H2_5 C3_5 1_555 1_555
C4_5 C3_5 1_555 1_555
C5_5 C1_5 1_555 1_555
H3_5 C5_5 1_555 1_555
C6_5 C4_5 1_555 1_555
H4_5 C6_5 1_555 1_555
C7_5 C6_5 1_555 1_555
H5_5 C7_5 1_555 1_555
C8_5 C7_5 1_555 1_555
C9_5 C8_5 1_555 1_555
H6_5 C9_5 1_555 1_555
C10_5 C9_5 1_555 1_555
H7_5 C10_5 1_555 1_555
C11_5 C4_5 1_555 1_555
H8_5 C11_5 1_555 1_555
C12_5 H9_5 1_555 1_555
C13_5 C8_5 1_555 1_555
H10_5 C13_5 1_555 1_555
C14_5 C15_5 1_555 1_555
C15_5 H11_5 1_555 1_555
C16_5 C15_5 1_555 1_555
H12_5 C16_5 1_555 1_555
C17_5 C16_5 1_555 1_555
C18_5 C17_5 1_555 1_555
H13_5 C18_5 1_555 1_555
C19_5 C14_5 1_555 1_555
H14_5 C19_5 1_555 1_555
C20_5 C17_5 1_555 1_555
H15_5 C20_5 1_555 1_555
C21_5 C20_5 1_555 1_555
H16_5 C21_5 1_555 1_555
C22_5 C21_5 1_555 1_555
C23_5 C22_5 1_555 1_555
H17_5 C23_5 1_555 1_555
C24_5 C23_5 1_555 1_555
H18_5 C24_5 1_555 1_555
C25_5 H19_5 1_555 1_555
C26_5 C22_5 1_555 1_555
H20_5 C26_5 1_555 1_555
C27_5 C28_5 1_555 1_555
C28_5 H21_5 1_555 1_555
C29_5 C28_5 1_555 1_555
H22_5 C29_5 1_555 1_555
C30_5 C29_5 1_555 1_555
C31_5 C30_5 1_555 1_555
H23_5 C31_5 1_555 1_555
C32_5 C27_5 1_555 1_555
C33_5 C30_5 1_555 1_555
H25_5 C33_5 1_555 1_555
C34_5 C33_5 1_555 1_555
H26_5 C34_5 1_555 1_555
C35_5 C34_5 1_555 1_555
C36_5 C35_5 1_555 1_555
H27_5 C36_5 1_555 1_555
C37_5 C36_5 1_555 1_555
H28_5 C37_5 1_555 1_555
C38_5 H29_5 1_555 1_555
C39_5 C35_5 1_555 1_555
H30_5 C39_5 1_555 1_555
O1_5 C1_5 1_555 1_555
O3_5 Li9 1_555 1_555
H31_5 O3_5 1_555 1_555
O4_5 Li4_4 1_555 1_555
N1_5 C37_5 1_555 1_555
N5_3 C24_5 1_555 1_555
N6_3 C10_5 1_555 1_555
Li6_3 N1_5 1_555 1_555
Li6_4 O3_5 1_555 1_555
Li8_2 O3_5 1_555 1_555
Li9_5 O4_5 1_555 1_555
O5_5 Li4_4 1_555 1_555
N6_4 Li4_4 1_555 1_555
C5_5 C11_5 1_555 1_555
C12_5 C13_5 1_555 1_555
C12_5 N6_3 1_555 1_555
C14_5 O4_5 1_555 1_555
C18_5 C19_5 1_555 1_555
C25_5 C26_5 1_555 1_555
C25_5 N5_3 1_555 1_555
C27_5 O5 1_555 1_555
C31_5 C32_5 1_555 1_555
C38_5 C39_5 1_555 1_555
C38_5 N1_5 1_555 1_555
O4_5 Li6_4 1_555 1_555
Li8_2 O5_5 1_555 1_555
Li9_5 O5_5 1_555 1_555
C14_6 C15_6 1_555 1_555
C15_6 H11_6 1_555 1_555
C16_6 C15_6 1_555 1_555
H12_6 C16_6 1_555 1_555
C17_6 C16_6 1_555 1_555
C18_6 C17_6 1_555 1_555
H13_6 C18_6 1_555 1_555
C19_6 C14_6 1_555 1_555
H14_6 C19_6 1_555 1_555
C20_6 C17_6 1_555 1_555
H15_6 C20_6 1_555 1_555
C21_6 C20_6 1_555 1_555
H16_6 C21_6 1_555 1_555
C22_6 C21_6 1_555 1_555
C23_6 C22_6 1_555 1_555
H17_6 C23_6 1_555 1_555
C24_6 C23_6 1_555 1_555
H18_6 C24_6 1_555 1_555
C25_6 H19_6 1_555 1_555
C26_6 C22_6 1_555 1_555
H20_6 C26_6 1_555 1_555
C27_6 C28_6 1_555 1_555
C28_6 H21_6 1_555 1_555
C29_6 C28_6 1_555 1_555
H22_6 C29_6 1_555 1_555
C30_6 C29_6 1_555 1_555
C31_6 C30_6 1_555 1_555
H23_6 C31_6 1_555 1_555
C32_6 C27_6 1_555 1_555
C33_6 C30_6 1_555 1_555
H25_6 C33_6 1_555 1_555
C34_6 C33_6 1_555 1_555
H26_6 C34_6 1_555 1_555
C35_6 C34_6 1_555 1_555
C36_6 C35_6 1_555 1_555
H27_6 C36_6 1_555 1_555
C37_6 C36_6 1_555 1_555
H28_6 C37_6 1_555 1_555
C38_6 H29_6 1_555 1_555
C39_6 C35_6 1_555 1_555
H30_6 C39_6 1_555 1_555
N1_6 C37_6 1_555 1_555
N5 C24_6 1_555 1_555
Li6_4 N1_6 1_555 1_555
C14_6 O4_6 1_555 1_555
C18_6 C19_6 1_555 1_555
C25_6 C26_6 1_555 1_555
C25_6 N5 1_555 1_555
C27_6 O5_2 1_555 1_555
C31_6 C32_6 1_555 1_555
C38_6 C39_6 1_555 1_555
C38_6 N1_6 1_555 1_555
O4_6 Li5_2 1_555 1_555
Li7_2 O1_6 1_555 1_555
Li10_2 O3_6 1_555 1_555
C1_6 C2_6 1_555 1_555
C2_6 H1_6 1_555 1_555
C3_6 C2_6 1_555 1_555
H2_6 C3_6 1_555 1_555
C4_6 C3_6 1_555 1_555
C5_6 C1_6 1_555 1_555
H3_6 C5_6 1_555 1_555
C6_6 C4_6 1_555 1_555
H4_6 C6_6 1_555 1_555
C7_6 C6_6 1_555 1_555
H5_6 C7_6 1_555 1_555
C8_6 C7_6 1_555 1_555
C9_6 C8_6 1_555 1_555
H6_6 C9_6 1_555 1_555
C10_6 C9_6 1_555 1_555
H7_6 C10_6 1_555 1_555
C11_6 C4_6 1_555 1_555
H8_6 C11_6 1_555 1_555
C12_6 H9_6 1_555 1_555
C13_6 C8_6 1_555 1_555
H10_6 C13_6 1_555 1_555
O1_6 C1_6 1_555 1_555
H31_6 O3_6 1_555 1_555
N6_4 C10_6 1_555 1_555
Li8_3 O3_6 1_555 1_555
O5_6 Li10_2 1_555 1_555
C5_6 C11_6 1_555 1_555
C12_6 C13_6 1_555 1_555
C12_6 N6_4 1_555 1_555
Li8_3 O5_6 1_555 1_555
Li9_6 O5_6 1_555 1_555
C9_7 C8_7 1_555 1_555
H6_7 C9_7 1_555 1_555
C10_7 C9_7 1_555 1_555
H7_7 C10_7 1_555 1_555
C12_7 H9_7 1_555 1_555
C13_7 C8_7 1_555 1_555
H10_7 C13_7 1_555 1_555
N3_3 C10_7 1_555 1_555
Li11 N3_3 1_555 1_555
C12_7 C13_7 1_555 1_555
C12_7 N3_3 1_555 1_555
Li5_2 O1_7 1_555 1_555
C1_7 C2_7 1_555 1_555
C2_7 H1_7 1_555 1_555
C3_7 C2_7 1_555 1_555
H2_7 C3_7 1_555 1_555
C4_7 C3_7 1_555 1_555
C5_7 C1_7 1_555 1_555
H3_7 C5_7 1_555 1_555
C6_7 C4_7 1_555 1_555
H4_7 C6_7 1_555 1_555
C7_7 C6_7 1_555 1_555
H5_7 C7_7 1_555 1_555
C11_7 C4_7 1_555 1_555
H8_7 C11_7 1_555 1_555
O1_7 C1_7 1_555 1_555
H31_7 O6_2 1_555 1_555
C5_7 C11_7 1_555 1_555
C14_7 C15_7 1_555 1_555
C15_7 H11_7 1_555 1_555
C16_7 C15_7 1_555 1_555
H12_7 C16_7 1_555 1_555
C17_7 C16_7 1_555 1_555
C18_7 C17_7 1_555 1_555
H13_7 C18_7 1_555 1_555
C19_7 C14_7 1_555 1_555
H14_7 C19_7 1_555 1_555
C20_7 C17_7 1_555 1_555
H15_7 C20_7 1_555 1_555
C21_7 C20_7 1_555 1_555
H16_7 C21_7 1_555 1_555
C22_7 C21_7 1_555 1_555
C23_7 C22_7 1_555 1_555
H17_7 C23_7 1_555 1_555
C24_7 C23_7 1_555 1_555
C25_7 H19_7 1_555 1_555
C26_7 C22_7 1_555 1_555
H20_7 C26_7 1_555 1_555
C27_7 C28_7 1_555 1_555
C28_7 H21_7 1_555 1_555
C29_7 C28_7 1_555 1_555
H22_7 C29_7 1_555 1_555
C30_7 C29_7 1_555 1_555
C31_7 C30_7 1_555 1_555
H23_7 C31_7 1_555 1_555
C32_7 C27_7 1_555 1_555
H24_7 C32_7 1_555 1_555
C33_7 C30_7 1_555 1_555
H25_7 C33_7 1_555 1_555
C34_7 C33_7 1_555 1_555
H26_7 C34_7 1_555 1_555
C35_7 C34_7 1_555 1_555
C36_7 C35_7 1_555 1_555
H27_7 C36_7 1_555 1_555
C37_7 C36_7 1_555 1_555
H28_7 C37_7 1_555 1_555
C38_7 H29_7 1_555 1_555
C39_7 C35_7 1_555 1_555
H30_7 C39_7 1_555 1_555
N4 C37_7 1_555 1_555
N5_5 C24_7 1_555 1_555
N6_5 Li11_2 1_555 1_555
C14_7 O7_2 1_555 1_555
C18_7 C19_7 1_555 1_555
C25_7 C26_7 1_555 1_555
C25_7 N5_5 1_555 1_555
C27_7 O5_6 1_555 1_555
C31_7 C32_7 1_555 1_555
C38_7 C39_7 1_555 1_555
C38_7 N4 1_555 1_555
C14_8 C15_8 1_555 1_555
C15_8 H11_8 1_555 1_555
C16_8 C15_8 1_555 1_555
H12_8 C16_8 1_555 1_555
C17_8 C16_8 1_555 1_555
C18_8 C17_8 1_555 1_555
H13_8 C18_8 1_555 1_555
C19_8 C14_8 1_555 1_555
H14_8 C19_8 1_555 1_555
C20_8 C17_8 1_555 1_555
H15_8 C20_8 1_555 1_555
C21_8 C20_8 1_555 1_555
H16_8 C21_8 1_555 1_555
C22_8 C21_8 1_555 1_555
C23_8 C22_8 1_555 1_555
H17_8 C23_8 1_555 1_555
C24_8 C23_8 1_555 1_555
C25_8 H19_8 1_555 1_555
C26_8 C22_8 1_555 1_555
H20_8 C26_8 1_555 1_555
C27_8 C28_8 1_555 1_555
C28_8 H21_8 1_555 1_555
C29_8 C28_8 1_555 1_555
H22_8 C29_8 1_555 1_555
C30_8 C29_8 1_555 1_555
C31_8 C30_8 1_555 1_555
H23_8 C31_8 1_555 1_555
C32_8 C27_8 1_555 1_555
H24_8 C32_8 1_555 1_555
C33_8 C30_8 1_555 1_555
H25_8 C33_8 1_555 1_555
C34_8 C33_8 1_555 1_555
H26_8 C34_8 1_555 1_555
C35_8 C34_8 1_555 1_555
C36_8 C35_8 1_555 1_555
H27_8 C36_8 1_555 1_555
C37_8 C36_8 1_555 1_555
H28_8 C37_8 1_555 1_555
C38_8 H29_8 1_555 1_555
C39_8 C35_8 1_555 1_555
H30_8 C39_8 1_555 1_555
N4_2 C37_8 1_555 1_555
N5_6 C24_8 1_555 1_555
N6_6 Li11_3 1_555 1_555
C14_8 O7_3 1_555 1_555
C18_8 C19_8 1_555 1_555
C25_8 C26_8 1_555 1_555
C25_8 N5_6 1_555 1_555
C27_8 O5_4 1_555 1_555
C31_8 C32_8 1_555 1_555
C38_8 C39_8 1_555 1_555
C38_8 N4_2 1_555 1_555
Li6_3 O1_8 1_555 1_555
C1_8 C2_8 1_555 1_555
C2_8 H1_8 1_555 1_555
C3_8 C2_8 1_555 1_555
H2_8 C3_8 1_555 1_555
C4_8 C3_8 1_555 1_555
C5_8 C1_8 1_555 1_555
H3_8 C5_8 1_555 1_555
C6_8 C4_8 1_555 1_555
H4_8 C6_8 1_555 1_555
C7_8 C6_8 1_555 1_555
H5_8 C7_8 1_555 1_555
C8_8 C7_8 1_555 1_555
C9_8 C8_8 1_555 1_555
H6_8 C9_8 1_555 1_555
C10_8 C9_8 1_555 1_555
H7_8 C10_8 1_555 1_555
C11_8 C4_8 1_555 1_555
H8_8 C11_8 1_555 1_555
C12_8 H9_8 1_555 1_555
C13_8 C8_8 1_555 1_555
H10_8 C13_8 1_555 1_555
O1_8 C1_8 1_555 1_555
H31_8 O6_3 1_555 1_555
N6_5 C10_8 1_555 1_555
C5_8 C11_8 1_555 1_555
C12_8 C13_8 1_555 1_555
C12_8 N6_5 1_555 1_555
Li6_4 O1_9 1_555 1_555
Li8_2 O1_9 1_555 1_555
Li9_5 O1_9 1_555 1_555
C1_9 C2_9 1_555 1_555
C2_9 H1_9 1_555 1_555
C3_9 C2_9 1_555 1_555
H2_9 C3_9 1_555 1_555
C4_9 C3_9 1_555 1_555
C5_9 C1_9 1_555 1_555
H3_9 C5_9 1_555 1_555
C6_9 C4_9 1_555 1_555
H4_9 C6_9 1_555 1_555
C7_9 C6_9 1_555 1_555
H5_9 C7_9 1_555 1_555
C11_9 C4_9 1_555 1_555
H8_9 C11_9 1_555 1_555
C14_9 C15_9 1_555 1_555
C15_9 H11_9 1_555 1_555
C16_9 C15_9 1_555 1_555
H12_9 C16_9 1_555 1_555
C17_9 C16_9 1_555 1_555
C18_9 C17_9 1_555 1_555
H13_9 C18_9 1_555 1_555
C19_9 C14_9 1_555 1_555
H14_9 C19_9 1_555 1_555
C20_9 C17_9 1_555 1_555
H15_9 C20_9 1_555 1_555
C21_9 C20_9 1_555 1_555
H16_9 C21_9 1_555 1_555
C22_9 C21_9 1_555 1_555
C23_9 C22_9 1_555 1_555
H17_9 C23_9 1_555 1_555
C24_9 C23_9 1_555 1_555
C25_9 H19_9 1_555 1_555
C26_9 C22_9 1_555 1_555
H20_9 C26_9 1_555 1_555
C27_9 C28_9 1_555 1_555
C28_9 H21_9 1_555 1_555
C29_9 C28_9 1_555 1_555
H22_9 C29_9 1_555 1_555
C30_9 C29_9 1_555 1_555
C31_9 C30_9 1_555 1_555
H23_9 C31_9 1_555 1_555
C32_9 C27_9 1_555 1_555
H24_9 C32_9 1_555 1_555
C33_9 C30_9 1_555 1_555
H25_9 C33_9 1_555 1_555
C34_9 C33_9 1_555 1_555
H26_9 C34_9 1_555 1_555
C35_9 C34_9 1_555 1_555
C36_9 C35_9 1_555 1_555
H27_9 C36_9 1_555 1_555
C37_9 C36_9 1_555 1_555
H28_9 C37_9 1_555 1_555
C38_9 H29_9 1_555 1_555
C39_9 C35_9 1_555 1_555
H30_9 C39_9 1_555 1_555
O1_9 C1_9 1_555 1_555
O6 Li9_5 1_555 1_555
H31_9 O6 1_555 1_555
N4_3 C37_9 1_555 1_555
N5_4 C24_9 1_555 1_555
C5_9 C11_9 1_555 1_555
C14_9 O7 1_555 1_555
C18_9 C19_9 1_555 1_555
C25_9 C26_9 1_555 1_555
C25_9 N5_4 1_555 1_555
C27_9 O5_5 1_555 1_555
C31_9 C32_9 1_555 1_555
C38_9 C39_9 1_555 1_555
C38_9 N4_3 1_555 1_555
C9_9 C8_9 1_555 1_555
H6_9 C9_9 1_555 1_555
C10_9 C9_9 1_555 1_555
H7_9 C10_9 1_555 1_555
C12_9 H9_9 1_555 1_555
C13_9 C8_9 1_555 1_555
H10_9 C13_9 1_555 1_555
N6_6 C10_9 1_555 1_555
C12_9 C13_9 1_555 1_555
C12_9 N6_6 1_555 1_555

#END
