
###############################################################################
#
# This file contains modified crystal structure data generated from the
# MOF subset of the Cambridge Structural Database (CSD) v543 
# hosted by the Cambridge Crystallographic Data Centre (CCDC).
#
# This work is licensed under the Creative Commons
# Attribution-NonCommercial-ShareAlike 4.0 International License.
# To view a copy of this license, visit
# http://creativecommons.org/licenses/by-nc-sa/4.0/
# or send a letter to
# Creative Commons, PO Box 1866, Mountain View, CA 94042, USA.
#
# CIF created using the CSD Python API on 29 September 2022
# The structure has been converted into the P1 space group
# The structure has a 3D framework
# The original CSD entry IXOTAS is in the orthorhombic crystal system
# The framework has been calculated to contain at least 10.0% void space
# The void calculation uses a probe of radius 1.32A, grid spacing 0.4
#
###############################################################################

data_IXOTAS
_chemical_formula_moiety         '(C208 H160 Li10 N16 O16)n'
_symmetry_cell_setting           triclinic
_symmetry_space_group_name_H-M   'P 1'
_symmetry_Int_Tables_number      1
_space_group_name_Hall           'P 1'
loop_
_symmetry_equiv_pos_site_id
_symmetry_equiv_pos_as_xyz
1 x,y,z
_cell_length_a                   11.252(2)
_cell_length_b                   20.934(4)
_cell_length_c                   21.890(4)
_cell_angle_alpha                90
_cell_angle_beta                 90
_cell_angle_gamma                90
_cell_volume                     5156.18
loop_
_atom_site_label
_atom_site_type_symbol
_atom_site_fract_x
_atom_site_fract_y
_atom_site_fract_z
H15 H 0.0583 0.5903 0.5578
C22 C 0.1579(8) 0.5661(6) 0.3463(4)
H17 H 0.1410 0.5570 0.3057
C23 C 0.0566(13) 0.5716(7) 0.3828(5)
C24 C 0.0860(8) 0.5811(5) 0.4424(5)
C25 C 0.1999(10) 0.5965(4) 0.4601(3)
C26 C 0.2902(8) 0.5902(4) 0.4126(4)
H19 H 0.3682 0.6007 0.4225
N2 N 0.2687(5) 0.5710(3) 0.3574(3)
H39 H 0.2180 0.6099 0.4995
Li6 Li 0.3927(9) 0.5286(5) 0.3019(4)
H15_2 H 0.9417 0.4097 0.5578
C22_2 C 0.8421(8) 0.4339(6) 0.3463(4)
H17_2 H 0.8590 0.4430 0.3057
C23_2 C 0.9434(13) 0.4284(7) 0.3828(5)
C24_2 C 0.9140(8) 0.4189(5) 0.4424(5)
C25_2 C 0.8001(10) 0.4035(4) 0.4601(3)
C26_2 C 0.7098(8) 0.4098(4) 0.4126(4)
H19_2 H 0.6318 0.3993 0.4225
N2_2 N 0.7313(5) 0.4290(3) 0.3574(3)
H39_2 H 0.7820 0.3901 0.4995
Li6_2 Li 0.6073(9) 0.4714(5) 0.3019(4)
Li2 Li 0.4522(9) 0.4424(4) 0.2155(4)
C1 C 0.5938(5) 0.6031(2) 0.3458(2)
C2 C 0.5751(6) 0.6681(3) 0.3367(3)
H1 H 0.5380 0.6822 0.3012
C3 C 0.6122(8) 0.7126(4) 0.3810(3)
H2 H 0.6035 0.7558 0.3724
C4 C 0.6592(5) 0.6961(3) 0.4348(2)
C5 C 0.6636(7) 0.6327(3) 0.4456(3)
H3 H 0.6891 0.6197 0.4841
C6 C 0.6340(7) 0.5864(3) 0.4049(3)
H4 H 0.6401 0.5436 0.4160
C7 C 0.6992(6) 0.7449(3) 0.4778(3)
H5 H 0.6750 0.7866 0.4699
C8 C 0.7654(6) 0.7364(4) 0.5264(3)
H6 H 0.7925 0.6950 0.5332
C9 C 0.7948(7) 0.8880(4) 0.6169(4)
H7 H 0.7623 0.9288 0.6153
C10 C 0.7572(10) 0.8444(5) 0.5774(4)
H8 H 0.6951 0.8554 0.5514
C11 C 0.8025(6) 0.7858(3) 0.5726(3)
C12 C 0.8898(8) 0.7753(4) 0.6138(4)
H9 H 0.9283 0.7360 0.6147
C13 C 0.9207(8) 0.8206(4) 0.6526(4)
H10 H 0.9825 0.8109 0.6792
C14 C 0.6986(5) 0.4550(3) 0.1715(2)
C15 C 0.6862(6) 0.4787(3) 0.1099(3)
H11 H 0.6199 0.5024 0.0985
C16 C 0.7740(7) 0.4654(3) 0.0687(3)
H12 H 0.7657 0.4805 0.0290
C17 C 0.8756(7) 0.4302(3) 0.0832(3)
C18 C 0.8851(7) 0.4118(4) 0.1417(4)
H13 H 0.9539 0.3907 0.1539
C19 C 0.7967(7) 0.4228(4) 0.1849(3)
H14 H 0.8067 0.4072 0.2244
C20 C 0.9846(9) 0.4180(4) 0.04027(8)
C34 C 0.2277(7) 0.2441(3) 0.0332(3)
H25 H 0.1614 0.2222 0.0476
C35 C 0.4523(7) 0.3520(4) 0.1098(3)
H26 H 0.5279 0.3683 0.1025
C36 C 0.4043(7) 0.3090(4) 0.0670(3)
H27 H 0.4487 0.2956 0.0336
C37 C 0.2858(7) 0.2866(3) 0.0761(3)
C38 C 0.2367(6) 0.3008(4) 0.1322(3)
H28 H 0.1673 0.2801 0.1440
C39 C 0.2877(7) 0.3454(4) 0.1719(3)
H29 H 0.237(5) 0.364(3) 0.212(3)
O1 O 0.5594(3) 0.56017(17) 0.30523(17)
O2 O 0.6152(3) 0.46877(17) 0.21301(17)
N1 N 0.8754(5) 0.8758(2) 0.6578(2)
N3 N 0.3945(6) 0.3712(3) 0.1616(2)
Li7 Li 0.5478(9) 0.5576(4) 0.2155(4)
Li9 Li 0.9418(8) 0.9429(4) 0.7187(4)
O5 O 0.4406(3) 0.43983(17) 0.30523(17)
O6 O 0.3848(3) 0.53123(17) 0.21301(17)
Li3 Li 0.0582(8) 0.0571(4) 0.7187(4)
C21 C 0.9757(10) 0.4190(6) 0.98109(8)
H16 H 0.9012 0.4199 0.9627
H18 H 0.9791 0.4310 0.8682
C27 C 0.1039(5) 0.1048(3) 0.8457(2)
C28 C 0.2047(5) 0.1401(3) 0.8314(3)
H20 H 0.2397 0.1363 0.7931
C29 C 0.2523(6) 0.1807(3) 0.8746(3)
H21 H 0.3223 0.2024 0.8656
C30 C 0.1975(5) 0.1904(3) 0.9327(3)
C31 C 0.1001(6) 0.1552(3) 0.9457(3)
H22 H 0.0652 0.1596 0.9839
C32 C 0.0510(6) 0.1138(3) 0.9052(3)
C33 C 0.2580(6) 0.2330(3) 0.9769(3)
H24 H 0.3253 0.2542 0.9628
O3 O 0.0566(3) 0.06247(17) 0.80648(17)
N5 N 0.1246(5) 0.1242(2) 0.6578(2)
O7 O 0.9434(3) 0.93753(17) 0.80648(17)
C1_2 C 0.4062(5) 0.3969(2) 0.3458(2)
C2_2 C 0.4249(6) 0.3319(3) 0.3367(3)
H1_2 H 0.4620 0.3178 0.3012
C3_2 C 0.3878(8) 0.2874(4) 0.3810(3)
H2_2 H 0.3965 0.2442 0.3724
C4_2 C 0.3408(5) 0.3039(3) 0.4348(2)
C5_2 C 0.3364(7) 0.3673(3) 0.4456(3)
H3_2 H 0.3109 0.3803 0.4841
C6_2 C 0.3660(7) 0.4136(3) 0.4049(3)
H4_2 H 0.3599 0.4564 0.4160
C7_2 C 0.3008(6) 0.2551(3) 0.4778(3)
H5_2 H 0.3250 0.2134 0.4699
C8_2 C 0.2346(6) 0.2636(4) 0.5264(3)
H6_2 H 0.2075 0.3050 0.5332
C9_2 C 0.2052(7) 0.1120(4) 0.6169(4)
H7_2 H 0.2377 0.0712 0.6153
C10_2 C 0.2428(10) 0.1556(5) 0.5774(4)
H8_2 H 0.3049 0.1446 0.5514
C11_2 C 0.1975(6) 0.2142(3) 0.5726(3)
C12_2 C 0.1102(8) 0.2247(4) 0.6138(4)
H9_2 H 0.0717 0.2640 0.6147
C13_2 C 0.0793(8) 0.1794(4) 0.6526(4)
H10_2 H 0.0175 0.1891 0.6792
C14_2 C 0.3014(5) 0.5450(3) 0.1715(2)
C15_2 C 0.3138(6) 0.5213(3) 0.1099(3)
H11_2 H 0.3801 0.4976 0.0985
C16_2 C 0.2260(7) 0.5346(3) 0.0687(3)
H12_2 H 0.2343 0.5195 0.0290
C17_2 C 0.1244(7) 0.5698(3) 0.0832(3)
C18_2 C 0.1149(7) 0.5882(4) 0.1417(4)
H13_2 H 0.0461 0.6093 0.1539
C19_2 C 0.2033(7) 0.5772(4) 0.1849(3)
H14_2 H 0.1933 0.5928 0.2244
C20_2 C 0.0154(9) 0.5820(4) 0.04027(8)
C34_2 C 0.7723(7) 0.7559(3) 0.0332(3)
H25_2 H 0.8386 0.7778 0.0476
C35_2 C 0.5477(7) 0.6480(4) 0.1098(3)
H26_2 H 0.4721 0.6317 0.1025
C36_2 C 0.5957(7) 0.6910(4) 0.0670(3)
H27_2 H 0.5513 0.7044 0.0336
C37_2 C 0.7142(7) 0.7134(3) 0.0761(3)
C38_2 C 0.7633(6) 0.6992(4) 0.1322(3)
H28_2 H 0.8327 0.7199 0.1440
C39_2 C 0.7123(7) 0.6546(4) 0.1719(3)
H29_2 H 0.763(5) 0.636(3) 0.212(3)
N3_2 N 0.6055(6) 0.6288(3) 0.1616(2)
C21_2 C 0.0243(10) 0.5810(6) 0.98109(8)
H16_2 H 0.0988 0.5801 0.9627
H18_2 H 0.0209 0.5690 0.8682
C27_2 C 0.8961(5) 0.8952(3) 0.8457(2)
C28_2 C 0.7953(5) 0.8599(3) 0.8314(3)
H20_2 H 0.7603 0.8637 0.7931
C29_2 C 0.7477(6) 0.8193(3) 0.8746(3)
H21_2 H 0.6777 0.7976 0.8656
C30_2 C 0.8025(5) 0.8096(3) 0.9327(3)
C31_2 C 0.8999(6) 0.8448(3) 0.9457(3)
H22_2 H 0.9348 0.8404 0.9839
C32_2 C 0.9490(6) 0.8862(3) 0.9052(3)
C33_2 C 0.7420(6) 0.7670(3) 0.9769(3)
H24_2 H 0.6747 0.7458 0.9628
Li10 Li 0.1049(8) 0.0302(4) 0.3026(4)
O8 O 0.1097(3) 0.03467(16) 0.21418(16)
H23 H 0.0169 0.0911 0.4159
C40 C 0.1942(5) 0.0500(3) 0.1746(2)
C41 C 0.1674(6) 0.0650(3) 0.1143(3)
H30 H 0.0883 0.0672 0.1022
C42 C 0.2587(6) 0.0770(3) 0.0707(3)
H31 H 0.2389 0.0870 0.0306
C43 C 0.3775(6) 0.0738(4) 0.0883(3)
C44 C 0.3976(6) 0.0619(5) 0.1470(3)
H32 H 0.4758 0.0637 0.1606
C45 C 0.3112(6) 0.0472(5) 0.1891(3)
H33 H 0.3335 0.0350 0.2283
C46 C 0.4795(7) 0.0748(3) 0.04366(10)
H40 H 0.5541 0.0631 0.0581
N7 N 0.2455(5) 0.0586(3) 0.3581(2)
C47 C 0.4708(6) 0.0907(3) 0.98644(11)
H34 H 0.4020 0.1101 0.9721
C48 C 0.6594(7) 0.0926(4) 0.8455(3)
H35 H 0.6552 0.1124 0.8075
C49 C 0.5656(7) 0.1007(4) 0.8853(3)
H36 H 0.4976 0.1220 0.8724
C50 C 0.5719(6) 0.0776(3) 0.9436(3)
C51 C 0.6710(6) 0.0431(3) 0.9588(3)
H37 H 0.6798 0.0259 0.9977
C52 C 0.7595(6) 0.0344(4) 0.9139(3)
H38 H 0.8257 0.0102 0.9242
N4 N 0.7545(5) 0.0586(3) 0.8581(2)
Li11 Li 0.8951(8) 0.0302(4) 0.8026(4)
H23_2 H 0.9831 0.0911 0.9159
C40_2 C 0.8058(5) 0.0500(3) 0.6746(2)
C41_2 C 0.8326(6) 0.0650(3) 0.6143(3)
H30_2 H 0.9117 0.0672 0.6022
C42_2 C 0.7413(6) 0.0770(3) 0.5707(3)
H31_2 H 0.7611 0.0870 0.5306
C43_2 C 0.6225(6) 0.0738(4) 0.5883(3)
C44_2 C 0.6024(6) 0.0619(5) 0.6470(3)
H32_2 H 0.5242 0.0637 0.6606
C45_2 C 0.6888(6) 0.0472(5) 0.6891(3)
H33_2 H 0.6665 0.0350 0.7283
C46_2 C 0.5205(7) 0.0748(3) 0.54366(10)
C47_2 C 0.5292(6) 0.0907(3) 0.48644(11)
H34_2 H 0.5980 0.1101 0.4721
C48_2 C 0.3406(7) 0.0926(4) 0.3455(3)
H35_2 H 0.3448 0.1124 0.3075
C49_2 C 0.4344(7) 0.1007(4) 0.3853(3)
H36_2 H 0.5024 0.1220 0.3724
C50_2 C 0.4281(6) 0.0776(3) 0.4436(3)
C51_2 C 0.3290(6) 0.0431(3) 0.4588(3)
H37_2 H 0.3202 0.0259 0.4977
C52_2 C 0.2405(6) 0.0344(4) 0.4139(3)
H38_2 H 0.1743 0.0102 0.4242
O4 O 0.8903(3) 0.03467(16) 0.71418(16)
H40_2 H 0.4459 0.0631 0.5581
C8_3 C 0.7654(6) 0.2636(4) 0.0264(3)
H6_3 H 0.7925 0.3050 0.0332
C9_3 C 0.7948(7) 0.1120(4) 0.1169(4)
H7_3 H 0.7623 0.0712 0.1153
C10_3 C 0.7572(10) 0.1556(5) 0.0774(4)
H8_3 H 0.6951 0.1446 0.0514
C11_3 C 0.8025(6) 0.2142(3) 0.0726(3)
C12_3 C 0.8898(8) 0.2247(4) 0.1138(4)
H9_3 H 0.9283 0.2640 0.1147
C13_3 C 0.9207(8) 0.1794(4) 0.1526(4)
H10_3 H 0.9825 0.1891 0.1792
N1_2 N 0.8754(5) 0.1242(2) 0.1578(2)
Li9_2 Li 0.9418(8) 0.0571(4) 0.2187(4)
Li1 Li 0.6073(9) 0.5286(5) 0.8019(4)
Li2_2 Li 0.4522(9) 0.5576(4) 0.7155(4)
Li3_2 Li 0.0582(8) 0.9429(4) 0.2187(4)
C1_3 C 0.5938(5) 0.3969(2) 0.8458(2)
C2_3 C 0.5751(6) 0.3319(3) 0.8367(3)
H1_3 H 0.5380 0.3178 0.8012
C3_3 C 0.6122(8) 0.2874(4) 0.8810(3)
H2_3 H 0.6035 0.2442 0.8724
C4_3 C 0.6592(5) 0.3039(3) 0.9348(2)
C5_3 C 0.6636(7) 0.3673(3) 0.9456(3)
H3_3 H 0.6891 0.3803 0.9841
C6_3 C 0.6340(7) 0.4136(3) 0.9049(3)
H4_3 H 0.6401 0.4564 0.9160
C7_3 C 0.6992(6) 0.2551(3) 0.9778(3)
H5_3 H 0.6750 0.2134 0.9699
C14_3 C 0.6986(5) 0.5450(3) 0.6715(2)
C15_3 C 0.6862(6) 0.5213(3) 0.6099(3)
H11_3 H 0.6199 0.4976 0.5985
C16_3 C 0.7740(7) 0.5346(3) 0.5687(3)
H12_3 H 0.7657 0.5195 0.5290
C17_3 C 0.8756(7) 0.5698(3) 0.5832(3)
C18_3 C 0.8851(7) 0.5882(4) 0.6417(4)
H13_3 H 0.9539 0.6093 0.6539
C19_3 C 0.7967(7) 0.5772(4) 0.6849(3)
H14_3 H 0.8067 0.5928 0.7244
C20_3 C 0.9846(9) 0.5820(4) 0.54027(8)
C21_3 C 0.9757(10) 0.5810(6) 0.48109(8)
H16_3 H 0.9012 0.5801 0.4627
H18_3 H 0.9791 0.5690 0.3682
C27_3 C 0.1039(5) 0.8952(3) 0.3457(2)
C28_3 C 0.2047(5) 0.8599(3) 0.3314(3)
H20_3 H 0.2397 0.8637 0.2931
C29_3 C 0.2523(6) 0.8193(3) 0.3746(3)
H21_3 H 0.3223 0.7976 0.3656
C30_3 C 0.1975(5) 0.8096(3) 0.4327(3)
C31_3 C 0.1001(6) 0.8448(3) 0.4457(3)
H22_3 H 0.0652 0.8404 0.4839
C32_3 C 0.0510(6) 0.8862(3) 0.4052(3)
C33_3 C 0.2580(6) 0.7670(3) 0.4769(3)
H24_3 H 0.3253 0.7458 0.4628
C34_3 C 0.2277(7) 0.7559(3) 0.5332(3)
H25_3 H 0.1614 0.7778 0.5476
C35_3 C 0.4523(7) 0.6480(4) 0.6098(3)
H26_3 H 0.5279 0.6317 0.6025
C36_3 C 0.4043(7) 0.6910(4) 0.5670(3)
H27_3 H 0.4487 0.7044 0.5336
C37_3 C 0.2858(7) 0.7134(3) 0.5761(3)
C38_3 C 0.2367(6) 0.6992(4) 0.6322(3)
H28_3 H 0.1673 0.7199 0.6440
C39_3 C 0.2877(7) 0.6546(4) 0.6719(3)
H29_3 H 0.237(5) 0.636(3) 0.712(3)
O1_2 O 0.5594(3) 0.43983(17) 0.80523(17)
O2_2 O 0.6152(3) 0.53123(17) 0.71301(17)
O3_2 O 0.0566(3) 0.93753(17) 0.30648(17)
N3_3 N 0.3945(6) 0.6288(3) 0.6616(2)
Li5 Li 0.3927(9) 0.4714(5) 0.8019(4)
Li7_2 Li 0.5478(9) 0.4424(4) 0.7155(4)
O5_2 O 0.4406(3) 0.56017(17) 0.80523(17)
O6_2 O 0.3848(3) 0.46877(17) 0.71301(17)
N5_2 N 0.1246(5) 0.8758(2) 0.1578(2)
N6 N 0.7313(5) 0.5710(3) 0.8574(3)
O7_2 O 0.9434(3) 0.06247(17) 0.30648(17)
C8_4 C 0.2346(6) 0.7364(4) 0.0264(3)
H6_4 H 0.2075 0.6950 0.0332
C9_4 C 0.2052(7) 0.8880(4) 0.1169(4)
H7_4 H 0.2377 0.9288 0.1153
C10_4 C 0.2428(10) 0.8444(5) 0.0774(4)
H8_4 H 0.3049 0.8554 0.0514
C11_4 C 0.1975(6) 0.7858(3) 0.0726(3)
C12_4 C 0.1102(8) 0.7753(4) 0.1138(4)
H9_4 H 0.0717 0.7360 0.1147
C13_4 C 0.0793(8) 0.8206(4) 0.1526(4)
H10_4 H 0.0175 0.8109 0.1792
C1_4 C 0.4062(5) 0.6031(2) 0.8458(2)
C2_4 C 0.4249(6) 0.6681(3) 0.8367(3)
H1_4 H 0.4620 0.6822 0.8012
C3_4 C 0.3878(8) 0.7126(4) 0.8810(3)
H2_4 H 0.3965 0.7558 0.8724
C4_4 C 0.3408(5) 0.6961(3) 0.9348(2)
C5_4 C 0.3364(7) 0.6327(3) 0.9456(3)
H3_4 H 0.3109 0.6197 0.9841
C6_4 C 0.3660(7) 0.5864(3) 0.9049(3)
H4_4 H 0.3599 0.5436 0.9160
C7_4 C 0.3008(6) 0.7449(3) 0.9778(3)
H5_4 H 0.3250 0.7866 0.9699
C14_4 C 0.3014(5) 0.4550(3) 0.6715(2)
C15_4 C 0.3138(6) 0.4787(3) 0.6099(3)
H11_4 H 0.3801 0.5024 0.5985
C16_4 C 0.2260(7) 0.4654(3) 0.5687(3)
H12_4 H 0.2343 0.4805 0.5290
C17_4 C 0.1244(7) 0.4302(3) 0.5832(3)
C18_4 C 0.1149(7) 0.4118(4) 0.6417(4)
H13_4 H 0.0461 0.3907 0.6539
C19_4 C 0.2033(7) 0.4228(4) 0.6849(3)
H14_4 H 0.1933 0.4072 0.7244
C20_4 C 0.0154(9) 0.4180(4) 0.54027(8)
C21_4 C 0.0243(10) 0.4190(6) 0.48109(8)
H16_4 H 0.0988 0.4199 0.4627
H18_4 H 0.0209 0.4310 0.3682
C27_4 C 0.8961(5) 0.1048(3) 0.3457(2)
C28_4 C 0.7953(5) 0.1401(3) 0.3314(3)
H20_4 H 0.7603 0.1363 0.2931
C29_4 C 0.7477(6) 0.1807(3) 0.3746(3)
H21_4 H 0.6777 0.2024 0.3656
C30_4 C 0.8025(5) 0.1904(3) 0.4327(3)
C31_4 C 0.8999(6) 0.1552(3) 0.4457(3)
H22_4 H 0.9348 0.1596 0.4839
C32_4 C 0.9490(6) 0.1138(3) 0.4052(3)
C33_4 C 0.7420(6) 0.2330(3) 0.4769(3)
H24_4 H 0.6747 0.2542 0.4628
C34_4 C 0.7723(7) 0.2441(3) 0.5332(3)
H25_4 H 0.8386 0.2222 0.5476
C35_4 C 0.5477(7) 0.3520(4) 0.6098(3)
H26_4 H 0.4721 0.3683 0.6025
C36_4 C 0.5957(7) 0.3090(4) 0.5670(3)
H27_4 H 0.5513 0.2956 0.5336
C37_4 C 0.7142(7) 0.2866(3) 0.5761(3)
C38_4 C 0.7633(6) 0.3008(4) 0.6322(3)
H28_4 H 0.8327 0.2801 0.6440
C39_4 C 0.7123(7) 0.3454(4) 0.6719(3)
H29_4 H 0.763(5) 0.364(3) 0.712(3)
N3_4 N 0.6055(6) 0.3712(3) 0.6616(2)
N6_2 N 0.2687(5) 0.4290(3) 0.8574(3)
C22_3 C 0.1579(8) 0.4339(6) 0.8463(4)
H17_3 H 0.1410 0.4430 0.8057
C23_3 C 0.0566(13) 0.4284(7) 0.8828(5)
C24_3 C 0.0860(8) 0.4189(5) 0.9424(5)
C25_3 C 0.1999(10) 0.4035(4) 0.9601(3)
C26_3 C 0.2902(8) 0.4098(4) 0.9126(4)
H19_3 H 0.3682 0.3993 0.9225
H39_3 H 0.2180 0.3901 0.9995
C22_4 C 0.8421(8) 0.5661(6) 0.8463(4)
H17_4 H 0.8590 0.5570 0.8057
C23_4 C 0.9434(13) 0.5716(7) 0.8828(5)
C24_4 C 0.9140(8) 0.5811(5) 0.9424(5)
C25_4 C 0.8001(10) 0.5965(4) 0.9601(3)
C26_4 C 0.7098(8) 0.5902(4) 0.9126(4)
H19_4 H 0.6318 0.6007 0.9225
H39_4 H 0.7820 0.6099 0.9995
Li4 Li 0.8951(8) 0.9698(4) 0.3026(4)
H23_3 H 0.9831 0.9089 0.4159
C40_3 C 0.8058(5) 0.9500(3) 0.1746(2)
C41_3 C 0.8326(6) 0.9350(3) 0.1143(3)
H30_3 H 0.9117 0.9328 0.1022
C42_3 C 0.7413(6) 0.9230(3) 0.0707(3)
H31_3 H 0.7611 0.9130 0.0306
C43_3 C 0.6225(6) 0.9262(4) 0.0883(3)
C44_3 C 0.6024(6) 0.9381(5) 0.1470(3)
H32_3 H 0.5242 0.9363 0.1606
C45_3 C 0.6888(6) 0.9528(5) 0.1891(3)
H33_3 H 0.6665 0.9650 0.2283
C46_3 C 0.5205(7) 0.9252(3) 0.04366(10)
O4_2 O 0.8903(3) 0.96533(16) 0.21418(16)
H40_3 H 0.4459 0.9369 0.0581
N7_2 N 0.7545(5) 0.9414(3) 0.3581(2)
C47_3 C 0.5292(6) 0.9093(3) 0.98644(11)
H34_3 H 0.5980 0.8899 0.9721
C48_3 C 0.3406(7) 0.9074(4) 0.8455(3)
H35_3 H 0.3448 0.8876 0.8075
C49_3 C 0.4344(7) 0.8993(4) 0.8853(3)
H36_3 H 0.5024 0.8780 0.8724
C50_3 C 0.4281(6) 0.9224(3) 0.9436(3)
C51_3 C 0.3290(6) 0.9569(3) 0.9588(3)
H37_3 H 0.3202 0.9741 0.9977
C52_3 C 0.2405(6) 0.9656(4) 0.9139(3)
H38_3 H 0.1743 0.9898 0.9242
N4_2 N 0.2455(5) 0.9414(3) 0.8581(2)
Li11_2 Li 0.1049(8) 0.9698(4) 0.8026(4)
O8_2 O 0.1097(3) 0.96533(16) 0.71418(16)
H23_4 H 0.0169 0.9089 0.9159
C40_4 C 0.1942(5) 0.9500(3) 0.6746(2)
C41_4 C 0.1674(6) 0.9350(3) 0.6143(3)
H30_4 H 0.0883 0.9328 0.6022
C42_4 C 0.2587(6) 0.9230(3) 0.5707(3)
H31_4 H 0.2389 0.9130 0.5306
C43_4 C 0.3775(6) 0.9262(4) 0.5883(3)
C44_4 C 0.3976(6) 0.9381(5) 0.6470(3)
H32_4 H 0.4758 0.9363 0.6606
C45_4 C 0.3112(6) 0.9528(5) 0.6891(3)
H33_4 H 0.3335 0.9650 0.7283
C46_4 C 0.4795(7) 0.9252(3) 0.54366(10)
C47_4 C 0.4708(6) 0.9093(3) 0.48644(11)
H34_4 H 0.4020 0.8899 0.4721
C48_4 C 0.6594(7) 0.9074(4) 0.3455(3)
H35_4 H 0.6552 0.8876 0.3075
C49_4 C 0.5656(7) 0.8993(4) 0.3853(3)
H36_4 H 0.4976 0.8780 0.3724
C50_4 C 0.5719(6) 0.9224(3) 0.4436(3)
C51_4 C 0.6710(6) 0.9569(3) 0.4588(3)
H37_4 H 0.6798 0.9741 0.4977
C52_4 C 0.7595(6) 0.9656(4) 0.4139(3)
H38_4 H 0.8257 0.9898 0.4242
H40_4 H 0.5541 0.9369 0.5581
H15_3 H 0.0583 0.4097 0.0578
H15_4 H 0.9417 0.5903 0.0578
loop_
_geom_bond_atom_site_label_1
_geom_bond_atom_site_label_2
_geom_bond_site_symmetry_1
_geom_bond_site_symmetry_2
C22 H17 1_555 1_555
C23 C22 1_555 1_555
C25 C24 1_555 1_555
C26 C25 1_555 1_555
H19 C26 1_555 1_555
N2 C22 1_555 1_555
H39 C25 1_555 1_555
Li6 N2 1_555 1_555
C23 C24 1_555 1_555
C26 N2 1_555 1_555
C22_2 H17_2 1_555 1_555
C23_2 C22_2 1_555 1_555
C25_2 C24_2 1_555 1_555
C26_2 C25_2 1_555 1_555
H19_2 C26_2 1_555 1_555
N2_2 C22_2 1_555 1_555
H39_2 C25_2 1_555 1_555
Li6_2 N2_2 1_555 1_555
C23_2 C24_2 1_555 1_555
C26_2 N2_2 1_555 1_555
Li6_2 O1 1_555 1_555
Li2 O2 1_555 1_555
C1 C2 1_555 1_555
C2 H1 1_555 1_555
C3 C2 1_555 1_555
H2 C3 1_555 1_555
C4 C3 1_555 1_555
C5 C4 1_555 1_555
H3 C5 1_555 1_555
C6 C1 1_555 1_555
H4 C6 1_555 1_555
C7 C4 1_555 1_555
H5 C7 1_555 1_555
C8 C7 1_555 1_555
H6 C8 1_555 1_555
C9 H7 1_555 1_555
C10 C9 1_555 1_555
H8 C10 1_555 1_555
C11 C8 1_555 1_555
C12 C11 1_555 1_555
H9 C12 1_555 1_555
C13 C12 1_555 1_555
H10 C13 1_555 1_555
C14 C15 1_555 1_555
C15 H11 1_555 1_555
C16 C15 1_555 1_555
H12 C16 1_555 1_555
C17 C16 1_555 1_555
C18 C17 1_555 1_555
H13 C18 1_555 1_555
C19 C14 1_555 1_555
H14 C19 1_555 1_555
C20 C17 1_555 1_555
H25 C34 1_555 1_555
C35 H26 1_555 1_555
C36 C35 1_555 1_555
H27 C36 1_555 1_555
C37 C34 1_555 1_555
C38 C37 1_555 1_555
H28 C38 1_555 1_555
C39 C38 1_555 1_555
H29 C39 1_555 1_555
O1 C1 1_555 1_555
O2 Li6_2 1_555 1_555
N1 C9 1_555 1_555
N3 Li2 1_555 1_555
Li6 O1 1_555 1_555
Li7 O1 1_555 1_555
Li9 N1 1_555 1_555
O5 Li6_2 1_555 1_555
O6 Li2 1_555 1_555
Li2 O5 1_555 1_555
C5 C6 1_555 1_555
C10 C11 1_555 1_555
C13 N1 1_555 1_555
C14 O2 1_555 1_555
C18 C19 1_555 1_555
C35 N3 1_555 1_555
C36 C37 1_555 1_555
C39 N3 1_555 1_555
O2 Li7 1_555 1_555
Li6 O5 1_555 1_555
Li6 O6 1_555 1_555
Li7 O6 1_555 1_555
Li3 O3 1_555 1_555
H16 C21 1_555 1_555
C27 C28 1_555 1_555
C28 H20 1_555 1_555
C29 C28 1_555 1_555
H21 C29 1_555 1_555
C30 C29 1_555 1_555
C31 C30 1_555 1_555
H22 C31 1_555 1_555
C32 C27 1_555 1_555
C33 C30 1_555 1_555
H24 C33 1_555 1_555
O3 C27 1_555 1_555
N5 Li3 1_555 1_555
C31 C32 1_555 1_555
Li9 O7 1_555 1_555
C1_2 C2_2 1_555 1_555
C2_2 H1_2 1_555 1_555
C3_2 C2_2 1_555 1_555
H2_2 C3_2 1_555 1_555
C4_2 C3_2 1_555 1_555
C5_2 C4_2 1_555 1_555
H3_2 C5_2 1_555 1_555
C6_2 C1_2 1_555 1_555
H4_2 C6_2 1_555 1_555
C7_2 C4_2 1_555 1_555
H5_2 C7_2 1_555 1_555
C8_2 C7_2 1_555 1_555
H6_2 C8_2 1_555 1_555
C9_2 H7_2 1_555 1_555
C10_2 C9_2 1_555 1_555
H8_2 C10_2 1_555 1_555
C11_2 C8_2 1_555 1_555
C12_2 C11_2 1_555 1_555
H9_2 C12_2 1_555 1_555
C13_2 C12_2 1_555 1_555
H10_2 C13_2 1_555 1_555
C14_2 C15_2 1_555 1_555
C15_2 H11_2 1_555 1_555
C16_2 C15_2 1_555 1_555
H12_2 C16_2 1_555 1_555
C17_2 C16_2 1_555 1_555
C18_2 C17_2 1_555 1_555
H13_2 C18_2 1_555 1_555
C19_2 C14_2 1_555 1_555
H14_2 C19_2 1_555 1_555
C20_2 C17_2 1_555 1_555
H25_2 C34_2 1_555 1_555
C35_2 H26_2 1_555 1_555
C36_2 C35_2 1_555 1_555
H27_2 C36_2 1_555 1_555
C37_2 C34_2 1_555 1_555
C38_2 C37_2 1_555 1_555
H28_2 C38_2 1_555 1_555
C39_2 C38_2 1_555 1_555
H29_2 C39_2 1_555 1_555
O5 C1_2 1_555 1_555
N5 C9_2 1_555 1_555
N3_2 Li7 1_555 1_555
C5_2 C6_2 1_555 1_555
C10_2 C11_2 1_555 1_555
C13_2 N5 1_555 1_555
C14_2 O6 1_555 1_555
C18_2 C19_2 1_555 1_555
C35_2 N3_2 1_555 1_555
C36_2 C37_2 1_555 1_555
C39_2 N3_2 1_555 1_555
H16_2 C21_2 1_555 1_555
C27_2 C28_2 1_555 1_555
C28_2 H20_2 1_555 1_555
C29_2 C28_2 1_555 1_555
H21_2 C29_2 1_555 1_555
C30_2 C29_2 1_555 1_555
C31_2 C30_2 1_555 1_555
H22_2 C31_2 1_555 1_555
C32_2 C27_2 1_555 1_555
C33_2 C30_2 1_555 1_555
H24_2 C33_2 1_555 1_555
O7 C27_2 1_555 1_555
C31_2 C32_2 1_555 1_555
Li10 O8 1_555 1_555
C40 C41 1_555 1_555
C41 H30 1_555 1_555
C42 C41 1_555 1_555
H31 C42 1_555 1_555
C43 C42 1_555 1_555
C44 C43 1_555 1_555
H32 C44 1_555 1_555
C45 C40 1_555 1_555
H33 C45 1_555 1_555
C46 C43 1_555 1_555
H40 C46 1_555 1_555
N7 Li10 1_555 1_555
C40 O8 1_555 1_555
C44 C45 1_555 1_555
H34 C47 1_555 1_555
C48 H35 1_555 1_555
C49 C48 1_555 1_555
H36 C49 1_555 1_555
C50 C47 1_555 1_555
C51 C50 1_555 1_555
H37 C51 1_555 1_555
C52 C51 1_555 1_555
H38 C52 1_555 1_555
N4 C48 1_555 1_555
Li11 N4 1_555 1_555
C49 C50 1_555 1_555
C52 N4 1_555 1_555
C40_2 C41_2 1_555 1_555
C41_2 H30_2 1_555 1_555
C42_2 C41_2 1_555 1_555
H31_2 C42_2 1_555 1_555
C43_2 C42_2 1_555 1_555
C44_2 C43_2 1_555 1_555
H32_2 C44_2 1_555 1_555
C45_2 C40_2 1_555 1_555
H33_2 C45_2 1_555 1_555
C46_2 C43_2 1_555 1_555
C47_2 C46_2 1_555 1_555
H34_2 C47_2 1_555 1_555
C48_2 H35_2 1_555 1_555
C49_2 C48_2 1_555 1_555
H36_2 C49_2 1_555 1_555
C50_2 C47_2 1_555 1_555
C51_2 C50_2 1_555 1_555
H37_2 C51_2 1_555 1_555
C52_2 C51_2 1_555 1_555
H38_2 C52_2 1_555 1_555
N7 C48_2 1_555 1_555
H40_2 C46_2 1_555 1_555
Li11 O4 1_555 1_555
C40_2 O4 1_555 1_555
C44_2 C45_2 1_555 1_555
C49_2 C50_2 1_555 1_555
C52_2 N7 1_555 1_555
H6_3 C8_3 1_555 1_555
C9_3 H7_3 1_555 1_555
C10_3 C9_3 1_555 1_555
H8_3 C10_3 1_555 1_555
C11_3 C8_3 1_555 1_555
C12_3 C11_3 1_555 1_555
H9_3 C12_3 1_555 1_555
C13_3 C12_3 1_555 1_555
H10_3 C13_3 1_555 1_555
N1_2 C9_3 1_555 1_555
Li9_2 N1_2 1_555 1_555
C10_3 C11_3 1_555 1_555
C13_3 N1_2 1_555 1_555
Li1 O1_2 1_555 1_555
Li2_2 O2_2 1_555 1_555
Li3_2 O3_2 1_555 1_555
C1_3 C2_3 1_555 1_555
C2_3 H1_3 1_555 1_555
C3_3 C2_3 1_555 1_555
H2_3 C3_3 1_555 1_555
C4_3 C3_3 1_555 1_555
C5_3 C4_3 1_555 1_555
H3_3 C5_3 1_555 1_555
C6_3 C1_3 1_555 1_555
H4_3 C6_3 1_555 1_555
C7_3 C4_3 1_555 1_555
H5_3 C7_3 1_555 1_555
C14_3 C15_3 1_555 1_555
C15_3 H11_3 1_555 1_555
C16_3 C15_3 1_555 1_555
H12_3 C16_3 1_555 1_555
C17_3 C16_3 1_555 1_555
C18_3 C17_3 1_555 1_555
H13_3 C18_3 1_555 1_555
C19_3 C14_3 1_555 1_555
H14_3 C19_3 1_555 1_555
C20_3 C17_3 1_555 1_555
C21_3 C20_3 1_555 1_555
H16_3 C21_3 1_555 1_555
C27_3 C28_3 1_555 1_555
C28_3 H20_3 1_555 1_555
C29_3 C28_3 1_555 1_555
H21_3 C29_3 1_555 1_555
C30_3 C29_3 1_555 1_555
C31_3 C30_3 1_555 1_555
H22_3 C31_3 1_555 1_555
C32_3 C27_3 1_555 1_555
C33_3 C30_3 1_555 1_555
H24_3 C33_3 1_555 1_555
C34_3 C33_3 1_555 1_555
H25_3 C34_3 1_555 1_555
C35_3 H26_3 1_555 1_555
C36_3 C35_3 1_555 1_555
H27_3 C36_3 1_555 1_555
C37_3 C34_3 1_555 1_555
C38_3 C37_3 1_555 1_555
H28_3 C38_3 1_555 1_555
C39_3 C38_3 1_555 1_555
H29_3 C39_3 1_555 1_555
O1_2 C1_3 1_555 1_555
O2_2 Li1 1_555 1_555
O3_2 C27_3 1_555 1_555
N3_3 Li2_2 1_555 1_555
Li5 O1_2 1_555 1_555
Li7_2 O1_2 1_555 1_555
O5_2 Li1 1_555 1_555
O6_2 Li2_2 1_555 1_555
N5_2 Li3_2 1_555 1_555
N6 Li1 1_555 1_555
Li2_2 O5_2 1_555 1_555
C5_3 C6_3 1_555 1_555
C14_3 O2_2 1_555 1_555
C18_3 C19_3 1_555 1_555
C31_3 C32_3 1_555 1_555
C35_3 N3_3 1_555 1_555
C36_3 C37_3 1_555 1_555
C39_3 N3_3 1_555 1_555
O2_2 Li7_2 1_555 1_555
Li5 O5_2 1_555 1_555
Li5 O6_2 1_555 1_555
Li7_2 O6_2 1_555 1_555
Li9_2 O7_2 1_555 1_555
H6_4 C8_4 1_555 1_555
C9_4 H7_4 1_555 1_555
C10_4 C9_4 1_555 1_555
H8_4 C10_4 1_555 1_555
C11_4 C8_4 1_555 1_555
C12_4 C11_4 1_555 1_555
H9_4 C12_4 1_555 1_555
C13_4 C12_4 1_555 1_555
H10_4 C13_4 1_555 1_555
N5_2 C9_4 1_555 1_555
C10_4 C11_4 1_555 1_555
C13_4 N5_2 1_555 1_555
C1_4 C2_4 1_555 1_555
C2_4 H1_4 1_555 1_555
C3_4 C2_4 1_555 1_555
H2_4 C3_4 1_555 1_555
C4_4 C3_4 1_555 1_555
C5_4 C4_4 1_555 1_555
H3_4 C5_4 1_555 1_555
C6_4 C1_4 1_555 1_555
H4_4 C6_4 1_555 1_555
C7_4 C4_4 1_555 1_555
H5_4 C7_4 1_555 1_555
C14_4 C15_4 1_555 1_555
C15_4 H11_4 1_555 1_555
C16_4 C15_4 1_555 1_555
H12_4 C16_4 1_555 1_555
C17_4 C16_4 1_555 1_555
C18_4 C17_4 1_555 1_555
H13_4 C18_4 1_555 1_555
C19_4 C14_4 1_555 1_555
H14_4 C19_4 1_555 1_555
C20_4 C17_4 1_555 1_555
C21_4 C20_4 1_555 1_555
H16_4 C21_4 1_555 1_555
C27_4 C28_4 1_555 1_555
C28_4 H20_4 1_555 1_555
C29_4 C28_4 1_555 1_555
H21_4 C29_4 1_555 1_555
C30_4 C29_4 1_555 1_555
C31_4 C30_4 1_555 1_555
H22_4 C31_4 1_555 1_555
C32_4 C27_4 1_555 1_555
C33_4 C30_4 1_555 1_555
H24_4 C33_4 1_555 1_555
C34_4 C33_4 1_555 1_555
H25_4 C34_4 1_555 1_555
C35_4 H26_4 1_555 1_555
C36_4 C35_4 1_555 1_555
H27_4 C36_4 1_555 1_555
C37_4 C34_4 1_555 1_555
C38_4 C37_4 1_555 1_555
H28_4 C38_4 1_555 1_555
C39_4 C38_4 1_555 1_555
H29_4 C39_4 1_555 1_555
O5_2 C1_4 1_555 1_555
O7_2 C27_4 1_555 1_555
N3_4 Li7_2 1_555 1_555
N6_2 Li5 1_555 1_555
C5_4 C6_4 1_555 1_555
C14_4 O6_2 1_555 1_555
C18_4 C19_4 1_555 1_555
C31_4 C32_4 1_555 1_555
C35_4 N3_4 1_555 1_555
C36_4 C37_4 1_555 1_555
C39_4 N3_4 1_555 1_555
C22_3 H17_3 1_555 1_555
C23_3 C22_3 1_555 1_555
C25_3 C24_3 1_555 1_555
C26_3 C25_3 1_555 1_555
H19_3 C26_3 1_555 1_555
N6_2 C22_3 1_555 1_555
H39_3 C25_3 1_555 1_555
C23_3 C24_3 1_555 1_555
C26_3 N6_2 1_555 1_555
C22_4 H17_4 1_555 1_555
C23_4 C22_4 1_555 1_555
C25_4 C24_4 1_555 1_555
C26_4 C25_4 1_555 1_555
H19_4 C26_4 1_555 1_555
N6 C22_4 1_555 1_555
H39_4 C25_4 1_555 1_555
C23_4 C24_4 1_555 1_555
C26_4 N6 1_555 1_555
C40_3 C41_3 1_555 1_555
C41_3 H30_3 1_555 1_555
C42_3 C41_3 1_555 1_555
H31_3 C42_3 1_555 1_555
C43_3 C42_3 1_555 1_555
C44_3 C43_3 1_555 1_555
H32_3 C44_3 1_555 1_555
C45_3 C40_3 1_555 1_555
H33_3 C45_3 1_555 1_555
C46_3 C43_3 1_555 1_555
H40_3 C46_3 1_555 1_555
N7_2 Li4 1_555 1_555
Li4 O4_2 1_555 1_555
C40_3 O4_2 1_555 1_555
C44_3 C45_3 1_555 1_555
H34_3 C47_3 1_555 1_555
C48_3 H35_3 1_555 1_555
C49_3 C48_3 1_555 1_555
H36_3 C49_3 1_555 1_555
C50_3 C47_3 1_555 1_555
C51_3 C50_3 1_555 1_555
H37_3 C51_3 1_555 1_555
C52_3 C51_3 1_555 1_555
H38_3 C52_3 1_555 1_555
N4_2 C48_3 1_555 1_555
Li11_2 N4_2 1_555 1_555
C49_3 C50_3 1_555 1_555
C52_3 N4_2 1_555 1_555
Li11_2 O8_2 1_555 1_555
C40_4 C41_4 1_555 1_555
C41_4 H30_4 1_555 1_555
C42_4 C41_4 1_555 1_555
H31_4 C42_4 1_555 1_555
C43_4 C42_4 1_555 1_555
C44_4 C43_4 1_555 1_555
H32_4 C44_4 1_555 1_555
C45_4 C40_4 1_555 1_555
H33_4 C45_4 1_555 1_555
C46_4 C43_4 1_555 1_555
C47_4 C46_4 1_555 1_555
H34_4 C47_4 1_555 1_555
C48_4 H35_4 1_555 1_555
C49_4 C48_4 1_555 1_555
H36_4 C49_4 1_555 1_555
C50_4 C47_4 1_555 1_555
C51_4 C50_4 1_555 1_555
H37_4 C51_4 1_555 1_555
C52_4 C51_4 1_555 1_555
H38_4 C52_4 1_555 1_555
N7_2 C48_4 1_555 1_555
H40_4 C46_4 1_555 1_555
C40_4 O8_2 1_555 1_555
C44_4 C45_4 1_555 1_555
C49_4 C50_4 1_555 1_555
C52_4 N7_2 1_555 1_555

#END
