
###############################################################################
#
# This file contains modified crystal structure data generated from the
# MOF subset of the Cambridge Structural Database (CSD) v543 
# hosted by the Cambridge Crystallographic Data Centre (CCDC).
#
# This work is licensed under the Creative Commons
# Attribution-NonCommercial-ShareAlike 4.0 International License.
# To view a copy of this license, visit
# http://creativecommons.org/licenses/by-nc-sa/4.0/
# or send a letter to
# Creative Commons, PO Box 1866, Mountain View, CA 94042, USA.
#
# CIF created using the CSD Python API on 29 September 2022
# The structure has been converted into the P1 space group
# The structure has a 3D framework
# The original CSD entry IXUBIO is in the orthorhombic crystal system
# The original CSD entry IXUBIO is in a Sohncke space group
# The framework has been calculated to contain at least 10.0% void space
# The void calculation uses a probe of radius 1.32A, grid spacing 0.4
#
###############################################################################

data_IXUBIO
_chemical_formula_moiety         '(C448 H256 Cd8 N48 O96)n'
_symmetry_cell_setting           triclinic
_symmetry_space_group_name_H-M   'P 1'
_symmetry_Int_Tables_number      1
_space_group_name_Hall           'P 1'
loop_
_symmetry_equiv_pos_site_id
_symmetry_equiv_pos_as_xyz
1 x,y,z
_cell_length_a                   13.852(3)
_cell_length_b                   19.665(4)
_cell_length_c                   39.965(8)
_cell_angle_alpha                90
_cell_angle_beta                 90
_cell_angle_gamma                90
_cell_volume                     10886.4
loop_
_atom_site_label
_atom_site_type_symbol
_atom_site_fract_x
_atom_site_fract_y
_atom_site_fract_z
C61 C 0.0031(16) 0.7214(13) 0.7053(4)
H38 H 0.0157 0.7337 0.7278
C62 C 0.0386(14) 0.7611(10) 0.6793(6)
H39 H 0.0755 0.8007 0.6841
C63 C 0.0202(12) 0.7431(8) 0.6463(5)
H40 H 0.0445 0.7703 0.6285
Cd1 Cd 0.17696(4) 0.39608(2) 0.41220(2)
Cd2 Cd 0.25055(4) 0.60735(2) 0.41106(2)
O1 O 0.0686(4) 0.3016(2) 0.40918(14)
O2 O 0.2242(4) 0.2812(3) 0.41640(15)
O3 O 0.2673(5) 0.0892(3) 0.40024(15)
O4 O 0.0855(4) 0.2138(3) 0.47260(13)
O6 O 0.3585(5) 0.0945(3) 0.60782(14)
O9 O 0.3300(5) 0.4223(3) 0.40703(16)
O10 O 0.3687(5) 0.5303(3) 0.41973(15)
O11 O 0.6473(6) 0.5439(5) 0.39777(17)
O12 O 0.4555(5) 0.4326(4) 0.47167(17)
O13 O 0.7036(7) 0.5863(4) 0.60550(18)
O14 O 0.8817(5) 0.7091(3) 0.53149(17)
O15 O 0.7255(5) 0.7752(3) 0.58692(17)
O16 O 0.8776(5) 0.8050(3) 0.59531(16)
O17 O 0.3553(5) 0.5205(4) 0.57140(14)
O18 O 0.2267(9) 0.7359(4) 0.57643(19)
O19 O 0.2909(10) 0.7308(4) 0.75178(17)
O20 O 0.3682(8) 0.5055(5) 0.74658(17)
O21 O 0.1496(7) 0.2865(4) 0.57541(16)
O22 O 0.0969(5) 0.5149(3) 0.57430(14)
O23 O 0.1216(6) 0.5161(4) 0.75038(15)
O24 O 0.1825(6) 0.2897(4) 0.75024(16)
N1 N 0.1738(5) 0.1493(3) 0.43645(15)
N2 N 0.4311(5) 0.0165(4) 0.57363(15)
N3 N 0.5523(5) 0.4891(4) 0.43445(17)
N4 N 0.7932(6) 0.6469(4) 0.56849(19)
N5 N 0.2659(7) 0.6194(3) 0.46925(18)
N6 N 0.3001(7) 0.6313(4) 0.57398(18)
N7 N 0.3340(7) 0.6198(5) 0.74903(16)
N8 N 0.3400(5) 0.6065(4) 0.85466(16)
N9 N 0.1510(5) 0.4000(4) 0.46931(15)
N10 N 0.1241(6) 0.4010(4) 0.57440(15)
N11 N 0.1615(5) 0.4043(4) 0.74988(14)
N12 N 0.2178(6) 0.4035(5) 0.8537(2)
C1 C 0.1369(6) 0.2618(4) 0.4114(2)
C2 C 0.1232(6) 0.1839(4) 0.40892(19)
H1 H 0.1553 0.1692 0.3877
C3 C 0.0146(6) 0.1625(4) 0.40607(19)
H2 H 0.0092 0.1127 0.4089
H4 H 0.0395 0.1095 0.3456
C10 C 0.1511(5) 0.1736(4) 0.46841(18)
C11 C 0.2481(6) 0.1051(4) 0.42862(17)
C12 C 0.3017(5) 0.0747(3) 0.45806(16)
C13 C 0.2800(5) 0.0971(4) 0.49074(15)
C14 C 0.2088(5) 0.1462(3) 0.49644(16)
C15 C 0.1907(6) 0.1723(4) 0.52867(18)
H9 H 0.1410 0.2048 0.5323
C16 C 0.2472(6) 0.1495(4) 0.55500(18)
H10 H 0.2398 0.1696 0.5765
C17 C 0.3138(5) 0.0982(4) 0.55061(17)
C18 C 0.3312(5) 0.0703(4) 0.51832(18)
C19 C 0.3990(5) 0.0167(4) 0.51252(17)
C21 C 0.3710(6) 0.0252(4) 0.45345(18)
H12 H 0.3866 0.0110 0.4314
C23 C 0.3697(5) 0.0709(5) 0.57945(17)
H13 H 0.4846 0.0228 0.6199
H19 H 0.4411 0.0279 0.7280
H20 H 0.4178 0.0353 0.6692
C33 C 0.3877(6) 0.4707(4) 0.41277(19)
C34 C 0.4975(6) 0.4571(5) 0.4069(2)
H21 H 0.5159 0.4813 0.3858
C35 C 0.5218(7) 0.3818(5) 0.4019(3)
H22 H 0.5927 0.3758 0.4030
H23 H 0.4929 0.3550 0.4204
C36 C 0.4857(9) 0.3548(6) 0.3692(3)
C37 C 0.4289(11) 0.2957(8) 0.3683(4)
H24 H 0.4115 0.2740 0.3887
C38 C 0.3982(15) 0.2688(9) 0.3385(6)
H25 H 0.3609 0.2282 0.3383
C39 C 0.4230(15) 0.3030(14) 0.3062(6)
H26 H 0.3988 0.2864 0.2855
C40 C 0.4842(19) 0.3613(10) 0.3074(5)
H27 H 0.5042 0.3841 0.2876
C41 C 0.5130(11) 0.3832(8) 0.3387(3)
H28 H 0.5555 0.4210 0.3395
C42 C 0.5229(6) 0.4731(4) 0.4665(2)
C43 C 0.6238(6) 0.5355(5) 0.4266(2)
C44 C 0.6747(6) 0.5690(4) 0.45494(18)
C45 C 0.7431(7) 0.6167(5) 0.4488(2)
H29 H 0.7589 0.6278 0.4263
C46 C 0.7910(7) 0.6502(4) 0.4752(2)
H30 H 0.8386 0.6838 0.4708
C47 C 0.7673(6) 0.6331(4) 0.50772(18)
C48 C 0.6955(6) 0.5850(4) 0.51444(19)
C49 C 0.6464(6) 0.5525(4) 0.48838(19)
C50 C 0.5731(6) 0.5066(4) 0.49483(19)
C51 C 0.5453(6) 0.4913(4) 0.5274(2)
H31 H 0.4946 0.4600 0.5316
C52 C 0.5946(7) 0.5236(4) 0.5541(2)
H32 H 0.5759 0.5148 0.5766
C53 C 0.6709(7) 0.5687(4) 0.54752(19)
C54 C 0.7194(8) 0.6014(4) 0.5765(2)
C55 C 0.8195(7) 0.6669(4) 0.5361(2)
C56 C 0.8370(8) 0.6854(4) 0.5960(2)
H33 H 0.8013 0.6703 0.6165
C57 C 0.9420(11) 0.6682(7) 0.6032(3)
H34 H 0.9533 0.6192 0.5992
H35 H 0.9845 0.6944 0.5880
C58 C 0.9662(12) 0.6853(6) 0.6392(3)
C59 C 0.9307(15) 0.6455(8) 0.6652(4)
H36 H 0.8938 0.6059 0.6604
C60 C 0.9491(16) 0.6635(13) 0.6982(4)
H37 H 0.9248 0.6363 0.7160
C64 C 0.8143(7) 0.7615(4) 0.59302(19)
C65 C 0.3538(9) 0.6272(5) 0.4822(2)
H41 H 0.4080 0.6294 0.4677
C66 C 0.3676(8) 0.6322(5) 0.51586(19)
H42 H 0.4308 0.6382 0.5247
C67 C 0.2884(8) 0.6286(5) 0.5372(2)
C68 C 0.1966(9) 0.6243(6) 0.5245(2)
H43 H 0.1416 0.6239 0.5386
C69 C 0.1880(8) 0.6205(6) 0.4897(2)
H44 H 0.1253 0.6186 0.4801
C70 C 0.3340(6) 0.5684(6) 0.5887(2)
C71 C 0.2662(9) 0.6893(5) 0.5916(2)
C72 C 0.2854(10) 0.6875(6) 0.6281(2)
C73 C 0.2621(13) 0.7449(6) 0.6467(2)
H45 H 0.2385 0.7849 0.6361
C74 C 0.2746(13) 0.7422(6) 0.6820(2)
H46 H 0.2624 0.7819 0.6949
C75 C 0.3032(11) 0.6848(6) 0.6979(2)
C76 C 0.3259(8) 0.6242(6) 0.6796(2)
C77 C 0.3175(8) 0.6277(6) 0.6438(2)
C78 C 0.3416(6) 0.5679(6) 0.62545(19)
C79 C 0.3679(8) 0.5081(7) 0.6418(2)
H47 H 0.3832 0.4687 0.6290
C80 C 0.3721(9) 0.5055(6) 0.6770(2)
H48 H 0.3890 0.4646 0.6882
C81 C 0.3517(8) 0.5623(6) 0.6947(2)
C82 C 0.3555(8) 0.5588(6) 0.7321(2)
C83 C 0.3107(10) 0.6823(6) 0.7350(2)
C84 C 0.4109(8) 0.6358(7) 0.8374(2)
H49 H 0.4636 0.6542 0.8496
C85 C 0.4129(10) 0.6410(7) 0.8034(2)
H50 H 0.4662 0.6616 0.7924
C86 C 0.3359(8) 0.6158(5) 0.7851(2)
C87 C 0.2592(9) 0.5856(7) 0.8026(2)
H51 H 0.2041 0.5684 0.7912
C88 C 0.2667(8) 0.5817(7) 0.8368(2)
H52 H 0.2160 0.5598 0.8486
C89 C 0.0792(6) 0.3643(4) 0.48436(18)
H53 H 0.0358 0.3389 0.4709
C90 C 0.0669(6) 0.3639(4) 0.51905(19)
H54 H 0.0157 0.3393 0.5292
C91 C 0.1317(6) 0.4005(4) 0.53813(17)
C92 C 0.2070(7) 0.4362(5) 0.5232(2)
H55 H 0.2531 0.4604 0.5361
C93 C 0.2118(7) 0.4349(5) 0.4886(2)
H56 H 0.2613 0.4605 0.4780
C94 C 0.1351(7) 0.3382(5) 0.5908(2)
C95 C 0.1116(6) 0.4638(4) 0.5906(2)
C96 C 0.1154(7) 0.4622(5) 0.6275(2)
C97 C 0.1057(7) 0.5220(5) 0.64478(19)
H57 H 0.0949 0.5630 0.6328
C98 C 0.1114(6) 0.5236(5) 0.68018(19)
H58 H 0.1052 0.5653 0.6919
C99 C 0.1262(6) 0.4635(5) 0.69725(17)
C100 C 0.1357(6) 0.4015(5) 0.68041(17)
C101 C 0.1285(6) 0.4021(4) 0.64528(19)
C102 C 0.1351(7) 0.3390(5) 0.6282(2)
C103 C 0.1475(8) 0.2796(5) 0.6450(2)
H59 H 0.1510 0.2377 0.6333
C104 C 0.1554(8) 0.2809(5) 0.6811(2)
H60 H 0.1644 0.2397 0.6931
C105 C 0.1501(7) 0.3400(5) 0.69761(19)
C106 C 0.1643(6) 0.3396(5) 0.73491(19)
C107 C 0.1340(6) 0.4648(5) 0.73431(18)
C108 C 0.1292(7) 0.4049(6) 0.8416(2)
H61 H 0.0776 0.4061 0.8572
C109 C 0.1052(7) 0.4049(6) 0.8077(2)
H62 H 0.0398 0.4041 0.8005
C110 C 0.1791(6) 0.4060(5) 0.78514(18)
C111 C 0.2722(8) 0.4054(9) 0.7975(2)
H63 H 0.3251 0.4082 0.7825
C112 C 0.2888(8) 0.4011(7) 0.8303(2)
H64 H 0.3536 0.3960 0.8377
Cd3 Cd 0.32304(4) 0.60392(2) 0.91220(2)
Cd4 Cd 0.67696(4) 0.10392(2) 0.58780(2)
Cd5 Cd 0.24945(4) 0.39265(2) 0.91106(2)
Cd7 Cd 0.75055(4) 0.89265(2) 0.58894(2)
O25 O 0.1367(4) 0.5097(3) 0.41456(14)
O26 O 0.0841(5) 0.6081(3) 0.39580(17)
O27 O 0.2255(5) 0.7248(3) 0.41308(17)
O28 O 0.3776(5) 0.6950(3) 0.40469(16)
N13 N 0.1600(5) 0.3935(4) 0.35466(16)
N14 N 0.2822(6) 0.5965(5) 0.3537(2)
O5 O 0.4875(5) 0.9319(3) 0.54090(16)
O7 O 0.6367(4) 0.9903(3) 0.58544(14)
O8 O 0.5841(5) 0.8919(3) 0.60420(17)
C20 C 0.4200(5) 0.9947(4) 0.48114(18)
H11 H 0.4663 0.9598 0.4777
C22 C 0.4442(5) 0.9841(4) 0.54240(17)
C24 C 0.4727(6) 0.9849(4) 0.6037(2)
C25 C 0.4004(7) 0.9381(7) 0.6204(3)
H14 H 0.4050 0.8922 0.6103
H15 H 0.3343 0.9554 0.6165
C26 C 0.4193(10) 0.9330(7) 0.6590(3)
C27 C 0.4393(10) 0.8704(8) 0.6728(3)
H16 H 0.4440 0.8311 0.6590
C28 C 0.4525(10) 0.8656(9) 0.7074(3)
H17 H 0.4626 0.8222 0.7172
C29 C 0.4512(13) 0.9236(9) 0.7282(4)
H18 H 0.4584 0.9186 0.7517
C30 C 0.4393(14) 0.9882(9) 0.7145(3)
C31 C 0.4245(11) 0.9919(9) 0.6794(3)
C32 C 0.5709(5) 0.9520(4) 0.5972(2)
O6_2 O 0.1415(5) 0.9055(3) 0.10782(14)
O17_2 O 0.1447(5) 0.4795(4) 0.07140(14)
O18_2 O 0.2733(9) 0.2641(4) 0.07643(19)
O19_2 O 0.2091(10) 0.2692(4) 0.25178(17)
O20_2 O 0.1318(8) 0.4945(5) 0.24658(17)
O21_2 O 0.3504(7) 0.7135(4) 0.07541(16)
O22_2 O 0.4031(5) 0.4851(3) 0.07430(14)
O23_2 O 0.3784(6) 0.4839(4) 0.25038(15)
O24_2 O 0.3175(6) 0.7103(4) 0.25024(16)
N2_2 N 0.0689(5) 0.9835(4) 0.07363(15)
N6_2 N 0.1999(7) 0.3687(4) 0.07398(18)
N7_2 N 0.1660(7) 0.3802(5) 0.24903(16)
N10_2 N 0.3759(6) 0.5990(4) 0.07440(15)
N11_2 N 0.3385(5) 0.5957(4) 0.24988(14)
C15_2 C 0.3093(6) 0.8277(4) 0.02867(18)
H9_2 H 0.3590 0.7952 0.0323
C16_2 C 0.2528(6) 0.8505(4) 0.05500(18)
H10_2 H 0.2602 0.8304 0.0765
C17_2 C 0.1862(5) 0.9018(4) 0.05061(17)
C18_2 C 0.1688(5) 0.9297(4) 0.01832(18)
C19_2 C 0.1010(5) 0.9833(4) 0.01252(17)
C23_2 C 0.1303(5) 0.9291(5) 0.07945(17)
H13_2 H 0.0154 0.9772 0.1199
H19_2 H 0.0589 0.9721 0.2280
H20_2 H 0.0822 0.9647 0.1692
H31_2 H 0.0054 0.5400 0.0316
C66_2 C 0.1324(8) 0.3678(5) 0.01586(19)
H42_2 H 0.0692 0.3618 0.0247
C67_2 C 0.2116(8) 0.3714(5) 0.0372(2)
C68_2 C 0.3034(9) 0.3757(6) 0.0245(2)
H43_2 H 0.3584 0.3761 0.0386
C70_2 C 0.1660(6) 0.4316(6) 0.0887(2)
C71_2 C 0.2338(9) 0.3107(5) 0.0916(2)
C72_2 C 0.2146(10) 0.3125(6) 0.1281(2)
C73_2 C 0.2379(13) 0.2551(6) 0.1467(2)
H45_2 H 0.2615 0.2151 0.1361
C74_2 C 0.2254(13) 0.2578(6) 0.1820(2)
H46_2 H 0.2376 0.2181 0.1949
C75_2 C 0.1968(11) 0.3152(6) 0.1979(2)
C76_2 C 0.1741(8) 0.3758(6) 0.1796(2)
C77_2 C 0.1825(8) 0.3723(6) 0.1438(2)
C78_2 C 0.1584(6) 0.4321(6) 0.12545(19)
C79_2 C 0.1321(8) 0.4919(7) 0.1418(2)
H47_2 H 0.1168 0.5313 0.1290
C80_2 C 0.1279(9) 0.4945(6) 0.1770(2)
H48_2 H 0.1110 0.5354 0.1882
C81_2 C 0.1483(8) 0.4377(6) 0.1947(2)
C82_2 C 0.1445(8) 0.4412(6) 0.2321(2)
C83_2 C 0.1893(10) 0.3177(6) 0.2350(2)
C84_2 C 0.0891(8) 0.3642(7) 0.3374(2)
H49_2 H 0.0364 0.3458 0.3496
C85_2 C 0.0871(10) 0.3590(7) 0.3034(2)
H50_2 H 0.0338 0.3384 0.2924
C86_2 C 0.1641(8) 0.3842(5) 0.2851(2)
C87_2 C 0.2408(9) 0.4144(7) 0.3026(2)
H51_2 H 0.2959 0.4316 0.2912
C88_2 C 0.2333(8) 0.4183(7) 0.3368(2)
H52_2 H 0.2840 0.4402 0.3486
C90_2 C 0.4331(6) 0.6361(4) 0.01905(19)
H54_2 H 0.4843 0.6607 0.0292
C91_2 C 0.3683(6) 0.5995(4) 0.03813(17)
C92_2 C 0.2930(7) 0.5638(5) 0.0232(2)
H55_2 H 0.2469 0.5396 0.0361
C94_2 C 0.3649(7) 0.6618(5) 0.0908(2)
C95_2 C 0.3884(6) 0.5362(4) 0.0906(2)
C96_2 C 0.3846(7) 0.5378(5) 0.1275(2)
C97_2 C 0.3943(7) 0.4780(5) 0.14478(19)
H57_2 H 0.4051 0.4370 0.1328
C98_2 C 0.3886(6) 0.4764(5) 0.18018(19)
H58_2 H 0.3948 0.4347 0.1919
C99_2 C 0.3738(6) 0.5365(5) 0.19725(17)
C100_2 C 0.3643(6) 0.5985(5) 0.18041(17)
C101_2 C 0.3715(6) 0.5979(4) 0.14528(19)
C102_2 C 0.3649(7) 0.6610(5) 0.1282(2)
C103_2 C 0.3525(8) 0.7204(5) 0.1450(2)
H59_2 H 0.3490 0.7623 0.1333
C104_2 C 0.3446(8) 0.7191(5) 0.1811(2)
H60_2 H 0.3356 0.7603 0.1931
C105_2 C 0.3499(7) 0.6600(5) 0.19761(19)
C106_2 C 0.3357(6) 0.6604(5) 0.23491(19)
C107_2 C 0.3660(6) 0.5352(5) 0.23431(18)
C108_2 C 0.3708(7) 0.5951(6) 0.3416(2)
H61_2 H 0.4224 0.5939 0.3572
C109_2 C 0.3948(7) 0.5951(6) 0.3077(2)
H62_2 H 0.4602 0.5959 0.3005
C110_2 C 0.3209(6) 0.5940(5) 0.28514(18)
C111_2 C 0.2278(8) 0.5946(9) 0.2975(2)
H63_2 H 0.1749 0.5918 0.2825
C112_2 C 0.2112(8) 0.5989(7) 0.3303(2)
H64_2 H 0.1464 0.6040 0.3377
O1_2 O 0.4314(4) 0.6984(2) 0.90918(14)
O2_2 O 0.2758(4) 0.7188(3) 0.91640(15)
O3_2 O 0.2327(5) 0.9108(3) 0.90024(15)
O4_2 O 0.4145(4) 0.7862(3) 0.97260(13)
O9_2 O 0.1700(5) 0.5777(3) 0.90703(16)
O10_2 O 0.1313(5) 0.4697(3) 0.91973(15)
O12_2 O 0.0445(5) 0.5674(4) 0.97167(17)
N1_2 N 0.3262(5) 0.8507(3) 0.93645(15)
N5_2 N 0.2341(7) 0.3806(3) 0.96925(18)
N9_2 N 0.3490(5) 0.6000(4) 0.96931(15)
C1_2 C 0.3631(6) 0.7382(4) 0.9114(2)
C2_2 C 0.3768(6) 0.8161(4) 0.90892(19)
H1_2 H 0.3447 0.8308 0.8877
C3_2 C 0.4854(6) 0.8375(4) 0.90607(19)
H2_2 H 0.4908 0.8873 0.9089
H3 H 0.5226 0.8156 0.9243
C4 C 0.5280(6) 0.8175(4) 0.8729(2)
C5 C 0.5021(8) 0.8522(6) 0.8444(2)
H4_2 H 0.4605 0.8905 0.8456
C6 C 0.5376(9) 0.8303(7) 0.8141(3)
H5 H 0.5182 0.8533 0.7943
C7 C 0.6016(11) 0.7749(8) 0.8114(3)
H6 H 0.6260 0.7615 0.7902
C8 C 0.6287(9) 0.7402(7) 0.8402(4)
H7 H 0.6712 0.7023 0.8392
C9 C 0.5914(8) 0.7629(5) 0.8708(3)
H8 H 0.6099 0.7401 0.8908
C10_2 C 0.3489(5) 0.8264(4) 0.96841(18)
C11_2 C 0.2519(6) 0.8949(4) 0.92862(17)
C12_2 C 0.1983(5) 0.9253(3) 0.95806(16)
C13_2 C 0.2200(5) 0.9029(4) 0.99074(15)
C14_2 C 0.2912(5) 0.8538(3) 0.99644(16)
C21_2 C 0.1290(6) 0.9748(4) 0.95345(18)
H12_2 H 0.1134 0.9890 0.9314
C33_2 C 0.1123(6) 0.5293(4) 0.91277(19)
C34_2 C 0.0025(6) 0.5429(5) 0.9069(2)
H23_2 H 0.0071 0.6450 0.9204
C36_2 C 0.0143(9) 0.6452(6) 0.8692(3)
C37_2 C 0.0711(11) 0.7043(8) 0.8683(4)
H24_2 H 0.0885 0.7260 0.8887
C38_2 C 0.1018(15) 0.7312(9) 0.8385(6)
H25_2 H 0.1391 0.7718 0.8383
C39_2 C 0.0770(15) 0.6970(14) 0.8062(6)
H26_2 H 0.1012 0.7136 0.7855
C40_2 C 0.0158(19) 0.6387(10) 0.8074(5)
C65_2 C 0.1462(9) 0.3728(5) 0.9822(2)
H41_2 H 0.0920 0.3706 0.9677
C69_2 C 0.3120(8) 0.3795(6) 0.9897(2)
H44_2 H 0.3747 0.3814 0.9801
C89_2 C 0.4208(6) 0.6357(4) 0.98436(18)
H53_2 H 0.4642 0.6611 0.9709
C93_2 C 0.2882(7) 0.5651(5) 0.9886(2)
H56_2 H 0.2387 0.5395 0.9780
O25_2 O 0.3633(4) 0.4903(3) 0.91456(14)
O26_2 O 0.4159(5) 0.3919(3) 0.89580(17)
O27_2 O 0.2745(5) 0.2752(3) 0.91308(17)
O28_2 O 0.1224(5) 0.3050(3) 0.90469(16)
O7_2 O 0.8633(4) 0.0097(3) 0.08544(14)
O8_2 O 0.9159(5) 0.1081(3) 0.10420(17)
C32_2 C 0.9291(5) 0.0480(4) 0.0972(2)
Cd6 Cd 0.74945(4) 0.10735(2) 0.08894(2)
O13_2 O 0.7964(7) 0.4137(4) 0.10550(18)
O14_2 O 0.6183(5) 0.2909(3) 0.03149(17)
O15_2 O 0.7745(5) 0.2248(3) 0.08692(17)
O16_2 O 0.6224(5) 0.1950(3) 0.09531(16)
N4_2 N 0.7068(6) 0.3531(4) 0.06849(19)
C47_2 C 0.7327(6) 0.3669(4) 0.00772(18)
C48_2 C 0.8045(6) 0.4150(4) 0.01444(19)
C51_2 C 0.9547(6) 0.5087(4) 0.0274(2)
C52_2 C 0.9054(7) 0.4764(4) 0.0541(2)
H32_2 H 0.9241 0.4852 0.0766
C53_2 C 0.8291(7) 0.4313(4) 0.04752(19)
C54_2 C 0.7806(8) 0.3986(4) 0.0765(2)
C55_2 C 0.6805(7) 0.3331(4) 0.0361(2)
C56_2 C 0.6630(8) 0.3146(4) 0.0960(2)
H33_2 H 0.6987 0.3297 0.1165
C57_2 C 0.5580(11) 0.3318(7) 0.1032(3)
H34_2 H 0.5467 0.3808 0.0992
H35_2 H 0.5155 0.3056 0.0880
C58_2 C 0.5338(12) 0.3147(6) 0.1392(3)
C59_2 C 0.5693(15) 0.3545(8) 0.1652(4)
H36_2 H 0.6062 0.3941 0.1604
C60_2 C 0.5509(16) 0.3365(13) 0.1982(4)
H37_2 H 0.5752 0.3637 0.2160
C61_2 C 0.4969(16) 0.2786(13) 0.2053(4)
H38_2 H 0.4843 0.2663 0.2278
C62_2 C 0.4614(14) 0.2389(10) 0.1793(6)
H39_2 H 0.4245 0.1993 0.1841
C63_2 C 0.4798(12) 0.2569(8) 0.1463(5)
H40_2 H 0.4555 0.2297 0.1285
C64_2 C 0.6857(7) 0.2385(4) 0.09302(19)
Cd4_2 Cd 0.82304(4) 0.89608(2) 0.08780(2)
O10_3 O 0.6313(5) 0.0303(3) 0.08027(15)
O11_2 O 0.3527(6) 0.0439(5) 0.10223(17)
N5_3 N 0.7341(7) 0.1194(3) 0.03075(18)
C43_2 C 0.3762(6) 0.0355(5) 0.0734(2)
C44_2 C 0.3253(6) 0.0690(4) 0.04506(18)
C45_2 C 0.2569(7) 0.1167(5) 0.0512(2)
H29_2 H 0.2411 0.1278 0.0737
C46_2 C 0.2090(7) 0.1502(4) 0.0248(2)
H30_2 H 0.1614 0.1838 0.0292
C49_2 C 0.3536(6) 0.0525(4) 0.01162(19)
C50_2 C 0.4269(6) 0.0066(4) 0.00517(19)
C65_3 C 0.6462(9) 0.1272(5) 0.0178(2)
H41_3 H 0.5920 0.1294 0.0323
C69_3 C 0.8120(8) 0.1205(6) 0.0103(2)
H44_3 H 0.8747 0.1186 0.0199
N14_2 N 0.7178(6) 0.0965(5) 0.1463(2)
O13_3 O 0.2964(7) 0.0863(4) 0.89450(18)
O14_3 O 0.1183(5) 0.2091(3) 0.96851(17)
O17_3 O 0.6447(5) 0.0205(4) 0.92860(14)
O18_3 O 0.7733(9) 0.2359(4) 0.92357(19)
O19_3 O 0.7091(10) 0.2308(4) 0.74822(17)
O20_3 O 0.6318(8) 0.0055(5) 0.75342(17)
O22_3 O 0.9031(5) 0.0149(3) 0.92570(14)
O23_3 O 0.8784(6) 0.0161(4) 0.74962(15)
N4_3 N 0.2068(6) 0.1469(4) 0.93151(19)
N6_3 N 0.6999(7) 0.1313(4) 0.92602(18)
N7_3 N 0.6660(7) 0.1198(5) 0.75097(16)
N8_2 N 0.6600(5) 0.1065(4) 0.64534(16)
C47_3 C 0.2327(6) 0.1331(4) 0.99228(18)
C48_3 C 0.3045(6) 0.0850(4) 0.98556(19)
C52_3 C 0.4054(7) 0.0236(4) 0.9459(2)
H32_3 H 0.4241 0.0148 0.9234
C53_3 C 0.3291(7) 0.0687(4) 0.95248(19)
C54_3 C 0.2806(8) 0.1014(4) 0.9235(2)
C55_3 C 0.1805(7) 0.1669(4) 0.9639(2)
C56_3 C 0.1630(8) 0.1854(4) 0.9040(2)
H33_3 H 0.1987 0.1703 0.8835
C57_3 C 0.0580(11) 0.1682(7) 0.8968(3)
H34_3 H 0.0467 0.1192 0.9008
H35_3 H 0.0155 0.1944 0.9120
C58_3 C 0.0338(12) 0.1853(6) 0.8608(3)
C59_3 C 0.0693(15) 0.1455(8) 0.8348(4)
H36_3 H 0.1062 0.1059 0.8396
C60_3 C 0.0509(16) 0.1635(13) 0.8018(4)
H37_3 H 0.0752 0.1363 0.7840
C64_3 C 0.1857(7) 0.2615(4) 0.90698(19)
C66_3 C 0.6324(8) 0.1322(5) 0.98414(19)
H42_3 H 0.5692 0.1382 0.9753
C67_3 C 0.7116(8) 0.1286(5) 0.9628(2)
C68_3 C 0.8034(9) 0.1243(6) 0.9755(2)
H43_3 H 0.8584 0.1239 0.9614
C70_3 C 0.6660(6) 0.0684(6) 0.9113(2)
C71_3 C 0.7338(9) 0.1893(5) 0.9084(2)
C72_3 C 0.7146(10) 0.1875(6) 0.8719(2)
C73_3 C 0.7379(13) 0.2449(6) 0.8533(2)
H45_3 H 0.7615 0.2849 0.8639
C74_3 C 0.7254(13) 0.2422(6) 0.8180(2)
H46_3 H 0.7376 0.2819 0.8051
C75_3 C 0.6968(11) 0.1848(6) 0.8021(2)
C76_3 C 0.6741(8) 0.1242(6) 0.8204(2)
C77_3 C 0.6825(8) 0.1277(6) 0.8562(2)
C78_3 C 0.6584(6) 0.0679(6) 0.87455(19)
C79_3 C 0.6321(8) 0.0081(7) 0.8582(2)
C80_3 C 0.6279(9) 0.0055(6) 0.8230(2)
C81_3 C 0.6483(8) 0.0623(6) 0.8053(2)
C82_3 C 0.6445(8) 0.0588(6) 0.7679(2)
C83_3 C 0.6893(10) 0.1823(6) 0.7650(2)
C84_3 C 0.5891(8) 0.1358(7) 0.6626(2)
H49_3 H 0.5364 0.1542 0.6504
C85_3 C 0.5871(10) 0.1410(7) 0.6966(2)
H50_3 H 0.5338 0.1616 0.7076
C86_3 C 0.6641(8) 0.1158(5) 0.7149(2)
C87_3 C 0.7408(9) 0.0856(7) 0.6974(2)
H51_3 H 0.7959 0.0684 0.7088
C88_3 C 0.7333(8) 0.0817(7) 0.6632(2)
H52_3 H 0.7840 0.0598 0.6514
C97_3 C 0.8943(7) 0.0220(5) 0.85522(19)
H57_3 H 0.9051 0.0630 0.8672
C98_3 C 0.8886(6) 0.0236(5) 0.81982(19)
H58_3 H 0.8948 0.0653 0.8081
O1_3 O 0.9314(4) 0.8016(2) 0.09082(14)
O2_3 O 0.7758(4) 0.7812(3) 0.08360(15)
O3_3 O 0.7327(5) 0.5892(3) 0.09976(15)
O4_3 O 0.9145(4) 0.7138(3) 0.02740(13)
O9_3 O 0.6700(5) 0.9223(3) 0.09297(16)
O12_3 O 0.5445(5) 0.9326(4) 0.02833(17)
N1_3 N 0.8262(5) 0.6493(3) 0.06355(15)
N3_2 N 0.4477(5) 0.9891(4) 0.06555(17)
N9_3 N 0.8490(5) 0.9000(4) 0.03069(15)
C1_3 C 0.8631(6) 0.7618(4) 0.0886(2)
C2_3 C 0.8768(6) 0.6839(4) 0.09108(19)
H1_3 H 0.8447 0.6692 0.1123
C3_3 C 0.9854(6) 0.6625(4) 0.09393(19)
H2_3 H 0.9908 0.6127 0.0911
H4_3 H 0.9605 0.6095 0.1544
C10_3 C 0.8489(5) 0.6736(4) 0.03159(18)
C11_3 C 0.7519(6) 0.6051(4) 0.07138(17)
C12_3 C 0.6983(5) 0.5747(3) 0.04194(16)
C13_3 C 0.7200(5) 0.5971(4) 0.00926(15)
C14_3 C 0.7912(5) 0.6462(3) 0.00356(16)
C20_2 C 0.5800(5) 0.4947(4) 0.01886(18)
H11_2 H 0.5337 0.4598 0.0223
C21_3 C 0.6290(6) 0.5252(4) 0.04655(18)
H12_3 H 0.6134 0.5110 0.0686
C33_3 C 0.6123(6) 0.9707(4) 0.08723(19)
C34_3 C 0.5025(6) 0.9571(5) 0.0931(2)
H21_2 H 0.4841 0.9813 0.1142
C35_2 C 0.4782(7) 0.8818(5) 0.0981(3)
H22_2 H 0.4073 0.8758 0.0970
H23_3 H 0.5071 0.8550 0.0796
C36_3 C 0.5143(9) 0.8548(6) 0.1308(3)
C37_3 C 0.5711(11) 0.7957(8) 0.1317(4)
H24_3 H 0.5885 0.7740 0.1113
C38_3 C 0.6018(15) 0.7688(9) 0.1615(6)
H25_3 H 0.6391 0.7282 0.1617
C39_3 C 0.5770(15) 0.8030(14) 0.1938(6)
H26_3 H 0.6012 0.7864 0.2145
C40_3 C 0.5158(19) 0.8613(10) 0.1926(5)
H27_2 H 0.4958 0.8841 0.2124
C41_2 C 0.4870(11) 0.8832(8) 0.1613(3)
H28_2 H 0.4445 0.9210 0.1605
C42_2 C 0.4771(6) 0.9731(4) 0.0335(2)
C89_3 C 0.9208(6) 0.8643(4) 0.01564(18)
H53_3 H 0.9642 0.8389 0.0291
C93_3 C 0.7882(7) 0.9349(5) 0.0114(2)
H56_3 H 0.7387 0.9605 0.0220
N13_2 N 0.8400(5) 0.8935(4) 0.14534(16)
O5_2 O 0.5125(5) 0.4319(3) 0.95910(16)
O6_3 O 0.6415(5) 0.5945(3) 0.89218(14)
O21_3 O 0.8504(7) 0.7865(4) 0.92459(16)
O24_3 O 0.8175(6) 0.7897(4) 0.74976(16)
N2_3 N 0.5689(5) 0.5165(4) 0.92637(15)
N10_3 N 0.8759(6) 0.9010(4) 0.92560(15)
N11_3 N 0.8385(5) 0.9043(4) 0.75012(14)
N12_2 N 0.7822(6) 0.9035(5) 0.6463(2)
C15_3 C 0.8093(6) 0.6723(4) 0.97133(18)
H9_3 H 0.8590 0.7048 0.9677
C16_3 C 0.7528(6) 0.6495(4) 0.94500(18)
H10_3 H 0.7602 0.6696 0.9235
C17_3 C 0.6862(5) 0.5982(4) 0.94939(17)
C18_3 C 0.6688(5) 0.5703(4) 0.98168(18)
C19_3 C 0.6010(5) 0.5167(4) 0.98748(17)
C22_2 C 0.5558(5) 0.4841(4) 0.95760(17)
C23_3 C 0.6303(5) 0.5709(5) 0.92055(17)
C24_2 C 0.5273(6) 0.4849(4) 0.8963(2)
H13_3 H 0.5154 0.5228 0.8801
C25_2 C 0.5996(7) 0.4381(7) 0.8796(3)
H14_2 H 0.5950 0.3922 0.8897
H15_2 H 0.6657 0.4554 0.8835
C26_2 C 0.5807(10) 0.4330(7) 0.8410(3)
C27_2 C 0.5607(10) 0.3704(8) 0.8272(3)
H16_2 H 0.5560 0.3311 0.8410
C28_2 C 0.5475(10) 0.3656(9) 0.7926(3)
H17_2 H 0.5374 0.3222 0.7828
C29_2 C 0.5488(13) 0.4236(9) 0.7718(4)
H18_2 H 0.5416 0.4186 0.7483
C30_2 C 0.5607(14) 0.4882(9) 0.7855(3)
H19_3 H 0.5589 0.5279 0.7720
C31_2 C 0.5755(11) 0.4919(9) 0.8206(3)
H20_3 H 0.5822 0.5353 0.8308
C32_3 C 0.4291(5) 0.4520(4) 0.9028(2)
C51_3 C 0.4547(6) 0.9913(4) 0.9726(2)
H31_3 H 0.5054 0.9600 0.9684
H47_3 H 0.6168 0.9687 0.8710
H48_3 H 0.6110 0.9646 0.8118
C90_3 C 0.9331(6) 0.8639(4) 0.98095(19)
H54_3 H 0.9843 0.8393 0.9708
C91_3 C 0.8683(6) 0.9005(4) 0.96187(17)
C92_3 C 0.7930(7) 0.9362(5) 0.9768(2)
H55_3 H 0.7469 0.9604 0.9639
C94_3 C 0.8649(7) 0.8382(5) 0.9092(2)
C95_3 C 0.8884(6) 0.9638(4) 0.9094(2)
C96_3 C 0.8846(7) 0.9622(5) 0.8725(2)
C99_3 C 0.8738(6) 0.9635(5) 0.80275(17)
C100_3 C 0.8643(6) 0.9015(5) 0.81959(17)
C101_3 C 0.8715(6) 0.9021(4) 0.85472(19)
C102_3 C 0.8649(7) 0.8390(5) 0.8718(2)
C103_3 C 0.8525(8) 0.7796(5) 0.8550(2)
H59_3 H 0.8490 0.7377 0.8667
C104_3 C 0.8446(8) 0.7809(5) 0.8189(2)
H60_3 H 0.8356 0.7397 0.8069
C105_3 C 0.8499(7) 0.8400(5) 0.80239(19)
C106_3 C 0.8357(6) 0.8396(5) 0.76509(19)
C107_3 C 0.8660(6) 0.9648(5) 0.76569(18)
C108_3 C 0.8708(7) 0.9049(6) 0.6584(2)
H61_3 H 0.9224 0.9061 0.6428
C109_3 C 0.8948(7) 0.9049(6) 0.6923(2)
H62_3 H 0.9602 0.9041 0.6995
C110_3 C 0.8209(6) 0.9060(5) 0.71486(18)
C111_3 C 0.7278(8) 0.9054(9) 0.7025(2)
H63_3 H 0.6749 0.9082 0.7175
C112_3 C 0.7112(8) 0.9011(7) 0.6697(2)
H64_3 H 0.6464 0.8960 0.6623
N3_3 N 0.0523(5) 0.0109(4) 0.56555(17)
C32_4 C 0.0709(5) 0.5480(4) 0.4028(2)
H21_3 H 0.0159 0.0187 0.6142
C35_3 C 0.0218(7) 0.1182(5) 0.5981(3)
H22_3 H 0.0927 0.1242 0.5970
H27_3 H 0.0042 0.1159 0.7124
C41_3 C 0.0130(11) 0.1168(8) 0.6613(3)
H28_3 H 0.0555 0.0790 0.6605
C42_3 C 0.0229(6) 0.0269(4) 0.5335(2)
C51_4 C 0.0453(6) 0.0087(4) 0.4726(2)
O11_3 O 0.1473(6) 0.9561(5) 0.60223(17)
O13_4 O 0.2036(7) 0.9137(4) 0.39450(18)
O14_4 O 0.3817(5) 0.7909(3) 0.46851(17)
N4_4 N 0.2932(6) 0.8531(4) 0.43151(19)
C43_3 C 0.1238(6) 0.9645(5) 0.5734(2)
C44_3 C 0.1747(6) 0.9310(4) 0.54506(18)
C45_3 C 0.2431(7) 0.8833(5) 0.5512(2)
H29_3 H 0.2589 0.8722 0.5737
C46_3 C 0.2910(7) 0.8498(4) 0.5248(2)
H30_3 H 0.3386 0.8162 0.5292
C47_4 C 0.2673(6) 0.8669(4) 0.49228(18)
C48_4 C 0.1955(6) 0.9150(4) 0.48556(19)
C49_3 C 0.1464(6) 0.9475(4) 0.51162(19)
C50_3 C 0.0731(6) 0.9934(4) 0.50517(19)
C52_4 C 0.0946(7) 0.9764(4) 0.4459(2)
H32_4 H 0.0759 0.9852 0.4234
C53_4 C 0.1709(7) 0.9313(4) 0.45248(19)
C54_4 C 0.2194(8) 0.8986(4) 0.4235(2)
C55_4 C 0.3195(7) 0.8331(4) 0.4639(2)
C56_4 C 0.3370(8) 0.8146(4) 0.4040(2)
H33_4 H 0.3013 0.8297 0.3835
C57_4 C 0.4420(11) 0.8318(7) 0.3968(3)
H34_4 H 0.4533 0.8808 0.4008
H35_4 H 0.4845 0.8056 0.4120
C58_4 C 0.4662(12) 0.8147(6) 0.3608(3)
C59_4 C 0.4307(15) 0.8545(8) 0.3348(4)
H36_4 H 0.3938 0.8941 0.3396
C60_4 C 0.4491(16) 0.8365(13) 0.3018(4)
H37_4 H 0.4248 0.8637 0.2840
C61_3 C 0.5031(16) 0.7786(13) 0.2947(4)
H38_3 H 0.5157 0.7663 0.2722
C62_3 C 0.5386(14) 0.7389(10) 0.3207(6)
H39_3 H 0.5755 0.6993 0.3159
C63_3 C 0.5202(12) 0.7569(8) 0.3537(5)
H40_3 H 0.5445 0.7297 0.3715
C64_4 C 0.3143(7) 0.7385(4) 0.40698(19)
O1_4 O 0.5686(4) 0.1984(2) 0.59082(14)
O2_4 O 0.7242(4) 0.2188(3) 0.58360(15)
O3_4 O 0.7673(5) 0.4108(3) 0.59976(15)
O4_4 O 0.5855(4) 0.2862(3) 0.52740(13)
O5_3 O 0.9875(5) 0.5681(3) 0.45910(16)
O6_4 O 0.8585(5) 0.4055(3) 0.39218(14)
O9_4 O 0.8300(5) 0.0777(3) 0.59297(16)
O12_4 O 0.9555(5) 0.0674(4) 0.52833(17)
O21_4 O 0.6496(7) 0.2135(4) 0.42459(16)
O24_4 O 0.6825(6) 0.2103(4) 0.24976(16)
N1_4 N 0.6738(5) 0.3507(3) 0.56355(15)
N2_4 N 0.9311(5) 0.4835(4) 0.42637(15)
N9_4 N 0.6510(5) 0.1000(4) 0.53069(15)
N10_4 N 0.6241(6) 0.0990(4) 0.42560(15)
N11_4 N 0.6615(5) 0.0957(4) 0.25012(14)
C1_4 C 0.6369(6) 0.2382(4) 0.5886(2)
C2_4 C 0.6232(6) 0.3161(4) 0.59108(19)
H1_4 H 0.6553 0.3308 0.6123
C3_4 C 0.5146(6) 0.3375(4) 0.59393(19)
H2_4 H 0.5092 0.3873 0.5911
H3_2 H 0.4774 0.3156 0.5757
C4_2 C 0.4720(6) 0.3175(4) 0.6271(2)
C5_2 C 0.4979(8) 0.3522(6) 0.6556(2)
H4_4 H 0.5395 0.3905 0.6544
C6_2 C 0.4624(9) 0.3303(7) 0.6859(3)
H5_2 H 0.4818 0.3533 0.7057
C7_2 C 0.3984(11) 0.2749(8) 0.6886(3)
H6_2 H 0.3740 0.2615 0.7098
C8_2 C 0.3713(9) 0.2402(7) 0.6598(4)
H7_2 H 0.3288 0.2023 0.6608
C9_2 C 0.4086(8) 0.2629(5) 0.6292(3)
H8_2 H 0.3901 0.2401 0.6092
C10_4 C 0.6511(5) 0.3264(4) 0.53159(18)
C11_4 C 0.7481(6) 0.3949(4) 0.57138(17)
C12_4 C 0.8017(5) 0.4253(3) 0.54194(16)
C13_4 C 0.7800(5) 0.4029(4) 0.50926(15)
C14_4 C 0.7088(5) 0.3538(3) 0.50356(16)
C15_4 C 0.6907(6) 0.3277(4) 0.47133(18)
H9_4 H 0.6410 0.2952 0.4677
C16_4 C 0.7472(6) 0.3505(4) 0.44500(18)
H10_4 H 0.7398 0.3304 0.4235
C17_4 C 0.8138(5) 0.4018(4) 0.44939(17)
C18_4 C 0.8312(5) 0.4297(4) 0.48168(18)
C19_4 C 0.8990(5) 0.4833(4) 0.48748(17)
C20_3 C 0.9200(5) 0.5053(4) 0.51886(18)
H11_3 H 0.9663 0.5402 0.5223
C21_4 C 0.8710(6) 0.4748(4) 0.54655(18)
H12_4 H 0.8866 0.4890 0.5686
C22_3 C 0.9442(5) 0.5159(4) 0.45760(17)
C23_4 C 0.8697(5) 0.4291(5) 0.42055(17)
C24_3 C 0.9727(6) 0.5151(4) 0.3963(2)
H13_4 H 0.9846 0.4772 0.3801
C25_3 C 0.9004(7) 0.5619(7) 0.3796(3)
H14_3 H 0.9050 0.6078 0.3897
H15_3 H 0.8343 0.5446 0.3835
C26_3 C 0.9193(10) 0.5670(7) 0.3410(3)
C27_3 C 0.9393(10) 0.6296(8) 0.3272(3)
H16_3 H 0.9440 0.6689 0.3410
C28_3 C 0.9525(10) 0.6344(9) 0.2926(3)
H17_3 H 0.9626 0.6778 0.2828
C29_3 C 0.9512(13) 0.5764(9) 0.2718(4)
H18_3 H 0.9584 0.5814 0.2483
C30_3 C 0.9393(14) 0.5118(9) 0.2855(3)
H19_4 H 0.9411 0.4721 0.2720
C31_3 C 0.9245(11) 0.5081(9) 0.3206(3)
H20_4 H 0.9178 0.4647 0.3308
C33_4 C 0.8877(6) 0.0293(4) 0.58723(19)
C34_4 C 0.9975(6) 0.0429(5) 0.5931(2)
H23_4 H 0.9929 0.1450 0.5796
C36_4 C 0.9857(9) 0.1452(6) 0.6308(3)
C37_4 C 0.9289(11) 0.2043(8) 0.6317(4)
H24_4 H 0.9115 0.2260 0.6113
C38_4 C 0.8982(15) 0.2312(9) 0.6615(6)
H25_4 H 0.8609 0.2718 0.6617
C39_4 C 0.9230(15) 0.1970(14) 0.6938(6)
H26_4 H 0.8988 0.2136 0.7145
C40_4 C 0.9842(19) 0.1387(10) 0.6926(5)
H31_4 H 0.9946 0.0400 0.4684
H47_4 H 0.8832 0.0313 0.3710
H48_4 H 0.8890 0.0354 0.3118
C89_4 C 0.5792(6) 0.1357(4) 0.51564(18)
H53_4 H 0.5358 0.1611 0.5291
C90_4 C 0.5669(6) 0.1361(4) 0.48095(19)
H54_4 H 0.5157 0.1607 0.4708
C91_4 C 0.6317(6) 0.0995(4) 0.46187(17)
C92_4 C 0.7070(7) 0.0638(5) 0.4768(2)
H55_4 H 0.7531 0.0396 0.4639
C93_4 C 0.7118(7) 0.0651(5) 0.5114(2)
H56_4 H 0.7613 0.0395 0.5220
C94_4 C 0.6351(7) 0.1618(5) 0.4092(2)
C95_4 C 0.6116(6) 0.0362(4) 0.4094(2)
C96_4 C 0.6154(7) 0.0378(5) 0.3725(2)
C99_4 C 0.6262(6) 0.0365(5) 0.30275(17)
C100_4 C 0.6357(6) 0.0985(5) 0.31959(17)
C101_4 C 0.6285(6) 0.0979(4) 0.35472(19)
C102_4 C 0.6351(7) 0.1610(5) 0.3718(2)
C103_4 C 0.6475(8) 0.2204(5) 0.3550(2)
H59_4 H 0.6510 0.2623 0.3667
C104_4 C 0.6554(8) 0.2191(5) 0.3189(2)
H60_4 H 0.6644 0.2603 0.3069
C105_4 C 0.6501(7) 0.1600(5) 0.30239(19)
C106_4 C 0.6643(6) 0.1604(5) 0.26509(19)
C107_4 C 0.6340(6) 0.0352(5) 0.26569(18)
C108_4 C 0.6292(7) 0.0951(6) 0.1584(2)
H61_4 H 0.5776 0.0939 0.1428
C109_4 C 0.6052(7) 0.0951(6) 0.1923(2)
H62_4 H 0.5398 0.0959 0.1995
C110_4 C 0.6791(6) 0.0940(5) 0.21486(18)
C111_4 C 0.7722(8) 0.0946(9) 0.2025(2)
H63_4 H 0.8251 0.0918 0.2175
C112_4 C 0.7888(8) 0.0989(7) 0.1697(2)
H64_4 H 0.8536 0.1040 0.1623
O10_4 O 0.8687(5) 0.9697(3) 0.58027(15)
O17_4 O 0.8553(5) 0.9795(4) 0.42860(14)
O18_4 O 0.7267(9) 0.7641(4) 0.42357(19)
O19_4 O 0.7909(10) 0.7692(4) 0.24822(17)
O20_4 O 0.8682(8) 0.9945(5) 0.25342(17)
O22_4 O 0.5969(5) 0.9851(3) 0.42570(14)
O23_4 O 0.6216(6) 0.9839(4) 0.24962(15)
N5_4 N 0.7659(7) 0.8806(3) 0.53075(18)
N6_4 N 0.8001(7) 0.8687(4) 0.42602(18)
N7_4 N 0.8340(7) 0.8802(5) 0.25097(16)
C65_4 C 0.8538(9) 0.8728(5) 0.5178(2)
H41_4 H 0.9080 0.8706 0.5323
C66_4 C 0.8676(8) 0.8678(5) 0.48414(19)
H42_4 H 0.9308 0.8618 0.4753
C67_4 C 0.7884(8) 0.8714(5) 0.4628(2)
C68_4 C 0.6966(9) 0.8757(6) 0.4755(2)
H43_4 H 0.6416 0.8761 0.4614
C69_4 C 0.6880(8) 0.8795(6) 0.5103(2)
H44_4 H 0.6253 0.8814 0.5199
C70_4 C 0.8340(6) 0.9316(6) 0.4113(2)
C71_4 C 0.7662(9) 0.8107(5) 0.4084(2)
C72_4 C 0.7854(10) 0.8125(6) 0.3719(2)
C73_4 C 0.7621(13) 0.7551(6) 0.3533(2)
H45_4 H 0.7385 0.7151 0.3639
C74_4 C 0.7746(13) 0.7578(6) 0.3180(2)
H46_4 H 0.7624 0.7181 0.3051
C75_4 C 0.8032(11) 0.8152(6) 0.3021(2)
C76_4 C 0.8259(8) 0.8758(6) 0.3204(2)
C77_4 C 0.8175(8) 0.8723(6) 0.3562(2)
C78_4 C 0.8416(6) 0.9321(6) 0.37455(19)
C79_4 C 0.8679(8) 0.9919(7) 0.3582(2)
C80_4 C 0.8721(9) 0.9945(6) 0.3230(2)
C81_4 C 0.8517(8) 0.9377(6) 0.3053(2)
C82_4 C 0.8555(8) 0.9412(6) 0.2679(2)
C83_4 C 0.8107(10) 0.8177(6) 0.2650(2)
C84_4 C 0.9109(8) 0.8642(7) 0.1626(2)
H49_4 H 0.9636 0.8458 0.1504
C85_4 C 0.9129(10) 0.8590(7) 0.1966(2)
H50_4 H 0.9662 0.8384 0.2076
C86_4 C 0.8359(8) 0.8842(5) 0.2149(2)
C87_4 C 0.7592(9) 0.9144(7) 0.1974(2)
H51_4 H 0.7041 0.9316 0.2088
C88_4 C 0.7667(8) 0.9183(7) 0.1632(2)
H52_4 H 0.7160 0.9402 0.1514
C97_4 C 0.6057(7) 0.9780(5) 0.35522(19)
H57_4 H 0.5949 0.9370 0.3672
C98_4 C 0.6114(6) 0.9764(5) 0.31982(19)
H58_4 H 0.6052 0.9347 0.3081
H3_3 H 0.9774 0.1844 0.4243
C4_3 C 0.9720(6) 0.1825(4) 0.3729(2)
C5_3 C 0.9979(8) 0.1478(6) 0.3444(2)
C6_3 C 0.9624(9) 0.1697(7) 0.3141(3)
H5_3 H 0.9818 0.1467 0.2943
C7_3 C 0.8984(11) 0.2251(8) 0.3114(3)
H6_3 H 0.8740 0.2385 0.2902
C8_3 C 0.8713(9) 0.2598(7) 0.3402(4)
H7_3 H 0.8288 0.2977 0.3392
C9_3 C 0.9086(8) 0.2371(5) 0.3708(3)
H8_3 H 0.8901 0.2599 0.3908
O5_4 O 0.0125(5) 0.0681(3) 0.04090(16)
C22_4 C 0.0558(5) 0.0159(4) 0.04240(17)
C24_4 C 0.0273(6) 0.0151(4) 0.1037(2)
C25_4 C 0.0996(7) 0.0619(7) 0.1204(3)
H14_4 H 0.0950 0.1078 0.1103
H15_4 H 0.1657 0.0446 0.1165
C26_4 C 0.0807(10) 0.0670(7) 0.1590(3)
C27_4 C 0.0607(10) 0.1296(8) 0.1728(3)
H16_4 H 0.0560 0.1689 0.1590
C28_4 C 0.0475(10) 0.1344(9) 0.2074(3)
H17_4 H 0.0374 0.1778 0.2172
C29_4 C 0.0488(13) 0.0764(9) 0.2282(4)
H18_4 H 0.0416 0.0814 0.2517
C30_4 C 0.0607(14) 0.0118(9) 0.2145(3)
C31_4 C 0.0755(11) 0.0081(9) 0.1794(3)
C20_4 C 0.0800(5) 0.0053(4) 0.98114(18)
H11_4 H 0.0337 0.0402 0.9777
O11_4 O 0.8527(6) 0.4561(5) 0.89777(17)
N3_4 N 0.9477(5) 0.5109(4) 0.93445(17)
H21_4 H 0.9841 0.5187 0.8858
C35_4 C 0.9782(7) 0.6182(5) 0.9019(3)
H22_4 H 0.9073 0.6242 0.9030
H27_4 H 0.9958 0.6159 0.7876
C41_4 C 0.9870(11) 0.6168(8) 0.8387(3)
H28_4 H 0.9445 0.5790 0.8395
C42_4 C 0.9771(6) 0.5269(4) 0.9665(2)
C43_4 C 0.8762(6) 0.4645(5) 0.9266(2)
C44_4 C 0.8253(6) 0.4310(4) 0.95494(18)
C45_4 C 0.7569(7) 0.3833(5) 0.9488(2)
H29_4 H 0.7411 0.3722 0.9263
C46_4 C 0.7090(7) 0.3498(4) 0.9752(2)
H30_4 H 0.6614 0.3162 0.9708
C49_4 C 0.8536(6) 0.4475(4) 0.98838(19)
C50_4 C 0.9269(6) 0.4934(4) 0.99483(19)
H3_4 H 0.0226 0.6844 0.0757
C4_4 C 0.0280(6) 0.6825(4) 0.1271(2)
C5_4 C 0.0021(8) 0.6478(6) 0.1556(2)
C6_4 C 0.0376(9) 0.6697(7) 0.1859(3)
H5_4 H 0.0182 0.6467 0.2057
C7_4 C 0.1016(11) 0.7251(8) 0.1886(3)
H6_4 H 0.1260 0.7385 0.2098
C8_4 C 0.1287(9) 0.7598(7) 0.1598(4)
H7_4 H 0.1712 0.7977 0.1608
C9_4 C 0.0914(8) 0.7371(5) 0.1292(3)
H8_4 H 0.1099 0.7599 0.1092
C61_4 C 0.9969(16) 0.2214(13) 0.7947(4)
H38_4 H 0.9843 0.2337 0.7722
C62_4 C 0.9614(14) 0.2611(10) 0.8207(6)
H39_4 H 0.9245 0.3007 0.8159
C63_4 C 0.9798(12) 0.2431(8) 0.8537(5)
H40_4 H 0.9555 0.2703 0.8715
loop_
_geom_bond_atom_site_label_1
_geom_bond_atom_site_label_2
_geom_bond_site_symmetry_1
_geom_bond_site_symmetry_2
H38 C61 1_555 1_555
C62 C61 1_555 1_555
H39 C62 1_555 1_555
H40 C63 1_555 1_555
C62 C63 1_555 1_555
Cd1 O1 1_555 1_555
Cd2 O10 1_555 1_555
O1 C1 1_555 1_555
O2 Cd1 1_555 1_555
O3 C11 1_555 1_555
O4 C10 1_555 1_555
O6 C23 1_555 1_555
O9 Cd1 1_555 1_555
O10 C33 1_555 1_555
O11 C43 1_555 1_555
O12 C42 1_555 1_555
O13 C54 1_555 1_555
O14 C55 1_555 1_555
O15 C64 1_555 1_555
O16 C64 1_555 1_555
O17 C70 1_555 1_555
O18 C71 1_555 1_555
O19 C83 1_555 1_555
O20 C82 1_555 1_555
O21 C94 1_555 1_555
O22 C95 1_555 1_555
O23 C107 1_555 1_555
O24 C106 1_555 1_555
N1 C2 1_555 1_555
N3 C34 1_555 1_555
N4 C54 1_555 1_555
N5 Cd2 1_555 1_555
N6 C67 1_555 1_555
N7 C82 1_555 1_555
N8 C84 1_555 1_555
N9 Cd1 1_555 1_555
N10 C91 1_555 1_555
N11 C106 1_555 1_555
N12 C108 1_555 1_555
C1 O2 1_555 1_555
C2 C1 1_555 1_555
H1 C2 1_555 1_555
C3 C2 1_555 1_555
H2 C3 1_555 1_555
C10 N1 1_555 1_555
C11 N1 1_555 1_555
C12 C11 1_555 1_555
C13 C12 1_555 1_555
C14 C10 1_555 1_555
C15 C14 1_555 1_555
H9 C15 1_555 1_555
C16 C15 1_555 1_555
H10 C16 1_555 1_555
C17 C16 1_555 1_555
C18 C13 1_555 1_555
C19 C18 1_555 1_555
C21 C12 1_555 1_555
H12 C21 1_555 1_555
C23 N2 1_555 1_555
C33 O9 1_555 1_555
C34 C33 1_555 1_555
H21 C34 1_555 1_555
C35 C34 1_555 1_555
H22 C35 1_555 1_555
H23 C35 1_555 1_555
C36 C35 1_555 1_555
C37 C36 1_555 1_555
H24 C37 1_555 1_555
C38 C37 1_555 1_555
H25 C38 1_555 1_555
C39 C38 1_555 1_555
H26 C39 1_555 1_555
C40 C39 1_555 1_555
H27 C40 1_555 1_555
C41 C36 1_555 1_555
H28 C41 1_555 1_555
C42 N3 1_555 1_555
C43 N3 1_555 1_555
C44 C43 1_555 1_555
C45 C44 1_555 1_555
H29 C45 1_555 1_555
C46 C45 1_555 1_555
H30 C46 1_555 1_555
C47 C46 1_555 1_555
C48 C47 1_555 1_555
C49 C44 1_555 1_555
C50 C42 1_555 1_555
C51 C50 1_555 1_555
H31 C51 1_555 1_555
C52 C51 1_555 1_555
H32 C52 1_555 1_555
C53 C48 1_555 1_555
C54 C53 1_555 1_555
C55 N4 1_555 1_555
C56 N4 1_555 1_555
H33 C56 1_555 1_555
C57 C56 1_555 1_555
H34 C57 1_555 1_555
H35 C57 1_555 1_555
C58 C57 1_555 1_555
C59 C58 1_555 1_555
H36 C59 1_555 1_555
C60 C59 1_555 1_555
H37 C60 1_555 1_555
C64 C56 1_555 1_555
C65 N5 1_555 1_555
H41 C65 1_555 1_555
C66 C65 1_555 1_555
H42 C66 1_555 1_555
C67 C66 1_555 1_555
C68 C67 1_555 1_555
H43 C68 1_555 1_555
C69 N5 1_555 1_555
H44 C69 1_555 1_555
C70 N6 1_555 1_555
C71 N6 1_555 1_555
C72 C71 1_555 1_555
C73 C72 1_555 1_555
H45 C73 1_555 1_555
C74 C73 1_555 1_555
H46 C74 1_555 1_555
C75 C74 1_555 1_555
C76 C75 1_555 1_555
C77 C72 1_555 1_555
C78 C70 1_555 1_555
C79 C78 1_555 1_555
H47 C79 1_555 1_555
C80 C79 1_555 1_555
H48 C80 1_555 1_555
C81 C76 1_555 1_555
C82 C81 1_555 1_555
C83 N7 1_555 1_555
C84 H49 1_555 1_555
C85 C84 1_555 1_555
H50 C85 1_555 1_555
C86 N7 1_555 1_555
C87 C86 1_555 1_555
H51 C87 1_555 1_555
C88 N8 1_555 1_555
H52 C88 1_555 1_555
C89 N9 1_555 1_555
H53 C89 1_555 1_555
C90 C89 1_555 1_555
H54 C90 1_555 1_555
C91 C90 1_555 1_555
C92 C91 1_555 1_555
H55 C92 1_555 1_555
C93 N9 1_555 1_555
H56 C93 1_555 1_555
C94 N10 1_555 1_555
C95 N10 1_555 1_555
C96 C95 1_555 1_555
C97 C96 1_555 1_555
H57 C97 1_555 1_555
C98 C97 1_555 1_555
H58 C98 1_555 1_555
C99 C98 1_555 1_555
C100 C99 1_555 1_555
C101 C96 1_555 1_555
C102 C94 1_555 1_555
C103 C102 1_555 1_555
H59 C103 1_555 1_555
C104 C103 1_555 1_555
H60 C104 1_555 1_555
C105 C100 1_555 1_555
C106 C105 1_555 1_555
C107 N11 1_555 1_555
C108 H61 1_555 1_555
C109 C108 1_555 1_555
H62 C109 1_555 1_555
C110 N11 1_555 1_555
C111 C110 1_555 1_555
H63 C111 1_555 1_555
C112 N12 1_555 1_555
H64 C112 1_555 1_555
Cd3 N8 1_555 1_555
Cd5 N12 1_555 1_555
Cd7 O15 1_555 1_555
O25 Cd1 1_555 1_555
O26 Cd2 1_555 1_555
O27 Cd2 1_555 1_555
O28 Cd2 1_555 1_555
N13 Cd1 1_555 1_555
N14 Cd2 1_555 1_555
Cd2 O25 1_555 1_555
O16 Cd7 1_555 1_555
C13 C14 1_555 1_555
C17 C18 1_555 1_555
C17 C23 1_555 1_555
C40 C41 1_555 1_555
C47 C55 1_555 1_555
C48 C49 1_555 1_555
C49 C50 1_555 1_555
C52 C53 1_555 1_555
C68 C69 1_555 1_555
C75 C83 1_555 1_555
C76 C77 1_555 1_555
C77 C78 1_555 1_555
C80 C81 1_555 1_555
C85 C86 1_555 1_555
C87 C88 1_555 1_555
C92 C93 1_555 1_555
C99 C107 1_555 1_555
C100 C101 1_555 1_555
C101 C102 1_555 1_555
C104 C105 1_555 1_555
C109 C110 1_555 1_555
C111 C112 1_555 1_555
O5 C22 1_555 1_555
O7 C32 1_555 1_555
O8 C32 1_555 1_555
H11 C20 1_555 1_555
C25 C24 1_555 1_555
H14 C25 1_555 1_555
H15 C25 1_555 1_555
C26 C25 1_555 1_555
C27 C26 1_555 1_555
H16 C27 1_555 1_555
C28 C27 1_555 1_555
H17 C28 1_555 1_555
C29 C28 1_555 1_555
H18 C29 1_555 1_555
C30 C29 1_555 1_555
C31 C26 1_555 1_555
C32 C24 1_555 1_555
Cd7 O7 1_555 1_555
O8 Cd7 1_555 1_555
C30 C31 1_555 1_555
O6_2 C23_2 1_555 1_555
O17_2 C70_2 1_555 1_555
O18_2 C71_2 1_555 1_555
O19_2 C83_2 1_555 1_555
O20_2 C82_2 1_555 1_555
O21_2 C94_2 1_555 1_555
O22_2 C95_2 1_555 1_555
O23_2 C107_2 1_555 1_555
O24_2 C106_2 1_555 1_555
N6_2 C67_2 1_555 1_555
N7_2 C82_2 1_555 1_555
N13 C84_2 1_555 1_555
N10_2 C91_2 1_555 1_555
N11_2 C106_2 1_555 1_555
N14 C108_2 1_555 1_555
H9_2 C15_2 1_555 1_555
C16_2 C15_2 1_555 1_555
H10_2 C16_2 1_555 1_555
C17_2 C16_2 1_555 1_555
C19_2 C18_2 1_555 1_555
C23_2 N2_2 1_555 1_555
H42_2 C66_2 1_555 1_555
C67_2 C66_2 1_555 1_555
C68_2 C67_2 1_555 1_555
H43_2 C68_2 1_555 1_555
C70_2 N6_2 1_555 1_555
C71_2 N6_2 1_555 1_555
C72_2 C71_2 1_555 1_555
C73_2 C72_2 1_555 1_555
H45_2 C73_2 1_555 1_555
C74_2 C73_2 1_555 1_555
H46_2 C74_2 1_555 1_555
C75_2 C74_2 1_555 1_555
C76_2 C75_2 1_555 1_555
C77_2 C72_2 1_555 1_555
C78_2 C70_2 1_555 1_555
C79_2 C78_2 1_555 1_555
H47_2 C79_2 1_555 1_555
C80_2 C79_2 1_555 1_555
H48_2 C80_2 1_555 1_555
C81_2 C76_2 1_555 1_555
C82_2 C81_2 1_555 1_555
C83_2 N7_2 1_555 1_555
C84_2 H49_2 1_555 1_555
C85_2 C84_2 1_555 1_555
H50_2 C85_2 1_555 1_555
C86_2 N7_2 1_555 1_555
C87_2 C86_2 1_555 1_555
H51_2 C87_2 1_555 1_555
C88_2 N13 1_555 1_555
H52_2 C88_2 1_555 1_555
H54_2 C90_2 1_555 1_555
C91_2 C90_2 1_555 1_555
C92_2 C91_2 1_555 1_555
H55_2 C92_2 1_555 1_555
C94_2 N10_2 1_555 1_555
C95_2 N10_2 1_555 1_555
C96_2 C95_2 1_555 1_555
C97_2 C96_2 1_555 1_555
H57_2 C97_2 1_555 1_555
C98_2 C97_2 1_555 1_555
H58_2 C98_2 1_555 1_555
C99_2 C98_2 1_555 1_555
C100_2 C99_2 1_555 1_555
C101_2 C96_2 1_555 1_555
C102_2 C94_2 1_555 1_555
C103_2 C102_2 1_555 1_555
H59_2 C103_2 1_555 1_555
C104_2 C103_2 1_555 1_555
H60_2 C104_2 1_555 1_555
C105_2 C100_2 1_555 1_555
C106_2 C105_2 1_555 1_555
C107_2 N11_2 1_555 1_555
C108_2 H61_2 1_555 1_555
C109_2 C108_2 1_555 1_555
H62_2 C109_2 1_555 1_555
C110_2 N11_2 1_555 1_555
C111_2 C110_2 1_555 1_555
H63_2 C111_2 1_555 1_555
C112_2 N14 1_555 1_555
H64_2 C112_2 1_555 1_555
C17_2 C18_2 1_555 1_555
C17_2 C23_2 1_555 1_555
C75_2 C83_2 1_555 1_555
C76_2 C77_2 1_555 1_555
C77_2 C78_2 1_555 1_555
C80_2 C81_2 1_555 1_555
C85_2 C86_2 1_555 1_555
C87_2 C88_2 1_555 1_555
C99_2 C107_2 1_555 1_555
C100_2 C101_2 1_555 1_555
C101_2 C102_2 1_555 1_555
C104_2 C105_2 1_555 1_555
C109_2 C110_2 1_555 1_555
C111_2 C112_2 1_555 1_555
Cd3 O1_2 1_555 1_555
Cd5 O10_2 1_555 1_555
O1_2 C1_2 1_555 1_555
O2_2 Cd3 1_555 1_555
O3_2 C11_2 1_555 1_555
O4_2 C10_2 1_555 1_555
O9_2 Cd3 1_555 1_555
O10_2 C33_2 1_555 1_555
N1_2 C2_2 1_555 1_555
N5_2 Cd5 1_555 1_555
N9_2 Cd3 1_555 1_555
C1_2 O2_2 1_555 1_555
C2_2 C1_2 1_555 1_555
H1_2 C2_2 1_555 1_555
C3_2 C2_2 1_555 1_555
H2_2 C3_2 1_555 1_555
H3 C3_2 1_555 1_555
C4 C3_2 1_555 1_555
C5 C4 1_555 1_555
H4_2 C5 1_555 1_555
C6 C5 1_555 1_555
H5 C6 1_555 1_555
C7 C6 1_555 1_555
H6 C7 1_555 1_555
C8 C7 1_555 1_555
H7 C8 1_555 1_555
C9 C4 1_555 1_555
H8 C9 1_555 1_555
C10_2 N1_2 1_555 1_555
C11_2 N1_2 1_555 1_555
C12_2 C11_2 1_555 1_555
C13_2 C12_2 1_555 1_555
C14_2 C10_2 1_555 1_555
C21_2 C12_2 1_555 1_555
H12_2 C21_2 1_555 1_555
C33_2 O9_2 1_555 1_555
C34_2 C33_2 1_555 1_555
C37_2 C36_2 1_555 1_555
H24_2 C37_2 1_555 1_555
C38_2 C37_2 1_555 1_555
H25_2 C38_2 1_555 1_555
C39_2 C38_2 1_555 1_555
H26_2 C39_2 1_555 1_555
C40_2 C39_2 1_555 1_555
C65_2 N5_2 1_555 1_555
H41_2 C65_2 1_555 1_555
C69_2 N5_2 1_555 1_555
H44_2 C69_2 1_555 1_555
C89_2 N9_2 1_555 1_555
H53_2 C89_2 1_555 1_555
C93_2 N9_2 1_555 1_555
H56_2 C93_2 1_555 1_555
O25_2 Cd3 1_555 1_555
O26_2 Cd5 1_555 1_555
O27_2 Cd5 1_555 1_555
O28_2 Cd5 1_555 1_555
Cd5 O25_2 1_555 1_555
C8 C9 1_555 1_555
C13_2 C14_2 1_555 1_555
O7_2 C32_2 1_555 1_555
O8_2 C32_2 1_555 1_555
Cd6 O7_2 1_555 1_555
O8_2 Cd6 1_555 1_555
O13_2 C54_2 1_555 1_555
O14_2 C55_2 1_555 1_555
O15_2 C64_2 1_555 1_555
O16_2 C64_2 1_555 1_555
N4_2 C54_2 1_555 1_555
C48_2 C47_2 1_555 1_555
C52_2 C51_2 1_555 1_555
H32_2 C52_2 1_555 1_555
C53_2 C48_2 1_555 1_555
C54_2 C53_2 1_555 1_555
C55_2 N4_2 1_555 1_555
C56_2 N4_2 1_555 1_555
H33_2 C56_2 1_555 1_555
C57_2 C56_2 1_555 1_555
H34_2 C57_2 1_555 1_555
H35_2 C57_2 1_555 1_555
C58_2 C57_2 1_555 1_555
C59_2 C58_2 1_555 1_555
H36_2 C59_2 1_555 1_555
C60_2 C59_2 1_555 1_555
H37_2 C60_2 1_555 1_555
C61_2 C60_2 1_555 1_555
H38_2 C61_2 1_555 1_555
C62_2 C61_2 1_555 1_555
H39_2 C62_2 1_555 1_555
C63_2 C58_2 1_555 1_555
H40_2 C63_2 1_555 1_555
C64_2 C56_2 1_555 1_555
Cd6 O15_2 1_555 1_555
O16_2 Cd6 1_555 1_555
C47_2 C55_2 1_555 1_555
C52_2 C53_2 1_555 1_555
C62_2 C63_2 1_555 1_555
Cd6 O10_3 1_555 1_555
O11_2 C43_2 1_555 1_555
N5_3 Cd6 1_555 1_555
C44_2 C43_2 1_555 1_555
C45_2 C44_2 1_555 1_555
H29_2 C45_2 1_555 1_555
C46_2 C45_2 1_555 1_555
H30_2 C46_2 1_555 1_555
C49_2 C44_2 1_555 1_555
C65_3 N5_3 1_555 1_555
H41_3 C65_3 1_555 1_555
C69_3 N5_3 1_555 1_555
H44_3 C69_3 1_555 1_555
N14_2 Cd6 1_555 1_555
C49_2 C50_2 1_555 1_555
O13_3 C54_3 1_555 1_555
O14_3 C55_3 1_555 1_555
O27_2 C64_3 1_555 1_555
O28_2 C64_3 1_555 1_555
O17_3 C70_3 1_555 1_555
O18_3 C71_3 1_555 1_555
O19_3 C83_3 1_555 1_555
O20_3 C82_3 1_555 1_555
N4_3 C54_3 1_555 1_555
N6_3 C67_3 1_555 1_555
N7_3 C82_3 1_555 1_555
N8_2 C84_3 1_555 1_555
C48_3 C47_3 1_555 1_555
H32_3 C52_3 1_555 1_555
C53_3 C48_3 1_555 1_555
C54_3 C53_3 1_555 1_555
C55_3 N4_3 1_555 1_555
C56_3 N4_3 1_555 1_555
H33_3 C56_3 1_555 1_555
C57_3 C56_3 1_555 1_555
H34_3 C57_3 1_555 1_555
H35_3 C57_3 1_555 1_555
C58_3 C57_3 1_555 1_555
C59_3 C58_3 1_555 1_555
H36_3 C59_3 1_555 1_555
C60_3 C59_3 1_555 1_555
H37_3 C60_3 1_555 1_555
C64_3 C56_3 1_555 1_555
H42_3 C66_3 1_555 1_555
C67_3 C66_3 1_555 1_555
C68_3 C67_3 1_555 1_555
H43_3 C68_3 1_555 1_555
C70_3 N6_3 1_555 1_555
C71_3 N6_3 1_555 1_555
C72_3 C71_3 1_555 1_555
C73_3 C72_3 1_555 1_555
H45_3 C73_3 1_555 1_555
C74_3 C73_3 1_555 1_555
H46_3 C74_3 1_555 1_555
C75_3 C74_3 1_555 1_555
C76_3 C75_3 1_555 1_555
C77_3 C72_3 1_555 1_555
C78_3 C70_3 1_555 1_555
C79_3 C78_3 1_555 1_555
C80_3 C79_3 1_555 1_555
C81_3 C76_3 1_555 1_555
C82_3 C81_3 1_555 1_555
C83_3 N7_3 1_555 1_555
C84_3 H49_3 1_555 1_555
C85_3 C84_3 1_555 1_555
H50_3 C85_3 1_555 1_555
C86_3 N7_3 1_555 1_555
C87_3 C86_3 1_555 1_555
H51_3 C87_3 1_555 1_555
C88_3 N8_2 1_555 1_555
H52_3 C88_3 1_555 1_555
H57_3 C97_3 1_555 1_555
C98_3 C97_3 1_555 1_555
H58_3 C98_3 1_555 1_555
Cd4 N8_2 1_555 1_555
C47_3 C55_3 1_555 1_555
C52_3 C53_3 1_555 1_555
C75_3 C83_3 1_555 1_555
C76_3 C77_3 1_555 1_555
C77_3 C78_3 1_555 1_555
C80_3 C81_3 1_555 1_555
C85_3 C86_3 1_555 1_555
C87_3 C88_3 1_555 1_555
Cd4_2 O1_3 1_555 1_555
O1_3 C1_3 1_555 1_555
O2_3 Cd4_2 1_555 1_555
O3_3 C11_3 1_555 1_555
O4_3 C10_3 1_555 1_555
O9_3 Cd4_2 1_555 1_555
O12_3 C42_2 1_555 1_555
N1_3 C2_3 1_555 1_555
N3_2 C34_3 1_555 1_555
N9_3 Cd4_2 1_555 1_555
C1_3 O2_3 1_555 1_555
C2_3 C1_3 1_555 1_555
H1_3 C2_3 1_555 1_555
C3_3 C2_3 1_555 1_555
H2_3 C3_3 1_555 1_555
C10_3 N1_3 1_555 1_555
C11_3 N1_3 1_555 1_555
C12_3 C11_3 1_555 1_555
C13_3 C12_3 1_555 1_555
C14_3 C10_3 1_555 1_555
H11_2 C20_2 1_555 1_555
C21_3 C12_3 1_555 1_555
H12_3 C21_3 1_555 1_555
C33_3 O9_3 1_555 1_555
C34_3 C33_3 1_555 1_555
H21_2 C34_3 1_555 1_555
C35_2 C34_3 1_555 1_555
H22_2 C35_2 1_555 1_555
H23_3 C35_2 1_555 1_555
C36_3 C35_2 1_555 1_555
C37_3 C36_3 1_555 1_555
H24_3 C37_3 1_555 1_555
C38_3 C37_3 1_555 1_555
H25_3 C38_3 1_555 1_555
C39_3 C38_3 1_555 1_555
H26_3 C39_3 1_555 1_555
C40_3 C39_3 1_555 1_555
H27_2 C40_3 1_555 1_555
C41_2 C36_3 1_555 1_555
H28_2 C41_2 1_555 1_555
C42_2 N3_2 1_555 1_555
C89_3 N9_3 1_555 1_555
H53_3 C89_3 1_555 1_555
C93_3 N9_3 1_555 1_555
H56_3 C93_3 1_555 1_555
N13_2 Cd4_2 1_555 1_555
C13_3 C14_3 1_555 1_555
C20_2 C21_3 1_555 1_555
C40_3 C41_2 1_555 1_555
O5_2 C22_2 1_555 1_555
O6_3 C23_3 1_555 1_555
O25_2 C32_3 1_555 1_555
O26_2 C32_3 1_555 1_555
O21_3 C94_3 1_555 1_555
O24_3 C106_3 1_555 1_555
N2_3 C22_2 1_555 1_555
N10_3 C91_3 1_555 1_555
N11_3 C106_3 1_555 1_555
N12_2 C108_3 1_555 1_555
H9_3 C15_3 1_555 1_555
C16_3 C15_3 1_555 1_555
H10_3 C16_3 1_555 1_555
C17_3 C16_3 1_555 1_555
C19_3 C18_3 1_555 1_555
C22_2 C19_3 1_555 1_555
C23_3 N2_3 1_555 1_555
C24_2 N2_3 1_555 1_555
H13_3 C24_2 1_555 1_555
C25_2 C24_2 1_555 1_555
H14_2 C25_2 1_555 1_555
H15_2 C25_2 1_555 1_555
C26_2 C25_2 1_555 1_555
C27_2 C26_2 1_555 1_555
H16_2 C27_2 1_555 1_555
C28_2 C27_2 1_555 1_555
H17_2 C28_2 1_555 1_555
C29_2 C28_2 1_555 1_555
H18_2 C29_2 1_555 1_555
C30_2 C29_2 1_555 1_555
H19_3 C30_2 1_555 1_555
C31_2 C26_2 1_555 1_555
H20_3 C31_2 1_555 1_555
C32_3 C24_2 1_555 1_555
H31_3 C51_3 1_555 1_555
H54_3 C90_3 1_555 1_555
C91_3 C90_3 1_555 1_555
C92_3 C91_3 1_555 1_555
H55_3 C92_3 1_555 1_555
C94_3 N10_3 1_555 1_555
C95_3 N10_3 1_555 1_555
C96_3 C95_3 1_555 1_555
C100_3 C99_3 1_555 1_555
C101_3 C96_3 1_555 1_555
C102_3 C94_3 1_555 1_555
C103_3 C102_3 1_555 1_555
H59_3 C103_3 1_555 1_555
C104_3 C103_3 1_555 1_555
H60_3 C104_3 1_555 1_555
C105_3 C100_3 1_555 1_555
C106_3 C105_3 1_555 1_555
C107_3 N11_3 1_555 1_555
C108_3 H61_3 1_555 1_555
C109_3 C108_3 1_555 1_555
H62_3 C109_3 1_555 1_555
C110_3 N11_3 1_555 1_555
C111_3 C110_3 1_555 1_555
H63_3 C111_3 1_555 1_555
C112_3 N12_2 1_555 1_555
H64_3 C112_3 1_555 1_555
Cd7 N12_2 1_555 1_555
C17_3 C18_3 1_555 1_555
C17_3 C23_3 1_555 1_555
C30_2 C31_2 1_555 1_555
C99_3 C107_3 1_555 1_555
C100_3 C101_3 1_555 1_555
C101_3 C102_3 1_555 1_555
C104_3 C105_3 1_555 1_555
C109_3 C110_3 1_555 1_555
C111_3 C112_3 1_555 1_555
O25 C32_4 1_555 1_555
O26 C32_4 1_555 1_555
H22_3 C35_3 1_555 1_555
H28_3 C41_3 1_555 1_555
C42_3 N3_3 1_555 1_555
O11_3 C43_3 1_555 1_555
O13_4 C54_4 1_555 1_555
O14_4 C55_4 1_555 1_555
O27 C64_4 1_555 1_555
O28 C64_4 1_555 1_555
N4_4 C54_4 1_555 1_555
C44_3 C43_3 1_555 1_555
C45_3 C44_3 1_555 1_555
H29_3 C45_3 1_555 1_555
C46_3 C45_3 1_555 1_555
H30_3 C46_3 1_555 1_555
C47_4 C46_3 1_555 1_555
C48_4 C47_4 1_555 1_555
C49_3 C44_3 1_555 1_555
H32_4 C52_4 1_555 1_555
C53_4 C48_4 1_555 1_555
C54_4 C53_4 1_555 1_555
C55_4 N4_4 1_555 1_555
C56_4 N4_4 1_555 1_555
H33_4 C56_4 1_555 1_555
C57_4 C56_4 1_555 1_555
H34_4 C57_4 1_555 1_555
H35_4 C57_4 1_555 1_555
C58_4 C57_4 1_555 1_555
C59_4 C58_4 1_555 1_555
H36_4 C59_4 1_555 1_555
C60_4 C59_4 1_555 1_555
H37_4 C60_4 1_555 1_555
C61_3 C60_4 1_555 1_555
H38_3 C61_3 1_555 1_555
C62_3 C61_3 1_555 1_555
H39_3 C62_3 1_555 1_555
C63_3 C58_4 1_555 1_555
H40_3 C63_3 1_555 1_555
C64_4 C56_4 1_555 1_555
C47_4 C55_4 1_555 1_555
C48_4 C49_3 1_555 1_555
C49_3 C50_3 1_555 1_555
C52_4 C53_4 1_555 1_555
C62_3 C63_3 1_555 1_555
Cd4 O1_4 1_555 1_555
O1_4 C1_4 1_555 1_555
O2_4 Cd4 1_555 1_555
O3_4 C11_4 1_555 1_555
O4_4 C10_4 1_555 1_555
O5_3 C22_3 1_555 1_555
O6_4 C23_4 1_555 1_555
O9_4 Cd4 1_555 1_555
O21_4 C94_4 1_555 1_555
O24_4 C106_4 1_555 1_555
N1_4 C2_4 1_555 1_555
N2_4 C22_3 1_555 1_555
N9_4 Cd4 1_555 1_555
N10_4 C91_4 1_555 1_555
N11_4 C106_4 1_555 1_555
N14_2 C108_4 1_555 1_555
C1_4 O2_4 1_555 1_555
C2_4 C1_4 1_555 1_555
H1_4 C2_4 1_555 1_555
C3_4 C2_4 1_555 1_555
H2_4 C3_4 1_555 1_555
H3_2 C3_4 1_555 1_555
C4_2 C3_4 1_555 1_555
C5_2 C4_2 1_555 1_555
H4_4 C5_2 1_555 1_555
C6_2 C5_2 1_555 1_555
H5_2 C6_2 1_555 1_555
C7_2 C6_2 1_555 1_555
H6_2 C7_2 1_555 1_555
C8_2 C7_2 1_555 1_555
H7_2 C8_2 1_555 1_555
C9_2 C4_2 1_555 1_555
H8_2 C9_2 1_555 1_555
C10_4 N1_4 1_555 1_555
C11_4 N1_4 1_555 1_555
C12_4 C11_4 1_555 1_555
C13_4 C12_4 1_555 1_555
C14_4 C10_4 1_555 1_555
C15_4 C14_4 1_555 1_555
H9_4 C15_4 1_555 1_555
C16_4 C15_4 1_555 1_555
H10_4 C16_4 1_555 1_555
C17_4 C16_4 1_555 1_555
C18_4 C13_4 1_555 1_555
C19_4 C18_4 1_555 1_555
C20_3 C19_4 1_555 1_555
H11_3 C20_3 1_555 1_555
C21_4 C12_4 1_555 1_555
H12_4 C21_4 1_555 1_555
C22_3 C19_4 1_555 1_555
C23_4 N2_4 1_555 1_555
C24_3 N2_4 1_555 1_555
H13_4 C24_3 1_555 1_555
C25_3 C24_3 1_555 1_555
H14_3 C25_3 1_555 1_555
H15_3 C25_3 1_555 1_555
C26_3 C25_3 1_555 1_555
C27_3 C26_3 1_555 1_555
H16_3 C27_3 1_555 1_555
C28_3 C27_3 1_555 1_555
H17_3 C28_3 1_555 1_555
C29_3 C28_3 1_555 1_555
H18_3 C29_3 1_555 1_555
C30_3 C29_3 1_555 1_555
H19_4 C30_3 1_555 1_555
C31_3 C26_3 1_555 1_555
H20_4 C31_3 1_555 1_555
C33_4 O9_4 1_555 1_555
C34_4 C33_4 1_555 1_555
C37_4 C36_4 1_555 1_555
H24_4 C37_4 1_555 1_555
C38_4 C37_4 1_555 1_555
H25_4 C38_4 1_555 1_555
C39_4 C38_4 1_555 1_555
H26_4 C39_4 1_555 1_555
C40_4 C39_4 1_555 1_555
C89_4 N9_4 1_555 1_555
H53_4 C89_4 1_555 1_555
C90_4 C89_4 1_555 1_555
H54_4 C90_4 1_555 1_555
C91_4 C90_4 1_555 1_555
C92_4 C91_4 1_555 1_555
H55_4 C92_4 1_555 1_555
C93_4 N9_4 1_555 1_555
H56_4 C93_4 1_555 1_555
C94_4 N10_4 1_555 1_555
C95_4 N10_4 1_555 1_555
C96_4 C95_4 1_555 1_555
C100_4 C99_4 1_555 1_555
C101_4 C96_4 1_555 1_555
C102_4 C94_4 1_555 1_555
C103_4 C102_4 1_555 1_555
H59_4 C103_4 1_555 1_555
C104_4 C103_4 1_555 1_555
H60_4 C104_4 1_555 1_555
C105_4 C100_4 1_555 1_555
C106_4 C105_4 1_555 1_555
C107_4 N11_4 1_555 1_555
C108_4 H61_4 1_555 1_555
C109_4 C108_4 1_555 1_555
H62_4 C109_4 1_555 1_555
C110_4 N11_4 1_555 1_555
C111_4 C110_4 1_555 1_555
H63_4 C111_4 1_555 1_555
C112_4 N14_2 1_555 1_555
H64_4 C112_4 1_555 1_555
C8_2 C9_2 1_555 1_555
C13_4 C14_4 1_555 1_555
C17_4 C18_4 1_555 1_555
C17_4 C23_4 1_555 1_555
C20_3 C21_4 1_555 1_555
C30_3 C31_3 1_555 1_555
C92_4 C93_4 1_555 1_555
C99_4 C107_4 1_555 1_555
C100_4 C101_4 1_555 1_555
C101_4 C102_4 1_555 1_555
C104_4 C105_4 1_555 1_555
C109_4 C110_4 1_555 1_555
C111_4 C112_4 1_555 1_555
Cd7 O10_4 1_555 1_555
O17_4 C70_4 1_555 1_555
O18_4 C71_4 1_555 1_555
O19_4 C83_4 1_555 1_555
O20_4 C82_4 1_555 1_555
N5_4 Cd7 1_555 1_555
N6_4 C67_4 1_555 1_555
N7_4 C82_4 1_555 1_555
N13_2 C84_4 1_555 1_555
C65_4 N5_4 1_555 1_555
H41_4 C65_4 1_555 1_555
C66_4 C65_4 1_555 1_555
H42_4 C66_4 1_555 1_555
C67_4 C66_4 1_555 1_555
C68_4 C67_4 1_555 1_555
H43_4 C68_4 1_555 1_555
C69_4 N5_4 1_555 1_555
H44_4 C69_4 1_555 1_555
C70_4 N6_4 1_555 1_555
C71_4 N6_4 1_555 1_555
C72_4 C71_4 1_555 1_555
C73_4 C72_4 1_555 1_555
H45_4 C73_4 1_555 1_555
C74_4 C73_4 1_555 1_555
H46_4 C74_4 1_555 1_555
C75_4 C74_4 1_555 1_555
C76_4 C75_4 1_555 1_555
C77_4 C72_4 1_555 1_555
C78_4 C70_4 1_555 1_555
C79_4 C78_4 1_555 1_555
C80_4 C79_4 1_555 1_555
C81_4 C76_4 1_555 1_555
C82_4 C81_4 1_555 1_555
C83_4 N7_4 1_555 1_555
C84_4 H49_4 1_555 1_555
C85_4 C84_4 1_555 1_555
H50_4 C85_4 1_555 1_555
C86_4 N7_4 1_555 1_555
C87_4 C86_4 1_555 1_555
H51_4 C87_4 1_555 1_555
C88_4 N13_2 1_555 1_555
H52_4 C88_4 1_555 1_555
H57_4 C97_4 1_555 1_555
C98_4 C97_4 1_555 1_555
H58_4 C98_4 1_555 1_555
C68_4 C69_4 1_555 1_555
C75_4 C83_4 1_555 1_555
C76_4 C77_4 1_555 1_555
C77_4 C78_4 1_555 1_555
C80_4 C81_4 1_555 1_555
C85_4 C86_4 1_555 1_555
C87_4 C88_4 1_555 1_555
C5_3 C4_3 1_555 1_555
C6_3 C5_3 1_555 1_555
H5_3 C6_3 1_555 1_555
C7_3 C6_3 1_555 1_555
H6_3 C7_3 1_555 1_555
C8_3 C7_3 1_555 1_555
H7_3 C8_3 1_555 1_555
C9_3 C4_3 1_555 1_555
H8_3 C9_3 1_555 1_555
C8_3 C9_3 1_555 1_555
O5_4 C22_4 1_555 1_555
C25_4 C24_4 1_555 1_555
H14_4 C25_4 1_555 1_555
H15_4 C25_4 1_555 1_555
C26_4 C25_4 1_555 1_555
C27_4 C26_4 1_555 1_555
H16_4 C27_4 1_555 1_555
C28_4 C27_4 1_555 1_555
H17_4 C28_4 1_555 1_555
C29_4 C28_4 1_555 1_555
H18_4 C29_4 1_555 1_555
C30_4 C29_4 1_555 1_555
C31_4 C26_4 1_555 1_555
C30_4 C31_4 1_555 1_555
H11_4 C20_4 1_555 1_555
O11_4 C43_4 1_555 1_555
H22_4 C35_4 1_555 1_555
H28_4 C41_4 1_555 1_555
C42_4 N3_4 1_555 1_555
C43_4 N3_4 1_555 1_555
C44_4 C43_4 1_555 1_555
C45_4 C44_4 1_555 1_555
H29_4 C45_4 1_555 1_555
C46_4 C45_4 1_555 1_555
H30_4 C46_4 1_555 1_555
C49_4 C44_4 1_555 1_555
C50_4 C42_4 1_555 1_555
C49_4 C50_4 1_555 1_555
C5_4 C4_4 1_555 1_555
C6_4 C5_4 1_555 1_555
H5_4 C6_4 1_555 1_555
C7_4 C6_4 1_555 1_555
H6_4 C7_4 1_555 1_555
C8_4 C7_4 1_555 1_555
H7_4 C8_4 1_555 1_555
C9_4 C4_4 1_555 1_555
H8_4 C9_4 1_555 1_555
C8_4 C9_4 1_555 1_555
H38_4 C61_4 1_555 1_555
C62_4 C61_4 1_555 1_555
H39_4 C62_4 1_555 1_555
H40_4 C63_4 1_555 1_555
C62_4 C63_4 1_555 1_555

#END
