
###############################################################################
#
# This file contains modified crystal structure data generated from the
# MOF subset of the Cambridge Structural Database (CSD) v543 
# hosted by the Cambridge Crystallographic Data Centre (CCDC).
#
# This work is licensed under the Creative Commons
# Attribution-NonCommercial-ShareAlike 4.0 International License.
# To view a copy of this license, visit
# http://creativecommons.org/licenses/by-nc-sa/4.0/
# or send a letter to
# Creative Commons, PO Box 1866, Mountain View, CA 94042, USA.
#
# CIF created using the CSD Python API on 29 September 2022
# The structure has been converted into the P1 space group
# The structure has a 3D framework
# The original CSD entry IXUQUO is in the orthorhombic crystal system
# The framework has been calculated to contain at least 10.0% void space
# The void calculation uses a probe of radius 1.32A, grid spacing 0.4
#
###############################################################################

data_IXUQUO
_chemical_formula_moiety         '(C1152 H896 N256 O256 Zn60)n'
_symmetry_cell_setting           triclinic
_symmetry_space_group_name_H-M   'P 1'
_symmetry_Int_Tables_number      1
_space_group_name_Hall           'P 1'
loop_
_symmetry_equiv_pos_site_id
_symmetry_equiv_pos_as_xyz
1 x,y,z
_cell_length_a                   28.942(3)
_cell_length_b                   58.653(5)
_cell_length_c                   21.5267(19)
_cell_angle_alpha                90
_cell_angle_beta                 90
_cell_angle_gamma                90
_cell_volume                     36542.3
loop_
_atom_site_label
_atom_site_type_symbol
_atom_site_fract_x
_atom_site_fract_y
_atom_site_fract_z
C37 C 0.37484(12) 0.21741(6) 0.0814(2)
H25 H 0.4065 0.2199 0.0832
C38 C 0.35585(15) 0.20179(6) 0.1188(2)
H26 H 0.3746 0.1939 0.1465
C39 C 0.30882(14) 0.19713(5) 0.1173(2)
C40 C 0.28296(15) 0.21009(6) 0.0780(2)
H27 H 0.2511 0.2081 0.0765
C41 C 0.30323(14) 0.22579(6) 0.0410(2)
H28 H 0.2844 0.2342 0.0147
C42 C 0.21901(15) 0.16374(6) 0.1204(2)
C43 C 0.24378(14) 0.14935(6) 0.0780(2)
H29 H 0.2758 0.1500 0.0753
C44 C 0.21807(16) 0.13425(6) 0.0406(3)
H30 H 0.2334 0.1244 0.0137
C45 C 0.15206(15) 0.14756(7) 0.0799(3)
H31 H 0.1199 0.1478 0.0787
C46 C 0.17259(16) 0.16280(8) 0.1227(3)
H32 H 0.1553 0.1715 0.1504
C57 C 0.0541(2) 0.33989(8) 0.1733(3)
C58 C 0.02151(18) 0.32623(7) 0.1349(3)
C59 C 0.0052(2) 0.30536(7) 0.1552(3)
H41 H 0.0124 0.3005 0.1952
C63 C 0.01084(19) 0.33296(7) 0.0807(3)
H44 H 0.0224 0.3468 0.0665
N9 N 0.34829(10) 0.22996(5) 0.03996(17)
N10 N 0.29118(12) 0.18082(5) 0.15433(17)
H53 H 0.3094 0.1723 0.1756
N11 N 0.24192(13) 0.17766(5) 0.1585(2)
H54 H 0.2268 0.1850 0.1864
N12 N 0.17088(11) 0.13392(5) 0.04353(18)
O9 O 0.07425(13) 0.35611(6) 0.1566(2)
O10 O 0.05665(13) 0.33539(5) 0.2330(2)
Zn8 Zn 0.114850(15) 0.364010(6) 0.23392(3)
O20 O 0.08982(9) 0.09080(4) 0.00681(14)
Zn4 Zn 0.135150(15) 0.114010(6) 0.98392(3)
C47 C 0.05472(15) 0.13927(6) 0.9308(2)
H33 H 0.0367 0.1288 0.9522
C48 C 0.03293(14) 0.15541(7) 0.8971(2)
H34 H 0.0008 0.1556 0.8960
C49 C 0.05608(15) 0.17068(6) 0.8661(2)
C50 C 0.10328(16) 0.16936(7) 0.8703(3)
H35 H 0.1212 0.1803 0.8502
C51 C 0.12338(14) 0.15364(7) 0.9010(3)
H36 H 0.1555 0.1529 0.9004
H40 H 0.0151 0.2175 0.9135
N13 N 0.09914(11) 0.13749(5) 0.93532(16)
N14 N 0.03706(16) 0.18636(8) 0.8340(3)
H55 H 0.0554 0.1960 0.8168
Zn5 Zn 0.377740(14) 0.251820(6) 0.97810(3)
O19 O 0.17575(13) 0.10611(6) 0.9066(2)
C1 C 0.85696(14) 0.22209(6) 0.0697(2)
H1 H 0.8876 0.2252 0.0794
C2 C 0.83300(14) 0.20569(7) 0.1042(2)
H2 H 0.8480 0.1980 0.1361
C3 C 0.78780(15) 0.20089(6) 0.0916(3)
C4 C 0.76652(15) 0.21213(7) 0.0416(3)
H3 H 0.7359 0.2092 0.0312
C5 C 0.79169(14) 0.22734(7) 0.0092(2)
C6 C 0.69861(12) 0.13552(5) 0.01770(19)
C7 C 0.72253(13) 0.15123(5) 0.05150(19)
H6 H 0.7546 0.1517 0.0504
C8 C 0.69867(16) 0.16604(6) 0.0864(3)
C9 C 0.65049(16) 0.16450(7) 0.0880(2)
H7 H 0.6332 0.1750 0.1106
C10 C 0.62785(14) 0.14627(8) 0.0537(3)
H8 H 0.5961 0.1442 0.0568
C19 C 0.44120(18) 0.02791(8) 0.1893(3)
C20 C 0.46963(16) 0.04410(7) 0.1479(3)
C21 C 0.4784(2) 0.03858(8) 0.0870(3)
H13 H 0.4651 0.0257 0.0693
C22 C 0.5071(2) 0.05236(8) 0.0525(3)
H14 H 0.5158 0.0475 0.0130
C23 C 0.52271(17) 0.07212(7) 0.0729(3)
C24 C 0.51330(19) 0.07596(7) 0.1346(2)
H15 H 0.5257 0.0890 0.1525
C25 C 0.48778(19) 0.06244(7) 0.1710(3)
H16 H 0.4831 0.0662 0.2125
C26 C 0.55314(18) 0.08616(8) 0.0404(3)
C60 C 0.97935(18) 0.29201(7) 0.1191(2)
H42 H 0.9709 0.2776 0.1333
C61 C 0.96506(13) 0.29883(6) 0.06216(18)
C62 C 0.98186(19) 0.31993(7) 0.0413(2)
H43 H 0.9741 0.3253 0.0020
C64 C 0.93299(15) 0.28389(8) 0.0219(2)
N1 N 0.65241(11) 0.13287(5) 0.01876(19)
N2 N 0.71862(14) 0.18273(6) 0.1233(2)
H49 H 0.7015 0.1922 0.1434
N3 N 0.76787(12) 0.18410(6) 0.1277(2)
H50 H 0.7838 0.1752 0.1511
N4 N 0.83636(12) 0.23341(5) 0.02265(18)
O5 O 0.43839(13) 0.03278(6) 0.2480(2)
O6 O 0.41617(11) 0.01543(5) 0.1661(2)
O8 O 0.57300(13) 0.10179(6) 0.0580(2)
O11 O 0.90950(10) 0.26910(5) 0.04766(16)
Zn7 Zn 0.372260(14) 0.001820(6) 0.22810(3)
O17 O 0.41860(10) 0.27717(4) 0.00200(14)
Zn1 Zn 0.872750(15) 0.257425(7) 0.97408(3)
Zn2 Zn 0.616331(14) 0.109214(6) 0.97080(2)
H4 H 0.7777 0.2342 0.9752
H5 H 0.7155 0.1259 0.9919
C11 C 0.68669(14) 0.09150(5) 0.89643(19)
C12 C 0.71770(12) 0.07371(5) 0.87213(18)
C13 C 0.75109(18) 0.07871(6) 0.8291(2)
H9 H 0.7547 0.0938 0.8170
C14 C 0.78034(14) 0.06223(6) 0.8020(2)
H10 H 0.8036 0.0665 0.7744
C15 C 0.77339(13) 0.03942(6) 0.81769(19)
C16 C 0.73867(13) 0.03441(6) 0.85959(19)
H11 H 0.7327 0.0193 0.8699
C17 C 0.71264(13) 0.05167(5) 0.88639(19)
H12 H 0.6905 0.0477 0.9158
C18 C 0.80016(13) 0.02133(5) 0.79085(19)
C27 C 0.38158(14) 0.21716(7) 0.8757(2)
H17 H 0.3504 0.2208 0.8728
C28 C 0.39816(14) 0.20132(5) 0.8357(2)
H18 H 0.3793 0.1950 0.8052
C29 C 0.44387(14) 0.19474(5) 0.84153(19)
C30 C 0.47056(13) 0.20524(5) 0.88676(19)
H19 H 0.5014 0.2013 0.8918
C31 C 0.45125(13) 0.22122(6) 0.9232(2)
H20 H 0.4696 0.2281 0.9531
C32 C 0.52981(14) 0.16098(6) 0.83598(19)
C33 C 0.50789(13) 0.14718(5) 0.87963(19)
H21 H 0.4760 0.1481 0.8843
C34 C 0.53231(13) 0.13242(6) 0.9155(2)
H22 H 0.5156 0.1235 0.9434
C35 C 0.60158(15) 0.14371(6) 0.8716(2)
H23 H 0.6336 0.1429 0.8681
C36 C 0.57836(14) 0.15876(6) 0.8352(2)
H24 H 0.5952 0.1680 0.8085
C52 C 0.96412(15) 0.20484(7) 0.8591(2)
C53 C 0.91711(17) 0.20643(6) 0.8470(2)
H37 H 0.9023 0.1973 0.8178
C54 C 0.89407(14) 0.22276(6) 0.8817(2)
H38 H 0.8626 0.2242 0.8743
C55 C 0.95505(15) 0.23267(7) 0.9315(2)
H39 H 0.9684 0.2417 0.9621
C56 C 0.98387(17) 0.21830(7) 0.9035(2)
C65 C 0.68684(14) 0.34722(6) 0.8047(2)
C66 C 0.71774(14) 0.32833(6) 0.82961(19)
C67 C 0.71259(14) 0.30602(5) 0.8115(2)
H45 H 0.6892 0.3020 0.7840
C68 C 0.74138(14) 0.29001(6) 0.8335(2)
H46 H 0.7383 0.2751 0.8197
C69 C 0.77571(14) 0.29519(6) 0.8764(2)
C70 C 0.78016(17) 0.31718(7) 0.8976(3)
H47 H 0.8017 0.3207 0.9282
C71 C 0.75129(14) 0.33452(6) 0.8722(2)
H48 H 0.7549 0.3497 0.8839
C72 C 0.80875(16) 0.27768(6) 0.9048(3)
N5 N 0.40631(11) 0.22784(5) 0.91867(17)
N6 N 0.46267(15) 0.17885(5) 0.8017(2)
H51 H 0.4448 0.1706 0.7790
N7 N 0.50938(13) 0.17603(5) 0.7980(2)
H52 H 0.5254 0.1838 0.7718
N8 N 0.57941(11) 0.12937(5) 0.91440(17)
N15 N 0.98898(15) 0.18979(7) 0.8234(2)
H56 H 0.9753 0.1824 0.7943
N16 N 0.91115(11) 0.23602(5) 0.92283(17)
O1 O 0.68718(12) 0.11089(4) 0.87466(16)
O2 O 0.66152(9) 0.08605(4) 0.94313(13)
O3 O 0.83140(10) 0.02717(4) 0.75200(14)
O4 O 0.79156(10) 0.00120(4) 0.80421(15)
O7 O 0.56301(13) 0.08351(6) 0.98753(19)
O12 O 0.93453(12) 0.28727(6) 0.96305(18)
O13 O 0.66018(9) 0.34080(4) 0.75681(14)
O14 O 0.68669(12) 0.36609(4) 0.82565(16)
O15 O 0.82976(12) 0.28112(5) 0.95200(19)
O16 O 0.81384(14) 0.25962(5) 0.8733(2)
Zn6 Zn 0.872260(14) 0.001820(6) 0.72810(3)
Zn9 Zn 0.614850(15) 0.364010(6) 0.73392(3)
O18 O 0.33383(11) 0.26543(5) 0.9161(2)
Zn1_2 Zn 0.377250(15) 0.507425(7) 0.22408(3)
Zn2_2 Zn 0.633669(14) 0.359214(6) 0.22080(2)
Zn3 Zn 0.872260(14) 0.501820(6) 0.22810(3)
C1_2 C 0.39304(14) 0.47209(6) 0.3197(2)
H1_2 H 0.3624 0.4752 0.3294
C2_2 C 0.41700(14) 0.45569(7) 0.3542(2)
H2_2 H 0.4020 0.4480 0.3861
C3_2 C 0.46220(15) 0.45089(6) 0.3416(3)
C4_2 C 0.48348(15) 0.46213(7) 0.2916(3)
H3_2 H 0.5141 0.4592 0.2812
C5_2 C 0.45831(14) 0.47734(7) 0.2592(2)
H4_2 H 0.4723 0.4842 0.2252
C6_2 C 0.55139(12) 0.38552(5) 0.26770(19)
H5_2 H 0.5345 0.3759 0.2419
C7_2 C 0.52747(13) 0.40123(5) 0.30150(19)
H6_2 H 0.4954 0.4017 0.3004
C8_2 C 0.55133(16) 0.41604(6) 0.3364(3)
C9_2 C 0.59951(16) 0.41450(7) 0.3380(2)
H7_2 H 0.6168 0.4250 0.3606
C10_2 C 0.62215(14) 0.39627(8) 0.3037(3)
H8_2 H 0.6539 0.3942 0.3068
C11_2 C 0.56331(14) 0.34150(5) 0.14643(19)
C12_2 C 0.53230(12) 0.32371(5) 0.12213(18)
C13_2 C 0.49891(18) 0.32871(6) 0.0791(2)
H9_2 H 0.4953 0.3438 0.0670
C14_2 C 0.46966(14) 0.31223(6) 0.0520(2)
H10_2 H 0.4464 0.3165 0.0244
C15_2 C 0.47661(13) 0.28942(6) 0.06769(19)
C16_2 C 0.51133(13) 0.28441(6) 0.10959(19)
H11_2 H 0.5173 0.2693 0.1199
C17_2 C 0.53736(13) 0.30167(5) 0.13639(19)
H12_2 H 0.5595 0.2977 0.1658
C18_2 C 0.44984(13) 0.27133(5) 0.04085(19)
C19_2 C 0.80880(18) 0.27791(8) 0.4393(3)
C20_2 C 0.78037(16) 0.29410(7) 0.3979(3)
C21_2 C 0.7716(2) 0.28858(8) 0.3370(3)
H13_2 H 0.7849 0.2757 0.3193
C22_2 C 0.7429(2) 0.30236(8) 0.3025(3)
H14_2 H 0.7342 0.2975 0.2630
C23_2 C 0.72729(17) 0.32212(7) 0.3229(3)
C24_2 C 0.73670(19) 0.32596(7) 0.3846(2)
H15_2 H 0.7243 0.3390 0.4025
C25_2 C 0.76222(19) 0.31244(7) 0.4210(3)
H16_2 H 0.7669 0.3162 0.4625
C26_2 C 0.69686(18) 0.33616(8) 0.2904(3)
C27_2 C 0.86842(14) 0.46716(7) 0.1257(2)
H17_2 H 0.8996 0.4708 0.1228
C28_2 C 0.85184(14) 0.45132(5) 0.0857(2)
H18_2 H 0.8707 0.4450 0.0552
C29_2 C 0.80613(14) 0.44474(5) 0.09153(19)
C30_2 C 0.77944(13) 0.45524(5) 0.13676(19)
H19_2 H 0.7486 0.4513 0.1418
C31_2 C 0.79875(13) 0.47122(6) 0.1732(2)
H20_2 H 0.7804 0.4781 0.2031
C32_2 C 0.72019(14) 0.41098(6) 0.08598(19)
C33_2 C 0.74211(13) 0.39718(5) 0.12963(19)
H21_2 H 0.7740 0.3981 0.1343
C34_2 C 0.71769(13) 0.38242(6) 0.1655(2)
H22_2 H 0.7344 0.3735 0.1934
C35_2 C 0.64842(15) 0.39371(6) 0.1216(2)
H23_2 H 0.6164 0.3929 0.1181
C36_2 C 0.67164(14) 0.40876(6) 0.0852(2)
H24_2 H 0.6548 0.4180 0.0585
C42_2 C 0.03099(15) 0.41374(6) 0.3704(2)
C43_2 C 0.00622(14) 0.39935(6) 0.3280(2)
C44_2 C 0.03193(16) 0.38425(6) 0.2906(3)
H30_2 H 0.0166 0.3744 0.2637
C45_2 C 0.09794(15) 0.39756(7) 0.3299(3)
H31_2 H 0.1301 0.3978 0.3287
C46_2 C 0.07741(16) 0.41280(8) 0.3727(3)
H32_2 H 0.0947 0.4215 0.4004
C47_2 C 0.19528(15) 0.38927(6) 0.1808(2)
H33_2 H 0.2133 0.3788 0.2022
C48_2 C 0.21707(14) 0.40541(7) 0.1471(2)
H34_2 H 0.2492 0.4056 0.1460
C49_2 C 0.19392(15) 0.42068(6) 0.1161(2)
C50_2 C 0.14672(16) 0.41936(7) 0.1203(3)
H35_2 H 0.1288 0.4303 0.1002
C51_2 C 0.12662(14) 0.40364(7) 0.1510(3)
H36_2 H 0.0945 0.4029 0.1504
C52_2 C 0.28588(15) 0.45484(7) 0.1091(2)
C53_2 C 0.33289(17) 0.45643(6) 0.0970(2)
H37_2 H 0.3477 0.4473 0.0678
C54_2 C 0.35593(14) 0.47276(6) 0.1317(2)
H38_2 H 0.3874 0.4742 0.1243
C55_2 C 0.29495(15) 0.48267(7) 0.1815(2)
H39_2 H 0.2816 0.4917 0.2121
C56_2 C 0.26613(17) 0.46830(7) 0.1535(2)
H40_2 H 0.2349 0.4675 0.1635
C57_2 C 0.1959(2) 0.58989(8) 0.4233(3)
C58_2 C 0.22849(18) 0.57623(7) 0.3849(3)
C59_2 C 0.2448(2) 0.55536(7) 0.4052(3)
H41_2 H 0.2376 0.5505 0.4452
C60_2 C 0.27065(18) 0.54201(7) 0.3691(2)
H42_2 H 0.2791 0.5276 0.3833
C61_2 C 0.28494(13) 0.54883(6) 0.31216(18)
C62_2 C 0.26814(19) 0.56993(7) 0.2913(2)
H43_2 H 0.2759 0.5753 0.2520
C63_2 C 0.23916(19) 0.58296(7) 0.3307(3)
H44_2 H 0.2276 0.5968 0.3165
C64_2 C 0.31701(15) 0.53389(8) 0.2719(2)
C65_2 C 0.56316(14) 0.59722(6) 0.0547(2)
C66_2 C 0.53226(14) 0.57833(6) 0.07961(19)
C67_2 C 0.53741(14) 0.55602(5) 0.0615(2)
H45_2 H 0.5608 0.5520 0.0340
C68_2 C 0.50862(14) 0.54001(6) 0.0835(2)
H46_2 H 0.5117 0.5251 0.0697
C69_2 C 0.47429(14) 0.54519(6) 0.1264(2)
C70_2 C 0.46984(17) 0.56718(7) 0.1476(3)
H47_2 H 0.4483 0.5707 0.1782
C71_2 C 0.49871(14) 0.58452(6) 0.1222(2)
H48_2 H 0.4951 0.5997 0.1339
C72_2 C 0.44125(16) 0.52768(6) 0.1548(3)
N1_2 N 0.59759(11) 0.38287(5) 0.26876(19)
N2_2 N 0.53138(14) 0.43273(6) 0.3733(2)
H49_2 H 0.5485 0.4422 0.3934
N3_2 N 0.48213(12) 0.43410(6) 0.3777(2)
H50_2 H 0.4662 0.4252 0.4011
N4_2 N 0.41364(12) 0.48341(5) 0.27265(18)
N5_2 N 0.84369(11) 0.47784(5) 0.16867(17)
N6_2 N 0.78733(15) 0.42885(5) 0.0517(2)
H51_2 H 0.8052 0.4206 0.0290
N7_2 N 0.74062(13) 0.42603(5) 0.0480(2)
H52_2 H 0.7246 0.4338 0.0218
N8_2 N 0.67059(11) 0.37937(5) 0.16440(17)
N11_2 N 0.00808(13) 0.42766(5) 0.4085(2)
H54_2 H 0.0232 0.4350 0.4364
N12_2 N 0.07912(11) 0.38392(5) 0.29353(18)
N13_2 N 0.15086(11) 0.38749(5) 0.18532(16)
N14_2 N 0.21294(16) 0.43636(8) 0.0840(3)
H55_2 H 0.1946 0.4460 0.0668
N15_2 N 0.26102(15) 0.43979(7) 0.0734(2)
H56_2 H 0.2747 0.4324 0.0443
N16_2 N 0.33885(11) 0.48602(5) 0.17283(17)
O1_2 O 0.56282(12) 0.36089(4) 0.12466(16)
O2_2 O 0.58848(9) 0.33605(4) 0.19313(13)
O4_2 O 0.45844(10) 0.25120(4) 0.05421(15)
O5_2 O 0.81161(13) 0.28278(6) 0.4980(2)
O6_2 O 0.83383(11) 0.26543(5) 0.4161(2)
O7_2 O 0.68699(13) 0.33351(6) 0.23753(19)
O8_2 O 0.67700(13) 0.35179(6) 0.3080(2)
O9_2 O 0.17575(13) 0.60611(6) 0.4066(2)
O10_2 O 0.19335(13) 0.58539(5) 0.4830(2)
O11_2 O 0.34050(10) 0.51910(5) 0.29766(16)
O12_2 O 0.31547(12) 0.53727(6) 0.21305(18)
O13_2 O 0.58982(9) 0.59080(4) 0.00681(14)
O14_2 O 0.56331(12) 0.61609(4) 0.07565(16)
O15_2 O 0.42024(12) 0.53112(5) 0.20200(19)
O16_2 O 0.43616(14) 0.50962(5) 0.1233(2)
Zn7_2 Zn 0.877740(14) 0.251820(6) 0.47810(3)
Zn8_2 Zn 0.135150(15) 0.614010(6) 0.48392(3)
N17 N 0.90171(10) 0.47996(5) 0.28996(17)
O17_2 O 0.83140(10) 0.52717(4) 0.25200(14)
O18_2 O 0.91617(11) 0.51543(5) 0.1661(2)
O20_2 O 0.16018(9) 0.34080(4) 0.25681(14)
Zn9_2 Zn 0.635150(15) 0.614010(6) 0.98392(3)
C37_2 C 0.87516(12) 0.46741(6) 0.3314(2)
H25_2 H 0.8435 0.4699 0.3332
C38_2 C 0.89415(15) 0.45179(6) 0.3688(2)
H26_2 H 0.8754 0.4439 0.3965
C39_2 C 0.94118(14) 0.44713(5) 0.3673(2)
C40_2 C 0.96704(15) 0.46009(6) 0.3280(2)
H27_2 H 0.9989 0.4581 0.3265
C41_2 C 0.94677(14) 0.47579(6) 0.2910(2)
H28_2 H 0.9656 0.4842 0.2647
H29_2 H 0.9742 0.4000 0.3253
N10_2 N 0.95882(12) 0.43082(5) 0.40433(17)
H53_2 H 0.9406 0.4223 0.4256
C37_3 C 0.37484(12) 0.71741(6) 0.5814(2)
H25_3 H 0.4065 0.7199 0.5832
C38_3 C 0.35585(15) 0.70179(6) 0.6188(2)
H26_3 H 0.3746 0.6939 0.6465
C39_3 C 0.30882(14) 0.69713(5) 0.6173(2)
C40_3 C 0.28296(15) 0.71009(6) 0.5780(2)
H27_3 H 0.2511 0.7081 0.5765
C41_3 C 0.30323(14) 0.72579(6) 0.5410(2)
H28_3 H 0.2844 0.7342 0.5147
C42_3 C 0.21901(15) 0.66374(6) 0.6204(2)
C43_3 C 0.24378(14) 0.64935(6) 0.5780(2)
H29_3 H 0.2758 0.6500 0.5753
C44_3 C 0.21807(16) 0.63425(6) 0.5406(3)
H30_3 H 0.2334 0.6244 0.5137
C45_3 C 0.15206(15) 0.64756(7) 0.5799(3)
H31_3 H 0.1199 0.6478 0.5787
C46_3 C 0.17259(16) 0.66280(8) 0.6227(3)
H32_3 H 0.1553 0.6715 0.6504
C47_3 C 0.05472(15) 0.63927(6) 0.4308(2)
H33_3 H 0.0367 0.6288 0.4522
C48_3 C 0.03293(14) 0.65541(7) 0.3971(2)
H34_3 H 0.0008 0.6556 0.3960
C49_3 C 0.05608(15) 0.67068(6) 0.3661(2)
C50_3 C 0.10328(16) 0.66936(7) 0.3703(3)
H35_3 H 0.1212 0.6803 0.3502
C51_3 C 0.12338(14) 0.65364(7) 0.4010(3)
H36_3 H 0.1555 0.6529 0.4004
H40_3 H 0.0151 0.7175 0.4135
C57_3 C 0.0541(2) 0.83989(8) 0.6733(3)
C58_3 C 0.02151(18) 0.82623(7) 0.6349(3)
C59_3 C 0.0052(2) 0.80536(7) 0.6552(3)
H41_3 H 0.0124 0.8005 0.6952
C63_3 C 0.01084(19) 0.83296(7) 0.5807(3)
H44_3 H 0.0224 0.8468 0.5665
N9_2 N 0.34829(10) 0.72996(5) 0.53996(17)
N10_3 N 0.29118(12) 0.68082(5) 0.65433(17)
H53_3 H 0.3094 0.6723 0.6756
N11_3 N 0.24192(13) 0.67766(5) 0.6585(2)
H54_3 H 0.2268 0.6850 0.6864
N12_3 N 0.17088(11) 0.63392(5) 0.54353(18)
N13_3 N 0.09914(11) 0.63749(5) 0.43532(16)
N14_3 N 0.03706(16) 0.68636(8) 0.3340(3)
H55_3 H 0.0554 0.6960 0.3168
O9_3 O 0.07425(13) 0.85611(6) 0.6566(2)
O10_3 O 0.05665(13) 0.83539(5) 0.7330(2)
Zn5_2 Zn 0.377740(14) 0.751820(6) 0.47810(3)
Zn8_3 Zn 0.114850(15) 0.864010(6) 0.73392(3)
O20_3 O 0.08982(9) 0.59080(4) 0.50681(14)
Zn1_3 Zn 0.872750(15) 0.757425(7) 0.47408(3)
Zn2_3 Zn 0.616331(14) 0.609214(6) 0.47080(2)
C1_3 C 0.85696(14) 0.72209(6) 0.5697(2)
H1_3 H 0.8876 0.7252 0.5794
C2_3 C 0.83300(14) 0.70569(7) 0.6042(2)
H2_3 H 0.8480 0.6980 0.6361
C3_3 C 0.78780(15) 0.70089(6) 0.5916(3)
C4_3 C 0.76652(15) 0.71213(7) 0.5416(3)
H3_3 H 0.7359 0.7092 0.5312
C5_3 C 0.79169(14) 0.72734(7) 0.5092(2)
H4_3 H 0.7777 0.7342 0.4752
C6_3 C 0.69861(12) 0.63552(5) 0.51770(19)
H5_3 H 0.7155 0.6259 0.4919
C7_3 C 0.72253(13) 0.65123(5) 0.55150(19)
H6_3 H 0.7546 0.6517 0.5504
C8_3 C 0.69867(16) 0.66604(6) 0.5864(3)
C9_3 C 0.65049(16) 0.66450(7) 0.5880(2)
H7_3 H 0.6332 0.6750 0.6106
C10_3 C 0.62785(14) 0.64627(8) 0.5537(3)
H8_3 H 0.5961 0.6442 0.5568
C11_3 C 0.68669(14) 0.59150(5) 0.39643(19)
C12_3 C 0.71770(12) 0.57371(5) 0.37213(18)
C13_3 C 0.75109(18) 0.57871(6) 0.3291(2)
H9_3 H 0.7547 0.5938 0.3170
C14_3 C 0.78034(14) 0.56223(6) 0.3020(2)
H10_3 H 0.8036 0.5665 0.2744
C15_3 C 0.77339(13) 0.53942(6) 0.31769(19)
C16_3 C 0.73867(13) 0.53441(6) 0.35959(19)
H11_3 H 0.7327 0.5193 0.3699
C17_3 C 0.71264(13) 0.55167(5) 0.38639(19)
H12_3 H 0.6905 0.5477 0.4158
C18_3 C 0.80016(13) 0.52133(5) 0.29085(19)
C19_3 C 0.44120(18) 0.52791(8) 0.6893(3)
C20_3 C 0.46963(16) 0.54410(7) 0.6479(3)
C21_3 C 0.4784(2) 0.53858(8) 0.5870(3)
H13_3 H 0.4651 0.5257 0.5693
C22_3 C 0.5071(2) 0.55236(8) 0.5525(3)
H14_3 H 0.5158 0.5475 0.5130
C23_3 C 0.52271(17) 0.57212(7) 0.5729(3)
C24_3 C 0.51330(19) 0.57596(7) 0.6346(2)
H15_3 H 0.5257 0.5890 0.6525
C25_3 C 0.48778(19) 0.56244(7) 0.6710(3)
H16_3 H 0.4831 0.5662 0.7125
C26_3 C 0.55314(18) 0.58616(8) 0.5404(3)
C27_3 C 0.38158(14) 0.71716(7) 0.3757(2)
H17_3 H 0.3504 0.7208 0.3728
C28_3 C 0.39816(14) 0.70132(5) 0.3357(2)
H18_3 H 0.3793 0.6950 0.3052
C29_3 C 0.44387(14) 0.69474(5) 0.34153(19)
C30_3 C 0.47056(13) 0.70524(5) 0.38676(19)
H19_3 H 0.5014 0.7013 0.3918
C31_3 C 0.45125(13) 0.72122(6) 0.4232(2)
H20_3 H 0.4696 0.7281 0.4531
C32_3 C 0.52981(14) 0.66098(6) 0.33598(19)
C33_3 C 0.50789(13) 0.64718(5) 0.37963(19)
H21_3 H 0.4760 0.6481 0.3843
C34_3 C 0.53231(13) 0.63242(6) 0.4155(2)
H22_3 H 0.5156 0.6235 0.4434
C35_3 C 0.60158(15) 0.64371(6) 0.3716(2)
H23_3 H 0.6336 0.6429 0.3681
C36_3 C 0.57836(14) 0.65876(6) 0.3352(2)
H24_3 H 0.5952 0.6680 0.3085
C52_3 C 0.96412(15) 0.70484(7) 0.3591(2)
C53_3 C 0.91711(17) 0.70643(6) 0.3470(2)
H37_3 H 0.9023 0.6973 0.3178
C54_3 C 0.89407(14) 0.72276(6) 0.3817(2)
H38_3 H 0.8626 0.7242 0.3743
C55_3 C 0.95505(15) 0.73267(7) 0.4315(2)
H39_3 H 0.9684 0.7417 0.4621
C56_3 C 0.98387(17) 0.71830(7) 0.4035(2)
C60_3 C 0.97935(18) 0.79201(7) 0.6191(2)
H42_3 H 0.9709 0.7776 0.6333
C61_3 C 0.96506(13) 0.79883(6) 0.56216(18)
C62_3 C 0.98186(19) 0.81993(7) 0.5413(2)
H43_3 H 0.9741 0.8253 0.5020
C64_3 C 0.93299(15) 0.78389(8) 0.5219(2)
C65_3 C 0.68684(14) 0.84722(6) 0.3047(2)
C66_3 C 0.71774(14) 0.82833(6) 0.32961(19)
C67_3 C 0.71259(14) 0.80602(5) 0.3115(2)
H45_3 H 0.6892 0.8020 0.2840
C68_3 C 0.74138(14) 0.79001(6) 0.3335(2)
H46_3 H 0.7383 0.7751 0.3197
C69_3 C 0.77571(14) 0.79519(6) 0.3764(2)
C70_3 C 0.78016(17) 0.81718(7) 0.3976(3)
H47_3 H 0.8017 0.8207 0.4282
C71_3 C 0.75129(14) 0.83452(6) 0.3722(2)
H48_3 H 0.7549 0.8497 0.3839
C72_3 C 0.80875(16) 0.77768(6) 0.4048(3)
N1_3 N 0.65241(11) 0.63287(5) 0.51876(19)
N2_3 N 0.71862(14) 0.68273(6) 0.6233(2)
H49_3 H 0.7015 0.6922 0.6434
N3_3 N 0.76787(12) 0.68410(6) 0.6277(2)
H50_3 H 0.7838 0.6752 0.6511
N4_3 N 0.83636(12) 0.73341(5) 0.52265(18)
N5_3 N 0.40631(11) 0.72784(5) 0.41867(17)
N6_3 N 0.46267(15) 0.67885(5) 0.3017(2)
H51_3 H 0.4448 0.6706 0.2790
N7_3 N 0.50938(13) 0.67603(5) 0.2980(2)
H52_3 H 0.5254 0.6838 0.2718
N8_3 N 0.57941(11) 0.62937(5) 0.41440(17)
N15_3 N 0.98898(15) 0.68979(7) 0.3234(2)
H56_3 H 0.9753 0.6824 0.2943
N16_3 N 0.91115(11) 0.73602(5) 0.42283(17)
O1_3 O 0.68718(12) 0.61089(4) 0.37466(16)
O2_3 O 0.66152(9) 0.58605(4) 0.44313(13)
O4_3 O 0.79156(10) 0.50120(4) 0.30421(15)
O5_3 O 0.43839(13) 0.53278(6) 0.7480(2)
O6_3 O 0.41617(11) 0.51543(5) 0.6661(2)
O7_3 O 0.56301(13) 0.58351(6) 0.48753(19)
O8_3 O 0.57300(13) 0.60179(6) 0.5580(2)
O11_3 O 0.90950(10) 0.76910(5) 0.54766(16)
O12_3 O 0.93453(12) 0.78727(6) 0.46305(18)
O13_3 O 0.66018(9) 0.84080(4) 0.25681(14)
O14_3 O 0.68669(12) 0.86609(4) 0.32565(16)
O15_3 O 0.82976(12) 0.78112(5) 0.45200(19)
O16_3 O 0.81384(14) 0.75962(5) 0.3733(2)
Zn7_3 Zn 0.372260(14) 0.501820(6) 0.72810(3)
Zn9_3 Zn 0.614850(15) 0.864010(6) 0.23392(3)
O17_3 O 0.41860(10) 0.77717(4) 0.50200(14)
O18_3 O 0.33383(11) 0.76543(5) 0.4161(2)
Zn1_4 Zn 0.377250(15) 0.007425(7) 0.72408(3)
C57_4 C 0.1959(2) 0.08989(8) 0.9233(3)
C58_4 C 0.22849(18) 0.07623(7) 0.8849(3)
C59_4 C 0.2448(2) 0.05536(7) 0.9052(3)
H41_4 H 0.2376 0.0505 0.9452
C60_4 C 0.27065(18) 0.04201(7) 0.8691(2)
H42_4 H 0.2791 0.0276 0.8833
C61_4 C 0.28494(13) 0.04883(6) 0.81216(18)
C62_4 C 0.26814(19) 0.06993(7) 0.7913(2)
H43_4 H 0.2759 0.0753 0.7520
C63_4 C 0.23916(19) 0.08296(7) 0.8307(3)
H44_4 H 0.2276 0.0968 0.8165
C64_4 C 0.31701(15) 0.03389(8) 0.7719(2)
C65_4 C 0.56316(14) 0.09722(6) 0.5547(2)
C66_4 C 0.53226(14) 0.07833(6) 0.57961(19)
C67_4 C 0.53741(14) 0.05602(5) 0.5615(2)
H45_4 H 0.5608 0.0520 0.5340
C68_4 C 0.50862(14) 0.04001(6) 0.5835(2)
H46_4 H 0.5117 0.0251 0.5697
C69_4 C 0.47429(14) 0.04519(6) 0.6264(2)
C70_4 C 0.46984(17) 0.06718(7) 0.6476(3)
H47_4 H 0.4483 0.0707 0.6782
C71_4 C 0.49871(14) 0.08452(6) 0.6222(2)
H48_4 H 0.4951 0.0997 0.6339
C72_4 C 0.44125(16) 0.02768(6) 0.6548(3)
O10_4 O 0.19335(13) 0.08539(5) 0.9830(2)
O11_4 O 0.34050(10) 0.01910(5) 0.79766(16)
O12_4 O 0.31547(12) 0.03727(6) 0.71305(18)
O13_4 O 0.58982(9) 0.09080(4) 0.50681(14)
O14_4 O 0.56331(12) 0.11609(4) 0.57565(16)
O15_4 O 0.42024(12) 0.03112(5) 0.70200(19)
O16_4 O 0.43616(14) 0.00962(5) 0.6233(2)
Zn9_4 Zn 0.635150(15) 0.114010(6) 0.48392(3)
O18_4 O 0.91617(11) 0.01543(5) 0.6661(2)
Zn2_4 Zn 0.633669(14) 0.859214(6) 0.72080(2)
C1_4 C 0.39304(14) 0.97209(6) 0.8197(2)
H1_4 H 0.3624 0.9752 0.8294
C2_4 C 0.41700(14) 0.95569(7) 0.8542(2)
H2_4 H 0.4020 0.9480 0.8861
C3_4 C 0.46220(15) 0.95089(6) 0.8416(3)
C4_4 C 0.48348(15) 0.96213(7) 0.7916(3)
H3_4 H 0.5141 0.9592 0.7812
C5_4 C 0.45831(14) 0.97734(7) 0.7592(2)
H4_4 H 0.4723 0.9842 0.7252
C6_4 C 0.55139(12) 0.88552(5) 0.76770(19)
H5_4 H 0.5345 0.8759 0.7419
C7_4 C 0.52747(13) 0.90123(5) 0.80150(19)
H6_4 H 0.4954 0.9017 0.8004
C8_4 C 0.55133(16) 0.91604(6) 0.8364(3)
C9_4 C 0.59951(16) 0.91450(7) 0.8380(2)
H7_4 H 0.6168 0.9250 0.8606
C10_4 C 0.62215(14) 0.89627(8) 0.8037(3)
H8_4 H 0.6539 0.8942 0.8068
C11_4 C 0.56331(14) 0.84150(5) 0.64643(19)
C12_4 C 0.53230(12) 0.82371(5) 0.62213(18)
C13_4 C 0.49891(18) 0.82871(6) 0.5791(2)
H9_4 H 0.4953 0.8438 0.5670
C14_4 C 0.46966(14) 0.81223(6) 0.5520(2)
H10_4 H 0.4464 0.8165 0.5244
C15_4 C 0.47661(13) 0.78942(6) 0.56769(19)
C16_4 C 0.51133(13) 0.78441(6) 0.60959(19)
H11_4 H 0.5173 0.7693 0.6199
C17_4 C 0.53736(13) 0.80167(5) 0.63639(19)
H12_4 H 0.5595 0.7977 0.6658
C18_4 C 0.44984(13) 0.77133(5) 0.54085(19)
C19_4 C 0.80880(18) 0.77791(8) 0.9393(3)
C20_4 C 0.78037(16) 0.79410(7) 0.8979(3)
C21_4 C 0.7716(2) 0.78858(8) 0.8370(3)
H13_4 H 0.7849 0.7757 0.8193
C22_4 C 0.7429(2) 0.80236(8) 0.8025(3)
H14_4 H 0.7342 0.7975 0.7630
C23_4 C 0.72729(17) 0.82212(7) 0.8229(3)
C24_4 C 0.73670(19) 0.82596(7) 0.8846(2)
H15_4 H 0.7243 0.8390 0.9025
C25_4 C 0.76222(19) 0.81244(7) 0.9210(3)
H16_4 H 0.7669 0.8162 0.9625
C26_4 C 0.69686(18) 0.83616(8) 0.7904(3)
C27_4 C 0.86842(14) 0.96716(7) 0.6257(2)
H17_4 H 0.8996 0.9708 0.6228
C28_4 C 0.85184(14) 0.95132(5) 0.5857(2)
H18_4 H 0.8707 0.9450 0.5552
C29_4 C 0.80613(14) 0.94474(5) 0.59153(19)
C30_4 C 0.77944(13) 0.95524(5) 0.63676(19)
H19_4 H 0.7486 0.9513 0.6418
C31_4 C 0.79875(13) 0.97122(6) 0.6732(2)
H20_4 H 0.7804 0.9781 0.7031
C32_4 C 0.72019(14) 0.91098(6) 0.58598(19)
C33_4 C 0.74211(13) 0.89718(5) 0.62963(19)
H21_4 H 0.7740 0.8981 0.6343
C34_4 C 0.71769(13) 0.88242(6) 0.6655(2)
H22_4 H 0.7344 0.8735 0.6934
C35_4 C 0.64842(15) 0.89371(6) 0.6216(2)
H23_4 H 0.6164 0.8929 0.6181
C36_4 C 0.67164(14) 0.90876(6) 0.5852(2)
H24_4 H 0.6548 0.9180 0.5585
C42_4 C 0.03099(15) 0.91374(6) 0.8704(2)
C43_4 C 0.00622(14) 0.89935(6) 0.8280(2)
C44_4 C 0.03193(16) 0.88425(6) 0.7906(3)
H30_4 H 0.0166 0.8744 0.7637
C45_4 C 0.09794(15) 0.89756(7) 0.8299(3)
H31_4 H 0.1301 0.8978 0.8287
C46_4 C 0.07741(16) 0.91280(8) 0.8727(3)
H32_4 H 0.0947 0.9215 0.9004
C47_4 C 0.19528(15) 0.88927(6) 0.6808(2)
H33_4 H 0.2133 0.8788 0.7022
C48_4 C 0.21707(14) 0.90541(7) 0.6471(2)
H34_4 H 0.2492 0.9056 0.6460
C49_4 C 0.19392(15) 0.92068(6) 0.6161(2)
C50_4 C 0.14672(16) 0.91936(7) 0.6203(3)
H35_4 H 0.1288 0.9303 0.6002
C51_4 C 0.12662(14) 0.90364(7) 0.6510(3)
H36_4 H 0.0945 0.9029 0.6504
C52_4 C 0.28588(15) 0.95484(7) 0.6091(2)
C53_4 C 0.33289(17) 0.95643(6) 0.5970(2)
H37_4 H 0.3477 0.9473 0.5678
C54_4 C 0.35593(14) 0.97276(6) 0.6317(2)
H38_4 H 0.3874 0.9742 0.6243
C55_4 C 0.29495(15) 0.98267(7) 0.6815(2)
H39_4 H 0.2816 0.9917 0.7121
C56_4 C 0.26613(17) 0.96830(7) 0.6535(2)
H40_4 H 0.2349 0.9675 0.6635
N1_4 N 0.59759(11) 0.88287(5) 0.76876(19)
N2_4 N 0.53138(14) 0.93273(6) 0.8733(2)
H49_4 H 0.5485 0.9422 0.8934
N3_4 N 0.48213(12) 0.93410(6) 0.8777(2)
H50_4 H 0.4662 0.9252 0.9011
N4_4 N 0.41364(12) 0.98341(5) 0.77265(18)
N5_4 N 0.84369(11) 0.97784(5) 0.66867(17)
N6_4 N 0.78733(15) 0.92885(5) 0.5517(2)
H51_4 H 0.8052 0.9206 0.5290
N7_4 N 0.74062(13) 0.92603(5) 0.5480(2)
H52_4 H 0.7246 0.9338 0.5218
N8_4 N 0.67059(11) 0.87937(5) 0.66440(17)
N11_4 N 0.00808(13) 0.92766(5) 0.9085(2)
H54_4 H 0.0232 0.9350 0.9364
N12_4 N 0.07912(11) 0.88392(5) 0.79353(18)
N13_4 N 0.15086(11) 0.88749(5) 0.68532(16)
N14_4 N 0.21294(16) 0.93636(8) 0.5840(3)
H55_4 H 0.1946 0.9460 0.5668
N15_4 N 0.26102(15) 0.93979(7) 0.5734(2)
H56_4 H 0.2747 0.9324 0.5443
N16_4 N 0.33885(11) 0.98602(5) 0.67283(17)
O1_4 O 0.56282(12) 0.86089(4) 0.62466(16)
O2_4 O 0.58848(9) 0.83605(4) 0.69313(13)
O4_4 O 0.45844(10) 0.75120(4) 0.55421(15)
O5_4 O 0.81161(13) 0.78278(6) 0.9980(2)
O6_4 O 0.83383(11) 0.76543(5) 0.9161(2)
O7_4 O 0.68699(13) 0.83351(6) 0.73753(19)
O8_4 O 0.67700(13) 0.85179(6) 0.8080(2)
Zn7_4 Zn 0.877740(14) 0.751820(6) 0.97810(3)
N17_2 N 0.90171(10) 0.97996(5) 0.78996(17)
O20_4 O 0.16018(9) 0.84080(4) 0.75681(14)
C37_4 C 0.87516(12) 0.96741(6) 0.8314(2)
H25_4 H 0.8435 0.9699 0.8332
C38_4 C 0.89415(15) 0.95179(6) 0.8688(2)
H26_4 H 0.8754 0.9439 0.8965
C39_4 C 0.94118(14) 0.94713(5) 0.8673(2)
C40_4 C 0.96704(15) 0.96009(6) 0.8280(2)
H27_4 H 0.9989 0.9581 0.8265
C41_4 C 0.94677(14) 0.97579(6) 0.7910(2)
H28_4 H 0.9656 0.9842 0.7647
H29_4 H 0.9742 0.9000 0.8253
N10_4 N 0.95882(12) 0.93082(5) 0.90433(17)
H53_4 H 0.9406 0.9223 0.9256
Zn1_5 Zn 0.372750(15) 0.257425(7) 0.47408(3)
Zn2_5 Zn 0.116331(14) 0.109214(6) 0.47080(2)
C1_5 C 0.35696(14) 0.22209(6) 0.5697(2)
H1_5 H 0.3876 0.2252 0.5794
C2_5 C 0.33300(14) 0.20569(7) 0.6042(2)
H2_5 H 0.3480 0.1980 0.6361
C3_5 C 0.28780(15) 0.20089(6) 0.5916(3)
C4_5 C 0.26652(15) 0.21213(7) 0.5416(3)
H3_5 H 0.2359 0.2092 0.5312
C5_5 C 0.29169(14) 0.22734(7) 0.5092(2)
H4_5 H 0.2777 0.2342 0.4752
C6_5 C 0.19861(12) 0.13552(5) 0.51770(19)
H5_5 H 0.2155 0.1259 0.4919
C7_5 C 0.22253(13) 0.15123(5) 0.55150(19)
H6_5 H 0.2546 0.1517 0.5504
C8_5 C 0.19867(16) 0.16604(6) 0.5864(3)
C9_5 C 0.15049(16) 0.16450(7) 0.5880(2)
H7_5 H 0.1332 0.1750 0.6106
C10_5 C 0.12785(14) 0.14627(8) 0.5537(3)
H8_5 H 0.0961 0.1442 0.5568
C11_5 C 0.18669(14) 0.09150(5) 0.39643(19)
C12_5 C 0.21770(12) 0.07371(5) 0.37213(18)
C13_5 C 0.25109(18) 0.07871(6) 0.3291(2)
H9_5 H 0.2547 0.0938 0.3170
C14_5 C 0.28034(14) 0.06223(6) 0.3020(2)
H10_5 H 0.3036 0.0665 0.2744
C15_5 C 0.27339(13) 0.03942(6) 0.31769(19)
C16_5 C 0.23867(13) 0.03441(6) 0.35959(19)
H11_5 H 0.2327 0.0193 0.3699
C17_5 C 0.21264(13) 0.05167(5) 0.38639(19)
H12_5 H 0.1905 0.0477 0.4158
C18_5 C 0.30016(13) 0.02133(5) 0.29085(19)
C22_5 C 0.0071(2) 0.05236(8) 0.5525(3)
H14_5 H 0.0158 0.0475 0.5130
C23_5 C 0.02271(17) 0.07212(7) 0.5729(3)
C24_5 C 0.01330(19) 0.07596(7) 0.6346(2)
H15_5 H 0.0257 0.0890 0.6525
C26_5 C 0.05314(18) 0.08616(8) 0.5404(3)
H19_5 H 0.0014 0.2013 0.3918
C32_5 C 0.02981(14) 0.16098(6) 0.33598(19)
C33_5 C 0.00789(13) 0.14718(5) 0.37963(19)
C34_5 C 0.03231(13) 0.13242(6) 0.4155(2)
H22_5 H 0.0156 0.1235 0.4434
C35_5 C 0.10158(15) 0.14371(6) 0.3716(2)
H23_5 H 0.1336 0.1429 0.3681
C36_5 C 0.07836(14) 0.15876(6) 0.3352(2)
H24_5 H 0.0952 0.1680 0.3085
C37_5 C 0.87484(12) 0.21741(6) 0.5814(2)
H25_5 H 0.9065 0.2199 0.5832
C38_5 C 0.85585(15) 0.20179(6) 0.6188(2)
H26_5 H 0.8746 0.1939 0.6465
C39_5 C 0.80882(14) 0.19713(5) 0.6173(2)
C40_5 C 0.78296(15) 0.21009(6) 0.5780(2)
H27_5 H 0.7511 0.2081 0.5765
C41_5 C 0.80323(14) 0.22579(6) 0.5410(2)
H28_5 H 0.7844 0.2342 0.5147
C42_5 C 0.71901(15) 0.16374(6) 0.6204(2)
C43_5 C 0.74378(14) 0.14935(6) 0.5780(2)
H29_5 H 0.7758 0.1500 0.5753
C44_5 C 0.71807(16) 0.13425(6) 0.5406(3)
H30_5 H 0.7334 0.1244 0.5137
C45_5 C 0.65206(15) 0.14756(7) 0.5799(3)
H31_5 H 0.6199 0.1478 0.5787
C46_5 C 0.67259(16) 0.16280(8) 0.6227(3)
H32_5 H 0.6553 0.1715 0.6504
C47_5 C 0.55472(15) 0.13927(6) 0.4308(2)
H33_5 H 0.5367 0.1288 0.4522
C48_5 C 0.53293(14) 0.15541(7) 0.3971(2)
H34_5 H 0.5008 0.1556 0.3960
C49_5 C 0.55608(15) 0.17068(6) 0.3661(2)
C50_5 C 0.60328(16) 0.16936(7) 0.3703(3)
H35_5 H 0.6212 0.1803 0.3502
C51_5 C 0.62338(14) 0.15364(7) 0.4010(3)
H36_5 H 0.6555 0.1529 0.4004
C52_5 C 0.46412(15) 0.20484(7) 0.3591(2)
C53_5 C 0.41711(17) 0.20643(6) 0.3470(2)
H37_5 H 0.4023 0.1973 0.3178
C54_5 C 0.39407(14) 0.22276(6) 0.3817(2)
H38_5 H 0.3626 0.2242 0.3743
C55_5 C 0.45505(15) 0.23267(7) 0.4315(2)
H39_5 H 0.4684 0.2417 0.4621
C56_5 C 0.48387(17) 0.21830(7) 0.4035(2)
H40_5 H 0.5151 0.2175 0.4135
C57_5 C 0.5541(2) 0.33989(8) 0.6733(3)
C58_5 C 0.52151(18) 0.32623(7) 0.6349(3)
C59_5 C 0.5052(2) 0.30536(7) 0.6552(3)
H41_5 H 0.5124 0.3005 0.6952
C60_5 C 0.47935(18) 0.29201(7) 0.6191(2)
H42_5 H 0.4709 0.2776 0.6333
C61_5 C 0.46506(13) 0.29883(6) 0.56216(18)
C62_5 C 0.48186(19) 0.31993(7) 0.5413(2)
H43_5 H 0.4741 0.3253 0.5020
C63_5 C 0.51084(19) 0.33296(7) 0.5807(3)
H44_5 H 0.5224 0.3468 0.5665
C64_5 C 0.43299(15) 0.28389(8) 0.5219(2)
C65_5 C 0.18684(14) 0.34722(6) 0.3047(2)
C66_5 C 0.21774(14) 0.32833(6) 0.32961(19)
C67_5 C 0.21259(14) 0.30602(5) 0.3115(2)
H45_5 H 0.1892 0.3020 0.2840
C68_5 C 0.24138(14) 0.29001(6) 0.3335(2)
H46_5 H 0.2383 0.2751 0.3197
C69_5 C 0.27571(14) 0.29519(6) 0.3764(2)
C70_5 C 0.28016(17) 0.31718(7) 0.3976(3)
H47_5 H 0.3017 0.3207 0.4282
C71_5 C 0.25129(14) 0.33452(6) 0.3722(2)
H48_5 H 0.2549 0.3497 0.3839
C72_5 C 0.30875(16) 0.27768(6) 0.4048(3)
N1_5 N 0.15241(11) 0.13287(5) 0.51876(19)
N2_5 N 0.21862(14) 0.18273(6) 0.6233(2)
H49_5 H 0.2015 0.1922 0.6434
N3_5 N 0.26787(12) 0.18410(6) 0.6277(2)
H50_5 H 0.2838 0.1752 0.6511
N4_5 N 0.33636(12) 0.23341(5) 0.52265(18)
N7_5 N 0.00938(13) 0.17603(5) 0.2980(2)
H52_5 H 0.0254 0.1838 0.2718
N8_5 N 0.07941(11) 0.12937(5) 0.41440(17)
N9_3 N 0.84829(10) 0.22996(5) 0.53996(17)
N10_5 N 0.79118(12) 0.18082(5) 0.65433(17)
H53_5 H 0.8094 0.1723 0.6756
N11_5 N 0.74192(13) 0.17766(5) 0.6585(2)
H54_5 H 0.7268 0.1850 0.6864
N12_5 N 0.67088(11) 0.13392(5) 0.54353(18)
N13_5 N 0.59914(11) 0.13749(5) 0.43532(16)
N14_5 N 0.53706(16) 0.18636(8) 0.3340(3)
H55_5 H 0.5554 0.1960 0.3168
N15_5 N 0.48898(15) 0.18979(7) 0.3234(2)
H56_5 H 0.4753 0.1824 0.2943
N16_5 N 0.41115(11) 0.23602(5) 0.42283(17)
O1_5 O 0.18718(12) 0.11089(4) 0.37466(16)
O2_5 O 0.16152(9) 0.08605(4) 0.44313(13)
O3_2 O 0.33140(10) 0.02717(4) 0.25200(14)
O4_5 O 0.29156(10) 0.00120(4) 0.30421(15)
O7_5 O 0.06301(13) 0.08351(6) 0.48753(19)
O8_5 O 0.07300(13) 0.10179(6) 0.5580(2)
O9_4 O 0.57425(13) 0.35611(6) 0.6566(2)
O10_5 O 0.55665(13) 0.33539(5) 0.7330(2)
O11_5 O 0.40950(10) 0.26910(5) 0.54766(16)
O12_5 O 0.43453(12) 0.28727(6) 0.46305(18)
O14_5 O 0.18669(12) 0.36609(4) 0.32565(16)
O15_5 O 0.32976(12) 0.28112(5) 0.45200(19)
O16_5 O 0.31384(14) 0.25962(5) 0.3733(2)
O19_2 O 0.67575(13) 0.10611(6) 0.4066(2)
C19_5 C 0.94120(18) 0.02791(8) 0.6893(3)
C20_5 C 0.96963(16) 0.04410(7) 0.6479(3)
C21_5 C 0.9784(2) 0.03858(8) 0.5870(3)
H13_5 H 0.9651 0.0257 0.5693
C25_5 C 0.98778(19) 0.06244(7) 0.6710(3)
H16_5 H 0.9831 0.0662 0.7125
C27_5 C 0.88158(14) 0.21716(7) 0.3757(2)
H17_5 H 0.8504 0.2208 0.3728
C28_5 C 0.89816(14) 0.20132(5) 0.3357(2)
H18_5 H 0.8793 0.1950 0.3052
C29_5 C 0.94387(14) 0.19474(5) 0.34153(19)
C30_5 C 0.97056(13) 0.20524(5) 0.38676(19)
C31_5 C 0.95125(13) 0.22122(6) 0.4232(2)
H20_5 H 0.9696 0.2281 0.4531
H21_5 H 0.9760 0.1481 0.3843
N5_5 N 0.90631(11) 0.22784(5) 0.41867(17)
N6_5 N 0.96267(15) 0.17885(5) 0.3017(2)
H51_5 H 0.9448 0.1706 0.2790
O5_5 O 0.93839(13) 0.03278(6) 0.7480(2)
O17_4 O 0.91860(10) 0.27717(4) 0.50200(14)
Zn2_6 Zn 0.133669(14) 0.359214(6) 0.72080(2)
H3_6 H 0.0141 0.4592 0.7812
C6_6 C 0.05139(12) 0.38552(5) 0.76770(19)
H5_6 H 0.0345 0.3759 0.7419
C7_6 C 0.02747(13) 0.40123(5) 0.80150(19)
C8_6 C 0.05133(16) 0.41604(6) 0.8364(3)
C9_6 C 0.09951(16) 0.41450(7) 0.8380(2)
H7_6 H 0.1168 0.4250 0.8606
C10_6 C 0.12215(14) 0.39627(8) 0.8037(3)
H8_6 H 0.1539 0.3942 0.8068
C11_6 C 0.06331(14) 0.34150(5) 0.64643(19)
C12_6 C 0.03230(12) 0.32371(5) 0.62213(18)
C16_6 C 0.01133(13) 0.28441(6) 0.60959(19)
H11_6 H 0.0173 0.2693 0.6199
C17_6 C 0.03736(13) 0.30167(5) 0.63639(19)
H12_6 H 0.0595 0.2977 0.6658
C19_6 C 0.30880(18) 0.27791(8) 0.9393(3)
C20_6 C 0.28037(16) 0.29410(7) 0.8979(3)
C21_6 C 0.2716(2) 0.28858(8) 0.8370(3)
H13_6 H 0.2849 0.2757 0.8193
C22_6 C 0.2429(2) 0.30236(8) 0.8025(3)
H14_6 H 0.2342 0.2975 0.7630
C23_6 C 0.22729(17) 0.32212(7) 0.8229(3)
C24_6 C 0.23670(19) 0.32596(7) 0.8846(2)
H15_6 H 0.2243 0.3390 0.9025
C25_6 C 0.26222(19) 0.31244(7) 0.9210(3)
H16_6 H 0.2669 0.3162 0.9625
C26_6 C 0.19686(18) 0.33616(8) 0.7904(3)
C27_6 C 0.36842(14) 0.46716(7) 0.6257(2)
H17_6 H 0.3996 0.4708 0.6228
C28_6 C 0.35184(14) 0.45132(5) 0.5857(2)
H18_6 H 0.3707 0.4450 0.5552
C29_6 C 0.30613(14) 0.44474(5) 0.59153(19)
C30_6 C 0.27944(13) 0.45524(5) 0.63676(19)
H19_6 H 0.2486 0.4513 0.6418
C31_6 C 0.29875(13) 0.47122(6) 0.6732(2)
H20_6 H 0.2804 0.4781 0.7031
C32_6 C 0.22019(14) 0.41098(6) 0.58598(19)
C33_6 C 0.24211(13) 0.39718(5) 0.62963(19)
H21_6 H 0.2740 0.3981 0.6343
C34_6 C 0.21769(13) 0.38242(6) 0.6655(2)
H22_6 H 0.2344 0.3735 0.6934
C35_6 C 0.14842(15) 0.39371(6) 0.6216(2)
H23_6 H 0.1164 0.3929 0.6181
C36_6 C 0.17164(14) 0.40876(6) 0.5852(2)
H24_6 H 0.1548 0.4180 0.5585
C65_6 C 0.06316(14) 0.59722(6) 0.5547(2)
C66_6 C 0.03226(14) 0.57833(6) 0.57961(19)
C67_6 C 0.03741(14) 0.55602(5) 0.5615(2)
H45_6 H 0.0608 0.5520 0.5340
C68_6 C 0.00862(14) 0.54001(6) 0.5835(2)
H46_6 H 0.0117 0.5251 0.5697
N1_6 N 0.09759(11) 0.38287(5) 0.76876(19)
N2_6 N 0.03138(14) 0.43273(6) 0.8733(2)
H49_6 H 0.0485 0.4422 0.8934
N5_6 N 0.34369(11) 0.47784(5) 0.66867(17)
N6_6 N 0.28733(15) 0.42885(5) 0.5517(2)
H51_6 H 0.3052 0.4206 0.5290
N7_6 N 0.24062(13) 0.42603(5) 0.5480(2)
H52_6 H 0.2246 0.4338 0.5218
N8_6 N 0.17059(11) 0.37937(5) 0.66440(17)
O1_6 O 0.06282(12) 0.36089(4) 0.62466(16)
O2_6 O 0.08848(9) 0.33605(4) 0.69313(13)
O5_6 O 0.31161(13) 0.28278(6) 0.9980(2)
O7_6 O 0.18699(13) 0.33351(6) 0.73753(19)
O8_6 O 0.17700(13) 0.35179(6) 0.8080(2)
O14_6 O 0.06331(12) 0.61609(4) 0.57565(16)
N17_3 N 0.40171(10) 0.47996(5) 0.78996(17)
O17_5 O 0.33140(10) 0.52717(4) 0.75200(14)
Zn1_6 Zn 0.877250(15) 0.507425(7) 0.72408(3)
C1_6 C 0.89304(14) 0.47209(6) 0.8197(2)
H1_6 H 0.8624 0.4752 0.8294
C2_6 C 0.91700(14) 0.45569(7) 0.8542(2)
H2_6 H 0.9020 0.4480 0.8861
C3_6 C 0.96220(15) 0.45089(6) 0.8416(3)
C4_6 C 0.98348(15) 0.46213(7) 0.7916(3)
C5_6 C 0.95831(14) 0.47734(7) 0.7592(2)
H4_6 H 0.9723 0.4842 0.7252
H6_6 H 0.9954 0.4017 0.8004
C13_6 C 0.99891(18) 0.32871(6) 0.5791(2)
H9_6 H 0.9953 0.3438 0.5670
C14_6 C 0.96966(14) 0.31223(6) 0.5520(2)
H10_6 H 0.9464 0.3165 0.5244
C15_6 C 0.97661(13) 0.28942(6) 0.56769(19)
C18_6 C 0.94984(13) 0.27133(5) 0.54085(19)
C37_6 C 0.37516(12) 0.46741(6) 0.8314(2)
H25_6 H 0.3435 0.4699 0.8332
C38_6 C 0.39415(15) 0.45179(6) 0.8688(2)
H26_6 H 0.3754 0.4439 0.8965
C39_6 C 0.44118(14) 0.44713(5) 0.8673(2)
C40_6 C 0.46704(15) 0.46009(6) 0.8280(2)
H27_6 H 0.4989 0.4581 0.8265
C41_6 C 0.44677(14) 0.47579(6) 0.7910(2)
H28_6 H 0.4656 0.4842 0.7647
C42_6 C 0.53099(15) 0.41374(6) 0.8704(2)
C43_6 C 0.50622(14) 0.39935(6) 0.8280(2)
H29_6 H 0.4742 0.4000 0.8253
C44_6 C 0.53193(16) 0.38425(6) 0.7906(3)
H30_6 H 0.5166 0.3744 0.7637
C45_6 C 0.59794(15) 0.39756(7) 0.8299(3)
H31_6 H 0.6301 0.3978 0.8287
C46_6 C 0.57741(16) 0.41280(8) 0.8727(3)
H32_6 H 0.5947 0.4215 0.9004
C47_6 C 0.69528(15) 0.38927(6) 0.6808(2)
H33_6 H 0.7133 0.3788 0.7022
C48_6 C 0.71707(14) 0.40541(7) 0.6471(2)
H34_6 H 0.7492 0.4056 0.6460
C49_6 C 0.69392(15) 0.42068(6) 0.6161(2)
C50_6 C 0.64672(16) 0.41936(7) 0.6203(3)
H35_6 H 0.6288 0.4303 0.6002
C51_6 C 0.62662(14) 0.40364(7) 0.6510(3)
H36_6 H 0.5945 0.4029 0.6504
C52_6 C 0.78588(15) 0.45484(7) 0.6091(2)
C53_6 C 0.83289(17) 0.45643(6) 0.5970(2)
H37_6 H 0.8477 0.4473 0.5678
C54_6 C 0.85593(14) 0.47276(6) 0.6317(2)
H38_6 H 0.8874 0.4742 0.6243
C55_6 C 0.79495(15) 0.48267(7) 0.6815(2)
H39_6 H 0.7816 0.4917 0.7121
C56_6 C 0.76613(17) 0.46830(7) 0.6535(2)
H40_6 H 0.7349 0.4675 0.6635
C57_6 C 0.6959(2) 0.58989(8) 0.9233(3)
C58_6 C 0.72849(18) 0.57623(7) 0.8849(3)
C59_6 C 0.7448(2) 0.55536(7) 0.9052(3)
H41_6 H 0.7376 0.5505 0.9452
C60_6 C 0.77065(18) 0.54201(7) 0.8691(2)
H42_6 H 0.7791 0.5276 0.8833
C61_6 C 0.78494(13) 0.54883(6) 0.81216(18)
C62_6 C 0.76814(19) 0.56993(7) 0.7913(2)
H43_6 H 0.7759 0.5753 0.7520
C63_6 C 0.73916(19) 0.58296(7) 0.8307(3)
H44_6 H 0.7276 0.5968 0.8165
C64_6 C 0.81701(15) 0.53389(8) 0.7719(2)
C69_6 C 0.97429(14) 0.54519(6) 0.6264(2)
C70_6 C 0.96984(17) 0.56718(7) 0.6476(3)
H47_6 H 0.9483 0.5707 0.6782
C71_6 C 0.99871(14) 0.58452(6) 0.6222(2)
H48_6 H 0.9951 0.5997 0.6339
C72_6 C 0.94125(16) 0.52768(6) 0.6548(3)
N3_6 N 0.98213(12) 0.43410(6) 0.8777(2)
H50_6 H 0.9662 0.4252 0.9011
N4_6 N 0.91364(12) 0.48341(5) 0.77265(18)
N10_6 N 0.45882(12) 0.43082(5) 0.90433(17)
H53_6 H 0.4406 0.4223 0.9256
N11_6 N 0.50808(13) 0.42766(5) 0.9085(2)
H54_6 H 0.5232 0.4350 0.9364
N12_6 N 0.57912(11) 0.38392(5) 0.79353(18)
N13_6 N 0.65086(11) 0.38749(5) 0.68532(16)
N14_6 N 0.71294(16) 0.43636(8) 0.5840(3)
H55_6 H 0.6946 0.4460 0.5668
N15_6 N 0.76102(15) 0.43979(7) 0.5734(2)
H56_6 H 0.7747 0.4324 0.5443
N16_6 N 0.83885(11) 0.48602(5) 0.67283(17)
O4_6 O 0.95844(10) 0.25120(4) 0.55421(15)
O9_5 O 0.67575(13) 0.60611(6) 0.9066(2)
O10_6 O 0.69335(13) 0.58539(5) 0.9830(2)
O11_6 O 0.84050(10) 0.51910(5) 0.79766(16)
O12_6 O 0.81547(12) 0.53727(6) 0.71305(18)
O15_6 O 0.92024(12) 0.53112(5) 0.70200(19)
O16_6 O 0.93616(14) 0.50962(5) 0.6233(2)
C1_7 C 0.35696(14) 0.72209(6) 0.0697(2)
H1_7 H 0.3876 0.7252 0.0794
C2_7 C 0.33300(14) 0.70569(7) 0.1042(2)
H2_7 H 0.3480 0.6980 0.1361
C3_7 C 0.28780(15) 0.70089(6) 0.0916(3)
C4_7 C 0.26652(15) 0.71213(7) 0.0416(3)
H3_7 H 0.2359 0.7092 0.0312
C5_7 C 0.29169(14) 0.72734(7) 0.0092(2)
C6_7 C 0.19861(12) 0.63552(5) 0.01770(19)
C7_7 C 0.22253(13) 0.65123(5) 0.05150(19)
H6_7 H 0.2546 0.6517 0.0504
C8_7 C 0.19867(16) 0.66604(6) 0.0864(3)
C9_7 C 0.15049(16) 0.66450(7) 0.0880(2)
H7_7 H 0.1332 0.6750 0.1106
C10_7 C 0.12785(14) 0.64627(8) 0.0537(3)
H8_7 H 0.0961 0.6442 0.0568
C22_7 C 0.0071(2) 0.55236(8) 0.0525(3)
H14_7 H 0.0158 0.5475 0.0130
C23_7 C 0.02271(17) 0.57212(7) 0.0729(3)
C24_7 C 0.01330(19) 0.57596(7) 0.1346(2)
H15_7 H 0.0257 0.5890 0.1525
C26_7 C 0.05314(18) 0.58616(8) 0.0404(3)
C37_7 C 0.87484(12) 0.71741(6) 0.0814(2)
H25_7 H 0.9065 0.7199 0.0832
C38_7 C 0.85585(15) 0.70179(6) 0.1188(2)
H26_7 H 0.8746 0.6939 0.1465
C39_7 C 0.80882(14) 0.69713(5) 0.1173(2)
C40_7 C 0.78296(15) 0.71009(6) 0.0780(2)
H27_7 H 0.7511 0.7081 0.0765
C41_7 C 0.80323(14) 0.72579(6) 0.0410(2)
H28_7 H 0.7844 0.7342 0.0147
C42_7 C 0.71901(15) 0.66374(6) 0.1204(2)
C43_7 C 0.74378(14) 0.64935(6) 0.0780(2)
H29_7 H 0.7758 0.6500 0.0753
C44_7 C 0.71807(16) 0.63425(6) 0.0406(3)
H30_7 H 0.7334 0.6244 0.0137
C45_7 C 0.65206(15) 0.64756(7) 0.0799(3)
H31_7 H 0.6199 0.6478 0.0787
C46_7 C 0.67259(16) 0.66280(8) 0.1227(3)
H32_7 H 0.6553 0.6715 0.1504
C57_7 C 0.5541(2) 0.83989(8) 0.1733(3)
C58_7 C 0.52151(18) 0.82623(7) 0.1349(3)
C59_7 C 0.5052(2) 0.80536(7) 0.1552(3)
H41_7 H 0.5124 0.8005 0.1952
C60_7 C 0.47935(18) 0.79201(7) 0.1191(2)
H42_7 H 0.4709 0.7776 0.1333
C61_7 C 0.46506(13) 0.79883(6) 0.06216(18)
C62_7 C 0.48186(19) 0.81993(7) 0.0413(2)
H43_7 H 0.4741 0.8253 0.0020
C63_7 C 0.51084(19) 0.83296(7) 0.0807(3)
H44_7 H 0.5224 0.8468 0.0665
C64_7 C 0.43299(15) 0.78389(8) 0.0219(2)
N1_7 N 0.15241(11) 0.63287(5) 0.01876(19)
N2_7 N 0.21862(14) 0.68273(6) 0.1233(2)
H49_7 H 0.2015 0.6922 0.1434
N3_7 N 0.26787(12) 0.68410(6) 0.1277(2)
H50_7 H 0.2838 0.6752 0.1511
N4_7 N 0.33636(12) 0.73341(5) 0.02265(18)
N9_4 N 0.84829(10) 0.72996(5) 0.03996(17)
N10_7 N 0.79118(12) 0.68082(5) 0.15433(17)
H53_7 H 0.8094 0.6723 0.1756
N11_7 N 0.74192(13) 0.67766(5) 0.1585(2)
H54_7 H 0.7268 0.6850 0.1864
N12_7 N 0.67088(11) 0.63392(5) 0.04353(18)
O8_7 O 0.07300(13) 0.60179(6) 0.0580(2)
O9_6 O 0.57425(13) 0.85611(6) 0.1566(2)
O10_7 O 0.55665(13) 0.83539(5) 0.2330(2)
O11_7 O 0.40950(10) 0.76910(5) 0.04766(16)
Zn1_7 Zn 0.372750(15) 0.757425(7) 0.97408(3)
Zn2_7 Zn 0.116331(14) 0.609214(6) 0.97080(2)
H4_7 H 0.2777 0.7342 0.9752
H5_7 H 0.2155 0.6259 0.9919
C11_7 C 0.18669(14) 0.59150(5) 0.89643(19)
C12_7 C 0.21770(12) 0.57371(5) 0.87213(18)
C13_7 C 0.25109(18) 0.57871(6) 0.8291(2)
H9_7 H 0.2547 0.5938 0.8170
C14_7 C 0.28034(14) 0.56223(6) 0.8020(2)
H10_7 H 0.3036 0.5665 0.7744
C15_7 C 0.27339(13) 0.53942(6) 0.81769(19)
C16_7 C 0.23867(13) 0.53441(6) 0.85959(19)
H11_7 H 0.2327 0.5193 0.8699
C17_7 C 0.21264(13) 0.55167(5) 0.88639(19)
H12_7 H 0.1905 0.5477 0.9158
C18_7 C 0.30016(13) 0.52133(5) 0.79085(19)
H19_7 H 0.0014 0.7013 0.8918
C32_7 C 0.02981(14) 0.66098(6) 0.83598(19)
C33_7 C 0.00789(13) 0.64718(5) 0.87963(19)
C34_7 C 0.03231(13) 0.63242(6) 0.9155(2)
H22_7 H 0.0156 0.6235 0.9434
C35_7 C 0.10158(15) 0.64371(6) 0.8716(2)
H23_7 H 0.1336 0.6429 0.8681
C36_7 C 0.07836(14) 0.65876(6) 0.8352(2)
H24_7 H 0.0952 0.6680 0.8085
C47_7 C 0.55472(15) 0.63927(6) 0.9308(2)
H33_7 H 0.5367 0.6288 0.9522
C48_7 C 0.53293(14) 0.65541(7) 0.8971(2)
H34_7 H 0.5008 0.6556 0.8960
C49_7 C 0.55608(15) 0.67068(6) 0.8661(2)
C50_7 C 0.60328(16) 0.66936(7) 0.8703(3)
H35_7 H 0.6212 0.6803 0.8502
C51_7 C 0.62338(14) 0.65364(7) 0.9010(3)
H36_7 H 0.6555 0.6529 0.9004
C52_7 C 0.46412(15) 0.70484(7) 0.8591(2)
C53_7 C 0.41711(17) 0.70643(6) 0.8470(2)
H37_7 H 0.4023 0.6973 0.8178
C54_7 C 0.39407(14) 0.72276(6) 0.8817(2)
H38_7 H 0.3626 0.7242 0.8743
C55_7 C 0.45505(15) 0.73267(7) 0.9315(2)
H39_7 H 0.4684 0.7417 0.9621
C56_7 C 0.48387(17) 0.71830(7) 0.9035(2)
H40_7 H 0.5151 0.7175 0.9135
C65_7 C 0.18684(14) 0.84722(6) 0.8047(2)
C66_7 C 0.21774(14) 0.82833(6) 0.82961(19)
C67_7 C 0.21259(14) 0.80602(5) 0.8115(2)
H45_7 H 0.1892 0.8020 0.7840
C68_7 C 0.24138(14) 0.79001(6) 0.8335(2)
H46_7 H 0.2383 0.7751 0.8197
C69_7 C 0.27571(14) 0.79519(6) 0.8764(2)
C70_7 C 0.28016(17) 0.81718(7) 0.8976(3)
H47_7 H 0.3017 0.8207 0.9282
C71_7 C 0.25129(14) 0.83452(6) 0.8722(2)
H48_7 H 0.2549 0.8497 0.8839
C72_7 C 0.30875(16) 0.77768(6) 0.9048(3)
N7_7 N 0.00938(13) 0.67603(5) 0.7980(2)
H52_7 H 0.0254 0.6838 0.7718
N8_7 N 0.07941(11) 0.62937(5) 0.91440(17)
N13_7 N 0.59914(11) 0.63749(5) 0.93532(16)
N14_7 N 0.53706(16) 0.68636(8) 0.8340(3)
H55_7 H 0.5554 0.6960 0.8168
N15_7 N 0.48898(15) 0.68979(7) 0.8234(2)
H56_7 H 0.4753 0.6824 0.7943
N16_7 N 0.41115(11) 0.73602(5) 0.92283(17)
O1_7 O 0.18718(12) 0.61089(4) 0.87466(16)
O2_7 O 0.16152(9) 0.58605(4) 0.94313(13)
O4_7 O 0.29156(10) 0.50120(4) 0.80421(15)
O7_7 O 0.06301(13) 0.58351(6) 0.98753(19)
O12_7 O 0.43453(12) 0.78727(6) 0.96305(18)
O14_7 O 0.18669(12) 0.86609(4) 0.82565(16)
O15_7 O 0.32976(12) 0.78112(5) 0.95200(19)
O16_7 O 0.31384(14) 0.75962(5) 0.8733(2)
C19_7 C 0.94120(18) 0.52791(8) 0.1893(3)
C20_7 C 0.96963(16) 0.54410(7) 0.1479(3)
C21_7 C 0.9784(2) 0.53858(8) 0.0870(3)
H13_7 H 0.9651 0.5257 0.0693
C25_7 C 0.98778(19) 0.56244(7) 0.1710(3)
H16_7 H 0.9831 0.5662 0.2125
O5_7 O 0.93839(13) 0.53278(6) 0.2480(2)
O17_6 O 0.91860(10) 0.77717(4) 0.00200(14)
C27_7 C 0.88158(14) 0.71716(7) 0.8757(2)
H17_7 H 0.8504 0.7208 0.8728
C28_7 C 0.89816(14) 0.70132(5) 0.8357(2)
H18_7 H 0.8793 0.6950 0.8052
C29_7 C 0.94387(14) 0.69474(5) 0.84153(19)
C30_7 C 0.97056(13) 0.70524(5) 0.88676(19)
C31_7 C 0.95125(13) 0.72122(6) 0.9232(2)
H20_7 H 0.9696 0.7281 0.9531
H21_7 H 0.9760 0.6481 0.8843
N5_7 N 0.90631(11) 0.72784(5) 0.91867(17)
N6_7 N 0.96267(15) 0.67885(5) 0.8017(2)
H51_7 H 0.9448 0.6706 0.7790
C65_8 C 0.06316(14) 0.09722(6) 0.0547(2)
C66_8 C 0.03226(14) 0.07833(6) 0.07961(19)
C67_8 C 0.03741(14) 0.05602(5) 0.0615(2)
H45_8 H 0.0608 0.0520 0.0340
C68_8 C 0.00862(14) 0.04001(6) 0.0835(2)
H46_8 H 0.0117 0.0251 0.0697
O14_8 O 0.06331(12) 0.11609(4) 0.07565(16)
Zn2_8 Zn 0.133669(14) 0.859214(6) 0.22080(2)
H3_8 H 0.0141 0.9592 0.2812
C6_8 C 0.05139(12) 0.88552(5) 0.26770(19)
H5_8 H 0.0345 0.8759 0.2419
C7_8 C 0.02747(13) 0.90123(5) 0.30150(19)
C8_8 C 0.05133(16) 0.91604(6) 0.3364(3)
C9_8 C 0.09951(16) 0.91450(7) 0.3380(2)
H7_8 H 0.1168 0.9250 0.3606
C10_8 C 0.12215(14) 0.89627(8) 0.3037(3)
H8_8 H 0.1539 0.8942 0.3068
C11_8 C 0.06331(14) 0.84150(5) 0.14643(19)
C12_8 C 0.03230(12) 0.82371(5) 0.12213(18)
C16_8 C 0.01133(13) 0.78441(6) 0.10959(19)
H11_8 H 0.0173 0.7693 0.1199
C17_8 C 0.03736(13) 0.80167(5) 0.13639(19)
H12_8 H 0.0595 0.7977 0.1658
C19_8 C 0.30880(18) 0.77791(8) 0.4393(3)
C20_8 C 0.28037(16) 0.79410(7) 0.3979(3)
C21_8 C 0.2716(2) 0.78858(8) 0.3370(3)
H13_8 H 0.2849 0.7757 0.3193
C22_8 C 0.2429(2) 0.80236(8) 0.3025(3)
H14_8 H 0.2342 0.7975 0.2630
C23_8 C 0.22729(17) 0.82212(7) 0.3229(3)
C24_8 C 0.23670(19) 0.82596(7) 0.3846(2)
H15_8 H 0.2243 0.8390 0.4025
C25_8 C 0.26222(19) 0.81244(7) 0.4210(3)
H16_8 H 0.2669 0.8162 0.4625
C26_8 C 0.19686(18) 0.83616(8) 0.2904(3)
C27_8 C 0.36842(14) 0.96716(7) 0.1257(2)
H17_8 H 0.3996 0.9708 0.1228
C28_8 C 0.35184(14) 0.95132(5) 0.0857(2)
H18_8 H 0.3707 0.9450 0.0552
C29_8 C 0.30613(14) 0.94474(5) 0.09153(19)
C30_8 C 0.27944(13) 0.95524(5) 0.13676(19)
H19_8 H 0.2486 0.9513 0.1418
C31_8 C 0.29875(13) 0.97122(6) 0.1732(2)
H20_8 H 0.2804 0.9781 0.2031
C32_8 C 0.22019(14) 0.91098(6) 0.08598(19)
C33_8 C 0.24211(13) 0.89718(5) 0.12963(19)
H21_8 H 0.2740 0.8981 0.1343
C34_8 C 0.21769(13) 0.88242(6) 0.1655(2)
H22_8 H 0.2344 0.8735 0.1934
C35_8 C 0.14842(15) 0.89371(6) 0.1216(2)
H23_8 H 0.1164 0.8929 0.1181
C36_8 C 0.17164(14) 0.90876(6) 0.0852(2)
H24_8 H 0.1548 0.9180 0.0585
N1_8 N 0.09759(11) 0.88287(5) 0.26876(19)
N2_8 N 0.03138(14) 0.93273(6) 0.3733(2)
H49_8 H 0.0485 0.9422 0.3934
N5_8 N 0.34369(11) 0.97784(5) 0.16867(17)
N6_8 N 0.28733(15) 0.92885(5) 0.0517(2)
H51_8 H 0.3052 0.9206 0.0290
N7_8 N 0.24062(13) 0.92603(5) 0.0480(2)
H52_8 H 0.2246 0.9338 0.0218
N8_8 N 0.17059(11) 0.87937(5) 0.16440(17)
O1_8 O 0.06282(12) 0.86089(4) 0.12466(16)
O2_8 O 0.08848(9) 0.83605(4) 0.19313(13)
O5_8 O 0.31161(13) 0.78278(6) 0.4980(2)
O7_8 O 0.18699(13) 0.83351(6) 0.23753(19)
O8_8 O 0.17700(13) 0.85179(6) 0.3080(2)
N17_4 N 0.40171(10) 0.97996(5) 0.28996(17)
Zn1_8 Zn 0.877250(15) 0.007425(7) 0.22408(3)
C57_8 C 0.6959(2) 0.08989(8) 0.4233(3)
C58_8 C 0.72849(18) 0.07623(7) 0.3849(3)
C59_8 C 0.7448(2) 0.05536(7) 0.4052(3)
H41_8 H 0.7376 0.0505 0.4452
C60_8 C 0.77065(18) 0.04201(7) 0.3691(2)
H42_8 H 0.7791 0.0276 0.3833
C61_8 C 0.78494(13) 0.04883(6) 0.31216(18)
C62_8 C 0.76814(19) 0.06993(7) 0.2913(2)
H43_8 H 0.7759 0.0753 0.2520
C63_8 C 0.73916(19) 0.08296(7) 0.3307(3)
H44_8 H 0.7276 0.0968 0.3165
C64_8 C 0.81701(15) 0.03389(8) 0.2719(2)
C69_8 C 0.97429(14) 0.04519(6) 0.1264(2)
C70_8 C 0.96984(17) 0.06718(7) 0.1476(3)
H47_8 H 0.9483 0.0707 0.1782
C71_8 C 0.99871(14) 0.08452(6) 0.1222(2)
H48_8 H 0.9951 0.0997 0.1339
C72_8 C 0.94125(16) 0.02768(6) 0.1548(3)
O10_8 O 0.69335(13) 0.08539(5) 0.4830(2)
O11_8 O 0.84050(10) 0.01910(5) 0.29766(16)
O12_8 O 0.81547(12) 0.03727(6) 0.21305(18)
O15_8 O 0.92024(12) 0.03112(5) 0.20200(19)
O16_8 O 0.93616(14) 0.00962(5) 0.1233(2)
C1_8 C 0.89304(14) 0.97209(6) 0.3197(2)
H1_8 H 0.8624 0.9752 0.3294
C2_8 C 0.91700(14) 0.95569(7) 0.3542(2)
H2_8 H 0.9020 0.9480 0.3861
C3_8 C 0.96220(15) 0.95089(6) 0.3416(3)
C4_8 C 0.98348(15) 0.96213(7) 0.2916(3)
C5_8 C 0.95831(14) 0.97734(7) 0.2592(2)
H4_8 H 0.9723 0.9842 0.2252
H6_8 H 0.9954 0.9017 0.3004
C13_8 C 0.99891(18) 0.82871(6) 0.0791(2)
H9_8 H 0.9953 0.8438 0.0670
C14_8 C 0.96966(14) 0.81223(6) 0.0520(2)
H10_8 H 0.9464 0.8165 0.0244
C15_8 C 0.97661(13) 0.78942(6) 0.06769(19)
C18_8 C 0.94984(13) 0.77133(5) 0.04085(19)
C37_8 C 0.37516(12) 0.96741(6) 0.3314(2)
H25_8 H 0.3435 0.9699 0.3332
C38_8 C 0.39415(15) 0.95179(6) 0.3688(2)
H26_8 H 0.3754 0.9439 0.3965
C39_8 C 0.44118(14) 0.94713(5) 0.3673(2)
C40_8 C 0.46704(15) 0.96009(6) 0.3280(2)
H27_8 H 0.4989 0.9581 0.3265
C41_8 C 0.44677(14) 0.97579(6) 0.2910(2)
H28_8 H 0.4656 0.9842 0.2647
C42_8 C 0.53099(15) 0.91374(6) 0.3704(2)
C43_8 C 0.50622(14) 0.89935(6) 0.3280(2)
H29_8 H 0.4742 0.9000 0.3253
C44_8 C 0.53193(16) 0.88425(6) 0.2906(3)
H30_8 H 0.5166 0.8744 0.2637
C45_8 C 0.59794(15) 0.89756(7) 0.3299(3)
H31_8 H 0.6301 0.8978 0.3287
C46_8 C 0.57741(16) 0.91280(8) 0.3727(3)
H32_8 H 0.5947 0.9215 0.4004
C47_8 C 0.69528(15) 0.88927(6) 0.1808(2)
H33_8 H 0.7133 0.8788 0.2022
C48_8 C 0.71707(14) 0.90541(7) 0.1471(2)
H34_8 H 0.7492 0.9056 0.1460
C49_8 C 0.69392(15) 0.92068(6) 0.1161(2)
C50_8 C 0.64672(16) 0.91936(7) 0.1203(3)
H35_8 H 0.6288 0.9303 0.1002
C51_8 C 0.62662(14) 0.90364(7) 0.1510(3)
H36_8 H 0.5945 0.9029 0.1504
C52_8 C 0.78588(15) 0.95484(7) 0.1091(2)
C53_8 C 0.83289(17) 0.95643(6) 0.0970(2)
H37_8 H 0.8477 0.9473 0.0678
C54_8 C 0.85593(14) 0.97276(6) 0.1317(2)
H38_8 H 0.8874 0.9742 0.1243
C55_8 C 0.79495(15) 0.98267(7) 0.1815(2)
H39_8 H 0.7816 0.9917 0.2121
C56_8 C 0.76613(17) 0.96830(7) 0.1535(2)
H40_8 H 0.7349 0.9675 0.1635
N3_8 N 0.98213(12) 0.93410(6) 0.3777(2)
H50_8 H 0.9662 0.9252 0.4011
N4_8 N 0.91364(12) 0.98341(5) 0.27265(18)
N10_8 N 0.45882(12) 0.93082(5) 0.40433(17)
H53_8 H 0.4406 0.9223 0.4256
N11_8 N 0.50808(13) 0.92766(5) 0.4085(2)
H54_8 H 0.5232 0.9350 0.4364
N12_8 N 0.57912(11) 0.88392(5) 0.29353(18)
N13_8 N 0.65086(11) 0.88749(5) 0.18532(16)
N14_8 N 0.71294(16) 0.93636(8) 0.0840(3)
H55_8 H 0.6946 0.9460 0.0668
N15_8 N 0.76102(15) 0.93979(7) 0.0734(2)
H56_8 H 0.7747 0.9324 0.0443
N16_8 N 0.83885(11) 0.98602(5) 0.17283(17)
O4_8 O 0.95844(10) 0.75120(4) 0.05421(15)
C1_9 C 0.14304(14) 0.77791(6) 0.0697(2)
H1_9 H 0.1124 0.7748 0.0794
C2_9 C 0.16700(14) 0.79431(7) 0.1042(2)
H2_9 H 0.1520 0.8020 0.1361
C3_9 C 0.21220(15) 0.79911(6) 0.0916(3)
C4_9 C 0.23348(15) 0.78787(7) 0.0416(3)
H3_9 H 0.2641 0.7908 0.0312
C5_9 C 0.20831(14) 0.77266(7) 0.0092(2)
C6_9 C 0.30139(12) 0.86448(5) 0.01770(19)
C7_9 C 0.27747(13) 0.84877(5) 0.05150(19)
H6_9 H 0.2454 0.8483 0.0504
C8_9 C 0.30133(16) 0.83396(6) 0.0864(3)
C9_9 C 0.34951(16) 0.83550(7) 0.0880(2)
H7_9 H 0.3668 0.8250 0.1106
C10_9 C 0.37215(14) 0.85373(8) 0.0537(3)
H8_9 H 0.4039 0.8558 0.0568
C19_9 C 0.55880(18) 0.97209(8) 0.1893(3)
C20_9 C 0.53037(16) 0.95590(7) 0.1479(3)
C21_9 C 0.5216(2) 0.96142(8) 0.0870(3)
H13_9 H 0.5349 0.9743 0.0693
C22_9 C 0.4929(2) 0.94764(8) 0.0525(3)
H14_9 H 0.4842 0.9525 0.0130
C23_9 C 0.47729(17) 0.92788(7) 0.0729(3)
C24_9 C 0.48670(19) 0.92404(7) 0.1346(2)
H15_9 H 0.4743 0.9110 0.1525
C25_9 C 0.51222(19) 0.93756(7) 0.1710(3)
H16_9 H 0.5169 0.9338 0.2125
C26_9 C 0.44686(18) 0.91384(8) 0.0404(3)
C60_9 C 0.02065(18) 0.70799(7) 0.1191(2)
H42_9 H 0.0291 0.7224 0.1333
C61_9 C 0.03494(13) 0.70117(6) 0.06216(18)
C62_9 C 0.01814(19) 0.68007(7) 0.0413(2)
H43_9 H 0.0259 0.6747 0.0020
C64_9 C 0.06701(15) 0.71611(8) 0.0219(2)
N1_9 N 0.34759(11) 0.86713(5) 0.01876(19)
N2_9 N 0.28138(14) 0.81727(6) 0.1233(2)
H49_9 H 0.2985 0.8078 0.1434
N3_9 N 0.23213(12) 0.81590(6) 0.1277(2)
H50_9 H 0.2162 0.8248 0.1511
N4_9 N 0.16364(12) 0.76659(5) 0.02265(18)
O5_9 O 0.56161(13) 0.96722(6) 0.2480(2)
O6_5 O 0.58383(11) 0.98457(5) 0.1661(2)
O8_9 O 0.42700(13) 0.89821(6) 0.0580(2)
O11_9 O 0.09050(10) 0.73090(5) 0.04766(16)
Zn7_5 Zn 0.627740(14) 0.998180(6) 0.22810(3)
N17_5 N 0.65171(10) 0.77004(5) 0.03996(17)
O17_7 O 0.58140(10) 0.72283(4) 0.00200(14)
Zn1_9 Zn 0.127250(15) 0.742575(7) 0.97408(3)
Zn2_9 Zn 0.383669(14) 0.890786(6) 0.97080(2)
Zn3_2 Zn 0.622260(14) 0.748180(6) 0.97810(3)
H4_9 H 0.2223 0.7658 0.9752
H5_9 H 0.2845 0.8741 0.9919
C11_9 C 0.31331(14) 0.90850(5) 0.89643(19)
C12_9 C 0.28230(12) 0.92629(5) 0.87213(18)
C13_9 C 0.24891(18) 0.92129(6) 0.8291(2)
H9_9 H 0.2453 0.9062 0.8170
C14_9 C 0.21966(14) 0.93777(6) 0.8020(2)
H10_9 H 0.1964 0.9335 0.7744
C15_9 C 0.22661(13) 0.96058(6) 0.81769(19)
C16_9 C 0.26133(13) 0.96559(6) 0.85959(19)
H11_9 H 0.2673 0.9807 0.8699
C17_9 C 0.28736(13) 0.94833(5) 0.88639(19)
H12_9 H 0.3095 0.9523 0.9158
C18_9 C 0.19984(13) 0.97867(5) 0.79085(19)
C27_9 C 0.61842(14) 0.78284(7) 0.8757(2)
H17_9 H 0.6496 0.7792 0.8728
C28_9 C 0.60184(14) 0.79868(5) 0.8357(2)
H18_9 H 0.6207 0.8050 0.8052
C29_9 C 0.55613(14) 0.80526(5) 0.84153(19)
C30_9 C 0.52944(13) 0.79476(5) 0.88676(19)
H19_9 H 0.4986 0.7987 0.8918
C31_9 C 0.54875(13) 0.77878(6) 0.9232(2)
H20_9 H 0.5304 0.7719 0.9531
C32_9 C 0.47019(14) 0.83902(6) 0.83598(19)
C33_9 C 0.49211(13) 0.85282(5) 0.87963(19)
H21_9 H 0.5240 0.8519 0.8843
C34_9 C 0.46769(13) 0.86758(6) 0.9155(2)
H22_9 H 0.4844 0.8765 0.9434
C35_9 C 0.39842(15) 0.85629(6) 0.8716(2)
H23_9 H 0.3664 0.8571 0.8681
C36_9 C 0.42164(14) 0.84124(6) 0.8352(2)
H24_9 H 0.4048 0.8320 0.8085
C52_9 C 0.03588(15) 0.79516(7) 0.8591(2)
C53_9 C 0.08289(17) 0.79357(6) 0.8470(2)
H37_9 H 0.0977 0.8027 0.8178
C54_9 C 0.10593(14) 0.77724(6) 0.8817(2)
H38_9 H 0.1374 0.7758 0.8743
C55_9 C 0.04495(15) 0.76733(7) 0.9315(2)
H39_9 H 0.0316 0.7583 0.9621
C56_9 C 0.01613(17) 0.78170(7) 0.9035(2)
C65_9 C 0.31316(14) 0.65278(6) 0.8047(2)
C66_9 C 0.28226(14) 0.67167(6) 0.82961(19)
C67_9 C 0.28741(14) 0.69398(5) 0.8115(2)
H45_9 H 0.3108 0.6980 0.7840
C68_9 C 0.25862(14) 0.70999(6) 0.8335(2)
H46_9 H 0.2617 0.7249 0.8197
C69_9 C 0.22429(14) 0.70481(6) 0.8764(2)
C70_9 C 0.21984(17) 0.68282(7) 0.8976(3)
H47_9 H 0.1983 0.6793 0.9282
C71_9 C 0.24871(14) 0.66548(6) 0.8722(2)
H48_9 H 0.2451 0.6503 0.8839
C72_9 C 0.19125(16) 0.72232(6) 0.9048(3)
N5_9 N 0.59369(11) 0.77216(5) 0.91867(17)
N6_9 N 0.53733(15) 0.82115(5) 0.8017(2)
H51_9 H 0.5552 0.8294 0.7790
N7_9 N 0.49062(13) 0.82397(5) 0.7980(2)
H52_9 H 0.4746 0.8162 0.7718
N8_9 N 0.42059(11) 0.87063(5) 0.91440(17)
N15_9 N 0.01102(15) 0.81021(7) 0.8234(2)
H56_9 H 0.0247 0.8176 0.7943
N16_9 N 0.08885(11) 0.76398(5) 0.92283(17)
O1_9 O 0.31282(12) 0.88911(4) 0.87466(16)
O2_9 O 0.33848(9) 0.91395(4) 0.94313(13)
O3_3 O 0.16860(10) 0.97283(4) 0.75200(14)
O4_9 O 0.20844(10) 0.99880(4) 0.80421(15)
O7_9 O 0.43699(13) 0.91649(6) 0.98753(19)
O12_9 O 0.06547(12) 0.71273(6) 0.96305(18)
O13_5 O 0.33982(9) 0.65920(4) 0.75681(14)
O14_9 O 0.31331(12) 0.63391(4) 0.82565(16)
O15_9 O 0.17024(12) 0.71888(5) 0.95200(19)
O16_9 O 0.18616(14) 0.74038(5) 0.8733(2)
Zn6_2 Zn 0.127740(14) 0.998180(6) 0.72810(3)
Zn9_5 Zn 0.385150(15) 0.635990(6) 0.73392(3)
O18_5 O 0.66617(11) 0.73457(5) 0.9161(2)
C37_9 C 0.62516(12) 0.78259(6) 0.0814(2)
H25_9 H 0.5935 0.7801 0.0832
C38_9 C 0.64415(15) 0.79821(6) 0.1188(2)
H26_9 H 0.6254 0.8061 0.1465
C39_9 C 0.69118(14) 0.80287(5) 0.1173(2)
C40_9 C 0.71704(15) 0.78991(6) 0.0780(2)
H27_9 H 0.7489 0.7919 0.0765
C41_9 C 0.69677(14) 0.77421(6) 0.0410(2)
H28_9 H 0.7156 0.7658 0.0147
C42_9 C 0.78099(15) 0.83626(6) 0.1204(2)
C43_9 C 0.75622(14) 0.85065(6) 0.0780(2)
H29_9 H 0.7242 0.8500 0.0753
C44_9 C 0.78193(16) 0.86575(6) 0.0406(3)
H30_9 H 0.7666 0.8756 0.0137
C45_9 C 0.84794(15) 0.85244(7) 0.0799(3)
H31_9 H 0.8801 0.8522 0.0787
C46_9 C 0.82741(16) 0.83720(8) 0.1227(3)
H32_9 H 0.8447 0.8285 0.1504
C57_9 C 0.9459(2) 0.66011(8) 0.1733(3)
C58_9 C 0.97849(18) 0.67377(7) 0.1349(3)
C59_9 C 0.9948(2) 0.69464(7) 0.1552(3)
H41_9 H 0.9876 0.6995 0.1952
C63_9 C 0.98916(19) 0.66704(7) 0.0807(3)
H44_9 H 0.9776 0.6532 0.0665
N10_9 N 0.70882(12) 0.81918(5) 0.15433(17)
H53_9 H 0.6906 0.8277 0.1756
N11_9 N 0.75808(13) 0.82234(5) 0.1585(2)
H54_9 H 0.7732 0.8150 0.1864
N12_9 N 0.82912(11) 0.86608(5) 0.04353(18)
O9_7 O 0.92575(13) 0.64389(6) 0.1566(2)
O10_9 O 0.94335(13) 0.66461(5) 0.2330(2)
Zn8_4 Zn 0.885150(15) 0.635990(6) 0.23392(3)
O20_5 O 0.91018(9) 0.90920(4) 0.00681(14)
Zn4_2 Zn 0.864850(15) 0.885990(6) 0.98392(3)
C47_9 C 0.94528(15) 0.86073(6) 0.9308(2)
H33_9 H 0.9633 0.8712 0.9522
C48_9 C 0.96707(14) 0.84459(7) 0.8971(2)
H34_9 H 0.9992 0.8444 0.8960
C49_9 C 0.94392(15) 0.82932(6) 0.8661(2)
C50_9 C 0.89672(16) 0.83064(7) 0.8703(3)
H35_9 H 0.8788 0.8197 0.8502
C51_9 C 0.87662(14) 0.84636(7) 0.9010(3)
H36_9 H 0.8445 0.8471 0.9004
H40_9 H 0.9849 0.7825 0.9135
N13_9 N 0.90086(11) 0.86251(5) 0.93532(16)
N14_9 N 0.96294(16) 0.81364(8) 0.8340(3)
H55_9 H 0.9446 0.8040 0.8168
O19_3 O 0.82425(13) 0.89389(6) 0.9066(2)
Zn4_3 Zn 0.385150(15) 0.135990(6) 0.23392(3)
C1_10 C 0.10696(14) 0.02791(6) 0.3197(2)
H1_10 H 0.1376 0.0248 0.3294
C2_10 C 0.08300(14) 0.04431(7) 0.3542(2)
H2_10 H 0.0980 0.0520 0.3861
C3_10 C 0.03780(15) 0.04911(6) 0.3416(3)
C4_10 C 0.01652(15) 0.03787(7) 0.2916(3)
C5_10 C 0.04169(14) 0.02266(7) 0.2592(2)
H4_10 H 0.0277 0.0158 0.2252
H6_10 H 0.0046 0.0983 0.3004
C13_10 C 0.00109(18) 0.17129(6) 0.0791(2)
H9_10 H 0.0047 0.1562 0.0670
C14_10 C 0.03034(14) 0.18777(6) 0.0520(2)
H10_10 H 0.0536 0.1835 0.0244
C15_10 C 0.02339(13) 0.21058(6) 0.06769(19)
C18_10 C 0.05016(13) 0.22867(5) 0.04085(19)
C37_10 C 0.62484(12) 0.03259(6) 0.3314(2)
H25_10 H 0.6565 0.0301 0.3332
C38_10 C 0.60585(15) 0.04821(6) 0.3688(2)
H26_10 H 0.6246 0.0561 0.3965
C39_10 C 0.55882(14) 0.05287(5) 0.3673(2)
C40_10 C 0.53296(15) 0.03991(6) 0.3280(2)
H27_10 H 0.5011 0.0419 0.3265
C41_10 C 0.55323(14) 0.02421(6) 0.2910(2)
H28_10 H 0.5344 0.0158 0.2647
C42_10 C 0.46901(15) 0.08626(6) 0.3704(2)
C43_10 C 0.49378(14) 0.10065(6) 0.3280(2)
H29_10 H 0.5258 0.1000 0.3253
C44_10 C 0.46807(16) 0.11575(6) 0.2906(3)
H30_10 H 0.4834 0.1256 0.2637
C45_10 C 0.40206(15) 0.10244(7) 0.3299(3)
H31_10 H 0.3699 0.1022 0.3287
C46_10 C 0.42259(16) 0.08720(8) 0.3727(3)
H32_10 H 0.4053 0.0785 0.4004
C47_10 C 0.30472(15) 0.11073(6) 0.1808(2)
H33_10 H 0.2867 0.1212 0.2022
C48_10 C 0.28293(14) 0.09459(7) 0.1471(2)
H34_10 H 0.2508 0.0944 0.1460
C49_10 C 0.30608(15) 0.07932(6) 0.1161(2)
C50_10 C 0.35328(16) 0.08064(7) 0.1203(3)
H35_10 H 0.3712 0.0697 0.1002
C51_10 C 0.37338(14) 0.09636(7) 0.1510(3)
H36_10 H 0.4055 0.0971 0.1504
C52_10 C 0.21412(15) 0.04516(7) 0.1091(2)
C53_10 C 0.16711(17) 0.04357(6) 0.0970(2)
H37_10 H 0.1523 0.0527 0.0678
C54_10 C 0.14407(14) 0.02724(6) 0.1317(2)
H38_10 H 0.1126 0.0258 0.1243
C55_10 C 0.20505(15) 0.01733(7) 0.1815(2)
H39_10 H 0.2184 0.0083 0.2121
C56_10 C 0.23387(17) 0.03170(7) 0.1535(2)
H40_10 H 0.2651 0.0325 0.1635
N3_10 N 0.01787(12) 0.06590(6) 0.3777(2)
H50_10 H 0.0338 0.0748 0.4011
N4_10 N 0.08636(12) 0.01659(5) 0.27265(18)
N9_5 N 0.59829(10) 0.02004(5) 0.28996(17)
N10_10 N 0.54118(12) 0.06918(5) 0.40433(17)
H53_10 H 0.5594 0.0777 0.4256
N11_10 N 0.49192(13) 0.07234(5) 0.4085(2)
H54_10 H 0.4768 0.0650 0.4364
N12_10 N 0.42088(11) 0.11608(5) 0.29353(18)
N13_10 N 0.34914(11) 0.11251(5) 0.18532(16)
N14_10 N 0.28706(16) 0.06364(8) 0.0840(3)
H55_10 H 0.3054 0.0540 0.0668
N15_10 N 0.23898(15) 0.06021(7) 0.0734(2)
H56_10 H 0.2253 0.0676 0.0443
N16_10 N 0.16115(11) 0.01398(5) 0.17283(17)
O3_4 O 0.08140(10) 0.22283(4) 0.00200(14)
O4_10 O 0.04156(10) 0.24880(4) 0.05421(15)
O19_4 O 0.42575(13) 0.14389(6) 0.1566(2)
O20_6 O 0.33982(9) 0.15920(4) 0.25681(14)
Zn6_3 Zn 0.122260(14) 0.248180(6) 0.97810(3)
Zn1_10 Zn 0.122750(15) 0.992575(7) 0.22408(3)
C57_10 C 0.3041(2) 0.91011(8) 0.4233(3)
C58_10 C 0.27151(18) 0.92377(7) 0.3849(3)
C59_10 C 0.2552(2) 0.94464(7) 0.4052(3)
H41_10 H 0.2624 0.9495 0.4452
C60_10 C 0.22935(18) 0.95799(7) 0.3691(2)
H42_10 H 0.2209 0.9724 0.3833
C61_10 C 0.21506(13) 0.95117(6) 0.31216(18)
C62_10 C 0.23186(19) 0.93007(7) 0.2913(2)
H43_10 H 0.2241 0.9247 0.2520
C63_10 C 0.26084(19) 0.91704(7) 0.3307(3)
H44_10 H 0.2724 0.9032 0.3165
C64_10 C 0.18299(15) 0.96611(8) 0.2719(2)
C69_10 C 0.02571(14) 0.95481(6) 0.1264(2)
C70_10 C 0.03016(17) 0.93282(7) 0.1476(3)
H47_10 H 0.0517 0.9293 0.1782
C71_10 C 0.00129(14) 0.91548(6) 0.1222(2)
H48_10 H 0.0049 0.9003 0.1339
C72_10 C 0.05875(16) 0.97232(6) 0.1548(3)
O9_8 O 0.32425(13) 0.89389(6) 0.4066(2)
O10_10 O 0.30665(13) 0.91461(5) 0.4830(2)
O11_10 O 0.15950(10) 0.98090(5) 0.29766(16)
O12_10 O 0.18453(12) 0.96273(6) 0.21305(18)
O15_10 O 0.07976(12) 0.96888(5) 0.20200(19)
O16_10 O 0.06384(14) 0.99038(5) 0.1233(2)
Zn8_5 Zn 0.364850(15) 0.885990(6) 0.48392(3)
Zn2_10 Zn 0.866331(14) 0.140786(6) 0.22080(2)
H3_10 H 0.9859 0.0408 0.2812
C6_10 C 0.94861(12) 0.11448(5) 0.26770(19)
H5_10 H 0.9655 0.1241 0.2419
C7_10 C 0.97253(13) 0.09877(5) 0.30150(19)
C8_10 C 0.94867(16) 0.08396(6) 0.3364(3)
C9_10 C 0.90049(16) 0.08550(7) 0.3380(2)
H7_10 H 0.8832 0.0750 0.3606
C10_10 C 0.87785(14) 0.10373(8) 0.3037(3)
H8_10 H 0.8461 0.1058 0.3068
C11_10 C 0.93669(14) 0.15850(5) 0.14643(19)
C12_10 C 0.96770(12) 0.17629(5) 0.12213(18)
C16_10 C 0.98867(13) 0.21559(6) 0.10959(19)
H11_10 H 0.9827 0.2307 0.1199
C17_10 C 0.96264(13) 0.19833(5) 0.13639(19)
H12_10 H 0.9405 0.2023 0.1658
C19_10 C 0.69120(18) 0.22209(8) 0.4393(3)
C20_10 C 0.71963(16) 0.20590(7) 0.3979(3)
C21_10 C 0.7284(2) 0.21142(8) 0.3370(3)
H13_10 H 0.7151 0.2243 0.3193
C22_10 C 0.7571(2) 0.19764(8) 0.3025(3)
H14_10 H 0.7658 0.2025 0.2630
C23_10 C 0.77271(17) 0.17788(7) 0.3229(3)
C24_10 C 0.76330(19) 0.17404(7) 0.3846(2)
H15_10 H 0.7757 0.1610 0.4025
C25_10 C 0.73778(19) 0.18756(7) 0.4210(3)
H16_10 H 0.7331 0.1838 0.4625
C26_10 C 0.80314(18) 0.16384(8) 0.2904(3)
C27_10 C 0.63158(14) 0.03284(7) 0.1257(2)
H17_10 H 0.6004 0.0292 0.1228
C28_10 C 0.64816(14) 0.04868(5) 0.0857(2)
H18_10 H 0.6293 0.0550 0.0552
C29_10 C 0.69387(14) 0.05526(5) 0.09153(19)
C30_10 C 0.72056(13) 0.04476(5) 0.13676(19)
H19_10 H 0.7514 0.0487 0.1418
C31_10 C 0.70125(13) 0.02878(6) 0.1732(2)
H20_10 H 0.7196 0.0219 0.2031
C32_10 C 0.77981(14) 0.08902(6) 0.08598(19)
C33_10 C 0.75789(13) 0.10282(5) 0.12963(19)
H21_10 H 0.7260 0.1019 0.1343
C34_10 C 0.78231(13) 0.11758(6) 0.1655(2)
H22_10 H 0.7656 0.1265 0.1934
C35_10 C 0.85158(15) 0.10629(6) 0.1216(2)
H23_10 H 0.8836 0.1071 0.1181
C36_10 C 0.82836(14) 0.09124(6) 0.0852(2)
H24_10 H 0.8452 0.0820 0.0585
N1_10 N 0.90241(11) 0.11713(5) 0.26876(19)
N2_10 N 0.96862(14) 0.06727(6) 0.3733(2)
H49_10 H 0.9515 0.0578 0.3934
N5_10 N 0.65631(11) 0.02216(5) 0.16867(17)
N6_10 N 0.71267(15) 0.07115(5) 0.0517(2)
H51_10 H 0.6948 0.0794 0.0290
N7_10 N 0.75938(13) 0.07397(5) 0.0480(2)
H52_10 H 0.7754 0.0662 0.0218
N8_10 N 0.82941(11) 0.12063(5) 0.16440(17)
O1_10 O 0.93718(12) 0.13911(4) 0.12466(16)
O2_10 O 0.91152(9) 0.16395(4) 0.19313(13)
O5_10 O 0.68839(13) 0.21722(6) 0.4980(2)
O6_6 O 0.66617(11) 0.23457(5) 0.4161(2)
O7_10 O 0.81301(13) 0.16649(6) 0.23753(19)
O8_10 O 0.82300(13) 0.14821(6) 0.3080(2)
Zn7_6 Zn 0.622260(14) 0.248180(6) 0.47810(3)
C65_10 C 0.93684(14) 0.90278(6) 0.0547(2)
C66_10 C 0.96774(14) 0.92167(6) 0.07961(19)
C67_10 C 0.96259(14) 0.94398(5) 0.0615(2)
H45_10 H 0.9392 0.9480 0.0340
C68_10 C 0.99138(14) 0.95999(6) 0.0835(2)
H46_10 H 0.9883 0.9749 0.0697
O14_10 O 0.93669(12) 0.88391(4) 0.07565(16)
O17_8 O 0.66860(10) 0.97283(4) 0.25200(14)
Zn1_11 Zn 0.127250(15) 0.242575(7) 0.47408(3)
Zn2_11 Zn 0.383669(14) 0.390786(6) 0.47080(2)
C1_11 C 0.14304(14) 0.27791(6) 0.5697(2)
H1_11 H 0.1124 0.2748 0.5794
C2_11 C 0.16700(14) 0.29431(7) 0.6042(2)
H2_11 H 0.1520 0.3020 0.6361
C3_11 C 0.21220(15) 0.29911(6) 0.5916(3)
C4_11 C 0.23348(15) 0.28787(7) 0.5416(3)
H3_11 H 0.2641 0.2908 0.5312
C5_11 C 0.20831(14) 0.27266(7) 0.5092(2)
H4_11 H 0.2223 0.2658 0.4752
C6_11 C 0.30139(12) 0.36448(5) 0.51770(19)
H5_11 H 0.2845 0.3741 0.4919
C7_11 C 0.27747(13) 0.34877(5) 0.55150(19)
H6_11 H 0.2454 0.3483 0.5504
C8_11 C 0.30133(16) 0.33396(6) 0.5864(3)
C9_11 C 0.34951(16) 0.33550(7) 0.5880(2)
H7_11 H 0.3668 0.3250 0.6106
C10_11 C 0.37215(14) 0.35373(8) 0.5537(3)
H8_11 H 0.4039 0.3558 0.5568
C11_11 C 0.31331(14) 0.40850(5) 0.39643(19)
C12_11 C 0.28230(12) 0.42629(5) 0.37213(18)
C13_11 C 0.24891(18) 0.42129(6) 0.3291(2)
H9_11 H 0.2453 0.4062 0.3170
C14_11 C 0.21966(14) 0.43777(6) 0.3020(2)
H10_11 H 0.1964 0.4335 0.2744
C15_11 C 0.22661(13) 0.46058(6) 0.31769(19)
C16_11 C 0.26133(13) 0.46559(6) 0.35959(19)
H11_11 H 0.2673 0.4807 0.3699
C17_11 C 0.28736(13) 0.44833(5) 0.38639(19)
H12_11 H 0.3095 0.4523 0.4158
C18_11 C 0.19984(13) 0.47867(5) 0.29085(19)
C19_11 C 0.55880(18) 0.47209(8) 0.6893(3)
C20_11 C 0.53037(16) 0.45590(7) 0.6479(3)
C21_11 C 0.5216(2) 0.46142(8) 0.5870(3)
H13_11 H 0.5349 0.4743 0.5693
C22_11 C 0.4929(2) 0.44764(8) 0.5525(3)
H14_11 H 0.4842 0.4525 0.5130
C23_11 C 0.47729(17) 0.42788(7) 0.5729(3)
C24_11 C 0.48670(19) 0.42404(7) 0.6346(2)
H15_11 H 0.4743 0.4110 0.6525
C25_11 C 0.51222(19) 0.43756(7) 0.6710(3)
H16_11 H 0.5169 0.4338 0.7125
C26_11 C 0.44686(18) 0.41384(8) 0.5404(3)
C27_11 C 0.61842(14) 0.28284(7) 0.3757(2)
H17_11 H 0.6496 0.2792 0.3728
C28_11 C 0.60184(14) 0.29868(5) 0.3357(2)
H18_11 H 0.6207 0.3050 0.3052
C29_11 C 0.55613(14) 0.30526(5) 0.34153(19)
C30_11 C 0.52944(13) 0.29476(5) 0.38676(19)
H19_11 H 0.4986 0.2987 0.3918
C31_11 C 0.54875(13) 0.27878(6) 0.4232(2)
H20_11 H 0.5304 0.2719 0.4531
C32_11 C 0.47019(14) 0.33902(6) 0.33598(19)
C33_11 C 0.49211(13) 0.35282(5) 0.37963(19)
H21_11 H 0.5240 0.3519 0.3843
C34_11 C 0.46769(13) 0.36758(6) 0.4155(2)
H22_11 H 0.4844 0.3765 0.4434
C35_11 C 0.39842(15) 0.35629(6) 0.3716(2)
H23_11 H 0.3664 0.3571 0.3681
C36_11 C 0.42164(14) 0.34124(6) 0.3352(2)
H24_11 H 0.4048 0.3320 0.3085
C52_11 C 0.03588(15) 0.29516(7) 0.3591(2)
C53_11 C 0.08289(17) 0.29357(6) 0.3470(2)
H37_11 H 0.0977 0.3027 0.3178
C54_11 C 0.10593(14) 0.27724(6) 0.3817(2)
H38_11 H 0.1374 0.2758 0.3743
C55_11 C 0.04495(15) 0.26733(7) 0.4315(2)
H39_11 H 0.0316 0.2583 0.4621
C56_11 C 0.01613(17) 0.28170(7) 0.4035(2)
C60_11 C 0.02065(18) 0.20799(7) 0.6191(2)
H42_11 H 0.0291 0.2224 0.6333
C61_11 C 0.03494(13) 0.20117(6) 0.56216(18)
C62_11 C 0.01814(19) 0.18007(7) 0.5413(2)
H43_11 H 0.0259 0.1747 0.5020
C64_11 C 0.06701(15) 0.21611(8) 0.5219(2)
C65_11 C 0.31316(14) 0.15278(6) 0.3047(2)
C66_11 C 0.28226(14) 0.17167(6) 0.32961(19)
C67_11 C 0.28741(14) 0.19398(5) 0.3115(2)
H45_11 H 0.3108 0.1980 0.2840
C68_11 C 0.25862(14) 0.20999(6) 0.3335(2)
H46_11 H 0.2617 0.2249 0.3197
C69_11 C 0.22429(14) 0.20481(6) 0.3764(2)
C70_11 C 0.21984(17) 0.18282(7) 0.3976(3)
H47_11 H 0.1983 0.1793 0.4282
C71_11 C 0.24871(14) 0.16548(6) 0.3722(2)
H48_11 H 0.2451 0.1503 0.3839
C72_11 C 0.19125(16) 0.22232(6) 0.4048(3)
N1_11 N 0.34759(11) 0.36713(5) 0.51876(19)
N2_11 N 0.28138(14) 0.31727(6) 0.6233(2)
H49_11 H 0.2985 0.3078 0.6434
N3_11 N 0.23213(12) 0.31590(6) 0.6277(2)
H50_11 H 0.2162 0.3248 0.6511
N4_11 N 0.16364(12) 0.26659(5) 0.52265(18)
N5_11 N 0.59369(11) 0.27216(5) 0.41867(17)
N6_11 N 0.53733(15) 0.32115(5) 0.3017(2)
H51_11 H 0.5552 0.3294 0.2790
N7_11 N 0.49062(13) 0.32397(5) 0.2980(2)
H52_11 H 0.4746 0.3162 0.2718
N8_11 N 0.42059(11) 0.37063(5) 0.41440(17)
N15_11 N 0.01102(15) 0.31021(7) 0.3234(2)
H56_11 H 0.0247 0.3176 0.2943
N16_11 N 0.08885(11) 0.26398(5) 0.42283(17)
O1_11 O 0.31282(12) 0.38911(4) 0.37466(16)
O2_11 O 0.33848(9) 0.41395(4) 0.44313(13)
O3_5 O 0.16860(10) 0.47283(4) 0.25200(14)
O4_11 O 0.20844(10) 0.49880(4) 0.30421(15)
O5_11 O 0.56161(13) 0.46722(6) 0.7480(2)
O6_7 O 0.58383(11) 0.48457(5) 0.6661(2)
O7_11 O 0.43699(13) 0.41649(6) 0.48753(19)
O8_11 O 0.42700(13) 0.39821(6) 0.5580(2)
O11_11 O 0.09050(10) 0.23090(5) 0.54766(16)
O12_11 O 0.06547(12) 0.21273(6) 0.46305(18)
O14_11 O 0.31331(12) 0.13391(4) 0.32565(16)
O15_11 O 0.17024(12) 0.21888(5) 0.45200(19)
O16_11 O 0.18616(14) 0.24038(5) 0.3733(2)
Zn6_4 Zn 0.127740(14) 0.498180(6) 0.22810(3)
Zn7_7 Zn 0.627740(14) 0.498180(6) 0.72810(3)
N17_6 N 0.65171(10) 0.27004(5) 0.53996(17)
O17_9 O 0.58140(10) 0.22283(4) 0.50200(14)
Zn4_4 Zn 0.864850(15) 0.385990(6) 0.48392(3)
C37_11 C 0.62516(12) 0.28259(6) 0.5814(2)
H25_11 H 0.5935 0.2801 0.5832
C38_11 C 0.64415(15) 0.29821(6) 0.6188(2)
H26_11 H 0.6254 0.3061 0.6465
C39_11 C 0.69118(14) 0.30287(5) 0.6173(2)
C40_11 C 0.71704(15) 0.28991(6) 0.5780(2)
H27_11 H 0.7489 0.2919 0.5765
C41_11 C 0.69677(14) 0.27421(6) 0.5410(2)
H28_11 H 0.7156 0.2658 0.5147
C42_11 C 0.78099(15) 0.33626(6) 0.6204(2)
C43_11 C 0.75622(14) 0.35065(6) 0.5780(2)
H29_11 H 0.7242 0.3500 0.5753
C44_11 C 0.78193(16) 0.36575(6) 0.5406(3)
H30_11 H 0.7666 0.3756 0.5137
C45_11 C 0.84794(15) 0.35244(7) 0.5799(3)
H31_11 H 0.8801 0.3522 0.5787
C46_11 C 0.82741(16) 0.33720(8) 0.6227(3)
H32_11 H 0.8447 0.3285 0.6504
C47_11 C 0.94528(15) 0.36073(6) 0.4308(2)
H33_11 H 0.9633 0.3712 0.4522
C48_11 C 0.96707(14) 0.34459(7) 0.3971(2)
H34_11 H 0.9992 0.3444 0.3960
C49_11 C 0.94392(15) 0.32932(6) 0.3661(2)
C50_11 C 0.89672(16) 0.33064(7) 0.3703(3)
H35_11 H 0.8788 0.3197 0.3502
C51_11 C 0.87662(14) 0.34636(7) 0.4010(3)
H36_11 H 0.8445 0.3471 0.4004
H40_11 H 0.9849 0.2825 0.4135
C57_11 C 0.9459(2) 0.16011(8) 0.6733(3)
C58_11 C 0.97849(18) 0.17377(7) 0.6349(3)
C59_11 C 0.9948(2) 0.19464(7) 0.6552(3)
H41_11 H 0.9876 0.1995 0.6952
C63_11 C 0.98916(19) 0.16704(7) 0.5807(3)
H44_11 H 0.9776 0.1532 0.5665
N10_11 N 0.70882(12) 0.31918(5) 0.65433(17)
H53_11 H 0.6906 0.3277 0.6756
N11_11 N 0.75808(13) 0.32234(5) 0.6585(2)
H54_11 H 0.7732 0.3150 0.6864
N12_11 N 0.82912(11) 0.36608(5) 0.54353(18)
N13_11 N 0.90086(11) 0.36251(5) 0.43532(16)
N14_11 N 0.96294(16) 0.31364(8) 0.3340(3)
H55_11 H 0.9446 0.3040 0.3168
O9_9 O 0.92575(13) 0.14389(6) 0.6566(2)
O10_11 O 0.94335(13) 0.16461(5) 0.7330(2)
Zn8_6 Zn 0.885150(15) 0.135990(6) 0.73392(3)
O19_5 O 0.82425(13) 0.39389(6) 0.4066(2)
O20_7 O 0.91018(9) 0.40920(4) 0.50681(14)
Zn1_12 Zn 0.122750(15) 0.492575(7) 0.72408(3)
C1_12 C 0.10696(14) 0.52791(6) 0.8197(2)
H1_12 H 0.1376 0.5248 0.8294
C2_12 C 0.08300(14) 0.54431(7) 0.8542(2)
H2_12 H 0.0980 0.5520 0.8861
C3_12 C 0.03780(15) 0.54911(6) 0.8416(3)
C4_12 C 0.01652(15) 0.53787(7) 0.7916(3)
C5_12 C 0.04169(14) 0.52266(7) 0.7592(2)
H4_12 H 0.0277 0.5158 0.7252
H6_12 H 0.0046 0.5983 0.8004
C13_12 C 0.00109(18) 0.67129(6) 0.5791(2)
H9_12 H 0.0047 0.6562 0.5670
C14_12 C 0.03034(14) 0.68777(6) 0.5520(2)
H10_12 H 0.0536 0.6835 0.5244
C15_12 C 0.02339(13) 0.71058(6) 0.56769(19)
C18_12 C 0.05016(13) 0.72867(5) 0.54085(19)
C37_12 C 0.62484(12) 0.53259(6) 0.8314(2)
H25_12 H 0.6565 0.5301 0.8332
C38_12 C 0.60585(15) 0.54821(6) 0.8688(2)
H26_12 H 0.6246 0.5561 0.8965
C39_12 C 0.55882(14) 0.55287(5) 0.8673(2)
C40_12 C 0.53296(15) 0.53991(6) 0.8280(2)
H27_12 H 0.5011 0.5419 0.8265
C41_12 C 0.55323(14) 0.52421(6) 0.7910(2)
H28_12 H 0.5344 0.5158 0.7647
C42_12 C 0.46901(15) 0.58626(6) 0.8704(2)
C43_12 C 0.49378(14) 0.60065(6) 0.8280(2)
H29_12 H 0.5258 0.6000 0.8253
C44_12 C 0.46807(16) 0.61575(6) 0.7906(3)
H30_12 H 0.4834 0.6256 0.7637
C45_12 C 0.40206(15) 0.60244(7) 0.8299(3)
H31_12 H 0.3699 0.6022 0.8287
C46_12 C 0.42259(16) 0.58720(8) 0.8727(3)
H32_12 H 0.4053 0.5785 0.9004
C47_12 C 0.30472(15) 0.61073(6) 0.6808(2)
H33_12 H 0.2867 0.6212 0.7022
C48_12 C 0.28293(14) 0.59459(7) 0.6471(2)
H34_12 H 0.2508 0.5944 0.6460
C49_12 C 0.30608(15) 0.57932(6) 0.6161(2)
C50_12 C 0.35328(16) 0.58064(7) 0.6203(3)
H35_12 H 0.3712 0.5697 0.6002
C51_12 C 0.37338(14) 0.59636(7) 0.6510(3)
H36_12 H 0.4055 0.5971 0.6504
C52_12 C 0.21412(15) 0.54516(7) 0.6091(2)
C53_12 C 0.16711(17) 0.54357(6) 0.5970(2)
H37_12 H 0.1523 0.5527 0.5678
C54_12 C 0.14407(14) 0.52724(6) 0.6317(2)
H38_12 H 0.1126 0.5258 0.6243
C55_12 C 0.20505(15) 0.51733(7) 0.6815(2)
H39_12 H 0.2184 0.5083 0.7121
C56_12 C 0.23387(17) 0.53170(7) 0.6535(2)
H40_12 H 0.2651 0.5325 0.6635
C57_12 C 0.3041(2) 0.41011(8) 0.9233(3)
C58_12 C 0.27151(18) 0.42377(7) 0.8849(3)
C59_12 C 0.2552(2) 0.44464(7) 0.9052(3)
H41_12 H 0.2624 0.4495 0.9452
C60_12 C 0.22935(18) 0.45799(7) 0.8691(2)
H42_12 H 0.2209 0.4724 0.8833
C61_12 C 0.21506(13) 0.45117(6) 0.81216(18)
C62_12 C 0.23186(19) 0.43007(7) 0.7913(2)
H43_12 H 0.2241 0.4247 0.7520
C63_12 C 0.26084(19) 0.41704(7) 0.8307(3)
H44_12 H 0.2724 0.4032 0.8165
C64_12 C 0.18299(15) 0.46611(8) 0.7719(2)
C69_12 C 0.02571(14) 0.45481(6) 0.6264(2)
C70_12 C 0.03016(17) 0.43282(7) 0.6476(3)
H47_12 H 0.0517 0.4293 0.6782
C71_12 C 0.00129(14) 0.41548(6) 0.6222(2)
H48_12 H 0.0049 0.4003 0.6339
C72_12 C 0.05875(16) 0.47232(6) 0.6548(3)
N3_12 N 0.01787(12) 0.56590(6) 0.8777(2)
H50_12 H 0.0338 0.5748 0.9011
N4_12 N 0.08636(12) 0.51659(5) 0.77265(18)
N9_6 N 0.59829(10) 0.52004(5) 0.78996(17)
N10_12 N 0.54118(12) 0.56918(5) 0.90433(17)
H53_12 H 0.5594 0.5777 0.9256
N11_12 N 0.49192(13) 0.57234(5) 0.9085(2)
H54_12 H 0.4768 0.5650 0.9364
N12_12 N 0.42088(11) 0.61608(5) 0.79353(18)
N13_12 N 0.34914(11) 0.61251(5) 0.68532(16)
N14_12 N 0.28706(16) 0.56364(8) 0.5840(3)
H55_12 H 0.3054 0.5540 0.5668
N15_12 N 0.23898(15) 0.56021(7) 0.5734(2)
H56_12 H 0.2253 0.5676 0.5443
N16_12 N 0.16115(11) 0.51398(5) 0.67283(17)
O3_6 O 0.08140(10) 0.72283(4) 0.50200(14)
O4_12 O 0.04156(10) 0.74880(4) 0.55421(15)
O9_10 O 0.32425(13) 0.39389(6) 0.9066(2)
O10_12 O 0.30665(13) 0.41461(5) 0.9830(2)
O11_12 O 0.15950(10) 0.48090(5) 0.79766(16)
O12_12 O 0.18453(12) 0.46273(6) 0.71305(18)
O15_12 O 0.07976(12) 0.46888(5) 0.70200(19)
O16_12 O 0.06384(14) 0.49038(5) 0.6233(2)
Zn6_5 Zn 0.122260(14) 0.748180(6) 0.47810(3)
Zn8_7 Zn 0.364850(15) 0.385990(6) 0.98392(3)
O19_6 O 0.42575(13) 0.64389(6) 0.6566(2)
Zn2_12 Zn 0.866331(14) 0.640786(6) 0.72080(2)
H3_12 H 0.9859 0.5408 0.7812
C6_12 C 0.94861(12) 0.61448(5) 0.76770(19)
H5_12 H 0.9655 0.6241 0.7419
C7_12 C 0.97253(13) 0.59877(5) 0.80150(19)
C8_12 C 0.94867(16) 0.58396(6) 0.8364(3)
C9_12 C 0.90049(16) 0.58550(7) 0.8380(2)
H7_12 H 0.8832 0.5750 0.8606
C10_12 C 0.87785(14) 0.60373(8) 0.8037(3)
H8_12 H 0.8461 0.6058 0.8068
C11_12 C 0.93669(14) 0.65850(5) 0.64643(19)
C12_12 C 0.96770(12) 0.67629(5) 0.62213(18)
C16_12 C 0.98867(13) 0.71559(6) 0.60959(19)
H11_12 H 0.9827 0.7307 0.6199
C17_12 C 0.96264(13) 0.69833(5) 0.63639(19)
H12_12 H 0.9405 0.7023 0.6658
C19_12 C 0.69120(18) 0.72209(8) 0.9393(3)
C20_12 C 0.71963(16) 0.70590(7) 0.8979(3)
C21_12 C 0.7284(2) 0.71142(8) 0.8370(3)
H13_12 H 0.7151 0.7243 0.8193
C22_12 C 0.7571(2) 0.69764(8) 0.8025(3)
H14_12 H 0.7658 0.7025 0.7630
C23_12 C 0.77271(17) 0.67788(7) 0.8229(3)
C24_12 C 0.76330(19) 0.67404(7) 0.8846(2)
H15_12 H 0.7757 0.6610 0.9025
C25_12 C 0.73778(19) 0.68756(7) 0.9210(3)
H16_12 H 0.7331 0.6838 0.9625
C26_12 C 0.80314(18) 0.66384(8) 0.7904(3)
C27_12 C 0.63158(14) 0.53284(7) 0.6257(2)
H17_12 H 0.6004 0.5292 0.6228
C28_12 C 0.64816(14) 0.54868(5) 0.5857(2)
H18_12 H 0.6293 0.5550 0.5552
C29_12 C 0.69387(14) 0.55526(5) 0.59153(19)
C30_12 C 0.72056(13) 0.54476(5) 0.63676(19)
H19_12 H 0.7514 0.5487 0.6418
C31_12 C 0.70125(13) 0.52878(6) 0.6732(2)
H20_12 H 0.7196 0.5219 0.7031
C32_12 C 0.77981(14) 0.58902(6) 0.58598(19)
C33_12 C 0.75789(13) 0.60282(5) 0.62963(19)
H21_12 H 0.7260 0.6019 0.6343
C34_12 C 0.78231(13) 0.61758(6) 0.6655(2)
H22_12 H 0.7656 0.6265 0.6934
C35_12 C 0.85158(15) 0.60629(6) 0.6216(2)
H23_12 H 0.8836 0.6071 0.6181
C36_12 C 0.82836(14) 0.59124(6) 0.5852(2)
H24_12 H 0.8452 0.5820 0.5585
C65_12 C 0.93684(14) 0.40278(6) 0.5547(2)
C66_12 C 0.96774(14) 0.42167(6) 0.57961(19)
C67_12 C 0.96259(14) 0.44398(5) 0.5615(2)
H45_12 H 0.9392 0.4480 0.5340
C68_12 C 0.99138(14) 0.45999(6) 0.5835(2)
H46_12 H 0.9883 0.4749 0.5697
N1_12 N 0.90241(11) 0.61713(5) 0.76876(19)
N2_12 N 0.96862(14) 0.56727(6) 0.8733(2)
H49_12 H 0.9515 0.5578 0.8934
N5_12 N 0.65631(11) 0.52216(5) 0.66867(17)
N6_12 N 0.71267(15) 0.57115(5) 0.5517(2)
H51_12 H 0.6948 0.5794 0.5290
N7_12 N 0.75938(13) 0.57397(5) 0.5480(2)
H52_12 H 0.7754 0.5662 0.5218
N8_12 N 0.82941(11) 0.62063(5) 0.66440(17)
O1_12 O 0.93718(12) 0.63911(4) 0.62466(16)
O2_12 O 0.91152(9) 0.66395(4) 0.69313(13)
O5_12 O 0.68839(13) 0.71722(6) 0.9980(2)
O7_12 O 0.81301(13) 0.66649(6) 0.73753(19)
O8_12 O 0.82300(13) 0.64821(6) 0.8080(2)
O14_12 O 0.93669(12) 0.38391(4) 0.57565(16)
O17_10 O 0.66860(10) 0.47283(4) 0.75200(14)
C19_13 C 0.05880(18) 0.97209(8) 0.6893(3)
C20_13 C 0.03037(16) 0.95590(7) 0.6479(3)
C21_13 C 0.0216(2) 0.96142(8) 0.5870(3)
H13_13 H 0.0349 0.9743 0.5693
C25_13 C 0.01222(19) 0.93756(7) 0.6710(3)
H16_13 H 0.0169 0.9338 0.7125
C27_13 C 0.11842(14) 0.78284(7) 0.3757(2)
H17_13 H 0.1496 0.7792 0.3728
C28_13 C 0.10184(14) 0.79868(5) 0.3357(2)
H18_13 H 0.1207 0.8050 0.3052
C29_13 C 0.05613(14) 0.80526(5) 0.34153(19)
C30_13 C 0.02944(13) 0.79476(5) 0.38676(19)
C31_13 C 0.04875(13) 0.77878(6) 0.4232(2)
H20_13 H 0.0304 0.7719 0.4531
H21_13 H 0.0240 0.8519 0.3843
N5_13 N 0.09369(11) 0.77216(5) 0.41867(17)
N6_13 N 0.03733(15) 0.82115(5) 0.3017(2)
H51_13 H 0.0552 0.8294 0.2790
O5_13 O 0.06161(13) 0.96722(6) 0.7480(2)
O6_8 O 0.08383(11) 0.98457(5) 0.6661(2)
N17_7 N 0.15171(10) 0.77004(5) 0.53996(17)
O18_6 O 0.16617(11) 0.73457(5) 0.4161(2)
Zn1_13 Zn 0.627250(15) 0.742575(7) 0.47408(3)
Zn2_13 Zn 0.883669(14) 0.890786(6) 0.47080(2)
C1_13 C 0.64304(14) 0.77791(6) 0.5697(2)
H1_13 H 0.6124 0.7748 0.5794
C2_13 C 0.66700(14) 0.79431(7) 0.6042(2)
H2_13 H 0.6520 0.8020 0.6361
C3_13 C 0.71220(15) 0.79911(6) 0.5916(3)
C4_13 C 0.73348(15) 0.78787(7) 0.5416(3)
H3_13 H 0.7641 0.7908 0.5312
C5_13 C 0.70831(14) 0.77266(7) 0.5092(2)
H4_13 H 0.7223 0.7658 0.4752
C6_13 C 0.80139(12) 0.86448(5) 0.51770(19)
H5_13 H 0.7845 0.8741 0.4919
C7_13 C 0.77747(13) 0.84877(5) 0.55150(19)
H6_13 H 0.7454 0.8483 0.5504
C8_13 C 0.80133(16) 0.83396(6) 0.5864(3)
C9_13 C 0.84951(16) 0.83550(7) 0.5880(2)
H7_13 H 0.8668 0.8250 0.6106
C10_13 C 0.87215(14) 0.85373(8) 0.5537(3)
H8_13 H 0.9039 0.8558 0.5568
C11_13 C 0.81331(14) 0.90850(5) 0.39643(19)
C12_13 C 0.78230(12) 0.92629(5) 0.37213(18)
C13_13 C 0.74891(18) 0.92129(6) 0.3291(2)
H9_13 H 0.7453 0.9062 0.3170
C14_13 C 0.71966(14) 0.93777(6) 0.3020(2)
H10_13 H 0.6964 0.9335 0.2744
C15_13 C 0.72661(13) 0.96058(6) 0.31769(19)
C16_13 C 0.76133(13) 0.96559(6) 0.35959(19)
H11_13 H 0.7673 0.9807 0.3699
C17_13 C 0.78736(13) 0.94833(5) 0.38639(19)
H12_13 H 0.8095 0.9523 0.4158
C18_13 C 0.69984(13) 0.97867(5) 0.29085(19)
C22_13 C 0.9929(2) 0.94764(8) 0.5525(3)
H14_13 H 0.9842 0.9525 0.5130
C23_13 C 0.97729(17) 0.92788(7) 0.5729(3)
C24_13 C 0.98670(19) 0.92404(7) 0.6346(2)
H15_13 H 0.9743 0.9110 0.6525
C26_13 C 0.94686(18) 0.91384(8) 0.5404(3)
H19_13 H 0.9986 0.7987 0.3918
C32_13 C 0.97019(14) 0.83902(6) 0.33598(19)
C33_13 C 0.99211(13) 0.85282(5) 0.37963(19)
C34_13 C 0.96769(13) 0.86758(6) 0.4155(2)
H22_13 H 0.9844 0.8765 0.4434
C35_13 C 0.89842(15) 0.85629(6) 0.3716(2)
H23_13 H 0.8664 0.8571 0.3681
C36_13 C 0.92164(14) 0.84124(6) 0.3352(2)
H24_13 H 0.9048 0.8320 0.3085
C37_13 C 0.12516(12) 0.78259(6) 0.5814(2)
H25_13 H 0.0935 0.7801 0.5832
C38_13 C 0.14415(15) 0.79821(6) 0.6188(2)
H26_13 H 0.1254 0.8061 0.6465
C39_13 C 0.19118(14) 0.80287(5) 0.6173(2)
C40_13 C 0.21704(15) 0.78991(6) 0.5780(2)
H27_13 H 0.2489 0.7919 0.5765
C41_13 C 0.19677(14) 0.77421(6) 0.5410(2)
H28_13 H 0.2156 0.7658 0.5147
C42_13 C 0.28099(15) 0.83626(6) 0.6204(2)
C43_13 C 0.25622(14) 0.85065(6) 0.5780(2)
H29_13 H 0.2242 0.8500 0.5753
C44_13 C 0.28193(16) 0.86575(6) 0.5406(3)
H30_13 H 0.2666 0.8756 0.5137
C45_13 C 0.34794(15) 0.85244(7) 0.5799(3)
H31_13 H 0.3801 0.8522 0.5787
C46_13 C 0.32741(16) 0.83720(8) 0.6227(3)
H32_13 H 0.3447 0.8285 0.6504
C47_13 C 0.44528(15) 0.86073(6) 0.4308(2)
H33_13 H 0.4633 0.8712 0.4522
C48_13 C 0.46707(14) 0.84459(7) 0.3971(2)
H34_13 H 0.4992 0.8444 0.3960
C49_13 C 0.44392(15) 0.82932(6) 0.3661(2)
C50_13 C 0.39672(16) 0.83064(7) 0.3703(3)
H35_13 H 0.3788 0.8197 0.3502
C51_13 C 0.37662(14) 0.84636(7) 0.4010(3)
H36_13 H 0.3445 0.8471 0.4004
C52_13 C 0.53588(15) 0.79516(7) 0.3591(2)
C53_13 C 0.58289(17) 0.79357(6) 0.3470(2)
H37_13 H 0.5977 0.8027 0.3178
C54_13 C 0.60593(14) 0.77724(6) 0.3817(2)
H38_13 H 0.6374 0.7758 0.3743
C55_13 C 0.54495(15) 0.76733(7) 0.4315(2)
H39_13 H 0.5316 0.7583 0.4621
C56_13 C 0.51613(17) 0.78170(7) 0.4035(2)
H40_13 H 0.4849 0.7825 0.4135
C57_13 C 0.4459(2) 0.66011(8) 0.6733(3)
C58_13 C 0.47849(18) 0.67377(7) 0.6349(3)
C59_13 C 0.4948(2) 0.69464(7) 0.6552(3)
H41_13 H 0.4876 0.6995 0.6952
C60_13 C 0.52065(18) 0.70799(7) 0.6191(2)
H42_13 H 0.5291 0.7224 0.6333
C61_13 C 0.53494(13) 0.70117(6) 0.56216(18)
C62_13 C 0.51814(19) 0.68007(7) 0.5413(2)
H43_13 H 0.5259 0.6747 0.5020
C63_13 C 0.48916(19) 0.66704(7) 0.5807(3)
H44_13 H 0.4776 0.6532 0.5665
C64_13 C 0.56701(15) 0.71611(8) 0.5219(2)
C65_13 C 0.81316(14) 0.65278(6) 0.3047(2)
C66_13 C 0.78226(14) 0.67167(6) 0.32961(19)
C67_13 C 0.78741(14) 0.69398(5) 0.3115(2)
H45_13 H 0.8108 0.6980 0.2840
C68_13 C 0.75862(14) 0.70999(6) 0.3335(2)
H46_13 H 0.7617 0.7249 0.3197
C69_13 C 0.72429(14) 0.70481(6) 0.3764(2)
C70_13 C 0.71984(17) 0.68282(7) 0.3976(3)
H47_13 H 0.6983 0.6793 0.4282
C71_13 C 0.74871(14) 0.66548(6) 0.3722(2)
H48_13 H 0.7451 0.6503 0.3839
C72_13 C 0.69125(16) 0.72232(6) 0.4048(3)
N1_13 N 0.84759(11) 0.86713(5) 0.51876(19)
N2_13 N 0.78138(14) 0.81727(6) 0.6233(2)
H49_13 H 0.7985 0.8078 0.6434
N3_13 N 0.73213(12) 0.81590(6) 0.6277(2)
H50_13 H 0.7162 0.8248 0.6511
N4_13 N 0.66364(12) 0.76659(5) 0.52265(18)
N7_13 N 0.99062(13) 0.82397(5) 0.2980(2)
H52_13 H 0.9746 0.8162 0.2718
N8_13 N 0.92059(11) 0.87063(5) 0.41440(17)
N10_13 N 0.20882(12) 0.81918(5) 0.65433(17)
H53_13 H 0.1906 0.8277 0.6756
N11_13 N 0.25808(13) 0.82234(5) 0.6585(2)
H54_13 H 0.2732 0.8150 0.6864
N12_13 N 0.32912(11) 0.86608(5) 0.54353(18)
N13_13 N 0.40086(11) 0.86251(5) 0.43532(16)
N14_13 N 0.46294(16) 0.81364(8) 0.3340(3)
H55_13 H 0.4446 0.8040 0.3168
N15_13 N 0.51102(15) 0.81021(7) 0.3234(2)
H56_13 H 0.5247 0.8176 0.2943
N16_13 N 0.58885(11) 0.76398(5) 0.42283(17)
O1_13 O 0.81282(12) 0.88911(4) 0.37466(16)
O2_13 O 0.83848(9) 0.91395(4) 0.44313(13)
O4_13 O 0.70844(10) 0.99880(4) 0.30421(15)
O7_13 O 0.93699(13) 0.91649(6) 0.48753(19)
O8_13 O 0.92700(13) 0.89821(6) 0.5580(2)
O10_13 O 0.44335(13) 0.66461(5) 0.7330(2)
O11_13 O 0.59050(10) 0.73090(5) 0.54766(16)
O12_13 O 0.56547(12) 0.71273(6) 0.46305(18)
O13_6 O 0.83982(9) 0.65920(4) 0.25681(14)
O14_13 O 0.81331(12) 0.63391(4) 0.32565(16)
O15_13 O 0.67024(12) 0.71888(5) 0.45200(19)
O16_13 O 0.68616(14) 0.74038(5) 0.3733(2)
O20_8 O 0.41018(9) 0.90920(4) 0.50681(14)
C37_14 C 0.12484(12) 0.03259(6) 0.8314(2)
H25_14 H 0.1565 0.0301 0.8332
C38_14 C 0.10585(15) 0.04821(6) 0.8688(2)
H26_14 H 0.1246 0.0561 0.8965
C39_14 C 0.05882(14) 0.05287(5) 0.8673(2)
C40_14 C 0.03296(15) 0.03991(6) 0.8280(2)
H27_14 H 0.0011 0.0419 0.8265
C41_14 C 0.05323(14) 0.02421(6) 0.7910(2)
H28_14 H 0.0344 0.0158 0.7647
H29_14 H 0.0258 0.1000 0.8253
N9_7 N 0.09829(10) 0.02004(5) 0.78996(17)
N10_14 N 0.04118(12) 0.06918(5) 0.90433(17)
H53_14 H 0.0594 0.0777 0.9256
Zn2_14 Zn 0.366331(14) 0.140786(6) 0.72080(2)
C1_14 C 0.60696(14) 0.02791(6) 0.8197(2)
H1_14 H 0.6376 0.0248 0.8294
C2_14 C 0.58300(14) 0.04431(7) 0.8542(2)
H2_14 H 0.5980 0.0520 0.8861
C3_14 C 0.53780(15) 0.04911(6) 0.8416(3)
C4_14 C 0.51652(15) 0.03787(7) 0.7916(3)
H3_14 H 0.4859 0.0408 0.7812
C5_14 C 0.54169(14) 0.02266(7) 0.7592(2)
H4_14 H 0.5277 0.0158 0.7252
C6_14 C 0.44861(12) 0.11448(5) 0.76770(19)
H5_14 H 0.4655 0.1241 0.7419
C7_14 C 0.47253(13) 0.09877(5) 0.80150(19)
H6_14 H 0.5046 0.0983 0.8004
C8_14 C 0.44867(16) 0.08396(6) 0.8364(3)
C9_14 C 0.40049(16) 0.08550(7) 0.8380(2)
H7_14 H 0.3832 0.0750 0.8606
C10_14 C 0.37785(14) 0.10373(8) 0.8037(3)
H8_14 H 0.3461 0.1058 0.8068
C11_14 C 0.43669(14) 0.15850(5) 0.64643(19)
C12_14 C 0.46770(12) 0.17629(5) 0.62213(18)
C13_14 C 0.50109(18) 0.17129(6) 0.5791(2)
H9_14 H 0.5047 0.1562 0.5670
C14_14 C 0.53034(14) 0.18777(6) 0.5520(2)
H10_14 H 0.5536 0.1835 0.5244
C15_14 C 0.52339(13) 0.21058(6) 0.56769(19)
C16_14 C 0.48867(13) 0.21559(6) 0.60959(19)
H11_14 H 0.4827 0.2307 0.6199
C17_14 C 0.46264(13) 0.19833(5) 0.63639(19)
H12_14 H 0.4405 0.2023 0.6658
C18_14 C 0.55016(13) 0.22867(5) 0.54085(19)
C19_14 C 0.19120(18) 0.22209(8) 0.9393(3)
C20_14 C 0.21963(16) 0.20590(7) 0.8979(3)
C21_14 C 0.2284(2) 0.21142(8) 0.8370(3)
H13_14 H 0.2151 0.2243 0.8193
C22_14 C 0.2571(2) 0.19764(8) 0.8025(3)
H14_14 H 0.2658 0.2025 0.7630
C23_14 C 0.27271(17) 0.17788(7) 0.8229(3)
C24_14 C 0.26330(19) 0.17404(7) 0.8846(2)
H15_14 H 0.2757 0.1610 0.9025
C25_14 C 0.23778(19) 0.18756(7) 0.9210(3)
H16_14 H 0.2331 0.1838 0.9625
C26_14 C 0.30314(18) 0.16384(8) 0.7904(3)
C27_14 C 0.13158(14) 0.03284(7) 0.6257(2)
H17_14 H 0.1004 0.0292 0.6228
C28_14 C 0.14816(14) 0.04868(5) 0.5857(2)
H18_14 H 0.1293 0.0550 0.5552
C29_14 C 0.19387(14) 0.05526(5) 0.59153(19)
C30_14 C 0.22056(13) 0.04476(5) 0.63676(19)
H19_14 H 0.2514 0.0487 0.6418
C31_14 C 0.20125(13) 0.02878(6) 0.6732(2)
H20_14 H 0.2196 0.0219 0.7031
C32_14 C 0.27981(14) 0.08902(6) 0.58598(19)
C33_14 C 0.25789(13) 0.10282(5) 0.62963(19)
H21_14 H 0.2260 0.1019 0.6343
C34_14 C 0.28231(13) 0.11758(6) 0.6655(2)
H22_14 H 0.2656 0.1265 0.6934
C35_14 C 0.35158(15) 0.10629(6) 0.6216(2)
H23_14 H 0.3836 0.1071 0.6181
C36_14 C 0.32836(14) 0.09124(6) 0.5852(2)
H24_14 H 0.3452 0.0820 0.5585
C42_14 C 0.96901(15) 0.08626(6) 0.8704(2)
C43_14 C 0.99378(14) 0.10065(6) 0.8280(2)
C44_14 C 0.96807(16) 0.11575(6) 0.7906(3)
H30_14 H 0.9834 0.1256 0.7637
C45_14 C 0.90206(15) 0.10244(7) 0.8299(3)
H31_14 H 0.8699 0.1022 0.8287
C46_14 C 0.92259(16) 0.08720(8) 0.8727(3)
H32_14 H 0.9053 0.0785 0.9004
C47_14 C 0.80472(15) 0.11073(6) 0.6808(2)
H33_14 H 0.7867 0.1212 0.7022
C48_14 C 0.78293(14) 0.09459(7) 0.6471(2)
H34_14 H 0.7508 0.0944 0.6460
C49_14 C 0.80608(15) 0.07932(6) 0.6161(2)
C50_14 C 0.85328(16) 0.08064(7) 0.6203(3)
H35_14 H 0.8712 0.0697 0.6002
C51_14 C 0.87338(14) 0.09636(7) 0.6510(3)
H36_14 H 0.9055 0.0971 0.6504
C52_14 C 0.71412(15) 0.04516(7) 0.6091(2)
C53_14 C 0.66711(17) 0.04357(6) 0.5970(2)
H37_14 H 0.6523 0.0527 0.5678
C54_14 C 0.64407(14) 0.02724(6) 0.6317(2)
H38_14 H 0.6126 0.0258 0.6243
C55_14 C 0.70505(15) 0.01733(7) 0.6815(2)
H39_14 H 0.7184 0.0083 0.7121
C56_14 C 0.73387(17) 0.03170(7) 0.6535(2)
H40_14 H 0.7651 0.0325 0.6635
N1_14 N 0.40241(11) 0.11713(5) 0.76876(19)
N2_14 N 0.46862(14) 0.06727(6) 0.8733(2)
H49_14 H 0.4515 0.0578 0.8934
N3_14 N 0.51787(12) 0.06590(6) 0.8777(2)
H50_14 H 0.5338 0.0748 0.9011
N4_14 N 0.58636(12) 0.01659(5) 0.77265(18)
N5_14 N 0.15631(11) 0.02216(5) 0.66867(17)
N6_14 N 0.21267(15) 0.07115(5) 0.5517(2)
H51_14 H 0.1948 0.0794 0.5290
N7_14 N 0.25938(13) 0.07397(5) 0.5480(2)
H52_14 H 0.2754 0.0662 0.5218
N8_14 N 0.32941(11) 0.12063(5) 0.66440(17)
N11_14 N 0.99192(13) 0.07234(5) 0.9085(2)
H54_14 H 0.9768 0.0650 0.9364
N12_14 N 0.92088(11) 0.11608(5) 0.79353(18)
N13_14 N 0.84914(11) 0.11251(5) 0.68532(16)
N14_14 N 0.78706(16) 0.06364(8) 0.5840(3)
H55_14 H 0.8054 0.0540 0.5668
N15_14 N 0.73898(15) 0.06021(7) 0.5734(2)
H56_14 H 0.7253 0.0676 0.5443
N16_14 N 0.66115(11) 0.01398(5) 0.67283(17)
O1_14 O 0.43718(12) 0.13911(4) 0.62466(16)
O2_14 O 0.41152(9) 0.16395(4) 0.69313(13)
O4_14 O 0.54156(10) 0.24880(4) 0.55421(15)
O5_14 O 0.18839(13) 0.21722(6) 0.9980(2)
O6_9 O 0.16617(11) 0.23457(5) 0.9161(2)
O7_14 O 0.31301(13) 0.16649(6) 0.73753(19)
O8_14 O 0.32300(13) 0.14821(6) 0.8080(2)
O20_9 O 0.83982(9) 0.15920(4) 0.75681(14)
Zn1_14 Zn 0.622750(15) 0.992575(7) 0.72408(3)
C57_14 C 0.8041(2) 0.91011(8) 0.9233(3)
C58_14 C 0.77151(18) 0.92377(7) 0.8849(3)
C59_14 C 0.7552(2) 0.94464(7) 0.9052(3)
H41_14 H 0.7624 0.9495 0.9452
C60_14 C 0.72935(18) 0.95799(7) 0.8691(2)
H42_14 H 0.7209 0.9724 0.8833
C61_14 C 0.71506(13) 0.95117(6) 0.81216(18)
C62_14 C 0.73186(19) 0.93007(7) 0.7913(2)
H43_14 H 0.7241 0.9247 0.7520
C63_14 C 0.76084(19) 0.91704(7) 0.8307(3)
H44_14 H 0.7724 0.9032 0.8165
C64_14 C 0.68299(15) 0.96611(8) 0.7719(2)
C65_14 C 0.43684(14) 0.90278(6) 0.5547(2)
C66_14 C 0.46774(14) 0.92167(6) 0.57961(19)
C67_14 C 0.46259(14) 0.94398(5) 0.5615(2)
H45_14 H 0.4392 0.9480 0.5340
C68_14 C 0.49138(14) 0.95999(6) 0.5835(2)
H46_14 H 0.4883 0.9749 0.5697
C69_14 C 0.52571(14) 0.95481(6) 0.6264(2)
C70_14 C 0.53016(17) 0.93282(7) 0.6476(3)
H47_14 H 0.5517 0.9293 0.6782
C71_14 C 0.50129(14) 0.91548(6) 0.6222(2)
H48_14 H 0.5049 0.9003 0.6339
C72_14 C 0.55875(16) 0.97232(6) 0.6548(3)
O10_14 O 0.80665(13) 0.91461(5) 0.9830(2)
O11_14 O 0.65950(10) 0.98090(5) 0.79766(16)
O12_14 O 0.68453(12) 0.96273(6) 0.71305(18)
O14_14 O 0.43669(12) 0.88391(4) 0.57565(16)
O15_14 O 0.57976(12) 0.96888(5) 0.70200(19)
O16_14 O 0.56384(14) 0.99038(5) 0.6233(2)
C19_15 C 0.05880(18) 0.47209(8) 0.1893(3)
C20_15 C 0.03037(16) 0.45590(7) 0.1479(3)
C21_15 C 0.0216(2) 0.46142(8) 0.0870(3)
H13_15 H 0.0349 0.4743 0.0693
C25_15 C 0.01222(19) 0.43756(7) 0.1710(3)
H16_15 H 0.0169 0.4338 0.2125
O5_15 O 0.06161(13) 0.46722(6) 0.2480(2)
O6_10 O 0.08383(11) 0.48457(5) 0.1661(2)
N17_8 N 0.15171(10) 0.27004(5) 0.03996(17)
C27_15 C 0.11842(14) 0.28284(7) 0.8757(2)
H17_15 H 0.1496 0.2792 0.8728
C28_15 C 0.10184(14) 0.29868(5) 0.8357(2)
H18_15 H 0.1207 0.3050 0.8052
C29_15 C 0.05613(14) 0.30526(5) 0.84153(19)
C30_15 C 0.02944(13) 0.29476(5) 0.88676(19)
C31_15 C 0.04875(13) 0.27878(6) 0.9232(2)
H20_15 H 0.0304 0.2719 0.9531
H21_15 H 0.0240 0.3519 0.8843
N5_15 N 0.09369(11) 0.27216(5) 0.91867(17)
N6_15 N 0.03733(15) 0.32115(5) 0.8017(2)
H51_15 H 0.0552 0.3294 0.7790
C1_15 C 0.64304(14) 0.27791(6) 0.0697(2)
H1_15 H 0.6124 0.2748 0.0794
C2_15 C 0.66700(14) 0.29431(7) 0.1042(2)
H2_15 H 0.6520 0.3020 0.1361
C3_15 C 0.71220(15) 0.29911(6) 0.0916(3)
C4_15 C 0.73348(15) 0.28787(7) 0.0416(3)
H3_15 H 0.7641 0.2908 0.0312
C5_15 C 0.70831(14) 0.27266(7) 0.0092(2)
C6_15 C 0.80139(12) 0.36448(5) 0.01770(19)
C7_15 C 0.77747(13) 0.34877(5) 0.05150(19)
H6_15 H 0.7454 0.3483 0.0504
C8_15 C 0.80133(16) 0.33396(6) 0.0864(3)
C9_15 C 0.84951(16) 0.33550(7) 0.0880(2)
H7_15 H 0.8668 0.3250 0.1106
C10_15 C 0.87215(14) 0.35373(8) 0.0537(3)
H8_15 H 0.9039 0.3558 0.0568
C22_15 C 0.9929(2) 0.44764(8) 0.0525(3)
H14_15 H 0.9842 0.4525 0.0130
C23_15 C 0.97729(17) 0.42788(7) 0.0729(3)
C24_15 C 0.98670(19) 0.42404(7) 0.1346(2)
H15_15 H 0.9743 0.4110 0.1525
C26_15 C 0.94686(18) 0.41384(8) 0.0404(3)
C37_15 C 0.12516(12) 0.28259(6) 0.0814(2)
H25_15 H 0.0935 0.2801 0.0832
C38_15 C 0.14415(15) 0.29821(6) 0.1188(2)
H26_15 H 0.1254 0.3061 0.1465
C39_15 C 0.19118(14) 0.30287(5) 0.1173(2)
C40_15 C 0.21704(15) 0.28991(6) 0.0780(2)
H27_15 H 0.2489 0.2919 0.0765
C41_15 C 0.19677(14) 0.27421(6) 0.0410(2)
H28_15 H 0.2156 0.2658 0.0147
C42_15 C 0.28099(15) 0.33626(6) 0.1204(2)
C43_15 C 0.25622(14) 0.35065(6) 0.0780(2)
H29_15 H 0.2242 0.3500 0.0753
C44_15 C 0.28193(16) 0.36575(6) 0.0406(3)
H30_15 H 0.2666 0.3756 0.0137
C45_15 C 0.34794(15) 0.35244(7) 0.0799(3)
H31_15 H 0.3801 0.3522 0.0787
C46_15 C 0.32741(16) 0.33720(8) 0.1227(3)
H32_15 H 0.3447 0.3285 0.1504
C57_15 C 0.4459(2) 0.16011(8) 0.1733(3)
C58_15 C 0.47849(18) 0.17377(7) 0.1349(3)
C59_15 C 0.4948(2) 0.19464(7) 0.1552(3)
H41_15 H 0.4876 0.1995 0.1952
C60_15 C 0.52065(18) 0.20799(7) 0.1191(2)
H42_15 H 0.5291 0.2224 0.1333
C61_15 C 0.53494(13) 0.20117(6) 0.06216(18)
C62_15 C 0.51814(19) 0.18007(7) 0.0413(2)
H43_15 H 0.5259 0.1747 0.0020
C63_15 C 0.48916(19) 0.16704(7) 0.0807(3)
H44_15 H 0.4776 0.1532 0.0665
C64_15 C 0.56701(15) 0.21611(8) 0.0219(2)
N1_15 N 0.84759(11) 0.36713(5) 0.01876(19)
N2_15 N 0.78138(14) 0.31727(6) 0.1233(2)
H49_15 H 0.7985 0.3078 0.1434
N3_15 N 0.73213(12) 0.31590(6) 0.1277(2)
H50_15 H 0.7162 0.3248 0.1511
N4_15 N 0.66364(12) 0.26659(5) 0.02265(18)
N10_15 N 0.20882(12) 0.31918(5) 0.15433(17)
H53_15 H 0.1906 0.3277 0.1756
N11_15 N 0.25808(13) 0.32234(5) 0.1585(2)
H54_15 H 0.2732 0.3150 0.1864
N12_15 N 0.32912(11) 0.36608(5) 0.04353(18)
O8_15 O 0.92700(13) 0.39821(6) 0.0580(2)
O10_15 O 0.44335(13) 0.16461(5) 0.2330(2)
O11_15 O 0.59050(10) 0.23090(5) 0.04766(16)
O20_10 O 0.41018(9) 0.40920(4) 0.00681(14)
Zn1_15 Zn 0.627250(15) 0.242575(7) 0.97408(3)
Zn2_15 Zn 0.883669(14) 0.390786(6) 0.97080(2)
H4_15 H 0.7223 0.2658 0.9752
H5_15 H 0.7845 0.3741 0.9919
C11_15 C 0.81331(14) 0.40850(5) 0.89643(19)
C12_15 C 0.78230(12) 0.42629(5) 0.87213(18)
C13_15 C 0.74891(18) 0.42129(6) 0.8291(2)
H9_15 H 0.7453 0.4062 0.8170
C14_15 C 0.71966(14) 0.43777(6) 0.8020(2)
H10_15 H 0.6964 0.4335 0.7744
C15_15 C 0.72661(13) 0.46058(6) 0.81769(19)
C16_15 C 0.76133(13) 0.46559(6) 0.85959(19)
H11_15 H 0.7673 0.4807 0.8699
C17_15 C 0.78736(13) 0.44833(5) 0.88639(19)
H12_15 H 0.8095 0.4523 0.9158
C18_15 C 0.69984(13) 0.47867(5) 0.79085(19)
H19_15 H 0.9986 0.2987 0.8918
C32_15 C 0.97019(14) 0.33902(6) 0.83598(19)
C33_15 C 0.99211(13) 0.35282(5) 0.87963(19)
C34_15 C 0.96769(13) 0.36758(6) 0.9155(2)
H22_15 H 0.9844 0.3765 0.9434
C35_15 C 0.89842(15) 0.35629(6) 0.8716(2)
H23_15 H 0.8664 0.3571 0.8681
C36_15 C 0.92164(14) 0.34124(6) 0.8352(2)
H24_15 H 0.9048 0.3320 0.8085
C47_15 C 0.44528(15) 0.36073(6) 0.9308(2)
H33_15 H 0.4633 0.3712 0.9522
C48_15 C 0.46707(14) 0.34459(7) 0.8971(2)
H34_15 H 0.4992 0.3444 0.8960
C49_15 C 0.44392(15) 0.32932(6) 0.8661(2)
C50_15 C 0.39672(16) 0.33064(7) 0.8703(3)
H35_15 H 0.3788 0.3197 0.8502
C51_15 C 0.37662(14) 0.34636(7) 0.9010(3)
H36_15 H 0.3445 0.3471 0.9004
C52_15 C 0.53588(15) 0.29516(7) 0.8591(2)
C53_15 C 0.58289(17) 0.29357(6) 0.8470(2)
H37_15 H 0.5977 0.3027 0.8178
C54_15 C 0.60593(14) 0.27724(6) 0.8817(2)
H38_15 H 0.6374 0.2758 0.8743
C55_15 C 0.54495(15) 0.26733(7) 0.9315(2)
H39_15 H 0.5316 0.2583 0.9621
C56_15 C 0.51613(17) 0.28170(7) 0.9035(2)
H40_15 H 0.4849 0.2825 0.9135
C65_15 C 0.81316(14) 0.15278(6) 0.8047(2)
C66_15 C 0.78226(14) 0.17167(6) 0.82961(19)
C67_15 C 0.78741(14) 0.19398(5) 0.8115(2)
H45_15 H 0.8108 0.1980 0.7840
C68_15 C 0.75862(14) 0.20999(6) 0.8335(2)
H46_15 H 0.7617 0.2249 0.8197
C69_15 C 0.72429(14) 0.20481(6) 0.8764(2)
C70_15 C 0.71984(17) 0.18282(7) 0.8976(3)
H47_15 H 0.6983 0.1793 0.9282
C71_15 C 0.74871(14) 0.16548(6) 0.8722(2)
H48_15 H 0.7451 0.1503 0.8839
C72_15 C 0.69125(16) 0.22232(6) 0.9048(3)
N7_15 N 0.99062(13) 0.32397(5) 0.7980(2)
H52_15 H 0.9746 0.3162 0.7718
N8_15 N 0.92059(11) 0.37063(5) 0.91440(17)
N13_15 N 0.40086(11) 0.36251(5) 0.93532(16)
N14_15 N 0.46294(16) 0.31364(8) 0.8340(3)
H55_15 H 0.4446 0.3040 0.8168
N15_15 N 0.51102(15) 0.31021(7) 0.8234(2)
H56_15 H 0.5247 0.3176 0.7943
N16_15 N 0.58885(11) 0.26398(5) 0.92283(17)
O1_15 O 0.81282(12) 0.38911(4) 0.87466(16)
O2_15 O 0.83848(9) 0.41395(4) 0.94313(13)
O4_15 O 0.70844(10) 0.49880(4) 0.80421(15)
O7_15 O 0.93699(13) 0.41649(6) 0.98753(19)
O12_15 O 0.56547(12) 0.21273(6) 0.96305(18)
O14_15 O 0.81331(12) 0.13391(4) 0.82565(16)
O15_15 O 0.67024(12) 0.21888(5) 0.95200(19)
O16_15 O 0.68616(14) 0.24038(5) 0.8733(2)
C37_16 C 0.12484(12) 0.53259(6) 0.3314(2)
H25_16 H 0.1565 0.5301 0.3332
C38_16 C 0.10585(15) 0.54821(6) 0.3688(2)
H26_16 H 0.1246 0.5561 0.3965
C39_16 C 0.05882(14) 0.55287(5) 0.3673(2)
C40_16 C 0.03296(15) 0.53991(6) 0.3280(2)
H27_16 H 0.0011 0.5419 0.3265
C41_16 C 0.05323(14) 0.52421(6) 0.2910(2)
H28_16 H 0.0344 0.5158 0.2647
H29_16 H 0.0258 0.6000 0.3253
N9_8 N 0.09829(10) 0.52004(5) 0.28996(17)
N10_16 N 0.04118(12) 0.56918(5) 0.40433(17)
H53_16 H 0.0594 0.5777 0.4256
Zn1_16 Zn 0.622750(15) 0.492575(7) 0.22408(3)
Zn2_16 Zn 0.366331(14) 0.640786(6) 0.22080(2)
C1_16 C 0.60696(14) 0.52791(6) 0.3197(2)
H1_16 H 0.6376 0.5248 0.3294
C2_16 C 0.58300(14) 0.54431(7) 0.3542(2)
H2_16 H 0.5980 0.5520 0.3861
C3_16 C 0.53780(15) 0.54911(6) 0.3416(3)
C4_16 C 0.51652(15) 0.53787(7) 0.2916(3)
H3_16 H 0.4859 0.5408 0.2812
C5_16 C 0.54169(14) 0.52266(7) 0.2592(2)
H4_16 H 0.5277 0.5158 0.2252
C6_16 C 0.44861(12) 0.61448(5) 0.26770(19)
H5_16 H 0.4655 0.6241 0.2419
C7_16 C 0.47253(13) 0.59877(5) 0.30150(19)
H6_16 H 0.5046 0.5983 0.3004
C8_16 C 0.44867(16) 0.58396(6) 0.3364(3)
C9_16 C 0.40049(16) 0.58550(7) 0.3380(2)
H7_16 H 0.3832 0.5750 0.3606
C10_16 C 0.37785(14) 0.60373(8) 0.3037(3)
H8_16 H 0.3461 0.6058 0.3068
C11_16 C 0.43669(14) 0.65850(5) 0.14643(19)
C12_16 C 0.46770(12) 0.67629(5) 0.12213(18)
C13_16 C 0.50109(18) 0.67129(6) 0.0791(2)
H9_16 H 0.5047 0.6562 0.0670
C14_16 C 0.53034(14) 0.68777(6) 0.0520(2)
H10_16 H 0.5536 0.6835 0.0244
C15_16 C 0.52339(13) 0.71058(6) 0.06769(19)
C16_16 C 0.48867(13) 0.71559(6) 0.10959(19)
H11_16 H 0.4827 0.7307 0.1199
C17_16 C 0.46264(13) 0.69833(5) 0.13639(19)
H12_16 H 0.4405 0.7023 0.1658
C18_16 C 0.55016(13) 0.72867(5) 0.04085(19)
C19_16 C 0.19120(18) 0.72209(8) 0.4393(3)
C20_16 C 0.21963(16) 0.70590(7) 0.3979(3)
C21_16 C 0.2284(2) 0.71142(8) 0.3370(3)
H13_16 H 0.2151 0.7243 0.3193
C22_16 C 0.2571(2) 0.69764(8) 0.3025(3)
H14_16 H 0.2658 0.7025 0.2630
C23_16 C 0.27271(17) 0.67788(7) 0.3229(3)
C24_16 C 0.26330(19) 0.67404(7) 0.3846(2)
H15_16 H 0.2757 0.6610 0.4025
C25_16 C 0.23778(19) 0.68756(7) 0.4210(3)
H16_16 H 0.2331 0.6838 0.4625
C26_16 C 0.30314(18) 0.66384(8) 0.2904(3)
C27_16 C 0.13158(14) 0.53284(7) 0.1257(2)
H17_16 H 0.1004 0.5292 0.1228
C28_16 C 0.14816(14) 0.54868(5) 0.0857(2)
H18_16 H 0.1293 0.5550 0.0552
C29_16 C 0.19387(14) 0.55526(5) 0.09153(19)
C30_16 C 0.22056(13) 0.54476(5) 0.13676(19)
H19_16 H 0.2514 0.5487 0.1418
C31_16 C 0.20125(13) 0.52878(6) 0.1732(2)
H20_16 H 0.2196 0.5219 0.2031
C32_16 C 0.27981(14) 0.58902(6) 0.08598(19)
C33_16 C 0.25789(13) 0.60282(5) 0.12963(19)
H21_16 H 0.2260 0.6019 0.1343
C34_16 C 0.28231(13) 0.61758(6) 0.1655(2)
H22_16 H 0.2656 0.6265 0.1934
C35_16 C 0.35158(15) 0.60629(6) 0.1216(2)
H23_16 H 0.3836 0.6071 0.1181
C36_16 C 0.32836(14) 0.59124(6) 0.0852(2)
H24_16 H 0.3452 0.5820 0.0585
C42_16 C 0.96901(15) 0.58626(6) 0.3704(2)
C43_16 C 0.99378(14) 0.60065(6) 0.3280(2)
C44_16 C 0.96807(16) 0.61575(6) 0.2906(3)
H30_16 H 0.9834 0.6256 0.2637
C45_16 C 0.90206(15) 0.60244(7) 0.3299(3)
H31_16 H 0.8699 0.6022 0.3287
C46_16 C 0.92259(16) 0.58720(8) 0.3727(3)
H32_16 H 0.9053 0.5785 0.4004
C47_16 C 0.80472(15) 0.61073(6) 0.1808(2)
H33_16 H 0.7867 0.6212 0.2022
C48_16 C 0.78293(14) 0.59459(7) 0.1471(2)
H34_16 H 0.7508 0.5944 0.1460
C49_16 C 0.80608(15) 0.57932(6) 0.1161(2)
C50_16 C 0.85328(16) 0.58064(7) 0.1203(3)
H35_16 H 0.8712 0.5697 0.1002
C51_16 C 0.87338(14) 0.59636(7) 0.1510(3)
H36_16 H 0.9055 0.5971 0.1504
C52_16 C 0.71412(15) 0.54516(7) 0.1091(2)
C53_16 C 0.66711(17) 0.54357(6) 0.0970(2)
H37_16 H 0.6523 0.5527 0.0678
C54_16 C 0.64407(14) 0.52724(6) 0.1317(2)
H38_16 H 0.6126 0.5258 0.1243
C55_16 C 0.70505(15) 0.51733(7) 0.1815(2)
H39_16 H 0.7184 0.5083 0.2121
C56_16 C 0.73387(17) 0.53170(7) 0.1535(2)
H40_16 H 0.7651 0.5325 0.1635
C57_16 C 0.8041(2) 0.41011(8) 0.4233(3)
C58_16 C 0.77151(18) 0.42377(7) 0.3849(3)
C59_16 C 0.7552(2) 0.44464(7) 0.4052(3)
H41_16 H 0.7624 0.4495 0.4452
C60_16 C 0.72935(18) 0.45799(7) 0.3691(2)
H42_16 H 0.7209 0.4724 0.3833
C61_16 C 0.71506(13) 0.45117(6) 0.31216(18)
C62_16 C 0.73186(19) 0.43007(7) 0.2913(2)
H43_16 H 0.7241 0.4247 0.2520
C63_16 C 0.76084(19) 0.41704(7) 0.3307(3)
H44_16 H 0.7724 0.4032 0.3165
C64_16 C 0.68299(15) 0.46611(8) 0.2719(2)
C65_16 C 0.43684(14) 0.40278(6) 0.0547(2)
C66_16 C 0.46774(14) 0.42167(6) 0.07961(19)
C67_16 C 0.46259(14) 0.44398(5) 0.0615(2)
H45_16 H 0.4392 0.4480 0.0340
C68_16 C 0.49138(14) 0.45999(6) 0.0835(2)
H46_16 H 0.4883 0.4749 0.0697
C69_16 C 0.52571(14) 0.45481(6) 0.1264(2)
C70_16 C 0.53016(17) 0.43282(7) 0.1476(3)
H47_16 H 0.5517 0.4293 0.1782
C71_16 C 0.50129(14) 0.41548(6) 0.1222(2)
H48_16 H 0.5049 0.4003 0.1339
C72_16 C 0.55875(16) 0.47232(6) 0.1548(3)
N1_16 N 0.40241(11) 0.61713(5) 0.26876(19)
N2_16 N 0.46862(14) 0.56727(6) 0.3733(2)
H49_16 H 0.4515 0.5578 0.3934
N3_16 N 0.51787(12) 0.56590(6) 0.3777(2)
H50_16 H 0.5338 0.5748 0.4011
N4_16 N 0.58636(12) 0.51659(5) 0.27265(18)
N5_16 N 0.15631(11) 0.52216(5) 0.16867(17)
N6_16 N 0.21267(15) 0.57115(5) 0.0517(2)
H51_16 H 0.1948 0.5794 0.0290
N7_16 N 0.25938(13) 0.57397(5) 0.0480(2)
H52_16 H 0.2754 0.5662 0.0218
N8_16 N 0.32941(11) 0.62063(5) 0.16440(17)
N11_16 N 0.99192(13) 0.57234(5) 0.4085(2)
H54_16 H 0.9768 0.5650 0.4364
N12_16 N 0.92088(11) 0.61608(5) 0.29353(18)
N13_16 N 0.84914(11) 0.61251(5) 0.18532(16)
N14_16 N 0.78706(16) 0.56364(8) 0.0840(3)
H55_16 H 0.8054 0.5540 0.0668
N15_16 N 0.73898(15) 0.56021(7) 0.0734(2)
H56_16 H 0.7253 0.5676 0.0443
N16_16 N 0.66115(11) 0.51398(5) 0.17283(17)
O1_16 O 0.43718(12) 0.63911(4) 0.12466(16)
O2_16 O 0.41152(9) 0.66395(4) 0.19313(13)
O4_16 O 0.54156(10) 0.74880(4) 0.05421(15)
O5_16 O 0.18839(13) 0.71722(6) 0.4980(2)
O7_16 O 0.31301(13) 0.66649(6) 0.23753(19)
O8_16 O 0.32300(13) 0.64821(6) 0.3080(2)
O10_16 O 0.80665(13) 0.41461(5) 0.4830(2)
O11_16 O 0.65950(10) 0.48090(5) 0.29766(16)
O12_16 O 0.68453(12) 0.46273(6) 0.21305(18)
O14_16 O 0.43669(12) 0.38391(4) 0.07565(16)
O15_16 O 0.57976(12) 0.46888(5) 0.20200(19)
O16_16 O 0.56384(14) 0.49038(5) 0.1233(2)
loop_
_geom_bond_atom_site_label_1
_geom_bond_atom_site_label_2
_geom_bond_site_symmetry_1
_geom_bond_site_symmetry_2
C37 H25 1_555 1_555
C38 C37 1_555 1_555
H26 C38 1_555 1_555
C39 C38 1_555 1_555
C40 C39 1_555 1_555
H27 C40 1_555 1_555
C41 C40 1_555 1_555
H28 C41 1_555 1_555
C42 C43 1_555 1_555
C43 H29 1_555 1_555
C44 C43 1_555 1_555
H30 C44 1_555 1_555
C45 H31 1_555 1_555
C46 C42 1_555 1_555
H32 C46 1_555 1_555
C57 C58 1_555 1_555
C58 C59 1_555 1_555
C59 H41 1_555 1_555
C63 C58 1_555 1_555
H44 C63 1_555 1_555
N9 C37 1_555 1_555
N10 C39 1_555 1_555
H53 N10 1_555 1_555
N11 C42 1_555 1_555
H54 N11 1_555 1_555
N12 C44 1_555 1_555
O9 C57 1_555 1_555
O10 C57 1_555 1_555
Zn8 O9 1_555 1_555
C41 N9 1_555 1_555
C45 C46 1_555 1_555
C45 N12 1_555 1_555
N10 N11 1_555 1_555
C47 H33 1_555 1_555
C48 C47 1_555 1_555
H34 C48 1_555 1_555
C49 C48 1_555 1_555
C50 C49 1_555 1_555
H35 C50 1_555 1_555
C51 C50 1_555 1_555
H36 C51 1_555 1_555
N13 Zn4 1_555 1_555
N14 C49 1_555 1_555
H55 N14 1_555 1_555
O19 Zn4 1_555 1_555
C47 N13 1_555 1_555
C51 N13 1_555 1_555
C1 H1 1_555 1_555
C2 C1 1_555 1_555
H2 C2 1_555 1_555
C3 C2 1_555 1_555
C4 C3 1_555 1_555
H3 C4 1_555 1_555
C5 C4 1_555 1_555
C7 C6 1_555 1_555
H6 C7 1_555 1_555
C8 C7 1_555 1_555
C9 C8 1_555 1_555
H7 C9 1_555 1_555
C10 C9 1_555 1_555
H8 C10 1_555 1_555
C19 C20 1_555 1_555
C20 C21 1_555 1_555
C21 H13 1_555 1_555
C22 C21 1_555 1_555
H14 C22 1_555 1_555
C23 C22 1_555 1_555
C24 C23 1_555 1_555
H15 C24 1_555 1_555
C25 C20 1_555 1_555
H16 C25 1_555 1_555
C26 C23 1_555 1_555
H42 C60 1_555 1_555
C61 C60 1_555 1_555
C62 C61 1_555 1_555
H43 C62 1_555 1_555
C64 C61 1_555 1_555
N1 C6 1_555 1_555
N2 C8 1_555 1_555
H49 N2 1_555 1_555
N3 C3 1_555 1_555
H50 N3 1_555 1_555
N4 C1 1_555 1_555
O5 C19 1_555 1_555
O6 C19 1_555 1_555
O8 C26 1_555 1_555
Zn7 O6 1_555 1_555
C5 N4 1_555 1_555
C10 N1 1_555 1_555
C24 C25 1_555 1_555
C64 O11 1_555 1_555
N2 N3 1_555 1_555
Zn5 N5 1_555 1_555
C11 C12 1_555 1_555
C12 C13 1_555 1_555
C13 H9 1_555 1_555
C14 C13 1_555 1_555
H10 C14 1_555 1_555
C15 C14 1_555 1_555
C16 C15 1_555 1_555
H11 C16 1_555 1_555
C17 C12 1_555 1_555
H12 C17 1_555 1_555
C18 C15 1_555 1_555
C27 H17 1_555 1_555
C28 C27 1_555 1_555
H18 C28 1_555 1_555
C29 C28 1_555 1_555
C30 C29 1_555 1_555
H19 C30 1_555 1_555
C31 C30 1_555 1_555
H20 C31 1_555 1_555
C32 C33 1_555 1_555
C33 H21 1_555 1_555
C34 C33 1_555 1_555
H22 C34 1_555 1_555
C35 H23 1_555 1_555
C36 C32 1_555 1_555
H24 C36 1_555 1_555
C52 C53 1_555 1_555
C53 H37 1_555 1_555
C54 C53 1_555 1_555
H38 C54 1_555 1_555
C55 H39 1_555 1_555
C56 C52 1_555 1_555
C65 C66 1_555 1_555
C66 C67 1_555 1_555
C67 H45 1_555 1_555
C68 C67 1_555 1_555
H46 C68 1_555 1_555
C69 C68 1_555 1_555
C70 C69 1_555 1_555
H47 C70 1_555 1_555
C71 C66 1_555 1_555
H48 C71 1_555 1_555
C72 C69 1_555 1_555
N5 C27 1_555 1_555
N6 C29 1_555 1_555
H51 N6 1_555 1_555
N7 C32 1_555 1_555
H52 N7 1_555 1_555
N8 Zn2 1_555 1_555
N15 C52 1_555 1_555
H56 N15 1_555 1_555
N16 Zn1 1_555 1_555
O1 C11 1_555 1_555
O2 Zn2 1_555 1_555
O3 C18 1_555 1_555
O4 C18 1_555 1_555
O7 Zn2 1_555 1_555
O13 C65 1_555 1_555
O14 C65 1_555 1_555
O15 Zn1 1_555 1_555
O16 C72 1_555 1_555
Zn6 O3 1_555 1_555
Zn9 O13 1_555 1_555
O18 Zn5 1_555 1_555
C11 O2 1_555 1_555
C16 C17 1_555 1_555
C31 N5 1_555 1_555
C34 N8 1_555 1_555
C35 C36 1_555 1_555
C35 N8 1_555 1_555
C54 N16 1_555 1_555
C55 C56 1_555 1_555
C55 N16 1_555 1_555
C70 C71 1_555 1_555
C72 O15 1_555 1_555
N6 N7 1_555 1_555
Zn1_2 N4_2 1_555 1_555
Zn2_2 N1_2 1_555 1_555
Zn3 N5_2 1_555 1_555
Zn8 N12_2 1_555 1_555
C1_2 H1_2 1_555 1_555
C2_2 C1_2 1_555 1_555
H2_2 C2_2 1_555 1_555
C3_2 C2_2 1_555 1_555
C4_2 C3_2 1_555 1_555
H3_2 C4_2 1_555 1_555
C5_2 C4_2 1_555 1_555
H4_2 C5_2 1_555 1_555
C6_2 H5_2 1_555 1_555
C7_2 C6_2 1_555 1_555
H6_2 C7_2 1_555 1_555
C8_2 C7_2 1_555 1_555
C9_2 C8_2 1_555 1_555
H7_2 C9_2 1_555 1_555
C10_2 C9_2 1_555 1_555
H8_2 C10_2 1_555 1_555
C11_2 C12_2 1_555 1_555
C12_2 C13_2 1_555 1_555
C13_2 H9_2 1_555 1_555
C14_2 C13_2 1_555 1_555
H10_2 C14_2 1_555 1_555
C15_2 C14_2 1_555 1_555
C16_2 C15_2 1_555 1_555
H11_2 C16_2 1_555 1_555
C17_2 C12_2 1_555 1_555
H12_2 C17_2 1_555 1_555
C18_2 C15_2 1_555 1_555
C19_2 C20_2 1_555 1_555
C20_2 C21_2 1_555 1_555
C21_2 H13_2 1_555 1_555
C22_2 C21_2 1_555 1_555
H14_2 C22_2 1_555 1_555
C23_2 C22_2 1_555 1_555
C24_2 C23_2 1_555 1_555
H15_2 C24_2 1_555 1_555
C25_2 C20_2 1_555 1_555
H16_2 C25_2 1_555 1_555
C26_2 C23_2 1_555 1_555
C27_2 H17_2 1_555 1_555
C28_2 C27_2 1_555 1_555
H18_2 C28_2 1_555 1_555
C29_2 C28_2 1_555 1_555
C30_2 C29_2 1_555 1_555
H19_2 C30_2 1_555 1_555
C31_2 C30_2 1_555 1_555
H20_2 C31_2 1_555 1_555
C32_2 C33_2 1_555 1_555
C33_2 H21_2 1_555 1_555
C34_2 C33_2 1_555 1_555
H22_2 C34_2 1_555 1_555
C35_2 H23_2 1_555 1_555
C36_2 C32_2 1_555 1_555
H24_2 C36_2 1_555 1_555
C42_2 C43_2 1_555 1_555
C44_2 C43_2 1_555 1_555
H30_2 C44_2 1_555 1_555
C45_2 H31_2 1_555 1_555
C46_2 C42_2 1_555 1_555
H32_2 C46_2 1_555 1_555
C47_2 H33_2 1_555 1_555
C48_2 C47_2 1_555 1_555
H34_2 C48_2 1_555 1_555
C49_2 C48_2 1_555 1_555
C50_2 C49_2 1_555 1_555
H35_2 C50_2 1_555 1_555
C51_2 C50_2 1_555 1_555
H36_2 C51_2 1_555 1_555
C52_2 C53_2 1_555 1_555
C53_2 H37_2 1_555 1_555
C54_2 C53_2 1_555 1_555
H38_2 C54_2 1_555 1_555
C55_2 H39_2 1_555 1_555
C56_2 C52_2 1_555 1_555
H40_2 C56_2 1_555 1_555
C57_2 C58_2 1_555 1_555
C58_2 C59_2 1_555 1_555
C59_2 H41_2 1_555 1_555
C60_2 C59_2 1_555 1_555
H42_2 C60_2 1_555 1_555
C61_2 C60_2 1_555 1_555
C62_2 C61_2 1_555 1_555
H43_2 C62_2 1_555 1_555
C63_2 C58_2 1_555 1_555
H44_2 C63_2 1_555 1_555
C64_2 C61_2 1_555 1_555
C65_2 C66_2 1_555 1_555
C66_2 C67_2 1_555 1_555
C67_2 H45_2 1_555 1_555
C68_2 C67_2 1_555 1_555
H46_2 C68_2 1_555 1_555
C69_2 C68_2 1_555 1_555
C70_2 C69_2 1_555 1_555
H47_2 C70_2 1_555 1_555
C71_2 C66_2 1_555 1_555
H48_2 C71_2 1_555 1_555
C72_2 C69_2 1_555 1_555
N1_2 C6_2 1_555 1_555
N2_2 C8_2 1_555 1_555
H49_2 N2_2 1_555 1_555
N3_2 C3_2 1_555 1_555
H50_2 N3_2 1_555 1_555
N4_2 C1_2 1_555 1_555
N5_2 C27_2 1_555 1_555
N6_2 C29_2 1_555 1_555
H51_2 N6_2 1_555 1_555
N7_2 C32_2 1_555 1_555
H52_2 N7_2 1_555 1_555
N8_2 Zn2_2 1_555 1_555
N11_2 C42_2 1_555 1_555
H54_2 N11_2 1_555 1_555
N12_2 C44_2 1_555 1_555
N13_2 Zn8 1_555 1_555
N14_2 C49_2 1_555 1_555
H55_2 N14_2 1_555 1_555
N15_2 C52_2 1_555 1_555
H56_2 N15_2 1_555 1_555
N16_2 Zn1_2 1_555 1_555
O1_2 C11_2 1_555 1_555
O2_2 Zn2_2 1_555 1_555
O17 C18_2 1_555 1_555
O4_2 C18_2 1_555 1_555
O5_2 C19_2 1_555 1_555
O6_2 C19_2 1_555 1_555
O7_2 Zn2_2 1_555 1_555
O8_2 C26_2 1_555 1_555
O9_2 C57_2 1_555 1_555
O10_2 C57_2 1_555 1_555
O11_2 Zn1_2 1_555 1_555
O12_2 C64_2 1_555 1_555
O13_2 C65_2 1_555 1_555
O14_2 C65_2 1_555 1_555
O15_2 Zn1_2 1_555 1_555
O16_2 C72_2 1_555 1_555
Zn7_2 O6_2 1_555 1_555
Zn8_2 O9_2 1_555 1_555
N17 Zn3 1_555 1_555
O17_2 Zn3 1_555 1_555
O18_2 Zn3 1_555 1_555
O20_2 Zn8 1_555 1_555
C5_2 N4_2 1_555 1_555
C10_2 N1_2 1_555 1_555
C11_2 O2_2 1_555 1_555
C16_2 C17_2 1_555 1_555
C24_2 C25_2 1_555 1_555
C26_2 O7_2 1_555 1_555
C31_2 N5_2 1_555 1_555
C34_2 N8_2 1_555 1_555
C35_2 C36_2 1_555 1_555
C35_2 N8_2 1_555 1_555
C45_2 C46_2 1_555 1_555
C45_2 N12_2 1_555 1_555
C47_2 N13_2 1_555 1_555
C51_2 N13_2 1_555 1_555
C54_2 N16_2 1_555 1_555
C55_2 C56_2 1_555 1_555
C55_2 N16_2 1_555 1_555
C62_2 C63_2 1_555 1_555
C64_2 O11_2 1_555 1_555
C70_2 C71_2 1_555 1_555
C72_2 O15_2 1_555 1_555
N2_2 N3_2 1_555 1_555
N6_2 N7_2 1_555 1_555
N14_2 N15_2 1_555 1_555
C37_2 H25_2 1_555 1_555
C38_2 C37_2 1_555 1_555
H26_2 C38_2 1_555 1_555
C39_2 C38_2 1_555 1_555
C40_2 C39_2 1_555 1_555
H27_2 C40_2 1_555 1_555
C41_2 C40_2 1_555 1_555
H28_2 C41_2 1_555 1_555
N17 C37_2 1_555 1_555
N10_2 C39_2 1_555 1_555
H53_2 N10_2 1_555 1_555
C41_2 N17 1_555 1_555
Zn8_2 N12_3 1_555 1_555
C37_3 H25_3 1_555 1_555
C38_3 C37_3 1_555 1_555
H26_3 C38_3 1_555 1_555
C39_3 C38_3 1_555 1_555
C40_3 C39_3 1_555 1_555
H27_3 C40_3 1_555 1_555
C41_3 C40_3 1_555 1_555
H28_3 C41_3 1_555 1_555
C42_3 C43_3 1_555 1_555
C43_3 H29_3 1_555 1_555
C44_3 C43_3 1_555 1_555
H30_3 C44_3 1_555 1_555
C45_3 H31_3 1_555 1_555
C46_3 C42_3 1_555 1_555
H32_3 C46_3 1_555 1_555
C47_3 H33_3 1_555 1_555
C48_3 C47_3 1_555 1_555
H34_3 C48_3 1_555 1_555
C49_3 C48_3 1_555 1_555
C50_3 C49_3 1_555 1_555
H35_3 C50_3 1_555 1_555
C51_3 C50_3 1_555 1_555
H36_3 C51_3 1_555 1_555
C57_3 C58_3 1_555 1_555
C58_3 C59_3 1_555 1_555
C59_3 H41_3 1_555 1_555
C63_3 C58_3 1_555 1_555
H44_3 C63_3 1_555 1_555
N9_2 C37_3 1_555 1_555
N10_3 C39_3 1_555 1_555
H53_3 N10_3 1_555 1_555
N11_3 C42_3 1_555 1_555
H54_3 N11_3 1_555 1_555
N12_3 C44_3 1_555 1_555
N13_3 Zn8_2 1_555 1_555
N14_3 C49_3 1_555 1_555
H55_3 N14_3 1_555 1_555
O9_3 C57_3 1_555 1_555
O10_3 C57_3 1_555 1_555
Zn5_2 N9_2 1_555 1_555
Zn8_3 O9_3 1_555 1_555
O20_3 Zn8_2 1_555 1_555
C41_3 N9_2 1_555 1_555
C45_3 C46_3 1_555 1_555
C45_3 N12_3 1_555 1_555
C47_3 N13_3 1_555 1_555
C51_3 N13_3 1_555 1_555
N10_3 N11_3 1_555 1_555
Zn1_3 N4_3 1_555 1_555
Zn2_3 N1_3 1_555 1_555
Zn5_2 N5_3 1_555 1_555
C1_3 H1_3 1_555 1_555
C2_3 C1_3 1_555 1_555
H2_3 C2_3 1_555 1_555
C3_3 C2_3 1_555 1_555
C4_3 C3_3 1_555 1_555
H3_3 C4_3 1_555 1_555
C5_3 C4_3 1_555 1_555
H4_3 C5_3 1_555 1_555
C6_3 H5_3 1_555 1_555
C7_3 C6_3 1_555 1_555
H6_3 C7_3 1_555 1_555
C8_3 C7_3 1_555 1_555
C9_3 C8_3 1_555 1_555
H7_3 C9_3 1_555 1_555
C10_3 C9_3 1_555 1_555
H8_3 C10_3 1_555 1_555
C11_3 C12_3 1_555 1_555
C12_3 C13_3 1_555 1_555
C13_3 H9_3 1_555 1_555
C14_3 C13_3 1_555 1_555
H10_3 C14_3 1_555 1_555
C15_3 C14_3 1_555 1_555
C16_3 C15_3 1_555 1_555
H11_3 C16_3 1_555 1_555
C17_3 C12_3 1_555 1_555
H12_3 C17_3 1_555 1_555
C18_3 C15_3 1_555 1_555
C19_3 C20_3 1_555 1_555
C20_3 C21_3 1_555 1_555
C21_3 H13_3 1_555 1_555
C22_3 C21_3 1_555 1_555
H14_3 C22_3 1_555 1_555
C23_3 C22_3 1_555 1_555
C24_3 C23_3 1_555 1_555
H15_3 C24_3 1_555 1_555
C25_3 C20_3 1_555 1_555
H16_3 C25_3 1_555 1_555
C26_3 C23_3 1_555 1_555
C27_3 H17_3 1_555 1_555
C28_3 C27_3 1_555 1_555
H18_3 C28_3 1_555 1_555
C29_3 C28_3 1_555 1_555
C30_3 C29_3 1_555 1_555
H19_3 C30_3 1_555 1_555
C31_3 C30_3 1_555 1_555
H20_3 C31_3 1_555 1_555
C32_3 C33_3 1_555 1_555
C33_3 H21_3 1_555 1_555
C34_3 C33_3 1_555 1_555
H22_3 C34_3 1_555 1_555
C35_3 H23_3 1_555 1_555
C36_3 C32_3 1_555 1_555
H24_3 C36_3 1_555 1_555
C52_3 C53_3 1_555 1_555
C53_3 H37_3 1_555 1_555
C54_3 C53_3 1_555 1_555
H38_3 C54_3 1_555 1_555
C55_3 H39_3 1_555 1_555
C56_3 C52_3 1_555 1_555
H42_3 C60_3 1_555 1_555
C61_3 C60_3 1_555 1_555
C62_3 C61_3 1_555 1_555
H43_3 C62_3 1_555 1_555
C64_3 C61_3 1_555 1_555
C65_3 C66_3 1_555 1_555
C66_3 C67_3 1_555 1_555
C67_3 H45_3 1_555 1_555
C68_3 C67_3 1_555 1_555
H46_3 C68_3 1_555 1_555
C69_3 C68_3 1_555 1_555
C70_3 C69_3 1_555 1_555
H47_3 C70_3 1_555 1_555
C71_3 C66_3 1_555 1_555
H48_3 C71_3 1_555 1_555
C72_3 C69_3 1_555 1_555
N1_3 C6_3 1_555 1_555
N2_3 C8_3 1_555 1_555
H49_3 N2_3 1_555 1_555
N3_3 C3_3 1_555 1_555
H50_3 N3_3 1_555 1_555
N4_3 C1_3 1_555 1_555
N5_3 C27_3 1_555 1_555
N6_3 C29_3 1_555 1_555
H51_3 N6_3 1_555 1_555
N7_3 C32_3 1_555 1_555
H52_3 N7_3 1_555 1_555
N8_3 Zn2_3 1_555 1_555
N15_3 C52_3 1_555 1_555
H56_3 N15_3 1_555 1_555
N16_3 Zn1_3 1_555 1_555
O1_3 C11_3 1_555 1_555
O2_3 Zn2_3 1_555 1_555
O17_2 C18_3 1_555 1_555
O4_3 C18_3 1_555 1_555
O5_3 C19_3 1_555 1_555
O6_3 C19_3 1_555 1_555
O7_3 Zn2_3 1_555 1_555
O8_3 C26_3 1_555 1_555
O11_3 Zn1_3 1_555 1_555
O12_3 C64_3 1_555 1_555
O13_3 C65_3 1_555 1_555
O14_3 C65_3 1_555 1_555
O15_3 Zn1_3 1_555 1_555
O16_3 C72_3 1_555 1_555
Zn7_3 O6_3 1_555 1_555
Zn9_3 O13_3 1_555 1_555
O17_3 Zn5_2 1_555 1_555
O18_3 Zn5_2 1_555 1_555
C5_3 N4_3 1_555 1_555
C10_3 N1_3 1_555 1_555
C11_3 O2_3 1_555 1_555
C16_3 C17_3 1_555 1_555
C24_3 C25_3 1_555 1_555
C26_3 O7_3 1_555 1_555
C31_3 N5_3 1_555 1_555
C34_3 N8_3 1_555 1_555
C35_3 C36_3 1_555 1_555
C35_3 N8_3 1_555 1_555
C54_3 N16_3 1_555 1_555
C55_3 C56_3 1_555 1_555
C55_3 N16_3 1_555 1_555
C64_3 O11_3 1_555 1_555
C70_3 C71_3 1_555 1_555
C72_3 O15_3 1_555 1_555
N2_3 N3_3 1_555 1_555
N6_3 N7_3 1_555 1_555
C57_4 C58_4 1_555 1_555
C58_4 C59_4 1_555 1_555
C59_4 H41_4 1_555 1_555
C60_4 C59_4 1_555 1_555
H42_4 C60_4 1_555 1_555
C61_4 C60_4 1_555 1_555
C62_4 C61_4 1_555 1_555
H43_4 C62_4 1_555 1_555
C63_4 C58_4 1_555 1_555
H44_4 C63_4 1_555 1_555
C64_4 C61_4 1_555 1_555
C65_4 C66_4 1_555 1_555
C66_4 C67_4 1_555 1_555
C67_4 H45_4 1_555 1_555
C68_4 C67_4 1_555 1_555
H46_4 C68_4 1_555 1_555
C69_4 C68_4 1_555 1_555
C70_4 C69_4 1_555 1_555
H47_4 C70_4 1_555 1_555
C71_4 C66_4 1_555 1_555
H48_4 C71_4 1_555 1_555
C72_4 C69_4 1_555 1_555
O19 C57_4 1_555 1_555
O10_4 C57_4 1_555 1_555
O11_4 Zn1_4 1_555 1_555
O12_4 C64_4 1_555 1_555
O13_4 C65_4 1_555 1_555
O14_4 C65_4 1_555 1_555
O15_4 Zn1_4 1_555 1_555
O16_4 C72_4 1_555 1_555
Zn9_4 O13_4 1_555 1_555
O18_4 Zn6 1_555 1_555
C62_4 C63_4 1_555 1_555
C64_4 O11_4 1_555 1_555
C70_4 C71_4 1_555 1_555
C72_4 O15_4 1_555 1_555
Zn2_4 N1_4 1_555 1_555
Zn8_3 N12_4 1_555 1_555
C1_4 H1_4 1_555 1_555
C2_4 C1_4 1_555 1_555
H2_4 C2_4 1_555 1_555
C3_4 C2_4 1_555 1_555
C4_4 C3_4 1_555 1_555
H3_4 C4_4 1_555 1_555
C5_4 C4_4 1_555 1_555
H4_4 C5_4 1_555 1_555
C6_4 H5_4 1_555 1_555
C7_4 C6_4 1_555 1_555
H6_4 C7_4 1_555 1_555
C8_4 C7_4 1_555 1_555
C9_4 C8_4 1_555 1_555
H7_4 C9_4 1_555 1_555
C10_4 C9_4 1_555 1_555
H8_4 C10_4 1_555 1_555
C11_4 C12_4 1_555 1_555
C12_4 C13_4 1_555 1_555
C13_4 H9_4 1_555 1_555
C14_4 C13_4 1_555 1_555
H10_4 C14_4 1_555 1_555
C15_4 C14_4 1_555 1_555
C16_4 C15_4 1_555 1_555
H11_4 C16_4 1_555 1_555
C17_4 C12_4 1_555 1_555
H12_4 C17_4 1_555 1_555
C18_4 C15_4 1_555 1_555
C19_4 C20_4 1_555 1_555
C20_4 C21_4 1_555 1_555
C21_4 H13_4 1_555 1_555
C22_4 C21_4 1_555 1_555
H14_4 C22_4 1_555 1_555
C23_4 C22_4 1_555 1_555
C24_4 C23_4 1_555 1_555
H15_4 C24_4 1_555 1_555
C25_4 C20_4 1_555 1_555
H16_4 C25_4 1_555 1_555
C26_4 C23_4 1_555 1_555
C27_4 H17_4 1_555 1_555
C28_4 C27_4 1_555 1_555
H18_4 C28_4 1_555 1_555
C29_4 C28_4 1_555 1_555
C30_4 C29_4 1_555 1_555
H19_4 C30_4 1_555 1_555
C31_4 C30_4 1_555 1_555
H20_4 C31_4 1_555 1_555
C32_4 C33_4 1_555 1_555
C33_4 H21_4 1_555 1_555
C34_4 C33_4 1_555 1_555
H22_4 C34_4 1_555 1_555
C35_4 H23_4 1_555 1_555
C36_4 C32_4 1_555 1_555
H24_4 C36_4 1_555 1_555
C42_4 C43_4 1_555 1_555
C44_4 C43_4 1_555 1_555
H30_4 C44_4 1_555 1_555
C45_4 H31_4 1_555 1_555
C46_4 C42_4 1_555 1_555
H32_4 C46_4 1_555 1_555
C47_4 H33_4 1_555 1_555
C48_4 C47_4 1_555 1_555
H34_4 C48_4 1_555 1_555
C49_4 C48_4 1_555 1_555
C50_4 C49_4 1_555 1_555
H35_4 C50_4 1_555 1_555
C51_4 C50_4 1_555 1_555
H36_4 C51_4 1_555 1_555
C52_4 C53_4 1_555 1_555
C53_4 H37_4 1_555 1_555
C54_4 C53_4 1_555 1_555
H38_4 C54_4 1_555 1_555
C55_4 H39_4 1_555 1_555
C56_4 C52_4 1_555 1_555
H40_4 C56_4 1_555 1_555
N1_4 C6_4 1_555 1_555
N2_4 C8_4 1_555 1_555
H49_4 N2_4 1_555 1_555
N3_4 C3_4 1_555 1_555
H50_4 N3_4 1_555 1_555
N4_4 C1_4 1_555 1_555
N5_4 C27_4 1_555 1_555
N6_4 C29_4 1_555 1_555
H51_4 N6_4 1_555 1_555
N7_4 C32_4 1_555 1_555
H52_4 N7_4 1_555 1_555
N8_4 Zn2_4 1_555 1_555
N11_4 C42_4 1_555 1_555
H54_4 N11_4 1_555 1_555
N12_4 C44_4 1_555 1_555
N13_4 Zn8_3 1_555 1_555
N14_4 C49_4 1_555 1_555
H55_4 N14_4 1_555 1_555
N15_4 C52_4 1_555 1_555
H56_4 N15_4 1_555 1_555
O1_4 C11_4 1_555 1_555
O2_4 Zn2_4 1_555 1_555
O17_3 C18_4 1_555 1_555
O4_4 C18_4 1_555 1_555
O5_4 C19_4 1_555 1_555
O6_4 C19_4 1_555 1_555
O7_4 Zn2_4 1_555 1_555
O8_4 C26_4 1_555 1_555
Zn7_4 O6_4 1_555 1_555
O20_4 Zn8_3 1_555 1_555
C5_4 N4_4 1_555 1_555
C10_4 N1_4 1_555 1_555
C11_4 O2_4 1_555 1_555
C16_4 C17_4 1_555 1_555
C24_4 C25_4 1_555 1_555
C26_4 O7_4 1_555 1_555
C31_4 N5_4 1_555 1_555
C34_4 N8_4 1_555 1_555
C35_4 C36_4 1_555 1_555
C35_4 N8_4 1_555 1_555
C45_4 C46_4 1_555 1_555
C45_4 N12_4 1_555 1_555
C47_4 N13_4 1_555 1_555
C51_4 N13_4 1_555 1_555
C54_4 N16_4 1_555 1_555
C55_4 C56_4 1_555 1_555
C55_4 N16_4 1_555 1_555
N2_4 N3_4 1_555 1_555
N6_4 N7_4 1_555 1_555
N14_4 N15_4 1_555 1_555
C37_4 H25_4 1_555 1_555
C38_4 C37_4 1_555 1_555
H26_4 C38_4 1_555 1_555
C39_4 C38_4 1_555 1_555
C40_4 C39_4 1_555 1_555
H27_4 C40_4 1_555 1_555
C41_4 C40_4 1_555 1_555
H28_4 C41_4 1_555 1_555
N17_2 C37_4 1_555 1_555
N10_4 C39_4 1_555 1_555
H53_4 N10_4 1_555 1_555
C41_4 N17_2 1_555 1_555
Zn1_5 N4_5 1_555 1_555
Zn2_5 N1_5 1_555 1_555
Zn9_4 N12_5 1_555 1_555
C1_5 H1_5 1_555 1_555
C2_5 C1_5 1_555 1_555
H2_5 C2_5 1_555 1_555
C3_5 C2_5 1_555 1_555
C4_5 C3_5 1_555 1_555
H3_5 C4_5 1_555 1_555
C5_5 C4_5 1_555 1_555
H4_5 C5_5 1_555 1_555
C6_5 H5_5 1_555 1_555
C7_5 C6_5 1_555 1_555
H6_5 C7_5 1_555 1_555
C8_5 C7_5 1_555 1_555
C9_5 C8_5 1_555 1_555
H7_5 C9_5 1_555 1_555
C10_5 C9_5 1_555 1_555
H8_5 C10_5 1_555 1_555
C11_5 C12_5 1_555 1_555
C12_5 C13_5 1_555 1_555
C13_5 H9_5 1_555 1_555
C14_5 C13_5 1_555 1_555
H10_5 C14_5 1_555 1_555
C15_5 C14_5 1_555 1_555
C16_5 C15_5 1_555 1_555
H11_5 C16_5 1_555 1_555
C17_5 C12_5 1_555 1_555
H12_5 C17_5 1_555 1_555
C18_5 C15_5 1_555 1_555
H14_5 C22_5 1_555 1_555
C23_5 C22_5 1_555 1_555
C24_5 C23_5 1_555 1_555
H15_5 C24_5 1_555 1_555
C26_5 C23_5 1_555 1_555
C32_5 C33_5 1_555 1_555
C34_5 C33_5 1_555 1_555
H22_5 C34_5 1_555 1_555
C35_5 H23_5 1_555 1_555
C36_5 C32_5 1_555 1_555
H24_5 C36_5 1_555 1_555
C37_5 H25_5 1_555 1_555
C38_5 C37_5 1_555 1_555
H26_5 C38_5 1_555 1_555
C39_5 C38_5 1_555 1_555
C40_5 C39_5 1_555 1_555
H27_5 C40_5 1_555 1_555
C41_5 C40_5 1_555 1_555
H28_5 C41_5 1_555 1_555
C42_5 C43_5 1_555 1_555
C43_5 H29_5 1_555 1_555
C44_5 C43_5 1_555 1_555
H30_5 C44_5 1_555 1_555
C45_5 H31_5 1_555 1_555
C46_5 C42_5 1_555 1_555
H32_5 C46_5 1_555 1_555
C47_5 H33_5 1_555 1_555
C48_5 C47_5 1_555 1_555
H34_5 C48_5 1_555 1_555
C49_5 C48_5 1_555 1_555
C50_5 C49_5 1_555 1_555
H35_5 C50_5 1_555 1_555
C51_5 C50_5 1_555 1_555
H36_5 C51_5 1_555 1_555
C52_5 C53_5 1_555 1_555
C53_5 H37_5 1_555 1_555
C54_5 C53_5 1_555 1_555
H38_5 C54_5 1_555 1_555
C55_5 H39_5 1_555 1_555
C56_5 C52_5 1_555 1_555
H40_5 C56_5 1_555 1_555
C57_5 C58_5 1_555 1_555
C58_5 C59_5 1_555 1_555
C59_5 H41_5 1_555 1_555
C60_5 C59_5 1_555 1_555
H42_5 C60_5 1_555 1_555
C61_5 C60_5 1_555 1_555
C62_5 C61_5 1_555 1_555
H43_5 C62_5 1_555 1_555
C63_5 C58_5 1_555 1_555
H44_5 C63_5 1_555 1_555
C64_5 C61_5 1_555 1_555
C65_5 C66_5 1_555 1_555
C66_5 C67_5 1_555 1_555
C67_5 H45_5 1_555 1_555
C68_5 C67_5 1_555 1_555
H46_5 C68_5 1_555 1_555
C69_5 C68_5 1_555 1_555
C70_5 C69_5 1_555 1_555
H47_5 C70_5 1_555 1_555
C71_5 C66_5 1_555 1_555
H48_5 C71_5 1_555 1_555
C72_5 C69_5 1_555 1_555
N1_5 C6_5 1_555 1_555
N2_5 C8_5 1_555 1_555
H49_5 N2_5 1_555 1_555
N3_5 C3_5 1_555 1_555
H50_5 N3_5 1_555 1_555
N4_5 C1_5 1_555 1_555
N7_5 C32_5 1_555 1_555
H52_5 N7_5 1_555 1_555
N8_5 Zn2_5 1_555 1_555
N9_3 C37_5 1_555 1_555
N10_5 C39_5 1_555 1_555
H53_5 N10_5 1_555 1_555
N11_5 C42_5 1_555 1_555
H54_5 N11_5 1_555 1_555
N12_5 C44_5 1_555 1_555
N13_5 Zn9_4 1_555 1_555
N14_5 C49_5 1_555 1_555
H55_5 N14_5 1_555 1_555
N15_5 C52_5 1_555 1_555
H56_5 N15_5 1_555 1_555
N16_5 Zn1_5 1_555 1_555
O1_5 C11_5 1_555 1_555
O2_5 Zn2_5 1_555 1_555
O3_2 C18_5 1_555 1_555
O4_5 C18_5 1_555 1_555
O7_5 Zn2_5 1_555 1_555
O8_5 C26_5 1_555 1_555
O9_4 C57_5 1_555 1_555
O10_5 C57_5 1_555 1_555
O11_5 Zn1_5 1_555 1_555
O12_5 C64_5 1_555 1_555
O20_2 C65_5 1_555 1_555
O14_5 C65_5 1_555 1_555
O15_5 Zn1_5 1_555 1_555
O16_5 C72_5 1_555 1_555
Zn7_2 N9_3 1_555 1_555
Zn7 O3_2 1_555 1_555
Zn9 O9_4 1_555 1_555
O19_2 Zn9_4 1_555 1_555
C5_5 N4_5 1_555 1_555
C10_5 N1_5 1_555 1_555
C11_5 O2_5 1_555 1_555
C16_5 C17_5 1_555 1_555
C26_5 O7_5 1_555 1_555
C34_5 N8_5 1_555 1_555
C35_5 C36_5 1_555 1_555
C35_5 N8_5 1_555 1_555
C41_5 N9_3 1_555 1_555
C45_5 C46_5 1_555 1_555
C45_5 N12_5 1_555 1_555
C47_5 N13_5 1_555 1_555
C51_5 N13_5 1_555 1_555
C54_5 N16_5 1_555 1_555
C55_5 C56_5 1_555 1_555
C55_5 N16_5 1_555 1_555
C62_5 C63_5 1_555 1_555
C64_5 O11_5 1_555 1_555
C70_5 C71_5 1_555 1_555
C72_5 O15_5 1_555 1_555
N2_5 N3_5 1_555 1_555
N10_5 N11_5 1_555 1_555
N14_5 N15_5 1_555 1_555
Zn7_2 N5_5 1_555 1_555
C19_5 C20_5 1_555 1_555
C20_5 C21_5 1_555 1_555
C21_5 H13_5 1_555 1_555
C25_5 C20_5 1_555 1_555
H16_5 C25_5 1_555 1_555
C27_5 H17_5 1_555 1_555
C28_5 C27_5 1_555 1_555
H18_5 C28_5 1_555 1_555
C29_5 C28_5 1_555 1_555
C30_5 C29_5 1_555 1_555
C31_5 C30_5 1_555 1_555
H20_5 C31_5 1_555 1_555
N5_5 C27_5 1_555 1_555
N6_5 C29_5 1_555 1_555
H51_5 N6_5 1_555 1_555
O5_5 C19_5 1_555 1_555
O18_4 C19_5 1_555 1_555
O17_4 Zn7_2 1_555 1_555
C31_5 N5_5 1_555 1_555
Zn2_6 N1_6 1_555 1_555
Zn7_3 N5_6 1_555 1_555
C6_6 H5_6 1_555 1_555
C7_6 C6_6 1_555 1_555
C8_6 C7_6 1_555 1_555
C9_6 C8_6 1_555 1_555
H7_6 C9_6 1_555 1_555
C10_6 C9_6 1_555 1_555
H8_6 C10_6 1_555 1_555
C11_6 C12_6 1_555 1_555
H11_6 C16_6 1_555 1_555
C17_6 C12_6 1_555 1_555
H12_6 C17_6 1_555 1_555
C19_6 C20_6 1_555 1_555
C20_6 C21_6 1_555 1_555
C21_6 H13_6 1_555 1_555
C22_6 C21_6 1_555 1_555
H14_6 C22_6 1_555 1_555
C23_6 C22_6 1_555 1_555
C24_6 C23_6 1_555 1_555
H15_6 C24_6 1_555 1_555
C25_6 C20_6 1_555 1_555
H16_6 C25_6 1_555 1_555
C26_6 C23_6 1_555 1_555
C27_6 H17_6 1_555 1_555
C28_6 C27_6 1_555 1_555
H18_6 C28_6 1_555 1_555
C29_6 C28_6 1_555 1_555
C30_6 C29_6 1_555 1_555
H19_6 C30_6 1_555 1_555
C31_6 C30_6 1_555 1_555
H20_6 C31_6 1_555 1_555
C32_6 C33_6 1_555 1_555
C33_6 H21_6 1_555 1_555
C34_6 C33_6 1_555 1_555
H22_6 C34_6 1_555 1_555
C35_6 H23_6 1_555 1_555
C36_6 C32_6 1_555 1_555
H24_6 C36_6 1_555 1_555
C65_6 C66_6 1_555 1_555
C66_6 C67_6 1_555 1_555
C67_6 H45_6 1_555 1_555
C68_6 C67_6 1_555 1_555
H46_6 C68_6 1_555 1_555
N1_6 C6_6 1_555 1_555
N2_6 C8_6 1_555 1_555
H49_6 N2_6 1_555 1_555
N5_6 C27_6 1_555 1_555
N6_6 C29_6 1_555 1_555
H51_6 N6_6 1_555 1_555
N7_6 C32_6 1_555 1_555
H52_6 N7_6 1_555 1_555
N8_6 Zn2_6 1_555 1_555
O1_6 C11_6 1_555 1_555
O2_6 Zn2_6 1_555 1_555
O5_6 C19_6 1_555 1_555
O18 C19_6 1_555 1_555
O7_6 Zn2_6 1_555 1_555
O8_6 C26_6 1_555 1_555
O20_3 C65_6 1_555 1_555
O14_6 C65_6 1_555 1_555
N17_3 Zn7_3 1_555 1_555
O17_5 Zn7_3 1_555 1_555
C10_6 N1_6 1_555 1_555
C11_6 O2_6 1_555 1_555
C16_6 C17_6 1_555 1_555
C24_6 C25_6 1_555 1_555
C26_6 O7_6 1_555 1_555
C31_6 N5_6 1_555 1_555
C34_6 N8_6 1_555 1_555
C35_6 C36_6 1_555 1_555
C35_6 N8_6 1_555 1_555
N6_6 N7_6 1_555 1_555
Zn1_6 N4_6 1_555 1_555
Zn9 N12_6 1_555 1_555
C1_6 H1_6 1_555 1_555
C2_6 C1_6 1_555 1_555
H2_6 C2_6 1_555 1_555
C3_6 C2_6 1_555 1_555
C4_6 C3_6 1_555 1_555
C5_6 C4_6 1_555 1_555
H4_6 C5_6 1_555 1_555
C13_6 H9_6 1_555 1_555
C14_6 C13_6 1_555 1_555
H10_6 C14_6 1_555 1_555
C15_6 C14_6 1_555 1_555
C18_6 C15_6 1_555 1_555
C37_6 H25_6 1_555 1_555
C38_6 C37_6 1_555 1_555
H26_6 C38_6 1_555 1_555
C39_6 C38_6 1_555 1_555
C40_6 C39_6 1_555 1_555
H27_6 C40_6 1_555 1_555
C41_6 C40_6 1_555 1_555
H28_6 C41_6 1_555 1_555
C42_6 C43_6 1_555 1_555
C43_6 H29_6 1_555 1_555
C44_6 C43_6 1_555 1_555
H30_6 C44_6 1_555 1_555
C45_6 H31_6 1_555 1_555
C46_6 C42_6 1_555 1_555
H32_6 C46_6 1_555 1_555
C47_6 H33_6 1_555 1_555
C48_6 C47_6 1_555 1_555
H34_6 C48_6 1_555 1_555
C49_6 C48_6 1_555 1_555
C50_6 C49_6 1_555 1_555
H35_6 C50_6 1_555 1_555
C51_6 C50_6 1_555 1_555
H36_6 C51_6 1_555 1_555
C52_6 C53_6 1_555 1_555
C53_6 H37_6 1_555 1_555
C54_6 C53_6 1_555 1_555
H38_6 C54_6 1_555 1_555
C55_6 H39_6 1_555 1_555
C56_6 C52_6 1_555 1_555
H40_6 C56_6 1_555 1_555
C57_6 C58_6 1_555 1_555
C58_6 C59_6 1_555 1_555
C59_6 H41_6 1_555 1_555
C60_6 C59_6 1_555 1_555
H42_6 C60_6 1_555 1_555
C61_6 C60_6 1_555 1_555
C62_6 C61_6 1_555 1_555
H43_6 C62_6 1_555 1_555
C63_6 C58_6 1_555 1_555
H44_6 C63_6 1_555 1_555
C64_6 C61_6 1_555 1_555
C70_6 C69_6 1_555 1_555
H47_6 C70_6 1_555 1_555
H48_6 C71_6 1_555 1_555
C72_6 C69_6 1_555 1_555
N3_6 C3_6 1_555 1_555
H50_6 N3_6 1_555 1_555
N4_6 C1_6 1_555 1_555
N17_3 C37_6 1_555 1_555
N10_6 C39_6 1_555 1_555
H53_6 N10_6 1_555 1_555
N11_6 C42_6 1_555 1_555
H54_6 N11_6 1_555 1_555
N12_6 C44_6 1_555 1_555
N13_6 Zn9 1_555 1_555
N14_6 C49_6 1_555 1_555
H55_6 N14_6 1_555 1_555
N15_6 C52_6 1_555 1_555
H56_6 N15_6 1_555 1_555
N16_6 Zn1_6 1_555 1_555
O17_4 C18_6 1_555 1_555
O4_6 C18_6 1_555 1_555
O9_5 C57_6 1_555 1_555
O10_6 C57_6 1_555 1_555
O11_6 Zn1_6 1_555 1_555
O12_6 C64_6 1_555 1_555
O15_6 Zn1_6 1_555 1_555
O16_6 C72_6 1_555 1_555
Zn9_2 O9_5 1_555 1_555
C5_6 N4_6 1_555 1_555
C41_6 N17_3 1_555 1_555
C45_6 C46_6 1_555 1_555
C45_6 N12_6 1_555 1_555
C47_6 N13_6 1_555 1_555
C51_6 N13_6 1_555 1_555
C54_6 N16_6 1_555 1_555
C55_6 C56_6 1_555 1_555
C55_6 N16_6 1_555 1_555
C62_6 C63_6 1_555 1_555
C64_6 O11_6 1_555 1_555
C70_6 C71_6 1_555 1_555
C72_6 O15_6 1_555 1_555
N10_6 N11_6 1_555 1_555
N14_6 N15_6 1_555 1_555
C1_7 H1_7 1_555 1_555
C2_7 C1_7 1_555 1_555
H2_7 C2_7 1_555 1_555
C3_7 C2_7 1_555 1_555
C4_7 C3_7 1_555 1_555
H3_7 C4_7 1_555 1_555
C5_7 C4_7 1_555 1_555
C7_7 C6_7 1_555 1_555
H6_7 C7_7 1_555 1_555
C8_7 C7_7 1_555 1_555
C9_7 C8_7 1_555 1_555
H7_7 C9_7 1_555 1_555
C10_7 C9_7 1_555 1_555
H8_7 C10_7 1_555 1_555
H14_7 C22_7 1_555 1_555
C23_7 C22_7 1_555 1_555
C24_7 C23_7 1_555 1_555
H15_7 C24_7 1_555 1_555
C26_7 C23_7 1_555 1_555
C37_7 H25_7 1_555 1_555
C38_7 C37_7 1_555 1_555
H26_7 C38_7 1_555 1_555
C39_7 C38_7 1_555 1_555
C40_7 C39_7 1_555 1_555
H27_7 C40_7 1_555 1_555
C41_7 C40_7 1_555 1_555
H28_7 C41_7 1_555 1_555
C42_7 C43_7 1_555 1_555
C43_7 H29_7 1_555 1_555
C44_7 C43_7 1_555 1_555
H30_7 C44_7 1_555 1_555
C45_7 H31_7 1_555 1_555
C46_7 C42_7 1_555 1_555
H32_7 C46_7 1_555 1_555
C57_7 C58_7 1_555 1_555
C58_7 C59_7 1_555 1_555
C59_7 H41_7 1_555 1_555
C60_7 C59_7 1_555 1_555
H42_7 C60_7 1_555 1_555
C61_7 C60_7 1_555 1_555
C62_7 C61_7 1_555 1_555
H43_7 C62_7 1_555 1_555
C63_7 C58_7 1_555 1_555
H44_7 C63_7 1_555 1_555
C64_7 C61_7 1_555 1_555
N1_7 C6_7 1_555 1_555
N2_7 C8_7 1_555 1_555
H49_7 N2_7 1_555 1_555
N3_7 C3_7 1_555 1_555
H50_7 N3_7 1_555 1_555
N4_7 C1_7 1_555 1_555
N9_4 C37_7 1_555 1_555
N10_7 C39_7 1_555 1_555
H53_7 N10_7 1_555 1_555
N11_7 C42_7 1_555 1_555
H54_7 N11_7 1_555 1_555
N12_7 C44_7 1_555 1_555
O8_7 C26_7 1_555 1_555
O9_6 C57_7 1_555 1_555
O10_7 C57_7 1_555 1_555
Zn9_3 O9_6 1_555 1_555
C5_7 N4_7 1_555 1_555
C10_7 N1_7 1_555 1_555
C41_7 N9_4 1_555 1_555
C45_7 C46_7 1_555 1_555
C45_7 N12_7 1_555 1_555
C62_7 C63_7 1_555 1_555
C64_7 O11_7 1_555 1_555
N2_7 N3_7 1_555 1_555
N10_7 N11_7 1_555 1_555
C11_7 C12_7 1_555 1_555
C12_7 C13_7 1_555 1_555
C13_7 H9_7 1_555 1_555
C14_7 C13_7 1_555 1_555
H10_7 C14_7 1_555 1_555
C15_7 C14_7 1_555 1_555
C16_7 C15_7 1_555 1_555
H11_7 C16_7 1_555 1_555
C17_7 C12_7 1_555 1_555
H12_7 C17_7 1_555 1_555
C18_7 C15_7 1_555 1_555
C32_7 C33_7 1_555 1_555
C34_7 C33_7 1_555 1_555
H22_7 C34_7 1_555 1_555
C35_7 H23_7 1_555 1_555
C36_7 C32_7 1_555 1_555
H24_7 C36_7 1_555 1_555
C47_7 H33_7 1_555 1_555
C48_7 C47_7 1_555 1_555
H34_7 C48_7 1_555 1_555
C49_7 C48_7 1_555 1_555
C50_7 C49_7 1_555 1_555
H35_7 C50_7 1_555 1_555
C51_7 C50_7 1_555 1_555
H36_7 C51_7 1_555 1_555
C52_7 C53_7 1_555 1_555
C53_7 H37_7 1_555 1_555
C54_7 C53_7 1_555 1_555
H38_7 C54_7 1_555 1_555
C55_7 H39_7 1_555 1_555
C56_7 C52_7 1_555 1_555
H40_7 C56_7 1_555 1_555
C65_7 C66_7 1_555 1_555
C66_7 C67_7 1_555 1_555
C67_7 H45_7 1_555 1_555
C68_7 C67_7 1_555 1_555
H46_7 C68_7 1_555 1_555
C69_7 C68_7 1_555 1_555
C70_7 C69_7 1_555 1_555
H47_7 C70_7 1_555 1_555
C71_7 C66_7 1_555 1_555
H48_7 C71_7 1_555 1_555
C72_7 C69_7 1_555 1_555
N7_7 C32_7 1_555 1_555
H52_7 N7_7 1_555 1_555
N8_7 Zn2_7 1_555 1_555
N13_7 Zn9_2 1_555 1_555
N14_7 C49_7 1_555 1_555
H55_7 N14_7 1_555 1_555
N15_7 C52_7 1_555 1_555
H56_7 N15_7 1_555 1_555
N16_7 Zn1_7 1_555 1_555
O1_7 C11_7 1_555 1_555
O2_7 Zn2_7 1_555 1_555
O17_5 C18_7 1_555 1_555
O4_7 C18_7 1_555 1_555
O7_7 Zn2_7 1_555 1_555
O20_4 C65_7 1_555 1_555
O14_7 C65_7 1_555 1_555
O15_7 Zn1_7 1_555 1_555
O16_7 C72_7 1_555 1_555
C11_7 O2_7 1_555 1_555
C16_7 C17_7 1_555 1_555
C34_7 N8_7 1_555 1_555
C35_7 C36_7 1_555 1_555
C35_7 N8_7 1_555 1_555
C47_7 N13_7 1_555 1_555
C51_7 N13_7 1_555 1_555
C54_7 N16_7 1_555 1_555
C55_7 C56_7 1_555 1_555
C55_7 N16_7 1_555 1_555
C70_7 C71_7 1_555 1_555
C72_7 O15_7 1_555 1_555
N14_7 N15_7 1_555 1_555
C19_7 C20_7 1_555 1_555
C20_7 C21_7 1_555 1_555
C21_7 H13_7 1_555 1_555
C25_7 C20_7 1_555 1_555
H16_7 C25_7 1_555 1_555
O5_7 C19_7 1_555 1_555
O18_2 C19_7 1_555 1_555
Zn7_4 N5_7 1_555 1_555
C27_7 H17_7 1_555 1_555
C28_7 C27_7 1_555 1_555
H18_7 C28_7 1_555 1_555
C29_7 C28_7 1_555 1_555
C30_7 C29_7 1_555 1_555
C31_7 C30_7 1_555 1_555
H20_7 C31_7 1_555 1_555
N5_7 C27_7 1_555 1_555
N6_7 C29_7 1_555 1_555
H51_7 N6_7 1_555 1_555
C31_7 N5_7 1_555 1_555
C65_8 C66_8 1_555 1_555
C66_8 C67_8 1_555 1_555
C67_8 H45_8 1_555 1_555
C68_8 C67_8 1_555 1_555
H46_8 C68_8 1_555 1_555
O20 C65_8 1_555 1_555
O14_8 C65_8 1_555 1_555
Zn2_8 N1_8 1_555 1_555
C6_8 H5_8 1_555 1_555
C7_8 C6_8 1_555 1_555
C8_8 C7_8 1_555 1_555
C9_8 C8_8 1_555 1_555
H7_8 C9_8 1_555 1_555
C10_8 C9_8 1_555 1_555
H8_8 C10_8 1_555 1_555
C11_8 C12_8 1_555 1_555
H11_8 C16_8 1_555 1_555
C17_8 C12_8 1_555 1_555
H12_8 C17_8 1_555 1_555
C19_8 C20_8 1_555 1_555
C20_8 C21_8 1_555 1_555
C21_8 H13_8 1_555 1_555
C22_8 C21_8 1_555 1_555
H14_8 C22_8 1_555 1_555
C23_8 C22_8 1_555 1_555
C24_8 C23_8 1_555 1_555
H15_8 C24_8 1_555 1_555
C25_8 C20_8 1_555 1_555
H16_8 C25_8 1_555 1_555
C26_8 C23_8 1_555 1_555
C27_8 H17_8 1_555 1_555
C28_8 C27_8 1_555 1_555
H18_8 C28_8 1_555 1_555
C29_8 C28_8 1_555 1_555
C30_8 C29_8 1_555 1_555
H19_8 C30_8 1_555 1_555
C31_8 C30_8 1_555 1_555
H20_8 C31_8 1_555 1_555
C32_8 C33_8 1_555 1_555
C33_8 H21_8 1_555 1_555
C34_8 C33_8 1_555 1_555
H22_8 C34_8 1_555 1_555
C35_8 H23_8 1_555 1_555
C36_8 C32_8 1_555 1_555
H24_8 C36_8 1_555 1_555
N1_8 C6_8 1_555 1_555
N2_8 C8_8 1_555 1_555
H49_8 N2_8 1_555 1_555
N5_8 C27_8 1_555 1_555
N6_8 C29_8 1_555 1_555
H51_8 N6_8 1_555 1_555
N7_8 C32_8 1_555 1_555
H52_8 N7_8 1_555 1_555
N8_8 Zn2_8 1_555 1_555
O1_8 C11_8 1_555 1_555
O2_8 Zn2_8 1_555 1_555
O5_8 C19_8 1_555 1_555
O18_3 C19_8 1_555 1_555
O7_8 Zn2_8 1_555 1_555
O8_8 C26_8 1_555 1_555
C10_8 N1_8 1_555 1_555
C11_8 O2_8 1_555 1_555
C16_8 C17_8 1_555 1_555
C24_8 C25_8 1_555 1_555
C26_8 O7_8 1_555 1_555
C31_8 N5_8 1_555 1_555
C34_8 N8_8 1_555 1_555
C35_8 C36_8 1_555 1_555
C35_8 N8_8 1_555 1_555
N6_8 N7_8 1_555 1_555
C57_8 C58_8 1_555 1_555
C58_8 C59_8 1_555 1_555
C59_8 H41_8 1_555 1_555
C60_8 C59_8 1_555 1_555
H42_8 C60_8 1_555 1_555
C61_8 C60_8 1_555 1_555
C62_8 C61_8 1_555 1_555
H43_8 C62_8 1_555 1_555
C63_8 C58_8 1_555 1_555
H44_8 C63_8 1_555 1_555
C64_8 C61_8 1_555 1_555
C70_8 C69_8 1_555 1_555
H47_8 C70_8 1_555 1_555
H48_8 C71_8 1_555 1_555
C72_8 C69_8 1_555 1_555
O19_2 C57_8 1_555 1_555
O10_8 C57_8 1_555 1_555
O11_8 Zn1_8 1_555 1_555
O12_8 C64_8 1_555 1_555
O15_8 Zn1_8 1_555 1_555
O16_8 C72_8 1_555 1_555
C62_8 C63_8 1_555 1_555
C64_8 O11_8 1_555 1_555
C70_8 C71_8 1_555 1_555
C72_8 O15_8 1_555 1_555
Zn9_3 N12_8 1_555 1_555
C1_8 H1_8 1_555 1_555
C2_8 C1_8 1_555 1_555
H2_8 C2_8 1_555 1_555
C3_8 C2_8 1_555 1_555
C4_8 C3_8 1_555 1_555
C5_8 C4_8 1_555 1_555
H4_8 C5_8 1_555 1_555
C13_8 H9_8 1_555 1_555
C14_8 C13_8 1_555 1_555
H10_8 C14_8 1_555 1_555
C15_8 C14_8 1_555 1_555
C18_8 C15_8 1_555 1_555
C37_8 H25_8 1_555 1_555
C38_8 C37_8 1_555 1_555
H26_8 C38_8 1_555 1_555
C39_8 C38_8 1_555 1_555
C40_8 C39_8 1_555 1_555
H27_8 C40_8 1_555 1_555
C41_8 C40_8 1_555 1_555
H28_8 C41_8 1_555 1_555
C42_8 C43_8 1_555 1_555
C43_8 H29_8 1_555 1_555
C44_8 C43_8 1_555 1_555
H30_8 C44_8 1_555 1_555
C45_8 H31_8 1_555 1_555
C46_8 C42_8 1_555 1_555
H32_8 C46_8 1_555 1_555
C47_8 H33_8 1_555 1_555
C48_8 C47_8 1_555 1_555
H34_8 C48_8 1_555 1_555
C49_8 C48_8 1_555 1_555
C50_8 C49_8 1_555 1_555
H35_8 C50_8 1_555 1_555
C51_8 C50_8 1_555 1_555
H36_8 C51_8 1_555 1_555
C52_8 C53_8 1_555 1_555
C53_8 H37_8 1_555 1_555
C54_8 C53_8 1_555 1_555
H38_8 C54_8 1_555 1_555
C55_8 H39_8 1_555 1_555
C56_8 C52_8 1_555 1_555
H40_8 C56_8 1_555 1_555
N3_8 C3_8 1_555 1_555
H50_8 N3_8 1_555 1_555
N4_8 C1_8 1_555 1_555
N17_4 C37_8 1_555 1_555
N10_8 C39_8 1_555 1_555
H53_8 N10_8 1_555 1_555
N11_8 C42_8 1_555 1_555
H54_8 N11_8 1_555 1_555
N12_8 C44_8 1_555 1_555
N13_8 Zn9_3 1_555 1_555
N14_8 C49_8 1_555 1_555
H55_8 N14_8 1_555 1_555
N15_8 C52_8 1_555 1_555
H56_8 N15_8 1_555 1_555
O17_6 C18_8 1_555 1_555
O4_8 C18_8 1_555 1_555
C5_8 N4_8 1_555 1_555
C41_8 N17_4 1_555 1_555
C45_8 C46_8 1_555 1_555
C45_8 N12_8 1_555 1_555
C47_8 N13_8 1_555 1_555
C51_8 N13_8 1_555 1_555
C54_8 N16_8 1_555 1_555
C55_8 C56_8 1_555 1_555
C55_8 N16_8 1_555 1_555
N10_8 N11_8 1_555 1_555
N14_8 N15_8 1_555 1_555
C1_9 H1_9 1_555 1_555
C2_9 C1_9 1_555 1_555
H2_9 C2_9 1_555 1_555
C3_9 C2_9 1_555 1_555
C4_9 C3_9 1_555 1_555
H3_9 C4_9 1_555 1_555
C5_9 C4_9 1_555 1_555
C7_9 C6_9 1_555 1_555
H6_9 C7_9 1_555 1_555
C8_9 C7_9 1_555 1_555
C9_9 C8_9 1_555 1_555
H7_9 C9_9 1_555 1_555
C10_9 C9_9 1_555 1_555
H8_9 C10_9 1_555 1_555
C19_9 C20_9 1_555 1_555
C20_9 C21_9 1_555 1_555
C21_9 H13_9 1_555 1_555
C22_9 C21_9 1_555 1_555
H14_9 C22_9 1_555 1_555
C23_9 C22_9 1_555 1_555
C24_9 C23_9 1_555 1_555
H15_9 C24_9 1_555 1_555
C25_9 C20_9 1_555 1_555
H16_9 C25_9 1_555 1_555
C26_9 C23_9 1_555 1_555
H42_9 C60_9 1_555 1_555
C61_9 C60_9 1_555 1_555
C62_9 C61_9 1_555 1_555
H43_9 C62_9 1_555 1_555
C64_9 C61_9 1_555 1_555
N1_9 C6_9 1_555 1_555
N2_9 C8_9 1_555 1_555
H49_9 N2_9 1_555 1_555
N3_9 C3_9 1_555 1_555
H50_9 N3_9 1_555 1_555
N4_9 C1_9 1_555 1_555
O5_9 C19_9 1_555 1_555
O6_5 C19_9 1_555 1_555
O8_9 C26_9 1_555 1_555
Zn7_5 O6_5 1_555 1_555
C5_9 N4_9 1_555 1_555
C10_9 N1_9 1_555 1_555
C24_9 C25_9 1_555 1_555
C64_9 O11_9 1_555 1_555
N2_9 N3_9 1_555 1_555
Zn3_2 N5_9 1_555 1_555
C11_9 C12_9 1_555 1_555
C12_9 C13_9 1_555 1_555
C13_9 H9_9 1_555 1_555
C14_9 C13_9 1_555 1_555
H10_9 C14_9 1_555 1_555
C15_9 C14_9 1_555 1_555
C16_9 C15_9 1_555 1_555
H11_9 C16_9 1_555 1_555
C17_9 C12_9 1_555 1_555
H12_9 C17_9 1_555 1_555
C18_9 C15_9 1_555 1_555
C27_9 H17_9 1_555 1_555
C28_9 C27_9 1_555 1_555
H18_9 C28_9 1_555 1_555
C29_9 C28_9 1_555 1_555
C30_9 C29_9 1_555 1_555
H19_9 C30_9 1_555 1_555
C31_9 C30_9 1_555 1_555
H20_9 C31_9 1_555 1_555
C32_9 C33_9 1_555 1_555
C33_9 H21_9 1_555 1_555
C34_9 C33_9 1_555 1_555
H22_9 C34_9 1_555 1_555
C35_9 H23_9 1_555 1_555
C36_9 C32_9 1_555 1_555
H24_9 C36_9 1_555 1_555
C52_9 C53_9 1_555 1_555
C53_9 H37_9 1_555 1_555
C54_9 C53_9 1_555 1_555
H38_9 C54_9 1_555 1_555
C55_9 H39_9 1_555 1_555
C56_9 C52_9 1_555 1_555
C65_9 C66_9 1_555 1_555
C66_9 C67_9 1_555 1_555
C67_9 H45_9 1_555 1_555
C68_9 C67_9 1_555 1_555
H46_9 C68_9 1_555 1_555
C69_9 C68_9 1_555 1_555
C70_9 C69_9 1_555 1_555
H47_9 C70_9 1_555 1_555
C71_9 C66_9 1_555 1_555
H48_9 C71_9 1_555 1_555
C72_9 C69_9 1_555 1_555
N5_9 C27_9 1_555 1_555
N6_9 C29_9 1_555 1_555
H51_9 N6_9 1_555 1_555
N7_9 C32_9 1_555 1_555
H52_9 N7_9 1_555 1_555
N8_9 Zn2_9 1_555 1_555
N15_9 C52_9 1_555 1_555
H56_9 N15_9 1_555 1_555
N16_9 Zn1_9 1_555 1_555
O1_9 C11_9 1_555 1_555
O2_9 Zn2_9 1_555 1_555
O3_3 C18_9 1_555 1_555
O4_9 C18_9 1_555 1_555
O7_9 Zn2_9 1_555 1_555
O13_5 C65_9 1_555 1_555
O14_9 C65_9 1_555 1_555
O15_9 Zn1_9 1_555 1_555
O16_9 C72_9 1_555 1_555
Zn6_2 O3_3 1_555 1_555
Zn9_5 O13_5 1_555 1_555
O18_5 Zn3_2 1_555 1_555
C11_9 O2_9 1_555 1_555
C16_9 C17_9 1_555 1_555
C31_9 N5_9 1_555 1_555
C34_9 N8_9 1_555 1_555
C35_9 C36_9 1_555 1_555
C35_9 N8_9 1_555 1_555
C54_9 N16_9 1_555 1_555
C55_9 C56_9 1_555 1_555
C55_9 N16_9 1_555 1_555
C70_9 C71_9 1_555 1_555
C72_9 O15_9 1_555 1_555
N6_9 N7_9 1_555 1_555
C37_9 H25_9 1_555 1_555
C38_9 C37_9 1_555 1_555
H26_9 C38_9 1_555 1_555
C39_9 C38_9 1_555 1_555
C40_9 C39_9 1_555 1_555
H27_9 C40_9 1_555 1_555
C41_9 C40_9 1_555 1_555
H28_9 C41_9 1_555 1_555
C42_9 C43_9 1_555 1_555
C43_9 H29_9 1_555 1_555
C44_9 C43_9 1_555 1_555
H30_9 C44_9 1_555 1_555
C45_9 H31_9 1_555 1_555
C46_9 C42_9 1_555 1_555
H32_9 C46_9 1_555 1_555
C57_9 C58_9 1_555 1_555
C58_9 C59_9 1_555 1_555
C59_9 H41_9 1_555 1_555
C63_9 C58_9 1_555 1_555
H44_9 C63_9 1_555 1_555
N17_5 C37_9 1_555 1_555
N10_9 C39_9 1_555 1_555
H53_9 N10_9 1_555 1_555
N11_9 C42_9 1_555 1_555
H54_9 N11_9 1_555 1_555
N12_9 C44_9 1_555 1_555
O9_7 C57_9 1_555 1_555
O10_9 C57_9 1_555 1_555
Zn8_4 O9_7 1_555 1_555
C41_9 N17_5 1_555 1_555
C45_9 C46_9 1_555 1_555
C45_9 N12_9 1_555 1_555
N10_9 N11_9 1_555 1_555
C47_9 H33_9 1_555 1_555
C48_9 C47_9 1_555 1_555
H34_9 C48_9 1_555 1_555
C49_9 C48_9 1_555 1_555
C50_9 C49_9 1_555 1_555
H35_9 C50_9 1_555 1_555
C51_9 C50_9 1_555 1_555
H36_9 C51_9 1_555 1_555
N13_9 Zn4_2 1_555 1_555
N14_9 C49_9 1_555 1_555
H55_9 N14_9 1_555 1_555
O19_3 Zn4_2 1_555 1_555
C47_9 N13_9 1_555 1_555
C51_9 N13_9 1_555 1_555
Zn4_3 N12_10 1_555 1_555
C1_10 H1_10 1_555 1_555
C2_10 C1_10 1_555 1_555
H2_10 C2_10 1_555 1_555
C3_10 C2_10 1_555 1_555
C4_10 C3_10 1_555 1_555
C5_10 C4_10 1_555 1_555
H4_10 C5_10 1_555 1_555
C13_10 H9_10 1_555 1_555
C14_10 C13_10 1_555 1_555
H10_10 C14_10 1_555 1_555
C15_10 C14_10 1_555 1_555
C18_10 C15_10 1_555 1_555
C37_10 H25_10 1_555 1_555
C38_10 C37_10 1_555 1_555
H26_10 C38_10 1_555 1_555
C39_10 C38_10 1_555 1_555
C40_10 C39_10 1_555 1_555
H27_10 C40_10 1_555 1_555
C41_10 C40_10 1_555 1_555
H28_10 C41_10 1_555 1_555
C42_10 C43_10 1_555 1_555
C43_10 H29_10 1_555 1_555
C44_10 C43_10 1_555 1_555
H30_10 C44_10 1_555 1_555
C45_10 H31_10 1_555 1_555
C46_10 C42_10 1_555 1_555
H32_10 C46_10 1_555 1_555
C47_10 H33_10 1_555 1_555
C48_10 C47_10 1_555 1_555
H34_10 C48_10 1_555 1_555
C49_10 C48_10 1_555 1_555
C50_10 C49_10 1_555 1_555
H35_10 C50_10 1_555 1_555
C51_10 C50_10 1_555 1_555
H36_10 C51_10 1_555 1_555
C52_10 C53_10 1_555 1_555
C53_10 H37_10 1_555 1_555
C54_10 C53_10 1_555 1_555
H38_10 C54_10 1_555 1_555
C55_10 H39_10 1_555 1_555
C56_10 C52_10 1_555 1_555
H40_10 C56_10 1_555 1_555
N3_10 C3_10 1_555 1_555
H50_10 N3_10 1_555 1_555
N4_10 C1_10 1_555 1_555
N9_5 C37_10 1_555 1_555
N10_10 C39_10 1_555 1_555
H53_10 N10_10 1_555 1_555
N11_10 C42_10 1_555 1_555
H54_10 N11_10 1_555 1_555
N12_10 C44_10 1_555 1_555
N13_10 Zn4_3 1_555 1_555
N14_10 C49_10 1_555 1_555
H55_10 N14_10 1_555 1_555
N15_10 C52_10 1_555 1_555
H56_10 N15_10 1_555 1_555
O3_4 C18_10 1_555 1_555
O4_10 C18_10 1_555 1_555
O19_4 Zn4_3 1_555 1_555
O20_6 Zn4_3 1_555 1_555
C5_10 N4_10 1_555 1_555
C41_10 N9_5 1_555 1_555
C45_10 C46_10 1_555 1_555
C45_10 N12_10 1_555 1_555
C47_10 N13_10 1_555 1_555
C51_10 N13_10 1_555 1_555
C54_10 N16_10 1_555 1_555
C55_10 C56_10 1_555 1_555
C55_10 N16_10 1_555 1_555
N10_10 N11_10 1_555 1_555
N14_10 N15_10 1_555 1_555
C57_10 C58_10 1_555 1_555
C58_10 C59_10 1_555 1_555
C59_10 H41_10 1_555 1_555
C60_10 C59_10 1_555 1_555
H42_10 C60_10 1_555 1_555
C61_10 C60_10 1_555 1_555
C62_10 C61_10 1_555 1_555
H43_10 C62_10 1_555 1_555
C63_10 C58_10 1_555 1_555
H44_10 C63_10 1_555 1_555
C64_10 C61_10 1_555 1_555
C70_10 C69_10 1_555 1_555
H47_10 C70_10 1_555 1_555
H48_10 C71_10 1_555 1_555
C72_10 C69_10 1_555 1_555
O9_8 C57_10 1_555 1_555
O10_10 C57_10 1_555 1_555
O11_10 Zn1_10 1_555 1_555
O12_10 C64_10 1_555 1_555
O15_10 Zn1_10 1_555 1_555
O16_10 C72_10 1_555 1_555
Zn8_5 O9_8 1_555 1_555
C62_10 C63_10 1_555 1_555
C64_10 O11_10 1_555 1_555
C70_10 C71_10 1_555 1_555
C72_10 O15_10 1_555 1_555
Zn2_10 N1_10 1_555 1_555
C6_10 H5_10 1_555 1_555
C7_10 C6_10 1_555 1_555
C8_10 C7_10 1_555 1_555
C9_10 C8_10 1_555 1_555
H7_10 C9_10 1_555 1_555
C10_10 C9_10 1_555 1_555
H8_10 C10_10 1_555 1_555
C11_10 C12_10 1_555 1_555
H11_10 C16_10 1_555 1_555
C17_10 C12_10 1_555 1_555
H12_10 C17_10 1_555 1_555
C19_10 C20_10 1_555 1_555
C20_10 C21_10 1_555 1_555
C21_10 H13_10 1_555 1_555
C22_10 C21_10 1_555 1_555
H14_10 C22_10 1_555 1_555
C23_10 C22_10 1_555 1_555
C24_10 C23_10 1_555 1_555
H15_10 C24_10 1_555 1_555
C25_10 C20_10 1_555 1_555
H16_10 C25_10 1_555 1_555
C26_10 C23_10 1_555 1_555
C27_10 H17_10 1_555 1_555
C28_10 C27_10 1_555 1_555
H18_10 C28_10 1_555 1_555
C29_10 C28_10 1_555 1_555
C30_10 C29_10 1_555 1_555
H19_10 C30_10 1_555 1_555
C31_10 C30_10 1_555 1_555
H20_10 C31_10 1_555 1_555
C32_10 C33_10 1_555 1_555
C33_10 H21_10 1_555 1_555
C34_10 C33_10 1_555 1_555
H22_10 C34_10 1_555 1_555
C35_10 H23_10 1_555 1_555
C36_10 C32_10 1_555 1_555
H24_10 C36_10 1_555 1_555
N1_10 C6_10 1_555 1_555
N2_10 C8_10 1_555 1_555
H49_10 N2_10 1_555 1_555
N5_10 C27_10 1_555 1_555
N6_10 C29_10 1_555 1_555
H51_10 N6_10 1_555 1_555
N7_10 C32_10 1_555 1_555
H52_10 N7_10 1_555 1_555
N8_10 Zn2_10 1_555 1_555
O1_10 C11_10 1_555 1_555
O2_10 Zn2_10 1_555 1_555
O5_10 C19_10 1_555 1_555
O6_6 C19_10 1_555 1_555
O7_10 Zn2_10 1_555 1_555
O8_10 C26_10 1_555 1_555
Zn7_6 O6_6 1_555 1_555
C10_10 N1_10 1_555 1_555
C11_10 O2_10 1_555 1_555
C16_10 C17_10 1_555 1_555
C24_10 C25_10 1_555 1_555
C26_10 O7_10 1_555 1_555
C31_10 N5_10 1_555 1_555
C34_10 N8_10 1_555 1_555
C35_10 C36_10 1_555 1_555
C35_10 N8_10 1_555 1_555
N6_10 N7_10 1_555 1_555
C65_10 C66_10 1_555 1_555
C66_10 C67_10 1_555 1_555
C67_10 H45_10 1_555 1_555
C68_10 C67_10 1_555 1_555
H46_10 C68_10 1_555 1_555
O20_5 C65_10 1_555 1_555
O14_10 C65_10 1_555 1_555
O17_8 Zn7_5 1_555 1_555
Zn1_11 N4_11 1_555 1_555
Zn2_11 N1_11 1_555 1_555
Zn7_6 N5_11 1_555 1_555
C1_11 H1_11 1_555 1_555
C2_11 C1_11 1_555 1_555
H2_11 C2_11 1_555 1_555
C3_11 C2_11 1_555 1_555
C4_11 C3_11 1_555 1_555
H3_11 C4_11 1_555 1_555
C5_11 C4_11 1_555 1_555
H4_11 C5_11 1_555 1_555
C6_11 H5_11 1_555 1_555
C7_11 C6_11 1_555 1_555
H6_11 C7_11 1_555 1_555
C8_11 C7_11 1_555 1_555
C9_11 C8_11 1_555 1_555
H7_11 C9_11 1_555 1_555
C10_11 C9_11 1_555 1_555
H8_11 C10_11 1_555 1_555
C11_11 C12_11 1_555 1_555
C12_11 C13_11 1_555 1_555
C13_11 H9_11 1_555 1_555
C14_11 C13_11 1_555 1_555
H10_11 C14_11 1_555 1_555
C15_11 C14_11 1_555 1_555
C16_11 C15_11 1_555 1_555
H11_11 C16_11 1_555 1_555
C17_11 C12_11 1_555 1_555
H12_11 C17_11 1_555 1_555
C18_11 C15_11 1_555 1_555
C19_11 C20_11 1_555 1_555
C20_11 C21_11 1_555 1_555
C21_11 H13_11 1_555 1_555
C22_11 C21_11 1_555 1_555
H14_11 C22_11 1_555 1_555
C23_11 C22_11 1_555 1_555
C24_11 C23_11 1_555 1_555
H15_11 C24_11 1_555 1_555
C25_11 C20_11 1_555 1_555
H16_11 C25_11 1_555 1_555
C26_11 C23_11 1_555 1_555
C27_11 H17_11 1_555 1_555
C28_11 C27_11 1_555 1_555
H18_11 C28_11 1_555 1_555
C29_11 C28_11 1_555 1_555
C30_11 C29_11 1_555 1_555
H19_11 C30_11 1_555 1_555
C31_11 C30_11 1_555 1_555
H20_11 C31_11 1_555 1_555
C32_11 C33_11 1_555 1_555
C33_11 H21_11 1_555 1_555
C34_11 C33_11 1_555 1_555
H22_11 C34_11 1_555 1_555
C35_11 H23_11 1_555 1_555
C36_11 C32_11 1_555 1_555
H24_11 C36_11 1_555 1_555
C52_11 C53_11 1_555 1_555
C53_11 H37_11 1_555 1_555
C54_11 C53_11 1_555 1_555
H38_11 C54_11 1_555 1_555
C55_11 H39_11 1_555 1_555
C56_11 C52_11 1_555 1_555
H42_11 C60_11 1_555 1_555
C61_11 C60_11 1_555 1_555
C62_11 C61_11 1_555 1_555
H43_11 C62_11 1_555 1_555
C64_11 C61_11 1_555 1_555
C65_11 C66_11 1_555 1_555
C66_11 C67_11 1_555 1_555
C67_11 H45_11 1_555 1_555
C68_11 C67_11 1_555 1_555
H46_11 C68_11 1_555 1_555
C69_11 C68_11 1_555 1_555
C70_11 C69_11 1_555 1_555
H47_11 C70_11 1_555 1_555
C71_11 C66_11 1_555 1_555
H48_11 C71_11 1_555 1_555
C72_11 C69_11 1_555 1_555
N1_11 C6_11 1_555 1_555
N2_11 C8_11 1_555 1_555
H49_11 N2_11 1_555 1_555
N3_11 C3_11 1_555 1_555
H50_11 N3_11 1_555 1_555
N4_11 C1_11 1_555 1_555
N5_11 C27_11 1_555 1_555
N6_11 C29_11 1_555 1_555
H51_11 N6_11 1_555 1_555
N7_11 C32_11 1_555 1_555
H52_11 N7_11 1_555 1_555
N8_11 Zn2_11 1_555 1_555
N15_11 C52_11 1_555 1_555
H56_11 N15_11 1_555 1_555
N16_11 Zn1_11 1_555 1_555
O1_11 C11_11 1_555 1_555
O2_11 Zn2_11 1_555 1_555
O3_5 C18_11 1_555 1_555
O4_11 C18_11 1_555 1_555
O5_11 C19_11 1_555 1_555
O6_7 C19_11 1_555 1_555
O7_11 Zn2_11 1_555 1_555
O8_11 C26_11 1_555 1_555
O11_11 Zn1_11 1_555 1_555
O12_11 C64_11 1_555 1_555
O20_6 C65_11 1_555 1_555
O14_11 C65_11 1_555 1_555
O15_11 Zn1_11 1_555 1_555
O16_11 C72_11 1_555 1_555
Zn6_4 O3_5 1_555 1_555
Zn7_7 O6_7 1_555 1_555
N17_6 Zn7_6 1_555 1_555
O17_9 Zn7_6 1_555 1_555
C5_11 N4_11 1_555 1_555
C10_11 N1_11 1_555 1_555
C11_11 O2_11 1_555 1_555
C16_11 C17_11 1_555 1_555
C24_11 C25_11 1_555 1_555
C26_11 O7_11 1_555 1_555
C31_11 N5_11 1_555 1_555
C34_11 N8_11 1_555 1_555
C35_11 C36_11 1_555 1_555
C35_11 N8_11 1_555 1_555
C54_11 N16_11 1_555 1_555
C55_11 C56_11 1_555 1_555
C55_11 N16_11 1_555 1_555
C64_11 O11_11 1_555 1_555
C70_11 C71_11 1_555 1_555
C72_11 O15_11 1_555 1_555
N2_11 N3_11 1_555 1_555
N6_11 N7_11 1_555 1_555
Zn4_4 N12_11 1_555 1_555
C37_11 H25_11 1_555 1_555
C38_11 C37_11 1_555 1_555
H26_11 C38_11 1_555 1_555
C39_11 C38_11 1_555 1_555
C40_11 C39_11 1_555 1_555
H27_11 C40_11 1_555 1_555
C41_11 C40_11 1_555 1_555
H28_11 C41_11 1_555 1_555
C42_11 C43_11 1_555 1_555
C43_11 H29_11 1_555 1_555
C44_11 C43_11 1_555 1_555
H30_11 C44_11 1_555 1_555
C45_11 H31_11 1_555 1_555
C46_11 C42_11 1_555 1_555
H32_11 C46_11 1_555 1_555
C47_11 H33_11 1_555 1_555
C48_11 C47_11 1_555 1_555
H34_11 C48_11 1_555 1_555
C49_11 C48_11 1_555 1_555
C50_11 C49_11 1_555 1_555
H35_11 C50_11 1_555 1_555
C51_11 C50_11 1_555 1_555
H36_11 C51_11 1_555 1_555
C57_11 C58_11 1_555 1_555
C58_11 C59_11 1_555 1_555
C59_11 H41_11 1_555 1_555
C63_11 C58_11 1_555 1_555
H44_11 C63_11 1_555 1_555
N17_6 C37_11 1_555 1_555
N10_11 C39_11 1_555 1_555
H53_11 N10_11 1_555 1_555
N11_11 C42_11 1_555 1_555
H54_11 N11_11 1_555 1_555
N12_11 C44_11 1_555 1_555
N13_11 Zn4_4 1_555 1_555
N14_11 C49_11 1_555 1_555
H55_11 N14_11 1_555 1_555
O9_9 C57_11 1_555 1_555
O10_11 C57_11 1_555 1_555
Zn8_6 O9_9 1_555 1_555
O19_5 Zn4_4 1_555 1_555
O20_7 Zn4_4 1_555 1_555
C41_11 N17_6 1_555 1_555
C45_11 C46_11 1_555 1_555
C45_11 N12_11 1_555 1_555
C47_11 N13_11 1_555 1_555
C51_11 N13_11 1_555 1_555
N10_11 N11_11 1_555 1_555
Zn1_12 N4_12 1_555 1_555
Zn9_5 N12_12 1_555 1_555
C1_12 H1_12 1_555 1_555
C2_12 C1_12 1_555 1_555
H2_12 C2_12 1_555 1_555
C3_12 C2_12 1_555 1_555
C4_12 C3_12 1_555 1_555
C5_12 C4_12 1_555 1_555
H4_12 C5_12 1_555 1_555
C13_12 H9_12 1_555 1_555
C14_12 C13_12 1_555 1_555
H10_12 C14_12 1_555 1_555
C15_12 C14_12 1_555 1_555
C18_12 C15_12 1_555 1_555
C37_12 H25_12 1_555 1_555
C38_12 C37_12 1_555 1_555
H26_12 C38_12 1_555 1_555
C39_12 C38_12 1_555 1_555
C40_12 C39_12 1_555 1_555
H27_12 C40_12 1_555 1_555
C41_12 C40_12 1_555 1_555
H28_12 C41_12 1_555 1_555
C42_12 C43_12 1_555 1_555
C43_12 H29_12 1_555 1_555
C44_12 C43_12 1_555 1_555
H30_12 C44_12 1_555 1_555
C45_12 H31_12 1_555 1_555
C46_12 C42_12 1_555 1_555
H32_12 C46_12 1_555 1_555
C47_12 H33_12 1_555 1_555
C48_12 C47_12 1_555 1_555
H34_12 C48_12 1_555 1_555
C49_12 C48_12 1_555 1_555
C50_12 C49_12 1_555 1_555
H35_12 C50_12 1_555 1_555
C51_12 C50_12 1_555 1_555
H36_12 C51_12 1_555 1_555
C52_12 C53_12 1_555 1_555
C53_12 H37_12 1_555 1_555
C54_12 C53_12 1_555 1_555
H38_12 C54_12 1_555 1_555
C55_12 H39_12 1_555 1_555
C56_12 C52_12 1_555 1_555
H40_12 C56_12 1_555 1_555
C57_12 C58_12 1_555 1_555
C58_12 C59_12 1_555 1_555
C59_12 H41_12 1_555 1_555
C60_12 C59_12 1_555 1_555
H42_12 C60_12 1_555 1_555
C61_12 C60_12 1_555 1_555
C62_12 C61_12 1_555 1_555
H43_12 C62_12 1_555 1_555
C63_12 C58_12 1_555 1_555
H44_12 C63_12 1_555 1_555
C64_12 C61_12 1_555 1_555
C70_12 C69_12 1_555 1_555
H47_12 C70_12 1_555 1_555
H48_12 C71_12 1_555 1_555
C72_12 C69_12 1_555 1_555
N3_12 C3_12 1_555 1_555
H50_12 N3_12 1_555 1_555
N4_12 C1_12 1_555 1_555
N9_6 C37_12 1_555 1_555
N10_12 C39_12 1_555 1_555
H53_12 N10_12 1_555 1_555
N11_12 C42_12 1_555 1_555
H54_12 N11_12 1_555 1_555
N12_12 C44_12 1_555 1_555
N13_12 Zn9_5 1_555 1_555
N14_12 C49_12 1_555 1_555
H55_12 N14_12 1_555 1_555
N15_12 C52_12 1_555 1_555
H56_12 N15_12 1_555 1_555
N16_12 Zn1_12 1_555 1_555
O3_6 C18_12 1_555 1_555
O4_12 C18_12 1_555 1_555
O9_10 C57_12 1_555 1_555
O10_12 C57_12 1_555 1_555
O11_12 Zn1_12 1_555 1_555
O12_12 C64_12 1_555 1_555
O15_12 Zn1_12 1_555 1_555
O16_12 C72_12 1_555 1_555
Zn7_7 N9_6 1_555 1_555
Zn6_5 O3_6 1_555 1_555
Zn8_7 O9_10 1_555 1_555
O19_6 Zn9_5 1_555 1_555
C5_12 N4_12 1_555 1_555
C41_12 N9_6 1_555 1_555
C45_12 C46_12 1_555 1_555
C45_12 N12_12 1_555 1_555
C47_12 N13_12 1_555 1_555
C51_12 N13_12 1_555 1_555
C54_12 N16_12 1_555 1_555
C55_12 C56_12 1_555 1_555
C55_12 N16_12 1_555 1_555
C62_12 C63_12 1_555 1_555
C64_12 O11_12 1_555 1_555
C70_12 C71_12 1_555 1_555
C72_12 O15_12 1_555 1_555
N10_12 N11_12 1_555 1_555
N14_12 N15_12 1_555 1_555
Zn2_12 N1_12 1_555 1_555
Zn7_7 N5_12 1_555 1_555
C6_12 H5_12 1_555 1_555
C7_12 C6_12 1_555 1_555
C8_12 C7_12 1_555 1_555
C9_12 C8_12 1_555 1_555
H7_12 C9_12 1_555 1_555
C10_12 C9_12 1_555 1_555
H8_12 C10_12 1_555 1_555
C11_12 C12_12 1_555 1_555
H11_12 C16_12 1_555 1_555
C17_12 C12_12 1_555 1_555
H12_12 C17_12 1_555 1_555
C19_12 C20_12 1_555 1_555
C20_12 C21_12 1_555 1_555
C21_12 H13_12 1_555 1_555
C22_12 C21_12 1_555 1_555
H14_12 C22_12 1_555 1_555
C23_12 C22_12 1_555 1_555
C24_12 C23_12 1_555 1_555
H15_12 C24_12 1_555 1_555
C25_12 C20_12 1_555 1_555
H16_12 C25_12 1_555 1_555
C26_12 C23_12 1_555 1_555
C27_12 H17_12 1_555 1_555
C28_12 C27_12 1_555 1_555
H18_12 C28_12 1_555 1_555
C29_12 C28_12 1_555 1_555
C30_12 C29_12 1_555 1_555
H19_12 C30_12 1_555 1_555
C31_12 C30_12 1_555 1_555
H20_12 C31_12 1_555 1_555
C32_12 C33_12 1_555 1_555
C33_12 H21_12 1_555 1_555
C34_12 C33_12 1_555 1_555
H22_12 C34_12 1_555 1_555
C35_12 H23_12 1_555 1_555
C36_12 C32_12 1_555 1_555
H24_12 C36_12 1_555 1_555
C65_12 C66_12 1_555 1_555
C66_12 C67_12 1_555 1_555
C67_12 H45_12 1_555 1_555
C68_12 C67_12 1_555 1_555
H46_12 C68_12 1_555 1_555
N1_12 C6_12 1_555 1_555
N2_12 C8_12 1_555 1_555
H49_12 N2_12 1_555 1_555
N5_12 C27_12 1_555 1_555
N6_12 C29_12 1_555 1_555
H51_12 N6_12 1_555 1_555
N7_12 C32_12 1_555 1_555
H52_12 N7_12 1_555 1_555
N8_12 Zn2_12 1_555 1_555
O1_12 C11_12 1_555 1_555
O2_12 Zn2_12 1_555 1_555
O5_12 C19_12 1_555 1_555
O18_5 C19_12 1_555 1_555
O7_12 Zn2_12 1_555 1_555
O8_12 C26_12 1_555 1_555
O20_7 C65_12 1_555 1_555
O14_12 C65_12 1_555 1_555
O17_10 Zn7_7 1_555 1_555
C10_12 N1_12 1_555 1_555
C11_12 O2_12 1_555 1_555
C16_12 C17_12 1_555 1_555
C24_12 C25_12 1_555 1_555
C26_12 O7_12 1_555 1_555
C31_12 N5_12 1_555 1_555
C34_12 N8_12 1_555 1_555
C35_12 C36_12 1_555 1_555
C35_12 N8_12 1_555 1_555
N6_12 N7_12 1_555 1_555
Zn6_5 N5_13 1_555 1_555
C19_13 C20_13 1_555 1_555
C20_13 C21_13 1_555 1_555
C21_13 H13_13 1_555 1_555
C25_13 C20_13 1_555 1_555
H16_13 C25_13 1_555 1_555
C27_13 H17_13 1_555 1_555
C28_13 C27_13 1_555 1_555
H18_13 C28_13 1_555 1_555
C29_13 C28_13 1_555 1_555
C30_13 C29_13 1_555 1_555
C31_13 C30_13 1_555 1_555
H20_13 C31_13 1_555 1_555
N5_13 C27_13 1_555 1_555
N6_13 C29_13 1_555 1_555
H51_13 N6_13 1_555 1_555
O5_13 C19_13 1_555 1_555
O6_8 C19_13 1_555 1_555
Zn6_2 O6_8 1_555 1_555
N17_7 Zn6_5 1_555 1_555
O18_6 Zn6_5 1_555 1_555
C31_13 N5_13 1_555 1_555
Zn1_13 N4_13 1_555 1_555
Zn2_13 N1_13 1_555 1_555
Zn8_5 N12_13 1_555 1_555
C1_13 H1_13 1_555 1_555
C2_13 C1_13 1_555 1_555
H2_13 C2_13 1_555 1_555
C3_13 C2_13 1_555 1_555
C4_13 C3_13 1_555 1_555
H3_13 C4_13 1_555 1_555
C5_13 C4_13 1_555 1_555
H4_13 C5_13 1_555 1_555
C6_13 H5_13 1_555 1_555
C7_13 C6_13 1_555 1_555
H6_13 C7_13 1_555 1_555
C8_13 C7_13 1_555 1_555
C9_13 C8_13 1_555 1_555
H7_13 C9_13 1_555 1_555
C10_13 C9_13 1_555 1_555
H8_13 C10_13 1_555 1_555
C11_13 C12_13 1_555 1_555
C12_13 C13_13 1_555 1_555
C13_13 H9_13 1_555 1_555
C14_13 C13_13 1_555 1_555
H10_13 C14_13 1_555 1_555
C15_13 C14_13 1_555 1_555
C16_13 C15_13 1_555 1_555
H11_13 C16_13 1_555 1_555
C17_13 C12_13 1_555 1_555
H12_13 C17_13 1_555 1_555
C18_13 C15_13 1_555 1_555
H14_13 C22_13 1_555 1_555
C23_13 C22_13 1_555 1_555
C24_13 C23_13 1_555 1_555
H15_13 C24_13 1_555 1_555
C26_13 C23_13 1_555 1_555
C32_13 C33_13 1_555 1_555
C34_13 C33_13 1_555 1_555
H22_13 C34_13 1_555 1_555
C35_13 H23_13 1_555 1_555
C36_13 C32_13 1_555 1_555
H24_13 C36_13 1_555 1_555
C37_13 H25_13 1_555 1_555
C38_13 C37_13 1_555 1_555
H26_13 C38_13 1_555 1_555
C39_13 C38_13 1_555 1_555
C40_13 C39_13 1_555 1_555
H27_13 C40_13 1_555 1_555
C41_13 C40_13 1_555 1_555
H28_13 C41_13 1_555 1_555
C42_13 C43_13 1_555 1_555
C43_13 H29_13 1_555 1_555
C44_13 C43_13 1_555 1_555
H30_13 C44_13 1_555 1_555
C45_13 H31_13 1_555 1_555
C46_13 C42_13 1_555 1_555
H32_13 C46_13 1_555 1_555
C47_13 H33_13 1_555 1_555
C48_13 C47_13 1_555 1_555
H34_13 C48_13 1_555 1_555
C49_13 C48_13 1_555 1_555
C50_13 C49_13 1_555 1_555
H35_13 C50_13 1_555 1_555
C51_13 C50_13 1_555 1_555
H36_13 C51_13 1_555 1_555
C52_13 C53_13 1_555 1_555
C53_13 H37_13 1_555 1_555
C54_13 C53_13 1_555 1_555
H38_13 C54_13 1_555 1_555
C55_13 H39_13 1_555 1_555
C56_13 C52_13 1_555 1_555
H40_13 C56_13 1_555 1_555
C57_13 C58_13 1_555 1_555
C58_13 C59_13 1_555 1_555
C59_13 H41_13 1_555 1_555
C60_13 C59_13 1_555 1_555
H42_13 C60_13 1_555 1_555
C61_13 C60_13 1_555 1_555
C62_13 C61_13 1_555 1_555
H43_13 C62_13 1_555 1_555
C63_13 C58_13 1_555 1_555
H44_13 C63_13 1_555 1_555
C64_13 C61_13 1_555 1_555
C65_13 C66_13 1_555 1_555
C66_13 C67_13 1_555 1_555
C67_13 H45_13 1_555 1_555
C68_13 C67_13 1_555 1_555
H46_13 C68_13 1_555 1_555
C69_13 C68_13 1_555 1_555
C70_13 C69_13 1_555 1_555
H47_13 C70_13 1_555 1_555
C71_13 C66_13 1_555 1_555
H48_13 C71_13 1_555 1_555
C72_13 C69_13 1_555 1_555
N1_13 C6_13 1_555 1_555
N2_13 C8_13 1_555 1_555
H49_13 N2_13 1_555 1_555
N3_13 C3_13 1_555 1_555
H50_13 N3_13 1_555 1_555
N4_13 C1_13 1_555 1_555
N7_13 C32_13 1_555 1_555
H52_13 N7_13 1_555 1_555
N8_13 Zn2_13 1_555 1_555
N17_7 C37_13 1_555 1_555
N10_13 C39_13 1_555 1_555
H53_13 N10_13 1_555 1_555
N11_13 C42_13 1_555 1_555
H54_13 N11_13 1_555 1_555
N12_13 C44_13 1_555 1_555
N13_13 Zn8_5 1_555 1_555
N14_13 C49_13 1_555 1_555
H55_13 N14_13 1_555 1_555
N15_13 C52_13 1_555 1_555
H56_13 N15_13 1_555 1_555
N16_13 Zn1_13 1_555 1_555
O1_13 C11_13 1_555 1_555
O2_13 Zn2_13 1_555 1_555
O17_8 C18_13 1_555 1_555
O4_13 C18_13 1_555 1_555
O7_13 Zn2_13 1_555 1_555
O8_13 C26_13 1_555 1_555
O19_6 C57_13 1_555 1_555
O10_13 C57_13 1_555 1_555
O11_13 Zn1_13 1_555 1_555
O12_13 C64_13 1_555 1_555
O13_6 C65_13 1_555 1_555
O14_13 C65_13 1_555 1_555
O15_13 Zn1_13 1_555 1_555
O16_13 C72_13 1_555 1_555
Zn8_4 O13_6 1_555 1_555
O20_8 Zn8_5 1_555 1_555
C5_13 N4_13 1_555 1_555
C10_13 N1_13 1_555 1_555
C11_13 O2_13 1_555 1_555
C16_13 C17_13 1_555 1_555
C26_13 O7_13 1_555 1_555
C34_13 N8_13 1_555 1_555
C35_13 C36_13 1_555 1_555
C35_13 N8_13 1_555 1_555
C41_13 N17_7 1_555 1_555
C45_13 C46_13 1_555 1_555
C45_13 N12_13 1_555 1_555
C47_13 N13_13 1_555 1_555
C51_13 N13_13 1_555 1_555
C54_13 N16_13 1_555 1_555
C55_13 C56_13 1_555 1_555
C55_13 N16_13 1_555 1_555
C62_13 C63_13 1_555 1_555
C64_13 O11_13 1_555 1_555
C70_13 C71_13 1_555 1_555
C72_13 O15_13 1_555 1_555
N2_13 N3_13 1_555 1_555
N10_13 N11_13 1_555 1_555
N14_13 N15_13 1_555 1_555
C37_14 H25_14 1_555 1_555
C38_14 C37_14 1_555 1_555
H26_14 C38_14 1_555 1_555
C39_14 C38_14 1_555 1_555
C40_14 C39_14 1_555 1_555
H27_14 C40_14 1_555 1_555
C41_14 C40_14 1_555 1_555
H28_14 C41_14 1_555 1_555
N9_7 C37_14 1_555 1_555
N10_14 C39_14 1_555 1_555
H53_14 N10_14 1_555 1_555
C41_14 N9_7 1_555 1_555
Zn2_14 N1_14 1_555 1_555
Zn8_6 N12_14 1_555 1_555
C1_14 H1_14 1_555 1_555
C2_14 C1_14 1_555 1_555
H2_14 C2_14 1_555 1_555
C3_14 C2_14 1_555 1_555
C4_14 C3_14 1_555 1_555
H3_14 C4_14 1_555 1_555
C5_14 C4_14 1_555 1_555
H4_14 C5_14 1_555 1_555
C6_14 H5_14 1_555 1_555
C7_14 C6_14 1_555 1_555
H6_14 C7_14 1_555 1_555
C8_14 C7_14 1_555 1_555
C9_14 C8_14 1_555 1_555
H7_14 C9_14 1_555 1_555
C10_14 C9_14 1_555 1_555
H8_14 C10_14 1_555 1_555
C11_14 C12_14 1_555 1_555
C12_14 C13_14 1_555 1_555
C13_14 H9_14 1_555 1_555
C14_14 C13_14 1_555 1_555
H10_14 C14_14 1_555 1_555
C15_14 C14_14 1_555 1_555
C16_14 C15_14 1_555 1_555
H11_14 C16_14 1_555 1_555
C17_14 C12_14 1_555 1_555
H12_14 C17_14 1_555 1_555
C18_14 C15_14 1_555 1_555
C19_14 C20_14 1_555 1_555
C20_14 C21_14 1_555 1_555
C21_14 H13_14 1_555 1_555
C22_14 C21_14 1_555 1_555
H14_14 C22_14 1_555 1_555
C23_14 C22_14 1_555 1_555
C24_14 C23_14 1_555 1_555
H15_14 C24_14 1_555 1_555
C25_14 C20_14 1_555 1_555
H16_14 C25_14 1_555 1_555
C26_14 C23_14 1_555 1_555
C27_14 H17_14 1_555 1_555
C28_14 C27_14 1_555 1_555
H18_14 C28_14 1_555 1_555
C29_14 C28_14 1_555 1_555
C30_14 C29_14 1_555 1_555
H19_14 C30_14 1_555 1_555
C31_14 C30_14 1_555 1_555
H20_14 C31_14 1_555 1_555
C32_14 C33_14 1_555 1_555
C33_14 H21_14 1_555 1_555
C34_14 C33_14 1_555 1_555
H22_14 C34_14 1_555 1_555
C35_14 H23_14 1_555 1_555
C36_14 C32_14 1_555 1_555
H24_14 C36_14 1_555 1_555
C42_14 C43_14 1_555 1_555
C44_14 C43_14 1_555 1_555
H30_14 C44_14 1_555 1_555
C45_14 H31_14 1_555 1_555
C46_14 C42_14 1_555 1_555
H32_14 C46_14 1_555 1_555
C47_14 H33_14 1_555 1_555
C48_14 C47_14 1_555 1_555
H34_14 C48_14 1_555 1_555
C49_14 C48_14 1_555 1_555
C50_14 C49_14 1_555 1_555
H35_14 C50_14 1_555 1_555
C51_14 C50_14 1_555 1_555
H36_14 C51_14 1_555 1_555
C52_14 C53_14 1_555 1_555
C53_14 H37_14 1_555 1_555
C54_14 C53_14 1_555 1_555
H38_14 C54_14 1_555 1_555
C55_14 H39_14 1_555 1_555
C56_14 C52_14 1_555 1_555
H40_14 C56_14 1_555 1_555
N1_14 C6_14 1_555 1_555
N2_14 C8_14 1_555 1_555
H49_14 N2_14 1_555 1_555
N3_14 C3_14 1_555 1_555
H50_14 N3_14 1_555 1_555
N4_14 C1_14 1_555 1_555
N5_14 C27_14 1_555 1_555
N6_14 C29_14 1_555 1_555
H51_14 N6_14 1_555 1_555
N7_14 C32_14 1_555 1_555
H52_14 N7_14 1_555 1_555
N8_14 Zn2_14 1_555 1_555
N11_14 C42_14 1_555 1_555
H54_14 N11_14 1_555 1_555
N12_14 C44_14 1_555 1_555
N13_14 Zn8_6 1_555 1_555
N14_14 C49_14 1_555 1_555
H55_14 N14_14 1_555 1_555
N15_14 C52_14 1_555 1_555
H56_14 N15_14 1_555 1_555
O1_14 C11_14 1_555 1_555
O2_14 Zn2_14 1_555 1_555
O17_9 C18_14 1_555 1_555
O4_14 C18_14 1_555 1_555
O5_14 C19_14 1_555 1_555
O6_9 C19_14 1_555 1_555
O7_14 Zn2_14 1_555 1_555
O8_14 C26_14 1_555 1_555
Zn6_3 O6_9 1_555 1_555
O20_9 Zn8_6 1_555 1_555
C5_14 N4_14 1_555 1_555
C10_14 N1_14 1_555 1_555
C11_14 O2_14 1_555 1_555
C16_14 C17_14 1_555 1_555
C24_14 C25_14 1_555 1_555
C26_14 O7_14 1_555 1_555
C31_14 N5_14 1_555 1_555
C34_14 N8_14 1_555 1_555
C35_14 C36_14 1_555 1_555
C35_14 N8_14 1_555 1_555
C45_14 C46_14 1_555 1_555
C45_14 N12_14 1_555 1_555
C47_14 N13_14 1_555 1_555
C51_14 N13_14 1_555 1_555
C54_14 N16_14 1_555 1_555
C55_14 C56_14 1_555 1_555
C55_14 N16_14 1_555 1_555
N2_14 N3_14 1_555 1_555
N6_14 N7_14 1_555 1_555
N14_14 N15_14 1_555 1_555
C57_14 C58_14 1_555 1_555
C58_14 C59_14 1_555 1_555
C59_14 H41_14 1_555 1_555
C60_14 C59_14 1_555 1_555
H42_14 C60_14 1_555 1_555
C61_14 C60_14 1_555 1_555
C62_14 C61_14 1_555 1_555
H43_14 C62_14 1_555 1_555
C63_14 C58_14 1_555 1_555
H44_14 C63_14 1_555 1_555
C64_14 C61_14 1_555 1_555
C65_14 C66_14 1_555 1_555
C66_14 C67_14 1_555 1_555
C67_14 H45_14 1_555 1_555
C68_14 C67_14 1_555 1_555
H46_14 C68_14 1_555 1_555
C69_14 C68_14 1_555 1_555
C70_14 C69_14 1_555 1_555
H47_14 C70_14 1_555 1_555
C71_14 C66_14 1_555 1_555
H48_14 C71_14 1_555 1_555
C72_14 C69_14 1_555 1_555
O19_3 C57_14 1_555 1_555
O10_14 C57_14 1_555 1_555
O11_14 Zn1_14 1_555 1_555
O12_14 C64_14 1_555 1_555
O20_8 C65_14 1_555 1_555
O14_14 C65_14 1_555 1_555
O15_14 Zn1_14 1_555 1_555
O16_14 C72_14 1_555 1_555
C62_14 C63_14 1_555 1_555
C64_14 O11_14 1_555 1_555
C70_14 C71_14 1_555 1_555
C72_14 O15_14 1_555 1_555
C19_15 C20_15 1_555 1_555
C20_15 C21_15 1_555 1_555
C21_15 H13_15 1_555 1_555
C25_15 C20_15 1_555 1_555
H16_15 C25_15 1_555 1_555
O5_15 C19_15 1_555 1_555
O6_10 C19_15 1_555 1_555
Zn6_4 O6_10 1_555 1_555
Zn6_3 N5_15 1_555 1_555
C27_15 H17_15 1_555 1_555
C28_15 C27_15 1_555 1_555
H18_15 C28_15 1_555 1_555
C29_15 C28_15 1_555 1_555
C30_15 C29_15 1_555 1_555
C31_15 C30_15 1_555 1_555
H20_15 C31_15 1_555 1_555
N5_15 C27_15 1_555 1_555
N6_15 C29_15 1_555 1_555
H51_15 N6_15 1_555 1_555
C31_15 N5_15 1_555 1_555
C1_15 H1_15 1_555 1_555
C2_15 C1_15 1_555 1_555
H2_15 C2_15 1_555 1_555
C3_15 C2_15 1_555 1_555
C4_15 C3_15 1_555 1_555
H3_15 C4_15 1_555 1_555
C5_15 C4_15 1_555 1_555
C7_15 C6_15 1_555 1_555
H6_15 C7_15 1_555 1_555
C8_15 C7_15 1_555 1_555
C9_15 C8_15 1_555 1_555
H7_15 C9_15 1_555 1_555
C10_15 C9_15 1_555 1_555
H8_15 C10_15 1_555 1_555
H14_15 C22_15 1_555 1_555
C23_15 C22_15 1_555 1_555
C24_15 C23_15 1_555 1_555
H15_15 C24_15 1_555 1_555
C26_15 C23_15 1_555 1_555
C37_15 H25_15 1_555 1_555
C38_15 C37_15 1_555 1_555
H26_15 C38_15 1_555 1_555
C39_15 C38_15 1_555 1_555
C40_15 C39_15 1_555 1_555
H27_15 C40_15 1_555 1_555
C41_15 C40_15 1_555 1_555
H28_15 C41_15 1_555 1_555
C42_15 C43_15 1_555 1_555
C43_15 H29_15 1_555 1_555
C44_15 C43_15 1_555 1_555
H30_15 C44_15 1_555 1_555
C45_15 H31_15 1_555 1_555
C46_15 C42_15 1_555 1_555
H32_15 C46_15 1_555 1_555
C57_15 C58_15 1_555 1_555
C58_15 C59_15 1_555 1_555
C59_15 H41_15 1_555 1_555
C60_15 C59_15 1_555 1_555
H42_15 C60_15 1_555 1_555
C61_15 C60_15 1_555 1_555
C62_15 C61_15 1_555 1_555
H43_15 C62_15 1_555 1_555
C63_15 C58_15 1_555 1_555
H44_15 C63_15 1_555 1_555
C64_15 C61_15 1_555 1_555
N1_15 C6_15 1_555 1_555
N2_15 C8_15 1_555 1_555
H49_15 N2_15 1_555 1_555
N3_15 C3_15 1_555 1_555
H50_15 N3_15 1_555 1_555
N4_15 C1_15 1_555 1_555
N17_8 C37_15 1_555 1_555
N10_15 C39_15 1_555 1_555
H53_15 N10_15 1_555 1_555
N11_15 C42_15 1_555 1_555
H54_15 N11_15 1_555 1_555
N12_15 C44_15 1_555 1_555
O8_15 C26_15 1_555 1_555
O19_4 C57_15 1_555 1_555
O10_15 C57_15 1_555 1_555
C5_15 N4_15 1_555 1_555
C10_15 N1_15 1_555 1_555
C41_15 N17_8 1_555 1_555
C45_15 C46_15 1_555 1_555
C45_15 N12_15 1_555 1_555
C62_15 C63_15 1_555 1_555
C64_15 O11_15 1_555 1_555
N2_15 N3_15 1_555 1_555
N10_15 N11_15 1_555 1_555
C11_15 C12_15 1_555 1_555
C12_15 C13_15 1_555 1_555
C13_15 H9_15 1_555 1_555
C14_15 C13_15 1_555 1_555
H10_15 C14_15 1_555 1_555
C15_15 C14_15 1_555 1_555
C16_15 C15_15 1_555 1_555
H11_15 C16_15 1_555 1_555
C17_15 C12_15 1_555 1_555
H12_15 C17_15 1_555 1_555
C18_15 C15_15 1_555 1_555
C32_15 C33_15 1_555 1_555
C34_15 C33_15 1_555 1_555
H22_15 C34_15 1_555 1_555
C35_15 H23_15 1_555 1_555
C36_15 C32_15 1_555 1_555
H24_15 C36_15 1_555 1_555
C47_15 H33_15 1_555 1_555
C48_15 C47_15 1_555 1_555
H34_15 C48_15 1_555 1_555
C49_15 C48_15 1_555 1_555
C50_15 C49_15 1_555 1_555
H35_15 C50_15 1_555 1_555
C51_15 C50_15 1_555 1_555
H36_15 C51_15 1_555 1_555
C52_15 C53_15 1_555 1_555
C53_15 H37_15 1_555 1_555
C54_15 C53_15 1_555 1_555
H38_15 C54_15 1_555 1_555
C55_15 H39_15 1_555 1_555
C56_15 C52_15 1_555 1_555
H40_15 C56_15 1_555 1_555
C65_15 C66_15 1_555 1_555
C66_15 C67_15 1_555 1_555
C67_15 H45_15 1_555 1_555
C68_15 C67_15 1_555 1_555
H46_15 C68_15 1_555 1_555
C69_15 C68_15 1_555 1_555
C70_15 C69_15 1_555 1_555
H47_15 C70_15 1_555 1_555
C71_15 C66_15 1_555 1_555
H48_15 C71_15 1_555 1_555
C72_15 C69_15 1_555 1_555
N7_15 C32_15 1_555 1_555
H52_15 N7_15 1_555 1_555
N8_15 Zn2_15 1_555 1_555
N13_15 Zn8_7 1_555 1_555
N14_15 C49_15 1_555 1_555
H55_15 N14_15 1_555 1_555
N15_15 C52_15 1_555 1_555
H56_15 N15_15 1_555 1_555
N16_15 Zn1_15 1_555 1_555
O1_15 C11_15 1_555 1_555
O2_15 Zn2_15 1_555 1_555
O17_10 C18_15 1_555 1_555
O4_15 C18_15 1_555 1_555
O7_15 Zn2_15 1_555 1_555
O20_9 C65_15 1_555 1_555
O14_15 C65_15 1_555 1_555
O15_15 Zn1_15 1_555 1_555
O16_15 C72_15 1_555 1_555
C11_15 O2_15 1_555 1_555
C16_15 C17_15 1_555 1_555
C34_15 N8_15 1_555 1_555
C35_15 C36_15 1_555 1_555
C35_15 N8_15 1_555 1_555
C47_15 N13_15 1_555 1_555
C51_15 N13_15 1_555 1_555
C54_15 N16_15 1_555 1_555
C55_15 C56_15 1_555 1_555
C55_15 N16_15 1_555 1_555
C70_15 C71_15 1_555 1_555
C72_15 O15_15 1_555 1_555
N14_15 N15_15 1_555 1_555
C37_16 H25_16 1_555 1_555
C38_16 C37_16 1_555 1_555
H26_16 C38_16 1_555 1_555
C39_16 C38_16 1_555 1_555
C40_16 C39_16 1_555 1_555
H27_16 C40_16 1_555 1_555
C41_16 C40_16 1_555 1_555
H28_16 C41_16 1_555 1_555
N9_8 C37_16 1_555 1_555
N10_16 C39_16 1_555 1_555
H53_16 N10_16 1_555 1_555
Zn6_4 N9_8 1_555 1_555
C41_16 N9_8 1_555 1_555
Zn1_16 N4_16 1_555 1_555
Zn2_16 N1_16 1_555 1_555
Zn6_4 N5_16 1_555 1_555
Zn8_4 N12_16 1_555 1_555
C1_16 H1_16 1_555 1_555
C2_16 C1_16 1_555 1_555
H2_16 C2_16 1_555 1_555
C3_16 C2_16 1_555 1_555
C4_16 C3_16 1_555 1_555
H3_16 C4_16 1_555 1_555
C5_16 C4_16 1_555 1_555
H4_16 C5_16 1_555 1_555
C6_16 H5_16 1_555 1_555
C7_16 C6_16 1_555 1_555
H6_16 C7_16 1_555 1_555
C8_16 C7_16 1_555 1_555
C9_16 C8_16 1_555 1_555
H7_16 C9_16 1_555 1_555
C10_16 C9_16 1_555 1_555
H8_16 C10_16 1_555 1_555
C11_16 C12_16 1_555 1_555
C12_16 C13_16 1_555 1_555
C13_16 H9_16 1_555 1_555
C14_16 C13_16 1_555 1_555
H10_16 C14_16 1_555 1_555
C15_16 C14_16 1_555 1_555
C16_16 C15_16 1_555 1_555
H11_16 C16_16 1_555 1_555
C17_16 C12_16 1_555 1_555
H12_16 C17_16 1_555 1_555
C18_16 C15_16 1_555 1_555
C19_16 C20_16 1_555 1_555
C20_16 C21_16 1_555 1_555
C21_16 H13_16 1_555 1_555
C22_16 C21_16 1_555 1_555
H14_16 C22_16 1_555 1_555
C23_16 C22_16 1_555 1_555
C24_16 C23_16 1_555 1_555
H15_16 C24_16 1_555 1_555
C25_16 C20_16 1_555 1_555
H16_16 C25_16 1_555 1_555
C26_16 C23_16 1_555 1_555
C27_16 H17_16 1_555 1_555
C28_16 C27_16 1_555 1_555
H18_16 C28_16 1_555 1_555
C29_16 C28_16 1_555 1_555
C30_16 C29_16 1_555 1_555
H19_16 C30_16 1_555 1_555
C31_16 C30_16 1_555 1_555
H20_16 C31_16 1_555 1_555
C32_16 C33_16 1_555 1_555
C33_16 H21_16 1_555 1_555
C34_16 C33_16 1_555 1_555
H22_16 C34_16 1_555 1_555
C35_16 H23_16 1_555 1_555
C36_16 C32_16 1_555 1_555
H24_16 C36_16 1_555 1_555
C42_16 C43_16 1_555 1_555
C44_16 C43_16 1_555 1_555
H30_16 C44_16 1_555 1_555
C45_16 H31_16 1_555 1_555
C46_16 C42_16 1_555 1_555
H32_16 C46_16 1_555 1_555
C47_16 H33_16 1_555 1_555
C48_16 C47_16 1_555 1_555
H34_16 C48_16 1_555 1_555
C49_16 C48_16 1_555 1_555
C50_16 C49_16 1_555 1_555
H35_16 C50_16 1_555 1_555
C51_16 C50_16 1_555 1_555
H36_16 C51_16 1_555 1_555
C52_16 C53_16 1_555 1_555
C53_16 H37_16 1_555 1_555
C54_16 C53_16 1_555 1_555
H38_16 C54_16 1_555 1_555
C55_16 H39_16 1_555 1_555
C56_16 C52_16 1_555 1_555
H40_16 C56_16 1_555 1_555
C57_16 C58_16 1_555 1_555
C58_16 C59_16 1_555 1_555
C59_16 H41_16 1_555 1_555
C60_16 C59_16 1_555 1_555
H42_16 C60_16 1_555 1_555
C61_16 C60_16 1_555 1_555
C62_16 C61_16 1_555 1_555
H43_16 C62_16 1_555 1_555
C63_16 C58_16 1_555 1_555
H44_16 C63_16 1_555 1_555
C64_16 C61_16 1_555 1_555
C65_16 C66_16 1_555 1_555
C66_16 C67_16 1_555 1_555
C67_16 H45_16 1_555 1_555
C68_16 C67_16 1_555 1_555
H46_16 C68_16 1_555 1_555
C69_16 C68_16 1_555 1_555
C70_16 C69_16 1_555 1_555
H47_16 C70_16 1_555 1_555
C71_16 C66_16 1_555 1_555
H48_16 C71_16 1_555 1_555
C72_16 C69_16 1_555 1_555
N1_16 C6_16 1_555 1_555
N2_16 C8_16 1_555 1_555
H49_16 N2_16 1_555 1_555
N3_16 C3_16 1_555 1_555
H50_16 N3_16 1_555 1_555
N4_16 C1_16 1_555 1_555
N5_16 C27_16 1_555 1_555
N6_16 C29_16 1_555 1_555
H51_16 N6_16 1_555 1_555
N7_16 C32_16 1_555 1_555
H52_16 N7_16 1_555 1_555
N8_16 Zn2_16 1_555 1_555
N11_16 C42_16 1_555 1_555
H54_16 N11_16 1_555 1_555
N12_16 C44_16 1_555 1_555
N13_16 Zn8_4 1_555 1_555
N14_16 C49_16 1_555 1_555
H55_16 N14_16 1_555 1_555
N15_16 C52_16 1_555 1_555
H56_16 N15_16 1_555 1_555
N16_16 Zn1_16 1_555 1_555
O1_16 C11_16 1_555 1_555
O2_16 Zn2_16 1_555 1_555
O17_7 C18_16 1_555 1_555
O4_16 C18_16 1_555 1_555
O5_16 C19_16 1_555 1_555
O18_6 C19_16 1_555 1_555
O7_16 Zn2_16 1_555 1_555
O8_16 C26_16 1_555 1_555
O19_5 C57_16 1_555 1_555
O10_16 C57_16 1_555 1_555
O11_16 Zn1_16 1_555 1_555
O12_16 C64_16 1_555 1_555
O20_10 C65_16 1_555 1_555
O14_16 C65_16 1_555 1_555
O15_16 Zn1_16 1_555 1_555
O16_16 C72_16 1_555 1_555
C5_16 N4_16 1_555 1_555
C10_16 N1_16 1_555 1_555
C11_16 O2_16 1_555 1_555
C16_16 C17_16 1_555 1_555
C24_16 C25_16 1_555 1_555
C26_16 O7_16 1_555 1_555
C31_16 N5_16 1_555 1_555
C34_16 N8_16 1_555 1_555
C35_16 C36_16 1_555 1_555
C35_16 N8_16 1_555 1_555
C45_16 C46_16 1_555 1_555
C45_16 N12_16 1_555 1_555
C47_16 N13_16 1_555 1_555
C51_16 N13_16 1_555 1_555
C54_16 N16_16 1_555 1_555
C55_16 C56_16 1_555 1_555
C55_16 N16_16 1_555 1_555
C62_16 C63_16 1_555 1_555
C64_16 O11_16 1_555 1_555
C70_16 C71_16 1_555 1_555
C72_16 O15_16 1_555 1_555
N2_16 N3_16 1_555 1_555
N6_16 N7_16 1_555 1_555
N14_16 N15_16 1_555 1_555

#END
