
###############################################################################
#
# This file contains modified crystal structure data generated from the
# MOF subset of the Cambridge Structural Database (CSD) v543 
# hosted by the Cambridge Crystallographic Data Centre (CCDC).
#
# This work is licensed under the Creative Commons
# Attribution-NonCommercial-ShareAlike 4.0 International License.
# To view a copy of this license, visit
# http://creativecommons.org/licenses/by-nc-sa/4.0/
# or send a letter to
# Creative Commons, PO Box 1866, Mountain View, CA 94042, USA.
#
# CIF created using the CSD Python API on 29 September 2022
# The structure has been converted into the P1 space group
# The structure has a 3D framework
# The original CSD entry IXURAV is in the orthorhombic crystal system
# The framework has been calculated to contain at least 10.0% void space
# The void calculation uses a probe of radius 1.32A, grid spacing 0.4
#
###############################################################################

data_IXURAV
_chemical_formula_moiety         '(C144 H112 N32 O32 Zn8)n'
_symmetry_cell_setting           triclinic
_symmetry_space_group_name_H-M   'P 1'
_symmetry_Int_Tables_number      1
_space_group_name_Hall           'P 1'
loop_
_symmetry_equiv_pos_site_id
_symmetry_equiv_pos_as_xyz
1 x,y,z
_cell_length_a                   29.50(2)
_cell_length_b                   14.724(13)
_cell_length_c                   10.274(9)
_cell_angle_alpha                90
_cell_angle_beta                 90
_cell_angle_gamma                90
_cell_volume                     4462.59
loop_
_atom_site_label
_atom_site_type_symbol
_atom_site_fract_x
_atom_site_fract_y
_atom_site_fract_z
C28 C 0.5785(2) 0.3210(5) 0.0121(8)
H20 H 0.5993 0.2878 0.0606
C29 C 0.5801(2) 0.4156(6) 0.0124(7)
C32 C 0.64817(19) 0.5933(5) 0.0116(7)
C36 C 0.65654(18) 0.6849(5) 0.0298(6)
H26 H 0.6402 0.7179 0.0911
N6 N 0.61103(17) 0.4588(5) 0.0885(6)
H27 H 0.6283 0.4278 0.1392
N7 N 0.61482(17) 0.5527(5) 0.0849(6)
H28 H 0.5962 0.5856 0.1288
Zn1 Zn 0.47203(3) 0.2500 0.7500
C1 C 0.4368(2) 0.1164(5) 0.9059(6)
C2 C 0.40202(18) 0.0532(4) 0.9658(6)
C3 C 0.35731(18) 0.0542(5) 0.9246(6)
H1 H 0.3485 0.0933 0.8582
C9 C 0.5461(2) 0.2229(4) 0.5600(7)
H5 H 0.5451 0.2860 0.5565
C10 C 0.5785(2) 0.1790(5) 0.4879(8)
H6 H 0.5993 0.2122 0.4394
C11 C 0.5801(2) 0.0844(6) 0.4876(7)
C12 C 0.5499(2) 0.0388(5) 0.5703(7)
C13 C 0.51858(19) 0.0871(5) 0.6395(6)
H8 H 0.4983 0.0552 0.6916
H9 H 0.6675 0.0146 0.5994
N1 N 0.51546(14) 0.1791(4) 0.6365(5)
N2 N 0.61103(17) 0.0412(5) 0.4115(6)
H13 H 0.6283 0.0722 0.3608
O1 O 0.42526(12) 0.1593(3) 0.8068(4)
O2 O 0.47516(14) 0.1203(4) 0.9540(5)
Zn4 Zn 0.75755(3) 0.7500 0.7500
Zn5 Zn 0.25755(3) 0.7500 0.2500
C19 C 0.4368(2) 0.3836(5) 0.5941(6)
C20 C 0.40202(18) 0.4468(4) 0.5342(6)
C21 C 0.35731(18) 0.4458(5) 0.5754(6)
H15 H 0.3485 0.4067 0.6418
C22 C 0.3260(2) 0.5021(6) 0.5186(8)
H16 H 0.2961 0.5005 0.5471
C23 C 0.3379(2) 0.5610(5) 0.4202(8)
C24 C 0.3821(2) 0.5611(5) 0.3788(7)
H17 H 0.3908 0.6000 0.3120
C25 C 0.41401(19) 0.5044(5) 0.4344(6)
H18 H 0.4437 0.5051 0.4043
C26 C 0.3041(4) 0.6247(7) 0.3617(12)
C27 C 0.5461(2) 0.2771(4) 0.9400(7)
H19 H 0.5451 0.2140 0.9435
C30 C 0.5499(2) 0.4612(5) 0.9297(7)
H21 H 0.5511 0.5241 0.9220
C31 C 0.51858(19) 0.4129(5) 0.8605(6)
H22 H 0.4983 0.4448 0.8084
C33 C 0.6722(2) 0.5468(5) 0.9171(7)
H23 H 0.6675 0.4854 0.9006
C34 C 0.70327(18) 0.5970(5) 0.8494(6)
H24 H 0.7194 0.5669 0.7847
C35 C 0.68899(18) 0.7256(4) 0.9569(6)
H25 H 0.6948 0.7868 0.9716
N5 N 0.51546(14) 0.3209(4) 0.8635(5)
N8 N 0.71279(14) 0.6836(3) 0.8662(5)
O5 O 0.42526(12) 0.3407(3) 0.6932(4)
O6 O 0.47516(14) 0.3797(4) 0.5460(5)
O7 O 0.3102(2) 0.6492(4) 0.2505(8)
O10 O 0.2717(2) 0.6473(6) 0.4197(9)
C5 C 0.3379(2) 0.9390(5) 0.0798(8)
C6 C 0.3821(2) 0.9389(5) 0.1212(7)
H3 H 0.3908 0.9000 0.1880
C7 C 0.41401(19) 0.9956(5) 0.0656(6)
H4 H 0.4437 0.9949 0.0957
C8 C 0.3041(4) 0.8753(7) 0.1383(12)
O3 O 0.3102(2) 0.8508(4) 0.2495(8)
O4 O 0.2717(2) 0.8527(6) 0.0803(9)
C4 C 0.3260(2) 0.9979(6) 0.9814(8)
H2 H 0.2961 0.9995 0.9529
H7 H 0.5511 0.9759 0.5780
C14 C 0.64817(19) 0.9067(5) 0.4884(7)
C15 C 0.6722(2) 0.9532(5) 0.5829(7)
C16 C 0.70327(18) 0.9030(5) 0.6506(6)
H10 H 0.7194 0.9331 0.7153
C17 C 0.68899(18) 0.7744(4) 0.5431(6)
H11 H 0.6948 0.7132 0.5284
C18 C 0.65654(18) 0.8151(5) 0.4702(6)
H12 H 0.6402 0.7821 0.4089
N3 N 0.61482(17) 0.9473(5) 0.4151(6)
H14 H 0.5962 0.9144 0.3712
N4 N 0.71279(14) 0.8164(3) 0.6338(5)
O8 O 0.8102(2) 0.8508(4) 0.7505(8)
O9 O 0.8102(2) 0.6492(4) 0.7495(8)
C9_2 C 0.0461(2) 0.2229(4) 0.4400(7)
H5_2 H 0.0451 0.2860 0.4435
C10_2 C 0.0785(2) 0.1790(5) 0.5121(8)
H6_2 H 0.0993 0.2122 0.5606
C11_2 C 0.0801(2) 0.0844(6) 0.5124(7)
C12_2 C 0.0499(2) 0.0388(5) 0.4297(7)
C13_2 C 0.01858(19) 0.0871(5) 0.3605(6)
H9_2 H 0.1675 0.0146 0.4006
N1_2 N 0.01546(14) 0.1791(4) 0.3635(5)
N2_2 N 0.11103(17) 0.0412(5) 0.5885(6)
H13_2 H 0.1283 0.0722 0.6392
C27_2 C 0.0461(2) 0.2771(4) 0.0600(7)
H19_2 H 0.0451 0.2140 0.0565
C30_2 C 0.0499(2) 0.4612(5) 0.0703(7)
H21_2 H 0.0511 0.5241 0.0780
C31_2 C 0.01858(19) 0.4129(5) 0.1395(6)
C33_2 C 0.1722(2) 0.5468(5) 0.0829(7)
H23_2 H 0.1675 0.4854 0.0994
C34_2 C 0.20327(18) 0.5970(5) 0.1506(6)
H24_2 H 0.2194 0.5669 0.2153
C35_2 C 0.18899(18) 0.7256(4) 0.0431(6)
H25_2 H 0.1948 0.7868 0.0284
N5_2 N 0.01546(14) 0.3209(4) 0.1365(5)
N8_2 N 0.21279(14) 0.6836(3) 0.1338(5)
H7_2 H 0.0511 0.9759 0.4220
C14_2 C 0.14817(19) 0.9067(5) 0.5116(7)
C15_2 C 0.1722(2) 0.9532(5) 0.4171(7)
C16_2 C 0.20327(18) 0.9030(5) 0.3494(6)
H10_2 H 0.2194 0.9331 0.2847
C17_2 C 0.18899(18) 0.7744(4) 0.4569(6)
H11_2 H 0.1948 0.7132 0.4716
C18_2 C 0.15654(18) 0.8151(5) 0.5298(6)
H12_2 H 0.1402 0.7821 0.5911
N3_2 N 0.11482(17) 0.9473(5) 0.5849(6)
H14_2 H 0.0962 0.9144 0.6288
N4_2 N 0.21279(14) 0.8164(3) 0.3662(5)
Zn1_2 Zn 0.97203(3) 0.2500 0.2500
C1_2 C 0.9368(2) 0.1164(5) 0.0941(6)
C2_2 C 0.90202(18) 0.0532(4) 0.0342(6)
C3_2 C 0.85731(18) 0.0542(5) 0.0754(6)
H1_2 H 0.8485 0.0933 0.1418
H8_2 H 0.9983 0.0552 0.3084
O1_2 O 0.92526(12) 0.1593(3) 0.1932(4)
O2_2 O 0.97516(14) 0.1203(4) 0.0460(5)
C19_2 C 0.9368(2) 0.3836(5) 0.4059(6)
C20_2 C 0.90202(18) 0.4468(4) 0.4658(6)
C21_2 C 0.85731(18) 0.4458(5) 0.4246(6)
H15_2 H 0.8485 0.4067 0.3582
C22_2 C 0.8260(2) 0.5021(6) 0.4814(8)
H16_2 H 0.7961 0.5005 0.4529
C23_2 C 0.8379(2) 0.5610(5) 0.5798(8)
C24_2 C 0.8821(2) 0.5611(5) 0.6212(7)
H17_2 H 0.8908 0.6000 0.6880
C25_2 C 0.91401(19) 0.5044(5) 0.5656(6)
H18_2 H 0.9437 0.5051 0.5957
C26_2 C 0.8041(4) 0.6247(7) 0.6383(12)
H22_2 H 0.9983 0.4448 0.1916
O5_2 O 0.92526(12) 0.3407(3) 0.3068(4)
O6_2 O 0.97516(14) 0.3797(4) 0.4540(5)
O10_2 O 0.7717(2) 0.6473(6) 0.5803(9)
C5_2 C 0.8379(2) 0.9390(5) 0.9202(8)
C6_2 C 0.8821(2) 0.9389(5) 0.8788(7)
H3_2 H 0.8908 0.9000 0.8120
C7_2 C 0.91401(19) 0.9956(5) 0.9344(6)
H4_2 H 0.9437 0.9949 0.9043
C8_2 C 0.8041(4) 0.8753(7) 0.8617(12)
O4_2 O 0.7717(2) 0.8527(6) 0.9197(9)
C5_3 C 0.1621(2) 0.0610(5) 0.0798(8)
C6_3 C 0.1179(2) 0.0611(5) 0.1212(7)
H3_3 H 0.1092 0.1000 0.1880
C7_3 C 0.08599(19) 0.0044(5) 0.0656(6)
H4_3 H 0.0563 0.0051 0.0957
C8_3 C 0.1959(4) 0.1247(7) 0.1383(12)
O3_2 O 0.1898(2) 0.1492(4) 0.2495(8)
O4_3 O 0.2283(2) 0.1473(6) 0.0803(9)
Zn3 Zn 0.24245(3) 0.2500 0.2500
Zn1_3 Zn 0.02797(3) 0.7500 0.7500
C1_3 C 0.0632(2) 0.8836(5) 0.9059(6)
C2_3 C 0.09798(18) 0.9468(4) 0.9658(6)
C3_3 C 0.14269(18) 0.9458(5) 0.9246(6)
H1_3 H 0.1515 0.9067 0.8582
H8_3 H 0.0017 0.9448 0.6916
O1_3 O 0.07474(12) 0.8407(3) 0.8068(4)
O2_3 O 0.02484(14) 0.8797(4) 0.9540(5)
C19_3 C 0.0632(2) 0.6164(5) 0.5941(6)
C20_3 C 0.09798(18) 0.5532(4) 0.5342(6)
C21_3 C 0.14269(18) 0.5542(5) 0.5754(6)
H15_3 H 0.1515 0.5933 0.6418
C22_3 C 0.1740(2) 0.4979(6) 0.5186(8)
H16_3 H 0.2039 0.4995 0.5471
C23_3 C 0.1621(2) 0.4390(5) 0.4202(8)
C24_3 C 0.1179(2) 0.4389(5) 0.3788(7)
H17_3 H 0.1092 0.4000 0.3120
C25_3 C 0.08599(19) 0.4956(5) 0.4344(6)
H18_3 H 0.0563 0.4949 0.4043
C26_3 C 0.1959(4) 0.3753(7) 0.3617(12)
H22_3 H 0.0017 0.5552 0.8084
O5_3 O 0.07474(12) 0.6593(3) 0.6932(4)
O6_3 O 0.02484(14) 0.6203(4) 0.5460(5)
O7_2 O 0.1898(2) 0.3508(4) 0.2505(8)
O10_3 O 0.2283(2) 0.3527(6) 0.4197(9)
Zn2 Zn 0.74245(3) 0.2500 0.7500
H7_3 H 0.9489 0.0241 0.5780
C14_3 C 0.85183(19) 0.0933(5) 0.4884(7)
C15_3 C 0.8278(2) 0.0468(5) 0.5829(7)
C16_3 C 0.79673(18) 0.0970(5) 0.6506(6)
H10_3 H 0.7806 0.0669 0.7153
C17_3 C 0.81101(18) 0.2256(4) 0.5431(6)
H11_3 H 0.8052 0.2868 0.5284
C18_3 C 0.84346(18) 0.1849(5) 0.4702(6)
H12_3 H 0.8598 0.2179 0.4089
N3_3 N 0.88518(17) 0.0527(5) 0.4151(6)
H14_3 H 0.9038 0.0856 0.3712
N4_3 N 0.78721(14) 0.1836(3) 0.6338(5)
N9 N 0.78721(14) 0.3164(3) 0.8662(5)
O8_2 O 0.6898(2) 0.1492(4) 0.7505(8)
O9_2 O 0.6898(2) 0.3508(4) 0.7495(8)
C9_3 C 0.9539(2) 0.7771(4) 0.5600(7)
H5_3 H 0.9549 0.7140 0.5565
C10_3 C 0.9215(2) 0.8210(5) 0.4879(8)
H6_3 H 0.9007 0.7878 0.4394
C11_3 C 0.9199(2) 0.9156(6) 0.4876(7)
C12_3 C 0.9501(2) 0.9612(5) 0.5703(7)
C13_3 C 0.98142(19) 0.9129(5) 0.6395(6)
H9_3 H 0.8325 0.9854 0.5994
N1_3 N 0.98454(14) 0.8209(4) 0.6365(5)
N2_3 N 0.88897(17) 0.9588(5) 0.4115(6)
H13_3 H 0.8717 0.9278 0.3608
C27_3 C 0.9539(2) 0.7229(4) 0.9400(7)
H19_3 H 0.9549 0.7860 0.9435
C30_3 C 0.9501(2) 0.5388(5) 0.9297(7)
H21_3 H 0.9489 0.4759 0.9220
C31_3 C 0.98142(19) 0.5871(5) 0.8605(6)
C33_3 C 0.8278(2) 0.4532(5) 0.9171(7)
H23_3 H 0.8325 0.5146 0.9006
C34_3 C 0.79673(18) 0.4030(5) 0.8494(6)
H24_3 H 0.7806 0.4331 0.7847
C35_3 C 0.81101(18) 0.2744(4) 0.9569(6)
H25_3 H 0.8052 0.2132 0.9716
N5_3 N 0.98454(14) 0.6791(4) 0.8635(5)
C4_2 C 0.6740(2) 0.0021(6) 0.0186(8)
H2_2 H 0.7039 0.0005 0.0471
H7_4 H 0.4489 0.0241 0.4220
C14_4 C 0.35183(19) 0.0933(5) 0.5116(7)
C15_4 C 0.3278(2) 0.0468(5) 0.4171(7)
C16_4 C 0.29673(18) 0.0970(5) 0.3494(6)
H10_4 H 0.2806 0.0669 0.2847
C17_4 C 0.31101(18) 0.2256(4) 0.4569(6)
H11_4 H 0.3052 0.2868 0.4716
C18_4 C 0.34346(18) 0.1849(5) 0.5298(6)
H12_4 H 0.3598 0.2179 0.5911
N3_4 N 0.38518(17) 0.0527(5) 0.5849(6)
H14_4 H 0.4038 0.0856 0.6288
N4_4 N 0.28721(14) 0.1836(3) 0.3662(5)
N9_2 N 0.28721(14) 0.3164(3) 0.1338(5)
C5_4 C 0.6621(2) 0.0610(5) 0.9202(8)
C6_4 C 0.6179(2) 0.0611(5) 0.8788(7)
H3_4 H 0.6092 0.1000 0.8120
C7_4 C 0.58599(19) 0.0044(5) 0.9344(6)
H4_4 H 0.5563 0.0051 0.9043
C8_4 C 0.6959(4) 0.1247(7) 0.8617(12)
O4_4 O 0.7283(2) 0.1473(6) 0.9197(9)
Zn1_4 Zn 0.52797(3) 0.7500 0.2500
C1_4 C 0.5632(2) 0.8836(5) 0.0941(6)
C2_4 C 0.59798(18) 0.9468(4) 0.0342(6)
C3_4 C 0.64269(18) 0.9458(5) 0.0754(6)
H1_4 H 0.6515 0.9067 0.1418
C9_4 C 0.4539(2) 0.7771(4) 0.4400(7)
H5_4 H 0.4549 0.7140 0.4435
C10_4 C 0.4215(2) 0.8210(5) 0.5121(8)
H6_4 H 0.4007 0.7878 0.5606
C11_4 C 0.4199(2) 0.9156(6) 0.5124(7)
C12_4 C 0.4501(2) 0.9612(5) 0.4297(7)
C13_4 C 0.48142(19) 0.9129(5) 0.3605(6)
H8_4 H 0.5017 0.9448 0.3084
H9_4 H 0.3325 0.9854 0.4006
N1_4 N 0.48454(14) 0.8209(4) 0.3635(5)
N2_4 N 0.38897(17) 0.9588(5) 0.5885(6)
H13_4 H 0.3717 0.9278 0.6392
O1_4 O 0.57474(12) 0.8407(3) 0.1932(4)
O2_4 O 0.52484(14) 0.8797(4) 0.0460(5)
C19_4 C 0.5632(2) 0.6164(5) 0.4059(6)
C20_4 C 0.59798(18) 0.5532(4) 0.4658(6)
C21_4 C 0.64269(18) 0.5542(5) 0.4246(6)
H15_4 H 0.6515 0.5933 0.3582
C22_4 C 0.6740(2) 0.4979(6) 0.4814(8)
H16_4 H 0.7039 0.4995 0.4529
C23_4 C 0.6621(2) 0.4390(5) 0.5798(8)
C24_4 C 0.6179(2) 0.4389(5) 0.6212(7)
H17_4 H 0.6092 0.4000 0.6880
C25_4 C 0.58599(19) 0.4956(5) 0.5656(6)
H18_4 H 0.5563 0.4949 0.5957
C26_4 C 0.6959(4) 0.3753(7) 0.6383(12)
C27_4 C 0.4539(2) 0.7229(4) 0.0600(7)
H19_4 H 0.4549 0.7860 0.0565
C30_4 C 0.4501(2) 0.5388(5) 0.0703(7)
H21_4 H 0.4489 0.4759 0.0780
C31_4 C 0.48142(19) 0.5871(5) 0.1395(6)
H22_4 H 0.5017 0.5552 0.1916
C33_4 C 0.3278(2) 0.4532(5) 0.0829(7)
H23_4 H 0.3325 0.5146 0.0994
C34_4 C 0.29673(18) 0.4030(5) 0.1506(6)
H24_4 H 0.2806 0.4331 0.2153
C35_4 C 0.31101(18) 0.2744(4) 0.0431(6)
H25_4 H 0.3052 0.2132 0.0284
N5_4 N 0.48454(14) 0.6791(4) 0.1365(5)
O5_4 O 0.57474(12) 0.6593(3) 0.3068(4)
O6_4 O 0.52484(14) 0.6203(4) 0.4540(5)
O10_4 O 0.7283(2) 0.3527(6) 0.5803(9)
C4_3 C 0.1740(2) 0.0021(6) 0.9814(8)
H2_3 H 0.2039 0.0005 0.9529
C28_2 C 0.9215(2) 0.6790(5) 0.0121(8)
H20_2 H 0.9007 0.7122 0.0606
C29_2 C 0.9199(2) 0.5844(6) 0.0124(7)
C32_2 C 0.85183(19) 0.4067(5) 0.0116(7)
C36_2 C 0.84346(18) 0.3151(5) 0.0298(6)
H26_2 H 0.8598 0.2821 0.0911
N6_2 N 0.88897(17) 0.5412(5) 0.0885(6)
H27_2 H 0.8717 0.5722 0.1392
N7_2 N 0.88518(17) 0.4473(5) 0.0849(6)
H28_2 H 0.9038 0.4144 0.1288
C28_3 C 0.4215(2) 0.6790(5) 0.9879(8)
H20_3 H 0.4007 0.7122 0.9394
C29_3 C 0.4199(2) 0.5844(6) 0.9876(7)
C32_3 C 0.35183(19) 0.4067(5) 0.9884(7)
C36_3 C 0.34346(18) 0.3151(5) 0.9702(6)
H26_3 H 0.3598 0.2821 0.9089
N6_3 N 0.38897(17) 0.5412(5) 0.9115(6)
H27_3 H 0.3717 0.5722 0.8608
N7_3 N 0.38518(17) 0.4473(5) 0.9151(6)
H28_3 H 0.4038 0.4144 0.8712
C28_4 C 0.0785(2) 0.3210(5) 0.9879(8)
H20_4 H 0.0993 0.2878 0.9394
C29_4 C 0.0801(2) 0.4156(6) 0.9876(7)
C32_4 C 0.14817(19) 0.5933(5) 0.9884(7)
C36_4 C 0.15654(18) 0.6849(5) 0.9702(6)
H26_4 H 0.1402 0.7179 0.9089
N6_4 N 0.11103(17) 0.4588(5) 0.9115(6)
H27_4 H 0.1283 0.4278 0.8608
N7_4 N 0.11482(17) 0.5527(5) 0.9151(6)
H28_4 H 0.0962 0.5856 0.8712
C4_4 C 0.8260(2) 0.9979(6) 0.0186(8)
H2_4 H 0.7961 0.9995 0.0471
loop_
_geom_bond_atom_site_label_1
_geom_bond_atom_site_label_2
_geom_bond_site_symmetry_1
_geom_bond_site_symmetry_2
H20 C28 1_555 1_555
C29 C28 1_555 1_555
C36 C32 1_555 1_555
H26 C36 1_555 1_555
N6 C29 1_555 1_555
H27 N6 1_555 1_555
N7 C32 1_555 1_555
H28 N7 1_555 1_555
N6 N7 1_555 1_555
Zn1 N1 1_555 1_555
C1 C2 1_555 1_555
C2 C3 1_555 1_555
C3 H1 1_555 1_555
C9 H5 1_555 1_555
C10 C9 1_555 1_555
H6 C10 1_555 1_555
C11 C10 1_555 1_555
C12 C11 1_555 1_555
C13 C12 1_555 1_555
H8 C13 1_555 1_555
N1 C9 1_555 1_555
N2 C11 1_555 1_555
H13 N2 1_555 1_555
O1 Zn1 1_555 1_555
O2 C1 1_555 1_555
Zn4 N8 1_555 1_555
Zn5 O7 1_555 1_555
C19 C20 1_555 1_555
C20 C21 1_555 1_555
C21 H15 1_555 1_555
C22 C21 1_555 1_555
H16 C22 1_555 1_555
C23 C22 1_555 1_555
C24 C23 1_555 1_555
H17 C24 1_555 1_555
C25 C20 1_555 1_555
H18 C25 1_555 1_555
C26 C23 1_555 1_555
C27 H19 1_555 1_555
H21 C30 1_555 1_555
C31 C30 1_555 1_555
H22 C31 1_555 1_555
C33 H23 1_555 1_555
C34 C33 1_555 1_555
H24 C34 1_555 1_555
C35 H25 1_555 1_555
N5 Zn1 1_555 1_555
N8 C34 1_555 1_555
O5 Zn1 1_555 1_555
O6 C19 1_555 1_555
O7 C26 1_555 1_555
O10 C26 1_555 1_555
C1 O1 1_555 1_555
C13 N1 1_555 1_555
C19 O5 1_555 1_555
C24 C25 1_555 1_555
C27 N5 1_555 1_555
C31 N5 1_555 1_555
C35 N8 1_555 1_555
C6 C5 1_555 1_555
H3 C6 1_555 1_555
H4 C7 1_555 1_555
C8 C5 1_555 1_555
O3 C8 1_555 1_555
O4 C8 1_555 1_555
Zn5 O3 1_555 1_555
C6 C7 1_555 1_555
Zn4 N4 1_555 1_555
H2 C4 1_555 1_555
C14 C15 1_555 1_555
C16 C15 1_555 1_555
H10 C16 1_555 1_555
C17 H11 1_555 1_555
C18 C14 1_555 1_555
H12 C18 1_555 1_555
N3 C14 1_555 1_555
H14 N3 1_555 1_555
N4 C16 1_555 1_555
O8 Zn4 1_555 1_555
O9 Zn4 1_555 1_555
C17 C18 1_555 1_555
C17 N4 1_555 1_555
C9_2 H5_2 1_555 1_555
C10_2 C9_2 1_555 1_555
H6_2 C10_2 1_555 1_555
C11_2 C10_2 1_555 1_555
C12_2 C11_2 1_555 1_555
C13_2 C12_2 1_555 1_555
N1_2 C9_2 1_555 1_555
N2_2 C11_2 1_555 1_555
H13_2 N2_2 1_555 1_555
Zn5 N8_2 1_555 1_555
C27_2 H19_2 1_555 1_555
H21_2 C30_2 1_555 1_555
C31_2 C30_2 1_555 1_555
C33_2 H23_2 1_555 1_555
C34_2 C33_2 1_555 1_555
H24_2 C34_2 1_555 1_555
C35_2 H25_2 1_555 1_555
N8_2 C34_2 1_555 1_555
C13_2 N1_2 1_555 1_555
C27_2 N5_2 1_555 1_555
C31_2 N5_2 1_555 1_555
C35_2 N8_2 1_555 1_555
Zn5 N4_2 1_555 1_555
C14_2 C15_2 1_555 1_555
C16_2 C15_2 1_555 1_555
H10_2 C16_2 1_555 1_555
C17_2 H11_2 1_555 1_555
C18_2 C14_2 1_555 1_555
H12_2 C18_2 1_555 1_555
N3_2 C14_2 1_555 1_555
H14_2 N3_2 1_555 1_555
N4_2 C16_2 1_555 1_555
C17_2 C18_2 1_555 1_555
C17_2 N4_2 1_555 1_555
C1_2 C2_2 1_555 1_555
C2_2 C3_2 1_555 1_555
C3_2 H1_2 1_555 1_555
O1_2 Zn1_2 1_555 1_555
O2_2 C1_2 1_555 1_555
C19_2 C20_2 1_555 1_555
C20_2 C21_2 1_555 1_555
C21_2 H15_2 1_555 1_555
C22_2 C21_2 1_555 1_555
H16_2 C22_2 1_555 1_555
C23_2 C22_2 1_555 1_555
C24_2 C23_2 1_555 1_555
H17_2 C24_2 1_555 1_555
C25_2 C20_2 1_555 1_555
H18_2 C25_2 1_555 1_555
C26_2 C23_2 1_555 1_555
O5_2 Zn1_2 1_555 1_555
O6_2 C19_2 1_555 1_555
O9 C26_2 1_555 1_555
O10_2 C26_2 1_555 1_555
C1_2 O1_2 1_555 1_555
C19_2 O5_2 1_555 1_555
C24_2 C25_2 1_555 1_555
C6_2 C5_2 1_555 1_555
H3_2 C6_2 1_555 1_555
H4_2 C7_2 1_555 1_555
C8_2 C5_2 1_555 1_555
O8 C8_2 1_555 1_555
O4_2 C8_2 1_555 1_555
C6_2 C7_2 1_555 1_555
C6_3 C5_3 1_555 1_555
H3_3 C6_3 1_555 1_555
H4_3 C7_3 1_555 1_555
C8_3 C5_3 1_555 1_555
O3_2 C8_3 1_555 1_555
O4_3 C8_3 1_555 1_555
Zn3 O3_2 1_555 1_555
C6_3 C7_3 1_555 1_555
C1_3 C2_3 1_555 1_555
C2_3 C3_3 1_555 1_555
C3_3 H1_3 1_555 1_555
O1_3 Zn1_3 1_555 1_555
O2_3 C1_3 1_555 1_555
Zn3 O7_2 1_555 1_555
C19_3 C20_3 1_555 1_555
C20_3 C21_3 1_555 1_555
C21_3 H15_3 1_555 1_555
C22_3 C21_3 1_555 1_555
H16_3 C22_3 1_555 1_555
C23_3 C22_3 1_555 1_555
C24_3 C23_3 1_555 1_555
H17_3 C24_3 1_555 1_555
C25_3 C20_3 1_555 1_555
H18_3 C25_3 1_555 1_555
C26_3 C23_3 1_555 1_555
O5_3 Zn1_3 1_555 1_555
O6_3 C19_3 1_555 1_555
O7_2 C26_3 1_555 1_555
O10_3 C26_3 1_555 1_555
C1_3 O1_3 1_555 1_555
C19_3 O5_3 1_555 1_555
C24_3 C25_3 1_555 1_555
Zn2 N4_3 1_555 1_555
C14_3 C15_3 1_555 1_555
C16_3 C15_3 1_555 1_555
H10_3 C16_3 1_555 1_555
C17_3 H11_3 1_555 1_555
C18_3 C14_3 1_555 1_555
H12_3 C18_3 1_555 1_555
N3_3 C14_3 1_555 1_555
H14_3 N3_3 1_555 1_555
N4_3 C16_3 1_555 1_555
N9 Zn2 1_555 1_555
O8_2 Zn2 1_555 1_555
O9_2 Zn2 1_555 1_555
C17_3 C18_3 1_555 1_555
C17_3 N4_3 1_555 1_555
C9_3 H5_3 1_555 1_555
C10_3 C9_3 1_555 1_555
H6_3 C10_3 1_555 1_555
C11_3 C10_3 1_555 1_555
C12_3 C11_3 1_555 1_555
C13_3 C12_3 1_555 1_555
N1_3 C9_3 1_555 1_555
N2_3 C11_3 1_555 1_555
H13_3 N2_3 1_555 1_555
C27_3 H19_3 1_555 1_555
H21_3 C30_3 1_555 1_555
C31_3 C30_3 1_555 1_555
C33_3 H23_3 1_555 1_555
C34_3 C33_3 1_555 1_555
H24_3 C34_3 1_555 1_555
C35_3 H25_3 1_555 1_555
N9 C34_3 1_555 1_555
C13_3 N1_3 1_555 1_555
C27_3 N5_3 1_555 1_555
C31_3 N5_3 1_555 1_555
C35_3 N9 1_555 1_555
Zn3 N4_4 1_555 1_555
H2_2 C4_2 1_555 1_555
C14_4 C15_4 1_555 1_555
C16_4 C15_4 1_555 1_555
H10_4 C16_4 1_555 1_555
C17_4 H11_4 1_555 1_555
C18_4 C14_4 1_555 1_555
H12_4 C18_4 1_555 1_555
N3_4 C14_4 1_555 1_555
H14_4 N3_4 1_555 1_555
N4_4 C16_4 1_555 1_555
N9_2 Zn3 1_555 1_555
C17_4 C18_4 1_555 1_555
C17_4 N4_4 1_555 1_555
C6_4 C5_4 1_555 1_555
H3_4 C6_4 1_555 1_555
H4_4 C7_4 1_555 1_555
C8_4 C5_4 1_555 1_555
O8_2 C8_4 1_555 1_555
O4_4 C8_4 1_555 1_555
C6_4 C7_4 1_555 1_555
Zn1_4 N1_4 1_555 1_555
C1_4 C2_4 1_555 1_555
C2_4 C3_4 1_555 1_555
C3_4 H1_4 1_555 1_555
C9_4 H5_4 1_555 1_555
C10_4 C9_4 1_555 1_555
H6_4 C10_4 1_555 1_555
C11_4 C10_4 1_555 1_555
C12_4 C11_4 1_555 1_555
C13_4 C12_4 1_555 1_555
H8_4 C13_4 1_555 1_555
N1_4 C9_4 1_555 1_555
N2_4 C11_4 1_555 1_555
H13_4 N2_4 1_555 1_555
O1_4 Zn1_4 1_555 1_555
O2_4 C1_4 1_555 1_555
C19_4 C20_4 1_555 1_555
C20_4 C21_4 1_555 1_555
C21_4 H15_4 1_555 1_555
C22_4 C21_4 1_555 1_555
H16_4 C22_4 1_555 1_555
C23_4 C22_4 1_555 1_555
C24_4 C23_4 1_555 1_555
H17_4 C24_4 1_555 1_555
C25_4 C20_4 1_555 1_555
H18_4 C25_4 1_555 1_555
C26_4 C23_4 1_555 1_555
C27_4 H19_4 1_555 1_555
H21_4 C30_4 1_555 1_555
C31_4 C30_4 1_555 1_555
H22_4 C31_4 1_555 1_555
C33_4 H23_4 1_555 1_555
C34_4 C33_4 1_555 1_555
H24_4 C34_4 1_555 1_555
C35_4 H25_4 1_555 1_555
N5_4 Zn1_4 1_555 1_555
N9_2 C34_4 1_555 1_555
O5_4 Zn1_4 1_555 1_555
O6_4 C19_4 1_555 1_555
O9_2 C26_4 1_555 1_555
O10_4 C26_4 1_555 1_555
C1_4 O1_4 1_555 1_555
C13_4 N1_4 1_555 1_555
C19_4 O5_4 1_555 1_555
C24_4 C25_4 1_555 1_555
C27_4 N5_4 1_555 1_555
C31_4 N5_4 1_555 1_555
C35_4 N9_2 1_555 1_555
H2_3 C4_3 1_555 1_555
H20_2 C28_2 1_555 1_555
C29_2 C28_2 1_555 1_555
C36_2 C32_2 1_555 1_555
H26_2 C36_2 1_555 1_555
N6_2 C29_2 1_555 1_555
H27_2 N6_2 1_555 1_555
N7_2 C32_2 1_555 1_555
H28_2 N7_2 1_555 1_555
N6_2 N7_2 1_555 1_555
H20_3 C28_3 1_555 1_555
C29_3 C28_3 1_555 1_555
C36_3 C32_3 1_555 1_555
H26_3 C36_3 1_555 1_555
N6_3 C29_3 1_555 1_555
H27_3 N6_3 1_555 1_555
N7_3 C32_3 1_555 1_555
H28_3 N7_3 1_555 1_555
N6_3 N7_3 1_555 1_555
H20_4 C28_4 1_555 1_555
C29_4 C28_4 1_555 1_555
C36_4 C32_4 1_555 1_555
H26_4 C36_4 1_555 1_555
N6_4 C29_4 1_555 1_555
H27_4 N6_4 1_555 1_555
N7_4 C32_4 1_555 1_555
H28_4 N7_4 1_555 1_555
N6_4 N7_4 1_555 1_555
H2_4 C4_4 1_555 1_555

#END
