
###############################################################################
#
# This file contains modified crystal structure data generated from the
# MOF subset of the Cambridge Structural Database (CSD) v543 
# hosted by the Cambridge Crystallographic Data Centre (CCDC).
#
# This work is licensed under the Creative Commons
# Attribution-NonCommercial-ShareAlike 4.0 International License.
# To view a copy of this license, visit
# http://creativecommons.org/licenses/by-nc-sa/4.0/
# or send a letter to
# Creative Commons, PO Box 1866, Mountain View, CA 94042, USA.
#
# CIF created using the CSD Python API on 29 September 2022
# The structure has been converted into the P1 space group
# The structure has a 3D framework
# The original CSD entry IXUREZ is in the triclinic crystal system
# The framework has been calculated to contain at least 10.0% void space
# The void calculation uses a probe of radius 1.32A, grid spacing 0.4
#
###############################################################################

data_IXUREZ
_chemical_formula_moiety         '(C104 H72 N16 O30 Zn8)n'
_symmetry_cell_setting           triclinic
_symmetry_space_group_name_H-M   'P 1'
_symmetry_Int_Tables_number      1
_space_group_name_Hall           'P 1'
loop_
_symmetry_equiv_pos_site_id
_symmetry_equiv_pos_as_xyz
1 x,y,z
_cell_length_a                   10.877(7)
_cell_length_b                   17.619(12)
_cell_length_c                   20.499(14)
_cell_angle_alpha                110.788(12)
_cell_angle_beta                 93.326(13)
_cell_angle_gamma                90.408(12)
_cell_volume                     3664.92
loop_
_atom_site_label
_atom_site_type_symbol
_atom_site_fract_x
_atom_site_fract_y
_atom_site_fract_z
O23 O 0.0401(4) 0.0424(3) 0.2844(2)
O18 O 0.0035(3) 0.4720(3) 0.8407(2)
O19 O 0.0010(4) 0.5539(3) 0.7794(2)
O24 O 0.0511(3) 0.9554(2) 0.3405(2)
Zn3 Zn 0.85660(5) 0.06026(4) 0.27563(3)
C35 C 0.6271(5) 0.0065(4) 0.3075(3)
C36 C 0.4886(5) 0.0052(4) 0.3082(3)
C37 C 0.4181(5) 0.0548(4) 0.2844(3)
H21 H 0.4564 0.0901 0.2668
C38 C 0.2897(5) 0.0540(4) 0.2858(4)
H22 H 0.2434 0.0894 0.2706
C39 C 0.2333(5) 0.0007(4) 0.3098(3)
C42 C 0.0976(6) 0.0005(4) 0.3116(3)
O13 O 0.6733(4) 0.0528(3) 0.2810(3)
N9 N 0.8638(4) 0.1301(3) 0.2165(2)
O20 O 0.8673(4) 0.1391(2) 0.3750(2)
O21 O 0.8770(4) 0.0499(2) 0.4291(2)
C3 C 0.8009(5) 0.7669(3) 0.0024(3)
C4 C 0.8072(5) 0.8274(3) 0.0646(3)
H2 H 0.7951 0.8804 0.0669
C5 C 0.8314(5) 0.8121(3) 0.1253(3)
C6 C 0.8464(5) 0.7332(3) 0.1211(3)
H3 H 0.8603 0.7219 0.1618
C7 C 0.8411(5) 0.6704(3) 0.0571(3)
H4 H 0.8518 0.6172 0.0547
C8 C 0.8436(5) 0.8796(3) 0.1954(3)
C26 C 0.8595(5) 0.3462(4) 0.0082(3)
H14 H 0.8672 0.3686 0.0568
C30 C 0.9060(6) 0.2056(4) 0.1216(3)
C31 C 0.8167(6) 0.1477(4) 0.1088(3)
H17 H 0.7667 0.1326 0.0676
C32 C 0.8001(6) 0.1118(4) 0.1561(3)
H18 H 0.7392 0.0711 0.1451
C33 C 0.9481(6) 0.1909(4) 0.2316(3)
H19 H 0.9934 0.2069 0.2744
C34 C 0.9698(6) 0.2294(4) 0.1874(3)
C40 C 0.3016(6) 0.9507(4) 0.3323(4)
H23 H 0.2630 0.9142 0.3486
C41 C 0.4298(6) 0.9526(4) 0.3315(4)
H24 H 0.4756 0.9173 0.3472
N2 N 0.8878(5) 0.2110(3) 0.0091(3)
N3 N 0.9340(5) 0.2430(3) 0.0773(3)
H34 H 0.9801 0.2863 0.0914
O3 O 0.8443(4) 0.9506(2) 0.1950(2)
O4 O 0.8531(4) 0.8623(2) 0.2490(2)
O14 O 0.6839(4) 0.9622(3) 0.3333(2)
Zn10 Zn 0.86766(5) 0.94199(4) 0.34917(3)
Zn1 Zn 0.81675(5) 0.56118(4) 0.77262(3)
Zn2 Zn 0.82175(5) 0.44178(3) 0.84484(3)
C1 C 0.8203(5) 0.6204(3) 0.9272(3)
C2 C 0.8198(5) 0.6876(3) 0.9965(3)
H1 H 0.7833 0.7787 0.9622
C9 C 0.5838(5) 0.5008(3) 0.8042(3)
C10 C 0.4457(5) 0.5023(3) 0.8055(3)
C11 C 0.3805(6) 0.5586(4) 0.7860(4)
H5 H 0.4229 0.5954 0.7716
C12 C 0.2557(5) 0.5615(4) 0.7872(4)
H6 H 0.2138 0.6000 0.7737
C13 C 0.1916(5) 0.5084(3) 0.8082(3)
C14 C 0.2546(6) 0.4543(4) 0.8289(4)
H7 H 0.2120 0.4187 0.8444
C15 C 0.3800(5) 0.4509(4) 0.8275(4)
H8 H 0.4211 0.4128 0.8418
C16 C 0.0546(5) 0.5117(4) 0.8098(3)
C17 C 0.8287(5) 0.3802(3) 0.6942(3)
C18 C 0.8429(5) 0.3140(3) 0.6266(3)
C19 C 0.8511(6) 0.3301(3) 0.5656(3)
H9 H 0.8469 0.3834 0.5674
C20 C 0.8652(6) 0.2688(4) 0.5023(3)
H10 H 0.8739 0.2812 0.4623
C21 C 0.8662(5) 0.1888(3) 0.4986(3)
C22 C 0.8608(5) 0.1721(3) 0.5600(3)
H11 H 0.8649 0.1188 0.5584
C23 C 0.8494(5) 0.2334(3) 0.6222(3)
H12 H 0.8459 0.2212 0.6627
C24 C 0.8723(5) 0.1212(4) 0.4292(3)
C25 C 0.8432(5) 0.3944(3) 0.9697(3)
H13 H 0.8401 0.4501 0.9934
C27 C 0.8645(5) 0.2633(4) 0.9742(3)
C28 C 0.8487(6) 0.2324(3) 0.9015(3)
H15 H 0.8490 0.1767 0.8772
C29 C 0.8328(5) 0.2853(4) 0.8662(3)
H16 H 0.8227 0.2643 0.8177
C43 C 0.8375(5) 0.8912(4) 0.4694(3)
H25 H 0.8462 0.9467 0.4945
C44 C 0.8143(6) 0.8412(4) 0.5058(3)
H26 H 0.8095 0.8620 0.5540
C45 C 0.7984(7) 0.7600(4) 0.4692(4)
C46 C 0.8151(7) 0.7301(4) 0.3957(4)
H27 H 0.8102 0.6747 0.3700
C47 C 0.8382(6) 0.7844(4) 0.3644(3)
H28 H 0.8473 0.7652 0.3165
C48 C 0.7502(7) 0.6964(5) 0.6109(4)
C49 C 0.6757(7) 0.7126(5) 0.6676(4)
H29 H 0.6090 0.7464 0.6721
C50 C 0.7041(7) 0.6769(4) 0.7170(4)
H30 H 0.6549 0.6869 0.7547
C51 C 0.8672(6) 0.6176(4) 0.6584(3)
H31 H 0.9338 0.5838 0.6544
C52 C 0.8484(6) 0.6509(4) 0.6084(3)
H32 H 0.9027 0.6422 0.5732
N1 N 0.8313(4) 0.3670(3) 0.8994(2)
H33 H 0.8739 0.1596 0.9888
N5 N 0.8485(4) 0.8655(3) 0.4001(2)
N6 N 0.7691(7) 0.7024(4) 0.4993(4)
H35 H 0.7834 0.6517 0.4794
N7 N 0.7162(6) 0.7318(4) 0.5625(4)
H36 H 0.6644 0.7703 0.5714
N8 N 0.7994(4) 0.6290(3) 0.7119(2)
O1 O 0.8313(4) 0.6405(2) 0.87415(19)
O2 O 0.8120(4) 0.5487(2) 0.92521(19)
O5 O 0.6363(3) 0.5505(2) 0.7845(2)
O6 O 0.6365(3) 0.4496(2) 0.8251(2)
O9 O 0.8134(4) 0.4500(2) 0.69399(19)
O10 O 0.8319(4) 0.3614(2) 0.74738(19)
H20 H 0.0275 0.2721 0.2004
Zn5 Zn 0.18325(5) 0.43882(4) 0.22738(3)
Zn6 Zn 0.17825(5) 0.55822(3) 0.15516(3)
Zn12 Zn 0.13234(5) 0.05801(4) 0.65083(3)
Zn9 Zn 0.14340(5) 0.93974(4) 0.72437(3)
C1_2 C 0.1797(5) 0.3796(3) 0.0728(3)
C2_2 C 0.1802(5) 0.3124(3) 0.0035(3)
H1_2 H 0.2167 0.2213 0.0378
C9_2 C 0.4162(5) 0.4992(3) 0.1958(3)
C10_2 C 0.5543(5) 0.4977(3) 0.1945(3)
C11_2 C 0.6195(6) 0.4414(4) 0.2140(4)
H5_2 H 0.5771 0.4046 0.2284
C12_2 C 0.7443(5) 0.4385(4) 0.2128(4)
H6_2 H 0.7862 0.4000 0.2263
C13_2 C 0.8084(5) 0.4916(3) 0.1918(3)
C14_2 C 0.7454(6) 0.5457(4) 0.1711(4)
H7_2 H 0.7880 0.5813 0.1556
C15_2 C 0.6200(5) 0.5491(4) 0.1725(4)
H8_2 H 0.5789 0.5872 0.1582
C16_2 C 0.9454(5) 0.4883(4) 0.1902(3)
C17_2 C 0.1713(5) 0.6198(3) 0.3058(3)
C18_2 C 0.1571(5) 0.6860(3) 0.3734(3)
C19_2 C 0.1489(6) 0.6699(3) 0.4344(3)
H9_2 H 0.1531 0.6166 0.4326
C20_2 C 0.1348(6) 0.7312(4) 0.4977(3)
H10_2 H 0.1261 0.7188 0.5377
C21_2 C 0.1338(5) 0.8112(3) 0.5014(3)
C22_2 C 0.1392(5) 0.8279(3) 0.4400(3)
H11_2 H 0.1351 0.8812 0.4416
C23_2 C 0.1506(5) 0.7666(3) 0.3778(3)
H12_2 H 0.1541 0.7788 0.3373
C24_2 C 0.1277(5) 0.8788(4) 0.5708(3)
C25_2 C 0.1568(5) 0.6056(3) 0.0303(3)
H13_2 H 0.1599 0.5499 0.0066
C27_2 C 0.1355(5) 0.7367(4) 0.0258(3)
C28_2 C 0.1513(6) 0.7676(3) 0.0985(3)
H15_2 H 0.1510 0.8233 0.1228
C29_2 C 0.1672(5) 0.7147(4) 0.1338(3)
H16_2 H 0.1773 0.7357 0.1823
C43_2 C 0.1625(5) 0.1088(4) 0.5306(3)
H25_2 H 0.1538 0.0533 0.5055
C44_2 C 0.1857(6) 0.1588(4) 0.4942(3)
H26_2 H 0.1905 0.1380 0.4460
C45_2 C 0.2016(7) 0.2400(4) 0.5308(4)
C46_2 C 0.1849(7) 0.2699(4) 0.6043(4)
H27_2 H 0.1898 0.3253 0.6300
C47_2 C 0.1618(6) 0.2156(4) 0.6356(3)
H28_2 H 0.1527 0.2348 0.6835
C48_2 C 0.2498(7) 0.3036(5) 0.3891(4)
C49_2 C 0.3243(7) 0.2874(5) 0.3324(4)
H29_2 H 0.3910 0.2536 0.3279
C50_2 C 0.2959(7) 0.3231(4) 0.2830(4)
H30_2 H 0.3451 0.3131 0.2453
C51_2 C 0.1328(6) 0.3824(4) 0.3416(3)
H31_2 H 0.0662 0.4162 0.3456
C52_2 C 0.1516(6) 0.3491(4) 0.3916(3)
H32_2 H 0.0973 0.3578 0.4268
N1_2 N 0.1687(4) 0.6330(3) 0.1006(2)
H33_2 H 0.1261 0.8404 0.0112
N5_2 N 0.1515(4) 0.1345(3) 0.5999(2)
N6_2 N 0.2309(7) 0.2976(4) 0.5007(4)
H35_2 H 0.2166 0.3483 0.5206
N7_2 N 0.2838(6) 0.2682(4) 0.4375(4)
H36_2 H 0.3356 0.2297 0.4286
N8_2 N 0.2006(4) 0.3710(3) 0.2881(2)
O1_2 O 0.1687(4) 0.3595(2) 0.12585(19)
O2_2 O 0.1880(4) 0.4513(2) 0.07479(19)
O5_2 O 0.3637(3) 0.4495(2) 0.2155(2)
O6_2 O 0.3635(3) 0.5504(2) 0.1749(2)
O7 O 0.9965(3) 0.5280(3) 0.1593(2)
O8 O 0.9990(4) 0.4461(3) 0.2206(2)
O9_2 O 0.1866(4) 0.5500(2) 0.30601(19)
O10_2 O 0.1681(4) 0.6386(2) 0.25262(19)
O11 O 0.1327(4) 0.8609(2) 0.6250(2)
O12 O 0.1230(4) 0.9501(2) 0.5709(2)
O17 O 0.1469(4) 0.1377(2) 0.7510(2)
O22 O 0.3161(4) 0.0378(3) 0.6667(2)
C3_2 C 0.1991(5) 0.2331(3) 0.9976(3)
C4_2 C 0.1928(5) 0.1726(3) 0.9354(3)
H2_2 H 0.2049 0.1196 0.9331
C5_2 C 0.1686(5) 0.1879(3) 0.8747(3)
C6_2 C 0.1536(5) 0.2668(3) 0.8789(3)
H3_2 H 0.1397 0.2781 0.8382
C7_2 C 0.1589(5) 0.3296(3) 0.9429(3)
H4_2 H 0.1482 0.3828 0.9453
C8_2 C 0.1564(5) 0.1204(3) 0.8046(3)
C26_2 C 0.1405(5) 0.6538(4) 0.9918(3)
H14_2 H 0.1328 0.6314 0.9432
C30_2 C 0.0940(6) 0.7944(4) 0.8784(3)
C31_2 C 0.1833(6) 0.8523(4) 0.8912(3)
H17_2 H 0.2333 0.8674 0.9324
C32_2 C 0.1999(6) 0.8882(4) 0.8439(3)
H18_2 H 0.2608 0.9289 0.8549
C33_2 C 0.0519(6) 0.8091(4) 0.7684(3)
H19_2 H 0.0066 0.7931 0.7256
C34_2 C 0.0302(6) 0.7706(4) 0.8126(3)
C40_2 C 0.6984(6) 0.0493(4) 0.6677(4)
H23_2 H 0.7370 0.0858 0.6514
C41_2 C 0.5702(6) 0.0474(4) 0.6685(4)
H24_2 H 0.5244 0.0827 0.6528
N2_2 N 0.1122(5) 0.7890(3) 0.9909(3)
N3_2 N 0.0660(5) 0.7570(3) 0.9227(3)
H34_2 H 0.0199 0.7137 0.9086
N4 N 0.1362(4) 0.8699(3) 0.7835(2)
O3_2 O 0.1557(4) 0.0494(2) 0.8050(2)
O16 O 0.9489(3) 0.0446(2) 0.6595(2)
C35_2 C 0.3729(5) 0.9935(4) 0.6925(3)
C36_2 C 0.5114(5) 0.9948(4) 0.6918(3)
C37_2 C 0.5819(5) 0.9452(4) 0.7156(3)
H21_2 H 0.5436 0.9099 0.7332
C38_2 C 0.7103(5) 0.9460(4) 0.7142(4)
H22_2 H 0.7566 0.9106 0.7294
C39_2 C 0.7667(5) 0.9993(4) 0.6902(3)
C42_2 C 0.9024(6) 0.9995(4) 0.6884(3)
O13_2 O 0.3267(4) 0.9472(3) 0.7190(3)
O15 O 0.9599(4) 0.9576(3) 0.7156(2)
H20_2 H 0.9725 0.7279 0.7996
loop_
_geom_bond_atom_site_label_1
_geom_bond_atom_site_label_2
_geom_bond_site_symmetry_1
_geom_bond_site_symmetry_2
C35 C36 1_555 1_555
C36 C37 1_555 1_555
C37 H21 1_555 1_555
C38 C37 1_555 1_555
H22 C38 1_555 1_555
C39 C38 1_555 1_555
C42 C39 1_555 1_555
O13 Zn3 1_555 1_555
O23 C42 1_555 1_555
N9 Zn3 1_555 1_555
O20 Zn3 1_555 1_555
C35 O13 1_555 1_555
C4 C3 1_555 1_555
H2 C4 1_555 1_555
C5 C4 1_555 1_555
C6 C5 1_555 1_555
H3 C6 1_555 1_555
H4 C7 1_555 1_555
C8 C5 1_555 1_555
H14 C26 1_555 1_555
C30 C31 1_555 1_555
C31 H17 1_555 1_555
C32 C31 1_555 1_555
H18 C32 1_555 1_555
C33 H19 1_555 1_555
C34 C30 1_555 1_555
H23 C40 1_555 1_555
H24 C41 1_555 1_555
N3 C30 1_555 1_555
H34 N3 1_555 1_555
N9 C32 1_555 1_555
O3 C8 1_555 1_555
O4 C8 1_555 1_555
Zn10 O4 1_555 1_555
C6 C7 1_555 1_555
C33 C34 1_555 1_555
C33 N9 1_555 1_555
C40 C41 1_555 1_555
N2 N3 1_555 1_555
O14 Zn10 1_555 1_555
Zn1 N8 1_555 1_555
Zn2 N1 1_555 1_555
Zn10 N5 1_555 1_555
C1 C2 1_555 1_555
C9 C10 1_555 1_555
C10 C11 1_555 1_555
C11 H5 1_555 1_555
C12 C11 1_555 1_555
H6 C12 1_555 1_555
C13 C12 1_555 1_555
C14 C13 1_555 1_555
H7 C14 1_555 1_555
C15 C10 1_555 1_555
H8 C15 1_555 1_555
C16 C13 1_555 1_555
C17 C18 1_555 1_555
C18 C19 1_555 1_555
C19 H9 1_555 1_555
C20 C19 1_555 1_555
H10 C20 1_555 1_555
C21 C20 1_555 1_555
C22 C21 1_555 1_555
H11 C22 1_555 1_555
C23 C18 1_555 1_555
H12 C23 1_555 1_555
C24 C21 1_555 1_555
C25 H13 1_555 1_555
C28 C27 1_555 1_555
H15 C28 1_555 1_555
C29 C28 1_555 1_555
H16 C29 1_555 1_555
C43 H25 1_555 1_555
C44 C43 1_555 1_555
H26 C44 1_555 1_555
C45 C44 1_555 1_555
C46 C45 1_555 1_555
H27 C46 1_555 1_555
C47 C46 1_555 1_555
H28 C47 1_555 1_555
C48 C49 1_555 1_555
C49 H29 1_555 1_555
C50 C49 1_555 1_555
H30 C50 1_555 1_555
C51 H31 1_555 1_555
C52 C48 1_555 1_555
H32 C52 1_555 1_555
N1 C25 1_555 1_555
N5 C43 1_555 1_555
N6 C45 1_555 1_555
H35 N6 1_555 1_555
N7 C48 1_555 1_555
H36 N7 1_555 1_555
N8 C50 1_555 1_555
O1 Zn1 1_555 1_555
O2 Zn2 1_555 1_555
O5 Zn1 1_555 1_555
O6 Zn2 1_555 1_555
O18 C16 1_555 1_555
O19 C16 1_555 1_555
O9 Zn1 1_555 1_555
O10 Zn2 1_555 1_555
O20 C24 1_555 1_555
O21 C24 1_555 1_555
C1 O1 1_555 1_555
C1 O2 1_555 1_555
C9 O5 1_555 1_555
C9 O6 1_555 1_555
C14 C15 1_555 1_555
C17 O9 1_555 1_555
C17 O10 1_555 1_555
C22 C23 1_555 1_555
C29 N1 1_555 1_555
C47 N5 1_555 1_555
C51 C52 1_555 1_555
C51 N8 1_555 1_555
N6 N7 1_555 1_555
Zn5 N8_2 1_555 1_555
Zn6 N1_2 1_555 1_555
Zn12 N5_2 1_555 1_555
C1_2 C2_2 1_555 1_555
C9_2 C10_2 1_555 1_555
C10_2 C11_2 1_555 1_555
C11_2 H5_2 1_555 1_555
C12_2 C11_2 1_555 1_555
H6_2 C12_2 1_555 1_555
C13_2 C12_2 1_555 1_555
C14_2 C13_2 1_555 1_555
H7_2 C14_2 1_555 1_555
C15_2 C10_2 1_555 1_555
H8_2 C15_2 1_555 1_555
C16_2 C13_2 1_555 1_555
C17_2 C18_2 1_555 1_555
C18_2 C19_2 1_555 1_555
C19_2 H9_2 1_555 1_555
C20_2 C19_2 1_555 1_555
H10_2 C20_2 1_555 1_555
C21_2 C20_2 1_555 1_555
C22_2 C21_2 1_555 1_555
H11_2 C22_2 1_555 1_555
C23_2 C18_2 1_555 1_555
H12_2 C23_2 1_555 1_555
C24_2 C21_2 1_555 1_555
C25_2 H13_2 1_555 1_555
C28_2 C27_2 1_555 1_555
H15_2 C28_2 1_555 1_555
C29_2 C28_2 1_555 1_555
H16_2 C29_2 1_555 1_555
C43_2 H25_2 1_555 1_555
C44_2 C43_2 1_555 1_555
H26_2 C44_2 1_555 1_555
C45_2 C44_2 1_555 1_555
C46_2 C45_2 1_555 1_555
H27_2 C46_2 1_555 1_555
C47_2 C46_2 1_555 1_555
H28_2 C47_2 1_555 1_555
C48_2 C49_2 1_555 1_555
C49_2 H29_2 1_555 1_555
C50_2 C49_2 1_555 1_555
H30_2 C50_2 1_555 1_555
C51_2 H31_2 1_555 1_555
C52_2 C48_2 1_555 1_555
H32_2 C52_2 1_555 1_555
N1_2 C25_2 1_555 1_555
N5_2 C43_2 1_555 1_555
N6_2 C45_2 1_555 1_555
H35_2 N6_2 1_555 1_555
N7_2 C48_2 1_555 1_555
H36_2 N7_2 1_555 1_555
N8_2 C50_2 1_555 1_555
O1_2 Zn5 1_555 1_555
O2_2 Zn6 1_555 1_555
O5_2 Zn5 1_555 1_555
O6_2 Zn6 1_555 1_555
O7 C16_2 1_555 1_555
O8 C16_2 1_555 1_555
O9_2 Zn5 1_555 1_555
O10_2 Zn6 1_555 1_555
O11 C24_2 1_555 1_555
O12 C24_2 1_555 1_555
Zn9 O11 1_555 1_555
O17 Zn12 1_555 1_555
O22 Zn12 1_555 1_555
C1_2 O1_2 1_555 1_555
C1_2 O2_2 1_555 1_555
C9_2 O5_2 1_555 1_555
C9_2 O6_2 1_555 1_555
C14_2 C15_2 1_555 1_555
C17_2 O9_2 1_555 1_555
C17_2 O10_2 1_555 1_555
C22_2 C23_2 1_555 1_555
C29_2 N1_2 1_555 1_555
C47_2 N5_2 1_555 1_555
C51_2 C52_2 1_555 1_555
C51_2 N8_2 1_555 1_555
N6_2 N7_2 1_555 1_555
C4_2 C3_2 1_555 1_555
H2_2 C4_2 1_555 1_555
C5_2 C4_2 1_555 1_555
C6_2 C5_2 1_555 1_555
H3_2 C6_2 1_555 1_555
H4_2 C7_2 1_555 1_555
C8_2 C5_2 1_555 1_555
H14_2 C26_2 1_555 1_555
C30_2 C31_2 1_555 1_555
C31_2 H17_2 1_555 1_555
C32_2 C31_2 1_555 1_555
H18_2 C32_2 1_555 1_555
C33_2 H19_2 1_555 1_555
C34_2 C30_2 1_555 1_555
H23_2 C40_2 1_555 1_555
H24_2 C41_2 1_555 1_555
N3_2 C30_2 1_555 1_555
H34_2 N3_2 1_555 1_555
N4 C32_2 1_555 1_555
O3_2 C8_2 1_555 1_555
O17 C8_2 1_555 1_555
Zn9 N4 1_555 1_555
C6_2 C7_2 1_555 1_555
C33_2 C34_2 1_555 1_555
C33_2 N4 1_555 1_555
C40_2 C41_2 1_555 1_555
N2_2 N3_2 1_555 1_555
C35_2 C36_2 1_555 1_555
C36_2 C37_2 1_555 1_555
C37_2 H21_2 1_555 1_555
C38_2 C37_2 1_555 1_555
H22_2 C38_2 1_555 1_555
C39_2 C38_2 1_555 1_555
C42_2 C39_2 1_555 1_555
O13_2 Zn9 1_555 1_555
O15 C42_2 1_555 1_555
C35_2 O13_2 1_555 1_555

#END
